ver_1.2
     RDKit          3D

 37 41  0  0  0  0  0  0  0  0999 V2000
   -9.2786   -2.5587   -0.4288 C   0  0  0  0  0  0  0  0  0  0  0  0
   -8.2410   -1.4811   -0.3234 C   0  0  0  0  0  0  0  0  0  0  0  0
   -8.6040   -0.3016   -1.2149 C   0  0  0  0  0  0  0  0  0  0  0  0
   -8.0908   -0.9782    1.1165 C   0  0  0  0  0  0  0  0  0  0  0  0
   -6.9532   -1.9149   -0.7879 O   0  0  0  0  0  0  0  0  0  0  0  0
   -5.8592   -1.0613   -0.7718 C   0  0  0  0  0  0  0  0  0  0  0  0
   -6.0316    0.0913   -0.3418 O   0  0  0  0  0  0  0  0  0  0  0  0
   -4.6263   -1.5766   -1.2501 N   0  0  0  0  0  0  0  0  0  0  0  0
   -3.3892   -0.8204   -1.3021 C   0  0  0  0  0  0  0  0  0  0  0  0
   -3.5712    0.5642   -0.7917 C   0  0  0  0  0  0  0  0  0  0  0  0
   -3.8012    1.7556   -1.4553 C   0  0  0  0  0  0  0  0  0  0  0  0
   -3.9346    2.9211   -0.7291 C   0  0  0  0  0  0  0  0  0  0  0  0
   -3.8418    2.9136    0.6474 C   0  0  0  0  0  0  0  0  0  0  0  0
   -3.6098    1.6936    1.2737 C   0  0  0  0  0  0  0  0  0  0  0  0
   -3.4709    0.5170    0.6032 C   0  0  0  0  0  0  0  0  0  0  0  0
   -3.2210   -0.9085    1.0174 C   0  0  0  0  0  0  0  0  0  0  0  0
   -2.4789   -1.3988   -0.2340 C   0  0  0  0  0  0  0  0  0  0  0  0
   -1.1535   -0.6834   -0.2449 C   0  0  0  0  0  0  0  0  0  0  0  0
   -0.9086    0.2495   -1.0519 O   0  0  0  0  0  0  0  0  0  0  0  0
   -0.2007   -1.1396    0.7231 N   0  0  0  0  0  0  0  0  0  0  0  0
    1.1027   -0.5509    0.8279 C   0  0  0  0  0  0  0  0  0  0  0  0
    1.1956    0.5287    1.7035 C   0  0  0  0  0  0  0  0  0  0  0  0
    2.4190    1.1448    1.8550 C   0  0  0  0  0  0  0  0  0  0  0  0
    3.5163    0.6933    1.1509 C   0  0  0  0  0  0  0  0  0  0  0  0
    3.4001   -0.3781    0.2892 C   0  0  0  0  0  0  0  0  0  0  0  0
    2.1864   -1.0175    0.1153 C   0  0  0  0  0  0  0  0  0  0  0  0
    4.7306   -0.6358   -0.3221 C   0  0  0  0  0  0  0  0  0  0  0  0
    5.5942    0.3546    0.2496 N   0  0  0  0  0  0  0  0  0  0  0  0
    7.0067    0.5261   -0.0270 C   0  0  0  0  0  0  0  0  0  0  0  0
    7.8359   -0.2995    0.9339 C   0  0  0  0  0  0  0  0  0  0  0  0
    9.0818   -0.5290    0.1490 C   0  0  0  0  0  0  0  0  0  0  0  0
   10.2329   -0.6639    0.6346 O   0  0  0  0  0  0  0  0  0  0  0  0
    8.6707   -0.5566   -1.2143 N   0  0  0  0  0  0  0  0  0  0  0  0
    7.3857    0.0192   -1.3711 C   0  0  0  0  0  0  0  0  0  0  0  0
    6.7075    0.0850   -2.4357 O   0  0  0  0  0  0  0  0  0  0  0  0
    4.8846    1.1957    1.1643 C   0  0  0  0  0  0  0  0  0  0  0  0
    5.3156    2.1607    1.8434 O   0  0  0  0  0  0  0  0  0  0  0  0
  1  2  1  0
  2  3  1  0
  2  4  1  0
  2  5  1  0
  5  6  1  0
  6  7  2  0
  6  8  1  0
  8  9  1  0
  9 10  1  0
 10 11  2  0
 11 12  1  0
 12 13  2  0
 13 14  1  0
 14 15  2  0
 15 16  1  0
 16 17  1  0
 17 18  1  0
 18 19  2  0
 18 20  1  0
 20 21  1  0
 21 22  2  0
 22 23  1  0
 23 24  2  0
 24 25  1  0
 25 26  2  0
 25 27  1  0
 27 28  1  0
 28 29  1  0
 29 30  1  0
 30 31  1  0
 31 32  2  0
 31 33  1  0
 33 34  1  0
 34 35  2  0
 28 36  1  0
 36 37  2  0
 17  9  1  0
 26 21  1  0
 34 29  1  0
 15 10  1  0
 36 24  1  0
M  END
>  <ref_url>  (1) 
https://hippo.winokan.com

>  <submitter_name>  (1) 
Max Winokan

>  <submitter_email>  (1) 
max.winokan@diamond.ac.uk

>  <submitter_institution>  (1) 
DLS

>  <generation_date>  (1) 
2025-11-14

>  <method>  (1) 
openbind_xx01zvns2b_c1_elab_chemspace_filtered

>  <HIPPO Pose ID>  (1) 
HIPPO Pose ID

>  <HIPPO Compound ID>  (1) 
HIPPO Compound ID

>  <smiles>  (1) 
smiles

>  <ref_pdb>  (1) 
protein reference

>  <ref_mols>  (1) 
fragment inspirations

>  <alias>  (1) 
alias

>  <distance_score>  (1) 
distance_score

>  <energy_score>  (1) 
energy_score

>  <inspiration_score>  (1) 
inspiration_score

$$$$
P17661
     RDKit          3D

 22 25  0  0  0  0  0  0  0  0999 V2000
   -4.4783    4.9489  -15.6431 N   0  0  0  0  0  0  0  0  0  0  0  0
   -5.6162    5.8167  -15.8863 C   0  0  1  0  0  0  0  0  0  0  0  0
   -6.2177    5.3679  -17.1783 C   0  0  0  0  0  0  0  0  0  0  0  0
   -5.5983    5.3925  -18.4056 C   0  0  0  0  0  0  0  0  0  0  0  0
   -6.2436    4.7424  -19.4388 C   0  0  0  0  0  0  0  0  0  0  0  0
   -7.5052    4.1469  -19.2559 C   0  0  0  0  0  0  0  0  0  0  0  0
   -8.1448    4.1656  -18.0305 C   0  0  0  0  0  0  0  0  0  0  0  0
   -7.4615    4.7419  -16.9890 C   0  0  0  0  0  0  0  0  0  0  0  0
   -7.8191    4.6730  -15.5476 C   0  0  0  0  0  0  0  0  0  0  0  0
   -6.8604    5.7092  -14.9542 C   0  0  1  0  0  0  0  0  0  0  0  0
   -6.6156    5.8116  -13.4465 C   0  0  0  0  0  0  0  0  0  0  0  0
   -5.9624    6.6860  -13.0176 O   0  0  0  0  0  0  0  0  0  0  0  0
   -7.4261    4.6982  -12.7089 N   0  0  0  0  0  0  0  0  0  0  0  0
   -7.6624    4.5032  -11.3566 C   0  0  0  0  0  0  0  0  0  0  0  0
   -7.3007    5.4719  -10.4116 C   0  0  0  0  0  0  0  0  0  0  0  0
   -7.5740    5.2758   -9.0564 C   0  0  0  0  0  0  0  0  0  0  0  0
   -8.1836    4.0951   -8.6775 C   0  0  0  0  0  0  0  0  0  0  0  0
   -8.5341    3.1303   -9.6169 C   0  0  0  0  0  0  0  0  0  0  0  0
   -8.3046    3.3244  -10.9655 C   0  0  0  0  0  0  0  0  0  0  0  0
   -9.0657    1.9344   -8.9022 C   0  0  0  0  0  0  0  0  0  0  0  0
   -9.4021    2.4178   -7.5401 N   0  0  0  0  0  0  0  0  0  0  0  0
   -8.5048    3.5790   -7.3141 C   0  0  0  0  0  0  0  0  0  0  0  0
  2  1  1  1
  2  3  1  0
  3  4  2  0
  4  5  1  0
  5  6  2  0
  6  7  1  0
  7  8  2  0
  8  9  1  0
  9 10  1  0
 10 11  1  1
 11 12  2  0
 11 13  1  0
 13 14  1  0
 14 15  2  0
 15 16  1  0
 16 17  2  0
 17 18  1  0
 18 19  2  0
 18 20  1  0
 20 21  1  0
 21 22  1  0
 10  2  1  0
 19 14  1  0
  8  3  1  0
 22 17  1  0
M  END
>  <energy_score>  (1) 
-20.194559

>  <alias>  (1) 
None

>  <HIPPO Pose ID>  (1) 
17661

>  <smiles>  (1) 
N[C@H]1c2ccccc2C[C@H]1C(=O)Nc1ccc2c(c1)CNC2

>  <inchikey>  (1) 
HNRYHUBAEPTRJZ-UHFFFAOYSA-N

>  <distance_score>  (1) 
1.907328

>  <ref_mols>  (1) 
Z4198a,Z3440a

>  <ref_pdb>  (1) 
Z3440a

>  <HIPPO Compound ID>  (1) 
101237

>  <name>  (1) 
P17661

>  <inspiration_score>  (1) 
None

$$$$
P23307
     RDKit          3D

 23 26  0  0  0  0  0  0  0  0999 V2000
   -4.5281    8.2450  -18.1563 N   0  0  0  0  0  0  0  0  0  0  0  0
   -4.8734    7.4806  -17.3532 C   0  0  0  0  0  0  0  0  0  0  0  0
   -5.3470    6.5878  -16.3473 C   0  0  0  0  0  0  0  0  0  0  0  0
   -4.8368    6.4922  -15.0694 C   0  0  0  0  0  0  0  0  0  0  0  0
   -5.6003    5.5858  -14.3822 N   0  0  0  0  0  0  0  0  0  0  0  0
   -6.6300    5.1409  -15.1828 C   0  0  0  0  0  0  0  0  0  0  0  0
   -7.6882    4.2681  -14.9032 C   0  0  0  0  0  0  0  0  0  0  0  0
   -7.8226    3.6393  -13.5733 C   0  0  0  0  0  0  0  0  0  0  0  0
   -7.7846    2.4769  -13.4840 O   0  0  0  0  0  0  0  0  0  0  0  0
   -7.9230    4.7263  -12.4773 N   0  0  0  0  0  0  0  0  0  0  0  0
   -8.0869    4.6090  -11.1021 C   0  0  0  0  0  0  0  0  0  0  0  0
   -7.9563    5.7585  -10.3022 C   0  0  0  0  0  0  0  0  0  0  0  0
   -8.1219    5.6831   -8.9147 C   0  0  0  0  0  0  0  0  0  0  0  0
   -8.4493    4.4580   -8.3608 C   0  0  0  0  0  0  0  0  0  0  0  0
   -8.6079    3.3336   -9.1587 C   0  0  0  0  0  0  0  0  0  0  0  0
   -8.4044    3.3813  -10.5263 C   0  0  0  0  0  0  0  0  0  0  0  0
   -9.0637    2.1829   -8.3314 C   0  0  0  0  0  0  0  0  0  0  0  0
   -9.0106    2.6467   -6.9156 N   0  0  0  0  0  0  0  0  0  0  0  0
   -8.7338    4.0993   -6.9437 C   0  0  0  0  0  0  0  0  0  0  0  0
   -8.5991    3.9772  -15.9212 C   0  0  0  0  0  0  0  0  0  0  0  0
   -8.4205    4.4888  -17.2021 C   0  0  0  0  0  0  0  0  0  0  0  0
   -7.3427    5.3367  -17.4832 C   0  0  0  0  0  0  0  0  0  0  0  0
   -6.4526    5.7005  -16.4498 C   0  0  0  0  0  0  0  0  0  0  0  0
  1  2  3  0
  2  3  1  0
  3  4  2  0
  4  5  1  0
  5  6  1  0
  6  7  2  0
  7  8  1  0
  8  9  2  0
  8 10  1  0
 10 11  1  0
 11 12  2  0
 12 13  1  0
 13 14  2  0
 14 15  1  0
 15 16  2  0
 15 17  1  0
 17 18  1  0
 18 19  1  0
  7 20  1  0
 20 21  2  0
 21 22  1  0
 22 23  2  0
 23  3  1  0
 23  6  1  0
 16 11  1  0
 19 14  1  0
M  END
>  <energy_score>  (2) 
-24.567082

>  <alias>  (2) 
None

>  <HIPPO Pose ID>  (2) 
23307

>  <smiles>  (2) 
N#Cc1c[nH]c2c(C(=O)Nc3ccc4c(c3)CNC4)cccc12

>  <inchikey>  (2) 
LFCFADNCZRJYKM-UHFFFAOYSA-N

>  <distance_score>  (2) 
0.856951

>  <ref_mols>  (2) 
Z4983a,Z3842a

>  <ref_pdb>  (2) 
Z3842a

>  <HIPPO Compound ID>  (2) 
193

>  <name>  (2) 
P23307

>  <inspiration_score>  (2) 
None

$$$$
P30966
     RDKit          3D

 23 24  0  0  0  0  0  0  0  0999 V2000
   -7.6620    6.8307  -11.6251 C   0  0  0  0  0  0  0  0  0  0  0  0
   -7.1957    5.4570  -11.1223 C   0  0  0  0  0  0  0  0  0  0  0  0
   -7.3843    5.4061   -9.6023 C   0  0  0  0  0  0  0  0  0  0  0  0
   -7.9230    4.2971  -11.8542 C   0  0  2  0  0  0  0  0  0  0  0  0
   -7.5121    2.8947  -11.3584 C   0  0  0  0  0  0  0  0  0  0  0  0
   -8.1326    2.5595  -10.1251 O   0  0  0  0  0  0  0  0  0  0  0  0
   -7.7260    4.3797  -13.3018 N   0  0  0  0  0  0  0  0  0  0  0  0
   -8.5385    4.9687  -14.3321 C   0  0  0  0  0  0  0  0  0  0  0  0
   -9.5461    5.6118  -14.2603 O   0  0  0  0  0  0  0  0  0  0  0  0
   -7.9012    4.6908  -15.7132 C   0  0  1  0  0  0  0  0  0  0  0  0
   -8.9443    4.5007  -16.7966 C   0  0  0  0  0  0  0  0  0  0  0  0
   -8.2305    4.5777  -18.1256 C   0  0  0  0  0  0  0  0  0  0  0  0
   -7.1820    5.6870  -18.1155 C   0  0  0  0  0  0  0  0  0  0  0  0
   -5.9671    5.5454  -17.2408 N   0  0  0  0  0  0  0  0  0  0  0  0
   -4.8267    6.3780  -17.0987 C   0  0  0  0  0  0  0  0  0  0  0  0
   -4.5807    7.4545  -17.5732 O   0  0  0  0  0  0  0  0  0  0  0  0
   -3.7609    5.7534  -16.2504 C   0  0  0  0  0  0  0  0  0  0  0  0
   -2.6013    6.4855  -15.9961 C   0  0  0  0  0  0  0  0  0  0  0  0
   -1.6502    5.9283  -15.1664 C   0  0  0  0  0  0  0  0  0  0  0  0
   -1.7774    4.7151  -14.5891 N   0  0  0  0  0  0  0  0  0  0  0  0
   -2.8987    4.0190  -14.8655 C   0  0  0  0  0  0  0  0  0  0  0  0
   -3.9008    4.4826  -15.6927 C   0  0  0  0  0  0  0  0  0  0  0  0
   -6.9945    5.8633  -16.1372 C   0  0  0  0  0  0  0  0  0  0  0  0
  1  2  1  0
  2  3  1  0
  2  4  1  0
  4  5  1  1
  5  6  1  0
  4  7  1  0
  7  8  1  0
  8  9  2  0
 10  8  1  1
 10 11  1  0
 11 12  1  0
 12 13  1  0
 13 14  1  0
 14 15  1  0
 15 16  2  0
 15 17  1  0
 17 18  2  0
 18 19  1  0
 19 20  2  0
 20 21  1  0
 21 22  2  0
 14 23  1  0
 23 10  1  0
 22 17  1  0
M  END
>  <energy_score>  (3) 
31.508061

>  <alias>  (3) 
None

>  <HIPPO Pose ID>  (3) 
30966

>  <smiles>  (3) 
CC(C)[C@H](CO)NC(=O)[C@H]1CCCN(C(=O)c2ccncc2)C1

>  <inchikey>  (3) 
SMWMHNSJNJIPQB-UHFFFAOYSA-N

>  <distance_score>  (3) 
2.344184

>  <ref_mols>  (3) 
Z0182a,Z1495a,Z1274a

>  <ref_pdb>  (3) 
Z0182a

>  <HIPPO Compound ID>  (3) 
9576

>  <name>  (3) 
P30966

>  <inspiration_score>  (3) 
None

$$$$
P31229
     RDKit          3D

 18 19  0  0  0  0  0  0  0  0999 V2000
   -7.8005    4.5929  -18.5305 C   0  0  0  0  0  0  0  0  0  0  0  0
   -6.5216    5.2599  -18.3975 N   0  0  0  0  0  0  0  0  0  0  0  0
   -6.0130    6.1063  -19.3484 C   0  0  0  0  0  0  0  0  0  0  0  0
   -4.8839    6.6590  -18.9697 N   0  0  0  0  0  0  0  0  0  0  0  0
   -4.5995    6.0916  -17.7716 C   0  0  0  0  0  0  0  0  0  0  0  0
   -5.5937    5.2188  -17.3840 C   0  0  0  0  0  0  0  0  0  0  0  0
   -5.6381    4.4065  -16.1421 C   0  0  0  0  0  0  0  0  0  0  0  0
   -5.5660    5.2793  -14.8972 C   0  0  0  0  0  0  0  0  0  0  0  0
   -4.7322    5.1836  -14.0884 O   0  0  0  0  0  0  0  0  0  0  0  0
   -6.8315    6.1652  -14.9307 N   0  0  0  0  0  0  0  0  0  0  0  0
   -7.3783    7.0393  -13.9419 C   0  0  0  0  0  0  0  0  0  0  0  0
   -8.6491    6.4200  -13.3745 C   0  0  0  0  0  0  0  0  0  0  0  0
   -8.3951    5.6607  -12.1030 C   0  0  0  0  0  0  0  0  0  0  0  0
   -8.3564    4.2658  -12.0622 C   0  0  0  0  0  0  0  0  0  0  0  0
   -8.1684    3.6494  -10.8335 C   0  0  0  0  0  0  0  0  0  0  0  0
   -8.0059    4.3248   -9.6742 N   0  0  0  0  0  0  0  0  0  0  0  0
   -8.0193    5.6675   -9.7420 C   0  0  0  0  0  0  0  0  0  0  0  0
   -8.2078    6.3726  -10.9146 C   0  0  0  0  0  0  0  0  0  0  0  0
  1  2  1  0
  2  3  1  0
  3  4  2  0
  4  5  1  0
  5  6  2  0
  6  7  1  0
  7  8  1  0
  8  9  2  0
  8 10  1  0
 10 11  1  0
 11 12  1  0
 12 13  1  0
 13 14  2  0
 14 15  1  0
 15 16  2  0
 16 17  1  0
 17 18  2  0
  6  2  1  0
 18 13  1  0
M  END
>  <energy_score>  (4) 
4.631823

>  <alias>  (4) 
None

>  <HIPPO Pose ID>  (4) 
31229

>  <smiles>  (4) 
Cn1cncc1CC(=O)NCCc1ccncc1

>  <inchikey>  (4) 
KCPSUDOSURDHOS-UHFFFAOYSA-N

>  <distance_score>  (4) 
2.26162

>  <ref_mols>  (4) 
Z0917a,Z1495a

>  <ref_pdb>  (4) 
Z0917a

>  <HIPPO Compound ID>  (4) 
9884

>  <name>  (4) 
P31229

>  <inspiration_score>  (4) 
None

$$$$
P31731
     RDKit          3D

 21 24  0  0  0  0  0  0  0  0999 V2000
   -7.4439    6.5934  -12.3690 O   0  0  0  0  0  0  0  0  0  0  0  0
   -7.3350    5.6440  -13.0348 C   0  0  0  0  0  0  0  0  0  0  0  0
   -6.7944    5.7841  -14.4069 C   0  0  0  0  0  0  0  0  0  0  0  0
   -5.8174    6.7514  -14.6432 C   0  0  0  0  0  0  0  0  0  0  0  0
   -5.1728    6.7811  -15.8740 C   0  0  0  0  0  0  0  0  0  0  0  0
   -5.5377    5.8538  -16.8468 C   0  0  0  0  0  0  0  0  0  0  0  0
   -4.7366    5.7034  -18.0630 C   0  0  0  0  0  0  0  0  0  0  0  0
   -3.4546    5.1518  -17.9966 C   0  0  0  0  0  0  0  0  0  0  0  0
   -2.7283    4.9794  -19.1680 C   0  0  0  0  0  0  0  0  0  0  0  0
   -3.3062    5.3546  -20.3717 C   0  0  0  0  0  0  0  0  0  0  0  0
   -4.5772    5.9077  -20.3518 C   0  0  0  0  0  0  0  0  0  0  0  0
   -5.2840    6.1323  -19.2238 N   0  0  0  0  0  0  0  0  0  0  0  0
   -6.5451    4.9630  -16.6584 N   0  0  0  0  0  0  0  0  0  0  0  0
   -7.1415    4.9309  -15.4424 C   0  0  0  0  0  0  0  0  0  0  0  0
   -7.5595    4.1584  -12.7500 N   0  0  0  0  0  0  0  0  0  0  0  0
   -8.3724    3.4054  -10.9959 C   0  0  0  0  0  0  0  0  0  0  0  0
   -7.1939    4.2542  -10.5520 C   0  0  0  0  0  0  0  0  0  0  0  0
   -7.8086    5.3472   -9.6789 C   0  0  0  0  0  0  0  0  0  0  0  0
   -7.6240    4.4173   -8.4573 C   0  0  0  0  0  0  0  0  0  0  0  0
   -6.6410    3.5730   -9.3020 C   0  0  0  0  0  0  0  0  0  0  0  0
   -7.8212    3.4735  -11.6968 C   0  0  0  0  0  0  0  0  0  0  0  0
  1  2  2  0
  2  3  1  0
  3  4  2  0
  4  5  1  0
  5  6  2  0
  6  7  1  0
  7  8  2  0
  8  9  1  0
  9 10  2  0
 10 11  1  0
 11 12  2  0
  6 13  1  0
 13 14  2  0
  2 15  1  0
 15 16  1  0
 16 17  1  0
 17 18  1  0
 18 19  1  0
 19 20  1  0
 17 21  1  0
 14  3  1  0
 21 15  1  0
 12  7  1  0
 20 17  1  0
M  END
>  <energy_score>  (5) 
603.479268

>  <alias>  (5) 
None

>  <HIPPO Pose ID>  (5) 
31731

>  <smiles>  (5) 
O=C(c1ccc(-c2ccccn2)nc1)N1CC2(CCC2)C1

>  <inchikey>  (5) 
ZUPLOWKKLZDTMN-UHFFFAOYSA-N

>  <distance_score>  (5) 
2.37089

>  <ref_mols>  (5) 
Z1597a,Z0465a

>  <ref_pdb>  (5) 
Z1597a

>  <HIPPO Compound ID>  (5) 
13043

>  <name>  (5) 
P31731

>  <inspiration_score>  (5) 
None

$$$$
P31783
     RDKit          3D

 21 23  0  0  0  0  0  0  0  0999 V2000
   -8.4117    6.9537  -24.0064 O   0  0  0  0  0  0  0  0  0  0  0  0
   -9.9743    6.8053  -23.8829 C   0  0  0  0  0  0  0  0  0  0  0  0
  -10.7626    6.3769  -21.9788 N   0  0  0  0  0  0  0  0  0  0  0  0
   -9.9571    5.9235  -20.2543 C   0  0  1  0  0  0  0  0  0  0  0  0
   -9.6516    4.3287  -20.2440 C   0  0  0  0  0  0  0  0  0  0  0  0
   -8.3197    3.8159  -20.2845 O   0  0  0  0  0  0  0  0  0  0  0  0
   -8.6866    6.2098  -19.1190 C   0  0  0  0  0  0  0  0  0  0  0  0
   -7.5533    6.9234  -19.1684 N   0  0  0  0  0  0  0  0  0  0  0  0
   -6.7668    6.5121  -18.1235 C   0  0  0  0  0  0  0  0  0  0  0  0
   -7.4364    5.6166  -17.3339 C   0  0  0  0  0  0  0  0  0  0  0  0
   -8.6545    5.4575  -17.9367 N   0  0  0  0  0  0  0  0  0  0  0  0
  -10.7143    7.2751  -25.6819 C   0  0  0  0  0  0  0  0  0  0  0  0
  -11.5064    8.2486  -26.2880 C   0  0  0  0  0  0  0  0  0  0  0  0
  -11.8958    9.3362  -25.6169 F   0  0  0  0  0  0  0  0  0  0  0  0
  -11.8048    8.1831  -27.6585 C   0  0  0  0  0  0  0  0  0  0  0  0
  -11.0139    7.5572  -28.6071 C   0  0  0  0  0  0  0  0  0  0  0  0
   -9.8562    7.0669  -28.0694 C   0  0  0  0  0  0  0  0  0  0  0  0
   -8.7193    6.5862  -28.6661 N   0  0  0  0  0  0  0  0  0  0  0  0
   -7.8305    6.3114  -27.6835 C   0  0  0  0  0  0  0  0  0  0  0  0
   -8.3665    6.5257  -26.5124 N   0  0  0  0  0  0  0  0  0  0  0  0
   -9.6623    6.9419  -26.6926 C   0  0  0  0  0  0  0  0  0  0  0  0
  1  2  2  0
  2  3  1  0
  3  4  1  0
  4  5  1  6
  5  6  1  0
  4  7  1  0
  7  8  2  0
  8  9  1  0
  9 10  2  0
 10 11  1  0
  2 12  1  0
 12 13  2  0
 13 14  1  0
 13 15  1  0
 15 16  2  0
 16 17  1  0
 17 18  1  0
 18 19  1  0
 19 20  2  0
 20 21  1  0
 11  7  1  0
 21 12  1  0
 21 17  2  0
M  END
>  <energy_score>  (6) 
517.418507

>  <alias>  (6) 
None

>  <HIPPO Pose ID>  (6) 
31783

>  <smiles>  (6) 
O=C(N[C@@H](CO)c1ncc[nH]1)c1c(F)ccc2[nH]cnc12

>  <inchikey>  (6) 
LMXMRALIQGPJBP-UHFFFAOYSA-N

>  <distance_score>  (6) 
2.733057

>  <ref_mols>  (6) 
Z0846b,Z0846a,Z0800a

>  <ref_pdb>  (6) 
Z0800a

>  <HIPPO Compound ID>  (6) 
17089

>  <name>  (6) 
P31783

>  <inspiration_score>  (6) 
None

$$$$
P31894
     RDKit          3D

 25 28  0  0  0  0  0  0  0  0999 V2000
   -7.4839    6.5936  -13.1828 O   0  0  0  0  0  0  0  0  0  0  0  0
   -7.7262    5.4711  -13.4126 C   0  0  0  0  0  0  0  0  0  0  0  0
   -8.1492    4.3121  -12.4569 N   0  0  0  0  0  0  0  0  0  0  0  0
   -8.2617    4.2803  -11.0670 C   0  0  0  0  0  0  0  0  0  0  0  0
   -8.0824    5.4338  -10.2888 C   0  0  0  0  0  0  0  0  0  0  0  0
   -8.1670    5.3776   -8.8914 C   0  0  0  0  0  0  0  0  0  0  0  0
   -8.4353    4.1580   -8.2959 C   0  0  0  0  0  0  0  0  0  0  0  0
   -8.5986    3.0106   -9.0639 C   0  0  0  0  0  0  0  0  0  0  0  0
   -8.5205    3.0557  -10.4477 C   0  0  0  0  0  0  0  0  0  0  0  0
   -8.8133    1.8414   -8.1611 C   0  0  0  0  0  0  0  0  0  0  0  0
   -9.0956    2.4289   -6.8329 N   0  0  0  0  0  0  0  0  0  0  0  0
   -8.6037    3.8156   -6.8531 C   0  0  0  0  0  0  0  0  0  0  0  0
   -7.5788    4.8613  -14.8107 C   0  0  1  0  0  0  0  0  0  0  0  0
   -8.8909    4.8785  -15.5778 C   0  0  0  0  0  0  0  0  0  0  0  0
   -8.7068    4.3848  -17.0119 C   0  0  0  0  0  0  0  0  0  0  0  0
   -7.5060    4.9860  -17.7572 C   0  0  0  0  0  0  0  0  0  0  0  0
   -6.3103    5.0560  -16.9005 N   0  0  0  0  0  0  0  0  0  0  0  0
   -4.9849    5.0153  -17.3627 C   0  0  0  0  0  0  0  0  0  0  0  0
   -4.6646    4.9562  -18.6724 C   0  0  0  0  0  0  0  0  0  0  0  0
   -3.2431    4.9701  -19.0671 C   0  0  0  0  0  0  0  0  0  0  0  0
   -2.8613    4.8381  -20.2278 O   0  0  0  0  0  0  0  0  0  0  0  0
   -2.3543    5.1203  -18.0478 N   0  0  0  0  0  0  0  0  0  0  0  0
   -2.7639    5.1072  -16.7592 C   0  0  0  0  0  0  0  0  0  0  0  0
   -3.9913    5.0473  -16.3992 N   0  0  0  0  0  0  0  0  0  0  0  0
   -6.5616    5.6811  -15.5867 C   0  0  0  0  0  0  0  0  0  0  0  0
  1  2  2  0
  2  3  1  0
  3  4  1  0
  4  5  2  0
  5  6  1  0
  6  7  2  0
  7  8  1  0
  8  9  2  0
  8 10  1  0
 10 11  1  0
 11 12  1  0
 13  2  1  1
 13 14  1  0
 14 15  1  0
 15 16  1  0
 16 17  1  0
 17 18  1  0
 18 19  2  0
 19 20  1  0
 20 21  2  0
 20 22  1  0
 22 23  1  0
 23 24  2  0
 17 25  1  0
  9  4  1  0
 25 13  1  0
 12  7  1  0
 24 18  1  0
M  END
>  <energy_score>  (7) 
-24.518123

>  <alias>  (7) 
None

>  <HIPPO Pose ID>  (7) 
31894

>  <smiles>  (7) 
O=C(Nc1ccc2c(c1)CNC2)[C@H]1CCCN(c2cc(=O)[nH]cn2)C1

>  <inchikey>  (7) 
BWQHUTSQNYTJCI-UHFFFAOYSA-N

>  <distance_score>  (7) 
0.991665

>  <ref_mols>  (7) 
Z3527a,Z4008a,Z0182a,Z4245a,Z3729a

>  <ref_pdb>  (7) 
Z0182a

>  <HIPPO Compound ID>  (7) 
5576

>  <name>  (7) 
P31894

>  <inspiration_score>  (7) 
None

$$$$
P32606
     RDKit          3D

 17 19  0  0  0  0  0  0  0  0999 V2000
   -5.0756    5.1761  -14.6137 O   0  0  0  0  0  0  0  0  0  0  0  0
   -6.2372    5.1547  -14.4177 C   0  0  0  0  0  0  0  0  0  0  0  0
   -7.2410    5.1929  -15.6041 C   0  0  2  0  0  0  0  0  0  0  0  0
   -8.3603    4.1593  -15.6652 C   0  0  0  0  0  0  0  0  0  0  0  0
   -9.1025    4.0970  -17.0019 C   0  0  0  0  0  0  0  0  0  0  0  0
   -8.2425    4.3233  -18.2372 C   0  0  0  0  0  0  0  0  0  0  0  0
   -7.3105    5.4329  -18.0795 N   0  0  0  0  0  0  0  0  0  0  0  0
   -6.4436    5.2285  -16.9230 C   0  0  0  0  0  0  0  0  0  0  0  0
   -7.0134    5.1927  -13.1142 N   0  0  0  0  0  0  0  0  0  0  0  0
   -7.2666    3.7638  -12.5706 C   0  0  0  0  0  0  0  0  0  0  0  0
   -7.9304    3.7236  -11.2540 C   0  0  0  0  0  0  0  0  0  0  0  0
   -8.7273    2.8166  -10.6079 C   0  0  0  0  0  0  0  0  0  0  0  0
   -9.0446    3.1053   -9.2881 C   0  0  0  0  0  0  0  0  0  0  0  0
   -8.5624    4.2724   -8.6644 C   0  0  0  0  0  0  0  0  0  0  0  0
   -7.7450    5.1636   -9.3485 C   0  0  0  0  0  0  0  0  0  0  0  0
   -7.4506    4.8426  -10.6486 C   0  0  0  0  0  0  0  0  0  0  0  0
   -6.5323    5.3740  -11.6738 C   0  0  0  0  0  0  0  0  0  0  0  0
  1  2  2  0
  3  2  1  1
  3  4  1  0
  4  5  1  0
  5  6  1  0
  6  7  1  0
  7  8  1  0
  2  9  1  0
  9 10  1  0
 10 11  1  0
 11 12  2  0
 12 13  1  0
 13 14  2  0
 14 15  1  0
 15 16  2  0
 16 17  1  0
  8  3  1  0
 17  9  1  0
 16 11  1  0
M  END
>  <energy_score>  (8) 
51.997936

>  <alias>  (8) 
None

>  <HIPPO Pose ID>  (8) 
32606

>  <smiles>  (8) 
O=C([C@@H]1CCCNC1)N1Cc2ccccc2C1

>  <inchikey>  (8) 
MJLCNHMLTUBETR-UHFFFAOYSA-N

>  <distance_score>  (8) 
2.739823

>  <ref_mols>  (8) 
Z3596a,Z0182a

>  <ref_pdb>  (8) 
Z3596a

>  <HIPPO Compound ID>  (8) 
2037

>  <name>  (8) 
P32606

>  <inspiration_score>  (8) 
None

$$$$
P32634
     RDKit          3D

 18 20  0  0  0  0  0  0  0  0999 V2000
   -7.3966    7.1186  -12.9162 C   0  0  0  0  0  0  0  0  0  0  0  0
   -8.0173    7.4387  -11.6232 N   0  0  0  0  0  0  0  0  0  0  0  0
   -7.9681    6.3492  -10.7287 C   0  0  0  0  0  0  0  0  0  0  0  0
   -6.9149    6.2157   -9.8196 C   0  0  0  0  0  0  0  0  0  0  0  0
   -6.5613    4.9580   -9.3274 C   0  0  0  0  0  0  0  0  0  0  0  0
   -7.2636    3.8685   -9.8196 C   0  0  0  0  0  0  0  0  0  0  0  0
   -8.4624    4.0238  -10.5062 C   0  0  0  0  0  0  0  0  0  0  0  0
   -8.7863    5.2668  -10.9848 C   0  0  0  0  0  0  0  0  0  0  0  0
   -8.6948    2.8203  -11.3575 C   0  0  0  0  0  0  0  0  0  0  0  0
   -7.3262    2.5201  -11.8164 N   0  0  0  0  0  0  0  0  0  0  0  0
   -6.7176    3.5923  -12.7817 C   0  0  0  0  0  0  0  0  0  0  0  0
   -7.2141    3.9708  -14.2389 C   0  0  0  0  0  0  0  0  0  0  0  0
   -8.5361    4.0112  -14.6643 C   0  0  0  0  0  0  0  0  0  0  0  0
   -8.8640    4.2951  -16.0066 C   0  0  0  0  0  0  0  0  0  0  0  0
   -7.8695    4.5908  -16.9197 C   0  0  0  0  0  0  0  0  0  0  0  0
   -6.5886    4.6506  -16.4237 C   0  0  0  0  0  0  0  0  0  0  0  0
   -6.2534    4.3965  -15.1226 N   0  0  0  0  0  0  0  0  0  0  0  0
   -6.6158    2.6401  -10.4503 C   0  0  0  0  0  0  0  0  0  0  0  0
  1  2  1  0
  2  3  1  0
  3  4  2  0
  4  5  1  0
  5  6  2  0
  6  7  1  0
  7  8  2  0
  7  9  1  0
  9 10  1  0
 10 11  1  0
 11 12  1  0
 12 13  2  0
 13 14  1  0
 14 15  2  0
 15 16  1  0
 16 17  2  0
 10 18  1  0
  8  3  1  0
 17 12  1  0
 18  6  1  0
M  END
>  <energy_score>  (9) 
40.859014

>  <alias>  (9) 
None

>  <HIPPO Pose ID>  (9) 
32634

>  <smiles>  (9) 
CNc1ccc2c(c1)CN(Cc1ccccn1)C2

>  <inchikey>  (9) 
NIUSHKUYIFCCOW-UHFFFAOYSA-N

>  <distance_score>  (9) 
2.693284

>  <ref_mols>  (9) 
Z0425a,Z4245a,Z0465a

>  <ref_pdb>  (9) 
Z4245a

>  <HIPPO Compound ID>  (9) 
1906

>  <name>  (9) 
P32634

>  <inspiration_score>  (9) 
None

$$$$
P34338
     RDKit          3D

 18 19  0  0  0  0  0  0  0  0999 V2000
  -10.4384    4.6175  -18.6789 O   0  0  0  0  0  0  0  0  0  0  0  0
   -9.4966    4.5573  -17.9016 C   0  0  0  0  0  0  0  0  0  0  0  0
   -8.0620    4.6632  -18.3202 C   0  0  0  0  0  0  0  0  0  0  0  0
   -7.1891    5.3244  -17.2786 C   0  0  0  0  0  0  0  0  0  0  0  0
   -7.3675    4.6876  -15.9045 C   0  0  1  0  0  0  0  0  0  0  0  0
   -6.5294    5.3500  -14.8011 C   0  0  0  0  0  0  0  0  0  0  0  0
   -5.2811    5.8795  -15.2818 N   0  0  0  0  0  0  0  0  0  0  0  0
   -4.9217    7.2963  -15.8021 C   0  0  0  0  0  0  0  0  0  0  0  0
   -5.5639    8.2713  -15.8479 O   0  0  0  0  0  0  0  0  0  0  0  0
   -3.4726    7.2555  -16.3088 C   0  0  0  0  0  0  0  0  0  0  0  0
   -3.3324    6.8847  -17.7198 N   0  0  0  0  0  0  0  0  0  0  0  0
   -4.2596    7.5555  -18.6471 C   0  0  0  0  0  0  0  0  0  0  0  0
   -3.8033    7.3409  -20.1089 C   0  0  0  0  0  0  0  0  0  0  0  0
   -3.5556    5.9360  -20.4923 N   0  0  0  0  0  0  0  0  0  0  0  0
   -2.7779    5.2479  -19.4554 C   0  0  0  0  0  0  0  0  0  0  0  0
   -3.2686    5.4536  -18.0101 C   0  0  0  0  0  0  0  0  0  0  0  0
   -8.8439    4.7597  -15.5434 C   0  0  0  0  0  0  0  0  0  0  0  0
   -9.7194    4.2859  -16.5847 N   0  0  0  0  0  0  0  0  0  0  0  0
  1  2  2  0
  2  3  1  0
  3  4  1  0
  4  5  1  0
  5  6  1  1
  6  7  1  0
  7  8  1  0
  8  9  2  0
  8 10  1  0
 10 11  1  0
 11 12  1  0
 12 13  1  0
 13 14  1  0
 14 15  1  0
 15 16  1  0
  5 17  1  0
 17 18  1  0
 18  2  1  0
 16 11  1  0
M  END
>  <energy_score>  (10) 
-26.869814

>  <alias>  (10) 
None

>  <HIPPO Pose ID>  (10) 
34338

>  <smiles>  (10) 
O=C1CC[C@@H](CNC(=O)CN2CCNCC2)CN1

>  <inchikey>  (10) 
MMUJSCNOKRFXCM-UHFFFAOYSA-N

>  <distance_score>  (10) 
2.883031

>  <ref_mols>  (10) 
Z0719a,Z0990a

>  <ref_pdb>  (10) 
Z0719a

>  <HIPPO Compound ID>  (10) 
50148

>  <name>  (10) 
P34338

>  <inspiration_score>  (10) 
None

$$$$
P34801
     RDKit          3D

 21 23  0  0  0  0  0  0  0  0999 V2000
  -10.9479    3.7513  -17.9085 O   0  0  0  0  0  0  0  0  0  0  0  0
   -9.7638    4.0580  -17.8787 C   0  0  0  0  0  0  0  0  0  0  0  0
   -8.8432    3.8686  -19.0437 C   0  0  0  0  0  0  0  0  0  0  0  0
   -7.8251    4.9690  -19.1447 C   0  0  0  0  0  0  0  0  0  0  0  0
   -7.1409    5.3910  -17.8705 C   0  0  2  0  0  0  0  0  0  0  0  0
   -5.6494    5.1228  -17.9177 C   0  0  0  0  0  0  0  0  0  0  0  0
   -5.1455    4.3025  -18.5706 O   0  0  0  0  0  0  0  0  0  0  0  0
   -5.0433    6.0786  -16.8702 N   0  0  0  0  0  0  0  0  0  0  0  0
   -3.7879    6.1533  -16.3715 C   0  0  0  0  0  0  0  0  0  0  0  0
   -2.8858    5.0784  -16.4864 C   0  0  0  0  0  0  0  0  0  0  0  0
   -2.8936    4.6044  -15.1759 C   0  0  0  0  0  0  0  0  0  0  0  0
   -3.6491    5.5225  -14.4506 N   0  0  0  0  0  0  0  0  0  0  0  0
   -4.7138    5.3007  -13.5122 C   0  0  0  0  0  0  0  0  0  0  0  0
   -5.3343    4.0524  -13.3831 C   0  0  0  0  0  0  0  0  0  0  0  0
   -6.5199    3.9799  -12.6601 C   0  0  0  0  0  0  0  0  0  0  0  0
   -7.0874    5.0358  -12.0357 N   0  0  0  0  0  0  0  0  0  0  0  0
   -6.4506    6.2172  -12.1326 C   0  0  0  0  0  0  0  0  0  0  0  0
   -5.2856    6.4042  -12.8653 C   0  0  0  0  0  0  0  0  0  0  0  0
   -3.6601    6.6894  -15.1553 N   0  0  0  0  0  0  0  0  0  0  0  0
   -7.7473    4.7084  -16.6349 C   0  0  0  0  0  0  0  0  0  0  0  0
   -9.1748    4.5478  -16.7471 N   0  0  0  0  0  0  0  0  0  0  0  0
  1  2  2  0
  2  3  1  0
  3  4  1  0
  4  5  1  0
  5  6  1  6
  6  7  2  0
  6  8  1  0
  8  9  1  0
  9 10  1  0
 10 11  2  0
 11 12  1  0
 12 13  1  0
 13 14  2  0
 14 15  1  0
 15 16  2  0
 16 17  1  0
 17 18  2  0
 12 19  1  0
  5 20  1  0
 20 21  1  0
 21  2  1  0
 19  9  2  0
 18 13  1  0
M  END
>  <energy_score>  (11) 
8.755276

>  <alias>  (11) 
None

>  <HIPPO Pose ID>  (11) 
34801

>  <smiles>  (11) 
O=C1CC[C@H](C(=O)Nc2ccn(-c3ccncc3)n2)CN1

>  <inchikey>  (11) 
BWONVHFKFXBDCX-UHFFFAOYSA-N

>  <distance_score>  (11) 
1.999874

>  <ref_mols>  (11) 
Z0673a,Z1719a

>  <ref_pdb>  (11) 
Z1719a

>  <HIPPO Compound ID>  (11) 
50099

>  <name>  (11) 
P34801

>  <inspiration_score>  (11) 
None

$$$$
P35392
     RDKit          3D

 23 25  0  0  0  0  0  0  0  0999 V2000
   -3.3212    5.5473  -22.9539 O   0  0  0  0  0  0  0  0  0  0  0  0
   -4.3451    6.1157  -22.9999 C   0  0  0  0  0  0  0  0  0  0  0  0
   -5.1079    6.4070  -21.6797 C   0  0  0  0  0  0  0  0  0  0  0  0
   -5.2494    5.1403  -20.7775 C   0  0  0  0  0  0  0  0  0  0  0  0
   -5.3213    5.3434  -19.2640 C   0  0  0  0  0  0  0  0  0  0  0  0
   -4.1667    5.8067  -18.6262 C   0  0  0  0  0  0  0  0  0  0  0  0
   -4.0223    5.9813  -17.2940 N   0  0  0  0  0  0  0  0  0  0  0  0
   -5.0915    5.6689  -16.5316 C   0  0  0  0  0  0  0  0  0  0  0  0
   -6.3071    5.2007  -17.0210 C   0  0  0  0  0  0  0  0  0  0  0  0
   -7.3705    4.9131  -16.1401 C   0  0  0  0  0  0  0  0  0  0  0  0
   -8.5883    4.4490  -16.6227 C   0  0  0  0  0  0  0  0  0  0  0  0
   -8.7398    4.2455  -17.9847 C   0  0  0  0  0  0  0  0  0  0  0  0
   -7.6728    4.4969  -18.8587 C   0  0  0  0  0  0  0  0  0  0  0  0
   -6.4327    5.0156  -18.4218 C   0  0  0  0  0  0  0  0  0  0  0  0
   -5.1261    6.6979  -24.2240 N   0  0  0  0  0  0  0  0  0  0  0  0
   -4.7508    6.7812  -25.6426 C   0  0  0  0  0  0  0  0  0  0  0  0
   -5.9142    6.7656  -26.6172 C   0  0  0  0  0  0  0  0  0  0  0  0
   -7.0596    7.3804  -26.4130 N   0  0  0  0  0  0  0  0  0  0  0  0
   -7.9148    7.1951  -27.4957 C   0  0  0  0  0  0  0  0  0  0  0  0
   -9.2884    7.7569  -27.4354 C   0  0  0  0  0  0  0  0  0  0  0  0
   -9.2885    9.1457  -27.1062 O   0  0  0  0  0  0  0  0  0  0  0  0
   -7.3871    6.4594  -28.5374 C   0  0  0  0  0  0  0  0  0  0  0  0
   -5.7859    5.9889  -28.1616 S   0  0  0  0  0  0  0  0  0  0  0  0
  1  2  2  0
  2  3  1  0
  3  4  1  0
  4  5  1  0
  5  6  2  0
  6  7  1  0
  7  8  2  0
  8  9  1  0
  9 10  2  0
 10 11  1  0
 11 12  2  0
 12 13  1  0
 13 14  2  0
  2 15  1  0
 15 16  1  0
 16 17  1  0
 17 18  2  0
 18 19  1  0
 19 20  1  0
 20 21  1  0
 19 22  2  0
 22 23  1  0
 14  5  1  0
 23 17  1  0
 14  9  1  0
M  END
>  <energy_score>  (12) 
-15.505541

>  <alias>  (12) 
None

>  <HIPPO Pose ID>  (12) 
35392

>  <smiles>  (12) 
O=C(CCc1cncc2ccccc12)NCc1nc(CO)cs1

>  <inchikey>  (12) 
CJUTUDRWDPPKBI-UHFFFAOYSA-N

>  <distance_score>  (12) 
1.478065

>  <ref_mols>  (12) 
Z0788b,Z1745a

>  <ref_pdb>  (12) 
Z0788b

>  <HIPPO Compound ID>  (12) 
51060

>  <name>  (12) 
P35392

>  <inspiration_score>  (12) 
None

$$$$
P35516
     RDKit          3D

 21 23  0  0  0  0  0  0  0  0999 V2000
   -8.6563    2.7449   -8.1708 C   0  0  0  0  0  0  0  0  0  0  0  0
   -8.3981    2.6018   -9.6598 C   0  0  0  0  0  0  0  0  0  0  0  0
   -8.1195    3.8794  -10.4058 C   0  0  0  0  0  0  0  0  0  0  0  0
   -7.5401    5.0072   -9.8227 C   0  0  0  0  0  0  0  0  0  0  0  0
   -7.2655    6.1151  -10.6170 C   0  0  0  0  0  0  0  0  0  0  0  0
   -7.5125    6.1809  -11.9420 N   0  0  0  0  0  0  0  0  0  0  0  0
   -8.1128    5.0852  -12.4657 C   0  0  0  0  0  0  0  0  0  0  0  0
   -8.4605    5.1283  -13.9030 C   0  0  0  0  0  0  0  0  0  0  0  0
   -9.5806    5.0746  -14.2280 O   0  0  0  0  0  0  0  0  0  0  0  0
   -7.1705    5.1543  -14.7538 N   0  0  0  0  0  0  0  0  0  0  0  0
   -6.9905    5.0280  -16.1364 C   0  0  0  0  0  0  0  0  0  0  0  0
   -8.0838    4.6985  -16.9329 C   0  0  0  0  0  0  0  0  0  0  0  0
   -7.8929    4.5958  -18.2919 C   0  0  0  0  0  0  0  0  0  0  0  0
   -6.7048    4.7934  -18.8866 N   0  0  0  0  0  0  0  0  0  0  0  0
   -5.6546    5.1059  -18.1321 C   0  0  0  0  0  0  0  0  0  0  0  0
   -4.4619    5.3377  -18.7947 C   0  0  0  0  0  0  0  0  0  0  0  0
   -3.2909    5.6426  -18.1140 C   0  0  0  0  0  0  0  0  0  0  0  0
   -3.3172    5.7294  -16.7309 C   0  0  0  0  0  0  0  0  0  0  0  0
   -4.5159    5.5291  -16.0421 C   0  0  0  0  0  0  0  0  0  0  0  0
   -5.7155    5.2194  -16.7301 C   0  0  0  0  0  0  0  0  0  0  0  0
   -8.4029    3.9248  -11.7682 C   0  0  0  0  0  0  0  0  0  0  0  0
  1  2  1  0
  2  3  1  0
  3  4  2  0
  4  5  1  0
  5  6  2  0
  6  7  1  0
  7  8  1  0
  8  9  2  0
  8 10  1  0
 10 11  1  0
 11 12  2  0
 12 13  1  0
 13 14  2  0
 14 15  1  0
 15 16  2  0
 16 17  1  0
 17 18  2  0
 18 19  1  0
 19 20  2  0
  7 21  2  0
 21  3  1  0
 20 11  1  0
 20 15  1  0
M  END
>  <energy_score>  (13) 
6.228206

>  <alias>  (13) 
None

>  <HIPPO Pose ID>  (13) 
35516

>  <smiles>  (13) 
CCc1ccnc(C(=O)Nc2ccnc3ccccc23)c1

>  <inchikey>  (13) 
BHECLORNHYPIQT-UHFFFAOYSA-N

>  <distance_score>  (13) 
1.133876

>  <ref_mols>  (13) 
Z1674a,Z0429a,Z1495a

>  <ref_pdb>  (13) 
Z1495a

>  <HIPPO Compound ID>  (13) 
784

>  <name>  (13) 
P35516

>  <inspiration_score>  (13) 
None

$$$$
P35692
     RDKit          3D

 23 25  0  0  0  0  0  0  0  0999 V2000
   -6.5407    6.5940  -19.1318 C   0  0  0  0  0  0  0  0  0  0  0  0
   -5.1633    6.3616  -19.7410 C   0  0  0  0  0  0  0  0  0  0  0  0
   -4.2328    7.4792  -19.5947 N   0  0  0  0  0  0  0  0  0  0  0  0
   -3.2427    7.7741  -20.6262 C   0  0  0  0  0  0  0  0  0  0  0  0
   -3.6992    7.9612  -22.0572 C   0  0  0  0  0  0  0  0  0  0  0  0
   -5.0064    8.2943  -22.4202 C   0  0  0  0  0  0  0  0  0  0  0  0
   -5.3099    8.4547  -23.7631 C   0  0  0  0  0  0  0  0  0  0  0  0
   -4.4062    8.3485  -24.7602 N   0  0  0  0  0  0  0  0  0  0  0  0
   -3.1419    8.0588  -24.3980 C   0  0  0  0  0  0  0  0  0  0  0  0
   -2.7473    7.8581  -23.0835 C   0  0  0  0  0  0  0  0  0  0  0  0
   -4.2729    8.2818  -18.4713 C   0  0  0  0  0  0  0  0  0  0  0  0
   -4.9740    9.2911  -18.4146 O   0  0  0  0  0  0  0  0  0  0  0  0
   -3.3078    7.8882  -17.3599 C   0  0  0  0  0  0  0  0  0  0  0  0
   -3.5038    6.5033  -16.7389 C   0  0  0  0  0  0  0  0  0  0  0  0
   -4.7323    6.3932  -15.8874 C   0  0  0  0  0  0  0  0  0  0  0  0
   -5.0017    7.1450  -14.7597 C   0  0  0  0  0  0  0  0  0  0  0  0
   -6.2609    6.8372  -14.3230 N   0  0  0  0  0  0  0  0  0  0  0  0
   -6.8441    5.9226  -15.1626 C   0  0  0  0  0  0  0  0  0  0  0  0
   -8.1494    5.4160  -15.1731 C   0  0  0  0  0  0  0  0  0  0  0  0
   -8.4975    4.5404  -16.1989 C   0  0  0  0  0  0  0  0  0  0  0  0
   -7.5456    4.1237  -17.1150 C   0  0  0  0  0  0  0  0  0  0  0  0
   -6.2141    4.5493  -17.0211 C   0  0  0  0  0  0  0  0  0  0  0  0
   -5.8711    5.5413  -16.0849 C   0  0  0  0  0  0  0  0  0  0  0  0
  1  2  1  0
  2  3  1  0
  3  4  1  0
  4  5  1  0
  5  6  2  0
  6  7  1  0
  7  8  2  0
  8  9  1  0
  9 10  2  0
  3 11  1  0
 11 12  2  0
 11 13  1  0
 13 14  1  0
 14 15  1  0
 15 16  2  0
 16 17  1  0
 17 18  1  0
 18 19  2  0
 19 20  1  0
 20 21  2  0
 21 22  1  0
 22 23  2  0
 10  5  1  0
 23 15  1  0
 23 18  1  0
M  END
>  <energy_score>  (14) 
5.315808

>  <alias>  (14) 
None

>  <HIPPO Pose ID>  (14) 
35692

>  <smiles>  (14) 
CCN(Cc1ccncc1)C(=O)CCc1c[nH]c2ccccc12

>  <inchikey>  (14) 
JJKPNZIAVNEQFY-UHFFFAOYSA-N

>  <distance_score>  (14) 
1.656913

>  <ref_mols>  (14) 
Z1495a,Z2971a

>  <ref_pdb>  (14) 
Z1495a

>  <HIPPO Compound ID>  (14) 
11345

>  <name>  (14) 
P35692

>  <inspiration_score>  (14) 
None

$$$$
P36311
     RDKit          3D

 24 27  0  0  0  0  0  0  0  0999 V2000
  -11.6476    9.6029  -10.3628 C   0  0  0  0  0  0  0  0  0  0  0  0
  -12.1743    8.6759  -11.4151 C   0  0  0  0  0  0  0  0  0  0  0  0
  -13.1767    7.5049  -11.1267 C   0  0  0  0  0  0  0  0  0  0  0  0
  -13.9896    6.2566  -11.5463 C   0  0  0  0  0  0  0  0  0  0  0  0
  -15.6741    5.4100  -10.6641 N   0  0  0  0  0  0  0  0  0  0  0  0
  -16.6581    5.9118   -8.9710 C   0  0  0  0  0  0  0  0  0  0  0  0
  -16.1635    6.7594   -8.3175 O   0  0  0  0  0  0  0  0  0  0  0  0
  -18.3533    5.4649   -8.1914 C   0  0  0  0  0  0  0  0  0  0  0  0
  -19.5025    5.9645   -8.8613 C   0  0  0  0  0  0  0  0  0  0  0  0
  -20.9998    6.1248   -8.1104 C   0  0  0  0  0  0  0  0  0  0  0  0
  -21.2230    5.8892   -6.7029 N   0  0  0  0  0  0  0  0  0  0  0  0
  -20.0708    5.4626   -5.8924 C   0  0  0  0  0  0  0  0  0  0  0  0
  -20.2860    4.9070   -4.4886 C   0  0  0  0  0  0  0  0  0  0  0  0
  -19.4600    4.5306   -3.5325 C   0  0  0  0  0  0  0  0  0  0  0  0
  -18.3885    5.1838   -3.9350 C   0  0  0  0  0  0  0  0  0  0  0  0
  -17.9229    5.3700   -5.3134 C   0  0  0  0  0  0  0  0  0  0  0  0
  -18.6813    5.3890   -6.4927 C   0  0  0  0  0  0  0  0  0  0  0  0
  -13.5169    7.1266  -13.0609 C   0  0  0  0  0  0  0  0  0  0  0  0
  -14.2167    7.5603  -14.2348 N   0  0  0  0  0  0  0  0  0  0  0  0
  -14.1565    8.5682  -15.1454 C   0  0  0  0  0  0  0  0  0  0  0  0
  -13.1280    9.4126  -15.1781 C   0  0  0  0  0  0  0  0  0  0  0  0
  -12.0853    8.9954  -14.4156 C   0  0  0  0  0  0  0  0  0  0  0  0
  -12.2862    8.0429  -13.3984 C   0  0  0  0  0  0  0  0  0  0  0  0
  -11.4357    8.5104  -12.5050 C   0  0  0  0  0  0  0  0  0  0  0  0
  1  2  1  0
  2  3  2  0
  3  4  1  0
  4  5  1  0
  5  6  1  0
  6  7  2  0
  6  8  1  0
  8  9  2  0
  9 10  1  0
 10 11  2  0
 11 12  1  0
 12 13  2  0
 13 14  1  0
 14 15  2  0
 15 16  1  0
 16 17  2  0
  4 18  2  0
 18 19  1  0
 19 20  2  0
 20 21  1  0
 21 22  2  0
 22 23  1  0
 23 24  2  0
 24  2  1  0
 17  8  1  0
 23 18  1  0
 17 12  1  0
M  END
>  <energy_score>  (15) 
759.701247

>  <alias>  (15) 
None

>  <HIPPO Pose ID>  (15) 
36311

>  <smiles>  (15) 
Cc1cc(NC(=O)c2ccnc3ccccc23)c2ncccc2c1

>  <inchikey>  (15) 
DEQSXFLJURKDAX-UHFFFAOYSA-N

>  <distance_score>  (15) 
8.002655

>  <ref_mols>  (15) 
Z1716a,Z0429a,Z0773b

>  <ref_pdb>  (15) 
Z0773b

>  <HIPPO Compound ID>  (15) 
16969

>  <name>  (15) 
P36311

>  <inspiration_score>  (15) 
None

$$$$
P37294
     RDKit          3D

 20 22  0  0  0  0  0  0  0  0999 V2000
   -4.7753    7.1238  -20.1232 C   0  0  0  0  0  0  0  0  0  0  0  0
   -4.6456    7.1167  -18.7024 O   0  0  0  0  0  0  0  0  0  0  0  0
   -5.3933    6.1144  -18.1172 C   0  0  0  0  0  0  0  0  0  0  0  0
   -6.3217    5.4733  -18.8587 N   0  0  0  0  0  0  0  0  0  0  0  0
   -7.2593    4.7839  -18.1828 C   0  0  0  0  0  0  0  0  0  0  0  0
   -8.4805    4.4478  -18.7447 C   0  0  0  0  0  0  0  0  0  0  0  0
   -9.5640    4.0794  -17.9561 C   0  0  0  0  0  0  0  0  0  0  0  0
   -9.3849    3.8941  -16.6018 C   0  0  0  0  0  0  0  0  0  0  0  0
   -8.1357    4.0069  -16.0417 C   0  0  0  0  0  0  0  0  0  0  0  0
   -7.1002    4.4931  -16.8209 C   0  0  0  0  0  0  0  0  0  0  0  0
   -5.9502    4.8628  -16.1771 C   0  0  0  0  0  0  0  0  0  0  0  0
   -5.2666    5.9204  -16.7456 C   0  0  0  0  0  0  0  0  0  0  0  0
   -4.8700    6.9833  -15.7460 C   0  0  0  0  0  0  0  0  0  0  0  0
   -6.0967    7.4719  -15.0626 N   0  0  0  0  0  0  0  0  0  0  0  0
   -6.3299    7.2482  -13.6256 C   0  0  1  0  0  0  0  0  0  0  0  0
   -7.6623    6.5017  -13.3556 C   0  0  0  0  0  0  0  0  0  0  0  0
   -7.6478    5.7847  -12.0094 C   0  0  0  0  0  0  0  0  0  0  0  0
   -6.4715    4.8099  -11.9115 C   0  0  0  0  0  0  0  0  0  0  0  0
   -5.2459    5.2621  -12.5768 N   0  0  0  0  0  0  0  0  0  0  0  0
   -5.1943    6.7115  -12.7246 C   0  0  0  0  0  0  0  0  0  0  0  0
  1  2  1  0
  2  3  1  0
  3  4  2  0
  4  5  1  0
  5  6  2  0
  6  7  1  0
  7  8  2  0
  8  9  1  0
  9 10  2  0
 10 11  1  0
 11 12  2  0
 12 13  1  0
 13 14  1  0
 15 14  1  6
 15 16  1  0
 16 17  1  0
 17 18  1  0
 18 19  1  0
 19 20  1  0
 12  3  1  0
 20 15  1  0
 10  5  1  0
M  END
>  <energy_score>  (16) 
9.266387

>  <alias>  (16) 
None

>  <HIPPO Pose ID>  (16) 
37294

>  <smiles>  (16) 
COc1nc2ccccc2cc1CN[C@H]1CCCNC1

>  <inchikey>  (16) 
JJZFWROHYSMCMU-UHFFFAOYSA-N

>  <distance_score>  (16) 
1.543503

>  <ref_mols>  (16) 
Z0827a,Z0429a

>  <ref_pdb>  (16) 
Z0429a

>  <HIPPO Compound ID>  (16) 
15239

>  <name>  (16) 
P37294

>  <inspiration_score>  (16) 
None

$$$$
P38465
     RDKit          3D

 20 22  0  0  0  0  0  0  0  0999 V2000
   -7.0565    6.4746  -13.8162 C   0  0  0  0  0  0  0  0  0  0  0  0
   -7.8146    5.6021  -14.7359 C   0  0  0  0  0  0  0  0  0  0  0  0
   -8.8639    4.8738  -14.4156 N   0  0  0  0  0  0  0  0  0  0  0  0
   -9.2449    4.2258  -15.5657 N   0  0  0  0  0  0  0  0  0  0  0  0
   -8.4439    4.5221  -16.5694 N   0  0  0  0  0  0  0  0  0  0  0  0
   -7.5527    5.3900  -16.0686 N   0  0  0  0  0  0  0  0  0  0  0  0
   -6.5811    5.9668  -16.9706 C   0  0  0  0  0  0  0  0  0  0  0  0
   -5.2017    6.0530  -16.3552 C   0  0  0  0  0  0  0  0  0  0  0  0
   -4.7542    7.0627  -15.9764 O   0  0  0  0  0  0  0  0  0  0  0  0
   -4.6447    4.6112  -16.2626 N   0  0  0  0  0  0  0  0  0  0  0  0
   -3.4727    4.1042  -15.6038 C   0  0  0  0  0  0  0  0  0  0  0  0
   -3.8191    3.3586  -14.3360 C   0  0  0  0  0  0  0  0  0  0  0  0
   -2.7977    2.7481  -13.5767 C   0  0  0  0  0  0  0  0  0  0  0  0
   -3.0862    2.0528  -12.3973 C   0  0  0  0  0  0  0  0  0  0  0  0
   -4.3968    2.0243  -11.9601 C   0  0  0  0  0  0  0  0  0  0  0  0
   -5.4042    2.6410  -12.6800 C   0  0  0  0  0  0  0  0  0  0  0  0
   -5.1423    3.2680  -13.8752 C   0  0  0  0  0  0  0  0  0  0  0  0
   -6.6860    2.5124  -11.9414 C   0  0  0  0  0  0  0  0  0  0  0  0
   -6.3000    2.0677  -10.5852 N   0  0  0  0  0  0  0  0  0  0  0  0
   -4.9780    1.4182  -10.7246 C   0  0  0  0  0  0  0  0  0  0  0  0
  1  2  1  0
  2  3  2  0
  3  4  1  0
  4  5  2  0
  5  6  1  0
  6  7  1  0
  7  8  1  0
  8  9  2  0
  8 10  1  0
 10 11  1  0
 11 12  1  0
 12 13  2  0
 13 14  1  0
 14 15  2  0
 15 16  1  0
 16 17  2  0
 16 18  1  0
 18 19  1  0
 19 20  1  0
  6  2  1  0
 17 12  1  0
 20 15  1  0
M  END
>  <energy_score>  (17) 
-18.383837

>  <alias>  (17) 
None

>  <HIPPO Pose ID>  (17) 
38465

>  <smiles>  (17) 
Cc1nnnn1CC(=O)NCc1ccc2c(c1)CNC2

>  <inchikey>  (17) 
FUJMMVNZANGKIZ-UHFFFAOYSA-N

>  <distance_score>  (17) 
2.257315

>  <ref_mols>  (17) 
Z3596a,Z0719a

>  <ref_pdb>  (17) 
Z0719a

>  <HIPPO Compound ID>  (17) 
12944

>  <name>  (17) 
P38465

>  <inspiration_score>  (17) 
None

$$$$
P41214
     RDKit          3D

 21 23  0  0  0  0  0  0  0  0999 V2000
   -4.2973    5.5762  -15.4370 Cl  0  0  0  0  0  0  0  0  0  0  0  0
   -5.9443    5.1008  -15.2080 C   0  0  0  0  0  0  0  0  0  0  0  0
   -6.4415    5.0634  -13.9095 C   0  0  0  0  0  0  0  0  0  0  0  0
   -7.7662    4.7074  -13.6982 C   0  0  0  0  0  0  0  0  0  0  0  0
   -8.5845    4.4101  -14.7870 C   0  0  0  0  0  0  0  0  0  0  0  0
   -8.0942    4.4587  -16.0979 C   0  0  0  0  0  0  0  0  0  0  0  0
   -8.8945    4.2063  -17.2279 C   0  0  0  0  0  0  0  0  0  0  0  0
   -8.3513    4.3526  -18.4990 C   0  0  0  0  0  0  0  0  0  0  0  0
   -7.0186    4.6869  -18.5785 C   0  0  0  0  0  0  0  0  0  0  0  0
   -6.3592    4.9881  -19.7574 N   0  0  0  0  0  0  0  0  0  0  0  0
   -6.1339    6.4671  -19.7959 C   0  0  0  0  0  0  0  0  0  0  0  0
   -5.2114    6.8815  -20.9684 C   0  0  0  0  0  0  0  0  0  0  0  0
   -4.0693    5.9592  -21.1039 N   0  0  0  0  0  0  0  0  0  0  0  0
   -3.2783    5.9349  -19.9442 C   0  0  0  0  0  0  0  0  0  0  0  0
   -2.5262    4.8065  -19.6772 C   0  0  0  0  0  0  0  0  0  0  0  0
   -1.7782    4.7477  -18.5155 C   0  0  0  0  0  0  0  0  0  0  0  0
   -1.7646    5.8211  -17.6535 C   0  0  0  0  0  0  0  0  0  0  0  0
   -2.5249    6.9152  -18.0019 C   0  0  0  0  0  0  0  0  0  0  0  0
   -3.2669    6.9966  -19.1232 N   0  0  0  0  0  0  0  0  0  0  0  0
   -6.2271    4.8502  -17.5190 N   0  0  0  0  0  0  0  0  0  0  0  0
   -6.7466    4.7912  -16.3004 C   0  0  0  0  0  0  0  0  0  0  0  0
  1  2  1  0
  2  3  2  0
  3  4  1  0
  4  5  2  0
  5  6  1  0
  6  7  2  0
  7  8  1  0
  8  9  2  0
  9 10  1  0
 10 11  1  0
 11 12  1  0
 12 13  1  0
 13 14  1  0
 14 15  2  0
 15 16  1  0
 16 17  2  0
 17 18  1  0
 18 19  2  0
  9 20  1  0
 20 21  2  0
 21  2  1  0
 21  6  1  0
 19 14  1  0
M  END
>  <energy_score>  (18) 
-24.341412

>  <alias>  (18) 
None

>  <HIPPO Pose ID>  (18) 
41214

>  <smiles>  (18) 
Clc1cccc2ccc(NCCNc3ccccn3)nc12

>  <inchikey>  (18) 
VJSVXFYOWFQNAJ-UHFFFAOYSA-N

>  <distance_score>  (18) 
1.627734

>  <ref_mols>  (18) 
Z3527a,Z0465a

>  <ref_pdb>  (18) 
Z3527a

>  <HIPPO Compound ID>  (18) 
5783

>  <name>  (18) 
P41214

>  <inspiration_score>  (18) 
None

$$$$
P41471
     RDKit          3D

 23 25  0  0  0  0  0  0  0  0999 V2000
   -6.3377    9.0330   -8.5035 C   0  0  0  0  0  0  0  0  0  0  0  0
   -6.1649    8.1344   -9.7062 C   0  0  0  0  0  0  0  0  0  0  0  0
   -5.7083    8.4688  -10.7114 O   0  0  0  0  0  0  0  0  0  0  0  0
   -6.7437    6.7518   -9.2037 N   0  0  0  0  0  0  0  0  0  0  0  0
   -6.7965    5.5556   -9.6748 C   0  0  0  0  0  0  0  0  0  0  0  0
   -6.9954    5.2003  -10.3927 C   0  0  0  0  0  0  0  0  0  0  0  0
   -5.8460    4.2538  -11.1892 C   0  0  0  0  0  0  0  0  0  0  0  0
   -7.0102    3.0097  -12.0376 C   0  0  0  0  0  0  0  0  0  0  0  0
   -7.3963    3.4990  -13.2329 N   0  0  0  0  0  0  0  0  0  0  0  0
   -6.3824    4.3565  -14.1679 C   0  0  0  0  0  0  0  0  0  0  0  0
   -5.3232    4.7695  -13.9977 O   0  0  0  0  0  0  0  0  0  0  0  0
   -7.0341    4.5262  -15.5128 C   0  0  0  0  0  0  0  0  0  0  0  0
   -8.4213    4.4073  -15.7065 C   0  0  0  0  0  0  0  0  0  0  0  0
   -8.9963    4.4710  -16.9969 C   0  0  0  0  0  0  0  0  0  0  0  0
   -8.2021    4.6615  -18.1287 C   0  0  0  0  0  0  0  0  0  0  0  0
   -6.8521    4.8099  -17.9201 C   0  0  0  0  0  0  0  0  0  0  0  0
   -5.8356    4.9987  -18.8537 N   0  0  0  0  0  0  0  0  0  0  0  0
   -4.6094    5.0514  -18.1762 C   0  0  0  0  0  0  0  0  0  0  0  0
   -3.5008    5.1813  -18.6695 O   0  0  0  0  0  0  0  0  0  0  0  0
   -4.9007    4.9221  -16.8103 N   0  0  0  0  0  0  0  0  0  0  0  0
   -6.2782    4.7563  -16.6485 C   0  0  0  0  0  0  0  0  0  0  0  0
   -7.4496    2.8861  -11.3981 C   0  0  0  0  0  0  0  0  0  0  0  0
   -8.2337    4.0889  -10.4360 C   0  0  0  0  0  0  0  0  0  0  0  0
  1  2  1  0
  2  3  2  0
  2  4  1  0
  4  5  1  0
  4  6  1  0
  6  7  1  0
  7  8  1  0
  8  9  1  0
  9 10  1  0
 10 11  2  0
 10 12  1  0
 12 13  2  0
 13 14  1  0
 14 15  2  0
 15 16  1  0
 16 17  1  0
 17 18  1  0
 18 19  2  0
 18 20  1  0
 20 21  1  0
  9 22  1  0
 22 23  1  0
 23  6  1  0
 21 12  1  0
 21 16  2  0
M  END
>  <energy_score>  (19) 
1486.515442

>  <alias>  (19) 
None

>  <HIPPO Pose ID>  (19) 
41471

>  <smiles>  (19) 
CC(=O)N(C)C1CCN(C(=O)c2cccc3[nH]c(=O)[nH]c23)CC1

>  <inchikey>  (19) 
XHEWICKIPJXIJC-UHFFFAOYSA-N

>  <distance_score>  (19) 
2.901882

>  <ref_mols>  (19) 
Z0719a,Z3503a

>  <ref_pdb>  (19) 
Z0719a

>  <HIPPO Compound ID>  (19) 
114014

>  <name>  (19) 
P41471

>  <inspiration_score>  (19) 
None

$$$$
P42146
     RDKit          3D

 17 18  0  0  0  0  0  0  0  0999 V2000
  -10.7660    3.8580  -17.6880 O   0  0  0  0  0  0  0  0  0  0  0  0
   -9.6079    4.2647  -17.6295 C   0  0  0  0  0  0  0  0  0  0  0  0
   -8.8736    4.6476  -18.8911 C   0  0  0  0  0  0  0  0  0  0  0  0
   -7.4836    5.2181  -18.6652 C   0  0  0  0  0  0  0  0  0  0  0  0
   -6.8064    4.3688  -17.6278 C   0  0  0  0  0  0  0  0  0  0  0  0
   -7.4978    4.4624  -16.2703 C   0  0  1  0  0  0  0  0  0  0  0  0
   -7.0744    5.7181  -15.4700 C   0  0  0  0  0  0  0  0  0  0  0  0
   -5.7338    6.1471  -15.8149 N   0  0  0  0  0  0  0  0  0  0  0  0
   -4.3531    5.5394  -15.4420 C   0  0  0  0  0  0  0  0  0  0  0  0
   -4.0847    4.6476  -14.7380 O   0  0  0  0  0  0  0  0  0  0  0  0
   -3.3049    6.2866  -16.2916 C   0  0  2  0  0  0  0  0  0  0  0  0
   -3.4193    5.8628  -17.7686 C   0  0  0  0  0  0  0  0  0  0  0  0
   -2.2897    6.4405  -18.6111 C   0  0  0  0  0  0  0  0  0  0  0  0
   -0.9239    6.1588  -18.0039 C   0  0  0  0  0  0  0  0  0  0  0  0
   -0.8563    6.5998  -16.6111 N   0  0  0  0  0  0  0  0  0  0  0  0
   -1.8942    5.9694  -15.7847 C   0  0  0  0  0  0  0  0  0  0  0  0
   -8.9467    4.3415  -16.4297 N   0  0  0  0  0  0  0  0  0  0  0  0
  1  2  2  0
  2  3  1  0
  3  4  1  0
  4  5  1  0
  5  6  1  0
  6  7  1  6
  7  8  1  0
  8  9  1  0
  9 10  2  0
 11  9  1  1
 11 12  1  0
 12 13  1  0
 13 14  1  0
 14 15  1  0
 15 16  1  0
  6 17  1  0
 17  2  1  0
 16 11  1  0
M  END
>  <energy_score>  (20) 
-24.559832

>  <alias>  (20) 
None

>  <HIPPO Pose ID>  (20) 
42146

>  <smiles>  (20) 
O=C1CCC[C@@H](CNC(=O)[C@@H]2CCCNC2)N1

>  <inchikey>  (20) 
CSXZTNVNROGLCY-UHFFFAOYSA-N

>  <distance_score>  (20) 
1.349831

>  <ref_mols>  (20) 
Z0827a,Z0917a,Z0673a

>  <ref_pdb>  (20) 
Z0673a

>  <HIPPO Compound ID>  (20) 
114282

>  <name>  (20) 
P42146

>  <inspiration_score>  (20) 
None

$$$$
P44063
     RDKit          3D

 21 23  0  0  0  0  0  0  0  0999 V2000
   -9.5872    5.8453  -15.2259 O   0  0  0  0  0  0  0  0  0  0  0  0
   -8.7668    5.0273  -15.0951 C   0  0  0  0  0  0  0  0  0  0  0  0
   -7.8639    4.3350  -16.1453 N   0  0  0  0  0  0  0  0  0  0  0  0
   -7.7182    4.5770  -17.5694 C   0  0  0  0  0  0  0  0  0  0  0  0
   -6.4536    5.3109  -17.9975 C   0  0  0  0  0  0  0  0  0  0  0  0
   -5.1950    4.8550  -17.6609 C   0  0  0  0  0  0  0  0  0  0  0  0
   -4.1086    5.5068  -18.2139 C   0  0  0  0  0  0  0  0  0  0  0  0
   -4.2124    6.5481  -19.0505 N   0  0  0  0  0  0  0  0  0  0  0  0
   -5.4698    6.8935  -19.3577 C   0  0  0  0  0  0  0  0  0  0  0  0
   -6.5862    6.3602  -18.8343 N   0  0  0  0  0  0  0  0  0  0  0  0
   -8.4513    4.6412  -13.6935 C   0  0  0  0  0  0  0  0  0  0  0  0
   -7.8102    3.4515  -13.3557 C   0  0  0  0  0  0  0  0  0  0  0  0
   -6.7589    3.5314  -12.4587 C   0  0  0  0  0  0  0  0  0  0  0  0
   -6.3756    4.8307  -12.1588 C   0  0  0  0  0  0  0  0  0  0  0  0
   -5.4025    5.3449  -13.1967 C   0  0  0  0  0  0  0  0  0  0  0  0
   -4.2689    4.6591  -13.5803 N   0  0  0  0  0  0  0  0  0  0  0  0
   -3.8526    5.3213  -14.6334 C   0  0  0  0  0  0  0  0  0  0  0  0
   -4.7392    6.2998  -14.9405 N   0  0  0  0  0  0  0  0  0  0  0  0
   -5.7281    6.3382  -14.0552 N   0  0  0  0  0  0  0  0  0  0  0  0
   -7.3440    5.7439  -11.9053 N   0  0  0  0  0  0  0  0  0  0  0  0
   -8.3431    5.7032  -12.8018 C   0  0  0  0  0  0  0  0  0  0  0  0
  1  2  2  0
  2  3  1  0
  3  4  1  0
  4  5  1  0
  5  6  2  0
  6  7  1  0
  7  8  2  0
  8  9  1  0
  9 10  2  0
  2 11  1  0
 11 12  2  0
 12 13  1  0
 13 14  2  0
 14 15  1  0
 15 16  1  0
 16 17  2  0
 17 18  1  0
 18 19  1  0
 14 20  1  0
 20 21  2  0
 10  5  1  0
 21 11  1  0
 19 15  2  0
M  END
>  <energy_score>  (21) 
68.236875

>  <alias>  (21) 
None

>  <HIPPO Pose ID>  (21) 
44063

>  <smiles>  (21) 
O=C(NCc1ccncn1)c1ccc(-c2nc[nH]n2)nc1

>  <inchikey>  (21) 
QYGJGIXNYUWUDT-UHFFFAOYSA-N

>  <distance_score>  (21) 
2.145473

>  <ref_mols>  (21) 
Z0945a,Z0875a,Z1719a

>  <ref_pdb>  (21) 
Z1719a

>  <HIPPO Compound ID>  (21) 
3324

>  <name>  (21) 
P44063

>  <inspiration_score>  (21) 
None

$$$$
P44696
     RDKit          3D

 19 20  0  0  0  0  0  0  0  0999 V2000
   -7.9114    5.0511  -11.9966 C   0  0  0  0  0  0  0  0  0  0  0  0
   -7.6007    5.7056  -13.2193 O   0  0  0  0  0  0  0  0  0  0  0  0
   -6.2565    6.1827  -13.2479 C   0  0  0  0  0  0  0  0  0  0  0  0
   -5.8632    6.6262  -14.6284 C   0  0  0  0  0  0  0  0  0  0  0  0
   -4.5293    6.7750  -15.0005 C   0  0  0  0  0  0  0  0  0  0  0  0
   -4.2032    7.0580  -16.3293 C   0  0  0  0  0  0  0  0  0  0  0  0
   -5.2143    7.1683  -17.2766 C   0  0  0  0  0  0  0  0  0  0  0  0
   -4.8464    7.2378  -18.6467 N   0  0  0  0  0  0  0  0  0  0  0  0
   -5.5816    6.2418  -19.4657 C   0  0  0  0  0  0  0  0  0  0  0  0
   -5.4481    4.7872  -18.9637 C   0  0  1  0  0  0  0  0  0  0  0  0
   -4.0099    4.5570  -18.4485 C   0  0  0  0  0  0  0  0  0  0  0  0
   -6.6428    4.4288  -18.0781 C   0  0  0  0  0  0  0  0  0  0  0  0
   -7.9270    4.3974  -18.6419 C   0  0  0  0  0  0  0  0  0  0  0  0
   -9.0473    4.2294  -17.8388 C   0  0  0  0  0  0  0  0  0  0  0  0
   -8.9896    4.0385  -16.5103 N   0  0  0  0  0  0  0  0  0  0  0  0
   -7.7514    4.0005  -15.9811 C   0  0  0  0  0  0  0  0  0  0  0  0
   -6.5733    4.1899  -16.7080 C   0  0  0  0  0  0  0  0  0  0  0  0
   -6.5044    7.1645  -16.9148 N   0  0  0  0  0  0  0  0  0  0  0  0
   -6.7979    6.8819  -15.6147 C   0  0  0  0  0  0  0  0  0  0  0  0
  1  2  1  0
  2  3  1  0
  3  4  1  0
  4  5  2  0
  5  6  1  0
  6  7  2  0
  7  8  1  0
  8  9  1  0
  9 10  1  0
 10 11  1  1
 10 12  1  0
 12 13  2  0
 13 14  1  0
 14 15  2  0
 15 16  1  0
 16 17  2  0
  7 18  1  0
 18 19  2  0
 19  4  1  0
 17 12  1  0
M  END
>  <energy_score>  (22) 
-4.972343

>  <alias>  (22) 
None

>  <HIPPO Pose ID>  (22) 
44696

>  <smiles>  (22) 
COCc1ccc(NC[C@@H](C)c2ccncc2)nc1

>  <inchikey>  (22) 
CCTBDQQIIMCABW-UHFFFAOYSA-N

>  <distance_score>  (22) 
1.85772

>  <ref_mols>  (22) 
Z1274a,Z0472a

>  <ref_pdb>  (22) 
Z0472a

>  <HIPPO Compound ID>  (22) 
626

>  <name>  (22) 
P44696

>  <inspiration_score>  (22) 
None

$$$$
P44733
     RDKit          3D

 22 24  0  0  0  0  0  0  0  0999 V2000
   -1.9120    5.8799  -16.1425 C   0  0  0  0  0  0  0  0  0  0  0  0
   -1.8774    5.8053  -17.6592 C   0  0  0  0  0  0  0  0  0  0  0  0
   -3.0818    4.5702  -18.2681 S   0  0  0  0  0  0  0  0  0  0  0  0
   -3.1111    4.9361  -20.0204 C   0  0  0  0  0  0  0  0  0  0  0  0
   -1.8846    5.1333  -20.6706 C   0  0  0  0  0  0  0  0  0  0  0  0
   -1.8353    5.4379  -22.0262 C   0  0  0  0  0  0  0  0  0  0  0  0
   -3.0238    5.5378  -22.7149 C   0  0  0  0  0  0  0  0  0  0  0  0
   -4.2260    5.3190  -22.1529 N   0  0  0  0  0  0  0  0  0  0  0  0
   -4.2620    4.9828  -20.8275 C   0  0  0  0  0  0  0  0  0  0  0  0
   -5.6509    4.5676  -20.3761 C   0  0  0  0  0  0  0  0  0  0  0  0
   -6.3012    3.9370  -21.1204 O   0  0  0  0  0  0  0  0  0  0  0  0
   -5.9791    5.0986  -18.9529 N   0  0  0  0  0  0  0  0  0  0  0  0
   -7.1012    4.8901  -18.1403 C   0  0  0  0  0  0  0  0  0  0  0  0
   -8.2518    4.3323  -18.6927 C   0  0  0  0  0  0  0  0  0  0  0  0
   -9.3436    4.0568  -17.8871 C   0  0  0  0  0  0  0  0  0  0  0  0
   -9.2708    4.3159  -16.5239 C   0  0  0  0  0  0  0  0  0  0  0  0
   -8.1746    4.9126  -15.9376 C   0  0  0  0  0  0  0  0  0  0  0  0
   -8.2342    5.1817  -14.6172 N   0  0  0  0  0  0  0  0  0  0  0  0
   -7.1668    5.7503  -14.0399 C   0  0  0  0  0  0  0  0  0  0  0  0
   -6.0291    6.1011  -14.7308 C   0  0  0  0  0  0  0  0  0  0  0  0
   -5.9829    5.8418  -16.0941 C   0  0  0  0  0  0  0  0  0  0  0  0
   -7.0650    5.2220  -16.7522 C   0  0  0  0  0  0  0  0  0  0  0  0
  1  2  1  0
  2  3  1  0
  3  4  1  0
  4  5  2  0
  5  6  1  0
  6  7  2  0
  7  8  1  0
  8  9  2  0
  9 10  1  0
 10 11  2  0
 10 12  1  0
 12 13  1  0
 13 14  2  0
 14 15  1  0
 15 16  2  0
 16 17  1  0
 17 18  2  0
 18 19  1  0
 19 20  2  0
 20 21  1  0
 21 22  2  0
  9  4  1  0
 22 13  1  0
 22 17  1  0
M  END
>  <energy_score>  (23) 
-25.773416

>  <alias>  (23) 
None

>  <HIPPO Pose ID>  (23) 
44733

>  <smiles>  (23) 
CCSc1cccnc1C(=O)Nc1cccc2ncccc12

>  <inchikey>  (23) 
CYPOFIRFZWWIJF-UHFFFAOYSA-N

>  <distance_score>  (23) 
0.955107

>  <ref_mols>  (23) 
Z1688a,Z0852a

>  <ref_pdb>  (23) 
Z0852a

>  <HIPPO Compound ID>  (23) 
55811

>  <name>  (23) 
P44733

>  <inspiration_score>  (23) 
None

$$$$
P44791
     RDKit          3D

 22 24  0  0  0  0  0  0  0  0999 V2000
   -6.7250    1.4310  -13.2466 O   0  0  0  0  0  0  0  0  0  0  0  0
   -6.3293    2.4896  -12.9601 C   0  0  0  0  0  0  0  0  0  0  0  0
   -6.2558    3.6712  -13.9707 C   0  0  0  0  0  0  0  0  0  0  0  0
   -7.2626    3.4681  -15.1267 C   0  0  0  0  0  0  0  0  0  0  0  0
   -8.0997    4.5713  -15.7678 C   0  0  0  0  0  0  0  0  0  0  0  0
   -7.2534    5.6166  -16.2698 N   0  0  0  0  0  0  0  0  0  0  0  0
   -6.6677    6.5635  -15.4868 C   0  0  0  0  0  0  0  0  0  0  0  0
   -5.8116    7.2225  -16.3268 C   0  0  0  0  0  0  0  0  0  0  0  0
   -5.9293    6.7544  -17.6051 N   0  0  0  0  0  0  0  0  0  0  0  0
   -6.8025    5.7724  -17.5442 C   0  0  0  0  0  0  0  0  0  0  0  0
   -5.8914    3.0589  -11.5900 N   0  0  0  0  0  0  0  0  0  0  0  0
   -5.9416    2.4636  -10.2532 C   0  0  0  0  0  0  0  0  0  0  0  0
   -7.1522    3.2022   -9.6941 C   0  0  0  0  0  0  0  0  0  0  0  0
   -8.2778    3.1625  -10.4975 N   0  0  0  0  0  0  0  0  0  0  0  0
   -8.4200    4.4216  -10.8246 C   0  0  0  0  0  0  0  0  0  0  0  0
   -8.8107    5.0133  -12.0508 C   0  0  0  0  0  0  0  0  0  0  0  0
   -8.7538    6.3496  -12.1977 C   0  0  0  0  0  0  0  0  0  0  0  0
   -8.3329    7.2065  -11.1014 C   0  0  0  0  0  0  0  0  0  0  0  0
   -7.8860    6.6417   -9.9656 C   0  0  0  0  0  0  0  0  0  0  0  0
   -7.8675    5.2494   -9.8607 N   0  0  0  0  0  0  0  0  0  0  0  0
   -7.1319    4.4257   -9.0287 C   0  0  0  0  0  0  0  0  0  0  0  0
   -5.8659    5.0166   -7.7333 Br  0  0  0  0  0  0  0  0  0  0  0  0
  1  2  2  0
  2  3  1  0
  3  4  1  0
  4  5  1  0
  5  6  1  0
  6  7  1  0
  7  8  2  0
  8  9  1  0
  9 10  2  0
  2 11  1  0
 11 12  1  0
 12 13  1  0
 13 14  1  0
 14 15  2  0
 15 16  1  0
 16 17  2  0
 17 18  1  0
 18 19  2  0
 19 20  1  0
 20 21  1  0
 21 22  1  0
 10  6  1  0
 21 13  2  0
 20 15  1  0
M  END
>  <energy_score>  (24) 
35.07277

>  <alias>  (24) 
None

>  <HIPPO Pose ID>  (24) 
44791

>  <smiles>  (24) 
O=C(CCCn1ccnc1)NCc1nc2ccccn2c1Br

>  <inchikey>  (24) 
UHJJZEOOQIQQMR-UHFFFAOYSA-N

>  <distance_score>  (24) 
2.182074

>  <ref_mols>  (24) 
Z0917a,Z1495a

>  <ref_pdb>  (24) 
Z1495a

>  <HIPPO Compound ID>  (24) 
116066

>  <name>  (24) 
P44791

>  <inspiration_score>  (24) 
None

$$$$
P47327
     RDKit          3D

 23 25  0  0  0  0  0  0  0  0999 V2000
   -6.1253    3.1905  -10.4930 C   0  0  0  0  0  0  0  0  0  0  0  0
   -7.2839    4.0791  -10.0768 C   0  0  0  0  0  0  0  0  0  0  0  0
   -7.6723    5.0099  -11.1198 N   0  0  0  0  0  0  0  0  0  0  0  0
   -8.5676    4.7055  -12.1064 C   0  0  0  0  0  0  0  0  0  0  0  0
   -8.7761    5.7244  -12.9102 N   0  0  0  0  0  0  0  0  0  0  0  0
   -7.9535    6.7135  -12.4503 C   0  0  0  0  0  0  0  0  0  0  0  0
   -7.2366    6.2935  -11.3466 C   0  0  0  0  0  0  0  0  0  0  0  0
   -6.1641    6.9912  -10.6026 C   0  0  0  0  0  0  0  0  0  0  0  0
   -4.9354    6.5666  -11.2004 O   0  0  0  0  0  0  0  0  0  0  0  0
   -4.5423    7.2785  -12.2932 C   0  0  0  0  0  0  0  0  0  0  0  0
   -4.9965    8.3593  -12.6432 O   0  0  0  0  0  0  0  0  0  0  0  0
   -3.4306    6.5588  -13.0089 C   0  0  0  0  0  0  0  0  0  0  0  0
   -3.8619    5.1793  -13.5018 C   0  0  0  0  0  0  0  0  0  0  0  0
   -4.7123    5.1897  -14.7424 C   0  0  0  0  0  0  0  0  0  0  0  0
   -4.1909    5.5434  -15.9767 C   0  0  0  0  0  0  0  0  0  0  0  0
   -4.8793    5.5118  -17.1395 N   0  0  0  0  0  0  0  0  0  0  0  0
   -6.1657    5.1099  -17.1061 C   0  0  0  0  0  0  0  0  0  0  0  0
   -6.8975    5.0228  -18.2839 C   0  0  0  0  0  0  0  0  0  0  0  0
   -8.2365    4.6169  -18.2964 C   0  0  0  0  0  0  0  0  0  0  0  0
   -8.8739    4.3006  -17.1055 C   0  0  0  0  0  0  0  0  0  0  0  0
   -8.1594    4.3658  -15.9129 C   0  0  0  0  0  0  0  0  0  0  0  0
   -6.8069    4.7575  -15.9048 C   0  0  0  0  0  0  0  0  0  0  0  0
   -6.0460    4.7875  -14.7252 C   0  0  0  0  0  0  0  0  0  0  0  0
  1  2  1  0
  2  3  1  0
  3  4  1  0
  4  5  2  0
  5  6  1  0
  6  7  2  0
  7  8  1  0
  8  9  1  0
  9 10  1  0
 10 11  2  0
 10 12  1  0
 12 13  1  0
 13 14  1  0
 14 15  2  0
 15 16  1  0
 16 17  2  0
 17 18  1  0
 18 19  2  0
 19 20  1  0
 20 21  2  0
 21 22  1  0
 22 23  2  0
  7  3  1  0
 23 14  1  0
 22 17  1  0
M  END
>  <energy_score>  (25) 
-29.650099

>  <alias>  (25) 
None

>  <HIPPO Pose ID>  (25) 
47327

>  <smiles>  (25) 
CCn1cncc1COC(=O)CCc1cnc2ccccc2c1

>  <inchikey>  (25) 
HQJVWWZLOLLFOC-UHFFFAOYSA-N

>  <distance_score>  (25) 
0.857621

>  <ref_mols>  (25) 
Z1688a,Z1716a

>  <ref_pdb>  (25) 
Z1688a

>  <HIPPO Compound ID>  (25) 
117748

>  <name>  (25) 
P47327

>  <inspiration_score>  (25) 
None

$$$$
P48276
     RDKit          3D

 19 20  0  0  0  0  0  0  0  0999 V2000
   -6.7750   11.9651  -16.8916 C   0  0  0  0  0  0  0  0  0  0  0  0
   -6.5641   11.3340  -18.2520 C   0  0  0  0  0  0  0  0  0  0  0  0
   -7.4352   11.0218  -18.9640 O   0  0  0  0  0  0  0  0  0  0  0  0
   -5.0302   11.2298  -18.4374 N   0  0  0  0  0  0  0  0  0  0  0  0
   -4.2545   10.8098  -19.5701 C   0  0  0  0  0  0  0  0  0  0  0  0
   -4.5941    9.4206  -19.9446 C   0  0  0  0  0  0  0  0  0  0  0  0
   -5.2981    8.8895  -21.0030 C   0  0  0  0  0  0  0  0  0  0  0  0
   -5.2298    7.4905  -20.8756 C   0  0  0  0  0  0  0  0  0  0  0  0
   -4.5188    7.2384  -19.7240 C   0  0  0  0  0  0  0  0  0  0  0  0
   -4.2426    5.9881  -19.0504 C   0  0  0  0  0  0  0  0  0  0  0  0
   -3.6973    5.1004  -19.5702 O   0  0  0  0  0  0  0  0  0  0  0  0
   -4.8832    6.0847  -17.6625 N   0  0  0  0  0  0  0  0  0  0  0  0
   -5.0741    5.0892  -16.6575 C   0  0  0  0  0  0  0  0  0  0  0  0
   -6.5126    5.1342  -16.2852 C   0  0  0  0  0  0  0  0  0  0  0  0
   -7.0385    5.8128  -15.2840 N   0  0  0  0  0  0  0  0  0  0  0  0
   -8.3756    5.5217  -15.3088 C   0  0  0  0  0  0  0  0  0  0  0  0
   -8.6815    4.7153  -16.3767 C   0  0  0  0  0  0  0  0  0  0  0  0
   -7.4913    4.4941  -17.0082 N   0  0  0  0  0  0  0  0  0  0  0  0
   -4.1422    8.4176  -19.1367 O   0  0  0  0  0  0  0  0  0  0  0  0
  1  2  1  0
  2  3  2  0
  2  4  1  0
  4  5  1  0
  5  6  1  0
  6  7  2  0
  7  8  1  0
  8  9  2  0
  9 10  1  0
 10 11  2  0
 10 12  1  0
 12 13  1  0
 13 14  1  0
 14 15  2  0
 15 16  1  0
 16 17  2  0
 17 18  1  0
  9 19  1  0
 19  6  1  0
 18 14  1  0
M  END
>  <energy_score>  (26) 
15.675494

>  <alias>  (26) 
None

>  <HIPPO Pose ID>  (26) 
48276

>  <smiles>  (26) 
CC(=O)NCc1ccc(C(=O)NCc2ncc[nH]2)o1

>  <inchikey>  (26) 
FZQAWAZCVRTXHR-UHFFFAOYSA-N

>  <distance_score>  (26) 
5.187775

>  <ref_mols>  (26) 
Z0917a,Z0719a

>  <ref_pdb>  (26) 
Z0719a

>  <HIPPO Compound ID>  (26) 
8113

>  <name>  (26) 
P48276

>  <inspiration_score>  (26) 
None

$$$$
P48957
     RDKit          3D

 22 24  0  0  0  0  0  0  0  0999 V2000
   -9.3666    4.0544  -18.2263 C   0  0  0  0  0  0  0  0  0  0  0  0
   -8.0173    4.5044  -17.7180 C   0  0  0  0  0  0  0  0  0  0  0  0
   -7.0839    4.6258  -18.8115 O   0  0  0  0  0  0  0  0  0  0  0  0
   -5.7436    4.8540  -18.6037 C   0  0  0  0  0  0  0  0  0  0  0  0
   -4.9430    4.7876  -19.5322 O   0  0  0  0  0  0  0  0  0  0  0  0
   -5.2776    5.1169  -17.2341 C   0  0  0  0  0  0  0  0  0  0  0  0
   -3.9794    4.8984  -16.7913 C   0  0  0  0  0  0  0  0  0  0  0  0
   -3.9252    5.0112  -15.0694 S   0  0  0  0  0  0  0  0  0  0  0  0
   -5.5637    5.4337  -15.0808 C   0  0  0  0  0  0  0  0  0  0  0  0
   -6.2250    5.4695  -13.9115 N   0  0  0  0  0  0  0  0  0  0  0  0
   -7.6975    5.8131  -13.6035 C   0  0  0  0  0  0  0  0  0  0  0  0
   -8.5470    6.1930  -14.3043 O   0  0  0  0  0  0  0  0  0  0  0  0
   -7.9207    5.4968  -12.1756 C   0  0  0  0  0  0  0  0  0  0  0  0
   -7.7908    6.5149  -11.1462 C   0  0  0  0  0  0  0  0  0  0  0  0
   -7.9222    6.1412   -9.8613 C   0  0  0  0  0  0  0  0  0  0  0  0
   -8.1858    4.8034   -9.5669 N   0  0  0  0  0  0  0  0  0  0  0  0
   -8.3163    4.1824   -8.3532 C   0  0  0  0  0  0  0  0  0  0  0  0
   -8.5554    2.8579   -8.6441 C   0  0  0  0  0  0  0  0  0  0  0  0
   -8.5907    2.6550   -9.9984 N   0  0  0  0  0  0  0  0  0  0  0  0
   -8.3489    3.8231  -10.5376 C   0  0  0  0  0  0  0  0  0  0  0  0
   -8.2078    4.2105  -11.8946 C   0  0  0  0  0  0  0  0  0  0  0  0
   -6.1140    5.5996  -16.2445 N   0  0  0  0  0  0  0  0  0  0  0  0
  1  2  1  0
  2  3  1  0
  3  4  1  0
  4  5  2  0
  4  6  1  0
  6  7  2  0
  7  8  1  0
  8  9  1  0
  9 10  1  0
 10 11  1  0
 11 12  2  0
 11 13  1  0
 13 14  1  0
 14 15  2  0
 15 16  1  0
 16 17  1  0
 17 18  2  0
 18 19  1  0
 19 20  2  0
 20 21  1  0
  9 22  2  0
 22  6  1  0
 21 13  2  0
 20 16  1  0
M  END
>  <energy_score>  (27) 
-78.388864

>  <alias>  (27) 
None

>  <HIPPO Pose ID>  (27) 
48957

>  <smiles>  (27) 
CCOC(=O)c1csc(NC(=O)c2ccn3ccnc3c2)n1

>  <inchikey>  (27) 
IANSQNGDXZKZMC-UHFFFAOYSA-N

>  <distance_score>  (27) 
0.893672

>  <ref_mols>  (27) 
Z1495a,Z0673a

>  <ref_pdb>  (27) 
Z0673a

>  <HIPPO Compound ID>  (27) 
4344

>  <name>  (27) 
P48957

>  <inspiration_score>  (27) 
None

$$$$
P50682
     RDKit          3D

 10 10  0  0  0  0  0  0  0  0999 V2000
   -4.4156    6.9797  -20.4713 C   0  0  0  0  0  0  0  0  0  0  0  0
   -4.0202    5.8613  -19.5264 C   0  0  0  0  0  0  0  0  0  0  0  0
   -4.9427    5.7290  -18.3230 C   0  0  0  0  0  0  0  0  0  0  0  0
   -4.5859    5.9862  -17.2397 O   0  0  0  0  0  0  0  0  0  0  0  0
   -6.3013    5.1724  -18.8295 N   0  0  0  0  0  0  0  0  0  0  0  0
   -7.3948    4.7556  -18.1408 C   0  0  0  0  0  0  0  0  0  0  0  0
   -8.6197    4.2823  -18.5444 C   0  0  0  0  0  0  0  0  0  0  0  0
   -9.3843    3.9229  -17.4616 N   0  0  0  0  0  0  0  0  0  0  0  0
   -8.6461    4.2076  -16.4123 C   0  0  0  0  0  0  0  0  0  0  0  0
   -7.4308    4.7135  -16.7760 N   0  0  0  0  0  0  0  0  0  0  0  0
  1  2  1  0
  2  3  1  0
  3  4  2  0
  3  5  1  0
  5  6  1  0
  6  7  2  0
  7  8  1  0
  8  9  2  0
  9 10  1  0
 10  6  1  0
M  END
>  <energy_score>  (28) 
-20.167561

>  <alias>  (28) 
None

>  <HIPPO Pose ID>  (28) 
50682

>  <smiles>  (28) 
CCC(=O)Nc1cnc[nH]1

>  <inchikey>  (28) 
NAPZUNQCBHIRPL-UHFFFAOYSA-N

>  <distance_score>  (28) 
0.717102

>  <ref_mols>  (28) 
Z0719a,Z1597a

>  <ref_pdb>  (28) 
Z0719a

>  <HIPPO Compound ID>  (28) 
9828

>  <name>  (28) 
P50682

>  <inspiration_score>  (28) 
None

$$$$
P51493
     RDKit          3D

 19 21  0  0  0  0  0  0  0  0999 V2000
  -11.3905    2.9394    1.1164 O   0  0  0  0  0  0  0  0  0  0  0  0
  -11.6116    3.9573    0.5215 C   0  0  0  0  0  0  0  0  0  0  0  0
  -12.7832    4.8371    0.5399 N   0  0  0  0  0  0  0  0  0  0  0  0
  -14.0555    4.6988    1.1972 C   0  0  0  0  0  0  0  0  0  0  0  0
  -14.3467    3.5166    1.8875 C   0  0  0  0  0  0  0  0  0  0  0  0
  -15.6649    3.1657    2.2016 C   0  0  0  0  0  0  0  0  0  0  0  0
  -16.7208    4.0018    1.8433 C   0  0  0  0  0  0  0  0  0  0  0  0
  -18.3419    3.4485    2.1633 Cl  0  0  0  0  0  0  0  0  0  0  0  0
  -16.4877    5.2415    1.2485 C   0  0  0  0  0  0  0  0  0  0  0  0
  -17.5410    6.0363    0.9454 N   0  0  0  0  0  0  0  0  0  0  0  0
  -17.3220    7.2572    0.4287 C   0  0  0  0  0  0  0  0  0  0  0  0
  -16.0607    7.7485    0.1891 C   0  0  0  0  0  0  0  0  0  0  0  0
  -14.9691    6.9267    0.4642 C   0  0  0  0  0  0  0  0  0  0  0  0
  -15.1366    5.6201    0.9694 C   0  0  0  0  0  0  0  0  0  0  0  0
  -10.5872    4.3816   -0.4919 C   0  0  0  0  0  0  0  0  0  0  0  0
   -9.9359    5.5815   -0.7350 C   0  0  0  0  0  0  0  0  0  0  0  0
   -9.0194    5.5273   -1.8507 C   0  0  0  0  0  0  0  0  0  0  0  0
   -9.0001    4.2911   -2.4519 C   0  0  0  0  0  0  0  0  0  0  0  0
  -10.0361    3.1933   -1.6476 S   0  0  0  0  0  0  0  0  0  0  0  0
  1  2  2  0
  2  3  1  0
  3  4  1  0
  4  5  2  0
  5  6  1  0
  6  7  2  0
  7  8  1  0
  7  9  1  0
  9 10  2  0
 10 11  1  0
 11 12  2  0
 12 13  1  0
 13 14  2  0
  2 15  1  0
 15 16  2  0
 16 17  1  0
 17 18  2  0
 18 19  1  0
 14  4  1  0
 19 15  1  0
 14  9  1  0
M  END
>  <energy_score>  (29) 
-29.611518

>  <alias>  (29) 
None

>  <HIPPO Pose ID>  (29) 
51493

>  <smiles>  (29) 
O=C(Nc1ccc(Cl)c2ncccc12)c1cccs1

>  <inchikey>  (29) 
IKORLRBVEJMBQL-UHFFFAOYSA-N

>  <distance_score>  (29) 
10.431239

>  <ref_mols>  (29) 
Z0422a,Z0773b

>  <ref_pdb>  (29) 
Z0773b

>  <HIPPO Compound ID>  (29) 
12880

>  <name>  (29) 
P51493

>  <inspiration_score>  (29) 
None

$$$$
P52585
     RDKit          3D

 21 22  0  0  0  0  0  0  0  0999 V2000
   -3.9079    7.8105  -20.8866 C   0  0  0  0  0  0  0  0  0  0  0  0
   -4.5048    7.4675  -19.5217 C   0  0  0  0  0  0  0  0  0  0  0  0
   -5.3980    6.2251  -19.6074 C   0  0  1  0  0  0  0  0  0  0  0  0
   -4.5845    4.9801  -19.2394 C   0  0  0  0  0  0  0  0  0  0  0  0
   -6.6566    6.3935  -18.7473 C   0  0  0  0  0  0  0  0  0  0  0  0
   -6.8674    7.3436  -18.1092 O   0  0  0  0  0  0  0  0  0  0  0  0
   -7.4745    5.0995  -18.9106 N   0  0  0  0  0  0  0  0  0  0  0  0
   -8.7634    4.7436  -18.3997 C   0  0  0  0  0  0  0  0  0  0  0  0
   -8.6748    4.1921  -16.9907 C   0  0  0  0  0  0  0  0  0  0  0  0
   -9.3452    3.2172  -16.6674 O   0  0  0  0  0  0  0  0  0  0  0  0
   -7.9147    4.8601  -16.0616 N   0  0  0  0  0  0  0  0  0  0  0  0
   -8.4820    5.9588  -15.3215 C   0  0  0  0  0  0  0  0  0  0  0  0
   -8.1589    5.8245  -13.8421 C   0  0  0  0  0  0  0  0  0  0  0  0
   -6.6681    5.5929  -13.5533 C   0  0  0  0  0  0  0  0  0  0  0  0
   -5.7942    5.3954  -14.8115 C   0  0  2  0  0  0  0  0  0  0  0  0
   -5.3064    6.6404  -15.4124 N   0  0  0  0  0  0  0  0  0  0  0  0
   -4.1748    6.7957  -16.1691 C   0  0  0  0  0  0  0  0  0  0  0  0
   -4.0424    8.1458  -16.3899 C   0  0  0  0  0  0  0  0  0  0  0  0
   -5.0782    8.7344  -15.6536 C   0  0  0  0  0  0  0  0  0  0  0  0
   -5.8154    7.8302  -15.0108 N   0  0  0  0  0  0  0  0  0  0  0  0
   -6.5357    4.4841  -15.8010 C   0  0  0  0  0  0  0  0  0  0  0  0
  1  2  1  0
  2  3  1  0
  3  4  1  1
  3  5  1  0
  5  6  2  0
  5  7  1  0
  7  8  1  0
  8  9  1  0
  9 10  2  0
  9 11  1  0
 11 12  1  0
 12 13  1  0
 13 14  1  0
 14 15  1  0
 15 16  1  6
 16 17  1  0
 17 18  2  0
 18 19  1  0
 19 20  2  0
 15 21  1  0
 21 11  1  0
 20 16  1  0
M  END
>  <energy_score>  (30) 
10.995509

>  <alias>  (30) 
None

>  <HIPPO Pose ID>  (30) 
52585

>  <smiles>  (30) 
CC[C@@H](C)C(=O)NCC(=O)N1CCC[C@H](n2cccn2)C1

>  <inchikey>  (30) 
HBTCTAYMBHGXLI-UHFFFAOYSA-N

>  <distance_score>  (30) 
2.523755

>  <ref_mols>  (30) 
Z1098a,Z0819a

>  <ref_pdb>  (30) 
Z0819a

>  <HIPPO Compound ID>  (30) 
15670

>  <name>  (30) 
P52585

>  <inspiration_score>  (30) 
None

$$$$
P54169
     RDKit          3D

 21 24  0  0  0  0  0  0  0  0999 V2000
   -4.5687    5.3218  -16.4341 O   0  0  0  0  0  0  0  0  0  0  0  0
   -5.2702    5.1192  -17.4140 C   0  0  0  0  0  0  0  0  0  0  0  0
   -6.7044    4.7967  -17.3195 C   0  0  0  0  0  0  0  0  0  0  0  0
   -7.5617    4.3350  -18.7566 S   0  0  0  0  0  0  0  0  0  0  0  0
   -8.9553    3.8978  -17.9032 C   0  0  0  0  0  0  0  0  0  0  0  0
   -8.8110    4.1257  -16.5586 C   0  0  0  0  0  0  0  0  0  0  0  0
   -7.5527    4.7283  -16.2142 C   0  0  0  0  0  0  0  0  0  0  0  0
   -7.2900    5.1677  -14.8699 N   0  0  0  0  0  0  0  0  0  0  0  0
   -7.9784    4.7551  -13.7394 C   0  0  0  0  0  0  0  0  0  0  0  0
   -7.5096    5.4320  -12.6362 C   0  0  0  0  0  0  0  0  0  0  0  0
   -6.5205    6.3217  -13.0925 C   0  0  0  0  0  0  0  0  0  0  0  0
   -6.4249    6.1595  -14.4562 C   0  0  0  0  0  0  0  0  0  0  0  0
   -4.7626    5.1385  -18.6945 N   0  0  0  0  0  0  0  0  0  0  0  0
   -4.9494    6.9005  -19.3231 C   0  0  0  0  0  0  0  0  0  0  0  0
   -3.7169    7.7858  -19.2846 C   0  0  0  0  0  0  0  0  0  0  0  0
   -3.0754    8.9505  -19.0148 C   0  0  0  0  0  0  0  0  0  0  0  0
   -1.6954    8.9259  -19.2478 C   0  0  0  0  0  0  0  0  0  0  0  0
   -1.0561    7.7490  -19.7184 C   0  0  0  0  0  0  0  0  0  0  0  0
   -1.7903    6.5866  -19.9745 C   0  0  0  0  0  0  0  0  0  0  0  0
   -3.1267    6.6993  -19.7516 C   0  0  0  0  0  0  0  0  0  0  0  0
   -4.5658    6.0964  -19.7135 C   0  0  0  0  0  0  0  0  0  0  0  0
  1  2  2  0
  2  3  1  0
  3  4  1  0
  4  5  1  0
  5  6  2  0
  6  7  1  0
  7  8  1  0
  8  9  1  0
  9 10  2  0
 10 11  1  0
 11 12  2  0
  2 13  1  0
 13 14  1  0
 14 15  1  0
 15 16  2  0
 16 17  1  0
 17 18  2  0
 18 19  1  0
 19 20  2  0
 20 21  1  0
  7  3  2  0
 12  8  1  0
 21 13  1  0
 20 15  1  0
M  END
>  <energy_score>  (31) 
529.444408

>  <alias>  (31) 
None

>  <HIPPO Pose ID>  (31) 
54169

>  <smiles>  (31) 
O=C(c1sccc1-n1cccc1)N1Cc2ccccc2C1

>  <inchikey>  (31) 
RANVFLINKBWBCV-UHFFFAOYSA-N

>  <distance_score>  (31) 
2.110171

>  <ref_mols>  (31) 
Z0422a,Z3527a

>  <ref_pdb>  (31) 
Z3527a

>  <HIPPO Compound ID>  (31) 
60966

>  <name>  (31) 
P54169

>  <inspiration_score>  (31) 
None

$$$$
P54277
     RDKit          3D

 10 10  0  0  0  0  0  0  0  0999 V2000
   -1.9992    4.2156  -19.4029 C   0  0  0  0  0  0  0  0  0  0  0  0
   -2.6496    5.5121  -18.9398 C   0  0  0  0  0  0  0  0  0  0  0  0
   -1.9410    6.7181  -19.5486 C   0  0  0  0  0  0  0  0  0  0  0  0
   -4.0409    5.5636  -19.3451 N   0  0  0  0  0  0  0  0  0  0  0  0
   -5.0862    5.2340  -18.5150 C   0  0  0  0  0  0  0  0  0  0  0  0
   -5.1106    5.4082  -17.1319 C   0  0  0  0  0  0  0  0  0  0  0  0
   -6.1870    5.1323  -16.3568 N   0  0  0  0  0  0  0  0  0  0  0  0
   -7.2658    4.6723  -17.0261 C   0  0  0  0  0  0  0  0  0  0  0  0
   -7.2669    4.5158  -18.3979 C   0  0  0  0  0  0  0  0  0  0  0  0
   -6.1792    4.7832  -19.1541 N   0  0  0  0  0  0  0  0  0  0  0  0
  1  2  1  0
  2  3  1  0
  2  4  1  0
  4  5  1  0
  5  6  2  0
  6  7  1  0
  7  8  2  0
  8  9  1  0
  9 10  2  0
 10  5  1  0
M  END
>  <energy_score>  (32) 
-32.980417

>  <alias>  (32) 
None

>  <HIPPO Pose ID>  (32) 
54277

>  <smiles>  (32) 
CC(C)Nc1cnccn1

>  <inchikey>  (32) 
NFFXHWPBOGQOAI-UHFFFAOYSA-N

>  <distance_score>  (32) 
0.674971

>  <ref_mols>  (32) 
Z0875a,Z0089a

>  <ref_pdb>  (32) 
Z0089a

>  <HIPPO Compound ID>  (32) 
61266

>  <name>  (32) 
P54277

>  <inspiration_score>  (32) 
None

$$$$
P54406
     RDKit          3D

 16 18  0  0  0  0  0  0  0  0999 V2000
   -7.7356    6.9709  -10.7847 N   0  0  0  0  0  0  0  0  0  0  0  0
   -7.9416    5.7929  -10.0804 C   0  0  0  0  0  0  0  0  0  0  0  0
   -8.3715    5.7498   -8.7661 C   0  0  0  0  0  0  0  0  0  0  0  0
   -8.5939    4.5163   -8.1182 C   0  0  0  0  0  0  0  0  0  0  0  0
   -8.4174    3.3096   -8.7945 C   0  0  0  0  0  0  0  0  0  0  0  0
   -7.8732    3.3809  -10.0520 C   0  0  0  0  0  0  0  0  0  0  0  0
   -7.5171    4.6038  -10.5888 C   0  0  0  0  0  0  0  0  0  0  0  0
   -6.5644    4.3794  -11.6861 C   0  0  0  0  0  0  0  0  0  0  0  0
   -6.9410    3.0853  -12.2533 N   0  0  0  0  0  0  0  0  0  0  0  0
   -7.9347    3.2653  -13.3484 C   0  0  0  0  0  0  0  0  0  0  0  0
   -7.6815    4.3247  -14.4667 C   0  0  1  0  0  0  0  0  0  0  0  0
   -6.3156    4.2978  -15.1097 C   0  0  0  0  0  0  0  0  0  0  0  0
   -6.5327    4.9121  -16.4770 C   0  0  0  0  0  0  0  0  0  0  0  0
   -7.9188    4.8002  -16.7943 O   0  0  0  0  0  0  0  0  0  0  0  0
   -8.6024    4.2108  -15.6788 C   0  0  0  0  0  0  0  0  0  0  0  0
   -7.5350    2.3424  -11.0673 C   0  0  0  0  0  0  0  0  0  0  0  0
  1  2  1  0
  2  3  2  0
  3  4  1  0
  4  5  2  0
  5  6  1  0
  6  7  2  0
  7  8  1  0
  8  9  1  0
  9 10  1  0
 11 10  1  1
 11 12  1  0
 12 13  1  0
 13 14  1  0
 14 15  1  0
  9 16  1  0
  7  2  1  0
 15 11  1  0
 16  6  1  0
M  END
>  <energy_score>  (33) 
-19.568198

>  <alias>  (33) 
None

>  <HIPPO Pose ID>  (33) 
54406

>  <smiles>  (33) 
Nc1cccc2c1CN(C[C@H]1CCOC1)C2

>  <inchikey>  (33) 
SFQSDWUKOWQCPC-UHFFFAOYSA-N

>  <distance_score>  (33) 
2.622141

>  <ref_mols>  (33) 
Z0089a,Z3596a,Z3503a,Z4245a,Z3476a,Z3880a,Z3729a

>  <ref_pdb>  (33) 
Z0089a

>  <HIPPO Compound ID>  (33) 
61503

>  <name>  (33) 
P54406

>  <inspiration_score>  (33) 
None

$$$$
P55921
     RDKit          3D

 22 24  0  0  0  0  0  0  0  0999 V2000
   -0.4490    9.2581  -23.4857 C   0  0  0  0  0  0  0  0  0  0  0  0
   -1.1868    8.2643  -23.9994 C   0  0  0  0  0  0  0  0  0  0  0  0
   -2.4786    8.4600  -24.7155 C   0  0  0  0  0  0  0  0  0  0  0  0
   -3.4802    7.9784  -23.8252 N   0  0  0  0  0  0  0  0  0  0  0  0
   -4.3500    8.7314  -22.7874 C   0  0  0  0  0  0  0  0  0  0  0  0
   -4.4343    9.8730  -22.5568 O   0  0  0  0  0  0  0  0  0  0  0  0
   -5.1182    7.6551  -22.0135 C   0  0  0  0  0  0  0  0  0  0  0  0
   -4.4845    7.2928  -20.7507 N   0  0  0  0  0  0  0  0  0  0  0  0
   -4.6211    8.2811  -19.6891 C   0  0  0  0  0  0  0  0  0  0  0  0
   -3.8854    7.8678  -18.4037 C   0  0  0  0  0  0  0  0  0  0  0  0
   -3.6896    6.3474  -18.2753 C   0  0  0  0  0  0  0  0  0  0  0  0
   -5.0010    5.6451  -17.9777 C   0  0  0  0  0  0  0  0  0  0  0  0
   -5.9992    5.1992  -18.8240 C   0  0  0  0  0  0  0  0  0  0  0  0
   -7.0989    4.7653  -18.0437 C   0  0  0  0  0  0  0  0  0  0  0  0
   -8.3955    4.3149  -18.3558 C   0  0  0  0  0  0  0  0  0  0  0  0
   -9.2750    4.0003  -17.3188 C   0  0  0  0  0  0  0  0  0  0  0  0
   -8.8631    4.1029  -15.9921 C   0  0  0  0  0  0  0  0  0  0  0  0
   -7.5742    4.5321  -15.6578 C   0  0  0  0  0  0  0  0  0  0  0  0
   -6.7169    4.8747  -16.7090 C   0  0  0  0  0  0  0  0  0  0  0  0
   -5.4261    5.3603  -16.6962 N   0  0  0  0  0  0  0  0  0  0  0  0
   -2.9845    5.7979  -19.5364 C   0  0  0  0  0  0  0  0  0  0  0  0
   -3.1792    6.6677  -20.7930 C   0  0  0  0  0  0  0  0  0  0  0  0
  1  2  2  0
  2  3  1  0
  3  4  1  0
  4  5  1  0
  5  6  2  0
  5  7  1  0
  7  8  1  0
  8  9  1  0
  9 10  1  0
 10 11  1  0
 11 12  1  0
 12 13  2  0
 13 14  1  0
 14 15  2  0
 15 16  1  0
 16 17  2  0
 17 18  1  0
 18 19  2  0
 19 20  1  0
 11 21  1  0
 21 22  1  0
 22  8  1  0
 20 12  1  0
 19 14  1  0
M  END
>  <energy_score>  (34) 
-17.576159

>  <alias>  (34) 
None

>  <HIPPO Pose ID>  (34) 
55921

>  <smiles>  (34) 
C=CCNC(=O)CN1CCC(c2cc3ccccc3[nH]2)CC1

>  <inchikey>  (34) 
NVVXDBBCPYCMRN-UHFFFAOYSA-N

>  <distance_score>  (34) 
0.996785

>  <ref_mols>  (34) 
Z1729a,Z2971a

>  <ref_pdb>  (34) 
Z1729a

>  <HIPPO Compound ID>  (34) 
64241

>  <name>  (34) 
P55921

>  <inspiration_score>  (34) 
None

$$$$
P56250
     RDKit          3D

 14 15  0  0  0  0  0  0  0  0999 V2000
   -4.0173    7.1199  -20.7973 C   0  0  0  0  0  0  0  0  0  0  0  0
   -3.9926    5.5950  -20.6149 C   0  0  0  0  0  0  0  0  0  0  0  0
   -2.5989    5.1718  -20.1289 C   0  0  0  0  0  0  0  0  0  0  0  0
   -4.2668    4.9010  -21.9694 C   0  0  0  0  0  0  0  0  0  0  0  0
   -5.4637    5.3547  -22.5823 O   0  0  0  0  0  0  0  0  0  0  0  0
   -4.9472    5.1577  -19.5884 N   0  0  0  0  0  0  0  0  0  0  0  0
   -5.8061    5.9909  -18.5785 C   0  0  0  0  0  0  0  0  0  0  0  0
   -5.9365    7.1519  -18.4695 O   0  0  0  0  0  0  0  0  0  0  0  0
   -6.4381    4.9565  -17.5845 C   0  0  2  0  0  0  0  0  0  0  0  0
   -7.8751    4.7489  -17.8298 N   0  0  0  0  0  0  0  0  0  0  0  0
   -8.5283    4.3657  -16.5712 C   0  0  0  0  0  0  0  0  0  0  0  0
   -7.7151    5.0689  -15.5328 C   0  0  1  0  0  0  0  0  0  0  0  0
   -6.4279    4.5015  -14.9935 C   0  0  0  0  0  0  0  0  0  0  0  0
   -6.4174    5.4454  -16.1593 C   0  0  1  0  0  0  0  0  0  0  0  0
  1  2  1  0
  2  3  1  0
  2  4  1  0
  4  5  1  0
  2  6  1  0
  6  7  1  0
  7  8  2  0
  9  7  1  6
  9 10  1  0
 10 11  1  0
 12 11  1  6
 12 13  1  0
 14 13  1  1
 14  9  1  0
 14 12  1  0
M  END
>  <energy_score>  (35) 
-14.745745

>  <alias>  (35) 
None

>  <HIPPO Pose ID>  (35) 
56250

>  <smiles>  (35) 
CC(C)(CO)NC(=O)[C@@H]1NC[C@H]2C[C@H]21

>  <inchikey>  (35) 
ROXYHVTYJPBFEM-UHFFFAOYSA-N

>  <distance_score>  (35) 
1.089733

>  <ref_mols>  (35) 
Z0101a,Z0827a,Z1729a

>  <ref_pdb>  (35) 
Z0101a

>  <HIPPO Compound ID>  (35) 
60764

>  <name>  (35) 
P56250

>  <inspiration_score>  (35) 
None

$$$$
P56257
     RDKit          3D

 25 27  0  0  0  0  0  0  0  0999 V2000
   -6.0774   12.3085  -23.3634 C   0  0  0  0  0  0  0  0  0  0  0  0
   -6.1021   11.8470  -22.0173 O   0  0  0  0  0  0  0  0  0  0  0  0
   -5.5148   10.6348  -21.7771 C   0  0  0  0  0  0  0  0  0  0  0  0
   -5.3422   10.3247  -20.4269 C   0  0  0  0  0  0  0  0  0  0  0  0
   -4.7261    9.1307  -20.0458 C   0  0  0  0  0  0  0  0  0  0  0  0
   -4.2648    8.2281  -21.0132 C   0  0  0  0  0  0  0  0  0  0  0  0
   -3.3798    7.0757  -20.6051 C   0  0  0  0  0  0  0  0  0  0  0  0
   -3.8699    5.6002  -20.5620 C   0  0  2  0  0  0  0  0  0  0  0  0
   -2.6851    4.8027  -19.9715 C   0  0  0  0  0  0  0  0  0  0  0  0
   -4.1722    5.0205  -21.9665 C   0  0  0  0  0  0  0  0  0  0  0  0
   -5.3231    5.5819  -22.5832 O   0  0  0  0  0  0  0  0  0  0  0  0
   -5.0092    5.3891  -19.6669 N   0  0  0  0  0  0  0  0  0  0  0  0
   -5.2710    5.9087  -18.2404 C   0  0  0  0  0  0  0  0  0  0  0  0
   -4.6566    6.6503  -17.5807 O   0  0  0  0  0  0  0  0  0  0  0  0
   -6.4788    5.2694  -17.5963 C   0  0  0  0  0  0  0  0  0  0  0  0
   -7.5269    4.6291  -18.2781 C   0  0  0  0  0  0  0  0  0  0  0  0
   -8.6270    4.0987  -17.6011 C   0  0  0  0  0  0  0  0  0  0  0  0
   -8.7191    4.1841  -16.2113 C   0  0  0  0  0  0  0  0  0  0  0  0
   -7.7031    4.8325  -15.4925 C   0  0  0  0  0  0  0  0  0  0  0  0
   -7.5120    5.1408  -14.1165 C   0  0  0  0  0  0  0  0  0  0  0  0
   -6.3335    5.8423  -14.0042 C   0  0  0  0  0  0  0  0  0  0  0  0
   -5.7884    5.9376  -15.2561 N   0  0  0  0  0  0  0  0  0  0  0  0
   -6.6143    5.3485  -16.1927 C   0  0  0  0  0  0  0  0  0  0  0  0
   -4.4822    8.5258  -22.3636 C   0  0  0  0  0  0  0  0  0  0  0  0
   -5.1099    9.7170  -22.7445 C   0  0  0  0  0  0  0  0  0  0  0  0
  1  2  1  0
  2  3  1  0
  3  4  2  0
  4  5  1  0
  5  6  2  0
  6  7  1  0
  7  8  1  0
  8  9  1  1
  8 10  1  0
 10 11  1  0
  8 12  1  0
 12 13  1  0
 13 14  2  0
 13 15  1  0
 15 16  2  0
 16 17  1  0
 17 18  2  0
 18 19  1  0
 19 20  1  0
 20 21  2  0
 21 22  1  0
 22 23  1  0
  6 24  1  0
 24 25  2  0
 25  3  1  0
 23 15  1  0
 23 19  2  0
M  END
>  <energy_score>  (36) 
-16.140747

>  <alias>  (36) 
None

>  <HIPPO Pose ID>  (36) 
56257

>  <smiles>  (36) 
COc1ccc(C[C@](C)(CO)NC(=O)c2cccc3cc[nH]c23)cc1

>  <inchikey>  (36) 
MFZOQTVMCFTJFC-UHFFFAOYSA-N

>  <distance_score>  (36) 
0.632093

>  <ref_mols>  (36) 
Z0101a,Z0827a

>  <ref_pdb>  (36) 
Z0101a

>  <HIPPO Compound ID>  (36) 
64791

>  <name>  (36) 
P56257

>  <inspiration_score>  (36) 
None

$$$$
P56264
     RDKit          3D

 24 26  0  0  0  0  0  0  0  0999 V2000
   -4.1592    7.2866  -20.7588 C   0  0  0  0  0  0  0  0  0  0  0  0
   -4.1481    5.7520  -20.6852 C   0  0  2  0  0  0  0  0  0  0  0  0
   -2.7437    5.2571  -20.2239 C   0  0  0  0  0  0  0  0  0  0  0  0
   -2.2623    5.9500  -19.0701 O   0  0  0  0  0  0  0  0  0  0  0  0
   -4.5085    5.0873  -22.0460 C   0  0  0  0  0  0  0  0  0  0  0  0
   -3.8929    5.6798  -23.2891 C   0  0  0  0  0  0  0  0  0  0  0  0
   -2.6165    5.2817  -23.7160 C   0  0  0  0  0  0  0  0  0  0  0  0
   -2.0545    5.8299  -24.8695 C   0  0  0  0  0  0  0  0  0  0  0  0
   -2.7689    6.7700  -25.6009 C   0  0  0  0  0  0  0  0  0  0  0  0
   -2.2296    7.2919  -26.7103 F   0  0  0  0  0  0  0  0  0  0  0  0
   -4.0357    7.1749  -25.2000 C   0  0  0  0  0  0  0  0  0  0  0  0
   -4.5978    6.6326  -24.0440 C   0  0  0  0  0  0  0  0  0  0  0  0
   -5.2009    5.3719  -19.7244 N   0  0  0  0  0  0  0  0  0  0  0  0
   -5.1199    5.0812  -18.2149 C   0  0  0  0  0  0  0  0  0  0  0  0
   -4.1956    5.0205  -17.5047 O   0  0  0  0  0  0  0  0  0  0  0  0
   -6.4633    4.8388  -17.6008 C   0  0  0  0  0  0  0  0  0  0  0  0
   -7.5628    4.2988  -18.2861 C   0  0  0  0  0  0  0  0  0  0  0  0
   -8.7558    4.0151  -17.6246 C   0  0  0  0  0  0  0  0  0  0  0  0
   -8.8784    4.2472  -16.2534 C   0  0  0  0  0  0  0  0  0  0  0  0
   -7.8184    4.8362  -15.5451 C   0  0  0  0  0  0  0  0  0  0  0  0
   -7.6366    5.2506  -14.1963 C   0  0  0  0  0  0  0  0  0  0  0  0
   -6.3684    5.7745  -14.0869 C   0  0  0  0  0  0  0  0  0  0  0  0
   -5.7618    5.6503  -15.3090 N   0  0  0  0  0  0  0  0  0  0  0  0
   -6.6378    5.1129  -16.2295 C   0  0  0  0  0  0  0  0  0  0  0  0
  2  1  1  6
  2  3  1  0
  3  4  1  0
  2  5  1  0
  5  6  1  0
  6  7  2  0
  7  8  1  0
  8  9  2  0
  9 10  1  0
  9 11  1  0
 11 12  2  0
  2 13  1  0
 13 14  1  0
 14 15  2  0
 14 16  1  0
 16 17  2  0
 17 18  1  0
 18 19  2  0
 19 20  1  0
 20 21  1  0
 21 22  2  0
 22 23  1  0
 23 24  1  0
 12  6  1  0
 24 16  1  0
 24 20  2  0
M  END
>  <energy_score>  (37) 
-18.137789

>  <alias>  (37) 
None

>  <HIPPO Pose ID>  (37) 
56264

>  <smiles>  (37) 
C[C@](CO)(Cc1ccc(F)cc1)NC(=O)c1cccc2cc[nH]c12

>  <inchikey>  (37) 
PVWNPFUPWZVGMP-UHFFFAOYSA-N

>  <distance_score>  (37) 
0.672309

>  <ref_mols>  (37) 
Z0101a,Z0827a

>  <ref_pdb>  (37) 
Z0101a

>  <HIPPO Compound ID>  (37) 
64798

>  <name>  (37) 
P56264

>  <inspiration_score>  (37) 
None

$$$$
P57300
     RDKit          3D

 23 25  0  0  0  0  0  0  0  0999 V2000
   -7.3325    6.7356  -13.9205 O   0  0  0  0  0  0  0  0  0  0  0  0
   -7.4739    5.5733  -14.0414 C   0  0  0  0  0  0  0  0  0  0  0  0
   -7.8699    4.4774  -12.9792 N   0  0  0  0  0  0  0  0  0  0  0  0
   -8.0662    4.5812  -11.6045 C   0  0  0  0  0  0  0  0  0  0  0  0
   -7.8682    5.8285  -10.9900 C   0  0  0  0  0  0  0  0  0  0  0  0
   -7.9777    5.9711   -9.6151 C   0  0  0  0  0  0  0  0  0  0  0  0
   -8.3050    4.8533   -8.8797 C   0  0  0  0  0  0  0  0  0  0  0  0
   -8.5479    3.6143   -9.4686 C   0  0  0  0  0  0  0  0  0  0  0  0
   -8.4177    3.4546  -10.8423 C   0  0  0  0  0  0  0  0  0  0  0  0
   -8.9697    2.6515   -8.3921 C   0  0  0  0  0  0  0  0  0  0  0  0
   -8.6401    3.3508   -7.1208 N   0  0  0  0  0  0  0  0  0  0  0  0
   -9.5199    3.0616   -6.0036 C   0  0  0  0  0  0  0  0  0  0  0  0
   -8.9131    3.4725   -4.6480 C   0  0  0  0  0  0  0  0  0  0  0  0
   -8.8753    4.9573   -4.2904 C   0  0  0  0  0  0  0  0  0  0  0  0
   -8.3913    5.1266   -2.8527 C   0  0  0  0  0  0  0  0  0  0  0  0
   -9.2694    4.6097   -1.6880 C   0  0  0  0  0  0  0  0  0  0  0  0
   -8.8710    5.8134   -0.9248 N   0  0  0  0  0  0  0  0  0  0  0  0
   -8.6255    6.5117   -2.2072 C   0  0  0  0  0  0  0  0  0  0  0  0
   -8.4637    4.7674   -7.4079 C   0  0  0  0  0  0  0  0  0  0  0  0
   -7.1707    4.8352  -15.3540 C   0  0  0  0  0  0  0  0  0  0  0  0
   -7.0244    5.6705  -16.4173 F   0  0  0  0  0  0  0  0  0  0  0  0
   -8.1465    3.9492  -15.6845 F   0  0  0  0  0  0  0  0  0  0  0  0
   -6.0049    4.1540  -15.2575 F   0  0  0  0  0  0  0  0  0  0  0  0
  1  2  2  0
  2  3  1  0
  3  4  1  0
  4  5  2  0
  5  6  1  0
  6  7  2  0
  7  8  1  0
  8  9  2  0
  8 10  1  0
 10 11  1  0
 11 12  1  0
 12 13  1  0
 13 14  1  0
 14 15  1  0
 15 16  1  0
 16 17  1  0
 17 18  1  0
 11 19  1  0
  2 20  1  0
 20 21  1  0
 20 22  1  0
 20 23  1  0
  9  4  1  0
 18 15  1  0
 19  7  1  0
M  END
>  <energy_score>  (38) 
-36.28457

>  <alias>  (38) 
None

>  <HIPPO Pose ID>  (38) 
57300

>  <smiles>  (38) 
O=C(Nc1ccc2c(c1)CN(CCCC1CNC1)C2)C(F)(F)F

>  <inchikey>  (38) 
FLKNWAFFRSIEQV-UHFFFAOYSA-N

>  <distance_score>  (38) 
0.893193

>  <ref_mols>  (38) 
Z3880a,Z0990a

>  <ref_pdb>  (38) 
Z3880a

>  <HIPPO Compound ID>  (38) 
60166

>  <name>  (38) 
P57300

>  <inspiration_score>  (38) 
None

$$$$
P58306
     RDKit          3D

 21 23  0  0  0  0  0  0  0  0999 V2000
   -8.2659    7.4320   -8.5807 C   0  0  0  0  0  0  0  0  0  0  0  0
   -6.9474    7.7881   -9.0469 N   0  0  0  0  0  0  0  0  0  0  0  0
   -5.9743    8.3688   -8.2837 C   0  0  0  0  0  0  0  0  0  0  0  0
   -4.8798    8.5848   -8.9770 N   0  0  0  0  0  0  0  0  0  0  0  0
   -5.1565    8.1244  -10.2362 C   0  0  0  0  0  0  0  0  0  0  0  0
   -6.4388    7.6186  -10.3135 C   0  0  0  0  0  0  0  0  0  0  0  0
   -7.1823    7.0205  -11.4547 C   0  0  0  0  0  0  0  0  0  0  0  0
   -7.0163    5.5081  -11.5163 C   0  0  0  0  0  0  0  0  0  0  0  0
   -7.8759    4.9900  -12.6523 C   0  0  0  0  0  0  0  0  0  0  0  0
   -8.9800    4.6540  -12.4922 O   0  0  0  0  0  0  0  0  0  0  0  0
   -7.0400    5.1033  -13.9508 N   0  0  0  0  0  0  0  0  0  0  0  0
   -7.4067    4.9238  -15.2761 C   0  0  0  0  0  0  0  0  0  0  0  0
   -8.6737    4.4860  -15.6566 C   0  0  0  0  0  0  0  0  0  0  0  0
   -9.0200    4.3263  -17.0187 C   0  0  0  0  0  0  0  0  0  0  0  0
   -8.1027    4.6095  -18.0332 C   0  0  0  0  0  0  0  0  0  0  0  0
   -6.8649    5.0484  -17.6308 C   0  0  0  0  0  0  0  0  0  0  0  0
   -5.7690    5.4341  -18.3952 N   0  0  0  0  0  0  0  0  0  0  0  0
   -4.7409    5.8211  -17.5296 C   0  0  0  0  0  0  0  0  0  0  0  0
   -3.6310    6.2307  -17.8110 O   0  0  0  0  0  0  0  0  0  0  0  0
   -5.2196    5.6747  -16.2263 N   0  0  0  0  0  0  0  0  0  0  0  0
   -6.5230    5.1980  -16.2880 C   0  0  0  0  0  0  0  0  0  0  0  0
  1  2  1  0
  2  3  1  0
  3  4  2  0
  4  5  1  0
  5  6  2  0
  6  7  1  0
  7  8  1  0
  8  9  1  0
  9 10  2  0
  9 11  1  0
 11 12  1  0
 12 13  2  0
 13 14  1  0
 14 15  2  0
 15 16  1  0
 16 17  1  0
 17 18  1  0
 18 19  2  0
 18 20  1  0
 20 21  1  0
  6  2  1  0
 21 12  1  0
 21 16  2  0
M  END
>  <energy_score>  (39) 
-28.900219

>  <alias>  (39) 
None

>  <HIPPO Pose ID>  (39) 
58306

>  <smiles>  (39) 
Cn1cncc1CCC(=O)Nc1cccc2[nH]c(=O)[nH]c12

>  <inchikey>  (39) 
SKDJHYMDJKHBLX-UHFFFAOYSA-N

>  <distance_score>  (39) 
0.996317

>  <ref_mols>  (39) 
Z1688a,Z4245a

>  <ref_pdb>  (39) 
Z1688a

>  <HIPPO Compound ID>  (39) 
68073

>  <name>  (39) 
P58306

>  <inspiration_score>  (39) 
None

$$$$
P59060
     RDKit          3D

 23 26  0  0  0  0  0  0  0  0999 V2000
   -9.0839    7.1035  -11.9339 O   0  0  0  0  0  0  0  0  0  0  0  0
   -8.3963    6.1608  -11.6282 C   0  0  0  0  0  0  0  0  0  0  0  0
   -7.9731    6.0379  -10.1398 C   0  0  0  0  0  0  0  0  0  0  0  0
   -6.6829    5.3778   -9.8119 C   0  0  0  0  0  0  0  0  0  0  0  0
   -5.5566    6.0023   -9.4127 C   0  0  0  0  0  0  0  0  0  0  0  0
   -4.1752    4.9158   -9.2442 S   0  0  0  0  0  0  0  0  0  0  0  0
   -5.1986    3.5983   -9.7140 C   0  0  0  0  0  0  0  0  0  0  0  0
   -4.9933    2.3396   -9.9753 N   0  0  0  0  0  0  0  0  0  0  0  0
   -6.2562    1.8939  -10.3092 C   0  0  0  0  0  0  0  0  0  0  0  0
   -7.1933    2.9129  -10.2848 C   0  0  0  0  0  0  0  0  0  0  0  0
   -6.4771    4.0141   -9.9367 N   0  0  0  0  0  0  0  0  0  0  0  0
   -7.9609    5.0440  -12.3990 N   0  0  0  0  0  0  0  0  0  0  0  0
   -6.5941    5.3552  -13.0722 C   0  0  0  0  0  0  0  0  0  0  0  0
   -6.5046    6.5868  -14.0225 C   0  0  0  0  0  0  0  0  0  0  0  0
   -7.3291    6.3652  -15.1989 N   0  0  0  0  0  0  0  0  0  0  0  0
   -6.7117    5.7805  -16.2954 C   0  0  0  0  0  0  0  0  0  0  0  0
   -5.3748    5.7081  -16.3455 N   0  0  0  0  0  0  0  0  0  0  0  0
   -4.8301    5.2112  -17.4671 C   0  0  0  0  0  0  0  0  0  0  0  0
   -5.5630    4.8026  -18.5476 C   0  0  0  0  0  0  0  0  0  0  0  0
   -6.9176    4.8987  -18.4090 C   0  0  0  0  0  0  0  0  0  0  0  0
   -7.4973    5.3783  -17.3026 N   0  0  0  0  0  0  0  0  0  0  0  0
   -8.5887    5.7230  -14.8399 C   0  0  0  0  0  0  0  0  0  0  0  0
   -8.3076    4.6211  -13.8037 C   0  0  0  0  0  0  0  0  0  0  0  0
  1  2  2  0
  2  3  1  0
  3  4  1  0
  4  5  2  0
  5  6  1  0
  6  7  1  0
  7  8  2  0
  8  9  1  0
  9 10  2  0
 10 11  1  0
  2 12  1  0
 12 13  1  0
 13 14  1  0
 14 15  1  0
 15 16  1  0
 16 17  2  0
 17 18  1  0
 18 19  2  0
 19 20  1  0
 20 21  2  0
 15 22  1  0
 22 23  1  0
 11  4  1  0
 23 12  1  0
 11  7  1  0
 21 16  1  0
M  END
>  <energy_score>  (40) 
22.462749

>  <alias>  (40) 
None

>  <HIPPO Pose ID>  (40) 
59060

>  <smiles>  (40) 
O=C(Cc1csc2nccn12)N1CCN(c2ncccn2)CC1

>  <inchikey>  (40) 
CNAFZPHZBPMNPE-UHFFFAOYSA-N

>  <distance_score>  (40) 
4.668338

>  <ref_mols>  (40) 
Z0945a,Z1495a

>  <ref_pdb>  (40) 
Z1495a

>  <HIPPO Compound ID>  (40) 
69166

>  <name>  (40) 
P59060

>  <inspiration_score>  (40) 
None

$$$$
P60390
     RDKit          3D

 19 21  0  0  0  0  0  0  0  0999 V2000
   -7.7882    5.9714  -13.1843 O   0  0  0  0  0  0  0  0  0  0  0  0
   -7.0850    5.0159  -13.4859 C   0  0  0  0  0  0  0  0  0  0  0  0
   -7.4459    4.0607  -14.6105 C   0  0  0  0  0  0  0  0  0  0  0  0
   -8.1330    4.7413  -15.7912 C   0  0  0  0  0  0  0  0  0  0  0  0
   -7.1562    5.1522  -16.8517 C   0  0  0  0  0  0  0  0  0  0  0  0
   -6.2104    6.1554  -16.8525 C   0  0  0  0  0  0  0  0  0  0  0  0
   -5.3977    6.2354  -17.9653 N   0  0  0  0  0  0  0  0  0  0  0  0
   -5.8185    5.3612  -18.8565 C   0  0  0  0  0  0  0  0  0  0  0  0
   -7.1314    4.3760  -18.3752 S   0  0  0  0  0  0  0  0  0  0  0  0
   -5.9502    4.6174  -12.8068 N   0  0  0  0  0  0  0  0  0  0  0  0
   -4.5026    4.9127  -12.8665 C   0  0  0  0  0  0  0  0  0  0  0  0
   -3.5632    3.8452  -13.6498 C   0  0  0  0  0  0  0  0  0  0  0  0
   -3.8309    4.7169  -14.7592 C   0  0  2  0  0  0  0  0  0  0  0  0
   -2.7225    5.5048  -15.3473 C   0  0  0  0  0  0  0  0  0  0  0  0
   -1.4903    5.9058  -14.8726 C   0  0  0  0  0  0  0  0  0  0  0  0
   -0.9088    6.6297  -15.9271 C   0  0  0  0  0  0  0  0  0  0  0  0
   -1.7105    6.7106  -16.9865 N   0  0  0  0  0  0  0  0  0  0  0  0
   -2.7999    6.0107  -16.6265 N   0  0  0  0  0  0  0  0  0  0  0  0
   -4.5514    5.4731  -13.5772 C   0  0  0  0  0  0  0  0  0  0  0  0
  1  2  2  0
  2  3  1  0
  3  4  1  0
  4  5  1  0
  5  6  2  0
  6  7  1  0
  7  8  2  0
  8  9  1  0
  2 10  1  0
 10 11  1  0
 11 12  1  0
 12 13  1  0
 13 14  1  1
 14 15  2  0
 15 16  1  0
 16 17  2  0
 17 18  1  0
 13 19  1  0
  9  5  1  0
 19 10  1  0
 18 14  1  0
M  END
>  <energy_score>  (41) 
452.448265

>  <alias>  (41) 
None

>  <HIPPO Pose ID>  (41) 
60390

>  <smiles>  (41) 
O=C(CCc1cncs1)N1CC[C@H](c2ccn[nH]2)C1

>  <inchikey>  (41) 
JUTQSHCFUHVWMC-UHFFFAOYSA-N

>  <distance_score>  (41) 
3.662649

>  <ref_mols>  (41) 
Z1098a,Z0673a,Z0673b,Z0788b

>  <ref_pdb>  (41) 
Z1098a

>  <HIPPO Compound ID>  (41) 
59541

>  <name>  (41) 
P60390

>  <inspiration_score>  (41) 
None

$$$$
P60443
     RDKit          3D

 14 15  0  0  0  0  0  0  0  0999 V2000
   -4.2018    7.0961  -12.8817 C   0  0  0  0  0  0  0  0  0  0  0  0
   -4.1351    6.2760  -14.0531 N   0  0  0  0  0  0  0  0  0  0  0  0
   -3.5458    4.8572  -14.2558 C   0  0  0  0  0  0  0  0  0  0  0  0
   -2.9557    4.1704  -13.5181 O   0  0  0  0  0  0  0  0  0  0  0  0
   -3.7747    4.4751  -15.7361 C   0  0  0  0  0  0  0  0  0  0  0  0
   -4.9771    5.1156  -16.3291 N   0  0  0  0  0  0  0  0  0  0  0  0
   -6.2165    4.5456  -15.7037 C   0  0  0  0  0  0  0  0  0  0  0  0
   -7.4398    5.4730  -15.8074 C   0  0  0  0  0  0  0  0  0  0  0  0
   -7.2534    6.5234  -16.8096 N   0  0  0  0  0  0  0  0  0  0  0  0
   -7.3452    5.9871  -18.1778 C   0  0  0  0  0  0  0  0  0  0  0  0
   -6.3420    4.8945  -18.5251 C   0  0  0  0  0  0  0  0  0  0  0  0
   -4.9906    5.1214  -17.8581 C   0  0  0  0  0  0  0  0  0  0  0  0
   -3.7805    4.7765  -18.7064 C   0  0  0  0  0  0  0  0  0  0  0  0
   -4.1245    6.2117  -18.4923 C   0  0  0  0  0  0  0  0  0  0  0  0
  1  2  1  0
  2  3  1  0
  3  4  2  0
  3  5  1  0
  5  6  1  0
  6  7  1  0
  7  8  1  0
  8  9  1  0
  9 10  1  0
 10 11  1  0
 11 12  1  0
 12 13  1  0
 13 14  1  0
 12  6  1  0
 14 12  1  0
M  END
>  <energy_score>  (42) 
-22.116758

>  <alias>  (42) 
None

>  <HIPPO Pose ID>  (42) 
60443

>  <smiles>  (42) 
CNC(=O)CN1CCNCCC12CC2

>  <inchikey>  (42) 
WWJAZDMLKRMSEL-UHFFFAOYSA-N

>  <distance_score>  (42) 
2.608206

>  <ref_mols>  (42) 
Z0917a,Z0719a

>  <ref_pdb>  (42) 
Z0719a

>  <HIPPO Compound ID>  (42) 
59959

>  <name>  (42) 
P60443

>  <inspiration_score>  (42) 
None

$$$$
P60858
     RDKit          3D

 14 15  0  0  0  0  0  0  0  0999 V2000
   -1.9389    4.5291  -18.9999 C   0  0  0  0  0  0  0  0  0  0  0  0
   -2.7545    5.5638  -19.2372 C   0  0  0  0  0  0  0  0  0  0  0  0
   -2.1255    7.3200  -19.1399 Br  0  0  0  0  0  0  0  0  0  0  0  0
   -4.2126    5.4195  -19.5744 C   0  0  0  0  0  0  0  0  0  0  0  0
   -4.9597    5.5663  -18.3480 N   0  0  0  0  0  0  0  0  0  0  0  0
   -6.1903    4.9881  -18.1265 C   0  0  0  0  0  0  0  0  0  0  0  0
   -7.0167    4.5077  -19.1402 C   0  0  0  0  0  0  0  0  0  0  0  0
   -8.2599    3.9820  -18.8364 C   0  0  0  0  0  0  0  0  0  0  0  0
   -8.7712    3.8706  -17.5998 N   0  0  0  0  0  0  0  0  0  0  0  0
   -7.9845    4.3540  -16.6043 C   0  0  0  0  0  0  0  0  0  0  0  0
   -8.3510    4.3946  -15.2336 C   0  0  0  0  0  0  0  0  0  0  0  0
   -7.3652    4.9150  -14.4299 C   0  0  0  0  0  0  0  0  0  0  0  0
   -6.0009    5.3961  -15.3332 S   0  0  0  0  0  0  0  0  0  0  0  0
   -6.7212    4.8965  -16.8245 C   0  0  0  0  0  0  0  0  0  0  0  0
  1  2  2  0
  2  3  1  0
  2  4  1  0
  4  5  1  0
  5  6  1  0
  6  7  2  0
  7  8  1  0
  8  9  2  0
  9 10  1  0
 10 11  1  0
 11 12  2  0
 12 13  1  0
 13 14  1  0
 14  6  1  0
 14 10  2  0
M  END
>  <energy_score>  (43) 
-30.120937

>  <alias>  (43) 
None

>  <HIPPO Pose ID>  (43) 
60858

>  <smiles>  (43) 
C=C(Br)CNc1ccnc2ccsc12

>  <inchikey>  (43) 
HONZPOPPNAQRJH-UHFFFAOYSA-N

>  <distance_score>  (43) 
0.806355

>  <ref_mols>  (43) 
Z0089a,Z3515a

>  <ref_pdb>  (43) 
Z3515a

>  <HIPPO Compound ID>  (43) 
108373

>  <name>  (43) 
P60858

>  <inspiration_score>  (43) 
None

$$$$
P60864
     RDKit          3D

 15 16  0  0  0  0  0  0  0  0999 V2000
   -2.6475    6.9705  -19.5304 C   0  0  0  0  0  0  0  0  0  0  0  0
   -2.8443    5.7019  -18.6917 C   0  0  0  0  0  0  0  0  0  0  0  0
   -1.7735    4.6802  -19.0820 C   0  0  0  0  0  0  0  0  0  0  0  0
   -2.6768    6.0463  -17.2030 C   0  0  0  0  0  0  0  0  0  0  0  0
   -4.2063    5.0427  -18.9662 C   0  0  0  0  0  0  0  0  0  0  0  0
   -5.3226    5.9269  -18.6540 N   0  0  0  0  0  0  0  0  0  0  0  0
   -6.4434    5.1794  -18.2199 C   0  0  0  0  0  0  0  0  0  0  0  0
   -7.2240    4.4732  -19.1336 C   0  0  0  0  0  0  0  0  0  0  0  0
   -8.3479    3.8025  -18.6962 C   0  0  0  0  0  0  0  0  0  0  0  0
   -8.7555    3.7234  -17.4185 N   0  0  0  0  0  0  0  0  0  0  0  0
   -7.9597    4.3545  -16.5139 C   0  0  0  0  0  0  0  0  0  0  0  0
   -8.1997    4.3989  -15.1124 C   0  0  0  0  0  0  0  0  0  0  0  0
   -7.2203    5.0689  -14.4209 C   0  0  0  0  0  0  0  0  0  0  0  0
   -6.0289    5.6960  -15.4644 S   0  0  0  0  0  0  0  0  0  0  0  0
   -6.8105    5.0628  -16.8665 C   0  0  0  0  0  0  0  0  0  0  0  0
  1  2  1  0
  2  3  1  0
  2  4  1  0
  2  5  1  0
  5  6  1  0
  6  7  1  0
  7  8  2  0
  8  9  1  0
  9 10  2  0
 10 11  1  0
 11 12  1  0
 12 13  2  0
 13 14  1  0
 14 15  1  0
 15  7  1  0
 15 11  2  0
M  END
>  <energy_score>  (44) 
-28.516185

>  <alias>  (44) 
None

>  <HIPPO Pose ID>  (44) 
60864

>  <smiles>  (44) 
CC(C)(C)CNc1ccnc2ccsc12

>  <inchikey>  (44) 
KVVPNFQDRHKSIT-UHFFFAOYSA-N

>  <distance_score>  (44) 
0.656819

>  <ref_mols>  (44) 
Z0089a,Z3515a

>  <ref_pdb>  (44) 
Z3515a

>  <HIPPO Compound ID>  (44) 
108379

>  <name>  (44) 
P60864

>  <inspiration_score>  (44) 
None

$$$$
P60865
     RDKit          3D

 15 16  0  0  0  0  0  0  0  0999 V2000
   -3.1587    4.6267  -20.0236 C   0  0  0  0  0  0  0  0  0  0  0  0
   -3.6364    5.8334  -19.2359 C   0  0  0  0  0  0  0  0  0  0  0  0
   -4.3136    6.8648  -20.1491 C   0  0  0  0  0  0  0  0  0  0  0  0
   -2.3173    6.3994  -18.6483 C   0  0  0  0  0  0  0  0  0  0  0  0
   -2.5428    7.9099  -17.7531 Cl  0  0  0  0  0  0  0  0  0  0  0  0
   -4.5114    5.4244  -18.1306 N   0  0  0  0  0  0  0  0  0  0  0  0
   -5.8139    4.9840  -18.0892 C   0  0  0  0  0  0  0  0  0  0  0  0
   -6.5728    4.5667  -19.1779 C   0  0  0  0  0  0  0  0  0  0  0  0
   -7.8733    4.1120  -19.0034 C   0  0  0  0  0  0  0  0  0  0  0  0
   -8.5106    4.0076  -17.8264 N   0  0  0  0  0  0  0  0  0  0  0  0
   -7.7923    4.4161  -16.7509 C   0  0  0  0  0  0  0  0  0  0  0  0
   -8.2732    4.4122  -15.4120 C   0  0  0  0  0  0  0  0  0  0  0  0
   -7.3429    4.8680  -14.5098 C   0  0  0  0  0  0  0  0  0  0  0  0
   -5.8925    5.3352  -15.2763 S   0  0  0  0  0  0  0  0  0  0  0  0
   -6.4875    4.8976  -16.8443 C   0  0  0  0  0  0  0  0  0  0  0  0
  1  2  1  0
  2  3  1  0
  2  4  1  0
  4  5  1  0
  2  6  1  0
  6  7  1  0
  7  8  2  0
  8  9  1  0
  9 10  2  0
 10 11  1  0
 11 12  1  0
 12 13  2  0
 13 14  1  0
 14 15  1  0
 15  7  1  0
 15 11  2  0
M  END
>  <energy_score>  (45) 
-30.472984

>  <alias>  (45) 
None

>  <HIPPO Pose ID>  (45) 
60865

>  <smiles>  (45) 
CC(C)(CCl)Nc1ccnc2ccsc12

>  <inchikey>  (45) 
FQPYZRHCGIEGGC-UHFFFAOYSA-N

>  <distance_score>  (45) 
0.975945

>  <ref_mols>  (45) 
Z0089a,Z3515a

>  <ref_pdb>  (45) 
Z3515a

>  <HIPPO Compound ID>  (45) 
108381

>  <name>  (45) 
P60865

>  <inspiration_score>  (45) 
None

$$$$
P60867
     RDKit          3D

 15 16  0  0  0  0  0  0  0  0999 V2000
   -2.5071    7.5861  -17.9382 C   0  0  0  0  0  0  0  0  0  0  0  0
   -2.4180    6.3335  -18.7968 C   0  0  0  0  0  0  0  0  0  0  0  0
   -1.5356    5.2834  -18.1120 C   0  0  0  0  0  0  0  0  0  0  0  0
   -3.8244    5.8267  -19.1896 C   0  0  1  0  0  0  0  0  0  0  0  0
   -3.6135    4.8516  -20.3168 C   0  0  0  0  0  0  0  0  0  0  0  0
   -4.5072    5.2044  -18.0647 N   0  0  0  0  0  0  0  0  0  0  0  0
   -5.8686    4.9545  -17.9722 C   0  0  0  0  0  0  0  0  0  0  0  0
   -6.7227    4.7197  -19.0500 C   0  0  0  0  0  0  0  0  0  0  0  0
   -8.0394    4.3362  -18.8385 C   0  0  0  0  0  0  0  0  0  0  0  0
   -8.6191    4.1830  -17.6377 N   0  0  0  0  0  0  0  0  0  0  0  0
   -7.8241    4.4732  -16.5774 C   0  0  0  0  0  0  0  0  0  0  0  0
   -8.2448    4.4311  -15.2196 C   0  0  0  0  0  0  0  0  0  0  0  0
   -7.2467    4.7756  -14.3406 C   0  0  0  0  0  0  0  0  0  0  0  0
   -5.7989    5.1749  -15.1493 S   0  0  0  0  0  0  0  0  0  0  0  0
   -6.4900    4.8566  -16.7050 C   0  0  0  0  0  0  0  0  0  0  0  0
  1  2  1  0
  2  3  1  0
  2  4  1  0
  4  5  1  6
  4  6  1  0
  6  7  1  0
  7  8  2  0
  8  9  1  0
  9 10  2  0
 10 11  1  0
 11 12  1  0
 12 13  2  0
 13 14  1  0
 14 15  1  0
 15  7  1  0
 15 11  2  0
M  END
>  <energy_score>  (46) 
-37.640272

>  <alias>  (46) 
None

>  <HIPPO Pose ID>  (46) 
60867

>  <smiles>  (46) 
CC(C)[C@@H](C)Nc1ccnc2ccsc12

>  <inchikey>  (46) 
DPYOJOSEVBEMBW-UHFFFAOYSA-N

>  <distance_score>  (46) 
0.83344

>  <ref_mols>  (46) 
Z0089a,Z3515a

>  <ref_pdb>  (46) 
Z3515a

>  <HIPPO Compound ID>  (46) 
108383

>  <name>  (46) 
P60867

>  <inspiration_score>  (46) 
None

$$$$
P60869
     RDKit          3D

 14 15  0  0  0  0  0  0  0  0999 V2000
   -2.0107    4.5114  -19.1996 C   0  0  0  0  0  0  0  0  0  0  0  0
   -3.0793    5.4517  -18.6589 C   0  0  0  0  0  0  0  0  0  0  0  0
   -2.5275    6.8789  -18.6186 C   0  0  0  0  0  0  0  0  0  0  0  0
   -4.3371    5.3728  -19.5322 C   0  0  0  0  0  0  0  0  0  0  0  0
   -5.4598    6.0396  -18.8736 N   0  0  0  0  0  0  0  0  0  0  0  0
   -6.4270    5.1588  -18.3332 C   0  0  0  0  0  0  0  0  0  0  0  0
   -7.2366    4.3945  -19.1752 C   0  0  0  0  0  0  0  0  0  0  0  0
   -8.3032    3.6923  -18.6535 C   0  0  0  0  0  0  0  0  0  0  0  0
   -8.6288    3.6343  -17.3529 N   0  0  0  0  0  0  0  0  0  0  0  0
   -7.8007    4.3147  -16.5156 C   0  0  0  0  0  0  0  0  0  0  0  0
   -7.9552    4.3747  -15.1019 C   0  0  0  0  0  0  0  0  0  0  0  0
   -6.9709    5.1123  -14.4904 C   0  0  0  0  0  0  0  0  0  0  0  0
   -5.8775    5.7735  -15.6206 S   0  0  0  0  0  0  0  0  0  0  0  0
   -6.7050    5.0612  -16.9568 C   0  0  0  0  0  0  0  0  0  0  0  0
  1  2  1  0
  2  3  1  0
  2  4  1  0
  4  5  1  0
  5  6  1  0
  6  7  2  0
  7  8  1  0
  8  9  2  0
  9 10  1  0
 10 11  1  0
 11 12  2  0
 12 13  1  0
 13 14  1  0
 14  6  1  0
 14 10  2  0
M  END
>  <energy_score>  (47) 
-114.6109

>  <alias>  (47) 
None

>  <HIPPO Pose ID>  (47) 
60869

>  <smiles>  (47) 
CC(C)CNc1ccnc2ccsc12

>  <inchikey>  (47) 
DQRUAVNAEHNBMF-UHFFFAOYSA-N

>  <distance_score>  (47) 
0.672357

>  <ref_mols>  (47) 
Z0089a,Z3515a

>  <ref_pdb>  (47) 
Z3515a

>  <HIPPO Compound ID>  (47) 
108385

>  <name>  (47) 
P60869

>  <inspiration_score>  (47) 
None

$$$$
P60878
     RDKit          3D

 14 15  0  0  0  0  0  0  0  0999 V2000
   -0.3296    6.6789  -18.9981 C   0  0  0  0  0  0  0  0  0  0  0  0
   -1.7360    6.3315  -19.2017 C   0  0  0  0  0  0  0  0  0  0  0  0
   -2.8799    6.0071  -19.3681 C   0  0  0  0  0  0  0  0  0  0  0  0
   -4.2795    5.6108  -19.5523 C   0  0  0  0  0  0  0  0  0  0  0  0
   -4.7646    5.0859  -18.3006 N   0  0  0  0  0  0  0  0  0  0  0  0
   -6.1004    4.7736  -18.1131 C   0  0  0  0  0  0  0  0  0  0  0  0
   -6.9510    4.3683  -19.1416 C   0  0  0  0  0  0  0  0  0  0  0  0
   -8.2573    4.0074  -18.8628 C   0  0  0  0  0  0  0  0  0  0  0  0
   -8.8079    3.9811  -17.6386 N   0  0  0  0  0  0  0  0  0  0  0  0
   -7.9945    4.3851  -16.6294 C   0  0  0  0  0  0  0  0  0  0  0  0
   -8.3773    4.4524  -15.2640 C   0  0  0  0  0  0  0  0  0  0  0  0
   -7.3652    4.8942  -14.4459 C   0  0  0  0  0  0  0  0  0  0  0  0
   -5.9505    5.2566  -15.3277 S   0  0  0  0  0  0  0  0  0  0  0  0
   -6.6756    4.7863  -16.8261 C   0  0  0  0  0  0  0  0  0  0  0  0
  1  2  1  0
  2  3  3  0
  3  4  1  0
  4  5  1  0
  5  6  1  0
  6  7  2  0
  7  8  1  0
  8  9  2  0
  9 10  1  0
 10 11  1  0
 11 12  2  0
 12 13  1  0
 13 14  1  0
 14  6  1  0
 14 10  2  0
M  END
>  <energy_score>  (48) 
-23.841234

>  <alias>  (48) 
None

>  <HIPPO Pose ID>  (48) 
60878

>  <smiles>  (48) 
CC#CCNc1ccnc2ccsc12

>  <inchikey>  (48) 
KGTBMRSXKDMOPW-UHFFFAOYSA-N

>  <distance_score>  (48) 
0.826844

>  <ref_mols>  (48) 
Z0089a,Z3515a

>  <ref_pdb>  (48) 
Z3515a

>  <HIPPO Compound ID>  (48) 
108396

>  <name>  (48) 
P60878

>  <inspiration_score>  (48) 
None

$$$$
P60881
     RDKit          3D

 15 16  0  0  0  0  0  0  0  0999 V2000
   -0.7165    8.1074  -18.0864 C   0  0  0  0  0  0  0  0  0  0  0  0
   -0.9528    7.4790  -19.4510 C   0  0  0  0  0  0  0  0  0  0  0  0
   -2.3530    6.8830  -19.6147 C   0  0  0  0  0  0  0  0  0  0  0  0
   -2.6179    5.7023  -18.6827 C   0  0  0  0  0  0  0  0  0  0  0  0
   -3.9359    4.9924  -18.9768 C   0  0  0  0  0  0  0  0  0  0  0  0
   -5.0715    5.8664  -18.7046 N   0  0  0  0  0  0  0  0  0  0  0  0
   -6.2193    5.1499  -18.2974 C   0  0  0  0  0  0  0  0  0  0  0  0
   -7.0232    4.5011  -19.2327 C   0  0  0  0  0  0  0  0  0  0  0  0
   -8.1850    3.8752  -18.8236 C   0  0  0  0  0  0  0  0  0  0  0  0
   -8.6105    3.7846  -17.5527 N   0  0  0  0  0  0  0  0  0  0  0  0
   -7.8024    4.3668  -16.6267 C   0  0  0  0  0  0  0  0  0  0  0  0
   -8.0622    4.3907  -15.2277 C   0  0  0  0  0  0  0  0  0  0  0  0
   -7.0722    5.0212  -14.5132 C   0  0  0  0  0  0  0  0  0  0  0  0
   -5.8425    5.6269  -15.5294 S   0  0  0  0  0  0  0  0  0  0  0  0
   -6.6192    5.0334  -16.9519 C   0  0  0  0  0  0  0  0  0  0  0  0
  1  2  1  0
  2  3  1  0
  3  4  1  0
  4  5  1  0
  5  6  1  0
  6  7  1  0
  7  8  2  0
  8  9  1  0
  9 10  2  0
 10 11  1  0
 11 12  1  0
 12 13  2  0
 13 14  1  0
 14 15  1  0
 15  7  1  0
 15 11  2  0
M  END
>  <energy_score>  (49) 
-20.638827

>  <alias>  (49) 
None

>  <HIPPO Pose ID>  (49) 
60881

>  <smiles>  (49) 
CCCCCNc1ccnc2ccsc12

>  <inchikey>  (49) 
JKOJGNKTCVRBMD-UHFFFAOYSA-N

>  <distance_score>  (49) 
0.626284

>  <ref_mols>  (49) 
Z0089a,Z3515a

>  <ref_pdb>  (49) 
Z3515a

>  <HIPPO Compound ID>  (49) 
108399

>  <name>  (49) 
P60881

>  <inspiration_score>  (49) 
None

$$$$
P60885
     RDKit          3D

 13 14  0  0  0  0  0  0  0  0999 V2000
   -1.7428    4.8597  -18.8929 C   0  0  0  0  0  0  0  0  0  0  0  0
   -2.8710    5.1045  -19.2168 C   0  0  0  0  0  0  0  0  0  0  0  0
   -4.2618    5.3708  -19.5899 C   0  0  0  0  0  0  0  0  0  0  0  0
   -5.0198    5.6548  -18.3954 N   0  0  0  0  0  0  0  0  0  0  0  0
   -6.2252    5.0306  -18.1225 C   0  0  0  0  0  0  0  0  0  0  0  0
   -7.0792    4.5347  -19.1078 C   0  0  0  0  0  0  0  0  0  0  0  0
   -8.2992    3.9806  -18.7654 C   0  0  0  0  0  0  0  0  0  0  0  0
   -8.7666    3.8594  -17.5135 N   0  0  0  0  0  0  0  0  0  0  0  0
   -7.9581    4.3606  -16.5442 C   0  0  0  0  0  0  0  0  0  0  0  0
   -8.2855    4.4006  -15.1634 C   0  0  0  0  0  0  0  0  0  0  0  0
   -7.2843    4.9393  -14.3914 C   0  0  0  0  0  0  0  0  0  0  0  0
   -5.9553    5.4392  -15.3362 S   0  0  0  0  0  0  0  0  0  0  0  0
   -6.7120    4.9268  -16.8043 C   0  0  0  0  0  0  0  0  0  0  0  0
  1  2  3  0
  2  3  1  0
  3  4  1  0
  4  5  1  0
  5  6  2  0
  6  7  1  0
  7  8  2  0
  8  9  1  0
  9 10  1  0
 10 11  2  0
 11 12  1  0
 12 13  1  0
 13  5  1  0
 13  9  2  0
M  END
>  <energy_score>  (50) 
-21.946898

>  <alias>  (50) 
None

>  <HIPPO Pose ID>  (50) 
60885

>  <smiles>  (50) 
C#CCNc1ccnc2ccsc12

>  <inchikey>  (50) 
ODAARTYSKDMQEJ-UHFFFAOYSA-N

>  <distance_score>  (50) 
0.866353

>  <ref_mols>  (50) 
Z0089a,Z3515a

>  <ref_pdb>  (50) 
Z3515a

>  <HIPPO Compound ID>  (50) 
108403

>  <name>  (50) 
P60885

>  <inspiration_score>  (50) 
None

$$$$
P60891
     RDKit          3D

 15 16  0  0  0  0  0  0  0  0999 V2000
   -4.1023    6.3808  -20.8001 C   0  0  0  0  0  0  0  0  0  0  0  0
   -4.3149    5.4309  -19.6160 C   0  0  2  0  0  0  0  0  0  0  0  0
   -5.3086    6.0217  -18.6931 N   0  0  0  0  0  0  0  0  0  0  0  0
   -6.3231    5.1469  -18.2476 C   0  0  0  0  0  0  0  0  0  0  0  0
   -7.1596    4.4789  -19.1433 C   0  0  0  0  0  0  0  0  0  0  0  0
   -8.2693    3.7999  -18.6799 C   0  0  0  0  0  0  0  0  0  0  0  0
   -8.6271    3.6958  -17.3909 N   0  0  0  0  0  0  0  0  0  0  0  0
   -7.8022    4.3158  -16.5052 C   0  0  0  0  0  0  0  0  0  0  0  0
   -8.0060    4.3539  -15.0975 C   0  0  0  0  0  0  0  0  0  0  0  0
   -7.0132    5.0322  -14.4326 C   0  0  0  0  0  0  0  0  0  0  0  0
   -5.8502    5.6678  -15.5059 S   0  0  0  0  0  0  0  0  0  0  0  0
   -6.6604    5.0229  -16.8867 C   0  0  0  0  0  0  0  0  0  0  0  0
   -2.9755    5.1491  -18.9222 C   0  0  0  0  0  0  0  0  0  0  0  0
   -2.2543    6.2936  -18.7884 F   0  0  0  0  0  0  0  0  0  0  0  0
   -2.2485    4.3192  -19.7229 F   0  0  0  0  0  0  0  0  0  0  0  0
  2  1  1  6
  2  3  1  0
  3  4  1  0
  4  5  2  0
  5  6  1  0
  6  7  2  0
  7  8  1  0
  8  9  1  0
  9 10  2  0
 10 11  1  0
 11 12  1  0
  2 13  1  0
 13 14  1  0
 13 15  1  0
 12  4  1  0
 12  8  2  0
M  END
>  <energy_score>  (51) 
-24.873526

>  <alias>  (51) 
None

>  <HIPPO Pose ID>  (51) 
60891

>  <smiles>  (51) 
C[C@H](Nc1ccnc2ccsc12)C(F)F

>  <inchikey>  (51) 
AUXIMAVBHFYSOM-UHFFFAOYSA-N

>  <distance_score>  (51) 
0.615313

>  <ref_mols>  (51) 
Z0089a,Z3515a

>  <ref_pdb>  (51) 
Z3515a

>  <HIPPO Compound ID>  (51) 
108410

>  <name>  (51) 
P60891

>  <inspiration_score>  (51) 
None

$$$$
P61241
     RDKit          3D

 17 18  0  0  0  0  0  0  0  0999 V2000
   -2.6192    4.4242  -15.5902 F   0  0  0  0  0  0  0  0  0  0  0  0
   -2.3839    5.4826  -16.4026 C   0  0  0  0  0  0  0  0  0  0  0  0
   -1.0775    5.8126  -16.2603 F   0  0  0  0  0  0  0  0  0  0  0  0
   -3.1121    6.5226  -15.9364 F   0  0  0  0  0  0  0  0  0  0  0  0
   -2.7167    5.1447  -17.8709 C   0  0  0  0  0  0  0  0  0  0  0  0
   -2.8225    6.3038  -18.8090 N   0  0  0  0  0  0  0  0  0  0  0  0
   -3.5985    5.9468  -20.0118 C   0  0  0  0  0  0  0  0  0  0  0  0
   -5.0508    6.4625  -20.0091 C   0  0  0  0  0  0  0  0  0  0  0  0
   -5.8300    5.9226  -18.8635 C   0  0  0  0  0  0  0  0  0  0  0  0
   -5.5253    6.0959  -17.5944 N   0  0  0  0  0  0  0  0  0  0  0  0
   -6.4901    5.4376  -16.8867 C   0  0  0  0  0  0  0  0  0  0  0  0
   -6.6332    5.2998  -15.5019 C   0  0  0  0  0  0  0  0  0  0  0  0
   -7.7829    4.6727  -15.0201 C   0  0  0  0  0  0  0  0  0  0  0  0
   -8.7511    4.1933  -15.9051 C   0  0  0  0  0  0  0  0  0  0  0  0
   -8.5960    4.2665  -17.2919 C   0  0  0  0  0  0  0  0  0  0  0  0
   -7.4429    4.9006  -17.7399 C   0  0  0  0  0  0  0  0  0  0  0  0
   -6.9823    5.1930  -18.9961 N   0  0  0  0  0  0  0  0  0  0  0  0
  1  2  1  0
  2  3  1  0
  2  4  1  0
  2  5  1  0
  5  6  1  0
  6  7  1  0
  7  8  1  0
  8  9  1  0
  9 10  2  0
 10 11  1  0
 11 12  2  0
 12 13  1  0
 13 14  2  0
 14 15  1  0
 15 16  2  0
 16 17  1  0
 17  9  1  0
 16 11  1  0
M  END
>  <energy_score>  (52) 
-16.926728

>  <alias>  (52) 
None

>  <HIPPO Pose ID>  (52) 
61241

>  <smiles>  (52) 
FC(F)(F)CNCCc1nc2ccccc2[nH]1

>  <inchikey>  (52) 
MDHIDMWPVSUSIH-UHFFFAOYSA-N

>  <distance_score>  (52) 
0.806602

>  <ref_mols>  (52) 
Z3880a,Z0472a

>  <ref_pdb>  (52) 
Z3880a

>  <HIPPO Compound ID>  (52) 
108828

>  <name>  (52) 
P61241

>  <inspiration_score>  (52) 
None

$$$$
P64483
     RDKit          3D

 23 25  0  0  0  0  0  0  0  0999 V2000
   -3.3882    9.3516  -17.5084 C   0  0  0  0  0  0  0  0  0  0  0  0
   -2.8074    8.1347  -16.7933 C   0  0  2  0  0  0  0  0  0  0  0  0
   -1.6122    7.5691  -17.5695 C   0  0  0  0  0  0  0  0  0  0  0  0
   -0.9032    6.4351  -16.8201 C   0  0  0  0  0  0  0  0  0  0  0  0
    0.4469    6.1115  -17.4157 C   0  0  0  0  0  0  0  0  0  0  0  0
    0.5721    5.6664  -18.7343 C   0  0  0  0  0  0  0  0  0  0  0  0
    1.8375    5.3798  -19.2261 C   0  0  0  0  0  0  0  0  0  0  0  0
    2.9721    5.4987  -18.5036 N   0  0  0  0  0  0  0  0  0  0  0  0
    2.8288    5.9182  -17.2289 C   0  0  0  0  0  0  0  0  0  0  0  0
    1.6084    6.2318  -16.6484 C   0  0  0  0  0  0  0  0  0  0  0  0
   -3.8441    7.1498  -16.5955 N   0  0  0  0  0  0  0  0  0  0  0  0
   -4.2168    6.3262  -15.3485 C   0  0  0  0  0  0  0  0  0  0  0  0
   -3.6984    6.2558  -14.3072 O   0  0  0  0  0  0  0  0  0  0  0  0
   -5.4960    5.5719  -15.6290 C   0  0  0  0  0  0  0  0  0  0  0  0
   -6.1697    4.9291  -14.6022 C   0  0  0  0  0  0  0  0  0  0  0  0
   -7.4152    4.3729  -14.8859 C   0  0  0  0  0  0  0  0  0  0  0  0
   -7.9583    4.4751  -16.1690 C   0  0  0  0  0  0  0  0  0  0  0  0
   -7.1523    5.0532  -17.1601 C   0  0  0  0  0  0  0  0  0  0  0  0
   -5.9542    5.6464  -16.9086 N   0  0  0  0  0  0  0  0  0  0  0  0
   -7.6386    5.1164  -18.5816 C   0  0  0  0  0  0  0  0  0  0  0  0
   -8.8859    4.2815  -18.8387 C   0  0  0  0  0  0  0  0  0  0  0  0
   -9.8522    4.3222  -17.6738 C   0  0  0  0  0  0  0  0  0  0  0  0
   -9.1970    3.8851  -16.4477 N   0  0  0  0  0  0  0  0  0  0  0  0
  2  1  1  6
  2  3  1  0
  3  4  1  0
  4  5  1  0
  5  6  2  0
  6  7  1  0
  7  8  2  0
  8  9  1  0
  9 10  2  0
  2 11  1  0
 11 12  1  0
 12 13  2  0
 12 14  1  0
 14 15  2  0
 15 16  1  0
 16 17  2  0
 17 18  1  0
 18 19  2  0
 18 20  1  0
 20 21  1  0
 21 22  1  0
 22 23  1  0
 10  5  1  0
 19 14  1  0
 23 17  1  0
M  END
>  <energy_score>  (53) 
-11.076314

>  <alias>  (53) 
None

>  <HIPPO Pose ID>  (53) 
64483

>  <smiles>  (53) 
C[C@H](CCc1ccncc1)NC(=O)c1ccc2c(n1)CCCN2

>  <inchikey>  (53) 
ABCCHUVOZOZXSJ-UHFFFAOYSA-N

>  <distance_score>  (53) 
0.330028

>  <ref_mols>  (53) 
Z0788b,Z0455a

>  <ref_pdb>  (53) 
Z0455a

>  <HIPPO Compound ID>  (53) 
112762

>  <name>  (53) 
P64483

>  <inspiration_score>  (53) 
None

$$$$
P65060
     RDKit          3D

 21 23  0  0  0  0  0  0  0  0999 V2000
   -1.7580    4.4378  -19.2634 C   0  0  0  0  0  0  0  0  0  0  0  0
   -2.6421    5.6417  -19.5532 C   0  0  2  0  0  0  0  0  0  0  0  0
   -2.2173    6.9629  -18.9029 C   0  0  0  0  0  0  0  0  0  0  0  0
   -0.9254    7.4831  -19.4362 C   0  0  0  0  0  0  0  0  0  0  0  0
    0.2956    7.5822  -18.8038 C   0  0  0  0  0  0  0  0  0  0  0  0
    1.1420    8.1108  -19.7371 N   0  0  0  0  0  0  0  0  0  0  0  0
    0.4201    8.3161  -20.8776 C   0  0  0  0  0  0  0  0  0  0  0  0
   -0.8316    7.9495  -20.7276 N   0  0  0  0  0  0  0  0  0  0  0  0
   -4.0366    5.3178  -19.3257 N   0  0  0  0  0  0  0  0  0  0  0  0
   -4.8618    5.0959  -18.2808 C   0  0  0  0  0  0  0  0  0  0  0  0
   -6.1015    4.9275  -18.7626 N   0  0  0  0  0  0  0  0  0  0  0  0
   -7.1363    4.6478  -17.9881 C   0  0  0  0  0  0  0  0  0  0  0  0
   -8.3064    4.4477  -18.5788 N   0  0  0  0  0  0  0  0  0  0  0  0
   -9.3747    4.1519  -17.8299 C   0  0  0  0  0  0  0  0  0  0  0  0
   -9.3154    4.0435  -16.4601 C   0  0  0  0  0  0  0  0  0  0  0  0
   -8.1078    4.2634  -15.8229 C   0  0  0  0  0  0  0  0  0  0  0  0
   -6.9901    4.5679  -16.6012 C   0  0  0  0  0  0  0  0  0  0  0  0
   -5.7199    4.7644  -16.0592 C   0  0  0  0  0  0  0  0  0  0  0  0
   -4.6312    5.0170  -16.9139 C   0  0  0  0  0  0  0  0  0  0  0  0
   -3.3520    5.1533  -16.2988 C   0  0  0  0  0  0  0  0  0  0  0  0
   -2.3434    5.2597  -15.7318 N   0  0  0  0  0  0  0  0  0  0  0  0
  2  1  1  1
  2  3  1  0
  3  4  1  0
  4  5  2  0
  5  6  1  0
  6  7  1  0
  7  8  2  0
  2  9  1  0
  9 10  1  0
 10 11  2  0
 11 12  1  0
 12 13  2  0
 13 14  1  0
 14 15  2  0
 15 16  1  0
 16 17  2  0
 17 18  1  0
 18 19  2  0
 19 20  1  0
 20 21  3  0
  8  4  1  0
 19 10  1  0
 17 12  1  0
M  END
>  <energy_score>  (54) 
-12.699866

>  <alias>  (54) 
None

>  <HIPPO Pose ID>  (54) 
65060

>  <smiles>  (54) 
C[C@H](Cc1c[nH]cn1)Nc1nc2ncccc2cc1C#N

>  <inchikey>  (54) 
XYOFFROFSMOCNR-UHFFFAOYSA-N

>  <distance_score>  (54) 
0.959985

>  <ref_mols>  (54) 
Z0719a,Z0089a

>  <ref_pdb>  (54) 
Z0089a

>  <HIPPO Compound ID>  (54) 
48749

>  <name>  (54) 
P65060

>  <inspiration_score>  (54) 
None

$$$$
P65140
     RDKit          3D

 19 20  0  0  0  0  0  0  0  0999 V2000
   -8.1093    4.7205  -16.9985 C   0  0  0  0  0  0  0  0  0  0  0  0
   -7.0779    5.5623  -16.2437 C   0  0  2  0  0  0  0  0  0  0  0  0
   -6.0847    6.2262  -16.9967 O   0  0  0  0  0  0  0  0  0  0  0  0
   -5.1829    5.5995  -17.9014 C   0  0  0  0  0  0  0  0  0  0  0  0
   -5.8378    4.7082  -18.9336 C   0  0  0  0  0  0  0  0  0  0  0  0
   -4.5521    6.7700  -18.6841 C   0  0  0  0  0  0  0  0  0  0  0  0
   -4.0668    4.8466  -17.1822 C   0  0  0  0  0  0  0  0  0  0  0  0
   -6.7263    4.8136  -14.9186 C   0  0  0  0  0  0  0  0  0  0  0  0
   -6.0870    3.8317  -14.8899 O   0  0  0  0  0  0  0  0  0  0  0  0
   -7.4709    5.5763  -13.7647 N   0  0  0  0  0  0  0  0  0  0  0  0
   -7.6408    5.2477  -12.4562 C   0  0  0  0  0  0  0  0  0  0  0  0
   -8.1789    6.2950  -11.5896 C   0  0  0  0  0  0  0  0  0  0  0  0
   -8.4224    6.0182  -10.2971 C   0  0  0  0  0  0  0  0  0  0  0  0
   -8.1906    4.7293   -9.8275 N   0  0  0  0  0  0  0  0  0  0  0  0
   -8.3864    4.2040   -8.5766 C   0  0  0  0  0  0  0  0  0  0  0  0
   -8.0192    2.8816   -8.6772 C   0  0  0  0  0  0  0  0  0  0  0  0
   -7.5721    2.5950   -9.9388 N   0  0  0  0  0  0  0  0  0  0  0  0
   -7.6890    3.7086  -10.6210 C   0  0  0  0  0  0  0  0  0  0  0  0
   -7.3943    4.0119  -11.9785 C   0  0  0  0  0  0  0  0  0  0  0  0
  2  1  1  6
  2  3  1  0
  3  4  1  0
  4  5  1  0
  4  6  1  0
  4  7  1  0
  2  8  1  0
  8  9  2  0
  8 10  1  0
 10 11  1  0
 11 12  1  0
 12 13  2  0
 13 14  1  0
 14 15  1  0
 15 16  2  0
 16 17  1  0
 17 18  2  0
 18 19  1  0
 19 11  2  0
 18 14  1  0
M  END
>  <energy_score>  (55) 
-21.347291

>  <alias>  (55) 
None

>  <HIPPO Pose ID>  (55) 
65140

>  <smiles>  (55) 
C[C@H](OC(C)(C)C)C(=O)Nc1ccn2ccnc2c1

>  <inchikey>  (55) 
ICULPCWAIXXDSL-UHFFFAOYSA-N

>  <distance_score>  (55) 
0.901135

>  <ref_mols>  (55) 
Z1046b,Z1495a

>  <ref_pdb>  (55) 
Z1495a

>  <HIPPO Compound ID>  (55) 
118335

>  <name>  (55) 
P65140

>  <inspiration_score>  (55) 
None

$$$$
P65141
     RDKit          3D

 19 20  0  0  0  0  0  0  0  0999 V2000
   -4.4699    6.7297  -20.2598 C   0  0  0  0  0  0  0  0  0  0  0  0
   -4.9122    6.1605  -19.1339 C   0  0  0  0  0  0  0  0  0  0  0  0
   -6.3590    6.1590  -18.7300 C   0  0  0  0  0  0  0  0  0  0  0  0
   -6.8777    4.7712  -18.3682 C   0  0  0  0  0  0  0  0  0  0  0  0
   -7.6271    4.7665  -17.1599 O   0  0  0  0  0  0  0  0  0  0  0  0
   -7.0024    5.2262  -15.9641 C   0  0  2  0  0  0  0  0  0  0  0  0
   -5.4841    5.0745  -15.8532 C   0  0  0  0  0  0  0  0  0  0  0  0
   -7.5833    4.4342  -14.7818 C   0  0  0  0  0  0  0  0  0  0  0  0
   -7.8213    3.2932  -14.8514 O   0  0  0  0  0  0  0  0  0  0  0  0
   -7.6583    5.4096  -13.5663 N   0  0  0  0  0  0  0  0  0  0  0  0
   -7.9326    5.1679  -12.2573 C   0  0  0  0  0  0  0  0  0  0  0  0
   -7.8922    6.3132  -11.3520 C   0  0  0  0  0  0  0  0  0  0  0  0
   -8.0477    6.1081  -10.0326 C   0  0  0  0  0  0  0  0  0  0  0  0
   -8.2640    4.8129   -9.5704 N   0  0  0  0  0  0  0  0  0  0  0  0
   -8.4107    4.3562   -8.2864 C   0  0  0  0  0  0  0  0  0  0  0  0
   -8.6010    2.9981   -8.4033 C   0  0  0  0  0  0  0  0  0  0  0  0
   -8.5890    2.6165   -9.7157 N   0  0  0  0  0  0  0  0  0  0  0  0
   -8.3593    3.7095  -10.4038 C   0  0  0  0  0  0  0  0  0  0  0  0
   -8.1787    3.9245  -11.7958 C   0  0  0  0  0  0  0  0  0  0  0  0
  1  2  2  0
  2  3  1  0
  3  4  1  0
  4  5  1  0
  5  6  1  0
  6  7  1  6
  6  8  1  0
  8  9  2  0
  8 10  1  0
 10 11  1  0
 11 12  1  0
 12 13  2  0
 13 14  1  0
 14 15  1  0
 15 16  2  0
 16 17  1  0
 17 18  2  0
 18 19  1  0
 19 11  2  0
 18 14  1  0
M  END
>  <energy_score>  (56) 
-33.434375

>  <alias>  (56) 
None

>  <HIPPO Pose ID>  (56) 
65141

>  <smiles>  (56) 
C=CCCO[C@H](C)C(=O)Nc1ccn2ccnc2c1

>  <inchikey>  (56) 
USLQWDDSHRJFIX-UHFFFAOYSA-N

>  <distance_score>  (56) 
0.839739

>  <ref_mols>  (56) 
Z1046b,Z1495a

>  <ref_pdb>  (56) 
Z1495a

>  <HIPPO Compound ID>  (56) 
118342

>  <name>  (56) 
P65141

>  <inspiration_score>  (56) 
None

$$$$
P65868
     RDKit          3D

 13 14  0  0  0  0  0  0  0  0999 V2000
   -2.1279    4.5197  -14.9504 C   0  0  0  0  0  0  0  0  0  0  0  0
   -2.2222    5.3268  -16.2397 C   0  0  0  0  0  0  0  0  0  0  0  0
   -3.6412    5.3392  -16.7977 C   0  0  0  0  0  0  0  0  0  0  0  0
   -4.5125    6.0613  -15.8777 N   0  0  0  0  0  0  0  0  0  0  0  0
   -5.8221    5.5701  -15.8252 C   0  0  0  0  0  0  0  0  0  0  0  0
   -6.3632    5.4836  -14.5877 N   0  0  0  0  0  0  0  0  0  0  0  0
   -7.6264    5.0342  -14.4711 C   0  0  0  0  0  0  0  0  0  0  0  0
   -8.4720    4.6982  -15.4498 N   0  0  0  0  0  0  0  0  0  0  0  0
   -7.8889    4.7695  -16.6576 C   0  0  0  0  0  0  0  0  0  0  0  0
   -8.7058    4.3689  -18.0969 S   0  0  0  0  0  0  0  0  0  0  0  0
   -7.2580    4.6730  -18.9681 C   0  0  0  0  0  0  0  0  0  0  0  0
   -6.2362    5.1355  -18.2793 N   0  0  0  0  0  0  0  0  0  0  0  0
   -6.5931    5.1754  -16.9361 C   0  0  0  0  0  0  0  0  0  0  0  0
  1  2  1  0
  2  3  1  0
  3  4  1  0
  4  5  1  0
  5  6  2  0
  6  7  1  0
  7  8  2  0
  8  9  1  0
  9 10  1  0
 10 11  1  0
 11 12  2  0
 12 13  1  0
 13  5  1  0
 13  9  2  0
M  END
>  <energy_score>  (57) 
-66.240985

>  <alias>  (57) 
None

>  <HIPPO Pose ID>  (57) 
65868

>  <smiles>  (57) 
CCCNc1ncnc2scnc12

>  <inchikey>  (57) 
GUQBXRHGLOWICG-UHFFFAOYSA-N

>  <distance_score>  (57) 
0.682706

>  <ref_mols>  (57) 
Z1719a,Z0472a

>  <ref_pdb>  (57) 
Z0472a

>  <HIPPO Compound ID>  (57) 
119032

>  <name>  (57) 
P65868

>  <inspiration_score>  (57) 
None

$$$$
P65875
     RDKit          3D

 14 15  0  0  0  0  0  0  0  0999 V2000
   -2.4518    5.0013  -17.9230 C   0  0  0  0  0  0  0  0  0  0  0  0
   -2.1944    5.2883  -16.4490 C   0  0  0  0  0  0  0  0  0  0  0  0
   -3.3994    4.9436  -15.5755 C   0  0  0  0  0  0  0  0  0  0  0  0
   -4.4187    5.9683  -15.7835 N   0  0  0  0  0  0  0  0  0  0  0  0
   -5.7216    5.4332  -15.5607 C   0  0  0  0  0  0  0  0  0  0  0  0
   -6.1129    5.2356  -14.2874 N   0  0  0  0  0  0  0  0  0  0  0  0
   -7.3645    4.7925  -14.1340 C   0  0  0  0  0  0  0  0  0  0  0  0
   -8.2414    4.5480  -15.1145 N   0  0  0  0  0  0  0  0  0  0  0  0
   -7.7903    4.6958  -16.3694 C   0  0  0  0  0  0  0  0  0  0  0  0
   -8.6163    4.3974  -17.4388 C   0  0  0  0  0  0  0  0  0  0  0  0
   -8.1546    4.5070  -18.7463 C   0  0  0  0  0  0  0  0  0  0  0  0
   -6.8662    4.9614  -18.9555 C   0  0  0  0  0  0  0  0  0  0  0  0
   -6.0365    5.3105  -17.9532 N   0  0  0  0  0  0  0  0  0  0  0  0
   -6.5056    5.1465  -16.6826 C   0  0  0  0  0  0  0  0  0  0  0  0
  1  2  1  0
  2  3  1  0
  3  4  1  0
  4  5  1  0
  5  6  2  0
  6  7  1  0
  7  8  2  0
  8  9  1  0
  9 10  2  0
 10 11  1  0
 11 12  2  0
 12 13  1  0
 13 14  2  0
 14  5  1  0
 14  9  1  0
M  END
>  <energy_score>  (58) 
-10.684195

>  <alias>  (58) 
None

>  <HIPPO Pose ID>  (58) 
65875

>  <smiles>  (58) 
CCCNc1ncnc2cccnc12

>  <inchikey>  (58) 
KQKNLWKVNWUMHC-UHFFFAOYSA-N

>  <distance_score>  (58) 
0.872547

>  <ref_mols>  (58) 
Z1719a,Z0472a

>  <ref_pdb>  (58) 
Z0472a

>  <HIPPO Compound ID>  (58) 
119043

>  <name>  (58) 
P65875

>  <inspiration_score>  (58) 
None

$$$$
P65947
     RDKit          3D

 16 17  0  0  0  0  0  0  0  0999 V2000
   -1.3563    6.7165  -17.7423 C   0  0  0  0  0  0  0  0  0  0  0  0
   -2.7178    6.2163  -18.2364 C   0  0  2  0  0  0  0  0  0  0  0  0
   -3.6710    7.3395  -18.2278 N   0  0  0  0  0  0  0  0  0  0  0  0
   -3.2085    4.9969  -17.3941 C   0  0  0  0  0  0  0  0  0  0  0  0
   -3.9014    5.4230  -16.1609 N   0  0  0  0  0  0  0  0  0  0  0  0
   -3.0797    5.2306  -14.9542 C   0  0  0  0  0  0  0  0  0  0  0  0
   -5.2689    5.1564  -15.9334 C   0  0  0  0  0  0  0  0  0  0  0  0
   -5.6287    5.1291  -14.6278 N   0  0  0  0  0  0  0  0  0  0  0  0
   -6.8937    4.8390  -14.3153 C   0  0  0  0  0  0  0  0  0  0  0  0
   -7.8722    4.5805  -15.1720 N   0  0  0  0  0  0  0  0  0  0  0  0
   -7.5433    4.5972  -16.4599 C   0  0  0  0  0  0  0  0  0  0  0  0
   -8.5532    4.2556  -17.3504 C   0  0  0  0  0  0  0  0  0  0  0  0
   -8.3439    4.2232  -18.7237 C   0  0  0  0  0  0  0  0  0  0  0  0
   -7.1113    4.5927  -19.2179 C   0  0  0  0  0  0  0  0  0  0  0  0
   -6.1132    5.0074  -18.3465 C   0  0  0  0  0  0  0  0  0  0  0  0
   -6.2586    4.9375  -16.9358 C   0  0  0  0  0  0  0  0  0  0  0  0
  2  1  1  1
  2  3  1  0
  2  4  1  0
  4  5  1  0
  5  6  1  0
  5  7  1  0
  7  8  2  0
  8  9  1  0
  9 10  2  0
 10 11  1  0
 11 12  2  0
 12 13  1  0
 13 14  2  0
 14 15  1  0
 15 16  2  0
 16  7  1  0
 16 11  1  0
M  END
>  <energy_score>  (59) 
-15.826081

>  <alias>  (59) 
None

>  <HIPPO Pose ID>  (59) 
65947

>  <smiles>  (59) 
C[C@H](N)CN(C)c1ncnc2ccccc12

>  <inchikey>  (59) 
NNBHYCZETFFDQK-UHFFFAOYSA-N

>  <distance_score>  (59) 
0.951026

>  <ref_mols>  (59) 
Z0472a,Z1719a

>  <ref_pdb>  (59) 
Z1719a

>  <HIPPO Compound ID>  (59) 
119143

>  <name>  (59) 
P65947

>  <inspiration_score>  (59) 
None

$$$$
P66377
     RDKit          3D

 17 18  0  0  0  0  0  0  0  0999 V2000
   -5.8472    7.8858  -24.5772 C   0  0  0  0  0  0  0  0  0  0  0  0
   -5.4209    8.1008  -23.1333 C   0  0  0  0  0  0  0  0  0  0  0  0
   -4.9501    6.7938  -22.5066 C   0  0  0  0  0  0  0  0  0  0  0  0
   -4.7324    6.8967  -20.9970 C   0  0  0  0  0  0  0  0  0  0  0  0
   -4.2992    5.5517  -20.4253 C   0  0  0  0  0  0  0  0  0  0  0  0
   -4.4885    5.4626  -18.9246 C   0  0  0  0  0  0  0  0  0  0  0  0
   -3.6166    5.5961  -18.1564 O   0  0  0  0  0  0  0  0  0  0  0  0
   -5.9960    5.1490  -18.6951 N   0  0  0  0  0  0  0  0  0  0  0  0
   -6.6860    4.8552  -17.5311 C   0  0  0  0  0  0  0  0  0  0  0  0
   -6.0822    4.8121  -16.2744 C   0  0  0  0  0  0  0  0  0  0  0  0
   -6.8427    4.5542  -15.1287 C   0  0  0  0  0  0  0  0  0  0  0  0
   -8.2249    4.3586  -15.1913 C   0  0  0  0  0  0  0  0  0  0  0  0
   -8.7973    4.4241  -16.4553 C   0  0  0  0  0  0  0  0  0  0  0  0
  -10.0938    4.3812  -16.8818 N   0  0  0  0  0  0  0  0  0  0  0  0
  -10.1085    4.6028  -18.2222 C   0  0  0  0  0  0  0  0  0  0  0  0
   -8.8966    4.6490  -18.7134 N   0  0  0  0  0  0  0  0  0  0  0  0
   -8.0688    4.6303  -17.6183 C   0  0  0  0  0  0  0  0  0  0  0  0
  1  2  1  0
  2  3  1  0
  3  4  1  0
  4  5  1  0
  5  6  1  0
  6  7  2  0
  6  8  1  0
  8  9  1  0
  9 10  2  0
 10 11  1  0
 11 12  2  0
 12 13  1  0
 13 14  1  0
 14 15  1  0
 15 16  2  0
 16 17  1  0
 17  9  1  0
 17 13  2  0
M  END
>  <energy_score>  (60) 
-0.831519

>  <alias>  (60) 
None

>  <HIPPO Pose ID>  (60) 
66377

>  <smiles>  (60) 
CCCCCC(=O)Nc1cccc2[nH]cnc12

>  <inchikey>  (60) 
XKJVMBDEKZNDDC-UHFFFAOYSA-N

>  <distance_score>  (60) 
0.965613

>  <ref_mols>  (60) 
Z0846a,Z1597a

>  <ref_pdb>  (60) 
Z0846a

>  <HIPPO Compound ID>  (60) 
109063

>  <name>  (60) 
P66377

>  <inspiration_score>  (60) 
None

$$$$
P68463
     RDKit          3D

 37 41  0  0  0  0  0  0  0  0999 V2000
   -3.9915   10.8881  -14.9427 C   0  0  0  0  0  0  0  0  0  0  0  0
   -3.0571    9.7789  -15.4392 C   0  0  0  0  0  0  0  0  0  0  0  0
   -1.7124    9.9066  -14.7071 C   0  0  0  0  0  0  0  0  0  0  0  0
   -2.8036    9.8751  -16.9479 C   0  0  0  0  0  0  0  0  0  0  0  0
   -3.5529    8.4659  -15.0705 O   0  0  0  0  0  0  0  0  0  0  0  0
   -4.7467    8.0171  -15.5405 C   0  0  0  0  0  0  0  0  0  0  0  0
   -5.4421    8.6002  -16.2602 O   0  0  0  0  0  0  0  0  0  0  0  0
   -4.9036    6.6407  -14.9182 N   0  0  0  0  0  0  0  0  0  0  0  0
   -5.9102    5.6332  -15.1184 C   0  0  2  0  0  0  0  0  0  0  0  0
   -6.0567    5.1830  -16.5410 C   0  0  0  0  0  0  0  0  0  0  0  0
   -5.0941    5.1475  -17.5332 C   0  0  0  0  0  0  0  0  0  0  0  0
   -5.4913    4.7479  -18.8000 C   0  0  0  0  0  0  0  0  0  0  0  0
   -6.8182    4.3598  -19.0344 C   0  0  0  0  0  0  0  0  0  0  0  0
   -7.7936    4.4037  -18.0412 C   0  0  0  0  0  0  0  0  0  0  0  0
   -7.3987    4.8248  -16.7953 C   0  0  0  0  0  0  0  0  0  0  0  0
   -8.2446    5.0359  -15.5780 C   0  0  0  0  0  0  0  0  0  0  0  0
   -7.3572    6.0833  -14.8959 C   0  0  1  0  0  0  0  0  0  0  0  0
   -7.6417    6.4759  -13.4730 C   0  0  0  0  0  0  0  0  0  0  0  0
   -7.6497    7.6113  -13.1874 O   0  0  0  0  0  0  0  0  0  0  0  0
   -7.7849    5.2111  -12.5794 N   0  0  0  0  0  0  0  0  0  0  0  0
   -8.0505    5.0924  -11.2244 C   0  0  0  0  0  0  0  0  0  0  0  0
   -8.0690    6.2862  -10.4720 C   0  0  0  0  0  0  0  0  0  0  0  0
   -8.2916    6.2707   -9.1120 C   0  0  0  0  0  0  0  0  0  0  0  0
   -8.5009    5.0375   -8.5531 C   0  0  0  0  0  0  0  0  0  0  0  0
   -8.5015    3.8287   -9.2580 C   0  0  0  0  0  0  0  0  0  0  0  0
   -8.2695    3.8419  -10.6239 C   0  0  0  0  0  0  0  0  0  0  0  0
   -8.7854    2.7034   -8.3067 C   0  0  0  0  0  0  0  0  0  0  0  0
   -8.8783    3.4195   -7.0359 N   0  0  0  0  0  0  0  0  0  0  0  0
   -9.0181    2.7926   -5.7456 C   0  0  1  0  0  0  0  0  0  0  0  0
   -8.0149    3.3412   -4.7234 C   0  0  0  0  0  0  0  0  0  0  0  0
   -8.8674    3.8358   -3.5980 C   0  0  0  0  0  0  0  0  0  0  0  0
   -8.4470    4.2287   -2.5191 O   0  0  0  0  0  0  0  0  0  0  0  0
  -10.1709    3.7489   -3.9439 N   0  0  0  0  0  0  0  0  0  0  0  0
  -10.3711    3.1333   -5.1379 C   0  0  0  0  0  0  0  0  0  0  0  0
  -11.4728    2.9561   -5.6348 O   0  0  0  0  0  0  0  0  0  0  0  0
   -8.7753    4.7807   -7.1576 C   0  0  0  0  0  0  0  0  0  0  0  0
   -8.8780    5.6242   -6.2871 O   0  0  0  0  0  0  0  0  0  0  0  0
  1  2  1  0
  2  3  1  0
  2  4  1  0
  2  5  1  0
  5  6  1  0
  6  7  2  0
  6  8  1  0
  9  8  1  6
  9 10  1  0
 10 11  2  0
 11 12  1  0
 12 13  2  0
 13 14  1  0
 14 15  2  0
 15 16  1  0
 16 17  1  0
 17 18  1  1
 18 19  2  0
 18 20  1  0
 20 21  1  0
 21 22  2  0
 22 23  1  0
 23 24  2  0
 24 25  1  0
 25 26  2  0
 25 27  1  0
 27 28  1  0
 29 28  1  6
 29 30  1  0
 30 31  1  0
 31 32  2  0
 31 33  1  0
 33 34  1  0
 34 35  2  0
 28 36  1  0
 36 37  2  0
 17  9  1  0
 26 21  1  0
 34 29  1  0
 15 10  1  0
 36 24  1  0
M  END
>  <energy_score>  (61) 
-28.676489

>  <alias>  (61) 
None

>  <HIPPO Pose ID>  (61) 
68463

>  <smiles>  (61) 
CC(C)(C)OC(=O)N[C@@H]1c2ccccc2C[C@H]1C(=O)Nc1ccc2c(c1)CN([C@H]1CC(=O)NC1=O)C2=O

>  <inchikey>  (61) 
XMIUBYMVGZSZRG-RZUBCFFCSA-N

>  <distance_score>  (61) 
1.240318

>  <ref_mols>  (61) 
Z3452a,Z3506a

>  <ref_pdb>  (61) 
Z3506a

>  <HIPPO Compound ID>  (61) 
135368

>  <name>  (61) 
P68463

>  <inspiration_score>  (61) 
None

$$$$
P68467
     RDKit          3D

 38 42  0  0  0  0  0  0  0  0999 V2000
   -2.3590    3.7039  -11.2036 C   0  0  0  0  0  0  0  0  0  0  0  0
   -3.4895    3.1529  -12.0860 C   0  0  0  0  0  0  0  0  0  0  0  0
   -4.6351    2.6977  -11.1732 C   0  0  0  0  0  0  0  0  0  0  0  0
   -2.9374    2.0055  -12.9346 C   0  0  0  0  0  0  0  0  0  0  0  0
   -3.8658    4.2610  -12.9445 O   0  0  0  0  0  0  0  0  0  0  0  0
   -4.9474    4.1903  -13.7636 C   0  0  0  0  0  0  0  0  0  0  0  0
   -5.6752    3.2926  -13.8380 O   0  0  0  0  0  0  0  0  0  0  0  0
   -4.9694    5.5355  -14.4631 N   0  0  0  0  0  0  0  0  0  0  0  0
   -5.9472    6.1160  -15.3432 C   0  0  1  0  0  0  0  0  0  0  0  0
   -6.0238    5.4771  -16.6911 C   0  0  0  0  0  0  0  0  0  0  0  0
   -5.0946    5.5786  -17.7107 C   0  0  0  0  0  0  0  0  0  0  0  0
   -5.4229    5.0227  -18.9379 C   0  0  0  0  0  0  0  0  0  0  0  0
   -6.6623    4.3932  -19.1163 C   0  0  0  0  0  0  0  0  0  0  0  0
   -7.5974    4.2899  -18.0888 C   0  0  0  0  0  0  0  0  0  0  0  0
   -7.2537    4.8134  -16.8669 C   0  0  0  0  0  0  0  0  0  0  0  0
   -8.0496    4.7957  -15.5986 C   0  0  0  0  0  0  0  0  0  0  0  0
   -7.4277    6.0269  -14.9462 C   0  0  1  0  0  0  0  0  0  0  0  0
   -7.6293    6.4246  -13.5151 C   0  0  0  0  0  0  0  0  0  0  0  0
   -7.5727    7.5598  -13.2343 O   0  0  0  0  0  0  0  0  0  0  0  0
   -7.7883    5.1732  -12.6136 N   0  0  0  0  0  0  0  0  0  0  0  0
   -7.9962    5.0693  -11.2522 C   0  0  0  0  0  0  0  0  0  0  0  0
   -7.8272    6.2407  -10.4861 C   0  0  0  0  0  0  0  0  0  0  0  0
   -8.0643    6.2407   -9.1294 C   0  0  0  0  0  0  0  0  0  0  0  0
   -8.4943    5.0527   -8.5971 C   0  0  0  0  0  0  0  0  0  0  0  0
   -8.6719    3.8736   -9.3192 C   0  0  0  0  0  0  0  0  0  0  0  0
   -8.3895    3.8556  -10.6724 C   0  0  0  0  0  0  0  0  0  0  0  0
   -9.2203    2.8206   -8.4104 C   0  0  0  0  0  0  0  0  0  0  0  0
   -9.4686    3.5831   -7.1686 N   0  0  0  0  0  0  0  0  0  0  0  0
   -9.7368    2.9225   -5.8925 C   0  0  2  0  0  0  0  0  0  0  0  0
  -10.3950    3.7797   -4.8117 C   0  0  0  0  0  0  0  0  0  0  0  0
   -9.5010    4.0456   -3.6061 C   0  0  2  0  0  0  0  0  0  0  0  0
   -9.9905    5.1089   -2.9112 F   0  0  0  0  0  0  0  0  0  0  0  0
   -8.0510    4.3033   -3.9813 C   0  0  0  0  0  0  0  0  0  0  0  0
   -7.5104    3.2826   -4.8559 N   0  0  0  0  0  0  0  0  0  0  0  0
   -8.3550    2.4296   -5.5455 C   0  0  0  0  0  0  0  0  0  0  0  0
   -7.9441    1.3982   -6.0681 O   0  0  0  0  0  0  0  0  0  0  0  0
   -8.9433    4.8550   -7.2390 C   0  0  0  0  0  0  0  0  0  0  0  0
   -8.8624    5.7070   -6.3770 O   0  0  0  0  0  0  0  0  0  0  0  0
  1  2  1  0
  2  3  1  0
  2  4  1  0
  2  5  1  0
  5  6  1  0
  6  7  2  0
  6  8  1  0
  9  8  1  1
  9 10  1  0
 10 11  2  0
 11 12  1  0
 12 13  2  0
 13 14  1  0
 14 15  2  0
 15 16  1  0
 16 17  1  0
 17 18  1  1
 18 19  2  0
 18 20  1  0
 20 21  1  0
 21 22  2  0
 22 23  1  0
 23 24  2  0
 24 25  1  0
 25 26  2  0
 25 27  1  0
 27 28  1  0
 29 28  1  6
 29 30  1  0
 30 31  1  0
 31 32  1  6
 31 33  1  0
 33 34  1  0
 34 35  1  0
 35 36  2  0
 28 37  1  0
 37 38  2  0
 17  9  1  0
 26 21  1  0
 35 29  1  0
 15 10  1  0
 37 24  1  0
M  END
>  <energy_score>  (62) 
-31.13492

>  <alias>  (62) 
None

>  <HIPPO Pose ID>  (62) 
68467

>  <smiles>  (62) 
CC(C)(C)OC(=O)N[C@H]1c2ccccc2C[C@H]1C(=O)Nc1ccc2c(c1)CN([C@@H]1C[C@H](F)CNC1=O)C2=O

>  <inchikey>  (62) 
SRTFFVQVMQCUGZ-VAFVZNMKSA-N

>  <distance_score>  (62) 
1.242425

>  <ref_mols>  (62) 
Z3452a,Z3506a

>  <ref_pdb>  (62) 
Z3506a

>  <HIPPO Compound ID>  (62) 
135371

>  <name>  (62) 
P68467

>  <inspiration_score>  (62) 
None

$$$$
P68471
     RDKit          3D

 38 42  0  0  0  0  0  0  0  0999 V2000
   -4.9600   11.0041  -18.3702 C   0  0  0  0  0  0  0  0  0  0  0  0
   -4.7611   11.0188  -16.8502 C   0  0  0  0  0  0  0  0  0  0  0  0
   -3.3075   11.3100  -16.4628 C   0  0  0  0  0  0  0  0  0  0  0  0
   -5.6588   12.1119  -16.2503 C   0  0  0  0  0  0  0  0  0  0  0  0
   -5.2342    9.7871  -16.2487 O   0  0  0  0  0  0  0  0  0  0  0  0
   -4.6578    8.5936  -16.5522 C   0  0  0  0  0  0  0  0  0  0  0  0
   -3.7771    8.4499  -17.2898 O   0  0  0  0  0  0  0  0  0  0  0  0
   -5.4465    7.5766  -15.7526 N   0  0  0  0  0  0  0  0  0  0  0  0
   -5.3903    6.1433  -15.7527 C   0  0  2  0  0  0  0  0  0  0  0  0
   -5.8694    5.5722  -17.0516 C   0  0  0  0  0  0  0  0  0  0  0  0
   -5.1608    5.5092  -18.2358 C   0  0  0  0  0  0  0  0  0  0  0  0
   -5.7514    4.8537  -19.3042 C   0  0  0  0  0  0  0  0  0  0  0  0
   -7.0326    4.2956  -19.1681 C   0  0  0  0  0  0  0  0  0  0  0  0
   -7.7687    4.4046  -17.9963 C   0  0  0  0  0  0  0  0  0  0  0  0
   -7.1564    5.0216  -16.9349 C   0  0  0  0  0  0  0  0  0  0  0  0
   -7.6783    5.1694  -15.5547 C   0  0  0  0  0  0  0  0  0  0  0  0
   -6.3538    5.4030  -14.8023 C   0  0  2  0  0  0  0  0  0  0  0  0
   -6.6343    6.0883  -13.4915 C   0  0  0  0  0  0  0  0  0  0  0  0
   -6.3619    7.1974  -13.2463 O   0  0  0  0  0  0  0  0  0  0  0  0
   -7.3312    5.0051  -12.6188 N   0  0  0  0  0  0  0  0  0  0  0  0
   -7.7278    5.0387  -11.3012 C   0  0  0  0  0  0  0  0  0  0  0  0
   -7.5840    6.2212  -10.5538 C   0  0  0  0  0  0  0  0  0  0  0  0
   -7.8227    6.2191   -9.1896 C   0  0  0  0  0  0  0  0  0  0  0  0
   -8.2110    5.0214   -8.6393 C   0  0  0  0  0  0  0  0  0  0  0  0
   -8.4154    3.8625   -9.3776 C   0  0  0  0  0  0  0  0  0  0  0  0
   -8.1839    3.8499  -10.7308 C   0  0  0  0  0  0  0  0  0  0  0  0
   -8.8480    2.7615   -8.4872 C   0  0  0  0  0  0  0  0  0  0  0  0
   -8.9366    3.4302   -7.1840 N   0  0  0  0  0  0  0  0  0  0  0  0
   -9.0119    2.6509   -5.9593 C   0  0  1  0  0  0  0  0  0  0  0  0
   -9.4498    3.4657   -4.7321 C   0  0  0  0  0  0  0  0  0  0  0  0
  -10.9415    3.7030   -4.7824 C   0  0  0  0  0  0  0  0  0  0  0  0
  -11.6875    2.4007   -4.9637 C   0  0  0  0  0  0  0  0  0  0  0  0
  -12.9055    2.2809   -4.9307 O   0  0  0  0  0  0  0  0  0  0  0  0
  -10.9249    1.3243   -5.2165 N   0  0  0  0  0  0  0  0  0  0  0  0
   -9.9868    1.4786   -6.1735 C   0  0  0  0  0  0  0  0  0  0  0  0
  -10.0104    0.7353   -7.1481 O   0  0  0  0  0  0  0  0  0  0  0  0
   -8.4438    4.7211   -7.2398 C   0  0  0  0  0  0  0  0  0  0  0  0
   -8.2095    5.5138   -6.3478 O   0  0  0  0  0  0  0  0  0  0  0  0
  1  2  1  0
  2  3  1  0
  2  4  1  0
  2  5  1  0
  5  6  1  0
  6  7  2  0
  6  8  1  0
  9  8  1  6
  9 10  1  0
 10 11  2  0
 11 12  1  0
 12 13  2  0
 13 14  1  0
 14 15  2  0
 15 16  1  0
 16 17  1  0
 17 18  1  1
 18 19  2  0
 18 20  1  0
 20 21  1  0
 21 22  2  0
 22 23  1  0
 23 24  2  0
 24 25  1  0
 25 26  2  0
 25 27  1  0
 27 28  1  0
 29 28  1  6
 29 30  1  0
 30 31  1  0
 31 32  1  0
 32 33  2  0
 32 34  1  0
 34 35  1  0
 35 36  2  0
 28 37  1  0
 37 38  2  0
 17  9  1  0
 26 21  1  0
 35 29  1  0
 15 10  1  0
 37 24  1  0
M  END
>  <energy_score>  (63) 
-26.463298

>  <alias>  (63) 
None

>  <HIPPO Pose ID>  (63) 
68471

>  <smiles>  (63) 
CC(C)(C)OC(=O)N[C@@H]1c2ccccc2C[C@@H]1C(=O)Nc1ccc2c(c1)CN([C@H]1CCC(=O)NC1=O)C2=O

>  <inchikey>  (63) 
ISMYDRRFXIPLJS-QNWVGRARSA-N

>  <distance_score>  (63) 
1.452208

>  <ref_mols>  (63) 
Z3452a,Z3506a

>  <ref_pdb>  (63) 
Z3506a

>  <HIPPO Compound ID>  (63) 
135372

>  <name>  (63) 
P68471

>  <inspiration_score>  (63) 
None

$$$$
P68476
     RDKit          3D

 38 42  0  0  0  0  0  0  0  0999 V2000
   -4.0835    3.9514  -10.5131 C   0  0  0  0  0  0  0  0  0  0  0  0
   -3.1665    3.8596  -11.7389 C   0  0  0  0  0  0  0  0  0  0  0  0
   -2.5927    2.4360  -11.8153 C   0  0  0  0  0  0  0  0  0  0  0  0
   -2.0040    4.8545  -11.6629 C   0  0  0  0  0  0  0  0  0  0  0  0
   -3.9162    4.0179  -12.9706 O   0  0  0  0  0  0  0  0  0  0  0  0
   -4.6067    5.1589  -13.2270 C   0  0  0  0  0  0  0  0  0  0  0  0
   -4.5860    6.1132  -12.5721 O   0  0  0  0  0  0  0  0  0  0  0  0
   -5.3630    4.8603  -14.5045 N   0  0  0  0  0  0  0  0  0  0  0  0
   -6.3390    5.6363  -15.2142 C   0  0  1  0  0  0  0  0  0  0  0  0
   -6.2021    5.4305  -16.6800 C   0  0  0  0  0  0  0  0  0  0  0  0
   -5.0915    5.7307  -17.4547 C   0  0  0  0  0  0  0  0  0  0  0  0
   -5.1009    5.3461  -18.7873 C   0  0  0  0  0  0  0  0  0  0  0  0
   -6.2143    4.6868  -19.3132 C   0  0  0  0  0  0  0  0  0  0  0  0
   -7.3443    4.4227  -18.5379 C   0  0  0  0  0  0  0  0  0  0  0  0
   -7.3191    4.7865  -17.2124 C   0  0  0  0  0  0  0  0  0  0  0  0
   -8.3516    4.4888  -16.1841 C   0  0  0  0  0  0  0  0  0  0  0  0
   -7.8110    5.2325  -14.9548 C   0  0  1  0  0  0  0  0  0  0  0  0
   -7.9372    4.4119  -13.6837 C   0  0  0  0  0  0  0  0  0  0  0  0
   -8.1130    3.2620  -13.6494 O   0  0  0  0  0  0  0  0  0  0  0  0
   -7.7817    5.4370  -12.5347 N   0  0  0  0  0  0  0  0  0  0  0  0
   -7.8998    5.2775  -11.1735 C   0  0  0  0  0  0  0  0  0  0  0  0
   -7.5125    6.3825  -10.3913 C   0  0  0  0  0  0  0  0  0  0  0  0
   -7.6475    6.3459   -9.0168 C   0  0  0  0  0  0  0  0  0  0  0  0
   -8.2013    5.2014   -8.4943 C   0  0  0  0  0  0  0  0  0  0  0  0
   -8.5850    4.1101   -9.2502 C   0  0  0  0  0  0  0  0  0  0  0  0
   -8.4196    4.1037  -10.6138 C   0  0  0  0  0  0  0  0  0  0  0  0
   -9.2373    3.1681   -8.3422 C   0  0  0  0  0  0  0  0  0  0  0  0
   -9.7077    2.1037   -8.6819 O   0  0  0  0  0  0  0  0  0  0  0  0
   -9.2561    3.7812   -7.1097 N   0  0  0  0  0  0  0  0  0  0  0  0
   -9.6933    3.1091   -5.9024 C   0  0  2  0  0  0  0  0  0  0  0  0
  -10.5171    3.9360   -4.9164 C   0  0  0  0  0  0  0  0  0  0  0  0
   -9.7346    4.7316   -3.8719 C   0  0  0  0  0  0  0  0  0  0  0  0
   -8.4992    3.9959   -3.3898 C   0  0  0  0  0  0  0  0  0  0  0  0
   -7.7024    3.4953   -4.4884 N   0  0  0  0  0  0  0  0  0  0  0  0
   -8.3762    2.6236   -5.3521 C   0  0  0  0  0  0  0  0  0  0  0  0
   -7.8492    1.6280   -5.8318 O   0  0  0  0  0  0  0  0  0  0  0  0
   -8.5433    4.9389   -7.1214 C   0  0  0  0  0  0  0  0  0  0  0  0
   -8.1551    5.6382   -6.2031 O   0  0  0  0  0  0  0  0  0  0  0  0
  1  2  1  0
  2  3  1  0
  2  4  1  0
  2  5  1  0
  5  6  1  0
  6  7  2  0
  6  8  1  0
  9  8  1  1
  9 10  1  0
 10 11  2  0
 11 12  1  0
 12 13  2  0
 13 14  1  0
 14 15  2  0
 15 16  1  0
 16 17  1  0
 17 18  1  1
 18 19  2  0
 18 20  1  0
 20 21  1  0
 21 22  2  0
 22 23  1  0
 23 24  2  0
 24 25  1  0
 25 26  2  0
 25 27  1  0
 27 28  2  0
 27 29  1  0
 30 29  1  6
 30 31  1  0
 31 32  1  0
 32 33  1  0
 33 34  1  0
 34 35  1  0
 35 36  2  0
 29 37  1  0
 37 38  2  0
 17  9  1  0
 26 21  1  0
 35 30  1  0
 15 10  1  0
 37 24  1  0
M  END
>  <energy_score>  (64) 
-30.878886

>  <alias>  (64) 
None

>  <HIPPO Pose ID>  (64) 
68476

>  <smiles>  (64) 
CC(C)(C)OC(=O)N[C@H]1c2ccccc2C[C@H]1C(=O)Nc1ccc2c(c1)C(=O)N([C@@H]1CCCNC1=O)C2=O

>  <inchikey>  (64) 
CATRXAVBEMWAPS-VSKRKVRLSA-N

>  <distance_score>  (64) 
1.506569

>  <ref_mols>  (64) 
Z3452a,Z3506a

>  <ref_pdb>  (64) 
Z3506a

>  <HIPPO Compound ID>  (64) 
135374

>  <name>  (64) 
P68476

>  <inspiration_score>  (64) 
None

$$$$
P68480
     RDKit          3D

 38 42  0  0  0  0  0  0  0  0999 V2000
   -6.7897    9.4511  -11.9875 C   0  0  0  0  0  0  0  0  0  0  0  0
   -5.4663    9.0219  -12.6260 C   0  0  0  0  0  0  0  0  0  0  0  0
   -5.2539    9.6915  -13.9894 C   0  0  0  0  0  0  0  0  0  0  0  0
   -4.3169    9.4357  -11.6941 C   0  0  0  0  0  0  0  0  0  0  0  0
   -5.3502    7.5783  -12.7346 O   0  0  0  0  0  0  0  0  0  0  0  0
   -6.1684    6.8654  -13.5518 C   0  0  0  0  0  0  0  0  0  0  0  0
   -7.1207    7.2797  -14.0641 O   0  0  0  0  0  0  0  0  0  0  0  0
   -5.5186    5.4973  -13.6410 N   0  0  0  0  0  0  0  0  0  0  0  0
   -5.8446    4.3564  -14.4590 C   0  0  2  0  0  0  0  0  0  0  0  0
   -5.9700    4.7569  -15.9060 C   0  0  0  0  0  0  0  0  0  0  0  0
   -4.9333    5.0900  -16.7635 C   0  0  0  0  0  0  0  0  0  0  0  0
   -5.2245    5.2084  -18.1125 C   0  0  0  0  0  0  0  0  0  0  0  0
   -6.5353    5.0153  -18.5614 C   0  0  0  0  0  0  0  0  0  0  0  0
   -7.5973    4.7674  -17.6891 C   0  0  0  0  0  0  0  0  0  0  0  0
   -7.2982    4.6305  -16.3515 C   0  0  0  0  0  0  0  0  0  0  0  0
   -8.2051    4.2376  -15.2212 C   0  0  0  0  0  0  0  0  0  0  0  0
   -7.1731    3.5862  -14.2896 C   0  0  2  0  0  0  0  0  0  0  0  0
   -7.5455    3.2156  -12.8706 C   0  0  0  0  0  0  0  0  0  0  0  0
   -7.4271    2.1346  -12.4521 O   0  0  0  0  0  0  0  0  0  0  0  0
   -7.9686    4.5168  -12.1673 N   0  0  0  0  0  0  0  0  0  0  0  0
   -8.2332    4.7727  -10.8339 C   0  0  0  0  0  0  0  0  0  0  0  0
   -8.1738    6.1441  -10.5287 C   0  0  0  0  0  0  0  0  0  0  0  0
   -8.1114    6.5673   -9.2227 C   0  0  0  0  0  0  0  0  0  0  0  0
   -8.1860    5.5970   -8.2505 C   0  0  0  0  0  0  0  0  0  0  0  0
   -8.3982    4.2438   -8.5247 C   0  0  0  0  0  0  0  0  0  0  0  0
   -8.3920    3.7934   -9.8367 C   0  0  0  0  0  0  0  0  0  0  0  0
   -8.6262    3.5883   -7.1962 C   0  0  0  0  0  0  0  0  0  0  0  0
   -8.9869    2.4465   -7.0047 O   0  0  0  0  0  0  0  0  0  0  0  0
   -8.4581    4.5858   -6.2306 N   0  0  0  0  0  0  0  0  0  0  0  0
   -8.6247    4.5706   -4.7883 C   0  0  1  0  0  0  0  0  0  0  0  0
   -9.9153    3.9646   -4.2626 C   0  0  0  0  0  0  0  0  0  0  0  0
  -10.0807    4.4598   -2.8260 C   0  0  0  0  0  0  0  0  0  0  0  0
   -8.8976    4.0850   -1.9717 C   0  0  0  0  0  0  0  0  0  0  0  0
   -8.9966    3.6961   -0.8119 O   0  0  0  0  0  0  0  0  0  0  0  0
   -7.6707    4.2686   -2.5539 N   0  0  0  0  0  0  0  0  0  0  0  0
   -7.4290    4.1723   -3.9097 C   0  0  0  0  0  0  0  0  0  0  0  0
   -6.2975    3.8831   -4.2933 O   0  0  0  0  0  0  0  0  0  0  0  0
   -8.0557    5.8333   -6.8078 C   0  0  0  0  0  0  0  0  0  0  0  0
  1  2  1  0
  2  3  1  0
  2  4  1  0
  2  5  1  0
  5  6  1  0
  6  7  2  0
  6  8  1  0
  9  8  1  1
  9 10  1  0
 10 11  2  0
 11 12  1  0
 12 13  2  0
 13 14  1  0
 14 15  2  0
 15 16  1  0
 16 17  1  0
 17 18  1  1
 18 19  2  0
 18 20  1  0
 20 21  1  0
 21 22  2  0
 22 23  1  0
 23 24  2  0
 24 25  1  0
 25 26  2  0
 25 27  1  0
 27 28  2  0
 27 29  1  0
 30 29  1  6
 30 31  1  0
 31 32  1  0
 32 33  1  0
 33 34  2  0
 33 35  1  0
 35 36  1  0
 36 37  2  0
 29 38  1  0
 17  9  1  0
 26 21  1  0
 36 30  1  0
 15 10  1  0
 38 24  1  0
M  END
>  <energy_score>  (65) 
-19.896344

>  <alias>  (65) 
None

>  <HIPPO Pose ID>  (65) 
68480

>  <smiles>  (65) 
CC(C)(C)OC(=O)N[C@@H]1c2ccccc2C[C@@H]1C(=O)Nc1ccc2c(c1)C(=O)N([C@H]1CCC(=O)NC1=O)C2

>  <inchikey>  (65) 
FVLAJQDTDFQJHS-QNWVGRARSA-N

>  <distance_score>  (65) 
1.712805

>  <ref_mols>  (65) 
Z3452a,Z3506a

>  <ref_pdb>  (65) 
Z3506a

>  <HIPPO Compound ID>  (65) 
135375

>  <name>  (65) 
P68480

>  <inspiration_score>  (65) 
None

$$$$
P68485
     RDKit          3D

 38 42  0  0  0  0  0  0  0  0999 V2000
   -3.7123    5.4026  -19.2169 C   0  0  0  0  0  0  0  0  0  0  0  0
   -5.0037    5.1647  -18.4958 C   0  0  0  0  0  0  0  0  0  0  0  0
   -6.1526    4.7650  -19.1968 C   0  0  0  0  0  0  0  0  0  0  0  0
   -7.3775    4.5380  -18.5563 C   0  0  0  0  0  0  0  0  0  0  0  0
   -7.4321    4.6735  -17.1922 C   0  0  0  0  0  0  0  0  0  0  0  0
   -6.2795    5.0095  -16.4804 C   0  0  0  0  0  0  0  0  0  0  0  0
   -5.0727    5.2817  -17.1109 C   0  0  0  0  0  0  0  0  0  0  0  0
   -6.5461    5.0040  -15.0158 C   0  0  2  0  0  0  0  0  0  0  0  0
   -5.5333    4.2816  -14.2895 N   0  0  0  0  0  0  0  0  0  0  0  0
   -4.8996    4.5606  -12.9425 C   0  0  0  0  0  0  0  0  0  0  0  0
   -5.0283    5.4577  -12.2241 O   0  0  0  0  0  0  0  0  0  0  0  0
   -4.1413    3.4608  -12.6967 O   0  0  0  0  0  0  0  0  0  0  0  0
   -3.4758    3.2905  -11.4171 C   0  0  0  0  0  0  0  0  0  0  0  0
   -4.4911    3.2007  -10.2711 C   0  0  0  0  0  0  0  0  0  0  0  0
   -2.7495    1.9417  -11.5333 C   0  0  0  0  0  0  0  0  0  0  0  0
   -2.4331    4.3875  -11.1766 C   0  0  0  0  0  0  0  0  0  0  0  0
   -7.9243    4.2935  -14.9516 C   0  0  1  0  0  0  0  0  0  0  0  0
   -8.6288    4.9495  -13.7925 C   0  0  0  0  0  0  0  0  0  0  0  0
   -9.2885    5.9110  -13.8641 O   0  0  0  0  0  0  0  0  0  0  0  0
   -8.1828    4.1253  -12.5545 N   0  0  0  0  0  0  0  0  0  0  0  0
   -8.3685    4.3579  -11.2173 C   0  0  0  0  0  0  0  0  0  0  0  0
   -8.3569    5.6847  -10.7456 C   0  0  0  0  0  0  0  0  0  0  0  0
   -8.3935    5.9369   -9.3828 C   0  0  0  0  0  0  0  0  0  0  0  0
   -8.4975    4.8364   -8.5629 C   0  0  0  0  0  0  0  0  0  0  0  0
   -8.5614    3.5209   -9.0303 C   0  0  0  0  0  0  0  0  0  0  0  0
   -8.4491    3.2580  -10.3708 C   0  0  0  0  0  0  0  0  0  0  0  0
   -8.7976    2.5793   -7.9074 C   0  0  0  0  0  0  0  0  0  0  0  0
   -8.7153    3.4795   -6.7690 N   0  0  0  0  0  0  0  0  0  0  0  0
   -8.9811    3.0380   -5.4346 C   0  0  1  0  0  0  0  0  0  0  0  0
   -8.0435    3.6049   -4.3734 C   0  0  0  0  0  0  0  0  0  0  0  0
   -8.9672    3.9431   -3.2479 C   0  0  0  0  0  0  0  0  0  0  0  0
   -8.6278    4.1633   -2.0951 O   0  0  0  0  0  0  0  0  0  0  0  0
  -10.2399    3.9563   -3.7046 N   0  0  0  0  0  0  0  0  0  0  0  0
  -10.3606    3.4346   -4.9527 C   0  0  0  0  0  0  0  0  0  0  0  0
  -11.4155    3.3054   -5.5526 O   0  0  0  0  0  0  0  0  0  0  0  0
   -8.6159    4.8057   -7.1136 C   0  0  0  0  0  0  0  0  0  0  0  0
   -8.6480    5.7708   -6.3747 O   0  0  0  0  0  0  0  0  0  0  0  0
   -8.6120    4.4875  -16.2984 C   0  0  0  0  0  0  0  0  0  0  0  0
  1  2  1  0
  2  3  2  0
  3  4  1  0
  4  5  2  0
  5  6  1  0
  6  7  2  0
  6  8  1  0
  8  9  1  1
  9 10  1  0
 10 11  2  0
 10 12  1  0
 12 13  1  0
 13 14  1  0
 13 15  1  0
 13 16  1  0
  8 17  1  0
 17 18  1  1
 18 19  2  0
 18 20  1  0
 20 21  1  0
 21 22  2  0
 22 23  1  0
 23 24  2  0
 24 25  1  0
 25 26  2  0
 25 27  1  0
 27 28  1  0
 29 28  1  6
 29 30  1  0
 30 31  1  0
 31 32  2  0
 31 33  1  0
 33 34  1  0
 34 35  2  0
 28 36  1  0
 36 37  2  0
 17 38  1  0
  7  2  1  0
 26 21  1  0
 34 29  1  0
 38  5  1  0
 36 24  1  0
M  END
>  <energy_score>  (66) 
-32.355755

>  <alias>  (66) 
None

>  <HIPPO Pose ID>  (66) 
68485

>  <smiles>  (66) 
Cc1ccc2c(c1)[C@H](NC(=O)OC(C)(C)C)[C@@H](C(=O)Nc1ccc3c(c1)CN([C@H]1CC(=O)NC1=O)C3=O)C2

>  <inchikey>  (66) 
OSZDDAZCJOUQQP-FUDKSRODSA-N

>  <distance_score>  (66) 
1.511296

>  <ref_mols>  (66) 
Z3452a,Z3506a

>  <ref_pdb>  (66) 
Z3506a

>  <HIPPO Compound ID>  (66) 
135376

>  <name>  (66) 
P68485

>  <inspiration_score>  (66) 
None

$$$$
P68487
     RDKit          3D

 38 42  0  0  0  0  0  0  0  0999 V2000
   -2.4032    3.9554  -11.4324 C   0  0  0  0  0  0  0  0  0  0  0  0
   -3.5770    3.3448  -12.2133 C   0  0  0  0  0  0  0  0  0  0  0  0
   -4.6044    2.8161  -11.2051 C   0  0  0  0  0  0  0  0  0  0  0  0
   -3.0400    2.2347  -13.1185 C   0  0  0  0  0  0  0  0  0  0  0  0
   -4.0987    4.4375  -13.0125 O   0  0  0  0  0  0  0  0  0  0  0  0
   -5.2195    4.2878  -13.7668 C   0  0  0  0  0  0  0  0  0  0  0  0
   -5.8544    3.3213  -13.8353 O   0  0  0  0  0  0  0  0  0  0  0  0
   -5.4511    5.6627  -14.3666 N   0  0  0  0  0  0  0  0  0  0  0  0
   -6.4733    6.1322  -15.2674 C   0  0  1  0  0  0  0  0  0  0  0  0
   -6.4075    5.5128  -16.6189 C   0  0  0  0  0  0  0  0  0  0  0  0
   -5.4400    5.7211  -17.5872 C   0  0  0  0  0  0  0  0  0  0  0  0
   -5.6354    5.1320  -18.8259 C   0  0  0  0  0  0  0  0  0  0  0  0
   -6.7932    4.3814  -19.0674 C   0  0  0  0  0  0  0  0  0  0  0  0
   -7.7674    4.1800  -18.0898 C   0  0  0  0  0  0  0  0  0  0  0  0
   -7.5396    4.7120  -16.8459 C   0  0  0  0  0  0  0  0  0  0  0  0
   -8.3641    4.5575  -15.6005 C   0  0  0  0  0  0  0  0  0  0  0  0
   -7.9538    5.8449  -14.9067 C   0  0  1  0  0  0  0  0  0  0  0  0
   -8.1165    6.1986  -13.4610 C   0  0  0  0  0  0  0  0  0  0  0  0
   -8.1587    7.3344  -13.1808 O   0  0  0  0  0  0  0  0  0  0  0  0
   -8.0993    4.9425  -12.5573 N   0  0  0  0  0  0  0  0  0  0  0  0
   -8.0370    4.8279  -11.1854 C   0  0  0  0  0  0  0  0  0  0  0  0
   -7.3734    5.9133  -10.5637 C   0  0  0  0  0  0  0  0  0  0  0  0
   -7.0585    5.8865   -9.2284 C   0  0  0  0  0  0  0  0  0  0  0  0
   -7.4977    4.7863   -8.5433 C   0  0  0  0  0  0  0  0  0  0  0  0
   -8.2449    3.7653   -9.0974 C   0  0  0  0  0  0  0  0  0  0  0  0
   -8.4803    3.7188  -10.4612 C   0  0  0  0  0  0  0  0  0  0  0  0
   -8.7753    2.9961   -7.9627 C   0  0  0  0  0  0  0  0  0  0  0  0
   -9.5913    2.1069   -8.1126 O   0  0  0  0  0  0  0  0  0  0  0  0
   -8.2569    3.5796   -6.8134 N   0  0  0  0  0  0  0  0  0  0  0  0
   -8.8026    3.5281   -5.5109 C   0  0  0  0  0  0  0  0  0  0  0  0
  -10.1242    3.1413   -5.3232 C   0  0  0  0  0  0  0  0  0  0  0  0
  -10.7446    3.4380   -4.1183 C   0  0  0  0  0  0  0  0  0  0  0  0
  -10.0492    4.0697   -3.0867 C   0  0  0  0  0  0  0  0  0  0  0  0
  -10.6750    4.3883   -1.9453 F   0  0  0  0  0  0  0  0  0  0  0  0
   -8.7111    4.3617   -3.2109 C   0  0  0  0  0  0  0  0  0  0  0  0
   -8.0909    4.0795   -4.4192 C   0  0  0  0  0  0  0  0  0  0  0  0
   -7.3930    4.5949   -7.1270 C   0  0  0  0  0  0  0  0  0  0  0  0
   -6.6925    5.3371   -6.4564 O   0  0  0  0  0  0  0  0  0  0  0  0
  1  2  1  0
  2  3  1  0
  2  4  1  0
  2  5  1  0
  5  6  1  0
  6  7  2  0
  6  8  1  0
  9  8  1  1
  9 10  1  0
 10 11  2  0
 11 12  1  0
 12 13  2  0
 13 14  1  0
 14 15  2  0
 15 16  1  0
 16 17  1  0
 17 18  1  1
 18 19  2  0
 18 20  1  0
 20 21  1  0
 21 22  2  0
 22 23  1  0
 23 24  2  0
 24 25  1  0
 25 26  2  0
 25 27  1  0
 27 28  2  0
 27 29  1  0
 29 30  1  0
 30 31  2  0
 31 32  1  0
 32 33  2  0
 33 34  1  0
 33 35  1  0
 35 36  2  0
 29 37  1  0
 37 38  2  0
 17  9  1  0
 26 21  1  0
 36 30  1  0
 15 10  1  0
 37 24  1  0
M  END
>  <energy_score>  (67) 
-13.295739

>  <alias>  (67) 
None

>  <HIPPO Pose ID>  (67) 
68487

>  <smiles>  (67) 
CC(C)(C)OC(=O)N[C@H]1c2ccccc2C[C@H]1C(=O)Nc1ccc2c(c1)C(=O)N(c1ccc(F)cc1)C2=O

>  <inchikey>  (67) 
AAWBBETWIZFSKH-RPWUZVMVSA-N

>  <distance_score>  (67) 
1.40381

>  <ref_mols>  (67) 
Z3452a,Z3506a

>  <ref_pdb>  (67) 
Z3506a

>  <HIPPO Compound ID>  (67) 
135377

>  <name>  (67) 
P68487

>  <inspiration_score>  (67) 
None

$$$$
P68488
     RDKit          3D

 38 42  0  0  0  0  0  0  0  0999 V2000
   -1.8648    9.4342  -13.3559 C   0  0  0  0  0  0  0  0  0  0  0  0
   -1.9916    7.9064  -13.2569 C   0  0  0  0  0  0  0  0  0  0  0  0
   -1.9220    7.5040  -11.7795 C   0  0  0  0  0  0  0  0  0  0  0  0
   -0.8666    7.2674  -14.0791 C   0  0  0  0  0  0  0  0  0  0  0  0
   -3.2937    7.6079  -13.8243 O   0  0  0  0  0  0  0  0  0  0  0  0
   -3.7476    6.3297  -13.8987 C   0  0  0  0  0  0  0  0  0  0  0  0
   -3.1663    5.3947  -13.5419 O   0  0  0  0  0  0  0  0  0  0  0  0
   -5.1317    6.4560  -14.5006 N   0  0  0  0  0  0  0  0  0  0  0  0
   -6.0763    5.4482  -14.8866 C   0  0  2  0  0  0  0  0  0  0  0  0
   -6.0073    5.1055  -16.3471 C   0  0  0  0  0  0  0  0  0  0  0  0
   -4.8977    5.1160  -17.1771 C   0  0  0  0  0  0  0  0  0  0  0  0
   -5.0917    4.8528  -18.5254 C   0  0  0  0  0  0  0  0  0  0  0  0
   -6.3800    4.5895  -19.0101 C   0  0  0  0  0  0  0  0  0  0  0  0
   -7.4917    4.5900  -18.1682 C   0  0  0  0  0  0  0  0  0  0  0  0
   -8.7472    4.4509  -18.6646 O   0  0  0  0  0  0  0  0  0  0  0  0
   -7.3015    4.8154  -16.8295 C   0  0  0  0  0  0  0  0  0  0  0  0
   -8.3101    4.9159  -15.7209 C   0  0  0  0  0  0  0  0  0  0  0  0
   -7.5366    5.9161  -14.8665 C   0  0  1  0  0  0  0  0  0  0  0  0
   -8.0287    6.2920  -13.4968 C   0  0  0  0  0  0  0  0  0  0  0  0
   -8.2805    7.4150  -13.2834 O   0  0  0  0  0  0  0  0  0  0  0  0
   -8.0163    5.0665  -12.5460 N   0  0  0  0  0  0  0  0  0  0  0  0
   -8.2099    4.9886  -11.1740 C   0  0  0  0  0  0  0  0  0  0  0  0
   -8.2243    6.2121  -10.4658 C   0  0  0  0  0  0  0  0  0  0  0  0
   -8.3389    6.2484   -9.0900 C   0  0  0  0  0  0  0  0  0  0  0  0
   -8.4451    5.0350   -8.4635 C   0  0  0  0  0  0  0  0  0  0  0  0
   -8.4488    3.8017   -9.1259 C   0  0  0  0  0  0  0  0  0  0  0  0
   -8.3242    3.7611  -10.5074 C   0  0  0  0  0  0  0  0  0  0  0  0
   -8.6103    2.7081   -8.1146 C   0  0  0  0  0  0  0  0  0  0  0  0
   -8.5513    3.4582   -6.8579 N   0  0  0  0  0  0  0  0  0  0  0  0
   -8.7540    2.8714   -5.5568 C   0  0  2  0  0  0  0  0  0  0  0  0
  -10.1367    3.1427   -4.9631 C   0  0  0  0  0  0  0  0  0  0  0  0
   -9.8369    3.8960   -3.6978 C   0  0  0  0  0  0  0  0  0  0  0  0
  -10.6508    4.3967   -2.9403 O   0  0  0  0  0  0  0  0  0  0  0  0
   -8.5138    3.9508   -3.4727 N   0  0  0  0  0  0  0  0  0  0  0  0
   -7.7949    3.4743   -4.5110 C   0  0  0  0  0  0  0  0  0  0  0  0
   -6.5758    3.5849   -4.5408 O   0  0  0  0  0  0  0  0  0  0  0  0
   -8.5864    4.8168   -7.0365 C   0  0  0  0  0  0  0  0  0  0  0  0
   -8.7252    5.6775   -6.1888 O   0  0  0  0  0  0  0  0  0  0  0  0
  1  2  1  0
  2  3  1  0
  2  4  1  0
  2  5  1  0
  5  6  1  0
  6  7  2  0
  6  8  1  0
  9  8  1  6
  9 10  1  0
 10 11  2  0
 11 12  1  0
 12 13  2  0
 13 14  1  0
 14 15  1  0
 14 16  2  0
 16 17  1  0
 17 18  1  0
 18 19  1  1
 19 20  2  0
 19 21  1  0
 21 22  1  0
 22 23  2  0
 23 24  1  0
 24 25  2  0
 25 26  1  0
 26 27  2  0
 26 28  1  0
 28 29  1  0
 30 29  1  6
 30 31  1  0
 31 32  1  0
 32 33  2  0
 32 34  1  0
 34 35  1  0
 35 36  2  0
 29 37  1  0
 37 38  2  0
 18  9  1  0
 27 22  1  0
 35 30  1  0
 16 10  1  0
 37 25  1  0
M  END
>  <energy_score>  (68) 
-31.358787

>  <alias>  (68) 
None

>  <HIPPO Pose ID>  (68) 
68488

>  <smiles>  (68) 
CC(C)(C)OC(=O)N[C@@H]1c2cccc(O)c2C[C@H]1C(=O)Nc1ccc2c(c1)CN([C@@H]1CC(=O)NC1=O)C2=O

>  <inchikey>  (68) 
WWCZOWFHJHQQNO-WOIUINJBSA-N

>  <distance_score>  (68) 
1.432623

>  <ref_mols>  (68) 
Z3452a,Z3506a

>  <ref_pdb>  (68) 
Z3506a

>  <HIPPO Compound ID>  (68) 
135378

>  <name>  (68) 
P68488

>  <inspiration_score>  (68) 
None

$$$$
P68492
     RDKit          3D

 38 42  0  0  0  0  0  0  0  0999 V2000
   -2.2547    6.9507  -11.4826 C   0  0  0  0  0  0  0  0  0  0  0  0
   -3.7238    7.1650  -11.1035 C   0  0  0  0  0  0  0  0  0  0  0  0
   -3.9624    8.6689  -10.8975 C   0  0  0  0  0  0  0  0  0  0  0  0
   -4.0994    6.4314   -9.8113 C   0  0  0  0  0  0  0  0  0  0  0  0
   -4.6121    6.8006  -12.1921 O   0  0  0  0  0  0  0  0  0  0  0  0
   -4.6898    5.5173  -12.6330 C   0  0  0  0  0  0  0  0  0  0  0  0
   -3.9973    4.6353  -12.2374 O   0  0  0  0  0  0  0  0  0  0  0  0
   -5.7544    5.5091  -13.5422 N   0  0  0  0  0  0  0  0  0  0  0  0
   -6.2906    4.4557  -14.3575 C   0  0  2  0  0  0  0  0  0  0  0  0
   -6.0817    4.7543  -15.8089 C   0  0  0  0  0  0  0  0  0  0  0  0
   -4.8692    4.9371  -16.4643 C   0  0  0  0  0  0  0  0  0  0  0  0
   -4.8792    5.1594  -17.8409 C   0  0  0  0  0  0  0  0  0  0  0  0
   -6.0914    5.1966  -18.5414 C   0  0  0  0  0  0  0  0  0  0  0  0
   -7.2982    5.0258  -17.8656 C   0  0  0  0  0  0  0  0  0  0  0  0
   -8.4904    5.0653  -18.5170 O   0  0  0  0  0  0  0  0  0  0  0  0
   -7.2883    4.8086  -16.5015 C   0  0  0  0  0  0  0  0  0  0  0  0
   -8.4613    4.6202  -15.5967 C   0  0  0  0  0  0  0  0  0  0  0  0
   -7.8247    4.2317  -14.2418 C   0  0  2  0  0  0  0  0  0  0  0  0
   -8.4087    5.0161  -13.0578 C   0  0  0  0  0  0  0  0  0  0  0  0
   -8.9160    6.0882  -13.2463 O   0  0  0  0  0  0  0  0  0  0  0  0
   -8.1397    4.3011  -11.8282 N   0  0  0  0  0  0  0  0  0  0  0  0
   -8.3029    4.6786  -10.4972 C   0  0  0  0  0  0  0  0  0  0  0  0
   -8.4794    6.0297  -10.1277 C   0  0  0  0  0  0  0  0  0  0  0  0
   -8.5846    6.4073   -8.7803 C   0  0  0  0  0  0  0  0  0  0  0  0
   -8.5386    5.4045   -7.8419 C   0  0  0  0  0  0  0  0  0  0  0  0
   -8.3674    4.0907   -8.2080 C   0  0  0  0  0  0  0  0  0  0  0  0
   -8.2315    3.6867   -9.5181 C   0  0  0  0  0  0  0  0  0  0  0  0
   -8.2702    3.4090   -6.8882 C   0  0  2  0  0  0  0  0  0  0  0  0
   -9.6182    3.2766   -6.1832 C   0  0  0  0  0  0  0  0  0  0  0  0
   -9.7947    4.7105   -5.7413 C   0  0  0  0  0  0  0  0  0  0  0  0
   -8.5276    5.3265   -6.3418 C   0  0  1  0  0  0  0  0  0  0  0  0
   -7.4280    4.3211   -5.9665 N   0  0  0  0  0  0  0  0  0  0  0  0
   -6.1210    4.9098   -6.1581 C   0  0  0  0  0  0  0  0  0  0  0  0
   -5.3946    4.9105   -7.1226 O   0  0  0  0  0  0  0  0  0  0  0  0
   -5.6588    5.5170   -4.8155 C   0  0  0  0  0  0  0  0  0  0  0  0
   -6.6236    6.2497   -4.1866 F   0  0  0  0  0  0  0  0  0  0  0  0
   -5.3090    4.5233   -3.9369 F   0  0  0  0  0  0  0  0  0  0  0  0
   -4.5719    6.3300   -4.9229 F   0  0  0  0  0  0  0  0  0  0  0  0
  1  2  1  0
  2  3  1  0
  2  4  1  0
  2  5  1  0
  5  6  1  0
  6  7  2  0
  6  8  1  0
  9  8  1  1
  9 10  1  0
 10 11  2  0
 11 12  1  0
 12 13  2  0
 13 14  1  0
 14 15  1  0
 14 16  2  0
 16 17  1  0
 17 18  1  0
 18 19  1  1
 19 20  2  0
 19 21  1  0
 21 22  1  0
 22 23  2  0
 23 24  1  0
 24 25  2  0
 25 26  1  0
 26 27  2  0
 26 28  1  0
 28 29  1  1
 29 30  1  0
 31 30  1  6
 31 32  1  0
 32 33  1  0
 33 34  2  0
 33 35  1  0
 35 36  1  0
 35 37  1  0
 35 38  1  0
 18  9  1  0
 27 22  1  0
 32 28  1  0
 16 10  1  0
 31 25  1  0
M  END
>  <energy_score>  (69) 
-22.091532

>  <alias>  (69) 
None

>  <HIPPO Pose ID>  (69) 
68492

>  <smiles>  (69) 
CC(C)(C)OC(=O)N[C@@H]1c2cccc(O)c2C[C@@H]1C(=O)Nc1ccc2c(c1)[C@@H]1CC[C@H]2N1C(=O)C(F)(F)F

>  <inchikey>  (69) 
QHLGPZLMTWVUNY-CUXKYVRBSA-N

>  <distance_score>  (69) 
1.860025

>  <ref_mols>  (69) 
Z3452a,Z3506a

>  <ref_pdb>  (69) 
Z3506a

>  <HIPPO Compound ID>  (69) 
135379

>  <name>  (69) 
P68492

>  <inspiration_score>  (69) 
None

$$$$
P68495
     RDKit          3D

 38 42  0  0  0  0  0  0  0  0999 V2000
   -3.0203    2.1156  -12.9386 C   0  0  0  0  0  0  0  0  0  0  0  0
   -3.4629    3.2892  -12.0626 C   0  0  0  0  0  0  0  0  0  0  0  0
   -4.5109    2.8703  -11.0234 C   0  0  0  0  0  0  0  0  0  0  0  0
   -2.2373    3.8400  -11.3179 C   0  0  0  0  0  0  0  0  0  0  0  0
   -3.9147    4.3860  -12.8978 O   0  0  0  0  0  0  0  0  0  0  0  0
   -5.0777    4.3100  -13.5966 C   0  0  0  0  0  0  0  0  0  0  0  0
   -5.8099    3.4130  -13.5813 O   0  0  0  0  0  0  0  0  0  0  0  0
   -5.1940    5.6631  -14.2697 N   0  0  0  0  0  0  0  0  0  0  0  0
   -6.1988    6.1831  -15.1556 C   0  0  1  0  0  0  0  0  0  0  0  0
   -6.2198    5.5355  -16.5032 C   0  0  0  0  0  0  0  0  0  0  0  0
   -5.2928    5.6898  -17.5195 C   0  0  0  0  0  0  0  0  0  0  0  0
   -5.5814    5.1135  -18.7486 C   0  0  0  0  0  0  0  0  0  0  0  0
   -6.7841    4.4178  -18.9347 C   0  0  0  0  0  0  0  0  0  0  0  0
   -7.7133    4.2581  -17.9087 C   0  0  0  0  0  0  0  0  0  0  0  0
   -7.4035    4.7933  -16.6819 C   0  0  0  0  0  0  0  0  0  0  0  0
   -8.2018    4.7235  -15.4135 C   0  0  0  0  0  0  0  0  0  0  0  0
   -7.6761    6.0006  -14.7693 C   0  0  1  0  0  0  0  0  0  0  0  0
   -7.9324    6.4168  -13.3488 C   0  0  0  0  0  0  0  0  0  0  0  0
   -8.0294    7.5600  -13.1143 O   0  0  0  0  0  0  0  0  0  0  0  0
   -7.9230    5.1927  -12.3965 N   0  0  0  0  0  0  0  0  0  0  0  0
   -8.1177    5.1169  -11.0271 C   0  0  0  0  0  0  0  0  0  0  0  0
   -8.1559    6.3382  -10.3132 C   0  0  0  0  0  0  0  0  0  0  0  0
   -8.2946    6.3701   -8.9373 C   0  0  0  0  0  0  0  0  0  0  0  0
   -8.3997    5.1533   -8.3191 C   0  0  0  0  0  0  0  0  0  0  0  0
   -8.3830    3.9441   -8.9981 C   0  0  0  0  0  0  0  0  0  0  0  0
   -8.2377    3.8871  -10.3722 C   0  0  0  0  0  0  0  0  0  0  0  0
   -8.5596    2.9022   -7.9843 C   0  0  0  0  0  0  0  0  0  0  0  0
   -8.7277    1.7268   -8.2280 O   0  0  0  0  0  0  0  0  0  0  0  0
   -8.5661    3.5428   -6.7725 N   0  0  0  0  0  0  0  0  0  0  0  0
   -8.7878    2.9097   -5.5002 C   0  0  2  0  0  0  0  0  0  0  0  0
  -10.1581    3.2002   -4.8863 C   0  0  0  0  0  0  0  0  0  0  0  0
   -9.8227    3.9127   -3.6056 C   0  0  0  0  0  0  0  0  0  0  0  0
  -10.6076    4.4456   -2.8395 O   0  0  0  0  0  0  0  0  0  0  0  0
   -8.4961    3.9012   -3.3865 N   0  0  0  0  0  0  0  0  0  0  0  0
   -7.8059    3.4649   -4.4622 C   0  0  0  0  0  0  0  0  0  0  0  0
   -6.5903    3.5932   -4.5328 O   0  0  0  0  0  0  0  0  0  0  0  0
   -8.5834    4.8923   -6.9096 C   0  0  0  0  0  0  0  0  0  0  0  0
   -8.7577    5.7390   -6.0530 O   0  0  0  0  0  0  0  0  0  0  0  0
  1  2  1  0
  2  3  1  0
  2  4  1  0
  2  5  1  0
  5  6  1  0
  6  7  2  0
  6  8  1  0
  9  8  1  1
  9 10  1  0
 10 11  2  0
 11 12  1  0
 12 13  2  0
 13 14  1  0
 14 15  2  0
 15 16  1  0
 16 17  1  0
 17 18  1  1
 18 19  2  0
 18 20  1  0
 20 21  1  0
 21 22  2  0
 22 23  1  0
 23 24  2  0
 24 25  1  0
 25 26  2  0
 25 27  1  0
 27 28  2  0
 27 29  1  0
 30 29  1  6
 30 31  1  0
 31 32  1  0
 32 33  2  0
 32 34  1  0
 34 35  1  0
 35 36  2  0
 29 37  1  0
 37 38  2  0
 17  9  1  0
 26 21  1  0
 35 30  1  0
 15 10  1  0
 37 24  1  0
M  END
>  <energy_score>  (70) 
-72.205909

>  <alias>  (70) 
None

>  <HIPPO Pose ID>  (70) 
68495

>  <smiles>  (70) 
CC(C)(C)OC(=O)N[C@H]1c2ccccc2C[C@H]1C(=O)Nc1ccc2c(c1)C(=O)N([C@@H]1CC(=O)NC1=O)C2=O

>  <inchikey>  (70) 
HPQLNVJAYQRNEU-SBHAEUEKSA-N

>  <distance_score>  (70) 
1.311421

>  <ref_mols>  (70) 
Z3452a,Z3506a

>  <ref_pdb>  (70) 
Z3506a

>  <HIPPO Compound ID>  (70) 
135380

>  <name>  (70) 
P68495

>  <inspiration_score>  (70) 
None

$$$$
P68505
     RDKit          3D

 39 43  0  0  0  0  0  0  0  0999 V2000
   -4.4790    2.2842  -10.8541 C   0  0  0  0  0  0  0  0  0  0  0  0
   -3.4973    2.8263  -11.9019 C   0  0  0  0  0  0  0  0  0  0  0  0
   -2.3712    3.5704  -11.1673 C   0  0  0  0  0  0  0  0  0  0  0  0
   -2.8770    1.7122  -12.7489 C   0  0  0  0  0  0  0  0  0  0  0  0
   -4.1012    3.8284  -12.7626 O   0  0  0  0  0  0  0  0  0  0  0  0
   -5.2287    3.5490  -13.4673 C   0  0  0  0  0  0  0  0  0  0  0  0
   -5.7952    2.5400  -13.4458 O   0  0  0  0  0  0  0  0  0  0  0  0
   -5.5264    4.8274  -14.2236 N   0  0  0  0  0  0  0  0  0  0  0  0
   -6.6486    5.1852  -15.0564 C   0  0  1  0  0  0  0  0  0  0  0  0
   -6.3745    5.0536  -16.5150 C   0  0  0  0  0  0  0  0  0  0  0  0
   -5.1910    5.3084  -17.1910 C   0  0  0  0  0  0  0  0  0  0  0  0
   -5.1629    5.0888  -18.5600 C   0  0  0  0  0  0  0  0  0  0  0  0
   -6.3118    4.6389  -19.2162 C   0  0  0  0  0  0  0  0  0  0  0  0
   -7.5165    4.4328  -18.5379 C   0  0  0  0  0  0  0  0  0  0  0  0
   -7.5352    4.6381  -17.1802 C   0  0  0  0  0  0  0  0  0  0  0  0
   -8.6836    4.4546  -16.2411 C   0  0  0  0  0  0  0  0  0  0  0  0
   -7.9409    4.3314  -14.9119 C   0  0  2  0  0  0  0  0  0  0  0  0
   -8.6399    4.9690  -13.7425 C   0  0  0  0  0  0  0  0  0  0  0  0
   -9.3008    5.9305  -13.8229 O   0  0  0  0  0  0  0  0  0  0  0  0
   -8.1997    4.1512  -12.4968 N   0  0  0  0  0  0  0  0  0  0  0  0
   -8.3932    4.3911  -11.1599 C   0  0  0  0  0  0  0  0  0  0  0  0
   -8.3608    5.7433  -10.7426 C   0  0  0  0  0  0  0  0  0  0  0  0
   -8.3473    6.0667   -9.3965 C   0  0  0  0  0  0  0  0  0  0  0  0
   -8.4279    5.0071   -8.5273 C   0  0  0  0  0  0  0  0  0  0  0  0
   -8.5336    3.6866   -8.9381 C   0  0  0  0  0  0  0  0  0  0  0  0
   -8.4677    3.3323  -10.2627 C   0  0  0  0  0  0  0  0  0  0  0  0
   -8.7259    2.8807   -7.7393 C   0  0  0  0  0  0  0  0  0  0  0  0
   -8.9803    1.6953   -7.7296 O   0  0  0  0  0  0  0  0  0  0  0  0
   -8.6024    3.7441   -6.6829 N   0  0  0  0  0  0  0  0  0  0  0  0
   -8.7538    3.3611   -5.3054 C   0  0  1  0  0  0  0  0  0  0  0  0
   -7.6195    3.8664   -4.4056 C   0  0  0  0  0  0  0  0  0  0  0  0
   -7.9955    5.0137   -3.4810 C   0  0  0  0  0  0  0  0  0  0  0  0
   -9.3064    4.7666   -2.7851 C   0  0  0  0  0  0  0  0  0  0  0  0
   -9.6035    5.3125   -1.7258 O   0  0  0  0  0  0  0  0  0  0  0  0
  -10.2067    3.9903   -3.4541 N   0  0  0  0  0  0  0  0  0  0  0  0
  -10.1283    3.7948   -4.8064 C   0  0  0  0  0  0  0  0  0  0  0  0
  -11.1120    3.9727   -5.5189 O   0  0  0  0  0  0  0  0  0  0  0  0
   -8.4532    5.0322   -7.0818 C   0  0  0  0  0  0  0  0  0  0  0  0
   -8.3559    6.0367   -6.4036 O   0  0  0  0  0  0  0  0  0  0  0  0
  1  2  1  0
  2  3  1  0
  2  4  1  0
  2  5  1  0
  5  6  1  0
  6  7  2  0
  6  8  1  0
  9  8  1  1
  9 10  1  0
 10 11  2  0
 11 12  1  0
 12 13  2  0
 13 14  1  0
 14 15  2  0
 15 16  1  0
 16 17  1  0
 17 18  1  1
 18 19  2  0
 18 20  1  0
 20 21  1  0
 21 22  2  0
 22 23  1  0
 23 24  2  0
 24 25  1  0
 25 26  2  0
 25 27  1  0
 27 28  2  0
 27 29  1  0
 30 29  1  6
 30 31  1  0
 31 32  1  0
 32 33  1  0
 33 34  2  0
 33 35  1  0
 35 36  1  0
 36 37  2  0
 29 38  1  0
 38 39  2  0
 17  9  1  0
 26 21  1  0
 36 30  1  0
 15 10  1  0
 38 24  1  0
M  END
>  <energy_score>  (71) 
-35.789217

>  <alias>  (71) 
None

>  <HIPPO Pose ID>  (71) 
68505

>  <smiles>  (71) 
CC(C)(C)OC(=O)N[C@H]1c2ccccc2C[C@@H]1C(=O)Nc1ccc2c(c1)C(=O)N([C@H]1CCC(=O)NC1=O)C2=O

>  <inchikey>  (71) 
KEOMYAMMYWSPNJ-ONTIZHBOSA-N

>  <distance_score>  (71) 
1.280459

>  <ref_mols>  (71) 
Z3452a,Z3506a

>  <ref_pdb>  (71) 
Z3506a

>  <HIPPO Compound ID>  (71) 
135381

>  <name>  (71) 
P68505

>  <inspiration_score>  (71) 
None

$$$$
P68506
     RDKit          3D

 39 43  0  0  0  0  0  0  0  0999 V2000
   -4.2828    5.5549  -20.0327 C   0  0  0  0  0  0  0  0  0  0  0  0
   -5.2492    5.3206  -18.9118 C   0  0  0  0  0  0  0  0  0  0  0  0
   -6.4109    4.5554  -19.1254 C   0  0  0  0  0  0  0  0  0  0  0  0
   -7.3723    4.3601  -18.1319 C   0  0  0  0  0  0  0  0  0  0  0  0
   -7.1312    4.9096  -16.8976 C   0  0  0  0  0  0  0  0  0  0  0  0
   -5.9656    5.6631  -16.6714 C   0  0  0  0  0  0  0  0  0  0  0  0
   -5.0142    5.8635  -17.6539 C   0  0  0  0  0  0  0  0  0  0  0  0
   -5.9772    6.2788  -15.3134 C   0  0  2  0  0  0  0  0  0  0  0  0
   -5.0049    5.7203  -14.4095 N   0  0  0  0  0  0  0  0  0  0  0  0
   -4.9005    4.3305  -13.8075 C   0  0  0  0  0  0  0  0  0  0  0  0
   -5.6201    3.4253  -13.8770 O   0  0  0  0  0  0  0  0  0  0  0  0
   -3.7583    4.3696  -13.0716 O   0  0  0  0  0  0  0  0  0  0  0  0
   -3.3634    3.2565  -12.2270 C   0  0  0  0  0  0  0  0  0  0  0  0
   -4.4543    2.8763  -11.2184 C   0  0  0  0  0  0  0  0  0  0  0  0
   -2.1426    3.7686  -11.4471 C   0  0  0  0  0  0  0  0  0  0  0  0
   -2.9350    2.0617  -13.0806 C   0  0  0  0  0  0  0  0  0  0  0  0
   -7.4681    6.1075  -14.9812 C   0  0  2  0  0  0  0  0  0  0  0  0
   -7.7086    6.4899  -13.5503 C   0  0  0  0  0  0  0  0  0  0  0  0
   -7.7725    7.6168  -13.2500 O   0  0  0  0  0  0  0  0  0  0  0  0
   -7.7321    5.2199  -12.6768 N   0  0  0  0  0  0  0  0  0  0  0  0
   -7.7430    5.0766  -11.3115 C   0  0  0  0  0  0  0  0  0  0  0  0
   -7.3527    6.1674  -10.5044 C   0  0  0  0  0  0  0  0  0  0  0  0
   -7.2713    6.0398   -9.1246 C   0  0  0  0  0  0  0  0  0  0  0  0
   -7.6337    4.8215   -8.6069 C   0  0  0  0  0  0  0  0  0  0  0  0
   -8.0653    3.7821   -9.4007 C   0  0  0  0  0  0  0  0  0  0  0  0
   -8.1035    3.8526  -10.7711 C   0  0  0  0  0  0  0  0  0  0  0  0
   -8.6401    2.7824   -8.5364 C   0  0  0  0  0  0  0  0  0  0  0  0
   -9.2329    1.8436   -9.0304 O   0  0  0  0  0  0  0  0  0  0  0  0
   -8.5128    3.2577   -7.2457 N   0  0  0  0  0  0  0  0  0  0  0  0
   -9.3804    2.8595   -6.2110 C   0  0  0  0  0  0  0  0  0  0  0  0
  -10.1940    1.7483   -6.4024 C   0  0  0  0  0  0  0  0  0  0  0  0
  -11.3271    1.5948   -5.6404 C   0  0  0  0  0  0  0  0  0  0  0  0
  -11.6013    2.4658   -4.6208 C   0  0  0  0  0  0  0  0  0  0  0  0
  -12.7345    2.2941   -3.9299 F   0  0  0  0  0  0  0  0  0  0  0  0
  -10.7157    3.4781   -4.2954 C   0  0  0  0  0  0  0  0  0  0  0  0
   -9.6017    3.6799   -5.0941 C   0  0  0  0  0  0  0  0  0  0  0  0
   -7.8108    4.4376   -7.2230 C   0  0  0  0  0  0  0  0  0  0  0  0
   -7.4046    5.1429   -6.3143 O   0  0  0  0  0  0  0  0  0  0  0  0
   -7.9832    4.8406  -15.6655 C   0  0  0  0  0  0  0  0  0  0  0  0
  1  2  1  0
  2  3  2  0
  3  4  1  0
  4  5  2  0
  5  6  1  0
  6  7  2  0
  6  8  1  0
  8  9  1  1
  9 10  1  0
 10 11  2  0
 10 12  1  0
 12 13  1  0
 13 14  1  0
 13 15  1  0
 13 16  1  0
  8 17  1  0
 17 18  1  1
 18 19  2  0
 18 20  1  0
 20 21  1  0
 21 22  2  0
 22 23  1  0
 23 24  2  0
 24 25  1  0
 25 26  2  0
 25 27  1  0
 27 28  2  0
 27 29  1  0
 29 30  1  0
 30 31  2  0
 31 32  1  0
 32 33  2  0
 33 34  1  0
 33 35  1  0
 35 36  2  0
 29 37  1  0
 37 38  2  0
 17 39  1  0
  7  2  1  0
 26 21  1  0
 36 30  1  0
 39  5  1  0
 37 24  1  0
M  END
>  <energy_score>  (72) 
-18.734732

>  <alias>  (72) 
None

>  <HIPPO Pose ID>  (72) 
68506

>  <smiles>  (72) 
Cc1ccc2c(c1)[C@H](NC(=O)OC(C)(C)C)[C@H](C(=O)Nc1ccc3c(c1)C(=O)N(c1ccc(F)cc1)C3=O)C2

>  <inchikey>  (72) 
FXAJSMVYAJDSMW-RPBOFIJWSA-N

>  <distance_score>  (72) 
1.343633

>  <ref_mols>  (72) 
Z3452a,Z3506a

>  <ref_pdb>  (72) 
Z3506a

>  <HIPPO Compound ID>  (72) 
135382

>  <name>  (72) 
P68506

>  <inspiration_score>  (72) 
None

$$$$
P68507
     RDKit          3D

 39 43  0  0  0  0  0  0  0  0999 V2000
   -3.8331    5.3699  -19.0528 C   0  0  0  0  0  0  0  0  0  0  0  0
   -5.1222    5.0970  -18.3401 C   0  0  0  0  0  0  0  0  0  0  0  0
   -6.2750    4.7510  -19.0602 C   0  0  0  0  0  0  0  0  0  0  0  0
   -7.4968    4.4958  -18.4284 C   0  0  0  0  0  0  0  0  0  0  0  0
   -7.5390    4.5320  -17.0549 C   0  0  0  0  0  0  0  0  0  0  0  0
   -6.3845    4.8186  -16.3272 C   0  0  0  0  0  0  0  0  0  0  0  0
   -5.1821    5.1286  -16.9487 C   0  0  0  0  0  0  0  0  0  0  0  0
   -6.6551    4.7578  -14.8651 C   0  0  2  0  0  0  0  0  0  0  0  0
   -5.6607    4.0087  -14.1411 N   0  0  0  0  0  0  0  0  0  0  0  0
   -4.9275    4.3311  -12.8547 C   0  0  0  0  0  0  0  0  0  0  0  0
   -4.9426    5.2855  -12.2011 O   0  0  0  0  0  0  0  0  0  0  0  0
   -4.2462    3.1935  -12.5597 O   0  0  0  0  0  0  0  0  0  0  0  0
   -3.5250    3.0691  -11.3050 C   0  0  0  0  0  0  0  0  0  0  0  0
   -2.9263    1.6546  -11.3340 C   0  0  0  0  0  0  0  0  0  0  0  0
   -2.3779    4.0818  -11.2182 C   0  0  0  0  0  0  0  0  0  0  0  0
   -4.4734    3.1694  -10.1034 C   0  0  0  0  0  0  0  0  0  0  0  0
   -8.0609    4.0890  -14.8002 C   0  0  1  0  0  0  0  0  0  0  0  0
   -8.7428    4.8486  -13.6931 C   0  0  0  0  0  0  0  0  0  0  0  0
   -9.4561    5.7582  -13.8782 O   0  0  0  0  0  0  0  0  0  0  0  0
   -8.2112    4.2362  -12.3606 N   0  0  0  0  0  0  0  0  0  0  0  0
   -8.3659    4.6569  -11.0623 C   0  0  0  0  0  0  0  0  0  0  0  0
   -8.3435    6.0670  -10.9278 C   0  0  0  0  0  0  0  0  0  0  0  0
   -8.3296    6.6602   -9.6908 C   0  0  0  0  0  0  0  0  0  0  0  0
   -8.4078    5.7964   -8.6344 C   0  0  0  0  0  0  0  0  0  0  0  0
   -8.4750    4.4127   -8.7313 C   0  0  0  0  0  0  0  0  0  0  0  0
   -8.3962    3.7933   -9.9628 C   0  0  0  0  0  0  0  0  0  0  0  0
   -8.6530    3.9315   -7.3478 C   0  0  0  0  0  0  0  0  0  0  0  0
   -8.5962    2.7773   -6.9828 O   0  0  0  0  0  0  0  0  0  0  0  0
   -8.8429    5.0539   -6.5718 N   0  0  0  0  0  0  0  0  0  0  0  0
   -8.8492    5.1805   -5.1367 C   0  0  2  0  0  0  0  0  0  0  0  0
   -7.4664    5.2613   -4.5316 C   0  0  0  0  0  0  0  0  0  0  0  0
   -7.3565    3.9380   -3.8815 C   0  0  0  0  0  0  0  0  0  0  0  0
   -6.2798    3.4615   -3.5543 O   0  0  0  0  0  0  0  0  0  0  0  0
   -8.5924    3.4047   -3.7171 N   0  0  0  0  0  0  0  0  0  0  0  0
   -9.5382    4.0462   -4.4467 C   0  0  0  0  0  0  0  0  0  0  0  0
  -10.7182    3.7604   -4.5488 O   0  0  0  0  0  0  0  0  0  0  0  0
   -8.4846    6.1714   -7.2534 C   0  0  0  0  0  0  0  0  0  0  0  0
   -8.1684    7.2630   -6.8166 O   0  0  0  0  0  0  0  0  0  0  0  0
   -8.7178    4.2919  -16.1723 C   0  0  0  0  0  0  0  0  0  0  0  0
  1  2  1  0
  2  3  2  0
  3  4  1  0
  4  5  2  0
  5  6  1  0
  6  7  2  0
  6  8  1  0
  8  9  1  1
  9 10  1  0
 10 11  2  0
 10 12  1  0
 12 13  1  0
 13 14  1  0
 13 15  1  0
 13 16  1  0
  8 17  1  0
 17 18  1  1
 18 19  2  0
 18 20  1  0
 20 21  1  0
 21 22  2  0
 22 23  1  0
 23 24  2  0
 24 25  1  0
 25 26  2  0
 25 27  1  0
 27 28  2  0
 27 29  1  0
 30 29  1  6
 30 31  1  0
 31 32  1  0
 32 33  2  0
 32 34  1  0
 34 35  1  0
 35 36  2  0
 29 37  1  0
 37 38  2  0
 17 39  1  0
  7  2  1  0
 26 21  1  0
 35 30  1  0
 39  5  1  0
 37 24  1  0
M  END
>  <energy_score>  (73) 
-14.931308

>  <alias>  (73) 
None

>  <HIPPO Pose ID>  (73) 
68507

>  <smiles>  (73) 
Cc1ccc2c(c1)[C@H](NC(=O)OC(C)(C)C)[C@@H](C(=O)Nc1ccc3c(c1)C(=O)N([C@@H]1CC(=O)NC1=O)C3=O)C2

>  <inchikey>  (73) 
LZKCAZUQAYNXJG-VWPQPMDRSA-N

>  <distance_score>  (73) 
1.599063

>  <ref_mols>  (73) 
Z3452a,Z3506a

>  <ref_pdb>  (73) 
Z3506a

>  <HIPPO Compound ID>  (73) 
135384

>  <name>  (73) 
P68507

>  <inspiration_score>  (73) 
None

$$$$
P68511
     RDKit          3D

 39 43  0  0  0  0  0  0  0  0999 V2000
   -0.2019    6.4883  -15.6307 C   0  0  0  0  0  0  0  0  0  0  0  0
   -0.8070    6.0217  -14.3023 C   0  0  0  0  0  0  0  0  0  0  0  0
   -0.7910    7.1312  -13.2427 C   0  0  0  0  0  0  0  0  0  0  0  0
    0.0228    4.8422  -13.7720 C   0  0  0  0  0  0  0  0  0  0  0  0
   -2.1436    5.4837  -14.4907 O   0  0  0  0  0  0  0  0  0  0  0  0
   -3.1648    6.2881  -14.8962 C   0  0  0  0  0  0  0  0  0  0  0  0
   -3.0220    7.4293  -15.2004 O   0  0  0  0  0  0  0  0  0  0  0  0
   -4.3141    5.4865  -14.8533 N   0  0  0  0  0  0  0  0  0  0  0  0
   -5.7008    5.8088  -15.0715 C   0  0  1  0  0  0  0  0  0  0  0  0
   -6.2180    5.3007  -16.3811 C   0  0  0  0  0  0  0  0  0  0  0  0
   -5.5970    5.3409  -17.6194 C   0  0  0  0  0  0  0  0  0  0  0  0
   -6.2983    4.8560  -18.7185 C   0  0  0  0  0  0  0  0  0  0  0  0
   -7.6079    4.3702  -18.5716 C   0  0  0  0  0  0  0  0  0  0  0  0
   -8.2267    4.3627  -17.3288 C   0  0  0  0  0  0  0  0  0  0  0  0
   -9.5015    3.9205  -17.1741 O   0  0  0  0  0  0  0  0  0  0  0  0
   -7.5222    4.8100  -16.2351 C   0  0  0  0  0  0  0  0  0  0  0  0
   -7.9835    4.8970  -14.8174 C   0  0  0  0  0  0  0  0  0  0  0  0
   -6.6507    5.0987  -14.0778 C   0  0  2  0  0  0  0  0  0  0  0  0
   -6.8412    5.9303  -12.8177 C   0  0  0  0  0  0  0  0  0  0  0  0
   -6.4623    7.0678  -12.8003 O   0  0  0  0  0  0  0  0  0  0  0  0
   -7.4280    5.1142  -11.7767 N   0  0  0  0  0  0  0  0  0  0  0  0
   -7.6426    5.3739  -10.4259 C   0  0  0  0  0  0  0  0  0  0  0  0
   -7.2802    6.6295   -9.8952 C   0  0  0  0  0  0  0  0  0  0  0  0
   -7.3352    6.8825   -8.5272 C   0  0  0  0  0  0  0  0  0  0  0  0
   -7.7743    5.8663   -7.7087 C   0  0  0  0  0  0  0  0  0  0  0  0
   -8.1947    4.6476   -8.2409 C   0  0  0  0  0  0  0  0  0  0  0  0
   -8.1378    4.3662   -9.5946 C   0  0  0  0  0  0  0  0  0  0  0  0
   -8.6694    3.8206   -7.1225 C   0  0  0  0  0  0  0  0  0  0  0  0
   -9.2018    2.7356   -7.2316 O   0  0  0  0  0  0  0  0  0  0  0  0
   -8.4572    4.5571   -5.9611 N   0  0  0  0  0  0  0  0  0  0  0  0
   -8.7270    4.0455   -4.6228 C   0  0  2  0  0  0  0  0  0  0  0  0
   -9.9211    4.7447   -3.9699 C   0  0  0  0  0  0  0  0  0  0  0  0
   -9.5070    5.9655   -3.1603 C   0  0  0  0  0  0  0  0  0  0  0  0
   -8.4502    5.6166   -2.1483 C   0  0  0  0  0  0  0  0  0  0  0  0
   -8.2180    6.3238   -1.1721 O   0  0  0  0  0  0  0  0  0  0  0  0
   -7.6757    4.5292   -2.4310 N   0  0  0  0  0  0  0  0  0  0  0  0
   -7.4817    4.0788   -3.7126 C   0  0  0  0  0  0  0  0  0  0  0  0
   -6.3425    3.7637   -4.0597 O   0  0  0  0  0  0  0  0  0  0  0  0
   -7.8750    5.8547   -6.2277 C   0  0  0  0  0  0  0  0  0  0  0  0
  1  2  1  0
  2  3  1  0
  2  4  1  0
  2  5  1  0
  5  6  1  0
  6  7  2  0
  6  8  1  0
  9  8  1  1
  9 10  1  0
 10 11  2  0
 11 12  1  0
 12 13  2  0
 13 14  1  0
 14 15  1  0
 14 16  2  0
 16 17  1  0
 17 18  1  0
 18 19  1  1
 19 20  2  0
 19 21  1  0
 21 22  1  0
 22 23  2  0
 23 24  1  0
 24 25  2  0
 25 26  1  0
 26 27  2  0
 26 28  1  0
 28 29  2  0
 28 30  1  0
 31 30  1  6
 31 32  1  0
 32 33  1  0
 33 34  1  0
 34 35  2  0
 34 36  1  0
 36 37  1  0
 37 38  2  0
 30 39  1  0
 18  9  1  0
 27 22  1  0
 37 31  1  0
 16 10  1  0
 39 25  1  0
M  END
>  <energy_score>  (74) 
-53.928595

>  <alias>  (74) 
None

>  <HIPPO Pose ID>  (74) 
68511

>  <smiles>  (74) 
CC(C)(C)OC(=O)N[C@H]1c2cccc(O)c2C[C@@H]1C(=O)Nc1ccc2c(c1)C(=O)N([C@@H]1CCC(=O)NC1=O)C2

>  <inchikey>  (74) 
WWSMPJLXSGJDNM-MZKRTTBSSA-N

>  <distance_score>  (74) 
1.831815

>  <ref_mols>  (74) 
Z3452a,Z3506a

>  <ref_pdb>  (74) 
Z3506a

>  <HIPPO Compound ID>  (74) 
135385

>  <name>  (74) 
P68511

>  <inspiration_score>  (74) 
None

$$$$
P68513
     RDKit          3D

 39 43  0  0  0  0  0  0  0  0999 V2000
   -5.1548   10.4368  -12.2571 C   0  0  0  0  0  0  0  0  0  0  0  0
   -6.2258   10.4819  -13.3525 C   0  0  0  0  0  0  0  0  0  0  0  0
   -7.6330   10.6584  -12.7705 C   0  0  0  0  0  0  0  0  0  0  0  0
   -5.9289   11.6668  -14.2840 C   0  0  0  0  0  0  0  0  0  0  0  0
   -6.1484    9.3126  -14.2111 O   0  0  0  0  0  0  0  0  0  0  0  0
   -6.3743    8.0680  -13.7180 C   0  0  0  0  0  0  0  0  0  0  0  0
   -6.6303    7.8283  -12.6168 O   0  0  0  0  0  0  0  0  0  0  0  0
   -6.1863    7.1499  -14.9024 N   0  0  0  0  0  0  0  0  0  0  0  0
   -6.3654    5.7179  -15.0220 C   0  0  2  0  0  0  0  0  0  0  0  0
   -6.1911    5.3288  -16.4494 C   0  0  0  0  0  0  0  0  0  0  0  0
   -5.0363    5.4766  -17.2094 C   0  0  0  0  0  0  0  0  0  0  0  0
   -5.0821    5.1318  -18.5525 C   0  0  0  0  0  0  0  0  0  0  0  0
   -6.2792    4.6804  -19.1108 C   0  0  0  0  0  0  0  0  0  0  0  0
   -7.4323    4.5548  -18.3369 C   0  0  0  0  0  0  0  0  0  0  0  0
   -8.6167    4.2244  -18.9166 O   0  0  0  0  0  0  0  0  0  0  0  0
   -7.3727    4.8300  -16.9930 C   0  0  0  0  0  0  0  0  0  0  0  0
   -8.4440    4.6723  -15.9712 C   0  0  0  0  0  0  0  0  0  0  0  0
   -7.8036    5.2535  -14.6943 C   0  0  1  0  0  0  0  0  0  0  0  0
   -7.7441    4.2407  -13.5467 C   0  0  0  0  0  0  0  0  0  0  0  0
   -7.9592    3.1012  -13.6564 O   0  0  0  0  0  0  0  0  0  0  0  0
   -7.4049    5.0828  -12.2882 N   0  0  0  0  0  0  0  0  0  0  0  0
   -7.3578    4.7249  -10.9587 C   0  0  0  0  0  0  0  0  0  0  0  0
   -6.6336    5.5938  -10.1206 C   0  0  0  0  0  0  0  0  0  0  0  0
   -6.5971    5.3858   -8.7538 C   0  0  0  0  0  0  0  0  0  0  0  0
   -7.3489    4.3370   -8.2749 C   0  0  0  0  0  0  0  0  0  0  0  0
   -8.0975    3.5073   -9.0834 C   0  0  0  0  0  0  0  0  0  0  0  0
   -8.0850    3.6398  -10.4574 C   0  0  0  0  0  0  0  0  0  0  0  0
   -9.0488    2.8257   -8.2081 C   0  0  0  0  0  0  0  0  0  0  0  0
   -9.9538    2.1359   -8.6286 O   0  0  0  0  0  0  0  0  0  0  0  0
   -8.8393    3.3146   -6.9337 N   0  0  0  0  0  0  0  0  0  0  0  0
   -9.9747    3.5401   -6.0510 C   0  0  2  0  0  0  0  0  0  0  0  0
  -10.1343    4.9965   -5.6133 C   0  0  0  0  0  0  0  0  0  0  0  0
   -9.3971    5.4267   -4.3357 C   0  0  0  0  0  0  0  0  0  0  0  0
   -8.8074    4.2656   -3.5621 C   0  0  0  0  0  0  0  0  0  0  0  0
   -9.6519    3.1182   -3.6698 N   0  0  0  0  0  0  0  0  0  0  0  0
  -10.1433    2.6545   -4.8632 C   0  0  0  0  0  0  0  0  0  0  0  0
  -10.7210    1.5782   -4.9439 O   0  0  0  0  0  0  0  0  0  0  0  0
   -7.7310    4.1107   -6.8993 C   0  0  0  0  0  0  0  0  0  0  0  0
   -7.1805    4.6932   -5.9816 O   0  0  0  0  0  0  0  0  0  0  0  0
  1  2  1  0
  2  3  1  0
  2  4  1  0
  2  5  1  0
  5  6  1  0
  6  7  2  0
  6  8  1  0
  9  8  1  6
  9 10  1  0
 10 11  2  0
 11 12  1  0
 12 13  2  0
 13 14  1  0
 14 15  1  0
 14 16  2  0
 16 17  1  0
 17 18  1  0
 18 19  1  1
 19 20  2  0
 19 21  1  0
 21 22  1  0
 22 23  2  0
 23 24  1  0
 24 25  2  0
 25 26  1  0
 26 27  2  0
 26 28  1  0
 28 29  2  0
 28 30  1  0
 31 30  1  1
 31 32  1  0
 32 33  1  0
 33 34  1  0
 34 35  1  0
 35 36  1  0
 36 37  2  0
 30 38  1  0
 38 39  2  0
 18  9  1  0
 27 22  1  0
 36 31  1  0
 16 10  1  0
 38 25  1  0
M  END
>  <energy_score>  (75) 
-19.579894

>  <alias>  (75) 
None

>  <HIPPO Pose ID>  (75) 
68513

>  <smiles>  (75) 
CC(C)(C)OC(=O)N[C@@H]1c2cccc(O)c2C[C@H]1C(=O)Nc1ccc2c(c1)C(=O)N([C@@H]1CCCNC1=O)C2=O

>  <inchikey>  (75) 
YBESJQAPEQHKPK-KCZVDYSFSA-N

>  <distance_score>  (75) 
1.373575

>  <ref_mols>  (75) 
Z3452a,Z3506a

>  <ref_pdb>  (75) 
Z3506a

>  <HIPPO Compound ID>  (75) 
135386

>  <name>  (75) 
P68513

>  <inspiration_score>  (75) 
None

$$$$
P68515
     RDKit          3D

 39 43  0  0  0  0  0  0  0  0999 V2000
   -6.0070    8.4124   -9.8328 C   0  0  0  0  0  0  0  0  0  0  0  0
   -7.3649    8.4081  -10.5505 C   0  0  0  0  0  0  0  0  0  0  0  0
   -8.4071    7.7696   -9.6252 C   0  0  0  0  0  0  0  0  0  0  0  0
   -7.7347    9.8517  -10.9097 C   0  0  0  0  0  0  0  0  0  0  0  0
   -7.1448    7.6199  -11.7526 O   0  0  0  0  0  0  0  0  0  0  0  0
   -8.1638    7.3602  -12.6122 C   0  0  0  0  0  0  0  0  0  0  0  0
   -9.2558    7.7148  -12.4692 O   0  0  0  0  0  0  0  0  0  0  0  0
   -7.5251    6.5758  -13.7395 N   0  0  0  0  0  0  0  0  0  0  0  0
   -8.1068    5.9710  -14.8978 C   0  0  1  0  0  0  0  0  0  0  0  0
   -7.2185    5.8313  -16.0999 C   0  0  0  0  0  0  0  0  0  0  0  0
   -6.1130    6.5596  -16.5090 C   0  0  0  0  0  0  0  0  0  0  0  0
   -5.5773    6.2995  -17.7721 C   0  0  0  0  0  0  0  0  0  0  0  0
   -6.2014    5.3877  -18.6281 C   0  0  0  0  0  0  0  0  0  0  0  0
   -7.3244    4.6873  -18.2056 C   0  0  0  0  0  0  0  0  0  0  0  0
   -8.0577    3.9644  -19.0896 O   0  0  0  0  0  0  0  0  0  0  0  0
   -7.7548    4.8267  -16.9107 C   0  0  0  0  0  0  0  0  0  0  0  0
   -8.8375    4.0845  -16.2018 C   0  0  0  0  0  0  0  0  0  0  0  0
   -8.6718    4.5342  -14.7485 C   0  0  1  0  0  0  0  0  0  0  0  0
   -7.6597    3.8577  -13.8081 C   0  0  0  0  0  0  0  0  0  0  0  0
   -6.5816    3.5232  -14.1216 O   0  0  0  0  0  0  0  0  0  0  0  0
   -8.3600    3.8406  -12.4059 N   0  0  0  0  0  0  0  0  0  0  0  0
   -7.8625    3.5145  -11.1603 C   0  0  0  0  0  0  0  0  0  0  0  0
   -6.5700    4.0101  -10.8961 C   0  0  0  0  0  0  0  0  0  0  0  0
   -6.1885    4.3042   -9.5958 C   0  0  0  0  0  0  0  0  0  0  0  0
   -7.0943    4.0124   -8.6020 C   0  0  0  0  0  0  0  0  0  0  0  0
   -8.2952    3.3875   -8.8379 C   0  0  0  0  0  0  0  0  0  0  0  0
   -8.7292    3.1512  -10.1271 C   0  0  0  0  0  0  0  0  0  0  0  0
   -8.9545    3.2333   -7.5417 C   0  0  0  0  0  0  0  0  0  0  0  0
  -10.0156    2.6495   -7.4332 O   0  0  0  0  0  0  0  0  0  0  0  0
   -8.1666    3.8831   -6.6043 N   0  0  0  0  0  0  0  0  0  0  0  0
   -8.4991    4.1279   -5.2407 C   0  0  0  0  0  0  0  0  0  0  0  0
   -7.5701    4.7084   -4.3478 C   0  0  0  0  0  0  0  0  0  0  0  0
   -7.9016    5.0112   -3.0237 C   0  0  0  0  0  0  0  0  0  0  0  0
   -9.1779    4.7430   -2.5745 C   0  0  0  0  0  0  0  0  0  0  0  0
   -9.5189    5.0406   -1.3143 F   0  0  0  0  0  0  0  0  0  0  0  0
  -10.1080    4.1727   -3.4259 C   0  0  0  0  0  0  0  0  0  0  0  0
   -9.7737    3.8488   -4.7425 C   0  0  0  0  0  0  0  0  0  0  0  0
   -7.0358    4.3836   -7.2040 C   0  0  0  0  0  0  0  0  0  0  0  0
   -6.1279    5.0887   -6.7901 O   0  0  0  0  0  0  0  0  0  0  0  0
  1  2  1  0
  2  3  1  0
  2  4  1  0
  2  5  1  0
  5  6  1  0
  6  7  2  0
  6  8  1  0
  9  8  1  1
  9 10  1  0
 10 11  2  0
 11 12  1  0
 12 13  2  0
 13 14  1  0
 14 15  1  0
 14 16  2  0
 16 17  1  0
 17 18  1  0
 18 19  1  1
 19 20  2  0
 19 21  1  0
 21 22  1  0
 22 23  2  0
 23 24  1  0
 24 25  2  0
 25 26  1  0
 26 27  2  0
 26 28  1  0
 28 29  2  0
 28 30  1  0
 30 31  1  0
 31 32  2  0
 32 33  1  0
 33 34  2  0
 34 35  1  0
 34 36  1  0
 36 37  2  0
 30 38  1  0
 38 39  2  0
 18  9  1  0
 27 22  1  0
 37 31  1  0
 16 10  1  0
 38 25  1  0
M  END
>  <energy_score>  (76) 
-36.137441

>  <alias>  (76) 
None

>  <HIPPO Pose ID>  (76) 
68515

>  <smiles>  (76) 
CC(C)(C)OC(=O)N[C@H]1c2cccc(O)c2C[C@H]1C(=O)Nc1ccc2c(c1)C(=O)N(c1ccc(F)cc1)C2=O

>  <inchikey>  (76) 
BCZKEFBTCUJOMR-VWNXMTODSA-N

>  <distance_score>  (76) 
1.646661

>  <ref_mols>  (76) 
Z3452a,Z3506a

>  <ref_pdb>  (76) 
Z3506a

>  <HIPPO Compound ID>  (76) 
135387

>  <name>  (76) 
P68515

>  <inspiration_score>  (76) 
None

$$$$
P68519
     RDKit          3D

 39 43  0  0  0  0  0  0  0  0999 V2000
   -4.5462    3.7998   -9.8809 C   0  0  0  0  0  0  0  0  0  0  0  0
   -3.8599    3.2084  -11.1169 C   0  0  0  0  0  0  0  0  0  0  0  0
   -2.4063    3.6818  -11.2427 C   0  0  0  0  0  0  0  0  0  0  0  0
   -3.8595    1.6789  -10.9765 C   0  0  0  0  0  0  0  0  0  0  0  0
   -4.6062    3.4716  -12.3390 O   0  0  0  0  0  0  0  0  0  0  0  0
   -4.7806    4.7535  -12.7664 C   0  0  0  0  0  0  0  0  0  0  0  0
   -4.4148    5.6900  -12.1932 O   0  0  0  0  0  0  0  0  0  0  0  0
   -5.5174    4.6334  -14.0881 N   0  0  0  0  0  0  0  0  0  0  0  0
   -6.0520    5.6464  -14.9542 C   0  0  1  0  0  0  0  0  0  0  0  0
   -6.0534    5.2023  -16.3836 C   0  0  0  0  0  0  0  0  0  0  0  0
   -4.9841    5.2481  -17.2625 C   0  0  0  0  0  0  0  0  0  0  0  0
   -5.2200    4.9023  -18.5844 C   0  0  0  0  0  0  0  0  0  0  0  0
   -6.5078    4.5361  -18.9949 C   0  0  0  0  0  0  0  0  0  0  0  0
   -7.5806    4.5117  -18.1035 C   0  0  0  0  0  0  0  0  0  0  0  0
   -8.8426    4.2800  -18.5492 O   0  0  0  0  0  0  0  0  0  0  0  0
   -7.3465    4.8050  -16.7837 C   0  0  0  0  0  0  0  0  0  0  0  0
   -8.3006    4.8751  -15.6236 C   0  0  0  0  0  0  0  0  0  0  0  0
   -7.5539    5.9424  -14.8249 C   0  0  1  0  0  0  0  0  0  0  0  0
   -7.9748    6.3661  -13.4425 C   0  0  0  0  0  0  0  0  0  0  0  0
   -8.1013    7.5082  -13.2185 O   0  0  0  0  0  0  0  0  0  0  0  0
   -8.0727    5.1385  -12.4969 N   0  0  0  0  0  0  0  0  0  0  0  0
   -8.2449    5.0722  -11.1195 C   0  0  0  0  0  0  0  0  0  0  0  0
   -8.2165    6.2953  -10.4071 C   0  0  0  0  0  0  0  0  0  0  0  0
   -8.2993    6.3367   -9.0252 C   0  0  0  0  0  0  0  0  0  0  0  0
   -8.4159    5.1274   -8.3940 C   0  0  0  0  0  0  0  0  0  0  0  0
   -8.4663    3.9172   -9.0684 C   0  0  0  0  0  0  0  0  0  0  0  0
   -8.3808    3.8507  -10.4498 C   0  0  0  0  0  0  0  0  0  0  0  0
   -8.6312    2.8847   -8.0412 C   0  0  0  0  0  0  0  0  0  0  0  0
   -8.8631    1.7177   -8.2740 O   0  0  0  0  0  0  0  0  0  0  0  0
   -8.5536    3.5254   -6.8313 N   0  0  0  0  0  0  0  0  0  0  0  0
   -8.7718    2.9037   -5.5502 C   0  0  2  0  0  0  0  0  0  0  0  0
  -10.1486    3.1858   -4.9462 C   0  0  0  0  0  0  0  0  0  0  0  0
   -9.8274    3.9027   -3.6650 C   0  0  0  0  0  0  0  0  0  0  0  0
  -10.6226    4.4264   -2.9035 O   0  0  0  0  0  0  0  0  0  0  0  0
   -8.5023    3.9082   -3.4392 N   0  0  0  0  0  0  0  0  0  0  0  0
   -7.8012    3.4698   -4.5065 C   0  0  0  0  0  0  0  0  0  0  0  0
   -6.5852    3.5990   -4.5640 O   0  0  0  0  0  0  0  0  0  0  0  0
   -8.5536    4.8752   -6.9763 C   0  0  0  0  0  0  0  0  0  0  0  0
   -8.6956    5.7282   -6.1202 O   0  0  0  0  0  0  0  0  0  0  0  0
  1  2  1  0
  2  3  1  0
  2  4  1  0
  2  5  1  0
  5  6  1  0
  6  7  2  0
  6  8  1  0
  9  8  1  1
  9 10  1  0
 10 11  2  0
 11 12  1  0
 12 13  2  0
 13 14  1  0
 14 15  1  0
 14 16  2  0
 16 17  1  0
 17 18  1  0
 18 19  1  1
 19 20  2  0
 19 21  1  0
 21 22  1  0
 22 23  2  0
 23 24  1  0
 24 25  2  0
 25 26  1  0
 26 27  2  0
 26 28  1  0
 28 29  2  0
 28 30  1  0
 31 30  1  6
 31 32  1  0
 32 33  1  0
 33 34  2  0
 33 35  1  0
 35 36  1  0
 36 37  2  0
 30 38  1  0
 38 39  2  0
 18  9  1  0
 27 22  1  0
 36 31  1  0
 16 10  1  0
 38 25  1  0
M  END
>  <energy_score>  (77) 
-43.189102

>  <alias>  (77) 
None

>  <HIPPO Pose ID>  (77) 
68519

>  <smiles>  (77) 
CC(C)(C)OC(=O)N[C@H]1c2cccc(O)c2C[C@H]1C(=O)Nc1ccc2c(c1)C(=O)N([C@@H]1CC(=O)NC1=O)C2=O

>  <inchikey>  (77) 
IENFMPLYARAULR-OPYAIIAOSA-N

>  <distance_score>  (77) 
1.362493

>  <ref_mols>  (77) 
Z3452a,Z3506a

>  <ref_pdb>  (77) 
Z3506a

>  <HIPPO Compound ID>  (77) 
135388

>  <name>  (77) 
P68519

>  <inspiration_score>  (77) 
None

$$$$
P68526
     RDKit          3D

 39 43  0  0  0  0  0  0  0  0999 V2000
   -5.1720   10.3838  -12.2255 C   0  0  0  0  0  0  0  0  0  0  0  0
   -5.8967   10.6092  -13.5575 C   0  0  0  0  0  0  0  0  0  0  0  0
   -7.3416   11.0763  -13.3502 C   0  0  0  0  0  0  0  0  0  0  0  0
   -5.1422   11.6867  -14.3510 C   0  0  0  0  0  0  0  0  0  0  0  0
   -5.8369    9.4251  -14.3974 O   0  0  0  0  0  0  0  0  0  0  0  0
   -6.3898    8.2531  -13.9910 C   0  0  0  0  0  0  0  0  0  0  0  0
   -6.9816    8.1058  -13.0086 O   0  0  0  0  0  0  0  0  0  0  0  0
   -6.0716    7.2766  -15.1001 N   0  0  0  0  0  0  0  0  0  0  0  0
   -6.3324    5.8562  -15.2081 C   0  0  2  0  0  0  0  0  0  0  0  0
   -6.1428    5.4256  -16.6224 C   0  0  0  0  0  0  0  0  0  0  0  0
   -4.9832    5.5522  -17.3779 C   0  0  0  0  0  0  0  0  0  0  0  0
   -5.0132    5.1486  -18.7052 C   0  0  0  0  0  0  0  0  0  0  0  0
   -6.1969    4.6501  -19.2518 C   0  0  0  0  0  0  0  0  0  0  0  0
   -7.3504    4.5320  -18.4792 C   0  0  0  0  0  0  0  0  0  0  0  0
   -8.5237    4.1445  -19.0457 O   0  0  0  0  0  0  0  0  0  0  0  0
   -7.3092    4.8791  -17.1539 C   0  0  0  0  0  0  0  0  0  0  0  0
   -8.3897    4.7400  -16.1441 C   0  0  0  0  0  0  0  0  0  0  0  0
   -7.7961    5.4476  -14.9132 C   0  0  1  0  0  0  0  0  0  0  0  0
   -7.7487    4.5113  -13.7172 C   0  0  0  0  0  0  0  0  0  0  0  0
   -7.7533    3.3473  -13.7933 O   0  0  0  0  0  0  0  0  0  0  0  0
   -7.6128    5.4377  -12.4783 N   0  0  0  0  0  0  0  0  0  0  0  0
   -7.5534    5.1338  -11.1392 C   0  0  0  0  0  0  0  0  0  0  0  0
   -7.2744    6.1824  -10.2440 C   0  0  0  0  0  0  0  0  0  0  0  0
   -7.1933    5.9351   -8.8821 C   0  0  0  0  0  0  0  0  0  0  0  0
   -7.4202    4.6385   -8.4799 C   0  0  0  0  0  0  0  0  0  0  0  0
   -7.7330    3.6070   -9.3553 C   0  0  0  0  0  0  0  0  0  0  0  0
   -7.7825    3.8285  -10.7075 C   0  0  0  0  0  0  0  0  0  0  0  0
   -8.0730    2.3855   -8.5846 C   0  0  0  0  0  0  0  0  0  0  0  0
   -8.3316    2.9429   -7.2399 N   0  0  0  0  0  0  0  0  0  0  0  0
   -9.7457    3.0499   -6.9416 C   0  0  2  0  0  0  0  0  0  0  0  0
  -10.2134    4.1055   -5.9177 C   0  0  0  0  0  0  0  0  0  0  0  0
  -10.2424    3.5465   -4.5363 C   0  0  2  0  0  0  0  0  0  0  0  0
   -8.9813    3.3128   -4.1080 F   0  0  0  0  0  0  0  0  0  0  0  0
  -11.0831    2.2797   -4.5464 C   0  0  0  0  0  0  0  0  0  0  0  0
  -11.2982    1.5809   -5.7649 N   0  0  0  0  0  0  0  0  0  0  0  0
  -10.3608    1.6714   -6.7392 C   0  0  0  0  0  0  0  0  0  0  0  0
  -10.1528    0.7034   -7.4588 O   0  0  0  0  0  0  0  0  0  0  0  0
   -7.6252    4.1499   -7.1235 C   0  0  0  0  0  0  0  0  0  0  0  0
   -7.3529    4.7976   -6.1275 O   0  0  0  0  0  0  0  0  0  0  0  0
  1  2  1  0
  2  3  1  0
  2  4  1  0
  2  5  1  0
  5  6  1  0
  6  7  2  0
  6  8  1  0
  9  8  1  6
  9 10  1  0
 10 11  2  0
 11 12  1  0
 12 13  2  0
 13 14  1  0
 14 15  1  0
 14 16  2  0
 16 17  1  0
 17 18  1  0
 18 19  1  1
 19 20  2  0
 19 21  1  0
 21 22  1  0
 22 23  2  0
 23 24  1  0
 24 25  2  0
 25 26  1  0
 26 27  2  0
 26 28  1  0
 28 29  1  0
 30 29  1  1
 30 31  1  0
 31 32  1  0
 32 33  1  6
 32 34  1  0
 34 35  1  0
 35 36  1  0
 36 37  2  0
 29 38  1  0
 38 39  2  0
 18  9  1  0
 27 22  1  0
 36 30  1  0
 16 10  1  0
 38 25  1  0
M  END
>  <energy_score>  (78) 
-23.570624

>  <alias>  (78) 
None

>  <HIPPO Pose ID>  (78) 
68526

>  <smiles>  (78) 
CC(C)(C)OC(=O)N[C@@H]1c2cccc(O)c2C[C@H]1C(=O)Nc1ccc2c(c1)CN([C@@H]1C[C@H](F)CNC1=O)C2=O

>  <inchikey>  (78) 
PTLCISUZDKBGTC-DPXGSNEPSA-N

>  <distance_score>  (78) 
1.354652

>  <ref_mols>  (78) 
Z3452a,Z3506a

>  <ref_pdb>  (78) 
Z3506a

>  <HIPPO Compound ID>  (78) 
135389

>  <name>  (78) 
P68526

>  <inspiration_score>  (78) 
None

$$$$
P68531
     RDKit          3D

 40 44  0  0  0  0  0  0  0  0999 V2000
   -4.1741    5.5735  -19.9520 C   0  0  0  0  0  0  0  0  0  0  0  0
   -5.1912    5.2879  -18.8888 C   0  0  0  0  0  0  0  0  0  0  0  0
   -6.3395    4.5349  -19.1947 C   0  0  0  0  0  0  0  0  0  0  0  0
   -7.3385    4.2729  -18.2536 C   0  0  0  0  0  0  0  0  0  0  0  0
   -7.1497    4.7371  -16.9766 C   0  0  0  0  0  0  0  0  0  0  0  0
   -6.0120    5.5067  -16.6680 C   0  0  0  0  0  0  0  0  0  0  0  0
   -5.0204    5.7698  -17.5960 C   0  0  0  0  0  0  0  0  0  0  0  0
   -6.1243    6.0996  -15.3024 C   0  0  2  0  0  0  0  0  0  0  0  0
   -5.1795    5.5683  -14.3575 N   0  0  0  0  0  0  0  0  0  0  0  0
   -5.1151    4.2119  -13.6843 C   0  0  0  0  0  0  0  0  0  0  0  0
   -5.7675    3.2673  -13.8340 O   0  0  0  0  0  0  0  0  0  0  0  0
   -4.0840    4.3223  -12.8070 O   0  0  0  0  0  0  0  0  0  0  0  0
   -3.6446    3.1907  -12.0112 C   0  0  0  0  0  0  0  0  0  0  0  0
   -3.0128    2.1270  -12.9145 C   0  0  0  0  0  0  0  0  0  0  0  0
   -4.7690    2.6165  -11.1413 C   0  0  0  0  0  0  0  0  0  0  0  0
   -2.5584    3.7587  -11.0851 C   0  0  0  0  0  0  0  0  0  0  0  0
   -7.6265    5.8730  -15.0856 C   0  0  2  0  0  0  0  0  0  0  0  0
   -8.0322    6.2942  -13.7166 C   0  0  0  0  0  0  0  0  0  0  0  0
   -8.1845    7.4388  -13.5274 O   0  0  0  0  0  0  0  0  0  0  0  0
   -8.0837    5.0996  -12.7343 N   0  0  0  0  0  0  0  0  0  0  0  0
   -8.2323    5.0733  -11.3597 C   0  0  0  0  0  0  0  0  0  0  0  0
   -8.2406    6.3519  -10.7464 C   0  0  0  0  0  0  0  0  0  0  0  0
   -8.3674    6.5036   -9.3921 C   0  0  0  0  0  0  0  0  0  0  0  0
   -8.4887    5.3380   -8.6956 C   0  0  0  0  0  0  0  0  0  0  0  0
   -8.4831    4.0649   -9.2449 C   0  0  0  0  0  0  0  0  0  0  0  0
   -8.3460    3.8942  -10.6109 C   0  0  0  0  0  0  0  0  0  0  0  0
   -8.6104    3.1399   -8.1047 C   0  0  0  0  0  0  0  0  0  0  0  0
   -8.6372    1.9316   -8.1930 O   0  0  0  0  0  0  0  0  0  0  0  0
   -8.6416    3.9278   -6.9814 N   0  0  0  0  0  0  0  0  0  0  0  0
   -8.6350    3.5159   -5.6035 C   0  0  1  0  0  0  0  0  0  0  0  0
   -7.5895    4.3270   -4.8152 C   0  0  0  0  0  0  0  0  0  0  0  0
   -7.5830    3.8580   -3.3972 C   0  0  0  0  0  0  0  0  0  0  0  0
   -8.9475    3.9313   -2.7597 C   0  0  0  0  0  0  0  0  0  0  0  0
   -9.0921    3.9443   -1.5396 O   0  0  0  0  0  0  0  0  0  0  0  0
  -10.0200    3.9278   -3.6123 N   0  0  0  0  0  0  0  0  0  0  0  0
  -10.0102    3.7655   -4.9799 C   0  0  0  0  0  0  0  0  0  0  0  0
  -11.0643    3.8274   -5.6081 O   0  0  0  0  0  0  0  0  0  0  0  0
   -8.6443    5.2477   -7.2805 C   0  0  0  0  0  0  0  0  0  0  0  0
   -8.7331    6.2194   -6.5553 O   0  0  0  0  0  0  0  0  0  0  0  0
   -8.0544    4.5959  -15.7858 C   0  0  0  0  0  0  0  0  0  0  0  0
  1  2  1  0
  2  3  2  0
  3  4  1  0
  4  5  2  0
  5  6  1  0
  6  7  2  0
  6  8  1  0
  8  9  1  1
  9 10  1  0
 10 11  2  0
 10 12  1  0
 12 13  1  0
 13 14  1  0
 13 15  1  0
 13 16  1  0
  8 17  1  0
 17 18  1  1
 18 19  2  0
 18 20  1  0
 20 21  1  0
 21 22  2  0
 22 23  1  0
 23 24  2  0
 24 25  1  0
 25 26  2  0
 25 27  1  0
 27 28  2  0
 27 29  1  0
 30 29  1  6
 30 31  1  0
 31 32  1  0
 32 33  1  0
 33 34  2  0
 33 35  1  0
 35 36  1  0
 36 37  2  0
 29 38  1  0
 38 39  2  0
 17 40  1  0
  7  2  1  0
 26 21  1  0
 36 30  1  0
 40  5  1  0
 38 24  1  0
M  END
>  <energy_score>  (79) 
-47.653194

>  <alias>  (79) 
None

>  <HIPPO Pose ID>  (79) 
68531

>  <smiles>  (79) 
Cc1ccc2c(c1)[C@H](NC(=O)OC(C)(C)C)[C@H](C(=O)Nc1ccc3c(c1)C(=O)N([C@H]1CCC(=O)NC1=O)C3=O)C2

>  <inchikey>  (79) 
ACBHHPJDDFSWJG-GIWBLDEGSA-N

>  <distance_score>  (79) 
1.344958

>  <ref_mols>  (79) 
Z3452a,Z3506a

>  <ref_pdb>  (79) 
Z3506a

>  <HIPPO Compound ID>  (79) 
135391

>  <name>  (79) 
P68531

>  <inspiration_score>  (79) 
None

$$$$
P68536
     RDKit          3D

 40 44  0  0  0  0  0  0  0  0999 V2000
   -3.8784    3.8294  -10.4765 C   0  0  0  0  0  0  0  0  0  0  0  0
   -3.1962    3.3029  -11.7466 C   0  0  0  0  0  0  0  0  0  0  0  0
   -1.7656    3.8328  -11.8955 C   0  0  0  0  0  0  0  0  0  0  0  0
   -3.1417    1.7710  -11.6586 C   0  0  0  0  0  0  0  0  0  0  0  0
   -3.9854    3.5794  -12.9356 O   0  0  0  0  0  0  0  0  0  0  0  0
   -4.2622    4.8667  -13.2809 C   0  0  0  0  0  0  0  0  0  0  0  0
   -3.8898    5.7965  -12.7019 O   0  0  0  0  0  0  0  0  0  0  0  0
   -5.1595    4.7603  -14.4982 N   0  0  0  0  0  0  0  0  0  0  0  0
   -5.7247    5.7827  -15.3339 C   0  0  1  0  0  0  0  0  0  0  0  0
   -5.9989    5.2796  -16.7130 C   0  0  0  0  0  0  0  0  0  0  0  0
   -5.1088    5.2225  -17.7674 C   0  0  0  0  0  0  0  0  0  0  0  0
   -5.5857    4.7425  -18.9767 C   0  0  0  0  0  0  0  0  0  0  0  0
   -6.9176    4.3115  -19.0915 C   0  0  0  0  0  0  0  0  0  0  0  0
   -7.8128    4.3998  -18.0342 C   0  0  0  0  0  0  0  0  0  0  0  0
   -9.1133    4.0331  -18.1561 O   0  0  0  0  0  0  0  0  0  0  0  0
   -7.3475    4.8858  -16.8441 C   0  0  0  0  0  0  0  0  0  0  0  0
   -8.0939    5.1073  -15.5672 C   0  0  0  0  0  0  0  0  0  0  0  0
   -7.1615    6.1709  -14.9717 C   0  0  1  0  0  0  0  0  0  0  0  0
   -7.2985    6.6143  -13.5435 C   0  0  0  0  0  0  0  0  0  0  0  0
   -7.1590    7.7396  -13.2575 O   0  0  0  0  0  0  0  0  0  0  0  0
   -7.5245    5.3707  -12.6466 N   0  0  0  0  0  0  0  0  0  0  0  0
   -7.7111    5.2716  -11.2869 C   0  0  0  0  0  0  0  0  0  0  0  0
   -7.3735    6.3778  -10.4779 C   0  0  0  0  0  0  0  0  0  0  0  0
   -7.5989    6.3599   -9.1113 C   0  0  0  0  0  0  0  0  0  0  0  0
   -8.1972    5.2304   -8.6178 C   0  0  0  0  0  0  0  0  0  0  0  0
   -8.5330    4.1489   -9.4101 C   0  0  0  0  0  0  0  0  0  0  0  0
   -8.2679    4.1107  -10.7578 C   0  0  0  0  0  0  0  0  0  0  0  0
   -9.3198    3.2499   -8.5909 C   0  0  0  0  0  0  0  0  0  0  0  0
   -9.8015    2.2207   -9.0113 O   0  0  0  0  0  0  0  0  0  0  0  0
   -9.4210    3.8415   -7.3496 N   0  0  0  0  0  0  0  0  0  0  0  0
  -10.1830    3.2319   -6.2682 C   0  0  2  0  0  0  0  0  0  0  0  0
  -10.3543    4.0090   -4.9696 C   0  0  0  0  0  0  0  0  0  0  0  0
   -9.0957    4.1533   -4.1071 C   0  0  0  0  0  0  0  0  0  0  0  0
   -7.8902    3.3514   -4.5545 C   0  0  0  0  0  0  0  0  0  0  0  0
   -6.7807    3.4749   -4.0247 O   0  0  0  0  0  0  0  0  0  0  0  0
   -8.1003    2.3971   -5.5128 N   0  0  0  0  0  0  0  0  0  0  0  0
   -9.3279    2.0539   -6.0078 C   0  0  0  0  0  0  0  0  0  0  0  0
   -9.6817    0.9233   -6.2925 O   0  0  0  0  0  0  0  0  0  0  0  0
   -8.7195    5.0039   -7.2897 C   0  0  0  0  0  0  0  0  0  0  0  0
   -8.5562    5.7803   -6.3695 O   0  0  0  0  0  0  0  0  0  0  0  0
  1  2  1  0
  2  3  1  0
  2  4  1  0
  2  5  1  0
  5  6  1  0
  6  7  2  0
  6  8  1  0
  9  8  1  1
  9 10  1  0
 10 11  2  0
 11 12  1  0
 12 13  2  0
 13 14  1  0
 14 15  1  0
 14 16  2  0
 16 17  1  0
 17 18  1  0
 18 19  1  1
 19 20  2  0
 19 21  1  0
 21 22  1  0
 22 23  2  0
 23 24  1  0
 24 25  2  0
 25 26  1  0
 26 27  2  0
 26 28  1  0
 28 29  2  0
 28 30  1  0
 31 30  1  6
 31 32  1  0
 32 33  1  0
 33 34  1  0
 34 35  2  0
 34 36  1  0
 36 37  1  0
 37 38  2  0
 30 39  1  0
 39 40  2  0
 18  9  1  0
 27 22  1  0
 37 31  1  0
 16 10  1  0
 39 25  1  0
M  END
>  <energy_score>  (80) 
-27.316142

>  <alias>  (80) 
None

>  <HIPPO Pose ID>  (80) 
68536

>  <smiles>  (80) 
CC(C)(C)OC(=O)N[C@H]1c2cccc(O)c2C[C@H]1C(=O)Nc1ccc2c(c1)C(=O)N([C@@H]1CCC(=O)NC1=O)C2=O

>  <inchikey>  (80) 
GDPCSQRDNBSVDL-KNKQGSTJSA-N

>  <distance_score>  (80) 
1.715464

>  <ref_mols>  (80) 
Z3452a,Z3506a

>  <ref_pdb>  (80) 
Z3506a

>  <HIPPO Compound ID>  (80) 
135392

>  <name>  (80) 
P68536

>  <inspiration_score>  (80) 
None

$$$$
P68539
     RDKit          3D

 22 24  0  0  0  0  0  0  0  0999 V2000
   -8.1134    4.4842  -17.6975 C   0  0  0  0  0  0  0  0  0  0  0  0
   -7.7866    4.8007  -16.4420 C   0  0  0  0  0  0  0  0  0  0  0  0
   -7.7893    4.0296  -15.1661 C   0  0  0  0  0  0  0  0  0  0  0  0
   -6.6042    4.9887  -14.7405 C   0  0  0  0  0  0  0  0  0  0  0  0
   -6.8416    5.3139  -13.2136 C   0  0  0  0  0  0  0  0  0  0  0  0
   -6.4502    4.2510  -12.2579 N   0  0  0  0  0  0  0  0  0  0  0  0
   -7.3738    3.8717  -11.2414 C   0  0  0  0  0  0  0  0  0  0  0  0
   -8.4442    3.0593  -11.5734 C   0  0  0  0  0  0  0  0  0  0  0  0
   -9.2651    2.5279  -10.5932 C   0  0  0  0  0  0  0  0  0  0  0  0
   -9.1987    2.7600   -9.2763 N   0  0  0  0  0  0  0  0  0  0  0  0
   -8.1862    3.5885   -8.9240 C   0  0  0  0  0  0  0  0  0  0  0  0
   -7.9856    4.0099   -7.5728 C   0  0  0  0  0  0  0  0  0  0  0  0
   -8.7991    3.6718   -6.4136 C   0  0  0  0  0  0  0  0  0  0  0  0
   -8.6193    4.1769   -5.3099 O   0  0  0  0  0  0  0  0  0  0  0  0
   -9.8220    2.8097   -6.6437 O   0  0  0  0  0  0  0  0  0  0  0  0
   -6.8822    4.8238   -7.4842 C   0  0  0  0  0  0  0  0  0  0  0  0
   -6.0930    5.0225   -8.9780 S   0  0  0  0  0  0  0  0  0  0  0  0
   -7.2701    4.1227   -9.8469 C   0  0  0  0  0  0  0  0  0  0  0  0
   -5.0726    4.9739  -15.1225 C   0  0  0  0  0  0  0  0  0  0  0  0
   -4.8044    4.9266  -16.5572 O   0  0  0  0  0  0  0  0  0  0  0  0
   -3.5794    5.5458  -16.9599 C   0  0  0  0  0  0  0  0  0  0  0  0
   -7.2395    6.0131  -15.7211 C   0  0  0  0  0  0  0  0  0  0  0  0
  1  2  2  0
  2  3  1  0
  3  4  1  0
  4  5  1  0
  5  6  1  0
  6  7  1  0
  7  8  2  0
  8  9  1  0
  9 10  2  0
 10 11  1  0
 11 12  1  0
 12 13  1  0
 13 14  2  0
 13 15  1  0
 12 16  2  0
 16 17  1  0
 17 18  1  0
  4 19  1  0
 19 20  1  0
 20 21  1  0
  4 22  1  0
 22  2  1  0
 18  7  1  0
 18 11  2  0
M  END
>  <energy_score>  (81) 
-19.716532

>  <alias>  (81) 
None

>  <HIPPO Pose ID>  (81) 
68539

>  <smiles>  (81) 
C=C1CC(CNc2ccnc3c(C(=O)O)csc23)(COC)C1

>  <inchikey>  (81) 
GRHFEXGXROJKPU-UHFFFAOYSA-N

>  <distance_score>  (81) 
1.978732

>  <ref_mols>  (81) 
Z0089a,Z3515a

>  <ref_pdb>  (81) 
Z3515a

>  <HIPPO Compound ID>  (81) 
135798

>  <name>  (81) 
P68539

>  <inspiration_score>  (81) 
None

$$$$
P68542
     RDKit          3D

 23 25  0  0  0  0  0  0  0  0999 V2000
   -2.5134    4.9113  -19.2177 C   0  0  0  0  0  0  0  0  0  0  0  0
   -3.1428    5.1435  -17.8575 C   0  0  0  0  0  0  0  0  0  0  0  0
   -4.3947    5.7988  -17.9978 O   0  0  0  0  0  0  0  0  0  0  0  0
   -5.5051    5.1862  -17.3171 C   0  0  0  0  0  0  0  0  0  0  0  0
   -5.3935    5.1283  -15.7594 C   0  0  0  0  0  0  0  0  0  0  0  0
   -6.7181    4.7936  -14.9540 C   0  0  0  0  0  0  0  0  0  0  0  0
   -6.4647    4.5190  -13.4262 C   0  0  0  0  0  0  0  0  0  0  0  0
   -7.6879    4.2679  -12.6073 N   0  0  0  0  0  0  0  0  0  0  0  0
   -7.7067    4.6108  -11.2339 C   0  0  0  0  0  0  0  0  0  0  0  0
   -7.2614    5.8636  -10.8041 C   0  0  0  0  0  0  0  0  0  0  0  0
   -7.3049    6.2140   -9.4641 C   0  0  0  0  0  0  0  0  0  0  0  0
   -7.7576    5.4408   -8.4641 N   0  0  0  0  0  0  0  0  0  0  0  0
   -8.2663    4.2450   -8.8565 C   0  0  0  0  0  0  0  0  0  0  0  0
   -8.8832    3.3529   -7.9231 C   0  0  0  0  0  0  0  0  0  0  0  0
   -9.0931    3.5890   -6.5013 C   0  0  0  0  0  0  0  0  0  0  0  0
   -9.8026    2.8925   -5.7877 O   0  0  0  0  0  0  0  0  0  0  0  0
   -8.4866    4.7082   -6.0078 O   0  0  0  0  0  0  0  0  0  0  0  0
   -9.3000    2.2173   -8.5684 C   0  0  0  0  0  0  0  0  0  0  0  0
   -9.0280    2.2999  -10.2462 S   0  0  0  0  0  0  0  0  0  0  0  0
   -8.2628    3.8175  -10.1889 C   0  0  0  0  0  0  0  0  0  0  0  0
   -7.7346    3.8548  -15.6550 C   0  0  0  0  0  0  0  0  0  0  0  0
   -8.5166    5.0567  -16.1320 C   0  0  0  0  0  0  0  0  0  0  0  0
   -7.7562    5.9125  -15.1165 C   0  0  0  0  0  0  0  0  0  0  0  0
  1  2  1  0
  2  3  1  0
  3  4  1  0
  4  5  1  0
  5  6  1  0
  6  7  1  0
  7  8  1  0
  8  9  1  0
  9 10  2  0
 10 11  1  0
 11 12  2  0
 12 13  1  0
 13 14  1  0
 14 15  1  0
 15 16  2  0
 15 17  1  0
 14 18  2  0
 18 19  1  0
 19 20  1  0
  6 21  1  0
 21 22  1  0
 22 23  1  0
 23  6  1  0
 20  9  1  0
 20 13  2  0
M  END
>  <energy_score>  (82) 
-41.006903

>  <alias>  (82) 
None

>  <HIPPO Pose ID>  (82) 
68542

>  <smiles>  (82) 
CCOCCC1(CNc2ccnc3c(C(=O)O)csc23)CCC1

>  <inchikey>  (82) 
WSYIYKBPLWOPBA-UHFFFAOYSA-N

>  <distance_score>  (82) 
1.748088

>  <ref_mols>  (82) 
Z3515a,Z0089a

>  <ref_pdb>  (82) 
Z3515a

>  <HIPPO Compound ID>  (82) 
135883

>  <name>  (82) 
P68542

>  <inspiration_score>  (82) 
None

$$$$
P68543
     RDKit          3D

 23 26  0  0  0  0  0  0  0  0999 V2000
  -10.0145    2.5798   -5.6666 O   0  0  0  0  0  0  0  0  0  0  0  0
   -9.1151    3.1239   -6.2982 C   0  0  0  0  0  0  0  0  0  0  0  0
   -8.1711    3.8119   -5.6162 O   0  0  0  0  0  0  0  0  0  0  0  0
   -8.9794    3.0802   -7.7355 C   0  0  0  0  0  0  0  0  0  0  0  0
   -9.4072    1.9808   -8.4365 C   0  0  0  0  0  0  0  0  0  0  0  0
   -9.2668    2.1843  -10.1089 S   0  0  0  0  0  0  0  0  0  0  0  0
   -8.5880    3.7308   -9.9950 C   0  0  0  0  0  0  0  0  0  0  0  0
   -8.1955    4.6069  -11.0414 C   0  0  0  0  0  0  0  0  0  0  0  0
   -8.3149    4.3500  -12.4527 N   0  0  0  0  0  0  0  0  0  0  0  0
   -7.0055    4.2876  -13.1442 C   0  0  0  0  0  0  0  0  0  0  0  0
   -6.9489    4.8815  -14.5809 C   0  0  0  0  0  0  0  0  0  0  0  0
   -7.6537    4.1068  -15.7226 C   0  0  1  0  0  0  0  0  0  0  0  0
   -9.0744    4.4792  -16.0625 C   0  0  0  0  0  0  0  0  0  0  0  0
   -9.2089    4.0529  -17.5095 C   0  0  0  0  0  0  0  0  0  0  0  0
   -7.8495    4.3720  -18.0718 C   0  0  0  0  0  0  0  0  0  0  0  0
   -6.9296    4.2177  -16.9857 O   0  0  0  0  0  0  0  0  0  0  0  0
   -7.1292    6.4146  -14.5319 C   0  0  0  0  0  0  0  0  0  0  0  0
   -5.9660    6.5397  -15.5309 C   0  0  0  0  0  0  0  0  0  0  0  0
   -5.4533    5.2032  -14.9710 C   0  0  0  0  0  0  0  0  0  0  0  0
   -7.7317    5.8461  -10.5973 C   0  0  0  0  0  0  0  0  0  0  0  0
   -7.6659    6.1225   -9.2412 C   0  0  0  0  0  0  0  0  0  0  0  0
   -8.0133    5.2881   -8.2483 N   0  0  0  0  0  0  0  0  0  0  0  0
   -8.4810    4.0782   -8.6382 C   0  0  0  0  0  0  0  0  0  0  0  0
  1  2  2  0
  2  3  1  0
  2  4  1  0
  4  5  2  0
  5  6  1  0
  6  7  1  0
  7  8  2  0
  8  9  1  0
  9 10  1  0
 10 11  1  0
 12 11  1  1
 12 13  1  0
 13 14  1  0
 14 15  1  0
 15 16  1  0
 11 17  1  0
 17 18  1  0
 18 19  1  0
  8 20  1  0
 20 21  2  0
 21 22  1  0
 22 23  2  0
 23  4  1  0
 23  7  1  0
 19 11  1  0
 16 12  1  0
M  END
>  <energy_score>  (83) 
-47.766389

>  <alias>  (83) 
None

>  <HIPPO Pose ID>  (83) 
68543

>  <smiles>  (83) 
O=C(O)c1csc2c(NCC3([C@H]4CCCO4)CCC3)ccnc12

>  <inchikey>  (83) 
CKOPWQLHRBZBDV-CYBMUJFWSA-N

>  <distance_score>  (83) 
1.939845

>  <ref_mols>  (83) 
Z3515a,Z0089a

>  <ref_pdb>  (83) 
Z3515a

>  <HIPPO Compound ID>  (83) 
135927

>  <name>  (83) 
P68543

>  <inspiration_score>  (83) 
None

$$$$
P68544
     RDKit          3D

 24 26  0  0  0  0  0  0  0  0999 V2000
   -1.8073    6.4579  -19.5538 C   0  0  0  0  0  0  0  0  0  0  0  0
   -2.7921    6.3369  -18.5279 O   0  0  0  0  0  0  0  0  0  0  0  0
   -3.7748    5.4175  -18.8016 C   0  0  0  0  0  0  0  0  0  0  0  0
   -3.8038    4.7731  -19.8431 O   0  0  0  0  0  0  0  0  0  0  0  0
   -4.7060    5.2846  -17.6864 C   0  0  0  0  0  0  0  0  0  0  0  0
   -4.3326    5.5647  -16.3886 C   0  0  0  0  0  0  0  0  0  0  0  0
   -5.5500    5.2906  -15.2614 S   0  0  0  0  0  0  0  0  0  0  0  0
   -6.6879    4.8357  -16.4619 C   0  0  0  0  0  0  0  0  0  0  0  0
   -8.0307    4.4541  -16.2721 C   0  0  0  0  0  0  0  0  0  0  0  0
   -8.7402    4.4226  -15.0739 N   0  0  0  0  0  0  0  0  0  0  0  0
   -8.3647    5.0108  -13.7788 C   0  0  0  0  0  0  0  0  0  0  0  0
   -7.8689    3.9834  -12.7368 C   0  0  0  0  0  0  0  0  0  0  0  0
   -8.2778    4.3661  -11.3819 N   0  0  0  0  0  0  0  0  0  0  0  0
   -7.3913    5.3037  -10.7098 C   0  0  0  0  0  0  0  0  0  0  0  0
   -7.7004    5.4041   -9.2174 C   0  0  0  0  0  0  0  0  0  0  0  0
   -7.5119    4.0634   -8.5013 C   0  0  0  0  0  0  0  0  0  0  0  0
   -7.9372    2.8394   -9.3538 C   0  0  0  0  0  0  0  0  0  0  0  0
   -8.8092    1.9076   -8.4779 C   0  0  0  0  0  0  0  0  0  0  0  0
   -6.6975    2.1010   -9.8962 C   0  0  0  0  0  0  0  0  0  0  0  0
   -8.7974    3.2874  -10.5450 C   0  0  0  0  0  0  0  0  0  0  0  0
   -8.6978    4.1439  -17.4611 C   0  0  0  0  0  0  0  0  0  0  0  0
   -8.0386    4.2126  -18.6849 C   0  0  0  0  0  0  0  0  0  0  0  0
   -6.7513    4.5357  -18.8566 N   0  0  0  0  0  0  0  0  0  0  0  0
   -6.0800    4.8595  -17.7278 C   0  0  0  0  0  0  0  0  0  0  0  0
  1  2  1  0
  2  3  1  0
  3  4  2  0
  3  5  1  0
  5  6  2  0
  6  7  1  0
  7  8  1  0
  8  9  2  0
  9 10  1  0
 10 11  1  0
 11 12  1  0
 12 13  1  0
 13 14  1  0
 14 15  1  0
 15 16  1  0
 16 17  1  0
 17 18  1  0
 17 19  1  0
 17 20  1  0
  9 21  1  0
 21 22  2  0
 22 23  1  0
 23 24  2  0
 24  5  1  0
 24  8  1  0
 20 13  1  0
M  END
>  <energy_score>  (84) 
-39.414227

>  <alias>  (84) 
None

>  <HIPPO Pose ID>  (84) 
68544

>  <smiles>  (84) 
COC(=O)c1csc2c(NCCN3CCCC(C)(C)C3)ccnc12

>  <inchikey>  (84) 
SYZHWKDKUIXGMO-UHFFFAOYSA-N

>  <distance_score>  (84) 
1.996846

>  <ref_mols>  (84) 
Z0089a,Z3515a

>  <ref_pdb>  (84) 
Z3515a

>  <HIPPO Compound ID>  (84) 
136022

>  <name>  (84) 
P68544

>  <inspiration_score>  (84) 
None

$$$$
P68545
     RDKit          3D

 24 27  0  0  0  0  0  0  0  0999 V2000
   -9.3005    3.3074   -5.0152 O   0  0  0  0  0  0  0  0  0  0  0  0
   -8.5104    3.6449   -5.8868 C   0  0  0  0  0  0  0  0  0  0  0  0
   -7.4271    4.4252   -5.5914 O   0  0  0  0  0  0  0  0  0  0  0  0
   -8.6682    3.3239   -7.2977 C   0  0  0  0  0  0  0  0  0  0  0  0
   -9.4389    2.2894   -7.7650 C   0  0  0  0  0  0  0  0  0  0  0  0
   -9.4279    2.2025   -9.4656 S   0  0  0  0  0  0  0  0  0  0  0  0
   -8.4781    3.6141   -9.6600 C   0  0  0  0  0  0  0  0  0  0  0  0
   -8.0917    4.3382  -10.8243 C   0  0  0  0  0  0  0  0  0  0  0  0
   -8.5559    4.0842  -12.1346 N   0  0  0  0  0  0  0  0  0  0  0  0
   -7.5734    3.8120  -13.2092 C   0  0  0  0  0  0  0  0  0  0  0  0
   -7.3435    4.8796  -14.3109 C   0  0  0  0  0  0  0  0  0  0  0  0
   -7.2977    4.3008  -15.7595 C   0  0  2  0  0  0  0  0  0  0  0  0
   -6.8687    5.2628  -16.8788 C   0  0  0  0  0  0  0  0  0  0  0  0
   -7.1085    4.6818  -18.2663 C   0  0  0  0  0  0  0  0  0  0  0  0
   -8.5219    4.1401  -18.4223 C   0  0  0  0  0  0  0  0  0  0  0  0
   -9.2907    4.1539  -17.1137 C   0  0  0  0  0  0  0  0  0  0  0  0
   -8.5214    3.6097  -16.0494 O   0  0  0  0  0  0  0  0  0  0  0  0
   -8.1520    6.1807  -14.1674 C   0  0  0  0  0  0  0  0  0  0  0  0
   -6.8325    6.9706  -14.2124 C   0  0  0  0  0  0  0  0  0  0  0  0
   -6.0514    5.6780  -14.0026 C   0  0  0  0  0  0  0  0  0  0  0  0
   -7.3071    5.4622  -10.5722 C   0  0  0  0  0  0  0  0  0  0  0  0
   -6.9189    5.7754   -9.2848 C   0  0  0  0  0  0  0  0  0  0  0  0
   -7.2509    5.0896   -8.1817 N   0  0  0  0  0  0  0  0  0  0  0  0
   -8.0791    4.0341   -8.3890 C   0  0  0  0  0  0  0  0  0  0  0  0
  1  2  2  0
  2  3  1  0
  2  4  1  0
  4  5  2  0
  5  6  1  0
  6  7  1  0
  7  8  2  0
  8  9  1  0
  9 10  1  0
 10 11  1  0
 12 11  1  1
 12 13  1  0
 13 14  1  0
 14 15  1  0
 15 16  1  0
 16 17  1  0
 11 18  1  0
 18 19  1  0
 19 20  1  0
  8 21  1  0
 21 22  2  0
 22 23  1  0
 23 24  2  0
 24  4  1  0
 24  7  1  0
 20 11  1  0
 17 12  1  0
M  END
>  <energy_score>  (85) 
-43.051018

>  <alias>  (85) 
None

>  <HIPPO Pose ID>  (85) 
68545

>  <smiles>  (85) 
O=C(O)c1csc2c(NCC3([C@@H]4CCCCO4)CCC3)ccnc12

>  <inchikey>  (85) 
WBNLKUPYJMMVJR-AWEZNQCLSA-N

>  <distance_score>  (85) 
1.870857

>  <ref_mols>  (85) 
Z3515a,Z0089a

>  <ref_pdb>  (85) 
Z3515a

>  <HIPPO Compound ID>  (85) 
136044

>  <name>  (85) 
P68545

>  <inspiration_score>  (85) 
None

$$$$
P68547
     RDKit          3D

 22 24  0  0  0  0  0  0  0  0999 V2000
   -2.5414    4.9694  -18.1210 C   0  0  0  0  0  0  0  0  0  0  0  0
   -3.8803    5.6560  -17.8951 C   0  0  0  0  0  0  0  0  0  0  0  0
   -4.1499    6.1389  -16.4482 C   0  0  0  0  0  0  0  0  0  0  0  0
   -4.5614    5.0137  -15.4419 C   0  0  0  0  0  0  0  0  0  0  0  0
   -5.1992    5.4260  -14.0529 C   0  0  0  0  0  0  0  0  0  0  0  0
   -6.7356    5.2258  -13.7646 C   0  0  2  0  0  0  0  0  0  0  0  0
   -6.9411    4.4343  -12.5348 N   0  0  0  0  0  0  0  0  0  0  0  0
   -7.5358    4.7669  -11.3272 C   0  0  0  0  0  0  0  0  0  0  0  0
   -7.9259    6.0525  -10.9707 C   0  0  0  0  0  0  0  0  0  0  0  0
   -8.4549    6.3018   -9.7095 C   0  0  0  0  0  0  0  0  0  0  0  0
   -8.6717    5.3926   -8.7431 N   0  0  0  0  0  0  0  0  0  0  0  0
   -8.3310    4.1211   -9.0567 C   0  0  0  0  0  0  0  0  0  0  0  0
   -8.5021    2.9978   -8.1820 C   0  0  0  0  0  0  0  0  0  0  0  0
   -8.9849    2.9784   -6.8116 C   0  0  0  0  0  0  0  0  0  0  0  0
   -9.1305    3.9444   -6.0721 O   0  0  0  0  0  0  0  0  0  0  0  0
   -9.2190    1.7275   -6.3354 O   0  0  0  0  0  0  0  0  0  0  0  0
   -8.0674    1.8582   -8.8124 C   0  0  0  0  0  0  0  0  0  0  0  0
   -7.2936    2.1618  -10.2900 S   0  0  0  0  0  0  0  0  0  0  0  0
   -7.7507    3.8050  -10.2952 C   0  0  0  0  0  0  0  0  0  0  0  0
   -7.4563    4.5074  -14.8723 C   0  0  0  0  0  0  0  0  0  0  0  0
   -8.8189    4.9446  -15.3279 C   0  0  0  0  0  0  0  0  0  0  0  0
   -7.6496    5.0949  -16.2500 C   0  0  0  0  0  0  0  0  0  0  0  0
  1  2  1  0
  2  3  1  0
  3  4  1  0
  4  5  1  0
  6  5  1  6
  6  7  1  0
  7  8  1  0
  8  9  2  0
  9 10  1  0
 10 11  2  0
 11 12  1  0
 12 13  1  0
 13 14  1  0
 14 15  2  0
 14 16  1  0
 13 17  2  0
 17 18  1  0
 18 19  1  0
  6 20  1  0
 20 21  1  0
 21 22  1  0
 19  8  1  0
 22 20  1  0
 19 12  2  0
M  END
>  <energy_score>  (86) 
-47.430239

>  <alias>  (86) 
None

>  <HIPPO Pose ID>  (86) 
68547

>  <smiles>  (86) 
CCCCC[C@H](Nc1ccnc2c(C(=O)O)csc12)C1CC1

>  <inchikey>  (86) 
LQRPDDKCLYCANR-ZDUSSCGKSA-N

>  <distance_score>  (86) 
1.909546

>  <ref_mols>  (86) 
Z0089a,Z3515a

>  <ref_pdb>  (86) 
Z3515a

>  <HIPPO Compound ID>  (86) 
136247

>  <name>  (86) 
P68547

>  <inspiration_score>  (86) 
None

$$$$
P68552
     RDKit          3D

 18 20  0  0  0  0  0  0  0  0999 V2000
   -4.8444    9.8973  -23.0953 C   0  0  0  0  0  0  0  0  0  0  0  0
   -4.6319    8.4378  -22.8402 C   0  0  2  0  0  0  0  0  0  0  0  0
   -5.7821    7.5287  -23.1222 C   0  0  0  0  0  0  0  0  0  0  0  0
   -5.3095    7.6974  -21.6906 C   0  0  1  0  0  0  0  0  0  0  0  0
   -4.7038    6.4810  -21.0369 C   0  0  0  0  0  0  0  0  0  0  0  0
   -4.8563    6.3731  -19.5113 C   0  0  0  0  0  0  0  0  0  0  0  0
   -3.9818    6.6385  -18.7775 O   0  0  0  0  0  0  0  0  0  0  0  0
   -6.2749    5.7780  -19.2240 N   0  0  0  0  0  0  0  0  0  0  0  0
   -6.8420    5.3191  -18.0308 C   0  0  0  0  0  0  0  0  0  0  0  0
   -6.1753    5.3381  -16.8007 C   0  0  0  0  0  0  0  0  0  0  0  0
   -6.7884    4.8429  -15.6387 C   0  0  0  0  0  0  0  0  0  0  0  0
   -5.9354    4.9902  -13.9646 Br  0  0  0  0  0  0  0  0  0  0  0  0
   -8.0609    4.2852  -15.6450 C   0  0  0  0  0  0  0  0  0  0  0  0
   -8.7536    4.3218  -16.8451 C   0  0  0  0  0  0  0  0  0  0  0  0
  -10.0572    4.0018  -17.0632 N   0  0  0  0  0  0  0  0  0  0  0  0
  -10.3101    4.4764  -18.2527 C   0  0  0  0  0  0  0  0  0  0  0  0
   -9.1633    4.7924  -18.9172 N   0  0  0  0  0  0  0  0  0  0  0  0
   -8.1487    4.8228  -17.9944 C   0  0  0  0  0  0  0  0  0  0  0  0
  2  1  1  1
  2  3  1  0
  3  4  1  0
  4  5  1  6
  5  6  1  0
  6  7  2  0
  6  8  1  0
  8  9  1  0
  9 10  2  0
 10 11  1  0
 11 12  1  0
 11 13  2  0
 13 14  1  0
 14 15  1  0
 15 16  2  0
 16 17  1  0
 17 18  1  0
  4  2  1  0
 18  9  1  0
 18 14  2  0
M  END
>  <energy_score>  (87) 
-18.984257

>  <alias>  (87) 
None

>  <HIPPO Pose ID>  (87) 
68552

>  <smiles>  (87) 
C[C@@H]1C[C@H]1CC(=O)Nc1cc(Br)cc2nc[nH]c12

>  <inchikey>  (87) 
LZNCSLMEJJRZCV-SFYZADRCSA-N

>  <distance_score>  (87) 
1.313288

>  <ref_mols>  (87) 
Z0846a,Z1597a

>  <ref_pdb>  (87) 
Z0846a

>  <HIPPO Compound ID>  (87) 
136709

>  <name>  (87) 
P68552

>  <inspiration_score>  (87) 
None

$$$$
P68554
     RDKit          3D

 18 20  0  0  0  0  0  0  0  0999 V2000
   -4.7678    9.7787  -23.0329 C   0  0  0  0  0  0  0  0  0  0  0  0
   -4.6074    8.3064  -22.8111 C   0  0  2  0  0  0  0  0  0  0  0  0
   -5.7762    7.4476  -23.1634 C   0  0  0  0  0  0  0  0  0  0  0  0
   -5.3515    7.5550  -21.7107 C   0  0  1  0  0  0  0  0  0  0  0  0
   -4.8561    6.2782  -21.0751 C   0  0  0  0  0  0  0  0  0  0  0  0
   -4.9766    6.1955  -19.5441 C   0  0  0  0  0  0  0  0  0  0  0  0
   -4.0970    6.5077  -18.8346 O   0  0  0  0  0  0  0  0  0  0  0  0
   -6.3751    5.5790  -19.2125 N   0  0  0  0  0  0  0  0  0  0  0  0
   -6.9126    5.1512  -17.9949 C   0  0  0  0  0  0  0  0  0  0  0  0
   -6.2085    5.1766  -16.7856 C   0  0  0  0  0  0  0  0  0  0  0  0
   -6.8431    4.8176  -15.5865 C   0  0  0  0  0  0  0  0  0  0  0  0
   -6.0082    4.9400  -14.0907 Cl  0  0  0  0  0  0  0  0  0  0  0  0
   -8.1790    4.4277  -15.5261 C   0  0  0  0  0  0  0  0  0  0  0  0
   -8.8576    4.4517  -16.7295 C   0  0  0  0  0  0  0  0  0  0  0  0
  -10.1875    4.3306  -17.0097 N   0  0  0  0  0  0  0  0  0  0  0  0
  -10.3575    4.6166  -18.3231 C   0  0  0  0  0  0  0  0  0  0  0  0
   -9.2105    4.7264  -18.9435 N   0  0  0  0  0  0  0  0  0  0  0  0
   -8.2656    4.7542  -17.9506 C   0  0  0  0  0  0  0  0  0  0  0  0
  2  1  1  1
  2  3  1  0
  3  4  1  0
  4  5  1  6
  5  6  1  0
  6  7  2  0
  6  8  1  0
  8  9  1  0
  9 10  2  0
 10 11  1  0
 11 12  1  0
 11 13  2  0
 13 14  1  0
 14 15  1  0
 15 16  1  0
 16 17  2  0
 17 18  1  0
  4  2  1  0
 18  9  1  0
 18 14  2  0
M  END
>  <energy_score>  (88) 
-20.632388

>  <alias>  (88) 
None

>  <HIPPO Pose ID>  (88) 
68554

>  <smiles>  (88) 
C[C@@H]1C[C@H]1CC(=O)Nc1cc(Cl)cc2[nH]cnc12

>  <inchikey>  (88) 
FYXGKFMXQXNYOS-SFYZADRCSA-N

>  <distance_score>  (88) 
1.363035

>  <ref_mols>  (88) 
Z0846a,Z1597a

>  <ref_pdb>  (88) 
Z0846a

>  <HIPPO Compound ID>  (88) 
136710

>  <name>  (88) 
P68554

>  <inspiration_score>  (88) 
None

$$$$
P68556
     RDKit          3D

 18 20  0  0  0  0  0  0  0  0999 V2000
   -5.7856    5.2012  -14.2625 C   0  0  0  0  0  0  0  0  0  0  0  0
   -6.5272    5.0123  -15.5462 C   0  0  0  0  0  0  0  0  0  0  0  0
   -6.0265    5.4898  -16.7754 C   0  0  0  0  0  0  0  0  0  0  0  0
   -6.7563    5.3863  -17.9696 C   0  0  0  0  0  0  0  0  0  0  0  0
   -6.2613    5.8082  -19.2072 N   0  0  0  0  0  0  0  0  0  0  0  0
   -4.9158    6.5189  -19.5743 C   0  0  0  0  0  0  0  0  0  0  0  0
   -4.0589    6.9248  -18.8848 O   0  0  0  0  0  0  0  0  0  0  0  0
   -4.8020    6.5271  -21.1074 C   0  0  0  0  0  0  0  0  0  0  0  0
   -5.3451    7.7552  -21.7923 C   0  0  2  0  0  0  0  0  0  0  0  0
   -5.8287    7.5777  -23.2182 C   0  0  0  0  0  0  0  0  0  0  0  0
   -4.6367    8.4384  -22.9558 C   0  0  1  0  0  0  0  0  0  0  0  0
   -4.7827    9.9027  -23.2293 C   0  0  0  0  0  0  0  0  0  0  0  0
   -8.0297    4.8235  -17.8456 C   0  0  0  0  0  0  0  0  0  0  0  0
   -9.0866    4.6804  -18.7101 N   0  0  0  0  0  0  0  0  0  0  0  0
  -10.1586    4.2610  -17.9783 C   0  0  0  0  0  0  0  0  0  0  0  0
   -9.8154    3.9040  -16.7709 N   0  0  0  0  0  0  0  0  0  0  0  0
   -8.5350    4.3379  -16.6420 C   0  0  0  0  0  0  0  0  0  0  0  0
   -7.7764    4.3991  -15.4799 C   0  0  0  0  0  0  0  0  0  0  0  0
  1  2  1  0
  2  3  2  0
  3  4  1  0
  4  5  1  0
  5  6  1  0
  6  7  2  0
  6  8  1  0
  9  8  1  6
  9 10  1  0
 10 11  1  0
 11 12  1  1
  4 13  2  0
 13 14  1  0
 14 15  1  0
 15 16  2  0
 16 17  1  0
 17 18  2  0
 18  2  1  0
 11  9  1  0
 17 13  1  0
M  END
>  <energy_score>  (89) 
-20.808016

>  <alias>  (89) 
None

>  <HIPPO Pose ID>  (89) 
68556

>  <smiles>  (89) 
Cc1cc(NC(=O)C[C@@H]2C[C@H]2C)c2[nH]cnc2c1

>  <inchikey>  (89) 
RYHLJXKRTUHYGB-ZJUUUORDSA-N

>  <distance_score>  (89) 
1.413744

>  <ref_mols>  (89) 
Z0846a,Z1597a

>  <ref_pdb>  (89) 
Z0846a

>  <HIPPO Compound ID>  (89) 
136712

>  <name>  (89) 
P68556

>  <inspiration_score>  (89) 
None

$$$$
P68558
     RDKit          3D

 19 20  0  0  0  0  0  0  0  0999 V2000
   -3.7679    5.8630  -18.2738 O   0  0  0  0  0  0  0  0  0  0  0  0
   -4.6007    5.5974  -19.0546 C   0  0  0  0  0  0  0  0  0  0  0  0
   -4.2895    5.6691  -20.5661 C   0  0  0  0  0  0  0  0  0  0  0  0
   -5.4412    6.0370  -21.5045 C   0  0  0  0  0  0  0  0  0  0  0  0
   -5.1234    6.5508  -22.9217 C   0  0  0  0  0  0  0  0  0  0  0  0
   -5.2076    8.0601  -23.0964 C   0  0  0  0  0  0  0  0  0  0  0  0
   -4.0682    8.7841  -22.4029 C   0  0  0  0  0  0  0  0  0  0  0  0
   -4.5263    9.3593  -20.4130 I   0  0  0  0  0  0  0  0  0  0  0  0
   -6.0457    5.0521  -18.8436 N   0  0  0  0  0  0  0  0  0  0  0  0
   -6.7628    4.8228  -17.6738 C   0  0  0  0  0  0  0  0  0  0  0  0
   -6.1967    4.8757  -16.3991 C   0  0  0  0  0  0  0  0  0  0  0  0
   -6.9984    4.6845  -15.2674 C   0  0  0  0  0  0  0  0  0  0  0  0
   -6.3150    4.8178  -13.6983 Cl  0  0  0  0  0  0  0  0  0  0  0  0
   -8.3700    4.4465  -15.3442 C   0  0  0  0  0  0  0  0  0  0  0  0
   -8.9065    4.4506  -16.6192 C   0  0  0  0  0  0  0  0  0  0  0  0
  -10.1993    4.4253  -17.0583 N   0  0  0  0  0  0  0  0  0  0  0  0
  -10.1801    4.6469  -18.3961 C   0  0  0  0  0  0  0  0  0  0  0  0
   -8.9621    4.6108  -18.8735 N   0  0  0  0  0  0  0  0  0  0  0  0
   -8.1488    4.6001  -17.7730 C   0  0  0  0  0  0  0  0  0  0  0  0
  1  2  2  0
  2  3  1  0
  3  4  1  0
  4  5  1  0
  5  6  1  0
  6  7  1  0
  7  8  1  0
  2  9  1  0
  9 10  1  0
 10 11  2  0
 11 12  1  0
 12 13  1  0
 12 14  2  0
 14 15  1  0
 15 16  1  0
 16 17  1  0
 17 18  2  0
 18 19  1  0
 19 10  1  0
 19 15  2  0
M  END
>  <energy_score>  (90) 
-9.651615

>  <alias>  (90) 
None

>  <HIPPO Pose ID>  (90) 
68558

>  <smiles>  (90) 
O=C(CCCCCI)Nc1cc(Cl)cc2[nH]cnc12

>  <inchikey>  (90) 
RXRWFJNTCFHYOX-UHFFFAOYSA-N

>  <distance_score>  (90) 
1.417297

>  <ref_mols>  (90) 
Z0846a,Z1597a

>  <ref_pdb>  (90) 
Z0846a

>  <HIPPO Compound ID>  (90) 
136715

>  <name>  (90) 
P68558

>  <inspiration_score>  (90) 
None

$$$$
P68559
     RDKit          3D

 19 20  0  0  0  0  0  0  0  0999 V2000
   -3.8304    5.7930  -19.1228 O   0  0  0  0  0  0  0  0  0  0  0  0
   -4.8381    5.7167  -19.7093 C   0  0  0  0  0  0  0  0  0  0  0  0
   -5.0646    6.0543  -21.1725 C   0  0  0  0  0  0  0  0  0  0  0  0
   -3.8494    6.5192  -21.9625 C   0  0  0  0  0  0  0  0  0  0  0  0
   -4.2581    6.8547  -23.4120 C   0  0  0  0  0  0  0  0  0  0  0  0
   -4.5081    8.3339  -23.6785 C   0  0  0  0  0  0  0  0  0  0  0  0
   -5.6171    8.9480  -22.8478 C   0  0  0  0  0  0  0  0  0  0  0  0
   -4.9245    9.7558  -20.9847 I   0  0  0  0  0  0  0  0  0  0  0  0
   -6.2718    5.3511  -19.2125 N   0  0  0  0  0  0  0  0  0  0  0  0
   -6.7119    4.9331  -17.9689 C   0  0  0  0  0  0  0  0  0  0  0  0
   -5.9220    4.8522  -16.8272 C   0  0  0  0  0  0  0  0  0  0  0  0
   -6.4985    4.5101  -15.5774 C   0  0  0  0  0  0  0  0  0  0  0  0
   -7.8669    4.2506  -15.4443 C   0  0  0  0  0  0  0  0  0  0  0  0
   -8.6107    4.3321  -16.5894 C   0  0  0  0  0  0  0  0  0  0  0  0
   -9.9816    4.2512  -16.7623 N   0  0  0  0  0  0  0  0  0  0  0  0
  -10.2855    4.5889  -18.0754 C   0  0  0  0  0  0  0  0  0  0  0  0
  -11.3949    4.7745  -18.5322 O   0  0  0  0  0  0  0  0  0  0  0  0
   -9.0805    4.7355  -18.7521 N   0  0  0  0  0  0  0  0  0  0  0  0
   -8.0489    4.6450  -17.8219 C   0  0  0  0  0  0  0  0  0  0  0  0
  1  2  2  0
  2  3  1  0
  3  4  1  0
  4  5  1  0
  5  6  1  0
  6  7  1  0
  7  8  1  0
  2  9  1  0
  9 10  1  0
 10 11  2  0
 11 12  1  0
 12 13  2  0
 13 14  1  0
 14 15  1  0
 15 16  1  0
 16 17  2  0
 16 18  1  0
 18 19  1  0
 19 10  1  0
 19 14  2  0
M  END
>  <energy_score>  (91) 
-23.667384

>  <alias>  (91) 
None

>  <HIPPO Pose ID>  (91) 
68559

>  <smiles>  (91) 
O=C(CCCCCI)Nc1cccc2[nH]c(=O)[nH]c12

>  <inchikey>  (91) 
AHXPOIGXPKEHFT-UHFFFAOYSA-N

>  <distance_score>  (91) 
1.835304

>  <ref_mols>  (91) 
Z0846a,Z1597a

>  <ref_pdb>  (91) 
Z0846a

>  <HIPPO Compound ID>  (91) 
136718

>  <name>  (91) 
P68559

>  <inspiration_score>  (91) 
None

$$$$
P68560
     RDKit          3D

 19 20  0  0  0  0  0  0  0  0999 V2000
  -10.5087    4.2084  -17.3224 C   0  0  0  0  0  0  0  0  0  0  0  0
   -9.1657    4.1811  -17.8012 N   0  0  0  0  0  0  0  0  0  0  0  0
   -8.8294    4.0761  -19.1092 C   0  0  0  0  0  0  0  0  0  0  0  0
   -7.5406    4.1233  -19.2801 N   0  0  0  0  0  0  0  0  0  0  0  0
   -7.0643    4.4992  -18.0570 C   0  0  0  0  0  0  0  0  0  0  0  0
   -5.7914    5.0106  -17.7908 C   0  0  0  0  0  0  0  0  0  0  0  0
   -5.0950    5.2070  -18.9660 N   0  0  0  0  0  0  0  0  0  0  0  0
   -3.9119    6.1492  -19.2873 C   0  0  0  0  0  0  0  0  0  0  0  0
   -3.2915    6.8496  -18.5895 O   0  0  0  0  0  0  0  0  0  0  0  0
   -3.7391    6.0823  -20.8249 C   0  0  0  0  0  0  0  0  0  0  0  0
   -5.0771    6.2196  -21.6098 C   0  0  0  0  0  0  0  0  0  0  0  0
   -4.9964    6.6674  -23.0781 C   0  0  0  0  0  0  0  0  0  0  0  0
   -5.2749    8.1441  -23.3095 C   0  0  0  0  0  0  0  0  0  0  0  0
   -4.2143    9.0424  -22.7027 C   0  0  0  0  0  0  0  0  0  0  0  0
   -4.6690    9.6664  -20.7244 I   0  0  0  0  0  0  0  0  0  0  0  0
   -5.4959    5.4154  -16.5014 C   0  0  0  0  0  0  0  0  0  0  0  0
   -6.4695    5.2691  -15.4922 C   0  0  0  0  0  0  0  0  0  0  0  0
   -7.7727    4.8022  -15.7541 C   0  0  0  0  0  0  0  0  0  0  0  0
   -8.0406    4.4755  -17.0808 C   0  0  0  0  0  0  0  0  0  0  0  0
  1  2  1  0
  2  3  1  0
  3  4  2  0
  4  5  1  0
  5  6  2  0
  6  7  1  0
  7  8  1  0
  8  9  2  0
  8 10  1  0
 10 11  1  0
 11 12  1  0
 12 13  1  0
 13 14  1  0
 14 15  1  0
  6 16  1  0
 16 17  2  0
 17 18  1  0
 18 19  2  0
 19  2  1  0
 19  5  1  0
M  END
>  <energy_score>  (92) 
-10.033991

>  <alias>  (92) 
None

>  <HIPPO Pose ID>  (92) 
68560

>  <smiles>  (92) 
Cn1cnc2c(NC(=O)CCCCCI)cccc21

>  <inchikey>  (92) 
ZWPQYHHPEARTSX-UHFFFAOYSA-N

>  <distance_score>  (92) 
1.697586

>  <ref_mols>  (92) 
Z0846a,Z1597a

>  <ref_pdb>  (92) 
Z0846a

>  <HIPPO Compound ID>  (92) 
136720

>  <name>  (92) 
P68560

>  <inspiration_score>  (92) 
None

$$$$
P68561
     RDKit          3D

 19 20  0  0  0  0  0  0  0  0999 V2000
  -10.9631    4.6984  -18.2527 C   0  0  0  0  0  0  0  0  0  0  0  0
   -9.6465    4.3601  -17.7222 C   0  0  0  0  0  0  0  0  0  0  0  0
   -9.3904    4.0009  -16.4890 N   0  0  0  0  0  0  0  0  0  0  0  0
   -8.0637    4.2548  -16.3311 C   0  0  0  0  0  0  0  0  0  0  0  0
   -7.3109    4.2340  -15.1600 C   0  0  0  0  0  0  0  0  0  0  0  0
   -5.9837    4.6585  -15.2346 C   0  0  0  0  0  0  0  0  0  0  0  0
   -5.4134    5.0544  -16.4517 C   0  0  0  0  0  0  0  0  0  0  0  0
   -6.1442    5.0227  -17.6388 C   0  0  0  0  0  0  0  0  0  0  0  0
   -5.6130    5.3597  -18.8738 N   0  0  0  0  0  0  0  0  0  0  0  0
   -4.2308    5.9732  -19.2467 C   0  0  0  0  0  0  0  0  0  0  0  0
   -3.3623    6.3584  -18.5622 O   0  0  0  0  0  0  0  0  0  0  0  0
   -4.0701    5.9289  -20.7776 C   0  0  0  0  0  0  0  0  0  0  0  0
   -5.3331    6.1522  -21.6233 C   0  0  0  0  0  0  0  0  0  0  0  0
   -5.1474    6.6177  -23.0777 C   0  0  0  0  0  0  0  0  0  0  0  0
   -5.2772    8.1194  -23.2899 C   0  0  0  0  0  0  0  0  0  0  0  0
   -4.1496    8.9059  -22.6461 C   0  0  0  0  0  0  0  0  0  0  0  0
   -4.5960    9.5458  -20.6687 I   0  0  0  0  0  0  0  0  0  0  0  0
   -7.4762    4.6312  -17.5344 C   0  0  0  0  0  0  0  0  0  0  0  0
   -8.5026    4.5722  -18.4387 N   0  0  0  0  0  0  0  0  0  0  0  0
  1  2  1  0
  2  3  2  0
  3  4  1  0
  4  5  2  0
  5  6  1  0
  6  7  2  0
  7  8  1  0
  8  9  1  0
  9 10  1  0
 10 11  2  0
 10 12  1  0
 12 13  1  0
 13 14  1  0
 14 15  1  0
 15 16  1  0
 16 17  1  0
  8 18  2  0
 18 19  1  0
 19  2  1  0
 18  4  1  0
M  END
>  <energy_score>  (93) 
-16.197332

>  <alias>  (93) 
None

>  <HIPPO Pose ID>  (93) 
68561

>  <smiles>  (93) 
Cc1nc2cccc(NC(=O)CCCCCI)c2[nH]1

>  <inchikey>  (93) 
HVNRMIBXQASOMJ-UHFFFAOYSA-N

>  <distance_score>  (93) 
1.962952

>  <ref_mols>  (93) 
Z0846a,Z1597a

>  <ref_pdb>  (93) 
Z0846a

>  <HIPPO Compound ID>  (93) 
136722

>  <name>  (93) 
P68561

>  <inspiration_score>  (93) 
None

$$$$
P68563
     RDKit          3D

 19 21  0  0  0  0  0  0  0  0999 V2000
   -3.8342    5.3854  -18.6886 O   0  0  0  0  0  0  0  0  0  0  0  0
   -4.7816    5.4873  -19.3690 C   0  0  0  0  0  0  0  0  0  0  0  0
   -4.7072    5.9791  -20.8119 C   0  0  0  0  0  0  0  0  0  0  0  0
   -5.1714    7.4248  -20.9399 C   0  0  2  0  0  0  0  0  0  0  0  0
   -5.2603    7.9130  -22.3856 C   0  0  0  0  0  0  0  0  0  0  0  0
   -3.9353    8.5982  -22.5976 C   0  0  0  0  0  0  0  0  0  0  0  0
   -3.6689    9.1941  -21.2386 C   0  0  0  0  0  0  0  0  0  0  0  0
   -4.2359    8.2963  -20.2820 O   0  0  0  0  0  0  0  0  0  0  0  0
   -6.2836    5.2046  -19.0583 N   0  0  0  0  0  0  0  0  0  0  0  0
   -6.9068    4.8459  -17.8690 C   0  0  0  0  0  0  0  0  0  0  0  0
   -6.2498    4.8126  -16.6357 C   0  0  0  0  0  0  0  0  0  0  0  0
   -6.9733    4.5742  -15.4608 C   0  0  0  0  0  0  0  0  0  0  0  0
   -6.1939    4.6571  -13.9330 Cl  0  0  0  0  0  0  0  0  0  0  0  0
   -8.3476    4.3432  -15.4575 C   0  0  0  0  0  0  0  0  0  0  0  0
   -8.9668    4.4025  -16.6933 C   0  0  0  0  0  0  0  0  0  0  0  0
  -10.2832    4.3835  -17.0470 N   0  0  0  0  0  0  0  0  0  0  0  0
  -10.3624    4.6670  -18.3689 C   0  0  0  0  0  0  0  0  0  0  0  0
   -9.1802    4.6805  -18.9283 N   0  0  0  0  0  0  0  0  0  0  0  0
   -8.2932    4.6216  -17.8863 C   0  0  0  0  0  0  0  0  0  0  0  0
  1  2  2  0
  2  3  1  0
  4  3  1  6
  4  5  1  0
  5  6  1  0
  6  7  1  0
  7  8  1  0
  2  9  1  0
  9 10  1  0
 10 11  2  0
 11 12  1  0
 12 13  1  0
 12 14  2  0
 14 15  1  0
 15 16  1  0
 16 17  1  0
 17 18  2  0
 18 19  1  0
  8  4  1  0
 19 10  1  0
 19 15  2  0
M  END
>  <energy_score>  (94) 
-9.078739

>  <alias>  (94) 
None

>  <HIPPO Pose ID>  (94) 
68563

>  <smiles>  (94) 
O=C(C[C@@H]1CCCO1)Nc1cc(Cl)cc2[nH]cnc12

>  <inchikey>  (94) 
YJMGMSDMAHFIQN-VIFPVBQESA-N

>  <distance_score>  (94) 
1.220217

>  <ref_mols>  (94) 
Z0846a,Z1597a

>  <ref_pdb>  (94) 
Z0846a

>  <HIPPO Compound ID>  (94) 
136723

>  <name>  (94) 
P68563

>  <inspiration_score>  (94) 
None

$$$$
P68564
     RDKit          3D

 19 21  0  0  0  0  0  0  0  0999 V2000
   -3.5061    5.8466  -17.8043 O   0  0  0  0  0  0  0  0  0  0  0  0
   -4.2106    5.5636  -18.6946 C   0  0  0  0  0  0  0  0  0  0  0  0
   -3.6893    5.4166  -20.1128 C   0  0  0  0  0  0  0  0  0  0  0  0
   -3.9019    6.5687  -21.0709 C   0  0  2  0  0  0  0  0  0  0  0  0
   -3.8280    7.9778  -20.5241 C   0  0  0  0  0  0  0  0  0  0  0  0
   -4.4258    8.7727  -21.6662 C   0  0  0  0  0  0  0  0  0  0  0  0
   -5.2780    7.7692  -22.4291 C   0  0  0  0  0  0  0  0  0  0  0  0
   -5.1884    6.5345  -21.7098 O   0  0  0  0  0  0  0  0  0  0  0  0
   -5.7180    5.1766  -18.7039 N   0  0  0  0  0  0  0  0  0  0  0  0
   -6.6059    4.9743  -17.6502 C   0  0  0  0  0  0  0  0  0  0  0  0
   -6.1926    4.9843  -16.3148 C   0  0  0  0  0  0  0  0  0  0  0  0
   -7.0855    4.6813  -15.2809 C   0  0  0  0  0  0  0  0  0  0  0  0
   -6.5243    4.7840  -13.4857 Br  0  0  0  0  0  0  0  0  0  0  0  0
   -8.4096    4.3380  -15.5223 C   0  0  0  0  0  0  0  0  0  0  0  0
   -8.8465    4.3862  -16.8391 C   0  0  0  0  0  0  0  0  0  0  0  0
  -10.1167    4.2419  -17.3098 N   0  0  0  0  0  0  0  0  0  0  0  0
  -10.0447    4.6481  -18.5480 C   0  0  0  0  0  0  0  0  0  0  0  0
   -8.7550    4.7467  -18.9710 N   0  0  0  0  0  0  0  0  0  0  0  0
   -7.9564    4.7035  -17.8619 C   0  0  0  0  0  0  0  0  0  0  0  0
  1  2  2  0
  2  3  1  0
  4  3  1  1
  4  5  1  0
  5  6  1  0
  6  7  1  0
  7  8  1  0
  2  9  1  0
  9 10  1  0
 10 11  2  0
 11 12  1  0
 12 13  1  0
 12 14  2  0
 14 15  1  0
 15 16  1  0
 16 17  2  0
 17 18  1  0
 18 19  1  0
  8  4  1  0
 19 10  1  0
 19 15  2  0
M  END
>  <energy_score>  (95) 
-22.308024

>  <alias>  (95) 
None

>  <HIPPO Pose ID>  (95) 
68564

>  <smiles>  (95) 
O=C(C[C@@H]1CCCO1)Nc1cc(Br)cc2nc[nH]c12

>  <inchikey>  (95) 
DVAWYXAIQBZFHR-VIFPVBQESA-N

>  <distance_score>  (95) 
1.266967

>  <ref_mols>  (95) 
Z0846a,Z1597a

>  <ref_pdb>  (95) 
Z0846a

>  <HIPPO Compound ID>  (95) 
136724

>  <name>  (95) 
P68564

>  <inspiration_score>  (95) 
None

$$$$
P68567
     RDKit          3D

 19 21  0  0  0  0  0  0  0  0999 V2000
   -4.9008    9.8189  -23.9382 C   0  0  0  0  0  0  0  0  0  0  0  0
   -5.4362    8.7544  -23.0434 C   0  0  1  0  0  0  0  0  0  0  0  0
   -5.4074    7.3192  -23.4938 C   0  0  0  0  0  0  0  0  0  0  0  0
   -4.5309    7.7558  -22.3482 C   0  0  2  0  0  0  0  0  0  0  0  0
   -4.8257    7.3241  -20.9372 C   0  0  0  0  0  0  0  0  0  0  0  0
   -4.5722    5.8438  -20.7109 C   0  0  0  0  0  0  0  0  0  0  0  0
   -4.7099    5.4838  -19.2399 C   0  0  0  0  0  0  0  0  0  0  0  0
   -3.8034    5.5215  -18.5006 O   0  0  0  0  0  0  0  0  0  0  0  0
   -6.2009    5.1111  -18.9896 N   0  0  0  0  0  0  0  0  0  0  0  0
   -6.8712    4.8134  -17.8076 C   0  0  0  0  0  0  0  0  0  0  0  0
   -6.2491    4.7943  -16.5560 C   0  0  0  0  0  0  0  0  0  0  0  0
   -7.0060    4.5854  -15.3971 C   0  0  0  0  0  0  0  0  0  0  0  0
   -6.2607    4.6730  -13.8531 Cl  0  0  0  0  0  0  0  0  0  0  0  0
   -8.3829    4.3745  -15.4264 C   0  0  0  0  0  0  0  0  0  0  0  0
   -8.9687    4.4225  -16.6788 C   0  0  0  0  0  0  0  0  0  0  0  0
  -10.2762    4.4141  -17.0667 N   0  0  0  0  0  0  0  0  0  0  0  0
  -10.3145    4.6758  -18.3952 C   0  0  0  0  0  0  0  0  0  0  0  0
   -9.1175    4.6594  -18.9230 N   0  0  0  0  0  0  0  0  0  0  0  0
   -8.2602    4.6106  -17.8573 C   0  0  0  0  0  0  0  0  0  0  0  0
  2  1  1  6
  2  3  1  0
  3  4  1  0
  4  5  1  1
  5  6  1  0
  6  7  1  0
  7  8  2  0
  7  9  1  0
  9 10  1  0
 10 11  2  0
 11 12  1  0
 12 13  1  0
 12 14  2  0
 14 15  1  0
 15 16  1  0
 16 17  1  0
 17 18  2  0
 18 19  1  0
  4  2  1  0
 19 10  1  0
 19 15  2  0
M  END
>  <energy_score>  (96) 
-5.505165

>  <alias>  (96) 
None

>  <HIPPO Pose ID>  (96) 
68567

>  <smiles>  (96) 
C[C@H]1C[C@@H]1CCC(=O)Nc1cc(Cl)cc2[nH]cnc12

>  <inchikey>  (96) 
AAGMGYLTFWHXMK-IUCAKERBSA-N

>  <distance_score>  (96) 
1.191052

>  <ref_mols>  (96) 
Z0846a,Z1597a

>  <ref_pdb>  (96) 
Z0846a

>  <HIPPO Compound ID>  (96) 
136727

>  <name>  (96) 
P68567

>  <inspiration_score>  (96) 
None

$$$$
P68571
     RDKit          3D

 19 21  0  0  0  0  0  0  0  0999 V2000
   -4.9499    9.8863  -24.0149 C   0  0  0  0  0  0  0  0  0  0  0  0
   -5.4503    8.8311  -23.0894 C   0  0  1  0  0  0  0  0  0  0  0  0
   -5.4218    7.3885  -23.5171 C   0  0  0  0  0  0  0  0  0  0  0  0
   -4.5118    7.8544  -22.4098 C   0  0  2  0  0  0  0  0  0  0  0  0
   -4.7543    7.4499  -20.9830 C   0  0  0  0  0  0  0  0  0  0  0  0
   -4.4541    5.9840  -20.7355 C   0  0  0  0  0  0  0  0  0  0  0  0
   -4.6204    5.6377  -19.2651 C   0  0  0  0  0  0  0  0  0  0  0  0
   -3.7300    5.6602  -18.5060 O   0  0  0  0  0  0  0  0  0  0  0  0
   -6.1192    5.2621  -19.0533 N   0  0  0  0  0  0  0  0  0  0  0  0
   -6.8145    4.9436  -17.8917 C   0  0  0  0  0  0  0  0  0  0  0  0
   -6.2098    4.8927  -16.6324 C   0  0  0  0  0  0  0  0  0  0  0  0
   -6.9542    4.5679  -15.4926 C   0  0  0  0  0  0  0  0  0  0  0  0
   -6.1690    4.6521  -13.7823 Br  0  0  0  0  0  0  0  0  0  0  0  0
   -8.2990    4.2275  -15.5592 C   0  0  0  0  0  0  0  0  0  0  0  0
   -8.9123    4.3034  -16.8018 C   0  0  0  0  0  0  0  0  0  0  0  0
  -10.2259    4.1287  -17.1027 N   0  0  0  0  0  0  0  0  0  0  0  0
  -10.3459    4.5794  -18.3213 C   0  0  0  0  0  0  0  0  0  0  0  0
   -9.1306    4.7536  -18.9101 N   0  0  0  0  0  0  0  0  0  0  0  0
   -8.1816    4.6747  -17.9248 C   0  0  0  0  0  0  0  0  0  0  0  0
  2  1  1  6
  2  3  1  0
  3  4  1  0
  4  5  1  1
  5  6  1  0
  6  7  1  0
  7  8  2  0
  7  9  1  0
  9 10  1  0
 10 11  2  0
 11 12  1  0
 12 13  1  0
 12 14  2  0
 14 15  1  0
 15 16  1  0
 16 17  2  0
 17 18  1  0
 18 19  1  0
  4  2  1  0
 19 10  1  0
 19 15  2  0
M  END
>  <energy_score>  (97) 
-18.096407

>  <alias>  (97) 
None

>  <HIPPO Pose ID>  (97) 
68571

>  <smiles>  (97) 
C[C@H]1C[C@@H]1CCC(=O)Nc1cc(Br)cc2nc[nH]c12

>  <inchikey>  (97) 
VGOGXTKPZXMWQR-IUCAKERBSA-N

>  <distance_score>  (97) 
1.132233

>  <ref_mols>  (97) 
Z0846a,Z1597a

>  <ref_pdb>  (97) 
Z0846a

>  <HIPPO Compound ID>  (97) 
136728

>  <name>  (97) 
P68571

>  <inspiration_score>  (97) 
None

$$$$
P68575
     RDKit          3D

 19 21  0  0  0  0  0  0  0  0999 V2000
   -4.4931    5.2248  -16.2723 C   0  0  0  0  0  0  0  0  0  0  0  0
   -5.9362    4.8993  -16.5350 C   0  0  0  0  0  0  0  0  0  0  0  0
   -6.6626    4.4528  -15.4063 C   0  0  0  0  0  0  0  0  0  0  0  0
   -8.0134    4.1297  -15.4663 C   0  0  0  0  0  0  0  0  0  0  0  0
   -8.6560    4.2804  -16.6865 C   0  0  0  0  0  0  0  0  0  0  0  0
   -9.9745    4.0867  -16.9732 N   0  0  0  0  0  0  0  0  0  0  0  0
  -10.1182    4.5236  -18.1953 C   0  0  0  0  0  0  0  0  0  0  0  0
   -8.9137    4.7782  -18.7775 N   0  0  0  0  0  0  0  0  0  0  0  0
   -7.9462    4.7161  -17.8005 C   0  0  0  0  0  0  0  0  0  0  0  0
   -6.5691    5.0165  -17.7939 C   0  0  0  0  0  0  0  0  0  0  0  0
   -6.0045    5.4078  -19.0209 N   0  0  0  0  0  0  0  0  0  0  0  0
   -4.5107    5.6293  -19.4260 C   0  0  0  0  0  0  0  0  0  0  0  0
   -3.5355    5.5940  -18.7782 O   0  0  0  0  0  0  0  0  0  0  0  0
   -4.4929    5.9988  -20.8952 C   0  0  0  0  0  0  0  0  0  0  0  0
   -4.7482    7.4810  -21.0844 C   0  0  0  0  0  0  0  0  0  0  0  0
   -4.5416    7.9137  -22.5080 C   0  0  1  0  0  0  0  0  0  0  0  0
   -5.4852    7.4770  -23.5988 C   0  0  0  0  0  0  0  0  0  0  0  0
   -5.4872    8.9112  -23.1431 C   0  0  2  0  0  0  0  0  0  0  0  0
   -4.9969    9.9775  -24.0609 C   0  0  0  0  0  0  0  0  0  0  0  0
  1  2  1  0
  2  3  2  0
  3  4  1  0
  4  5  2  0
  5  6  1  0
  6  7  2  0
  7  8  1  0
  8  9  1  0
  9 10  2  0
 10 11  1  0
 11 12  1  0
 12 13  2  0
 12 14  1  0
 14 15  1  0
 16 15  1  1
 16 17  1  0
 17 18  1  0
 18 19  1  6
 10  2  1  0
 18 16  1  0
  9  5  1  0
M  END
>  <energy_score>  (98) 
-17.17633

>  <alias>  (98) 
None

>  <HIPPO Pose ID>  (98) 
68575

>  <smiles>  (98) 
Cc1ccc2nc[nH]c2c1NC(=O)CC[C@H]1C[C@@H]1C

>  <inchikey>  (98) 
XEZWRAJYYCOHLS-QWRGUYRKSA-N

>  <distance_score>  (98) 
1.306023

>  <ref_mols>  (98) 
Z0846a,Z1597a

>  <ref_pdb>  (98) 
Z0846a

>  <HIPPO Compound ID>  (98) 
136729

>  <name>  (98) 
P68575

>  <inspiration_score>  (98) 
None

$$$$
P68579
     RDKit          3D

 19 21  0  0  0  0  0  0  0  0999 V2000
   -4.9720    9.9429  -24.0054 C   0  0  0  0  0  0  0  0  0  0  0  0
   -5.4656    8.8742  -23.0919 C   0  0  1  0  0  0  0  0  0  0  0  0
   -5.4481    7.4403  -23.5478 C   0  0  0  0  0  0  0  0  0  0  0  0
   -4.5236    7.8817  -22.4423 C   0  0  2  0  0  0  0  0  0  0  0  0
   -4.7497    7.4399  -21.0233 C   0  0  0  0  0  0  0  0  0  0  0  0
   -4.4628    5.9630  -20.8332 C   0  0  0  0  0  0  0  0  0  0  0  0
   -4.5399    5.5717  -19.3691 C   0  0  0  0  0  0  0  0  0  0  0  0
   -3.6024    5.5731  -18.6685 O   0  0  0  0  0  0  0  0  0  0  0  0
   -6.0252    5.2078  -19.0675 N   0  0  0  0  0  0  0  0  0  0  0  0
   -6.6479    4.8775  -17.8692 C   0  0  0  0  0  0  0  0  0  0  0  0
   -5.9515    4.7837  -16.6616 C   0  0  0  0  0  0  0  0  0  0  0  0
   -6.6188    4.4857  -15.4488 C   0  0  0  0  0  0  0  0  0  0  0  0
   -7.9963    4.2783  -15.4111 C   0  0  0  0  0  0  0  0  0  0  0  0
   -8.6515    4.3734  -16.6087 C   0  0  0  0  0  0  0  0  0  0  0  0
  -10.0110    4.3319  -16.8561 N   0  0  0  0  0  0  0  0  0  0  0  0
  -10.2294    4.6658  -18.1847 C   0  0  0  0  0  0  0  0  0  0  0  0
  -11.3148    4.8845  -18.6826 O   0  0  0  0  0  0  0  0  0  0  0  0
   -8.9809    4.7641  -18.7981 N   0  0  0  0  0  0  0  0  0  0  0  0
   -8.0036    4.6527  -17.8127 C   0  0  0  0  0  0  0  0  0  0  0  0
  2  1  1  6
  2  3  1  0
  3  4  1  0
  4  5  1  1
  5  6  1  0
  6  7  1  0
  7  8  2  0
  7  9  1  0
  9 10  1  0
 10 11  2  0
 11 12  1  0
 12 13  2  0
 13 14  1  0
 14 15  1  0
 15 16  1  0
 16 17  2  0
 16 18  1  0
 18 19  1  0
  4  2  1  0
 19 10  1  0
 19 14  2  0
M  END
>  <energy_score>  (99) 
-23.238377

>  <alias>  (99) 
None

>  <HIPPO Pose ID>  (99) 
68579

>  <smiles>  (99) 
C[C@H]1C[C@@H]1CCC(=O)Nc1cccc2[nH]c(=O)[nH]c12

>  <inchikey>  (99) 
WTHZZLBTMNWHMB-IUCAKERBSA-N

>  <distance_score>  (99) 
1.1905

>  <ref_mols>  (99) 
Z0846a,Z1597a

>  <ref_pdb>  (99) 
Z0846a

>  <HIPPO Compound ID>  (99) 
136730

>  <name>  (99) 
P68579

>  <inspiration_score>  (99) 
None

$$$$
P68587
     RDKit          3D

 19 21  0  0  0  0  0  0  0  0999 V2000
   -5.7401    9.3379  -23.3760 C   0  0  0  0  0  0  0  0  0  0  0  0
   -4.5794    8.5555  -22.8652 C   0  0  2  0  0  0  0  0  0  0  0  0
   -4.4731    7.0898  -23.1857 C   0  0  0  0  0  0  0  0  0  0  0  0
   -4.6970    7.5152  -21.7570 C   0  0  1  0  0  0  0  0  0  0  0  0
   -3.5886    7.4407  -20.7342 C   0  0  0  0  0  0  0  0  0  0  0  0
   -3.2478    6.0422  -20.2201 C   0  0  0  0  0  0  0  0  0  0  0  0
   -3.6469    5.8670  -18.7528 C   0  0  0  0  0  0  0  0  0  0  0  0
   -2.9570    6.1564  -17.8562 O   0  0  0  0  0  0  0  0  0  0  0  0
   -5.1091    5.3580  -18.7702 N   0  0  0  0  0  0  0  0  0  0  0  0
   -5.9603    5.0226  -17.7251 C   0  0  0  0  0  0  0  0  0  0  0  0
   -5.7618    5.2690  -16.3719 C   0  0  0  0  0  0  0  0  0  0  0  0
   -6.8119    5.0597  -15.4577 C   0  0  0  0  0  0  0  0  0  0  0  0
   -8.0988    4.6708  -15.8676 C   0  0  0  0  0  0  0  0  0  0  0  0
   -8.2582    4.4480  -17.2335 C   0  0  0  0  0  0  0  0  0  0  0  0
   -7.2003    4.5203  -18.1274 C   0  0  0  0  0  0  0  0  0  0  0  0
   -7.5697    4.1496  -19.3845 N   0  0  0  0  0  0  0  0  0  0  0  0
   -8.8708    4.1238  -19.3273 C   0  0  0  0  0  0  0  0  0  0  0  0
   -9.3352    4.2637  -18.0605 N   0  0  0  0  0  0  0  0  0  0  0  0
  -10.7052    4.5485  -17.7541 C   0  0  0  0  0  0  0  0  0  0  0  0
  2  1  1  6
  2  3  1  0
  3  4  1  0
  4  5  1  1
  5  6  1  0
  6  7  1  0
  7  8  2  0
  7  9  1  0
  9 10  1  0
 10 11  2  0
 11 12  1  0
 12 13  2  0
 13 14  1  0
 14 15  2  0
 15 16  1  0
 16 17  2  0
 17 18  1  0
 18 19  1  0
  4  2  1  0
 15 10  1  0
 18 14  1  0
M  END
>  <energy_score>  (100) 
-25.167311

>  <alias>  (100) 
None

>  <HIPPO Pose ID>  (100) 
68587

>  <smiles>  (100) 
C[C@@H]1C[C@H]1CCC(=O)Nc1cccc2c1ncn2C

>  <inchikey>  (100) 
XTYRHNNBPJKVQE-GHMZBOCLSA-N

>  <distance_score>  (100) 
1.432689

>  <ref_mols>  (100) 
Z0846a,Z1597a

>  <ref_pdb>  (100) 
Z0846a

>  <HIPPO Compound ID>  (100) 
136732

>  <name>  (100) 
P68587

>  <inspiration_score>  (100) 
None

$$$$
P68590
     RDKit          3D

 19 21  0  0  0  0  0  0  0  0999 V2000
  -10.9773    4.7275  -18.2824 C   0  0  0  0  0  0  0  0  0  0  0  0
   -9.6554    4.4056  -17.7592 C   0  0  0  0  0  0  0  0  0  0  0  0
   -9.3927    4.0305  -16.5330 N   0  0  0  0  0  0  0  0  0  0  0  0
   -8.0595    4.2526  -16.3873 C   0  0  0  0  0  0  0  0  0  0  0  0
   -7.2922    4.1625  -15.2291 C   0  0  0  0  0  0  0  0  0  0  0  0
   -5.9505    4.5313  -15.3108 C   0  0  0  0  0  0  0  0  0  0  0  0
   -5.3867    4.9522  -16.5220 C   0  0  0  0  0  0  0  0  0  0  0  0
   -6.1399    5.0182  -17.6962 C   0  0  0  0  0  0  0  0  0  0  0  0
   -5.6081    5.4302  -18.9112 N   0  0  0  0  0  0  0  0  0  0  0  0
   -4.1340    5.7273  -19.3218 C   0  0  0  0  0  0  0  0  0  0  0  0
   -3.1566    5.7442  -18.6785 O   0  0  0  0  0  0  0  0  0  0  0  0
   -4.1554    6.0638  -20.8021 C   0  0  0  0  0  0  0  0  0  0  0  0
   -4.5631    7.5073  -21.0311 C   0  0  0  0  0  0  0  0  0  0  0  0
   -4.4395    7.9073  -22.4746 C   0  0  1  0  0  0  0  0  0  0  0  0
   -5.4304    7.4188  -23.4990 C   0  0  0  0  0  0  0  0  0  0  0  0
   -5.4406    8.8659  -23.0839 C   0  0  2  0  0  0  0  0  0  0  0  0
   -5.0244    9.9170  -24.0549 C   0  0  0  0  0  0  0  0  0  0  0  0
   -7.4811    4.6635  -17.5851 C   0  0  0  0  0  0  0  0  0  0  0  0
   -8.5176    4.6397  -18.4778 N   0  0  0  0  0  0  0  0  0  0  0  0
  1  2  1  0
  2  3  2  0
  3  4  1  0
  4  5  2  0
  5  6  1  0
  6  7  2  0
  7  8  1  0
  8  9  1  0
  9 10  1  0
 10 11  2  0
 10 12  1  0
 12 13  1  0
 14 13  1  1
 14 15  1  0
 15 16  1  0
 16 17  1  6
  8 18  2  0
 18 19  1  0
 19  2  1  0
 18  4  1  0
 16 14  1  0
M  END
>  <energy_score>  (101) 
-25.566736

>  <alias>  (101) 
None

>  <HIPPO Pose ID>  (101) 
68590

>  <smiles>  (101) 
Cc1nc2cccc(NC(=O)CC[C@H]3C[C@@H]3C)c2[nH]1

>  <inchikey>  (101) 
VCFCOOOCGQTICZ-ONGXEEELSA-N

>  <distance_score>  (101) 
1.361425

>  <ref_mols>  (101) 
Z0846a,Z1597a

>  <ref_pdb>  (101) 
Z0846a

>  <HIPPO Compound ID>  (101) 
136734

>  <name>  (101) 
P68590

>  <inspiration_score>  (101) 
None

$$$$
P68597
     RDKit          3D

 19 20  0  0  0  0  0  0  0  0999 V2000
   -4.9275    9.3102  -22.8096 C   0  0  0  0  0  0  0  0  0  0  0  0
   -4.9817    7.8151  -23.0909 C   0  0  2  0  0  0  0  0  0  0  0  0
   -6.2118    7.5417  -23.7543 O   0  0  0  0  0  0  0  0  0  0  0  0
   -4.8579    6.9508  -21.8199 C   0  0  0  0  0  0  0  0  0  0  0  0
   -3.4687    7.0648  -21.1772 C   0  0  0  0  0  0  0  0  0  0  0  0
   -3.0402    5.9081  -20.2739 C   0  0  0  0  0  0  0  0  0  0  0  0
   -3.5314    6.0180  -18.8332 C   0  0  0  0  0  0  0  0  0  0  0  0
   -2.9320    6.5622  -17.9916 O   0  0  0  0  0  0  0  0  0  0  0  0
   -4.8780    5.2548  -18.7737 N   0  0  0  0  0  0  0  0  0  0  0  0
   -5.7759    5.0914  -17.7284 C   0  0  0  0  0  0  0  0  0  0  0  0
   -5.5494    5.4322  -16.3977 C   0  0  0  0  0  0  0  0  0  0  0  0
   -6.5669    5.2768  -15.4410 C   0  0  0  0  0  0  0  0  0  0  0  0
   -7.8503    4.8341  -15.7858 C   0  0  0  0  0  0  0  0  0  0  0  0
   -8.0501    4.5412  -17.1330 C   0  0  0  0  0  0  0  0  0  0  0  0
   -7.0371    4.5997  -18.0777 C   0  0  0  0  0  0  0  0  0  0  0  0
   -7.4702    4.2040  -19.3100 N   0  0  0  0  0  0  0  0  0  0  0  0
   -8.7651    4.1102  -19.1758 C   0  0  0  0  0  0  0  0  0  0  0  0
   -9.1499    4.2303  -17.8829 N   0  0  0  0  0  0  0  0  0  0  0  0
  -10.5030    4.2221  -17.4240 C   0  0  0  0  0  0  0  0  0  0  0  0
  2  1  1  1
  2  3  1  0
  2  4  1  0
  4  5  1  0
  5  6  1  0
  6  7  1  0
  7  8  2  0
  7  9  1  0
  9 10  1  0
 10 11  2  0
 11 12  1  0
 12 13  2  0
 13 14  1  0
 14 15  2  0
 15 16  1  0
 16 17  2  0
 17 18  1  0
 18 19  1  0
 15 10  1  0
 18 14  1  0
M  END
>  <energy_score>  (102) 
-3.437116

>  <alias>  (102) 
None

>  <HIPPO Pose ID>  (102) 
68597

>  <smiles>  (102) 
C[C@H](O)CCCC(=O)Nc1cccc2c1ncn2C

>  <inchikey>  (102) 
SCXKOOLLRKSVCS-JTQLQIEISA-N

>  <distance_score>  (102) 
1.383559

>  <ref_mols>  (102) 
Z0846a,Z1597a

>  <ref_pdb>  (102) 
Z0846a

>  <HIPPO Compound ID>  (102) 
136738

>  <name>  (102) 
P68597

>  <inspiration_score>  (102) 
None

$$$$
P68601
     RDKit          3D

 19 20  0  0  0  0  0  0  0  0999 V2000
   -5.8976    7.7524  -24.6494 C   0  0  0  0  0  0  0  0  0  0  0  0
   -5.5412    8.0757  -23.2059 C   0  0  2  0  0  0  0  0  0  0  0  0
   -4.7008    9.2217  -23.2062 O   0  0  0  0  0  0  0  0  0  0  0  0
   -4.8701    6.8801  -22.5275 C   0  0  0  0  0  0  0  0  0  0  0  0
   -4.7129    7.0467  -21.0131 C   0  0  0  0  0  0  0  0  0  0  0  0
   -4.1759    5.7731  -20.3696 C   0  0  0  0  0  0  0  0  0  0  0  0
   -4.4896    5.7029  -18.8863 C   0  0  0  0  0  0  0  0  0  0  0  0
   -3.6967    5.8950  -18.0483 O   0  0  0  0  0  0  0  0  0  0  0  0
   -5.9940    5.3046  -18.7817 N   0  0  0  0  0  0  0  0  0  0  0  0
   -6.7650    4.9842  -17.6749 C   0  0  0  0  0  0  0  0  0  0  0  0
   -6.2518    4.9560  -16.3775 C   0  0  0  0  0  0  0  0  0  0  0  0
   -7.0690    4.6160  -15.2965 C   0  0  0  0  0  0  0  0  0  0  0  0
   -6.3996    4.7061  -13.5386 Br  0  0  0  0  0  0  0  0  0  0  0  0
   -8.4009    4.2564  -15.4602 C   0  0  0  0  0  0  0  0  0  0  0  0
   -8.9270    4.3166  -16.7440 C   0  0  0  0  0  0  0  0  0  0  0  0
  -10.2154    4.1343  -17.1389 N   0  0  0  0  0  0  0  0  0  0  0  0
  -10.2483    4.5893  -18.3617 C   0  0  0  0  0  0  0  0  0  0  0  0
   -8.9945    4.7554  -18.8668 N   0  0  0  0  0  0  0  0  0  0  0  0
   -8.1200    4.6880  -17.8132 C   0  0  0  0  0  0  0  0  0  0  0  0
  2  1  1  6
  2  3  1  0
  2  4  1  0
  4  5  1  0
  5  6  1  0
  6  7  1  0
  7  8  2  0
  7  9  1  0
  9 10  1  0
 10 11  2  0
 11 12  1  0
 12 13  1  0
 12 14  2  0
 14 15  1  0
 15 16  1  0
 16 17  2  0
 17 18  1  0
 18 19  1  0
 19 10  1  0
 19 15  2  0
M  END
>  <energy_score>  (103) 
-20.306515

>  <alias>  (103) 
None

>  <HIPPO Pose ID>  (103) 
68601

>  <smiles>  (103) 
C[C@H](O)CCCC(=O)Nc1cc(Br)cc2nc[nH]c12

>  <inchikey>  (103) 
FMGSTMOOPZNYMK-QMMMGPOBSA-N

>  <distance_score>  (103) 
0.898039

>  <ref_mols>  (103) 
Z0846a,Z1597a

>  <ref_pdb>  (103) 
Z0846a

>  <HIPPO Compound ID>  (103) 
136741

>  <name>  (103) 
P68601

>  <inspiration_score>  (103) 
None

$$$$
P68606
     RDKit          3D

 19 20  0  0  0  0  0  0  0  0999 V2000
   -4.7550    9.3255  -23.1266 C   0  0  0  0  0  0  0  0  0  0  0  0
   -5.5890    8.0585  -23.2046 C   0  0  1  0  0  0  0  0  0  0  0  0
   -5.8376    7.7819  -24.5807 O   0  0  0  0  0  0  0  0  0  0  0  0
   -4.9267    6.8485  -22.5492 C   0  0  0  0  0  0  0  0  0  0  0  0
   -4.7579    6.9526  -21.0302 C   0  0  0  0  0  0  0  0  0  0  0  0
   -4.2070    5.6482  -20.4697 C   0  0  0  0  0  0  0  0  0  0  0  0
   -4.3967    5.4776  -18.9760 C   0  0  0  0  0  0  0  0  0  0  0  0
   -3.5172    5.5338  -18.2068 O   0  0  0  0  0  0  0  0  0  0  0  0
   -5.9018    5.1305  -18.7655 N   0  0  0  0  0  0  0  0  0  0  0  0
   -6.6141    4.8865  -17.6027 C   0  0  0  0  0  0  0  0  0  0  0  0
   -6.0088    4.8526  -16.3451 C   0  0  0  0  0  0  0  0  0  0  0  0
   -6.7591    4.5719  -15.1806 C   0  0  0  0  0  0  0  0  0  0  0  0
   -8.1303    4.3340  -15.2441 C   0  0  0  0  0  0  0  0  0  0  0  0
   -8.6965    4.3867  -16.4895 C   0  0  0  0  0  0  0  0  0  0  0  0
  -10.0341    4.3290  -16.8316 N   0  0  0  0  0  0  0  0  0  0  0  0
  -10.1624    4.6557  -18.1730 C   0  0  0  0  0  0  0  0  0  0  0  0
  -11.2128    4.8969  -18.7326 O   0  0  0  0  0  0  0  0  0  0  0  0
   -8.8741    4.7360  -18.7061 N   0  0  0  0  0  0  0  0  0  0  0  0
   -7.9678    4.6451  -17.6487 C   0  0  0  0  0  0  0  0  0  0  0  0
  2  1  1  6
  2  3  1  0
  2  4  1  0
  4  5  1  0
  5  6  1  0
  6  7  1  0
  7  8  2  0
  7  9  1  0
  9 10  1  0
 10 11  2  0
 11 12  1  0
 12 13  2  0
 13 14  1  0
 14 15  1  0
 15 16  1  0
 16 17  2  0
 16 18  1  0
 18 19  1  0
 19 10  1  0
 19 14  2  0
M  END
>  <energy_score>  (104) 
-25.293569

>  <alias>  (104) 
None

>  <HIPPO Pose ID>  (104) 
68606

>  <smiles>  (104) 
C[C@@H](O)CCCC(=O)Nc1cccc2[nH]c(=O)[nH]c12

>  <inchikey>  (104) 
ZUNCOOCYHNINDA-MRVPVSSYSA-N

>  <distance_score>  (104) 
0.923151

>  <ref_mols>  (104) 
Z0846a,Z1597a

>  <ref_pdb>  (104) 
Z0846a

>  <HIPPO Compound ID>  (104) 
136743

>  <name>  (104) 
P68606

>  <inspiration_score>  (104) 
None

$$$$
P68608
     RDKit          3D

 19 20  0  0  0  0  0  0  0  0999 V2000
   -6.2467    4.9176  -13.7551 C   0  0  0  0  0  0  0  0  0  0  0  0
   -6.8384    4.8401  -15.1243 C   0  0  0  0  0  0  0  0  0  0  0  0
   -6.0883    5.1665  -16.2665 C   0  0  0  0  0  0  0  0  0  0  0  0
   -6.6313    5.0913  -17.5553 C   0  0  0  0  0  0  0  0  0  0  0  0
   -5.8660    5.2984  -18.6955 N   0  0  0  0  0  0  0  0  0  0  0  0
   -4.3807    5.7440  -18.8496 C   0  0  0  0  0  0  0  0  0  0  0  0
   -3.6019    6.0781  -18.0426 O   0  0  0  0  0  0  0  0  0  0  0  0
   -4.0137    5.5747  -20.3148 C   0  0  0  0  0  0  0  0  0  0  0  0
   -4.0150    6.8651  -21.1268 C   0  0  0  0  0  0  0  0  0  0  0  0
   -5.1981    6.9425  -22.0998 C   0  0  0  0  0  0  0  0  0  0  0  0
   -4.9698    7.9490  -23.2311 C   0  0  1  0  0  0  0  0  0  0  0  0
   -5.9581    7.7507  -24.3700 C   0  0  0  0  0  0  0  0  0  0  0  0
   -5.1315    9.2738  -22.7311 O   0  0  0  0  0  0  0  0  0  0  0  0
   -7.9719    4.7206  -17.6368 C   0  0  0  0  0  0  0  0  0  0  0  0
   -8.8827    4.6745  -18.6622 N   0  0  0  0  0  0  0  0  0  0  0  0
  -10.0978    4.4064  -18.1046 C   0  0  0  0  0  0  0  0  0  0  0  0
   -9.9923    4.0358  -16.8581 N   0  0  0  0  0  0  0  0  0  0  0  0
   -8.7144    4.3457  -16.5209 C   0  0  0  0  0  0  0  0  0  0  0  0
   -8.1449    4.3725  -15.2515 C   0  0  0  0  0  0  0  0  0  0  0  0
  1  2  1  0
  2  3  2  0
  3  4  1  0
  4  5  1  0
  5  6  1  0
  6  7  2  0
  6  8  1  0
  8  9  1  0
  9 10  1  0
 10 11  1  0
 11 12  1  6
 11 13  1  0
  4 14  2  0
 14 15  1  0
 15 16  1  0
 16 17  2  0
 17 18  1  0
 18 19  2  0
 19  2  1  0
 18 14  1  0
M  END
>  <energy_score>  (105) 
-7.405766

>  <alias>  (105) 
None

>  <HIPPO Pose ID>  (105) 
68608

>  <smiles>  (105) 
Cc1cc(NC(=O)CCC[C@@H](C)O)c2[nH]cnc2c1

>  <inchikey>  (105) 
QNCILFZQINLCFQ-SNVBAGLBSA-N

>  <distance_score>  (105) 
1.156177

>  <ref_mols>  (105) 
Z0846a,Z1597a

>  <ref_pdb>  (105) 
Z0846a

>  <HIPPO Compound ID>  (105) 
136744

>  <name>  (105) 
P68608

>  <inspiration_score>  (105) 
None

$$$$
P68609
     RDKit          3D

 19 20  0  0  0  0  0  0  0  0999 V2000
   -5.5619   10.1169  -23.8833 C   0  0  0  0  0  0  0  0  0  0  0  0
   -4.7779    9.2457  -23.2352 C   0  0  0  0  0  0  0  0  0  0  0  0
   -4.2759    9.4365  -21.8293 C   0  0  0  0  0  0  0  0  0  0  0  0
   -4.6767    8.2813  -20.9057 C   0  0  0  0  0  0  0  0  0  0  0  0
   -3.8164    7.0233  -21.0809 C   0  0  0  0  0  0  0  0  0  0  0  0
   -4.5063    5.7655  -20.5634 C   0  0  0  0  0  0  0  0  0  0  0  0
   -4.7466    5.7626  -19.0604 C   0  0  0  0  0  0  0  0  0  0  0  0
   -3.9109    6.0275  -18.2858 O   0  0  0  0  0  0  0  0  0  0  0  0
   -6.2072    5.2727  -18.8398 N   0  0  0  0  0  0  0  0  0  0  0  0
   -6.8763    4.9328  -17.6738 C   0  0  0  0  0  0  0  0  0  0  0  0
   -6.2863    4.9558  -16.4094 C   0  0  0  0  0  0  0  0  0  0  0  0
   -7.0588    4.6905  -15.2739 C   0  0  0  0  0  0  0  0  0  0  0  0
   -6.3556    4.8052  -13.7125 Cl  0  0  0  0  0  0  0  0  0  0  0  0
   -8.4211    4.4018  -15.3405 C   0  0  0  0  0  0  0  0  0  0  0  0
   -8.9767    4.4214  -16.6080 C   0  0  0  0  0  0  0  0  0  0  0  0
  -10.2717    4.3662  -17.0331 N   0  0  0  0  0  0  0  0  0  0  0  0
  -10.2825    4.6361  -18.3614 C   0  0  0  0  0  0  0  0  0  0  0  0
   -9.0723    4.6486  -18.8580 N   0  0  0  0  0  0  0  0  0  0  0  0
   -8.2464    4.6403  -17.7662 C   0  0  0  0  0  0  0  0  0  0  0  0
  1  2  2  0
  2  3  1  0
  3  4  1  0
  4  5  1  0
  5  6  1  0
  6  7  1  0
  7  8  2  0
  7  9  1  0
  9 10  1  0
 10 11  2  0
 11 12  1  0
 12 13  1  0
 12 14  2  0
 14 15  1  0
 15 16  1  0
 16 17  1  0
 17 18  2  0
 18 19  1  0
 19 10  1  0
 19 15  2  0
M  END
>  <energy_score>  (106) 
-17.678267

>  <alias>  (106) 
None

>  <HIPPO Pose ID>  (106) 
68609

>  <smiles>  (106) 
C=CCCCCC(=O)Nc1cc(Cl)cc2[nH]cnc12

>  <inchikey>  (106) 
HPYVPIIZHMIEJO-UHFFFAOYSA-N

>  <distance_score>  (106) 
0.911979

>  <ref_mols>  (106) 
Z0846a,Z1597a

>  <ref_pdb>  (106) 
Z0846a

>  <HIPPO Compound ID>  (106) 
136745

>  <name>  (106) 
P68609

>  <inspiration_score>  (106) 
None

$$$$
P68610
     RDKit          3D

 19 20  0  0  0  0  0  0  0  0999 V2000
   -5.6732   10.2358  -23.7158 C   0  0  0  0  0  0  0  0  0  0  0  0
   -5.1810    9.1610  -23.0863 C   0  0  0  0  0  0  0  0  0  0  0  0
   -4.0944    9.2293  -22.0499 C   0  0  0  0  0  0  0  0  0  0  0  0
   -4.2916    8.3265  -20.8217 C   0  0  0  0  0  0  0  0  0  0  0  0
   -4.4825    6.8428  -21.1719 C   0  0  0  0  0  0  0  0  0  0  0  0
   -3.8634    5.8811  -20.1655 C   0  0  0  0  0  0  0  0  0  0  0  0
   -4.3754    5.9523  -18.7327 C   0  0  0  0  0  0  0  0  0  0  0  0
   -3.6947    6.3110  -17.8513 O   0  0  0  0  0  0  0  0  0  0  0  0
   -5.8265    5.3855  -18.7211 N   0  0  0  0  0  0  0  0  0  0  0  0
   -6.6640    5.0691  -17.6558 C   0  0  0  0  0  0  0  0  0  0  0  0
   -6.2173    5.0760  -16.3315 C   0  0  0  0  0  0  0  0  0  0  0  0
   -7.0660    4.7057  -15.2834 C   0  0  0  0  0  0  0  0  0  0  0  0
   -6.4694    4.8118  -13.5001 Br  0  0  0  0  0  0  0  0  0  0  0  0
   -8.3763    4.3000  -15.5001 C   0  0  0  0  0  0  0  0  0  0  0  0
   -8.8487    4.3486  -16.8047 C   0  0  0  0  0  0  0  0  0  0  0  0
  -10.1233    4.1586  -17.2439 N   0  0  0  0  0  0  0  0  0  0  0  0
  -10.1073    4.6077  -18.4692 C   0  0  0  0  0  0  0  0  0  0  0  0
   -8.8353    4.7626  -18.9299 N   0  0  0  0  0  0  0  0  0  0  0  0
   -8.0023    4.7258  -17.8441 C   0  0  0  0  0  0  0  0  0  0  0  0
  1  2  2  0
  2  3  1  0
  3  4  1  0
  4  5  1  0
  5  6  1  0
  6  7  1  0
  7  8  2  0
  7  9  1  0
  9 10  1  0
 10 11  2  0
 11 12  1  0
 12 13  1  0
 12 14  2  0
 14 15  1  0
 15 16  1  0
 16 17  2  0
 17 18  1  0
 18 19  1  0
 19 10  1  0
 19 15  2  0
M  END
>  <energy_score>  (107) 
-19.855742

>  <alias>  (107) 
None

>  <HIPPO Pose ID>  (107) 
68610

>  <smiles>  (107) 
C=CCCCCC(=O)Nc1cc(Br)cc2nc[nH]c12

>  <inchikey>  (107) 
ONRKRDRUEGLNCZ-UHFFFAOYSA-N

>  <distance_score>  (107) 
0.918642

>  <ref_mols>  (107) 
Z0846a,Z1597a

>  <ref_pdb>  (107) 
Z0846a

>  <HIPPO Compound ID>  (107) 
136746

>  <name>  (107) 
P68610

>  <inspiration_score>  (107) 
None

$$$$
P68611
     RDKit          3D

 19 20  0  0  0  0  0  0  0  0999 V2000
   -5.5867   10.1247  -23.7536 C   0  0  0  0  0  0  0  0  0  0  0  0
   -4.9526    9.1730  -23.0558 C   0  0  0  0  0  0  0  0  0  0  0  0
   -5.2361    7.7053  -23.2048 C   0  0  0  0  0  0  0  0  0  0  0  0
   -5.2562    6.9269  -21.8818 C   0  0  0  0  0  0  0  0  0  0  0  0
   -3.8846    6.8207  -21.2107 C   0  0  0  0  0  0  0  0  0  0  0  0
   -3.7738    5.6373  -20.2581 C   0  0  0  0  0  0  0  0  0  0  0  0
   -4.2561    5.9013  -18.8392 C   0  0  0  0  0  0  0  0  0  0  0  0
   -3.6028    6.4734  -18.0537 O   0  0  0  0  0  0  0  0  0  0  0  0
   -5.6398    5.1951  -18.6818 N   0  0  0  0  0  0  0  0  0  0  0  0
   -6.4248    4.9766  -17.5425 C   0  0  0  0  0  0  0  0  0  0  0  0
   -5.9603    4.8950  -16.2116 C   0  0  0  0  0  0  0  0  0  0  0  0
   -4.5191    5.0603  -15.8131 C   0  0  0  0  0  0  0  0  0  0  0  0
   -6.8520    4.5737  -15.1644 C   0  0  0  0  0  0  0  0  0  0  0  0
   -8.1949    4.2846  -15.3922 C   0  0  0  0  0  0  0  0  0  0  0  0
   -8.6621    4.3631  -16.6979 C   0  0  0  0  0  0  0  0  0  0  0  0
   -9.9383    4.1982  -17.1534 N   0  0  0  0  0  0  0  0  0  0  0  0
   -9.8955    4.5949  -18.3971 C   0  0  0  0  0  0  0  0  0  0  0  0
   -8.6144    4.7707  -18.8247 N   0  0  0  0  0  0  0  0  0  0  0  0
   -7.7908    4.7036  -17.7278 C   0  0  0  0  0  0  0  0  0  0  0  0
  1  2  2  0
  2  3  1  0
  3  4  1  0
  4  5  1  0
  5  6  1  0
  6  7  1  0
  7  8  2  0
  7  9  1  0
  9 10  1  0
 10 11  2  0
 11 12  1  0
 11 13  1  0
 13 14  2  0
 14 15  1  0
 15 16  1  0
 16 17  2  0
 17 18  1  0
 18 19  1  0
 19 10  1  0
 19 15  2  0
M  END
>  <energy_score>  (108) 
-16.470763

>  <alias>  (108) 
None

>  <HIPPO Pose ID>  (108) 
68611

>  <smiles>  (108) 
C=CCCCCC(=O)Nc1c(C)ccc2nc[nH]c12

>  <inchikey>  (108) 
ZBCVOYMBDGQIDB-UHFFFAOYSA-N

>  <distance_score>  (108) 
1.152966

>  <ref_mols>  (108) 
Z0846a,Z1597a

>  <ref_pdb>  (108) 
Z0846a

>  <HIPPO Compound ID>  (108) 
136747

>  <name>  (108) 
P68611

>  <inspiration_score>  (108) 
None

$$$$
P68612
     RDKit          3D

 19 20  0  0  0  0  0  0  0  0999 V2000
   -5.5464   10.1717  -23.6701 C   0  0  0  0  0  0  0  0  0  0  0  0
   -4.9239    9.1983  -22.9917 C   0  0  0  0  0  0  0  0  0  0  0  0
   -5.1874    7.7368  -23.2119 C   0  0  0  0  0  0  0  0  0  0  0  0
   -5.3045    6.9136  -21.9229 C   0  0  0  0  0  0  0  0  0  0  0  0
   -3.9855    6.7382  -21.1643 C   0  0  0  0  0  0  0  0  0  0  0  0
   -3.9480    5.4552  -20.3404 C   0  0  0  0  0  0  0  0  0  0  0  0
   -4.3151    5.5955  -18.8744 C   0  0  0  0  0  0  0  0  0  0  0  0
   -3.5269    5.8935  -18.0620 O   0  0  0  0  0  0  0  0  0  0  0  0
   -5.8101    5.1784  -18.7261 N   0  0  0  0  0  0  0  0  0  0  0  0
   -6.5770    4.9610  -17.5882 C   0  0  0  0  0  0  0  0  0  0  0  0
   -6.0033    4.9580  -16.3124 C   0  0  0  0  0  0  0  0  0  0  0  0
   -6.7682    4.6695  -15.1593 C   0  0  0  0  0  0  0  0  0  0  0  0
   -8.1293    4.3958  -15.2479 C   0  0  0  0  0  0  0  0  0  0  0  0
   -8.6694    4.4259  -16.5056 C   0  0  0  0  0  0  0  0  0  0  0  0
  -10.0023    4.3459  -16.8627 N   0  0  0  0  0  0  0  0  0  0  0  0
  -10.1153    4.6648  -18.2074 C   0  0  0  0  0  0  0  0  0  0  0  0
  -11.1641    4.8952  -18.7747 O   0  0  0  0  0  0  0  0  0  0  0  0
   -8.8196    4.7523  -18.7269 N   0  0  0  0  0  0  0  0  0  0  0  0
   -7.9246    4.6873  -17.6578 C   0  0  0  0  0  0  0  0  0  0  0  0
  1  2  2  0
  2  3  1  0
  3  4  1  0
  4  5  1  0
  5  6  1  0
  6  7  1  0
  7  8  2  0
  7  9  1  0
  9 10  1  0
 10 11  2  0
 11 12  1  0
 12 13  2  0
 13 14  1  0
 14 15  1  0
 15 16  1  0
 16 17  2  0
 16 18  1  0
 18 19  1  0
 19 10  1  0
 19 14  2  0
M  END
>  <energy_score>  (109) 
-31.391718

>  <alias>  (109) 
None

>  <HIPPO Pose ID>  (109) 
68612

>  <smiles>  (109) 
C=CCCCCC(=O)Nc1cccc2[nH]c(=O)[nH]c12

>  <inchikey>  (109) 
QDOOEHIEINGLCJ-UHFFFAOYSA-N

>  <distance_score>  (109) 
0.988979

>  <ref_mols>  (109) 
Z0846a,Z1597a

>  <ref_pdb>  (109) 
Z0846a

>  <HIPPO Compound ID>  (109) 
136748

>  <name>  (109) 
P68612

>  <inspiration_score>  (109) 
None

$$$$
P68613
     RDKit          3D

 19 20  0  0  0  0  0  0  0  0999 V2000
   -5.6531   10.3059  -23.7160 C   0  0  0  0  0  0  0  0  0  0  0  0
   -5.2069    9.2154  -23.0793 C   0  0  0  0  0  0  0  0  0  0  0  0
   -4.0883    9.2399  -22.0750 C   0  0  0  0  0  0  0  0  0  0  0  0
   -4.2911    8.3563  -20.8340 C   0  0  0  0  0  0  0  0  0  0  0  0
   -4.5524    6.8793  -21.1666 C   0  0  0  0  0  0  0  0  0  0  0  0
   -3.8903    5.8999  -20.2081 C   0  0  0  0  0  0  0  0  0  0  0  0
   -4.3114    5.9629  -18.7463 C   0  0  0  0  0  0  0  0  0  0  0  0
   -3.5600    6.2675  -17.9021 O   0  0  0  0  0  0  0  0  0  0  0  0
   -5.7867    5.4680  -18.6547 N   0  0  0  0  0  0  0  0  0  0  0  0
   -6.5723    5.1691  -17.5448 C   0  0  0  0  0  0  0  0  0  0  0  0
   -6.0683    5.2371  -16.2388 C   0  0  0  0  0  0  0  0  0  0  0  0
   -6.8245    4.8351  -15.1248 C   0  0  0  0  0  0  0  0  0  0  0  0
   -6.2931    4.9630  -13.7343 C   0  0  0  0  0  0  0  0  0  0  0  0
   -8.1213    4.3541  -15.2914 C   0  0  0  0  0  0  0  0  0  0  0  0
   -8.6603    4.3424  -16.5743 C   0  0  0  0  0  0  0  0  0  0  0  0
   -9.9318    4.0345  -16.9416 N   0  0  0  0  0  0  0  0  0  0  0  0
  -10.0116    4.4338  -18.1811 C   0  0  0  0  0  0  0  0  0  0  0  0
   -8.7852    4.7098  -18.7109 N   0  0  0  0  0  0  0  0  0  0  0  0
   -7.8971    4.7514  -17.6657 C   0  0  0  0  0  0  0  0  0  0  0  0
  1  2  2  0
  2  3  1  0
  3  4  1  0
  4  5  1  0
  5  6  1  0
  6  7  1  0
  7  8  2  0
  7  9  1  0
  9 10  1  0
 10 11  2  0
 11 12  1  0
 12 13  1  0
 12 14  2  0
 14 15  1  0
 15 16  1  0
 16 17  2  0
 17 18  1  0
 18 19  1  0
 19 10  1  0
 19 15  2  0
M  END
>  <energy_score>  (110) 
-4.064217

>  <alias>  (110) 
None

>  <HIPPO Pose ID>  (110) 
68613

>  <smiles>  (110) 
C=CCCCCC(=O)Nc1cc(C)cc2nc[nH]c12

>  <inchikey>  (110) 
HYSGJKOFNONFJS-UHFFFAOYSA-N

>  <distance_score>  (110) 
1.117314

>  <ref_mols>  (110) 
Z0846a,Z1597a

>  <ref_pdb>  (110) 
Z0846a

>  <HIPPO Compound ID>  (110) 
136749

>  <name>  (110) 
P68613

>  <inspiration_score>  (110) 
None

$$$$
P68614
     RDKit          3D

 19 20  0  0  0  0  0  0  0  0999 V2000
   -5.5831   10.0941  -23.7056 C   0  0  0  0  0  0  0  0  0  0  0  0
   -4.9558    9.1504  -22.9907 C   0  0  0  0  0  0  0  0  0  0  0  0
   -5.2370    7.6810  -23.1281 C   0  0  0  0  0  0  0  0  0  0  0  0
   -5.2300    6.9026  -21.8032 C   0  0  0  0  0  0  0  0  0  0  0  0
   -3.8491    6.8220  -21.1421 C   0  0  0  0  0  0  0  0  0  0  0  0
   -3.6337    5.5507  -20.3287 C   0  0  0  0  0  0  0  0  0  0  0  0
   -3.9136    5.6560  -18.8395 C   0  0  0  0  0  0  0  0  0  0  0  0
   -3.0751    5.9171  -18.0657 O   0  0  0  0  0  0  0  0  0  0  0  0
   -5.4052    5.2609  -18.6175 N   0  0  0  0  0  0  0  0  0  0  0  0
   -6.1108    5.0245  -17.4432 C   0  0  0  0  0  0  0  0  0  0  0  0
   -5.4877    5.0531  -16.1915 C   0  0  0  0  0  0  0  0  0  0  0  0
   -6.1590    4.6743  -15.0237 C   0  0  0  0  0  0  0  0  0  0  0  0
   -7.4892    4.2670  -15.0611 C   0  0  0  0  0  0  0  0  0  0  0  0
   -8.1424    4.3034  -16.2897 C   0  0  0  0  0  0  0  0  0  0  0  0
   -9.4551    4.0661  -16.5415 N   0  0  0  0  0  0  0  0  0  0  0  0
   -9.6183    4.4288  -17.7877 C   0  0  0  0  0  0  0  0  0  0  0  0
  -10.8980    4.7811  -18.3959 C   0  0  0  0  0  0  0  0  0  0  0  0
   -8.4209    4.6222  -18.4238 N   0  0  0  0  0  0  0  0  0  0  0  0
   -7.4592    4.6710  -17.4480 C   0  0  0  0  0  0  0  0  0  0  0  0
  1  2  2  0
  2  3  1  0
  3  4  1  0
  4  5  1  0
  5  6  1  0
  6  7  1  0
  7  8  2  0
  7  9  1  0
  9 10  1  0
 10 11  2  0
 11 12  1  0
 12 13  2  0
 13 14  1  0
 14 15  1  0
 15 16  2  0
 16 17  1  0
 16 18  1  0
 18 19  1  0
 19 10  1  0
 19 14  2  0
M  END
>  <energy_score>  (111) 
-17.203454

>  <alias>  (111) 
None

>  <HIPPO Pose ID>  (111) 
68614

>  <smiles>  (111) 
C=CCCCCC(=O)Nc1cccc2nc(C)[nH]c12

>  <inchikey>  (111) 
CTBUHERWWHPEOG-UHFFFAOYSA-N

>  <distance_score>  (111) 
1.242277

>  <ref_mols>  (111) 
Z0846a,Z1597a

>  <ref_pdb>  (111) 
Z0846a

>  <HIPPO Compound ID>  (111) 
136752

>  <name>  (111) 
P68614

>  <inspiration_score>  (111) 
None

$$$$
P68618
     RDKit          3D

 19 20  0  0  0  0  0  0  0  0999 V2000
   -5.7981    8.9518  -24.1023 C   0  0  0  0  0  0  0  0  0  0  0  0
   -4.8927    8.6643  -22.9111 C   0  0  0  0  0  0  0  0  0  0  0  0
   -5.2030    7.3517  -22.1664 C   0  0  1  0  0  0  0  0  0  0  0  0
   -5.5031    6.2539  -23.1734 C   0  0  0  0  0  0  0  0  0  0  0  0
   -4.0401    7.0059  -21.2055 C   0  0  0  0  0  0  0  0  0  0  0  0
   -4.1506    5.6839  -20.4509 C   0  0  0  0  0  0  0  0  0  0  0  0
   -4.5322    5.8041  -18.9825 C   0  0  0  0  0  0  0  0  0  0  0  0
   -3.7707    6.1368  -18.1588 O   0  0  0  0  0  0  0  0  0  0  0  0
   -6.0062    5.3141  -18.8559 N   0  0  0  0  0  0  0  0  0  0  0  0
   -6.7760    5.0549  -17.7303 C   0  0  0  0  0  0  0  0  0  0  0  0
   -6.2538    5.0799  -16.4351 C   0  0  0  0  0  0  0  0  0  0  0  0
   -7.0463    4.7269  -15.3381 C   0  0  0  0  0  0  0  0  0  0  0  0
   -6.3564    4.8498  -13.5898 Br  0  0  0  0  0  0  0  0  0  0  0  0
   -8.3669    4.3190  -15.4785 C   0  0  0  0  0  0  0  0  0  0  0  0
   -8.9090    4.3508  -16.7563 C   0  0  0  0  0  0  0  0  0  0  0  0
  -10.2005    4.1455  -17.1273 N   0  0  0  0  0  0  0  0  0  0  0  0
  -10.2534    4.5692  -18.3607 C   0  0  0  0  0  0  0  0  0  0  0  0
   -9.0082    4.7271  -18.8897 N   0  0  0  0  0  0  0  0  0  0  0  0
   -8.1226    4.7157  -17.8436 C   0  0  0  0  0  0  0  0  0  0  0  0
  1  2  1  0
  2  3  1  0
  3  4  1  6
  3  5  1  0
  5  6  1  0
  6  7  1  0
  7  8  2  0
  7  9  1  0
  9 10  1  0
 10 11  2  0
 11 12  1  0
 12 13  1  0
 12 14  2  0
 14 15  1  0
 15 16  1  0
 16 17  2  0
 17 18  1  0
 18 19  1  0
 19 10  1  0
 19 15  2  0
M  END
>  <energy_score>  (112) 
-15.976967

>  <alias>  (112) 
None

>  <HIPPO Pose ID>  (112) 
68618

>  <smiles>  (112) 
CC[C@@H](C)CCC(=O)Nc1cc(Br)cc2nc[nH]c12

>  <inchikey>  (112) 
IQNBZKUJGNCYKE-SECBINFHSA-N

>  <distance_score>  (112) 
1.013654

>  <ref_mols>  (112) 
Z0846a,Z1597a

>  <ref_pdb>  (112) 
Z0846a

>  <HIPPO Compound ID>  (112) 
136754

>  <name>  (112) 
P68618

>  <inspiration_score>  (112) 
None

$$$$
P68620
     RDKit          3D

 19 20  0  0  0  0  0  0  0  0999 V2000
   -5.9683    7.9556  -24.6212 C   0  0  0  0  0  0  0  0  0  0  0  0
   -5.5039    8.1867  -23.1891 C   0  0  0  0  0  0  0  0  0  0  0  0
   -4.7072    6.9971  -22.6308 C   0  0  1  0  0  0  0  0  0  0  0  0
   -3.2985    6.9741  -23.2387 C   0  0  0  0  0  0  0  0  0  0  0  0
   -4.6493    7.0364  -21.0891 C   0  0  0  0  0  0  0  0  0  0  0  0
   -4.1884    5.7057  -20.5052 C   0  0  0  0  0  0  0  0  0  0  0  0
   -4.3388    5.6215  -19.0009 C   0  0  0  0  0  0  0  0  0  0  0  0
   -3.4281    5.6610  -18.2664 O   0  0  0  0  0  0  0  0  0  0  0  0
   -5.8575    5.3846  -18.7188 N   0  0  0  0  0  0  0  0  0  0  0  0
   -6.5230    5.0647  -17.5260 C   0  0  0  0  0  0  0  0  0  0  0  0
   -6.0037    5.0241  -16.2141 C   0  0  0  0  0  0  0  0  0  0  0  0
   -4.6033    5.4144  -15.8369 C   0  0  0  0  0  0  0  0  0  0  0  0
   -6.8117    4.5807  -15.1433 C   0  0  0  0  0  0  0  0  0  0  0  0
   -8.1413    4.2107  -15.3135 C   0  0  0  0  0  0  0  0  0  0  0  0
   -8.6831    4.3149  -16.5866 C   0  0  0  0  0  0  0  0  0  0  0  0
   -9.9715    4.1004  -16.9770 N   0  0  0  0  0  0  0  0  0  0  0  0
  -10.0147    4.5092  -18.2166 C   0  0  0  0  0  0  0  0  0  0  0  0
   -8.7671    4.7482  -18.7084 N   0  0  0  0  0  0  0  0  0  0  0  0
   -7.8874    4.7306  -17.6485 C   0  0  0  0  0  0  0  0  0  0  0  0
  1  2  1  0
  2  3  1  0
  3  4  1  6
  3  5  1  0
  5  6  1  0
  6  7  1  0
  7  8  2  0
  7  9  1  0
  9 10  1  0
 10 11  2  0
 11 12  1  0
 11 13  1  0
 13 14  2  0
 14 15  1  0
 15 16  1  0
 16 17  2  0
 17 18  1  0
 18 19  1  0
 19 10  1  0
 19 15  2  0
M  END
>  <energy_score>  (113) 
-15.188491

>  <alias>  (113) 
None

>  <HIPPO Pose ID>  (113) 
68620

>  <smiles>  (113) 
CC[C@@H](C)CCC(=O)Nc1c(C)ccc2nc[nH]c12

>  <inchikey>  (113) 
SDHOIVSHHUGQCJ-SNVBAGLBSA-N

>  <distance_score>  (113) 
1.181222

>  <ref_mols>  (113) 
Z0846a,Z1597a

>  <ref_pdb>  (113) 
Z0846a

>  <HIPPO Compound ID>  (113) 
136755

>  <name>  (113) 
P68620

>  <inspiration_score>  (113) 
None

$$$$
P68622
     RDKit          3D

 19 20  0  0  0  0  0  0  0  0999 V2000
   -5.7992    9.0425  -24.1686 C   0  0  0  0  0  0  0  0  0  0  0  0
   -4.9476    8.7319  -22.9440 C   0  0  0  0  0  0  0  0  0  0  0  0
   -5.2526    7.3741  -22.2914 C   0  0  1  0  0  0  0  0  0  0  0  0
   -5.4050    6.3080  -23.3646 C   0  0  0  0  0  0  0  0  0  0  0  0
   -4.1899    7.0446  -21.2140 C   0  0  0  0  0  0  0  0  0  0  0  0
   -4.2741    5.6484  -20.6041 C   0  0  0  0  0  0  0  0  0  0  0  0
   -4.4736    5.6207  -19.0991 C   0  0  0  0  0  0  0  0  0  0  0  0
   -3.5886    5.7460  -18.3437 O   0  0  0  0  0  0  0  0  0  0  0  0
   -5.9786    5.3034  -18.8475 N   0  0  0  0  0  0  0  0  0  0  0  0
   -6.6496    4.9957  -17.6734 C   0  0  0  0  0  0  0  0  0  0  0  0
   -6.0147    4.9626  -16.4301 C   0  0  0  0  0  0  0  0  0  0  0  0
   -6.7268    4.6315  -15.2540 C   0  0  0  0  0  0  0  0  0  0  0  0
   -8.0901    4.3452  -15.2898 C   0  0  0  0  0  0  0  0  0  0  0  0
   -8.6861    4.3970  -16.5212 C   0  0  0  0  0  0  0  0  0  0  0  0
  -10.0297    4.3087  -16.8340 N   0  0  0  0  0  0  0  0  0  0  0  0
  -10.1955    4.6502  -18.1689 C   0  0  0  0  0  0  0  0  0  0  0  0
  -11.2637    4.8790  -18.7001 O   0  0  0  0  0  0  0  0  0  0  0  0
   -8.9225    4.7685  -18.7280 N   0  0  0  0  0  0  0  0  0  0  0  0
   -7.9919    4.6953  -17.6923 C   0  0  0  0  0  0  0  0  0  0  0  0
  1  2  1  0
  2  3  1  0
  3  4  1  6
  3  5  1  0
  5  6  1  0
  6  7  1  0
  7  8  2  0
  7  9  1  0
  9 10  1  0
 10 11  2  0
 11 12  1  0
 12 13  2  0
 13 14  1  0
 14 15  1  0
 15 16  1  0
 16 17  2  0
 16 18  1  0
 18 19  1  0
 19 10  1  0
 19 14  2  0
M  END
>  <energy_score>  (114) 
-22.594931

>  <alias>  (114) 
None

>  <HIPPO Pose ID>  (114) 
68622

>  <smiles>  (114) 
CC[C@@H](C)CCC(=O)Nc1cccc2[nH]c(=O)[nH]c12

>  <inchikey>  (114) 
YYXJXJDUYIZDSM-SECBINFHSA-N

>  <distance_score>  (114) 
1.085757

>  <ref_mols>  (114) 
Z0846a,Z1597a

>  <ref_pdb>  (114) 
Z0846a

>  <HIPPO Compound ID>  (114) 
136756

>  <name>  (114) 
P68622

>  <inspiration_score>  (114) 
None

$$$$
P68623
     RDKit          3D

 19 20  0  0  0  0  0  0  0  0999 V2000
   -5.2241    8.8414  -24.5457 C   0  0  0  0  0  0  0  0  0  0  0  0
   -5.0988    8.7331  -23.0294 C   0  0  0  0  0  0  0  0  0  0  0  0
   -4.7321    7.3225  -22.5374 C   0  0  2  0  0  0  0  0  0  0  0  0
   -5.6290    6.3125  -23.2317 C   0  0  0  0  0  0  0  0  0  0  0  0
   -4.8211    7.2406  -21.0020 C   0  0  0  0  0  0  0  0  0  0  0  0
   -4.2362    5.9557  -20.4232 C   0  0  0  0  0  0  0  0  0  0  0  0
   -4.4554    5.8564  -18.9222 C   0  0  0  0  0  0  0  0  0  0  0  0
   -3.6002    6.0211  -18.1404 O   0  0  0  0  0  0  0  0  0  0  0  0
   -5.9520    5.4652  -18.7159 N   0  0  0  0  0  0  0  0  0  0  0  0
   -6.6426    5.1199  -17.5612 C   0  0  0  0  0  0  0  0  0  0  0  0
   -6.0582    5.1744  -16.2901 C   0  0  0  0  0  0  0  0  0  0  0  0
   -6.7579    4.7882  -15.1346 C   0  0  0  0  0  0  0  0  0  0  0  0
   -6.1517    4.9159  -13.7756 C   0  0  0  0  0  0  0  0  0  0  0  0
   -8.0698    4.3274  -15.2263 C   0  0  0  0  0  0  0  0  0  0  0  0
   -8.6763    4.3091  -16.4785 C   0  0  0  0  0  0  0  0  0  0  0  0
   -9.9629    3.9976  -16.7780 N   0  0  0  0  0  0  0  0  0  0  0  0
  -10.1004    4.3384  -18.0300 C   0  0  0  0  0  0  0  0  0  0  0  0
   -8.9048    4.6305  -18.6159 N   0  0  0  0  0  0  0  0  0  0  0  0
   -7.9725    4.7059  -17.6114 C   0  0  0  0  0  0  0  0  0  0  0  0
  1  2  1  0
  2  3  1  0
  3  4  1  6
  3  5  1  0
  5  6  1  0
  6  7  1  0
  7  8  2  0
  7  9  1  0
  9 10  1  0
 10 11  2  0
 11 12  1  0
 12 13  1  0
 12 14  2  0
 14 15  1  0
 15 16  1  0
 16 17  2  0
 17 18  1  0
 18 19  1  0
 19 10  1  0
 19 15  2  0
M  END
>  <energy_score>  (115) 
-17.500215

>  <alias>  (115) 
None

>  <HIPPO Pose ID>  (115) 
68623

>  <smiles>  (115) 
CC[C@H](C)CCC(=O)Nc1cc(C)cc2nc[nH]c12

>  <inchikey>  (115) 
JYGQHCNALHMGJI-JTQLQIEISA-N

>  <distance_score>  (115) 
1.201884

>  <ref_mols>  (115) 
Z0846a,Z1597a

>  <ref_pdb>  (115) 
Z0846a

>  <HIPPO Compound ID>  (115) 
136757

>  <name>  (115) 
P68623

>  <inspiration_score>  (115) 
None

$$$$
P68629
     RDKit          3D

 19 20  0  0  0  0  0  0  0  0999 V2000
   -5.8577    8.9594  -24.1673 C   0  0  0  0  0  0  0  0  0  0  0  0
   -4.9541    8.7260  -22.9634 C   0  0  0  0  0  0  0  0  0  0  0  0
   -5.1912    7.3958  -22.2234 C   0  0  1  0  0  0  0  0  0  0  0  0
   -5.4323    6.2805  -23.2271 C   0  0  0  0  0  0  0  0  0  0  0  0
   -4.0209    7.1283  -21.2423 C   0  0  0  0  0  0  0  0  0  0  0  0
   -3.9764    5.7510  -20.5896 C   0  0  0  0  0  0  0  0  0  0  0  0
   -4.0946    5.7610  -19.0740 C   0  0  0  0  0  0  0  0  0  0  0  0
   -3.1834    5.9544  -18.3659 O   0  0  0  0  0  0  0  0  0  0  0  0
   -5.5676    5.3750  -18.7416 N   0  0  0  0  0  0  0  0  0  0  0  0
   -6.1664    5.0693  -17.5282 C   0  0  0  0  0  0  0  0  0  0  0  0
   -5.4748    5.0763  -16.3159 C   0  0  0  0  0  0  0  0  0  0  0  0
   -6.0843    4.6653  -15.1241 C   0  0  0  0  0  0  0  0  0  0  0  0
   -7.4135    4.2448  -15.1002 C   0  0  0  0  0  0  0  0  0  0  0  0
   -8.1271    4.2871  -16.2947 C   0  0  0  0  0  0  0  0  0  0  0  0
   -9.4468    4.0342  -16.4976 N   0  0  0  0  0  0  0  0  0  0  0  0
   -9.6617    4.3964  -17.7371 C   0  0  0  0  0  0  0  0  0  0  0  0
  -10.9609    4.7320  -18.3083 C   0  0  0  0  0  0  0  0  0  0  0  0
   -8.4949    4.6150  -18.4142 N   0  0  0  0  0  0  0  0  0  0  0  0
   -7.5022    4.6824  -17.4737 C   0  0  0  0  0  0  0  0  0  0  0  0
  1  2  1  0
  2  3  1  0
  3  4  1  6
  3  5  1  0
  5  6  1  0
  6  7  1  0
  7  8  2  0
  7  9  1  0
  9 10  1  0
 10 11  2  0
 11 12  1  0
 12 13  2  0
 13 14  1  0
 14 15  1  0
 15 16  2  0
 16 17  1  0
 16 18  1  0
 18 19  1  0
 19 10  1  0
 19 14  2  0
M  END
>  <energy_score>  (116) 
-17.667118

>  <alias>  (116) 
None

>  <HIPPO Pose ID>  (116) 
68629

>  <smiles>  (116) 
CC[C@@H](C)CCC(=O)Nc1cccc2nc(C)[nH]c12

>  <inchikey>  (116) 
IBJFWZSDQBGDIT-SNVBAGLBSA-N

>  <distance_score>  (116) 
1.375362

>  <ref_mols>  (116) 
Z0846a,Z1597a

>  <ref_pdb>  (116) 
Z0846a

>  <HIPPO Compound ID>  (116) 
136761

>  <name>  (116) 
P68629

>  <inspiration_score>  (116) 
None

$$$$
P68630
     RDKit          3D

 19 20  0  0  0  0  0  0  0  0999 V2000
   -5.8087    7.5031  -24.2868 C   0  0  0  0  0  0  0  0  0  0  0  0
   -5.2406    7.9649  -22.9532 C   0  0  0  0  0  0  0  0  0  0  0  0
   -4.5085    6.8303  -22.2293 C   0  0  0  0  0  0  0  0  0  0  0  0
   -3.9598    7.2148  -20.8460 C   0  0  2  0  0  0  0  0  0  0  0  0
   -3.0918    8.3456  -20.9727 O   0  0  0  0  0  0  0  0  0  0  0  0
   -3.1466    6.0808  -20.1979 C   0  0  0  0  0  0  0  0  0  0  0  0
   -3.5120    5.9319  -18.7205 C   0  0  0  0  0  0  0  0  0  0  0  0
   -2.8670    6.3533  -17.8421 O   0  0  0  0  0  0  0  0  0  0  0  0
   -4.8938    5.2215  -18.7041 N   0  0  0  0  0  0  0  0  0  0  0  0
   -5.7700    4.9804  -17.6565 C   0  0  0  0  0  0  0  0  0  0  0  0
   -5.5317    5.2331  -16.3099 C   0  0  0  0  0  0  0  0  0  0  0  0
   -6.5571    5.0565  -15.3653 C   0  0  0  0  0  0  0  0  0  0  0  0
   -7.8550    4.6768  -15.7352 C   0  0  0  0  0  0  0  0  0  0  0  0
   -8.0618    4.4619  -17.0962 C   0  0  0  0  0  0  0  0  0  0  0  0
   -7.0444    4.5445  -18.0335 C   0  0  0  0  0  0  0  0  0  0  0  0
   -7.4835    4.2318  -19.2881 N   0  0  0  0  0  0  0  0  0  0  0  0
   -8.7796    4.1436  -19.1615 C   0  0  0  0  0  0  0  0  0  0  0  0
   -9.1652    4.2155  -17.8649 N   0  0  0  0  0  0  0  0  0  0  0  0
  -10.5209    4.2169  -17.4155 C   0  0  0  0  0  0  0  0  0  0  0  0
  1  2  1  0
  2  3  1  0
  3  4  1  0
  4  5  1  6
  4  6  1  0
  6  7  1  0
  7  8  2  0
  7  9  1  0
  9 10  1  0
 10 11  2  0
 11 12  1  0
 12 13  2  0
 13 14  1  0
 14 15  2  0
 15 16  1  0
 16 17  2  0
 17 18  1  0
 18 19  1  0
 15 10  1  0
 18 14  1  0
M  END
>  <energy_score>  (117) 
-1.733313

>  <alias>  (117) 
None

>  <HIPPO Pose ID>  (117) 
68630

>  <smiles>  (117) 
CCC[C@H](O)CC(=O)Nc1cccc2c1ncn2C

>  <inchikey>  (117) 
BBOYKQPABJLEOC-JTQLQIEISA-N

>  <distance_score>  (117) 
1.352546

>  <ref_mols>  (117) 
Z0846a,Z1597a

>  <ref_pdb>  (117) 
Z0846a

>  <HIPPO Compound ID>  (117) 
136762

>  <name>  (117) 
P68630

>  <inspiration_score>  (117) 
None

$$$$
P68639
     RDKit          3D

 19 20  0  0  0  0  0  0  0  0999 V2000
   -5.8495    7.8966  -24.6043 C   0  0  0  0  0  0  0  0  0  0  0  0
   -5.3572    8.1887  -23.1943 C   0  0  0  0  0  0  0  0  0  0  0  0
   -4.9291    6.9004  -22.4965 C   0  0  0  0  0  0  0  0  0  0  0  0
   -4.5365    7.0751  -21.0224 C   0  0  1  0  0  0  0  0  0  0  0  0
   -5.6078    7.7277  -20.3384 O   0  0  0  0  0  0  0  0  0  0  0  0
   -4.2223    5.7075  -20.4179 C   0  0  0  0  0  0  0  0  0  0  0  0
   -4.4186    5.6300  -18.9187 C   0  0  0  0  0  0  0  0  0  0  0  0
   -3.5493    5.7420  -18.1437 O   0  0  0  0  0  0  0  0  0  0  0  0
   -5.9345    5.3328  -18.7010 N   0  0  0  0  0  0  0  0  0  0  0  0
   -6.6353    5.0329  -17.5434 C   0  0  0  0  0  0  0  0  0  0  0  0
   -6.0469    5.0354  -16.2749 C   0  0  0  0  0  0  0  0  0  0  0  0
   -6.7734    4.6835  -15.1254 C   0  0  0  0  0  0  0  0  0  0  0  0
   -6.1691    4.7716  -13.7623 C   0  0  0  0  0  0  0  0  0  0  0  0
   -8.1074    4.2893  -15.2264 C   0  0  0  0  0  0  0  0  0  0  0  0
   -8.7091    4.3050  -16.4812 C   0  0  0  0  0  0  0  0  0  0  0  0
   -9.9996    4.0275  -16.7991 N   0  0  0  0  0  0  0  0  0  0  0  0
  -10.1212    4.3978  -18.0447 C   0  0  0  0  0  0  0  0  0  0  0  0
   -8.9146    4.6790  -18.6132 N   0  0  0  0  0  0  0  0  0  0  0  0
   -7.9855    4.6932  -17.6029 C   0  0  0  0  0  0  0  0  0  0  0  0
  1  2  1  0
  2  3  1  0
  3  4  1  0
  4  5  1  1
  4  6  1  0
  6  7  1  0
  7  8  2  0
  7  9  1  0
  9 10  1  0
 10 11  2  0
 11 12  1  0
 12 13  1  0
 12 14  2  0
 14 15  1  0
 15 16  1  0
 16 17  2  0
 17 18  1  0
 18 19  1  0
 19 10  1  0
 19 15  2  0
M  END
>  <energy_score>  (118) 
-4.409269

>  <alias>  (118) 
None

>  <HIPPO Pose ID>  (118) 
68639

>  <smiles>  (118) 
CCC[C@@H](O)CC(=O)Nc1cc(C)cc2nc[nH]c12

>  <inchikey>  (118) 
PLYZMJBBARCBQZ-SNVBAGLBSA-N

>  <distance_score>  (118) 
1.244435

>  <ref_mols>  (118) 
Z0846a,Z1597a

>  <ref_pdb>  (118) 
Z0846a

>  <HIPPO Compound ID>  (118) 
136767

>  <name>  (118) 
P68639

>  <inspiration_score>  (118) 
None

$$$$
P68640
     RDKit          3D

 19 20  0  0  0  0  0  0  0  0999 V2000
   -3.8193    5.7311  -19.1309 O   0  0  0  0  0  0  0  0  0  0  0  0
   -4.8295    5.6716  -19.7163 C   0  0  0  0  0  0  0  0  0  0  0  0
   -5.0664    6.0779  -21.1608 C   0  0  0  0  0  0  0  0  0  0  0  0
   -3.8506    6.5867  -21.9265 C   0  0  0  0  0  0  0  0  0  0  0  0
   -4.2229    6.8781  -23.3982 C   0  0  0  0  0  0  0  0  0  0  0  0
   -4.5510    8.3376  -23.6709 C   0  0  0  0  0  0  0  0  0  0  0  0
   -5.6805    8.8491  -22.8189 C   0  0  0  0  0  0  0  0  0  0  0  0
   -5.2889    8.9135  -21.5190 F   0  0  0  0  0  0  0  0  0  0  0  0
   -6.2482    5.2254  -19.2419 N   0  0  0  0  0  0  0  0  0  0  0  0
   -6.7047    4.8704  -17.9838 C   0  0  0  0  0  0  0  0  0  0  0  0
   -5.9188    4.8126  -16.8370 C   0  0  0  0  0  0  0  0  0  0  0  0
   -6.5016    4.5154  -15.5787 C   0  0  0  0  0  0  0  0  0  0  0  0
   -7.8733    4.2794  -15.4417 C   0  0  0  0  0  0  0  0  0  0  0  0
   -8.6144    4.3445  -16.5897 C   0  0  0  0  0  0  0  0  0  0  0  0
   -9.9855    4.2790  -16.7610 N   0  0  0  0  0  0  0  0  0  0  0  0
  -10.2855    4.5866  -18.0825 C   0  0  0  0  0  0  0  0  0  0  0  0
  -11.3955    4.7727  -18.5380 O   0  0  0  0  0  0  0  0  0  0  0  0
   -9.0785    4.7018  -18.7612 N   0  0  0  0  0  0  0  0  0  0  0  0
   -8.0476    4.6156  -17.8301 C   0  0  0  0  0  0  0  0  0  0  0  0
  1  2  2  0
  2  3  1  0
  3  4  1  0
  4  5  1  0
  5  6  1  0
  6  7  1  0
  7  8  1  0
  2  9  1  0
  9 10  1  0
 10 11  2  0
 11 12  1  0
 12 13  2  0
 13 14  1  0
 14 15  1  0
 15 16  1  0
 16 17  2  0
 16 18  1  0
 18 19  1  0
 19 10  1  0
 19 14  2  0
M  END
>  <energy_score>  (119) 
-17.469311

>  <alias>  (119) 
None

>  <HIPPO Pose ID>  (119) 
68640

>  <smiles>  (119) 
O=C(CCCCCF)Nc1cccc2[nH]c(=O)[nH]c12

>  <inchikey>  (119) 
XQAWYERPFQYDSY-UHFFFAOYSA-N

>  <distance_score>  (119) 
1.490913

>  <ref_mols>  (119) 
Z0846a,Z1597a

>  <ref_pdb>  (119) 
Z0846a

>  <HIPPO Compound ID>  (119) 
136771

>  <name>  (119) 
P68640

>  <inspiration_score>  (119) 
None

$$$$
P68641
     RDKit          3D

 19 20  0  0  0  0  0  0  0  0999 V2000
   -5.7919    4.9891  -14.1141 C   0  0  0  0  0  0  0  0  0  0  0  0
   -6.5697    4.8148  -15.3769 C   0  0  0  0  0  0  0  0  0  0  0  0
   -6.0439    5.1883  -16.6290 C   0  0  0  0  0  0  0  0  0  0  0  0
   -6.8112    5.1080  -17.7948 C   0  0  0  0  0  0  0  0  0  0  0  0
   -6.3615    5.4794  -19.0528 N   0  0  0  0  0  0  0  0  0  0  0  0
   -4.9416    5.9254  -19.5319 C   0  0  0  0  0  0  0  0  0  0  0  0
   -3.9624    6.1190  -18.9220 O   0  0  0  0  0  0  0  0  0  0  0  0
   -5.1141    6.0938  -21.0330 C   0  0  0  0  0  0  0  0  0  0  0  0
   -3.8898    6.5775  -21.8019 C   0  0  0  0  0  0  0  0  0  0  0  0
   -4.2460    6.8223  -23.2877 C   0  0  0  0  0  0  0  0  0  0  0  0
   -4.5258    8.2802  -23.6165 C   0  0  0  0  0  0  0  0  0  0  0  0
   -5.6680    8.8436  -22.8161 C   0  0  0  0  0  0  0  0  0  0  0  0
   -5.3313    8.9007  -21.5012 F   0  0  0  0  0  0  0  0  0  0  0  0
   -8.1204    4.6566  -17.6449 C   0  0  0  0  0  0  0  0  0  0  0  0
   -9.1726    4.5201  -18.5143 N   0  0  0  0  0  0  0  0  0  0  0  0
  -10.2605    4.1580  -17.7817 C   0  0  0  0  0  0  0  0  0  0  0  0
   -9.9455    3.8938  -16.5417 N   0  0  0  0  0  0  0  0  0  0  0  0
   -8.6461    4.2630  -16.4222 C   0  0  0  0  0  0  0  0  0  0  0  0
   -7.8719    4.3244  -15.2695 C   0  0  0  0  0  0  0  0  0  0  0  0
  1  2  1  0
  2  3  2  0
  3  4  1  0
  4  5  1  0
  5  6  1  0
  6  7  2  0
  6  8  1  0
  8  9  1  0
  9 10  1  0
 10 11  1  0
 11 12  1  0
 12 13  1  0
  4 14  2  0
 14 15  1  0
 15 16  1  0
 16 17  2  0
 17 18  1  0
 18 19  2  0
 19  2  1  0
 18 14  1  0
M  END
>  <energy_score>  (120) 
-16.244323

>  <alias>  (120) 
None

>  <HIPPO Pose ID>  (120) 
68641

>  <smiles>  (120) 
Cc1cc(NC(=O)CCCCCF)c2[nH]cnc2c1

>  <inchikey>  (120) 
BKWNNBLKUZWYOT-UHFFFAOYSA-N

>  <distance_score>  (120) 
1.483566

>  <ref_mols>  (120) 
Z0846a,Z1597a

>  <ref_pdb>  (120) 
Z0846a

>  <HIPPO Compound ID>  (120) 
136772

>  <name>  (120) 
P68641

>  <inspiration_score>  (120) 
None

$$$$
P68642
     RDKit          3D

 19 20  0  0  0  0  0  0  0  0999 V2000
  -10.9175    4.7245  -18.2935 C   0  0  0  0  0  0  0  0  0  0  0  0
   -9.6067    4.3944  -17.7403 C   0  0  0  0  0  0  0  0  0  0  0  0
   -9.3752    4.0503  -16.4985 N   0  0  0  0  0  0  0  0  0  0  0  0
   -8.0495    4.2926  -16.3208 C   0  0  0  0  0  0  0  0  0  0  0  0
   -7.3242    4.2755  -15.1327 C   0  0  0  0  0  0  0  0  0  0  0  0
   -5.9915    4.6810  -15.1818 C   0  0  0  0  0  0  0  0  0  0  0  0
   -5.3878    5.0460  -16.3918 C   0  0  0  0  0  0  0  0  0  0  0  0
   -6.0872    5.0038  -17.5992 C   0  0  0  0  0  0  0  0  0  0  0  0
   -5.4912    5.2718  -18.8252 N   0  0  0  0  0  0  0  0  0  0  0  0
   -4.0333    5.7201  -19.1681 C   0  0  0  0  0  0  0  0  0  0  0  0
   -3.1417    6.0044  -18.4639 O   0  0  0  0  0  0  0  0  0  0  0  0
   -3.8942    5.6293  -20.6866 C   0  0  0  0  0  0  0  0  0  0  0  0
   -3.2065    6.8408  -21.3089 C   0  0  0  0  0  0  0  0  0  0  0  0
   -3.4540    7.0227  -22.8275 C   0  0  0  0  0  0  0  0  0  0  0  0
   -4.8906    7.1701  -23.2995 C   0  0  0  0  0  0  0  0  0  0  0  0
   -5.7335    7.9707  -22.3497 C   0  0  0  0  0  0  0  0  0  0  0  0
   -5.0300    9.0234  -21.8675 F   0  0  0  0  0  0  0  0  0  0  0  0
   -7.4324    4.6450  -17.5184 C   0  0  0  0  0  0  0  0  0  0  0  0
   -8.4467    4.5916  -18.4385 N   0  0  0  0  0  0  0  0  0  0  0  0
  1  2  1  0
  2  3  2  0
  3  4  1  0
  4  5  2  0
  5  6  1  0
  6  7  2  0
  7  8  1  0
  8  9  1  0
  9 10  1  0
 10 11  2  0
 10 12  1  0
 12 13  1  0
 13 14  1  0
 14 15  1  0
 15 16  1  0
 16 17  1  0
  8 18  2  0
 18 19  1  0
 19  2  1  0
 18  4  1  0
M  END
>  <energy_score>  (121) 
-5.007867

>  <alias>  (121) 
None

>  <HIPPO Pose ID>  (121) 
68642

>  <smiles>  (121) 
Cc1nc2cccc(NC(=O)CCCCCF)c2[nH]1

>  <inchikey>  (121) 
XIMFSZVWSWNKTO-UHFFFAOYSA-N

>  <distance_score>  (121) 
1.664956

>  <ref_mols>  (121) 
Z0846a,Z1597a

>  <ref_pdb>  (121) 
Z0846a

>  <HIPPO Compound ID>  (121) 
136775

>  <name>  (121) 
P68642

>  <inspiration_score>  (121) 
None

$$$$
P68644
     RDKit          3D

 19 20  0  0  0  0  0  0  0  0999 V2000
   -5.9726    7.8294  -24.2222 C   0  0  0  0  0  0  0  0  0  0  0  0
   -4.8766    7.8754  -23.1709 C   0  0  0  0  0  0  0  0  0  0  0  0
   -5.1614    6.9318  -21.9972 C   0  0  0  0  0  0  0  0  0  0  0  0
   -3.9448    6.7664  -21.0609 C   0  0  1  0  0  0  0  0  0  0  0  0
   -3.8052    7.9522  -20.1061 C   0  0  0  0  0  0  0  0  0  0  0  0
   -3.9420    5.3987  -20.3595 C   0  0  0  0  0  0  0  0  0  0  0  0
   -4.1888    5.3441  -18.8645 C   0  0  0  0  0  0  0  0  0  0  0  0
   -3.3159    5.2823  -18.0872 O   0  0  0  0  0  0  0  0  0  0  0  0
   -5.7343    5.2832  -18.6564 N   0  0  0  0  0  0  0  0  0  0  0  0
   -6.4884    5.0457  -17.4976 C   0  0  0  0  0  0  0  0  0  0  0  0
   -6.0363    5.0302  -16.1609 C   0  0  0  0  0  0  0  0  0  0  0  0
   -4.6581    5.4381  -15.7226 C   0  0  0  0  0  0  0  0  0  0  0  0
   -6.8962    4.6063  -15.1239 C   0  0  0  0  0  0  0  0  0  0  0  0
   -8.2200    4.2467  -15.3533 C   0  0  0  0  0  0  0  0  0  0  0  0
   -8.7037    4.3535  -16.6499 C   0  0  0  0  0  0  0  0  0  0  0  0
   -9.9774    4.1576  -17.0982 N   0  0  0  0  0  0  0  0  0  0  0  0
   -9.9580    4.5759  -18.3349 C   0  0  0  0  0  0  0  0  0  0  0  0
   -8.6856    4.7873  -18.7719 N   0  0  0  0  0  0  0  0  0  0  0  0
   -7.8537    4.7506  -17.6773 C   0  0  0  0  0  0  0  0  0  0  0  0
  1  2  1  0
  2  3  1  0
  3  4  1  0
  4  5  1  1
  4  6  1  0
  6  7  1  0
  7  8  2  0
  7  9  1  0
  9 10  1  0
 10 11  2  0
 11 12  1  0
 11 13  1  0
 13 14  2  0
 14 15  1  0
 15 16  1  0
 16 17  2  0
 17 18  1  0
 18 19  1  0
 19 10  1  0
 19 15  2  0
M  END
>  <energy_score>  (122) 
-13.505697

>  <alias>  (122) 
None

>  <HIPPO Pose ID>  (122) 
68644

>  <smiles>  (122) 
CCC[C@@H](C)CC(=O)Nc1c(C)ccc2nc[nH]c12

>  <inchikey>  (122) 
WWAJDPVBEMKQHW-SNVBAGLBSA-N

>  <distance_score>  (122) 
1.163886

>  <ref_mols>  (122) 
Z0846a,Z1597a

>  <ref_pdb>  (122) 
Z0846a

>  <HIPPO Compound ID>  (122) 
136776

>  <name>  (122) 
P68644

>  <inspiration_score>  (122) 
None

$$$$
P68645
     RDKit          3D

 19 20  0  0  0  0  0  0  0  0999 V2000
   -5.9009    7.7576  -24.6403 C   0  0  0  0  0  0  0  0  0  0  0  0
   -5.4495    8.1048  -23.2302 C   0  0  0  0  0  0  0  0  0  0  0  0
   -4.9080    6.8722  -22.5093 C   0  0  0  0  0  0  0  0  0  0  0  0
   -4.6742    7.0651  -20.9994 C   0  0  2  0  0  0  0  0  0  0  0  0
   -3.6699    8.1831  -20.7080 C   0  0  0  0  0  0  0  0  0  0  0  0
   -4.1947    5.7427  -20.3870 C   0  0  0  0  0  0  0  0  0  0  0  0
   -4.4206    5.6616  -18.8863 C   0  0  0  0  0  0  0  0  0  0  0  0
   -3.5562    5.7508  -18.1028 O   0  0  0  0  0  0  0  0  0  0  0  0
   -5.9415    5.3801  -18.6852 N   0  0  0  0  0  0  0  0  0  0  0  0
   -6.6558    5.0709  -17.5367 C   0  0  0  0  0  0  0  0  0  0  0  0
   -6.0787    5.1031  -16.2621 C   0  0  0  0  0  0  0  0  0  0  0  0
   -6.8062    4.7582  -15.1118 C   0  0  0  0  0  0  0  0  0  0  0  0
   -6.1903    4.8169  -13.7525 C   0  0  0  0  0  0  0  0  0  0  0  0
   -8.1192    4.3040  -15.2202 C   0  0  0  0  0  0  0  0  0  0  0  0
   -8.7147    4.3001  -16.4781 C   0  0  0  0  0  0  0  0  0  0  0  0
   -9.9968    3.9908  -16.7976 N   0  0  0  0  0  0  0  0  0  0  0  0
  -10.1269    4.3693  -18.0398 C   0  0  0  0  0  0  0  0  0  0  0  0
   -8.9252    4.6659  -18.6108 N   0  0  0  0  0  0  0  0  0  0  0  0
   -7.9967    4.6991  -17.6006 C   0  0  0  0  0  0  0  0  0  0  0  0
  1  2  1  0
  2  3  1  0
  3  4  1  0
  4  5  1  6
  4  6  1  0
  6  7  1  0
  7  8  2  0
  7  9  1  0
  9 10  1  0
 10 11  2  0
 11 12  1  0
 12 13  1  0
 12 14  2  0
 14 15  1  0
 15 16  1  0
 16 17  2  0
 17 18  1  0
 18 19  1  0
 19 10  1  0
 19 15  2  0
M  END
>  <energy_score>  (123) 
-20.280461

>  <alias>  (123) 
None

>  <HIPPO Pose ID>  (123) 
68645

>  <smiles>  (123) 
CCC[C@H](C)CC(=O)Nc1cc(C)cc2nc[nH]c12

>  <inchikey>  (123) 
LELJPUOYBGFWEL-JTQLQIEISA-N

>  <distance_score>  (123) 
1.045344

>  <ref_mols>  (123) 
Z0846a,Z1597a

>  <ref_pdb>  (123) 
Z0846a

>  <HIPPO Compound ID>  (123) 
136777

>  <name>  (123) 
P68645

>  <inspiration_score>  (123) 
None

$$$$
P68647
     RDKit          3D

 19 20  0  0  0  0  0  0  0  0999 V2000
   -5.8644    7.8056  -24.5576 C   0  0  0  0  0  0  0  0  0  0  0  0
   -5.4142    8.0770  -23.1298 C   0  0  0  0  0  0  0  0  0  0  0  0
   -4.9237    6.7958  -22.4588 C   0  0  0  0  0  0  0  0  0  0  0  0
   -4.7125    6.9027  -20.9360 C   0  0  2  0  0  0  0  0  0  0  0  0
   -3.6545    7.9487  -20.5765 C   0  0  0  0  0  0  0  0  0  0  0  0
   -4.3215    5.5249  -20.3777 C   0  0  0  0  0  0  0  0  0  0  0  0
   -4.5649    5.3934  -18.8835 C   0  0  0  0  0  0  0  0  0  0  0  0
   -3.7191    5.5068  -18.0838 O   0  0  0  0  0  0  0  0  0  0  0  0
   -6.0844    5.1063  -18.7100 N   0  0  0  0  0  0  0  0  0  0  0  0
   -6.8215    4.8188  -17.5725 C   0  0  0  0  0  0  0  0  0  0  0  0
   -6.2804    4.8122  -16.2871 C   0  0  0  0  0  0  0  0  0  0  0  0
   -7.1123    4.6093  -15.1826 C   0  0  0  0  0  0  0  0  0  0  0  0
   -6.4644    4.7023  -13.5963 Cl  0  0  0  0  0  0  0  0  0  0  0  0
   -8.4858    4.4014  -15.3027 C   0  0  0  0  0  0  0  0  0  0  0  0
   -8.9897    4.4355  -16.5917 C   0  0  0  0  0  0  0  0  0  0  0  0
  -10.2677    4.4269  -17.0712 N   0  0  0  0  0  0  0  0  0  0  0  0
  -10.2097    4.6725  -18.4035 C   0  0  0  0  0  0  0  0  0  0  0  0
   -8.9786    4.6427  -18.8452 N   0  0  0  0  0  0  0  0  0  0  0  0
   -8.2019    4.6093  -17.7193 C   0  0  0  0  0  0  0  0  0  0  0  0
  1  2  1  0
  2  3  1  0
  3  4  1  0
  4  5  1  6
  4  6  1  0
  6  7  1  0
  7  8  2  0
  7  9  1  0
  9 10  1  0
 10 11  2  0
 11 12  1  0
 12 13  1  0
 12 14  2  0
 14 15  1  0
 15 16  1  0
 16 17  1  0
 17 18  2  0
 18 19  1  0
 19 10  1  0
 19 15  2  0
M  END
>  <energy_score>  (124) 
-35.209985

>  <alias>  (124) 
None

>  <HIPPO Pose ID>  (124) 
68647

>  <smiles>  (124) 
CCC[C@H](C)CC(=O)Nc1cc(Cl)cc2[nH]cnc12

>  <inchikey>  (124) 
HVBQKIJAABUNLU-VIFPVBQESA-N

>  <distance_score>  (124) 
0.891486

>  <ref_mols>  (124) 
Z0846a,Z1597a

>  <ref_pdb>  (124) 
Z0846a

>  <HIPPO Compound ID>  (124) 
136780

>  <name>  (124) 
P68647

>  <inspiration_score>  (124) 
None

$$$$
P68651
     RDKit          3D

 19 20  0  0  0  0  0  0  0  0999 V2000
   -5.6709    7.1766  -24.1977 C   0  0  0  0  0  0  0  0  0  0  0  0
   -5.2094    7.9975  -23.0138 C   0  0  0  0  0  0  0  0  0  0  0  0
   -4.3006    7.2034  -22.0917 C   0  0  0  0  0  0  0  0  0  0  0  0
   -3.0783    7.2516  -22.2299 O   0  0  0  0  0  0  0  0  0  0  0  0
   -4.9741    6.3956  -20.9972 C   0  0  0  0  0  0  0  0  0  0  0  0
   -4.0420    5.5182  -20.1705 C   0  0  0  0  0  0  0  0  0  0  0  0
   -4.4091    5.4127  -18.6920 C   0  0  0  0  0  0  0  0  0  0  0  0
   -3.6103    5.5673  -17.8506 O   0  0  0  0  0  0  0  0  0  0  0  0
   -5.9060    4.9931  -18.5973 N   0  0  0  0  0  0  0  0  0  0  0  0
   -6.7146    4.7801  -17.4877 C   0  0  0  0  0  0  0  0  0  0  0  0
   -6.2382    4.8328  -16.1775 C   0  0  0  0  0  0  0  0  0  0  0  0
   -7.1185    4.6660  -15.1045 C   0  0  0  0  0  0  0  0  0  0  0  0
   -6.5372    4.7984  -13.4956 Cl  0  0  0  0  0  0  0  0  0  0  0  0
   -8.4856    4.4563  -15.2770 C   0  0  0  0  0  0  0  0  0  0  0  0
   -8.9335    4.4587  -16.5865 C   0  0  0  0  0  0  0  0  0  0  0  0
  -10.1941    4.4543  -17.1153 N   0  0  0  0  0  0  0  0  0  0  0  0
  -10.0716    4.6629  -18.4512 C   0  0  0  0  0  0  0  0  0  0  0  0
   -8.8230    4.6022  -18.8401 N   0  0  0  0  0  0  0  0  0  0  0  0
   -8.0930    4.5835  -17.6848 C   0  0  0  0  0  0  0  0  0  0  0  0
  1  2  1  0
  2  3  1  0
  3  4  2  0
  3  5  1  0
  5  6  1  0
  6  7  1  0
  7  8  2  0
  7  9  1  0
  9 10  1  0
 10 11  2  0
 11 12  1  0
 12 13  1  0
 12 14  2  0
 14 15  1  0
 15 16  1  0
 16 17  1  0
 17 18  2  0
 18 19  1  0
 19 10  1  0
 19 15  2  0
M  END
>  <energy_score>  (125) 
-5.147862

>  <alias>  (125) 
None

>  <HIPPO Pose ID>  (125) 
68651

>  <smiles>  (125) 
CCC(=O)CCC(=O)Nc1cc(Cl)cc2[nH]cnc12

>  <inchikey>  (125) 
OQTKDJMCBSOUML-UHFFFAOYSA-N

>  <distance_score>  (125) 
1.161829

>  <ref_mols>  (125) 
Z0846a,Z1597a

>  <ref_pdb>  (125) 
Z0846a

>  <HIPPO Compound ID>  (125) 
136782

>  <name>  (125) 
P68651

>  <inspiration_score>  (125) 
None

$$$$
P68654
     RDKit          3D

 19 20  0  0  0  0  0  0  0  0999 V2000
   -5.8569    7.9918  -24.6158 C   0  0  0  0  0  0  0  0  0  0  0  0
   -5.2390    8.1990  -23.2433 C   0  0  0  0  0  0  0  0  0  0  0  0
   -5.2310    6.9205  -22.4332 C   0  0  0  0  0  0  0  0  0  0  0  0
   -5.8083    5.9148  -22.8368 O   0  0  0  0  0  0  0  0  0  0  0  0
   -4.5489    6.9778  -21.0786 C   0  0  0  0  0  0  0  0  0  0  0  0
   -4.2308    5.6000  -20.5233 C   0  0  0  0  0  0  0  0  0  0  0  0
   -4.4472    5.5332  -19.0306 C   0  0  0  0  0  0  0  0  0  0  0  0
   -3.5915    5.7147  -18.2542 O   0  0  0  0  0  0  0  0  0  0  0  0
   -5.9464    5.1733  -18.8137 N   0  0  0  0  0  0  0  0  0  0  0  0
   -6.6425    4.8832  -17.6516 C   0  0  0  0  0  0  0  0  0  0  0  0
   -6.0210    4.8301  -16.4015 C   0  0  0  0  0  0  0  0  0  0  0  0
   -6.7561    4.5385  -15.2303 C   0  0  0  0  0  0  0  0  0  0  0  0
   -8.1288    4.3087  -15.2791 C   0  0  0  0  0  0  0  0  0  0  0  0
   -8.7096    4.3751  -16.5174 C   0  0  0  0  0  0  0  0  0  0  0  0
  -10.0510    4.3260  -16.8429 N   0  0  0  0  0  0  0  0  0  0  0  0
  -10.1949    4.6579  -18.1821 C   0  0  0  0  0  0  0  0  0  0  0  0
  -11.2541    4.9029  -18.7234 O   0  0  0  0  0  0  0  0  0  0  0  0
   -8.9135    4.7407  -18.7284 N   0  0  0  0  0  0  0  0  0  0  0  0
   -7.9952    4.6406  -17.6839 C   0  0  0  0  0  0  0  0  0  0  0  0
  1  2  1  0
  2  3  1  0
  3  4  2  0
  3  5  1  0
  5  6  1  0
  6  7  1  0
  7  8  2  0
  7  9  1  0
  9 10  1  0
 10 11  2  0
 11 12  1  0
 12 13  2  0
 13 14  1  0
 14 15  1  0
 15 16  1  0
 16 17  2  0
 16 18  1  0
 18 19  1  0
 19 10  1  0
 19 14  2  0
M  END
>  <energy_score>  (126) 
-27.259691

>  <alias>  (126) 
None

>  <HIPPO Pose ID>  (126) 
68654

>  <smiles>  (126) 
CCC(=O)CCC(=O)Nc1cccc2[nH]c(=O)[nH]c12

>  <inchikey>  (126) 
VBDAMXUUHNWMEV-UHFFFAOYSA-N

>  <distance_score>  (126) 
0.999001

>  <ref_mols>  (126) 
Z0846a,Z1597a

>  <ref_pdb>  (126) 
Z0846a

>  <HIPPO Compound ID>  (126) 
136785

>  <name>  (126) 
P68654

>  <inspiration_score>  (126) 
None

$$$$
P68655
     RDKit          3D

 19 20  0  0  0  0  0  0  0  0999 V2000
   -5.8520    7.8947  -24.6286 C   0  0  0  0  0  0  0  0  0  0  0  0
   -5.2092    8.1501  -23.2761 C   0  0  0  0  0  0  0  0  0  0  0  0
   -5.2085    6.9092  -22.4078 C   0  0  0  0  0  0  0  0  0  0  0  0
   -5.8196    5.8997  -22.7470 O   0  0  0  0  0  0  0  0  0  0  0  0
   -4.4903    7.0161  -21.0757 C   0  0  0  0  0  0  0  0  0  0  0  0
   -4.1985    5.6653  -20.4443 C   0  0  0  0  0  0  0  0  0  0  0  0
   -4.4554    5.6895  -18.9529 C   0  0  0  0  0  0  0  0  0  0  0  0
   -3.6251    5.9498  -18.1708 O   0  0  0  0  0  0  0  0  0  0  0  0
   -5.9444    5.2807  -18.7459 N   0  0  0  0  0  0  0  0  0  0  0  0
   -6.6556    5.0279  -17.5814 C   0  0  0  0  0  0  0  0  0  0  0  0
   -6.0692    5.0974  -16.3112 C   0  0  0  0  0  0  0  0  0  0  0  0
   -6.7815    4.7689  -15.1457 C   0  0  0  0  0  0  0  0  0  0  0  0
   -6.1708    4.9097  -13.7900 C   0  0  0  0  0  0  0  0  0  0  0  0
   -8.1070    4.3478  -15.2272 C   0  0  0  0  0  0  0  0  0  0  0  0
   -8.7121    4.3140  -16.4798 C   0  0  0  0  0  0  0  0  0  0  0  0
  -10.0027    4.0202  -16.7742 N   0  0  0  0  0  0  0  0  0  0  0  0
  -10.1346    4.3419  -18.0322 C   0  0  0  0  0  0  0  0  0  0  0  0
   -8.9326    4.5923  -18.6248 N   0  0  0  0  0  0  0  0  0  0  0  0
   -7.9987    4.6632  -17.6216 C   0  0  0  0  0  0  0  0  0  0  0  0
  1  2  1  0
  2  3  1  0
  3  4  2  0
  3  5  1  0
  5  6  1  0
  6  7  1  0
  7  8  2  0
  7  9  1  0
  9 10  1  0
 10 11  2  0
 11 12  1  0
 12 13  1  0
 12 14  2  0
 14 15  1  0
 15 16  1  0
 16 17  2  0
 17 18  1  0
 18 19  1  0
 19 10  1  0
 19 15  2  0
M  END
>  <energy_score>  (127) 
-21.59961

>  <alias>  (127) 
None

>  <HIPPO Pose ID>  (127) 
68655

>  <smiles>  (127) 
CCC(=O)CCC(=O)Nc1cc(C)cc2nc[nH]c12

>  <inchikey>  (127) 
BPMBSVJDZHXIFS-UHFFFAOYSA-N

>  <distance_score>  (127) 
1.233562

>  <ref_mols>  (127) 
Z0846a,Z1597a

>  <ref_pdb>  (127) 
Z0846a

>  <HIPPO Compound ID>  (127) 
136786

>  <name>  (127) 
P68655

>  <inspiration_score>  (127) 
None

$$$$
P68657
     RDKit          3D

 19 20  0  0  0  0  0  0  0  0999 V2000
   -5.8145    7.6983  -24.5009 C   0  0  0  0  0  0  0  0  0  0  0  0
   -5.1344    8.0418  -23.1869 C   0  0  0  0  0  0  0  0  0  0  0  0
   -5.0967    6.8638  -22.2328 C   0  0  0  0  0  0  0  0  0  0  0  0
   -5.7707    5.8571  -22.4324 O   0  0  0  0  0  0  0  0  0  0  0  0
   -4.2670    7.0325  -20.9735 C   0  0  0  0  0  0  0  0  0  0  0  0
   -3.7854    5.7078  -20.4024 C   0  0  0  0  0  0  0  0  0  0  0  0
   -3.9689    5.6279  -18.9024 C   0  0  0  0  0  0  0  0  0  0  0  0
   -3.0864    5.7713  -18.1476 O   0  0  0  0  0  0  0  0  0  0  0  0
   -5.4679    5.2837  -18.6497 N   0  0  0  0  0  0  0  0  0  0  0  0
   -6.1341    4.9662  -17.4728 C   0  0  0  0  0  0  0  0  0  0  0  0
   -5.4872    4.9386  -16.2342 C   0  0  0  0  0  0  0  0  0  0  0  0
   -6.1505    4.5470  -15.0658 C   0  0  0  0  0  0  0  0  0  0  0  0
   -7.4934    4.1795  -15.0910 C   0  0  0  0  0  0  0  0  0  0  0  0
   -8.1636    4.2551  -16.3092 C   0  0  0  0  0  0  0  0  0  0  0  0
   -9.4845    4.0481  -16.5520 N   0  0  0  0  0  0  0  0  0  0  0  0
   -9.6495    4.4263  -17.7942 C   0  0  0  0  0  0  0  0  0  0  0  0
  -10.9247    4.7927  -18.4010 C   0  0  0  0  0  0  0  0  0  0  0  0
   -8.4552    4.6141  -18.4357 N   0  0  0  0  0  0  0  0  0  0  0  0
   -7.4869    4.6340  -17.4668 C   0  0  0  0  0  0  0  0  0  0  0  0
  1  2  1  0
  2  3  1  0
  3  4  2  0
  3  5  1  0
  5  6  1  0
  6  7  1  0
  7  8  2  0
  7  9  1  0
  9 10  1  0
 10 11  2  0
 11 12  1  0
 12 13  2  0
 13 14  1  0
 14 15  1  0
 15 16  2  0
 16 17  1  0
 16 18  1  0
 18 19  1  0
 19 10  1  0
 19 14  2  0
M  END
>  <energy_score>  (128) 
-11.808706

>  <alias>  (128) 
None

>  <HIPPO Pose ID>  (128) 
68657

>  <smiles>  (128) 
CCC(=O)CCC(=O)Nc1cccc2nc(C)[nH]c12

>  <inchikey>  (128) 
HDZIEBWIBHTDTE-UHFFFAOYSA-N

>  <distance_score>  (128) 
1.275695

>  <ref_mols>  (128) 
Z0846a,Z1597a

>  <ref_pdb>  (128) 
Z0846a

>  <HIPPO Compound ID>  (128) 
136789

>  <name>  (128) 
P68657

>  <inspiration_score>  (128) 
None

$$$$
P68658
     RDKit          3D

 19 21  0  0  0  0  0  0  0  0999 V2000
   -5.7988    5.1672  -14.1761 C   0  0  0  0  0  0  0  0  0  0  0  0
   -6.5546    4.9700  -15.4497 C   0  0  0  0  0  0  0  0  0  0  0  0
   -6.0643    5.4399  -16.6850 C   0  0  0  0  0  0  0  0  0  0  0  0
   -6.8118    5.3286  -17.8632 C   0  0  0  0  0  0  0  0  0  0  0  0
   -6.3734    5.7724  -19.1073 N   0  0  0  0  0  0  0  0  0  0  0  0
   -5.0531    6.5076  -19.5160 C   0  0  0  0  0  0  0  0  0  0  0  0
   -4.1086    6.7782  -18.8804 O   0  0  0  0  0  0  0  0  0  0  0  0
   -5.2029    6.7511  -21.0138 C   0  0  0  0  0  0  0  0  0  0  0  0
   -4.2017    7.6705  -21.7197 C   0  0  0  0  0  0  0  0  0  0  0  0
   -2.7621    7.1630  -21.6830 C   0  0  0  0  0  0  0  0  0  0  0  0
   -4.3751    9.1886  -21.4094 C   0  0  0  0  0  0  0  0  0  0  0  0
   -4.3371    9.4690  -22.9221 C   0  0  0  0  0  0  0  0  0  0  0  0
   -4.7002    7.9962  -23.1665 C   0  0  0  0  0  0  0  0  0  0  0  0
   -8.0817    4.7643  -17.7299 C   0  0  0  0  0  0  0  0  0  0  0  0
   -9.1392    4.6129  -18.5927 N   0  0  0  0  0  0  0  0  0  0  0  0
  -10.2031    4.1809  -17.8593 C   0  0  0  0  0  0  0  0  0  0  0  0
   -9.8562    3.8532  -16.6438 N   0  0  0  0  0  0  0  0  0  0  0  0
   -8.5772    4.2904  -16.5207 C   0  0  0  0  0  0  0  0  0  0  0  0
   -7.8073    4.3622  -15.3661 C   0  0  0  0  0  0  0  0  0  0  0  0
  1  2  1  0
  2  3  2  0
  3  4  1  0
  4  5  1  0
  5  6  1  0
  6  7  2  0
  6  8  1  0
  8  9  1  0
  9 10  1  0
  9 11  1  0
 11 12  1  0
 12 13  1  0
  4 14  2  0
 14 15  1  0
 15 16  1  0
 16 17  2  0
 17 18  1  0
 18 19  2  0
 19  2  1  0
 13  9  1  0
 18 14  1  0
M  END
>  <energy_score>  (129) 
-22.881019

>  <alias>  (129) 
None

>  <HIPPO Pose ID>  (129) 
68658

>  <smiles>  (129) 
Cc1cc(NC(=O)CC2(C)CCC2)c2[nH]cnc2c1

>  <inchikey>  (129) 
OLWNIMYWJIVPEB-UHFFFAOYSA-N

>  <distance_score>  (129) 
1.554973

>  <ref_mols>  (129) 
Z0846a,Z1597a

>  <ref_pdb>  (129) 
Z0846a

>  <HIPPO Compound ID>  (129) 
136790

>  <name>  (129) 
P68658

>  <inspiration_score>  (129) 
None

$$$$
P68660
     RDKit          3D

 19 21  0  0  0  0  0  0  0  0999 V2000
   -3.6532    5.9299  -17.9120 O   0  0  0  0  0  0  0  0  0  0  0  0
   -4.4021    5.6928  -18.7800 C   0  0  0  0  0  0  0  0  0  0  0  0
   -3.9873    5.6440  -20.2501 C   0  0  0  0  0  0  0  0  0  0  0  0
   -4.3951    6.8512  -21.0259 C   0  0  0  0  0  0  0  0  0  0  0  0
   -5.1085    6.8770  -22.1603 C   0  0  0  0  0  0  0  0  0  0  0  0
   -5.2196    8.2462  -22.7215 C   0  0  0  0  0  0  0  0  0  0  0  0
   -4.2145    9.0355  -21.8874 C   0  0  0  0  0  0  0  0  0  0  0  0
   -3.9444    8.2202  -20.6282 C   0  0  0  0  0  0  0  0  0  0  0  0
   -5.9043    5.2761  -18.7326 N   0  0  0  0  0  0  0  0  0  0  0  0
   -6.7252    4.9873  -17.6516 C   0  0  0  0  0  0  0  0  0  0  0  0
   -6.2564    4.9694  -16.3365 C   0  0  0  0  0  0  0  0  0  0  0  0
   -7.1073    4.6381  -15.2787 C   0  0  0  0  0  0  0  0  0  0  0  0
   -6.4879    4.7287  -13.5025 Br  0  0  0  0  0  0  0  0  0  0  0  0
   -8.4355    4.2845  -15.4810 C   0  0  0  0  0  0  0  0  0  0  0  0
   -8.9212    4.3430  -16.7808 C   0  0  0  0  0  0  0  0  0  0  0  0
  -10.2014    4.1787  -17.2127 N   0  0  0  0  0  0  0  0  0  0  0  0
  -10.1862    4.6223  -18.4400 C   0  0  0  0  0  0  0  0  0  0  0  0
   -8.9151    4.7612  -18.9076 N   0  0  0  0  0  0  0  0  0  0  0  0
   -8.0764    4.6974  -17.8271 C   0  0  0  0  0  0  0  0  0  0  0  0
  1  2  2  0
  2  3  1  0
  3  4  1  0
  4  5  2  0
  5  6  1  0
  6  7  1  0
  7  8  1  0
  2  9  1  0
  9 10  1  0
 10 11  2  0
 11 12  1  0
 12 13  1  0
 12 14  2  0
 14 15  1  0
 15 16  1  0
 16 17  2  0
 17 18  1  0
 18 19  1  0
  8  4  1  0
 19 10  1  0
 19 15  2  0
M  END
>  <energy_score>  (130) 
-12.983763

>  <alias>  (130) 
None

>  <HIPPO Pose ID>  (130) 
68660

>  <smiles>  (130) 
O=C(CC1=CCCC1)Nc1cc(Br)cc2nc[nH]c12

>  <inchikey>  (130) 
OQEGGPPOKUESGI-UHFFFAOYSA-N

>  <distance_score>  (130) 
1.397282

>  <ref_mols>  (130) 
Z0846a,Z1597a

>  <ref_pdb>  (130) 
Z0846a

>  <HIPPO Compound ID>  (130) 
136792

>  <name>  (130) 
P68660

>  <inspiration_score>  (130) 
None

$$$$
P68663
     RDKit          3D

 19 20  0  0  0  0  0  0  0  0999 V2000
   -5.8512   10.5471  -23.2430 C   0  0  0  0  0  0  0  0  0  0  0  0
   -5.2945    9.4894  -23.3451 C   0  0  0  0  0  0  0  0  0  0  0  0
   -4.5555    8.2496  -23.5827 C   0  0  0  0  0  0  0  0  0  0  0  0
   -5.0284    7.0707  -22.7504 C   0  0  0  0  0  0  0  0  0  0  0  0
   -4.6760    7.1470  -21.2589 C   0  0  0  0  0  0  0  0  0  0  0  0
   -4.4633    5.7440  -20.7165 C   0  0  0  0  0  0  0  0  0  0  0  0
   -4.5217    5.6288  -19.2116 C   0  0  0  0  0  0  0  0  0  0  0  0
   -3.5662    5.6005  -18.5366 O   0  0  0  0  0  0  0  0  0  0  0  0
   -6.0281    5.4609  -18.8394 N   0  0  0  0  0  0  0  0  0  0  0  0
   -6.6322    5.1402  -17.6175 C   0  0  0  0  0  0  0  0  0  0  0  0
   -6.0438    5.1231  -16.3354 C   0  0  0  0  0  0  0  0  0  0  0  0
   -4.6517    5.6000  -16.0315 C   0  0  0  0  0  0  0  0  0  0  0  0
   -6.7688    4.6303  -15.2283 C   0  0  0  0  0  0  0  0  0  0  0  0
   -8.0867    4.1973  -15.3330 C   0  0  0  0  0  0  0  0  0  0  0  0
   -8.7021    4.2964  -16.5733 C   0  0  0  0  0  0  0  0  0  0  0  0
   -9.9967    4.0271  -16.9007 N   0  0  0  0  0  0  0  0  0  0  0  0
  -10.1278    4.4560  -18.1274 C   0  0  0  0  0  0  0  0  0  0  0  0
   -8.9204    4.7551  -18.6824 N   0  0  0  0  0  0  0  0  0  0  0  0
   -7.9857    4.7588  -17.6709 C   0  0  0  0  0  0  0  0  0  0  0  0
  1  2  3  0
  2  3  1  0
  3  4  1  0
  4  5  1  0
  5  6  1  0
  6  7  1  0
  7  8  2  0
  7  9  1  0
  9 10  1  0
 10 11  2  0
 11 12  1  0
 11 13  1  0
 13 14  2  0
 14 15  1  0
 15 16  1  0
 16 17  2  0
 17 18  1  0
 18 19  1  0
 19 10  1  0
 19 15  2  0
M  END
>  <energy_score>  (131) 
-8.756219

>  <alias>  (131) 
None

>  <HIPPO Pose ID>  (131) 
68663

>  <smiles>  (131) 
C#CCCCCC(=O)Nc1c(C)ccc2nc[nH]c12

>  <inchikey>  (131) 
SDUVCCZHJCOYOC-UHFFFAOYSA-N

>  <distance_score>  (131) 
1.324958

>  <ref_mols>  (131) 
Z0846a,Z1597a

>  <ref_pdb>  (131) 
Z0846a

>  <HIPPO Compound ID>  (131) 
136799

>  <name>  (131) 
P68663

>  <inspiration_score>  (131) 
None

$$$$
P68664
     RDKit          3D

 19 20  0  0  0  0  0  0  0  0999 V2000
   -5.3158   10.1967  -23.2881 C   0  0  0  0  0  0  0  0  0  0  0  0
   -5.2891    8.9976  -23.2295 C   0  0  0  0  0  0  0  0  0  0  0  0
   -5.2871    7.5292  -23.2755 C   0  0  0  0  0  0  0  0  0  0  0  0
   -5.3510    6.8592  -21.9012 C   0  0  0  0  0  0  0  0  0  0  0  0
   -4.0221    6.8084  -21.1433 C   0  0  0  0  0  0  0  0  0  0  0  0
   -3.8657    5.5348  -20.3145 C   0  0  0  0  0  0  0  0  0  0  0  0
   -4.2454    5.6152  -18.8446 C   0  0  0  0  0  0  0  0  0  0  0  0
   -3.4466    5.8397  -18.0181 O   0  0  0  0  0  0  0  0  0  0  0  0
   -5.7585    5.2542  -18.7167 N   0  0  0  0  0  0  0  0  0  0  0  0
   -6.5381    5.0130  -17.5876 C   0  0  0  0  0  0  0  0  0  0  0  0
   -5.9762    5.0182  -16.3057 C   0  0  0  0  0  0  0  0  0  0  0  0
   -6.7425    4.7109  -15.1577 C   0  0  0  0  0  0  0  0  0  0  0  0
   -8.0975    4.4133  -15.2546 C   0  0  0  0  0  0  0  0  0  0  0  0
   -8.6300    4.4395  -16.5153 C   0  0  0  0  0  0  0  0  0  0  0  0
   -9.9619    4.3468  -16.8754 N   0  0  0  0  0  0  0  0  0  0  0  0
  -10.0730    4.6686  -18.2199 C   0  0  0  0  0  0  0  0  0  0  0  0
  -11.1225    4.8936  -18.7882 O   0  0  0  0  0  0  0  0  0  0  0  0
   -8.7756    4.7698  -18.7355 N   0  0  0  0  0  0  0  0  0  0  0  0
   -7.8819    4.7145  -17.6644 C   0  0  0  0  0  0  0  0  0  0  0  0
  1  2  3  0
  2  3  1  0
  3  4  1  0
  4  5  1  0
  5  6  1  0
  6  7  1  0
  7  8  2  0
  7  9  1  0
  9 10  1  0
 10 11  2  0
 11 12  1  0
 12 13  2  0
 13 14  1  0
 14 15  1  0
 15 16  1  0
 16 17  2  0
 16 18  1  0
 18 19  1  0
 19 10  1  0
 19 14  2  0
M  END
>  <energy_score>  (132) 
-16.210473

>  <alias>  (132) 
None

>  <HIPPO Pose ID>  (132) 
68664

>  <smiles>  (132) 
C#CCCCCC(=O)Nc1cccc2[nH]c(=O)[nH]c12

>  <inchikey>  (132) 
CCEBMAXXIKVVDN-UHFFFAOYSA-N

>  <distance_score>  (132) 
1.175613

>  <ref_mols>  (132) 
Z0846a,Z1597a

>  <ref_pdb>  (132) 
Z0846a

>  <HIPPO Compound ID>  (132) 
136800

>  <name>  (132) 
P68664

>  <inspiration_score>  (132) 
None

$$$$
P68665
     RDKit          3D

 19 20  0  0  0  0  0  0  0  0999 V2000
   -5.3466   10.1667  -23.3066 C   0  0  0  0  0  0  0  0  0  0  0  0
   -5.3197    8.9689  -23.2224 C   0  0  0  0  0  0  0  0  0  0  0  0
   -5.3117    7.4995  -23.2322 C   0  0  0  0  0  0  0  0  0  0  0  0
   -5.3147    6.8628  -21.8396 C   0  0  0  0  0  0  0  0  0  0  0  0
   -3.9653    6.9004  -21.1192 C   0  0  0  0  0  0  0  0  0  0  0  0
   -3.7372    5.6973  -20.2067 C   0  0  0  0  0  0  0  0  0  0  0  0
   -4.1906    5.8320  -18.7564 C   0  0  0  0  0  0  0  0  0  0  0  0
   -3.4486    6.1531  -17.9094 O   0  0  0  0  0  0  0  0  0  0  0  0
   -5.6814    5.3783  -18.6756 N   0  0  0  0  0  0  0  0  0  0  0  0
   -6.4983    5.1461  -17.5693 C   0  0  0  0  0  0  0  0  0  0  0  0
   -6.0123    5.2304  -16.2569 C   0  0  0  0  0  0  0  0  0  0  0  0
   -6.7901    4.8595  -15.1454 C   0  0  0  0  0  0  0  0  0  0  0  0
   -6.2729    4.9935  -13.7499 C   0  0  0  0  0  0  0  0  0  0  0  0
   -8.0926    4.3964  -15.3196 C   0  0  0  0  0  0  0  0  0  0  0  0
   -8.6160    4.3762  -16.6084 C   0  0  0  0  0  0  0  0  0  0  0  0
   -9.8894    4.0853  -16.9852 N   0  0  0  0  0  0  0  0  0  0  0  0
   -9.9454    4.4602  -18.2332 C   0  0  0  0  0  0  0  0  0  0  0  0
   -8.7081    4.7088  -18.7508 N   0  0  0  0  0  0  0  0  0  0  0  0
   -7.8315    4.7543  -17.6967 C   0  0  0  0  0  0  0  0  0  0  0  0
  1  2  3  0
  2  3  1  0
  3  4  1  0
  4  5  1  0
  5  6  1  0
  6  7  1  0
  7  8  2  0
  7  9  1  0
  9 10  1  0
 10 11  2  0
 11 12  1  0
 12 13  1  0
 12 14  2  0
 14 15  1  0
 15 16  1  0
 16 17  2  0
 17 18  1  0
 18 19  1  0
 19 10  1  0
 19 15  2  0
M  END
>  <energy_score>  (133) 
-10.096593

>  <alias>  (133) 
None

>  <HIPPO Pose ID>  (133) 
68665

>  <smiles>  (133) 
C#CCCCCC(=O)Nc1cc(C)cc2nc[nH]c12

>  <inchikey>  (133) 
GBCTYYSXWOOMCJ-UHFFFAOYSA-N

>  <distance_score>  (133) 
1.229231

>  <ref_mols>  (133) 
Z0846a,Z1597a

>  <ref_pdb>  (133) 
Z0846a

>  <HIPPO Compound ID>  (133) 
136801

>  <name>  (133) 
P68665

>  <inspiration_score>  (133) 
None

$$$$
P68666
     RDKit          3D

 19 20  0  0  0  0  0  0  0  0999 V2000
   -5.3355   10.1663  -23.3292 C   0  0  0  0  0  0  0  0  0  0  0  0
   -5.3356    8.9690  -23.2356 C   0  0  0  0  0  0  0  0  0  0  0  0
   -5.3637    7.4995  -23.2306 C   0  0  0  0  0  0  0  0  0  0  0  0
   -5.2870    6.8748  -21.8343 C   0  0  0  0  0  0  0  0  0  0  0  0
   -3.8972    6.9332  -21.1950 C   0  0  0  0  0  0  0  0  0  0  0  0
   -3.5701    5.7117  -20.3410 C   0  0  0  0  0  0  0  0  0  0  0  0
   -3.8908    5.8078  -18.8571 C   0  0  0  0  0  0  0  0  0  0  0  0
   -3.0772    6.1112  -18.0715 O   0  0  0  0  0  0  0  0  0  0  0  0
   -5.3673    5.3450  -18.6560 N   0  0  0  0  0  0  0  0  0  0  0  0
   -6.0809    5.0815  -17.4894 C   0  0  0  0  0  0  0  0  0  0  0  0
   -5.4612    5.1133  -16.2345 C   0  0  0  0  0  0  0  0  0  0  0  0
   -6.1231    4.7118  -15.0688 C   0  0  0  0  0  0  0  0  0  0  0  0
   -7.4439    4.2783  -15.1088 C   0  0  0  0  0  0  0  0  0  0  0  0
   -8.0981    4.3132  -16.3368 C   0  0  0  0  0  0  0  0  0  0  0  0
   -9.4084    4.0581  -16.5834 N   0  0  0  0  0  0  0  0  0  0  0  0
   -9.5840    4.4357  -17.8232 C   0  0  0  0  0  0  0  0  0  0  0  0
  -10.8742    4.7855  -18.4117 C   0  0  0  0  0  0  0  0  0  0  0  0
   -8.3917    4.6488  -18.4655 N   0  0  0  0  0  0  0  0  0  0  0  0
   -7.4236    4.7015  -17.4950 C   0  0  0  0  0  0  0  0  0  0  0  0
  1  2  3  0
  2  3  1  0
  3  4  1  0
  4  5  1  0
  5  6  1  0
  6  7  1  0
  7  8  2  0
  7  9  1  0
  9 10  1  0
 10 11  2  0
 11 12  1  0
 12 13  2  0
 13 14  1  0
 14 15  1  0
 15 16  2  0
 16 17  1  0
 16 18  1  0
 18 19  1  0
 19 10  1  0
 19 14  2  0
M  END
>  <energy_score>  (134) 
-17.867658

>  <alias>  (134) 
None

>  <HIPPO Pose ID>  (134) 
68666

>  <smiles>  (134) 
C#CCCCCC(=O)Nc1cccc2nc(C)[nH]c12

>  <inchikey>  (134) 
AZIFWDGTIBCSLG-UHFFFAOYSA-N

>  <distance_score>  (134) 
1.400399

>  <ref_mols>  (134) 
Z0846a,Z1597a

>  <ref_pdb>  (134) 
Z0846a

>  <HIPPO Compound ID>  (134) 
136804

>  <name>  (134) 
P68666

>  <inspiration_score>  (134) 
None

$$$$
P68669
     RDKit          3D

 19 20  0  0  0  0  0  0  0  0999 V2000
   -5.8170    7.6911  -24.5681 C   0  0  0  0  0  0  0  0  0  0  0  0
   -5.4128    8.0440  -23.1458 C   0  0  0  0  0  0  0  0  0  0  0  0
   -4.8463    6.8302  -22.4140 C   0  0  0  0  0  0  0  0  0  0  0  0
   -4.6191    7.1008  -20.9244 C   0  0  0  0  0  0  0  0  0  0  0  0
   -3.9710    5.9023  -20.2269 C   0  0  1  0  0  0  0  0  0  0  0  0
   -2.5537    6.0223  -20.3390 O   0  0  0  0  0  0  0  0  0  0  0  0
   -4.3942    5.8003  -18.7438 C   0  0  0  0  0  0  0  0  0  0  0  0
   -3.6471    6.0156  -17.8668 O   0  0  0  0  0  0  0  0  0  0  0  0
   -5.8895    5.3509  -18.7116 N   0  0  0  0  0  0  0  0  0  0  0  0
   -6.7021    4.9996  -17.6418 C   0  0  0  0  0  0  0  0  0  0  0  0
   -6.2340    4.9643  -16.3266 C   0  0  0  0  0  0  0  0  0  0  0  0
   -7.0839    4.6161  -15.2736 C   0  0  0  0  0  0  0  0  0  0  0  0
   -6.4684    4.6969  -13.4956 Br  0  0  0  0  0  0  0  0  0  0  0  0
   -8.4101    4.2604  -15.4808 C   0  0  0  0  0  0  0  0  0  0  0  0
   -8.8947    4.3284  -16.7803 C   0  0  0  0  0  0  0  0  0  0  0  0
  -10.1749    4.1638  -17.2119 N   0  0  0  0  0  0  0  0  0  0  0  0
  -10.1626    4.6147  -18.4365 C   0  0  0  0  0  0  0  0  0  0  0  0
   -8.8922    4.7643  -18.9028 N   0  0  0  0  0  0  0  0  0  0  0  0
   -8.0512    4.6980  -17.8235 C   0  0  0  0  0  0  0  0  0  0  0  0
  1  2  1  0
  2  3  1  0
  3  4  1  0
  4  5  1  0
  5  6  1  1
  5  7  1  0
  7  8  2  0
  7  9  1  0
  9 10  1  0
 10 11  2  0
 11 12  1  0
 12 13  1  0
 12 14  2  0
 14 15  1  0
 15 16  1  0
 16 17  2  0
 17 18  1  0
 18 19  1  0
 19 10  1  0
 19 15  2  0
M  END
>  <energy_score>  (135) 
-25.032829

>  <alias>  (135) 
None

>  <HIPPO Pose ID>  (135) 
68669

>  <smiles>  (135) 
CCCC[C@@H](O)C(=O)Nc1cc(Br)cc2nc[nH]c12

>  <inchikey>  (135) 
ZJMDQQHLMKMWDV-LLVKDONJSA-N

>  <distance_score>  (135) 
0.947234

>  <ref_mols>  (135) 
Z0846a,Z1597a

>  <ref_pdb>  (135) 
Z0846a

>  <HIPPO Compound ID>  (135) 
136806

>  <name>  (135) 
P68669

>  <inspiration_score>  (135) 
None

$$$$
P68671
     RDKit          3D

 19 20  0  0  0  0  0  0  0  0999 V2000
   -5.9268    7.9502  -24.6221 C   0  0  0  0  0  0  0  0  0  0  0  0
   -5.4678    8.1763  -23.1901 C   0  0  0  0  0  0  0  0  0  0  0  0
   -4.9766    6.8746  -22.5712 C   0  0  0  0  0  0  0  0  0  0  0  0
   -4.6822    6.9934  -21.0711 C   0  0  0  0  0  0  0  0  0  0  0  0
   -4.2084    5.6491  -20.5223 C   0  0  1  0  0  0  0  0  0  0  0  0
   -2.8901    5.4088  -20.9955 O   0  0  0  0  0  0  0  0  0  0  0  0
   -4.3399    5.5267  -18.9858 C   0  0  0  0  0  0  0  0  0  0  0  0
   -3.4251    5.4780  -18.2546 O   0  0  0  0  0  0  0  0  0  0  0  0
   -5.8770    5.3848  -18.7016 N   0  0  0  0  0  0  0  0  0  0  0  0
   -6.5571    5.0711  -17.5183 C   0  0  0  0  0  0  0  0  0  0  0  0
   -6.0412    5.0302  -16.2061 C   0  0  0  0  0  0  0  0  0  0  0  0
   -4.6485    5.4446  -15.8232 C   0  0  0  0  0  0  0  0  0  0  0  0
   -6.8471    4.5731  -15.1414 C   0  0  0  0  0  0  0  0  0  0  0  0
   -8.1739    4.1960  -15.3195 C   0  0  0  0  0  0  0  0  0  0  0  0
   -8.7149    4.3088  -16.5927 C   0  0  0  0  0  0  0  0  0  0  0  0
   -9.9994    4.0852  -16.9918 N   0  0  0  0  0  0  0  0  0  0  0  0
  -10.0458    4.5221  -18.2214 C   0  0  0  0  0  0  0  0  0  0  0  0
   -8.7992    4.7767  -18.7079 N   0  0  0  0  0  0  0  0  0  0  0  0
   -7.9204    4.7417  -17.6484 C   0  0  0  0  0  0  0  0  0  0  0  0
  1  2  1  0
  2  3  1  0
  3  4  1  0
  4  5  1  0
  5  6  1  1
  5  7  1  0
  7  8  2  0
  7  9  1  0
  9 10  1  0
 10 11  2  0
 11 12  1  0
 11 13  1  0
 13 14  2  0
 14 15  1  0
 15 16  1  0
 16 17  2  0
 17 18  1  0
 18 19  1  0
 19 10  1  0
 19 15  2  0
M  END
>  <energy_score>  (136) 
-9.108884

>  <alias>  (136) 
None

>  <HIPPO Pose ID>  (136) 
68671

>  <smiles>  (136) 
CCCC[C@@H](O)C(=O)Nc1c(C)ccc2nc[nH]c12

>  <inchikey>  (136) 
IENCHUHBBHGFPN-LLVKDONJSA-N

>  <distance_score>  (136) 
1.072062

>  <ref_mols>  (136) 
Z0846a,Z1597a

>  <ref_pdb>  (136) 
Z0846a

>  <HIPPO Compound ID>  (136) 
136807

>  <name>  (136) 
P68671

>  <inspiration_score>  (136) 
None

$$$$
P68677
     RDKit          3D

 19 21  0  0  0  0  0  0  0  0999 V2000
   -3.9323    6.0956  -18.6820 O   0  0  0  0  0  0  0  0  0  0  0  0
   -4.8340    5.8984  -19.4029 C   0  0  0  0  0  0  0  0  0  0  0  0
   -4.7473    6.1319  -20.9100 C   0  0  0  0  0  0  0  0  0  0  0  0
   -5.2499    7.4952  -21.3518 C   0  0  1  0  0  0  0  0  0  0  0  0
   -4.3208    8.7475  -21.5025 C   0  0  0  0  0  0  0  0  0  0  0  0
   -5.2902    9.1813  -22.6356 C   0  0  1  0  0  0  0  0  0  0  0  0
   -4.5231   10.0282  -24.0346 S   0  0  0  0  0  0  0  0  0  0  0  0
   -5.4988    7.6700  -22.8846 C   0  0  0  0  0  0  0  0  0  0  0  0
   -6.2885    5.4173  -19.0960 N   0  0  0  0  0  0  0  0  0  0  0  0
   -6.8724    5.0073  -17.8977 C   0  0  0  0  0  0  0  0  0  0  0  0
   -6.2016    4.9990  -16.6713 C   0  0  0  0  0  0  0  0  0  0  0  0
   -6.8931    4.6912  -15.4910 C   0  0  0  0  0  0  0  0  0  0  0  0
   -6.0972    4.7880  -13.9726 Cl  0  0  0  0  0  0  0  0  0  0  0  0
   -8.2508    4.3777  -15.4707 C   0  0  0  0  0  0  0  0  0  0  0  0
   -8.8904    4.4240  -16.6956 C   0  0  0  0  0  0  0  0  0  0  0  0
  -10.2131    4.3552  -17.0241 N   0  0  0  0  0  0  0  0  0  0  0  0
  -10.3248    4.6416  -18.3440 C   0  0  0  0  0  0  0  0  0  0  0  0
   -9.1527    4.7079  -18.9224 N   0  0  0  0  0  0  0  0  0  0  0  0
   -8.2451    4.6904  -17.8963 C   0  0  0  0  0  0  0  0  0  0  0  0
  1  2  2  0
  2  3  1  0
  4  3  1  6
  4  5  1  0
  5  6  1  0
  6  7  1  6
  6  8  1  0
  2  9  1  0
  9 10  1  0
 10 11  2  0
 11 12  1  0
 12 13  1  0
 12 14  2  0
 14 15  1  0
 15 16  1  0
 16 17  1  0
 17 18  2  0
 18 19  1  0
  8  4  1  0
 19 10  1  0
 19 15  2  0
M  END
>  <energy_score>  (137) 
-26.900854

>  <alias>  (137) 
None

>  <HIPPO Pose ID>  (137) 
68677

>  <smiles>  (137) 
O=C(C[C@H]1C[C@@H](S)C1)Nc1cc(Cl)cc2[nH]cnc12

>  <inchikey>  (137) 
AOMXQOYBVQASAN-OTSSQURYSA-N

>  <distance_score>  (137) 
1.060562

>  <ref_mols>  (137) 
Z0846a,Z1597a

>  <ref_pdb>  (137) 
Z0846a

>  <HIPPO Compound ID>  (137) 
136812

>  <name>  (137) 
P68677

>  <inspiration_score>  (137) 
None

$$$$
P68679
     RDKit          3D

 19 21  0  0  0  0  0  0  0  0999 V2000
   -4.1779    6.7296  -18.8687 O   0  0  0  0  0  0  0  0  0  0  0  0
   -5.1051    6.4750  -19.5349 C   0  0  0  0  0  0  0  0  0  0  0  0
   -5.2021    6.6972  -21.0367 C   0  0  0  0  0  0  0  0  0  0  0  0
   -4.1896    7.6231  -21.6853 C   0  0  1  0  0  0  0  0  0  0  0  0
   -4.4864    7.8086  -23.2009 C   0  0  0  0  0  0  0  0  0  0  0  0
   -4.1674    9.3049  -23.0361 C   0  0  1  0  0  0  0  0  0  0  0  0
   -5.4009   10.3666  -23.8606 S   0  0  0  0  0  0  0  0  0  0  0  0
   -4.4358    9.1490  -21.5245 C   0  0  0  0  0  0  0  0  0  0  0  0
   -6.4784    5.8304  -19.1553 N   0  0  0  0  0  0  0  0  0  0  0  0
   -6.9263    5.3064  -17.9475 C   0  0  0  0  0  0  0  0  0  0  0  0
   -6.2064    5.3307  -16.7534 C   0  0  0  0  0  0  0  0  0  0  0  0
   -6.7704    4.8182  -15.5754 C   0  0  0  0  0  0  0  0  0  0  0  0
   -5.8666    4.9835  -13.9307 Br  0  0  0  0  0  0  0  0  0  0  0  0
   -8.0343    4.2380  -15.5385 C   0  0  0  0  0  0  0  0  0  0  0  0
   -8.7708    4.2598  -16.7129 C   0  0  0  0  0  0  0  0  0  0  0  0
  -10.0690    3.9048  -16.8966 N   0  0  0  0  0  0  0  0  0  0  0  0
  -10.3717    4.3548  -18.0847 C   0  0  0  0  0  0  0  0  0  0  0  0
   -9.2586    4.7317  -18.7730 N   0  0  0  0  0  0  0  0  0  0  0  0
   -8.2185    4.7778  -17.8768 C   0  0  0  0  0  0  0  0  0  0  0  0
  1  2  2  0
  2  3  1  0
  4  3  1  1
  4  5  1  0
  5  6  1  0
  6  7  1  6
  6  8  1  0
  2  9  1  0
  9 10  1  0
 10 11  2  0
 11 12  1  0
 12 13  1  0
 12 14  2  0
 14 15  1  0
 15 16  1  0
 16 17  2  0
 17 18  1  0
 18 19  1  0
  8  4  1  0
 19 10  1  0
 19 15  2  0
M  END
>  <energy_score>  (138) 
-10.906672

>  <alias>  (138) 
None

>  <HIPPO Pose ID>  (138) 
68679

>  <smiles>  (138) 
O=C(C[C@H]1C[C@@H](S)C1)Nc1cc(Br)cc2nc[nH]c12

>  <inchikey>  (138) 
JGVRXMRGQWMWBB-OTSSQURYSA-N

>  <distance_score>  (138) 
1.311809

>  <ref_mols>  (138) 
Z0846a,Z1597a

>  <ref_pdb>  (138) 
Z0846a

>  <HIPPO Compound ID>  (138) 
136813

>  <name>  (138) 
P68679

>  <inspiration_score>  (138) 
None

$$$$
P68687
     RDKit          3D

 19 21  0  0  0  0  0  0  0  0999 V2000
  -10.9823    4.6801  -18.2264 C   0  0  0  0  0  0  0  0  0  0  0  0
   -9.6203    4.3811  -17.8003 C   0  0  0  0  0  0  0  0  0  0  0  0
   -9.2663    4.0109  -16.5955 N   0  0  0  0  0  0  0  0  0  0  0  0
   -7.9373    4.2989  -16.5319 C   0  0  0  0  0  0  0  0  0  0  0  0
   -7.0999    4.2627  -15.4207 C   0  0  0  0  0  0  0  0  0  0  0  0
   -5.7911    4.7159  -15.5831 C   0  0  0  0  0  0  0  0  0  0  0  0
   -5.3261    5.1695  -16.8259 C   0  0  0  0  0  0  0  0  0  0  0  0
   -6.1462    5.1792  -17.9561 C   0  0  0  0  0  0  0  0  0  0  0  0
   -5.7224    5.6240  -19.2044 N   0  0  0  0  0  0  0  0  0  0  0  0
   -4.3495    6.2178  -19.6570 C   0  0  0  0  0  0  0  0  0  0  0  0
   -3.3987    6.4923  -19.0313 O   0  0  0  0  0  0  0  0  0  0  0  0
   -4.4542    6.4452  -21.1591 C   0  0  0  0  0  0  0  0  0  0  0  0
   -5.1254    7.7545  -21.5232 C   0  0  1  0  0  0  0  0  0  0  0  0
   -4.3044    9.0683  -21.7203 C   0  0  0  0  0  0  0  0  0  0  0  0
   -5.3639    9.4345  -22.7920 C   0  0  1  0  0  0  0  0  0  0  0  0
   -4.7175   10.3055  -24.2369 S   0  0  0  0  0  0  0  0  0  0  0  0
   -5.5054    7.9139  -23.0258 C   0  0  0  0  0  0  0  0  0  0  0  0
   -7.4522    4.7331  -17.7628 C   0  0  0  0  0  0  0  0  0  0  0  0
   -8.5388    4.6492  -18.5908 N   0  0  0  0  0  0  0  0  0  0  0  0
  1  2  1  0
  2  3  2  0
  3  4  1  0
  4  5  2  0
  5  6  1  0
  6  7  2  0
  7  8  1  0
  8  9  1  0
  9 10  1  0
 10 11  2  0
 10 12  1  0
 13 12  1  6
 13 14  1  0
 14 15  1  0
 15 16  1  6
 15 17  1  0
  8 18  2  0
 18 19  1  0
 19  2  1  0
 18  4  1  0
 17 13  1  0
M  END
>  <energy_score>  (139) 
-7.480306

>  <alias>  (139) 
None

>  <HIPPO Pose ID>  (139) 
68687

>  <smiles>  (139) 
Cc1nc2cccc(NC(=O)C[C@H]3C[C@@H](S)C3)c2[nH]1

>  <inchikey>  (139) 
YAZXMRPGFBSMDD-AOOOYVTPSA-N

>  <distance_score>  (139) 
1.483087

>  <ref_mols>  (139) 
Z0846a,Z1597a

>  <ref_pdb>  (139) 
Z0846a

>  <HIPPO Compound ID>  (139) 
136818

>  <name>  (139) 
P68687

>  <inspiration_score>  (139) 
None

$$$$
P68689
     RDKit          3D

 19 20  0  0  0  0  0  0  0  0999 V2000
   -5.7198    8.2554  -24.5301 C   0  0  0  0  0  0  0  0  0  0  0  0
   -5.3689    8.3691  -23.0525 C   0  0  0  0  0  0  0  0  0  0  0  0
   -5.0799    6.9917  -22.4722 C   0  0  0  0  0  0  0  0  0  0  0  0
   -5.0717    6.9524  -20.9383 C   0  0  0  0  0  0  0  0  0  0  0  0
   -4.7579    5.5576  -20.3861 C   0  0  2  0  0  0  0  0  0  0  0  0
   -5.6355    4.4196  -20.9509 C   0  0  0  0  0  0  0  0  0  0  0  0
   -4.8072    5.4841  -18.8556 C   0  0  0  0  0  0  0  0  0  0  0  0
   -3.8640    5.4374  -18.1690 O   0  0  0  0  0  0  0  0  0  0  0  0
   -6.3112    5.3852  -18.5024 N   0  0  0  0  0  0  0  0  0  0  0  0
   -6.9292    5.1268  -17.3089 C   0  0  0  0  0  0  0  0  0  0  0  0
   -6.3373    5.0843  -16.0593 C   0  0  0  0  0  0  0  0  0  0  0  0
   -7.1327    4.7572  -14.9581 C   0  0  0  0  0  0  0  0  0  0  0  0
   -6.4539    4.8024  -13.3839 Cl  0  0  0  0  0  0  0  0  0  0  0  0
   -8.4908    4.4315  -15.0638 C   0  0  0  0  0  0  0  0  0  0  0  0
   -9.0232    4.4638  -16.3420 C   0  0  0  0  0  0  0  0  0  0  0  0
  -10.2779    4.2843  -16.8416 N   0  0  0  0  0  0  0  0  0  0  0  0
  -10.2704    4.5983  -18.1612 C   0  0  0  0  0  0  0  0  0  0  0  0
   -9.0521    4.7906  -18.5902 N   0  0  0  0  0  0  0  0  0  0  0  0
   -8.2808    4.7918  -17.4554 C   0  0  0  0  0  0  0  0  0  0  0  0
  1  2  1  0
  2  3  1  0
  3  4  1  0
  4  5  1  0
  5  6  1  6
  5  7  1  0
  7  8  2  0
  7  9  1  0
  9 10  1  0
 10 11  2  0
 11 12  1  0
 12 13  1  0
 12 14  2  0
 14 15  1  0
 15 16  1  0
 16 17  1  0
 17 18  2  0
 18 19  1  0
 19 10  1  0
 19 15  2  0
M  END
>  <energy_score>  (140) 
-20.011207

>  <alias>  (140) 
None

>  <HIPPO Pose ID>  (140) 
68689

>  <smiles>  (140) 
CCCC[C@H](C)C(=O)Nc1cc(Cl)cc2[nH]cnc12

>  <inchikey>  (140) 
HSFQCVDFFCQUTK-VIFPVBQESA-N

>  <distance_score>  (140) 
1.088633

>  <ref_mols>  (140) 
Z0846a,Z1597a

>  <ref_pdb>  (140) 
Z0846a

>  <HIPPO Compound ID>  (140) 
136819

>  <name>  (140) 
P68689

>  <inspiration_score>  (140) 
None

$$$$
P68693
     RDKit          3D

 19 20  0  0  0  0  0  0  0  0999 V2000
   -5.8841    7.7414  -24.6168 C   0  0  0  0  0  0  0  0  0  0  0  0
   -5.4667    8.0652  -23.1917 C   0  0  0  0  0  0  0  0  0  0  0  0
   -4.8986    6.8346  -22.4914 C   0  0  0  0  0  0  0  0  0  0  0  0
   -4.6369    7.0796  -21.0038 C   0  0  0  0  0  0  0  0  0  0  0  0
   -3.9641    5.8766  -20.3273 C   0  0  1  0  0  0  0  0  0  0  0  0
   -2.4531    5.8710  -20.5688 C   0  0  0  0  0  0  0  0  0  0  0  0
   -4.2629    5.8665  -18.8227 C   0  0  0  0  0  0  0  0  0  0  0  0
   -3.4889    6.1941  -18.0072 O   0  0  0  0  0  0  0  0  0  0  0  0
   -5.7181    5.3085  -18.6734 N   0  0  0  0  0  0  0  0  0  0  0  0
   -6.4484    4.9654  -17.5258 C   0  0  0  0  0  0  0  0  0  0  0  0
   -5.9643    4.8052  -16.2090 C   0  0  0  0  0  0  0  0  0  0  0  0
   -4.5206    4.9362  -15.8115 C   0  0  0  0  0  0  0  0  0  0  0  0
   -6.8467    4.4537  -15.1632 C   0  0  0  0  0  0  0  0  0  0  0  0
   -8.1978    4.2040  -15.3794 C   0  0  0  0  0  0  0  0  0  0  0  0
   -8.6811    4.3291  -16.6744 C   0  0  0  0  0  0  0  0  0  0  0  0
   -9.9629    4.1778  -17.1185 N   0  0  0  0  0  0  0  0  0  0  0  0
   -9.9363    4.6003  -18.3537 C   0  0  0  0  0  0  0  0  0  0  0  0
   -8.6612    4.8018  -18.7868 N   0  0  0  0  0  0  0  0  0  0  0  0
   -7.8221    4.7054  -17.7018 C   0  0  0  0  0  0  0  0  0  0  0  0
  1  2  1  0
  2  3  1  0
  3  4  1  0
  4  5  1  0
  5  6  1  1
  5  7  1  0
  7  8  2  0
  7  9  1  0
  9 10  1  0
 10 11  2  0
 11 12  1  0
 11 13  1  0
 13 14  2  0
 14 15  1  0
 15 16  1  0
 16 17  2  0
 17 18  1  0
 18 19  1  0
 19 10  1  0
 19 15  2  0
M  END
>  <energy_score>  (141) 
-26.398922

>  <alias>  (141) 
None

>  <HIPPO Pose ID>  (141) 
68693

>  <smiles>  (141) 
CCCC[C@@H](C)C(=O)Nc1c(C)ccc2nc[nH]c12

>  <inchikey>  (141) 
JPMRZFUINGSFQA-LLVKDONJSA-N

>  <distance_score>  (141) 
1.173075

>  <ref_mols>  (141) 
Z0846a,Z1597a

>  <ref_pdb>  (141) 
Z0846a

>  <HIPPO Compound ID>  (141) 
136821

>  <name>  (141) 
P68693

>  <inspiration_score>  (141) 
None

$$$$
P68695
     RDKit          3D

 19 20  0  0  0  0  0  0  0  0999 V2000
   -5.8584    7.7463  -24.5761 C   0  0  0  0  0  0  0  0  0  0  0  0
   -5.4390    8.0637  -23.1498 C   0  0  0  0  0  0  0  0  0  0  0  0
   -4.8953    6.8234  -22.4470 C   0  0  0  0  0  0  0  0  0  0  0  0
   -4.6341    7.0604  -20.9571 C   0  0  0  0  0  0  0  0  0  0  0  0
   -4.0271    5.8251  -20.2733 C   0  0  1  0  0  0  0  0  0  0  0  0
   -2.5140    5.7550  -20.4936 C   0  0  0  0  0  0  0  0  0  0  0  0
   -4.3476    5.8100  -18.7706 C   0  0  0  0  0  0  0  0  0  0  0  0
   -3.5579    6.0465  -17.9394 O   0  0  0  0  0  0  0  0  0  0  0  0
   -5.8443    5.3763  -18.6506 N   0  0  0  0  0  0  0  0  0  0  0  0
   -6.6062    5.0683  -17.5312 C   0  0  0  0  0  0  0  0  0  0  0  0
   -6.0717    5.0905  -16.2370 C   0  0  0  0  0  0  0  0  0  0  0  0
   -6.8293    4.7221  -15.1136 C   0  0  0  0  0  0  0  0  0  0  0  0
   -6.2729    4.8244  -13.7310 C   0  0  0  0  0  0  0  0  0  0  0  0
   -8.1501    4.3046  -15.2630 C   0  0  0  0  0  0  0  0  0  0  0  0
   -8.7076    4.3157  -16.5383 C   0  0  0  0  0  0  0  0  0  0  0  0
   -9.9894    4.0411  -16.8940 N   0  0  0  0  0  0  0  0  0  0  0  0
  -10.0738    4.4344  -18.1351 C   0  0  0  0  0  0  0  0  0  0  0  0
   -8.8482    4.6954  -18.6727 N   0  0  0  0  0  0  0  0  0  0  0  0
   -7.9481    4.7073  -17.6372 C   0  0  0  0  0  0  0  0  0  0  0  0
  1  2  1  0
  2  3  1  0
  3  4  1  0
  4  5  1  0
  5  6  1  1
  5  7  1  0
  7  8  2  0
  7  9  1  0
  9 10  1  0
 10 11  2  0
 11 12  1  0
 12 13  1  0
 12 14  2  0
 14 15  1  0
 15 16  1  0
 16 17  2  0
 17 18  1  0
 18 19  1  0
 19 10  1  0
 19 15  2  0
M  END
>  <energy_score>  (142) 
-33.396981

>  <alias>  (142) 
None

>  <HIPPO Pose ID>  (142) 
68695

>  <smiles>  (142) 
CCCC[C@@H](C)C(=O)Nc1cc(C)cc2nc[nH]c12

>  <inchikey>  (142) 
GZXXXKYTZGNFTI-LLVKDONJSA-N

>  <distance_score>  (142) 
1.18385

>  <ref_mols>  (142) 
Z0846a,Z1597a

>  <ref_pdb>  (142) 
Z0846a

>  <HIPPO Compound ID>  (142) 
136822

>  <name>  (142) 
P68695

>  <inspiration_score>  (142) 
None

$$$$
P68701
     RDKit          3D

 19 22  0  0  0  0  0  0  0  0999 V2000
   -3.7081    5.5489  -18.2336 O   0  0  0  0  0  0  0  0  0  0  0  0
   -4.5791    5.6058  -19.0124 C   0  0  0  0  0  0  0  0  0  0  0  0
   -4.3919    6.0250  -20.4597 C   0  0  0  0  0  0  0  0  0  0  0  0
   -4.8618    7.4248  -20.7195 C   0  0  1  0  0  0  0  0  0  0  0  0
   -3.8565    8.5618  -20.9756 C   0  0  0  0  0  0  0  0  0  0  0  0
   -4.6486    7.9765  -22.0502 C   0  0  0  0  0  0  0  0  0  0  0  0
   -4.3797    7.4186  -23.3698 C   0  0  0  0  0  0  0  0  0  0  0  0
   -5.4712    8.4686  -23.1477 C   0  0  0  0  0  0  0  0  0  0  0  0
   -6.0968    5.2821  -18.8563 N   0  0  0  0  0  0  0  0  0  0  0  0
   -6.8300    4.9307  -17.7355 C   0  0  0  0  0  0  0  0  0  0  0  0
   -6.2767    4.8787  -16.4552 C   0  0  0  0  0  0  0  0  0  0  0  0
   -7.0691    4.5531  -15.3521 C   0  0  0  0  0  0  0  0  0  0  0  0
   -6.3533    4.6351  -13.6121 Br  0  0  0  0  0  0  0  0  0  0  0  0
   -8.4117    4.2202  -15.4801 C   0  0  0  0  0  0  0  0  0  0  0  0
   -8.9718    4.2910  -16.7490 C   0  0  0  0  0  0  0  0  0  0  0  0
  -10.2705    4.1211  -17.1122 N   0  0  0  0  0  0  0  0  0  0  0  0
  -10.3334    4.5837  -18.3309 C   0  0  0  0  0  0  0  0  0  0  0  0
   -9.0926    4.7504  -18.8660 N   0  0  0  0  0  0  0  0  0  0  0  0
   -8.1915    4.6596  -17.8374 C   0  0  0  0  0  0  0  0  0  0  0  0
  1  2  2  0
  2  3  1  0
  4  3  1  6
  4  5  1  0
  5  6  1  0
  6  7  1  0
  7  8  1  0
  2  9  1  0
  9 10  1  0
 10 11  2  0
 11 12  1  0
 12 13  1  0
 12 14  2  0
 14 15  1  0
 15 16  1  0
 16 17  2  0
 17 18  1  0
 18 19  1  0
  6  4  1  0
 19 10  1  0
  8  6  1  0
 19 15  2  0
M  END
>  <energy_score>  (143) 
-24.506225

>  <alias>  (143) 
None

>  <HIPPO Pose ID>  (143) 
68701

>  <smiles>  (143) 
O=C(C[C@H]1CC12CC2)Nc1cc(Br)cc2nc[nH]c12

>  <inchikey>  (143) 
MCRPANAWOMYJMM-QMMMGPOBSA-N

>  <distance_score>  (143) 
1.234879

>  <ref_mols>  (143) 
Z0846a,Z1597a

>  <ref_pdb>  (143) 
Z0846a

>  <HIPPO Compound ID>  (143) 
136825

>  <name>  (143) 
P68701

>  <inspiration_score>  (143) 
None

$$$$
P68702
     RDKit          3D

 19 22  0  0  0  0  0  0  0  0999 V2000
   -3.4948    5.3761  -18.4048 O   0  0  0  0  0  0  0  0  0  0  0  0
   -4.4001    5.3990  -19.1478 C   0  0  0  0  0  0  0  0  0  0  0  0
   -4.2442    5.7754  -20.6152 C   0  0  0  0  0  0  0  0  0  0  0  0
   -4.0644    7.2464  -20.8146 C   0  0  2  0  0  0  0  0  0  0  0  0
   -5.2127    8.2114  -20.4862 C   0  0  0  0  0  0  0  0  0  0  0  0
   -4.8064    7.9453  -21.8623 C   0  0  0  0  0  0  0  0  0  0  0  0
   -4.4550    8.7833  -23.0063 C   0  0  0  0  0  0  0  0  0  0  0  0
   -5.4385    7.6157  -23.1323 C   0  0  0  0  0  0  0  0  0  0  0  0
   -5.9127    5.0945  -18.9086 N   0  0  0  0  0  0  0  0  0  0  0  0
   -6.5998    4.8057  -17.7364 C   0  0  0  0  0  0  0  0  0  0  0  0
   -5.9555    4.7103  -16.5001 C   0  0  0  0  0  0  0  0  0  0  0  0
   -6.6774    4.4448  -15.3131 C   0  0  0  0  0  0  0  0  0  0  0  0
   -8.0592    4.2722  -15.3307 C   0  0  0  0  0  0  0  0  0  0  0  0
   -8.6634    4.3706  -16.5549 C   0  0  0  0  0  0  0  0  0  0  0  0
  -10.0126    4.3519  -16.8532 N   0  0  0  0  0  0  0  0  0  0  0  0
  -10.1758    4.6765  -18.1914 C   0  0  0  0  0  0  0  0  0  0  0  0
  -11.2411    4.9087  -18.7257 O   0  0  0  0  0  0  0  0  0  0  0  0
   -8.9021    4.7488  -18.7589 N   0  0  0  0  0  0  0  0  0  0  0  0
   -7.9638    4.6233  -17.7356 C   0  0  0  0  0  0  0  0  0  0  0  0
  1  2  2  0
  2  3  1  0
  4  3  1  6
  4  5  1  0
  5  6  1  0
  6  7  1  0
  7  8  1  0
  2  9  1  0
  9 10  1  0
 10 11  2  0
 11 12  1  0
 12 13  2  0
 13 14  1  0
 14 15  1  0
 15 16  1  0
 16 17  2  0
 16 18  1  0
 18 19  1  0
  6  4  1  0
 19 10  1  0
  8  6  1  0
 19 14  2  0
M  END
>  <energy_score>  (144) 
-39.784126

>  <alias>  (144) 
None

>  <HIPPO Pose ID>  (144) 
68702

>  <smiles>  (144) 
O=C(C[C@@H]1CC12CC2)Nc1cccc2[nH]c(=O)[nH]c12

>  <inchikey>  (144) 
LNHIGVQYSTYBGF-MRVPVSSYSA-N

>  <distance_score>  (144) 
1.172683

>  <ref_mols>  (144) 
Z0846a,Z1597a

>  <ref_pdb>  (144) 
Z0846a

>  <HIPPO Compound ID>  (144) 
136826

>  <name>  (144) 
P68702

>  <inspiration_score>  (144) 
None

$$$$
P68704
     RDKit          3D

 19 22  0  0  0  0  0  0  0  0999 V2000
   -6.0266    4.7858  -13.9807 C   0  0  0  0  0  0  0  0  0  0  0  0
   -6.7342    4.7309  -15.2948 C   0  0  0  0  0  0  0  0  0  0  0  0
   -6.0965    5.0934  -16.4936 C   0  0  0  0  0  0  0  0  0  0  0  0
   -6.7696    5.0789  -17.7222 C   0  0  0  0  0  0  0  0  0  0  0  0
   -6.1619    5.4466  -18.9144 N   0  0  0  0  0  0  0  0  0  0  0  0
   -4.6812    5.8286  -19.2200 C   0  0  0  0  0  0  0  0  0  0  0  0
   -3.7691    5.9654  -18.4991 O   0  0  0  0  0  0  0  0  0  0  0  0
   -4.5858    6.0604  -20.7233 C   0  0  0  0  0  0  0  0  0  0  0  0
   -4.6146    7.5175  -21.0668 C   0  0  1  0  0  0  0  0  0  0  0  0
   -3.3882    8.1551  -21.7465 C   0  0  0  0  0  0  0  0  0  0  0  0
   -4.6409    7.9402  -22.4626 C   0  0  0  0  0  0  0  0  0  0  0  0
   -5.4734    8.7961  -23.3027 C   0  0  0  0  0  0  0  0  0  0  0  0
   -5.0578    7.3883  -23.7428 C   0  0  0  0  0  0  0  0  0  0  0  0
   -8.1049    4.6893  -17.6879 C   0  0  0  0  0  0  0  0  0  0  0  0
   -9.1022    4.6487  -18.6284 N   0  0  0  0  0  0  0  0  0  0  0  0
  -10.2552    4.3256  -17.9787 C   0  0  0  0  0  0  0  0  0  0  0  0
  -10.0320    3.9541  -16.7477 N   0  0  0  0  0  0  0  0  0  0  0  0
   -8.7334    4.2717  -16.5204 C   0  0  0  0  0  0  0  0  0  0  0  0
   -8.0482    4.2676  -15.3099 C   0  0  0  0  0  0  0  0  0  0  0  0
  1  2  1  0
  2  3  2  0
  3  4  1  0
  4  5  1  0
  5  6  1  0
  6  7  2  0
  6  8  1  0
  9  8  1  6
  9 10  1  0
 10 11  1  0
 11 12  1  0
 12 13  1  0
  4 14  2  0
 14 15  1  0
 15 16  1  0
 16 17  2  0
 17 18  1  0
 18 19  2  0
 19  2  1  0
 11  9  1  0
 18 14  1  0
 13 11  1  0
M  END
>  <energy_score>  (145) 
-19.189794

>  <alias>  (145) 
None

>  <HIPPO Pose ID>  (145) 
68704

>  <smiles>  (145) 
Cc1cc(NC(=O)C[C@H]2CC23CC3)c2[nH]cnc2c1

>  <inchikey>  (145) 
SBSYLJYEEHAZRL-JTQLQIEISA-N

>  <distance_score>  (145) 
1.292614

>  <ref_mols>  (145) 
Z0846a,Z1597a

>  <ref_pdb>  (145) 
Z0846a

>  <HIPPO Compound ID>  (145) 
136827

>  <name>  (145) 
P68704

>  <inspiration_score>  (145) 
None

$$$$
P68706
     RDKit          3D

 19 22  0  0  0  0  0  0  0  0999 V2000
  -10.4716    4.2072  -17.3947 C   0  0  0  0  0  0  0  0  0  0  0  0
   -9.1098    4.2107  -17.8273 N   0  0  0  0  0  0  0  0  0  0  0  0
   -8.7102    4.1349  -19.1203 C   0  0  0  0  0  0  0  0  0  0  0  0
   -7.4143    4.2483  -19.2336 N   0  0  0  0  0  0  0  0  0  0  0  0
   -6.9872    4.5568  -17.9710 C   0  0  0  0  0  0  0  0  0  0  0  0
   -5.7187    5.0042  -17.5740 C   0  0  0  0  0  0  0  0  0  0  0  0
   -4.8453    5.2828  -18.6143 N   0  0  0  0  0  0  0  0  0  0  0  0
   -3.4411    5.9484  -18.6025 C   0  0  0  0  0  0  0  0  0  0  0  0
   -2.7736    6.2929  -17.7066 O   0  0  0  0  0  0  0  0  0  0  0  0
   -3.0875    6.1924  -20.0833 C   0  0  0  0  0  0  0  0  0  0  0  0
   -4.0199    7.1883  -20.7308 C   0  0  2  0  0  0  0  0  0  0  0  0
   -5.2449    6.7084  -21.3802 C   0  0  0  0  0  0  0  0  0  0  0  0
   -4.1489    7.3158  -22.2496 C   0  0  0  0  0  0  0  0  0  0  0  0
   -3.8221    8.7535  -22.6821 C   0  0  0  0  0  0  0  0  0  0  0  0
   -4.8421    8.0029  -23.4157 C   0  0  0  0  0  0  0  0  0  0  0  0
   -5.5005    5.2530  -16.2240 C   0  0  0  0  0  0  0  0  0  0  0  0
   -6.5358    5.0579  -15.2938 C   0  0  0  0  0  0  0  0  0  0  0  0
   -7.8257    4.6685  -15.6818 C   0  0  0  0  0  0  0  0  0  0  0  0
   -8.0155    4.4607  -17.0462 C   0  0  0  0  0  0  0  0  0  0  0  0
  1  2  1  0
  2  3  1  0
  3  4  2  0
  4  5  1  0
  5  6  2  0
  6  7  1  0
  7  8  1  0
  8  9  2  0
  8 10  1  0
 11 10  1  6
 11 12  1  0
 12 13  1  0
 13 14  1  0
 14 15  1  0
  6 16  1  0
 16 17  2  0
 17 18  1  0
 18 19  2  0
 19  2  1  0
 19  5  1  0
 13 11  1  0
 15 13  1  0
M  END
>  <energy_score>  (146) 
-19.245215

>  <alias>  (146) 
None

>  <HIPPO Pose ID>  (146) 
68706

>  <smiles>  (146) 
Cn1cnc2c(NC(=O)C[C@@H]3CC34CC4)cccc21

>  <inchikey>  (146) 
UAZUVNGWKVETRL-SNVBAGLBSA-N

>  <distance_score>  (146) 
1.59632

>  <ref_mols>  (146) 
Z0846a,Z1597a

>  <ref_pdb>  (146) 
Z0846a

>  <HIPPO Compound ID>  (146) 
136828

>  <name>  (146) 
P68706

>  <inspiration_score>  (146) 
None

$$$$
P68710
     RDKit          3D

 19 20  0  0  0  0  0  0  0  0999 V2000
   -5.8668    7.7587  -24.6351 C   0  0  0  0  0  0  0  0  0  0  0  0
   -5.5427    8.0553  -23.1701 C   0  0  0  0  0  0  0  0  0  0  0  0
   -4.6395    9.2791  -23.0650 C   0  0  0  0  0  0  0  0  0  0  0  0
   -4.9351    6.8096  -22.5103 C   0  0  0  0  0  0  0  0  0  0  0  0
   -4.7923    6.8973  -20.9878 C   0  0  0  0  0  0  0  0  0  0  0  0
   -4.3569    5.5551  -20.4064 C   0  0  0  0  0  0  0  0  0  0  0  0
   -4.5913    5.4616  -18.9105 C   0  0  0  0  0  0  0  0  0  0  0  0
   -3.7465    5.6107  -18.1157 O   0  0  0  0  0  0  0  0  0  0  0  0
   -6.1019    5.1340  -18.7271 N   0  0  0  0  0  0  0  0  0  0  0  0
   -6.8267    4.8424  -17.5827 C   0  0  0  0  0  0  0  0  0  0  0  0
   -6.2780    4.8443  -16.3007 C   0  0  0  0  0  0  0  0  0  0  0  0
   -7.1011    4.6303  -15.1912 C   0  0  0  0  0  0  0  0  0  0  0  0
   -6.4450    4.7286  -13.6086 Cl  0  0  0  0  0  0  0  0  0  0  0  0
   -8.4728    4.4060  -15.3029 C   0  0  0  0  0  0  0  0  0  0  0  0
   -8.9847    4.4352  -16.5888 C   0  0  0  0  0  0  0  0  0  0  0  0
  -10.2653    4.4160  -17.0607 N   0  0  0  0  0  0  0  0  0  0  0  0
  -10.2177    4.6641  -18.3930 C   0  0  0  0  0  0  0  0  0  0  0  0
   -8.9893    4.6421  -18.8427 N   0  0  0  0  0  0  0  0  0  0  0  0
   -8.2055    4.6162  -17.7212 C   0  0  0  0  0  0  0  0  0  0  0  0
  1  2  1  0
  2  3  1  0
  2  4  1  0
  4  5  1  0
  5  6  1  0
  6  7  1  0
  7  8  2  0
  7  9  1  0
  9 10  1  0
 10 11  2  0
 11 12  1  0
 12 13  1  0
 12 14  2  0
 14 15  1  0
 15 16  1  0
 16 17  1  0
 17 18  2  0
 18 19  1  0
 19 10  1  0
 19 15  2  0
M  END
>  <energy_score>  (147) 
-6.834798

>  <alias>  (147) 
None

>  <HIPPO Pose ID>  (147) 
68710

>  <smiles>  (147) 
CC(C)CCCC(=O)Nc1cc(Cl)cc2[nH]cnc12

>  <inchikey>  (147) 
PRAJYKSNEXCFIF-UHFFFAOYSA-N

>  <distance_score>  (147) 
0.882457

>  <ref_mols>  (147) 
Z0846a,Z1597a

>  <ref_pdb>  (147) 
Z0846a

>  <HIPPO Compound ID>  (147) 
136832

>  <name>  (147) 
P68710

>  <inspiration_score>  (147) 
None

$$$$
P68711
     RDKit          3D

 19 20  0  0  0  0  0  0  0  0999 V2000
   -4.9554    9.3465  -22.7996 C   0  0  0  0  0  0  0  0  0  0  0  0
   -4.9297    7.8771  -23.2142 C   0  0  0  0  0  0  0  0  0  0  0  0
   -5.9483    7.6316  -24.3267 C   0  0  0  0  0  0  0  0  0  0  0  0
   -5.1782    6.9371  -22.0183 C   0  0  0  0  0  0  0  0  0  0  0  0
   -3.9863    6.8605  -21.0540 C   0  0  0  0  0  0  0  0  0  0  0  0
   -3.9376    5.5594  -20.2593 C   0  0  0  0  0  0  0  0  0  0  0  0
   -4.3804    5.6697  -18.8091 C   0  0  0  0  0  0  0  0  0  0  0  0
   -3.6413    5.9498  -17.9467 O   0  0  0  0  0  0  0  0  0  0  0  0
   -5.8797    5.2495  -18.7567 N   0  0  0  0  0  0  0  0  0  0  0  0
   -6.7108    5.0068  -17.6700 C   0  0  0  0  0  0  0  0  0  0  0  0
   -6.2420    5.0101  -16.3539 C   0  0  0  0  0  0  0  0  0  0  0  0
   -7.0873    4.6790  -15.2908 C   0  0  0  0  0  0  0  0  0  0  0  0
   -6.4625    4.7812  -13.5171 Br  0  0  0  0  0  0  0  0  0  0  0  0
   -8.4114    4.3083  -15.4864 C   0  0  0  0  0  0  0  0  0  0  0  0
   -8.9008    4.3563  -16.7849 C   0  0  0  0  0  0  0  0  0  0  0  0
  -10.1810    4.1774  -17.2095 N   0  0  0  0  0  0  0  0  0  0  0  0
  -10.1756    4.6175  -18.4380 C   0  0  0  0  0  0  0  0  0  0  0  0
   -8.9076    4.7585  -18.9140 N   0  0  0  0  0  0  0  0  0  0  0  0
   -8.0620    4.7092  -17.8377 C   0  0  0  0  0  0  0  0  0  0  0  0
  1  2  1  0
  2  3  1  0
  2  4  1  0
  4  5  1  0
  5  6  1  0
  6  7  1  0
  7  8  2  0
  7  9  1  0
  9 10  1  0
 10 11  2  0
 11 12  1  0
 12 13  1  0
 12 14  2  0
 14 15  1  0
 15 16  1  0
 16 17  2  0
 17 18  1  0
 18 19  1  0
 19 10  1  0
 19 15  2  0
M  END
>  <energy_score>  (148) 
-13.679313

>  <alias>  (148) 
None

>  <HIPPO Pose ID>  (148) 
68711

>  <smiles>  (148) 
CC(C)CCCC(=O)Nc1cc(Br)cc2nc[nH]c12

>  <inchikey>  (148) 
OHGJPJXYQNEXNN-UHFFFAOYSA-N

>  <distance_score>  (148) 
0.969782

>  <ref_mols>  (148) 
Z0846a,Z1597a

>  <ref_pdb>  (148) 
Z0846a

>  <HIPPO Compound ID>  (148) 
136833

>  <name>  (148) 
P68711

>  <inspiration_score>  (148) 
None

$$$$
P68712
     RDKit          3D

 19 20  0  0  0  0  0  0  0  0999 V2000
   -4.5093    4.8676  -15.8627 C   0  0  0  0  0  0  0  0  0  0  0  0
   -5.9633    4.7675  -16.2315 C   0  0  0  0  0  0  0  0  0  0  0  0
   -6.8391    4.4570  -15.1679 C   0  0  0  0  0  0  0  0  0  0  0  0
   -8.1976    4.2272  -15.3637 C   0  0  0  0  0  0  0  0  0  0  0  0
   -8.6947    4.3380  -16.6553 C   0  0  0  0  0  0  0  0  0  0  0  0
   -9.9833    4.2014  -17.0827 N   0  0  0  0  0  0  0  0  0  0  0  0
   -9.9642    4.5938  -18.3278 C   0  0  0  0  0  0  0  0  0  0  0  0
   -8.6912    4.7682  -18.7786 N   0  0  0  0  0  0  0  0  0  0  0  0
   -7.8422    4.6778  -17.7002 C   0  0  0  0  0  0  0  0  0  0  0  0
   -6.4618    4.9092  -17.5439 C   0  0  0  0  0  0  0  0  0  0  0  0
   -5.7317    5.1884  -18.7073 N   0  0  0  0  0  0  0  0  0  0  0  0
   -4.3151    5.8242  -18.8880 C   0  0  0  0  0  0  0  0  0  0  0  0
   -3.5173    6.1375  -18.0909 O   0  0  0  0  0  0  0  0  0  0  0  0
   -4.0689    5.8869  -20.3831 C   0  0  0  0  0  0  0  0  0  0  0  0
   -4.7386    7.0956  -21.0212 C   0  0  0  0  0  0  0  0  0  0  0  0
   -4.8821    6.9097  -22.5327 C   0  0  0  0  0  0  0  0  0  0  0  0
   -5.5735    8.0790  -23.2477 C   0  0  0  0  0  0  0  0  0  0  0  0
   -5.8928    7.6888  -24.6909 C   0  0  0  0  0  0  0  0  0  0  0  0
   -4.7455    9.3601  -23.2193 C   0  0  0  0  0  0  0  0  0  0  0  0
  1  2  1  0
  2  3  2  0
  3  4  1  0
  4  5  2  0
  5  6  1  0
  6  7  2  0
  7  8  1  0
  8  9  1  0
  9 10  2  0
 10 11  1  0
 11 12  1  0
 12 13  2  0
 12 14  1  0
 14 15  1  0
 15 16  1  0
 16 17  1  0
 17 18  1  0
 17 19  1  0
 10  2  1  0
  9  5  1  0
M  END
>  <energy_score>  (149) 
-20.102876

>  <alias>  (149) 
None

>  <HIPPO Pose ID>  (149) 
68712

>  <smiles>  (149) 
Cc1ccc2nc[nH]c2c1NC(=O)CCCC(C)C

>  <inchikey>  (149) 
RUCAKKJFNDVCHV-UHFFFAOYSA-N

>  <distance_score>  (149) 
1.196752

>  <ref_mols>  (149) 
Z0846a,Z1597a

>  <ref_pdb>  (149) 
Z0846a

>  <HIPPO Compound ID>  (149) 
136834

>  <name>  (149) 
P68712

>  <inspiration_score>  (149) 
None

$$$$
P68713
     RDKit          3D

 19 20  0  0  0  0  0  0  0  0999 V2000
   -4.9597    9.3787  -22.8131 C   0  0  0  0  0  0  0  0  0  0  0  0
   -4.9369    7.9261  -23.2817 C   0  0  0  0  0  0  0  0  0  0  0  0
   -5.9437    7.7254  -24.4148 C   0  0  0  0  0  0  0  0  0  0  0  0
   -5.2176    6.9465  -22.1295 C   0  0  0  0  0  0  0  0  0  0  0  0
   -4.0605    6.8214  -21.1297 C   0  0  0  0  0  0  0  0  0  0  0  0
   -4.0652    5.4789  -20.4054 C   0  0  0  0  0  0  0  0  0  0  0  0
   -4.3691    5.5563  -18.9222 C   0  0  0  0  0  0  0  0  0  0  0  0
   -3.5455    5.7812  -18.1221 O   0  0  0  0  0  0  0  0  0  0  0  0
   -5.8727    5.1876  -18.7469 N   0  0  0  0  0  0  0  0  0  0  0  0
   -6.6107    4.9385  -17.5991 C   0  0  0  0  0  0  0  0  0  0  0  0
   -6.0189    4.9067  -16.3332 C   0  0  0  0  0  0  0  0  0  0  0  0
   -6.7739    4.6099  -15.1760 C   0  0  0  0  0  0  0  0  0  0  0  0
   -8.1398    4.3533  -15.2529 C   0  0  0  0  0  0  0  0  0  0  0  0
   -8.6943    4.4038  -16.5037 C   0  0  0  0  0  0  0  0  0  0  0  0
  -10.0295    4.3334  -16.8528 N   0  0  0  0  0  0  0  0  0  0  0  0
  -10.1523    4.6654  -18.1935 C   0  0  0  0  0  0  0  0  0  0  0  0
  -11.2031    4.9033  -18.7537 O   0  0  0  0  0  0  0  0  0  0  0  0
   -8.8613    4.7571  -18.7201 N   0  0  0  0  0  0  0  0  0  0  0  0
   -7.9599    4.6759  -17.6581 C   0  0  0  0  0  0  0  0  0  0  0  0
  1  2  1  0
  2  3  1  0
  2  4  1  0
  4  5  1  0
  5  6  1  0
  6  7  1  0
  7  8  2  0
  7  9  1  0
  9 10  1  0
 10 11  2  0
 11 12  1  0
 12 13  2  0
 13 14  1  0
 14 15  1  0
 15 16  1  0
 16 17  2  0
 16 18  1  0
 18 19  1  0
 19 10  1  0
 19 14  2  0
M  END
>  <energy_score>  (150) 
-22.169177

>  <alias>  (150) 
None

>  <HIPPO Pose ID>  (150) 
68713

>  <smiles>  (150) 
CC(C)CCCC(=O)Nc1cccc2[nH]c(=O)[nH]c12

>  <inchikey>  (150) 
JEIYTGRNYKJTBJ-UHFFFAOYSA-N

>  <distance_score>  (150) 
0.994267

>  <ref_mols>  (150) 
Z0846a,Z1597a

>  <ref_pdb>  (150) 
Z0846a

>  <HIPPO Compound ID>  (150) 
136835

>  <name>  (150) 
P68713

>  <inspiration_score>  (150) 
None

$$$$
P68714
     RDKit          3D

 19 20  0  0  0  0  0  0  0  0999 V2000
   -6.1837    4.8405  -13.7548 C   0  0  0  0  0  0  0  0  0  0  0  0
   -6.8039    4.7792  -15.1119 C   0  0  0  0  0  0  0  0  0  0  0  0
   -6.0834    5.1328  -16.2641 C   0  0  0  0  0  0  0  0  0  0  0  0
   -6.6634    5.0912  -17.5367 C   0  0  0  0  0  0  0  0  0  0  0  0
   -5.9568    5.4001  -18.6901 N   0  0  0  0  0  0  0  0  0  0  0  0
   -4.4438    5.7211  -18.8953 C   0  0  0  0  0  0  0  0  0  0  0  0
   -3.5831    5.8486  -18.1129 O   0  0  0  0  0  0  0  0  0  0  0  0
   -4.2198    5.7652  -20.3957 C   0  0  0  0  0  0  0  0  0  0  0  0
   -4.7472    7.0468  -21.0284 C   0  0  0  0  0  0  0  0  0  0  0  0
   -4.9118    6.8808  -22.5406 C   0  0  0  0  0  0  0  0  0  0  0  0
   -5.5623    8.0823  -23.2403 C   0  0  0  0  0  0  0  0  0  0  0  0
   -5.8896    7.7223  -24.6896 C   0  0  0  0  0  0  0  0  0  0  0  0
   -4.6946    9.3355  -23.1895 C   0  0  0  0  0  0  0  0  0  0  0  0
   -8.0011    4.7064  -17.5963 C   0  0  0  0  0  0  0  0  0  0  0  0
   -8.9327    4.6660  -18.6036 N   0  0  0  0  0  0  0  0  0  0  0  0
  -10.1308    4.3630  -18.0285 C   0  0  0  0  0  0  0  0  0  0  0  0
   -9.9943    3.9858  -16.7867 N   0  0  0  0  0  0  0  0  0  0  0  0
   -8.7126    4.3022  -16.4717 C   0  0  0  0  0  0  0  0  0  0  0  0
   -8.1124    4.3104  -15.2162 C   0  0  0  0  0  0  0  0  0  0  0  0
  1  2  1  0
  2  3  2  0
  3  4  1  0
  4  5  1  0
  5  6  1  0
  6  7  2  0
  6  8  1  0
  8  9  1  0
  9 10  1  0
 10 11  1  0
 11 12  1  0
 11 13  1  0
  4 14  2  0
 14 15  1  0
 15 16  1  0
 16 17  2  0
 17 18  1  0
 18 19  2  0
 19  2  1  0
 18 14  1  0
M  END
>  <energy_score>  (151) 
-23.590979

>  <alias>  (151) 
None

>  <HIPPO Pose ID>  (151) 
68714

>  <smiles>  (151) 
Cc1cc(NC(=O)CCCC(C)C)c2[nH]cnc2c1

>  <inchikey>  (151) 
SAUHGLJHZCRORO-UHFFFAOYSA-N

>  <distance_score>  (151) 
1.074223

>  <ref_mols>  (151) 
Z0846a,Z1597a

>  <ref_pdb>  (151) 
Z0846a

>  <HIPPO Compound ID>  (151) 
136836

>  <name>  (151) 
P68714

>  <inspiration_score>  (151) 
None

$$$$
P68715
     RDKit          3D

 19 20  0  0  0  0  0  0  0  0999 V2000
   -4.9792    9.3561  -22.8279 C   0  0  0  0  0  0  0  0  0  0  0  0
   -4.8214    7.8708  -23.1497 C   0  0  0  0  0  0  0  0  0  0  0  0
   -5.9091    7.4340  -24.1272 C   0  0  0  0  0  0  0  0  0  0  0  0
   -4.8035    6.9993  -21.8706 C   0  0  0  0  0  0  0  0  0  0  0  0
   -3.4928    7.1756  -21.0816 C   0  0  0  0  0  0  0  0  0  0  0  0
   -3.0582    5.9908  -20.2157 C   0  0  0  0  0  0  0  0  0  0  0  0
   -3.5511    6.0665  -18.7741 C   0  0  0  0  0  0  0  0  0  0  0  0
   -2.9435    6.5689  -17.9129 O   0  0  0  0  0  0  0  0  0  0  0  0
   -4.9490    5.4018  -18.7602 N   0  0  0  0  0  0  0  0  0  0  0  0
   -5.8132    5.1436  -17.7069 C   0  0  0  0  0  0  0  0  0  0  0  0
   -5.5816    5.4373  -16.3662 C   0  0  0  0  0  0  0  0  0  0  0  0
   -6.5881    5.2248  -15.4087 C   0  0  0  0  0  0  0  0  0  0  0  0
   -7.8658    4.7704  -15.7609 C   0  0  0  0  0  0  0  0  0  0  0  0
   -8.0669    4.5138  -17.1153 C   0  0  0  0  0  0  0  0  0  0  0  0
   -7.0599    4.6212  -18.0616 C   0  0  0  0  0  0  0  0  0  0  0  0
   -7.4856    4.2377  -19.2997 N   0  0  0  0  0  0  0  0  0  0  0  0
   -8.7783    4.1196  -19.1678 C   0  0  0  0  0  0  0  0  0  0  0  0
   -9.1642    4.2127  -17.8730 N   0  0  0  0  0  0  0  0  0  0  0  0
  -10.5188    4.2068  -17.4198 C   0  0  0  0  0  0  0  0  0  0  0  0
  1  2  1  0
  2  3  1  0
  2  4  1  0
  4  5  1  0
  5  6  1  0
  6  7  1  0
  7  8  2  0
  7  9  1  0
  9 10  1  0
 10 11  2  0
 11 12  1  0
 12 13  2  0
 13 14  1  0
 14 15  2  0
 15 16  1  0
 16 17  2  0
 17 18  1  0
 18 19  1  0
 15 10  1  0
 18 14  1  0
M  END
>  <energy_score>  (152) 
-34.344258

>  <alias>  (152) 
None

>  <HIPPO Pose ID>  (152) 
68715

>  <smiles>  (152) 
CC(C)CCCC(=O)Nc1cccc2c1ncn2C

>  <inchikey>  (152) 
RFTQFCXERZYFMQ-UHFFFAOYSA-N

>  <distance_score>  (152) 
1.392493

>  <ref_mols>  (152) 
Z0846a,Z1597a

>  <ref_pdb>  (152) 
Z0846a

>  <HIPPO Compound ID>  (152) 
136837

>  <name>  (152) 
P68715

>  <inspiration_score>  (152) 
None

$$$$
P68717
     RDKit          3D

 19 20  0  0  0  0  0  0  0  0999 V2000
   -5.7972    7.7643  -24.4654 C   0  0  0  0  0  0  0  0  0  0  0  0
   -5.3776    8.0245  -23.0267 C   0  0  0  0  0  0  0  0  0  0  0  0
   -4.8790    6.7458  -22.3590 C   0  0  0  0  0  0  0  0  0  0  0  0
   -4.6399    6.9107  -20.8537 C   0  0  0  0  0  0  0  0  0  0  0  0
   -4.1546    5.6153  -20.2014 C   0  0  1  0  0  0  0  0  0  0  0  0
   -2.2136    5.4287  -20.4259 Br  0  0  0  0  0  0  0  0  0  0  0  0
   -4.4763    5.5505  -18.6986 C   0  0  0  0  0  0  0  0  0  0  0  0
   -3.7011    5.7803  -17.8514 O   0  0  0  0  0  0  0  0  0  0  0  0
   -5.9826    5.1370  -18.6084 N   0  0  0  0  0  0  0  0  0  0  0  0
   -6.7719    4.8448  -17.5046 C   0  0  0  0  0  0  0  0  0  0  0  0
   -6.2805    4.8628  -16.1986 C   0  0  0  0  0  0  0  0  0  0  0  0
   -7.1458    4.6527  -15.1220 C   0  0  0  0  0  0  0  0  0  0  0  0
   -6.5520    4.7607  -13.5160 Cl  0  0  0  0  0  0  0  0  0  0  0  0
   -8.5106    4.4266  -15.2884 C   0  0  0  0  0  0  0  0  0  0  0  0
   -8.9701    4.4466  -16.5941 C   0  0  0  0  0  0  0  0  0  0  0  0
  -10.2345    4.4379  -17.1120 N   0  0  0  0  0  0  0  0  0  0  0  0
  -10.1279    4.6703  -18.4449 C   0  0  0  0  0  0  0  0  0  0  0  0
   -8.8827    4.6259  -18.8473 N   0  0  0  0  0  0  0  0  0  0  0  0
   -8.1438    4.6118  -17.6971 C   0  0  0  0  0  0  0  0  0  0  0  0
  1  2  1  0
  2  3  1  0
  3  4  1  0
  4  5  1  0
  5  6  1  1
  5  7  1  0
  7  8  2  0
  7  9  1  0
  9 10  1  0
 10 11  2  0
 11 12  1  0
 12 13  1  0
 12 14  2  0
 14 15  1  0
 15 16  1  0
 16 17  1  0
 17 18  2  0
 18 19  1  0
 19 10  1  0
 19 15  2  0
M  END
>  <energy_score>  (153) 
-19.621399

>  <alias>  (153) 
None

>  <HIPPO Pose ID>  (153) 
68717

>  <smiles>  (153) 
CCCC[C@@H](Br)C(=O)Nc1cc(Cl)cc2[nH]cnc12

>  <inchikey>  (153) 
UOQYSQAXVIDOKD-SECBINFHSA-N

>  <distance_score>  (153) 
0.937833

>  <ref_mols>  (153) 
Z0846a,Z1597a

>  <ref_pdb>  (153) 
Z0846a

>  <HIPPO Compound ID>  (153) 
136839

>  <name>  (153) 
P68717

>  <inspiration_score>  (153) 
None

$$$$
P68721
     RDKit          3D

 19 20  0  0  0  0  0  0  0  0999 V2000
   -5.8815    7.7192  -24.6489 C   0  0  0  0  0  0  0  0  0  0  0  0
   -5.4556    8.0687  -23.2327 C   0  0  0  0  0  0  0  0  0  0  0  0
   -4.8881    6.8496  -22.5113 C   0  0  0  0  0  0  0  0  0  0  0  0
   -4.6142    7.1299  -21.0322 C   0  0  0  0  0  0  0  0  0  0  0  0
   -4.0057    5.9276  -20.3209 C   0  0  1  0  0  0  0  0  0  0  0  0
   -2.0663    5.8860  -20.5700 Br  0  0  0  0  0  0  0  0  0  0  0  0
   -4.3129    5.9484  -18.8189 C   0  0  0  0  0  0  0  0  0  0  0  0
   -3.5832    6.3631  -18.0008 O   0  0  0  0  0  0  0  0  0  0  0  0
   -5.7352    5.2972  -18.6771 N   0  0  0  0  0  0  0  0  0  0  0  0
   -6.4680    4.9554  -17.5340 C   0  0  0  0  0  0  0  0  0  0  0  0
   -5.9739    4.8003  -16.2213 C   0  0  0  0  0  0  0  0  0  0  0  0
   -4.5232    4.9185  -15.8421 C   0  0  0  0  0  0  0  0  0  0  0  0
   -6.8494    4.4576  -15.1682 C   0  0  0  0  0  0  0  0  0  0  0  0
   -8.2023    4.2077  -15.3765 C   0  0  0  0  0  0  0  0  0  0  0  0
   -8.6931    4.3242  -16.6702 C   0  0  0  0  0  0  0  0  0  0  0  0
   -9.9773    4.1745  -17.1073 N   0  0  0  0  0  0  0  0  0  0  0  0
   -9.9569    4.5924  -18.3442 C   0  0  0  0  0  0  0  0  0  0  0  0
   -8.6839    4.7882  -18.7861 N   0  0  0  0  0  0  0  0  0  0  0  0
   -7.8398    4.6923  -17.7053 C   0  0  0  0  0  0  0  0  0  0  0  0
  1  2  1  0
  2  3  1  0
  3  4  1  0
  4  5  1  0
  5  6  1  1
  5  7  1  0
  7  8  2  0
  7  9  1  0
  9 10  1  0
 10 11  2  0
 11 12  1  0
 11 13  1  0
 13 14  2  0
 14 15  1  0
 15 16  1  0
 16 17  2  0
 17 18  1  0
 18 19  1  0
 19 10  1  0
 19 15  2  0
M  END
>  <energy_score>  (154) 
-15.256207

>  <alias>  (154) 
None

>  <HIPPO Pose ID>  (154) 
68721

>  <smiles>  (154) 
CCCC[C@@H](Br)C(=O)Nc1c(C)ccc2nc[nH]c12

>  <inchikey>  (154) 
TYBKKDKKPXBKLV-SNVBAGLBSA-N

>  <distance_score>  (154) 
1.180474

>  <ref_mols>  (154) 
Z0846a,Z1597a

>  <ref_pdb>  (154) 
Z0846a

>  <HIPPO Compound ID>  (154) 
136841

>  <name>  (154) 
P68721

>  <inspiration_score>  (154) 
None

$$$$
P68726
     RDKit          3D

 19 21  0  0  0  0  0  0  0  0999 V2000
   -5.8480    5.0085  -14.1491 C   0  0  0  0  0  0  0  0  0  0  0  0
   -6.5860    4.8486  -15.4385 C   0  0  0  0  0  0  0  0  0  0  0  0
   -6.0375    5.2709  -16.6656 C   0  0  0  0  0  0  0  0  0  0  0  0
   -6.7628    5.2033  -17.8626 C   0  0  0  0  0  0  0  0  0  0  0  0
   -6.2465    5.5966  -19.0952 N   0  0  0  0  0  0  0  0  0  0  0  0
   -4.8921    6.2847  -19.4533 C   0  0  0  0  0  0  0  0  0  0  0  0
   -3.9753    6.5539  -18.7758 O   0  0  0  0  0  0  0  0  0  0  0  0
   -4.9004    6.5591  -20.9505 C   0  0  0  0  0  0  0  0  0  0  0  0
   -4.9482    8.0425  -21.3169 C   0  0  0  0  0  0  0  0  0  0  0  0
   -5.6848    8.8053  -20.3249 O   0  0  0  0  0  0  0  0  0  0  0  0
   -3.6054    8.7097  -21.7492 C   0  0  0  0  0  0  0  0  0  0  0  0
   -4.3798    9.3989  -22.8884 C   0  0  0  0  0  0  0  0  0  0  0  0
   -5.4087    8.2633  -22.7940 C   0  0  0  0  0  0  0  0  0  0  0  0
   -8.0690    4.7259  -17.7562 C   0  0  0  0  0  0  0  0  0  0  0  0
   -9.1131    4.6330  -18.6420 N   0  0  0  0  0  0  0  0  0  0  0  0
  -10.2144    4.2569  -17.9327 C   0  0  0  0  0  0  0  0  0  0  0  0
   -9.9124    3.9067  -16.7120 N   0  0  0  0  0  0  0  0  0  0  0  0
   -8.6181    4.2844  -16.5572 C   0  0  0  0  0  0  0  0  0  0  0  0
   -7.8753    4.3216  -15.3829 C   0  0  0  0  0  0  0  0  0  0  0  0
  1  2  1  0
  2  3  2  0
  3  4  1  0
  4  5  1  0
  5  6  1  0
  6  7  2  0
  6  8  1  0
  8  9  1  0
  9 10  1  0
  9 11  1  0
 11 12  1  0
 12 13  1  0
  4 14  2  0
 14 15  1  0
 15 16  1  0
 16 17  2  0
 17 18  1  0
 18 19  2  0
 19  2  1  0
 13  9  1  0
 18 14  1  0
M  END
>  <energy_score>  (155) 
-25.462828

>  <alias>  (155) 
None

>  <HIPPO Pose ID>  (155) 
68726

>  <smiles>  (155) 
Cc1cc(NC(=O)CC2(O)CCC2)c2[nH]cnc2c1

>  <inchikey>  (155) 
QTHHNGHUKFXEJQ-UHFFFAOYSA-N

>  <distance_score>  (155) 
1.461931

>  <ref_mols>  (155) 
Z0846a,Z1597a

>  <ref_pdb>  (155) 
Z0846a

>  <HIPPO Compound ID>  (155) 
136845

>  <name>  (155) 
P68726

>  <inspiration_score>  (155) 
None

$$$$
P68727
     RDKit          3D

 19 21  0  0  0  0  0  0  0  0999 V2000
   -4.0529    5.7752  -18.8223 O   0  0  0  0  0  0  0  0  0  0  0  0
   -5.0212    5.6972  -19.4713 C   0  0  0  0  0  0  0  0  0  0  0  0
   -5.1732    6.1757  -20.9078 C   0  0  0  0  0  0  0  0  0  0  0  0
   -3.9232    6.7958  -21.5252 C   0  0  0  0  0  0  0  0  0  0  0  0
   -3.5974    8.1712  -20.9381 C   0  0  0  0  0  0  0  0  0  0  0  0
   -4.5471    9.1319  -21.6415 C   0  0  0  0  0  0  0  0  0  0  0  0
   -4.9556    8.4545  -22.9485 C   0  0  0  0  0  0  0  0  0  0  0  0
   -4.1799    7.1477  -22.9963 C   0  0  0  0  0  0  0  0  0  0  0  0
   -6.4496    5.2070  -19.0957 N   0  0  0  0  0  0  0  0  0  0  0  0
   -6.9751    4.8209  -17.8750 C   0  0  0  0  0  0  0  0  0  0  0  0
   -6.2729    4.8089  -16.6707 C   0  0  0  0  0  0  0  0  0  0  0  0
   -6.9589    4.5639  -15.4740 C   0  0  0  0  0  0  0  0  0  0  0  0
   -6.1366    4.6731  -13.9705 Cl  0  0  0  0  0  0  0  0  0  0  0  0
   -8.3306    4.3085  -15.4265 C   0  0  0  0  0  0  0  0  0  0  0  0
   -8.9888    4.3504  -16.6428 C   0  0  0  0  0  0  0  0  0  0  0  0
  -10.3101    4.3094  -16.9686 N   0  0  0  0  0  0  0  0  0  0  0  0
  -10.4318    4.6026  -18.2852 C   0  0  0  0  0  0  0  0  0  0  0  0
   -9.2655    4.6348  -18.8744 N   0  0  0  0  0  0  0  0  0  0  0  0
   -8.3548    4.5738  -17.8520 C   0  0  0  0  0  0  0  0  0  0  0  0
  1  2  2  0
  2  3  1  0
  3  4  1  0
  4  5  1  0
  5  6  1  0
  6  7  1  0
  7  8  1  0
  2  9  1  0
  9 10  1  0
 10 11  2  0
 11 12  1  0
 12 13  1  0
 12 14  2  0
 14 15  1  0
 15 16  1  0
 16 17  1  0
 17 18  2  0
 18 19  1  0
  8  4  1  0
 19 10  1  0
 19 15  2  0
M  END
>  <energy_score>  (156) 
-8.861906

>  <alias>  (156) 
None

>  <HIPPO Pose ID>  (156) 
68727

>  <smiles>  (156) 
O=C(CC1CCCC1)Nc1cc(Cl)cc2[nH]cnc12

>  <inchikey>  (156) 
DVBRORYMWUIGKK-UHFFFAOYSA-N

>  <distance_score>  (156) 
1.434996

>  <ref_mols>  (156) 
Z0846a,Z1597a

>  <ref_pdb>  (156) 
Z0846a

>  <HIPPO Compound ID>  (156) 
136846

>  <name>  (156) 
P68727

>  <inspiration_score>  (156) 
None

$$$$
P68730
     RDKit          3D

 19 21  0  0  0  0  0  0  0  0999 V2000
   -5.9707    4.7786  -14.0834 C   0  0  0  0  0  0  0  0  0  0  0  0
   -6.6893    4.6760  -15.3889 C   0  0  0  0  0  0  0  0  0  0  0  0
   -6.0821    5.0560  -16.5993 C   0  0  0  0  0  0  0  0  0  0  0  0
   -6.7853    5.0593  -17.8119 C   0  0  0  0  0  0  0  0  0  0  0  0
   -6.2073    5.4460  -19.0144 N   0  0  0  0  0  0  0  0  0  0  0  0
   -4.7261    5.7826  -19.3626 C   0  0  0  0  0  0  0  0  0  0  0  0
   -3.7839    5.8598  -18.6728 O   0  0  0  0  0  0  0  0  0  0  0  0
   -4.6865    6.1247  -20.8475 C   0  0  0  0  0  0  0  0  0  0  0  0
   -4.9466    7.6108  -21.0533 C   0  0  0  0  0  0  0  0  0  0  0  0
   -5.0865    8.0180  -22.5198 C   0  0  0  0  0  0  0  0  0  0  0  0
   -4.8719    9.5269  -22.5056 C   0  0  0  0  0  0  0  0  0  0  0  0
   -4.0300    9.8207  -21.2659 C   0  0  0  0  0  0  0  0  0  0  0  0
   -3.7783    8.4779  -20.5969 C   0  0  0  0  0  0  0  0  0  0  0  0
   -8.1230    4.6825  -17.7450 C   0  0  0  0  0  0  0  0  0  0  0  0
   -9.1435    4.6591  -18.6602 N   0  0  0  0  0  0  0  0  0  0  0  0
  -10.2839    4.3411  -17.9862 C   0  0  0  0  0  0  0  0  0  0  0  0
  -10.0362    3.9642  -16.7615 N   0  0  0  0  0  0  0  0  0  0  0  0
   -8.7282    4.2651  -16.5651 C   0  0  0  0  0  0  0  0  0  0  0  0
   -8.0153    4.2482  -15.3709 C   0  0  0  0  0  0  0  0  0  0  0  0
  1  2  1  0
  2  3  2  0
  3  4  1  0
  4  5  1  0
  5  6  1  0
  6  7  2  0
  6  8  1  0
  8  9  1  0
  9 10  1  0
 10 11  1  0
 11 12  1  0
 12 13  1  0
  4 14  2  0
 14 15  1  0
 15 16  1  0
 16 17  2  0
 17 18  1  0
 18 19  2  0
 19  2  1  0
 13  9  1  0
 18 14  1  0
M  END
>  <energy_score>  (157) 
-23.416888

>  <alias>  (157) 
None

>  <HIPPO Pose ID>  (157) 
68730

>  <smiles>  (157) 
Cc1cc(NC(=O)CC2CCCC2)c2[nH]cnc2c1

>  <inchikey>  (157) 
PTSSCYGSZSTZQK-UHFFFAOYSA-N

>  <distance_score>  (157) 
1.557604

>  <ref_mols>  (157) 
Z0846a,Z1597a

>  <ref_pdb>  (157) 
Z0846a

>  <HIPPO Compound ID>  (157) 
136849

>  <name>  (157) 
P68730

>  <inspiration_score>  (157) 
None

$$$$
P68731
     RDKit          3D

 19 21  0  0  0  0  0  0  0  0999 V2000
  -10.8752    4.7948  -18.4176 C   0  0  0  0  0  0  0  0  0  0  0  0
   -9.6008    4.4352  -17.8010 C   0  0  0  0  0  0  0  0  0  0  0  0
   -9.4512    4.0695  -16.5541 N   0  0  0  0  0  0  0  0  0  0  0  0
   -8.1394    4.2962  -16.2907 C   0  0  0  0  0  0  0  0  0  0  0  0
   -7.5014    4.2576  -15.0541 C   0  0  0  0  0  0  0  0  0  0  0  0
   -6.1680    4.6500  -15.0021 C   0  0  0  0  0  0  0  0  0  0  0  0
   -5.4785    5.0122  -16.1640 C   0  0  0  0  0  0  0  0  0  0  0  0
   -6.0848    4.9825  -17.4249 C   0  0  0  0  0  0  0  0  0  0  0  0
   -5.3520    5.1988  -18.5873 N   0  0  0  0  0  0  0  0  0  0  0  0
   -3.8537    5.5824  -18.7822 C   0  0  0  0  0  0  0  0  0  0  0  0
   -3.0304    5.8495  -17.9938 O   0  0  0  0  0  0  0  0  0  0  0  0
   -3.5305    5.4573  -20.2638 C   0  0  0  0  0  0  0  0  0  0  0  0
   -3.7925    6.6424  -21.1816 C   0  0  0  0  0  0  0  0  0  0  0  0
   -5.2234    6.7960  -21.6833 C   0  0  0  0  0  0  0  0  0  0  0  0
   -5.1626    8.1262  -22.4069 C   0  0  0  0  0  0  0  0  0  0  0  0
   -4.2620    8.9896  -21.5268 C   0  0  0  0  0  0  0  0  0  0  0  0
   -3.4869    8.0302  -20.6221 C   0  0  0  0  0  0  0  0  0  0  0  0
   -7.4396    4.6512  -17.4438 C   0  0  0  0  0  0  0  0  0  0  0  0
   -8.3955    4.6184  -18.4269 N   0  0  0  0  0  0  0  0  0  0  0  0
  1  2  1  0
  2  3  2  0
  3  4  1  0
  4  5  2  0
  5  6  1  0
  6  7  2  0
  7  8  1  0
  8  9  1  0
  9 10  1  0
 10 11  2  0
 10 12  1  0
 12 13  1  0
 13 14  1  0
 14 15  1  0
 15 16  1  0
 16 17  1  0
  8 18  2  0
 18 19  1  0
 19  2  1  0
 18  4  1  0
 17 13  1  0
M  END
>  <energy_score>  (158) 
-10.497656

>  <alias>  (158) 
None

>  <HIPPO Pose ID>  (158) 
68731

>  <smiles>  (158) 
Cc1nc2cccc(NC(=O)CC3CCCC3)c2[nH]1

>  <inchikey>  (158) 
MCPVQNCJLVVYQW-UHFFFAOYSA-N

>  <distance_score>  (158) 
1.853252

>  <ref_mols>  (158) 
Z0846a,Z1597a

>  <ref_pdb>  (158) 
Z0846a

>  <HIPPO Compound ID>  (158) 
136852

>  <name>  (158) 
P68731

>  <inspiration_score>  (158) 
None

$$$$
P68732
     RDKit          3D

 19 21  0  0  0  0  0  0  0  0999 V2000
   -5.5530    9.8884  -23.4587 O   0  0  0  0  0  0  0  0  0  0  0  0
   -4.8967    9.0439  -22.8859 C   0  0  0  0  0  0  0  0  0  0  0  0
   -4.4313    7.6198  -23.2452 C   0  0  0  0  0  0  0  0  0  0  0  0
   -4.1714    7.4009  -21.7171 C   0  0  0  0  0  0  0  0  0  0  0  0
   -5.2853    6.5848  -21.0618 C   0  0  0  0  0  0  0  0  0  0  0  0
   -5.1336    6.2514  -19.5821 C   0  0  0  0  0  0  0  0  0  0  0  0
   -4.2031    6.5256  -18.9278 O   0  0  0  0  0  0  0  0  0  0  0  0
   -6.4593    5.5190  -19.1992 N   0  0  0  0  0  0  0  0  0  0  0  0
   -6.9251    5.0805  -17.9621 C   0  0  0  0  0  0  0  0  0  0  0  0
   -6.1954    5.1126  -16.7733 C   0  0  0  0  0  0  0  0  0  0  0  0
   -6.8183    4.7699  -15.5626 C   0  0  0  0  0  0  0  0  0  0  0  0
   -5.9629    4.9062  -14.0799 Cl  0  0  0  0  0  0  0  0  0  0  0  0
   -8.1587    4.3908  -15.4770 C   0  0  0  0  0  0  0  0  0  0  0  0
   -8.8569    4.4078  -16.6694 C   0  0  0  0  0  0  0  0  0  0  0  0
  -10.1881    4.2902  -16.9395 N   0  0  0  0  0  0  0  0  0  0  0  0
  -10.3730    4.5698  -18.2532 C   0  0  0  0  0  0  0  0  0  0  0  0
   -9.2323    4.6816  -18.8842 N   0  0  0  0  0  0  0  0  0  0  0  0
   -8.2795    4.6961  -17.8969 C   0  0  0  0  0  0  0  0  0  0  0  0
   -4.2362    8.9474  -21.4904 C   0  0  0  0  0  0  0  0  0  0  0  0
  1  2  2  0
  2  3  1  0
  3  4  1  0
  4  5  1  0
  5  6  1  0
  6  7  2  0
  6  8  1  0
  8  9  1  0
  9 10  2  0
 10 11  1  0
 11 12  1  0
 11 13  2  0
 13 14  1  0
 14 15  1  0
 15 16  1  0
 16 17  2  0
 17 18  1  0
  4 19  1  0
 19  2  1  0
 18  9  1  0
 18 14  2  0
M  END
>  <energy_score>  (159) 
-19.126317

>  <alias>  (159) 
None

>  <HIPPO Pose ID>  (159) 
68732

>  <smiles>  (159) 
O=C1CC(CC(=O)Nc2cc(Cl)cc3[nH]cnc23)C1

>  <inchikey>  (159) 
CWPBIZVPLCOYJK-UHFFFAOYSA-N

>  <distance_score>  (159) 
1.284938

>  <ref_mols>  (159) 
Z0846a,Z1597a

>  <ref_pdb>  (159) 
Z0846a

>  <HIPPO Compound ID>  (159) 
136853

>  <name>  (159) 
P68732

>  <inspiration_score>  (159) 
None

$$$$
P68736
     RDKit          3D

 19 21  0  0  0  0  0  0  0  0999 V2000
  -11.0391    4.5932  -18.1166 C   0  0  0  0  0  0  0  0  0  0  0  0
   -9.6546    4.3282  -17.7495 C   0  0  0  0  0  0  0  0  0  0  0  0
   -9.2185    4.0050  -16.5568 N   0  0  0  0  0  0  0  0  0  0  0  0
   -7.8945    4.3263  -16.5832 C   0  0  0  0  0  0  0  0  0  0  0  0
   -6.9791    4.3464  -15.5352 C   0  0  0  0  0  0  0  0  0  0  0  0
   -5.7028    4.8498  -15.8015 C   0  0  0  0  0  0  0  0  0  0  0  0
   -5.3458    5.3076  -17.0801 C   0  0  0  0  0  0  0  0  0  0  0  0
   -6.2467    5.2588  -18.1416 C   0  0  0  0  0  0  0  0  0  0  0  0
   -5.9884    5.7201  -19.4257 N   0  0  0  0  0  0  0  0  0  0  0  0
   -4.7258    6.4189  -20.0148 C   0  0  0  0  0  0  0  0  0  0  0  0
   -3.6866    6.6409  -19.5278 O   0  0  0  0  0  0  0  0  0  0  0  0
   -5.1185    6.7652  -21.4430 C   0  0  0  0  0  0  0  0  0  0  0  0
   -4.0961    7.5744  -22.2331 C   0  0  0  0  0  0  0  0  0  0  0  0
   -4.5706    7.8543  -23.6935 C   0  0  0  0  0  0  0  0  0  0  0  0
   -4.9495    9.2677  -23.2143 C   0  0  0  0  0  0  0  0  0  0  0  0
   -5.6751   10.1369  -23.6478 O   0  0  0  0  0  0  0  0  0  0  0  0
   -4.0869    9.1093  -21.9410 C   0  0  0  0  0  0  0  0  0  0  0  0
   -7.5069    4.7480  -17.8490 C   0  0  0  0  0  0  0  0  0  0  0  0
   -8.6324    4.5959  -18.6094 N   0  0  0  0  0  0  0  0  0  0  0  0
  1  2  1  0
  2  3  2  0
  3  4  1  0
  4  5  2  0
  5  6  1  0
  6  7  2  0
  7  8  1  0
  8  9  1  0
  9 10  1  0
 10 11  2  0
 10 12  1  0
 12 13  1  0
 13 14  1  0
 14 15  1  0
 15 16  2  0
 15 17  1  0
  8 18  2  0
 18 19  1  0
 19  2  1  0
 18  4  1  0
 17 13  1  0
M  END
>  <energy_score>  (160) 
-16.417975

>  <alias>  (160) 
None

>  <HIPPO Pose ID>  (160) 
68736

>  <smiles>  (160) 
Cc1nc2cccc(NC(=O)CC3CC(=O)C3)c2[nH]1

>  <inchikey>  (160) 
HHRSITZJRFRAAN-UHFFFAOYSA-N

>  <distance_score>  (160) 
1.623544

>  <ref_mols>  (160) 
Z0846a,Z1597a

>  <ref_pdb>  (160) 
Z0846a

>  <HIPPO Compound ID>  (160) 
136859

>  <name>  (160) 
P68736

>  <inspiration_score>  (160) 
None

$$$$
P68739
     RDKit          3D

 19 20  0  0  0  0  0  0  0  0999 V2000
   -5.7942    7.5642  -24.4865 C   0  0  0  0  0  0  0  0  0  0  0  0
   -5.3417    7.9912  -23.0997 C   0  0  0  0  0  0  0  0  0  0  0  0
   -4.7715    6.8152  -22.3092 C   0  0  0  0  0  0  0  0  0  0  0  0
   -4.3965    7.2112  -20.8864 C   0  0  0  0  0  0  0  0  0  0  0  0
   -3.8655    6.0483  -20.0836 C   0  0  0  0  0  0  0  0  0  0  0  0
   -3.0678    5.2108  -20.4811 O   0  0  0  0  0  0  0  0  0  0  0  0
   -4.3408    5.9817  -18.6392 C   0  0  0  0  0  0  0  0  0  0  0  0
   -3.6375    6.3503  -17.7854 O   0  0  0  0  0  0  0  0  0  0  0  0
   -5.7722    5.3996  -18.5777 N   0  0  0  0  0  0  0  0  0  0  0  0
   -6.5678    5.0746  -17.4861 C   0  0  0  0  0  0  0  0  0  0  0  0
   -6.0768    5.1161  -16.1746 C   0  0  0  0  0  0  0  0  0  0  0  0
   -6.8628    4.7425  -15.0732 C   0  0  0  0  0  0  0  0  0  0  0  0
   -6.3456    4.8501  -13.6756 C   0  0  0  0  0  0  0  0  0  0  0  0
   -8.1751    4.3147  -15.2600 C   0  0  0  0  0  0  0  0  0  0  0  0
   -8.6946    4.3166  -16.5512 C   0  0  0  0  0  0  0  0  0  0  0  0
   -9.9691    4.0507  -16.9390 N   0  0  0  0  0  0  0  0  0  0  0  0
  -10.0164    4.4403  -18.1826 C   0  0  0  0  0  0  0  0  0  0  0  0
   -8.7743    4.6817  -18.6909 N   0  0  0  0  0  0  0  0  0  0  0  0
   -7.9024    4.6984  -17.6315 C   0  0  0  0  0  0  0  0  0  0  0  0
  1  2  1  0
  2  3  1  0
  3  4  1  0
  4  5  1  0
  5  6  2  0
  5  7  1  0
  7  8  2  0
  7  9  1  0
  9 10  1  0
 10 11  2  0
 11 12  1  0
 12 13  1  0
 12 14  2  0
 14 15  1  0
 15 16  1  0
 16 17  2  0
 17 18  1  0
 18 19  1  0
 19 10  1  0
 19 15  2  0
M  END
>  <energy_score>  (161) 
-22.632164

>  <alias>  (161) 
None

>  <HIPPO Pose ID>  (161) 
68739

>  <smiles>  (161) 
CCCCC(=O)C(=O)Nc1cc(C)cc2nc[nH]c12

>  <inchikey>  (161) 
YXARDLOVXZKOMM-UHFFFAOYSA-N

>  <distance_score>  (161) 
1.376038

>  <ref_mols>  (161) 
Z0846a,Z1597a

>  <ref_pdb>  (161) 
Z0846a

>  <HIPPO Compound ID>  (161) 
136862

>  <name>  (161) 
P68739

>  <inspiration_score>  (161) 
None

$$$$
P68740
     RDKit          3D

 19 20  0  0  0  0  0  0  0  0999 V2000
   -5.7209    7.4656  -24.1835 C   0  0  0  0  0  0  0  0  0  0  0  0
   -5.1505    7.9204  -22.8485 C   0  0  0  0  0  0  0  0  0  0  0  0
   -4.4745    6.7713  -22.0973 C   0  0  0  0  0  0  0  0  0  0  0  0
   -3.8687    7.2198  -20.7703 C   0  0  0  0  0  0  0  0  0  0  0  0
   -3.2195    6.0908  -19.9880 C   0  0  0  0  0  0  0  0  0  0  0  0
   -2.3627    5.3291  -20.4144 O   0  0  0  0  0  0  0  0  0  0  0  0
   -3.7207    5.9455  -18.5462 C   0  0  0  0  0  0  0  0  0  0  0  0
   -3.1736    6.4620  -17.6596 O   0  0  0  0  0  0  0  0  0  0  0  0
   -5.0275    5.1410  -18.5766 N   0  0  0  0  0  0  0  0  0  0  0  0
   -5.9554    4.8901  -17.5759 C   0  0  0  0  0  0  0  0  0  0  0  0
   -5.8170    5.1734  -16.2223 C   0  0  0  0  0  0  0  0  0  0  0  0
   -6.9154    5.0232  -15.3570 C   0  0  0  0  0  0  0  0  0  0  0  0
   -8.1921    4.6661  -15.8210 C   0  0  0  0  0  0  0  0  0  0  0  0
   -8.2995    4.4326  -17.1904 C   0  0  0  0  0  0  0  0  0  0  0  0
   -7.2016    4.4534  -18.0377 C   0  0  0  0  0  0  0  0  0  0  0  0
   -7.5379    4.1244  -19.3180 N   0  0  0  0  0  0  0  0  0  0  0  0
   -8.8417    4.1194  -19.3062 C   0  0  0  0  0  0  0  0  0  0  0  0
   -9.3483    4.2688  -18.0560 N   0  0  0  0  0  0  0  0  0  0  0  0
  -10.7270    4.5556  -17.7917 C   0  0  0  0  0  0  0  0  0  0  0  0
  1  2  1  0
  2  3  1  0
  3  4  1  0
  4  5  1  0
  5  6  2  0
  5  7  1  0
  7  8  2  0
  7  9  1  0
  9 10  1  0
 10 11  2  0
 11 12  1  0
 12 13  2  0
 13 14  1  0
 14 15  2  0
 15 16  1  0
 16 17  2  0
 17 18  1  0
 18 19  1  0
 15 10  1  0
 18 14  1  0
M  END
>  <energy_score>  (162) 
-20.198322

>  <alias>  (162) 
None

>  <HIPPO Pose ID>  (162) 
68740

>  <smiles>  (162) 
CCCCC(=O)C(=O)Nc1cccc2c1ncn2C

>  <inchikey>  (162) 
GIBMFLFUHSCZIZ-UHFFFAOYSA-N

>  <distance_score>  (162) 
1.25298

>  <ref_mols>  (162) 
Z0846a,Z1597a

>  <ref_pdb>  (162) 
Z0846a

>  <HIPPO Compound ID>  (162) 
136863

>  <name>  (162) 
P68740

>  <inspiration_score>  (162) 
None

$$$$
P68741
     RDKit          3D

 19 20  0  0  0  0  0  0  0  0999 V2000
   -6.1915    7.8632  -24.3605 C   0  0  0  0  0  0  0  0  0  0  0  0
   -5.3875    8.0402  -23.2982 C   0  0  0  0  0  0  0  0  0  0  0  0
   -4.9776    9.4103  -22.8494 C   0  0  0  0  0  0  0  0  0  0  0  0
   -4.8076    6.8516  -22.5676 C   0  0  0  0  0  0  0  0  0  0  0  0
   -4.8613    6.9087  -21.0374 C   0  0  0  0  0  0  0  0  0  0  0  0
   -4.4064    5.5819  -20.4394 C   0  0  0  0  0  0  0  0  0  0  0  0
   -4.6334    5.5015  -18.9431 C   0  0  0  0  0  0  0  0  0  0  0  0
   -3.7849    5.6619  -18.1549 O   0  0  0  0  0  0  0  0  0  0  0  0
   -6.1372    5.1557  -18.7486 N   0  0  0  0  0  0  0  0  0  0  0  0
   -6.8498    4.8565  -17.5992 C   0  0  0  0  0  0  0  0  0  0  0  0
   -6.2913    4.8601  -16.3213 C   0  0  0  0  0  0  0  0  0  0  0  0
   -7.1044    4.6373  -15.2063 C   0  0  0  0  0  0  0  0  0  0  0  0
   -6.4377    4.7372  -13.6282 Cl  0  0  0  0  0  0  0  0  0  0  0  0
   -8.4751    4.4028  -15.3088 C   0  0  0  0  0  0  0  0  0  0  0  0
   -8.9961    4.4308  -16.5912 C   0  0  0  0  0  0  0  0  0  0  0  0
  -10.2792    4.4049  -17.0548 N   0  0  0  0  0  0  0  0  0  0  0  0
  -10.2432    4.6598  -18.3858 C   0  0  0  0  0  0  0  0  0  0  0  0
   -9.0183    4.6434  -18.8447 N   0  0  0  0  0  0  0  0  0  0  0  0
   -8.2268    4.6195  -17.7286 C   0  0  0  0  0  0  0  0  0  0  0  0
  1  2  2  0
  2  3  1  0
  2  4  1  0
  4  5  1  0
  5  6  1  0
  6  7  1  0
  7  8  2  0
  7  9  1  0
  9 10  1  0
 10 11  2  0
 11 12  1  0
 12 13  1  0
 12 14  2  0
 14 15  1  0
 15 16  1  0
 16 17  1  0
 17 18  2  0
 18 19  1  0
 19 10  1  0
 19 15  2  0
M  END
>  <energy_score>  (163) 
-20.374909

>  <alias>  (163) 
None

>  <HIPPO Pose ID>  (163) 
68741

>  <smiles>  (163) 
C=C(C)CCCC(=O)Nc1cc(Cl)cc2[nH]cnc12

>  <inchikey>  (163) 
URFOUHCTWRCWFW-UHFFFAOYSA-N

>  <distance_score>  (163) 
1.107798

>  <ref_mols>  (163) 
Z0846a,Z1597a

>  <ref_pdb>  (163) 
Z0846a

>  <HIPPO Compound ID>  (163) 
136865

>  <name>  (163) 
P68741

>  <inspiration_score>  (163) 
None

$$$$
P68742
     RDKit          3D

 19 20  0  0  0  0  0  0  0  0999 V2000
   -6.1932    7.7978  -24.3599 C   0  0  0  0  0  0  0  0  0  0  0  0
   -5.3939    8.0693  -23.3143 C   0  0  0  0  0  0  0  0  0  0  0  0
   -5.0667    9.4815  -22.9302 C   0  0  0  0  0  0  0  0  0  0  0  0
   -4.7265    6.9553  -22.5425 C   0  0  0  0  0  0  0  0  0  0  0  0
   -4.8045    7.0648  -21.0167 C   0  0  0  0  0  0  0  0  0  0  0  0
   -4.1703    5.8456  -20.3588 C   0  0  0  0  0  0  0  0  0  0  0  0
   -4.4879    5.7292  -18.8793 C   0  0  0  0  0  0  0  0  0  0  0  0
   -3.7006    5.9235  -18.0366 O   0  0  0  0  0  0  0  0  0  0  0  0
   -5.9598    5.2236  -18.7891 N   0  0  0  0  0  0  0  0  0  0  0  0
   -6.7533    4.9547  -17.6833 C   0  0  0  0  0  0  0  0  0  0  0  0
   -6.2529    4.9423  -16.3803 C   0  0  0  0  0  0  0  0  0  0  0  0
   -7.0828    4.6260  -15.3015 C   0  0  0  0  0  0  0  0  0  0  0  0
   -6.4248    4.7242  -13.5397 Br  0  0  0  0  0  0  0  0  0  0  0  0
   -8.4175    4.2794  -15.4714 C   0  0  0  0  0  0  0  0  0  0  0  0
   -8.9322    4.3323  -16.7602 C   0  0  0  0  0  0  0  0  0  0  0  0
  -10.2206    4.1665  -17.1629 N   0  0  0  0  0  0  0  0  0  0  0  0
  -10.2352    4.6030  -18.3925 C   0  0  0  0  0  0  0  0  0  0  0  0
   -8.9750    4.7411  -18.8896 N   0  0  0  0  0  0  0  0  0  0  0  0
   -8.1110    4.6766  -17.8278 C   0  0  0  0  0  0  0  0  0  0  0  0
  1  2  2  0
  2  3  1  0
  2  4  1  0
  4  5  1  0
  5  6  1  0
  6  7  1  0
  7  8  2  0
  7  9  1  0
  9 10  1  0
 10 11  2  0
 11 12  1  0
 12 13  1  0
 12 14  2  0
 14 15  1  0
 15 16  1  0
 16 17  2  0
 17 18  1  0
 18 19  1  0
 19 10  1  0
 19 15  2  0
M  END
>  <energy_score>  (164) 
-20.267617

>  <alias>  (164) 
None

>  <HIPPO Pose ID>  (164) 
68742

>  <smiles>  (164) 
C=C(C)CCCC(=O)Nc1cc(Br)cc2nc[nH]c12

>  <inchikey>  (164) 
WVWAKBDZOGSVLS-UHFFFAOYSA-N

>  <distance_score>  (164) 
1.014819

>  <ref_mols>  (164) 
Z0846a,Z1597a

>  <ref_pdb>  (164) 
Z0846a

>  <HIPPO Compound ID>  (164) 
136866

>  <name>  (164) 
P68742

>  <inspiration_score>  (164) 
None

$$$$
P68743
     RDKit          3D

 19 20  0  0  0  0  0  0  0  0999 V2000
   -5.8252    7.4939  -24.2340 C   0  0  0  0  0  0  0  0  0  0  0  0
   -5.4216    7.9133  -23.0228 C   0  0  0  0  0  0  0  0  0  0  0  0
   -5.0816    9.3543  -22.7758 C   0  0  0  0  0  0  0  0  0  0  0  0
   -5.3199    6.9640  -21.8472 C   0  0  0  0  0  0  0  0  0  0  0  0
   -3.9117    6.8284  -21.2683 C   0  0  0  0  0  0  0  0  0  0  0  0
   -3.7810    5.6468  -20.3150 C   0  0  0  0  0  0  0  0  0  0  0  0
   -4.2530    5.9119  -18.8914 C   0  0  0  0  0  0  0  0  0  0  0  0
   -3.5944    6.4884  -18.1133 O   0  0  0  0  0  0  0  0  0  0  0  0
   -5.6335    5.2004  -18.7192 N   0  0  0  0  0  0  0  0  0  0  0  0
   -6.4074    4.9818  -17.5714 C   0  0  0  0  0  0  0  0  0  0  0  0
   -5.9294    4.9025  -16.2449 C   0  0  0  0  0  0  0  0  0  0  0  0
   -4.4847    5.0728  -15.8616 C   0  0  0  0  0  0  0  0  0  0  0  0
   -6.8093    4.5781  -15.1881 C   0  0  0  0  0  0  0  0  0  0  0  0
   -8.1536    4.2841  -15.4014 C   0  0  0  0  0  0  0  0  0  0  0  0
   -8.6346    4.3626  -16.7020 C   0  0  0  0  0  0  0  0  0  0  0  0
   -9.9154    4.1943  -17.1430 N   0  0  0  0  0  0  0  0  0  0  0  0
   -9.8873    4.5889  -18.3878 C   0  0  0  0  0  0  0  0  0  0  0  0
   -8.6115    4.7692  -18.8291 N   0  0  0  0  0  0  0  0  0  0  0  0
   -7.7751    4.7054  -17.7414 C   0  0  0  0  0  0  0  0  0  0  0  0
  1  2  2  0
  2  3  1  0
  2  4  1  0
  4  5  1  0
  5  6  1  0
  6  7  1  0
  7  8  2  0
  7  9  1  0
  9 10  1  0
 10 11  2  0
 11 12  1  0
 11 13  1  0
 13 14  2  0
 14 15  1  0
 15 16  1  0
 16 17  2  0
 17 18  1  0
 18 19  1  0
 19 10  1  0
 19 15  2  0
M  END
>  <energy_score>  (165) 
-17.333111

>  <alias>  (165) 
None

>  <HIPPO Pose ID>  (165) 
68743

>  <smiles>  (165) 
C=C(C)CCCC(=O)Nc1c(C)ccc2nc[nH]c12

>  <inchikey>  (165) 
HPJMESAZUQETMD-UHFFFAOYSA-N

>  <distance_score>  (165) 
1.254615

>  <ref_mols>  (165) 
Z0846a,Z1597a

>  <ref_pdb>  (165) 
Z0846a

>  <HIPPO Compound ID>  (165) 
136867

>  <name>  (165) 
P68743

>  <inspiration_score>  (165) 
None

$$$$
P68744
     RDKit          3D

 19 20  0  0  0  0  0  0  0  0999 V2000
   -5.7722    7.5325  -24.2050 C   0  0  0  0  0  0  0  0  0  0  0  0
   -5.3811    7.9073  -22.9747 C   0  0  0  0  0  0  0  0  0  0  0  0
   -4.9834    9.3246  -22.6857 C   0  0  0  0  0  0  0  0  0  0  0  0
   -5.3610    6.9285  -21.8194 C   0  0  0  0  0  0  0  0  0  0  0  0
   -3.9913    6.7119  -21.1734 C   0  0  0  0  0  0  0  0  0  0  0  0
   -3.9285    5.4178  -20.3674 C   0  0  0  0  0  0  0  0  0  0  0  0
   -4.2737    5.5183  -18.8915 C   0  0  0  0  0  0  0  0  0  0  0  0
   -3.4569    5.7300  -18.0798 O   0  0  0  0  0  0  0  0  0  0  0  0
   -5.7920    5.1928  -18.7368 N   0  0  0  0  0  0  0  0  0  0  0  0
   -6.5574    4.9773  -17.5953 C   0  0  0  0  0  0  0  0  0  0  0  0
   -5.9848    4.9847  -16.3192 C   0  0  0  0  0  0  0  0  0  0  0  0
   -6.7476    4.6925  -15.1651 C   0  0  0  0  0  0  0  0  0  0  0  0
   -8.1068    4.4075  -15.2519 C   0  0  0  0  0  0  0  0  0  0  0  0
   -8.6480    4.4326  -16.5090 C   0  0  0  0  0  0  0  0  0  0  0  0
   -9.9815    4.3479  -16.8640 N   0  0  0  0  0  0  0  0  0  0  0  0
  -10.0967    4.6661  -18.2091 C   0  0  0  0  0  0  0  0  0  0  0  0
  -11.1465    4.8992  -18.7737 O   0  0  0  0  0  0  0  0  0  0  0  0
   -8.8015    4.7559  -18.7304 N   0  0  0  0  0  0  0  0  0  0  0  0
   -7.9045    4.6957  -17.6623 C   0  0  0  0  0  0  0  0  0  0  0  0
  1  2  2  0
  2  3  1  0
  2  4  1  0
  4  5  1  0
  5  6  1  0
  6  7  1  0
  7  8  2  0
  7  9  1  0
  9 10  1  0
 10 11  2  0
 11 12  1  0
 12 13  2  0
 13 14  1  0
 14 15  1  0
 15 16  1  0
 16 17  2  0
 16 18  1  0
 18 19  1  0
 19 10  1  0
 19 14  2  0
M  END
>  <energy_score>  (166) 
-20.395535

>  <alias>  (166) 
None

>  <HIPPO Pose ID>  (166) 
68744

>  <smiles>  (166) 
C=C(C)CCCC(=O)Nc1cccc2[nH]c(=O)[nH]c12

>  <inchikey>  (166) 
MSDFCAJAYHCTOQ-UHFFFAOYSA-N

>  <distance_score>  (166) 
0.912468

>  <ref_mols>  (166) 
Z0846a,Z1597a

>  <ref_pdb>  (166) 
Z0846a

>  <HIPPO Compound ID>  (166) 
136868

>  <name>  (166) 
P68744

>  <inspiration_score>  (166) 
None

$$$$
P68745
     RDKit          3D

 19 20  0  0  0  0  0  0  0  0999 V2000
   -6.2126    7.8083  -24.4381 C   0  0  0  0  0  0  0  0  0  0  0  0
   -5.4100    8.0649  -23.3915 C   0  0  0  0  0  0  0  0  0  0  0  0
   -5.0550    9.4707  -23.0071 C   0  0  0  0  0  0  0  0  0  0  0  0
   -4.7716    6.9374  -22.6150 C   0  0  0  0  0  0  0  0  0  0  0  0
   -4.8349    7.0718  -21.0923 C   0  0  0  0  0  0  0  0  0  0  0  0
   -4.2720    5.8287  -20.4191 C   0  0  0  0  0  0  0  0  0  0  0  0
   -4.5122    5.8300  -18.9220 C   0  0  0  0  0  0  0  0  0  0  0  0
   -3.6788    6.0736  -18.1381 O   0  0  0  0  0  0  0  0  0  0  0  0
   -5.9936    5.3898  -18.7174 N   0  0  0  0  0  0  0  0  0  0  0  0
   -6.6890    5.0821  -17.5580 C   0  0  0  0  0  0  0  0  0  0  0  0
   -6.0974    5.1236  -16.2904 C   0  0  0  0  0  0  0  0  0  0  0  0
   -6.8002    4.7493  -15.1337 C   0  0  0  0  0  0  0  0  0  0  0  0
   -6.1893    4.8694  -13.7761 C   0  0  0  0  0  0  0  0  0  0  0  0
   -8.1178    4.3038  -15.2239 C   0  0  0  0  0  0  0  0  0  0  0  0
   -8.7281    4.2942  -16.4746 C   0  0  0  0  0  0  0  0  0  0  0  0
  -10.0135    3.9829  -16.7779 N   0  0  0  0  0  0  0  0  0  0  0  0
  -10.1593    4.3560  -18.0199 C   0  0  0  0  0  0  0  0  0  0  0  0
   -8.9651    4.6531  -18.6057 N   0  0  0  0  0  0  0  0  0  0  0  0
   -8.0256    4.6941  -17.6060 C   0  0  0  0  0  0  0  0  0  0  0  0
  1  2  2  0
  2  3  1  0
  2  4  1  0
  4  5  1  0
  5  6  1  0
  6  7  1  0
  7  8  2  0
  7  9  1  0
  9 10  1  0
 10 11  2  0
 11 12  1  0
 12 13  1  0
 12 14  2  0
 14 15  1  0
 15 16  1  0
 16 17  2  0
 17 18  1  0
 18 19  1  0
 19 10  1  0
 19 15  2  0
M  END
>  <energy_score>  (167) 
-14.773045

>  <alias>  (167) 
None

>  <HIPPO Pose ID>  (167) 
68745

>  <smiles>  (167) 
C=C(C)CCCC(=O)Nc1cc(C)cc2nc[nH]c12

>  <inchikey>  (167) 
XQEUHIHLOIDCTK-UHFFFAOYSA-N

>  <distance_score>  (167) 
1.017093

>  <ref_mols>  (167) 
Z0846a,Z1597a

>  <ref_pdb>  (167) 
Z0846a

>  <HIPPO Compound ID>  (167) 
136869

>  <name>  (167) 
P68745

>  <inspiration_score>  (167) 
None

$$$$
P68746
     RDKit          3D

 19 20  0  0  0  0  0  0  0  0999 V2000
   -5.8097    7.3527  -24.0589 C   0  0  0  0  0  0  0  0  0  0  0  0
   -5.3525    7.8469  -22.8961 C   0  0  0  0  0  0  0  0  0  0  0  0
   -5.1605    9.3245  -22.7109 C   0  0  0  0  0  0  0  0  0  0  0  0
   -5.0285    6.9455  -21.7138 C   0  0  0  0  0  0  0  0  0  0  0  0
   -3.5580    7.0339  -21.2818 C   0  0  0  0  0  0  0  0  0  0  0  0
   -3.0631    5.9303  -20.3449 C   0  0  0  0  0  0  0  0  0  0  0  0
   -3.5413    6.0573  -18.9000 C   0  0  0  0  0  0  0  0  0  0  0  0
   -2.9480    6.6341  -18.0756 O   0  0  0  0  0  0  0  0  0  0  0  0
   -4.8706    5.2645  -18.8119 N   0  0  0  0  0  0  0  0  0  0  0  0
   -5.7564    5.1046  -17.7556 C   0  0  0  0  0  0  0  0  0  0  0  0
   -5.5244    5.4656  -16.4315 C   0  0  0  0  0  0  0  0  0  0  0  0
   -6.5349    5.3147  -15.4663 C   0  0  0  0  0  0  0  0  0  0  0  0
   -7.8179    4.8596  -15.7969 C   0  0  0  0  0  0  0  0  0  0  0  0
   -8.0247    4.5498  -17.1391 C   0  0  0  0  0  0  0  0  0  0  0  0
   -7.0172    4.6003  -18.0905 C   0  0  0  0  0  0  0  0  0  0  0  0
   -7.4566    4.1884  -19.3158 N   0  0  0  0  0  0  0  0  0  0  0  0
   -8.7509    4.0988  -19.1736 C   0  0  0  0  0  0  0  0  0  0  0  0
   -9.1283    4.2293  -17.8793 N   0  0  0  0  0  0  0  0  0  0  0  0
  -10.4793    4.2235  -17.4134 C   0  0  0  0  0  0  0  0  0  0  0  0
  1  2  2  0
  2  3  1  0
  2  4  1  0
  4  5  1  0
  5  6  1  0
  6  7  1  0
  7  8  2  0
  7  9  1  0
  9 10  1  0
 10 11  2  0
 11 12  1  0
 12 13  2  0
 13 14  1  0
 14 15  2  0
 15 16  1  0
 16 17  2  0
 17 18  1  0
 18 19  1  0
 15 10  1  0
 18 14  1  0
M  END
>  <energy_score>  (168) 
-26.47454

>  <alias>  (168) 
None

>  <HIPPO Pose ID>  (168) 
68746

>  <smiles>  (168) 
C=C(C)CCCC(=O)Nc1cccc2c1ncn2C

>  <inchikey>  (168) 
MYISPIXFUCBIOM-UHFFFAOYSA-N

>  <distance_score>  (168) 
1.310016

>  <ref_mols>  (168) 
Z0846a,Z1597a

>  <ref_pdb>  (168) 
Z0846a

>  <HIPPO Compound ID>  (168) 
136870

>  <name>  (168) 
P68746

>  <inspiration_score>  (168) 
None

$$$$
P68747
     RDKit          3D

 19 20  0  0  0  0  0  0  0  0999 V2000
   -5.8381    7.4944  -24.1878 C   0  0  0  0  0  0  0  0  0  0  0  0
   -5.4157    7.9081  -22.9809 C   0  0  0  0  0  0  0  0  0  0  0  0
   -5.0811    9.3496  -22.7300 C   0  0  0  0  0  0  0  0  0  0  0  0
   -5.2838    6.9497  -21.8135 C   0  0  0  0  0  0  0  0  0  0  0  0
   -3.8602    6.8278  -21.2655 C   0  0  0  0  0  0  0  0  0  0  0  0
   -3.6586    5.5956  -20.3916 C   0  0  0  0  0  0  0  0  0  0  0  0
   -3.9640    5.7773  -18.9139 C   0  0  0  0  0  0  0  0  0  0  0  0
   -3.1660    6.1748  -18.1554 O   0  0  0  0  0  0  0  0  0  0  0  0
   -5.4121    5.2506  -18.6733 N   0  0  0  0  0  0  0  0  0  0  0  0
   -6.1055    5.0273  -17.4902 C   0  0  0  0  0  0  0  0  0  0  0  0
   -5.4677    5.0693  -16.2462 C   0  0  0  0  0  0  0  0  0  0  0  0
   -6.1246    4.7002  -15.0670 C   0  0  0  0  0  0  0  0  0  0  0  0
   -7.4543    4.2896  -15.0849 C   0  0  0  0  0  0  0  0  0  0  0  0
   -8.1220    4.3129  -16.3061 C   0  0  0  0  0  0  0  0  0  0  0  0
   -9.4376    4.0730  -16.5397 N   0  0  0  0  0  0  0  0  0  0  0  0
   -9.6156    4.4237  -17.7874 C   0  0  0  0  0  0  0  0  0  0  0  0
  -10.9023    4.7724  -18.3827 C   0  0  0  0  0  0  0  0  0  0  0  0
   -8.4259    4.6103  -18.4398 N   0  0  0  0  0  0  0  0  0  0  0  0
   -7.4527    4.6697  -17.4759 C   0  0  0  0  0  0  0  0  0  0  0  0
  1  2  2  0
  2  3  1  0
  2  4  1  0
  4  5  1  0
  5  6  1  0
  6  7  1  0
  7  8  2  0
  7  9  1  0
  9 10  1  0
 10 11  2  0
 11 12  1  0
 12 13  2  0
 13 14  1  0
 14 15  1  0
 15 16  2  0
 16 17  1  0
 16 18  1  0
 18 19  1  0
 19 10  1  0
 19 14  2  0
M  END
>  <energy_score>  (169) 
-4.06151

>  <alias>  (169) 
None

>  <HIPPO Pose ID>  (169) 
68747

>  <smiles>  (169) 
C=C(C)CCCC(=O)Nc1cccc2nc(C)[nH]c12

>  <inchikey>  (169) 
ONZZOVWZBMATSH-UHFFFAOYSA-N

>  <distance_score>  (169) 
1.192765

>  <ref_mols>  (169) 
Z0846a,Z1597a

>  <ref_pdb>  (169) 
Z0846a

>  <HIPPO Compound ID>  (169) 
136872

>  <name>  (169) 
P68747

>  <inspiration_score>  (169) 
None

$$$$
P68748
     RDKit          3D

 19 20  0  0  0  0  0  0  0  0999 V2000
   -5.9473    7.9669  -24.5426 C   0  0  0  0  0  0  0  0  0  0  0  0
   -5.5017    7.9797  -23.0898 C   0  0  0  0  0  0  0  0  0  0  0  0
   -4.2526    7.1267  -22.8866 C   0  0  0  0  0  0  0  0  0  0  0  0
   -3.9971    6.7684  -21.4242 C   0  0  0  0  0  0  0  0  0  0  0  0
   -4.9744    5.7432  -20.9123 C   0  0  0  0  0  0  0  0  0  0  0  0
   -5.7709    5.1025  -21.5892 O   0  0  0  0  0  0  0  0  0  0  0  0
   -4.9987    5.5316  -19.4041 C   0  0  0  0  0  0  0  0  0  0  0  0
   -4.0701    5.7222  -18.7315 O   0  0  0  0  0  0  0  0  0  0  0  0
   -6.4329    5.1424  -19.0312 N   0  0  0  0  0  0  0  0  0  0  0  0
   -6.9873    4.8247  -17.8068 C   0  0  0  0  0  0  0  0  0  0  0  0
   -6.3095    4.8448  -16.5889 C   0  0  0  0  0  0  0  0  0  0  0  0
   -7.0163    4.6137  -15.4024 C   0  0  0  0  0  0  0  0  0  0  0  0
   -6.2189    4.7430  -13.8877 Cl  0  0  0  0  0  0  0  0  0  0  0  0
   -8.3862    4.3484  -15.3781 C   0  0  0  0  0  0  0  0  0  0  0  0
   -9.0202    4.3662  -16.6081 C   0  0  0  0  0  0  0  0  0  0  0  0
  -10.3330    4.3074  -16.9625 N   0  0  0  0  0  0  0  0  0  0  0  0
  -10.4299    4.5890  -18.2830 C   0  0  0  0  0  0  0  0  0  0  0  0
   -9.2528    4.6079  -18.8498 N   0  0  0  0  0  0  0  0  0  0  0  0
   -8.3646    4.5724  -17.8079 C   0  0  0  0  0  0  0  0  0  0  0  0
  1  2  1  0
  2  3  1  0
  3  4  1  0
  4  5  1  0
  5  6  2  0
  5  7  1  0
  7  8  2  0
  7  9  1  0
  9 10  1  0
 10 11  2  0
 11 12  1  0
 12 13  1  0
 12 14  2  0
 14 15  1  0
 15 16  1  0
 16 17  1  0
 17 18  2  0
 18 19  1  0
 19 10  1  0
 19 15  2  0
M  END
>  <energy_score>  (170) 
-2.806809

>  <alias>  (170) 
None

>  <HIPPO Pose ID>  (170) 
68748

>  <smiles>  (170) 
CCCCC(=O)C(=O)Nc1cc(Cl)cc2[nH]cnc12

>  <inchikey>  (170) 
ADVURXBOVPIBDM-UHFFFAOYSA-N

>  <distance_score>  (170) 
0.894873

>  <ref_mols>  (170) 
Z0846a,Z1597a

>  <ref_pdb>  (170) 
Z0846a

>  <HIPPO Compound ID>  (170) 
136873

>  <name>  (170) 
P68748

>  <inspiration_score>  (170) 
None

$$$$
P68749
     RDKit          3D

 19 20  0  0  0  0  0  0  0  0999 V2000
   -5.7992    7.7979  -24.6044 C   0  0  0  0  0  0  0  0  0  0  0  0
   -5.5502    8.0090  -23.1228 C   0  0  2  0  0  0  0  0  0  0  0  0
   -4.7119    9.0681  -22.9695 F   0  0  0  0  0  0  0  0  0  0  0  0
   -4.9387    6.7760  -22.4736 C   0  0  0  0  0  0  0  0  0  0  0  0
   -4.8148    6.8864  -20.9512 C   0  0  0  0  0  0  0  0  0  0  0  0
   -4.3008    5.5786  -20.3562 C   0  0  0  0  0  0  0  0  0  0  0  0
   -4.5524    5.4575  -18.8633 C   0  0  0  0  0  0  0  0  0  0  0  0
   -3.7185    5.6113  -18.0578 O   0  0  0  0  0  0  0  0  0  0  0  0
   -6.0402    5.0255  -18.7054 N   0  0  0  0  0  0  0  0  0  0  0  0
   -6.7955    4.7976  -17.5645 C   0  0  0  0  0  0  0  0  0  0  0  0
   -6.2663    4.8221  -16.2744 C   0  0  0  0  0  0  0  0  0  0  0  0
   -7.1076    4.6427  -15.1724 C   0  0  0  0  0  0  0  0  0  0  0  0
   -6.4703    4.7548  -13.5832 Cl  0  0  0  0  0  0  0  0  0  0  0  0
   -8.4808    4.4364  -15.2987 C   0  0  0  0  0  0  0  0  0  0  0  0
   -8.9750    4.4514  -16.5916 C   0  0  0  0  0  0  0  0  0  0  0  0
  -10.2503    4.4436  -17.0790 N   0  0  0  0  0  0  0  0  0  0  0  0
  -10.1796    4.6662  -18.4152 C   0  0  0  0  0  0  0  0  0  0  0  0
   -8.9459    4.6133  -18.8489 N   0  0  0  0  0  0  0  0  0  0  0  0
   -8.1772    4.5962  -17.7168 C   0  0  0  0  0  0  0  0  0  0  0  0
  2  1  1  6
  2  3  1  0
  2  4  1  0
  4  5  1  0
  5  6  1  0
  6  7  1  0
  7  8  2  0
  7  9  1  0
  9 10  1  0
 10 11  2  0
 11 12  1  0
 12 13  1  0
 12 14  2  0
 14 15  1  0
 15 16  1  0
 16 17  1  0
 17 18  2  0
 18 19  1  0
 19 10  1  0
 19 15  2  0
M  END
>  <energy_score>  (171) 
-4.127062

>  <alias>  (171) 
None

>  <HIPPO Pose ID>  (171) 
68749

>  <smiles>  (171) 
C[C@H](F)CCCC(=O)Nc1cc(Cl)cc2[nH]cnc12

>  <inchikey>  (171) 
CPVBOBFKSSPXSW-QMMMGPOBSA-N

>  <distance_score>  (171) 
0.92586

>  <ref_mols>  (171) 
Z0846a,Z1597a

>  <ref_pdb>  (171) 
Z0846a

>  <HIPPO Compound ID>  (171) 
136874

>  <name>  (171) 
P68749

>  <inspiration_score>  (171) 
None

$$$$
P68752
     RDKit          3D

 19 20  0  0  0  0  0  0  0  0999 V2000
   -4.5520    5.0418  -15.8462 C   0  0  0  0  0  0  0  0  0  0  0  0
   -5.9987    4.8806  -16.2241 C   0  0  0  0  0  0  0  0  0  0  0  0
   -6.8727    4.5504  -15.1652 C   0  0  0  0  0  0  0  0  0  0  0  0
   -8.2194    4.2652  -15.3727 C   0  0  0  0  0  0  0  0  0  0  0  0
   -8.7084    4.3507  -16.6698 C   0  0  0  0  0  0  0  0  0  0  0  0
   -9.9899    4.1830  -17.1071 N   0  0  0  0  0  0  0  0  0  0  0  0
   -9.9699    4.5871  -18.3488 C   0  0  0  0  0  0  0  0  0  0  0  0
   -8.6969    4.7729  -18.7954 N   0  0  0  0  0  0  0  0  0  0  0  0
   -7.8559    4.7022  -17.7107 C   0  0  0  0  0  0  0  0  0  0  0  0
   -6.4877    4.9771  -17.5448 C   0  0  0  0  0  0  0  0  0  0  0  0
   -5.7368    5.2215  -18.7003 N   0  0  0  0  0  0  0  0  0  0  0  0
   -4.3386    5.8919  -18.8770 C   0  0  0  0  0  0  0  0  0  0  0  0
   -3.6409    6.4090  -18.0922 O   0  0  0  0  0  0  0  0  0  0  0  0
   -3.9196    5.6740  -20.3218 C   0  0  0  0  0  0  0  0  0  0  0  0
   -3.9606    6.9267  -21.1881 C   0  0  0  0  0  0  0  0  0  0  0  0
   -5.1680    6.9526  -22.1309 C   0  0  0  0  0  0  0  0  0  0  0  0
   -4.9802    7.9509  -23.2711 C   0  0  1  0  0  0  0  0  0  0  0  0
   -5.9671    7.7330  -24.4016 C   0  0  0  0  0  0  0  0  0  0  0  0
   -5.1693    9.2077  -22.7796 F   0  0  0  0  0  0  0  0  0  0  0  0
  1  2  1  0
  2  3  2  0
  3  4  1  0
  4  5  2  0
  5  6  1  0
  6  7  2  0
  7  8  1  0
  8  9  1  0
  9 10  2  0
 10 11  1  0
 11 12  1  0
 12 13  2  0
 12 14  1  0
 14 15  1  0
 15 16  1  0
 16 17  1  0
 17 18  1  6
 17 19  1  0
 10  2  1  0
  9  5  1  0
M  END
>  <energy_score>  (172) 
-14.560861

>  <alias>  (172) 
None

>  <HIPPO Pose ID>  (172) 
68752

>  <smiles>  (172) 
Cc1ccc2nc[nH]c2c1NC(=O)CCC[C@@H](C)F

>  <inchikey>  (172) 
JVQSJWRHOJZIRO-SNVBAGLBSA-N

>  <distance_score>  (172) 
1.167148

>  <ref_mols>  (172) 
Z0846a,Z1597a

>  <ref_pdb>  (172) 
Z0846a

>  <HIPPO Compound ID>  (172) 
136876

>  <name>  (172) 
P68752

>  <inspiration_score>  (172) 
None

$$$$
P68753
     RDKit          3D

 19 20  0  0  0  0  0  0  0  0999 V2000
   -5.7932    7.9600  -24.6788 C   0  0  0  0  0  0  0  0  0  0  0  0
   -5.1586    8.1943  -23.3191 C   0  0  1  0  0  0  0  0  0  0  0  0
   -5.9887    8.9915  -22.5972 F   0  0  0  0  0  0  0  0  0  0  0  0
   -4.9385    6.8773  -22.5891 C   0  0  0  0  0  0  0  0  0  0  0  0
   -4.5995    7.0331  -21.1067 C   0  0  0  0  0  0  0  0  0  0  0  0
   -4.2368    5.6805  -20.5086 C   0  0  0  0  0  0  0  0  0  0  0  0
   -4.4401    5.6129  -19.0098 C   0  0  0  0  0  0  0  0  0  0  0  0
   -3.5727    5.7468  -18.2364 O   0  0  0  0  0  0  0  0  0  0  0  0
   -5.9445    5.2686  -18.7904 N   0  0  0  0  0  0  0  0  0  0  0  0
   -6.6326    4.9406  -17.6331 C   0  0  0  0  0  0  0  0  0  0  0  0
   -6.0091    4.8669  -16.3858 C   0  0  0  0  0  0  0  0  0  0  0  0
   -6.7408    4.5428  -15.2207 C   0  0  0  0  0  0  0  0  0  0  0  0
   -8.1109    4.2965  -15.2730 C   0  0  0  0  0  0  0  0  0  0  0  0
   -8.6933    4.3761  -16.5095 C   0  0  0  0  0  0  0  0  0  0  0  0
  -10.0344    4.3100  -16.8376 N   0  0  0  0  0  0  0  0  0  0  0  0
  -10.1816    4.6618  -18.1713 C   0  0  0  0  0  0  0  0  0  0  0  0
  -11.2412    4.8941  -18.7171 O   0  0  0  0  0  0  0  0  0  0  0  0
   -8.9006    4.7739  -18.7148 N   0  0  0  0  0  0  0  0  0  0  0  0
   -7.9819    4.6751  -17.6699 C   0  0  0  0  0  0  0  0  0  0  0  0
  2  1  1  6
  2  3  1  0
  2  4  1  0
  4  5  1  0
  5  6  1  0
  6  7  1  0
  7  8  2  0
  7  9  1  0
  9 10  1  0
 10 11  2  0
 11 12  1  0
 12 13  2  0
 13 14  1  0
 14 15  1  0
 15 16  1  0
 16 17  2  0
 16 18  1  0
 18 19  1  0
 19 10  1  0
 19 14  2  0
M  END
>  <energy_score>  (173) 
-7.817928

>  <alias>  (173) 
None

>  <HIPPO Pose ID>  (173) 
68753

>  <smiles>  (173) 
C[C@@H](F)CCCC(=O)Nc1cccc2[nH]c(=O)[nH]c12

>  <inchikey>  (173) 
NZMBYSYVYSYGGH-MRVPVSSYSA-N

>  <distance_score>  (173) 
1.001062

>  <ref_mols>  (173) 
Z0846a,Z1597a

>  <ref_pdb>  (173) 
Z0846a

>  <HIPPO Compound ID>  (173) 
136877

>  <name>  (173) 
P68753

>  <inspiration_score>  (173) 
None

$$$$
P68754
     RDKit          3D

 19 20  0  0  0  0  0  0  0  0999 V2000
   -6.1804    4.8580  -13.7848 C   0  0  0  0  0  0  0  0  0  0  0  0
   -6.7869    4.7480  -15.1454 C   0  0  0  0  0  0  0  0  0  0  0  0
   -6.0773    5.1230  -16.2982 C   0  0  0  0  0  0  0  0  0  0  0  0
   -6.6641    5.0922  -17.5685 C   0  0  0  0  0  0  0  0  0  0  0  0
   -5.9598    5.3960  -18.7249 N   0  0  0  0  0  0  0  0  0  0  0  0
   -4.4649    5.7955  -18.9245 C   0  0  0  0  0  0  0  0  0  0  0  0
   -3.6243    6.0033  -18.1375 O   0  0  0  0  0  0  0  0  0  0  0  0
   -4.2204    5.7904  -20.4221 C   0  0  0  0  0  0  0  0  0  0  0  0
   -4.6124    7.1035  -21.0854 C   0  0  0  0  0  0  0  0  0  0  0  0
   -4.9236    6.8842  -22.5649 C   0  0  0  0  0  0  0  0  0  0  0  0
   -5.1649    8.1725  -23.3397 C   0  0  1  0  0  0  0  0  0  0  0  0
   -5.7800    7.8839  -24.6976 C   0  0  0  0  0  0  0  0  0  0  0  0
   -6.0208    8.9731  -22.6516 F   0  0  0  0  0  0  0  0  0  0  0  0
   -8.0031    4.7107  -17.6220 C   0  0  0  0  0  0  0  0  0  0  0  0
   -8.9382    4.6716  -18.6259 N   0  0  0  0  0  0  0  0  0  0  0  0
  -10.1363    4.3777  -18.0461 C   0  0  0  0  0  0  0  0  0  0  0  0
   -9.9985    4.0045  -16.8034 N   0  0  0  0  0  0  0  0  0  0  0  0
   -8.7122    4.3090  -16.4948 C   0  0  0  0  0  0  0  0  0  0  0  0
   -8.1067    4.3104  -15.2419 C   0  0  0  0  0  0  0  0  0  0  0  0
  1  2  1  0
  2  3  2  0
  3  4  1  0
  4  5  1  0
  5  6  1  0
  6  7  2  0
  6  8  1  0
  8  9  1  0
  9 10  1  0
 10 11  1  0
 11 12  1  6
 11 13  1  0
  4 14  2  0
 14 15  1  0
 15 16  1  0
 16 17  2  0
 17 18  1  0
 18 19  2  0
 19  2  1  0
 18 14  1  0
M  END
>  <energy_score>  (174) 
-21.327069

>  <alias>  (174) 
None

>  <HIPPO Pose ID>  (174) 
68754

>  <smiles>  (174) 
Cc1cc(NC(=O)CCC[C@@H](C)F)c2[nH]cnc2c1

>  <inchikey>  (174) 
ONGRQTKFRISEGX-SNVBAGLBSA-N

>  <distance_score>  (174) 
1.118158

>  <ref_mols>  (174) 
Z0846a,Z1597a

>  <ref_pdb>  (174) 
Z0846a

>  <HIPPO Compound ID>  (174) 
136878

>  <name>  (174) 
P68754

>  <inspiration_score>  (174) 
None

$$$$
P68755
     RDKit          3D

 19 20  0  0  0  0  0  0  0  0999 V2000
   -5.7521    7.4729  -24.3268 C   0  0  0  0  0  0  0  0  0  0  0  0
   -5.3913    7.8835  -22.9115 C   0  0  2  0  0  0  0  0  0  0  0  0
   -4.6917    9.0492  -22.9731 F   0  0  0  0  0  0  0  0  0  0  0  0
   -4.5605    6.8248  -22.1912 C   0  0  0  0  0  0  0  0  0  0  0  0
   -4.1954    7.2244  -20.7583 C   0  0  0  0  0  0  0  0  0  0  0  0
   -3.3072    6.1876  -20.0479 C   0  0  0  0  0  0  0  0  0  0  0  0
   -3.7133    6.0229  -18.5803 C   0  0  0  0  0  0  0  0  0  0  0  0
   -3.1332    6.4917  -17.6815 O   0  0  0  0  0  0  0  0  0  0  0  0
   -5.0468    5.2294  -18.6125 N   0  0  0  0  0  0  0  0  0  0  0  0
   -5.9507    4.9442  -17.5987 C   0  0  0  0  0  0  0  0  0  0  0  0
   -5.7998    5.2157  -16.2447 C   0  0  0  0  0  0  0  0  0  0  0  0
   -6.8864    5.0410  -15.3683 C   0  0  0  0  0  0  0  0  0  0  0  0
   -8.1634    4.6681  -15.8205 C   0  0  0  0  0  0  0  0  0  0  0  0
   -8.2815    4.4388  -17.1898 C   0  0  0  0  0  0  0  0  0  0  0  0
   -7.1926    4.4818  -18.0479 C   0  0  0  0  0  0  0  0  0  0  0  0
   -7.5353    4.1416  -19.3239 N   0  0  0  0  0  0  0  0  0  0  0  0
   -8.8383    4.1194  -19.3014 C   0  0  0  0  0  0  0  0  0  0  0  0
   -9.3360    4.2659  -18.0474 N   0  0  0  0  0  0  0  0  0  0  0  0
  -10.7135    4.5515  -17.7757 C   0  0  0  0  0  0  0  0  0  0  0  0
  2  1  1  6
  2  3  1  0
  2  4  1  0
  4  5  1  0
  5  6  1  0
  6  7  1  0
  7  8  2  0
  7  9  1  0
  9 10  1  0
 10 11  2  0
 11 12  1  0
 12 13  2  0
 13 14  1  0
 14 15  2  0
 15 16  1  0
 16 17  2  0
 17 18  1  0
 18 19  1  0
 15 10  1  0
 18 14  1  0
M  END
>  <energy_score>  (175) 
-14.947633

>  <alias>  (175) 
None

>  <HIPPO Pose ID>  (175) 
68755

>  <smiles>  (175) 
C[C@H](F)CCCC(=O)Nc1cccc2c1ncn2C

>  <inchikey>  (175) 
VVOGLTZDMKCNDB-JTQLQIEISA-N

>  <distance_score>  (175) 
1.239872

>  <ref_mols>  (175) 
Z0846a,Z1597a

>  <ref_pdb>  (175) 
Z0846a

>  <HIPPO Compound ID>  (175) 
136879

>  <name>  (175) 
P68755

>  <inspiration_score>  (175) 
None

$$$$
P68757
     RDKit          3D

 19 20  0  0  0  0  0  0  0  0999 V2000
  -10.9369    4.7509  -18.3301 C   0  0  0  0  0  0  0  0  0  0  0  0
   -9.6536    4.3993  -17.7308 C   0  0  0  0  0  0  0  0  0  0  0  0
   -9.4714    4.0181  -16.4921 N   0  0  0  0  0  0  0  0  0  0  0  0
   -8.1508    4.2374  -16.2585 C   0  0  0  0  0  0  0  0  0  0  0  0
   -7.4643    4.1603  -15.0496 C   0  0  0  0  0  0  0  0  0  0  0  0
   -6.1239    4.5420  -15.0385 C   0  0  0  0  0  0  0  0  0  0  0  0
   -5.4784    4.9534  -16.2103 C   0  0  0  0  0  0  0  0  0  0  0  0
   -6.1442    4.9865  -17.4366 C   0  0  0  0  0  0  0  0  0  0  0  0
   -5.5155    5.3353  -18.6222 N   0  0  0  0  0  0  0  0  0  0  0  0
   -4.0604    5.8286  -18.8891 C   0  0  0  0  0  0  0  0  0  0  0  0
   -3.1991    6.0881  -18.1413 O   0  0  0  0  0  0  0  0  0  0  0  0
   -3.9057    5.8834  -20.3986 C   0  0  0  0  0  0  0  0  0  0  0  0
   -4.6192    7.0771  -21.0244 C   0  0  0  0  0  0  0  0  0  0  0  0
   -4.8473    6.8579  -22.5210 C   0  0  0  0  0  0  0  0  0  0  0  0
   -5.5532    8.0295  -23.1881 C   0  0  2  0  0  0  0  0  0  0  0  0
   -5.8605    7.7474  -24.6460 C   0  0  0  0  0  0  0  0  0  0  0  0
   -4.7623    9.1331  -23.1170 F   0  0  0  0  0  0  0  0  0  0  0  0
   -7.4913    4.6329  -17.4191 C   0  0  0  0  0  0  0  0  0  0  0  0
   -8.4678    4.6069  -18.3787 N   0  0  0  0  0  0  0  0  0  0  0  0
  1  2  1  0
  2  3  2  0
  3  4  1  0
  4  5  2  0
  5  6  1  0
  6  7  2  0
  7  8  1  0
  8  9  1  0
  9 10  1  0
 10 11  2  0
 10 12  1  0
 12 13  1  0
 13 14  1  0
 14 15  1  0
 15 16  1  6
 15 17  1  0
  8 18  2  0
 18 19  1  0
 19  2  1  0
 18  4  1  0
M  END
>  <energy_score>  (176) 
-19.952843

>  <alias>  (176) 
None

>  <HIPPO Pose ID>  (176) 
68757

>  <smiles>  (176) 
Cc1nc2cccc(NC(=O)CCC[C@H](C)F)c2[nH]1

>  <inchikey>  (176) 
AKDHFVIFQVGMFI-VIFPVBQESA-N

>  <distance_score>  (176) 
1.361135

>  <ref_mols>  (176) 
Z0846a,Z1597a

>  <ref_pdb>  (176) 
Z0846a

>  <HIPPO Compound ID>  (176) 
136881

>  <name>  (176) 
P68757

>  <inspiration_score>  (176) 
None

$$$$
P68760
     RDKit          3D

 19 21  0  0  0  0  0  0  0  0999 V2000
   -6.2051    5.1537  -13.6654 C   0  0  0  0  0  0  0  0  0  0  0  0
   -6.8197    4.9871  -15.0154 C   0  0  0  0  0  0  0  0  0  0  0  0
   -6.1116    5.3049  -16.1865 C   0  0  0  0  0  0  0  0  0  0  0  0
   -6.6748    5.1274  -17.4542 C   0  0  0  0  0  0  0  0  0  0  0  0
   -5.9646    5.3257  -18.6256 N   0  0  0  0  0  0  0  0  0  0  0  0
   -4.5603    5.9500  -18.8614 C   0  0  0  0  0  0  0  0  0  0  0  0
   -3.8227    6.4617  -18.1116 O   0  0  0  0  0  0  0  0  0  0  0  0
   -4.2448    5.6637  -20.3461 C   0  0  1  0  0  0  0  0  0  0  0  0
   -5.2988    4.9658  -21.0096 O   0  0  0  0  0  0  0  0  0  0  0  0
   -3.8347    6.9134  -21.1265 C   0  0  0  0  0  0  0  0  0  0  0  0
   -5.0027    7.6867  -21.6775 C   0  0  0  0  0  0  0  0  0  0  0  0
   -5.3619    7.5893  -23.1401 C   0  0  0  0  0  0  0  0  0  0  0  0
   -4.7647    8.8569  -22.6011 C   0  0  0  0  0  0  0  0  0  0  0  0
   -7.9901    4.6759  -17.4922 C   0  0  0  0  0  0  0  0  0  0  0  0
   -8.9052    4.5172  -18.5028 N   0  0  0  0  0  0  0  0  0  0  0  0
  -10.0957    4.2159  -17.9124 C   0  0  0  0  0  0  0  0  0  0  0  0
   -9.9593    3.9466  -16.6420 N   0  0  0  0  0  0  0  0  0  0  0  0
   -8.6935    4.3298  -16.3452 C   0  0  0  0  0  0  0  0  0  0  0  0
   -8.1029    4.4466  -15.0908 C   0  0  0  0  0  0  0  0  0  0  0  0
  1  2  1  0
  2  3  2  0
  3  4  1  0
  4  5  1  0
  5  6  1  0
  6  7  2  0
  6  8  1  0
  8  9  1  6
  8 10  1  0
 10 11  1  0
 11 12  1  0
 12 13  1  0
  4 14  2  0
 14 15  1  0
 15 16  1  0
 16 17  2  0
 17 18  1  0
 18 19  2  0
 19  2  1  0
 13 11  1  0
 18 14  1  0
M  END
>  <energy_score>  (177) 
-28.458757

>  <alias>  (177) 
None

>  <HIPPO Pose ID>  (177) 
68760

>  <smiles>  (177) 
Cc1cc(NC(=O)[C@@H](O)CC2CC2)c2[nH]cnc2c1

>  <inchikey>  (177) 
SXSKFMYCKPVJPC-LBPRGKRZSA-N

>  <distance_score>  (177) 
1.234215

>  <ref_mols>  (177) 
Z0846a,Z1597a

>  <ref_pdb>  (177) 
Z0846a

>  <HIPPO Compound ID>  (177) 
136882

>  <name>  (177) 
P68760

>  <inspiration_score>  (177) 
None

$$$$
P68764
     RDKit          3D

 19 20  0  0  0  0  0  0  0  0999 V2000
   -6.3144    8.1173  -24.2796 O   0  0  0  0  0  0  0  0  0  0  0  0
   -5.3603    7.5018  -23.8139 C   0  0  0  0  0  0  0  0  0  0  0  0
   -5.3111    7.0450  -22.3861 C   0  0  0  0  0  0  0  0  0  0  0  0
   -3.9701    7.3713  -21.7463 C   0  0  0  0  0  0  0  0  0  0  0  0
   -3.9334    6.9839  -20.2720 C   0  0  0  0  0  0  0  0  0  0  0  0
   -3.8765    5.4737  -20.0599 C   0  0  0  0  0  0  0  0  0  0  0  0
   -4.1871    5.1566  -18.6128 C   0  0  0  0  0  0  0  0  0  0  0  0
   -3.3632    5.1033  -17.7835 O   0  0  0  0  0  0  0  0  0  0  0  0
   -5.7394    5.0432  -18.5040 N   0  0  0  0  0  0  0  0  0  0  0  0
   -6.5459    4.7590  -17.4141 C   0  0  0  0  0  0  0  0  0  0  0  0
   -6.0157    4.6407  -16.1262 C   0  0  0  0  0  0  0  0  0  0  0  0
   -6.8441    4.3945  -15.0113 C   0  0  0  0  0  0  0  0  0  0  0  0
   -8.2208    4.2623  -15.1563 C   0  0  0  0  0  0  0  0  0  0  0  0
   -8.7110    4.3704  -16.4304 C   0  0  0  0  0  0  0  0  0  0  0  0
  -10.0285    4.3668  -16.8431 N   0  0  0  0  0  0  0  0  0  0  0  0
  -10.0747    4.6884  -18.1898 C   0  0  0  0  0  0  0  0  0  0  0  0
  -11.0922    4.9285  -18.8069 O   0  0  0  0  0  0  0  0  0  0  0  0
   -8.7549    4.7507  -18.6474 N   0  0  0  0  0  0  0  0  0  0  0  0
   -7.9084    4.6112  -17.5453 C   0  0  0  0  0  0  0  0  0  0  0  0
  1  2  2  0
  2  3  1  0
  3  4  1  0
  4  5  1  0
  5  6  1  0
  6  7  1  0
  7  8  2  0
  7  9  1  0
  9 10  1  0
 10 11  2  0
 11 12  1  0
 12 13  2  0
 13 14  1  0
 14 15  1  0
 15 16  1  0
 16 17  2  0
 16 18  1  0
 18 19  1  0
 19 10  1  0
 19 14  2  0
M  END
>  <energy_score>  (178) 
-7.385788

>  <alias>  (178) 
None

>  <HIPPO Pose ID>  (178) 
68764

>  <smiles>  (178) 
O=CCCCCC(=O)Nc1cccc2[nH]c(=O)[nH]c12

>  <inchikey>  (178) 
KVMMPSNETNDGBS-UHFFFAOYSA-N

>  <distance_score>  (178) 
1.185749

>  <ref_mols>  (178) 
Z0846a,Z1597a

>  <ref_pdb>  (178) 
Z0846a

>  <HIPPO Compound ID>  (178) 
136886

>  <name>  (178) 
P68764

>  <inspiration_score>  (178) 
None

$$$$
P68766
     RDKit          3D

 19 20  0  0  0  0  0  0  0  0999 V2000
  -10.9660    4.7069  -18.2652 C   0  0  0  0  0  0  0  0  0  0  0  0
   -9.6454    4.3684  -17.7463 C   0  0  0  0  0  0  0  0  0  0  0  0
   -9.3831    3.9945  -16.5191 N   0  0  0  0  0  0  0  0  0  0  0  0
   -8.0562    4.2515  -16.3641 C   0  0  0  0  0  0  0  0  0  0  0  0
   -7.2985    4.2151  -15.1966 C   0  0  0  0  0  0  0  0  0  0  0  0
   -5.9745    4.6487  -15.2699 C   0  0  0  0  0  0  0  0  0  0  0  0
   -5.4130    5.0702  -16.4825 C   0  0  0  0  0  0  0  0  0  0  0  0
   -6.1480    5.0560  -17.6681 C   0  0  0  0  0  0  0  0  0  0  0  0
   -5.6210    5.4265  -18.8965 N   0  0  0  0  0  0  0  0  0  0  0  0
   -4.2430    6.0573  -19.2572 C   0  0  0  0  0  0  0  0  0  0  0  0
   -3.3749    6.4309  -18.5649 O   0  0  0  0  0  0  0  0  0  0  0  0
   -4.0697    6.0478  -20.7889 C   0  0  0  0  0  0  0  0  0  0  0  0
   -5.3278    6.1828  -21.6605 C   0  0  0  0  0  0  0  0  0  0  0  0
   -5.1094    6.6543  -23.1158 C   0  0  0  0  0  0  0  0  0  0  0  0
   -5.3138    8.1463  -23.2804 C   0  0  0  0  0  0  0  0  0  0  0  0
   -4.4350    8.8631  -22.3086 C   0  0  0  0  0  0  0  0  0  0  0  0
   -4.8009    9.1375  -21.1692 O   0  0  0  0  0  0  0  0  0  0  0  0
   -7.4760    4.6509  -17.5640 C   0  0  0  0  0  0  0  0  0  0  0  0
   -8.5056    4.5970  -18.4646 N   0  0  0  0  0  0  0  0  0  0  0  0
  1  2  1  0
  2  3  2  0
  3  4  1  0
  4  5  2  0
  5  6  1  0
  6  7  2  0
  7  8  1  0
  8  9  1  0
  9 10  1  0
 10 11  2  0
 10 12  1  0
 12 13  1  0
 13 14  1  0
 14 15  1  0
 15 16  1  0
 16 17  2  0
  8 18  2  0
 18 19  1  0
 19  2  1  0
 18  4  1  0
M  END
>  <energy_score>  (179) 
-11.91071

>  <alias>  (179) 
None

>  <HIPPO Pose ID>  (179) 
68766

>  <smiles>  (179) 
Cc1nc2cccc(NC(=O)CCCCC=O)c2[nH]1

>  <inchikey>  (179) 
YGSXVVHFFDPQIM-UHFFFAOYSA-N

>  <distance_score>  (179) 
1.820988

>  <ref_mols>  (179) 
Z0846a,Z1597a

>  <ref_pdb>  (179) 
Z0846a

>  <HIPPO Compound ID>  (179) 
136890

>  <name>  (179) 
P68766

>  <inspiration_score>  (179) 
None

$$$$
P68768
     RDKit          3D

 19 20  0  0  0  0  0  0  0  0999 V2000
   -5.9638    7.7775  -24.5921 C   0  0  0  0  0  0  0  0  0  0  0  0
   -5.5029    8.0176  -23.1777 C   0  0  0  0  0  0  0  0  0  0  0  0
   -5.6365    9.1180  -22.6438 O   0  0  0  0  0  0  0  0  0  0  0  0
   -4.8449    6.8399  -22.4886 C   0  0  0  0  0  0  0  0  0  0  0  0
   -4.6045    7.0464  -20.9961 C   0  0  0  0  0  0  0  0  0  0  0  0
   -3.9128    5.8316  -20.3879 C   0  0  0  0  0  0  0  0  0  0  0  0
   -4.0453    5.7507  -18.8777 C   0  0  0  0  0  0  0  0  0  0  0  0
   -3.1467    5.8945  -18.1428 O   0  0  0  0  0  0  0  0  0  0  0  0
   -5.5294    5.3660  -18.5951 N   0  0  0  0  0  0  0  0  0  0  0  0
   -6.1557    5.0038  -17.4121 C   0  0  0  0  0  0  0  0  0  0  0  0
   -5.4935    4.9653  -16.1846 C   0  0  0  0  0  0  0  0  0  0  0  0
   -6.1407    4.5391  -15.0191 C   0  0  0  0  0  0  0  0  0  0  0  0
   -7.4787    4.1478  -15.0385 C   0  0  0  0  0  0  0  0  0  0  0  0
   -8.1618    4.2310  -16.2490 C   0  0  0  0  0  0  0  0  0  0  0  0
   -9.4796    4.0031  -16.4913 N   0  0  0  0  0  0  0  0  0  0  0  0
   -9.6595    4.3985  -17.7262 C   0  0  0  0  0  0  0  0  0  0  0  0
  -10.9414    4.7506  -18.3278 C   0  0  0  0  0  0  0  0  0  0  0  0
   -8.4729    4.6229  -18.3665 N   0  0  0  0  0  0  0  0  0  0  0  0
   -7.5005    4.6424  -17.4026 C   0  0  0  0  0  0  0  0  0  0  0  0
  1  2  1  0
  2  3  2  0
  2  4  1  0
  4  5  1  0
  5  6  1  0
  6  7  1  0
  7  8  2  0
  7  9  1  0
  9 10  1  0
 10 11  2  0
 11 12  1  0
 12 13  2  0
 13 14  1  0
 14 15  1  0
 15 16  2  0
 16 17  1  0
 16 18  1  0
 18 19  1  0
 19 10  1  0
 19 14  2  0
M  END
>  <energy_score>  (180) 
-14.654298

>  <alias>  (180) 
None

>  <HIPPO Pose ID>  (180) 
68768

>  <smiles>  (180) 
CC(=O)CCCC(=O)Nc1cccc2nc(C)[nH]c12

>  <inchikey>  (180) 
WGUPCVMFDKAVKP-UHFFFAOYSA-N

>  <distance_score>  (180) 
1.27152

>  <ref_mols>  (180) 
Z0846a,Z1597a

>  <ref_pdb>  (180) 
Z0846a

>  <HIPPO Compound ID>  (180) 
136893

>  <name>  (180) 
P68768

>  <inspiration_score>  (180) 
None

$$$$
P68773
     RDKit          3D

 19 21  0  0  0  0  0  0  0  0999 V2000
  -11.0496    4.5929  -18.1255 C   0  0  0  0  0  0  0  0  0  0  0  0
   -9.6761    4.3012  -17.7386 C   0  0  0  0  0  0  0  0  0  0  0  0
   -9.2671    3.9104  -16.5564 N   0  0  0  0  0  0  0  0  0  0  0  0
   -7.9506    4.2631  -16.5234 C   0  0  0  0  0  0  0  0  0  0  0  0
   -7.0648    4.2513  -15.4495 C   0  0  0  0  0  0  0  0  0  0  0  0
   -5.7942    4.7995  -15.6517 C   0  0  0  0  0  0  0  0  0  0  0  0
   -5.4155    5.3392  -16.8911 C   0  0  0  0  0  0  0  0  0  0  0  0
   -6.2887    5.3281  -17.9751 C   0  0  0  0  0  0  0  0  0  0  0  0
   -6.0318    5.9014  -19.2120 N   0  0  0  0  0  0  0  0  0  0  0  0
   -4.7403    6.5805  -19.7648 C   0  0  0  0  0  0  0  0  0  0  0  0
   -3.7280    6.8261  -19.2349 O   0  0  0  0  0  0  0  0  0  0  0  0
   -5.1235    6.9437  -21.1889 C   0  0  0  0  0  0  0  0  0  0  0  0
   -4.0797    7.7108  -21.9791 C   0  0  0  0  0  0  0  0  0  0  0  0
   -4.6860    8.2758  -23.2663 C   0  0  0  0  0  0  0  0  0  0  0  0
   -5.0695    9.7361  -23.2307 C   0  0  0  0  0  0  0  0  0  0  0  0
   -4.1454    7.7198  -24.5609 C   0  0  0  0  0  0  0  0  0  0  0  0
   -5.5386    7.3738  -24.1430 C   0  0  0  0  0  0  0  0  0  0  0  0
   -7.5381    4.7614  -17.7521 C   0  0  0  0  0  0  0  0  0  0  0  0
   -8.6347    4.6214  -18.5556 N   0  0  0  0  0  0  0  0  0  0  0  0
  1  2  1  0
  2  3  2  0
  3  4  1  0
  4  5  2  0
  5  6  1  0
  6  7  2  0
  7  8  1  0
  8  9  1  0
  9 10  1  0
 10 11  2  0
 10 12  1  0
 12 13  1  0
 13 14  1  0
 14 15  1  0
 14 16  1  0
 16 17  1  0
  8 18  2  0
 18 19  1  0
 19  2  1  0
 18  4  1  0
 17 14  1  0
M  END
>  <energy_score>  (181) 
-13.797629

>  <alias>  (181) 
None

>  <HIPPO Pose ID>  (181) 
68773

>  <smiles>  (181) 
Cc1nc2cccc(NC(=O)CCC3(C)CC3)c2[nH]1

>  <inchikey>  (181) 
LZIQMOFKCCPRCC-UHFFFAOYSA-N

>  <distance_score>  (181) 
1.642192

>  <ref_mols>  (181) 
Z0846a,Z1597a

>  <ref_pdb>  (181) 
Z0846a

>  <HIPPO Compound ID>  (181) 
136899

>  <name>  (181) 
P68773

>  <inspiration_score>  (181) 
None

$$$$
P68782
     RDKit          3D

 20 21  0  0  0  0  0  0  0  0999 V2000
   -5.6204    7.1782  -24.3566 C   0  0  0  0  0  0  0  0  0  0  0  0
   -5.3800    8.1523  -23.2248 C   0  0  0  0  0  0  0  0  0  0  0  0
   -4.5784    7.5662  -22.0773 C   0  0  0  0  0  0  0  0  0  0  0  0
   -3.5085    8.0747  -21.7464 O   0  0  0  0  0  0  0  0  0  0  0  0
   -5.2030    6.4619  -21.2636 C   0  0  0  0  0  0  0  0  0  0  0  0
   -4.2113    5.7054  -20.3819 C   0  0  0  0  0  0  0  0  0  0  0  0
   -4.5356    5.8097  -18.9005 C   0  0  0  0  0  0  0  0  0  0  0  0
   -3.7858    6.2231  -18.1045 O   0  0  0  0  0  0  0  0  0  0  0  0
   -5.9655    5.2142  -18.7271 N   0  0  0  0  0  0  0  0  0  0  0  0
   -6.6874    4.9336  -17.5827 C   0  0  0  0  0  0  0  0  0  0  0  0
   -6.1350    4.9982  -16.3035 C   0  0  0  0  0  0  0  0  0  0  0  0
   -6.9002    4.6677  -15.1828 C   0  0  0  0  0  0  0  0  0  0  0  0
   -6.1844    4.8552  -13.4529 Br  0  0  0  0  0  0  0  0  0  0  0  0
   -8.2186    4.2460  -15.2841 C   0  0  0  0  0  0  0  0  0  0  0  0
   -8.7898    4.2503  -16.5485 C   0  0  0  0  0  0  0  0  0  0  0  0
  -10.0916    4.0508  -16.8719 N   0  0  0  0  0  0  0  0  0  0  0  0
  -10.1611    4.4601  -18.0992 C   0  0  0  0  0  0  0  0  0  0  0  0
  -11.2958    4.8349  -18.6291 O   0  0  0  0  0  0  0  0  0  0  0  0
   -8.9493    4.6094  -18.6916 N   0  0  0  0  0  0  0  0  0  0  0  0
   -8.0335    4.5927  -17.6668 C   0  0  0  0  0  0  0  0  0  0  0  0
  1  2  1  0
  2  3  1  0
  3  4  2  0
  3  5  1  0
  5  6  1  0
  6  7  1  0
  7  8  2  0
  7  9  1  0
  9 10  1  0
 10 11  2  0
 11 12  1  0
 12 13  1  0
 12 14  2  0
 14 15  1  0
 15 16  1  0
 16 17  2  0
 17 18  1  0
 17 19  1  0
 19 20  1  0
 20 10  1  0
 20 15  2  0
M  END
>  <energy_score>  (182) 
-35.259011

>  <alias>  (182) 
None

>  <HIPPO Pose ID>  (182) 
68782

>  <smiles>  (182) 
CCC(=O)CCC(=O)Nc1cc(Br)cc2nc(O)[nH]c12

>  <inchikey>  (182) 
NMVVAHMFYGNTSL-UHFFFAOYSA-N

>  <distance_score>  (182) 
1.119845

>  <ref_mols>  (182) 
Z0846a,Z1597a

>  <ref_pdb>  (182) 
Z0846a

>  <HIPPO Compound ID>  (182) 
136909

>  <name>  (182) 
P68782

>  <inspiration_score>  (182) 
None

$$$$
P68783
     RDKit          3D

 20 22  0  0  0  0  0  0  0  0999 V2000
   -3.6936    5.8473  -18.6972 O   0  0  0  0  0  0  0  0  0  0  0  0
   -4.6250    5.7879  -19.4051 C   0  0  0  0  0  0  0  0  0  0  0  0
   -4.5595    6.1317  -20.9041 C   0  0  0  0  0  0  0  0  0  0  0  0
   -4.6284    7.5961  -21.2034 C   0  0  0  0  0  0  0  0  0  0  0  0
   -4.4770    8.6223  -20.3586 C   0  0  0  0  0  0  0  0  0  0  0  0
   -4.4774    9.9328  -21.0637 C   0  0  0  0  0  0  0  0  0  0  0  0
   -4.9962    9.5788  -22.4526 C   0  0  0  0  0  0  0  0  0  0  0  0
   -4.7884    8.0751  -22.6172 C   0  0  0  0  0  0  0  0  0  0  0  0
   -6.1131    5.4375  -19.0906 N   0  0  0  0  0  0  0  0  0  0  0  0
   -6.7097    5.0150  -17.9093 C   0  0  0  0  0  0  0  0  0  0  0  0
   -6.0418    4.9704  -16.6822 C   0  0  0  0  0  0  0  0  0  0  0  0
   -6.7138    4.5887  -15.5134 C   0  0  0  0  0  0  0  0  0  0  0  0
   -5.8656    4.7031  -13.8360 Br  0  0  0  0  0  0  0  0  0  0  0  0
   -8.0415    4.1836  -15.5169 C   0  0  0  0  0  0  0  0  0  0  0  0
   -8.7162    4.2560  -16.7256 C   0  0  0  0  0  0  0  0  0  0  0  0
  -10.0420    4.0619  -16.9473 N   0  0  0  0  0  0  0  0  0  0  0  0
  -10.2078    4.5063  -18.1529 C   0  0  0  0  0  0  0  0  0  0  0  0
  -11.3827    4.8581  -18.5991 O   0  0  0  0  0  0  0  0  0  0  0  0
   -9.0505    4.7102  -18.8256 N   0  0  0  0  0  0  0  0  0  0  0  0
   -8.0566    4.6689  -17.8821 C   0  0  0  0  0  0  0  0  0  0  0  0
  1  2  2  0
  2  3  1  0
  3  4  1  0
  4  5  2  0
  5  6  1  0
  6  7  1  0
  7  8  1  0
  2  9  1  0
  9 10  1  0
 10 11  2  0
 11 12  1  0
 12 13  1  0
 12 14  2  0
 14 15  1  0
 15 16  1  0
 16 17  2  0
 17 18  1  0
 17 19  1  0
 19 20  1  0
  8  4  1  0
 20 10  1  0
 20 15  2  0
M  END
>  <energy_score>  (183) 
-46.03357

>  <alias>  (183) 
None

>  <HIPPO Pose ID>  (183) 
68783

>  <smiles>  (183) 
O=C(CC1=CCCC1)Nc1cc(Br)cc2nc(O)[nH]c12

>  <inchikey>  (183) 
GHIKDBDFVQWZLT-UHFFFAOYSA-N

>  <distance_score>  (183) 
1.566506

>  <ref_mols>  (183) 
Z0846a,Z1597a

>  <ref_pdb>  (183) 
Z0846a

>  <HIPPO Compound ID>  (183) 
136911

>  <name>  (183) 
P68783

>  <inspiration_score>  (183) 
None

$$$$
P68785
     RDKit          3D

 20 21  0  0  0  0  0  0  0  0999 V2000
   -3.8945    6.7377  -17.7510 O   0  0  0  0  0  0  0  0  0  0  0  0
   -4.6424    6.4338  -18.5988 C   0  0  0  0  0  0  0  0  0  0  0  0
   -4.4239    6.8329  -20.0594 C   0  0  0  0  0  0  0  0  0  0  0  0
   -5.4272    7.9055  -20.4969 C   0  0  0  0  0  0  0  0  0  0  0  0
   -5.1418    8.6743  -21.8032 C   0  0  0  0  0  0  0  0  0  0  0  0
   -5.4674    7.9904  -23.1193 C   0  0  0  0  0  0  0  0  0  0  0  0
   -4.8173    6.6410  -23.2204 C   0  0  0  0  0  0  0  0  0  0  0  0
   -3.5597    6.7454  -22.7146 F   0  0  0  0  0  0  0  0  0  0  0  0
   -6.0169    5.7007  -18.5185 N   0  0  0  0  0  0  0  0  0  0  0  0
   -6.6755    5.1329  -17.4326 C   0  0  0  0  0  0  0  0  0  0  0  0
   -6.1275    5.0832  -16.1516 C   0  0  0  0  0  0  0  0  0  0  0  0
   -6.9111    4.6683  -15.0699 C   0  0  0  0  0  0  0  0  0  0  0  0
   -6.2714    4.7339  -13.4797 Cl  0  0  0  0  0  0  0  0  0  0  0  0
   -8.2436    4.2834  -15.2037 C   0  0  0  0  0  0  0  0  0  0  0  0
   -8.7648    4.3635  -16.4818 C   0  0  0  0  0  0  0  0  0  0  0  0
  -10.0468    4.2563  -16.9461 N   0  0  0  0  0  0  0  0  0  0  0  0
  -10.0211    4.6768  -18.2303 C   0  0  0  0  0  0  0  0  0  0  0  0
  -11.0920    5.0964  -18.8519 O   0  0  0  0  0  0  0  0  0  0  0  0
   -8.8216    4.8582  -18.6954 N   0  0  0  0  0  0  0  0  0  0  0  0
   -8.0186    4.7456  -17.5935 C   0  0  0  0  0  0  0  0  0  0  0  0
  1  2  2  0
  2  3  1  0
  3  4  1  0
  4  5  1  0
  5  6  1  0
  6  7  1  0
  7  8  1  0
  2  9  1  0
  9 10  1  0
 10 11  2  0
 11 12  1  0
 12 13  1  0
 12 14  2  0
 14 15  1  0
 15 16  1  0
 16 17  1  0
 17 18  1  0
 17 19  2  0
 19 20  1  0
 20 10  1  0
 20 15  2  0
M  END
>  <energy_score>  (184) 
-30.815168

>  <alias>  (184) 
None

>  <HIPPO Pose ID>  (184) 
68785

>  <smiles>  (184) 
O=C(CCCCCF)Nc1cc(Cl)cc2[nH]c(O)nc12

>  <inchikey>  (184) 
UXZXKHRFLAMEKA-UHFFFAOYSA-N

>  <distance_score>  (184) 
1.517689

>  <ref_mols>  (184) 
Z0846a,Z1597a

>  <ref_pdb>  (184) 
Z0846a

>  <HIPPO Compound ID>  (184) 
136914

>  <name>  (184) 
P68785

>  <inspiration_score>  (184) 
None

$$$$
P68787
     RDKit          3D

 20 22  0  0  0  0  0  0  0  0999 V2000
   -4.1315    6.6012  -18.4936 O   0  0  0  0  0  0  0  0  0  0  0  0
   -5.0361    6.3484  -19.1881 C   0  0  0  0  0  0  0  0  0  0  0  0
   -5.2365    6.8507  -20.6156 C   0  0  0  0  0  0  0  0  0  0  0  0
   -4.1654    7.8173  -21.1283 C   0  0  0  0  0  0  0  0  0  0  0  0
   -4.7722    8.9560  -21.9659 C   0  0  0  0  0  0  0  0  0  0  0  0
   -5.0985    8.3152  -23.3075 C   0  0  0  0  0  0  0  0  0  0  0  0
   -4.0961    7.1738  -23.4590 C   0  0  0  0  0  0  0  0  0  0  0  0
   -3.2765    7.1445  -22.1666 C   0  0  0  0  0  0  0  0  0  0  0  0
   -6.3388    5.5474  -18.8960 N   0  0  0  0  0  0  0  0  0  0  0  0
   -6.8136    5.0011  -17.7129 C   0  0  0  0  0  0  0  0  0  0  0  0
   -6.1401    4.9901  -16.4960 C   0  0  0  0  0  0  0  0  0  0  0  0
   -6.8300    4.6222  -15.3310 C   0  0  0  0  0  0  0  0  0  0  0  0
   -6.0541    4.7378  -13.8041 Cl  0  0  0  0  0  0  0  0  0  0  0  0
   -8.1783    4.2516  -15.3231 C   0  0  0  0  0  0  0  0  0  0  0  0
   -8.8155    4.3022  -16.5489 C   0  0  0  0  0  0  0  0  0  0  0  0
  -10.1338    4.2291  -16.9049 N   0  0  0  0  0  0  0  0  0  0  0  0
  -10.2008    4.6337  -18.1932 C   0  0  0  0  0  0  0  0  0  0  0  0
  -11.2829    5.1223  -18.7358 O   0  0  0  0  0  0  0  0  0  0  0  0
   -9.0445    4.7281  -18.7693 N   0  0  0  0  0  0  0  0  0  0  0  0
   -8.1642    4.6278  -17.7306 C   0  0  0  0  0  0  0  0  0  0  0  0
  1  2  2  0
  2  3  1  0
  3  4  1  0
  4  5  1  0
  5  6  1  0
  6  7  1  0
  7  8  1  0
  2  9  1  0
  9 10  1  0
 10 11  2  0
 11 12  1  0
 12 13  1  0
 12 14  2  0
 14 15  1  0
 15 16  1  0
 16 17  1  0
 17 18  1  0
 17 19  2  0
 19 20  1  0
  8  4  1  0
 20 10  1  0
 20 15  2  0
M  END
>  <energy_score>  (185) 
-15.571035

>  <alias>  (185) 
None

>  <HIPPO Pose ID>  (185) 
68787

>  <smiles>  (185) 
O=C(CC1CCCC1)Nc1cc(Cl)cc2[nH]c(O)nc12

>  <inchikey>  (185) 
PLTALZOHCSOPNU-UHFFFAOYSA-N

>  <distance_score>  (185) 
1.228405

>  <ref_mols>  (185) 
Z0846a,Z1597a

>  <ref_pdb>  (185) 
Z0846a

>  <HIPPO Compound ID>  (185) 
136917

>  <name>  (185) 
P68787

>  <inspiration_score>  (185) 
None

$$$$
P68788
     RDKit          3D

 20 22  0  0  0  0  0  0  0  0999 V2000
   -8.9950    4.7510  -19.1950 C   0  0  0  0  0  0  0  0  0  0  0  0
   -8.7884    4.3687  -17.8621 N   0  0  0  0  0  0  0  0  0  0  0  0
   -9.8371    3.9658  -17.0447 C   0  0  0  0  0  0  0  0  0  0  0  0
  -10.9719    3.7181  -17.4129 O   0  0  0  0  0  0  0  0  0  0  0  0
   -9.3211    3.8841  -15.7548 N   0  0  0  0  0  0  0  0  0  0  0  0
   -8.0036    4.3088  -15.7792 C   0  0  0  0  0  0  0  0  0  0  0  0
   -7.1620    4.4499  -14.7144 C   0  0  0  0  0  0  0  0  0  0  0  0
   -5.9096    4.9818  -14.9970 C   0  0  0  0  0  0  0  0  0  0  0  0
   -5.5342    5.3314  -16.3153 C   0  0  0  0  0  0  0  0  0  0  0  0
   -6.3969    5.1468  -17.3987 C   0  0  0  0  0  0  0  0  0  0  0  0
   -5.9820    5.4517  -18.7011 N   0  0  0  0  0  0  0  0  0  0  0  0
   -4.6744    6.1377  -19.2150 C   0  0  0  0  0  0  0  0  0  0  0  0
   -3.7863    6.6187  -18.6214 O   0  0  0  0  0  0  0  0  0  0  0  0
   -4.6920    6.0856  -20.7410 C   0  0  0  0  0  0  0  0  0  0  0  0
   -5.2375    7.3478  -21.3903 C   0  0  0  0  0  0  0  0  0  0  0  0
   -4.3872    8.6645  -21.4517 C   0  0  0  0  0  0  0  0  0  0  0  0
   -5.0538    8.8787  -22.8479 C   0  0  0  0  0  0  0  0  0  0  0  0
   -5.3331    9.8377  -23.5339 O   0  0  0  0  0  0  0  0  0  0  0  0
   -5.3082    7.3518  -22.9562 C   0  0  0  0  0  0  0  0  0  0  0  0
   -7.6487    4.6287  -17.0952 C   0  0  0  0  0  0  0  0  0  0  0  0
  1  2  1  0
  2  3  1  0
  3  4  2  0
  3  5  1  0
  5  6  1  0
  6  7  2  0
  7  8  1  0
  8  9  2  0
  9 10  1  0
 10 11  1  0
 11 12  1  0
 12 13  2  0
 12 14  1  0
 14 15  1  0
 15 16  1  0
 16 17  1  0
 17 18  2  0
 17 19  1  0
 10 20  2  0
 20  2  1  0
 20  6  1  0
 19 15  1  0
M  END
>  <energy_score>  (186) 
-31.081743

>  <alias>  (186) 
None

>  <HIPPO Pose ID>  (186) 
68788

>  <smiles>  (186) 
Cn1c(=O)[nH]c2cccc(NC(=O)CC3CC(=O)C3)c21

>  <inchikey>  (186) 
YOYBYWQMZVFORQ-UHFFFAOYSA-N

>  <distance_score>  (186) 
1.409507

>  <ref_mols>  (186) 
Z0846a,Z1597a

>  <ref_pdb>  (186) 
Z0846a

>  <HIPPO Compound ID>  (186) 
136918

>  <name>  (186) 
P68788

>  <inspiration_score>  (186) 
None

$$$$
P68793
     RDKit          3D

 20 22  0  0  0  0  0  0  0  0999 V2000
   -5.2578    9.9592  -23.5130 C   0  0  0  0  0  0  0  0  0  0  0  0
   -4.6418    8.6230  -23.2596 C   0  0  2  0  0  0  0  0  0  0  0  0
   -5.4886    7.3895  -23.4147 C   0  0  0  0  0  0  0  0  0  0  0  0
   -5.0059    7.7950  -22.0438 C   0  0  1  0  0  0  0  0  0  0  0  0
   -3.9665    6.9567  -21.3448 C   0  0  0  0  0  0  0  0  0  0  0  0
   -4.6027    5.8171  -20.5498 C   0  0  0  0  0  0  0  0  0  0  0  0
   -4.7167    6.1041  -19.0527 C   0  0  0  0  0  0  0  0  0  0  0  0
   -3.9193    6.7178  -18.4555 O   0  0  0  0  0  0  0  0  0  0  0  0
   -5.9862    5.3466  -18.5575 N   0  0  0  0  0  0  0  0  0  0  0  0
   -6.4584    5.1212  -17.2669 C   0  0  0  0  0  0  0  0  0  0  0  0
   -5.6573    5.3736  -16.1521 C   0  0  0  0  0  0  0  0  0  0  0  0
   -6.0960    5.0616  -14.8454 C   0  0  0  0  0  0  0  0  0  0  0  0
   -7.3512    4.5095  -14.6139 C   0  0  0  0  0  0  0  0  0  0  0  0
   -8.1332    4.3185  -15.7166 C   0  0  0  0  0  0  0  0  0  0  0  0
   -9.4464    3.8906  -15.7534 N   0  0  0  0  0  0  0  0  0  0  0  0
   -9.9027    3.9532  -17.0675 C   0  0  0  0  0  0  0  0  0  0  0  0
  -11.0254    3.7158  -17.4770 O   0  0  0  0  0  0  0  0  0  0  0  0
   -8.8110    4.3238  -17.8433 N   0  0  0  0  0  0  0  0  0  0  0  0
   -8.9547    4.7267  -19.1817 C   0  0  0  0  0  0  0  0  0  0  0  0
   -7.7154    4.5990  -17.0182 C   0  0  0  0  0  0  0  0  0  0  0  0
  2  1  1  1
  2  3  1  0
  3  4  1  0
  4  5  1  6
  5  6  1  0
  6  7  1  0
  7  8  2  0
  7  9  1  0
  9 10  1  0
 10 11  2  0
 11 12  1  0
 12 13  2  0
 13 14  1  0
 14 15  1  0
 15 16  1  0
 16 17  2  0
 16 18  1  0
 18 19  1  0
 18 20  1  0
  4  2  1  0
 20 10  1  0
 20 14  2  0
M  END
>  <energy_score>  (187) 
-26.504681

>  <alias>  (187) 
None

>  <HIPPO Pose ID>  (187) 
68793

>  <smiles>  (187) 
C[C@@H]1C[C@H]1CCC(=O)Nc1cccc2[nH]c(=O)n(C)c12

>  <inchikey>  (187) 
CWACQCMKDLMKJX-NXEZZACHSA-N

>  <distance_score>  (187) 
1.374274

>  <ref_mols>  (187) 
Z0846a,Z1597a

>  <ref_pdb>  (187) 
Z0846a

>  <HIPPO Compound ID>  (187) 
136920

>  <name>  (187) 
P68793

>  <inspiration_score>  (187) 
None

$$$$
P68796
     RDKit          3D

 20 22  0  0  0  0  0  0  0  0999 V2000
   -4.9418    9.7780  -24.0122 C   0  0  0  0  0  0  0  0  0  0  0  0
   -5.4050    8.7405  -23.0471 C   0  0  1  0  0  0  0  0  0  0  0  0
   -5.3536    7.2848  -23.4278 C   0  0  0  0  0  0  0  0  0  0  0  0
   -4.4352    7.8047  -22.3527 C   0  0  2  0  0  0  0  0  0  0  0  0
   -4.6500    7.4514  -20.9083 C   0  0  0  0  0  0  0  0  0  0  0  0
   -4.2047    6.0383  -20.5704 C   0  0  0  0  0  0  0  0  0  0  0  0
   -4.3995    5.7520  -19.0874 C   0  0  0  0  0  0  0  0  0  0  0  0
   -3.5456    5.8673  -18.2963 O   0  0  0  0  0  0  0  0  0  0  0  0
   -5.8997    5.3687  -18.9054 N   0  0  0  0  0  0  0  0  0  0  0  0
   -6.5988    4.9737  -17.7705 C   0  0  0  0  0  0  0  0  0  0  0  0
   -6.0405    4.9246  -16.4926 C   0  0  0  0  0  0  0  0  0  0  0  0
   -6.8193    4.5581  -15.3865 C   0  0  0  0  0  0  0  0  0  0  0  0
   -6.1057    4.6547  -13.6462 Br  0  0  0  0  0  0  0  0  0  0  0  0
   -8.1521    4.1793  -15.5032 C   0  0  0  0  0  0  0  0  0  0  0  0
   -8.7226    4.2608  -16.7650 C   0  0  0  0  0  0  0  0  0  0  0  0
  -10.0283    4.0950  -17.1121 N   0  0  0  0  0  0  0  0  0  0  0  0
  -10.0875    4.6084  -18.3045 C   0  0  0  0  0  0  0  0  0  0  0  0
  -11.1903    5.0843  -18.8326 O   0  0  0  0  0  0  0  0  0  0  0  0
   -8.8598    4.7370  -18.8742 N   0  0  0  0  0  0  0  0  0  0  0  0
   -7.9523    4.6604  -17.8536 C   0  0  0  0  0  0  0  0  0  0  0  0
  2  1  1  6
  2  3  1  0
  3  4  1  0
  4  5  1  1
  5  6  1  0
  6  7  1  0
  7  8  2  0
  7  9  1  0
  9 10  1  0
 10 11  2  0
 11 12  1  0
 12 13  1  0
 12 14  2  0
 14 15  1  0
 15 16  1  0
 16 17  2  0
 17 18  1  0
 17 19  1  0
 19 20  1  0
  4  2  1  0
 20 10  1  0
 20 15  2  0
M  END
>  <energy_score>  (188) 
-23.63491

>  <alias>  (188) 
None

>  <HIPPO Pose ID>  (188) 
68796

>  <smiles>  (188) 
C[C@H]1C[C@@H]1CCC(=O)Nc1cc(Br)cc2nc(O)[nH]c12

>  <inchikey>  (188) 
DHKIMHBEEKEPGD-YUMQZZPRSA-N

>  <distance_score>  (188) 
1.120235

>  <ref_mols>  (188) 
Z0846a,Z1597a

>  <ref_pdb>  (188) 
Z0846a

>  <HIPPO Compound ID>  (188) 
136921

>  <name>  (188) 
P68796

>  <inspiration_score>  (188) 
None

$$$$
P68800
     RDKit          3D

 20 22  0  0  0  0  0  0  0  0999 V2000
   -5.0473    9.9072  -23.8787 C   0  0  0  0  0  0  0  0  0  0  0  0
   -5.2485    8.6969  -23.0290 C   0  0  1  0  0  0  0  0  0  0  0  0
   -5.2849    7.3402  -23.6825 C   0  0  0  0  0  0  0  0  0  0  0  0
   -4.1288    7.7030  -22.7789 C   0  0  2  0  0  0  0  0  0  0  0  0
   -3.9023    7.0722  -21.4235 C   0  0  0  0  0  0  0  0  0  0  0  0
   -5.1183    6.3982  -20.8183 C   0  0  0  0  0  0  0  0  0  0  0  0
   -4.9282    5.9392  -19.3782 C   0  0  0  0  0  0  0  0  0  0  0  0
   -3.9727    6.1085  -18.7274 O   0  0  0  0  0  0  0  0  0  0  0  0
   -6.3061    5.3205  -19.0040 N   0  0  0  0  0  0  0  0  0  0  0  0
   -6.7979    4.8907  -17.7802 C   0  0  0  0  0  0  0  0  0  0  0  0
   -6.1056    4.8776  -16.5740 C   0  0  0  0  0  0  0  0  0  0  0  0
   -6.7941    4.5754  -15.3876 C   0  0  0  0  0  0  0  0  0  0  0  0
   -5.9885    4.6907  -13.8755 Cl  0  0  0  0  0  0  0  0  0  0  0  0
   -8.1563    4.2609  -15.3484 C   0  0  0  0  0  0  0  0  0  0  0  0
   -8.8111    4.3155  -16.5641 C   0  0  0  0  0  0  0  0  0  0  0  0
  -10.1339    4.2586  -16.9031 N   0  0  0  0  0  0  0  0  0  0  0  0
  -10.2107    4.6497  -18.1942 C   0  0  0  0  0  0  0  0  0  0  0  0
  -11.2921    5.1443  -18.7313 O   0  0  0  0  0  0  0  0  0  0  0  0
   -9.0607    4.7231  -18.7849 N   0  0  0  0  0  0  0  0  0  0  0  0
   -8.1680    4.6000  -17.7606 C   0  0  0  0  0  0  0  0  0  0  0  0
  2  1  1  6
  2  3  1  0
  3  4  1  0
  4  5  1  1
  5  6  1  0
  6  7  1  0
  7  8  2  0
  7  9  1  0
  9 10  1  0
 10 11  2  0
 11 12  1  0
 12 13  1  0
 12 14  2  0
 14 15  1  0
 15 16  1  0
 16 17  1  0
 17 18  1  0
 17 19  2  0
 19 20  1  0
  4  2  1  0
 20 10  1  0
 20 15  2  0
M  END
>  <energy_score>  (189) 
-43.91737

>  <alias>  (189) 
None

>  <HIPPO Pose ID>  (189) 
68800

>  <smiles>  (189) 
C[C@H]1C[C@@H]1CCC(=O)Nc1cc(Cl)cc2[nH]c(O)nc12

>  <inchikey>  (189) 
ANCPLWQAMQINMK-YUMQZZPRSA-N

>  <distance_score>  (189) 
1.151324

>  <ref_mols>  (189) 
Z0846a,Z1597a

>  <ref_pdb>  (189) 
Z0846a

>  <HIPPO Compound ID>  (189) 
136922

>  <name>  (189) 
P68800

>  <inspiration_score>  (189) 
None

$$$$
P68803
     RDKit          3D

 20 22  0  0  0  0  0  0  0  0999 V2000
   -9.0896    4.7992  -19.1891 C   0  0  0  0  0  0  0  0  0  0  0  0
   -8.8488    4.4259  -17.8599 N   0  0  0  0  0  0  0  0  0  0  0  0
   -9.8679    3.9665  -17.0372 C   0  0  0  0  0  0  0  0  0  0  0  0
  -10.9986    3.6853  -17.3932 O   0  0  0  0  0  0  0  0  0  0  0  0
   -9.3238    3.8581  -15.7607 N   0  0  0  0  0  0  0  0  0  0  0  0
   -8.0160    4.3093  -15.7994 C   0  0  0  0  0  0  0  0  0  0  0  0
   -7.1530    4.4190  -14.7479 C   0  0  0  0  0  0  0  0  0  0  0  0
   -5.9169    4.9827  -15.0351 C   0  0  0  0  0  0  0  0  0  0  0  0
   -5.5842    5.4038  -16.3435 C   0  0  0  0  0  0  0  0  0  0  0  0
   -6.4718    5.2595  -17.4146 C   0  0  0  0  0  0  0  0  0  0  0  0
   -6.1099    5.6911  -18.6980 N   0  0  0  0  0  0  0  0  0  0  0  0
   -4.7780    6.3250  -19.2175 C   0  0  0  0  0  0  0  0  0  0  0  0
   -3.8147    6.6512  -18.6348 O   0  0  0  0  0  0  0  0  0  0  0  0
   -4.8819    6.4783  -20.7356 C   0  0  0  0  0  0  0  0  0  0  0  0
   -4.9285    7.9549  -21.1415 C   0  0  0  0  0  0  0  0  0  0  0  0
   -5.0826    8.2577  -22.6368 C   0  0  0  0  0  0  0  0  0  0  0  0
   -5.3348    9.7175  -22.9597 C   0  0  0  0  0  0  0  0  0  0  0  0
   -5.6811    7.2422  -23.5886 C   0  0  0  0  0  0  0  0  0  0  0  0
   -4.2040    7.4995  -23.6062 C   0  0  0  0  0  0  0  0  0  0  0  0
   -7.7000    4.6906  -17.1097 C   0  0  0  0  0  0  0  0  0  0  0  0
  1  2  1  0
  2  3  1  0
  3  4  2  0
  3  5  1  0
  5  6  1  0
  6  7  2  0
  7  8  1  0
  8  9  2  0
  9 10  1  0
 10 11  1  0
 11 12  1  0
 12 13  2  0
 12 14  1  0
 14 15  1  0
 15 16  1  0
 16 17  1  0
 16 18  1  0
 18 19  1  0
 10 20  2  0
 20  2  1  0
 20  6  1  0
 19 16  1  0
M  END
>  <energy_score>  (190) 
-23.924665

>  <alias>  (190) 
None

>  <HIPPO Pose ID>  (190) 
68803

>  <smiles>  (190) 
Cn1c(=O)[nH]c2cccc(NC(=O)CCC3(C)CC3)c21

>  <inchikey>  (190) 
NAKKZNXLTSEUQI-UHFFFAOYSA-N

>  <distance_score>  (190) 
1.638234

>  <ref_mols>  (190) 
Z0846a,Z1597a

>  <ref_pdb>  (190) 
Z0846a

>  <HIPPO Compound ID>  (190) 
136923

>  <name>  (190) 
P68803

>  <inspiration_score>  (190) 
None

$$$$
P68804
     RDKit          3D

 20 22  0  0  0  0  0  0  0  0999 V2000
   -5.3106    9.7153  -22.9020 C   0  0  0  0  0  0  0  0  0  0  0  0
   -5.0439    8.2584  -22.5770 C   0  0  0  0  0  0  0  0  0  0  0  0
   -4.9240    7.9490  -21.0797 C   0  0  0  0  0  0  0  0  0  0  0  0
   -4.4185    6.5551  -20.7028 C   0  0  0  0  0  0  0  0  0  0  0  0
   -4.5723    6.2698  -19.2080 C   0  0  0  0  0  0  0  0  0  0  0  0
   -3.7099    6.4473  -18.4371 O   0  0  0  0  0  0  0  0  0  0  0  0
   -6.0191    5.7239  -18.9982 N   0  0  0  0  0  0  0  0  0  0  0  0
   -6.6388    5.2169  -17.8557 C   0  0  0  0  0  0  0  0  0  0  0  0
   -6.0525    5.1926  -16.5895 C   0  0  0  0  0  0  0  0  0  0  0  0
   -6.7628    4.7073  -15.4795 C   0  0  0  0  0  0  0  0  0  0  0  0
   -6.0222    4.8229  -13.7505 Br  0  0  0  0  0  0  0  0  0  0  0  0
   -8.0551    4.2000  -15.5768 C   0  0  0  0  0  0  0  0  0  0  0  0
   -8.6638    4.2724  -16.8207 C   0  0  0  0  0  0  0  0  0  0  0  0
   -9.9684    4.0331  -17.1376 N   0  0  0  0  0  0  0  0  0  0  0  0
  -10.0898    4.5843  -18.3090 C   0  0  0  0  0  0  0  0  0  0  0  0
  -11.2217    5.0488  -18.7849 O   0  0  0  0  0  0  0  0  0  0  0  0
   -8.8877    4.7762  -18.9127 N   0  0  0  0  0  0  0  0  0  0  0  0
   -7.9534    4.7607  -17.9146 C   0  0  0  0  0  0  0  0  0  0  0  0
   -5.6836    7.2418  -23.4987 C   0  0  0  0  0  0  0  0  0  0  0  0
   -4.2052    7.4853  -23.5711 C   0  0  0  0  0  0  0  0  0  0  0  0
  1  2  1  0
  2  3  1  0
  3  4  1  0
  4  5  1  0
  5  6  2  0
  5  7  1  0
  7  8  1  0
  8  9  2  0
  9 10  1  0
 10 11  1  0
 10 12  2  0
 12 13  1  0
 13 14  1  0
 14 15  2  0
 15 16  1  0
 15 17  1  0
 17 18  1  0
  2 19  1  0
 19 20  1  0
 20  2  1  0
 18  8  1  0
 18 13  2  0
M  END
>  <energy_score>  (191) 
-26.935141

>  <alias>  (191) 
None

>  <HIPPO Pose ID>  (191) 
68804

>  <smiles>  (191) 
CC1(CCC(=O)Nc2cc(Br)cc3nc(O)[nH]c23)CC1

>  <inchikey>  (191) 
BCCISDJWJYQETL-UHFFFAOYSA-N

>  <distance_score>  (191) 
1.31651

>  <ref_mols>  (191) 
Z0846a,Z1597a

>  <ref_pdb>  (191) 
Z0846a

>  <HIPPO Compound ID>  (191) 
136924

>  <name>  (191) 
P68804

>  <inspiration_score>  (191) 
None

$$$$
P68805
     RDKit          3D

 20 22  0  0  0  0  0  0  0  0999 V2000
   -5.3086    9.6841  -22.8073 C   0  0  0  0  0  0  0  0  0  0  0  0
   -5.0816    8.2019  -22.5825 C   0  0  0  0  0  0  0  0  0  0  0  0
   -4.9807    7.7847  -21.1074 C   0  0  0  0  0  0  0  0  0  0  0  0
   -4.6989    6.3063  -20.8255 C   0  0  0  0  0  0  0  0  0  0  0  0
   -4.7393    5.9789  -19.3314 C   0  0  0  0  0  0  0  0  0  0  0  0
   -3.7911    6.0551  -18.6494 O   0  0  0  0  0  0  0  0  0  0  0  0
   -6.2009    5.5644  -18.9854 N   0  0  0  0  0  0  0  0  0  0  0  0
   -6.7491    5.0860  -17.7945 C   0  0  0  0  0  0  0  0  0  0  0  0
   -6.0768    5.0543  -16.5722 C   0  0  0  0  0  0  0  0  0  0  0  0
   -6.7594    4.6798  -15.4035 C   0  0  0  0  0  0  0  0  0  0  0  0
   -5.9725    4.7703  -13.8807 Cl  0  0  0  0  0  0  0  0  0  0  0  0
   -8.1041    4.3078  -15.3913 C   0  0  0  0  0  0  0  0  0  0  0  0
   -8.7458    4.3745  -16.6125 C   0  0  0  0  0  0  0  0  0  0  0  0
  -10.0673    4.2759  -16.9510 N   0  0  0  0  0  0  0  0  0  0  0  0
  -10.1520    4.6737  -18.2391 C   0  0  0  0  0  0  0  0  0  0  0  0
  -11.2524    5.1319  -18.7710 O   0  0  0  0  0  0  0  0  0  0  0  0
   -9.0019    4.8002  -18.8243 N   0  0  0  0  0  0  0  0  0  0  0  0
   -8.1058    4.7230  -17.7987 C   0  0  0  0  0  0  0  0  0  0  0  0
   -4.2237    7.4920  -23.6061 C   0  0  0  0  0  0  0  0  0  0  0  0
   -5.7076    7.2713  -23.5994 C   0  0  0  0  0  0  0  0  0  0  0  0
  1  2  1  0
  2  3  1  0
  3  4  1  0
  4  5  1  0
  5  6  2  0
  5  7  1  0
  7  8  1  0
  8  9  2  0
  9 10  1  0
 10 11  1  0
 10 12  2  0
 12 13  1  0
 13 14  1  0
 14 15  1  0
 15 16  1  0
 15 17  2  0
 17 18  1  0
  2 19  1  0
 19 20  1  0
 20  2  1  0
 18  8  1  0
 18 13  2  0
M  END
>  <energy_score>  (192) 
-24.057668

>  <alias>  (192) 
None

>  <HIPPO Pose ID>  (192) 
68805

>  <smiles>  (192) 
CC1(CCC(=O)Nc2cc(Cl)cc3[nH]c(O)nc23)CC1

>  <inchikey>  (192) 
PILPGHJNRQGPGR-UHFFFAOYSA-N

>  <distance_score>  (192) 
1.342803

>  <ref_mols>  (192) 
Z0846a,Z1597a

>  <ref_pdb>  (192) 
Z0846a

>  <HIPPO Compound ID>  (192) 
136925

>  <name>  (192) 
P68805

>  <inspiration_score>  (192) 
None

$$$$
P68806
     RDKit          3D

 20 22  0  0  0  0  0  0  0  0999 V2000
   -8.7222    4.0273  -19.3997 C   0  0  0  0  0  0  0  0  0  0  0  0
   -8.7872    4.5497  -18.0855 N   0  0  0  0  0  0  0  0  0  0  0  0
   -9.8550    4.1388  -17.2656 C   0  0  0  0  0  0  0  0  0  0  0  0
  -10.9378    3.7185  -17.6347 O   0  0  0  0  0  0  0  0  0  0  0  0
   -9.3992    4.1948  -15.9541 N   0  0  0  0  0  0  0  0  0  0  0  0
   -8.0888    4.6298  -15.9580 C   0  0  0  0  0  0  0  0  0  0  0  0
   -7.2707    4.7811  -14.8752 C   0  0  0  0  0  0  0  0  0  0  0  0
   -5.9907    5.2479  -15.1439 C   0  0  0  0  0  0  0  0  0  0  0  0
   -5.5792    5.5531  -16.4621 C   0  0  0  0  0  0  0  0  0  0  0  0
   -6.4298    5.3825  -17.5585 C   0  0  0  0  0  0  0  0  0  0  0  0
   -6.0212    5.7478  -18.8455 N   0  0  0  0  0  0  0  0  0  0  0  0
   -4.6234    6.2030  -19.3746 C   0  0  0  0  0  0  0  0  0  0  0  0
   -3.6261    6.4140  -18.7980 O   0  0  0  0  0  0  0  0  0  0  0  0
   -4.7074    6.2432  -20.8944 C   0  0  0  0  0  0  0  0  0  0  0  0
   -5.1008    7.5842  -21.4922 C   0  0  1  0  0  0  0  0  0  0  0  0
   -4.0366    8.6980  -21.6490 C   0  0  0  0  0  0  0  0  0  0  0  0
   -4.4480    8.8711  -23.1248 C   0  0  2  0  0  0  0  0  0  0  0  0
   -5.5565   10.2973  -23.4096 S   0  0  0  0  0  0  0  0  0  0  0  0
   -5.2228    7.5471  -23.0382 C   0  0  0  0  0  0  0  0  0  0  0  0
   -7.6899    4.8785  -17.2787 C   0  0  0  0  0  0  0  0  0  0  0  0
  1  2  1  0
  2  3  1  0
  3  4  2  0
  3  5  1  0
  5  6  1  0
  6  7  2  0
  7  8  1  0
  8  9  2  0
  9 10  1  0
 10 11  1  0
 11 12  1  0
 12 13  2  0
 12 14  1  0
 15 14  1  6
 15 16  1  0
 16 17  1  0
 17 18  1  1
 17 19  1  0
 10 20  2  0
 20  2  1  0
 20  6  1  0
 19 15  1  0
M  END
>  <energy_score>  (193) 
-30.062303

>  <alias>  (193) 
None

>  <HIPPO Pose ID>  (193) 
68806

>  <smiles>  (193) 
Cn1c(=O)[nH]c2cccc(NC(=O)C[C@H]3C[C@H](S)C3)c21

>  <inchikey>  (193) 
ZFTMFUPBKPCHBE-KYZUINATSA-N

>  <distance_score>  (193) 
1.352704

>  <ref_mols>  (193) 
Z0846a,Z1597a

>  <ref_pdb>  (193) 
Z0846a

>  <HIPPO Compound ID>  (193) 
136926

>  <name>  (193) 
P68806

>  <inspiration_score>  (193) 
None

$$$$
P68807
     RDKit          3D

 20 21  0  0  0  0  0  0  0  0999 V2000
   -5.8564    7.7289  -24.6058 C   0  0  0  0  0  0  0  0  0  0  0  0
   -5.5321    8.0411  -23.1439 C   0  0  0  0  0  0  0  0  0  0  0  0
   -4.6403    9.2744  -23.0528 C   0  0  0  0  0  0  0  0  0  0  0  0
   -4.9120    6.8068  -22.4733 C   0  0  0  0  0  0  0  0  0  0  0  0
   -4.7629    6.9105  -20.9520 C   0  0  0  0  0  0  0  0  0  0  0  0
   -4.2861    5.5863  -20.3599 C   0  0  0  0  0  0  0  0  0  0  0  0
   -4.4932    5.5068  -18.8569 C   0  0  0  0  0  0  0  0  0  0  0  0
   -3.6370    5.6752  -18.0785 O   0  0  0  0  0  0  0  0  0  0  0  0
   -5.9942    5.1558  -18.6444 N   0  0  0  0  0  0  0  0  0  0  0  0
   -6.6941    4.8600  -17.4847 C   0  0  0  0  0  0  0  0  0  0  0  0
   -6.1275    4.8471  -16.2123 C   0  0  0  0  0  0  0  0  0  0  0  0
   -6.9320    4.5970  -15.0948 C   0  0  0  0  0  0  0  0  0  0  0  0
   -6.2593    4.6941  -13.5199 Cl  0  0  0  0  0  0  0  0  0  0  0  0
   -8.2977    4.3304  -15.1870 C   0  0  0  0  0  0  0  0  0  0  0  0
   -8.8300    4.3771  -16.4621 C   0  0  0  0  0  0  0  0  0  0  0  0
  -10.1156    4.3127  -16.9175 N   0  0  0  0  0  0  0  0  0  0  0  0
  -10.0775    4.6676  -18.2197 C   0  0  0  0  0  0  0  0  0  0  0  0
  -11.1280    5.1185  -18.8519 O   0  0  0  0  0  0  0  0  0  0  0  0
   -8.8747    4.7392  -18.7036 N   0  0  0  0  0  0  0  0  0  0  0  0
   -8.0734    4.6292  -17.6007 C   0  0  0  0  0  0  0  0  0  0  0  0
  1  2  1  0
  2  3  1  0
  2  4  1  0
  4  5  1  0
  5  6  1  0
  6  7  1  0
  7  8  2  0
  7  9  1  0
  9 10  1  0
 10 11  2  0
 11 12  1  0
 12 13  1  0
 12 14  2  0
 14 15  1  0
 15 16  1  0
 16 17  1  0
 17 18  1  0
 17 19  2  0
 19 20  1  0
 20 10  1  0
 20 15  2  0
M  END
>  <energy_score>  (194) 
-43.35326

>  <alias>  (194) 
None

>  <HIPPO Pose ID>  (194) 
68807

>  <smiles>  (194) 
CC(C)CCCC(=O)Nc1cc(Cl)cc2[nH]c(O)nc12

>  <inchikey>  (194) 
HRMGVQFXIHPWEW-UHFFFAOYSA-N

>  <distance_score>  (194) 
1.029087

>  <ref_mols>  (194) 
Z0846a,Z1597a

>  <ref_pdb>  (194) 
Z0846a

>  <HIPPO Compound ID>  (194) 
136927

>  <name>  (194) 
P68807

>  <inspiration_score>  (194) 
None

$$$$
P68808
     RDKit          3D

 20 21  0  0  0  0  0  0  0  0999 V2000
   -5.9008    7.7262  -24.7023 C   0  0  0  0  0  0  0  0  0  0  0  0
   -5.5656    8.0854  -23.2547 C   0  0  0  0  0  0  0  0  0  0  0  0
   -4.7022    9.3418  -23.2077 C   0  0  0  0  0  0  0  0  0  0  0  0
   -4.9062    6.8851  -22.5614 C   0  0  0  0  0  0  0  0  0  0  0  0
   -4.7301    7.0519  -21.0510 C   0  0  0  0  0  0  0  0  0  0  0  0
   -4.1905    5.7743  -20.4210 C   0  0  0  0  0  0  0  0  0  0  0  0
   -4.4482    5.7197  -18.9284 C   0  0  0  0  0  0  0  0  0  0  0  0
   -3.6270    5.9323  -18.1229 O   0  0  0  0  0  0  0  0  0  0  0  0
   -5.9409    5.2991  -18.7629 N   0  0  0  0  0  0  0  0  0  0  0  0
   -6.6636    4.9775  -17.6257 C   0  0  0  0  0  0  0  0  0  0  0  0
   -6.0980    4.9795  -16.3487 C   0  0  0  0  0  0  0  0  0  0  0  0
   -6.8576    4.6290  -15.2299 C   0  0  0  0  0  0  0  0  0  0  0  0
   -6.1266    4.7638  -13.5012 Br  0  0  0  0  0  0  0  0  0  0  0  0
   -8.1813    4.2286  -15.3308 C   0  0  0  0  0  0  0  0  0  0  0  0
   -8.7616    4.2709  -16.5901 C   0  0  0  0  0  0  0  0  0  0  0  0
  -10.0660    4.0744  -16.9045 N   0  0  0  0  0  0  0  0  0  0  0  0
  -10.1462    4.4980  -18.1262 C   0  0  0  0  0  0  0  0  0  0  0  0
  -11.2896    4.8568  -18.6482 O   0  0  0  0  0  0  0  0  0  0  0  0
   -8.9389    4.6723  -18.7222 N   0  0  0  0  0  0  0  0  0  0  0  0
   -8.0144    4.6471  -17.7055 C   0  0  0  0  0  0  0  0  0  0  0  0
  1  2  1  0
  2  3  1  0
  2  4  1  0
  4  5  1  0
  5  6  1  0
  6  7  1  0
  7  8  2  0
  7  9  1  0
  9 10  1  0
 10 11  2  0
 11 12  1  0
 12 13  1  0
 12 14  2  0
 14 15  1  0
 15 16  1  0
 16 17  2  0
 17 18  1  0
 17 19  1  0
 19 20  1  0
 20 10  1  0
 20 15  2  0
M  END
>  <energy_score>  (195) 
-47.807635

>  <alias>  (195) 
None

>  <HIPPO Pose ID>  (195) 
68808

>  <smiles>  (195) 
CC(C)CCCC(=O)Nc1cc(Br)cc2nc(O)[nH]c12

>  <inchikey>  (195) 
PCSCPJOPJYEEJQ-UHFFFAOYSA-N

>  <distance_score>  (195) 
1.052758

>  <ref_mols>  (195) 
Z0846a,Z1597a

>  <ref_pdb>  (195) 
Z0846a

>  <HIPPO Compound ID>  (195) 
136929

>  <name>  (195) 
P68808

>  <inspiration_score>  (195) 
None

$$$$
P68809
     RDKit          3D

 20 23  0  0  0  0  0  0  0  0999 V2000
   -3.6535    5.2895  -18.5478 O   0  0  0  0  0  0  0  0  0  0  0  0
   -4.6088    5.3958  -19.2168 C   0  0  0  0  0  0  0  0  0  0  0  0
   -4.5588    5.9386  -20.6418 C   0  0  0  0  0  0  0  0  0  0  0  0
   -4.8859    7.4003  -20.6923 C   0  0  1  0  0  0  0  0  0  0  0  0
   -3.9535    8.3996  -20.1531 C   0  0  0  0  0  0  0  0  0  0  0  0
   -4.1296    8.3179  -21.6611 C   0  0  0  0  0  0  0  0  0  0  0  0
   -4.2632    9.7423  -22.2066 C   0  0  0  0  0  0  0  0  0  0  0  0
   -5.0519    8.6728  -22.8188 C   0  0  0  0  0  0  0  0  0  0  0  0
   -6.1089    5.1386  -18.8826 N   0  0  0  0  0  0  0  0  0  0  0  0
   -6.7203    4.8048  -17.6819 C   0  0  0  0  0  0  0  0  0  0  0  0
   -6.0441    4.7873  -16.4589 C   0  0  0  0  0  0  0  0  0  0  0  0
   -6.7455    4.5539  -15.2702 C   0  0  0  0  0  0  0  0  0  0  0  0
   -5.9457    4.6618  -13.7573 Cl  0  0  0  0  0  0  0  0  0  0  0  0
   -8.1130    4.3017  -15.2399 C   0  0  0  0  0  0  0  0  0  0  0  0
   -8.7491    4.3519  -16.4643 C   0  0  0  0  0  0  0  0  0  0  0  0
  -10.0663    4.2887  -16.7914 N   0  0  0  0  0  0  0  0  0  0  0  0
  -10.1732    4.5881  -18.1066 C   0  0  0  0  0  0  0  0  0  0  0  0
  -11.3136    4.8873  -18.6815 O   0  0  0  0  0  0  0  0  0  0  0  0
   -9.0138    4.6477  -18.6967 N   0  0  0  0  0  0  0  0  0  0  0  0
   -8.1057    4.5828  -17.6734 C   0  0  0  0  0  0  0  0  0  0  0  0
  1  2  2  0
  2  3  1  0
  4  3  1  6
  4  5  1  0
  5  6  1  0
  6  7  1  0
  7  8  1  0
  2  9  1  0
  9 10  1  0
 10 11  2  0
 11 12  1  0
 12 13  1  0
 12 14  2  0
 14 15  1  0
 15 16  1  0
 16 17  1  0
 17 18  1  0
 17 19  2  0
 19 20  1  0
  6  4  1  0
 20 10  1  0
  8  6  1  0
 20 15  2  0
M  END
>  <energy_score>  (196) 
-26.436688

>  <alias>  (196) 
None

>  <HIPPO Pose ID>  (196) 
68809

>  <smiles>  (196) 
O=C(C[C@H]1CC12CC2)Nc1cc(Cl)cc2[nH]c(O)nc12

>  <inchikey>  (196) 
XTGOYKVEESMLGD-ZETCQYMHSA-N

>  <distance_score>  (196) 
1.190002

>  <ref_mols>  (196) 
Z0846a,Z1597a

>  <ref_pdb>  (196) 
Z0846a

>  <HIPPO Compound ID>  (196) 
136930

>  <name>  (196) 
P68809

>  <inspiration_score>  (196) 
None

$$$$
P68811
     RDKit          3D

 20 23  0  0  0  0  0  0  0  0999 V2000
   -7.2763    4.4003  -19.2014 C   0  0  0  0  0  0  0  0  0  0  0  0
   -7.8024    4.4372  -17.8844 N   0  0  0  0  0  0  0  0  0  0  0  0
   -8.9769    3.7821  -17.4981 C   0  0  0  0  0  0  0  0  0  0  0  0
   -9.7485    3.1375  -18.1828 O   0  0  0  0  0  0  0  0  0  0  0  0
   -9.1202    3.9759  -16.1336 N   0  0  0  0  0  0  0  0  0  0  0  0
   -8.0559    4.7283  -15.6856 C   0  0  0  0  0  0  0  0  0  0  0  0
   -7.8865    5.1706  -14.4035 C   0  0  0  0  0  0  0  0  0  0  0  0
   -6.8209    6.0283  -14.2019 C   0  0  0  0  0  0  0  0  0  0  0  0
   -5.9784    6.4005  -15.2701 C   0  0  0  0  0  0  0  0  0  0  0  0
   -6.1288    5.8871  -16.5688 C   0  0  0  0  0  0  0  0  0  0  0  0
   -5.2453    6.4199  -17.5152 N   0  0  0  0  0  0  0  0  0  0  0  0
   -4.3845    5.7118  -18.6110 C   0  0  0  0  0  0  0  0  0  0  0  0
   -4.3453    4.5877  -18.9351 O   0  0  0  0  0  0  0  0  0  0  0  0
   -3.5776    6.8123  -19.3285 C   0  0  0  0  0  0  0  0  0  0  0  0
   -3.8763    6.8802  -20.8015 C   0  0  1  0  0  0  0  0  0  0  0  0
   -5.3181    7.1481  -21.2474 C   0  0  0  0  0  0  0  0  0  0  0  0
   -4.2647    8.1282  -21.4644 C   0  0  0  0  0  0  0  0  0  0  0  0
   -3.8672    8.8918  -22.6446 C   0  0  0  0  0  0  0  0  0  0  0  0
   -4.1233    9.5668  -21.2920 C   0  0  0  0  0  0  0  0  0  0  0  0
   -7.2051    5.0335  -16.7661 C   0  0  0  0  0  0  0  0  0  0  0  0
  1  2  1  0
  2  3  1  0
  3  4  2  0
  3  5  1  0
  5  6  1  0
  6  7  2  0
  7  8  1  0
  8  9  2  0
  9 10  1  0
 10 11  1  0
 11 12  1  0
 12 13  2  0
 12 14  1  0
 15 14  1  1
 15 16  1  0
 16 17  1  0
 17 18  1  0
 18 19  1  0
 10 20  2  0
 20  2  1  0
 20  6  1  0
 17 15  1  0
 19 17  1  0
M  END
>  <energy_score>  (197) 
-9.791794

>  <alias>  (197) 
None

>  <HIPPO Pose ID>  (197) 
68811

>  <smiles>  (197) 
Cn1c(=O)[nH]c2cccc(NC(=O)C[C@H]3CC34CC4)c21

>  <inchikey>  (197) 
JMIOCGLOGCUBTR-VIFPVBQESA-N

>  <distance_score>  (197) 
1.765692

>  <ref_mols>  (197) 
Z0846a,Z1597a

>  <ref_pdb>  (197) 
Z0846a

>  <HIPPO Compound ID>  (197) 
136931

>  <name>  (197) 
P68811

>  <inspiration_score>  (197) 
None

$$$$
P68813
     RDKit          3D

 20 23  0  0  0  0  0  0  0  0999 V2000
   -3.4992    5.3387  -18.3727 O   0  0  0  0  0  0  0  0  0  0  0  0
   -4.3964    5.4239  -19.1210 C   0  0  0  0  0  0  0  0  0  0  0  0
   -4.2126    5.8023  -20.5863 C   0  0  0  0  0  0  0  0  0  0  0  0
   -4.0460    7.2741  -20.7880 C   0  0  2  0  0  0  0  0  0  0  0  0
   -5.2032    8.2325  -20.4692 C   0  0  0  0  0  0  0  0  0  0  0  0
   -4.7903    7.9614  -21.8423 C   0  0  0  0  0  0  0  0  0  0  0  0
   -4.4437    8.7951  -22.9907 C   0  0  0  0  0  0  0  0  0  0  0  0
   -5.4183    7.6196  -23.1113 C   0  0  0  0  0  0  0  0  0  0  0  0
   -5.9232    5.1756  -18.9026 N   0  0  0  0  0  0  0  0  0  0  0  0
   -6.6310    4.8783  -17.7463 C   0  0  0  0  0  0  0  0  0  0  0  0
   -6.0340    4.8539  -16.4826 C   0  0  0  0  0  0  0  0  0  0  0  0
   -6.7816    4.5480  -15.3409 C   0  0  0  0  0  0  0  0  0  0  0  0
   -6.0095    4.6690  -13.6290 Br  0  0  0  0  0  0  0  0  0  0  0  0
   -8.1229    4.2024  -15.4055 C   0  0  0  0  0  0  0  0  0  0  0  0
   -8.7310    4.2640  -16.6502 C   0  0  0  0  0  0  0  0  0  0  0  0
  -10.0481    4.1018  -16.9321 N   0  0  0  0  0  0  0  0  0  0  0  0
  -10.1457    4.5230  -18.1527 C   0  0  0  0  0  0  0  0  0  0  0  0
  -11.2952    4.8900  -18.6531 O   0  0  0  0  0  0  0  0  0  0  0  0
   -8.9497    4.6827  -18.7739 N   0  0  0  0  0  0  0  0  0  0  0  0
   -7.9989    4.6152  -17.7848 C   0  0  0  0  0  0  0  0  0  0  0  0
  1  2  2  0
  2  3  1  0
  4  3  1  6
  4  5  1  0
  5  6  1  0
  6  7  1  0
  7  8  1  0
  2  9  1  0
  9 10  1  0
 10 11  2  0
 11 12  1  0
 12 13  1  0
 12 14  2  0
 14 15  1  0
 15 16  1  0
 16 17  2  0
 17 18  1  0
 17 19  1  0
 19 20  1  0
  6  4  1  0
 20 10  1  0
  8  6  1  0
 20 15  2  0
M  END
>  <energy_score>  (198) 
-42.569944

>  <alias>  (198) 
None

>  <HIPPO Pose ID>  (198) 
68813

>  <smiles>  (198) 
O=C(C[C@@H]1CC12CC2)Nc1cc(Br)cc2nc(O)[nH]c12

>  <inchikey>  (198) 
XAUHCPQICJGIPG-SSDOTTSWSA-N

>  <distance_score>  (198) 
1.164486

>  <ref_mols>  (198) 
Z0846a,Z1597a

>  <ref_pdb>  (198) 
Z0846a

>  <HIPPO Compound ID>  (198) 
136932

>  <name>  (198) 
P68813

>  <inspiration_score>  (198) 
None

$$$$
P68815
     RDKit          3D

 20 21  0  0  0  0  0  0  0  0999 V2000
   -5.6535    9.7934  -23.8522 C   0  0  0  0  0  0  0  0  0  0  0  0
   -4.8700    9.4395  -23.0134 C   0  0  0  0  0  0  0  0  0  0  0  0
   -3.8409    9.0375  -22.0401 C   0  0  0  0  0  0  0  0  0  0  0  0
   -4.4185    8.4486  -20.7523 C   0  0  0  0  0  0  0  0  0  0  0  0
   -5.0679    7.0646  -20.9329 C   0  0  0  0  0  0  0  0  0  0  0  0
   -4.2916    5.9141  -20.3002 C   0  0  0  0  0  0  0  0  0  0  0  0
   -4.3617    5.9031  -18.7748 C   0  0  0  0  0  0  0  0  0  0  0  0
   -3.4740    6.2689  -18.1044 O   0  0  0  0  0  0  0  0  0  0  0  0
   -5.7640    5.3407  -18.3783 N   0  0  0  0  0  0  0  0  0  0  0  0
   -6.2980    5.0381  -17.1224 C   0  0  0  0  0  0  0  0  0  0  0  0
   -5.5178    5.1710  -15.9709 C   0  0  0  0  0  0  0  0  0  0  0  0
   -6.0169    4.8371  -14.6917 C   0  0  0  0  0  0  0  0  0  0  0  0
   -7.3135    4.3709  -14.5194 C   0  0  0  0  0  0  0  0  0  0  0  0
   -8.0688    4.2768  -15.6523 C   0  0  0  0  0  0  0  0  0  0  0  0
   -9.3966    3.9030  -15.7401 N   0  0  0  0  0  0  0  0  0  0  0  0
   -9.8004    3.9865  -17.0688 C   0  0  0  0  0  0  0  0  0  0  0  0
  -10.9091    3.7562  -17.5186 O   0  0  0  0  0  0  0  0  0  0  0  0
   -8.6724    4.3585  -17.7953 N   0  0  0  0  0  0  0  0  0  0  0  0
   -8.7300    4.7057  -19.1537 C   0  0  0  0  0  0  0  0  0  0  0  0
   -7.5945    4.5826  -16.9320 C   0  0  0  0  0  0  0  0  0  0  0  0
  1  2  3  0
  2  3  1  0
  3  4  1  0
  4  5  1  0
  5  6  1  0
  6  7  1  0
  7  8  2  0
  7  9  1  0
  9 10  1  0
 10 11  2  0
 11 12  1  0
 12 13  2  0
 13 14  1  0
 14 15  1  0
 15 16  1  0
 16 17  2  0
 16 18  1  0
 18 19  1  0
 18 20  1  0
 20 10  1  0
 20 14  2  0
M  END
>  <energy_score>  (199) 
-24.063285

>  <alias>  (199) 
None

>  <HIPPO Pose ID>  (199) 
68815

>  <smiles>  (199) 
C#CCCCCC(=O)Nc1cccc2[nH]c(=O)n(C)c12

>  <inchikey>  (199) 
VMPZMXAHRNCOKL-UHFFFAOYSA-N

>  <distance_score>  (199) 
1.411227

>  <ref_mols>  (199) 
Z0846a,Z1597a

>  <ref_pdb>  (199) 
Z0846a

>  <HIPPO Compound ID>  (199) 
136933

>  <name>  (199) 
P68815

>  <inspiration_score>  (199) 
None

$$$$
P68817
     RDKit          3D

 20 21  0  0  0  0  0  0  0  0999 V2000
   -5.7301    9.9653  -24.3705 C   0  0  0  0  0  0  0  0  0  0  0  0
   -5.1356    9.1739  -23.6910 C   0  0  0  0  0  0  0  0  0  0  0  0
   -4.3694    8.2339  -22.8625 C   0  0  0  0  0  0  0  0  0  0  0  0
   -5.2169    7.0564  -22.3981 C   0  0  0  0  0  0  0  0  0  0  0  0
   -4.6261    6.3182  -21.1911 C   0  0  0  0  0  0  0  0  0  0  0  0
   -4.6497    7.1747  -19.9331 C   0  0  0  0  0  0  0  0  0  0  0  0
   -4.6791    6.3781  -18.6365 C   0  0  0  0  0  0  0  0  0  0  0  0
   -3.7775    6.3529  -17.8920 O   0  0  0  0  0  0  0  0  0  0  0  0
   -6.1040    5.7647  -18.5154 N   0  0  0  0  0  0  0  0  0  0  0  0
   -6.7148    5.1044  -17.4564 C   0  0  0  0  0  0  0  0  0  0  0  0
   -6.1304    4.9831  -16.1972 C   0  0  0  0  0  0  0  0  0  0  0  0
   -6.9010    4.5567  -15.1111 C   0  0  0  0  0  0  0  0  0  0  0  0
   -6.2302    4.5777  -13.5323 Cl  0  0  0  0  0  0  0  0  0  0  0  0
   -8.2463    4.2104  -15.2264 C   0  0  0  0  0  0  0  0  0  0  0  0
   -8.7924    4.3300  -16.4914 C   0  0  0  0  0  0  0  0  0  0  0  0
  -10.0815    4.2482  -16.9399 N   0  0  0  0  0  0  0  0  0  0  0  0
  -10.0716    4.6965  -18.2147 C   0  0  0  0  0  0  0  0  0  0  0  0
  -11.1482    5.1176  -18.8235 O   0  0  0  0  0  0  0  0  0  0  0  0
   -8.8793    4.8982  -18.6869 N   0  0  0  0  0  0  0  0  0  0  0  0
   -8.0630    4.7391  -17.6030 C   0  0  0  0  0  0  0  0  0  0  0  0
  1  2  3  0
  2  3  1  0
  3  4  1  0
  4  5  1  0
  5  6  1  0
  6  7  1  0
  7  8  2  0
  7  9  1  0
  9 10  1  0
 10 11  2  0
 11 12  1  0
 12 13  1  0
 12 14  2  0
 14 15  1  0
 15 16  1  0
 16 17  1  0
 17 18  1  0
 17 19  2  0
 19 20  1  0
 20 10  1  0
 20 15  2  0
M  END
>  <energy_score>  (200) 
-32.07293

>  <alias>  (200) 
None

>  <HIPPO Pose ID>  (200) 
68817

>  <smiles>  (200) 
C#CCCCCC(=O)Nc1cc(Cl)cc2[nH]c(O)nc12

>  <inchikey>  (200) 
KAJDDTIYEINKGA-UHFFFAOYSA-N

>  <distance_score>  (200) 
1.322256

>  <ref_mols>  (200) 
Z0846a,Z1597a

>  <ref_pdb>  (200) 
Z0846a

>  <HIPPO Compound ID>  (200) 
136935

>  <name>  (200) 
P68817

>  <inspiration_score>  (200) 
None

$$$$
P68820
     RDKit          3D

 20 22  0  0  0  0  0  0  0  0999 V2000
   -3.7938    6.1408  -18.5468 O   0  0  0  0  0  0  0  0  0  0  0  0
   -4.6383    5.8062  -19.2835 C   0  0  0  0  0  0  0  0  0  0  0  0
   -4.4369    5.6820  -20.7828 C   0  0  0  0  0  0  0  0  0  0  0  0
   -4.3518    6.9624  -21.5887 C   0  0  2  0  0  0  0  0  0  0  0  0
   -4.8113    8.2339  -20.9178 C   0  0  0  0  0  0  0  0  0  0  0  0
   -5.0122    9.1345  -22.1127 C   0  0  0  0  0  0  0  0  0  0  0  0
   -5.4856    8.1975  -23.2039 C   0  0  0  0  0  0  0  0  0  0  0  0
   -5.1952    6.8685  -22.7649 O   0  0  0  0  0  0  0  0  0  0  0  0
   -6.0873    5.3120  -18.9993 N   0  0  0  0  0  0  0  0  0  0  0  0
   -6.7293    5.0505  -17.7999 C   0  0  0  0  0  0  0  0  0  0  0  0
   -6.1045    5.1012  -16.5533 C   0  0  0  0  0  0  0  0  0  0  0  0
   -6.7998    4.7342  -15.3940 C   0  0  0  0  0  0  0  0  0  0  0  0
   -5.9951    4.9060  -13.7007 Br  0  0  0  0  0  0  0  0  0  0  0  0
   -8.1123    4.2789  -15.4235 C   0  0  0  0  0  0  0  0  0  0  0  0
   -8.7535    4.2924  -16.6528 C   0  0  0  0  0  0  0  0  0  0  0  0
  -10.0663    4.0618  -16.9108 N   0  0  0  0  0  0  0  0  0  0  0  0
  -10.2050    4.4794  -18.1297 C   0  0  0  0  0  0  0  0  0  0  0  0
  -11.3686    4.8347  -18.6034 O   0  0  0  0  0  0  0  0  0  0  0  0
   -9.0314    4.6676  -18.7801 N   0  0  0  0  0  0  0  0  0  0  0  0
   -8.0677    4.6745  -17.8028 C   0  0  0  0  0  0  0  0  0  0  0  0
  1  2  2  0
  2  3  1  0
  4  3  1  1
  4  5  1  0
  5  6  1  0
  6  7  1  0
  7  8  1  0
  2  9  1  0
  9 10  1  0
 10 11  2  0
 11 12  1  0
 12 13  1  0
 12 14  2  0
 14 15  1  0
 15 16  1  0
 16 17  2  0
 17 18  1  0
 17 19  1  0
 19 20  1  0
  8  4  1  0
 20 10  1  0
 20 15  2  0
M  END
>  <energy_score>  (201) 
-35.844906

>  <alias>  (201) 
None

>  <HIPPO Pose ID>  (201) 
68820

>  <smiles>  (201) 
O=C(C[C@@H]1CCCO1)Nc1cc(Br)cc2nc(O)[nH]c12

>  <inchikey>  (201) 
ICIMMLDJDDEEBA-QMMMGPOBSA-N

>  <distance_score>  (201) 
1.338985

>  <ref_mols>  (201) 
Z0846a,Z1597a

>  <ref_pdb>  (201) 
Z0846a

>  <HIPPO Compound ID>  (201) 
136938

>  <name>  (201) 
P68820

>  <inspiration_score>  (201) 
None

$$$$
P68824
     RDKit          3D

 20 21  0  0  0  0  0  0  0  0999 V2000
   -5.8754    7.7980  -24.3998 C   0  0  0  0  0  0  0  0  0  0  0  0
   -4.9191    7.9133  -23.2259 C   0  0  1  0  0  0  0  0  0  0  0  0
   -5.0539    9.1616  -22.6957 F   0  0  0  0  0  0  0  0  0  0  0  0
   -5.2276    6.8884  -22.1410 C   0  0  0  0  0  0  0  0  0  0  0  0
   -4.1192    6.7544  -21.0899 C   0  0  0  0  0  0  0  0  0  0  0  0
   -4.2572    5.4535  -20.2947 C   0  0  0  0  0  0  0  0  0  0  0  0
   -4.3666    5.6608  -18.7876 C   0  0  0  0  0  0  0  0  0  0  0  0
   -3.4620    6.0204  -18.1375 O   0  0  0  0  0  0  0  0  0  0  0  0
   -5.7992    5.2122  -18.3650 N   0  0  0  0  0  0  0  0  0  0  0  0
   -6.3543    5.0318  -17.0991 C   0  0  0  0  0  0  0  0  0  0  0  0
   -5.6001    5.2435  -15.9440 C   0  0  0  0  0  0  0  0  0  0  0  0
   -6.1215    4.9604  -14.6619 C   0  0  0  0  0  0  0  0  0  0  0  0
   -7.4118    4.4708  -14.4957 C   0  0  0  0  0  0  0  0  0  0  0  0
   -8.1440    4.3150  -15.6373 C   0  0  0  0  0  0  0  0  0  0  0  0
   -9.4638    3.9220  -15.7407 N   0  0  0  0  0  0  0  0  0  0  0  0
   -9.8491    3.9777  -17.0767 C   0  0  0  0  0  0  0  0  0  0  0  0
  -10.9539    3.7474  -17.5358 O   0  0  0  0  0  0  0  0  0  0  0  0
   -8.7096    4.3264  -17.7962 N   0  0  0  0  0  0  0  0  0  0  0  0
   -8.7611    4.6983  -19.1507 C   0  0  0  0  0  0  0  0  0  0  0  0
   -7.6503    4.5778  -16.9160 C   0  0  0  0  0  0  0  0  0  0  0  0
  2  1  1  6
  2  3  1  0
  2  4  1  0
  4  5  1  0
  5  6  1  0
  6  7  1  0
  7  8  2  0
  7  9  1  0
  9 10  1  0
 10 11  2  0
 11 12  1  0
 12 13  2  0
 13 14  1  0
 14 15  1  0
 15 16  1  0
 16 17  2  0
 16 18  1  0
 18 19  1  0
 18 20  1  0
 20 10  1  0
 20 14  2  0
M  END
>  <energy_score>  (202) 
-5.827062

>  <alias>  (202) 
None

>  <HIPPO Pose ID>  (202) 
68824

>  <smiles>  (202) 
C[C@@H](F)CCCC(=O)Nc1cccc2[nH]c(=O)n(C)c12

>  <inchikey>  (202) 
VDUHCLDHPZVXBI-SECBINFHSA-N

>  <distance_score>  (202) 
1.261647

>  <ref_mols>  (202) 
Z0846a,Z1597a

>  <ref_pdb>  (202) 
Z0846a

>  <HIPPO Compound ID>  (202) 
136940

>  <name>  (202) 
P68824

>  <inspiration_score>  (202) 
None

$$$$
P68828
     RDKit          3D

 20 21  0  0  0  0  0  0  0  0999 V2000
   -5.9435    7.7997  -24.5493 C   0  0  0  0  0  0  0  0  0  0  0  0
   -5.4929    7.9932  -23.1240 C   0  0  0  0  0  0  0  0  0  0  0  0
   -5.5677    9.0938  -22.5791 O   0  0  0  0  0  0  0  0  0  0  0  0
   -4.9093    6.7710  -22.4451 C   0  0  0  0  0  0  0  0  0  0  0  0
   -4.7722    6.8964  -20.9308 C   0  0  0  0  0  0  0  0  0  0  0  0
   -4.2707    5.5893  -20.3241 C   0  0  0  0  0  0  0  0  0  0  0  0
   -4.4865    5.5111  -18.8226 C   0  0  0  0  0  0  0  0  0  0  0  0
   -3.6336    5.6746  -18.0397 O   0  0  0  0  0  0  0  0  0  0  0  0
   -5.9886    5.1611  -18.6184 N   0  0  0  0  0  0  0  0  0  0  0  0
   -6.6937    4.8609  -17.4636 C   0  0  0  0  0  0  0  0  0  0  0  0
   -6.1336    4.8465  -16.1886 C   0  0  0  0  0  0  0  0  0  0  0  0
   -6.9443    4.5956  -15.0761 C   0  0  0  0  0  0  0  0  0  0  0  0
   -6.2798    4.6907  -13.4977 Cl  0  0  0  0  0  0  0  0  0  0  0  0
   -8.3096    4.3300  -15.1764 C   0  0  0  0  0  0  0  0  0  0  0  0
   -8.8348    4.3765  -16.4545 C   0  0  0  0  0  0  0  0  0  0  0  0
  -10.1178    4.3126  -16.9174 N   0  0  0  0  0  0  0  0  0  0  0  0
  -10.0724    4.6669  -18.2196 C   0  0  0  0  0  0  0  0  0  0  0  0
  -11.1204    5.1172  -18.8567 O   0  0  0  0  0  0  0  0  0  0  0  0
   -8.8667    4.7378  -18.6970 N   0  0  0  0  0  0  0  0  0  0  0  0
   -8.0720    4.6291  -17.5886 C   0  0  0  0  0  0  0  0  0  0  0  0
  1  2  1  0
  2  3  2  0
  2  4  1  0
  4  5  1  0
  5  6  1  0
  6  7  1  0
  7  8  2  0
  7  9  1  0
  9 10  1  0
 10 11  2  0
 11 12  1  0
 12 13  1  0
 12 14  2  0
 14 15  1  0
 15 16  1  0
 16 17  1  0
 17 18  1  0
 17 19  2  0
 19 20  1  0
 20 10  1  0
 20 15  2  0
M  END
>  <energy_score>  (203) 
-39.791447

>  <alias>  (203) 
None

>  <HIPPO Pose ID>  (203) 
68828

>  <smiles>  (203) 
CC(=O)CCCC(=O)Nc1cc(Cl)cc2[nH]c(O)nc12

>  <inchikey>  (203) 
MNQGMAOBDAZSSN-UHFFFAOYSA-N

>  <distance_score>  (203) 
0.997798

>  <ref_mols>  (203) 
Z0846a,Z1597a

>  <ref_pdb>  (203) 
Z0846a

>  <HIPPO Compound ID>  (203) 
136944

>  <name>  (203) 
P68828

>  <inspiration_score>  (203) 
None

$$$$
P68830
     RDKit          3D

 20 21  0  0  0  0  0  0  0  0999 V2000
   -6.5268    7.8741  -24.1874 O   0  0  0  0  0  0  0  0  0  0  0  0
   -5.4995    8.0176  -23.5337 C   0  0  0  0  0  0  0  0  0  0  0  0
   -4.9188    6.9497  -22.6511 C   0  0  0  0  0  0  0  0  0  0  0  0
   -4.6073    7.5012  -21.2623 C   0  0  0  0  0  0  0  0  0  0  0  0
   -3.5595    6.6652  -20.5263 C   0  0  0  0  0  0  0  0  0  0  0  0
   -4.0410    5.2631  -20.1566 C   0  0  0  0  0  0  0  0  0  0  0  0
   -4.3400    5.1624  -18.6703 C   0  0  0  0  0  0  0  0  0  0  0  0
   -3.4953    5.2487  -17.8653 O   0  0  0  0  0  0  0  0  0  0  0  0
   -5.8735    4.9641  -18.5045 N   0  0  0  0  0  0  0  0  0  0  0  0
   -6.6350    4.7457  -17.3668 C   0  0  0  0  0  0  0  0  0  0  0  0
   -6.0764    4.7654  -16.0858 C   0  0  0  0  0  0  0  0  0  0  0  0
   -6.8840    4.5902  -14.9609 C   0  0  0  0  0  0  0  0  0  0  0  0
   -6.2116    4.7186  -13.3908 Cl  0  0  0  0  0  0  0  0  0  0  0  0
   -8.2519    4.3685  -15.0500 C   0  0  0  0  0  0  0  0  0  0  0  0
   -8.7731    4.3831  -16.3289 C   0  0  0  0  0  0  0  0  0  0  0  0
  -10.0565    4.3202  -16.7673 N   0  0  0  0  0  0  0  0  0  0  0  0
  -10.0469    4.5774  -18.0945 C   0  0  0  0  0  0  0  0  0  0  0  0
  -11.1339    4.8937  -18.7587 O   0  0  0  0  0  0  0  0  0  0  0  0
   -8.8388    4.5833  -18.5878 N   0  0  0  0  0  0  0  0  0  0  0  0
   -8.0217    4.5557  -17.4849 C   0  0  0  0  0  0  0  0  0  0  0  0
  1  2  2  0
  2  3  1  0
  3  4  1  0
  4  5  1  0
  5  6  1  0
  6  7  1  0
  7  8  2  0
  7  9  1  0
  9 10  1  0
 10 11  2  0
 11 12  1  0
 12 13  1  0
 12 14  2  0
 14 15  1  0
 15 16  1  0
 16 17  1  0
 17 18  1  0
 17 19  2  0
 19 20  1  0
 20 10  1  0
 20 15  2  0
M  END
>  <energy_score>  (204) 
-4.505104

>  <alias>  (204) 
None

>  <HIPPO Pose ID>  (204) 
68830

>  <smiles>  (204) 
O=CCCCCC(=O)Nc1cc(Cl)cc2[nH]c(O)nc12

>  <inchikey>  (204) 
SCSQSLXQXDGDRN-UHFFFAOYSA-N

>  <distance_score>  (204) 
1.000721

>  <ref_mols>  (204) 
Z0846a,Z1597a

>  <ref_pdb>  (204) 
Z0846a

>  <HIPPO Compound ID>  (204) 
136949

>  <name>  (204) 
P68830

>  <inspiration_score>  (204) 
None

$$$$
P68831
     RDKit          3D

 20 21  0  0  0  0  0  0  0  0999 V2000
   -8.7216    4.6525  -19.1919 C   0  0  0  0  0  0  0  0  0  0  0  0
   -8.6389    4.2747  -17.8423 N   0  0  0  0  0  0  0  0  0  0  0  0
   -9.7684    3.9556  -17.0915 C   0  0  0  0  0  0  0  0  0  0  0  0
  -10.8898    3.7345  -17.5135 O   0  0  0  0  0  0  0  0  0  0  0  0
   -9.3557    3.9188  -15.7631 N   0  0  0  0  0  0  0  0  0  0  0  0
   -8.0294    4.3032  -15.6988 C   0  0  0  0  0  0  0  0  0  0  0  0
   -7.2790    4.4826  -14.5732 C   0  0  0  0  0  0  0  0  0  0  0  0
   -5.9926    4.9662  -14.7732 C   0  0  0  0  0  0  0  0  0  0  0  0
   -5.4936    5.2209  -16.0714 C   0  0  0  0  0  0  0  0  0  0  0  0
   -6.2612    4.9873  -17.2161 C   0  0  0  0  0  0  0  0  0  0  0  0
   -5.7023    5.1640  -18.4885 N   0  0  0  0  0  0  0  0  0  0  0  0
   -4.3205    5.7554  -18.9162 C   0  0  0  0  0  0  0  0  0  0  0  0
   -3.4122    6.1117  -18.2649 O   0  0  0  0  0  0  0  0  0  0  0  0
   -4.1896    5.7363  -20.4542 C   0  0  0  0  0  0  0  0  0  0  0  0
   -5.4331    6.0258  -21.2954 C   0  0  0  0  0  0  0  0  0  0  0  0
   -5.1969    6.4984  -22.7579 C   0  0  0  0  0  0  0  0  0  0  0  0
   -5.3254    7.9942  -22.9425 C   0  0  0  0  0  0  0  0  0  0  0  0
   -4.3102    8.6511  -22.0707 C   0  0  0  0  0  0  0  0  0  0  0  0
   -4.5484    8.9710  -20.9103 O   0  0  0  0  0  0  0  0  0  0  0  0
   -7.5560    4.5371  -16.9953 C   0  0  0  0  0  0  0  0  0  0  0  0
  1  2  1  0
  2  3  1  0
  3  4  2  0
  3  5  1  0
  5  6  1  0
  6  7  2  0
  7  8  1  0
  8  9  2  0
  9 10  1  0
 10 11  1  0
 11 12  1  0
 12 13  2  0
 12 14  1  0
 14 15  1  0
 15 16  1  0
 16 17  1  0
 17 18  1  0
 18 19  2  0
 10 20  2  0
 20  2  1  0
 20  6  1  0
M  END
>  <energy_score>  (205) 
-18.112217

>  <alias>  (205) 
None

>  <HIPPO Pose ID>  (205) 
68831

>  <smiles>  (205) 
Cn1c(=O)[nH]c2cccc(NC(=O)CCCCC=O)c21

>  <inchikey>  (205) 
QLQOXYOFEXJVJU-UHFFFAOYSA-N

>  <distance_score>  (205) 
1.600612

>  <ref_mols>  (205) 
Z0846a,Z1597a

>  <ref_pdb>  (205) 
Z0846a

>  <HIPPO Compound ID>  (205) 
136950

>  <name>  (205) 
P68831

>  <inspiration_score>  (205) 
None

$$$$
P68833
     RDKit          3D

 20 21  0  0  0  0  0  0  0  0999 V2000
   -5.9310    7.9667  -24.6830 C   0  0  0  0  0  0  0  0  0  0  0  0
   -5.3607    8.1415  -23.2811 C   0  0  0  0  0  0  0  0  0  0  0  0
   -4.2309    7.1390  -22.9815 C   0  0  1  0  0  0  0  0  0  0  0  0
   -2.9258    7.5693  -23.6616 C   0  0  0  0  0  0  0  0  0  0  0  0
   -3.9712    6.9296  -21.4741 C   0  0  0  0  0  0  0  0  0  0  0  0
   -5.1746    6.3046  -20.7949 C   0  0  0  0  0  0  0  0  0  0  0  0
   -4.9535    5.8872  -19.3532 C   0  0  0  0  0  0  0  0  0  0  0  0
   -3.9885    6.0740  -18.7219 O   0  0  0  0  0  0  0  0  0  0  0  0
   -6.3236    5.2763  -18.9427 N   0  0  0  0  0  0  0  0  0  0  0  0
   -6.7941    4.8775  -17.7053 C   0  0  0  0  0  0  0  0  0  0  0  0
   -6.0701    4.9069  -16.5164 C   0  0  0  0  0  0  0  0  0  0  0  0
   -6.7204    4.6253  -15.3068 C   0  0  0  0  0  0  0  0  0  0  0  0
   -5.8797    4.7778  -13.8194 Cl  0  0  0  0  0  0  0  0  0  0  0  0
   -8.0745    4.2976  -15.2275 C   0  0  0  0  0  0  0  0  0  0  0  0
   -8.7551    4.3151  -16.4287 C   0  0  0  0  0  0  0  0  0  0  0  0
  -10.0773    4.2172  -16.7266 N   0  0  0  0  0  0  0  0  0  0  0  0
  -10.2241    4.5196  -18.0395 C   0  0  0  0  0  0  0  0  0  0  0  0
  -11.3758    4.8128  -18.5929 O   0  0  0  0  0  0  0  0  0  0  0  0
   -9.0841    4.5945  -18.6590 N   0  0  0  0  0  0  0  0  0  0  0  0
   -8.1574    4.5645  -17.6527 C   0  0  0  0  0  0  0  0  0  0  0  0
  1  2  1  0
  2  3  1  0
  3  4  1  6
  3  5  1  0
  5  6  1  0
  6  7  1  0
  7  8  2  0
  7  9  1  0
  9 10  1  0
 10 11  2  0
 11 12  1  0
 12 13  1  0
 12 14  2  0
 14 15  1  0
 15 16  1  0
 16 17  1  0
 17 18  1  0
 17 19  2  0
 19 20  1  0
 20 10  1  0
 20 15  2  0
M  END
>  <energy_score>  (206) 
-33.099633

>  <alias>  (206) 
None

>  <HIPPO Pose ID>  (206) 
68833

>  <smiles>  (206) 
CC[C@@H](C)CCC(=O)Nc1cc(Cl)cc2[nH]c(O)nc12

>  <inchikey>  (206) 
XWFWOKIRPBMJTN-MRVPVSSYSA-N

>  <distance_score>  (206) 
1.077956

>  <ref_mols>  (206) 
Z0846a,Z1597a

>  <ref_pdb>  (206) 
Z0846a

>  <HIPPO Compound ID>  (206) 
136951

>  <name>  (206) 
P68833

>  <inspiration_score>  (206) 
None

$$$$
P68834
     RDKit          3D

 20 21  0  0  0  0  0  0  0  0999 V2000
   -5.7273    7.5604  -24.2149 C   0  0  0  0  0  0  0  0  0  0  0  0
   -5.3400    7.9026  -22.9737 C   0  0  0  0  0  0  0  0  0  0  0  0
   -4.8849    9.2954  -22.6570 C   0  0  0  0  0  0  0  0  0  0  0  0
   -5.3963    6.9112  -21.8298 C   0  0  0  0  0  0  0  0  0  0  0  0
   -4.0633    6.6100  -21.1415 C   0  0  0  0  0  0  0  0  0  0  0  0
   -4.1143    5.2982  -20.3576 C   0  0  0  0  0  0  0  0  0  0  0  0
   -4.4053    5.4129  -18.8698 C   0  0  0  0  0  0  0  0  0  0  0  0
   -3.5536    5.6105  -18.0910 O   0  0  0  0  0  0  0  0  0  0  0  0
   -5.9216    5.1222  -18.6560 N   0  0  0  0  0  0  0  0  0  0  0  0
   -6.6476    4.9293  -17.4855 C   0  0  0  0  0  0  0  0  0  0  0  0
   -6.0600    5.0098  -16.2192 C   0  0  0  0  0  0  0  0  0  0  0  0
   -6.8194    4.7745  -15.0691 C   0  0  0  0  0  0  0  0  0  0  0  0
   -6.1094    4.9373  -13.5180 Cl  0  0  0  0  0  0  0  0  0  0  0  0
   -8.1697    4.4513  -15.1142 C   0  0  0  0  0  0  0  0  0  0  0  0
   -8.7296    4.4343  -16.3758 C   0  0  0  0  0  0  0  0  0  0  0  0
  -10.0238    4.3044  -16.7707 N   0  0  0  0  0  0  0  0  0  0  0  0
  -10.0685    4.5724  -18.0960 C   0  0  0  0  0  0  0  0  0  0  0  0
  -11.1851    4.8685  -18.7206 O   0  0  0  0  0  0  0  0  0  0  0  0
   -8.8784    4.6239  -18.6291 N   0  0  0  0  0  0  0  0  0  0  0  0
   -8.0241    4.6457  -17.5555 C   0  0  0  0  0  0  0  0  0  0  0  0
  1  2  2  0
  2  3  1  0
  2  4  1  0
  4  5  1  0
  5  6  1  0
  6  7  1  0
  7  8  2  0
  7  9  1  0
  9 10  1  0
 10 11  2  0
 11 12  1  0
 12 13  1  0
 12 14  2  0
 14 15  1  0
 15 16  1  0
 16 17  1  0
 17 18  1  0
 17 19  2  0
 19 20  1  0
 20 10  1  0
 20 15  2  0
M  END
>  <energy_score>  (207) 
-38.38211

>  <alias>  (207) 
None

>  <HIPPO Pose ID>  (207) 
68834

>  <smiles>  (207) 
C=C(C)CCCC(=O)Nc1cc(Cl)cc2[nH]c(O)nc12

>  <inchikey>  (207) 
QEABCZRVIKGWTR-UHFFFAOYSA-N

>  <distance_score>  (207) 
1.10615

>  <ref_mols>  (207) 
Z0846a,Z1597a

>  <ref_pdb>  (207) 
Z0846a

>  <HIPPO Compound ID>  (207) 
136952

>  <name>  (207) 
P68834

>  <inspiration_score>  (207) 
None

$$$$
P68836
     RDKit          3D

 20 21  0  0  0  0  0  0  0  0999 V2000
   -5.7403    7.5198  -24.2238 C   0  0  0  0  0  0  0  0  0  0  0  0
   -5.3410    7.8917  -22.9953 C   0  0  0  0  0  0  0  0  0  0  0  0
   -4.9025    9.2985  -22.7146 C   0  0  0  0  0  0  0  0  0  0  0  0
   -5.3604    6.9247  -21.8312 C   0  0  0  0  0  0  0  0  0  0  0  0
   -4.0017    6.6311  -21.1908 C   0  0  0  0  0  0  0  0  0  0  0  0
   -4.0814    5.4345  -20.2377 C   0  0  0  0  0  0  0  0  0  0  0  0
   -4.3465    5.8078  -18.7792 C   0  0  0  0  0  0  0  0  0  0  0  0
   -3.5705    6.4122  -18.1437 O   0  0  0  0  0  0  0  0  0  0  0  0
   -5.7038    5.1570  -18.3659 N   0  0  0  0  0  0  0  0  0  0  0  0
   -6.3094    5.0419  -17.1130 C   0  0  0  0  0  0  0  0  0  0  0  0
   -5.5958    5.3374  -15.9497 C   0  0  0  0  0  0  0  0  0  0  0  0
   -6.1423    5.1022  -14.6677 C   0  0  0  0  0  0  0  0  0  0  0  0
   -7.4210    4.5813  -14.5080 C   0  0  0  0  0  0  0  0  0  0  0  0
   -8.1188    4.3489  -15.6578 C   0  0  0  0  0  0  0  0  0  0  0  0
   -9.4321    3.9369  -15.7722 N   0  0  0  0  0  0  0  0  0  0  0  0
   -9.7940    3.9550  -17.1147 C   0  0  0  0  0  0  0  0  0  0  0  0
  -10.8998    3.7370  -17.5773 O   0  0  0  0  0  0  0  0  0  0  0  0
   -8.6366    4.2643  -17.8277 N   0  0  0  0  0  0  0  0  0  0  0  0
   -8.6705    4.6431  -19.1810 C   0  0  0  0  0  0  0  0  0  0  0  0
   -7.5981    4.5621  -16.9366 C   0  0  0  0  0  0  0  0  0  0  0  0
  1  2  2  0
  2  3  1  0
  2  4  1  0
  4  5  1  0
  5  6  1  0
  6  7  1  0
  7  8  2  0
  7  9  1  0
  9 10  1  0
 10 11  2  0
 11 12  1  0
 12 13  2  0
 13 14  1  0
 14 15  1  0
 15 16  1  0
 16 17  2  0
 16 18  1  0
 18 19  1  0
 18 20  1  0
 20 10  1  0
 20 14  2  0
M  END
>  <energy_score>  (208) 
-24.654397

>  <alias>  (208) 
None

>  <HIPPO Pose ID>  (208) 
68836

>  <smiles>  (208) 
C=C(C)CCCC(=O)Nc1cccc2[nH]c(=O)n(C)c12

>  <inchikey>  (208) 
VPZCGYKDEKSRCA-UHFFFAOYSA-N

>  <distance_score>  (208) 
1.385955

>  <ref_mols>  (208) 
Z0846a,Z1597a

>  <ref_pdb>  (208) 
Z0846a

>  <HIPPO Compound ID>  (208) 
136955

>  <name>  (208) 
P68836

>  <inspiration_score>  (208) 
None

$$$$
P68838
     RDKit          3D

 20 21  0  0  0  0  0  0  0  0999 V2000
   -5.6750   10.2055  -23.7293 C   0  0  0  0  0  0  0  0  0  0  0  0
   -5.1837    9.1395  -23.0844 C   0  0  0  0  0  0  0  0  0  0  0  0
   -4.0897    9.2223  -22.0569 C   0  0  0  0  0  0  0  0  0  0  0  0
   -4.2701    8.3244  -20.8229 C   0  0  0  0  0  0  0  0  0  0  0  0
   -4.4363    6.8347  -21.1626 C   0  0  0  0  0  0  0  0  0  0  0  0
   -3.7837    5.8924  -20.1577 C   0  0  0  0  0  0  0  0  0  0  0  0
   -4.2819    5.9724  -18.7204 C   0  0  0  0  0  0  0  0  0  0  0  0
   -3.6036    6.3634  -17.8511 O   0  0  0  0  0  0  0  0  0  0  0  0
   -5.7159    5.3656  -18.6864 N   0  0  0  0  0  0  0  0  0  0  0  0
   -6.5342    5.0425  -17.6090 C   0  0  0  0  0  0  0  0  0  0  0  0
   -6.0778    5.0672  -16.2886 C   0  0  0  0  0  0  0  0  0  0  0  0
   -6.9115    4.6876  -15.2308 C   0  0  0  0  0  0  0  0  0  0  0  0
   -6.3101    4.8274  -13.4520 Br  0  0  0  0  0  0  0  0  0  0  0  0
   -8.2139    4.2521  -15.4318 C   0  0  0  0  0  0  0  0  0  0  0  0
   -8.6992    4.2941  -16.7309 C   0  0  0  0  0  0  0  0  0  0  0  0
   -9.9783    4.1006  -17.1473 N   0  0  0  0  0  0  0  0  0  0  0  0
   -9.9765    4.5922  -18.3499 C   0  0  0  0  0  0  0  0  0  0  0  0
  -11.0567    5.0655  -18.9267 O   0  0  0  0  0  0  0  0  0  0  0  0
   -8.7177    4.7151  -18.8569 N   0  0  0  0  0  0  0  0  0  0  0  0
   -7.8691    4.6834  -17.7815 C   0  0  0  0  0  0  0  0  0  0  0  0
  1  2  2  0
  2  3  1  0
  3  4  1  0
  4  5  1  0
  5  6  1  0
  6  7  1  0
  7  8  2  0
  7  9  1  0
  9 10  1  0
 10 11  2  0
 11 12  1  0
 12 13  1  0
 12 14  2  0
 14 15  1  0
 15 16  1  0
 16 17  2  0
 17 18  1  0
 17 19  1  0
 19 20  1  0
 20 10  1  0
 20 15  2  0
M  END
>  <energy_score>  (209) 
-13.799035

>  <alias>  (209) 
None

>  <HIPPO Pose ID>  (209) 
68838

>  <smiles>  (209) 
C=CCCCCC(=O)Nc1cc(Br)cc2nc(O)[nH]c12

>  <inchikey>  (209) 
IFAFDXUKGZJOMY-UHFFFAOYSA-N

>  <distance_score>  (209) 
0.973626

>  <ref_mols>  (209) 
Z0846a,Z1597a

>  <ref_pdb>  (209) 
Z0846a

>  <HIPPO Compound ID>  (209) 
136957

>  <name>  (209) 
P68838

>  <inspiration_score>  (209) 
None

$$$$
P68840
     RDKit          3D

 20 21  0  0  0  0  0  0  0  0999 V2000
   -5.8651    7.8410  -24.4061 C   0  0  0  0  0  0  0  0  0  0  0  0
   -4.9241    7.9333  -23.2174 C   0  0  1  0  0  0  0  0  0  0  0  0
   -5.0519    9.1763  -22.6745 F   0  0  0  0  0  0  0  0  0  0  0  0
   -5.2592    6.8961  -22.1532 C   0  0  0  0  0  0  0  0  0  0  0  0
   -4.1962    6.7612  -21.0566 C   0  0  0  0  0  0  0  0  0  0  0  0
   -4.2419    5.3824  -20.3983 C   0  0  0  0  0  0  0  0  0  0  0  0
   -4.4594    5.3948  -18.8963 C   0  0  0  0  0  0  0  0  0  0  0  0
   -3.5740    5.4879  -18.1370 O   0  0  0  0  0  0  0  0  0  0  0  0
   -5.9794    5.1636  -18.6500 N   0  0  0  0  0  0  0  0  0  0  0  0
   -6.6740    4.9155  -17.4747 C   0  0  0  0  0  0  0  0  0  0  0  0
   -6.0699    4.9664  -16.2160 C   0  0  0  0  0  0  0  0  0  0  0  0
   -6.8217    4.7213  -15.0635 C   0  0  0  0  0  0  0  0  0  0  0  0
   -6.1004    4.8667  -13.5163 Cl  0  0  0  0  0  0  0  0  0  0  0  0
   -8.1759    4.4106  -15.1022 C   0  0  0  0  0  0  0  0  0  0  0  0
   -8.7457    4.4085  -16.3598 C   0  0  0  0  0  0  0  0  0  0  0  0
  -10.0411    4.2906  -16.7509 N   0  0  0  0  0  0  0  0  0  0  0  0
  -10.0906    4.5606  -18.0757 C   0  0  0  0  0  0  0  0  0  0  0  0
  -11.2089    4.8533  -18.6978 O   0  0  0  0  0  0  0  0  0  0  0  0
   -8.9036    4.6094  -18.6142 N   0  0  0  0  0  0  0  0  0  0  0  0
   -8.0482    4.6302  -17.5407 C   0  0  0  0  0  0  0  0  0  0  0  0
  2  1  1  6
  2  3  1  0
  2  4  1  0
  4  5  1  0
  5  6  1  0
  6  7  1  0
  7  8  2  0
  7  9  1  0
  9 10  1  0
 10 11  2  0
 11 12  1  0
 12 13  1  0
 12 14  2  0
 14 15  1  0
 15 16  1  0
 16 17  1  0
 17 18  1  0
 17 19  2  0
 19 20  1  0
 20 10  1  0
 20 15  2  0
M  END
>  <energy_score>  (210) 
-6.545322

>  <alias>  (210) 
None

>  <HIPPO Pose ID>  (210) 
68840

>  <smiles>  (210) 
C[C@@H](F)CCCC(=O)Nc1cc(Cl)cc2[nH]c(O)nc12

>  <inchikey>  (210) 
WPFBXYKLGLIQOE-SSDOTTSWSA-N

>  <distance_score>  (210) 
0.943435

>  <ref_mols>  (210) 
Z0846a,Z1597a

>  <ref_pdb>  (210) 
Z0846a

>  <HIPPO Compound ID>  (210) 
136958

>  <name>  (210) 
P68840

>  <inspiration_score>  (210) 
None

$$$$
P68841
     RDKit          3D

 20 21  0  0  0  0  0  0  0  0999 V2000
   -5.0227    9.2213  -22.8167 C   0  0  0  0  0  0  0  0  0  0  0  0
   -5.1307    7.7407  -23.1469 C   0  0  2  0  0  0  0  0  0  0  0  0
   -6.3052    7.5597  -23.9385 O   0  0  0  0  0  0  0  0  0  0  0  0
   -5.2202    6.8519  -21.8977 C   0  0  0  0  0  0  0  0  0  0  0  0
   -3.9266    6.8054  -21.0790 C   0  0  0  0  0  0  0  0  0  0  0  0
   -3.7760    5.5386  -20.2409 C   0  0  0  0  0  0  0  0  0  0  0  0
   -4.2073    5.6397  -18.7841 C   0  0  0  0  0  0  0  0  0  0  0  0
   -3.4532    5.8995  -17.9282 O   0  0  0  0  0  0  0  0  0  0  0  0
   -5.7122    5.2425  -18.7171 N   0  0  0  0  0  0  0  0  0  0  0  0
   -6.5346    5.0016  -17.6212 C   0  0  0  0  0  0  0  0  0  0  0  0
   -6.0703    5.0388  -16.3044 C   0  0  0  0  0  0  0  0  0  0  0  0
   -6.9075    4.6926  -15.2371 C   0  0  0  0  0  0  0  0  0  0  0  0
   -6.2933    4.8383  -13.4632 Br  0  0  0  0  0  0  0  0  0  0  0  0
   -8.2190    4.2776  -15.4254 C   0  0  0  0  0  0  0  0  0  0  0  0
   -8.7106    4.3133  -16.7221 C   0  0  0  0  0  0  0  0  0  0  0  0
   -9.9924    4.1279  -17.1322 N   0  0  0  0  0  0  0  0  0  0  0  0
   -9.9901    4.6022  -18.3418 C   0  0  0  0  0  0  0  0  0  0  0  0
  -11.0689    5.0717  -18.9235 O   0  0  0  0  0  0  0  0  0  0  0  0
   -8.7321    4.7120  -18.8531 N   0  0  0  0  0  0  0  0  0  0  0  0
   -7.8798    4.6770  -17.7806 C   0  0  0  0  0  0  0  0  0  0  0  0
  2  1  1  1
  2  3  1  0
  2  4  1  0
  4  5  1  0
  5  6  1  0
  6  7  1  0
  7  8  2  0
  7  9  1  0
  9 10  1  0
 10 11  2  0
 11 12  1  0
 12 13  1  0
 12 14  2  0
 14 15  1  0
 15 16  1  0
 16 17  2  0
 17 18  1  0
 17 19  1  0
 19 20  1  0
 20 10  1  0
 20 15  2  0
M  END
>  <energy_score>  (211) 
-23.289774

>  <alias>  (211) 
None

>  <HIPPO Pose ID>  (211) 
68841

>  <smiles>  (211) 
C[C@H](O)CCCC(=O)Nc1cc(Br)cc2nc(O)[nH]c12

>  <inchikey>  (211) 
OZLIPXBPCMXLGT-ZETCQYMHSA-N

>  <distance_score>  (211) 
0.95677

>  <ref_mols>  (211) 
Z0846a,Z1597a

>  <ref_pdb>  (211) 
Z0846a

>  <HIPPO Compound ID>  (211) 
136959

>  <name>  (211) 
P68841

>  <inspiration_score>  (211) 
None

$$$$
P68846
     RDKit          3D

 20 21  0  0  0  0  0  0  0  0999 V2000
   -5.7438    7.2185  -24.2128 C   0  0  0  0  0  0  0  0  0  0  0  0
   -5.3041    8.0513  -23.0196 C   0  0  0  0  0  0  0  0  0  0  0  0
   -4.4181    7.2861  -22.0143 C   0  0  1  0  0  0  0  0  0  0  0  0
   -3.7501    8.2899  -21.0751 C   0  0  0  0  0  0  0  0  0  0  0  0
   -5.2038    6.2546  -21.1848 C   0  0  0  0  0  0  0  0  0  0  0  0
   -4.3146    5.3463  -20.3295 C   0  0  0  0  0  0  0  0  0  0  0  0
   -4.4006    5.5983  -18.8292 C   0  0  0  0  0  0  0  0  0  0  0  0
   -3.5004    5.9886  -18.1921 O   0  0  0  0  0  0  0  0  0  0  0  0
   -5.8240    5.1393  -18.3906 N   0  0  0  0  0  0  0  0  0  0  0  0
   -6.3720    4.9842  -17.1202 C   0  0  0  0  0  0  0  0  0  0  0  0
   -5.6106    5.2023  -15.9714 C   0  0  0  0  0  0  0  0  0  0  0  0
   -6.1289    4.9352  -14.6848 C   0  0  0  0  0  0  0  0  0  0  0  0
   -7.4226    4.4574  -14.5094 C   0  0  0  0  0  0  0  0  0  0  0  0
   -8.1616    4.2997  -15.6466 C   0  0  0  0  0  0  0  0  0  0  0  0
   -9.4857    3.9205  -15.7430 N   0  0  0  0  0  0  0  0  0  0  0  0
   -9.8767    3.9750  -17.0780 C   0  0  0  0  0  0  0  0  0  0  0  0
  -10.9873    3.7553  -17.5289 O   0  0  0  0  0  0  0  0  0  0  0  0
   -8.7378    4.3086  -17.8040 N   0  0  0  0  0  0  0  0  0  0  0  0
   -8.7925    4.6922  -19.1561 C   0  0  0  0  0  0  0  0  0  0  0  0
   -7.6716    4.5479  -16.9286 C   0  0  0  0  0  0  0  0  0  0  0  0
  1  2  1  0
  2  3  1  0
  3  4  1  1
  3  5  1  0
  5  6  1  0
  6  7  1  0
  7  8  2  0
  7  9  1  0
  9 10  1  0
 10 11  2  0
 11 12  1  0
 12 13  2  0
 13 14  1  0
 14 15  1  0
 15 16  1  0
 16 17  2  0
 16 18  1  0
 18 19  1  0
 18 20  1  0
 20 10  1  0
 20 14  2  0
M  END
>  <energy_score>  (212) 
-9.966305

>  <alias>  (212) 
None

>  <HIPPO Pose ID>  (212) 
68846

>  <smiles>  (212) 
CC[C@@H](C)CCC(=O)Nc1cccc2[nH]c(=O)n(C)c12

>  <inchikey>  (212) 
BUXZELWAWJPCET-SNVBAGLBSA-N

>  <distance_score>  (212) 
1.490556

>  <ref_mols>  (212) 
Z0846a,Z1597a

>  <ref_pdb>  (212) 
Z0846a

>  <HIPPO Compound ID>  (212) 
136961

>  <name>  (212) 
P68846

>  <inspiration_score>  (212) 
None

$$$$
P68847
     RDKit          3D

 20 21  0  0  0  0  0  0  0  0999 V2000
   -4.9256    9.2309  -22.8185 C   0  0  0  0  0  0  0  0  0  0  0  0
   -5.0942    7.7730  -23.2146 C   0  0  2  0  0  0  0  0  0  0  0  0
   -6.2489    7.6856  -24.0525 O   0  0  0  0  0  0  0  0  0  0  0  0
   -5.2887    6.8467  -22.0107 C   0  0  0  0  0  0  0  0  0  0  0  0
   -4.0371    6.6326  -21.1549 C   0  0  0  0  0  0  0  0  0  0  0  0
   -4.1650    5.3929  -20.2640 C   0  0  0  0  0  0  0  0  0  0  0  0
   -4.3480    5.6959  -18.7787 C   0  0  0  0  0  0  0  0  0  0  0  0
   -3.4932    6.1650  -18.1306 O   0  0  0  0  0  0  0  0  0  0  0  0
   -5.7599    5.1764  -18.3659 N   0  0  0  0  0  0  0  0  0  0  0  0
   -6.3445    5.0470  -17.1057 C   0  0  0  0  0  0  0  0  0  0  0  0
   -5.6227    5.3307  -15.9453 C   0  0  0  0  0  0  0  0  0  0  0  0
   -6.1642    5.0888  -14.6625 C   0  0  0  0  0  0  0  0  0  0  0  0
   -7.4444    4.5717  -14.5005 C   0  0  0  0  0  0  0  0  0  0  0  0
   -8.1475    4.3473  -15.6489 C   0  0  0  0  0  0  0  0  0  0  0  0
   -9.4604    3.9351  -15.7624 N   0  0  0  0  0  0  0  0  0  0  0  0
   -9.8274    3.9619  -17.1040 C   0  0  0  0  0  0  0  0  0  0  0  0
  -10.9340    3.7403  -17.5628 O   0  0  0  0  0  0  0  0  0  0  0  0
   -8.6742    4.2781  -17.8184 N   0  0  0  0  0  0  0  0  0  0  0  0
   -8.7156    4.6653  -19.1703 C   0  0  0  0  0  0  0  0  0  0  0  0
   -7.6329    4.5691  -16.9278 C   0  0  0  0  0  0  0  0  0  0  0  0
  2  1  1  1
  2  3  1  0
  2  4  1  0
  4  5  1  0
  5  6  1  0
  6  7  1  0
  7  8  2  0
  7  9  1  0
  9 10  1  0
 10 11  2  0
 11 12  1  0
 12 13  2  0
 13 14  1  0
 14 15  1  0
 15 16  1  0
 16 17  2  0
 16 18  1  0
 18 19  1  0
 18 20  1  0
 20 10  1  0
 20 14  2  0
M  END
>  <energy_score>  (213) 
-20.714296

>  <alias>  (213) 
None

>  <HIPPO Pose ID>  (213) 
68847

>  <smiles>  (213) 
C[C@H](O)CCCC(=O)Nc1cccc2[nH]c(=O)n(C)c12

>  <inchikey>  (213) 
JXSHREYYEHTHEM-VIFPVBQESA-N

>  <distance_score>  (213) 
1.25688

>  <ref_mols>  (213) 
Z0846a,Z1597a

>  <ref_pdb>  (213) 
Z0846a

>  <HIPPO Compound ID>  (213) 
136962

>  <name>  (213) 
P68847

>  <inspiration_score>  (213) 
None

$$$$
P68854
     RDKit          3D

 21 22  0  0  0  0  0  0  0  0999 V2000
   -1.8233    4.9924  -19.7632 C   0  0  0  0  0  0  0  0  0  0  0  0
   -2.5582    5.1679  -20.9768 O   0  0  0  0  0  0  0  0  0  0  0  0
   -2.7317    6.5683  -21.2881 C   0  0  2  0  0  0  0  0  0  0  0  0
   -4.1769    6.8735  -21.3387 N   0  0  0  0  0  0  0  0  0  0  0  0
   -4.8241    6.7695  -20.0211 C   0  0  0  0  0  0  0  0  0  0  0  0
   -5.4446    5.3924  -19.7615 C   0  0  0  0  0  0  0  0  0  0  0  0
   -5.9891    5.2691  -18.3871 C   0  0  0  0  0  0  0  0  0  0  0  0
   -5.3749    5.6777  -17.2936 N   0  0  0  0  0  0  0  0  0  0  0  0
   -6.2167    5.3572  -16.2609 C   0  0  0  0  0  0  0  0  0  0  0  0
   -6.0543    5.5387  -14.8884 C   0  0  0  0  0  0  0  0  0  0  0  0
   -7.0983    5.1292  -14.0608 C   0  0  0  0  0  0  0  0  0  0  0  0
   -6.9704    5.2736  -12.7379 F   0  0  0  0  0  0  0  0  0  0  0  0
   -8.2776    4.5816  -14.5522 C   0  0  0  0  0  0  0  0  0  0  0  0
   -8.4532    4.3922  -15.9163 C   0  0  0  0  0  0  0  0  0  0  0  0
   -7.3850    4.7766  -16.7294 C   0  0  0  0  0  0  0  0  0  0  0  0
   -7.1740    4.6536  -18.0743 N   0  0  0  0  0  0  0  0  0  0  0  0
   -8.0547    3.8983  -18.9122 C   0  0  0  0  0  0  0  0  0  0  0  0
   -1.9650    6.9036  -22.6150 C   0  0  0  0  0  0  0  0  0  0  0  0
   -0.6398    6.6481  -22.4861 F   0  0  0  0  0  0  0  0  0  0  0  0
   -2.4213    6.1637  -23.6544 F   0  0  0  0  0  0  0  0  0  0  0  0
   -2.0858    8.2094  -22.9518 F   0  0  0  0  0  0  0  0  0  0  0  0
  1  2  1  0
  2  3  1  0
  3  4  1  6
  4  5  1  0
  5  6  1  0
  6  7  1  0
  7  8  2  0
  8  9  1  0
  9 10  2  0
 10 11  1  0
 11 12  1  0
 11 13  2  0
 13 14  1  0
 14 15  2  0
 15 16  1  0
 16 17  1  0
  3 18  1  0
 18 19  1  0
 18 20  1  0
 18 21  1  0
 16  7  1  0
 15  9  1  0
M  END
>  <energy_score>  (214) 
-16.548323

>  <alias>  (214) 
None

>  <HIPPO Pose ID>  (214) 
68854

>  <smiles>  (214) 
CO[C@H](NCCc1nc2cc(F)ccc2n1C)C(F)(F)F

>  <inchikey>  (214) 
CXOGCIAYKHUIJG-LBPRGKRZSA-N

>  <distance_score>  (214) 
1.362265

>  <ref_mols>  (214) 
Z3880a,Z0472a

>  <ref_pdb>  (214) 
Z3880a

>  <HIPPO Compound ID>  (214) 
137047

>  <name>  (214) 
P68854

>  <inspiration_score>  (214) 
None

$$$$
P68859
     RDKit          3D

 22 23  0  0  0  0  0  0  0  0999 V2000
   -3.4935    7.7578  -24.4530 C   0  0  0  0  0  0  0  0  0  0  0  0
   -4.1550    7.5056  -23.1105 C   0  0  0  0  0  0  0  0  0  0  0  0
   -3.4202    6.5392  -22.3660 O   0  0  0  0  0  0  0  0  0  0  0  0
   -2.3498    7.0706  -21.5715 C   0  0  1  0  0  0  0  0  0  0  0  0
   -2.8854    7.8068  -20.4043 N   0  0  0  0  0  0  0  0  0  0  0  0
   -3.4117    6.9639  -19.3141 C   0  0  0  0  0  0  0  0  0  0  0  0
   -4.6206    6.0691  -19.6413 C   0  0  0  0  0  0  0  0  0  0  0  0
   -5.3266    5.6197  -18.3953 C   0  0  0  0  0  0  0  0  0  0  0  0
   -4.9751    5.9128  -17.1585 N   0  0  0  0  0  0  0  0  0  0  0  0
   -5.9889    5.4455  -16.3617 C   0  0  0  0  0  0  0  0  0  0  0  0
   -6.1345    5.5205  -14.9760 C   0  0  0  0  0  0  0  0  0  0  0  0
   -7.3117    5.0184  -14.4188 C   0  0  0  0  0  0  0  0  0  0  0  0
   -7.5301    5.1015  -12.7180 Cl  0  0  0  0  0  0  0  0  0  0  0  0
   -8.3227    4.4656  -15.2032 C   0  0  0  0  0  0  0  0  0  0  0  0
   -8.1754    4.3497  -16.5824 C   0  0  0  0  0  0  0  0  0  0  0  0
   -6.9847    4.8477  -17.1174 C   0  0  0  0  0  0  0  0  0  0  0  0
   -6.4711    4.8613  -18.3846 N   0  0  0  0  0  0  0  0  0  0  0  0
   -7.0289    4.1255  -19.4689 C   0  0  0  0  0  0  0  0  0  0  0  0
   -1.3097    5.9274  -21.3123 C   0  0  0  0  0  0  0  0  0  0  0  0
   -0.5830    5.6830  -22.4302 F   0  0  0  0  0  0  0  0  0  0  0  0
   -1.9388    4.7685  -20.9806 F   0  0  0  0  0  0  0  0  0  0  0  0
   -0.4498    6.2581  -20.3237 F   0  0  0  0  0  0  0  0  0  0  0  0
  1  2  1  0
  2  3  1  0
  3  4  1  0
  4  5  1  1
  5  6  1  0
  6  7  1  0
  7  8  1  0
  8  9  2  0
  9 10  1  0
 10 11  2  0
 11 12  1  0
 12 13  1  0
 12 14  2  0
 14 15  1  0
 15 16  2  0
 16 17  1  0
 17 18  1  0
  4 19  1  0
 19 20  1  0
 19 21  1  0
 19 22  1  0
 17  8  1  0
 16 10  1  0
M  END
>  <energy_score>  (215) 
-24.893231

>  <alias>  (215) 
None

>  <HIPPO Pose ID>  (215) 
68859

>  <smiles>  (215) 
CCO[C@@H](NCCc1nc2cc(Cl)ccc2n1C)C(F)(F)F

>  <inchikey>  (215) 
XTLBJEDMVAZVIE-CYBMUJFWSA-N

>  <distance_score>  (215) 
1.242444

>  <ref_mols>  (215) 
Z3880a,Z0472a

>  <ref_pdb>  (215) 
Z3880a

>  <HIPPO Compound ID>  (215) 
137070

>  <name>  (215) 
P68859

>  <inspiration_score>  (215) 
None

$$$$
P68860
     RDKit          3D

 22 23  0  0  0  0  0  0  0  0999 V2000
   -2.1387   10.3757  -16.7909 C   0  0  0  0  0  0  0  0  0  0  0  0
   -3.0620   10.6253  -17.9678 C   0  0  0  0  0  0  0  0  0  0  0  0
   -3.6916    9.3937  -18.3061 O   0  0  0  0  0  0  0  0  0  0  0  0
   -4.7674    9.5183  -19.2455 C   0  0  2  0  0  0  0  0  0  0  0  0
   -5.5161    8.2392  -19.2396 N   0  0  0  0  0  0  0  0  0  0  0  0
   -4.7198    7.1379  -19.8269 C   0  0  0  0  0  0  0  0  0  0  0  0
   -5.4283    5.7709  -19.7648 C   0  0  0  0  0  0  0  0  0  0  0  0
   -5.8923    5.4095  -18.3950 C   0  0  0  0  0  0  0  0  0  0  0  0
   -5.2866    5.7534  -17.2732 N   0  0  0  0  0  0  0  0  0  0  0  0
   -6.1354    5.3710  -16.2664 C   0  0  0  0  0  0  0  0  0  0  0  0
   -6.0080    5.5193  -14.8861 C   0  0  0  0  0  0  0  0  0  0  0  0
   -7.0693    5.0833  -14.0942 C   0  0  0  0  0  0  0  0  0  0  0  0
   -6.9822    5.2139  -12.7663 F   0  0  0  0  0  0  0  0  0  0  0  0
   -8.2277    4.5300  -14.6273 C   0  0  0  0  0  0  0  0  0  0  0  0
   -8.3621    4.3587  -15.9988 C   0  0  0  0  0  0  0  0  0  0  0  0
   -7.2811    4.7814  -16.7761 C   0  0  0  0  0  0  0  0  0  0  0  0
   -7.0374    4.7062  -18.1193 N   0  0  0  0  0  0  0  0  0  0  0  0
   -7.8752    3.9498  -18.9972 C   0  0  0  0  0  0  0  0  0  0  0  0
   -4.3530   10.0900  -20.6504 C   0  0  0  0  0  0  0  0  0  0  0  0
   -4.0133   11.4009  -20.5599 F   0  0  0  0  0  0  0  0  0  0  0  0
   -3.3011    9.4346  -21.1908 F   0  0  0  0  0  0  0  0  0  0  0  0
   -5.3822   10.0215  -21.5323 F   0  0  0  0  0  0  0  0  0  0  0  0
  1  2  1  0
  2  3  1  0
  3  4  1  0
  4  5  1  6
  5  6  1  0
  6  7  1  0
  7  8  1  0
  8  9  2  0
  9 10  1  0
 10 11  2  0
 11 12  1  0
 12 13  1  0
 12 14  2  0
 14 15  1  0
 15 16  2  0
 16 17  1  0
 17 18  1  0
  4 19  1  0
 19 20  1  0
 19 21  1  0
 19 22  1  0
 17  8  1  0
 16 10  1  0
M  END
>  <energy_score>  (216) 
-31.076505

>  <alias>  (216) 
None

>  <HIPPO Pose ID>  (216) 
68860

>  <smiles>  (216) 
CCO[C@H](NCCc1nc2cc(F)ccc2n1C)C(F)(F)F

>  <inchikey>  (216) 
ATQTYYQOYPSOQB-ZDUSSCGKSA-N

>  <distance_score>  (216) 
1.335616

>  <ref_mols>  (216) 
Z3880a,Z0472a

>  <ref_pdb>  (216) 
Z3880a

>  <HIPPO Compound ID>  (216) 
137071

>  <name>  (216) 
P68860

>  <inspiration_score>  (216) 
None

$$$$
P68864
     RDKit          3D

 22 23  0  0  0  0  0  0  0  0999 V2000
   -7.6972    4.9290  -12.9500 C   0  0  0  0  0  0  0  0  0  0  0  0
   -7.3936    4.9174  -14.4154 C   0  0  0  0  0  0  0  0  0  0  0  0
   -8.3553    4.4665  -15.3277 C   0  0  0  0  0  0  0  0  0  0  0  0
   -8.0977    4.4150  -16.6977 C   0  0  0  0  0  0  0  0  0  0  0  0
   -6.8431    4.8677  -17.1139 C   0  0  0  0  0  0  0  0  0  0  0  0
   -5.8870    5.3717  -16.2464 C   0  0  0  0  0  0  0  0  0  0  0  0
   -6.1561    5.3959  -14.8748 C   0  0  0  0  0  0  0  0  0  0  0  0
   -4.7733    5.8032  -16.9239 N   0  0  0  0  0  0  0  0  0  0  0  0
   -5.0233    5.5729  -18.1957 C   0  0  0  0  0  0  0  0  0  0  0  0
   -4.1399    6.0074  -19.3227 C   0  0  0  0  0  0  0  0  0  0  0  0
   -4.2673    7.5274  -19.5235 C   0  0  0  0  0  0  0  0  0  0  0  0
   -3.3478    8.1284  -20.4967 N   0  0  0  0  0  0  0  0  0  0  0  0
   -3.6541    7.8857  -21.9233 C   0  0  1  0  0  0  0  0  0  0  0  0
   -3.0317    6.6004  -22.3278 N   0  0  0  0  0  0  0  0  0  0  0  0
   -2.7856    6.5472  -23.4748 C   0  0  0  0  0  0  0  0  0  0  0  0
   -2.5170    6.5021  -24.6160 O   0  0  0  0  0  0  0  0  0  0  0  0
   -5.1527    8.0094  -22.3996 C   0  0  0  0  0  0  0  0  0  0  0  0
   -5.2338    7.9993  -23.7501 F   0  0  0  0  0  0  0  0  0  0  0  0
   -5.7111    9.1717  -21.9800 F   0  0  0  0  0  0  0  0  0  0  0  0
   -5.9162    7.0028  -21.9320 F   0  0  0  0  0  0  0  0  0  0  0  0
   -6.2239    4.9202  -18.3312 N   0  0  0  0  0  0  0  0  0  0  0  0
   -6.7363    4.3487  -19.5316 C   0  0  0  0  0  0  0  0  0  0  0  0
  1  2  1  0
  2  3  2  0
  3  4  1  0
  4  5  2  0
  5  6  1  0
  6  7  2  0
  6  8  1  0
  8  9  2  0
  9 10  1  0
 10 11  1  0
 11 12  1  0
 13 12  1  1
 13 14  1  0
 14 15  2  0
 15 16  2  0
 13 17  1  0
 17 18  1  0
 17 19  1  0
 17 20  1  0
  9 21  1  0
 21 22  1  0
  7  2  1  0
 21  5  1  0
M  END
>  <energy_score>  (217) 
-39.516702

>  <alias>  (217) 
None

>  <HIPPO Pose ID>  (217) 
68864

>  <smiles>  (217) 
Cc1ccc2c(c1)nc(CCN[C@@H](N=C=O)C(F)(F)F)n2C

>  <inchikey>  (217) 
HKLONWRQTYCKMG-ZDUSSCGKSA-N

>  <distance_score>  (217) 
1.274262

>  <ref_mols>  (217) 
Z3880a,Z0472a

>  <ref_pdb>  (217) 
Z3880a

>  <HIPPO Compound ID>  (217) 
137073

>  <name>  (217) 
P68864

>  <inspiration_score>  (217) 
None

$$$$
P68868
     RDKit          3D

 22 23  0  0  0  0  0  0  0  0999 V2000
   -7.1663    5.1595  -12.6057 C   0  0  0  0  0  0  0  0  0  0  0  0
   -7.1861    5.0519  -14.0967 C   0  0  0  0  0  0  0  0  0  0  0  0
   -8.3248    4.5431  -14.7316 C   0  0  0  0  0  0  0  0  0  0  0  0
   -8.3824    4.3910  -16.1129 C   0  0  0  0  0  0  0  0  0  0  0  0
   -7.2535    4.7985  -16.8240 C   0  0  0  0  0  0  0  0  0  0  0  0
   -6.1313    5.3575  -16.2412 C   0  0  0  0  0  0  0  0  0  0  0  0
   -6.0839    5.4867  -14.8513 C   0  0  0  0  0  0  0  0  0  0  0  0
   -5.2156    5.7275  -17.1897 N   0  0  0  0  0  0  0  0  0  0  0  0
   -5.7584    5.4108  -18.3509 C   0  0  0  0  0  0  0  0  0  0  0  0
   -5.1638    5.7968  -19.6646 C   0  0  0  0  0  0  0  0  0  0  0  0
   -4.9788    7.3266  -19.7286 C   0  0  0  0  0  0  0  0  0  0  0  0
   -4.0022    7.8783  -20.6724 N   0  0  0  0  0  0  0  0  0  0  0  0
   -4.1452    7.4662  -22.0851 C   0  0  1  0  0  0  0  0  0  0  0  0
   -4.3006    8.7407  -22.8477 N   0  0  0  0  0  0  0  0  0  0  0  0
   -5.5935    9.3733  -22.5829 C   0  0  0  0  0  0  0  0  0  0  0  0
   -4.1575    8.5447  -24.2937 C   0  0  0  0  0  0  0  0  0  0  0  0
   -2.9313    6.5422  -22.5420 C   0  0  0  0  0  0  0  0  0  0  0  0
   -2.7520    5.4927  -21.6891 F   0  0  0  0  0  0  0  0  0  0  0  0
   -1.7541    7.2132  -22.5574 F   0  0  0  0  0  0  0  0  0  0  0  0
   -3.1173    6.0083  -23.7705 F   0  0  0  0  0  0  0  0  0  0  0  0
   -6.9301    4.7253  -18.1521 N   0  0  0  0  0  0  0  0  0  0  0  0
   -7.7253    3.9666  -19.0652 C   0  0  0  0  0  0  0  0  0  0  0  0
  1  2  1  0
  2  3  2  0
  3  4  1  0
  4  5  2  0
  5  6  1  0
  6  7  2  0
  6  8  1  0
  8  9  2  0
  9 10  1  0
 10 11  1  0
 11 12  1  0
 13 12  1  1
 13 14  1  0
 14 15  1  0
 14 16  1  0
 13 17  1  0
 17 18  1  0
 17 19  1  0
 17 20  1  0
  9 21  1  0
 21 22  1  0
  7  2  1  0
 21  5  1  0
M  END
>  <energy_score>  (218) 
-47.523356

>  <alias>  (218) 
None

>  <HIPPO Pose ID>  (218) 
68868

>  <smiles>  (218) 
Cc1ccc2c(c1)nc(CCN[C@@H](N(C)C)C(F)(F)F)n2C

>  <inchikey>  (218) 
MLWVCKROGFANPW-AWEZNQCLSA-N

>  <distance_score>  (218) 
1.233698

>  <ref_mols>  (218) 
Z3880a,Z0472a

>  <ref_pdb>  (218) 
Z3880a

>  <HIPPO Compound ID>  (218) 
137077

>  <name>  (218) 
P68868

>  <inspiration_score>  (218) 
None

$$$$
P68870
     RDKit          3D

 23 24  0  0  0  0  0  0  0  0999 V2000
   -1.8956    5.8908  -24.4087 C   0  0  0  0  0  0  0  0  0  0  0  0
   -2.7710    6.5042  -23.8607 C   0  0  0  0  0  0  0  0  0  0  0  0
   -3.8326    7.2630  -23.1905 C   0  0  0  0  0  0  0  0  0  0  0  0
   -3.4178    7.5319  -21.8532 O   0  0  0  0  0  0  0  0  0  0  0  0
   -4.4919    7.8862  -20.9731 C   0  0  1  0  0  0  0  0  0  0  0  0
   -3.9575    7.9810  -19.5980 N   0  0  0  0  0  0  0  0  0  0  0  0
   -3.1688    6.8169  -19.1623 C   0  0  0  0  0  0  0  0  0  0  0  0
   -3.8766    5.4542  -19.1418 C   0  0  0  0  0  0  0  0  0  0  0  0
   -4.9109    5.3441  -18.0682 C   0  0  0  0  0  0  0  0  0  0  0  0
   -4.6996    5.6054  -16.7956 N   0  0  0  0  0  0  0  0  0  0  0  0
   -5.8675    5.2920  -16.1507 C   0  0  0  0  0  0  0  0  0  0  0  0
   -6.1647    5.3567  -14.7897 C   0  0  0  0  0  0  0  0  0  0  0  0
   -7.4376    4.9651  -14.3868 C   0  0  0  0  0  0  0  0  0  0  0  0
   -7.7418    5.0129  -13.0845 F   0  0  0  0  0  0  0  0  0  0  0  0
   -8.4040    4.5349  -15.2899 C   0  0  0  0  0  0  0  0  0  0  0  0
   -8.1242    4.4640  -16.6530 C   0  0  0  0  0  0  0  0  0  0  0  0
   -6.8352    4.8476  -17.0415 C   0  0  0  0  0  0  0  0  0  0  0  0
   -6.1854    4.8616  -18.2451 N   0  0  0  0  0  0  0  0  0  0  0  0
   -6.7333    4.3891  -19.4732 C   0  0  0  0  0  0  0  0  0  0  0  0
   -5.2340    9.2041  -21.4075 C   0  0  0  0  0  0  0  0  0  0  0  0
   -6.1416    9.6058  -20.4799 F   0  0  0  0  0  0  0  0  0  0  0  0
   -5.9227    9.0285  -22.5625 F   0  0  0  0  0  0  0  0  0  0  0  0
   -4.3731   10.2303  -21.5977 F   0  0  0  0  0  0  0  0  0  0  0  0
  1  2  3  0
  2  3  1  0
  3  4  1  0
  4  5  1  0
  5  6  1  1
  6  7  1  0
  7  8  1  0
  8  9  1  0
  9 10  2  0
 10 11  1  0
 11 12  2  0
 12 13  1  0
 13 14  1  0
 13 15  2  0
 15 16  1  0
 16 17  2  0
 17 18  1  0
 18 19  1  0
  5 20  1  0
 20 21  1  0
 20 22  1  0
 20 23  1  0
 18  9  1  0
 17 11  1  0
M  END
>  <energy_score>  (219) 
-20.052282

>  <alias>  (219) 
None

>  <HIPPO Pose ID>  (219) 
68870

>  <smiles>  (219) 
C#CCO[C@@H](NCCc1nc2cc(F)ccc2n1C)C(F)(F)F

>  <inchikey>  (219) 
VWUSBUBRENFBIR-CQSZACIVSA-N

>  <distance_score>  (219) 
1.331913

>  <ref_mols>  (219) 
Z3880a,Z0472a

>  <ref_pdb>  (219) 
Z3880a

>  <HIPPO Compound ID>  (219) 
137093

>  <name>  (219) 
P68870

>  <inspiration_score>  (219) 
None

$$$$
P68871
     RDKit          3D

 23 24  0  0  0  0  0  0  0  0999 V2000
    0.2088    5.8563  -23.3937 C   0  0  0  0  0  0  0  0  0  0  0  0
    0.0331    6.1747  -22.2487 C   0  0  0  0  0  0  0  0  0  0  0  0
   -0.1932    6.5649  -20.8512 C   0  0  0  0  0  0  0  0  0  0  0  0
   -1.5849    6.7990  -20.6679 O   0  0  0  0  0  0  0  0  0  0  0  0
   -2.0115    6.7710  -19.2948 C   0  0  2  0  0  0  0  0  0  0  0  0
   -3.4819    6.9325  -19.2703 N   0  0  0  0  0  0  0  0  0  0  0  0
   -4.1539    5.8722  -20.0337 C   0  0  0  0  0  0  0  0  0  0  0  0
   -5.6699    5.8652  -19.8076 C   0  0  0  0  0  0  0  0  0  0  0  0
   -6.0480    5.4585  -18.4239 C   0  0  0  0  0  0  0  0  0  0  0  0
   -5.4037    5.8161  -17.3264 N   0  0  0  0  0  0  0  0  0  0  0  0
   -6.2058    5.4135  -16.2884 C   0  0  0  0  0  0  0  0  0  0  0  0
   -6.0335    5.5585  -14.9097 C   0  0  0  0  0  0  0  0  0  0  0  0
   -7.0536    5.1089  -14.0526 C   0  0  0  0  0  0  0  0  0  0  0  0
   -6.8740    5.1749  -12.5696 C   0  0  0  0  0  0  0  0  0  0  0  0
   -8.2151    4.5255  -14.5705 C   0  0  0  0  0  0  0  0  0  0  0  0
   -8.3948    4.3575  -15.9379 C   0  0  0  0  0  0  0  0  0  0  0  0
   -7.3547    4.7997  -16.7541 C   0  0  0  0  0  0  0  0  0  0  0  0
   -7.1600    4.7214  -18.1038 N   0  0  0  0  0  0  0  0  0  0  0  0
   -8.0168    3.9395  -18.9405 C   0  0  0  0  0  0  0  0  0  0  0  0
   -1.2663    7.8058  -18.3767 C   0  0  0  0  0  0  0  0  0  0  0  0
   -1.3075    9.0643  -18.8695 F   0  0  0  0  0  0  0  0  0  0  0  0
    0.0423    7.4719  -18.2336 F   0  0  0  0  0  0  0  0  0  0  0  0
   -1.7966    7.8326  -17.1296 F   0  0  0  0  0  0  0  0  0  0  0  0
  1  2  3  0
  2  3  1  0
  3  4  1  0
  4  5  1  0
  5  6  1  6
  6  7  1  0
  7  8  1  0
  8  9  1  0
  9 10  2  0
 10 11  1  0
 11 12  2  0
 12 13  1  0
 13 14  1  0
 13 15  2  0
 15 16  1  0
 16 17  2  0
 17 18  1  0
 18 19  1  0
  5 20  1  0
 20 21  1  0
 20 22  1  0
 20 23  1  0
 18  9  1  0
 17 11  1  0
M  END
>  <energy_score>  (220) 
-29.476577

>  <alias>  (220) 
None

>  <HIPPO Pose ID>  (220) 
68871

>  <smiles>  (220) 
C#CCO[C@H](NCCc1nc2cc(C)ccc2n1C)C(F)(F)F

>  <inchikey>  (220) 
HNUVPCLPWLWHDF-HNNXBMFYSA-N

>  <distance_score>  (220) 
1.311595

>  <ref_mols>  (220) 
Z3880a,Z0472a

>  <ref_pdb>  (220) 
Z3880a

>  <HIPPO Compound ID>  (220) 
137095

>  <name>  (220) 
P68871

>  <inspiration_score>  (220) 
None

$$$$
P68872
     RDKit          3D

 23 24  0  0  0  0  0  0  0  0999 V2000
   -6.2025    6.9183  -25.4919 C   0  0  0  0  0  0  0  0  0  0  0  0
   -5.3757    7.6229  -24.9807 C   0  0  0  0  0  0  0  0  0  0  0  0
   -4.3512    8.4806  -24.3837 C   0  0  0  0  0  0  0  0  0  0  0  0
   -4.5286    8.6213  -22.9789 O   0  0  0  0  0  0  0  0  0  0  0  0
   -4.3183    7.4504  -22.1642 C   0  0  2  0  0  0  0  0  0  0  0  0
   -4.5051    7.9692  -20.7965 N   0  0  0  0  0  0  0  0  0  0  0  0
   -4.4353    7.0109  -19.6905 C   0  0  0  0  0  0  0  0  0  0  0  0
   -5.4016    5.8130  -19.7502 C   0  0  0  0  0  0  0  0  0  0  0  0
   -5.8728    5.4087  -18.3944 C   0  0  0  0  0  0  0  0  0  0  0  0
   -5.2793    5.7174  -17.2576 N   0  0  0  0  0  0  0  0  0  0  0  0
   -6.1495    5.3343  -16.2718 C   0  0  0  0  0  0  0  0  0  0  0  0
   -6.0441    5.4672  -14.8882 C   0  0  0  0  0  0  0  0  0  0  0  0
   -7.1278    5.0429  -14.1166 C   0  0  0  0  0  0  0  0  0  0  0  0
   -7.0496    5.1915  -12.4100 Cl  0  0  0  0  0  0  0  0  0  0  0  0
   -8.2851    4.5135  -14.6849 C   0  0  0  0  0  0  0  0  0  0  0  0
   -8.3929    4.3514  -16.0600 C   0  0  0  0  0  0  0  0  0  0  0  0
   -7.2917    4.7659  -16.8094 C   0  0  0  0  0  0  0  0  0  0  0  0
   -7.0197    4.6983  -18.1468 N   0  0  0  0  0  0  0  0  0  0  0  0
   -7.8349    3.9409  -19.0433 C   0  0  0  0  0  0  0  0  0  0  0  0
   -2.9763    6.6752  -22.4508 C   0  0  0  0  0  0  0  0  0  0  0  0
   -1.8864    7.4653  -22.3264 F   0  0  0  0  0  0  0  0  0  0  0  0
   -2.9535    6.1586  -23.7061 F   0  0  0  0  0  0  0  0  0  0  0  0
   -2.8066    5.6070  -21.6252 F   0  0  0  0  0  0  0  0  0  0  0  0
  1  2  3  0
  2  3  1  0
  3  4  1  0
  4  5  1  0
  5  6  1  1
  6  7  1  0
  7  8  1  0
  8  9  1  0
  9 10  2  0
 10 11  1  0
 11 12  2  0
 12 13  1  0
 13 14  1  0
 13 15  2  0
 15 16  1  0
 16 17  2  0
 17 18  1  0
 18 19  1  0
  5 20  1  0
 20 21  1  0
 20 22  1  0
 20 23  1  0
 18  9  1  0
 17 11  1  0
M  END
>  <energy_score>  (221) 
-34.590524

>  <alias>  (221) 
None

>  <HIPPO Pose ID>  (221) 
68872

>  <smiles>  (221) 
C#CCO[C@H](NCCc1nc2cc(Cl)ccc2n1C)C(F)(F)F

>  <inchikey>  (221) 
JUHFKCHVSLPDAP-AWEZNQCLSA-N

>  <distance_score>  (221) 
1.334406

>  <ref_mols>  (221) 
Z3880a,Z0472a

>  <ref_pdb>  (221) 
Z3880a

>  <HIPPO Compound ID>  (221) 
137097

>  <name>  (221) 
P68872

>  <inspiration_score>  (221) 
None

$$$$
P68879
     RDKit          3D

 23 26  0  0  0  0  0  0  0  0999 V2000
   -2.0527    7.4745  -19.2863 O   0  0  0  0  0  0  0  0  0  0  0  0
   -2.3075    6.3336  -19.9041 C   0  0  1  0  0  0  0  0  0  0  0  0
   -3.7244    6.3613  -20.3368 N   0  0  0  0  0  0  0  0  0  0  0  0
   -4.7202    6.3637  -19.2598 C   0  0  1  0  0  0  0  0  0  0  0  0
   -6.0810    5.7326  -19.7013 C   0  0  0  0  0  0  0  0  0  0  0  0
   -6.6543    5.3106  -18.4190 C   0  0  0  0  0  0  0  0  0  0  0  0
   -7.8265    4.9707  -17.9524 N   0  0  0  0  0  0  0  0  0  0  0  0
   -7.6095    4.8220  -16.5977 C   0  0  0  0  0  0  0  0  0  0  0  0
   -8.5243    4.5296  -15.5765 C   0  0  0  0  0  0  0  0  0  0  0  0
   -8.0587    4.5103  -14.2554 C   0  0  0  0  0  0  0  0  0  0  0  0
   -6.7041    4.7307  -13.9722 C   0  0  0  0  0  0  0  0  0  0  0  0
   -5.7807    5.0384  -14.9670 C   0  0  0  0  0  0  0  0  0  0  0  0
   -6.2741    5.0645  -16.2629 C   0  0  0  0  0  0  0  0  0  0  0  0
   -5.7048    5.2952  -17.4550 N   0  0  0  0  0  0  0  0  0  0  0  0
   -4.3925    5.6534  -17.9268 C   0  0  0  0  0  0  0  0  0  0  0  0
   -6.1887    4.6530  -12.7016 O   0  0  0  0  0  0  0  0  0  0  0  0
   -7.0291    3.8465  -11.8761 C   0  0  0  0  0  0  0  0  0  0  0  0
   -8.4438    4.3680  -11.9404 C   0  0  0  0  0  0  0  0  0  0  0  0
   -8.9807    4.2608  -13.2637 O   0  0  0  0  0  0  0  0  0  0  0  0
   -1.3179    6.0939  -21.1287 C   0  0  0  0  0  0  0  0  0  0  0  0
   -0.0301    5.9040  -20.7448 F   0  0  0  0  0  0  0  0  0  0  0  0
   -1.6899    4.9227  -21.7468 F   0  0  0  0  0  0  0  0  0  0  0  0
   -1.3389    7.0481  -22.0862 F   0  0  0  0  0  0  0  0  0  0  0  0
  2  1  1  6
  2  3  1  0
  4  3  1  6
  4  5  1  0
  5  6  1  0
  6  7  2  0
  7  8  1  0
  8  9  2  0
  9 10  1  0
 10 11  2  0
 11 12  1  0
 12 13  2  0
 13 14  1  0
 14 15  1  0
 11 16  1  0
 16 17  1  0
 17 18  1  0
 18 19  1  0
  2 20  1  0
 20 21  1  0
 20 22  1  0
 20 23  1  0
 15  4  1  0
 14  6  1  0
 13  8  1  0
 19 10  1  0
M  CHG  1   1  -1
M  END
>  <energy_score>  (222) 
-45.001221

>  <alias>  (222) 
None

>  <HIPPO Pose ID>  (222) 
68879

>  <smiles>  (222) 
[O-][C@@H](N[C@H]1Cc2nc3cc4c(cc3n2C1)OCCO4)C(F)(F)F

>  <inchikey>  (222) 
BWTUGYRMYXTJPM-WPPNPWJKSA-N

>  <distance_score>  (222) 
1.960526

>  <ref_mols>  (222) 
Z3880a,Z0472a

>  <ref_pdb>  (222) 
Z3880a

>  <HIPPO Compound ID>  (222) 
137106

>  <name>  (222) 
P68879

>  <inspiration_score>  (222) 
None

$$$$
P68880
     RDKit          3D

 23 26  0  0  0  0  0  0  0  0999 V2000
   -4.6165    8.1082  -20.4264 O   0  0  0  0  0  0  0  0  0  0  0  0
   -4.1814    6.9990  -21.2234 C   0  0  2  0  0  0  0  0  0  0  0  0
   -3.6083    5.9954  -20.3195 N   0  0  0  0  0  0  0  0  0  0  0  0
   -4.5666    5.3861  -19.3804 C   0  0  2  0  0  0  0  0  0  0  0  0
   -6.0772    5.1892  -19.7573 C   0  0  0  0  0  0  0  0  0  0  0  0
   -6.6921    5.0573  -18.4335 C   0  0  0  0  0  0  0  0  0  0  0  0
   -7.8174    4.6145  -17.9445 N   0  0  0  0  0  0  0  0  0  0  0  0
   -7.6458    4.7239  -16.5801 C   0  0  0  0  0  0  0  0  0  0  0  0
   -8.5271    4.3960  -15.5424 C   0  0  0  0  0  0  0  0  0  0  0  0
   -8.0749    4.5308  -14.2238 C   0  0  0  0  0  0  0  0  0  0  0  0
   -6.7728    4.9709  -13.9573 C   0  0  0  0  0  0  0  0  0  0  0  0
   -5.9103    5.3874  -14.9669 C   0  0  0  0  0  0  0  0  0  0  0  0
   -6.3853    5.2436  -16.2616 C   0  0  0  0  0  0  0  0  0  0  0  0
   -5.8565    5.4994  -17.4659 N   0  0  0  0  0  0  0  0  0  0  0  0
   -4.6117    6.0174  -17.9673 C   0  0  0  0  0  0  0  0  0  0  0  0
   -6.2510    5.0103  -12.6876 O   0  0  0  0  0  0  0  0  0  0  0  0
   -6.9465    4.0854  -11.8457 C   0  0  0  0  0  0  0  0  0  0  0  0
   -8.4260    4.3810  -11.8999 C   0  0  0  0  0  0  0  0  0  0  0  0
   -8.9473    4.1850  -13.2186 O   0  0  0  0  0  0  0  0  0  0  0  0
   -3.1998    7.4675  -22.3555 C   0  0  0  0  0  0  0  0  0  0  0  0
   -2.0535    7.9696  -21.8364 F   0  0  0  0  0  0  0  0  0  0  0  0
   -3.7760    8.4556  -23.0862 F   0  0  0  0  0  0  0  0  0  0  0  0
   -2.8685    6.4661  -23.1989 F   0  0  0  0  0  0  0  0  0  0  0  0
  2  1  1  1
  2  3  1  0
  4  3  1  6
  4  5  1  0
  5  6  1  0
  6  7  2  0
  7  8  1  0
  8  9  2  0
  9 10  1  0
 10 11  2  0
 11 12  1  0
 12 13  2  0
 13 14  1  0
 14 15  1  0
 11 16  1  0
 16 17  1  0
 17 18  1  0
 18 19  1  0
  2 20  1  0
 20 21  1  0
 20 22  1  0
 20 23  1  0
 15  4  1  0
 14  6  1  0
 13  8  1  0
 19 10  1  0
M  END
>  <energy_score>  (223) 
-30.020677

>  <alias>  (223) 
None

>  <HIPPO Pose ID>  (223) 
68880

>  <smiles>  (223) 
O[C@H](N[C@@H]1Cc2nc3cc4c(cc3n2C1)OCCO4)C(F)(F)F

>  <inchikey>  (223) 
DJCAHAUQFWMLHH-UHLUBPPHSA-N

>  <distance_score>  (223) 
1.748329

>  <ref_mols>  (223) 
Z3880a,Z0472a

>  <ref_pdb>  (223) 
Z3880a

>  <HIPPO Compound ID>  (223) 
137110

>  <name>  (223) 
P68880

>  <inspiration_score>  (223) 
None

$$$$
P68882
     RDKit          3D

 19 21  0  0  0  0  0  0  0  0999 V2000
   -6.8362    6.0435  -13.0787 C   0  0  0  0  0  0  0  0  0  0  0  0
   -7.7196    4.8544  -13.4551 C   0  0  2  0  0  0  0  0  0  0  0  0
   -7.7722    3.8345  -12.2939 C   0  0  0  0  0  0  0  0  0  0  0  0
   -8.3264    4.3716  -11.0142 C   0  0  0  0  0  0  0  0  0  0  0  0
   -7.4545    4.5977   -9.8105 C   0  0  0  0  0  0  0  0  0  0  0  0
   -8.4157    3.4408   -9.8328 C   0  0  0  0  0  0  0  0  0  0  0  0
   -7.1326    4.1645  -14.6016 N   0  0  0  0  0  0  0  0  0  0  0  0
   -7.2969    4.5492  -15.9217 C   0  0  0  0  0  0  0  0  0  0  0  0
   -8.4409    4.2869  -16.6705 C   0  0  0  0  0  0  0  0  0  0  0  0
   -8.4182    4.5098  -18.0423 C   0  0  0  0  0  0  0  0  0  0  0  0
   -7.3822    5.0005  -18.7456 N   0  0  0  0  0  0  0  0  0  0  0  0
   -6.2636    5.2443  -18.0296 C   0  0  0  0  0  0  0  0  0  0  0  0
   -5.0461    5.7175  -18.5990 C   0  0  0  0  0  0  0  0  0  0  0  0
   -4.7604    6.0975  -19.9724 C   0  0  0  0  0  0  0  0  0  0  0  0
   -3.6146    6.2560  -20.3838 O   0  0  0  0  0  0  0  0  0  0  0  0
   -5.8239    6.3672  -20.7564 O   0  0  0  0  0  0  0  0  0  0  0  0
   -4.0726    5.7872  -17.6306 C   0  0  0  0  0  0  0  0  0  0  0  0
   -4.6106    5.3960  -16.0731 S   0  0  0  0  0  0  0  0  0  0  0  0
   -6.1924    5.0323  -16.6519 C   0  0  0  0  0  0  0  0  0  0  0  0
  2  1  1  1
  2  3  1  0
  3  4  1  0
  4  5  1  0
  5  6  1  0
  2  7  1  0
  7  8  1  0
  8  9  2  0
  9 10  1  0
 10 11  2  0
 11 12  1  0
 12 13  1  0
 13 14  1  0
 14 15  2  0
 14 16  1  0
 13 17  2  0
 17 18  1  0
 18 19  1  0
  6  4  1  0
 19  8  1  0
 19 12  2  0
M  END
>  <energy_score>  (224) 
-35.47255

>  <alias>  (224) 
None

>  <HIPPO Pose ID>  (224) 
68882

>  <smiles>  (224) 
C[C@H](CC1CC1)Nc1ccnc2c(C(=O)O)csc12

>  <inchikey>  (224) 
KRNDFKQXBVIMAF-MRVPVSSYSA-N

>  <distance_score>  (224) 
1.990502

>  <ref_mols>  (224) 
Z0089a,Z3515a

>  <ref_pdb>  (224) 
Z3515a

>  <HIPPO Compound ID>  (224) 
137133

>  <name>  (224) 
P68882

>  <inspiration_score>  (224) 
None

$$$$
P68883
     RDKit          3D

 29 33  0  0  0  0  0  0  0  0999 V2000
   -3.4232    8.8502  -15.3853 O   0  0  0  0  0  0  0  0  0  0  0  0
   -3.2464    8.1399  -14.4786 C   0  0  0  0  0  0  0  0  0  0  0  0
   -2.5960    6.7622  -14.6391 C   0  0  0  0  0  0  0  0  0  0  0  0
   -3.6467    5.6341  -14.7350 C   0  0  2  0  0  0  0  0  0  0  0  0
   -4.6075    5.8411  -15.9036 C   0  0  0  0  0  0  0  0  0  0  0  0
   -5.8551    5.1528  -15.7160 N   0  0  0  0  0  0  0  0  0  0  0  0
   -6.3356    4.8222  -14.4832 C   0  0  0  0  0  0  0  0  0  0  0  0
   -7.5881    4.4648  -14.5249 N   0  0  0  0  0  0  0  0  0  0  0  0
   -7.8921    4.4648  -15.8572 C   0  0  0  0  0  0  0  0  0  0  0  0
   -9.0919    4.1205  -16.4722 C   0  0  0  0  0  0  0  0  0  0  0  0
   -9.1743    4.1395  -17.8584 C   0  0  0  0  0  0  0  0  0  0  0  0
   -8.0666    4.4930  -18.6214 C   0  0  0  0  0  0  0  0  0  0  0  0
   -6.8620    4.8967  -18.0352 C   0  0  0  0  0  0  0  0  0  0  0  0
   -6.8118    4.8631  -16.6415 C   0  0  0  0  0  0  0  0  0  0  0  0
   -5.5817    4.9062  -13.3615 N   0  0  0  0  0  0  0  0  0  0  0  0
   -4.3200    5.3951  -13.3853 C   0  0  0  0  0  0  0  0  0  0  0  0
   -3.6947    5.5800  -12.3364 O   0  0  0  0  0  0  0  0  0  0  0  0
   -3.6619    8.2834  -13.0010 N   0  0  0  0  0  0  0  0  0  0  0  0
   -4.4644    9.2855  -12.3478 C   0  0  0  0  0  0  0  0  0  0  0  0
   -5.4702    8.5359  -11.5395 C   0  0  0  0  0  0  0  0  0  0  0  0
   -6.4760    7.8277  -12.1766 N   0  0  0  0  0  0  0  0  0  0  0  0
   -7.0341    7.0825  -11.2447 C   0  0  0  0  0  0  0  0  0  0  0  0
   -8.0200    6.0576  -11.3246 C   0  0  0  0  0  0  0  0  0  0  0  0
   -8.3386    5.3496  -10.2246 C   0  0  0  0  0  0  0  0  0  0  0  0
   -7.7451    5.6407   -8.9312 C   0  0  0  0  0  0  0  0  0  0  0  0
   -6.8293    6.6195   -8.8432 C   0  0  0  0  0  0  0  0  0  0  0  0
   -6.4680    7.3225   -9.9949 N   0  0  0  0  0  0  0  0  0  0  0  0
   -5.5018    8.2826  -10.1827 C   0  0  0  0  0  0  0  0  0  0  0  0
   -4.3325    9.0050   -8.8664 Br  0  0  0  0  0  0  0  0  0  0  0  0
  1  2  2  0
  2  3  1  0
  4  3  1  1
  4  5  1  0
  5  6  1  0
  6  7  1  0
  7  8  2  0
  8  9  1  0
  9 10  2  0
 10 11  1  0
 11 12  2  0
 12 13  1  0
 13 14  2  0
  7 15  1  0
 15 16  1  0
 16 17  2  0
  2 18  1  0
 18 19  1  0
 19 20  1  0
 20 21  1  0
 21 22  2  0
 22 23  1  0
 23 24  2  0
 24 25  1  0
 25 26  2  0
 26 27  1  0
 27 28  1  0
 28 29  1  0
 16  4  1  0
 28 20  2  0
 14  6  1  0
 27 22  1  0
 14  9  1  0
M  END
>  <energy_score>  (225) 
-29.227346

>  <alias>  (225) 
None

>  <HIPPO Pose ID>  (225) 
68883

>  <smiles>  (225) 
O=C(C[C@@H]1Cn2c(nc3ccccc32)NC1=O)NCc1nc2ccccn2c1Br

>  <inchikey>  (225) 
GSUZGQRVSHIQTP-GFCCVEGCSA-N

>  <distance_score>  (225) 
1.527325

>  <ref_mols>  (225) 
Z1688a,Z1716a

>  <ref_pdb>  (225) 
Z1688a

>  <HIPPO Compound ID>  (225) 
137187

>  <name>  (225) 
P68883

>  <inspiration_score>  (225) 
None

$$$$
P68885
     RDKit          3D

 27 30  0  0  0  0  0  0  0  0999 V2000
   -5.3462    6.0152  -11.4836 C   0  0  0  0  0  0  0  0  0  0  0  0
   -6.6112    5.6590  -12.1250 N   0  0  0  0  0  0  0  0  0  0  0  0
   -6.5035    4.3564  -12.7910 C   0  0  0  0  0  0  0  0  0  0  0  0
   -7.8144    3.9096  -13.4307 C   0  0  0  0  0  0  0  0  0  0  0  0
   -8.4724    4.9679  -14.3216 C   0  0  0  0  0  0  0  0  0  0  0  0
   -8.0441    4.9215  -15.7403 N   0  0  0  0  0  0  0  0  0  0  0  0
   -6.7339    5.2698  -16.2020 C   0  0  0  0  0  0  0  0  0  0  0  0
   -6.6215    4.6189  -17.5805 C   0  0  2  0  0  0  0  0  0  0  0  0
   -5.6208    5.2581  -18.3860 N   0  0  0  0  0  0  0  0  0  0  0  0
   -5.2032    5.0093  -19.8592 C   0  0  0  0  0  0  0  0  0  0  0  0
   -5.6608    4.3000  -20.6655 O   0  0  0  0  0  0  0  0  0  0  0  0
   -4.0532    5.8969  -20.2044 C   0  0  0  0  0  0  0  0  0  0  0  0
   -3.9256    7.1510  -19.5823 C   0  0  0  0  0  0  0  0  0  0  0  0
   -2.7660    7.9253  -19.7202 C   0  0  0  0  0  0  0  0  0  0  0  0
   -2.6440    9.5736  -18.7960 Br  0  0  0  0  0  0  0  0  0  0  0  0
   -1.7289    7.5356  -20.5520 C   0  0  0  0  0  0  0  0  0  0  0  0
   -1.9211    6.3575  -21.2294 C   0  0  0  0  0  0  0  0  0  0  0  0
   -1.0690    5.7730  -22.1453 N   0  0  0  0  0  0  0  0  0  0  0  0
   -1.6535    4.6023  -22.6135 C   0  0  0  0  0  0  0  0  0  0  0  0
   -1.1990    3.9090  -23.5061 O   0  0  0  0  0  0  0  0  0  0  0  0
   -2.8600    4.4486  -21.9165 N   0  0  0  0  0  0  0  0  0  0  0  0
   -3.0482    5.5419  -21.0770 C   0  0  0  0  0  0  0  0  0  0  0  0
   -8.0427    4.6441  -18.0988 C   0  0  0  0  0  0  0  0  0  0  0  0
   -8.8251    4.4563  -16.8150 C   0  0  0  0  0  0  0  0  0  0  0  0
   -9.9531    3.9999  -16.7693 O   0  0  0  0  0  0  0  0  0  0  0  0
   -8.3871    6.3547  -13.6558 C   0  0  0  0  0  0  0  0  0  0  0  0
   -7.0280    6.6937  -13.0636 C   0  0  0  0  0  0  0  0  0  0  0  0
  1  2  1  0
  2  3  1  0
  3  4  1  0
  4  5  1  0
  5  6  1  0
  6  7  1  0
  7  8  1  0
  8  9  1  6
  9 10  1  0
 10 11  2  0
 10 12  1  0
 12 13  2  0
 13 14  1  0
 14 15  1  0
 14 16  2  0
 16 17  1  0
 17 18  1  0
 18 19  1  0
 19 20  2  0
 19 21  1  0
 21 22  1  0
  8 23  1  0
 23 24  1  0
 24 25  2  0
  5 26  1  0
 26 27  1  0
 27  2  1  0
 24  6  1  0
 22 12  1  0
 22 17  2  0
M  END
>  <energy_score>  (226) 
-24.831188

>  <alias>  (226) 
None

>  <HIPPO Pose ID>  (226) 
68885

>  <smiles>  (226) 
CN1CCC(N2C[C@H](NC(=O)c3cc(Br)cc4[nH]c(=O)[nH]c34)CC2=O)CC1

>  <inchikey>  (226) 
GJQDYNYWLAOEHW-LLVKDONJSA-N

>  <distance_score>  (226) 
1.88601

>  <ref_mols>  (226) 
Z1688a,Z0852a

>  <ref_pdb>  (226) 
Z0852a

>  <HIPPO Compound ID>  (226) 
137318

>  <name>  (226) 
P68885

>  <inspiration_score>  (226) 
None

$$$$
P68886
     RDKit          3D

 27 30  0  0  0  0  0  0  0  0999 V2000
   -6.5058    5.5023  -10.5670 C   0  0  0  0  0  0  0  0  0  0  0  0
   -6.8379    5.3810  -11.9836 N   0  0  0  0  0  0  0  0  0  0  0  0
   -6.8186    6.6895  -12.6459 C   0  0  0  0  0  0  0  0  0  0  0  0
   -7.5882    6.7247  -13.9760 C   0  0  0  0  0  0  0  0  0  0  0  0
   -7.6653    5.3345  -14.6426 C   0  0  0  0  0  0  0  0  0  0  0  0
   -8.2899    5.3363  -16.0051 N   0  0  0  0  0  0  0  0  0  0  0  0
   -9.0719    4.2448  -16.5298 C   0  0  0  0  0  0  0  0  0  0  0  0
   -8.4399    3.9141  -17.8671 C   0  0  0  0  0  0  0  0  0  0  0  0
   -7.9846    5.2268  -18.4101 C   0  0  2  0  0  0  0  0  0  0  0  0
   -6.6623    5.2658  -18.9686 N   0  0  0  0  0  0  0  0  0  0  0  0
   -6.0595    4.5081  -20.1573 C   0  0  0  0  0  0  0  0  0  0  0  0
   -6.5567    3.7882  -20.9236 O   0  0  0  0  0  0  0  0  0  0  0  0
   -4.6029    4.7884  -20.1077 C   0  0  0  0  0  0  0  0  0  0  0  0
   -3.9913    4.7181  -18.8426 C   0  0  0  0  0  0  0  0  0  0  0  0
   -2.6857    5.1596  -18.6412 C   0  0  0  0  0  0  0  0  0  0  0  0
   -2.1952    5.5219  -16.8572 Br  0  0  0  0  0  0  0  0  0  0  0  0
   -1.8658    5.4846  -19.7155 C   0  0  0  0  0  0  0  0  0  0  0  0
   -2.4652    5.4653  -20.9584 C   0  0  0  0  0  0  0  0  0  0  0  0
   -1.9184    5.8079  -22.1847 N   0  0  0  0  0  0  0  0  0  0  0  0
   -2.9360    5.7996  -23.1403 C   0  0  0  0  0  0  0  0  0  0  0  0
   -2.8286    6.0829  -24.3206 O   0  0  0  0  0  0  0  0  0  0  0  0
   -4.1158    5.4399  -22.4812 N   0  0  0  0  0  0  0  0  0  0  0  0
   -3.8197    5.1803  -21.1541 C   0  0  0  0  0  0  0  0  0  0  0  0
   -7.6072    5.8888  -17.0840 C   0  0  0  0  0  0  0  0  0  0  0  0
   -6.7278    6.7379  -17.0208 O   0  0  0  0  0  0  0  0  0  0  0  0
   -8.3478    4.3828  -13.6503 C   0  0  0  0  0  0  0  0  0  0  0  0
   -8.1203    4.7133  -12.1735 C   0  0  0  0  0  0  0  0  0  0  0  0
  1  2  1  0
  2  3  1  0
  3  4  1  0
  4  5  1  0
  5  6  1  0
  6  7  1  0
  7  8  1  0
  8  9  1  0
  9 10  1  6
 10 11  1  0
 11 12  2  0
 11 13  1  0
 13 14  2  0
 14 15  1  0
 15 16  1  0
 15 17  2  0
 17 18  1  0
 18 19  1  0
 19 20  1  0
 20 21  2  0
 20 22  1  0
 22 23  1  0
  9 24  1  0
 24 25  2  0
  5 26  1  0
 26 27  1  0
 27  2  1  0
 24  6  1  0
 23 13  1  0
 23 18  2  0
M  END
>  <energy_score>  (227) 
-2.2088

>  <alias>  (227) 
None

>  <HIPPO Pose ID>  (227) 
68886

>  <smiles>  (227) 
CN1CCC(N2CC[C@H](NC(=O)c3cc(Br)cc4[nH]c(=O)[nH]c34)C2=O)CC1

>  <inchikey>  (227) 
WAIVONJUWNTNLC-ZDUSSCGKSA-N

>  <distance_score>  (227) 
1.917161

>  <ref_mols>  (227) 
Z0852a,Z1688a

>  <ref_pdb>  (227) 
Z0852a

>  <HIPPO Compound ID>  (227) 
137325

>  <name>  (227) 
P68886

>  <inspiration_score>  (227) 
None

$$$$
P68887
     RDKit          3D

 32 36  0  0  0  0  0  0  0  0999 V2000
   -7.0584    3.3092  -13.4370 O   0  0  0  0  0  0  0  0  0  0  0  0
   -6.7746    4.2866  -12.7580 C   0  0  0  0  0  0  0  0  0  0  0  0
   -5.6228    5.1739  -13.0912 C   0  0  0  0  0  0  0  0  0  0  0  0
   -6.2155    6.5278  -13.4514 C   0  0  0  0  0  0  0  0  0  0  0  0
   -7.0243    6.4289  -14.6787 N   0  0  0  0  0  0  0  0  0  0  0  0
   -6.3522    6.2818  -15.9737 C   0  0  0  0  0  0  0  0  0  0  0  0
   -7.3372    5.5537  -16.8162 C   0  0  0  0  0  0  0  0  0  0  0  0
   -7.3719    5.2174  -18.1535 C   0  0  0  0  0  0  0  0  0  0  0  0
   -6.4238    5.5630  -19.0981 N   0  0  0  0  0  0  0  0  0  0  0  0
   -5.0843    6.2980  -18.9450 C   0  0  0  0  0  0  0  0  0  0  0  0
   -4.5998    6.7978  -18.0123 O   0  0  0  0  0  0  0  0  0  0  0  0
   -4.3491    6.2167  -20.2017 C   0  0  0  0  0  0  0  0  0  0  0  0
   -4.7664    6.8621  -21.3511 C   0  0  0  0  0  0  0  0  0  0  0  0
   -4.0529    6.6649  -22.5459 C   0  0  0  0  0  0  0  0  0  0  0  0
   -4.6740    7.5322  -24.1144 Br  0  0  0  0  0  0  0  0  0  0  0  0
   -2.9261    5.8425  -22.6346 C   0  0  0  0  0  0  0  0  0  0  0  0
   -2.5721    5.2000  -21.4806 C   0  0  0  0  0  0  0  0  0  0  0  0
   -1.5875    4.2562  -21.2437 N   0  0  0  0  0  0  0  0  0  0  0  0
   -1.7393    3.7759  -19.9422 C   0  0  0  0  0  0  0  0  0  0  0  0
   -1.1889    2.8189  -19.4386 O   0  0  0  0  0  0  0  0  0  0  0  0
   -2.7341    4.5318  -19.3366 N   0  0  0  0  0  0  0  0  0  0  0  0
   -3.2733    5.3781  -20.2926 C   0  0  0  0  0  0  0  0  0  0  0  0
   -8.4596    4.4694  -18.6404 C   0  0  0  0  0  0  0  0  0  0  0  0
   -9.4767    4.0343  -17.7957 C   0  0  0  0  0  0  0  0  0  0  0  0
   -9.4296    4.3686  -16.4565 C   0  0  0  0  0  0  0  0  0  0  0  0
   -8.4079    5.1785  -16.0194 C   0  0  0  0  0  0  0  0  0  0  0  0
   -8.2767    5.8142  -14.7139 C   0  0  0  0  0  0  0  0  0  0  0  0
   -9.1301    5.7901  -13.8465 O   0  0  0  0  0  0  0  0  0  0  0  0
   -6.9324    7.0985  -12.2208 C   0  0  0  0  0  0  0  0  0  0  0  0
   -7.6772    6.0639  -11.3976 C   0  0  0  0  0  0  0  0  0  0  0  0
   -8.3695    6.3956  -10.4387 O   0  0  0  0  0  0  0  0  0  0  0  0
   -7.5130    4.7417  -11.7033 N   0  0  0  0  0  0  0  0  0  0  0  0
  1  2  2  0
  2  3  1  0
  3  4  1  0
  4  5  1  0
  5  6  1  0
  6  7  1  0
  7  8  2  0
  8  9  1  0
  9 10  1  0
 10 11  2  0
 10 12  1  0
 12 13  2  0
 13 14  1  0
 14 15  1  0
 14 16  2  0
 16 17  1  0
 17 18  1  0
 18 19  1  0
 19 20  2  0
 19 21  1  0
 21 22  1  0
  8 23  1  0
 23 24  2  0
 24 25  1  0
 25 26  2  0
 26 27  1  0
 27 28  2  0
  4 29  1  0
 29 30  1  0
 30 31  2  0
 30 32  1  0
 32  2  1  0
 27  5  1  0
 26  7  1  0
 22 12  1  0
 22 17  2  0
M  END
>  <energy_score>  (228) 
-34.417451

>  <alias>  (228) 
None

>  <HIPPO Pose ID>  (228) 
68887

>  <smiles>  (228) 
O=C1CC(N2Cc3c(NC(=O)c4cc(Br)cc5[nH]c(=O)[nH]c45)cccc3C2=O)CC(=O)N1

>  <inchikey>  (228) 
XOARMBKXLWNZKQ-UHFFFAOYSA-N

>  <distance_score>  (228) 
1.975128

>  <ref_mols>  (228) 
Z0852a,Z1688a

>  <ref_pdb>  (228) 
Z0852a

>  <HIPPO Compound ID>  (228) 
137392

>  <name>  (228) 
P68887

>  <inspiration_score>  (228) 
None

$$$$
P68888
     RDKit          3D

 32 36  0  0  0  0  0  0  0  0999 V2000
   -5.2660    7.7623  -20.7402 C   0  0  0  0  0  0  0  0  0  0  0  0
   -4.3403    6.8184  -21.2938 N   0  0  0  0  0  0  0  0  0  0  0  0
   -3.8864    6.8277  -22.6236 C   0  0  0  0  0  0  0  0  0  0  0  0
   -4.2765    7.5335  -23.5388 O   0  0  0  0  0  0  0  0  0  0  0  0
   -2.8757    5.8707  -22.7165 N   0  0  0  0  0  0  0  0  0  0  0  0
   -2.6803    5.3148  -21.4674 C   0  0  0  0  0  0  0  0  0  0  0  0
   -1.7626    4.3659  -21.1016 C   0  0  0  0  0  0  0  0  0  0  0  0
   -1.7413    3.9808  -19.7612 C   0  0  0  0  0  0  0  0  0  0  0  0
   -2.6354    4.5368  -18.8400 C   0  0  0  0  0  0  0  0  0  0  0  0
   -3.5660    5.4953  -19.2523 C   0  0  0  0  0  0  0  0  0  0  0  0
   -4.6101    5.8394  -18.2846 C   0  0  0  0  0  0  0  0  0  0  0  0
   -4.3885    6.5195  -17.3657 O   0  0  0  0  0  0  0  0  0  0  0  0
   -5.8880    5.0777  -18.6771 N   0  0  0  0  0  0  0  0  0  0  0  0
   -7.0851    4.9211  -18.0008 C   0  0  0  0  0  0  0  0  0  0  0  0
   -8.0962    4.2682  -18.7223 C   0  0  0  0  0  0  0  0  0  0  0  0
   -9.3135    3.9386  -18.1333 C   0  0  0  0  0  0  0  0  0  0  0  0
   -9.5367    4.2440  -16.8087 C   0  0  0  0  0  0  0  0  0  0  0  0
   -8.5575    4.9253  -16.1267 C   0  0  0  0  0  0  0  0  0  0  0  0
   -7.3381    5.2856  -16.6953 C   0  0  0  0  0  0  0  0  0  0  0  0
   -6.5503    6.0487  -15.6937 C   0  0  0  0  0  0  0  0  0  0  0  0
   -7.4873    6.2043  -14.5791 N   0  0  0  0  0  0  0  0  0  0  0  0
   -7.2791    7.2313  -13.5596 C   0  0  0  0  0  0  0  0  0  0  0  0
   -8.4055    7.4633  -12.5489 C   0  0  0  0  0  0  0  0  0  0  0  0
   -8.3555    6.4903  -11.3915 C   0  0  0  0  0  0  0  0  0  0  0  0
   -8.9849    6.6812  -10.3533 O   0  0  0  0  0  0  0  0  0  0  0  0
   -7.4528    5.4821  -11.5001 N   0  0  0  0  0  0  0  0  0  0  0  0
   -6.1906    5.7805  -11.9096 C   0  0  0  0  0  0  0  0  0  0  0  0
   -5.2199    5.1558  -11.5046 O   0  0  0  0  0  0  0  0  0  0  0  0
   -6.0073    6.9992  -12.7647 C   0  0  0  0  0  0  0  0  0  0  0  0
   -8.6643    5.5104  -14.7948 C   0  0  0  0  0  0  0  0  0  0  0  0
   -9.6496    5.4499  -14.0840 O   0  0  0  0  0  0  0  0  0  0  0  0
   -3.5795    5.8876  -20.5732 C   0  0  0  0  0  0  0  0  0  0  0  0
  1  2  1  0
  2  3  1  0
  3  4  2  0
  3  5  1  0
  5  6  1  0
  6  7  2  0
  7  8  1  0
  8  9  2  0
  9 10  1  0
 10 11  1  0
 11 12  2  0
 11 13  1  0
 13 14  1  0
 14 15  2  0
 15 16  1  0
 16 17  2  0
 17 18  1  0
 18 19  2  0
 19 20  1  0
 20 21  1  0
 21 22  1  0
 22 23  1  0
 23 24  1  0
 24 25  2  0
 24 26  1  0
 26 27  1  0
 27 28  2  0
 27 29  1  0
 21 30  1  0
 30 31  2  0
 10 32  2  0
 32  2  1  0
 32  6  1  0
 19 14  1  0
 29 22  1  0
 30 18  1  0
M  END
>  <energy_score>  (229) 
-43.355175

>  <alias>  (229) 
None

>  <HIPPO Pose ID>  (229) 
68888

>  <smiles>  (229) 
Cn1c(=O)[nH]c2cccc(C(=O)Nc3cccc4c3CN(C3CC(=O)NC(=O)C3)C4=O)c21

>  <inchikey>  (229) 
XVQHEKLKPBMJPJ-UHFFFAOYSA-N

>  <distance_score>  (229) 
1.945549

>  <ref_mols>  (229) 
Z1688a,Z0852a

>  <ref_pdb>  (229) 
Z0852a

>  <HIPPO Compound ID>  (229) 
137395

>  <name>  (229) 
P68888

>  <inspiration_score>  (229) 
None

$$$$
P68889
     RDKit          3D

 32 36  0  0  0  0  0  0  0  0999 V2000
   -0.4285    6.0217  -23.3190 C   0  0  0  0  0  0  0  0  0  0  0  0
   -1.7397    5.8883  -22.7550 N   0  0  0  0  0  0  0  0  0  0  0  0
   -2.9481    5.9644  -23.4625 C   0  0  0  0  0  0  0  0  0  0  0  0
   -3.1084    6.2300  -24.6424 O   0  0  0  0  0  0  0  0  0  0  0  0
   -3.9690    5.6767  -22.5531 N   0  0  0  0  0  0  0  0  0  0  0  0
   -3.3957    5.3557  -21.3303 C   0  0  0  0  0  0  0  0  0  0  0  0
   -3.9700    4.9343  -20.1589 C   0  0  0  0  0  0  0  0  0  0  0  0
   -5.4182    4.6583  -20.0886 C   0  0  0  0  0  0  0  0  0  0  0  0
   -5.9637    4.1592  -20.9931 O   0  0  0  0  0  0  0  0  0  0  0  0
   -5.9468    5.0442  -18.6880 N   0  0  0  0  0  0  0  0  0  0  0  0
   -7.1749    4.8207  -18.1010 C   0  0  0  0  0  0  0  0  0  0  0  0
   -8.2089    4.2053  -18.8004 C   0  0  0  0  0  0  0  0  0  0  0  0
   -9.4092    3.8997  -18.1624 C   0  0  0  0  0  0  0  0  0  0  0  0
   -9.5893    4.1981  -16.8265 C   0  0  0  0  0  0  0  0  0  0  0  0
   -8.5804    4.8479  -16.1670 C   0  0  0  0  0  0  0  0  0  0  0  0
   -7.3802    5.1728  -16.7810 C   0  0  0  0  0  0  0  0  0  0  0  0
   -6.5249    5.9178  -15.8251 C   0  0  0  0  0  0  0  0  0  0  0  0
   -7.4270    6.1535  -14.7022 N   0  0  0  0  0  0  0  0  0  0  0  0
   -7.1485    7.1761  -13.6963 C   0  0  0  0  0  0  0  0  0  0  0  0
   -5.9684    6.8230  -12.8131 C   0  0  0  0  0  0  0  0  0  0  0  0
   -6.3537    5.7148  -11.8806 C   0  0  0  0  0  0  0  0  0  0  0  0
   -5.4902    5.0172  -11.3669 O   0  0  0  0  0  0  0  0  0  0  0  0
   -7.6612    5.6113  -11.5291 N   0  0  0  0  0  0  0  0  0  0  0  0
   -8.4284    6.7304  -11.5533 C   0  0  0  0  0  0  0  0  0  0  0  0
   -9.0821    7.0889  -10.5763 O   0  0  0  0  0  0  0  0  0  0  0  0
   -8.3069    7.5956  -12.7885 C   0  0  0  0  0  0  0  0  0  0  0  0
   -8.6188    5.4556  -14.8414 C   0  0  0  0  0  0  0  0  0  0  0  0
   -9.5693    5.4255  -14.0831 O   0  0  0  0  0  0  0  0  0  0  0  0
   -3.1203    4.6801  -19.0693 C   0  0  0  0  0  0  0  0  0  0  0  0
   -1.7377    4.8833  -19.1783 C   0  0  0  0  0  0  0  0  0  0  0  0
   -1.1653    5.2873  -20.3852 C   0  0  0  0  0  0  0  0  0  0  0  0
   -2.0180    5.5084  -21.4437 C   0  0  0  0  0  0  0  0  0  0  0  0
  1  2  1  0
  2  3  1  0
  3  4  2  0
  3  5  1  0
  5  6  1  0
  6  7  2  0
  7  8  1  0
  8  9  2  0
  8 10  1  0
 10 11  1  0
 11 12  2  0
 12 13  1  0
 13 14  2  0
 14 15  1  0
 15 16  2  0
 16 17  1  0
 17 18  1  0
 18 19  1  0
 19 20  1  0
 20 21  1  0
 21 22  2  0
 21 23  1  0
 23 24  1  0
 24 25  2  0
 24 26  1  0
 18 27  1  0
 27 28  2  0
  7 29  1  0
 29 30  2  0
 30 31  1  0
 31 32  2  0
 32  2  1  0
 32  6  1  0
 16 11  1  0
 26 19  1  0
 27 15  1  0
M  END
>  <energy_score>  (230) 
-34.41386

>  <alias>  (230) 
None

>  <HIPPO Pose ID>  (230) 
68889

>  <smiles>  (230) 
Cn1c(=O)[nH]c2c(C(=O)Nc3cccc4c3CN(C3CC(=O)NC(=O)C3)C4=O)cccc21

>  <inchikey>  (230) 
YOPHAACLXCFPRY-UHFFFAOYSA-N

>  <distance_score>  (230) 
1.529026

>  <ref_mols>  (230) 
Z1688a,Z0852a

>  <ref_pdb>  (230) 
Z0852a

>  <HIPPO Compound ID>  (230) 
137399

>  <name>  (230) 
P68889

>  <inspiration_score>  (230) 
None

$$$$
P68890
     RDKit          3D

 26 28  0  0  0  0  0  0  0  0999 V2000
   -5.1071    7.1272  -25.2009 C   0  0  0  0  0  0  0  0  0  0  0  0
   -4.0413    7.0707  -24.1152 C   0  0  0  0  0  0  0  0  0  0  0  0
   -4.6548    6.7118  -22.7572 C   0  0  0  0  0  0  0  0  0  0  0  0
   -3.7013    6.7751  -21.6349 N   0  0  0  0  0  0  0  0  0  0  0  0
   -2.5369    5.8858  -21.8276 C   0  0  0  0  0  0  0  0  0  0  0  0
   -1.8026    5.6050  -20.5160 C   0  0  0  0  0  0  0  0  0  0  0  0
   -2.6995    4.8983  -19.5012 C   0  0  0  0  0  0  0  0  0  0  0  0
   -4.1809    5.1583  -19.7909 C   0  0  1  0  0  0  0  0  0  0  0  0
   -5.1269    4.7765  -18.6514 C   0  0  0  0  0  0  0  0  0  0  0  0
   -5.9519    3.9853  -18.8713 O   0  0  0  0  0  0  0  0  0  0  0  0
   -4.7346    5.4713  -17.3301 N   0  0  0  0  0  0  0  0  0  0  0  0
   -5.2219    5.2624  -15.9634 C   0  0  0  0  0  0  0  0  0  0  0  0
   -6.7354    4.9447  -15.6405 C   0  0  1  0  0  0  0  0  0  0  0  0
   -6.8222    4.5096  -14.1347 C   0  0  0  0  0  0  0  0  0  0  0  0
   -6.3756    5.3738  -13.1144 C   0  0  0  0  0  0  0  0  0  0  0  0
   -6.6448    5.1288  -11.7599 C   0  0  0  0  0  0  0  0  0  0  0  0
   -7.3629    4.0118  -11.3688 C   0  0  0  0  0  0  0  0  0  0  0  0
   -7.7828    3.1291  -12.3417 C   0  0  0  0  0  0  0  0  0  0  0  0
   -7.5035    3.3705  -13.6985 C   0  0  0  0  0  0  0  0  0  0  0  0
   -7.6199    6.1912  -15.7304 C   0  0  0  0  0  0  0  0  0  0  0  0
   -9.0711    5.8034  -15.4010 C   0  0  0  0  0  0  0  0  0  0  0  0
   -9.5897    4.7183  -16.3214 C   0  0  0  0  0  0  0  0  0  0  0  0
   -8.5559    4.0461  -17.1436 C   0  0  0  0  0  0  0  0  0  0  0  0
   -8.8732    3.4856  -18.1874 O   0  0  0  0  0  0  0  0  0  0  0  0
   -7.2916    4.0076  -16.6268 N   0  0  0  0  0  0  0  0  0  0  0  0
   -4.4093    6.5498  -20.3527 C   0  0  0  0  0  0  0  0  0  0  0  0
  1  2  1  0
  2  3  1  0
  3  4  1  0
  4  5  1  0
  5  6  1  0
  6  7  1  0
  7  8  1  0
  8  9  1  1
  9 10  2  0
  9 11  1  0
 11 12  1  0
 13 12  1  6
 13 14  1  0
 14 15  2  0
 15 16  1  0
 16 17  2  0
 17 18  1  0
 18 19  2  0
 13 20  1  0
 20 21  1  0
 21 22  1  0
 22 23  1  0
 23 24  2  0
 23 25  1  0
  8 26  1  0
 26  4  1  0
 25 13  1  0
 19 14  1  0
M  END
>  <energy_score>  (231) 
-16.801316

>  <alias>  (231) 
None

>  <HIPPO Pose ID>  (231) 
68890

>  <smiles>  (231) 
CCCN1CCC[C@@H](C(=O)NC[C@@]2(c3ccccc3)CCCC(=O)N2)C1

>  <inchikey>  (231) 
MAOLAJCMXGGDGZ-DYESRHJHSA-N

>  <distance_score>  (231) 
1.953885

>  <ref_mols>  (231) 
Z0852a,Z1719a

>  <ref_pdb>  (231) 
Z0852a

>  <HIPPO Compound ID>  (231) 
137573

>  <name>  (231) 
P68890

>  <inspiration_score>  (231) 
None

$$$$
P68891
     RDKit          3D

 26 28  0  0  0  0  0  0  0  0999 V2000
   -3.7451    8.0167  -23.0150 C   0  0  0  0  0  0  0  0  0  0  0  0
   -3.8868    6.4876  -23.0807 C   0  0  0  0  0  0  0  0  0  0  0  0
   -3.0608    5.9723  -24.2705 C   0  0  0  0  0  0  0  0  0  0  0  0
   -3.5968    5.7585  -21.8209 N   0  0  0  0  0  0  0  0  0  0  0  0
   -2.1721    5.7096  -21.4711 C   0  0  0  0  0  0  0  0  0  0  0  0
   -1.9421    4.8389  -20.2406 C   0  0  0  0  0  0  0  0  0  0  0  0
   -2.7476    5.3227  -19.0444 C   0  0  0  0  0  0  0  0  0  0  0  0
   -4.2368    5.4778  -19.3755 C   0  0  1  0  0  0  0  0  0  0  0  0
   -4.9726    6.2051  -18.2123 C   0  0  0  0  0  0  0  0  0  0  0  0
   -5.4431    7.2701  -18.3171 O   0  0  0  0  0  0  0  0  0  0  0  0
   -4.9300    5.2371  -16.9937 N   0  0  0  0  0  0  0  0  0  0  0  0
   -5.3797    5.4260  -15.6158 C   0  0  0  0  0  0  0  0  0  0  0  0
   -6.8678    4.9885  -15.3907 C   0  0  1  0  0  0  0  0  0  0  0  0
   -7.0303    4.4917  -13.9262 C   0  0  0  0  0  0  0  0  0  0  0  0
   -7.1301    5.3925  -12.8307 C   0  0  0  0  0  0  0  0  0  0  0  0
   -7.4444    4.9622  -11.5343 C   0  0  0  0  0  0  0  0  0  0  0  0
   -7.6033    3.6116  -11.2821 C   0  0  0  0  0  0  0  0  0  0  0  0
   -7.4235    2.7071  -12.3196 C   0  0  0  0  0  0  0  0  0  0  0  0
   -7.1572    3.1387  -13.6240 C   0  0  0  0  0  0  0  0  0  0  0  0
   -7.8344    6.1542  -15.5911 C   0  0  0  0  0  0  0  0  0  0  0  0
   -9.2668    5.6211  -15.5071 C   0  0  0  0  0  0  0  0  0  0  0  0
   -9.5560    4.6424  -16.6351 C   0  0  0  0  0  0  0  0  0  0  0  0
   -8.3055    4.1308  -17.2734 C   0  0  0  0  0  0  0  0  0  0  0  0
   -8.2590    3.7779  -18.4460 O   0  0  0  0  0  0  0  0  0  0  0  0
   -7.2136    4.0090  -16.4539 N   0  0  0  0  0  0  0  0  0  0  0  0
   -4.4084    6.2670  -20.6920 C   0  0  0  0  0  0  0  0  0  0  0  0
  1  2  1  0
  2  3  1  0
  2  4  1  0
  4  5  1  0
  5  6  1  0
  6  7  1  0
  7  8  1  0
  8  9  1  1
  9 10  2  0
  9 11  1  0
 11 12  1  0
 13 12  1  6
 13 14  1  0
 14 15  2  0
 15 16  1  0
 16 17  2  0
 17 18  1  0
 18 19  2  0
 13 20  1  0
 20 21  1  0
 21 22  1  0
 22 23  1  0
 23 24  2  0
 23 25  1  0
  8 26  1  0
 26  4  1  0
 25 13  1  0
 19 14  1  0
M  END
>  <energy_score>  (232) 
-42.668786

>  <alias>  (232) 
None

>  <HIPPO Pose ID>  (232) 
68891

>  <smiles>  (232) 
CC(C)N1CCC[C@@H](C(=O)NC[C@@]2(c3ccccc3)CCCC(=O)N2)C1

>  <inchikey>  (232) 
KSYBIBAXPVSEED-DYESRHJHSA-N

>  <distance_score>  (232) 
1.975938

>  <ref_mols>  (232) 
Z0852a,Z1719a

>  <ref_pdb>  (232) 
Z0852a

>  <HIPPO Compound ID>  (232) 
137576

>  <name>  (232) 
P68891

>  <inspiration_score>  (232) 
None

$$$$
P68892
     RDKit          3D

 26 28  0  0  0  0  0  0  0  0999 V2000
   -4.5739    8.4070  -20.6634 C   0  0  0  0  0  0  0  0  0  0  0  0
   -5.2730    7.0448  -20.5656 C   0  0  1  0  0  0  0  0  0  0  0  0
   -5.0807    6.2242  -21.8475 C   0  0  0  0  0  0  0  0  0  0  0  0
   -3.6303    5.8560  -22.0798 C   0  0  0  0  0  0  0  0  0  0  0  0
   -3.1598    5.8173  -23.2139 O   0  0  0  0  0  0  0  0  0  0  0  0
   -2.9228    5.5529  -20.9213 N   0  0  0  0  0  0  0  0  0  0  0  0
   -1.6035    4.9595  -21.0677 C   0  0  0  0  0  0  0  0  0  0  0  0
   -3.6636    5.2462  -19.7026 C   0  0  0  0  0  0  0  0  0  0  0  0
   -4.7890    6.2514  -19.3443 C   0  0  2  0  0  0  0  0  0  0  0  0
   -5.9634    5.4565  -18.6977 C   0  0  0  0  0  0  0  0  0  0  0  0
   -6.3913    4.4872  -19.1903 O   0  0  0  0  0  0  0  0  0  0  0  0
   -6.3056    6.1314  -17.3364 N   0  0  0  0  0  0  0  0  0  0  0  0
   -7.1903    5.6885  -16.2456 C   0  0  0  0  0  0  0  0  0  0  0  0
   -6.3732    5.2919  -14.9509 C   0  0  1  0  0  0  0  0  0  0  0  0
   -7.2540    5.1267  -13.6745 C   0  0  0  0  0  0  0  0  0  0  0  0
   -7.8312    3.8870  -13.3342 C   0  0  0  0  0  0  0  0  0  0  0  0
   -8.4099    3.6628  -12.0781 C   0  0  0  0  0  0  0  0  0  0  0  0
   -8.4717    4.6846  -11.1422 C   0  0  0  0  0  0  0  0  0  0  0  0
   -7.9909    5.9428  -11.4772 C   0  0  0  0  0  0  0  0  0  0  0  0
   -7.3946    6.1621  -12.7269 C   0  0  0  0  0  0  0  0  0  0  0  0
   -5.6349    3.9648  -15.2260 C   0  0  0  0  0  0  0  0  0  0  0  0
   -4.3851    4.0368  -16.0866 C   0  0  0  0  0  0  0  0  0  0  0  0
   -3.4747    5.1380  -15.6263 C   0  0  0  0  0  0  0  0  0  0  0  0
   -4.2208    6.4127  -15.4214 C   0  0  0  0  0  0  0  0  0  0  0  0
   -3.8274    7.4872  -15.8576 O   0  0  0  0  0  0  0  0  0  0  0  0
   -5.3722    6.3488  -14.6964 N   0  0  0  0  0  0  0  0  0  0  0  0
  2  1  1  6
  2  3  1  0
  3  4  1  0
  4  5  2  0
  4  6  1  0
  6  7  1  0
  6  8  1  0
  8  9  1  0
  9 10  1  6
 10 11  2  0
 10 12  1  0
 12 13  1  0
 14 13  1  6
 14 15  1  0
 15 16  2  0
 16 17  1  0
 17 18  2  0
 18 19  1  0
 19 20  2  0
 14 21  1  0
 21 22  1  0
 22 23  1  0
 23 24  1  0
 24 25  2  0
 24 26  1  0
  9  2  1  0
 26 14  1  0
 20 15  1  0
M  END
>  <energy_score>  (233) 
-23.179763

>  <alias>  (233) 
None

>  <HIPPO Pose ID>  (233) 
68892

>  <smiles>  (233) 
C[C@H]1CC(=O)N(C)C[C@@H]1C(=O)NC[C@@]1(c2ccccc2)CCCC(=O)N1

>  <inchikey>  (233) 
FQRVSYURJQFSIK-DKICVRJWSA-N

>  <distance_score>  (233) 
1.972698

>  <ref_mols>  (233) 
Z0852a,Z1719a

>  <ref_pdb>  (233) 
Z0852a

>  <HIPPO Compound ID>  (233) 
137577

>  <name>  (233) 
P68892

>  <inspiration_score>  (233) 
None

$$$$
P68893
     RDKit          3D

 26 29  0  0  0  0  0  0  0  0999 V2000
   -8.7809    6.7051  -10.4794 O   0  0  0  0  0  0  0  0  0  0  0  0
   -8.5007    5.6046  -10.9452 C   0  0  0  0  0  0  0  0  0  0  0  0
   -8.0177    4.4479  -10.1109 C   0  0  0  0  0  0  0  0  0  0  0  0
   -8.2395    3.1320  -10.8339 C   0  0  0  0  0  0  0  0  0  0  0  0
   -7.5753    3.1106  -12.2092 C   0  0  0  0  0  0  0  0  0  0  0  0
   -7.6247    4.4640  -12.9594 C   0  0  1  0  0  0  0  0  0  0  0  0
   -6.2339    5.1251  -12.9326 C   0  0  0  0  0  0  0  0  0  0  0  0
   -6.2036    6.4474  -13.7014 C   0  0  0  0  0  0  0  0  0  0  0  0
   -7.2046    6.5555  -14.8398 C   0  0  0  0  0  0  0  0  0  0  0  0
   -7.5795    5.2737  -15.3758 N   0  0  0  0  0  0  0  0  0  0  0  0
   -7.5433    5.0383  -16.7344 C   0  0  0  0  0  0  0  0  0  0  0  0
   -8.5218    5.2561  -17.4415 O   0  0  0  0  0  0  0  0  0  0  0  0
   -6.2428    4.5512  -17.3488 C   0  0  2  0  0  0  0  0  0  0  0  0
   -5.0388    4.5144  -16.4096 C   0  0  0  0  0  0  0  0  0  0  0  0
   -4.2197    5.7836  -16.5412 C   0  0  0  0  0  0  0  0  0  0  0  0
   -3.6082    5.8499  -17.9351 C   0  0  0  0  0  0  0  0  0  0  0  0
   -4.4893    5.2083  -18.9321 N   0  0  0  0  0  0  0  0  0  0  0  0
   -3.9722    5.2723  -20.2249 C   0  0  0  0  0  0  0  0  0  0  0  0
   -2.6831    4.7804  -20.4718 C   0  0  0  0  0  0  0  0  0  0  0  0
   -2.1183    4.9173  -21.7255 C   0  0  0  0  0  0  0  0  0  0  0  0
   -2.7444    5.5124  -22.7574 N   0  0  0  0  0  0  0  0  0  0  0  0
   -4.0000    5.9422  -22.5211 C   0  0  0  0  0  0  0  0  0  0  0  0
   -4.6517    5.8309  -21.3014 C   0  0  0  0  0  0  0  0  0  0  0  0
   -5.9370    5.3034  -18.6631 C   0  0  0  0  0  0  0  0  0  0  0  0
   -8.0018    4.2195  -14.4550 C   0  0  0  0  0  0  0  0  0  0  0  0
   -8.5606    5.3833  -12.2984 N   0  0  0  0  0  0  0  0  0  0  0  0
  1  2  2  0
  2  3  1  0
  3  4  1  0
  4  5  1  0
  6  5  1  1
  6  7  1  0
  7  8  1  0
  8  9  1  0
  9 10  1  0
 10 11  1  0
 11 12  2  0
 13 11  1  1
 13 14  1  0
 14 15  1  0
 15 16  1  0
 16 17  1  0
 17 18  1  0
 18 19  2  0
 19 20  1  0
 20 21  2  0
 21 22  1  0
 22 23  2  0
 17 24  1  0
 10 25  1  0
  6 26  1  0
 26  2  1  0
 25  6  1  0
 24 13  1  0
 23 18  1  0
M  END
>  <energy_score>  (234) 
-18.367207

>  <alias>  (234) 
None

>  <HIPPO Pose ID>  (234) 
68893

>  <smiles>  (234) 
O=C1CCC[C@]2(CCCN(C(=O)[C@@H]3CCCN(c4ccncc4)C3)C2)N1

>  <inchikey>  (234) 
GSRJHXDLHAKQDJ-OXQOHEQNSA-N

>  <distance_score>  (234) 
1.881249

>  <ref_mols>  (234) 
Z0852a,Z1719a

>  <ref_pdb>  (234) 
Z0852a

>  <HIPPO Compound ID>  (234) 
137608

>  <name>  (234) 
P68893

>  <inspiration_score>  (234) 
None

$$$$
P68894
     RDKit          3D

 26 28  0  0  0  0  0  0  0  0999 V2000
   -4.8684    6.1270  -21.4518 O   0  0  0  0  0  0  0  0  0  0  0  0
   -5.1209    6.0017  -20.2559 C   0  0  0  0  0  0  0  0  0  0  0  0
   -5.0512    4.6788  -19.5486 C   0  0  0  0  0  0  0  0  0  0  0  0
   -4.8835    4.8065  -18.0391 C   0  0  0  0  0  0  0  0  0  0  0  0
   -5.8896    5.7662  -17.3674 C   0  0  2  0  0  0  0  0  0  0  0  0
   -5.4381    6.0013  -15.8620 C   0  0  0  0  0  0  0  0  0  0  0  0
   -4.4152    5.5866  -15.4739 O   0  0  0  0  0  0  0  0  0  0  0  0
   -6.5729    6.7588  -15.1058 N   0  0  0  0  0  0  0  0  0  0  0  0
   -6.7201    7.0776  -13.6792 C   0  0  0  0  0  0  0  0  0  0  0  0
   -7.3258    5.8526  -12.9632 C   0  0  2  0  0  0  0  0  0  0  0  0
   -7.7035    5.9759  -11.4900 C   0  0  0  0  0  0  0  0  0  0  0  0
   -8.4170    4.6779  -11.0844 C   0  0  0  0  0  0  0  0  0  0  0  0
   -7.6190    3.4156  -11.3820 C   0  0  0  0  0  0  0  0  0  0  0  0
   -8.4717    2.3642  -11.2871 F   0  0  0  0  0  0  0  0  0  0  0  0
   -6.6947    3.2712  -10.3876 F   0  0  0  0  0  0  0  0  0  0  0  0
   -6.9277    3.4897  -12.7506 C   0  0  0  0  0  0  0  0  0  0  0  0
   -6.7288    2.5636  -13.5296 O   0  0  0  0  0  0  0  0  0  0  0  0
   -6.4334    4.7234  -13.0983 N   0  0  0  0  0  0  0  0  0  0  0  0
   -7.3069    5.1586  -17.4712 C   0  0  0  0  0  0  0  0  0  0  0  0
   -8.0821    5.3146  -18.6148 C   0  0  0  0  0  0  0  0  0  0  0  0
   -9.3830    4.8284  -18.7381 C   0  0  0  0  0  0  0  0  0  0  0  0
   -9.9789    4.2227  -17.6570 C   0  0  0  0  0  0  0  0  0  0  0  0
   -9.2254    4.0256  -16.5123 C   0  0  0  0  0  0  0  0  0  0  0  0
   -7.8915    4.4170  -16.4500 C   0  0  0  0  0  0  0  0  0  0  0  0
   -5.6790    7.1271  -18.0792 C   0  0  0  0  0  0  0  0  0  0  0  0
   -5.5044    7.0873  -19.5223 N   0  0  0  0  0  0  0  0  0  0  0  0
  1  2  2  0
  2  3  1  0
  3  4  1  0
  4  5  1  0
  5  6  1  1
  6  7  2  0
  6  8  1  0
  8  9  1  0
 10  9  1  1
 10 11  1  0
 11 12  1  0
 12 13  1  0
 13 14  1  0
 13 15  1  0
 13 16  1  0
 16 17  2  0
 16 18  1  0
  5 19  1  0
 19 20  2  0
 20 21  1  0
 21 22  2  0
 22 23  1  0
 23 24  2  0
  5 25  1  0
 25 26  1  0
 26  2  1  0
 18 10  1  0
 24 19  1  0
M  END
>  <energy_score>  (235) 
-37.578874

>  <alias>  (235) 
None

>  <HIPPO Pose ID>  (235) 
68894

>  <smiles>  (235) 
O=C1CC[C@](C(=O)NC[C@@H]2CCC(F)(F)C(=O)N2)(c2ccccc2)CN1

>  <inchikey>  (235) 
PNUDVDASNRZCLJ-SUMWQHHRSA-N

>  <distance_score>  (235) 
1.986186

>  <ref_mols>  (235) 
Z0852a,Z1719a

>  <ref_pdb>  (235) 
Z0852a

>  <HIPPO Compound ID>  (235) 
137635

>  <name>  (235) 
P68894

>  <inspiration_score>  (235) 
None

$$$$
P68895
     RDKit          3D

 26 28  0  0  0  0  0  0  0  0999 V2000
   -3.1318    5.7739  -18.9278 C   0  0  0  0  0  0  0  0  0  0  0  0
   -3.2167    4.5631  -18.0122 C   0  0  0  0  0  0  0  0  0  0  0  0
   -4.6019    4.2349  -17.9009 O   0  0  0  0  0  0  0  0  0  0  0  0
   -5.1961    4.3948  -16.7025 C   0  0  0  0  0  0  0  0  0  0  0  0
   -4.6241    4.2032  -15.6307 O   0  0  0  0  0  0  0  0  0  0  0  0
   -6.6147    4.9434  -16.7992 C   0  0  2  0  0  0  0  0  0  0  0  0
   -6.4008    6.3907  -16.3130 C   0  0  0  0  0  0  0  0  0  0  0  0
   -6.8007    6.6984  -14.8562 C   0  0  0  0  0  0  0  0  0  0  0  0
   -7.7010    7.3948  -14.6341 O   0  0  0  0  0  0  0  0  0  0  0  0
   -5.8178    6.0129  -13.9028 N   0  0  0  0  0  0  0  0  0  0  0  0
   -5.6767    6.1142  -12.4829 C   0  0  0  0  0  0  0  0  0  0  0  0
   -6.3792    5.0579  -11.6369 C   0  0  2  0  0  0  0  0  0  0  0  0
   -5.6686    3.6987  -11.6647 C   0  0  0  0  0  0  0  0  0  0  0  0
   -6.6513    2.7721  -10.9352 C   0  0  0  0  0  0  0  0  0  0  0  0
   -7.8247    3.7014  -10.6043 C   0  0  2  0  0  0  0  0  0  0  0  0
   -9.0508    2.9511  -10.1831 C   0  0  0  0  0  0  0  0  0  0  0  0
   -7.8460    4.6313  -11.8425 C   0  0  0  0  0  0  0  0  0  0  0  0
   -7.3275    4.6916   -9.5542 C   0  0  0  0  0  0  0  0  0  0  0  0
   -7.5946    4.7916   -8.3739 O   0  0  0  0  0  0  0  0  0  0  0  0
   -6.4387    5.4969  -10.2519 N   0  0  0  0  0  0  0  0  0  0  0  0
   -7.5905    4.1917  -15.8870 C   0  0  0  0  0  0  0  0  0  0  0  0
   -9.0438    4.6146  -16.0541 C   0  0  0  0  0  0  0  0  0  0  0  0
   -9.4789    4.4133  -17.4893 C   0  0  0  0  0  0  0  0  0  0  0  0
   -8.5464    5.0172  -18.4034 N   0  0  0  0  0  0  0  0  0  0  0  0
   -7.1906    4.9597  -18.2470 C   0  0  0  0  0  0  0  0  0  0  0  0
   -6.5108    5.0575  -19.2660 O   0  0  0  0  0  0  0  0  0  0  0  0
  1  2  1  0
  2  3  1  0
  3  4  1  0
  4  5  2  0
  4  6  1  0
  6  7  1  1
  7  8  1  0
  8  9  2  0
  8 10  1  0
 10 11  1  0
 12 11  1  6
 12 13  1  0
 13 14  1  0
 14 15  1  0
 15 16  1  1
 15 17  1  0
 15 18  1  0
 18 19  2  0
 18 20  1  0
  6 21  1  0
 21 22  1  0
 22 23  1  0
 23 24  1  0
 24 25  1  0
 25 26  2  0
 25  6  1  0
 17 12  1  0
 20 12  1  0
M  END
>  <energy_score>  (236) 
-31.256457

>  <alias>  (236) 
None

>  <HIPPO Pose ID>  (236) 
68895

>  <smiles>  (236) 
CCOC(=O)[C@]1(CC(=O)NC[C@]23CC[C@](C)(C2)C(=O)N3)CCCNC1=O

>  <inchikey>  (236) 
OZLKCPKIEOCJNM-SQNIBIBYSA-N

>  <distance_score>  (236) 
1.910137

>  <ref_mols>  (236) 
Z0852a,Z1719a

>  <ref_pdb>  (236) 
Z0852a

>  <HIPPO Compound ID>  (236) 
137665

>  <name>  (236) 
P68895

>  <inspiration_score>  (236) 
None

$$$$
P68896
     RDKit          3D

 26 27  0  0  0  0  0  0  0  0999 V2000
   -6.5672    3.5985  -13.1139 C   0  0  0  0  0  0  0  0  0  0  0  0
   -5.4695    3.7239  -14.1601 C   0  0  0  0  0  0  0  0  0  0  0  0
   -6.1128    4.0894  -15.3849 O   0  0  0  0  0  0  0  0  0  0  0  0
   -5.3625    4.6991  -16.3372 C   0  0  0  0  0  0  0  0  0  0  0  0
   -4.1530    4.5432  -16.4490 O   0  0  0  0  0  0  0  0  0  0  0  0
   -6.2090    5.6846  -17.1749 C   0  0  1  0  0  0  0  0  0  0  0  0
   -5.4910    7.0614  -16.9699 C   0  0  0  0  0  0  0  0  0  0  0  0
   -5.3886    7.9649  -18.2165 C   0  0  0  0  0  0  0  0  0  0  0  0
   -6.1987    8.7758  -18.4491 O   0  0  0  0  0  0  0  0  0  0  0  0
   -4.1211    7.5484  -19.0167 N   0  0  0  0  0  0  0  0  0  0  0  0
   -3.5415    8.1109  -20.2176 C   0  0  0  0  0  0  0  0  0  0  0  0
   -2.9654    7.1267  -21.2715 C   0  0  2  0  0  0  0  0  0  0  0  0
   -3.8908    5.9515  -21.5918 C   0  0  0  0  0  0  0  0  0  0  0  0
   -3.3561    4.5991  -21.1267 C   0  0  0  0  0  0  0  0  0  0  0  0
   -2.4587    4.6560  -19.8917 C   0  0  0  0  0  0  0  0  0  0  0  0
   -3.1961    5.0389  -18.8165 F   0  0  0  0  0  0  0  0  0  0  0  0
   -2.0104    3.4028  -19.6101 F   0  0  0  0  0  0  0  0  0  0  0  0
   -1.3207    5.6455  -20.1250 C   0  0  0  0  0  0  0  0  0  0  0  0
   -0.2170    5.6020  -19.5867 O   0  0  0  0  0  0  0  0  0  0  0  0
   -1.6118    6.7035  -20.9544 N   0  0  0  0  0  0  0  0  0  0  0  0
   -6.2599    5.3223  -18.6673 C   0  0  0  0  0  0  0  0  0  0  0  0
   -7.1952    4.1863  -18.9785 C   0  0  0  0  0  0  0  0  0  0  0  0
   -8.5931    4.5056  -18.5233 C   0  0  0  0  0  0  0  0  0  0  0  0
   -8.5946    4.8958  -17.1385 N   0  0  0  0  0  0  0  0  0  0  0  0
   -7.6281    5.6802  -16.5659 C   0  0  0  0  0  0  0  0  0  0  0  0
   -7.8999    6.2467  -15.5071 O   0  0  0  0  0  0  0  0  0  0  0  0
  1  2  1  0
  2  3  1  0
  3  4  1  0
  4  5  2  0
  4  6  1  0
  6  7  1  6
  7  8  1  0
  8  9  2  0
  8 10  1  0
 10 11  1  0
 12 11  1  1
 12 13  1  0
 13 14  1  0
 14 15  1  0
 15 16  1  0
 15 17  1  0
 15 18  1  0
 18 19  2  0
 18 20  1  0
  6 21  1  0
 21 22  1  0
 22 23  1  0
 23 24  1  0
 24 25  1  0
 25 26  2  0
 25  6  1  0
 20 12  1  0
M  END
>  <energy_score>  (237) 
-20.172404

>  <alias>  (237) 
None

>  <HIPPO Pose ID>  (237) 
68896

>  <smiles>  (237) 
CCOC(=O)[C@@]1(CC(=O)NC[C@@H]2CCC(F)(F)C(=O)N2)CCCNC1=O

>  <inchikey>  (237) 
VKPJVWZMMAQAAP-ZUZCIYMTSA-N

>  <distance_score>  (237) 
1.596149

>  <ref_mols>  (237) 
Z0852a,Z1719a

>  <ref_pdb>  (237) 
Z0852a

>  <HIPPO Compound ID>  (237) 
137666

>  <name>  (237) 
P68896

>  <inspiration_score>  (237) 
None

$$$$
P68898
     RDKit          3D

 26 27  0  0  0  0  0  0  0  0999 V2000
   -3.6171    6.6780  -15.4029 C   0  0  0  0  0  0  0  0  0  0  0  0
   -3.5748    7.4736  -16.6944 C   0  0  0  0  0  0  0  0  0  0  0  0
   -3.7900    6.5400  -17.7536 O   0  0  0  0  0  0  0  0  0  0  0  0
   -4.2035    7.0367  -18.9517 C   0  0  0  0  0  0  0  0  0  0  0  0
   -4.3011    8.2272  -19.2189 O   0  0  0  0  0  0  0  0  0  0  0  0
   -4.5451    5.8749  -19.8913 C   0  0  1  0  0  0  0  0  0  0  0  0
   -5.7092    5.0224  -19.2936 C   0  0  0  0  0  0  0  0  0  0  0  0
   -6.4102    5.5988  -18.0547 C   0  0  0  0  0  0  0  0  0  0  0  0
   -6.9147    6.6527  -18.0506 O   0  0  0  0  0  0  0  0  0  0  0  0
   -6.3099    4.5259  -16.9340 N   0  0  0  0  0  0  0  0  0  0  0  0
   -6.8535    4.4955  -15.6993 N   0  0  0  0  0  0  0  0  0  0  0  0
   -6.3482    3.8170  -14.3858 C   0  0  0  0  0  0  0  0  0  0  0  0
   -5.3486    3.2501  -14.1613 O   0  0  0  0  0  0  0  0  0  0  0  0
   -7.4710    3.9987  -13.3276 C   0  0  1  0  0  0  0  0  0  0  0  0
   -7.2812    3.0219  -12.1703 C   0  0  0  0  0  0  0  0  0  0  0  0
   -8.3092    3.2982  -11.0871 C   0  0  0  0  0  0  0  0  0  0  0  0
   -8.1494    4.7183  -10.5717 C   0  0  0  0  0  0  0  0  0  0  0  0
   -8.0752    5.7559  -11.6716 C   0  0  0  0  0  0  0  0  0  0  0  0
   -8.4024    6.9287  -11.5036 O   0  0  0  0  0  0  0  0  0  0  0  0
   -7.5170    5.3799  -12.8627 N   0  0  0  0  0  0  0  0  0  0  0  0
   -4.9863    6.3927  -21.2789 C   0  0  0  0  0  0  0  0  0  0  0  0
   -3.8192    6.8704  -22.1311 C   0  0  0  0  0  0  0  0  0  0  0  0
   -2.8157    5.7505  -22.3013 C   0  0  0  0  0  0  0  0  0  0  0  0
   -2.4185    5.2001  -21.0326 N   0  0  0  0  0  0  0  0  0  0  0  0
   -3.2898    4.9916  -20.0006 C   0  0  0  0  0  0  0  0  0  0  0  0
   -2.9991    4.1596  -19.1431 O   0  0  0  0  0  0  0  0  0  0  0  0
  1  2  1  0
  2  3  1  0
  3  4  1  0
  4  5  2  0
  4  6  1  0
  6  7  1  1
  7  8  1  0
  8  9  2  0
  8 10  1  0
 10 11  1  0
 11 12  1  0
 12 13  2  0
 14 12  1  6
 14 15  1  0
 15 16  1  0
 16 17  1  0
 17 18  1  0
 18 19  2  0
 18 20  1  0
  6 21  1  0
 21 22  1  0
 22 23  1  0
 23 24  1  0
 24 25  1  0
 25 26  2  0
 25  6  1  0
 20 14  1  0
M  END
>  <energy_score>  (238) 
-9.183659

>  <alias>  (238) 
None

>  <HIPPO Pose ID>  (238) 
68898

>  <smiles>  (238) 
CCOC(=O)[C@@]1(CC(=O)NNC(=O)[C@H]2CCCC(=O)N2)CCCNC1=O

>  <inchikey>  (238) 
CRSHHAIABBCYOO-QLJPJBMISA-N

>  <distance_score>  (238) 
1.891926

>  <ref_mols>  (238) 
Z0852a,Z1719a

>  <ref_pdb>  (238) 
Z0852a

>  <HIPPO Compound ID>  (238) 
137667

>  <name>  (238) 
P68898

>  <inspiration_score>  (238) 
None

$$$$
P68901
     RDKit          3D

 26 29  0  0  0  0  0  0  0  0999 V2000
   -7.8829    2.5623  -10.8119 C   0  0  0  0  0  0  0  0  0  0  0  0
   -7.4940    3.9661  -11.1437 C   0  0  2  0  0  0  0  0  0  0  0  0
   -8.1715    5.0599  -10.3003 C   0  0  0  0  0  0  0  0  0  0  0  0
   -7.9640    6.3292  -11.1561 C   0  0  0  0  0  0  0  0  0  0  0  0
   -7.1286    5.8037  -12.3382 C   0  0  2  0  0  0  0  0  0  0  0  0
   -6.9986    6.7398  -13.5346 C   0  0  0  0  0  0  0  0  0  0  0  0
   -6.0154    6.2275  -14.4640 N   0  0  0  0  0  0  0  0  0  0  0  0
   -5.3728    6.8840  -15.7138 C   0  0  0  0  0  0  0  0  0  0  0  0
   -5.5946    7.9072  -16.2280 O   0  0  0  0  0  0  0  0  0  0  0  0
   -4.3805    5.8558  -16.2797 C   0  0  2  0  0  0  0  0  0  0  0  0
   -3.5783    6.3757  -17.4750 C   0  0  0  0  0  0  0  0  0  0  0  0
   -4.3900    6.4256  -18.7666 C   0  0  0  0  0  0  0  0  0  0  0  0
   -5.3497    5.2704  -19.0254 C   0  0  0  0  0  0  0  0  0  0  0  0
   -5.6069    4.9393  -20.1800 O   0  0  0  0  0  0  0  0  0  0  0  0
   -5.9540    4.7798  -17.8641 N   0  0  0  0  0  0  0  0  0  0  0  0
   -7.3556    4.5168  -17.7791 C   0  0  0  0  0  0  0  0  0  0  0  0
   -8.1635    4.5264  -18.9099 C   0  0  0  0  0  0  0  0  0  0  0  0
   -9.5470    4.5026  -18.8162 C   0  0  0  0  0  0  0  0  0  0  0  0
  -10.1506    4.3663  -17.5816 C   0  0  0  0  0  0  0  0  0  0  0  0
   -9.3710    4.2558  -16.4469 C   0  0  0  0  0  0  0  0  0  0  0  0
   -7.9919    4.3400  -16.5484 C   0  0  0  0  0  0  0  0  0  0  0  0
   -5.0741    4.5772  -16.7302 C   0  0  0  0  0  0  0  0  0  0  0  0
   -7.7735    4.4312  -12.5795 C   0  0  0  0  0  0  0  0  0  0  0  0
   -5.8317    5.3948  -11.8281 N   0  0  0  0  0  0  0  0  0  0  0  0
   -5.9973    4.2527  -11.0530 C   0  0  0  0  0  0  0  0  0  0  0  0
   -5.1277    3.6976  -10.4150 O   0  0  0  0  0  0  0  0  0  0  0  0
  2  1  1  6
  2  3  1  0
  3  4  1  0
  4  5  1  0
  5  6  1  6
  6  7  1  0
  7  8  1  0
  8  9  2  0
 10  8  1  6
 10 11  1  0
 11 12  1  0
 12 13  1  0
 13 14  2  0
 13 15  1  0
 15 16  1  0
 16 17  2  0
 17 18  1  0
 18 19  2  0
 19 20  1  0
 20 21  2  0
 15 22  1  0
  5 23  1  0
  5 24  1  0
 24 25  1  0
 25 26  2  0
 23  2  1  0
 25  2  1  0
 22 10  1  0
 21 16  1  0
M  END
>  <energy_score>  (239) 
-36.608024

>  <alias>  (239) 
None

>  <HIPPO Pose ID>  (239) 
68901

>  <smiles>  (239) 
C[C@]12CC[C@](CNC(=O)[C@@H]3CCC(=O)N(c4ccccc4)C3)(C1)NC2=O

>  <inchikey>  (239) 
UWZXUZICOBDVKW-VOBQZIQPSA-N

>  <distance_score>  (239) 
1.903227

>  <ref_mols>  (239) 
Z0852a,Z1719a

>  <ref_pdb>  (239) 
Z0852a

>  <HIPPO Compound ID>  (239) 
137668

>  <name>  (239) 
P68901

>  <inspiration_score>  (239) 
None

$$$$
P68902
     RDKit          3D

 26 29  0  0  0  0  0  0  0  0999 V2000
   -8.5154    3.9766   -8.7323 C   0  0  0  0  0  0  0  0  0  0  0  0
   -7.9510    4.3550  -10.0767 C   0  0  2  0  0  0  0  0  0  0  0  0
   -8.2882    3.3896  -11.2296 C   0  0  0  0  0  0  0  0  0  0  0  0
   -7.1782    3.6646  -12.2624 C   0  0  0  0  0  0  0  0  0  0  0  0
   -6.3925    4.8185  -11.6004 C   0  0  2  0  0  0  0  0  0  0  0  0
   -4.9829    5.0971  -12.1188 C   0  0  0  0  0  0  0  0  0  0  0  0
   -4.9839    5.3590  -13.5292 N   0  0  0  0  0  0  0  0  0  0  0  0
   -3.8054    5.5944  -14.5114 C   0  0  0  0  0  0  0  0  0  0  0  0
   -2.6584    5.6877  -14.3089 O   0  0  0  0  0  0  0  0  0  0  0  0
   -4.4086    5.7645  -15.9266 C   0  0  1  0  0  0  0  0  0  0  0  0
   -3.3258    5.7185  -17.0119 C   0  0  0  0  0  0  0  0  0  0  0  0
   -3.8664    5.4044  -18.4057 C   0  0  0  0  0  0  0  0  0  0  0  0
   -5.3572    5.7034  -18.5316 C   0  0  0  0  0  0  0  0  0  0  0  0
   -6.1111    4.9787  -17.5169 N   0  0  0  0  0  0  0  0  0  0  0  0
   -7.4884    4.6623  -17.7160 C   0  0  0  0  0  0  0  0  0  0  0  0
   -8.0484    4.5816  -18.9811 C   0  0  0  0  0  0  0  0  0  0  0  0
   -9.4219    4.4407  -19.1414 C   0  0  0  0  0  0  0  0  0  0  0  0
  -10.2414    4.2609  -18.0401 C   0  0  0  0  0  0  0  0  0  0  0  0
   -9.6794    4.2143  -16.7880 C   0  0  0  0  0  0  0  0  0  0  0  0
   -8.3379    4.4652  -16.6251 C   0  0  0  0  0  0  0  0  0  0  0  0
   -5.5402    4.8059  -16.2594 C   0  0  0  0  0  0  0  0  0  0  0  0
   -5.9704    4.0198  -15.4171 O   0  0  0  0  0  0  0  0  0  0  0  0
   -6.4226    4.3927  -10.1316 C   0  0  0  0  0  0  0  0  0  0  0  0
   -7.2703    5.9765  -11.5833 N   0  0  0  0  0  0  0  0  0  0  0  0
   -8.1903    5.7906  -10.5471 C   0  0  0  0  0  0  0  0  0  0  0  0
   -8.9191    6.6472  -10.0881 O   0  0  0  0  0  0  0  0  0  0  0  0
  2  1  1  1
  2  3  1  0
  3  4  1  0
  4  5  1  0
  5  6  1  6
  6  7  1  0
  7  8  1  0
  8  9  2  0
 10  8  1  1
 10 11  1  0
 11 12  1  0
 12 13  1  0
 13 14  1  0
 14 15  1  0
 15 16  2  0
 16 17  1  0
 17 18  2  0
 18 19  1  0
 19 20  2  0
 14 21  1  0
 21 22  2  0
  5 23  1  0
  5 24  1  0
 24 25  1  0
 25 26  2  0
 23  2  1  0
 25  2  1  0
 21 10  1  0
 20 15  1  0
M  END
>  <energy_score>  (240) 
-21.769572

>  <alias>  (240) 
None

>  <HIPPO Pose ID>  (240) 
68902

>  <smiles>  (240) 
C[C@]12CC[C@](CNC(=O)[C@H]3CCCN(c4ccccc4)C3=O)(C1)NC2=O

>  <inchikey>  (240) 
CYGQRYCWARHCOI-UIAACRFSSA-N

>  <distance_score>  (240) 
1.90648

>  <ref_mols>  (240) 
Z0852a,Z1719a

>  <ref_pdb>  (240) 
Z0852a

>  <HIPPO Compound ID>  (240) 
137688

>  <name>  (240) 
P68902

>  <inspiration_score>  (240) 
None

$$$$
P68904
     RDKit          3D

 26 28  0  0  0  0  0  0  0  0999 V2000
   -5.6668    8.0426  -16.0881 O   0  0  0  0  0  0  0  0  0  0  0  0
   -5.5481    6.9565  -15.6704 C   0  0  0  0  0  0  0  0  0  0  0  0
   -6.3056    6.2299  -14.5186 N   0  0  0  0  0  0  0  0  0  0  0  0
   -7.4234    6.6608  -13.7153 C   0  0  0  0  0  0  0  0  0  0  0  0
   -7.6897    5.8247  -12.4520 C   0  0  1  0  0  0  0  0  0  0  0  0
   -8.1263    4.3704  -12.6941 C   0  0  0  0  0  0  0  0  0  0  0  0
   -8.2051    3.5383  -11.3949 C   0  0  0  0  0  0  0  0  0  0  0  0
   -7.9002    4.3410  -10.1313 C   0  0  0  0  0  0  0  0  0  0  0  0
   -7.8236    3.5032   -9.0665 F   0  0  0  0  0  0  0  0  0  0  0  0
   -8.9510    5.1750   -9.8764 F   0  0  0  0  0  0  0  0  0  0  0  0
   -6.6198    5.1721  -10.3457 C   0  0  0  0  0  0  0  0  0  0  0  0
   -5.7098    5.3191   -9.5334 O   0  0  0  0  0  0  0  0  0  0  0  0
   -6.5496    5.8222  -11.5637 N   0  0  0  0  0  0  0  0  0  0  0  0
   -4.5818    5.9484  -16.3268 C   0  0  2  0  0  0  0  0  0  0  0  0
   -3.9806    6.4807  -17.6415 C   0  0  0  0  0  0  0  0  0  0  0  0
   -4.8681    6.2363  -18.8634 C   0  0  0  0  0  0  0  0  0  0  0  0
   -5.1957    4.7610  -18.8994 C   0  0  0  0  0  0  0  0  0  0  0  0
   -5.9256    4.4109  -17.6982 N   0  0  0  0  0  0  0  0  0  0  0  0
   -7.3554    4.3398  -17.7118 C   0  0  0  0  0  0  0  0  0  0  0  0
   -8.0872    4.4531  -18.8947 C   0  0  0  0  0  0  0  0  0  0  0  0
   -9.4746    4.5252  -18.8846 C   0  0  0  0  0  0  0  0  0  0  0  0
  -10.1655    4.4096  -17.6951 C   0  0  0  0  0  0  0  0  0  0  0  0
   -9.4578    4.2235  -16.5192 C   0  0  0  0  0  0  0  0  0  0  0  0
   -8.0730    4.1945  -16.5263 C   0  0  0  0  0  0  0  0  0  0  0  0
   -5.2475    4.5925  -16.4967 C   0  0  0  0  0  0  0  0  0  0  0  0
   -5.2881    3.8364  -15.5226 O   0  0  0  0  0  0  0  0  0  0  0  0
  1  2  2  0
  2  3  1  0
  3  4  1  0
  5  4  1  6
  5  6  1  0
  6  7  1  0
  7  8  1  0
  8  9  1  0
  8 10  1  0
  8 11  1  0
 11 12  2  0
 11 13  1  0
 14  2  1  6
 14 15  1  0
 15 16  1  0
 16 17  1  0
 17 18  1  0
 18 19  1  0
 19 20  2  0
 20 21  1  0
 21 22  2  0
 22 23  1  0
 23 24  2  0
 18 25  1  0
 25 26  2  0
 13  5  1  0
 25 14  1  0
 24 19  1  0
M  END
>  <energy_score>  (241) 
-29.591025

>  <alias>  (241) 
None

>  <HIPPO Pose ID>  (241) 
68904

>  <smiles>  (241) 
O=C(NC[C@H]1CCC(F)(F)C(=O)N1)[C@@H]1CCCN(c2ccccc2)C1=O

>  <inchikey>  (241) 
URHUKYLEQWDTMW-OCCSQVGLSA-N

>  <distance_score>  (241) 
1.787219

>  <ref_mols>  (241) 
Z0852a,Z1719a

>  <ref_pdb>  (241) 
Z0852a

>  <HIPPO Compound ID>  (241) 
137689

>  <name>  (241) 
P68904

>  <inspiration_score>  (241) 
None

$$$$
P68907
     RDKit          3D

 26 29  0  0  0  0  0  0  0  0999 V2000
   -7.0908    6.3041   -8.6566 C   0  0  0  0  0  0  0  0  0  0  0  0
   -7.5559    5.2457   -9.6246 C   0  0  2  0  0  0  0  0  0  0  0  0
   -8.4027    4.1219   -9.0068 C   0  0  0  0  0  0  0  0  0  0  0  0
   -8.3418    3.0132  -10.0690 C   0  0  0  0  0  0  0  0  0  0  0  0
   -7.4807    3.6470  -11.1560 C   0  0  2  0  0  0  0  0  0  0  0  0
   -6.8098    2.7210  -12.1528 C   0  0  0  0  0  0  0  0  0  0  0  0
   -6.2965    3.6006  -13.1603 N   0  0  0  0  0  0  0  0  0  0  0  0
   -5.0918    3.4452  -14.1034 C   0  0  0  0  0  0  0  0  0  0  0  0
   -4.2800    2.6132  -14.1595 O   0  0  0  0  0  0  0  0  0  0  0  0
   -5.1440    4.6503  -15.0432 C   0  0  2  0  0  0  0  0  0  0  0  0
   -4.7324    5.9450  -14.3233 C   0  0  0  0  0  0  0  0  0  0  0  0
   -5.3094    7.1853  -15.0073 C   0  0  0  0  0  0  0  0  0  0  0  0
   -5.5174    6.9081  -16.4932 C   0  0  0  0  0  0  0  0  0  0  0  0
   -6.5806    5.9042  -16.6595 N   0  0  0  0  0  0  0  0  0  0  0  0
   -6.6809    5.4022  -17.9738 C   0  0  0  0  0  0  0  0  0  0  0  0
   -5.5901    5.5691  -18.7650 N   0  0  0  0  0  0  0  0  0  0  0  0
   -5.5407    4.9031  -19.9267 C   0  0  0  0  0  0  0  0  0  0  0  0
   -6.5534    4.0864  -20.3681 C   0  0  0  0  0  0  0  0  0  0  0  0
   -7.7224    4.0062  -19.6199 C   0  0  0  0  0  0  0  0  0  0  0  0
   -7.8001    4.6622  -18.4043 C   0  0  0  0  0  0  0  0  0  0  0  0
   -9.2504    4.4480  -17.4824 Cl  0  0  0  0  0  0  0  0  0  0  0  0
   -6.5312    4.7781  -15.7104 C   0  0  0  0  0  0  0  0  0  0  0  0
   -6.4685    4.4442  -10.3308 C   0  0  0  0  0  0  0  0  0  0  0  0
   -8.2276    4.7494  -11.7687 N   0  0  0  0  0  0  0  0  0  0  0  0
   -8.3115    5.7789  -10.8350 C   0  0  0  0  0  0  0  0  0  0  0  0
   -8.8822    6.8423  -10.9692 O   0  0  0  0  0  0  0  0  0  0  0  0
  2  1  1  1
  2  3  1  0
  3  4  1  0
  4  5  1  0
  5  6  1  6
  6  7  1  0
  7  8  1  0
  8  9  2  0
 10  8  1  1
 10 11  1  0
 11 12  1  0
 12 13  1  0
 13 14  1  0
 14 15  1  0
 15 16  2  0
 16 17  1  0
 17 18  2  0
 18 19  1  0
 19 20  2  0
 20 21  1  0
 14 22  1  0
  5 23  1  0
  5 24  1  0
 24 25  1  0
 25 26  2  0
 23  2  1  0
 25  2  1  0
 22 10  1  0
 20 15  1  0
M  END
>  <energy_score>  (242) 
-10.919112

>  <alias>  (242) 
None

>  <HIPPO Pose ID>  (242) 
68907

>  <smiles>  (242) 
C[C@]12CC[C@](CNC(=O)[C@@H]3CCCN(c4ncccc4Cl)C3)(C1)NC2=O

>  <inchikey>  (242) 
VORMULAACHYIBZ-ZNZDAUKMSA-N

>  <distance_score>  (242) 
1.997218

>  <ref_mols>  (242) 
Z0852a,Z1719a

>  <ref_pdb>  (242) 
Z0852a

>  <HIPPO Compound ID>  (242) 
137711

>  <name>  (242) 
P68907

>  <inspiration_score>  (242) 
None

$$$$
P68909
     RDKit          3D

 26 28  0  0  0  0  0  0  0  0999 V2000
   -3.8534    4.1990  -14.0323 C   0  0  0  0  0  0  0  0  0  0  0  0
   -4.9432    4.9341  -14.6625 N   0  0  0  0  0  0  0  0  0  0  0  0
   -4.7430    6.2181  -15.1120 C   0  0  0  0  0  0  0  0  0  0  0  0
   -3.6206    6.7165  -15.1692 O   0  0  0  0  0  0  0  0  0  0  0  0
   -5.9358    6.9855  -15.6292 C   0  0  0  0  0  0  0  0  0  0  0  0
   -7.1510    6.1912  -16.0765 C   0  0  0  0  0  0  0  0  0  0  0  0
   -6.9396    4.6943  -16.1192 C   0  0  1  0  0  0  0  0  0  0  0  0
   -6.3996    4.3887  -17.5518 C   0  0  0  0  0  0  0  0  0  0  0  0
   -7.1831    4.1844  -18.3949 O   0  0  0  0  0  0  0  0  0  0  0  0
   -4.8539    4.5129  -17.6243 N   0  0  0  0  0  0  0  0  0  0  0  0
   -3.9478    4.3169  -18.7330 C   0  0  0  0  0  0  0  0  0  0  0  0
   -3.2316    5.5741  -19.2739 C   0  0  2  0  0  0  0  0  0  0  0  0
   -4.1978    6.7312  -19.5162 C   0  0  0  0  0  0  0  0  0  0  0  0
   -5.0865    6.4482  -20.7195 C   0  0  0  0  0  0  0  0  0  0  0  0
   -4.2453    6.3153  -21.9750 C   0  0  0  0  0  0  0  0  0  0  0  0
   -5.0477    5.8523  -22.9778 F   0  0  0  0  0  0  0  0  0  0  0  0
   -3.8840    7.5820  -22.3562 F   0  0  0  0  0  0  0  0  0  0  0  0
   -2.9863    5.4409  -21.7821 C   0  0  0  0  0  0  0  0  0  0  0  0
   -2.3509    4.9666  -22.7249 O   0  0  0  0  0  0  0  0  0  0  0  0
   -2.4919    5.2789  -20.5037 N   0  0  0  0  0  0  0  0  0  0  0  0
   -6.2010    4.2243  -14.8702 C   0  0  2  0  0  0  0  0  0  0  0  0
   -7.0236    4.2290  -13.5793 C   0  0  0  0  0  0  0  0  0  0  0  0
   -7.6180    3.1257  -12.9918 C   0  0  0  0  0  0  0  0  0  0  0  0
   -8.2703    3.4171  -11.7598 C   0  0  0  0  0  0  0  0  0  0  0  0
   -8.1611    4.7460  -11.4296 C   0  0  0  0  0  0  0  0  0  0  0  0
   -7.2787    5.6228  -12.6028 S   0  0  0  0  0  0  0  0  0  0  0  0
  1  2  1  0
  2  3  1  0
  3  4  2  0
  3  5  1  0
  5  6  1  0
  6  7  1  0
  7  8  1  6
  8  9  2  0
  8 10  1  0
 10 11  1  0
 12 11  1  6
 12 13  1  0
 13 14  1  0
 14 15  1  0
 15 16  1  0
 15 17  1  0
 15 18  1  0
 18 19  2  0
 18 20  1  0
  7 21  1  0
 21 22  1  1
 22 23  2  0
 23 24  1  0
 24 25  2  0
 25 26  1  0
 21  2  1  0
 26 22  1  0
 20 12  1  0
M  END
>  <energy_score>  (243) 
-41.434602

>  <alias>  (243) 
None

>  <HIPPO Pose ID>  (243) 
68909

>  <smiles>  (243) 
CN1C(=O)CC[C@@H](C(=O)NC[C@@H]2CCC(F)(F)C(=O)N2)[C@@H]1c1cccs1

>  <inchikey>  (243) 
CTMZQMCKGBOKEZ-MISXGVKJSA-N

>  <distance_score>  (243) 
1.654735

>  <ref_mols>  (243) 
Z0852a,Z1719a

>  <ref_pdb>  (243) 
Z0852a

>  <HIPPO Compound ID>  (243) 
137719

>  <name>  (243) 
P68909

>  <inspiration_score>  (243) 
None

$$$$
P68914
     RDKit          3D

 26 29  0  0  0  0  0  0  0  0999 V2000
   -8.1155    4.5430   -9.0490 C   0  0  0  0  0  0  0  0  0  0  0  0
   -7.7021    4.5641  -10.4964 C   0  0  2  0  0  0  0  0  0  0  0  0
   -8.2152    3.3903  -11.3583 C   0  0  0  0  0  0  0  0  0  0  0  0
   -7.2476    3.3867  -12.5619 C   0  0  0  0  0  0  0  0  0  0  0  0
   -6.3575    4.6115  -12.2778 C   0  0  2  0  0  0  0  0  0  0  0  0
   -5.0096    4.6682  -12.9965 C   0  0  0  0  0  0  0  0  0  0  0  0
   -5.0517    4.7964  -14.4352 N   0  0  0  0  0  0  0  0  0  0  0  0
   -3.9118    5.0806  -15.4586 C   0  0  0  0  0  0  0  0  0  0  0  0
   -2.7835    5.3298  -15.2847 O   0  0  0  0  0  0  0  0  0  0  0  0
   -4.5208    4.9372  -16.8523 C   0  0  2  0  0  0  0  0  0  0  0  0
   -3.4949    4.7463  -17.9831 C   0  0  0  0  0  0  0  0  0  0  0  0
   -4.0341    5.2268  -19.3426 C   0  0  0  0  0  0  0  0  0  0  0  0
   -5.5572    5.1111  -19.4774 C   0  0  0  0  0  0  0  0  0  0  0  0
   -6.2527    5.7318  -18.3410 N   0  0  0  0  0  0  0  0  0  0  0  0
   -7.4576    5.2132  -17.9964 C   0  0  0  0  0  0  0  0  0  0  0  0
   -8.4588    4.4958  -18.6138 C   0  0  0  0  0  0  0  0  0  0  0  0
   -9.4175    4.2057  -17.5986 C   0  0  0  0  0  0  0  0  0  0  0  0
   -8.9414    4.7850  -16.4483 C   0  0  0  0  0  0  0  0  0  0  0  0
   -9.3717    4.8864  -15.1016 C   0  0  0  0  0  0  0  0  0  0  0  0
   -9.0759    5.7917  -14.3253 O   0  0  0  0  0  0  0  0  0  0  0  0
   -7.7834    5.4035  -16.7044 O   0  0  0  0  0  0  0  0  0  0  0  0
   -5.3835    6.1410  -17.2140 C   0  0  0  0  0  0  0  0  0  0  0  0
   -6.1991    4.5035  -10.7518 C   0  0  0  0  0  0  0  0  0  0  0  0
   -7.1490    5.8235  -12.3597 N   0  0  0  0  0  0  0  0  0  0  0  0
   -8.0157    5.8458  -11.2617 C   0  0  0  0  0  0  0  0  0  0  0  0
   -8.8479    6.6963  -11.0195 O   0  0  0  0  0  0  0  0  0  0  0  0
  2  1  1  1
  2  3  1  0
  3  4  1  0
  4  5  1  0
  5  6  1  6
  6  7  1  0
  7  8  1  0
  8  9  2  0
 10  8  1  1
 10 11  1  0
 11 12  1  0
 12 13  1  0
 13 14  1  0
 14 15  1  0
 15 16  2  0
 16 17  1  0
 17 18  2  0
 18 19  1  0
 19 20  2  0
 18 21  1  0
 14 22  1  0
  5 23  1  0
  5 24  1  0
 24 25  1  0
 25 26  2  0
 23  2  1  0
 25  2  1  0
 22 10  1  0
 21 15  1  0
M  END
>  <energy_score>  (244) 
-34.981042

>  <alias>  (244) 
None

>  <HIPPO Pose ID>  (244) 
68914

>  <smiles>  (244) 
C[C@]12CC[C@](CNC(=O)[C@@H]3CCCN(c4ccc(C=O)o4)C3)(C1)NC2=O

>  <inchikey>  (244) 
IQTFABPVIHBDQK-ZNZDAUKMSA-N

>  <distance_score>  (244) 
1.755621

>  <ref_mols>  (244) 
Z0852a,Z1719a

>  <ref_pdb>  (244) 
Z0852a

>  <HIPPO Compound ID>  (244) 
137720

>  <name>  (244) 
P68914

>  <inspiration_score>  (244) 
None

$$$$
P68916
     RDKit          3D

 27 29  0  0  0  0  0  0  0  0999 V2000
   -5.5945    7.6166  -23.6558 C   0  0  0  0  0  0  0  0  0  0  0  0
   -4.8669    8.4454  -22.5936 C   0  0  0  0  0  0  0  0  0  0  0  0
   -4.6623    9.8742  -23.1036 C   0  0  0  0  0  0  0  0  0  0  0  0
   -3.5041    7.8217  -22.2132 C   0  0  0  0  0  0  0  0  0  0  0  0
   -3.5996    6.4609  -21.6701 N   0  0  0  0  0  0  0  0  0  0  0  0
   -2.2990    5.7681  -21.6403 C   0  0  0  0  0  0  0  0  0  0  0  0
   -1.7020    5.6457  -20.2414 C   0  0  0  0  0  0  0  0  0  0  0  0
   -2.6288    4.8845  -19.2979 C   0  0  0  0  0  0  0  0  0  0  0  0
   -4.1011    5.0940  -19.6649 C   0  0  1  0  0  0  0  0  0  0  0  0
   -5.0996    4.7760  -18.5429 C   0  0  0  0  0  0  0  0  0  0  0  0
   -5.9379    4.0026  -18.7806 O   0  0  0  0  0  0  0  0  0  0  0  0
   -4.7425    5.4911  -17.2186 N   0  0  0  0  0  0  0  0  0  0  0  0
   -5.2958    5.3262  -15.8622 C   0  0  0  0  0  0  0  0  0  0  0  0
   -6.8121    4.9774  -15.5966 C   0  0  1  0  0  0  0  0  0  0  0  0
   -6.9449    4.5178  -14.0994 C   0  0  0  0  0  0  0  0  0  0  0  0
   -6.9157    5.4392  -13.0153 C   0  0  0  0  0  0  0  0  0  0  0  0
   -7.2188    5.0601  -11.6982 C   0  0  0  0  0  0  0  0  0  0  0  0
   -7.4968    3.7357  -11.4120 C   0  0  0  0  0  0  0  0  0  0  0  0
   -7.4425    2.8034  -12.4373 C   0  0  0  0  0  0  0  0  0  0  0  0
   -7.1824    3.1890  -13.7587 C   0  0  0  0  0  0  0  0  0  0  0  0
   -7.7140    6.1988  -15.7404 C   0  0  0  0  0  0  0  0  0  0  0  0
   -9.1618    5.7797  -15.4373 C   0  0  0  0  0  0  0  0  0  0  0  0
   -9.6387    4.6942  -16.3786 C   0  0  0  0  0  0  0  0  0  0  0  0
   -8.5662    4.0398  -17.1617 C   0  0  0  0  0  0  0  0  0  0  0  0
   -8.8388    3.4786  -18.2173 O   0  0  0  0  0  0  0  0  0  0  0  0
   -7.3201    4.0232  -16.5989 N   0  0  0  0  0  0  0  0  0  0  0  0
   -4.3482    6.4053  -20.3943 C   0  0  0  0  0  0  0  0  0  0  0  0
  1  2  1  0
  2  3  1  0
  2  4  1  0
  4  5  1  0
  5  6  1  0
  6  7  1  0
  7  8  1  0
  8  9  1  0
  9 10  1  1
 10 11  2  0
 10 12  1  0
 12 13  1  0
 14 13  1  6
 14 15  1  0
 15 16  2  0
 16 17  1  0
 17 18  2  0
 18 19  1  0
 19 20  2  0
 14 21  1  0
 21 22  1  0
 22 23  1  0
 23 24  1  0
 24 25  2  0
 24 26  1  0
  9 27  1  0
 27  5  1  0
 26 14  1  0
 20 15  1  0
M  END
>  <energy_score>  (245) 
-25.720603

>  <alias>  (245) 
None

>  <HIPPO Pose ID>  (245) 
68916

>  <smiles>  (245) 
CC(C)CN1CCC[C@@H](C(=O)NC[C@@]2(c3ccccc3)CCCC(=O)N2)C1

>  <inchikey>  (245) 
KHEDBEUUXFREME-XMSQKQJNSA-N

>  <distance_score>  (245) 
1.745288

>  <ref_mols>  (245) 
Z0852a,Z1719a

>  <ref_pdb>  (245) 
Z0852a

>  <HIPPO Compound ID>  (245) 
137762

>  <name>  (245) 
P68916

>  <inspiration_score>  (245) 
None

$$$$
P68921
     RDKit          3D

 27 29  0  0  0  0  0  0  0  0999 V2000
   -5.5481    8.0320  -14.4925 C   0  0  0  0  0  0  0  0  0  0  0  0
   -5.7279    6.6551  -14.9222 N   0  0  0  0  0  0  0  0  0  0  0  0
   -4.5964    5.8864  -15.1392 C   0  0  0  0  0  0  0  0  0  0  0  0
   -3.4650    6.3579  -15.1741 O   0  0  0  0  0  0  0  0  0  0  0  0
   -4.8377    4.4267  -15.3523 C   0  0  0  0  0  0  0  0  0  0  0  0
   -6.0324    4.1426  -16.2317 C   0  0  0  0  0  0  0  0  0  0  0  0
   -7.1655    5.1413  -16.1915 C   0  0  2  0  0  0  0  0  0  0  0  0
   -7.2805    5.7696  -17.6056 C   0  0  0  0  0  0  0  0  0  0  0  0
   -8.1956    5.4759  -18.2688 O   0  0  0  0  0  0  0  0  0  0  0  0
   -6.0881    6.7165  -17.9014 N   0  0  0  0  0  0  0  0  0  0  0  0
   -5.7262    7.4254  -19.1156 C   0  0  0  0  0  0  0  0  0  0  0  0
   -4.6109    6.7928  -19.9895 C   0  0  2  0  0  0  0  0  0  0  0  0
   -5.0014    5.4183  -20.5312 C   0  0  0  0  0  0  0  0  0  0  0  0
   -3.7893    4.7073  -21.0981 C   0  0  0  0  0  0  0  0  0  0  0  0
   -2.7460    4.5393  -20.0005 C   0  0  0  0  0  0  0  0  0  0  0  0
   -3.2922    3.8436  -18.9581 F   0  0  0  0  0  0  0  0  0  0  0  0
   -1.7327    3.7734  -20.4790 F   0  0  0  0  0  0  0  0  0  0  0  0
   -2.3017    5.9170  -19.5291 C   0  0  0  0  0  0  0  0  0  0  0  0
   -1.1456    6.2496  -19.2789 O   0  0  0  0  0  0  0  0  0  0  0  0
   -3.3185    6.8205  -19.3057 N   0  0  0  0  0  0  0  0  0  0  0  0
   -7.0805    6.0614  -14.9619 C   0  0  1  0  0  0  0  0  0  0  0  0
   -7.4978    5.4725  -13.5947 C   0  0  0  0  0  0  0  0  0  0  0  0
   -7.8170    4.1217  -13.3728 C   0  0  0  0  0  0  0  0  0  0  0  0
   -8.1937    3.6534  -12.1044 C   0  0  0  0  0  0  0  0  0  0  0  0
   -8.2792    4.5248  -11.0273 C   0  0  0  0  0  0  0  0  0  0  0  0
   -7.9964    5.8699  -11.2203 C   0  0  0  0  0  0  0  0  0  0  0  0
   -7.6185    6.3349  -12.4865 C   0  0  0  0  0  0  0  0  0  0  0  0
  1  2  1  0
  2  3  1  0
  3  4  2  0
  3  5  1  0
  5  6  1  0
  6  7  1  0
  7  8  1  6
  8  9  2  0
  8 10  1  0
 10 11  1  0
 12 11  1  1
 12 13  1  0
 13 14  1  0
 14 15  1  0
 15 16  1  0
 15 17  1  0
 15 18  1  0
 18 19  2  0
 18 20  1  0
  7 21  1  0
 21 22  1  1
 22 23  2  0
 23 24  1  0
 24 25  2  0
 25 26  1  0
 26 27  2  0
 21  2  1  0
 27 22  1  0
 20 12  1  0
M  END
>  <energy_score>  (246) 
-22.171771

>  <alias>  (246) 
None

>  <HIPPO Pose ID>  (246) 
68921

>  <smiles>  (246) 
CN1C(=O)CC[C@H](C(=O)NC[C@@H]2CCC(F)(F)C(=O)N2)[C@H]1c1ccccc1

>  <inchikey>  (246) 
MIZACDAEIWSBIV-OFQRWUPVSA-N

>  <distance_score>  (246) 
1.813186

>  <ref_mols>  (246) 
Z0852a,Z1719a

>  <ref_pdb>  (246) 
Z0852a

>  <HIPPO Compound ID>  (246) 
137771

>  <name>  (246) 
P68921

>  <inspiration_score>  (246) 
None

$$$$
P68924
     RDKit          3D

 27 29  0  0  0  0  0  0  0  0999 V2000
   -4.3588    3.5850  -14.2752 C   0  0  0  0  0  0  0  0  0  0  0  0
   -5.1971    4.4656  -15.0819 N   0  0  0  0  0  0  0  0  0  0  0  0
   -4.6714    5.7064  -15.3567 C   0  0  0  0  0  0  0  0  0  0  0  0
   -3.5032    6.0065  -15.1101 O   0  0  0  0  0  0  0  0  0  0  0  0
   -5.5345    6.7222  -16.0476 C   0  0  0  0  0  0  0  0  0  0  0  0
   -6.9944    6.4016  -16.2342 C   0  0  0  0  0  0  0  0  0  0  0  0
   -7.3782    4.9479  -16.2251 C   0  0  1  0  0  0  0  0  0  0  0  0
   -7.4983    4.3925  -17.6763 C   0  0  0  0  0  0  0  0  0  0  0  0
   -8.5045    3.8730  -17.9779 O   0  0  0  0  0  0  0  0  0  0  0  0
   -6.2386    4.7303  -18.5339 N   0  0  0  0  0  0  0  0  0  0  0  0
   -5.9260    4.4106  -19.9142 C   0  0  0  0  0  0  0  0  0  0  0  0
   -5.0310    5.3333  -20.8070 C   0  0  1  0  0  0  0  0  0  0  0  0
   -4.8522    6.7618  -20.2948 C   0  0  0  0  0  0  0  0  0  0  0  0
   -3.5148    7.0073  -19.5775 C   0  0  0  0  0  0  0  0  0  0  0  0
   -2.8758    5.7309  -19.0415 C   0  0  0  0  0  0  0  0  0  0  0  0
   -1.7031    6.0583  -18.4359 F   0  0  0  0  0  0  0  0  0  0  0  0
   -3.6839    5.2222  -18.0678 F   0  0  0  0  0  0  0  0  0  0  0  0
   -2.7069    4.7365  -20.1866 C   0  0  0  0  0  0  0  0  0  0  0  0
   -1.7851    3.9375  -20.2996 O   0  0  0  0  0  0  0  0  0  0  0  0
   -3.7292    4.7391  -21.1138 N   0  0  0  0  0  0  0  0  0  0  0  0
   -6.6321    4.1755  -15.1437 C   0  0  2  0  0  0  0  0  0  0  0  0
   -7.2110    4.3355  -13.7500 C   0  0  0  0  0  0  0  0  0  0  0  0
   -7.7122    3.2779  -12.9509 C   0  0  0  0  0  0  0  0  0  0  0  0
   -8.1011    3.6706  -11.7404 N   0  0  0  0  0  0  0  0  0  0  0  0
   -7.8821    4.9888  -11.7515 N   0  0  0  0  0  0  0  0  0  0  0  0
   -8.1606    5.7716  -10.5765 C   0  0  0  0  0  0  0  0  0  0  0  0
   -7.3368    5.4395  -12.9244 C   0  0  0  0  0  0  0  0  0  0  0  0
  1  2  1  0
  2  3  1  0
  3  4  2  0
  3  5  1  0
  5  6  1  0
  6  7  1  0
  7  8  1  6
  8  9  2  0
  8 10  1  0
 10 11  1  0
 12 11  1  1
 12 13  1  0
 13 14  1  0
 14 15  1  0
 15 16  1  0
 15 17  1  0
 15 18  1  0
 18 19  2  0
 18 20  1  0
  7 21  1  0
 21 22  1  1
 22 23  1  0
 23 24  2  0
 24 25  1  0
 25 26  1  0
 25 27  1  0
 21  2  1  0
 27 22  2  0
 20 12  1  0
M  END
>  <energy_score>  (247) 
-24.658022

>  <alias>  (247) 
None

>  <HIPPO Pose ID>  (247) 
68924

>  <smiles>  (247) 
CN1C(=O)CC[C@@H](C(=O)NC[C@H]2CCC(F)(F)C(=O)N2)[C@@H]1c1cnn(C)c1

>  <inchikey>  (247) 
CQQLZMVRHQWYPU-BZPMIXESSA-N

>  <distance_score>  (247) 
1.568504

>  <ref_mols>  (247) 
Z0852a,Z1719a

>  <ref_pdb>  (247) 
Z0852a

>  <HIPPO Compound ID>  (247) 
137797

>  <name>  (247) 
P68924

>  <inspiration_score>  (247) 
None

$$$$
P68926
     RDKit          3D

 27 30  0  0  0  0  0  0  0  0999 V2000
   -8.8429    3.2986   -9.3473 C   0  0  0  0  0  0  0  0  0  0  0  0
   -7.8865    3.7798  -10.4028 C   0  0  1  0  0  0  0  0  0  0  0  0
   -6.4387    3.8841   -9.9070 C   0  0  0  0  0  0  0  0  0  0  0  0
   -5.6326    3.9451  -11.2148 C   0  0  0  0  0  0  0  0  0  0  0  0
   -6.7189    3.8462  -12.2955 C   0  0  1  0  0  0  0  0  0  0  0  0
   -6.1712    3.3720  -13.6313 C   0  0  0  0  0  0  0  0  0  0  0  0
   -5.4648    4.3965  -14.3713 N   0  0  0  0  0  0  0  0  0  0  0  0
   -4.3482    4.2769  -15.4403 C   0  0  0  0  0  0  0  0  0  0  0  0
   -3.7737    3.3400  -15.8311 O   0  0  0  0  0  0  0  0  0  0  0  0
   -4.1356    5.6819  -16.0661 C   0  0  1  0  0  0  0  0  0  0  0  0
   -3.1129    5.6413  -17.2263 C   0  0  0  0  0  0  0  0  0  0  0  0
   -3.7347    5.8147  -18.6223 C   0  0  0  0  0  0  0  0  0  0  0  0
   -5.1221    5.2120  -18.7909 C   0  0  0  0  0  0  0  0  0  0  0  0
   -5.3992    4.6066  -19.8226 O   0  0  0  0  0  0  0  0  0  0  0  0
   -5.9727    5.4765  -17.7069 N   0  0  0  0  0  0  0  0  0  0  0  0
   -7.3165    5.0060  -17.6357 C   0  0  0  0  0  0  0  0  0  0  0  0
   -8.0337    4.6212  -18.7616 C   0  0  0  0  0  0  0  0  0  0  0  0
   -9.3828    4.2999  -18.6702 C   0  0  0  0  0  0  0  0  0  0  0  0
  -10.0129    4.2485  -17.4361 C   0  0  0  0  0  0  0  0  0  0  0  0
   -9.2820    4.5321  -16.3061 C   0  0  0  0  0  0  0  0  0  0  0  0
   -9.7941    4.4623  -15.0744 F   0  0  0  0  0  0  0  0  0  0  0  0
   -7.9766    4.9432  -16.4120 C   0  0  0  0  0  0  0  0  0  0  0  0
   -5.4260    6.2878  -16.6243 C   0  0  0  0  0  0  0  0  0  0  0  0
   -7.7184    2.8931  -11.6387 C   0  0  0  0  0  0  0  0  0  0  0  0
   -7.4856    5.0827  -12.2865 N   0  0  0  0  0  0  0  0  0  0  0  0
   -8.1650    5.1341  -11.0586 C   0  0  0  0  0  0  0  0  0  0  0  0
   -8.6793    6.1296  -10.5867 O   0  0  0  0  0  0  0  0  0  0  0  0
  2  1  1  1
  2  3  1  0
  3  4  1  0
  4  5  1  0
  5  6  1  6
  6  7  1  0
  7  8  1  0
  8  9  2  0
 10  8  1  6
 10 11  1  0
 11 12  1  0
 12 13  1  0
 13 14  2  0
 13 15  1  0
 15 16  1  0
 16 17  2  0
 17 18  1  0
 18 19  2  0
 19 20  1  0
 20 21  1  0
 20 22  2  0
 15 23  1  0
  5 24  1  0
  5 25  1  0
 25 26  1  0
 26 27  2  0
 24  2  1  0
 26  2  1  0
 23 10  1  0
 22 16  1  0
M  END
>  <energy_score>  (248) 
-17.924879

>  <alias>  (248) 
None

>  <HIPPO Pose ID>  (248) 
68926

>  <smiles>  (248) 
C[C@@]12CC[C@@](CNC(=O)[C@H]3CCC(=O)N(c4cccc(F)c4)C3)(C1)NC2=O

>  <inchikey>  (248) 
XFLYJJMDDKCKEY-SVIJTADQSA-N

>  <distance_score>  (248) 
1.988493

>  <ref_mols>  (248) 
Z0852a,Z1719a

>  <ref_pdb>  (248) 
Z0852a

>  <HIPPO Compound ID>  (248) 
137798

>  <name>  (248) 
P68926

>  <inspiration_score>  (248) 
None

$$$$
P68927
     RDKit          3D

 27 30  0  0  0  0  0  0  0  0999 V2000
   -6.7087    7.3610  -14.9066 O   0  0  0  0  0  0  0  0  0  0  0  0
   -6.2457    6.3017  -15.0957 C   0  0  0  0  0  0  0  0  0  0  0  0
   -5.4336    5.7546  -16.3160 N   0  0  0  0  0  0  0  0  0  0  0  0
   -4.9456    6.4366  -17.5110 C   0  0  0  0  0  0  0  0  0  0  0  0
   -4.6047    5.6657  -18.8025 C   0  0  2  0  0  0  0  0  0  0  0  0
   -3.1847    5.0562  -18.9292 C   0  0  0  0  0  0  0  0  0  0  0  0
   -2.9880    4.9410  -20.4664 C   0  0  0  0  0  0  0  0  0  0  0  0
   -4.3220    5.4541  -21.0247 C   0  0  2  0  0  0  0  0  0  0  0  0
   -4.6168    6.5886  -20.0473 C   0  0  0  0  0  0  0  0  0  0  0  0
   -5.4477    4.5112  -20.6055 C   0  0  0  0  0  0  0  0  0  0  0  0
   -6.0894    3.7542  -21.3070 O   0  0  0  0  0  0  0  0  0  0  0  0
   -5.5617    4.6764  -19.2306 N   0  0  0  0  0  0  0  0  0  0  0  0
   -6.3346    5.2231  -13.9829 C   0  0  2  0  0  0  0  0  0  0  0  0
   -7.1722    4.0014  -14.3724 C   0  0  0  0  0  0  0  0  0  0  0  0
   -7.2775    3.0258  -13.1976 C   0  0  0  0  0  0  0  0  0  0  0  0
   -7.8916    3.6906  -11.9722 C   0  0  0  0  0  0  0  0  0  0  0  0
   -7.0583    4.8587  -11.6174 N   0  0  0  0  0  0  0  0  0  0  0  0
   -7.3295    5.2893  -10.3084 C   0  0  0  0  0  0  0  0  0  0  0  0
   -6.9598    4.4471   -9.2398 C   0  0  0  0  0  0  0  0  0  0  0  0
   -7.2543    4.7648   -7.9140 C   0  0  0  0  0  0  0  0  0  0  0  0
   -7.9332    5.9492   -7.6450 C   0  0  0  0  0  0  0  0  0  0  0  0
   -8.2962    6.2518   -6.2684 N   0  0  0  0  0  0  0  0  0  0  0  0
   -7.4502    6.0296   -5.3899 O   0  0  0  0  0  0  0  0  0  0  0  0
   -9.4341    6.7002   -6.0602 O   0  0  0  0  0  0  0  0  0  0  0  0
   -8.2917    6.8264   -8.6721 C   0  0  0  0  0  0  0  0  0  0  0  0
   -7.9782    6.4938   -9.9981 C   0  0  0  0  0  0  0  0  0  0  0  0
   -6.9552    5.8592  -12.7004 C   0  0  0  0  0  0  0  0  0  0  0  0
  1  2  2  0
  2  3  1  0
  3  4  1  0
  5  4  1  1
  5  6  1  0
  6  7  1  0
  8  7  1  1
  8  9  1  0
  8 10  1  0
 10 11  2  0
 10 12  1  0
 13  2  1  6
 13 14  1  0
 14 15  1  0
 15 16  1  0
 16 17  1  0
 17 18  1  0
 18 19  2  0
 19 20  1  0
 20 21  2  0
 21 22  1  0
 22 23  2  0
 22 24  1  0
 21 25  1  0
 25 26  2  0
 17 27  1  0
  9  5  1  0
 27 13  1  0
 12  5  1  0
 26 18  1  0
M  CHG  2  22   1  24  -1
M  END
>  <energy_score>  (249) 
-43.121952

>  <alias>  (249) 
None

>  <HIPPO Pose ID>  (249) 
68927

>  <smiles>  (249) 
O=C(NC[C@]12CC[C@H](C1)C(=O)N2)[C@@H]1CCCN(c2ccc([N+](=O)[O-])cc2)C1

>  <inchikey>  (249) 
YPQXKSCPMJJQJR-LPMFXHHGSA-N

>  <distance_score>  (249) 
1.903485

>  <ref_mols>  (249) 
Z0852a,Z1719a

>  <ref_pdb>  (249) 
Z0852a

>  <HIPPO Compound ID>  (249) 
137853

>  <name>  (249) 
P68927

>  <inspiration_score>  (249) 
None

$$$$
P68929
     RDKit          3D

 27 29  0  0  0  0  0  0  0  0999 V2000
   -5.9208    8.1738  -14.7918 C   0  0  0  0  0  0  0  0  0  0  0  0
   -5.7958    6.7311  -14.7623 N   0  0  0  0  0  0  0  0  0  0  0  0
   -4.5576    6.2092  -15.0935 C   0  0  0  0  0  0  0  0  0  0  0  0
   -3.6173    6.8868  -15.4925 O   0  0  0  0  0  0  0  0  0  0  0  0
   -4.4478    4.7293  -14.9662 C   0  0  0  0  0  0  0  0  0  0  0  0
   -5.5400    4.0325  -15.7360 C   0  0  0  0  0  0  0  0  0  0  0  0
   -6.8233    4.8181  -15.9097 C   0  0  2  0  0  0  0  0  0  0  0  0
   -7.1107    5.3285  -17.3437 C   0  0  0  0  0  0  0  0  0  0  0  0
   -8.2239    5.2859  -17.6984 O   0  0  0  0  0  0  0  0  0  0  0  0
   -5.8260    5.7491  -18.1097 N   0  0  0  0  0  0  0  0  0  0  0  0
   -5.6368    6.1114  -19.4950 C   0  0  0  0  0  0  0  0  0  0  0  0
   -4.2923    6.7055  -19.9921 C   0  0  2  0  0  0  0  0  0  0  0  0
   -3.8253    6.0608  -21.3051 C   0  0  0  0  0  0  0  0  0  0  0  0
   -3.0883    4.7300  -21.1054 C   0  0  0  0  0  0  0  0  0  0  0  0
   -2.6896    4.4310  -19.6600 C   0  0  0  0  0  0  0  0  0  0  0  0
   -3.7729    3.9108  -19.0093 F   0  0  0  0  0  0  0  0  0  0  0  0
   -1.7516    3.4477  -19.6412 F   0  0  0  0  0  0  0  0  0  0  0  0
   -2.2709    5.7012  -18.9420 C   0  0  0  0  0  0  0  0  0  0  0  0
   -1.2545    5.8421  -18.2698 O   0  0  0  0  0  0  0  0  0  0  0  0
   -3.1876    6.7260  -19.0488 N   0  0  0  0  0  0  0  0  0  0  0  0
   -7.0080    5.8788  -14.8076 C   0  0  1  0  0  0  0  0  0  0  0  0
   -7.3782    5.3508  -13.4028 C   0  0  0  0  0  0  0  0  0  0  0  0
   -7.8580    4.0557  -13.1487 C   0  0  0  0  0  0  0  0  0  0  0  0
   -8.2202    3.6888  -11.8532 C   0  0  0  0  0  0  0  0  0  0  0  0
   -8.1465    4.5145  -10.7908 N   0  0  0  0  0  0  0  0  0  0  0  0
   -7.7056    5.7594  -11.0388 C   0  0  0  0  0  0  0  0  0  0  0  0
   -7.3222    6.2124  -12.2957 C   0  0  0  0  0  0  0  0  0  0  0  0
  1  2  1  0
  2  3  1  0
  3  4  2  0
  3  5  1  0
  5  6  1  0
  6  7  1  0
  7  8  1  6
  8  9  2  0
  8 10  1  0
 10 11  1  0
 12 11  1  1
 12 13  1  0
 13 14  1  0
 14 15  1  0
 15 16  1  0
 15 17  1  0
 15 18  1  0
 18 19  2  0
 18 20  1  0
  7 21  1  0
 21 22  1  1
 22 23  2  0
 23 24  1  0
 24 25  2  0
 25 26  1  0
 26 27  2  0
 21  2  1  0
 27 22  1  0
 20 12  1  0
M  END
>  <energy_score>  (250) 
-25.067356

>  <alias>  (250) 
None

>  <HIPPO Pose ID>  (250) 
68929

>  <smiles>  (250) 
CN1C(=O)CC[C@H](C(=O)NC[C@@H]2CCC(F)(F)C(=O)N2)[C@H]1c1ccncc1

>  <inchikey>  (250) 
FELCEAJKEOLPTF-KCQAQPDRSA-N

>  <distance_score>  (250) 
1.961901

>  <ref_mols>  (250) 
Z0852a,Z1719a

>  <ref_pdb>  (250) 
Z0852a

>  <HIPPO Compound ID>  (250) 
137861

>  <name>  (250) 
P68929

>  <inspiration_score>  (250) 
None

$$$$
P68931
     RDKit          3D

 27 29  0  0  0  0  0  0  0  0999 V2000
   -8.5192    4.1236  -19.3662 C   0  0  0  0  0  0  0  0  0  0  0  0
   -8.2963    4.5367  -17.9913 N   0  0  0  0  0  0  0  0  0  0  0  0
   -9.3623    4.2449  -17.1522 C   0  0  0  0  0  0  0  0  0  0  0  0
  -10.4498    3.8375  -17.5453 O   0  0  0  0  0  0  0  0  0  0  0  0
   -9.0326    4.3405  -15.6946 C   0  0  0  0  0  0  0  0  0  0  0  0
   -8.2690    5.6074  -15.4076 C   0  0  0  0  0  0  0  0  0  0  0  0
   -6.9688    5.7009  -16.2290 C   0  0  1  0  0  0  0  0  0  0  0  0
   -5.7844    5.5522  -15.2590 C   0  0  0  0  0  0  0  0  0  0  0  0
   -4.9763    6.3870  -15.1536 O   0  0  0  0  0  0  0  0  0  0  0  0
   -5.9717    4.2315  -14.4711 N   0  0  0  0  0  0  0  0  0  0  0  0
   -5.2610    3.7144  -13.3312 C   0  0  0  0  0  0  0  0  0  0  0  0
   -6.1250    3.9207  -12.0615 C   0  0  2  0  0  0  0  0  0  0  0  0
   -7.3017    2.9267  -11.9908 C   0  0  0  0  0  0  0  0  0  0  0  0
   -8.3786    3.3210  -10.9652 C   0  0  0  0  0  0  0  0  0  0  0  0
   -7.9540    4.4625  -10.0509 C   0  0  0  0  0  0  0  0  0  0  0  0
   -8.9697    4.7936   -9.2130 F   0  0  0  0  0  0  0  0  0  0  0  0
   -6.9365    4.0233   -9.2529 F   0  0  0  0  0  0  0  0  0  0  0  0
   -7.4850    5.6404  -10.9220 C   0  0  0  0  0  0  0  0  0  0  0  0
   -7.7906    6.8190  -10.7595 O   0  0  0  0  0  0  0  0  0  0  0  0
   -6.6344    5.2829  -11.9524 N   0  0  0  0  0  0  0  0  0  0  0  0
   -6.9330    4.7506  -17.4372 C   0  0  2  0  0  0  0  0  0  0  0  0
   -5.9772    5.2669  -18.4835 C   0  0  0  0  0  0  0  0  0  0  0  0
   -6.2749    6.1164  -19.4461 N   0  0  0  0  0  0  0  0  0  0  0  0
   -5.2504    6.0607  -20.3438 C   0  0  0  0  0  0  0  0  0  0  0  0
   -4.2178    5.3190  -19.8369 C   0  0  0  0  0  0  0  0  0  0  0  0
   -4.6615    4.8982  -18.6108 N   0  0  0  0  0  0  0  0  0  0  0  0
   -3.7835    4.3412  -17.6140 C   0  0  0  0  0  0  0  0  0  0  0  0
  1  2  1  0
  2  3  1  0
  3  4  2  0
  3  5  1  0
  5  6  1  0
  6  7  1  0
  7  8  1  1
  8  9  2  0
  8 10  1  0
 10 11  1  0
 12 11  1  6
 12 13  1  0
 13 14  1  0
 14 15  1  0
 15 16  1  0
 15 17  1  0
 15 18  1  0
 18 19  2  0
 18 20  1  0
  7 21  1  0
 21 22  1  6
 22 23  2  0
 23 24  1  0
 24 25  2  0
 25 26  1  0
 26 27  1  0
 21  2  1  0
 26 22  1  0
 20 12  1  0
M  END
>  <energy_score>  (251) 
-15.775877

>  <alias>  (251) 
None

>  <HIPPO Pose ID>  (251) 
68931

>  <smiles>  (251) 
CN1C(=O)CC[C@@H](C(=O)NC[C@@H]2CCC(F)(F)C(=O)N2)[C@@H]1c1nccn1C

>  <inchikey>  (251) 
WQMWYSKPRJGWNM-DMDPSCGWSA-N

>  <distance_score>  (251) 
1.397254

>  <ref_mols>  (251) 
Z0852a,Z1719a

>  <ref_pdb>  (251) 
Z0852a

>  <HIPPO Compound ID>  (251) 
137874

>  <name>  (251) 
P68931

>  <inspiration_score>  (251) 
None

$$$$
P68936
     RDKit          3D

 27 29  0  0  0  0  0  0  0  0999 V2000
   -3.8708    4.5484  -13.5979 C   0  0  0  0  0  0  0  0  0  0  0  0
   -5.0035    5.1526  -14.2924 N   0  0  0  0  0  0  0  0  0  0  0  0
   -4.7970    6.3183  -14.9991 C   0  0  0  0  0  0  0  0  0  0  0  0
   -3.6724    6.7828  -15.1728 O   0  0  0  0  0  0  0  0  0  0  0  0
   -5.9967    6.9968  -15.6136 C   0  0  0  0  0  0  0  0  0  0  0  0
   -7.2366    6.1453  -15.7942 C   0  0  0  0  0  0  0  0  0  0  0  0
   -6.9144    4.6721  -15.8392 C   0  0  1  0  0  0  0  0  0  0  0  0
   -6.3797    4.3849  -17.2829 C   0  0  0  0  0  0  0  0  0  0  0  0
   -7.1812    4.2160  -18.1178 O   0  0  0  0  0  0  0  0  0  0  0  0
   -4.8309    4.4753  -17.3779 N   0  0  0  0  0  0  0  0  0  0  0  0
   -3.9443    4.2808  -18.5087 C   0  0  0  0  0  0  0  0  0  0  0  0
   -3.2547    5.5170  -19.1191 C   0  0  2  0  0  0  0  0  0  0  0  0
   -4.2217    6.6384  -19.4735 C   0  0  0  0  0  0  0  0  0  0  0  0
   -5.1852    6.2556  -20.5940 C   0  0  0  0  0  0  0  0  0  0  0  0
   -4.5697    5.4050  -21.7044 C   0  0  0  0  0  0  0  0  0  0  0  0
   -4.9448    5.9484  -22.9031 F   0  0  0  0  0  0  0  0  0  0  0  0
   -5.1645    4.1699  -21.6776 F   0  0  0  0  0  0  0  0  0  0  0  0
   -3.0351    5.2587  -21.5980 C   0  0  0  0  0  0  0  0  0  0  0  0
   -2.2868    5.1779  -22.5716 O   0  0  0  0  0  0  0  0  0  0  0  0
   -2.4969    5.1907  -20.3269 N   0  0  0  0  0  0  0  0  0  0  0  0
   -6.1358    4.2832  -14.5814 C   0  0  2  0  0  0  0  0  0  0  0  0
   -6.9932    4.0970  -13.3387 C   0  0  0  0  0  0  0  0  0  0  0  0
   -7.6308    2.9267  -12.9638 C   0  0  0  0  0  0  0  0  0  0  0  0
   -8.2790    3.1918  -11.7512 C   0  0  0  0  0  0  0  0  0  0  0  0
   -8.0693    4.4409  -11.3499 N   0  0  0  0  0  0  0  0  0  0  0  0
   -7.2943    4.9761  -12.3160 N   0  0  0  0  0  0  0  0  0  0  0  0
   -6.8722    6.3322  -12.0957 C   0  0  0  0  0  0  0  0  0  0  0  0
  1  2  1  0
  2  3  1  0
  3  4  2  0
  3  5  1  0
  5  6  1  0
  6  7  1  0
  7  8  1  6
  8  9  2  0
  8 10  1  0
 10 11  1  0
 12 11  1  6
 12 13  1  0
 13 14  1  0
 14 15  1  0
 15 16  1  0
 15 17  1  0
 15 18  1  0
 18 19  2  0
 18 20  1  0
  7 21  1  0
 21 22  1  1
 22 23  2  0
 23 24  1  0
 24 25  2  0
 25 26  1  0
 26 27  1  0
 21  2  1  0
 26 22  1  0
 20 12  1  0
M  END
>  <energy_score>  (252) 
-30.751556

>  <alias>  (252) 
None

>  <HIPPO Pose ID>  (252) 
68936

>  <smiles>  (252) 
CN1C(=O)CC[C@@H](C(=O)NC[C@@H]2CCC(F)(F)C(=O)N2)[C@@H]1c1ccnn1C

>  <inchikey>  (252) 
ZGUMBCBTDZBVBU-MISXGVKJSA-N

>  <distance_score>  (252) 
1.886261

>  <ref_mols>  (252) 
Z0852a,Z1719a

>  <ref_pdb>  (252) 
Z0852a

>  <HIPPO Compound ID>  (252) 
137925

>  <name>  (252) 
P68936

>  <inspiration_score>  (252) 
None

$$$$
P68938
     RDKit          3D

 27 30  0  0  0  0  0  0  0  0999 V2000
   -8.9663    7.6188  -12.8585 C   0  0  0  0  0  0  0  0  0  0  0  0
   -7.4597    7.4267  -12.8208 C   0  0  0  0  0  0  0  0  0  0  0  0
   -7.0574    6.0183  -12.9135 N   0  0  0  0  0  0  0  0  0  0  0  0
   -7.2695    5.2218  -11.7969 C   0  0  0  0  0  0  0  0  0  0  0  0
   -7.8599    5.6144  -10.7932 O   0  0  0  0  0  0  0  0  0  0  0  0
   -6.7836    3.8036  -11.9058 C   0  0  0  0  0  0  0  0  0  0  0  0
   -5.3915    3.7623  -12.5151 C   0  0  0  0  0  0  0  0  0  0  0  0
   -5.3447    4.3436  -13.9437 C   0  0  2  0  0  0  0  0  0  0  0  0
   -3.8614    4.4780  -14.4885 C   0  0  0  0  0  0  0  0  0  0  0  0
   -2.9730    4.0030  -13.8693 O   0  0  0  0  0  0  0  0  0  0  0  0
   -3.8543    5.1863  -15.8566 N   0  0  0  0  0  0  0  0  0  0  0  0
   -4.0725    4.1922  -16.9949 C   0  0  0  0  0  0  0  0  0  0  0  0
   -3.7160    4.5574  -18.4342 C   0  0  1  0  0  0  0  0  0  0  0  0
   -4.6924    4.7315  -19.5867 C   0  0  0  0  0  0  0  0  0  0  0  0
   -3.8950    5.1484  -20.8366 C   0  0  0  0  0  0  0  0  0  0  0  0
   -2.7582    6.1416  -20.5688 C   0  0  0  0  0  0  0  0  0  0  0  0
   -2.2633    6.8285  -21.4588 O   0  0  0  0  0  0  0  0  0  0  0  0
   -2.2471    6.1930  -19.2798 N   0  0  0  0  0  0  0  0  0  0  0  0
   -3.1377    5.8887  -18.1874 C   0  0  2  0  0  0  0  0  0  0  0  0
   -2.6868    5.5775  -16.7712 C   0  0  0  0  0  0  0  0  0  0  0  0
   -6.1078    5.6785  -13.9908 C   0  0  1  0  0  0  0  0  0  0  0  0
   -6.7859    5.8007  -15.3283 C   0  0  0  0  0  0  0  0  0  0  0  0
   -6.3594    6.5952  -16.2922 N   0  0  0  0  0  0  0  0  0  0  0  0
   -7.0170    6.1955  -17.4151 C   0  0  0  0  0  0  0  0  0  0  0  0
   -7.8878    5.1743  -17.1410 C   0  0  0  0  0  0  0  0  0  0  0  0
   -7.8113    5.0106  -15.7896 N   0  0  0  0  0  0  0  0  0  0  0  0
   -8.6616    4.1351  -15.0355 C   0  0  0  0  0  0  0  0  0  0  0  0
  1  2  1  0
  2  3  1  0
  3  4  1  0
  4  5  2  0
  4  6  1  0
  6  7  1  0
  7  8  1  0
  8  9  1  1
  9 10  2  0
  9 11  1  0
 11 12  1  0
 13 12  1  1
 13 14  1  0
 14 15  1  0
 15 16  1  0
 16 17  2  0
 16 18  1  0
 18 19  1  0
 19 20  1  1
  8 21  1  0
 21 22  1  6
 22 23  2  0
 23 24  1  0
 24 25  2  0
 25 26  1  0
 26 27  1  0
 21  3  1  0
 26 22  1  0
 20 11  1  0
 19 13  1  0
M  END
>  <energy_score>  (253) 
-3.116549

>  <alias>  (253) 
None

>  <HIPPO Pose ID>  (253) 
68938

>  <smiles>  (253) 
CCN1C(=O)CC[C@H](C(=O)N2C[C@H]3CCC(=O)N[C@@H]3C2)[C@H]1c1nccn1C

>  <inchikey>  (253) 
YEXMBQSTRMVTLR-OEUWWYETSA-N

>  <distance_score>  (253) 
1.979831

>  <ref_mols>  (253) 
Z0852a,Z1719a

>  <ref_pdb>  (253) 
Z0852a

>  <HIPPO Compound ID>  (253) 
137938

>  <name>  (253) 
P68938

>  <inspiration_score>  (253) 
None

$$$$
P68939
     RDKit          3D

 27 29  0  0  0  0  0  0  0  0999 V2000
   -4.4322    8.1149  -22.9711 C   0  0  0  0  0  0  0  0  0  0  0  0
   -4.2023    6.6043  -22.9945 C   0  0  0  0  0  0  0  0  0  0  0  0
   -3.4366    6.1843  -24.2532 C   0  0  0  0  0  0  0  0  0  0  0  0
   -3.5924    6.1426  -21.7332 N   0  0  0  0  0  0  0  0  0  0  0  0
   -4.4989    5.5550  -20.7438 C   0  0  0  0  0  0  0  0  0  0  0  0
   -4.0346    5.7910  -19.3040 C   0  0  1  0  0  0  0  0  0  0  0  0
   -4.9589    5.0776  -18.3182 C   0  0  0  0  0  0  0  0  0  0  0  0
   -5.5720    4.1430  -18.6454 O   0  0  0  0  0  0  0  0  0  0  0  0
   -4.8119    5.7455  -16.9262 N   0  0  0  0  0  0  0  0  0  0  0  0
   -5.3226    5.3351  -15.6159 C   0  0  0  0  0  0  0  0  0  0  0  0
   -6.8444    4.9755  -15.4601 C   0  0  1  0  0  0  0  0  0  0  0  0
   -7.0441    4.4704  -13.9925 C   0  0  0  0  0  0  0  0  0  0  0  0
   -7.1457    3.1170  -13.6914 C   0  0  0  0  0  0  0  0  0  0  0  0
   -7.4099    2.6782  -12.3879 C   0  0  0  0  0  0  0  0  0  0  0  0
   -7.6145    3.5748  -11.3481 C   0  0  0  0  0  0  0  0  0  0  0  0
   -7.4784    4.9277  -11.5953 C   0  0  0  0  0  0  0  0  0  0  0  0
   -7.1624    5.3648  -12.8893 C   0  0  0  0  0  0  0  0  0  0  0  0
   -7.7538    6.1877  -15.6397 C   0  0  0  0  0  0  0  0  0  0  0  0
   -9.2094    5.7329  -15.4508 C   0  0  0  0  0  0  0  0  0  0  0  0
   -9.6022    4.6689  -16.4594 C   0  0  0  0  0  0  0  0  0  0  0  0
   -8.4498    4.0948  -17.2037 C   0  0  0  0  0  0  0  0  0  0  0  0
   -8.5987    3.6396  -18.3321 O   0  0  0  0  0  0  0  0  0  0  0  0
   -7.2553    4.0443  -16.5349 N   0  0  0  0  0  0  0  0  0  0  0  0
   -2.6466    5.1784  -19.1875 C   0  0  0  0  0  0  0  0  0  0  0  0
   -1.6780    5.8161  -20.1633 C   0  0  0  0  0  0  0  0  0  0  0  0
   -2.2382    6.3067  -21.4875 C   0  0  0  0  0  0  0  0  0  0  0  0
   -1.4823    6.8868  -22.2691 O   0  0  0  0  0  0  0  0  0  0  0  0
  1  2  1  0
  2  3  1  0
  2  4  1  0
  4  5  1  0
  5  6  1  0
  6  7  1  1
  7  8  2  0
  7  9  1  0
  9 10  1  0
 11 10  1  6
 11 12  1  0
 12 13  2  0
 13 14  1  0
 14 15  2  0
 15 16  1  0
 16 17  2  0
 11 18  1  0
 18 19  1  0
 19 20  1  0
 20 21  1  0
 21 22  2  0
 21 23  1  0
  6 24  1  0
 24 25  1  0
 25 26  1  0
 26 27  2  0
 26  4  1  0
 23 11  1  0
 17 12  1  0
M  END
>  <energy_score>  (254) 
-19.944926

>  <alias>  (254) 
None

>  <HIPPO Pose ID>  (254) 
68939

>  <smiles>  (254) 
CC(C)N1C[C@@H](C(=O)NC[C@@]2(c3ccccc3)CCCC(=O)N2)CCC1=O

>  <inchikey>  (254) 
KKNQXXDHBSPWBV-HRAATJIYSA-N

>  <distance_score>  (254) 
1.939449

>  <ref_mols>  (254) 
Z0852a,Z1719a

>  <ref_pdb>  (254) 
Z0852a

>  <HIPPO Compound ID>  (254) 
137961

>  <name>  (254) 
P68939

>  <inspiration_score>  (254) 
None

$$$$
P68940
     RDKit          3D

 27 30  0  0  0  0  0  0  0  0999 V2000
   -4.6097    8.9899  -13.5657 C   0  0  0  0  0  0  0  0  0  0  0  0
   -4.5018    8.3334  -14.9485 C   0  0  0  0  0  0  0  0  0  0  0  0
   -4.7710    9.4201  -16.0031 C   0  0  0  0  0  0  0  0  0  0  0  0
   -5.4498    7.0893  -15.1062 C   0  0  2  0  0  0  0  0  0  0  0  0
   -5.1755    5.9984  -14.0470 C   0  0  0  0  0  0  0  0  0  0  0  0
   -6.3107    5.9719  -13.0382 C   0  0  0  0  0  0  0  0  0  0  0  0
   -6.4816    6.9010  -12.2464 O   0  0  0  0  0  0  0  0  0  0  0  0
   -7.1294    4.8596  -13.0257 N   0  0  0  0  0  0  0  0  0  0  0  0
   -8.3290    4.8276  -13.8361 C   0  0  0  0  0  0  0  0  0  0  0  0
   -8.3269    4.2487  -15.2213 C   0  0  0  0  0  0  0  0  0  0  0  0
   -9.5558    4.0371  -15.8229 C   0  0  0  0  0  0  0  0  0  0  0  0
   -9.6988    3.8212  -17.1834 C   0  0  0  0  0  0  0  0  0  0  0  0
   -8.6621    3.6740  -17.9994 N   0  0  0  0  0  0  0  0  0  0  0  0
   -7.4708    3.7317  -17.3906 C   0  0  0  0  0  0  0  0  0  0  0  0
   -7.2571    4.0149  -16.0378 C   0  0  0  0  0  0  0  0  0  0  0  0
   -6.7918    3.7289  -12.2058 C   0  0  0  0  0  0  0  0  0  0  0  0
   -6.8826    3.8830  -10.7042 C   0  0  0  0  0  0  0  0  0  0  0  0
   -7.8020    2.9350  -11.4059 C   0  0  0  0  0  0  0  0  0  0  0  0
   -5.4346    6.5542  -16.5356 C   0  0  0  0  0  0  0  0  0  0  0  0
   -6.4856    6.4236  -17.4130 C   0  0  0  0  0  0  0  0  0  0  0  0
   -6.0756    6.0880  -18.6629 N   0  0  0  0  0  0  0  0  0  0  0  0
   -4.7346    5.8612  -18.5904 C   0  0  0  0  0  0  0  0  0  0  0  0
   -3.8661    5.5091  -19.6073 C   0  0  0  0  0  0  0  0  0  0  0  0
   -2.5420    5.2742  -19.2523 C   0  0  0  0  0  0  0  0  0  0  0  0
   -2.1173    5.4146  -17.9335 C   0  0  0  0  0  0  0  0  0  0  0  0
   -2.9957    5.8104  -16.9288 C   0  0  0  0  0  0  0  0  0  0  0  0
   -4.3285    6.0598  -17.2683 C   0  0  0  0  0  0  0  0  0  0  0  0
  1  2  1  0
  2  3  1  0
  2  4  1  0
  4  5  1  1
  5  6  1  0
  6  7  2  0
  6  8  1  0
  8  9  1  0
  9 10  1  0
 10 11  2  0
 11 12  1  0
 12 13  2  0
 13 14  1  0
 14 15  2  0
  8 16  1  0
 16 17  1  0
 17 18  1  0
  4 19  1  0
 19 20  2  0
 20 21  1  0
 21 22  1  0
 22 23  2  0
 23 24  1  0
 24 25  2  0
 25 26  1  0
 26 27  2  0
 15 10  1  0
 18 16  1  0
 27 19  1  0
 27 22  1  0
M  END
>  <energy_score>  (255) 
-13.949654

>  <alias>  (255) 
None

>  <HIPPO Pose ID>  (255) 
68940

>  <smiles>  (255) 
CC(C)[C@H](CC(=O)N(Cc1ccncc1)C1CC1)c1c[nH]c2ccccc12

>  <inchikey>  (255) 
MYOHIBNXYMJQHH-FQEVSTJZSA-N

>  <distance_score>  (255) 
1.991178

>  <ref_mols>  (255) 
Z3503a,Z0051a

>  <ref_pdb>  (255) 
Z3503a

>  <HIPPO Compound ID>  (255) 
138095

>  <name>  (255) 
P68940

>  <inspiration_score>  (255) 
None

$$$$
P68941
     RDKit          3D

 30 32  0  0  0  0  0  0  0  0999 V2000
   -7.5506    8.8263   -6.5292 C   0  0  0  0  0  0  0  0  0  0  0  0
   -7.6154    7.2973   -6.4161 C   0  0  0  0  0  0  0  0  0  0  0  0
   -6.7428    6.8464   -5.2357 C   0  0  0  0  0  0  0  0  0  0  0  0
   -7.2728    6.6317   -7.7864 C   0  0  1  0  0  0  0  0  0  0  0  0
   -5.7533    6.5613   -8.0611 C   0  0  0  0  0  0  0  0  0  0  0  0
   -5.3588    7.0762   -9.4518 C   0  0  0  0  0  0  0  0  0  0  0  0
   -5.3857    8.2159   -9.7104 O   0  0  0  0  0  0  0  0  0  0  0  0
   -4.8664    5.8670  -10.2895 N   0  0  0  0  0  0  0  0  0  0  0  0
   -4.2123    5.8208  -11.5916 C   0  0  0  0  0  0  0  0  0  0  0  0
   -4.1698    7.1179  -12.4289 C   0  0  1  0  0  0  0  0  0  0  0  0
   -3.5585    8.1853  -11.6865 O   0  0  0  0  0  0  0  0  0  0  0  0
   -3.2860    6.9342  -13.6906 C   0  0  0  0  0  0  0  0  0  0  0  0
   -3.8225    6.0060  -14.7095 N   0  0  0  0  0  0  0  0  0  0  0  0
   -2.7198    5.2549  -15.3157 C   0  0  0  0  0  0  0  0  0  0  0  0
   -4.5525    6.7579  -15.7528 C   0  0  0  0  0  0  0  0  0  0  0  0
   -5.3993    5.8878  -16.6583 C   0  0  0  0  0  0  0  0  0  0  0  0
   -5.2286    5.8565  -18.0444 C   0  0  0  0  0  0  0  0  0  0  0  0
   -6.1151    5.1051  -18.8039 C   0  0  0  0  0  0  0  0  0  0  0  0
   -7.1364    4.3914  -18.2898 N   0  0  0  0  0  0  0  0  0  0  0  0
   -7.2880    4.4286  -16.9555 C   0  0  0  0  0  0  0  0  0  0  0  0
   -6.4475    5.1425  -16.1117 C   0  0  0  0  0  0  0  0  0  0  0  0
   -7.9043    5.2548   -7.9573 C   0  0  0  0  0  0  0  0  0  0  0  0
   -8.2888    4.3450   -6.9867 C   0  0  0  0  0  0  0  0  0  0  0  0
   -8.6827    3.1838   -7.6019 N   0  0  0  0  0  0  0  0  0  0  0  0
   -8.5923    3.3342   -8.9606 C   0  0  0  0  0  0  0  0  0  0  0  0
   -8.8245    2.4255   -9.9803 C   0  0  0  0  0  0  0  0  0  0  0  0
   -8.6071    2.8454  -11.2943 C   0  0  0  0  0  0  0  0  0  0  0  0
   -8.2282    4.1393  -11.5969 C   0  0  0  0  0  0  0  0  0  0  0  0
   -8.0200    5.0412  -10.5619 C   0  0  0  0  0  0  0  0  0  0  0  0
   -8.1639    4.6290   -9.2194 C   0  0  0  0  0  0  0  0  0  0  0  0
  1  2  1  0
  2  3  1  0
  2  4  1  0
  4  5  1  1
  5  6  1  0
  6  7  2  0
  6  8  1  0
  8  9  1  0
  9 10  1  0
 10 11  1  1
 10 12  1  0
 12 13  1  0
 13 14  1  0
 13 15  1  0
 15 16  1  0
 16 17  2  0
 17 18  1  0
 18 19  2  0
 19 20  1  0
 20 21  2  0
  4 22  1  0
 22 23  2  0
 23 24  1  0
 24 25  1  0
 25 26  2  0
 26 27  1  0
 27 28  2  0
 28 29  1  0
 29 30  2  0
 21 16  1  0
 30 22  1  0
 30 25  1  0
M  END
>  <energy_score>  (256) 
-55.668442

>  <alias>  (256) 
None

>  <HIPPO Pose ID>  (256) 
68941

>  <smiles>  (256) 
CC(C)[C@@H](CC(=O)NC[C@@H](O)CN(C)Cc1ccncc1)c1c[nH]c2ccccc12

>  <inchikey>  (256) 
YUDKKQTXHZGYIM-TZIWHRDSSA-N

>  <distance_score>  (256) 
1.872709

>  <ref_mols>  (256) 
Z3503a,Z0051a

>  <ref_pdb>  (256) 
Z3503a

>  <HIPPO Compound ID>  (256) 
138159

>  <name>  (256) 
P68941

>  <inspiration_score>  (256) 
None

$$$$
P68942
     RDKit          3D

 30 34  0  0  0  0  0  0  0  0999 V2000
   -9.5637    2.8287   -6.7487 C   0  0  0  0  0  0  0  0  0  0  0  0
   -9.1296    2.9461   -8.1220 N   0  0  0  0  0  0  0  0  0  0  0  0
   -9.1991    1.7769   -8.8886 C   0  0  0  0  0  0  0  0  0  0  0  0
   -9.9827    0.8585   -8.7303 O   0  0  0  0  0  0  0  0  0  0  0  0
   -8.1223    1.8441   -9.9403 C   0  0  0  0  0  0  0  0  0  0  0  0
   -7.8359    3.3282  -10.0210 C   0  0  1  0  0  0  0  0  0  0  0  0
   -8.8649    3.9370  -10.9711 C   0  0  0  0  0  0  0  0  0  0  0  0
   -8.4486    3.7636  -12.3278 N   0  0  0  0  0  0  0  0  0  0  0  0
   -8.8552    4.5369  -13.6158 C   0  0  0  0  0  0  0  0  0  0  0  0
   -9.6470    5.3790  -13.7734 O   0  0  0  0  0  0  0  0  0  0  0  0
   -7.9010    4.0179  -14.6424 C   0  0  1  0  0  0  0  0  0  0  0  0
   -8.2048    4.3275  -16.1343 C   0  0  0  0  0  0  0  0  0  0  0  0
   -6.8952    4.8334  -16.5934 C   0  0  0  0  0  0  0  0  0  0  0  0
   -6.0480    5.0708  -15.5571 C   0  0  0  0  0  0  0  0  0  0  0  0
   -4.8743    5.5665  -15.9748 N   0  0  0  0  0  0  0  0  0  0  0  0
   -3.7595    5.9579  -15.1474 C   0  0  0  0  0  0  0  0  0  0  0  0
   -4.9048    5.5842  -17.3461 C   0  0  0  0  0  0  0  0  0  0  0  0
   -3.9280    5.9993  -18.2472 C   0  0  0  0  0  0  0  0  0  0  0  0
   -4.2179    5.8777  -19.5985 C   0  0  0  0  0  0  0  0  0  0  0  0
   -5.4121    5.3009  -20.0143 C   0  0  0  0  0  0  0  0  0  0  0  0
   -6.3680    4.8484  -19.1021 C   0  0  0  0  0  0  0  0  0  0  0  0
   -6.1507    5.0569  -17.7479 C   0  0  0  0  0  0  0  0  0  0  0  0
   -6.5429    4.6892  -14.2508 C   0  0  0  0  0  0  0  0  0  0  0  0
   -7.9899    3.7356   -8.5546 C   0  0  1  0  0  0  0  0  0  0  0  0
   -7.9310    5.2164   -8.2714 C   0  0  0  0  0  0  0  0  0  0  0  0
   -7.4526    6.1210   -9.2336 C   0  0  0  0  0  0  0  0  0  0  0  0
   -7.3134    7.4575   -8.9190 C   0  0  0  0  0  0  0  0  0  0  0  0
   -7.5418    7.9586   -7.6923 N   0  0  0  0  0  0  0  0  0  0  0  0
   -7.9674    7.0842   -6.7600 C   0  0  0  0  0  0  0  0  0  0  0  0
   -8.1635    5.7284   -6.9936 C   0  0  0  0  0  0  0  0  0  0  0  0
  1  2  1  0
  2  3  1  0
  3  4  2  0
  3  5  1  0
  5  6  1  0
  6  7  1  6
  7  8  1  0
  8  9  1  0
  9 10  2  0
 11  9  1  1
 11 12  1  0
 12 13  1  0
 13 14  2  0
 14 15  1  0
 15 16  1  0
 15 17  1  0
 17 18  2  0
 18 19  1  0
 19 20  2  0
 20 21  1  0
 21 22  2  0
 14 23  1  0
  6 24  1  0
 24 25  1  6
 25 26  2  0
 26 27  1  0
 27 28  2  0
 28 29  1  0
 29 30  2  0
 24  2  1  0
 30 25  1  0
 23 11  1  0
 22 13  1  0
 22 17  1  0
M  END
>  <energy_score>  (257) 
-10.023615

>  <alias>  (257) 
None

>  <HIPPO Pose ID>  (257) 
68942

>  <smiles>  (257) 
CN1C(=O)C[C@@H](CNC(=O)[C@H]2Cc3c(n(C)c4ccccc34)C2)[C@H]1c1ccncc1

>  <inchikey>  (257) 
BLBNIMYZBYXXRA-HKARXFIJSA-N

>  <distance_score>  (257) 
1.985339

>  <ref_mols>  (257) 
Z3503a,Z0051a

>  <ref_pdb>  (257) 
Z3503a

>  <HIPPO Compound ID>  (257) 
138182

>  <name>  (257) 
P68942

>  <inspiration_score>  (257) 
None

$$$$
P68943
     RDKit          3D

 15 17  0  0  0  0  0  0  0  0999 V2000
   -6.8909    4.3172  -20.0164 C   0  0  0  0  0  0  0  0  0  0  0  0
   -7.0464    4.7612  -18.6336 C   0  0  0  0  0  0  0  0  0  0  0  0
   -6.0953    5.4561  -18.0695 N   0  0  0  0  0  0  0  0  0  0  0  0
   -6.3726    5.5784  -16.7358 C   0  0  0  0  0  0  0  0  0  0  0  0
   -5.5828    6.1993  -15.7635 C   0  0  0  0  0  0  0  0  0  0  0  0
   -4.3924    6.8734  -16.0260 N   0  0  0  0  0  0  0  0  0  0  0  0
   -3.5123    6.4390  -17.1031 C   0  0  0  0  0  0  0  0  0  0  0  0
   -2.7411    5.1994  -16.7590 C   0  0  0  0  0  0  0  0  0  0  0  0
   -1.7631    5.2574  -15.6089 C   0  0  0  0  0  0  0  0  0  0  0  0
   -2.9482    4.3411  -15.5251 C   0  0  0  0  0  0  0  0  0  0  0  0
   -6.0122    6.1624  -14.4780 N   0  0  0  0  0  0  0  0  0  0  0  0
   -7.1913    5.5592  -14.2092 C   0  0  0  0  0  0  0  0  0  0  0  0
   -8.0563    5.0055  -15.0698 N   0  0  0  0  0  0  0  0  0  0  0  0
   -7.5756    5.0309  -16.3231 C   0  0  0  0  0  0  0  0  0  0  0  0
   -8.4125    4.4012  -17.6684 S   0  0  0  0  0  0  0  0  0  0  0  0
  1  2  1  0
  2  3  2  0
  3  4  1  0
  4  5  2  0
  5  6  1  0
  6  7  1  0
  7  8  1  0
  8  9  1  0
  9 10  1  0
  5 11  1  0
 11 12  2  0
 12 13  1  0
 13 14  2  0
 14 15  1  0
 15  2  1  0
 14  4  1  0
 10  8  1  0
M  END
>  <energy_score>  (258) 
-37.35818

>  <alias>  (258) 
None

>  <HIPPO Pose ID>  (258) 
68943

>  <smiles>  (258) 
Cc1nc2c(NCC3CC3)ncnc2s1

>  <inchikey>  (258) 
BNVGFJRSNKRHNP-UHFFFAOYSA-N

>  <distance_score>  (258) 
1.049324

>  <ref_mols>  (258) 
Z0472a,Z1719a

>  <ref_pdb>  (258) 
Z0472a

>  <HIPPO Compound ID>  (258) 
138594

>  <name>  (258) 
P68943

>  <inspiration_score>  (258) 
None

$$$$
P68945
     RDKit          3D

 15 16  0  0  0  0  0  0  0  0999 V2000
   -2.9100    6.1684  -18.3424 C   0  0  0  0  0  0  0  0  0  0  0  0
   -2.3346    4.9913  -17.5768 C   0  0  0  0  0  0  0  0  0  0  0  0
   -3.2259    4.3366  -16.5182 C   0  0  0  0  0  0  0  0  0  0  0  0
   -3.4017    5.1148  -15.2121 C   0  0  0  0  0  0  0  0  0  0  0  0
   -4.4190    6.1636  -15.3187 N   0  0  0  0  0  0  0  0  0  0  0  0
   -5.7218    5.6219  -15.2188 C   0  0  0  0  0  0  0  0  0  0  0  0
   -6.2457    5.2788  -14.0235 N   0  0  0  0  0  0  0  0  0  0  0  0
   -7.5016    4.7804  -14.0009 C   0  0  0  0  0  0  0  0  0  0  0  0
   -8.3334    4.5636  -15.0332 N   0  0  0  0  0  0  0  0  0  0  0  0
   -7.7411    4.8405  -16.2041 C   0  0  0  0  0  0  0  0  0  0  0  0
   -8.4253    4.4953  -17.7275 S   0  0  0  0  0  0  0  0  0  0  0  0
   -6.9457    4.9739  -18.4576 C   0  0  0  0  0  0  0  0  0  0  0  0
   -6.6032    4.6470  -19.8515 C   0  0  0  0  0  0  0  0  0  0  0  0
   -6.0873    5.5896  -17.6761 N   0  0  0  0  0  0  0  0  0  0  0  0
   -6.4866    5.3923  -16.3741 C   0  0  0  0  0  0  0  0  0  0  0  0
  1  2  1  0
  2  3  1  0
  3  4  1  0
  4  5  1  0
  5  6  1  0
  6  7  2  0
  7  8  1  0
  8  9  2  0
  9 10  1  0
 10 11  1  0
 11 12  1  0
 12 13  1  0
 12 14  2  0
 14 15  1  0
 15  6  1  0
 15 10  2  0
M  END
>  <energy_score>  (259) 
-65.08379

>  <alias>  (259) 
None

>  <HIPPO Pose ID>  (259) 
68945

>  <smiles>  (259) 
CCCCNc1ncnc2sc(C)nc12

>  <inchikey>  (259) 
IQGMQJJNHSMHEH-UHFFFAOYSA-N

>  <distance_score>  (259) 
1.194304

>  <ref_mols>  (259) 
Z1719a,Z0472a

>  <ref_pdb>  (259) 
Z0472a

>  <HIPPO Compound ID>  (259) 
138596

>  <name>  (259) 
P68945

>  <inspiration_score>  (259) 
None

$$$$
P68946
     RDKit          3D

 15 16  0  0  0  0  0  0  0  0999 V2000
   -3.0277    5.9551  -19.3037 C   0  0  0  0  0  0  0  0  0  0  0  0
   -2.5570    5.1869  -18.0796 C   0  0  0  0  0  0  0  0  0  0  0  0
   -2.3544    6.0934  -16.8653 C   0  0  0  0  0  0  0  0  0  0  0  0
   -3.6729    6.5052  -16.2131 C   0  0  0  0  0  0  0  0  0  0  0  0
   -4.1932    5.3688  -15.4716 N   0  0  0  0  0  0  0  0  0  0  0  0
   -5.5680    5.1444  -15.5431 C   0  0  0  0  0  0  0  0  0  0  0  0
   -6.1728    4.9882  -14.3489 N   0  0  0  0  0  0  0  0  0  0  0  0
   -7.4896    4.7299  -14.3376 C   0  0  0  0  0  0  0  0  0  0  0  0
   -8.1783    4.6197  -12.7790 Cl  0  0  0  0  0  0  0  0  0  0  0  0
   -8.3365    4.6321  -15.3641 N   0  0  0  0  0  0  0  0  0  0  0  0
   -7.6879    4.7396  -16.5344 C   0  0  0  0  0  0  0  0  0  0  0  0
   -8.4767    4.5497  -18.0329 S   0  0  0  0  0  0  0  0  0  0  0  0
   -6.9799    4.8207  -18.8248 C   0  0  0  0  0  0  0  0  0  0  0  0
   -5.9457    5.0911  -18.0538 N   0  0  0  0  0  0  0  0  0  0  0  0
   -6.3375    5.0060  -16.7223 C   0  0  0  0  0  0  0  0  0  0  0  0
  1  2  1  0
  2  3  1  0
  3  4  1  0
  4  5  1  0
  5  6  1  0
  6  7  2  0
  7  8  1  0
  8  9  1  0
  8 10  2  0
 10 11  1  0
 11 12  1  0
 12 13  1  0
 13 14  2  0
 14 15  1  0
 15  6  1  0
 15 11  2  0
M  END
>  <energy_score>  (260) 
-55.750342

>  <alias>  (260) 
None

>  <HIPPO Pose ID>  (260) 
68946

>  <smiles>  (260) 
CCCCNc1nc(Cl)nc2scnc12

>  <inchikey>  (260) 
PHTUEGVEFWHDMR-UHFFFAOYSA-N

>  <distance_score>  (260) 
0.93204

>  <ref_mols>  (260) 
Z1719a,Z0472a

>  <ref_pdb>  (260) 
Z0472a

>  <HIPPO Compound ID>  (260) 
138597

>  <name>  (260) 
P68946

>  <inspiration_score>  (260) 
None

$$$$
P68947
     RDKit          3D

 15 17  0  0  0  0  0  0  0  0999 V2000
   -6.5808    4.6197  -19.8817 C   0  0  0  0  0  0  0  0  0  0  0  0
   -6.8250    4.8891  -18.4580 C   0  0  0  0  0  0  0  0  0  0  0  0
   -5.8754    5.3731  -17.6906 N   0  0  0  0  0  0  0  0  0  0  0  0
   -6.2833    5.2614  -16.3825 C   0  0  0  0  0  0  0  0  0  0  0  0
   -5.5079    5.5012  -15.2373 C   0  0  0  0  0  0  0  0  0  0  0  0
   -4.1917    5.9998  -15.3498 N   0  0  0  0  0  0  0  0  0  0  0  0
   -3.2332    4.8952  -15.4329 C   0  0  0  0  0  0  0  0  0  0  0  0
   -2.2565    5.1534  -16.5502 C   0  0  1  0  0  0  0  0  0  0  0  0
   -2.6059    4.7712  -17.9702 C   0  0  0  0  0  0  0  0  0  0  0  0
   -2.6489    6.1313  -17.5372 O   0  0  0  0  0  0  0  0  0  0  0  0
   -6.0480    5.2395  -14.0281 N   0  0  0  0  0  0  0  0  0  0  0  0
   -7.3369    4.8351  -13.9841 C   0  0  0  0  0  0  0  0  0  0  0  0
   -8.1861    4.6383  -15.0051 N   0  0  0  0  0  0  0  0  0  0  0  0
   -7.5808    4.8269  -16.1876 C   0  0  0  0  0  0  0  0  0  0  0  0
   -8.3205    4.5329  -17.6941 S   0  0  0  0  0  0  0  0  0  0  0  0
  1  2  1  0
  2  3  2  0
  3  4  1  0
  4  5  2  0
  5  6  1  0
  6  7  1  0
  8  7  1  1
  8  9  1  0
  9 10  1  0
  5 11  1  0
 11 12  2  0
 12 13  1  0
 13 14  2  0
 14 15  1  0
 15  2  1  0
 14  4  1  0
 10  8  1  0
M  END
>  <energy_score>  (261) 
-73.248552

>  <alias>  (261) 
None

>  <HIPPO Pose ID>  (261) 
68947

>  <smiles>  (261) 
Cc1nc2c(NC[C@H]3CO3)ncnc2s1

>  <inchikey>  (261) 
CZAFHEQUEIKYQC-LURJTMIESA-N

>  <distance_score>  (261) 
0.902462

>  <ref_mols>  (261) 
Z0472a,Z1719a

>  <ref_pdb>  (261) 
Z0472a

>  <HIPPO Compound ID>  (261) 
138598

>  <name>  (261) 
P68947

>  <inspiration_score>  (261) 
None

$$$$
P68952
     RDKit          3D

 15 16  0  0  0  0  0  0  0  0999 V2000
   -2.9946    3.7067  -15.0168 C   0  0  0  0  0  0  0  0  0  0  0  0
   -3.2214    4.2998  -16.4009 C   0  0  0  0  0  0  0  0  0  0  0  0
   -3.2112    5.8253  -16.3908 C   0  0  1  0  0  0  0  0  0  0  0  0
   -3.1411    6.5357  -18.0593 S   0  0  0  0  0  0  0  0  0  0  0  0
   -4.2281    6.4400  -15.5387 N   0  0  0  0  0  0  0  0  0  0  0  0
   -5.5235    5.9275  -15.4520 C   0  0  0  0  0  0  0  0  0  0  0  0
   -6.0588    5.8612  -14.2091 N   0  0  0  0  0  0  0  0  0  0  0  0
   -7.3115    5.3757  -14.0677 C   0  0  0  0  0  0  0  0  0  0  0  0
   -8.1522    4.9593  -15.0228 N   0  0  0  0  0  0  0  0  0  0  0  0
   -7.5790    5.0141  -16.2352 C   0  0  0  0  0  0  0  0  0  0  0  0
   -8.3577    4.4995  -17.6625 S   0  0  0  0  0  0  0  0  0  0  0  0
   -6.9183    4.8339  -18.5253 C   0  0  0  0  0  0  0  0  0  0  0  0
   -6.7217    4.4696  -19.9320 C   0  0  0  0  0  0  0  0  0  0  0  0
   -5.9574    5.4195  -17.8542 N   0  0  0  0  0  0  0  0  0  0  0  0
   -6.3067    5.4780  -16.5278 C   0  0  0  0  0  0  0  0  0  0  0  0
  1  2  1  0
  2  3  1  0
  3  4  1  6
  3  5  1  0
  5  6  1  0
  6  7  2  0
  7  8  1  0
  8  9  2  0
  9 10  1  0
 10 11  1  0
 11 12  1  0
 12 13  1  0
 12 14  2  0
 14 15  1  0
 15  6  1  0
 15 10  2  0
M  END
>  <energy_score>  (262) 
-79.867024

>  <alias>  (262) 
None

>  <HIPPO Pose ID>  (262) 
68952

>  <smiles>  (262) 
CC[C@@H](S)Nc1ncnc2sc(C)nc12

>  <inchikey>  (262) 
UZNOPDMLEQRHSI-ZCFIWIBFSA-N

>  <distance_score>  (262) 
0.796811

>  <ref_mols>  (262) 
Z0472a,Z1719a

>  <ref_pdb>  (262) 
Z0472a

>  <HIPPO Compound ID>  (262) 
138600

>  <name>  (262) 
P68952

>  <inspiration_score>  (262) 
None

$$$$
P68953
     RDKit          3D

 15 16  0  0  0  0  0  0  0  0999 V2000
   -1.3795    5.7570  -16.1235 C   0  0  0  0  0  0  0  0  0  0  0  0
   -2.3464    4.7831  -16.7963 C   0  0  0  0  0  0  0  0  0  0  0  0
   -3.6793    5.3570  -17.2804 C   0  0  2  0  0  0  0  0  0  0  0  0
   -3.3938    6.6564  -18.5169 S   0  0  0  0  0  0  0  0  0  0  0  0
   -4.4208    5.9075  -16.1579 N   0  0  0  0  0  0  0  0  0  0  0  0
   -5.7220    5.4378  -15.9563 C   0  0  0  0  0  0  0  0  0  0  0  0
   -6.1149    5.3536  -14.6655 N   0  0  0  0  0  0  0  0  0  0  0  0
   -7.3740    4.9520  -14.4119 C   0  0  0  0  0  0  0  0  0  0  0  0
   -7.7957    4.8579  -12.7586 Cl  0  0  0  0  0  0  0  0  0  0  0  0
   -8.3506    4.6569  -15.2711 N   0  0  0  0  0  0  0  0  0  0  0  0
   -7.9096    4.7095  -16.5360 C   0  0  0  0  0  0  0  0  0  0  0  0
   -8.9009    4.3200  -17.8652 S   0  0  0  0  0  0  0  0  0  0  0  0
   -7.5592    4.5780  -18.8992 C   0  0  0  0  0  0  0  0  0  0  0  0
   -6.4565    5.0226  -18.3375 N   0  0  0  0  0  0  0  0  0  0  0  0
   -6.6418    5.0746  -16.9649 C   0  0  0  0  0  0  0  0  0  0  0  0
  1  2  1  0
  2  3  1  0
  3  4  1  6
  3  5  1  0
  5  6  1  0
  6  7  2  0
  7  8  1  0
  8  9  1  0
  8 10  2  0
 10 11  1  0
 11 12  1  0
 12 13  1  0
 13 14  2  0
 14 15  1  0
 15  6  1  0
 15 11  2  0
M  END
>  <energy_score>  (263) 
-95.22582

>  <alias>  (263) 
None

>  <HIPPO Pose ID>  (263) 
68953

>  <smiles>  (263) 
CC[C@H](S)Nc1nc(Cl)nc2scnc12

>  <inchikey>  (263) 
HVWMAEKFBFETBN-BYPYZUCNSA-N

>  <distance_score>  (263) 
0.657663

>  <ref_mols>  (263) 
Z0472a,Z1719a

>  <ref_pdb>  (263) 
Z0472a

>  <HIPPO Compound ID>  (263) 
138601

>  <name>  (263) 
P68953

>  <inspiration_score>  (263) 
None

$$$$
P68955
     RDKit          3D

 15 16  0  0  0  0  0  0  0  0999 V2000
   -6.6439    4.5487  -19.8352 C   0  0  0  0  0  0  0  0  0  0  0  0
   -6.8260    4.6223  -18.3784 C   0  0  0  0  0  0  0  0  0  0  0  0
   -5.7954    4.5990  -17.5686 N   0  0  0  0  0  0  0  0  0  0  0  0
   -6.2458    4.6478  -16.2702 C   0  0  0  0  0  0  0  0  0  0  0  0
   -5.4687    4.5564  -15.1038 C   0  0  0  0  0  0  0  0  0  0  0  0
   -4.1065    4.1818  -15.1668 N   0  0  0  0  0  0  0  0  0  0  0  0
   -3.2245    5.3328  -15.0215 C   0  0  0  0  0  0  0  0  0  0  0  0
   -2.3216    5.5434  -16.2393 C   0  0  0  0  0  0  0  0  0  0  0  0
   -3.0778    5.7332  -17.5472 C   0  0  0  0  0  0  0  0  0  0  0  0
   -2.2088    6.2594  -18.5434 O   0  0  0  0  0  0  0  0  0  0  0  0
   -6.0762    4.7521  -13.9157 N   0  0  0  0  0  0  0  0  0  0  0  0
   -7.4171    4.9182  -13.9101 C   0  0  0  0  0  0  0  0  0  0  0  0
   -8.2643    4.9723  -14.9548 N   0  0  0  0  0  0  0  0  0  0  0  0
   -7.6090    4.8088  -16.1158 C   0  0  0  0  0  0  0  0  0  0  0  0
   -8.3686    4.7362  -17.6420 S   0  0  0  0  0  0  0  0  0  0  0  0
  1  2  1  0
  2  3  2  0
  3  4  1  0
  4  5  2  0
  5  6  1  0
  6  7  1  0
  7  8  1  0
  8  9  1  0
  9 10  1  0
  5 11  1  0
 11 12  2  0
 12 13  1  0
 13 14  2  0
 14 15  1  0
 15  2  1  0
 14  4  1  0
M  END
>  <energy_score>  (264) 
-59.600512

>  <alias>  (264) 
None

>  <HIPPO Pose ID>  (264) 
68955

>  <smiles>  (264) 
Cc1nc2c(NCCCO)ncnc2s1

>  <inchikey>  (264) 
QRADYICXXJPAAM-UHFFFAOYSA-N

>  <distance_score>  (264) 
0.972611

>  <ref_mols>  (264) 
Z1719a,Z0472a

>  <ref_pdb>  (264) 
Z0472a

>  <HIPPO Compound ID>  (264) 
138602

>  <name>  (264) 
P68955

>  <inspiration_score>  (264) 
None

$$$$
P68959
     RDKit          3D

 15 16  0  0  0  0  0  0  0  0999 V2000
   -6.7283    4.5114  -19.8769 C   0  0  0  0  0  0  0  0  0  0  0  0
   -6.9318    4.7927  -18.4501 C   0  0  0  0  0  0  0  0  0  0  0  0
   -5.9500    5.2583  -17.7193 N   0  0  0  0  0  0  0  0  0  0  0  0
   -6.3019    5.1903  -16.3916 C   0  0  0  0  0  0  0  0  0  0  0  0
   -5.4943    5.4468  -15.2658 C   0  0  0  0  0  0  0  0  0  0  0  0
   -4.1379    5.7926  -15.3021 N   0  0  0  0  0  0  0  0  0  0  0  0
   -3.6775    6.5946  -16.4270 C   0  0  0  0  0  0  0  0  0  0  0  0
   -2.6532    5.8499  -17.3049 C   0  0  0  0  0  0  0  0  0  0  0  0
   -2.4108    6.6455  -18.5892 C   0  0  0  0  0  0  0  0  0  0  0  0
   -2.9986    4.4151  -17.6790 C   0  0  0  0  0  0  0  0  0  0  0  0
   -6.0579    5.3233  -14.0411 N   0  0  0  0  0  0  0  0  0  0  0  0
   -7.3597    4.9700  -13.9639 C   0  0  0  0  0  0  0  0  0  0  0  0
   -8.2239    4.7455  -14.9634 N   0  0  0  0  0  0  0  0  0  0  0  0
   -7.6202    4.8363  -16.1586 C   0  0  0  0  0  0  0  0  0  0  0  0
   -8.4108    4.5087  -17.6361 S   0  0  0  0  0  0  0  0  0  0  0  0
  1  2  1  0
  2  3  2  0
  3  4  1  0
  4  5  2  0
  5  6  1  0
  6  7  1  0
  7  8  1  0
  8  9  1  0
  8 10  1  0
  5 11  1  0
 11 12  2  0
 12 13  1  0
 13 14  2  0
 14 15  1  0
 15  2  1  0
 14  4  1  0
M  END
>  <energy_score>  (265) 
-66.327271

>  <alias>  (265) 
None

>  <HIPPO Pose ID>  (265) 
68959

>  <smiles>  (265) 
Cc1nc2c(NCC(C)C)ncnc2s1

>  <inchikey>  (265) 
YERPGFDVUMDCEH-UHFFFAOYSA-N

>  <distance_score>  (265) 
0.918979

>  <ref_mols>  (265) 
Z1719a,Z0472a

>  <ref_pdb>  (265) 
Z0472a

>  <HIPPO Compound ID>  (265) 
138606

>  <name>  (265) 
P68959

>  <inspiration_score>  (265) 
None

$$$$
P68964
     RDKit          3D

 15 16  0  0  0  0  0  0  0  0999 V2000
   -2.4449    5.6190  -19.5117 C   0  0  0  0  0  0  0  0  0  0  0  0
   -3.1470    6.2154  -18.2988 C   0  0  0  0  0  0  0  0  0  0  0  0
   -3.5158    5.1454  -17.2720 C   0  0  1  0  0  0  0  0  0  0  0  0
   -2.3338    4.6172  -16.7068 O   0  0  0  0  0  0  0  0  0  0  0  0
   -4.2359    5.7275  -16.1691 N   0  0  0  0  0  0  0  0  0  0  0  0
   -5.5576    5.3445  -15.9688 C   0  0  0  0  0  0  0  0  0  0  0  0
   -5.9814    5.2807  -14.6860 N   0  0  0  0  0  0  0  0  0  0  0  0
   -7.2662    4.9472  -14.4602 C   0  0  0  0  0  0  0  0  0  0  0  0
   -7.7259    4.8646  -12.8153 Cl  0  0  0  0  0  0  0  0  0  0  0  0
   -8.2392    4.6976  -15.3392 N   0  0  0  0  0  0  0  0  0  0  0  0
   -7.7714    4.7352  -16.5954 C   0  0  0  0  0  0  0  0  0  0  0  0
   -8.7487    4.3914  -17.9477 S   0  0  0  0  0  0  0  0  0  0  0  0
   -7.3777    4.6105  -18.9544 C   0  0  0  0  0  0  0  0  0  0  0  0
   -6.2692    5.0088  -18.3677 N   0  0  0  0  0  0  0  0  0  0  0  0
   -6.4797    5.0435  -16.9966 C   0  0  0  0  0  0  0  0  0  0  0  0
  1  2  1  0
  2  3  1  0
  3  4  1  1
  3  5  1  0
  5  6  1  0
  6  7  2  0
  7  8  1  0
  8  9  1  0
  8 10  2  0
 10 11  1  0
 11 12  1  0
 12 13  1  0
 13 14  2  0
 14 15  1  0
 15  6  1  0
 15 11  2  0
M  END
>  <energy_score>  (266) 
-61.738361

>  <alias>  (266) 
None

>  <HIPPO Pose ID>  (266) 
68964

>  <smiles>  (266) 
CC[C@@H](O)Nc1nc(Cl)nc2scnc12

>  <inchikey>  (266) 
JZYBEFVFZXSYFA-SCSAIBSYSA-N

>  <distance_score>  (266) 
0.63601

>  <ref_mols>  (266) 
Z1719a,Z0472a

>  <ref_pdb>  (266) 
Z0472a

>  <HIPPO Compound ID>  (266) 
138609

>  <name>  (266) 
P68964

>  <inspiration_score>  (266) 
None

$$$$
P68965
     RDKit          3D

 15 16  0  0  0  0  0  0  0  0999 V2000
   -3.2156    6.9206  -17.9655 C   0  0  0  0  0  0  0  0  0  0  0  0
   -2.8913    5.6584  -17.6375 C   0  0  0  0  0  0  0  0  0  0  0  0
   -2.2260    4.7849  -18.6631 C   0  0  0  0  0  0  0  0  0  0  0  0
   -3.1632    4.9944  -16.3027 C   0  0  0  0  0  0  0  0  0  0  0  0
   -3.9716    5.8081  -15.3976 N   0  0  0  0  0  0  0  0  0  0  0  0
   -5.3342    5.4712  -15.3301 C   0  0  0  0  0  0  0  0  0  0  0  0
   -5.8971    5.4602  -14.0978 N   0  0  0  0  0  0  0  0  0  0  0  0
   -7.2126    5.1708  -13.9935 C   0  0  0  0  0  0  0  0  0  0  0  0
   -8.0892    4.9089  -14.9722 N   0  0  0  0  0  0  0  0  0  0  0  0
   -7.4888    4.9000  -16.1734 C   0  0  0  0  0  0  0  0  0  0  0  0
   -8.3142    4.5574  -17.6269 S   0  0  0  0  0  0  0  0  0  0  0  0
   -6.8348    4.7345  -18.4684 C   0  0  0  0  0  0  0  0  0  0  0  0
   -6.6973    4.4871  -19.9070 C   0  0  0  0  0  0  0  0  0  0  0  0
   -5.7983    5.0972  -17.7568 N   0  0  0  0  0  0  0  0  0  0  0  0
   -6.1539    5.1662  -16.4328 C   0  0  0  0  0  0  0  0  0  0  0  0
  1  2  2  0
  2  3  1  0
  2  4  1  0
  4  5  1  0
  5  6  1  0
  6  7  2  0
  7  8  1  0
  8  9  2  0
  9 10  1  0
 10 11  1  0
 11 12  1  0
 12 13  1  0
 12 14  2  0
 14 15  1  0
 15  6  1  0
 15 10  2  0
M  END
>  <energy_score>  (267) 
-54.088803

>  <alias>  (267) 
None

>  <HIPPO Pose ID>  (267) 
68965

>  <smiles>  (267) 
C=C(C)CNc1ncnc2sc(C)nc12

>  <inchikey>  (267) 
PZPONNRYXIDIGH-UHFFFAOYSA-N

>  <distance_score>  (267) 
0.778027

>  <ref_mols>  (267) 
Z1719a,Z0472a

>  <ref_pdb>  (267) 
Z0472a

>  <HIPPO Compound ID>  (267) 
138610

>  <name>  (267) 
P68965

>  <inspiration_score>  (267) 
None

$$$$
P68968
     RDKit          3D

 15 16  0  0  0  0  0  0  0  0999 V2000
   -6.6486    4.5639  -19.8936 C   0  0  0  0  0  0  0  0  0  0  0  0
   -6.9660    4.8913  -18.4967 C   0  0  0  0  0  0  0  0  0  0  0  0
   -6.0942    5.5138  -17.7402 N   0  0  0  0  0  0  0  0  0  0  0  0
   -6.4896    5.4007  -16.4233 C   0  0  0  0  0  0  0  0  0  0  0  0
   -5.7685    5.7633  -15.2686 C   0  0  0  0  0  0  0  0  0  0  0  0
   -4.5497    6.4233  -15.2611 N   0  0  0  0  0  0  0  0  0  0  0  0
   -3.8645    6.7840  -16.4945 C   0  0  0  0  0  0  0  0  0  0  0  0
   -3.1749    5.5910  -17.1700 C   0  0  1  0  0  0  0  0  0  0  0  0
   -2.7389    5.9309  -18.5887 C   0  0  0  0  0  0  0  0  0  0  0  0
   -1.7419    5.1491  -16.1975 Cl  0  0  0  0  0  0  0  0  0  0  0  0
   -6.2973    5.4413  -14.0659 N   0  0  0  0  0  0  0  0  0  0  0  0
   -7.5243    4.8789  -14.0304 C   0  0  0  0  0  0  0  0  0  0  0  0
   -8.3317    4.5860  -15.0577 N   0  0  0  0  0  0  0  0  0  0  0  0
   -7.7345    4.8263  -16.2339 C   0  0  0  0  0  0  0  0  0  0  0  0
   -8.4338    4.4359  -17.7398 S   0  0  0  0  0  0  0  0  0  0  0  0
  1  2  1  0
  2  3  2  0
  3  4  1  0
  4  5  2  0
  5  6  1  0
  6  7  1  0
  7  8  1  0
  8  9  1  6
  8 10  1  0
  5 11  1  0
 11 12  2  0
 12 13  1  0
 13 14  2  0
 14 15  1  0
 15  2  1  0
 14  4  1  0
M  END
>  <energy_score>  (268) 
-68.541859

>  <alias>  (268) 
None

>  <HIPPO Pose ID>  (268) 
68968

>  <smiles>  (268) 
Cc1nc2c(NC[C@@H](C)Cl)ncnc2s1

>  <inchikey>  (268) 
ZSGBDKSDPFFMFO-RXMQYKEDSA-N

>  <distance_score>  (268) 
0.980397

>  <ref_mols>  (268) 
Z1719a,Z0472a

>  <ref_pdb>  (268) 
Z0472a

>  <HIPPO Compound ID>  (268) 
138612

>  <name>  (268) 
P68968

>  <inspiration_score>  (268) 
None

$$$$
P68973
     RDKit          3D

 15 17  0  0  0  0  0  0  0  0999 V2000
   -7.9310    4.7221  -12.8509 Cl  0  0  0  0  0  0  0  0  0  0  0  0
   -7.3010    4.8872  -14.4311 C   0  0  0  0  0  0  0  0  0  0  0  0
   -6.0369    5.3362  -14.4988 N   0  0  0  0  0  0  0  0  0  0  0  0
   -5.4711    5.5019  -15.7216 C   0  0  0  0  0  0  0  0  0  0  0  0
   -4.1712    6.0453  -15.6719 N   0  0  0  0  0  0  0  0  0  0  0  0
   -3.0545    5.7840  -16.5111 C   0  0  2  0  0  0  0  0  0  0  0  0
   -3.1080    6.3504  -17.9237 C   0  0  0  0  0  0  0  0  0  0  0  0
   -2.8692    4.9048  -18.3543 C   0  0  0  0  0  0  0  0  0  0  0  0
   -2.8795    4.4398  -16.9839 O   0  0  0  0  0  0  0  0  0  0  0  0
   -6.2451    5.1885  -16.8636 C   0  0  0  0  0  0  0  0  0  0  0  0
   -5.9273    5.2717  -18.2126 N   0  0  0  0  0  0  0  0  0  0  0  0
   -6.9491    4.8534  -18.9308 C   0  0  0  0  0  0  0  0  0  0  0  0
   -8.3837    4.4817  -18.0739 S   0  0  0  0  0  0  0  0  0  0  0  0
   -7.5502    4.7725  -16.6163 C   0  0  0  0  0  0  0  0  0  0  0  0
   -8.1470    4.6269  -15.4239 N   0  0  0  0  0  0  0  0  0  0  0  0
  1  2  1  0
  2  3  2  0
  3  4  1  0
  4  5  1  0
  6  5  1  6
  6  7  1  0
  7  8  1  0
  8  9  1  0
  4 10  2  0
 10 11  1  0
 11 12  2  0
 12 13  1  0
 13 14  1  0
 14 15  2  0
 15  2  1  0
  9  6  1  0
 14 10  1  0
M  END
>  <energy_score>  (269) 
-69.286512

>  <alias>  (269) 
None

>  <HIPPO Pose ID>  (269) 
68973

>  <smiles>  (269) 
Clc1nc(N[C@@H]2CCO2)c2ncsc2n1

>  <inchikey>  (269) 
YCACJUOQXOLHHT-BYPYZUCNSA-N

>  <distance_score>  (269) 
0.602269

>  <ref_mols>  (269) 
Z1719a,Z0472a

>  <ref_pdb>  (269) 
Z0472a

>  <HIPPO Compound ID>  (269) 
138615

>  <name>  (269) 
P68973

>  <inspiration_score>  (269) 
None

$$$$
P68975
     RDKit          3D

 15 16  0  0  0  0  0  0  0  0999 V2000
   -6.7944    4.4904  -19.8901 C   0  0  0  0  0  0  0  0  0  0  0  0
   -6.9372    4.7898  -18.4616 C   0  0  0  0  0  0  0  0  0  0  0  0
   -5.9145    5.2430  -17.7842 N   0  0  0  0  0  0  0  0  0  0  0  0
   -6.1959    5.1905  -16.4471 C   0  0  0  0  0  0  0  0  0  0  0  0
   -5.3216    5.4289  -15.3756 C   0  0  0  0  0  0  0  0  0  0  0  0
   -3.9661    5.7748  -15.5028 N   0  0  0  0  0  0  0  0  0  0  0  0
   -3.1343    4.8746  -16.3169 C   0  0  0  0  0  0  0  0  0  0  0  0
   -3.0192    5.2085  -17.8235 C   0  0  1  0  0  0  0  0  0  0  0  0
   -2.8388    6.6864  -18.1181 C   0  0  0  0  0  0  0  0  0  0  0  0
   -1.8888    4.5293  -18.3996 O   0  0  0  0  0  0  0  0  0  0  0  0
   -5.8228    5.3521  -14.1208 N   0  0  0  0  0  0  0  0  0  0  0  0
   -7.1294    5.0379  -13.9669 C   0  0  0  0  0  0  0  0  0  0  0  0
   -8.0470    4.7973  -14.9149 N   0  0  0  0  0  0  0  0  0  0  0  0
   -7.5068    4.8648  -16.1414 C   0  0  0  0  0  0  0  0  0  0  0  0
   -8.3755    4.5277  -17.5735 S   0  0  0  0  0  0  0  0  0  0  0  0
  1  2  1  0
  2  3  2  0
  3  4  1  0
  4  5  2  0
  5  6  1  0
  6  7  1  0
  7  8  1  0
  8  9  1  1
  8 10  1  0
  5 11  1  0
 11 12  2  0
 12 13  1  0
 13 14  2  0
 14 15  1  0
 15  2  1  0
 14  4  1  0
M  END
>  <energy_score>  (270) 
-38.397219

>  <alias>  (270) 
None

>  <HIPPO Pose ID>  (270) 
68975

>  <smiles>  (270) 
Cc1nc2c(NC[C@@H](C)O)ncnc2s1

>  <inchikey>  (270) 
DYIJZJWZGXDKLJ-RXMQYKEDSA-N

>  <distance_score>  (270) 
0.703456

>  <ref_mols>  (270) 
Z1719a,Z0472a

>  <ref_pdb>  (270) 
Z0472a

>  <HIPPO Compound ID>  (270) 
138616

>  <name>  (270) 
P68975

>  <inspiration_score>  (270) 
None

$$$$
P68979
     RDKit          3D

 15 16  0  0  0  0  0  0  0  0999 V2000
   -6.8205    4.4529  -19.9275 C   0  0  0  0  0  0  0  0  0  0  0  0
   -6.9782    4.7484  -18.5012 C   0  0  0  0  0  0  0  0  0  0  0  0
   -5.9493    5.1611  -17.8099 N   0  0  0  0  0  0  0  0  0  0  0  0
   -6.2652    5.1384  -16.4772 C   0  0  0  0  0  0  0  0  0  0  0  0
   -5.3881    5.3257  -15.3965 C   0  0  0  0  0  0  0  0  0  0  0  0
   -4.0085    5.5573  -15.5297 N   0  0  0  0  0  0  0  0  0  0  0  0
   -3.3444    4.8240  -16.6203 C   0  0  0  0  0  0  0  0  0  0  0  0
   -2.6401    5.7601  -17.6090 C   0  0  2  0  0  0  0  0  0  0  0  0
   -3.4820    6.8340  -18.2723 C   0  0  0  0  0  0  0  0  0  0  0  0
   -1.8365    4.7053  -19.0732 Br  0  0  0  0  0  0  0  0  0  0  0  0
   -5.8998    5.2616  -14.1468 N   0  0  0  0  0  0  0  0  0  0  0  0
   -7.2232    5.0128  -14.0096 C   0  0  0  0  0  0  0  0  0  0  0  0
   -8.1448    4.8217  -14.9678 N   0  0  0  0  0  0  0  0  0  0  0  0
   -7.5896    4.8641  -16.1891 C   0  0  0  0  0  0  0  0  0  0  0  0
   -8.4402    4.5389  -17.6352 S   0  0  0  0  0  0  0  0  0  0  0  0
  1  2  1  0
  2  3  2  0
  3  4  1  0
  4  5  2  0
  5  6  1  0
  6  7  1  0
  7  8  1  0
  8  9  1  6
  8 10  1  0
  5 11  1  0
 11 12  2  0
 12 13  1  0
 13 14  2  0
 14 15  1  0
 15  2  1  0
 14  4  1  0
M  END
>  <energy_score>  (271) 
-53.607433

>  <alias>  (271) 
None

>  <HIPPO Pose ID>  (271) 
68979

>  <smiles>  (271) 
Cc1nc2c(NC[C@H](C)Br)ncnc2s1

>  <inchikey>  (271) 
IVHFOQUYGHTHJJ-YFKPBYRVSA-N

>  <distance_score>  (271) 
0.911422

>  <ref_mols>  (271) 
Z1719a,Z0472a

>  <ref_pdb>  (271) 
Z0472a

>  <HIPPO Compound ID>  (271) 
138618

>  <name>  (271) 
P68979

>  <inspiration_score>  (271) 
None

$$$$
P68981
     RDKit          3D

 15 16  0  0  0  0  0  0  0  0999 V2000
   -2.2264    7.3559  -18.3495 C   0  0  0  0  0  0  0  0  0  0  0  0
   -2.5767    6.0958  -17.5831 C   0  0  2  0  0  0  0  0  0  0  0  0
   -2.6293    4.6440  -18.8917 Br  0  0  0  0  0  0  0  0  0  0  0  0
   -3.9118    6.2510  -16.8577 C   0  0  0  0  0  0  0  0  0  0  0  0
   -4.2533    5.0119  -16.1458 N   0  0  0  0  0  0  0  0  0  0  0  0
   -5.6446    4.9773  -15.8836 C   0  0  0  0  0  0  0  0  0  0  0  0
   -6.0762    5.0317  -14.6090 N   0  0  0  0  0  0  0  0  0  0  0  0
   -7.3960    4.8846  -14.3938 C   0  0  0  0  0  0  0  0  0  0  0  0
   -7.8773    4.9217  -12.7537 Cl  0  0  0  0  0  0  0  0  0  0  0  0
   -8.3914    4.7475  -15.2794 N   0  0  0  0  0  0  0  0  0  0  0  0
   -7.9130    4.6809  -16.5311 C   0  0  0  0  0  0  0  0  0  0  0  0
   -8.8977    4.4228  -17.8970 S   0  0  0  0  0  0  0  0  0  0  0  0
   -7.4959    4.4866  -18.8881 C   0  0  0  0  0  0  0  0  0  0  0  0
   -6.3514    4.7204  -18.2800 N   0  0  0  0  0  0  0  0  0  0  0  0
   -6.5889    4.7937  -16.9163 C   0  0  0  0  0  0  0  0  0  0  0  0
  2  1  1  6
  2  3  1  0
  2  4  1  0
  4  5  1  0
  5  6  1  0
  6  7  2  0
  7  8  1  0
  8  9  1  0
  8 10  2  0
 10 11  1  0
 11 12  1  0
 12 13  1  0
 13 14  2  0
 14 15  1  0
 15  6  1  0
 15 11  2  0
M  END
>  <energy_score>  (272) 
-96.888977

>  <alias>  (272) 
None

>  <HIPPO Pose ID>  (272) 
68981

>  <smiles>  (272) 
C[C@H](Br)CNc1nc(Cl)nc2scnc12

>  <inchikey>  (272) 
PJEXDWZPNIIDAX-BYPYZUCNSA-N

>  <distance_score>  (272) 
0.885167

>  <ref_mols>  (272) 
Z0472a,Z1719a

>  <ref_pdb>  (272) 
Z0472a

>  <HIPPO Compound ID>  (272) 
138619

>  <name>  (272) 
P68981

>  <inspiration_score>  (272) 
None

$$$$
P68983
     RDKit          3D

 16 18  0  0  0  0  0  0  0  0999 V2000
   -6.5890    4.5527  -19.7983 C   0  0  0  0  0  0  0  0  0  0  0  0
   -6.7887    4.6403  -18.3429 C   0  0  0  0  0  0  0  0  0  0  0  0
   -5.7740    4.7654  -17.5215 N   0  0  0  0  0  0  0  0  0  0  0  0
   -6.2345    4.9075  -16.2268 C   0  0  0  0  0  0  0  0  0  0  0  0
   -5.5041    5.1512  -15.0398 C   0  0  0  0  0  0  0  0  0  0  0  0
   -4.1159    5.3633  -14.9239 N   0  0  0  0  0  0  0  0  0  0  0  0
   -3.2833    4.4216  -15.6493 C   0  0  0  0  0  0  0  0  0  0  0  0
   -2.8159    4.8790  -16.9996 C   0  0  2  0  0  0  0  0  0  0  0  0
   -1.9519    6.1090  -17.1673 C   0  0  0  0  0  0  0  0  0  0  0  0
   -3.3219    6.0751  -17.7556 C   0  0  2  0  0  0  0  0  0  0  0  0
   -4.2564    6.9168  -17.1913 F   0  0  0  0  0  0  0  0  0  0  0  0
   -6.1915    5.2152  -13.8741 N   0  0  0  0  0  0  0  0  0  0  0  0
   -7.5305    5.0606  -13.9020 C   0  0  0  0  0  0  0  0  0  0  0  0
   -8.3252    4.8907  -14.9650 N   0  0  0  0  0  0  0  0  0  0  0  0
   -7.6123    4.8083  -16.0999 C   0  0  0  0  0  0  0  0  0  0  0  0
   -8.3413    4.5921  -17.6273 S   0  0  0  0  0  0  0  0  0  0  0  0
  1  2  1  0
  2  3  2  0
  3  4  1  0
  4  5  2  0
  5  6  1  0
  6  7  1  0
  8  7  1  1
  8  9  1  0
  9 10  1  0
 10 11  1  1
  5 12  1  0
 12 13  2  0
 13 14  1  0
 14 15  2  0
 15 16  1  0
 16  2  1  0
 15  4  1  0
 10  8  1  0
M  END
>  <energy_score>  (273) 
-57.061902

>  <alias>  (273) 
None

>  <HIPPO Pose ID>  (273) 
68983

>  <smiles>  (273) 
Cc1nc2c(NC[C@@H]3C[C@@H]3F)ncnc2s1

>  <inchikey>  (273) 
LBOIMCYUTGIKSO-BQBZGAKWSA-N

>  <distance_score>  (273) 
1.028928

>  <ref_mols>  (273) 
Z1719a,Z0472a

>  <ref_pdb>  (273) 
Z0472a

>  <HIPPO Compound ID>  (273) 
138620

>  <name>  (273) 
P68983

>  <inspiration_score>  (273) 
None

$$$$
P68987
     RDKit          3D

 16 17  0  0  0  0  0  0  0  0999 V2000
   -3.2182    7.2317  -17.4157 C   0  0  0  0  0  0  0  0  0  0  0  0
   -2.7577    6.0281  -17.0372 C   0  0  0  0  0  0  0  0  0  0  0  0
   -1.5653    5.4542  -17.7466 C   0  0  0  0  0  0  0  0  0  0  0  0
   -3.3368    5.1538  -15.9455 C   0  0  0  0  0  0  0  0  0  0  0  0
   -4.2484    5.8687  -15.0435 N   0  0  0  0  0  0  0  0  0  0  0  0
   -5.5881    5.4428  -15.1342 C   0  0  0  0  0  0  0  0  0  0  0  0
   -6.2219    5.0726  -13.9982 N   0  0  0  0  0  0  0  0  0  0  0  0
   -7.4947    4.6186  -14.0984 C   0  0  0  0  0  0  0  0  0  0  0  0
   -8.2530    4.4787  -15.1994 N   0  0  0  0  0  0  0  0  0  0  0  0
   -7.5761    4.8311  -16.3022 C   0  0  0  0  0  0  0  0  0  0  0  0
   -8.1575    4.6193  -17.8993 S   0  0  0  0  0  0  0  0  0  0  0  0
   -6.6511    5.1987  -18.4828 C   0  0  0  0  0  0  0  0  0  0  0  0
   -6.1922    5.0783  -19.8811 C   0  0  0  0  0  0  0  0  0  0  0  0
   -4.3814    4.8642  -19.8467 Cl  0  0  0  0  0  0  0  0  0  0  0  0
   -5.8711    5.7313  -17.5755 N   0  0  0  0  0  0  0  0  0  0  0  0
   -6.3007    5.3603  -16.3392 C   0  0  0  0  0  0  0  0  0  0  0  0
  1  2  2  0
  2  3  1  0
  2  4  1  0
  4  5  1  0
  5  6  1  0
  6  7  2  0
  7  8  1  0
  8  9  2  0
  9 10  1  0
 10 11  1  0
 11 12  1  0
 12 13  1  0
 13 14  1  0
 12 15  2  0
 15 16  1  0
 16  6  1  0
 16 10  2  0
M  END
>  <energy_score>  (274) 
-51.415954

>  <alias>  (274) 
None

>  <HIPPO Pose ID>  (274) 
68987

>  <smiles>  (274) 
C=C(C)CNc1ncnc2sc(CCl)nc12

>  <inchikey>  (274) 
XBHVCMMFTVDUER-UHFFFAOYSA-N

>  <distance_score>  (274) 
0.931696

>  <ref_mols>  (274) 
Z1719a,Z0472a

>  <ref_pdb>  (274) 
Z0472a

>  <HIPPO Compound ID>  (274) 
138621

>  <name>  (274) 
P68987

>  <inspiration_score>  (274) 
None

$$$$
P68991
     RDKit          3D

 16 18  0  0  0  0  0  0  0  0999 V2000
   -5.6583    6.7406  -20.1863 Cl  0  0  0  0  0  0  0  0  0  0  0  0
   -6.1101    5.0359  -19.8354 C   0  0  0  0  0  0  0  0  0  0  0  0
   -6.4759    4.9208  -18.4129 C   0  0  0  0  0  0  0  0  0  0  0  0
   -5.5631    5.0096  -17.4736 N   0  0  0  0  0  0  0  0  0  0  0  0
   -6.1673    5.0135  -16.2420 C   0  0  0  0  0  0  0  0  0  0  0  0
   -5.5869    5.2067  -14.9776 C   0  0  0  0  0  0  0  0  0  0  0  0
   -4.2455    5.5045  -14.7036 N   0  0  0  0  0  0  0  0  0  0  0  0
   -3.2185    6.0000  -15.5406 C   0  0  1  0  0  0  0  0  0  0  0  0
   -2.5609    4.9250  -16.3956 C   0  0  0  0  0  0  0  0  0  0  0  0
   -2.6917    5.9531  -17.5221 C   0  0  0  0  0  0  0  0  0  0  0  0
   -3.5497    6.7867  -16.7006 O   0  0  0  0  0  0  0  0  0  0  0  0
   -6.3854    5.0927  -13.8859 N   0  0  0  0  0  0  0  0  0  0  0  0
   -7.6969    4.8369  -14.0658 C   0  0  0  0  0  0  0  0  0  0  0  0
   -8.3636    4.7250  -15.2184 N   0  0  0  0  0  0  0  0  0  0  0  0
   -7.5380    4.8040  -16.2732 C   0  0  0  0  0  0  0  0  0  0  0  0
   -8.0867    4.6880  -17.8838 S   0  0  0  0  0  0  0  0  0  0  0  0
  1  2  1  0
  2  3  1  0
  3  4  2  0
  4  5  1  0
  5  6  2  0
  6  7  1  0
  8  7  1  6
  8  9  1  0
  9 10  1  0
 10 11  1  0
  6 12  1  0
 12 13  2  0
 13 14  1  0
 14 15  2  0
 15 16  1  0
 16  3  1  0
 15  5  1  0
 11  8  1  0
M  END
>  <energy_score>  (275) 
-57.352912

>  <alias>  (275) 
None

>  <HIPPO Pose ID>  (275) 
68991

>  <smiles>  (275) 
ClCc1nc2c(N[C@H]3CCO3)ncnc2s1

>  <inchikey>  (275) 
WIKTYLDZUHRYLM-RXMQYKEDSA-N

>  <distance_score>  (275) 
1.017321

>  <ref_mols>  (275) 
Z0472a,Z1719a

>  <ref_pdb>  (275) 
Z0472a

>  <HIPPO Compound ID>  (275) 
138623

>  <name>  (275) 
P68991

>  <inspiration_score>  (275) 
None

$$$$
P68992
     RDKit          3D

 16 17  0  0  0  0  0  0  0  0999 V2000
   -3.1054    5.9050  -18.5883 C   0  0  0  0  0  0  0  0  0  0  0  0
   -3.3464    5.7239  -17.1072 C   0  0  0  0  0  0  0  0  0  0  0  0
   -2.9252    4.5968  -16.5188 C   0  0  0  0  0  0  0  0  0  0  0  0
   -2.9569    4.1102  -14.7374 Br  0  0  0  0  0  0  0  0  0  0  0  0
   -4.0442    6.8996  -16.4746 C   0  0  0  0  0  0  0  0  0  0  0  0
   -4.7925    6.6308  -15.2646 N   0  0  0  0  0  0  0  0  0  0  0  0
   -5.9816    5.9113  -15.2989 C   0  0  0  0  0  0  0  0  0  0  0  0
   -6.5068    5.5640  -14.0997 N   0  0  0  0  0  0  0  0  0  0  0  0
   -7.6846    4.9080  -14.0752 C   0  0  0  0  0  0  0  0  0  0  0  0
   -8.4547    4.5535  -15.1107 N   0  0  0  0  0  0  0  0  0  0  0  0
   -7.8613    4.8328  -16.2800 C   0  0  0  0  0  0  0  0  0  0  0  0
   -8.5117    4.3808  -17.7909 S   0  0  0  0  0  0  0  0  0  0  0  0
   -7.0609    4.9157  -18.5265 C   0  0  0  0  0  0  0  0  0  0  0  0
   -6.6703    4.5514  -19.8953 C   0  0  0  0  0  0  0  0  0  0  0  0
   -6.2662    5.6341  -17.7721 N   0  0  0  0  0  0  0  0  0  0  0  0
   -6.6595    5.4958  -16.4597 C   0  0  0  0  0  0  0  0  0  0  0  0
  1  2  1  0
  2  3  2  0
  3  4  1  0
  2  5  1  0
  5  6  1  0
  6  7  1  0
  7  8  2  0
  8  9  1  0
  9 10  2  0
 10 11  1  0
 11 12  1  0
 12 13  1  0
 13 14  1  0
 13 15  2  0
 15 16  1  0
 16  7  1  0
 16 11  2  0
M  END
>  <energy_score>  (276) 
-86.215275

>  <alias>  (276) 
None

>  <HIPPO Pose ID>  (276) 
68992

>  <smiles>  (276) 
C/C(=C/Br)CNc1ncnc2sc(C)nc12

>  <inchikey>  (276) 
BLKCVCDIEPEZSW-UTCJRWHESA-N

>  <distance_score>  (276) 
0.78136

>  <ref_mols>  (276) 
Z1719a,Z0472a

>  <ref_pdb>  (276) 
Z0472a

>  <HIPPO Compound ID>  (276) 
138624

>  <name>  (276) 
P68992

>  <inspiration_score>  (276) 
None

$$$$
P68995
     RDKit          3D

 16 17  0  0  0  0  0  0  0  0999 V2000
   -2.9417    6.9437  -17.2876 C   0  0  0  0  0  0  0  0  0  0  0  0
   -2.8356    5.5304  -16.7292 C   0  0  1  0  0  0  0  0  0  0  0  0
   -1.4453    5.1683  -16.8244 O   0  0  0  0  0  0  0  0  0  0  0  0
   -3.2802    5.3414  -15.2630 C   0  0  0  0  0  0  0  0  0  0  0  0
   -4.4235    6.1379  -14.8106 N   0  0  0  0  0  0  0  0  0  0  0  0
   -5.6782    5.5361  -15.0192 C   0  0  0  0  0  0  0  0  0  0  0  0
   -6.3927    5.2055  -13.9208 N   0  0  0  0  0  0  0  0  0  0  0  0
   -7.6300    4.6872  -14.0945 C   0  0  0  0  0  0  0  0  0  0  0  0
   -8.2931    4.4857  -15.2420 N   0  0  0  0  0  0  0  0  0  0  0  0
   -7.5413    4.8039  -16.3055 C   0  0  0  0  0  0  0  0  0  0  0  0
   -8.0563    4.6068  -17.9223 S   0  0  0  0  0  0  0  0  0  0  0  0
   -6.5194    5.1646  -18.4449 C   0  0  0  0  0  0  0  0  0  0  0  0
   -6.0885    5.1327  -19.8579 C   0  0  0  0  0  0  0  0  0  0  0  0
   -4.2729    5.0738  -19.9261 Cl  0  0  0  0  0  0  0  0  0  0  0  0
   -5.7353    5.6257  -17.5004 N   0  0  0  0  0  0  0  0  0  0  0  0
   -6.2635    5.3323  -16.2764 C   0  0  0  0  0  0  0  0  0  0  0  0
  2  1  1  1
  2  3  1  0
  2  4  1  0
  4  5  1  0
  5  6  1  0
  6  7  2  0
  7  8  1  0
  8  9  2  0
  9 10  1  0
 10 11  1  0
 11 12  1  0
 12 13  1  0
 13 14  1  0
 12 15  2  0
 15 16  1  0
 16  6  1  0
 16 10  2  0
M  END
>  <energy_score>  (277) 
-66.873838

>  <alias>  (277) 
None

>  <HIPPO Pose ID>  (277) 
68995

>  <smiles>  (277) 
C[C@@H](O)CNc1ncnc2sc(CCl)nc12

>  <inchikey>  (277) 
NOWGGCLYVXAVOL-RXMQYKEDSA-N

>  <distance_score>  (277) 
0.993349

>  <ref_mols>  (277) 
Z0472a,Z1719a

>  <ref_pdb>  (277) 
Z0472a

>  <HIPPO Compound ID>  (277) 
138625

>  <name>  (277) 
P68995

>  <inspiration_score>  (277) 
None

$$$$
P69000
     RDKit          3D

 16 18  0  0  0  0  0  0  0  0999 V2000
   -1.9955    6.1672  -18.7482 F   0  0  0  0  0  0  0  0  0  0  0  0
   -2.5252    5.0386  -18.1568 C   0  0  1  0  0  0  0  0  0  0  0  0
   -2.4690    4.9181  -16.6619 C   0  0  0  0  0  0  0  0  0  0  0  0
   -3.7605    5.2333  -17.3556 C   0  0  1  0  0  0  0  0  0  0  0  0
   -4.3418    6.5887  -17.1639 C   0  0  0  0  0  0  0  0  0  0  0  0
   -5.0230    6.6244  -15.8873 N   0  0  0  0  0  0  0  0  0  0  0  0
   -6.1668    5.8520  -15.7097 C   0  0  0  0  0  0  0  0  0  0  0  0
   -6.4925    5.5935  -14.4258 N   0  0  0  0  0  0  0  0  0  0  0  0
   -7.6327    4.9266  -14.1885 C   0  0  0  0  0  0  0  0  0  0  0  0
   -7.9755    4.6418  -12.5407 Cl  0  0  0  0  0  0  0  0  0  0  0  0
   -8.5508    4.4976  -15.0544 N   0  0  0  0  0  0  0  0  0  0  0  0
   -8.1524    4.6949  -16.3179 C   0  0  0  0  0  0  0  0  0  0  0  0
   -9.0704    4.1855  -17.6584 S   0  0  0  0  0  0  0  0  0  0  0  0
   -7.7995    4.6959  -18.6849 C   0  0  0  0  0  0  0  0  0  0  0  0
   -6.8123    5.3506  -18.1127 N   0  0  0  0  0  0  0  0  0  0  0  0
   -6.9945    5.3314  -16.7345 C   0  0  0  0  0  0  0  0  0  0  0  0
  2  1  1  1
  2  3  1  0
  3  4  1  0
  4  5  1  1
  5  6  1  0
  6  7  1  0
  7  8  2  0
  8  9  1  0
  9 10  1  0
  9 11  2  0
 11 12  1  0
 12 13  1  0
 13 14  1  0
 14 15  2  0
 15 16  1  0
  4  2  1  0
 16  7  1  0
 16 12  2  0
M  END
>  <energy_score>  (278) 
-93.883866

>  <alias>  (278) 
None

>  <HIPPO Pose ID>  (278) 
69000

>  <smiles>  (278) 
F[C@H]1C[C@H]1CNc1nc(Cl)nc2scnc12

>  <inchikey>  (278) 
CQGRJLMCZQUBNA-WHFBIAKZSA-N

>  <distance_score>  (278) 
0.898183

>  <ref_mols>  (278) 
Z0472a,Z1719a

>  <ref_pdb>  (278) 
Z0472a

>  <HIPPO Compound ID>  (278) 
138627

>  <name>  (278) 
P69000

>  <inspiration_score>  (278) 
None

$$$$
P69003
     RDKit          3D

 16 18  0  0  0  0  0  0  0  0999 V2000
   -6.5941    4.6323  -19.8740 C   0  0  0  0  0  0  0  0  0  0  0  0
   -6.8934    4.9253  -18.4651 C   0  0  0  0  0  0  0  0  0  0  0  0
   -6.0002    5.4961  -17.6899 N   0  0  0  0  0  0  0  0  0  0  0  0
   -6.3706    5.2583  -16.3872 C   0  0  0  0  0  0  0  0  0  0  0  0
   -5.5884    5.4719  -15.2439 C   0  0  0  0  0  0  0  0  0  0  0  0
   -4.3036    6.0551  -15.3783 N   0  0  0  0  0  0  0  0  0  0  0  0
   -3.1801    5.1916  -15.6271 C   0  0  2  0  0  0  0  0  0  0  0  0
   -1.9782    6.0159  -16.1194 C   0  0  0  0  0  0  0  0  0  0  0  0
   -2.2501    5.3541  -17.4757 C   0  0  2  0  0  0  0  0  0  0  0  0
   -2.8549    6.1899  -18.5881 C   0  0  0  0  0  0  0  0  0  0  0  0
   -3.2178    4.4630  -16.8777 O   0  0  0  0  0  0  0  0  0  0  0  0
   -6.1016    5.1541  -14.0378 N   0  0  0  0  0  0  0  0  0  0  0  0
   -7.3658    4.6754  -13.9996 C   0  0  0  0  0  0  0  0  0  0  0  0
   -8.2200    4.4844  -15.0197 N   0  0  0  0  0  0  0  0  0  0  0  0
   -7.6403    4.7504  -16.1996 C   0  0  0  0  0  0  0  0  0  0  0  0
   -8.3738    4.4798  -17.7147 S   0  0  0  0  0  0  0  0  0  0  0  0
  1  2  1  0
  2  3  2  0
  3  4  1  0
  4  5  2  0
  5  6  1  0
  7  6  1  6
  7  8  1  0
  8  9  1  0
  9 10  1  6
  9 11  1  0
  5 12  1  0
 12 13  2  0
 13 14  1  0
 14 15  2  0
 15 16  1  0
 16  2  1  0
 15  4  1  0
 11  7  1  0
M  END
>  <energy_score>  (279) 
-164.029519

>  <alias>  (279) 
None

>  <HIPPO Pose ID>  (279) 
69003

>  <smiles>  (279) 
Cc1nc2c(N[C@@H]3C[C@H](C)O3)ncnc2s1

>  <inchikey>  (279) 
BSHSWMKDIIIHRE-FSPLSTOPSA-N

>  <distance_score>  (279) 
0.772231

>  <ref_mols>  (279) 
Z1719a,Z0472a

>  <ref_pdb>  (279) 
Z0472a

>  <HIPPO Compound ID>  (279) 
138628

>  <name>  (279) 
P69003

>  <inspiration_score>  (279) 
None

$$$$
P69008
     RDKit          3D

 16 18  0  0  0  0  0  0  0  0999 V2000
   -2.8599    6.0828  -19.0270 C   0  0  0  0  0  0  0  0  0  0  0  0
   -2.3596    5.2443  -17.8669 C   0  0  1  0  0  0  0  0  0  0  0  0
   -2.1382    5.9342  -16.5162 C   0  0  0  0  0  0  0  0  0  0  0  0
   -3.4014    5.1842  -16.0796 C   0  0  1  0  0  0  0  0  0  0  0  0
   -4.5164    6.0738  -15.9464 N   0  0  0  0  0  0  0  0  0  0  0  0
   -5.7816    5.4869  -15.7079 C   0  0  0  0  0  0  0  0  0  0  0  0
   -6.1959    5.2539  -14.4481 N   0  0  0  0  0  0  0  0  0  0  0  0
   -7.4370    4.7605  -14.2892 C   0  0  0  0  0  0  0  0  0  0  0  0
   -7.9299    4.5516  -12.6665 Cl  0  0  0  0  0  0  0  0  0  0  0  0
   -8.3666    4.4921  -15.2146 N   0  0  0  0  0  0  0  0  0  0  0  0
   -7.8836    4.6791  -16.4515 C   0  0  0  0  0  0  0  0  0  0  0  0
   -8.7691    4.3415  -17.8665 S   0  0  0  0  0  0  0  0  0  0  0  0
   -7.3903    4.7794  -18.7951 C   0  0  0  0  0  0  0  0  0  0  0  0
   -6.3762    5.3040  -18.1374 N   0  0  0  0  0  0  0  0  0  0  0  0
   -6.6343    5.1719  -16.7822 C   0  0  0  0  0  0  0  0  0  0  0  0
   -3.4135    4.4293  -17.3099 O   0  0  0  0  0  0  0  0  0  0  0  0
  2  1  1  6
  2  3  1  0
  3  4  1  0
  4  5  1  6
  5  6  1  0
  6  7  2  0
  7  8  1  0
  8  9  1  0
  8 10  2  0
 10 11  1  0
 11 12  1  0
 12 13  1  0
 13 14  2  0
 14 15  1  0
  4 16  1  0
 16  2  1  0
 15  6  1  0
 15 11  2  0
M  END
>  <energy_score>  (280) 
-77.745216

>  <alias>  (280) 
None

>  <HIPPO Pose ID>  (280) 
69008

>  <smiles>  (280) 
C[C@H]1C[C@@H](Nc2nc(Cl)nc3scnc23)O1

>  <inchikey>  (280) 
LCVLPJOYVRFJMG-WHFBIAKZSA-N

>  <distance_score>  (280) 
0.759488

>  <ref_mols>  (280) 
Z1719a,Z0472a

>  <ref_pdb>  (280) 
Z0472a

>  <HIPPO Compound ID>  (280) 
138629

>  <name>  (280) 
P69008

>  <inspiration_score>  (280) 
None

$$$$
P69011
     RDKit          3D

 16 17  0  0  0  0  0  0  0  0999 V2000
   -2.3303    5.5219  -14.1255 C   0  0  0  0  0  0  0  0  0  0  0  0
   -2.1743    4.5211  -15.2438 C   0  0  0  0  0  0  0  0  0  0  0  0
   -3.2156    4.5295  -16.3597 C   0  0  0  0  0  0  0  0  0  0  0  0
   -3.5887    5.8976  -16.9225 C   0  0  2  0  0  0  0  0  0  0  0  0
   -2.4452    6.5991  -17.1576 F   0  0  0  0  0  0  0  0  0  0  0  0
   -4.4234    6.6745  -16.0108 N   0  0  0  0  0  0  0  0  0  0  0  0
   -5.6705    6.1160  -15.7122 C   0  0  0  0  0  0  0  0  0  0  0  0
   -6.1036    6.1092  -14.4326 N   0  0  0  0  0  0  0  0  0  0  0  0
   -7.3112    5.5546  -14.1721 C   0  0  0  0  0  0  0  0  0  0  0  0
   -8.1926    5.0207  -15.0346 N   0  0  0  0  0  0  0  0  0  0  0  0
   -7.7111    5.0295  -16.2882 C   0  0  0  0  0  0  0  0  0  0  0  0
   -8.5328    4.3935  -17.6436 S   0  0  0  0  0  0  0  0  0  0  0  0
   -7.1549    4.7473  -18.5993 C   0  0  0  0  0  0  0  0  0  0  0  0
   -6.9693    4.3010  -19.9799 C   0  0  0  0  0  0  0  0  0  0  0  0
   -6.2079    5.4332  -18.0195 N   0  0  0  0  0  0  0  0  0  0  0  0
   -6.4951    5.5477  -16.6896 C   0  0  0  0  0  0  0  0  0  0  0  0
  1  2  1  0
  2  3  1  0
  3  4  1  0
  4  5  1  1
  4  6  1  0
  6  7  1  0
  7  8  2  0
  8  9  1  0
  9 10  2  0
 10 11  1  0
 11 12  1  0
 12 13  1  0
 13 14  1  0
 13 15  2  0
 15 16  1  0
 16  7  1  0
 16 11  2  0
M  END
>  <energy_score>  (281) 
-49.056799

>  <alias>  (281) 
None

>  <HIPPO Pose ID>  (281) 
69011

>  <smiles>  (281) 
CCC[C@H](F)Nc1ncnc2sc(C)nc12

>  <inchikey>  (281) 
YHTYEPZFEXUDOT-SSDOTTSWSA-N

>  <distance_score>  (281) 
1.036021

>  <ref_mols>  (281) 
Z1719a,Z0472a

>  <ref_pdb>  (281) 
Z0472a

>  <HIPPO Compound ID>  (281) 
138631

>  <name>  (281) 
P69011

>  <inspiration_score>  (281) 
None

$$$$
P69013
     RDKit          3D

 16 17  0  0  0  0  0  0  0  0999 V2000
   -2.1147    6.5940  -20.5481 C   0  0  0  0  0  0  0  0  0  0  0  0
   -2.4342    5.5297  -19.5108 C   0  0  0  0  0  0  0  0  0  0  0  0
   -3.1397    6.1286  -18.2937 C   0  0  0  0  0  0  0  0  0  0  0  0
   -3.4431    5.0577  -17.2491 C   0  0  1  0  0  0  0  0  0  0  0  0
   -2.2541    4.6075  -16.7587 F   0  0  0  0  0  0  0  0  0  0  0  0
   -4.1377    5.6268  -16.1119 N   0  0  0  0  0  0  0  0  0  0  0  0
   -5.4810    5.2813  -15.9519 C   0  0  0  0  0  0  0  0  0  0  0  0
   -5.9324    5.2064  -14.6786 N   0  0  0  0  0  0  0  0  0  0  0  0
   -7.2303    4.9079  -14.4805 C   0  0  0  0  0  0  0  0  0  0  0  0
   -7.7262    4.8309  -12.8456 Cl  0  0  0  0  0  0  0  0  0  0  0  0
   -8.1937    4.7026  -15.3814 N   0  0  0  0  0  0  0  0  0  0  0  0
   -7.7005    4.7445  -16.6277 C   0  0  0  0  0  0  0  0  0  0  0  0
   -8.6592    4.4378  -18.0021 S   0  0  0  0  0  0  0  0  0  0  0  0
   -7.2661    4.6423  -18.9812 C   0  0  0  0  0  0  0  0  0  0  0  0
   -6.1590    5.0054  -18.3688 N   0  0  0  0  0  0  0  0  0  0  0  0
   -6.3939    5.0261  -17.0009 C   0  0  0  0  0  0  0  0  0  0  0  0
  1  2  1  0
  2  3  1  0
  3  4  1  0
  4  5  1  1
  4  6  1  0
  6  7  1  0
  7  8  2  0
  8  9  1  0
  9 10  1  0
  9 11  2  0
 11 12  1  0
 12 13  1  0
 13 14  1  0
 14 15  2  0
 15 16  1  0
 16  7  1  0
 16 12  2  0
M  END
>  <energy_score>  (282) 
-144.159347

>  <alias>  (282) 
None

>  <HIPPO Pose ID>  (282) 
69013

>  <smiles>  (282) 
CCC[C@@H](F)Nc1nc(Cl)nc2scnc12

>  <inchikey>  (282) 
YJWAYZHEABPBFN-YFKPBYRVSA-N

>  <distance_score>  (282) 
0.723553

>  <ref_mols>  (282) 
Z1719a,Z0472a

>  <ref_pdb>  (282) 
Z0472a

>  <HIPPO Compound ID>  (282) 
138632

>  <name>  (282) 
P69013

>  <inspiration_score>  (282) 
None

$$$$
P69015
     RDKit          3D

 16 17  0  0  0  0  0  0  0  0999 V2000
   -6.7713    4.4788  -19.8760 C   0  0  0  0  0  0  0  0  0  0  0  0
   -7.0477    4.6022  -18.4393 C   0  0  0  0  0  0  0  0  0  0  0  0
   -6.0637    4.8034  -17.6040 N   0  0  0  0  0  0  0  0  0  0  0  0
   -6.5370    4.8511  -16.3228 C   0  0  0  0  0  0  0  0  0  0  0  0
   -5.8078    5.0719  -15.1454 C   0  0  0  0  0  0  0  0  0  0  0  0
   -4.4613    5.3844  -15.0685 N   0  0  0  0  0  0  0  0  0  0  0  0
   -3.4791    4.9038  -16.0328 C   0  0  2  0  0  0  0  0  0  0  0  0
   -1.8150    5.0433  -14.9962 Br  0  0  0  0  0  0  0  0  0  0  0  0
   -3.3773    5.6349  -17.3888 C   0  0  2  0  0  0  0  0  0  0  0  0
   -2.0358    5.6832  -18.1058 C   0  0  0  0  0  0  0  0  0  0  0  0
   -4.0738    7.4618  -17.3174 Br  0  0  0  0  0  0  0  0  0  0  0  0
   -6.4759    5.0320  -13.9715 N   0  0  0  0  0  0  0  0  0  0  0  0
   -7.8077    4.8142  -13.9951 C   0  0  0  0  0  0  0  0  0  0  0  0
   -8.6088    4.6742  -15.0614 N   0  0  0  0  0  0  0  0  0  0  0  0
   -7.9040    4.6758  -16.2030 C   0  0  0  0  0  0  0  0  0  0  0  0
   -8.6073    4.4729  -17.7485 S   0  0  0  0  0  0  0  0  0  0  0  0
  1  2  1  0
  2  3  2  0
  3  4  1  0
  4  5  2  0
  5  6  1  0
  6  7  1  0
  7  8  1  1
  7  9  1  0
  9 10  1  1
  9 11  1  0
  5 12  1  0
 12 13  2  0
 13 14  1  0
 14 15  2  0
 15 16  1  0
 16  2  1  0
 15  4  1  0
M  END
>  <energy_score>  (283) 
-39.689518

>  <alias>  (283) 
None

>  <HIPPO Pose ID>  (283) 
69015

>  <smiles>  (283) 
Cc1nc2c(N[C@H](Br)[C@H](C)Br)ncnc2s1

>  <inchikey>  (283) 
WBXGGYSZWJUPNP-FFWSUHOLSA-N

>  <distance_score>  (283) 
1.033823

>  <ref_mols>  (283) 
Z1719a,Z0472a

>  <ref_pdb>  (283) 
Z0472a

>  <HIPPO Compound ID>  (283) 
138633

>  <name>  (283) 
P69015

>  <inspiration_score>  (283) 
None

$$$$
P69022
     RDKit          3D

 16 17  0  0  0  0  0  0  0  0999 V2000
   -6.7860    4.4545  -20.0139 C   0  0  0  0  0  0  0  0  0  0  0  0
   -6.9344    4.6840  -18.5783 C   0  0  0  0  0  0  0  0  0  0  0  0
   -5.8695    4.8800  -17.8456 N   0  0  0  0  0  0  0  0  0  0  0  0
   -6.2401    4.7959  -16.5304 C   0  0  0  0  0  0  0  0  0  0  0  0
   -5.3796    4.6775  -15.4381 C   0  0  0  0  0  0  0  0  0  0  0  0
   -4.0022    4.4846  -15.5952 N   0  0  0  0  0  0  0  0  0  0  0  0
   -3.3181    5.4882  -16.3857 C   0  0  2  0  0  0  0  0  0  0  0  0
   -3.2550    5.1137  -17.7511 O   0  0  0  0  0  0  0  0  0  0  0  0
   -1.8720    5.6194  -15.9263 C   0  0  0  0  0  0  0  0  0  0  0  0
   -1.7301    5.9723  -14.4643 C   0  0  0  0  0  0  0  0  0  0  0  0
   -1.6758    4.4072  -13.3095 Br  0  0  0  0  0  0  0  0  0  0  0  0
   -5.9148    4.6096  -14.2020 N   0  0  0  0  0  0  0  0  0  0  0  0
   -7.2644    4.6329  -14.0939 C   0  0  0  0  0  0  0  0  0  0  0  0
   -8.1826    4.7304  -15.0721 N   0  0  0  0  0  0  0  0  0  0  0  0
   -7.5979    4.7567  -16.2803 C   0  0  0  0  0  0  0  0  0  0  0  0
   -8.4394    4.6516  -17.7608 S   0  0  0  0  0  0  0  0  0  0  0  0
  1  2  1  0
  2  3  2  0
  3  4  1  0
  4  5  2  0
  5  6  1  0
  6  7  1  0
  7  8  1  6
  7  9  1  0
  9 10  1  0
 10 11  1  0
  5 12  1  0
 12 13  2  0
 13 14  1  0
 14 15  2  0
 15 16  1  0
 16  2  1  0
 15  4  1  0
M  END
>  <energy_score>  (284) 
-59.854925

>  <alias>  (284) 
None

>  <HIPPO Pose ID>  (284) 
69022

>  <smiles>  (284) 
Cc1nc2c(N[C@H](O)CCBr)ncnc2s1

>  <inchikey>  (284) 
NJHSRXPGTGKSOE-ZCFIWIBFSA-N

>  <distance_score>  (284) 
1.054817

>  <ref_mols>  (284) 
Z1719a,Z0472a

>  <ref_pdb>  (284) 
Z0472a

>  <HIPPO Compound ID>  (284) 
138635

>  <name>  (284) 
P69022

>  <inspiration_score>  (284) 
None

$$$$
P69025
     RDKit          3D

 16 17  0  0  0  0  0  0  0  0999 V2000
   -6.6065    4.6467  -19.8848 C   0  0  0  0  0  0  0  0  0  0  0  0
   -6.9883    5.0076  -18.5106 C   0  0  0  0  0  0  0  0  0  0  0  0
   -6.1933    5.7277  -17.7510 N   0  0  0  0  0  0  0  0  0  0  0  0
   -6.5257    5.4651  -16.4447 C   0  0  0  0  0  0  0  0  0  0  0  0
   -5.7723    5.7796  -15.3064 C   0  0  0  0  0  0  0  0  0  0  0  0
   -4.6080    6.5626  -15.3761 N   0  0  0  0  0  0  0  0  0  0  0  0
   -3.3906    5.8495  -15.7081 C   0  0  1  0  0  0  0  0  0  0  0  0
   -3.2365    4.7053  -14.8730 O   0  0  0  0  0  0  0  0  0  0  0  0
   -3.2331    5.3930  -17.1805 C   0  0  1  0  0  0  0  0  0  0  0  0
   -3.1545    6.5205  -18.1968 C   0  0  0  0  0  0  0  0  0  0  0  0
   -1.9918    4.6868  -17.2570 O   0  0  0  0  0  0  0  0  0  0  0  0
   -6.2138    5.3550  -14.1033 N   0  0  0  0  0  0  0  0  0  0  0  0
   -7.4028    4.7124  -14.0546 C   0  0  0  0  0  0  0  0  0  0  0  0
   -8.2361    4.4302  -15.0673 N   0  0  0  0  0  0  0  0  0  0  0  0
   -7.7123    4.7852  -16.2486 C   0  0  0  0  0  0  0  0  0  0  0  0
   -8.4169    4.4227  -17.7576 S   0  0  0  0  0  0  0  0  0  0  0  0
  1  2  1  0
  2  3  2  0
  3  4  1  0
  4  5  2  0
  5  6  1  0
  6  7  1  0
  7  8  1  1
  7  9  1  0
  9 10  1  6
  9 11  1  0
  5 12  1  0
 12 13  2  0
 13 14  1  0
 14 15  2  0
 15 16  1  0
 16  2  1  0
 15  4  1  0
M  END
>  <energy_score>  (285) 
-36.984334

>  <alias>  (285) 
None

>  <HIPPO Pose ID>  (285) 
69025

>  <smiles>  (285) 
Cc1nc2c(N[C@@H](O)[C@@H](C)O)ncnc2s1

>  <inchikey>  (285) 
HTTXKDQUTYSMPL-VHWMUFPASA-N

>  <distance_score>  (285) 
0.757163

>  <ref_mols>  (285) 
Z1719a,Z0472a

>  <ref_pdb>  (285) 
Z0472a

>  <HIPPO Compound ID>  (285) 
138637

>  <name>  (285) 
P69025

>  <inspiration_score>  (285) 
None

$$$$
P69029
     RDKit          3D

 16 17  0  0  0  0  0  0  0  0999 V2000
   -2.8275    5.1480  -18.6287 C   0  0  0  0  0  0  0  0  0  0  0  0
   -3.1911    6.1156  -17.5186 C   0  0  1  0  0  0  0  0  0  0  0  0
   -4.4459    6.7529  -17.7759 O   0  0  0  0  0  0  0  0  0  0  0  0
   -3.1537    5.5179  -16.0967 C   0  0  1  0  0  0  0  0  0  0  0  0
   -3.3873    6.5414  -15.1425 O   0  0  0  0  0  0  0  0  0  0  0  0
   -4.0436    4.4033  -15.8130 N   0  0  0  0  0  0  0  0  0  0  0  0
   -5.4279    4.6247  -15.7391 C   0  0  0  0  0  0  0  0  0  0  0  0
   -5.9567    4.6062  -14.4948 N   0  0  0  0  0  0  0  0  0  0  0  0
   -7.2954    4.6517  -14.3695 C   0  0  0  0  0  0  0  0  0  0  0  0
   -7.8774    4.6909  -12.7628 Cl  0  0  0  0  0  0  0  0  0  0  0  0
   -8.2292    4.7241  -15.3215 N   0  0  0  0  0  0  0  0  0  0  0  0
   -7.6708    4.6854  -16.5403 C   0  0  0  0  0  0  0  0  0  0  0  0
   -8.6016    4.5929  -17.9653 S   0  0  0  0  0  0  0  0  0  0  0  0
   -7.1561    4.6023  -18.8838 C   0  0  0  0  0  0  0  0  0  0  0  0
   -6.0289    4.6969  -18.2068 N   0  0  0  0  0  0  0  0  0  0  0  0
   -6.3155    4.6731  -16.8412 C   0  0  0  0  0  0  0  0  0  0  0  0
  2  1  1  6
  2  3  1  0
  2  4  1  0
  4  5  1  1
  4  6  1  0
  6  7  1  0
  7  8  2  0
  8  9  1  0
  9 10  1  0
  9 11  2  0
 11 12  1  0
 12 13  1  0
 13 14  1  0
 14 15  2  0
 15 16  1  0
 16  7  1  0
 16 12  2  0
M  END
>  <energy_score>  (286) 
-90.190875

>  <alias>  (286) 
None

>  <HIPPO Pose ID>  (286) 
69029

>  <smiles>  (286) 
C[C@@H](O)[C@@H](O)Nc1nc(Cl)nc2scnc12

>  <inchikey>  (286) 
HJGWSBNSRBZKPW-AWFVSMACSA-N

>  <distance_score>  (286) 
0.89009

>  <ref_mols>  (286) 
Z1719a,Z0472a

>  <ref_pdb>  (286) 
Z0472a

>  <HIPPO Compound ID>  (286) 
138638

>  <name>  (286) 
P69029

>  <inspiration_score>  (286) 
None

$$$$
P69033
     RDKit          3D

 16 17  0  0  0  0  0  0  0  0999 V2000
   -6.8961    4.3785  -19.9872 C   0  0  0  0  0  0  0  0  0  0  0  0
   -7.0856    4.8351  -18.6102 C   0  0  0  0  0  0  0  0  0  0  0  0
   -6.1495    5.5417  -18.0300 N   0  0  0  0  0  0  0  0  0  0  0  0
   -6.3868    5.5041  -16.6865 C   0  0  0  0  0  0  0  0  0  0  0  0
   -5.4875    5.9357  -15.7128 C   0  0  0  0  0  0  0  0  0  0  0  0
   -4.2734    6.5389  -16.1204 N   0  0  0  0  0  0  0  0  0  0  0  0
   -3.3792    5.5175  -16.6783 C   0  0  1  0  0  0  0  0  0  0  0  0
   -2.6732    6.3217  -18.1214 Cl  0  0  0  0  0  0  0  0  0  0  0  0
   -2.2847    5.1797  -15.6821 C   0  0  0  0  0  0  0  0  0  0  0  0
   -2.7193    4.0619  -14.8402 C   0  0  0  0  0  0  0  0  0  0  0  0
   -3.0222    3.1340  -14.2128 N   0  0  0  0  0  0  0  0  0  0  0  0
   -5.8038    5.7498  -14.4192 N   0  0  0  0  0  0  0  0  0  0  0  0
   -7.0058    5.1862  -14.1400 C   0  0  0  0  0  0  0  0  0  0  0  0
   -7.9664    4.7861  -14.9972 N   0  0  0  0  0  0  0  0  0  0  0  0
   -7.5718    4.9359  -16.2708 C   0  0  0  0  0  0  0  0  0  0  0  0
   -8.4432    4.4172  -17.6423 S   0  0  0  0  0  0  0  0  0  0  0  0
  1  2  1  0
  2  3  2  0
  3  4  1  0
  4  5  2  0
  5  6  1  0
  6  7  1  0
  7  8  1  6
  7  9  1  0
  9 10  1  0
 10 11  3  0
  5 12  1  0
 12 13  2  0
 13 14  1  0
 14 15  2  0
 15 16  1  0
 16  2  1  0
 15  4  1  0
M  END
>  <energy_score>  (287) 
-61.506959

>  <alias>  (287) 
None

>  <HIPPO Pose ID>  (287) 
69033

>  <smiles>  (287) 
Cc1nc2c(N[C@@H](Cl)CC#N)ncnc2s1

>  <inchikey>  (287) 
LZKFOZKCCYMPDW-ZCFIWIBFSA-N

>  <distance_score>  (287) 
0.748896

>  <ref_mols>  (287) 
Z0472a,Z1719a

>  <ref_pdb>  (287) 
Z0472a

>  <HIPPO Compound ID>  (287) 
138639

>  <name>  (287) 
P69033

>  <inspiration_score>  (287) 
None

$$$$
P69035
     RDKit          3D

 16 17  0  0  0  0  0  0  0  0999 V2000
   -2.5462    5.0905  -20.6998 N   0  0  0  0  0  0  0  0  0  0  0  0
   -2.9804    5.5910  -19.7438 C   0  0  0  0  0  0  0  0  0  0  0  0
   -3.5204    6.2617  -18.5521 C   0  0  0  0  0  0  0  0  0  0  0  0
   -3.6052    5.3078  -17.3615 C   0  0  1  0  0  0  0  0  0  0  0  0
   -1.9815    5.0911  -16.6468 Cl  0  0  0  0  0  0  0  0  0  0  0  0
   -4.3317    5.8860  -16.2363 N   0  0  0  0  0  0  0  0  0  0  0  0
   -5.6325    5.4234  -16.0220 C   0  0  0  0  0  0  0  0  0  0  0  0
   -6.0429    5.3558  -14.7371 N   0  0  0  0  0  0  0  0  0  0  0  0
   -7.3110    4.9691  -14.4977 C   0  0  0  0  0  0  0  0  0  0  0  0
   -7.7567    4.8891  -12.8493 Cl  0  0  0  0  0  0  0  0  0  0  0  0
   -8.2797    4.6810  -15.3695 N   0  0  0  0  0  0  0  0  0  0  0  0
   -7.8194    4.7156  -16.6284 C   0  0  0  0  0  0  0  0  0  0  0  0
   -8.7902    4.3426  -17.9764 S   0  0  0  0  0  0  0  0  0  0  0  0
   -7.4190    4.5626  -18.9854 C   0  0  0  0  0  0  0  0  0  0  0  0
   -6.3179    4.9927  -18.4042 N   0  0  0  0  0  0  0  0  0  0  0  0
   -6.5394    5.0572  -17.0378 C   0  0  0  0  0  0  0  0  0  0  0  0
  1  2  3  0
  2  3  1  0
  3  4  1  0
  4  5  1  1
  4  6  1  0
  6  7  1  0
  7  8  2  0
  8  9  1  0
  9 10  1  0
  9 11  2  0
 11 12  1  0
 12 13  1  0
 13 14  1  0
 14 15  2  0
 15 16  1  0
 16  7  1  0
 16 12  2  0
M  END
>  <energy_score>  (288) 
-90.937073

>  <alias>  (288) 
None

>  <HIPPO Pose ID>  (288) 
69035

>  <smiles>  (288) 
N#CC[C@@H](Cl)Nc1nc(Cl)nc2scnc12

>  <inchikey>  (288) 
SIJMEDKPKJOUSV-BYPYZUCNSA-N

>  <distance_score>  (288) 
0.780555

>  <ref_mols>  (288) 
Z1719a,Z0472a

>  <ref_pdb>  (288) 
Z0472a

>  <HIPPO Compound ID>  (288) 
138640

>  <name>  (288) 
P69035

>  <inspiration_score>  (288) 
None

$$$$
P69041
     RDKit          3D

 16 17  0  0  0  0  0  0  0  0999 V2000
   -2.9578    5.3736  -20.8745 O   0  0  0  0  0  0  0  0  0  0  0  0
   -2.5395    5.1026  -19.5329 C   0  0  0  0  0  0  0  0  0  0  0  0
   -3.2692    5.9721  -18.5087 C   0  0  0  0  0  0  0  0  0  0  0  0
   -3.4637    5.2000  -17.2004 C   0  0  1  0  0  0  0  0  0  0  0  0
   -2.2010    5.0069  -16.5897 O   0  0  0  0  0  0  0  0  0  0  0  0
   -4.2464    5.9421  -16.2441 N   0  0  0  0  0  0  0  0  0  0  0  0
   -5.5468    5.4807  -16.0183 C   0  0  0  0  0  0  0  0  0  0  0  0
   -5.9614    5.4456  -14.7316 N   0  0  0  0  0  0  0  0  0  0  0  0
   -7.2280    5.0570  -14.4863 C   0  0  0  0  0  0  0  0  0  0  0  0
   -7.6708    4.9820  -12.8366 Cl  0  0  0  0  0  0  0  0  0  0  0  0
   -8.1941    4.7434  -15.3511 N   0  0  0  0  0  0  0  0  0  0  0  0
   -7.7346    4.7557  -16.6106 C   0  0  0  0  0  0  0  0  0  0  0  0
   -8.7167    4.3691  -17.9470 S   0  0  0  0  0  0  0  0  0  0  0  0
   -7.3529    4.5715  -18.9676 C   0  0  0  0  0  0  0  0  0  0  0  0
   -6.2400    4.9833  -18.3966 N   0  0  0  0  0  0  0  0  0  0  0  0
   -6.4530    5.0846  -17.0288 C   0  0  0  0  0  0  0  0  0  0  0  0
  1  2  1  0
  2  3  1  0
  3  4  1  0
  4  5  1  1
  4  6  1  0
  6  7  1  0
  7  8  2  0
  8  9  1  0
  9 10  1  0
  9 11  2  0
 11 12  1  0
 12 13  1  0
 13 14  1  0
 14 15  2  0
 15 16  1  0
 16  7  1  0
 16 12  2  0
M  END
>  <energy_score>  (289) 
-82.967502

>  <alias>  (289) 
None

>  <HIPPO Pose ID>  (289) 
69041

>  <smiles>  (289) 
OCC[C@@H](O)Nc1nc(Cl)nc2scnc12

>  <inchikey>  (289) 
CWMYAMDQCDHKTC-SCSAIBSYSA-N

>  <distance_score>  (289) 
0.572994

>  <ref_mols>  (289) 
Z0472a,Z1719a

>  <ref_pdb>  (289) 
Z0472a

>  <HIPPO Compound ID>  (289) 
138643

>  <name>  (289) 
P69041

>  <inspiration_score>  (289) 
None

$$$$
P69044
     RDKit          3D

 16 17  0  0  0  0  0  0  0  0999 V2000
   -8.3201    4.4791  -12.5633 Cl  0  0  0  0  0  0  0  0  0  0  0  0
   -7.6925    4.5035  -14.1489 C   0  0  0  0  0  0  0  0  0  0  0  0
   -6.3621    4.6566  -14.2017 N   0  0  0  0  0  0  0  0  0  0  0  0
   -5.8020    4.7974  -15.4134 C   0  0  0  0  0  0  0  0  0  0  0  0
   -4.4101    5.0267  -15.4054 N   0  0  0  0  0  0  0  0  0  0  0  0
   -4.1252    6.4587  -15.3170 C   0  0  0  0  0  0  0  0  0  0  0  0
   -4.5779    7.2248  -16.5489 C   0  0  0  0  0  0  0  0  0  0  0  0
   -3.9137    6.8384  -17.8746 C   0  0  0  0  0  0  0  0  0  0  0  0
   -3.1851    5.5077  -17.9662 C   0  0  0  0  0  0  0  0  0  0  0  0
   -2.3142    5.4146  -19.7117 Br  0  0  0  0  0  0  0  0  0  0  0  0
   -6.6170    4.7249  -16.5688 C   0  0  0  0  0  0  0  0  0  0  0  0
   -6.2715    4.8336  -17.9110 N   0  0  0  0  0  0  0  0  0  0  0  0
   -7.3431    4.6483  -18.6531 C   0  0  0  0  0  0  0  0  0  0  0  0
   -8.8236    4.4440  -17.8125 S   0  0  0  0  0  0  0  0  0  0  0  0
   -7.9742    4.5568  -16.3382 C   0  0  0  0  0  0  0  0  0  0  0  0
   -8.5840    4.4941  -15.1439 N   0  0  0  0  0  0  0  0  0  0  0  0
  1  2  1  0
  2  3  2  0
  3  4  1  0
  4  5  1  0
  5  6  1  0
  6  7  1  0
  7  8  1  0
  8  9  1  0
  9 10  1  0
  4 11  2  0
 11 12  1  0
 12 13  2  0
 13 14  1  0
 14 15  1  0
 15 16  2  0
 16  2  1  0
 15 11  1  0
M  END
>  <energy_score>  (290) 
-49.842067

>  <alias>  (290) 
None

>  <HIPPO Pose ID>  (290) 
69044

>  <smiles>  (290) 
Clc1nc(NCCCCBr)c2ncsc2n1

>  <inchikey>  (290) 
BIYYLFVVEOESBD-UHFFFAOYSA-N

>  <distance_score>  (290) 
1.028772

>  <ref_mols>  (290) 
Z1719a,Z0472a

>  <ref_pdb>  (290) 
Z0472a

>  <HIPPO Compound ID>  (290) 
138645

>  <name>  (290) 
P69044

>  <inspiration_score>  (290) 
None

$$$$
P69049
     RDKit          3D

 16 17  0  0  0  0  0  0  0  0999 V2000
   -6.7399    4.4392  -20.0009 C   0  0  0  0  0  0  0  0  0  0  0  0
   -6.9768    4.7511  -18.5909 C   0  0  0  0  0  0  0  0  0  0  0  0
   -6.0075    5.2441  -17.8606 N   0  0  0  0  0  0  0  0  0  0  0  0
   -6.4151    5.2334  -16.5501 C   0  0  0  0  0  0  0  0  0  0  0  0
   -5.6412    5.5669  -15.4364 C   0  0  0  0  0  0  0  0  0  0  0  0
   -4.3183    6.0085  -15.5144 N   0  0  0  0  0  0  0  0  0  0  0  0
   -3.4496    5.3315  -16.4674 C   0  0  1  0  0  0  0  0  0  0  0  0
   -3.4698    6.0248  -17.7092 O   0  0  0  0  0  0  0  0  0  0  0  0
   -2.0134    5.3768  -15.9654 C   0  0  0  0  0  0  0  0  0  0  0  0
   -1.8787    4.5678  -14.7543 C   0  0  0  0  0  0  0  0  0  0  0  0
   -1.7663    3.9527  -13.7767 N   0  0  0  0  0  0  0  0  0  0  0  0
   -6.2014    5.4785  -14.2126 N   0  0  0  0  0  0  0  0  0  0  0  0
   -7.4885    5.0738  -14.1282 C   0  0  0  0  0  0  0  0  0  0  0  0
   -8.3328    4.7759  -15.1276 N   0  0  0  0  0  0  0  0  0  0  0  0
   -7.7229    4.8486  -16.3209 C   0  0  0  0  0  0  0  0  0  0  0  0
   -8.4727    4.4661  -17.8028 S   0  0  0  0  0  0  0  0  0  0  0  0
  1  2  1  0
  2  3  2  0
  3  4  1  0
  4  5  2  0
  5  6  1  0
  6  7  1  0
  7  8  1  6
  7  9  1  0
  9 10  1  0
 10 11  3  0
  5 12  1  0
 12 13  2  0
 13 14  1  0
 14 15  2  0
 15 16  1  0
 16  2  1  0
 15  4  1  0
M  END
>  <energy_score>  (291) 
-95.118811

>  <alias>  (291) 
None

>  <HIPPO Pose ID>  (291) 
69049

>  <smiles>  (291) 
Cc1nc2c(N[C@@H](O)CC#N)ncnc2s1

>  <inchikey>  (291) 
HMCLZKKTHJKARD-LURJTMIESA-N

>  <distance_score>  (291) 
0.746086

>  <ref_mols>  (291) 
Z1719a,Z0472a

>  <ref_pdb>  (291) 
Z0472a

>  <HIPPO Compound ID>  (291) 
138649

>  <name>  (291) 
P69049

>  <inspiration_score>  (291) 
None

$$$$
P69053
     RDKit          3D

 16 17  0  0  0  0  0  0  0  0999 V2000
   -6.7270    4.4791  -19.9178 C   0  0  0  0  0  0  0  0  0  0  0  0
   -6.9427    4.7576  -18.4956 C   0  0  0  0  0  0  0  0  0  0  0  0
   -5.9569    5.2000  -17.7631 N   0  0  0  0  0  0  0  0  0  0  0  0
   -6.3268    5.1856  -16.4399 C   0  0  0  0  0  0  0  0  0  0  0  0
   -5.5290    5.4565  -15.3137 C   0  0  0  0  0  0  0  0  0  0  0  0
   -4.1718    5.7868  -15.3928 N   0  0  0  0  0  0  0  0  0  0  0  0
   -3.3419    4.8609  -16.1463 C   0  0  2  0  0  0  0  0  0  0  0  0
   -2.2545    4.8699  -15.3903 O   0  0  0  0  0  0  0  0  0  0  0  0
   -2.9796    5.3647  -17.6061 C   0  0  1  0  0  0  0  0  0  0  0  0
   -3.1788    6.8458  -17.8935 C   0  0  0  0  0  0  0  0  0  0  0  0
   -1.5863    5.0987  -17.8891 O   0  0  0  0  0  0  0  0  0  0  0  0
   -6.1234    5.4223  -14.0933 N   0  0  0  0  0  0  0  0  0  0  0  0
   -7.4284    5.0956  -14.0256 C   0  0  0  0  0  0  0  0  0  0  0  0
   -8.2838    4.8307  -15.0260 N   0  0  0  0  0  0  0  0  0  0  0  0
   -7.6556    4.8687  -16.2138 C   0  0  0  0  0  0  0  0  0  0  0  0
   -8.4337    4.5115  -17.6935 S   0  0  0  0  0  0  0  0  0  0  0  0
  1  2  1  0
  2  3  2  0
  3  4  1  0
  4  5  2  0
  5  6  1  0
  6  7  1  0
  7  8  1  1
  7  9  1  0
  9 10  1  1
  9 11  1  0
  5 12  1  0
 12 13  2  0
 13 14  1  0
 14 15  2  0
 15 16  1  0
 16  2  1  0
 15  4  1  0
M  CHG  1   8  -1
M  END
>  <energy_score>  (292) 
-96.791694

>  <alias>  (292) 
None

>  <HIPPO Pose ID>  (292) 
69053

>  <smiles>  (292) 
Cc1nc2c(N[C@H]([O-])[C@@H](C)O)ncnc2s1

>  <inchikey>  (292) 
BQEWFPUTCHPALG-SPGJFGJESA-N

>  <distance_score>  (292) 
0.868223

>  <ref_mols>  (292) 
Z1719a,Z0472a

>  <ref_pdb>  (292) 
Z0472a

>  <HIPPO Compound ID>  (292) 
138651

>  <name>  (292) 
P69053

>  <inspiration_score>  (292) 
None

$$$$
P69056
     RDKit          3D

 16 17  0  0  0  0  0  0  0  0999 V2000
   -1.7650    6.1736  -18.5444 C   0  0  0  0  0  0  0  0  0  0  0  0
   -3.1558    5.7573  -18.0913 C   0  0  1  0  0  0  0  0  0  0  0  0
   -3.6340    4.8762  -19.1328 O   0  0  0  0  0  0  0  0  0  0  0  0
   -3.2984    5.0697  -16.6800 C   0  0  1  0  0  0  0  0  0  0  0  0
   -2.2337    5.2466  -15.9221 O   0  0  0  0  0  0  0  0  0  0  0  0
   -4.2662    5.8031  -15.8781 N   0  0  0  0  0  0  0  0  0  0  0  0
   -5.5707    5.3308  -15.7743 C   0  0  0  0  0  0  0  0  0  0  0  0
   -6.0903    5.2659  -14.5213 N   0  0  0  0  0  0  0  0  0  0  0  0
   -7.3655    4.8844  -14.3815 C   0  0  0  0  0  0  0  0  0  0  0  0
   -7.9361    4.8080  -12.7696 Cl  0  0  0  0  0  0  0  0  0  0  0  0
   -8.2812    4.6306  -15.3203 N   0  0  0  0  0  0  0  0  0  0  0  0
   -7.7327    4.6956  -16.5431 C   0  0  0  0  0  0  0  0  0  0  0  0
   -8.6506    4.4028  -17.9514 S   0  0  0  0  0  0  0  0  0  0  0  0
   -7.2398    4.6552  -18.8866 C   0  0  0  0  0  0  0  0  0  0  0  0
   -6.1560    5.0127  -18.2329 N   0  0  0  0  0  0  0  0  0  0  0  0
   -6.4198    5.0175  -16.8647 C   0  0  0  0  0  0  0  0  0  0  0  0
  2  1  1  6
  2  3  1  0
  2  4  1  0
  4  5  1  1
  4  6  1  0
  6  7  1  0
  7  8  2  0
  8  9  1  0
  9 10  1  0
  9 11  2  0
 11 12  1  0
 12 13  1  0
 13 14  1  0
 14 15  2  0
 15 16  1  0
 16  7  1  0
 16 12  2  0
M  CHG  1   5  -1
M  END
>  <energy_score>  (293) 
-79.776116

>  <alias>  (293) 
None

>  <HIPPO Pose ID>  (293) 
69056

>  <smiles>  (293) 
C[C@@H](O)[C@@H]([O-])Nc1nc(Cl)nc2scnc12

>  <inchikey>  (293) 
VAGRPLREFLJFGY-AWFVSMACSA-N

>  <distance_score>  (293) 
0.839152

>  <ref_mols>  (293) 
Z0472a,Z1719a

>  <ref_pdb>  (293) 
Z0472a

>  <HIPPO Compound ID>  (293) 
138652

>  <name>  (293) 
P69056

>  <inspiration_score>  (293) 
None

$$$$
P69062
     RDKit          3D

 16 17  0  0  0  0  0  0  0  0999 V2000
   -2.0421    3.8565  -13.6725 C   0  0  0  0  0  0  0  0  0  0  0  0
   -2.0320    4.4946  -14.6902 C   0  0  0  0  0  0  0  0  0  0  0  0
   -2.0361    5.3192  -15.9132 C   0  0  0  0  0  0  0  0  0  0  0  0
   -3.4495    5.4312  -16.4916 C   0  0  2  0  0  0  0  0  0  0  0  0
   -3.3772    6.1242  -17.7280 O   0  0  0  0  0  0  0  0  0  0  0  0
   -4.2943    6.1854  -15.5682 N   0  0  0  0  0  0  0  0  0  0  0  0
   -5.6078    5.7162  -15.4523 C   0  0  0  0  0  0  0  0  0  0  0  0
   -6.1501    5.6193  -14.2195 N   0  0  0  0  0  0  0  0  0  0  0  0
   -7.4260    5.1833  -14.1186 C   0  0  0  0  0  0  0  0  0  0  0  0
   -8.2690    4.8370  -15.1036 N   0  0  0  0  0  0  0  0  0  0  0  0
   -7.6764    4.9180  -16.3052 C   0  0  0  0  0  0  0  0  0  0  0  0
   -8.4257    4.4821  -17.7729 S   0  0  0  0  0  0  0  0  0  0  0  0
   -6.9494    4.8089  -18.5817 C   0  0  0  0  0  0  0  0  0  0  0  0
   -6.7104    4.4705  -19.9860 C   0  0  0  0  0  0  0  0  0  0  0  0
   -5.9945    5.3540  -17.8700 N   0  0  0  0  0  0  0  0  0  0  0  0
   -6.3870    5.3491  -16.5544 C   0  0  0  0  0  0  0  0  0  0  0  0
  1  2  3  0
  2  3  1  0
  3  4  1  0
  4  5  1  6
  4  6  1  0
  6  7  1  0
  7  8  2  0
  8  9  1  0
  9 10  2  0
 10 11  1  0
 11 12  1  0
 12 13  1  0
 13 14  1  0
 13 15  2  0
 15 16  1  0
 16  7  1  0
 16 11  2  0
M  END
>  <energy_score>  (294) 
-85.996315

>  <alias>  (294) 
None

>  <HIPPO Pose ID>  (294) 
69062

>  <smiles>  (294) 
C#CC[C@H](O)Nc1ncnc2sc(C)nc12

>  <inchikey>  (294) 
KNTOEXZFFMDASX-ZETCQYMHSA-N

>  <distance_score>  (294) 
0.827275

>  <ref_mols>  (294) 
Z1719a,Z0472a

>  <ref_pdb>  (294) 
Z0472a

>  <HIPPO Compound ID>  (294) 
138655

>  <name>  (294) 
P69062

>  <inspiration_score>  (294) 
None

$$$$
P69065
     RDKit          3D

 16 17  0  0  0  0  0  0  0  0999 V2000
   -1.6250    4.5685  -20.0447 C   0  0  0  0  0  0  0  0  0  0  0  0
   -2.2613    5.2247  -19.2657 C   0  0  0  0  0  0  0  0  0  0  0  0
   -3.0472    5.9903  -18.2742 C   0  0  0  0  0  0  0  0  0  0  0  0
   -3.3091    5.1511  -17.0044 C   0  0  1  0  0  0  0  0  0  0  0  0
   -2.0770    4.9688  -16.3103 O   0  0  0  0  0  0  0  0  0  0  0  0
   -4.1341    5.8448  -16.0363 N   0  0  0  0  0  0  0  0  0  0  0  0
   -5.4683    5.4170  -15.9422 C   0  0  0  0  0  0  0  0  0  0  0  0
   -5.9667    5.3414  -14.6862 N   0  0  0  0  0  0  0  0  0  0  0  0
   -7.2536    4.9773  -14.5333 C   0  0  0  0  0  0  0  0  0  0  0  0
   -7.8034    4.8868  -12.9164 Cl  0  0  0  0  0  0  0  0  0  0  0  0
   -8.1698    4.7219  -15.4681 N   0  0  0  0  0  0  0  0  0  0  0  0
   -7.6303    4.7723  -16.6953 C   0  0  0  0  0  0  0  0  0  0  0  0
   -8.5313    4.4457  -18.1032 S   0  0  0  0  0  0  0  0  0  0  0  0
   -7.1059    4.6747  -19.0307 C   0  0  0  0  0  0  0  0  0  0  0  0
   -6.0297    5.0581  -18.3756 N   0  0  0  0  0  0  0  0  0  0  0  0
   -6.3196    5.0949  -17.0215 C   0  0  0  0  0  0  0  0  0  0  0  0
  1  2  3  0
  2  3  1  0
  3  4  1  0
  4  5  1  1
  4  6  1  0
  6  7  1  0
  7  8  2  0
  8  9  1  0
  9 10  1  0
  9 11  2  0
 11 12  1  0
 12 13  1  0
 13 14  1  0
 14 15  2  0
 15 16  1  0
 16  7  1  0
 16 12  2  0
M  END
>  <energy_score>  (295) 
-50.375406

>  <alias>  (295) 
None

>  <HIPPO Pose ID>  (295) 
69065

>  <smiles>  (295) 
C#CC[C@@H](O)Nc1nc(Cl)nc2scnc12

>  <inchikey>  (295) 
JHYZBOZEWXGXDI-RXMQYKEDSA-N

>  <distance_score>  (295) 
0.797248

>  <ref_mols>  (295) 
Z0472a,Z1719a

>  <ref_pdb>  (295) 
Z0472a

>  <HIPPO Compound ID>  (295) 
138656

>  <name>  (295) 
P69065

>  <inspiration_score>  (295) 
None

$$$$
P69067
     RDKit          3D

 16 17  0  0  0  0  0  0  0  0999 V2000
   -2.0511    6.0183  -20.5123 C   0  0  0  0  0  0  0  0  0  0  0  0
   -1.9600    5.8394  -19.1887 C   0  0  0  0  0  0  0  0  0  0  0  0
   -2.9577    6.3665  -18.1860 C   0  0  0  0  0  0  0  0  0  0  0  0
   -3.4153    5.3205  -17.1515 C   0  0  1  0  0  0  0  0  0  0  0  0
   -2.2941    4.8713  -16.4065 O   0  0  0  0  0  0  0  0  0  0  0  0
   -4.2652    5.9398  -16.1630 N   0  0  0  0  0  0  0  0  0  0  0  0
   -5.5554    5.4532  -15.9975 C   0  0  0  0  0  0  0  0  0  0  0  0
   -6.0146    5.3746  -14.7285 N   0  0  0  0  0  0  0  0  0  0  0  0
   -7.2864    4.9752  -14.5408 C   0  0  0  0  0  0  0  0  0  0  0  0
   -7.7921    4.8782  -12.9098 Cl  0  0  0  0  0  0  0  0  0  0  0  0
   -8.2188    4.6841  -15.4502 N   0  0  0  0  0  0  0  0  0  0  0  0
   -7.7131    4.7415  -16.6914 C   0  0  0  0  0  0  0  0  0  0  0  0
   -8.6377    4.3885  -18.0770 S   0  0  0  0  0  0  0  0  0  0  0  0
   -7.2367    4.6397  -19.0363 C   0  0  0  0  0  0  0  0  0  0  0  0
   -6.1584    5.0647  -18.4125 N   0  0  0  0  0  0  0  0  0  0  0  0
   -6.4210    5.0963  -17.0517 C   0  0  0  0  0  0  0  0  0  0  0  0
  1  2  2  0
  2  3  1  0
  3  4  1  0
  4  5  1  1
  4  6  1  0
  6  7  1  0
  7  8  2  0
  8  9  1  0
  9 10  1  0
  9 11  2  0
 11 12  1  0
 12 13  1  0
 13 14  1  0
 14 15  2  0
 15 16  1  0
 16  7  1  0
 16 12  2  0
M  END
>  <energy_score>  (296) 
-89.483764

>  <alias>  (296) 
None

>  <HIPPO Pose ID>  (296) 
69067

>  <smiles>  (296) 
C=CC[C@@H](O)Nc1nc(Cl)nc2scnc12

>  <inchikey>  (296) 
HVXYLKPDJQKQGX-RXMQYKEDSA-N

>  <distance_score>  (296) 
0.503627

>  <ref_mols>  (296) 
Z1719a,Z0472a

>  <ref_pdb>  (296) 
Z0472a

>  <HIPPO Compound ID>  (296) 
138657

>  <name>  (296) 
P69067

>  <inspiration_score>  (296) 
None

$$$$
P69068
     RDKit          3D

 16 18  0  0  0  0  0  0  0  0999 V2000
   -7.9842    4.5844  -12.6260 Cl  0  0  0  0  0  0  0  0  0  0  0  0
   -7.5282    4.8026  -14.2572 C   0  0  0  0  0  0  0  0  0  0  0  0
   -6.2991    5.3129  -14.4396 N   0  0  0  0  0  0  0  0  0  0  0  0
   -5.8889    5.5485  -15.7045 C   0  0  0  0  0  0  0  0  0  0  0  0
   -4.6315    6.1525  -15.8086 N   0  0  0  0  0  0  0  0  0  0  0  0
   -3.9925    6.0938  -17.0998 C   0  0  1  0  0  0  0  0  0  0  0  0
   -2.6704    6.8254  -17.0755 C   0  0  0  0  0  0  0  0  0  0  0  0
   -1.9815    5.9971  -18.0865 C   0  0  0  0  0  0  0  0  0  0  0  0
   -2.4891    4.8312  -18.2925 N   0  0  0  0  0  0  0  0  0  0  0  0
   -3.6332    4.7532  -17.4578 O   0  0  0  0  0  0  0  0  0  0  0  0
   -6.7484    5.1824  -16.7693 C   0  0  0  0  0  0  0  0  0  0  0  0
   -6.5296    5.2491  -18.1385 N   0  0  0  0  0  0  0  0  0  0  0  0
   -7.5530    4.7056  -18.7616 C   0  0  0  0  0  0  0  0  0  0  0  0
   -8.9040    4.2908  -17.7930 S   0  0  0  0  0  0  0  0  0  0  0  0
   -7.9895    4.6791  -16.4088 C   0  0  0  0  0  0  0  0  0  0  0  0
   -8.4597    4.5097  -15.1653 N   0  0  0  0  0  0  0  0  0  0  0  0
  1  2  1  0
  2  3  2  0
  3  4  1  0
  4  5  1  0
  6  5  1  1
  6  7  1  0
  7  8  1  0
  8  9  2  0
  9 10  1  0
  4 11  2  0
 11 12  1  0
 12 13  2  0
 13 14  1  0
 14 15  1  0
 15 16  2  0
 16  2  1  0
 10  6  1  0
 15 11  1  0
M  END
>  <energy_score>  (297) 
-76.717532

>  <alias>  (297) 
None

>  <HIPPO Pose ID>  (297) 
69068

>  <smiles>  (297) 
Clc1nc(N[C@H]2CC=NO2)c2ncsc2n1

>  <inchikey>  (297) 
PQGBPBADINTRRP-SCSAIBSYSA-N

>  <distance_score>  (297) 
0.969182

>  <ref_mols>  (297) 
Z0472a,Z1719a

>  <ref_pdb>  (297) 
Z0472a

>  <HIPPO Compound ID>  (297) 
138658

>  <name>  (297) 
P69068

>  <inspiration_score>  (297) 
None

$$$$
P69071
     RDKit          3D

 16 17  0  0  0  0  0  0  0  0999 V2000
   -3.0219    4.3515  -17.2847 C   0  0  0  0  0  0  0  0  0  0  0  0
   -2.6786    5.8148  -17.0570 C   0  0  0  0  0  0  0  0  0  0  0  0
   -2.7020    6.5748  -18.3892 C   0  0  0  0  0  0  0  0  0  0  0  0
   -0.7961    5.9144  -16.4064 Br  0  0  0  0  0  0  0  0  0  0  0  0
   -3.5379    6.4517  -15.9393 C   0  0  0  0  0  0  0  0  0  0  0  0
   -4.8994    6.7037  -16.3733 N   0  0  0  0  0  0  0  0  0  0  0  0
   -5.8962    5.8273  -15.9480 C   0  0  0  0  0  0  0  0  0  0  0  0
   -6.1243    5.5929  -14.6412 N   0  0  0  0  0  0  0  0  0  0  0  0
   -7.2532    4.9289  -14.3221 C   0  0  0  0  0  0  0  0  0  0  0  0
   -7.5334    4.7086  -12.6506 Cl  0  0  0  0  0  0  0  0  0  0  0  0
   -8.2275    4.4834  -15.1239 N   0  0  0  0  0  0  0  0  0  0  0  0
   -7.9077    4.6602  -16.4125 C   0  0  0  0  0  0  0  0  0  0  0  0
   -8.9097    4.1887  -17.7040 S   0  0  0  0  0  0  0  0  0  0  0  0
   -7.6711    4.6658  -18.7947 C   0  0  0  0  0  0  0  0  0  0  0  0
   -6.6425    5.3097  -18.2808 N   0  0  0  0  0  0  0  0  0  0  0  0
   -6.7729    5.2795  -16.9013 C   0  0  0  0  0  0  0  0  0  0  0  0
  1  2  1  0
  2  3  1  0
  2  4  1  0
  2  5  1  0
  5  6  1  0
  6  7  1  0
  7  8  2  0
  8  9  1  0
  9 10  1  0
  9 11  2  0
 11 12  1  0
 12 13  1  0
 13 14  1  0
 14 15  2  0
 15 16  1  0
 16  7  1  0
 16 12  2  0
M  END
>  <energy_score>  (298) 
-59.867259

>  <alias>  (298) 
None

>  <HIPPO Pose ID>  (298) 
69071

>  <smiles>  (298) 
CC(C)(Br)CNc1nc(Cl)nc2scnc12

>  <inchikey>  (298) 
USHGESPLBCJFFM-UHFFFAOYSA-N

>  <distance_score>  (298) 
1.102922

>  <ref_mols>  (298) 
Z1719a,Z0472a

>  <ref_pdb>  (298) 
Z0472a

>  <HIPPO Compound ID>  (298) 
138660

>  <name>  (298) 
P69071

>  <inspiration_score>  (298) 
None

$$$$
P69075
     RDKit          3D

 16 18  0  0  0  0  0  0  0  0999 V2000
   -8.0383    4.6735  -12.7037 Cl  0  0  0  0  0  0  0  0  0  0  0  0
   -7.5075    4.7311  -14.3263 C   0  0  0  0  0  0  0  0  0  0  0  0
   -6.2058    5.0261  -14.4859 N   0  0  0  0  0  0  0  0  0  0  0  0
   -5.7288    5.1117  -15.7438 C   0  0  0  0  0  0  0  0  0  0  0  0
   -4.3771    5.4415  -15.8650 N   0  0  0  0  0  0  0  0  0  0  0  0
   -4.0699    6.3268  -16.9606 C   0  0  1  0  0  0  0  0  0  0  0  0
   -3.1805    7.6650  -16.1729 Cl  0  0  0  0  0  0  0  0  0  0  0  0
   -3.2535    5.5993  -17.9862 C   0  0  0  0  0  0  0  0  0  0  0  0
   -1.7499    5.6592  -18.1251 C   0  0  0  0  0  0  0  0  0  0  0  0
   -2.6229    6.3492  -19.1366 C   0  0  0  0  0  0  0  0  0  0  0  0
   -6.6120    4.8755  -16.8224 C   0  0  0  0  0  0  0  0  0  0  0  0
   -6.3467    4.9057  -18.1851 N   0  0  0  0  0  0  0  0  0  0  0  0
   -7.4429    4.5791  -18.8369 C   0  0  0  0  0  0  0  0  0  0  0  0
   -8.8607    4.3630  -17.8947 S   0  0  0  0  0  0  0  0  0  0  0  0
   -7.9312    4.6124  -16.4885 C   0  0  0  0  0  0  0  0  0  0  0  0
   -8.4536    4.5633  -15.2541 N   0  0  0  0  0  0  0  0  0  0  0  0
  1  2  1  0
  2  3  2  0
  3  4  1  0
  4  5  1  0
  5  6  1  0
  6  7  1  1
  6  8  1  0
  8  9  1  0
  9 10  1  0
  4 11  2  0
 11 12  1  0
 12 13  2  0
 13 14  1  0
 14 15  1  0
 15 16  2  0
 16  2  1  0
 10  8  1  0
 15 11  1  0
M  END
>  <energy_score>  (299) 
-71.322709

>  <alias>  (299) 
None

>  <HIPPO Pose ID>  (299) 
69075

>  <smiles>  (299) 
Clc1nc(N[C@@H](Cl)C2CC2)c2ncsc2n1

>  <inchikey>  (299) 
IUKOBGOSNXOAQL-ZCFIWIBFSA-N

>  <distance_score>  (299) 
0.836549

>  <ref_mols>  (299) 
Z1719a,Z0472a

>  <ref_pdb>  (299) 
Z0472a

>  <HIPPO Compound ID>  (299) 
138662

>  <name>  (299) 
P69075

>  <inspiration_score>  (299) 
None

$$$$
P69076
     RDKit          3D

 16 17  0  0  0  0  0  0  0  0999 V2000
   -2.9088    3.7704  -14.1327 C   0  0  0  0  0  0  0  0  0  0  0  0
   -1.9920    4.5386  -14.7359 C   0  0  0  0  0  0  0  0  0  0  0  0
   -2.1284    5.3681  -15.9909 C   0  0  0  0  0  0  0  0  0  0  0  0
   -3.5185    5.4583  -16.6261 C   0  0  2  0  0  0  0  0  0  0  0  0
   -3.4036    6.0318  -17.9225 O   0  0  0  0  0  0  0  0  0  0  0  0
   -4.3396    6.3664  -15.8322 N   0  0  0  0  0  0  0  0  0  0  0  0
   -5.6237    5.8423  -15.5934 C   0  0  0  0  0  0  0  0  0  0  0  0
   -6.0988    5.7176  -14.3363 N   0  0  0  0  0  0  0  0  0  0  0  0
   -7.3426    5.2154  -14.1687 C   0  0  0  0  0  0  0  0  0  0  0  0
   -8.2209    4.8316  -15.1112 N   0  0  0  0  0  0  0  0  0  0  0  0
   -7.6924    4.9382  -16.3398 C   0  0  0  0  0  0  0  0  0  0  0  0
   -8.4708    4.4445  -17.7737 S   0  0  0  0  0  0  0  0  0  0  0  0
   -7.0338    4.8152  -18.6347 C   0  0  0  0  0  0  0  0  0  0  0  0
   -6.7946    4.4089  -20.0190 C   0  0  0  0  0  0  0  0  0  0  0  0
   -6.0970    5.4511  -17.9774 N   0  0  0  0  0  0  0  0  0  0  0  0
   -6.4433    5.4381  -16.6504 C   0  0  0  0  0  0  0  0  0  0  0  0
  1  2  2  0
  2  3  1  0
  3  4  1  0
  4  5  1  6
  4  6  1  0
  6  7  1  0
  7  8  2  0
  8  9  1  0
  9 10  2  0
 10 11  1  0
 11 12  1  0
 12 13  1  0
 13 14  1  0
 13 15  2  0
 15 16  1  0
 16  7  1  0
 16 11  2  0
M  END
>  <energy_score>  (300) 
-57.86553

>  <alias>  (300) 
None

>  <HIPPO Pose ID>  (300) 
69076

>  <smiles>  (300) 
C=CC[C@H](O)Nc1ncnc2sc(C)nc12

>  <inchikey>  (300) 
DFOHNALZGGXABB-ZETCQYMHSA-N

>  <distance_score>  (300) 
0.760724

>  <ref_mols>  (300) 
Z1719a,Z0472a

>  <ref_pdb>  (300) 
Z0472a

>  <HIPPO Compound ID>  (300) 
138663

>  <name>  (300) 
P69076

>  <inspiration_score>  (300) 
None

$$$$
P69078
     RDKit          3D

 16 17  0  0  0  0  0  0  0  0999 V2000
   -1.8818    4.6907  -19.0237 C   0  0  0  0  0  0  0  0  0  0  0  0
   -3.0856    5.5974  -18.8542 C   0  0  0  0  0  0  0  0  0  0  0  0
   -3.1623    6.2683  -17.4868 C   0  0  1  0  0  0  0  0  0  0  0  0
   -4.7060    7.4799  -17.4510 Br  0  0  0  0  0  0  0  0  0  0  0  0
   -3.1246    5.4164  -16.2159 C   0  0  0  0  0  0  0  0  0  0  0  0
   -4.0159    4.2547  -16.1709 N   0  0  0  0  0  0  0  0  0  0  0  0
   -5.3740    4.5520  -15.9306 C   0  0  0  0  0  0  0  0  0  0  0  0
   -5.7798    4.5910  -14.6420 N   0  0  0  0  0  0  0  0  0  0  0  0
   -7.1031    4.6948  -14.4064 C   0  0  0  0  0  0  0  0  0  0  0  0
   -7.5524    4.7633  -12.7571 Cl  0  0  0  0  0  0  0  0  0  0  0  0
   -8.1182    4.7776  -15.2728 N   0  0  0  0  0  0  0  0  0  0  0  0
   -7.6727    4.6854  -16.5348 C   0  0  0  0  0  0  0  0  0  0  0  0
   -8.7267    4.5826  -17.8708 S   0  0  0  0  0  0  0  0  0  0  0  0
   -7.3653    4.5103  -18.9052 C   0  0  0  0  0  0  0  0  0  0  0  0
   -6.1858    4.5551  -18.3280 N   0  0  0  0  0  0  0  0  0  0  0  0
   -6.3521    4.6071  -16.9519 C   0  0  0  0  0  0  0  0  0  0  0  0
  1  2  1  0
  2  3  1  0
  3  4  1  6
  3  5  1  0
  5  6  1  0
  6  7  1  0
  7  8  2  0
  8  9  1  0
  9 10  1  0
  9 11  2  0
 11 12  1  0
 12 13  1  0
 13 14  1  0
 14 15  2  0
 15 16  1  0
 16  7  1  0
 16 12  2  0
M  END
>  <energy_score>  (301) 
-34.300829

>  <alias>  (301) 
None

>  <HIPPO Pose ID>  (301) 
69078

>  <smiles>  (301) 
CC[C@@H](Br)CNc1nc(Cl)nc2scnc12

>  <inchikey>  (301) 
GSOMFHNDWSSXLS-RXMQYKEDSA-N

>  <distance_score>  (301) 
0.968595

>  <ref_mols>  (301) 
Z0472a,Z1719a

>  <ref_pdb>  (301) 
Z0472a

>  <HIPPO Compound ID>  (301) 
138664

>  <name>  (301) 
P69078

>  <inspiration_score>  (301) 
None

$$$$
P69082
     RDKit          3D

 16 17  0  0  0  0  0  0  0  0999 V2000
   -6.6336    4.5527  -19.8939 C   0  0  0  0  0  0  0  0  0  0  0  0
   -6.9132    4.8078  -18.4768 C   0  0  0  0  0  0  0  0  0  0  0  0
   -5.9717    5.2650  -17.6957 N   0  0  0  0  0  0  0  0  0  0  0  0
   -6.3863    5.1951  -16.3857 C   0  0  0  0  0  0  0  0  0  0  0  0
   -5.6414    5.4420  -15.2174 C   0  0  0  0  0  0  0  0  0  0  0  0
   -4.2863    5.8056  -15.2082 N   0  0  0  0  0  0  0  0  0  0  0  0
   -3.3916    4.9269  -15.9542 C   0  0  2  0  0  0  0  0  0  0  0  0
   -2.6224    4.5082  -14.9635 O   0  0  0  0  0  0  0  0  0  0  0  0
   -2.5268    5.7540  -16.9558 C   0  0  2  0  0  0  0  0  0  0  0  0
   -3.2837    6.4499  -18.0749 C   0  0  0  0  0  0  0  0  0  0  0  0
   -1.6375    4.9259  -17.5885 F   0  0  0  0  0  0  0  0  0  0  0  0
   -6.2900    5.3637  -14.0266 N   0  0  0  0  0  0  0  0  0  0  0  0
   -7.5834    4.9935  -14.0215 C   0  0  0  0  0  0  0  0  0  0  0  0
   -8.3913    4.7479  -15.0652 N   0  0  0  0  0  0  0  0  0  0  0  0
   -7.7156    4.8406  -16.2229 C   0  0  0  0  0  0  0  0  0  0  0  0
   -8.4285    4.5096  -17.7415 S   0  0  0  0  0  0  0  0  0  0  0  0
  1  2  1  0
  2  3  2  0
  3  4  1  0
  4  5  2  0
  5  6  1  0
  6  7  1  0
  7  8  1  1
  7  9  1  0
  9 10  1  6
  9 11  1  0
  5 12  1  0
 12 13  2  0
 13 14  1  0
 14 15  2  0
 15 16  1  0
 16  2  1  0
 15  4  1  0
M  CHG  1   8  -1
M  END
>  <energy_score>  (302) 
-89.107347

>  <alias>  (302) 
None

>  <HIPPO Pose ID>  (302) 
69082

>  <smiles>  (302) 
Cc1nc2c(N[C@H]([O-])[C@H](C)F)ncnc2s1

>  <inchikey>  (302) 
QIIMIVHFJHRXCN-RNHFCUEFSA-N

>  <distance_score>  (302) 
0.820281

>  <ref_mols>  (302) 
Z0472a,Z1719a

>  <ref_pdb>  (302) 
Z0472a

>  <HIPPO Compound ID>  (302) 
138665

>  <name>  (302) 
P69082

>  <inspiration_score>  (302) 
None

$$$$
P69086
     RDKit          3D

 16 17  0  0  0  0  0  0  0  0999 V2000
   -2.9408    5.7698  -18.6604 C   0  0  0  0  0  0  0  0  0  0  0  0
   -2.9761    5.1018  -17.2853 C   0  0  2  0  0  0  0  0  0  0  0  0
   -3.9761    4.1716  -17.3069 F   0  0  0  0  0  0  0  0  0  0  0  0
   -3.1627    6.0161  -16.0269 C   0  0  1  0  0  0  0  0  0  0  0  0
   -2.2814    6.9962  -16.0874 O   0  0  0  0  0  0  0  0  0  0  0  0
   -4.4413    6.7372  -16.0490 N   0  0  0  0  0  0  0  0  0  0  0  0
   -5.5758    5.9358  -15.8345 C   0  0  0  0  0  0  0  0  0  0  0  0
   -5.9475    5.6178  -14.5655 N   0  0  0  0  0  0  0  0  0  0  0  0
   -7.1012    4.9579  -14.3905 C   0  0  0  0  0  0  0  0  0  0  0  0
   -7.5399    4.6480  -12.7633 Cl  0  0  0  0  0  0  0  0  0  0  0  0
   -8.0073    4.5732  -15.2961 N   0  0  0  0  0  0  0  0  0  0  0  0
   -7.5774    4.8487  -16.5359 C   0  0  0  0  0  0  0  0  0  0  0  0
   -8.4610    4.4054  -17.9246 S   0  0  0  0  0  0  0  0  0  0  0  0
   -7.1672    4.9881  -18.8849 C   0  0  0  0  0  0  0  0  0  0  0  0
   -6.2394    5.6810  -18.2623 N   0  0  0  0  0  0  0  0  0  0  0  0
   -6.4167    5.5189  -16.8936 C   0  0  0  0  0  0  0  0  0  0  0  0
  2  1  1  6
  2  3  1  0
  2  4  1  0
  4  5  1  6
  4  6  1  0
  6  7  1  0
  7  8  2  0
  8  9  1  0
  9 10  1  0
  9 11  2  0
 11 12  1  0
 12 13  1  0
 13 14  1  0
 14 15  2  0
 15 16  1  0
 16  7  1  0
 16 12  2  0
M  CHG  1   5  -1
M  END
>  <energy_score>  (303) 
-89.379867

>  <alias>  (303) 
None

>  <HIPPO Pose ID>  (303) 
69086

>  <smiles>  (303) 
C[C@H](F)[C@@H]([O-])Nc1nc(Cl)nc2scnc12

>  <inchikey>  (303) 
XKXIZJBOUVPOPN-BBIVZNJYSA-N

>  <distance_score>  (303) 
0.77492

>  <ref_mols>  (303) 
Z1719a,Z0472a

>  <ref_pdb>  (303) 
Z0472a

>  <HIPPO Compound ID>  (303) 
138666

>  <name>  (303) 
P69086

>  <inspiration_score>  (303) 
None

$$$$
P69089
     RDKit          3D

 16 17  0  0  0  0  0  0  0  0999 V2000
   -6.8759    4.3804  -19.9581 C   0  0  0  0  0  0  0  0  0  0  0  0
   -7.0893    4.8147  -18.5756 C   0  0  0  0  0  0  0  0  0  0  0  0
   -6.1479    5.4748  -17.9531 N   0  0  0  0  0  0  0  0  0  0  0  0
   -6.4530    5.5151  -16.6198 C   0  0  0  0  0  0  0  0  0  0  0  0
   -5.6159    5.9547  -15.5867 C   0  0  0  0  0  0  0  0  0  0  0  0
   -4.2935    6.3848  -15.8107 N   0  0  0  0  0  0  0  0  0  0  0  0
   -3.5201    5.4189  -16.5744 C   0  0  1  0  0  0  0  0  0  0  0  0
   -2.3107    6.0599  -16.9166 O   0  0  0  0  0  0  0  0  0  0  0  0
   -3.2742    4.1328  -15.7808 C   0  0  0  0  0  0  0  0  0  0  0  0
   -2.4425    4.3304  -14.5202 C   0  0  0  0  0  0  0  0  0  0  0  0
   -2.5864    2.6009  -13.2326 I   0  0  0  0  0  0  0  0  0  0  0  0
   -6.0782    5.9064  -14.3199 N   0  0  0  0  0  0  0  0  0  0  0  0
   -7.3250    5.4180  -14.1188 C   0  0  0  0  0  0  0  0  0  0  0  0
   -8.2100    4.9803  -15.0300 N   0  0  0  0  0  0  0  0  0  0  0  0
   -7.6984    5.0292  -16.2705 C   0  0  0  0  0  0  0  0  0  0  0  0
   -8.4981    4.4568  -17.6660 S   0  0  0  0  0  0  0  0  0  0  0  0
  1  2  1  0
  2  3  2  0
  3  4  1  0
  4  5  2  0
  5  6  1  0
  6  7  1  0
  7  8  1  1
  7  9  1  0
  9 10  1  0
 10 11  1  0
  5 12  1  0
 12 13  2  0
 13 14  1  0
 14 15  2  0
 15 16  1  0
 16  2  1  0
 15  4  1  0
M  END
>  <energy_score>  (304) 
-207.218568

>  <alias>  (304) 
None

>  <HIPPO Pose ID>  (304) 
69089

>  <smiles>  (304) 
Cc1nc2c(N[C@@H](O)CCI)ncnc2s1

>  <inchikey>  (304) 
WMBRMEFTILLHHB-LURJTMIESA-N

>  <distance_score>  (304) 
1.010208

>  <ref_mols>  (304) 
Z1719a,Z0472a

>  <ref_pdb>  (304) 
Z0472a

>  <HIPPO Compound ID>  (304) 
138667

>  <name>  (304) 
P69089

>  <inspiration_score>  (304) 
None

$$$$
P69090
     RDKit          3D

 16 17  0  0  0  0  0  0  0  0999 V2000
   -2.3359    4.6098  -16.6497 O   0  0  0  0  0  0  0  0  0  0  0  0
   -3.5200    5.1164  -17.2289 C   0  0  2  0  0  0  0  0  0  0  0  0
   -3.1531    6.1381  -18.3037 C   0  0  0  0  0  0  0  0  0  0  0  0
   -2.4653    5.4470  -19.4786 C   0  0  0  0  0  0  0  0  0  0  0  0
   -2.0357    6.8348  -21.0482 I   0  0  0  0  0  0  0  0  0  0  0  0
   -4.2406    5.7404  -16.1500 N   0  0  0  0  0  0  0  0  0  0  0  0
   -5.5657    5.3591  -15.9554 C   0  0  0  0  0  0  0  0  0  0  0  0
   -5.9975    5.2988  -14.6760 N   0  0  0  0  0  0  0  0  0  0  0  0
   -7.2832    4.9624  -14.4585 C   0  0  0  0  0  0  0  0  0  0  0  0
   -7.7524    4.8781  -12.8165 Cl  0  0  0  0  0  0  0  0  0  0  0  0
   -8.2492    4.7078  -15.3440 N   0  0  0  0  0  0  0  0  0  0  0  0
   -7.7731    4.7430  -16.5971 C   0  0  0  0  0  0  0  0  0  0  0  0
   -8.7392    4.3961  -17.9564 S   0  0  0  0  0  0  0  0  0  0  0  0
   -7.3607    4.6146  -18.9537 C   0  0  0  0  0  0  0  0  0  0  0  0
   -6.2548    5.0082  -18.3585 N   0  0  0  0  0  0  0  0  0  0  0  0
   -6.4790    5.0515  -16.9893 C   0  0  0  0  0  0  0  0  0  0  0  0
  2  1  1  1
  2  3  1  0
  3  4  1  0
  4  5  1  0
  2  6  1  0
  6  7  1  0
  7  8  2  0
  8  9  1  0
  9 10  1  0
  9 11  2  0
 11 12  1  0
 12 13  1  0
 13 14  1  0
 14 15  2  0
 15 16  1  0
 16  7  1  0
 16 12  2  0
M  END
>  <energy_score>  (305) 
-100.33656

>  <alias>  (305) 
None

>  <HIPPO Pose ID>  (305) 
69090

>  <smiles>  (305) 
O[C@H](CCI)Nc1nc(Cl)nc2scnc12

>  <inchikey>  (305) 
BHQPLZKAGKHKFM-SCSAIBSYSA-N

>  <distance_score>  (305) 
0.624175

>  <ref_mols>  (305) 
Z1719a,Z0472a

>  <ref_pdb>  (305) 
Z0472a

>  <HIPPO Compound ID>  (305) 
138668

>  <name>  (305) 
P69090

>  <inspiration_score>  (305) 
None

$$$$
P69092
     RDKit          3D

 16 17  0  0  0  0  0  0  0  0999 V2000
   -0.9170    7.4185  -16.4217 N   0  0  0  0  0  0  0  0  0  0  0  0
   -1.4557    6.4283  -16.7011 C   0  0  0  0  0  0  0  0  0  0  0  0
   -2.0761    5.1320  -17.0087 C   0  0  0  0  0  0  0  0  0  0  0  0
   -3.5672    5.2340  -17.2872 C   0  0  2  0  0  0  0  0  0  0  0  0
   -3.7546    6.0181  -18.4509 O   0  0  0  0  0  0  0  0  0  0  0  0
   -4.2990    5.8065  -16.1732 N   0  0  0  0  0  0  0  0  0  0  0  0
   -5.6146    5.3845  -15.9751 C   0  0  0  0  0  0  0  0  0  0  0  0
   -6.0340    5.3065  -14.6939 N   0  0  0  0  0  0  0  0  0  0  0  0
   -7.3112    4.9429  -14.4674 C   0  0  0  0  0  0  0  0  0  0  0  0
   -7.7709    4.8555  -12.8236 Cl  0  0  0  0  0  0  0  0  0  0  0  0
   -8.2775    4.6745  -15.3492 N   0  0  0  0  0  0  0  0  0  0  0  0
   -7.8095    4.7226  -16.6045 C   0  0  0  0  0  0  0  0  0  0  0  0
   -8.7743    4.3671  -17.9616 S   0  0  0  0  0  0  0  0  0  0  0  0
   -7.4009    4.6050  -18.9624 C   0  0  0  0  0  0  0  0  0  0  0  0
   -6.2992    5.0227  -18.3730 N   0  0  0  0  0  0  0  0  0  0  0  0
   -6.5239    5.0564  -17.0023 C   0  0  0  0  0  0  0  0  0  0  0  0
  1  2  3  0
  2  3  1  0
  3  4  1  0
  4  5  1  6
  4  6  1  0
  6  7  1  0
  7  8  2  0
  8  9  1  0
  9 10  1  0
  9 11  2  0
 11 12  1  0
 12 13  1  0
 13 14  1  0
 14 15  2  0
 15 16  1  0
 16  7  1  0
 16 12  2  0
M  END
>  <energy_score>  (306) 
-72.636181

>  <alias>  (306) 
None

>  <HIPPO Pose ID>  (306) 
69092

>  <smiles>  (306) 
N#CC[C@H](O)Nc1nc(Cl)nc2scnc12

>  <inchikey>  (306) 
RKOWPEJAWYBUDQ-BYPYZUCNSA-N

>  <distance_score>  (306) 
0.710687

>  <ref_mols>  (306) 
Z0472a,Z1719a

>  <ref_pdb>  (306) 
Z0472a

>  <HIPPO Compound ID>  (306) 
138669

>  <name>  (306) 
P69092

>  <inspiration_score>  (306) 
None

$$$$
P69094
     RDKit          3D

 16 17  0  0  0  0  0  0  0  0999 V2000
   -2.9200    5.5454  -18.2287 C   0  0  0  0  0  0  0  0  0  0  0  0
   -3.2573    5.5599  -16.9239 C   0  0  0  0  0  0  0  0  0  0  0  0
   -3.1302    4.3180  -16.0757 C   0  0  0  0  0  0  0  0  0  0  0  0
   -2.2031    4.4874  -14.8859 C   0  0  0  0  0  0  0  0  0  0  0  0
   -3.8205    6.8198  -16.3032 C   0  0  0  0  0  0  0  0  0  0  0  0
   -4.7000    6.5773  -15.1835 N   0  0  0  0  0  0  0  0  0  0  0  0
   -5.9182    5.9346  -15.2621 C   0  0  0  0  0  0  0  0  0  0  0  0
   -6.4906    5.6084  -14.0782 N   0  0  0  0  0  0  0  0  0  0  0  0
   -7.6823    4.9782  -14.0869 C   0  0  0  0  0  0  0  0  0  0  0  0
   -8.4238    4.6309  -15.1440 N   0  0  0  0  0  0  0  0  0  0  0  0
   -7.7947    4.9059  -16.2961 C   0  0  0  0  0  0  0  0  0  0  0  0
   -8.4099    4.4559  -17.8205 S   0  0  0  0  0  0  0  0  0  0  0  0
   -6.9452    4.9974  -18.5235 C   0  0  0  0  0  0  0  0  0  0  0  0
   -6.5452    4.6481  -19.8935 C   0  0  0  0  0  0  0  0  0  0  0  0
   -6.1575    5.7024  -17.7471 N   0  0  0  0  0  0  0  0  0  0  0  0
   -6.5781    5.5524  -16.4441 C   0  0  0  0  0  0  0  0  0  0  0  0
  1  2  2  0
  2  3  1  0
  3  4  1  0
  2  5  1  0
  5  6  1  0
  6  7  1  0
  7  8  2  0
  8  9  1  0
  9 10  2  0
 10 11  1  0
 11 12  1  0
 12 13  1  0
 13 14  1  0
 13 15  2  0
 15 16  1  0
 16  7  1  0
 16 11  2  0
M  END
>  <energy_score>  (307) 
-77.33591

>  <alias>  (307) 
None

>  <HIPPO Pose ID>  (307) 
69094

>  <smiles>  (307) 
C=C(CC)CNc1ncnc2sc(C)nc12

>  <inchikey>  (307) 
POSJZMGAMSKRDG-UHFFFAOYSA-N

>  <distance_score>  (307) 
0.958313

>  <ref_mols>  (307) 
Z1719a,Z0472a

>  <ref_pdb>  (307) 
Z0472a

>  <HIPPO Compound ID>  (307) 
138670

>  <name>  (307) 
P69094

>  <inspiration_score>  (307) 
None

$$$$
P69100
     RDKit          3D

 16 18  0  0  0  0  0  0  0  0999 V2000
   -8.1435    4.6482  -12.6631 Cl  0  0  0  0  0  0  0  0  0  0  0  0
   -7.5206    4.6521  -14.2528 C   0  0  0  0  0  0  0  0  0  0  0  0
   -6.1851    4.7496  -14.3317 N   0  0  0  0  0  0  0  0  0  0  0  0
   -5.6171    4.8083  -15.5553 C   0  0  0  0  0  0  0  0  0  0  0  0
   -4.2340    4.9512  -15.5171 N   0  0  0  0  0  0  0  0  0  0  0  0
   -3.4107    4.7174  -16.6805 C   0  0  0  0  0  0  0  0  0  0  0  0
   -3.5211    5.8491  -17.6463 C   0  0  2  0  0  0  0  0  0  0  0  0
   -2.5171    6.9613  -17.8094 C   0  0  0  0  0  0  0  0  0  0  0  0
   -3.7883    7.2078  -17.0620 C   0  0  1  0  0  0  0  0  0  0  0  0
   -5.1243    8.1053  -17.6940 Cl  0  0  0  0  0  0  0  0  0  0  0  0
   -6.4636    4.7358  -16.6924 C   0  0  0  0  0  0  0  0  0  0  0  0
   -6.1443    4.7359  -18.0464 N   0  0  0  0  0  0  0  0  0  0  0  0
   -7.2433    4.6156  -18.7602 C   0  0  0  0  0  0  0  0  0  0  0  0
   -8.7108    4.5091  -17.8861 S   0  0  0  0  0  0  0  0  0  0  0  0
   -7.8251    4.6368  -16.4344 C   0  0  0  0  0  0  0  0  0  0  0  0
   -8.4239    4.6285  -15.2340 N   0  0  0  0  0  0  0  0  0  0  0  0
  1  2  1  0
  2  3  2  0
  3  4  1  0
  4  5  1  0
  5  6  1  0
  7  6  1  1
  7  8  1  0
  8  9  1  0
  9 10  1  6
  4 11  2  0
 11 12  1  0
 12 13  2  0
 13 14  1  0
 14 15  1  0
 15 16  2  0
 16  2  1  0
  9  7  1  0
 15 11  1  0
M  END
>  <energy_score>  (308) 
-51.89332

>  <alias>  (308) 
None

>  <HIPPO Pose ID>  (308) 
69100

>  <smiles>  (308) 
Clc1nc(NC[C@@H]2C[C@H]2Cl)c2ncsc2n1

>  <inchikey>  (308) 
HVSXVLYKMZYCPS-CRCLSJGQSA-N

>  <distance_score>  (308) 
1.095199

>  <ref_mols>  (308) 
Z1719a,Z0472a

>  <ref_pdb>  (308) 
Z0472a

>  <HIPPO Compound ID>  (308) 
138673

>  <name>  (308) 
P69100

>  <inspiration_score>  (308) 
None

$$$$
P69104
     RDKit          3D

 16 17  0  0  0  0  0  0  0  0999 V2000
   -2.6678    5.5289  -20.0708 N   0  0  0  0  0  0  0  0  0  0  0  0
   -2.9718    5.4897  -18.9516 C   0  0  0  0  0  0  0  0  0  0  0  0
   -3.2939    5.4620  -17.5319 C   0  0  0  0  0  0  0  0  0  0  0  0
   -3.9797    6.7585  -17.1048 C   0  0  0  0  0  0  0  0  0  0  0  0
   -4.2541    6.7856  -15.6173 C   0  0  0  0  0  0  0  0  0  0  0  0
   -4.5749    5.4603  -15.1179 N   0  0  0  0  0  0  0  0  0  0  0  0
   -5.9280    5.1160  -15.2476 C   0  0  0  0  0  0  0  0  0  0  0  0
   -6.5171    4.9098  -14.0624 N   0  0  0  0  0  0  0  0  0  0  0  0
   -7.8172    4.6012  -14.0553 C   0  0  0  0  0  0  0  0  0  0  0  0
   -8.4594    4.4357  -12.4884 Cl  0  0  0  0  0  0  0  0  0  0  0  0
   -8.6638    4.5009  -15.0808 N   0  0  0  0  0  0  0  0  0  0  0  0
   -8.0221    4.6298  -16.2529 C   0  0  0  0  0  0  0  0  0  0  0  0
   -8.8064    4.4244  -17.7533 S   0  0  0  0  0  0  0  0  0  0  0  0
   -7.3205    4.7412  -18.5470 C   0  0  0  0  0  0  0  0  0  0  0  0
   -6.2959    5.0312  -17.7702 N   0  0  0  0  0  0  0  0  0  0  0  0
   -6.6814    4.9407  -16.4358 C   0  0  0  0  0  0  0  0  0  0  0  0
  1  2  3  0
  2  3  1  0
  3  4  1  0
  4  5  1  0
  5  6  1  0
  6  7  1  0
  7  8  2  0
  8  9  1  0
  9 10  1  0
  9 11  2  0
 11 12  1  0
 12 13  1  0
 13 14  1  0
 14 15  2  0
 15 16  1  0
 16  7  1  0
 16 12  2  0
M  END
>  <energy_score>  (309) 
-47.405011

>  <alias>  (309) 
None

>  <HIPPO Pose ID>  (309) 
69104

>  <smiles>  (309) 
N#CCCCNc1nc(Cl)nc2scnc12

>  <inchikey>  (309) 
LWWSHSDATKYBSC-UHFFFAOYSA-N

>  <distance_score>  (309) 
1.137873

>  <ref_mols>  (309) 
Z1719a,Z0472a

>  <ref_pdb>  (309) 
Z0472a

>  <HIPPO Compound ID>  (309) 
138674

>  <name>  (309) 
P69104

>  <inspiration_score>  (309) 
None

$$$$
P69108
     RDKit          3D

 16 18  0  0  0  0  0  0  0  0999 V2000
   -6.5798    4.5761  -19.7784 C   0  0  0  0  0  0  0  0  0  0  0  0
   -6.8135    4.6337  -18.3255 C   0  0  0  0  0  0  0  0  0  0  0  0
   -5.8171    4.7315  -17.4785 N   0  0  0  0  0  0  0  0  0  0  0  0
   -6.3039    4.8236  -16.1877 C   0  0  0  0  0  0  0  0  0  0  0  0
   -5.5883    5.0031  -14.9789 C   0  0  0  0  0  0  0  0  0  0  0  0
   -4.2038    5.1968  -14.8423 N   0  0  0  0  0  0  0  0  0  0  0  0
   -3.3544    4.4136  -15.7165 C   0  0  0  0  0  0  0  0  0  0  0  0
   -2.3093    5.2751  -16.3582 C   0  0  1  0  0  0  0  0  0  0  0  0
   -2.1837    5.2722  -17.8704 C   0  0  0  0  0  0  0  0  0  0  0  0
   -2.5273    6.5410  -17.1539 C   0  0  1  0  0  0  0  0  0  0  0  0
   -4.2145    7.3232  -17.5017 Br  0  0  0  0  0  0  0  0  0  0  0  0
   -6.2949    5.0346  -13.8250 N   0  0  0  0  0  0  0  0  0  0  0  0
   -7.6365    4.9084  -13.8849 C   0  0  0  0  0  0  0  0  0  0  0  0
   -8.4157    4.7994  -14.9684 N   0  0  0  0  0  0  0  0  0  0  0  0
   -7.6840    4.7434  -16.0927 C   0  0  0  0  0  0  0  0  0  0  0  0
   -8.3819    4.5852  -17.6425 S   0  0  0  0  0  0  0  0  0  0  0  0
  1  2  1  0
  2  3  2  0
  3  4  1  0
  4  5  2  0
  5  6  1  0
  6  7  1  0
  8  7  1  6
  8  9  1  0
  9 10  1  0
 10 11  1  6
  5 12  1  0
 12 13  2  0
 13 14  1  0
 14 15  2  0
 15 16  1  0
 16  2  1  0
 15  4  1  0
 10  8  1  0
M  END
>  <energy_score>  (310) 
-60.005437

>  <alias>  (310) 
None

>  <HIPPO Pose ID>  (310) 
69108

>  <smiles>  (310) 
Cc1nc2c(NC[C@H]3C[C@H]3Br)ncnc2s1

>  <inchikey>  (310) 
KREXETPYUDSGFL-RNFRBKRXSA-N

>  <distance_score>  (310) 
1.107631

>  <ref_mols>  (310) 
Z1719a,Z0472a

>  <ref_pdb>  (310) 
Z0472a

>  <HIPPO Compound ID>  (310) 
138676

>  <name>  (310) 
P69108

>  <inspiration_score>  (310) 
None

$$$$
P69115
     RDKit          3D

 16 17  0  0  0  0  0  0  0  0999 V2000
   -6.7368    4.4825  -19.9205 C   0  0  0  0  0  0  0  0  0  0  0  0
   -7.0299    4.7718  -18.5112 C   0  0  0  0  0  0  0  0  0  0  0  0
   -6.0842    5.2200  -17.7236 N   0  0  0  0  0  0  0  0  0  0  0  0
   -6.5510    5.2248  -16.4332 C   0  0  0  0  0  0  0  0  0  0  0  0
   -5.8036    5.4725  -15.2730 C   0  0  0  0  0  0  0  0  0  0  0  0
   -4.4237    5.7290  -15.2984 N   0  0  0  0  0  0  0  0  0  0  0  0
   -3.6997    4.7175  -16.0648 C   0  0  2  0  0  0  0  0  0  0  0  0
   -2.9538    3.6915  -14.7939 Cl  0  0  0  0  0  0  0  0  0  0  0  0
   -2.6441    5.2997  -17.0202 C   0  0  1  0  0  0  0  0  0  0  0  0
   -3.2052    6.1103  -18.1823 C   0  0  0  0  0  0  0  0  0  0  0  0
   -1.4473    6.3072  -16.1439 Cl  0  0  0  0  0  0  0  0  0  0  0  0
   -6.4242    5.4123  -14.0789 N   0  0  0  0  0  0  0  0  0  0  0  0
   -7.7379    5.0948  -14.0658 C   0  0  0  0  0  0  0  0  0  0  0  0
   -8.5478    4.8422  -15.1068 N   0  0  0  0  0  0  0  0  0  0  0  0
   -7.8816    4.8927  -16.2715 C   0  0  0  0  0  0  0  0  0  0  0  0
   -8.5633    4.5080  -17.7883 S   0  0  0  0  0  0  0  0  0  0  0  0
  1  2  1  0
  2  3  2  0
  3  4  1  0
  4  5  2  0
  5  6  1  0
  6  7  1  0
  7  8  1  1
  7  9  1  0
  9 10  1  6
  9 11  1  0
  5 12  1  0
 12 13  2  0
 13 14  1  0
 14 15  2  0
 15 16  1  0
 16  2  1  0
 15  4  1  0
M  END
>  <energy_score>  (311) 
-54.41614

>  <alias>  (311) 
None

>  <HIPPO Pose ID>  (311) 
69115

>  <smiles>  (311) 
Cc1nc2c(N[C@H](Cl)[C@@H](C)Cl)ncnc2s1

>  <inchikey>  (311) 
QJKLTKGGVHJXOJ-FBCQKBJTSA-N

>  <distance_score>  (311) 
0.821336

>  <ref_mols>  (311) 
Z0472a,Z1719a

>  <ref_pdb>  (311) 
Z0472a

>  <HIPPO Compound ID>  (311) 
138678

>  <name>  (311) 
P69115

>  <inspiration_score>  (311) 
None

$$$$
P69119
     RDKit          3D

 16 17  0  0  0  0  0  0  0  0999 V2000
   -2.1665    5.6078  -18.7107 C   0  0  0  0  0  0  0  0  0  0  0  0
   -3.4610    5.5802  -17.9078 C   0  0  2  0  0  0  0  0  0  0  0  0
   -4.1211    7.2431  -17.8436 Cl  0  0  0  0  0  0  0  0  0  0  0  0
   -3.3699    4.9252  -16.5149 C   0  0  1  0  0  0  0  0  0  0  0  0
   -1.8486    5.3755  -15.6561 Cl  0  0  0  0  0  0  0  0  0  0  0  0
   -4.3639    5.3374  -15.5465 N   0  0  0  0  0  0  0  0  0  0  0  0
   -5.7019    5.0040  -15.5653 C   0  0  0  0  0  0  0  0  0  0  0  0
   -6.2450    4.9353  -14.3308 N   0  0  0  0  0  0  0  0  0  0  0  0
   -7.5617    4.7061  -14.2201 C   0  0  0  0  0  0  0  0  0  0  0  0
   -8.1492    4.6646  -12.6191 Cl  0  0  0  0  0  0  0  0  0  0  0  0
   -8.4731    4.5786  -15.1833 N   0  0  0  0  0  0  0  0  0  0  0  0
   -7.8983    4.6088  -16.3941 C   0  0  0  0  0  0  0  0  0  0  0  0
   -8.8043    4.4144  -17.8257 S   0  0  0  0  0  0  0  0  0  0  0  0
   -7.3615    4.5921  -18.7277 C   0  0  0  0  0  0  0  0  0  0  0  0
   -6.2613    4.8018  -18.0359 N   0  0  0  0  0  0  0  0  0  0  0  0
   -6.5523    4.8058  -16.6801 C   0  0  0  0  0  0  0  0  0  0  0  0
  2  1  1  1
  2  3  1  0
  2  4  1  0
  4  5  1  1
  4  6  1  0
  6  7  1  0
  7  8  2  0
  8  9  1  0
  9 10  1  0
  9 11  2  0
 11 12  1  0
 12 13  1  0
 13 14  1  0
 14 15  2  0
 15 16  1  0
 16  7  1  0
 16 12  2  0
M  END
>  <energy_score>  (312) 
-69.329953

>  <alias>  (312) 
None

>  <HIPPO Pose ID>  (312) 
69119

>  <smiles>  (312) 
C[C@H](Cl)[C@@H](Cl)Nc1nc(Cl)nc2scnc12

>  <inchikey>  (312) 
BIPPCZIIYVXEND-UCORVYFPSA-N

>  <distance_score>  (312) 
0.932638

>  <ref_mols>  (312) 
Z1719a,Z0472a

>  <ref_pdb>  (312) 
Z0472a

>  <HIPPO Compound ID>  (312) 
138679

>  <name>  (312) 
P69119

>  <inspiration_score>  (312) 
None

$$$$
P69121
     RDKit          3D

 16 17  0  0  0  0  0  0  0  0999 V2000
   -2.2851    5.6697  -19.5348 C   0  0  0  0  0  0  0  0  0  0  0  0
   -2.9139    4.7636  -18.4885 C   0  0  0  0  0  0  0  0  0  0  0  0
   -2.6155    5.2577  -17.0872 C   0  0  0  0  0  0  0  0  0  0  0  0
   -3.2677    4.3605  -16.0330 C   0  0  0  0  0  0  0  0  0  0  0  0
   -3.6027    5.1180  -14.7545 C   0  0  0  0  0  0  0  0  0  0  0  0
   -4.6417    6.1266  -14.9985 N   0  0  0  0  0  0  0  0  0  0  0  0
   -5.9256    5.5434  -15.0417 C   0  0  0  0  0  0  0  0  0  0  0  0
   -6.5342    5.1767  -13.8944 N   0  0  0  0  0  0  0  0  0  0  0  0
   -7.7828    4.6745  -13.9684 C   0  0  0  0  0  0  0  0  0  0  0  0
   -8.5380    4.4893  -15.0598 N   0  0  0  0  0  0  0  0  0  0  0  0
   -7.8640    4.7790  -16.1813 C   0  0  0  0  0  0  0  0  0  0  0  0
   -8.4724    4.4841  -17.7430 S   0  0  0  0  0  0  0  0  0  0  0  0
   -6.9527    4.9606  -18.3878 C   0  0  0  0  0  0  0  0  0  0  0  0
   -6.5956    4.6947  -19.7950 C   0  0  0  0  0  0  0  0  0  0  0  0
   -6.1113    5.5192  -17.5414 N   0  0  0  0  0  0  0  0  0  0  0  0
   -6.5936    5.3176  -16.2610 C   0  0  0  0  0  0  0  0  0  0  0  0
  1  2  1  0
  2  3  1  0
  3  4  1  0
  4  5  1  0
  5  6  1  0
  6  7  1  0
  7  8  2  0
  8  9  1  0
  9 10  2  0
 10 11  1  0
 11 12  1  0
 12 13  1  0
 13 14  1  0
 13 15  2  0
 15 16  1  0
 16  7  1  0
 16 11  2  0
M  END
>  <energy_score>  (313) 
-215.157225

>  <alias>  (313) 
None

>  <HIPPO Pose ID>  (313) 
69121

>  <smiles>  (313) 
CCCCCNc1ncnc2sc(C)nc12

>  <inchikey>  (313) 
JOBNTVOYHIMCCC-UHFFFAOYSA-N

>  <distance_score>  (313) 
1.214068

>  <ref_mols>  (313) 
Z0472a,Z1719a

>  <ref_pdb>  (313) 
Z0472a

>  <HIPPO Compound ID>  (313) 
138680

>  <name>  (313) 
P69121

>  <inspiration_score>  (313) 
None

$$$$
P69124
     RDKit          3D

 16 18  0  0  0  0  0  0  0  0999 V2000
   -7.9926    4.8700  -12.7627 Cl  0  0  0  0  0  0  0  0  0  0  0  0
   -7.3912    5.0121  -14.3555 C   0  0  0  0  0  0  0  0  0  0  0  0
   -6.1139    5.4245  -14.4491 N   0  0  0  0  0  0  0  0  0  0  0  0
   -5.5697    5.5165  -15.6801 C   0  0  0  0  0  0  0  0  0  0  0  0
   -4.2311    5.9622  -15.7276 N   0  0  0  0  0  0  0  0  0  0  0  0
   -3.3504    5.0010  -16.3889 C   0  0  0  0  0  0  0  0  0  0  0  0
   -2.6146    5.5952  -17.5697 C   0  0  0  0  0  0  0  0  0  0  0  0
   -2.7782    4.7950  -18.8658 C   0  0  0  0  0  0  0  0  0  0  0  0
   -2.7478    6.0225  -19.6472 O   0  0  0  0  0  0  0  0  0  0  0  0
   -3.1492    6.7469  -18.4407 C   0  0  0  0  0  0  0  0  0  0  0  0
   -6.3641    5.1775  -16.8019 C   0  0  0  0  0  0  0  0  0  0  0  0
   -6.0219    5.1619  -18.1465 N   0  0  0  0  0  0  0  0  0  0  0  0
   -7.0658    4.7786  -18.8532 C   0  0  0  0  0  0  0  0  0  0  0  0
   -8.5108    4.4730  -17.9804 S   0  0  0  0  0  0  0  0  0  0  0  0
   -7.6752    4.8093  -16.5338 C   0  0  0  0  0  0  0  0  0  0  0  0
   -8.2585    4.7258  -15.3287 N   0  0  0  0  0  0  0  0  0  0  0  0
  1  2  1  0
  2  3  2  0
  3  4  1  0
  4  5  1  0
  5  6  1  0
  6  7  1  0
  7  8  1  0
  8  9  1  0
  9 10  1  0
  4 11  2  0
 11 12  1  0
 12 13  2  0
 13 14  1  0
 14 15  1  0
 15 16  2  0
 16  2  1  0
 10  7  1  0
 15 11  1  0
M  END
>  <energy_score>  (314) 
-84.005956

>  <alias>  (314) 
None

>  <HIPPO Pose ID>  (314) 
69124

>  <smiles>  (314) 
Clc1nc(NCC2COC2)c2ncsc2n1

>  <inchikey>  (314) 
WDHQTIBYNRAYAX-UHFFFAOYSA-N

>  <distance_score>  (314) 
0.90329

>  <ref_mols>  (314) 
Z1719a,Z0472a

>  <ref_pdb>  (314) 
Z0472a

>  <HIPPO Compound ID>  (314) 
138683

>  <name>  (314) 
P69124

>  <inspiration_score>  (314) 
None

$$$$
P69125
     RDKit          3D

 16 17  0  0  0  0  0  0  0  0999 V2000
   -6.8118    4.4411  -19.9126 C   0  0  0  0  0  0  0  0  0  0  0  0
   -6.9970    4.6926  -18.4789 C   0  0  0  0  0  0  0  0  0  0  0  0
   -5.9831    5.0599  -17.7366 N   0  0  0  0  0  0  0  0  0  0  0  0
   -6.3851    5.1206  -16.4234 C   0  0  0  0  0  0  0  0  0  0  0  0
   -5.5868    5.4034  -15.3011 C   0  0  0  0  0  0  0  0  0  0  0  0
   -4.2213    5.6990  -15.3633 N   0  0  0  0  0  0  0  0  0  0  0  0
   -3.4589    4.9320  -16.3287 C   0  0  2  0  0  0  0  0  0  0  0  0
   -2.2955    4.5181  -15.6338 O   0  0  0  0  0  0  0  0  0  0  0  0
   -3.1181    5.7824  -17.5846 C   0  0  1  0  0  0  0  0  0  0  0  0
   -1.9844    6.7705  -17.3812 C   0  0  0  0  0  0  0  0  0  0  0  0
   -2.6638    4.7405  -19.0262 S   0  0  0  0  0  0  0  0  0  0  0  0
   -6.1690    5.3845  -14.0832 N   0  0  0  0  0  0  0  0  0  0  0  0
   -7.4885    5.1005  -14.0090 C   0  0  0  0  0  0  0  0  0  0  0  0
   -8.3465    4.8545  -15.0108 N   0  0  0  0  0  0  0  0  0  0  0  0
   -7.7233    4.8530  -16.1996 C   0  0  0  0  0  0  0  0  0  0  0  0
   -8.5007    4.5059  -17.6785 S   0  0  0  0  0  0  0  0  0  0  0  0
  1  2  1  0
  2  3  2  0
  3  4  1  0
  4  5  2  0
  5  6  1  0
  6  7  1  0
  7  8  1  1
  7  9  1  0
  9 10  1  1
  9 11  1  0
  5 12  1  0
 12 13  2  0
 13 14  1  0
 14 15  2  0
 15 16  1  0
 16  2  1  0
 15  4  1  0
M  END
>  <energy_score>  (315) 
-69.893469

>  <alias>  (315) 
None

>  <HIPPO Pose ID>  (315) 
69125

>  <smiles>  (315) 
Cc1nc2c(N[C@H](O)[C@@H](C)S)ncnc2s1

>  <inchikey>  (315) 
ZPSSIJHWIKLSNS-SPGJFGJESA-N

>  <distance_score>  (315) 
0.822174

>  <ref_mols>  (315) 
Z0472a,Z1719a

>  <ref_pdb>  (315) 
Z0472a

>  <HIPPO Compound ID>  (315) 
138684

>  <name>  (315) 
P69125

>  <inspiration_score>  (315) 
None

$$$$
P69130
     RDKit          3D

 16 17  0  0  0  0  0  0  0  0999 V2000
   -3.3763    7.2160  -18.2267 C   0  0  0  0  0  0  0  0  0  0  0  0
   -2.6157    5.9568  -17.8452 C   0  0  2  0  0  0  0  0  0  0  0  0
   -2.4617    4.8950  -19.3422 S   0  0  0  0  0  0  0  0  0  0  0  0
   -3.0721    5.2284  -16.5483 C   0  0  2  0  0  0  0  0  0  0  0  0
   -3.3905    3.8734  -16.7508 O   0  0  0  0  0  0  0  0  0  0  0  0
   -4.0864    5.8964  -15.7514 N   0  0  0  0  0  0  0  0  0  0  0  0
   -5.4121    5.4558  -15.7505 C   0  0  0  0  0  0  0  0  0  0  0  0
   -5.9975    5.4125  -14.5312 N   0  0  0  0  0  0  0  0  0  0  0  0
   -7.2865    5.0358  -14.4557 C   0  0  0  0  0  0  0  0  0  0  0  0
   -7.9331    4.9513  -12.8758 Cl  0  0  0  0  0  0  0  0  0  0  0  0
   -8.1416    4.7714  -15.4443 N   0  0  0  0  0  0  0  0  0  0  0  0
   -7.5245    4.8085  -16.6346 C   0  0  0  0  0  0  0  0  0  0  0  0
   -8.3479    4.5111  -18.0955 S   0  0  0  0  0  0  0  0  0  0  0  0
   -6.8693    4.7237  -18.9400 C   0  0  0  0  0  0  0  0  0  0  0  0
   -5.8113    5.0261  -18.2122 N   0  0  0  0  0  0  0  0  0  0  0  0
   -6.1903    5.1082  -16.8783 C   0  0  0  0  0  0  0  0  0  0  0  0
  2  1  1  6
  2  3  1  0
  2  4  1  0
  4  5  1  6
  4  6  1  0
  6  7  1  0
  7  8  2  0
  8  9  1  0
  9 10  1  0
  9 11  2  0
 11 12  1  0
 12 13  1  0
 13 14  1  0
 14 15  2  0
 15 16  1  0
 16  7  1  0
 16 12  2  0
M  END
>  <energy_score>  (316) 
-85.519599

>  <alias>  (316) 
None

>  <HIPPO Pose ID>  (316) 
69130

>  <smiles>  (316) 
C[C@H](S)[C@H](O)Nc1nc(Cl)nc2scnc12

>  <inchikey>  (316) 
ICWQRXZKHYTBLH-DZSWIPIPSA-N

>  <distance_score>  (316) 
0.865452

>  <ref_mols>  (316) 
Z0472a,Z1719a

>  <ref_pdb>  (316) 
Z0472a

>  <HIPPO Compound ID>  (316) 
138685

>  <name>  (316) 
P69130

>  <inspiration_score>  (316) 
None

$$$$
P69133
     RDKit          3D

 16 17  0  0  0  0  0  0  0  0999 V2000
   -1.0587    5.6667  -15.7000 C   0  0  0  0  0  0  0  0  0  0  0  0
   -2.2736    5.0844  -15.7207 C   0  0  0  0  0  0  0  0  0  0  0  0
   -2.6336    4.0534  -14.6828 C   0  0  0  0  0  0  0  0  0  0  0  0
   -3.3912    5.3653  -16.6968 C   0  0  2  0  0  0  0  0  0  0  0  0
   -2.8267    6.0787  -18.2370 Cl  0  0  0  0  0  0  0  0  0  0  0  0
   -4.2402    6.3876  -16.0922 N   0  0  0  0  0  0  0  0  0  0  0  0
   -5.4868    5.8397  -15.7124 C   0  0  0  0  0  0  0  0  0  0  0  0
   -5.8552    5.7012  -14.4221 N   0  0  0  0  0  0  0  0  0  0  0  0
   -7.0875    5.2010  -14.1643 C   0  0  0  0  0  0  0  0  0  0  0  0
   -8.0377    4.8173  -15.0375 N   0  0  0  0  0  0  0  0  0  0  0  0
   -7.6039    4.9277  -16.3029 C   0  0  0  0  0  0  0  0  0  0  0  0
   -8.4694    4.4261  -17.6843 S   0  0  0  0  0  0  0  0  0  0  0  0
   -7.0852    4.7950  -18.6326 C   0  0  0  0  0  0  0  0  0  0  0  0
   -6.9025    4.3522  -20.0138 C   0  0  0  0  0  0  0  0  0  0  0  0
   -6.1290    5.4608  -18.0384 N   0  0  0  0  0  0  0  0  0  0  0  0
   -6.3855    5.4376  -16.6996 C   0  0  0  0  0  0  0  0  0  0  0  0
  1  2  2  0
  2  3  1  0
  2  4  1  0
  4  5  1  6
  4  6  1  0
  6  7  1  0
  7  8  2  0
  8  9  1  0
  9 10  2  0
 10 11  1  0
 11 12  1  0
 12 13  1  0
 13 14  1  0
 13 15  2  0
 15 16  1  0
 16  7  1  0
 16 11  2  0
M  END
>  <energy_score>  (317) 
-52.109037

>  <alias>  (317) 
None

>  <HIPPO Pose ID>  (317) 
69133

>  <smiles>  (317) 
C=C(C)[C@H](Cl)Nc1ncnc2sc(C)nc12

>  <inchikey>  (317) 
XPTPWFXEJIVOSI-MRVPVSSYSA-N

>  <distance_score>  (317) 
0.711456

>  <ref_mols>  (317) 
Z1719a,Z0472a

>  <ref_pdb>  (317) 
Z0472a

>  <HIPPO Compound ID>  (317) 
138686

>  <name>  (317) 
P69133

>  <inspiration_score>  (317) 
None

$$$$
P69135
     RDKit          3D

 16 17  0  0  0  0  0  0  0  0999 V2000
   -1.3022    5.3522  -15.6719 C   0  0  0  0  0  0  0  0  0  0  0  0
   -2.5003    4.7637  -15.8604 C   0  0  0  0  0  0  0  0  0  0  0  0
   -2.9407    3.6451  -14.9440 C   0  0  0  0  0  0  0  0  0  0  0  0
   -3.5465    5.1863  -16.8790 C   0  0  2  0  0  0  0  0  0  0  0  0
   -2.8713    6.0741  -18.2684 Cl  0  0  0  0  0  0  0  0  0  0  0  0
   -4.4338    6.1047  -16.1866 N   0  0  0  0  0  0  0  0  0  0  0  0
   -5.7189    5.5886  -15.9867 C   0  0  0  0  0  0  0  0  0  0  0  0
   -6.1757    5.5537  -14.7174 N   0  0  0  0  0  0  0  0  0  0  0  0
   -7.4237    5.0923  -14.5128 C   0  0  0  0  0  0  0  0  0  0  0  0
   -7.9112    4.9996  -12.8776 Cl  0  0  0  0  0  0  0  0  0  0  0  0
   -8.3401    4.7235  -15.4105 N   0  0  0  0  0  0  0  0  0  0  0  0
   -7.8380    4.7571  -16.6540 C   0  0  0  0  0  0  0  0  0  0  0  0
   -8.7484    4.3355  -18.0293 S   0  0  0  0  0  0  0  0  0  0  0  0
   -7.3506    4.5898  -18.9937 C   0  0  0  0  0  0  0  0  0  0  0  0
   -6.2785    5.0416  -18.3780 N   0  0  0  0  0  0  0  0  0  0  0  0
   -6.5592    5.1428  -17.0255 C   0  0  0  0  0  0  0  0  0  0  0  0
  1  2  2  0
  2  3  1  0
  2  4  1  0
  4  5  1  6
  4  6  1  0
  6  7  1  0
  7  8  2  0
  8  9  1  0
  9 10  1  0
  9 11  2  0
 11 12  1  0
 12 13  1  0
 13 14  1  0
 14 15  2  0
 15 16  1  0
 16  7  1  0
 16 12  2  0
M  END
>  <energy_score>  (318) 
-72.345735

>  <alias>  (318) 
None

>  <HIPPO Pose ID>  (318) 
69135

>  <smiles>  (318) 
C=C(C)[C@H](Cl)Nc1nc(Cl)nc2scnc12

>  <inchikey>  (318) 
YPUOOJLQWIRNKO-ZCFIWIBFSA-N

>  <distance_score>  (318) 
0.709539

>  <ref_mols>  (318) 
Z0472a,Z1719a

>  <ref_pdb>  (318) 
Z0472a

>  <HIPPO Compound ID>  (318) 
138687

>  <name>  (318) 
P69135

>  <inspiration_score>  (318) 
None

$$$$
P69140
     RDKit          3D

 16 17  0  0  0  0  0  0  0  0999 V2000
   -3.6315    5.7273  -19.6349 C   0  0  0  0  0  0  0  0  0  0  0  0
   -2.7617    5.7620  -18.3743 C   0  0  0  0  0  0  0  0  0  0  0  0
   -2.1378    7.1540  -18.2170 C   0  0  0  0  0  0  0  0  0  0  0  0
   -3.5374    5.2633  -17.1259 C   0  0  1  0  0  0  0  0  0  0  0  0
   -2.4068    5.0350  -15.7646 Cl  0  0  0  0  0  0  0  0  0  0  0  0
   -4.5269    6.2408  -16.6631 N   0  0  0  0  0  0  0  0  0  0  0  0
   -5.6834    5.5861  -16.1697 C   0  0  0  0  0  0  0  0  0  0  0  0
   -5.9081    5.4811  -14.8428 N   0  0  0  0  0  0  0  0  0  0  0  0
   -7.0973    4.9837  -14.4469 C   0  0  0  0  0  0  0  0  0  0  0  0
   -7.3411    4.8772  -12.7580 Cl  0  0  0  0  0  0  0  0  0  0  0  0
   -8.1458    4.6108  -15.1893 N   0  0  0  0  0  0  0  0  0  0  0  0
   -7.8570    4.6798  -16.4952 C   0  0  0  0  0  0  0  0  0  0  0  0
   -8.9528    4.2388  -17.7195 S   0  0  0  0  0  0  0  0  0  0  0  0
   -7.7274    4.5515  -18.8809 C   0  0  0  0  0  0  0  0  0  0  0  0
   -6.6105    5.0923  -18.4378 N   0  0  0  0  0  0  0  0  0  0  0  0
   -6.6763    5.1305  -17.0576 C   0  0  0  0  0  0  0  0  0  0  0  0
  1  2  1  0
  2  3  1  0
  2  4  1  0
  4  5  1  1
  4  6  1  0
  6  7  1  0
  7  8  2  0
  8  9  1  0
  9 10  1  0
  9 11  2  0
 11 12  1  0
 12 13  1  0
 13 14  1  0
 14 15  2  0
 15 16  1  0
 16  7  1  0
 16 12  2  0
M  END
>  <energy_score>  (319) 
-64.988431

>  <alias>  (319) 
None

>  <HIPPO Pose ID>  (319) 
69140

>  <smiles>  (319) 
CC(C)[C@@H](Cl)Nc1nc(Cl)nc2scnc12

>  <inchikey>  (319) 
YTYDNVCURLNAGT-LURJTMIESA-N

>  <distance_score>  (319) 
0.66665

>  <ref_mols>  (319) 
Z0472a,Z1719a

>  <ref_pdb>  (319) 
Z0472a

>  <HIPPO Compound ID>  (319) 
138689

>  <name>  (319) 
P69140

>  <inspiration_score>  (319) 
None

$$$$
P69142
     RDKit          3D

 16 17  0  0  0  0  0  0  0  0999 V2000
   -6.8745    4.3786  -19.9926 C   0  0  0  0  0  0  0  0  0  0  0  0
   -7.0856    4.8293  -18.6167 C   0  0  0  0  0  0  0  0  0  0  0  0
   -6.1592    5.5318  -18.0158 N   0  0  0  0  0  0  0  0  0  0  0  0
   -6.4129    5.4785  -16.6759 C   0  0  0  0  0  0  0  0  0  0  0  0
   -5.5284    5.8909  -15.6788 C   0  0  0  0  0  0  0  0  0  0  0  0
   -4.2954    6.4856  -16.0401 N   0  0  0  0  0  0  0  0  0  0  0  0
   -3.4196    5.4930  -16.6740 C   0  0  1  0  0  0  0  0  0  0  0  0
   -2.8240    6.3274  -18.1494 Cl  0  0  0  0  0  0  0  0  0  0  0  0
   -2.2463    5.2010  -15.7583 C   0  0  0  0  0  0  0  0  0  0  0  0
   -2.6470    4.2087  -14.6871 C   0  0  0  0  0  0  0  0  0  0  0  0
   -3.0336    3.0481  -15.2811 F   0  0  0  0  0  0  0  0  0  0  0  0
   -5.8899    5.7195  -14.3912 N   0  0  0  0  0  0  0  0  0  0  0  0
   -7.1080    5.1783  -14.1446 C   0  0  0  0  0  0  0  0  0  0  0  0
   -8.0476    4.7862  -15.0252 N   0  0  0  0  0  0  0  0  0  0  0  0
   -7.6160    4.9266  -16.2883 C   0  0  0  0  0  0  0  0  0  0  0  0
   -8.4646    4.4182  -17.6776 S   0  0  0  0  0  0  0  0  0  0  0  0
  1  2  1  0
  2  3  2  0
  3  4  1  0
  4  5  2  0
  5  6  1  0
  6  7  1  0
  7  8  1  6
  7  9  1  0
  9 10  1  0
 10 11  1  0
  5 12  1  0
 12 13  2  0
 13 14  1  0
 14 15  2  0
 15 16  1  0
 16  2  1  0
 15  4  1  0
M  END
>  <energy_score>  (320) 
-65.288792

>  <alias>  (320) 
None

>  <HIPPO Pose ID>  (320) 
69142

>  <smiles>  (320) 
Cc1nc2c(N[C@@H](Cl)CCF)ncnc2s1

>  <inchikey>  (320) 
POCGVJUSQJUEIQ-ZCFIWIBFSA-N

>  <distance_score>  (320) 
0.731336

>  <ref_mols>  (320) 
Z1719a,Z0472a

>  <ref_pdb>  (320) 
Z0472a

>  <HIPPO Compound ID>  (320) 
138690

>  <name>  (320) 
P69142

>  <inspiration_score>  (320) 
None

$$$$
P69143
     RDKit          3D

 16 17  0  0  0  0  0  0  0  0999 V2000
   -1.6385    4.2828  -19.3811 C   0  0  0  0  0  0  0  0  0  0  0  0
   -2.8100    4.6202  -18.4620 C   0  0  0  0  0  0  0  0  0  0  0  0
   -2.6780    5.9993  -17.7956 C   0  0  1  0  0  0  0  0  0  0  0  0
   -2.4410    7.0887  -18.8430 C   0  0  0  0  0  0  0  0  0  0  0  0
   -3.8975    6.4106  -16.9571 C   0  0  0  0  0  0  0  0  0  0  0  0
   -4.2184    5.4093  -15.9517 N   0  0  0  0  0  0  0  0  0  0  0  0
   -5.5813    5.1190  -15.8130 C   0  0  0  0  0  0  0  0  0  0  0  0
   -6.0434    5.0341  -14.5465 N   0  0  0  0  0  0  0  0  0  0  0  0
   -7.3491    4.7627  -14.3711 C   0  0  0  0  0  0  0  0  0  0  0  0
   -7.8672    4.7077  -12.7424 Cl  0  0  0  0  0  0  0  0  0  0  0  0
   -8.3113    4.6121  -15.2850 N   0  0  0  0  0  0  0  0  0  0  0  0
   -7.8028    4.6515  -16.5257 C   0  0  0  0  0  0  0  0  0  0  0  0
   -8.7602    4.4044  -17.9142 S   0  0  0  0  0  0  0  0  0  0  0  0
   -7.3558    4.5906  -18.8798 C   0  0  0  0  0  0  0  0  0  0  0  0
   -6.2438    4.9007  -18.2493 N   0  0  0  0  0  0  0  0  0  0  0  0
   -6.4839    4.8951  -16.8803 C   0  0  0  0  0  0  0  0  0  0  0  0
  1  2  1  0
  2  3  1  0
  3  4  1  6
  3  5  1  0
  5  6  1  0
  6  7  1  0
  7  8  2  0
  8  9  1  0
  9 10  1  0
  9 11  2  0
 11 12  1  0
 12 13  1  0
 13 14  1  0
 14 15  2  0
 15 16  1  0
 16  7  1  0
 16 12  2  0
M  END
>  <energy_score>  (321) 
-46.475646

>  <alias>  (321) 
None

>  <HIPPO Pose ID>  (321) 
69143

>  <smiles>  (321) 
CC[C@@H](C)CNc1nc(Cl)nc2scnc12

>  <inchikey>  (321) 
OSESNEBNLQVEOK-ZCFIWIBFSA-N

>  <distance_score>  (321) 
0.888374

>  <ref_mols>  (321) 
Z1719a,Z0472a

>  <ref_pdb>  (321) 
Z0472a

>  <HIPPO Compound ID>  (321) 
138691

>  <name>  (321) 
P69143

>  <inspiration_score>  (321) 
None

$$$$
P69146
     RDKit          3D

 16 17  0  0  0  0  0  0  0  0999 V2000
   -6.8398    4.3832  -20.0163 C   0  0  0  0  0  0  0  0  0  0  0  0
   -7.0395    4.7888  -18.6255 C   0  0  0  0  0  0  0  0  0  0  0  0
   -6.0788    5.4094  -17.9866 N   0  0  0  0  0  0  0  0  0  0  0  0
   -6.4010    5.4009  -16.6536 C   0  0  0  0  0  0  0  0  0  0  0  0
   -5.5595    5.8049  -15.6148 C   0  0  0  0  0  0  0  0  0  0  0  0
   -4.2921    6.3532  -15.8876 N   0  0  0  0  0  0  0  0  0  0  0  0
   -3.4561    5.4353  -16.6444 C   0  0  1  0  0  0  0  0  0  0  0  0
   -3.3768    5.9330  -17.9700 O   0  0  0  0  0  0  0  0  0  0  0  0
   -2.0674    5.4486  -16.0237 C   0  0  0  0  0  0  0  0  0  0  0  0
   -2.0971    4.7701  -14.6589 C   0  0  0  0  0  0  0  0  0  0  0  0
   -0.4505    4.8329  -13.8823 S   0  0  0  0  0  0  0  0  0  0  0  0
   -5.9971    5.6676  -14.3466 N   0  0  0  0  0  0  0  0  0  0  0  0
   -7.2419    5.1744  -14.1524 C   0  0  0  0  0  0  0  0  0  0  0  0
   -8.1474    4.8071  -15.0758 N   0  0  0  0  0  0  0  0  0  0  0  0
   -7.6472    4.9117  -16.3165 C   0  0  0  0  0  0  0  0  0  0  0  0
   -8.4641    4.4377  -17.7346 S   0  0  0  0  0  0  0  0  0  0  0  0
  1  2  1  0
  2  3  2  0
  3  4  1  0
  4  5  2  0
  5  6  1  0
  6  7  1  0
  7  8  1  6
  7  9  1  0
  9 10  1  0
 10 11  1  0
  5 12  1  0
 12 13  2  0
 13 14  1  0
 14 15  2  0
 15 16  1  0
 16  2  1  0
 15  4  1  0
M  END
>  <energy_score>  (322) 
-68.097923

>  <alias>  (322) 
None

>  <HIPPO Pose ID>  (322) 
69146

>  <smiles>  (322) 
Cc1nc2c(N[C@@H](O)CCS)ncnc2s1

>  <inchikey>  (322) 
NEBAUCMDWCJQCV-LURJTMIESA-N

>  <distance_score>  (322) 
0.762503

>  <ref_mols>  (322) 
Z1719a,Z0472a

>  <ref_pdb>  (322) 
Z0472a

>  <HIPPO Compound ID>  (322) 
138692

>  <name>  (322) 
P69146

>  <inspiration_score>  (322) 
None

$$$$
P69147
     RDKit          3D

 16 17  0  0  0  0  0  0  0  0999 V2000
   -2.1524    5.0753  -16.5772 O   0  0  0  0  0  0  0  0  0  0  0  0
   -3.4287    5.2665  -17.1574 C   0  0  2  0  0  0  0  0  0  0  0  0
   -3.3179    6.1425  -18.4159 C   0  0  0  0  0  0  0  0  0  0  0  0
   -2.1729    7.1531  -18.4759 C   0  0  0  0  0  0  0  0  0  0  0  0
   -2.1629    8.3670  -17.1237 S   0  0  0  0  0  0  0  0  0  0  0  0
   -4.2227    5.8880  -16.1229 N   0  0  0  0  0  0  0  0  0  0  0  0
   -5.5450    5.4396  -15.9873 C   0  0  0  0  0  0  0  0  0  0  0  0
   -6.0077    5.3665  -14.7175 N   0  0  0  0  0  0  0  0  0  0  0  0
   -7.2844    4.9856  -14.5271 C   0  0  0  0  0  0  0  0  0  0  0  0
   -7.7894    4.8974  -12.8958 Cl  0  0  0  0  0  0  0  0  0  0  0  0
   -8.2216    4.7097  -15.4349 N   0  0  0  0  0  0  0  0  0  0  0  0
   -7.7150    4.7527  -16.6761 C   0  0  0  0  0  0  0  0  0  0  0  0
   -8.6474    4.3969  -18.0560 S   0  0  0  0  0  0  0  0  0  0  0  0
   -7.2464    4.6203  -19.0205 C   0  0  0  0  0  0  0  0  0  0  0  0
   -6.1604    5.0326  -18.4010 N   0  0  0  0  0  0  0  0  0  0  0  0
   -6.4181    5.0890  -17.0400 C   0  0  0  0  0  0  0  0  0  0  0  0
  2  1  1  1
  2  3  1  0
  3  4  1  0
  4  5  1  0
  2  6  1  0
  6  7  1  0
  7  8  2  0
  8  9  1  0
  9 10  1  0
  9 11  2  0
 11 12  1  0
 12 13  1  0
 13 14  1  0
 14 15  2  0
 15 16  1  0
 16  7  1  0
 16 12  2  0
M  END
>  <energy_score>  (323) 
-69.367034

>  <alias>  (323) 
None

>  <HIPPO Pose ID>  (323) 
69147

>  <smiles>  (323) 
O[C@H](CCS)Nc1nc(Cl)nc2scnc12

>  <inchikey>  (323) 
OUSFFEMWGFUYNZ-SCSAIBSYSA-N

>  <distance_score>  (323) 
0.501098

>  <ref_mols>  (323) 
Z1719a,Z0472a

>  <ref_pdb>  (323) 
Z0472a

>  <HIPPO Compound ID>  (323) 
138693

>  <name>  (323) 
P69147

>  <inspiration_score>  (323) 
None

$$$$
P69150
     RDKit          3D

 16 17  0  0  0  0  0  0  0  0999 V2000
   -6.8378    4.3957  -20.0049 C   0  0  0  0  0  0  0  0  0  0  0  0
   -7.0575    4.8184  -18.6222 C   0  0  0  0  0  0  0  0  0  0  0  0
   -6.1228    5.4853  -17.9963 N   0  0  0  0  0  0  0  0  0  0  0  0
   -6.4163    5.4611  -16.6647 C   0  0  0  0  0  0  0  0  0  0  0  0
   -5.5606    5.8849  -15.6468 C   0  0  0  0  0  0  0  0  0  0  0  0
   -4.3174    6.4806  -15.9661 N   0  0  0  0  0  0  0  0  0  0  0  0
   -3.4266    5.5189  -16.6111 C   0  0  1  0  0  0  0  0  0  0  0  0
   -2.9378    6.3181  -18.1440 Cl  0  0  0  0  0  0  0  0  0  0  0  0
   -2.1834    5.2943  -15.7640 C   0  0  0  0  0  0  0  0  0  0  0  0
   -2.4403    4.3715  -14.5803 C   0  0  0  0  0  0  0  0  0  0  0  0
   -2.9128    5.2442  -13.1053 Cl  0  0  0  0  0  0  0  0  0  0  0  0
   -5.9697    5.7302  -14.3720 N   0  0  0  0  0  0  0  0  0  0  0  0
   -7.1975    5.2060  -14.1521 C   0  0  0  0  0  0  0  0  0  0  0  0
   -8.1079    4.8022  -15.0558 N   0  0  0  0  0  0  0  0  0  0  0  0
   -7.6375    4.9276  -16.3064 C   0  0  0  0  0  0  0  0  0  0  0  0
   -8.4592    4.4229  -17.7132 S   0  0  0  0  0  0  0  0  0  0  0  0
  1  2  1  0
  2  3  2  0
  3  4  1  0
  4  5  2  0
  5  6  1  0
  6  7  1  0
  7  8  1  6
  7  9  1  0
  9 10  1  0
 10 11  1  0
  5 12  1  0
 12 13  2  0
 13 14  1  0
 14 15  2  0
 15 16  1  0
 16  2  1  0
 15  4  1  0
M  END
>  <energy_score>  (324) 
-69.510789

>  <alias>  (324) 
None

>  <HIPPO Pose ID>  (324) 
69150

>  <smiles>  (324) 
Cc1nc2c(N[C@@H](Cl)CCCl)ncnc2s1

>  <inchikey>  (324) 
UTMYYIBPUBFNGN-ZCFIWIBFSA-N

>  <distance_score>  (324) 
0.747367

>  <ref_mols>  (324) 
Z1719a,Z0472a

>  <ref_pdb>  (324) 
Z0472a

>  <HIPPO Compound ID>  (324) 
138694

>  <name>  (324) 
P69150

>  <inspiration_score>  (324) 
None

$$$$
P69152
     RDKit          3D

 16 17  0  0  0  0  0  0  0  0999 V2000
   -2.7316    8.7091  -19.4426 Cl  0  0  0  0  0  0  0  0  0  0  0  0
   -2.8886    7.6792  -17.9916 C   0  0  0  0  0  0  0  0  0  0  0  0
   -3.4068    6.3009  -18.3823 C   0  0  0  0  0  0  0  0  0  0  0  0
   -3.5909    5.3431  -17.2039 C   0  0  1  0  0  0  0  0  0  0  0  0
   -2.0291    5.0235  -16.4118 Cl  0  0  0  0  0  0  0  0  0  0  0  0
   -4.3696    5.9167  -16.1230 N   0  0  0  0  0  0  0  0  0  0  0  0
   -5.6690    5.4361  -15.9493 C   0  0  0  0  0  0  0  0  0  0  0  0
   -6.1020    5.3554  -14.6721 N   0  0  0  0  0  0  0  0  0  0  0  0
   -7.3689    4.9550  -14.4573 C   0  0  0  0  0  0  0  0  0  0  0  0
   -7.8396    4.8603  -12.8170 Cl  0  0  0  0  0  0  0  0  0  0  0  0
   -8.3196    4.6652  -15.3472 N   0  0  0  0  0  0  0  0  0  0  0  0
   -7.8382    4.7142  -16.5978 C   0  0  0  0  0  0  0  0  0  0  0  0
   -8.7886    4.3463  -17.9621 S   0  0  0  0  0  0  0  0  0  0  0  0
   -7.4071    4.5884  -18.9497 C   0  0  0  0  0  0  0  0  0  0  0  0
   -6.3155    5.0125  -18.3484 N   0  0  0  0  0  0  0  0  0  0  0  0
   -6.5539    5.0686  -16.9846 C   0  0  0  0  0  0  0  0  0  0  0  0
  1  2  1  0
  2  3  1  0
  3  4  1  0
  4  5  1  1
  4  6  1  0
  6  7  1  0
  7  8  2  0
  8  9  1  0
  9 10  1  0
  9 11  2  0
 11 12  1  0
 12 13  1  0
 13 14  1  0
 14 15  2  0
 15 16  1  0
 16  7  1  0
 16 12  2  0
M  END
>  <energy_score>  (325) 
-50.606262

>  <alias>  (325) 
None

>  <HIPPO Pose ID>  (325) 
69152

>  <smiles>  (325) 
ClCC[C@@H](Cl)Nc1nc(Cl)nc2scnc12

>  <inchikey>  (325) 
JHQOTAPYROGWNN-BYPYZUCNSA-N

>  <distance_score>  (325) 
0.778253

>  <ref_mols>  (325) 
Z1719a,Z0472a

>  <ref_pdb>  (325) 
Z0472a

>  <HIPPO Compound ID>  (325) 
138695

>  <name>  (325) 
P69152

>  <inspiration_score>  (325) 
None

$$$$
P69153
     RDKit          3D

 16 17  0  0  0  0  0  0  0  0999 V2000
   -2.2177    4.5097  -15.0232 C   0  0  0  0  0  0  0  0  0  0  0  0
   -1.7310    5.6913  -15.8569 C   0  0  0  0  0  0  0  0  0  0  0  0
   -2.7107    6.2556  -16.9092 C   0  0  1  0  0  0  0  0  0  0  0  0
   -3.0742    5.2381  -17.9855 C   0  0  0  0  0  0  0  0  0  0  0  0
   -3.9182    7.0033  -16.3074 C   0  0  0  0  0  0  0  0  0  0  0  0
   -4.5411    6.2891  -15.2142 N   0  0  0  0  0  0  0  0  0  0  0  0
   -5.8131    5.7536  -15.2768 C   0  0  0  0  0  0  0  0  0  0  0  0
   -6.4279    5.5551  -14.0870 N   0  0  0  0  0  0  0  0  0  0  0  0
   -7.6687    5.0278  -14.0809 C   0  0  0  0  0  0  0  0  0  0  0  0
   -8.4325    4.7017  -15.1297 N   0  0  0  0  0  0  0  0  0  0  0  0
   -7.7721    4.8663  -16.2861 C   0  0  0  0  0  0  0  0  0  0  0  0
   -8.4337    4.4569  -17.8032 S   0  0  0  0  0  0  0  0  0  0  0  0
   -6.9341    4.8622  -18.5226 C   0  0  0  0  0  0  0  0  0  0  0  0
   -6.6094    4.5556  -19.9207 C   0  0  0  0  0  0  0  0  0  0  0  0
   -6.0532    5.4423  -17.7450 N   0  0  0  0  0  0  0  0  0  0  0  0
   -6.4931    5.3746  -16.4447 C   0  0  0  0  0  0  0  0  0  0  0  0
  1  2  1  0
  2  3  1  0
  3  4  1  1
  3  5  1  0
  5  6  1  0
  6  7  1  0
  7  8  2  0
  8  9  1  0
  9 10  2  0
 10 11  1  0
 11 12  1  0
 12 13  1  0
 13 14  1  0
 13 15  2  0
 15 16  1  0
 16  7  1  0
 16 11  2  0
M  END
>  <energy_score>  (326) 
-59.122721

>  <alias>  (326) 
None

>  <HIPPO Pose ID>  (326) 
69153

>  <smiles>  (326) 
CC[C@@H](C)CNc1ncnc2sc(C)nc12

>  <inchikey>  (326) 
BQRJVMUJAFWTSF-SSDOTTSWSA-N

>  <distance_score>  (326) 
0.972186

>  <ref_mols>  (326) 
Z0472a,Z1719a

>  <ref_pdb>  (326) 
Z0472a

>  <HIPPO Compound ID>  (326) 
138696

>  <name>  (326) 
P69153

>  <inspiration_score>  (326) 
None

$$$$
P69154
     RDKit          3D

 16 18  0  0  0  0  0  0  0  0999 V2000
   -6.7363    4.4839  -19.9087 C   0  0  0  0  0  0  0  0  0  0  0  0
   -7.0146    4.9590  -18.5483 C   0  0  0  0  0  0  0  0  0  0  0  0
   -6.1815    5.7688  -17.9415 N   0  0  0  0  0  0  0  0  0  0  0  0
   -6.4812    5.7862  -16.5978 C   0  0  0  0  0  0  0  0  0  0  0  0
   -5.7388    6.3724  -15.5566 C   0  0  0  0  0  0  0  0  0  0  0  0
   -4.5761    7.1281  -15.7075 N   0  0  0  0  0  0  0  0  0  0  0  0
   -3.7487    7.0331  -16.9112 C   0  0  0  0  0  0  0  0  0  0  0  0
   -2.8170    5.8264  -16.9961 C   0  0  0  0  0  0  0  0  0  0  0  0
   -3.3635    4.3839  -16.9160 C   0  0  0  0  0  0  0  0  0  0  0  0
   -2.8933    4.2663  -15.1613 S   0  0  0  0  0  0  0  0  0  0  0  0
   -1.8560    5.6146  -15.7964 C   0  0  0  0  0  0  0  0  0  0  0  0
   -6.1757    6.1822  -14.2877 N   0  0  0  0  0  0  0  0  0  0  0  0
   -7.3107    5.4784  -14.0896 C   0  0  0  0  0  0  0  0  0  0  0  0
   -8.1201    4.9347  -15.0066 N   0  0  0  0  0  0  0  0  0  0  0  0
   -7.6296    5.0956  -16.2451 C   0  0  0  0  0  0  0  0  0  0  0  0
   -8.3662    4.4399  -17.6357 S   0  0  0  0  0  0  0  0  0  0  0  0
  1  2  1  0
  2  3  2  0
  3  4  1  0
  4  5  2  0
  5  6  1  0
  6  7  1  0
  7  8  1  0
  8  9  1  0
  9 10  1  0
 10 11  1  0
  5 12  1  0
 12 13  2  0
 13 14  1  0
 14 15  2  0
 15 16  1  0
 16  2  1  0
 15  4  1  0
 11  8  1  0
M  END
>  <energy_score>  (327) 
-77.401376

>  <alias>  (327) 
None

>  <HIPPO Pose ID>  (327) 
69154

>  <smiles>  (327) 
Cc1nc2c(NCC3CSC3)ncnc2s1

>  <inchikey>  (327) 
HKWVEWVHZBOCRO-UHFFFAOYSA-N

>  <distance_score>  (327) 
1.230776

>  <ref_mols>  (327) 
Z0472a,Z1719a

>  <ref_pdb>  (327) 
Z0472a

>  <HIPPO Compound ID>  (327) 
138697

>  <name>  (327) 
P69154

>  <inspiration_score>  (327) 
None

$$$$
P69157
     RDKit          3D

 16 17  0  0  0  0  0  0  0  0999 V2000
   -0.4285    4.9298  -13.7333 C   0  0  0  0  0  0  0  0  0  0  0  0
   -1.8080    5.0052  -14.3719 C   0  0  0  0  0  0  0  0  0  0  0  0
   -1.7431    5.6544  -15.7574 C   0  0  0  0  0  0  0  0  0  0  0  0
   -3.1268    5.9181  -16.3346 C   0  0  1  0  0  0  0  0  0  0  0  0
   -2.9725    6.3215  -18.0706 Cl  0  0  0  0  0  0  0  0  0  0  0  0
   -3.8911    4.7019  -16.2767 N   0  0  0  0  0  0  0  0  0  0  0  0
   -5.1948    4.9160  -15.7995 C   0  0  0  0  0  0  0  0  0  0  0  0
   -5.5226    5.1138  -14.5096 N   0  0  0  0  0  0  0  0  0  0  0  0
   -6.8467    5.1397  -14.2075 C   0  0  0  0  0  0  0  0  0  0  0  0
   -7.9123    5.0347  -15.0339 N   0  0  0  0  0  0  0  0  0  0  0  0
   -7.5134    4.8569  -16.3048 C   0  0  0  0  0  0  0  0  0  0  0  0
   -8.5323    4.5900  -17.6470 S   0  0  0  0  0  0  0  0  0  0  0  0
   -7.1379    4.5132  -18.6480 C   0  0  0  0  0  0  0  0  0  0  0  0
   -7.1700    4.2456  -20.0781 C   0  0  0  0  0  0  0  0  0  0  0  0
   -5.9836    4.6955  -18.0734 N   0  0  0  0  0  0  0  0  0  0  0  0
   -6.2086    4.8282  -16.7389 C   0  0  0  0  0  0  0  0  0  0  0  0
  1  2  1  0
  2  3  1  0
  3  4  1  0
  4  5  1  6
  4  6  1  0
  6  7  1  0
  7  8  2  0
  8  9  1  0
  9 10  2  0
 10 11  1  0
 11 12  1  0
 12 13  1  0
 13 14  1  0
 13 15  2  0
 15 16  1  0
 16  7  1  0
 16 11  2  0
M  END
>  <energy_score>  (328) 
-58.194497

>  <alias>  (328) 
None

>  <HIPPO Pose ID>  (328) 
69157

>  <smiles>  (328) 
CCC[C@@H](Cl)Nc1ncnc2sc(C)nc12

>  <inchikey>  (328) 
PVQDVZWRCQTPBH-ZETCQYMHSA-N

>  <distance_score>  (328) 
1.014932

>  <ref_mols>  (328) 
Z1719a,Z0472a

>  <ref_pdb>  (328) 
Z0472a

>  <HIPPO Compound ID>  (328) 
138699

>  <name>  (328) 
P69157

>  <inspiration_score>  (328) 
None

$$$$
P69159
     RDKit          3D

 16 17  0  0  0  0  0  0  0  0999 V2000
   -2.6750    8.5820  -19.2426 C   0  0  0  0  0  0  0  0  0  0  0  0
   -2.7946    7.6907  -18.0146 C   0  0  0  0  0  0  0  0  0  0  0  0
   -3.3885    6.3233  -18.3785 C   0  0  0  0  0  0  0  0  0  0  0  0
   -3.5942    5.3592  -17.2034 C   0  0  1  0  0  0  0  0  0  0  0  0
   -2.0437    5.0047  -16.4033 Cl  0  0  0  0  0  0  0  0  0  0  0  0
   -4.3752    5.9398  -16.1286 N   0  0  0  0  0  0  0  0  0  0  0  0
   -5.6705    5.4536  -15.9507 C   0  0  0  0  0  0  0  0  0  0  0  0
   -6.1033    5.3709  -14.6731 N   0  0  0  0  0  0  0  0  0  0  0  0
   -7.3678    4.9636  -14.4591 C   0  0  0  0  0  0  0  0  0  0  0  0
   -7.8380    4.8645  -12.8186 Cl  0  0  0  0  0  0  0  0  0  0  0  0
   -8.3171    4.6674  -15.3487 N   0  0  0  0  0  0  0  0  0  0  0  0
   -7.8359    4.7190  -16.5994 C   0  0  0  0  0  0  0  0  0  0  0  0
   -8.7840    4.3444  -17.9636 S   0  0  0  0  0  0  0  0  0  0  0  0
   -7.4033    4.5912  -18.9513 C   0  0  0  0  0  0  0  0  0  0  0  0
   -6.3160    5.0268  -18.3506 N   0  0  0  0  0  0  0  0  0  0  0  0
   -6.5539    5.0812  -16.9863 C   0  0  0  0  0  0  0  0  0  0  0  0
  1  2  1  0
  2  3  1  0
  3  4  1  0
  4  5  1  1
  4  6  1  0
  6  7  1  0
  7  8  2  0
  8  9  1  0
  9 10  1  0
  9 11  2  0
 11 12  1  0
 12 13  1  0
 13 14  1  0
 14 15  2  0
 15 16  1  0
 16  7  1  0
 16 12  2  0
M  END
>  <energy_score>  (329) 
-70.479003

>  <alias>  (329) 
None

>  <HIPPO Pose ID>  (329) 
69159

>  <smiles>  (329) 
CCC[C@@H](Cl)Nc1nc(Cl)nc2scnc12

>  <inchikey>  (329) 
FWDJGRQNDNPCEQ-YFKPBYRVSA-N

>  <distance_score>  (329) 
0.781887

>  <ref_mols>  (329) 
Z0472a,Z1719a

>  <ref_pdb>  (329) 
Z0472a

>  <HIPPO Compound ID>  (329) 
138700

>  <name>  (329) 
P69159

>  <inspiration_score>  (329) 
None

$$$$
P69161
     RDKit          3D

 16 17  0  0  0  0  0  0  0  0999 V2000
   -3.1384    3.6066  -15.3277 C   0  0  0  0  0  0  0  0  0  0  0  0
   -2.9818    4.3662  -16.6079 C   0  0  0  0  0  0  0  0  0  0  0  0
   -3.0587    5.7038  -16.7199 C   0  0  0  0  0  0  0  0  0  0  0  0
   -2.9128    6.3895  -18.0524 C   0  0  0  0  0  0  0  0  0  0  0  0
   -3.2727    6.5864  -15.5192 C   0  0  0  0  0  0  0  0  0  0  0  0
   -4.6055    7.1708  -15.4729 N   0  0  0  0  0  0  0  0  0  0  0  0
   -5.6715    6.2623  -15.3539 C   0  0  0  0  0  0  0  0  0  0  0  0
   -6.1885    6.0741  -14.1170 N   0  0  0  0  0  0  0  0  0  0  0  0
   -7.3123    5.3356  -13.9984 C   0  0  0  0  0  0  0  0  0  0  0  0
   -8.0530    4.7942  -14.9712 N   0  0  0  0  0  0  0  0  0  0  0  0
   -7.4994    4.9895  -16.1783 C   0  0  0  0  0  0  0  0  0  0  0  0
   -8.2113    4.4408  -17.6250 S   0  0  0  0  0  0  0  0  0  0  0  0
   -6.8247    4.9834  -18.4694 C   0  0  0  0  0  0  0  0  0  0  0  0
   -6.5567    4.6133  -19.8659 C   0  0  0  0  0  0  0  0  0  0  0  0
   -5.9836    5.7241  -17.7873 N   0  0  0  0  0  0  0  0  0  0  0  0
   -6.3271    5.6763  -16.4531 C   0  0  0  0  0  0  0  0  0  0  0  0
  1  2  1  0
  2  3  2  0
  3  4  1  0
  3  5  1  0
  5  6  1  0
  6  7  1  0
  7  8  2  0
  8  9  1  0
  9 10  2  0
 10 11  1  0
 11 12  1  0
 12 13  1  0
 13 14  1  0
 13 15  2  0
 15 16  1  0
 16  7  1  0
 16 11  2  0
M  END
>  <energy_score>  (330) 
-67.947475

>  <alias>  (330) 
None

>  <HIPPO Pose ID>  (330) 
69161

>  <smiles>  (330) 
C/C=C(/C)CNc1ncnc2sc(C)nc12

>  <inchikey>  (330) 
YPBYPDQFTNMGOB-DAXSKMNVSA-N

>  <distance_score>  (330) 
0.873975

>  <ref_mols>  (330) 
Z1719a,Z0472a

>  <ref_pdb>  (330) 
Z0472a

>  <HIPPO Compound ID>  (330) 
138701

>  <name>  (330) 
P69161

>  <inspiration_score>  (330) 
None

$$$$
P69164
     RDKit          3D

 16 17  0  0  0  0  0  0  0  0999 V2000
   -6.8544    4.4057  -19.9359 C   0  0  0  0  0  0  0  0  0  0  0  0
   -7.1278    4.6903  -18.5241 C   0  0  0  0  0  0  0  0  0  0  0  0
   -6.1777    5.1722  -17.7696 N   0  0  0  0  0  0  0  0  0  0  0  0
   -6.5802    5.1485  -16.4596 C   0  0  0  0  0  0  0  0  0  0  0  0
   -5.8185    5.4804  -15.3281 C   0  0  0  0  0  0  0  0  0  0  0  0
   -4.4905    5.8915  -15.3655 N   0  0  0  0  0  0  0  0  0  0  0  0
   -4.0004    6.5874  -16.5454 C   0  0  0  0  0  0  0  0  0  0  0  0
   -2.8522    5.8279  -17.2515 C   0  0  0  0  0  0  0  0  0  0  0  0
   -2.4562    6.6165  -18.5119 C   0  0  0  0  0  0  0  0  0  0  0  0
   -1.6468    5.7447  -16.3031 C   0  0  0  0  0  0  0  0  0  0  0  0
   -3.2187    4.4105  -17.6876 C   0  0  0  0  0  0  0  0  0  0  0  0
   -6.4013    5.3721  -14.1137 N   0  0  0  0  0  0  0  0  0  0  0  0
   -7.6878    4.9644  -14.0579 C   0  0  0  0  0  0  0  0  0  0  0  0
   -8.5223    4.6889  -15.0724 N   0  0  0  0  0  0  0  0  0  0  0  0
   -7.8927    4.7669  -16.2554 C   0  0  0  0  0  0  0  0  0  0  0  0
   -8.6294    4.3995  -17.7536 S   0  0  0  0  0  0  0  0  0  0  0  0
  1  2  1  0
  2  3  2  0
  3  4  1  0
  4  5  2  0
  5  6  1  0
  6  7  1  0
  7  8  1  0
  8  9  1  0
  8 10  1  0
  8 11  1  0
  5 12  1  0
 12 13  2  0
 13 14  1  0
 14 15  2  0
 15 16  1  0
 16  2  1  0
 15  4  1  0
M  END
>  <energy_score>  (331) 
-66.113004

>  <alias>  (331) 
None

>  <HIPPO Pose ID>  (331) 
69164

>  <smiles>  (331) 
Cc1nc2c(NCC(C)(C)C)ncnc2s1

>  <inchikey>  (331) 
LKGHHFMKNUNCCA-UHFFFAOYSA-N

>  <distance_score>  (331) 
1.063092

>  <ref_mols>  (331) 
Z1719a,Z0472a

>  <ref_pdb>  (331) 
Z0472a

>  <HIPPO Compound ID>  (331) 
138703

>  <name>  (331) 
P69164

>  <inspiration_score>  (331) 
None

$$$$
P69165
     RDKit          3D

 16 17  0  0  0  0  0  0  0  0999 V2000
   -3.1601    4.3375  -17.4474 C   0  0  0  0  0  0  0  0  0  0  0  0
   -2.7139    5.7301  -17.0034 C   0  0  0  0  0  0  0  0  0  0  0  0
   -1.3190    5.6335  -16.3750 C   0  0  0  0  0  0  0  0  0  0  0  0
   -2.6232    6.6400  -18.2438 C   0  0  0  0  0  0  0  0  0  0  0  0
   -3.6450    6.2957  -15.9009 C   0  0  0  0  0  0  0  0  0  0  0  0
   -4.9646    6.5833  -16.4142 N   0  0  0  0  0  0  0  0  0  0  0  0
   -6.0048    5.7687  -15.9670 C   0  0  0  0  0  0  0  0  0  0  0  0
   -6.2416    5.5706  -14.6549 N   0  0  0  0  0  0  0  0  0  0  0  0
   -7.3793    4.9307  -14.3248 C   0  0  0  0  0  0  0  0  0  0  0  0
   -7.6542    4.7353  -12.6493 Cl  0  0  0  0  0  0  0  0  0  0  0  0
   -8.3611    4.4869  -15.1182 N   0  0  0  0  0  0  0  0  0  0  0  0
   -8.0387    4.6364  -16.4100 C   0  0  0  0  0  0  0  0  0  0  0  0
   -9.0470    4.1541  -17.6923 S   0  0  0  0  0  0  0  0  0  0  0  0
   -7.8091    4.6046  -18.7935 C   0  0  0  0  0  0  0  0  0  0  0  0
   -6.7676    5.2342  -18.2903 N   0  0  0  0  0  0  0  0  0  0  0  0
   -6.8940    5.2266  -16.9103 C   0  0  0  0  0  0  0  0  0  0  0  0
  1  2  1  0
  2  3  1  0
  2  4  1  0
  2  5  1  0
  5  6  1  0
  6  7  1  0
  7  8  2  0
  8  9  1  0
  9 10  1  0
  9 11  2  0
 11 12  1  0
 12 13  1  0
 13 14  1  0
 14 15  2  0
 15 16  1  0
 16  7  1  0
 16 12  2  0
M  END
>  <energy_score>  (332) 
-80.032761

>  <alias>  (332) 
None

>  <HIPPO Pose ID>  (332) 
69165

>  <smiles>  (332) 
CC(C)(C)CNc1nc(Cl)nc2scnc12

>  <inchikey>  (332) 
PYRSWLXBICFEPK-UHFFFAOYSA-N

>  <distance_score>  (332) 
1.097452

>  <ref_mols>  (332) 
Z1719a,Z0472a

>  <ref_pdb>  (332) 
Z0472a

>  <HIPPO Compound ID>  (332) 
138704

>  <name>  (332) 
P69165

>  <inspiration_score>  (332) 
None

$$$$
P69167
     RDKit          3D

 16 18  0  0  0  0  0  0  0  0999 V2000
   -6.5443    4.6292  -19.8989 C   0  0  0  0  0  0  0  0  0  0  0  0
   -6.7982    4.9187  -18.4841 C   0  0  0  0  0  0  0  0  0  0  0  0
   -5.8692    5.4553  -17.7355 N   0  0  0  0  0  0  0  0  0  0  0  0
   -6.2068    5.2973  -16.4077 C   0  0  0  0  0  0  0  0  0  0  0  0
   -5.4394    5.5376  -15.2504 C   0  0  0  0  0  0  0  0  0  0  0  0
   -4.1192    5.9981  -15.1934 N   0  0  0  0  0  0  0  0  0  0  0  0
   -2.9831    5.3104  -15.8084 C   0  0  1  0  0  0  0  0  0  0  0  0
   -2.8562    4.2045  -15.1062 O   0  0  0  0  0  0  0  0  0  0  0  0
   -3.1144    4.9921  -17.2736 C   0  0  1  0  0  0  0  0  0  0  0  0
   -3.0344    6.0936  -18.3011 C   0  0  0  0  0  0  0  0  0  0  0  0
   -1.9313    5.2118  -18.0823 O   0  0  0  0  0  0  0  0  0  0  0  0
   -6.0709    5.4093  -14.0456 N   0  0  0  0  0  0  0  0  0  0  0  0
   -7.3447    4.9830  -14.0146 C   0  0  0  0  0  0  0  0  0  0  0  0
   -8.1585    4.7194  -15.0425 N   0  0  0  0  0  0  0  0  0  0  0  0
   -7.5158    4.8737  -16.2116 C   0  0  0  0  0  0  0  0  0  0  0  0
   -8.2714    4.5437  -17.7073 S   0  0  0  0  0  0  0  0  0  0  0  0
  1  2  1  0
  2  3  2  0
  3  4  1  0
  4  5  2  0
  5  6  1  0
  6  7  1  0
  7  8  1  1
  7  9  1  0
  9 10  1  6
 10 11  1  0
  5 12  1  0
 12 13  2  0
 13 14  1  0
 14 15  2  0
 15 16  1  0
 16  2  1  0
 15  4  1  0
 11  9  1  0
M  CHG  1   8  -1
M  END
>  <energy_score>  (333) 
-91.714448

>  <alias>  (333) 
None

>  <HIPPO Pose ID>  (333) 
69167

>  <smiles>  (333) 
Cc1nc2c(N[C@@H]([O-])[C@H]3CO3)ncnc2s1

>  <inchikey>  (333) 
AKBISGHGPOFWPC-XRGYYRRGSA-N

>  <distance_score>  (333) 
0.795093

>  <ref_mols>  (333) 
Z0472a,Z1719a

>  <ref_pdb>  (333) 
Z0472a

>  <HIPPO Compound ID>  (333) 
138705

>  <name>  (333) 
P69167

>  <inspiration_score>  (333) 
None

$$$$
P69172
     RDKit          3D

 16 18  0  0  0  0  0  0  0  0999 V2000
   -3.4418    7.3684  -16.1720 O   0  0  0  0  0  0  0  0  0  0  0  0
   -3.8843    6.3803  -16.9256 C   0  0  2  0  0  0  0  0  0  0  0  0
   -4.2920    5.4360  -15.9096 N   0  0  0  0  0  0  0  0  0  0  0  0
   -5.6549    5.1578  -15.7952 C   0  0  0  0  0  0  0  0  0  0  0  0
   -6.1422    5.0691  -14.5301 N   0  0  0  0  0  0  0  0  0  0  0  0
   -7.4459    4.8157  -14.3728 C   0  0  0  0  0  0  0  0  0  0  0  0
   -7.9824    4.7398  -12.7488 Cl  0  0  0  0  0  0  0  0  0  0  0  0
   -8.3989    4.6495  -15.2951 N   0  0  0  0  0  0  0  0  0  0  0  0
   -7.8672    4.6741  -16.5275 C   0  0  0  0  0  0  0  0  0  0  0  0
   -8.8171    4.4019  -17.9191 S   0  0  0  0  0  0  0  0  0  0  0  0
   -7.4079    4.5651  -18.8760 C   0  0  0  0  0  0  0  0  0  0  0  0
   -6.2962    4.8508  -18.2408 N   0  0  0  0  0  0  0  0  0  0  0  0
   -6.5422    4.9067  -16.8715 C   0  0  0  0  0  0  0  0  0  0  0  0
   -2.6993    5.7718  -17.6442 C   0  0  1  0  0  0  0  0  0  0  0  0
   -2.9120    4.7448  -18.7227 C   0  0  0  0  0  0  0  0  0  0  0  0
   -2.5569    6.0944  -19.0443 O   0  0  0  0  0  0  0  0  0  0  0  0
  2  1  1  1
  2  3  1  0
  3  4  1  0
  4  5  2  0
  5  6  1  0
  6  7  1  0
  6  8  2  0
  8  9  1  0
  9 10  1  0
 10 11  1  0
 11 12  2  0
 12 13  1  0
  2 14  1  0
 14 15  1  6
 15 16  1  0
 13  4  1  0
 16 14  1  0
 13  9  2  0
M  CHG  1   1  -1
M  END
>  <energy_score>  (334) 
-85.184867

>  <alias>  (334) 
None

>  <HIPPO Pose ID>  (334) 
69172

>  <smiles>  (334) 
[O-][C@H](Nc1nc(Cl)nc2scnc12)[C@H]1CO1

>  <inchikey>  (334) 
YOBYYJNANSCKFK-CVYQJGLWSA-N

>  <distance_score>  (334) 
0.748806

>  <ref_mols>  (334) 
Z0472a,Z1719a

>  <ref_pdb>  (334) 
Z0472a

>  <HIPPO Compound ID>  (334) 
138706

>  <name>  (334) 
P69172

>  <inspiration_score>  (334) 
None

$$$$
P69174
     RDKit          3D

 16 18  0  0  0  0  0  0  0  0999 V2000
   -6.5716    4.6313  -19.8667 C   0  0  0  0  0  0  0  0  0  0  0  0
   -6.8717    4.8910  -18.4506 C   0  0  0  0  0  0  0  0  0  0  0  0
   -5.9653    5.4063  -17.6521 N   0  0  0  0  0  0  0  0  0  0  0  0
   -6.3997    5.2473  -16.3568 C   0  0  0  0  0  0  0  0  0  0  0  0
   -5.6613    5.4963  -15.1902 C   0  0  0  0  0  0  0  0  0  0  0  0
   -4.3744    6.0690  -15.2817 N   0  0  0  0  0  0  0  0  0  0  0  0
   -3.3395    5.0281  -15.2532 C   0  0  0  0  0  0  0  0  0  0  0  0
   -2.2283    5.4200  -16.2393 C   0  0  0  0  0  0  0  0  0  0  0  0
   -2.6614    5.2698  -17.6758 C   0  0  0  0  0  0  0  0  0  0  0  0
   -1.7595    5.7464  -18.7833 C   0  0  0  0  0  0  0  0  0  0  0  0
   -3.0351    6.4799  -18.4984 C   0  0  0  0  0  0  0  0  0  0  0  0
   -6.2142    5.1960  -13.9986 N   0  0  0  0  0  0  0  0  0  0  0  0
   -7.4841    4.7335  -13.9924 C   0  0  0  0  0  0  0  0  0  0  0  0
   -8.3071    4.5331  -15.0361 N   0  0  0  0  0  0  0  0  0  0  0  0
   -7.6843    4.7661  -16.2011 C   0  0  0  0  0  0  0  0  0  0  0  0
   -8.3788    4.4856  -17.7323 S   0  0  0  0  0  0  0  0  0  0  0  0
  1  2  1  0
  2  3  2  0
  3  4  1  0
  4  5  2  0
  5  6  1  0
  6  7  1  0
  7  8  1  0
  8  9  1  0
  9 10  1  0
 10 11  1  0
  5 12  1  0
 12 13  2  0
 13 14  1  0
 14 15  2  0
 15 16  1  0
 16  2  1  0
 15  4  1  0
 11  9  1  0
M  END
>  <energy_score>  (335) 
-67.357261

>  <alias>  (335) 
None

>  <HIPPO Pose ID>  (335) 
69174

>  <smiles>  (335) 
Cc1nc2c(NCCC3CC3)ncnc2s1

>  <inchikey>  (335) 
PNDVHJJCDZOEMH-UHFFFAOYSA-N

>  <distance_score>  (335) 
0.933805

>  <ref_mols>  (335) 
Z1719a,Z0472a

>  <ref_pdb>  (335) 
Z0472a

>  <HIPPO Compound ID>  (335) 
138707

>  <name>  (335) 
P69174

>  <inspiration_score>  (335) 
None

$$$$
P69176
     RDKit          3D

 16 17  0  0  0  0  0  0  0  0999 V2000
   -2.1682    5.3785  -18.8840 C   0  0  0  0  0  0  0  0  0  0  0  0
   -2.9241    6.2679  -17.9067 C   0  0  0  0  0  0  0  0  0  0  0  0
   -3.4094    5.4897  -16.6734 C   0  0  2  0  0  0  0  0  0  0  0  0
   -4.2231    6.3687  -15.8411 N   0  0  0  0  0  0  0  0  0  0  0  0
   -5.5168    5.8912  -15.6009 C   0  0  0  0  0  0  0  0  0  0  0  0
   -5.9913    5.8658  -14.3363 N   0  0  0  0  0  0  0  0  0  0  0  0
   -7.2469    5.4022  -14.1371 C   0  0  0  0  0  0  0  0  0  0  0  0
   -8.1359    4.9733  -15.0488 N   0  0  0  0  0  0  0  0  0  0  0  0
   -7.6122    4.9958  -16.2850 C   0  0  0  0  0  0  0  0  0  0  0  0
   -8.4329    4.4667  -17.6845 S   0  0  0  0  0  0  0  0  0  0  0  0
   -7.0108    4.7742  -18.5898 C   0  0  0  0  0  0  0  0  0  0  0  0
   -6.8371    4.3876  -19.9891 C   0  0  0  0  0  0  0  0  0  0  0  0
   -6.0276    5.3583  -17.9586 N   0  0  0  0  0  0  0  0  0  0  0  0
   -6.3485    5.4364  -16.6299 C   0  0  0  0  0  0  0  0  0  0  0  0
   -2.2729    5.1124  -15.8955 O   0  0  0  0  0  0  0  0  0  0  0  0
   -2.5988    4.1205  -14.9262 C   0  0  0  0  0  0  0  0  0  0  0  0
  1  2  1  0
  3  2  1  6
  3  4  1  0
  4  5  1  0
  5  6  2  0
  6  7  1  0
  7  8  2  0
  8  9  1  0
  9 10  1  0
 10 11  1  0
 11 12  1  0
 11 13  2  0
 13 14  1  0
  3 15  1  0
 15 16  1  0
 14  5  1  0
 14  9  2  0
M  END
>  <energy_score>  (336) 
-71.003296

>  <alias>  (336) 
None

>  <HIPPO Pose ID>  (336) 
69176

>  <smiles>  (336) 
CC[C@H](Nc1ncnc2sc(C)nc12)OC

>  <inchikey>  (336) 
RYOFVUXPQIIFPO-SSDOTTSWSA-N

>  <distance_score>  (336) 
0.758625

>  <ref_mols>  (336) 
Z0472a,Z1719a

>  <ref_pdb>  (336) 
Z0472a

>  <HIPPO Compound ID>  (336) 
138709

>  <name>  (336) 
P69176

>  <inspiration_score>  (336) 
None

$$$$
P69178
     RDKit          3D

 16 17  0  0  0  0  0  0  0  0999 V2000
   -3.6820    6.3803  -19.2828 C   0  0  0  0  0  0  0  0  0  0  0  0
   -2.7893    5.9257  -18.1415 C   0  0  0  0  0  0  0  0  0  0  0  0
   -3.5196    5.1443  -17.0358 C   0  0  2  0  0  0  0  0  0  0  0  0
   -4.3695    6.0478  -16.2798 N   0  0  0  0  0  0  0  0  0  0  0  0
   -5.6597    5.5645  -16.0280 C   0  0  0  0  0  0  0  0  0  0  0  0
   -6.0724    5.5544  -14.7403 N   0  0  0  0  0  0  0  0  0  0  0  0
   -7.3203    5.1210  -14.4804 C   0  0  0  0  0  0  0  0  0  0  0  0
   -7.7482    5.0491  -12.8274 Cl  0  0  0  0  0  0  0  0  0  0  0  0
   -8.2770    4.7537  -15.3347 N   0  0  0  0  0  0  0  0  0  0  0  0
   -7.8240    4.7630  -16.5964 C   0  0  0  0  0  0  0  0  0  0  0  0
   -8.8006    4.3314  -17.9230 S   0  0  0  0  0  0  0  0  0  0  0  0
   -7.4473    4.5585  -18.9512 C   0  0  0  0  0  0  0  0  0  0  0  0
   -6.3434    5.0026  -18.3894 N   0  0  0  0  0  0  0  0  0  0  0  0
   -6.5551    5.1231  -17.0256 C   0  0  0  0  0  0  0  0  0  0  0  0
   -2.4945    4.6688  -16.1565 O   0  0  0  0  0  0  0  0  0  0  0  0
   -2.9642    3.7679  -15.1587 C   0  0  0  0  0  0  0  0  0  0  0  0
  1  2  1  0
  3  2  1  6
  3  4  1  0
  4  5  1  0
  5  6  2  0
  6  7  1  0
  7  8  1  0
  7  9  2  0
  9 10  1  0
 10 11  1  0
 11 12  1  0
 12 13  2  0
 13 14  1  0
  3 15  1  0
 15 16  1  0
 14  5  1  0
 14 10  2  0
M  END
>  <energy_score>  (337) 
-62.042958

>  <alias>  (337) 
None

>  <HIPPO Pose ID>  (337) 
69178

>  <smiles>  (337) 
CC[C@H](Nc1nc(Cl)nc2scnc12)OC

>  <inchikey>  (337) 
GCOVDSLRBDZLJE-RXMQYKEDSA-N

>  <distance_score>  (337) 
0.707499

>  <ref_mols>  (337) 
Z1719a,Z0472a

>  <ref_pdb>  (337) 
Z0472a

>  <HIPPO Compound ID>  (337) 
138710

>  <name>  (337) 
P69178

>  <inspiration_score>  (337) 
None

$$$$
P69187
     RDKit          3D

 16 18  0  0  0  0  0  0  0  0999 V2000
   -2.4476    6.0024  -19.1595 C   0  0  0  0  0  0  0  0  0  0  0  0
   -2.5843    5.1051  -17.9804 C   0  0  1  0  0  0  0  0  0  0  0  0
   -1.9767    5.4617  -16.6472 C   0  0  0  0  0  0  0  0  0  0  0  0
   -3.4728    5.4853  -16.8243 C   0  0  1  0  0  0  0  0  0  0  0  0
   -4.1951    6.7992  -16.7837 C   0  0  0  0  0  0  0  0  0  0  0  0
   -5.0717    6.8588  -15.6361 N   0  0  0  0  0  0  0  0  0  0  0  0
   -6.1653    5.9951  -15.5999 C   0  0  0  0  0  0  0  0  0  0  0  0
   -6.5920    5.6811  -14.3605 N   0  0  0  0  0  0  0  0  0  0  0  0
   -7.6942    4.9262  -14.2452 C   0  0  0  0  0  0  0  0  0  0  0  0
   -8.1516    4.5701  -12.6405 Cl  0  0  0  0  0  0  0  0  0  0  0  0
   -8.5006    4.4713  -15.2039 N   0  0  0  0  0  0  0  0  0  0  0  0
   -8.0025    4.7344  -16.4201 C   0  0  0  0  0  0  0  0  0  0  0  0
   -8.7815    4.2485  -17.8543 S   0  0  0  0  0  0  0  0  0  0  0  0
   -7.4362    4.8282  -18.7436 C   0  0  0  0  0  0  0  0  0  0  0  0
   -6.5306    5.5013  -18.0653 N   0  0  0  0  0  0  0  0  0  0  0  0
   -6.8458    5.4421  -16.7119 C   0  0  0  0  0  0  0  0  0  0  0  0
  2  1  1  6
  2  3  1  0
  3  4  1  0
  4  5  1  6
  5  6  1  0
  6  7  1  0
  7  8  2  0
  8  9  1  0
  9 10  1  0
  9 11  2  0
 11 12  1  0
 12 13  1  0
 13 14  1  0
 14 15  2  0
 15 16  1  0
  4  2  1  0
 16  7  1  0
 16 12  2  0
M  END
>  <energy_score>  (338) 
-36.940983

>  <alias>  (338) 
None

>  <HIPPO Pose ID>  (338) 
69187

>  <smiles>  (338) 
C[C@H]1C[C@H]1CNc1nc(Cl)nc2scnc12

>  <inchikey>  (338) 
FELSWTOTPVULSN-WDSKDSINSA-N

>  <distance_score>  (338) 
1.007872

>  <ref_mols>  (338) 
Z1719a,Z0472a

>  <ref_pdb>  (338) 
Z0472a

>  <HIPPO Compound ID>  (338) 
138712

>  <name>  (338) 
P69187

>  <inspiration_score>  (338) 
None

$$$$
P69189
     RDKit          3D

 16 17  0  0  0  0  0  0  0  0999 V2000
   -6.7828    4.4108  -19.9803 C   0  0  0  0  0  0  0  0  0  0  0  0
   -7.0088    4.7501  -18.5748 C   0  0  0  0  0  0  0  0  0  0  0  0
   -6.0564    5.3194  -17.8842 N   0  0  0  0  0  0  0  0  0  0  0  0
   -6.4329    5.3742  -16.5705 C   0  0  0  0  0  0  0  0  0  0  0  0
   -5.6820    5.8646  -15.4966 C   0  0  0  0  0  0  0  0  0  0  0  0
   -4.4402    6.4884  -15.6231 N   0  0  0  0  0  0  0  0  0  0  0  0
   -3.4922    5.9382  -16.5948 C   0  0  1  0  0  0  0  0  0  0  0  0
   -3.3489    7.1151  -17.9839 S   0  0  0  0  0  0  0  0  0  0  0  0
   -2.1474    5.7337  -15.8509 C   0  0  0  0  0  0  0  0  0  0  0  0
   -0.9193    5.6530  -16.7582 C   0  0  0  0  0  0  0  0  0  0  0  0
   -2.2669    4.4866  -14.9623 C   0  0  0  0  0  0  0  0  0  0  0  0
   -6.2074    5.7760  -14.2539 N   0  0  0  0  0  0  0  0  0  0  0  0
   -7.4449    5.2497  -14.1195 C   0  0  0  0  0  0  0  0  0  0  0  0
   -8.2774    4.8257  -15.0810 N   0  0  0  0  0  0  0  0  0  0  0  0
   -7.7000    4.8944  -16.2912 C   0  0  0  0  0  0  0  0  0  0  0  0
   -8.4648    4.4124  -17.7378 S   0  0  0  0  0  0  0  0  0  0  0  0
  1  2  1  0
  2  3  2  0
  3  4  1  0
  4  5  2  0
  5  6  1  0
  6  7  1  0
  7  8  1  6
  7  9  1  0
  9 10  1  0
  9 11  1  0
  5 12  1  0
 12 13  2  0
 13 14  1  0
 14 15  2  0
 15 16  1  0
 16  2  1  0
 15  4  1  0
M  END
>  <energy_score>  (339) 
-83.548467

>  <alias>  (339) 
None

>  <HIPPO Pose ID>  (339) 
69189

>  <smiles>  (339) 
Cc1nc2c(N[C@@H](S)C(C)C)ncnc2s1

>  <inchikey>  (339) 
HTNKJVHPLSEBHK-VIFPVBQESA-N

>  <distance_score>  (339) 
0.797143

>  <ref_mols>  (339) 
Z0472a,Z1719a

>  <ref_pdb>  (339) 
Z0472a

>  <HIPPO Compound ID>  (339) 
138713

>  <name>  (339) 
P69189

>  <inspiration_score>  (339) 
None

$$$$
P69192
     RDKit          3D

 16 17  0  0  0  0  0  0  0  0999 V2000
   -1.9727    4.5660  -18.6628 C   0  0  0  0  0  0  0  0  0  0  0  0
   -3.2499    5.2525  -18.1998 C   0  0  0  0  0  0  0  0  0  0  0  0
   -3.2894    6.6457  -18.8223 C   0  0  0  0  0  0  0  0  0  0  0  0
   -4.2643    4.5184  -18.7342 F   0  0  0  0  0  0  0  0  0  0  0  0
   -3.3839    5.2349  -16.6527 C   0  0  0  0  0  0  0  0  0  0  0  0
   -4.4317    6.1329  -16.1125 N   0  0  0  0  0  0  0  0  0  0  0  0
   -5.6296    5.4512  -15.8026 C   0  0  0  0  0  0  0  0  0  0  0  0
   -5.9030    5.1625  -14.5125 N   0  0  0  0  0  0  0  0  0  0  0  0
   -7.1198    4.6605  -14.2266 C   0  0  0  0  0  0  0  0  0  0  0  0
   -7.4526    4.4284  -12.5665 Cl  0  0  0  0  0  0  0  0  0  0  0  0
   -8.1427    4.4028  -15.0476 N   0  0  0  0  0  0  0  0  0  0  0  0
   -7.8071    4.6438  -16.3206 C   0  0  0  0  0  0  0  0  0  0  0  0
   -8.8451    4.3128  -17.6294 S   0  0  0  0  0  0  0  0  0  0  0  0
   -7.6008    4.8261  -18.6906 C   0  0  0  0  0  0  0  0  0  0  0  0
   -6.5577    5.4075  -18.1369 N   0  0  0  0  0  0  0  0  0  0  0  0
   -6.6156    5.1832  -16.7754 C   0  0  0  0  0  0  0  0  0  0  0  0
  1  2  1  0
  2  3  1  0
  2  4  1  0
  2  5  1  0
  5  6  1  0
  6  7  1  0
  7  8  2  0
  8  9  1  0
  9 10  1  0
  9 11  2  0
 11 12  1  0
 12 13  1  0
 13 14  1  0
 14 15  2  0
 15 16  1  0
 16  7  1  0
 16 12  2  0
M  END
>  <energy_score>  (340) 
-68.434349

>  <alias>  (340) 
None

>  <HIPPO Pose ID>  (340) 
69192

>  <smiles>  (340) 
CC(C)(F)CNc1nc(Cl)nc2scnc12

>  <inchikey>  (340) 
QKXVKHBTZPYVDV-UHFFFAOYSA-N

>  <distance_score>  (340) 
0.820758

>  <ref_mols>  (340) 
Z1719a,Z0472a

>  <ref_pdb>  (340) 
Z0472a

>  <HIPPO Compound ID>  (340) 
138715

>  <name>  (340) 
P69192

>  <inspiration_score>  (340) 
None

$$$$
P69193
     RDKit          3D

 16 17  0  0  0  0  0  0  0  0999 V2000
   -6.6798    4.4818  -19.9393 C   0  0  0  0  0  0  0  0  0  0  0  0
   -6.8802    4.8020  -18.5238 C   0  0  0  0  0  0  0  0  0  0  0  0
   -5.9101    5.3347  -17.8261 N   0  0  0  0  0  0  0  0  0  0  0  0
   -6.3002    5.4487  -16.5194 C   0  0  0  0  0  0  0  0  0  0  0  0
   -5.5589    5.9529  -15.4411 C   0  0  0  0  0  0  0  0  0  0  0  0
   -4.2861    6.5103  -15.5084 N   0  0  0  0  0  0  0  0  0  0  0  0
   -3.2168    5.9305  -16.3087 C   0  0  2  0  0  0  0  0  0  0  0  0
   -3.2169    6.5691  -17.9713 Cl  0  0  0  0  0  0  0  0  0  0  0  0
   -3.1082    4.4136  -16.2728 C   0  0  0  0  0  0  0  0  0  0  0  0
   -3.0952    3.7959  -14.8845 C   0  0  0  0  0  0  0  0  0  0  0  0
   -1.6480    4.4730  -13.7718 Br  0  0  0  0  0  0  0  0  0  0  0  0
   -6.1229    5.9091  -14.2104 N   0  0  0  0  0  0  0  0  0  0  0  0
   -7.3732    5.4141  -14.0852 C   0  0  0  0  0  0  0  0  0  0  0  0
   -8.1863    4.9704  -15.0510 N   0  0  0  0  0  0  0  0  0  0  0  0
   -7.5832    4.9998  -16.2495 C   0  0  0  0  0  0  0  0  0  0  0  0
   -8.3407    4.4898  -17.6896 S   0  0  0  0  0  0  0  0  0  0  0  0
  1  2  1  0
  2  3  2  0
  3  4  1  0
  4  5  2  0
  5  6  1  0
  6  7  1  0
  7  8  1  6
  7  9  1  0
  9 10  1  0
 10 11  1  0
  5 12  1  0
 12 13  2  0
 13 14  1  0
 14 15  2  0
 15 16  1  0
 16  2  1  0
 15  4  1  0
M  END
>  <energy_score>  (341) 
-85.096665

>  <alias>  (341) 
None

>  <HIPPO Pose ID>  (341) 
69193

>  <smiles>  (341) 
Cc1nc2c(N[C@H](Cl)CCBr)ncnc2s1

>  <inchikey>  (341) 
IBKOIHNFSAEHGW-LURJTMIESA-N

>  <distance_score>  (341) 
1.113532

>  <ref_mols>  (341) 
Z1719a,Z0472a

>  <ref_pdb>  (341) 
Z0472a

>  <HIPPO Compound ID>  (341) 
138716

>  <name>  (341) 
P69193

>  <inspiration_score>  (341) 
None

$$$$
P69195
     RDKit          3D

 16 17  0  0  0  0  0  0  0  0999 V2000
   -7.7011    4.9193  -12.7423 Cl  0  0  0  0  0  0  0  0  0  0  0  0
   -7.3463    5.0025  -14.4119 C   0  0  0  0  0  0  0  0  0  0  0  0
   -6.1123    5.4430  -14.7228 N   0  0  0  0  0  0  0  0  0  0  0  0
   -5.7724    5.4996  -16.0288 C   0  0  0  0  0  0  0  0  0  0  0  0
   -4.5110    6.0271  -16.3261 N   0  0  0  0  0  0  0  0  0  0  0  0
   -3.7553    5.3173  -17.3424 C   0  0  2  0  0  0  0  0  0  0  0  0
   -2.3888    4.6793  -16.3959 Cl  0  0  0  0  0  0  0  0  0  0  0  0
   -3.2089    6.2656  -18.4071 C   0  0  0  0  0  0  0  0  0  0  0  0
   -4.2897    6.7346  -19.3648 C   0  0  0  0  0  0  0  0  0  0  0  0
   -3.4999    7.9325  -20.6920 Br  0  0  0  0  0  0  0  0  0  0  0  0
   -6.7145    5.0783  -16.9901 C   0  0  0  0  0  0  0  0  0  0  0  0
   -6.5706    5.0040  -18.3657 N   0  0  0  0  0  0  0  0  0  0  0  0
   -7.6842    4.5255  -18.8796 C   0  0  0  0  0  0  0  0  0  0  0  0
   -8.9855    4.2666  -17.7942 S   0  0  0  0  0  0  0  0  0  0  0  0
   -7.9553    4.6923  -16.5076 C   0  0  0  0  0  0  0  0  0  0  0  0
   -8.3456    4.6575  -15.2259 N   0  0  0  0  0  0  0  0  0  0  0  0
  1  2  1  0
  2  3  2  0
  3  4  1  0
  4  5  1  0
  5  6  1  0
  6  7  1  1
  6  8  1  0
  8  9  1  0
  9 10  1  0
  4 11  2  0
 11 12  1  0
 12 13  2  0
 13 14  1  0
 14 15  1  0
 15 16  2  0
 16  2  1  0
 15 11  1  0
M  END
>  <energy_score>  (342) 
-62.131095

>  <alias>  (342) 
None

>  <HIPPO Pose ID>  (342) 
69195

>  <smiles>  (342) 
Clc1nc(N[C@H](Cl)CCBr)c2ncsc2n1

>  <inchikey>  (342) 
OEVIGGBJERFWPP-BYPYZUCNSA-N

>  <distance_score>  (342) 
0.683001

>  <ref_mols>  (342) 
Z0472a,Z1719a

>  <ref_pdb>  (342) 
Z0472a

>  <HIPPO Compound ID>  (342) 
138717

>  <name>  (342) 
P69195

>  <inspiration_score>  (342) 
None

$$$$
P69198
     RDKit          3D

 16 17  0  0  0  0  0  0  0  0999 V2000
   -2.6980    4.6411  -20.2343 F   0  0  0  0  0  0  0  0  0  0  0  0
   -1.9458    5.3091  -19.3155 C   0  0  0  0  0  0  0  0  0  0  0  0
   -2.8519    6.1702  -18.4521 C   0  0  0  0  0  0  0  0  0  0  0  0
   -3.5630    5.3921  -17.3338 C   0  0  1  0  0  0  0  0  0  0  0  0
   -2.3849    4.9252  -16.0797 Cl  0  0  0  0  0  0  0  0  0  0  0  0
   -4.5002    6.2902  -16.6382 N   0  0  0  0  0  0  0  0  0  0  0  0
   -5.6459    5.5933  -16.1807 C   0  0  0  0  0  0  0  0  0  0  0  0
   -5.9002    5.4918  -14.8580 N   0  0  0  0  0  0  0  0  0  0  0  0
   -7.0893    4.9773  -14.4850 C   0  0  0  0  0  0  0  0  0  0  0  0
   -7.3662    4.8740  -12.8006 Cl  0  0  0  0  0  0  0  0  0  0  0  0
   -8.1205    4.5982  -15.2478 N   0  0  0  0  0  0  0  0  0  0  0  0
   -7.8087    4.6762  -16.5481 C   0  0  0  0  0  0  0  0  0  0  0  0
   -8.8842    4.2453  -17.7941 S   0  0  0  0  0  0  0  0  0  0  0  0
   -7.6372    4.5645  -18.9315 C   0  0  0  0  0  0  0  0  0  0  0  0
   -6.5345    5.1166  -18.4677 N   0  0  0  0  0  0  0  0  0  0  0  0
   -6.6203    5.1358  -17.0880 C   0  0  0  0  0  0  0  0  0  0  0  0
  1  2  1  0
  2  3  1  0
  3  4  1  0
  4  5  1  1
  4  6  1  0
  6  7  1  0
  7  8  2  0
  8  9  1  0
  9 10  1  0
  9 11  2  0
 11 12  1  0
 12 13  1  0
 13 14  1  0
 14 15  2  0
 15 16  1  0
 16  7  1  0
 16 12  2  0
M  END
>  <energy_score>  (343) 
-47.165482

>  <alias>  (343) 
None

>  <HIPPO Pose ID>  (343) 
69198

>  <smiles>  (343) 
FCC[C@@H](Cl)Nc1nc(Cl)nc2scnc12

>  <inchikey>  (343) 
JUKJKGJMXGRYQH-BYPYZUCNSA-N

>  <distance_score>  (343) 
0.611352

>  <ref_mols>  (343) 
Z0472a,Z1719a

>  <ref_pdb>  (343) 
Z0472a

>  <HIPPO Compound ID>  (343) 
138718

>  <name>  (343) 
P69198

>  <inspiration_score>  (343) 
None

$$$$
P69200
     RDKit          3D

 16 17  0  0  0  0  0  0  0  0999 V2000
   -6.7471    4.4794  -19.7989 C   0  0  0  0  0  0  0  0  0  0  0  0
   -6.9315    4.5914  -18.3431 C   0  0  0  0  0  0  0  0  0  0  0  0
   -5.9043    4.7638  -17.5480 N   0  0  0  0  0  0  0  0  0  0  0  0
   -6.3293    4.9271  -16.2553 C   0  0  0  0  0  0  0  0  0  0  0  0
   -5.5624    5.2463  -15.1174 C   0  0  0  0  0  0  0  0  0  0  0  0
   -4.2191    5.5794  -15.0712 N   0  0  0  0  0  0  0  0  0  0  0  0
   -3.1816    5.2373  -16.0223 C   0  0  1  0  0  0  0  0  0  0  0  0
   -3.0252    3.8329  -15.9824 O   0  0  0  0  0  0  0  0  0  0  0  0
   -3.2964    5.7398  -17.4766 C   0  0  2  0  0  0  0  0  0  0  0  0
   -1.9391    5.9076  -18.1483 C   0  0  0  0  0  0  0  0  0  0  0  0
   -4.2100    7.4614  -17.6030 Br  0  0  0  0  0  0  0  0  0  0  0  0
   -6.2038    5.2764  -13.9236 N   0  0  0  0  0  0  0  0  0  0  0  0
   -7.5359    5.0599  -13.8921 C   0  0  0  0  0  0  0  0  0  0  0  0
   -8.3659    4.8467  -14.9199 N   0  0  0  0  0  0  0  0  0  0  0  0
   -7.6955    4.7730  -16.0800 C   0  0  0  0  0  0  0  0  0  0  0  0
   -8.4629    4.5163  -17.5843 S   0  0  0  0  0  0  0  0  0  0  0  0
  1  2  1  0
  2  3  2  0
  3  4  1  0
  4  5  2  0
  5  6  1  0
  6  7  1  0
  7  8  1  6
  7  9  1  0
  9 10  1  1
  9 11  1  0
  5 12  1  0
 12 13  2  0
 13 14  1  0
 14 15  2  0
 15 16  1  0
 16  2  1  0
 15  4  1  0
M  END
>  <energy_score>  (344) 
-54.779238

>  <alias>  (344) 
None

>  <HIPPO Pose ID>  (344) 
69200

>  <smiles>  (344) 
Cc1nc2c(N[C@@H](O)[C@H](C)Br)ncnc2s1

>  <inchikey>  (344) 
RCZDOZKTZNRGEO-NVNXEXLPSA-N

>  <distance_score>  (344) 
0.999919

>  <ref_mols>  (344) 
Z0472a,Z1719a

>  <ref_pdb>  (344) 
Z0472a

>  <HIPPO Compound ID>  (344) 
138720

>  <name>  (344) 
P69200

>  <inspiration_score>  (344) 
None

$$$$
P69207
     RDKit          3D

 16 17  0  0  0  0  0  0  0  0999 V2000
   -2.5049    7.1239  -18.0919 C   0  0  0  0  0  0  0  0  0  0  0  0
   -3.1897    5.7754  -18.2126 C   0  0  1  0  0  0  0  0  0  0  0  0
   -2.0663    4.6737  -19.4109 Br  0  0  0  0  0  0  0  0  0  0  0  0
   -3.4113    5.0503  -16.8757 C   0  0  1  0  0  0  0  0  0  0  0  0
   -2.1853    4.9595  -16.1610 O   0  0  0  0  0  0  0  0  0  0  0  0
   -4.2834    5.7873  -15.9889 N   0  0  0  0  0  0  0  0  0  0  0  0
   -5.5979    5.3438  -15.8568 C   0  0  0  0  0  0  0  0  0  0  0  0
   -6.0777    5.2914  -14.5953 N   0  0  0  0  0  0  0  0  0  0  0  0
   -7.3644    4.9365  -14.4223 C   0  0  0  0  0  0  0  0  0  0  0  0
   -7.8882    4.8593  -12.7976 Cl  0  0  0  0  0  0  0  0  0  0  0  0
   -8.2941    4.6741  -15.3420 N   0  0  0  0  0  0  0  0  0  0  0  0
   -7.7720    4.7060  -16.5770 C   0  0  0  0  0  0  0  0  0  0  0  0
   -8.6980    4.3884  -17.9712 S   0  0  0  0  0  0  0  0  0  0  0  0
   -7.2852    4.6003  -18.9207 C   0  0  0  0  0  0  0  0  0  0  0  0
   -6.1907    4.9547  -18.2794 N   0  0  0  0  0  0  0  0  0  0  0  0
   -6.4619    5.0077  -16.9219 C   0  0  0  0  0  0  0  0  0  0  0  0
  2  1  1  1
  2  3  1  0
  2  4  1  0
  4  5  1  1
  4  6  1  0
  6  7  1  0
  7  8  2  0
  8  9  1  0
  9 10  1  0
  9 11  2  0
 11 12  1  0
 12 13  1  0
 13 14  1  0
 14 15  2  0
 15 16  1  0
 16  7  1  0
 16 12  2  0
M  END
>  <energy_score>  (345) 
-78.839832

>  <alias>  (345) 
None

>  <HIPPO Pose ID>  (345) 
69207

>  <smiles>  (345) 
C[C@@H](Br)[C@@H](O)Nc1nc(Cl)nc2scnc12

>  <inchikey>  (345) 
JHUVVNGQGKDYNA-AWFVSMACSA-N

>  <distance_score>  (345) 
0.757966

>  <ref_mols>  (345) 
Z1719a,Z0472a

>  <ref_pdb>  (345) 
Z0472a

>  <HIPPO Compound ID>  (345) 
138721

>  <name>  (345) 
P69207

>  <inspiration_score>  (345) 
None

$$$$
P69208
     RDKit          3D

 16 17  0  0  0  0  0  0  0  0999 V2000
   -6.6701    4.6013  -19.8749 C   0  0  0  0  0  0  0  0  0  0  0  0
   -6.9756    5.0153  -18.4975 C   0  0  0  0  0  0  0  0  0  0  0  0
   -6.1481    5.7789  -17.8198 N   0  0  0  0  0  0  0  0  0  0  0  0
   -6.4125    5.5816  -16.4839 C   0  0  0  0  0  0  0  0  0  0  0  0
   -5.6025    5.9786  -15.4117 C   0  0  0  0  0  0  0  0  0  0  0  0
   -4.4936    6.8046  -15.6470 N   0  0  0  0  0  0  0  0  0  0  0  0
   -3.1944    6.1494  -15.5029 C   0  0  0  0  0  0  0  0  0  0  0  0
   -2.6044    5.5535  -16.8066 C   0  0  0  0  0  0  0  0  0  0  0  0
   -2.6713    6.4697  -18.0280 C   0  0  0  0  0  0  0  0  0  0  0  0
   -3.1671    4.1879  -17.1346 C   0  0  0  0  0  0  0  0  0  0  0  0
   -1.2620    5.3614  -16.5574 F   0  0  0  0  0  0  0  0  0  0  0  0
   -5.9501    5.5911  -14.1677 N   0  0  0  0  0  0  0  0  0  0  0  0
   -7.1108    4.9126  -14.0164 C   0  0  0  0  0  0  0  0  0  0  0  0
   -7.9956    4.5497  -14.9603 N   0  0  0  0  0  0  0  0  0  0  0  0
   -7.5598    4.8729  -16.1866 C   0  0  0  0  0  0  0  0  0  0  0  0
   -8.3424    4.4321  -17.6350 S   0  0  0  0  0  0  0  0  0  0  0  0
  1  2  1  0
  2  3  2  0
  3  4  1  0
  4  5  2  0
  5  6  1  0
  6  7  1  0
  7  8  1  0
  8  9  1  0
  8 10  1  0
  8 11  1  0
  5 12  1  0
 12 13  2  0
 13 14  1  0
 14 15  2  0
 15 16  1  0
 16  2  1  0
 15  4  1  0
M  END
>  <energy_score>  (346) 
-69.029549

>  <alias>  (346) 
None

>  <HIPPO Pose ID>  (346) 
69208

>  <smiles>  (346) 
Cc1nc2c(NCC(C)(C)F)ncnc2s1

>  <inchikey>  (346) 
FLELITZUOGZFKS-UHFFFAOYSA-N

>  <distance_score>  (346) 
0.989526

>  <ref_mols>  (346) 
Z0472a,Z1719a

>  <ref_pdb>  (346) 
Z0472a

>  <HIPPO Compound ID>  (346) 
138722

>  <name>  (346) 
P69208

>  <inspiration_score>  (346) 
None

$$$$
P69210
     RDKit          3D

 16 17  0  0  0  0  0  0  0  0999 V2000
   -6.7295    4.4503  -19.9794 C   0  0  0  0  0  0  0  0  0  0  0  0
   -6.9677    4.8133  -18.5805 C   0  0  0  0  0  0  0  0  0  0  0  0
   -6.0230    5.3960  -17.8835 N   0  0  0  0  0  0  0  0  0  0  0  0
   -6.4133    5.4044  -16.5664 C   0  0  0  0  0  0  0  0  0  0  0  0
   -5.6391    5.8079  -15.4735 C   0  0  0  0  0  0  0  0  0  0  0  0
   -4.3287    6.2873  -15.6107 N   0  0  0  0  0  0  0  0  0  0  0  0
   -3.4954    5.4479  -16.4545 C   0  0  1  0  0  0  0  0  0  0  0  0
   -3.2973    6.1197  -17.6888 O   0  0  0  0  0  0  0  0  0  0  0  0
   -2.1370    5.2373  -15.8024 C   0  0  0  0  0  0  0  0  0  0  0  0
   -2.1917    4.4976  -14.4701 C   0  0  0  0  0  0  0  0  0  0  0  0
   -3.0907    2.9664  -14.5114 Cl  0  0  0  0  0  0  0  0  0  0  0  0
   -6.1717    5.7321  -14.2371 N   0  0  0  0  0  0  0  0  0  0  0  0
   -7.4335    5.2582  -14.1216 C   0  0  0  0  0  0  0  0  0  0  0  0
   -8.2746    4.8764  -15.0960 N   0  0  0  0  0  0  0  0  0  0  0  0
   -7.6908    4.9488  -16.3029 C   0  0  0  0  0  0  0  0  0  0  0  0
   -8.4357    4.4728  -17.7597 S   0  0  0  0  0  0  0  0  0  0  0  0
  1  2  1  0
  2  3  2  0
  3  4  1  0
  4  5  2  0
  5  6  1  0
  6  7  1  0
  7  8  1  6
  7  9  1  0
  9 10  1  0
 10 11  1  0
  5 12  1  0
 12 13  2  0
 13 14  1  0
 14 15  2  0
 15 16  1  0
 16  2  1  0
 15  4  1  0
M  END
>  <energy_score>  (347) 
-63.671977

>  <alias>  (347) 
None

>  <HIPPO Pose ID>  (347) 
69210

>  <smiles>  (347) 
Cc1nc2c(N[C@@H](O)CCCl)ncnc2s1

>  <inchikey>  (347) 
FRBVBMSCZYVDIU-LURJTMIESA-N

>  <distance_score>  (347) 
0.769141

>  <ref_mols>  (347) 
Z1719a,Z0472a

>  <ref_pdb>  (347) 
Z0472a

>  <HIPPO Compound ID>  (347) 
138724

>  <name>  (347) 
P69210

>  <inspiration_score>  (347) 
None

$$$$
P69213
     RDKit          3D

 16 17  0  0  0  0  0  0  0  0999 V2000
   -3.7014    6.0358  -18.4328 O   0  0  0  0  0  0  0  0  0  0  0  0
   -3.5379    5.2423  -17.2731 C   0  0  1  0  0  0  0  0  0  0  0  0
   -2.0481    5.1651  -16.9731 C   0  0  0  0  0  0  0  0  0  0  0  0
   -1.3687    6.5099  -16.7285 C   0  0  0  0  0  0  0  0  0  0  0  0
   -1.5734    7.0593  -15.0434 Cl  0  0  0  0  0  0  0  0  0  0  0  0
   -4.2756    5.8231  -16.1777 N   0  0  0  0  0  0  0  0  0  0  0  0
   -5.5864    5.3935  -15.9751 C   0  0  0  0  0  0  0  0  0  0  0  0
   -6.0120    5.3196  -14.6950 N   0  0  0  0  0  0  0  0  0  0  0  0
   -7.2875    4.9503  -14.4723 C   0  0  0  0  0  0  0  0  0  0  0  0
   -7.7546    4.8657  -12.8301 Cl  0  0  0  0  0  0  0  0  0  0  0  0
   -8.2508    4.6782  -15.3568 N   0  0  0  0  0  0  0  0  0  0  0  0
   -7.7791    4.7278  -16.6106 C   0  0  0  0  0  0  0  0  0  0  0  0
   -8.7414    4.3748  -17.9703 S   0  0  0  0  0  0  0  0  0  0  0  0
   -7.3667    4.6167  -18.9683 C   0  0  0  0  0  0  0  0  0  0  0  0
   -6.2669    5.0357  -18.3766 N   0  0  0  0  0  0  0  0  0  0  0  0
   -6.4929    5.0638  -17.0050 C   0  0  0  0  0  0  0  0  0  0  0  0
  2  1  1  6
  2  3  1  0
  3  4  1  0
  4  5  1  0
  2  6  1  0
  6  7  1  0
  7  8  2  0
  8  9  1  0
  9 10  1  0
  9 11  2  0
 11 12  1  0
 12 13  1  0
 13 14  1  0
 14 15  2  0
 15 16  1  0
 16  7  1  0
 16 12  2  0
M  END
>  <energy_score>  (348) 
-78.473829

>  <alias>  (348) 
None

>  <HIPPO Pose ID>  (348) 
69213

>  <smiles>  (348) 
O[C@@H](CCCl)Nc1nc(Cl)nc2scnc12

>  <inchikey>  (348) 
AYMMDBIXDXVGEU-BYPYZUCNSA-N

>  <distance_score>  (348) 
0.706531

>  <ref_mols>  (348) 
Z0472a,Z1719a

>  <ref_pdb>  (348) 
Z0472a

>  <HIPPO Compound ID>  (348) 
138725

>  <name>  (348) 
P69213

>  <inspiration_score>  (348) 
None

$$$$
P69214
     RDKit          3D

 16 17  0  0  0  0  0  0  0  0999 V2000
   -6.6350    4.5511  -19.8906 C   0  0  0  0  0  0  0  0  0  0  0  0
   -6.8995    4.7744  -18.4628 C   0  0  0  0  0  0  0  0  0  0  0  0
   -5.9339    5.1414  -17.6554 N   0  0  0  0  0  0  0  0  0  0  0  0
   -6.4009    5.1155  -16.3589 C   0  0  0  0  0  0  0  0  0  0  0  0
   -5.6626    5.3229  -15.1783 C   0  0  0  0  0  0  0  0  0  0  0  0
   -4.2993    5.6026  -15.1426 N   0  0  0  0  0  0  0  0  0  0  0  0
   -3.4792    5.0111  -16.1738 C   0  0  2  0  0  0  0  0  0  0  0  0
   -2.3551    4.4456  -15.5214 O   0  0  0  0  0  0  0  0  0  0  0  0
   -3.0865    6.0536  -17.2494 C   0  0  2  0  0  0  0  0  0  0  0  0
   -2.5120    5.4127  -18.5038 C   0  0  0  0  0  0  0  0  0  0  0  0
   -1.8959    7.2559  -16.6208 Cl  0  0  0  0  0  0  0  0  0  0  0  0
   -6.3093    5.2323  -13.9971 N   0  0  0  0  0  0  0  0  0  0  0  0
   -7.6299    4.9485  -14.0094 C   0  0  0  0  0  0  0  0  0  0  0  0
   -8.4320    4.7635  -15.0682 N   0  0  0  0  0  0  0  0  0  0  0  0
   -7.7469    4.8292  -16.2202 C   0  0  0  0  0  0  0  0  0  0  0  0
   -8.4415    4.5415  -17.7516 S   0  0  0  0  0  0  0  0  0  0  0  0
  1  2  1  0
  2  3  2  0
  3  4  1  0
  4  5  2  0
  5  6  1  0
  6  7  1  0
  7  8  1  1
  7  9  1  0
  9 10  1  6
  9 11  1  0
  5 12  1  0
 12 13  2  0
 13 14  1  0
 14 15  2  0
 15 16  1  0
 16  2  1  0
 15  4  1  0
M  END
>  <energy_score>  (349) 
-53.842515

>  <alias>  (349) 
None

>  <HIPPO Pose ID>  (349) 
69214

>  <smiles>  (349) 
Cc1nc2c(N[C@H](O)[C@H](C)Cl)ncnc2s1

>  <inchikey>  (349) 
DVMUVURZZLGVPN-RNHFCUEFSA-N

>  <distance_score>  (349) 
0.938809

>  <ref_mols>  (349) 
Z1719a,Z0472a

>  <ref_pdb>  (349) 
Z0472a

>  <HIPPO Compound ID>  (349) 
138726

>  <name>  (349) 
P69214

>  <inspiration_score>  (349) 
None

$$$$
P69220
     RDKit          3D

 16 17  0  0  0  0  0  0  0  0999 V2000
   -3.7289    6.6094  -18.9269 C   0  0  0  0  0  0  0  0  0  0  0  0
   -2.7921    6.1141  -17.8462 C   0  0  2  0  0  0  0  0  0  0  0  0
   -1.4603    5.2034  -18.6626 Cl  0  0  0  0  0  0  0  0  0  0  0  0
   -3.4322    5.2468  -16.7422 C   0  0  1  0  0  0  0  0  0  0  0  0
   -2.4155    4.8988  -15.8040 O   0  0  0  0  0  0  0  0  0  0  0  0
   -4.3608    6.0023  -15.9336 N   0  0  0  0  0  0  0  0  0  0  0  0
   -5.6480    5.4671  -15.8137 C   0  0  0  0  0  0  0  0  0  0  0  0
   -6.1393    5.3808  -14.5585 N   0  0  0  0  0  0  0  0  0  0  0  0
   -7.4050    4.9538  -14.4033 C   0  0  0  0  0  0  0  0  0  0  0  0
   -7.9396    4.8328  -12.7848 Cl  0  0  0  0  0  0  0  0  0  0  0  0
   -8.3099    4.6515  -15.3355 N   0  0  0  0  0  0  0  0  0  0  0  0
   -7.7758    4.7189  -16.5640 C   0  0  0  0  0  0  0  0  0  0  0  0
   -8.6701    4.3748  -17.9725 S   0  0  0  0  0  0  0  0  0  0  0  0
   -7.2528    4.6447  -18.9009 C   0  0  0  0  0  0  0  0  0  0  0  0
   -6.1857    5.0509  -18.2438 N   0  0  0  0  0  0  0  0  0  0  0  0
   -6.4786    5.0882  -16.8907 C   0  0  0  0  0  0  0  0  0  0  0  0
  2  1  1  6
  2  3  1  0
  2  4  1  0
  4  5  1  1
  4  6  1  0
  6  7  1  0
  7  8  2  0
  8  9  1  0
  9 10  1  0
  9 11  2  0
 11 12  1  0
 12 13  1  0
 13 14  1  0
 14 15  2  0
 15 16  1  0
 16  7  1  0
 16 12  2  0
M  END
>  <energy_score>  (350) 
-74.781325

>  <alias>  (350) 
None

>  <HIPPO Pose ID>  (350) 
69220

>  <smiles>  (350) 
C[C@H](Cl)[C@@H](O)Nc1nc(Cl)nc2scnc12

>  <inchikey>  (350) 
LYMGAMNXXJQZJJ-BBIVZNJYSA-N

>  <distance_score>  (350) 
0.817555

>  <ref_mols>  (350) 
Z1719a,Z0472a

>  <ref_pdb>  (350) 
Z0472a

>  <HIPPO Compound ID>  (350) 
138727

>  <name>  (350) 
P69220

>  <inspiration_score>  (350) 
None

$$$$
P69221
     RDKit          3D

 16 17  0  0  0  0  0  0  0  0999 V2000
   -4.1893    8.0591  -16.7003 C   0  0  0  0  0  0  0  0  0  0  0  0
   -4.1475    6.8835  -17.4943 O   0  0  0  0  0  0  0  0  0  0  0  0
   -3.0397    6.0308  -17.1892 C   0  0  2  0  0  0  0  0  0  0  0  0
   -2.5610    5.4687  -18.5235 C   0  0  0  0  0  0  0  0  0  0  0  0
   -3.3698    4.8850  -16.2003 C   0  0  0  0  0  0  0  0  0  0  0  0
   -4.1832    5.3196  -15.0688 N   0  0  0  0  0  0  0  0  0  0  0  0
   -5.5674    5.1069  -15.1432 C   0  0  0  0  0  0  0  0  0  0  0  0
   -6.2229    5.0835  -13.9584 N   0  0  0  0  0  0  0  0  0  0  0  0
   -7.5621    4.9146  -13.9650 C   0  0  0  0  0  0  0  0  0  0  0  0
   -8.3837    4.7967  -15.0173 N   0  0  0  0  0  0  0  0  0  0  0  0
   -7.6955    4.7731  -16.1703 C   0  0  0  0  0  0  0  0  0  0  0  0
   -8.4366    4.5646  -17.6952 S   0  0  0  0  0  0  0  0  0  0  0  0
   -6.8910    4.6474  -18.4239 C   0  0  0  0  0  0  0  0  0  0  0  0
   -6.6723    4.5148  -19.8695 C   0  0  0  0  0  0  0  0  0  0  0  0
   -5.8792    4.8252  -17.6152 N   0  0  0  0  0  0  0  0  0  0  0  0
   -6.3257    4.9131  -16.3174 C   0  0  0  0  0  0  0  0  0  0  0  0
  1  2  1  0
  2  3  1  0
  3  4  1  6
  3  5  1  0
  5  6  1  0
  6  7  1  0
  7  8  2  0
  8  9  1  0
  9 10  2  0
 10 11  1  0
 11 12  1  0
 12 13  1  0
 13 14  1  0
 13 15  2  0
 15 16  1  0
 16  7  1  0
 16 11  2  0
M  END
>  <energy_score>  (351) 
-64.627404

>  <alias>  (351) 
None

>  <HIPPO Pose ID>  (351) 
69221

>  <smiles>  (351) 
CO[C@H](C)CNc1ncnc2sc(C)nc12

>  <inchikey>  (351) 
ORZFIZVGXKNASJ-ZCFIWIBFSA-N

>  <distance_score>  (351) 
0.968747

>  <ref_mols>  (351) 
Z1719a,Z0472a

>  <ref_pdb>  (351) 
Z0472a

>  <HIPPO Compound ID>  (351) 
138728

>  <name>  (351) 
P69221

>  <inspiration_score>  (351) 
None

$$$$
P69227
     RDKit          3D

 16 17  0  0  0  0  0  0  0  0999 V2000
   -2.4919    4.3018  -14.9909 O   0  0  0  0  0  0  0  0  0  0  0  0
   -1.9095    5.3003  -15.8202 C   0  0  0  0  0  0  0  0  0  0  0  0
   -2.9332    5.8382  -16.8032 C   0  0  0  0  0  0  0  0  0  0  0  0
   -3.7883    6.9143  -16.1409 C   0  0  0  0  0  0  0  0  0  0  0  0
   -4.5223    6.3745  -14.9877 N   0  0  0  0  0  0  0  0  0  0  0  0
   -5.7870    5.8082  -15.1456 C   0  0  0  0  0  0  0  0  0  0  0  0
   -6.4598    5.4801  -14.0196 N   0  0  0  0  0  0  0  0  0  0  0  0
   -7.6660    4.8782  -14.1423 C   0  0  0  0  0  0  0  0  0  0  0  0
   -8.3376    4.5779  -15.2640 N   0  0  0  0  0  0  0  0  0  0  0  0
   -7.6297    4.8959  -16.3573 C   0  0  0  0  0  0  0  0  0  0  0  0
   -8.1304    4.5562  -17.9573 S   0  0  0  0  0  0  0  0  0  0  0  0
   -6.6315    5.1736  -18.5195 C   0  0  0  0  0  0  0  0  0  0  0  0
   -6.1302    5.0073  -19.8972 C   0  0  0  0  0  0  0  0  0  0  0  0
   -4.3050    4.9580  -19.8473 Cl  0  0  0  0  0  0  0  0  0  0  0  0
   -5.9176    5.8069  -17.6228 N   0  0  0  0  0  0  0  0  0  0  0  0
   -6.3970    5.5205  -16.3767 C   0  0  0  0  0  0  0  0  0  0  0  0
  1  2  1  0
  2  3  1  0
  3  4  1  0
  4  5  1  0
  5  6  1  0
  6  7  2  0
  7  8  1  0
  8  9  2  0
  9 10  1  0
 10 11  1  0
 11 12  1  0
 12 13  1  0
 13 14  1  0
 12 15  2  0
 15 16  1  0
 16  6  1  0
 16 10  2  0
M  END
>  <energy_score>  (352) 
-68.627405

>  <alias>  (352) 
None

>  <HIPPO Pose ID>  (352) 
69227

>  <smiles>  (352) 
OCCCNc1ncnc2sc(CCl)nc12

>  <inchikey>  (352) 
BKCRWCCHFZAGJG-UHFFFAOYSA-N

>  <distance_score>  (352) 
1.087002

>  <ref_mols>  (352) 
Z0472a,Z1719a

>  <ref_pdb>  (352) 
Z0472a

>  <HIPPO Compound ID>  (352) 
138732

>  <name>  (352) 
P69227

>  <inspiration_score>  (352) 
None

$$$$
P69228
     RDKit          3D

 16 17  0  0  0  0  0  0  0  0999 V2000
   -2.4250    4.2870  -15.0633 F   0  0  0  0  0  0  0  0  0  0  0  0
   -1.8857    5.2538  -15.8521 C   0  0  0  0  0  0  0  0  0  0  0  0
   -2.9079    5.6940  -16.8741 C   0  0  0  0  0  0  0  0  0  0  0  0
   -3.7215    6.8559  -16.3238 C   0  0  0  0  0  0  0  0  0  0  0  0
   -4.5013    6.5235  -15.1270 N   0  0  0  0  0  0  0  0  0  0  0  0
   -5.6943    5.8108  -15.2058 C   0  0  0  0  0  0  0  0  0  0  0  0
   -6.2944    5.4378  -14.0514 N   0  0  0  0  0  0  0  0  0  0  0  0
   -7.5024    4.8299  -14.1234 C   0  0  0  0  0  0  0  0  0  0  0  0
   -8.2314    4.5411  -15.2142 N   0  0  0  0  0  0  0  0  0  0  0  0
   -7.5662    4.8502  -16.3369 C   0  0  0  0  0  0  0  0  0  0  0  0
   -8.1468    4.5428  -17.9182 S   0  0  0  0  0  0  0  0  0  0  0  0
   -6.6623    5.1245  -18.5397 C   0  0  0  0  0  0  0  0  0  0  0  0
   -6.2341    5.0402  -19.9433 C   0  0  0  0  0  0  0  0  0  0  0  0
   -5.6479    6.6808  -20.4543 Cl  0  0  0  0  0  0  0  0  0  0  0  0
   -5.8417    5.6427  -17.6648 N   0  0  0  0  0  0  0  0  0  0  0  0
   -6.3289    5.4608  -16.4056 C   0  0  0  0  0  0  0  0  0  0  0  0
  1  2  1  0
  2  3  1  0
  3  4  1  0
  4  5  1  0
  5  6  1  0
  6  7  2  0
  7  8  1  0
  8  9  2  0
  9 10  1  0
 10 11  1  0
 11 12  1  0
 12 13  1  0
 13 14  1  0
 12 15  2  0
 15 16  1  0
 16  6  1  0
 16 10  2  0
M  END
>  <energy_score>  (353) 
-27.090074

>  <alias>  (353) 
None

>  <HIPPO Pose ID>  (353) 
69228

>  <smiles>  (353) 
FCCCNc1ncnc2sc(CCl)nc12

>  <inchikey>  (353) 
GDUPMDVTYFAOAY-UHFFFAOYSA-N

>  <distance_score>  (353) 
1.232971

>  <ref_mols>  (353) 
Z1719a,Z0472a

>  <ref_pdb>  (353) 
Z0472a

>  <HIPPO Compound ID>  (353) 
138733

>  <name>  (353) 
P69228

>  <inspiration_score>  (353) 
None

$$$$
P69232
     RDKit          3D

 16 17  0  0  0  0  0  0  0  0999 V2000
   -1.6972    6.5340  -18.4797 C   0  0  0  0  0  0  0  0  0  0  0  0
   -3.2243    5.5944  -18.5095 S   0  0  0  0  0  0  0  0  0  0  0  0
   -4.3239    6.8286  -17.7394 C   0  0  0  0  0  0  0  0  0  0  0  0
   -4.2112    7.0132  -16.2212 C   0  0  0  0  0  0  0  0  0  0  0  0
   -3.8197    5.7947  -15.3844 C   0  0  0  0  0  0  0  0  0  0  0  0
   -4.5115    4.5927  -15.8082 N   0  0  0  0  0  0  0  0  0  0  0  0
   -5.8966    4.6508  -15.6054 C   0  0  0  0  0  0  0  0  0  0  0  0
   -6.3712    4.7780  -14.3534 N   0  0  0  0  0  0  0  0  0  0  0  0
   -7.7018    4.7537  -14.1934 C   0  0  0  0  0  0  0  0  0  0  0  0
   -8.2209    4.8857  -12.5732 Cl  0  0  0  0  0  0  0  0  0  0  0  0
   -8.6707    4.7064  -15.1164 N   0  0  0  0  0  0  0  0  0  0  0  0
   -8.1511    4.5885  -16.3486 C   0  0  0  0  0  0  0  0  0  0  0  0
   -9.1027    4.4273  -17.7540 S   0  0  0  0  0  0  0  0  0  0  0  0
   -7.6706    4.4234  -18.6985 C   0  0  0  0  0  0  0  0  0  0  0  0
   -6.5356    4.5160  -18.0386 N   0  0  0  0  0  0  0  0  0  0  0  0
   -6.8081    4.5721  -16.6794 C   0  0  0  0  0  0  0  0  0  0  0  0
  1  2  1  0
  2  3  1  0
  3  4  1  0
  4  5  1  0
  5  6  1  0
  6  7  1  0
  7  8  2  0
  8  9  1  0
  9 10  1  0
  9 11  2  0
 11 12  1  0
 12 13  1  0
 13 14  1  0
 14 15  2  0
 15 16  1  0
 16  7  1  0
 16 12  2  0
M  END
>  <energy_score>  (354) 
-54.243591

>  <alias>  (354) 
None

>  <HIPPO Pose ID>  (354) 
69232

>  <smiles>  (354) 
CSCCCNc1nc(Cl)nc2scnc12

>  <inchikey>  (354) 
LTUPYPZEMHVCQL-UHFFFAOYSA-N

>  <distance_score>  (354) 
1.131368

>  <ref_mols>  (354) 
Z0472a,Z1719a

>  <ref_pdb>  (354) 
Z0472a

>  <HIPPO Compound ID>  (354) 
138736

>  <name>  (354) 
P69232

>  <inspiration_score>  (354) 
None

$$$$
P69234
     RDKit          3D

 16 18  0  0  0  0  0  0  0  0999 V2000
   -2.3766    5.5540  -18.6978 C   0  0  0  0  0  0  0  0  0  0  0  0
   -2.5631    5.2102  -17.4223 C   0  0  0  0  0  0  0  0  0  0  0  0
   -1.9832    5.7523  -16.1145 C   0  0  0  0  0  0  0  0  0  0  0  0
   -3.2227    5.0164  -15.5772 C   0  0  1  0  0  0  0  0  0  0  0  0
   -4.2984    5.9469  -15.2714 N   0  0  0  0  0  0  0  0  0  0  0  0
   -5.6147    5.4239  -15.1883 C   0  0  0  0  0  0  0  0  0  0  0  0
   -6.1636    5.0918  -14.0006 N   0  0  0  0  0  0  0  0  0  0  0  0
   -7.4429    4.6543  -14.0000 C   0  0  0  0  0  0  0  0  0  0  0  0
   -8.2738    4.4973  -15.0430 N   0  0  0  0  0  0  0  0  0  0  0  0
   -7.6599    4.7668  -16.2047 C   0  0  0  0  0  0  0  0  0  0  0  0
   -8.3581    4.5142  -17.7388 S   0  0  0  0  0  0  0  0  0  0  0  0
   -6.8574    4.9559  -18.4504 C   0  0  0  0  0  0  0  0  0  0  0  0
   -6.5365    4.6820  -19.8595 C   0  0  0  0  0  0  0  0  0  0  0  0
   -5.9747    5.5038  -17.6459 N   0  0  0  0  0  0  0  0  0  0  0  0
   -6.3768    5.2545  -16.3546 C   0  0  0  0  0  0  0  0  0  0  0  0
   -3.3244    4.3412  -16.8648 O   0  0  0  0  0  0  0  0  0  0  0  0
  1  2  2  0
  2  3  1  0
  3  4  1  0
  4  5  1  6
  5  6  1  0
  6  7  2  0
  7  8  1  0
  8  9  2  0
  9 10  1  0
 10 11  1  0
 11 12  1  0
 12 13  1  0
 12 14  2  0
 14 15  1  0
  4 16  1  0
 16  2  1  0
 15  6  1  0
 15 10  2  0
M  END
>  <energy_score>  (355) 
-71.534952

>  <alias>  (355) 
None

>  <HIPPO Pose ID>  (355) 
69234

>  <smiles>  (355) 
C=C1C[C@@H](Nc2ncnc3sc(C)nc23)O1

>  <inchikey>  (355) 
BJIODQJGNUXIRR-ZETCQYMHSA-N

>  <distance_score>  (355) 
0.898076

>  <ref_mols>  (355) 
Z1719a,Z0472a

>  <ref_pdb>  (355) 
Z0472a

>  <HIPPO Compound ID>  (355) 
138737

>  <name>  (355) 
P69234

>  <inspiration_score>  (355) 
None

$$$$
P69236
     RDKit          3D

 16 18  0  0  0  0  0  0  0  0999 V2000
   -2.3122    5.6109  -19.0529 C   0  0  0  0  0  0  0  0  0  0  0  0
   -2.6166    5.2799  -17.7987 C   0  0  0  0  0  0  0  0  0  0  0  0
   -2.1356    5.8132  -16.4507 C   0  0  0  0  0  0  0  0  0  0  0  0
   -3.4238    5.1068  -16.0167 C   0  0  1  0  0  0  0  0  0  0  0  0
   -4.5133    6.0399  -15.8216 N   0  0  0  0  0  0  0  0  0  0  0  0
   -5.7964    5.4748  -15.6371 C   0  0  0  0  0  0  0  0  0  0  0  0
   -6.2425    5.2240  -14.3925 N   0  0  0  0  0  0  0  0  0  0  0  0
   -7.4898    4.7384  -14.2702 C   0  0  0  0  0  0  0  0  0  0  0  0
   -8.0183    4.5128  -12.6615 Cl  0  0  0  0  0  0  0  0  0  0  0  0
   -8.3974    4.4870  -15.2215 N   0  0  0  0  0  0  0  0  0  0  0  0
   -7.8840    4.6898  -16.4438 C   0  0  0  0  0  0  0  0  0  0  0  0
   -8.7345    4.3677  -17.8840 S   0  0  0  0  0  0  0  0  0  0  0  0
   -7.3366    4.8236  -18.7745 C   0  0  0  0  0  0  0  0  0  0  0  0
   -6.3378    5.3347  -18.0838 N   0  0  0  0  0  0  0  0  0  0  0  0
   -6.6255    5.1842  -16.7372 C   0  0  0  0  0  0  0  0  0  0  0  0
   -3.4505    4.4391  -17.3077 O   0  0  0  0  0  0  0  0  0  0  0  0
  1  2  2  0
  2  3  1  0
  3  4  1  0
  4  5  1  6
  5  6  1  0
  6  7  2  0
  7  8  1  0
  8  9  1  0
  8 10  2  0
 10 11  1  0
 11 12  1  0
 12 13  1  0
 13 14  2  0
 14 15  1  0
  4 16  1  0
 16  2  1  0
 15  6  1  0
 15 11  2  0
M  END
>  <energy_score>  (356) 
-76.577803

>  <alias>  (356) 
None

>  <HIPPO Pose ID>  (356) 
69236

>  <smiles>  (356) 
C=C1C[C@@H](Nc2nc(Cl)nc3scnc23)O1

>  <inchikey>  (356) 
AEASFONDBDRCIA-YFKPBYRVSA-N

>  <distance_score>  (356) 
0.904009

>  <ref_mols>  (356) 
Z0472a,Z1719a

>  <ref_pdb>  (356) 
Z0472a

>  <HIPPO Compound ID>  (356) 
138738

>  <name>  (356) 
P69236

>  <inspiration_score>  (356) 
None

$$$$
P69238
     RDKit          3D

 16 17  0  0  0  0  0  0  0  0999 V2000
   -6.8268    4.3934  -20.0069 C   0  0  0  0  0  0  0  0  0  0  0  0
   -7.0423    4.8047  -18.6192 C   0  0  0  0  0  0  0  0  0  0  0  0
   -6.0949    5.4402  -17.9747 N   0  0  0  0  0  0  0  0  0  0  0  0
   -6.4208    5.4251  -16.6413 C   0  0  0  0  0  0  0  0  0  0  0  0
   -5.5866    5.8288  -15.5938 C   0  0  0  0  0  0  0  0  0  0  0  0
   -4.3099    6.3672  -15.8439 N   0  0  0  0  0  0  0  0  0  0  0  0
   -3.5008    5.4957  -16.6823 C   0  0  1  0  0  0  0  0  0  0  0  0
   -3.4266    6.0846  -17.9704 O   0  0  0  0  0  0  0  0  0  0  0  0
   -2.0959    5.3733  -16.0864 C   0  0  0  0  0  0  0  0  0  0  0  0
   -2.1482    4.5747  -14.7829 C   0  0  0  0  0  0  0  0  0  0  0  0
   -1.3950    6.7186  -15.8715 C   0  0  0  0  0  0  0  0  0  0  0  0
   -6.0439    5.7033  -14.3304 N   0  0  0  0  0  0  0  0  0  0  0  0
   -7.2869    5.2033  -14.1474 C   0  0  0  0  0  0  0  0  0  0  0  0
   -8.1791    4.8240  -15.0782 N   0  0  0  0  0  0  0  0  0  0  0  0
   -7.6673    4.9288  -16.3141 C   0  0  0  0  0  0  0  0  0  0  0  0
   -8.4688    4.4413  -17.7369 S   0  0  0  0  0  0  0  0  0  0  0  0
  1  2  1  0
  2  3  2  0
  3  4  1  0
  4  5  2  0
  5  6  1  0
  6  7  1  0
  7  8  1  6
  7  9  1  0
  9 10  1  0
  9 11  1  0
  5 12  1  0
 12 13  2  0
 13 14  1  0
 14 15  2  0
 15 16  1  0
 16  2  1  0
 15  4  1  0
M  END
>  <energy_score>  (357) 
-74.322303

>  <alias>  (357) 
None

>  <HIPPO Pose ID>  (357) 
69238

>  <smiles>  (357) 
Cc1nc2c(N[C@@H](O)C(C)C)ncnc2s1

>  <inchikey>  (357) 
YHBKHCHOOUHNAT-VIFPVBQESA-N

>  <distance_score>  (357) 
0.74705

>  <ref_mols>  (357) 
Z1719a,Z0472a

>  <ref_pdb>  (357) 
Z0472a

>  <HIPPO Compound ID>  (357) 
138739

>  <name>  (357) 
P69238

>  <inspiration_score>  (357) 
None

$$$$
P69240
     RDKit          3D

 16 17  0  0  0  0  0  0  0  0999 V2000
   -3.7437    5.8774  -19.7474 C   0  0  0  0  0  0  0  0  0  0  0  0
   -2.8280    5.8646  -18.5195 C   0  0  0  0  0  0  0  0  0  0  0  0
   -1.5479    5.0987  -18.8666 C   0  0  0  0  0  0  0  0  0  0  0  0
   -3.5342    5.2693  -17.2735 C   0  0  1  0  0  0  0  0  0  0  0  0
   -2.5957    5.1193  -16.2298 O   0  0  0  0  0  0  0  0  0  0  0  0
   -4.5240    6.2032  -16.7515 N   0  0  0  0  0  0  0  0  0  0  0  0
   -5.6557    5.5287  -16.2331 C   0  0  0  0  0  0  0  0  0  0  0  0
   -5.8283    5.4138  -14.8983 N   0  0  0  0  0  0  0  0  0  0  0  0
   -7.0115    4.9284  -14.4653 C   0  0  0  0  0  0  0  0  0  0  0  0
   -7.2055    4.8283  -12.7692 Cl  0  0  0  0  0  0  0  0  0  0  0  0
   -8.0900    4.5727  -15.1719 N   0  0  0  0  0  0  0  0  0  0  0  0
   -7.8466    4.6452  -16.4867 C   0  0  0  0  0  0  0  0  0  0  0  0
   -8.9904    4.2227  -17.6729 S   0  0  0  0  0  0  0  0  0  0  0  0
   -7.8052    4.5329  -18.8752 C   0  0  0  0  0  0  0  0  0  0  0  0
   -6.6716    5.0670  -18.4690 N   0  0  0  0  0  0  0  0  0  0  0  0
   -6.6825    5.0885  -17.0882 C   0  0  0  0  0  0  0  0  0  0  0  0
  1  2  1  0
  2  3  1  0
  2  4  1  0
  4  5  1  1
  4  6  1  0
  6  7  1  0
  7  8  2  0
  8  9  1  0
  9 10  1  0
  9 11  2  0
 11 12  1  0
 12 13  1  0
 13 14  1  0
 14 15  2  0
 15 16  1  0
 16  7  1  0
 16 12  2  0
M  END
>  <energy_score>  (358) 
-47.66866

>  <alias>  (358) 
None

>  <HIPPO Pose ID>  (358) 
69240

>  <smiles>  (358) 
CC(C)[C@@H](O)Nc1nc(Cl)nc2scnc12

>  <inchikey>  (358) 
LSMAUYTUOSCOGF-SSDOTTSWSA-N

>  <distance_score>  (358) 
0.742366

>  <ref_mols>  (358) 
Z1719a,Z0472a

>  <ref_pdb>  (358) 
Z0472a

>  <HIPPO Compound ID>  (358) 
138740

>  <name>  (358) 
P69240

>  <inspiration_score>  (358) 
None

$$$$
P69241
     RDKit          3D

 16 17  0  0  0  0  0  0  0  0999 V2000
   -2.4940    4.7174  -16.3170 O   0  0  0  0  0  0  0  0  0  0  0  0
   -3.5060    5.1755  -17.1974 C   0  0  2  0  0  0  0  0  0  0  0  0
   -2.8218    5.9524  -18.3195 C   0  0  0  0  0  0  0  0  0  0  0  0
   -3.7614    6.2512  -19.4712 C   0  0  0  0  0  0  0  0  0  0  0  0
   -2.7446    7.0327  -20.9474 Br  0  0  0  0  0  0  0  0  0  0  0  0
   -4.3344    6.0324  -16.3849 N   0  0  0  0  0  0  0  0  0  0  0  0
   -5.6017    5.5233  -16.0809 C   0  0  0  0  0  0  0  0  0  0  0  0
   -5.9634    5.4885  -14.7794 N   0  0  0  0  0  0  0  0  0  0  0  0
   -7.2106    5.0683  -14.4853 C   0  0  0  0  0  0  0  0  0  0  0  0
   -7.5924    4.9916  -12.8205 Cl  0  0  0  0  0  0  0  0  0  0  0  0
   -8.2000    4.7225  -15.3117 N   0  0  0  0  0  0  0  0  0  0  0  0
   -7.7884    4.7396  -16.5875 C   0  0  0  0  0  0  0  0  0  0  0  0
   -8.8051    4.3236  -17.8885 S   0  0  0  0  0  0  0  0  0  0  0  0
   -7.4794    4.5508  -18.9537 C   0  0  0  0  0  0  0  0  0  0  0  0
   -6.3639    5.0060  -18.4229 N   0  0  0  0  0  0  0  0  0  0  0  0
   -6.5328    5.0999  -17.0523 C   0  0  0  0  0  0  0  0  0  0  0  0
  2  1  1  1
  2  3  1  0
  3  4  1  0
  4  5  1  0
  2  6  1  0
  6  7  1  0
  7  8  2  0
  8  9  1  0
  9 10  1  0
  9 11  2  0
 11 12  1  0
 12 13  1  0
 13 14  1  0
 14 15  2  0
 15 16  1  0
 16  7  1  0
 16 12  2  0
M  END
>  <energy_score>  (359) 
-81.158422

>  <alias>  (359) 
None

>  <HIPPO Pose ID>  (359) 
69241

>  <smiles>  (359) 
O[C@H](CCBr)Nc1nc(Cl)nc2scnc12

>  <inchikey>  (359) 
GMOPWLFSCPGTFQ-SCSAIBSYSA-N

>  <distance_score>  (359) 
0.543447

>  <ref_mols>  (359) 
Z0472a,Z1719a

>  <ref_pdb>  (359) 
Z0472a

>  <HIPPO Compound ID>  (359) 
138741

>  <name>  (359) 
P69241

>  <inspiration_score>  (359) 
None

$$$$
P69243
     RDKit          3D

 16 18  0  0  0  0  0  0  0  0999 V2000
   -5.6880    6.9079  -20.3627 Cl  0  0  0  0  0  0  0  0  0  0  0  0
   -6.1449    5.2386  -19.8797 C   0  0  0  0  0  0  0  0  0  0  0  0
   -6.5579    5.2323  -18.4634 C   0  0  0  0  0  0  0  0  0  0  0  0
   -5.7127    5.5952  -17.5258 N   0  0  0  0  0  0  0  0  0  0  0  0
   -6.2028    5.1956  -16.3115 C   0  0  0  0  0  0  0  0  0  0  0  0
   -5.5117    5.1911  -15.0892 C   0  0  0  0  0  0  0  0  0  0  0  0
   -4.2061    5.7168  -14.9718 N   0  0  0  0  0  0  0  0  0  0  0  0
   -3.1657    4.7846  -15.4394 C   0  0  0  0  0  0  0  0  0  0  0  0
   -3.0154    4.8049  -16.9361 C   0  0  1  0  0  0  0  0  0  0  0  0
   -2.7705    6.0854  -17.7079 C   0  0  0  0  0  0  0  0  0  0  0  0
   -1.7202    5.1615  -17.4402 O   0  0  0  0  0  0  0  0  0  0  0  0
   -6.1540    4.7142  -14.0015 N   0  0  0  0  0  0  0  0  0  0  0  0
   -7.4399    4.3145  -14.1419 C   0  0  0  0  0  0  0  0  0  0  0  0
   -8.1976    4.3146  -15.2511 N   0  0  0  0  0  0  0  0  0  0  0  0
   -7.4997    4.7211  -16.3194 C   0  0  0  0  0  0  0  0  0  0  0  0
   -8.0878    4.6755  -17.9217 S   0  0  0  0  0  0  0  0  0  0  0  0
  1  2  1  0
  2  3  1  0
  3  4  2  0
  4  5  1  0
  5  6  2  0
  6  7  1  0
  7  8  1  0
  9  8  1  1
  9 10  1  0
 10 11  1  0
  6 12  1  0
 12 13  2  0
 13 14  1  0
 14 15  2  0
 15 16  1  0
 16  3  1  0
 15  5  1  0
 11  9  1  0
M  END
>  <energy_score>  (360) 
-33.30055

>  <alias>  (360) 
None

>  <HIPPO Pose ID>  (360) 
69243

>  <smiles>  (360) 
ClCc1nc2c(NC[C@H]3CO3)ncnc2s1

>  <inchikey>  (360) 
ULUBCJYFEWGNRD-YFKPBYRVSA-N

>  <distance_score>  (360) 
1.002304

>  <ref_mols>  (360) 
Z1719a,Z0472a

>  <ref_pdb>  (360) 
Z0472a

>  <HIPPO Compound ID>  (360) 
138742

>  <name>  (360) 
P69243

>  <inspiration_score>  (360) 
None

$$$$
P69245
     RDKit          3D

 16 17  0  0  0  0  0  0  0  0999 V2000
   -2.3169    5.3949  -18.7755 C   0  0  0  0  0  0  0  0  0  0  0  0
   -2.6562    5.7724  -17.3453 C   0  0  0  0  0  0  0  0  0  0  0  0
   -3.1302    4.5709  -16.5266 C   0  0  0  0  0  0  0  0  0  0  0  0
   -3.4376    4.8884  -15.0594 C   0  0  0  0  0  0  0  0  0  0  0  0
   -4.4889    5.9017  -14.9032 N   0  0  0  0  0  0  0  0  0  0  0  0
   -5.7761    5.3418  -15.0543 C   0  0  0  0  0  0  0  0  0  0  0  0
   -6.4295    4.8299  -13.9915 N   0  0  0  0  0  0  0  0  0  0  0  0
   -7.6763    4.3452  -14.1838 C   0  0  0  0  0  0  0  0  0  0  0  0
   -8.3861    4.2969  -15.3243 N   0  0  0  0  0  0  0  0  0  0  0  0
   -7.6700    4.7423  -16.3649 C   0  0  0  0  0  0  0  0  0  0  0  0
   -8.1804    4.6358  -17.9896 S   0  0  0  0  0  0  0  0  0  0  0  0
   -6.6556    5.2603  -18.4766 C   0  0  0  0  0  0  0  0  0  0  0  0
   -6.1796    5.2257  -19.8752 C   0  0  0  0  0  0  0  0  0  0  0  0
   -5.6386    6.8686  -20.3677 Cl  0  0  0  0  0  0  0  0  0  0  0  0
   -5.8796    5.6982  -17.5092 N   0  0  0  0  0  0  0  0  0  0  0  0
   -6.4083    5.2986  -16.3073 C   0  0  0  0  0  0  0  0  0  0  0  0
  1  2  1  0
  2  3  1  0
  3  4  1  0
  4  5  1  0
  5  6  1  0
  6  7  2  0
  7  8  1  0
  8  9  2  0
  9 10  1  0
 10 11  1  0
 11 12  1  0
 12 13  1  0
 13 14  1  0
 12 15  2  0
 15 16  1  0
 16  6  1  0
 16 10  2  0
M  END
>  <energy_score>  (361) 
-66.732286

>  <alias>  (361) 
None

>  <HIPPO Pose ID>  (361) 
69245

>  <smiles>  (361) 
CCCCNc1ncnc2sc(CCl)nc12

>  <inchikey>  (361) 
LFLHPRGESSHOCG-UHFFFAOYSA-N

>  <distance_score>  (361) 
1.062981

>  <ref_mols>  (361) 
Z1719a,Z0472a

>  <ref_pdb>  (361) 
Z0472a

>  <HIPPO Compound ID>  (361) 
138743

>  <name>  (361) 
P69245

>  <inspiration_score>  (361) 
None

$$$$
P69247
     RDKit          3D

 16 17  0  0  0  0  0  0  0  0999 V2000
   -2.4378    5.5748  -18.3693 C   0  0  0  0  0  0  0  0  0  0  0  0
   -2.7826    6.0698  -16.9724 C   0  0  1  0  0  0  0  0  0  0  0  0
   -4.0791    7.5213  -17.1380 Br  0  0  0  0  0  0  0  0  0  0  0  0
   -3.1938    4.9391  -16.0187 C   0  0  0  0  0  0  0  0  0  0  0  0
   -4.0931    5.3419  -14.9397 N   0  0  0  0  0  0  0  0  0  0  0  0
   -5.4604    5.0601  -15.0599 C   0  0  0  0  0  0  0  0  0  0  0  0
   -6.1750    4.9965  -13.9132 N   0  0  0  0  0  0  0  0  0  0  0  0
   -7.5131    4.8191  -13.9974 C   0  0  0  0  0  0  0  0  0  0  0  0
   -8.2787    4.7300  -15.0964 N   0  0  0  0  0  0  0  0  0  0  0  0
   -7.5310    4.7491  -16.2107 C   0  0  0  0  0  0  0  0  0  0  0  0
   -8.1824    4.6604  -17.7893 S   0  0  0  0  0  0  0  0  0  0  0  0
   -6.5969    4.8006  -18.4200 C   0  0  0  0  0  0  0  0  0  0  0  0
   -6.2850    4.9015  -19.8556 C   0  0  0  0  0  0  0  0  0  0  0  0
   -5.7680    6.5847  -20.2250 Cl  0  0  0  0  0  0  0  0  0  0  0  0
   -5.6274    4.8258  -17.5388 N   0  0  0  0  0  0  0  0  0  0  0  0
   -6.1548    4.8766  -16.2725 C   0  0  0  0  0  0  0  0  0  0  0  0
  2  1  1  6
  2  3  1  0
  2  4  1  0
  4  5  1  0
  5  6  1  0
  6  7  2  0
  7  8  1  0
  8  9  2  0
  9 10  1  0
 10 11  1  0
 11 12  1  0
 12 13  1  0
 13 14  1  0
 12 15  2  0
 15 16  1  0
 16  6  1  0
 16 10  2  0
M  END
>  <energy_score>  (362) 
-68.052111

>  <alias>  (362) 
None

>  <HIPPO Pose ID>  (362) 
69247

>  <smiles>  (362) 
C[C@@H](Br)CNc1ncnc2sc(CCl)nc12

>  <inchikey>  (362) 
NAFOHMCABRCHLT-RXMQYKEDSA-N

>  <distance_score>  (362) 
1.041982

>  <ref_mols>  (362) 
Z1719a,Z0472a

>  <ref_pdb>  (362) 
Z0472a

>  <HIPPO Compound ID>  (362) 
138744

>  <name>  (362) 
P69247

>  <inspiration_score>  (362) 
None

$$$$
P69251
     RDKit          3D

 17 18  0  0  0  0  0  0  0  0999 V2000
    0.0374    5.1075  -14.1095 C   0  0  0  0  0  0  0  0  0  0  0  0
   -1.4646    5.0589  -14.3517 C   0  0  0  0  0  0  0  0  0  0  0  0
   -1.8164    5.5532  -15.7502 C   0  0  0  0  0  0  0  0  0  0  0  0
   -3.3114    5.7168  -15.9588 C   0  0  1  0  0  0  0  0  0  0  0  0
   -3.4842    5.8739  -17.3028 F   0  0  0  0  0  0  0  0  0  0  0  0
   -3.9881    4.5133  -15.4883 N   0  0  0  0  0  0  0  0  0  0  0  0
   -5.3725    4.7510  -15.3444 C   0  0  0  0  0  0  0  0  0  0  0  0
   -5.9724    4.9359  -14.1537 N   0  0  0  0  0  0  0  0  0  0  0  0
   -7.3264    5.0278  -14.1476 C   0  0  0  0  0  0  0  0  0  0  0  0
   -8.1878    5.0230  -15.1908 N   0  0  0  0  0  0  0  0  0  0  0  0
   -7.5301    4.8529  -16.3507 C   0  0  0  0  0  0  0  0  0  0  0  0
   -8.2361    4.8055  -17.9096 S   0  0  0  0  0  0  0  0  0  0  0  0
   -6.6604    4.7393  -18.5818 C   0  0  0  0  0  0  0  0  0  0  0  0
   -6.3134    4.9270  -19.9915 C   0  0  0  0  0  0  0  0  0  0  0  0
   -5.7751    6.6352  -20.2141 Cl  0  0  0  0  0  0  0  0  0  0  0  0
   -5.6813    4.5588  -17.7383 N   0  0  0  0  0  0  0  0  0  0  0  0
   -6.1677    4.7117  -16.4836 C   0  0  0  0  0  0  0  0  0  0  0  0
  1  2  1  0
  2  3  1  0
  3  4  1  0
  4  5  1  6
  4  6  1  0
  6  7  1  0
  7  8  2  0
  8  9  1  0
  9 10  2  0
 10 11  1  0
 11 12  1  0
 12 13  1  0
 13 14  1  0
 14 15  1  0
 13 16  2  0
 16 17  1  0
 17  7  1  0
 17 11  2  0
M  END
>  <energy_score>  (363) 
-32.030291

>  <alias>  (363) 
None

>  <HIPPO Pose ID>  (363) 
69251

>  <smiles>  (363) 
CCC[C@@H](F)Nc1ncnc2sc(CCl)nc12

>  <inchikey>  (363) 
MGMBYGKWWFUGKA-LURJTMIESA-N

>  <distance_score>  (363) 
1.132905

>  <ref_mols>  (363) 
Z0472a,Z1719a

>  <ref_pdb>  (363) 
Z0472a

>  <HIPPO Compound ID>  (363) 
138746

>  <name>  (363) 
P69251

>  <inspiration_score>  (363) 
None

$$$$
P69254
     RDKit          3D

 17 19  0  0  0  0  0  0  0  0999 V2000
   -2.7713    6.4146  -18.2752 C   0  0  0  0  0  0  0  0  0  0  0  0
   -2.2334    5.3505  -17.3436 C   0  0  1  0  0  0  0  0  0  0  0  0
   -1.9621    5.7428  -15.8901 C   0  0  0  0  0  0  0  0  0  0  0  0
   -3.1034    4.7750  -15.5526 C   0  0  1  0  0  0  0  0  0  0  0  0
   -4.1736    5.4643  -14.8927 N   0  0  0  0  0  0  0  0  0  0  0  0
   -5.5318    5.1303  -15.0679 C   0  0  0  0  0  0  0  0  0  0  0  0
   -6.2597    4.8690  -13.9563 N   0  0  0  0  0  0  0  0  0  0  0  0
   -7.5668    4.5563  -14.1116 C   0  0  0  0  0  0  0  0  0  0  0  0
   -8.2824    4.5027  -15.2439 N   0  0  0  0  0  0  0  0  0  0  0  0
   -7.5211    4.7608  -16.3180 C   0  0  0  0  0  0  0  0  0  0  0  0
   -8.0991    4.6923  -17.9244 S   0  0  0  0  0  0  0  0  0  0  0  0
   -6.5373    5.1370  -18.4691 C   0  0  0  0  0  0  0  0  0  0  0  0
   -6.1428    5.1892  -19.8868 C   0  0  0  0  0  0  0  0  0  0  0  0
   -5.7527    6.8886  -20.3364 Cl  0  0  0  0  0  0  0  0  0  0  0  0
   -5.6613    5.4121  -17.5353 N   0  0  0  0  0  0  0  0  0  0  0  0
   -6.1806    5.1031  -16.3101 C   0  0  0  0  0  0  0  0  0  0  0  0
   -3.2448    4.4040  -16.9380 O   0  0  0  0  0  0  0  0  0  0  0  0
  2  1  1  6
  2  3  1  0
  3  4  1  0
  4  5  1  6
  5  6  1  0
  6  7  2  0
  7  8  1  0
  8  9  2  0
  9 10  1  0
 10 11  1  0
 11 12  1  0
 12 13  1  0
 13 14  1  0
 12 15  2  0
 15 16  1  0
  4 17  1  0
 17  2  1  0
 16  6  1  0
 16 10  2  0
M  END
>  <energy_score>  (364) 
-82.771733

>  <alias>  (364) 
None

>  <HIPPO Pose ID>  (364) 
69254

>  <smiles>  (364) 
C[C@H]1C[C@@H](Nc2ncnc3sc(CCl)nc23)O1

>  <inchikey>  (364) 
JHGZIYCCUMVEOG-WDSKDSINSA-N

>  <distance_score>  (364) 
0.985468

>  <ref_mols>  (364) 
Z1719a,Z0472a

>  <ref_pdb>  (364) 
Z0472a

>  <HIPPO Compound ID>  (364) 
138747

>  <name>  (364) 
P69254

>  <inspiration_score>  (364) 
None

$$$$
P69256
     RDKit          3D

 17 18  0  0  0  0  0  0  0  0999 V2000
   -3.3372    6.4428  -17.3092 O   0  0  0  0  0  0  0  0  0  0  0  0
   -3.5141    5.5536  -16.2199 C   0  0  1  0  0  0  0  0  0  0  0  0
   -2.1331    5.3108  -15.6249 C   0  0  0  0  0  0  0  0  0  0  0  0
   -2.1336    4.2696  -14.5171 C   0  0  0  0  0  0  0  0  0  0  0  0
   -2.7593    4.8932  -12.9702 Cl  0  0  0  0  0  0  0  0  0  0  0  0
   -4.4002    6.1814  -15.2476 N   0  0  0  0  0  0  0  0  0  0  0  0
   -5.7151    5.6864  -15.2786 C   0  0  0  0  0  0  0  0  0  0  0  0
   -6.2885    5.2544  -14.1370 N   0  0  0  0  0  0  0  0  0  0  0  0
   -7.5187    4.6920  -14.2150 C   0  0  0  0  0  0  0  0  0  0  0  0
   -8.2759    4.4885  -15.3080 N   0  0  0  0  0  0  0  0  0  0  0  0
   -7.6518    4.9092  -16.4170 C   0  0  0  0  0  0  0  0  0  0  0  0
   -8.1938    4.6126  -18.0113 S   0  0  0  0  0  0  0  0  0  0  0  0
   -6.7288    5.3012  -18.5905 C   0  0  0  0  0  0  0  0  0  0  0  0
   -6.1905    5.0831  -19.9455 C   0  0  0  0  0  0  0  0  0  0  0  0
   -4.3928    4.8299  -19.7793 Cl  0  0  0  0  0  0  0  0  0  0  0  0
   -6.0301    5.9715  -17.7055 N   0  0  0  0  0  0  0  0  0  0  0  0
   -6.4377    5.5634  -16.4676 C   0  0  0  0  0  0  0  0  0  0  0  0
  2  1  1  6
  2  3  1  0
  3  4  1  0
  4  5  1  0
  2  6  1  0
  6  7  1  0
  7  8  2  0
  8  9  1  0
  9 10  2  0
 10 11  1  0
 11 12  1  0
 12 13  1  0
 13 14  1  0
 14 15  1  0
 13 16  2  0
 16 17  1  0
 17  7  1  0
 17 11  2  0
M  END
>  <energy_score>  (365) 
-67.759257

>  <alias>  (365) 
None

>  <HIPPO Pose ID>  (365) 
69256

>  <smiles>  (365) 
O[C@@H](CCCl)Nc1ncnc2sc(CCl)nc12

>  <inchikey>  (365) 
OVHPHOYGTKVRRY-YFKPBYRVSA-N

>  <distance_score>  (365) 
0.940619

>  <ref_mols>  (365) 
Z0472a,Z1719a

>  <ref_pdb>  (365) 
Z0472a

>  <HIPPO Compound ID>  (365) 
138748

>  <name>  (365) 
P69256

>  <inspiration_score>  (365) 
None

$$$$
P69260
     RDKit          3D

 17 18  0  0  0  0  0  0  0  0999 V2000
   -3.1352    6.8970  -17.8138 C   0  0  0  0  0  0  0  0  0  0  0  0
   -2.5188    5.6387  -17.2214 C   0  0  2  0  0  0  0  0  0  0  0  0
   -2.1476    4.5515  -18.6255 Cl  0  0  0  0  0  0  0  0  0  0  0  0
   -3.3342    4.8772  -16.1426 C   0  0  1  0  0  0  0  0  0  0  0  0
   -2.4522    4.1023  -15.3412 O   0  0  0  0  0  0  0  0  0  0  0  0
   -4.0038    5.7439  -15.1845 N   0  0  0  0  0  0  0  0  0  0  0  0
   -5.3806    5.4844  -15.0804 C   0  0  0  0  0  0  0  0  0  0  0  0
   -5.9384    5.3233  -13.8645 N   0  0  0  0  0  0  0  0  0  0  0  0
   -7.2580    5.0167  -13.8081 C   0  0  0  0  0  0  0  0  0  0  0  0
   -8.1254    4.8510  -14.8225 N   0  0  0  0  0  0  0  0  0  0  0  0
   -7.5175    4.9950  -16.0095 C   0  0  0  0  0  0  0  0  0  0  0  0
   -8.2628    4.7349  -17.5175 S   0  0  0  0  0  0  0  0  0  0  0  0
   -6.7596    5.0647  -18.2938 C   0  0  0  0  0  0  0  0  0  0  0  0
   -6.4626    4.9083  -19.7290 C   0  0  0  0  0  0  0  0  0  0  0  0
   -7.4816    3.7346  -20.4924 Cl  0  0  0  0  0  0  0  0  0  0  0  0
   -5.7970    5.4664  -17.5051 N   0  0  0  0  0  0  0  0  0  0  0  0
   -6.1980    5.3416  -16.2067 C   0  0  0  0  0  0  0  0  0  0  0  0
  2  1  1  6
  2  3  1  0
  2  4  1  0
  4  5  1  1
  4  6  1  0
  6  7  1  0
  7  8  2  0
  8  9  1  0
  9 10  2  0
 10 11  1  0
 11 12  1  0
 12 13  1  0
 13 14  1  0
 14 15  1  0
 13 16  2  0
 16 17  1  0
 17  7  1  0
 17 11  2  0
M  END
>  <energy_score>  (366) 
-70.05299

>  <alias>  (366) 
None

>  <HIPPO Pose ID>  (366) 
69260

>  <smiles>  (366) 
C[C@H](Cl)[C@@H](O)Nc1ncnc2sc(CCl)nc12

>  <inchikey>  (366) 
SSSXATFMYVQCNX-RNHFCUEFSA-N

>  <distance_score>  (366) 
0.876033

>  <ref_mols>  (366) 
Z0472a,Z1719a

>  <ref_pdb>  (366) 
Z0472a

>  <HIPPO Compound ID>  (366) 
138751

>  <name>  (366) 
P69260

>  <inspiration_score>  (366) 
None

$$$$
P69263
     RDKit          3D

 17 19  0  0  0  0  0  0  0  0999 V2000
   -2.0494    7.1451  -18.2242 C   0  0  0  0  0  0  0  0  0  0  0  0
   -2.8684    6.0250  -17.7088 C   0  0  1  0  0  0  0  0  0  0  0  0
   -2.4738    4.6287  -18.0769 C   0  0  0  0  0  0  0  0  0  0  0  0
   -2.3708    5.0826  -16.6325 C   0  0  2  0  0  0  0  0  0  0  0  0
   -3.2615    4.4281  -15.6110 C   0  0  0  0  0  0  0  0  0  0  0  0
   -4.1042    5.4048  -14.9316 N   0  0  0  0  0  0  0  0  0  0  0  0
   -5.4856    5.1545  -15.0265 C   0  0  0  0  0  0  0  0  0  0  0  0
   -6.2026    5.1717  -13.8806 N   0  0  0  0  0  0  0  0  0  0  0  0
   -7.5414    4.9934  -13.9617 C   0  0  0  0  0  0  0  0  0  0  0  0
   -8.3034    4.8424  -15.0570 N   0  0  0  0  0  0  0  0  0  0  0  0
   -7.5538    4.8151  -16.1705 C   0  0  0  0  0  0  0  0  0  0  0  0
   -8.1987    4.6656  -17.7491 S   0  0  0  0  0  0  0  0  0  0  0  0
   -6.6124    4.8084  -18.3765 C   0  0  0  0  0  0  0  0  0  0  0  0
   -6.2857    4.9062  -19.8097 C   0  0  0  0  0  0  0  0  0  0  0  0
   -5.7505    6.5929  -20.1539 Cl  0  0  0  0  0  0  0  0  0  0  0  0
   -5.6511    4.8627  -17.4895 N   0  0  0  0  0  0  0  0  0  0  0  0
   -6.1777    4.9414  -16.2320 C   0  0  0  0  0  0  0  0  0  0  0  0
  2  1  1  6
  2  3  1  0
  3  4  1  0
  4  5  1  1
  5  6  1  0
  6  7  1  0
  7  8  2  0
  8  9  1  0
  9 10  2  0
 10 11  1  0
 11 12  1  0
 12 13  1  0
 13 14  1  0
 14 15  1  0
 13 16  2  0
 16 17  1  0
  4  2  1  0
 17  7  1  0
 17 11  2  0
M  END
>  <energy_score>  (367) 
-65.004063

>  <alias>  (367) 
None

>  <HIPPO Pose ID>  (367) 
69263

>  <smiles>  (367) 
C[C@H]1C[C@@H]1CNc1ncnc2sc(CCl)nc12

>  <inchikey>  (367) 
KHJACXPJWZTKLF-NKWVEPMBSA-N

>  <distance_score>  (367) 
0.966207

>  <ref_mols>  (367) 
Z1719a,Z0472a

>  <ref_pdb>  (367) 
Z0472a

>  <HIPPO Compound ID>  (367) 
138752

>  <name>  (367) 
P69263

>  <inspiration_score>  (367) 
None

$$$$
P69266
     RDKit          3D

 17 18  0  0  0  0  0  0  0  0999 V2000
   -3.3593    7.2157  -17.6126 C   0  0  0  0  0  0  0  0  0  0  0  0
   -2.9064    5.7980  -17.3091 C   0  0  1  0  0  0  0  0  0  0  0  0
   -0.9815    5.7819  -17.8750 Br  0  0  0  0  0  0  0  0  0  0  0  0
   -2.9968    5.3649  -15.8294 C   0  0  2  0  0  0  0  0  0  0  0  0
   -2.9355    3.9561  -15.7036 O   0  0  0  0  0  0  0  0  0  0  0  0
   -4.1092    5.8557  -15.0312 N   0  0  0  0  0  0  0  0  0  0  0  0
   -5.4172    5.3967  -15.1310 C   0  0  0  0  0  0  0  0  0  0  0  0
   -6.1065    5.2891  -13.9714 N   0  0  0  0  0  0  0  0  0  0  0  0
   -7.4118    4.9356  -14.0237 C   0  0  0  0  0  0  0  0  0  0  0  0
   -8.1718    4.7208  -15.1071 N   0  0  0  0  0  0  0  0  0  0  0  0
   -7.4481    4.8091  -16.2333 C   0  0  0  0  0  0  0  0  0  0  0  0
   -8.1074    4.6192  -17.8003 S   0  0  0  0  0  0  0  0  0  0  0  0
   -6.5542    4.9171  -18.4502 C   0  0  0  0  0  0  0  0  0  0  0  0
   -6.2418    4.9593  -19.8856 C   0  0  0  0  0  0  0  0  0  0  0  0
   -5.7278    6.6387  -20.3022 Cl  0  0  0  0  0  0  0  0  0  0  0  0
   -5.5977    5.1343  -17.5840 N   0  0  0  0  0  0  0  0  0  0  0  0
   -6.0986    5.1073  -16.3196 C   0  0  0  0  0  0  0  0  0  0  0  0
  2  1  1  1
  2  3  1  0
  2  4  1  0
  4  5  1  6
  4  6  1  0
  6  7  1  0
  7  8  2  0
  8  9  1  0
  9 10  2  0
 10 11  1  0
 11 12  1  0
 12 13  1  0
 13 14  1  0
 14 15  1  0
 13 16  2  0
 16 17  1  0
 17  7  1  0
 17 11  2  0
M  END
>  <energy_score>  (368) 
-54.996779

>  <alias>  (368) 
None

>  <HIPPO Pose ID>  (368) 
69266

>  <smiles>  (368) 
C[C@@H](Br)[C@H](O)Nc1ncnc2sc(CCl)nc12

>  <inchikey>  (368) 
UPINRUYYDNQZFG-VHWMUFPASA-N

>  <distance_score>  (368) 
0.807916

>  <ref_mols>  (368) 
Z1719a,Z0472a

>  <ref_pdb>  (368) 
Z0472a

>  <HIPPO Compound ID>  (368) 
138753

>  <name>  (368) 
P69266

>  <inspiration_score>  (368) 
None

$$$$
P69273
     RDKit          3D

 17 18  0  0  0  0  0  0  0  0999 V2000
   -1.7674    7.1694  -16.9117 C   0  0  0  0  0  0  0  0  0  0  0  0
   -2.7495    6.0981  -17.3760 C   0  0  0  0  0  0  0  0  0  0  0  0
   -3.3458    5.2527  -16.2243 C   0  0  2  0  0  0  0  0  0  0  0  0
   -4.2028    6.0572  -15.3248 N   0  0  0  0  0  0  0  0  0  0  0  0
   -5.5237    5.5406  -15.2780 C   0  0  0  0  0  0  0  0  0  0  0  0
   -6.1109    5.1907  -14.1145 N   0  0  0  0  0  0  0  0  0  0  0  0
   -7.3762    4.7039  -14.1601 C   0  0  0  0  0  0  0  0  0  0  0  0
   -8.1730    4.5270  -15.2333 N   0  0  0  0  0  0  0  0  0  0  0  0
   -7.5354    4.8536  -16.3668 C   0  0  0  0  0  0  0  0  0  0  0  0
   -8.1513    4.6261  -17.9479 S   0  0  0  0  0  0  0  0  0  0  0  0
   -6.6589    5.1958  -18.5735 C   0  0  0  0  0  0  0  0  0  0  0  0
   -6.2332    5.1129  -19.9770 C   0  0  0  0  0  0  0  0  0  0  0  0
   -5.6798    6.7531  -20.5075 Cl  0  0  0  0  0  0  0  0  0  0  0  0
   -5.8140    5.6736  -17.6975 N   0  0  0  0  0  0  0  0  0  0  0  0
   -6.2667    5.3852  -16.4505 C   0  0  0  0  0  0  0  0  0  0  0  0
   -2.2582    4.7308  -15.4644 O   0  0  0  0  0  0  0  0  0  0  0  0
   -2.6932    3.8005  -14.4835 C   0  0  0  0  0  0  0  0  0  0  0  0
  1  2  1  0
  3  2  1  6
  3  4  1  0
  4  5  1  0
  5  6  2  0
  6  7  1  0
  7  8  2  0
  8  9  1  0
  9 10  1  0
 10 11  1  0
 11 12  1  0
 12 13  1  0
 11 14  2  0
 14 15  1  0
  3 16  1  0
 16 17  1  0
 15  5  1  0
 15  9  2  0
M  END
>  <energy_score>  (369) 
-65.918518

>  <alias>  (369) 
None

>  <HIPPO Pose ID>  (369) 
69273

>  <smiles>  (369) 
CC[C@H](Nc1ncnc2sc(CCl)nc12)OC

>  <inchikey>  (369) 
SKZNHCXLLCHEDX-ZCFIWIBFSA-N

>  <distance_score>  (369) 
0.918593

>  <ref_mols>  (369) 
Z1719a,Z0472a

>  <ref_pdb>  (369) 
Z0472a

>  <HIPPO Compound ID>  (369) 
138756

>  <name>  (369) 
P69273

>  <inspiration_score>  (369) 
None

$$$$
P69275
     RDKit          3D

 17 18  0  0  0  0  0  0  0  0999 V2000
   -0.7583    5.6428  -16.0258 C   0  0  0  0  0  0  0  0  0  0  0  0
   -2.0618    5.6110  -15.2259 C   0  0  0  0  0  0  0  0  0  0  0  0
   -2.1954    4.2969  -14.4427 C   0  0  0  0  0  0  0  0  0  0  0  0
   -3.3540    5.7961  -16.0707 C   0  0  2  0  0  0  0  0  0  0  0  0
   -3.1587    7.0214  -17.4126 S   0  0  0  0  0  0  0  0  0  0  0  0
   -4.4080    6.2324  -15.1506 N   0  0  0  0  0  0  0  0  0  0  0  0
   -5.6610    5.6257  -15.2117 C   0  0  0  0  0  0  0  0  0  0  0  0
   -6.3443    5.4512  -14.0602 N   0  0  0  0  0  0  0  0  0  0  0  0
   -7.6046    4.9617  -14.1343 C   0  0  0  0  0  0  0  0  0  0  0  0
   -8.3244    4.6692  -15.2308 N   0  0  0  0  0  0  0  0  0  0  0  0
   -7.5948    4.8236  -16.3459 C   0  0  0  0  0  0  0  0  0  0  0  0
   -8.1825    4.5582  -17.9305 S   0  0  0  0  0  0  0  0  0  0  0  0
   -6.6355    4.9695  -18.5365 C   0  0  0  0  0  0  0  0  0  0  0  0
   -6.2524    4.9682  -19.9525 C   0  0  0  0  0  0  0  0  0  0  0  0
   -5.6933    6.6355  -20.3829 Cl  0  0  0  0  0  0  0  0  0  0  0  0
   -5.7357    5.3075  -17.6506 N   0  0  0  0  0  0  0  0  0  0  0  0
   -6.2842    5.2558  -16.4058 C   0  0  0  0  0  0  0  0  0  0  0  0
  1  2  1  0
  2  3  1  0
  2  4  1  0
  4  5  1  6
  4  6  1  0
  6  7  1  0
  7  8  2  0
  8  9  1  0
  9 10  2  0
 10 11  1  0
 11 12  1  0
 12 13  1  0
 13 14  1  0
 14 15  1  0
 13 16  2  0
 16 17  1  0
 17  7  1  0
 17 11  2  0
M  END
>  <energy_score>  (370) 
-73.684723

>  <alias>  (370) 
None

>  <HIPPO Pose ID>  (370) 
69275

>  <smiles>  (370) 
CC(C)[C@H](S)Nc1ncnc2sc(CCl)nc12

>  <inchikey>  (370) 
IFFVZBSXSWNNFI-VIFPVBQESA-N

>  <distance_score>  (370) 
0.923274

>  <ref_mols>  (370) 
Z0472a,Z1719a

>  <ref_pdb>  (370) 
Z0472a

>  <HIPPO Compound ID>  (370) 
138757

>  <name>  (370) 
P69275

>  <inspiration_score>  (370) 
None

$$$$
P69283
     RDKit          3D

 17 18  0  0  0  0  0  0  0  0999 V2000
   -2.0424    4.0510  -13.7375 C   0  0  0  0  0  0  0  0  0  0  0  0
   -3.0654    3.5693  -14.7560 C   0  0  0  0  0  0  0  0  0  0  0  0
   -3.0635    4.3438  -16.0760 C   0  0  0  0  0  0  0  0  0  0  0  0
   -3.1901    5.8538  -15.9407 C   0  0  1  0  0  0  0  0  0  0  0  0
   -3.0874    6.6880  -17.5117 Cl  0  0  0  0  0  0  0  0  0  0  0  0
   -4.3065    6.3270  -15.1294 N   0  0  0  0  0  0  0  0  0  0  0  0
   -5.5803    5.7696  -15.2087 C   0  0  0  0  0  0  0  0  0  0  0  0
   -6.2670    5.6327  -14.0507 N   0  0  0  0  0  0  0  0  0  0  0  0
   -7.5295    5.1472  -14.1038 C   0  0  0  0  0  0  0  0  0  0  0  0
   -8.2515    4.8160  -15.1860 N   0  0  0  0  0  0  0  0  0  0  0  0
   -7.5262    4.9385  -16.3083 C   0  0  0  0  0  0  0  0  0  0  0  0
   -8.1255    4.6138  -17.8783 S   0  0  0  0  0  0  0  0  0  0  0  0
   -6.5893    5.0222  -18.5101 C   0  0  0  0  0  0  0  0  0  0  0  0
   -6.2254    5.0053  -19.9317 C   0  0  0  0  0  0  0  0  0  0  0  0
   -5.6985    6.6703  -20.4042 Cl  0  0  0  0  0  0  0  0  0  0  0  0
   -5.6807    5.3659  -17.6370 N   0  0  0  0  0  0  0  0  0  0  0  0
   -6.2152    5.3713  -16.3890 C   0  0  0  0  0  0  0  0  0  0  0  0
  1  2  1  0
  2  3  1  0
  3  4  1  0
  4  5  1  6
  4  6  1  0
  6  7  1  0
  7  8  2  0
  8  9  1  0
  9 10  2  0
 10 11  1  0
 11 12  1  0
 12 13  1  0
 13 14  1  0
 14 15  1  0
 13 16  2  0
 16 17  1  0
 17  7  1  0
 17 11  2  0
M  END
>  <energy_score>  (371) 
-37.129694

>  <alias>  (371) 
None

>  <HIPPO Pose ID>  (371) 
69283

>  <smiles>  (371) 
CCC[C@@H](Cl)Nc1ncnc2sc(CCl)nc12

>  <inchikey>  (371) 
IYHWKGLOQUHDCI-LURJTMIESA-N

>  <distance_score>  (371) 
0.941635

>  <ref_mols>  (371) 
Z1719a,Z0472a

>  <ref_pdb>  (371) 
Z0472a

>  <HIPPO Compound ID>  (371) 
138760

>  <name>  (371) 
P69283

>  <inspiration_score>  (371) 
None

$$$$
P69285
     RDKit          3D

 17 18  0  0  0  0  0  0  0  0999 V2000
   -1.3608    5.0290  -14.2408 C   0  0  0  0  0  0  0  0  0  0  0  0
   -1.6828    5.9234  -15.4267 C   0  0  0  0  0  0  0  0  0  0  0  0
   -2.4645    5.2096  -16.5243 C   0  0  2  0  0  0  0  0  0  0  0  0
   -2.6951    6.1367  -17.7067 C   0  0  0  0  0  0  0  0  0  0  0  0
   -3.7443    4.5457  -16.0193 C   0  0  0  0  0  0  0  0  0  0  0  0
   -4.5080    5.4287  -15.1225 N   0  0  0  0  0  0  0  0  0  0  0  0
   -5.8759    5.1801  -15.2983 C   0  0  0  0  0  0  0  0  0  0  0  0
   -6.6054    4.7082  -14.2738 N   0  0  0  0  0  0  0  0  0  0  0  0
   -7.8716    4.3212  -14.5465 C   0  0  0  0  0  0  0  0  0  0  0  0
   -8.5226    4.3551  -15.7255 N   0  0  0  0  0  0  0  0  0  0  0  0
   -7.7406    4.8382  -16.7029 C   0  0  0  0  0  0  0  0  0  0  0  0
   -8.1493    4.8742  -18.3544 S   0  0  0  0  0  0  0  0  0  0  0  0
   -6.6383    5.6498  -18.7004 C   0  0  0  0  0  0  0  0  0  0  0  0
   -6.2834    6.1218  -20.0545 C   0  0  0  0  0  0  0  0  0  0  0  0
   -4.6134    6.6926  -20.2973 Cl  0  0  0  0  0  0  0  0  0  0  0  0
   -5.8624    5.8436  -17.6711 N   0  0  0  0  0  0  0  0  0  0  0  0
   -6.4632    5.3245  -16.5526 C   0  0  0  0  0  0  0  0  0  0  0  0
  1  2  1  0
  2  3  1  0
  3  4  1  6
  3  5  1  0
  5  6  1  0
  6  7  1  0
  7  8  2  0
  8  9  1  0
  9 10  2  0
 10 11  1  0
 11 12  1  0
 12 13  1  0
 13 14  1  0
 14 15  1  0
 13 16  2  0
 16 17  1  0
 17  7  1  0
 17 11  2  0
M  END
>  <energy_score>  (372) 
-42.28936

>  <alias>  (372) 
None

>  <HIPPO Pose ID>  (372) 
69285

>  <smiles>  (372) 
CC[C@H](C)CNc1ncnc2sc(CCl)nc12

>  <inchikey>  (372) 
GOBLHHKIXHRKTN-ZETCQYMHSA-N

>  <distance_score>  (372) 
1.194244

>  <ref_mols>  (372) 
Z1719a,Z0472a

>  <ref_pdb>  (372) 
Z0472a

>  <HIPPO Compound ID>  (372) 
138762

>  <name>  (372) 
P69285

>  <inspiration_score>  (372) 
None

$$$$
P69287
     RDKit          3D

 17 18  0  0  0  0  0  0  0  0999 V2000
   -5.6739    6.8235  -20.6251 Cl  0  0  0  0  0  0  0  0  0  0  0  0
   -6.2279    5.2005  -20.0433 C   0  0  0  0  0  0  0  0  0  0  0  0
   -6.7420    5.3343  -18.6724 C   0  0  0  0  0  0  0  0  0  0  0  0
   -6.0011    5.9552  -17.7931 N   0  0  0  0  0  0  0  0  0  0  0  0
   -6.3726    5.5278  -16.5659 C   0  0  0  0  0  0  0  0  0  0  0  0
   -5.5780    5.6576  -15.4325 C   0  0  0  0  0  0  0  0  0  0  0  0
   -4.3122    6.2797  -15.5703 N   0  0  0  0  0  0  0  0  0  0  0  0
   -3.3858    5.4032  -16.3004 C   0  0  1  0  0  0  0  0  0  0  0  0
   -2.8569    6.3273  -17.7399 Cl  0  0  0  0  0  0  0  0  0  0  0  0
   -2.1807    5.1347  -15.4156 C   0  0  0  0  0  0  0  0  0  0  0  0
   -2.5615    4.1834  -14.2973 C   0  0  0  0  0  0  0  0  0  0  0  0
   -1.0392    3.9080  -13.1050 Br  0  0  0  0  0  0  0  0  0  0  0  0
   -6.0303    5.1306  -14.2781 N   0  0  0  0  0  0  0  0  0  0  0  0
   -7.2576    4.5446  -14.2953 C   0  0  0  0  0  0  0  0  0  0  0  0
   -8.0943    4.3656  -15.3395 N   0  0  0  0  0  0  0  0  0  0  0  0
   -7.5587    4.8381  -16.4739 C   0  0  0  0  0  0  0  0  0  0  0  0
   -8.1663    4.5918  -18.0556 S   0  0  0  0  0  0  0  0  0  0  0  0
  1  2  1  0
  2  3  1  0
  3  4  2  0
  4  5  1  0
  5  6  2  0
  6  7  1  0
  7  8  1  0
  8  9  1  6
  8 10  1  0
 10 11  1  0
 11 12  1  0
  6 13  1  0
 13 14  2  0
 14 15  1  0
 15 16  2  0
 16 17  1  0
 17  3  1  0
 16  5  1  0
M  END
>  <energy_score>  (373) 
-37.56071

>  <alias>  (373) 
None

>  <HIPPO Pose ID>  (373) 
69287

>  <smiles>  (373) 
ClCc1nc2c(N[C@@H](Cl)CCBr)ncnc2s1

>  <inchikey>  (373) 
KWNSKHWNRXOVIB-RXMQYKEDSA-N

>  <distance_score>  (373) 
0.882036

>  <ref_mols>  (373) 
Z1719a,Z0472a

>  <ref_pdb>  (373) 
Z0472a

>  <HIPPO Compound ID>  (373) 
138763

>  <name>  (373) 
P69287

>  <inspiration_score>  (373) 
None

$$$$
P69293
     RDKit          3D

 17 18  0  0  0  0  0  0  0  0999 V2000
   -2.9974    5.9273  -18.0421 C   0  0  0  0  0  0  0  0  0  0  0  0
   -2.4966    5.4208  -16.6978 C   0  0  1  0  0  0  0  0  0  0  0  0
   -1.7857    6.8431  -15.7872 S   0  0  0  0  0  0  0  0  0  0  0  0
   -3.5258    4.6582  -15.8225 C   0  0  1  0  0  0  0  0  0  0  0  0
   -2.8118    3.9117  -14.8510 O   0  0  0  0  0  0  0  0  0  0  0  0
   -4.3945    5.5277  -15.0284 N   0  0  0  0  0  0  0  0  0  0  0  0
   -5.7491    5.1425  -15.1288 C   0  0  0  0  0  0  0  0  0  0  0  0
   -6.4489    4.8222  -14.0241 N   0  0  0  0  0  0  0  0  0  0  0  0
   -7.7497    4.4779  -14.1757 C   0  0  0  0  0  0  0  0  0  0  0  0
   -8.4802    4.4371  -15.3062 N   0  0  0  0  0  0  0  0  0  0  0  0
   -7.7313    4.7194  -16.3812 C   0  0  0  0  0  0  0  0  0  0  0  0
   -8.2717    4.6264  -18.0001 S   0  0  0  0  0  0  0  0  0  0  0  0
   -6.6950    5.0619  -18.5199 C   0  0  0  0  0  0  0  0  0  0  0  0
   -6.2503    5.0771  -19.9240 C   0  0  0  0  0  0  0  0  0  0  0  0
   -5.7231    6.7473  -20.3515 Cl  0  0  0  0  0  0  0  0  0  0  0  0
   -5.8364    5.3520  -17.5731 N   0  0  0  0  0  0  0  0  0  0  0  0
   -6.4055    5.0957  -16.3627 C   0  0  0  0  0  0  0  0  0  0  0  0
  2  1  1  6
  2  3  1  0
  2  4  1  0
  4  5  1  1
  4  6  1  0
  6  7  1  0
  7  8  2  0
  8  9  1  0
  9 10  2  0
 10 11  1  0
 11 12  1  0
 12 13  1  0
 13 14  1  0
 14 15  1  0
 13 16  2  0
 16 17  1  0
 17  7  1  0
 17 11  2  0
M  END
>  <energy_score>  (374) 
-78.695361

>  <alias>  (374) 
None

>  <HIPPO Pose ID>  (374) 
69293

>  <smiles>  (374) 
C[C@@H](S)[C@@H](O)Nc1ncnc2sc(CCl)nc12

>  <inchikey>  (374) 
SNSFMAKIYNVILU-SPGJFGJESA-N

>  <distance_score>  (374) 
0.925951

>  <ref_mols>  (374) 
Z0472a,Z1719a

>  <ref_pdb>  (374) 
Z0472a

>  <HIPPO Compound ID>  (374) 
138766

>  <name>  (374) 
P69293

>  <inspiration_score>  (374) 
None

$$$$
P69296
     RDKit          3D

 17 18  0  0  0  0  0  0  0  0999 V2000
   -3.1438    6.1602  -17.2589 O   0  0  0  0  0  0  0  0  0  0  0  0
   -3.3415    5.3902  -16.0839 C   0  0  1  0  0  0  0  0  0  0  0  0
   -2.0012    5.2591  -15.3645 C   0  0  0  0  0  0  0  0  0  0  0  0
   -2.0271    4.1938  -14.2720 C   0  0  0  0  0  0  0  0  0  0  0  0
   -2.7972    4.7226  -12.7099 S   0  0  0  0  0  0  0  0  0  0  0  0
   -4.2879    6.0759  -15.2191 N   0  0  0  0  0  0  0  0  0  0  0  0
   -5.5910    5.5672  -15.2371 C   0  0  0  0  0  0  0  0  0  0  0  0
   -6.2448    5.3487  -14.0791 N   0  0  0  0  0  0  0  0  0  0  0  0
   -7.5216    4.8971  -14.1499 C   0  0  0  0  0  0  0  0  0  0  0  0
   -8.2673    4.6560  -15.2446 N   0  0  0  0  0  0  0  0  0  0  0  0
   -7.5619    4.8572  -16.3680 C   0  0  0  0  0  0  0  0  0  0  0  0
   -8.1524    4.6114  -17.9538 S   0  0  0  0  0  0  0  0  0  0  0  0
   -6.6154    5.0653  -18.5620 C   0  0  0  0  0  0  0  0  0  0  0  0
   -6.2237    5.0433  -19.9753 C   0  0  0  0  0  0  0  0  0  0  0  0
   -5.6748    6.7040  -20.4349 Cl  0  0  0  0  0  0  0  0  0  0  0  0
   -5.7235    5.4318  -17.6783 N   0  0  0  0  0  0  0  0  0  0  0  0
   -6.2564    5.2974  -16.4323 C   0  0  0  0  0  0  0  0  0  0  0  0
  2  1  1  6
  2  3  1  0
  3  4  1  0
  4  5  1  0
  2  6  1  0
  6  7  1  0
  7  8  2  0
  8  9  1  0
  9 10  2  0
 10 11  1  0
 11 12  1  0
 12 13  1  0
 13 14  1  0
 14 15  1  0
 13 16  2  0
 16 17  1  0
 17  7  1  0
 17 11  2  0
M  END
>  <energy_score>  (375) 
-87.059514

>  <alias>  (375) 
None

>  <HIPPO Pose ID>  (375) 
69296

>  <smiles>  (375) 
O[C@@H](CCS)Nc1ncnc2sc(CCl)nc12

>  <inchikey>  (375) 
PWZCOFODUIJYHE-YFKPBYRVSA-N

>  <distance_score>  (375) 
1.152505

>  <ref_mols>  (375) 
Z1719a,Z0472a

>  <ref_pdb>  (375) 
Z0472a

>  <HIPPO Compound ID>  (375) 
138769

>  <name>  (375) 
P69296

>  <inspiration_score>  (375) 
None

$$$$
P69297
     RDKit          3D

 17 18  0  0  0  0  0  0  0  0999 V2000
   -0.9835    5.5205  -15.3513 C   0  0  0  0  0  0  0  0  0  0  0  0
   -2.2214    4.9910  -15.4010 C   0  0  0  0  0  0  0  0  0  0  0  0
   -2.5999    3.8690  -14.4692 C   0  0  0  0  0  0  0  0  0  0  0  0
   -3.3565    5.4125  -16.3010 C   0  0  2  0  0  0  0  0  0  0  0  0
   -2.8222    6.3849  -17.7029 Cl  0  0  0  0  0  0  0  0  0  0  0  0
   -4.2282    6.2738  -15.4908 N   0  0  0  0  0  0  0  0  0  0  0  0
   -5.5167    5.6902  -15.3653 C   0  0  0  0  0  0  0  0  0  0  0  0
   -6.0280    5.2833  -14.1858 N   0  0  0  0  0  0  0  0  0  0  0  0
   -7.2679    4.7279  -14.1906 C   0  0  0  0  0  0  0  0  0  0  0  0
   -8.0915    4.5073  -15.2371 N   0  0  0  0  0  0  0  0  0  0  0  0
   -7.5172    4.8808  -16.3900 C   0  0  0  0  0  0  0  0  0  0  0  0
   -8.1451    4.6033  -17.9594 S   0  0  0  0  0  0  0  0  0  0  0  0
   -6.6949    5.2499  -18.6141 C   0  0  0  0  0  0  0  0  0  0  0  0
   -6.2471    5.1277  -20.0084 C   0  0  0  0  0  0  0  0  0  0  0  0
   -5.6861    6.7580  -20.5741 Cl  0  0  0  0  0  0  0  0  0  0  0  0
   -5.8855    5.8146  -17.7576 N   0  0  0  0  0  0  0  0  0  0  0  0
   -6.2929    5.4988  -16.5069 C   0  0  0  0  0  0  0  0  0  0  0  0
  1  2  2  0
  2  3  1  0
  2  4  1  0
  4  5  1  6
  4  6  1  0
  6  7  1  0
  7  8  2  0
  8  9  1  0
  9 10  2  0
 10 11  1  0
 11 12  1  0
 12 13  1  0
 13 14  1  0
 14 15  1  0
 13 16  2  0
 16 17  1  0
 17  7  1  0
 17 11  2  0
M  END
>  <energy_score>  (376) 
-39.773913

>  <alias>  (376) 
None

>  <HIPPO Pose ID>  (376) 
69297

>  <smiles>  (376) 
C=C(C)[C@H](Cl)Nc1ncnc2sc(CCl)nc12

>  <inchikey>  (376) 
NXTNSQGBZDTHKT-MRVPVSSYSA-N

>  <distance_score>  (376) 
0.880567

>  <ref_mols>  (376) 
Z0472a,Z1719a

>  <ref_pdb>  (376) 
Z0472a

>  <HIPPO Compound ID>  (376) 
138771

>  <name>  (376) 
P69297

>  <inspiration_score>  (376) 
None

$$$$
P69301
     RDKit          3D

 17 18  0  0  0  0  0  0  0  0999 V2000
   -2.9125    6.9854  -17.4761 C   0  0  0  0  0  0  0  0  0  0  0  0
   -2.4573    5.7960  -16.6387 C   0  0  1  0  0  0  0  0  0  0  0  0
   -1.2211    6.4091  -15.4688 Cl  0  0  0  0  0  0  0  0  0  0  0  0
   -3.6001    5.0311  -15.9424 C   0  0  1  0  0  0  0  0  0  0  0  0
   -2.9864    3.7129  -14.8960 Cl  0  0  0  0  0  0  0  0  0  0  0  0
   -4.4157    5.8539  -15.0433 N   0  0  0  0  0  0  0  0  0  0  0  0
   -5.7800    5.5072  -15.1237 C   0  0  0  0  0  0  0  0  0  0  0  0
   -6.4259    5.1297  -14.0028 N   0  0  0  0  0  0  0  0  0  0  0  0
   -7.6914    4.6632  -14.1255 C   0  0  0  0  0  0  0  0  0  0  0  0
   -8.4265    4.5213  -15.2433 N   0  0  0  0  0  0  0  0  0  0  0  0
   -7.7371    4.8927  -16.3310 C   0  0  0  0  0  0  0  0  0  0  0  0
   -8.2566    4.6367  -17.9410 S   0  0  0  0  0  0  0  0  0  0  0  0
   -6.7444    5.2435  -18.4881 C   0  0  0  0  0  0  0  0  0  0  0  0
   -6.2367    5.0747  -19.8664 C   0  0  0  0  0  0  0  0  0  0  0  0
   -4.4540    4.7414  -19.7548 Cl  0  0  0  0  0  0  0  0  0  0  0  0
   -6.0011    5.8148  -17.5694 N   0  0  0  0  0  0  0  0  0  0  0  0
   -6.4747    5.4499  -16.3403 C   0  0  0  0  0  0  0  0  0  0  0  0
  2  1  1  1
  2  3  1  0
  2  4  1  0
  4  5  1  1
  4  6  1  0
  6  7  1  0
  7  8  2  0
  8  9  1  0
  9 10  2  0
 10 11  1  0
 11 12  1  0
 12 13  1  0
 13 14  1  0
 14 15  1  0
 13 16  2  0
 16 17  1  0
 17  7  1  0
 17 11  2  0
M  END
>  <energy_score>  (377) 
-70.311912

>  <alias>  (377) 
None

>  <HIPPO Pose ID>  (377) 
69301

>  <smiles>  (377) 
C[C@@H](Cl)[C@@H](Cl)Nc1ncnc2sc(CCl)nc12

>  <inchikey>  (377) 
YVRLOACSJJBARM-FBCQKBJTSA-N

>  <distance_score>  (377) 
0.919722

>  <ref_mols>  (377) 
Z1719a,Z0472a

>  <ref_pdb>  (377) 
Z0472a

>  <HIPPO Compound ID>  (377) 
138772

>  <name>  (377) 
P69301

>  <inspiration_score>  (377) 
None

$$$$
P69312
     RDKit          3D

 17 18  0  0  0  0  0  0  0  0999 V2000
   -1.7004    4.5256  -13.3296 C   0  0  0  0  0  0  0  0  0  0  0  0
   -2.1933    4.3006  -14.5544 C   0  0  0  0  0  0  0  0  0  0  0  0
   -2.1092    5.2866  -15.6904 C   0  0  0  0  0  0  0  0  0  0  0  0
   -3.4715    5.5044  -16.3499 C   0  0  2  0  0  0  0  0  0  0  0  0
   -3.2934    6.2837  -17.5251 O   0  0  0  0  0  0  0  0  0  0  0  0
   -4.3348    6.2529  -15.4315 N   0  0  0  0  0  0  0  0  0  0  0  0
   -5.6281    5.6915  -15.3515 C   0  0  0  0  0  0  0  0  0  0  0  0
   -6.1994    5.3621  -14.1757 N   0  0  0  0  0  0  0  0  0  0  0  0
   -7.4412    4.8160  -14.2033 C   0  0  0  0  0  0  0  0  0  0  0  0
   -8.2287    4.5643  -15.2696 N   0  0  0  0  0  0  0  0  0  0  0  0
   -7.6048    4.8771  -16.4147 C   0  0  0  0  0  0  0  0  0  0  0  0
   -8.2030    4.5762  -17.9906 S   0  0  0  0  0  0  0  0  0  0  0  0
   -6.7250    5.1690  -18.6273 C   0  0  0  0  0  0  0  0  0  0  0  0
   -6.2732    5.0492  -20.0187 C   0  0  0  0  0  0  0  0  0  0  0  0
   -5.6626    6.6819  -20.5403 Cl  0  0  0  0  0  0  0  0  0  0  0  0
   -5.9041    5.7148  -17.7682 N   0  0  0  0  0  0  0  0  0  0  0  0
   -6.3598    5.4572  -16.5149 C   0  0  0  0  0  0  0  0  0  0  0  0
  1  2  2  0
  2  3  1  0
  3  4  1  0
  4  5  1  6
  4  6  1  0
  6  7  1  0
  7  8  2  0
  8  9  1  0
  9 10  2  0
 10 11  1  0
 11 12  1  0
 12 13  1  0
 13 14  1  0
 14 15  1  0
 13 16  2  0
 16 17  1  0
 17  7  1  0
 17 11  2  0
M  END
>  <energy_score>  (378) 
-29.83057

>  <alias>  (378) 
None

>  <HIPPO Pose ID>  (378) 
69312

>  <smiles>  (378) 
C=CC[C@H](O)Nc1ncnc2sc(CCl)nc12

>  <inchikey>  (378) 
UPGOPLDBHZBJIV-LURJTMIESA-N

>  <distance_score>  (378) 
1.071269

>  <ref_mols>  (378) 
Z0472a,Z1719a

>  <ref_pdb>  (378) 
Z0472a

>  <HIPPO Compound ID>  (378) 
138777

>  <name>  (378) 
P69312

>  <inspiration_score>  (378) 
None

$$$$
P69314
     RDKit          3D

 17 18  0  0  0  0  0  0  0  0999 V2000
   -3.3106    6.1475  -17.3307 O   0  0  0  0  0  0  0  0  0  0  0  0
   -3.3657    5.3186  -16.1796 C   0  0  1  0  0  0  0  0  0  0  0  0
   -1.9662    5.3399  -15.5750 C   0  0  0  0  0  0  0  0  0  0  0  0
   -1.8187    4.3884  -14.3925 C   0  0  0  0  0  0  0  0  0  0  0  0
   -2.2785    5.2981  -12.5002 I   0  0  0  0  0  0  0  0  0  0  0  0
   -4.3134    5.8516  -15.2187 N   0  0  0  0  0  0  0  0  0  0  0  0
   -5.6267    5.3855  -15.2578 C   0  0  0  0  0  0  0  0  0  0  0  0
   -6.2970    5.1859  -14.1050 N   0  0  0  0  0  0  0  0  0  0  0  0
   -7.5899    4.7865  -14.1850 C   0  0  0  0  0  0  0  0  0  0  0  0
   -8.3439    4.5951  -15.2842 N   0  0  0  0  0  0  0  0  0  0  0  0
   -7.6251    4.7786  -16.4021 C   0  0  0  0  0  0  0  0  0  0  0  0
   -8.2207    4.5881  -17.9951 S   0  0  0  0  0  0  0  0  0  0  0  0
   -6.6647    4.9885  -18.5888 C   0  0  0  0  0  0  0  0  0  0  0  0
   -6.2592    4.9985  -19.9970 C   0  0  0  0  0  0  0  0  0  0  0  0
   -5.7010    6.6713  -20.4061 Cl  0  0  0  0  0  0  0  0  0  0  0  0
   -5.7625    5.2959  -17.6955 N   0  0  0  0  0  0  0  0  0  0  0  0
   -6.3004    5.1586  -16.4551 C   0  0  0  0  0  0  0  0  0  0  0  0
  2  1  1  6
  2  3  1  0
  3  4  1  0
  4  5  1  0
  2  6  1  0
  6  7  1  0
  7  8  2  0
  8  9  1  0
  9 10  2  0
 10 11  1  0
 11 12  1  0
 12 13  1  0
 13 14  1  0
 14 15  1  0
 13 16  2  0
 16 17  1  0
 17  7  1  0
 17 11  2  0
M  END
>  <energy_score>  (379) 
-76.870943

>  <alias>  (379) 
None

>  <HIPPO Pose ID>  (379) 
69314

>  <smiles>  (379) 
O[C@@H](CCI)Nc1ncnc2sc(CCl)nc12

>  <inchikey>  (379) 
ZCAHGKKZLIQGJQ-YFKPBYRVSA-N

>  <distance_score>  (379) 
0.868562

>  <ref_mols>  (379) 
Z1719a,Z0472a

>  <ref_pdb>  (379) 
Z0472a

>  <HIPPO Compound ID>  (379) 
138778

>  <name>  (379) 
P69314

>  <inspiration_score>  (379) 
None

$$$$
P69316
     RDKit          3D

 17 19  0  0  0  0  0  0  0  0999 V2000
   -5.7062    6.8651  -20.4222 Cl  0  0  0  0  0  0  0  0  0  0  0  0
   -6.1433    5.1923  -19.9202 C   0  0  0  0  0  0  0  0  0  0  0  0
   -6.5625    5.1990  -18.5084 C   0  0  0  0  0  0  0  0  0  0  0  0
   -5.7258    5.5966  -17.5831 N   0  0  0  0  0  0  0  0  0  0  0  0
   -6.2324    5.3201  -16.3471 C   0  0  0  0  0  0  0  0  0  0  0  0
   -5.6077    5.4970  -15.1051 C   0  0  0  0  0  0  0  0  0  0  0  0
   -4.3305    6.0292  -14.9037 N   0  0  0  0  0  0  0  0  0  0  0  0
   -3.1630    5.3988  -15.5027 C   0  0  1  0  0  0  0  0  0  0  0  0
   -3.0804    3.7081  -14.9812 Cl  0  0  0  0  0  0  0  0  0  0  0  0
   -3.0164    5.5070  -16.9884 C   0  0  0  0  0  0  0  0  0  0  0  0
   -1.7111    5.9182  -17.6344 C   0  0  0  0  0  0  0  0  0  0  0  0
   -2.8706    6.8656  -17.6396 C   0  0  0  0  0  0  0  0  0  0  0  0
   -6.3165    5.1925  -13.9915 N   0  0  0  0  0  0  0  0  0  0  0  0
   -7.5732    4.7144  -14.1371 C   0  0  0  0  0  0  0  0  0  0  0  0
   -8.2649    4.5295  -15.2696 N   0  0  0  0  0  0  0  0  0  0  0  0
   -7.5271    4.8305  -16.3479 C   0  0  0  0  0  0  0  0  0  0  0  0
   -8.0846    4.6465  -17.9534 S   0  0  0  0  0  0  0  0  0  0  0  0
  1  2  1  0
  2  3  1  0
  3  4  2  0
  4  5  1  0
  5  6  2  0
  6  7  1  0
  7  8  1  0
  8  9  1  6
  8 10  1  0
 10 11  1  0
 11 12  1  0
  6 13  1  0
 13 14  2  0
 14 15  1  0
 15 16  2  0
 16 17  1  0
 17  3  1  0
 16  5  1  0
 12 10  1  0
M  END
>  <energy_score>  (380) 
-64.731902

>  <alias>  (380) 
None

>  <HIPPO Pose ID>  (380) 
69316

>  <smiles>  (380) 
ClCc1nc2c(N[C@@H](Cl)C3CC3)ncnc2s1

>  <inchikey>  (380) 
QMWWPNAWUROVJZ-MRVPVSSYSA-N

>  <distance_score>  (380) 
0.969423

>  <ref_mols>  (380) 
Z0472a,Z1719a

>  <ref_pdb>  (380) 
Z0472a

>  <HIPPO Compound ID>  (380) 
138780

>  <name>  (380) 
P69316

>  <inspiration_score>  (380) 
None

$$$$
P69317
     RDKit          3D

 17 18  0  0  0  0  0  0  0  0999 V2000
   -3.0278    3.1436  -15.4178 F   0  0  0  0  0  0  0  0  0  0  0  0
   -2.5882    4.3315  -14.9240 C   0  0  0  0  0  0  0  0  0  0  0  0
   -2.3283    5.2825  -16.0727 C   0  0  0  0  0  0  0  0  0  0  0  0
   -3.5665    5.4855  -16.9308 C   0  0  2  0  0  0  0  0  0  0  0  0
   -3.0609    6.1811  -18.5107 Cl  0  0  0  0  0  0  0  0  0  0  0  0
   -4.4230    6.5361  -16.3778 N   0  0  0  0  0  0  0  0  0  0  0  0
   -5.4890    5.9621  -15.6487 C   0  0  0  0  0  0  0  0  0  0  0  0
   -5.4545    5.9062  -14.2999 N   0  0  0  0  0  0  0  0  0  0  0  0
   -6.5203    5.3877  -13.6514 C   0  0  0  0  0  0  0  0  0  0  0  0
   -7.6571    4.9097  -14.1742 N   0  0  0  0  0  0  0  0  0  0  0  0
   -7.6325    4.9565  -15.5123 C   0  0  0  0  0  0  0  0  0  0  0  0
   -8.8871    4.3717  -16.4850 S   0  0  0  0  0  0  0  0  0  0  0  0
   -7.9419    4.7379  -17.8686 C   0  0  0  0  0  0  0  0  0  0  0  0
   -8.3907    4.2473  -19.1806 C   0  0  0  0  0  0  0  0  0  0  0  0
   -6.9941    4.0368  -20.2251 Cl  0  0  0  0  0  0  0  0  0  0  0  0
   -6.8400    5.4287  -17.6540 N   0  0  0  0  0  0  0  0  0  0  0  0
   -6.6240    5.4702  -16.3022 C   0  0  0  0  0  0  0  0  0  0  0  0
  1  2  1  0
  2  3  1  0
  3  4  1  0
  4  5  1  6
  4  6  1  0
  6  7  1  0
  7  8  2  0
  8  9  1  0
  9 10  2  0
 10 11  1  0
 11 12  1  0
 12 13  1  0
 13 14  1  0
 14 15  1  0
 13 16  2  0
 16 17  1  0
 17  7  1  0
 17 11  2  0
M  END
>  <energy_score>  (381) 
-81.498227

>  <alias>  (381) 
None

>  <HIPPO Pose ID>  (381) 
69317

>  <smiles>  (381) 
FCC[C@H](Cl)Nc1ncnc2sc(CCl)nc12

>  <inchikey>  (381) 
TVADVQPXMWSZSI-RXMQYKEDSA-N

>  <distance_score>  (381) 
1.202582

>  <ref_mols>  (381) 
Z0472a,Z1719a

>  <ref_pdb>  (381) 
Z0472a

>  <HIPPO Compound ID>  (381) 
138781

>  <name>  (381) 
P69317

>  <inspiration_score>  (381) 
None

$$$$
P69319
     RDKit          3D

 17 18  0  0  0  0  0  0  0  0999 V2000
   -2.8630    6.3439  -17.9370 C   0  0  0  0  0  0  0  0  0  0  0  0
   -2.9257    5.0736  -17.0947 C   0  0  2  0  0  0  0  0  0  0  0  0
   -3.8991    4.2579  -17.5742 F   0  0  0  0  0  0  0  0  0  0  0  0
   -2.9979    5.3366  -15.5579 C   0  0  2  0  0  0  0  0  0  0  0  0
   -2.7900    4.2313  -14.8687 O   0  0  0  0  0  0  0  0  0  0  0  0
   -4.2113    5.8994  -14.9488 N   0  0  0  0  0  0  0  0  0  0  0  0
   -5.4944    5.3838  -15.1693 C   0  0  0  0  0  0  0  0  0  0  0  0
   -6.1751    4.9325  -14.0753 N   0  0  0  0  0  0  0  0  0  0  0  0
   -7.4105    4.4227  -14.2411 C   0  0  0  0  0  0  0  0  0  0  0  0
   -8.1364    4.3409  -15.3650 N   0  0  0  0  0  0  0  0  0  0  0  0
   -7.4450    4.8182  -16.4106 C   0  0  0  0  0  0  0  0  0  0  0  0
   -8.0156    4.7140  -18.0191 S   0  0  0  0  0  0  0  0  0  0  0  0
   -6.5537    5.4433  -18.5334 C   0  0  0  0  0  0  0  0  0  0  0  0
   -6.0629    5.3948  -19.9200 C   0  0  0  0  0  0  0  0  0  0  0  0
   -5.6880    7.0478  -20.5199 Cl  0  0  0  0  0  0  0  0  0  0  0  0
   -5.8204    5.9682  -17.5848 N   0  0  0  0  0  0  0  0  0  0  0  0
   -6.1895    5.4062  -16.3885 C   0  0  0  0  0  0  0  0  0  0  0  0
  2  1  1  6
  2  3  1  0
  2  4  1  0
  4  5  1  1
  4  6  1  0
  6  7  1  0
  7  8  2  0
  8  9  1  0
  9 10  2  0
 10 11  1  0
 11 12  1  0
 12 13  1  0
 13 14  1  0
 14 15  1  0
 13 16  2  0
 16 17  1  0
 17  7  1  0
 17 11  2  0
M  CHG  1   5  -1
M  END
>  <energy_score>  (382) 
-51.161888

>  <alias>  (382) 
None

>  <HIPPO Pose ID>  (382) 
69319

>  <smiles>  (382) 
C[C@H](F)[C@H]([O-])Nc1ncnc2sc(CCl)nc12

>  <inchikey>  (382) 
XXFHIOLOWBXNCV-NVNXEXLPSA-N

>  <distance_score>  (382) 
0.825762

>  <ref_mols>  (382) 
Z1719a,Z0472a

>  <ref_pdb>  (382) 
Z0472a

>  <HIPPO Compound ID>  (382) 
138782

>  <name>  (382) 
P69319

>  <inspiration_score>  (382) 
None

$$$$
P69322
     RDKit          3D

 17 18  0  0  0  0  0  0  0  0999 V2000
   -0.7030    5.4907  -17.0769 C   0  0  0  0  0  0  0  0  0  0  0  0
   -1.4600    5.4708  -16.1501 C   0  0  0  0  0  0  0  0  0  0  0  0
   -2.5088    5.6537  -15.1627 C   0  0  0  0  0  0  0  0  0  0  0  0
   -3.8564    5.7089  -15.8923 C   0  0  2  0  0  0  0  0  0  0  0  0
   -3.8041    6.7121  -16.9005 O   0  0  0  0  0  0  0  0  0  0  0  0
   -4.8773    6.0700  -14.9224 N   0  0  0  0  0  0  0  0  0  0  0  0
   -6.1375    5.5138  -15.1432 C   0  0  0  0  0  0  0  0  0  0  0  0
   -6.8071    5.0308  -14.0780 N   0  0  0  0  0  0  0  0  0  0  0  0
   -8.0128    4.4595  -14.2979 C   0  0  0  0  0  0  0  0  0  0  0  0
   -8.6580    4.2982  -15.4646 N   0  0  0  0  0  0  0  0  0  0  0  0
   -7.9315    4.7458  -16.4962 C   0  0  0  0  0  0  0  0  0  0  0  0
   -8.3404    4.5207  -18.1387 S   0  0  0  0  0  0  0  0  0  0  0  0
   -6.8214    5.2025  -18.5693 C   0  0  0  0  0  0  0  0  0  0  0  0
   -6.2044    5.0577  -19.9038 C   0  0  0  0  0  0  0  0  0  0  0  0
   -4.4045    4.8889  -19.6842 Cl  0  0  0  0  0  0  0  0  0  0  0  0
   -6.1884    5.8192  -17.5989 N   0  0  0  0  0  0  0  0  0  0  0  0
   -6.7183    5.3948  -16.4103 C   0  0  0  0  0  0  0  0  0  0  0  0
  1  2  3  0
  2  3  1  0
  3  4  1  0
  4  5  1  6
  4  6  1  0
  6  7  1  0
  7  8  2  0
  8  9  1  0
  9 10  2  0
 10 11  1  0
 11 12  1  0
 12 13  1  0
 13 14  1  0
 14 15  1  0
 13 16  2  0
 16 17  1  0
 17  7  1  0
 17 11  2  0
M  END
>  <energy_score>  (383) 
-51.489318

>  <alias>  (383) 
None

>  <HIPPO Pose ID>  (383) 
69322

>  <smiles>  (383) 
C#CC[C@H](O)Nc1ncnc2sc(CCl)nc12

>  <inchikey>  (383) 
ZGIBDYIHVBRYEJ-LURJTMIESA-N

>  <distance_score>  (383) 
1.266182

>  <ref_mols>  (383) 
Z1719a,Z0472a

>  <ref_pdb>  (383) 
Z0472a

>  <HIPPO Compound ID>  (383) 
138783

>  <name>  (383) 
P69322

>  <inspiration_score>  (383) 
None

$$$$
P69326
     RDKit          3D

 17 19  0  0  0  0  0  0  0  0999 V2000
   -2.4542    6.2957  -17.7218 F   0  0  0  0  0  0  0  0  0  0  0  0
   -2.9782    5.8686  -16.4985 C   0  0  0  0  0  0  0  0  0  0  0  0
   -3.8591    6.8812  -15.8094 C   0  0  0  0  0  0  0  0  0  0  0  0
   -4.7223    6.3544  -14.7701 N   0  0  0  0  0  0  0  0  0  0  0  0
   -5.9104    5.6976  -15.0295 C   0  0  0  0  0  0  0  0  0  0  0  0
   -6.5423    5.1519  -13.9646 N   0  0  0  0  0  0  0  0  0  0  0  0
   -7.7164    4.5152  -14.1646 C   0  0  0  0  0  0  0  0  0  0  0  0
   -8.3732    4.3368  -15.3176 N   0  0  0  0  0  0  0  0  0  0  0  0
   -7.6777    4.8142  -16.3575 C   0  0  0  0  0  0  0  0  0  0  0  0
   -8.1428    4.5798  -17.9820 S   0  0  0  0  0  0  0  0  0  0  0  0
   -6.6600    5.2950  -18.4683 C   0  0  0  0  0  0  0  0  0  0  0  0
   -6.1354    5.1831  -19.8461 C   0  0  0  0  0  0  0  0  0  0  0  0
   -4.3409    4.9696  -19.7654 Cl  0  0  0  0  0  0  0  0  0  0  0  0
   -5.9943    5.9124  -17.5186 N   0  0  0  0  0  0  0  0  0  0  0  0
   -6.4861    5.5145  -16.2999 C   0  0  0  0  0  0  0  0  0  0  0  0
   -2.0074    5.0819  -15.6483 C   0  0  0  0  0  0  0  0  0  0  0  0
   -3.1127    4.3704  -16.3652 C   0  0  0  0  0  0  0  0  0  0  0  0
  1  2  1  0
  2  3  1  0
  3  4  1  0
  4  5  1  0
  5  6  2  0
  6  7  1  0
  7  8  2  0
  8  9  1  0
  9 10  1  0
 10 11  1  0
 11 12  1  0
 12 13  1  0
 11 14  2  0
 14 15  1  0
  2 16  1  0
 16 17  1  0
 17  2  1  0
 15  5  1  0
 15  9  2  0
M  END
>  <energy_score>  (384) 
-50.103803

>  <alias>  (384) 
None

>  <HIPPO Pose ID>  (384) 
69326

>  <smiles>  (384) 
FC1(CNc2ncnc3sc(CCl)nc23)CC1

>  <inchikey>  (384) 
YFQFKFARFDNDBE-UHFFFAOYSA-N

>  <distance_score>  (384) 
1.208553

>  <ref_mols>  (384) 
Z0472a,Z1719a

>  <ref_pdb>  (384) 
Z0472a

>  <HIPPO Compound ID>  (384) 
138786

>  <name>  (384) 
P69326

>  <inspiration_score>  (384) 
None

$$$$
P69331
     RDKit          3D

 17 18  0  0  0  0  0  0  0  0999 V2000
   -3.0291    6.9409  -17.6493 C   0  0  0  0  0  0  0  0  0  0  0  0
   -2.8788    5.4426  -17.4325 C   0  0  1  0  0  0  0  0  0  0  0  0
   -1.4992    5.1479  -17.7511 O   0  0  0  0  0  0  0  0  0  0  0  0
   -3.2317    4.8775  -15.9916 C   0  0  1  0  0  0  0  0  0  0  0  0
   -2.1299    4.8162  -15.2603 O   0  0  0  0  0  0  0  0  0  0  0  0
   -4.0179    5.7829  -15.1639 N   0  0  0  0  0  0  0  0  0  0  0  0
   -5.3799    5.4714  -15.0752 C   0  0  0  0  0  0  0  0  0  0  0  0
   -5.9651    5.3235  -13.8606 N   0  0  0  0  0  0  0  0  0  0  0  0
   -7.2720    4.9894  -13.8197 C   0  0  0  0  0  0  0  0  0  0  0  0
   -8.1293    4.8036  -14.8384 N   0  0  0  0  0  0  0  0  0  0  0  0
   -7.5043    4.9548  -16.0176 C   0  0  0  0  0  0  0  0  0  0  0  0
   -8.2552    4.6993  -17.5256 S   0  0  0  0  0  0  0  0  0  0  0  0
   -6.7582    5.0463  -18.2997 C   0  0  0  0  0  0  0  0  0  0  0  0
   -6.4450    4.8761  -19.7274 C   0  0  0  0  0  0  0  0  0  0  0  0
   -7.4891    3.7307  -20.5055 Cl  0  0  0  0  0  0  0  0  0  0  0  0
   -5.8145    5.4874  -17.5151 N   0  0  0  0  0  0  0  0  0  0  0  0
   -6.1856    5.3171  -16.2106 C   0  0  0  0  0  0  0  0  0  0  0  0
  2  1  1  1
  2  3  1  0
  2  4  1  0
  4  5  1  1
  4  6  1  0
  6  7  1  0
  7  8  2  0
  8  9  1  0
  9 10  2  0
 10 11  1  0
 11 12  1  0
 12 13  1  0
 13 14  1  0
 14 15  1  0
 13 16  2  0
 16 17  1  0
 17  7  1  0
 17 11  2  0
M  CHG  1   5  -1
M  END
>  <energy_score>  (385) 
-89.190132

>  <alias>  (385) 
None

>  <HIPPO Pose ID>  (385) 
69331

>  <smiles>  (385) 
C[C@@H](O)[C@@H]([O-])Nc1ncnc2sc(CCl)nc12

>  <inchikey>  (385) 
DEZZPFUGPKYJSB-SPGJFGJESA-N

>  <distance_score>  (385) 
0.989942

>  <ref_mols>  (385) 
Z1719a,Z0472a

>  <ref_pdb>  (385) 
Z0472a

>  <HIPPO Compound ID>  (385) 
138788

>  <name>  (385) 
P69331

>  <inspiration_score>  (385) 
None

$$$$
P69332
     RDKit          3D

 17 18  0  0  0  0  0  0  0  0999 V2000
   -3.0313    2.1176  -14.8007 O   0  0  0  0  0  0  0  0  0  0  0  0
   -3.0327    3.5365  -14.6708 C   0  0  0  0  0  0  0  0  0  0  0  0
   -3.2056    4.1751  -16.0382 C   0  0  0  0  0  0  0  0  0  0  0  0
   -3.2098    5.6954  -15.9816 C   0  0  1  0  0  0  0  0  0  0  0  0
   -3.2103    6.2565  -17.2830 O   0  0  0  0  0  0  0  0  0  0  0  0
   -4.2635    6.2629  -15.1464 N   0  0  0  0  0  0  0  0  0  0  0  0
   -5.5643    5.7567  -15.2063 C   0  0  0  0  0  0  0  0  0  0  0  0
   -6.2274    5.5377  -14.0500 N   0  0  0  0  0  0  0  0  0  0  0  0
   -7.4869    5.0412  -14.1201 C   0  0  0  0  0  0  0  0  0  0  0  0
   -8.2143    4.7516  -15.2133 N   0  0  0  0  0  0  0  0  0  0  0  0
   -7.5095    4.9617  -16.3353 C   0  0  0  0  0  0  0  0  0  0  0  0
   -8.0845    4.6479  -17.9153 S   0  0  0  0  0  0  0  0  0  0  0  0
   -6.5683    5.1527  -18.5339 C   0  0  0  0  0  0  0  0  0  0  0  0
   -6.1760    5.1015  -19.9496 C   0  0  0  0  0  0  0  0  0  0  0  0
   -5.6685    6.7594  -20.4566 Cl  0  0  0  0  0  0  0  0  0  0  0  0
   -5.6994    5.5847  -17.6553 N   0  0  0  0  0  0  0  0  0  0  0  0
   -6.2218    5.4554  -16.4026 C   0  0  0  0  0  0  0  0  0  0  0  0
  1  2  1  0
  2  3  1  0
  3  4  1  0
  4  5  1  6
  4  6  1  0
  6  7  1  0
  7  8  2  0
  8  9  1  0
  9 10  2  0
 10 11  1  0
 11 12  1  0
 12 13  1  0
 13 14  1  0
 14 15  1  0
 13 16  2  0
 16 17  1  0
 17  7  1  0
 17 11  2  0
M  END
>  <energy_score>  (386) 
-67.593676

>  <alias>  (386) 
None

>  <HIPPO Pose ID>  (386) 
69332

>  <smiles>  (386) 
OCC[C@@H](O)Nc1ncnc2sc(CCl)nc12

>  <inchikey>  (386) 
PQRSHLPNBKTDES-RXMQYKEDSA-N

>  <distance_score>  (386) 
0.92132

>  <ref_mols>  (386) 
Z1719a,Z0472a

>  <ref_pdb>  (386) 
Z0472a

>  <HIPPO Compound ID>  (386) 
138789

>  <name>  (386) 
P69332

>  <inspiration_score>  (386) 
None

$$$$
P69335
     RDKit          3D

 17 18  0  0  0  0  0  0  0  0999 V2000
   -2.2473    7.0247  -17.1719 C   0  0  0  0  0  0  0  0  0  0  0  0
   -3.1678    5.8267  -17.2955 C   0  0  1  0  0  0  0  0  0  0  0  0
   -2.4026    4.6468  -18.6742 Br  0  0  0  0  0  0  0  0  0  0  0  0
   -3.5191    5.0357  -16.0177 C   0  0  1  0  0  0  0  0  0  0  0  0
   -1.9534    4.7372  -14.8775 Br  0  0  0  0  0  0  0  0  0  0  0  0
   -4.4272    5.7487  -15.1178 N   0  0  0  0  0  0  0  0  0  0  0  0
   -5.7687    5.3457  -15.1688 C   0  0  0  0  0  0  0  0  0  0  0  0
   -6.4793    5.3166  -14.0244 N   0  0  0  0  0  0  0  0  0  0  0  0
   -7.7941    5.0003  -14.1027 C   0  0  0  0  0  0  0  0  0  0  0  0
   -8.5399    4.7679  -15.1994 N   0  0  0  0  0  0  0  0  0  0  0  0
   -7.7854    4.7773  -16.3095 C   0  0  0  0  0  0  0  0  0  0  0  0
   -8.3786    4.5540  -17.9027 S   0  0  0  0  0  0  0  0  0  0  0  0
   -6.7846    4.7689  -18.4925 C   0  0  0  0  0  0  0  0  0  0  0  0
   -6.3842    4.8286  -19.9054 C   0  0  0  0  0  0  0  0  0  0  0  0
   -5.7640    6.5001  -20.2304 Cl  0  0  0  0  0  0  0  0  0  0  0  0
   -5.8580    4.9229  -17.5853 N   0  0  0  0  0  0  0  0  0  0  0  0
   -6.4277    5.0164  -16.3568 C   0  0  0  0  0  0  0  0  0  0  0  0
  2  1  1  1
  2  3  1  0
  2  4  1  0
  4  5  1  1
  4  6  1  0
  6  7  1  0
  7  8  2  0
  8  9  1  0
  9 10  2  0
 10 11  1  0
 11 12  1  0
 12 13  1  0
 13 14  1  0
 14 15  1  0
 13 16  2  0
 16 17  1  0
 17  7  1  0
 17 11  2  0
M  END
>  <energy_score>  (387) 
-54.038133

>  <alias>  (387) 
None

>  <HIPPO Pose ID>  (387) 
69335

>  <smiles>  (387) 
C[C@@H](Br)[C@@H](Br)Nc1ncnc2sc(CCl)nc12

>  <inchikey>  (387) 
QDAREPRFXYEARO-FBCQKBJTSA-N

>  <distance_score>  (387) 
0.978031

>  <ref_mols>  (387) 
Z0472a,Z1719a

>  <ref_pdb>  (387) 
Z0472a

>  <HIPPO Compound ID>  (387) 
138791

>  <name>  (387) 
P69335

>  <inspiration_score>  (387) 
None

$$$$
P69340
     RDKit          3D

 17 18  0  0  0  0  0  0  0  0999 V2000
   -3.0867    6.1983  -17.3897 O   0  0  0  0  0  0  0  0  0  0  0  0
   -3.2360    5.5099  -16.1610 C   0  0  1  0  0  0  0  0  0  0  0  0
   -1.8691    5.3801  -15.4955 C   0  0  0  0  0  0  0  0  0  0  0  0
   -1.9599    4.4536  -14.2964 C   0  0  0  0  0  0  0  0  0  0  0  0
   -0.2231    4.3563  -13.4092 Br  0  0  0  0  0  0  0  0  0  0  0  0
   -4.1103    6.2889  -15.2960 N   0  0  0  0  0  0  0  0  0  0  0  0
   -5.4141    5.7973  -15.1901 C   0  0  0  0  0  0  0  0  0  0  0  0
   -5.9604    5.6250  -13.9706 N   0  0  0  0  0  0  0  0  0  0  0  0
   -7.2315    5.1633  -13.9056 C   0  0  0  0  0  0  0  0  0  0  0  0
   -8.0622    4.8658  -14.9180 N   0  0  0  0  0  0  0  0  0  0  0  0
   -7.4625    5.0332  -16.1060 C   0  0  0  0  0  0  0  0  0  0  0  0
   -8.1874    4.6966  -17.6028 S   0  0  0  0  0  0  0  0  0  0  0  0
   -6.7047    5.1051  -18.3873 C   0  0  0  0  0  0  0  0  0  0  0  0
   -6.3995    4.8921  -19.8126 C   0  0  0  0  0  0  0  0  0  0  0  0
   -7.4385    3.7108  -20.5474 Cl  0  0  0  0  0  0  0  0  0  0  0  0
   -5.7735    5.6129  -17.6180 N   0  0  0  0  0  0  0  0  0  0  0  0
   -6.1802    5.4962  -16.3152 C   0  0  0  0  0  0  0  0  0  0  0  0
  2  1  1  6
  2  3  1  0
  3  4  1  0
  4  5  1  0
  2  6  1  0
  6  7  1  0
  7  8  2  0
  8  9  1  0
  9 10  2  0
 10 11  1  0
 11 12  1  0
 12 13  1  0
 13 14  1  0
 14 15  1  0
 13 16  2  0
 16 17  1  0
 17  7  1  0
 17 11  2  0
M  END
>  <energy_score>  (388) 
-38.693558

>  <alias>  (388) 
None

>  <HIPPO Pose ID>  (388) 
69340

>  <smiles>  (388) 
O[C@@H](CCBr)Nc1ncnc2sc(CCl)nc12

>  <inchikey>  (388) 
RAWHGWRDCWVJIF-YFKPBYRVSA-N

>  <distance_score>  (388) 
1.199613

>  <ref_mols>  (388) 
Z1719a,Z0472a

>  <ref_pdb>  (388) 
Z0472a

>  <HIPPO Compound ID>  (388) 
138793

>  <name>  (388) 
P69340

>  <inspiration_score>  (388) 
None

$$$$
P69342
     RDKit          3D

 17 19  0  0  0  0  0  0  0  0999 V2000
   -2.4573    4.0908  -15.8111 F   0  0  0  0  0  0  0  0  0  0  0  0
   -2.6176    4.8178  -16.9775 C   0  0  2  0  0  0  0  0  0  0  0  0
   -1.7203    6.0011  -17.1469 C   0  0  0  0  0  0  0  0  0  0  0  0
   -3.1965    6.1980  -16.9022 C   0  0  2  0  0  0  0  0  0  0  0  0
   -3.7420    6.7432  -15.6184 C   0  0  0  0  0  0  0  0  0  0  0  0
   -4.3750    5.7410  -14.7767 N   0  0  0  0  0  0  0  0  0  0  0  0
   -5.6943    5.3578  -15.0097 C   0  0  0  0  0  0  0  0  0  0  0  0
   -6.4505    5.1157  -13.9128 N   0  0  0  0  0  0  0  0  0  0  0  0
   -7.7348    4.7341  -14.0844 C   0  0  0  0  0  0  0  0  0  0  0  0
   -8.4159    4.5995  -15.2310 N   0  0  0  0  0  0  0  0  0  0  0  0
   -7.6237    4.7987  -16.2945 C   0  0  0  0  0  0  0  0  0  0  0  0
   -8.1617    4.6344  -17.9096 S   0  0  0  0  0  0  0  0  0  0  0  0
   -6.5835    5.0256  -18.4417 C   0  0  0  0  0  0  0  0  0  0  0  0
   -6.1704    5.0646  -19.8554 C   0  0  0  0  0  0  0  0  0  0  0  0
   -5.6735    6.7464  -20.2675 Cl  0  0  0  0  0  0  0  0  0  0  0  0
   -5.7131    5.2964  -17.5022 N   0  0  0  0  0  0  0  0  0  0  0  0
   -6.2890    5.1652  -16.2687 C   0  0  0  0  0  0  0  0  0  0  0  0
  2  1  1  1
  2  3  1  0
  3  4  1  0
  4  5  1  1
  5  6  1  0
  6  7  1  0
  7  8  2  0
  8  9  1  0
  9 10  2  0
 10 11  1  0
 11 12  1  0
 12 13  1  0
 13 14  1  0
 14 15  1  0
 13 16  2  0
 16 17  1  0
  4  2  1  0
 17  7  1  0
 17 11  2  0
M  END
>  <energy_score>  (389) 
-38.215834

>  <alias>  (389) 
None

>  <HIPPO Pose ID>  (389) 
69342

>  <smiles>  (389) 
F[C@@H]1C[C@@H]1CNc1ncnc2sc(CCl)nc12

>  <inchikey>  (389) 
WNUJANGAIHEOFX-PHDIDXHHSA-N

>  <distance_score>  (389) 
1.111082

>  <ref_mols>  (389) 
Z1719a,Z0472a

>  <ref_pdb>  (389) 
Z0472a

>  <HIPPO Compound ID>  (389) 
138794

>  <name>  (389) 
P69342

>  <inspiration_score>  (389) 
None

$$$$
P69345
     RDKit          3D

 17 18  0  0  0  0  0  0  0  0999 V2000
   -1.6249    5.6339  -12.9865 N   0  0  0  0  0  0  0  0  0  0  0  0
   -1.7513    5.5791  -14.1395 C   0  0  0  0  0  0  0  0  0  0  0  0
   -1.8101    5.5716  -15.5965 C   0  0  0  0  0  0  0  0  0  0  0  0
   -3.2371    5.5057  -16.1071 C   0  0  1  0  0  0  0  0  0  0  0  0
   -3.1303    5.3002  -17.5126 O   0  0  0  0  0  0  0  0  0  0  0  0
   -3.9214    4.3777  -15.4794 N   0  0  0  0  0  0  0  0  0  0  0  0
   -5.3091    4.6105  -15.3241 C   0  0  0  0  0  0  0  0  0  0  0  0
   -5.9135    4.6301  -14.1227 N   0  0  0  0  0  0  0  0  0  0  0  0
   -7.2692    4.7027  -14.0971 C   0  0  0  0  0  0  0  0  0  0  0  0
   -8.1348    4.7977  -15.1318 N   0  0  0  0  0  0  0  0  0  0  0  0
   -7.4814    4.7700  -16.3041 C   0  0  0  0  0  0  0  0  0  0  0  0
   -8.2054    4.7880  -17.8560 S   0  0  0  0  0  0  0  0  0  0  0  0
   -6.6421    4.8159  -18.5523 C   0  0  0  0  0  0  0  0  0  0  0  0
   -6.3253    4.9500  -19.9748 C   0  0  0  0  0  0  0  0  0  0  0  0
   -5.7631    6.6399  -20.2559 Cl  0  0  0  0  0  0  0  0  0  0  0  0
   -5.6338    4.7455  -17.7254 N   0  0  0  0  0  0  0  0  0  0  0  0
   -6.1144    4.7070  -16.4559 C   0  0  0  0  0  0  0  0  0  0  0  0
  1  2  3  0
  2  3  1  0
  3  4  1  0
  4  5  1  6
  4  6  1  0
  6  7  1  0
  7  8  2  0
  8  9  1  0
  9 10  2  0
 10 11  1  0
 11 12  1  0
 12 13  1  0
 13 14  1  0
 14 15  1  0
 13 16  2  0
 16 17  1  0
 17  7  1  0
 17 11  2  0
M  END
>  <energy_score>  (390) 
-48.066912

>  <alias>  (390) 
None

>  <HIPPO Pose ID>  (390) 
69345

>  <smiles>  (390) 
N#CC[C@@H](O)Nc1ncnc2sc(CCl)nc12

>  <inchikey>  (390) 
XTTWXPRJRVELQV-RXMQYKEDSA-N

>  <distance_score>  (390) 
1.124902

>  <ref_mols>  (390) 
Z1719a,Z0472a

>  <ref_pdb>  (390) 
Z0472a

>  <HIPPO Compound ID>  (390) 
138795

>  <name>  (390) 
P69345

>  <inspiration_score>  (390) 
None

$$$$
P69349
     RDKit          3D

 18 19  0  0  0  0  0  0  0  0999 V2000
   -2.4272    4.4149  -14.8685 C   0  0  0  0  0  0  0  0  0  0  0  0
   -2.2698    5.2699  -16.1145 C   0  0  0  0  0  0  0  0  0  0  0  0
   -3.5719    5.4318  -16.8889 C   0  0  2  0  0  0  0  0  0  0  0  0
   -3.2454    5.9674  -18.1647 O   0  0  0  0  0  0  0  0  0  0  0  0
   -4.4137    6.4141  -16.2341 N   0  0  0  0  0  0  0  0  0  0  0  0
   -5.4869    5.8129  -15.5430 C   0  0  0  0  0  0  0  0  0  0  0  0
   -5.5201    5.7637  -14.1949 N   0  0  0  0  0  0  0  0  0  0  0  0
   -6.6246    5.2618  -13.5977 C   0  0  0  0  0  0  0  0  0  0  0  0
   -7.7505    4.8071  -14.1717 N   0  0  0  0  0  0  0  0  0  0  0  0
   -7.6576    4.8405  -15.5072 C   0  0  0  0  0  0  0  0  0  0  0  0
   -8.8808    4.3043  -16.5567 S   0  0  0  0  0  0  0  0  0  0  0  0
   -7.8418    4.6272  -17.8776 C   0  0  0  0  0  0  0  0  0  0  0  0
   -8.2069    4.2166  -19.2538 C   0  0  0  0  0  0  0  0  0  0  0  0
   -7.0336    4.1373  -20.1402 N   0  0  0  0  0  0  0  0  0  0  0  0
   -6.2757    5.1318  -20.1259 N   0  0  0  0  0  0  0  0  0  0  0  0
   -5.5573    6.0234  -20.0743 N   0  0  0  0  0  0  0  0  0  0  0  0
   -6.7276    5.2642  -17.5941 N   0  0  0  0  0  0  0  0  0  0  0  0
   -6.5926    5.3204  -16.2402 C   0  0  0  0  0  0  0  0  0  0  0  0
  1  2  1  0
  2  3  1  0
  3  4  1  6
  3  5  1  0
  5  6  1  0
  6  7  2  0
  7  8  1  0
  8  9  2  0
  9 10  1  0
 10 11  1  0
 11 12  1  0
 12 13  1  0
 13 14  1  0
 14 15  2  0
 15 16  2  0
 12 17  2  0
 17 18  1  0
 18  6  1  0
 18 10  2  0
M  CHG  2  15   1  16  -1
M  END
>  <energy_score>  (391) 
-67.676442

>  <alias>  (391) 
None

>  <HIPPO Pose ID>  (391) 
69349

>  <smiles>  (391) 
CC[C@H](O)Nc1ncnc2sc(CN=[N+]=[N-])nc12

>  <inchikey>  (391) 
HQQVVMATNJNSHD-YFKPBYRVSA-N

>  <distance_score>  (391) 
1.163351

>  <ref_mols>  (391) 
Z1719a,Z0472a

>  <ref_pdb>  (391) 
Z0472a

>  <HIPPO Compound ID>  (391) 
138800

>  <name>  (391) 
P69349

>  <inspiration_score>  (391) 
None

$$$$
P69351
     RDKit          3D

 18 19  0  0  0  0  0  0  0  0999 V2000
   -1.7437    6.0257  -17.8919 C   0  0  0  0  0  0  0  0  0  0  0  0
   -3.1446    5.7859  -17.3503 C   0  0  2  0  0  0  0  0  0  0  0  0
   -3.9866    7.3612  -17.2855 Cl  0  0  0  0  0  0  0  0  0  0  0  0
   -3.1389    5.0337  -15.9977 C   0  0  0  0  0  0  0  0  0  0  0  0
   -4.1055    5.4774  -14.9879 N   0  0  0  0  0  0  0  0  0  0  0  0
   -5.4575    5.1389  -15.0551 C   0  0  0  0  0  0  0  0  0  0  0  0
   -6.1358    5.1321  -13.8832 N   0  0  0  0  0  0  0  0  0  0  0  0
   -7.4728    4.9304  -13.9121 C   0  0  0  0  0  0  0  0  0  0  0  0
   -8.2734    4.7743  -14.9776 N   0  0  0  0  0  0  0  0  0  0  0  0
   -7.5614    4.7417  -16.1150 C   0  0  0  0  0  0  0  0  0  0  0  0
   -8.2652    4.5979  -17.6687 S   0  0  0  0  0  0  0  0  0  0  0  0
   -6.7007    4.7153  -18.3474 C   0  0  0  0  0  0  0  0  0  0  0  0
   -6.4141    4.8345  -19.7921 C   0  0  0  0  0  0  0  0  0  0  0  0
   -6.0458    6.2398  -20.0665 N   0  0  0  0  0  0  0  0  0  0  0  0
   -4.8976    6.4227  -20.4935 N   0  0  0  0  0  0  0  0  0  0  0  0
   -3.8337    6.5876  -20.8773 N   0  0  0  0  0  0  0  0  0  0  0  0
   -5.7063    4.7594  -17.4984 N   0  0  0  0  0  0  0  0  0  0  0  0
   -6.1875    4.8727  -16.2264 C   0  0  0  0  0  0  0  0  0  0  0  0
  2  1  1  1
  2  3  1  0
  2  4  1  0
  4  5  1  0
  5  6  1  0
  6  7  2  0
  7  8  1  0
  8  9  2  0
  9 10  1  0
 10 11  1  0
 11 12  1  0
 12 13  1  0
 13 14  1  0
 14 15  2  0
 15 16  2  0
 12 17  2  0
 17 18  1  0
 18  6  1  0
 18 10  2  0
M  CHG  2  15   1  16  -1
M  END
>  <energy_score>  (392) 
-85.3246

>  <alias>  (392) 
None

>  <HIPPO Pose ID>  (392) 
69351

>  <smiles>  (392) 
C[C@H](Cl)CNc1ncnc2sc(CN=[N+]=[N-])nc12

>  <inchikey>  (392) 
PSIIQMBMSANINE-YFKPBYRVSA-N

>  <distance_score>  (392) 
1.044883

>  <ref_mols>  (392) 
Z1719a,Z0472a

>  <ref_pdb>  (392) 
Z0472a

>  <HIPPO Compound ID>  (392) 
138801

>  <name>  (392) 
P69351

>  <inspiration_score>  (392) 
None

$$$$
P69352
     RDKit          3D

 18 20  0  0  0  0  0  0  0  0999 V2000
   -3.4800    6.7240  -20.7095 N   0  0  0  0  0  0  0  0  0  0  0  0
   -4.0993    5.8650  -20.2853 N   0  0  0  0  0  0  0  0  0  0  0  0
   -4.7417    4.8961  -19.8514 N   0  0  0  0  0  0  0  0  0  0  0  0
   -6.2091    5.1084  -19.8004 C   0  0  0  0  0  0  0  0  0  0  0  0
   -6.6242    5.1771  -18.3786 C   0  0  0  0  0  0  0  0  0  0  0  0
   -5.8085    5.6439  -17.4594 N   0  0  0  0  0  0  0  0  0  0  0  0
   -6.2883    5.2657  -16.2318 C   0  0  0  0  0  0  0  0  0  0  0  0
   -5.5953    5.3063  -15.0100 C   0  0  0  0  0  0  0  0  0  0  0  0
   -4.2666    5.7985  -14.9397 N   0  0  0  0  0  0  0  0  0  0  0  0
   -3.3402    4.7867  -15.4676 C   0  0  0  0  0  0  0  0  0  0  0  0
   -2.2494    5.4746  -16.2537 C   0  0  0  0  0  0  0  0  0  0  0  0
   -2.5385    6.4694  -17.3640 C   0  0  0  0  0  0  0  0  0  0  0  0
   -2.0268    5.1070  -17.7018 C   0  0  0  0  0  0  0  0  0  0  0  0
   -6.2277    4.8644  -13.9045 N   0  0  0  0  0  0  0  0  0  0  0  0
   -7.5013    4.4266  -14.0308 C   0  0  0  0  0  0  0  0  0  0  0  0
   -8.2615    4.3728  -15.1387 N   0  0  0  0  0  0  0  0  0  0  0  0
   -7.5722    4.7571  -16.2212 C   0  0  0  0  0  0  0  0  0  0  0  0
   -8.1530    4.6294  -17.8211 S   0  0  0  0  0  0  0  0  0  0  0  0
  1  2  2  0
  2  3  2  0
  3  4  1  0
  4  5  1  0
  5  6  2  0
  6  7  1  0
  7  8  2  0
  8  9  1  0
  9 10  1  0
 10 11  1  0
 11 12  1  0
 12 13  1  0
  8 14  1  0
 14 15  2  0
 15 16  1  0
 16 17  2  0
 17 18  1  0
 18  5  1  0
 17  7  1  0
 13 11  1  0
M  CHG  2   1  -1   2   1
M  END
>  <energy_score>  (393) 
-66.832973

>  <alias>  (393) 
None

>  <HIPPO Pose ID>  (393) 
69352

>  <smiles>  (393) 
[N-]=[N+]=NCc1nc2c(NCC3CC3)ncnc2s1

>  <inchikey>  (393) 
MVRLITMYGZIQFV-UHFFFAOYSA-N

>  <distance_score>  (393) 
0.912417

>  <ref_mols>  (393) 
Z0472a,Z1719a

>  <ref_pdb>  (393) 
Z0472a

>  <HIPPO Compound ID>  (393) 
138802

>  <name>  (393) 
P69352

>  <inspiration_score>  (393) 
None

$$$$
P69355
     RDKit          3D

 18 19  0  0  0  0  0  0  0  0999 V2000
   -4.1239    7.4692  -20.9992 N   0  0  0  0  0  0  0  0  0  0  0  0
   -4.4274    6.4980  -20.4818 N   0  0  0  0  0  0  0  0  0  0  0  0
   -4.7721    5.4393  -19.9306 N   0  0  0  0  0  0  0  0  0  0  0  0
   -6.2281    5.3092  -19.7279 C   0  0  0  0  0  0  0  0  0  0  0  0
   -6.5364    5.0546  -18.2980 C   0  0  0  0  0  0  0  0  0  0  0  0
   -5.6401    5.1839  -17.3471 N   0  0  0  0  0  0  0  0  0  0  0  0
   -6.2307    4.9755  -16.1217 C   0  0  0  0  0  0  0  0  0  0  0  0
   -5.6362    5.0134  -14.8440 C   0  0  0  0  0  0  0  0  0  0  0  0
   -4.2899    5.2867  -14.5591 N   0  0  0  0  0  0  0  0  0  0  0  0
   -3.3056    4.7998  -15.5130 C   0  0  0  0  0  0  0  0  0  0  0  0
   -2.9005    5.9377  -16.4465 C   0  0  0  0  0  0  0  0  0  0  0  0
   -2.3187    5.3928  -17.7348 C   0  0  0  0  0  0  0  0  0  0  0  0
   -2.1056    6.4391  -18.6742 O   0  0  0  0  0  0  0  0  0  0  0  0
   -6.4216    4.7702  -13.7704 N   0  0  0  0  0  0  0  0  0  0  0  0
   -7.7305    4.5124  -13.9715 C   0  0  0  0  0  0  0  0  0  0  0  0
   -8.4038    4.5010  -15.1282 N   0  0  0  0  0  0  0  0  0  0  0  0
   -7.5886    4.7081  -16.1720 C   0  0  0  0  0  0  0  0  0  0  0  0
   -8.1314    4.6801  -17.7867 S   0  0  0  0  0  0  0  0  0  0  0  0
  1  2  2  0
  2  3  2  0
  3  4  1  0
  4  5  1  0
  5  6  2  0
  6  7  1  0
  7  8  2  0
  8  9  1  0
  9 10  1  0
 10 11  1  0
 11 12  1  0
 12 13  1  0
  8 14  1  0
 14 15  2  0
 15 16  1  0
 16 17  2  0
 17 18  1  0
 18  5  1  0
 17  7  1  0
M  CHG  2   1  -1   2   1
M  END
>  <energy_score>  (394) 
-47.850702

>  <alias>  (394) 
None

>  <HIPPO Pose ID>  (394) 
69355

>  <smiles>  (394) 
[N-]=[N+]=NCc1nc2c(NCCCO)ncnc2s1

>  <inchikey>  (394) 
XBBKIUGZUFDZLR-UHFFFAOYSA-N

>  <distance_score>  (394) 
1.144512

>  <ref_mols>  (394) 
Z1719a,Z0472a

>  <ref_pdb>  (394) 
Z0472a

>  <HIPPO Compound ID>  (394) 
138805

>  <name>  (394) 
P69355

>  <inspiration_score>  (394) 
None

$$$$
P69357
     RDKit          3D

 18 20  0  0  0  0  0  0  0  0999 V2000
   -6.2151    8.2326  -19.3928 N   0  0  0  0  0  0  0  0  0  0  0  0
   -5.8105    7.2265  -19.7511 N   0  0  0  0  0  0  0  0  0  0  0  0
   -5.3426    6.1496  -20.1497 N   0  0  0  0  0  0  0  0  0  0  0  0
   -6.0966    4.9242  -19.8044 C   0  0  0  0  0  0  0  0  0  0  0  0
   -6.4618    4.8800  -18.3705 C   0  0  0  0  0  0  0  0  0  0  0  0
   -5.5357    5.0355  -17.4593 N   0  0  0  0  0  0  0  0  0  0  0  0
   -6.1056    5.0255  -16.2145 C   0  0  0  0  0  0  0  0  0  0  0  0
   -5.4641    5.1867  -14.9742 C   0  0  0  0  0  0  0  0  0  0  0  0
   -4.0943    5.4342  -14.8000 N   0  0  0  0  0  0  0  0  0  0  0  0
   -3.1975    4.6114  -15.6034 C   0  0  0  0  0  0  0  0  0  0  0  0
   -2.3334    5.4527  -16.4965 C   0  0  1  0  0  0  0  0  0  0  0  0
   -2.3193    5.2027  -17.9854 C   0  0  0  0  0  0  0  0  0  0  0  0
   -2.9854    6.3359  -17.4245 O   0  0  0  0  0  0  0  0  0  0  0  0
   -6.2209    5.1162  -13.8558 N   0  0  0  0  0  0  0  0  0  0  0  0
   -7.5476    4.8961  -13.9896 C   0  0  0  0  0  0  0  0  0  0  0  0
   -8.2645    4.7730  -15.1172 N   0  0  0  0  0  0  0  0  0  0  0  0
   -7.4763    4.8299  -16.2019 C   0  0  0  0  0  0  0  0  0  0  0  0
   -8.0629    4.6798  -17.8002 S   0  0  0  0  0  0  0  0  0  0  0  0
  1  2  2  0
  2  3  2  0
  3  4  1  0
  4  5  1  0
  5  6  2  0
  6  7  1  0
  7  8  2  0
  8  9  1  0
  9 10  1  0
 11 10  1  1
 11 12  1  0
 12 13  1  0
  8 14  1  0
 14 15  2  0
 15 16  1  0
 16 17  2  0
 17 18  1  0
 18  5  1  0
 17  7  1  0
 13 11  1  0
M  CHG  2   1  -1   2   1
M  END
>  <energy_score>  (395) 
-81.890461

>  <alias>  (395) 
None

>  <HIPPO Pose ID>  (395) 
69357

>  <smiles>  (395) 
[N-]=[N+]=NCc1nc2c(NC[C@H]3CO3)ncnc2s1

>  <inchikey>  (395) 
NPXWTKVCFUUYFI-YFKPBYRVSA-N

>  <distance_score>  (395) 
1.0973

>  <ref_mols>  (395) 
Z0472a,Z1719a

>  <ref_pdb>  (395) 
Z0472a

>  <HIPPO Compound ID>  (395) 
138806

>  <name>  (395) 
P69357

>  <inspiration_score>  (395) 
None

$$$$
P69358
     RDKit          3D

 18 19  0  0  0  0  0  0  0  0999 V2000
   -2.4679    5.5309  -18.3606 C   0  0  0  0  0  0  0  0  0  0  0  0
   -3.1168    6.0192  -17.0785 C   0  0  2  0  0  0  0  0  0  0  0  0
   -2.2476    6.9921  -16.4737 O   0  0  0  0  0  0  0  0  0  0  0  0
   -3.3604    4.8838  -16.0632 C   0  0  0  0  0  0  0  0  0  0  0  0
   -4.1821    5.3719  -14.9406 N   0  0  0  0  0  0  0  0  0  0  0  0
   -5.5640    5.1254  -15.0125 C   0  0  0  0  0  0  0  0  0  0  0  0
   -6.2525    5.0554  -13.8529 N   0  0  0  0  0  0  0  0  0  0  0  0
   -7.5888    4.8418  -13.9131 C   0  0  0  0  0  0  0  0  0  0  0  0
   -8.3743    4.7163  -14.9979 N   0  0  0  0  0  0  0  0  0  0  0  0
   -7.6476    4.7482  -16.1255 C   0  0  0  0  0  0  0  0  0  0  0  0
   -8.3001    4.5636  -17.6998 S   0  0  0  0  0  0  0  0  0  0  0  0
   -6.7221    4.7270  -18.3346 C   0  0  0  0  0  0  0  0  0  0  0  0
   -6.3621    4.7550  -19.7663 C   0  0  0  0  0  0  0  0  0  0  0  0
   -5.5128    5.9357  -20.0263 N   0  0  0  0  0  0  0  0  0  0  0  0
   -5.9722    7.0471  -19.7327 N   0  0  0  0  0  0  0  0  0  0  0  0
   -6.3267    8.0922  -19.4397 N   0  0  0  0  0  0  0  0  0  0  0  0
   -5.7683    4.9279  -17.4646 N   0  0  0  0  0  0  0  0  0  0  0  0
   -6.2818    4.9430  -16.2045 C   0  0  0  0  0  0  0  0  0  0  0  0
  2  1  1  6
  2  3  1  0
  2  4  1  0
  4  5  1  0
  5  6  1  0
  6  7  2  0
  7  8  1  0
  8  9  2  0
  9 10  1  0
 10 11  1  0
 11 12  1  0
 12 13  1  0
 13 14  1  0
 14 15  2  0
 15 16  2  0
 12 17  2  0
 17 18  1  0
 18  6  1  0
 18 10  2  0
M  CHG  2  15   1  16  -1
M  END
>  <energy_score>  (396) 
-95.004272

>  <alias>  (396) 
None

>  <HIPPO Pose ID>  (396) 
69358

>  <smiles>  (396) 
C[C@H](O)CNc1ncnc2sc(CN=[N+]=[N-])nc12

>  <inchikey>  (396) 
RIWVPWFMBNGYCY-YFKPBYRVSA-N

>  <distance_score>  (396) 
1.242342

>  <ref_mols>  (396) 
Z0472a,Z1719a

>  <ref_pdb>  (396) 
Z0472a

>  <HIPPO Compound ID>  (396) 
138807

>  <name>  (396) 
P69358

>  <inspiration_score>  (396) 
None

$$$$
P69362
     RDKit          3D

 19 20  0  0  0  0  0  0  0  0999 V2000
   -3.1952    5.8605  -20.5821 N   0  0  0  0  0  0  0  0  0  0  0  0
   -4.0207    5.2070  -20.1398 N   0  0  0  0  0  0  0  0  0  0  0  0
   -4.8891    4.4237  -19.7254 N   0  0  0  0  0  0  0  0  0  0  0  0
   -6.2930    4.8757  -19.8640 C   0  0  0  0  0  0  0  0  0  0  0  0
   -6.7628    5.2126  -18.5031 C   0  0  0  0  0  0  0  0  0  0  0  0
   -5.9953    5.9411  -17.7248 N   0  0  0  0  0  0  0  0  0  0  0  0
   -6.3521    5.6821  -16.4302 C   0  0  0  0  0  0  0  0  0  0  0  0
   -5.6087    5.9970  -15.2878 C   0  0  0  0  0  0  0  0  0  0  0  0
   -4.3423    6.5973  -15.3375 N   0  0  0  0  0  0  0  0  0  0  0  0
   -3.2838    5.9235  -16.0900 C   0  0  2  0  0  0  0  0  0  0  0  0
   -3.3788    6.1939  -17.4705 O   0  0  0  0  0  0  0  0  0  0  0  0
   -3.1861    4.4243  -15.8047 C   0  0  0  0  0  0  0  0  0  0  0  0
   -2.6595    4.1973  -14.3918 C   0  0  0  0  0  0  0  0  0  0  0  0
   -3.1017    2.2758  -13.6335 I   0  0  0  0  0  0  0  0  0  0  0  0
   -6.1317    5.6882  -14.0825 N   0  0  0  0  0  0  0  0  0  0  0  0
   -7.3344    5.0631  -14.0511 C   0  0  0  0  0  0  0  0  0  0  0  0
   -8.1205    4.7107  -15.0822 N   0  0  0  0  0  0  0  0  0  0  0  0
   -7.5507    5.0165  -16.2570 C   0  0  0  0  0  0  0  0  0  0  0  0
   -8.1835    4.5796  -17.7831 S   0  0  0  0  0  0  0  0  0  0  0  0
  1  2  2  0
  2  3  2  0
  3  4  1  0
  4  5  1  0
  5  6  2  0
  6  7  1  0
  7  8  2  0
  8  9  1  0
  9 10  1  0
 10 11  1  6
 10 12  1  0
 12 13  1  0
 13 14  1  0
  8 15  1  0
 15 16  2  0
 16 17  1  0
 17 18  2  0
 18 19  1  0
 19  5  1  0
 18  7  1  0
M  CHG  2   1  -1   2   1
M  END
>  <energy_score>  (397) 
-87.803533

>  <alias>  (397) 
None

>  <HIPPO Pose ID>  (397) 
69362

>  <smiles>  (397) 
[N-]=[N+]=NCc1nc2c(N[C@H](O)CCI)ncnc2s1

>  <inchikey>  (397) 
KWHXPADQLILKMA-RXMQYKEDSA-N

>  <distance_score>  (397) 
0.942268

>  <ref_mols>  (397) 
Z0472a,Z1719a

>  <ref_pdb>  (397) 
Z0472a

>  <HIPPO Compound ID>  (397) 
138810

>  <name>  (397) 
P69362

>  <inspiration_score>  (397) 
None

$$$$
P69369
     RDKit          3D

 19 20  0  0  0  0  0  0  0  0999 V2000
   -2.8644    6.2404  -18.1148 C   0  0  0  0  0  0  0  0  0  0  0  0
   -3.2473    5.7774  -16.7271 C   0  0  0  0  0  0  0  0  0  0  0  0
   -2.9128    4.5373  -16.3498 C   0  0  0  0  0  0  0  0  0  0  0  0
   -3.0973    3.7294  -14.6978 Br  0  0  0  0  0  0  0  0  0  0  0  0
   -3.9672    6.8293  -15.9169 C   0  0  0  0  0  0  0  0  0  0  0  0
   -4.8311    6.3573  -14.8479 N   0  0  0  0  0  0  0  0  0  0  0  0
   -6.0111    5.6735  -15.1218 C   0  0  0  0  0  0  0  0  0  0  0  0
   -6.6594    5.1139  -14.0736 N   0  0  0  0  0  0  0  0  0  0  0  0
   -7.8190    4.4608  -14.3090 C   0  0  0  0  0  0  0  0  0  0  0  0
   -8.4483    4.2786  -15.4797 N   0  0  0  0  0  0  0  0  0  0  0  0
   -7.7347    4.7727  -16.4998 C   0  0  0  0  0  0  0  0  0  0  0  0
   -8.1581    4.5670  -18.1434 S   0  0  0  0  0  0  0  0  0  0  0  0
   -6.6928    5.3380  -18.5808 C   0  0  0  0  0  0  0  0  0  0  0  0
   -6.1368    5.3822  -19.9543 C   0  0  0  0  0  0  0  0  0  0  0  0
   -5.8171    6.7872  -20.2840 N   0  0  0  0  0  0  0  0  0  0  0  0
   -5.7799    7.0941  -21.4843 N   0  0  0  0  0  0  0  0  0  0  0  0
   -5.7258    7.4566  -22.5649 N   0  0  0  0  0  0  0  0  0  0  0  0
   -6.0231    5.8835  -17.5982 N   0  0  0  0  0  0  0  0  0  0  0  0
   -6.5529    5.4811  -16.4030 C   0  0  0  0  0  0  0  0  0  0  0  0
  1  2  1  0
  2  3  2  0
  3  4  1  0
  2  5  1  0
  5  6  1  0
  6  7  1  0
  7  8  2  0
  8  9  1  0
  9 10  2  0
 10 11  1  0
 11 12  1  0
 12 13  1  0
 13 14  1  0
 14 15  1  0
 15 16  2  0
 16 17  2  0
 13 18  2  0
 18 19  1  0
 19  7  1  0
 19 11  2  0
M  CHG  2  16   1  17  -1
M  END
>  <energy_score>  (398) 
-83.067631

>  <alias>  (398) 
None

>  <HIPPO Pose ID>  (398) 
69369

>  <smiles>  (398) 
C/C(=C/Br)CNc1ncnc2sc(CN=[N+]=[N-])nc12

>  <inchikey>  (398) 
KKAUMURBYSKVDI-KXFIGUGUSA-N

>  <distance_score>  (398) 
0.927689

>  <ref_mols>  (398) 
Z1719a,Z0472a

>  <ref_pdb>  (398) 
Z0472a

>  <HIPPO Compound ID>  (398) 
138815

>  <name>  (398) 
P69369

>  <inspiration_score>  (398) 
None

$$$$
P69370
     RDKit          3D

 19 20  0  0  0  0  0  0  0  0999 V2000
   -0.8688    4.2340  -13.4244 C   0  0  0  0  0  0  0  0  0  0  0  0
   -2.1426    4.2855  -14.2561 C   0  0  0  0  0  0  0  0  0  0  0  0
   -1.9852    5.2127  -15.4598 C   0  0  0  0  0  0  0  0  0  0  0  0
   -3.2841    5.3294  -16.2328 C   0  0  2  0  0  0  0  0  0  0  0  0
   -3.0325    6.0764  -17.3476 F   0  0  0  0  0  0  0  0  0  0  0  0
   -4.2314    6.0772  -15.4023 N   0  0  0  0  0  0  0  0  0  0  0  0
   -5.4943    5.4480  -15.4441 C   0  0  0  0  0  0  0  0  0  0  0  0
   -6.0471    4.8047  -14.3989 N   0  0  0  0  0  0  0  0  0  0  0  0
   -7.2728    4.2482  -14.5842 C   0  0  0  0  0  0  0  0  0  0  0  0
   -8.0317    4.2344  -15.7021 N   0  0  0  0  0  0  0  0  0  0  0  0
   -7.4042    4.8405  -16.7198 C   0  0  0  0  0  0  0  0  0  0  0  0
   -7.9298    4.8832  -18.3430 S   0  0  0  0  0  0  0  0  0  0  0  0
   -6.5305    5.8106  -18.7479 C   0  0  0  0  0  0  0  0  0  0  0  0
   -6.1769    6.2786  -20.1083 C   0  0  0  0  0  0  0  0  0  0  0  0
   -4.7876    6.7898  -20.1977 N   0  0  0  0  0  0  0  0  0  0  0  0
   -3.8978    5.9280  -20.2545 N   0  0  0  0  0  0  0  0  0  0  0  0
   -3.0603    5.1576  -20.3562 N   0  0  0  0  0  0  0  0  0  0  0  0
   -5.7436    6.1139  -17.7550 N   0  0  0  0  0  0  0  0  0  0  0  0
   -6.1980    5.4920  -16.6388 C   0  0  0  0  0  0  0  0  0  0  0  0
  1  2  1  0
  2  3  1  0
  3  4  1  0
  4  5  1  6
  4  6  1  0
  6  7  1  0
  7  8  2  0
  8  9  1  0
  9 10  2  0
 10 11  1  0
 11 12  1  0
 12 13  1  0
 13 14  1  0
 14 15  1  0
 15 16  2  0
 16 17  2  0
 13 18  2  0
 18 19  1  0
 19  7  1  0
 19 11  2  0
M  CHG  2  16   1  17  -1
M  END
>  <energy_score>  (399) 
-73.642696

>  <alias>  (399) 
None

>  <HIPPO Pose ID>  (399) 
69370

>  <smiles>  (399) 
CCC[C@H](F)Nc1ncnc2sc(CN=[N+]=[N-])nc12

>  <inchikey>  (399) 
KKEFLVXZHSAZHB-ZCFIWIBFSA-N

>  <distance_score>  (399) 
1.1006

>  <ref_mols>  (399) 
Z1719a,Z0472a

>  <ref_pdb>  (399) 
Z0472a

>  <HIPPO Compound ID>  (399) 
138816

>  <name>  (399) 
P69370

>  <inspiration_score>  (399) 
None

$$$$
P69374
     RDKit          3D

 19 21  0  0  0  0  0  0  0  0999 V2000
   -6.2766    8.2054  -19.4302 N   0  0  0  0  0  0  0  0  0  0  0  0
   -5.9157    7.1898  -19.8085 N   0  0  0  0  0  0  0  0  0  0  0  0
   -5.4595    6.1110  -20.2105 N   0  0  0  0  0  0  0  0  0  0  0  0
   -6.2049    4.8825  -19.8429 C   0  0  0  0  0  0  0  0  0  0  0  0
   -6.5594    4.8716  -18.4054 C   0  0  0  0  0  0  0  0  0  0  0  0
   -5.6275    5.1042  -17.5166 N   0  0  0  0  0  0  0  0  0  0  0  0
   -6.1534    5.0336  -16.2593 C   0  0  0  0  0  0  0  0  0  0  0  0
   -5.4792    5.1932  -15.0384 C   0  0  0  0  0  0  0  0  0  0  0  0
   -4.1072    5.4825  -14.9014 N   0  0  0  0  0  0  0  0  0  0  0  0
   -3.2118    4.5426  -15.5758 C   0  0  0  0  0  0  0  0  0  0  0  0
   -2.8990    4.9263  -16.9932 C   0  0  1  0  0  0  0  0  0  0  0  0
   -2.8842    6.3633  -17.4900 C   0  0  0  0  0  0  0  0  0  0  0  0
   -1.6109    5.6190  -17.3120 C   0  0  2  0  0  0  0  0  0  0  0  0
   -0.9433    5.2202  -18.4574 F   0  0  0  0  0  0  0  0  0  0  0  0
   -6.2003    5.0967  -13.8988 N   0  0  0  0  0  0  0  0  0  0  0  0
   -7.5245    4.8395  -13.9972 C   0  0  0  0  0  0  0  0  0  0  0  0
   -8.2696    4.7044  -15.1051 N   0  0  0  0  0  0  0  0  0  0  0  0
   -7.5158    4.7924  -16.2119 C   0  0  0  0  0  0  0  0  0  0  0  0
   -8.1386    4.6268  -17.7965 S   0  0  0  0  0  0  0  0  0  0  0  0
  1  2  2  0
  2  3  2  0
  3  4  1  0
  4  5  1  0
  5  6  2  0
  6  7  1  0
  7  8  2  0
  8  9  1  0
  9 10  1  0
 11 10  1  1
 11 12  1  0
 12 13  1  0
 13 14  1  6
  8 15  1  0
 15 16  2  0
 16 17  1  0
 17 18  2  0
 18 19  1  0
 19  5  1  0
 18  7  1  0
 13 11  1  0
M  CHG  2   1  -1   2   1
M  END
>  <energy_score>  (400) 
-86.237731

>  <alias>  (400) 
None

>  <HIPPO Pose ID>  (400) 
69374

>  <smiles>  (400) 
[N-]=[N+]=NCc1nc2c(NC[C@H]3C[C@@H]3F)ncnc2s1

>  <inchikey>  (400) 
FANOZTXPDMKCBJ-RITPCOANSA-N

>  <distance_score>  (400) 
0.92872

>  <ref_mols>  (400) 
Z1719a,Z0472a

>  <ref_pdb>  (400) 
Z0472a

>  <HIPPO Compound ID>  (400) 
138817

>  <name>  (400) 
P69374

>  <inspiration_score>  (400) 
None

$$$$
P69376
     RDKit          3D

 19 20  0  0  0  0  0  0  0  0999 V2000
   -2.6303    3.2741  -13.9660 N   0  0  0  0  0  0  0  0  0  0  0  0
   -2.9440    3.7332  -14.9844 C   0  0  0  0  0  0  0  0  0  0  0  0
   -3.3069    4.3308  -16.2678 C   0  0  0  0  0  0  0  0  0  0  0  0
   -3.3320    5.8502  -16.1534 C   0  0  1  0  0  0  0  0  0  0  0  0
   -3.4243    6.4538  -17.4332 O   0  0  0  0  0  0  0  0  0  0  0  0
   -4.3421    6.3971  -15.2447 N   0  0  0  0  0  0  0  0  0  0  0  0
   -5.6384    5.8694  -15.2465 C   0  0  0  0  0  0  0  0  0  0  0  0
   -6.1890    5.5276  -14.0640 N   0  0  0  0  0  0  0  0  0  0  0  0
   -7.4154    4.9517  -14.0681 C   0  0  0  0  0  0  0  0  0  0  0  0
   -8.1972    4.6665  -15.1224 N   0  0  0  0  0  0  0  0  0  0  0  0
   -7.5999    4.9947  -16.2766 C   0  0  0  0  0  0  0  0  0  0  0  0
   -8.2085    4.6038  -17.8248 S   0  0  0  0  0  0  0  0  0  0  0  0
   -6.7599    5.2215  -18.5014 C   0  0  0  0  0  0  0  0  0  0  0  0
   -6.2704    4.9010  -19.8605 C   0  0  0  0  0  0  0  0  0  0  0  0
   -4.8582    4.4696  -19.7060 N   0  0  0  0  0  0  0  0  0  0  0  0
   -4.0026    5.2571  -20.1377 N   0  0  0  0  0  0  0  0  0  0  0  0
   -3.1784    5.9090  -20.5832 N   0  0  0  0  0  0  0  0  0  0  0  0
   -5.9900    5.9116  -17.6899 N   0  0  0  0  0  0  0  0  0  0  0  0
   -6.3800    5.6310  -16.4092 C   0  0  0  0  0  0  0  0  0  0  0  0
  1  2  3  0
  2  3  1  0
  3  4  1  0
  4  5  1  6
  4  6  1  0
  6  7  1  0
  7  8  2  0
  8  9  1  0
  9 10  2  0
 10 11  1  0
 11 12  1  0
 12 13  1  0
 13 14  1  0
 14 15  1  0
 15 16  2  0
 16 17  2  0
 13 18  2  0
 18 19  1  0
 19  7  1  0
 19 11  2  0
M  CHG  2  16   1  17  -1
M  END
>  <energy_score>  (401) 
-77.390624

>  <alias>  (401) 
None

>  <HIPPO Pose ID>  (401) 
69376

>  <smiles>  (401) 
N#CC[C@@H](O)Nc1ncnc2sc(CN=[N+]=[N-])nc12

>  <inchikey>  (401) 
QPORTGZSYYWNNF-RXMQYKEDSA-N

>  <distance_score>  (401) 
0.886068

>  <ref_mols>  (401) 
Z0472a,Z1719a

>  <ref_pdb>  (401) 
Z0472a

>  <HIPPO Compound ID>  (401) 
138818

>  <name>  (401) 
P69376

>  <inspiration_score>  (401) 
None

$$$$
P69377
     RDKit          3D

 19 20  0  0  0  0  0  0  0  0999 V2000
   -1.3301    6.5733  -14.8686 C   0  0  0  0  0  0  0  0  0  0  0  0
   -1.8749    5.2448  -15.4059 C   0  0  0  0  0  0  0  0  0  0  0  0
   -1.9309    4.2005  -14.2905 C   0  0  0  0  0  0  0  0  0  0  0  0
   -3.2431    5.3722  -16.0913 C   0  0  2  0  0  0  0  0  0  0  0  0
   -3.1134    6.2884  -17.1665 O   0  0  0  0  0  0  0  0  0  0  0  0
   -4.2401    5.8495  -15.1383 N   0  0  0  0  0  0  0  0  0  0  0  0
   -5.5213    5.3056  -15.2964 C   0  0  0  0  0  0  0  0  0  0  0  0
   -6.2081    4.8751  -14.2192 N   0  0  0  0  0  0  0  0  0  0  0  0
   -7.4672    4.4097  -14.4186 C   0  0  0  0  0  0  0  0  0  0  0  0
   -8.1682    4.3553  -15.5668 N   0  0  0  0  0  0  0  0  0  0  0  0
   -7.4344    4.7794  -16.6061 C   0  0  0  0  0  0  0  0  0  0  0  0
   -7.9721    4.8449  -18.2252 S   0  0  0  0  0  0  0  0  0  0  0  0
   -6.4802    5.5823  -18.6637 C   0  0  0  0  0  0  0  0  0  0  0  0
   -6.1875    6.1545  -19.9984 C   0  0  0  0  0  0  0  0  0  0  0  0
   -4.8203    6.7250  -20.0841 N   0  0  0  0  0  0  0  0  0  0  0  0
   -3.9014    5.9121  -20.2690 N   0  0  0  0  0  0  0  0  0  0  0  0
   -3.0337    5.1964  -20.4719 N   0  0  0  0  0  0  0  0  0  0  0  0
   -5.5913    5.6829  -17.7138 N   0  0  0  0  0  0  0  0  0  0  0  0
   -6.1427    5.2546  -16.5419 C   0  0  0  0  0  0  0  0  0  0  0  0
  1  2  1  0
  2  3  1  0
  2  4  1  0
  4  5  1  6
  4  6  1  0
  6  7  1  0
  7  8  2  0
  8  9  1  0
  9 10  2  0
 10 11  1  0
 11 12  1  0
 12 13  1  0
 13 14  1  0
 14 15  1  0
 15 16  2  0
 16 17  2  0
 13 18  2  0
 18 19  1  0
 19  7  1  0
 19 11  2  0
M  CHG  2  16   1  17  -1
M  END
>  <energy_score>  (402) 
-105.699963

>  <alias>  (402) 
None

>  <HIPPO Pose ID>  (402) 
69377

>  <smiles>  (402) 
CC(C)[C@H](O)Nc1ncnc2sc(CN=[N+]=[N-])nc12

>  <inchikey>  (402) 
KQTJEEDPQZKEGW-VIFPVBQESA-N

>  <distance_score>  (402) 
1.009274

>  <ref_mols>  (402) 
Z0472a,Z1719a

>  <ref_pdb>  (402) 
Z0472a

>  <HIPPO Compound ID>  (402) 
138819

>  <name>  (402) 
P69377

>  <inspiration_score>  (402) 
None

$$$$
P69379
     RDKit          3D

 19 20  0  0  0  0  0  0  0  0999 V2000
   -2.7951    5.1578  -18.7302 C   0  0  0  0  0  0  0  0  0  0  0  0
   -2.2074    5.5589  -17.3963 C   0  0  0  0  0  0  0  0  0  0  0  0
   -3.1732    5.6611  -16.1969 C   0  0  1  0  0  0  0  0  0  0  0  0
   -3.7373    4.3808  -15.7418 N   0  0  0  0  0  0  0  0  0  0  0  0
   -5.1170    4.5705  -15.4311 C   0  0  0  0  0  0  0  0  0  0  0  0
   -5.6364    4.6222  -14.1915 N   0  0  0  0  0  0  0  0  0  0  0  0
   -6.9900    4.7202  -14.0878 C   0  0  0  0  0  0  0  0  0  0  0  0
   -7.9230    4.8155  -15.0674 N   0  0  0  0  0  0  0  0  0  0  0  0
   -7.3445    4.7546  -16.2781 C   0  0  0  0  0  0  0  0  0  0  0  0
   -8.1397    4.8320  -17.7935 S   0  0  0  0  0  0  0  0  0  0  0  0
   -6.6061    4.8330  -18.5577 C   0  0  0  0  0  0  0  0  0  0  0  0
   -6.3221    5.1511  -19.9621 C   0  0  0  0  0  0  0  0  0  0  0  0
   -6.1002    6.6058  -20.0559 N   0  0  0  0  0  0  0  0  0  0  0  0
   -5.7564    7.0352  -21.1671 N   0  0  0  0  0  0  0  0  0  0  0  0
   -5.4227    7.4963  -22.1560 N   0  0  0  0  0  0  0  0  0  0  0  0
   -5.5736    4.6274  -17.7916 N   0  0  0  0  0  0  0  0  0  0  0  0
   -5.9939    4.6398  -16.5064 C   0  0  0  0  0  0  0  0  0  0  0  0
   -2.4199    6.2423  -15.1322 O   0  0  0  0  0  0  0  0  0  0  0  0
   -1.7297    5.3001  -14.3213 C   0  0  0  0  0  0  0  0  0  0  0  0
  1  2  1  0
  3  2  1  6
  3  4  1  0
  4  5  1  0
  5  6  2  0
  6  7  1  0
  7  8  2  0
  8  9  1  0
  9 10  1  0
 10 11  1  0
 11 12  1  0
 12 13  1  0
 13 14  2  0
 14 15  2  0
 11 16  2  0
 16 17  1  0
  3 18  1  0
 18 19  1  0
 17  5  1  0
 17  9  2  0
M  CHG  2  14   1  15  -1
M  END
>  <energy_score>  (403) 
-84.524705

>  <alias>  (403) 
None

>  <HIPPO Pose ID>  (403) 
69379

>  <smiles>  (403) 
CC[C@@H](Nc1ncnc2sc(CN=[N+]=[N-])nc12)OC

>  <inchikey>  (403) 
OSJIYGSYLTVEMU-LURJTMIESA-N

>  <distance_score>  (403) 
1.157061

>  <ref_mols>  (403) 
Z1719a,Z0472a

>  <ref_pdb>  (403) 
Z0472a

>  <HIPPO Compound ID>  (403) 
138820

>  <name>  (403) 
P69379

>  <inspiration_score>  (403) 
None

$$$$
P69381
     RDKit          3D

 19 20  0  0  0  0  0  0  0  0999 V2000
   -1.7021    4.7873  -14.4915 C   0  0  0  0  0  0  0  0  0  0  0  0
   -2.9049    4.2160  -15.2294 C   0  0  0  0  0  0  0  0  0  0  0  0
   -3.7760    3.4523  -14.2236 C   0  0  0  0  0  0  0  0  0  0  0  0
   -3.6918    5.2431  -16.0817 C   0  0  2  0  0  0  0  0  0  0  0  0
   -2.6295    6.2606  -17.1694 S   0  0  0  0  0  0  0  0  0  0  0  0
   -4.4874    6.1422  -15.2355 N   0  0  0  0  0  0  0  0  0  0  0  0
   -5.8485    5.7784  -15.2374 C   0  0  0  0  0  0  0  0  0  0  0  0
   -6.4449    5.4677  -14.0680 N   0  0  0  0  0  0  0  0  0  0  0  0
   -7.6920    4.9428  -14.1139 C   0  0  0  0  0  0  0  0  0  0  0  0
   -8.4503    4.6786  -15.1926 N   0  0  0  0  0  0  0  0  0  0  0  0
   -7.8112    4.9968  -16.3281 C   0  0  0  0  0  0  0  0  0  0  0  0
   -8.3622    4.5909  -17.8967 S   0  0  0  0  0  0  0  0  0  0  0  0
   -6.8911    5.2090  -18.5265 C   0  0  0  0  0  0  0  0  0  0  0  0
   -6.3571    4.9031  -19.8713 C   0  0  0  0  0  0  0  0  0  0  0  0
   -4.9595    4.4436  -19.6925 N   0  0  0  0  0  0  0  0  0  0  0  0
   -4.0889    5.2199  -20.1145 N   0  0  0  0  0  0  0  0  0  0  0  0
   -3.2478    5.8553  -20.5528 N   0  0  0  0  0  0  0  0  0  0  0  0
   -6.1530    5.8963  -17.6901 N   0  0  0  0  0  0  0  0  0  0  0  0
   -6.5765    5.6078  -16.4225 C   0  0  0  0  0  0  0  0  0  0  0  0
  1  2  1  0
  2  3  1  0
  2  4  1  0
  4  5  1  1
  4  6  1  0
  6  7  1  0
  7  8  2  0
  8  9  1  0
  9 10  2  0
 10 11  1  0
 11 12  1  0
 12 13  1  0
 13 14  1  0
 14 15  1  0
 15 16  2  0
 16 17  2  0
 13 18  2  0
 18 19  1  0
 19  7  1  0
 19 11  2  0
M  CHG  2  16   1  17  -1
M  END
>  <energy_score>  (404) 
-87.599851

>  <alias>  (404) 
None

>  <HIPPO Pose ID>  (404) 
69381

>  <smiles>  (404) 
CC(C)[C@H](S)Nc1ncnc2sc(CN=[N+]=[N-])nc12

>  <inchikey>  (404) 
SQVGXVVMEQVLQN-VIFPVBQESA-N

>  <distance_score>  (404) 
1.059299

>  <ref_mols>  (404) 
Z0472a,Z1719a

>  <ref_pdb>  (404) 
Z0472a

>  <HIPPO Compound ID>  (404) 
138821

>  <name>  (404) 
P69381

>  <inspiration_score>  (404) 
None

$$$$
P69382
     RDKit          3D

 19 21  0  0  0  0  0  0  0  0999 V2000
   -6.2393    8.2531  -19.3699 N   0  0  0  0  0  0  0  0  0  0  0  0
   -5.9163    7.2400  -19.7891 N   0  0  0  0  0  0  0  0  0  0  0  0
   -5.5438    6.1694  -20.2902 N   0  0  0  0  0  0  0  0  0  0  0  0
   -6.2274    4.9244  -19.8546 C   0  0  0  0  0  0  0  0  0  0  0  0
   -6.6371    4.9602  -18.4353 C   0  0  0  0  0  0  0  0  0  0  0  0
   -5.7536    5.3071  -17.5412 N   0  0  0  0  0  0  0  0  0  0  0  0
   -6.2636    5.1349  -16.2880 C   0  0  0  0  0  0  0  0  0  0  0  0
   -5.5773    5.2557  -15.0667 C   0  0  0  0  0  0  0  0  0  0  0  0
   -4.2037    5.5805  -14.9826 N   0  0  0  0  0  0  0  0  0  0  0  0
   -3.3495    4.6499  -15.7391 C   0  0  2  0  0  0  0  0  0  0  0  0
   -2.2733    4.5372  -14.9943 O   0  0  0  0  0  0  0  0  0  0  0  0
   -2.9352    5.2317  -17.0960 C   0  0  2  0  0  0  0  0  0  0  0  0
   -1.8813    6.3026  -17.2872 C   0  0  0  0  0  0  0  0  0  0  0  0
   -3.2660    6.6284  -17.3342 O   0  0  0  0  0  0  0  0  0  0  0  0
   -6.3004    5.0648  -13.9315 N   0  0  0  0  0  0  0  0  0  0  0  0
   -7.6039    4.7400  -14.0418 C   0  0  0  0  0  0  0  0  0  0  0  0
   -8.3533    4.6160  -15.1520 N   0  0  0  0  0  0  0  0  0  0  0  0
   -7.6038    4.7948  -16.2516 C   0  0  0  0  0  0  0  0  0  0  0  0
   -8.2024    4.6079  -17.8468 S   0  0  0  0  0  0  0  0  0  0  0  0
  1  2  2  0
  2  3  2  0
  3  4  1  0
  4  5  1  0
  5  6  2  0
  6  7  1  0
  7  8  2  0
  8  9  1  0
  9 10  1  0
 10 11  1  1
 10 12  1  0
 12 13  1  1
 13 14  1  0
  8 15  1  0
 15 16  2  0
 16 17  1  0
 17 18  2  0
 18 19  1  0
 19  5  1  0
 18  7  1  0
 14 12  1  0
M  CHG  3   1  -1   2   1  11  -1
M  END
>  <energy_score>  (405) 
-68.525531

>  <alias>  (405) 
None

>  <HIPPO Pose ID>  (405) 
69382

>  <smiles>  (405) 
[N-]=[N+]=NCc1nc2c(N[C@H]([O-])[C@@H]3CO3)ncnc2s1

>  <inchikey>  (405) 
RJTHVBPBAQTMEG-RNHFCUEFSA-N

>  <distance_score>  (405) 
1.042899

>  <ref_mols>  (405) 
Z1719a,Z0472a

>  <ref_pdb>  (405) 
Z0472a

>  <HIPPO Compound ID>  (405) 
138822

>  <name>  (405) 
P69382

>  <inspiration_score>  (405) 
None

$$$$
P69386
     RDKit          3D

 19 20  0  0  0  0  0  0  0  0999 V2000
   -3.2541    3.8110  -15.0644 C   0  0  0  0  0  0  0  0  0  0  0  0
   -2.9920    4.3761  -16.4202 C   0  0  0  0  0  0  0  0  0  0  0  0
   -3.1669    5.6381  -16.8565 C   0  0  0  0  0  0  0  0  0  0  0  0
   -2.7081    6.0037  -18.2493 C   0  0  0  0  0  0  0  0  0  0  0  0
   -3.8123    6.7976  -16.1264 C   0  0  0  0  0  0  0  0  0  0  0  0
   -4.6449    6.4325  -15.0006 N   0  0  0  0  0  0  0  0  0  0  0  0
   -5.8692    5.8023  -15.1234 C   0  0  0  0  0  0  0  0  0  0  0  0
   -6.4866    5.4080  -13.9852 N   0  0  0  0  0  0  0  0  0  0  0  0
   -7.6835    4.7867  -14.0849 C   0  0  0  0  0  0  0  0  0  0  0  0
   -8.3861    4.5031  -15.1919 N   0  0  0  0  0  0  0  0  0  0  0  0
   -7.7111    4.8456  -16.2980 C   0  0  0  0  0  0  0  0  0  0  0  0
   -8.2438    4.4988  -17.8860 S   0  0  0  0  0  0  0  0  0  0  0  0
   -6.7576    5.1079  -18.4737 C   0  0  0  0  0  0  0  0  0  0  0  0
   -6.2668    4.9473  -19.8616 C   0  0  0  0  0  0  0  0  0  0  0  0
   -5.5418    6.1472  -20.3568 N   0  0  0  0  0  0  0  0  0  0  0  0
   -5.9292    7.2630  -19.9818 N   0  0  0  0  0  0  0  0  0  0  0  0
   -6.2162    8.3136  -19.6364 N   0  0  0  0  0  0  0  0  0  0  0  0
   -6.0139    5.7372  -17.6002 N   0  0  0  0  0  0  0  0  0  0  0  0
   -6.4919    5.4957  -16.3432 C   0  0  0  0  0  0  0  0  0  0  0  0
  1  2  1  0
  2  3  2  0
  3  4  1  0
  3  5  1  0
  5  6  1  0
  6  7  1  0
  7  8  2  0
  8  9  1  0
  9 10  2  0
 10 11  1  0
 11 12  1  0
 12 13  1  0
 13 14  1  0
 14 15  1  0
 15 16  2  0
 16 17  2  0
 13 18  2  0
 18 19  1  0
 19  7  1  0
 19 11  2  0
M  CHG  2  16   1  17  -1
M  END
>  <energy_score>  (406) 
-80.089845

>  <alias>  (406) 
None

>  <HIPPO Pose ID>  (406) 
69386

>  <smiles>  (406) 
C/C=C(/C)CNc1ncnc2sc(CN=[N+]=[N-])nc12

>  <inchikey>  (406) 
PMSMMWKAJLJXTE-CLTKARDFSA-N

>  <distance_score>  (406) 
1.078847

>  <ref_mols>  (406) 
Z0472a,Z1719a

>  <ref_pdb>  (406) 
Z0472a

>  <HIPPO Compound ID>  (406) 
138823

>  <name>  (406) 
P69386

>  <inspiration_score>  (406) 
None

$$$$
P69387
     RDKit          3D

 19 20  0  0  0  0  0  0  0  0999 V2000
   -1.6407    4.2862  -13.6209 C   0  0  0  0  0  0  0  0  0  0  0  0
   -1.2383    5.2461  -14.7306 C   0  0  0  0  0  0  0  0  0  0  0  0
   -2.3202    6.2293  -15.1846 C   0  0  0  0  0  0  0  0  0  0  0  0
   -3.4267    5.6779  -16.0734 C   0  0  1  0  0  0  0  0  0  0  0  0
   -2.7442    5.1238  -17.6313 Cl  0  0  0  0  0  0  0  0  0  0  0  0
   -4.0502    4.5377  -15.4017 N   0  0  0  0  0  0  0  0  0  0  0  0
   -5.4460    4.7235  -15.2621 C   0  0  0  0  0  0  0  0  0  0  0  0
   -6.0589    4.7912  -14.0666 N   0  0  0  0  0  0  0  0  0  0  0  0
   -7.4164    4.8209  -14.0603 C   0  0  0  0  0  0  0  0  0  0  0  0
   -8.2743    4.8355  -15.1058 N   0  0  0  0  0  0  0  0  0  0  0  0
   -7.6093    4.7628  -16.2703 C   0  0  0  0  0  0  0  0  0  0  0  0
   -8.3159    4.6904  -17.8295 S   0  0  0  0  0  0  0  0  0  0  0  0
   -6.7422    4.6977  -18.5066 C   0  0  0  0  0  0  0  0  0  0  0  0
   -6.4068    4.7710  -19.9376 C   0  0  0  0  0  0  0  0  0  0  0  0
   -5.6990    6.0301  -20.2771 N   0  0  0  0  0  0  0  0  0  0  0  0
   -6.0520    7.0739  -19.7158 N   0  0  0  0  0  0  0  0  0  0  0  0
   -6.3217    8.0566  -19.2000 N   0  0  0  0  0  0  0  0  0  0  0  0
   -5.7478    4.7081  -17.6652 N   0  0  0  0  0  0  0  0  0  0  0  0
   -6.2402    4.7277  -16.4052 C   0  0  0  0  0  0  0  0  0  0  0  0
  1  2  1  0
  2  3  1  0
  3  4  1  0
  4  5  1  6
  4  6  1  0
  6  7  1  0
  7  8  2  0
  8  9  1  0
  9 10  2  0
 10 11  1  0
 11 12  1  0
 12 13  1  0
 13 14  1  0
 14 15  1  0
 15 16  2  0
 16 17  2  0
 13 18  2  0
 18 19  1  0
 19  7  1  0
 19 11  2  0
M  CHG  2  16   1  17  -1
M  END
>  <energy_score>  (407) 
-85.898111

>  <alias>  (407) 
None

>  <HIPPO Pose ID>  (407) 
69387

>  <smiles>  (407) 
CCC[C@@H](Cl)Nc1ncnc2sc(CN=[N+]=[N-])nc12

>  <inchikey>  (407) 
ZGJFGEBPDWEWJE-LURJTMIESA-N

>  <distance_score>  (407) 
1.116197

>  <ref_mols>  (407) 
Z1719a,Z0472a

>  <ref_pdb>  (407) 
Z0472a

>  <HIPPO Compound ID>  (407) 
138824

>  <name>  (407) 
P69387

>  <inspiration_score>  (407) 
None

$$$$
P69388
     RDKit          3D

 19 21  0  0  0  0  0  0  0  0999 V2000
   -6.2970    8.2164  -19.5141 N   0  0  0  0  0  0  0  0  0  0  0  0
   -5.8928    7.1968  -19.8317 N   0  0  0  0  0  0  0  0  0  0  0  0
   -5.3904    6.1150  -20.1655 N   0  0  0  0  0  0  0  0  0  0  0  0
   -6.1359    4.8910  -19.7956 C   0  0  0  0  0  0  0  0  0  0  0  0
   -6.5137    4.8861  -18.3623 C   0  0  0  0  0  0  0  0  0  0  0  0
   -5.6099    5.1156  -17.4409 N   0  0  0  0  0  0  0  0  0  0  0  0
   -6.1881    5.0365  -16.2005 C   0  0  0  0  0  0  0  0  0  0  0  0
   -5.5702    5.1912  -14.9480 C   0  0  0  0  0  0  0  0  0  0  0  0
   -4.2172    5.5016  -14.7536 N   0  0  0  0  0  0  0  0  0  0  0  0
   -3.2638    4.6090  -15.4162 C   0  0  0  0  0  0  0  0  0  0  0  0
   -2.1922    5.4289  -16.1421 C   0  0  0  0  0  0  0  0  0  0  0  0
   -2.6616    5.9913  -17.4508 C   0  0  0  0  0  0  0  0  0  0  0  0
   -2.9652    7.4630  -17.5560 C   0  0  0  0  0  0  0  0  0  0  0  0
   -1.7665    6.8933  -18.2570 C   0  0  0  0  0  0  0  0  0  0  0  0
   -6.3351    5.0805  -13.8397 N   0  0  0  0  0  0  0  0  0  0  0  0
   -7.6497    4.8117  -13.9931 C   0  0  0  0  0  0  0  0  0  0  0  0
   -8.3471    4.6848  -15.1312 N   0  0  0  0  0  0  0  0  0  0  0  0
   -7.5502    4.7876  -16.2059 C   0  0  0  0  0  0  0  0  0  0  0  0
   -8.1147    4.6350  -17.8101 S   0  0  0  0  0  0  0  0  0  0  0  0
  1  2  2  0
  2  3  2  0
  3  4  1  0
  4  5  1  0
  5  6  2  0
  6  7  1  0
  7  8  2  0
  8  9  1  0
  9 10  1  0
 10 11  1  0
 11 12  1  0
 12 13  1  0
 13 14  1  0
  8 15  1  0
 15 16  2  0
 16 17  1  0
 17 18  2  0
 18 19  1  0
 19  5  1  0
 18  7  1  0
 14 12  1  0
M  CHG  2   1  -1   2   1
M  END
>  <energy_score>  (408) 
-66.585146

>  <alias>  (408) 
None

>  <HIPPO Pose ID>  (408) 
69388

>  <smiles>  (408) 
[N-]=[N+]=NCc1nc2c(NCCC3CC3)ncnc2s1

>  <inchikey>  (408) 
DFTYAFNVELZKFF-UHFFFAOYSA-N

>  <distance_score>  (408) 
1.042689

>  <ref_mols>  (408) 
Z1719a,Z0472a

>  <ref_pdb>  (408) 
Z0472a

>  <HIPPO Compound ID>  (408) 
138825

>  <name>  (408) 
P69388

>  <inspiration_score>  (408) 
None

$$$$
P69389
     RDKit          3D

 19 20  0  0  0  0  0  0  0  0999 V2000
   -0.5609    5.3492  -15.4981 C   0  0  0  0  0  0  0  0  0  0  0  0
   -2.0579    5.2861  -15.3523 C   0  0  0  0  0  0  0  0  0  0  0  0
   -2.7872    6.1405  -16.4075 C   0  0  1  0  0  0  0  0  0  0  0  0
   -2.8996    5.4195  -17.7505 C   0  0  0  0  0  0  0  0  0  0  0  0
   -4.1386    6.6448  -15.8696 C   0  0  0  0  0  0  0  0  0  0  0  0
   -4.7230    5.7065  -14.9196 N   0  0  0  0  0  0  0  0  0  0  0  0
   -6.0153    5.2544  -15.1317 C   0  0  0  0  0  0  0  0  0  0  0  0
   -6.7817    5.0124  -14.0501 N   0  0  0  0  0  0  0  0  0  0  0  0
   -8.0483    4.5930  -14.2573 C   0  0  0  0  0  0  0  0  0  0  0  0
   -8.6997    4.4486  -15.4237 N   0  0  0  0  0  0  0  0  0  0  0  0
   -7.8835    4.6562  -16.4673 C   0  0  0  0  0  0  0  0  0  0  0  0
   -8.3578    4.5256  -18.1040 S   0  0  0  0  0  0  0  0  0  0  0  0
   -6.7564    4.9196  -18.5624 C   0  0  0  0  0  0  0  0  0  0  0  0
   -6.2673    5.0233  -19.9476 C   0  0  0  0  0  0  0  0  0  0  0  0
   -5.9406    6.4424  -20.2207 N   0  0  0  0  0  0  0  0  0  0  0  0
   -4.8397    6.6468  -20.7495 N   0  0  0  0  0  0  0  0  0  0  0  0
   -3.8160    6.8423  -21.2176 N   0  0  0  0  0  0  0  0  0  0  0  0
   -5.9151    5.1611  -17.5938 N   0  0  0  0  0  0  0  0  0  0  0  0
   -6.5560    5.0265  -16.3979 C   0  0  0  0  0  0  0  0  0  0  0  0
  1  2  1  0
  2  3  1  0
  3  4  1  6
  3  5  1  0
  5  6  1  0
  6  7  1  0
  7  8  2  0
  8  9  1  0
  9 10  2  0
 10 11  1  0
 11 12  1  0
 12 13  1  0
 13 14  1  0
 14 15  1  0
 15 16  2  0
 16 17  2  0
 13 18  2  0
 18 19  1  0
 19  7  1  0
 19 11  2  0
M  CHG  2  16   1  17  -1
M  END
>  <energy_score>  (409) 
-92.647909

>  <alias>  (409) 
None

>  <HIPPO Pose ID>  (409) 
69389

>  <smiles>  (409) 
CC[C@@H](C)CNc1ncnc2sc(CN=[N+]=[N-])nc12

>  <inchikey>  (409) 
JOMQMVIEDRAYRU-SSDOTTSWSA-N

>  <distance_score>  (409) 
1.276919

>  <ref_mols>  (409) 
Z1719a,Z0472a

>  <ref_pdb>  (409) 
Z0472a

>  <HIPPO Compound ID>  (409) 
138826

>  <name>  (409) 
P69389

>  <inspiration_score>  (409) 
None

$$$$
P69392
     RDKit          3D

 19 20  0  0  0  0  0  0  0  0999 V2000
   -3.2391    7.3541  -17.5309 C   0  0  0  0  0  0  0  0  0  0  0  0
   -2.9638    5.9232  -17.0852 C   0  0  1  0  0  0  0  0  0  0  0  0
   -1.1866    5.6502  -17.5013 S   0  0  0  0  0  0  0  0  0  0  0  0
   -3.2116    5.6301  -15.5793 C   0  0  2  0  0  0  0  0  0  0  0  0
   -3.1681    4.2336  -15.3217 O   0  0  0  0  0  0  0  0  0  0  0  0
   -4.4065    6.2310  -14.9866 N   0  0  0  0  0  0  0  0  0  0  0  0
   -5.6113    5.5178  -15.0860 C   0  0  0  0  0  0  0  0  0  0  0  0
   -6.2230    5.1055  -13.9508 N   0  0  0  0  0  0  0  0  0  0  0  0
   -7.4465    4.5405  -14.0421 C   0  0  0  0  0  0  0  0  0  0  0  0
   -8.1987    4.3624  -15.1375 N   0  0  0  0  0  0  0  0  0  0  0  0
   -7.5509    4.7529  -16.2425 C   0  0  0  0  0  0  0  0  0  0  0  0
   -8.1690    4.5555  -17.8216 S   0  0  0  0  0  0  0  0  0  0  0  0
   -6.6887    5.1688  -18.4265 C   0  0  0  0  0  0  0  0  0  0  0  0
   -6.2439    4.9966  -19.8288 C   0  0  0  0  0  0  0  0  0  0  0  0
   -4.8145    4.6097  -19.7902 N   0  0  0  0  0  0  0  0  0  0  0  0
   -4.0279    5.4205  -20.2977 N   0  0  0  0  0  0  0  0  0  0  0  0
   -3.2665    6.1073  -20.7992 N   0  0  0  0  0  0  0  0  0  0  0  0
   -5.9050    5.7503  -17.5450 N   0  0  0  0  0  0  0  0  0  0  0  0
   -6.3056    5.3539  -16.2958 C   0  0  0  0  0  0  0  0  0  0  0  0
  2  1  1  1
  2  3  1  0
  2  4  1  0
  4  5  1  6
  4  6  1  0
  6  7  1  0
  7  8  2  0
  8  9  1  0
  9 10  2  0
 10 11  1  0
 11 12  1  0
 12 13  1  0
 13 14  1  0
 14 15  1  0
 15 16  2  0
 16 17  2  0
 13 18  2  0
 18 19  1  0
 19  7  1  0
 19 11  2  0
M  CHG  2  16   1  17  -1
M  END
>  <energy_score>  (410) 
-73.706543

>  <alias>  (410) 
None

>  <HIPPO Pose ID>  (410) 
69392

>  <smiles>  (410) 
C[C@@H](S)[C@H](O)Nc1ncnc2sc(CN=[N+]=[N-])nc12

>  <inchikey>  (410) 
MDTCNGZFWGJHID-VHWMUFPASA-N

>  <distance_score>  (410) 
0.896248

>  <ref_mols>  (410) 
Z1719a,Z0472a

>  <ref_pdb>  (410) 
Z0472a

>  <HIPPO Compound ID>  (410) 
138828

>  <name>  (410) 
P69392

>  <inspiration_score>  (410) 
None

$$$$
P69395
     RDKit          3D

 19 20  0  0  0  0  0  0  0  0999 V2000
   -4.7597    8.6095  -18.0069 N   0  0  0  0  0  0  0  0  0  0  0  0
   -4.8283    7.8950  -18.8931 N   0  0  0  0  0  0  0  0  0  0  0  0
   -4.9303    7.1255  -19.8607 N   0  0  0  0  0  0  0  0  0  0  0  0
   -6.2296    6.4095  -19.9622 C   0  0  0  0  0  0  0  0  0  0  0  0
   -6.4521    5.4571  -18.8397 C   0  0  0  0  0  0  0  0  0  0  0  0
   -5.4437    4.9391  -18.1884 N   0  0  0  0  0  0  0  0  0  0  0  0
   -5.8698    4.6702  -16.9179 C   0  0  0  0  0  0  0  0  0  0  0  0
   -5.0319    4.3725  -15.8455 C   0  0  0  0  0  0  0  0  0  0  0  0
   -3.6532    4.1656  -16.0993 N   0  0  0  0  0  0  0  0  0  0  0  0
   -2.9870    5.4440  -16.2566 C   0  0  2  0  0  0  0  0  0  0  0  0
   -2.4032    5.5206  -17.9473 Cl  0  0  0  0  0  0  0  0  0  0  0  0
   -1.7903    5.5172  -15.3274 C   0  0  0  0  0  0  0  0  0  0  0  0
   -2.1697    5.2748  -13.8732 C   0  0  0  0  0  0  0  0  0  0  0  0
   -1.9754    3.5808  -13.3635 Cl  0  0  0  0  0  0  0  0  0  0  0  0
   -5.5772    4.2652  -14.6177 N   0  0  0  0  0  0  0  0  0  0  0  0
   -6.9274    4.3552  -14.5172 C   0  0  0  0  0  0  0  0  0  0  0  0
   -7.8270    4.6247  -15.4862 N   0  0  0  0  0  0  0  0  0  0  0  0
   -7.2215    4.7685  -16.6754 C   0  0  0  0  0  0  0  0  0  0  0  0
   -7.9989    5.1496  -18.1422 S   0  0  0  0  0  0  0  0  0  0  0  0
  1  2  2  0
  2  3  2  0
  3  4  1  0
  4  5  1  0
  5  6  2  0
  6  7  1  0
  7  8  2  0
  8  9  1  0
  9 10  1  0
 10 11  1  6
 10 12  1  0
 12 13  1  0
 13 14  1  0
  8 15  1  0
 15 16  2  0
 16 17  1  0
 17 18  2  0
 18 19  1  0
 19  5  1  0
 18  7  1  0
M  CHG  2   1  -1   2   1
M  END
>  <energy_score>  (411) 
-64.880798

>  <alias>  (411) 
None

>  <HIPPO Pose ID>  (411) 
69395

>  <smiles>  (411) 
[N-]=[N+]=NCc1nc2c(N[C@H](Cl)CCCl)ncnc2s1

>  <inchikey>  (411) 
ZYNRTCWXRHCKEZ-YFKPBYRVSA-N

>  <distance_score>  (411) 
1.206711

>  <ref_mols>  (411) 
Z0472a,Z1719a

>  <ref_pdb>  (411) 
Z0472a

>  <HIPPO Compound ID>  (411) 
138829

>  <name>  (411) 
P69395

>  <inspiration_score>  (411) 
None

$$$$
P69396
     RDKit          3D

 19 20  0  0  0  0  0  0  0  0999 V2000
   -2.6294    3.9809  -14.5040 C   0  0  0  0  0  0  0  0  0  0  0  0
   -2.2046    5.0830  -15.4758 C   0  0  0  0  0  0  0  0  0  0  0  0
   -1.5197    6.2192  -14.7068 C   0  0  0  0  0  0  0  0  0  0  0  0
   -3.4021    5.5153  -16.3268 C   0  0  2  0  0  0  0  0  0  0  0  0
   -2.8553    6.5456  -17.6887 Cl  0  0  0  0  0  0  0  0  0  0  0  0
   -4.3225    6.3499  -15.5390 N   0  0  0  0  0  0  0  0  0  0  0  0
   -5.5803    5.7124  -15.3980 C   0  0  0  0  0  0  0  0  0  0  0  0
   -6.0612    5.2794  -14.2166 N   0  0  0  0  0  0  0  0  0  0  0  0
   -7.2823    4.6839  -14.2142 C   0  0  0  0  0  0  0  0  0  0  0  0
   -8.1099    4.4461  -15.2541 N   0  0  0  0  0  0  0  0  0  0  0  0
   -7.5598    4.8473  -16.4098 C   0  0  0  0  0  0  0  0  0  0  0  0
   -8.1885    4.5566  -17.9754 S   0  0  0  0  0  0  0  0  0  0  0  0
   -6.7567    5.2390  -18.6312 C   0  0  0  0  0  0  0  0  0  0  0  0
   -6.2876    5.1133  -20.0229 C   0  0  0  0  0  0  0  0  0  0  0  0
   -5.8784    6.4653  -20.4851 N   0  0  0  0  0  0  0  0  0  0  0  0
   -4.6892    6.5801  -20.8131 N   0  0  0  0  0  0  0  0  0  0  0  0
   -3.5957    6.6849  -21.1276 N   0  0  0  0  0  0  0  0  0  0  0  0
   -5.9712    5.8517  -17.7848 N   0  0  0  0  0  0  0  0  0  0  0  0
   -6.3587    5.5075  -16.5340 C   0  0  0  0  0  0  0  0  0  0  0  0
  1  2  1  0
  2  3  1  0
  2  4  1  0
  4  5  1  6
  4  6  1  0
  6  7  1  0
  7  8  2  0
  8  9  1  0
  9 10  2  0
 10 11  1  0
 11 12  1  0
 12 13  1  0
 13 14  1  0
 14 15  1  0
 15 16  2  0
 16 17  2  0
 13 18  2  0
 18 19  1  0
 19  7  1  0
 19 11  2  0
M  CHG  2  16   1  17  -1
M  END
>  <energy_score>  (412) 
-79.382577

>  <alias>  (412) 
None

>  <HIPPO Pose ID>  (412) 
69396

>  <smiles>  (412) 
CC(C)[C@H](Cl)Nc1ncnc2sc(CN=[N+]=[N-])nc12

>  <inchikey>  (412) 
UWDHGWXTEKUZAH-MRVPVSSYSA-N

>  <distance_score>  (412) 
0.862569

>  <ref_mols>  (412) 
Z0472a,Z1719a

>  <ref_pdb>  (412) 
Z0472a

>  <HIPPO Compound ID>  (412) 
138830

>  <name>  (412) 
P69396

>  <inspiration_score>  (412) 
None

$$$$
P69397
     RDKit          3D

 19 20  0  0  0  0  0  0  0  0999 V2000
   -4.3682    7.6177  -22.0335 N   0  0  0  0  0  0  0  0  0  0  0  0
   -4.6234    7.0434  -21.0819 N   0  0  0  0  0  0  0  0  0  0  0  0
   -4.8804    6.4502  -20.0219 N   0  0  0  0  0  0  0  0  0  0  0  0
   -6.2793    5.9686  -19.9255 C   0  0  0  0  0  0  0  0  0  0  0  0
   -6.5064    5.2699  -18.6429 C   0  0  0  0  0  0  0  0  0  0  0  0
   -5.4936    4.8992  -17.9063 N   0  0  0  0  0  0  0  0  0  0  0  0
   -5.9538    4.6659  -16.6436 C   0  0  0  0  0  0  0  0  0  0  0  0
   -5.1380    4.4173  -15.5421 C   0  0  0  0  0  0  0  0  0  0  0  0
   -3.7487    4.2343  -15.7331 N   0  0  0  0  0  0  0  0  0  0  0  0
   -3.1199    5.4429  -16.2446 C   0  0  2  0  0  0  0  0  0  0  0  0
   -2.9366    5.3392  -17.6485 O   0  0  0  0  0  0  0  0  0  0  0  0
   -1.7310    5.5656  -15.6359 C   0  0  0  0  0  0  0  0  0  0  0  0
   -1.7214    5.2140  -14.1562 C   0  0  0  0  0  0  0  0  0  0  0  0
   -0.0811    5.5652  -13.4386 S   0  0  0  0  0  0  0  0  0  0  0  0
   -5.7239    4.2865  -14.3354 N   0  0  0  0  0  0  0  0  0  0  0  0
   -7.0785    4.3526  -14.2798 C   0  0  0  0  0  0  0  0  0  0  0  0
   -7.9542    4.5887  -15.2792 N   0  0  0  0  0  0  0  0  0  0  0  0
   -7.3163    4.7223  -16.4523 C   0  0  0  0  0  0  0  0  0  0  0  0
   -8.0628    5.0087  -17.9585 S   0  0  0  0  0  0  0  0  0  0  0  0
  1  2  2  0
  2  3  2  0
  3  4  1  0
  4  5  1  0
  5  6  2  0
  6  7  1  0
  7  8  2  0
  8  9  1  0
  9 10  1  0
 10 11  1  6
 10 12  1  0
 12 13  1  0
 13 14  1  0
  8 15  1  0
 15 16  2  0
 16 17  1  0
 17 18  2  0
 18 19  1  0
 19  5  1  0
 18  7  1  0
M  CHG  2   1  -1   2   1
M  END
>  <energy_score>  (413) 
-91.576829

>  <alias>  (413) 
None

>  <HIPPO Pose ID>  (413) 
69397

>  <smiles>  (413) 
[N-]=[N+]=NCc1nc2c(N[C@H](O)CCS)ncnc2s1

>  <inchikey>  (413) 
JDJLPCKDOGSRFI-RXMQYKEDSA-N

>  <distance_score>  (413) 
1.154118

>  <ref_mols>  (413) 
Z1719a,Z0472a

>  <ref_pdb>  (413) 
Z0472a

>  <HIPPO Compound ID>  (413) 
138831

>  <name>  (413) 
P69397

>  <inspiration_score>  (413) 
None

$$$$
P69399
     RDKit          3D

 19 20  0  0  0  0  0  0  0  0999 V2000
   -2.7882    3.6942  -14.7276 C   0  0  0  0  0  0  0  0  0  0  0  0
   -2.4815    4.8540  -15.3396 C   0  0  0  0  0  0  0  0  0  0  0  0
   -1.1632    5.5293  -15.0806 C   0  0  0  0  0  0  0  0  0  0  0  0
   -3.5167    5.5333  -16.2140 C   0  0  2  0  0  0  0  0  0  0  0  0
   -2.8127    6.6655  -17.3858 Cl  0  0  0  0  0  0  0  0  0  0  0  0
   -4.3775    6.2962  -15.3077 N   0  0  0  0  0  0  0  0  0  0  0  0
   -5.6957    5.8065  -15.2802 C   0  0  0  0  0  0  0  0  0  0  0  0
   -6.2446    5.4661  -14.0947 N   0  0  0  0  0  0  0  0  0  0  0  0
   -7.4818    4.9139  -14.1030 C   0  0  0  0  0  0  0  0  0  0  0  0
   -8.2696    4.6415  -15.1573 N   0  0  0  0  0  0  0  0  0  0  0  0
   -7.6712    4.9716  -16.3114 C   0  0  0  0  0  0  0  0  0  0  0  0
   -8.2752    4.5832  -17.8636 S   0  0  0  0  0  0  0  0  0  0  0  0
   -6.8217    5.2003  -18.5315 C   0  0  0  0  0  0  0  0  0  0  0  0
   -6.3100    4.8775  -19.8798 C   0  0  0  0  0  0  0  0  0  0  0  0
   -4.8988    4.4511  -19.7055 N   0  0  0  0  0  0  0  0  0  0  0  0
   -4.0462    5.2319  -20.1536 N   0  0  0  0  0  0  0  0  0  0  0  0
   -3.2231    5.8720  -20.6187 N   0  0  0  0  0  0  0  0  0  0  0  0
   -6.0651    5.8961  -17.7172 N   0  0  0  0  0  0  0  0  0  0  0  0
   -6.4478    5.6000  -16.4418 C   0  0  0  0  0  0  0  0  0  0  0  0
  1  2  2  0
  2  3  1  0
  2  4  1  0
  4  5  1  6
  4  6  1  0
  6  7  1  0
  7  8  2  0
  8  9  1  0
  9 10  2  0
 10 11  1  0
 11 12  1  0
 12 13  1  0
 13 14  1  0
 14 15  1  0
 15 16  2  0
 16 17  2  0
 13 18  2  0
 18 19  1  0
 19  7  1  0
 19 11  2  0
M  CHG  2  16   1  17  -1
M  END
>  <energy_score>  (414) 
-83.812005

>  <alias>  (414) 
None

>  <HIPPO Pose ID>  (414) 
69399

>  <smiles>  (414) 
C=C(C)[C@H](Cl)Nc1ncnc2sc(CN=[N+]=[N-])nc12

>  <inchikey>  (414) 
HRSFZEMTBFCWFG-MRVPVSSYSA-N

>  <distance_score>  (414) 
0.905697

>  <ref_mols>  (414) 
Z1719a,Z0472a

>  <ref_pdb>  (414) 
Z0472a

>  <HIPPO Compound ID>  (414) 
138833

>  <name>  (414) 
P69399

>  <inspiration_score>  (414) 
None

$$$$
P69402
     RDKit          3D

 19 20  0  0  0  0  0  0  0  0999 V2000
   -7.5118    3.5420  -20.6963 N   0  0  0  0  0  0  0  0  0  0  0  0
   -6.5878    4.0645  -20.3002 N   0  0  0  0  0  0  0  0  0  0  0  0
   -5.6154    4.6958  -19.8685 N   0  0  0  0  0  0  0  0  0  0  0  0
   -6.0129    6.0477  -19.5207 C   0  0  0  0  0  0  0  0  0  0  0  0
   -6.5920    5.9962  -18.1604 C   0  0  0  0  0  0  0  0  0  0  0  0
   -5.8558    6.4292  -17.1747 N   0  0  0  0  0  0  0  0  0  0  0  0
   -6.2348    5.7398  -16.0600 C   0  0  0  0  0  0  0  0  0  0  0  0
   -5.4704    5.5903  -14.9097 C   0  0  0  0  0  0  0  0  0  0  0  0
   -4.1469    6.0615  -14.8607 N   0  0  0  0  0  0  0  0  0  0  0  0
   -3.2929    5.4471  -15.8748 C   0  0  1  0  0  0  0  0  0  0  0  0
   -3.1826    6.3092  -16.9978 O   0  0  0  0  0  0  0  0  0  0  0  0
   -1.8859    5.2641  -15.3121 C   0  0  0  0  0  0  0  0  0  0  0  0
   -1.8305    4.2035  -14.2251 C   0  0  0  0  0  0  0  0  0  0  0  0
   -2.3899    4.8024  -12.6428 Cl  0  0  0  0  0  0  0  0  0  0  0  0
   -6.0056    4.9357  -13.8621 N   0  0  0  0  0  0  0  0  0  0  0  0
   -7.2489    4.4136  -14.0115 C   0  0  0  0  0  0  0  0  0  0  0  0
   -8.0394    4.4412  -15.0995 N   0  0  0  0  0  0  0  0  0  0  0  0
   -7.4461    5.0854  -16.1124 C   0  0  0  0  0  0  0  0  0  0  0  0
   -8.0144    5.1204  -17.7143 S   0  0  0  0  0  0  0  0  0  0  0  0
  1  2  2  0
  2  3  2  0
  3  4  1  0
  4  5  1  0
  5  6  2  0
  6  7  1  0
  7  8  2  0
  8  9  1  0
  9 10  1  0
 10 11  1  6
 10 12  1  0
 12 13  1  0
 13 14  1  0
  8 15  1  0
 15 16  2  0
 16 17  1  0
 17 18  2  0
 18 19  1  0
 19  5  1  0
 18  7  1  0
M  CHG  2   1  -1   2   1
M  END
>  <energy_score>  (415) 
-75.009722

>  <alias>  (415) 
None

>  <HIPPO Pose ID>  (415) 
69402

>  <smiles>  (415) 
[N-]=[N+]=NCc1nc2c(N[C@@H](O)CCCl)ncnc2s1

>  <inchikey>  (415) 
XSKFCBQONXJDMP-YFKPBYRVSA-N

>  <distance_score>  (415) 
1.447581

>  <ref_mols>  (415) 
Z1719a,Z0472a

>  <ref_pdb>  (415) 
Z0472a

>  <HIPPO Compound ID>  (415) 
138834

>  <name>  (415) 
P69402

>  <inspiration_score>  (415) 
None

$$$$
P69412
     RDKit          3D

 19 21  0  0  0  0  0  0  0  0999 V2000
   -3.8715    7.2646  -17.0259 C   0  0  0  0  0  0  0  0  0  0  0  0
   -3.1328    6.1318  -17.6376 C   0  0  1  0  0  0  0  0  0  0  0  0
   -1.7475    5.8087  -17.1718 C   0  0  0  0  0  0  0  0  0  0  0  0
   -2.8561    4.7990  -16.9553 C   0  0  1  0  0  0  0  0  0  0  0  0
   -3.2392    4.3600  -15.5681 C   0  0  0  0  0  0  0  0  0  0  0  0
   -4.1906    5.2097  -14.8741 N   0  0  0  0  0  0  0  0  0  0  0  0
   -5.5531    4.9218  -15.0412 C   0  0  0  0  0  0  0  0  0  0  0  0
   -6.3074    4.9099  -13.9185 N   0  0  0  0  0  0  0  0  0  0  0  0
   -7.6428    4.7468  -14.0444 C   0  0  0  0  0  0  0  0  0  0  0  0
   -8.3720    4.6689  -15.1677 N   0  0  0  0  0  0  0  0  0  0  0  0
   -7.5868    4.6698  -16.2566 C   0  0  0  0  0  0  0  0  0  0  0  0
   -8.1918    4.6499  -17.8565 S   0  0  0  0  0  0  0  0  0  0  0  0
   -6.5842    4.7929  -18.4258 C   0  0  0  0  0  0  0  0  0  0  0  0
   -6.2197    5.1026  -19.8250 C   0  0  0  0  0  0  0  0  0  0  0  0
   -6.0219    6.5615  -19.9218 N   0  0  0  0  0  0  0  0  0  0  0  0
   -5.7168    7.0020  -21.0391 N   0  0  0  0  0  0  0  0  0  0  0  0
   -5.4171    7.4792  -22.0315 N   0  0  0  0  0  0  0  0  0  0  0  0
   -5.6434    4.7157  -17.5202 N   0  0  0  0  0  0  0  0  0  0  0  0
   -6.2047    4.7509  -16.2738 C   0  0  0  0  0  0  0  0  0  0  0  0
  2  1  1  1
  2  3  1  0
  3  4  1  0
  4  5  1  1
  5  6  1  0
  6  7  1  0
  7  8  2  0
  8  9  1  0
  9 10  2  0
 10 11  1  0
 11 12  1  0
 12 13  1  0
 13 14  1  0
 14 15  1  0
 15 16  2  0
 16 17  2  0
 13 18  2  0
 18 19  1  0
  4  2  1  0
 19  7  1  0
 19 11  2  0
M  CHG  2  16   1  17  -1
M  END
>  <energy_score>  (416) 
-71.47526

>  <alias>  (416) 
None

>  <HIPPO Pose ID>  (416) 
69412

>  <smiles>  (416) 
C[C@H]1C[C@H]1CNc1ncnc2sc(CN=[N+]=[N-])nc12

>  <inchikey>  (416) 
GMFHOLYGXPRHDC-BQBZGAKWSA-N

>  <distance_score>  (416) 
1.118313

>  <ref_mols>  (416) 
Z1719a,Z0472a

>  <ref_pdb>  (416) 
Z0472a

>  <HIPPO Compound ID>  (416) 
138838

>  <name>  (416) 
P69412

>  <inspiration_score>  (416) 
None

$$$$
P69414
     RDKit          3D

 19 20  0  0  0  0  0  0  0  0999 V2000
   -2.5641    5.2876  -18.1481 C   0  0  0  0  0  0  0  0  0  0  0  0
   -2.7437    5.8959  -16.7719 C   0  0  1  0  0  0  0  0  0  0  0  0
   -4.1683    7.2287  -16.7284 Br  0  0  0  0  0  0  0  0  0  0  0  0
   -2.7472    4.9248  -15.5839 C   0  0  1  0  0  0  0  0  0  0  0  0
   -2.6104    5.6052  -14.3555 O   0  0  0  0  0  0  0  0  0  0  0  0
   -3.7638    3.9138  -15.3826 N   0  0  0  0  0  0  0  0  0  0  0  0
   -5.1100    4.2709  -15.2758 C   0  0  0  0  0  0  0  0  0  0  0  0
   -5.6842    4.2461  -14.0528 N   0  0  0  0  0  0  0  0  0  0  0  0
   -7.0250    4.4187  -13.9709 C   0  0  0  0  0  0  0  0  0  0  0  0
   -7.8993    4.6568  -14.9612 N   0  0  0  0  0  0  0  0  0  0  0  0
   -7.2837    4.6609  -16.1535 C   0  0  0  0  0  0  0  0  0  0  0  0
   -8.0937    4.8843  -17.6338 S   0  0  0  0  0  0  0  0  0  0  0  0
   -6.5632    4.9757  -18.4099 C   0  0  0  0  0  0  0  0  0  0  0  0
   -6.4148    5.5854  -19.7473 C   0  0  0  0  0  0  0  0  0  0  0  0
   -5.0389    6.0543  -20.0075 N   0  0  0  0  0  0  0  0  0  0  0  0
   -4.9637    6.9491  -20.8632 N   0  0  0  0  0  0  0  0  0  0  0  0
   -4.8794    7.7887  -21.6308 N   0  0  0  0  0  0  0  0  0  0  0  0
   -5.5404    4.5881  -17.6960 N   0  0  0  0  0  0  0  0  0  0  0  0
   -5.9303    4.4973  -16.3863 C   0  0  0  0  0  0  0  0  0  0  0  0
  2  1  1  6
  2  3  1  0
  2  4  1  0
  4  5  1  1
  4  6  1  0
  6  7  1  0
  7  8  2  0
  8  9  1  0
  9 10  2  0
 10 11  1  0
 11 12  1  0
 12 13  1  0
 13 14  1  0
 14 15  1  0
 15 16  2  0
 16 17  2  0
 13 18  2  0
 18 19  1  0
 19  7  1  0
 19 11  2  0
M  CHG  2  16   1  17  -1
M  END
>  <energy_score>  (417) 
-57.219735

>  <alias>  (417) 
None

>  <HIPPO Pose ID>  (417) 
69414

>  <smiles>  (417) 
C[C@@H](Br)[C@@H](O)Nc1ncnc2sc(CN=[N+]=[N-])nc12

>  <inchikey>  (417) 
WQJOXXRLLLCGEF-SPGJFGJESA-N

>  <distance_score>  (417) 
1.19617

>  <ref_mols>  (417) 
Z0472a,Z1719a

>  <ref_pdb>  (417) 
Z0472a

>  <HIPPO Compound ID>  (417) 
138839

>  <name>  (417) 
P69414

>  <inspiration_score>  (417) 
None

$$$$
P69418
     RDKit          3D

 19 21  0  0  0  0  0  0  0  0999 V2000
   -6.2390    8.2784  -19.5370 N   0  0  0  0  0  0  0  0  0  0  0  0
   -5.8815    7.2503  -19.8831 N   0  0  0  0  0  0  0  0  0  0  0  0
   -5.4290    6.1568  -20.2514 N   0  0  0  0  0  0  0  0  0  0  0  0
   -6.1654    4.9404  -19.8273 C   0  0  0  0  0  0  0  0  0  0  0  0
   -6.5628    5.0033  -18.4019 C   0  0  0  0  0  0  0  0  0  0  0  0
   -5.7028    5.4259  -17.5086 N   0  0  0  0  0  0  0  0  0  0  0  0
   -6.2165    5.2558  -16.2559 C   0  0  0  0  0  0  0  0  0  0  0  0
   -5.5865    5.4960  -15.0257 C   0  0  0  0  0  0  0  0  0  0  0  0
   -4.2969    6.0032  -14.8433 N   0  0  0  0  0  0  0  0  0  0  0  0
   -3.1390    5.3398  -15.4225 C   0  0  1  0  0  0  0  0  0  0  0  0
   -3.1045    3.6451  -14.9162 Cl  0  0  0  0  0  0  0  0  0  0  0  0
   -2.9774    5.4623  -16.9077 C   0  0  0  0  0  0  0  0  0  0  0  0
   -1.6749    5.9097  -17.5353 C   0  0  0  0  0  0  0  0  0  0  0  0
   -2.8572    6.8277  -17.5508 C   0  0  0  0  0  0  0  0  0  0  0  0
   -6.3047    5.2850  -13.8964 N   0  0  0  0  0  0  0  0  0  0  0  0
   -7.5777    4.8456  -14.0121 C   0  0  0  0  0  0  0  0  0  0  0  0
   -8.2788    4.6199  -15.1299 N   0  0  0  0  0  0  0  0  0  0  0  0
   -7.5320    4.8220  -16.2252 C   0  0  0  0  0  0  0  0  0  0  0  0
   -8.1110    4.5792  -17.8148 S   0  0  0  0  0  0  0  0  0  0  0  0
  1  2  2  0
  2  3  2  0
  3  4  1  0
  4  5  1  0
  5  6  2  0
  6  7  1  0
  7  8  2  0
  8  9  1  0
  9 10  1  0
 10 11  1  6
 10 12  1  0
 12 13  1  0
 13 14  1  0
  8 15  1  0
 15 16  2  0
 16 17  1  0
 17 18  2  0
 18 19  1  0
 19  5  1  0
 18  7  1  0
 14 12  1  0
M  CHG  2   1  -1   2   1
M  END
>  <energy_score>  (418) 
-57.0855

>  <alias>  (418) 
None

>  <HIPPO Pose ID>  (418) 
69418

>  <smiles>  (418) 
[N-]=[N+]=NCc1nc2c(N[C@@H](Cl)C3CC3)ncnc2s1

>  <inchikey>  (418) 
YGYMKYAXZAIYIJ-MRVPVSSYSA-N

>  <distance_score>  (418) 
0.945579

>  <ref_mols>  (418) 
Z0472a,Z1719a

>  <ref_pdb>  (418) 
Z0472a

>  <HIPPO Compound ID>  (418) 
138840

>  <name>  (418) 
P69418

>  <inspiration_score>  (418) 
None

$$$$
P69421
     RDKit          3D

 19 20  0  0  0  0  0  0  0  0999 V2000
   -1.6112    4.5833  -13.3417 C   0  0  0  0  0  0  0  0  0  0  0  0
   -2.1414    4.3403  -14.5474 C   0  0  0  0  0  0  0  0  0  0  0  0
   -2.0915    5.3100  -15.6995 C   0  0  0  0  0  0  0  0  0  0  0  0
   -3.4698    5.5026  -16.3319 C   0  0  2  0  0  0  0  0  0  0  0  0
   -3.3317    6.2788  -17.5128 O   0  0  0  0  0  0  0  0  0  0  0  0
   -4.3289    6.2393  -15.4025 N   0  0  0  0  0  0  0  0  0  0  0  0
   -5.6270    5.6911  -15.3283 C   0  0  0  0  0  0  0  0  0  0  0  0
   -6.2025    5.3802  -14.1492 N   0  0  0  0  0  0  0  0  0  0  0  0
   -7.4474    4.8432  -14.1700 C   0  0  0  0  0  0  0  0  0  0  0  0
   -8.2351    4.5844  -15.2330 N   0  0  0  0  0  0  0  0  0  0  0  0
   -7.6096    4.8802  -16.3818 C   0  0  0  0  0  0  0  0  0  0  0  0
   -8.2164    4.5671  -17.9509 S   0  0  0  0  0  0  0  0  0  0  0  0
   -6.7372    5.1409  -18.5965 C   0  0  0  0  0  0  0  0  0  0  0  0
   -6.2949    5.0223  -19.9958 C   0  0  0  0  0  0  0  0  0  0  0  0
   -5.8481    6.3695  -20.4354 N   0  0  0  0  0  0  0  0  0  0  0  0
   -4.6427    6.4708  -20.7085 N   0  0  0  0  0  0  0  0  0  0  0  0
   -3.5321    6.5548  -20.9603 N   0  0  0  0  0  0  0  0  0  0  0  0
   -5.9052    5.6922  -17.7509 N   0  0  0  0  0  0  0  0  0  0  0  0
   -6.3595    5.4498  -16.4912 C   0  0  0  0  0  0  0  0  0  0  0  0
  1  2  2  0
  2  3  1  0
  3  4  1  0
  4  5  1  6
  4  6  1  0
  6  7  1  0
  7  8  2  0
  8  9  1  0
  9 10  2  0
 10 11  1  0
 11 12  1  0
 12 13  1  0
 13 14  1  0
 14 15  1  0
 15 16  2  0
 16 17  2  0
 13 18  2  0
 18 19  1  0
 19  7  1  0
 19 11  2  0
M  CHG  2  16   1  17  -1
M  END
>  <energy_score>  (419) 
-71.98349

>  <alias>  (419) 
None

>  <HIPPO Pose ID>  (419) 
69421

>  <smiles>  (419) 
C=CC[C@H](O)Nc1ncnc2sc(CN=[N+]=[N-])nc12

>  <inchikey>  (419) 
KIWXEKGJDWATSI-LURJTMIESA-N

>  <distance_score>  (419) 
0.877713

>  <ref_mols>  (419) 
Z1719a,Z0472a

>  <ref_pdb>  (419) 
Z0472a

>  <HIPPO Compound ID>  (419) 
138842

>  <name>  (419) 
P69421

>  <inspiration_score>  (419) 
None

$$$$
P69427
     RDKit          3D

 19 21  0  0  0  0  0  0  0  0999 V2000
   -3.2768    6.2091  -20.5215 N   0  0  0  0  0  0  0  0  0  0  0  0
   -4.0335    5.4475  -20.1347 N   0  0  0  0  0  0  0  0  0  0  0  0
   -4.8172    4.5748  -19.7388 N   0  0  0  0  0  0  0  0  0  0  0  0
   -6.2516    4.9425  -19.7900 C   0  0  0  0  0  0  0  0  0  0  0  0
   -6.7394    5.0892  -18.3964 C   0  0  0  0  0  0  0  0  0  0  0  0
   -5.9702    5.6008  -17.4618 N   0  0  0  0  0  0  0  0  0  0  0  0
   -6.5058    5.3187  -16.2304 C   0  0  0  0  0  0  0  0  0  0  0  0
   -5.9202    5.4703  -14.9604 C   0  0  0  0  0  0  0  0  0  0  0  0
   -4.6281    5.8904  -14.6833 N   0  0  0  0  0  0  0  0  0  0  0  0
   -3.8920    6.8083  -15.5313 C   0  0  0  0  0  0  0  0  0  0  0  0
   -3.2599    6.1535  -16.7504 C   0  0  0  0  0  0  0  0  0  0  0  0
   -1.7870    6.4893  -16.9970 C   0  0  0  0  0  0  0  0  0  0  0  0
   -1.3814    5.2229  -16.4174 O   0  0  0  0  0  0  0  0  0  0  0  0
   -2.7333    4.7203  -16.5949 C   0  0  0  0  0  0  0  0  0  0  0  0
   -6.6514    5.1144  -13.8794 N   0  0  0  0  0  0  0  0  0  0  0  0
   -7.8971    4.6336  -14.0670 C   0  0  0  0  0  0  0  0  0  0  0  0
   -8.5604    4.4905  -15.2199 N   0  0  0  0  0  0  0  0  0  0  0  0
   -7.7919    4.8055  -16.2708 C   0  0  0  0  0  0  0  0  0  0  0  0
   -8.2899    4.5737  -17.8873 S   0  0  0  0  0  0  0  0  0  0  0  0
  1  2  2  0
  2  3  2  0
  3  4  1  0
  4  5  1  0
  5  6  2  0
  6  7  1  0
  7  8  2  0
  8  9  1  0
  9 10  1  0
 10 11  1  0
 11 12  1  0
 12 13  1  0
 13 14  1  0
  8 15  1  0
 15 16  2  0
 16 17  1  0
 17 18  2  0
 18 19  1  0
 19  5  1  0
 18  7  1  0
 14 11  1  0
M  CHG  2   1  -1   2   1
M  END
>  <energy_score>  (420) 
-77.344438

>  <alias>  (420) 
None

>  <HIPPO Pose ID>  (420) 
69427

>  <smiles>  (420) 
[N-]=[N+]=NCc1nc2c(NCC3COC3)ncnc2s1

>  <inchikey>  (420) 
IVSWAALXRMQUEL-UHFFFAOYSA-N

>  <distance_score>  (420) 
1.395999

>  <ref_mols>  (420) 
Z0472a,Z1719a

>  <ref_pdb>  (420) 
Z0472a

>  <HIPPO Compound ID>  (420) 
138845

>  <name>  (420) 
P69427

>  <inspiration_score>  (420) 
None

$$$$
P69429
     RDKit          3D

 19 21  0  0  0  0  0  0  0  0999 V2000
   -3.7839    6.8834  -21.0898 N   0  0  0  0  0  0  0  0  0  0  0  0
   -4.7983    6.6956  -20.5996 N   0  0  0  0  0  0  0  0  0  0  0  0
   -5.8963    6.5126  -20.0541 N   0  0  0  0  0  0  0  0  0  0  0  0
   -6.2130    5.1076  -19.7319 C   0  0  0  0  0  0  0  0  0  0  0  0
   -6.5806    5.0229  -18.2967 C   0  0  0  0  0  0  0  0  0  0  0  0
   -5.6910    5.2392  -17.3542 N   0  0  0  0  0  0  0  0  0  0  0  0
   -6.2699    5.0691  -16.1183 C   0  0  0  0  0  0  0  0  0  0  0  0
   -5.6702    5.1672  -14.8445 C   0  0  0  0  0  0  0  0  0  0  0  0
   -4.3260    5.4865  -14.5842 N   0  0  0  0  0  0  0  0  0  0  0  0
   -3.3543    4.7211  -15.3536 C   0  0  0  0  0  0  0  0  0  0  0  0
   -2.3826    5.6731  -15.9823 C   0  0  2  0  0  0  0  0  0  0  0  0
   -2.8233    6.7948  -16.9054 C   0  0  0  0  0  0  0  0  0  0  0  0
   -2.0632    5.6319  -17.4493 C   0  0  2  0  0  0  0  0  0  0  0  0
   -2.8656    4.5606  -18.5425 Cl  0  0  0  0  0  0  0  0  0  0  0  0
   -6.4476    4.9605  -13.7580 N   0  0  0  0  0  0  0  0  0  0  0  0
   -7.7508    4.6634  -13.9446 C   0  0  0  0  0  0  0  0  0  0  0  0
   -8.4268    4.5813  -15.0977 N   0  0  0  0  0  0  0  0  0  0  0  0
   -7.6217    4.7695  -16.1535 C   0  0  0  0  0  0  0  0  0  0  0  0
   -8.1680    4.6601  -17.7662 S   0  0  0  0  0  0  0  0  0  0  0  0
  1  2  2  0
  2  3  2  0
  3  4  1  0
  4  5  1  0
  5  6  2  0
  6  7  1  0
  7  8  2  0
  8  9  1  0
  9 10  1  0
 11 10  1  6
 11 12  1  0
 12 13  1  0
 13 14  1  6
  8 15  1  0
 15 16  2  0
 16 17  1  0
 17 18  2  0
 18 19  1  0
 19  5  1  0
 18  7  1  0
 13 11  1  0
M  CHG  2   1  -1   2   1
M  END
>  <energy_score>  (421) 
-69.443286

>  <alias>  (421) 
None

>  <HIPPO Pose ID>  (421) 
69429

>  <smiles>  (421) 
[N-]=[N+]=NCc1nc2c(NC[C@@H]3C[C@@H]3Cl)ncnc2s1

>  <inchikey>  (421) 
JDQWPEZJWZAKBO-WDSKDSINSA-N

>  <distance_score>  (421) 
1.230113

>  <ref_mols>  (421) 
Z0472a,Z1719a

>  <ref_pdb>  (421) 
Z0472a

>  <HIPPO Compound ID>  (421) 
138846

>  <name>  (421) 
P69429

>  <inspiration_score>  (421) 
None

$$$$
P69433
     RDKit          3D

 19 20  0  0  0  0  0  0  0  0999 V2000
   -2.1751    5.7099  -17.7614 C   0  0  0  0  0  0  0  0  0  0  0  0
   -3.0049    6.1822  -16.5712 C   0  0  1  0  0  0  0  0  0  0  0  0
   -4.2844    7.2875  -17.1722 Cl  0  0  0  0  0  0  0  0  0  0  0  0
   -3.5211    5.0097  -15.7071 C   0  0  1  0  0  0  0  0  0  0  0  0
   -2.1783    4.3874  -14.6929 Cl  0  0  0  0  0  0  0  0  0  0  0  0
   -4.4903    5.3925  -14.6898 N   0  0  0  0  0  0  0  0  0  0  0  0
   -5.8259    5.0445  -14.9053 C   0  0  0  0  0  0  0  0  0  0  0  0
   -6.6083    4.9261  -13.8126 N   0  0  0  0  0  0  0  0  0  0  0  0
   -7.9243    4.6777  -13.9908 C   0  0  0  0  0  0  0  0  0  0  0  0
   -8.6098    4.5919  -15.1424 N   0  0  0  0  0  0  0  0  0  0  0  0
   -7.7904    4.6602  -16.2019 C   0  0  0  0  0  0  0  0  0  0  0  0
   -8.3219    4.5790  -17.8250 S   0  0  0  0  0  0  0  0  0  0  0  0
   -6.6979    4.7934  -18.3353 C   0  0  0  0  0  0  0  0  0  0  0  0
   -6.3127    5.0135  -19.7501 C   0  0  0  0  0  0  0  0  0  0  0  0
   -4.8341    5.0138  -19.8710 N   0  0  0  0  0  0  0  0  0  0  0  0
   -4.3615    6.0566  -20.3530 N   0  0  0  0  0  0  0  0  0  0  0  0
   -3.8876    6.9892  -20.8082 N   0  0  0  0  0  0  0  0  0  0  0  0
   -5.8016    4.8464  -17.3822 N   0  0  0  0  0  0  0  0  0  0  0  0
   -6.4224    4.8484  -16.1629 C   0  0  0  0  0  0  0  0  0  0  0  0
  2  1  1  6
  2  3  1  0
  2  4  1  0
  4  5  1  1
  4  6  1  0
  6  7  1  0
  7  8  2  0
  8  9  1  0
  9 10  2  0
 10 11  1  0
 11 12  1  0
 12 13  1  0
 13 14  1  0
 14 15  1  0
 15 16  2  0
 16 17  2  0
 13 18  2  0
 18 19  1  0
 19  7  1  0
 19 11  2  0
M  CHG  2  16   1  17  -1
M  END
>  <energy_score>  (422) 
-80.775563

>  <alias>  (422) 
None

>  <HIPPO Pose ID>  (422) 
69433

>  <smiles>  (422) 
C[C@@H](Cl)[C@@H](Cl)Nc1ncnc2sc(CN=[N+]=[N-])nc12

>  <inchikey>  (422) 
GFPFOUVMDYHTLA-FBCQKBJTSA-N

>  <distance_score>  (422) 
1.118379

>  <ref_mols>  (422) 
Z0472a,Z1719a

>  <ref_pdb>  (422) 
Z0472a

>  <HIPPO Compound ID>  (422) 
138847

>  <name>  (422) 
P69433

>  <inspiration_score>  (422) 
None

$$$$
P69439
     RDKit          3D

 19 20  0  0  0  0  0  0  0  0999 V2000
   -2.9524    6.9317  -17.5029 C   0  0  0  0  0  0  0  0  0  0  0  0
   -2.4082    5.6793  -16.8381 C   0  0  1  0  0  0  0  0  0  0  0  0
   -1.2641    6.0922  -16.0524 O   0  0  0  0  0  0  0  0  0  0  0  0
   -3.4236    4.8652  -15.9446 C   0  0  1  0  0  0  0  0  0  0  0  0
   -2.7228    4.2119  -15.0306 O   0  0  0  0  0  0  0  0  0  0  0  0
   -4.2177    5.7408  -15.0851 N   0  0  0  0  0  0  0  0  0  0  0  0
   -5.5989    5.4501  -15.1163 C   0  0  0  0  0  0  0  0  0  0  0  0
   -6.2394    5.1694  -13.9526 N   0  0  0  0  0  0  0  0  0  0  0  0
   -7.5205    4.7531  -14.0107 C   0  0  0  0  0  0  0  0  0  0  0  0
   -8.3136    4.6080  -15.0874 N   0  0  0  0  0  0  0  0  0  0  0  0
   -7.6447    4.9067  -16.2121 C   0  0  0  0  0  0  0  0  0  0  0  0
   -8.2746    4.6369  -17.7821 S   0  0  0  0  0  0  0  0  0  0  0  0
   -6.7804    5.1707  -18.4239 C   0  0  0  0  0  0  0  0  0  0  0  0
   -6.3338    4.9333  -19.8131 C   0  0  0  0  0  0  0  0  0  0  0  0
   -4.9778    4.3582  -19.7438 N   0  0  0  0  0  0  0  0  0  0  0  0
   -4.0475    5.0847  -20.1164 N   0  0  0  0  0  0  0  0  0  0  0  0
   -3.1695    5.6780  -20.5445 N   0  0  0  0  0  0  0  0  0  0  0  0
   -5.9657    5.7421  -17.5735 N   0  0  0  0  0  0  0  0  0  0  0  0
   -6.3534    5.3970  -16.3029 C   0  0  0  0  0  0  0  0  0  0  0  0
  2  1  1  1
  2  3  1  0
  2  4  1  0
  4  5  1  1
  4  6  1  0
  6  7  1  0
  7  8  2  0
  8  9  1  0
  9 10  2  0
 10 11  1  0
 11 12  1  0
 12 13  1  0
 13 14  1  0
 14 15  1  0
 15 16  2  0
 16 17  2  0
 13 18  2  0
 18 19  1  0
 19  7  1  0
 19 11  2  0
M  CHG  3   5  -1  16   1  17  -1
M  END
>  <energy_score>  (423) 
-241.453648

>  <alias>  (423) 
None

>  <HIPPO Pose ID>  (423) 
69439

>  <smiles>  (423) 
C[C@@H](O)[C@@H]([O-])Nc1ncnc2sc(CN=[N+]=[N-])nc12

>  <inchikey>  (423) 
GZZWZHOIIBYNFI-SPGJFGJESA-N

>  <distance_score>  (423) 
0.914348

>  <ref_mols>  (423) 
Z1719a,Z0472a

>  <ref_pdb>  (423) 
Z0472a

>  <HIPPO Compound ID>  (423) 
138850

>  <name>  (423) 
P69439

>  <inspiration_score>  (423) 
None

$$$$
P69440
     RDKit          3D

 19 20  0  0  0  0  0  0  0  0999 V2000
   -6.3345    8.0512  -19.2463 N   0  0  0  0  0  0  0  0  0  0  0  0
   -6.0521    7.0626  -19.7441 N   0  0  0  0  0  0  0  0  0  0  0  0
   -5.6772    6.0115  -20.2756 N   0  0  0  0  0  0  0  0  0  0  0  0
   -6.4141    4.7623  -19.9580 C   0  0  0  0  0  0  0  0  0  0  0  0
   -6.7419    4.6830  -18.5245 C   0  0  0  0  0  0  0  0  0  0  0  0
   -5.7405    4.6799  -17.6902 N   0  0  0  0  0  0  0  0  0  0  0  0
   -6.2229    4.7149  -16.4273 C   0  0  0  0  0  0  0  0  0  0  0  0
   -5.4159    4.7163  -15.2936 C   0  0  0  0  0  0  0  0  0  0  0  0
   -4.0199    4.5263  -15.4570 N   0  0  0  0  0  0  0  0  0  0  0  0
   -3.4128    5.6951  -16.1021 C   0  0  2  0  0  0  0  0  0  0  0  0
   -2.7295    5.1817  -17.6732 Cl  0  0  0  0  0  0  0  0  0  0  0  0
   -2.3131    6.2168  -15.2010 C   0  0  0  0  0  0  0  0  0  0  0  0
   -1.3414    5.1473  -14.7512 C   0  0  0  0  0  0  0  0  0  0  0  0
   -0.4163    5.7384  -13.9384 F   0  0  0  0  0  0  0  0  0  0  0  0
   -6.0130    4.8059  -14.0925 N   0  0  0  0  0  0  0  0  0  0  0  0
   -7.3709    4.8455  -14.0722 C   0  0  0  0  0  0  0  0  0  0  0  0
   -8.2414    4.8546  -15.1088 N   0  0  0  0  0  0  0  0  0  0  0  0
   -7.5898    4.7653  -16.2800 C   0  0  0  0  0  0  0  0  0  0  0  0
   -8.3101    4.6924  -17.8334 S   0  0  0  0  0  0  0  0  0  0  0  0
  1  2  2  0
  2  3  2  0
  3  4  1  0
  4  5  1  0
  5  6  2  0
  6  7  1  0
  7  8  2  0
  8  9  1  0
  9 10  1  0
 10 11  1  6
 10 12  1  0
 12 13  1  0
 13 14  1  0
  8 15  1  0
 15 16  2  0
 16 17  1  0
 17 18  2  0
 18 19  1  0
 19  5  1  0
 18  7  1  0
M  CHG  2   1  -1   2   1
M  END
>  <energy_score>  (424) 
-64.603537

>  <alias>  (424) 
None

>  <HIPPO Pose ID>  (424) 
69440

>  <smiles>  (424) 
[N-]=[N+]=NCc1nc2c(N[C@H](Cl)CCF)ncnc2s1

>  <inchikey>  (424) 
BFOLOQWPQVHWQH-YFKPBYRVSA-N

>  <distance_score>  (424) 
1.090154

>  <ref_mols>  (424) 
Z1719a,Z0472a

>  <ref_pdb>  (424) 
Z0472a

>  <HIPPO Compound ID>  (424) 
138851

>  <name>  (424) 
P69440

>  <inspiration_score>  (424) 
None

$$$$
P69445
     RDKit          3D

 19 20  0  0  0  0  0  0  0  0999 V2000
   -3.4788    6.3528  -20.5402 N   0  0  0  0  0  0  0  0  0  0  0  0
   -4.6192    6.3197  -20.4720 N   0  0  0  0  0  0  0  0  0  0  0  0
   -5.8557    6.2388  -20.4184 N   0  0  0  0  0  0  0  0  0  0  0  0
   -6.3694    4.9254  -19.9548 C   0  0  0  0  0  0  0  0  0  0  0  0
   -6.7541    5.0694  -18.5424 C   0  0  0  0  0  0  0  0  0  0  0  0
   -5.8788    5.6084  -17.7367 N   0  0  0  0  0  0  0  0  0  0  0  0
   -6.2953    5.4228  -16.4596 C   0  0  0  0  0  0  0  0  0  0  0  0
   -5.5326    5.7112  -15.3275 C   0  0  0  0  0  0  0  0  0  0  0  0
   -4.2604    6.3169  -15.4537 N   0  0  0  0  0  0  0  0  0  0  0  0
   -3.3694    5.5522  -16.3195 C   0  0  1  0  0  0  0  0  0  0  0  0
   -3.0383    6.4076  -17.4035 O   0  0  0  0  0  0  0  0  0  0  0  0
   -2.1054    5.2410  -15.5427 C   0  0  0  0  0  0  0  0  0  0  0  0
   -2.3782    4.2247  -14.4463 C   0  0  0  0  0  0  0  0  0  0  0  0
   -1.1682    3.9601  -13.7386 O   0  0  0  0  0  0  0  0  0  0  0  0
   -6.0622    5.4162  -14.1224 N   0  0  0  0  0  0  0  0  0  0  0  0
   -7.3082    4.8803  -14.0895 C   0  0  0  0  0  0  0  0  0  0  0  0
   -8.1337    4.6014  -15.1184 N   0  0  0  0  0  0  0  0  0  0  0  0
   -7.5457    4.8666  -16.2943 C   0  0  0  0  0  0  0  0  0  0  0  0
   -8.2192    4.5388  -17.8338 S   0  0  0  0  0  0  0  0  0  0  0  0
  1  2  2  0
  2  3  2  0
  3  4  1  0
  4  5  1  0
  5  6  2  0
  6  7  1  0
  7  8  2  0
  8  9  1  0
  9 10  1  0
 10 11  1  6
 10 12  1  0
 12 13  1  0
 13 14  1  0
  8 15  1  0
 15 16  2  0
 16 17  1  0
 17 18  2  0
 18 19  1  0
 19  5  1  0
 18  7  1  0
M  CHG  2   1  -1   2   1
M  END
>  <energy_score>  (425) 
-74.925653

>  <alias>  (425) 
None

>  <HIPPO Pose ID>  (425) 
69445

>  <smiles>  (425) 
[N-]=[N+]=NCc1nc2c(N[C@@H](O)CCO)ncnc2s1

>  <inchikey>  (425) 
DHDPXUPQUIHNOT-YFKPBYRVSA-N

>  <distance_score>  (425) 
0.89645

>  <ref_mols>  (425) 
Z0472a,Z1719a

>  <ref_pdb>  (425) 
Z0472a

>  <HIPPO Compound ID>  (425) 
138853

>  <name>  (425) 
P69445

>  <inspiration_score>  (425) 
None

$$$$
P69447
     RDKit          3D

 19 20  0  0  0  0  0  0  0  0999 V2000
   -5.8700    7.6458  -18.3375 N   0  0  0  0  0  0  0  0  0  0  0  0
   -5.9167    6.9496  -19.2435 N   0  0  0  0  0  0  0  0  0  0  0  0
   -5.9461    6.1398  -20.1865 N   0  0  0  0  0  0  0  0  0  0  0  0
   -6.4453    4.7573  -19.9026 C   0  0  0  0  0  0  0  0  0  0  0  0
   -6.7607    4.5725  -18.4716 C   0  0  0  0  0  0  0  0  0  0  0  0
   -5.7633    4.7031  -17.6351 N   0  0  0  0  0  0  0  0  0  0  0  0
   -6.2749    4.9248  -16.3926 C   0  0  0  0  0  0  0  0  0  0  0  0
   -5.5600    5.4309  -15.3052 C   0  0  0  0  0  0  0  0  0  0  0  0
   -4.2606    5.9379  -15.4396 N   0  0  0  0  0  0  0  0  0  0  0  0
   -3.3490    5.2244  -16.3116 C   0  0  1  0  0  0  0  0  0  0  0  0
   -3.3460    5.8298  -17.5900 O   0  0  0  0  0  0  0  0  0  0  0  0
   -1.9551    5.3684  -15.7263 C   0  0  0  0  0  0  0  0  0  0  0  0
   -1.8800    4.6562  -14.3897 C   0  0  0  0  0  0  0  0  0  0  0  0
   -0.0523    4.7484  -13.7042 Br  0  0  0  0  0  0  0  0  0  0  0  0
   -6.2233    5.5887  -14.1406 N   0  0  0  0  0  0  0  0  0  0  0  0
   -7.5353    5.2589  -14.0998 C   0  0  0  0  0  0  0  0  0  0  0  0
   -8.3353    4.8822  -15.1140 N   0  0  0  0  0  0  0  0  0  0  0  0
   -7.6368    4.7419  -16.2513 C   0  0  0  0  0  0  0  0  0  0  0  0
   -8.3287    4.4610  -17.7935 S   0  0  0  0  0  0  0  0  0  0  0  0
  1  2  2  0
  2  3  2  0
  3  4  1  0
  4  5  1  0
  5  6  2  0
  6  7  1  0
  7  8  2  0
  8  9  1  0
  9 10  1  0
 10 11  1  6
 10 12  1  0
 12 13  1  0
 13 14  1  0
  8 15  1  0
 15 16  2  0
 16 17  1  0
 17 18  2  0
 18 19  1  0
 19  5  1  0
 18  7  1  0
M  CHG  2   1  -1   2   1
M  END
>  <energy_score>  (426) 
-77.08312

>  <alias>  (426) 
None

>  <HIPPO Pose ID>  (426) 
69447

>  <smiles>  (426) 
[N-]=[N+]=NCc1nc2c(N[C@@H](O)CCBr)ncnc2s1

>  <inchikey>  (426) 
ATVOZMKPAUKKIB-YFKPBYRVSA-N

>  <distance_score>  (426) 
1.131874

>  <ref_mols>  (426) 
Z0472a,Z1719a

>  <ref_pdb>  (426) 
Z0472a

>  <HIPPO Compound ID>  (426) 
138854

>  <name>  (426) 
P69447

>  <inspiration_score>  (426) 
None

$$$$
P69448
     RDKit          3D

 19 20  0  0  0  0  0  0  0  0999 V2000
   -3.1635    6.8846  -17.5173 C   0  0  0  0  0  0  0  0  0  0  0  0
   -2.9177    5.4640  -17.0333 C   0  0  1  0  0  0  0  0  0  0  0  0
   -1.5332    5.1922  -17.3281 O   0  0  0  0  0  0  0  0  0  0  0  0
   -3.1691    5.2123  -15.5174 C   0  0  2  0  0  0  0  0  0  0  0  0
   -3.1263    3.8289  -15.2120 O   0  0  0  0  0  0  0  0  0  0  0  0
   -4.3219    5.8117  -14.8751 N   0  0  0  0  0  0  0  0  0  0  0  0
   -5.6123    5.3160  -15.0663 C   0  0  0  0  0  0  0  0  0  0  0  0
   -6.3654    5.1363  -13.9571 N   0  0  0  0  0  0  0  0  0  0  0  0
   -7.6521    4.7472  -14.1055 C   0  0  0  0  0  0  0  0  0  0  0  0
   -8.3428    4.5756  -15.2425 N   0  0  0  0  0  0  0  0  0  0  0  0
   -7.5599    4.7478  -16.3179 C   0  0  0  0  0  0  0  0  0  0  0  0
   -8.1190    4.6272  -17.9306 S   0  0  0  0  0  0  0  0  0  0  0  0
   -6.5422    5.0160  -18.4684 C   0  0  0  0  0  0  0  0  0  0  0  0
   -6.1547    5.2226  -19.8806 C   0  0  0  0  0  0  0  0  0  0  0  0
   -5.9333    6.6699  -20.0705 N   0  0  0  0  0  0  0  0  0  0  0  0
   -5.7265    7.0517  -21.2315 N   0  0  0  0  0  0  0  0  0  0  0  0
   -5.5240    7.4800  -22.2698 N   0  0  0  0  0  0  0  0  0  0  0  0
   -5.6447    5.2001  -17.5349 N   0  0  0  0  0  0  0  0  0  0  0  0
   -6.2179    5.0852  -16.3070 C   0  0  0  0  0  0  0  0  0  0  0  0
  2  1  1  1
  2  3  1  0
  2  4  1  0
  4  5  1  6
  4  6  1  0
  6  7  1  0
  7  8  2  0
  8  9  1  0
  9 10  2  0
 10 11  1  0
 11 12  1  0
 12 13  1  0
 13 14  1  0
 14 15  1  0
 15 16  2  0
 16 17  2  0
 13 18  2  0
 18 19  1  0
 19  7  1  0
 19 11  2  0
M  CHG  2  16   1  17  -1
M  END
>  <energy_score>  (427) 
-83.124932

>  <alias>  (427) 
None

>  <HIPPO Pose ID>  (427) 
69448

>  <smiles>  (427) 
C[C@@H](O)[C@H](O)Nc1ncnc2sc(CN=[N+]=[N-])nc12

>  <inchikey>  (427) 
HXSZINWJUBQONW-VHWMUFPASA-N

>  <distance_score>  (427) 
0.981936

>  <ref_mols>  (427) 
Z1719a,Z0472a

>  <ref_pdb>  (427) 
Z0472a

>  <HIPPO Compound ID>  (427) 
138855

>  <name>  (427) 
P69448

>  <inspiration_score>  (427) 
None

$$$$
P69452
     RDKit          3D

 19 20  0  0  0  0  0  0  0  0999 V2000
   -2.9987    5.9436  -18.0403 C   0  0  0  0  0  0  0  0  0  0  0  0
   -2.3517    5.9440  -16.6747 C   0  0  1  0  0  0  0  0  0  0  0  0
   -1.5829    7.7588  -16.3971 Br  0  0  0  0  0  0  0  0  0  0  0  0
   -3.1452    5.5532  -15.4198 C   0  0  2  0  0  0  0  0  0  0  0  0
   -3.3054    3.6321  -15.2195 Br  0  0  0  0  0  0  0  0  0  0  0  0
   -4.3319    6.3363  -15.0736 N   0  0  0  0  0  0  0  0  0  0  0  0
   -5.6006    5.7512  -15.1184 C   0  0  0  0  0  0  0  0  0  0  0  0
   -6.3009    5.7075  -13.9633 N   0  0  0  0  0  0  0  0  0  0  0  0
   -7.5667    5.2324  -14.0008 C   0  0  0  0  0  0  0  0  0  0  0  0
   -8.2817    4.8470  -15.0677 N   0  0  0  0  0  0  0  0  0  0  0  0
   -7.5476    4.8977  -16.1905 C   0  0  0  0  0  0  0  0  0  0  0  0
   -8.1585    4.5314  -17.7443 S   0  0  0  0  0  0  0  0  0  0  0  0
   -6.6098    4.8632  -18.3918 C   0  0  0  0  0  0  0  0  0  0  0  0
   -6.2735    4.8062  -19.8342 C   0  0  0  0  0  0  0  0  0  0  0  0
   -5.5152    6.0153  -20.2499 N   0  0  0  0  0  0  0  0  0  0  0  0
   -5.9611    7.1150  -19.8943 N   0  0  0  0  0  0  0  0  0  0  0  0
   -6.3010    8.1504  -19.5521 N   0  0  0  0  0  0  0  0  0  0  0  0
   -5.6966    5.2554  -17.5367 N   0  0  0  0  0  0  0  0  0  0  0  0
   -6.2273    5.3013  -16.2859 C   0  0  0  0  0  0  0  0  0  0  0  0
  2  1  1  6
  2  3  1  0
  2  4  1  0
  4  5  1  6
  4  6  1  0
  6  7  1  0
  7  8  2  0
  8  9  1  0
  9 10  2  0
 10 11  1  0
 11 12  1  0
 12 13  1  0
 13 14  1  0
 14 15  1  0
 15 16  2  0
 16 17  2  0
 13 18  2  0
 18 19  1  0
 19  7  1  0
 19 11  2  0
M  CHG  2  16   1  17  -1
M  END
>  <energy_score>  (428) 
-74.504324

>  <alias>  (428) 
None

>  <HIPPO Pose ID>  (428) 
69452

>  <smiles>  (428) 
C[C@@H](Br)[C@H](Br)Nc1ncnc2sc(CN=[N+]=[N-])nc12

>  <inchikey>  (428) 
IADSIHPXCMKRTK-CLZZGJSISA-N

>  <distance_score>  (428) 
1.168776

>  <ref_mols>  (428) 
Z1719a,Z0472a

>  <ref_pdb>  (428) 
Z0472a

>  <HIPPO Compound ID>  (428) 
138856

>  <name>  (428) 
P69452

>  <inspiration_score>  (428) 
None

$$$$
P69455
     RDKit          3D

 19 20  0  0  0  0  0  0  0  0999 V2000
   -4.0481    7.9057  -17.0051 C   0  0  0  0  0  0  0  0  0  0  0  0
   -2.5394    7.2393  -16.2822 S   0  0  0  0  0  0  0  0  0  0  0  0
   -2.6198    5.4679  -16.7332 C   0  0  2  0  0  0  0  0  0  0  0  0
   -2.8250    5.2657  -18.2302 C   0  0  0  0  0  0  0  0  0  0  0  0
   -3.4651    4.5697  -15.7967 C   0  0  0  0  0  0  0  0  0  0  0  0
   -4.3772    5.2835  -14.9014 N   0  0  0  0  0  0  0  0  0  0  0  0
   -5.7404    5.0301  -15.0462 C   0  0  0  0  0  0  0  0  0  0  0  0
   -6.4813    4.9178  -13.9250 N   0  0  0  0  0  0  0  0  0  0  0  0
   -7.8074    4.6947  -14.0585 C   0  0  0  0  0  0  0  0  0  0  0  0
   -8.5325    4.6116  -15.1863 N   0  0  0  0  0  0  0  0  0  0  0  0
   -7.7537    4.7071  -16.2742 C   0  0  0  0  0  0  0  0  0  0  0  0
   -8.3318    4.5814  -17.8779 S   0  0  0  0  0  0  0  0  0  0  0  0
   -6.7298    4.8062  -18.4387 C   0  0  0  0  0  0  0  0  0  0  0  0
   -6.3384    4.8116  -19.8659 C   0  0  0  0  0  0  0  0  0  0  0  0
   -5.6444    6.0592  -20.2589 N   0  0  0  0  0  0  0  0  0  0  0  0
   -6.0792    7.1313  -19.8228 N   0  0  0  0  0  0  0  0  0  0  0  0
   -6.4076    8.1459  -19.4148 N   0  0  0  0  0  0  0  0  0  0  0  0
   -5.8172    5.0092  -17.5227 N   0  0  0  0  0  0  0  0  0  0  0  0
   -6.3884    4.9185  -16.2835 C   0  0  0  0  0  0  0  0  0  0  0  0
  1  2  1  0
  2  3  1  0
  3  4  1  6
  3  5  1  0
  5  6  1  0
  6  7  1  0
  7  8  2  0
  8  9  1  0
  9 10  2  0
 10 11  1  0
 11 12  1  0
 12 13  1  0
 13 14  1  0
 14 15  1  0
 15 16  2  0
 16 17  2  0
 13 18  2  0
 18 19  1  0
 19  7  1  0
 19 11  2  0
M  CHG  2  16   1  17  -1
M  END
>  <energy_score>  (429) 
-83.09701

>  <alias>  (429) 
None

>  <HIPPO Pose ID>  (429) 
69455

>  <smiles>  (429) 
CS[C@H](C)CNc1ncnc2sc(CN=[N+]=[N-])nc12

>  <inchikey>  (429) 
QFBXFWGRVXLKJI-ZCFIWIBFSA-N

>  <distance_score>  (429) 
1.161383

>  <ref_mols>  (429) 
Z0472a,Z1719a

>  <ref_pdb>  (429) 
Z0472a

>  <HIPPO Compound ID>  (429) 
138857

>  <name>  (429) 
P69455

>  <inspiration_score>  (429) 
None

$$$$
P69458
     RDKit          3D

 19 20  0  0  0  0  0  0  0  0999 V2000
   -2.6633    3.9743  -14.7012 C   0  0  0  0  0  0  0  0  0  0  0  0
   -2.2094    5.0054  -15.7254 C   0  0  0  0  0  0  0  0  0  0  0  0
   -3.3246    5.3238  -16.7168 C   0  0  2  0  0  0  0  0  0  0  0  0
   -2.6288    5.4241  -18.5225 Br  0  0  0  0  0  0  0  0  0  0  0  0
   -3.9802    6.6560  -16.3690 C   0  0  0  0  0  0  0  0  0  0  0  0
   -4.8371    6.5302  -15.1846 N   0  0  0  0  0  0  0  0  0  0  0  0
   -6.0347    5.8275  -15.2267 C   0  0  0  0  0  0  0  0  0  0  0  0
   -6.6307    5.4883  -14.0638 N   0  0  0  0  0  0  0  0  0  0  0  0
   -7.8248    4.8501  -14.1264 C   0  0  0  0  0  0  0  0  0  0  0  0
   -8.5379    4.5024  -15.2127 N   0  0  0  0  0  0  0  0  0  0  0  0
   -7.8738    4.7875  -16.3420 C   0  0  0  0  0  0  0  0  0  0  0  0
   -8.4101    4.3975  -17.9238 S   0  0  0  0  0  0  0  0  0  0  0  0
   -6.9130    4.9624  -18.5301 C   0  0  0  0  0  0  0  0  0  0  0  0
   -6.3984    4.7979  -19.9081 C   0  0  0  0  0  0  0  0  0  0  0  0
   -5.5531    5.9538  -20.3156 N   0  0  0  0  0  0  0  0  0  0  0  0
   -5.9326    7.0945  -20.0211 N   0  0  0  0  0  0  0  0  0  0  0  0
   -6.2059    8.1668  -19.7357 N   0  0  0  0  0  0  0  0  0  0  0  0
   -6.1545    5.5822  -17.6668 N   0  0  0  0  0  0  0  0  0  0  0  0
   -6.6561    5.4293  -16.4155 C   0  0  0  0  0  0  0  0  0  0  0  0
  1  2  1  0
  2  3  1  0
  3  4  1  6
  3  5  1  0
  5  6  1  0
  6  7  1  0
  7  8  2  0
  8  9  1  0
  9 10  2  0
 10 11  1  0
 11 12  1  0
 12 13  1  0
 13 14  1  0
 14 15  1  0
 15 16  2  0
 16 17  2  0
 13 18  2  0
 18 19  1  0
 19  7  1  0
 19 11  2  0
M  CHG  2  16   1  17  -1
M  END
>  <energy_score>  (430) 
-83.061411

>  <alias>  (430) 
None

>  <HIPPO Pose ID>  (430) 
69458

>  <smiles>  (430) 
CC[C@H](Br)CNc1ncnc2sc(CN=[N+]=[N-])nc12

>  <inchikey>  (430) 
FELWDKASXSRDPZ-LURJTMIESA-N

>  <distance_score>  (430) 
1.177779

>  <ref_mols>  (430) 
Z1719a,Z0472a

>  <ref_pdb>  (430) 
Z0472a

>  <HIPPO Compound ID>  (430) 
138859

>  <name>  (430) 
P69458

>  <inspiration_score>  (430) 
None

$$$$
P69462
     RDKit          3D

 19 21  0  0  0  0  0  0  0  0999 V2000
   -2.7354    6.3281  -18.2858 C   0  0  0  0  0  0  0  0  0  0  0  0
   -2.2535    5.2659  -17.3184 C   0  0  1  0  0  0  0  0  0  0  0  0
   -1.9352    5.6773  -15.8762 C   0  0  0  0  0  0  0  0  0  0  0  0
   -3.2097    4.8981  -15.5116 C   0  0  1  0  0  0  0  0  0  0  0  0
   -4.2635    5.7903  -15.0859 N   0  0  0  0  0  0  0  0  0  0  0  0
   -5.5932    5.2862  -15.0864 C   0  0  0  0  0  0  0  0  0  0  0  0
   -6.1992    4.8481  -13.9634 N   0  0  0  0  0  0  0  0  0  0  0  0
   -7.4771    4.4101  -14.0713 C   0  0  0  0  0  0  0  0  0  0  0  0
   -8.2547    4.3434  -15.1678 N   0  0  0  0  0  0  0  0  0  0  0  0
   -7.5845    4.7234  -16.2643 C   0  0  0  0  0  0  0  0  0  0  0  0
   -8.1714    4.5857  -17.8629 S   0  0  0  0  0  0  0  0  0  0  0  0
   -6.6453    5.1362  -18.4258 C   0  0  0  0  0  0  0  0  0  0  0  0
   -6.1946    5.0441  -19.8360 C   0  0  0  0  0  0  0  0  0  0  0  0
   -5.5389    6.2842  -20.3232 N   0  0  0  0  0  0  0  0  0  0  0  0
   -5.9312    7.3669  -19.8681 N   0  0  0  0  0  0  0  0  0  0  0  0
   -6.2376    8.3867  -19.4537 N   0  0  0  0  0  0  0  0  0  0  0  0
   -5.8463    5.6388  -17.5140 N   0  0  0  0  0  0  0  0  0  0  0  0
   -6.3061    5.2392  -16.2906 C   0  0  0  0  0  0  0  0  0  0  0  0
   -3.3217    4.4054  -16.8674 O   0  0  0  0  0  0  0  0  0  0  0  0
  2  1  1  6
  2  3  1  0
  3  4  1  0
  4  5  1  6
  5  6  1  0
  6  7  2  0
  7  8  1  0
  8  9  2  0
  9 10  1  0
 10 11  1  0
 11 12  1  0
 12 13  1  0
 13 14  1  0
 14 15  2  0
 15 16  2  0
 12 17  2  0
 17 18  1  0
  4 19  1  0
 19  2  1  0
 18  6  1  0
 18 10  2  0
M  CHG  2  15   1  16  -1
M  END
>  <energy_score>  (431) 
-92.148662

>  <alias>  (431) 
None

>  <HIPPO Pose ID>  (431) 
69462

>  <smiles>  (431) 
C[C@H]1C[C@@H](Nc2ncnc3sc(CN=[N+]=[N-])nc23)O1

>  <inchikey>  (431) 
NOKAIABWOVZSTR-WDSKDSINSA-N

>  <distance_score>  (431) 
0.965085

>  <ref_mols>  (431) 
Z1719a,Z0472a

>  <ref_pdb>  (431) 
Z0472a

>  <HIPPO Compound ID>  (431) 
138860

>  <name>  (431) 
P69462

>  <inspiration_score>  (431) 
None

$$$$
P69464
     RDKit          3D

 19 20  0  0  0  0  0  0  0  0999 V2000
   -2.8844    2.9664  -14.1264 N   0  0  0  0  0  0  0  0  0  0  0  0
   -2.6329    3.9070  -14.7564 C   0  0  0  0  0  0  0  0  0  0  0  0
   -2.2812    5.0890  -15.5456 C   0  0  0  0  0  0  0  0  0  0  0  0
   -3.5273    5.6292  -16.2330 C   0  0  2  0  0  0  0  0  0  0  0  0
   -3.0154    6.8963  -17.3896 Cl  0  0  0  0  0  0  0  0  0  0  0  0
   -4.4141    6.2841  -15.2580 N   0  0  0  0  0  0  0  0  0  0  0  0
   -5.7254    5.7755  -15.2646 C   0  0  0  0  0  0  0  0  0  0  0  0
   -6.2762    5.4172  -14.0876 N   0  0  0  0  0  0  0  0  0  0  0  0
   -7.5065    4.8491  -14.1090 C   0  0  0  0  0  0  0  0  0  0  0  0
   -8.2911    4.5935  -15.1699 N   0  0  0  0  0  0  0  0  0  0  0  0
   -7.6887    4.9399  -16.3168 C   0  0  0  0  0  0  0  0  0  0  0  0
   -8.2870    4.5722  -17.8763 S   0  0  0  0  0  0  0  0  0  0  0  0
   -6.8300    5.1966  -18.5295 C   0  0  0  0  0  0  0  0  0  0  0  0
   -6.3073    4.8835  -19.8762 C   0  0  0  0  0  0  0  0  0  0  0  0
   -4.8992    4.4540  -19.6913 N   0  0  0  0  0  0  0  0  0  0  0  0
   -4.0386    5.2219  -20.1442 N   0  0  0  0  0  0  0  0  0  0  0  0
   -3.2076    5.8597  -20.5985 N   0  0  0  0  0  0  0  0  0  0  0  0
   -6.0815    5.8881  -17.7039 N   0  0  0  0  0  0  0  0  0  0  0  0
   -6.4669    5.5742  -16.4337 C   0  0  0  0  0  0  0  0  0  0  0  0
  1  2  3  0
  2  3  1  0
  3  4  1  0
  4  5  1  6
  4  6  1  0
  6  7  1  0
  7  8  2  0
  8  9  1  0
  9 10  2  0
 10 11  1  0
 11 12  1  0
 12 13  1  0
 13 14  1  0
 14 15  1  0
 15 16  2  0
 16 17  2  0
 13 18  2  0
 18 19  1  0
 19  7  1  0
 19 11  2  0
M  CHG  2  16   1  17  -1
M  END
>  <energy_score>  (432) 
-49.259822

>  <alias>  (432) 
None

>  <HIPPO Pose ID>  (432) 
69464

>  <smiles>  (432) 
N#CC[C@H](Cl)Nc1ncnc2sc(CN=[N+]=[N-])nc12

>  <inchikey>  (432) 
APERLCLDEMYDJT-RXMQYKEDSA-N

>  <distance_score>  (432) 
0.852065

>  <ref_mols>  (432) 
Z0472a,Z1719a

>  <ref_pdb>  (432) 
Z0472a

>  <HIPPO Compound ID>  (432) 
138861

>  <name>  (432) 
P69464

>  <inspiration_score>  (432) 
None

$$$$
P69466
     RDKit          3D

 25 28  0  0  0  0  0  0  0  0999 V2000
   -5.1006    8.4633  -13.0737 O   0  0  0  0  0  0  0  0  0  0  0  0
   -4.6265    7.4706  -12.5385 C   0  0  0  0  0  0  0  0  0  0  0  0
   -3.4896    6.6623  -13.1027 C   0  0  0  0  0  0  0  0  0  0  0  0
   -3.9345    5.2538  -13.5003 C   0  0  0  0  0  0  0  0  0  0  0  0
   -4.7931    5.1906  -14.7385 C   0  0  0  0  0  0  0  0  0  0  0  0
   -6.0819    4.8119  -14.7227 C   0  0  0  0  0  0  0  0  0  0  0  0
   -6.8782    4.7395  -15.9474 C   0  0  0  0  0  0  0  0  0  0  0  0
   -8.2293    4.3817  -15.9357 C   0  0  0  0  0  0  0  0  0  0  0  0
   -8.9443    4.2905  -17.1312 C   0  0  0  0  0  0  0  0  0  0  0  0
   -8.3081    4.5460  -18.3437 C   0  0  0  0  0  0  0  0  0  0  0  0
   -6.9605    4.9087  -18.3646 C   0  0  0  0  0  0  0  0  0  0  0  0
   -6.2547    5.0091  -17.1673 C   0  0  0  0  0  0  0  0  0  0  0  0
   -4.9025    5.3717  -17.1782 N   0  0  0  0  0  0  0  0  0  0  0  0
   -4.1327    5.4728  -16.0520 C   0  0  0  0  0  0  0  0  0  0  0  0
   -2.9417    5.7682  -16.1144 O   0  0  0  0  0  0  0  0  0  0  0  0
   -5.0472    6.9285  -11.3602 O   0  0  0  0  0  0  0  0  0  0  0  0
   -6.2914    7.4366  -10.8645 C   0  0  0  0  0  0  0  0  0  0  0  0
   -7.3425    6.6427  -11.5309 C   0  0  0  0  0  0  0  0  0  0  0  0
   -8.0609    6.8922  -12.6835 C   0  0  0  0  0  0  0  0  0  0  0  0
   -8.8366    5.8144  -13.0274 N   0  0  0  0  0  0  0  0  0  0  0  0
   -8.5883    4.9071  -12.1056 C   0  0  0  0  0  0  0  0  0  0  0  0
   -7.7536    5.3964  -11.1523 N   0  0  0  0  0  0  0  0  0  0  0  0
   -7.3142    4.6506   -9.9619 C   0  0  0  0  0  0  0  0  0  0  0  0
   -7.7636    5.0415   -8.5736 C   0  0  0  0  0  0  0  0  0  0  0  0
   -8.2563    3.7629   -9.1823 C   0  0  0  0  0  0  0  0  0  0  0  0
  1  2  2  0
  2  3  1  0
  3  4  1  0
  4  5  1  0
  5  6  2  0
  6  7  1  0
  7  8  2  0
  8  9  1  0
  9 10  2  0
 10 11  1  0
 11 12  2  0
 12 13  1  0
 13 14  1  0
 14 15  2  0
  2 16  1  0
 16 17  1  0
 17 18  1  0
 18 19  2  0
 19 20  1  0
 20 21  2  0
 21 22  1  0
 22 23  1  0
 23 24  1  0
 24 25  1  0
 14  5  1  0
 22 18  1  0
 25 23  1  0
 12  7  1  0
M  END
>  <energy_score>  (433) 
-40.604581

>  <alias>  (433) 
None

>  <HIPPO Pose ID>  (433) 
69466

>  <smiles>  (433) 
O=C(CCc1cc2ccccc2[nH]c1=O)OCc1cncn1C1CC1

>  <inchikey>  (433) 
HUDBFWUFOFPTIT-UHFFFAOYSA-N

>  <distance_score>  (433) 
0.680813

>  <ref_mols>  (433) 
Z1688a,Z1716a

>  <ref_pdb>  (433) 
Z1688a

>  <HIPPO Compound ID>  (433) 
138878

>  <name>  (433) 
P69466

>  <inspiration_score>  (433) 
None

$$$$
P69468
     RDKit          3D

 25 28  0  0  0  0  0  0  0  0999 V2000
   -2.3167    7.0926  -13.9036 N   0  0  0  0  0  0  0  0  0  0  0  0
   -3.2707    6.5199  -12.9282 C   0  0  2  0  0  0  0  0  0  0  0  0
   -3.8938    5.1854  -13.3930 C   0  0  0  0  0  0  0  0  0  0  0  0
   -4.7265    5.1905  -14.6531 C   0  0  0  0  0  0  0  0  0  0  0  0
   -4.2000    5.5392  -15.8877 C   0  0  0  0  0  0  0  0  0  0  0  0
   -4.8792    5.4940  -17.0587 N   0  0  0  0  0  0  0  0  0  0  0  0
   -6.1625    5.0900  -17.0367 C   0  0  0  0  0  0  0  0  0  0  0  0
   -6.8856    5.0132  -18.2210 C   0  0  0  0  0  0  0  0  0  0  0  0
   -8.2245    4.6093  -18.2456 C   0  0  0  0  0  0  0  0  0  0  0  0
   -8.8681    4.2823  -17.0608 C   0  0  0  0  0  0  0  0  0  0  0  0
   -8.1598    4.3342  -15.8630 C   0  0  0  0  0  0  0  0  0  0  0  0
   -6.8078    4.7281  -15.8412 C   0  0  0  0  0  0  0  0  0  0  0  0
   -6.0543    4.7591  -14.6538 C   0  0  0  0  0  0  0  0  0  0  0  0
   -4.3601    7.5317  -12.5435 C   0  0  0  0  0  0  0  0  0  0  0  0
   -4.5974    8.5840  -13.1216 O   0  0  0  0  0  0  0  0  0  0  0  0
   -4.9963    7.0937  -11.4182 O   0  0  0  0  0  0  0  0  0  0  0  0
   -6.2193    7.7598  -11.0936 C   0  0  0  0  0  0  0  0  0  0  0  0
   -7.2751    6.9100  -11.6740 C   0  0  0  0  0  0  0  0  0  0  0  0
   -7.8888    6.9547  -12.9088 C   0  0  0  0  0  0  0  0  0  0  0  0
   -8.7309    5.8855  -13.0828 N   0  0  0  0  0  0  0  0  0  0  0  0
   -8.6084    5.1722  -11.9839 C   0  0  0  0  0  0  0  0  0  0  0  0
   -7.8040    5.7968  -11.0867 N   0  0  0  0  0  0  0  0  0  0  0  0
   -7.6389    5.3876   -9.6859 C   0  0  0  0  0  0  0  0  0  0  0  0
   -7.5048    3.9434   -9.2790 C   0  0  0  0  0  0  0  0  0  0  0  0
   -6.3349    4.8737   -9.1342 C   0  0  0  0  0  0  0  0  0  0  0  0
  2  1  1  6
  2  3  1  0
  3  4  1  0
  4  5  2  0
  5  6  1  0
  6  7  2  0
  7  8  1  0
  8  9  2  0
  9 10  1  0
 10 11  2  0
 11 12  1  0
 12 13  2  0
  2 14  1  0
 14 15  2  0
 14 16  1  0
 16 17  1  0
 17 18  1  0
 18 19  2  0
 19 20  1  0
 20 21  2  0
 21 22  1  0
 22 23  1  0
 23 24  1  0
 24 25  1  0
 13  4  1  0
 22 18  1  0
 25 23  1  0
 12  7  1  0
M  END
>  <energy_score>  (434) 
-30.950742

>  <alias>  (434) 
None

>  <HIPPO Pose ID>  (434) 
69468

>  <smiles>  (434) 
N[C@H](Cc1cnc2ccccc2c1)C(=O)OCc1cncn1C1CC1

>  <inchikey>  (434) 
JQCXVHFLNLDMFI-QGZVFWFLSA-N

>  <distance_score>  (434) 
0.682068

>  <ref_mols>  (434) 
Z1688a,Z1716a

>  <ref_pdb>  (434) 
Z1688a

>  <HIPPO Compound ID>  (434) 
138880

>  <name>  (434) 
P69468

>  <inspiration_score>  (434) 
None

$$$$
P69470
     RDKit          3D

 25 27  0  0  0  0  0  0  0  0999 V2000
   -8.4497    3.4964   -9.2954 C   0  0  0  0  0  0  0  0  0  0  0  0
   -7.2722    3.9795  -10.1431 C   0  0  0  0  0  0  0  0  0  0  0  0
   -6.5264    2.8040  -10.7773 C   0  0  0  0  0  0  0  0  0  0  0  0
   -7.6996    4.9519  -11.1473 N   0  0  0  0  0  0  0  0  0  0  0  0
   -8.5909    4.6798  -12.1492 C   0  0  0  0  0  0  0  0  0  0  0  0
   -8.8086    5.7243  -12.9161 N   0  0  0  0  0  0  0  0  0  0  0  0
   -8.0065    6.7064  -12.4134 C   0  0  0  0  0  0  0  0  0  0  0  0
   -7.2842    6.2524  -11.3270 C   0  0  0  0  0  0  0  0  0  0  0  0
   -6.2242    6.9440  -10.5622 C   0  0  0  0  0  0  0  0  0  0  0  0
   -4.9904    6.5289  -11.1554 O   0  0  0  0  0  0  0  0  0  0  0  0
   -4.5844    7.2692  -12.2272 C   0  0  0  0  0  0  0  0  0  0  0  0
   -5.0597    8.3457  -12.5708 O   0  0  0  0  0  0  0  0  0  0  0  0
   -3.4069    6.5801  -12.9257 C   0  0  2  0  0  0  0  0  0  0  0  0
   -2.7868    7.4886  -13.9240 N   0  0  0  0  0  0  0  0  0  0  0  0
   -3.8162    5.2106  -13.5048 C   0  0  0  0  0  0  0  0  0  0  0  0
   -4.6743    5.1996  -14.7448 C   0  0  0  0  0  0  0  0  0  0  0  0
   -4.1402    5.4775  -15.9937 C   0  0  0  0  0  0  0  0  0  0  0  0
   -4.8332    5.4337  -17.1538 N   0  0  0  0  0  0  0  0  0  0  0  0
   -6.1306    5.0745  -17.1090 C   0  0  0  0  0  0  0  0  0  0  0  0
   -6.8628    4.9743  -18.2858 C   0  0  0  0  0  0  0  0  0  0  0  0
   -8.2099    4.5972  -18.2907 C   0  0  0  0  0  0  0  0  0  0  0  0
   -8.8537    4.3216  -17.0934 C   0  0  0  0  0  0  0  0  0  0  0  0
   -8.1404    4.4085  -15.9009 C   0  0  0  0  0  0  0  0  0  0  0  0
   -6.7806    4.7775  -15.8976 C   0  0  0  0  0  0  0  0  0  0  0  0
   -6.0203    4.8387  -14.7162 C   0  0  0  0  0  0  0  0  0  0  0  0
  1  2  1  0
  2  3  1  0
  2  4  1  0
  4  5  1  0
  5  6  2  0
  6  7  1  0
  7  8  2  0
  8  9  1  0
  9 10  1  0
 10 11  1  0
 11 12  2  0
 11 13  1  0
 13 14  1  6
 13 15  1  0
 15 16  1  0
 16 17  2  0
 17 18  1  0
 18 19  2  0
 19 20  1  0
 20 21  2  0
 21 22  1  0
 22 23  2  0
 23 24  1  0
 24 25  2  0
  8  4  1  0
 25 16  1  0
 24 19  1  0
M  END
>  <energy_score>  (435) 
-33.345901

>  <alias>  (435) 
None

>  <HIPPO Pose ID>  (435) 
69470

>  <smiles>  (435) 
CC(C)n1cncc1COC(=O)[C@H](N)Cc1cnc2ccccc2c1

>  <inchikey>  (435) 
QYLCGLLRWZBLRT-QGZVFWFLSA-N

>  <distance_score>  (435) 
0.748294

>  <ref_mols>  (435) 
Z1688a,Z1716a

>  <ref_pdb>  (435) 
Z1688a

>  <HIPPO Compound ID>  (435) 
138881

>  <name>  (435) 
P69470

>  <inspiration_score>  (435) 
None

$$$$
P69472
     RDKit          3D

 25 28  0  0  0  0  0  0  0  0999 V2000
   -2.3942    7.2100  -13.8258 N   0  0  0  0  0  0  0  0  0  0  0  0
   -3.6119    6.8481  -13.0359 C   0  0  2  0  0  0  0  0  0  0  0  0
   -4.1122    5.4420  -13.4222 C   0  0  0  0  0  0  0  0  0  0  0  0
   -4.8608    5.2944  -14.7193 C   0  0  0  0  0  0  0  0  0  0  0  0
   -4.2739    5.5080  -15.9550 C   0  0  0  0  0  0  0  0  0  0  0  0
   -4.9168    5.3911  -17.1404 N   0  0  0  0  0  0  0  0  0  0  0  0
   -6.2173    5.0335  -17.1313 C   0  0  0  0  0  0  0  0  0  0  0  0
   -6.9209    4.9017  -18.3217 C   0  0  0  0  0  0  0  0  0  0  0  0
   -8.2712    4.5325  -18.3461 C   0  0  0  0  0  0  0  0  0  0  0  0
   -8.9474    4.2923  -17.1572 C   0  0  0  0  0  0  0  0  0  0  0  0
   -8.2653    4.4090  -15.9503 C   0  0  0  0  0  0  0  0  0  0  0  0
   -6.9062    4.7726  -15.9348 C   0  0  0  0  0  0  0  0  0  0  0  0
   -6.1909    4.8788  -14.7373 C   0  0  0  0  0  0  0  0  0  0  0  0
   -4.6518    7.9767  -13.1783 C   0  0  0  0  0  0  0  0  0  0  0  0
   -4.6169    8.7477  -14.1400 O   0  0  0  0  0  0  0  0  0  0  0  0
   -5.5489    8.1885  -12.1915 O   0  0  0  0  0  0  0  0  0  0  0  0
   -5.8172    7.3041  -11.0907 C   0  0  0  0  0  0  0  0  0  0  0  0
   -6.9493    6.4463  -11.4871 C   0  0  0  0  0  0  0  0  0  0  0  0
   -7.9665    6.6182  -12.4175 C   0  0  0  0  0  0  0  0  0  0  0  0
   -8.7431    5.4827  -12.5413 N   0  0  0  0  0  0  0  0  0  0  0  0
   -8.2461    4.6585  -11.6545 C   0  0  0  0  0  0  0  0  0  0  0  0
   -7.2036    5.2175  -10.9815 N   0  0  0  0  0  0  0  0  0  0  0  0
   -6.5776    4.2958  -10.0527 C   0  0  0  0  0  0  0  0  0  0  0  0
   -7.1161    2.9395  -10.5341 C   0  0  0  0  0  0  0  0  0  0  0  0
   -8.4568    3.2544  -11.2390 C   0  0  0  0  0  0  0  0  0  0  0  0
  2  1  1  6
  2  3  1  0
  3  4  1  0
  4  5  2  0
  5  6  1  0
  6  7  2  0
  7  8  1  0
  8  9  2  0
  9 10  1  0
 10 11  2  0
 11 12  1  0
 12 13  2  0
  2 14  1  0
 14 15  2  0
 14 16  1  0
 16 17  1  0
 17 18  1  0
 18 19  2  0
 19 20  1  0
 20 21  2  0
 21 22  1  0
 22 23  1  0
 23 24  1  0
 24 25  1  0
 13  4  1  0
 22 18  1  0
 12  7  1  0
 25 21  1  0
M  END
>  <energy_score>  (436) 
-24.284395

>  <alias>  (436) 
None

>  <HIPPO Pose ID>  (436) 
69472

>  <smiles>  (436) 
N[C@H](Cc1cnc2ccccc2c1)C(=O)OCc1cnc2n1CCC2

>  <inchikey>  (436) 
WTJATVDDLYNSQF-MRXNPFEDSA-N

>  <distance_score>  (436) 
0.721964

>  <ref_mols>  (436) 
Z1688a,Z1716a

>  <ref_pdb>  (436) 
Z1688a

>  <HIPPO Compound ID>  (436) 
138882

>  <name>  (436) 
P69472

>  <inspiration_score>  (436) 
None

$$$$
P69480
     RDKit          3D

 26 29  0  0  0  0  0  0  0  0999 V2000
   -3.5949    8.0099  -14.0297 N   0  0  0  0  0  0  0  0  0  0  0  0
   -3.9905    7.0038  -13.0114 C   0  0  2  0  0  0  0  0  0  0  0  0
   -3.9695    5.5579  -13.5471 C   0  0  0  0  0  0  0  0  0  0  0  0
   -4.8318    5.3287  -14.7607 C   0  0  0  0  0  0  0  0  0  0  0  0
   -4.3059    5.5161  -16.0308 C   0  0  0  0  0  0  0  0  0  0  0  0
   -5.0071    5.3771  -17.1732 N   0  0  0  0  0  0  0  0  0  0  0  0
   -6.2998    5.0209  -17.0843 C   0  0  0  0  0  0  0  0  0  0  0  0
   -7.0413    4.8592  -18.2455 C   0  0  0  0  0  0  0  0  0  0  0  0
   -8.3894    4.4961  -18.2118 C   0  0  0  0  0  0  0  0  0  0  0  0
   -9.0179    4.2909  -16.9903 C   0  0  0  0  0  0  0  0  0  0  0  0
   -8.2964    4.4432  -15.8069 C   0  0  0  0  0  0  0  0  0  0  0  0
   -6.9385    4.8068  -15.8444 C   0  0  0  0  0  0  0  0  0  0  0  0
   -6.1763    4.9627  -14.6753 C   0  0  0  0  0  0  0  0  0  0  0  0
   -5.3637    7.3383  -12.4164 C   0  0  0  0  0  0  0  0  0  0  0  0
   -6.0633    8.2873  -12.7443 O   0  0  0  0  0  0  0  0  0  0  0  0
   -5.6514    6.4304  -11.4515 O   0  0  0  0  0  0  0  0  0  0  0  0
   -6.9006    6.5529  -10.7673 C   0  0  1  0  0  0  0  0  0  0  0  0
   -7.4512    5.1228  -10.6523 C   0  0  0  0  0  0  0  0  0  0  0  0
   -8.3733    4.9665   -9.4509 C   0  0  0  0  0  0  0  0  0  0  0  0
   -7.6340    5.2857   -8.1544 C   0  0  0  0  0  0  0  0  0  0  0  0
   -6.9319    6.5507   -8.2539 N   0  0  0  0  0  0  0  0  0  0  0  0
   -6.5827    7.1485   -9.4431 C   0  0  0  0  0  0  0  0  0  0  0  0
   -5.9664    8.3218   -9.0649 C   0  0  0  0  0  0  0  0  0  0  0  0
   -5.8913    8.4208   -7.6989 N   0  0  0  0  0  0  0  0  0  0  0  0
   -6.4832    7.3412   -7.2336 C   0  0  0  0  0  0  0  0  0  0  0  0
   -6.6469    6.9794   -5.3654 Br  0  0  0  0  0  0  0  0  0  0  0  0
  2  1  1  6
  2  3  1  0
  3  4  1  0
  4  5  2  0
  5  6  1  0
  6  7  2  0
  7  8  1  0
  8  9  2  0
  9 10  1  0
 10 11  2  0
 11 12  1  0
 12 13  2  0
  2 14  1  0
 14 15  2  0
 14 16  1  0
 17 16  1  6
 17 18  1  0
 18 19  1  0
 19 20  1  0
 20 21  1  0
 21 22  1  0
 22 23  2  0
 23 24  1  0
 24 25  2  0
 25 26  1  0
 13  4  1  0
 22 17  1  0
 12  7  1  0
 25 21  1  0
M  END
>  <energy_score>  (437) 
-36.786386

>  <alias>  (437) 
None

>  <HIPPO Pose ID>  (437) 
69480

>  <smiles>  (437) 
N[C@H](Cc1cnc2ccccc2c1)C(=O)O[C@H]1CCCn2c1cnc2Br

>  <inchikey>  (437) 
XTJAQDUBTMNKEK-PBHICJAKSA-N

>  <distance_score>  (437) 
0.861776

>  <ref_mols>  (437) 
Z1688a,Z1716a

>  <ref_pdb>  (437) 
Z1688a

>  <HIPPO Compound ID>  (437) 
138886

>  <name>  (437) 
P69480

>  <inspiration_score>  (437) 
None

$$$$
P69483
     RDKit          3D

 26 28  0  0  0  0  0  0  0  0999 V2000
   -2.7833    6.7269  -11.7907 N   0  0  0  0  0  0  0  0  0  0  0  0
   -3.5125    6.7286  -13.0871 C   0  0  1  0  0  0  0  0  0  0  0  0
   -4.1473    5.3608  -13.3887 C   0  0  0  0  0  0  0  0  0  0  0  0
   -4.8845    5.2552  -14.6964 C   0  0  0  0  0  0  0  0  0  0  0  0
   -4.3089    5.5785  -15.9147 C   0  0  0  0  0  0  0  0  0  0  0  0
   -4.9389    5.4854  -17.1078 N   0  0  0  0  0  0  0  0  0  0  0  0
   -6.2232    5.0717  -17.1239 C   0  0  0  0  0  0  0  0  0  0  0  0
   -6.9170    4.9694  -18.3229 C   0  0  0  0  0  0  0  0  0  0  0  0
   -8.2573    4.5668  -18.3706 C   0  0  0  0  0  0  0  0  0  0  0  0
   -8.9344    4.2658  -17.1971 C   0  0  0  0  0  0  0  0  0  0  0  0
   -8.2577    4.3401  -15.9846 C   0  0  0  0  0  0  0  0  0  0  0  0
   -6.9063    4.7288  -15.9453 C   0  0  0  0  0  0  0  0  0  0  0  0
   -6.1944    4.7823  -14.7418 C   0  0  0  0  0  0  0  0  0  0  0  0
   -4.4610    7.9334  -13.1970 C   0  0  0  0  0  0  0  0  0  0  0  0
   -4.3373    8.7194  -14.1393 O   0  0  0  0  0  0  0  0  0  0  0  0
   -5.3732    8.1998  -12.2392 O   0  0  0  0  0  0  0  0  0  0  0  0
   -5.7995    7.3094  -11.1944 C   0  0  0  0  0  0  0  0  0  0  0  0
   -6.9904    6.5721  -11.6903 C   0  0  0  0  0  0  0  0  0  0  0  0
   -7.8719    6.8651  -12.7129 C   0  0  0  0  0  0  0  0  0  0  0  0
   -8.7843    5.8603  -12.8814 N   0  0  0  0  0  0  0  0  0  0  0  0
   -8.4956    4.9703  -11.9609 C   0  0  0  0  0  0  0  0  0  0  0  0
   -7.4523    5.3792  -11.1815 N   0  0  0  0  0  0  0  0  0  0  0  0
   -6.9432    4.6294  -10.0553 C   0  0  0  0  0  0  0  0  0  0  0  0
   -7.5170    5.1180   -8.7442 C   0  0  0  0  0  0  0  0  0  0  0  0
   -7.0049    4.3620   -7.7335 F   0  0  0  0  0  0  0  0  0  0  0  0
   -7.0922    6.3851   -8.4943 F   0  0  0  0  0  0  0  0  0  0  0  0
  2  1  1  1
  2  3  1  0
  3  4  1  0
  4  5  2  0
  5  6  1  0
  6  7  2  0
  7  8  1  0
  8  9  2  0
  9 10  1  0
 10 11  2  0
 11 12  1  0
 12 13  2  0
  2 14  1  0
 14 15  2  0
 14 16  1  0
 16 17  1  0
 17 18  1  0
 18 19  2  0
 19 20  1  0
 20 21  2  0
 21 22  1  0
 22 23  1  0
 23 24  1  0
 24 25  1  0
 24 26  1  0
 13  4  1  0
 22 18  1  0
 12  7  1  0
M  END
>  <energy_score>  (438) 
-17.183078

>  <alias>  (438) 
None

>  <HIPPO Pose ID>  (438) 
69483

>  <smiles>  (438) 
N[C@@H](Cc1cnc2ccccc2c1)C(=O)OCc1cncn1CC(F)F

>  <inchikey>  (438) 
OCAYPIWLJOOCLH-HNNXBMFYSA-N

>  <distance_score>  (438) 
0.781374

>  <ref_mols>  (438) 
Z1688a,Z1716a

>  <ref_pdb>  (438) 
Z1688a

>  <HIPPO Compound ID>  (438) 
138887

>  <name>  (438) 
P69483

>  <inspiration_score>  (438) 
None

$$$$
P69484
     RDKit          3D

 26 28  0  0  0  0  0  0  0  0999 V2000
   -5.6769    4.2882   -9.7801 C   0  0  0  0  0  0  0  0  0  0  0  0
   -7.1944    4.4396   -9.8536 C   0  0  0  0  0  0  0  0  0  0  0  0
   -7.7809    4.9879   -8.5541 C   0  0  0  0  0  0  0  0  0  0  0  0
   -7.6482    5.1904  -11.0220 N   0  0  0  0  0  0  0  0  0  0  0  0
   -8.4946    4.6581  -11.9624 C   0  0  0  0  0  0  0  0  0  0  0  0
   -8.8047    5.5276  -12.8972 N   0  0  0  0  0  0  0  0  0  0  0  0
   -8.1220    6.6613  -12.5668 C   0  0  0  0  0  0  0  0  0  0  0  0
   -7.3646    6.4763  -11.4264 C   0  0  0  0  0  0  0  0  0  0  0  0
   -6.3954    7.4161  -10.8152 C   0  0  0  0  0  0  0  0  0  0  0  0
   -5.1134    7.0447  -11.3331 O   0  0  0  0  0  0  0  0  0  0  0  0
   -4.7936    7.5695  -12.5472 C   0  0  0  0  0  0  0  0  0  0  0  0
   -5.3898    8.4700  -13.1207 O   0  0  0  0  0  0  0  0  0  0  0  0
   -3.5956    6.8540  -13.1091 C   0  0  0  0  0  0  0  0  0  0  0  0
   -3.9388    5.4215  -13.5216 C   0  0  0  0  0  0  0  0  0  0  0  0
   -4.7192    5.3032  -14.8065 C   0  0  0  0  0  0  0  0  0  0  0  0
   -6.0600    4.9079  -14.7916 C   0  0  0  0  0  0  0  0  0  0  0  0
   -6.7974    4.7897  -15.9817 C   0  0  0  0  0  0  0  0  0  0  0  0
   -8.1470    4.3883  -15.9980 C   0  0  0  0  0  0  0  0  0  0  0  0
   -8.8122    4.2492  -17.2086 C   0  0  0  0  0  0  0  0  0  0  0  0
  -10.0857    3.8415  -17.2339 F   0  0  0  0  0  0  0  0  0  0  0  0
   -8.1665    4.5174  -18.4015 C   0  0  0  0  0  0  0  0  0  0  0  0
   -6.8314    4.9261  -18.3810 C   0  0  0  0  0  0  0  0  0  0  0  0
   -6.1288    5.0635  -17.1912 C   0  0  0  0  0  0  0  0  0  0  0  0
   -4.8399    5.4324  -17.2292 N   0  0  0  0  0  0  0  0  0  0  0  0
   -4.1720    5.5348  -16.0616 C   0  0  0  0  0  0  0  0  0  0  0  0
   -2.5126    5.9360  -16.2955 Cl  0  0  0  0  0  0  0  0  0  0  0  0
  1  2  1  0
  2  3  1  0
  2  4  1  0
  4  5  1  0
  5  6  2  0
  6  7  1  0
  7  8  2  0
  8  9  1  0
  9 10  1  0
 10 11  1  0
 11 12  2  0
 11 13  1  0
 13 14  1  0
 14 15  1  0
 15 16  2  0
 16 17  1  0
 17 18  2  0
 18 19  1  0
 19 20  1  0
 19 21  2  0
 21 22  1  0
 22 23  2  0
 23 24  1  0
 24 25  2  0
 25 26  1  0
  8  4  1  0
 25 15  1  0
 23 17  1  0
M  END
>  <energy_score>  (439) 
-31.993617

>  <alias>  (439) 
None

>  <HIPPO Pose ID>  (439) 
69484

>  <smiles>  (439) 
CC(C)n1cncc1COC(=O)CCc1cc2cc(F)ccc2nc1Cl

>  <inchikey>  (439) 
UVPNQAFACOMJNJ-UHFFFAOYSA-N

>  <distance_score>  (439) 
0.714606

>  <ref_mols>  (439) 
Z1688a,Z1716a

>  <ref_pdb>  (439) 
Z1688a

>  <HIPPO Compound ID>  (439) 
138888

>  <name>  (439) 
P69484

>  <inspiration_score>  (439) 
None

$$$$
P69485
     RDKit          3D

 26 29  0  0  0  0  0  0  0  0999 V2000
   -5.4167    8.4470  -13.1522 O   0  0  0  0  0  0  0  0  0  0  0  0
   -4.8237    7.5840  -12.5204 C   0  0  0  0  0  0  0  0  0  0  0  0
   -3.6253    6.8327  -13.0326 C   0  0  0  0  0  0  0  0  0  0  0  0
   -3.9909    5.4051  -13.4435 C   0  0  0  0  0  0  0  0  0  0  0  0
   -4.7467    5.2926  -14.7443 C   0  0  0  0  0  0  0  0  0  0  0  0
   -6.0882    4.9018  -14.7524 C   0  0  0  0  0  0  0  0  0  0  0  0
   -6.8092    4.7881  -15.9519 C   0  0  0  0  0  0  0  0  0  0  0  0
   -8.1597    4.3911  -15.9833 C   0  0  0  0  0  0  0  0  0  0  0  0
   -8.8099    4.2544  -17.2021 C   0  0  0  0  0  0  0  0  0  0  0  0
  -10.0841    3.8502  -17.2440 F   0  0  0  0  0  0  0  0  0  0  0  0
   -8.1486    4.5229  -18.3868 C   0  0  0  0  0  0  0  0  0  0  0  0
   -6.8126    4.9284  -18.3501 C   0  0  0  0  0  0  0  0  0  0  0  0
   -6.1233    5.0615  -17.1515 C   0  0  0  0  0  0  0  0  0  0  0  0
   -4.8316    5.4247  -17.1696 N   0  0  0  0  0  0  0  0  0  0  0  0
   -4.1803    5.5221  -15.9913 C   0  0  0  0  0  0  0  0  0  0  0  0
   -2.5142    5.9093  -16.1999 Cl  0  0  0  0  0  0  0  0  0  0  0  0
   -5.1543    7.1343  -11.2776 O   0  0  0  0  0  0  0  0  0  0  0  0
   -6.4525    7.5260  -10.8183 C   0  0  0  0  0  0  0  0  0  0  0  0
   -7.3886    6.5390  -11.3904 C   0  0  0  0  0  0  0  0  0  0  0  0
   -8.2150    6.5959  -12.5020 C   0  0  0  0  0  0  0  0  0  0  0  0
   -8.7858    5.3668  -12.7741 N   0  0  0  0  0  0  0  0  0  0  0  0
   -8.3343    4.5884  -11.8223 C   0  0  0  0  0  0  0  0  0  0  0  0
   -7.5430    5.2705  -10.9510 N   0  0  0  0  0  0  0  0  0  0  0  0
   -6.9444    4.4173   -9.9437 C   0  0  0  0  0  0  0  0  0  0  0  0
   -7.1537    3.0177  -10.5432 C   0  0  0  0  0  0  0  0  0  0  0  0
   -8.3685    3.1465  -11.4947 C   0  0  0  0  0  0  0  0  0  0  0  0
  1  2  2  0
  2  3  1  0
  3  4  1  0
  4  5  1  0
  5  6  2  0
  6  7  1  0
  7  8  2  0
  8  9  1  0
  9 10  1  0
  9 11  2  0
 11 12  1  0
 12 13  2  0
 13 14  1  0
 14 15  2  0
 15 16  1  0
  2 17  1  0
 17 18  1  0
 18 19  1  0
 19 20  2  0
 20 21  1  0
 21 22  2  0
 22 23  1  0
 23 24  1  0
 24 25  1  0
 25 26  1  0
 15  5  1  0
 23 19  1  0
 13  7  1  0
 26 22  1  0
M  END
>  <energy_score>  (440) 
-38.781411

>  <alias>  (440) 
None

>  <HIPPO Pose ID>  (440) 
69485

>  <smiles>  (440) 
O=C(CCc1cc2cc(F)ccc2nc1Cl)OCc1cnc2n1CCC2

>  <inchikey>  (440) 
BUHVNORFFUNSPP-UHFFFAOYSA-N

>  <distance_score>  (440) 
0.705796

>  <ref_mols>  (440) 
Z1688a,Z1716a

>  <ref_pdb>  (440) 
Z1688a

>  <HIPPO Compound ID>  (440) 
138889

>  <name>  (440) 
P69485

>  <inspiration_score>  (440) 
None

$$$$
P69486
     RDKit          3D

 26 29  0  0  0  0  0  0  0  0999 V2000
   -5.3323    8.4291  -12.9190 O   0  0  0  0  0  0  0  0  0  0  0  0
   -4.7715    7.4646  -12.4182 C   0  0  0  0  0  0  0  0  0  0  0  0
   -3.5853    6.7663  -13.0254 C   0  0  0  0  0  0  0  0  0  0  0  0
   -3.9354    5.3548  -13.5004 C   0  0  0  0  0  0  0  0  0  0  0  0
   -4.7176    5.2848  -14.7878 C   0  0  0  0  0  0  0  0  0  0  0  0
   -6.0541    4.8749  -14.7873 C   0  0  0  0  0  0  0  0  0  0  0  0
   -6.7890    4.7812  -15.9817 C   0  0  0  0  0  0  0  0  0  0  0  0
   -8.1337    4.3632  -16.0121 C   0  0  0  0  0  0  0  0  0  0  0  0
   -8.7951    4.2444  -17.2264 C   0  0  0  0  0  0  0  0  0  0  0  0
  -10.0649    3.8256  -17.2640 F   0  0  0  0  0  0  0  0  0  0  0  0
   -8.1483    4.5446  -18.4106 C   0  0  0  0  0  0  0  0  0  0  0  0
   -6.8188    4.9709  -18.3767 C   0  0  0  0  0  0  0  0  0  0  0  0
   -6.1215    5.0937  -17.1819 C   0  0  0  0  0  0  0  0  0  0  0  0
   -4.8384    5.4850  -17.2062 N   0  0  0  0  0  0  0  0  0  0  0  0
   -4.1732    5.5617  -16.0350 C   0  0  0  0  0  0  0  0  0  0  0  0
   -2.5183    5.9895  -16.2543 Cl  0  0  0  0  0  0  0  0  0  0  0  0
   -5.1239    6.8522  -11.2545 O   0  0  0  0  0  0  0  0  0  0  0  0
   -6.4037    7.2208  -10.7258 C   0  0  0  0  0  0  0  0  0  0  0  0
   -7.3956    6.4124  -11.4621 C   0  0  0  0  0  0  0  0  0  0  0  0
   -8.1288    6.7101  -12.5944 C   0  0  0  0  0  0  0  0  0  0  0  0
   -8.8572    5.6264  -13.0135 N   0  0  0  0  0  0  0  0  0  0  0  0
   -8.5858    4.6752  -12.1430 C   0  0  0  0  0  0  0  0  0  0  0  0
   -7.7309    5.1171  -11.1825 N   0  0  0  0  0  0  0  0  0  0  0  0
   -7.2750    4.3033  -10.0431 C   0  0  0  0  0  0  0  0  0  0  0  0
   -5.8304    3.9297   -9.8197 C   0  0  0  0  0  0  0  0  0  0  0  0
   -6.8146    2.8742  -10.2217 C   0  0  0  0  0  0  0  0  0  0  0  0
  1  2  2  0
  2  3  1  0
  3  4  1  0
  4  5  1  0
  5  6  2  0
  6  7  1  0
  7  8  2  0
  8  9  1  0
  9 10  1  0
  9 11  2  0
 11 12  1  0
 12 13  2  0
 13 14  1  0
 14 15  2  0
 15 16  1  0
  2 17  1  0
 17 18  1  0
 18 19  1  0
 19 20  2  0
 20 21  1  0
 21 22  2  0
 22 23  1  0
 23 24  1  0
 24 25  1  0
 25 26  1  0
 15  5  1  0
 23 19  1  0
 26 24  1  0
 13  7  1  0
M  END
>  <energy_score>  (441) 
-39.75685

>  <alias>  (441) 
None

>  <HIPPO Pose ID>  (441) 
69486

>  <smiles>  (441) 
O=C(CCc1cc2cc(F)ccc2nc1Cl)OCc1cncn1C1CC1

>  <inchikey>  (441) 
UNJZMNSKLZNSQT-UHFFFAOYSA-N

>  <distance_score>  (441) 
0.837282

>  <ref_mols>  (441) 
Z1688a,Z1716a

>  <ref_pdb>  (441) 
Z1688a

>  <HIPPO Compound ID>  (441) 
138890

>  <name>  (441) 
P69486

>  <inspiration_score>  (441) 
None

$$$$
P69487
     RDKit          3D

 26 29  0  0  0  0  0  0  0  0999 V2000
   -2.7364    7.6492  -14.1433 N   0  0  0  0  0  0  0  0  0  0  0  0
   -3.5439    6.9553  -13.1072 C   0  0  2  0  0  0  0  0  0  0  0  0
   -3.9278    5.5042  -13.4802 C   0  0  0  0  0  0  0  0  0  0  0  0
   -4.7317    5.3171  -14.7427 C   0  0  0  0  0  0  0  0  0  0  0  0
   -4.1841    5.5315  -15.9976 C   0  0  0  0  0  0  0  0  0  0  0  0
   -4.8612    5.4178  -17.1624 N   0  0  0  0  0  0  0  0  0  0  0  0
   -6.1559    5.0488  -17.1143 C   0  0  0  0  0  0  0  0  0  0  0  0
   -6.8864    4.9246  -18.2895 C   0  0  0  0  0  0  0  0  0  0  0  0
   -8.2333    4.5468  -18.2874 C   0  0  0  0  0  0  0  0  0  0  0  0
   -8.8752    4.2842  -17.0855 C   0  0  0  0  0  0  0  0  0  0  0  0
   -8.1624    4.3894  -15.8940 C   0  0  0  0  0  0  0  0  0  0  0  0
   -6.8072    4.7734  -15.8985 C   0  0  0  0  0  0  0  0  0  0  0  0
   -6.0583    4.8902  -14.7156 C   0  0  0  0  0  0  0  0  0  0  0  0
   -4.7892    7.7834  -12.7643 C   0  0  0  0  0  0  0  0  0  0  0  0
   -5.2904    8.6231  -13.5027 O   0  0  0  0  0  0  0  0  0  0  0  0
   -5.2397    7.4507  -11.5221 O   0  0  0  0  0  0  0  0  0  0  0  0
   -6.5604    7.9052  -11.2103 C   0  0  0  0  0  0  0  0  0  0  0  0
   -7.4401    6.7803  -11.5879 C   0  0  0  0  0  0  0  0  0  0  0  0
   -8.1891    6.5679  -12.7238 C   0  0  0  0  0  0  0  0  0  0  0  0
   -8.7236    5.3048  -12.7312 N   0  0  0  0  0  0  0  0  0  0  0  0
   -8.3206    4.7389  -11.6094 C   0  0  0  0  0  0  0  0  0  0  0  0
   -7.6063    5.6358  -10.8569 N   0  0  0  0  0  0  0  0  0  0  0  0
   -7.2007    5.3696   -9.4924 C   0  0  0  0  0  0  0  0  0  0  0  0
   -7.3624    3.8971   -9.1357 C   0  0  0  0  0  0  0  0  0  0  0  0
   -8.5767    3.3846   -9.6801 O   0  0  0  0  0  0  0  0  0  0  0  0
   -8.5191    3.3416  -11.1151 C   0  0  0  0  0  0  0  0  0  0  0  0
  2  1  1  6
  2  3  1  0
  3  4  1  0
  4  5  2  0
  5  6  1  0
  6  7  2  0
  7  8  1  0
  8  9  2  0
  9 10  1  0
 10 11  2  0
 11 12  1  0
 12 13  2  0
  2 14  1  0
 14 15  2  0
 14 16  1  0
 16 17  1  0
 17 18  1  0
 18 19  2  0
 19 20  1  0
 20 21  2  0
 21 22  1  0
 22 23  1  0
 23 24  1  0
 24 25  1  0
 25 26  1  0
 13  4  1  0
 22 18  1  0
 12  7  1  0
 26 21  1  0
M  END
>  <energy_score>  (442) 
-45.530789

>  <alias>  (442) 
None

>  <HIPPO Pose ID>  (442) 
69487

>  <smiles>  (442) 
N[C@H](Cc1cnc2ccccc2c1)C(=O)OCc1cnc2n1CCOC2

>  <inchikey>  (442) 
BLTGQRUBFNHJLO-MRXNPFEDSA-N

>  <distance_score>  (442) 
0.703169

>  <ref_mols>  (442) 
Z1688a,Z1716a

>  <ref_pdb>  (442) 
Z1688a

>  <HIPPO Compound ID>  (442) 
138891

>  <name>  (442) 
P69487

>  <inspiration_score>  (442) 
None

$$$$
P69489
     RDKit          3D

 27 29  0  0  0  0  0  0  0  0999 V2000
   -5.0088    8.3825  -13.5987 O   0  0  0  0  0  0  0  0  0  0  0  0
   -4.7290    7.5634  -12.7267 C   0  0  0  0  0  0  0  0  0  0  0  0
   -3.6512    6.5263  -12.9267 C   0  0  0  0  0  0  0  0  0  0  0  0
   -4.1047    5.1738  -13.4645 C   0  0  0  0  0  0  0  0  0  0  0  0
   -4.9132    5.1794  -14.7311 C   0  0  0  0  0  0  0  0  0  0  0  0
   -6.1900    4.7668  -14.7644 C   0  0  0  0  0  0  0  0  0  0  0  0
   -6.9625    4.7331  -15.9981 C   0  0  0  0  0  0  0  0  0  0  0  0
   -8.3148    4.3805  -16.0063 C   0  0  0  0  0  0  0  0  0  0  0  0
   -9.0035    4.2923  -17.2152 C   0  0  0  0  0  0  0  0  0  0  0  0
   -8.3388    4.5519  -18.4126 C   0  0  0  0  0  0  0  0  0  0  0  0
   -6.9920    4.9252  -18.4063 C   0  0  0  0  0  0  0  0  0  0  0  0
   -6.3112    5.0242  -17.1967 C   0  0  0  0  0  0  0  0  0  0  0  0
   -4.9653    5.4147  -17.1658 N   0  0  0  0  0  0  0  0  0  0  0  0
   -4.2308    5.5292  -16.0136 C   0  0  0  0  0  0  0  0  0  0  0  0
   -3.0502    5.8686  -16.0346 O   0  0  0  0  0  0  0  0  0  0  0  0
   -5.3227    7.6376  -11.5089 O   0  0  0  0  0  0  0  0  0  0  0  0
   -5.6755    6.4690  -10.7445 C   0  0  0  0  0  0  0  0  0  0  0  0
   -6.9061    5.8870  -11.3407 C   0  0  0  0  0  0  0  0  0  0  0  0
   -7.7844    6.4237  -12.2677 C   0  0  0  0  0  0  0  0  0  0  0  0
   -8.7249    5.5107  -12.6469 N   0  0  0  0  0  0  0  0  0  0  0  0
   -8.4786    4.4425  -11.9242 C   0  0  0  0  0  0  0  0  0  0  0  0
   -7.4072    4.6251  -11.0912 N   0  0  0  0  0  0  0  0  0  0  0  0
   -6.9699    3.6190  -10.1349 C   0  0  0  0  0  0  0  0  0  0  0  0
   -5.8554    2.7385  -10.6583 C   0  0  0  0  0  0  0  0  0  0  0  0
   -4.6880    3.4344  -10.6861 F   0  0  0  0  0  0  0  0  0  0  0  0
   -6.0892    2.2971  -11.9096 F   0  0  0  0  0  0  0  0  0  0  0  0
   -5.6414    1.6707   -9.8615 F   0  0  0  0  0  0  0  0  0  0  0  0
  1  2  2  0
  2  3  1  0
  3  4  1  0
  4  5  1  0
  5  6  2  0
  6  7  1  0
  7  8  2  0
  8  9  1  0
  9 10  2  0
 10 11  1  0
 11 12  2  0
 12 13  1  0
 13 14  1  0
 14 15  2  0
  2 16  1  0
 16 17  1  0
 17 18  1  0
 18 19  2  0
 19 20  1  0
 20 21  2  0
 21 22  1  0
 22 23  1  0
 23 24  1  0
 24 25  1  0
 24 26  1  0
 24 27  1  0
 14  5  1  0
 22 18  1  0
 12  7  1  0
M  END
>  <energy_score>  (443) 
-26.11377

>  <alias>  (443) 
None

>  <HIPPO Pose ID>  (443) 
69489

>  <smiles>  (443) 
O=C(CCc1cc2ccccc2[nH]c1=O)OCc1cncn1CC(F)(F)F

>  <inchikey>  (443) 
UZVXJNOZEGKIIJ-UHFFFAOYSA-N

>  <distance_score>  (443) 
0.776422

>  <ref_mols>  (443) 
Z1688a,Z1716a

>  <ref_pdb>  (443) 
Z1688a

>  <HIPPO Compound ID>  (443) 
138892

>  <name>  (443) 
P69489

>  <inspiration_score>  (443) 
None

$$$$
P69490
     RDKit          3D

 27 30  0  0  0  0  0  0  0  0999 V2000
   -5.4921    8.4539  -13.5996 O   0  0  0  0  0  0  0  0  0  0  0  0
   -4.9237    7.7441  -12.7815 C   0  0  0  0  0  0  0  0  0  0  0  0
   -3.6874    6.9373  -13.0760 C   0  0  0  0  0  0  0  0  0  0  0  0
   -4.0317    5.4879  -13.4312 C   0  0  0  0  0  0  0  0  0  0  0  0
   -4.7574    5.3102  -14.7421 C   0  0  0  0  0  0  0  0  0  0  0  0
   -6.0849    4.8738  -14.7584 C   0  0  0  0  0  0  0  0  0  0  0  0
   -6.8021    4.7608  -15.9603 C   0  0  0  0  0  0  0  0  0  0  0  0
   -8.1502    4.3559  -15.9970 C   0  0  0  0  0  0  0  0  0  0  0  0
   -8.8012    4.2350  -17.2167 C   0  0  0  0  0  0  0  0  0  0  0  0
  -10.0757    3.8322  -17.2625 F   0  0  0  0  0  0  0  0  0  0  0  0
   -8.1405    4.5190  -18.3980 C   0  0  0  0  0  0  0  0  0  0  0  0
   -6.8054    4.9276  -18.3564 C   0  0  0  0  0  0  0  0  0  0  0  0
   -6.1175    5.0526  -17.1560 C   0  0  0  0  0  0  0  0  0  0  0  0
   -4.8292    5.4283  -17.1683 N   0  0  0  0  0  0  0  0  0  0  0  0
   -4.1866    5.5416  -15.9865 C   0  0  0  0  0  0  0  0  0  0  0  0
   -2.5255    5.9521  -16.1873 Cl  0  0  0  0  0  0  0  0  0  0  0  0
   -5.3313    7.5219  -11.5008 O   0  0  0  0  0  0  0  0  0  0  0  0
   -6.6764    7.9261  -11.2200 C   0  0  0  0  0  0  0  0  0  0  0  0
   -7.5121    6.7692  -11.6073 C   0  0  0  0  0  0  0  0  0  0  0  0
   -8.2269    6.5265  -12.7594 C   0  0  0  0  0  0  0  0  0  0  0  0
   -8.7175    5.2456  -12.7748 N   0  0  0  0  0  0  0  0  0  0  0  0
   -8.3340    4.7033  -11.6340 C   0  0  0  0  0  0  0  0  0  0  0  0
   -7.6609    5.6251  -10.8725 N   0  0  0  0  0  0  0  0  0  0  0  0
   -7.2758    5.3792   -9.4982 C   0  0  0  0  0  0  0  0  0  0  0  0
   -7.3914    3.9025   -9.1423 C   0  0  0  0  0  0  0  0  0  0  0  0
   -8.5855    3.3539   -9.6961 O   0  0  0  0  0  0  0  0  0  0  0  0
   -8.5168    3.3065  -11.1302 C   0  0  0  0  0  0  0  0  0  0  0  0
  1  2  2  0
  2  3  1  0
  3  4  1  0
  4  5  1  0
  5  6  2  0
  6  7  1  0
  7  8  2  0
  8  9  1  0
  9 10  1  0
  9 11  2  0
 11 12  1  0
 12 13  2  0
 13 14  1  0
 14 15  2  0
 15 16  1  0
  2 17  1  0
 17 18  1  0
 18 19  1  0
 19 20  2  0
 20 21  1  0
 21 22  2  0
 22 23  1  0
 23 24  1  0
 24 25  1  0
 25 26  1  0
 26 27  1  0
 15  5  1  0
 23 19  1  0
 13  7  1  0
 27 22  1  0
M  END
>  <energy_score>  (444) 
-37.408443

>  <alias>  (444) 
None

>  <HIPPO Pose ID>  (444) 
69490

>  <smiles>  (444) 
O=C(CCc1cc2cc(F)ccc2nc1Cl)OCc1cnc2n1CCOC2

>  <inchikey>  (444) 
NGJPLXSVBPCGSF-UHFFFAOYSA-N

>  <distance_score>  (444) 
0.727996

>  <ref_mols>  (444) 
Z1688a,Z1716a

>  <ref_pdb>  (444) 
Z1688a

>  <HIPPO Compound ID>  (444) 
138893

>  <name>  (444) 
P69490

>  <inspiration_score>  (444) 
None

$$$$
P69492
     RDKit          3D

 27 30  0  0  0  0  0  0  0  0999 V2000
   -2.9474    7.7744  -14.0789 N   0  0  0  0  0  0  0  0  0  0  0  0
   -3.4639    6.8757  -13.0159 C   0  0  2  0  0  0  0  0  0  0  0  0
   -3.8324    5.4646  -13.5215 C   0  0  0  0  0  0  0  0  0  0  0  0
   -4.6820    5.3695  -14.7642 C   0  0  0  0  0  0  0  0  0  0  0  0
   -4.1339    5.5257  -16.0275 C   0  0  0  0  0  0  0  0  0  0  0  0
   -4.8232    5.4009  -17.1843 N   0  0  0  0  0  0  0  0  0  0  0  0
   -6.1295    5.0771  -17.1186 C   0  0  0  0  0  0  0  0  0  0  0  0
   -6.8610    4.8980  -18.2863 C   0  0  0  0  0  0  0  0  0  0  0  0
   -8.2149    4.5463  -18.2652 C   0  0  0  0  0  0  0  0  0  0  0  0
   -8.8664    4.3782  -17.0510 C   0  0  0  0  0  0  0  0  0  0  0  0
   -8.1595    4.5626  -15.8653 C   0  0  0  0  0  0  0  0  0  0  0  0
   -6.7926    4.9026  -15.8906 C   0  0  0  0  0  0  0  0  0  0  0  0
   -6.0385    5.0595  -14.7165 C   0  0  0  0  0  0  0  0  0  0  0  0
   -4.6358    7.5318  -12.2734 C   0  0  0  0  0  0  0  0  0  0  0  0
   -5.2156    8.5438  -12.6468 O   0  0  0  0  0  0  0  0  0  0  0  0
   -4.9032    6.8439  -11.1259 O   0  0  0  0  0  0  0  0  0  0  0  0
   -6.1312    7.1832  -10.4675 C   0  0  0  0  0  0  0  0  0  0  0  0
   -7.1567    6.3123  -11.0804 C   0  0  0  0  0  0  0  0  0  0  0  0
   -8.1812    6.5839  -11.9606 C   0  0  0  0  0  0  0  0  0  0  0  0
   -8.7685    8.2910  -12.4889 Br  0  0  0  0  0  0  0  0  0  0  0  0
   -8.7277    5.4316  -12.4593 N   0  0  0  0  0  0  0  0  0  0  0  0
   -8.1003    4.4499  -11.8400 C   0  0  0  0  0  0  0  0  0  0  0  0
   -7.2085    4.9495  -10.9238 N   0  0  0  0  0  0  0  0  0  0  0  0
   -6.3545    4.0948  -10.1139 C   0  0  0  0  0  0  0  0  0  0  0  0
   -6.7713    2.6333  -10.2398 C   0  0  0  0  0  0  0  0  0  0  0  0
   -6.9945    2.3448  -11.6241 O   0  0  0  0  0  0  0  0  0  0  0  0
   -8.2019    2.9800  -12.0816 C   0  0  0  0  0  0  0  0  0  0  0  0
  2  1  1  6
  2  3  1  0
  3  4  1  0
  4  5  2  0
  5  6  1  0
  6  7  2  0
  7  8  1  0
  8  9  2  0
  9 10  1  0
 10 11  2  0
 11 12  1  0
 12 13  2  0
  2 14  1  0
 14 15  2  0
 14 16  1  0
 16 17  1  0
 17 18  1  0
 18 19  2  0
 19 20  1  0
 19 21  1  0
 21 22  2  0
 22 23  1  0
 23 24  1  0
 24 25  1  0
 25 26  1  0
 26 27  1  0
 13  4  1  0
 23 18  1  0
 12  7  1  0
 27 22  1  0
M  END
>  <energy_score>  (445) 
-35.524516

>  <alias>  (445) 
None

>  <HIPPO Pose ID>  (445) 
69492

>  <smiles>  (445) 
N[C@H](Cc1cnc2ccccc2c1)C(=O)OCc1c(Br)nc2n1CCOC2

>  <inchikey>  (445) 
GOLRNCKUOAWXBS-CQSZACIVSA-N

>  <distance_score>  (445) 
0.771649

>  <ref_mols>  (445) 
Z1688a,Z1716a

>  <ref_pdb>  (445) 
Z1688a

>  <HIPPO Compound ID>  (445) 
138895

>  <name>  (445) 
P69492

>  <inspiration_score>  (445) 
None

$$$$
P69495
     RDKit          3D

 27 29  0  0  0  0  0  0  0  0999 V2000
   -2.3961    6.6160  -12.0133 N   0  0  0  0  0  0  0  0  0  0  0  0
   -3.4465    6.6899  -13.0624 C   0  0  1  0  0  0  0  0  0  0  0  0
   -3.9512    5.2826  -13.4380 C   0  0  0  0  0  0  0  0  0  0  0  0
   -4.7743    5.2262  -14.6971 C   0  0  0  0  0  0  0  0  0  0  0  0
   -4.2338    5.5400  -15.9346 C   0  0  0  0  0  0  0  0  0  0  0  0
   -4.9075    5.4756  -17.1036 N   0  0  0  0  0  0  0  0  0  0  0  0
   -6.1966    5.0830  -17.0764 C   0  0  0  0  0  0  0  0  0  0  0  0
   -6.9185    4.9821  -18.2588 C   0  0  0  0  0  0  0  0  0  0  0  0
   -8.2605    4.5874  -18.2745 C   0  0  0  0  0  0  0  0  0  0  0  0
   -8.9093    4.2944  -17.0828 C   0  0  0  0  0  0  0  0  0  0  0  0
   -8.2056    4.3754  -15.8843 C   0  0  0  0  0  0  0  0  0  0  0  0
   -6.8514    4.7583  -15.8741 C   0  0  0  0  0  0  0  0  0  0  0  0
   -6.1056    4.8139  -14.6870 C   0  0  0  0  0  0  0  0  0  0  0  0
   -4.6224    7.5419  -12.5691 C   0  0  0  0  0  0  0  0  0  0  0  0
   -5.1624    8.4220  -13.2268 O   0  0  0  0  0  0  0  0  0  0  0  0
   -5.0190    7.1233  -11.3267 O   0  0  0  0  0  0  0  0  0  0  0  0
   -6.2930    7.6152  -10.9044 C   0  0  0  0  0  0  0  0  0  0  0  0
   -7.2805    6.6321  -11.4143 C   0  0  0  0  0  0  0  0  0  0  0  0
   -8.0585    6.6841  -12.5518 C   0  0  0  0  0  0  0  0  0  0  0  0
   -8.7632    5.5245  -12.7140 N   0  0  0  0  0  0  0  0  0  0  0  0
   -8.4356    4.7677  -11.6904 C   0  0  0  0  0  0  0  0  0  0  0  0
   -7.5639    5.4068  -10.8539 N   0  0  0  0  0  0  0  0  0  0  0  0
   -7.0081    4.8332   -9.6433 C   0  0  0  0  0  0  0  0  0  0  0  0
   -7.8055    5.1900   -8.4095 C   0  0  0  0  0  0  0  0  0  0  0  0
   -8.9975    4.5592   -8.3762 F   0  0  0  0  0  0  0  0  0  0  0  0
   -8.0345    6.5197   -8.3266 F   0  0  0  0  0  0  0  0  0  0  0  0
   -7.1307    4.8440   -7.2897 F   0  0  0  0  0  0  0  0  0  0  0  0
  2  1  1  1
  2  3  1  0
  3  4  1  0
  4  5  2  0
  5  6  1  0
  6  7  2  0
  7  8  1  0
  8  9  2  0
  9 10  1  0
 10 11  2  0
 11 12  1  0
 12 13  2  0
  2 14  1  0
 14 15  2  0
 14 16  1  0
 16 17  1  0
 17 18  1  0
 18 19  2  0
 19 20  1  0
 20 21  2  0
 21 22  1  0
 22 23  1  0
 23 24  1  0
 24 25  1  0
 24 26  1  0
 24 27  1  0
 13  4  1  0
 22 18  1  0
 12  7  1  0
M  END
>  <energy_score>  (446) 
-27.510032

>  <alias>  (446) 
None

>  <HIPPO Pose ID>  (446) 
69495

>  <smiles>  (446) 
N[C@@H](Cc1cnc2ccccc2c1)C(=O)OCc1cncn1CC(F)(F)F

>  <inchikey>  (446) 
QHJOWPPAPPQFHS-HNNXBMFYSA-N

>  <distance_score>  (446) 
0.78681

>  <ref_mols>  (446) 
Z1688a,Z1716a

>  <ref_pdb>  (446) 
Z1688a

>  <HIPPO Compound ID>  (446) 
138896

>  <name>  (446) 
P69495

>  <inspiration_score>  (446) 
None

$$$$
P69497
     RDKit          3D

 27 30  0  0  0  0  0  0  0  0999 V2000
   -6.5483    7.8575  -13.0464 O   0  0  0  0  0  0  0  0  0  0  0  0
   -5.5717    7.4087  -12.4659 C   0  0  0  0  0  0  0  0  0  0  0  0
   -4.2535    7.0894  -13.1147 C   0  0  0  0  0  0  0  0  0  0  0  0
   -4.2207    5.6052  -13.4772 C   0  0  0  0  0  0  0  0  0  0  0  0
   -4.9496    5.3333  -14.7675 C   0  0  0  0  0  0  0  0  0  0  0  0
   -6.2975    4.9543  -14.7642 C   0  0  0  0  0  0  0  0  0  0  0  0
   -6.9874    4.7794  -15.9740 C   0  0  0  0  0  0  0  0  0  0  0  0
   -8.3403    4.3992  -16.0171 C   0  0  0  0  0  0  0  0  0  0  0  0
   -8.9672    4.2280  -17.2456 C   0  0  0  0  0  0  0  0  0  0  0  0
  -10.2496    3.8530  -17.2988 F   0  0  0  0  0  0  0  0  0  0  0  0
   -8.2809    4.4410  -18.4276 C   0  0  0  0  0  0  0  0  0  0  0  0
   -6.9399    4.8223  -18.3808 C   0  0  0  0  0  0  0  0  0  0  0  0
   -6.2750    4.9913  -17.1753 C   0  0  0  0  0  0  0  0  0  0  0  0
   -4.9844    5.3485  -17.1929 N   0  0  0  0  0  0  0  0  0  0  0  0
   -4.3566    5.5065  -16.0133 C   0  0  0  0  0  0  0  0  0  0  0  0
   -2.7105    5.9764  -16.2069 Cl  0  0  0  0  0  0  0  0  0  0  0  0
   -5.5206    7.0287  -11.1661 O   0  0  0  0  0  0  0  0  0  0  0  0
   -6.7738    6.9592  -10.4830 C   0  0  1  0  0  0  0  0  0  0  0  0
   -7.4211    5.6021  -10.8114 C   0  0  0  0  0  0  0  0  0  0  0  0
   -8.3956    5.1679   -9.7241 C   0  0  0  0  0  0  0  0  0  0  0  0
   -7.6858    5.0241   -8.3802 C   0  0  0  0  0  0  0  0  0  0  0  0
   -6.8687    6.1862   -8.0915 N   0  0  0  0  0  0  0  0  0  0  0  0
   -6.4290    7.0781   -9.0428 C   0  0  0  0  0  0  0  0  0  0  0  0
   -5.6929    7.9994   -8.3293 C   0  0  0  0  0  0  0  0  0  0  0  0
   -5.6537    7.6751   -6.9972 N   0  0  0  0  0  0  0  0  0  0  0  0
   -6.3692    6.5763   -6.8806 C   0  0  0  0  0  0  0  0  0  0  0  0
   -6.6275    5.6886   -5.2094 Br  0  0  0  0  0  0  0  0  0  0  0  0
  1  2  2  0
  2  3  1  0
  3  4  1  0
  4  5  1  0
  5  6  2  0
  6  7  1  0
  7  8  2  0
  8  9  1  0
  9 10  1  0
  9 11  2  0
 11 12  1  0
 12 13  2  0
 13 14  1  0
 14 15  2  0
 15 16  1  0
  2 17  1  0
 18 17  1  6
 18 19  1  0
 19 20  1  0
 20 21  1  0
 21 22  1  0
 22 23  1  0
 23 24  2  0
 24 25  1  0
 25 26  2  0
 26 27  1  0
 15  5  1  0
 23 18  1  0
 13  7  1  0
 26 22  1  0
M  END
>  <energy_score>  (447) 
-33.874715

>  <alias>  (447) 
None

>  <HIPPO Pose ID>  (447) 
69497

>  <smiles>  (447) 
O=C(CCc1cc2cc(F)ccc2nc1Cl)O[C@H]1CCCn2c1cnc2Br

>  <inchikey>  (447) 
COBOJHGFIIDVQD-INIZCTEOSA-N

>  <distance_score>  (447) 
1.041018

>  <ref_mols>  (447) 
Z1688a,Z1716a

>  <ref_pdb>  (447) 
Z1688a

>  <HIPPO Compound ID>  (447) 
138898

>  <name>  (447) 
P69497

>  <inspiration_score>  (447) 
None

$$$$
P69501
     RDKit          3D

 29 32  0  0  0  0  0  0  0  0999 V2000
   -2.2915    7.0616  -13.8298 N   0  0  0  0  0  0  0  0  0  0  0  0
   -3.5387    6.7563  -13.0628 C   0  0  2  0  0  0  0  0  0  0  0  0
   -4.0885    5.3704  -13.4526 C   0  0  0  0  0  0  0  0  0  0  0  0
   -4.8411    5.2460  -14.7494 C   0  0  0  0  0  0  0  0  0  0  0  0
   -4.2551    5.4640  -15.9844 C   0  0  0  0  0  0  0  0  0  0  0  0
   -4.9009    5.3586  -17.1693 N   0  0  0  0  0  0  0  0  0  0  0  0
   -6.2052    5.0139  -17.1605 C   0  0  0  0  0  0  0  0  0  0  0  0
   -6.9117    4.8961  -18.3504 C   0  0  0  0  0  0  0  0  0  0  0  0
   -8.2663    4.5425  -18.3749 C   0  0  0  0  0  0  0  0  0  0  0  0
   -8.9442    4.3044  -17.1871 C   0  0  0  0  0  0  0  0  0  0  0  0
   -8.2586    4.4052  -15.9814 C   0  0  0  0  0  0  0  0  0  0  0  0
   -6.8947    4.7521  -15.9651 C   0  0  0  0  0  0  0  0  0  0  0  0
   -6.1750    4.8413  -14.7684 C   0  0  0  0  0  0  0  0  0  0  0  0
   -4.5259    7.9278  -13.2270 C   0  0  0  0  0  0  0  0  0  0  0  0
   -4.4224    8.7096  -14.1748 O   0  0  0  0  0  0  0  0  0  0  0  0
   -5.4507    8.1608  -12.2715 O   0  0  0  0  0  0  0  0  0  0  0  0
   -5.8019    7.2689  -11.1988 C   0  0  0  0  0  0  0  0  0  0  0  0
   -6.9749    6.4857  -11.6467 C   0  0  0  0  0  0  0  0  0  0  0  0
   -7.9241    6.7670  -12.6111 C   0  0  0  0  0  0  0  0  0  0  0  0
   -8.7954    5.7261  -12.7650 N   0  0  0  0  0  0  0  0  0  0  0  0
   -8.4382    4.8386  -11.8653 C   0  0  0  0  0  0  0  0  0  0  0  0
   -7.3515    5.2569  -11.1481 N   0  0  0  0  0  0  0  0  0  0  0  0
   -6.6930    4.4496  -10.1336 C   0  0  0  0  0  0  0  0  0  0  0  0
   -6.9568    4.9676   -8.7431 C   0  0  0  0  0  0  0  0  0  0  0  0
   -5.9542    5.6235   -8.0128 C   0  0  0  0  0  0  0  0  0  0  0  0
   -6.2061    6.0810   -6.7179 C   0  0  0  0  0  0  0  0  0  0  0  0
   -7.4578    5.8842   -6.1378 C   0  0  0  0  0  0  0  0  0  0  0  0
   -8.4591    5.2294   -6.8507 C   0  0  0  0  0  0  0  0  0  0  0  0
   -8.2115    4.7743   -8.1463 C   0  0  0  0  0  0  0  0  0  0  0  0
  2  1  1  6
  2  3  1  0
  3  4  1  0
  4  5  2  0
  5  6  1  0
  6  7  2  0
  7  8  1  0
  8  9  2  0
  9 10  1  0
 10 11  2  0
 11 12  1  0
 12 13  2  0
  2 14  1  0
 14 15  2  0
 14 16  1  0
 16 17  1  0
 17 18  1  0
 18 19  2  0
 19 20  1  0
 20 21  2  0
 21 22  1  0
 22 23  1  0
 23 24  1  0
 24 25  2  0
 25 26  1  0
 26 27  2  0
 27 28  1  0
 28 29  2  0
 13  4  1  0
 22 18  1  0
 29 24  1  0
 12  7  1  0
M  END
>  <energy_score>  (448) 
-21.623178

>  <alias>  (448) 
None

>  <HIPPO Pose ID>  (448) 
69501

>  <smiles>  (448) 
N[C@H](Cc1cnc2ccccc2c1)C(=O)OCc1cncn1Cc1ccccc1

>  <inchikey>  (448) 
ZIJWKOZGGUJLCD-OAQYLSRUSA-N

>  <distance_score>  (448) 
0.831485

>  <ref_mols>  (448) 
Z1688a,Z1716a

>  <ref_pdb>  (448) 
Z1688a

>  <HIPPO Compound ID>  (448) 
138901

>  <name>  (448) 
P69501

>  <inspiration_score>  (448) 
None

$$$$
P69506
     RDKit          3D

 30 33  0  0  0  0  0  0  0  0999 V2000
   -5.2578    8.4529  -13.1796 O   0  0  0  0  0  0  0  0  0  0  0  0
   -4.7208    7.5617  -12.5376 C   0  0  0  0  0  0  0  0  0  0  0  0
   -3.5548    6.7500  -13.0287 C   0  0  0  0  0  0  0  0  0  0  0  0
   -3.9880    5.3405  -13.4354 C   0  0  0  0  0  0  0  0  0  0  0  0
   -4.7555    5.2544  -14.7313 C   0  0  0  0  0  0  0  0  0  0  0  0
   -6.1042    4.8853  -14.7347 C   0  0  0  0  0  0  0  0  0  0  0  0
   -6.8272    4.7809  -15.9348 C   0  0  0  0  0  0  0  0  0  0  0  0
   -8.1807    4.3948  -15.9671 C   0  0  0  0  0  0  0  0  0  0  0  0
   -8.8303    4.2603  -17.1871 C   0  0  0  0  0  0  0  0  0  0  0  0
  -10.1067    3.8632  -17.2313 F   0  0  0  0  0  0  0  0  0  0  0  0
   -8.1671    4.5249  -18.3719 C   0  0  0  0  0  0  0  0  0  0  0  0
   -6.8290    4.9219  -18.3346 C   0  0  0  0  0  0  0  0  0  0  0  0
   -6.1397    5.0484  -17.1357 C   0  0  0  0  0  0  0  0  0  0  0  0
   -4.8449    5.3982  -17.1562 N   0  0  0  0  0  0  0  0  0  0  0  0
   -4.1890    5.4791  -15.9801 C   0  0  0  0  0  0  0  0  0  0  0  0
   -2.5156    5.8297  -16.1956 Cl  0  0  0  0  0  0  0  0  0  0  0  0
   -5.0948    7.1283  -11.3015 O   0  0  0  0  0  0  0  0  0  0  0  0
   -6.3738    7.5936  -10.8610 C   0  0  0  0  0  0  0  0  0  0  0  0
   -7.3546    6.6287  -11.4061 C   0  0  0  0  0  0  0  0  0  0  0  0
   -8.1350    6.7299  -12.5389 C   0  0  0  0  0  0  0  0  0  0  0  0
   -8.8036    5.5643  -12.7799 N   0  0  0  0  0  0  0  0  0  0  0  0
   -8.4768    4.7656  -11.7867 C   0  0  0  0  0  0  0  0  0  0  0  0
   -7.6110    5.3679  -10.9129 N   0  0  0  0  0  0  0  0  0  0  0  0
   -6.9580    4.6826   -9.8061 C   0  0  0  0  0  0  0  0  0  0  0  0
   -7.7594    4.7081   -8.5291 C   0  0  0  0  0  0  0  0  0  0  0  0
   -7.6378    5.7637   -7.6135 C   0  0  0  0  0  0  0  0  0  0  0  0
   -8.3489    5.7522   -6.4104 C   0  0  0  0  0  0  0  0  0  0  0  0
   -9.1846    4.6818   -6.1022 C   0  0  0  0  0  0  0  0  0  0  0  0
   -9.3158    3.6275   -7.0026 C   0  0  0  0  0  0  0  0  0  0  0  0
   -8.6199    3.6462   -8.2142 C   0  0  0  0  0  0  0  0  0  0  0  0
  1  2  2  0
  2  3  1  0
  3  4  1  0
  4  5  1  0
  5  6  2  0
  6  7  1  0
  7  8  2  0
  8  9  1  0
  9 10  1  0
  9 11  2  0
 11 12  1  0
 12 13  2  0
 13 14  1  0
 14 15  2  0
 15 16  1  0
  2 17  1  0
 17 18  1  0
 18 19  1  0
 19 20  2  0
 20 21  1  0
 21 22  2  0
 22 23  1  0
 23 24  1  0
 24 25  1  0
 25 26  2  0
 26 27  1  0
 27 28  2  0
 28 29  1  0
 29 30  2  0
 15  5  1  0
 23 19  1  0
 30 25  1  0
 13  7  1  0
M  END
>  <energy_score>  (449) 
-29.368213

>  <alias>  (449) 
None

>  <HIPPO Pose ID>  (449) 
69506

>  <smiles>  (449) 
O=C(CCc1cc2cc(F)ccc2nc1Cl)OCc1cncn1Cc1ccccc1

>  <inchikey>  (449) 
RXUBORZXYIPZFS-UHFFFAOYSA-N

>  <distance_score>  (449) 
0.691829

>  <ref_mols>  (449) 
Z1688a,Z1716a

>  <ref_pdb>  (449) 
Z1688a

>  <HIPPO Compound ID>  (449) 
138905

>  <name>  (449) 
P69506

>  <inspiration_score>  (449) 
None

$$$$
P69509
     RDKit          3D

 31 34  0  0  0  0  0  0  0  0999 V2000
   -5.5474    8.5745  -13.5043 O   0  0  0  0  0  0  0  0  0  0  0  0
   -4.8978    7.8373  -12.7770 C   0  0  0  0  0  0  0  0  0  0  0  0
   -3.6684    7.0850  -13.2119 C   0  0  0  0  0  0  0  0  0  0  0  0
   -3.9904    5.6220  -13.5285 C   0  0  0  0  0  0  0  0  0  0  0  0
   -4.7348    5.4119  -14.8239 C   0  0  0  0  0  0  0  0  0  0  0  0
   -6.0755    5.0205  -14.8154 C   0  0  0  0  0  0  0  0  0  0  0  0
   -6.7952    4.8410  -16.0066 C   0  0  0  0  0  0  0  0  0  0  0  0
   -8.1471    4.4471  -16.0179 C   0  0  0  0  0  0  0  0  0  0  0  0
   -8.7995    4.2589  -17.2285 C   0  0  0  0  0  0  0  0  0  0  0  0
  -10.0746    3.8559  -17.2497 F   0  0  0  0  0  0  0  0  0  0  0  0
   -8.1396    4.4756  -18.4246 C   0  0  0  0  0  0  0  0  0  0  0  0
   -6.8005    4.8730  -18.4073 C   0  0  0  0  0  0  0  0  0  0  0  0
   -6.1078    5.0529  -17.2171 C   0  0  0  0  0  0  0  0  0  0  0  0
   -4.8133    5.4061  -17.2516 N   0  0  0  0  0  0  0  0  0  0  0  0
   -4.1640    5.5681  -16.0794 C   0  0  0  0  0  0  0  0  0  0  0  0
   -2.4988    5.9488  -16.3034 Cl  0  0  0  0  0  0  0  0  0  0  0  0
   -5.1935    7.5274  -11.4833 O   0  0  0  0  0  0  0  0  0  0  0  0
   -6.5142    7.8855  -11.0562 C   0  0  0  0  0  0  0  0  0  0  0  0
   -7.3890    6.7787  -11.5101 C   0  0  0  0  0  0  0  0  0  0  0  0
   -8.2979    6.7562  -12.5464 C   0  0  0  0  0  0  0  0  0  0  0  0
   -8.7642    5.4908  -12.7623 N   0  0  0  0  0  0  0  0  0  0  0  0
   -8.1858    4.7504  -11.8457 C   0  0  0  0  0  0  0  0  0  0  0  0
   -8.3068    3.0326  -11.7907 S   0  0  0  0  0  0  0  0  0  0  0  0
   -7.3740    5.4847  -11.0187 N   0  0  0  0  0  0  0  0  0  0  0  0
   -6.5178    4.9744   -9.9564 C   0  0  0  0  0  0  0  0  0  0  0  0
   -7.0848    5.2095   -8.5777 C   0  0  0  0  0  0  0  0  0  0  0  0
   -8.2423    4.5428   -8.1485 C   0  0  0  0  0  0  0  0  0  0  0  0
   -8.7283    4.7248   -6.8520 C   0  0  0  0  0  0  0  0  0  0  0  0
   -8.0719    5.5815   -5.9726 C   0  0  0  0  0  0  0  0  0  0  0  0
   -6.9238    6.2524   -6.3859 C   0  0  0  0  0  0  0  0  0  0  0  0
   -6.4289    6.0636   -7.6778 C   0  0  0  0  0  0  0  0  0  0  0  0
  1  2  2  0
  2  3  1  0
  3  4  1  0
  4  5  1  0
  5  6  2  0
  6  7  1  0
  7  8  2  0
  8  9  1  0
  9 10  1  0
  9 11  2  0
 11 12  1  0
 12 13  2  0
 13 14  1  0
 14 15  2  0
 15 16  1  0
  2 17  1  0
 17 18  1  0
 18 19  1  0
 19 20  2  0
 20 21  1  0
 21 22  2  0
 22 23  1  0
 22 24  1  0
 24 25  1  0
 25 26  1  0
 26 27  2  0
 27 28  1  0
 28 29  2  0
 29 30  1  0
 30 31  2  0
 15  5  1  0
 24 19  1  0
 31 26  1  0
 13  7  1  0
M  END
>  <energy_score>  (450) 
-48.639016

>  <alias>  (450) 
None

>  <HIPPO Pose ID>  (450) 
69509

>  <smiles>  (450) 
O=C(CCc1cc2cc(F)ccc2nc1Cl)OCc1cnc(S)n1Cc1ccccc1

>  <inchikey>  (450) 
HWFXNDAGTSAGSC-UHFFFAOYSA-N

>  <distance_score>  (450) 
0.736676

>  <ref_mols>  (450) 
Z1688a,Z1716a

>  <ref_pdb>  (450) 
Z1688a

>  <HIPPO Compound ID>  (450) 
138907

>  <name>  (450) 
P69509

>  <inspiration_score>  (450) 
None

$$$$
P69512
     RDKit          3D

 32 35  0  0  0  0  0  0  0  0999 V2000
   -7.5986    4.3889   -8.6533 C   0  0  0  0  0  0  0  0  0  0  0  0
   -6.6142    5.0198   -9.6457 C   0  0  1  0  0  0  0  0  0  0  0  0
   -5.2956    4.2632   -9.7890 C   0  0  0  0  0  0  0  0  0  0  0  0
   -4.0810    4.9065   -9.4849 C   0  0  0  0  0  0  0  0  0  0  0  0
   -2.8558    4.2494   -9.6365 C   0  0  0  0  0  0  0  0  0  0  0  0
   -2.8256    2.9305  -10.0786 C   0  0  0  0  0  0  0  0  0  0  0  0
   -1.3162    2.1312  -10.2731 Cl  0  0  0  0  0  0  0  0  0  0  0  0
   -4.0112    2.2600  -10.3518 C   0  0  0  0  0  0  0  0  0  0  0  0
   -5.2357    2.9201  -10.1964 C   0  0  0  0  0  0  0  0  0  0  0  0
   -7.1941    5.4219  -10.9413 N   0  0  0  0  0  0  0  0  0  0  0  0
   -6.9650    6.6404  -11.5798 C   0  0  0  0  0  0  0  0  0  0  0  0
   -5.9097    7.6207  -11.2340 C   0  0  0  0  0  0  0  0  0  0  0  0
   -5.5858    8.3455  -12.4343 O   0  0  0  0  0  0  0  0  0  0  0  0
   -4.6224    8.0238  -13.3265 C   0  0  0  0  0  0  0  0  0  0  0  0
   -4.5152    8.6882  -14.3607 O   0  0  0  0  0  0  0  0  0  0  0  0
   -3.6401    6.8703  -13.0271 C   0  0  2  0  0  0  0  0  0  0  0  0
   -2.3286    7.1818  -13.6676 N   0  0  0  0  0  0  0  0  0  0  0  0
   -4.1584    5.4716  -13.4193 C   0  0  0  0  0  0  0  0  0  0  0  0
   -4.8730    5.3272  -14.7351 C   0  0  0  0  0  0  0  0  0  0  0  0
   -4.3008    5.6277  -15.9582 C   0  0  0  0  0  0  0  0  0  0  0  0
   -4.9316    5.5040  -17.1502 N   0  0  0  0  0  0  0  0  0  0  0  0
   -6.2138    5.0835  -17.1578 C   0  0  0  0  0  0  0  0  0  0  0  0
   -6.9126    4.9607  -18.3517 C   0  0  0  0  0  0  0  0  0  0  0  0
   -8.2517    4.5513  -18.3877 C   0  0  0  0  0  0  0  0  0  0  0  0
   -8.9225    4.2610  -17.2076 C   0  0  0  0  0  0  0  0  0  0  0  0
   -8.2406    4.3546  -15.9996 C   0  0  0  0  0  0  0  0  0  0  0  0
   -6.8915    4.7538  -15.9737 C   0  0  0  0  0  0  0  0  0  0  0  0
   -6.1757    4.8342  -14.7760 C   0  0  0  0  0  0  0  0  0  0  0  0
   -7.9197    6.7032  -12.5752 C   0  0  0  0  0  0  0  0  0  0  0  0
   -8.6113    5.5348  -12.6653 N   0  0  0  0  0  0  0  0  0  0  0  0
   -8.1186    4.7667  -11.7210 C   0  0  0  0  0  0  0  0  0  0  0  0
   -8.5009    3.0945  -11.6027 S   0  0  0  0  0  0  0  0  0  0  0  0
  2  1  1  6
  2  3  1  0
  3  4  2  0
  4  5  1  0
  5  6  2  0
  6  7  1  0
  6  8  1  0
  8  9  2  0
  2 10  1  0
 10 11  1  0
 11 12  1  0
 12 13  1  0
 13 14  1  0
 14 15  2  0
 14 16  1  0
 16 17  1  6
 16 18  1  0
 18 19  1  0
 19 20  2  0
 20 21  1  0
 21 22  2  0
 22 23  1  0
 23 24  2  0
 24 25  1  0
 25 26  2  0
 26 27  1  0
 27 28  2  0
 11 29  2  0
 29 30  1  0
 30 31  2  0
 31 32  1  0
  9  3  1  0
 31 10  1  0
 28 19  1  0
 27 22  1  0
M  END
>  <energy_score>  (451) 
-45.635416

>  <alias>  (451) 
None

>  <HIPPO Pose ID>  (451) 
69512

>  <smiles>  (451) 
C[C@@H](c1ccc(Cl)cc1)n1c(COC(=O)[C@H](N)Cc2cnc3ccccc3c2)cnc1S

>  <inchikey>  (451) 
SOXQGZIPKINFAQ-YCRPNKLZSA-N

>  <distance_score>  (451) 
0.729663

>  <ref_mols>  (451) 
Z1688a,Z1716a

>  <ref_pdb>  (451) 
Z1688a

>  <HIPPO Compound ID>  (451) 
138909

>  <name>  (451) 
P69512

>  <inspiration_score>  (451) 
None

$$$$
P69517
     RDKit          3D

 33 36  0  0  0  0  0  0  0  0999 V2000
   -7.0360    5.5728   -8.4147 C   0  0  0  0  0  0  0  0  0  0  0  0
   -6.7550    4.7130   -9.6561 C   0  0  2  0  0  0  0  0  0  0  0  0
   -5.3160    4.2321   -9.8249 C   0  0  0  0  0  0  0  0  0  0  0  0
   -4.2064    4.9540   -9.3636 C   0  0  0  0  0  0  0  0  0  0  0  0
   -2.9040    4.4739   -9.5506 C   0  0  0  0  0  0  0  0  0  0  0  0
   -2.6930    3.2539  -10.1854 C   0  0  0  0  0  0  0  0  0  0  0  0
   -1.0917    2.6736  -10.4214 Cl  0  0  0  0  0  0  0  0  0  0  0  0
   -3.7744    2.5029  -10.6253 C   0  0  0  0  0  0  0  0  0  0  0  0
   -5.0721    2.9877  -10.4404 C   0  0  0  0  0  0  0  0  0  0  0  0
   -7.3003    5.3113  -10.8913 N   0  0  0  0  0  0  0  0  0  0  0  0
   -7.1100    6.5828  -11.4155 C   0  0  0  0  0  0  0  0  0  0  0  0
   -6.0720    7.5767  -11.0538 C   0  0  0  0  0  0  0  0  0  0  0  0
   -5.2151    7.5688  -12.1979 O   0  0  0  0  0  0  0  0  0  0  0  0
   -3.8993    7.3597  -11.9681 C   0  0  0  0  0  0  0  0  0  0  0  0
   -3.3216    7.5610  -10.9098 O   0  0  0  0  0  0  0  0  0  0  0  0
   -3.2556    6.8046  -13.2102 C   0  0  0  0  0  0  0  0  0  0  0  0
   -3.7996    5.4035  -13.5281 C   0  0  0  0  0  0  0  0  0  0  0  0
   -4.6159    5.3132  -14.7953 C   0  0  0  0  0  0  0  0  0  0  0  0
   -5.9588    4.9250  -14.7555 C   0  0  0  0  0  0  0  0  0  0  0  0
   -6.7211    4.8121  -15.9315 C   0  0  0  0  0  0  0  0  0  0  0  0
   -8.0709    4.4112  -15.9232 C   0  0  0  0  0  0  0  0  0  0  0  0
   -8.7563    4.2688  -17.1228 C   0  0  0  0  0  0  0  0  0  0  0  0
  -10.0280    3.8559  -17.1247 F   0  0  0  0  0  0  0  0  0  0  0  0
   -8.1339    4.5396  -18.3280 C   0  0  0  0  0  0  0  0  0  0  0  0
   -6.8002    4.9518  -18.3310 C   0  0  0  0  0  0  0  0  0  0  0  0
   -6.0760    5.0878  -17.1536 C   0  0  0  0  0  0  0  0  0  0  0  0
   -4.7885    5.4579  -17.2148 N   0  0  0  0  0  0  0  0  0  0  0  0
   -4.0936    5.5419  -16.0615 C   0  0  0  0  0  0  0  0  0  0  0  0
   -2.4352    5.9280  -16.3289 Cl  0  0  0  0  0  0  0  0  0  0  0  0
   -8.0123    6.6791  -12.4589 C   0  0  0  0  0  0  0  0  0  0  0  0
   -8.6476    5.4977  -12.6750 N   0  0  0  0  0  0  0  0  0  0  0  0
   -8.1751    4.6874  -11.7576 C   0  0  0  0  0  0  0  0  0  0  0  0
   -8.5129    3.0009  -11.7227 S   0  0  0  0  0  0  0  0  0  0  0  0
  2  1  1  1
  2  3  1  0
  3  4  2  0
  4  5  1  0
  5  6  2  0
  6  7  1  0
  6  8  1  0
  8  9  2  0
  2 10  1  0
 10 11  1  0
 11 12  1  0
 12 13  1  0
 13 14  1  0
 14 15  2  0
 14 16  1  0
 16 17  1  0
 17 18  1  0
 18 19  2  0
 19 20  1  0
 20 21  2  0
 21 22  1  0
 22 23  1  0
 22 24  2  0
 24 25  1  0
 25 26  2  0
 26 27  1  0
 27 28  2  0
 28 29  1  0
 11 30  2  0
 30 31  1  0
 31 32  2  0
 32 33  1  0
  9  3  1  0
 32 10  1  0
 28 18  1  0
 26 20  1  0
M  END
>  <energy_score>  (452) 
-65.524583

>  <alias>  (452) 
None

>  <HIPPO Pose ID>  (452) 
69517

>  <smiles>  (452) 
C[C@H](c1ccc(Cl)cc1)n1c(COC(=O)CCc2cc3cc(F)ccc3nc2Cl)cnc1S

>  <inchikey>  (452) 
XILSMTZUBVKRNH-CQSZACIVSA-N

>  <distance_score>  (452) 
0.754114

>  <ref_mols>  (452) 
Z1688a,Z1716a

>  <ref_pdb>  (452) 
Z1688a

>  <HIPPO Compound ID>  (452) 
138912

>  <name>  (452) 
P69517

>  <inspiration_score>  (452) 
None

$$$$
P69519
     RDKit          3D

 18 20  0  0  0  0  0  0  0  0999 V2000
   -4.0581    6.8528  -14.7742 C   0  0  0  0  0  0  0  0  0  0  0  0
   -4.5169    6.1594  -15.9839 N   0  0  0  0  0  0  0  0  0  0  0  0
   -3.5168    5.2586  -16.5855 C   0  0  0  0  0  0  0  0  0  0  0  0
   -2.8461    5.8554  -17.8076 C   0  0  0  0  0  0  0  0  0  0  0  0
   -2.6643    7.3364  -17.9039 C   0  0  0  0  0  0  0  0  0  0  0  0
   -2.8365    5.0776  -19.0595 N   0  0  0  0  0  0  0  0  0  0  0  0
   -1.7838    5.0352  -18.4111 N   0  0  0  0  0  0  0  0  0  0  0  0
   -5.7728    5.5231  -15.7924 C   0  0  0  0  0  0  0  0  0  0  0  0
   -6.2001    5.3445  -14.5293 N   0  0  0  0  0  0  0  0  0  0  0  0
   -7.3859    4.7482  -14.3616 C   0  0  0  0  0  0  0  0  0  0  0  0
   -7.9208    4.4195  -12.7131 S   0  0  0  0  0  0  0  0  0  0  0  0
   -8.2074    4.3582  -15.3334 N   0  0  0  0  0  0  0  0  0  0  0  0
   -7.7802    4.5146  -16.5826 C   0  0  0  0  0  0  0  0  0  0  0  0
   -8.6007    4.0746  -17.6101 C   0  0  0  0  0  0  0  0  0  0  0  0
   -8.2021    4.1437  -18.9418 C   0  0  0  0  0  0  0  0  0  0  0  0
   -6.9761    4.7001  -19.2586 C   0  0  0  0  0  0  0  0  0  0  0  0
   -6.1912    5.2400  -18.2537 C   0  0  0  0  0  0  0  0  0  0  0  0
   -6.5491    5.1045  -16.8943 C   0  0  0  0  0  0  0  0  0  0  0  0
  1  2  1  0
  2  3  1  0
  3  4  1  0
  4  5  1  0
  4  6  1  0
  6  7  2  0
  2  8  1  0
  8  9  2  0
  9 10  1  0
 10 11  1  0
 10 12  2  0
 12 13  1  0
 13 14  2  0
 14 15  1  0
 15 16  2  0
 16 17  1  0
 17 18  2  0
  7  4  1  0
 18  8  1  0
 18 13  1  0
M  END
>  <energy_score>  (453) 
-31.37885

>  <alias>  (453) 
None

>  <HIPPO Pose ID>  (453) 
69519

>  <smiles>  (453) 
CN(CC1(C)N=N1)c1nc(S)nc2ccccc12

>  <inchikey>  (453) 
FVAZFOFXKMCLLD-UHFFFAOYSA-N

>  <distance_score>  (453) 
1.467754

>  <ref_mols>  (453) 
Z1719a,Z0472a

>  <ref_pdb>  (453) 
Z1719a

>  <HIPPO Compound ID>  (453) 
138941

>  <name>  (453) 
P69519

>  <inspiration_score>  (453) 
None

$$$$
P69520
     RDKit          3D

 19 21  0  0  0  0  0  0  0  0999 V2000
   -3.3440    4.9219  -14.8953 C   0  0  0  0  0  0  0  0  0  0  0  0
   -4.1787    5.2616  -16.0474 N   0  0  0  0  0  0  0  0  0  0  0  0
   -3.9063    6.5805  -16.6420 C   0  0  0  0  0  0  0  0  0  0  0  0
   -3.0957    6.4840  -17.9179 C   0  0  0  0  0  0  0  0  0  0  0  0
   -3.4085    7.4718  -18.9953 C   0  0  0  0  0  0  0  0  0  0  0  0
   -2.4224    5.2325  -18.3046 N   0  0  0  0  0  0  0  0  0  0  0  0
   -1.6890    6.0786  -17.7772 N   0  0  0  0  0  0  0  0  0  0  0  0
   -5.5523    5.0094  -15.8458 C   0  0  0  0  0  0  0  0  0  0  0  0
   -6.0101    5.0053  -14.5845 N   0  0  0  0  0  0  0  0  0  0  0  0
   -7.3137    4.7627  -14.4358 C   0  0  0  0  0  0  0  0  0  0  0  0
   -7.9000    4.7856  -12.8341 Cl  0  0  0  0  0  0  0  0  0  0  0  0
   -8.2188    4.5798  -15.3921 N   0  0  0  0  0  0  0  0  0  0  0  0
   -7.7538    4.5356  -16.6470 C   0  0  0  0  0  0  0  0  0  0  0  0
   -8.6166    4.2551  -17.7076 C   0  0  0  0  0  0  0  0  0  0  0  0
   -9.9123    4.0090  -17.4655 F   0  0  0  0  0  0  0  0  0  0  0  0
   -8.1988    4.2203  -19.0331 C   0  0  0  0  0  0  0  0  0  0  0  0
   -6.8661    4.4308  -19.3312 C   0  0  0  0  0  0  0  0  0  0  0  0
   -5.9765    4.6827  -18.2970 C   0  0  0  0  0  0  0  0  0  0  0  0
   -6.4029    4.7616  -16.9477 C   0  0  0  0  0  0  0  0  0  0  0  0
  1  2  1  0
  2  3  1  0
  3  4  1  0
  4  5  1  0
  4  6  1  0
  6  7  2  0
  2  8  1  0
  8  9  2  0
  9 10  1  0
 10 11  1  0
 10 12  2  0
 12 13  1  0
 13 14  2  0
 14 15  1  0
 14 16  1  0
 16 17  2  0
 17 18  1  0
 18 19  2  0
  7  4  1  0
 19  8  1  0
 19 13  1  0
M  END
>  <energy_score>  (454) 
-33.272087

>  <alias>  (454) 
None

>  <HIPPO Pose ID>  (454) 
69520

>  <smiles>  (454) 
CN(CC1(C)N=N1)c1nc(Cl)nc2c(F)cccc12

>  <inchikey>  (454) 
AMDMNBOQDZZKMY-UHFFFAOYSA-N

>  <distance_score>  (454) 
1.08868

>  <ref_mols>  (454) 
Z1719a,Z0472a

>  <ref_pdb>  (454) 
Z1719a

>  <HIPPO Compound ID>  (454) 
138942

>  <name>  (454) 
P69520

>  <inspiration_score>  (454) 
None

$$$$
P69522
     RDKit          3D

 20 22  0  0  0  0  0  0  0  0999 V2000
   -2.7012    8.9359  -15.9450 C   0  0  0  0  0  0  0  0  0  0  0  0
   -2.4380    7.7205  -15.1170 C   0  0  0  0  0  0  0  0  0  0  0  0
   -3.6105    6.8282  -14.7859 C   0  0  0  0  0  0  0  0  0  0  0  0
   -4.1081    6.0788  -15.9629 N   0  0  0  0  0  0  0  0  0  0  0  0
   -3.1727    5.0353  -16.4656 C   0  0  0  0  0  0  0  0  0  0  0  0
   -2.4418    5.4917  -17.7300 C   0  0  0  0  0  0  0  0  0  0  0  0
   -2.1871    6.6334  -18.0799 O   0  0  0  0  0  0  0  0  0  0  0  0
   -2.0426    4.4542  -18.4994 O   0  0  0  0  0  0  0  0  0  0  0  0
   -5.4085    5.5451  -15.7410 C   0  0  0  0  0  0  0  0  0  0  0  0
   -5.8320    5.4280  -14.4676 N   0  0  0  0  0  0  0  0  0  0  0  0
   -7.0592    4.9286  -14.2789 C   0  0  0  0  0  0  0  0  0  0  0  0
   -7.9165    4.5573  -15.2291 N   0  0  0  0  0  0  0  0  0  0  0  0
   -7.4917    4.6523  -16.4898 C   0  0  0  0  0  0  0  0  0  0  0  0
   -8.3454    4.2368  -17.5032 C   0  0  0  0  0  0  0  0  0  0  0  0
   -7.9729    4.2940  -18.8453 C   0  0  0  0  0  0  0  0  0  0  0  0
   -6.7305    4.8037  -19.1891 C   0  0  0  0  0  0  0  0  0  0  0  0
   -5.8811    5.2716  -18.1956 C   0  0  0  0  0  0  0  0  0  0  0  0
   -6.2285    5.1634  -16.8277 C   0  0  0  0  0  0  0  0  0  0  0  0
   -1.3880    7.8436  -14.0898 N   0  0  0  0  0  0  0  0  0  0  0  0
   -1.0805    7.1617  -15.0796 N   0  0  0  0  0  0  0  0  0  0  0  0
  1  2  1  0
  2  3  1  0
  3  4  1  0
  4  5  1  0
  5  6  1  0
  6  7  2  0
  6  8  1  0
  4  9  1  0
  9 10  2  0
 10 11  1  0
 11 12  2  0
 12 13  1  0
 13 14  2  0
 14 15  1  0
 15 16  2  0
 16 17  1  0
 17 18  2  0
  2 19  1  0
 19 20  2  0
 20  2  1  0
 18  9  1  0
 18 13  1  0
M  END
>  <energy_score>  (455) 
-52.878863

>  <alias>  (455) 
None

>  <HIPPO Pose ID>  (455) 
69522

>  <smiles>  (455) 
CC1(CN(CC(=O)O)c2ncnc3ccccc23)N=N1

>  <inchikey>  (455) 
FSGSAIXGISCJGG-UHFFFAOYSA-N

>  <distance_score>  (455) 
0.963593

>  <ref_mols>  (455) 
Z0472a,Z1719a

>  <ref_pdb>  (455) 
Z1719a

>  <HIPPO Compound ID>  (455) 
138944

>  <name>  (455) 
P69522

>  <inspiration_score>  (455) 
None

$$$$
P69525
     RDKit          3D

 21 23  0  0  0  0  0  0  0  0999 V2000
   -2.9047    9.2274  -15.7315 C   0  0  0  0  0  0  0  0  0  0  0  0
   -2.5844    7.8904  -15.1467 C   0  0  0  0  0  0  0  0  0  0  0  0
   -3.7311    6.9370  -14.8959 C   0  0  0  0  0  0  0  0  0  0  0  0
   -4.1755    6.2061  -16.1331 N   0  0  0  0  0  0  0  0  0  0  0  0
   -3.1770    5.1609  -16.5770 C   0  0  0  0  0  0  0  0  0  0  0  0
   -2.4058    5.6759  -17.8007 C   0  0  0  0  0  0  0  0  0  0  0  0
   -1.4915    5.0907  -18.3610 O   0  0  0  0  0  0  0  0  0  0  0  0
   -2.8886    6.8712  -18.2350 O   0  0  0  0  0  0  0  0  0  0  0  0
   -5.4515    5.5789  -15.8885 C   0  0  0  0  0  0  0  0  0  0  0  0
   -5.8700    5.4817  -14.6151 N   0  0  0  0  0  0  0  0  0  0  0  0
   -7.0878    4.9625  -14.4223 C   0  0  0  0  0  0  0  0  0  0  0  0
   -7.6152    4.8509  -12.8043 Cl  0  0  0  0  0  0  0  0  0  0  0  0
   -7.9529    4.5701  -15.3475 N   0  0  0  0  0  0  0  0  0  0  0  0
   -7.5281    4.6327  -16.6049 C   0  0  0  0  0  0  0  0  0  0  0  0
   -8.3968    4.1946  -17.5926 C   0  0  0  0  0  0  0  0  0  0  0  0
   -8.0344    4.1994  -18.9358 C   0  0  0  0  0  0  0  0  0  0  0  0
   -6.7821    4.6621  -19.3035 C   0  0  0  0  0  0  0  0  0  0  0  0
   -5.9169    5.1573  -18.3368 C   0  0  0  0  0  0  0  0  0  0  0  0
   -6.2611    5.1321  -16.9639 C   0  0  0  0  0  0  0  0  0  0  0  0
   -1.4550    7.8353  -14.2052 N   0  0  0  0  0  0  0  0  0  0  0  0
   -1.2323    7.3513  -15.3254 N   0  0  0  0  0  0  0  0  0  0  0  0
  1  2  1  0
  2  3  1  0
  3  4  1  0
  4  5  1  0
  5  6  1  0
  6  7  2  0
  6  8  1  0
  4  9  1  0
  9 10  2  0
 10 11  1  0
 11 12  1  0
 11 13  2  0
 13 14  1  0
 14 15  2  0
 15 16  1  0
 16 17  2  0
 17 18  1  0
 18 19  2  0
  2 20  1  0
 20 21  2  0
 21  2  1  0
 19  9  1  0
 19 14  1  0
M  END
>  <energy_score>  (456) 
-65.38554

>  <alias>  (456) 
None

>  <HIPPO Pose ID>  (456) 
69525

>  <smiles>  (456) 
CC1(CN(CC(=O)O)c2nc(Cl)nc3ccccc23)N=N1

>  <inchikey>  (456) 
GURFCFZJMFJDNF-UHFFFAOYSA-N

>  <distance_score>  (456) 
1.094193

>  <ref_mols>  (456) 
Z1719a,Z0472a

>  <ref_pdb>  (456) 
Z1719a

>  <HIPPO Compound ID>  (456) 
138950

>  <name>  (456) 
P69525

>  <inspiration_score>  (456) 
None

$$$$
P69527
     RDKit          3D

 22 24  0  0  0  0  0  0  0  0999 V2000
   -9.4581    4.5450  -19.5931 C   0  0  0  0  0  0  0  0  0  0  0  0
   -8.2104    3.8613  -19.5894 O   0  0  0  0  0  0  0  0  0  0  0  0
   -7.4777    4.3214  -18.5328 C   0  0  0  0  0  0  0  0  0  0  0  0
   -7.9505    4.1356  -17.2341 C   0  0  0  0  0  0  0  0  0  0  0  0
   -7.2429    4.5994  -16.1493 C   0  0  0  0  0  0  0  0  0  0  0  0
   -7.7677    4.4091  -14.9467 N   0  0  0  0  0  0  0  0  0  0  0  0
   -7.0311    4.8309  -13.9289 C   0  0  0  0  0  0  0  0  0  0  0  0
   -7.7051    4.6142  -12.3803 Cl  0  0  0  0  0  0  0  0  0  0  0  0
   -5.8440    5.4426  -13.9794 N   0  0  0  0  0  0  0  0  0  0  0  0
   -5.3241    5.6498  -15.2006 C   0  0  0  0  0  0  0  0  0  0  0  0
   -4.0799    6.3233  -15.2864 N   0  0  0  0  0  0  0  0  0  0  0  0
   -3.7264    7.0031  -14.0323 C   0  0  0  0  0  0  0  0  0  0  0  0
   -2.9810    5.5124  -15.8577 C   0  0  0  0  0  0  0  0  0  0  0  0
   -2.3246    6.1978  -17.0432 C   0  0  0  0  0  0  0  0  0  0  0  0
   -2.3048    7.6928  -17.1170 C   0  0  0  0  0  0  0  0  0  0  0  0
   -2.2258    5.4383  -18.2978 N   0  0  0  0  0  0  0  0  0  0  0  0
   -1.1690    5.5222  -17.6555 N   0  0  0  0  0  0  0  0  0  0  0  0
   -6.0215    5.2547  -16.3585 C   0  0  0  0  0  0  0  0  0  0  0  0
   -5.5918    5.4925  -17.6789 C   0  0  0  0  0  0  0  0  0  0  0  0
   -6.2952    5.0070  -18.7662 C   0  0  0  0  0  0  0  0  0  0  0  0
   -5.8465    5.1531  -20.0418 O   0  0  0  0  0  0  0  0  0  0  0  0
   -5.2921    6.4300  -20.3420 C   0  0  0  0  0  0  0  0  0  0  0  0
  1  2  1  0
  2  3  1  0
  3  4  2  0
  4  5  1  0
  5  6  2  0
  6  7  1  0
  7  8  1  0
  7  9  2  0
  9 10  1  0
 10 11  1  0
 11 12  1  0
 11 13  1  0
 13 14  1  0
 14 15  1  0
 14 16  1  0
 16 17  2  0
 10 18  2  0
 18 19  1  0
 19 20  2  0
 20 21  1  0
 21 22  1  0
 20  3  1  0
 18  5  1  0
 17 14  1  0
M  END
>  <energy_score>  (457) 
-44.880241

>  <alias>  (457) 
None

>  <HIPPO Pose ID>  (457) 
69527

>  <smiles>  (457) 
COc1cc2nc(Cl)nc(N(C)CC3(C)N=N3)c2cc1OC

>  <inchikey>  (457) 
PDWNHUCKSFKWHY-UHFFFAOYSA-N

>  <distance_score>  (457) 
0.953231

>  <ref_mols>  (457) 
Z0472a,Z1719a

>  <ref_pdb>  (457) 
Z1719a

>  <HIPPO Compound ID>  (457) 
138952

>  <name>  (457) 
P69527

>  <inspiration_score>  (457) 
None

$$$$
P69529
     RDKit          3D

 22 23  0  0  0  0  0  0  0  0999 V2000
   -4.4577    9.3471  -15.8606 C   0  0  0  0  0  0  0  0  0  0  0  0
   -5.1732    8.2849  -15.0364 C   0  0  0  0  0  0  0  0  0  0  0  0
   -4.6998    6.9459  -15.4472 N   0  0  0  0  0  0  0  0  0  0  0  0
   -3.5386    6.5056  -14.6361 C   0  0  0  0  0  0  0  0  0  0  0  0
   -2.5132    5.5511  -15.3661 C   0  0  0  0  0  0  0  0  0  0  0  0
   -1.1488    6.3052  -15.4219 C   0  0  0  0  0  0  0  0  0  0  0  0
   -2.8343    5.2690  -16.8549 C   0  0  0  0  0  0  0  0  0  0  0  0
   -2.3436    4.2458  -14.6574 N   0  0  0  0  0  0  0  0  0  0  0  0
   -1.6012    4.3156  -13.3941 C   0  0  0  0  0  0  0  0  0  0  0  0
   -3.5953    3.5206  -14.4221 C   0  0  0  0  0  0  0  0  0  0  0  0
   -5.7995    6.0376  -15.3401 C   0  0  0  0  0  0  0  0  0  0  0  0
   -6.2817    5.7270  -14.1248 N   0  0  0  0  0  0  0  0  0  0  0  0
   -7.3623    4.9337  -14.1038 C   0  0  0  0  0  0  0  0  0  0  0  0
   -8.0145    4.4443  -15.1634 N   0  0  0  0  0  0  0  0  0  0  0  0
   -7.5101    4.7284  -16.3662 C   0  0  0  0  0  0  0  0  0  0  0  0
   -8.0967    4.1978  -17.5092 C   0  0  0  0  0  0  0  0  0  0  0  0
   -7.5501    4.4130  -18.7782 C   0  0  0  0  0  0  0  0  0  0  0  0
   -6.4372    5.2292  -18.9211 C   0  0  0  0  0  0  0  0  0  0  0  0
   -5.8813    5.3281  -20.1575 O   0  0  0  0  0  0  0  0  0  0  0  0
   -5.1994    6.5476  -20.4346 C   0  0  0  0  0  0  0  0  0  0  0  0
   -5.9038    5.8420  -17.8032 C   0  0  0  0  0  0  0  0  0  0  0  0
   -6.3919    5.5523  -16.5180 C   0  0  0  0  0  0  0  0  0  0  0  0
  1  2  1  0
  2  3  1  0
  3  4  1  0
  4  5  1  0
  5  6  1  0
  5  7  1  0
  5  8  1  0
  8  9  1  0
  8 10  1  0
  3 11  1  0
 11 12  2  0
 12 13  1  0
 13 14  2  0
 14 15  1  0
 15 16  2  0
 16 17  1  0
 17 18  2  0
 18 19  1  0
 19 20  1  0
 18 21  1  0
 21 22  2  0
 22 11  1  0
 22 15  1  0
M  END
>  <energy_score>  (458) 
-58.814442

>  <alias>  (458) 
None

>  <HIPPO Pose ID>  (458) 
69529

>  <smiles>  (458) 
CCN(CC(C)(C)N(C)C)c1ncnc2ccc(OC)cc12

>  <inchikey>  (458) 
SDTNACAVDSVIDN-UHFFFAOYSA-N

>  <distance_score>  (458) 
0.834412

>  <ref_mols>  (458) 
Z0472a,Z1719a

>  <ref_pdb>  (458) 
Z1719a

>  <HIPPO Compound ID>  (458) 
138955

>  <name>  (458) 
P69529

>  <inspiration_score>  (458) 
None

$$$$
P69534
     RDKit          3D

 23 24  0  0  0  0  0  0  0  0999 V2000
   -4.9071    7.6297  -16.1694 C   0  0  0  0  0  0  0  0  0  0  0  0
   -4.5188    6.6352  -17.1625 N   0  0  0  0  0  0  0  0  0  0  0  0
   -4.8433    7.0779  -18.5105 C   0  0  0  0  0  0  0  0  0  0  0  0
   -3.1920    6.0358  -16.9251 C   0  0  0  0  0  0  0  0  0  0  0  0
   -2.1236    7.1525  -16.7087 C   0  0  0  0  0  0  0  0  0  0  0  0
   -2.6359    5.1997  -18.1021 C   0  0  0  0  0  0  0  0  0  0  0  0
   -3.2235    5.1691  -15.6058 C   0  0  0  0  0  0  0  0  0  0  0  0
   -4.2835    4.1063  -15.3904 N   0  0  0  0  0  0  0  0  0  0  0  0
   -4.1116    3.5189  -13.9864 C   0  0  0  0  0  0  0  0  0  0  0  0
   -2.8049    2.7949  -13.7231 C   0  0  0  0  0  0  0  0  0  0  0  0
   -1.7510    3.3742  -13.4814 O   0  0  0  0  0  0  0  0  0  0  0  0
   -2.8742    1.4416  -13.7527 O   0  0  0  0  0  0  0  0  0  0  0  0
   -5.6591    4.5685  -15.4009 C   0  0  0  0  0  0  0  0  0  0  0  0
   -6.1805    4.9121  -14.2102 N   0  0  0  0  0  0  0  0  0  0  0  0
   -7.5051    5.0252  -14.1400 C   0  0  0  0  0  0  0  0  0  0  0  0
   -8.1299    5.2924  -12.5804 Cl  0  0  0  0  0  0  0  0  0  0  0  0
   -8.3926    4.9007  -15.1180 N   0  0  0  0  0  0  0  0  0  0  0  0
   -7.8862    4.6290  -16.3151 C   0  0  0  0  0  0  0  0  0  0  0  0
   -8.7912    4.4876  -17.3633 C   0  0  0  0  0  0  0  0  0  0  0  0
   -8.3836    4.3158  -18.6833 C   0  0  0  0  0  0  0  0  0  0  0  0
   -7.0368    4.2237  -18.9556 C   0  0  0  0  0  0  0  0  0  0  0  0
   -6.1310    4.2548  -17.8948 C   0  0  0  0  0  0  0  0  0  0  0  0
   -6.5092    4.4788  -16.5502 C   0  0  0  0  0  0  0  0  0  0  0  0
  1  2  1  0
  2  3  1  0
  2  4  1  0
  4  5  1  0
  4  6  1  0
  4  7  1  0
  7  8  1  0
  8  9  1  0
  9 10  1  0
 10 11  2  0
 10 12  1  0
  8 13  1  0
 13 14  2  0
 14 15  1  0
 15 16  1  0
 15 17  2  0
 17 18  1  0
 18 19  2  0
 19 20  1  0
 20 21  2  0
 21 22  1  0
 22 23  2  0
 23 13  1  0
 23 18  1  0
M  END
>  <energy_score>  (459) 
-50.699345

>  <alias>  (459) 
None

>  <HIPPO Pose ID>  (459) 
69534

>  <smiles>  (459) 
CN(C)C(C)(C)CN(CC(=O)O)c1nc(Cl)nc2ccccc12

>  <inchikey>  (459) 
XRIMQUMXKLBYQG-UHFFFAOYSA-N

>  <distance_score>  (459) 
1.127727

>  <ref_mols>  (459) 
Z1719a,Z0472a

>  <ref_pdb>  (459) 
Z1719a

>  <HIPPO Compound ID>  (459) 
138960

>  <name>  (459) 
P69534

>  <inspiration_score>  (459) 
None

$$$$
P69535
     RDKit          3D

 23 26  0  0  0  0  0  0  0  0999 V2000
   -0.1857    8.9032  -13.3403 O   0  0  0  0  0  0  0  0  0  0  0  0
   -1.2874    8.4926  -13.6072 C   0  0  0  0  0  0  0  0  0  0  0  0
   -2.7487    8.9324  -13.4148 C   0  0  0  0  0  0  0  0  0  0  0  0
   -3.0344    7.9377  -14.5652 C   0  0  2  0  0  0  0  0  0  0  0  0
   -4.1430    6.9121  -14.3205 C   0  0  0  0  0  0  0  0  0  0  0  0
   -4.3774    6.0452  -15.4980 N   0  0  0  0  0  0  0  0  0  0  0  0
   -3.3474    4.9980  -15.7181 C   0  0  0  0  0  0  0  0  0  0  0  0
   -2.5125    5.2810  -16.9283 C   0  0  0  0  0  0  0  0  0  0  0  0
   -2.6467    4.9371  -18.2578 C   0  0  0  0  0  0  0  0  0  0  0  0
   -1.6144    5.6042  -18.9531 C   0  0  0  0  0  0  0  0  0  0  0  0
   -0.8731    6.2615  -18.0006 C   0  0  0  0  0  0  0  0  0  0  0  0
   -1.4024    6.0619  -16.7663 O   0  0  0  0  0  0  0  0  0  0  0  0
   -5.6667    5.4410  -15.4234 C   0  0  0  0  0  0  0  0  0  0  0  0
   -6.1538    5.1395  -14.2050 N   0  0  0  0  0  0  0  0  0  0  0  0
   -7.3615    4.5646  -14.1700 C   0  0  0  0  0  0  0  0  0  0  0  0
   -8.1326    4.2787  -15.2198 N   0  0  0  0  0  0  0  0  0  0  0  0
   -7.6323    4.5455  -16.4262 C   0  0  0  0  0  0  0  0  0  0  0  0
   -8.3783    4.2011  -17.5455 C   0  0  0  0  0  0  0  0  0  0  0  0
   -7.9110    4.4373  -18.8375 C   0  0  0  0  0  0  0  0  0  0  0  0
   -6.6942    5.0780  -19.0199 C   0  0  0  0  0  0  0  0  0  0  0  0
   -5.9606    5.4795  -17.9116 C   0  0  0  0  0  0  0  0  0  0  0  0
   -6.3884    5.1644  -16.6034 C   0  0  0  0  0  0  0  0  0  0  0  0
   -1.6770    7.4006  -14.3180 N   0  0  0  0  0  0  0  0  0  0  0  0
  1  2  2  0
  2  3  1  0
  3  4  1  0
  4  5  1  1
  5  6  1  0
  6  7  1  0
  7  8  1  0
  8  9  2  0
  9 10  1  0
 10 11  2  0
 11 12  1  0
  6 13  1  0
 13 14  2  0
 14 15  1  0
 15 16  2  0
 16 17  1  0
 17 18  2  0
 18 19  1  0
 19 20  2  0
 20 21  1  0
 21 22  2  0
  4 23  1  0
 23  2  1  0
 12  8  1  0
 22 13  1  0
 22 17  1  0
M  END
>  <energy_score>  (460) 
-59.232494

>  <alias>  (460) 
None

>  <HIPPO Pose ID>  (460) 
69535

>  <smiles>  (460) 
O=C1C[C@H](CN(Cc2ccco2)c2ncnc3ccccc23)N1

>  <inchikey>  (460) 
FCOGYRKXAGCYID-GFCCVEGCSA-N

>  <distance_score>  (460) 
0.901933

>  <ref_mols>  (460) 
Z1719a,Z0472a

>  <ref_pdb>  (460) 
Z1719a

>  <HIPPO Compound ID>  (460) 
138961

>  <name>  (460) 
P69535

>  <inspiration_score>  (460) 
None

$$$$
P69537
     RDKit          3D

 23 25  0  0  0  0  0  0  0  0999 V2000
   -0.1390    7.7885  -17.2810 C   0  0  0  0  0  0  0  0  0  0  0  0
   -0.5844    6.3680  -17.5658 C   0  0  0  0  0  0  0  0  0  0  0  0
   -1.6815    5.9912  -16.7169 N   0  0  0  0  0  0  0  0  0  0  0  0
   -1.6880    5.3394  -15.3083 C   0  0  0  0  0  0  0  0  0  0  0  0
   -0.8038    5.0799  -14.5907 O   0  0  0  0  0  0  0  0  0  0  0  0
   -3.1667    4.9932  -14.9967 C   0  0  0  0  0  0  0  0  0  0  0  0
   -4.1064    5.9852  -15.6150 N   0  0  0  0  0  0  0  0  0  0  0  0
   -4.0449    7.2921  -14.8960 C   0  0  0  0  0  0  0  0  0  0  0  0
   -4.9935    8.3320  -15.4915 C   0  0  2  0  0  0  0  0  0  0  0  0
   -4.7519    8.7380  -16.9647 C   0  0  0  0  0  0  0  0  0  0  0  0
   -4.8130   10.1683  -16.4135 C   0  0  0  0  0  0  0  0  0  0  0  0
   -5.0240   11.2771  -16.8386 O   0  0  0  0  0  0  0  0  0  0  0  0
   -4.6293    9.7252  -15.1375 N   0  0  0  0  0  0  0  0  0  0  0  0
   -5.4232    5.4292  -15.4986 C   0  0  0  0  0  0  0  0  0  0  0  0
   -5.9427    5.2831  -14.2673 N   0  0  0  0  0  0  0  0  0  0  0  0
   -7.1907    4.8039  -14.1997 C   0  0  0  0  0  0  0  0  0  0  0  0
   -7.9819    4.5195  -15.2370 N   0  0  0  0  0  0  0  0  0  0  0  0
   -7.4504    4.6441  -16.4550 C   0  0  0  0  0  0  0  0  0  0  0  0
   -8.2325    4.3194  -17.5547 C   0  0  0  0  0  0  0  0  0  0  0  0
   -7.7470    4.4306  -18.8575 C   0  0  0  0  0  0  0  0  0  0  0  0
   -6.4508    4.8790  -19.0761 C   0  0  0  0  0  0  0  0  0  0  0  0
   -5.6499    5.2166  -17.9893 C   0  0  0  0  0  0  0  0  0  0  0  0
   -6.1417    5.1014  -16.6661 C   0  0  0  0  0  0  0  0  0  0  0  0
  1  2  1  0
  2  3  1  0
  3  4  1  0
  4  5  2  0
  4  6  1  0
  6  7  1  0
  7  8  1  0
  9  8  1  1
  9 10  1  0
 10 11  1  0
 11 12  2  0
 11 13  1  0
  7 14  1  0
 14 15  2  0
 15 16  1  0
 16 17  2  0
 17 18  1  0
 18 19  2  0
 19 20  1  0
 20 21  2  0
 21 22  1  0
 22 23  2  0
 13  9  1  0
 23 14  1  0
 23 18  1  0
M  END
>  <energy_score>  (461) 
-56.188846

>  <alias>  (461) 
None

>  <HIPPO Pose ID>  (461) 
69537

>  <smiles>  (461) 
CCNC(=O)CN(C[C@@H]1CC(=O)N1)c1ncnc2ccccc12

>  <inchikey>  (461) 
ZKQOKKKLFXRVDG-NSHDSACASA-N

>  <distance_score>  (461) 
1.100289

>  <ref_mols>  (461) 
Z1719a,Z0472a

>  <ref_pdb>  (461) 
Z1719a

>  <HIPPO Compound ID>  (461) 
138962

>  <name>  (461) 
P69537

>  <inspiration_score>  (461) 
None

$$$$
P69540
     RDKit          3D

 23 26  0  0  0  0  0  0  0  0999 V2000
   -2.7547    5.1012  -18.3493 C   0  0  0  0  0  0  0  0  0  0  0  0
   -2.5702    6.4122  -18.9367 N   0  0  0  0  0  0  0  0  0  0  0  0
   -3.8712    6.9929  -19.3457 C   0  0  0  0  0  0  0  0  0  0  0  0
   -3.9089    7.8102  -18.0495 C   0  0  0  0  0  0  0  0  0  0  0  0
   -2.3923    7.5205  -17.9539 C   0  0  1  0  0  0  0  0  0  0  0  0
   -1.5601    7.2804  -16.6712 C   0  0  0  0  0  0  0  0  0  0  0  0
   -2.2410    6.9215  -15.4352 N   0  0  0  0  0  0  0  0  0  0  0  0
   -3.2140    7.8519  -14.8734 C   0  0  0  0  0  0  0  0  0  0  0  0
   -4.5456    7.2062  -14.4158 C   0  0  0  0  0  0  0  0  0  0  0  0
   -4.8079    5.9862  -15.2114 N   0  0  0  0  0  0  0  0  0  0  0  0
   -6.1145    5.4957  -15.0032 C   0  0  0  0  0  0  0  0  0  0  0  0
   -6.6043    5.5328  -13.7539 N   0  0  0  0  0  0  0  0  0  0  0  0
   -7.8684    5.1304  -13.6019 C   0  0  0  0  0  0  0  0  0  0  0  0
   -8.7016    4.7412  -14.5699 N   0  0  0  0  0  0  0  0  0  0  0  0
   -8.1949    4.6611  -15.8013 C   0  0  0  0  0  0  0  0  0  0  0  0
   -9.0093    4.2110  -16.8347 C   0  0  0  0  0  0  0  0  0  0  0  0
   -8.5541    4.0898  -18.1421 C   0  0  0  0  0  0  0  0  0  0  0  0
   -7.2454    4.4229  -18.4147 C   0  0  0  0  0  0  0  0  0  0  0  0
   -6.5611    4.0941  -20.1125 Br  0  0  0  0  0  0  0  0  0  0  0  0
   -6.4198    4.9152  -17.4162 C   0  0  0  0  0  0  0  0  0  0  0  0
   -6.8779    5.0271  -16.0909 C   0  0  0  0  0  0  0  0  0  0  0  0
   -3.8045    4.9510  -14.8968 C   0  0  0  0  0  0  0  0  0  0  0  0
   -2.3640    5.5253  -15.0363 C   0  0  0  0  0  0  0  0  0  0  0  0
  1  2  1  0
  2  3  1  0
  3  4  1  0
  4  5  1  0
  5  6  1  1
  6  7  1  0
  7  8  1  0
  8  9  1  0
  9 10  1  0
 10 11  1  0
 11 12  2  0
 12 13  1  0
 13 14  2  0
 14 15  1  0
 15 16  2  0
 16 17  1  0
 17 18  2  0
 18 19  1  0
 18 20  1  0
 20 21  2  0
 10 22  1  0
 22 23  1  0
  5  2  1  0
 23  7  1  0
 21 11  1  0
 21 15  1  0
M  END
>  <energy_score>  (462) 
-23.301924

>  <alias>  (462) 
None

>  <HIPPO Pose ID>  (462) 
69540

>  <smiles>  (462) 
CN1CC[C@H]1CN1CCN(c2ncnc3ccc(Br)cc23)CC1

>  <inchikey>  (462) 
QBDSERDZBIAWBW-AWEZNQCLSA-N

>  <distance_score>  (462) 
1.955683

>  <ref_mols>  (462) 
Z1719a,Z0472a

>  <ref_pdb>  (462) 
Z1719a

>  <HIPPO Compound ID>  (462) 
138964

>  <name>  (462) 
P69540

>  <inspiration_score>  (462) 
None

$$$$
P69541
     RDKit          3D

 23 26  0  0  0  0  0  0  0  0999 V2000
   -0.4624    6.6712  -16.1092 C   0  0  0  0  0  0  0  0  0  0  0  0
   -1.5358    5.7152  -15.8750 N   0  0  0  0  0  0  0  0  0  0  0  0
   -2.3181    5.3860  -17.0669 C   0  0  0  0  0  0  0  0  0  0  0  0
   -2.8276    6.4149  -18.0410 C   0  0  0  0  0  0  0  0  0  0  0  0
   -2.8248    6.0116  -19.4809 C   0  0  0  0  0  0  0  0  0  0  0  0
   -2.7834    7.8507  -17.7420 N   0  0  0  0  0  0  0  0  0  0  0  0
   -3.9011    7.3242  -17.6393 N   0  0  0  0  0  0  0  0  0  0  0  0
   -2.2127    5.8810  -14.5786 C   0  0  0  0  0  0  0  0  0  0  0  0
   -2.7452    4.5272  -14.0687 C   0  0  0  0  0  0  0  0  0  0  0  0
   -4.2587    4.4317  -14.0050 C   0  0  0  0  0  0  0  0  0  0  0  0
   -4.8330    5.2618  -15.0728 N   0  0  0  0  0  0  0  0  0  0  0  0
   -6.2168    4.9672  -15.1958 C   0  0  0  0  0  0  0  0  0  0  0  0
   -6.9141    4.8581  -14.0503 N   0  0  0  0  0  0  0  0  0  0  0  0
   -8.2031    4.5569  -14.1746 C   0  0  0  0  0  0  0  0  0  0  0  0
   -8.8737    4.4188  -15.3179 N   0  0  0  0  0  0  0  0  0  0  0  0
   -8.1721    4.4994  -16.4486 C   0  0  0  0  0  0  0  0  0  0  0  0
   -8.8327    4.2842  -17.6518 C   0  0  0  0  0  0  0  0  0  0  0  0
   -8.1754    4.3648  -18.8793 C   0  0  0  0  0  0  0  0  0  0  0  0
   -6.8219    4.6583  -18.9136 C   0  0  0  0  0  0  0  0  0  0  0  0
   -6.1441    4.8574  -17.7145 C   0  0  0  0  0  0  0  0  0  0  0  0
   -6.8067    4.7893  -16.4659 C   0  0  0  0  0  0  0  0  0  0  0  0
   -4.6881    6.6868  -14.7431 C   0  0  0  0  0  0  0  0  0  0  0  0
   -3.2268    7.0299  -14.4407 C   0  0  0  0  0  0  0  0  0  0  0  0
  1  2  1  0
  2  3  1  0
  3  4  1  0
  4  5  1  0
  4  6  1  0
  6  7  2  0
  2  8  1  0
  8  9  1  0
  9 10  1  0
 10 11  1  0
 11 12  1  0
 12 13  2  0
 13 14  1  0
 14 15  2  0
 15 16  1  0
 16 17  2  0
 17 18  1  0
 18 19  2  0
 19 20  1  0
 20 21  2  0
 11 22  1  0
 22 23  1  0
  7  4  1  0
 23  8  1  0
 21 12  1  0
 21 16  1  0
M  END
>  <energy_score>  (463) 
-22.545605

>  <alias>  (463) 
None

>  <HIPPO Pose ID>  (463) 
69541

>  <smiles>  (463) 
CN(CC1(C)N=N1)C1CCN(c2ncnc3ccccc23)CC1

>  <inchikey>  (463) 
JZVIQZDJTBWELD-UHFFFAOYSA-N

>  <distance_score>  (463) 
1.441914

>  <ref_mols>  (463) 
Z1719a,Z0472a

>  <ref_pdb>  (463) 
Z1719a

>  <HIPPO Compound ID>  (463) 
138965

>  <name>  (463) 
P69541

>  <inspiration_score>  (463) 
None

$$$$
P69542
     RDKit          3D

 23 26  0  0  0  0  0  0  0  0999 V2000
   -3.1656    5.1388  -13.0557 C   0  0  0  0  0  0  0  0  0  0  0  0
   -3.7326    6.4836  -13.3792 C   0  0  0  0  0  0  0  0  0  0  0  0
   -3.8588    6.9329  -14.8235 C   0  0  0  0  0  0  0  0  0  0  0  0
   -4.3287    5.9588  -15.8258 N   0  0  0  0  0  0  0  0  0  0  0  0
   -3.3339    5.0435  -16.3919 C   0  0  0  0  0  0  0  0  0  0  0  0
   -2.6558    5.5295  -17.6269 C   0  0  0  0  0  0  0  0  0  0  0  0
   -2.5485    6.7536  -18.2554 C   0  0  0  0  0  0  0  0  0  0  0  0
   -1.7666    6.5427  -19.4160 C   0  0  0  0  0  0  0  0  0  0  0  0
   -1.4485    5.2059  -19.4231 C   0  0  0  0  0  0  0  0  0  0  0  0
   -1.9894    4.5847  -18.3448 O   0  0  0  0  0  0  0  0  0  0  0  0
   -5.6291    5.4639  -15.6921 C   0  0  0  0  0  0  0  0  0  0  0  0
   -6.1163    5.3913  -14.4461 N   0  0  0  0  0  0  0  0  0  0  0  0
   -7.3544    4.9112  -14.3135 C   0  0  0  0  0  0  0  0  0  0  0  0
   -7.9319    4.7722  -12.7159 Cl  0  0  0  0  0  0  0  0  0  0  0  0
   -8.1833    4.5289  -15.2762 N   0  0  0  0  0  0  0  0  0  0  0  0
   -7.7007    4.5921  -16.5133 C   0  0  0  0  0  0  0  0  0  0  0  0
   -8.5321    4.1880  -17.5488 C   0  0  0  0  0  0  0  0  0  0  0  0
   -8.1159    4.2192  -18.8775 C   0  0  0  0  0  0  0  0  0  0  0  0
   -6.8471    4.6797  -19.1836 C   0  0  0  0  0  0  0  0  0  0  0  0
   -6.0160    5.1281  -18.1651 C   0  0  0  0  0  0  0  0  0  0  0  0
   -6.4084    5.0634  -16.8061 C   0  0  0  0  0  0  0  0  0  0  0  0
   -4.5321    7.1696  -12.3543 N   0  0  0  0  0  0  0  0  0  0  0  0
   -3.3578    7.5578  -12.4307 N   0  0  0  0  0  0  0  0  0  0  0  0
  1  2  1  0
  2  3  1  0
  3  4  1  0
  4  5  1  0
  5  6  1  0
  6  7  2  0
  7  8  1  0
  8  9  2  0
  9 10  1  0
  4 11  1  0
 11 12  2  0
 12 13  1  0
 13 14  1  0
 13 15  2  0
 15 16  1  0
 16 17  2  0
 17 18  1  0
 18 19  2  0
 19 20  1  0
 20 21  2  0
  2 22  1  0
 22 23  2  0
 23  2  1  0
 10  6  1  0
 21 11  1  0
 21 16  1  0
M  END
>  <energy_score>  (464) 
-44.299333

>  <alias>  (464) 
None

>  <HIPPO Pose ID>  (464) 
69542

>  <smiles>  (464) 
CC1(CN(Cc2ccco2)c2nc(Cl)nc3ccccc23)N=N1

>  <inchikey>  (464) 
PQWMHKMECRHFOM-UHFFFAOYSA-N

>  <distance_score>  (464) 
0.799714

>  <ref_mols>  (464) 
Z1719a,Z0472a

>  <ref_pdb>  (464) 
Z1719a

>  <HIPPO Compound ID>  (464) 
138966

>  <name>  (464) 
P69542

>  <inspiration_score>  (464) 
None

$$$$
P69546
     RDKit          3D

 24 27  0  0  0  0  0  0  0  0999 V2000
    0.0130    6.9845  -12.9020 O   0  0  0  0  0  0  0  0  0  0  0  0
   -1.0739    7.4637  -13.1688 C   0  0  0  0  0  0  0  0  0  0  0  0
   -1.9974    8.1810  -12.2179 C   0  0  0  0  0  0  0  0  0  0  0  0
   -3.0115    8.8269  -13.1630 C   0  0  0  0  0  0  0  0  0  0  0  0
   -3.0540    7.8827  -14.3655 C   0  0  2  0  0  0  0  0  0  0  0  0
   -4.1028    6.7609  -14.1680 C   0  0  0  0  0  0  0  0  0  0  0  0
   -4.3484    5.9893  -15.4121 N   0  0  0  0  0  0  0  0  0  0  0  0
   -3.3331    4.9485  -15.7168 C   0  0  0  0  0  0  0  0  0  0  0  0
   -2.5611    5.2523  -16.9632 C   0  0  0  0  0  0  0  0  0  0  0  0
   -2.7306    4.9006  -18.2860 C   0  0  0  0  0  0  0  0  0  0  0  0
   -1.7378    5.5891  -19.0177 C   0  0  0  0  0  0  0  0  0  0  0  0
   -0.9818    6.2677  -18.0923 C   0  0  0  0  0  0  0  0  0  0  0  0
   -1.4669    6.0608  -16.8415 O   0  0  0  0  0  0  0  0  0  0  0  0
   -5.6449    5.3905  -15.3719 C   0  0  0  0  0  0  0  0  0  0  0  0
   -6.1349    5.0324  -14.1689 N   0  0  0  0  0  0  0  0  0  0  0  0
   -7.3465    4.4647  -14.1607 C   0  0  0  0  0  0  0  0  0  0  0  0
   -8.1116    4.2194  -15.2236 N   0  0  0  0  0  0  0  0  0  0  0  0
   -7.6073    4.5337  -16.4159 C   0  0  0  0  0  0  0  0  0  0  0  0
   -8.3453    4.2199  -17.5487 C   0  0  0  0  0  0  0  0  0  0  0  0
   -7.8769    4.5088  -18.8286 C   0  0  0  0  0  0  0  0  0  0  0  0
   -6.6723    5.1795  -18.9821 C   0  0  0  0  0  0  0  0  0  0  0  0
   -5.9465    5.5483  -17.8570 C   0  0  0  0  0  0  0  0  0  0  0  0
   -6.3674    5.1689  -16.5640 C   0  0  0  0  0  0  0  0  0  0  0  0
   -1.6953    7.4042  -14.3952 N   0  0  0  0  0  0  0  0  0  0  0  0
  1  2  2  0
  2  3  1  0
  3  4  1  0
  4  5  1  0
  5  6  1  1
  6  7  1  0
  7  8  1  0
  8  9  1  0
  9 10  2  0
 10 11  1  0
 11 12  2  0
 12 13  1  0
  7 14  1  0
 14 15  2  0
 15 16  1  0
 16 17  2  0
 17 18  1  0
 18 19  2  0
 19 20  1  0
 20 21  2  0
 21 22  1  0
 22 23  2  0
  5 24  1  0
 24  2  1  0
 13  9  1  0
 23 14  1  0
 23 18  1  0
M  END
>  <energy_score>  (465) 
-45.612046

>  <alias>  (465) 
None

>  <HIPPO Pose ID>  (465) 
69546

>  <smiles>  (465) 
O=C1CC[C@H](CN(Cc2ccco2)c2ncnc3ccccc23)N1

>  <inchikey>  (465) 
LYSLLQKHMPCKJN-CYBMUJFWSA-N

>  <distance_score>  (465) 
0.75942

>  <ref_mols>  (465) 
Z1719a,Z0472a

>  <ref_pdb>  (465) 
Z1719a

>  <HIPPO Compound ID>  (465) 
138970

>  <name>  (465) 
P69546

>  <inspiration_score>  (465) 
None

$$$$
P69549
     RDKit          3D

 24 26  0  0  0  0  0  0  0  0999 V2000
   -1.3173    5.3209  -19.2700 C   0  0  0  0  0  0  0  0  0  0  0  0
   -0.8992    5.9824  -17.9722 C   0  0  0  0  0  0  0  0  0  0  0  0
   -1.9016    5.8312  -16.9560 N   0  0  0  0  0  0  0  0  0  0  0  0
   -1.7639    5.7111  -15.4150 C   0  0  0  0  0  0  0  0  0  0  0  0
   -0.8211    5.7938  -14.7311 O   0  0  0  0  0  0  0  0  0  0  0  0
   -3.1967    5.4542  -14.8710 C   0  0  0  0  0  0  0  0  0  0  0  0
   -4.2298    6.0068  -15.7889 N   0  0  0  0  0  0  0  0  0  0  0  0
   -4.3596    7.4872  -15.8185 C   0  0  0  0  0  0  0  0  0  0  0  0
   -5.2013    8.1640  -14.7160 C   0  0  1  0  0  0  0  0  0  0  0  0
   -4.5678    8.1854  -13.3292 C   0  0  0  0  0  0  0  0  0  0  0  0
   -5.2221    9.3865  -12.6481 C   0  0  0  0  0  0  0  0  0  0  0  0
   -5.5596   10.2873  -13.8067 C   0  0  0  0  0  0  0  0  0  0  0  0
   -5.9652   11.4341  -13.7495 O   0  0  0  0  0  0  0  0  0  0  0  0
   -5.3879    9.5754  -14.9765 N   0  0  0  0  0  0  0  0  0  0  0  0
   -5.4817    5.3698  -15.6217 C   0  0  0  0  0  0  0  0  0  0  0  0
   -5.9021    5.1339  -14.3667 N   0  0  0  0  0  0  0  0  0  0  0  0
   -7.1390    4.6354  -14.2380 C   0  0  0  0  0  0  0  0  0  0  0  0
   -7.9976    4.3920  -15.2315 N   0  0  0  0  0  0  0  0  0  0  0  0
   -7.5471    4.5664  -16.4758 C   0  0  0  0  0  0  0  0  0  0  0  0
   -8.3786    4.2459  -17.5404 C   0  0  0  0  0  0  0  0  0  0  0  0
   -7.9537    4.3673  -18.8638 C   0  0  0  0  0  0  0  0  0  0  0  0
   -6.6735    4.8299  -19.1378 C   0  0  0  0  0  0  0  0  0  0  0  0
   -5.8376    5.1941  -18.0903 C   0  0  0  0  0  0  0  0  0  0  0  0
   -6.2650    5.0606  -16.7483 C   0  0  0  0  0  0  0  0  0  0  0  0
  1  2  1  0
  2  3  1  0
  3  4  1  0
  4  5  2  0
  4  6  1  0
  6  7  1  0
  7  8  1  0
  9  8  1  6
  9 10  1  0
 10 11  1  0
 11 12  1  0
 12 13  2  0
 12 14  1  0
  7 15  1  0
 15 16  2  0
 16 17  1  0
 17 18  2  0
 18 19  1  0
 19 20  2  0
 20 21  1  0
 21 22  2  0
 22 23  1  0
 23 24  2  0
 14  9  1  0
 24 15  1  0
 24 19  1  0
M  END
>  <energy_score>  (466) 
-48.658431

>  <alias>  (466) 
None

>  <HIPPO Pose ID>  (466) 
69549

>  <smiles>  (466) 
CCNC(=O)CN(C[C@H]1CCC(=O)N1)c1ncnc2ccccc12

>  <inchikey>  (466) 
GOFMDKYOLGRFBL-GFCCVEGCSA-N

>  <distance_score>  (466) 
1.040473

>  <ref_mols>  (466) 
Z1719a,Z0472a

>  <ref_pdb>  (466) 
Z1719a

>  <HIPPO Compound ID>  (466) 
138972

>  <name>  (466) 
P69549

>  <inspiration_score>  (466) 
None

$$$$
P69558
     RDKit          3D

 24 25  0  0  0  0  0  0  0  0999 V2000
   -2.5340    5.9042  -19.4001 C   0  0  0  0  0  0  0  0  0  0  0  0
   -2.1255    5.0264  -18.2364 C   0  0  0  0  0  0  0  0  0  0  0  0
   -2.6391    5.5151  -16.9851 N   0  0  0  0  0  0  0  0  0  0  0  0
   -3.0754    4.7471  -15.7031 C   0  0  0  0  0  0  0  0  0  0  0  0
   -3.0109    3.6102  -15.4435 O   0  0  0  0  0  0  0  0  0  0  0  0
   -3.5922    5.8112  -14.7281 C   0  0  0  0  0  0  0  0  0  0  0  0
   -4.7011    6.5351  -15.3582 N   0  0  0  0  0  0  0  0  0  0  0  0
   -4.7754    7.9979  -15.2205 C   0  0  0  0  0  0  0  0  0  0  0  0
   -5.0937    8.6963  -13.8328 C   0  0  0  0  0  0  0  0  0  0  0  0
   -6.6165    8.7439  -13.5781 C   0  0  0  0  0  0  0  0  0  0  0  0
   -4.4491    7.9381  -12.6517 C   0  0  0  0  0  0  0  0  0  0  0  0
   -4.5198   10.0982  -13.9102 N   0  0  0  0  0  0  0  0  0  0  0  0
   -5.1841   10.9803  -14.8761 C   0  0  0  0  0  0  0  0  0  0  0  0
   -4.3942   10.8043  -12.6314 C   0  0  0  0  0  0  0  0  0  0  0  0
   -5.8963    5.8048  -15.3345 C   0  0  0  0  0  0  0  0  0  0  0  0
   -6.3829    5.4555  -14.1331 N   0  0  0  0  0  0  0  0  0  0  0  0
   -7.5193    4.7496  -14.1305 C   0  0  0  0  0  0  0  0  0  0  0  0
   -8.2254    4.3824  -15.1998 N   0  0  0  0  0  0  0  0  0  0  0  0
   -7.6999    4.6658  -16.3914 C   0  0  0  0  0  0  0  0  0  0  0  0
   -8.3557    4.2196  -17.5311 C   0  0  0  0  0  0  0  0  0  0  0  0
   -7.8428    4.4456  -18.8078 C   0  0  0  0  0  0  0  0  0  0  0  0
   -6.6605    5.1563  -18.9565 C   0  0  0  0  0  0  0  0  0  0  0  0
   -6.0151    5.6531  -17.8298 C   0  0  0  0  0  0  0  0  0  0  0  0
   -6.5137    5.3968  -16.5333 C   0  0  0  0  0  0  0  0  0  0  0  0
  1  2  1  0
  2  3  1  0
  3  4  1  0
  4  5  2  0
  4  6  1  0
  6  7  1  0
  7  8  1  0
  8  9  1  0
  9 10  1  0
  9 11  1  0
  9 12  1  0
 12 13  1  0
 12 14  1  0
  7 15  1  0
 15 16  2  0
 16 17  1  0
 17 18  2  0
 18 19  1  0
 19 20  2  0
 20 21  1  0
 21 22  2  0
 22 23  1  0
 23 24  2  0
 24 15  1  0
 24 19  1  0
M  END
>  <energy_score>  (467) 
-55.262583

>  <alias>  (467) 
None

>  <HIPPO Pose ID>  (467) 
69558

>  <smiles>  (467) 
CCNC(=O)CN(CC(C)(C)N(C)C)c1ncnc2ccccc12

>  <inchikey>  (467) 
YLLRGVROCRJXKP-UHFFFAOYSA-N

>  <distance_score>  (467) 
1.502404

>  <ref_mols>  (467) 
Z1719a,Z0472a

>  <ref_pdb>  (467) 
Z1719a

>  <HIPPO Compound ID>  (467) 
138981

>  <name>  (467) 
P69558

>  <inspiration_score>  (467) 
None

$$$$
P69559
     RDKit          3D

 16 18  0  0  0  0  0  0  0  0999 V2000
   -5.7271    6.0803  -19.9972 Cl  0  0  0  0  0  0  0  0  0  0  0  0
   -6.4610    5.3668  -18.6347 C   0  0  0  0  0  0  0  0  0  0  0  0
   -7.7372    4.8544  -18.6077 C   0  0  0  0  0  0  0  0  0  0  0  0
   -8.2803    4.5385  -17.3653 C   0  0  0  0  0  0  0  0  0  0  0  0
   -7.5353    4.6902  -16.2066 C   0  0  0  0  0  0  0  0  0  0  0  0
   -8.0942    4.4244  -15.0205 N   0  0  0  0  0  0  0  0  0  0  0  0
   -7.3010    4.5392  -13.9512 C   0  0  0  0  0  0  0  0  0  0  0  0
   -6.0124    4.9058  -13.9563 N   0  0  0  0  0  0  0  0  0  0  0  0
   -5.4854    5.1793  -15.1657 C   0  0  0  0  0  0  0  0  0  0  0  0
   -4.1151    5.5402  -15.1442 N   0  0  0  0  0  0  0  0  0  0  0  0
   -3.2831    4.5691  -15.8527 C   0  0  0  0  0  0  0  0  0  0  0  0
   -2.2462    5.2731  -16.6793 C   0  0  0  0  0  0  0  0  0  0  0  0
   -2.5555    6.4367  -17.5974 C   0  0  0  0  0  0  0  0  0  0  0  0
   -2.2631    5.0889  -18.1798 C   0  0  0  0  0  0  0  0  0  0  0  0
   -6.2146    5.1237  -16.3582 C   0  0  0  0  0  0  0  0  0  0  0  0
   -5.6896    5.4798  -17.5504 N   0  0  0  0  0  0  0  0  0  0  0  0
  1  2  1  0
  2  3  2  0
  3  4  1  0
  4  5  2  0
  5  6  1  0
  6  7  2  0
  7  8  1  0
  8  9  2  0
  9 10  1  0
 10 11  1  0
 11 12  1  0
 12 13  1  0
 13 14  1  0
  9 15  1  0
 15 16  2  0
 16  2  1  0
 15  5  1  0
 14 12  1  0
M  END
>  <energy_score>  (468) 
-12.380694

>  <alias>  (468) 
None

>  <HIPPO Pose ID>  (468) 
69559

>  <smiles>  (468) 
Clc1ccc2ncnc(NCC3CC3)c2n1

>  <inchikey>  (468) 
HNNOJYLMVBZCSM-UHFFFAOYSA-N

>  <distance_score>  (468) 
0.997604

>  <ref_mols>  (468) 
Z1719a,Z0472a

>  <ref_pdb>  (468) 
Z0472a

>  <HIPPO Compound ID>  (468) 
138983

>  <name>  (468) 
P69559

>  <inspiration_score>  (468) 
None

$$$$
P69561
     RDKit          3D

 16 17  0  0  0  0  0  0  0  0999 V2000
   -2.4004    4.2013  -15.1983 F   0  0  0  0  0  0  0  0  0  0  0  0
   -1.8177    5.2075  -15.9018 C   0  0  0  0  0  0  0  0  0  0  0  0
   -2.7327    5.6291  -17.0322 C   0  0  0  0  0  0  0  0  0  0  0  0
   -3.5801    6.8010  -16.5717 C   0  0  0  0  0  0  0  0  0  0  0  0
   -4.4273    6.4615  -15.4351 N   0  0  0  0  0  0  0  0  0  0  0  0
   -5.5849    5.7002  -15.4796 C   0  0  0  0  0  0  0  0  0  0  0  0
   -6.0285    5.2994  -14.2698 N   0  0  0  0  0  0  0  0  0  0  0  0
   -7.1916    4.6327  -14.2510 C   0  0  0  0  0  0  0  0  0  0  0  0
   -7.9465    4.3348  -15.3119 N   0  0  0  0  0  0  0  0  0  0  0  0
   -7.4588    4.7043  -16.5023 C   0  0  0  0  0  0  0  0  0  0  0  0
   -8.1234    4.3736  -17.6741 C   0  0  0  0  0  0  0  0  0  0  0  0
   -7.6071    4.7364  -18.9193 C   0  0  0  0  0  0  0  0  0  0  0  0
   -6.4755    5.5151  -18.9386 C   0  0  0  0  0  0  0  0  0  0  0  0
   -5.7669    6.2977  -20.2769 Cl  0  0  0  0  0  0  0  0  0  0  0  0
   -5.8116    5.8470  -17.8392 N   0  0  0  0  0  0  0  0  0  0  0  0
   -6.2726    5.4238  -16.6522 C   0  0  0  0  0  0  0  0  0  0  0  0
  1  2  1  0
  2  3  1  0
  3  4  1  0
  4  5  1  0
  5  6  1  0
  6  7  2  0
  7  8  1  0
  8  9  2  0
  9 10  1  0
 10 11  2  0
 11 12  1  0
 12 13  2  0
 13 14  1  0
 13 15  1  0
 15 16  2  0
 16  6  1  0
 16 10  1  0
M  END
>  <energy_score>  (469) 
-9.638257

>  <alias>  (469) 
None

>  <HIPPO Pose ID>  (469) 
69561

>  <smiles>  (469) 
FCCCNc1ncnc2ccc(Cl)nc12

>  <inchikey>  (469) 
QUAOSYPDZPLPSB-UHFFFAOYSA-N

>  <distance_score>  (469) 
1.078181

>  <ref_mols>  (469) 
Z0472a,Z1719a

>  <ref_pdb>  (469) 
Z0472a

>  <HIPPO Compound ID>  (469) 
138985

>  <name>  (469) 
P69561

>  <inspiration_score>  (469) 
None

$$$$
P69563
     RDKit          3D

 16 17  0  0  0  0  0  0  0  0999 V2000
   -2.5945    4.0601  -14.6442 C   0  0  0  0  0  0  0  0  0  0  0  0
   -2.1625    5.1440  -15.6161 C   0  0  0  0  0  0  0  0  0  0  0  0
   -3.2914    5.5842  -16.5387 C   0  0  2  0  0  0  0  0  0  0  0  0
   -2.7336    6.3985  -17.5600 O   0  0  0  0  0  0  0  0  0  0  0  0
   -4.2140    6.4355  -15.7969 N   0  0  0  0  0  0  0  0  0  0  0  0
   -5.4677    5.7565  -15.5866 C   0  0  0  0  0  0  0  0  0  0  0  0
   -5.8091    5.3479  -14.3536 N   0  0  0  0  0  0  0  0  0  0  0  0
   -6.9734    4.6837  -14.2620 C   0  0  0  0  0  0  0  0  0  0  0  0
   -7.7998    4.3825  -15.2762 N   0  0  0  0  0  0  0  0  0  0  0  0
   -7.4049    4.7721  -16.4979 C   0  0  0  0  0  0  0  0  0  0  0  0
   -8.0870    4.4290  -17.6562 C   0  0  0  0  0  0  0  0  0  0  0  0
   -7.5980    4.8098  -18.9118 C   0  0  0  0  0  0  0  0  0  0  0  0
   -6.5001    5.6432  -18.9585 C   0  0  0  0  0  0  0  0  0  0  0  0
   -5.8078    6.3975  -20.3219 Cl  0  0  0  0  0  0  0  0  0  0  0  0
   -5.8410    6.0200  -17.8708 N   0  0  0  0  0  0  0  0  0  0  0  0
   -6.2540    5.5242  -16.6990 C   0  0  0  0  0  0  0  0  0  0  0  0
  1  2  1  0
  2  3  1  0
  3  4  1  6
  3  5  1  0
  5  6  1  0
  6  7  2  0
  7  8  1  0
  8  9  2  0
  9 10  1  0
 10 11  2  0
 11 12  1  0
 12 13  2  0
 13 14  1  0
 13 15  1  0
 15 16  2  0
 16  6  1  0
 16 10  1  0
M  END
>  <energy_score>  (470) 
-15.018493

>  <alias>  (470) 
None

>  <HIPPO Pose ID>  (470) 
69563

>  <smiles>  (470) 
CC[C@H](O)Nc1ncnc2ccc(Cl)nc12

>  <inchikey>  (470) 
ATHGCNFVOLYWHU-QMMMGPOBSA-N

>  <distance_score>  (470) 
0.783369

>  <ref_mols>  (470) 
Z1719a,Z0472a

>  <ref_pdb>  (470) 
Z0472a

>  <HIPPO Compound ID>  (470) 
138987

>  <name>  (470) 
P69563

>  <inspiration_score>  (470) 
None

$$$$
P69565
     RDKit          3D

 16 17  0  0  0  0  0  0  0  0999 V2000
   -1.8703    6.8643  -17.3808 C   0  0  0  0  0  0  0  0  0  0  0  0
   -2.8319    5.7434  -17.7062 C   0  0  1  0  0  0  0  0  0  0  0  0
   -2.0055    4.6554  -19.1221 Br  0  0  0  0  0  0  0  0  0  0  0  0
   -3.1804    4.8604  -16.4996 C   0  0  0  0  0  0  0  0  0  0  0  0
   -3.9669    5.5675  -15.4686 N   0  0  0  0  0  0  0  0  0  0  0  0
   -5.3217    5.1614  -15.3722 C   0  0  0  0  0  0  0  0  0  0  0  0
   -5.7259    4.8307  -14.1318 N   0  0  0  0  0  0  0  0  0  0  0  0
   -7.0033    4.4351  -14.0144 C   0  0  0  0  0  0  0  0  0  0  0  0
   -7.9004    4.3452  -15.0032 N   0  0  0  0  0  0  0  0  0  0  0  0
   -7.4643    4.6670  -16.2263 C   0  0  0  0  0  0  0  0  0  0  0  0
   -8.2982    4.5455  -17.3296 C   0  0  0  0  0  0  0  0  0  0  0  0
   -7.8607    4.9143  -18.6025 C   0  0  0  0  0  0  0  0  0  0  0  0
   -6.5994    5.4507  -18.7115 C   0  0  0  0  0  0  0  0  0  0  0  0
   -5.9247    6.2091  -20.0812 Cl  0  0  0  0  0  0  0  0  0  0  0  0
   -5.7631    5.5498  -17.6806 N   0  0  0  0  0  0  0  0  0  0  0  0
   -6.1730    5.1350  -16.4736 C   0  0  0  0  0  0  0  0  0  0  0  0
  2  1  1  1
  2  3  1  0
  2  4  1  0
  4  5  1  0
  5  6  1  0
  6  7  2  0
  7  8  1  0
  8  9  2  0
  9 10  1  0
 10 11  2  0
 11 12  1  0
 12 13  2  0
 13 14  1  0
 13 15  1  0
 15 16  2  0
 16  6  1  0
 16 10  1  0
M  END
>  <energy_score>  (471) 
-8.651278

>  <alias>  (471) 
None

>  <HIPPO Pose ID>  (471) 
69565

>  <smiles>  (471) 
C[C@@H](Br)CNc1ncnc2ccc(Cl)nc12

>  <inchikey>  (471) 
SEXPCZQMTFVZRI-ZCFIWIBFSA-N

>  <distance_score>  (471) 
1.011127

>  <ref_mols>  (471) 
Z1719a,Z0472a

>  <ref_pdb>  (471) 
Z0472a

>  <HIPPO Compound ID>  (471) 
138988

>  <name>  (471) 
P69565

>  <inspiration_score>  (471) 
None

$$$$
P69567
     RDKit          3D

 16 17  0  0  0  0  0  0  0  0999 V2000
   -1.7038    5.8558  -18.7316 C   0  0  0  0  0  0  0  0  0  0  0  0
   -2.7980    5.5092  -17.7454 C   0  0  0  0  0  0  0  0  0  0  0  0
   -2.2927    5.4089  -16.3037 C   0  0  0  0  0  0  0  0  0  0  0  0
   -3.3734    4.8680  -15.3598 C   0  0  0  0  0  0  0  0  0  0  0  0
   -4.3960    5.8965  -15.1406 N   0  0  0  0  0  0  0  0  0  0  0  0
   -5.7042    5.3261  -15.1358 C   0  0  0  0  0  0  0  0  0  0  0  0
   -6.1882    4.8754  -13.9664 N   0  0  0  0  0  0  0  0  0  0  0  0
   -7.4201    4.3527  -14.0106 C   0  0  0  0  0  0  0  0  0  0  0  0
   -8.1891    4.2296  -15.1003 N   0  0  0  0  0  0  0  0  0  0  0  0
   -7.6487    4.6241  -16.2577 C   0  0  0  0  0  0  0  0  0  0  0  0
   -8.3233    4.4303  -17.4531 C   0  0  0  0  0  0  0  0  0  0  0  0
   -7.7522    4.8162  -18.6644 C   0  0  0  0  0  0  0  0  0  0  0  0
   -6.5439    5.4744  -18.6234 C   0  0  0  0  0  0  0  0  0  0  0  0
   -5.7692    6.1820  -19.9691 Cl  0  0  0  0  0  0  0  0  0  0  0  0
   -5.8641    5.6979  -17.4922 N   0  0  0  0  0  0  0  0  0  0  0  0
   -6.3945    5.2269  -16.3446 C   0  0  0  0  0  0  0  0  0  0  0  0
  1  2  1  0
  2  3  1  0
  3  4  1  0
  4  5  1  0
  5  6  1  0
  6  7  2  0
  7  8  1  0
  8  9  2  0
  9 10  1  0
 10 11  2  0
 11 12  1  0
 12 13  2  0
 13 14  1  0
 13 15  1  0
 15 16  2  0
 16  6  1  0
 16 10  1  0
M  END
>  <energy_score>  (472) 
-8.85207

>  <alias>  (472) 
None

>  <HIPPO Pose ID>  (472) 
69567

>  <smiles>  (472) 
CCCCNc1ncnc2ccc(Cl)nc12

>  <inchikey>  (472) 
JJIHCOUQXCABIB-UHFFFAOYSA-N

>  <distance_score>  (472) 
0.961176

>  <ref_mols>  (472) 
Z0472a,Z1719a

>  <ref_pdb>  (472) 
Z0472a

>  <HIPPO Compound ID>  (472) 
138989

>  <name>  (472) 
P69567

>  <inspiration_score>  (472) 
None

$$$$
P69569
     RDKit          3D

 16 17  0  0  0  0  0  0  0  0999 V2000
   -1.7823    5.7353  -18.0485 C   0  0  0  0  0  0  0  0  0  0  0  0
   -3.1727    5.6701  -17.4378 C   0  0  2  0  0  0  0  0  0  0  0  0
   -3.7480    7.3422  -17.1918 Cl  0  0  0  0  0  0  0  0  0  0  0  0
   -3.2321    4.8235  -16.1493 C   0  0  0  0  0  0  0  0  0  0  0  0
   -4.2182    5.2200  -15.1361 N   0  0  0  0  0  0  0  0  0  0  0  0
   -5.5640    4.8617  -15.1836 C   0  0  0  0  0  0  0  0  0  0  0  0
   -6.0682    4.6037  -13.9603 N   0  0  0  0  0  0  0  0  0  0  0  0
   -7.3783    4.3314  -13.8945 C   0  0  0  0  0  0  0  0  0  0  0  0
   -8.2336    4.3150  -14.9194 N   0  0  0  0  0  0  0  0  0  0  0  0
   -7.7095    4.5456  -16.1244 C   0  0  0  0  0  0  0  0  0  0  0  0
   -8.5340    4.5109  -17.2423 C   0  0  0  0  0  0  0  0  0  0  0  0
   -8.0416    4.8228  -18.5065 C   0  0  0  0  0  0  0  0  0  0  0  0
   -6.7187    5.1742  -18.5900 C   0  0  0  0  0  0  0  0  0  0  0  0
   -5.9590    5.8623  -19.9482 Cl  0  0  0  0  0  0  0  0  0  0  0  0
   -5.8840    5.1447  -17.5497 N   0  0  0  0  0  0  0  0  0  0  0  0
   -6.3590    4.8462  -16.3321 C   0  0  0  0  0  0  0  0  0  0  0  0
  2  1  1  1
  2  3  1  0
  2  4  1  0
  4  5  1  0
  5  6  1  0
  6  7  2  0
  7  8  1  0
  8  9  2  0
  9 10  1  0
 10 11  2  0
 11 12  1  0
 12 13  2  0
 13 14  1  0
 13 15  1  0
 15 16  2  0
 16  6  1  0
 16 10  1  0
M  END
>  <energy_score>  (473) 
-20.910495

>  <alias>  (473) 
None

>  <HIPPO Pose ID>  (473) 
69569

>  <smiles>  (473) 
C[C@H](Cl)CNc1ncnc2ccc(Cl)nc12

>  <inchikey>  (473) 
LBRZJMYGAKWVMD-LURJTMIESA-N

>  <distance_score>  (473) 
1.020605

>  <ref_mols>  (473) 
Z0472a,Z1719a

>  <ref_pdb>  (473) 
Z0472a

>  <HIPPO Compound ID>  (473) 
138991

>  <name>  (473) 
P69569

>  <inspiration_score>  (473) 
None

$$$$
P69572
     RDKit          3D

 16 18  0  0  0  0  0  0  0  0999 V2000
   -5.5646    6.2621  -20.0807 Cl  0  0  0  0  0  0  0  0  0  0  0  0
   -6.3282    5.5148  -18.7505 C   0  0  0  0  0  0  0  0  0  0  0  0
   -7.4943    4.7928  -18.8226 C   0  0  0  0  0  0  0  0  0  0  0  0
   -8.1028    4.4294  -17.6263 C   0  0  0  0  0  0  0  0  0  0  0  0
   -7.4978    4.7040  -16.4122 C   0  0  0  0  0  0  0  0  0  0  0  0
   -8.1144    4.3354  -15.2846 N   0  0  0  0  0  0  0  0  0  0  0  0
   -7.4561    4.5598  -14.1489 C   0  0  0  0  0  0  0  0  0  0  0  0
   -6.2555    5.1400  -14.0417 N   0  0  0  0  0  0  0  0  0  0  0  0
   -5.6685    5.5279  -15.1975 C   0  0  0  0  0  0  0  0  0  0  0  0
   -4.4226    6.1503  -14.9857 N   0  0  0  0  0  0  0  0  0  0  0  0
   -3.2077    6.0323  -15.7161 C   0  0  1  0  0  0  0  0  0  0  0  0
   -2.8345    4.6097  -16.1153 C   0  0  0  0  0  0  0  0  0  0  0  0
   -2.6019    5.2166  -17.5024 C   0  0  0  0  0  0  0  0  0  0  0  0
   -3.1345    6.4908  -17.0767 O   0  0  0  0  0  0  0  0  0  0  0  0
   -6.2565    5.3513  -16.4501 C   0  0  0  0  0  0  0  0  0  0  0  0
   -5.7035    5.7852  -17.6005 N   0  0  0  0  0  0  0  0  0  0  0  0
  1  2  1  0
  2  3  2  0
  3  4  1  0
  4  5  2  0
  5  6  1  0
  6  7  2  0
  7  8  1  0
  8  9  2  0
  9 10  1  0
 11 10  1  6
 11 12  1  0
 12 13  1  0
 13 14  1  0
  9 15  1  0
 15 16  2  0
 16  2  1  0
 15  5  1  0
 14 11  1  0
M  END
>  <energy_score>  (474) 
-6.907711

>  <alias>  (474) 
None

>  <HIPPO Pose ID>  (474) 
69572

>  <smiles>  (474) 
Clc1ccc2ncnc(N[C@H]3CCO3)c2n1

>  <inchikey>  (474) 
MZAWLKLBPNZGIL-MRVPVSSYSA-N

>  <distance_score>  (474) 
0.89636

>  <ref_mols>  (474) 
Z0472a,Z1719a

>  <ref_pdb>  (474) 
Z0472a

>  <HIPPO Compound ID>  (474) 
138992

>  <name>  (474) 
P69572

>  <inspiration_score>  (474) 
None

$$$$
P69573
     RDKit          3D

 16 17  0  0  0  0  0  0  0  0999 V2000
   -2.4977    6.5872  -17.8881 C   0  0  0  0  0  0  0  0  0  0  0  0
   -2.5812    5.2391  -17.1851 C   0  0  2  0  0  0  0  0  0  0  0  0
   -3.3237    4.3366  -17.9933 O   0  0  0  0  0  0  0  0  0  0  0  0
   -3.0665    5.2495  -15.7122 C   0  0  0  0  0  0  0  0  0  0  0  0
   -4.2116    6.1243  -15.4340 N   0  0  0  0  0  0  0  0  0  0  0  0
   -5.4528    5.4409  -15.3415 C   0  0  0  0  0  0  0  0  0  0  0  0
   -5.8456    4.9999  -14.1340 N   0  0  0  0  0  0  0  0  0  0  0  0
   -7.0598    4.4336  -14.0852 C   0  0  0  0  0  0  0  0  0  0  0  0
   -7.8952    4.2619  -15.1176 N   0  0  0  0  0  0  0  0  0  0  0  0
   -7.4451    4.6532  -16.3153 C   0  0  0  0  0  0  0  0  0  0  0  0
   -8.1927    4.4476  -17.4646 C   0  0  0  0  0  0  0  0  0  0  0  0
   -7.7161    4.8580  -18.7102 C   0  0  0  0  0  0  0  0  0  0  0  0
   -6.5198    5.5382  -18.7504 C   0  0  0  0  0  0  0  0  0  0  0  0
   -5.8257    6.2920  -20.1132 Cl  0  0  0  0  0  0  0  0  0  0  0  0
   -5.7536    5.7438  -17.6727 N   0  0  0  0  0  0  0  0  0  0  0  0
   -6.2129    5.2818  -16.4925 C   0  0  0  0  0  0  0  0  0  0  0  0
  2  1  1  6
  2  3  1  0
  2  4  1  0
  4  5  1  0
  5  6  1  0
  6  7  2  0
  7  8  1  0
  8  9  2  0
  9 10  1  0
 10 11  2  0
 11 12  1  0
 12 13  2  0
 13 14  1  0
 13 15  1  0
 15 16  2  0
 16  6  1  0
 16 10  1  0
M  END
>  <energy_score>  (475) 
-13.18012

>  <alias>  (475) 
None

>  <HIPPO Pose ID>  (475) 
69573

>  <smiles>  (475) 
C[C@H](O)CNc1ncnc2ccc(Cl)nc12

>  <inchikey>  (475) 
ROSHECPLBZLNJU-LURJTMIESA-N

>  <distance_score>  (475) 
0.78592

>  <ref_mols>  (475) 
Z0472a,Z1719a

>  <ref_pdb>  (475) 
Z0472a

>  <HIPPO Compound ID>  (475) 
138993

>  <name>  (475) 
P69573

>  <inspiration_score>  (475) 
None

$$$$
P69575
     RDKit          3D

 16 17  0  0  0  0  0  0  0  0999 V2000
   -2.5059    4.0531  -14.6106 C   0  0  0  0  0  0  0  0  0  0  0  0
   -2.1433    5.1600  -15.5948 C   0  0  0  0  0  0  0  0  0  0  0  0
   -3.3542    5.5762  -16.4301 C   0  0  2  0  0  0  0  0  0  0  0  0
   -2.7812    6.6735  -17.7644 S   0  0  0  0  0  0  0  0  0  0  0  0
   -4.3039    6.2956  -15.5691 N   0  0  0  0  0  0  0  0  0  0  0  0
   -5.5716    5.6692  -15.4884 C   0  0  0  0  0  0  0  0  0  0  0  0
   -5.9989    5.3395  -14.2562 N   0  0  0  0  0  0  0  0  0  0  0  0
   -7.1930    4.7282  -14.1986 C   0  0  0  0  0  0  0  0  0  0  0  0
   -7.9803    4.4275  -15.2400 N   0  0  0  0  0  0  0  0  0  0  0  0
   -7.5140    4.7595  -16.4526 C   0  0  0  0  0  0  0  0  0  0  0  0
   -8.1986    4.4313  -17.6141 C   0  0  0  0  0  0  0  0  0  0  0  0
   -7.6860    4.7743  -18.8689 C   0  0  0  0  0  0  0  0  0  0  0  0
   -6.5363    5.5298  -18.9105 C   0  0  0  0  0  0  0  0  0  0  0  0
   -5.8188    6.2768  -20.2626 Cl  0  0  0  0  0  0  0  0  0  0  0  0
   -5.8479    5.8520  -17.8234 N   0  0  0  0  0  0  0  0  0  0  0  0
   -6.3103    5.4347  -16.6364 C   0  0  0  0  0  0  0  0  0  0  0  0
  1  2  1  0
  2  3  1  0
  3  4  1  6
  3  5  1  0
  5  6  1  0
  6  7  2  0
  7  8  1  0
  8  9  2  0
  9 10  1  0
 10 11  2  0
 11 12  1  0
 12 13  2  0
 13 14  1  0
 13 15  1  0
 15 16  2  0
 16  6  1  0
 16 10  1  0
M  END
>  <energy_score>  (476) 
-21.856686

>  <alias>  (476) 
None

>  <HIPPO Pose ID>  (476) 
69575

>  <smiles>  (476) 
CC[C@H](S)Nc1ncnc2ccc(Cl)nc12

>  <inchikey>  (476) 
NUIBOZIUCNISBV-QMMMGPOBSA-N

>  <distance_score>  (476) 
0.759482

>  <ref_mols>  (476) 
Z1719a,Z0472a

>  <ref_pdb>  (476) 
Z0472a

>  <HIPPO Compound ID>  (476) 
138994

>  <name>  (476) 
P69575

>  <inspiration_score>  (476) 
None

$$$$
P69577
     RDKit          3D

 16 18  0  0  0  0  0  0  0  0999 V2000
   -5.7176    6.2274  -20.0544 Cl  0  0  0  0  0  0  0  0  0  0  0  0
   -6.4443    5.5001  -18.6941 C   0  0  0  0  0  0  0  0  0  0  0  0
   -7.6632    4.8574  -18.6918 C   0  0  0  0  0  0  0  0  0  0  0  0
   -8.2041    4.4840  -17.4621 C   0  0  0  0  0  0  0  0  0  0  0  0
   -7.4943    4.6829  -16.2894 C   0  0  0  0  0  0  0  0  0  0  0  0
   -8.0051    4.3135  -15.1089 N   0  0  0  0  0  0  0  0  0  0  0  0
   -7.2007    4.4485  -14.0466 C   0  0  0  0  0  0  0  0  0  0  0  0
   -5.9566    4.9462  -14.0535 N   0  0  0  0  0  0  0  0  0  0  0  0
   -5.5014    5.3673  -15.2469 C   0  0  0  0  0  0  0  0  0  0  0  0
   -4.1709    5.8787  -15.3202 N   0  0  0  0  0  0  0  0  0  0  0  0
   -3.2197    4.7877  -15.5313 C   0  0  0  0  0  0  0  0  0  0  0  0
   -2.2201    5.1755  -16.5861 C   0  0  1  0  0  0  0  0  0  0  0  0
   -2.4971    4.8675  -18.0392 C   0  0  0  0  0  0  0  0  0  0  0  0
   -2.6287    6.1927  -17.5233 O   0  0  0  0  0  0  0  0  0  0  0  0
   -6.2321    5.2618  -16.4261 C   0  0  0  0  0  0  0  0  0  0  0  0
   -5.7168    5.7009  -17.5916 N   0  0  0  0  0  0  0  0  0  0  0  0
  1  2  1  0
  2  3  2  0
  3  4  1  0
  4  5  2  0
  5  6  1  0
  6  7  2  0
  7  8  1  0
  8  9  2  0
  9 10  1  0
 10 11  1  0
 12 11  1  1
 12 13  1  0
 13 14  1  0
  9 15  1  0
 15 16  2  0
 16  2  1  0
 15  5  1  0
 14 12  1  0
M  END
>  <energy_score>  (477) 
-11.209186

>  <alias>  (477) 
None

>  <HIPPO Pose ID>  (477) 
69577

>  <smiles>  (477) 
Clc1ccc2ncnc(NC[C@H]3CO3)c2n1

>  <inchikey>  (477) 
HOXDMVMEOKOITL-LURJTMIESA-N

>  <distance_score>  (477) 
0.911061

>  <ref_mols>  (477) 
Z1719a,Z0472a

>  <ref_pdb>  (477) 
Z0472a

>  <HIPPO Compound ID>  (477) 
138995

>  <name>  (477) 
P69577

>  <inspiration_score>  (477) 
None

$$$$
P69579
     RDKit          3D

 17 18  0  0  0  0  0  0  0  0999 V2000
   -3.2366    3.0893  -14.5550 C   0  0  0  0  0  0  0  0  0  0  0  0
   -2.4170    4.3596  -14.3986 C   0  0  0  0  0  0  0  0  0  0  0  0
   -2.1848    5.1678  -15.6762 C   0  0  0  0  0  0  0  0  0  0  0  0
   -3.4348    5.4911  -16.4690 C   0  0  2  0  0  0  0  0  0  0  0  0
   -3.0485    6.2016  -17.5706 F   0  0  0  0  0  0  0  0  0  0  0  0
   -4.2995    6.3649  -15.6731 N   0  0  0  0  0  0  0  0  0  0  0  0
   -5.5923    5.7695  -15.5156 C   0  0  0  0  0  0  0  0  0  0  0  0
   -5.9859    5.3885  -14.2883 N   0  0  0  0  0  0  0  0  0  0  0  0
   -7.1664    4.7522  -14.2218 C   0  0  0  0  0  0  0  0  0  0  0  0
   -7.9624    4.4486  -15.2582 N   0  0  0  0  0  0  0  0  0  0  0  0
   -7.5209    4.8126  -16.4707 C   0  0  0  0  0  0  0  0  0  0  0  0
   -8.1739    4.4538  -17.6407 C   0  0  0  0  0  0  0  0  0  0  0  0
   -7.6464    4.8047  -18.8885 C   0  0  0  0  0  0  0  0  0  0  0  0
   -6.5319    5.6160  -18.9186 C   0  0  0  0  0  0  0  0  0  0  0  0
   -5.7936    6.3292  -20.2781 Cl  0  0  0  0  0  0  0  0  0  0  0  0
   -5.8885    5.9940  -17.8211 N   0  0  0  0  0  0  0  0  0  0  0  0
   -6.3497    5.5413  -16.6493 C   0  0  0  0  0  0  0  0  0  0  0  0
  1  2  1  0
  2  3  1  0
  3  4  1  0
  4  5  1  6
  4  6  1  0
  6  7  1  0
  7  8  2  0
  8  9  1  0
  9 10  2  0
 10 11  1  0
 11 12  2  0
 12 13  1  0
 13 14  2  0
 14 15  1  0
 14 16  1  0
 16 17  2  0
 17  7  1  0
 17 11  1  0
M  END
>  <energy_score>  (478) 
-9.418972

>  <alias>  (478) 
None

>  <HIPPO Pose ID>  (478) 
69579

>  <smiles>  (478) 
CCC[C@H](F)Nc1ncnc2ccc(Cl)nc12

>  <inchikey>  (478) 
GBOMDKVDPREFOD-SECBINFHSA-N

>  <distance_score>  (478) 
0.777064

>  <ref_mols>  (478) 
Z0472a,Z1719a

>  <ref_pdb>  (478) 
Z0472a

>  <HIPPO Compound ID>  (478) 
138996

>  <name>  (478) 
P69579

>  <inspiration_score>  (478) 
None

$$$$
P69583
     RDKit          3D

 17 19  0  0  0  0  0  0  0  0999 V2000
   -2.7473    3.3422  -15.9838 F   0  0  0  0  0  0  0  0  0  0  0  0
   -3.3067    4.3467  -16.7397 C   0  0  2  0  0  0  0  0  0  0  0  0
   -2.4940    5.1513  -17.7047 C   0  0  0  0  0  0  0  0  0  0  0  0
   -2.8396    5.7044  -16.3446 C   0  0  1  0  0  0  0  0  0  0  0  0
   -3.8116    6.8026  -16.1545 C   0  0  0  0  0  0  0  0  0  0  0  0
   -4.7603    6.4989  -15.1076 N   0  0  0  0  0  0  0  0  0  0  0  0
   -5.9188    5.7555  -15.2622 C   0  0  0  0  0  0  0  0  0  0  0  0
   -6.4193    5.3000  -14.0966 N   0  0  0  0  0  0  0  0  0  0  0  0
   -7.5585    4.5995  -14.1660 C   0  0  0  0  0  0  0  0  0  0  0  0
   -8.2414    4.3215  -15.2792 N   0  0  0  0  0  0  0  0  0  0  0  0
   -7.6987    4.7410  -16.4254 C   0  0  0  0  0  0  0  0  0  0  0  0
   -8.2754    4.3842  -17.6352 C   0  0  0  0  0  0  0  0  0  0  0  0
   -7.6869    4.7468  -18.8458 C   0  0  0  0  0  0  0  0  0  0  0  0
   -6.5826    5.5608  -18.7960 C   0  0  0  0  0  0  0  0  0  0  0  0
   -5.7521    6.2311  -20.1250 Cl  0  0  0  0  0  0  0  0  0  0  0  0
   -6.0206    5.9543  -17.6545 N   0  0  0  0  0  0  0  0  0  0  0  0
   -6.5360    5.5115  -16.4895 C   0  0  0  0  0  0  0  0  0  0  0  0
  2  1  1  1
  2  3  1  0
  3  4  1  0
  4  5  1  6
  5  6  1  0
  6  7  1  0
  7  8  2  0
  8  9  1  0
  9 10  2  0
 10 11  1  0
 11 12  2  0
 12 13  1  0
 13 14  2  0
 14 15  1  0
 14 16  1  0
 16 17  2  0
  4  2  1  0
 17  7  1  0
 17 11  1  0
M  END
>  <energy_score>  (479) 
-19.511736

>  <alias>  (479) 
None

>  <HIPPO Pose ID>  (479) 
69583

>  <smiles>  (479) 
F[C@@H]1C[C@H]1CNc1ncnc2ccc(Cl)nc12

>  <inchikey>  (479) 
SHMNJZCBCVFCOO-NKWVEPMBSA-N

>  <distance_score>  (479) 
1.002613

>  <ref_mols>  (479) 
Z1719a,Z0472a

>  <ref_pdb>  (479) 
Z0472a

>  <HIPPO Compound ID>  (479) 
138997

>  <name>  (479) 
P69583

>  <inspiration_score>  (479) 
None

$$$$
P69588
     RDKit          3D

 17 18  0  0  0  0  0  0  0  0999 V2000
   -3.1638    6.0498  -17.5744 O   0  0  0  0  0  0  0  0  0  0  0  0
   -3.1713    5.7867  -16.1860 C   0  0  2  0  0  0  0  0  0  0  0  0
   -3.1305    4.2880  -15.9053 C   0  0  0  0  0  0  0  0  0  0  0  0
   -2.7465    4.0269  -14.4635 C   0  0  0  0  0  0  0  0  0  0  0  0
   -3.0567    2.1754  -13.9742 Br  0  0  0  0  0  0  0  0  0  0  0  0
   -4.2597    6.4878  -15.5044 N   0  0  0  0  0  0  0  0  0  0  0  0
   -5.5193    5.8476  -15.4572 C   0  0  0  0  0  0  0  0  0  0  0  0
   -5.9635    5.5322  -14.2266 N   0  0  0  0  0  0  0  0  0  0  0  0
   -7.1336    4.8752  -14.1753 C   0  0  0  0  0  0  0  0  0  0  0  0
   -7.8879    4.5253  -15.2239 N   0  0  0  0  0  0  0  0  0  0  0  0
   -7.4119    4.8490  -16.4337 C   0  0  0  0  0  0  0  0  0  0  0  0
   -8.0775    4.4788  -17.5931 C   0  0  0  0  0  0  0  0  0  0  0  0
   -7.5693    4.8168  -18.8493 C   0  0  0  0  0  0  0  0  0  0  0  0
   -6.4391    5.6008  -18.8947 C   0  0  0  0  0  0  0  0  0  0  0  0
   -5.7486    6.3330  -20.2695 Cl  0  0  0  0  0  0  0  0  0  0  0  0
   -5.7575    5.9622  -17.8083 N   0  0  0  0  0  0  0  0  0  0  0  0
   -6.2246    5.5587  -16.6150 C   0  0  0  0  0  0  0  0  0  0  0  0
  2  1  1  6
  2  3  1  0
  3  4  1  0
  4  5  1  0
  2  6  1  0
  6  7  1  0
  7  8  2  0
  8  9  1  0
  9 10  2  0
 10 11  1  0
 11 12  2  0
 12 13  1  0
 13 14  2  0
 14 15  1  0
 14 16  1  0
 16 17  2  0
 17  7  1  0
 17 11  1  0
M  END
>  <energy_score>  (480) 
-23.515266

>  <alias>  (480) 
None

>  <HIPPO Pose ID>  (480) 
69588

>  <smiles>  (480) 
O[C@H](CCBr)Nc1ncnc2ccc(Cl)nc12

>  <inchikey>  (480) 
VMTBGIOTKVVAHY-MRVPVSSYSA-N

>  <distance_score>  (480) 
0.824892

>  <ref_mols>  (480) 
Z0472a,Z1719a

>  <ref_pdb>  (480) 
Z0472a

>  <HIPPO Compound ID>  (480) 
138999

>  <name>  (480) 
P69588

>  <inspiration_score>  (480) 
None

$$$$
P69590
     RDKit          3D

 17 18  0  0  0  0  0  0  0  0999 V2000
   -2.8648    3.0824  -14.1335 N   0  0  0  0  0  0  0  0  0  0  0  0
   -2.5856    3.9932  -14.7951 C   0  0  0  0  0  0  0  0  0  0  0  0
   -2.2004    5.1288  -15.6369 C   0  0  0  0  0  0  0  0  0  0  0  0
   -3.4010    5.5919  -16.4456 C   0  0  2  0  0  0  0  0  0  0  0  0
   -2.8260    6.7412  -17.6949 Cl  0  0  0  0  0  0  0  0  0  0  0  0
   -4.3453    6.3242  -15.5850 N   0  0  0  0  0  0  0  0  0  0  0  0
   -5.6096    5.6890  -15.4952 C   0  0  0  0  0  0  0  0  0  0  0  0
   -6.0305    5.3748  -14.2595 N   0  0  0  0  0  0  0  0  0  0  0  0
   -7.2191    4.7509  -14.1928 C   0  0  0  0  0  0  0  0  0  0  0  0
   -8.0112    4.4407  -15.2294 N   0  0  0  0  0  0  0  0  0  0  0  0
   -7.5497    4.7601  -16.4476 C   0  0  0  0  0  0  0  0  0  0  0  0
   -8.2312    4.4265  -17.6103 C   0  0  0  0  0  0  0  0  0  0  0  0
   -7.7127    4.7617  -18.8662 C   0  0  0  0  0  0  0  0  0  0  0  0
   -6.5563    5.5080  -18.9086 C   0  0  0  0  0  0  0  0  0  0  0  0
   -5.8216    6.2393  -20.2584 Cl  0  0  0  0  0  0  0  0  0  0  0  0
   -5.8706    5.8277  -17.8210 N   0  0  0  0  0  0  0  0  0  0  0  0
   -6.3461    5.4314  -16.6362 C   0  0  0  0  0  0  0  0  0  0  0  0
  1  2  3  0
  2  3  1  0
  3  4  1  0
  4  5  1  6
  4  6  1  0
  6  7  1  0
  7  8  2  0
  8  9  1  0
  9 10  2  0
 10 11  1  0
 11 12  2  0
 12 13  1  0
 13 14  2  0
 14 15  1  0
 14 16  1  0
 16 17  2  0
 17  7  1  0
 17 11  1  0
M  END
>  <energy_score>  (481) 
-13.583277

>  <alias>  (481) 
None

>  <HIPPO Pose ID>  (481) 
69590

>  <smiles>  (481) 
N#CC[C@H](Cl)Nc1ncnc2ccc(Cl)nc12

>  <inchikey>  (481) 
CLQUCYRHNOZPJU-MRVPVSSYSA-N

>  <distance_score>  (481) 
0.744268

>  <ref_mols>  (481) 
Z1719a,Z0472a

>  <ref_pdb>  (481) 
Z0472a

>  <HIPPO Compound ID>  (481) 
139000

>  <name>  (481) 
P69590

>  <inspiration_score>  (481) 
None

$$$$
P69596
     RDKit          3D

 17 18  0  0  0  0  0  0  0  0999 V2000
   -2.7780    5.7771  -18.3129 C   0  0  0  0  0  0  0  0  0  0  0  0
   -2.6578    5.3120  -16.8904 C   0  0  0  0  0  0  0  0  0  0  0  0
   -1.5293    5.4958  -16.1927 C   0  0  0  0  0  0  0  0  0  0  0  0
   -1.2780    5.0114  -14.4178 Br  0  0  0  0  0  0  0  0  0  0  0  0
   -3.8625    4.6534  -16.2819 C   0  0  0  0  0  0  0  0  0  0  0  0
   -4.5499    5.6726  -15.4734 N   0  0  0  0  0  0  0  0  0  0  0  0
   -5.9250    5.2918  -15.3517 C   0  0  0  0  0  0  0  0  0  0  0  0
   -6.3680    4.8342  -14.1707 N   0  0  0  0  0  0  0  0  0  0  0  0
   -7.6185    4.3540  -14.1725 C   0  0  0  0  0  0  0  0  0  0  0  0
   -8.4302    4.2616  -15.2374 N   0  0  0  0  0  0  0  0  0  0  0  0
   -7.9241    4.6721  -16.4063 C   0  0  0  0  0  0  0  0  0  0  0  0
   -8.5649    4.4305  -17.6105 C   0  0  0  0  0  0  0  0  0  0  0  0
   -7.9592    4.7844  -18.8194 C   0  0  0  0  0  0  0  0  0  0  0  0
   -6.7872    5.5101  -18.7744 C   0  0  0  0  0  0  0  0  0  0  0  0
   -5.9174    6.1579  -20.0889 Cl  0  0  0  0  0  0  0  0  0  0  0  0
   -6.1654    5.8059  -17.6378 N   0  0  0  0  0  0  0  0  0  0  0  0
   -6.6898    5.2986  -16.5077 C   0  0  0  0  0  0  0  0  0  0  0  0
  1  2  1  0
  2  3  2  0
  3  4  1  0
  2  5  1  0
  5  6  1  0
  6  7  1  0
  7  8  2  0
  8  9  1  0
  9 10  2  0
 10 11  1  0
 11 12  2  0
 12 13  1  0
 13 14  2  0
 14 15  1  0
 14 16  1  0
 16 17  2  0
 17  7  1  0
 17 11  1  0
M  END
>  <energy_score>  (482) 
-184.742551

>  <alias>  (482) 
None

>  <HIPPO Pose ID>  (482) 
69596

>  <smiles>  (482) 
C/C(=C/Br)CNc1ncnc2ccc(Cl)nc12

>  <inchikey>  (482) 
HXGILQSAMNGULO-DAXSKMNVSA-N

>  <distance_score>  (482) 
0.930956

>  <ref_mols>  (482) 
Z1719a,Z0472a

>  <ref_pdb>  (482) 
Z0472a

>  <HIPPO Compound ID>  (482) 
139002

>  <name>  (482) 
P69596

>  <inspiration_score>  (482) 
None

$$$$
P69597
     RDKit          3D

 17 19  0  0  0  0  0  0  0  0999 V2000
   -2.6148    6.6724  -18.2351 C   0  0  0  0  0  0  0  0  0  0  0  0
   -2.1480    5.5149  -17.3773 C   0  0  2  0  0  0  0  0  0  0  0  0
   -3.1666    4.4517  -16.9924 C   0  0  0  0  0  0  0  0  0  0  0  0
   -3.1538    5.1119  -15.6164 C   0  0  2  0  0  0  0  0  0  0  0  0
   -4.2798    5.9227  -15.2360 N   0  0  0  0  0  0  0  0  0  0  0  0
   -5.6043    5.4082  -15.2325 C   0  0  0  0  0  0  0  0  0  0  0  0
   -6.0836    5.0325  -14.0312 N   0  0  0  0  0  0  0  0  0  0  0  0
   -7.3143    4.5030  -14.0376 C   0  0  0  0  0  0  0  0  0  0  0  0
   -8.0889    4.3257  -15.1129 N   0  0  0  0  0  0  0  0  0  0  0  0
   -7.5746    4.7043  -16.2891 C   0  0  0  0  0  0  0  0  0  0  0  0
   -8.2764    4.4780  -17.4623 C   0  0  0  0  0  0  0  0  0  0  0  0
   -7.7497    4.8624  -18.6940 C   0  0  0  0  0  0  0  0  0  0  0  0
   -6.5650    5.5621  -18.6948 C   0  0  0  0  0  0  0  0  0  0  0  0
   -5.8277    6.2733  -20.0582 Cl  0  0  0  0  0  0  0  0  0  0  0  0
   -5.8623    5.8083  -17.5869 N   0  0  0  0  0  0  0  0  0  0  0  0
   -6.3292    5.3194  -16.4186 C   0  0  0  0  0  0  0  0  0  0  0  0
   -1.9881    5.8964  -15.9847 O   0  0  0  0  0  0  0  0  0  0  0  0
  2  1  1  6
  2  3  1  0
  3  4  1  0
  4  5  1  6
  5  6  1  0
  6  7  2  0
  7  8  1  0
  8  9  2  0
  9 10  1  0
 10 11  2  0
 11 12  1  0
 12 13  2  0
 13 14  1  0
 13 15  1  0
 15 16  2  0
  4 17  1  0
 17  2  1  0
 16  6  1  0
 16 10  1  0
M  END
>  <energy_score>  (483) 
-18.71309

>  <alias>  (483) 
None

>  <HIPPO Pose ID>  (483) 
69597

>  <smiles>  (483) 
C[C@@H]1C[C@H](Nc2ncnc3ccc(Cl)nc23)O1

>  <inchikey>  (483) 
FUKMBDZJQMSNJV-HZGVNTEJSA-N

>  <distance_score>  (483) 
0.864298

>  <ref_mols>  (483) 
Z1719a,Z0472a

>  <ref_pdb>  (483) 
Z0472a

>  <HIPPO Compound ID>  (483) 
139003

>  <name>  (483) 
P69597

>  <inspiration_score>  (483) 
None

$$$$
P69608
     RDKit          3D

 17 18  0  0  0  0  0  0  0  0999 V2000
   -2.7289    6.6032  -18.0843 C   0  0  0  0  0  0  0  0  0  0  0  0
   -2.6858    5.3211  -17.2674 C   0  0  2  0  0  0  0  0  0  0  0  0
   -3.5050    4.3022  -17.8354 O   0  0  0  0  0  0  0  0  0  0  0  0
   -2.9177    5.4981  -15.7303 C   0  0  2  0  0  0  0  0  0  0  0  0
   -2.8820    4.3174  -15.1382 O   0  0  0  0  0  0  0  0  0  0  0  0
   -4.1568    6.1321  -15.2427 N   0  0  0  0  0  0  0  0  0  0  0  0
   -5.4325    5.5554  -15.3683 C   0  0  0  0  0  0  0  0  0  0  0  0
   -5.9795    5.1770  -14.1835 N   0  0  0  0  0  0  0  0  0  0  0  0
   -7.1603    4.5591  -14.2374 C   0  0  0  0  0  0  0  0  0  0  0  0
   -7.8758    4.3227  -15.3363 N   0  0  0  0  0  0  0  0  0  0  0  0
   -7.3250    4.7413  -16.4814 C   0  0  0  0  0  0  0  0  0  0  0  0
   -7.9712    4.4467  -17.6675 C   0  0  0  0  0  0  0  0  0  0  0  0
   -7.4373    4.8511  -18.8846 C   0  0  0  0  0  0  0  0  0  0  0  0
   -6.3444    5.6848  -18.8566 C   0  0  0  0  0  0  0  0  0  0  0  0
   -5.7087    6.5022  -20.2199 Cl  0  0  0  0  0  0  0  0  0  0  0  0
   -5.7201    6.0297  -17.7315 N   0  0  0  0  0  0  0  0  0  0  0  0
   -6.1233    5.4562  -16.5740 C   0  0  0  0  0  0  0  0  0  0  0  0
  2  1  1  6
  2  3  1  0
  2  4  1  0
  4  5  1  1
  4  6  1  0
  6  7  1  0
  7  8  2  0
  8  9  1  0
  9 10  2  0
 10 11  1  0
 11 12  2  0
 12 13  1  0
 13 14  2  0
 14 15  1  0
 14 16  1  0
 16 17  2  0
 17  7  1  0
 17 11  1  0
M  CHG  1   5  -1
M  END
>  <energy_score>  (484) 
-38.88336

>  <alias>  (484) 
None

>  <HIPPO Pose ID>  (484) 
69608

>  <smiles>  (484) 
C[C@H](O)[C@H]([O-])Nc1ncnc2ccc(Cl)nc12

>  <inchikey>  (484) 
FJOQVPNJIYGWID-RRAGMBSWSA-N

>  <distance_score>  (484) 
0.700205

>  <ref_mols>  (484) 
Z1719a,Z0472a

>  <ref_pdb>  (484) 
Z0472a

>  <HIPPO Compound ID>  (484) 
139008

>  <name>  (484) 
P69608

>  <inspiration_score>  (484) 
None

$$$$
P69615
     RDKit          3D

 17 18  0  0  0  0  0  0  0  0999 V2000
   -1.4120    3.8024  -13.8591 F   0  0  0  0  0  0  0  0  0  0  0  0
   -2.5376    4.1772  -14.5317 C   0  0  0  0  0  0  0  0  0  0  0  0
   -2.1377    5.1626  -15.6101 C   0  0  0  0  0  0  0  0  0  0  0  0
   -3.3099    5.4781  -16.5149 C   0  0  2  0  0  0  0  0  0  0  0  0
   -2.7253    6.4587  -17.8951 Cl  0  0  0  0  0  0  0  0  0  0  0  0
   -4.2487    6.3346  -15.7883 N   0  0  0  0  0  0  0  0  0  0  0  0
   -5.5037    5.6743  -15.5898 C   0  0  0  0  0  0  0  0  0  0  0  0
   -5.8310    5.2355  -14.3638 N   0  0  0  0  0  0  0  0  0  0  0  0
   -7.0110    4.5986  -14.2685 C   0  0  0  0  0  0  0  0  0  0  0  0
   -7.8540    4.3347  -15.2787 N   0  0  0  0  0  0  0  0  0  0  0  0
   -7.4612    4.7314  -16.4983 C   0  0  0  0  0  0  0  0  0  0  0  0
   -8.1527    4.4111  -17.6573 C   0  0  0  0  0  0  0  0  0  0  0  0
   -7.6587    4.7928  -18.9108 C   0  0  0  0  0  0  0  0  0  0  0  0
   -6.5428    5.6021  -18.9538 C   0  0  0  0  0  0  0  0  0  0  0  0
   -5.8335    6.3590  -20.3060 Cl  0  0  0  0  0  0  0  0  0  0  0  0
   -5.8711    5.9508  -17.8648 N   0  0  0  0  0  0  0  0  0  0  0  0
   -6.2977    5.4636  -16.6974 C   0  0  0  0  0  0  0  0  0  0  0  0
  1  2  1  0
  2  3  1  0
  3  4  1  0
  4  5  1  6
  4  6  1  0
  6  7  1  0
  7  8  2  0
  8  9  1  0
  9 10  2  0
 10 11  1  0
 11 12  2  0
 12 13  1  0
 13 14  2  0
 14 15  1  0
 14 16  1  0
 16 17  2  0
 17  7  1  0
 17 11  1  0
M  END
>  <energy_score>  (485) 
-13.862221

>  <alias>  (485) 
None

>  <HIPPO Pose ID>  (485) 
69615

>  <smiles>  (485) 
FCC[C@H](Cl)Nc1ncnc2ccc(Cl)nc12

>  <inchikey>  (485) 
WLMBBWBMDMEVTH-MRVPVSSYSA-N

>  <distance_score>  (485) 
0.746663

>  <ref_mols>  (485) 
Z1719a,Z0472a

>  <ref_pdb>  (485) 
Z0472a

>  <HIPPO Compound ID>  (485) 
139010

>  <name>  (485) 
P69615

>  <inspiration_score>  (485) 
None

$$$$
P69618
     RDKit          3D

 17 18  0  0  0  0  0  0  0  0999 V2000
   -3.0915    6.1373  -17.5420 O   0  0  0  0  0  0  0  0  0  0  0  0
   -3.3305    5.4088  -16.3514 C   0  0  1  0  0  0  0  0  0  0  0  0
   -2.0086    5.2670  -15.6071 C   0  0  0  0  0  0  0  0  0  0  0  0
   -2.1554    4.3411  -14.4000 C   0  0  0  0  0  0  0  0  0  0  0  0
   -0.3532    4.3626  -13.2148 I   0  0  0  0  0  0  0  0  0  0  0  0
   -4.2682    6.1667  -15.5301 N   0  0  0  0  0  0  0  0  0  0  0  0
   -5.5500    5.5728  -15.4621 C   0  0  0  0  0  0  0  0  0  0  0  0
   -5.9947    5.2512  -14.2346 N   0  0  0  0  0  0  0  0  0  0  0  0
   -7.2073    4.6768  -14.1887 C   0  0  0  0  0  0  0  0  0  0  0  0
   -7.9936    4.4074  -15.2390 N   0  0  0  0  0  0  0  0  0  0  0  0
   -7.5067    4.7292  -16.4459 C   0  0  0  0  0  0  0  0  0  0  0  0
   -8.1978    4.4346  -17.6107 C   0  0  0  0  0  0  0  0  0  0  0  0
   -7.6725    4.7790  -18.8588 C   0  0  0  0  0  0  0  0  0  0  0  0
   -6.4971    5.4963  -18.8907 C   0  0  0  0  0  0  0  0  0  0  0  0
   -5.7843    6.2607  -20.2354 Cl  0  0  0  0  0  0  0  0  0  0  0  0
   -5.7863    5.7724  -17.8019 N   0  0  0  0  0  0  0  0  0  0  0  0
   -6.2782    5.3621  -16.6202 C   0  0  0  0  0  0  0  0  0  0  0  0
  2  1  1  6
  2  3  1  0
  3  4  1  0
  4  5  1  0
  2  6  1  0
  6  7  1  0
  7  8  2  0
  8  9  1  0
  9 10  2  0
 10 11  1  0
 11 12  2  0
 12 13  1  0
 13 14  2  0
 14 15  1  0
 14 16  1  0
 16 17  2  0
 17  7  1  0
 17 11  1  0
M  END
>  <energy_score>  (486) 
-40.423649

>  <alias>  (486) 
None

>  <HIPPO Pose ID>  (486) 
69618

>  <smiles>  (486) 
O[C@@H](CCI)Nc1ncnc2ccc(Cl)nc12

>  <inchikey>  (486) 
KABJVJVRQFRDSZ-QMMMGPOBSA-N

>  <distance_score>  (486) 
0.82348

>  <ref_mols>  (486) 
Z1719a,Z0472a

>  <ref_pdb>  (486) 
Z0472a

>  <HIPPO Compound ID>  (486) 
139011

>  <name>  (486) 
P69618

>  <inspiration_score>  (486) 
None

$$$$
P69620
     RDKit          3D

 17 19  0  0  0  0  0  0  0  0999 V2000
   -5.7500    6.3455  -20.1634 Cl  0  0  0  0  0  0  0  0  0  0  0  0
   -6.4347    5.5741  -18.8038 C   0  0  0  0  0  0  0  0  0  0  0  0
   -7.5843    4.8188  -18.8134 C   0  0  0  0  0  0  0  0  0  0  0  0
   -8.1216    4.4398  -17.5870 C   0  0  0  0  0  0  0  0  0  0  0  0
   -7.4578    4.7243  -16.4068 C   0  0  0  0  0  0  0  0  0  0  0  0
   -7.9987    4.3577  -15.2393 N   0  0  0  0  0  0  0  0  0  0  0  0
   -7.2755    4.6108  -14.1478 C   0  0  0  0  0  0  0  0  0  0  0  0
   -6.0756    5.2043  -14.1211 N   0  0  0  0  0  0  0  0  0  0  0  0
   -5.5579    5.5594  -15.3168 C   0  0  0  0  0  0  0  0  0  0  0  0
   -4.2933    6.1663  -15.2239 N   0  0  0  0  0  0  0  0  0  0  0  0
   -3.1333    5.4482  -15.7398 C   0  0  1  0  0  0  0  0  0  0  0  0
   -3.0380    3.8392  -14.9971 Cl  0  0  0  0  0  0  0  0  0  0  0  0
   -2.9813    5.3462  -17.2251 C   0  0  0  0  0  0  0  0  0  0  0  0
   -1.6172    5.4923  -17.8693 C   0  0  0  0  0  0  0  0  0  0  0  0
   -2.6461    6.5647  -18.0566 C   0  0  0  0  0  0  0  0  0  0  0  0
   -6.2323    5.3890  -16.5210 C   0  0  0  0  0  0  0  0  0  0  0  0
   -5.7565    5.8636  -17.6899 N   0  0  0  0  0  0  0  0  0  0  0  0
  1  2  1  0
  2  3  2  0
  3  4  1  0
  4  5  2  0
  5  6  1  0
  6  7  2  0
  7  8  1  0
  8  9  2  0
  9 10  1  0
 10 11  1  0
 11 12  1  1
 11 13  1  0
 13 14  1  0
 14 15  1  0
  9 16  1  0
 16 17  2  0
 17  2  1  0
 16  5  1  0
 15 13  1  0
M  END
>  <energy_score>  (487) 
-14.859478

>  <alias>  (487) 
None

>  <HIPPO Pose ID>  (487) 
69620

>  <smiles>  (487) 
Clc1ccc2ncnc(N[C@@H](Cl)C3CC3)c2n1

>  <inchikey>  (487) 
GZXWUNUOFQLVHX-SNVBAGLBSA-N

>  <distance_score>  (487) 
0.685737

>  <ref_mols>  (487) 
Z1719a,Z0472a

>  <ref_pdb>  (487) 
Z0472a

>  <HIPPO Compound ID>  (487) 
139012

>  <name>  (487) 
P69620

>  <inspiration_score>  (487) 
None

$$$$
P69623
     RDKit          3D

 17 18  0  0  0  0  0  0  0  0999 V2000
   -2.5415    3.3624  -13.7342 C   0  0  0  0  0  0  0  0  0  0  0  0
   -2.3312    4.1878  -14.5814 C   0  0  0  0  0  0  0  0  0  0  0  0
   -2.1173    5.2168  -15.6153 C   0  0  0  0  0  0  0  0  0  0  0  0
   -3.4096    5.4793  -16.3861 C   0  0  2  0  0  0  0  0  0  0  0  0
   -3.1266    6.2480  -17.5487 O   0  0  0  0  0  0  0  0  0  0  0  0
   -4.3126    6.2660  -15.5414 N   0  0  0  0  0  0  0  0  0  0  0  0
   -5.5954    5.6491  -15.4519 C   0  0  0  0  0  0  0  0  0  0  0  0
   -6.0245    5.2571  -14.2401 N   0  0  0  0  0  0  0  0  0  0  0  0
   -7.2144    4.6402  -14.2077 C   0  0  0  0  0  0  0  0  0  0  0  0
   -7.9992    4.3828  -15.2628 N   0  0  0  0  0  0  0  0  0  0  0  0
   -7.5244    4.7543  -16.4585 C   0  0  0  0  0  0  0  0  0  0  0  0
   -8.1852    4.4356  -17.6343 C   0  0  0  0  0  0  0  0  0  0  0  0
   -7.6506    4.7956  -18.8738 C   0  0  0  0  0  0  0  0  0  0  0  0
   -6.5131    5.5719  -18.8873 C   0  0  0  0  0  0  0  0  0  0  0  0
   -5.7753    6.3094  -20.2344 Cl  0  0  0  0  0  0  0  0  0  0  0  0
   -5.8443    5.9049  -17.7844 N   0  0  0  0  0  0  0  0  0  0  0  0
   -6.3276    5.4509  -16.6127 C   0  0  0  0  0  0  0  0  0  0  0  0
  1  2  3  0
  2  3  1  0
  3  4  1  0
  4  5  1  6
  4  6  1  0
  6  7  1  0
  7  8  2  0
  8  9  1  0
  9 10  2  0
 10 11  1  0
 11 12  2  0
 12 13  1  0
 13 14  2  0
 14 15  1  0
 14 16  1  0
 16 17  2  0
 17  7  1  0
 17 11  1  0
M  END
>  <energy_score>  (488) 
-11.262041

>  <alias>  (488) 
None

>  <HIPPO Pose ID>  (488) 
69623

>  <smiles>  (488) 
C#CC[C@H](O)Nc1ncnc2ccc(Cl)nc12

>  <inchikey>  (488) 
DXKGBORDLVCQJK-VIFPVBQESA-N

>  <distance_score>  (488) 
0.78292

>  <ref_mols>  (488) 
Z1719a,Z0472a

>  <ref_pdb>  (488) 
Z0472a

>  <HIPPO Compound ID>  (488) 
139014

>  <name>  (488) 
P69623

>  <inspiration_score>  (488) 
None

$$$$
P69629
     RDKit          3D

 17 18  0  0  0  0  0  0  0  0999 V2000
   -2.0324    3.6381  -13.7063 N   0  0  0  0  0  0  0  0  0  0  0  0
   -2.0196    4.3726  -14.6047 C   0  0  0  0  0  0  0  0  0  0  0  0
   -1.9903    5.3193  -15.7193 C   0  0  0  0  0  0  0  0  0  0  0  0
   -3.3638    5.4032  -16.3659 C   0  0  2  0  0  0  0  0  0  0  0  0
   -3.2223    6.2056  -17.5299 O   0  0  0  0  0  0  0  0  0  0  0  0
   -4.3063    6.0510  -15.4543 N   0  0  0  0  0  0  0  0  0  0  0  0
   -5.5955    5.4731  -15.4359 C   0  0  0  0  0  0  0  0  0  0  0  0
   -6.0564    5.1301  -14.2208 N   0  0  0  0  0  0  0  0  0  0  0  0
   -7.2768    4.5730  -14.1931 C   0  0  0  0  0  0  0  0  0  0  0  0
   -8.0628    4.3468  -15.2525 N   0  0  0  0  0  0  0  0  0  0  0  0
   -7.5615    4.6867  -16.4472 C   0  0  0  0  0  0  0  0  0  0  0  0
   -8.2490    4.4172  -17.6193 C   0  0  0  0  0  0  0  0  0  0  0  0
   -7.7102    4.7682  -18.8587 C   0  0  0  0  0  0  0  0  0  0  0  0
   -6.5292    5.4757  -18.8729 C   0  0  0  0  0  0  0  0  0  0  0  0
   -5.7964    6.2430  -20.2052 Cl  0  0  0  0  0  0  0  0  0  0  0  0
   -5.8250    5.7361  -17.7741 N   0  0  0  0  0  0  0  0  0  0  0  0
   -6.3230    5.3070  -16.6015 C   0  0  0  0  0  0  0  0  0  0  0  0
  1  2  3  0
  2  3  1  0
  3  4  1  0
  4  5  1  6
  4  6  1  0
  6  7  1  0
  7  8  2  0
  8  9  1  0
  9 10  2  0
 10 11  1  0
 11 12  2  0
 12 13  1  0
 13 14  2  0
 14 15  1  0
 14 16  1  0
 16 17  2  0
 17  7  1  0
 17 11  1  0
M  END
>  <energy_score>  (489) 
-23.539011

>  <alias>  (489) 
None

>  <HIPPO Pose ID>  (489) 
69629

>  <smiles>  (489) 
N#CC[C@H](O)Nc1ncnc2ccc(Cl)nc12

>  <inchikey>  (489) 
USIIUXPYHWQROW-QMMMGPOBSA-N

>  <distance_score>  (489) 
0.747784

>  <ref_mols>  (489) 
Z1719a,Z0472a

>  <ref_pdb>  (489) 
Z0472a

>  <HIPPO Compound ID>  (489) 
139018

>  <name>  (489) 
P69629

>  <inspiration_score>  (489) 
None

$$$$
P69631
     RDKit          3D

 17 18  0  0  0  0  0  0  0  0999 V2000
   -1.4346    6.3237  -13.5471 C   0  0  0  0  0  0  0  0  0  0  0  0
   -1.5665    5.3787  -14.4868 C   0  0  0  0  0  0  0  0  0  0  0  0
   -1.7592    5.6702  -15.9506 C   0  0  0  0  0  0  0  0  0  0  0  0
   -3.1921    5.5036  -16.4792 C   0  0  1  0  0  0  0  0  0  0  0  0
   -3.0844    5.3555  -17.8863 O   0  0  0  0  0  0  0  0  0  0  0  0
   -3.8315    4.3305  -15.9042 N   0  0  0  0  0  0  0  0  0  0  0  0
   -5.2102    4.4512  -15.6343 C   0  0  0  0  0  0  0  0  0  0  0  0
   -5.5757    4.0969  -14.3863 N   0  0  0  0  0  0  0  0  0  0  0  0
   -6.8944    4.0325  -14.1515 C   0  0  0  0  0  0  0  0  0  0  0  0
   -7.8632    4.2817  -15.0365 N   0  0  0  0  0  0  0  0  0  0  0  0
   -7.4566    4.6121  -16.2664 C   0  0  0  0  0  0  0  0  0  0  0  0
   -8.3843    4.7993  -17.2689 C   0  0  0  0  0  0  0  0  0  0  0  0
   -7.9846    5.2602  -18.5215 C   0  0  0  0  0  0  0  0  0  0  0  0
   -6.6472    5.5197  -18.7308 C   0  0  0  0  0  0  0  0  0  0  0  0
   -5.9871    6.4565  -20.0008 Cl  0  0  0  0  0  0  0  0  0  0  0  0
   -5.7095    5.2457  -17.8259 N   0  0  0  0  0  0  0  0  0  0  0  0
   -6.1183    4.7881  -16.6249 C   0  0  0  0  0  0  0  0  0  0  0  0
  1  2  2  0
  2  3  1  0
  3  4  1  0
  4  5  1  6
  4  6  1  0
  6  7  1  0
  7  8  2  0
  8  9  1  0
  9 10  2  0
 10 11  1  0
 11 12  2  0
 12 13  1  0
 13 14  2  0
 14 15  1  0
 14 16  1  0
 16 17  2  0
 17  7  1  0
 17 11  1  0
M  END
>  <energy_score>  (490) 
-16.997346

>  <alias>  (490) 
None

>  <HIPPO Pose ID>  (490) 
69631

>  <smiles>  (490) 
C=CC[C@@H](O)Nc1ncnc2ccc(Cl)nc12

>  <inchikey>  (490) 
CTLFYJQARZISTQ-SECBINFHSA-N

>  <distance_score>  (490) 
1.089777

>  <ref_mols>  (490) 
Z0472a,Z1719a

>  <ref_pdb>  (490) 
Z0472a

>  <HIPPO Compound ID>  (490) 
139019

>  <name>  (490) 
P69631

>  <inspiration_score>  (490) 
None

$$$$
P69634
     RDKit          3D

 17 19  0  0  0  0  0  0  0  0999 V2000
   -5.7982    6.2414  -20.0128 Cl  0  0  0  0  0  0  0  0  0  0  0  0
   -6.4951    5.4972  -18.6446 C   0  0  0  0  0  0  0  0  0  0  0  0
   -7.7351    4.8998  -18.6118 C   0  0  0  0  0  0  0  0  0  0  0  0
   -8.2378    4.5128  -17.3711 C   0  0  0  0  0  0  0  0  0  0  0  0
   -7.4788    4.6624  -16.2214 C   0  0  0  0  0  0  0  0  0  0  0  0
   -7.9697    4.2931  -15.0339 N   0  0  0  0  0  0  0  0  0  0  0  0
   -7.1341    4.3831  -13.9919 C   0  0  0  0  0  0  0  0  0  0  0  0
   -5.8746    4.8383  -14.0248 N   0  0  0  0  0  0  0  0  0  0  0  0
   -5.4282    5.2498  -15.2235 C   0  0  0  0  0  0  0  0  0  0  0  0
   -4.0801    5.7240  -15.2971 N   0  0  0  0  0  0  0  0  0  0  0  0
   -3.2123    4.7099  -15.9007 C   0  0  0  0  0  0  0  0  0  0  0  0
   -2.2695    5.3116  -16.9138 C   0  0  2  0  0  0  0  0  0  0  0  0
   -2.6041    6.4461  -17.8677 C   0  0  0  0  0  0  0  0  0  0  0  0
   -2.5416    5.0422  -18.3748 C   0  0  1  0  0  0  0  0  0  0  0  0
   -1.2484    4.6237  -19.4700 Cl  0  0  0  0  0  0  0  0  0  0  0  0
   -6.1999    5.1984  -16.3861 C   0  0  0  0  0  0  0  0  0  0  0  0
   -5.7195    5.6488  -17.5640 N   0  0  0  0  0  0  0  0  0  0  0  0
  1  2  1  0
  2  3  2  0
  3  4  1  0
  4  5  2  0
  5  6  1  0
  6  7  2  0
  7  8  1  0
  8  9  2  0
  9 10  1  0
 10 11  1  0
 12 11  1  1
 12 13  1  0
 13 14  1  0
 14 15  1  6
  9 16  1  0
 16 17  2  0
 17  2  1  0
 16  5  1  0
 14 12  1  0
M  END
>  <energy_score>  (491) 
-7.20843

>  <alias>  (491) 
None

>  <HIPPO Pose ID>  (491) 
69634

>  <smiles>  (491) 
Clc1ccc2ncnc(NC[C@@H]3C[C@H]3Cl)c2n1

>  <inchikey>  (491) 
XFGOEOCJCKVOQY-NKWVEPMBSA-N

>  <distance_score>  (491) 
0.960276

>  <ref_mols>  (491) 
Z1719a,Z0472a

>  <ref_pdb>  (491) 
Z0472a

>  <HIPPO Compound ID>  (491) 
139020

>  <name>  (491) 
P69634

>  <inspiration_score>  (491) 
None

$$$$
P69636
     RDKit          3D

 17 19  0  0  0  0  0  0  0  0999 V2000
   -5.7156    6.4242  -20.3143 Cl  0  0  0  0  0  0  0  0  0  0  0  0
   -6.4696    5.7527  -18.9399 C   0  0  0  0  0  0  0  0  0  0  0  0
   -7.4849    4.8277  -18.9159 C   0  0  0  0  0  0  0  0  0  0  0  0
   -8.0117    4.4785  -17.6709 C   0  0  0  0  0  0  0  0  0  0  0  0
   -7.4481    4.9566  -16.4958 C   0  0  0  0  0  0  0  0  0  0  0  0
   -7.9149    4.5606  -15.3054 N   0  0  0  0  0  0  0  0  0  0  0  0
   -7.2352    4.9856  -14.2365 C   0  0  0  0  0  0  0  0  0  0  0  0
   -6.1574    5.7828  -14.2497 N   0  0  0  0  0  0  0  0  0  0  0  0
   -5.7231    6.1868  -15.4610 C   0  0  0  0  0  0  0  0  0  0  0  0
   -4.5860    6.9994  -15.4169 N   0  0  0  0  0  0  0  0  0  0  0  0
   -3.5952    7.0468  -16.4988 C   0  0  0  0  0  0  0  0  0  0  0  0
   -2.7226    5.8087  -16.6982 C   0  0  0  0  0  0  0  0  0  0  0  0
   -3.3144    4.4043  -16.9664 C   0  0  0  0  0  0  0  0  0  0  0  0
   -3.0907    3.9443  -15.2184 S   0  0  0  0  0  0  0  0  0  0  0  0
   -1.9440    5.3329  -15.4453 C   0  0  0  0  0  0  0  0  0  0  0  0
   -6.3666    5.8287  -16.6417 C   0  0  0  0  0  0  0  0  0  0  0  0
   -5.9283    6.2637  -17.8370 N   0  0  0  0  0  0  0  0  0  0  0  0
  1  2  1  0
  2  3  2  0
  3  4  1  0
  4  5  2  0
  5  6  1  0
  6  7  2  0
  7  8  1  0
  8  9  2  0
  9 10  1  0
 10 11  1  0
 11 12  1  0
 12 13  1  0
 13 14  1  0
 14 15  1  0
  9 16  1  0
 16 17  2  0
 17  2  1  0
 16  5  1  0
 15 12  1  0
M  END
>  <energy_score>  (492) 
-35.632778

>  <alias>  (492) 
None

>  <HIPPO Pose ID>  (492) 
69636

>  <smiles>  (492) 
Clc1ccc2ncnc(NCC3CSC3)c2n1

>  <inchikey>  (492) 
DEYNQWKXZIGLQZ-UHFFFAOYSA-N

>  <distance_score>  (492) 
1.155587

>  <ref_mols>  (492) 
Z1719a,Z0472a

>  <ref_pdb>  (492) 
Z0472a

>  <HIPPO Compound ID>  (492) 
139021

>  <name>  (492) 
P69636

>  <inspiration_score>  (492) 
None

$$$$
P69642
     RDKit          3D

 17 18  0  0  0  0  0  0  0  0999 V2000
   -2.5828    3.9053  -14.7203 C   0  0  0  0  0  0  0  0  0  0  0  0
   -2.3447    5.0068  -15.4578 C   0  0  0  0  0  0  0  0  0  0  0  0
   -1.1367    5.8597  -15.1884 C   0  0  0  0  0  0  0  0  0  0  0  0
   -3.3468    5.4511  -16.4896 C   0  0  2  0  0  0  0  0  0  0  0  0
   -2.6070    6.2838  -17.8790 Cl  0  0  0  0  0  0  0  0  0  0  0  0
   -4.2219    6.4202  -15.8250 N   0  0  0  0  0  0  0  0  0  0  0  0
   -5.5036    5.8068  -15.5895 C   0  0  0  0  0  0  0  0  0  0  0  0
   -5.8429    5.4080  -14.3526 N   0  0  0  0  0  0  0  0  0  0  0  0
   -7.0141    4.7577  -14.2498 C   0  0  0  0  0  0  0  0  0  0  0  0
   -7.8436    4.4482  -15.2596 N   0  0  0  0  0  0  0  0  0  0  0  0
   -7.4472    4.8192  -16.4866 C   0  0  0  0  0  0  0  0  0  0  0  0
   -8.1209    4.4549  -17.6440 C   0  0  0  0  0  0  0  0  0  0  0  0
   -7.6230    4.8137  -18.9035 C   0  0  0  0  0  0  0  0  0  0  0  0
   -6.5196    5.6396  -18.9573 C   0  0  0  0  0  0  0  0  0  0  0  0
   -5.8121    6.3721  -20.3233 Cl  0  0  0  0  0  0  0  0  0  0  0  0
   -5.8611    6.0264  -17.8726 N   0  0  0  0  0  0  0  0  0  0  0  0
   -6.2935    5.5651  -16.6954 C   0  0  0  0  0  0  0  0  0  0  0  0
  1  2  2  0
  2  3  1  0
  2  4  1  0
  4  5  1  6
  4  6  1  0
  6  7  1  0
  7  8  2  0
  8  9  1  0
  9 10  2  0
 10 11  1  0
 11 12  2  0
 12 13  1  0
 13 14  2  0
 14 15  1  0
 14 16  1  0
 16 17  2  0
 17  7  1  0
 17 11  1  0
M  END
>  <energy_score>  (493) 
-100.960724

>  <alias>  (493) 
None

>  <HIPPO Pose ID>  (493) 
69642

>  <smiles>  (493) 
C=C(C)[C@H](Cl)Nc1ncnc2ccc(Cl)nc12

>  <inchikey>  (493) 
GZAVXORNAIMHFY-SNVBAGLBSA-N

>  <distance_score>  (493) 
0.765185

>  <ref_mols>  (493) 
Z1719a,Z0472a

>  <ref_pdb>  (493) 
Z0472a

>  <HIPPO Compound ID>  (493) 
139023

>  <name>  (493) 
P69642

>  <inspiration_score>  (493) 
None

$$$$
P69645
     RDKit          3D

 17 18  0  0  0  0  0  0  0  0999 V2000
   -3.1580    7.1800  -18.0650 C   0  0  0  0  0  0  0  0  0  0  0  0
   -3.0288    5.7488  -17.5513 C   0  0  1  0  0  0  0  0  0  0  0  0
   -1.3928    5.2356  -18.1181 Cl  0  0  0  0  0  0  0  0  0  0  0  0
   -3.1699    5.6307  -16.0083 C   0  0  2  0  0  0  0  0  0  0  0  0
   -3.0424    3.9454  -15.4311 Cl  0  0  0  0  0  0  0  0  0  0  0  0
   -4.3411    6.2716  -15.3725 N   0  0  0  0  0  0  0  0  0  0  0  0
   -5.5702    5.5739  -15.3386 C   0  0  0  0  0  0  0  0  0  0  0  0
   -5.9960    5.1613  -14.1305 N   0  0  0  0  0  0  0  0  0  0  0  0
   -7.1805    4.5350  -14.0975 C   0  0  0  0  0  0  0  0  0  0  0  0
   -7.9733    4.2928  -15.1467 N   0  0  0  0  0  0  0  0  0  0  0  0
   -7.5138    4.6872  -16.3386 C   0  0  0  0  0  0  0  0  0  0  0  0
   -8.2197    4.4151  -17.5014 C   0  0  0  0  0  0  0  0  0  0  0  0
   -7.7279    4.8109  -18.7453 C   0  0  0  0  0  0  0  0  0  0  0  0
   -6.5791    5.5666  -18.7653 C   0  0  0  0  0  0  0  0  0  0  0  0
   -5.8613    6.2862  -20.1348 Cl  0  0  0  0  0  0  0  0  0  0  0  0
   -5.8849    5.8762  -17.6658 N   0  0  0  0  0  0  0  0  0  0  0  0
   -6.3140    5.3826  -16.4951 C   0  0  0  0  0  0  0  0  0  0  0  0
  2  1  1  1
  2  3  1  0
  2  4  1  0
  4  5  1  6
  4  6  1  0
  6  7  1  0
  7  8  2  0
  8  9  1  0
  9 10  2  0
 10 11  1  0
 11 12  2  0
 12 13  1  0
 13 14  2  0
 14 15  1  0
 14 16  1  0
 16 17  2  0
 17  7  1  0
 17 11  1  0
M  END
>  <energy_score>  (494) 
-4.686255

>  <alias>  (494) 
None

>  <HIPPO Pose ID>  (494) 
69645

>  <smiles>  (494) 
C[C@@H](Cl)[C@H](Cl)Nc1ncnc2ccc(Cl)nc12

>  <inchikey>  (494) 
VOZRZFUCYNKGHX-MLUIRONXSA-N

>  <distance_score>  (494) 
0.738934

>  <ref_mols>  (494) 
Z0472a,Z1719a

>  <ref_pdb>  (494) 
Z0472a

>  <HIPPO Compound ID>  (494) 
139025

>  <name>  (494) 
P69645

>  <inspiration_score>  (494) 
None

$$$$
P69649
     RDKit          3D

 17 18  0  0  0  0  0  0  0  0999 V2000
   -3.0593    5.6574  -17.8844 O   0  0  0  0  0  0  0  0  0  0  0  0
   -3.1764    5.5971  -16.4736 C   0  0  2  0  0  0  0  0  0  0  0  0
   -1.7704    5.6415  -15.8936 C   0  0  0  0  0  0  0  0  0  0  0  0
   -1.7380    5.1810  -14.4415 C   0  0  0  0  0  0  0  0  0  0  0  0
   -0.0699    5.4215  -13.7444 S   0  0  0  0  0  0  0  0  0  0  0  0
   -3.7806    4.3389  -16.1078 N   0  0  0  0  0  0  0  0  0  0  0  0
   -5.1416    4.4592  -15.7178 C   0  0  0  0  0  0  0  0  0  0  0  0
   -5.4579    4.1607  -14.4455 N   0  0  0  0  0  0  0  0  0  0  0  0
   -6.7680    4.1078  -14.1601 C   0  0  0  0  0  0  0  0  0  0  0  0
   -7.7719    4.3315  -15.0170 N   0  0  0  0  0  0  0  0  0  0  0  0
   -7.4129    4.6371  -16.2689 C   0  0  0  0  0  0  0  0  0  0  0  0
   -8.3621    4.8255  -17.2528 C   0  0  0  0  0  0  0  0  0  0  0  0
   -7.9859    5.2782  -18.5182 C   0  0  0  0  0  0  0  0  0  0  0  0
   -6.6496    5.5179  -18.7618 C   0  0  0  0  0  0  0  0  0  0  0  0
   -6.0004    6.4715  -20.0255 Cl  0  0  0  0  0  0  0  0  0  0  0  0
   -5.6917    5.2248  -17.8846 N   0  0  0  0  0  0  0  0  0  0  0  0
   -6.0869    4.7907  -16.6723 C   0  0  0  0  0  0  0  0  0  0  0  0
  2  1  1  6
  2  3  1  0
  3  4  1  0
  4  5  1  0
  2  6  1  0
  6  7  1  0
  7  8  2  0
  8  9  1  0
  9 10  2  0
 10 11  1  0
 11 12  2  0
 12 13  1  0
 13 14  2  0
 14 15  1  0
 14 16  1  0
 16 17  2  0
 17  7  1  0
 17 11  1  0
M  END
>  <energy_score>  (495) 
-25.985249

>  <alias>  (495) 
None

>  <HIPPO Pose ID>  (495) 
69649

>  <smiles>  (495) 
O[C@H](CCS)Nc1ncnc2ccc(Cl)nc12

>  <inchikey>  (495) 
IQDQJRBJZHFABW-MRVPVSSYSA-N

>  <distance_score>  (495) 
1.069885

>  <ref_mols>  (495) 
Z1719a,Z0472a

>  <ref_pdb>  (495) 
Z0472a

>  <HIPPO Compound ID>  (495) 
139027

>  <name>  (495) 
P69649

>  <inspiration_score>  (495) 
None

$$$$
P69651
     RDKit          3D

 17 18  0  0  0  0  0  0  0  0999 V2000
   -0.8120    5.5929  -16.1723 C   0  0  0  0  0  0  0  0  0  0  0  0
   -2.1824    5.5929  -15.4969 C   0  0  0  0  0  0  0  0  0  0  0  0
   -2.4458    4.2791  -14.7530 C   0  0  0  0  0  0  0  0  0  0  0  0
   -3.3618    5.8672  -16.4471 C   0  0  2  0  0  0  0  0  0  0  0  0
   -2.9441    7.0363  -17.7437 Cl  0  0  0  0  0  0  0  0  0  0  0  0
   -4.4061    6.5458  -15.6670 N   0  0  0  0  0  0  0  0  0  0  0  0
   -5.5945    5.7675  -15.5381 C   0  0  0  0  0  0  0  0  0  0  0  0
   -5.9648    5.3511  -14.3154 N   0  0  0  0  0  0  0  0  0  0  0  0
   -7.1082    4.6498  -14.2559 C   0  0  0  0  0  0  0  0  0  0  0  0
   -7.8967    4.3290  -15.2926 N   0  0  0  0  0  0  0  0  0  0  0  0
   -7.4734    4.7217  -16.5025 C   0  0  0  0  0  0  0  0  0  0  0  0
   -8.1335    4.3765  -17.6733 C   0  0  0  0  0  0  0  0  0  0  0  0
   -7.6274    4.7607  -18.9201 C   0  0  0  0  0  0  0  0  0  0  0  0
   -6.5287    5.5913  -18.9452 C   0  0  0  0  0  0  0  0  0  0  0  0
   -5.8090    6.3416  -20.2953 Cl  0  0  0  0  0  0  0  0  0  0  0  0
   -5.8901    5.9678  -17.8451 N   0  0  0  0  0  0  0  0  0  0  0  0
   -6.3263    5.4874  -16.6762 C   0  0  0  0  0  0  0  0  0  0  0  0
  1  2  1  0
  2  3  1  0
  2  4  1  0
  4  5  1  6
  4  6  1  0
  6  7  1  0
  7  8  2  0
  8  9  1  0
  9 10  2  0
 10 11  1  0
 11 12  2  0
 12 13  1  0
 13 14  2  0
 14 15  1  0
 14 16  1  0
 16 17  2  0
 17  7  1  0
 17 11  1  0
M  END
>  <energy_score>  (496) 
-11.005722

>  <alias>  (496) 
None

>  <HIPPO Pose ID>  (496) 
69651

>  <smiles>  (496) 
CC(C)[C@H](Cl)Nc1ncnc2ccc(Cl)nc12

>  <inchikey>  (496) 
DUJGSXWYFGNQQU-SNVBAGLBSA-N

>  <distance_score>  (496) 
0.820961

>  <ref_mols>  (496) 
Z1719a,Z0472a

>  <ref_pdb>  (496) 
Z0472a

>  <HIPPO Compound ID>  (496) 
139028

>  <name>  (496) 
P69651

>  <inspiration_score>  (496) 
None

$$$$
P69654
     RDKit          3D

 17 18  0  0  0  0  0  0  0  0999 V2000
   -5.7907    6.2382  -20.2242 Cl  0  0  0  0  0  0  0  0  0  0  0  0
   -6.5113    5.4862  -18.8773 C   0  0  0  0  0  0  0  0  0  0  0  0
   -7.6861    4.7696  -18.8485 C   0  0  0  0  0  0  0  0  0  0  0  0
   -8.2165    4.4332  -17.6006 C   0  0  0  0  0  0  0  0  0  0  0  0
   -7.5330    4.7401  -16.4335 C   0  0  0  0  0  0  0  0  0  0  0  0
   -8.0285    4.4227  -15.2296 N   0  0  0  0  0  0  0  0  0  0  0  0
   -7.2526    4.7065  -14.1768 C   0  0  0  0  0  0  0  0  0  0  0  0
   -6.0444    5.2890  -14.2189 N   0  0  0  0  0  0  0  0  0  0  0  0
   -5.5840    5.6078  -15.4413 C   0  0  0  0  0  0  0  0  0  0  0  0
   -4.3055    6.2146  -15.4814 N   0  0  0  0  0  0  0  0  0  0  0  0
   -3.3475    5.5025  -16.3281 C   0  0  1  0  0  0  0  0  0  0  0  0
   -2.8384    6.6056  -17.6445 Cl  0  0  0  0  0  0  0  0  0  0  0  0
   -2.1009    5.1429  -15.5192 C   0  0  0  0  0  0  0  0  0  0  0  0
   -2.3907    4.1309  -14.4230 C   0  0  0  0  0  0  0  0  0  0  0  0
   -2.8385    5.0117  -12.7388 Br  0  0  0  0  0  0  0  0  0  0  0  0
   -6.3055    5.3786  -16.6012 C   0  0  0  0  0  0  0  0  0  0  0  0
   -5.8144    5.7685  -17.7837 N   0  0  0  0  0  0  0  0  0  0  0  0
  1  2  1  0
  2  3  2  0
  3  4  1  0
  4  5  2  0
  5  6  1  0
  6  7  2  0
  7  8  1  0
  8  9  2  0
  9 10  1  0
 10 11  1  0
 11 12  1  6
 11 13  1  0
 13 14  1  0
 14 15  1  0
  9 16  1  0
 16 17  2  0
 17  2  1  0
 16  5  1  0
M  END
>  <energy_score>  (497) 
-12.482024

>  <alias>  (497) 
None

>  <HIPPO Pose ID>  (497) 
69654

>  <smiles>  (497) 
Clc1ccc2ncnc(N[C@@H](Cl)CCBr)c2n1

>  <inchikey>  (497) 
OQVLKHBNWXBFHY-MRVPVSSYSA-N

>  <distance_score>  (497) 
0.802362

>  <ref_mols>  (497) 
Z1719a,Z0472a

>  <ref_pdb>  (497) 
Z0472a

>  <HIPPO Compound ID>  (497) 
139029

>  <name>  (497) 
P69654

>  <inspiration_score>  (497) 
None

$$$$
P69658
     RDKit          3D

 17 18  0  0  0  0  0  0  0  0999 V2000
   -2.9838    4.8343  -13.0356 Cl  0  0  0  0  0  0  0  0  0  0  0  0
   -2.2845    4.1554  -14.5257 C   0  0  0  0  0  0  0  0  0  0  0  0
   -2.1153    5.1932  -15.6267 C   0  0  0  0  0  0  0  0  0  0  0  0
   -3.3961    5.4407  -16.4207 C   0  0  2  0  0  0  0  0  0  0  0  0
   -2.9741    6.5832  -17.7353 Cl  0  0  0  0  0  0  0  0  0  0  0  0
   -4.3885    6.0771  -15.5625 N   0  0  0  0  0  0  0  0  0  0  0  0
   -5.6557    5.4654  -15.5178 C   0  0  0  0  0  0  0  0  0  0  0  0
   -6.1245    5.1626  -14.2936 N   0  0  0  0  0  0  0  0  0  0  0  0
   -7.3487    4.6141  -14.2498 C   0  0  0  0  0  0  0  0  0  0  0  0
   -8.1320    4.3478  -15.3013 N   0  0  0  0  0  0  0  0  0  0  0  0
   -7.6255    4.6471  -16.5055 C   0  0  0  0  0  0  0  0  0  0  0  0
   -8.3123    4.3691  -17.6768 C   0  0  0  0  0  0  0  0  0  0  0  0
   -7.7661    4.7044  -18.9190 C   0  0  0  0  0  0  0  0  0  0  0  0
   -6.5740    5.3935  -18.9375 C   0  0  0  0  0  0  0  0  0  0  0  0
   -5.8363    6.1886  -20.2492 Cl  0  0  0  0  0  0  0  0  0  0  0  0
   -5.8712    5.6310  -17.8417 N   0  0  0  0  0  0  0  0  0  0  0  0
   -6.3794    5.2456  -16.6703 C   0  0  0  0  0  0  0  0  0  0  0  0
  1  2  1  0
  2  3  1  0
  3  4  1  0
  4  5  1  6
  4  6  1  0
  6  7  1  0
  7  8  2  0
  8  9  1  0
  9 10  2  0
 10 11  1  0
 11 12  2  0
 12 13  1  0
 13 14  2  0
 14 15  1  0
 14 16  1  0
 16 17  2  0
 17  7  1  0
 17 11  1  0
M  END
>  <energy_score>  (498) 
-11.870898

>  <alias>  (498) 
None

>  <HIPPO Pose ID>  (498) 
69658

>  <smiles>  (498) 
ClCC[C@H](Cl)Nc1ncnc2ccc(Cl)nc12

>  <inchikey>  (498) 
AXAQCZAJOVGPHS-MRVPVSSYSA-N

>  <distance_score>  (498) 
0.975834

>  <ref_mols>  (498) 
Z1719a,Z0472a

>  <ref_pdb>  (498) 
Z0472a

>  <HIPPO Compound ID>  (498) 
139032

>  <name>  (498) 
P69658

>  <inspiration_score>  (498) 
None

$$$$
P69663
     RDKit          3D

 17 18  0  0  0  0  0  0  0  0999 V2000
   -3.1797    7.2598  -17.8448 C   0  0  0  0  0  0  0  0  0  0  0  0
   -2.9181    5.7863  -17.5622 C   0  0  1  0  0  0  0  0  0  0  0  0
   -1.2246    5.4810  -18.2325 S   0  0  0  0  0  0  0  0  0  0  0  0
   -3.0268    5.4064  -16.0600 C   0  0  2  0  0  0  0  0  0  0  0  0
   -2.9946    4.0058  -15.8502 O   0  0  0  0  0  0  0  0  0  0  0  0
   -4.1422    5.9705  -15.3005 N   0  0  0  0  0  0  0  0  0  0  0  0
   -5.4168    5.3867  -15.3118 C   0  0  0  0  0  0  0  0  0  0  0  0
   -5.8807    5.0708  -14.0865 N   0  0  0  0  0  0  0  0  0  0  0  0
   -7.1163    4.5544  -14.0256 C   0  0  0  0  0  0  0  0  0  0  0  0
   -7.9363    4.3545  -15.0607 N   0  0  0  0  0  0  0  0  0  0  0  0
   -7.4527    4.6727  -16.2648 C   0  0  0  0  0  0  0  0  0  0  0  0
   -8.2284    4.4716  -17.3977 C   0  0  0  0  0  0  0  0  0  0  0  0
   -7.7594    4.8320  -18.6593 C   0  0  0  0  0  0  0  0  0  0  0  0
   -6.5286    5.4385  -18.7267 C   0  0  0  0  0  0  0  0  0  0  0  0
   -5.8426    6.1773  -20.1002 Cl  0  0  0  0  0  0  0  0  0  0  0  0
   -5.7399    5.6157  -17.6651 N   0  0  0  0  0  0  0  0  0  0  0  0
   -6.1817    5.2229  -16.4614 C   0  0  0  0  0  0  0  0  0  0  0  0
  2  1  1  1
  2  3  1  0
  2  4  1  0
  4  5  1  6
  4  6  1  0
  6  7  1  0
  7  8  2  0
  8  9  1  0
  9 10  2  0
 10 11  1  0
 11 12  2  0
 12 13  1  0
 13 14  2  0
 14 15  1  0
 14 16  1  0
 16 17  2  0
 17  7  1  0
 17 11  1  0
M  END
>  <energy_score>  (499) 
-23.551069

>  <alias>  (499) 
None

>  <HIPPO Pose ID>  (499) 
69663

>  <smiles>  (499) 
C[C@@H](S)[C@H](O)Nc1ncnc2ccc(Cl)nc12

>  <inchikey>  (499) 
NAIIKUIXIMJRHA-FWOIEVBISA-N

>  <distance_score>  (499) 
0.746994

>  <ref_mols>  (499) 
Z1719a,Z0472a

>  <ref_pdb>  (499) 
Z0472a

>  <HIPPO Compound ID>  (499) 
139034

>  <name>  (499) 
P69663

>  <inspiration_score>  (499) 
None

$$$$
P69667
     RDKit          3D

 17 18  0  0  0  0  0  0  0  0999 V2000
   -3.1623    3.9508  -15.0637 C   0  0  0  0  0  0  0  0  0  0  0  0
   -2.8846    4.5013  -16.4243 C   0  0  0  0  0  0  0  0  0  0  0  0
   -3.0173    5.7673  -16.8632 C   0  0  0  0  0  0  0  0  0  0  0  0
   -2.5553    6.1139  -18.2594 C   0  0  0  0  0  0  0  0  0  0  0  0
   -3.6131    6.9442  -16.1180 C   0  0  0  0  0  0  0  0  0  0  0  0
   -4.5874    6.5931  -15.1091 N   0  0  0  0  0  0  0  0  0  0  0  0
   -5.7544    5.8777  -15.2977 C   0  0  0  0  0  0  0  0  0  0  0  0
   -6.2651    5.4108  -14.1357 N   0  0  0  0  0  0  0  0  0  0  0  0
   -7.3825    4.6810  -14.2184 C   0  0  0  0  0  0  0  0  0  0  0  0
   -8.0308    4.3737  -15.3408 N   0  0  0  0  0  0  0  0  0  0  0  0
   -7.4855    4.8186  -16.4772 C   0  0  0  0  0  0  0  0  0  0  0  0
   -8.0474    4.4354  -17.6819 C   0  0  0  0  0  0  0  0  0  0  0  0
   -7.4814    4.8282  -18.8896 C   0  0  0  0  0  0  0  0  0  0  0  0
   -6.4300    5.7118  -18.8441 C   0  0  0  0  0  0  0  0  0  0  0  0
   -5.7206    6.4593  -20.2075 Cl  0  0  0  0  0  0  0  0  0  0  0  0
   -5.8744    6.1358  -17.7046 N   0  0  0  0  0  0  0  0  0  0  0  0
   -6.3508    5.6374  -16.5381 C   0  0  0  0  0  0  0  0  0  0  0  0
  1  2  1  0
  2  3  2  0
  3  4  1  0
  3  5  1  0
  5  6  1  0
  6  7  1  0
  7  8  2  0
  8  9  1  0
  9 10  2  0
 10 11  1  0
 11 12  2  0
 12 13  1  0
 13 14  2  0
 14 15  1  0
 14 16  1  0
 16 17  2  0
 17  7  1  0
 17 11  1  0
M  END
>  <energy_score>  (500) 
-14.808551

>  <alias>  (500) 
None

>  <HIPPO Pose ID>  (500) 
69667

>  <smiles>  (500) 
C/C=C(/C)CNc1ncnc2ccc(Cl)nc12

>  <inchikey>  (500) 
WRHLFLYUSDJREU-BAQGIRSFSA-N

>  <distance_score>  (500) 
0.767506

>  <ref_mols>  (500) 
Z1719a,Z0472a

>  <ref_pdb>  (500) 
Z0472a

>  <HIPPO Compound ID>  (500) 
139035

>  <name>  (500) 
P69667

>  <inspiration_score>  (500) 
None

$$$$
P69668
     RDKit          3D

 17 19  0  0  0  0  0  0  0  0999 V2000
   -5.9573    6.4939  -19.9144 Cl  0  0  0  0  0  0  0  0  0  0  0  0
   -6.6669    5.7241  -18.5630 C   0  0  0  0  0  0  0  0  0  0  0  0
   -7.8482    5.0188  -18.5629 C   0  0  0  0  0  0  0  0  0  0  0  0
   -8.3098    4.5261  -17.3444 C   0  0  0  0  0  0  0  0  0  0  0  0
   -7.5406    4.6396  -16.1979 C   0  0  0  0  0  0  0  0  0  0  0  0
   -7.9775    4.1259  -15.0461 N   0  0  0  0  0  0  0  0  0  0  0  0
   -7.1119    4.1409  -14.0269 C   0  0  0  0  0  0  0  0  0  0  0  0
   -5.8700    4.6403  -14.0532 N   0  0  0  0  0  0  0  0  0  0  0  0
   -5.4792    5.2043  -15.2099 C   0  0  0  0  0  0  0  0  0  0  0  0
   -4.1556    5.7192  -15.2453 N   0  0  0  0  0  0  0  0  0  0  0  0
   -3.1986    4.8800  -15.9995 C   0  0  0  0  0  0  0  0  0  0  0  0
   -3.2321    5.2041  -17.5010 C   0  0  0  0  0  0  0  0  0  0  0  0
   -1.9706    4.9545  -18.2486 C   0  0  0  0  0  0  0  0  0  0  0  0
   -0.8012    5.8982  -18.1500 C   0  0  0  0  0  0  0  0  0  0  0  0
   -1.6304    5.8608  -19.4035 C   0  0  0  0  0  0  0  0  0  0  0  0
   -6.3071    5.2765  -16.3335 C   0  0  0  0  0  0  0  0  0  0  0  0
   -5.9252    5.9040  -17.4651 N   0  0  0  0  0  0  0  0  0  0  0  0
  1  2  1  0
  2  3  2  0
  3  4  1  0
  4  5  2  0
  5  6  1  0
  6  7  2  0
  7  8  1  0
  8  9  2  0
  9 10  1  0
 10 11  1  0
 11 12  1  0
 12 13  1  0
 13 14  1  0
 14 15  1  0
  9 16  1  0
 16 17  2  0
 17  2  1  0
 16  5  1  0
 15 13  1  0
M  END
>  <energy_score>  (501) 
-7.869081

>  <alias>  (501) 
None

>  <HIPPO Pose ID>  (501) 
69668

>  <smiles>  (501) 
Clc1ccc2ncnc(NCCC3CC3)c2n1

>  <inchikey>  (501) 
WTRDDAXKCCSRFT-UHFFFAOYSA-N

>  <distance_score>  (501) 
1.186759

>  <ref_mols>  (501) 
Z1719a,Z0472a

>  <ref_pdb>  (501) 
Z0472a

>  <HIPPO Compound ID>  (501) 
139036

>  <name>  (501) 
P69668

>  <inspiration_score>  (501) 
None

$$$$
P69669
     RDKit          3D

 17 18  0  0  0  0  0  0  0  0999 V2000
   -1.3328    4.0997  -13.4072 C   0  0  0  0  0  0  0  0  0  0  0  0
   -2.4669    4.2292  -14.4152 C   0  0  0  0  0  0  0  0  0  0  0  0
   -2.1132    5.2123  -15.5322 C   0  0  0  0  0  0  0  0  0  0  0  0
   -3.2926    5.4518  -16.4673 C   0  0  2  0  0  0  0  0  0  0  0  0
   -2.7119    6.3660  -17.8962 Cl  0  0  0  0  0  0  0  0  0  0  0  0
   -4.2479    6.3362  -15.7934 N   0  0  0  0  0  0  0  0  0  0  0  0
   -5.5069    5.6828  -15.5951 C   0  0  0  0  0  0  0  0  0  0  0  0
   -5.8619    5.2806  -14.3636 N   0  0  0  0  0  0  0  0  0  0  0  0
   -7.0406    4.6421  -14.2742 C   0  0  0  0  0  0  0  0  0  0  0  0
   -7.8690    4.3575  -15.2909 N   0  0  0  0  0  0  0  0  0  0  0  0
   -7.4582    4.7335  -16.5112 C   0  0  0  0  0  0  0  0  0  0  0  0
   -8.1437    4.4074  -17.6720 C   0  0  0  0  0  0  0  0  0  0  0  0
   -7.6426    4.7810  -18.9250 C   0  0  0  0  0  0  0  0  0  0  0  0
   -6.5229    5.5851  -18.9665 C   0  0  0  0  0  0  0  0  0  0  0  0
   -5.8221    6.3548  -20.3159 Cl  0  0  0  0  0  0  0  0  0  0  0  0
   -5.8503    5.9299  -17.8774 N   0  0  0  0  0  0  0  0  0  0  0  0
   -6.2870    5.4546  -16.7085 C   0  0  0  0  0  0  0  0  0  0  0  0
  1  2  1  0
  2  3  1  0
  3  4  1  0
  4  5  1  6
  4  6  1  0
  6  7  1  0
  7  8  2  0
  8  9  1  0
  9 10  2  0
 10 11  1  0
 11 12  2  0
 12 13  1  0
 13 14  2  0
 14 15  1  0
 14 16  1  0
 16 17  2  0
 17  7  1  0
 17 11  1  0
M  END
>  <energy_score>  (502) 
-21.15878

>  <alias>  (502) 
None

>  <HIPPO Pose ID>  (502) 
69669

>  <smiles>  (502) 
CCC[C@H](Cl)Nc1ncnc2ccc(Cl)nc12

>  <inchikey>  (502) 
CPSBORABQBZLSW-MRVPVSSYSA-N

>  <distance_score>  (502) 
0.753259

>  <ref_mols>  (502) 
Z1719a,Z0472a

>  <ref_pdb>  (502) 
Z0472a

>  <HIPPO Compound ID>  (502) 
139037

>  <name>  (502) 
P69669

>  <inspiration_score>  (502) 
None

$$$$
P69676
     RDKit          3D

 17 19  0  0  0  0  0  0  0  0999 V2000
   -2.8286    4.3653  -14.8032 O   0  0  0  0  0  0  0  0  0  0  0  0
   -2.8606    5.5027  -15.4617 C   0  0  2  0  0  0  0  0  0  0  0  0
   -4.1516    6.1415  -15.1646 N   0  0  0  0  0  0  0  0  0  0  0  0
   -5.3971    5.5092  -15.3288 C   0  0  0  0  0  0  0  0  0  0  0  0
   -5.9635    5.1202  -14.1551 N   0  0  0  0  0  0  0  0  0  0  0  0
   -7.1354    4.4902  -14.2303 C   0  0  0  0  0  0  0  0  0  0  0  0
   -7.8371    4.2656  -15.3391 N   0  0  0  0  0  0  0  0  0  0  0  0
   -7.2757    4.7018  -16.4715 C   0  0  0  0  0  0  0  0  0  0  0  0
   -7.9281    4.4330  -17.6603 C   0  0  0  0  0  0  0  0  0  0  0  0
   -7.4024    4.8624  -18.8708 C   0  0  0  0  0  0  0  0  0  0  0  0
   -6.3127    5.6976  -18.8289 C   0  0  0  0  0  0  0  0  0  0  0  0
   -5.6775    6.5296  -20.1847 Cl  0  0  0  0  0  0  0  0  0  0  0  0
   -5.6839    6.0235  -17.6988 N   0  0  0  0  0  0  0  0  0  0  0  0
   -6.0723    5.4183  -16.5477 C   0  0  0  0  0  0  0  0  0  0  0  0
   -2.3788    5.2934  -16.8693 C   0  0  2  0  0  0  0  0  0  0  0  0
   -2.7507    6.2118  -17.9948 C   0  0  0  0  0  0  0  0  0  0  0  0
   -3.2408    4.8566  -17.9161 O   0  0  0  0  0  0  0  0  0  0  0  0
  2  1  1  6
  2  3  1  0
  3  4  1  0
  4  5  2  0
  5  6  1  0
  6  7  2  0
  7  8  1  0
  8  9  2  0
  9 10  1  0
 10 11  2  0
 11 12  1  0
 11 13  1  0
 13 14  2  0
  2 15  1  0
 15 16  1  6
 16 17  1  0
 14  4  1  0
 17 15  1  0
 14  8  1  0
M  CHG  1   1  -1
M  END
>  <energy_score>  (503) 
-24.967274

>  <alias>  (503) 
None

>  <HIPPO Pose ID>  (503) 
69676

>  <smiles>  (503) 
[O-][C@H](Nc1ncnc2ccc(Cl)nc12)[C@@H]1CO1

>  <inchikey>  (503) 
PRIBBIGBOWTBIH-WKEGUHRASA-N

>  <distance_score>  (503) 
0.808884

>  <ref_mols>  (503) 
Z1719a,Z0472a

>  <ref_pdb>  (503) 
Z0472a

>  <HIPPO Compound ID>  (503) 
139040

>  <name>  (503) 
P69676

>  <inspiration_score>  (503) 
None

$$$$
P69678
     RDKit          3D

 17 18  0  0  0  0  0  0  0  0999 V2000
   -3.1055    6.2272  -17.4894 O   0  0  0  0  0  0  0  0  0  0  0  0
   -3.3885    5.4482  -16.3374 C   0  0  1  0  0  0  0  0  0  0  0  0
   -2.0761    5.2040  -15.6083 C   0  0  0  0  0  0  0  0  0  0  0  0
   -2.2054    4.3800  -14.3323 C   0  0  0  0  0  0  0  0  0  0  0  0
   -3.1035    2.8601  -14.5174 Cl  0  0  0  0  0  0  0  0  0  0  0  0
   -4.3034    6.2062  -15.4926 N   0  0  0  0  0  0  0  0  0  0  0  0
   -5.5948    5.6233  -15.4445 C   0  0  0  0  0  0  0  0  0  0  0  0
   -6.0520    5.2977  -14.2226 N   0  0  0  0  0  0  0  0  0  0  0  0
   -7.2545    4.7018  -14.1952 C   0  0  0  0  0  0  0  0  0  0  0  0
   -8.0238    4.4241  -15.2562 N   0  0  0  0  0  0  0  0  0  0  0  0
   -7.5261    4.7560  -16.4561 C   0  0  0  0  0  0  0  0  0  0  0  0
   -8.1901    4.4391  -17.6309 C   0  0  0  0  0  0  0  0  0  0  0  0
   -7.6479    4.7809  -18.8725 C   0  0  0  0  0  0  0  0  0  0  0  0
   -6.4906    5.5271  -18.8897 C   0  0  0  0  0  0  0  0  0  0  0  0
   -5.7649    6.2797  -20.2345 Cl  0  0  0  0  0  0  0  0  0  0  0  0
   -5.8104    5.8365  -17.7896 N   0  0  0  0  0  0  0  0  0  0  0  0
   -6.3091    5.4150  -16.6132 C   0  0  0  0  0  0  0  0  0  0  0  0
  2  1  1  6
  2  3  1  0
  3  4  1  0
  4  5  1  0
  2  6  1  0
  6  7  1  0
  7  8  2  0
  8  9  1  0
  9 10  2  0
 10 11  1  0
 11 12  2  0
 12 13  1  0
 13 14  2  0
 14 15  1  0
 14 16  1  0
 16 17  2  0
 17  7  1  0
 17 11  1  0
M  END
>  <energy_score>  (504) 
-13.215206

>  <alias>  (504) 
None

>  <HIPPO Pose ID>  (504) 
69678

>  <smiles>  (504) 
O[C@@H](CCCl)Nc1ncnc2ccc(Cl)nc12

>  <inchikey>  (504) 
BYPPMOGNHUQVPY-QMMMGPOBSA-N

>  <distance_score>  (504) 
0.767376

>  <ref_mols>  (504) 
Z1719a,Z0472a

>  <ref_pdb>  (504) 
Z0472a

>  <HIPPO Compound ID>  (504) 
139041

>  <name>  (504) 
P69678

>  <inspiration_score>  (504) 
None

$$$$
P69682
     RDKit          3D

 17 18  0  0  0  0  0  0  0  0999 V2000
   -3.1303    7.1388  -17.9985 C   0  0  0  0  0  0  0  0  0  0  0  0
   -2.9900    5.6581  -17.6844 C   0  0  1  0  0  0  0  0  0  0  0  0
   -1.4093    5.1569  -18.4175 Cl  0  0  0  0  0  0  0  0  0  0  0  0
   -3.0390    5.3406  -16.1670 C   0  0  2  0  0  0  0  0  0  0  0  0
   -3.0044    3.9497  -15.8988 O   0  0  0  0  0  0  0  0  0  0  0  0
   -4.1103    5.9437  -15.3709 N   0  0  0  0  0  0  0  0  0  0  0  0
   -5.4011    5.3906  -15.3469 C   0  0  0  0  0  0  0  0  0  0  0  0
   -5.8298    5.0464  -14.1176 N   0  0  0  0  0  0  0  0  0  0  0  0
   -7.0661    4.5323  -14.0351 C   0  0  0  0  0  0  0  0  0  0  0  0
   -7.9106    4.3476  -15.0540 N   0  0  0  0  0  0  0  0  0  0  0  0
   -7.4596    4.6916  -16.2641 C   0  0  0  0  0  0  0  0  0  0  0  0
   -8.2474    4.4913  -17.3891 C   0  0  0  0  0  0  0  0  0  0  0  0
   -7.7977    4.8667  -18.6544 C   0  0  0  0  0  0  0  0  0  0  0  0
   -6.5805    5.4993  -18.7318 C   0  0  0  0  0  0  0  0  0  0  0  0
   -5.8953    6.2303  -20.1105 Cl  0  0  0  0  0  0  0  0  0  0  0  0
   -5.7886    5.6900  -17.6751 N   0  0  0  0  0  0  0  0  0  0  0  0
   -6.2011    5.2613  -16.4754 C   0  0  0  0  0  0  0  0  0  0  0  0
  2  1  1  1
  2  3  1  0
  2  4  1  0
  4  5  1  6
  4  6  1  0
  6  7  1  0
  7  8  2  0
  8  9  1  0
  9 10  2  0
 10 11  1  0
 11 12  2  0
 12 13  1  0
 13 14  2  0
 14 15  1  0
 14 16  1  0
 16 17  2  0
 17  7  1  0
 17 11  1  0
M  END
>  <energy_score>  (505) 
-14.176005

>  <alias>  (505) 
None

>  <HIPPO Pose ID>  (505) 
69682

>  <smiles>  (505) 
C[C@@H](Cl)[C@H](O)Nc1ncnc2ccc(Cl)nc12

>  <inchikey>  (505) 
OKBJJYBNGHGQFS-FWOIEVBISA-N

>  <distance_score>  (505) 
0.723942

>  <ref_mols>  (505) 
Z1719a,Z0472a

>  <ref_pdb>  (505) 
Z0472a

>  <HIPPO Compound ID>  (505) 
139043

>  <name>  (505) 
P69682

>  <inspiration_score>  (505) 
None

$$$$
P69685
     RDKit          3D

 17 18  0  0  0  0  0  0  0  0999 V2000
   -0.8397    5.5734  -15.6654 C   0  0  0  0  0  0  0  0  0  0  0  0
   -2.3172    5.4370  -15.2982 C   0  0  0  0  0  0  0  0  0  0  0  0
   -2.6299    4.0441  -14.7391 C   0  0  0  0  0  0  0  0  0  0  0  0
   -3.3472    5.7753  -16.4035 C   0  0  2  0  0  0  0  0  0  0  0  0
   -2.7138    6.7802  -17.8017 S   0  0  0  0  0  0  0  0  0  0  0  0
   -4.4079    6.5692  -15.7668 N   0  0  0  0  0  0  0  0  0  0  0  0
   -5.6121    5.8195  -15.5894 C   0  0  0  0  0  0  0  0  0  0  0  0
   -5.9710    5.4180  -14.3588 N   0  0  0  0  0  0  0  0  0  0  0  0
   -7.1112    4.7115  -14.2858 C   0  0  0  0  0  0  0  0  0  0  0  0
   -7.9010    4.3674  -15.3156 N   0  0  0  0  0  0  0  0  0  0  0  0
   -7.4844    4.7462  -16.5335 C   0  0  0  0  0  0  0  0  0  0  0  0
   -8.1336    4.3781  -17.7038 C   0  0  0  0  0  0  0  0  0  0  0  0
   -7.6226    4.7510  -18.9535 C   0  0  0  0  0  0  0  0  0  0  0  0
   -6.5333    5.5949  -18.9847 C   0  0  0  0  0  0  0  0  0  0  0  0
   -5.8108    6.3448  -20.3335 Cl  0  0  0  0  0  0  0  0  0  0  0  0
   -5.9050    5.9901  -17.8879 N   0  0  0  0  0  0  0  0  0  0  0  0
   -6.3459    5.5198  -16.7179 C   0  0  0  0  0  0  0  0  0  0  0  0
  1  2  1  0
  2  3  1  0
  2  4  1  0
  4  5  1  6
  4  6  1  0
  6  7  1  0
  7  8  2  0
  8  9  1  0
  9 10  2  0
 10 11  1  0
 11 12  2  0
 12 13  1  0
 13 14  2  0
 14 15  1  0
 14 16  1  0
 16 17  2  0
 17  7  1  0
 17 11  1  0
M  END
>  <energy_score>  (506) 
-29.170965

>  <alias>  (506) 
None

>  <HIPPO Pose ID>  (506) 
69685

>  <smiles>  (506) 
CC(C)[C@H](S)Nc1ncnc2ccc(Cl)nc12

>  <inchikey>  (506) 
XXFWZNODCOXDHN-NSHDSACASA-N

>  <distance_score>  (506) 
0.794071

>  <ref_mols>  (506) 
Z1719a,Z0472a

>  <ref_pdb>  (506) 
Z0472a

>  <HIPPO Compound ID>  (506) 
139044

>  <name>  (506) 
P69685

>  <inspiration_score>  (506) 
None

$$$$
P69687
     RDKit          3D

 17 18  0  0  0  0  0  0  0  0999 V2000
   -3.1406    7.1997  -17.7263 C   0  0  0  0  0  0  0  0  0  0  0  0
   -2.9178    5.8674  -17.0173 C   0  0  1  0  0  0  0  0  0  0  0  0
   -0.9375    5.6863  -17.0395 Br  0  0  0  0  0  0  0  0  0  0  0  0
   -3.3263    5.7864  -15.5299 C   0  0  2  0  0  0  0  0  0  0  0  0
   -3.2488    4.4498  -15.0569 O   0  0  0  0  0  0  0  0  0  0  0  0
   -4.6158    6.3538  -15.1743 N   0  0  0  0  0  0  0  0  0  0  0  0
   -5.7617    5.5427  -15.2687 C   0  0  0  0  0  0  0  0  0  0  0  0
   -6.2376    5.0638  -14.1029 N   0  0  0  0  0  0  0  0  0  0  0  0
   -7.4026    4.4062  -14.1712 C   0  0  0  0  0  0  0  0  0  0  0  0
   -8.1134    4.1822  -15.2802 N   0  0  0  0  0  0  0  0  0  0  0  0
   -7.5719    4.5996  -16.4294 C   0  0  0  0  0  0  0  0  0  0  0  0
   -8.1918    4.3297  -17.6384 C   0  0  0  0  0  0  0  0  0  0  0  0
   -7.6135    4.7317  -18.8404 C   0  0  0  0  0  0  0  0  0  0  0  0
   -6.4718    5.4957  -18.7780 C   0  0  0  0  0  0  0  0  0  0  0  0
   -5.7129    6.2506  -20.1063 Cl  0  0  0  0  0  0  0  0  0  0  0  0
   -5.8554    5.8065  -17.6320 N   0  0  0  0  0  0  0  0  0  0  0  0
   -6.3765    5.3160  -16.4933 C   0  0  0  0  0  0  0  0  0  0  0  0
  2  1  1  1
  2  3  1  0
  2  4  1  0
  4  5  1  6
  4  6  1  0
  6  7  1  0
  7  8  2  0
  8  9  1  0
  9 10  2  0
 10 11  1  0
 11 12  2  0
 12 13  1  0
 13 14  2  0
 14 15  1  0
 14 16  1  0
 16 17  2  0
 17  7  1  0
 17 11  1  0
M  END
>  <energy_score>  (507) 
-19.249198

>  <alias>  (507) 
None

>  <HIPPO Pose ID>  (507) 
69687

>  <smiles>  (507) 
C[C@@H](Br)[C@H](O)Nc1ncnc2ccc(Cl)nc12

>  <inchikey>  (507) 
MCVFFZPHFIRWLC-FWOIEVBISA-N

>  <distance_score>  (507) 
0.906156

>  <ref_mols>  (507) 
Z1719a,Z0472a

>  <ref_pdb>  (507) 
Z0472a

>  <HIPPO Compound ID>  (507) 
139045

>  <name>  (507) 
P69687

>  <inspiration_score>  (507) 
None

$$$$
P69692
     RDKit          3D

 17 19  0  0  0  0  0  0  0  0999 V2000
   -2.6703    7.2531  -18.7756 C   0  0  0  0  0  0  0  0  0  0  0  0
   -2.7877    5.8649  -18.2765 C   0  0  1  0  0  0  0  0  0  0  0  0
   -1.5809    5.0115  -18.0917 C   0  0  0  0  0  0  0  0  0  0  0  0
   -2.3421    5.5146  -16.8784 C   0  0  2  0  0  0  0  0  0  0  0  0
   -3.1992    4.6240  -16.0302 C   0  0  0  0  0  0  0  0  0  0  0  0
   -4.0683    5.4634  -15.2037 N   0  0  0  0  0  0  0  0  0  0  0  0
   -5.4257    5.0805  -15.2091 C   0  0  0  0  0  0  0  0  0  0  0  0
   -5.8997    4.7304  -13.9959 N   0  0  0  0  0  0  0  0  0  0  0  0
   -7.1868    4.3638  -13.9518 C   0  0  0  0  0  0  0  0  0  0  0  0
   -8.0252    4.3063  -14.9883 N   0  0  0  0  0  0  0  0  0  0  0  0
   -7.5202    4.6437  -16.1787 C   0  0  0  0  0  0  0  0  0  0  0  0
   -8.3243    4.5516  -17.3020 C   0  0  0  0  0  0  0  0  0  0  0  0
   -7.8519    4.9472  -18.5487 C   0  0  0  0  0  0  0  0  0  0  0  0
   -6.5842    5.4776  -18.6123 C   0  0  0  0  0  0  0  0  0  0  0  0
   -5.9324    6.2663  -19.9804 Cl  0  0  0  0  0  0  0  0  0  0  0  0
   -5.7593    5.5418  -17.5606 N   0  0  0  0  0  0  0  0  0  0  0  0
   -6.2104    5.0978  -16.3675 C   0  0  0  0  0  0  0  0  0  0  0  0
  2  1  1  1
  2  3  1  0
  3  4  1  0
  4  5  1  6
  5  6  1  0
  6  7  1  0
  7  8  2  0
  8  9  1  0
  9 10  2  0
 10 11  1  0
 11 12  2  0
 12 13  1  0
 13 14  2  0
 14 15  1  0
 14 16  1  0
 16 17  2  0
  4  2  1  0
 17  7  1  0
 17 11  1  0
M  END
>  <energy_score>  (508) 
-13.393539

>  <alias>  (508) 
None

>  <HIPPO Pose ID>  (508) 
69692

>  <smiles>  (508) 
C[C@H]1C[C@@H]1CNc1ncnc2ccc(Cl)nc12

>  <inchikey>  (508) 
UNMGNQSOQYUOLC-JGVFFNPUSA-N

>  <distance_score>  (508) 
0.974236

>  <ref_mols>  (508) 
Z0472a,Z1719a

>  <ref_pdb>  (508) 
Z0472a

>  <HIPPO Compound ID>  (508) 
139046

>  <name>  (508) 
P69692

>  <inspiration_score>  (508) 
None

$$$$
P69695
     RDKit          3D

 17 18  0  0  0  0  0  0  0  0999 V2000
   -1.6891    7.2520  -17.3254 C   0  0  0  0  0  0  0  0  0  0  0  0
   -2.6345    6.1273  -17.7381 C   0  0  0  0  0  0  0  0  0  0  0  0
   -3.2489    5.3559  -16.5476 C   0  0  2  0  0  0  0  0  0  0  0  0
   -4.1137    6.2240  -15.7237 N   0  0  0  0  0  0  0  0  0  0  0  0
   -5.4068    5.6269  -15.5359 C   0  0  0  0  0  0  0  0  0  0  0  0
   -5.7639    5.2196  -14.3051 N   0  0  0  0  0  0  0  0  0  0  0  0
   -6.9629    4.6239  -14.2069 C   0  0  0  0  0  0  0  0  0  0  0  0
   -7.8134    4.3835  -15.2150 N   0  0  0  0  0  0  0  0  0  0  0  0
   -7.4076    4.7654  -16.4335 C   0  0  0  0  0  0  0  0  0  0  0  0
   -8.1305    4.4682  -17.5786 C   0  0  0  0  0  0  0  0  0  0  0  0
   -7.6557    4.8444  -18.8388 C   0  0  0  0  0  0  0  0  0  0  0  0
   -6.5152    5.6166  -18.8993 C   0  0  0  0  0  0  0  0  0  0  0  0
   -5.8341    6.3680  -20.2701 Cl  0  0  0  0  0  0  0  0  0  0  0  0
   -5.8005    5.9338  -17.8242 N   0  0  0  0  0  0  0  0  0  0  0  0
   -6.2172    5.4560  -16.6442 C   0  0  0  0  0  0  0  0  0  0  0  0
   -2.1593    4.8802  -15.7577 O   0  0  0  0  0  0  0  0  0  0  0  0
   -2.5906    4.0908  -14.6579 C   0  0  0  0  0  0  0  0  0  0  0  0
  1  2  1  0
  3  2  1  6
  3  4  1  0
  4  5  1  0
  5  6  2  0
  6  7  1  0
  7  8  2  0
  8  9  1  0
  9 10  2  0
 10 11  1  0
 11 12  2  0
 12 13  1  0
 12 14  1  0
 14 15  2  0
  3 16  1  0
 16 17  1  0
 15  5  1  0
 15  9  1  0
M  END
>  <energy_score>  (509) 
-12.690048

>  <alias>  (509) 
None

>  <HIPPO Pose ID>  (509) 
69695

>  <smiles>  (509) 
CC[C@H](Nc1ncnc2ccc(Cl)nc12)OC

>  <inchikey>  (509) 
UHQZEZZPYDPMST-SECBINFHSA-N

>  <distance_score>  (509) 
0.760952

>  <ref_mols>  (509) 
Z0472a,Z1719a

>  <ref_pdb>  (509) 
Z0472a

>  <HIPPO Compound ID>  (509) 
139047

>  <name>  (509) 
P69695

>  <inspiration_score>  (509) 
None

$$$$
P69697
     RDKit          3D

 20 21  0  0  0  0  0  0  0  0999 V2000
   -4.2130    6.7012  -19.1807 C   0  0  0  0  0  0  0  0  0  0  0  0
   -4.7663    5.6022  -18.6530 C   0  0  0  0  0  0  0  0  0  0  0  0
   -6.0191    4.9793  -19.1952 C   0  0  0  0  0  0  0  0  0  0  0  0
   -7.2250    4.9240  -18.2752 C   0  0  0  0  0  0  0  0  0  0  0  0
   -6.8358    4.3684  -17.0284 O   0  0  0  0  0  0  0  0  0  0  0  0
   -7.0296    5.2233  -15.9199 C   0  0  2  0  0  0  0  0  0  0  0  0
   -6.1319    6.4551  -15.9363 C   0  0  0  0  0  0  0  0  0  0  0  0
   -6.6843    4.4849  -14.6158 C   0  0  0  0  0  0  0  0  0  0  0  0
   -5.8300    3.6908  -14.5103 O   0  0  0  0  0  0  0  0  0  0  0  0
   -7.6889    5.0418  -13.5506 N   0  0  0  0  0  0  0  0  0  0  0  0
   -7.7719    4.8143  -12.2064 C   0  0  0  0  0  0  0  0  0  0  0  0
   -8.2698    5.9847  -11.4709 C   0  0  0  0  0  0  0  0  0  0  0  0
   -8.4665    5.9076  -10.1478 C   0  0  0  0  0  0  0  0  0  0  0  0
   -8.2508    4.6962   -9.5112 N   0  0  0  0  0  0  0  0  0  0  0  0
   -8.4438    4.3685   -8.1950 C   0  0  0  0  0  0  0  0  0  0  0  0
   -8.1492    3.0297   -8.1071 C   0  0  0  0  0  0  0  0  0  0  0  0
   -7.7405    2.5467   -9.3158 N   0  0  0  0  0  0  0  0  0  0  0  0
   -7.7947    3.5583  -10.1572 C   0  0  0  0  0  0  0  0  0  0  0  0
   -7.4977    3.6543  -11.5567 C   0  0  0  0  0  0  0  0  0  0  0  0
   -6.8615    2.0606  -12.3000 Br  0  0  0  0  0  0  0  0  0  0  0  0
  1  2  2  0
  2  3  1  0
  3  4  1  0
  4  5  1  0
  5  6  1  0
  6  7  1  6
  6  8  1  0
  8  9  2  0
  8 10  1  0
 10 11  1  0
 11 12  1  0
 12 13  2  0
 13 14  1  0
 14 15  1  0
 15 16  2  0
 16 17  1  0
 17 18  2  0
 18 19  1  0
 19 20  1  0
 19 11  2  0
 18 14  1  0
M  END
>  <energy_score>  (510) 
-18.714223

>  <alias>  (510) 
None

>  <HIPPO Pose ID>  (510) 
69697

>  <smiles>  (510) 
C=CCCO[C@H](C)C(=O)Nc1ccn2ccnc2c1Br

>  <inchikey>  (510) 
ZKFWTTIYYGWFOD-SNVBAGLBSA-N

>  <distance_score>  (510) 
0.985376

>  <ref_mols>  (510) 
Z1046b,Z1495a

>  <ref_pdb>  (510) 
Z1495a

>  <HIPPO Compound ID>  (510) 
139053

>  <name>  (510) 
P69697

>  <inspiration_score>  (510) 
None

$$$$
P69699
     RDKit          3D

 20 21  0  0  0  0  0  0  0  0999 V2000
   -4.9681    6.7556  -19.8710 C   0  0  0  0  0  0  0  0  0  0  0  0
   -4.8155    5.8631  -18.8857 C   0  0  0  0  0  0  0  0  0  0  0  0
   -5.7223    4.6835  -18.6702 C   0  0  0  0  0  0  0  0  0  0  0  0
   -7.1879    4.9899  -18.3608 C   0  0  0  0  0  0  0  0  0  0  0  0
   -7.5180    4.5357  -17.0543 O   0  0  0  0  0  0  0  0  0  0  0  0
   -7.2505    5.3791  -15.9440 C   0  0  2  0  0  0  0  0  0  0  0  0
   -6.0776    6.3452  -16.0285 C   0  0  0  0  0  0  0  0  0  0  0  0
   -6.9460    4.4720  -14.7390 C   0  0  0  0  0  0  0  0  0  0  0  0
   -6.2867    3.5079  -14.8194 O   0  0  0  0  0  0  0  0  0  0  0  0
   -7.6525    5.1147  -13.5019 N   0  0  0  0  0  0  0  0  0  0  0  0
   -7.7594    4.6759  -12.2239 C   0  0  0  0  0  0  0  0  0  0  0  0
   -7.4168    3.2957  -11.9580 C   0  0  0  0  0  0  0  0  0  0  0  0
   -7.6170    2.7863  -10.7363 C   0  0  0  0  0  0  0  0  0  0  0  0
   -8.0995    3.5928   -9.7276 N   0  0  0  0  0  0  0  0  0  0  0  0
   -8.4124    3.3064   -8.4195 C   0  0  0  0  0  0  0  0  0  0  0  0
   -8.4665    1.9373   -7.8560 C   0  0  0  0  0  0  0  0  0  0  0  0
   -8.6464    4.5365   -7.8450 C   0  0  0  0  0  0  0  0  0  0  0  0
   -8.5948    5.5492   -8.7712 N   0  0  0  0  0  0  0  0  0  0  0  0
   -8.3253    4.9506   -9.9112 C   0  0  0  0  0  0  0  0  0  0  0  0
   -8.2076    5.4681  -11.2340 C   0  0  0  0  0  0  0  0  0  0  0  0
  1  2  2  0
  2  3  1  0
  3  4  1  0
  4  5  1  0
  5  6  1  0
  6  7  1  6
  6  8  1  0
  8  9  2  0
  8 10  1  0
 10 11  1  0
 11 12  1  0
 12 13  2  0
 13 14  1  0
 14 15  1  0
 15 16  1  0
 15 17  2  0
 17 18  1  0
 18 19  2  0
 19 20  1  0
 20 11  2  0
 19 14  1  0
M  END
>  <energy_score>  (511) 
-1.47706

>  <alias>  (511) 
None

>  <HIPPO Pose ID>  (511) 
69699

>  <smiles>  (511) 
C=CCCO[C@H](C)C(=O)Nc1ccn2c(C)cnc2c1

>  <inchikey>  (511) 
ICEZAPLBDYXIJR-GFCCVEGCSA-N

>  <distance_score>  (511) 
1.458242

>  <ref_mols>  (511) 
Z1046b,Z1495a

>  <ref_pdb>  (511) 
Z1495a

>  <HIPPO Compound ID>  (511) 
139054

>  <name>  (511) 
P69699

>  <inspiration_score>  (511) 
None

$$$$
P69701
     RDKit          3D

 20 21  0  0  0  0  0  0  0  0999 V2000
   -4.1453    6.4900  -19.1829 C   0  0  0  0  0  0  0  0  0  0  0  0
   -4.7912    5.4405  -18.6588 C   0  0  0  0  0  0  0  0  0  0  0  0
   -6.1207    4.9630  -19.1679 C   0  0  0  0  0  0  0  0  0  0  0  0
   -7.2975    5.1065  -18.2204 C   0  0  0  0  0  0  0  0  0  0  0  0
   -7.0222    4.4358  -17.0000 O   0  0  0  0  0  0  0  0  0  0  0  0
   -7.0937    5.2595  -15.8473 C   0  0  2  0  0  0  0  0  0  0  0  0
   -5.9064    6.2141  -15.7660 C   0  0  0  0  0  0  0  0  0  0  0  0
   -7.0939    4.3963  -14.5718 C   0  0  0  0  0  0  0  0  0  0  0  0
   -6.7668    3.2743  -14.5455 O   0  0  0  0  0  0  0  0  0  0  0  0
   -7.5957    5.3318  -13.4236 N   0  0  0  0  0  0  0  0  0  0  0  0
   -7.8654    5.0610  -12.1241 C   0  0  0  0  0  0  0  0  0  0  0  0
   -8.1300    6.1878  -11.2358 C   0  0  0  0  0  0  0  0  0  0  0  0
   -8.3524    5.9467   -9.9309 C   0  0  0  0  0  0  0  0  0  0  0  0
   -8.3705    4.6275   -9.4795 N   0  0  0  0  0  0  0  0  0  0  0  0
   -8.5975    4.1248   -8.2241 C   0  0  0  0  0  0  0  0  0  0  0  0
   -8.5561    2.7646   -8.3906 C   0  0  0  0  0  0  0  0  0  0  0  0
   -8.7668    1.8719   -7.4255 O   0  0  0  0  0  0  0  0  0  0  0  0
   -8.2761    2.4074   -9.6601 N   0  0  0  0  0  0  0  0  0  0  0  0
   -8.1625    3.5371  -10.3109 C   0  0  0  0  0  0  0  0  0  0  0  0
   -7.8772    3.7934  -11.6712 C   0  0  0  0  0  0  0  0  0  0  0  0
  1  2  2  0
  2  3  1  0
  3  4  1  0
  4  5  1  0
  5  6  1  0
  6  7  1  1
  6  8  1  0
  8  9  2  0
  8 10  1  0
 10 11  1  0
 11 12  1  0
 12 13  2  0
 13 14  1  0
 14 15  1  0
 15 16  2  0
 16 17  1  0
 16 18  1  0
 18 19  2  0
 19 20  1  0
 20 11  2  0
 19 14  1  0
M  END
>  <energy_score>  (512) 
-25.579477

>  <alias>  (512) 
None

>  <HIPPO Pose ID>  (512) 
69701

>  <smiles>  (512) 
C=CCCO[C@H](C)C(=O)Nc1ccn2cc(O)nc2c1

>  <inchikey>  (512) 
XSNPQIYITXQZTA-SNVBAGLBSA-N

>  <distance_score>  (512) 
0.926594

>  <ref_mols>  (512) 
Z1046b,Z1495a

>  <ref_pdb>  (512) 
Z1495a

>  <HIPPO Compound ID>  (512) 
139055

>  <name>  (512) 
P69701

>  <inspiration_score>  (512) 
None

$$$$
P69703
     RDKit          3D

 20 21  0  0  0  0  0  0  0  0999 V2000
   -4.1538    6.5087  -19.1782 C   0  0  0  0  0  0  0  0  0  0  0  0
   -4.7886    5.4511  -18.6567 C   0  0  0  0  0  0  0  0  0  0  0  0
   -6.1123    4.9602  -19.1679 C   0  0  0  0  0  0  0  0  0  0  0  0
   -7.2906    5.0908  -18.2210 C   0  0  0  0  0  0  0  0  0  0  0  0
   -7.0166    4.4068  -17.0067 O   0  0  0  0  0  0  0  0  0  0  0  0
   -7.1064    5.2197  -15.8492 C   0  0  2  0  0  0  0  0  0  0  0  0
   -5.8927    6.1360  -15.7256 C   0  0  0  0  0  0  0  0  0  0  0  0
   -7.1836    4.3603  -14.5732 C   0  0  0  0  0  0  0  0  0  0  0  0
   -6.8740    3.2346  -14.5217 O   0  0  0  0  0  0  0  0  0  0  0  0
   -7.7640    5.3019  -13.4685 N   0  0  0  0  0  0  0  0  0  0  0  0
   -7.9738    5.0827  -12.1491 C   0  0  0  0  0  0  0  0  0  0  0  0
   -8.1242    6.2489  -11.2856 C   0  0  0  0  0  0  0  0  0  0  0  0
   -8.2896    6.0582   -9.9650 C   0  0  0  0  0  0  0  0  0  0  0  0
   -8.3620    4.7560   -9.4746 N   0  0  0  0  0  0  0  0  0  0  0  0
   -8.5544    4.3112   -8.1924 C   0  0  0  0  0  0  0  0  0  0  0  0
   -8.6429    2.9372   -8.2901 C   0  0  0  0  0  0  0  0  0  0  0  0
   -8.9095    1.9283   -7.2469 C   0  0  0  0  0  0  0  0  0  0  0  0
   -8.4483    2.5362   -9.5831 N   0  0  0  0  0  0  0  0  0  0  0  0
   -8.2720    3.6315  -10.2774 C   0  0  0  0  0  0  0  0  0  0  0  0
   -8.0379    3.8303  -11.6582 C   0  0  0  0  0  0  0  0  0  0  0  0
  1  2  2  0
  2  3  1  0
  3  4  1  0
  4  5  1  0
  5  6  1  0
  6  7  1  1
  6  8  1  0
  8  9  2  0
  8 10  1  0
 10 11  1  0
 11 12  1  0
 12 13  2  0
 13 14  1  0
 14 15  1  0
 15 16  2  0
 16 17  1  0
 16 18  1  0
 18 19  2  0
 19 20  1  0
 20 11  2  0
 19 14  1  0
M  END
>  <energy_score>  (513) 
-22.321233

>  <alias>  (513) 
None

>  <HIPPO Pose ID>  (513) 
69703

>  <smiles>  (513) 
C=CCCO[C@H](C)C(=O)Nc1ccn2cc(C)nc2c1

>  <inchikey>  (513) 
BQQCZPKVELQQFO-GFCCVEGCSA-N

>  <distance_score>  (513) 
0.912588

>  <ref_mols>  (513) 
Z1046b,Z1495a

>  <ref_pdb>  (513) 
Z1495a

>  <HIPPO Compound ID>  (513) 
139056

>  <name>  (513) 
P69703

>  <inspiration_score>  (513) 
None

$$$$
P69706
     RDKit          3D

 20 21  0  0  0  0  0  0  0  0999 V2000
   -4.4779    6.2605  -19.2795 C   0  0  0  0  0  0  0  0  0  0  0  0
   -5.1992    5.2074  -18.8708 C   0  0  0  0  0  0  0  0  0  0  0  0
   -6.7046    5.1712  -18.9239 C   0  0  0  0  0  0  0  0  0  0  0  0
   -7.4596    4.6034  -17.7203 C   0  0  0  0  0  0  0  0  0  0  0  0
   -7.2286    5.3306  -16.5090 O   0  0  0  0  0  0  0  0  0  0  0  0
   -6.0258    4.9231  -15.8630 C   0  0  1  0  0  0  0  0  0  0  0  0
   -5.1617    6.1575  -15.6521 C   0  0  0  0  0  0  0  0  0  0  0  0
   -6.2394    4.2277  -14.5054 C   0  0  0  0  0  0  0  0  0  0  0  0
   -5.6675    3.2510  -14.2081 O   0  0  0  0  0  0  0  0  0  0  0  0
   -7.2145    5.1180  -13.6778 N   0  0  0  0  0  0  0  0  0  0  0  0
   -7.7235    4.9443  -12.4293 C   0  0  0  0  0  0  0  0  0  0  0  0
   -8.1493    6.1439  -11.7133 C   0  0  0  0  0  0  0  0  0  0  0  0
   -8.3709    6.0657  -10.3881 C   0  0  0  0  0  0  0  0  0  0  0  0
   -8.2893    4.8234   -9.7559 N   0  0  0  0  0  0  0  0  0  0  0  0
   -8.3955    4.4773   -8.4302 C   0  0  0  0  0  0  0  0  0  0  0  0
   -8.5613    5.6170   -6.9200 Br  0  0  0  0  0  0  0  0  0  0  0  0
   -8.3150    3.1062   -8.3915 C   0  0  0  0  0  0  0  0  0  0  0  0
   -8.1045    2.6014   -9.6451 N   0  0  0  0  0  0  0  0  0  0  0  0
   -8.0429    3.6414  -10.4435 C   0  0  0  0  0  0  0  0  0  0  0  0
   -7.7095    3.7422  -11.8201 C   0  0  0  0  0  0  0  0  0  0  0  0
  1  2  2  0
  2  3  1  0
  3  4  1  0
  4  5  1  0
  5  6  1  0
  6  7  1  1
  6  8  1  0
  8  9  2  0
  8 10  1  0
 10 11  1  0
 11 12  1  0
 12 13  2  0
 13 14  1  0
 14 15  1  0
 15 16  1  0
 15 17  2  0
 17 18  1  0
 18 19  2  0
 19 20  1  0
 20 11  2  0
 19 14  1  0
M  END
>  <energy_score>  (514) 
-30.865143

>  <alias>  (514) 
None

>  <HIPPO Pose ID>  (514) 
69706

>  <smiles>  (514) 
C=CCCO[C@@H](C)C(=O)Nc1ccn2c(Br)cnc2c1

>  <inchikey>  (514) 
CPYJNIQENPLEID-JTQLQIEISA-N

>  <distance_score>  (514) 
0.939449

>  <ref_mols>  (514) 
Z1046b,Z1495a

>  <ref_pdb>  (514) 
Z1495a

>  <HIPPO Compound ID>  (514) 
139057

>  <name>  (514) 
P69706

>  <inspiration_score>  (514) 
None

$$$$
P69708
     RDKit          3D

 20 22  0  0  0  0  0  0  0  0999 V2000
   -8.7718    4.1956   -8.8199 C   0  0  0  0  0  0  0  0  0  0  0  0
   -7.7590    4.4470   -9.9195 C   0  0  0  0  0  0  0  0  0  0  0  0
   -6.7048    5.4197   -9.3919 C   0  0  0  0  0  0  0  0  0  0  0  0
   -7.1775    3.1113  -10.4135 C   0  0  0  0  0  0  0  0  0  0  0  0
   -7.6180    3.0469  -11.8622 C   0  0  0  0  0  0  0  0  0  0  0  0
   -7.6443    4.5183  -12.1901 C   0  0  1  0  0  0  0  0  0  0  0  0
   -7.9672    4.8569  -13.6626 C   0  0  0  0  0  0  0  0  0  0  0  0
   -8.9279    5.4084  -14.0500 O   0  0  0  0  0  0  0  0  0  0  0  0
   -6.6772    4.3839  -14.4399 N   0  0  0  0  0  0  0  0  0  0  0  0
   -6.3070    4.5743  -15.7420 C   0  0  0  0  0  0  0  0  0  0  0  0
   -4.8432    4.5445  -15.8886 C   0  0  0  0  0  0  0  0  0  0  0  0
   -4.2697    4.9424  -17.0296 C   0  0  0  0  0  0  0  0  0  0  0  0
   -5.0790    5.4279  -18.0341 N   0  0  0  0  0  0  0  0  0  0  0  0
   -4.6940    6.0476  -19.1898 C   0  0  0  0  0  0  0  0  0  0  0  0
   -5.8548    6.5553  -19.7088 C   0  0  0  0  0  0  0  0  0  0  0  0
   -6.9250    6.2541  -18.9047 N   0  0  0  0  0  0  0  0  0  0  0  0
   -6.4651    5.4624  -17.9582 C   0  0  0  0  0  0  0  0  0  0  0  0
   -7.0869    4.8434  -16.8171 C   0  0  0  0  0  0  0  0  0  0  0  0
   -8.8834    4.3574  -16.9884 Br  0  0  0  0  0  0  0  0  0  0  0  0
   -8.3432    5.0827  -11.0863 O   0  0  0  0  0  0  0  0  0  0  0  0
  1  2  1  0
  2  3  1  0
  2  4  1  0
  4  5  1  0
  5  6  1  0
  6  7  1  6
  7  8  2  0
  7  9  1  0
  9 10  1  0
 10 11  1  0
 11 12  2  0
 12 13  1  0
 13 14  1  0
 14 15  2  0
 15 16  1  0
 16 17  2  0
 17 18  1  0
 18 19  1  0
  6 20  1  0
 20  2  1  0
 18 10  2  0
 17 13  1  0
M  END
>  <energy_score>  (515) 
-2.149075

>  <alias>  (515) 
None

>  <HIPPO Pose ID>  (515) 
69708

>  <smiles>  (515) 
CC1(C)CC[C@@H](C(=O)Nc2ccn3ccnc3c2Br)O1

>  <inchikey>  (515) 
CINYVWFNQBKCAH-JTQLQIEISA-N

>  <distance_score>  (515) 
1.437737

>  <ref_mols>  (515) 
Z1046b,Z1495a

>  <ref_pdb>  (515) 
Z1495a

>  <HIPPO Compound ID>  (515) 
139110

>  <name>  (515) 
P69708

>  <inspiration_score>  (515) 
None

$$$$
P69709
     RDKit          3D

 20 22  0  0  0  0  0  0  0  0999 V2000
   -6.1245    4.5054   -9.1338 C   0  0  0  0  0  0  0  0  0  0  0  0
   -7.4646    4.7914   -9.7727 C   0  0  0  0  0  0  0  0  0  0  0  0
   -8.1722    5.9012   -8.9974 C   0  0  0  0  0  0  0  0  0  0  0  0
   -8.2889    3.4975   -9.8913 C   0  0  0  0  0  0  0  0  0  0  0  0
   -8.4279    3.3158  -11.3858 C   0  0  0  0  0  0  0  0  0  0  0  0
   -8.4042    4.7562  -11.8277 C   0  0  2  0  0  0  0  0  0  0  0  0
   -8.4804    4.9245  -13.3320 C   0  0  0  0  0  0  0  0  0  0  0  0
   -9.4927    5.1027  -13.8921 O   0  0  0  0  0  0  0  0  0  0  0  0
   -7.0362    4.7798  -13.8847 N   0  0  0  0  0  0  0  0  0  0  0  0
   -6.5831    4.7327  -15.1614 C   0  0  0  0  0  0  0  0  0  0  0  0
   -7.5803    4.5040  -16.1913 C   0  0  0  0  0  0  0  0  0  0  0  0
   -7.2657    4.6438  -17.4860 C   0  0  0  0  0  0  0  0  0  0  0  0
   -8.5748    4.3261  -18.7560 Br  0  0  0  0  0  0  0  0  0  0  0  0
   -5.9538    5.0013  -17.8055 N   0  0  0  0  0  0  0  0  0  0  0  0
   -5.3787    5.3736  -18.9926 C   0  0  0  0  0  0  0  0  0  0  0  0
   -4.0518    5.5942  -18.7226 C   0  0  0  0  0  0  0  0  0  0  0  0
   -3.7753    5.4104  -17.3980 N   0  0  0  0  0  0  0  0  0  0  0  0
   -4.9343    5.0992  -16.8501 C   0  0  0  0  0  0  0  0  0  0  0  0
   -5.2921    4.9342  -15.4799 C   0  0  0  0  0  0  0  0  0  0  0  0
   -7.2771    5.2811  -11.1286 O   0  0  0  0  0  0  0  0  0  0  0  0
  1  2  1  0
  2  3  1  0
  2  4  1  0
  4  5  1  0
  5  6  1  0
  6  7  1  6
  7  8  2  0
  7  9  1  0
  9 10  1  0
 10 11  1  0
 11 12  2  0
 12 13  1  0
 12 14  1  0
 14 15  1  0
 15 16  2  0
 16 17  1  0
 17 18  2  0
 18 19  1  0
  6 20  1  0
 20  2  1  0
 19 10  2  0
 18 14  1  0
M  END
>  <energy_score>  (516) 
-12.505977

>  <alias>  (516) 
None

>  <HIPPO Pose ID>  (516) 
69709

>  <smiles>  (516) 
CC1(C)CC[C@H](C(=O)Nc2cc(Br)n3ccnc3c2)O1

>  <inchikey>  (516) 
UQFKHSSMVVBDOW-SNVBAGLBSA-N

>  <distance_score>  (516) 
1.373392

>  <ref_mols>  (516) 
Z1046b,Z1495a

>  <ref_pdb>  (516) 
Z1495a

>  <HIPPO Compound ID>  (516) 
139112

>  <name>  (516) 
P69709

>  <inspiration_score>  (516) 
None

$$$$
P69710
     RDKit          3D

 20 23  0  0  0  0  0  0  0  0999 V2000
   -9.1415    5.8006  -14.4699 O   0  0  0  0  0  0  0  0  0  0  0  0
   -8.3502    5.0933  -13.9762 C   0  0  0  0  0  0  0  0  0  0  0  0
   -7.0703    4.4400  -14.5731 N   0  0  0  0  0  0  0  0  0  0  0  0
   -6.4869    4.5914  -15.7981 C   0  0  0  0  0  0  0  0  0  0  0  0
   -5.0239    4.5603  -15.7921 C   0  0  0  0  0  0  0  0  0  0  0  0
   -4.3480    4.9551  -16.8821 C   0  0  0  0  0  0  0  0  0  0  0  0
   -5.0585    5.4362  -17.9688 N   0  0  0  0  0  0  0  0  0  0  0  0
   -4.5796    6.0400  -19.1024 C   0  0  0  0  0  0  0  0  0  0  0  0
   -5.6920    6.5426  -19.7275 C   0  0  0  0  0  0  0  0  0  0  0  0
   -6.8206    6.2670  -19.0040 N   0  0  0  0  0  0  0  0  0  0  0  0
   -6.4436    5.4757  -18.0216 C   0  0  0  0  0  0  0  0  0  0  0  0
   -7.1600    4.8611  -16.9449 C   0  0  0  0  0  0  0  0  0  0  0  0
   -8.9357    4.3591  -17.2769 Br  0  0  0  0  0  0  0  0  0  0  0  0
   -8.3856    4.7377  -12.4957 C   0  0  2  0  0  0  0  0  0  0  0  0
   -8.2866    6.0224  -11.6686 C   0  0  0  0  0  0  0  0  0  0  0  0
   -8.0224    5.5123  -10.2610 C   0  0  0  0  0  0  0  0  0  0  0  0
   -7.4508    4.1574  -10.5231 C   0  0  0  0  0  0  0  0  0  0  0  0
   -6.4860    3.4920   -9.6064 C   0  0  0  0  0  0  0  0  0  0  0  0
   -7.8951    2.9767   -9.7097 C   0  0  0  0  0  0  0  0  0  0  0  0
   -7.3490    3.9329  -11.9444 O   0  0  0  0  0  0  0  0  0  0  0  0
  1  2  2  0
  2  3  1  0
  3  4  1  0
  4  5  1  0
  5  6  2  0
  6  7  1  0
  7  8  1  0
  8  9  2  0
  9 10  1  0
 10 11  2  0
 11 12  1  0
 12 13  1  0
 14  2  1  6
 14 15  1  0
 15 16  1  0
 16 17  1  0
 17 18  1  0
 18 19  1  0
 17 20  1  0
 12  4  2  0
 20 14  1  0
 11  7  1  0
 19 17  1  0
M  END
>  <energy_score>  (517) 
-23.206313

>  <alias>  (517) 
None

>  <HIPPO Pose ID>  (517) 
69710

>  <smiles>  (517) 
O=C(Nc1ccn2ccnc2c1Br)[C@@H]1CCC2(CC2)O1

>  <inchikey>  (517) 
PIHTTZMKCCVMQZ-JTQLQIEISA-N

>  <distance_score>  (517) 
1.285648

>  <ref_mols>  (517) 
Z1046b,Z1495a

>  <ref_pdb>  (517) 
Z1495a

>  <HIPPO Compound ID>  (517) 
139113

>  <name>  (517) 
P69710

>  <inspiration_score>  (517) 
None

$$$$
P69716
     RDKit          3D

 20 22  0  0  0  0  0  0  0  0999 V2000
   -8.5462    4.6989   -8.7875 C   0  0  0  0  0  0  0  0  0  0  0  0
   -7.7865    4.7091  -10.1048 C   0  0  0  0  0  0  0  0  0  0  0  0
   -6.8717    5.9307  -10.1565 C   0  0  0  0  0  0  0  0  0  0  0  0
   -7.0593    3.3889  -10.2807 C   0  0  0  0  0  0  0  0  0  0  0  0
   -6.9826    3.2695  -11.7729 C   0  0  0  0  0  0  0  0  0  0  0  0
   -8.3198    3.8325  -12.2285 C   0  0  2  0  0  0  0  0  0  0  0  0
   -8.4142    4.4505  -13.6742 C   0  0  0  0  0  0  0  0  0  0  0  0
   -9.2790    5.1845  -13.9805 O   0  0  0  0  0  0  0  0  0  0  0  0
   -7.1477    3.9844  -14.4726 N   0  0  0  0  0  0  0  0  0  0  0  0
   -6.6766    4.3753  -15.6842 C   0  0  0  0  0  0  0  0  0  0  0  0
   -7.5594    4.9296  -16.6995 C   0  0  0  0  0  0  0  0  0  0  0  0
   -7.0259    5.4072  -17.8407 C   0  0  0  0  0  0  0  0  0  0  0  0
   -5.6419    5.3783  -18.0069 N   0  0  0  0  0  0  0  0  0  0  0  0
   -4.8234    5.9537  -18.9423 C   0  0  0  0  0  0  0  0  0  0  0  0
   -5.2613    7.1609  -20.3243 Br  0  0  0  0  0  0  0  0  0  0  0  0
   -3.5425    5.5824  -18.6182 C   0  0  0  0  0  0  0  0  0  0  0  0
   -3.5177    4.8406  -17.4746 N   0  0  0  0  0  0  0  0  0  0  0  0
   -4.7782    4.7794  -17.0927 C   0  0  0  0  0  0  0  0  0  0  0  0
   -5.3512    4.2621  -15.9054 C   0  0  0  0  0  0  0  0  0  0  0  0
   -8.6672    4.8295  -11.2345 O   0  0  0  0  0  0  0  0  0  0  0  0
  1  2  1  0
  2  3  1  0
  2  4  1  0
  4  5  1  0
  5  6  1  0
  6  7  1  6
  7  8  2  0
  7  9  1  0
  9 10  1  0
 10 11  1  0
 11 12  2  0
 12 13  1  0
 13 14  1  0
 14 15  1  0
 14 16  2  0
 16 17  1  0
 17 18  2  0
 18 19  1  0
  6 20  1  0
 20  2  1  0
 19 10  2  0
 18 13  1  0
M  END
>  <energy_score>  (518) 
-9.757884

>  <alias>  (518) 
None

>  <HIPPO Pose ID>  (518) 
69716

>  <smiles>  (518) 
CC1(C)CC[C@H](C(=O)Nc2ccn3c(Br)cnc3c2)O1

>  <inchikey>  (518) 
HHSJTBNQJHBQGZ-SNVBAGLBSA-N

>  <distance_score>  (518) 
1.42893

>  <ref_mols>  (518) 
Z1046b,Z1495a

>  <ref_pdb>  (518) 
Z1495a

>  <HIPPO Compound ID>  (518) 
139119

>  <name>  (518) 
P69716

>  <inspiration_score>  (518) 
None

$$$$
P69725
     RDKit          3D

 21 24  0  0  0  0  0  0  0  0999 V2000
   -8.6131    4.7809   -8.7039 C   0  0  0  0  0  0  0  0  0  0  0  0
   -7.6262    4.8053   -9.8516 C   0  0  0  0  0  0  0  0  0  0  0  0
   -6.4162    5.6279   -9.4568 C   0  0  0  0  0  0  0  0  0  0  0  0
   -8.1309    5.3529  -11.0799 O   0  0  0  0  0  0  0  0  0  0  0  0
   -7.9492    4.2298  -12.0064 C   0  0  2  0  0  0  0  0  0  0  0  0
   -8.2808    4.5390  -13.5370 C   0  0  0  0  0  0  0  0  0  0  0  0
   -9.3614    4.7623  -13.9383 O   0  0  0  0  0  0  0  0  0  0  0  0
   -6.9155    4.4864  -14.2884 N   0  0  0  0  0  0  0  0  0  0  0  0
   -6.6076    4.7717  -15.5800 C   0  0  0  0  0  0  0  0  0  0  0  0
   -7.6050    4.8193  -16.6426 C   0  0  0  0  0  0  0  0  0  0  0  0
   -7.2067    5.1162  -17.8977 C   0  0  0  0  0  0  0  0  0  0  0  0
   -5.8605    5.3932  -18.1338 N   0  0  0  0  0  0  0  0  0  0  0  0
   -5.2055    5.8043  -19.2628 C   0  0  0  0  0  0  0  0  0  0  0  0
   -3.8960    5.9420  -18.8894 C   0  0  0  0  0  0  0  0  0  0  0  0
   -2.9128    6.3236  -19.7016 O   0  0  0  0  0  0  0  0  0  0  0  0
   -3.6950    5.6784  -17.5843 N   0  0  0  0  0  0  0  0  0  0  0  0
   -4.8871    5.3398  -17.1458 C   0  0  0  0  0  0  0  0  0  0  0  0
   -5.3039    4.9849  -15.8474 C   0  0  0  0  0  0  0  0  0  0  0  0
   -8.4971    2.9565  -11.2768 C   0  0  0  0  0  0  0  0  0  0  0  0
   -7.3201    3.3629  -10.2994 C   0  0  1  0  0  0  0  0  0  0  0  0
   -6.5567    3.5102  -11.6299 C   0  0  0  0  0  0  0  0  0  0  0  0
  1  2  1  0
  2  3  1  0
  2  4  1  0
  4  5  1  0
  5  6  1  6
  6  7  2  0
  6  8  1  0
  8  9  1  0
  9 10  1  0
 10 11  2  0
 11 12  1  0
 12 13  1  0
 13 14  2  0
 14 15  1  0
 14 16  1  0
 16 17  2  0
 17 18  1  0
  5 19  1  0
 20 19  1  6
 20 21  1  0
 20  2  1  0
 21  5  1  0
 18  9  2  0
 17 12  1  0
M  END
>  <energy_score>  (519) 
-50.929898

>  <alias>  (519) 
None

>  <HIPPO Pose ID>  (519) 
69725

>  <smiles>  (519) 
CC1(C)O[C@]2(C(=O)Nc3ccn4cc(O)nc4c3)C[C@H]1C2

>  <inchikey>  (519) 
RYGQQZKJLGFIIB-DXPFQBAHSA-N

>  <distance_score>  (519) 
1.469139

>  <ref_mols>  (519) 
Z1046b,Z1495a

>  <ref_pdb>  (519) 
Z1495a

>  <HIPPO Compound ID>  (519) 
139128

>  <name>  (519) 
P69725

>  <inspiration_score>  (519) 
None

$$$$
P69729
     RDKit          3D

 21 24  0  0  0  0  0  0  0  0999 V2000
   -8.5757    4.5629   -8.5328 C   0  0  0  0  0  0  0  0  0  0  0  0
   -7.9434    4.4086   -9.8918 C   0  0  2  0  0  0  0  0  0  0  0  0
   -7.7180    2.9510  -10.2824 C   0  0  0  0  0  0  0  0  0  0  0  0
   -7.6048    3.0374  -11.7962 C   0  0  0  0  0  0  0  0  0  0  0  0
   -7.7871    4.5342  -12.0548 C   0  0  2  0  0  0  0  0  0  0  0  0
   -8.0652    4.8677  -13.5528 C   0  0  0  0  0  0  0  0  0  0  0  0
   -9.0267    5.4186  -13.9416 O   0  0  0  0  0  0  0  0  0  0  0  0
   -6.7691    4.4072  -14.3258 N   0  0  0  0  0  0  0  0  0  0  0  0
   -6.3916    4.6101  -15.6246 C   0  0  0  0  0  0  0  0  0  0  0  0
   -4.9285    4.5839  -15.7734 C   0  0  0  0  0  0  0  0  0  0  0  0
   -4.3578    4.9740  -16.9200 C   0  0  0  0  0  0  0  0  0  0  0  0
   -5.1695    5.4435  -17.9320 N   0  0  0  0  0  0  0  0  0  0  0  0
   -4.7933    6.0495  -19.0988 C   0  0  0  0  0  0  0  0  0  0  0  0
   -5.9609    6.5287  -19.6297 C   0  0  0  0  0  0  0  0  0  0  0  0
   -7.0277    6.2255  -18.8236 N   0  0  0  0  0  0  0  0  0  0  0  0
   -6.5551    5.4687  -17.8558 C   0  0  0  0  0  0  0  0  0  0  0  0
   -7.1711    4.8694  -16.7028 C   0  0  0  0  0  0  0  0  0  0  0  0
   -8.9597    4.3558  -16.8798 Br  0  0  0  0  0  0  0  0  0  0  0  0
   -6.5549    5.3257  -11.5673 C   0  0  0  0  0  0  0  0  0  0  0  0
   -6.6821    5.2487  -10.0533 C   0  0  0  0  0  0  0  0  0  0  0  0
   -8.7171    4.8885  -11.0137 O   0  0  0  0  0  0  0  0  0  0  0  0
  2  1  1  1
  2  3  1  0
  3  4  1  0
  4  5  1  0
  5  6  1  6
  6  7  2  0
  6  8  1  0
  8  9  1  0
  9 10  1  0
 10 11  2  0
 11 12  1  0
 12 13  1  0
 13 14  2  0
 14 15  1  0
 15 16  2  0
 16 17  1  0
 17 18  1  0
  5 19  1  0
 19 20  1  0
  5 21  1  0
 20  2  1  0
 21  2  1  0
 17  9  2  0
 16 12  1  0
M  END
>  <energy_score>  (520) 
-15.905304

>  <alias>  (520) 
None

>  <HIPPO Pose ID>  (520) 
69729

>  <smiles>  (520) 
C[C@]12CC[C@](C(=O)Nc3ccn4ccnc4c3Br)(CC1)O2

>  <inchikey>  (520) 
ZVXACGIVYLANQJ-GASCZTMLSA-N

>  <distance_score>  (520) 
1.375575

>  <ref_mols>  (520) 
Z1046b,Z1495a

>  <ref_pdb>  (520) 
Z1495a

>  <HIPPO Compound ID>  (520) 
139133

>  <name>  (520) 
P69729

>  <inspiration_score>  (520) 
None

$$$$
P69731
     RDKit          3D

 21 24  0  0  0  0  0  0  0  0999 V2000
   -8.6216    4.2937   -8.2750 C   0  0  0  0  0  0  0  0  0  0  0  0
   -7.9288    4.4226   -9.6068 C   0  0  2  0  0  0  0  0  0  0  0  0
   -7.3323    3.1062  -10.0958 C   0  0  0  0  0  0  0  0  0  0  0  0
   -7.2153    3.3452  -11.5912 C   0  0  0  0  0  0  0  0  0  0  0  0
   -7.7829    4.7633  -11.7416 C   0  0  2  0  0  0  0  0  0  0  0  0
   -8.1711    5.0348  -13.2165 C   0  0  0  0  0  0  0  0  0  0  0  0
   -9.2740    5.1557  -13.5977 O   0  0  0  0  0  0  0  0  0  0  0  0
   -6.8138    5.0418  -14.0097 N   0  0  0  0  0  0  0  0  0  0  0  0
   -6.5746    5.0992  -15.3423 C   0  0  0  0  0  0  0  0  0  0  0  0
   -7.6474    4.7636  -16.2549 C   0  0  0  0  0  0  0  0  0  0  0  0
   -7.4515    4.8535  -17.5812 C   0  0  0  0  0  0  0  0  0  0  0  0
   -8.8231    4.3422  -18.7182 Br  0  0  0  0  0  0  0  0  0  0  0  0
   -6.2168    5.3346  -18.0387 N   0  0  0  0  0  0  0  0  0  0  0  0
   -5.7748    5.6915  -19.2829 C   0  0  0  0  0  0  0  0  0  0  0  0
   -4.4975    6.1634  -19.1427 C   0  0  0  0  0  0  0  0  0  0  0  0
   -4.1066    6.1053  -17.8379 N   0  0  0  0  0  0  0  0  0  0  0  0
   -5.1486    5.6221  -17.1897 C   0  0  0  0  0  0  0  0  0  0  0  0
   -5.3528    5.4332  -15.7983 C   0  0  0  0  0  0  0  0  0  0  0  0
   -6.8128    5.8102  -11.1733 C   0  0  0  0  0  0  0  0  0  0  0  0
   -6.9205    5.5687   -9.6709 C   0  0  0  0  0  0  0  0  0  0  0  0
   -8.7846    4.7746  -10.7115 O   0  0  0  0  0  0  0  0  0  0  0  0
  2  1  1  1
  2  3  1  0
  3  4  1  0
  4  5  1  0
  5  6  1  6
  6  7  2  0
  6  8  1  0
  8  9  1  0
  9 10  1  0
 10 11  2  0
 11 12  1  0
 11 13  1  0
 13 14  1  0
 14 15  2  0
 15 16  1  0
 16 17  2  0
 17 18  1  0
  5 19  1  0
 19 20  1  0
  5 21  1  0
 20  2  1  0
 21  2  1  0
 18  9  2  0
 17 13  1  0
M  END
>  <energy_score>  (521) 
-28.188302

>  <alias>  (521) 
None

>  <HIPPO Pose ID>  (521) 
69731

>  <smiles>  (521) 
C[C@]12CC[C@](C(=O)Nc3cc(Br)n4ccnc4c3)(CC1)O2

>  <inchikey>  (521) 
LRKGWFUMTAUXKK-GASCZTMLSA-N

>  <distance_score>  (521) 
1.283293

>  <ref_mols>  (521) 
Z1046b,Z1495a

>  <ref_pdb>  (521) 
Z1495a

>  <HIPPO Compound ID>  (521) 
139138

>  <name>  (521) 
P69731

>  <inspiration_score>  (521) 
None

$$$$
P69733
     RDKit          3D

 21 23  0  0  0  0  0  0  0  0999 V2000
   -8.9121    3.1394   -9.3224 C   0  0  0  0  0  0  0  0  0  0  0  0
   -8.0369    4.2583   -9.8651 C   0  0  0  0  0  0  0  0  0  0  0  0
   -7.9725    5.4050   -8.8591 C   0  0  0  0  0  0  0  0  0  0  0  0
   -6.6648    3.6843  -10.1879 C   0  0  0  0  0  0  0  0  0  0  0  0
   -6.6618    3.6372  -11.6936 C   0  0  0  0  0  0  0  0  0  0  0  0
   -7.5252    4.8333  -12.0798 C   0  0  1  0  0  0  0  0  0  0  0  0
   -6.8230    6.2004  -11.8880 C   0  0  0  0  0  0  0  0  0  0  0  0
   -7.9204    4.8595  -13.6069 C   0  0  0  0  0  0  0  0  0  0  0  0
   -8.9922    5.1197  -14.0110 O   0  0  0  0  0  0  0  0  0  0  0  0
   -6.5753    4.5771  -14.3850 N   0  0  0  0  0  0  0  0  0  0  0  0
   -6.2899    4.6514  -15.7226 C   0  0  0  0  0  0  0  0  0  0  0  0
   -4.8268    4.6297  -15.9218 C   0  0  0  0  0  0  0  0  0  0  0  0
   -4.2899    5.0013  -17.0881 C   0  0  0  0  0  0  0  0  0  0  0  0
   -5.1359    5.4554  -18.0736 N   0  0  0  0  0  0  0  0  0  0  0  0
   -4.7971    6.0888  -19.2355 C   0  0  0  0  0  0  0  0  0  0  0  0
   -5.9810    6.5856  -19.7083 C   0  0  0  0  0  0  0  0  0  0  0  0
   -7.0213    6.2527  -18.8780 N   0  0  0  0  0  0  0  0  0  0  0  0
   -6.5193    5.4550  -17.9577 C   0  0  0  0  0  0  0  0  0  0  0  0
   -7.1002    4.8290  -16.7945 C   0  0  0  0  0  0  0  0  0  0  0  0
   -8.8930    4.3370  -16.9330 Br  0  0  0  0  0  0  0  0  0  0  0  0
   -8.5713    4.7843  -11.1039 O   0  0  0  0  0  0  0  0  0  0  0  0
  1  2  1  0
  2  3  1  0
  2  4  1  0
  4  5  1  0
  5  6  1  0
  6  7  1  1
  6  8  1  0
  8  9  2  0
  8 10  1  0
 10 11  1  0
 11 12  1  0
 12 13  2  0
 13 14  1  0
 14 15  1  0
 15 16  2  0
 16 17  1  0
 17 18  2  0
 18 19  1  0
 19 20  1  0
  6 21  1  0
 21  2  1  0
 19 11  2  0
 18 14  1  0
M  END
>  <energy_score>  (522) 
-10.789317

>  <alias>  (522) 
None

>  <HIPPO Pose ID>  (522) 
69733

>  <smiles>  (522) 
CC1(C)CC[C@@](C)(C(=O)Nc2ccn3ccnc3c2Br)O1

>  <inchikey>  (522) 
PKCCFVRRHBMGPL-HNNXBMFYSA-N

>  <distance_score>  (522) 
1.37106

>  <ref_mols>  (522) 
Z1046b,Z1495a

>  <ref_pdb>  (522) 
Z1495a

>  <HIPPO Compound ID>  (522) 
139139

>  <name>  (522) 
P69733

>  <inspiration_score>  (522) 
None

$$$$
P69735
     RDKit          3D

 21 23  0  0  0  0  0  0  0  0999 V2000
   -8.8642    3.2257   -9.2529 C   0  0  0  0  0  0  0  0  0  0  0  0
   -8.0666    4.3929   -9.8160 C   0  0  0  0  0  0  0  0  0  0  0  0
   -8.0205    5.5403   -8.8121 C   0  0  0  0  0  0  0  0  0  0  0  0
   -6.6745    3.9005  -10.1730 C   0  0  0  0  0  0  0  0  0  0  0  0
   -6.7249    3.8150  -11.6723 C   0  0  0  0  0  0  0  0  0  0  0  0
   -7.6742    4.9495  -12.0643 C   0  0  1  0  0  0  0  0  0  0  0  0
   -7.0417    6.3560  -11.9611 C   0  0  0  0  0  0  0  0  0  0  0  0
   -8.1397    4.8462  -13.5783 C   0  0  0  0  0  0  0  0  0  0  0  0
   -9.2440    4.9490  -13.9627 O   0  0  0  0  0  0  0  0  0  0  0  0
   -6.7930    4.6895  -14.3780 N   0  0  0  0  0  0  0  0  0  0  0  0
   -6.5527    4.7230  -15.7118 C   0  0  0  0  0  0  0  0  0  0  0  0
   -7.5778    4.8514  -16.7349 C   0  0  0  0  0  0  0  0  0  0  0  0
   -7.1966    5.1448  -17.9972 C   0  0  0  0  0  0  0  0  0  0  0  0
   -5.8384    5.3099  -18.2782 N   0  0  0  0  0  0  0  0  0  0  0  0
   -5.1879    5.7634  -19.3966 C   0  0  0  0  0  0  0  0  0  0  0  0
   -3.8588    5.7522  -19.0643 C   0  0  0  0  0  0  0  0  0  0  0  0
   -2.8737    6.1389  -19.8717 O   0  0  0  0  0  0  0  0  0  0  0  0
   -3.6332    5.3342  -17.8043 N   0  0  0  0  0  0  0  0  0  0  0  0
   -4.8389    5.0935  -17.3405 C   0  0  0  0  0  0  0  0  0  0  0  0
   -5.2438    4.7642  -16.0347 C   0  0  0  0  0  0  0  0  0  0  0  0
   -8.6675    4.8881  -11.0371 O   0  0  0  0  0  0  0  0  0  0  0  0
  1  2  1  0
  2  3  1  0
  2  4  1  0
  4  5  1  0
  5  6  1  0
  6  7  1  6
  6  8  1  0
  8  9  2  0
  8 10  1  0
 10 11  1  0
 11 12  1  0
 12 13  2  0
 13 14  1  0
 14 15  1  0
 15 16  2  0
 16 17  1  0
 16 18  1  0
 18 19  2  0
 19 20  1  0
  6 21  1  0
 21  2  1  0
 20 11  2  0
 19 14  1  0
M  END
>  <energy_score>  (523) 
-36.746585

>  <alias>  (523) 
None

>  <HIPPO Pose ID>  (523) 
69735

>  <smiles>  (523) 
CC1(C)CC[C@@](C)(C(=O)Nc2ccn3cc(O)nc3c2)O1

>  <inchikey>  (523) 
GQZLWTLTVQTMPC-HNNXBMFYSA-N

>  <distance_score>  (523) 
1.298433

>  <ref_mols>  (523) 
Z1046b,Z1495a

>  <ref_pdb>  (523) 
Z1495a

>  <HIPPO Compound ID>  (523) 
139141

>  <name>  (523) 
P69735

>  <inspiration_score>  (523) 
None

$$$$
P69736
     RDKit          3D

 21 23  0  0  0  0  0  0  0  0999 V2000
   -8.8894    3.2109   -9.2788 C   0  0  0  0  0  0  0  0  0  0  0  0
   -8.0621    4.3557   -9.8442 C   0  0  0  0  0  0  0  0  0  0  0  0
   -8.0055    5.5116   -8.8499 C   0  0  0  0  0  0  0  0  0  0  0  0
   -6.6789    3.8242  -10.1826 C   0  0  0  0  0  0  0  0  0  0  0  0
   -6.7162    3.7315  -11.6828 C   0  0  0  0  0  0  0  0  0  0  0  0
   -7.6231    4.8948  -12.0865 C   0  0  1  0  0  0  0  0  0  0  0  0
   -6.9498    6.2822  -11.9629 C   0  0  0  0  0  0  0  0  0  0  0  0
   -8.0569    4.8396  -13.6105 C   0  0  0  0  0  0  0  0  0  0  0  0
   -9.1380    5.0538  -14.0163 O   0  0  0  0  0  0  0  0  0  0  0  0
   -6.7158    4.5500  -14.3849 N   0  0  0  0  0  0  0  0  0  0  0  0
   -6.4465    4.5623  -15.7157 C   0  0  0  0  0  0  0  0  0  0  0  0
   -7.4261    4.9003  -16.7365 C   0  0  0  0  0  0  0  0  0  0  0  0
   -6.9799    5.3176  -17.9406 C   0  0  0  0  0  0  0  0  0  0  0  0
   -5.6037    5.3466  -18.1831 N   0  0  0  0  0  0  0  0  0  0  0  0
   -4.8469    5.9476  -19.1542 C   0  0  0  0  0  0  0  0  0  0  0  0
   -5.3550    7.2025  -20.4646 Br  0  0  0  0  0  0  0  0  0  0  0  0
   -3.5428    5.5966  -18.9079 C   0  0  0  0  0  0  0  0  0  0  0  0
   -3.4356    4.8746  -17.7597 N   0  0  0  0  0  0  0  0  0  0  0  0
   -4.6687    4.8161  -17.2995 C   0  0  0  0  0  0  0  0  0  0  0  0
   -5.1388    4.4334  -16.0261 C   0  0  0  0  0  0  0  0  0  0  0  0
   -8.6366    4.8558  -11.0774 O   0  0  0  0  0  0  0  0  0  0  0  0
  1  2  1  0
  2  3  1  0
  2  4  1  0
  4  5  1  0
  5  6  1  0
  6  7  1  6
  6  8  1  0
  8  9  2  0
  8 10  1  0
 10 11  1  0
 11 12  1  0
 12 13  2  0
 13 14  1  0
 14 15  1  0
 15 16  1  0
 15 17  2  0
 17 18  1  0
 18 19  2  0
 19 20  1  0
  6 21  1  0
 21  2  1  0
 20 11  2  0
 19 14  1  0
M  END
>  <energy_score>  (524) 
-13.690965

>  <alias>  (524) 
None

>  <HIPPO Pose ID>  (524) 
69736

>  <smiles>  (524) 
CC1(C)CC[C@@](C)(C(=O)Nc2ccn3c(Br)cnc3c2)O1

>  <inchikey>  (524) 
WMZWCWGKNHPZNZ-HNNXBMFYSA-N

>  <distance_score>  (524) 
1.348133

>  <ref_mols>  (524) 
Z1046b,Z1495a

>  <ref_pdb>  (524) 
Z1495a

>  <HIPPO Compound ID>  (524) 
139143

>  <name>  (524) 
P69736

>  <inspiration_score>  (524) 
None

$$$$
P69738
     RDKit          3D

 21 23  0  0  0  0  0  0  0  0999 V2000
   -8.7756    3.1897   -9.1883 C   0  0  0  0  0  0  0  0  0  0  0  0
   -7.9945    4.4222   -9.6161 C   0  0  0  0  0  0  0  0  0  0  0  0
   -8.0291    5.4818   -8.5221 C   0  0  0  0  0  0  0  0  0  0  0  0
   -6.5654    4.0319   -9.9614 C   0  0  0  0  0  0  0  0  0  0  0  0
   -6.5391    4.1087  -11.4615 C   0  0  0  0  0  0  0  0  0  0  0  0
   -7.5576    5.1998  -11.7817 C   0  0  1  0  0  0  0  0  0  0  0  0
   -7.0555    6.6396  -11.5730 C   0  0  0  0  0  0  0  0  0  0  0  0
   -7.9913    5.0926  -13.2801 C   0  0  0  0  0  0  0  0  0  0  0  0
   -9.1033    5.0318  -13.6517 O   0  0  0  0  0  0  0  0  0  0  0  0
   -6.6469    5.1933  -14.0968 N   0  0  0  0  0  0  0  0  0  0  0  0
   -6.4245    5.1455  -15.4303 C   0  0  0  0  0  0  0  0  0  0  0  0
   -7.4783    4.7399  -16.3304 C   0  0  0  0  0  0  0  0  0  0  0  0
   -7.3040    4.8669  -17.6584 C   0  0  0  0  0  0  0  0  0  0  0  0
   -8.6762    4.3211  -18.7761 Br  0  0  0  0  0  0  0  0  0  0  0  0
   -6.0943    5.4108  -18.1261 N   0  0  0  0  0  0  0  0  0  0  0  0
   -5.6762    5.8303  -19.3632 C   0  0  0  0  0  0  0  0  0  0  0  0
   -4.4002    6.3110  -19.2237 C   0  0  0  0  0  0  0  0  0  0  0  0
   -3.9940    6.2222  -17.9267 N   0  0  0  0  0  0  0  0  0  0  0  0
   -5.0251    5.7121  -17.2835 C   0  0  0  0  0  0  0  0  0  0  0  0
   -5.2207    5.5299  -15.8942 C   0  0  0  0  0  0  0  0  0  0  0  0
   -8.5799    4.9915  -10.8044 O   0  0  0  0  0  0  0  0  0  0  0  0
  1  2  1  0
  2  3  1  0
  2  4  1  0
  4  5  1  0
  5  6  1  0
  6  7  1  6
  6  8  1  0
  8  9  2  0
  8 10  1  0
 10 11  1  0
 11 12  1  0
 12 13  2  0
 13 14  1  0
 13 15  1  0
 15 16  1  0
 16 17  2  0
 17 18  1  0
 18 19  2  0
 19 20  1  0
  6 21  1  0
 21  2  1  0
 20 11  2  0
 19 15  1  0
M  END
>  <energy_score>  (525) 
-33.515401

>  <alias>  (525) 
None

>  <HIPPO Pose ID>  (525) 
69738

>  <smiles>  (525) 
CC1(C)CC[C@@](C)(C(=O)Nc2cc(Br)n3ccnc3c2)O1

>  <inchikey>  (525) 
QZNPUNLXJVBBJO-HNNXBMFYSA-N

>  <distance_score>  (525) 
1.511975

>  <ref_mols>  (525) 
Z1046b,Z1495a

>  <ref_pdb>  (525) 
Z1495a

>  <HIPPO Compound ID>  (525) 
139144

>  <name>  (525) 
P69738

>  <inspiration_score>  (525) 
None

$$$$
P69739
     RDKit          3D

 21 24  0  0  0  0  0  0  0  0999 V2000
   -8.6457    4.7255   -8.6733 C   0  0  0  0  0  0  0  0  0  0  0  0
   -7.6353    4.7696   -9.7983 C   0  0  0  0  0  0  0  0  0  0  0  0
   -6.4553    5.6247   -9.3802 C   0  0  0  0  0  0  0  0  0  0  0  0
   -8.1225    5.2965  -11.0417 O   0  0  0  0  0  0  0  0  0  0  0  0
   -7.8851    4.1735  -11.9582 C   0  0  1  0  0  0  0  0  0  0  0  0
   -8.1369    4.4916  -13.5063 C   0  0  0  0  0  0  0  0  0  0  0  0
   -9.1843    4.7896  -13.9490 O   0  0  0  0  0  0  0  0  0  0  0  0
   -6.7321    4.4179  -14.1901 N   0  0  0  0  0  0  0  0  0  0  0  0
   -6.3727    4.5913  -15.4879 C   0  0  0  0  0  0  0  0  0  0  0  0
   -7.3271    4.8683  -16.5521 C   0  0  0  0  0  0  0  0  0  0  0  0
   -6.8562    5.2614  -17.7528 C   0  0  0  0  0  0  0  0  0  0  0  0
   -5.4748    5.3545  -17.9419 N   0  0  0  0  0  0  0  0  0  0  0  0
   -4.7260    5.9335  -18.9265 C   0  0  0  0  0  0  0  0  0  0  0  0
   -5.3254    7.0359  -20.3229 Br  0  0  0  0  0  0  0  0  0  0  0  0
   -3.4085    5.7012  -18.6242 C   0  0  0  0  0  0  0  0  0  0  0  0
   -3.2970    5.0670  -17.4248 N   0  0  0  0  0  0  0  0  0  0  0  0
   -4.5404    4.9421  -16.9991 C   0  0  0  0  0  0  0  0  0  0  0  0
   -5.0450    4.5652  -15.7352 C   0  0  0  0  0  0  0  0  0  0  0  0
   -6.4887    3.4954  -11.5356 C   0  0  0  0  0  0  0  0  0  0  0  0
   -7.2875    3.3320  -10.2278 C   0  0  2  0  0  0  0  0  0  0  0  0
   -8.4285    2.8887  -11.2348 C   0  0  0  0  0  0  0  0  0  0  0  0
  1  2  1  0
  2  3  1  0
  2  4  1  0
  4  5  1  0
  5  6  1  6
  6  7  2  0
  6  8  1  0
  8  9  1  0
  9 10  1  0
 10 11  2  0
 11 12  1  0
 12 13  1  0
 13 14  1  0
 13 15  2  0
 15 16  1  0
 16 17  2  0
 17 18  1  0
  5 19  1  0
 20 19  1  6
 20 21  1  0
 20  2  1  0
 21  5  1  0
 18  9  2  0
 17 12  1  0
M  END
>  <energy_score>  (526) 
-9.188884

>  <alias>  (526) 
None

>  <HIPPO Pose ID>  (526) 
69739

>  <smiles>  (526) 
CC1(C)O[C@]2(C(=O)Nc3ccn4c(Br)cnc4c3)C[C@H]1C2

>  <inchikey>  (526) 
GZWILEDADVNFTO-DXPFQBAHSA-N

>  <distance_score>  (526) 
1.487865

>  <ref_mols>  (526) 
Z1046b,Z1495a

>  <ref_pdb>  (526) 
Z1495a

>  <HIPPO Compound ID>  (526) 
139145

>  <name>  (526) 
P69739

>  <inspiration_score>  (526) 
None

$$$$
P69742
     RDKit          3D

 21 24  0  0  0  0  0  0  0  0999 V2000
   -8.8784    5.1269  -14.0310 O   0  0  0  0  0  0  0  0  0  0  0  0
   -7.8716    4.6414  -13.6739 C   0  0  0  0  0  0  0  0  0  0  0  0
   -6.5566    4.3144  -14.4762 N   0  0  0  0  0  0  0  0  0  0  0  0
   -6.2144    4.5933  -15.7721 C   0  0  0  0  0  0  0  0  0  0  0  0
   -4.7546    4.6215  -15.9522 C   0  0  0  0  0  0  0  0  0  0  0  0
   -4.2222    5.0523  -17.1020 C   0  0  0  0  0  0  0  0  0  0  0  0
   -5.0695    5.5294  -18.0798 N   0  0  0  0  0  0  0  0  0  0  0  0
   -4.7355    6.1734  -19.2383 C   0  0  0  0  0  0  0  0  0  0  0  0
   -5.9233    6.6583  -19.7163 C   0  0  0  0  0  0  0  0  0  0  0  0
   -6.9595    6.3277  -18.8813 N   0  0  0  0  0  0  0  0  0  0  0  0
   -6.4523    5.5289  -17.9650 C   0  0  0  0  0  0  0  0  0  0  0  0
   -7.0271    4.8654  -16.8248 C   0  0  0  0  0  0  0  0  0  0  0  0
   -8.8159    4.3422  -16.9876 Br  0  0  0  0  0  0  0  0  0  0  0  0
   -7.5367    4.2763  -12.2096 C   0  0  1  0  0  0  0  0  0  0  0  0
   -6.9059    5.5446  -11.5804 C   0  0  0  0  0  0  0  0  0  0  0  0
   -7.8046    6.1568  -10.5106 C   0  0  0  0  0  0  0  0  0  0  0  0
   -8.0934    5.1225   -9.4278 C   0  0  0  0  0  0  0  0  0  0  0  0
   -8.3454    3.7769  -10.0409 C   0  0  0  0  0  0  0  0  0  0  0  0
   -7.5590    2.5856   -9.5600 C   0  0  0  0  0  0  0  0  0  0  0  0
   -9.0168    2.6985   -9.2417 C   0  0  0  0  0  0  0  0  0  0  0  0
   -8.6367    3.8118  -11.4530 O   0  0  0  0  0  0  0  0  0  0  0  0
  1  2  2  0
  2  3  1  0
  3  4  1  0
  4  5  1  0
  5  6  2  0
  6  7  1  0
  7  8  1  0
  8  9  2  0
  9 10  1  0
 10 11  2  0
 11 12  1  0
 12 13  1  0
 14  2  1  6
 14 15  1  0
 15 16  1  0
 16 17  1  0
 17 18  1  0
 18 19  1  0
 19 20  1  0
 18 21  1  0
 12  4  2  0
 21 14  1  0
 11  7  1  0
 20 18  1  0
M  END
>  <energy_score>  (527) 
-8.292199

>  <alias>  (527) 
None

>  <HIPPO Pose ID>  (527) 
69742

>  <smiles>  (527) 
O=C(Nc1ccn2ccnc2c1Br)[C@H]1CCCC2(CC2)O1

>  <inchikey>  (527) 
NXZSFYFDVAUVKK-LLVKDONJSA-N

>  <distance_score>  (527) 
1.189216

>  <ref_mols>  (527) 
Z1046b,Z1495a

>  <ref_pdb>  (527) 
Z1495a

>  <HIPPO Compound ID>  (527) 
139147

>  <name>  (527) 
P69742

>  <inspiration_score>  (527) 
None

$$$$
P69746
     RDKit          3D

 21 24  0  0  0  0  0  0  0  0999 V2000
   -9.1196    4.8493  -13.7212 O   0  0  0  0  0  0  0  0  0  0  0  0
   -8.0176    4.8682  -13.3219 C   0  0  0  0  0  0  0  0  0  0  0  0
   -6.6562    4.9036  -14.0996 N   0  0  0  0  0  0  0  0  0  0  0  0
   -6.4047    5.0112  -15.4260 C   0  0  0  0  0  0  0  0  0  0  0  0
   -7.4776    4.6753  -16.3385 C   0  0  0  0  0  0  0  0  0  0  0  0
   -7.3173    4.8423  -17.6604 C   0  0  0  0  0  0  0  0  0  0  0  0
   -8.7078    4.3448  -18.7777 Br  0  0  0  0  0  0  0  0  0  0  0  0
   -6.1078    5.3828  -18.1166 N   0  0  0  0  0  0  0  0  0  0  0  0
   -5.6994    5.8176  -19.3487 C   0  0  0  0  0  0  0  0  0  0  0  0
   -4.4254    6.2990  -19.2086 C   0  0  0  0  0  0  0  0  0  0  0  0
   -4.0090    6.1854  -17.9152 N   0  0  0  0  0  0  0  0  0  0  0  0
   -5.0296    5.6539  -17.2712 C   0  0  0  0  0  0  0  0  0  0  0  0
   -5.2026    5.4040  -15.8832 C   0  0  0  0  0  0  0  0  0  0  0  0
   -7.6412    4.8080  -11.8389 C   0  0  1  0  0  0  0  0  0  0  0  0
   -7.5103    6.2293  -11.2809 C   0  0  0  0  0  0  0  0  0  0  0  0
   -8.1117    6.3640   -9.8833 C   0  0  0  0  0  0  0  0  0  0  0  0
   -7.8506    5.1237   -9.0313 C   0  0  0  0  0  0  0  0  0  0  0  0
   -8.2505    3.8737   -9.7615 C   0  0  0  0  0  0  0  0  0  0  0  0
   -7.5268    2.5860   -9.4798 C   0  0  0  0  0  0  0  0  0  0  0  0
   -8.9469    2.7557   -9.0385 C   0  0  0  0  0  0  0  0  0  0  0  0
   -8.6250    4.0738  -11.1327 O   0  0  0  0  0  0  0  0  0  0  0  0
  1  2  2  0
  2  3  1  0
  3  4  1  0
  4  5  1  0
  5  6  2  0
  6  7  1  0
  6  8  1  0
  8  9  1  0
  9 10  2  0
 10 11  1  0
 11 12  2  0
 12 13  1  0
 14  2  1  6
 14 15  1  0
 15 16  1  0
 16 17  1  0
 17 18  1  0
 18 19  1  0
 19 20  1  0
 18 21  1  0
 13  4  2  0
 21 14  1  0
 12  8  1  0
 20 18  1  0
M  END
>  <energy_score>  (528) 
-36.704428

>  <alias>  (528) 
None

>  <HIPPO Pose ID>  (528) 
69746

>  <smiles>  (528) 
O=C(Nc1cc(Br)n2ccnc2c1)[C@H]1CCCC2(CC2)O1

>  <inchikey>  (528) 
IDWGCNLPWVSQAZ-LLVKDONJSA-N

>  <distance_score>  (528) 
1.131255

>  <ref_mols>  (528) 
Z1046b,Z1495a

>  <ref_pdb>  (528) 
Z1495a

>  <HIPPO Compound ID>  (528) 
139152

>  <name>  (528) 
P69746

>  <inspiration_score>  (528) 
None

$$$$
P69748
     RDKit          3D

 21 23  0  0  0  0  0  0  0  0999 V2000
   -7.6296    2.4722   -9.8575 C   0  0  0  0  0  0  0  0  0  0  0  0
   -7.0881    3.8745  -10.1198 C   0  0  0  0  0  0  0  0  0  0  0  0
   -5.6026    3.9541   -9.7585 C   0  0  0  0  0  0  0  0  0  0  0  0
   -7.8976    4.9095   -9.2962 C   0  0  0  0  0  0  0  0  0  0  0  0
   -7.7657    6.2283   -9.8388 O   0  0  0  0  0  0  0  0  0  0  0  0
   -8.1521    6.2769  -11.2231 C   0  0  0  0  0  0  0  0  0  0  0  0
   -8.2987    4.8955  -11.8653 C   0  0  1  0  0  0  0  0  0  0  0  0
   -8.4882    5.0635  -13.3670 C   0  0  0  0  0  0  0  0  0  0  0  0
   -9.5268    5.3043  -13.8529 O   0  0  0  0  0  0  0  0  0  0  0  0
   -7.0761    4.9266  -14.0162 N   0  0  0  0  0  0  0  0  0  0  0  0
   -6.6988    4.9618  -15.3185 C   0  0  0  0  0  0  0  0  0  0  0  0
   -7.7203    4.6416  -16.2936 C   0  0  0  0  0  0  0  0  0  0  0  0
   -7.4734    4.7776  -17.6043 C   0  0  0  0  0  0  0  0  0  0  0  0
   -8.8108    4.3185  -18.7960 Br  0  0  0  0  0  0  0  0  0  0  0  0
   -6.2223    5.2666  -17.9945 N   0  0  0  0  0  0  0  0  0  0  0  0
   -5.7366    5.6675  -19.2105 C   0  0  0  0  0  0  0  0  0  0  0  0
   -4.4600    6.1175  -19.0032 C   0  0  0  0  0  0  0  0  0  0  0  0
   -4.1194    6.0114  -17.6851 N   0  0  0  0  0  0  0  0  0  0  0  0
   -5.1872    5.5148  -17.0895 C   0  0  0  0  0  0  0  0  0  0  0  0
   -5.4533    5.2941  -15.7061 C   0  0  0  0  0  0  0  0  0  0  0  0
   -7.1508    4.1171  -11.5435 O   0  0  0  0  0  0  0  0  0  0  0  0
  1  2  1  0
  2  3  1  0
  2  4  1  0
  4  5  1  0
  5  6  1  0
  6  7  1  0
  7  8  1  6
  8  9  2  0
  8 10  1  0
 10 11  1  0
 11 12  1  0
 12 13  2  0
 13 14  1  0
 13 15  1  0
 15 16  1  0
 16 17  2  0
 17 18  1  0
 18 19  2  0
 19 20  1  0
  7 21  1  0
 21  2  1  0
 20 11  2  0
 19 15  1  0
M  END
>  <energy_score>  (529) 
-51.367524

>  <alias>  (529) 
None

>  <HIPPO Pose ID>  (529) 
69748

>  <smiles>  (529) 
CC1(C)COC[C@@H](C(=O)Nc2cc(Br)n3ccnc3c2)O1

>  <inchikey>  (529) 
GZZYZGJXCGIQJK-JTQLQIEISA-N

>  <distance_score>  (529) 
1.189611

>  <ref_mols>  (529) 
Z1046b,Z1495a

>  <ref_pdb>  (529) 
Z1495a

>  <HIPPO Compound ID>  (529) 
139153

>  <name>  (529) 
P69748

>  <inspiration_score>  (529) 
None

$$$$
P69750
     RDKit          3D

 21 23  0  0  0  0  0  0  0  0999 V2000
   -6.4487    2.2449  -10.2754 C   0  0  0  0  0  0  0  0  0  0  0  0
   -7.4881    3.3373  -10.4582 C   0  0  0  0  0  0  0  0  0  0  0  0
   -8.8275    2.8036   -9.9407 C   0  0  0  0  0  0  0  0  0  0  0  0
   -7.0765    4.6209   -9.7034 C   0  0  0  0  0  0  0  0  0  0  0  0
   -7.9370    5.7314  -10.0193 O   0  0  0  0  0  0  0  0  0  0  0  0
   -7.9729    5.9533  -11.4388 C   0  0  0  0  0  0  0  0  0  0  0  0
   -8.4096    4.6864  -12.1730 C   0  0  1  0  0  0  0  0  0  0  0  0
   -8.5256    4.9872  -13.6720 C   0  0  0  0  0  0  0  0  0  0  0  0
   -9.4824    5.4418  -14.1705 O   0  0  0  0  0  0  0  0  0  0  0  0
   -7.1283    4.6637  -14.2791 N   0  0  0  0  0  0  0  0  0  0  0  0
   -6.6829    4.7406  -15.5644 C   0  0  0  0  0  0  0  0  0  0  0  0
   -7.6147    4.9051  -16.6775 C   0  0  0  0  0  0  0  0  0  0  0  0
   -7.1336    5.1442  -17.9129 C   0  0  0  0  0  0  0  0  0  0  0  0
   -5.7576    5.2444  -18.0903 N   0  0  0  0  0  0  0  0  0  0  0  0
   -5.0219    5.6195  -19.1839 C   0  0  0  0  0  0  0  0  0  0  0  0
   -3.7227    5.6021  -18.7545 C   0  0  0  0  0  0  0  0  0  0  0  0
   -2.6812    5.9462  -19.5099 O   0  0  0  0  0  0  0  0  0  0  0  0
   -3.5980    5.2317  -17.4610 N   0  0  0  0  0  0  0  0  0  0  0  0
   -4.8386    5.0313  -17.0675 C   0  0  0  0  0  0  0  0  0  0  0  0
   -5.3524    4.7303  -15.7810 C   0  0  0  0  0  0  0  0  0  0  0  0
   -7.5122    3.6158  -11.8788 O   0  0  0  0  0  0  0  0  0  0  0  0
  1  2  1  0
  2  3  1  0
  2  4  1  0
  4  5  1  0
  5  6  1  0
  6  7  1  0
  7  8  1  6
  8  9  2  0
  8 10  1  0
 10 11  1  0
 11 12  1  0
 12 13  2  0
 13 14  1  0
 14 15  1  0
 15 16  2  0
 16 17  1  0
 16 18  1  0
 18 19  2  0
 19 20  1  0
  7 21  1  0
 21  2  1  0
 20 11  2  0
 19 14  1  0
M  END
>  <energy_score>  (530) 
-42.047915

>  <alias>  (530) 
None

>  <HIPPO Pose ID>  (530) 
69750

>  <smiles>  (530) 
CC1(C)COC[C@@H](C(=O)Nc2ccn3cc(O)nc3c2)O1

>  <inchikey>  (530) 
IFBADBVFJSPANL-JTQLQIEISA-N

>  <distance_score>  (530) 
1.368908

>  <ref_mols>  (530) 
Z1046b,Z1495a

>  <ref_pdb>  (530) 
Z1495a

>  <HIPPO Compound ID>  (530) 
139156

>  <name>  (530) 
P69750

>  <inspiration_score>  (530) 
None

$$$$
P69752
     RDKit          3D

 21 23  0  0  0  0  0  0  0  0999 V2000
   -7.6626    2.4071  -10.0914 C   0  0  0  0  0  0  0  0  0  0  0  0
   -7.1502    3.8129  -10.3688 C   0  0  0  0  0  0  0  0  0  0  0  0
   -5.6810    3.9368   -9.9552 C   0  0  0  0  0  0  0  0  0  0  0  0
   -8.0159    4.8309   -9.5900 C   0  0  0  0  0  0  0  0  0  0  0  0
   -7.8667    6.1464  -10.1227 O   0  0  0  0  0  0  0  0  0  0  0  0
   -8.1845    6.1868  -11.5226 C   0  0  0  0  0  0  0  0  0  0  0  0
   -8.2888    4.8056  -12.1959 C   0  0  1  0  0  0  0  0  0  0  0  0
   -8.3646    5.0647  -13.7047 C   0  0  0  0  0  0  0  0  0  0  0  0
   -9.2475    5.6450  -14.2105 O   0  0  0  0  0  0  0  0  0  0  0  0
   -7.0388    4.5096  -14.3136 N   0  0  0  0  0  0  0  0  0  0  0  0
   -6.5197    4.6336  -15.5746 C   0  0  0  0  0  0  0  0  0  0  0  0
   -5.0522    4.6329  -15.6061 C   0  0  0  0  0  0  0  0  0  0  0  0
   -4.4040    4.9901  -16.7244 C   0  0  0  0  0  0  0  0  0  0  0  0
   -5.1444    5.3970  -17.8183 N   0  0  0  0  0  0  0  0  0  0  0  0
   -4.6990    5.9582  -18.9857 C   0  0  0  0  0  0  0  0  0  0  0  0
   -5.8360    6.3810  -19.6235 C   0  0  0  0  0  0  0  0  0  0  0  0
   -6.9490    6.0881  -18.8811 N   0  0  0  0  0  0  0  0  0  0  0  0
   -6.5305    5.3893  -17.8486 C   0  0  0  0  0  0  0  0  0  0  0  0
   -7.2177    4.8266  -16.7223 C   0  0  0  0  0  0  0  0  0  0  0  0
   -8.9931    4.3095  -17.0092 Br  0  0  0  0  0  0  0  0  0  0  0  0
   -7.1682    4.0159  -11.8022 O   0  0  0  0  0  0  0  0  0  0  0  0
  1  2  1  0
  2  3  1  0
  2  4  1  0
  4  5  1  0
  5  6  1  0
  6  7  1  0
  7  8  1  6
  8  9  2  0
  8 10  1  0
 10 11  1  0
 11 12  1  0
 12 13  2  0
 13 14  1  0
 14 15  1  0
 15 16  2  0
 16 17  1  0
 17 18  2  0
 18 19  1  0
 19 20  1  0
  7 21  1  0
 21  2  1  0
 19 11  2  0
 18 14  1  0
M  END
>  <energy_score>  (531) 
-30.263626

>  <alias>  (531) 
None

>  <HIPPO Pose ID>  (531) 
69752

>  <smiles>  (531) 
CC1(C)COC[C@@H](C(=O)Nc2ccn3ccnc3c2Br)O1

>  <inchikey>  (531) 
BYOGBAMZALAVJT-JTQLQIEISA-N

>  <distance_score>  (531) 
1.142417

>  <ref_mols>  (531) 
Z1046b,Z1495a

>  <ref_pdb>  (531) 
Z1495a

>  <HIPPO Compound ID>  (531) 
139158

>  <name>  (531) 
P69752

>  <inspiration_score>  (531) 
None

$$$$
P69753
     RDKit          3D

 21 23  0  0  0  0  0  0  0  0999 V2000
   -6.9379    4.1834   -7.9137 C   0  0  0  0  0  0  0  0  0  0  0  0
   -6.4946    4.6203   -9.3072 C   0  0  0  0  0  0  0  0  0  0  0  0
   -7.6653    4.8567  -10.2536 C   0  0  2  0  0  0  0  0  0  0  0  0
   -8.4812    6.0477   -9.7272 C   0  0  0  0  0  0  0  0  0  0  0  0
   -8.4392    3.5416  -10.4280 C   0  0  0  0  0  0  0  0  0  0  0  0
   -8.4545    3.3231  -11.9201 C   0  0  0  0  0  0  0  0  0  0  0  0
   -8.3116    4.7300  -12.4271 C   0  0  2  0  0  0  0  0  0  0  0  0
   -8.3206    4.8442  -13.9573 C   0  0  0  0  0  0  0  0  0  0  0  0
   -9.3036    5.0864  -14.5441 O   0  0  0  0  0  0  0  0  0  0  0  0
   -6.8763    4.6057  -14.4704 N   0  0  0  0  0  0  0  0  0  0  0  0
   -6.3551    4.7040  -15.7275 C   0  0  0  0  0  0  0  0  0  0  0  0
   -7.2474    4.9621  -16.8591 C   0  0  0  0  0  0  0  0  0  0  0  0
   -6.7284    5.3625  -18.0333 C   0  0  0  0  0  0  0  0  0  0  0  0
   -5.3466    5.4647  -18.1542 N   0  0  0  0  0  0  0  0  0  0  0  0
   -4.5567    6.0455  -19.1123 C   0  0  0  0  0  0  0  0  0  0  0  0
   -5.0811    7.1367  -20.5598 Br  0  0  0  0  0  0  0  0  0  0  0  0
   -3.2576    5.8015  -18.7444 C   0  0  0  0  0  0  0  0  0  0  0  0
   -3.2041    5.1519  -17.5422 N   0  0  0  0  0  0  0  0  0  0  0  0
   -4.4634    5.0381  -17.1641 C   0  0  0  0  0  0  0  0  0  0  0  0
   -5.0205    4.6619  -15.9103 C   0  0  0  0  0  0  0  0  0  0  0  0
   -7.2497    5.2291  -11.6057 O   0  0  0  0  0  0  0  0  0  0  0  0
  1  2  1  0
  3  2  1  0
  3  4  1  1
  3  5  1  0
  5  6  1  0
  6  7  1  0
  7  8  1  6
  8  9  2  0
  8 10  1  0
 10 11  1  0
 11 12  1  0
 12 13  2  0
 13 14  1  0
 14 15  1  0
 15 16  1  0
 15 17  2  0
 17 18  1  0
 18 19  2  0
 19 20  1  0
  7 21  1  0
 21  3  1  0
 20 11  2  0
 19 14  1  0
M  END
>  <energy_score>  (532) 
-25.961009

>  <alias>  (532) 
None

>  <HIPPO Pose ID>  (532) 
69753

>  <smiles>  (532) 
CC[C@]1(C)CC[C@H](C(=O)Nc2ccn3c(Br)cnc3c2)O1

>  <inchikey>  (532) 
CNQALXLSCWDVDT-IAQYHMDHSA-N

>  <distance_score>  (532) 
1.256454

>  <ref_mols>  (532) 
Z1046b,Z1495a

>  <ref_pdb>  (532) 
Z1495a

>  <HIPPO Compound ID>  (532) 
139160

>  <name>  (532) 
P69753

>  <inspiration_score>  (532) 
None

$$$$
P69756
     RDKit          3D

 21 24  0  0  0  0  0  0  0  0999 V2000
   -8.2620    6.4442  -14.2363 O   0  0  0  0  0  0  0  0  0  0  0  0
   -7.4414    5.7632  -13.7545 C   0  0  0  0  0  0  0  0  0  0  0  0
   -6.3597    4.8587  -14.4213 N   0  0  0  0  0  0  0  0  0  0  0  0
   -6.0296    4.6952  -15.7350 C   0  0  0  0  0  0  0  0  0  0  0  0
   -4.5921    4.5699  -15.9697 C   0  0  0  0  0  0  0  0  0  0  0  0
   -4.0910    4.9160  -17.1637 C   0  0  0  0  0  0  0  0  0  0  0  0
   -4.9562    5.4002  -18.1295 N   0  0  0  0  0  0  0  0  0  0  0  0
   -4.6408    6.0156  -19.3097 C   0  0  0  0  0  0  0  0  0  0  0  0
   -5.8315    6.5144  -19.7700 C   0  0  0  0  0  0  0  0  0  0  0  0
   -6.8554    6.2172  -18.9090 N   0  0  0  0  0  0  0  0  0  0  0  0
   -6.3360    5.4456  -17.9767 C   0  0  0  0  0  0  0  0  0  0  0  0
   -6.8803    4.8919  -16.7724 C   0  0  0  0  0  0  0  0  0  0  0  0
   -8.6998    4.4567  -16.7474 Br  0  0  0  0  0  0  0  0  0  0  0  0
   -7.1666    5.6871  -12.2488 C   0  0  1  0  0  0  0  0  0  0  0  0
   -8.3264    6.2216  -11.4348 C   0  0  0  0  0  0  0  0  0  0  0  0
   -8.1057    5.5946  -10.0783 C   0  0  0  0  0  0  0  0  0  0  0  0
   -7.5402    4.2260  -10.4413 C   0  0  0  0  0  0  0  0  0  0  0  0
   -6.6768    3.5945   -9.3251 C   0  0  0  0  0  0  0  0  0  0  0  0
   -7.9334    2.8344   -8.8646 C   0  0  0  0  0  0  0  0  0  0  0  0
   -8.4540    2.9825  -10.3034 C   0  0  0  0  0  0  0  0  0  0  0  0
   -6.9076    4.3828  -11.7389 O   0  0  0  0  0  0  0  0  0  0  0  0
  1  2  2  0
  2  3  1  0
  3  4  1  0
  4  5  1  0
  5  6  2  0
  6  7  1  0
  7  8  1  0
  8  9  2  0
  9 10  1  0
 10 11  2  0
 11 12  1  0
 12 13  1  0
 14  2  1  6
 14 15  1  0
 15 16  1  0
 16 17  1  0
 17 18  1  0
 18 19  1  0
 19 20  1  0
 17 21  1  0
 12  4  2  0
 21 14  1  0
 11  7  1  0
 20 17  1  0
M  END
>  <energy_score>  (533) 
-17.708215

>  <alias>  (533) 
None

>  <HIPPO Pose ID>  (533) 
69756

>  <smiles>  (533) 
O=C(Nc1ccn2ccnc2c1Br)[C@H]1CCC2(CCC2)O1

>  <inchikey>  (533) 
VVWAERKCNTXCCF-LLVKDONJSA-N

>  <distance_score>  (533) 
1.318206

>  <ref_mols>  (533) 
Z1046b,Z1495a

>  <ref_pdb>  (533) 
Z1495a

>  <HIPPO Compound ID>  (533) 
139161

>  <name>  (533) 
P69756

>  <inspiration_score>  (533) 
None

$$$$
P69757
     RDKit          3D

 21 23  0  0  0  0  0  0  0  0999 V2000
   -8.9579    2.7293   -8.7174 C   0  0  0  0  0  0  0  0  0  0  0  0
   -8.4696    4.1721   -8.7504 C   0  0  0  0  0  0  0  0  0  0  0  0
   -7.8411    4.6165  -10.0804 C   0  0  1  0  0  0  0  0  0  0  0  0
   -7.5800    6.1276  -10.0425 C   0  0  0  0  0  0  0  0  0  0  0  0
   -6.5783    3.8294  -10.3671 C   0  0  0  0  0  0  0  0  0  0  0  0
   -6.5368    3.8076  -11.8625 C   0  0  0  0  0  0  0  0  0  0  0  0
   -8.0039    3.7515  -12.2735 C   0  0  2  0  0  0  0  0  0  0  0  0
   -8.2809    4.4086  -13.6774 C   0  0  0  0  0  0  0  0  0  0  0  0
   -9.1873    5.1227  -13.8968 O   0  0  0  0  0  0  0  0  0  0  0  0
   -7.0742    3.9863  -14.5909 N   0  0  0  0  0  0  0  0  0  0  0  0
   -6.7207    4.4053  -15.8316 C   0  0  0  0  0  0  0  0  0  0  0  0
   -7.7195    4.7949  -16.8135 C   0  0  0  0  0  0  0  0  0  0  0  0
   -7.3075    5.2350  -18.0185 C   0  0  0  0  0  0  0  0  0  0  0  0
   -5.9419    5.3586  -18.2668 N   0  0  0  0  0  0  0  0  0  0  0  0
   -5.2699    5.9028  -19.3318 C   0  0  0  0  0  0  0  0  0  0  0  0
   -3.9411    5.8257  -18.9944 C   0  0  0  0  0  0  0  0  0  0  0  0
   -2.9514    6.2878  -19.7654 O   0  0  0  0  0  0  0  0  0  0  0  0
   -3.7493    5.2358  -17.7915 N   0  0  0  0  0  0  0  0  0  0  0  0
   -4.9644    4.9848  -17.3557 C   0  0  0  0  0  0  0  0  0  0  0  0
   -5.4043    4.4590  -16.1197 C   0  0  0  0  0  0  0  0  0  0  0  0
   -8.7128    4.4018  -11.2033 O   0  0  0  0  0  0  0  0  0  0  0  0
  1  2  1  0
  3  2  1  0
  3  4  1  1
  3  5  1  0
  5  6  1  0
  6  7  1  0
  7  8  1  6
  8  9  2  0
  8 10  1  0
 10 11  1  0
 11 12  1  0
 12 13  2  0
 13 14  1  0
 14 15  1  0
 15 16  2  0
 16 17  1  0
 16 18  1  0
 18 19  2  0
 19 20  1  0
  7 21  1  0
 21  3  1  0
 20 11  2  0
 19 14  1  0
M  END
>  <energy_score>  (534) 
-54.933062

>  <alias>  (534) 
None

>  <HIPPO Pose ID>  (534) 
69757

>  <smiles>  (534) 
CC[C@@]1(C)CC[C@H](C(=O)Nc2ccn3cc(O)nc3c2)O1

>  <inchikey>  (534) 
SEXGSMCVOSNMCX-ABAIWWIYSA-N

>  <distance_score>  (534) 
1.203392

>  <ref_mols>  (534) 
Z1046b,Z1495a

>  <ref_pdb>  (534) 
Z1495a

>  <HIPPO Compound ID>  (534) 
139163

>  <name>  (534) 
P69757

>  <inspiration_score>  (534) 
None

$$$$
P69767
     RDKit          3D

 21 23  0  0  0  0  0  0  0  0999 V2000
   -8.4538    2.6821   -8.0175 C   0  0  0  0  0  0  0  0  0  0  0  0
   -8.8339    3.6512   -9.1204 C   0  0  0  0  0  0  0  0  0  0  0  0
   -7.7204    4.5121   -9.7118 C   0  0  1  0  0  0  0  0  0  0  0  0
   -7.3098    5.6368   -8.7692 C   0  0  0  0  0  0  0  0  0  0  0  0
   -6.5273    3.6771  -10.1776 C   0  0  0  0  0  0  0  0  0  0  0  0
   -6.7692    3.5623  -11.6555 C   0  0  0  0  0  0  0  0  0  0  0  0
   -7.3160    4.9466  -11.9391 C   0  0  1  0  0  0  0  0  0  0  0  0
   -7.8089    5.0278  -13.3845 C   0  0  0  0  0  0  0  0  0  0  0  0
   -8.9285    5.0786  -13.7290 O   0  0  0  0  0  0  0  0  0  0  0  0
   -6.4843    4.9795  -14.2311 N   0  0  0  0  0  0  0  0  0  0  0  0
   -6.2932    5.0736  -15.5651 C   0  0  0  0  0  0  0  0  0  0  0  0
   -7.3946    4.7191  -16.4288 C   0  0  0  0  0  0  0  0  0  0  0  0
   -7.2810    4.8796  -17.7561 C   0  0  0  0  0  0  0  0  0  0  0  0
   -8.7081    4.3526  -18.8110 Br  0  0  0  0  0  0  0  0  0  0  0  0
   -6.0912    5.4300  -18.2580 N   0  0  0  0  0  0  0  0  0  0  0  0
   -5.7263    5.8738  -19.4983 C   0  0  0  0  0  0  0  0  0  0  0  0
   -4.4467    6.3463  -19.4167 C   0  0  0  0  0  0  0  0  0  0  0  0
   -3.9829    6.2289  -18.1430 N   0  0  0  0  0  0  0  0  0  0  0  0
   -4.9821    5.7067  -17.4571 C   0  0  0  0  0  0  0  0  0  0  0  0
   -5.1086    5.4689  -16.0645 C   0  0  0  0  0  0  0  0  0  0  0  0
   -8.2376    5.1888  -10.8914 O   0  0  0  0  0  0  0  0  0  0  0  0
  1  2  1  0
  3  2  1  0
  3  4  1  1
  3  5  1  0
  5  6  1  0
  6  7  1  0
  7  8  1  6
  8  9  2  0
  8 10  1  0
 10 11  1  0
 11 12  1  0
 12 13  2  0
 13 14  1  0
 13 15  1  0
 15 16  1  0
 16 17  2  0
 17 18  1  0
 18 19  2  0
 19 20  1  0
  7 21  1  0
 21  3  1  0
 20 11  2  0
 19 15  1  0
M  END
>  <energy_score>  (535) 
-15.823473

>  <alias>  (535) 
None

>  <HIPPO Pose ID>  (535) 
69767

>  <smiles>  (535) 
CC[C@@]1(C)CC[C@@H](C(=O)Nc2cc(Br)n3ccnc3c2)O1

>  <inchikey>  (535) 
IEXXJXJOHQUQGY-NHYWBVRUSA-N

>  <distance_score>  (535) 
1.324195

>  <ref_mols>  (535) 
Z1046b,Z1495a

>  <ref_pdb>  (535) 
Z1495a

>  <HIPPO Compound ID>  (535) 
139165

>  <name>  (535) 
P69767

>  <inspiration_score>  (535) 
None

$$$$
P69769
     RDKit          3D

 21 23  0  0  0  0  0  0  0  0999 V2000
   -6.4681    2.1665  -10.3243 C   0  0  0  0  0  0  0  0  0  0  0  0
   -7.4764    3.2965  -10.4726 C   0  0  0  0  0  0  0  0  0  0  0  0
   -8.8396    2.7516  -10.0403 C   0  0  0  0  0  0  0  0  0  0  0  0
   -7.0522    4.5060   -9.6194 C   0  0  0  0  0  0  0  0  0  0  0  0
   -7.8440    5.7695   -9.9515 C   0  0  0  0  0  0  0  0  0  0  0  0
   -7.8989    5.9989  -11.4549 C   0  0  0  0  0  0  0  0  0  0  0  0
   -8.3213    4.7265  -12.1908 C   0  0  1  0  0  0  0  0  0  0  0  0
   -8.3717    5.0495  -13.6938 C   0  0  0  0  0  0  0  0  0  0  0  0
   -9.2203    5.6944  -14.1800 O   0  0  0  0  0  0  0  0  0  0  0  0
   -7.0721    4.4518  -14.3183 N   0  0  0  0  0  0  0  0  0  0  0  0
   -6.5390    4.5994  -15.5703 C   0  0  0  0  0  0  0  0  0  0  0  0
   -5.0726    4.5859  -15.5998 C   0  0  0  0  0  0  0  0  0  0  0  0
   -4.4215    4.9499  -16.7147 C   0  0  0  0  0  0  0  0  0  0  0  0
   -5.1576    5.3764  -17.8052 N   0  0  0  0  0  0  0  0  0  0  0  0
   -4.7062    5.9388  -18.9698 C   0  0  0  0  0  0  0  0  0  0  0  0
   -5.8383    6.3787  -19.6052 C   0  0  0  0  0  0  0  0  0  0  0  0
   -6.9539    6.1007  -18.8613 N   0  0  0  0  0  0  0  0  0  0  0  0
   -6.5435    5.3881  -17.8346 C   0  0  0  0  0  0  0  0  0  0  0  0
   -7.2354    4.8218  -16.7137 C   0  0  0  0  0  0  0  0  0  0  0  0
   -9.0153    4.3198  -17.0020 Br  0  0  0  0  0  0  0  0  0  0  0  0
   -7.4355    3.6631  -11.8653 O   0  0  0  0  0  0  0  0  0  0  0  0
  1  2  1  0
  2  3  1  0
  2  4  1  0
  4  5  1  0
  5  6  1  0
  6  7  1  0
  7  8  1  6
  8  9  2  0
  8 10  1  0
 10 11  1  0
 11 12  1  0
 12 13  2  0
 13 14  1  0
 14 15  1  0
 15 16  2  0
 16 17  1  0
 17 18  2  0
 18 19  1  0
 19 20  1  0
  7 21  1  0
 21  2  1  0
 19 11  2  0
 18 14  1  0
M  END
>  <energy_score>  (536) 
-26.276651

>  <alias>  (536) 
None

>  <HIPPO Pose ID>  (536) 
69769

>  <smiles>  (536) 
CC1(C)CCC[C@@H](C(=O)Nc2ccn3ccnc3c2Br)O1

>  <inchikey>  (536) 
QRRKZTLADOLLHE-NSHDSACASA-N

>  <distance_score>  (536) 
1.415553

>  <ref_mols>  (536) 
Z1046b,Z1495a

>  <ref_pdb>  (536) 
Z1495a

>  <HIPPO Compound ID>  (536) 
139167

>  <name>  (536) 
P69769

>  <inspiration_score>  (536) 
None

$$$$
P69771
     RDKit          3D

 21 23  0  0  0  0  0  0  0  0999 V2000
   -7.8317    2.5236  -10.2276 C   0  0  0  0  0  0  0  0  0  0  0  0
   -7.1808    3.8917  -10.4134 C   0  0  0  0  0  0  0  0  0  0  0  0
   -5.7007    3.8073  -10.0203 C   0  0  0  0  0  0  0  0  0  0  0  0
   -7.9042    4.9535   -9.5572 C   0  0  0  0  0  0  0  0  0  0  0  0
   -7.7947    6.3409  -10.1758 C   0  0  0  0  0  0  0  0  0  0  0  0
   -8.2564    6.3426  -11.6320 C   0  0  0  0  0  0  0  0  0  0  0  0
   -8.3563    4.9283  -12.2081 C   0  0  1  0  0  0  0  0  0  0  0  0
   -8.5304    5.0316  -13.7344 C   0  0  0  0  0  0  0  0  0  0  0  0
   -9.5104    5.4005  -14.2569 O   0  0  0  0  0  0  0  0  0  0  0  0
   -7.1463    4.6560  -14.3376 N   0  0  0  0  0  0  0  0  0  0  0  0
   -6.6862    4.7434  -15.6156 C   0  0  0  0  0  0  0  0  0  0  0  0
   -7.6092    4.8574  -16.7415 C   0  0  0  0  0  0  0  0  0  0  0  0
   -7.1204    5.1090  -17.9713 C   0  0  0  0  0  0  0  0  0  0  0  0
   -5.7461    5.2566  -18.1316 N   0  0  0  0  0  0  0  0  0  0  0  0
   -5.0079    5.6461  -19.2185 C   0  0  0  0  0  0  0  0  0  0  0  0
   -3.7128    5.6580  -18.7770 C   0  0  0  0  0  0  0  0  0  0  0  0
   -2.6706    6.0133  -19.5259 O   0  0  0  0  0  0  0  0  0  0  0  0
   -3.5933    5.3051  -17.4787 N   0  0  0  0  0  0  0  0  0  0  0  0
   -4.8333    5.0820  -17.0962 C   0  0  0  0  0  0  0  0  0  0  0  0
   -5.3535    4.7845  -15.8130 C   0  0  0  0  0  0  0  0  0  0  0  0
   -7.1846    4.2183  -11.8178 O   0  0  0  0  0  0  0  0  0  0  0  0
  1  2  1  0
  2  3  1  0
  2  4  1  0
  4  5  1  0
  5  6  1  0
  6  7  1  0
  7  8  1  6
  8  9  2  0
  8 10  1  0
 10 11  1  0
 11 12  1  0
 12 13  2  0
 13 14  1  0
 14 15  1  0
 15 16  2  0
 16 17  1  0
 16 18  1  0
 18 19  2  0
 19 20  1  0
  7 21  1  0
 21  2  1  0
 20 11  2  0
 19 14  1  0
M  END
>  <energy_score>  (537) 
-49.619277

>  <alias>  (537) 
None

>  <HIPPO Pose ID>  (537) 
69771

>  <smiles>  (537) 
CC1(C)CCC[C@@H](C(=O)Nc2ccn3cc(O)nc3c2)O1

>  <inchikey>  (537) 
WKVHYBJREGLJCB-NSHDSACASA-N

>  <distance_score>  (537) 
1.083874

>  <ref_mols>  (537) 
Z1046b,Z1495a

>  <ref_pdb>  (537) 
Z1495a

>  <HIPPO Compound ID>  (537) 
139169

>  <name>  (537) 
P69771

>  <inspiration_score>  (537) 
None

$$$$
P69778
     RDKit          3D

 22 24  0  0  0  0  0  0  0  0999 V2000
   -7.6378    2.3926   -9.6160 C   0  0  0  0  0  0  0  0  0  0  0  0
   -7.0947    3.5593  -10.4514 C   0  0  0  0  0  0  0  0  0  0  0  0
   -5.5546    3.4957  -10.3627 C   0  0  0  0  0  0  0  0  0  0  0  0
   -7.5416    3.3821  -11.9107 C   0  0  0  0  0  0  0  0  0  0  0  0
   -7.6676    4.8182  -12.3646 C   0  0  1  0  0  0  0  0  0  0  0  0
   -8.0641    4.9571  -13.8582 C   0  0  0  0  0  0  0  0  0  0  0  0
   -9.0902    5.3390  -14.2799 O   0  0  0  0  0  0  0  0  0  0  0  0
   -6.7338    4.5658  -14.6093 N   0  0  0  0  0  0  0  0  0  0  0  0
   -6.4052    4.6554  -15.9251 C   0  0  0  0  0  0  0  0  0  0  0  0
   -7.3575    5.0518  -16.9479 C   0  0  0  0  0  0  0  0  0  0  0  0
   -6.8887    5.4865  -18.1347 C   0  0  0  0  0  0  0  0  0  0  0  0
   -5.5112    5.5032  -18.3611 N   0  0  0  0  0  0  0  0  0  0  0  0
   -4.7398    6.1033  -19.3238 C   0  0  0  0  0  0  0  0  0  0  0  0
   -5.2557    7.3087  -20.6757 Br  0  0  0  0  0  0  0  0  0  0  0  0
   -3.4365    5.7730  -19.0469 C   0  0  0  0  0  0  0  0  0  0  0  0
   -3.3526    5.0298  -17.9060 N   0  0  0  0  0  0  0  0  0  0  0  0
   -4.5955    4.9501  -17.4727 C   0  0  0  0  0  0  0  0  0  0  0  0
   -5.0948    4.5214  -16.2200 C   0  0  0  0  0  0  0  0  0  0  0  0
   -8.3702    5.4245  -11.2903 O   0  0  0  0  0  0  0  0  0  0  0  0
   -7.6876    4.9664  -10.0830 C   0  0  0  0  0  0  0  0  0  0  0  0
   -8.6514    4.9287   -8.9075 C   0  0  0  0  0  0  0  0  0  0  0  0
   -6.6758    6.0756   -9.7575 C   0  0  0  0  0  0  0  0  0  0  0  0
  1  2  1  0
  2  3  1  0
  2  4  1  0
  4  5  1  0
  5  6  1  6
  6  7  2  0
  6  8  1  0
  8  9  1  0
  9 10  1  0
 10 11  2  0
 11 12  1  0
 12 13  1  0
 13 14  1  0
 13 15  2  0
 15 16  1  0
 16 17  2  0
 17 18  1  0
  5 19  1  0
 19 20  1  0
 20 21  1  0
 20 22  1  0
 20  2  1  0
 18  9  2  0
 17 12  1  0
M  END
>  <energy_score>  (538) 
-8.606115

>  <alias>  (538) 
None

>  <HIPPO Pose ID>  (538) 
69778

>  <smiles>  (538) 
CC1(C)C[C@@H](C(=O)Nc2ccn3c(Br)cnc3c2)OC1(C)C

>  <inchikey>  (538) 
IXWBVOIMJIJDFW-NSHDSACASA-N

>  <distance_score>  (538) 
1.172221

>  <ref_mols>  (538) 
Z1046b,Z1495a

>  <ref_pdb>  (538) 
Z1495a

>  <HIPPO Compound ID>  (538) 
139175

>  <name>  (538) 
P69778

>  <inspiration_score>  (538) 
None

$$$$
P69780
     RDKit          3D

 22 25  0  0  0  0  0  0  0  0999 V2000
   -9.2562    5.0457  -14.0586 O   0  0  0  0  0  0  0  0  0  0  0  0
   -8.2086    4.7192  -13.6442 C   0  0  0  0  0  0  0  0  0  0  0  0
   -6.8521    4.4725  -14.3925 N   0  0  0  0  0  0  0  0  0  0  0  0
   -6.5178    4.6590  -15.6954 C   0  0  0  0  0  0  0  0  0  0  0  0
   -7.5166    4.8189  -16.7453 C   0  0  0  0  0  0  0  0  0  0  0  0
   -7.1085    5.1381  -17.9906 C   0  0  0  0  0  0  0  0  0  0  0  0
   -5.7472    5.3168  -18.2319 N   0  0  0  0  0  0  0  0  0  0  0  0
   -5.0766    5.7638  -19.3405 C   0  0  0  0  0  0  0  0  0  0  0  0
   -3.7574    5.7756  -18.9734 C   0  0  0  0  0  0  0  0  0  0  0  0
   -2.7605    6.1675  -19.7633 O   0  0  0  0  0  0  0  0  0  0  0  0
   -3.5578    5.3719  -17.7025 N   0  0  0  0  0  0  0  0  0  0  0  0
   -4.7701    5.1130  -17.2650 C   0  0  0  0  0  0  0  0  0  0  0  0
   -5.2024    4.7446  -15.9741 C   0  0  0  0  0  0  0  0  0  0  0  0
   -7.8673    4.5417  -12.1486 C   0  0  1  0  0  0  0  0  0  0  0  0
   -7.8443    5.9384  -11.5241 C   0  0  0  0  0  0  0  0  0  0  0  0
   -7.3394    5.8537  -10.1830 O   0  0  0  0  0  0  0  0  0  0  0  0
   -8.1883    5.0091   -9.3796 C   0  0  0  0  0  0  0  0  0  0  0  0
   -8.3403    3.6078   -9.9964 C   0  0  0  0  0  0  0  0  0  0  0  0
   -7.1401    2.6550   -9.7240 C   0  0  0  0  0  0  0  0  0  0  0  0
   -7.8921    2.1438   -8.4850 C   0  0  0  0  0  0  0  0  0  0  0  0
   -9.1850    2.6172   -9.1431 C   0  0  0  0  0  0  0  0  0  0  0  0
   -8.7332    3.7145  -11.3952 O   0  0  0  0  0  0  0  0  0  0  0  0
  1  2  2  0
  2  3  1  0
  3  4  1  0
  4  5  1  0
  5  6  2  0
  6  7  1  0
  7  8  1  0
  8  9  2  0
  9 10  1  0
  9 11  1  0
 11 12  2  0
 12 13  1  0
 14  2  1  6
 14 15  1  0
 15 16  1  0
 16 17  1  0
 17 18  1  0
 18 19  1  0
 19 20  1  0
 20 21  1  0
 18 22  1  0
 13  4  2  0
 22 14  1  0
 12  7  1  0
 21 18  1  0
M  END
>  <energy_score>  (539) 
-44.158429

>  <alias>  (539) 
None

>  <HIPPO Pose ID>  (539) 
69780

>  <smiles>  (539) 
O=C(Nc1ccn2cc(O)nc2c1)[C@H]1COCC2(CCC2)O1

>  <inchikey>  (539) 
HBRWYBLGNYIQIJ-LLVKDONJSA-N

>  <distance_score>  (539) 
1.173194

>  <ref_mols>  (539) 
Z1046b,Z1495a

>  <ref_pdb>  (539) 
Z1495a

>  <HIPPO Compound ID>  (539) 
139176

>  <name>  (539) 
P69780

>  <inspiration_score>  (539) 
None

$$$$
P69782
     RDKit          3D

 22 25  0  0  0  0  0  0  0  0999 V2000
   -8.9504    5.3242  -14.0340 O   0  0  0  0  0  0  0  0  0  0  0  0
   -7.9647    4.8305  -13.6314 C   0  0  0  0  0  0  0  0  0  0  0  0
   -6.6582    4.3993  -14.3917 N   0  0  0  0  0  0  0  0  0  0  0  0
   -6.2950    4.5695  -15.7005 C   0  0  0  0  0  0  0  0  0  0  0  0
   -4.8342    4.5489  -15.8668 C   0  0  0  0  0  0  0  0  0  0  0  0
   -4.2793    4.9582  -17.0147 C   0  0  0  0  0  0  0  0  0  0  0  0
   -5.1048    5.4425  -18.0087 N   0  0  0  0  0  0  0  0  0  0  0  0
   -4.7460    6.0738  -19.1677 C   0  0  0  0  0  0  0  0  0  0  0  0
   -5.9214    6.5648  -19.6708 C   0  0  0  0  0  0  0  0  0  0  0  0
   -6.9750    6.2481  -18.8530 N   0  0  0  0  0  0  0  0  0  0  0  0
   -6.4891    5.4617  -17.9151 C   0  0  0  0  0  0  0  0  0  0  0  0
   -7.0889    4.8349  -16.7683 C   0  0  0  0  0  0  0  0  0  0  0  0
   -8.8846    4.3417  -16.9368 Br  0  0  0  0  0  0  0  0  0  0  0  0
   -7.6871    4.5768  -12.1361 C   0  0  1  0  0  0  0  0  0  0  0  0
   -7.7338    5.9568  -11.4672 C   0  0  0  0  0  0  0  0  0  0  0  0
   -7.2972    5.8425  -10.1059 O   0  0  0  0  0  0  0  0  0  0  0  0
   -8.1852    4.9740   -9.3784 C   0  0  0  0  0  0  0  0  0  0  0  0
   -8.2775    3.5851  -10.0334 C   0  0  0  0  0  0  0  0  0  0  0  0
   -7.0945    2.6323   -9.6974 C   0  0  0  0  0  0  0  0  0  0  0  0
   -7.9192    2.1045   -8.5130 C   0  0  0  0  0  0  0  0  0  0  0  0
   -9.1716    2.5885   -9.2422 C   0  0  0  0  0  0  0  0  0  0  0  0
   -8.5738    3.7067  -11.4568 O   0  0  0  0  0  0  0  0  0  0  0  0
  1  2  2  0
  2  3  1  0
  3  4  1  0
  4  5  1  0
  5  6  2  0
  6  7  1  0
  7  8  1  0
  8  9  2  0
  9 10  1  0
 10 11  2  0
 11 12  1  0
 12 13  1  0
 14  2  1  6
 14 15  1  0
 15 16  1  0
 16 17  1  0
 17 18  1  0
 18 19  1  0
 19 20  1  0
 20 21  1  0
 18 22  1  0
 12  4  2  0
 22 14  1  0
 11  7  1  0
 21 18  1  0
M  END
>  <energy_score>  (540) 
-12.909376

>  <alias>  (540) 
None

>  <HIPPO Pose ID>  (540) 
69782

>  <smiles>  (540) 
O=C(Nc1ccn2ccnc2c1Br)[C@H]1COCC2(CCC2)O1

>  <inchikey>  (540) 
CANCTMKTUSHXKC-LLVKDONJSA-N

>  <distance_score>  (540) 
1.250385

>  <ref_mols>  (540) 
Z1046b,Z1495a

>  <ref_pdb>  (540) 
Z1495a

>  <HIPPO Compound ID>  (540) 
139178

>  <name>  (540) 
P69782

>  <inspiration_score>  (540) 
None

$$$$
P69789
     RDKit          3D

 22 25  0  0  0  0  0  0  0  0999 V2000
   -8.8599    5.2756  -13.9875 O   0  0  0  0  0  0  0  0  0  0  0  0
   -7.8560    4.8083  -13.5991 C   0  0  0  0  0  0  0  0  0  0  0  0
   -6.5503    4.4110  -14.3780 N   0  0  0  0  0  0  0  0  0  0  0  0
   -6.2105    4.5898  -15.6933 C   0  0  0  0  0  0  0  0  0  0  0  0
   -4.7518    4.5972  -15.8824 C   0  0  0  0  0  0  0  0  0  0  0  0
   -4.2218    5.0065  -17.0414 C   0  0  0  0  0  0  0  0  0  0  0  0
   -5.0711    5.4674  -18.0255 N   0  0  0  0  0  0  0  0  0  0  0  0
   -4.7399    6.0987  -19.1922 C   0  0  0  0  0  0  0  0  0  0  0  0
   -5.9309    6.5656  -19.6804 C   0  0  0  0  0  0  0  0  0  0  0  0
   -6.9676    6.2309  -18.8481 N   0  0  0  0  0  0  0  0  0  0  0  0
   -6.4539    5.4598  -17.9121 C   0  0  0  0  0  0  0  0  0  0  0  0
   -7.0258    4.8275  -16.7528 C   0  0  0  0  0  0  0  0  0  0  0  0
   -8.8229    4.3301  -16.8906 Br  0  0  0  0  0  0  0  0  0  0  0  0
   -7.5466    4.5610  -12.0990 C   0  0  1  0  0  0  0  0  0  0  0  0
   -7.4636    5.9593  -11.4662 C   0  0  0  0  0  0  0  0  0  0  0  0
   -7.1763    5.8627   -9.9763 C   0  0  0  0  0  0  0  0  0  0  0  0
   -8.2011    4.9663   -9.2993 C   0  0  0  0  0  0  0  0  0  0  0  0
   -8.2572    3.6002   -9.9885 C   0  0  0  0  0  0  0  0  0  0  0  0
   -9.2150    2.5932   -9.2997 C   0  0  0  0  0  0  0  0  0  0  0  0
   -8.0300    2.0740   -8.4840 C   0  0  0  0  0  0  0  0  0  0  0  0
   -7.1170    2.6104   -9.5926 C   0  0  0  0  0  0  0  0  0  0  0  0
   -8.4949    3.7732  -11.4119 O   0  0  0  0  0  0  0  0  0  0  0  0
  1  2  2  0
  2  3  1  0
  3  4  1  0
  4  5  1  0
  5  6  2  0
  6  7  1  0
  7  8  1  0
  8  9  2  0
  9 10  1  0
 10 11  2  0
 11 12  1  0
 12 13  1  0
 14  2  1  6
 14 15  1  0
 15 16  1  0
 16 17  1  0
 17 18  1  0
 18 19  1  0
 19 20  1  0
 20 21  1  0
 18 22  1  0
 12  4  2  0
 22 14  1  0
 11  7  1  0
 21 18  1  0
M  END
>  <energy_score>  (541) 
-16.664707

>  <alias>  (541) 
None

>  <HIPPO Pose ID>  (541) 
69789

>  <smiles>  (541) 
O=C(Nc1ccn2ccnc2c1Br)[C@H]1CCCC2(CCC2)O1

>  <inchikey>  (541) 
NTNROSDZLWWFPA-GFCCVEGCSA-N

>  <distance_score>  (541) 
1.325499

>  <ref_mols>  (541) 
Z1046b,Z1495a

>  <ref_pdb>  (541) 
Z1495a

>  <HIPPO Compound ID>  (541) 
139184

>  <name>  (541) 
P69789

>  <inspiration_score>  (541) 
None

$$$$
P69794
     RDKit          3D

 22 25  0  0  0  0  0  0  0  0999 V2000
   -9.3159    5.6493  -14.1368 O   0  0  0  0  0  0  0  0  0  0  0  0
   -8.3236    5.3159  -13.6131 C   0  0  0  0  0  0  0  0  0  0  0  0
   -6.9169    5.0355  -14.2077 N   0  0  0  0  0  0  0  0  0  0  0  0
   -6.4946    5.0164  -15.4928 C   0  0  0  0  0  0  0  0  0  0  0  0
   -7.5253    4.6576  -16.4421 C   0  0  0  0  0  0  0  0  0  0  0  0
   -7.3240    4.8070  -17.7551 C   0  0  0  0  0  0  0  0  0  0  0  0
   -8.6956    4.3065  -18.8849 Br  0  0  0  0  0  0  0  0  0  0  0  0
   -6.0969    5.3272  -18.1735 N   0  0  0  0  0  0  0  0  0  0  0  0
   -5.6648    5.7827  -19.3892 C   0  0  0  0  0  0  0  0  0  0  0  0
   -4.3759    6.2090  -19.2283 C   0  0  0  0  0  0  0  0  0  0  0  0
   -3.9824    6.0592  -17.9297 N   0  0  0  0  0  0  0  0  0  0  0  0
   -5.0302    5.5617  -17.2975 C   0  0  0  0  0  0  0  0  0  0  0  0
   -5.2563    5.3427  -15.9017 C   0  0  0  0  0  0  0  0  0  0  0  0
   -8.2802    5.0012  -12.1370 C   0  0  2  0  0  0  0  0  0  0  0  0
   -8.2070    6.2439  -11.2813 C   0  0  0  0  0  0  0  0  0  0  0  0
   -7.9775    5.6591   -9.8994 C   0  0  0  0  0  0  0  0  0  0  0  0
   -7.6263    4.1836  -10.1818 C   0  0  1  0  0  0  0  0  0  0  0  0
   -6.5990    3.6430   -9.2245 C   0  0  0  0  0  0  0  0  0  0  0  0
   -7.4534    3.1618   -8.0468 C   0  0  0  0  0  0  0  0  0  0  0  0
   -8.8237    3.2245   -8.4380 O   0  0  0  0  0  0  0  0  0  0  0  0
   -8.7637    3.2187   -9.8568 C   0  0  0  0  0  0  0  0  0  0  0  0
   -7.2831    4.1547  -11.5751 O   0  0  0  0  0  0  0  0  0  0  0  0
  1  2  2  0
  2  3  1  0
  3  4  1  0
  4  5  1  0
  5  6  2  0
  6  7  1  0
  6  8  1  0
  8  9  1  0
  9 10  2  0
 10 11  1  0
 11 12  2  0
 12 13  1  0
 14  2  1  6
 14 15  1  0
 15 16  1  0
 17 16  1  1
 17 18  1  0
 18 19  1  0
 19 20  1  0
 20 21  1  0
 17 22  1  0
 13  4  2  0
 22 14  1  0
 12  8  1  0
 21 17  1  0
M  END
>  <energy_score>  (542) 
-9.011436

>  <alias>  (542) 
None

>  <HIPPO Pose ID>  (542) 
69794

>  <smiles>  (542) 
O=C(Nc1cc(Br)n2ccnc2c1)[C@@H]1CC[C@]2(CCOC2)O1

>  <inchikey>  (542) 
IBZRMRZSTWDMGN-XHDPSFHLSA-N

>  <distance_score>  (542) 
1.155652

>  <ref_mols>  (542) 
Z1046b,Z1495a

>  <ref_pdb>  (542) 
Z1495a

>  <HIPPO Compound ID>  (542) 
139188

>  <name>  (542) 
P69794

>  <inspiration_score>  (542) 
None

$$$$
P69796
     RDKit          3D

 22 25  0  0  0  0  0  0  0  0999 V2000
   -9.0875    4.9907  -14.1377 O   0  0  0  0  0  0  0  0  0  0  0  0
   -8.0667    4.5483  -13.7669 C   0  0  0  0  0  0  0  0  0  0  0  0
   -6.7429    4.2372  -14.5597 N   0  0  0  0  0  0  0  0  0  0  0  0
   -6.4130    4.4829  -15.8505 C   0  0  0  0  0  0  0  0  0  0  0  0
   -7.3729    4.9450  -16.8390 C   0  0  0  0  0  0  0  0  0  0  0  0
   -6.9125    5.4167  -18.0147 C   0  0  0  0  0  0  0  0  0  0  0  0
   -5.5368    5.4290  -18.2502 N   0  0  0  0  0  0  0  0  0  0  0  0
   -4.7745    6.0370  -19.2108 C   0  0  0  0  0  0  0  0  0  0  0  0
   -5.2913    7.2689  -20.5390 Br  0  0  0  0  0  0  0  0  0  0  0  0
   -3.4716    5.6896  -18.9547 C   0  0  0  0  0  0  0  0  0  0  0  0
   -3.3745    4.9372  -17.8244 N   0  0  0  0  0  0  0  0  0  0  0  0
   -4.6124    4.8567  -17.3815 C   0  0  0  0  0  0  0  0  0  0  0  0
   -5.1016    4.3785  -16.1480 C   0  0  0  0  0  0  0  0  0  0  0  0
   -7.6584    4.2173  -12.3074 C   0  0  1  0  0  0  0  0  0  0  0  0
   -6.7450    5.3503  -11.8433 C   0  0  0  0  0  0  0  0  0  0  0  0
   -6.5652    5.0684  -10.3750 C   0  0  0  0  0  0  0  0  0  0  0  0
   -7.7279    4.1431  -10.0353 C   0  0  2  0  0  0  0  0  0  0  0  0
   -8.5093    4.6274   -8.8453 C   0  0  0  0  0  0  0  0  0  0  0  0
   -9.1246    3.3482   -8.3400 C   0  0  0  0  0  0  0  0  0  0  0  0
   -8.0894    2.3798   -8.4493 O   0  0  0  0  0  0  0  0  0  0  0  0
   -7.3167    2.7215   -9.6118 C   0  0  0  0  0  0  0  0  0  0  0  0
   -8.5555    4.1054  -11.2244 O   0  0  0  0  0  0  0  0  0  0  0  0
  1  2  2  0
  2  3  1  0
  3  4  1  0
  4  5  1  0
  5  6  2  0
  6  7  1  0
  7  8  1  0
  8  9  1  0
  8 10  2  0
 10 11  1  0
 11 12  2  0
 12 13  1  0
 14  2  1  6
 14 15  1  0
 15 16  1  0
 17 16  1  6
 17 18  1  0
 18 19  1  0
 19 20  1  0
 20 21  1  0
 17 22  1  0
 13  4  2  0
 22 14  1  0
 12  7  1  0
 21 17  1  0
M  END
>  <energy_score>  (543) 
-7.10852

>  <alias>  (543) 
None

>  <HIPPO Pose ID>  (543) 
69796

>  <smiles>  (543) 
O=C(Nc1ccn2c(Br)cnc2c1)[C@H]1CC[C@@]2(CCOC2)O1

>  <inchikey>  (543) 
JEMDZPAIAUQBAW-ABAIWWIYSA-N

>  <distance_score>  (543) 
1.284859

>  <ref_mols>  (543) 
Z1046b,Z1495a

>  <ref_pdb>  (543) 
Z1495a

>  <HIPPO Compound ID>  (543) 
139189

>  <name>  (543) 
P69796

>  <inspiration_score>  (543) 
None

$$$$
P69800
     RDKit          3D

 22 25  0  0  0  0  0  0  0  0999 V2000
   -9.4202    5.2299  -14.5826 O   0  0  0  0  0  0  0  0  0  0  0  0
   -8.4638    4.8877  -14.0068 C   0  0  0  0  0  0  0  0  0  0  0  0
   -7.0216    4.6503  -14.5111 N   0  0  0  0  0  0  0  0  0  0  0  0
   -6.5089    4.6904  -15.7678 C   0  0  0  0  0  0  0  0  0  0  0  0
   -7.4047    4.7799  -16.9199 C   0  0  0  0  0  0  0  0  0  0  0  0
   -6.8924    5.0608  -18.1310 C   0  0  0  0  0  0  0  0  0  0  0  0
   -5.5213    5.2486  -18.2490 N   0  0  0  0  0  0  0  0  0  0  0  0
   -4.7684    5.6788  -19.3088 C   0  0  0  0  0  0  0  0  0  0  0  0
   -3.4867    5.7160  -18.8332 C   0  0  0  0  0  0  0  0  0  0  0  0
   -2.4403    6.1176  -19.5498 O   0  0  0  0  0  0  0  0  0  0  0  0
   -3.3884    5.3383  -17.5406 N   0  0  0  0  0  0  0  0  0  0  0  0
   -4.6309    5.0800  -17.1921 C   0  0  0  0  0  0  0  0  0  0  0  0
   -5.1739    4.7635  -15.9228 C   0  0  0  0  0  0  0  0  0  0  0  0
   -8.4370    4.6918  -12.4955 C   0  0  2  0  0  0  0  0  0  0  0  0
   -8.4646    6.0765  -11.8727 C   0  0  0  0  0  0  0  0  0  0  0  0
   -8.2457    5.7771  -10.4145 C   0  0  0  0  0  0  0  0  0  0  0  0
   -7.5871    4.3845  -10.4374 C   0  0  1  0  0  0  0  0  0  0  0  0
   -6.3755    4.3672   -9.5423 C   0  0  0  0  0  0  0  0  0  0  0  0
   -7.0411    4.3226   -8.1766 C   0  0  0  0  0  0  0  0  0  0  0  0
   -8.2460    3.5564   -8.3216 O   0  0  0  0  0  0  0  0  0  0  0  0
   -8.4162    3.3071   -9.7274 C   0  0  0  0  0  0  0  0  0  0  0  0
   -7.3353    4.0871  -11.8216 O   0  0  0  0  0  0  0  0  0  0  0  0
  1  2  2  0
  2  3  1  0
  3  4  1  0
  4  5  1  0
  5  6  2  0
  6  7  1  0
  7  8  1  0
  8  9  2  0
  9 10  1  0
  9 11  1  0
 11 12  2  0
 12 13  1  0
 14  2  1  6
 14 15  1  0
 15 16  1  0
 17 16  1  6
 17 18  1  0
 18 19  1  0
 19 20  1  0
 20 21  1  0
 17 22  1  0
 13  4  2  0
 22 14  1  0
 12  7  1  0
 21 17  1  0
M  END
>  <energy_score>  (544) 
-49.456536

>  <alias>  (544) 
None

>  <HIPPO Pose ID>  (544) 
69800

>  <smiles>  (544) 
O=C(Nc1ccn2cc(O)nc2c1)[C@@H]1CC[C@]2(CCOC2)O1

>  <inchikey>  (544) 
GGBFLMCOBNLXPE-XHDPSFHLSA-N

>  <distance_score>  (544) 
1.170304

>  <ref_mols>  (544) 
Z1046b,Z1495a

>  <ref_pdb>  (544) 
Z1495a

>  <HIPPO Compound ID>  (544) 
139191

>  <name>  (544) 
P69800

>  <inspiration_score>  (544) 
None

$$$$
P69803
     RDKit          3D

 22 24  0  0  0  0  0  0  0  0999 V2000
   -9.2190    2.4350   -9.1390 C   0  0  0  0  0  0  0  0  0  0  0  0
   -8.2597    3.5958   -9.4356 C   0  0  0  0  0  0  0  0  0  0  0  0
   -8.3223    4.5667   -8.2486 C   0  0  0  0  0  0  0  0  0  0  0  0
   -6.8275    3.0476   -9.4943 C   0  0  0  0  0  0  0  0  0  0  0  0
   -6.4613    2.3912  -10.7986 C   0  0  0  0  0  0  0  0  0  0  0  0
   -7.2930    2.9051  -11.9434 C   0  0  0  0  0  0  0  0  0  0  0  0
   -7.7932    4.3548  -11.7483 C   0  0  1  0  0  0  0  0  0  0  0  0
   -6.7640    5.4543  -11.3704 C   0  0  0  0  0  0  0  0  0  0  0  0
   -8.2543    4.7691  -13.2494 C   0  0  0  0  0  0  0  0  0  0  0  0
   -9.3469    5.0289  -13.5952 O   0  0  0  0  0  0  0  0  0  0  0  0
   -6.8968    4.7577  -14.0655 N   0  0  0  0  0  0  0  0  0  0  0  0
   -6.6622    4.9573  -15.3895 C   0  0  0  0  0  0  0  0  0  0  0  0
   -7.6881    4.9298  -16.4238 C   0  0  0  0  0  0  0  0  0  0  0  0
   -7.3214    5.1281  -17.7103 C   0  0  0  0  0  0  0  0  0  0  0  0
   -5.9798    5.3783  -18.0061 N   0  0  0  0  0  0  0  0  0  0  0  0
   -5.3511    5.6981  -19.1791 C   0  0  0  0  0  0  0  0  0  0  0  0
   -4.0296    5.8479  -18.8538 C   0  0  0  0  0  0  0  0  0  0  0  0
   -3.0616    6.1539  -19.7165 O   0  0  0  0  0  0  0  0  0  0  0  0
   -3.7975    5.6860  -17.5376 N   0  0  0  0  0  0  0  0  0  0  0  0
   -4.9806    5.3931  -17.0450 C   0  0  0  0  0  0  0  0  0  0  0  0
   -5.3655    5.1406  -15.7147 C   0  0  0  0  0  0  0  0  0  0  0  0
   -8.7008    4.3046  -10.6390 O   0  0  0  0  0  0  0  0  0  0  0  0
  1  2  1  0
  2  3  1  0
  2  4  1  0
  4  5  1  0
  5  6  1  0
  6  7  1  0
  7  8  1  1
  7  9  1  0
  9 10  2  0
  9 11  1  0
 11 12  1  0
 12 13  1  0
 13 14  2  0
 14 15  1  0
 15 16  1  0
 16 17  2  0
 17 18  1  0
 17 19  1  0
 19 20  2  0
 20 21  1  0
  7 22  1  0
 22  2  1  0
 21 12  2  0
 20 15  1  0
M  END
>  <energy_score>  (545) 
-44.639855

>  <alias>  (545) 
None

>  <HIPPO Pose ID>  (545) 
69803

>  <smiles>  (545) 
CC1(C)CCC[C@@](C)(C(=O)Nc2ccn3cc(O)nc3c2)O1

>  <inchikey>  (545) 
FGANKSPXNFRKSK-INIZCTEOSA-N

>  <distance_score>  (545) 
1.54055

>  <ref_mols>  (545) 
Z1046b,Z1495a

>  <ref_pdb>  (545) 
Z1495a

>  <HIPPO Compound ID>  (545) 
139192

>  <name>  (545) 
P69803

>  <inspiration_score>  (545) 
None

$$$$
P69805
     RDKit          3D

 22 24  0  0  0  0  0  0  0  0999 V2000
   -7.8490    2.2337   -9.4088 C   0  0  0  0  0  0  0  0  0  0  0  0
   -7.4839    3.6935   -9.7072 C   0  0  0  0  0  0  0  0  0  0  0  0
   -6.1814    3.9933   -8.9795 C   0  0  0  0  0  0  0  0  0  0  0  0
   -8.5992    4.5435   -9.1272 C   0  0  0  0  0  0  0  0  0  0  0  0
   -8.4673    5.9821   -9.5644 C   0  0  0  0  0  0  0  0  0  0  0  0
   -8.4660    6.0346  -11.0720 C   0  0  0  0  0  0  0  0  0  0  0  0
   -7.3949    5.1640  -11.7184 C   0  0  2  0  0  0  0  0  0  0  0  0
   -6.0576    5.9098  -11.5740 C   0  0  0  0  0  0  0  0  0  0  0  0
   -7.7228    5.1982  -13.2825 C   0  0  0  0  0  0  0  0  0  0  0  0
   -8.6829    5.7167  -13.7129 O   0  0  0  0  0  0  0  0  0  0  0  0
   -6.5115    4.5364  -14.0199 N   0  0  0  0  0  0  0  0  0  0  0  0
   -6.2108    4.4700  -15.3596 C   0  0  0  0  0  0  0  0  0  0  0  0
   -4.7611    4.4022  -15.5900 C   0  0  0  0  0  0  0  0  0  0  0  0
   -4.2493    4.7659  -16.7739 C   0  0  0  0  0  0  0  0  0  0  0  0
   -5.1096    5.2027  -17.7620 N   0  0  0  0  0  0  0  0  0  0  0  0
   -4.7921    5.7847  -18.9579 C   0  0  0  0  0  0  0  0  0  0  0  0
   -5.9925    6.2013  -19.4692 C   0  0  0  0  0  0  0  0  0  0  0  0
   -7.0268    5.8746  -18.6317 N   0  0  0  0  0  0  0  0  0  0  0  0
   -6.4906    5.2044  -17.6322 C   0  0  0  0  0  0  0  0  0  0  0  0
   -7.0466    4.6836  -16.4111 C   0  0  0  0  0  0  0  0  0  0  0  0
   -8.8793    4.3290  -16.4512 Br  0  0  0  0  0  0  0  0  0  0  0  0
   -7.3458    3.8546  -11.1446 O   0  0  0  0  0  0  0  0  0  0  0  0
  1  2  1  0
  2  3  1  0
  2  4  1  0
  4  5  1  0
  5  6  1  0
  6  7  1  0
  7  8  1  6
  7  9  1  0
  9 10  2  0
  9 11  1  0
 11 12  1  0
 12 13  1  0
 13 14  2  0
 14 15  1  0
 15 16  1  0
 16 17  2  0
 17 18  1  0
 18 19  2  0
 19 20  1  0
 20 21  1  0
  7 22  1  0
 22  2  1  0
 20 12  2  0
 19 15  1  0
M  END
>  <energy_score>  (546) 
-24.31698

>  <alias>  (546) 
None

>  <HIPPO Pose ID>  (546) 
69805

>  <smiles>  (546) 
CC1(C)CCC[C@](C)(C(=O)Nc2ccn3ccnc3c2Br)O1

>  <inchikey>  (546) 
OXGVVURUPKVNBN-MRXNPFEDSA-N

>  <distance_score>  (546) 
1.799372

>  <ref_mols>  (546) 
Z1046b,Z1495a

>  <ref_pdb>  (546) 
Z1495a

>  <HIPPO Compound ID>  (546) 
139194

>  <name>  (546) 
P69805

>  <inspiration_score>  (546) 
None

$$$$
P69807
     RDKit          3D

 22 24  0  0  0  0  0  0  0  0999 V2000
   -9.2861    2.4110   -9.0523 C   0  0  0  0  0  0  0  0  0  0  0  0
   -8.1569    3.3703   -9.4501 C   0  0  0  0  0  0  0  0  0  0  0  0
   -7.9658    4.3353   -8.2761 C   0  0  0  0  0  0  0  0  0  0  0  0
   -6.9446    2.4913   -9.7177 C   0  0  0  0  0  0  0  0  0  0  0  0
   -5.7981    3.3131  -10.2326 C   0  0  0  0  0  0  0  0  0  0  0  0
   -6.2175    3.9872  -11.5152 C   0  0  0  0  0  0  0  0  0  0  0  0
   -7.5516    4.7624  -11.4535 C   0  0  1  0  0  0  0  0  0  0  0  0
   -7.3991    6.2045  -10.9600 C   0  0  0  0  0  0  0  0  0  0  0  0
   -8.0946    4.8815  -12.9529 C   0  0  0  0  0  0  0  0  0  0  0  0
   -9.1957    4.5986  -13.2409 O   0  0  0  0  0  0  0  0  0  0  0  0
   -6.8835    5.3148  -13.8608 N   0  0  0  0  0  0  0  0  0  0  0  0
   -6.7769    5.3853  -15.2159 C   0  0  0  0  0  0  0  0  0  0  0  0
   -7.8426    4.8297  -16.0337 C   0  0  0  0  0  0  0  0  0  0  0  0
   -7.7079    4.7811  -17.3697 C   0  0  0  0  0  0  0  0  0  0  0  0
   -9.0948    4.1259  -18.4178 Br  0  0  0  0  0  0  0  0  0  0  0  0
   -6.5394    5.2952  -17.9350 N   0  0  0  0  0  0  0  0  0  0  0  0
   -6.1304    5.3685  -19.2314 C   0  0  0  0  0  0  0  0  0  0  0  0
   -4.9723    6.0957  -19.2529 C   0  0  0  0  0  0  0  0  0  0  0  0
   -4.5871    6.4090  -17.9794 N   0  0  0  0  0  0  0  0  0  0  0  0
   -5.5220    5.8939  -17.2007 C   0  0  0  0  0  0  0  0  0  0  0  0
   -5.6593    5.8836  -15.7860 C   0  0  0  0  0  0  0  0  0  0  0  0
   -8.5357    4.0895  -10.6411 O   0  0  0  0  0  0  0  0  0  0  0  0
  1  2  1  0
  2  3  1  0
  2  4  1  0
  4  5  1  0
  5  6  1  0
  6  7  1  0
  7  8  1  1
  7  9  1  0
  9 10  2  0
  9 11  1  0
 11 12  1  0
 12 13  1  0
 13 14  2  0
 14 15  1  0
 14 16  1  0
 16 17  1  0
 17 18  2  0
 18 19  1  0
 19 20  2  0
 20 21  1  0
  7 22  1  0
 22  2  1  0
 21 12  2  0
 20 16  1  0
M  END
>  <energy_score>  (547) 
-33.885612

>  <alias>  (547) 
None

>  <HIPPO Pose ID>  (547) 
69807

>  <smiles>  (547) 
CC1(C)CCC[C@@](C)(C(=O)Nc2cc(Br)n3ccnc3c2)O1

>  <inchikey>  (547) 
LRBYZNNRMKFBBR-INIZCTEOSA-N

>  <distance_score>  (547) 
1.60592

>  <ref_mols>  (547) 
Z1046b,Z1495a

>  <ref_pdb>  (547) 
Z1495a

>  <HIPPO Compound ID>  (547) 
139195

>  <name>  (547) 
P69807

>  <inspiration_score>  (547) 
None

$$$$
P69817
     RDKit          3D

 22 24  0  0  0  0  0  0  0  0999 V2000
   -9.3627    2.3416   -9.1083 C   0  0  0  0  0  0  0  0  0  0  0  0
   -8.2713    3.2990   -9.5844 C   0  0  0  0  0  0  0  0  0  0  0  0
   -8.1381    4.4103   -8.5348 C   0  0  0  0  0  0  0  0  0  0  0  0
   -6.9993    2.4689   -9.6815 C   0  0  0  0  0  0  0  0  0  0  0  0
   -5.9520    3.3111  -10.1404 O   0  0  0  0  0  0  0  0  0  0  0  0
   -6.2381    3.6898  -11.4761 C   0  0  0  0  0  0  0  0  0  0  0  0
   -7.5661    4.4510  -11.6799 C   0  0  1  0  0  0  0  0  0  0  0  0
   -7.4254    5.9299  -11.2637 C   0  0  0  0  0  0  0  0  0  0  0  0
   -7.9352    4.5874  -13.2652 C   0  0  0  0  0  0  0  0  0  0  0  0
   -9.0330    4.8179  -13.6229 O   0  0  0  0  0  0  0  0  0  0  0  0
   -6.5909    4.4639  -14.0956 N   0  0  0  0  0  0  0  0  0  0  0  0
   -6.3433    4.6827  -15.4306 C   0  0  0  0  0  0  0  0  0  0  0  0
   -4.8786    4.7444  -15.6411 C   0  0  0  0  0  0  0  0  0  0  0  0
   -4.3607    5.0969  -16.8212 C   0  0  0  0  0  0  0  0  0  0  0  0
   -5.2243    5.4653  -17.8243 N   0  0  0  0  0  0  0  0  0  0  0  0
   -4.9087    6.0415  -19.0205 C   0  0  0  0  0  0  0  0  0  0  0  0
   -6.1119    6.4478  -19.5269 C   0  0  0  0  0  0  0  0  0  0  0  0
   -7.1442    6.1017  -18.6911 N   0  0  0  0  0  0  0  0  0  0  0  0
   -6.6058    5.4174  -17.7029 C   0  0  0  0  0  0  0  0  0  0  0  0
   -7.1628    4.8356  -16.5020 C   0  0  0  0  0  0  0  0  0  0  0  0
   -8.9483    4.3183  -16.6263 Br  0  0  0  0  0  0  0  0  0  0  0  0
   -8.6200    3.8438  -10.8923 O   0  0  0  0  0  0  0  0  0  0  0  0
  1  2  1  0
  2  3  1  0
  2  4  1  0
  4  5  1  0
  5  6  1  0
  6  7  1  0
  7  8  1  1
  7  9  1  0
  9 10  2  0
  9 11  1  0
 11 12  1  0
 12 13  1  0
 13 14  2  0
 14 15  1  0
 15 16  1  0
 16 17  2  0
 17 18  1  0
 18 19  2  0
 19 20  1  0
 20 21  1  0
  7 22  1  0
 22  2  1  0
 20 12  2  0
 19 15  1  0
M  END
>  <energy_score>  (548) 
-12.103677

>  <alias>  (548) 
None

>  <HIPPO Pose ID>  (548) 
69817

>  <smiles>  (548) 
CC1(C)COC[C@@](C)(C(=O)Nc2ccn3ccnc3c2Br)O1

>  <inchikey>  (548) 
UJSHMWCUGNVYBU-HNNXBMFYSA-N

>  <distance_score>  (548) 
1.440833

>  <ref_mols>  (548) 
Z1046b,Z1495a

>  <ref_pdb>  (548) 
Z1495a

>  <HIPPO Compound ID>  (548) 
139201

>  <name>  (548) 
P69817

>  <inspiration_score>  (548) 
None

$$$$
P69818
     RDKit          3D

 22 25  0  0  0  0  0  0  0  0999 V2000
   -9.0089    5.9582  -14.7003 O   0  0  0  0  0  0  0  0  0  0  0  0
   -8.2551    5.2241  -14.1911 C   0  0  0  0  0  0  0  0  0  0  0  0
   -6.9953    4.5192  -14.7625 N   0  0  0  0  0  0  0  0  0  0  0  0
   -6.3880    4.6405  -15.9761 C   0  0  0  0  0  0  0  0  0  0  0  0
   -4.9283    4.5945  -15.9570 C   0  0  0  0  0  0  0  0  0  0  0  0
   -4.2447    4.9977  -17.0394 C   0  0  0  0  0  0  0  0  0  0  0  0
   -4.9464    5.5046  -18.1221 N   0  0  0  0  0  0  0  0  0  0  0  0
   -4.4578    6.1275  -19.2411 C   0  0  0  0  0  0  0  0  0  0  0  0
   -5.5616    6.6654  -19.8532 C   0  0  0  0  0  0  0  0  0  0  0  0
   -6.6937    6.3924  -19.1349 N   0  0  0  0  0  0  0  0  0  0  0  0
   -6.3310    5.5595  -18.1810 C   0  0  0  0  0  0  0  0  0  0  0  0
   -7.0542    4.9239  -17.1234 C   0  0  0  0  0  0  0  0  0  0  0  0
   -8.8263    4.4084  -17.4644 Br  0  0  0  0  0  0  0  0  0  0  0  0
   -8.3456    4.8488  -12.7203 C   0  0  2  0  0  0  0  0  0  0  0  0
   -8.3432    6.1096  -11.8728 C   0  0  0  0  0  0  0  0  0  0  0  0
   -8.0750    5.5910  -10.4778 C   0  0  0  0  0  0  0  0  0  0  0  0
   -7.6040    4.1492  -10.7198 C   0  0  1  0  0  0  0  0  0  0  0  0
   -6.4600    3.7637   -9.8191 C   0  0  0  0  0  0  0  0  0  0  0  0
   -7.1618    3.2137   -8.5808 C   0  0  0  0  0  0  0  0  0  0  0  0
   -8.5606    3.1375   -8.8617 O   0  0  0  0  0  0  0  0  0  0  0  0
   -8.6295    3.1119  -10.2823 C   0  0  0  0  0  0  0  0  0  0  0  0
   -7.3179    4.0572  -12.1243 O   0  0  0  0  0  0  0  0  0  0  0  0
  1  2  2  0
  2  3  1  0
  3  4  1  0
  4  5  1  0
  5  6  2  0
  6  7  1  0
  7  8  1  0
  8  9  2  0
  9 10  1  0
 10 11  2  0
 11 12  1  0
 12 13  1  0
 14  2  1  6
 14 15  1  0
 15 16  1  0
 17 16  1  1
 17 18  1  0
 18 19  1  0
 19 20  1  0
 20 21  1  0
 17 22  1  0
 12  4  2  0
 22 14  1  0
 11  7  1  0
 21 17  1  0
M  END
>  <energy_score>  (549) 
-31.477836

>  <alias>  (549) 
None

>  <HIPPO Pose ID>  (549) 
69818

>  <smiles>  (549) 
O=C(Nc1ccn2ccnc2c1Br)[C@@H]1CC[C@]2(CCOC2)O1

>  <inchikey>  (549) 
YAGXFZXIAYNPDE-XHDPSFHLSA-N

>  <distance_score>  (549) 
1.156749

>  <ref_mols>  (549) 
Z1046b,Z1495a

>  <ref_pdb>  (549) 
Z1495a

>  <HIPPO Compound ID>  (549) 
139203

>  <name>  (549) 
P69818

>  <inspiration_score>  (549) 
None

$$$$
P69822
     RDKit          3D

 22 25  0  0  0  0  0  0  0  0999 V2000
   -7.4734    2.3568   -9.6279 C   0  0  0  0  0  0  0  0  0  0  0  0
   -6.7422    3.6164  -10.0675 C   0  0  0  0  0  0  0  0  0  0  0  0
   -5.2933    3.6239   -9.5918 C   0  0  0  0  0  0  0  0  0  0  0  0
   -6.7649    3.7198  -11.5012 O   0  0  0  0  0  0  0  0  0  0  0  0
   -7.5357    4.9464  -11.7088 C   0  0  2  0  0  0  0  0  0  0  0  0
   -7.8619    5.2476  -13.1940 C   0  0  0  0  0  0  0  0  0  0  0  0
   -8.8897    5.6676  -13.5706 O   0  0  0  0  0  0  0  0  0  0  0  0
   -6.6138    4.7811  -13.9897 N   0  0  0  0  0  0  0  0  0  0  0  0
   -6.3525    4.8203  -15.3162 C   0  0  0  0  0  0  0  0  0  0  0  0
   -7.4780    4.6985  -16.2217 C   0  0  0  0  0  0  0  0  0  0  0  0
   -7.2824    4.7771  -17.5479 C   0  0  0  0  0  0  0  0  0  0  0  0
   -8.7123    4.4435  -18.6811 Br  0  0  0  0  0  0  0  0  0  0  0  0
   -5.9893    5.0613  -18.0076 N   0  0  0  0  0  0  0  0  0  0  0  0
   -5.5157    5.4272  -19.2403 C   0  0  0  0  0  0  0  0  0  0  0  0
   -4.1607    5.6011  -19.1084 C   0  0  0  0  0  0  0  0  0  0  0  0
   -3.7626    5.3713  -17.8237 N   0  0  0  0  0  0  0  0  0  0  0  0
   -4.8740    5.1006  -17.1690 C   0  0  0  0  0  0  0  0  0  0  0  0
   -5.0936    4.9158  -15.7786 C   0  0  0  0  0  0  0  0  0  0  0  0
   -6.9522    6.0279  -10.7193 C   0  0  0  0  0  0  0  0  0  0  0  0
   -7.4960    4.9239   -9.7064 C   0  0  2  0  0  0  0  0  0  0  0  0
   -7.7953    5.2021   -8.2631 C   0  0  0  0  0  0  0  0  0  0  0  0
   -8.7025    4.9563  -10.6852 C   0  0  0  0  0  0  0  0  0  0  0  0
  1  2  1  0
  2  3  1  0
  2  4  1  0
  4  5  1  0
  5  6  1  6
  6  7  2  0
  6  8  1  0
  8  9  1  0
  9 10  1  0
 10 11  2  0
 11 12  1  0
 11 13  1  0
 13 14  1  0
 14 15  2  0
 15 16  1  0
 16 17  2  0
 17 18  1  0
  5 19  1  0
 19 20  1  0
 20 21  1  1
 20 22  1  0
 20  2  1  0
 22  5  1  0
 18  9  2  0
 17 13  1  0
M  END
>  <energy_score>  (550) 
-54.86898

>  <alias>  (550) 
None

>  <HIPPO Pose ID>  (550) 
69822

>  <smiles>  (550) 
CC1(C)O[C@]2(C(=O)Nc3cc(Br)n4ccnc4c3)C[C@@]1(C)C2

>  <inchikey>  (550) 
BTAUBVMYMSWESB-IYBDPMFKSA-N

>  <distance_score>  (550) 
1.431055

>  <ref_mols>  (550) 
Z1046b,Z1495a

>  <ref_pdb>  (550) 
Z1495a

>  <HIPPO Compound ID>  (550) 
139204

>  <name>  (550) 
P69822

>  <inspiration_score>  (550) 
None

$$$$
P69827
     RDKit          3D

 22 24  0  0  0  0  0  0  0  0999 V2000
   -7.6551    2.3527   -9.4903 C   0  0  0  0  0  0  0  0  0  0  0  0
   -7.1548    3.5553  -10.3009 C   0  0  0  0  0  0  0  0  0  0  0  0
   -5.6130    3.5243  -10.2524 C   0  0  0  0  0  0  0  0  0  0  0  0
   -7.6375    3.4034  -11.7490 C   0  0  0  0  0  0  0  0  0  0  0  0
   -7.8572    4.8435  -12.1542 C   0  0  1  0  0  0  0  0  0  0  0  0
   -8.2928    4.9680  -13.6383 C   0  0  0  0  0  0  0  0  0  0  0  0
   -9.3375    5.3075  -14.0490 O   0  0  0  0  0  0  0  0  0  0  0  0
   -6.9580    4.6278  -14.4028 N   0  0  0  0  0  0  0  0  0  0  0  0
   -6.6489    4.7261  -15.7187 C   0  0  0  0  0  0  0  0  0  0  0  0
   -7.6437    4.8572  -16.7706 C   0  0  0  0  0  0  0  0  0  0  0  0
   -7.2285    5.1582  -18.0185 C   0  0  0  0  0  0  0  0  0  0  0  0
   -5.8669    5.3506  -18.2532 N   0  0  0  0  0  0  0  0  0  0  0  0
   -5.1928    5.8050  -19.3542 C   0  0  0  0  0  0  0  0  0  0  0  0
   -3.8770    5.8467  -18.9797 C   0  0  0  0  0  0  0  0  0  0  0  0
   -2.8787    6.2481  -19.7632 O   0  0  0  0  0  0  0  0  0  0  0  0
   -3.6853    5.4660  -17.7034 N   0  0  0  0  0  0  0  0  0  0  0  0
   -4.8938    5.1672  -17.2815 C   0  0  0  0  0  0  0  0  0  0  0  0
   -5.3311    4.8003  -15.9943 C   0  0  0  0  0  0  0  0  0  0  0  0
   -8.5336    5.3880  -11.0357 O   0  0  0  0  0  0  0  0  0  0  0  0
   -7.7689    4.9374   -9.8767 C   0  0  0  0  0  0  0  0  0  0  0  0
   -8.6559    4.8487   -8.6433 C   0  0  0  0  0  0  0  0  0  0  0  0
   -6.7721    6.0745   -9.5956 C   0  0  0  0  0  0  0  0  0  0  0  0
  1  2  1  0
  2  3  1  0
  2  4  1  0
  4  5  1  0
  5  6  1  6
  6  7  2  0
  6  8  1  0
  8  9  1  0
  9 10  1  0
 10 11  2  0
 11 12  1  0
 12 13  1  0
 13 14  2  0
 14 15  1  0
 14 16  1  0
 16 17  2  0
 17 18  1  0
  5 19  1  0
 19 20  1  0
 20 21  1  0
 20 22  1  0
 20  2  1  0
 18  9  2  0
 17 12  1  0
M  END
>  <energy_score>  (551) 
-34.882306

>  <alias>  (551) 
None

>  <HIPPO Pose ID>  (551) 
69827

>  <smiles>  (551) 
CC1(C)C[C@@H](C(=O)Nc2ccn3cc(O)nc3c2)OC1(C)C

>  <inchikey>  (551) 
SAFUHOFGCOWOEW-NSHDSACASA-N

>  <distance_score>  (551) 
1.284954

>  <ref_mols>  (551) 
Z1046b,Z1495a

>  <ref_pdb>  (551) 
Z1495a

>  <HIPPO Compound ID>  (551) 
139210

>  <name>  (551) 
P69827

>  <inspiration_score>  (551) 
None

$$$$
P69828
     RDKit          3D

 22 25  0  0  0  0  0  0  0  0999 V2000
   -8.0960    5.6359   -8.8333 C   0  0  0  0  0  0  0  0  0  0  0  0
   -8.1078    4.3760   -9.6922 C   0  0  0  0  0  0  0  0  0  0  0  0
   -8.7223    3.2353   -8.8721 C   0  0  0  0  0  0  0  0  0  0  0  0
   -8.8588    4.6081  -10.9215 O   0  0  0  0  0  0  0  0  0  0  0  0
   -7.9670    4.3146  -12.0209 C   0  0  2  0  0  0  0  0  0  0  0  0
   -8.2846    4.7724  -13.4966 C   0  0  0  0  0  0  0  0  0  0  0  0
   -9.2635    5.3315  -13.8270 O   0  0  0  0  0  0  0  0  0  0  0  0
   -7.0044    4.3805  -14.3271 N   0  0  0  0  0  0  0  0  0  0  0  0
   -6.6652    4.6659  -15.6118 C   0  0  0  0  0  0  0  0  0  0  0  0
   -7.6564    4.9093  -16.6504 C   0  0  0  0  0  0  0  0  0  0  0  0
   -7.2358    5.2125  -17.8968 C   0  0  0  0  0  0  0  0  0  0  0  0
   -5.8677    5.3264  -18.1441 N   0  0  0  0  0  0  0  0  0  0  0  0
   -5.1807    5.7384  -19.2572 C   0  0  0  0  0  0  0  0  0  0  0  0
   -3.8620    5.7119  -18.8875 C   0  0  0  0  0  0  0  0  0  0  0  0
   -2.8505    6.0721  -19.6755 O   0  0  0  0  0  0  0  0  0  0  0  0
   -3.6782    5.3023  -17.6151 N   0  0  0  0  0  0  0  0  0  0  0  0
   -4.8991    5.0796  -17.1792 C   0  0  0  0  0  0  0  0  0  0  0  0
   -5.3475    4.6961  -15.8967 C   0  0  0  0  0  0  0  0  0  0  0  0
   -7.7105    2.7919  -11.9651 C   0  0  0  0  0  0  0  0  0  0  0  0
   -6.6666    2.6792  -10.8547 C   0  0  0  0  0  0  0  0  0  0  0  0
   -6.7010    4.0785  -10.2252 C   0  0  1  0  0  0  0  0  0  0  0  0
   -6.6796    4.9446  -11.4743 C   0  0  0  0  0  0  0  0  0  0  0  0
  1  2  1  0
  2  3  1  0
  2  4  1  0
  4  5  1  0
  5  6  1  6
  6  7  2  0
  6  8  1  0
  8  9  1  0
  9 10  1  0
 10 11  2  0
 11 12  1  0
 12 13  1  0
 13 14  2  0
 14 15  1  0
 14 16  1  0
 16 17  2  0
 17 18  1  0
  5 19  1  0
 19 20  1  0
 21 20  1  6
 21 22  1  0
 21  2  1  0
 22  5  1  0
 18  9  2  0
 17 12  1  0
M  END
>  <energy_score>  (552) 
-47.101665

>  <alias>  (552) 
None

>  <HIPPO Pose ID>  (552) 
69828

>  <smiles>  (552) 
CC1(C)O[C@]2(C(=O)Nc3ccn4cc(O)nc4c3)CC[C@H]1C2

>  <inchikey>  (552) 
XEIHKYFYSCCWEH-MGPLVRAMSA-N

>  <distance_score>  (552) 
1.511273

>  <ref_mols>  (552) 
Z1046b,Z1495a

>  <ref_pdb>  (552) 
Z1495a

>  <HIPPO Compound ID>  (552) 
139213

>  <name>  (552) 
P69828

>  <inspiration_score>  (552) 
None

$$$$
P69830
     RDKit          3D

 23 26  0  0  0  0  0  0  0  0999 V2000
   -7.0587    2.1308   -9.9484 C   0  0  0  0  0  0  0  0  0  0  0  0
   -6.3795    3.4540  -10.3116 C   0  0  0  0  0  0  0  0  0  0  0  0
   -4.8584    3.2546  -10.2631 C   0  0  0  0  0  0  0  0  0  0  0  0
   -6.7143    3.7370  -11.6859 O   0  0  0  0  0  0  0  0  0  0  0  0
   -7.5959    4.8623  -11.8254 C   0  0  2  0  0  0  0  0  0  0  0  0
   -8.0427    4.9876  -13.3188 C   0  0  0  0  0  0  0  0  0  0  0  0
   -9.0924    5.3425  -13.7007 O   0  0  0  0  0  0  0  0  0  0  0  0
   -6.7419    4.6334  -14.1133 N   0  0  0  0  0  0  0  0  0  0  0  0
   -6.4640    4.7311  -15.4425 C   0  0  0  0  0  0  0  0  0  0  0  0
   -7.5009    4.9103  -16.4556 C   0  0  0  0  0  0  0  0  0  0  0  0
   -7.1382    5.1535  -17.7329 C   0  0  0  0  0  0  0  0  0  0  0  0
   -5.7829    5.2515  -18.0426 N   0  0  0  0  0  0  0  0  0  0  0  0
   -5.1481    5.6276  -19.1979 C   0  0  0  0  0  0  0  0  0  0  0  0
   -3.8145    5.6101  -18.8875 C   0  0  0  0  0  0  0  0  0  0  0  0
   -2.8402    5.9501  -19.7297 O   0  0  0  0  0  0  0  0  0  0  0  0
   -3.5727    5.2383  -17.6132 N   0  0  0  0  0  0  0  0  0  0  0  0
   -4.7725    5.0348  -17.1132 C   0  0  0  0  0  0  0  0  0  0  0  0
   -5.1616    4.7248  -15.7905 C   0  0  0  0  0  0  0  0  0  0  0  0
   -6.7925    6.1138  -11.4248 C   0  0  0  0  0  0  0  0  0  0  0  0
   -6.3354    5.9718   -9.9673 C   0  0  0  0  0  0  0  0  0  0  0  0
   -6.8256    4.6258   -9.3911 C   0  0  1  0  0  0  0  0  0  0  0  0
   -8.3469    4.6945   -9.4039 C   0  0  0  0  0  0  0  0  0  0  0  0
   -8.7746    4.7256  -10.8677 C   0  0  0  0  0  0  0  0  0  0  0  0
  1  2  1  0
  2  3  1  0
  2  4  1  0
  4  5  1  0
  5  6  1  6
  6  7  2  0
  6  8  1  0
  8  9  1  0
  9 10  1  0
 10 11  2  0
 11 12  1  0
 12 13  1  0
 13 14  2  0
 14 15  1  0
 14 16  1  0
 16 17  2  0
 17 18  1  0
  5 19  1  0
 19 20  1  0
 21 20  1  6
 21 22  1  0
 22 23  1  0
 21  2  1  0
 23  5  1  0
 18  9  2  0
 17 12  1  0
M  END
>  <energy_score>  (553) 
-69.397807

>  <alias>  (553) 
None

>  <HIPPO Pose ID>  (553) 
69830

>  <smiles>  (553) 
CC1(C)O[C@]2(C(=O)Nc3ccn4cc(O)nc4c3)CC[C@H]1CC2

>  <inchikey>  (553) 
YTBQWDADHWQMKC-OYHSWFHJSA-N

>  <distance_score>  (553) 
1.612698

>  <ref_mols>  (553) 
Z1046b,Z1495a

>  <ref_pdb>  (553) 
Z1495a

>  <HIPPO Compound ID>  (553) 
139216

>  <name>  (553) 
P69830

>  <inspiration_score>  (553) 
None

$$$$
P69832
     RDKit          3D

 23 26  0  0  0  0  0  0  0  0999 V2000
   -8.8757    5.1463  -14.1418 O   0  0  0  0  0  0  0  0  0  0  0  0
   -7.8497    4.7168  -13.7697 C   0  0  0  0  0  0  0  0  0  0  0  0
   -6.5231    4.4159  -14.5621 N   0  0  0  0  0  0  0  0  0  0  0  0
   -6.1940    4.6608  -15.8664 C   0  0  0  0  0  0  0  0  0  0  0  0
   -4.7333    4.6764  -16.0487 C   0  0  0  0  0  0  0  0  0  0  0  0
   -4.1985    5.0969  -17.2003 C   0  0  0  0  0  0  0  0  0  0  0  0
   -5.0445    5.5782  -18.1758 N   0  0  0  0  0  0  0  0  0  0  0  0
   -4.7073    6.2283  -19.3299 C   0  0  0  0  0  0  0  0  0  0  0  0
   -5.8913    6.7318  -19.7975 C   0  0  0  0  0  0  0  0  0  0  0  0
   -6.9274    6.4036  -18.9613 N   0  0  0  0  0  0  0  0  0  0  0  0
   -6.4277    5.5826  -18.0600 C   0  0  0  0  0  0  0  0  0  0  0  0
   -7.0052    4.9131  -16.9237 C   0  0  0  0  0  0  0  0  0  0  0  0
   -8.7859    4.3665  -17.0910 Br  0  0  0  0  0  0  0  0  0  0  0  0
   -7.4892    4.4163  -12.2952 C   0  0  2  0  0  0  0  0  0  0  0  0
   -6.9640    3.0256  -12.0189 C   0  0  0  0  0  0  0  0  0  0  0  0
   -6.7614    3.1328  -10.5271 C   0  0  0  0  0  0  0  0  0  0  0  0
   -8.0034    3.9170  -10.0931 C   0  0  0  0  0  0  0  0  0  0  0  0
   -7.7351    4.9781   -9.0326 C   0  0  0  0  0  0  0  0  0  0  0  0
   -7.4644    4.3446   -7.6839 C   0  0  0  0  0  0  0  0  0  0  0  0
   -8.5182    3.4718   -7.2951 O   0  0  0  0  0  0  0  0  0  0  0  0
   -8.6882    2.3771   -8.1998 C   0  0  0  0  0  0  0  0  0  0  0  0
   -9.0473    2.9300   -9.5701 C   0  0  0  0  0  0  0  0  0  0  0  0
   -8.4633    4.6188  -11.2796 O   0  0  0  0  0  0  0  0  0  0  0  0
  1  2  2  0
  2  3  1  0
  3  4  1  0
  4  5  1  0
  5  6  2  0
  6  7  1  0
  7  8  1  0
  8  9  2  0
  9 10  1  0
 10 11  2  0
 11 12  1  0
 12 13  1  0
 14  2  1  6
 14 15  1  0
 15 16  1  0
 16 17  1  0
 17 18  1  0
 18 19  1  0
 19 20  1  0
 20 21  1  0
 21 22  1  0
 17 23  1  0
 12  4  2  0
 23 14  1  0
 11  7  1  0
 22 17  1  0
M  END
>  <energy_score>  (554) 
-24.396029

>  <alias>  (554) 
None

>  <HIPPO Pose ID>  (554) 
69832

>  <smiles>  (554) 
O=C(Nc1ccn2ccnc2c1Br)[C@@H]1CCC2(CCOCC2)O1

>  <inchikey>  (554) 
IPQGIHNPCKSIRH-LBPRGKRZSA-N

>  <distance_score>  (554) 
1.412024

>  <ref_mols>  (554) 
Z1046b,Z1495a

>  <ref_pdb>  (554) 
Z1495a

>  <HIPPO Compound ID>  (554) 
139218

>  <name>  (554) 
P69832

>  <inspiration_score>  (554) 
None

$$$$
P69843
     RDKit          3D

 23 25  0  0  0  0  0  0  0  0999 V2000
   -8.6376    4.2425   -8.8408 C   0  0  0  0  0  0  0  0  0  0  0  0
   -7.3517    4.7217   -9.5278 C   0  0  0  0  0  0  0  0  0  0  0  0
   -6.3722    5.0575   -8.3833 C   0  0  0  0  0  0  0  0  0  0  0  0
   -7.6472    6.0014  -10.1174 O   0  0  0  0  0  0  0  0  0  0  0  0
   -7.8414    6.0108  -11.5263 C   0  0  0  0  0  0  0  0  0  0  0  0
   -8.2723    4.6755  -12.1208 C   0  0  1  0  0  0  0  0  0  0  0  0
   -8.4172    4.9306  -13.6320 C   0  0  0  0  0  0  0  0  0  0  0  0
   -9.3464    5.4518  -14.1211 O   0  0  0  0  0  0  0  0  0  0  0  0
   -7.0681    4.4546  -14.2703 N   0  0  0  0  0  0  0  0  0  0  0  0
   -6.5855    4.6038  -15.5438 C   0  0  0  0  0  0  0  0  0  0  0  0
   -5.1156    4.5875  -15.5901 C   0  0  0  0  0  0  0  0  0  0  0  0
   -4.4694    4.9480  -16.7078 C   0  0  0  0  0  0  0  0  0  0  0  0
   -5.2115    5.3752  -17.7912 N   0  0  0  0  0  0  0  0  0  0  0  0
   -4.7653    5.9406  -18.9556 C   0  0  0  0  0  0  0  0  0  0  0  0
   -5.9002    6.3850  -19.5816 C   0  0  0  0  0  0  0  0  0  0  0  0
   -7.0130    6.1016  -18.8343 N   0  0  0  0  0  0  0  0  0  0  0  0
   -6.5978    5.3876  -17.8103 C   0  0  0  0  0  0  0  0  0  0  0  0
   -7.2869    4.8217  -16.6841 C   0  0  0  0  0  0  0  0  0  0  0  0
   -9.0609    4.3124  -16.9791 Br  0  0  0  0  0  0  0  0  0  0  0  0
   -7.2861    3.6837  -11.8797 O   0  0  0  0  0  0  0  0  0  0  0  0
   -6.7535    3.6586  -10.5407 C   0  0  0  0  0  0  0  0  0  0  0  0
   -7.0053    2.2258  -10.0647 C   0  0  0  0  0  0  0  0  0  0  0  0
   -5.2392    3.8428  -10.7589 C   0  0  0  0  0  0  0  0  0  0  0  0
  1  2  1  0
  2  3  1  0
  2  4  1  0
  4  5  1  0
  5  6  1  0
  6  7  1  6
  7  8  2  0
  7  9  1  0
  9 10  1  0
 10 11  1  0
 11 12  2  0
 12 13  1  0
 13 14  1  0
 14 15  2  0
 15 16  1  0
 16 17  2  0
 17 18  1  0
 18 19  1  0
  6 20  1  0
 20 21  1  0
 21 22  1  0
 21 23  1  0
 21  2  1  0
 18 10  2  0
 17 13  1  0
M  END
>  <energy_score>  (555) 
-46.543898

>  <alias>  (555) 
None

>  <HIPPO Pose ID>  (555) 
69843

>  <smiles>  (555) 
CC1(C)OC[C@@H](C(=O)Nc2ccn3ccnc3c2Br)OC1(C)C

>  <inchikey>  (555) 
MIPYPALHKYNNKO-NSHDSACASA-N

>  <distance_score>  (555) 
1.220928

>  <ref_mols>  (555) 
Z1046b,Z1495a

>  <ref_pdb>  (555) 
Z1495a

>  <HIPPO Compound ID>  (555) 
139229

>  <name>  (555) 
P69843

>  <inspiration_score>  (555) 
None

$$$$
P69847
     RDKit          3D

 23 26  0  0  0  0  0  0  0  0999 V2000
   -9.2023    5.3017  -14.1386 O   0  0  0  0  0  0  0  0  0  0  0  0
   -8.2235    4.8597  -13.6657 C   0  0  0  0  0  0  0  0  0  0  0  0
   -6.8048    4.6470  -14.2877 N   0  0  0  0  0  0  0  0  0  0  0  0
   -6.3594    4.8353  -15.5654 C   0  0  0  0  0  0  0  0  0  0  0  0
   -7.2921    5.1620  -16.6427 C   0  0  0  0  0  0  0  0  0  0  0  0
   -6.8128    5.5184  -17.8502 C   0  0  0  0  0  0  0  0  0  0  0  0
   -5.4341    5.5390  -18.0484 N   0  0  0  0  0  0  0  0  0  0  0  0
   -4.6616    6.0635  -19.0526 C   0  0  0  0  0  0  0  0  0  0  0  0
   -5.1890    7.1584  -20.4948 Br  0  0  0  0  0  0  0  0  0  0  0  0
   -3.3601    5.7585  -18.7427 C   0  0  0  0  0  0  0  0  0  0  0  0
   -3.2819    5.1201  -17.5369 N   0  0  0  0  0  0  0  0  0  0  0  0
   -4.5263    5.0729  -17.1008 C   0  0  0  0  0  0  0  0  0  0  0  0
   -5.0413    4.7168  -15.8255 C   0  0  0  0  0  0  0  0  0  0  0  0
   -8.1878    4.2551  -12.2325 C   0  0  1  0  0  0  0  0  0  0  0  0
   -7.9700    2.7429  -12.3216 C   0  0  0  0  0  0  0  0  0  0  0  0
   -6.7249    2.2899  -11.5926 C   0  0  0  0  0  0  0  0  0  0  0  0
   -6.7628    2.7420  -10.1467 C   0  0  0  0  0  0  0  0  0  0  0  0
   -7.3480    4.1632  -10.0099 C   0  0  1  0  0  0  0  0  0  0  0  0
   -8.7347    4.1374   -9.3914 C   0  0  0  0  0  0  0  0  0  0  0  0
   -8.4693    3.9429   -7.9200 C   0  0  0  0  0  0  0  0  0  0  0  0
   -7.2489    4.6297   -7.6514 O   0  0  0  0  0  0  0  0  0  0  0  0
   -6.6232    4.9323   -8.9068 C   0  0  0  0  0  0  0  0  0  0  0  0
   -7.3066    4.8568  -11.2800 O   0  0  0  0  0  0  0  0  0  0  0  0
  1  2  2  0
  2  3  1  0
  3  4  1  0
  4  5  1  0
  5  6  2  0
  6  7  1  0
  7  8  1  0
  8  9  1  0
  8 10  2  0
 10 11  1  0
 11 12  2  0
 12 13  1  0
 14  2  1  6
 14 15  1  0
 15 16  1  0
 16 17  1  0
 18 17  1  6
 18 19  1  0
 19 20  1  0
 20 21  1  0
 21 22  1  0
 18 23  1  0
 13  4  2  0
 23 14  1  0
 12  7  1  0
 22 18  1  0
M  END
>  <energy_score>  (556) 
-43.928748

>  <alias>  (556) 
None

>  <HIPPO Pose ID>  (556) 
69847

>  <smiles>  (556) 
O=C(Nc1ccn2c(Br)cnc2c1)[C@H]1CCC[C@]2(CCOC2)O1

>  <inchikey>  (556) 
OKCKVWQRAJXMCH-MLGOLLRUSA-N

>  <distance_score>  (556) 
1.640423

>  <ref_mols>  (556) 
Z1046b,Z1495a

>  <ref_pdb>  (556) 
Z1495a

>  <HIPPO Compound ID>  (556) 
139231

>  <name>  (556) 
P69847

>  <inspiration_score>  (556) 
None

$$$$
P69849
     RDKit          3D

 23 24  0  0  0  0  0  0  0  0999 V2000
   -8.0316    4.5401  -18.5646 C   0  0  0  0  0  0  0  0  0  0  0  0
   -6.7585    5.3642  -18.6857 C   0  0  0  0  0  0  0  0  0  0  0  0
   -5.5630    4.7106  -18.0100 C   0  0  0  0  0  0  0  0  0  0  0  0
   -5.6049    4.7078  -16.4860 C   0  0  0  0  0  0  0  0  0  0  0  0
   -5.1650    6.0251  -15.8290 C   0  0  1  0  0  0  0  0  0  0  0  0
   -5.7206    7.1485  -16.5070 O   0  0  0  0  0  0  0  0  0  0  0  0
   -4.7500    8.1196  -17.0054 C   0  0  0  0  0  0  0  0  0  0  0  0
   -4.0029    7.5913  -18.2474 C   0  0  0  0  0  0  0  0  0  0  0  0
   -3.7598    8.5927  -15.9257 C   0  0  0  0  0  0  0  0  0  0  0  0
   -5.5234    9.3631  -17.4680 C   0  0  0  0  0  0  0  0  0  0  0  0
   -5.3362    6.0731  -14.2547 C   0  0  0  0  0  0  0  0  0  0  0  0
   -4.4634    6.4792  -13.5828 O   0  0  0  0  0  0  0  0  0  0  0  0
   -6.7071    5.4314  -13.8569 N   0  0  0  0  0  0  0  0  0  0  0  0
   -7.2062    5.0945  -12.6297 C   0  0  0  0  0  0  0  0  0  0  0  0
   -8.2038    4.0381  -12.6280 C   0  0  0  0  0  0  0  0  0  0  0  0
   -8.5493    3.4393  -11.4743 C   0  0  0  0  0  0  0  0  0  0  0  0
   -8.0608    3.9221  -10.2723 N   0  0  0  0  0  0  0  0  0  0  0  0
   -8.2367    3.4986   -8.9694 C   0  0  0  0  0  0  0  0  0  0  0  0
   -8.9026    2.2436   -8.5445 C   0  0  0  0  0  0  0  0  0  0  0  0
   -7.6226    4.4676   -8.2051 C   0  0  0  0  0  0  0  0  0  0  0  0
   -7.0327    5.4293   -8.9816 N   0  0  0  0  0  0  0  0  0  0  0  0
   -7.2408    5.0452  -10.2222 C   0  0  0  0  0  0  0  0  0  0  0  0
   -6.7537    5.5755  -11.4583 C   0  0  0  0  0  0  0  0  0  0  0  0
  1  2  1  0
  2  3  1  0
  3  4  1  0
  5  4  1  6
  5  6  1  0
  6  7  1  0
  7  8  1  0
  7  9  1  0
  7 10  1  0
  5 11  1  0
 11 12  2  0
 11 13  1  0
 13 14  1  0
 14 15  1  0
 15 16  2  0
 16 17  1  0
 17 18  1  0
 18 19  1  0
 18 20  2  0
 20 21  1  0
 21 22  2  0
 22 23  1  0
 23 14  2  0
 22 17  1  0
M  END
>  <energy_score>  (557) 
-16.620983

>  <alias>  (557) 
None

>  <HIPPO Pose ID>  (557) 
69849

>  <smiles>  (557) 
CCCC[C@@H](OC(C)(C)C)C(=O)Nc1ccn2c(C)cnc2c1

>  <inchikey>  (557) 
FXAKHYJUWLQATC-OAHLLOKOSA-N

>  <distance_score>  (557) 
1.861342

>  <ref_mols>  (557) 
Z1046b,Z1495a

>  <ref_pdb>  (557) 
Z1495a

>  <HIPPO Compound ID>  (557) 
139233

>  <name>  (557) 
P69849

>  <inspiration_score>  (557) 
None

$$$$
P69851
     RDKit          3D

 23 24  0  0  0  0  0  0  0  0999 V2000
   -8.6996    4.3747  -18.0836 C   0  0  0  0  0  0  0  0  0  0  0  0
   -7.4569    4.7081  -18.8824 C   0  0  0  0  0  0  0  0  0  0  0  0
   -6.1727    4.2871  -18.2096 C   0  0  0  0  0  0  0  0  0  0  0  0
   -5.4175    5.4056  -17.5529 C   0  0  0  0  0  0  0  0  0  0  0  0
   -6.1605    6.1124  -16.4366 C   0  0  2  0  0  0  0  0  0  0  0  0
   -5.5419    7.3116  -16.0093 O   0  0  0  0  0  0  0  0  0  0  0  0
   -4.8067    8.1978  -16.8790 C   0  0  0  0  0  0  0  0  0  0  0  0
   -4.4240    9.3659  -15.9469 C   0  0  0  0  0  0  0  0  0  0  0  0
   -3.4927    7.6057  -17.4307 C   0  0  0  0  0  0  0  0  0  0  0  0
   -5.6334    8.7717  -18.0366 C   0  0  0  0  0  0  0  0  0  0  0  0
   -6.3007    5.1581  -15.1955 C   0  0  0  0  0  0  0  0  0  0  0  0
   -5.9119    4.0539  -15.1933 O   0  0  0  0  0  0  0  0  0  0  0  0
   -7.1109    5.9480  -14.1171 N   0  0  0  0  0  0  0  0  0  0  0  0
   -7.4988    5.5851  -12.8541 C   0  0  0  0  0  0  0  0  0  0  0  0
   -7.9256    6.6511  -11.9477 C   0  0  0  0  0  0  0  0  0  0  0  0
   -8.2445    6.3505  -10.6748 C   0  0  0  0  0  0  0  0  0  0  0  0
   -8.2054    5.0221  -10.2577 N   0  0  0  0  0  0  0  0  0  0  0  0
   -8.4617    4.4813   -9.0232 C   0  0  0  0  0  0  0  0  0  0  0  0
   -8.3323    3.1164   -9.1801 C   0  0  0  0  0  0  0  0  0  0  0  0
   -8.5404    2.0321   -8.1910 C   0  0  0  0  0  0  0  0  0  0  0  0
   -7.9526    2.8229  -10.4695 N   0  0  0  0  0  0  0  0  0  0  0  0
   -7.8728    3.9728  -11.0993 C   0  0  0  0  0  0  0  0  0  0  0  0
   -7.4976    4.2986  -12.4363 C   0  0  0  0  0  0  0  0  0  0  0  0
  1  2  1  0
  2  3  1  0
  3  4  1  0
  5  4  1  6
  5  6  1  0
  6  7  1  0
  7  8  1  0
  7  9  1  0
  7 10  1  0
  5 11  1  0
 11 12  2  0
 11 13  1  0
 13 14  1  0
 14 15  1  0
 15 16  2  0
 16 17  1  0
 17 18  1  0
 18 19  2  0
 19 20  1  0
 19 21  1  0
 21 22  2  0
 22 23  1  0
 23 14  2  0
 22 17  1  0
M  END
>  <energy_score>  (558) 
-18.179138

>  <alias>  (558) 
None

>  <HIPPO Pose ID>  (558) 
69851

>  <smiles>  (558) 
CCCC[C@H](OC(C)(C)C)C(=O)Nc1ccn2cc(C)nc2c1

>  <inchikey>  (558) 
BDKIRBHGDTXNLU-HNNXBMFYSA-N

>  <distance_score>  (558) 
1.662465

>  <ref_mols>  (558) 
Z1046b,Z1495a

>  <ref_pdb>  (558) 
Z1495a

>  <HIPPO Compound ID>  (558) 
139235

>  <name>  (558) 
P69851

>  <inspiration_score>  (558) 
None

$$$$
P69852
     RDKit          3D

 23 24  0  0  0  0  0  0  0  0999 V2000
   -7.8664    4.2802  -18.5559 C   0  0  0  0  0  0  0  0  0  0  0  0
   -6.4629    4.6194  -19.0206 C   0  0  0  0  0  0  0  0  0  0  0  0
   -5.3234    4.7161  -18.0098 C   0  0  0  0  0  0  0  0  0  0  0  0
   -5.6958    4.8648  -16.5461 C   0  0  0  0  0  0  0  0  0  0  0  0
   -6.6178    6.0441  -16.2460 C   0  0  2  0  0  0  0  0  0  0  0  0
   -5.9276    7.1595  -15.7125 O   0  0  0  0  0  0  0  0  0  0  0  0
   -4.9590    7.9033  -16.4746 C   0  0  0  0  0  0  0  0  0  0  0  0
   -3.5546    7.2994  -16.3190 C   0  0  0  0  0  0  0  0  0  0  0  0
   -5.3118    8.1495  -17.9555 C   0  0  0  0  0  0  0  0  0  0  0  0
   -4.9043    9.2776  -15.7704 C   0  0  0  0  0  0  0  0  0  0  0  0
   -7.6364    5.4843  -15.2044 C   0  0  0  0  0  0  0  0  0  0  0  0
   -8.5523    4.8220  -15.5012 O   0  0  0  0  0  0  0  0  0  0  0  0
   -7.1057    5.9005  -13.8021 N   0  0  0  0  0  0  0  0  0  0  0  0
   -7.5141    5.5298  -12.5563 C   0  0  0  0  0  0  0  0  0  0  0  0
   -7.1243    6.3842  -11.4418 C   0  0  0  0  0  0  0  0  0  0  0  0
   -7.3901    5.9907  -10.1837 C   0  0  0  0  0  0  0  0  0  0  0  0
   -7.9985    4.7544   -9.9687 N   0  0  0  0  0  0  0  0  0  0  0  0
   -8.3049    4.0991   -8.8019 C   0  0  0  0  0  0  0  0  0  0  0  0
   -8.0719    4.7024   -7.0181 Br  0  0  0  0  0  0  0  0  0  0  0  0
   -8.8031    2.8756   -9.1787 C   0  0  0  0  0  0  0  0  0  0  0  0
   -8.8667    2.7796  -10.5462 N   0  0  0  0  0  0  0  0  0  0  0  0
   -8.3852    3.9130  -11.0053 C   0  0  0  0  0  0  0  0  0  0  0  0
   -8.1623    4.3653  -12.3382 C   0  0  0  0  0  0  0  0  0  0  0  0
  1  2  1  0
  2  3  1  0
  3  4  1  0
  5  4  1  1
  5  6  1  0
  6  7  1  0
  7  8  1  0
  7  9  1  0
  7 10  1  0
  5 11  1  0
 11 12  2  0
 11 13  1  0
 13 14  1  0
 14 15  1  0
 15 16  2  0
 16 17  1  0
 17 18  1  0
 18 19  1  0
 18 20  2  0
 20 21  1  0
 21 22  2  0
 22 23  1  0
 23 14  2  0
 22 17  1  0
M  END
>  <energy_score>  (559) 
-19.956504

>  <alias>  (559) 
None

>  <HIPPO Pose ID>  (559) 
69852

>  <smiles>  (559) 
CCCC[C@H](OC(C)(C)C)C(=O)Nc1ccn2c(Br)cnc2c1

>  <inchikey>  (559) 
RFQVBHKOPCSJKP-ZDUSSCGKSA-N

>  <distance_score>  (559) 
1.484888

>  <ref_mols>  (559) 
Z1046b,Z1495a

>  <ref_pdb>  (559) 
Z1495a

>  <HIPPO Compound ID>  (559) 
139236

>  <name>  (559) 
P69852

>  <inspiration_score>  (559) 
None

$$$$
P69854
     RDKit          3D

 23 24  0  0  0  0  0  0  0  0999 V2000
   -8.3883    4.9487  -18.5181 C   0  0  0  0  0  0  0  0  0  0  0  0
   -7.1184    4.2030  -18.8332 C   0  0  0  0  0  0  0  0  0  0  0  0
   -5.8181    4.9633  -18.6277 C   0  0  0  0  0  0  0  0  0  0  0  0
   -5.2686    4.8276  -17.2108 C   0  0  0  0  0  0  0  0  0  0  0  0
   -6.0561    5.6020  -16.1689 C   0  0  2  0  0  0  0  0  0  0  0  0
   -6.0824    7.0006  -16.3698 O   0  0  0  0  0  0  0  0  0  0  0  0
   -4.8510    7.7521  -16.4841 C   0  0  0  0  0  0  0  0  0  0  0  0
   -4.3474    7.7930  -17.9462 C   0  0  0  0  0  0  0  0  0  0  0  0
   -3.7430    7.3231  -15.5111 C   0  0  0  0  0  0  0  0  0  0  0  0
   -5.2192    9.2032  -16.1102 C   0  0  0  0  0  0  0  0  0  0  0  0
   -5.7745    5.0606  -14.7388 C   0  0  0  0  0  0  0  0  0  0  0  0
   -4.8684    4.3697  -14.4638 O   0  0  0  0  0  0  0  0  0  0  0  0
   -6.9802    5.5496  -13.8646 N   0  0  0  0  0  0  0  0  0  0  0  0
   -7.3378    5.2254  -12.5814 C   0  0  0  0  0  0  0  0  0  0  0  0
   -7.9604    6.3251  -11.8364 C   0  0  0  0  0  0  0  0  0  0  0  0
   -8.3283    6.1408  -10.5581 C   0  0  0  0  0  0  0  0  0  0  0  0
   -8.1695    4.8865   -9.9833 N   0  0  0  0  0  0  0  0  0  0  0  0
   -8.4534    4.4721   -8.7070 C   0  0  0  0  0  0  0  0  0  0  0  0
   -8.1649    3.1285   -8.6845 C   0  0  0  0  0  0  0  0  0  0  0  0
   -7.6749    2.7233   -9.8935 N   0  0  0  0  0  0  0  0  0  0  0  0
   -7.6625    3.7914  -10.6649 C   0  0  0  0  0  0  0  0  0  0  0  0
   -7.2232    3.9931  -12.0157 C   0  0  0  0  0  0  0  0  0  0  0  0
   -6.6503    2.4284  -12.8753 Br  0  0  0  0  0  0  0  0  0  0  0  0
  1  2  1  0
  2  3  1  0
  3  4  1  0
  5  4  1  6
  5  6  1  0
  6  7  1  0
  7  8  1  0
  7  9  1  0
  7 10  1  0
  5 11  1  0
 11 12  2  0
 11 13  1  0
 13 14  1  0
 14 15  1  0
 15 16  2  0
 16 17  1  0
 17 18  1  0
 18 19  2  0
 19 20  1  0
 20 21  2  0
 21 22  1  0
 22 23  1  0
 22 14  2  0
 21 17  1  0
M  END
>  <energy_score>  (560) 
-15.515517

>  <alias>  (560) 
None

>  <HIPPO Pose ID>  (560) 
69854

>  <smiles>  (560) 
CCCC[C@H](OC(C)(C)C)C(=O)Nc1ccn2ccnc2c1Br

>  <inchikey>  (560) 
OARUMLBUTHWZMJ-ZDUSSCGKSA-N

>  <distance_score>  (560) 
1.400989

>  <ref_mols>  (560) 
Z1046b,Z1495a

>  <ref_pdb>  (560) 
Z1495a

>  <HIPPO Compound ID>  (560) 
139237

>  <name>  (560) 
P69854

>  <inspiration_score>  (560) 
None

$$$$
P69855
     RDKit          3D

 23 26  0  0  0  0  0  0  0  0999 V2000
   -8.4144    4.3042  -13.6119 O   0  0  0  0  0  0  0  0  0  0  0  0
   -7.2693    4.2687  -13.3699 C   0  0  0  0  0  0  0  0  0  0  0  0
   -6.0337    4.5880  -14.2725 N   0  0  0  0  0  0  0  0  0  0  0  0
   -5.9638    4.9006  -15.5899 C   0  0  0  0  0  0  0  0  0  0  0  0
   -7.1298    4.6198  -16.4067 C   0  0  0  0  0  0  0  0  0  0  0  0
   -7.1166    4.8847  -17.7229 C   0  0  0  0  0  0  0  0  0  0  0  0
   -8.6116    4.4232  -18.7214 Br  0  0  0  0  0  0  0  0  0  0  0  0
   -5.9700    5.4835  -18.2643 N   0  0  0  0  0  0  0  0  0  0  0  0
   -5.6867    5.9861  -19.5051 C   0  0  0  0  0  0  0  0  0  0  0  0
   -4.4103    6.4738  -19.4753 C   0  0  0  0  0  0  0  0  0  0  0  0
   -3.8699    6.3054  -18.2371 N   0  0  0  0  0  0  0  0  0  0  0  0
   -4.8174    5.7353  -17.5166 C   0  0  0  0  0  0  0  0  0  0  0  0
   -4.8381    5.3897  -16.1386 C   0  0  0  0  0  0  0  0  0  0  0  0
   -6.6873    3.7647  -12.0426 C   0  0  2  0  0  0  0  0  0  0  0  0
   -7.6044    2.7530  -11.3886 C   0  0  0  0  0  0  0  0  0  0  0  0
   -8.3696    3.5920  -10.4096 C   0  0  0  0  0  0  0  0  0  0  0  0
   -7.3378    4.6348   -9.9857 C   0  0  0  0  0  0  0  0  0  0  0  0
   -7.9938    5.9286   -9.5324 C   0  0  0  0  0  0  0  0  0  0  0  0
   -8.6496    5.7116   -8.1855 C   0  0  0  0  0  0  0  0  0  0  0  0
   -7.7057    5.3102   -7.2129 O   0  0  0  0  0  0  0  0  0  0  0  0
   -7.1199    4.0532   -7.5306 C   0  0  0  0  0  0  0  0  0  0  0  0
   -6.4033    4.1235   -8.8739 C   0  0  0  0  0  0  0  0  0  0  0  0
   -6.5497    4.8931  -11.1649 O   0  0  0  0  0  0  0  0  0  0  0  0
  1  2  2  0
  2  3  1  0
  3  4  1  0
  4  5  1  0
  5  6  2  0
  6  7  1  0
  6  8  1  0
  8  9  1  0
  9 10  2  0
 10 11  1  0
 11 12  2  0
 12 13  1  0
 14  2  1  6
 14 15  1  0
 15 16  1  0
 16 17  1  0
 17 18  1  0
 18 19  1  0
 19 20  1  0
 20 21  1  0
 21 22  1  0
 17 23  1  0
 13  4  2  0
 23 14  1  0
 12  8  1  0
 22 17  1  0
M  END
>  <energy_score>  (561) 
-49.594672

>  <alias>  (561) 
None

>  <HIPPO Pose ID>  (561) 
69855

>  <smiles>  (561) 
O=C(Nc1cc(Br)n2ccnc2c1)[C@@H]1CCC2(CCOCC2)O1

>  <inchikey>  (561) 
QWFWGOIMFPAJLF-LBPRGKRZSA-N

>  <distance_score>  (561) 
1.701752

>  <ref_mols>  (561) 
Z1046b,Z1495a

>  <ref_pdb>  (561) 
Z1495a

>  <HIPPO Compound ID>  (561) 
139241

>  <name>  (561) 
P69855

>  <inspiration_score>  (561) 
None

$$$$
P69860
     RDKit          3D

 23 26  0  0  0  0  0  0  0  0999 V2000
   -8.5880    4.8515  -18.2207 C   0  0  0  0  0  0  0  0  0  0  0  0
   -7.9136    6.0199  -18.7108 O   0  0  0  0  0  0  0  0  0  0  0  0
   -6.7783    6.5861  -18.2361 C   0  0  0  0  0  0  0  0  0  0  0  0
   -6.4693    7.7366  -18.5840 O   0  0  0  0  0  0  0  0  0  0  0  0
   -5.9003    5.7767  -17.2925 C   0  0  2  0  0  0  0  0  0  0  0  0
   -4.4458    5.4889  -17.8381 C   0  0  0  0  0  0  0  0  0  0  0  0
   -4.5093    4.5006  -16.6446 C   0  0  2  0  0  0  0  0  0  0  0  0
   -5.9527    4.2282  -17.1947 C   0  0  0  0  0  0  0  0  0  0  0  0
   -4.7551    5.3738  -15.4020 C   0  0  2  0  0  0  0  0  0  0  0  0
   -5.2300    4.5394  -14.2053 C   0  0  0  0  0  0  0  0  0  0  0  0
   -4.8263    3.4663  -13.9705 O   0  0  0  0  0  0  0  0  0  0  0  0
   -6.2479    5.4283  -13.4273 N   0  0  0  0  0  0  0  0  0  0  0  0
   -6.9985    5.1542  -12.3243 C   0  0  0  0  0  0  0  0  0  0  0  0
   -7.6230    6.2855  -11.6388 C   0  0  0  0  0  0  0  0  0  0  0  0
   -8.1773    6.0897  -10.4280 C   0  0  0  0  0  0  0  0  0  0  0  0
   -8.2086    4.8012   -9.8991 N   0  0  0  0  0  0  0  0  0  0  0  0
   -8.6364    4.3593   -8.6736 C   0  0  0  0  0  0  0  0  0  0  0  0
   -8.5151    2.9854   -8.7110 C   0  0  0  0  0  0  0  0  0  0  0  0
   -8.8737    1.9751   -7.6936 C   0  0  0  0  0  0  0  0  0  0  0  0
   -7.9543    2.5907   -9.8978 N   0  0  0  0  0  0  0  0  0  0  0  0
   -7.7542    3.6881  -10.5855 C   0  0  0  0  0  0  0  0  0  0  0  0
   -7.1131    3.9038  -11.8328 C   0  0  0  0  0  0  0  0  0  0  0  0
   -5.7433    6.2760  -15.9241 O   0  0  0  0  0  0  0  0  0  0  0  0
  1  2  1  0
  2  3  1  0
  3  4  2  0
  5  3  1  6
  5  6  1  0
  7  6  1  6
  7  8  1  0
  7  9  1  0
  9 10  1  1
 10 11  2  0
 10 12  1  0
 12 13  1  0
 13 14  1  0
 14 15  2  0
 15 16  1  0
 16 17  1  0
 17 18  2  0
 18 19  1  0
 18 20  1  0
 20 21  2  0
 21 22  1  0
  9 23  1  0
  8  5  1  0
 22 13  2  0
 23  5  1  0
 21 16  1  0
M  END
>  <energy_score>  (562) 
-28.425909

>  <alias>  (562) 
None

>  <HIPPO Pose ID>  (562) 
69860

>  <smiles>  (562) 
COC(=O)[C@]12C[C@H](C1)[C@H](C(=O)Nc1ccn3cc(C)nc3c1)O2

>  <inchikey>  (562) 
ANAIHGQGDFEUPR-ZXIHIIQKSA-N

>  <distance_score>  (562) 
1.816964

>  <ref_mols>  (562) 
Z1046b,Z1495a

>  <ref_pdb>  (562) 
Z1495a

>  <HIPPO Compound ID>  (562) 
139244

>  <name>  (562) 
P69860

>  <inspiration_score>  (562) 
None

$$$$
P69861
     RDKit          3D

 23 26  0  0  0  0  0  0  0  0999 V2000
   -8.0346    7.0829   -9.7394 C   0  0  0  0  0  0  0  0  0  0  0  0
   -8.1772    6.3795   -8.5017 O   0  0  0  0  0  0  0  0  0  0  0  0
   -8.1784    5.0034   -8.4473 C   0  0  0  0  0  0  0  0  0  0  0  0
   -8.2909    4.4807   -7.3350 O   0  0  0  0  0  0  0  0  0  0  0  0
   -8.0242    4.2038   -9.7802 C   0  0  2  0  0  0  0  0  0  0  0  0
   -8.1808    2.6303   -9.7624 C   0  0  0  0  0  0  0  0  0  0  0  0
   -7.4550    2.8431  -11.1513 C   0  0  2  0  0  0  0  0  0  0  0  0
   -6.5871    3.8307  -10.2981 C   0  0  0  0  0  0  0  0  0  0  0  0
   -8.5017    3.6588  -11.9267 C   0  0  2  0  0  0  0  0  0  0  0  0
   -8.3598    4.3390  -13.3089 C   0  0  0  0  0  0  0  0  0  0  0  0
   -9.2401    5.0088  -13.7022 O   0  0  0  0  0  0  0  0  0  0  0  0
   -7.0225    3.9257  -13.9933 N   0  0  0  0  0  0  0  0  0  0  0  0
   -6.4819    4.3071  -15.1950 C   0  0  0  0  0  0  0  0  0  0  0  0
   -7.3635    4.8203  -16.2528 C   0  0  0  0  0  0  0  0  0  0  0  0
   -6.8363    5.2752  -17.4075 C   0  0  0  0  0  0  0  0  0  0  0  0
   -5.4539    5.2497  -17.5721 N   0  0  0  0  0  0  0  0  0  0  0  0
   -4.6303    5.7892  -18.5238 C   0  0  0  0  0  0  0  0  0  0  0  0
   -5.0355    6.9587  -19.9254 Br  0  0  0  0  0  0  0  0  0  0  0  0
   -3.3520    5.4236  -18.2060 C   0  0  0  0  0  0  0  0  0  0  0  0
   -3.3370    4.7244  -17.0393 N   0  0  0  0  0  0  0  0  0  0  0  0
   -4.5923    4.6860  -16.6374 C   0  0  0  0  0  0  0  0  0  0  0  0
   -5.1561    4.2114  -15.4196 C   0  0  0  0  0  0  0  0  0  0  0  0
   -8.7680    4.6737  -10.9450 O   0  0  0  0  0  0  0  0  0  0  0  0
  1  2  1  0
  2  3  1  0
  3  4  2  0
  5  3  1  1
  5  6  1  0
  7  6  1  1
  7  8  1  0
  7  9  1  0
  9 10  1  6
 10 11  2  0
 10 12  1  0
 12 13  1  0
 13 14  1  0
 14 15  2  0
 15 16  1  0
 16 17  1  0
 17 18  1  0
 17 19  2  0
 19 20  1  0
 20 21  2  0
 21 22  1  0
  9 23  1  0
  8  5  1  0
 22 13  2  0
 23  5  1  0
 21 16  1  0
M  END
>  <energy_score>  (563) 
-34.145691

>  <alias>  (563) 
None

>  <HIPPO Pose ID>  (563) 
69861

>  <smiles>  (563) 
COC(=O)[C@]12C[C@H](C1)[C@H](C(=O)Nc1ccn3c(Br)cnc3c1)O2

>  <inchikey>  (563) 
VXWQUXRQSDAABZ-ICDUWSABSA-N

>  <distance_score>  (563) 
1.988393

>  <ref_mols>  (563) 
Z1046b,Z1495a

>  <ref_pdb>  (563) 
Z1495a

>  <HIPPO Compound ID>  (563) 
139245

>  <name>  (563) 
P69861

>  <inspiration_score>  (563) 
None

$$$$
P69866
     RDKit          3D

 24 27  0  0  0  0  0  0  0  0999 V2000
   -9.6734    2.1846   -7.1218 C   0  0  0  0  0  0  0  0  0  0  0  0
   -9.3169    2.6183   -8.4330 O   0  0  0  0  0  0  0  0  0  0  0  0
   -8.7851    3.8695   -8.4932 C   0  0  0  0  0  0  0  0  0  0  0  0
   -8.7580    4.6606   -7.5542 O   0  0  0  0  0  0  0  0  0  0  0  0
   -8.1672    4.1445   -9.8750 C   0  0  2  0  0  0  0  0  0  0  0  0
   -7.1787    3.0417  -10.2670 C   0  0  0  0  0  0  0  0  0  0  0  0
   -7.1020    3.1908  -11.7778 C   0  0  0  0  0  0  0  0  0  0  0  0
   -7.9394    4.4509  -12.0275 C   0  0  2  0  0  0  0  0  0  0  0  0
   -8.2788    4.6898  -13.5392 C   0  0  0  0  0  0  0  0  0  0  0  0
   -9.3559    4.8685  -13.9673 O   0  0  0  0  0  0  0  0  0  0  0  0
   -6.8829    4.7092  -14.2583 N   0  0  0  0  0  0  0  0  0  0  0  0
   -6.5699    4.8486  -15.5743 C   0  0  0  0  0  0  0  0  0  0  0  0
   -7.5695    4.9218  -16.6334 C   0  0  0  0  0  0  0  0  0  0  0  0
   -7.1653    5.1649  -17.8983 C   0  0  0  0  0  0  0  0  0  0  0  0
   -5.8059    5.3422  -18.1536 N   0  0  0  0  0  0  0  0  0  0  0  0
   -5.1396    5.7182  -19.2907 C   0  0  0  0  0  0  0  0  0  0  0  0
   -3.8178    5.7453  -18.9335 C   0  0  0  0  0  0  0  0  0  0  0  0
   -2.8219    6.0744  -19.7536 O   0  0  0  0  0  0  0  0  0  0  0  0
   -3.6146    5.4331  -17.6375 N   0  0  0  0  0  0  0  0  0  0  0  0
   -4.8264    5.2124  -17.1776 C   0  0  0  0  0  0  0  0  0  0  0  0
   -5.2559    4.9369  -15.8631 C   0  0  0  0  0  0  0  0  0  0  0  0
   -7.2530    5.6957  -11.4354 C   0  0  0  0  0  0  0  0  0  0  0  0
   -7.4717    5.5119   -9.9366 C   0  0  0  0  0  0  0  0  0  0  0  0
   -8.9730    4.2390  -11.0602 O   0  0  0  0  0  0  0  0  0  0  0  0
  1  2  1  0
  2  3  1  0
  3  4  2  0
  5  3  1  1
  5  6  1  0
  6  7  1  0
  7  8  1  0
  8  9  1  6
  9 10  2  0
  9 11  1  0
 11 12  1  0
 12 13  1  0
 13 14  2  0
 14 15  1  0
 15 16  1  0
 16 17  2  0
 17 18  1  0
 17 19  1  0
 19 20  2  0
 20 21  1  0
  8 22  1  0
 22 23  1  0
  8 24  1  0
 23  5  1  0
 24  5  1  0
 21 12  2  0
 20 15  1  0
M  END
>  <energy_score>  (564) 
-39.617068

>  <alias>  (564) 
None

>  <HIPPO Pose ID>  (564) 
69866

>  <smiles>  (564) 
COC(=O)[C@]12CC[C@](C(=O)Nc3ccn4cc(O)nc4c3)(CC1)O2

>  <inchikey>  (564) 
LUGRNPNSMDZCNI-IYBDPMFKSA-N

>  <distance_score>  (564) 
1.277293

>  <ref_mols>  (564) 
Z1046b,Z1495a

>  <ref_pdb>  (564) 
Z1495a

>  <HIPPO Compound ID>  (564) 
139249

>  <name>  (564) 
P69866

>  <inspiration_score>  (564) 
None

$$$$
P69867
     RDKit          3D

 24 27  0  0  0  0  0  0  0  0999 V2000
   -9.0578    3.5835   -6.3060 C   0  0  0  0  0  0  0  0  0  0  0  0
   -8.6473    3.4809   -7.6676 O   0  0  0  0  0  0  0  0  0  0  0  0
   -8.5870    4.6574   -8.3520 C   0  0  0  0  0  0  0  0  0  0  0  0
   -8.8237    5.7534   -7.8548 O   0  0  0  0  0  0  0  0  0  0  0  0
   -8.0842    4.4363   -9.7906 C   0  0  2  0  0  0  0  0  0  0  0  0
   -8.0886    2.9739  -10.2458 C   0  0  0  0  0  0  0  0  0  0  0  0
   -7.8763    3.0899  -11.7454 C   0  0  0  0  0  0  0  0  0  0  0  0
   -7.8228    4.6014  -11.9548 C   0  0  2  0  0  0  0  0  0  0  0  0
   -8.0419    4.9976  -13.4493 C   0  0  0  0  0  0  0  0  0  0  0  0
   -8.9331    5.6644  -13.8236 O   0  0  0  0  0  0  0  0  0  0  0  0
   -6.8036    4.4152  -14.2330 N   0  0  0  0  0  0  0  0  0  0  0  0
   -6.3999    4.6100  -15.5263 C   0  0  0  0  0  0  0  0  0  0  0  0
   -4.9384    4.5851  -15.6723 C   0  0  0  0  0  0  0  0  0  0  0  0
   -4.3699    4.9614  -16.8255 C   0  0  0  0  0  0  0  0  0  0  0  0
   -5.1829    5.4085  -17.8481 N   0  0  0  0  0  0  0  0  0  0  0  0
   -4.8090    5.9908  -19.0276 C   0  0  0  0  0  0  0  0  0  0  0  0
   -5.9799    6.4420  -19.5758 C   0  0  0  0  0  0  0  0  0  0  0  0
   -7.0481    6.1432  -18.7697 N   0  0  0  0  0  0  0  0  0  0  0  0
   -6.5688    5.4267  -17.7753 C   0  0  0  0  0  0  0  0  0  0  0  0
   -7.1809    4.8569  -16.6069 C   0  0  0  0  0  0  0  0  0  0  0  0
   -8.9778    4.3633  -16.7532 Br  0  0  0  0  0  0  0  0  0  0  0  0
   -6.5091    5.1863  -11.4124 C   0  0  0  0  0  0  0  0  0  0  0  0
   -6.6775    5.0335   -9.9071 C   0  0  0  0  0  0  0  0  0  0  0  0
   -8.7104    5.0725  -10.9230 O   0  0  0  0  0  0  0  0  0  0  0  0
  1  2  1  0
  2  3  1  0
  3  4  2  0
  5  3  1  1
  5  6  1  0
  6  7  1  0
  7  8  1  0
  8  9  1  6
  9 10  2  0
  9 11  1  0
 11 12  1  0
 12 13  1  0
 13 14  2  0
 14 15  1  0
 15 16  1  0
 16 17  2  0
 17 18  1  0
 18 19  2  0
 19 20  1  0
 20 21  1  0
  8 22  1  0
 22 23  1  0
  8 24  1  0
 23  5  1  0
 24  5  1  0
 20 12  2  0
 19 15  1  0
M  END
>  <energy_score>  (565) 
-15.413838

>  <alias>  (565) 
None

>  <HIPPO Pose ID>  (565) 
69867

>  <smiles>  (565) 
COC(=O)[C@]12CC[C@](C(=O)Nc3ccn4ccnc4c3Br)(CC1)O2

>  <inchikey>  (565) 
PSNOZWVGVXMPPK-IYBDPMFKSA-N

>  <distance_score>  (565) 
1.35203

>  <ref_mols>  (565) 
Z1046b,Z1495a

>  <ref_pdb>  (565) 
Z1495a

>  <HIPPO Compound ID>  (565) 
139251

>  <name>  (565) 
P69867

>  <inspiration_score>  (565) 
None

$$$$
P69869
     RDKit          3D

 24 27  0  0  0  0  0  0  0  0999 V2000
   -8.8603    6.4001  -14.4906 O   0  0  0  0  0  0  0  0  0  0  0  0
   -8.0207    5.7882  -13.9561 C   0  0  0  0  0  0  0  0  0  0  0  0
   -6.6957    5.2065  -14.5089 N   0  0  0  0  0  0  0  0  0  0  0  0
   -6.2078    5.1775  -15.7702 C   0  0  0  0  0  0  0  0  0  0  0  0
   -7.1503    5.2898  -16.8821 C   0  0  0  0  0  0  0  0  0  0  0  0
   -6.6796    5.4182  -18.1325 C   0  0  0  0  0  0  0  0  0  0  0  0
   -5.3060    5.4267  -18.3205 N   0  0  0  0  0  0  0  0  0  0  0  0
   -4.5700    5.7061  -19.4365 C   0  0  0  0  0  0  0  0  0  0  0  0
   -3.2700    5.5778  -19.0337 C   0  0  0  0  0  0  0  0  0  0  0  0
   -2.2350    5.7650  -19.8456 O   0  0  0  0  0  0  0  0  0  0  0  0
   -3.1452    5.2512  -17.7299 N   0  0  0  0  0  0  0  0  0  0  0  0
   -4.3865    5.1982  -17.2996 C   0  0  0  0  0  0  0  0  0  0  0  0
   -4.8904    5.0343  -15.9864 C   0  0  0  0  0  0  0  0  0  0  0  0
   -8.1362    5.3224  -12.5102 C   0  0  1  0  0  0  0  0  0  0  0  0
   -8.6497    3.8942  -12.7016 C   0  0  0  0  0  0  0  0  0  0  0  0
   -9.0737    3.2692  -11.5036 O   0  0  0  0  0  0  0  0  0  0  0  0
   -8.7697    4.0568  -10.3667 C   0  0  0  0  0  0  0  0  0  0  0  0
   -7.2986    4.5233  -10.4369 C   0  0  0  0  0  0  0  0  0  0  0  0
   -6.9877    5.3740   -9.2080 C   0  0  0  0  0  0  0  0  0  0  0  0
   -6.7086    4.4919   -7.9944 C   0  0  0  0  0  0  0  0  0  0  0  0
   -7.3039    3.2121   -8.1411 O   0  0  0  0  0  0  0  0  0  0  0  0
   -6.7471    2.4315   -9.2117 C   0  0  0  0  0  0  0  0  0  0  0  0
   -6.3879    3.2938  -10.4204 C   0  0  0  0  0  0  0  0  0  0  0  0
   -7.0142    5.3101  -11.6386 O   0  0  0  0  0  0  0  0  0  0  0  0
  1  2  2  0
  2  3  1  0
  3  4  1  0
  4  5  1  0
  5  6  2  0
  6  7  1  0
  7  8  1  0
  8  9  2  0
  9 10  1  0
  9 11  1  0
 11 12  2  0
 12 13  1  0
 14  2  1  6
 14 15  1  0
 15 16  1  0
 16 17  1  0
 17 18  1  0
 18 19  1  0
 19 20  1  0
 20 21  1  0
 21 22  1  0
 22 23  1  0
 18 24  1  0
 13  4  2  0
 24 14  1  0
 12  7  1  0
 23 18  1  0
M  END
>  <energy_score>  (566) 
-47.449542

>  <alias>  (566) 
None

>  <HIPPO Pose ID>  (566) 
69869

>  <smiles>  (566) 
O=C(Nc1ccn2cc(O)nc2c1)[C@H]1COCC2(CCOCC2)O1

>  <inchikey>  (566) 
SYFRQUKDPMDAAG-GFCCVEGCSA-N

>  <distance_score>  (566) 
1.404656

>  <ref_mols>  (566) 
Z1046b,Z1495a

>  <ref_pdb>  (566) 
Z1495a

>  <HIPPO Compound ID>  (566) 
139252

>  <name>  (566) 
P69869

>  <inspiration_score>  (566) 
None

$$$$
P69872
     RDKit          3D

 24 27  0  0  0  0  0  0  0  0999 V2000
   -8.7889    5.2956  -14.0692 O   0  0  0  0  0  0  0  0  0  0  0  0
   -7.8135    4.7205  -13.7598 C   0  0  0  0  0  0  0  0  0  0  0  0
   -6.5279    4.3592  -14.6045 N   0  0  0  0  0  0  0  0  0  0  0  0
   -6.1827    4.6995  -15.8799 C   0  0  0  0  0  0  0  0  0  0  0  0
   -4.7247    4.7165  -16.0620 C   0  0  0  0  0  0  0  0  0  0  0  0
   -4.1941    5.1442  -17.2131 C   0  0  0  0  0  0  0  0  0  0  0  0
   -5.0422    5.6349  -18.1837 N   0  0  0  0  0  0  0  0  0  0  0  0
   -4.7055    6.2775  -19.3421 C   0  0  0  0  0  0  0  0  0  0  0  0
   -5.8880    6.7854  -19.8089 C   0  0  0  0  0  0  0  0  0  0  0  0
   -6.9227    6.4725  -18.9650 N   0  0  0  0  0  0  0  0  0  0  0  0
   -6.4252    5.6549  -18.0599 C   0  0  0  0  0  0  0  0  0  0  0  0
   -6.9994    4.9874  -16.9228 C   0  0  0  0  0  0  0  0  0  0  0  0
   -8.7736    4.4069  -17.0767 Br  0  0  0  0  0  0  0  0  0  0  0  0
   -7.4576    4.2209  -12.3319 C   0  0  2  0  0  0  0  0  0  0  0  0
   -7.3136    2.7036  -12.3312 C   0  0  0  0  0  0  0  0  0  0  0  0
   -6.4268    2.3031  -11.1624 C   0  0  0  0  0  0  0  0  0  0  0  0
   -6.4870    3.3266  -10.0348 C   0  0  0  0  0  0  0  0  0  0  0  0
   -7.8671    4.0119   -9.9561 C   0  0  0  0  0  0  0  0  0  0  0  0
   -7.8553    5.1464   -8.9245 C   0  0  0  0  0  0  0  0  0  0  0  0
   -7.6543    4.6470   -7.4966 C   0  0  0  0  0  0  0  0  0  0  0  0
   -8.6254    3.5364   -7.1018 C   0  0  0  0  0  0  0  0  0  0  0  0
   -8.7143    2.4122   -8.1232 C   0  0  0  0  0  0  0  0  0  0  0  0
   -8.9292    2.9822   -9.5203 C   0  0  0  0  0  0  0  0  0  0  0  0
   -8.2467    4.6223  -11.2213 O   0  0  0  0  0  0  0  0  0  0  0  0
  1  2  2  0
  2  3  1  0
  3  4  1  0
  4  5  1  0
  5  6  2  0
  6  7  1  0
  7  8  1  0
  8  9  2  0
  9 10  1  0
 10 11  2  0
 11 12  1  0
 12 13  1  0
 14  2  1  6
 14 15  1  0
 15 16  1  0
 16 17  1  0
 17 18  1  0
 18 19  1  0
 19 20  1  0
 20 21  1  0
 21 22  1  0
 22 23  1  0
 18 24  1  0
 12  4  2  0
 24 14  1  0
 11  7  1  0
 23 18  1  0
M  END
>  <energy_score>  (567) 
-31.398327

>  <alias>  (567) 
None

>  <HIPPO Pose ID>  (567) 
69872

>  <smiles>  (567) 
O=C(Nc1ccn2ccnc2c1Br)[C@@H]1CCCC2(CCCCC2)O1

>  <inchikey>  (567) 
YZZCGTXXFOTOIT-AWEZNQCLSA-N

>  <distance_score>  (567) 
1.488175

>  <ref_mols>  (567) 
Z1046b,Z1495a

>  <ref_pdb>  (567) 
Z1495a

>  <HIPPO Compound ID>  (567) 
139256

>  <name>  (567) 
P69872

>  <inspiration_score>  (567) 
None

$$$$
P69877
     RDKit          3D

 24 26  0  0  0  0  0  0  0  0999 V2000
   -8.1748    7.2793  -10.7457 C   0  0  0  0  0  0  0  0  0  0  0  0
   -7.2886    6.4367  -11.6646 C   0  0  0  0  0  0  0  0  0  0  0  0
   -5.8142    6.5511  -11.2575 C   0  0  0  0  0  0  0  0  0  0  0  0
   -7.8104    4.9599  -11.8657 C   0  0  1  0  0  0  0  0  0  0  0  0
   -8.2067    4.9486  -13.4291 C   0  0  0  0  0  0  0  0  0  0  0  0
   -9.2651    5.2117  -13.8685 O   0  0  0  0  0  0  0  0  0  0  0  0
   -6.8481    4.6187  -14.1637 N   0  0  0  0  0  0  0  0  0  0  0  0
   -6.5297    4.6425  -15.4945 C   0  0  0  0  0  0  0  0  0  0  0  0
   -7.4888    4.9496  -16.5503 C   0  0  0  0  0  0  0  0  0  0  0  0
   -7.0287    5.3371  -17.7615 C   0  0  0  0  0  0  0  0  0  0  0  0
   -5.6493    5.3814  -17.9872 N   0  0  0  0  0  0  0  0  0  0  0  0
   -4.8841    5.9561  -18.9726 C   0  0  0  0  0  0  0  0  0  0  0  0
   -5.3900    7.1434  -20.3457 Br  0  0  0  0  0  0  0  0  0  0  0  0
   -3.5777    5.6410  -18.6917 C   0  0  0  0  0  0  0  0  0  0  0  0
   -3.4830    4.9687  -17.5093 N   0  0  0  0  0  0  0  0  0  0  0  0
   -4.7243    4.8966  -17.0687 C   0  0  0  0  0  0  0  0  0  0  0  0
   -5.2151    4.5353  -15.7899 C   0  0  0  0  0  0  0  0  0  0  0  0
   -6.7416    4.0300  -11.7306 O   0  0  0  0  0  0  0  0  0  0  0  0
   -7.0387    3.2199  -10.6871 C   0  0  0  0  0  0  0  0  0  0  0  0
   -6.3929    2.2269  -10.4066 O   0  0  0  0  0  0  0  0  0  0  0  0
   -8.1897    3.7876   -9.9224 C   0  0  0  0  0  0  0  0  0  0  0  0
   -9.1388    2.6895   -9.5085 C   0  0  0  0  0  0  0  0  0  0  0  0
   -7.7118    4.5199   -8.6723 C   0  0  0  0  0  0  0  0  0  0  0  0
   -8.7840    4.6680  -10.8821 O   0  0  0  0  0  0  0  0  0  0  0  0
  1  2  1  0
  2  3  1  0
  4  2  1  1
  4  5  1  0
  5  6  2  0
  5  7  1  0
  7  8  1  0
  8  9  1  0
  9 10  2  0
 10 11  1  0
 11 12  1  0
 12 13  1  0
 12 14  2  0
 14 15  1  0
 15 16  2  0
 16 17  1  0
  4 18  1  0
 18 19  1  0
 19 20  2  0
 19 21  1  0
 21 22  1  0
 21 23  1  0
 21 24  1  0
 24  4  1  0
 17  8  2  0
 16 11  1  0
M  END
>  <energy_score>  (568) 
-11.575913

>  <alias>  (568) 
None

>  <HIPPO Pose ID>  (568) 
69877

>  <smiles>  (568) 
CC(C)[C@@]1(C(=O)Nc2ccn3c(Br)cnc3c2)OC(=O)C(C)(C)O1

>  <inchikey>  (568) 
AZUQBXZKKBWJHW-MRXNPFEDSA-N

>  <distance_score>  (568) 
1.383035

>  <ref_mols>  (568) 
Z1046b,Z1495a

>  <ref_pdb>  (568) 
Z1495a

>  <HIPPO Compound ID>  (568) 
139258

>  <name>  (568) 
P69877

>  <inspiration_score>  (568) 
None

$$$$
P69882
     RDKit          3D

 24 26  0  0  0  0  0  0  0  0999 V2000
   -8.1689    7.2605  -10.6629 C   0  0  0  0  0  0  0  0  0  0  0  0
   -7.2557    6.3918  -11.5288 C   0  0  0  0  0  0  0  0  0  0  0  0
   -5.8000    6.4829  -11.0546 C   0  0  0  0  0  0  0  0  0  0  0  0
   -7.7969    4.9222  -11.7305 C   0  0  1  0  0  0  0  0  0  0  0  0
   -8.1713    4.9148  -13.2878 C   0  0  0  0  0  0  0  0  0  0  0  0
   -9.2259    5.1747  -13.7367 O   0  0  0  0  0  0  0  0  0  0  0  0
   -6.8023    4.5941  -14.0107 N   0  0  0  0  0  0  0  0  0  0  0  0
   -6.4687    4.6254  -15.3455 C   0  0  0  0  0  0  0  0  0  0  0  0
   -4.9994    4.6065  -15.4990 C   0  0  0  0  0  0  0  0  0  0  0  0
   -4.4247    4.9244  -16.6649 C   0  0  0  0  0  0  0  0  0  0  0  0
   -5.2356    5.2989  -17.7125 N   0  0  0  0  0  0  0  0  0  0  0  0
   -4.8621    5.8423  -18.9097 C   0  0  0  0  0  0  0  0  0  0  0  0
   -6.0379    6.2411  -19.4854 C   0  0  0  0  0  0  0  0  0  0  0  0
   -7.1092    5.9289  -18.6882 N   0  0  0  0  0  0  0  0  0  0  0  0
   -6.6209    5.2786  -17.6524 C   0  0  0  0  0  0  0  0  0  0  0  0
   -7.2393    4.7613  -16.4553 C   0  0  0  0  0  0  0  0  0  0  0  0
   -9.0370    4.3094  -16.6331 Br  0  0  0  0  0  0  0  0  0  0  0  0
   -6.7441    3.9793  -11.5864 O   0  0  0  0  0  0  0  0  0  0  0  0
   -7.0324    3.2150  -10.5073 C   0  0  0  0  0  0  0  0  0  0  0  0
   -6.3548    2.2650  -10.1665 O   0  0  0  0  0  0  0  0  0  0  0  0
   -8.2199    3.7682   -9.7901 C   0  0  0  0  0  0  0  0  0  0  0  0
   -9.1696    2.6526   -9.4304 C   0  0  0  0  0  0  0  0  0  0  0  0
   -7.8075    4.5001   -8.5172 C   0  0  0  0  0  0  0  0  0  0  0  0
   -8.7875    4.6491  -10.7624 O   0  0  0  0  0  0  0  0  0  0  0  0
  1  2  1  0
  2  3  1  0
  4  2  1  1
  4  5  1  0
  5  6  2  0
  5  7  1  0
  7  8  1  0
  8  9  1  0
  9 10  2  0
 10 11  1  0
 11 12  1  0
 12 13  2  0
 13 14  1  0
 14 15  2  0
 15 16  1  0
 16 17  1  0
  4 18  1  0
 18 19  1  0
 19 20  2  0
 19 21  1  0
 21 22  1  0
 21 23  1  0
 21 24  1  0
 24  4  1  0
 16  8  2  0
 15 11  1  0
M  END
>  <energy_score>  (569) 
-26.713582

>  <alias>  (569) 
None

>  <HIPPO Pose ID>  (569) 
69882

>  <smiles>  (569) 
CC(C)[C@@]1(C(=O)Nc2ccn3ccnc3c2Br)OC(=O)C(C)(C)O1

>  <inchikey>  (569) 
CFBZXRVAFOJDPW-MRXNPFEDSA-N

>  <distance_score>  (569) 
1.417056

>  <ref_mols>  (569) 
Z1046b,Z1495a

>  <ref_pdb>  (569) 
Z1495a

>  <HIPPO Compound ID>  (569) 
139262

>  <name>  (569) 
P69882

>  <inspiration_score>  (569) 
None

$$$$
P69884
     RDKit          3D

 24 27  0  0  0  0  0  0  0  0999 V2000
   -9.7258    2.2637   -6.9103 C   0  0  0  0  0  0  0  0  0  0  0  0
   -9.2743    2.6946   -8.1939 O   0  0  0  0  0  0  0  0  0  0  0  0
   -8.7315    3.9416   -8.2215 C   0  0  0  0  0  0  0  0  0  0  0  0
   -8.7426    4.7283   -7.2781 O   0  0  0  0  0  0  0  0  0  0  0  0
   -8.0728    4.2327   -9.5811 C   0  0  2  0  0  0  0  0  0  0  0  0
   -7.1185    3.1149  -10.0172 C   0  0  0  0  0  0  0  0  0  0  0  0
   -7.0067    3.3414  -11.5179 C   0  0  0  0  0  0  0  0  0  0  0  0
   -7.8323    4.6143  -11.7157 C   0  0  2  0  0  0  0  0  0  0  0  0
   -8.2063    4.8533  -13.2018 C   0  0  0  0  0  0  0  0  0  0  0  0
   -9.3098    4.8870  -13.5968 O   0  0  0  0  0  0  0  0  0  0  0  0
   -6.8452    4.9815  -13.9752 N   0  0  0  0  0  0  0  0  0  0  0  0
   -6.5937    5.0740  -15.3065 C   0  0  0  0  0  0  0  0  0  0  0  0
   -7.6525    4.7253  -16.2337 C   0  0  0  0  0  0  0  0  0  0  0  0
   -7.4533    4.8358  -17.5579 C   0  0  0  0  0  0  0  0  0  0  0  0
   -8.8142    4.3271  -18.7094 Br  0  0  0  0  0  0  0  0  0  0  0  0
   -6.2251    5.3404  -18.0044 N   0  0  0  0  0  0  0  0  0  0  0  0
   -5.7788    5.6991  -19.2473 C   0  0  0  0  0  0  0  0  0  0  0  0
   -4.5123    6.1965  -19.0958 C   0  0  0  0  0  0  0  0  0  0  0  0
   -4.1337    6.1525  -17.7860 N   0  0  0  0  0  0  0  0  0  0  0  0
   -5.1706    5.6486  -17.1451 C   0  0  0  0  0  0  0  0  0  0  0  0
   -5.3804    5.4492  -15.7541 C   0  0  0  0  0  0  0  0  0  0  0  0
   -7.1406    5.8322  -11.0930 C   0  0  0  0  0  0  0  0  0  0  0  0
   -7.3416    5.5850   -9.5997 C   0  0  0  0  0  0  0  0  0  0  0  0
   -8.8779    4.3893  -10.7594 O   0  0  0  0  0  0  0  0  0  0  0  0
  1  2  1  0
  2  3  1  0
  3  4  2  0
  5  3  1  1
  5  6  1  0
  6  7  1  0
  7  8  1  0
  8  9  1  6
  9 10  2  0
  9 11  1  0
 11 12  1  0
 12 13  1  0
 13 14  2  0
 14 15  1  0
 14 16  1  0
 16 17  1  0
 17 18  2  0
 18 19  1  0
 19 20  2  0
 20 21  1  0
  8 22  1  0
 22 23  1  0
  8 24  1  0
 23  5  1  0
 24  5  1  0
 21 12  2  0
 20 16  1  0
M  END
>  <energy_score>  (570) 
-8.328332

>  <alias>  (570) 
None

>  <HIPPO Pose ID>  (570) 
69884

>  <smiles>  (570) 
COC(=O)[C@]12CC[C@](C(=O)Nc3cc(Br)n4ccnc4c3)(CC1)O2

>  <inchikey>  (570) 
XEDIJGSXZIAXOZ-IYBDPMFKSA-N

>  <distance_score>  (570) 
1.375338

>  <ref_mols>  (570) 
Z1046b,Z1495a

>  <ref_pdb>  (570) 
Z1495a

>  <HIPPO Compound ID>  (570) 
139263

>  <name>  (570) 
P69884

>  <inspiration_score>  (570) 
None

$$$$
P69886
     RDKit          3D

 24 27  0  0  0  0  0  0  0  0999 V2000
   -9.2201    5.0808  -14.0177 O   0  0  0  0  0  0  0  0  0  0  0  0
   -8.1848    4.6523  -13.6689 C   0  0  0  0  0  0  0  0  0  0  0  0
   -6.8576    4.4019  -14.4823 N   0  0  0  0  0  0  0  0  0  0  0  0
   -6.5446    4.6991  -15.7664 C   0  0  0  0  0  0  0  0  0  0  0  0
   -7.5488    4.9233  -16.7941 C   0  0  0  0  0  0  0  0  0  0  0  0
   -7.1414    5.2568  -18.0361 C   0  0  0  0  0  0  0  0  0  0  0  0
   -5.7769    5.3984  -18.2897 N   0  0  0  0  0  0  0  0  0  0  0  0
   -5.1015    5.8332  -19.4000 C   0  0  0  0  0  0  0  0  0  0  0  0
   -3.7775    5.7795  -19.0515 C   0  0  0  0  0  0  0  0  0  0  0  0
   -2.7746    6.1072  -19.8626 O   0  0  0  0  0  0  0  0  0  0  0  0
   -3.5812    5.3593  -17.7861 N   0  0  0  0  0  0  0  0  0  0  0  0
   -4.7978    5.1477  -17.3377 C   0  0  0  0  0  0  0  0  0  0  0  0
   -5.2299    4.7608  -16.0547 C   0  0  0  0  0  0  0  0  0  0  0  0
   -7.7584    4.2659  -12.2183 C   0  0  2  0  0  0  0  0  0  0  0  0
   -7.4886    2.7636  -12.1614 C   0  0  0  0  0  0  0  0  0  0  0  0
   -6.5433    2.4726  -11.0059 C   0  0  0  0  0  0  0  0  0  0  0  0
   -6.6251    3.5523   -9.9341 C   0  0  0  0  0  0  0  0  0  0  0  0
   -8.0511    4.1364   -9.8200 C   0  0  0  0  0  0  0  0  0  0  0  0
   -8.0685    5.3383   -8.8566 C   0  0  0  0  0  0  0  0  0  0  0  0
   -8.4820    5.0080   -7.4210 C   0  0  0  0  0  0  0  0  0  0  0  0
   -8.1208    3.6007   -6.9838 C   0  0  0  0  0  0  0  0  0  0  0  0
   -8.6480    2.5099   -7.9085 C   0  0  0  0  0  0  0  0  0  0  0  0
   -8.9992    3.0395   -9.2945 C   0  0  0  0  0  0  0  0  0  0  0  0
   -8.5324    4.6503  -11.0969 O   0  0  0  0  0  0  0  0  0  0  0  0
  1  2  2  0
  2  3  1  0
  3  4  1  0
  4  5  1  0
  5  6  2  0
  6  7  1  0
  7  8  1  0
  8  9  2  0
  9 10  1  0
  9 11  1  0
 11 12  2  0
 12 13  1  0
 14  2  1  6
 14 15  1  0
 15 16  1  0
 16 17  1  0
 17 18  1  0
 18 19  1  0
 19 20  1  0
 20 21  1  0
 21 22  1  0
 22 23  1  0
 18 24  1  0
 13  4  2  0
 24 14  1  0
 12  7  1  0
 23 18  1  0
M  END
>  <energy_score>  (571) 
-32.359946

>  <alias>  (571) 
None

>  <HIPPO Pose ID>  (571) 
69886

>  <smiles>  (571) 
O=C(Nc1ccn2cc(O)nc2c1)[C@@H]1CCCC2(CCCCC2)O1

>  <inchikey>  (571) 
QNVWSTHVBDMXFE-AWEZNQCLSA-N

>  <distance_score>  (571) 
1.430217

>  <ref_mols>  (571) 
Z1046b,Z1495a

>  <ref_pdb>  (571) 
Z1495a

>  <HIPPO Compound ID>  (571) 
139268

>  <name>  (571) 
P69886

>  <inspiration_score>  (571) 
None

$$$$
P69887
     RDKit          3D

 24 27  0  0  0  0  0  0  0  0999 V2000
   -9.3102    5.3983  -15.0173 O   0  0  0  0  0  0  0  0  0  0  0  0
   -8.3947    5.0506  -14.3806 C   0  0  0  0  0  0  0  0  0  0  0  0
   -6.9671    4.6385  -14.8170 N   0  0  0  0  0  0  0  0  0  0  0  0
   -6.3787    4.6589  -16.0409 C   0  0  0  0  0  0  0  0  0  0  0  0
   -7.2139    4.8976  -17.2122 C   0  0  0  0  0  0  0  0  0  0  0  0
   -6.6357    5.3252  -18.3444 C   0  0  0  0  0  0  0  0  0  0  0  0
   -5.2538    5.4536  -18.3867 N   0  0  0  0  0  0  0  0  0  0  0  0
   -4.4288    6.0701  -19.2900 C   0  0  0  0  0  0  0  0  0  0  0  0
   -4.9148    7.1750  -20.7408 Br  0  0  0  0  0  0  0  0  0  0  0  0
   -3.1461    5.8453  -18.8586 C   0  0  0  0  0  0  0  0  0  0  0  0
   -3.1420    5.1690  -17.6690 N   0  0  0  0  0  0  0  0  0  0  0  0
   -4.4166    5.0223  -17.3602 C   0  0  0  0  0  0  0  0  0  0  0  0
   -5.0354    4.6261  -16.1426 C   0  0  0  0  0  0  0  0  0  0  0  0
   -8.4112    5.0349  -12.8527 C   0  0  2  0  0  0  0  0  0  0  0  0
   -8.5199    6.4930  -12.4183 C   0  0  0  0  0  0  0  0  0  0  0  0
   -8.0818    6.7083  -10.9798 C   0  0  0  0  0  0  0  0  0  0  0  0
   -8.2671    5.4537  -10.1603 C   0  0  0  0  0  0  0  0  0  0  0  0
   -7.5355    4.2588  -10.7963 C   0  0  0  0  0  0  0  0  0  0  0  0
   -8.3152    2.9537  -10.5825 C   0  0  0  0  0  0  0  0  0  0  0  0
   -8.5537    2.6791   -9.1006 C   0  0  0  0  0  0  0  0  0  0  0  0
   -7.6399    3.4076   -8.2852 O   0  0  0  0  0  0  0  0  0  0  0  0
   -6.3164    3.3328   -8.8074 C   0  0  0  0  0  0  0  0  0  0  0  0
   -6.1735    4.0789  -10.1288 C   0  0  0  0  0  0  0  0  0  0  0  0
   -7.2813    4.4780  -12.2022 O   0  0  0  0  0  0  0  0  0  0  0  0
  1  2  2  0
  2  3  1  0
  3  4  1  0
  4  5  1  0
  5  6  2  0
  6  7  1  0
  7  8  1  0
  8  9  1  0
  8 10  2  0
 10 11  1  0
 11 12  2  0
 12 13  1  0
 14  2  1  6
 14 15  1  0
 15 16  1  0
 16 17  1  0
 17 18  1  0
 18 19  1  0
 19 20  1  0
 20 21  1  0
 21 22  1  0
 22 23  1  0
 18 24  1  0
 13  4  2  0
 24 14  1  0
 12  7  1  0
 23 18  1  0
M  END
>  <energy_score>  (572) 
-45.740575

>  <alias>  (572) 
None

>  <HIPPO Pose ID>  (572) 
69887

>  <smiles>  (572) 
O=C(Nc1ccn2c(Br)cnc2c1)[C@@H]1CCCC2(CCOCC2)O1

>  <inchikey>  (572) 
WPKTXQCPKVFCBL-ZDUSSCGKSA-N

>  <distance_score>  (572) 
1.658307

>  <ref_mols>  (572) 
Z1046b,Z1495a

>  <ref_pdb>  (572) 
Z1495a

>  <HIPPO Compound ID>  (572) 
139269

>  <name>  (572) 
P69887

>  <inspiration_score>  (572) 
None

$$$$
P69891
     RDKit          3D

 24 27  0  0  0  0  0  0  0  0999 V2000
   -9.0702    5.0993  -13.6726 O   0  0  0  0  0  0  0  0  0  0  0  0
   -7.9542    4.9617  -13.3369 C   0  0  0  0  0  0  0  0  0  0  0  0
   -6.6207    5.0451  -14.1714 N   0  0  0  0  0  0  0  0  0  0  0  0
   -6.4261    5.2072  -15.4993 C   0  0  0  0  0  0  0  0  0  0  0  0
   -7.5068    4.8297  -16.3826 C   0  0  0  0  0  0  0  0  0  0  0  0
   -7.3525    4.9333  -17.7118 C   0  0  0  0  0  0  0  0  0  0  0  0
   -8.7341    4.3413  -18.7935 Br  0  0  0  0  0  0  0  0  0  0  0  0
   -6.1555    5.4767  -18.2001 N   0  0  0  0  0  0  0  0  0  0  0  0
   -5.7563    5.8525  -19.4518 C   0  0  0  0  0  0  0  0  0  0  0  0
   -4.4963    6.3716  -19.3518 C   0  0  0  0  0  0  0  0  0  0  0  0
   -4.0756    6.3378  -18.0574 N   0  0  0  0  0  0  0  0  0  0  0  0
   -5.0808    5.8176  -17.3784 C   0  0  0  0  0  0  0  0  0  0  0  0
   -5.2379    5.6130  -15.9827 C   0  0  0  0  0  0  0  0  0  0  0  0
   -7.4936    4.5407  -11.9377 C   0  0  2  0  0  0  0  0  0  0  0  0
   -7.1540    3.0521  -12.0235 C   0  0  0  0  0  0  0  0  0  0  0  0
   -6.3648    2.6534  -10.9031 O   0  0  0  0  0  0  0  0  0  0  0  0
   -6.5626    3.4787   -9.7528 C   0  0  0  0  0  0  0  0  0  0  0  0
   -7.9966    4.0596   -9.6534 C   0  0  0  0  0  0  0  0  0  0  0  0
   -8.0852    5.0813   -8.5138 C   0  0  0  0  0  0  0  0  0  0  0  0
   -8.5408    4.4530   -7.2049 C   0  0  0  0  0  0  0  0  0  0  0  0
   -8.0999    3.1132   -7.1007 O   0  0  0  0  0  0  0  0  0  0  0  0
   -8.7082    2.2270   -8.0425 C   0  0  0  0  0  0  0  0  0  0  0  0
   -8.9816    2.9162   -9.3730 C   0  0  0  0  0  0  0  0  0  0  0  0
   -8.3819    4.7802  -10.8572 O   0  0  0  0  0  0  0  0  0  0  0  0
  1  2  2  0
  2  3  1  0
  3  4  1  0
  4  5  1  0
  5  6  2  0
  6  7  1  0
  6  8  1  0
  8  9  1  0
  9 10  2  0
 10 11  1  0
 11 12  2  0
 12 13  1  0
 14  2  1  6
 14 15  1  0
 15 16  1  0
 16 17  1  0
 17 18  1  0
 18 19  1  0
 19 20  1  0
 20 21  1  0
 21 22  1  0
 22 23  1  0
 18 24  1  0
 13  4  2  0
 24 14  1  0
 12  8  1  0
 23 18  1  0
M  END
>  <energy_score>  (573) 
-32.221072

>  <alias>  (573) 
None

>  <HIPPO Pose ID>  (573) 
69891

>  <smiles>  (573) 
O=C(Nc1cc(Br)n2ccnc2c1)[C@@H]1COCC2(CCOCC2)O1

>  <inchikey>  (573) 
IHALPTWHESOJMN-LBPRGKRZSA-N

>  <distance_score>  (573) 
1.544092

>  <ref_mols>  (573) 
Z1046b,Z1495a

>  <ref_pdb>  (573) 
Z1495a

>  <HIPPO Compound ID>  (573) 
139271

>  <name>  (573) 
P69891

>  <inspiration_score>  (573) 
None

$$$$
P69893
     RDKit          3D

 24 27  0  0  0  0  0  0  0  0999 V2000
   -9.4308    4.6796  -14.3066 O   0  0  0  0  0  0  0  0  0  0  0  0
   -8.3751    4.5406  -13.8191 C   0  0  0  0  0  0  0  0  0  0  0  0
   -6.9517    4.7927  -14.4036 N   0  0  0  0  0  0  0  0  0  0  0  0
   -6.5632    5.1513  -15.6534 C   0  0  0  0  0  0  0  0  0  0  0  0
   -7.4895    5.0841  -16.7808 C   0  0  0  0  0  0  0  0  0  0  0  0
   -7.0220    5.2852  -18.0282 C   0  0  0  0  0  0  0  0  0  0  0  0
   -5.6690    5.5574  -18.2050 N   0  0  0  0  0  0  0  0  0  0  0  0
   -4.9501    5.8540  -19.3323 C   0  0  0  0  0  0  0  0  0  0  0  0
   -3.6572    5.9782  -18.9009 C   0  0  0  0  0  0  0  0  0  0  0  0
   -2.6241    6.2424  -19.6966 O   0  0  0  0  0  0  0  0  0  0  0  0
   -3.5288    5.8344  -17.5658 N   0  0  0  0  0  0  0  0  0  0  0  0
   -4.7566    5.6024  -17.1569 C   0  0  0  0  0  0  0  0  0  0  0  0
   -5.2523    5.3857  -15.8528 C   0  0  0  0  0  0  0  0  0  0  0  0
   -8.1591    3.9260  -12.4045 C   0  0  1  0  0  0  0  0  0  0  0  0
   -7.1950    2.7201  -12.4635 C   0  0  0  0  0  0  0  0  0  0  0  0
   -6.6833    2.2575  -11.1123 C   0  0  0  0  0  0  0  0  0  0  0  0
   -6.3447    3.4300  -10.2170 C   0  0  0  0  0  0  0  0  0  0  0  0
   -7.5433    4.3803  -10.1277 C   0  0  0  0  0  0  0  0  0  0  0  0
   -7.2288    5.5776   -9.2196 C   0  0  0  0  0  0  0  0  0  0  0  0
   -7.7783    5.4009   -7.8050 C   0  0  0  0  0  0  0  0  0  0  0  0
   -7.7098    4.0484   -7.3826 O   0  0  0  0  0  0  0  0  0  0  0  0
   -8.5543    3.1716   -8.1235 C   0  0  0  0  0  0  0  0  0  0  0  0
   -8.7760    3.6652   -9.5472 C   0  0  0  0  0  0  0  0  0  0  0  0
   -7.7553    4.9128  -11.4578 O   0  0  0  0  0  0  0  0  0  0  0  0
  1  2  2  0
  2  3  1  0
  3  4  1  0
  4  5  1  0
  5  6  2  0
  6  7  1  0
  7  8  1  0
  8  9  2  0
  9 10  1  0
  9 11  1  0
 11 12  2  0
 12 13  1  0
 14  2  1  6
 14 15  1  0
 15 16  1  0
 16 17  1  0
 17 18  1  0
 18 19  1  0
 19 20  1  0
 20 21  1  0
 21 22  1  0
 22 23  1  0
 18 24  1  0
 13  4  2  0
 24 14  1  0
 12  7  1  0
 23 18  1  0
M  END
>  <energy_score>  (574) 
-51.852098

>  <alias>  (574) 
None

>  <HIPPO Pose ID>  (574) 
69893

>  <smiles>  (574) 
O=C(Nc1ccn2cc(O)nc2c1)[C@H]1CCCC2(CCOCC2)O1

>  <inchikey>  (574) 
MXWGKIBQBSADFW-CYBMUJFWSA-N

>  <distance_score>  (574) 
1.498104

>  <ref_mols>  (574) 
Z1046b,Z1495a

>  <ref_pdb>  (574) 
Z1495a

>  <HIPPO Compound ID>  (574) 
139273

>  <name>  (574) 
P69893

>  <inspiration_score>  (574) 
None

$$$$
P69900
     RDKit          3D

 25 28  0  0  0  0  0  0  0  0999 V2000
   -8.2138    1.4735   -7.7587 C   0  0  0  0  0  0  0  0  0  0  0  0
   -8.1177    2.6225   -8.5845 O   0  0  0  0  0  0  0  0  0  0  0  0
   -7.0567    2.7040   -9.4314 C   0  0  0  0  0  0  0  0  0  0  0  0
   -6.0562    1.9918   -9.4221 O   0  0  0  0  0  0  0  0  0  0  0  0
   -7.3348    3.7614  -10.4828 C   0  0  2  0  0  0  0  0  0  0  0  0
   -8.5203    3.4214  -11.4708 C   0  0  0  0  0  0  0  0  0  0  0  0
   -7.8787    4.6215  -12.2181 C   0  0  2  0  0  0  0  0  0  0  0  0
   -8.2023    4.8550  -13.7447 C   0  0  0  0  0  0  0  0  0  0  0  0
   -9.2803    5.0134  -14.1771 O   0  0  0  0  0  0  0  0  0  0  0  0
   -6.8283    4.7847  -14.4667 N   0  0  0  0  0  0  0  0  0  0  0  0
   -6.5080    4.9759  -15.7662 C   0  0  0  0  0  0  0  0  0  0  0  0
   -7.4926    4.9618  -16.8370 C   0  0  0  0  0  0  0  0  0  0  0  0
   -7.0811    5.2209  -18.0943 C   0  0  0  0  0  0  0  0  0  0  0  0
   -5.7343    5.4991  -18.3219 N   0  0  0  0  0  0  0  0  0  0  0  0
   -5.0699    5.9013  -19.4475 C   0  0  0  0  0  0  0  0  0  0  0  0
   -3.7607    6.0216  -19.0688 C   0  0  0  0  0  0  0  0  0  0  0  0
   -2.7681    6.3764  -19.8800 O   0  0  0  0  0  0  0  0  0  0  0  0
   -3.5691    5.7742  -17.7612 N   0  0  0  0  0  0  0  0  0  0  0  0
   -4.7685    5.4626  -17.3261 C   0  0  0  0  0  0  0  0  0  0  0  0
   -5.1997    5.1637  -16.0222 C   0  0  0  0  0  0  0  0  0  0  0  0
   -6.5441    3.8397  -11.8104 C   0  0  0  0  0  0  0  0  0  0  0  0
   -7.9764    5.7864  -11.3368 O   0  0  0  0  0  0  0  0  0  0  0  0
   -7.5424    5.2388  -10.0734 C   0  0  0  0  0  0  0  0  0  0  0  0
   -8.5768    5.4074   -8.9831 C   0  0  0  0  0  0  0  0  0  0  0  0
   -6.2798    5.9690   -9.6649 C   0  0  0  0  0  0  0  0  0  0  0  0
  1  2  1  0
  2  3  1  0
  3  4  2  0
  5  3  1  1
  5  6  1  0
  6  7  1  0
  7  8  1  6
  8  9  2  0
  8 10  1  0
 10 11  1  0
 11 12  1  0
 12 13  2  0
 13 14  1  0
 14 15  1  0
 15 16  2  0
 16 17  1  0
 16 18  1  0
 18 19  2  0
 19 20  1  0
  7 21  1  0
  7 22  1  0
 22 23  1  0
 23 24  1  0
 23 25  1  0
 21  5  1  0
 23  5  1  0
 20 11  2  0
 19 14  1  0
M  END
>  <energy_score>  (575) 
-59.612549

>  <alias>  (575) 
None

>  <HIPPO Pose ID>  (575) 
69900

>  <smiles>  (575) 
COC(=O)[C@]12C[C@](C(=O)Nc3ccn4cc(O)nc4c3)(C1)OC2(C)C

>  <inchikey>  (575) 
HZLWCCZNTRDMOH-CALCHBBNSA-N

>  <distance_score>  (575) 
1.426354

>  <ref_mols>  (575) 
Z1046b,Z1495a

>  <ref_pdb>  (575) 
Z1495a

>  <HIPPO Compound ID>  (575) 
139280

>  <name>  (575) 
P69900

>  <inspiration_score>  (575) 
None

$$$$
P69903
     RDKit          3D

 25 27  0  0  0  0  0  0  0  0999 V2000
   -3.6704    4.4274  -17.0948 C   0  0  0  0  0  0  0  0  0  0  0  0
   -3.2687    5.8193  -16.6155 C   0  0  0  0  0  0  0  0  0  0  0  0
   -2.6712    6.5673  -17.8290 C   0  0  0  0  0  0  0  0  0  0  0  0
   -2.1743    5.7370  -15.5425 C   0  0  0  0  0  0  0  0  0  0  0  0
   -4.3073    6.6720  -16.1143 O   0  0  0  0  0  0  0  0  0  0  0  0
   -5.5131    6.2036  -15.5158 C   0  0  2  0  0  0  0  0  0  0  0  0
   -5.4936    5.3219  -14.2204 C   0  0  0  0  0  0  0  0  0  0  0  0
   -4.6747    4.5137  -13.9920 O   0  0  0  0  0  0  0  0  0  0  0  0
   -6.8062    5.6946  -13.4325 N   0  0  0  0  0  0  0  0  0  0  0  0
   -7.2823    5.2364  -12.2350 C   0  0  0  0  0  0  0  0  0  0  0  0
   -7.9206    6.2776  -11.4225 C   0  0  0  0  0  0  0  0  0  0  0  0
   -8.3437    5.9858  -10.1835 C   0  0  0  0  0  0  0  0  0  0  0  0
   -8.2318    4.6812   -9.7237 N   0  0  0  0  0  0  0  0  0  0  0  0
   -8.5642    4.1617   -8.4999 C   0  0  0  0  0  0  0  0  0  0  0  0
   -8.2998    2.8163   -8.5896 C   0  0  0  0  0  0  0  0  0  0  0  0
   -7.7843    2.5095   -9.8170 N   0  0  0  0  0  0  0  0  0  0  0  0
   -7.7278    3.6400  -10.4881 C   0  0  0  0  0  0  0  0  0  0  0  0
   -7.2301    3.9521  -11.7952 C   0  0  0  0  0  0  0  0  0  0  0  0
   -6.6460    2.4699  -12.7837 Br  0  0  0  0  0  0  0  0  0  0  0  0
   -6.4467    5.6699  -16.5935 C   0  0  0  0  0  0  0  0  0  0  0  0
   -7.3549    4.6237  -16.4220 C   0  0  0  0  0  0  0  0  0  0  0  0
   -8.0251    4.0991  -17.5165 C   0  0  0  0  0  0  0  0  0  0  0  0
   -7.7164    4.5399  -18.7876 C   0  0  0  0  0  0  0  0  0  0  0  0
   -6.8464    5.5992  -18.9591 C   0  0  0  0  0  0  0  0  0  0  0  0
   -6.3128    6.2266  -17.8637 C   0  0  0  0  0  0  0  0  0  0  0  0
  1  2  1  0
  2  3  1  0
  2  4  1  0
  2  5  1  0
  6  5  1  6
  6  7  1  0
  7  8  2  0
  7  9  1  0
  9 10  1  0
 10 11  1  0
 11 12  2  0
 12 13  1  0
 13 14  1  0
 14 15  2  0
 15 16  1  0
 16 17  2  0
 17 18  1  0
 18 19  1  0
  6 20  1  0
 20 21  2  0
 21 22  1  0
 22 23  2  0
 23 24  1  0
 24 25  2  0
 18 10  2  0
 25 20  1  0
 17 13  1  0
M  END
>  <energy_score>  (576) 
-28.73273

>  <alias>  (576) 
None

>  <HIPPO Pose ID>  (576) 
69903

>  <smiles>  (576) 
CC(C)(C)O[C@H](C(=O)Nc1ccn2ccnc2c1Br)c1ccccc1

>  <inchikey>  (576) 
FFNSDHRNVADUOD-INIZCTEOSA-N

>  <distance_score>  (576) 
1.890474

>  <ref_mols>  (576) 
Z1046b,Z1495a

>  <ref_pdb>  (576) 
Z1495a

>  <HIPPO Compound ID>  (576) 
139286

>  <name>  (576) 
P69903

>  <inspiration_score>  (576) 
None

$$$$
P69907
     RDKit          3D

 25 27  0  0  0  0  0  0  0  0999 V2000
   -3.2542    4.9978  -18.0447 C   0  0  0  0  0  0  0  0  0  0  0  0
   -3.5490    5.8665  -16.8159 C   0  0  0  0  0  0  0  0  0  0  0  0
   -3.2667    7.3119  -17.2468 C   0  0  0  0  0  0  0  0  0  0  0  0
   -2.6246    5.4944  -15.6511 C   0  0  0  0  0  0  0  0  0  0  0  0
   -4.9278    5.8491  -16.3758 O   0  0  0  0  0  0  0  0  0  0  0  0
   -5.4708    4.5764  -16.0418 C   0  0  1  0  0  0  0  0  0  0  0  0
   -5.5679    4.1402  -14.5479 C   0  0  0  0  0  0  0  0  0  0  0  0
   -5.0887    3.1335  -14.1867 O   0  0  0  0  0  0  0  0  0  0  0  0
   -6.4431    5.1770  -13.7768 N   0  0  0  0  0  0  0  0  0  0  0  0
   -6.9532    5.1386  -12.5115 C   0  0  0  0  0  0  0  0  0  0  0  0
   -7.4960    6.3541  -11.9215 C   0  0  0  0  0  0  0  0  0  0  0  0
   -8.0057    6.3218  -10.6700 C   0  0  0  0  0  0  0  0  0  0  0  0
   -8.6405    7.8815   -9.8575 Br  0  0  0  0  0  0  0  0  0  0  0  0
   -8.0511    5.0920   -9.9890 N   0  0  0  0  0  0  0  0  0  0  0  0
   -8.4601    4.7639   -8.7144 C   0  0  0  0  0  0  0  0  0  0  0  0
   -8.3428    3.3964   -8.6196 C   0  0  0  0  0  0  0  0  0  0  0  0
   -7.8312    2.8767   -9.7720 N   0  0  0  0  0  0  0  0  0  0  0  0
   -7.6262    3.9018  -10.5641 C   0  0  0  0  0  0  0  0  0  0  0  0
   -7.0425    3.9641  -11.8537 C   0  0  0  0  0  0  0  0  0  0  0  0
   -6.7885    4.4531  -16.8011 C   0  0  0  0  0  0  0  0  0  0  0  0
   -6.6999    4.4223  -18.1963 C   0  0  0  0  0  0  0  0  0  0  0  0
   -7.8240    4.3029  -18.9767 C   0  0  0  0  0  0  0  0  0  0  0  0
   -9.0723    4.3055  -18.3907 C   0  0  0  0  0  0  0  0  0  0  0  0
   -9.2003    4.2984  -17.0131 C   0  0  0  0  0  0  0  0  0  0  0  0
   -8.0614    4.3395  -16.2194 C   0  0  0  0  0  0  0  0  0  0  0  0
  1  2  1  0
  2  3  1  0
  2  4  1  0
  2  5  1  0
  6  5  1  1
  6  7  1  0
  7  8  2  0
  7  9  1  0
  9 10  1  0
 10 11  1  0
 11 12  2  0
 12 13  1  0
 12 14  1  0
 14 15  1  0
 15 16  2  0
 16 17  1  0
 17 18  2  0
 18 19  1  0
  6 20  1  0
 20 21  2  0
 21 22  1  0
 22 23  2  0
 23 24  1  0
 24 25  2  0
 19 10  2  0
 25 20  1  0
 18 14  1  0
M  END
>  <energy_score>  (577) 
-43.161216

>  <alias>  (577) 
None

>  <HIPPO Pose ID>  (577) 
69907

>  <smiles>  (577) 
CC(C)(C)O[C@@H](C(=O)Nc1cc(Br)n2ccnc2c1)c1ccccc1

>  <inchikey>  (577) 
WNNYBSPVVRNISX-QGZVFWFLSA-N

>  <distance_score>  (577) 
1.698238

>  <ref_mols>  (577) 
Z1046b,Z1495a

>  <ref_pdb>  (577) 
Z1495a

>  <HIPPO Compound ID>  (577) 
139292

>  <name>  (577) 
P69907

>  <inspiration_score>  (577) 
None

$$$$
P69909
     RDKit          3D

 25 28  0  0  0  0  0  0  0  0999 V2000
   -8.1852    1.4157   -7.8253 C   0  0  0  0  0  0  0  0  0  0  0  0
   -8.0391    2.6385   -8.5284 O   0  0  0  0  0  0  0  0  0  0  0  0
   -6.9789    2.7561   -9.3713 C   0  0  0  0  0  0  0  0  0  0  0  0
   -5.9963    2.0212   -9.4202 O   0  0  0  0  0  0  0  0  0  0  0  0
   -7.2377    3.8929  -10.3411 C   0  0  2  0  0  0  0  0  0  0  0  0
   -8.4179    3.6256  -11.3504 C   0  0  0  0  0  0  0  0  0  0  0  0
   -7.7579    4.8735  -12.0104 C   0  0  2  0  0  0  0  0  0  0  0  0
   -8.1051    5.1485  -13.4914 C   0  0  0  0  0  0  0  0  0  0  0  0
   -9.2062    5.0917  -13.8957 O   0  0  0  0  0  0  0  0  0  0  0  0
   -6.7621    5.3811  -14.2483 N   0  0  0  0  0  0  0  0  0  0  0  0
   -6.5074    5.4881  -15.5715 C   0  0  0  0  0  0  0  0  0  0  0  0
   -7.5158    4.9855  -16.4762 C   0  0  0  0  0  0  0  0  0  0  0  0
   -7.3115    5.0242  -17.8003 C   0  0  0  0  0  0  0  0  0  0  0  0
   -8.6083    4.2742  -18.8832 Br  0  0  0  0  0  0  0  0  0  0  0  0
   -6.1311    5.6135  -18.2711 N   0  0  0  0  0  0  0  0  0  0  0  0
   -5.7055    5.9566  -19.5240 C   0  0  0  0  0  0  0  0  0  0  0  0
   -4.4708    6.5291  -19.4031 C   0  0  0  0  0  0  0  0  0  0  0  0
   -4.1005    6.5776  -18.0933 N   0  0  0  0  0  0  0  0  0  0  0  0
   -5.1110    6.0538  -17.4260 C   0  0  0  0  0  0  0  0  0  0  0  0
   -5.3214    5.9290  -16.0268 C   0  0  0  0  0  0  0  0  0  0  0  0
   -6.4371    4.0657  -11.6622 C   0  0  0  0  0  0  0  0  0  0  0  0
   -7.8685    5.9757  -11.0607 O   0  0  0  0  0  0  0  0  0  0  0  0
   -7.4620    5.3368   -9.8311 C   0  0  0  0  0  0  0  0  0  0  0  0
   -8.5264    5.4311   -8.7593 C   0  0  0  0  0  0  0  0  0  0  0  0
   -6.2078    6.0326   -9.3505 C   0  0  0  0  0  0  0  0  0  0  0  0
  1  2  1  0
  2  3  1  0
  3  4  2  0
  5  3  1  1
  5  6  1  0
  6  7  1  0
  7  8  1  6
  8  9  2  0
  8 10  1  0
 10 11  1  0
 11 12  1  0
 12 13  2  0
 13 14  1  0
 13 15  1  0
 15 16  1  0
 16 17  2  0
 17 18  1  0
 18 19  2  0
 19 20  1  0
  7 21  1  0
  7 22  1  0
 22 23  1  0
 23 24  1  0
 23 25  1  0
 21  5  1  0
 23  5  1  0
 20 11  2  0
 19 15  1  0
M  END
>  <energy_score>  (578) 
-56.674219

>  <alias>  (578) 
None

>  <HIPPO Pose ID>  (578) 
69909

>  <smiles>  (578) 
COC(=O)[C@]12C[C@](C(=O)Nc3cc(Br)n4ccnc4c3)(C1)OC2(C)C

>  <inchikey>  (578) 
MOJIAZWUUZCERO-CALCHBBNSA-N

>  <distance_score>  (578) 
1.418581

>  <ref_mols>  (578) 
Z1046b,Z1495a

>  <ref_pdb>  (578) 
Z1495a

>  <HIPPO Compound ID>  (578) 
139294

>  <name>  (578) 
P69909

>  <inspiration_score>  (578) 
None

$$$$
P69912
     RDKit          3D

 25 28  0  0  0  0  0  0  0  0999 V2000
  -10.0789    2.1939   -6.1089 C   0  0  0  0  0  0  0  0  0  0  0  0
   -9.4997    3.5368   -6.4167 C   0  0  0  0  0  0  0  0  0  0  0  0
   -9.4322    4.4668   -5.6212 O   0  0  0  0  0  0  0  0  0  0  0  0
   -9.0707    3.5798   -7.7084 O   0  0  0  0  0  0  0  0  0  0  0  0
   -8.3879    4.7879   -8.0546 C   0  0  0  0  0  0  0  0  0  0  0  0
   -7.8144    4.7370   -9.4683 C   0  0  2  0  0  0  0  0  0  0  0  0
   -7.2082    3.3951   -9.8838 C   0  0  0  0  0  0  0  0  0  0  0  0
   -7.1638    3.5131  -11.4006 C   0  0  0  0  0  0  0  0  0  0  0  0
   -7.7732    4.8994  -11.6437 C   0  0  2  0  0  0  0  0  0  0  0  0
   -8.1838    5.0622  -13.1387 C   0  0  0  0  0  0  0  0  0  0  0  0
   -9.2869    5.2141  -13.5080 O   0  0  0  0  0  0  0  0  0  0  0  0
   -6.8364    5.0095  -13.9499 N   0  0  0  0  0  0  0  0  0  0  0  0
   -6.6130    5.0364  -15.2871 C   0  0  0  0  0  0  0  0  0  0  0  0
   -7.6941    4.7051  -16.1925 C   0  0  0  0  0  0  0  0  0  0  0  0
   -7.5063    4.7991  -17.5210 C   0  0  0  0  0  0  0  0  0  0  0  0
   -8.8913    4.3277  -18.6611 Br  0  0  0  0  0  0  0  0  0  0  0  0
   -6.2695    5.2676  -17.9866 N   0  0  0  0  0  0  0  0  0  0  0  0
   -5.8297    5.6067  -19.2359 C   0  0  0  0  0  0  0  0  0  0  0  0
   -4.5536    6.0843  -19.1045 C   0  0  0  0  0  0  0  0  0  0  0  0
   -4.1580    6.0377  -17.8004 N   0  0  0  0  0  0  0  0  0  0  0  0
   -5.1966    5.5557  -17.1457 C   0  0  0  0  0  0  0  0  0  0  0  0
   -5.3946    5.3724  -15.7534 C   0  0  0  0  0  0  0  0  0  0  0  0
   -6.8062    6.0115  -11.2066 C   0  0  0  0  0  0  0  0  0  0  0  0
   -6.8398    5.8974   -9.6928 C   0  0  0  0  0  0  0  0  0  0  0  0
   -8.7285    4.9736  -10.5680 O   0  0  0  0  0  0  0  0  0  0  0  0
  1  2  1  0
  2  3  2  0
  2  4  1  0
  4  5  1  0
  6  5  1  1
  6  7  1  0
  7  8  1  0
  8  9  1  0
  9 10  1  6
 10 11  2  0
 10 12  1  0
 12 13  1  0
 13 14  1  0
 14 15  2  0
 15 16  1  0
 15 17  1  0
 17 18  1  0
 18 19  2  0
 19 20  1  0
 20 21  2  0
 21 22  1  0
  9 23  1  0
 23 24  1  0
  9 25  1  0
 24  6  1  0
 25  6  1  0
 22 13  2  0
 21 17  1  0
M  END
>  <energy_score>  (579) 
-24.829866

>  <alias>  (579) 
None

>  <HIPPO Pose ID>  (579) 
69912

>  <smiles>  (579) 
CC(=O)OC[C@]12CC[C@](C(=O)Nc3cc(Br)n4ccnc4c3)(CC1)O2

>  <inchikey>  (579) 
MQYVDUZCDORYAQ-CALCHBBNSA-N

>  <distance_score>  (579) 
1.459071

>  <ref_mols>  (579) 
Z1046b,Z1495a

>  <ref_pdb>  (579) 
Z1495a

>  <HIPPO Compound ID>  (579) 
139300

>  <name>  (579) 
P69912

>  <inspiration_score>  (579) 
None

$$$$
P69914
     RDKit          3D

 26 28  0  0  0  0  0  0  0  0999 V2000
   -7.8129    3.7376   -7.3738 C   0  0  0  0  0  0  0  0  0  0  0  0
   -8.1529    3.5696   -8.7943 C   0  0  0  0  0  0  0  0  0  0  0  0
   -9.0301    2.6671   -9.3478 C   0  0  0  0  0  0  0  0  0  0  0  0
   -9.0998    2.8063  -10.6993 N   0  0  0  0  0  0  0  0  0  0  0  0
   -8.2614    3.7648  -10.9907 C   0  0  0  0  0  0  0  0  0  0  0  0
   -7.8905    4.2865  -12.2482 C   0  0  0  0  0  0  0  0  0  0  0  0
   -6.8936    5.1938  -12.3622 C   0  0  0  0  0  0  0  0  0  0  0  0
   -6.5179    5.4561  -13.6456 N   0  0  0  0  0  0  0  0  0  0  0  0
   -5.2239    6.1545  -14.2096 C   0  0  0  0  0  0  0  0  0  0  0  0
   -4.3337    6.6728  -13.6468 O   0  0  0  0  0  0  0  0  0  0  0  0
   -5.2990    5.9163  -15.8103 C   0  0  1  0  0  0  0  0  0  0  0  0
   -6.6342    6.4123  -16.3639 C   0  0  0  0  0  0  0  0  0  0  0  0
   -7.5000    5.3366  -16.9621 C   0  0  0  0  0  0  0  0  0  0  0  0
   -8.0504    5.5166  -18.2317 C   0  0  0  0  0  0  0  0  0  0  0  0
   -9.0432    4.6850  -18.7164 C   0  0  0  0  0  0  0  0  0  0  0  0
   -9.5119    3.6763  -17.9223 C   0  0  0  0  0  0  0  0  0  0  0  0
   -8.8939    3.4294  -16.7219 C   0  0  0  0  0  0  0  0  0  0  0  0
   -7.8400    4.1855  -16.2819 C   0  0  0  0  0  0  0  0  0  0  0  0
   -4.3123    6.5142  -16.6471 O   0  0  0  0  0  0  0  0  0  0  0  0
   -3.9354    5.8267  -17.8608 C   0  0  0  0  0  0  0  0  0  0  0  0
   -2.8615    4.8154  -17.4792 C   0  0  0  0  0  0  0  0  0  0  0  0
   -4.9916    5.1068  -18.7005 C   0  0  0  0  0  0  0  0  0  0  0  0
   -3.3498    6.9137  -18.7714 C   0  0  0  0  0  0  0  0  0  0  0  0
   -6.2740    5.7403  -11.1713 C   0  0  0  0  0  0  0  0  0  0  0  0
   -6.6638    5.2814   -9.9588 C   0  0  0  0  0  0  0  0  0  0  0  0
   -7.6318    4.2697   -9.8676 N   0  0  0  0  0  0  0  0  0  0  0  0
  1  2  1  0
  2  3  2  0
  3  4  1  0
  4  5  2  0
  5  6  1  0
  6  7  2  0
  7  8  1  0
  8  9  1  0
  9 10  2  0
  9 11  1  0
 11 12  1  6
 12 13  1  0
 13 14  2  0
 14 15  1  0
 15 16  2  0
 16 17  1  0
 17 18  2  0
 11 19  1  0
 19 20  1  0
 20 21  1  0
 20 22  1  0
 20 23  1  0
  7 24  1  0
 24 25  2  0
 25 26  1  0
 26  2  1  0
 26  5  1  0
 18 13  1  0
M  END
>  <energy_score>  (580) 
-8.442255

>  <alias>  (580) 
None

>  <HIPPO Pose ID>  (580) 
69914

>  <smiles>  (580) 
Cc1cnc2cc(NC(=O)[C@@H](Cc3ccccc3)OC(C)(C)C)ccn12

>  <inchikey>  (580) 
RECKGVUCWNHWEK-GOSISDBHSA-N

>  <distance_score>  (580) 
1.758382

>  <ref_mols>  (580) 
Z1046b,Z1495a

>  <ref_pdb>  (580) 
Z1495a

>  <HIPPO Compound ID>  (580) 
139304

>  <name>  (580) 
P69914

>  <inspiration_score>  (580) 
None

$$$$
P69916
     RDKit          3D

 26 28  0  0  0  0  0  0  0  0999 V2000
   -5.9775    7.0344  -18.7754 C   0  0  0  0  0  0  0  0  0  0  0  0
   -4.6082    6.5752  -18.2662 C   0  0  0  0  0  0  0  0  0  0  0  0
   -3.6326    7.7068  -18.6187 C   0  0  0  0  0  0  0  0  0  0  0  0
   -4.0669    5.3432  -18.9911 C   0  0  0  0  0  0  0  0  0  0  0  0
   -4.4908    6.4330  -16.8371 O   0  0  0  0  0  0  0  0  0  0  0  0
   -5.5400    5.8068  -16.1040 C   0  0  1  0  0  0  0  0  0  0  0  0
   -5.8184    4.3523  -16.5493 C   0  0  0  0  0  0  0  0  0  0  0  0
   -7.2339    4.1774  -17.0123 C   0  0  0  0  0  0  0  0  0  0  0  0
   -7.6030    4.2636  -18.3561 C   0  0  0  0  0  0  0  0  0  0  0  0
   -8.9402    4.3179  -18.7135 C   0  0  0  0  0  0  0  0  0  0  0  0
   -9.9158    4.2521  -17.7409 C   0  0  0  0  0  0  0  0  0  0  0  0
   -9.5459    4.0476  -16.4261 C   0  0  0  0  0  0  0  0  0  0  0  0
   -8.2220    3.9708  -16.0604 C   0  0  0  0  0  0  0  0  0  0  0  0
   -5.2523    5.6266  -14.5717 C   0  0  0  0  0  0  0  0  0  0  0  0
   -4.1836    5.4145  -14.1347 O   0  0  0  0  0  0  0  0  0  0  0  0
   -6.6531    5.6853  -13.8552 N   0  0  0  0  0  0  0  0  0  0  0  0
   -6.9991    5.4160  -12.5591 C   0  0  0  0  0  0  0  0  0  0  0  0
   -7.8537    6.4052  -11.9049 C   0  0  0  0  0  0  0  0  0  0  0  0
   -8.3261    6.1589  -10.6707 C   0  0  0  0  0  0  0  0  0  0  0  0
   -8.0576    4.9324  -10.0718 N   0  0  0  0  0  0  0  0  0  0  0  0
   -8.4295    4.4598   -8.8393 C   0  0  0  0  0  0  0  0  0  0  0  0
   -7.9904    3.1577   -8.7953 C   0  0  0  0  0  0  0  0  0  0  0  0
   -7.3049    2.8440   -9.9359 N   0  0  0  0  0  0  0  0  0  0  0  0
   -7.3231    3.9284  -10.6839 C   0  0  0  0  0  0  0  0  0  0  0  0
   -6.7542    4.2152  -11.9672 C   0  0  0  0  0  0  0  0  0  0  0  0
   -5.8258    2.7851  -12.7550 Br  0  0  0  0  0  0  0  0  0  0  0  0
  1  2  1  0
  2  3  1  0
  2  4  1  0
  2  5  1  0
  5  6  1  0
  6  7  1  6
  7  8  1  0
  8  9  2  0
  9 10  1  0
 10 11  2  0
 11 12  1  0
 12 13  2  0
  6 14  1  0
 14 15  2  0
 14 16  1  0
 16 17  1  0
 17 18  1  0
 18 19  2  0
 19 20  1  0
 20 21  1  0
 21 22  2  0
 22 23  1  0
 23 24  2  0
 24 25  1  0
 25 26  1  0
 13  8  1  0
 25 17  2  0
 24 20  1  0
M  END
>  <energy_score>  (581) 
-13.588591

>  <alias>  (581) 
None

>  <HIPPO Pose ID>  (581) 
69916

>  <smiles>  (581) 
CC(C)(C)O[C@@H](Cc1ccccc1)C(=O)Nc1ccn2ccnc2c1Br

>  <inchikey>  (581) 
GMQAAAFPANUGFS-INIZCTEOSA-N

>  <distance_score>  (581) 
1.671866

>  <ref_mols>  (581) 
Z1046b,Z1495a

>  <ref_pdb>  (581) 
Z1495a

>  <HIPPO Compound ID>  (581) 
139305

>  <name>  (581) 
P69916

>  <inspiration_score>  (581) 
None

$$$$
P69919
     RDKit          3D

 26 28  0  0  0  0  0  0  0  0999 V2000
   -6.0352    6.8874  -18.8379 C   0  0  0  0  0  0  0  0  0  0  0  0
   -4.7124    6.4834  -18.1817 C   0  0  0  0  0  0  0  0  0  0  0  0
   -3.7253    7.6081  -18.5389 C   0  0  0  0  0  0  0  0  0  0  0  0
   -4.0750    5.2187  -18.7589 C   0  0  0  0  0  0  0  0  0  0  0  0
   -4.7050    6.4395  -16.7473 O   0  0  0  0  0  0  0  0  0  0  0  0
   -5.7971    5.8997  -16.0036 C   0  0  1  0  0  0  0  0  0  0  0  0
   -5.9271    4.3742  -16.2301 C   0  0  0  0  0  0  0  0  0  0  0  0
   -7.2560    4.0779  -16.8780 C   0  0  0  0  0  0  0  0  0  0  0  0
   -7.4822    4.1707  -18.2507 C   0  0  0  0  0  0  0  0  0  0  0  0
   -8.7722    4.2438  -18.7521 C   0  0  0  0  0  0  0  0  0  0  0  0
   -9.8459    4.2160  -17.8934 C   0  0  0  0  0  0  0  0  0  0  0  0
   -9.6214    3.9647  -16.5598 C   0  0  0  0  0  0  0  0  0  0  0  0
   -8.3462    3.8181  -16.0654 C   0  0  0  0  0  0  0  0  0  0  0  0
   -5.6355    6.1956  -14.4513 C   0  0  0  0  0  0  0  0  0  0  0  0
   -4.6817    6.6852  -13.9746 O   0  0  0  0  0  0  0  0  0  0  0  0
   -6.9256    5.6099  -13.7719 N   0  0  0  0  0  0  0  0  0  0  0  0
   -7.2310    5.4370  -12.4534 C   0  0  0  0  0  0  0  0  0  0  0  0
   -6.6362    6.2737  -11.4286 C   0  0  0  0  0  0  0  0  0  0  0  0
   -6.8736    6.0122  -10.1246 C   0  0  0  0  0  0  0  0  0  0  0  0
   -6.1295    7.0816   -8.7822 Br  0  0  0  0  0  0  0  0  0  0  0  0
   -7.6615    4.8975   -9.7902 N   0  0  0  0  0  0  0  0  0  0  0  0
   -7.9894    4.3415   -8.5732 C   0  0  0  0  0  0  0  0  0  0  0  0
   -8.6963    3.1966   -8.8607 C   0  0  0  0  0  0  0  0  0  0  0  0
   -8.8735    3.0621  -10.2089 N   0  0  0  0  0  0  0  0  0  0  0  0
   -8.2516    4.0841  -10.7486 C   0  0  0  0  0  0  0  0  0  0  0  0
   -8.0552    4.4225  -12.1123 C   0  0  0  0  0  0  0  0  0  0  0  0
  1  2  1  0
  2  3  1  0
  2  4  1  0
  2  5  1  0
  5  6  1  0
  6  7  1  1
  7  8  1  0
  8  9  2  0
  9 10  1  0
 10 11  2  0
 11 12  1  0
 12 13  2  0
  6 14  1  0
 14 15  2  0
 14 16  1  0
 16 17  1  0
 17 18  1  0
 18 19  2  0
 19 20  1  0
 19 21  1  0
 21 22  1  0
 22 23  2  0
 23 24  1  0
 24 25  2  0
 25 26  1  0
 13  8  1  0
 26 17  2  0
 25 21  1  0
M  END
>  <energy_score>  (582) 
-21.091194

>  <alias>  (582) 
None

>  <HIPPO Pose ID>  (582) 
69919

>  <smiles>  (582) 
CC(C)(C)O[C@@H](Cc1ccccc1)C(=O)Nc1cc(Br)n2ccnc2c1

>  <inchikey>  (582) 
UZJWJSXRWOKFFP-INIZCTEOSA-N

>  <distance_score>  (582) 
1.741263

>  <ref_mols>  (582) 
Z1046b,Z1495a

>  <ref_pdb>  (582) 
Z1495a

>  <HIPPO Compound ID>  (582) 
139307

>  <name>  (582) 
P69919

>  <inspiration_score>  (582) 
None

$$$$
P69921
     RDKit          3D

 26 28  0  0  0  0  0  0  0  0999 V2000
   -8.4744    2.2262   -7.9872 C   0  0  0  0  0  0  0  0  0  0  0  0
   -8.1426    3.2743   -8.9819 C   0  0  0  0  0  0  0  0  0  0  0  0
   -8.5200    4.6026   -9.0201 C   0  0  0  0  0  0  0  0  0  0  0  0
   -8.0758    5.0824  -10.2269 N   0  0  0  0  0  0  0  0  0  0  0  0
   -8.3208    6.2958  -10.8763 C   0  0  0  0  0  0  0  0  0  0  0  0
   -7.7643    6.5291  -12.0844 C   0  0  0  0  0  0  0  0  0  0  0  0
   -6.8256    5.5547  -12.6256 C   0  0  0  0  0  0  0  0  0  0  0  0
   -6.2722    5.7117  -13.8647 N   0  0  0  0  0  0  0  0  0  0  0  0
   -4.9098    5.2213  -14.4310 C   0  0  0  0  0  0  0  0  0  0  0  0
   -4.0194    4.6752  -13.9002 O   0  0  0  0  0  0  0  0  0  0  0  0
   -4.8617    5.4509  -15.9770 C   0  0  1  0  0  0  0  0  0  0  0  0
   -5.4989    4.1484  -16.4919 C   0  0  0  0  0  0  0  0  0  0  0  0
   -6.9564    4.1685  -16.8775 C   0  0  0  0  0  0  0  0  0  0  0  0
   -7.3489    4.2038  -18.2201 C   0  0  0  0  0  0  0  0  0  0  0  0
   -8.6900    4.2811  -18.5754 C   0  0  0  0  0  0  0  0  0  0  0  0
   -9.6613    4.2860  -17.5930 C   0  0  0  0  0  0  0  0  0  0  0  0
   -9.2857    4.1589  -16.2668 C   0  0  0  0  0  0  0  0  0  0  0  0
   -7.9508    4.0734  -15.9102 C   0  0  0  0  0  0  0  0  0  0  0  0
   -5.3659    6.5616  -16.6740 O   0  0  0  0  0  0  0  0  0  0  0  0
   -4.9387    6.7530  -18.0524 C   0  0  0  0  0  0  0  0  0  0  0  0
   -3.9842    5.7354  -18.7068 C   0  0  0  0  0  0  0  0  0  0  0  0
   -4.1923    8.0869  -18.0521 C   0  0  0  0  0  0  0  0  0  0  0  0
   -6.1887    6.9285  -18.9225 C   0  0  0  0  0  0  0  0  0  0  0  0
   -6.6026    4.3899  -11.9739 C   0  0  0  0  0  0  0  0  0  0  0  0
   -7.2882    4.0862  -10.7708 C   0  0  0  0  0  0  0  0  0  0  0  0
   -7.3446    2.9845  -10.0603 N   0  0  0  0  0  0  0  0  0  0  0  0
  1  2  1  0
  2  3  2  0
  3  4  1  0
  4  5  1  0
  5  6  2  0
  6  7  1  0
  7  8  1  0
  8  9  1  0
  9 10  2  0
  9 11  1  0
 11 12  1  6
 12 13  1  0
 13 14  2  0
 14 15  1  0
 15 16  2  0
 16 17  1  0
 17 18  2  0
 11 19  1  0
 19 20  1  0
 20 21  1  0
 20 22  1  0
 20 23  1  0
  7 24  2  0
 24 25  1  0
 25 26  2  0
 26  2  1  0
 25  4  1  0
 18 13  1  0
M  END
>  <energy_score>  (583) 
-20.505919

>  <alias>  (583) 
None

>  <HIPPO Pose ID>  (583) 
69921

>  <smiles>  (583) 
Cc1cn2ccc(NC(=O)[C@@H](Cc3ccccc3)OC(C)(C)C)cc2n1

>  <inchikey>  (583) 
LXYDBAMXYBCFJH-GOSISDBHSA-N

>  <distance_score>  (583) 
1.739581

>  <ref_mols>  (583) 
Z1046b,Z1495a

>  <ref_pdb>  (583) 
Z1495a

>  <HIPPO Compound ID>  (583) 
139308

>  <name>  (583) 
P69921

>  <inspiration_score>  (583) 
None

$$$$
P69922
     RDKit          3D

 26 29  0  0  0  0  0  0  0  0999 V2000
   -8.0715    6.0112  -14.3561 O   0  0  0  0  0  0  0  0  0  0  0  0
   -7.2250    5.2411  -14.1025 C   0  0  0  0  0  0  0  0  0  0  0  0
   -6.0420    4.7016  -14.9861 N   0  0  0  0  0  0  0  0  0  0  0  0
   -5.7494    4.9192  -16.2925 C   0  0  0  0  0  0  0  0  0  0  0  0
   -4.3231    4.8332  -16.5904 C   0  0  0  0  0  0  0  0  0  0  0  0
   -3.8763    5.2503  -17.7811 C   0  0  0  0  0  0  0  0  0  0  0  0
   -4.7792    5.8143  -18.6644 N   0  0  0  0  0  0  0  0  0  0  0  0
   -4.5075    6.4900  -19.8207 C   0  0  0  0  0  0  0  0  0  0  0  0
   -5.6945    7.0817  -20.1641 C   0  0  0  0  0  0  0  0  0  0  0  0
   -6.6695    6.7954  -19.2432 N   0  0  0  0  0  0  0  0  0  0  0  0
   -6.1463    5.8987  -18.4279 C   0  0  0  0  0  0  0  0  0  0  0  0
   -6.6433    5.2268  -17.2629 C   0  0  0  0  0  0  0  0  0  0  0  0
   -8.4157    4.6079  -17.2645 Br  0  0  0  0  0  0  0  0  0  0  0  0
   -7.0114    4.5678  -12.7296 C   0  0  2  0  0  0  0  0  0  0  0  0
   -7.3214    3.0885  -12.9189 C   0  0  0  0  0  0  0  0  0  0  0  0
   -7.1032    2.3302  -11.6387 C   0  0  0  0  0  0  0  0  0  0  0  0
   -7.9676    2.9565  -10.5717 C   0  0  0  0  0  0  0  0  0  0  0  0
   -7.6346    4.4634  -10.4020 C   0  0  0  0  0  0  0  0  0  0  0  0
   -8.6606    5.0925   -9.4476 C   0  0  0  0  0  0  0  0  0  0  0  0
   -8.2107    5.2570   -7.9996 C   0  0  0  0  0  0  0  0  0  0  0  0
   -7.2972    4.1330   -7.5677 C   0  0  0  0  0  0  0  0  0  0  0  0
   -7.9993    2.9710   -7.5651 F   0  0  0  0  0  0  0  0  0  0  0  0
   -6.9136    4.3582   -6.2807 F   0  0  0  0  0  0  0  0  0  0  0  0
   -6.0563    4.0481   -8.4585 C   0  0  0  0  0  0  0  0  0  0  0  0
   -6.2306    4.7089   -9.8222 C   0  0  0  0  0  0  0  0  0  0  0  0
   -7.7756    5.1361  -11.6699 O   0  0  0  0  0  0  0  0  0  0  0  0
  1  2  2  0
  2  3  1  0
  3  4  1  0
  4  5  1  0
  5  6  2  0
  6  7  1  0
  7  8  1  0
  8  9  2  0
  9 10  1  0
 10 11  2  0
 11 12  1  0
 12 13  1  0
 14  2  1  6
 14 15  1  0
 15 16  1  0
 16 17  1  0
 17 18  1  0
 18 19  1  0
 19 20  1  0
 20 21  1  0
 21 22  1  0
 21 23  1  0
 21 24  1  0
 24 25  1  0
 18 26  1  0
 12  4  2  0
 26 14  1  0
 11  7  1  0
 25 18  1  0
M  END
>  <energy_score>  (584) 
-9.290571

>  <alias>  (584) 
None

>  <HIPPO Pose ID>  (584) 
69922

>  <smiles>  (584) 
O=C(Nc1ccn2ccnc2c1Br)[C@@H]1CCCC2(CCC(F)(F)CC2)O1

>  <inchikey>  (584) 
MENNPLANOAUYJJ-ZDUSSCGKSA-N

>  <distance_score>  (584) 
1.462793

>  <ref_mols>  (584) 
Z1046b,Z1495a

>  <ref_pdb>  (584) 
Z1495a

>  <HIPPO Compound ID>  (584) 
139309

>  <name>  (584) 
P69922

>  <inspiration_score>  (584) 
None

$$$$
P69925
     RDKit          3D

 26 29  0  0  0  0  0  0  0  0999 V2000
   -9.1844    5.6212  -14.6581 O   0  0  0  0  0  0  0  0  0  0  0  0
   -8.2114    5.2628  -14.1185 C   0  0  0  0  0  0  0  0  0  0  0  0
   -6.7644    5.1077  -14.6539 N   0  0  0  0  0  0  0  0  0  0  0  0
   -6.2700    5.2597  -15.9008 C   0  0  0  0  0  0  0  0  0  0  0  0
   -7.1783    5.2512  -17.0430 C   0  0  0  0  0  0  0  0  0  0  0  0
   -6.6729    5.4030  -18.2780 C   0  0  0  0  0  0  0  0  0  0  0  0
   -5.3022    5.5641  -18.4224 N   0  0  0  0  0  0  0  0  0  0  0  0
   -4.5500    5.8601  -19.5256 C   0  0  0  0  0  0  0  0  0  0  0  0
   -3.2628    5.8987  -19.0657 C   0  0  0  0  0  0  0  0  0  0  0  0
   -2.2117    6.1742  -19.8297 O   0  0  0  0  0  0  0  0  0  0  0  0
   -3.1602    5.6649  -17.7425 N   0  0  0  0  0  0  0  0  0  0  0  0
   -4.4058    5.4969  -17.3605 C   0  0  0  0  0  0  0  0  0  0  0  0
   -4.9385    5.3134  -16.0671 C   0  0  0  0  0  0  0  0  0  0  0  0
   -8.1923    4.7337  -12.6798 C   0  0  1  0  0  0  0  0  0  0  0  0
   -7.6933    3.2896  -12.7138 C   0  0  0  0  0  0  0  0  0  0  0  0
   -8.1559    2.5775  -11.4757 C   0  0  0  0  0  0  0  0  0  0  0  0
   -8.5708    3.5470  -10.3995 C   0  0  0  0  0  0  0  0  0  0  0  0
   -7.7174    4.8427  -10.3420 C   0  0  0  0  0  0  0  0  0  0  0  0
   -6.3957    4.4874   -9.6830 C   0  0  0  0  0  0  0  0  0  0  0  0
   -6.6362    3.8863   -8.2926 C   0  0  0  0  0  0  0  0  0  0  0  0
   -7.8627    4.4130   -7.5484 C   0  0  0  0  0  0  0  0  0  0  0  0
   -7.6495    4.3042   -6.2197 F   0  0  0  0  0  0  0  0  0  0  0  0
   -8.9853    3.6847   -7.7497 F   0  0  0  0  0  0  0  0  0  0  0  0
   -8.1581    5.8414   -7.9616 C   0  0  0  0  0  0  0  0  0  0  0  0
   -8.3356    5.9790   -9.4881 C   0  0  0  0  0  0  0  0  0  0  0  0
   -7.4638    5.4053  -11.6622 O   0  0  0  0  0  0  0  0  0  0  0  0
  1  2  2  0
  2  3  1  0
  3  4  1  0
  4  5  1  0
  5  6  2  0
  6  7  1  0
  7  8  1  0
  8  9  2  0
  9 10  1  0
  9 11  1  0
 11 12  2  0
 12 13  1  0
 14  2  1  6
 14 15  1  0
 15 16  1  0
 16 17  1  0
 17 18  1  0
 18 19  1  0
 19 20  1  0
 20 21  1  0
 21 22  1  0
 21 23  1  0
 21 24  1  0
 24 25  1  0
 18 26  1  0
 13  4  2  0
 26 14  1  0
 12  7  1  0
 25 18  1  0
M  END
>  <energy_score>  (585) 
-27.878372

>  <alias>  (585) 
None

>  <HIPPO Pose ID>  (585) 
69925

>  <smiles>  (585) 
O=C(Nc1ccn2cc(O)nc2c1)[C@H]1CCCC2(CCC(F)(F)CC2)O1

>  <inchikey>  (585) 
JTEMJCWATGIOKR-CYBMUJFWSA-N

>  <distance_score>  (585) 
1.488392

>  <ref_mols>  (585) 
Z1046b,Z1495a

>  <ref_pdb>  (585) 
Z1495a

>  <HIPPO Compound ID>  (585) 
139310

>  <name>  (585) 
P69925

>  <inspiration_score>  (585) 
None

$$$$
P69930
     RDKit          3D

 26 29  0  0  0  0  0  0  0  0999 V2000
   -9.2727    4.3465  -18.4314 C   0  0  0  0  0  0  0  0  0  0  0  0
   -7.9399    4.7744  -17.8660 C   0  0  0  0  0  0  0  0  0  0  0  0
   -7.3945    5.8924  -18.5838 O   0  0  0  0  0  0  0  0  0  0  0  0
   -6.2434    6.5589  -18.2632 C   0  0  0  0  0  0  0  0  0  0  0  0
   -6.0073    7.6267  -18.8447 O   0  0  0  0  0  0  0  0  0  0  0  0
   -5.3325    6.0525  -17.1307 C   0  0  2  0  0  0  0  0  0  0  0  0
   -5.6281    4.8154  -16.2378 C   0  0  0  0  0  0  0  0  0  0  0  0
   -4.6470    5.5712  -15.2776 C   0  0  2  0  0  0  0  0  0  0  0  0
   -4.7782    4.8933  -13.8476 C   0  0  0  0  0  0  0  0  0  0  0  0
   -4.1321    3.9582  -13.5497 O   0  0  0  0  0  0  0  0  0  0  0  0
   -5.9259    5.6213  -13.0710 N   0  0  0  0  0  0  0  0  0  0  0  0
   -6.5327    5.3084  -11.8953 C   0  0  0  0  0  0  0  0  0  0  0  0
   -7.3798    6.3445  -11.3031 C   0  0  0  0  0  0  0  0  0  0  0  0
   -8.0772    6.0638  -10.1888 C   0  0  0  0  0  0  0  0  0  0  0  0
   -8.0250    4.7744   -9.6692 N   0  0  0  0  0  0  0  0  0  0  0  0
   -8.6133    4.2565   -8.5477 C   0  0  0  0  0  0  0  0  0  0  0  0
   -8.3528    2.9034   -8.5853 C   0  0  0  0  0  0  0  0  0  0  0  0
   -8.8152    1.8368   -7.6743 C   0  0  0  0  0  0  0  0  0  0  0  0
   -7.5284    2.6062   -9.6416 N   0  0  0  0  0  0  0  0  0  0  0  0
   -7.3104    3.7435  -10.2570 C   0  0  0  0  0  0  0  0  0  0  0  0
   -6.5096    4.0603  -11.3871 C   0  0  0  0  0  0  0  0  0  0  0  0
   -5.4806    6.8200  -15.7564 C   0  0  0  0  0  0  0  0  0  0  0  0
   -3.3657    5.6253  -15.9854 O   0  0  0  0  0  0  0  0  0  0  0  0
   -3.7828    5.9482  -17.3447 C   0  0  0  0  0  0  0  0  0  0  0  0
   -3.3818    4.8269  -18.2968 C   0  0  0  0  0  0  0  0  0  0  0  0
   -3.1208    7.2418  -17.7982 C   0  0  0  0  0  0  0  0  0  0  0  0
  1  2  1  0
  2  3  1  0
  3  4  1  0
  4  5  2  0
  6  4  1  6
  6  7  1  0
  7  8  1  0
  8  9  1  1
  9 10  2  0
  9 11  1  0
 11 12  1  0
 12 13  1  0
 13 14  2  0
 14 15  1  0
 15 16  1  0
 16 17  2  0
 17 18  1  0
 17 19  1  0
 19 20  2  0
 20 21  1  0
  8 22  1  0
  8 23  1  0
 23 24  1  0
 24 25  1  0
 24 26  1  0
 22  6  1  0
 24  6  1  0
 21 12  2  0
 20 15  1  0
M  END
>  <energy_score>  (586) 
-4.884978

>  <alias>  (586) 
None

>  <HIPPO Pose ID>  (586) 
69930

>  <smiles>  (586) 
CCOC(=O)[C@]12C[C@](C(=O)Nc3ccn4cc(C)nc4c3)(C1)OC2(C)C

>  <inchikey>  (586) 
JEWPLDOKGDKGIS-KDURUIRLSA-N

>  <distance_score>  (586) 
1.546694

>  <ref_mols>  (586) 
Z1046b,Z1495a

>  <ref_pdb>  (586) 
Z1495a

>  <HIPPO Compound ID>  (586) 
139314

>  <name>  (586) 
P69930

>  <inspiration_score>  (586) 
None

$$$$
P69931
     RDKit          3D

 26 29  0  0  0  0  0  0  0  0999 V2000
   -9.7041    1.6490   -7.3603 C   0  0  0  0  0  0  0  0  0  0  0  0
   -8.2521    2.0015   -7.1824 C   0  0  0  0  0  0  0  0  0  0  0  0
   -7.7696    2.5978   -8.3900 O   0  0  0  0  0  0  0  0  0  0  0  0
   -7.8120    3.9519   -8.4459 C   0  0  0  0  0  0  0  0  0  0  0  0
   -8.1329    4.6742   -7.5023 O   0  0  0  0  0  0  0  0  0  0  0  0
   -7.4873    4.4569   -9.8499 C   0  0  1  0  0  0  0  0  0  0  0  0
   -7.0703    3.4940  -11.0495 C   0  0  0  0  0  0  0  0  0  0  0  0
   -7.5533    4.7721  -11.8336 C   0  0  1  0  0  0  0  0  0  0  0  0
   -7.8723    4.7172  -13.3652 C   0  0  0  0  0  0  0  0  0  0  0  0
   -8.9354    4.8745  -13.8329 O   0  0  0  0  0  0  0  0  0  0  0  0
   -6.4916    4.5206  -14.0481 N   0  0  0  0  0  0  0  0  0  0  0  0
   -6.1405    4.5690  -15.3609 C   0  0  0  0  0  0  0  0  0  0  0  0
   -7.1299    4.8077  -16.4090 C   0  0  0  0  0  0  0  0  0  0  0  0
   -6.7031    5.1798  -17.6303 C   0  0  0  0  0  0  0  0  0  0  0  0
   -5.3309    5.2768  -17.8591 N   0  0  0  0  0  0  0  0  0  0  0  0
   -4.6232    5.8593  -18.8706 C   0  0  0  0  0  0  0  0  0  0  0  0
   -5.2907    6.9629  -20.2373 Br  0  0  0  0  0  0  0  0  0  0  0  0
   -3.2952    5.6340  -18.6139 C   0  0  0  0  0  0  0  0  0  0  0  0
   -3.1380    5.0021  -17.4165 N   0  0  0  0  0  0  0  0  0  0  0  0
   -4.3640    4.8749  -16.9420 C   0  0  0  0  0  0  0  0  0  0  0  0
   -4.8228    4.5239  -15.6489 C   0  0  0  0  0  0  0  0  0  0  0  0
   -8.7031    4.7016  -10.7945 C   0  0  0  0  0  0  0  0  0  0  0  0
   -6.6702    5.8766  -11.4382 O   0  0  0  0  0  0  0  0  0  0  0  0
   -6.6094    5.7223  -10.0064 C   0  0  0  0  0  0  0  0  0  0  0  0
   -5.1661    5.4851   -9.5709 C   0  0  0  0  0  0  0  0  0  0  0  0
   -7.1658    6.9772   -9.3399 C   0  0  0  0  0  0  0  0  0  0  0  0
  1  2  1  0
  2  3  1  0
  3  4  1  0
  4  5  2  0
  6  4  1  1
  6  7  1  0
  7  8  1  0
  8  9  1  6
  9 10  2  0
  9 11  1  0
 11 12  1  0
 12 13  1  0
 13 14  2  0
 14 15  1  0
 15 16  1  0
 16 17  1  0
 16 18  2  0
 18 19  1  0
 19 20  2  0
 20 21  1  0
  8 22  1  0
  8 23  1  0
 23 24  1  0
 24 25  1  0
 24 26  1  0
 22  6  1  0
 24  6  1  0
 21 12  2  0
 20 15  1  0
M  END
>  <energy_score>  (587) 
-69.305289

>  <alias>  (587) 
None

>  <HIPPO Pose ID>  (587) 
69931

>  <smiles>  (587) 
CCOC(=O)[C@]12C[C@](C(=O)Nc3ccn4c(Br)cnc4c3)(C1)OC2(C)C

>  <inchikey>  (587) 
UASQXYZXIFCSMR-HDICACEKSA-N

>  <distance_score>  (587) 
1.656766

>  <ref_mols>  (587) 
Z1046b,Z1495a

>  <ref_pdb>  (587) 
Z1495a

>  <HIPPO Compound ID>  (587) 
139315

>  <name>  (587) 
P69931

>  <inspiration_score>  (587) 
None

$$$$
P69933
     RDKit          3D

 26 29  0  0  0  0  0  0  0  0999 V2000
   -5.3058    6.1883  -12.6949 O   0  0  0  0  0  0  0  0  0  0  0  0
   -6.1769    5.4320  -12.8897 C   0  0  0  0  0  0  0  0  0  0  0  0
   -6.8328    4.9658  -14.2318 N   0  0  0  0  0  0  0  0  0  0  0  0
   -6.5061    5.2458  -15.5074 C   0  0  0  0  0  0  0  0  0  0  0  0
   -7.4641    4.7558  -16.4696 C   0  0  0  0  0  0  0  0  0  0  0  0
   -7.2146    4.8749  -17.7795 C   0  0  0  0  0  0  0  0  0  0  0  0
   -8.4912    4.2205  -18.9395 Br  0  0  0  0  0  0  0  0  0  0  0  0
   -6.0037    5.4578  -18.1757 N   0  0  0  0  0  0  0  0  0  0  0  0
   -5.4997    5.7921  -19.4044 C   0  0  0  0  0  0  0  0  0  0  0  0
   -4.2119    6.2186  -19.2046 C   0  0  0  0  0  0  0  0  0  0  0  0
   -3.9196    6.2581  -17.8727 N   0  0  0  0  0  0  0  0  0  0  0  0
   -5.0240    5.8684  -17.2682 C   0  0  0  0  0  0  0  0  0  0  0  0
   -5.3362    5.7862  -15.8853 C   0  0  0  0  0  0  0  0  0  0  0  0
   -6.8977    4.5567  -11.8400 C   0  0  1  0  0  0  0  0  0  0  0  0
   -6.3492    3.1433  -12.1328 C   0  0  0  0  0  0  0  0  0  0  0  0
   -6.7929    2.1208  -11.1298 C   0  0  0  0  0  0  0  0  0  0  0  0
   -6.4974    2.6530   -9.7494 C   0  0  0  0  0  0  0  0  0  0  0  0
   -7.2117    3.9997   -9.5219 C   0  0  0  0  0  0  0  0  0  0  0  0
   -8.7344    3.8688   -9.6180 C   0  0  0  0  0  0  0  0  0  0  0  0
   -9.2569    2.7748   -8.7005 C   0  0  0  0  0  0  0  0  0  0  0  0
   -8.6490    2.8065   -7.3187 C   0  0  0  0  0  0  0  0  0  0  0  0
   -9.6650    2.6846   -6.4255 F   0  0  0  0  0  0  0  0  0  0  0  0
   -7.8942    1.7033   -7.1293 F   0  0  0  0  0  0  0  0  0  0  0  0
   -7.8583    4.0716   -7.0074 C   0  0  0  0  0  0  0  0  0  0  0  0
   -6.8773    4.5249   -8.1065 C   0  0  0  0  0  0  0  0  0  0  0  0
   -6.7236    4.9551  -10.4871 O   0  0  0  0  0  0  0  0  0  0  0  0
  1  2  2  0
  2  3  1  0
  3  4  1  0
  4  5  1  0
  5  6  2  0
  6  7  1  0
  6  8  1  0
  8  9  1  0
  9 10  2  0
 10 11  1  0
 11 12  2  0
 12 13  1  0
 14  2  1  6
 14 15  1  0
 15 16  1  0
 16 17  1  0
 17 18  1  0
 18 19  1  0
 19 20  1  0
 20 21  1  0
 21 22  1  0
 21 23  1  0
 21 24  1  0
 24 25  1  0
 18 26  1  0
 13  4  2  0
 26 14  1  0
 12  8  1  0
 25 18  1  0
M  END
>  <energy_score>  (588) 
-43.02841

>  <alias>  (588) 
None

>  <HIPPO Pose ID>  (588) 
69933

>  <smiles>  (588) 
O=C(Nc1cc(Br)n2ccnc2c1)[C@H]1CCCC2(CCC(F)(F)CC2)O1

>  <inchikey>  (588) 
UVXOGCKXVQBBOA-CYBMUJFWSA-N

>  <distance_score>  (588) 
1.839735

>  <ref_mols>  (588) 
Z1046b,Z1495a

>  <ref_pdb>  (588) 
Z1495a

>  <HIPPO Compound ID>  (588) 
139318

>  <name>  (588) 
P69933

>  <inspiration_score>  (588) 
None

$$$$
P69937
     RDKit          3D

 28 31  0  0  0  0  0  0  0  0999 V2000
   -8.4608    1.8587   -7.8126 C   0  0  0  0  0  0  0  0  0  0  0  0
   -7.7236    2.5281   -8.9769 C   0  0  0  0  0  0  0  0  0  0  0  0
   -8.7514    2.8267  -10.0804 C   0  0  0  0  0  0  0  0  0  0  0  0
   -6.5921    1.6668   -9.5547 C   0  0  0  0  0  0  0  0  0  0  0  0
   -7.0459    3.7004   -8.4444 O   0  0  0  0  0  0  0  0  0  0  0  0
   -7.6152    4.9006   -8.6560 C   0  0  0  0  0  0  0  0  0  0  0  0
   -8.3929    5.3871   -7.9466 O   0  0  0  0  0  0  0  0  0  0  0  0
   -7.0760    5.3688   -9.9998 N   0  0  0  0  0  0  0  0  0  0  0  0
   -7.4424    6.4854  -10.8074 C   0  0  2  0  0  0  0  0  0  0  0  0
   -6.4324    7.6353  -11.0712 C   0  0  0  0  0  0  0  0  0  0  0  0
   -7.8154    8.3153  -11.4417 C   0  0  2  0  0  0  0  0  0  0  0  0
   -7.9264    9.7997  -11.6158 C   0  0  0  0  0  0  0  0  0  0  0  0
   -8.2955    7.6123  -10.1274 C   0  0  0  0  0  0  0  0  0  0  0  0
   -8.3826    7.5684  -12.5599 O   0  0  0  0  0  0  0  0  0  0  0  0
   -8.1549    6.2033  -12.1418 C   0  0  1  0  0  0  0  0  0  0  0  0
   -7.3619    5.3820  -13.1791 C   0  0  0  0  0  0  0  0  0  0  0  0
   -7.0860    4.2516  -13.0591 O   0  0  0  0  0  0  0  0  0  0  0  0
   -7.0855    6.3698  -14.3532 N   0  0  0  0  0  0  0  0  0  0  0  0
   -6.5327    6.1538  -15.5781 C   0  0  0  0  0  0  0  0  0  0  0  0
   -6.4264    4.8132  -16.1368 C   0  0  0  0  0  0  0  0  0  0  0  0
   -5.6979    4.6455  -17.2555 C   0  0  0  0  0  0  0  0  0  0  0  0
   -5.1247    5.7440  -17.8757 N   0  0  0  0  0  0  0  0  0  0  0  0
   -4.0873    5.8721  -18.7577 C   0  0  0  0  0  0  0  0  0  0  0  0
   -2.6554    4.6800  -19.0369 Br  0  0  0  0  0  0  0  0  0  0  0  0
   -4.1196    7.1758  -19.1872 C   0  0  0  0  0  0  0  0  0  0  0  0
   -4.9727    7.9088  -18.4032 N   0  0  0  0  0  0  0  0  0  0  0  0
   -5.4247    7.0425  -17.5184 C   0  0  0  0  0  0  0  0  0  0  0  0
   -6.0634    7.2117  -16.2678 C   0  0  0  0  0  0  0  0  0  0  0  0
  1  2  1  0
  2  3  1  0
  2  4  1  0
  2  5  1  0
  5  6  1  0
  6  7  2  0
  6  8  1  0
  9  8  1  1
  9 10  1  0
 10 11  1  0
 11 12  1  1
 11 13  1  0
 11 14  1  0
 14 15  1  0
 15 16  1  6
 16 17  2  0
 16 18  1  0
 18 19  1  0
 19 20  1  0
 20 21  2  0
 21 22  1  0
 22 23  1  0
 23 24  1  0
 23 25  2  0
 25 26  1  0
 26 27  2  0
 27 28  1  0
 13  9  1  0
 28 19  2  0
 15  9  1  0
 27 22  1  0
M  END
>  <energy_score>  (589) 
-18.956617

>  <alias>  (589) 
None

>  <HIPPO Pose ID>  (589) 
69937

>  <smiles>  (589) 
CC(C)(C)OC(=O)N[C@]12C[C@](C)(C1)O[C@H]2C(=O)Nc1ccn2c(Br)cnc2c1

>  <inchikey>  (589) 
BZMUMXMTNLXJEB-JVPBZIDWSA-N

>  <distance_score>  (589) 
1.912205

>  <ref_mols>  (589) 
Z1046b,Z1495a

>  <ref_pdb>  (589) 
Z1495a

>  <HIPPO Compound ID>  (589) 
139324

>  <name>  (589) 
P69937

>  <inspiration_score>  (589) 
None

$$$$
P69939
     RDKit          3D

 28 31  0  0  0  0  0  0  0  0999 V2000
   -8.5903    5.6848   -6.0779 C   0  0  0  0  0  0  0  0  0  0  0  0
   -8.5642    4.2861   -5.4621 C   0  0  0  0  0  0  0  0  0  0  0  0
   -9.5691    4.2595   -4.2975 C   0  0  0  0  0  0  0  0  0  0  0  0
   -7.1856    3.9296   -4.9099 C   0  0  0  0  0  0  0  0  0  0  0  0
   -9.0887    3.2852   -6.3829 O   0  0  0  0  0  0  0  0  0  0  0  0
   -8.7415    2.7650   -7.5934 C   0  0  0  0  0  0  0  0  0  0  0  0
   -9.4938    2.0372   -8.0947 O   0  0  0  0  0  0  0  0  0  0  0  0
   -7.4096    3.3113   -8.0962 N   0  0  0  0  0  0  0  0  0  0  0  0
   -6.7505    3.1544   -9.3768 C   0  0  0  0  0  0  0  0  0  0  0  0
   -7.3341    4.1726  -10.3237 C   0  0  1  0  0  0  0  0  0  0  0  0
   -8.8082    4.0470  -10.7866 C   0  0  0  0  0  0  0  0  0  0  0  0
   -8.5099    5.5509  -11.1586 C   0  0  1  0  0  0  0  0  0  0  0  0
   -7.8157    5.5865   -9.7784 C   0  0  0  0  0  0  0  0  0  0  0  0
   -7.3462    5.4796  -12.1360 C   0  0  2  0  0  0  0  0  0  0  0  0
   -7.7834    5.3566  -13.6009 C   0  0  0  0  0  0  0  0  0  0  0  0
   -8.8309    5.6490  -14.0290 O   0  0  0  0  0  0  0  0  0  0  0  0
   -6.4989    4.8714  -14.3272 N   0  0  0  0  0  0  0  0  0  0  0  0
   -6.2292    4.7464  -15.6517 C   0  0  0  0  0  0  0  0  0  0  0  0
   -7.2772    4.8553  -16.6638 C   0  0  0  0  0  0  0  0  0  0  0  0
   -6.9269    5.1126  -17.9395 C   0  0  0  0  0  0  0  0  0  0  0  0
   -5.5755    5.2484  -18.2458 N   0  0  0  0  0  0  0  0  0  0  0  0
   -4.9528    5.6924  -19.3817 C   0  0  0  0  0  0  0  0  0  0  0  0
   -3.6185    5.6788  -19.0781 C   0  0  0  0  0  0  0  0  0  0  0  0
   -2.6572    6.0725  -19.9089 O   0  0  0  0  0  0  0  0  0  0  0  0
   -3.3620    5.2544  -17.8252 N   0  0  0  0  0  0  0  0  0  0  0  0
   -4.5562    5.0215  -17.3272 C   0  0  0  0  0  0  0  0  0  0  0  0
   -4.9291    4.7237  -15.9992 C   0  0  0  0  0  0  0  0  0  0  0  0
   -6.5600    4.4382  -11.5386 O   0  0  0  0  0  0  0  0  0  0  0  0
  1  2  1  0
  2  3  1  0
  2  4  1  0
  2  5  1  0
  5  6  1  0
  6  7  2  0
  6  8  1  0
  8  9  1  0
 10  9  1  1
 10 11  1  0
 12 11  1  1
 12 13  1  0
 12 14  1  0
 14 15  1  6
 15 16  2  0
 15 17  1  0
 17 18  1  0
 18 19  1  0
 19 20  2  0
 20 21  1  0
 21 22  1  0
 22 23  2  0
 23 24  1  0
 23 25  1  0
 25 26  2  0
 26 27  1  0
 14 28  1  0
 13 10  1  0
 27 18  2  0
 28 10  1  0
 26 21  1  0
M  END
>  <energy_score>  (590) 
-49.797465

>  <alias>  (590) 
None

>  <HIPPO Pose ID>  (590) 
69939

>  <smiles>  (590) 
CC(C)(C)OC(=O)NC[C@]12C[C@H](C1)[C@H](C(=O)Nc1ccn3cc(O)nc3c1)O2

>  <inchikey>  (590) 
QCTXEGDQOIFOAC-VWCVUJCZSA-N

>  <distance_score>  (590) 
1.40605

>  <ref_mols>  (590) 
Z1046b,Z1495a

>  <ref_pdb>  (590) 
Z1495a

>  <HIPPO Compound ID>  (590) 
139328

>  <name>  (590) 
P69939

>  <inspiration_score>  (590) 
None

$$$$
P69940
     RDKit          3D

 28 31  0  0  0  0  0  0  0  0999 V2000
   -9.4678    2.7382   -8.8058 C   0  0  0  0  0  0  0  0  0  0  0  0
   -8.6238    2.1653   -7.6915 C   0  0  0  0  0  0  0  0  0  0  0  0
   -9.5488    1.2118   -6.9357 C   0  0  0  0  0  0  0  0  0  0  0  0
   -8.1592    3.2241   -6.6803 C   0  0  0  0  0  0  0  0  0  0  0  0
   -7.5246    1.3649   -8.2254 O   0  0  0  0  0  0  0  0  0  0  0  0
   -6.6204    1.6115   -9.2341 C   0  0  0  0  0  0  0  0  0  0  0  0
   -6.0103    0.7250   -9.6729 O   0  0  0  0  0  0  0  0  0  0  0  0
   -6.5842    3.0934   -9.5677 N   0  0  0  0  0  0  0  0  0  0  0  0
   -5.8630    3.7999  -10.5741 C   0  0  0  0  0  0  0  0  0  0  0  0
   -6.8273    4.7245  -11.2562 C   0  0  1  0  0  0  0  0  0  0  0  0
   -8.2713    4.3127  -11.7422 C   0  0  0  0  0  0  0  0  0  0  0  0
   -8.3550    5.8797  -11.8296 C   0  0  1  0  0  0  0  0  0  0  0  0
   -7.6143    5.8460  -10.4585 C   0  0  0  0  0  0  0  0  0  0  0  0
   -7.2712    6.2430  -12.8403 C   0  0  2  0  0  0  0  0  0  0  0  0
   -7.6742    5.9319  -14.2743 C   0  0  0  0  0  0  0  0  0  0  0  0
   -8.7510    6.0736  -14.7067 O   0  0  0  0  0  0  0  0  0  0  0  0
   -6.3516    5.5145  -14.9793 N   0  0  0  0  0  0  0  0  0  0  0  0
   -6.0842    5.2938  -16.2926 C   0  0  0  0  0  0  0  0  0  0  0  0
   -7.2159    5.1503  -17.1907 C   0  0  0  0  0  0  0  0  0  0  0  0
   -7.0432    5.4359  -18.4853 C   0  0  0  0  0  0  0  0  0  0  0  0
   -5.7828    5.8012  -18.9331 N   0  0  0  0  0  0  0  0  0  0  0  0
   -5.3965    6.3997  -20.1036 C   0  0  0  0  0  0  0  0  0  0  0  0
   -4.0349    6.5137  -20.0463 C   0  0  0  0  0  0  0  0  0  0  0  0
   -3.5627    6.0528  -18.8513 N   0  0  0  0  0  0  0  0  0  0  0  0
   -4.6326    5.6995  -18.1548 C   0  0  0  0  0  0  0  0  0  0  0  0
   -4.8183    5.3952  -16.7657 C   0  0  0  0  0  0  0  0  0  0  0  0
   -3.3075    5.5453  -15.6618 Br  0  0  0  0  0  0  0  0  0  0  0  0
   -6.2003    5.4082  -12.3788 O   0  0  0  0  0  0  0  0  0  0  0  0
  1  2  1  0
  2  3  1  0
  2  4  1  0
  2  5  1  0
  5  6  1  0
  6  7  2  0
  6  8  1  0
  8  9  1  0
 10  9  1  1
 10 11  1  0
 12 11  1  6
 12 13  1  0
 12 14  1  0
 14 15  1  6
 15 16  2  0
 15 17  1  0
 17 18  1  0
 18 19  1  0
 19 20  2  0
 20 21  1  0
 21 22  1  0
 22 23  2  0
 23 24  1  0
 24 25  2  0
 25 26  1  0
 26 27  1  0
 14 28  1  0
 13 10  1  0
 26 18  2  0
 28 10  1  0
 25 21  1  0
M  END
>  <energy_score>  (591) 
-15.069996

>  <alias>  (591) 
None

>  <HIPPO Pose ID>  (591) 
69940

>  <smiles>  (591) 
CC(C)(C)OC(=O)NC[C@]12C[C@H](C1)[C@H](C(=O)Nc1ccn3ccnc3c1Br)O2

>  <inchikey>  (591) 
GQRWFAVPNJHDQY-LCCAYYTGSA-N

>  <distance_score>  (591) 
1.570627

>  <ref_mols>  (591) 
Z1046b,Z1495a

>  <ref_pdb>  (591) 
Z1495a

>  <HIPPO Compound ID>  (591) 
139330

>  <name>  (591) 
P69940

>  <inspiration_score>  (591) 
None

$$$$
P69942
     RDKit          3D

 29 32  0  0  0  0  0  0  0  0999 V2000
   -9.6748    5.2312   -5.1528 C   0  0  0  0  0  0  0  0  0  0  0  0
   -9.2942    3.9266   -5.8675 C   0  0  0  0  0  0  0  0  0  0  0  0
   -7.9673    3.4288   -5.3044 C   0  0  0  0  0  0  0  0  0  0  0  0
  -10.4233    2.9127   -5.6686 C   0  0  0  0  0  0  0  0  0  0  0  0
   -9.0742    4.3277   -7.2394 O   0  0  0  0  0  0  0  0  0  0  0  0
   -8.9549    3.4446   -8.2686 C   0  0  0  0  0  0  0  0  0  0  0  0
   -9.2580    2.2912   -8.2116 O   0  0  0  0  0  0  0  0  0  0  0  0
   -8.4626    4.2102   -9.3405 N   0  0  0  0  0  0  0  0  0  0  0  0
   -8.2600    3.8532  -10.8146 C   0  0  0  0  0  0  0  0  0  0  0  0
   -7.9725    5.1099  -11.6576 C   0  0  2  0  0  0  0  0  0  0  0  0
   -8.1941    4.9379  -13.1773 C   0  0  0  0  0  0  0  0  0  0  0  0
   -9.2979    5.0032  -13.6436 O   0  0  0  0  0  0  0  0  0  0  0  0
   -6.9032    4.7989  -13.8187 N   0  0  0  0  0  0  0  0  0  0  0  0
   -6.5543    4.7916  -15.1415 C   0  0  0  0  0  0  0  0  0  0  0  0
   -7.5799    4.8028  -16.1845 C   0  0  0  0  0  0  0  0  0  0  0  0
   -7.2151    4.9577  -17.4703 C   0  0  0  0  0  0  0  0  0  0  0  0
   -5.8652    5.0637  -17.7794 N   0  0  0  0  0  0  0  0  0  0  0  0
   -5.2527    5.2851  -18.9823 C   0  0  0  0  0  0  0  0  0  0  0  0
   -3.9143    5.2259  -18.7127 C   0  0  0  0  0  0  0  0  0  0  0  0
   -2.9577    5.3319  -19.6398 O   0  0  0  0  0  0  0  0  0  0  0  0
   -3.6541    5.0544  -17.3908 N   0  0  0  0  0  0  0  0  0  0  0  0
   -4.8487    4.9720  -16.8339 C   0  0  0  0  0  0  0  0  0  0  0  0
   -5.2443    4.8400  -15.4733 C   0  0  0  0  0  0  0  0  0  0  0  0
   -6.6223    5.5036  -11.3726 O   0  0  0  0  0  0  0  0  0  0  0  0
   -6.3627    5.4654   -9.9464 C   0  0  0  0  0  0  0  0  0  0  0  0
   -6.6737    6.7460   -9.1461 C   0  0  0  0  0  0  0  0  0  0  0  0
   -5.3329    6.7749   -8.5955 O   0  0  0  0  0  0  0  0  0  0  0  0
   -4.9106    5.7488   -9.5243 C   0  0  0  0  0  0  0  0  0  0  0  0
   -6.9378    4.1788   -9.3460 C   0  0  0  0  0  0  0  0  0  0  0  0
  1  2  1  0
  2  3  1  0
  2  4  1  0
  2  5  1  0
  5  6  1  0
  6  7  2  0
  6  8  1  0
  8  9  1  0
  9 10  1  0
 10 11  1  6
 11 12  2  0
 11 13  1  0
 13 14  1  0
 14 15  1  0
 15 16  2  0
 16 17  1  0
 17 18  1  0
 18 19  2  0
 19 20  1  0
 19 21  1  0
 21 22  2  0
 22 23  1  0
 10 24  1  0
 24 25  1  0
 25 26  1  0
 26 27  1  0
 27 28  1  0
 25 29  1  0
 29  8  1  0
 23 14  2  0
 28 25  1  0
 22 17  1  0
M  END
>  <energy_score>  (592) 
-6.936037

>  <alias>  (592) 
None

>  <HIPPO Pose ID>  (592) 
69942

>  <smiles>  (592) 
CC(C)(C)OC(=O)N1C[C@H](C(=O)Nc2ccn3cc(O)nc3c2)OC2(COC2)C1

>  <inchikey>  (592) 
IPYLFFWUUPYTOW-CYBMUJFWSA-N

>  <distance_score>  (592) 
1.895931

>  <ref_mols>  (592) 
Z1046b,Z1495a

>  <ref_pdb>  (592) 
Z1495a

>  <HIPPO Compound ID>  (592) 
139332

>  <name>  (592) 
P69942

>  <inspiration_score>  (592) 
None

$$$$
P69943
     RDKit          3D

 29 31  0  0  0  0  0  0  0  0999 V2000
   -9.0754    6.3280   -4.4110 C   0  0  0  0  0  0  0  0  0  0  0  0
   -9.0157    5.0375   -5.2288 C   0  0  0  0  0  0  0  0  0  0  0  0
   -7.9318    4.0829   -4.7091 C   0  0  0  0  0  0  0  0  0  0  0  0
  -10.3586    4.3049   -5.1491 C   0  0  0  0  0  0  0  0  0  0  0  0
   -8.8787    5.3604   -6.6348 O   0  0  0  0  0  0  0  0  0  0  0  0
   -7.6776    5.7125   -7.1503 C   0  0  0  0  0  0  0  0  0  0  0  0
   -6.7297    5.9627   -6.5344 O   0  0  0  0  0  0  0  0  0  0  0  0
   -7.8738    5.5929   -8.6493 N   0  0  0  0  0  0  0  0  0  0  0  0
   -6.9205    5.6621   -9.7272 C   0  0  2  0  0  0  0  0  0  0  0  0
   -7.5410    6.0248  -11.0784 C   0  0  0  0  0  0  0  0  0  0  0  0
   -8.1229    4.8188  -11.8095 C   0  0  1  0  0  0  0  0  0  0  0  0
   -8.3825    5.1393  -13.2904 C   0  0  0  0  0  0  0  0  0  0  0  0
   -9.4360    5.4075  -13.7300 O   0  0  0  0  0  0  0  0  0  0  0  0
   -6.9898    5.0167  -13.9970 N   0  0  0  0  0  0  0  0  0  0  0  0
   -6.6584    5.1004  -15.3097 C   0  0  0  0  0  0  0  0  0  0  0  0
   -7.6861    4.7895  -16.2803 C   0  0  0  0  0  0  0  0  0  0  0  0
   -7.4246    4.8836  -17.5945 C   0  0  0  0  0  0  0  0  0  0  0  0
   -8.7397    4.3544  -18.7844 Br  0  0  0  0  0  0  0  0  0  0  0  0
   -6.1676    5.3631  -17.9910 N   0  0  0  0  0  0  0  0  0  0  0  0
   -5.6686    5.7517  -19.2100 C   0  0  0  0  0  0  0  0  0  0  0  0
   -4.3882    6.1931  -18.9950 C   0  0  0  0  0  0  0  0  0  0  0  0
   -4.0576    6.0946  -17.6740 N   0  0  0  0  0  0  0  0  0  0  0  0
   -5.1363    5.6174  -17.0838 C   0  0  0  0  0  0  0  0  0  0  0  0
   -5.4081    5.4068  -15.7029 C   0  0  0  0  0  0  0  0  0  0  0  0
   -7.2025    3.7254  -11.8239 O   0  0  0  0  0  0  0  0  0  0  0  0
   -6.8610    3.2222  -10.5315 C   0  0  0  0  0  0  0  0  0  0  0  0
   -8.0936    2.6466   -9.8213 C   0  0  0  0  0  0  0  0  0  0  0  0
   -5.8774    2.0684  -10.7855 C   0  0  0  0  0  0  0  0  0  0  0  0
   -6.1297    4.3460   -9.7779 C   0  0  0  0  0  0  0  0  0  0  0  0
  1  2  1  0
  2  3  1  0
  2  4  1  0
  2  5  1  0
  5  6  1  0
  6  7  2  0
  6  8  1  0
  9  8  1  1
  9 10  1  0
 10 11  1  0
 11 12  1  6
 12 13  2  0
 12 14  1  0
 14 15  1  0
 15 16  1  0
 16 17  2  0
 17 18  1  0
 17 19  1  0
 19 20  1  0
 20 21  2  0
 21 22  1  0
 22 23  2  0
 23 24  1  0
 11 25  1  0
 25 26  1  0
 26 27  1  0
 26 28  1  0
 26 29  1  0
 29  9  1  0
 24 15  2  0
 23 19  1  0
M  END
>  <energy_score>  (593) 
-48.416422

>  <alias>  (593) 
None

>  <HIPPO Pose ID>  (593) 
69943

>  <smiles>  (593) 
CC(C)(C)OC(=O)N[C@@H]1C[C@@H](C(=O)Nc2cc(Br)n3ccnc3c2)OC(C)(C)C1

>  <inchikey>  (593) 
VIJPPVVXPCRVTN-KGLIPLIRSA-N

>  <distance_score>  (593) 
1.698731

>  <ref_mols>  (593) 
Z1046b,Z1495a

>  <ref_pdb>  (593) 
Z1495a

>  <HIPPO Compound ID>  (593) 
139341

>  <name>  (593) 
P69943

>  <inspiration_score>  (593) 
None

$$$$
P69944
     RDKit          3D

 29 31  0  0  0  0  0  0  0  0999 V2000
   -9.1636    6.5092   -4.1203 C   0  0  0  0  0  0  0  0  0  0  0  0
   -8.9046    5.0929   -4.6373 C   0  0  0  0  0  0  0  0  0  0  0  0
  -10.1232    4.2056   -4.3622 C   0  0  0  0  0  0  0  0  0  0  0  0
   -7.6881    4.4517   -3.9573 C   0  0  0  0  0  0  0  0  0  0  0  0
   -8.8061    5.1118   -6.0809 O   0  0  0  0  0  0  0  0  0  0  0  0
   -7.6975    5.5813   -6.6995 C   0  0  0  0  0  0  0  0  0  0  0  0
   -6.8081    6.1087   -6.1790 O   0  0  0  0  0  0  0  0  0  0  0  0
   -7.8824    5.1601   -8.1427 N   0  0  0  0  0  0  0  0  0  0  0  0
   -6.9718    5.2084   -9.2552 C   0  0  2  0  0  0  0  0  0  0  0  0
   -7.4986    6.0158  -10.4501 C   0  0  0  0  0  0  0  0  0  0  0  0
   -6.9278    5.3734  -11.6978 C   0  0  2  0  0  0  0  0  0  0  0  0
   -6.8041    6.2730  -12.9333 C   0  0  0  0  0  0  0  0  0  0  0  0
   -6.5055    7.4044  -12.8987 O   0  0  0  0  0  0  0  0  0  0  0  0
   -7.0517    5.3298  -14.1516 N   0  0  0  0  0  0  0  0  0  0  0  0
   -6.8980    5.5508  -15.4836 C   0  0  0  0  0  0  0  0  0  0  0  0
   -7.4697    4.5972  -16.4287 C   0  0  0  0  0  0  0  0  0  0  0  0
   -6.9302    4.5039  -17.6576 C   0  0  0  0  0  0  0  0  0  0  0  0
   -5.8319    5.2973  -17.9657 N   0  0  0  0  0  0  0  0  0  0  0  0
   -4.9257    5.1911  -18.9807 C   0  0  0  0  0  0  0  0  0  0  0  0
   -3.9858    6.1481  -18.7282 C   0  0  0  0  0  0  0  0  0  0  0  0
   -2.8786    6.3172  -19.4501 O   0  0  0  0  0  0  0  0  0  0  0  0
   -4.2829    6.8908  -17.6382 N   0  0  0  0  0  0  0  0  0  0  0  0
   -5.3646    6.3171  -17.1492 C   0  0  0  0  0  0  0  0  0  0  0  0
   -5.9824    6.4600  -15.8808 C   0  0  0  0  0  0  0  0  0  0  0  0
   -7.5668    4.1207  -11.9050 O   0  0  0  0  0  0  0  0  0  0  0  0
   -7.3474    3.1890  -10.8219 C   0  0  0  0  0  0  0  0  0  0  0  0
   -8.7205    2.7214  -10.3504 C   0  0  0  0  0  0  0  0  0  0  0  0
   -6.5677    2.0143  -11.4218 C   0  0  0  0  0  0  0  0  0  0  0  0
   -6.5471    3.7773   -9.6343 C   0  0  0  0  0  0  0  0  0  0  0  0
  1  2  1  0
  2  3  1  0
  2  4  1  0
  2  5  1  0
  5  6  1  0
  6  7  2  0
  6  8  1  0
  9  8  1  1
  9 10  1  0
 10 11  1  0
 11 12  1  6
 12 13  2  0
 12 14  1  0
 14 15  1  0
 15 16  1  0
 16 17  2  0
 17 18  1  0
 18 19  1  0
 19 20  2  0
 20 21  1  0
 20 22  1  0
 22 23  2  0
 23 24  1  0
 11 25  1  0
 25 26  1  0
 26 27  1  0
 26 28  1  0
 26 29  1  0
 29  9  1  0
 24 15  2  0
 23 18  1  0
M  END
>  <energy_score>  (594) 
-51.75363

>  <alias>  (594) 
None

>  <HIPPO Pose ID>  (594) 
69944

>  <smiles>  (594) 
CC(C)(C)OC(=O)N[C@@H]1C[C@H](C(=O)Nc2ccn3cc(O)nc3c2)OC(C)(C)C1

>  <inchikey>  (594) 
RKTBBKVWLDRCSP-ZIAGYGMSSA-N

>  <distance_score>  (594) 
1.988099

>  <ref_mols>  (594) 
Z1046b,Z1495a

>  <ref_pdb>  (594) 
Z1495a

>  <HIPPO Compound ID>  (594) 
139343

>  <name>  (594) 
P69944

>  <inspiration_score>  (594) 
None

$$$$
P69946
     RDKit          3D

 29 31  0  0  0  0  0  0  0  0999 V2000
   -7.7278    4.3955   -4.3603 C   0  0  0  0  0  0  0  0  0  0  0  0
   -8.9773    5.1083   -4.8965 C   0  0  0  0  0  0  0  0  0  0  0  0
  -10.1843    4.2052   -4.6211 C   0  0  0  0  0  0  0  0  0  0  0  0
   -9.1792    6.4729   -4.2366 C   0  0  0  0  0  0  0  0  0  0  0  0
   -8.9784    5.2629   -6.3365 O   0  0  0  0  0  0  0  0  0  0  0  0
   -7.8939    5.7445   -6.9866 C   0  0  0  0  0  0  0  0  0  0  0  0
   -6.9643    6.2189   -6.4857 O   0  0  0  0  0  0  0  0  0  0  0  0
   -8.1677    5.4171   -8.4406 N   0  0  0  0  0  0  0  0  0  0  0  0
   -7.3170    5.5135   -9.5981 C   0  0  2  0  0  0  0  0  0  0  0  0
   -8.0709    5.7841  -10.9124 C   0  0  0  0  0  0  0  0  0  0  0  0
   -7.2954    5.1290  -12.0361 C   0  0  2  0  0  0  0  0  0  0  0  0
   -7.7332    5.4240  -13.4805 C   0  0  0  0  0  0  0  0  0  0  0  0
   -8.6225    6.0975  -13.8391 O   0  0  0  0  0  0  0  0  0  0  0  0
   -6.6241    4.6796  -14.3064 N   0  0  0  0  0  0  0  0  0  0  0  0
   -6.3566    4.6967  -15.6359 C   0  0  0  0  0  0  0  0  0  0  0  0
   -7.3213    5.1653  -16.6173 C   0  0  0  0  0  0  0  0  0  0  0  0
   -6.8856    5.5051  -17.8458 C   0  0  0  0  0  0  0  0  0  0  0  0
   -5.5267    5.3865  -18.1326 N   0  0  0  0  0  0  0  0  0  0  0  0
   -4.7592    5.9160  -19.1341 C   0  0  0  0  0  0  0  0  0  0  0  0
   -5.2391    7.1829  -20.4476 Br  0  0  0  0  0  0  0  0  0  0  0  0
   -3.4776    5.4777  -18.9135 C   0  0  0  0  0  0  0  0  0  0  0  0
   -3.3937    4.7496  -17.7641 N   0  0  0  0  0  0  0  0  0  0  0  0
   -4.6179    4.7714  -17.2745 C   0  0  0  0  0  0  0  0  0  0  0  0
   -5.0899    4.4003  -15.9927 C   0  0  0  0  0  0  0  0  0  0  0  0
   -7.2302    3.7071  -11.9252 O   0  0  0  0  0  0  0  0  0  0  0  0
   -7.0752    3.1790  -10.6039 C   0  0  0  0  0  0  0  0  0  0  0  0
   -8.4336    2.6488  -10.1375 C   0  0  0  0  0  0  0  0  0  0  0  0
   -6.1059    1.9966  -10.7405 C   0  0  0  0  0  0  0  0  0  0  0  0
   -6.4683    4.2281   -9.6592 C   0  0  0  0  0  0  0  0  0  0  0  0
  1  2  1  0
  2  3  1  0
  2  4  1  0
  2  5  1  0
  5  6  1  0
  6  7  2  0
  6  8  1  0
  9  8  1  1
  9 10  1  0
 10 11  1  0
 11 12  1  6
 12 13  2  0
 12 14  1  0
 14 15  1  0
 15 16  1  0
 16 17  2  0
 17 18  1  0
 18 19  1  0
 19 20  1  0
 19 21  2  0
 21 22  1  0
 22 23  2  0
 23 24  1  0
 11 25  1  0
 25 26  1  0
 26 27  1  0
 26 28  1  0
 26 29  1  0
 29  9  1  0
 24 15  2  0
 23 18  1  0
M  END
>  <energy_score>  (595) 
-30.808236

>  <alias>  (595) 
None

>  <HIPPO Pose ID>  (595) 
69946

>  <smiles>  (595) 
CC(C)(C)OC(=O)N[C@@H]1C[C@H](C(=O)Nc2ccn3c(Br)cnc3c2)OC(C)(C)C1

>  <inchikey>  (595) 
ZUKJQLAMIVBMOG-ZIAGYGMSSA-N

>  <distance_score>  (595) 
1.756858

>  <ref_mols>  (595) 
Z1046b,Z1495a

>  <ref_pdb>  (595) 
Z1495a

>  <HIPPO Compound ID>  (595) 
139345

>  <name>  (595) 
P69946

>  <inspiration_score>  (595) 
None

$$$$
P69947
     RDKit          3D

 29 31  0  0  0  0  0  0  0  0999 V2000
  -10.3780    4.2396   -4.9901 C   0  0  0  0  0  0  0  0  0  0  0  0
   -9.0022    4.1611   -5.6462 C   0  0  0  0  0  0  0  0  0  0  0  0
   -7.9431    4.1513   -4.5380 C   0  0  0  0  0  0  0  0  0  0  0  0
   -8.9431    2.8980   -6.5125 C   0  0  0  0  0  0  0  0  0  0  0  0
   -8.9282    5.3286   -6.5087 O   0  0  0  0  0  0  0  0  0  0  0  0
   -7.7411    5.5511   -7.1274 C   0  0  0  0  0  0  0  0  0  0  0  0
   -6.7342    5.6894   -6.5714 O   0  0  0  0  0  0  0  0  0  0  0  0
   -8.0426    5.4688   -8.6126 N   0  0  0  0  0  0  0  0  0  0  0  0
   -7.1582    5.4435   -9.7460 C   0  0  2  0  0  0  0  0  0  0  0  0
   -7.8426    5.7476  -11.0873 C   0  0  0  0  0  0  0  0  0  0  0  0
   -7.0604    5.0249  -12.1701 C   0  0  2  0  0  0  0  0  0  0  0  0
   -7.3893    5.4159  -13.6162 C   0  0  0  0  0  0  0  0  0  0  0  0
   -8.1910    6.1998  -13.9560 O   0  0  0  0  0  0  0  0  0  0  0  0
   -6.3406    4.6037  -14.4577 N   0  0  0  0  0  0  0  0  0  0  0  0
   -6.0318    4.6667  -15.7824 C   0  0  0  0  0  0  0  0  0  0  0  0
   -4.5967    4.5408  -16.0391 C   0  0  0  0  0  0  0  0  0  0  0  0
   -4.1027    4.9113  -17.2268 C   0  0  0  0  0  0  0  0  0  0  0  0
   -4.9691    5.4377  -18.1658 N   0  0  0  0  0  0  0  0  0  0  0  0
   -4.6485    6.0585  -19.3400 C   0  0  0  0  0  0  0  0  0  0  0  0
   -5.8277    6.6035  -19.7742 C   0  0  0  0  0  0  0  0  0  0  0  0
   -6.8493    6.3318  -18.8995 N   0  0  0  0  0  0  0  0  0  0  0  0
   -6.3450    5.5256  -17.9878 C   0  0  0  0  0  0  0  0  0  0  0  0
   -6.8895    4.9504  -16.7909 C   0  0  0  0  0  0  0  0  0  0  0  0
   -8.7050    4.4995  -16.7613 Br  0  0  0  0  0  0  0  0  0  0  0  0
   -7.1161    3.6073  -12.0581 O   0  0  0  0  0  0  0  0  0  0  0  0
   -7.0571    3.0827  -10.7256 C   0  0  0  0  0  0  0  0  0  0  0  0
   -8.4653    2.6564  -10.3049 C   0  0  0  0  0  0  0  0  0  0  0  0
   -6.1634    1.8378  -10.8161 C   0  0  0  0  0  0  0  0  0  0  0  0
   -6.4190    4.0898   -9.7564 C   0  0  0  0  0  0  0  0  0  0  0  0
  1  2  1  0
  2  3  1  0
  2  4  1  0
  2  5  1  0
  5  6  1  0
  6  7  2  0
  6  8  1  0
  9  8  1  1
  9 10  1  0
 10 11  1  0
 11 12  1  6
 12 13  2  0
 12 14  1  0
 14 15  1  0
 15 16  1  0
 16 17  2  0
 17 18  1  0
 18 19  1  0
 19 20  2  0
 20 21  1  0
 21 22  2  0
 22 23  1  0
 23 24  1  0
 11 25  1  0
 25 26  1  0
 26 27  1  0
 26 28  1  0
 26 29  1  0
 29  9  1  0
 23 15  2  0
 22 18  1  0
M  END
>  <energy_score>  (596) 
-7.737553

>  <alias>  (596) 
None

>  <HIPPO Pose ID>  (596) 
69947

>  <smiles>  (596) 
CC(C)(C)OC(=O)N[C@@H]1C[C@H](C(=O)Nc2ccn3ccnc3c2Br)OC(C)(C)C1

>  <inchikey>  (596) 
CUCSQZYLEGYLCH-TZMCWYRMSA-N

>  <distance_score>  (596) 
1.638611

>  <ref_mols>  (596) 
Z1046b,Z1495a

>  <ref_pdb>  (596) 
Z1495a

>  <HIPPO Compound ID>  (596) 
139349

>  <name>  (596) 
P69947

>  <inspiration_score>  (596) 
None

$$$$
P69948
     RDKit          3D

 29 32  0  0  0  0  0  0  0  0999 V2000
  -10.6730    2.6172   -5.3454 C   0  0  0  0  0  0  0  0  0  0  0  0
   -9.5771    3.6838   -5.2509 C   0  0  0  0  0  0  0  0  0  0  0  0
   -9.2756    4.0195   -3.7881 C   0  0  0  0  0  0  0  0  0  0  0  0
   -8.3217    3.1979   -5.9899 C   0  0  0  0  0  0  0  0  0  0  0  0
  -10.1606    4.8560   -5.8734 O   0  0  0  0  0  0  0  0  0  0  0  0
   -9.3166    5.8504   -6.2362 C   0  0  0  0  0  0  0  0  0  0  0  0
   -9.0245    6.7305   -5.5424 O   0  0  0  0  0  0  0  0  0  0  0  0
   -8.9749    5.5882   -7.6895 N   0  0  0  0  0  0  0  0  0  0  0  0
   -8.2768    6.3954   -8.6404 C   0  0  0  0  0  0  0  0  0  0  0  0
   -7.8477    5.6812   -9.9253 C   0  0  2  0  0  0  0  0  0  0  0  0
   -7.7894    4.1448   -9.9660 C   0  0  0  0  0  0  0  0  0  0  0  0
   -7.7844    3.8501  -11.4690 C   0  0  0  0  0  0  0  0  0  0  0  0
   -7.8834    5.2517  -12.0720 C   0  0  2  0  0  0  0  0  0  0  0  0
   -8.2739    5.2625  -13.5892 C   0  0  0  0  0  0  0  0  0  0  0  0
   -9.2848    5.6715  -14.0214 O   0  0  0  0  0  0  0  0  0  0  0  0
   -6.9965    4.7213  -14.3277 N   0  0  0  0  0  0  0  0  0  0  0  0
   -6.6988    4.6713  -15.6522 C   0  0  0  0  0  0  0  0  0  0  0  0
   -7.6794    4.8920  -16.7036 C   0  0  0  0  0  0  0  0  0  0  0  0
   -7.2461    5.1595  -17.9532 C   0  0  0  0  0  0  0  0  0  0  0  0
   -5.8746    5.2293  -18.1951 N   0  0  0  0  0  0  0  0  0  0  0  0
   -5.1711    5.6589  -19.2908 C   0  0  0  0  0  0  0  0  0  0  0  0
   -3.8556    5.5863  -18.9173 C   0  0  0  0  0  0  0  0  0  0  0  0
   -2.8326    5.9571  -19.6857 O   0  0  0  0  0  0  0  0  0  0  0  0
   -3.6884    5.1269  -17.6598 N   0  0  0  0  0  0  0  0  0  0  0  0
   -4.9179    4.9318  -17.2330 C   0  0  0  0  0  0  0  0  0  0  0  0
   -5.3821    4.5994  -15.9410 C   0  0  0  0  0  0  0  0  0  0  0  0
   -6.5498    6.0077  -11.8764 C   0  0  0  0  0  0  0  0  0  0  0  0
   -6.5281    6.2900  -10.3936 C   0  0  0  0  0  0  0  0  0  0  0  0
   -8.6815    5.9427  -11.0882 O   0  0  0  0  0  0  0  0  0  0  0  0
  1  2  1  0
  2  3  1  0
  2  4  1  0
  2  5  1  0
  5  6  1  0
  6  7  2  0
  6  8  1  0
  8  9  1  0
 10  9  1  1
 10 11  1  0
 11 12  1  0
 12 13  1  0
 13 14  1  6
 14 15  2  0
 14 16  1  0
 16 17  1  0
 17 18  1  0
 18 19  2  0
 19 20  1  0
 20 21  1  0
 21 22  2  0
 22 23  1  0
 22 24  1  0
 24 25  2  0
 25 26  1  0
 13 27  1  0
 27 28  1  0
 13 29  1  0
 28 10  1  0
 29 10  1  0
 26 17  2  0
 25 20  1  0
M  END
>  <energy_score>  (597) 
-2.733949

>  <alias>  (597) 
None

>  <HIPPO Pose ID>  (597) 
69948

>  <smiles>  (597) 
CC(C)(C)OC(=O)NC[C@]12CC[C@](C(=O)Nc3ccn4cc(O)nc4c3)(CC1)O2

>  <inchikey>  (597) 
KYBSHNDSASOGJI-BGYRXZFFSA-N

>  <distance_score>  (597) 
1.709764

>  <ref_mols>  (597) 
Z1046b,Z1495a

>  <ref_pdb>  (597) 
Z1495a

>  <HIPPO Compound ID>  (597) 
139350

>  <name>  (597) 
P69948

>  <inspiration_score>  (597) 
None

$$$$
P69949
     RDKit          3D

 29 32  0  0  0  0  0  0  0  0999 V2000
   -9.8236    4.1285   -4.7160 C   0  0  0  0  0  0  0  0  0  0  0  0
   -8.4433    4.7873   -4.7882 C   0  0  0  0  0  0  0  0  0  0  0  0
   -7.5147    4.1621   -3.7483 C   0  0  0  0  0  0  0  0  0  0  0  0
   -8.5164    6.2945   -4.5045 C   0  0  0  0  0  0  0  0  0  0  0  0
   -7.8106    4.4586   -6.0502 O   0  0  0  0  0  0  0  0  0  0  0  0
   -8.2420    5.0276   -7.1995 C   0  0  0  0  0  0  0  0  0  0  0  0
   -9.0565    5.8509   -7.2507 O   0  0  0  0  0  0  0  0  0  0  0  0
   -7.3726    4.4289   -8.2968 N   0  0  0  0  0  0  0  0  0  0  0  0
   -7.2480    4.7790   -9.6847 C   0  0  1  0  0  0  0  0  0  0  0  0
   -6.9108    3.7152  -10.7941 C   0  0  0  0  0  0  0  0  0  0  0  0
   -7.4931    4.9169  -11.6503 C   0  0  1  0  0  0  0  0  0  0  0  0
   -7.8978    4.7310  -13.1409 C   0  0  0  0  0  0  0  0  0  0  0  0
   -8.9908    4.5267  -13.5079 O   0  0  0  0  0  0  0  0  0  0  0  0
   -6.5838    4.9267  -13.9491 N   0  0  0  0  0  0  0  0  0  0  0  0
   -6.3748    5.0012  -15.2927 C   0  0  0  0  0  0  0  0  0  0  0  0
   -7.4314    4.6125  -16.2097 C   0  0  0  0  0  0  0  0  0  0  0  0
   -7.2834    4.8067  -17.5340 C   0  0  0  0  0  0  0  0  0  0  0  0
   -8.6655    4.3183  -18.6731 Br  0  0  0  0  0  0  0  0  0  0  0  0
   -6.0913    5.3880  -17.9956 N   0  0  0  0  0  0  0  0  0  0  0  0
   -5.6873    5.8162  -19.2364 C   0  0  0  0  0  0  0  0  0  0  0  0
   -4.4278    6.3381  -19.0922 C   0  0  0  0  0  0  0  0  0  0  0  0
   -4.0179    6.2558  -17.7937 N   0  0  0  0  0  0  0  0  0  0  0  0
   -5.0285    5.7055  -17.1497 C   0  0  0  0  0  0  0  0  0  0  0  0
   -5.2025    5.4717  -15.7606 C   0  0  0  0  0  0  0  0  0  0  0  0
   -8.5661    4.8972  -10.5071 C   0  0  0  0  0  0  0  0  0  0  0  0
   -6.6088    6.0755  -11.4302 O   0  0  0  0  0  0  0  0  0  0  0  0
   -6.4280    6.0505  -10.0067 C   0  0  0  0  0  0  0  0  0  0  0  0
   -4.9463    5.8901   -9.6775 C   0  0  0  0  0  0  0  0  0  0  0  0
   -6.9738    7.3360   -9.3951 C   0  0  0  0  0  0  0  0  0  0  0  0
  1  2  1  0
  2  3  1  0
  2  4  1  0
  2  5  1  0
  5  6  1  0
  6  7  2  0
  6  8  1  0
  9  8  1  1
  9 10  1  0
 10 11  1  0
 11 12  1  6
 12 13  2  0
 12 14  1  0
 14 15  1  0
 15 16  1  0
 16 17  2  0
 17 18  1  0
 17 19  1  0
 19 20  1  0
 20 21  2  0
 21 22  1  0
 22 23  2  0
 23 24  1  0
 11 25  1  0
 11 26  1  0
 26 27  1  0
 27 28  1  0
 27 29  1  0
 25  9  1  0
 27  9  1  0
 24 15  2  0
 23 19  1  0
M  END
>  <energy_score>  (598) 
-63.341433

>  <alias>  (598) 
None

>  <HIPPO Pose ID>  (598) 
69949

>  <smiles>  (598) 
CC(C)(C)OC(=O)N[C@]12C[C@](C(=O)Nc3cc(Br)n4ccnc4c3)(C1)OC2(C)C

>  <inchikey>  (598) 
IZBBTTJYDLNWBB-MXVIHJGJSA-N

>  <distance_score>  (598) 
1.904096

>  <ref_mols>  (598) 
Z1046b,Z1495a

>  <ref_pdb>  (598) 
Z1495a

>  <HIPPO Compound ID>  (598) 
139356

>  <name>  (598) 
P69949

>  <inspiration_score>  (598) 
None

$$$$
P69952
     RDKit          3D

 29 32  0  0  0  0  0  0  0  0999 V2000
   -9.6272    5.7853   -4.7142 C   0  0  0  0  0  0  0  0  0  0  0  0
   -9.2356    4.3233   -4.9725 C   0  0  0  0  0  0  0  0  0  0  0  0
   -8.1610    3.9321   -3.9616 C   0  0  0  0  0  0  0  0  0  0  0  0
  -10.4888    3.4533   -4.8989 C   0  0  0  0  0  0  0  0  0  0  0  0
   -8.6576    4.3398   -6.2897 O   0  0  0  0  0  0  0  0  0  0  0  0
   -8.3568    3.2105   -6.9860 C   0  0  0  0  0  0  0  0  0  0  0  0
   -8.6169    2.1115   -6.6802 O   0  0  0  0  0  0  0  0  0  0  0  0
   -7.6821    3.7352   -8.1958 N   0  0  0  0  0  0  0  0  0  0  0  0
   -8.6925    4.0540   -9.3120 C   0  0  0  0  0  0  0  0  0  0  0  0
   -7.4760    4.2280  -10.1941 C   0  0  0  0  0  0  0  0  0  0  0  0
   -6.7586    5.5665   -9.8875 C   0  0  0  0  0  0  0  0  0  0  0  0
   -7.4743    6.7021  -10.4197 O   0  0  0  0  0  0  0  0  0  0  0  0
   -8.1942    6.4038  -11.6270 C   0  0  0  0  0  0  0  0  0  0  0  0
   -7.5340    5.2503  -12.3708 C   0  0  2  0  0  0  0  0  0  0  0  0
   -7.9191    5.2657  -13.8542 C   0  0  0  0  0  0  0  0  0  0  0  0
   -8.8915    5.7375  -14.3049 O   0  0  0  0  0  0  0  0  0  0  0  0
   -6.6842    4.6182  -14.5636 N   0  0  0  0  0  0  0  0  0  0  0  0
   -6.3796    4.5167  -15.8804 C   0  0  0  0  0  0  0  0  0  0  0  0
   -7.3366    4.8943  -16.9093 C   0  0  0  0  0  0  0  0  0  0  0  0
   -6.8672    5.3212  -18.0960 C   0  0  0  0  0  0  0  0  0  0  0  0
   -5.4903    5.3253  -18.3118 N   0  0  0  0  0  0  0  0  0  0  0  0
   -4.7162    5.9445  -19.2551 C   0  0  0  0  0  0  0  0  0  0  0  0
   -5.2225    7.2160  -20.5528 Br  0  0  0  0  0  0  0  0  0  0  0  0
   -3.4182    5.5866  -18.9894 C   0  0  0  0  0  0  0  0  0  0  0  0
   -3.3364    4.8237  -17.8633 N   0  0  0  0  0  0  0  0  0  0  0  0
   -4.5783    4.7529  -17.4277 C   0  0  0  0  0  0  0  0  0  0  0  0
   -5.0740    4.3386  -16.1694 C   0  0  0  0  0  0  0  0  0  0  0  0
   -7.6519    4.0421  -11.6340 O   0  0  0  0  0  0  0  0  0  0  0  0
   -7.0367    3.0175   -9.3520 C   0  0  0  0  0  0  0  0  0  0  0  0
  1  2  1  0
  2  3  1  0
  2  4  1  0
  2  5  1  0
  5  6  1  0
  6  7  2  0
  6  8  1  0
  8  9  1  0
  9 10  1  0
 10 11  1  0
 11 12  1  0
 12 13  1  0
 13 14  1  0
 14 15  1  6
 15 16  2  0
 15 17  1  0
 17 18  1  0
 18 19  1  0
 19 20  2  0
 20 21  1  0
 21 22  1  0
 22 23  1  0
 22 24  2  0
 24 25  1  0
 25 26  2  0
 26 27  1  0
 14 28  1  0
 10 29  1  0
 29  8  1  0
 28 10  1  0
 27 18  2  0
 26 21  1  0
M  END
>  <energy_score>  (599) 
-21.737804

>  <alias>  (599) 
None

>  <HIPPO Pose ID>  (599) 
69952

>  <smiles>  (599) 
CC(C)(C)OC(=O)N1CC2(COC[C@H](C(=O)Nc3ccn4c(Br)cnc4c3)O2)C1

>  <inchikey>  (599) 
ASSULHNAAGCVJV-CYBMUJFWSA-N

>  <distance_score>  (599) 
1.284956

>  <ref_mols>  (599) 
Z1046b,Z1495a

>  <ref_pdb>  (599) 
Z1495a

>  <HIPPO Compound ID>  (599) 
139362

>  <name>  (599) 
P69952

>  <inspiration_score>  (599) 
None

$$$$
P69954
     RDKit          3D

 25 28  0  0  0  0  0  0  0  0999 V2000
   -7.5775    4.7430  -18.7282 C   0  0  0  0  0  0  0  0  0  0  0  0
   -6.2057    5.1483  -19.2538 C   0  0  0  0  0  0  0  0  0  0  0  0
   -5.3627    5.6741  -18.2029 N   0  0  0  0  0  0  0  0  0  0  0  0
   -4.7949    4.7722  -17.2229 C   0  0  0  0  0  0  0  0  0  0  0  0
   -4.5393    5.6601  -16.0630 C   0  0  0  0  0  0  0  0  0  0  0  0
   -4.1323    5.3124  -14.7808 C   0  0  0  0  0  0  0  0  0  0  0  0
   -4.0486    6.3173  -13.7966 C   0  0  0  0  0  0  0  0  0  0  0  0
   -3.4477    6.0022  -12.4454 C   0  0  0  0  0  0  0  0  0  0  0  0
   -4.2866    5.6616  -11.3140 N   0  0  0  0  0  0  0  0  0  0  0  0
   -5.0646    4.3464  -10.9882 C   0  0  0  0  0  0  0  0  0  0  0  0
   -5.2058    3.3723  -11.6223 O   0  0  0  0  0  0  0  0  0  0  0  0
   -5.5988    4.4356   -9.5468 C   0  0  0  0  0  0  0  0  0  0  0  0
   -6.9451    4.9178   -9.3646 N   0  0  0  0  0  0  0  0  0  0  0  0
   -7.2170    6.2089   -9.6374 N   0  0  0  0  0  0  0  0  0  0  0  0
   -8.3967    6.4438   -9.0882 N   0  0  0  0  0  0  0  0  0  0  0  0
   -8.8460    5.3448   -8.4081 N   0  0  0  0  0  0  0  0  0  0  0  0
   -7.9454    4.4069   -8.5772 C   0  0  0  0  0  0  0  0  0  0  0  0
   -8.0772    3.0126   -7.9361 C   0  0  0  0  0  0  0  0  0  0  0  0
   -7.7298    1.8008   -8.7359 C   0  0  0  0  0  0  0  0  0  0  0  0
   -9.1667    2.1183   -8.4624 C   0  0  0  0  0  0  0  0  0  0  0  0
   -4.3904    7.6474  -14.1533 C   0  0  0  0  0  0  0  0  0  0  0  0
   -4.8009    7.9846  -15.4599 C   0  0  0  0  0  0  0  0  0  0  0  0
   -4.8790    6.9723  -16.3903 C   0  0  0  0  0  0  0  0  0  0  0  0
   -5.4360    6.9838  -17.7521 C   0  0  0  0  0  0  0  0  0  0  0  0
   -5.9112    7.9648  -18.2946 O   0  0  0  0  0  0  0  0  0  0  0  0
  1  2  1  0
  2  3  1  0
  3  4  1  0
  4  5  1  0
  5  6  2  0
  6  7  1  0
  7  8  1  0
  8  9  1  0
  9 10  1  0
 10 11  2  0
 10 12  1  0
 12 13  1  0
 13 14  1  0
 14 15  2  0
 15 16  1  0
 16 17  2  0
 17 18  1  0
 18 19  1  0
 19 20  1  0
  7 21  2  0
 21 22  1  0
 22 23  2  0
 23 24  1  0
 24 25  2  0
 24  3  1  0
 23  5  1  0
 17 13  1  0
 20 18  1  0
M  END
>  <energy_score>  (600) 
-10.462322

>  <alias>  (600) 
None

>  <HIPPO Pose ID>  (600) 
69954

>  <smiles>  (600) 
CCN1Cc2cc(CNC(=O)Cn3nnnc3C3CC3)ccc2C1=O

>  <inchikey>  (600) 
PQIWPFPNVVIKQU-UHFFFAOYSA-N

>  <distance_score>  (600) 
1.860633

>  <ref_mols>  (600) 
Z0788a,Z0969a

>  <ref_pdb>  (600) 
Z0788a

>  <HIPPO Compound ID>  (600) 
139395

>  <name>  (600) 
P69954

>  <inspiration_score>  (600) 
None

$$$$
P69955
     RDKit          3D

 27 30  0  0  0  0  0  0  0  0999 V2000
   -3.0605    5.0250  -17.4158 C   0  0  0  0  0  0  0  0  0  0  0  0
   -3.9464    6.2033  -17.4656 C   0  0  0  0  0  0  0  0  0  0  0  0
   -3.7666    7.3023  -18.1709 N   0  0  0  0  0  0  0  0  0  0  0  0
   -4.8468    8.1050  -17.9192 N   0  0  0  0  0  0  0  0  0  0  0  0
   -5.6732    7.5289  -17.0603 N   0  0  0  0  0  0  0  0  0  0  0  0
   -5.1268    6.3288  -16.7749 N   0  0  0  0  0  0  0  0  0  0  0  0
   -5.8221    5.3383  -15.9428 C   0  0  1  0  0  0  0  0  0  0  0  0
   -5.5806    5.6815  -14.4100 C   0  0  0  0  0  0  0  0  0  0  0  0
   -4.4767    5.5492  -14.0267 O   0  0  0  0  0  0  0  0  0  0  0  0
   -6.8613    6.1836  -13.6599 N   0  0  0  0  0  0  0  0  0  0  0  0
   -7.0223    6.7202  -12.3001 C   0  0  0  0  0  0  0  0  0  0  0  0
   -7.4200    5.7912  -11.1504 C   0  0  0  0  0  0  0  0  0  0  0  0
   -7.0912    6.1412   -9.8012 C   0  0  0  0  0  0  0  0  0  0  0  0
   -7.4048    5.3275   -8.6854 C   0  0  0  0  0  0  0  0  0  0  0  0
   -8.0840    4.1577   -8.9152 C   0  0  0  0  0  0  0  0  0  0  0  0
   -8.4655    3.8558  -10.2190 C   0  0  0  0  0  0  0  0  0  0  0  0
   -8.1595    4.6267  -11.3385 C   0  0  0  0  0  0  0  0  0  0  0  0
   -9.2051    2.6038  -10.1737 C   0  0  0  0  0  0  0  0  0  0  0  0
   -9.7163    2.0823  -11.1426 O   0  0  0  0  0  0  0  0  0  0  0  0
   -9.2152    2.1773   -8.8636 N   0  0  0  0  0  0  0  0  0  0  0  0
   -8.4876    3.0559   -7.9890 C   0  0  0  0  0  0  0  0  0  0  0  0
   -7.1792    4.9557  -16.5265 C   0  0  0  0  0  0  0  0  0  0  0  0
   -7.4636    5.0463  -17.9126 C   0  0  0  0  0  0  0  0  0  0  0  0
   -8.7036    4.6739  -18.4391 C   0  0  0  0  0  0  0  0  0  0  0  0
   -9.6919    4.2199  -17.5991 C   0  0  0  0  0  0  0  0  0  0  0  0
   -9.3923    4.0582  -16.2579 C   0  0  0  0  0  0  0  0  0  0  0  0
   -8.1453    4.3592  -15.7306 C   0  0  0  0  0  0  0  0  0  0  0  0
  1  2  1  0
  2  3  2  0
  3  4  1  0
  4  5  2  0
  5  6  1  0
  7  6  1  6
  7  8  1  0
  8  9  2  0
  8 10  1  0
 10 11  1  0
 11 12  1  0
 12 13  2  0
 13 14  1  0
 14 15  2  0
 15 16  1  0
 16 17  2  0
 16 18  1  0
 18 19  2  0
 18 20  1  0
 20 21  1  0
  7 22  1  0
 22 23  2  0
 23 24  1  0
 24 25  2  0
 25 26  1  0
 26 27  2  0
  6  2  1  0
 17 12  1  0
 27 22  1  0
 21 15  1  0
M  END
>  <energy_score>  (601) 
-18.514358

>  <alias>  (601) 
None

>  <HIPPO Pose ID>  (601) 
69955

>  <smiles>  (601) 
Cc1nnnn1[C@@H](C(=O)NCc1ccc2c(c1)C(=O)NC2)c1ccccc1

>  <inchikey>  (601) 
MXDCCQYVQPVQSY-QGZVFWFLSA-N

>  <distance_score>  (601) 
1.634905

>  <ref_mols>  (601) 
Z0788a,Z0969a

>  <ref_pdb>  (601) 
Z0788a

>  <HIPPO Compound ID>  (601) 
139401

>  <name>  (601) 
P69955

>  <inspiration_score>  (601) 
None

$$$$
P69957
     RDKit          3D

 28 31  0  0  0  0  0  0  0  0999 V2000
   -3.0310    5.0340  -17.4029 C   0  0  0  0  0  0  0  0  0  0  0  0
   -3.9408    6.1923  -17.4866 C   0  0  0  0  0  0  0  0  0  0  0  0
   -3.7723    7.2843  -18.2055 N   0  0  0  0  0  0  0  0  0  0  0  0
   -4.8688    8.0719  -17.9770 N   0  0  0  0  0  0  0  0  0  0  0  0
   -5.6973    7.4915  -17.1230 N   0  0  0  0  0  0  0  0  0  0  0  0
   -5.1349    6.3035  -16.8173 N   0  0  0  0  0  0  0  0  0  0  0  0
   -5.8271    5.3066  -15.9907 C   0  0  1  0  0  0  0  0  0  0  0  0
   -5.5808    5.6374  -14.4573 C   0  0  0  0  0  0  0  0  0  0  0  0
   -4.4801    5.4857  -14.0733 O   0  0  0  0  0  0  0  0  0  0  0  0
   -6.8520    6.1654  -13.7093 N   0  0  0  0  0  0  0  0  0  0  0  0
   -7.0032    6.7080  -12.3531 C   0  0  0  0  0  0  0  0  0  0  0  0
   -7.4512    5.8067  -11.1972 C   0  0  0  0  0  0  0  0  0  0  0  0
   -7.2766    6.2651   -9.8474 C   0  0  0  0  0  0  0  0  0  0  0  0
   -7.6613    5.5111   -8.7176 C   0  0  0  0  0  0  0  0  0  0  0  0
   -8.2356    4.2905   -8.9556 C   0  0  0  0  0  0  0  0  0  0  0  0
   -8.4444    3.8510  -10.2475 C   0  0  0  0  0  0  0  0  0  0  0  0
   -8.0793    4.5733  -11.3808 C   0  0  0  0  0  0  0  0  0  0  0  0
   -9.1612    2.5919  -10.1432 C   0  0  0  0  0  0  0  0  0  0  0  0
   -9.7239    2.0747  -11.0870 O   0  0  0  0  0  0  0  0  0  0  0  0
   -9.1786    2.2482   -8.8258 N   0  0  0  0  0  0  0  0  0  0  0  0
   -8.7796    3.2838   -8.0437 C   0  0  0  0  0  0  0  0  0  0  0  0
   -8.9147    3.4473   -6.8480 O   0  0  0  0  0  0  0  0  0  0  0  0
   -7.1897    4.9318  -16.5658 C   0  0  0  0  0  0  0  0  0  0  0  0
   -7.4856    5.0275  -17.9486 C   0  0  0  0  0  0  0  0  0  0  0  0
   -8.7340    4.6667  -18.4634 C   0  0  0  0  0  0  0  0  0  0  0  0
   -9.7180    4.2190  -17.6148 C   0  0  0  0  0  0  0  0  0  0  0  0
   -9.4068    4.0514  -16.2772 C   0  0  0  0  0  0  0  0  0  0  0  0
   -8.1527    4.3413  -15.7621 C   0  0  0  0  0  0  0  0  0  0  0  0
  1  2  1  0
  2  3  2  0
  3  4  1  0
  4  5  2  0
  5  6  1  0
  7  6  1  6
  7  8  1  0
  8  9  2  0
  8 10  1  0
 10 11  1  0
 11 12  1  0
 12 13  2  0
 13 14  1  0
 14 15  2  0
 15 16  1  0
 16 17  2  0
 16 18  1  0
 18 19  2  0
 18 20  1  0
 20 21  1  0
 21 22  2  0
  7 23  1  0
 23 24  2  0
 24 25  1  0
 25 26  2  0
 26 27  1  0
 27 28  2  0
  6  2  1  0
 17 12  1  0
 28 23  1  0
 21 15  1  0
M  END
>  <energy_score>  (602) 
-14.01978

>  <alias>  (602) 
None

>  <HIPPO Pose ID>  (602) 
69957

>  <smiles>  (602) 
Cc1nnnn1[C@@H](C(=O)NCc1ccc2c(c1)C(=O)NC2=O)c1ccccc1

>  <inchikey>  (602) 
KFCUXFSNPXXDQJ-MRXNPFEDSA-N

>  <distance_score>  (602) 
1.556117

>  <ref_mols>  (602) 
Z0788a,Z0969a

>  <ref_pdb>  (602) 
Z0788a

>  <HIPPO Compound ID>  (602) 
139403

>  <name>  (602) 
P69957

>  <inspiration_score>  (602) 
None

$$$$
P69958
     RDKit          3D

 28 31  0  0  0  0  0  0  0  0999 V2000
   -3.1484    5.0420  -17.0334 C   0  0  0  0  0  0  0  0  0  0  0  0
   -3.9574    6.2036  -17.4456 C   0  0  0  0  0  0  0  0  0  0  0  0
   -3.6430    7.0918  -18.3669 N   0  0  0  0  0  0  0  0  0  0  0  0
   -4.7117    7.9403  -18.4702 N   0  0  0  0  0  0  0  0  0  0  0  0
   -5.6720    7.5934  -17.6299 N   0  0  0  0  0  0  0  0  0  0  0  0
   -5.1954    6.5275  -16.9417 N   0  0  0  0  0  0  0  0  0  0  0  0
   -5.9999    5.8089  -15.9329 C   0  0  1  0  0  0  0  0  0  0  0  0
   -6.2410    6.7499  -14.6699 C   0  0  0  0  0  0  0  0  0  0  0  0
   -6.2806    7.9125  -14.8229 O   0  0  0  0  0  0  0  0  0  0  0  0
   -6.2880    5.8945  -13.3491 N   0  0  0  0  0  0  0  0  0  0  0  0
   -6.2963    6.3120  -11.9524 C   0  0  0  0  0  0  0  0  0  0  0  0
   -7.1898    5.6786  -10.8922 C   0  0  0  0  0  0  0  0  0  0  0  0
   -7.5233    6.4882   -9.7604 C   0  0  0  0  0  0  0  0  0  0  0  0
   -8.1347    5.9742   -8.6130 C   0  0  0  0  0  0  0  0  0  0  0  0
   -8.4159    4.6353   -8.6120 C   0  0  0  0  0  0  0  0  0  0  0  0
   -8.1318    3.8116   -9.6981 C   0  0  0  0  0  0  0  0  0  0  0  0
   -7.5217    4.3162  -10.8493 C   0  0  0  0  0  0  0  0  0  0  0  0
   -8.5279    2.4133   -9.3469 C   0  0  0  0  0  0  0  0  0  0  0  0
   -9.1199    2.5613   -8.0269 N   0  0  0  0  0  0  0  0  0  0  0  0
   -9.3894    1.4422   -7.1708 C   0  0  0  0  0  0  0  0  0  0  0  0
   -9.0048    3.8400   -7.5354 C   0  0  0  0  0  0  0  0  0  0  0  0
   -9.3051    4.2907   -6.4456 O   0  0  0  0  0  0  0  0  0  0  0  0
   -7.2485    5.1940  -16.5707 C   0  0  0  0  0  0  0  0  0  0  0  0
   -7.4168    5.0254  -17.9671 C   0  0  0  0  0  0  0  0  0  0  0  0
   -8.5813    4.4769  -18.5099 C   0  0  0  0  0  0  0  0  0  0  0  0
   -9.5874    4.0508  -17.6746 C   0  0  0  0  0  0  0  0  0  0  0  0
   -9.3968    4.1370  -16.3062 C   0  0  0  0  0  0  0  0  0  0  0  0
   -8.2576    4.7014  -15.7507 C   0  0  0  0  0  0  0  0  0  0  0  0
  1  2  1  0
  2  3  2  0
  3  4  1  0
  4  5  2  0
  5  6  1  0
  7  6  1  6
  7  8  1  0
  8  9  2  0
  8 10  1  0
 10 11  1  0
 11 12  1  0
 12 13  2  0
 13 14  1  0
 14 15  2  0
 15 16  1  0
 16 17  2  0
 16 18  1  0
 18 19  1  0
 19 20  1  0
 19 21  1  0
 21 22  2  0
  7 23  1  0
 23 24  2  0
 24 25  1  0
 25 26  2  0
 26 27  1  0
 27 28  2  0
  6  2  1  0
 17 12  1  0
 28 23  1  0
 21 15  1  0
M  END
>  <energy_score>  (603) 
-1.659158

>  <alias>  (603) 
None

>  <HIPPO Pose ID>  (603) 
69958

>  <smiles>  (603) 
Cc1nnnn1[C@@H](C(=O)NCc1ccc2c(c1)CN(C)C2=O)c1ccccc1

>  <inchikey>  (603) 
DBVNXFMCXAWFFG-GOSISDBHSA-N

>  <distance_score>  (603) 
1.596425

>  <ref_mols>  (603) 
Z0788a,Z0969a

>  <ref_pdb>  (603) 
Z0788a

>  <HIPPO Compound ID>  (603) 
139405

>  <name>  (603) 
P69958

>  <inspiration_score>  (603) 
None

$$$$
P69959
     RDKit          3D

 28 31  0  0  0  0  0  0  0  0999 V2000
   -2.9731    5.1072  -16.9902 C   0  0  0  0  0  0  0  0  0  0  0  0
   -3.9140    6.2422  -17.0472 C   0  0  0  0  0  0  0  0  0  0  0  0
   -3.8637    7.2672  -17.8747 N   0  0  0  0  0  0  0  0  0  0  0  0
   -4.9579    8.0397  -17.5974 N   0  0  0  0  0  0  0  0  0  0  0  0
   -5.6663    7.5168  -16.6077 N   0  0  0  0  0  0  0  0  0  0  0  0
   -5.0296    6.3853  -16.2536 N   0  0  0  0  0  0  0  0  0  0  0  0
   -5.6077    5.4485  -15.2884 C   0  0  2  0  0  0  0  0  0  0  0  0
   -7.1136    5.2149  -15.4680 C   0  0  0  0  0  0  0  0  0  0  0  0
   -7.6847    4.7256  -16.7604 C   0  0  0  0  0  0  0  0  0  0  0  0
   -6.9505    4.5351  -17.9256 C   0  0  0  0  0  0  0  0  0  0  0  0
   -7.6077    4.2863  -19.1167 C   0  0  0  0  0  0  0  0  0  0  0  0
   -8.9948    4.2148  -19.1475 C   0  0  0  0  0  0  0  0  0  0  0  0
   -9.7385    4.3088  -17.9836 C   0  0  0  0  0  0  0  0  0  0  0  0
   -9.0761    4.5442  -16.7908 C   0  0  0  0  0  0  0  0  0  0  0  0
   -5.0961    5.7708  -13.8280 C   0  0  0  0  0  0  0  0  0  0  0  0
   -3.9391    5.7060  -13.6364 O   0  0  0  0  0  0  0  0  0  0  0  0
   -6.2758    6.0463  -12.8326 N   0  0  0  0  0  0  0  0  0  0  0  0
   -6.2738    6.2030  -11.3759 C   0  0  0  0  0  0  0  0  0  0  0  0
   -7.1691    5.2221  -10.6202 C   0  0  0  0  0  0  0  0  0  0  0  0
   -7.9645    4.2982  -11.3220 C   0  0  0  0  0  0  0  0  0  0  0  0
   -8.6789    3.3009  -10.6682 C   0  0  0  0  0  0  0  0  0  0  0  0
   -8.6210    3.2428   -9.2958 C   0  0  0  0  0  0  0  0  0  0  0  0
   -7.9088    4.1787   -8.5644 C   0  0  0  0  0  0  0  0  0  0  0  0
   -7.1784    5.1710   -9.2054 C   0  0  0  0  0  0  0  0  0  0  0  0
   -8.0876    3.8848   -7.1089 C   0  0  0  0  0  0  0  0  0  0  0  0
   -8.7468    2.5695   -7.0428 N   0  0  0  0  0  0  0  0  0  0  0  0
   -9.7729    2.4987   -6.0166 C   0  0  0  0  0  0  0  0  0  0  0  0
   -9.2693    2.2617   -8.3843 C   0  0  0  0  0  0  0  0  0  0  0  0
  1  2  1  0
  2  3  2  0
  3  4  1  0
  4  5  2  0
  5  6  1  0
  6  7  1  0
  7  8  1  1
  8  9  1  0
  9 10  2  0
 10 11  1  0
 11 12  2  0
 12 13  1  0
 13 14  2  0
  7 15  1  0
 15 16  2  0
 15 17  1  0
 17 18  1  0
 18 19  1  0
 19 20  2  0
 20 21  1  0
 21 22  2  0
 22 23  1  0
 23 24  2  0
 23 25  1  0
 25 26  1  0
 26 27  1  0
 26 28  1  0
  6  2  1  0
 14  9  1  0
 24 19  1  0
 28 22  1  0
M  END
>  <energy_score>  (604) 
-2.006699

>  <alias>  (604) 
None

>  <HIPPO Pose ID>  (604) 
69959

>  <smiles>  (604) 
Cc1nnnn1[C@H](Cc1ccccc1)C(=O)NCc1ccc2c(c1)CN(C)C2

>  <inchikey>  (604) 
LYAUFQKJPYWBTD-HXUWFJFHSA-N

>  <distance_score>  (604) 
1.956596

>  <ref_mols>  (604) 
Z0788a,Z0969a

>  <ref_pdb>  (604) 
Z0788a

>  <HIPPO Compound ID>  (604) 
139406

>  <name>  (604) 
P69959

>  <inspiration_score>  (604) 
None

$$$$
P69961
     RDKit          3D

 28 31  0  0  0  0  0  0  0  0999 V2000
   -2.8958    5.3386  -16.8887 C   0  0  0  0  0  0  0  0  0  0  0  0
   -3.9942    6.3059  -17.0982 C   0  0  0  0  0  0  0  0  0  0  0  0
   -3.9509    7.2983  -17.9655 N   0  0  0  0  0  0  0  0  0  0  0  0
   -5.2192    7.7622  -18.0782 N   0  0  0  0  0  0  0  0  0  0  0  0
   -6.0412    7.0769  -17.3046 N   0  0  0  0  0  0  0  0  0  0  0  0
   -5.2861    6.2104  -16.5497 N   0  0  0  0  0  0  0  0  0  0  0  0
   -5.7732    5.3583  -15.5185 C   0  0  0  0  0  0  0  0  0  0  0  0
   -6.8747    4.5852  -15.6510 C   0  0  0  0  0  0  0  0  0  0  0  0
   -7.7091    4.4782  -16.8337 C   0  0  0  0  0  0  0  0  0  0  0  0
   -7.1397    4.2772  -18.0885 C   0  0  0  0  0  0  0  0  0  0  0  0
   -7.9475    4.2360  -19.2034 C   0  0  0  0  0  0  0  0  0  0  0  0
   -9.3157    4.4193  -19.0708 C   0  0  0  0  0  0  0  0  0  0  0  0
   -9.9037    4.5189  -17.8186 C   0  0  0  0  0  0  0  0  0  0  0  0
   -9.0940    4.5326  -16.6911 C   0  0  0  0  0  0  0  0  0  0  0  0
   -4.9906    5.1622  -14.2323 C   0  0  0  0  0  0  0  0  0  0  0  0
   -3.8333    5.0247  -14.3016 O   0  0  0  0  0  0  0  0  0  0  0  0
   -5.9278    5.1981  -12.9921 N   0  0  0  0  0  0  0  0  0  0  0  0
   -5.6412    4.9771  -11.5952 C   0  0  0  0  0  0  0  0  0  0  0  0
   -6.7969    4.8424  -10.6250 C   0  0  0  0  0  0  0  0  0  0  0  0
   -7.1837    5.9404   -9.8290 C   0  0  0  0  0  0  0  0  0  0  0  0
   -7.9847    5.7526   -8.7024 C   0  0  0  0  0  0  0  0  0  0  0  0
   -8.4100    4.4715   -8.4067 C   0  0  0  0  0  0  0  0  0  0  0  0
   -8.1584    3.4111   -9.2597 C   0  0  0  0  0  0  0  0  0  0  0  0
   -7.3504    3.5733  -10.3651 C   0  0  0  0  0  0  0  0  0  0  0  0
   -8.7835    2.1648   -8.7166 C   0  0  0  0  0  0  0  0  0  0  0  0
   -9.5922    2.6242   -7.5710 N   0  0  0  0  0  0  0  0  0  0  0  0
   -9.5822    1.6653   -6.4844 C   0  0  0  0  0  0  0  0  0  0  0  0
   -9.0445    3.9282   -7.1717 C   0  0  0  0  0  0  0  0  0  0  0  0
  1  2  1  0
  2  3  2  0
  3  4  1  0
  4  5  2  0
  5  6  1  0
  6  7  1  0
  7  8  2  0
  8  9  1  0
  9 10  2  0
 10 11  1  0
 11 12  2  0
 12 13  1  0
 13 14  2  0
  7 15  1  0
 15 16  2  0
 15 17  1  0
 17 18  1  0
 18 19  1  0
 19 20  2  0
 20 21  1  0
 21 22  2  0
 22 23  1  0
 23 24  2  0
 23 25  1  0
 25 26  1  0
 26 27  1  0
 26 28  1  0
  6  2  1  0
 14  9  1  0
 24 19  1  0
 28 22  1  0
M  END
>  <energy_score>  (605) 
-9.438077

>  <alias>  (605) 
None

>  <HIPPO Pose ID>  (605) 
69961

>  <smiles>  (605) 
Cc1nnnn1/C(=C\c1ccccc1)C(=O)NCc1ccc2c(c1)CN(C)C2

>  <inchikey>  (605) 
GVEBCIQKGRYVKB-JAIQZWGSSA-N

>  <distance_score>  (605) 
1.942584

>  <ref_mols>  (605) 
Z0788a,Z0969a

>  <ref_pdb>  (605) 
Z0788a

>  <HIPPO Compound ID>  (605) 
139407

>  <name>  (605) 
P69961

>  <inspiration_score>  (605) 
None

$$$$
P69962
     RDKit          3D

 29 32  0  0  0  0  0  0  0  0999 V2000
   -2.9273    5.2694  -16.7898 C   0  0  0  0  0  0  0  0  0  0  0  0
   -3.8950    6.3316  -17.1198 C   0  0  0  0  0  0  0  0  0  0  0  0
   -3.8170    7.1763  -18.1281 N   0  0  0  0  0  0  0  0  0  0  0  0
   -4.9690    7.9128  -18.1038 N   0  0  0  0  0  0  0  0  0  0  0  0
   -5.7472    7.5363  -17.1018 N   0  0  0  0  0  0  0  0  0  0  0  0
   -5.0723    6.5710  -16.4466 N   0  0  0  0  0  0  0  0  0  0  0  0
   -5.6414    5.8525  -15.3028 C   0  0  2  0  0  0  0  0  0  0  0  0
   -7.1087    5.4101  -15.5006 C   0  0  0  0  0  0  0  0  0  0  0  0
   -7.6450    4.8099  -16.7602 C   0  0  0  0  0  0  0  0  0  0  0  0
   -9.0340    4.5981  -16.7923 C   0  0  0  0  0  0  0  0  0  0  0  0
   -9.6845    4.2988  -17.9776 C   0  0  0  0  0  0  0  0  0  0  0  0
   -8.9312    4.1738  -19.1319 C   0  0  0  0  0  0  0  0  0  0  0  0
   -7.5447    4.2614  -19.0920 C   0  0  0  0  0  0  0  0  0  0  0  0
   -6.8979    4.5552  -17.9036 C   0  0  0  0  0  0  0  0  0  0  0  0
   -5.5586    6.7306  -13.9958 C   0  0  0  0  0  0  0  0  0  0  0  0
   -5.2904    7.8696  -14.0484 O   0  0  0  0  0  0  0  0  0  0  0  0
   -5.9742    5.8415  -12.7731 N   0  0  0  0  0  0  0  0  0  0  0  0
   -6.2363    6.2061  -11.3772 C   0  0  0  0  0  0  0  0  0  0  0  0
   -7.1185    5.2241  -10.6164 C   0  0  0  0  0  0  0  0  0  0  0  0
   -7.9765    4.3564  -11.3226 C   0  0  0  0  0  0  0  0  0  0  0  0
   -8.6861    3.3430  -10.6847 C   0  0  0  0  0  0  0  0  0  0  0  0
   -8.6084    3.2530   -9.3152 C   0  0  0  0  0  0  0  0  0  0  0  0
   -7.8674    4.1727   -8.5894 C   0  0  0  0  0  0  0  0  0  0  0  0
   -7.1087    5.1541   -9.2054 C   0  0  0  0  0  0  0  0  0  0  0  0
   -8.1143    3.9142   -7.1641 C   0  0  0  0  0  0  0  0  0  0  0  0
   -7.7323    4.6395   -6.2635 O   0  0  0  0  0  0  0  0  0  0  0  0
   -8.9228    2.7955   -7.0988 N   0  0  0  0  0  0  0  0  0  0  0  0
   -9.6780    2.4225   -5.9296 C   0  0  0  0  0  0  0  0  0  0  0  0
   -9.2834    2.2959   -8.4053 C   0  0  0  0  0  0  0  0  0  0  0  0
  1  2  1  0
  2  3  2  0
  3  4  1  0
  4  5  2  0
  5  6  1  0
  6  7  1  0
  7  8  1  6
  8  9  1  0
  9 10  2  0
 10 11  1  0
 11 12  2  0
 12 13  1  0
 13 14  2  0
  7 15  1  0
 15 16  2  0
 15 17  1  0
 17 18  1  0
 18 19  1  0
 19 20  2  0
 20 21  1  0
 21 22  2  0
 22 23  1  0
 23 24  2  0
 23 25  1  0
 25 26  2  0
 25 27  1  0
 27 28  1  0
 27 29  1  0
  6  2  1  0
 14  9  1  0
 24 19  1  0
 29 22  1  0
M  END
>  <energy_score>  (606) 
-1.139017

>  <alias>  (606) 
None

>  <HIPPO Pose ID>  (606) 
69962

>  <smiles>  (606) 
Cc1nnnn1[C@H](Cc1ccccc1)C(=O)NCc1ccc2c(c1)C(=O)N(C)C2

>  <inchikey>  (606) 
POKZTMACGDKXAK-LJQANCHMSA-N

>  <distance_score>  (606) 
1.951197

>  <ref_mols>  (606) 
Z0788a,Z0969a

>  <ref_pdb>  (606) 
Z0788a

>  <HIPPO Compound ID>  (606) 
139409

>  <name>  (606) 
P69962

>  <inspiration_score>  (606) 
None

$$$$
P69963
     RDKit          3D

 29 32  0  0  0  0  0  0  0  0999 V2000
   -3.0935    5.1068  -17.1423 C   0  0  0  0  0  0  0  0  0  0  0  0
   -3.9267    6.2494  -17.5600 C   0  0  0  0  0  0  0  0  0  0  0  0
   -3.6265    7.1500  -18.4737 N   0  0  0  0  0  0  0  0  0  0  0  0
   -4.7138    7.9754  -18.5789 N   0  0  0  0  0  0  0  0  0  0  0  0
   -5.6703    7.6049  -17.7441 N   0  0  0  0  0  0  0  0  0  0  0  0
   -5.1734    6.5444  -17.0631 N   0  0  0  0  0  0  0  0  0  0  0  0
   -5.9478    5.8296  -16.0312 C   0  0  1  0  0  0  0  0  0  0  0  0
   -6.1358    6.7768  -14.7655 C   0  0  0  0  0  0  0  0  0  0  0  0
   -6.1498    7.9399  -14.9165 O   0  0  0  0  0  0  0  0  0  0  0  0
   -6.1739    5.9220  -13.4463 N   0  0  0  0  0  0  0  0  0  0  0  0
   -6.1396    6.3367  -12.0520 C   0  0  0  0  0  0  0  0  0  0  0  0
   -7.0356    5.6816  -11.0120 C   0  0  0  0  0  0  0  0  0  0  0  0
   -7.7493    6.5134  -10.0977 C   0  0  0  0  0  0  0  0  0  0  0  0
   -8.4024    6.0037   -8.9687 C   0  0  0  0  0  0  0  0  0  0  0  0
   -8.3522    4.6481   -8.7790 C   0  0  0  0  0  0  0  0  0  0  0  0
   -7.6612    3.8218   -9.6390 C   0  0  0  0  0  0  0  0  0  0  0  0
   -6.9994    4.3011  -10.7638 C   0  0  0  0  0  0  0  0  0  0  0  0
   -7.6649    2.4949   -9.0275 C   0  0  0  0  0  0  0  0  0  0  0  0
   -6.8696    1.6323   -9.3478 O   0  0  0  0  0  0  0  0  0  0  0  0
   -8.5599    2.5547   -7.9915 N   0  0  0  0  0  0  0  0  0  0  0  0
   -8.8291    1.4835   -7.0838 C   0  0  0  0  0  0  0  0  0  0  0  0
   -8.8883    3.8408   -7.6957 C   0  0  0  0  0  0  0  0  0  0  0  0
   -9.4536    4.3206   -6.7297 O   0  0  0  0  0  0  0  0  0  0  0  0
   -7.2184    5.2147  -16.6216 C   0  0  0  0  0  0  0  0  0  0  0  0
   -7.4348    5.0410  -18.0102 C   0  0  0  0  0  0  0  0  0  0  0  0
   -8.6181    4.4911  -18.5096 C   0  0  0  0  0  0  0  0  0  0  0  0
   -9.5961    4.0698  -17.6380 C   0  0  0  0  0  0  0  0  0  0  0  0
   -9.3582    4.1591  -16.2764 C   0  0  0  0  0  0  0  0  0  0  0  0
   -8.1975    4.7223  -15.7643 C   0  0  0  0  0  0  0  0  0  0  0  0
  1  2  1  0
  2  3  2  0
  3  4  1  0
  4  5  2  0
  5  6  1  0
  7  6  1  6
  7  8  1  0
  8  9  2  0
  8 10  1  0
 10 11  1  0
 11 12  1  0
 12 13  2  0
 13 14  1  0
 14 15  2  0
 15 16  1  0
 16 17  2  0
 16 18  1  0
 18 19  2  0
 18 20  1  0
 20 21  1  0
 20 22  1  0
 22 23  2  0
  7 24  1  0
 24 25  2  0
 25 26  1  0
 26 27  2  0
 27 28  1  0
 28 29  2  0
  6  2  1  0
 17 12  1  0
 29 24  1  0
 22 15  1  0
M  END
>  <energy_score>  (607) 
-0.286381

>  <alias>  (607) 
None

>  <HIPPO Pose ID>  (607) 
69963

>  <smiles>  (607) 
Cc1nnnn1[C@@H](C(=O)NCc1ccc2c(c1)C(=O)N(C)C2=O)c1ccccc1

>  <inchikey>  (607) 
IQUFEWVXWYNNIP-QGZVFWFLSA-N

>  <distance_score>  (607) 
1.662457

>  <ref_mols>  (607) 
Z0788a,Z0969a

>  <ref_pdb>  (607) 
Z0788a

>  <HIPPO Compound ID>  (607) 
139414

>  <name>  (607) 
P69963

>  <inspiration_score>  (607) 
None

$$$$
P69964
     RDKit          3D

 29 32  0  0  0  0  0  0  0  0999 V2000
   -2.9066    5.5034  -16.5871 C   0  0  0  0  0  0  0  0  0  0  0  0
   -3.9470    6.4668  -17.0072 C   0  0  0  0  0  0  0  0  0  0  0  0
   -3.8123    7.3489  -17.9774 N   0  0  0  0  0  0  0  0  0  0  0  0
   -5.0552    7.8351  -18.2264 N   0  0  0  0  0  0  0  0  0  0  0  0
   -5.9497    7.2665  -17.4384 N   0  0  0  0  0  0  0  0  0  0  0  0
   -5.2714    6.4728  -16.5468 N   0  0  0  0  0  0  0  0  0  0  0  0
   -5.8362    5.7463  -15.4719 C   0  0  0  0  0  0  0  0  0  0  0  0
   -6.8874    4.9052  -15.6008 C   0  0  0  0  0  0  0  0  0  0  0  0
   -7.6381    4.6189  -16.8113 C   0  0  0  0  0  0  0  0  0  0  0  0
   -9.0317    4.5761  -16.7285 C   0  0  0  0  0  0  0  0  0  0  0  0
   -9.7918    4.4403  -17.8817 C   0  0  0  0  0  0  0  0  0  0  0  0
   -9.1431    4.3163  -19.1016 C   0  0  0  0  0  0  0  0  0  0  0  0
   -7.7582    4.2400  -19.1722 C   0  0  0  0  0  0  0  0  0  0  0  0
   -7.0020    4.3840  -18.0272 C   0  0  0  0  0  0  0  0  0  0  0  0
   -5.2256    5.8151  -14.0810 C   0  0  0  0  0  0  0  0  0  0  0  0
   -4.0754    5.6733  -13.9356 O   0  0  0  0  0  0  0  0  0  0  0  0
   -6.3425    6.1294  -13.0417 N   0  0  0  0  0  0  0  0  0  0  0  0
   -6.2798    6.2391  -11.5865 C   0  0  0  0  0  0  0  0  0  0  0  0
   -7.1824    5.2852  -10.8083 C   0  0  0  0  0  0  0  0  0  0  0  0
   -7.9556    4.3194  -11.4842 C   0  0  0  0  0  0  0  0  0  0  0  0
   -8.6725    3.3438  -10.8011 C   0  0  0  0  0  0  0  0  0  0  0  0
   -8.6331    3.3734   -9.4313 C   0  0  0  0  0  0  0  0  0  0  0  0
   -7.9294    4.3348   -8.7176 C   0  0  0  0  0  0  0  0  0  0  0  0
   -7.1937    5.2947   -9.3918 C   0  0  0  0  0  0  0  0  0  0  0  0
   -8.0670    4.0627   -7.2597 C   0  0  0  0  0  0  0  0  0  0  0  0
   -9.0341    2.9928   -7.2273 N   0  0  0  0  0  0  0  0  0  0  0  0
   -9.2119    2.1879   -6.0579 C   0  0  0  0  0  0  0  0  0  0  0  0
   -9.2477    2.4546   -8.4793 C   0  0  0  0  0  0  0  0  0  0  0  0
   -9.8126    1.4144   -8.7347 O   0  0  0  0  0  0  0  0  0  0  0  0
  1  2  1  0
  2  3  2  0
  3  4  1  0
  4  5  2  0
  5  6  1  0
  6  7  1  0
  7  8  2  0
  8  9  1  0
  9 10  2  0
 10 11  1  0
 11 12  2  0
 12 13  1  0
 13 14  2  0
  7 15  1  0
 15 16  2  0
 15 17  1  0
 17 18  1  0
 18 19  1  0
 19 20  2  0
 20 21  1  0
 21 22  2  0
 22 23  1  0
 23 24  2  0
 23 25  1  0
 25 26  1  0
 26 27  1  0
 26 28  1  0
 28 29  2  0
  6  2  1  0
 14  9  1  0
 24 19  1  0
 28 22  1  0
M  END
>  <energy_score>  (608) 
-29.968491

>  <alias>  (608) 
None

>  <HIPPO Pose ID>  (608) 
69964

>  <smiles>  (608) 
Cc1nnnn1/C(=C\c1ccccc1)C(=O)NCc1ccc2c(c1)CN(C)C2=O

>  <inchikey>  (608) 
HTFIVYJKYKAYMN-ODLFYWEKSA-N

>  <distance_score>  (608) 
1.889456

>  <ref_mols>  (608) 
Z0788a,Z0969a

>  <ref_pdb>  (608) 
Z0788a

>  <HIPPO Compound ID>  (608) 
139418

>  <name>  (608) 
P69964

>  <inspiration_score>  (608) 
None

$$$$
P69965
     RDKit          3D

 29 32  0  0  0  0  0  0  0  0999 V2000
   -2.9550    5.1324  -16.9458 C   0  0  0  0  0  0  0  0  0  0  0  0
   -3.8972    6.2655  -17.0197 C   0  0  0  0  0  0  0  0  0  0  0  0
   -3.8473    7.2781  -17.8624 N   0  0  0  0  0  0  0  0  0  0  0  0
   -4.9474    8.0486  -17.6043 N   0  0  0  0  0  0  0  0  0  0  0  0
   -5.6612    7.5351  -16.6137 N   0  0  0  0  0  0  0  0  0  0  0  0
   -5.0189    6.4145  -16.2356 N   0  0  0  0  0  0  0  0  0  0  0  0
   -5.6074    5.4818  -15.2722 C   0  0  2  0  0  0  0  0  0  0  0  0
   -7.1120    5.2457  -15.4694 C   0  0  0  0  0  0  0  0  0  0  0  0
   -7.6641    4.7395  -16.7645 C   0  0  0  0  0  0  0  0  0  0  0  0
   -6.9221    4.5843  -17.9330 C   0  0  0  0  0  0  0  0  0  0  0  0
   -7.5625    4.3107  -19.1296 C   0  0  0  0  0  0  0  0  0  0  0  0
   -8.9440    4.1763  -19.1641 C   0  0  0  0  0  0  0  0  0  0  0  0
   -9.6783    4.2315  -17.9972 C   0  0  0  0  0  0  0  0  0  0  0  0
  -11.0028    4.0493  -18.0237 F   0  0  0  0  0  0  0  0  0  0  0  0
   -9.0458    4.4979  -16.7988 C   0  0  0  0  0  0  0  0  0  0  0  0
   -5.1095    5.8115  -13.8092 C   0  0  0  0  0  0  0  0  0  0  0  0
   -3.9534    5.7576  -13.6099 O   0  0  0  0  0  0  0  0  0  0  0  0
   -6.2979    6.0782  -12.8226 N   0  0  0  0  0  0  0  0  0  0  0  0
   -6.3071    6.2378  -11.3660 C   0  0  0  0  0  0  0  0  0  0  0  0
   -7.1887    5.2428  -10.6133 C   0  0  0  0  0  0  0  0  0  0  0  0
   -7.9721    4.3107  -11.3174 C   0  0  0  0  0  0  0  0  0  0  0  0
   -8.6761    3.3043  -10.6660 C   0  0  0  0  0  0  0  0  0  0  0  0
   -8.6197    3.2453   -9.2935 C   0  0  0  0  0  0  0  0  0  0  0  0
   -7.9191    4.1882   -8.5599 C   0  0  0  0  0  0  0  0  0  0  0  0
   -7.1992    5.1896   -9.1986 C   0  0  0  0  0  0  0  0  0  0  0  0
   -8.0975    3.8914   -7.1050 C   0  0  0  0  0  0  0  0  0  0  0  0
   -8.7460    2.5708   -7.0406 N   0  0  0  0  0  0  0  0  0  0  0  0
   -9.7762    2.4925   -6.0190 C   0  0  0  0  0  0  0  0  0  0  0  0
   -9.2602    2.2572   -8.3841 C   0  0  0  0  0  0  0  0  0  0  0  0
  1  2  1  0
  2  3  2  0
  3  4  1  0
  4  5  2  0
  5  6  1  0
  6  7  1  0
  7  8  1  1
  8  9  1  0
  9 10  2  0
 10 11  1  0
 11 12  2  0
 12 13  1  0
 13 14  1  0
 13 15  2  0
  7 16  1  0
 16 17  2  0
 16 18  1  0
 18 19  1  0
 19 20  1  0
 20 21  2  0
 21 22  1  0
 22 23  2  0
 23 24  1  0
 24 25  2  0
 24 26  1  0
 26 27  1  0
 27 28  1  0
 27 29  1  0
  6  2  1  0
 15  9  1  0
 25 20  1  0
 29 23  1  0
M  END
>  <energy_score>  (609) 
-7.245393

>  <alias>  (609) 
None

>  <HIPPO Pose ID>  (609) 
69965

>  <smiles>  (609) 
Cc1nnnn1[C@H](Cc1cccc(F)c1)C(=O)NCc1ccc2c(c1)CN(C)C2

>  <inchikey>  (609) 
KBWSDAKLPVJHQB-HXUWFJFHSA-N

>  <distance_score>  (609) 
1.92653

>  <ref_mols>  (609) 
Z0788a,Z0969a

>  <ref_pdb>  (609) 
Z0788a

>  <HIPPO Compound ID>  (609) 
139420

>  <name>  (609) 
P69965

>  <inspiration_score>  (609) 
None

$$$$
P69966
     RDKit          3D

 29 32  0  0  0  0  0  0  0  0999 V2000
   -2.9040    5.5449  -16.4983 C   0  0  0  0  0  0  0  0  0  0  0  0
   -3.9492    6.4900  -16.9465 C   0  0  0  0  0  0  0  0  0  0  0  0
   -3.8103    7.3628  -17.9246 N   0  0  0  0  0  0  0  0  0  0  0  0
   -5.0558    7.8256  -18.2029 N   0  0  0  0  0  0  0  0  0  0  0  0
   -5.9558    7.2506  -17.4259 N   0  0  0  0  0  0  0  0  0  0  0  0
   -5.2813    6.4812  -16.5101 N   0  0  0  0  0  0  0  0  0  0  0  0
   -5.8540    5.7547  -15.4412 C   0  0  0  0  0  0  0  0  0  0  0  0
   -6.8965    4.9042  -15.5780 C   0  0  0  0  0  0  0  0  0  0  0  0
   -7.6420    4.6160  -16.7906 C   0  0  0  0  0  0  0  0  0  0  0  0
   -7.0022    4.3835  -18.0066 C   0  0  0  0  0  0  0  0  0  0  0  0
   -7.7570    4.2753  -19.1569 C   0  0  0  0  0  0  0  0  0  0  0  0
   -9.1354    4.3903  -19.0811 C   0  0  0  0  0  0  0  0  0  0  0  0
   -9.8352    4.4571  -20.2139 F   0  0  0  0  0  0  0  0  0  0  0  0
   -9.7946    4.4901  -17.8688 C   0  0  0  0  0  0  0  0  0  0  0  0
   -9.0376    4.5889  -16.7103 C   0  0  0  0  0  0  0  0  0  0  0  0
   -5.2710    5.8251  -14.0400 C   0  0  0  0  0  0  0  0  0  0  0  0
   -4.1507    5.5535  -13.8497 O   0  0  0  0  0  0  0  0  0  0  0  0
   -6.3850    6.2712  -13.0443 N   0  0  0  0  0  0  0  0  0  0  0  0
   -6.3660    6.3814  -11.5817 C   0  0  0  0  0  0  0  0  0  0  0  0
   -7.2209    5.3611  -10.8348 C   0  0  0  0  0  0  0  0  0  0  0  0
   -7.8994    4.3578  -11.5498 C   0  0  0  0  0  0  0  0  0  0  0  0
   -8.5458    3.3084  -10.9139 C   0  0  0  0  0  0  0  0  0  0  0  0
   -8.5462    3.2883   -9.5434 C   0  0  0  0  0  0  0  0  0  0  0  0
   -7.9722    4.3102   -8.7959 C   0  0  0  0  0  0  0  0  0  0  0  0
   -7.2924    5.3436   -9.4210 C   0  0  0  0  0  0  0  0  0  0  0  0
   -8.1825    3.9948   -7.3469 C   0  0  0  0  0  0  0  0  0  0  0  0
   -9.2301    2.9550   -7.3593 N   0  0  0  0  0  0  0  0  0  0  0  0
   -9.1526    2.0710   -6.2181 C   0  0  0  0  0  0  0  0  0  0  0  0
   -9.0566    2.2317   -8.6295 C   0  0  0  0  0  0  0  0  0  0  0  0
  1  2  1  0
  2  3  2  0
  3  4  1  0
  4  5  2  0
  5  6  1  0
  6  7  1  0
  7  8  2  0
  8  9  1  0
  9 10  2  0
 10 11  1  0
 11 12  2  0
 12 13  1  0
 12 14  1  0
 14 15  2  0
  7 16  1  0
 16 17  2  0
 16 18  1  0
 18 19  1  0
 19 20  1  0
 20 21  2  0
 21 22  1  0
 22 23  2  0
 23 24  1  0
 24 25  2  0
 24 26  1  0
 26 27  1  0
 27 28  1  0
 27 29  1  0
  6  2  1  0
 15  9  1  0
 25 20  1  0
 29 23  1  0
M  END
>  <energy_score>  (610) 
-37.295894

>  <alias>  (610) 
None

>  <HIPPO Pose ID>  (610) 
69966

>  <smiles>  (610) 
Cc1nnnn1/C(=C\c1ccc(F)cc1)C(=O)NCc1ccc2c(c1)CN(C)C2

>  <inchikey>  (610) 
NLORIYPTXAAKNN-JMIUGGIZSA-N

>  <distance_score>  (610) 
1.898681

>  <ref_mols>  (610) 
Z0788a,Z0969a

>  <ref_pdb>  (610) 
Z0788a

>  <HIPPO Compound ID>  (610) 
139421

>  <name>  (610) 
P69966

>  <inspiration_score>  (610) 
None

$$$$
P69967
     RDKit          3D

 30 33  0  0  0  0  0  0  0  0999 V2000
   -2.8751    5.2999  -16.9332 C   0  0  0  0  0  0  0  0  0  0  0  0
   -3.9709    6.2798  -17.0929 C   0  0  0  0  0  0  0  0  0  0  0  0
   -3.9403    7.2939  -17.9354 N   0  0  0  0  0  0  0  0  0  0  0  0
   -5.2073    7.7692  -18.0074 N   0  0  0  0  0  0  0  0  0  0  0  0
   -6.0160    7.0720  -17.2302 N   0  0  0  0  0  0  0  0  0  0  0  0
   -5.2504    6.1788  -16.5181 N   0  0  0  0  0  0  0  0  0  0  0  0
   -5.7255    5.3022  -15.5007 C   0  0  0  0  0  0  0  0  0  0  0  0
   -6.8370    4.5439  -15.6444 C   0  0  0  0  0  0  0  0  0  0  0  0
   -7.6844    4.4724  -16.8220 C   0  0  0  0  0  0  0  0  0  0  0  0
   -7.1254    4.2814  -18.0834 C   0  0  0  0  0  0  0  0  0  0  0  0
   -7.9420    4.2466  -19.1926 C   0  0  0  0  0  0  0  0  0  0  0  0
   -9.3093    4.4284  -19.0495 C   0  0  0  0  0  0  0  0  0  0  0  0
   -9.8867    4.5256  -17.7922 C   0  0  0  0  0  0  0  0  0  0  0  0
   -9.0686    4.5329  -16.6698 C   0  0  0  0  0  0  0  0  0  0  0  0
   -4.9147    5.0544  -14.2361 C   0  0  0  0  0  0  0  0  0  0  0  0
   -3.7580    4.9323  -14.3357 O   0  0  0  0  0  0  0  0  0  0  0  0
   -5.8300    4.9883  -12.9802 N   0  0  0  0  0  0  0  0  0  0  0  0
   -5.5162    4.6637  -11.6064 C   0  0  0  0  0  0  0  0  0  0  0  0
   -6.6588    4.6186  -10.6086 C   0  0  0  0  0  0  0  0  0  0  0  0
   -7.3082    5.8055  -10.1956 C   0  0  0  0  0  0  0  0  0  0  0  0
   -8.2020    5.7927   -9.1218 C   0  0  0  0  0  0  0  0  0  0  0  0
   -8.4340    4.5820   -8.4956 C   0  0  0  0  0  0  0  0  0  0  0  0
   -7.8586    3.4128   -8.9232 C   0  0  0  0  0  0  0  0  0  0  0  0
   -6.9673    3.3958   -9.9699 C   0  0  0  0  0  0  0  0  0  0  0  0
   -8.2969    2.3413   -8.0378 C   0  0  0  0  0  0  0  0  0  0  0  0
   -7.8455    1.2187   -8.0786 O   0  0  0  0  0  0  0  0  0  0  0  0
   -9.1899    2.8969   -7.1774 N   0  0  0  0  0  0  0  0  0  0  0  0
   -9.8469    2.1988   -6.1031 C   0  0  0  0  0  0  0  0  0  0  0  0
   -9.2042    4.2536   -7.3030 C   0  0  0  0  0  0  0  0  0  0  0  0
   -9.7030    5.0930   -6.5717 O   0  0  0  0  0  0  0  0  0  0  0  0
  1  2  1  0
  2  3  2  0
  3  4  1  0
  4  5  2  0
  5  6  1  0
  6  7  1  0
  7  8  2  0
  8  9  1  0
  9 10  2  0
 10 11  1  0
 11 12  2  0
 12 13  1  0
 13 14  2  0
  7 15  1  0
 15 16  2  0
 15 17  1  0
 17 18  1  0
 18 19  1  0
 19 20  2  0
 20 21  1  0
 21 22  2  0
 22 23  1  0
 23 24  2  0
 23 25  1  0
 25 26  2  0
 25 27  1  0
 27 28  1  0
 27 29  1  0
 29 30  2  0
  6  2  1  0
 14  9  1  0
 24 19  1  0
 29 22  1  0
M  END
>  <energy_score>  (611) 
-32.01283

>  <alias>  (611) 
None

>  <HIPPO Pose ID>  (611) 
69967

>  <smiles>  (611) 
Cc1nnnn1/C(=C\c1ccccc1)C(=O)NCc1ccc2c(c1)C(=O)N(C)C2=O

>  <inchikey>  (611) 
FJVLFIOAHVOBDW-WQRHYEAKSA-N

>  <distance_score>  (611) 
1.976202

>  <ref_mols>  (611) 
Z0788a,Z0969a

>  <ref_pdb>  (611) 
Z0788a

>  <HIPPO Compound ID>  (611) 
139422

>  <name>  (611) 
P69967

>  <inspiration_score>  (611) 
None

$$$$
P69968
     RDKit          3D

 30 33  0  0  0  0  0  0  0  0999 V2000
   -2.9859    5.1295  -16.8619 C   0  0  0  0  0  0  0  0  0  0  0  0
   -3.9251    6.2614  -16.9789 C   0  0  0  0  0  0  0  0  0  0  0  0
   -3.8646    7.2464  -17.8530 N   0  0  0  0  0  0  0  0  0  0  0  0
   -4.9636    8.0284  -17.6285 N   0  0  0  0  0  0  0  0  0  0  0  0
   -5.6881    7.5473  -16.6297 N   0  0  0  0  0  0  0  0  0  0  0  0
   -5.0527    6.4390  -16.2087 N   0  0  0  0  0  0  0  0  0  0  0  0
   -5.6566    5.5370  -15.2274 C   0  0  2  0  0  0  0  0  0  0  0  0
   -7.1524    5.2748  -15.4446 C   0  0  0  0  0  0  0  0  0  0  0  0
   -7.6967    4.7507  -16.7344 C   0  0  0  0  0  0  0  0  0  0  0  0
   -9.0890    4.5626  -16.7736 C   0  0  0  0  0  0  0  0  0  0  0  0
   -9.7424    4.3538  -17.9744 C   0  0  0  0  0  0  0  0  0  0  0  0
   -8.9821    4.2913  -19.1244 C   0  0  0  0  0  0  0  0  0  0  0  0
   -9.5930    4.2374  -20.3069 F   0  0  0  0  0  0  0  0  0  0  0  0
   -7.5972    4.3353  -19.0906 C   0  0  0  0  0  0  0  0  0  0  0  0
   -6.9475    4.5609  -17.8909 C   0  0  0  0  0  0  0  0  0  0  0  0
   -5.2055    5.9116  -13.7579 C   0  0  0  0  0  0  0  0  0  0  0  0
   -4.0596    5.8266  -13.5126 O   0  0  0  0  0  0  0  0  0  0  0  0
   -6.4227    6.2469  -12.8239 N   0  0  0  0  0  0  0  0  0  0  0  0
   -6.4809    6.4514  -11.3710 C   0  0  0  0  0  0  0  0  0  0  0  0
   -7.2581    5.3624  -10.6281 C   0  0  0  0  0  0  0  0  0  0  0  0
   -7.6418    4.1956  -11.3195 C   0  0  0  0  0  0  0  0  0  0  0  0
   -8.2534    3.1194  -10.6882 C   0  0  0  0  0  0  0  0  0  0  0  0
   -8.4747    3.1952   -9.3365 C   0  0  0  0  0  0  0  0  0  0  0  0
   -8.1602    4.3513   -8.6376 C   0  0  0  0  0  0  0  0  0  0  0  0
   -7.5554    5.4429   -9.2483 C   0  0  0  0  0  0  0  0  0  0  0  0
   -8.6100    4.1548   -7.2518 C   0  0  0  0  0  0  0  0  0  0  0  0
   -8.6159    5.0309   -6.4058 O   0  0  0  0  0  0  0  0  0  0  0  0
   -9.0744    2.8562   -7.1624 N   0  0  0  0  0  0  0  0  0  0  0  0
   -9.8396    2.3497   -6.0512 C   0  0  0  0  0  0  0  0  0  0  0  0
   -9.0292    2.1594   -8.4290 C   0  0  0  0  0  0  0  0  0  0  0  0
  1  2  1  0
  2  3  2  0
  3  4  1  0
  4  5  2  0
  5  6  1  0
  6  7  1  0
  7  8  1  1
  8  9  1  0
  9 10  2  0
 10 11  1  0
 11 12  2  0
 12 13  1  0
 12 14  1  0
 14 15  2  0
  7 16  1  0
 16 17  2  0
 16 18  1  0
 18 19  1  0
 19 20  1  0
 20 21  2  0
 21 22  1  0
 22 23  2  0
 23 24  1  0
 24 25  2  0
 24 26  1  0
 26 27  2  0
 26 28  1  0
 28 29  1  0
 28 30  1  0
  6  2  1  0
 15  9  1  0
 25 20  1  0
 30 23  1  0
M  END
>  <energy_score>  (612) 
-8.877456

>  <alias>  (612) 
None

>  <HIPPO Pose ID>  (612) 
69968

>  <smiles>  (612) 
Cc1nnnn1[C@H](Cc1ccc(F)cc1)C(=O)NCc1ccc2c(c1)C(=O)N(C)C2

>  <inchikey>  (612) 
JIGQFWGFGWWKNH-LJQANCHMSA-N

>  <distance_score>  (612) 
1.958683

>  <ref_mols>  (612) 
Z0788a,Z0969a

>  <ref_pdb>  (612) 
Z0788a

>  <HIPPO Compound ID>  (612) 
139423

>  <name>  (612) 
P69968

>  <inspiration_score>  (612) 
None

$$$$
P69969
     RDKit          3D

 30 33  0  0  0  0  0  0  0  0999 V2000
   -7.4354    4.7084  -18.8352 C   0  0  0  0  0  0  0  0  0  0  0  0
   -6.1562    4.8341  -19.6549 C   0  0  0  0  0  0  0  0  0  0  0  0
   -5.1381    5.5785  -18.9644 N   0  0  0  0  0  0  0  0  0  0  0  0
   -4.3376    4.9104  -17.9648 C   0  0  0  0  0  0  0  0  0  0  0  0
   -3.9454    6.0261  -17.0805 C   0  0  0  0  0  0  0  0  0  0  0  0
   -3.3945    5.9411  -15.8248 C   0  0  0  0  0  0  0  0  0  0  0  0
   -3.4106    7.1049  -15.0390 C   0  0  0  0  0  0  0  0  0  0  0  0
   -3.1456    7.0157  -13.5574 C   0  0  0  0  0  0  0  0  0  0  0  0
   -4.0728    6.1049  -12.9323 N   0  0  0  0  0  0  0  0  0  0  0  0
   -5.6235    6.1504  -12.8382 C   0  0  0  0  0  0  0  0  0  0  0  0
   -6.3895    6.8909  -13.3181 O   0  0  0  0  0  0  0  0  0  0  0  0
   -6.0878    5.0296  -11.9098 C   0  0  0  0  0  0  0  0  0  0  0  0
   -7.0997    5.4236  -11.1002 C   0  0  0  0  0  0  0  0  0  0  0  0
   -7.8172    4.6771  -10.0644 C   0  0  0  0  0  0  0  0  0  0  0  0
   -7.8752    5.2251   -8.7741 C   0  0  0  0  0  0  0  0  0  0  0  0
   -8.4312    4.4952   -7.7226 C   0  0  0  0  0  0  0  0  0  0  0  0
   -8.9569    3.2256   -7.9596 C   0  0  0  0  0  0  0  0  0  0  0  0
   -8.9782    2.7193   -9.2547 C   0  0  0  0  0  0  0  0  0  0  0  0
   -8.4182    3.4422  -10.3086 C   0  0  0  0  0  0  0  0  0  0  0  0
   -5.4513    3.7785  -12.0086 N   0  0  0  0  0  0  0  0  0  0  0  0
   -4.8793    3.3151  -13.1696 N   0  0  0  0  0  0  0  0  0  0  0  0
   -4.3334    2.1445  -12.9098 N   0  0  0  0  0  0  0  0  0  0  0  0
   -4.4165    1.8577  -11.5901 N   0  0  0  0  0  0  0  0  0  0  0  0
   -5.0710    2.8519  -11.0229 C   0  0  0  0  0  0  0  0  0  0  0  0
   -5.1702    3.0190   -9.5570 C   0  0  0  0  0  0  0  0  0  0  0  0
   -3.8132    8.3462  -15.5976 C   0  0  0  0  0  0  0  0  0  0  0  0
   -4.3140    8.4225  -16.8971 C   0  0  0  0  0  0  0  0  0  0  0  0
   -4.4151    7.2390  -17.5890 C   0  0  0  0  0  0  0  0  0  0  0  0
   -5.2094    6.9538  -18.7845 C   0  0  0  0  0  0  0  0  0  0  0  0
   -5.8504    7.7954  -19.3876 O   0  0  0  0  0  0  0  0  0  0  0  0
  1  2  1  0
  2  3  1  0
  3  4  1  0
  4  5  1  0
  5  6  2  0
  6  7  1  0
  7  8  1  0
  8  9  1  0
  9 10  1  0
 10 11  2  0
 10 12  1  0
 12 13  2  0
 13 14  1  0
 14 15  2  0
 15 16  1  0
 16 17  2  0
 17 18  1  0
 18 19  2  0
 12 20  1  0
 20 21  1  0
 21 22  2  0
 22 23  1  0
 23 24  2  0
 24 25  1  0
  7 26  2  0
 26 27  1  0
 27 28  2  0
 28 29  1  0
 29 30  2  0
 29  3  1  0
 28  5  1  0
 19 14  1  0
 24 20  1  0
M  END
>  <energy_score>  (613) 
-21.185434

>  <alias>  (613) 
None

>  <HIPPO Pose ID>  (613) 
69969

>  <smiles>  (613) 
CCN1Cc2cc(CNC(=O)/C(=C/c3ccccc3)n3nnnc3C)ccc2C1=O

>  <inchikey>  (613) 
AWYCSTIKCDMXAW-NDENLUEZSA-N

>  <distance_score>  (613) 
1.782619

>  <ref_mols>  (613) 
Z0788a,Z0969a

>  <ref_pdb>  (613) 
Z0788a

>  <HIPPO Compound ID>  (613) 
139425

>  <name>  (613) 
P69969

>  <inspiration_score>  (613) 
None

$$$$
P69972
     RDKit          3D

 30 33  0  0  0  0  0  0  0  0999 V2000
   -7.7020    4.7918  -17.8814 C   0  0  0  0  0  0  0  0  0  0  0  0
   -6.8689    5.3460  -19.0251 C   0  0  0  0  0  0  0  0  0  0  0  0
   -5.5778    5.8468  -18.6241 N   0  0  0  0  0  0  0  0  0  0  0  0
   -4.6080    4.9772  -17.9931 C   0  0  0  0  0  0  0  0  0  0  0  0
   -3.9535    5.8989  -17.0336 C   0  0  0  0  0  0  0  0  0  0  0  0
   -3.2689    5.5744  -15.8815 C   0  0  0  0  0  0  0  0  0  0  0  0
   -3.0485    6.6077  -14.9540 C   0  0  0  0  0  0  0  0  0  0  0  0
   -2.6584    6.2846  -13.5300 C   0  0  0  0  0  0  0  0  0  0  0  0
   -3.7502    5.6572  -12.8165 N   0  0  0  0  0  0  0  0  0  0  0  0
   -5.2145    6.1512  -12.5612 C   0  0  0  0  0  0  0  0  0  0  0  0
   -5.7741    7.1020  -12.9563 O   0  0  0  0  0  0  0  0  0  0  0  0
   -5.9173    5.1227  -11.6372 C   0  0  1  0  0  0  0  0  0  0  0  0
   -7.3742    5.5189  -11.2877 C   0  0  0  0  0  0  0  0  0  0  0  0
   -7.9031    4.7896  -10.0727 C   0  0  0  0  0  0  0  0  0  0  0  0
   -7.8969    5.4125   -8.8171 C   0  0  0  0  0  0  0  0  0  0  0  0
   -8.2872    4.7051   -7.6775 C   0  0  0  0  0  0  0  0  0  0  0  0
   -8.6866    3.3713   -7.7798 C   0  0  0  0  0  0  0  0  0  0  0  0
   -8.7345    2.7606   -9.0258 C   0  0  0  0  0  0  0  0  0  0  0  0
   -8.3526    3.4655  -10.1661 C   0  0  0  0  0  0  0  0  0  0  0  0
   -5.7952    3.7964  -12.2093 N   0  0  0  0  0  0  0  0  0  0  0  0
   -4.8105    2.9892  -11.7609 N   0  0  0  0  0  0  0  0  0  0  0  0
   -4.8571    1.9181  -12.5344 N   0  0  0  0  0  0  0  0  0  0  0  0
   -5.8041    2.0630  -13.5115 N   0  0  0  0  0  0  0  0  0  0  0  0
   -6.3553    3.2464  -13.3329 C   0  0  0  0  0  0  0  0  0  0  0  0
   -7.3702    3.8854  -14.1939 C   0  0  0  0  0  0  0  0  0  0  0  0
   -3.3595    7.9523  -15.2897 C   0  0  0  0  0  0  0  0  0  0  0  0
   -4.0018    8.2700  -16.4868 C   0  0  0  0  0  0  0  0  0  0  0  0
   -4.3347    7.2168  -17.3051 C   0  0  0  0  0  0  0  0  0  0  0  0
   -5.3856    7.1884  -18.3241 C   0  0  0  0  0  0  0  0  0  0  0  0
   -6.0177    8.1661  -18.6841 O   0  0  0  0  0  0  0  0  0  0  0  0
  1  2  1  0
  2  3  1  0
  3  4  1  0
  4  5  1  0
  5  6  2  0
  6  7  1  0
  7  8  1  0
  8  9  1  0
  9 10  1  0
 10 11  2  0
 10 12  1  0
 12 13  1  6
 13 14  1  0
 14 15  2  0
 15 16  1  0
 16 17  2  0
 17 18  1  0
 18 19  2  0
 12 20  1  0
 20 21  1  0
 21 22  2  0
 22 23  1  0
 23 24  2  0
 24 25  1  0
  7 26  2  0
 26 27  1  0
 27 28  2  0
 28 29  1  0
 29 30  2  0
 29  3  1  0
 28  5  1  0
 19 14  1  0
 24 20  1  0
M  END
>  <energy_score>  (614) 
-6.51212

>  <alias>  (614) 
None

>  <HIPPO Pose ID>  (614) 
69972

>  <smiles>  (614) 
CCN1Cc2cc(CNC(=O)[C@@H](Cc3ccccc3)n3nnnc3C)ccc2C1=O

>  <inchikey>  (614) 
TZOBDARSXNQKAY-HXUWFJFHSA-N

>  <distance_score>  (614) 
1.618145

>  <ref_mols>  (614) 
Z0788a,Z0969a

>  <ref_pdb>  (614) 
Z0788a

>  <HIPPO Compound ID>  (614) 
139428

>  <name>  (614) 
P69972

>  <inspiration_score>  (614) 
None

$$$$
P69973
     RDKit          3D

 30 33  0  0  0  0  0  0  0  0999 V2000
   -2.9972    5.5453  -16.3383 C   0  0  0  0  0  0  0  0  0  0  0  0
   -4.0060    6.4988  -16.8478 C   0  0  0  0  0  0  0  0  0  0  0  0
   -3.8218    7.3227  -17.8604 N   0  0  0  0  0  0  0  0  0  0  0  0
   -5.0466    7.8097  -18.1841 N   0  0  0  0  0  0  0  0  0  0  0  0
   -5.9786    7.2940  -17.4035 N   0  0  0  0  0  0  0  0  0  0  0  0
   -5.3468    6.5495  -16.4379 N   0  0  0  0  0  0  0  0  0  0  0  0
   -5.9683    5.8731  -15.3588 C   0  0  0  0  0  0  0  0  0  0  0  0
   -6.9919    5.0016  -15.5138 C   0  0  0  0  0  0  0  0  0  0  0  0
   -7.6758    4.6561  -16.7501 C   0  0  0  0  0  0  0  0  0  0  0  0
   -9.0720    4.5937  -16.7163 C   0  0  0  0  0  0  0  0  0  0  0  0
   -9.7902    4.4614  -17.8954 C   0  0  0  0  0  0  0  0  0  0  0  0
   -9.0909    4.3625  -19.0847 C   0  0  0  0  0  0  0  0  0  0  0  0
   -9.7579    4.3884  -20.2384 F   0  0  0  0  0  0  0  0  0  0  0  0
   -7.7079    4.2849  -19.1162 C   0  0  0  0  0  0  0  0  0  0  0  0
   -6.9928    4.4194  -17.9418 C   0  0  0  0  0  0  0  0  0  0  0  0
   -5.4410    6.0276  -13.9365 C   0  0  0  0  0  0  0  0  0  0  0  0
   -4.3019    5.8769  -13.7208 O   0  0  0  0  0  0  0  0  0  0  0  0
   -6.6145    6.3846  -12.9698 N   0  0  0  0  0  0  0  0  0  0  0  0
   -6.6338    6.5355  -11.5063 C   0  0  0  0  0  0  0  0  0  0  0  0
   -7.3263    5.4046  -10.7510 C   0  0  0  0  0  0  0  0  0  0  0  0
   -7.4880    4.1645  -11.3923 C   0  0  0  0  0  0  0  0  0  0  0  0
   -8.0228    3.0558  -10.7480 C   0  0  0  0  0  0  0  0  0  0  0  0
   -8.3782    3.1704   -9.4269 C   0  0  0  0  0  0  0  0  0  0  0  0
   -8.2488    4.3856   -8.7710 C   0  0  0  0  0  0  0  0  0  0  0  0
   -7.7324    5.5124   -9.3999 C   0  0  0  0  0  0  0  0  0  0  0  0
   -8.7540    4.1964   -7.4030 C   0  0  0  0  0  0  0  0  0  0  0  0
   -8.8934    5.0973   -6.5951 O   0  0  0  0  0  0  0  0  0  0  0  0
   -9.0781    2.8589   -7.2783 N   0  0  0  0  0  0  0  0  0  0  0  0
   -9.8076    2.3060   -6.1659 C   0  0  0  0  0  0  0  0  0  0  0  0
   -8.8975    2.1219   -8.5108 C   0  0  0  0  0  0  0  0  0  0  0  0
  1  2  1  0
  2  3  2  0
  3  4  1  0
  4  5  2  0
  5  6  1  0
  6  7  1  0
  7  8  2  0
  8  9  1  0
  9 10  2  0
 10 11  1  0
 11 12  2  0
 12 13  1  0
 12 14  1  0
 14 15  2  0
  7 16  1  0
 16 17  2  0
 16 18  1  0
 18 19  1  0
 19 20  1  0
 20 21  2  0
 21 22  1  0
 22 23  2  0
 23 24  1  0
 24 25  2  0
 24 26  1  0
 26 27  2  0
 26 28  1  0
 28 29  1  0
 28 30  1  0
  6  2  1  0
 15  9  1  0
 25 20  1  0
 30 23  1  0
M  END
>  <energy_score>  (615) 
-21.350546

>  <alias>  (615) 
None

>  <HIPPO Pose ID>  (615) 
69973

>  <smiles>  (615) 
Cc1nnnn1/C(=C\c1ccc(F)cc1)C(=O)NCc1ccc2c(c1)C(=O)N(C)C2

>  <inchikey>  (615) 
UYOCZSBBAVYORI-GRSHGNNSSA-N

>  <distance_score>  (615) 
1.933841

>  <ref_mols>  (615) 
Z0788a,Z0969a

>  <ref_pdb>  (615) 
Z0788a

>  <HIPPO Compound ID>  (615) 
139429

>  <name>  (615) 
P69973

>  <inspiration_score>  (615) 
None

$$$$
P69974
     RDKit          3D

 30 33  0  0  0  0  0  0  0  0999 V2000
   -2.8822    5.5222  -16.5972 C   0  0  0  0  0  0  0  0  0  0  0  0
   -3.9456    6.4667  -17.0012 C   0  0  0  0  0  0  0  0  0  0  0  0
   -3.8312    7.3707  -17.9534 N   0  0  0  0  0  0  0  0  0  0  0  0
   -5.0863    7.8251  -18.2011 N   0  0  0  0  0  0  0  0  0  0  0  0
   -5.9678    7.2171  -17.4280 N   0  0  0  0  0  0  0  0  0  0  0  0
   -5.2708    6.4287  -16.5465 N   0  0  0  0  0  0  0  0  0  0  0  0
   -5.8195    5.6758  -15.4828 C   0  0  0  0  0  0  0  0  0  0  0  0
   -6.8715    4.8352  -15.6145 C   0  0  0  0  0  0  0  0  0  0  0  0
   -7.6440    4.5832  -16.8170 C   0  0  0  0  0  0  0  0  0  0  0  0
   -9.0383    4.5816  -16.7155 C   0  0  0  0  0  0  0  0  0  0  0  0
   -9.8126    4.5084  -17.8644 C   0  0  0  0  0  0  0  0  0  0  0  0
   -9.1725    4.4077  -19.0869 C   0  0  0  0  0  0  0  0  0  0  0  0
   -9.8871    4.5036  -20.2085 F   0  0  0  0  0  0  0  0  0  0  0  0
   -7.7984    4.2649  -19.1831 C   0  0  0  0  0  0  0  0  0  0  0  0
   -7.0254    4.3539  -18.0441 C   0  0  0  0  0  0  0  0  0  0  0  0
   -5.2025    5.7106  -14.0945 C   0  0  0  0  0  0  0  0  0  0  0  0
   -4.0606    5.5167  -13.9454 O   0  0  0  0  0  0  0  0  0  0  0  0
   -6.3258    5.9735  -13.0485 N   0  0  0  0  0  0  0  0  0  0  0  0
   -6.2507    6.1464  -11.6004 C   0  0  0  0  0  0  0  0  0  0  0  0
   -7.1702    5.2244  -10.8011 C   0  0  0  0  0  0  0  0  0  0  0  0
   -7.9597    4.2614  -11.4655 C   0  0  0  0  0  0  0  0  0  0  0  0
   -8.6882    3.3032  -10.7729 C   0  0  0  0  0  0  0  0  0  0  0  0
   -8.6456    3.3484   -9.4048 C   0  0  0  0  0  0  0  0  0  0  0  0
   -7.9323    4.3112   -8.7017 C   0  0  0  0  0  0  0  0  0  0  0  0
   -7.1825    5.2535   -9.3858 C   0  0  0  0  0  0  0  0  0  0  0  0
   -8.0779    4.0575   -7.2412 C   0  0  0  0  0  0  0  0  0  0  0  0
   -9.0597    3.0006   -7.1992 N   0  0  0  0  0  0  0  0  0  0  0  0
   -9.2455    2.2065   -6.0241 C   0  0  0  0  0  0  0  0  0  0  0  0
   -9.2656    2.4434   -8.4444 C   0  0  0  0  0  0  0  0  0  0  0  0
   -9.8237    1.3965   -8.6881 O   0  0  0  0  0  0  0  0  0  0  0  0
  1  2  1  0
  2  3  2  0
  3  4  1  0
  4  5  2  0
  5  6  1  0
  6  7  1  0
  7  8  2  0
  8  9  1  0
  9 10  2  0
 10 11  1  0
 11 12  2  0
 12 13  1  0
 12 14  1  0
 14 15  2  0
  7 16  1  0
 16 17  2  0
 16 18  1  0
 18 19  1  0
 19 20  1  0
 20 21  2  0
 21 22  1  0
 22 23  2  0
 23 24  1  0
 24 25  2  0
 24 26  1  0
 26 27  1  0
 27 28  1  0
 27 29  1  0
 29 30  2  0
  6  2  1  0
 15  9  1  0
 25 20  1  0
 29 23  1  0
M  END
>  <energy_score>  (616) 
-22.962246

>  <alias>  (616) 
None

>  <HIPPO Pose ID>  (616) 
69974

>  <smiles>  (616) 
Cc1nnnn1/C(=C\c1ccc(F)cc1)C(=O)NCc1ccc2c(c1)CN(C)C2=O

>  <inchikey>  (616) 
DUGYJDWEVPKRKZ-GRSHGNNSSA-N

>  <distance_score>  (616) 
1.896066

>  <ref_mols>  (616) 
Z0788a,Z0969a

>  <ref_pdb>  (616) 
Z0788a

>  <HIPPO Compound ID>  (616) 
139430

>  <name>  (616) 
P69974

>  <inspiration_score>  (616) 
None

$$$$
P69976
     RDKit          3D

 30 33  0  0  0  0  0  0  0  0999 V2000
   -2.9214    5.0425  -16.8947 C   0  0  0  0  0  0  0  0  0  0  0  0
   -3.8930    6.1337  -17.0761 C   0  0  0  0  0  0  0  0  0  0  0  0
   -3.8283    7.1052  -17.9644 N   0  0  0  0  0  0  0  0  0  0  0  0
   -4.9674    7.8456  -17.8085 N   0  0  0  0  0  0  0  0  0  0  0  0
   -5.7249    7.3472  -16.8436 N   0  0  0  0  0  0  0  0  0  0  0  0
   -5.0600    6.2762  -16.3603 N   0  0  0  0  0  0  0  0  0  0  0  0
   -5.6594    5.3572  -15.3748 C   0  0  2  0  0  0  0  0  0  0  0  0
   -7.1829    5.2435  -15.5299 C   0  0  0  0  0  0  0  0  0  0  0  0
   -7.7497    4.7166  -16.8117 C   0  0  0  0  0  0  0  0  0  0  0  0
   -7.0085    4.5116  -17.9751 C   0  0  0  0  0  0  0  0  0  0  0  0
   -7.6519    4.2592  -19.1719 C   0  0  0  0  0  0  0  0  0  0  0  0
   -9.0357    4.1883  -19.2092 C   0  0  0  0  0  0  0  0  0  0  0  0
   -9.7721    4.2728  -18.0453 C   0  0  0  0  0  0  0  0  0  0  0  0
  -11.1023    4.1413  -18.0777 F   0  0  0  0  0  0  0  0  0  0  0  0
   -9.1354    4.5233  -16.8470 C   0  0  0  0  0  0  0  0  0  0  0  0
   -5.2405    5.7597  -13.9227 C   0  0  0  0  0  0  0  0  0  0  0  0
   -4.5897    6.7173  -13.7403 O   0  0  0  0  0  0  0  0  0  0  0  0
   -5.7337    4.6609  -12.9177 N   0  0  0  0  0  0  0  0  0  0  0  0
   -5.4426    4.4755  -11.5119 C   0  0  0  0  0  0  0  0  0  0  0  0
   -6.6226    4.4373  -10.5546 C   0  0  0  0  0  0  0  0  0  0  0  0
   -7.1957    5.6459  -10.1003 C   0  0  0  0  0  0  0  0  0  0  0  0
   -8.1060    5.6420   -9.0469 C   0  0  0  0  0  0  0  0  0  0  0  0
   -8.4344    4.4199   -8.4893 C   0  0  0  0  0  0  0  0  0  0  0  0
   -7.9623    3.2087   -8.9670 C   0  0  0  0  0  0  0  0  0  0  0  0
   -7.0480    3.2041   -9.9998 C   0  0  0  0  0  0  0  0  0  0  0  0
   -8.5309    2.0756   -8.1735 C   0  0  0  0  0  0  0  0  0  0  0  0
   -9.4096    2.7662   -7.2549 N   0  0  0  0  0  0  0  0  0  0  0  0
  -10.0684    2.1071   -6.1597 C   0  0  0  0  0  0  0  0  0  0  0  0
   -9.2562    4.1356   -7.3163 C   0  0  0  0  0  0  0  0  0  0  0  0
   -9.6969    4.9828   -6.5586 O   0  0  0  0  0  0  0  0  0  0  0  0
  1  2  1  0
  2  3  2  0
  3  4  1  0
  4  5  2  0
  5  6  1  0
  6  7  1  0
  7  8  1  1
  8  9  1  0
  9 10  2  0
 10 11  1  0
 11 12  2  0
 12 13  1  0
 13 14  1  0
 13 15  2  0
  7 16  1  0
 16 17  2  0
 16 18  1  0
 18 19  1  0
 19 20  1  0
 20 21  2  0
 21 22  1  0
 22 23  2  0
 23 24  1  0
 24 25  2  0
 24 26  1  0
 26 27  1  0
 27 28  1  0
 27 29  1  0
 29 30  2  0
  6  2  1  0
 15  9  1  0
 25 20  1  0
 29 23  1  0
M  END
>  <energy_score>  (617) 
-0.093878

>  <alias>  (617) 
None

>  <HIPPO Pose ID>  (617) 
69976

>  <smiles>  (617) 
Cc1nnnn1[C@H](Cc1cccc(F)c1)C(=O)NCc1ccc2c(c1)CN(C)C2=O

>  <inchikey>  (617) 
NMVIAHLTIYRMRZ-LJQANCHMSA-N

>  <distance_score>  (617) 
1.963655

>  <ref_mols>  (617) 
Z0788a,Z0969a

>  <ref_pdb>  (617) 
Z0788a

>  <HIPPO Compound ID>  (617) 
139434

>  <name>  (617) 
P69976

>  <inspiration_score>  (617) 
None

$$$$
P69977
     RDKit          3D

 30 33  0  0  0  0  0  0  0  0999 V2000
   -5.6615    4.8158  -20.5160 C   0  0  0  0  0  0  0  0  0  0  0  0
   -6.8171    4.0007  -20.3141 O   0  0  0  0  0  0  0  0  0  0  0  0
   -7.4466    4.2488  -19.1194 C   0  0  0  0  0  0  0  0  0  0  0  0
   -8.8375    4.2724  -19.0984 C   0  0  0  0  0  0  0  0  0  0  0  0
   -9.5347    4.4475  -17.9037 C   0  0  0  0  0  0  0  0  0  0  0  0
   -8.8303    4.6067  -16.7137 C   0  0  0  0  0  0  0  0  0  0  0  0
   -7.4335    4.5885  -16.7212 C   0  0  0  0  0  0  0  0  0  0  0  0
   -6.6521    4.6733  -15.4504 C   0  0  0  0  0  0  0  0  0  0  0  0
   -5.7724    5.9142  -15.1553 C   0  0  2  0  0  0  0  0  0  0  0  0
   -6.4077    6.8973  -14.1053 C   0  0  0  0  0  0  0  0  0  0  0  0
   -6.6700    8.0060  -14.3772 O   0  0  0  0  0  0  0  0  0  0  0  0
   -6.5427    6.1248  -12.7417 N   0  0  0  0  0  0  0  0  0  0  0  0
   -7.1230    6.5482  -11.4603 C   0  0  0  0  0  0  0  0  0  0  0  0
   -7.6851    5.3948  -10.6429 C   0  0  0  0  0  0  0  0  0  0  0  0
   -8.3128    4.3417  -11.3289 C   0  0  0  0  0  0  0  0  0  0  0  0
   -8.7261    3.1904  -10.6716 C   0  0  0  0  0  0  0  0  0  0  0  0
   -8.5693    3.1179   -9.3066 C   0  0  0  0  0  0  0  0  0  0  0  0
   -8.0672    4.1859   -8.5835 C   0  0  0  0  0  0  0  0  0  0  0  0
   -7.6138    5.3294   -9.2325 C   0  0  0  0  0  0  0  0  0  0  0  0
   -8.0776    3.8265   -7.1314 C   0  0  0  0  0  0  0  0  0  0  0  0
   -8.6135    2.4523   -7.0329 N   0  0  0  0  0  0  0  0  0  0  0  0
   -9.8322    2.3841   -6.2412 C   0  0  0  0  0  0  0  0  0  0  0  0
   -8.8177    1.9557   -8.4085 C   0  0  0  0  0  0  0  0  0  0  0  0
   -5.2003    6.5489  -16.3538 N   0  0  0  0  0  0  0  0  0  0  0  0
   -5.8678    7.4396  -17.1098 N   0  0  0  0  0  0  0  0  0  0  0  0
   -5.0582    7.7690  -18.1031 N   0  0  0  0  0  0  0  0  0  0  0  0
   -3.8997    7.0480  -18.0436 N   0  0  0  0  0  0  0  0  0  0  0  0
   -4.0050    6.2674  -16.9870 C   0  0  0  0  0  0  0  0  0  0  0  0
   -3.0449    5.2252  -16.5780 C   0  0  0  0  0  0  0  0  0  0  0  0
   -6.7549    4.3813  -17.9278 C   0  0  0  0  0  0  0  0  0  0  0  0
  1  2  1  0
  2  3  1  0
  3  4  2  0
  4  5  1  0
  5  6  2  0
  6  7  1  0
  7  8  1  0
  9  8  1  6
  9 10  1  0
 10 11  2  0
 10 12  1  0
 12 13  1  0
 13 14  1  0
 14 15  2  0
 15 16  1  0
 16 17  2  0
 17 18  1  0
 18 19  2  0
 18 20  1  0
 20 21  1  0
 21 22  1  0
 21 23  1  0
  9 24  1  0
 24 25  1  0
 25 26  2  0
 26 27  1  0
 27 28  2  0
 28 29  1  0
  7 30  2  0
 30  3  1  0
 19 14  1  0
 28 24  1  0
 23 17  1  0
M  END
>  <energy_score>  (618) 
-3.218043

>  <alias>  (618) 
None

>  <HIPPO Pose ID>  (618) 
69977

>  <smiles>  (618) 
COc1cccc(C[C@H](C(=O)NCc2ccc3c(c2)CN(C)C3)n2nnnc2C)c1

>  <inchikey>  (618) 
QBIUGRPDMVXCFR-OAQYLSRUSA-N

>  <distance_score>  (618) 
1.95687

>  <ref_mols>  (618) 
Z0788a,Z0969a

>  <ref_pdb>  (618) 
Z0788a

>  <HIPPO Compound ID>  (618) 
139435

>  <name>  (618) 
P69977

>  <inspiration_score>  (618) 
None

$$$$
P69979
     RDKit          3D

 30 33  0  0  0  0  0  0  0  0999 V2000
   -5.6768    4.8019  -20.5302 C   0  0  0  0  0  0  0  0  0  0  0  0
   -6.8320    3.9820  -20.3423 O   0  0  0  0  0  0  0  0  0  0  0  0
   -7.4744    4.2294  -19.1541 C   0  0  0  0  0  0  0  0  0  0  0  0
   -8.8650    4.2663  -19.1469 C   0  0  0  0  0  0  0  0  0  0  0  0
   -9.5749    4.4454  -17.9603 C   0  0  0  0  0  0  0  0  0  0  0  0
   -8.8830    4.5935  -16.7629 C   0  0  0  0  0  0  0  0  0  0  0  0
   -7.4873    4.5605  -16.7566 C   0  0  0  0  0  0  0  0  0  0  0  0
   -6.7190    4.6414  -15.4792 C   0  0  0  0  0  0  0  0  0  0  0  0
   -5.8667    5.8949  -15.1679 C   0  0  2  0  0  0  0  0  0  0  0  0
   -6.5354    6.9366  -14.1986 C   0  0  0  0  0  0  0  0  0  0  0  0
   -6.6615    8.0518  -14.5312 O   0  0  0  0  0  0  0  0  0  0  0  0
   -6.9353    6.2257  -12.8580 N   0  0  0  0  0  0  0  0  0  0  0  0
   -7.4837    6.7738  -11.6261 C   0  0  0  0  0  0  0  0  0  0  0  0
   -7.7666    5.8546  -10.4517 C   0  0  0  0  0  0  0  0  0  0  0  0
   -7.8985    6.4430   -9.1572 C   0  0  0  0  0  0  0  0  0  0  0  0
   -8.2187    5.6939   -8.0166 C   0  0  0  0  0  0  0  0  0  0  0  0
   -8.4163    4.3498   -8.1934 C   0  0  0  0  0  0  0  0  0  0  0  0
   -8.2994    3.7432   -9.4393 C   0  0  0  0  0  0  0  0  0  0  0  0
   -7.9947    4.4781  -10.5811 C   0  0  0  0  0  0  0  0  0  0  0  0
   -8.5466    2.2828   -9.2863 C   0  0  0  0  0  0  0  0  0  0  0  0
   -8.8647    2.1433   -7.8877 N   0  0  0  0  0  0  0  0  0  0  0  0
   -8.7913    3.3327   -7.2069 C   0  0  0  0  0  0  0  0  0  0  0  0
   -8.9971    3.5558   -6.0313 O   0  0  0  0  0  0  0  0  0  0  0  0
   -5.2493    6.4959  -16.3672 N   0  0  0  0  0  0  0  0  0  0  0  0
   -5.8976    7.3596  -17.1746 N   0  0  0  0  0  0  0  0  0  0  0  0
   -5.0490    7.6795  -18.1377 N   0  0  0  0  0  0  0  0  0  0  0  0
   -3.8884    6.9698  -18.0160 N   0  0  0  0  0  0  0  0  0  0  0  0
   -4.0300    6.2100  -16.9483 C   0  0  0  0  0  0  0  0  0  0  0  0
   -3.0813    5.1825  -16.4836 C   0  0  0  0  0  0  0  0  0  0  0  0
   -6.7958    4.3512  -17.9553 C   0  0  0  0  0  0  0  0  0  0  0  0
  1  2  1  0
  2  3  1  0
  3  4  2  0
  4  5  1  0
  5  6  2  0
  6  7  1  0
  7  8  1  0
  9  8  1  6
  9 10  1  0
 10 11  2  0
 10 12  1  0
 12 13  1  0
 13 14  1  0
 14 15  2  0
 15 16  1  0
 16 17  2  0
 17 18  1  0
 18 19  2  0
 18 20  1  0
 20 21  1  0
 21 22  1  0
 22 23  2  0
  9 24  1  0
 24 25  1  0
 25 26  2  0
 26 27  1  0
 27 28  2  0
 28 29  1  0
  7 30  2  0
 30  3  1  0
 19 14  1  0
 28 24  1  0
 22 17  1  0
M  END
>  <energy_score>  (619) 
-1.360415

>  <alias>  (619) 
None

>  <HIPPO Pose ID>  (619) 
69979

>  <smiles>  (619) 
COc1cccc(C[C@H](C(=O)NCc2ccc3c(c2)CNC3=O)n2nnnc2C)c1

>  <inchikey>  (619) 
WWDIWHXWGCKUST-LJQANCHMSA-N

>  <distance_score>  (619) 
1.520647

>  <ref_mols>  (619) 
Z0788a,Z0969a

>  <ref_pdb>  (619) 
Z0788a

>  <HIPPO Compound ID>  (619) 
139437

>  <name>  (619) 
P69979

>  <inspiration_score>  (619) 
None

$$$$
P69981
     RDKit          3D

 31 34  0  0  0  0  0  0  0  0999 V2000
   -7.4555    4.7462  -18.7712 C   0  0  0  0  0  0  0  0  0  0  0  0
   -6.1702    4.9129  -19.5703 C   0  0  0  0  0  0  0  0  0  0  0  0
   -5.1664    5.6382  -18.8399 N   0  0  0  0  0  0  0  0  0  0  0  0
   -4.3443    4.9358  -17.8845 C   0  0  0  0  0  0  0  0  0  0  0  0
   -3.8640    6.0317  -17.0184 C   0  0  0  0  0  0  0  0  0  0  0  0
   -3.2184    5.9178  -15.8101 C   0  0  0  0  0  0  0  0  0  0  0  0
   -3.1294    7.0711  -15.0134 C   0  0  0  0  0  0  0  0  0  0  0  0
   -2.7754    6.9317  -13.5520 C   0  0  0  0  0  0  0  0  0  0  0  0
   -3.9640    6.8683  -12.7293 N   0  0  0  0  0  0  0  0  0  0  0  0
   -5.2414    6.0080  -12.8740 C   0  0  0  0  0  0  0  0  0  0  0  0
   -5.5666    5.2730  -13.7214 O   0  0  0  0  0  0  0  0  0  0  0  0
   -6.1706    6.1867  -11.6516 C   0  0  0  0  0  0  0  0  0  0  0  0
   -6.8861    5.0600  -11.3995 C   0  0  0  0  0  0  0  0  0  0  0  0
   -7.6553    4.5779  -10.2308 C   0  0  0  0  0  0  0  0  0  0  0  0
   -8.4836    3.4625  -10.4415 C   0  0  0  0  0  0  0  0  0  0  0  0
   -9.0385    2.7596   -9.3736 C   0  0  0  0  0  0  0  0  0  0  0  0
   -8.7953    3.1753   -8.0803 C   0  0  0  0  0  0  0  0  0  0  0  0
   -9.3186    2.4849   -7.0599 F   0  0  0  0  0  0  0  0  0  0  0  0
   -8.0228    4.3070   -7.8392 C   0  0  0  0  0  0  0  0  0  0  0  0
   -7.4314    4.9925   -8.9103 C   0  0  0  0  0  0  0  0  0  0  0  0
   -6.1894    7.3790  -10.9132 N   0  0  0  0  0  0  0  0  0  0  0  0
   -5.1055    8.1894  -10.6889 N   0  0  0  0  0  0  0  0  0  0  0  0
   -5.4923    9.1570   -9.8800 N   0  0  0  0  0  0  0  0  0  0  0  0
   -6.8246    9.0846   -9.6406 N   0  0  0  0  0  0  0  0  0  0  0  0
   -7.2701    8.0412  -10.3099 C   0  0  0  0  0  0  0  0  0  0  0  0
   -8.7002    7.7121  -10.4952 C   0  0  0  0  0  0  0  0  0  0  0  0
   -3.5524    8.3272  -15.5198 C   0  0  0  0  0  0  0  0  0  0  0  0
   -4.1568    8.4315  -16.7756 C   0  0  0  0  0  0  0  0  0  0  0  0
   -4.3417    7.2613  -17.4759 C   0  0  0  0  0  0  0  0  0  0  0  0
   -5.2119    7.0091  -18.6280 C   0  0  0  0  0  0  0  0  0  0  0  0
   -5.8735    7.8690  -19.1811 O   0  0  0  0  0  0  0  0  0  0  0  0
  1  2  1  0
  2  3  1  0
  3  4  1  0
  4  5  1  0
  5  6  2  0
  6  7  1  0
  7  8  1  0
  8  9  1  0
  9 10  1  0
 10 11  2  0
 10 12  1  0
 12 13  2  0
 13 14  1  0
 14 15  2  0
 15 16  1  0
 16 17  2  0
 17 18  1  0
 17 19  1  0
 19 20  2  0
 12 21  1  0
 21 22  1  0
 22 23  2  0
 23 24  1  0
 24 25  2  0
 25 26  1  0
  7 27  2  0
 27 28  1  0
 28 29  2  0
 29 30  1  0
 30 31  2  0
 30  3  1  0
 29  5  1  0
 20 14  1  0
 25 21  1  0
M  END
>  <energy_score>  (620) 
-18.936389

>  <alias>  (620) 
None

>  <HIPPO Pose ID>  (620) 
69981

>  <smiles>  (620) 
CCN1Cc2cc(CNC(=O)/C(=C/c3ccc(F)cc3)n3nnnc3C)ccc2C1=O

>  <inchikey>  (620) 
KPIILKCGTTVAJK-JAIQZWGSSA-N

>  <distance_score>  (620) 
1.722688

>  <ref_mols>  (620) 
Z0969a,Z0788a

>  <ref_pdb>  (620) 
Z0788a

>  <HIPPO Compound ID>  (620) 
139443

>  <name>  (620) 
P69981

>  <inspiration_score>  (620) 
None

$$$$
P69982
     RDKit          3D

 31 34  0  0  0  0  0  0  0  0999 V2000
   -2.9300    5.1983  -16.7053 C   0  0  0  0  0  0  0  0  0  0  0  0
   -4.0197    6.1805  -16.8811 C   0  0  0  0  0  0  0  0  0  0  0  0
   -3.9589    7.2090  -17.7051 N   0  0  0  0  0  0  0  0  0  0  0  0
   -5.2205    7.6898  -17.8113 N   0  0  0  0  0  0  0  0  0  0  0  0
   -6.0559    6.9833  -17.0719 N   0  0  0  0  0  0  0  0  0  0  0  0
   -5.3191    6.0688  -16.3535 N   0  0  0  0  0  0  0  0  0  0  0  0
   -5.8463    5.1586  -15.3896 C   0  0  0  0  0  0  0  0  0  0  0  0
   -6.9631    4.4292  -15.6171 C   0  0  0  0  0  0  0  0  0  0  0  0
   -7.7641    4.4258  -16.8262 C   0  0  0  0  0  0  0  0  0  0  0  0
   -7.1649    4.2627  -18.0737 C   0  0  0  0  0  0  0  0  0  0  0  0
   -7.9476    4.2715  -19.2068 C   0  0  0  0  0  0  0  0  0  0  0  0
   -9.3101    4.4815  -19.0908 C   0  0  0  0  0  0  0  0  0  0  0  0
  -10.0322    4.6522  -20.1996 F   0  0  0  0  0  0  0  0  0  0  0  0
   -9.9329    4.5564  -17.8576 C   0  0  0  0  0  0  0  0  0  0  0  0
   -9.1507    4.5119  -16.7126 C   0  0  0  0  0  0  0  0  0  0  0  0
   -5.0966    4.7994  -14.1105 C   0  0  0  0  0  0  0  0  0  0  0  0
   -3.9347    4.6889  -14.1617 O   0  0  0  0  0  0  0  0  0  0  0  0
   -6.0813    4.5670  -12.9241 N   0  0  0  0  0  0  0  0  0  0  0  0
   -5.8410    4.0594  -11.5892 C   0  0  0  0  0  0  0  0  0  0  0  0
   -6.9345    4.2294  -10.5453 C   0  0  0  0  0  0  0  0  0  0  0  0
   -7.2476    5.5136  -10.0442 C   0  0  0  0  0  0  0  0  0  0  0  0
   -8.0413    5.6563   -8.9049 C   0  0  0  0  0  0  0  0  0  0  0  0
   -8.5084    4.5030   -8.2992 C   0  0  0  0  0  0  0  0  0  0  0  0
   -8.2986    3.2502   -8.8227 C   0  0  0  0  0  0  0  0  0  0  0  0
   -7.5100    3.0826   -9.9395 C   0  0  0  0  0  0  0  0  0  0  0  0
   -8.9944    2.2857   -7.9637 C   0  0  0  0  0  0  0  0  0  0  0  0
   -9.1742    1.1137   -8.2138 O   0  0  0  0  0  0  0  0  0  0  0  0
   -9.4547    2.9905   -6.8953 N   0  0  0  0  0  0  0  0  0  0  0  0
  -10.2471    2.4230   -5.8312 C   0  0  0  0  0  0  0  0  0  0  0  0
   -9.2454    4.3276   -7.0539 C   0  0  0  0  0  0  0  0  0  0  0  0
   -9.6129    5.2544   -6.3512 O   0  0  0  0  0  0  0  0  0  0  0  0
  1  2  1  0
  2  3  2  0
  3  4  1  0
  4  5  2  0
  5  6  1  0
  6  7  1  0
  7  8  2  0
  8  9  1  0
  9 10  2  0
 10 11  1  0
 11 12  2  0
 12 13  1  0
 12 14  1  0
 14 15  2  0
  7 16  1  0
 16 17  2  0
 16 18  1  0
 18 19  1  0
 19 20  1  0
 20 21  2  0
 21 22  1  0
 22 23  2  0
 23 24  1  0
 24 25  2  0
 24 26  1  0
 26 27  2  0
 26 28  1  0
 28 29  1  0
 28 30  1  0
 30 31  2  0
  6  2  1  0
 15  9  1  0
 25 20  1  0
 30 23  1  0
M  END
>  <energy_score>  (621) 
-27.076725

>  <alias>  (621) 
None

>  <HIPPO Pose ID>  (621) 
69982

>  <smiles>  (621) 
Cc1nnnn1/C(=C\c1ccc(F)cc1)C(=O)NCc1ccc2c(c1)C(=O)N(C)C2=O

>  <inchikey>  (621) 
ATOOOUJIFLEZID-ZDLGFXPLSA-N

>  <distance_score>  (621) 
1.953047

>  <ref_mols>  (621) 
Z0788a,Z0969a

>  <ref_pdb>  (621) 
Z0788a

>  <HIPPO Compound ID>  (621) 
139444

>  <name>  (621) 
P69982

>  <inspiration_score>  (621) 
None

$$$$
P69984
     RDKit          3D

 31 34  0  0  0  0  0  0  0  0999 V2000
   -7.2766    4.7215  -18.9303 C   0  0  0  0  0  0  0  0  0  0  0  0
   -6.0276    4.9997  -19.7602 C   0  0  0  0  0  0  0  0  0  0  0  0
   -5.0212    5.6971  -19.0033 N   0  0  0  0  0  0  0  0  0  0  0  0
   -4.1757    4.9484  -18.1060 C   0  0  0  0  0  0  0  0  0  0  0  0
   -3.8326    5.9600  -17.0859 C   0  0  0  0  0  0  0  0  0  0  0  0
   -3.3077    5.7331  -15.8365 C   0  0  0  0  0  0  0  0  0  0  0  0
   -3.3734    6.7854  -14.9072 C   0  0  0  0  0  0  0  0  0  0  0  0
   -3.2453    6.4590  -13.4391 C   0  0  0  0  0  0  0  0  0  0  0  0
   -4.5542    6.1116  -12.9346 N   0  0  0  0  0  0  0  0  0  0  0  0
   -5.4118    4.8421  -13.1552 C   0  0  0  0  0  0  0  0  0  0  0  0
   -5.2279    3.9159  -13.8383 O   0  0  0  0  0  0  0  0  0  0  0  0
   -6.6560    5.0083  -12.3452 C   0  0  0  0  0  0  0  0  0  0  0  0
   -6.4903    4.5822  -11.0813 C   0  0  0  0  0  0  0  0  0  0  0  0
   -7.4582    4.4560   -9.9925 C   0  0  0  0  0  0  0  0  0  0  0  0
   -7.7365    5.5159   -9.1243 C   0  0  0  0  0  0  0  0  0  0  0  0
   -8.4441    5.2766   -7.9438 C   0  0  0  0  0  0  0  0  0  0  0  0
   -8.8836    3.9851   -7.6437 C   0  0  0  0  0  0  0  0  0  0  0  0
   -8.6457    2.9473   -8.5374 C   0  0  0  0  0  0  0  0  0  0  0  0
   -9.0523    1.7070   -8.2392 F   0  0  0  0  0  0  0  0  0  0  0  0
   -7.9418    3.1745   -9.7076 C   0  0  0  0  0  0  0  0  0  0  0  0
   -7.7901    5.6106  -12.8831 N   0  0  0  0  0  0  0  0  0  0  0  0
   -8.6202    6.4593  -12.2081 N   0  0  0  0  0  0  0  0  0  0  0  0
   -9.4394    6.9924  -13.0945 N   0  0  0  0  0  0  0  0  0  0  0  0
   -9.2652    6.4304  -14.3149 N   0  0  0  0  0  0  0  0  0  0  0  0
   -8.2582    5.5909  -14.2004 C   0  0  0  0  0  0  0  0  0  0  0  0
   -7.7720    4.6936  -15.2702 C   0  0  0  0  0  0  0  0  0  0  0  0
   -3.8039    8.0749  -15.3129 C   0  0  0  0  0  0  0  0  0  0  0  0
   -4.2831    8.2986  -16.6073 C   0  0  0  0  0  0  0  0  0  0  0  0
   -4.3358    7.2104  -17.4484 C   0  0  0  0  0  0  0  0  0  0  0  0
   -5.1280    7.0414  -18.6701 C   0  0  0  0  0  0  0  0  0  0  0  0
   -5.8016    7.9241  -19.1700 O   0  0  0  0  0  0  0  0  0  0  0  0
  1  2  1  0
  2  3  1  0
  3  4  1  0
  4  5  1  0
  5  6  2  0
  6  7  1  0
  7  8  1  0
  8  9  1  0
  9 10  1  0
 10 11  2  0
 10 12  1  0
 12 13  2  0
 13 14  1  0
 14 15  2  0
 15 16  1  0
 16 17  2  0
 17 18  1  0
 18 19  1  0
 18 20  2  0
 12 21  1  0
 21 22  1  0
 22 23  2  0
 23 24  1  0
 24 25  2  0
 25 26  1  0
  7 27  2  0
 27 28  1  0
 28 29  2  0
 29 30  1  0
 30 31  2  0
 30  3  1  0
 29  5  1  0
 20 14  1  0
 25 21  1  0
M  END
>  <energy_score>  (622) 
-27.453527

>  <alias>  (622) 
None

>  <HIPPO Pose ID>  (622) 
69984

>  <smiles>  (622) 
CCN1Cc2cc(CNC(=O)/C(=C/c3cccc(F)c3)n3nnnc3C)ccc2C1=O

>  <inchikey>  (622) 
QLIBBAWNBLYREH-JAIQZWGSSA-N

>  <distance_score>  (622) 
1.377134

>  <ref_mols>  (622) 
Z0969a,Z0788a

>  <ref_pdb>  (622) 
Z0788a

>  <HIPPO Compound ID>  (622) 
139445

>  <name>  (622) 
P69984

>  <inspiration_score>  (622) 
None

$$$$
P69986
     RDKit          3D

 31 34  0  0  0  0  0  0  0  0999 V2000
   -2.9738    5.4591  -16.3793 C   0  0  0  0  0  0  0  0  0  0  0  0
   -3.9859    6.4412  -16.8240 C   0  0  0  0  0  0  0  0  0  0  0  0
   -3.8127    7.3111  -17.7997 N   0  0  0  0  0  0  0  0  0  0  0  0
   -5.0394    7.8164  -18.0837 N   0  0  0  0  0  0  0  0  0  0  0  0
   -5.9623    7.2698  -17.3135 N   0  0  0  0  0  0  0  0  0  0  0  0
   -5.3215    6.4753  -16.3939 N   0  0  0  0  0  0  0  0  0  0  0  0
   -5.9380    5.7476  -15.3433 C   0  0  0  0  0  0  0  0  0  0  0  0
   -6.9804    4.9062  -15.5342 C   0  0  0  0  0  0  0  0  0  0  0  0
   -7.6556    4.6124  -16.7907 C   0  0  0  0  0  0  0  0  0  0  0  0
   -6.9507    4.4266  -17.9816 C   0  0  0  0  0  0  0  0  0  0  0  0
   -7.6360    4.2612  -19.1700 C   0  0  0  0  0  0  0  0  0  0  0  0
   -9.0234    4.2384  -19.1654 C   0  0  0  0  0  0  0  0  0  0  0  0
   -9.7207    4.3055  -17.9737 C   0  0  0  0  0  0  0  0  0  0  0  0
  -11.0541    4.2025  -17.9771 F   0  0  0  0  0  0  0  0  0  0  0  0
   -9.0449    4.4855  -16.7801 C   0  0  0  0  0  0  0  0  0  0  0  0
   -5.3777    5.8026  -13.9263 C   0  0  0  0  0  0  0  0  0  0  0  0
   -4.2333    5.6406  -13.7525 O   0  0  0  0  0  0  0  0  0  0  0  0
   -6.5172    6.1311  -12.9119 N   0  0  0  0  0  0  0  0  0  0  0  0
   -6.4889    6.2330  -11.4489 C   0  0  0  0  0  0  0  0  0  0  0  0
   -7.3258    5.2193  -10.6708 C   0  0  0  0  0  0  0  0  0  0  0  0
   -7.9086    4.1171  -11.3271 C   0  0  0  0  0  0  0  0  0  0  0  0
   -8.5763    3.1087  -10.6304 C   0  0  0  0  0  0  0  0  0  0  0  0
   -8.6496    3.2095   -9.2630 C   0  0  0  0  0  0  0  0  0  0  0  0
   -8.1408    4.2998   -8.5953 C   0  0  0  0  0  0  0  0  0  0  0  0
   -7.4737    5.3155   -9.2644 C   0  0  0  0  0  0  0  0  0  0  0  0
   -8.4865    4.1372   -7.1837 C   0  0  0  0  0  0  0  0  0  0  0  0
   -8.2964    4.9983   -6.3430 O   0  0  0  0  0  0  0  0  0  0  0  0
   -9.1095    2.9308   -7.0686 N   0  0  0  0  0  0  0  0  0  0  0  0
   -9.7624    2.4658   -5.8717 C   0  0  0  0  0  0  0  0  0  0  0  0
   -9.2501    2.3169   -8.2771 C   0  0  0  0  0  0  0  0  0  0  0  0
   -9.7984    1.2615   -8.5138 O   0  0  0  0  0  0  0  0  0  0  0  0
  1  2  1  0
  2  3  2  0
  3  4  1  0
  4  5  2  0
  5  6  1  0
  6  7  1  0
  7  8  2  0
  8  9  1  0
  9 10  2  0
 10 11  1  0
 11 12  2  0
 12 13  1  0
 13 14  1  0
 13 15  2  0
  7 16  1  0
 16 17  2  0
 16 18  1  0
 18 19  1  0
 19 20  1  0
 20 21  2  0
 21 22  1  0
 22 23  2  0
 23 24  1  0
 24 25  2  0
 24 26  1  0
 26 27  2  0
 26 28  1  0
 28 29  1  0
 28 30  1  0
 30 31  2  0
  6  2  1  0
 15  9  1  0
 25 20  1  0
 30 23  1  0
M  END
>  <energy_score>  (623) 
-22.903359

>  <alias>  (623) 
None

>  <HIPPO Pose ID>  (623) 
69986

>  <smiles>  (623) 
Cc1nnnn1/C(=C\c1cccc(F)c1)C(=O)NCc1ccc2c(c1)C(=O)N(C)C2=O

>  <inchikey>  (623) 
POINTZJHQLHNOV-ZDLGFXPLSA-N

>  <distance_score>  (623) 
1.999669

>  <ref_mols>  (623) 
Z0788a,Z0969a

>  <ref_pdb>  (623) 
Z0788a

>  <HIPPO Compound ID>  (623) 
139446

>  <name>  (623) 
P69986

>  <inspiration_score>  (623) 
None

$$$$
P69987
     RDKit          3D

 31 34  0  0  0  0  0  0  0  0999 V2000
   -5.6071    4.7995  -20.4693 C   0  0  0  0  0  0  0  0  0  0  0  0
   -6.7485    3.9614  -20.3001 O   0  0  0  0  0  0  0  0  0  0  0  0
   -7.4565    4.2102  -19.1518 C   0  0  0  0  0  0  0  0  0  0  0  0
   -8.8431    4.1437  -19.2339 C   0  0  0  0  0  0  0  0  0  0  0  0
   -9.6439    4.3236  -18.1141 C   0  0  0  0  0  0  0  0  0  0  0  0
   -9.0421    4.6380  -16.9088 C   0  0  0  0  0  0  0  0  0  0  0  0
   -7.6522    4.7937  -16.8223 C   0  0  0  0  0  0  0  0  0  0  0  0
   -7.1267    5.3807  -15.5498 C   0  0  0  0  0  0  0  0  0  0  0  0
   -5.6419    5.7588  -15.3771 C   0  0  2  0  0  0  0  0  0  0  0  0
   -5.3854    6.5975  -14.0681 C   0  0  0  0  0  0  0  0  0  0  0  0
   -4.7871    7.6024  -14.1378 O   0  0  0  0  0  0  0  0  0  0  0  0
   -6.0282    5.8847  -12.8310 N   0  0  0  0  0  0  0  0  0  0  0  0
   -5.9789    6.2211  -11.4193 C   0  0  0  0  0  0  0  0  0  0  0  0
   -6.8008    5.3544  -10.4878 C   0  0  0  0  0  0  0  0  0  0  0  0
   -7.7835    5.9248   -9.6475 C   0  0  0  0  0  0  0  0  0  0  0  0
   -8.4756    5.1396   -8.7162 C   0  0  0  0  0  0  0  0  0  0  0  0
   -8.2141    3.7871   -8.6716 C   0  0  0  0  0  0  0  0  0  0  0  0
   -7.2317    3.2379   -9.4516 C   0  0  0  0  0  0  0  0  0  0  0  0
   -6.5100    3.9857  -10.3567 C   0  0  0  0  0  0  0  0  0  0  0  0
   -7.0910    1.8358   -9.0850 C   0  0  0  0  0  0  0  0  0  0  0  0
   -6.1914    1.1278   -9.5061 O   0  0  0  0  0  0  0  0  0  0  0  0
   -8.0816    1.5776   -8.1930 N   0  0  0  0  0  0  0  0  0  0  0  0
   -8.7595    2.7079   -7.8516 C   0  0  0  0  0  0  0  0  0  0  0  0
   -9.6261    2.8590   -7.0145 O   0  0  0  0  0  0  0  0  0  0  0  0
   -5.0885    6.4881  -16.5293 N   0  0  0  0  0  0  0  0  0  0  0  0
   -5.7662    7.4735  -17.1513 N   0  0  0  0  0  0  0  0  0  0  0  0
   -4.9966    7.8697  -18.1528 N   0  0  0  0  0  0  0  0  0  0  0  0
   -3.8425    7.1359  -18.2005 N   0  0  0  0  0  0  0  0  0  0  0  0
   -3.9087    6.2755  -17.2050 C   0  0  0  0  0  0  0  0  0  0  0  0
   -2.9243    5.2276  -16.8823 C   0  0  0  0  0  0  0  0  0  0  0  0
   -6.8643    4.4783  -17.9286 C   0  0  0  0  0  0  0  0  0  0  0  0
  1  2  1  0
  2  3  1  0
  3  4  2  0
  4  5  1  0
  5  6  2  0
  6  7  1  0
  7  8  1  0
  9  8  1  6
  9 10  1  0
 10 11  2  0
 10 12  1  0
 12 13  1  0
 13 14  1  0
 14 15  2  0
 15 16  1  0
 16 17  2  0
 17 18  1  0
 18 19  2  0
 18 20  1  0
 20 21  2  0
 20 22  1  0
 22 23  1  0
 23 24  2  0
  9 25  1  0
 25 26  1  0
 26 27  2  0
 27 28  1  0
 28 29  2  0
 29 30  1  0
  7 31  2  0
 31  3  1  0
 19 14  1  0
 29 25  1  0
 23 17  1  0
M  END
>  <energy_score>  (624) 
-14.489913

>  <alias>  (624) 
None

>  <HIPPO Pose ID>  (624) 
69987

>  <smiles>  (624) 
COc1cccc(C[C@H](C(=O)NCc2ccc3c(c2)C(=O)NC3=O)n2nnnc2C)c1

>  <inchikey>  (624) 
GPEOFDJSJCUJRW-GOSISDBHSA-N

>  <distance_score>  (624) 
1.974766

>  <ref_mols>  (624) 
Z0969a,Z0788a

>  <ref_pdb>  (624) 
Z0788a

>  <HIPPO Compound ID>  (624) 
139449

>  <name>  (624) 
P69987

>  <inspiration_score>  (624) 
None

$$$$
P69988
     RDKit          3D

 21 23  0  0  0  0  0  0  0  0999 V2000
   -4.4523    3.9617  -14.1355 C   0  0  0  0  0  0  0  0  0  0  0  0
   -4.9680    4.6034  -15.4098 C   0  0  0  0  0  0  0  0  0  0  0  0
   -4.0247    4.9064  -16.3956 C   0  0  0  0  0  0  0  0  0  0  0  0
   -4.4718    5.1583  -17.6717 C   0  0  0  0  0  0  0  0  0  0  0  0
   -5.7613    5.0608  -18.0263 N   0  0  0  0  0  0  0  0  0  0  0  0
   -6.6924    4.8024  -17.0813 C   0  0  0  0  0  0  0  0  0  0  0  0
   -8.0200    4.5348  -17.4441 C   0  0  0  0  0  0  0  0  0  0  0  0
   -8.4684    4.2259  -19.0695 Cl  0  0  0  0  0  0  0  0  0  0  0  0
   -9.0388    4.3773  -16.5173 C   0  0  0  0  0  0  0  0  0  0  0  0
   -8.7378    4.4896  -15.1816 C   0  0  0  0  0  0  0  0  0  0  0  0
   -7.4243    4.7022  -14.7736 C   0  0  0  0  0  0  0  0  0  0  0  0
   -7.3195    4.9882  -13.4182 N   0  0  0  0  0  0  0  0  0  0  0  0
   -6.3939    5.9737  -12.6683 C   0  0  0  0  0  0  0  0  0  0  0  0
   -5.5221    6.6427  -13.0633 O   0  0  0  0  0  0  0  0  0  0  0  0
   -6.8569    6.0384  -11.2896 C   0  0  0  0  0  0  0  0  0  0  0  0
   -7.1282    7.5850  -10.5921 S   0  0  0  0  0  0  0  0  0  0  0  0
   -7.7941    6.8960   -9.1765 C   0  0  0  0  0  0  0  0  0  0  0  0
   -7.7787    5.5195   -9.2186 C   0  0  0  0  0  0  0  0  0  0  0  0
   -7.1928    5.0351  -10.4089 C   0  0  0  0  0  0  0  0  0  0  0  0
   -6.8975    2.9880  -10.6822 I   0  0  0  0  0  0  0  0  0  0  0  0
   -6.3576    4.7390  -15.7084 C   0  0  0  0  0  0  0  0  0  0  0  0
  1  2  1  0
  2  3  2  0
  3  4  1  0
  4  5  2  0
  5  6  1  0
  6  7  2  0
  7  8  1  0
  7  9  1  0
  9 10  2  0
 10 11  1  0
 11 12  1  0
 12 13  1  0
 13 14  2  0
 13 15  1  0
 15 16  1  0
 16 17  1  0
 17 18  2  0
 18 19  1  0
 19 20  1  0
 11 21  2  0
 21  2  1  0
 21  6  1  0
 19 15  2  0
M  END
>  <energy_score>  (625) 
-16.796143

>  <alias>  (625) 
None

>  <HIPPO Pose ID>  (625) 
69988

>  <smiles>  (625) 
Cc1ccnc2c(Cl)ccc(NC(=O)c3sccc3I)c12

>  <inchikey>  (625) 
KUZPYXMRYAAWIV-UHFFFAOYSA-N

>  <distance_score>  (625) 
1.605817

>  <ref_mols>  (625) 
Z1688a,Z0719a

>  <ref_pdb>  (625) 
Z0719a

>  <HIPPO Compound ID>  (625) 
139764

>  <name>  (625) 
P69988

>  <inspiration_score>  (625) 
None

$$$$
P69989
     RDKit          3D

 21 23  0  0  0  0  0  0  0  0999 V2000
   -4.6935    4.0959  -14.0284 C   0  0  0  0  0  0  0  0  0  0  0  0
   -5.0927    4.5335  -15.4129 C   0  0  0  0  0  0  0  0  0  0  0  0
   -4.0812    4.6745  -16.3681 C   0  0  0  0  0  0  0  0  0  0  0  0
   -4.4407    4.8261  -17.6862 C   0  0  0  0  0  0  0  0  0  0  0  0
   -5.7124    4.7796  -18.1014 N   0  0  0  0  0  0  0  0  0  0  0  0
   -6.7094    4.6951  -17.1933 C   0  0  0  0  0  0  0  0  0  0  0  0
   -8.0367    4.5658  -17.6146 C   0  0  0  0  0  0  0  0  0  0  0  0
   -8.4248    4.1022  -19.2140 Cl  0  0  0  0  0  0  0  0  0  0  0  0
   -9.1120    4.7118  -16.7572 C   0  0  0  0  0  0  0  0  0  0  0  0
   -8.8587    4.9866  -15.4364 C   0  0  0  0  0  0  0  0  0  0  0  0
   -7.5636    4.9411  -14.9442 C   0  0  0  0  0  0  0  0  0  0  0  0
   -7.4329    5.1850  -13.5851 N   0  0  0  0  0  0  0  0  0  0  0  0
   -8.3044    6.0299  -12.6284 C   0  0  0  0  0  0  0  0  0  0  0  0
   -9.2246    6.7154  -12.8489 O   0  0  0  0  0  0  0  0  0  0  0  0
   -7.8170    5.8224  -11.2711 C   0  0  0  0  0  0  0  0  0  0  0  0
   -7.8015    7.1284  -10.1609 S   0  0  0  0  0  0  0  0  0  0  0  0
   -7.2183    6.1241   -8.9030 C   0  0  0  0  0  0  0  0  0  0  0  0
   -7.0193    4.8276   -9.3268 C   0  0  0  0  0  0  0  0  0  0  0  0
   -7.3446    4.6672  -10.6880 C   0  0  0  0  0  0  0  0  0  0  0  0
   -7.2299    3.5095  -11.3679 O   0  0  0  0  0  0  0  0  0  0  0  0
   -6.4537    4.7135  -15.8035 C   0  0  0  0  0  0  0  0  0  0  0  0
  1  2  1  0
  2  3  2  0
  3  4  1  0
  4  5  2  0
  5  6  1  0
  6  7  2  0
  7  8  1  0
  7  9  1  0
  9 10  2  0
 10 11  1  0
 11 12  1  0
 12 13  1  0
 13 14  2  0
 13 15  1  0
 15 16  1  0
 16 17  1  0
 17 18  2  0
 18 19  1  0
 19 20  1  0
 11 21  2  0
 21  2  1  0
 21  6  1  0
 19 15  2  0
M  END
>  <energy_score>  (626) 
-29.982399

>  <alias>  (626) 
None

>  <HIPPO Pose ID>  (626) 
69989

>  <smiles>  (626) 
Cc1ccnc2c(Cl)ccc(NC(=O)c3sccc3O)c12

>  <inchikey>  (626) 
KKDFKKRNFOQLTH-UHFFFAOYSA-N

>  <distance_score>  (626) 
1.499008

>  <ref_mols>  (626) 
Z0719a,Z1688a

>  <ref_pdb>  (626) 
Z0719a

>  <HIPPO Compound ID>  (626) 
139766

>  <name>  (626) 
P69989

>  <inspiration_score>  (626) 
None

$$$$
P69990
     RDKit          3D

 21 23  0  0  0  0  0  0  0  0999 V2000
   -4.6808    3.9394  -14.1380 C   0  0  0  0  0  0  0  0  0  0  0  0
   -5.1176    4.6073  -15.4226 C   0  0  0  0  0  0  0  0  0  0  0  0
   -4.1303    4.9019  -16.3664 C   0  0  0  0  0  0  0  0  0  0  0  0
   -4.5235    5.1554  -17.6595 C   0  0  0  0  0  0  0  0  0  0  0  0
   -5.7986    5.0589  -18.0642 N   0  0  0  0  0  0  0  0  0  0  0  0
   -6.7675    4.8112  -17.1537 C   0  0  0  0  0  0  0  0  0  0  0  0
   -8.0794    4.5263  -17.5532 C   0  0  0  0  0  0  0  0  0  0  0  0
   -8.4617    4.1613  -19.1795 Cl  0  0  0  0  0  0  0  0  0  0  0  0
   -9.1268    4.3728  -16.6580 C   0  0  0  0  0  0  0  0  0  0  0  0
   -8.8689    4.5024  -15.3155 C   0  0  0  0  0  0  0  0  0  0  0  0
   -7.5765    4.7347  -14.8693 C   0  0  0  0  0  0  0  0  0  0  0  0
   -7.5048    5.0149  -13.5106 N   0  0  0  0  0  0  0  0  0  0  0  0
   -6.5908    5.9894  -12.7332 C   0  0  0  0  0  0  0  0  0  0  0  0
   -5.7033    6.6521  -13.1028 O   0  0  0  0  0  0  0  0  0  0  0  0
   -7.0385    6.0197  -11.3423 C   0  0  0  0  0  0  0  0  0  0  0  0
   -6.9500    7.5078  -10.4820 S   0  0  0  0  0  0  0  0  0  0  0  0
   -7.6701    6.8230   -9.0917 C   0  0  0  0  0  0  0  0  0  0  0  0
   -7.9568    5.4880   -9.2669 C   0  0  0  0  0  0  0  0  0  0  0  0
   -7.5681    5.0290  -10.5433 C   0  0  0  0  0  0  0  0  0  0  0  0
   -7.8006    3.1983  -10.9623 Br  0  0  0  0  0  0  0  0  0  0  0  0
   -6.4866    4.7617  -15.7721 C   0  0  0  0  0  0  0  0  0  0  0  0
  1  2  1  0
  2  3  2  0
  3  4  1  0
  4  5  2  0
  5  6  1  0
  6  7  2  0
  7  8  1  0
  7  9  1  0
  9 10  2  0
 10 11  1  0
 11 12  1  0
 12 13  1  0
 13 14  2  0
 13 15  1  0
 15 16  1  0
 16 17  1  0
 17 18  2  0
 18 19  1  0
 19 20  1  0
 11 21  2  0
 21  2  1  0
 21  6  1  0
 19 15  2  0
M  END
>  <energy_score>  (627) 
-17.486817

>  <alias>  (627) 
None

>  <HIPPO Pose ID>  (627) 
69990

>  <smiles>  (627) 
Cc1ccnc2c(Cl)ccc(NC(=O)c3sccc3Br)c12

>  <inchikey>  (627) 
HQLJFFQWTBWSHZ-UHFFFAOYSA-N

>  <distance_score>  (627) 
1.280301

>  <ref_mols>  (627) 
Z1688a,Z0719a

>  <ref_pdb>  (627) 
Z0719a

>  <HIPPO Compound ID>  (627) 
139768

>  <name>  (627) 
P69990

>  <inspiration_score>  (627) 
None

$$$$
P69991
     RDKit          3D

 21 23  0  0  0  0  0  0  0  0999 V2000
   -4.6769    3.9608  -14.1368 C   0  0  0  0  0  0  0  0  0  0  0  0
   -5.1178    4.6134  -15.4274 C   0  0  0  0  0  0  0  0  0  0  0  0
   -4.1318    4.9181  -16.3695 C   0  0  0  0  0  0  0  0  0  0  0  0
   -4.5252    5.1717  -17.6626 C   0  0  0  0  0  0  0  0  0  0  0  0
   -5.7993    5.0715  -18.0694 N   0  0  0  0  0  0  0  0  0  0  0  0
   -6.7674    4.8104  -17.1618 C   0  0  0  0  0  0  0  0  0  0  0  0
   -8.0776    4.5212  -17.5645 C   0  0  0  0  0  0  0  0  0  0  0  0
   -8.4557    4.1601  -19.1921 Cl  0  0  0  0  0  0  0  0  0  0  0  0
   -9.1267    4.3595  -16.6726 C   0  0  0  0  0  0  0  0  0  0  0  0
   -8.8700    4.4749  -15.3290 C   0  0  0  0  0  0  0  0  0  0  0  0
   -7.5778    4.7015  -14.8798 C   0  0  0  0  0  0  0  0  0  0  0  0
   -7.5056    4.9582  -13.5179 N   0  0  0  0  0  0  0  0  0  0  0  0
   -6.6409    5.9730  -12.7300 C   0  0  0  0  0  0  0  0  0  0  0  0
   -5.7998    6.6961  -13.0968 O   0  0  0  0  0  0  0  0  0  0  0  0
   -7.0556    5.9478  -11.3276 C   0  0  0  0  0  0  0  0  0  0  0  0
   -6.6027    7.2202  -10.2640 S   0  0  0  0  0  0  0  0  0  0  0  0
   -7.4308    6.5013   -8.9462 C   0  0  0  0  0  0  0  0  0  0  0  0
   -8.0434    5.3215   -9.3059 C   0  0  0  0  0  0  0  0  0  0  0  0
   -7.8171    5.0209  -10.6578 C   0  0  0  0  0  0  0  0  0  0  0  0
   -8.3241    3.9201  -11.2313 F   0  0  0  0  0  0  0  0  0  0  0  0
   -6.4874    4.7525  -15.7804 C   0  0  0  0  0  0  0  0  0  0  0  0
  1  2  1  0
  2  3  2  0
  3  4  1  0
  4  5  2  0
  5  6  1  0
  6  7  2  0
  7  8  1  0
  7  9  1  0
  9 10  2  0
 10 11  1  0
 11 12  1  0
 12 13  1  0
 13 14  2  0
 13 15  1  0
 15 16  1  0
 16 17  1  0
 17 18  2  0
 18 19  1  0
 19 20  1  0
 11 21  2  0
 21  2  1  0
 21  6  1  0
 19 15  2  0
M  END
>  <energy_score>  (628) 
-14.476387

>  <alias>  (628) 
None

>  <HIPPO Pose ID>  (628) 
69991

>  <smiles>  (628) 
Cc1ccnc2c(Cl)ccc(NC(=O)c3sccc3F)c12

>  <inchikey>  (628) 
ZYJWHQROLBIKLK-UHFFFAOYSA-N

>  <distance_score>  (628) 
1.406216

>  <ref_mols>  (628) 
Z0719a,Z1688a

>  <ref_pdb>  (628) 
Z0719a

>  <HIPPO Compound ID>  (628) 
139774

>  <name>  (628) 
P69991

>  <inspiration_score>  (628) 
None

$$$$
P69992
     RDKit          3D

 21 23  0  0  0  0  0  0  0  0999 V2000
   -7.8761    7.0984  -13.7949 C   0  0  0  0  0  0  0  0  0  0  0  0
   -7.1429    5.7924  -13.3201 N   0  0  0  0  0  0  0  0  0  0  0  0
   -7.7121    5.2878  -12.0085 C   0  0  0  0  0  0  0  0  0  0  0  0
   -8.5916    4.5349  -11.8005 O   0  0  0  0  0  0  0  0  0  0  0  0
   -7.0411    5.9883  -10.9039 C   0  0  0  0  0  0  0  0  0  0  0  0
   -5.9795    6.8746  -10.9437 C   0  0  0  0  0  0  0  0  0  0  0  0
   -5.7053    7.4173   -9.6715 C   0  0  0  0  0  0  0  0  0  0  0  0
   -4.7412    8.3226   -9.4568 F   0  0  0  0  0  0  0  0  0  0  0  0
   -6.5009    6.9242   -8.6731 C   0  0  0  0  0  0  0  0  0  0  0  0
   -7.6219    5.7918   -9.2922 S   0  0  0  0  0  0  0  0  0  0  0  0
   -7.4576    5.4124  -14.7210 C   0  0  0  0  0  0  0  0  0  0  0  0
   -8.6440    4.7180  -14.9875 C   0  0  0  0  0  0  0  0  0  0  0  0
   -8.9669    4.3717  -16.2869 C   0  0  0  0  0  0  0  0  0  0  0  0
   -8.0616    4.6123  -17.3153 C   0  0  0  0  0  0  0  0  0  0  0  0
   -8.5720    4.1500  -18.8919 Cl  0  0  0  0  0  0  0  0  0  0  0  0
   -6.8011    5.1750  -17.0826 C   0  0  0  0  0  0  0  0  0  0  0  0
   -5.9128    5.3492  -18.0868 N   0  0  0  0  0  0  0  0  0  0  0  0
   -4.6896    5.8407  -17.8245 C   0  0  0  0  0  0  0  0  0  0  0  0
   -4.2812    6.2113  -16.5645 C   0  0  0  0  0  0  0  0  0  0  0  0
   -5.1913    6.0728  -15.5247 C   0  0  0  0  0  0  0  0  0  0  0  0
   -6.4850    5.5590  -15.7572 C   0  0  0  0  0  0  0  0  0  0  0  0
  1  2  1  0
  2  3  1  0
  3  4  2  0
  3  5  1  0
  5  6  2  0
  6  7  1  0
  7  8  1  0
  7  9  2  0
  9 10  1  0
  2 11  1  0
 11 12  2  0
 12 13  1  0
 13 14  2  0
 14 15  1  0
 14 16  1  0
 16 17  2  0
 17 18  1  0
 18 19  2  0
 19 20  1  0
 20 21  2  0
 10  5  1  0
 21 11  1  0
 21 16  1  0
M  END
>  <energy_score>  (629) 
-5.121927

>  <alias>  (629) 
None

>  <HIPPO Pose ID>  (629) 
69992

>  <smiles>  (629) 
CN(C(=O)c1cc(F)cs1)c1ccc(Cl)c2ncccc12

>  <inchikey>  (629) 
OHGNWPIREHBZDG-UHFFFAOYSA-N

>  <distance_score>  (629) 
1.612841

>  <ref_mols>  (629) 
Z1688a,Z0719a

>  <ref_pdb>  (629) 
Z0719a

>  <HIPPO Compound ID>  (629) 
139775

>  <name>  (629) 
P69992

>  <inspiration_score>  (629) 
None

$$$$
P69993
     RDKit          3D

 21 23  0  0  0  0  0  0  0  0999 V2000
   -4.5100    3.9334  -14.0761 C   0  0  0  0  0  0  0  0  0  0  0  0
   -4.9955    4.5785  -15.3615 C   0  0  0  0  0  0  0  0  0  0  0  0
   -4.0268    4.8856  -16.3216 C   0  0  0  0  0  0  0  0  0  0  0  0
   -4.4398    5.1474  -17.6074 C   0  0  0  0  0  0  0  0  0  0  0  0
   -5.7197    5.0562  -17.9964 N   0  0  0  0  0  0  0  0  0  0  0  0
   -6.6755    4.7930  -17.0776 C   0  0  0  0  0  0  0  0  0  0  0  0
   -7.9938    4.5301  -17.4773 C   0  0  0  0  0  0  0  0  0  0  0  0
   -8.3934    4.2110  -19.1123 Cl  0  0  0  0  0  0  0  0  0  0  0  0
   -9.0398    4.3756  -16.5813 C   0  0  0  0  0  0  0  0  0  0  0  0
   -8.7720    4.4746  -15.2387 C   0  0  0  0  0  0  0  0  0  0  0  0
   -7.4687    4.6712  -14.7934 C   0  0  0  0  0  0  0  0  0  0  0  0
   -7.3976    4.9145  -13.4292 N   0  0  0  0  0  0  0  0  0  0  0  0
   -6.5012    5.8856  -12.6278 C   0  0  0  0  0  0  0  0  0  0  0  0
   -5.6290    6.5768  -12.9816 O   0  0  0  0  0  0  0  0  0  0  0  0
   -6.9644    5.8993  -11.2388 C   0  0  0  0  0  0  0  0  0  0  0  0
   -6.7937    7.3538  -10.3330 S   0  0  0  0  0  0  0  0  0  0  0  0
   -7.5684    6.6751   -8.9721 C   0  0  0  0  0  0  0  0  0  0  0  0
   -7.9400    5.3695   -9.1960 C   0  0  0  0  0  0  0  0  0  0  0  0
   -7.5728    4.9135  -10.4851 C   0  0  0  0  0  0  0  0  0  0  0  0
   -7.9045    3.2965  -10.9445 Cl  0  0  0  0  0  0  0  0  0  0  0  0
   -6.3767    4.7173  -15.6970 C   0  0  0  0  0  0  0  0  0  0  0  0
  1  2  1  0
  2  3  2  0
  3  4  1  0
  4  5  2  0
  5  6  1  0
  6  7  2  0
  7  8  1  0
  7  9  1  0
  9 10  2  0
 10 11  1  0
 11 12  1  0
 12 13  1  0
 13 14  2  0
 13 15  1  0
 15 16  1  0
 16 17  1  0
 17 18  2  0
 18 19  1  0
 19 20  1  0
 11 21  2  0
 21  2  1  0
 21  6  1  0
 19 15  2  0
M  END
>  <energy_score>  (630) 
-25.142361

>  <alias>  (630) 
None

>  <HIPPO Pose ID>  (630) 
69993

>  <smiles>  (630) 
Cc1ccnc2c(Cl)ccc(NC(=O)c3sccc3Cl)c12

>  <inchikey>  (630) 
OQHAMWPQQVHZKV-UHFFFAOYSA-N

>  <distance_score>  (630) 
1.227637

>  <ref_mols>  (630) 
Z0719a,Z1688a

>  <ref_pdb>  (630) 
Z0719a

>  <HIPPO Compound ID>  (630) 
139782

>  <name>  (630) 
P69993

>  <inspiration_score>  (630) 
None

$$$$
P69994
     RDKit          3D

 22 24  0  0  0  0  0  0  0  0999 V2000
   -4.3004    4.8711  -14.6965 C   0  0  0  0  0  0  0  0  0  0  0  0
   -5.0411    5.2733  -15.9432 C   0  0  0  0  0  0  0  0  0  0  0  0
   -4.2042    5.6464  -17.0040 C   0  0  0  0  0  0  0  0  0  0  0  0
   -4.7366    5.7115  -18.2619 C   0  0  0  0  0  0  0  0  0  0  0  0
   -6.0087    5.3962  -18.5160 N   0  0  0  0  0  0  0  0  0  0  0  0
   -6.8467    5.0758  -17.5081 C   0  0  0  0  0  0  0  0  0  0  0  0
   -8.1283    4.6076  -17.8256 C   0  0  0  0  0  0  0  0  0  0  0  0
   -8.5173    4.0563  -19.3901 Cl  0  0  0  0  0  0  0  0  0  0  0  0
   -9.1251    4.3918  -16.8965 C   0  0  0  0  0  0  0  0  0  0  0  0
   -8.8095    4.5579  -15.5819 C   0  0  0  0  0  0  0  0  0  0  0  0
   -7.5136    4.9137  -15.1987 C   0  0  0  0  0  0  0  0  0  0  0  0
   -7.4298    4.9132  -13.8223 N   0  0  0  0  0  0  0  0  0  0  0  0
   -6.5686    5.7619  -12.8733 C   0  0  0  0  0  0  0  0  0  0  0  0
   -5.8486    6.6501  -13.0975 O   0  0  0  0  0  0  0  0  0  0  0  0
   -6.7289    5.1761  -11.5528 C   0  0  0  0  0  0  0  0  0  0  0  0
   -6.9857    6.2075  -10.2153 S   0  0  0  0  0  0  0  0  0  0  0  0
   -7.2489    4.8673   -9.1887 C   0  0  0  0  0  0  0  0  0  0  0  0
   -7.0873    3.6633   -9.8421 C   0  0  0  0  0  0  0  0  0  0  0  0
   -6.7438    3.8292  -11.2089 C   0  0  0  0  0  0  0  0  0  0  0  0
   -6.5193    2.7360  -12.1341 C   0  0  0  0  0  0  0  0  0  0  0  0
   -6.4237    1.8932  -12.9280 N   0  0  0  0  0  0  0  0  0  0  0  0
   -6.4616    5.1329  -16.1486 C   0  0  0  0  0  0  0  0  0  0  0  0
  1  2  1  0
  2  3  2  0
  3  4  1  0
  4  5  2  0
  5  6  1  0
  6  7  2  0
  7  8  1  0
  7  9  1  0
  9 10  2  0
 10 11  1  0
 11 12  1  0
 12 13  1  0
 13 14  2  0
 13 15  1  0
 15 16  1  0
 16 17  1  0
 17 18  2  0
 18 19  1  0
 19 20  1  0
 20 21  3  0
 11 22  2  0
 22  2  1  0
 22  6  1  0
 19 15  2  0
M  END
>  <energy_score>  (631) 
-8.249351

>  <alias>  (631) 
None

>  <HIPPO Pose ID>  (631) 
69994

>  <smiles>  (631) 
Cc1ccnc2c(Cl)ccc(NC(=O)c3sccc3C#N)c12

>  <inchikey>  (631) 
LYYXHRSLGXSNOJ-UHFFFAOYSA-N

>  <distance_score>  (631) 
1.196485

>  <ref_mols>  (631) 
Z1688a,Z0719a

>  <ref_pdb>  (631) 
Z0719a

>  <HIPPO Compound ID>  (631) 
139785

>  <name>  (631) 
P69994

>  <inspiration_score>  (631) 
None

$$$$
P69995
     RDKit          3D

 22 24  0  0  0  0  0  0  0  0999 V2000
   -6.2240    2.7481  -13.3151 O   0  0  0  0  0  0  0  0  0  0  0  0
   -6.5084    2.7290  -12.1220 C   0  0  0  0  0  0  0  0  0  0  0  0
   -6.3857    3.8714  -11.2044 C   0  0  0  0  0  0  0  0  0  0  0  0
   -6.3633    3.6489   -9.7893 C   0  0  0  0  0  0  0  0  0  0  0  0
   -6.2422    4.7972   -9.0482 C   0  0  0  0  0  0  0  0  0  0  0  0
   -6.1329    6.1751  -10.0254 S   0  0  0  0  0  0  0  0  0  0  0  0
   -6.3775    5.2479  -11.4712 C   0  0  0  0  0  0  0  0  0  0  0  0
   -6.7431    6.0402  -12.6613 C   0  0  0  0  0  0  0  0  0  0  0  0
   -7.1534    7.1222  -12.5236 O   0  0  0  0  0  0  0  0  0  0  0  0
   -6.5889    5.1897  -13.9269 N   0  0  0  0  0  0  0  0  0  0  0  0
   -6.9780    5.4388  -15.2310 C   0  0  0  0  0  0  0  0  0  0  0  0
   -8.3537    5.4872  -15.4632 C   0  0  0  0  0  0  0  0  0  0  0  0
   -9.5516    6.1755  -14.1859 Br  0  0  0  0  0  0  0  0  0  0  0  0
   -8.8584    5.0212  -16.6585 C   0  0  0  0  0  0  0  0  0  0  0  0
   -7.9734    4.6967  -17.6789 C   0  0  0  0  0  0  0  0  0  0  0  0
   -8.6811    4.0683  -19.1049 Cl  0  0  0  0  0  0  0  0  0  0  0  0
   -6.5894    4.8740  -17.5574 C   0  0  0  0  0  0  0  0  0  0  0  0
   -5.7474    4.7373  -18.6021 N   0  0  0  0  0  0  0  0  0  0  0  0
   -4.4263    4.9237  -18.4219 C   0  0  0  0  0  0  0  0  0  0  0  0
   -3.8558    5.2077  -17.2009 C   0  0  0  0  0  0  0  0  0  0  0  0
   -4.7013    5.3281  -16.1111 C   0  0  0  0  0  0  0  0  0  0  0  0
   -6.0905    5.1958  -16.2821 C   0  0  0  0  0  0  0  0  0  0  0  0
  1  2  2  0
  2  3  1  0
  3  4  1  0
  4  5  2  0
  5  6  1  0
  6  7  1  0
  7  8  1  0
  8  9  2  0
  8 10  1  0
 10 11  1  0
 11 12  2  0
 12 13  1  0
 12 14  1  0
 14 15  2  0
 15 16  1  0
 15 17  1  0
 17 18  2  0
 18 19  1  0
 19 20  2  0
 20 21  1  0
 21 22  2  0
  7  3  2  0
 22 11  1  0
 22 17  1  0
M  END
>  <energy_score>  (632) 
-5.301825

>  <alias>  (632) 
None

>  <HIPPO Pose ID>  (632) 
69995

>  <smiles>  (632) 
O=Cc1ccsc1C(=O)Nc1c(Br)cc(Cl)c2ncccc12

>  <inchikey>  (632) 
QDMDMDMPBPJRBP-UHFFFAOYSA-N

>  <distance_score>  (632) 
1.626987

>  <ref_mols>  (632) 
Z1688a,Z0719a

>  <ref_pdb>  (632) 
Z0719a

>  <HIPPO Compound ID>  (632) 
139831

>  <name>  (632) 
P69995

>  <inspiration_score>  (632) 
None

$$$$
P69996
     RDKit          3D

 22 24  0  0  0  0  0  0  0  0999 V2000
   -4.2109    4.8450  -14.7302 C   0  0  0  0  0  0  0  0  0  0  0  0
   -4.9986    5.2119  -15.9584 C   0  0  0  0  0  0  0  0  0  0  0  0
   -4.2100    5.5927  -17.0530 C   0  0  0  0  0  0  0  0  0  0  0  0
   -4.7975    5.6717  -18.2864 C   0  0  0  0  0  0  0  0  0  0  0  0
   -6.0832    5.3728  -18.4887 N   0  0  0  0  0  0  0  0  0  0  0  0
   -6.8769    5.0439  -17.4487 C   0  0  0  0  0  0  0  0  0  0  0  0
   -8.1824    4.6107  -17.7156 C   0  0  0  0  0  0  0  0  0  0  0  0
   -8.6787    4.1339  -19.2778 Cl  0  0  0  0  0  0  0  0  0  0  0  0
   -9.1339    4.3921  -16.7405 C   0  0  0  0  0  0  0  0  0  0  0  0
   -8.7489    4.5094  -15.4379 C   0  0  0  0  0  0  0  0  0  0  0  0
   -7.4257    4.8158  -15.1117 C   0  0  0  0  0  0  0  0  0  0  0  0
   -7.2579    4.7420  -13.7449 N   0  0  0  0  0  0  0  0  0  0  0  0
   -6.4193    5.6041  -12.7962 C   0  0  0  0  0  0  0  0  0  0  0  0
   -5.7937    6.5648  -13.0026 O   0  0  0  0  0  0  0  0  0  0  0  0
   -6.5484    5.0267  -11.4576 C   0  0  0  0  0  0  0  0  0  0  0  0
   -6.7370    6.1498  -10.1625 S   0  0  0  0  0  0  0  0  0  0  0  0
   -6.9205    4.8977   -9.0261 C   0  0  0  0  0  0  0  0  0  0  0  0
   -6.8195    3.6578   -9.6124 C   0  0  0  0  0  0  0  0  0  0  0  0
   -6.5713    3.7002  -11.0231 C   0  0  0  0  0  0  0  0  0  0  0  0
   -6.3879    2.4690  -11.8125 C   0  0  0  0  0  0  0  0  0  0  0  0
   -6.4804    2.3680  -13.0309 O   0  0  0  0  0  0  0  0  0  0  0  0
   -6.4246    5.0655  -16.1063 C   0  0  0  0  0  0  0  0  0  0  0  0
  1  2  1  0
  2  3  2  0
  3  4  1  0
  4  5  2  0
  5  6  1  0
  6  7  2  0
  7  8  1  0
  7  9  1  0
  9 10  2  0
 10 11  1  0
 11 12  1  0
 12 13  1  0
 13 14  2  0
 13 15  1  0
 15 16  1  0
 16 17  1  0
 17 18  2  0
 18 19  1  0
 19 20  1  0
 20 21  2  0
 11 22  2  0
 22  2  1  0
 22  6  1  0
 19 15  2  0
M  END
>  <energy_score>  (633) 
-31.12816

>  <alias>  (633) 
None

>  <HIPPO Pose ID>  (633) 
69996

>  <smiles>  (633) 
Cc1ccnc2c(Cl)ccc(NC(=O)c3sccc3C=O)c12

>  <inchikey>  (633) 
RIBHRPIBFVJYAF-UHFFFAOYSA-N

>  <distance_score>  (633) 
1.667752

>  <ref_mols>  (633) 
Z0719a,Z1688a

>  <ref_pdb>  (633) 
Z0719a

>  <HIPPO Compound ID>  (633) 
139832

>  <name>  (633) 
P69996

>  <inspiration_score>  (633) 
None

$$$$
P69997
     RDKit          3D

 22 24  0  0  0  0  0  0  0  0999 V2000
   -4.1782    4.9412  -13.6555 O   0  0  0  0  0  0  0  0  0  0  0  0
   -5.2559    4.9776  -13.2140 C   0  0  0  0  0  0  0  0  0  0  0  0
   -6.6049    5.2635  -13.8967 N   0  0  0  0  0  0  0  0  0  0  0  0
   -6.9158    5.4647  -15.2403 C   0  0  0  0  0  0  0  0  0  0  0  0
   -8.3033    5.4356  -15.4350 C   0  0  0  0  0  0  0  0  0  0  0  0
   -9.4239    6.1050  -14.0652 Br  0  0  0  0  0  0  0  0  0  0  0  0
   -8.8429    4.9732  -16.6094 C   0  0  0  0  0  0  0  0  0  0  0  0
   -7.9760    4.6994  -17.6557 C   0  0  0  0  0  0  0  0  0  0  0  0
   -8.7035    4.0585  -19.0679 Cl  0  0  0  0  0  0  0  0  0  0  0  0
   -6.6033    4.9795  -17.5866 C   0  0  0  0  0  0  0  0  0  0  0  0
   -5.8209    4.8682  -18.6758 N   0  0  0  0  0  0  0  0  0  0  0  0
   -4.5242    5.2157  -18.6103 C   0  0  0  0  0  0  0  0  0  0  0  0
   -3.9286    5.6904  -17.4671 C   0  0  0  0  0  0  0  0  0  0  0  0
   -4.7125    5.7868  -16.3285 C   0  0  0  0  0  0  0  0  0  0  0  0
   -6.0648    5.4001  -16.3487 C   0  0  0  0  0  0  0  0  0  0  0  0
   -5.6392    4.6540  -11.8623 C   0  0  0  0  0  0  0  0  0  0  0  0
   -6.0890    5.8767  -10.7619 S   0  0  0  0  0  0  0  0  0  0  0  0
   -6.9147    4.7351   -9.7905 C   0  0  0  0  0  0  0  0  0  0  0  0
   -6.8224    3.4542  -10.2968 C   0  0  0  0  0  0  0  0  0  0  0  0
   -6.0432    3.3795  -11.4928 C   0  0  0  0  0  0  0  0  0  0  0  0
   -5.7844    2.1289  -12.2968 C   0  0  0  0  0  0  0  0  0  0  0  0
   -6.8503    1.7876  -13.1771 O   0  0  0  0  0  0  0  0  0  0  0  0
  1  2  2  0
  2  3  1  0
  3  4  1  0
  4  5  2  0
  5  6  1  0
  5  7  1  0
  7  8  2  0
  8  9  1  0
  8 10  1  0
 10 11  2  0
 11 12  1  0
 12 13  2  0
 13 14  1  0
 14 15  2  0
  2 16  1  0
 16 17  1  0
 17 18  1  0
 18 19  2  0
 19 20  1  0
 20 21  1  0
 21 22  1  0
 15  4  1  0
 20 16  2  0
 15 10  1  0
M  END
>  <energy_score>  (634) 
-0.630262

>  <alias>  (634) 
None

>  <HIPPO Pose ID>  (634) 
69997

>  <smiles>  (634) 
O=C(Nc1c(Br)cc(Cl)c2ncccc12)c1sccc1CO

>  <inchikey>  (634) 
PIOXIWZFSUZXDA-UHFFFAOYSA-N

>  <distance_score>  (634) 
1.574101

>  <ref_mols>  (634) 
Z1688a,Z0719a

>  <ref_pdb>  (634) 
Z0719a

>  <HIPPO Compound ID>  (634) 
139885

>  <name>  (634) 
P69997

>  <inspiration_score>  (634) 
None

$$$$
P69998
     RDKit          3D

 22 24  0  0  0  0  0  0  0  0999 V2000
   -4.0882    5.2334  -14.8527 C   0  0  0  0  0  0  0  0  0  0  0  0
   -4.9463    5.3865  -16.0762 C   0  0  0  0  0  0  0  0  0  0  0  0
   -4.2363    5.7386  -17.2326 C   0  0  0  0  0  0  0  0  0  0  0  0
   -4.8883    5.7220  -18.4354 C   0  0  0  0  0  0  0  0  0  0  0  0
   -6.1718    5.3736  -18.5509 N   0  0  0  0  0  0  0  0  0  0  0  0
   -6.8972    5.0655  -17.4588 C   0  0  0  0  0  0  0  0  0  0  0  0
   -8.2120    4.6171  -17.6436 C   0  0  0  0  0  0  0  0  0  0  0  0
   -8.8259    4.1899  -19.1811 Cl  0  0  0  0  0  0  0  0  0  0  0  0
   -9.0895    4.3759  -16.6058 C   0  0  0  0  0  0  0  0  0  0  0  0
   -8.6211    4.4899  -15.3291 C   0  0  0  0  0  0  0  0  0  0  0  0
   -7.2884    4.8371  -15.0910 C   0  0  0  0  0  0  0  0  0  0  0  0
   -7.0112    4.7432  -13.7438 N   0  0  0  0  0  0  0  0  0  0  0  0
   -6.3200    5.7358  -12.7938 C   0  0  0  0  0  0  0  0  0  0  0  0
   -5.8057    6.7588  -13.0132 O   0  0  0  0  0  0  0  0  0  0  0  0
   -6.4002    5.1546  -11.4563 C   0  0  0  0  0  0  0  0  0  0  0  0
   -6.7612    6.2001  -10.1467 S   0  0  0  0  0  0  0  0  0  0  0  0
   -6.8987    4.8828   -9.0721 C   0  0  0  0  0  0  0  0  0  0  0  0
   -6.6358    3.6820   -9.6929 C   0  0  0  0  0  0  0  0  0  0  0  0
   -6.2793    3.8195  -11.0701 C   0  0  0  0  0  0  0  0  0  0  0  0
   -5.8805    2.6495  -11.9422 C   0  0  0  0  0  0  0  0  0  0  0  0
   -7.0175    2.0767  -12.5821 O   0  0  0  0  0  0  0  0  0  0  0  0
   -6.3649    5.1347  -16.1451 C   0  0  0  0  0  0  0  0  0  0  0  0
  1  2  1  0
  2  3  2  0
  3  4  1  0
  4  5  2  0
  5  6  1  0
  6  7  2  0
  7  8  1  0
  7  9  1  0
  9 10  2  0
 10 11  1  0
 11 12  1  0
 12 13  1  0
 13 14  2  0
 13 15  1  0
 15 16  1  0
 16 17  1  0
 17 18  2  0
 18 19  1  0
 19 20  1  0
 20 21  1  0
 11 22  2  0
 22  2  1  0
 22  6  1  0
 19 15  2  0
M  END
>  <energy_score>  (635) 
-22.260988

>  <alias>  (635) 
None

>  <HIPPO Pose ID>  (635) 
69998

>  <smiles>  (635) 
Cc1ccnc2c(Cl)ccc(NC(=O)c3sccc3CO)c12

>  <inchikey>  (635) 
MLTSKAMBAVABCH-UHFFFAOYSA-N

>  <distance_score>  (635) 
1.61024

>  <ref_mols>  (635) 
Z0719a,Z1688a

>  <ref_pdb>  (635) 
Z0719a

>  <HIPPO Compound ID>  (635) 
139886

>  <name>  (635) 
P69998

>  <inspiration_score>  (635) 
None

$$$$
P69999
     RDKit          3D

 22 24  0  0  0  0  0  0  0  0999 V2000
   -4.1866    4.7719  -13.6669 O   0  0  0  0  0  0  0  0  0  0  0  0
   -5.2468    4.9293  -13.2089 C   0  0  0  0  0  0  0  0  0  0  0  0
   -6.5805    5.2939  -13.8827 N   0  0  0  0  0  0  0  0  0  0  0  0
   -6.9036    5.4440  -15.2296 C   0  0  0  0  0  0  0  0  0  0  0  0
   -8.2907    5.4074  -15.4241 C   0  0  0  0  0  0  0  0  0  0  0  0
   -9.4153    6.0785  -14.0583 Br  0  0  0  0  0  0  0  0  0  0  0  0
   -8.8294    4.9534  -16.6024 C   0  0  0  0  0  0  0  0  0  0  0  0
   -7.9616    4.6901  -17.6506 C   0  0  0  0  0  0  0  0  0  0  0  0
   -8.6883    4.0614  -19.0695 Cl  0  0  0  0  0  0  0  0  0  0  0  0
   -6.5891    4.9727  -17.5792 C   0  0  0  0  0  0  0  0  0  0  0  0
   -5.8054    4.8772  -18.6703 N   0  0  0  0  0  0  0  0  0  0  0  0
   -4.5088    5.2246  -18.5968 C   0  0  0  0  0  0  0  0  0  0  0  0
   -3.9138    5.6831  -17.4462 C   0  0  0  0  0  0  0  0  0  0  0  0
   -4.6991    5.7659  -16.3077 C   0  0  0  0  0  0  0  0  0  0  0  0
   -6.0523    5.3831  -16.3371 C   0  0  0  0  0  0  0  0  0  0  0  0
   -5.6090    4.7142  -11.8277 C   0  0  0  0  0  0  0  0  0  0  0  0
   -5.9656    6.0223  -10.7933 S   0  0  0  0  0  0  0  0  0  0  0  0
   -6.7677    4.9776   -9.7011 C   0  0  0  0  0  0  0  0  0  0  0  0
   -6.7425    3.6635  -10.1214 C   0  0  0  0  0  0  0  0  0  0  0  0
   -6.0402    3.4856  -11.3528 C   0  0  0  0  0  0  0  0  0  0  0  0
   -5.8948    2.1894  -12.1062 C   0  0  0  0  0  0  0  0  0  0  0  0
   -6.7315    2.1465  -13.1809 F   0  0  0  0  0  0  0  0  0  0  0  0
  1  2  2  0
  2  3  1  0
  3  4  1  0
  4  5  2  0
  5  6  1  0
  5  7  1  0
  7  8  2  0
  8  9  1  0
  8 10  1  0
 10 11  2  0
 11 12  1  0
 12 13  2  0
 13 14  1  0
 14 15  2  0
  2 16  1  0
 16 17  1  0
 17 18  1  0
 18 19  2  0
 19 20  1  0
 20 21  1  0
 21 22  1  0
 15  4  1  0
 20 16  2  0
 15 10  1  0
M  END
>  <energy_score>  (636) 
-16.290774

>  <alias>  (636) 
None

>  <HIPPO Pose ID>  (636) 
69999

>  <smiles>  (636) 
O=C(Nc1c(Br)cc(Cl)c2ncccc12)c1sccc1CF

>  <inchikey>  (636) 
SHPIYUWFJMRESE-UHFFFAOYSA-N

>  <distance_score>  (636) 
1.646204

>  <ref_mols>  (636) 
Z1688a,Z0719a

>  <ref_pdb>  (636) 
Z0719a

>  <HIPPO Compound ID>  (636) 
139892

>  <name>  (636) 
P69999

>  <inspiration_score>  (636) 
None

$$$$
P70000
     RDKit          3D

 22 24  0  0  0  0  0  0  0  0999 V2000
   -4.1374    5.0847  -14.8068 C   0  0  0  0  0  0  0  0  0  0  0  0
   -4.9751    5.3488  -16.0254 C   0  0  0  0  0  0  0  0  0  0  0  0
   -4.2312    5.7141  -17.1566 C   0  0  0  0  0  0  0  0  0  0  0  0
   -4.8550    5.7322  -18.3736 C   0  0  0  0  0  0  0  0  0  0  0  0
   -6.1373    5.3949  -18.5247 N   0  0  0  0  0  0  0  0  0  0  0  0
   -6.8915    5.0771  -17.4545 C   0  0  0  0  0  0  0  0  0  0  0  0
   -8.1959    4.6187  -17.6802 C   0  0  0  0  0  0  0  0  0  0  0  0
   -8.7469    4.1558  -19.2298 Cl  0  0  0  0  0  0  0  0  0  0  0  0
   -9.1080    4.3830  -16.6732 C   0  0  0  0  0  0  0  0  0  0  0  0
   -8.6855    4.5201  -15.3837 C   0  0  0  0  0  0  0  0  0  0  0  0
   -7.3629    4.8747  -15.0969 C   0  0  0  0  0  0  0  0  0  0  0  0
   -7.1742    4.8356  -13.7297 N   0  0  0  0  0  0  0  0  0  0  0  0
   -6.3420    5.7420  -12.8098 C   0  0  0  0  0  0  0  0  0  0  0  0
   -5.7432    6.7133  -13.0467 O   0  0  0  0  0  0  0  0  0  0  0  0
   -6.4283    5.1493  -11.4804 C   0  0  0  0  0  0  0  0  0  0  0  0
   -6.7570    6.1838  -10.1565 S   0  0  0  0  0  0  0  0  0  0  0  0
   -6.9476    4.8520   -9.1071 C   0  0  0  0  0  0  0  0  0  0  0  0
   -6.7234    3.6537   -9.7485 C   0  0  0  0  0  0  0  0  0  0  0  0
   -6.3523    3.8034  -11.1209 C   0  0  0  0  0  0  0  0  0  0  0  0
   -5.9710    2.6398  -12.0109 C   0  0  0  0  0  0  0  0  0  0  0  0
   -6.9537    2.3498  -12.9091 F   0  0  0  0  0  0  0  0  0  0  0  0
   -6.3992    5.1412  -16.1249 C   0  0  0  0  0  0  0  0  0  0  0  0
  1  2  1  0
  2  3  2  0
  3  4  1  0
  4  5  2  0
  5  6  1  0
  6  7  2  0
  7  8  1  0
  7  9  1  0
  9 10  2  0
 10 11  1  0
 11 12  1  0
 12 13  1  0
 13 14  2  0
 13 15  1  0
 15 16  1  0
 16 17  1  0
 17 18  2  0
 18 19  1  0
 19 20  1  0
 20 21  1  0
 11 22  2  0
 22  2  1  0
 22  6  1  0
 19 15  2  0
M  END
>  <energy_score>  (637) 
-26.867319

>  <alias>  (637) 
None

>  <HIPPO Pose ID>  (637) 
70000

>  <smiles>  (637) 
Cc1ccnc2c(Cl)ccc(NC(=O)c3sccc3CF)c12

>  <inchikey>  (637) 
JKZBANVMFXEREM-UHFFFAOYSA-N

>  <distance_score>  (637) 
1.509897

>  <ref_mols>  (637) 
Z0719a,Z1688a

>  <ref_pdb>  (637) 
Z0719a

>  <HIPPO Compound ID>  (637) 
139893

>  <name>  (637) 
P70000

>  <inspiration_score>  (637) 
None

$$$$
P70001
     RDKit          3D

 22 24  0  0  0  0  0  0  0  0999 V2000
   -4.0489    5.2267  -13.6662 O   0  0  0  0  0  0  0  0  0  0  0  0
   -5.1137    5.2522  -13.1925 C   0  0  0  0  0  0  0  0  0  0  0  0
   -6.4939    5.4441  -13.8478 N   0  0  0  0  0  0  0  0  0  0  0  0
   -6.8544    5.5468  -15.1952 C   0  0  0  0  0  0  0  0  0  0  0  0
   -8.2453    5.4519  -15.3575 C   0  0  0  0  0  0  0  0  0  0  0  0
   -9.3714    6.0831  -13.9745 Br  0  0  0  0  0  0  0  0  0  0  0  0
   -8.8003    4.9671  -16.5186 C   0  0  0  0  0  0  0  0  0  0  0  0
   -7.9554    4.7078  -17.5854 C   0  0  0  0  0  0  0  0  0  0  0  0
   -8.7084    4.0715  -18.9912 Cl  0  0  0  0  0  0  0  0  0  0  0  0
   -6.5882    5.0128  -17.5463 C   0  0  0  0  0  0  0  0  0  0  0  0
   -5.8308    4.8929  -18.6529 N   0  0  0  0  0  0  0  0  0  0  0  0
   -4.5415    5.2692  -18.6281 C   0  0  0  0  0  0  0  0  0  0  0  0
   -3.9314    5.7882  -17.5130 C   0  0  0  0  0  0  0  0  0  0  0  0
   -4.6907    5.8980  -16.3587 C   0  0  0  0  0  0  0  0  0  0  0  0
   -6.0318    5.4749  -16.3282 C   0  0  0  0  0  0  0  0  0  0  0  0
   -5.4099    4.9970  -11.8009 C   0  0  0  0  0  0  0  0  0  0  0  0
   -5.7739    6.2696  -10.7287 S   0  0  0  0  0  0  0  0  0  0  0  0
   -6.3489    5.1619   -9.5572 C   0  0  0  0  0  0  0  0  0  0  0  0
   -6.2919    3.8576  -10.0034 C   0  0  0  0  0  0  0  0  0  0  0  0
   -5.7074    3.7367  -11.3027 C   0  0  0  0  0  0  0  0  0  0  0  0
   -5.5117    2.4462  -12.0558 C   0  0  0  0  0  0  0  0  0  0  0  0
   -6.8382    2.1896  -13.1961 Cl  0  0  0  0  0  0  0  0  0  0  0  0
  1  2  2  0
  2  3  1  0
  3  4  1  0
  4  5  2  0
  5  6  1  0
  5  7  1  0
  7  8  2  0
  8  9  1  0
  8 10  1  0
 10 11  2  0
 11 12  1  0
 12 13  2  0
 13 14  1  0
 14 15  2  0
  2 16  1  0
 16 17  1  0
 17 18  1  0
 18 19  2  0
 19 20  1  0
 20 21  1  0
 21 22  1  0
 15  4  1  0
 20 16  2  0
 15 10  1  0
M  END
>  <energy_score>  (638) 
-27.226098

>  <alias>  (638) 
None

>  <HIPPO Pose ID>  (638) 
70001

>  <smiles>  (638) 
O=C(Nc1c(Br)cc(Cl)c2ncccc12)c1sccc1CCl

>  <inchikey>  (638) 
OVZOZOFDEFRWHP-UHFFFAOYSA-N

>  <distance_score>  (638) 
1.719159

>  <ref_mols>  (638) 
Z1688a,Z0719a

>  <ref_pdb>  (638) 
Z0719a

>  <HIPPO Compound ID>  (638) 
139898

>  <name>  (638) 
P70001

>  <inspiration_score>  (638) 
None

$$$$
P70002
     RDKit          3D

 22 24  0  0  0  0  0  0  0  0999 V2000
   -4.0973    5.3844  -14.9410 C   0  0  0  0  0  0  0  0  0  0  0  0
   -4.9608    5.5153  -16.1617 C   0  0  0  0  0  0  0  0  0  0  0  0
   -4.2490    5.8335  -17.3266 C   0  0  0  0  0  0  0  0  0  0  0  0
   -4.8973    5.7721  -18.5290 C   0  0  0  0  0  0  0  0  0  0  0  0
   -6.1766    5.4077  -18.6341 N   0  0  0  0  0  0  0  0  0  0  0  0
   -6.9019    5.1260  -17.5356 C   0  0  0  0  0  0  0  0  0  0  0  0
   -8.2045    4.6398  -17.7123 C   0  0  0  0  0  0  0  0  0  0  0  0
   -8.7953    4.1443  -19.2361 Cl  0  0  0  0  0  0  0  0  0  0  0  0
   -9.0837    4.4099  -16.6744 C   0  0  0  0  0  0  0  0  0  0  0  0
   -8.6295    4.5890  -15.4014 C   0  0  0  0  0  0  0  0  0  0  0  0
   -7.3093    4.9943  -15.1662 C   0  0  0  0  0  0  0  0  0  0  0  0
   -7.0595    4.9624  -13.8109 N   0  0  0  0  0  0  0  0  0  0  0  0
   -6.3347    5.9691  -12.9053 C   0  0  0  0  0  0  0  0  0  0  0  0
   -5.7650    6.9500  -13.1704 O   0  0  0  0  0  0  0  0  0  0  0  0
   -6.4767    5.4310  -11.5615 C   0  0  0  0  0  0  0  0  0  0  0  0
   -7.0994    6.4586  -10.3478 S   0  0  0  0  0  0  0  0  0  0  0  0
   -7.3347    5.1355   -9.2993 C   0  0  0  0  0  0  0  0  0  0  0  0
   -6.8614    3.9568   -9.8321 C   0  0  0  0  0  0  0  0  0  0  0  0
   -6.2927    4.1145  -11.1351 C   0  0  0  0  0  0  0  0  0  0  0  0
   -5.6295    2.9884  -11.8990 C   0  0  0  0  0  0  0  0  0  0  0  0
   -6.7909    2.0781  -12.8733 Cl  0  0  0  0  0  0  0  0  0  0  0  0
   -6.3791    5.2556  -16.2235 C   0  0  0  0  0  0  0  0  0  0  0  0
  1  2  1  0
  2  3  2  0
  3  4  1  0
  4  5  2  0
  5  6  1  0
  6  7  2  0
  7  8  1  0
  7  9  1  0
  9 10  2  0
 10 11  1  0
 11 12  1  0
 12 13  1  0
 13 14  2  0
 13 15  1  0
 15 16  1  0
 16 17  1  0
 17 18  2  0
 18 19  1  0
 19 20  1  0
 20 21  1  0
 11 22  2  0
 22  2  1  0
 22  6  1  0
 19 15  2  0
M  END
>  <energy_score>  (639) 
-26.582646

>  <alias>  (639) 
None

>  <HIPPO Pose ID>  (639) 
70002

>  <smiles>  (639) 
Cc1ccnc2c(Cl)ccc(NC(=O)c3sccc3CCl)c12

>  <inchikey>  (639) 
ZEUILYWIBICOLS-UHFFFAOYSA-N

>  <distance_score>  (639) 
1.331602

>  <ref_mols>  (639) 
Z0719a,Z1688a

>  <ref_pdb>  (639) 
Z0719a

>  <HIPPO Compound ID>  (639) 
139899

>  <name>  (639) 
P70002

>  <inspiration_score>  (639) 
None

$$$$
P70003
     RDKit          3D

 23 25  0  0  0  0  0  0  0  0999 V2000
   -4.2715    6.2182  -14.9651 C   0  0  0  0  0  0  0  0  0  0  0  0
   -5.0685    5.9232  -16.2018 C   0  0  0  0  0  0  0  0  0  0  0  0
   -4.3207    6.0437  -17.3842 C   0  0  0  0  0  0  0  0  0  0  0  0
   -4.9148    5.7447  -18.5770 C   0  0  0  0  0  0  0  0  0  0  0  0
   -6.1806    5.3388  -18.6574 N   0  0  0  0  0  0  0  0  0  0  0  0
   -6.9412    5.2249  -17.5544 C   0  0  0  0  0  0  0  0  0  0  0  0
   -8.2296    4.7021  -17.7203 C   0  0  0  0  0  0  0  0  0  0  0  0
   -8.7685    4.0761  -19.2179 Cl  0  0  0  0  0  0  0  0  0  0  0  0
   -9.1349    4.5563  -16.6888 C   0  0  0  0  0  0  0  0  0  0  0  0
   -8.7266    4.8758  -15.4258 C   0  0  0  0  0  0  0  0  0  0  0  0
   -7.4337    5.3628  -15.1970 C   0  0  0  0  0  0  0  0  0  0  0  0
   -7.1352    5.2467  -13.8566 N   0  0  0  0  0  0  0  0  0  0  0  0
   -6.5182    6.2584  -12.8797 C   0  0  0  0  0  0  0  0  0  0  0  0
   -6.0919    7.3267  -13.0673 O   0  0  0  0  0  0  0  0  0  0  0  0
   -6.4673    5.5580  -11.5976 C   0  0  0  0  0  0  0  0  0  0  0  0
   -6.9082    6.3974  -10.1791 S   0  0  0  0  0  0  0  0  0  0  0  0
   -6.8385    4.9621   -9.2572 C   0  0  0  0  0  0  0  0  0  0  0  0
   -6.4311    3.8814  -10.0091 C   0  0  0  0  0  0  0  0  0  0  0  0
   -6.1298    4.2159  -11.3669 C   0  0  0  0  0  0  0  0  0  0  0  0
   -5.5793    3.2130  -12.3998 C   0  0  0  0  0  0  0  0  0  0  0  0
   -6.5712    2.1039  -12.7336 C   0  0  0  0  0  0  0  0  0  0  0  0
   -4.2433    2.6039  -11.9793 C   0  0  0  0  0  0  0  0  0  0  0  0
   -6.4706    5.5555  -16.2547 C   0  0  0  0  0  0  0  0  0  0  0  0
  1  2  1  0
  2  3  2  0
  3  4  1  0
  4  5  2  0
  5  6  1  0
  6  7  2  0
  7  8  1  0
  7  9  1  0
  9 10  2  0
 10 11  1  0
 11 12  1  0
 12 13  1  0
 13 14  2  0
 13 15  1  0
 15 16  1  0
 16 17  1  0
 17 18  2  0
 18 19  1  0
 19 20  1  0
 20 21  1  0
 20 22  1  0
 11 23  2  0
 23  2  1  0
 23  6  1  0
 19 15  2  0
M  END
>  <energy_score>  (640) 
-31.894201

>  <alias>  (640) 
None

>  <HIPPO Pose ID>  (640) 
70003

>  <smiles>  (640) 
Cc1ccnc2c(Cl)ccc(NC(=O)c3sccc3C(C)C)c12

>  <inchikey>  (640) 
FRBWHNLIACVRCA-UHFFFAOYSA-N

>  <distance_score>  (640) 
1.310709

>  <ref_mols>  (640) 
Z0719a,Z1688a

>  <ref_pdb>  (640) 
Z0719a

>  <HIPPO Compound ID>  (640) 
139911

>  <name>  (640) 
P70003

>  <inspiration_score>  (640) 
None

$$$$
P70004
     RDKit          3D

 23 25  0  0  0  0  0  0  0  0999 V2000
   -4.2863    5.9490  -14.8816 C   0  0  0  0  0  0  0  0  0  0  0  0
   -5.0885    5.7844  -16.1383 C   0  0  0  0  0  0  0  0  0  0  0  0
   -4.3238    6.0091  -17.2962 C   0  0  0  0  0  0  0  0  0  0  0  0
   -4.8920    5.7929  -18.5176 C   0  0  0  0  0  0  0  0  0  0  0  0
   -6.1480    5.3734  -18.6471 N   0  0  0  0  0  0  0  0  0  0  0  0
   -6.9269    5.1711  -17.5696 C   0  0  0  0  0  0  0  0  0  0  0  0
   -8.2028    4.6444  -17.8051 C   0  0  0  0  0  0  0  0  0  0  0  0
   -8.6686    4.0495  -19.3341 Cl  0  0  0  0  0  0  0  0  0  0  0  0
   -9.1490    4.4484  -16.8235 C   0  0  0  0  0  0  0  0  0  0  0  0
   -8.7804    4.6912  -15.5362 C   0  0  0  0  0  0  0  0  0  0  0  0
   -7.4938    5.1537  -15.2312 C   0  0  0  0  0  0  0  0  0  0  0  0
   -7.3252    5.0630  -13.8663 N   0  0  0  0  0  0  0  0  0  0  0  0
   -6.6039    5.9971  -12.8860 C   0  0  0  0  0  0  0  0  0  0  0  0
   -6.1016    7.0326  -13.0608 O   0  0  0  0  0  0  0  0  0  0  0  0
   -6.5704    5.2676  -11.6313 C   0  0  0  0  0  0  0  0  0  0  0  0
   -6.9984    6.0729  -10.1936 S   0  0  0  0  0  0  0  0  0  0  0  0
   -6.9971    4.5985   -9.3351 C   0  0  0  0  0  0  0  0  0  0  0  0
   -6.5973    3.5353  -10.1175 C   0  0  0  0  0  0  0  0  0  0  0  0
   -6.2785    3.9115  -11.4576 C   0  0  0  0  0  0  0  0  0  0  0  0
   -5.7793    2.9494  -12.5234 C   0  0  0  0  0  0  0  0  0  0  0  0
   -6.7765    2.1298  -12.9575 F   0  0  0  0  0  0  0  0  0  0  0  0
   -4.7837    2.1526  -12.0607 F   0  0  0  0  0  0  0  0  0  0  0  0
   -6.4923    5.4189  -16.2392 C   0  0  0  0  0  0  0  0  0  0  0  0
  1  2  1  0
  2  3  2  0
  3  4  1  0
  4  5  2  0
  5  6  1  0
  6  7  2  0
  7  8  1  0
  7  9  1  0
  9 10  2  0
 10 11  1  0
 11 12  1  0
 12 13  1  0
 13 14  2  0
 13 15  1  0
 15 16  1  0
 16 17  1  0
 17 18  2  0
 18 19  1  0
 19 20  1  0
 20 21  1  0
 20 22  1  0
 11 23  2  0
 23  2  1  0
 23  6  1  0
 19 15  2  0
M  END
>  <energy_score>  (641) 
-7.080107

>  <alias>  (641) 
None

>  <HIPPO Pose ID>  (641) 
70004

>  <smiles>  (641) 
Cc1ccnc2c(Cl)ccc(NC(=O)c3sccc3C(F)F)c12

>  <inchikey>  (641) 
BMCFFLWUQPXZLG-UHFFFAOYSA-N

>  <distance_score>  (641) 
1.181506

>  <ref_mols>  (641) 
Z1688a,Z0719a

>  <ref_pdb>  (641) 
Z0719a

>  <HIPPO Compound ID>  (641) 
139921

>  <name>  (641) 
P70004

>  <inspiration_score>  (641) 
None

$$$$
P70005
     RDKit          3D

 23 25  0  0  0  0  0  0  0  0999 V2000
   -6.6862    1.7582  -13.3981 N   0  0  0  0  0  0  0  0  0  0  0  0
   -5.8823    2.3305  -12.7889 C   0  0  0  0  0  0  0  0  0  0  0  0
   -4.8700    3.0430  -12.0000 C   0  0  0  0  0  0  0  0  0  0  0  0
   -5.4747    4.2238  -11.2608 C   0  0  0  0  0  0  0  0  0  0  0  0
   -6.1865    4.1372  -10.0206 C   0  0  0  0  0  0  0  0  0  0  0  0
   -6.6536    5.3577   -9.5801 C   0  0  0  0  0  0  0  0  0  0  0  0
   -6.2411    6.6301  -10.6434 S   0  0  0  0  0  0  0  0  0  0  0  0
   -5.5210    5.5321  -11.7308 C   0  0  0  0  0  0  0  0  0  0  0  0
   -5.3087    5.9407  -13.1041 C   0  0  0  0  0  0  0  0  0  0  0  0
   -4.3946    6.5402  -13.5082 O   0  0  0  0  0  0  0  0  0  0  0  0
   -6.4977    5.3095  -13.8508 N   0  0  0  0  0  0  0  0  0  0  0  0
   -6.8526    5.3611  -15.1981 C   0  0  0  0  0  0  0  0  0  0  0  0
   -8.2446    5.2842  -15.3663 C   0  0  0  0  0  0  0  0  0  0  0  0
   -9.3559    5.9313  -13.9784 Br  0  0  0  0  0  0  0  0  0  0  0  0
   -8.8112    4.8892  -16.5512 C   0  0  0  0  0  0  0  0  0  0  0  0
   -7.9704    4.6990  -17.6322 C   0  0  0  0  0  0  0  0  0  0  0  0
   -8.7301    4.1156  -19.0552 Cl  0  0  0  0  0  0  0  0  0  0  0  0
   -6.5945    4.9638  -17.5744 C   0  0  0  0  0  0  0  0  0  0  0  0
   -5.8528    4.9055  -18.6954 N   0  0  0  0  0  0  0  0  0  0  0  0
   -4.5283    5.1100  -18.6394 C   0  0  0  0  0  0  0  0  0  0  0  0
   -3.8577    5.3447  -17.4664 C   0  0  0  0  0  0  0  0  0  0  0  0
   -4.6038    5.3981  -16.2983 C   0  0  0  0  0  0  0  0  0  0  0  0
   -6.0073    5.2662  -16.3197 C   0  0  0  0  0  0  0  0  0  0  0  0
  1  2  3  0
  2  3  1  0
  3  4  1  0
  4  5  1  0
  5  6  2  0
  6  7  1  0
  7  8  1  0
  8  9  1  0
  9 10  2  0
  9 11  1  0
 11 12  1  0
 12 13  2  0
 13 14  1  0
 13 15  1  0
 15 16  2  0
 16 17  1  0
 16 18  1  0
 18 19  2  0
 19 20  1  0
 20 21  2  0
 21 22  1  0
 22 23  2  0
  8  4  2  0
 23 12  1  0
 23 18  1  0
M  END
>  <energy_score>  (642) 
-1.441847

>  <alias>  (642) 
None

>  <HIPPO Pose ID>  (642) 
70005

>  <smiles>  (642) 
N#CCc1ccsc1C(=O)Nc1c(Br)cc(Cl)c2ncccc12

>  <inchikey>  (642) 
QQSFLKQQZJPFQG-UHFFFAOYSA-N

>  <distance_score>  (642) 
1.361761

>  <ref_mols>  (642) 
Z0719a,Z1688a

>  <ref_pdb>  (642) 
Z0719a

>  <HIPPO Compound ID>  (642) 
139923

>  <name>  (642) 
P70005

>  <inspiration_score>  (642) 
None

$$$$
P70006
     RDKit          3D

 23 25  0  0  0  0  0  0  0  0999 V2000
   -4.0131    5.0081  -15.0251 C   0  0  0  0  0  0  0  0  0  0  0  0
   -4.9216    5.3697  -16.1647 C   0  0  0  0  0  0  0  0  0  0  0  0
   -4.2439    5.7442  -17.3323 C   0  0  0  0  0  0  0  0  0  0  0  0
   -4.9425    5.7804  -18.5071 C   0  0  0  0  0  0  0  0  0  0  0  0
   -6.2326    5.4454  -18.5817 N   0  0  0  0  0  0  0  0  0  0  0  0
   -6.9188    5.1121  -17.4714 C   0  0  0  0  0  0  0  0  0  0  0  0
   -8.2274    4.6367  -17.6181 C   0  0  0  0  0  0  0  0  0  0  0  0
   -8.8878    4.2201  -19.1400 Cl  0  0  0  0  0  0  0  0  0  0  0  0
   -9.0620    4.3713  -16.5523 C   0  0  0  0  0  0  0  0  0  0  0  0
   -8.5712    4.5400  -15.2885 C   0  0  0  0  0  0  0  0  0  0  0  0
   -7.2471    4.9482  -15.0820 C   0  0  0  0  0  0  0  0  0  0  0  0
   -7.0105    5.0496  -13.7201 N   0  0  0  0  0  0  0  0  0  0  0  0
   -6.0509    5.9627  -12.9367 C   0  0  0  0  0  0  0  0  0  0  0  0
   -5.3625    6.8282  -13.3042 O   0  0  0  0  0  0  0  0  0  0  0  0
   -6.1538    5.5108  -11.5630 C   0  0  0  0  0  0  0  0  0  0  0  0
   -6.9091    6.5489  -10.4382 S   0  0  0  0  0  0  0  0  0  0  0  0
   -7.0940    5.2665   -9.3300 C   0  0  0  0  0  0  0  0  0  0  0  0
   -6.5031    4.1041   -9.7755 C   0  0  0  0  0  0  0  0  0  0  0  0
   -5.8839    4.2403  -11.0596 C   0  0  0  0  0  0  0  0  0  0  0  0
   -5.1142    3.1257  -11.7520 C   0  0  0  0  0  0  0  0  0  0  0  0
   -5.9648    2.3314  -12.6453 C   0  0  0  0  0  0  0  0  0  0  0  0
   -6.6473    1.7044  -13.3424 N   0  0  0  0  0  0  0  0  0  0  0  0
   -6.3496    5.1831  -16.1743 C   0  0  0  0  0  0  0  0  0  0  0  0
  1  2  1  0
  2  3  2  0
  3  4  1  0
  4  5  2  0
  5  6  1  0
  6  7  2  0
  7  8  1  0
  7  9  1  0
  9 10  2  0
 10 11  1  0
 11 12  1  0
 12 13  1  0
 13 14  2  0
 13 15  1  0
 15 16  1  0
 16 17  1  0
 17 18  2  0
 18 19  1  0
 19 20  1  0
 20 21  1  0
 21 22  3  0
 11 23  2  0
 23  2  1  0
 23  6  1  0
 19 15  2  0
M  END
>  <energy_score>  (643) 
-8.526058

>  <alias>  (643) 
None

>  <HIPPO Pose ID>  (643) 
70006

>  <smiles>  (643) 
Cc1ccnc2c(Cl)ccc(NC(=O)c3sccc3CC#N)c12

>  <inchikey>  (643) 
FPQSRCMJZBCULS-UHFFFAOYSA-N

>  <distance_score>  (643) 
1.192564

>  <ref_mols>  (643) 
Z1688a,Z0719a

>  <ref_pdb>  (643) 
Z0719a

>  <HIPPO Compound ID>  (643) 
139924

>  <name>  (643) 
P70006

>  <inspiration_score>  (643) 
None

$$$$
P70007
     RDKit          3D

 23 25  0  0  0  0  0  0  0  0999 V2000
   -4.1571    5.4430  -13.5900 O   0  0  0  0  0  0  0  0  0  0  0  0
   -5.2346    5.2560  -13.1886 C   0  0  0  0  0  0  0  0  0  0  0  0
   -6.5956    5.3312  -13.9070 N   0  0  0  0  0  0  0  0  0  0  0  0
   -6.9015    5.5521  -15.2516 C   0  0  0  0  0  0  0  0  0  0  0  0
   -8.2900    5.4646  -15.4408 C   0  0  0  0  0  0  0  0  0  0  0  0
   -9.4255    6.0964  -14.0632 Br  0  0  0  0  0  0  0  0  0  0  0  0
   -8.8243    4.9791  -16.6077 C   0  0  0  0  0  0  0  0  0  0  0  0
   -7.9555    4.7234  -17.6553 C   0  0  0  0  0  0  0  0  0  0  0  0
   -8.6754    4.0566  -19.0612 Cl  0  0  0  0  0  0  0  0  0  0  0  0
   -6.5902    5.0405  -17.5937 C   0  0  0  0  0  0  0  0  0  0  0  0
   -5.8150    4.9223  -18.6869 N   0  0  0  0  0  0  0  0  0  0  0  0
   -4.5225    5.2839  -18.6373 C   0  0  0  0  0  0  0  0  0  0  0  0
   -3.9275    5.7922  -17.5095 C   0  0  0  0  0  0  0  0  0  0  0  0
   -4.7066    5.9071  -16.3688 C   0  0  0  0  0  0  0  0  0  0  0  0
   -6.0531    5.4997  -16.3656 C   0  0  0  0  0  0  0  0  0  0  0  0
   -5.5894    4.7884  -11.8715 C   0  0  0  0  0  0  0  0  0  0  0  0
   -6.0390    5.8725  -10.6364 S   0  0  0  0  0  0  0  0  0  0  0  0
   -6.8542    4.6178   -9.7922 C   0  0  0  0  0  0  0  0  0  0  0  0
   -6.7716    3.4015  -10.4445 C   0  0  0  0  0  0  0  0  0  0  0  0
   -5.9876    3.4832  -11.6302 C   0  0  0  0  0  0  0  0  0  0  0  0
   -5.7740    2.4259  -12.6009 N   0  0  0  0  0  0  0  0  0  0  0  0
   -6.7498    1.7279  -12.9002 O   0  0  0  0  0  0  0  0  0  0  0  0
   -4.6364    2.3331  -13.0761 O   0  0  0  0  0  0  0  0  0  0  0  0
  1  2  2  0
  2  3  1  0
  3  4  1  0
  4  5  2  0
  5  6  1  0
  5  7  1  0
  7  8  2  0
  8  9  1  0
  8 10  1  0
 10 11  2  0
 11 12  1  0
 12 13  2  0
 13 14  1  0
 14 15  2  0
  2 16  1  0
 16 17  1  0
 17 18  1  0
 18 19  2  0
 19 20  1  0
 20 21  1  0
 21 22  2  0
 21 23  1  0
 15  4  1  0
 20 16  2  0
 15 10  1  0
M  CHG  2  21   1  23  -1
M  END
>  <energy_score>  (644) 
-6.461452

>  <alias>  (644) 
None

>  <HIPPO Pose ID>  (644) 
70007

>  <smiles>  (644) 
O=C(Nc1c(Br)cc(Cl)c2ncccc12)c1sccc1[N+](=O)[O-]

>  <inchikey>  (644) 
IHWSLJOGAVZPDB-UHFFFAOYSA-N

>  <distance_score>  (644) 
1.40159

>  <ref_mols>  (644) 
Z0719a,Z1688a

>  <ref_pdb>  (644) 
Z0719a

>  <HIPPO Compound ID>  (644) 
139930

>  <name>  (644) 
P70007

>  <inspiration_score>  (644) 
None

$$$$
P70008
     RDKit          3D

 23 25  0  0  0  0  0  0  0  0999 V2000
   -4.1497    5.0696  -14.9366 C   0  0  0  0  0  0  0  0  0  0  0  0
   -5.0027    5.3682  -16.1353 C   0  0  0  0  0  0  0  0  0  0  0  0
   -4.2615    5.7417  -17.2656 C   0  0  0  0  0  0  0  0  0  0  0  0
   -4.8893    5.7676  -18.4787 C   0  0  0  0  0  0  0  0  0  0  0  0
   -6.1716    5.4306  -18.6240 N   0  0  0  0  0  0  0  0  0  0  0  0
   -6.9209    5.1039  -17.5532 C   0  0  0  0  0  0  0  0  0  0  0  0
   -8.2195    4.6314  -17.7806 C   0  0  0  0  0  0  0  0  0  0  0  0
   -8.7423    4.1179  -19.3190 Cl  0  0  0  0  0  0  0  0  0  0  0  0
   -9.1422    4.4034  -16.7831 C   0  0  0  0  0  0  0  0  0  0  0  0
   -8.7283    4.5498  -15.4948 C   0  0  0  0  0  0  0  0  0  0  0  0
   -7.4043    4.8999  -15.2033 C   0  0  0  0  0  0  0  0  0  0  0  0
   -7.2277    4.8275  -13.8376 N   0  0  0  0  0  0  0  0  0  0  0  0
   -6.3459    5.6656  -12.8981 C   0  0  0  0  0  0  0  0  0  0  0  0
   -5.6862    6.6006  -13.1158 O   0  0  0  0  0  0  0  0  0  0  0  0
   -6.4331    5.0191  -11.6067 C   0  0  0  0  0  0  0  0  0  0  0  0
   -6.8746    5.9472  -10.2426 S   0  0  0  0  0  0  0  0  0  0  0  0
   -7.0957    4.5284   -9.3107 C   0  0  0  0  0  0  0  0  0  0  0  0
   -6.7703    3.3814  -10.0080 C   0  0  0  0  0  0  0  0  0  0  0  0
   -6.3193    3.6665  -11.3233 C   0  0  0  0  0  0  0  0  0  0  0  0
   -5.8923    2.6783  -12.2934 N   0  0  0  0  0  0  0  0  0  0  0  0
   -6.7831    2.0194  -12.8460 O   0  0  0  0  0  0  0  0  0  0  0  0
   -4.6780    2.6090  -12.5127 O   0  0  0  0  0  0  0  0  0  0  0  0
   -6.4307    5.1669  -16.2255 C   0  0  0  0  0  0  0  0  0  0  0  0
  1  2  1  0
  2  3  2  0
  3  4  1  0
  4  5  2  0
  5  6  1  0
  6  7  2  0
  7  8  1  0
  7  9  1  0
  9 10  2  0
 10 11  1  0
 11 12  1  0
 12 13  1  0
 13 14  2  0
 13 15  1  0
 15 16  1  0
 16 17  1  0
 17 18  2  0
 18 19  1  0
 19 20  1  0
 20 21  2  0
 20 22  1  0
 11 23  2  0
 23  2  1  0
 23  6  1  0
 19 15  2  0
M  CHG  2  20   1  22  -1
M  END
>  <energy_score>  (645) 
-34.111612

>  <alias>  (645) 
None

>  <HIPPO Pose ID>  (645) 
70008

>  <smiles>  (645) 
Cc1ccnc2c(Cl)ccc(NC(=O)c3sccc3[N+](=O)[O-])c12

>  <inchikey>  (645) 
QOFRUAOQQZWLPI-UHFFFAOYSA-N

>  <distance_score>  (645) 
1.225976

>  <ref_mols>  (645) 
Z1688a,Z0719a

>  <ref_pdb>  (645) 
Z0719a

>  <HIPPO Compound ID>  (645) 
139931

>  <name>  (645) 
P70008

>  <inspiration_score>  (645) 
None

$$$$
P70009
     RDKit          3D

 23 25  0  0  0  0  0  0  0  0999 V2000
   -5.3291    2.2970  -13.3050 C   0  0  0  0  0  0  0  0  0  0  0  0
   -5.4640    2.9792  -11.9598 C   0  0  0  0  0  0  0  0  0  0  0  0
   -6.5895    3.8477  -12.0662 O   0  0  0  0  0  0  0  0  0  0  0  0
   -6.7081    4.8208  -11.1300 C   0  0  0  0  0  0  0  0  0  0  0  0
   -6.2281    4.8246   -9.8027 C   0  0  0  0  0  0  0  0  0  0  0  0
   -6.5544    5.9913   -9.1420 C   0  0  0  0  0  0  0  0  0  0  0  0
   -7.4562    7.0636  -10.1294 S   0  0  0  0  0  0  0  0  0  0  0  0
   -7.4246    5.9651  -11.4330 C   0  0  0  0  0  0  0  0  0  0  0  0
   -8.1063    6.2624  -12.6890 C   0  0  0  0  0  0  0  0  0  0  0  0
   -9.1610    6.7629  -12.7269 O   0  0  0  0  0  0  0  0  0  0  0  0
   -7.2213    5.7036  -13.8265 N   0  0  0  0  0  0  0  0  0  0  0  0
   -7.4774    5.5635  -15.1755 C   0  0  0  0  0  0  0  0  0  0  0  0
   -8.7900    5.2218  -15.4834 C   0  0  0  0  0  0  0  0  0  0  0  0
   -9.0987    4.7479  -16.7349 C   0  0  0  0  0  0  0  0  0  0  0  0
   -8.0885    4.6513  -17.6790 C   0  0  0  0  0  0  0  0  0  0  0  0
   -8.5624    3.9994  -19.1888 Cl  0  0  0  0  0  0  0  0  0  0  0  0
   -6.7662    5.0412  -17.4283 C   0  0  0  0  0  0  0  0  0  0  0  0
   -5.8480    4.9473  -18.4111 N   0  0  0  0  0  0  0  0  0  0  0  0
   -4.5828    5.3224  -18.1917 C   0  0  0  0  0  0  0  0  0  0  0  0
   -4.1496    5.8247  -16.9902 C   0  0  0  0  0  0  0  0  0  0  0  0
   -5.0718    5.9557  -15.9470 C   0  0  0  0  0  0  0  0  0  0  0  0
   -4.5552    6.5849  -14.6799 C   0  0  0  0  0  0  0  0  0  0  0  0
   -6.4294    5.5238  -16.1406 C   0  0  0  0  0  0  0  0  0  0  0  0
  1  2  1  0
  2  3  1  0
  3  4  1  0
  4  5  1  0
  5  6  2  0
  6  7  1  0
  7  8  1  0
  8  9  1  0
  9 10  2  0
  9 11  1  0
 11 12  1  0
 12 13  2  0
 13 14  1  0
 14 15  2  0
 15 16  1  0
 15 17  1  0
 17 18  2  0
 18 19  1  0
 19 20  2  0
 20 21  1  0
 21 22  1  0
 21 23  2  0
  8  4  2  0
 23 12  1  0
 23 17  1  0
M  END
>  <energy_score>  (646) 
-32.967188

>  <alias>  (646) 
None

>  <HIPPO Pose ID>  (646) 
70009

>  <smiles>  (646) 
CCOc1ccsc1C(=O)Nc1ccc(Cl)c2nccc(C)c12

>  <inchikey>  (646) 
KZXUDWIOSUHCPP-UHFFFAOYSA-N

>  <distance_score>  (646) 
1.222671

>  <ref_mols>  (646) 
Z0719a,Z1688a

>  <ref_pdb>  (646) 
Z0719a

>  <HIPPO Compound ID>  (646) 
139937

>  <name>  (646) 
P70009

>  <inspiration_score>  (646) 
None

$$$$
P70010
     RDKit          3D

 23 25  0  0  0  0  0  0  0  0999 V2000
   -7.0863    2.3812  -13.0153 C   0  0  0  0  0  0  0  0  0  0  0  0
   -5.6971    2.6146  -13.1910 O   0  0  0  0  0  0  0  0  0  0  0  0
   -5.0200    2.8203  -11.9456 C   0  0  0  0  0  0  0  0  0  0  0  0
   -5.4054    4.1210  -11.2747 C   0  0  0  0  0  0  0  0  0  0  0  0
   -6.1034    4.2418  -10.0326 C   0  0  0  0  0  0  0  0  0  0  0  0
   -6.4125    5.5484   -9.7180 C   0  0  0  0  0  0  0  0  0  0  0  0
   -5.8751    6.6468  -10.9153 S   0  0  0  0  0  0  0  0  0  0  0  0
   -5.2744    5.3676  -11.8685 C   0  0  0  0  0  0  0  0  0  0  0  0
   -5.0166    5.5290  -13.2843 C   0  0  0  0  0  0  0  0  0  0  0  0
   -3.9635    5.4825  -13.7847 O   0  0  0  0  0  0  0  0  0  0  0  0
   -6.4188    5.6594  -13.9144 N   0  0  0  0  0  0  0  0  0  0  0  0
   -6.8163    5.6640  -15.2558 C   0  0  0  0  0  0  0  0  0  0  0  0
   -8.2043    5.4737  -15.3787 C   0  0  0  0  0  0  0  0  0  0  0  0
   -9.3351    6.0133  -13.9604 Br  0  0  0  0  0  0  0  0  0  0  0  0
   -8.7642    4.9527  -16.5220 C   0  0  0  0  0  0  0  0  0  0  0  0
   -7.9330    4.7239  -17.6059 C   0  0  0  0  0  0  0  0  0  0  0  0
   -8.6933    4.0544  -18.9924 Cl  0  0  0  0  0  0  0  0  0  0  0  0
   -6.5766    5.0777  -17.5974 C   0  0  0  0  0  0  0  0  0  0  0  0
   -5.8333    4.9454  -18.7109 N   0  0  0  0  0  0  0  0  0  0  0  0
   -4.5552    5.3583  -18.7183 C   0  0  0  0  0  0  0  0  0  0  0  0
   -3.9455    5.9360  -17.6325 C   0  0  0  0  0  0  0  0  0  0  0  0
   -4.6916    6.0657  -16.4721 C   0  0  0  0  0  0  0  0  0  0  0  0
   -6.0158    5.5976  -16.4043 C   0  0  0  0  0  0  0  0  0  0  0  0
  1  2  1  0
  2  3  1  0
  3  4  1  0
  4  5  1  0
  5  6  2  0
  6  7  1  0
  7  8  1  0
  8  9  1  0
  9 10  2  0
  9 11  1  0
 11 12  1  0
 12 13  2  0
 13 14  1  0
 13 15  1  0
 15 16  2  0
 16 17  1  0
 16 18  1  0
 18 19  2  0
 19 20  1  0
 20 21  2  0
 21 22  1  0
 22 23  2  0
  8  4  2  0
 23 12  1  0
 23 18  1  0
M  END
>  <energy_score>  (647) 
-33.527833

>  <alias>  (647) 
None

>  <HIPPO Pose ID>  (647) 
70010

>  <smiles>  (647) 
COCc1ccsc1C(=O)Nc1c(Br)cc(Cl)c2ncccc12

>  <inchikey>  (647) 
QGRZUDSQTSTNKW-UHFFFAOYSA-N

>  <distance_score>  (647) 
1.457222

>  <ref_mols>  (647) 
Z1688a,Z0719a

>  <ref_pdb>  (647) 
Z0719a

>  <HIPPO Compound ID>  (647) 
139993

>  <name>  (647) 
P70010

>  <inspiration_score>  (647) 
None

$$$$
P70011
     RDKit          3D

 23 25  0  0  0  0  0  0  0  0999 V2000
   -6.8138    2.0962  -12.6131 C   0  0  0  0  0  0  0  0  0  0  0  0
   -5.7563    2.9719  -12.9632 O   0  0  0  0  0  0  0  0  0  0  0  0
   -5.0772    3.5035  -11.8285 C   0  0  0  0  0  0  0  0  0  0  0  0
   -5.8509    4.6036  -11.1181 C   0  0  0  0  0  0  0  0  0  0  0  0
   -6.4036    4.4500   -9.8064 C   0  0  0  0  0  0  0  0  0  0  0  0
   -7.0262    5.5870   -9.3435 C   0  0  0  0  0  0  0  0  0  0  0  0
   -6.9439    6.8673  -10.4658 S   0  0  0  0  0  0  0  0  0  0  0  0
   -6.2001    5.8561  -11.6266 C   0  0  0  0  0  0  0  0  0  0  0  0
   -6.1637    6.3205  -13.0082 C   0  0  0  0  0  0  0  0  0  0  0  0
   -5.7045    7.3338  -13.3561 O   0  0  0  0  0  0  0  0  0  0  0  0
   -6.8557    5.2111  -13.8151 N   0  0  0  0  0  0  0  0  0  0  0  0
   -7.2004    5.1548  -15.1481 C   0  0  0  0  0  0  0  0  0  0  0  0
   -8.5101    4.6796  -15.2956 C   0  0  0  0  0  0  0  0  0  0  0  0
   -9.0199    4.4410  -16.5410 C   0  0  0  0  0  0  0  0  0  0  0  0
   -8.2095    4.6738  -17.6362 C   0  0  0  0  0  0  0  0  0  0  0  0
   -8.8884    4.1791  -19.1282 Cl  0  0  0  0  0  0  0  0  0  0  0  0
   -6.9073    5.1839  -17.5398 C   0  0  0  0  0  0  0  0  0  0  0  0
   -6.2313    5.4262  -18.6777 N   0  0  0  0  0  0  0  0  0  0  0  0
   -4.9514    5.8045  -18.6390 C   0  0  0  0  0  0  0  0  0  0  0  0
   -4.2547    5.9263  -17.4679 C   0  0  0  0  0  0  0  0  0  0  0  0
   -4.9155    5.6577  -16.2627 C   0  0  0  0  0  0  0  0  0  0  0  0
   -4.0093    5.5974  -15.0660 C   0  0  0  0  0  0  0  0  0  0  0  0
   -6.3297    5.3788  -16.2598 C   0  0  0  0  0  0  0  0  0  0  0  0
  1  2  1  0
  2  3  1  0
  3  4  1  0
  4  5  1  0
  5  6  2  0
  6  7  1  0
  7  8  1  0
  8  9  1  0
  9 10  2  0
  9 11  1  0
 11 12  1  0
 12 13  2  0
 13 14  1  0
 14 15  2  0
 15 16  1  0
 15 17  1  0
 17 18  2  0
 18 19  1  0
 19 20  2  0
 20 21  1  0
 21 22  1  0
 21 23  2  0
  8  4  2  0
 23 12  1  0
 23 17  1  0
M  END
>  <energy_score>  (648) 
-10.887206

>  <alias>  (648) 
None

>  <HIPPO Pose ID>  (648) 
70011

>  <smiles>  (648) 
COCc1ccsc1C(=O)Nc1ccc(Cl)c2nccc(C)c12

>  <inchikey>  (648) 
UMNFQCQYAZJFEA-UHFFFAOYSA-N

>  <distance_score>  (648) 
1.189272

>  <ref_mols>  (648) 
Z0719a,Z1688a

>  <ref_pdb>  (648) 
Z0719a

>  <HIPPO Compound ID>  (648) 
139994

>  <name>  (648) 
P70011

>  <inspiration_score>  (648) 
None

$$$$
P70012
     RDKit          3D

 23 25  0  0  0  0  0  0  0  0999 V2000
   -8.0753    3.8440   -7.9484 C   0  0  0  0  0  0  0  0  0  0  0  0
   -7.4734    3.8691   -9.3109 C   0  0  0  0  0  0  0  0  0  0  0  0
   -6.9384    2.8117  -10.0142 C   0  0  0  0  0  0  0  0  0  0  0  0
   -6.4475    3.1916  -11.3040 C   0  0  0  0  0  0  0  0  0  0  0  0
   -5.8452    2.2163  -12.2856 C   0  0  0  0  0  0  0  0  0  0  0  0
   -6.7949    1.7580  -13.2453 O   0  0  0  0  0  0  0  0  0  0  0  0
   -6.6448    4.5571  -11.4960 C   0  0  0  0  0  0  0  0  0  0  0  0
   -6.4738    5.3218  -12.7159 C   0  0  0  0  0  0  0  0  0  0  0  0
   -5.8496    6.3006  -12.8043 O   0  0  0  0  0  0  0  0  0  0  0  0
   -7.2118    4.5125  -13.7891 N   0  0  0  0  0  0  0  0  0  0  0  0
   -7.4121    4.7727  -15.1302 C   0  0  0  0  0  0  0  0  0  0  0  0
   -8.7493    4.5092  -15.4439 C   0  0  0  0  0  0  0  0  0  0  0  0
   -9.1576    4.4244  -16.7403 C   0  0  0  0  0  0  0  0  0  0  0  0
   -8.2136    4.6277  -17.7228 C   0  0  0  0  0  0  0  0  0  0  0  0
   -8.7295    4.1442  -19.2759 Cl  0  0  0  0  0  0  0  0  0  0  0  0
   -6.9030    5.0504  -17.4686 C   0  0  0  0  0  0  0  0  0  0  0  0
   -6.1326    5.3632  -18.5276 N   0  0  0  0  0  0  0  0  0  0  0  0
   -4.8484    5.6810  -18.3630 C   0  0  0  0  0  0  0  0  0  0  0  0
   -4.2419    5.6562  -17.1384 C   0  0  0  0  0  0  0  0  0  0  0  0
   -5.0006    5.2933  -16.0145 C   0  0  0  0  0  0  0  0  0  0  0  0
   -4.1801    5.1065  -14.7725 C   0  0  0  0  0  0  0  0  0  0  0  0
   -6.4255    5.0775  -16.1315 C   0  0  0  0  0  0  0  0  0  0  0  0
   -7.3414    5.3386  -10.1575 S   0  0  0  0  0  0  0  0  0  0  0  0
  1  2  1  0
  2  3  2  0
  3  4  1  0
  4  5  1  0
  5  6  1  0
  4  7  2  0
  7  8  1  0
  8  9  2  0
  8 10  1  0
 10 11  1  0
 11 12  2  0
 12 13  1  0
 13 14  2  0
 14 15  1  0
 14 16  1  0
 16 17  2  0
 17 18  1  0
 18 19  2  0
 19 20  1  0
 20 21  1  0
 20 22  2  0
  7 23  1  0
 23  2  1  0
 22 11  1  0
 22 16  1  0
M  END
>  <energy_score>  (649) 
-16.789027

>  <alias>  (649) 
None

>  <HIPPO Pose ID>  (649) 
70012

>  <smiles>  (649) 
Cc1cc(CO)c(C(=O)Nc2ccc(Cl)c3nccc(C)c23)s1

>  <inchikey>  (649) 
KEWSBRXPTATOKC-UHFFFAOYSA-N

>  <distance_score>  (649) 
1.342961

>  <ref_mols>  (649) 
Z0719a,Z1688a

>  <ref_pdb>  (649) 
Z0719a

>  <HIPPO Compound ID>  (649) 
140027

>  <name>  (649) 
P70012

>  <inspiration_score>  (649) 
None

$$$$
P70013
     RDKit          3D

 24 26  0  0  0  0  0  0  0  0999 V2000
   -6.0148    2.5279  -13.3694 C   0  0  0  0  0  0  0  0  0  0  0  0
   -6.5329    3.5929  -12.5094 N   0  0  0  0  0  0  0  0  0  0  0  0
   -7.6587    3.0720  -11.7193 C   0  0  0  0  0  0  0  0  0  0  0  0
   -5.4609    4.0991  -11.6373 C   0  0  0  0  0  0  0  0  0  0  0  0
   -5.8336    5.4701  -11.1165 C   0  0  0  0  0  0  0  0  0  0  0  0
   -6.3337    5.7061   -9.7980 C   0  0  0  0  0  0  0  0  0  0  0  0
   -6.5169    7.0433   -9.5276 C   0  0  0  0  0  0  0  0  0  0  0  0
   -6.1341    8.0257  -10.8696 S   0  0  0  0  0  0  0  0  0  0  0  0
   -5.7521    6.6661  -11.8321 C   0  0  0  0  0  0  0  0  0  0  0  0
   -5.5486    6.8494  -13.2740 C   0  0  0  0  0  0  0  0  0  0  0  0
   -4.8435    7.6475  -13.7488 O   0  0  0  0  0  0  0  0  0  0  0  0
   -6.5167    5.8555  -13.9351 N   0  0  0  0  0  0  0  0  0  0  0  0
   -6.8821    5.7001  -15.2652 C   0  0  0  0  0  0  0  0  0  0  0  0
   -8.2496    5.4229  -15.4118 C   0  0  0  0  0  0  0  0  0  0  0  0
   -9.4217    5.9599  -14.0297 Br  0  0  0  0  0  0  0  0  0  0  0  0
   -8.7634    4.9042  -16.5746 C   0  0  0  0  0  0  0  0  0  0  0  0
   -7.8965    4.7373  -17.6425 C   0  0  0  0  0  0  0  0  0  0  0  0
   -8.5979    4.0590  -19.0554 Cl  0  0  0  0  0  0  0  0  0  0  0  0
   -6.5390    5.0974  -17.5835 C   0  0  0  0  0  0  0  0  0  0  0  0
   -5.7478    4.9662  -18.6645 N   0  0  0  0  0  0  0  0  0  0  0  0
   -4.4415    5.2701  -18.5817 C   0  0  0  0  0  0  0  0  0  0  0  0
   -3.8348    5.6854  -17.4208 C   0  0  0  0  0  0  0  0  0  0  0  0
   -4.6286    5.8199  -16.2932 C   0  0  0  0  0  0  0  0  0  0  0  0
   -6.0128    5.5707  -16.3559 C   0  0  0  0  0  0  0  0  0  0  0  0
  1  2  1  0
  2  3  1  0
  2  4  1  0
  4  5  1  0
  5  6  1  0
  6  7  2  0
  7  8  1  0
  8  9  1  0
  9 10  1  0
 10 11  2  0
 10 12  1  0
 12 13  1  0
 13 14  2  0
 14 15  1  0
 14 16  1  0
 16 17  2  0
 17 18  1  0
 17 19  1  0
 19 20  2  0
 20 21  1  0
 21 22  2  0
 22 23  1  0
 23 24  2  0
  9  5  2  0
 24 13  1  0
 24 19  1  0
M  END
>  <energy_score>  (650) 
-32.525711

>  <alias>  (650) 
None

>  <HIPPO Pose ID>  (650) 
70013

>  <smiles>  (650) 
CN(C)Cc1ccsc1C(=O)Nc1c(Br)cc(Cl)c2ncccc12

>  <inchikey>  (650) 
WLEGJCPUKWYOMO-UHFFFAOYSA-N

>  <distance_score>  (650) 
1.579703

>  <ref_mols>  (650) 
Z1688a,Z0719a

>  <ref_pdb>  (650) 
Z0719a

>  <HIPPO Compound ID>  (650) 
140042

>  <name>  (650) 
P70013

>  <inspiration_score>  (650) 
None

$$$$
P70014
     RDKit          3D

 24 26  0  0  0  0  0  0  0  0999 V2000
   -4.4138    6.0780  -14.6228 C   0  0  0  0  0  0  0  0  0  0  0  0
   -5.1391    5.9567  -15.9312 C   0  0  0  0  0  0  0  0  0  0  0  0
   -4.3146    6.1932  -17.0428 C   0  0  0  0  0  0  0  0  0  0  0  0
   -4.8024    5.9361  -18.2927 C   0  0  0  0  0  0  0  0  0  0  0  0
   -6.0270    5.4494  -18.4921 N   0  0  0  0  0  0  0  0  0  0  0  0
   -6.8584    5.2357  -17.4539 C   0  0  0  0  0  0  0  0  0  0  0  0
   -8.0914    4.6348  -17.7348 C   0  0  0  0  0  0  0  0  0  0  0  0
   -8.4819    4.0370  -19.2893 Cl  0  0  0  0  0  0  0  0  0  0  0  0
   -9.0532    4.3870  -16.7787 C   0  0  0  0  0  0  0  0  0  0  0  0
   -8.7668    4.7104  -15.4840 C   0  0  0  0  0  0  0  0  0  0  0  0
   -7.5521    5.3178  -15.1385 C   0  0  0  0  0  0  0  0  0  0  0  0
   -7.5419    5.5253  -13.7688 N   0  0  0  0  0  0  0  0  0  0  0  0
   -6.9113    6.6493  -12.9337 C   0  0  0  0  0  0  0  0  0  0  0  0
   -6.3641    7.6234  -13.2676 O   0  0  0  0  0  0  0  0  0  0  0  0
   -7.1183    6.3007  -11.5135 C   0  0  0  0  0  0  0  0  0  0  0  0
   -7.3207    7.6052  -10.4105 S   0  0  0  0  0  0  0  0  0  0  0  0
   -7.6367    6.5525   -9.1135 C   0  0  0  0  0  0  0  0  0  0  0  0
   -7.5468    5.2350   -9.4926 C   0  0  0  0  0  0  0  0  0  0  0  0
   -7.1884    5.0566  -10.8688 C   0  0  0  0  0  0  0  0  0  0  0  0
   -6.9741    3.6520  -11.4228 C   0  0  0  0  0  0  0  0  0  0  0  0
   -5.8771    3.6307  -12.3999 N   0  0  0  0  0  0  0  0  0  0  0  0
   -4.5769    3.6641  -11.7165 C   0  0  0  0  0  0  0  0  0  0  0  0
   -5.9519    2.4333  -13.2333 C   0  0  0  0  0  0  0  0  0  0  0  0
   -6.5161    5.5530  -16.1092 C   0  0  0  0  0  0  0  0  0  0  0  0
  1  2  1  0
  2  3  2  0
  3  4  1  0
  4  5  2  0
  5  6  1  0
  6  7  2  0
  7  8  1  0
  7  9  1  0
  9 10  2  0
 10 11  1  0
 11 12  1  0
 12 13  1  0
 13 14  2  0
 13 15  1  0
 15 16  1  0
 16 17  1  0
 17 18  2  0
 18 19  1  0
 19 20  1  0
 20 21  1  0
 21 22  1  0
 21 23  1  0
 11 24  2  0
 24  2  1  0
 24  6  1  0
 19 15  2  0
M  END
>  <energy_score>  (651) 
-42.682533

>  <alias>  (651) 
None

>  <HIPPO Pose ID>  (651) 
70014

>  <smiles>  (651) 
Cc1ccnc2c(Cl)ccc(NC(=O)c3sccc3CN(C)C)c12

>  <inchikey>  (651) 
YXPSZNWUXGYYND-UHFFFAOYSA-N

>  <distance_score>  (651) 
1.359004

>  <ref_mols>  (651) 
Z0719a,Z1688a

>  <ref_pdb>  (651) 
Z0719a

>  <HIPPO Compound ID>  (651) 
140043

>  <name>  (651) 
P70014

>  <inspiration_score>  (651) 
None

$$$$
P70015
     RDKit          3D

 24 26  0  0  0  0  0  0  0  0999 V2000
   -7.2865    7.3332  -12.4598 O   0  0  0  0  0  0  0  0  0  0  0  0
   -6.7534    6.3105  -12.6392 C   0  0  0  0  0  0  0  0  0  0  0  0
   -6.5428    5.5078  -13.9385 N   0  0  0  0  0  0  0  0  0  0  0  0
   -7.0079    5.7371  -15.2261 C   0  0  0  0  0  0  0  0  0  0  0  0
   -8.3875    5.6481  -15.4159 C   0  0  0  0  0  0  0  0  0  0  0  0
   -9.6015    6.2816  -14.1293 Br  0  0  0  0  0  0  0  0  0  0  0  0
   -8.8868    5.0854  -16.5761 C   0  0  0  0  0  0  0  0  0  0  0  0
   -8.0126    4.7668  -17.6092 C   0  0  0  0  0  0  0  0  0  0  0  0
   -8.7232    4.0684  -19.0048 Cl  0  0  0  0  0  0  0  0  0  0  0  0
   -6.6382    5.0125  -17.5263 C   0  0  0  0  0  0  0  0  0  0  0  0
   -5.8076    4.8086  -18.5683 N   0  0  0  0  0  0  0  0  0  0  0  0
   -4.4899    5.0437  -18.4290 C   0  0  0  0  0  0  0  0  0  0  0  0
   -3.9119    5.4558  -17.2496 C   0  0  0  0  0  0  0  0  0  0  0  0
   -4.7469    5.6564  -16.1630 C   0  0  0  0  0  0  0  0  0  0  0  0
   -6.1348    5.4638  -16.2909 C   0  0  0  0  0  0  0  0  0  0  0  0
   -6.2357    5.5055  -11.5307 C   0  0  0  0  0  0  0  0  0  0  0  0
   -5.7385    6.2960  -10.0918 S   0  0  0  0  0  0  0  0  0  0  0  0
   -5.5139    4.8048   -9.2836 C   0  0  0  0  0  0  0  0  0  0  0  0
   -5.8275    3.7277  -10.0839 C   0  0  0  0  0  0  0  0  0  0  0  0
   -6.1952    4.1215  -11.3915 C   0  0  0  0  0  0  0  0  0  0  0  0
   -6.6477    3.2536  -12.3387 O   0  0  0  0  0  0  0  0  0  0  0  0
   -5.6326    2.4842  -12.9749 C   0  0  0  0  0  0  0  0  0  0  0  0
   -4.4149    2.6685  -12.4140 F   0  0  0  0  0  0  0  0  0  0  0  0
   -5.5373    2.9819  -14.2347 F   0  0  0  0  0  0  0  0  0  0  0  0
  1  2  2  0
  2  3  1  0
  3  4  1  0
  4  5  2  0
  5  6  1  0
  5  7  1  0
  7  8  2  0
  8  9  1  0
  8 10  1  0
 10 11  2  0
 11 12  1  0
 12 13  2  0
 13 14  1  0
 14 15  2  0
  2 16  1  0
 16 17  1  0
 17 18  1  0
 18 19  2  0
 19 20  1  0
 20 21  1  0
 21 22  1  0
 22 23  1  0
 22 24  1  0
 15  4  1  0
 20 16  2  0
 15 10  1  0
M  END
>  <energy_score>  (652) 
-5.989713

>  <alias>  (652) 
None

>  <HIPPO Pose ID>  (652) 
70015

>  <smiles>  (652) 
O=C(Nc1c(Br)cc(Cl)c2ncccc12)c1sccc1OC(F)F

>  <inchikey>  (652) 
SVQFFLQAWSCFCP-UHFFFAOYSA-N

>  <distance_score>  (652) 
1.491057

>  <ref_mols>  (652) 
Z1688a,Z0719a

>  <ref_pdb>  (652) 
Z0719a

>  <HIPPO Compound ID>  (652) 
140054

>  <name>  (652) 
P70015

>  <inspiration_score>  (652) 
None

$$$$
P70016
     RDKit          3D

 24 26  0  0  0  0  0  0  0  0999 V2000
   -5.1206    6.6932  -14.4169 C   0  0  0  0  0  0  0  0  0  0  0  0
   -5.4239    6.2318  -15.8126 C   0  0  0  0  0  0  0  0  0  0  0  0
   -4.3887    6.4593  -16.7325 C   0  0  0  0  0  0  0  0  0  0  0  0
   -4.5708    6.0911  -18.0355 C   0  0  0  0  0  0  0  0  0  0  0  0
   -5.6980    5.5281  -18.4669 N   0  0  0  0  0  0  0  0  0  0  0  0
   -6.7180    5.2871  -17.6167 C   0  0  0  0  0  0  0  0  0  0  0  0
   -7.8397    4.6195  -18.1233 C   0  0  0  0  0  0  0  0  0  0  0  0
   -7.8111    3.9356  -19.6891 Cl  0  0  0  0  0  0  0  0  0  0  0  0
   -8.9723    4.3324  -17.3843 C   0  0  0  0  0  0  0  0  0  0  0  0
   -8.9403    4.6064  -16.0484 C   0  0  0  0  0  0  0  0  0  0  0  0
   -7.8304    5.2335  -15.4796 C   0  0  0  0  0  0  0  0  0  0  0  0
   -7.8308    5.0436  -14.1166 N   0  0  0  0  0  0  0  0  0  0  0  0
   -7.7111    6.0534  -12.9692 C   0  0  0  0  0  0  0  0  0  0  0  0
   -7.6699    7.2176  -12.9887 O   0  0  0  0  0  0  0  0  0  0  0  0
   -7.5416    5.2809  -11.7326 C   0  0  0  0  0  0  0  0  0  0  0  0
   -7.6080    6.1194  -10.2313 S   0  0  0  0  0  0  0  0  0  0  0  0
   -7.4294    4.6682   -9.3523 C   0  0  0  0  0  0  0  0  0  0  0  0
   -7.2620    3.5746  -10.1717 C   0  0  0  0  0  0  0  0  0  0  0  0
   -7.2576    3.9319  -11.5388 C   0  0  0  0  0  0  0  0  0  0  0  0
   -7.0942    3.0220  -12.5441 O   0  0  0  0  0  0  0  0  0  0  0  0
   -5.7196    2.8478  -12.8829 C   0  0  0  0  0  0  0  0  0  0  0  0
   -5.4759    3.5643  -14.0060 F   0  0  0  0  0  0  0  0  0  0  0  0
   -5.5316    1.5529  -13.2194 F   0  0  0  0  0  0  0  0  0  0  0  0
   -6.6710    5.6304  -16.2430 C   0  0  0  0  0  0  0  0  0  0  0  0
  1  2  1  0
  2  3  2  0
  3  4  1  0
  4  5  2  0
  5  6  1  0
  6  7  2  0
  7  8  1  0
  7  9  1  0
  9 10  2  0
 10 11  1  0
 11 12  1  0
 12 13  1  0
 13 14  2  0
 13 15  1  0
 15 16  1  0
 16 17  1  0
 17 18  2  0
 18 19  1  0
 19 20  1  0
 20 21  1  0
 21 22  1  0
 21 23  1  0
 11 24  2  0
 24  2  1  0
 24  6  1  0
 19 15  2  0
M  END
>  <energy_score>  (653) 
-18.112389

>  <alias>  (653) 
None

>  <HIPPO Pose ID>  (653) 
70016

>  <smiles>  (653) 
Cc1ccnc2c(Cl)ccc(NC(=O)c3sccc3OC(F)F)c12

>  <inchikey>  (653) 
QJEXFPCYDWFDSN-UHFFFAOYSA-N

>  <distance_score>  (653) 
1.198873

>  <ref_mols>  (653) 
Z0719a,Z1688a

>  <ref_pdb>  (653) 
Z0719a

>  <HIPPO Compound ID>  (653) 
140055

>  <name>  (653) 
P70016

>  <inspiration_score>  (653) 
None

$$$$
P70017
     RDKit          3D

 24 26  0  0  0  0  0  0  0  0999 V2000
   -3.4832    1.7555  -12.9684 C   0  0  0  0  0  0  0  0  0  0  0  0
   -4.1749    2.7205  -12.1814 O   0  0  0  0  0  0  0  0  0  0  0  0
   -5.4914    2.4414  -11.9567 C   0  0  0  0  0  0  0  0  0  0  0  0
   -6.0979    1.4795  -12.4092 O   0  0  0  0  0  0  0  0  0  0  0  0
   -6.0547    3.5146  -11.1685 C   0  0  0  0  0  0  0  0  0  0  0  0
   -6.9843    3.1669   -9.7848 S   0  0  0  0  0  0  0  0  0  0  0  0
   -7.3688    4.8176   -9.5601 C   0  0  0  0  0  0  0  0  0  0  0  0
   -6.7807    5.6302  -10.4999 C   0  0  0  0  0  0  0  0  0  0  0  0
   -6.0425    4.8722  -11.4585 C   0  0  0  0  0  0  0  0  0  0  0  0
   -5.6253    5.3592  -12.7652 C   0  0  0  0  0  0  0  0  0  0  0  0
   -4.6294    5.9144  -12.9993 O   0  0  0  0  0  0  0  0  0  0  0  0
   -6.7719    4.9356  -13.6946 N   0  0  0  0  0  0  0  0  0  0  0  0
   -6.9763    5.1803  -15.0535 C   0  0  0  0  0  0  0  0  0  0  0  0
   -8.3442    5.2599  -15.3446 C   0  0  0  0  0  0  0  0  0  0  0  0
   -9.4649    6.0931  -14.0647 Br  0  0  0  0  0  0  0  0  0  0  0  0
   -8.8419    4.9227  -16.5760 C   0  0  0  0  0  0  0  0  0  0  0  0
   -7.9293    4.6854  -17.5871 C   0  0  0  0  0  0  0  0  0  0  0  0
   -8.5969    4.1293  -19.0657 Cl  0  0  0  0  0  0  0  0  0  0  0  0
   -6.5523    4.8939  -17.4194 C   0  0  0  0  0  0  0  0  0  0  0  0
   -5.7336    4.8655  -18.4883 N   0  0  0  0  0  0  0  0  0  0  0  0
   -4.4137    5.0435  -18.3277 C   0  0  0  0  0  0  0  0  0  0  0  0
   -3.8259    5.2156  -17.0993 C   0  0  0  0  0  0  0  0  0  0  0  0
   -4.6508    5.2258  -15.9826 C   0  0  0  0  0  0  0  0  0  0  0  0
   -6.0499    5.1158  -16.1103 C   0  0  0  0  0  0  0  0  0  0  0  0
  1  2  1  0
  2  3  1  0
  3  4  2  0
  3  5  1  0
  5  6  1  0
  6  7  1  0
  7  8  2  0
  8  9  1  0
  9 10  1  0
 10 11  2  0
 10 12  1  0
 12 13  1  0
 13 14  2  0
 14 15  1  0
 14 16  1  0
 16 17  2  0
 17 18  1  0
 17 19  1  0
 19 20  2  0
 20 21  1  0
 21 22  2  0
 22 23  1  0
 23 24  2  0
  9  5  2  0
 24 13  1  0
 24 19  1  0
M  END
>  <energy_score>  (654) 
-8.782664

>  <alias>  (654) 
None

>  <HIPPO Pose ID>  (654) 
70017

>  <smiles>  (654) 
COC(=O)c1sccc1C(=O)Nc1c(Br)cc(Cl)c2ncccc12

>  <inchikey>  (654) 
XQFLHSGHXXIHAZ-UHFFFAOYSA-N

>  <distance_score>  (654) 
1.371816

>  <ref_mols>  (654) 
Z1688a,Z0719a

>  <ref_pdb>  (654) 
Z0719a

>  <HIPPO Compound ID>  (654) 
140062

>  <name>  (654) 
P70017

>  <inspiration_score>  (654) 
None

$$$$
P70018
     RDKit          3D

 24 26  0  0  0  0  0  0  0  0999 V2000
   -7.2449    7.0785  -12.5829 O   0  0  0  0  0  0  0  0  0  0  0  0
   -6.7020    6.0641  -12.7671 C   0  0  0  0  0  0  0  0  0  0  0  0
   -6.4538    5.2903  -14.0700 N   0  0  0  0  0  0  0  0  0  0  0  0
   -6.8857    5.5402  -15.3607 C   0  0  0  0  0  0  0  0  0  0  0  0
   -8.2728    5.5146  -15.5566 C   0  0  0  0  0  0  0  0  0  0  0  0
   -9.4988    6.0638  -14.2402 Br  0  0  0  0  0  0  0  0  0  0  0  0
   -8.7872    5.0198  -16.7361 C   0  0  0  0  0  0  0  0  0  0  0  0
   -7.9152    4.7144  -17.7712 C   0  0  0  0  0  0  0  0  0  0  0  0
   -8.6361    4.0367  -19.1648 Cl  0  0  0  0  0  0  0  0  0  0  0  0
   -6.5341    4.9301  -17.6806 C   0  0  0  0  0  0  0  0  0  0  0  0
   -5.7074    4.7707  -18.7317 N   0  0  0  0  0  0  0  0  0  0  0  0
   -4.3861    4.9802  -18.5821 C   0  0  0  0  0  0  0  0  0  0  0  0
   -3.7990    5.3192  -17.3836 C   0  0  0  0  0  0  0  0  0  0  0  0
   -4.6275    5.4693  -16.2855 C   0  0  0  0  0  0  0  0  0  0  0  0
   -6.0167    5.3038  -16.4270 C   0  0  0  0  0  0  0  0  0  0  0  0
   -6.2360    5.2955  -11.6038 C   0  0  0  0  0  0  0  0  0  0  0  0
   -6.2038    6.1523  -10.0995 S   0  0  0  0  0  0  0  0  0  0  0  0
   -6.4901    4.7276   -9.2450 C   0  0  0  0  0  0  0  0  0  0  0  0
   -6.8739    4.7321   -7.3734 Br  0  0  0  0  0  0  0  0  0  0  0  0
   -6.3959    3.5965  -10.0150 C   0  0  0  0  0  0  0  0  0  0  0  0
   -6.1591    3.9131  -11.3888 C   0  0  0  0  0  0  0  0  0  0  0  0
   -6.0071    2.9022  -12.4173 N   0  0  0  0  0  0  0  0  0  0  0  0
   -6.8431    1.9989  -12.4948 O   0  0  0  0  0  0  0  0  0  0  0  0
   -5.0419    3.0660  -13.1783 O   0  0  0  0  0  0  0  0  0  0  0  0
  1  2  2  0
  2  3  1  0
  3  4  1  0
  4  5  2  0
  5  6  1  0
  5  7  1  0
  7  8  2  0
  8  9  1  0
  8 10  1  0
 10 11  2  0
 11 12  1  0
 12 13  2  0
 13 14  1  0
 14 15  2  0
  2 16  1  0
 16 17  1  0
 17 18  1  0
 18 19  1  0
 18 20  2  0
 20 21  1  0
 21 22  1  0
 22 23  2  0
 22 24  1  0
 15  4  1  0
 21 16  2  0
 15 10  1  0
M  CHG  2  22   1  24  -1
M  END
>  <energy_score>  (655) 
-1.215888

>  <alias>  (655) 
None

>  <HIPPO Pose ID>  (655) 
70018

>  <smiles>  (655) 
O=C(Nc1c(Br)cc(Cl)c2ncccc12)c1sc(Br)cc1[N+](=O)[O-]

>  <inchikey>  (655) 
WVEPPJNEJOVHDR-UHFFFAOYSA-N

>  <distance_score>  (655) 
1.393394

>  <ref_mols>  (655) 
Z0719a,Z1688a

>  <ref_pdb>  (655) 
Z0719a

>  <HIPPO Compound ID>  (655) 
140086

>  <name>  (655) 
P70018

>  <inspiration_score>  (655) 
None

$$$$
P70019
     RDKit          3D

 24 26  0  0  0  0  0  0  0  0999 V2000
   -4.1346    5.0648  -14.9659 C   0  0  0  0  0  0  0  0  0  0  0  0
   -4.9866    5.3394  -16.1714 C   0  0  0  0  0  0  0  0  0  0  0  0
   -4.2505    5.7010  -17.3083 C   0  0  0  0  0  0  0  0  0  0  0  0
   -4.8869    5.7284  -18.5176 C   0  0  0  0  0  0  0  0  0  0  0  0
   -6.1747    5.4069  -18.6539 N   0  0  0  0  0  0  0  0  0  0  0  0
   -6.9202    5.0919  -17.5775 C   0  0  0  0  0  0  0  0  0  0  0  0
   -8.2287    4.6378  -17.7887 C   0  0  0  0  0  0  0  0  0  0  0  0
   -8.7748    4.1264  -19.3189 Cl  0  0  0  0  0  0  0  0  0  0  0  0
   -9.1440    4.4230  -16.7801 C   0  0  0  0  0  0  0  0  0  0  0  0
   -8.7121    4.5558  -15.4964 C   0  0  0  0  0  0  0  0  0  0  0  0
   -7.3775    4.8797  -15.2268 C   0  0  0  0  0  0  0  0  0  0  0  0
   -7.1509    4.7573  -13.8747 N   0  0  0  0  0  0  0  0  0  0  0  0
   -6.3515    5.6492  -12.9104 C   0  0  0  0  0  0  0  0  0  0  0  0
   -5.6937    6.5873  -13.1193 O   0  0  0  0  0  0  0  0  0  0  0  0
   -6.4867    5.0312  -11.6101 C   0  0  0  0  0  0  0  0  0  0  0  0
   -6.9884    5.9854  -10.2846 S   0  0  0  0  0  0  0  0  0  0  0  0
   -7.2513    4.5904   -9.3578 C   0  0  0  0  0  0  0  0  0  0  0  0
   -7.9651    4.6447   -7.5846 Br  0  0  0  0  0  0  0  0  0  0  0  0
   -6.8937    3.4241   -9.9922 C   0  0  0  0  0  0  0  0  0  0  0  0
   -6.3814    3.6840  -11.2921 C   0  0  0  0  0  0  0  0  0  0  0  0
   -5.9176    2.6800  -12.2301 N   0  0  0  0  0  0  0  0  0  0  0  0
   -6.7868    1.9817  -12.7696 O   0  0  0  0  0  0  0  0  0  0  0  0
   -4.7015    2.6438  -12.4448 O   0  0  0  0  0  0  0  0  0  0  0  0
   -6.4152    5.1465  -16.2564 C   0  0  0  0  0  0  0  0  0  0  0  0
  1  2  1  0
  2  3  2  0
  3  4  1  0
  4  5  2  0
  5  6  1  0
  6  7  2  0
  7  8  1  0
  7  9  1  0
  9 10  2  0
 10 11  1  0
 11 12  1  0
 12 13  1  0
 13 14  2  0
 13 15  1  0
 15 16  1  0
 16 17  1  0
 17 18  1  0
 17 19  2  0
 19 20  1  0
 20 21  1  0
 21 22  2  0
 21 23  1  0
 11 24  2  0
 24  2  1  0
 24  6  1  0
 20 15  2  0
M  CHG  2  21   1  23  -1
M  END
>  <energy_score>  (656) 
-26.955088

>  <alias>  (656) 
None

>  <HIPPO Pose ID>  (656) 
70019

>  <smiles>  (656) 
Cc1ccnc2c(Cl)ccc(NC(=O)c3sc(Br)cc3[N+](=O)[O-])c12

>  <inchikey>  (656) 
YMMIANZUUFJJAJ-UHFFFAOYSA-N

>  <distance_score>  (656) 
1.225621

>  <ref_mols>  (656) 
Z1688a,Z0719a

>  <ref_pdb>  (656) 
Z0719a

>  <HIPPO Compound ID>  (656) 
140087

>  <name>  (656) 
P70019

>  <inspiration_score>  (656) 
None

$$$$
P70020
     RDKit          3D

 24 27  0  0  0  0  0  0  0  0999 V2000
   -4.5779    6.7214  -14.6969 C   0  0  0  0  0  0  0  0  0  0  0  0
   -5.0883    6.0458  -15.9437 C   0  0  0  0  0  0  0  0  0  0  0  0
   -4.1599    5.8532  -16.9711 C   0  0  0  0  0  0  0  0  0  0  0  0
   -4.5931    5.3092  -18.1550 C   0  0  0  0  0  0  0  0  0  0  0  0
   -5.8632    4.9454  -18.3697 N   0  0  0  0  0  0  0  0  0  0  0  0
   -6.7872    5.0996  -17.4001 C   0  0  0  0  0  0  0  0  0  0  0  0
   -8.1123    4.7129  -17.6347 C   0  0  0  0  0  0  0  0  0  0  0  0
   -8.5944    4.0053  -19.1191 Cl  0  0  0  0  0  0  0  0  0  0  0  0
   -9.1202    4.8687  -16.6934 C   0  0  0  0  0  0  0  0  0  0  0  0
   -8.8146    5.4148  -15.4666 C   0  0  0  0  0  0  0  0  0  0  0  0
   -7.4971    5.7426  -15.1710 C   0  0  0  0  0  0  0  0  0  0  0  0
   -7.2045    5.8322  -13.8232 N   0  0  0  0  0  0  0  0  0  0  0  0
   -8.0615    6.3517  -12.6381 C   0  0  0  0  0  0  0  0  0  0  0  0
   -9.1158    6.8550  -12.6297 O   0  0  0  0  0  0  0  0  0  0  0  0
   -7.2917    5.9798  -11.4692 C   0  0  0  0  0  0  0  0  0  0  0  0
   -6.2873    7.0442  -10.6203 S   0  0  0  0  0  0  0  0  0  0  0  0
   -5.2612    5.7347  -10.1495 C   0  0  0  0  0  0  0  0  0  0  0  0
   -5.7239    4.5186  -10.6213 C   0  0  0  0  0  0  0  0  0  0  0  0
   -7.0348    4.6532  -11.1735 C   0  0  0  0  0  0  0  0  0  0  0  0
   -7.7906    3.4667  -11.7026 C   0  0  0  0  0  0  0  0  0  0  0  0
   -6.8064    2.4926  -12.3423 C   0  0  0  0  0  0  0  0  0  0  0  0
   -5.7730    2.0498  -11.3118 C   0  0  0  0  0  0  0  0  0  0  0  0
   -4.9656    3.2175  -10.7143 C   0  0  0  0  0  0  0  0  0  0  0  0
   -6.4510    5.6355  -16.1335 C   0  0  0  0  0  0  0  0  0  0  0  0
  1  2  1  0
  2  3  2  0
  3  4  1  0
  4  5  2  0
  5  6  1  0
  6  7  2  0
  7  8  1  0
  7  9  1  0
  9 10  2  0
 10 11  1  0
 11 12  1  0
 12 13  1  0
 13 14  2  0
 13 15  1  0
 15 16  1  0
 16 17  1  0
 17 18  2  0
 18 19  1  0
 19 20  1  0
 20 21  1  0
 21 22  1  0
 22 23  1  0
 11 24  2  0
 24  2  1  0
 24  6  1  0
 19 15  2  0
 23 18  1  0
M  END
>  <energy_score>  (657) 
-25.332049

>  <alias>  (657) 
None

>  <HIPPO Pose ID>  (657) 
70020

>  <smiles>  (657) 
Cc1ccnc2c(Cl)ccc(NC(=O)c3scc4c3CCCC4)c12

>  <inchikey>  (657) 
PAATVYXRXKFSTC-UHFFFAOYSA-N

>  <distance_score>  (657) 
1.651447

>  <ref_mols>  (657) 
Z0719a,Z1688a

>  <ref_pdb>  (657) 
Z0719a

>  <HIPPO Compound ID>  (657) 
140095

>  <name>  (657) 
P70020

>  <inspiration_score>  (657) 
None

$$$$
P70021
     RDKit          3D

 24 26  0  0  0  0  0  0  0  0999 V2000
   -4.2441    5.7819  -13.4511 O   0  0  0  0  0  0  0  0  0  0  0  0
   -5.3394    5.7415  -13.0535 C   0  0  0  0  0  0  0  0  0  0  0  0
   -6.6814    5.7765  -13.8134 N   0  0  0  0  0  0  0  0  0  0  0  0
   -6.9498    5.7725  -15.1881 C   0  0  0  0  0  0  0  0  0  0  0  0
   -8.3293    5.5971  -15.3994 C   0  0  0  0  0  0  0  0  0  0  0  0
   -9.5315    6.2380  -14.0795 Br  0  0  0  0  0  0  0  0  0  0  0  0
   -8.8212    5.0256  -16.5493 C   0  0  0  0  0  0  0  0  0  0  0  0
   -7.9274    4.7553  -17.5720 C   0  0  0  0  0  0  0  0  0  0  0  0
   -8.6115    4.0530  -18.9835 Cl  0  0  0  0  0  0  0  0  0  0  0  0
   -6.5704    5.0979  -17.4906 C   0  0  0  0  0  0  0  0  0  0  0  0
   -5.7692    4.9244  -18.5577 N   0  0  0  0  0  0  0  0  0  0  0  0
   -4.4832    5.3052  -18.5000 C   0  0  0  0  0  0  0  0  0  0  0  0
   -3.9220    5.8865  -17.3902 C   0  0  0  0  0  0  0  0  0  0  0  0
   -4.7305    6.0641  -16.2772 C   0  0  0  0  0  0  0  0  0  0  0  0
   -6.0728    5.6438  -16.2774 C   0  0  0  0  0  0  0  0  0  0  0  0
   -5.7465    5.5416  -11.6831 C   0  0  0  0  0  0  0  0  0  0  0  0
   -6.3332    6.8605  -10.7664 S   0  0  0  0  0  0  0  0  0  0  0  0
   -7.0443    5.8026   -9.6247 C   0  0  0  0  0  0  0  0  0  0  0  0
   -6.8058    4.4783   -9.9224 C   0  0  0  0  0  0  0  0  0  0  0  0
   -6.0340    4.3193  -11.1049 C   0  0  0  0  0  0  0  0  0  0  0  0
   -5.5870    2.7136  -11.6724 S   0  0  0  0  0  0  0  0  0  0  0  0
   -6.2804    2.5551  -13.3060 C   0  0  0  0  0  0  0  0  0  0  0  0
   -5.6013    3.2930  -14.2137 F   0  0  0  0  0  0  0  0  0  0  0  0
   -6.1103    1.2687  -13.6888 F   0  0  0  0  0  0  0  0  0  0  0  0
  1  2  2  0
  2  3  1  0
  3  4  1  0
  4  5  2  0
  5  6  1  0
  5  7  1  0
  7  8  2  0
  8  9  1  0
  8 10  1  0
 10 11  2  0
 11 12  1  0
 12 13  2  0
 13 14  1  0
 14 15  2  0
  2 16  1  0
 16 17  1  0
 17 18  1  0
 18 19  2  0
 19 20  1  0
 20 21  1  0
 21 22  1  0
 22 23  1  0
 22 24  1  0
 15  4  1  0
 20 16  2  0
 15 10  1  0
M  END
>  <energy_score>  (658) 
-2.973716

>  <alias>  (658) 
None

>  <HIPPO Pose ID>  (658) 
70021

>  <smiles>  (658) 
O=C(Nc1c(Br)cc(Cl)c2ncccc12)c1sccc1SC(F)F

>  <inchikey>  (658) 
AUFPPWDLYCNGSF-UHFFFAOYSA-N

>  <distance_score>  (658) 
1.410385

>  <ref_mols>  (658) 
Z0719a,Z1688a

>  <ref_pdb>  (658) 
Z0719a

>  <HIPPO Compound ID>  (658) 
140136

>  <name>  (658) 
P70021

>  <inspiration_score>  (658) 
None

$$$$
P70022
     RDKit          3D

 24 26  0  0  0  0  0  0  0  0999 V2000
   -4.4647    6.0194  -14.6378 C   0  0  0  0  0  0  0  0  0  0  0  0
   -5.1557    5.8787  -15.9640 C   0  0  0  0  0  0  0  0  0  0  0  0
   -4.3069    6.1265  -17.0553 C   0  0  0  0  0  0  0  0  0  0  0  0
   -4.7730    5.9032  -18.3194 C   0  0  0  0  0  0  0  0  0  0  0  0
   -6.0026    5.4477  -18.5532 N   0  0  0  0  0  0  0  0  0  0  0  0
   -6.8589    5.2231  -17.5379 C   0  0  0  0  0  0  0  0  0  0  0  0
   -8.0959    4.6479  -17.8591 C   0  0  0  0  0  0  0  0  0  0  0  0
   -8.4126    4.0043  -19.4075 Cl  0  0  0  0  0  0  0  0  0  0  0  0
   -9.1048    4.4245  -16.9463 C   0  0  0  0  0  0  0  0  0  0  0  0
   -8.8385    4.6916  -15.6382 C   0  0  0  0  0  0  0  0  0  0  0  0
   -7.6005    5.2131  -15.2476 C   0  0  0  0  0  0  0  0  0  0  0  0
   -7.5280    5.1559  -13.8727 N   0  0  0  0  0  0  0  0  0  0  0  0
   -6.9313    6.1417  -12.8655 C   0  0  0  0  0  0  0  0  0  0  0  0
   -6.4717    7.1996  -13.0257 O   0  0  0  0  0  0  0  0  0  0  0  0
   -6.9304    5.4661  -11.5622 C   0  0  0  0  0  0  0  0  0  0  0  0
   -6.8686    6.4723  -10.1644 S   0  0  0  0  0  0  0  0  0  0  0  0
   -7.0260    5.1344   -9.1249 C   0  0  0  0  0  0  0  0  0  0  0  0
   -7.0790    3.9433   -9.8100 C   0  0  0  0  0  0  0  0  0  0  0  0
   -6.9842    4.1162  -11.2153 C   0  0  0  0  0  0  0  0  0  0  0  0
   -7.1055    2.6672  -12.2472 S   0  0  0  0  0  0  0  0  0  0  0  0
   -5.5248    2.5334  -13.0758 C   0  0  0  0  0  0  0  0  0  0  0  0
   -4.5186    3.1142  -12.3843 F   0  0  0  0  0  0  0  0  0  0  0  0
   -5.5762    3.1489  -14.2803 F   0  0  0  0  0  0  0  0  0  0  0  0
   -6.5367    5.4902  -16.1806 C   0  0  0  0  0  0  0  0  0  0  0  0
  1  2  1  0
  2  3  2  0
  3  4  1  0
  4  5  2  0
  5  6  1  0
  6  7  2  0
  7  8  1  0
  7  9  1  0
  9 10  2  0
 10 11  1  0
 11 12  1  0
 12 13  1  0
 13 14  2  0
 13 15  1  0
 15 16  1  0
 16 17  1  0
 17 18  2  0
 18 19  1  0
 19 20  1  0
 20 21  1  0
 21 22  1  0
 21 23  1  0
 11 24  2  0
 24  2  1  0
 24  6  1  0
 19 15  2  0
M  END
>  <energy_score>  (659) 
-16.679632

>  <alias>  (659) 
None

>  <HIPPO Pose ID>  (659) 
70022

>  <smiles>  (659) 
Cc1ccnc2c(Cl)ccc(NC(=O)c3sccc3SC(F)F)c12

>  <inchikey>  (659) 
NUBKETCPBRNKNE-UHFFFAOYSA-N

>  <distance_score>  (659) 
1.112547

>  <ref_mols>  (659) 
Z1688a,Z0719a

>  <ref_pdb>  (659) 
Z0719a

>  <HIPPO Compound ID>  (659) 
140137

>  <name>  (659) 
P70022

>  <inspiration_score>  (659) 
None

$$$$
P70023
     RDKit          3D

 24 26  0  0  0  0  0  0  0  0999 V2000
   -6.4916    3.1020  -14.3830 N   0  0  0  0  0  0  0  0  0  0  0  0
   -5.8441    2.5617  -12.9484 S   0  0  0  0  0  0  0  0  0  0  0  0
   -4.4196    2.4651  -13.1476 O   0  0  0  0  0  0  0  0  0  0  0  0
   -6.6800    1.4484  -12.5814 O   0  0  0  0  0  0  0  0  0  0  0  0
   -6.0465    3.8002  -11.7325 C   0  0  0  0  0  0  0  0  0  0  0  0
   -6.7292    3.6391  -10.4984 C   0  0  0  0  0  0  0  0  0  0  0  0
   -6.7977    4.8256   -9.7923 C   0  0  0  0  0  0  0  0  0  0  0  0
   -6.0698    6.1385  -10.6314 S   0  0  0  0  0  0  0  0  0  0  0  0
   -5.6619    5.1206  -11.9286 C   0  0  0  0  0  0  0  0  0  0  0  0
   -5.3173    5.6245  -13.2356 C   0  0  0  0  0  0  0  0  0  0  0  0
   -4.2436    5.8055  -13.6486 O   0  0  0  0  0  0  0  0  0  0  0  0
   -6.6856    5.7460  -13.9273 N   0  0  0  0  0  0  0  0  0  0  0  0
   -7.0099    6.0151  -15.2612 C   0  0  0  0  0  0  0  0  0  0  0  0
   -8.3845    5.7868  -15.4357 C   0  0  0  0  0  0  0  0  0  0  0  0
   -9.5608    6.3466  -14.0615 Br  0  0  0  0  0  0  0  0  0  0  0  0
   -8.8622    5.1359  -16.5512 C   0  0  0  0  0  0  0  0  0  0  0  0
   -7.9710    4.8577  -17.5779 C   0  0  0  0  0  0  0  0  0  0  0  0
   -8.6365    4.0527  -18.9429 Cl  0  0  0  0  0  0  0  0  0  0  0  0
   -6.6263    5.2566  -17.5327 C   0  0  0  0  0  0  0  0  0  0  0  0
   -5.8107    5.0338  -18.5792 N   0  0  0  0  0  0  0  0  0  0  0  0
   -4.5344    5.4529  -18.5388 C   0  0  0  0  0  0  0  0  0  0  0  0
   -3.9942    6.1164  -17.4638 C   0  0  0  0  0  0  0  0  0  0  0  0
   -4.8138    6.3415  -16.3689 C   0  0  0  0  0  0  0  0  0  0  0  0
   -6.1425    5.8847  -16.3575 C   0  0  0  0  0  0  0  0  0  0  0  0
  1  2  1  0
  2  3  2  0
  2  4  2  0
  2  5  1  0
  5  6  1  0
  6  7  2  0
  7  8  1  0
  8  9  1  0
  9 10  1  0
 10 11  2  0
 10 12  1  0
 12 13  1  0
 13 14  2  0
 14 15  1  0
 14 16  1  0
 16 17  2  0
 17 18  1  0
 17 19  1  0
 19 20  2  0
 20 21  1  0
 21 22  2  0
 22 23  1  0
 23 24  2  0
  9  5  2  0
 24 13  1  0
 24 19  1  0
M  END
>  <energy_score>  (660) 
-5.256775

>  <alias>  (660) 
None

>  <HIPPO Pose ID>  (660) 
70023

>  <smiles>  (660) 
NS(=O)(=O)c1ccsc1C(=O)Nc1c(Br)cc(Cl)c2ncccc12

>  <inchikey>  (660) 
SPVYGXFYLZBJMT-UHFFFAOYSA-N

>  <distance_score>  (660) 
1.348704

>  <ref_mols>  (660) 
Z0719a,Z1688a

>  <ref_pdb>  (660) 
Z0719a

>  <HIPPO Compound ID>  (660) 
140140

>  <name>  (660) 
P70023

>  <inspiration_score>  (660) 
None

$$$$
P70024
     RDKit          3D

 24 26  0  0  0  0  0  0  0  0999 V2000
   -4.5874    6.8399  -15.0256 C   0  0  0  0  0  0  0  0  0  0  0  0
   -5.2304    6.2119  -16.2259 C   0  0  0  0  0  0  0  0  0  0  0  0
   -4.3993    6.2152  -17.3593 C   0  0  0  0  0  0  0  0  0  0  0  0
   -4.8848    5.7319  -18.5388 C   0  0  0  0  0  0  0  0  0  0  0  0
   -6.1261    5.2680  -18.6547 N   0  0  0  0  0  0  0  0  0  0  0  0
   -6.9546    5.2347  -17.5958 C   0  0  0  0  0  0  0  0  0  0  0  0
   -8.2171    4.6728  -17.8141 C   0  0  0  0  0  0  0  0  0  0  0  0
   -8.6512    3.9900  -19.3166 Cl  0  0  0  0  0  0  0  0  0  0  0  0
   -9.1814    4.5422  -16.8378 C   0  0  0  0  0  0  0  0  0  0  0  0
   -8.8481    4.9072  -15.5679 C   0  0  0  0  0  0  0  0  0  0  0  0
   -7.5983    5.4701  -15.2837 C   0  0  0  0  0  0  0  0  0  0  0  0
   -7.3793    5.3442  -13.9260 N   0  0  0  0  0  0  0  0  0  0  0  0
   -6.7671    6.3239  -12.9208 C   0  0  0  0  0  0  0  0  0  0  0  0
   -6.4177    7.4259  -13.0575 O   0  0  0  0  0  0  0  0  0  0  0  0
   -6.5776    5.5847  -11.6811 C   0  0  0  0  0  0  0  0  0  0  0  0
   -6.9572    6.3875  -10.2137 S   0  0  0  0  0  0  0  0  0  0  0  0
   -6.7593    4.9486   -9.3205 C   0  0  0  0  0  0  0  0  0  0  0  0
   -6.3283    3.9020  -10.1052 C   0  0  0  0  0  0  0  0  0  0  0  0
   -6.1565    4.2755  -11.4699 C   0  0  0  0  0  0  0  0  0  0  0  0
   -5.6509    3.1084  -12.6802 S   0  0  0  0  0  0  0  0  0  0  0  0
   -7.0762    2.3967  -13.1919 N   0  0  0  0  0  0  0  0  0  0  0  0
   -4.8922    2.1137  -11.9707 O   0  0  0  0  0  0  0  0  0  0  0  0
   -5.1053    3.8388  -13.7914 O   0  0  0  0  0  0  0  0  0  0  0  0
   -6.5878    5.6933  -16.3008 C   0  0  0  0  0  0  0  0  0  0  0  0
  1  2  1  0
  2  3  2  0
  3  4  1  0
  4  5  2  0
  5  6  1  0
  6  7  2  0
  7  8  1  0
  7  9  1  0
  9 10  2  0
 10 11  1  0
 11 12  1  0
 12 13  1  0
 13 14  2  0
 13 15  1  0
 15 16  1  0
 16 17  1  0
 17 18  2  0
 18 19  1  0
 19 20  1  0
 20 21  1  0
 20 22  2  0
 20 23  2  0
 11 24  2  0
 24  2  1  0
 24  6  1  0
 19 15  2  0
M  END
>  <energy_score>  (661) 
-18.894125

>  <alias>  (661) 
None

>  <HIPPO Pose ID>  (661) 
70024

>  <smiles>  (661) 
Cc1ccnc2c(Cl)ccc(NC(=O)c3sccc3S(N)(=O)=O)c12

>  <inchikey>  (661) 
CRVVBGAYLBVECV-UHFFFAOYSA-N

>  <distance_score>  (661) 
1.150032

>  <ref_mols>  (661) 
Z1688a,Z0719a

>  <ref_pdb>  (661) 
Z0719a

>  <HIPPO Compound ID>  (661) 
140141

>  <name>  (661) 
P70024

>  <inspiration_score>  (661) 
None

$$$$
P70025
     RDKit          3D

 24 26  0  0  0  0  0  0  0  0999 V2000
   -5.3840    8.3109  -15.5438 C   0  0  0  0  0  0  0  0  0  0  0  0
   -5.4804    7.0504  -16.3701 C   0  0  0  0  0  0  0  0  0  0  0  0
   -4.5274    6.9176  -17.3842 C   0  0  0  0  0  0  0  0  0  0  0  0
   -4.7729    6.0239  -18.3946 C   0  0  0  0  0  0  0  0  0  0  0  0
   -5.9135    5.3295  -18.4816 N   0  0  0  0  0  0  0  0  0  0  0  0
   -6.8355    5.4172  -17.5020 C   0  0  0  0  0  0  0  0  0  0  0  0
   -8.0676    4.7684  -17.6555 C   0  0  0  0  0  0  0  0  0  0  0  0
   -8.4956    3.9786  -19.1155 Cl  0  0  0  0  0  0  0  0  0  0  0  0
   -9.0353    4.7502  -16.6642 C   0  0  0  0  0  0  0  0  0  0  0  0
   -8.7352    5.3135  -15.4462 C   0  0  0  0  0  0  0  0  0  0  0  0
   -7.4987    5.9445  -15.2383 C   0  0  0  0  0  0  0  0  0  0  0  0
   -7.1330    5.8045  -13.8951 N   0  0  0  0  0  0  0  0  0  0  0  0
   -5.8058    6.1311  -13.1773 C   0  0  0  0  0  0  0  0  0  0  0  0
   -4.8356    6.6399  -13.5766 O   0  0  0  0  0  0  0  0  0  0  0  0
   -5.9536    5.5716  -11.8632 C   0  0  0  0  0  0  0  0  0  0  0  0
   -6.3602    6.5420  -10.5351 S   0  0  0  0  0  0  0  0  0  0  0  0
   -6.6488    5.1551   -9.5775 C   0  0  0  0  0  0  0  0  0  0  0  0
   -6.4305    3.9867  -10.2791 C   0  0  0  0  0  0  0  0  0  0  0  0
   -5.9516    4.2018  -11.6168 C   0  0  0  0  0  0  0  0  0  0  0  0
   -5.6026    3.0626  -12.6248 C   0  0  0  0  0  0  0  0  0  0  0  0
   -4.8178    3.5014  -13.8812 C   0  0  0  0  0  0  0  0  0  0  0  0
   -6.8923    2.3772  -13.0944 C   0  0  0  0  0  0  0  0  0  0  0  0
   -4.6940    2.0296  -11.9307 C   0  0  0  0  0  0  0  0  0  0  0  0
   -6.5986    6.1635  -16.3212 C   0  0  0  0  0  0  0  0  0  0  0  0
  1  2  1  0
  2  3  2  0
  3  4  1  0
  4  5  2  0
  5  6  1  0
  6  7  2  0
  7  8  1  0
  7  9  1  0
  9 10  2  0
 10 11  1  0
 11 12  1  0
 12 13  1  0
 13 14  2  0
 13 15  1  0
 15 16  1  0
 16 17  1  0
 17 18  2  0
 18 19  1  0
 19 20  1  0
 20 21  1  0
 20 22  1  0
 20 23  1  0
 11 24  2  0
 24  2  1  0
 24  6  1  0
 19 15  2  0
M  END
>  <energy_score>  (662) 
-20.746331

>  <alias>  (662) 
None

>  <HIPPO Pose ID>  (662) 
70025

>  <smiles>  (662) 
Cc1ccnc2c(Cl)ccc(NC(=O)c3sccc3C(C)(C)C)c12

>  <inchikey>  (662) 
UKSGLCJFYGUFOK-UHFFFAOYSA-N

>  <distance_score>  (662) 
1.378648

>  <ref_mols>  (662) 
Z0719a,Z1688a

>  <ref_pdb>  (662) 
Z0719a

>  <HIPPO Compound ID>  (662) 
140143

>  <name>  (662) 
P70025

>  <inspiration_score>  (662) 
None

$$$$
P70026
     RDKit          3D

 24 26  0  0  0  0  0  0  0  0999 V2000
   -5.3239    8.3000  -15.6108 C   0  0  0  0  0  0  0  0  0  0  0  0
   -5.4511    7.0536  -16.4525 C   0  0  0  0  0  0  0  0  0  0  0  0
   -4.5162    6.9171  -17.4820 C   0  0  0  0  0  0  0  0  0  0  0  0
   -4.7830    6.0260  -18.4901 C   0  0  0  0  0  0  0  0  0  0  0  0
   -5.9291    5.3387  -18.5632 N   0  0  0  0  0  0  0  0  0  0  0  0
   -6.8278    5.4202  -17.5627 C   0  0  0  0  0  0  0  0  0  0  0  0
   -8.0605    4.7661  -17.6889 C   0  0  0  0  0  0  0  0  0  0  0  0
   -8.5155    3.9684  -19.1357 Cl  0  0  0  0  0  0  0  0  0  0  0  0
   -9.0123    4.7514  -16.6816 C   0  0  0  0  0  0  0  0  0  0  0  0
   -8.6949    5.3275  -15.4750 C   0  0  0  0  0  0  0  0  0  0  0  0
   -7.4545    5.9618  -15.2950 C   0  0  0  0  0  0  0  0  0  0  0  0
   -7.0787    5.8710  -13.9532 N   0  0  0  0  0  0  0  0  0  0  0  0
   -5.7129    6.1276  -13.2721 C   0  0  0  0  0  0  0  0  0  0  0  0
   -4.7109    6.5292  -13.7141 O   0  0  0  0  0  0  0  0  0  0  0  0
   -5.8809    5.6614  -11.9267 C   0  0  0  0  0  0  0  0  0  0  0  0
   -6.3646    6.6648  -10.6512 S   0  0  0  0  0  0  0  0  0  0  0  0
   -6.6560    5.2978   -9.6515 C   0  0  0  0  0  0  0  0  0  0  0  0
   -6.3660    4.1059  -10.2880 C   0  0  0  0  0  0  0  0  0  0  0  0
   -5.8914    4.3165  -11.6114 C   0  0  0  0  0  0  0  0  0  0  0  0
   -5.5520    3.0270  -12.7540 S   0  0  0  0  0  0  0  0  0  0  0  0
   -7.1343    2.2892  -12.9735 C   0  0  0  0  0  0  0  0  0  0  0  0
   -4.6587    2.1425  -12.0454 O   0  0  0  0  0  0  0  0  0  0  0  0
   -5.1806    3.6450  -14.0055 O   0  0  0  0  0  0  0  0  0  0  0  0
   -6.5701    6.1700  -16.3890 C   0  0  0  0  0  0  0  0  0  0  0  0
  1  2  1  0
  2  3  2  0
  3  4  1  0
  4  5  2  0
  5  6  1  0
  6  7  2  0
  7  8  1  0
  7  9  1  0
  9 10  2  0
 10 11  1  0
 11 12  1  0
 12 13  1  0
 13 14  2  0
 13 15  1  0
 15 16  1  0
 16 17  1  0
 17 18  2  0
 18 19  1  0
 19 20  1  0
 20 21  1  0
 20 22  2  0
 20 23  2  0
 11 24  2  0
 24  2  1  0
 24  6  1  0
 19 15  2  0
M  END
>  <energy_score>  (663) 
-32.410531

>  <alias>  (663) 
None

>  <HIPPO Pose ID>  (663) 
70026

>  <smiles>  (663) 
Cc1ccnc2c(Cl)ccc(NC(=O)c3sccc3S(C)(=O)=O)c12

>  <inchikey>  (663) 
JXLYWWUAEFLNFY-UHFFFAOYSA-N

>  <distance_score>  (663) 
1.25728

>  <ref_mols>  (663) 
Z1688a,Z0719a

>  <ref_pdb>  (663) 
Z0719a

>  <HIPPO Compound ID>  (663) 
140189

>  <name>  (663) 
P70026

>  <inspiration_score>  (663) 
None

$$$$
P70027
     RDKit          3D

 25 27  0  0  0  0  0  0  0  0999 V2000
   -7.0590    2.3930  -12.7403 C   0  0  0  0  0  0  0  0  0  0  0  0
   -5.3909    2.9147  -13.0381 S   0  0  0  0  0  0  0  0  0  0  0  0
   -5.3735    3.7753  -14.1930 O   0  0  0  0  0  0  0  0  0  0  0  0
   -4.5010    1.7801  -12.9941 O   0  0  0  0  0  0  0  0  0  0  0  0
   -5.0026    3.8393  -11.6586 N   0  0  0  0  0  0  0  0  0  0  0  0
   -5.7408    4.9677  -11.2317 C   0  0  0  0  0  0  0  0  0  0  0  0
   -6.6042    4.9138  -10.1020 C   0  0  0  0  0  0  0  0  0  0  0  0
   -7.1256    6.1484   -9.7746 C   0  0  0  0  0  0  0  0  0  0  0  0
   -6.6202    7.3681  -10.8661 S   0  0  0  0  0  0  0  0  0  0  0  0
   -5.7390    6.2357  -11.7862 C   0  0  0  0  0  0  0  0  0  0  0  0
   -5.4070    6.5011  -13.1672 C   0  0  0  0  0  0  0  0  0  0  0  0
   -4.3645    6.8163  -13.5832 O   0  0  0  0  0  0  0  0  0  0  0  0
   -6.7181    6.1645  -13.9053 N   0  0  0  0  0  0  0  0  0  0  0  0
   -6.9907    6.0546  -15.2785 C   0  0  0  0  0  0  0  0  0  0  0  0
   -8.3494    5.7064  -15.4352 C   0  0  0  0  0  0  0  0  0  0  0  0
   -9.5730    6.2460  -14.0856 Br  0  0  0  0  0  0  0  0  0  0  0  0
   -8.8213    5.0438  -16.5441 C   0  0  0  0  0  0  0  0  0  0  0  0
   -7.9363    4.8153  -17.5821 C   0  0  0  0  0  0  0  0  0  0  0  0
   -8.6065    4.0334  -18.9607 Cl  0  0  0  0  0  0  0  0  0  0  0  0
   -6.6052    5.2520  -17.5447 C   0  0  0  0  0  0  0  0  0  0  0  0
   -5.8173    5.0399  -18.6144 N   0  0  0  0  0  0  0  0  0  0  0  0
   -4.5445    5.4607  -18.6053 C   0  0  0  0  0  0  0  0  0  0  0  0
   -3.9883    6.1324  -17.5475 C   0  0  0  0  0  0  0  0  0  0  0  0
   -4.7894    6.3675  -16.4388 C   0  0  0  0  0  0  0  0  0  0  0  0
   -6.1203    5.9121  -16.3797 C   0  0  0  0  0  0  0  0  0  0  0  0
  1  2  1  0
  2  3  2  0
  2  4  2  0
  2  5  1  0
  5  6  1  0
  6  7  1  0
  7  8  2  0
  8  9  1  0
  9 10  1  0
 10 11  1  0
 11 12  2  0
 11 13  1  0
 13 14  1  0
 14 15  2  0
 15 16  1  0
 15 17  1  0
 17 18  2  0
 18 19  1  0
 18 20  1  0
 20 21  2  0
 21 22  1  0
 22 23  2  0
 23 24  1  0
 24 25  2  0
 10  6  2  0
 25 14  1  0
 25 20  1  0
M  END
>  <energy_score>  (664) 
-3.253578

>  <alias>  (664) 
None

>  <HIPPO Pose ID>  (664) 
70027

>  <smiles>  (664) 
CS(=O)(=O)Nc1ccsc1C(=O)Nc1c(Br)cc(Cl)c2ncccc12

>  <inchikey>  (664) 
YCIMZUOXMHXQGA-UHFFFAOYSA-N

>  <distance_score>  (664) 
1.26163

>  <ref_mols>  (664) 
Z0719a,Z1688a

>  <ref_pdb>  (664) 
Z0719a

>  <HIPPO Compound ID>  (664) 
140199

>  <name>  (664) 
P70027

>  <inspiration_score>  (664) 
None

$$$$
P70028
     RDKit          3D

 25 27  0  0  0  0  0  0  0  0999 V2000
   -4.7610    6.9273  -14.7183 C   0  0  0  0  0  0  0  0  0  0  0  0
   -5.3111    6.3730  -15.9969 C   0  0  0  0  0  0  0  0  0  0  0  0
   -4.4453    6.4880  -17.0958 C   0  0  0  0  0  0  0  0  0  0  0  0
   -4.8591    6.0305  -18.3159 C   0  0  0  0  0  0  0  0  0  0  0  0
   -6.0609    5.4878  -18.5048 N   0  0  0  0  0  0  0  0  0  0  0  0
   -6.9207    5.3466  -17.4779 C   0  0  0  0  0  0  0  0  0  0  0  0
   -8.1341    4.6989  -17.7420 C   0  0  0  0  0  0  0  0  0  0  0  0
   -8.4902    4.0224  -19.2733 Cl  0  0  0  0  0  0  0  0  0  0  0  0
   -9.1038    4.4801  -16.7853 C   0  0  0  0  0  0  0  0  0  0  0  0
   -8.8274    4.8436  -15.4981 C   0  0  0  0  0  0  0  0  0  0  0  0
   -7.6346    5.4985  -15.1723 C   0  0  0  0  0  0  0  0  0  0  0  0
   -7.4622    5.4538  -13.8003 N   0  0  0  0  0  0  0  0  0  0  0  0
   -7.1742    6.5806  -12.7899 C   0  0  0  0  0  0  0  0  0  0  0  0
   -6.9602    7.7139  -12.9620 O   0  0  0  0  0  0  0  0  0  0  0  0
   -7.1387    5.9184  -11.4974 C   0  0  0  0  0  0  0  0  0  0  0  0
   -8.0838    6.5120  -10.2131 S   0  0  0  0  0  0  0  0  0  0  0  0
   -7.9323    5.0252   -9.3728 C   0  0  0  0  0  0  0  0  0  0  0  0
   -7.0658    4.1598  -10.0090 C   0  0  0  0  0  0  0  0  0  0  0  0
   -6.5055    4.7255  -11.1822 C   0  0  0  0  0  0  0  0  0  0  0  0
   -5.4207    4.1362  -11.8779 N   0  0  0  0  0  0  0  0  0  0  0  0
   -5.6166    2.8845  -13.0265 S   0  0  0  0  0  0  0  0  0  0  0  0
   -4.2778    1.8373  -12.5459 C   0  0  0  0  0  0  0  0  0  0  0  0
   -6.8741    2.2039  -12.8400 O   0  0  0  0  0  0  0  0  0  0  0  0
   -5.2508    3.4812  -14.2903 O   0  0  0  0  0  0  0  0  0  0  0  0
   -6.6248    5.7902  -16.1573 C   0  0  0  0  0  0  0  0  0  0  0  0
  1  2  1  0
  2  3  2  0
  3  4  1  0
  4  5  2  0
  5  6  1  0
  6  7  2  0
  7  8  1  0
  7  9  1  0
  9 10  2  0
 10 11  1  0
 11 12  1  0
 12 13  1  0
 13 14  2  0
 13 15  1  0
 15 16  1  0
 16 17  1  0
 17 18  2  0
 18 19  1  0
 19 20  1  0
 20 21  1  0
 21 22  1  0
 21 23  2  0
 21 24  2  0
 11 25  2  0
 25  2  1  0
 25  6  1  0
 19 15  2  0
M  END
>  <energy_score>  (665) 
-22.499301

>  <alias>  (665) 
None

>  <HIPPO Pose ID>  (665) 
70028

>  <smiles>  (665) 
Cc1ccnc2c(Cl)ccc(NC(=O)c3sccc3NS(C)(=O)=O)c12

>  <inchikey>  (665) 
VHGRZYANBHHSHM-UHFFFAOYSA-N

>  <distance_score>  (665) 
0.983929

>  <ref_mols>  (665) 
Z0719a,Z1688a

>  <ref_pdb>  (665) 
Z0719a

>  <HIPPO Compound ID>  (665) 
140200

>  <name>  (665) 
P70028

>  <inspiration_score>  (665) 
None

$$$$
P70029
     RDKit          3D

 25 28  0  0  0  0  0  0  0  0999 V2000
   -7.4224    7.6780  -12.6458 O   0  0  0  0  0  0  0  0  0  0  0  0
   -6.8100    6.6878  -12.7132 C   0  0  0  0  0  0  0  0  0  0  0  0
   -6.5086    5.7829  -13.9183 N   0  0  0  0  0  0  0  0  0  0  0  0
   -6.9589    5.8476  -15.2327 C   0  0  0  0  0  0  0  0  0  0  0  0
   -8.3359    5.6929  -15.4299 C   0  0  0  0  0  0  0  0  0  0  0  0
   -9.5960    6.2273  -14.1419 Br  0  0  0  0  0  0  0  0  0  0  0  0
   -8.8124    5.0936  -16.5826 C   0  0  0  0  0  0  0  0  0  0  0  0
   -7.9236    4.7808  -17.6025 C   0  0  0  0  0  0  0  0  0  0  0  0
   -8.6128    4.0628  -19.0014 Cl  0  0  0  0  0  0  0  0  0  0  0  0
   -6.5535    5.0467  -17.5038 C   0  0  0  0  0  0  0  0  0  0  0  0
   -5.7099    4.8258  -18.5317 N   0  0  0  0  0  0  0  0  0  0  0  0
   -4.3962    5.0735  -18.3829 C   0  0  0  0  0  0  0  0  0  0  0  0
   -3.8356    5.5241  -17.2093 C   0  0  0  0  0  0  0  0  0  0  0  0
   -4.6842    5.7535  -16.1388 C   0  0  0  0  0  0  0  0  0  0  0  0
   -6.0686    5.5431  -16.2742 C   0  0  0  0  0  0  0  0  0  0  0  0
   -6.2776    6.0734  -11.4746 C   0  0  0  0  0  0  0  0  0  0  0  0
   -5.9992    7.1369  -10.1422 S   0  0  0  0  0  0  0  0  0  0  0  0
   -6.0040    5.8541   -9.0237 C   0  0  0  0  0  0  0  0  0  0  0  0
   -6.1761    4.6341   -9.6361 C   0  0  0  0  0  0  0  0  0  0  0  0
   -6.2354    4.7345  -11.0591 C   0  0  0  0  0  0  0  0  0  0  0  0
   -6.2931    3.5539  -11.8698 N   0  0  0  0  0  0  0  0  0  0  0  0
   -6.6774    2.2805  -11.5299 C   0  0  0  0  0  0  0  0  0  0  0  0
   -6.5507    1.4904  -12.5732 N   0  0  0  0  0  0  0  0  0  0  0  0
   -6.0123    2.2573  -13.5578 N   0  0  0  0  0  0  0  0  0  0  0  0
   -5.8121    3.4916  -13.1357 N   0  0  0  0  0  0  0  0  0  0  0  0
  1  2  2  0
  2  3  1  0
  3  4  1  0
  4  5  2  0
  5  6  1  0
  5  7  1  0
  7  8  2  0
  8  9  1  0
  8 10  1  0
 10 11  2  0
 11 12  1  0
 12 13  2  0
 13 14  1  0
 14 15  2  0
  2 16  1  0
 16 17  1  0
 17 18  1  0
 18 19  2  0
 19 20  1  0
 20 21  1  0
 21 22  1  0
 22 23  2  0
 23 24  1  0
 24 25  2  0
 15  4  1  0
 20 16  2  0
 25 21  1  0
 15 10  1  0
M  END
>  <energy_score>  (666) 
-6.671565

>  <alias>  (666) 
None

>  <HIPPO Pose ID>  (666) 
70029

>  <smiles>  (666) 
O=C(Nc1c(Br)cc(Cl)c2ncccc12)c1sccc1-n1cnnn1

>  <inchikey>  (666) 
WNFGOJAVGODYIB-UHFFFAOYSA-N

>  <distance_score>  (666) 
1.358957

>  <ref_mols>  (666) 
Z0719a,Z1688a

>  <ref_pdb>  (666) 
Z0719a

>  <HIPPO Compound ID>  (666) 
140210

>  <name>  (666) 
P70029

>  <inspiration_score>  (666) 
None

$$$$
P70030
     RDKit          3D

 25 28  0  0  0  0  0  0  0  0999 V2000
   -4.6783    6.9707  -14.8423 C   0  0  0  0  0  0  0  0  0  0  0  0
   -5.1104    6.2236  -16.0762 C   0  0  0  0  0  0  0  0  0  0  0  0
   -4.1352    6.0307  -17.0580 C   0  0  0  0  0  0  0  0  0  0  0  0
   -4.5008    5.4287  -18.2364 C   0  0  0  0  0  0  0  0  0  0  0  0
   -5.7475    5.0123  -18.4894 N   0  0  0  0  0  0  0  0  0  0  0  0
   -6.7128    5.1543  -17.5584 C   0  0  0  0  0  0  0  0  0  0  0  0
   -8.0136    4.7041  -17.8265 C   0  0  0  0  0  0  0  0  0  0  0  0
   -8.4101    3.9454  -19.3040 Cl  0  0  0  0  0  0  0  0  0  0  0  0
   -9.0618    4.8237  -16.9279 C   0  0  0  0  0  0  0  0  0  0  0  0
   -8.8118    5.3920  -15.7040 C   0  0  0  0  0  0  0  0  0  0  0  0
   -7.5208    5.8007  -15.3762 C   0  0  0  0  0  0  0  0  0  0  0  0
   -7.2983    5.8848  -14.0175 N   0  0  0  0  0  0  0  0  0  0  0  0
   -8.2311    6.3148  -12.8798 C   0  0  0  0  0  0  0  0  0  0  0  0
   -9.3142    6.7419  -12.9119 O   0  0  0  0  0  0  0  0  0  0  0  0
   -7.5829    6.0078  -11.6053 C   0  0  0  0  0  0  0  0  0  0  0  0
   -7.6936    7.1164  -10.3082 S   0  0  0  0  0  0  0  0  0  0  0  0
   -7.2586    5.9128   -9.1738 C   0  0  0  0  0  0  0  0  0  0  0  0
   -6.9923    4.7014   -9.7766 C   0  0  0  0  0  0  0  0  0  0  0  0
   -7.0736    4.7788  -11.1938 C   0  0  0  0  0  0  0  0  0  0  0  0
   -6.7470    3.6818  -12.0483 N   0  0  0  0  0  0  0  0  0  0  0  0
   -6.8930    2.3412  -11.8327 C   0  0  0  0  0  0  0  0  0  0  0  0
   -6.4226    1.6734  -12.8618 N   0  0  0  0  0  0  0  0  0  0  0  0
   -5.8996    2.6060  -13.6989 N   0  0  0  0  0  0  0  0  0  0  0  0
   -6.0578    3.8182  -13.2031 N   0  0  0  0  0  0  0  0  0  0  0  0
   -6.4426    5.7396  -16.2996 C   0  0  0  0  0  0  0  0  0  0  0  0
  1  2  1  0
  2  3  2  0
  3  4  1  0
  4  5  2  0
  5  6  1  0
  6  7  2  0
  7  8  1  0
  7  9  1  0
  9 10  2  0
 10 11  1  0
 11 12  1  0
 12 13  1  0
 13 14  2  0
 13 15  1  0
 15 16  1  0
 16 17  1  0
 17 18  2  0
 18 19  1  0
 19 20  1  0
 20 21  1  0
 21 22  2  0
 22 23  1  0
 23 24  2  0
 11 25  2  0
 25  2  1  0
 25  6  1  0
 19 15  2  0
 24 20  1  0
M  END
>  <energy_score>  (667) 
-29.071246

>  <alias>  (667) 
None

>  <HIPPO Pose ID>  (667) 
70030

>  <smiles>  (667) 
Cc1ccnc2c(Cl)ccc(NC(=O)c3sccc3-n3cnnn3)c12

>  <inchikey>  (667) 
OJUAHAYTTIOBCN-UHFFFAOYSA-N

>  <distance_score>  (667) 
1.871674

>  <ref_mols>  (667) 
Z0719a,Z1688a

>  <ref_pdb>  (667) 
Z0719a

>  <HIPPO Compound ID>  (667) 
140211

>  <name>  (667) 
P70030

>  <inspiration_score>  (667) 
None

$$$$
P70031
     RDKit          3D

 25 27  0  0  0  0  0  0  0  0999 V2000
   -7.2701    2.5759   -9.9087 C   0  0  0  0  0  0  0  0  0  0  0  0
   -6.6387    3.7990  -10.4909 C   0  0  0  0  0  0  0  0  0  0  0  0
   -6.6448    5.0360   -9.8651 C   0  0  0  0  0  0  0  0  0  0  0  0
   -5.8677    6.2575  -10.7747 S   0  0  0  0  0  0  0  0  0  0  0  0
   -5.5325    5.1518  -12.0116 C   0  0  0  0  0  0  0  0  0  0  0  0
   -5.2069    5.5802  -13.3489 C   0  0  0  0  0  0  0  0  0  0  0  0
   -4.1430    5.7524  -13.7910 O   0  0  0  0  0  0  0  0  0  0  0  0
   -6.5895    5.6386  -14.0227 N   0  0  0  0  0  0  0  0  0  0  0  0
   -6.9391    5.8211  -15.3594 C   0  0  0  0  0  0  0  0  0  0  0  0
   -8.3214    5.6152  -15.5039 C   0  0  0  0  0  0  0  0  0  0  0  0
   -9.4644    6.1616  -14.0946 Br  0  0  0  0  0  0  0  0  0  0  0  0
   -8.8404    5.0290  -16.6321 C   0  0  0  0  0  0  0  0  0  0  0  0
   -7.9740    4.7736  -17.6840 C   0  0  0  0  0  0  0  0  0  0  0  0
   -8.6820    4.0230  -19.0533 Cl  0  0  0  0  0  0  0  0  0  0  0  0
   -6.6228    5.1541  -17.6607 C   0  0  0  0  0  0  0  0  0  0  0  0
   -5.8424    4.9798  -18.7429 N   0  0  0  0  0  0  0  0  0  0  0  0
   -4.5651    5.3961  -18.7257 C   0  0  0  0  0  0  0  0  0  0  0  0
   -3.9913    6.0202  -17.6456 C   0  0  0  0  0  0  0  0  0  0  0  0
   -4.7760    6.1984  -16.5181 C   0  0  0  0  0  0  0  0  0  0  0  0
   -6.1014    5.7307  -16.4782 C   0  0  0  0  0  0  0  0  0  0  0  0
   -5.9596    3.8471  -11.7630 C   0  0  0  0  0  0  0  0  0  0  0  0
   -5.7981    2.7112  -12.7730 C   0  0  0  0  0  0  0  0  0  0  0  0
   -6.7346    1.7357  -12.6552 F   0  0  0  0  0  0  0  0  0  0  0  0
   -5.8819    3.1354  -14.0613 F   0  0  0  0  0  0  0  0  0  0  0  0
   -4.5811    2.1267  -12.6505 F   0  0  0  0  0  0  0  0  0  0  0  0
  1  2  1  0
  2  3  2  0
  3  4  1  0
  4  5  1  0
  5  6  1  0
  6  7  2  0
  6  8  1  0
  8  9  1  0
  9 10  2  0
 10 11  1  0
 10 12  1  0
 12 13  2  0
 13 14  1  0
 13 15  1  0
 15 16  2  0
 16 17  1  0
 17 18  2  0
 18 19  1  0
 19 20  2  0
  5 21  2  0
 21 22  1  0
 22 23  1  0
 22 24  1  0
 22 25  1  0
 21  2  1  0
 20  9  1  0
 20 15  1  0
M  END
>  <energy_score>  (668) 
-28.172192

>  <alias>  (668) 
None

>  <HIPPO Pose ID>  (668) 
70031

>  <smiles>  (668) 
Cc1csc(C(=O)Nc2c(Br)cc(Cl)c3ncccc23)c1C(F)(F)F

>  <inchikey>  (668) 
OJRIOKMWOVUSEX-UHFFFAOYSA-N

>  <distance_score>  (668) 
1.354954

>  <ref_mols>  (668) 
Z1688a,Z0719a

>  <ref_pdb>  (668) 
Z0719a

>  <HIPPO Compound ID>  (668) 
140380

>  <name>  (668) 
P70031

>  <inspiration_score>  (668) 
None

$$$$
P70032
     RDKit          3D

 25 27  0  0  0  0  0  0  0  0999 V2000
   -6.3763    2.0965   -9.7849 C   0  0  0  0  0  0  0  0  0  0  0  0
   -6.5450    3.5033  -10.2665 C   0  0  0  0  0  0  0  0  0  0  0  0
   -6.9472    4.5466   -9.4523 C   0  0  0  0  0  0  0  0  0  0  0  0
   -6.9964    6.0427  -10.2601 S   0  0  0  0  0  0  0  0  0  0  0  0
   -6.5955    5.2926  -11.7347 C   0  0  0  0  0  0  0  0  0  0  0  0
   -6.6737    6.0851  -12.9488 C   0  0  0  0  0  0  0  0  0  0  0  0
   -6.2115    7.1457  -13.0716 O   0  0  0  0  0  0  0  0  0  0  0  0
   -7.3721    5.1828  -13.9682 N   0  0  0  0  0  0  0  0  0  0  0  0
   -7.5617    5.3413  -15.3230 C   0  0  0  0  0  0  0  0  0  0  0  0
   -8.8399    4.8557  -15.6263 C   0  0  0  0  0  0  0  0  0  0  0  0
   -9.1823    4.5400  -16.9042 C   0  0  0  0  0  0  0  0  0  0  0  0
   -8.2108    4.6745  -17.8716 C   0  0  0  0  0  0  0  0  0  0  0  0
   -8.6422    3.9995  -19.3754 Cl  0  0  0  0  0  0  0  0  0  0  0  0
   -6.9369    5.2075  -17.6409 C   0  0  0  0  0  0  0  0  0  0  0  0
   -6.1281    5.3063  -18.7107 N   0  0  0  0  0  0  0  0  0  0  0  0
   -4.8740    5.7304  -18.5878 C   0  0  0  0  0  0  0  0  0  0  0  0
   -4.3423    6.0733  -17.3800 C   0  0  0  0  0  0  0  0  0  0  0  0
   -5.1422    5.9735  -16.2281 C   0  0  0  0  0  0  0  0  0  0  0  0
   -4.4027    6.3569  -14.9810 C   0  0  0  0  0  0  0  0  0  0  0  0
   -6.5370    5.5622  -16.3250 C   0  0  0  0  0  0  0  0  0  0  0  0
   -6.2719    3.9359  -11.6151 C   0  0  0  0  0  0  0  0  0  0  0  0
   -5.7792    2.9889  -12.7102 C   0  0  0  0  0  0  0  0  0  0  0  0
   -5.4118    3.6062  -13.8577 F   0  0  0  0  0  0  0  0  0  0  0  0
   -6.7386    2.0874  -13.0591 F   0  0  0  0  0  0  0  0  0  0  0  0
   -4.6915    2.2793  -12.3172 F   0  0  0  0  0  0  0  0  0  0  0  0
  1  2  1  0
  2  3  2  0
  3  4  1  0
  4  5  1  0
  5  6  1  0
  6  7  2  0
  6  8  1  0
  8  9  1  0
  9 10  2  0
 10 11  1  0
 11 12  2  0
 12 13  1  0
 12 14  1  0
 14 15  2  0
 15 16  1  0
 16 17  2  0
 17 18  1  0
 18 19  1  0
 18 20  2  0
  5 21  2  0
 21 22  1  0
 22 23  1  0
 22 24  1  0
 22 25  1  0
 21  2  1  0
 20  9  1  0
 20 14  1  0
M  END
>  <energy_score>  (669) 
-7.660877

>  <alias>  (669) 
None

>  <HIPPO Pose ID>  (669) 
70032

>  <smiles>  (669) 
Cc1csc(C(=O)Nc2ccc(Cl)c3nccc(C)c23)c1C(F)(F)F

>  <inchikey>  (669) 
PYDRBLWNXBJPGT-UHFFFAOYSA-N

>  <distance_score>  (669) 
1.134516

>  <ref_mols>  (669) 
Z0719a,Z1688a

>  <ref_pdb>  (669) 
Z0719a

>  <HIPPO Compound ID>  (669) 
140381

>  <name>  (669) 
P70032

>  <inspiration_score>  (669) 
None

$$$$
P70033
     RDKit          3D

 25 28  0  0  0  0  0  0  0  0999 V2000
   -4.5901    7.3930  -13.5645 O   0  0  0  0  0  0  0  0  0  0  0  0
   -5.5301    6.8767  -13.1044 C   0  0  0  0  0  0  0  0  0  0  0  0
   -6.7184    6.1681  -13.7889 N   0  0  0  0  0  0  0  0  0  0  0  0
   -6.9467    5.8710  -15.1374 C   0  0  0  0  0  0  0  0  0  0  0  0
   -8.3155    5.6065  -15.3509 C   0  0  0  0  0  0  0  0  0  0  0  0
   -9.5672    6.2438  -14.0720 Br  0  0  0  0  0  0  0  0  0  0  0  0
   -8.7865    5.0143  -16.5000 C   0  0  0  0  0  0  0  0  0  0  0  0
   -7.8857    4.7877  -17.5245 C   0  0  0  0  0  0  0  0  0  0  0  0
   -8.5509    4.0897  -18.9505 Cl  0  0  0  0  0  0  0  0  0  0  0  0
   -6.5279    5.1195  -17.4170 C   0  0  0  0  0  0  0  0  0  0  0  0
   -5.7180    4.9281  -18.4742 N   0  0  0  0  0  0  0  0  0  0  0  0
   -4.4038    5.1705  -18.3665 C   0  0  0  0  0  0  0  0  0  0  0  0
   -3.8139    5.5760  -17.1967 C   0  0  0  0  0  0  0  0  0  0  0  0
   -4.6343    5.7831  -16.0961 C   0  0  0  0  0  0  0  0  0  0  0  0
   -6.0314    5.6248  -16.1815 C   0  0  0  0  0  0  0  0  0  0  0  0
   -5.7764    6.6796  -11.6777 C   0  0  0  0  0  0  0  0  0  0  0  0
   -6.0215    7.9805  -10.6134 S   0  0  0  0  0  0  0  0  0  0  0  0
   -6.5483    6.9221   -9.3655 C   0  0  0  0  0  0  0  0  0  0  0  0
   -6.5327    5.5976   -9.7569 C   0  0  0  0  0  0  0  0  0  0  0  0
   -6.0230    5.4577  -11.0666 C   0  0  0  0  0  0  0  0  0  0  0  0
   -5.8710    4.1690  -11.7488 C   0  0  0  0  0  0  0  0  0  0  0  0
   -6.9819    3.4270  -12.2239 C   0  0  0  0  0  0  0  0  0  0  0  0
   -6.5894    2.4498  -13.1100 C   0  0  0  0  0  0  0  0  0  0  0  0
   -4.8976    2.3056  -13.2119 S   0  0  0  0  0  0  0  0  0  0  0  0
   -4.6761    3.6376  -12.1764 C   0  0  0  0  0  0  0  0  0  0  0  0
  1  2  2  0
  2  3  1  0
  3  4  1  0
  4  5  2  0
  5  6  1  0
  5  7  1  0
  7  8  2  0
  8  9  1  0
  8 10  1  0
 10 11  2  0
 11 12  1  0
 12 13  2  0
 13 14  1  0
 14 15  2  0
  2 16  1  0
 16 17  1  0
 17 18  1  0
 18 19  2  0
 19 20  1  0
 20 21  1  0
 21 22  1  0
 22 23  2  0
 23 24  1  0
 24 25  1  0
 15  4  1  0
 20 16  2  0
 25 21  2  0
 15 10  1  0
M  END
>  <energy_score>  (670) 
-26.035524

>  <alias>  (670) 
None

>  <HIPPO Pose ID>  (670) 
70033

>  <smiles>  (670) 
O=C(Nc1c(Br)cc(Cl)c2ncccc12)c1sccc1-c1ccsc1

>  <inchikey>  (670) 
OHGUNXWHYONBAK-UHFFFAOYSA-N

>  <distance_score>  (670) 
1.58236

>  <ref_mols>  (670) 
Z0719a,Z1688a

>  <ref_pdb>  (670) 
Z0719a

>  <HIPPO Compound ID>  (670) 
140392

>  <name>  (670) 
P70033

>  <inspiration_score>  (670) 
None

$$$$
P70034
     RDKit          3D

 25 28  0  0  0  0  0  0  0  0999 V2000
   -4.3705    5.9790  -14.5899 C   0  0  0  0  0  0  0  0  0  0  0  0
   -5.1042    5.9073  -15.8975 C   0  0  0  0  0  0  0  0  0  0  0  0
   -4.2947    6.1466  -17.0177 C   0  0  0  0  0  0  0  0  0  0  0  0
   -4.8113    5.9210  -18.2640 C   0  0  0  0  0  0  0  0  0  0  0  0
   -6.0496    5.4614  -18.4528 N   0  0  0  0  0  0  0  0  0  0  0  0
   -6.8639    5.2390  -17.4028 C   0  0  0  0  0  0  0  0  0  0  0  0
   -8.1104    4.6527  -17.6560 C   0  0  0  0  0  0  0  0  0  0  0  0
   -8.5536    4.0776  -19.2076 Cl  0  0  0  0  0  0  0  0  0  0  0  0
   -9.0461    4.4079  -16.6710 C   0  0  0  0  0  0  0  0  0  0  0  0
   -8.7250    4.7234  -15.3798 C   0  0  0  0  0  0  0  0  0  0  0  0
   -7.4943    5.3130  -15.0664 C   0  0  0  0  0  0  0  0  0  0  0  0
   -7.4143    5.5171  -13.6978 N   0  0  0  0  0  0  0  0  0  0  0  0
   -6.8559    6.7093  -12.8923 C   0  0  0  0  0  0  0  0  0  0  0  0
   -6.3053    7.6736  -13.2518 O   0  0  0  0  0  0  0  0  0  0  0  0
   -7.0750    6.3837  -11.4806 C   0  0  0  0  0  0  0  0  0  0  0  0
   -7.6354    7.5856  -10.4033 S   0  0  0  0  0  0  0  0  0  0  0  0
   -7.8762    6.4334   -9.1580 C   0  0  0  0  0  0  0  0  0  0  0  0
   -7.4743    5.1691   -9.5340 C   0  0  0  0  0  0  0  0  0  0  0  0
   -6.9361    5.1584  -10.8419 C   0  0  0  0  0  0  0  0  0  0  0  0
   -6.3401    3.9490  -11.4260 C   0  0  0  0  0  0  0  0  0  0  0  0
   -4.9316    3.8206  -11.6080 C   0  0  0  0  0  0  0  0  0  0  0  0
   -4.6130    2.6978  -12.3411 C   0  0  0  0  0  0  0  0  0  0  0  0
   -6.0062    1.8306  -12.8083 S   0  0  0  0  0  0  0  0  0  0  0  0
   -7.0350    2.8697  -11.9315 C   0  0  0  0  0  0  0  0  0  0  0  0
   -6.4869    5.5352  -16.0630 C   0  0  0  0  0  0  0  0  0  0  0  0
  1  2  1  0
  2  3  2  0
  3  4  1  0
  4  5  2  0
  5  6  1  0
  6  7  2  0
  7  8  1  0
  7  9  1  0
  9 10  2  0
 10 11  1  0
 11 12  1  0
 12 13  1  0
 13 14  2  0
 13 15  1  0
 15 16  1  0
 16 17  1  0
 17 18  2  0
 18 19  1  0
 19 20  1  0
 20 21  1  0
 21 22  2  0
 22 23  1  0
 23 24  1  0
 11 25  2  0
 25  2  1  0
 25  6  1  0
 19 15  2  0
 24 20  2  0
M  END
>  <energy_score>  (671) 
-39.54053

>  <alias>  (671) 
None

>  <HIPPO Pose ID>  (671) 
70034

>  <smiles>  (671) 
Cc1ccnc2c(Cl)ccc(NC(=O)c3sccc3-c3ccsc3)c12

>  <inchikey>  (671) 
USIYZJBYYLDEJZ-UHFFFAOYSA-N

>  <distance_score>  (671) 
1.639641

>  <ref_mols>  (671) 
Z0719a,Z1688a

>  <ref_pdb>  (671) 
Z0719a

>  <HIPPO Compound ID>  (671) 
140393

>  <name>  (671) 
P70034

>  <inspiration_score>  (671) 
None

$$$$
P70035
     RDKit          3D

 25 28  0  0  0  0  0  0  0  0999 V2000
   -7.6691    7.9430  -12.7551 O   0  0  0  0  0  0  0  0  0  0  0  0
   -6.9151    7.0523  -12.8110 C   0  0  0  0  0  0  0  0  0  0  0  0
   -6.4973    6.1652  -14.0092 N   0  0  0  0  0  0  0  0  0  0  0  0
   -6.9743    6.1284  -15.3189 C   0  0  0  0  0  0  0  0  0  0  0  0
   -8.3393    5.8443  -15.4831 C   0  0  0  0  0  0  0  0  0  0  0  0
   -9.6306    6.2644  -14.1812 Br  0  0  0  0  0  0  0  0  0  0  0  0
   -8.7865    5.1523  -16.5985 C   0  0  0  0  0  0  0  0  0  0  0  0
   -7.8924    4.8468  -17.6146 C   0  0  0  0  0  0  0  0  0  0  0  0
   -8.5585    4.0430  -18.9785 Cl  0  0  0  0  0  0  0  0  0  0  0  0
   -6.5371    5.1807  -17.5354 C   0  0  0  0  0  0  0  0  0  0  0  0
   -5.6848    4.9020  -18.5406 N   0  0  0  0  0  0  0  0  0  0  0  0
   -4.3800    5.2009  -18.4118 C   0  0  0  0  0  0  0  0  0  0  0  0
   -3.8389    5.7682  -17.2808 C   0  0  0  0  0  0  0  0  0  0  0  0
   -4.6987    6.0646  -16.2359 C   0  0  0  0  0  0  0  0  0  0  0  0
   -6.0753    5.7956  -16.3487 C   0  0  0  0  0  0  0  0  0  0  0  0
   -6.2690    6.5405  -11.5986 C   0  0  0  0  0  0  0  0  0  0  0  0
   -5.8963    7.5902  -10.3018 S   0  0  0  0  0  0  0  0  0  0  0  0
   -5.4317    6.2837   -9.2953 C   0  0  0  0  0  0  0  0  0  0  0  0
   -5.5947    5.0620   -9.9134 C   0  0  0  0  0  0  0  0  0  0  0  0
   -6.0905    5.2077  -11.2289 C   0  0  0  0  0  0  0  0  0  0  0  0
   -6.3027    4.0870  -12.0847 N   0  0  0  0  0  0  0  0  0  0  0  0
   -7.5199    3.6339  -12.5443 C   0  0  0  0  0  0  0  0  0  0  0  0
   -7.2521    3.0797  -13.7707 C   0  0  0  0  0  0  0  0  0  0  0  0
   -5.9256    3.1905  -14.0451 N   0  0  0  0  0  0  0  0  0  0  0  0
   -5.3408    3.7535  -12.9940 N   0  0  0  0  0  0  0  0  0  0  0  0
  1  2  2  0
  2  3  1  0
  3  4  1  0
  4  5  2  0
  5  6  1  0
  5  7  1  0
  7  8  2  0
  8  9  1  0
  8 10  1  0
 10 11  2  0
 11 12  1  0
 12 13  2  0
 13 14  1  0
 14 15  2  0
  2 16  1  0
 16 17  1  0
 17 18  1  0
 18 19  2  0
 19 20  1  0
 20 21  1  0
 21 22  1  0
 22 23  2  0
 23 24  1  0
 24 25  2  0
 15  4  1  0
 20 16  2  0
 25 21  1  0
 15 10  1  0
M  END
>  <energy_score>  (672) 
-2.833881

>  <alias>  (672) 
None

>  <HIPPO Pose ID>  (672) 
70035

>  <smiles>  (672) 
O=C(Nc1c(Br)cc(Cl)c2ncccc12)c1sccc1-n1ccnn1

>  <inchikey>  (672) 
QAGRFHPTETVAMP-UHFFFAOYSA-N

>  <distance_score>  (672) 
1.694438

>  <ref_mols>  (672) 
Z0719a,Z1688a

>  <ref_pdb>  (672) 
Z0719a

>  <HIPPO Compound ID>  (672) 
140401

>  <name>  (672) 
P70035

>  <inspiration_score>  (672) 
None

$$$$
P70036
     RDKit          3D

 25 28  0  0  0  0  0  0  0  0999 V2000
   -4.6921    7.1825  -14.8828 C   0  0  0  0  0  0  0  0  0  0  0  0
   -5.1404    6.3674  -16.0675 C   0  0  0  0  0  0  0  0  0  0  0  0
   -4.1661    6.1009  -17.0344 C   0  0  0  0  0  0  0  0  0  0  0  0
   -4.5355    5.4315  -18.1742 C   0  0  0  0  0  0  0  0  0  0  0  0
   -5.7855    5.0119  -18.4010 N   0  0  0  0  0  0  0  0  0  0  0  0
   -6.7483    5.2204  -17.4820 C   0  0  0  0  0  0  0  0  0  0  0  0
   -8.0459    4.7537  -17.7287 C   0  0  0  0  0  0  0  0  0  0  0  0
   -8.4570    3.9580  -19.1872 Cl  0  0  0  0  0  0  0  0  0  0  0  0
   -9.0869    4.9086  -16.8279 C   0  0  0  0  0  0  0  0  0  0  0  0
   -8.8450    5.5672  -15.6441 C   0  0  0  0  0  0  0  0  0  0  0  0
   -7.5628    6.0224  -15.3419 C   0  0  0  0  0  0  0  0  0  0  0  0
   -7.3314    6.2399  -13.9928 N   0  0  0  0  0  0  0  0  0  0  0  0
   -8.3136    6.5966  -12.8474 C   0  0  0  0  0  0  0  0  0  0  0  0
   -9.4557    6.8383  -12.8778 O   0  0  0  0  0  0  0  0  0  0  0  0
   -7.5744    6.4850  -11.6002 C   0  0  0  0  0  0  0  0  0  0  0  0
   -7.4749    7.7490  -10.4730 S   0  0  0  0  0  0  0  0  0  0  0  0
   -6.3380    6.8757   -9.5276 C   0  0  0  0  0  0  0  0  0  0  0  0
   -6.0613    5.6312  -10.0588 C   0  0  0  0  0  0  0  0  0  0  0  0
   -6.8404    5.3729  -11.2088 C   0  0  0  0  0  0  0  0  0  0  0  0
   -6.7371    4.1864  -11.9993 N   0  0  0  0  0  0  0  0  0  0  0  0
   -7.7493    3.5931  -12.7186 C   0  0  0  0  0  0  0  0  0  0  0  0
   -7.1290    3.0756  -13.8245 C   0  0  0  0  0  0  0  0  0  0  0  0
   -5.7862    3.2559  -13.7216 N   0  0  0  0  0  0  0  0  0  0  0  0
   -5.5437    3.8192  -12.5391 N   0  0  0  0  0  0  0  0  0  0  0  0
   -6.4797    5.8873  -16.2596 C   0  0  0  0  0  0  0  0  0  0  0  0
  1  2  1  0
  2  3  2  0
  3  4  1  0
  4  5  2  0
  5  6  1  0
  6  7  2  0
  7  8  1  0
  7  9  1  0
  9 10  2  0
 10 11  1  0
 11 12  1  0
 12 13  1  0
 13 14  2  0
 13 15  1  0
 15 16  1  0
 16 17  1  0
 17 18  2  0
 18 19  1  0
 19 20  1  0
 20 21  1  0
 21 22  2  0
 22 23  1  0
 23 24  2  0
 11 25  2  0
 25  2  1  0
 25  6  1  0
 19 15  2  0
 24 20  1  0
M  END
>  <energy_score>  (673) 
-34.657709

>  <alias>  (673) 
None

>  <HIPPO Pose ID>  (673) 
70036

>  <smiles>  (673) 
Cc1ccnc2c(Cl)ccc(NC(=O)c3sccc3-n3ccnn3)c12

>  <inchikey>  (673) 
HDFQRNCKICOMNP-UHFFFAOYSA-N

>  <distance_score>  (673) 
1.575299

>  <ref_mols>  (673) 
Z1688a,Z0719a

>  <ref_pdb>  (673) 
Z0719a

>  <HIPPO Compound ID>  (673) 
140402

>  <name>  (673) 
P70036

>  <inspiration_score>  (673) 
None

$$$$
P70037
     RDKit          3D

 24 27  0  0  0  0  0  0  0  0999 V2000
   -9.7667    4.4398  -17.5971 C   0  0  0  0  0  0  0  0  0  0  0  0
   -9.2357    4.1676  -16.1985 C   0  0  0  0  0  0  0  0  0  0  0  0
   -9.0584    5.3952  -15.2904 C   0  0  0  0  0  0  0  0  0  0  0  0
   -7.9841    5.2858  -14.3640 O   0  0  0  0  0  0  0  0  0  0  0  0
   -6.8173    5.2467  -15.0539 C   0  0  0  0  0  0  0  0  0  0  0  0
   -6.8485    5.9103  -16.2298 N   0  0  0  0  0  0  0  0  0  0  0  0
   -5.9847    5.5607  -17.1527 C   0  0  0  0  0  0  0  0  0  0  0  0
   -6.2721    5.9126  -18.4599 C   0  0  0  0  0  0  0  0  0  0  0  0
   -5.4182    5.5691  -19.4937 C   0  0  0  0  0  0  0  0  0  0  0  0
   -4.2270    4.9299  -19.1903 C   0  0  0  0  0  0  0  0  0  0  0  0
   -3.9395    4.5588  -17.8708 C   0  0  0  0  0  0  0  0  0  0  0  0
   -4.8572    4.8040  -16.8368 C   0  0  0  0  0  0  0  0  0  0  0  0
   -4.7683    4.2611  -15.5218 C   0  0  0  0  0  0  0  0  0  0  0  0
   -5.8387    4.3832  -14.6211 C   0  0  0  0  0  0  0  0  0  0  0  0
   -6.0993    3.4331  -13.4554 C   0  0  1  0  0  0  0  0  0  0  0  0
   -4.8824    2.8165  -13.0628 O   0  0  0  0  0  0  0  0  0  0  0  0
   -6.7649    4.0008  -12.3078 N   0  0  0  0  0  0  0  0  0  0  0  0
   -6.0152    4.9577  -11.4908 C   0  0  0  0  0  0  0  0  0  0  0  0
   -6.8576    5.4075  -10.2728 C   0  0  1  0  0  0  0  0  0  0  0  0
   -8.3656    5.4054  -10.6051 C   0  0  0  0  0  0  0  0  0  0  0  0
   -8.2211    3.8771  -10.3150 C   0  0  1  0  0  0  0  0  0  0  0  0
   -7.6383    3.1101  -11.5341 C   0  0  0  0  0  0  0  0  0  0  0  0
   -7.0859    4.2187   -9.3800 N   0  0  0  0  0  0  0  0  0  0  0  0
   -7.5528    4.5735   -8.0461 C   0  0  0  0  0  0  0  0  0  0  0  0
  1  2  1  0
  2  3  1  0
  3  4  1  0
  4  5  1  0
  5  6  2  0
  6  7  1  0
  7  8  2  0
  8  9  1  0
  9 10  2  0
 10 11  1  0
 11 12  2  0
 12 13  1  0
 13 14  2  0
 14 15  1  0
 15 16  1  1
 15 17  1  0
 17 18  1  0
 19 18  1  6
 19 20  1  0
 21 20  1  6
 21 22  1  0
 21 23  1  0
 23 24  1  0
 14  5  1  0
 22 17  1  0
 12  7  1  0
 23 19  1  0
M  END
>  <energy_score>  (674) 
-18.880775

>  <alias>  (674) 
None

>  <HIPPO Pose ID>  (674) 
70037

>  <smiles>  (674) 
CCCOc1nc2ccccc2cc1[C@@H](O)N1C[C@H]2C[C@@H](C1)N2C

>  <inchikey>  (674) 
OXPUVAFKDHDJAL-ZRGWGRIASA-N

>  <distance_score>  (674) 
1.962492

>  <ref_mols>  (674) 
Z0673a,Z1719a

>  <ref_pdb>  (674) 
Z0673a

>  <HIPPO Compound ID>  (674) 
140476

>  <name>  (674) 
P70037

>  <inspiration_score>  (674) 
None

$$$$
P70038
     RDKit          3D

 25 28  0  0  0  0  0  0  0  0999 V2000
   -9.7595    4.4511  -17.5287 C   0  0  0  0  0  0  0  0  0  0  0  0
   -9.3016    4.1937  -16.1003 C   0  0  0  0  0  0  0  0  0  0  0  0
   -9.1181    5.4361  -15.2027 C   0  0  0  0  0  0  0  0  0  0  0  0
   -8.0108    5.3399  -14.3144 O   0  0  0  0  0  0  0  0  0  0  0  0
   -6.8667    5.2443  -15.0344 C   0  0  0  0  0  0  0  0  0  0  0  0
   -6.9065    5.8702  -16.2323 N   0  0  0  0  0  0  0  0  0  0  0  0
   -6.0204    5.5248  -17.1365 C   0  0  0  0  0  0  0  0  0  0  0  0
   -6.2760    5.8651  -18.4563 C   0  0  0  0  0  0  0  0  0  0  0  0
   -5.3781    5.5411  -19.4609 C   0  0  0  0  0  0  0  0  0  0  0  0
   -4.1889    4.9336  -19.1042 C   0  0  0  0  0  0  0  0  0  0  0  0
   -3.2601    4.6874  -20.0373 F   0  0  0  0  0  0  0  0  0  0  0  0
   -3.9297    4.5642  -17.7853 C   0  0  0  0  0  0  0  0  0  0  0  0
   -4.8834    4.7931  -16.7860 C   0  0  0  0  0  0  0  0  0  0  0  0
   -4.8090    4.2602  -15.4695 C   0  0  0  0  0  0  0  0  0  0  0  0
   -5.8899    4.3859  -14.5852 C   0  0  0  0  0  0  0  0  0  0  0  0
   -6.1566    3.4446  -13.4134 C   0  0  1  0  0  0  0  0  0  0  0  0
   -4.9460    2.8134  -13.0247 O   0  0  0  0  0  0  0  0  0  0  0  0
   -6.8089    4.0267  -12.2667 N   0  0  0  0  0  0  0  0  0  0  0  0
   -6.0391    4.9769  -11.4601 C   0  0  0  0  0  0  0  0  0  0  0  0
   -6.8648    5.4428  -10.2371 C   0  0  1  0  0  0  0  0  0  0  0  0
   -8.3755    5.4567  -10.5565 C   0  0  0  0  0  0  0  0  0  0  0  0
   -8.2463    3.9281  -10.2593 C   0  0  1  0  0  0  0  0  0  0  0  0
   -7.6836    3.1483  -11.4796 C   0  0  0  0  0  0  0  0  0  0  0  0
   -7.0990    4.2615   -9.3363 N   0  0  0  0  0  0  0  0  0  0  0  0
   -7.5498    4.6287   -8.0002 C   0  0  0  0  0  0  0  0  0  0  0  0
  1  2  1  0
  2  3  1  0
  3  4  1  0
  4  5  1  0
  5  6  2  0
  6  7  1  0
  7  8  2  0
  8  9  1  0
  9 10  2  0
 10 11  1  0
 10 12  1  0
 12 13  2  0
 13 14  1  0
 14 15  2  0
 15 16  1  0
 16 17  1  1
 16 18  1  0
 18 19  1  0
 20 19  1  6
 20 21  1  0
 22 21  1  6
 22 23  1  0
 22 24  1  0
 24 25  1  0
 15  5  1  0
 23 18  1  0
 13  7  1  0
 24 20  1  0
M  END
>  <energy_score>  (675) 
-44.334483

>  <alias>  (675) 
None

>  <HIPPO Pose ID>  (675) 
70038

>  <smiles>  (675) 
CCCOc1nc2ccc(F)cc2cc1[C@@H](O)N1C[C@H]2C[C@@H](C1)N2C

>  <inchikey>  (675) 
YNSUJDAXDBGSKI-ZRGWGRIASA-N

>  <distance_score>  (675) 
1.949387

>  <ref_mols>  (675) 
Z0673a,Z1719a

>  <ref_pdb>  (675) 
Z0673a

>  <HIPPO Compound ID>  (675) 
140479

>  <name>  (675) 
P70038

>  <inspiration_score>  (675) 
None

$$$$
P70040
     RDKit          3D

 25 28  0  0  0  0  0  0  0  0999 V2000
   -9.8178    4.4855  -17.5627 C   0  0  0  0  0  0  0  0  0  0  0  0
   -9.3315    4.2523  -16.1407 C   0  0  0  0  0  0  0  0  0  0  0  0
   -9.1678    5.5064  -15.2553 C   0  0  0  0  0  0  0  0  0  0  0  0
   -8.1755    5.3358  -14.2383 O   0  0  0  0  0  0  0  0  0  0  0  0
   -6.9642    5.2456  -14.8527 C   0  0  0  0  0  0  0  0  0  0  0  0
   -6.8793    5.9430  -16.0055 N   0  0  0  0  0  0  0  0  0  0  0  0
   -6.0063    5.5534  -16.9016 C   0  0  0  0  0  0  0  0  0  0  0  0
   -6.2305    5.9234  -18.2184 C   0  0  0  0  0  0  0  0  0  0  0  0
   -5.3572    5.5462  -19.2232 C   0  0  0  0  0  0  0  0  0  0  0  0
   -4.2030    4.8644  -18.8737 C   0  0  0  0  0  0  0  0  0  0  0  0
   -3.9849    4.4760  -17.5436 C   0  0  0  0  0  0  0  0  0  0  0  0
   -4.9385    4.7379  -16.5451 C   0  0  0  0  0  0  0  0  0  0  0  0
   -4.9550    4.1620  -15.2350 C   0  0  0  0  0  0  0  0  0  0  0  0
   -6.0733    4.3086  -14.3920 C   0  0  0  0  0  0  0  0  0  0  0  0
   -6.4502    3.3120  -13.2975 C   0  0  1  0  0  0  0  0  0  0  0  0
   -5.2848    2.7508  -12.7229 O   0  0  0  0  0  0  0  0  0  0  0  0
   -7.3885    3.6939  -12.2453 N   0  0  0  0  0  0  0  0  0  0  0  0
   -6.8484    4.3739  -11.0679 C   0  0  1  0  0  0  0  0  0  0  0  0
   -5.8419    5.5286  -11.3322 C   0  0  0  0  0  0  0  0  0  0  0  0
   -6.0296    6.6733  -10.4096 N   0  0  0  0  0  0  0  0  0  0  0  0
   -6.0984    6.1663   -9.0210 C   0  0  0  0  0  0  0  0  0  0  0  0
   -7.3247    5.2656   -8.7999 C   0  0  0  0  0  0  0  0  0  0  0  0
   -7.9680    4.9504  -10.1637 C   0  0  0  0  0  0  0  0  0  0  0  0
   -8.4568    6.2957  -10.7344 C   0  0  0  0  0  0  0  0  0  0  0  0
   -7.3116    7.3140  -10.7511 C   0  0  0  0  0  0  0  0  0  0  0  0
  1  2  1  0
  2  3  1  0
  3  4  1  0
  4  5  1  0
  5  6  2  0
  6  7  1  0
  7  8  2  0
  8  9  1  0
  9 10  2  0
 10 11  1  0
 11 12  2  0
 12 13  1  0
 13 14  2  0
 14 15  1  0
 15 16  1  1
 15 17  1  0
 18 17  1  6
 18 19  1  0
 20 19  1  0
 20 21  1  0
 21 22  1  0
 22 23  1  0
 23 24  1  0
 24 25  1  0
 14  5  1  0
 23 18  1  0
 12  7  1  0
 25 20  1  0
M  END
>  <energy_score>  (676) 
-24.518665

>  <alias>  (676) 
None

>  <HIPPO Pose ID>  (676) 
70040

>  <smiles>  (676) 
CCCOc1nc2ccccc2cc1[C@@H](O)N[C@H]1CN2CCC1CC2

>  <inchikey>  (676) 
GCGXPLVGMBGIGW-RBUKOAKNSA-N

>  <distance_score>  (676) 
1.84918

>  <ref_mols>  (676) 
Z0673a,Z1719a

>  <ref_pdb>  (676) 
Z0673a

>  <HIPPO Compound ID>  (676) 
140481

>  <name>  (676) 
P70040

>  <inspiration_score>  (676) 
None

$$$$
P70041
     RDKit          3D

 25 28  0  0  0  0  0  0  0  0999 V2000
   -9.8959    4.1324  -17.8075 C   0  0  0  0  0  0  0  0  0  0  0  0
   -8.9981    3.8676  -16.6118 C   0  0  0  0  0  0  0  0  0  0  0  0
   -9.2328    4.8105  -15.4240 C   0  0  0  0  0  0  0  0  0  0  0  0
   -8.2160    5.0246  -14.4476 O   0  0  0  0  0  0  0  0  0  0  0  0
   -7.0195    5.2036  -15.0431 C   0  0  0  0  0  0  0  0  0  0  0  0
   -7.0656    5.9264  -16.1811 N   0  0  0  0  0  0  0  0  0  0  0  0
   -6.1413    5.6511  -17.0816 C   0  0  0  0  0  0  0  0  0  0  0  0
   -6.4114    5.9753  -18.4003 C   0  0  0  0  0  0  0  0  0  0  0  0
   -5.5288    5.6448  -19.4177 C   0  0  0  0  0  0  0  0  0  0  0  0
   -4.3274    5.0347  -19.0954 C   0  0  0  0  0  0  0  0  0  0  0  0
   -4.0468    4.6935  -17.7686 C   0  0  0  0  0  0  0  0  0  0  0  0
   -4.9841    4.9345  -16.7517 C   0  0  0  0  0  0  0  0  0  0  0  0
   -4.8830    4.3940  -15.4413 C   0  0  0  0  0  0  0  0  0  0  0  0
   -5.9840    4.4272  -14.5743 C   0  0  0  0  0  0  0  0  0  0  0  0
   -6.2074    3.4815  -13.4020 C   0  0  1  0  0  0  0  0  0  0  0  0
   -5.0728    2.6266  -13.2914 O   0  0  0  0  0  0  0  0  0  0  0  0
   -6.4173    4.0115  -12.0791 N   0  0  0  0  0  0  0  0  0  0  0  0
   -7.7700    3.9915  -11.5075 C   0  0  0  0  0  0  0  0  0  0  0  0
   -7.9307    5.1758  -10.5080 C   0  0  2  0  0  0  0  0  0  0  0  0
   -7.7092    6.4763  -11.3096 C   0  0  0  0  0  0  0  0  0  0  0  0
   -6.2827    6.4867  -11.8791 C   0  0  0  0  0  0  0  0  0  0  0  0
   -5.6089    5.1319  -11.5873 C   0  0  1  0  0  0  0  0  0  0  0  0
   -5.5606    4.9792  -10.0328 C   0  0  0  0  0  0  0  0  0  0  0  0
   -6.9035    5.1829   -9.4285 N   0  0  0  0  0  0  0  0  0  0  0  0
   -7.1811    4.1698   -8.4119 C   0  0  0  0  0  0  0  0  0  0  0  0
  1  2  1  0
  2  3  1  0
  3  4  1  0
  4  5  1  0
  5  6  2  0
  6  7  1  0
  7  8  2  0
  8  9  1  0
  9 10  2  0
 10 11  1  0
 11 12  2  0
 12 13  1  0
 13 14  2  0
 14 15  1  0
 15 16  1  1
 15 17  1  0
 17 18  1  0
 19 18  1  6
 19 20  1  0
 20 21  1  0
 22 21  1  1
 22 23  1  0
 23 24  1  0
 24 25  1  0
 14  5  1  0
 22 17  1  0
 12  7  1  0
 24 19  1  0
M  END
>  <energy_score>  (677) 
-37.550119

>  <alias>  (677) 
None

>  <HIPPO Pose ID>  (677) 
70041

>  <smiles>  (677) 
CCCOc1nc2ccccc2cc1[C@@H](O)N1C[C@@H]2CC[C@H]1CN2C

>  <inchikey>  (677) 
LKEBCQJCVOWJFA-TWOQFEAHSA-N

>  <distance_score>  (677) 
1.669702

>  <ref_mols>  (677) 
Z0673a,Z1719a

>  <ref_pdb>  (677) 
Z0673a

>  <HIPPO Compound ID>  (677) 
140482

>  <name>  (677) 
P70041

>  <inspiration_score>  (677) 
None

$$$$
P70042
     RDKit          3D

 26 29  0  0  0  0  0  0  0  0999 V2000
   -9.3327    3.8008  -18.4777 C   0  0  0  0  0  0  0  0  0  0  0  0
  -10.0215    4.3883  -17.2718 C   0  0  0  0  0  0  0  0  0  0  0  0
   -9.3602    4.0329  -15.9438 C   0  0  0  0  0  0  0  0  0  0  0  0
   -8.8740    5.1152  -15.1250 O   0  0  0  0  0  0  0  0  0  0  0  0
   -7.5756    5.2729  -15.4600 C   0  0  0  0  0  0  0  0  0  0  0  0
   -7.4632    5.7405  -16.7099 N   0  0  0  0  0  0  0  0  0  0  0  0
   -6.3468    5.5128  -17.3584 C   0  0  0  0  0  0  0  0  0  0  0  0
   -6.3745    5.7457  -18.7156 C   0  0  0  0  0  0  0  0  0  0  0  0
   -5.2814    5.4508  -19.5102 C   0  0  0  0  0  0  0  0  0  0  0  0
   -4.1220    4.9821  -18.9083 C   0  0  0  0  0  0  0  0  0  0  0  0
   -4.0775    4.7679  -17.5252 C   0  0  0  0  0  0  0  0  0  0  0  0
   -5.2148    4.9899  -16.7331 C   0  0  0  0  0  0  0  0  0  0  0  0
   -5.3182    4.6850  -15.3533 C   0  0  0  0  0  0  0  0  0  0  0  0
   -6.5529    4.7795  -14.6792 C   0  0  0  0  0  0  0  0  0  0  0  0
   -6.6752    4.4017  -13.2161 C   0  0  1  0  0  0  0  0  0  0  0  0
   -5.9071    5.4209  -12.5982 O   0  0  0  0  0  0  0  0  0  0  0  0
   -8.0195    4.3865  -12.6630 N   0  0  0  0  0  0  0  0  0  0  0  0
   -8.1599    4.1126  -11.2275 C   0  0  2  0  0  0  0  0  0  0  0  0
   -7.9163    5.3624  -10.3543 C   0  0  0  0  0  0  0  0  0  0  0  0
   -7.1093    4.9530   -9.1195 C   0  0  1  0  0  0  0  0  0  0  0  0
   -7.9026    3.8804   -8.3537 C   0  0  0  0  0  0  0  0  0  0  0  0
   -8.0187    2.6223   -9.2231 C   0  0  0  0  0  0  0  0  0  0  0  0
   -7.4019    2.8862  -10.6184 C   0  0  2  0  0  0  0  0  0  0  0  0
   -5.9707    3.2216  -10.4920 N   0  0  0  0  0  0  0  0  0  0  0  0
   -5.1217    2.0695  -10.2368 C   0  0  0  0  0  0  0  0  0  0  0  0
   -5.7623    4.3237   -9.5409 C   0  0  0  0  0  0  0  0  0  0  0  0
  1  2  1  0
  2  3  1  0
  3  4  1  0
  4  5  1  0
  5  6  2  0
  6  7  1  0
  7  8  2  0
  8  9  1  0
  9 10  2  0
 10 11  1  0
 11 12  2  0
 12 13  1  0
 13 14  2  0
 14 15  1  0
 15 16  1  1
 15 17  1  0
 18 17  1  6
 18 19  1  0
 20 19  1  6
 20 21  1  0
 21 22  1  0
 23 22  1  1
 23 24  1  0
 24 25  1  0
 24 26  1  0
 14  5  1  0
 23 18  1  0
 12  7  1  0
 26 20  1  0
M  END
>  <energy_score>  (678) 
-16.88646

>  <alias>  (678) 
None

>  <HIPPO Pose ID>  (678) 
70042

>  <smiles>  (678) 
CCCOc1nc2ccccc2cc1[C@@H](O)N[C@@H]1C[C@H]2CC[C@@H]1N(C)C2

>  <inchikey>  (678) 
IBPIZUGARTYLHI-PPRPKMEESA-N

>  <distance_score>  (678) 
1.805983

>  <ref_mols>  (678) 
Z0673a,Z1719a

>  <ref_pdb>  (678) 
Z0673a

>  <HIPPO Compound ID>  (678) 
140486

>  <name>  (678) 
P70042

>  <inspiration_score>  (678) 
None

$$$$
P70043
     RDKit          3D

 26 29  0  0  0  0  0  0  0  0999 V2000
   -9.8737    4.4651  -17.6637 C   0  0  0  0  0  0  0  0  0  0  0  0
   -9.3257    4.1826  -16.2758 C   0  0  0  0  0  0  0  0  0  0  0  0
   -9.1129    5.4036  -15.3706 C   0  0  0  0  0  0  0  0  0  0  0  0
   -8.1095    5.1860  -14.3882 O   0  0  0  0  0  0  0  0  0  0  0  0
   -6.8980    5.1647  -14.9988 C   0  0  0  0  0  0  0  0  0  0  0  0
   -6.8801    5.7790  -16.2021 N   0  0  0  0  0  0  0  0  0  0  0  0
   -5.9564    5.4482  -17.0617 C   0  0  0  0  0  0  0  0  0  0  0  0
   -6.2019    5.7525  -18.3898 C   0  0  0  0  0  0  0  0  0  0  0  0
   -5.2812    5.4277  -19.3681 C   0  0  0  0  0  0  0  0  0  0  0  0
   -4.0775    4.8583  -18.9807 C   0  0  0  0  0  0  0  0  0  0  0  0
   -3.8400    4.5374  -17.6348 C   0  0  0  0  0  0  0  0  0  0  0  0
   -4.8162    4.7661  -16.6511 C   0  0  0  0  0  0  0  0  0  0  0  0
   -4.7757    4.2935  -15.2982 C   0  0  0  0  0  0  0  0  0  0  0  0
   -5.8944    4.4105  -14.4489 C   0  0  0  0  0  0  0  0  0  0  0  0
   -6.1286    3.5417  -13.2147 C   0  0  1  0  0  0  0  0  0  0  0  0
   -4.8862    3.2199  -12.6024 O   0  0  0  0  0  0  0  0  0  0  0  0
   -7.1107    3.9855  -12.2168 N   0  0  0  0  0  0  0  0  0  0  0  0
   -7.8664    2.8507  -11.6862 C   0  0  0  0  0  0  0  0  0  0  0  0
   -6.6601    4.8770  -11.1368 C   0  0  2  0  0  0  0  0  0  0  0  0
   -7.8891    5.5488  -10.4401 C   0  0  0  0  0  0  0  0  0  0  0  0
   -7.6183    6.9392  -10.0054 N   0  0  0  0  0  0  0  0  0  0  0  0
   -7.4711    7.7715  -11.2149 C   0  0  0  0  0  0  0  0  0  0  0  0
   -6.3877    7.2173  -12.1471 C   0  0  0  0  0  0  0  0  0  0  0  0
   -5.6688    6.0345  -11.4748 C   0  0  0  0  0  0  0  0  0  0  0  0
   -5.1528    6.5712  -10.1208 C   0  0  0  0  0  0  0  0  0  0  0  0
   -6.3523    6.9680   -9.2449 C   0  0  0  0  0  0  0  0  0  0  0  0
  1  2  1  0
  2  3  1  0
  3  4  1  0
  4  5  1  0
  5  6  2  0
  6  7  1  0
  7  8  2  0
  8  9  1  0
  9 10  2  0
 10 11  1  0
 11 12  2  0
 12 13  1  0
 13 14  2  0
 14 15  1  0
 15 16  1  1
 15 17  1  0
 17 18  1  0
 19 17  1  6
 19 20  1  0
 21 20  1  0
 21 22  1  0
 22 23  1  0
 23 24  1  0
 24 25  1  0
 25 26  1  0
 14  5  1  0
 24 19  1  0
 12  7  1  0
 26 21  1  0
M  END
>  <energy_score>  (679) 
-11.705096

>  <alias>  (679) 
None

>  <HIPPO Pose ID>  (679) 
70043

>  <smiles>  (679) 
CCCOc1nc2ccccc2cc1[C@@H](O)N(C)[C@@H]1CN2CCC1CC2

>  <inchikey>  (679) 
MAGXAFMOFZYOLR-TZIWHRDSSA-N

>  <distance_score>  (679) 
1.871987

>  <ref_mols>  (679) 
Z0673a,Z1719a

>  <ref_pdb>  (679) 
Z0673a

>  <HIPPO Compound ID>  (679) 
140489

>  <name>  (679) 
P70043

>  <inspiration_score>  (679) 
None

$$$$
P70044
     RDKit          3D

 26 29  0  0  0  0  0  0  0  0999 V2000
   -9.8272    4.4917  -17.5578 C   0  0  0  0  0  0  0  0  0  0  0  0
   -9.3404    4.2603  -16.1356 C   0  0  0  0  0  0  0  0  0  0  0  0
   -9.1713    5.5168  -15.2514 C   0  0  0  0  0  0  0  0  0  0  0  0
   -8.1898    5.3426  -14.2260 O   0  0  0  0  0  0  0  0  0  0  0  0
   -6.9779    5.2118  -14.8214 C   0  0  0  0  0  0  0  0  0  0  0  0
   -6.8762    5.8969  -15.9829 N   0  0  0  0  0  0  0  0  0  0  0  0
   -5.9998    5.5046  -16.8711 C   0  0  0  0  0  0  0  0  0  0  0  0
   -6.2124    5.8804  -18.1883 C   0  0  0  0  0  0  0  0  0  0  0  0
   -5.3265    5.5115  -19.1841 C   0  0  0  0  0  0  0  0  0  0  0  0
   -4.1735    4.8343  -18.8219 C   0  0  0  0  0  0  0  0  0  0  0  0
   -3.9707    4.4399  -17.4902 C   0  0  0  0  0  0  0  0  0  0  0  0
   -4.9379    4.6905  -16.5014 C   0  0  0  0  0  0  0  0  0  0  0  0
   -4.9712    4.1169  -15.1875 C   0  0  0  0  0  0  0  0  0  0  0  0
   -6.0923    4.2751  -14.3474 C   0  0  0  0  0  0  0  0  0  0  0  0
   -6.3887    3.3496  -13.1675 C   0  0  2  0  0  0  0  0  0  0  0  0
   -6.8474    2.1081  -13.6739 O   0  0  0  0  0  0  0  0  0  0  0  0
   -7.3802    3.7786  -12.1947 N   0  0  0  0  0  0  0  0  0  0  0  0
   -6.8013    4.3645  -10.9735 C   0  0  1  0  0  0  0  0  0  0  0  0
   -5.8192    5.5390  -11.2378 C   0  0  0  0  0  0  0  0  0  0  0  0
   -6.0363    6.6921  -10.3386 N   0  0  0  0  0  0  0  0  0  0  0  0
   -6.0313    6.2255   -8.9367 C   0  0  0  0  0  0  0  0  0  0  0  0
   -7.1695    5.2410   -8.6647 C   0  0  0  0  0  0  0  0  0  0  0  0
   -7.8620    4.9129   -9.9906 C   0  0  0  0  0  0  0  0  0  0  0  0
   -8.8302    3.9947   -9.7644 F   0  0  0  0  0  0  0  0  0  0  0  0
   -8.4561    6.2099  -10.5461 C   0  0  0  0  0  0  0  0  0  0  0  0
   -7.3579    7.2661  -10.6578 C   0  0  0  0  0  0  0  0  0  0  0  0
  1  2  1  0
  2  3  1  0
  3  4  1  0
  4  5  1  0
  5  6  2  0
  6  7  1  0
  7  8  2  0
  8  9  1  0
  9 10  2  0
 10 11  1  0
 11 12  2  0
 12 13  1  0
 13 14  2  0
 14 15  1  0
 15 16  1  6
 15 17  1  0
 18 17  1  6
 18 19  1  0
 20 19  1  0
 20 21  1  0
 21 22  1  0
 22 23  1  0
 23 24  1  0
 23 25  1  0
 25 26  1  0
 14  5  1  0
 23 18  1  0
 12  7  1  0
 26 20  1  0
M  END
>  <energy_score>  (680) 
-8.394571

>  <alias>  (680) 
None

>  <HIPPO Pose ID>  (680) 
70044

>  <smiles>  (680) 
CCCOc1nc2ccccc2cc1[C@H](O)N[C@H]1CN2CCC1(F)CC2

>  <inchikey>  (680) 
XXTBAZCTVKBDET-ROUUACIJSA-N

>  <distance_score>  (680) 
1.879912

>  <ref_mols>  (680) 
Z0673a,Z1719a

>  <ref_pdb>  (680) 
Z0673a

>  <HIPPO Compound ID>  (680) 
140490

>  <name>  (680) 
P70044

>  <inspiration_score>  (680) 
None

$$$$
P70045
     RDKit          3D

 26 29  0  0  0  0  0  0  0  0999 V2000
   -9.5458    4.2544  -18.7219 C   0  0  0  0  0  0  0  0  0  0  0  0
  -10.0647    4.4220  -17.3150 C   0  0  0  0  0  0  0  0  0  0  0  0
   -9.0950    3.9039  -16.2724 C   0  0  0  0  0  0  0  0  0  0  0  0
   -8.8532    4.8233  -15.1831 O   0  0  0  0  0  0  0  0  0  0  0  0
   -7.5630    5.2296  -15.3495 C   0  0  0  0  0  0  0  0  0  0  0  0
   -7.3881    5.8748  -16.5156 N   0  0  0  0  0  0  0  0  0  0  0  0
   -6.2742    5.6274  -17.1682 C   0  0  0  0  0  0  0  0  0  0  0  0
   -6.2562    5.9369  -18.5162 C   0  0  0  0  0  0  0  0  0  0  0  0
   -5.1833    5.5786  -19.3163 C   0  0  0  0  0  0  0  0  0  0  0  0
   -4.0863    4.9855  -18.7188 C   0  0  0  0  0  0  0  0  0  0  0  0
   -3.0156    4.6694  -19.4598 F   0  0  0  0  0  0  0  0  0  0  0  0
   -4.0656    4.7061  -17.3528 C   0  0  0  0  0  0  0  0  0  0  0  0
   -5.1906    4.9744  -16.5629 C   0  0  0  0  0  0  0  0  0  0  0  0
   -5.3303    4.5558  -15.2148 C   0  0  0  0  0  0  0  0  0  0  0  0
   -6.5798    4.6269  -14.5857 C   0  0  0  0  0  0  0  0  0  0  0  0
   -6.8961    3.9770  -13.2534 C   0  0  2  0  0  0  0  0  0  0  0  0
   -7.5216    2.7327  -13.5090 O   0  0  0  0  0  0  0  0  0  0  0  0
   -7.7242    4.7989  -12.3759 N   0  0  0  0  0  0  0  0  0  0  0  0
   -8.0279    4.1420  -11.0782 C   0  0  0  0  0  0  0  0  0  0  0  0
   -7.6515    5.0603   -9.8755 C   0  0  1  0  0  0  0  0  0  0  0  0
   -6.1389    5.3317   -9.9947 C   0  0  0  0  0  0  0  0  0  0  0  0
   -5.8494    6.0688  -11.3026 C   0  0  0  0  0  0  0  0  0  0  0  0
   -7.1560    6.1533  -12.1136 C   0  0  2  0  0  0  0  0  0  0  0  0
   -8.1635    6.9765  -11.2558 C   0  0  0  0  0  0  0  0  0  0  0  0
   -8.4241    6.3204   -9.9584 N   0  0  0  0  0  0  0  0  0  0  0  0
   -8.2400    7.2130   -8.8258 C   0  0  0  0  0  0  0  0  0  0  0  0
  1  2  1  0
  2  3  1  0
  3  4  1  0
  4  5  1  0
  5  6  2  0
  6  7  1  0
  7  8  2  0
  8  9  1  0
  9 10  2  0
 10 11  1  0
 10 12  1  0
 12 13  2  0
 13 14  1  0
 14 15  2  0
 15 16  1  0
 16 17  1  6
 16 18  1  0
 18 19  1  0
 20 19  1  6
 20 21  1  0
 21 22  1  0
 23 22  1  1
 23 24  1  0
 24 25  1  0
 25 26  1  0
 15  5  1  0
 23 18  1  0
 13  7  1  0
 25 20  1  0
M  END
>  <energy_score>  (681) 
-16.614499

>  <alias>  (681) 
None

>  <HIPPO Pose ID>  (681) 
70045

>  <smiles>  (681) 
CCCOc1nc2ccc(F)cc2cc1[C@H](O)N1C[C@H]2CC[C@@H]1CN2C

>  <inchikey>  (681) 
XGTUCHHEJJVXMV-QINHECLXSA-N

>  <distance_score>  (681) 
1.919316

>  <ref_mols>  (681) 
Z0673a,Z1719a

>  <ref_pdb>  (681) 
Z0673a

>  <HIPPO Compound ID>  (681) 
140491

>  <name>  (681) 
P70045

>  <inspiration_score>  (681) 
None

$$$$
P70046
     RDKit          3D

 26 29  0  0  0  0  0  0  0  0999 V2000
   -9.2600    3.8993  -18.4395 C   0  0  0  0  0  0  0  0  0  0  0  0
   -9.9653    4.4283  -17.2152 C   0  0  0  0  0  0  0  0  0  0  0  0
   -9.3737    3.9532  -15.8950 C   0  0  0  0  0  0  0  0  0  0  0  0
   -8.8958    4.9150  -14.9263 O   0  0  0  0  0  0  0  0  0  0  0  0
   -7.5871    5.1010  -15.2176 C   0  0  0  0  0  0  0  0  0  0  0  0
   -7.4462    5.7870  -16.3641 N   0  0  0  0  0  0  0  0  0  0  0  0
   -6.3630    5.5617  -17.0741 C   0  0  0  0  0  0  0  0  0  0  0  0
   -6.3974    5.9177  -18.4124 C   0  0  0  0  0  0  0  0  0  0  0  0
   -5.3442    5.6126  -19.2604 C   0  0  0  0  0  0  0  0  0  0  0  0
   -4.2180    5.0174  -18.7223 C   0  0  0  0  0  0  0  0  0  0  0  0
   -3.1657    4.7522  -19.5079 F   0  0  0  0  0  0  0  0  0  0  0  0
   -4.1539    4.6753  -17.3719 C   0  0  0  0  0  0  0  0  0  0  0  0
   -5.2602    4.8874  -16.5377 C   0  0  0  0  0  0  0  0  0  0  0  0
   -5.3710    4.3751  -15.2184 C   0  0  0  0  0  0  0  0  0  0  0  0
   -6.6042    4.3965  -14.5445 C   0  0  0  0  0  0  0  0  0  0  0  0
   -6.8711    3.5139  -13.3350 C   0  0  2  0  0  0  0  0  0  0  0  0
   -7.4849    2.3206  -13.7509 O   0  0  0  0  0  0  0  0  0  0  0  0
   -7.6738    4.0647  -12.2585 N   0  0  0  0  0  0  0  0  0  0  0  0
   -6.9032    5.0551  -11.5022 C   0  0  1  0  0  0  0  0  0  0  0  0
   -7.4341    6.5009  -11.6873 C   0  0  0  0  0  0  0  0  0  0  0  0
   -7.3354    7.2742  -10.4306 N   0  0  0  0  0  0  0  0  0  0  0  0
   -5.9894    7.0947   -9.8405 C   0  0  0  0  0  0  0  0  0  0  0  0
   -5.7546    5.6415   -9.3888 C   0  0  0  0  0  0  0  0  0  0  0  0
   -6.8586    4.7466   -9.9871 C   0  0  0  0  0  0  0  0  0  0  0  0
   -8.1816    5.1845   -9.3447 C   0  0  0  0  0  0  0  0  0  0  0  0
   -8.3279    6.7120   -9.4857 C   0  0  0  0  0  0  0  0  0  0  0  0
  1  2  1  0
  2  3  1  0
  3  4  1  0
  4  5  1  0
  5  6  2  0
  6  7  1  0
  7  8  2  0
  8  9  1  0
  9 10  2  0
 10 11  1  0
 10 12  1  0
 12 13  2  0
 13 14  1  0
 14 15  2  0
 15 16  1  0
 16 17  1  6
 16 18  1  0
 19 18  1  6
 19 20  1  0
 21 20  1  0
 21 22  1  0
 22 23  1  0
 23 24  1  0
 24 25  1  0
 25 26  1  0
 15  5  1  0
 24 19  1  0
 13  7  1  0
 26 21  1  0
M  END
>  <energy_score>  (682) 
-24.27708

>  <alias>  (682) 
None

>  <HIPPO Pose ID>  (682) 
70046

>  <smiles>  (682) 
CCCOc1nc2ccc(F)cc2cc1[C@H](O)N[C@H]1CN2CCC1CC2

>  <inchikey>  (682) 
UQPDOBYRUZYDJN-OALUTQOASA-N

>  <distance_score>  (682) 
1.994734

>  <ref_mols>  (682) 
Z0673a,Z1719a

>  <ref_pdb>  (682) 
Z0673a

>  <HIPPO Compound ID>  (682) 
140493

>  <name>  (682) 
P70046

>  <inspiration_score>  (682) 
None

$$$$
P70048
     RDKit          3D

 27 30  0  0  0  0  0  0  0  0999 V2000
   -9.8894    3.5710  -18.1330 C   0  0  0  0  0  0  0  0  0  0  0  0
   -9.6560    4.7171  -17.1972 C   0  0  0  0  0  0  0  0  0  0  0  0
   -9.4253    4.3596  -15.7262 C   0  0  0  0  0  0  0  0  0  0  0  0
   -8.3222    3.5814  -15.2785 O   0  0  0  0  0  0  0  0  0  0  0  0
   -7.1843    4.1748  -15.6522 C   0  0  0  0  0  0  0  0  0  0  0  0
   -7.0572    4.2080  -16.9776 N   0  0  0  0  0  0  0  0  0  0  0  0
   -6.0561    4.8380  -17.5073 C   0  0  0  0  0  0  0  0  0  0  0  0
   -6.0943    4.9483  -18.8815 C   0  0  0  0  0  0  0  0  0  0  0  0
   -5.0810    5.6065  -19.5450 C   0  0  0  0  0  0  0  0  0  0  0  0
   -4.0417    6.1350  -18.7950 C   0  0  0  0  0  0  0  0  0  0  0  0
   -3.0436    6.7769  -19.4180 F   0  0  0  0  0  0  0  0  0  0  0  0
   -4.0028    6.0251  -17.3993 C   0  0  0  0  0  0  0  0  0  0  0  0
   -5.0367    5.3724  -16.7155 C   0  0  0  0  0  0  0  0  0  0  0  0
   -5.1416    5.2059  -15.2972 C   0  0  0  0  0  0  0  0  0  0  0  0
   -6.2729    4.5989  -14.7243 C   0  0  0  0  0  0  0  0  0  0  0  0
   -6.4890    4.3223  -13.2491 C   0  0  2  0  0  0  0  0  0  0  0  0
   -6.2926    2.9349  -13.0420 O   0  0  0  0  0  0  0  0  0  0  0  0
   -7.8089    4.6683  -12.7501 N   0  0  0  0  0  0  0  0  0  0  0  0
   -7.9093    5.2693  -11.4170 C   0  0  1  0  0  0  0  0  0  0  0  0
   -6.9918    4.7127  -10.3186 C   0  0  0  0  0  0  0  0  0  0  0  0
   -6.3445    5.8841   -9.5666 C   0  0  2  0  0  0  0  0  0  0  0  0
   -7.4544    6.7237   -8.9064 C   0  0  0  0  0  0  0  0  0  0  0  0
   -8.3708    7.2962   -9.9997 C   0  0  0  0  0  0  0  0  0  0  0  0
   -7.8698    6.8460  -11.3957 C   0  0  1  0  0  0  0  0  0  0  0  0
   -6.5340    7.4588  -11.4370 N   0  0  0  0  0  0  0  0  0  0  0  0
   -6.0461    7.8704  -12.7287 C   0  0  0  0  0  0  0  0  0  0  0  0
   -5.5773    6.7704  -10.5726 C   0  0  0  0  0  0  0  0  0  0  0  0
  1  2  1  0
  2  3  1  0
  3  4  1  0
  4  5  1  0
  5  6  2  0
  6  7  1  0
  7  8  2  0
  8  9  1  0
  9 10  2  0
 10 11  1  0
 10 12  1  0
 12 13  2  0
 13 14  1  0
 14 15  2  0
 15 16  1  0
 16 17  1  6
 16 18  1  0
 19 18  1  6
 19 20  1  0
 21 20  1  6
 21 22  1  0
 22 23  1  0
 24 23  1  1
 24 25  1  0
 25 26  1  0
 25 27  1  0
 15  5  1  0
 24 19  1  0
 13  7  1  0
 27 21  1  0
M  END
>  <energy_score>  (683) 
-16.670044

>  <alias>  (683) 
None

>  <HIPPO Pose ID>  (683) 
70048

>  <smiles>  (683) 
CCCOc1nc2ccc(F)cc2cc1[C@H](O)N[C@H]1C[C@@H]2CC[C@H]1N(C)C2

>  <inchikey>  (683) 
MONSMZJFEDCRLK-JZOCTASASA-N

>  <distance_score>  (683) 
1.904168

>  <ref_mols>  (683) 
Z0673a,Z1719a

>  <ref_pdb>  (683) 
Z0673a

>  <HIPPO Compound ID>  (683) 
140507

>  <name>  (683) 
P70048

>  <inspiration_score>  (683) 
None

$$$$
P70049
     RDKit          3D

 27 30  0  0  0  0  0  0  0  0999 V2000
   -8.9083    4.1008  -17.8291 C   0  0  0  0  0  0  0  0  0  0  0  0
   -9.7456    4.5108  -16.6423 C   0  0  0  0  0  0  0  0  0  0  0  0
   -9.1819    5.4433  -15.5563 C   0  0  0  0  0  0  0  0  0  0  0  0
   -8.3006    4.8086  -14.6441 O   0  0  0  0  0  0  0  0  0  0  0  0
   -7.0263    4.8609  -15.1009 C   0  0  0  0  0  0  0  0  0  0  0  0
   -6.8766    5.5590  -16.2464 N   0  0  0  0  0  0  0  0  0  0  0  0
   -5.8395    5.3381  -17.0002 C   0  0  0  0  0  0  0  0  0  0  0  0
   -5.9303    5.7477  -18.3225 C   0  0  0  0  0  0  0  0  0  0  0  0
   -4.9121    5.4683  -19.2133 C   0  0  0  0  0  0  0  0  0  0  0  0
   -3.7728    4.8602  -18.7208 C   0  0  0  0  0  0  0  0  0  0  0  0
   -2.7408    4.6211  -19.5415 F   0  0  0  0  0  0  0  0  0  0  0  0
   -3.6699    4.4756  -17.3803 C   0  0  0  0  0  0  0  0  0  0  0  0
   -4.7447    4.6450  -16.5001 C   0  0  0  0  0  0  0  0  0  0  0  0
   -4.8427    4.0955  -15.1801 C   0  0  0  0  0  0  0  0  0  0  0  0
   -6.0584    4.1203  -14.4705 C   0  0  0  0  0  0  0  0  0  0  0  0
   -6.3401    3.2553  -13.2482 C   0  0  2  0  0  0  0  0  0  0  0  0
   -6.7595    1.9725  -13.6977 O   0  0  0  0  0  0  0  0  0  0  0  0
   -7.3835    3.7102  -12.3516 N   0  0  0  0  0  0  0  0  0  0  0  0
   -6.9149    4.3502  -11.1142 C   0  0  2  0  0  0  0  0  0  0  0  0
   -8.1496    4.9079  -10.3583 C   0  0  0  0  0  0  0  0  0  0  0  0
   -8.0073    6.3438  -10.0153 N   0  0  0  0  0  0  0  0  0  0  0  0
   -7.8125    7.1083  -11.2631 C   0  0  0  0  0  0  0  0  0  0  0  0
   -6.5060    6.7244  -11.9549 C   0  0  0  0  0  0  0  0  0  0  0  0
   -5.8997    5.5254  -11.2253 C   0  0  0  0  0  0  0  0  0  0  0  0
   -4.7534    5.1360  -11.8381 F   0  0  0  0  0  0  0  0  0  0  0  0
   -5.5590    5.9838   -9.8006 C   0  0  0  0  0  0  0  0  0  0  0  0
   -6.8333    6.5105   -9.1373 C   0  0  0  0  0  0  0  0  0  0  0  0
  1  2  1  0
  2  3  1  0
  3  4  1  0
  4  5  1  0
  5  6  2  0
  6  7  1  0
  7  8  2  0
  8  9  1  0
  9 10  2  0
 10 11  1  0
 10 12  1  0
 12 13  2  0
 13 14  1  0
 14 15  2  0
 15 16  1  0
 16 17  1  6
 16 18  1  0
 19 18  1  6
 19 20  1  0
 21 20  1  0
 21 22  1  0
 22 23  1  0
 23 24  1  0
 24 25  1  0
 24 26  1  0
 26 27  1  0
 15  5  1  0
 24 19  1  0
 13  7  1  0
 27 21  1  0
M  END
>  <energy_score>  (684) 
-23.721866

>  <alias>  (684) 
None

>  <HIPPO Pose ID>  (684) 
70049

>  <smiles>  (684) 
CCCOc1nc2ccc(F)cc2cc1[C@H](O)N[C@@H]1CN2CCC1(F)CC2

>  <inchikey>  (684) 
QWQXXRIDXWIKRV-MSOLQXFVSA-N

>  <distance_score>  (684) 
1.949288

>  <ref_mols>  (684) 
Z0673a,Z1719a

>  <ref_pdb>  (684) 
Z0673a

>  <HIPPO Compound ID>  (684) 
140511

>  <name>  (684) 
P70049

>  <inspiration_score>  (684) 
None

$$$$
P70050
     RDKit          3D

 27 30  0  0  0  0  0  0  0  0999 V2000
   -9.9251    4.1329  -17.8663 C   0  0  0  0  0  0  0  0  0  0  0  0
   -9.0184    3.8468  -16.6841 C   0  0  0  0  0  0  0  0  0  0  0  0
   -9.2419    4.7732  -15.4852 C   0  0  0  0  0  0  0  0  0  0  0  0
   -8.2212    4.9345  -14.5066 O   0  0  0  0  0  0  0  0  0  0  0  0
   -7.0230    5.1918  -15.0831 C   0  0  0  0  0  0  0  0  0  0  0  0
   -7.0853    5.8613  -16.2491 N   0  0  0  0  0  0  0  0  0  0  0  0
   -6.1372    5.5955  -17.1228 C   0  0  0  0  0  0  0  0  0  0  0  0
   -6.4041    5.8884  -18.4484 C   0  0  0  0  0  0  0  0  0  0  0  0
   -5.4981    5.5691  -19.4469 C   0  0  0  0  0  0  0  0  0  0  0  0
   -4.2822    5.0032  -19.0962 C   0  0  0  0  0  0  0  0  0  0  0  0
   -4.0056    4.6947  -17.7591 C   0  0  0  0  0  0  0  0  0  0  0  0
   -4.9593    4.9272  -16.7558 C   0  0  0  0  0  0  0  0  0  0  0  0
   -4.8452    4.4480  -15.4189 C   0  0  0  0  0  0  0  0  0  0  0  0
   -5.9436    4.5110  -14.5569 C   0  0  0  0  0  0  0  0  0  0  0  0
   -6.0741    3.7689  -13.2293 C   0  0  2  0  0  0  0  0  0  0  0  0
   -6.8146    2.5815  -13.4591 O   0  0  0  0  0  0  0  0  0  0  0  0
   -6.6796    4.5923  -12.2151 N   0  0  0  0  0  0  0  0  0  0  0  0
   -7.6126    4.0577  -11.2235 C   0  0  0  0  0  0  0  0  0  0  0  0
   -7.9032    5.1984  -10.1929 C   0  0  2  0  0  0  0  0  0  0  0  0
   -8.1567    6.5095  -10.9832 C   0  0  0  0  0  0  0  0  0  0  0  0
   -6.8725    6.9142  -11.7326 C   0  0  0  0  0  0  0  0  0  0  0  0
   -5.8984    5.7215  -11.6910 C   0  0  1  0  0  0  0  0  0  0  0  0
   -5.5092    5.4757  -10.1989 C   0  0  0  0  0  0  0  0  0  0  0  0
   -6.7184    5.5046   -9.3406 N   0  0  0  0  0  0  0  0  0  0  0  0
   -6.6252    4.6355   -8.1664 C   0  0  0  0  0  0  0  0  0  0  0  0
   -5.5448    5.0961   -7.1666 C   0  0  0  0  0  0  0  0  0  0  0  0
   -5.6024    4.3640   -5.9377 O   0  0  0  0  0  0  0  0  0  0  0  0
  1  2  1  0
  2  3  1  0
  3  4  1  0
  4  5  1  0
  5  6  2  0
  6  7  1  0
  7  8  2  0
  8  9  1  0
  9 10  2  0
 10 11  1  0
 11 12  2  0
 12 13  1  0
 13 14  2  0
 14 15  1  0
 15 16  1  6
 15 17  1  0
 17 18  1  0
 19 18  1  6
 19 20  1  0
 20 21  1  0
 22 21  1  1
 22 23  1  0
 23 24  1  0
 24 25  1  0
 25 26  1  0
 26 27  1  0
 14  5  1  0
 22 17  1  0
 12  7  1  0
 24 19  1  0
M  END
>  <energy_score>  (685) 
-20.449346

>  <alias>  (685) 
None

>  <HIPPO Pose ID>  (685) 
70050

>  <smiles>  (685) 
CCCOc1nc2ccccc2cc1[C@H](O)N1C[C@@H]2CC[C@H]1CN2CCO

>  <inchikey>  (685) 
SZMOJYNUSSXJGG-FIKGOQFSSA-N

>  <distance_score>  (685) 
1.835242

>  <ref_mols>  (685) 
Z0673a,Z1719a

>  <ref_pdb>  (685) 
Z0673a

>  <HIPPO Compound ID>  (685) 
140512

>  <name>  (685) 
P70050

>  <inspiration_score>  (685) 
None

$$$$
P70051
     RDKit          3D

 25 28  0  0  0  0  0  0  0  0999 V2000
   -3.7531    6.1001  -17.8403 O   0  0  0  0  0  0  0  0  0  0  0  0
   -4.5605    5.7790  -17.0471 C   0  0  0  0  0  0  0  0  0  0  0  0
   -4.2824    5.2419  -15.6880 C   0  0  0  0  0  0  0  0  0  0  0  0
   -3.5896    4.0898  -15.6753 C   0  0  0  0  0  0  0  0  0  0  0  0
   -3.6549    3.2036  -14.5374 C   0  0  0  0  0  0  0  0  0  0  0  0
   -4.4323    3.4966  -13.4837 C   0  0  0  0  0  0  0  0  0  0  0  0
   -4.4992    2.5697  -12.3387 C   0  0  0  0  0  0  0  0  0  0  0  0
   -5.6531    2.4394  -11.5706 C   0  0  0  0  0  0  0  0  0  0  0  0
   -5.6532    1.5282  -10.5200 C   0  0  0  0  0  0  0  0  0  0  0  0
   -4.5173    0.7682  -10.2788 C   0  0  0  0  0  0  0  0  0  0  0  0
   -3.4109    0.9608  -11.0832 C   0  0  0  0  0  0  0  0  0  0  0  0
   -3.3698    1.8514  -12.0962 N   0  0  0  0  0  0  0  0  0  0  0  0
   -5.1089    4.6950  -13.4678 N   0  0  0  0  0  0  0  0  0  0  0  0
   -5.0636    5.6308  -14.4783 C   0  0  0  0  0  0  0  0  0  0  0  0
   -5.6095    6.7260  -14.3700 O   0  0  0  0  0  0  0  0  0  0  0  0
   -6.0604    5.7037  -17.1589 N   0  0  0  0  0  0  0  0  0  0  0  0
   -6.5213    4.3156  -17.6461 C   0  0  0  0  0  0  0  0  0  0  0  0
   -7.8324    4.9603  -17.8241 C   0  0  0  0  0  0  0  0  0  0  0  0
   -8.9013    4.3042  -18.6291 C   0  0  0  0  0  0  0  0  0  0  0  0
   -9.9122    4.7172  -17.5461 C   0  0  0  0  0  0  0  0  0  0  0  0
   -8.7322    5.1057  -16.6020 C   0  0  1  0  0  0  0  0  0  0  0  0
   -8.6292    4.2400  -15.3798 C   0  0  0  0  0  0  0  0  0  0  0  0
   -9.5773    4.6543  -14.4918 F   0  0  0  0  0  0  0  0  0  0  0  0
   -7.4426    4.4256  -14.7665 F   0  0  0  0  0  0  0  0  0  0  0  0
   -6.9896    6.1110  -18.2845 C   0  0  0  0  0  0  0  0  0  0  0  0
  1  2  2  0
  2  3  1  0
  3  4  2  0
  4  5  1  0
  5  6  2  0
  6  7  1  0
  7  8  2  0
  8  9  1  0
  9 10  2  0
 10 11  1  0
 11 12  2  0
  6 13  1  0
 13 14  1  0
 14 15  2  0
  2 16  1  0
 16 17  1  0
 17 18  1  0
 18 19  1  0
 19 20  1  0
 20 21  1  0
 21 22  1  1
 22 23  1  0
 22 24  1  0
 18 25  1  0
 14  3  1  0
 25 16  1  0
 12  7  1  0
 21 18  1  0
M  END
>  <energy_score>  (686) 
-3.158283

>  <alias>  (686) 
None

>  <HIPPO Pose ID>  (686) 
70051

>  <smiles>  (686) 
O=C(c1ccc(-c2ccccn2)[nH]c1=O)N1CC2(CC[C@H]2C(F)F)C1

>  <inchikey>  (686) 
IJGHBWXYCMNPET-LBPRGKRZSA-N

>  <distance_score>  (686) 
1.591893

>  <ref_mols>  (686) 
Z0490a,Z0719a

>  <ref_pdb>  (686) 
Z0719a

>  <HIPPO Compound ID>  (686) 
140682

>  <name>  (686) 
P70051

>  <inspiration_score>  (686) 
None

$$$$
P70052
     RDKit          3D

 25 28  0  0  0  0  0  0  0  0999 V2000
   -5.7144    2.9819  -13.3822 O   0  0  0  0  0  0  0  0  0  0  0  0
   -4.6904    3.5099  -13.5641 C   0  0  0  0  0  0  0  0  0  0  0  0
   -4.3520    4.7889  -14.3583 N   0  0  0  0  0  0  0  0  0  0  0  0
   -5.1883    5.6332  -15.1735 C   0  0  0  0  0  0  0  0  0  0  0  0
   -4.6303    5.8001  -16.6047 C   0  0  0  0  0  0  0  0  0  0  0  0
   -5.5242    5.7645  -17.7735 N   0  0  0  0  0  0  0  0  0  0  0  0
   -6.8378    6.3963  -17.5709 C   0  0  0  0  0  0  0  0  0  0  0  0
   -7.4987    5.0487  -17.6563 C   0  0  0  0  0  0  0  0  0  0  0  0
   -8.6114    4.7859  -18.6325 C   0  0  0  0  0  0  0  0  0  0  0  0
   -9.3566    4.0333  -17.5248 C   0  0  0  0  0  0  0  0  0  0  0  0
   -8.3484    4.5782  -16.4951 C   0  0  0  0  0  0  0  0  0  0  0  0
   -6.1521    4.4378  -17.9147 C   0  0  0  0  0  0  0  0  0  0  0  0
   -3.4194    2.8759  -13.0455 C   0  0  0  0  0  0  0  0  0  0  0  0
   -3.5408    1.8000  -12.2403 C   0  0  0  0  0  0  0  0  0  0  0  0
   -2.4008    1.0028  -11.8334 C   0  0  0  0  0  0  0  0  0  0  0  0
   -1.1759    1.3159  -12.2814 C   0  0  0  0  0  0  0  0  0  0  0  0
    0.0329    0.4995  -12.0692 C   0  0  0  0  0  0  0  0  0  0  0  0
    0.3365   -0.1110  -10.8600 C   0  0  0  0  0  0  0  0  0  0  0  0
    1.5437   -0.7985  -10.7480 C   0  0  0  0  0  0  0  0  0  0  0  0
    2.3953   -0.8805  -11.8427 C   0  0  0  0  0  0  0  0  0  0  0  0
    2.0126   -0.2541  -13.0137 C   0  0  0  0  0  0  0  0  0  0  0  0
    0.8611    0.4407  -13.1495 N   0  0  0  0  0  0  0  0  0  0  0  0
   -1.0207    2.4427  -13.0549 N   0  0  0  0  0  0  0  0  0  0  0  0
   -2.0368    3.2733  -13.4436 C   0  0  0  0  0  0  0  0  0  0  0  0
   -1.8068    4.2779  -14.1148 O   0  0  0  0  0  0  0  0  0  0  0  0
  1  2  2  0
  2  3  1  0
  3  4  1  0
  4  5  1  0
  5  6  1  0
  6  7  1  0
  7  8  1  0
  8  9  1  0
  9 10  1  0
 10 11  1  0
  8 12  1  0
  2 13  1  0
 13 14  2  0
 14 15  1  0
 15 16  2  0
 16 17  1  0
 17 18  2  0
 18 19  1  0
 19 20  2  0
 20 21  1  0
 21 22  2  0
 16 23  1  0
 23 24  1  0
 24 25  2  0
 12  6  1  0
 24 13  1  0
 11  8  1  0
 22 17  1  0
M  END
>  <energy_score>  (687) 
-21.474635

>  <alias>  (687) 
None

>  <HIPPO Pose ID>  (687) 
70052

>  <smiles>  (687) 
O=C(NCCN1CC2(CCC2)C1)c1ccc(-c2ccccn2)[nH]c1=O

>  <inchikey>  (687) 
UALDDBBJAKXBGG-UHFFFAOYSA-N

>  <distance_score>  (687) 
1.608001

>  <ref_mols>  (687) 
Z0490a,Z0719a

>  <ref_pdb>  (687) 
Z0719a

>  <HIPPO Compound ID>  (687) 
140688

>  <name>  (687) 
P70052

>  <inspiration_score>  (687) 
None

$$$$
P70053
     RDKit          3D

 26 29  0  0  0  0  0  0  0  0999 V2000
   -5.8524    3.3360  -13.4587 C   0  0  0  0  0  0  0  0  0  0  0  0
   -6.4146    4.3254  -14.3900 N   0  0  0  0  0  0  0  0  0  0  0  0
   -6.6823    5.5585  -13.6603 C   0  0  0  0  0  0  0  0  0  0  0  0
   -7.6689    3.8188  -14.9717 C   0  0  0  0  0  0  0  0  0  0  0  0
   -7.7968    4.0596  -16.4854 C   0  0  0  0  0  0  0  0  0  0  0  0
   -6.5482    4.1930  -17.4258 C   0  0  0  0  0  0  0  0  0  0  0  0
   -6.8125    5.6550  -17.4965 C   0  0  0  0  0  0  0  0  0  0  0  0
   -8.1901    5.4660  -16.9271 C   0  0  0  0  0  0  0  0  0  0  0  0
   -5.8946    6.5934  -16.8671 C   0  0  0  0  0  0  0  0  0  0  0  0
   -5.2756    7.0330  -18.2615 N   0  0  0  0  0  0  0  0  0  0  0  0
   -3.8374    6.5922  -18.3900 C   0  0  0  0  0  0  0  0  0  0  0  0
   -3.3810    5.5941  -18.8210 O   0  0  0  0  0  0  0  0  0  0  0  0
   -2.9667    7.6608  -17.7979 C   0  0  0  0  0  0  0  0  0  0  0  0
   -1.7888    7.2640  -17.2781 C   0  0  0  0  0  0  0  0  0  0  0  0
   -0.8794    8.1952  -16.6509 C   0  0  0  0  0  0  0  0  0  0  0  0
   -1.1816    9.5026  -16.5825 C   0  0  0  0  0  0  0  0  0  0  0  0
   -0.2676   10.4743  -15.9341 C   0  0  0  0  0  0  0  0  0  0  0  0
   -0.1831   11.7986  -16.3628 C   0  0  0  0  0  0  0  0  0  0  0  0
    0.6845   12.6701  -15.7061 C   0  0  0  0  0  0  0  0  0  0  0  0
    1.4430   12.2023  -14.6417 C   0  0  0  0  0  0  0  0  0  0  0  0
    1.3076   10.8739  -14.2805 C   0  0  0  0  0  0  0  0  0  0  0  0
    0.4786   10.0064  -14.9016 N   0  0  0  0  0  0  0  0  0  0  0  0
   -2.3769    9.9311  -17.1177 N   0  0  0  0  0  0  0  0  0  0  0  0
   -3.3049    9.1174  -17.7321 C   0  0  0  0  0  0  0  0  0  0  0  0
   -4.3253    9.6207  -18.1935 O   0  0  0  0  0  0  0  0  0  0  0  0
   -6.5729    6.3682  -18.7419 C   0  0  0  0  0  0  0  0  0  0  0  0
  1  2  1  0
  2  3  1  0
  2  4  1  0
  4  5  1  0
  5  6  1  0
  6  7  1  0
  7  8  1  0
  7  9  1  0
  9 10  1  0
 10 11  1  0
 11 12  2  0
 11 13  1  0
 13 14  2  0
 14 15  1  0
 15 16  2  0
 16 17  1  0
 17 18  2  0
 18 19  1  0
 19 20  2  0
 20 21  1  0
 21 22  2  0
 16 23  1  0
 23 24  1  0
 24 25  2  0
 10 26  1  0
  8  5  1  0
 24 13  1  0
 26  7  1  0
 22 17  1  0
M  END
>  <energy_score>  (688) 
-14.384608

>  <alias>  (688) 
None

>  <HIPPO Pose ID>  (688) 
70053

>  <smiles>  (688) 
CN(C)CC1CC2(C1)CN(C(=O)c1ccc(-c3ccccn3)[nH]c1=O)C2

>  <inchikey>  (688) 
PCBAAFKNVACOQO-UHFFFAOYSA-N

>  <distance_score>  (688) 
1.87703

>  <ref_mols>  (688) 
Z0490a,Z0719a

>  <ref_pdb>  (688) 
Z0719a

>  <HIPPO Compound ID>  (688) 
140701

>  <name>  (688) 
P70053

>  <inspiration_score>  (688) 
None

$$$$
P70054
     RDKit          3D

 26 30  0  0  0  0  0  0  0  0999 V2000
   -3.7467    5.4468  -16.4116 O   0  0  0  0  0  0  0  0  0  0  0  0
   -4.7393    5.0835  -15.8967 C   0  0  0  0  0  0  0  0  0  0  0  0
   -4.7983    4.1630  -14.7341 C   0  0  0  0  0  0  0  0  0  0  0  0
   -3.7213    3.3860  -14.5387 C   0  0  0  0  0  0  0  0  0  0  0  0
   -3.6063    2.5840  -13.3538 C   0  0  0  0  0  0  0  0  0  0  0  0
   -4.5544    2.6584  -12.4094 C   0  0  0  0  0  0  0  0  0  0  0  0
   -4.1738    2.3253  -11.0296 C   0  0  0  0  0  0  0  0  0  0  0  0
   -3.6260    1.1002  -10.6700 C   0  0  0  0  0  0  0  0  0  0  0  0
   -2.9946    0.9876   -9.4335 C   0  0  0  0  0  0  0  0  0  0  0  0
   -2.9209    2.0913   -8.5964 C   0  0  0  0  0  0  0  0  0  0  0  0
   -3.5212    3.2636   -9.0142 C   0  0  0  0  0  0  0  0  0  0  0  0
   -4.1550    3.4032  -10.1966 N   0  0  0  0  0  0  0  0  0  0  0  0
   -5.7274    3.3249  -12.6595 N   0  0  0  0  0  0  0  0  0  0  0  0
   -5.9747    4.0460  -13.8020 C   0  0  0  0  0  0  0  0  0  0  0  0
   -7.0659    4.5754  -13.9854 O   0  0  0  0  0  0  0  0  0  0  0  0
   -6.1640    5.3195  -16.2712 N   0  0  0  0  0  0  0  0  0  0  0  0
   -6.6890    4.2178  -17.2211 C   0  0  0  0  0  0  0  0  0  0  0  0
   -7.7885    5.1145  -17.5401 C   0  0  0  0  0  0  0  0  0  0  0  0
   -8.6756    4.8523  -18.7012 C   0  0  0  0  0  0  0  0  0  0  0  0
   -9.6816    4.1958  -17.7439 C   0  0  0  0  0  0  0  0  0  0  0  0
   -8.9618    4.8904  -16.5687 C   0  0  0  0  0  0  0  0  0  0  0  0
   -6.7752    6.1825  -17.3701 C   0  0  2  0  0  0  0  0  0  0  0  0
   -5.7210    6.6261  -18.3983 C   0  0  0  0  0  0  0  0  0  0  0  0
   -5.3875    5.7266  -19.5894 C   0  0  0  0  0  0  0  0  0  0  0  0
   -5.2436    7.0299  -20.4136 C   0  0  0  0  0  0  0  0  0  0  0  0
   -6.2314    7.6503  -19.4099 C   0  0  0  0  0  0  0  0  0  0  0  0
  1  2  2  0
  2  3  1  0
  3  4  2  0
  4  5  1  0
  5  6  2  0
  6  7  1  0
  7  8  2  0
  8  9  1  0
  9 10  2  0
 10 11  1  0
 11 12  2  0
  6 13  1  0
 13 14  1  0
 14 15  2  0
  2 16  1  0
 16 17  1  0
 17 18  1  0
 18 19  1  0
 19 20  1  0
 20 21  1  0
 18 22  1  0
 22 23  1  6
 23 24  1  0
 24 25  1  0
 25 26  1  0
 14  3  1  0
 22 16  1  0
 26 23  1  0
 12  7  1  0
 21 18  1  0
M  END
>  <energy_score>  (689) 
-10.871976

>  <alias>  (689) 
None

>  <HIPPO Pose ID>  (689) 
70054

>  <smiles>  (689) 
O=C(c1ccc(-c2ccccn2)[nH]c1=O)N1CC2(CCC2)[C@@H]1C1CCC1

>  <inchikey>  (689) 
JFRWVBOOVWTYON-SFHVURJKSA-N

>  <distance_score>  (689) 
1.791454

>  <ref_mols>  (689) 
Z0490a,Z0719a

>  <ref_pdb>  (689) 
Z0719a

>  <HIPPO Compound ID>  (689) 
140702

>  <name>  (689) 
P70054

>  <inspiration_score>  (689) 
None

$$$$
P70055
     RDKit          3D

 26 29  0  0  0  0  0  0  0  0999 V2000
   -6.5163    1.8122  -13.2520 N   0  0  0  0  0  0  0  0  0  0  0  0
   -6.6491    2.8751  -13.6401 N   0  0  0  0  0  0  0  0  0  0  0  0
   -6.8046    4.0285  -14.0813 N   0  0  0  0  0  0  0  0  0  0  0  0
   -7.9694    4.1977  -14.9612 C   0  0  0  0  0  0  0  0  0  0  0  0
   -7.6307    5.1540  -16.0886 C   0  0  0  0  0  0  0  0  0  0  0  0
   -8.0648    4.7825  -17.5593 C   0  0  0  0  0  0  0  0  0  0  0  0
   -6.7333    5.3480  -17.9757 C   0  0  0  0  0  0  0  0  0  0  0  0
   -6.1668    5.1054  -16.6068 C   0  0  0  0  0  0  0  0  0  0  0  0
   -6.6664    6.7010  -18.5291 C   0  0  0  0  0  0  0  0  0  0  0  0
   -5.3750    6.3177  -19.3365 N   0  0  0  0  0  0  0  0  0  0  0  0
   -4.1371    6.9127  -18.7127 C   0  0  0  0  0  0  0  0  0  0  0  0
   -3.4119    6.4768  -17.8909 O   0  0  0  0  0  0  0  0  0  0  0  0
   -3.8302    8.2161  -19.3880 C   0  0  0  0  0  0  0  0  0  0  0  0
   -2.5242    8.4344  -19.6437 C   0  0  0  0  0  0  0  0  0  0  0  0
   -2.0662    9.6175  -20.3317 C   0  0  0  0  0  0  0  0  0  0  0  0
   -2.9479   10.5295  -20.7713 C   0  0  0  0  0  0  0  0  0  0  0  0
   -2.5024   11.7426  -21.4943 C   0  0  0  0  0  0  0  0  0  0  0  0
   -3.2571   12.2878  -22.5323 C   0  0  0  0  0  0  0  0  0  0  0  0
   -2.7923   13.4332  -23.1759 C   0  0  0  0  0  0  0  0  0  0  0  0
   -1.5932   14.0042  -22.7690 C   0  0  0  0  0  0  0  0  0  0  0  0
   -0.9014   13.3998  -21.7346 C   0  0  0  0  0  0  0  0  0  0  0  0
   -1.3254   12.2874  -21.0959 N   0  0  0  0  0  0  0  0  0  0  0  0
   -4.2875   10.3365  -20.5095 N   0  0  0  0  0  0  0  0  0  0  0  0
   -4.8067    9.2750  -19.7947 C   0  0  0  0  0  0  0  0  0  0  0  0
   -6.0021    9.2856  -19.5070 O   0  0  0  0  0  0  0  0  0  0  0  0
   -6.0142    4.9245  -19.1711 C   0  0  0  0  0  0  0  0  0  0  0  0
  1  2  2  0
  2  3  2  0
  3  4  1  0
  4  5  1  0
  5  6  1  0
  6  7  1  0
  7  8  1  0
  7  9  1  0
  9 10  1  0
 10 11  1  0
 11 12  2  0
 11 13  1  0
 13 14  2  0
 14 15  1  0
 15 16  2  0
 16 17  1  0
 17 18  2  0
 18 19  1  0
 19 20  2  0
 20 21  1  0
 21 22  2  0
 16 23  1  0
 23 24  1  0
 24 25  2  0
 10 26  1  0
  8  5  1  0
 24 13  1  0
 26  7  1  0
 22 17  1  0
M  CHG  2   1  -1   2   1
M  END
>  <energy_score>  (690) 
-19.637978

>  <alias>  (690) 
None

>  <HIPPO Pose ID>  (690) 
70055

>  <smiles>  (690) 
[N-]=[N+]=NCC1CC2(C1)CN(C(=O)c1ccc(-c3ccccn3)[nH]c1=O)C2

>  <inchikey>  (690) 
CLPKMTKQAUIREB-UHFFFAOYSA-N

>  <distance_score>  (690) 
1.941597

>  <ref_mols>  (690) 
Z0490a,Z0719a

>  <ref_pdb>  (690) 
Z0719a

>  <HIPPO Compound ID>  (690) 
140703

>  <name>  (690) 
P70055

>  <inspiration_score>  (690) 
None

$$$$
P70057
     RDKit          3D

 26 29  0  0  0  0  0  0  0  0999 V2000
   -4.5676    7.0038  -20.5555 C   0  0  0  0  0  0  0  0  0  0  0  0
   -5.3419    6.2749  -19.6068 O   0  0  0  0  0  0  0  0  0  0  0  0
   -6.3322    7.0065  -19.0163 C   0  0  0  0  0  0  0  0  0  0  0  0
   -6.5415    8.1897  -19.3204 O   0  0  0  0  0  0  0  0  0  0  0  0
   -7.0834    6.2765  -17.8743 C   0  0  2  0  0  0  0  0  0  0  0  0
   -6.3086    5.4875  -16.8374 N   0  0  0  0  0  0  0  0  0  0  0  0
   -4.8554    5.4658  -16.5185 C   0  0  0  0  0  0  0  0  0  0  0  0
   -3.9533    5.9977  -17.0480 O   0  0  0  0  0  0  0  0  0  0  0  0
   -4.7870    4.5791  -15.3179 C   0  0  0  0  0  0  0  0  0  0  0  0
   -3.6623    3.8784  -15.1143 C   0  0  0  0  0  0  0  0  0  0  0  0
   -3.5615    2.9629  -14.0064 C   0  0  0  0  0  0  0  0  0  0  0  0
   -4.5823    2.7804  -13.1541 C   0  0  0  0  0  0  0  0  0  0  0  0
   -4.3824    1.9952  -11.9174 C   0  0  0  0  0  0  0  0  0  0  0  0
   -5.4452    1.5023  -11.1673 C   0  0  0  0  0  0  0  0  0  0  0  0
   -5.1746    0.8852   -9.9512 C   0  0  0  0  0  0  0  0  0  0  0  0
   -3.8613    0.7804   -9.5130 C   0  0  0  0  0  0  0  0  0  0  0  0
   -2.8590    1.2590  -10.3298 C   0  0  0  0  0  0  0  0  0  0  0  0
   -3.0878    1.8704  -11.5096 N   0  0  0  0  0  0  0  0  0  0  0  0
   -5.7633    3.4401  -13.3857 N   0  0  0  0  0  0  0  0  0  0  0  0
   -5.9534    4.3617  -14.3821 C   0  0  0  0  0  0  0  0  0  0  0  0
   -7.0199    4.9664  -14.4395 O   0  0  0  0  0  0  0  0  0  0  0  0
   -6.6916    4.3510  -17.8149 C   0  0  0  0  0  0  0  0  0  0  0  0
   -7.9663    5.0736  -17.9362 C   0  0  0  0  0  0  0  0  0  0  0  0
   -8.9565    4.6841  -18.9717 C   0  0  0  0  0  0  0  0  0  0  0  0
   -9.7447    3.9373  -17.8895 C   0  0  0  0  0  0  0  0  0  0  0  0
   -8.9642    4.7172  -16.8225 C   0  0  0  0  0  0  0  0  0  0  0  0
  1  2  1  0
  2  3  1  0
  3  4  2  0
  5  3  1  6
  5  6  1  0
  6  7  1  0
  7  8  2  0
  7  9  1  0
  9 10  2  0
 10 11  1  0
 11 12  2  0
 12 13  1  0
 13 14  2  0
 14 15  1  0
 15 16  2  0
 16 17  1  0
 17 18  2  0
 12 19  1  0
 19 20  1  0
 20 21  2  0
  6 22  1  0
 22 23  1  0
 23 24  1  0
 24 25  1  0
 25 26  1  0
 23  5  1  0
 20  9  1  0
 26 23  1  0
 18 13  1  0
M  END
>  <energy_score>  (691) 
-1.265787

>  <alias>  (691) 
None

>  <HIPPO Pose ID>  (691) 
70057

>  <smiles>  (691) 
COC(=O)[C@@H]1N(C(=O)c2ccc(-c3ccccn3)[nH]c2=O)CC12CCC2

>  <inchikey>  (691) 
AOLZCLWKHUPJBQ-HNNXBMFYSA-N

>  <distance_score>  (691) 
1.581233

>  <ref_mols>  (691) 
Z0490a,Z0719a

>  <ref_pdb>  (691) 
Z0719a

>  <HIPPO Compound ID>  (691) 
140706

>  <name>  (691) 
P70057

>  <inspiration_score>  (691) 
None

$$$$
P70058
     RDKit          3D

 27 31  0  0  0  0  0  0  0  0999 V2000
   -3.8966    6.1144  -16.8586 O   0  0  0  0  0  0  0  0  0  0  0  0
   -4.7886    5.5315  -16.3662 C   0  0  0  0  0  0  0  0  0  0  0  0
   -4.7208    4.6059  -15.2064 C   0  0  0  0  0  0  0  0  0  0  0  0
   -3.5952    3.8961  -15.0373 C   0  0  0  0  0  0  0  0  0  0  0  0
   -3.4935    2.9301  -13.9721 C   0  0  0  0  0  0  0  0  0  0  0  0
   -4.5201    2.7281  -13.1352 C   0  0  0  0  0  0  0  0  0  0  0  0
   -4.4593    1.9171  -11.9093 C   0  0  0  0  0  0  0  0  0  0  0  0
   -3.2722    1.4137  -11.3804 C   0  0  0  0  0  0  0  0  0  0  0  0
   -3.3037    0.8020  -10.1368 C   0  0  0  0  0  0  0  0  0  0  0  0
   -4.5136    0.7015   -9.4709 C   0  0  0  0  0  0  0  0  0  0  0  0
   -5.6539    1.2004  -10.0700 C   0  0  0  0  0  0  0  0  0  0  0  0
   -5.6491    1.8263  -11.2607 N   0  0  0  0  0  0  0  0  0  0  0  0
   -5.7015    3.3910  -13.3530 N   0  0  0  0  0  0  0  0  0  0  0  0
   -5.9017    4.3518  -14.2982 C   0  0  0  0  0  0  0  0  0  0  0  0
   -6.9673    4.9583  -14.3465 O   0  0  0  0  0  0  0  0  0  0  0  0
   -6.2382    5.5199  -16.7072 N   0  0  0  0  0  0  0  0  0  0  0  0
   -6.5708    4.4086  -17.7429 C   0  0  0  0  0  0  0  0  0  0  0  0
   -7.8571    5.1001  -17.8633 C   0  0  0  0  0  0  0  0  0  0  0  0
   -8.8379    4.7399  -18.9161 C   0  0  0  0  0  0  0  0  0  0  0  0
   -9.6543    3.9764  -17.8664 C   0  0  0  0  0  0  0  0  0  0  0  0
   -8.8685    4.7051  -16.7692 C   0  0  0  0  0  0  0  0  0  0  0  0
   -7.0173    6.3208  -17.7141 C   0  0  2  0  0  0  0  0  0  0  0  0
   -6.1499    7.0561  -18.7797 C   0  0  0  0  0  0  0  0  0  0  0  0
   -5.5171    8.3041  -18.4824 C   0  0  0  0  0  0  0  0  0  0  0  0
   -4.8088    8.7981  -19.5549 C   0  0  0  0  0  0  0  0  0  0  0  0
   -4.9109    7.7659  -20.9136 S   0  0  0  0  0  0  0  0  0  0  0  0
   -5.8829    6.6485  -20.0568 C   0  0  0  0  0  0  0  0  0  0  0  0
  1  2  2  0
  2  3  1  0
  3  4  2  0
  4  5  1  0
  5  6  2  0
  6  7  1  0
  7  8  2  0
  8  9  1  0
  9 10  2  0
 10 11  1  0
 11 12  2  0
  6 13  1  0
 13 14  1  0
 14 15  2  0
  2 16  1  0
 16 17  1  0
 17 18  1  0
 18 19  1  0
 19 20  1  0
 20 21  1  0
 18 22  1  0
 22 23  1  6
 23 24  1  0
 24 25  2  0
 25 26  1  0
 26 27  1  0
 14  3  1  0
 22 16  1  0
 27 23  2  0
 12  7  1  0
 21 18  1  0
M  END
>  <energy_score>  (692) 
-4.566361

>  <alias>  (692) 
None

>  <HIPPO Pose ID>  (692) 
70058

>  <smiles>  (692) 
O=C(c1ccc(-c2ccccn2)[nH]c1=O)N1CC2(CCC2)[C@@H]1c1ccsc1

>  <inchikey>  (692) 
JHYZMDSSFHUVEC-SFHVURJKSA-N

>  <distance_score>  (692) 
1.744375

>  <ref_mols>  (692) 
Z0490a,Z0719a

>  <ref_pdb>  (692) 
Z0719a

>  <HIPPO Compound ID>  (692) 
140711

>  <name>  (692) 
P70058

>  <inspiration_score>  (692) 
None

$$$$
P70060
     RDKit          3D

 27 31  0  0  0  0  0  0  0  0999 V2000
   -3.9339    7.0361  -16.0659 O   0  0  0  0  0  0  0  0  0  0  0  0
   -4.8594    6.3605  -15.8082 C   0  0  0  0  0  0  0  0  0  0  0  0
   -5.0690    5.5962  -14.5491 C   0  0  0  0  0  0  0  0  0  0  0  0
   -3.9323    5.1482  -13.9891 C   0  0  0  0  0  0  0  0  0  0  0  0
   -3.9644    4.0888  -13.0193 C   0  0  0  0  0  0  0  0  0  0  0  0
   -5.1174    3.4806  -12.7191 C   0  0  0  0  0  0  0  0  0  0  0  0
   -5.1982    2.4608  -11.6768 C   0  0  0  0  0  0  0  0  0  0  0  0
   -4.1702    1.5588  -11.4317 C   0  0  0  0  0  0  0  0  0  0  0  0
   -4.3117    0.6687  -10.3813 C   0  0  0  0  0  0  0  0  0  0  0  0
   -5.4780    0.6908   -9.6328 C   0  0  0  0  0  0  0  0  0  0  0  0
   -6.4479    1.6257   -9.9412 C   0  0  0  0  0  0  0  0  0  0  0  0
   -6.3373    2.5099  -10.9476 N   0  0  0  0  0  0  0  0  0  0  0  0
   -6.2874    3.9116  -13.2901 N   0  0  0  0  0  0  0  0  0  0  0  0
   -6.3880    4.9754  -14.1460 C   0  0  0  0  0  0  0  0  0  0  0  0
   -7.4858    5.3538  -14.5445 O   0  0  0  0  0  0  0  0  0  0  0  0
   -6.0321    5.9697  -16.6430 N   0  0  0  0  0  0  0  0  0  0  0  0
   -5.7598    4.6527  -17.4276 C   0  0  0  0  0  0  0  0  0  0  0  0
   -6.9781    5.0103  -18.1567 C   0  0  0  0  0  0  0  0  0  0  0  0
   -7.3499    4.3179  -19.3987 C   0  0  0  0  0  0  0  0  0  0  0  0
   -8.8210    4.3116  -18.8821 C   0  0  0  0  0  0  0  0  0  0  0  0
   -8.2898    4.6230  -17.4783 C   0  0  0  0  0  0  0  0  0  0  0  0
   -6.4487    6.4070  -18.0592 C   0  0  2  0  0  0  0  0  0  0  0  0
   -5.3311    7.1459  -18.8054 C   0  0  2  0  0  0  0  0  0  0  0  0
   -5.7518    7.7362  -20.1301 C   0  0  0  0  0  0  0  0  0  0  0  0
   -4.4182    8.0670  -20.7514 C   0  0  0  0  0  0  0  0  0  0  0  0
   -3.5377    6.9379  -20.2610 C   0  0  0  0  0  0  0  0  0  0  0  0
   -4.1685    6.3577  -19.1135 O   0  0  0  0  0  0  0  0  0  0  0  0
  1  2  2  0
  2  3  1  0
  3  4  2  0
  4  5  1  0
  5  6  2  0
  6  7  1  0
  7  8  2  0
  8  9  1  0
  9 10  2  0
 10 11  1  0
 11 12  2  0
  6 13  1  0
 13 14  1  0
 14 15  2  0
  2 16  1  0
 16 17  1  0
 17 18  1  0
 18 19  1  0
 19 20  1  0
 20 21  1  0
 18 22  1  0
 22 23  1  0
 23 24  1  6
 24 25  1  0
 25 26  1  0
 26 27  1  0
 14  3  1  0
 22 16  1  1
 27 23  1  0
 12  7  1  0
 21 18  1  0
M  END
>  <energy_score>  (693) 
-2.522868

>  <alias>  (693) 
None

>  <HIPPO Pose ID>  (693) 
70060

>  <smiles>  (693) 
O=C(c1ccc(-c2ccccn2)[nH]c1=O)N1CC2(CCC2)[C@@H]1[C@@H]1CCCO1

>  <inchikey>  (693) 
ULZADVJWPCCABJ-ROUUACIJSA-N

>  <distance_score>  (693) 
1.903798

>  <ref_mols>  (693) 
Z0490a,Z0719a

>  <ref_pdb>  (693) 
Z0719a

>  <HIPPO Compound ID>  (693) 
140713

>  <name>  (693) 
P70060

>  <inspiration_score>  (693) 
None

$$$$
P70061
     RDKit          3D

 27 31  0  0  0  0  0  0  0  0999 V2000
   -2.9911    5.5269  -16.9251 O   0  0  0  0  0  0  0  0  0  0  0  0
   -4.1142    5.4879  -16.5799 C   0  0  0  0  0  0  0  0  0  0  0  0
   -4.5547    5.1912  -15.1753 C   0  0  0  0  0  0  0  0  0  0  0  0
   -3.6462    4.4763  -14.4800 C   0  0  0  0  0  0  0  0  0  0  0  0
   -4.0252    3.6798  -13.3394 C   0  0  0  0  0  0  0  0  0  0  0  0
   -5.3125    3.5784  -12.9911 C   0  0  0  0  0  0  0  0  0  0  0  0
   -5.7740    2.8472  -11.8112 C   0  0  0  0  0  0  0  0  0  0  0  0
   -5.1258    1.7236  -11.3206 C   0  0  0  0  0  0  0  0  0  0  0  0
   -5.6137    1.1441  -10.1633 C   0  0  0  0  0  0  0  0  0  0  0  0
   -6.7289    1.6961   -9.5428 C   0  0  0  0  0  0  0  0  0  0  0  0
   -7.3379    2.7936  -10.1160 C   0  0  0  0  0  0  0  0  0  0  0  0
   -6.8866    3.3808  -11.2380 N   0  0  0  0  0  0  0  0  0  0  0  0
   -6.2558    4.2903  -13.6827 N   0  0  0  0  0  0  0  0  0  0  0  0
   -5.9965    5.1479  -14.7143 C   0  0  0  0  0  0  0  0  0  0  0  0
   -6.9154    5.7908  -15.2111 O   0  0  0  0  0  0  0  0  0  0  0  0
   -5.3694    5.6030  -17.3704 N   0  0  0  0  0  0  0  0  0  0  0  0
   -5.8457    4.2553  -17.8495 C   0  0  0  0  0  0  0  0  0  0  0  0
   -6.7483    4.9909  -18.7408 C   0  0  0  0  0  0  0  0  0  0  0  0
   -7.3151    4.1341  -19.8064 C   0  0  0  0  0  0  0  0  0  0  0  0
   -8.6702    4.1831  -19.0411 C   0  0  0  0  0  0  0  0  0  0  0  0
   -8.1036    5.3515  -18.2229 C   0  0  0  0  0  0  0  0  0  0  0  0
   -5.5926    5.9075  -18.8548 C   0  0  1  0  0  0  0  0  0  0  0  0
   -5.7608    7.4132  -19.1397 C   0  0  0  0  0  0  0  0  0  0  0  0
   -5.6746    7.9750  -20.3981 C   0  0  0  0  0  0  0  0  0  0  0  0
   -5.6251    9.3783  -20.2125 C   0  0  0  0  0  0  0  0  0  0  0  0
   -5.7069    9.5857  -18.8567 C   0  0  0  0  0  0  0  0  0  0  0  0
   -5.8061    8.4024  -18.2001 O   0  0  0  0  0  0  0  0  0  0  0  0
  1  2  2  0
  2  3  1  0
  3  4  2  0
  4  5  1  0
  5  6  2  0
  6  7  1  0
  7  8  2  0
  8  9  1  0
  9 10  2  0
 10 11  1  0
 11 12  2  0
  6 13  1  0
 13 14  1  0
 14 15  2  0
  2 16  1  0
 16 17  1  0
 17 18  1  0
 18 19  1  0
 19 20  1  0
 20 21  1  0
 18 22  1  0
 22 23  1  1
 23 24  2  0
 24 25  1  0
 25 26  2  0
 26 27  1  0
 14  3  1  0
 22 16  1  0
 27 23  1  0
 12  7  1  0
 21 18  1  0
M  END
>  <energy_score>  (694) 
-9.533094

>  <alias>  (694) 
None

>  <HIPPO Pose ID>  (694) 
70061

>  <smiles>  (694) 
O=C(c1ccc(-c2ccccn2)[nH]c1=O)N1CC2(CCC2)[C@H]1c1ccco1

>  <inchikey>  (694) 
WNGLDGVGBXOJEW-GOSISDBHSA-N

>  <distance_score>  (694) 
1.74141

>  <ref_mols>  (694) 
Z0490a,Z0719a

>  <ref_pdb>  (694) 
Z0719a

>  <HIPPO Compound ID>  (694) 
140714

>  <name>  (694) 
P70061

>  <inspiration_score>  (694) 
None

$$$$
P70062
     RDKit          3D

 28 32  0  0  0  0  0  0  0  0999 V2000
   -3.0975    5.4871  -16.6700 O   0  0  0  0  0  0  0  0  0  0  0  0
   -4.2390    5.4620  -16.3900 C   0  0  0  0  0  0  0  0  0  0  0  0
   -4.7575    5.1753  -15.0074 C   0  0  0  0  0  0  0  0  0  0  0  0
   -3.8834    4.5084  -14.2291 C   0  0  0  0  0  0  0  0  0  0  0  0
   -4.3184    3.7708  -13.0707 C   0  0  0  0  0  0  0  0  0  0  0  0
   -5.6205    3.6610  -12.7722 C   0  0  0  0  0  0  0  0  0  0  0  0
   -6.0380    2.9874  -11.5283 C   0  0  0  0  0  0  0  0  0  0  0  0
   -7.2340    3.3147  -10.8867 C   0  0  0  0  0  0  0  0  0  0  0  0
   -7.4931    2.7842   -9.6282 C   0  0  0  0  0  0  0  0  0  0  0  0
   -6.5625    1.9340   -9.0519 C   0  0  0  0  0  0  0  0  0  0  0  0
   -5.4242    1.6160   -9.7725 C   0  0  0  0  0  0  0  0  0  0  0  0
   -5.1362    2.1413  -10.9784 N   0  0  0  0  0  0  0  0  0  0  0  0
   -6.5370    4.2852  -13.5783 N   0  0  0  0  0  0  0  0  0  0  0  0
   -6.2192    5.1037  -14.6306 C   0  0  0  0  0  0  0  0  0  0  0  0
   -7.1226    5.7054  -15.2030 O   0  0  0  0  0  0  0  0  0  0  0  0
   -5.4479    5.5873  -17.2544 N   0  0  0  0  0  0  0  0  0  0  0  0
   -5.9107    4.2419  -17.7550 C   0  0  0  0  0  0  0  0  0  0  0  0
   -6.7496    4.9754  -18.7014 C   0  0  0  0  0  0  0  0  0  0  0  0
   -8.1288    5.3682  -18.2755 C   0  0  0  0  0  0  0  0  0  0  0  0
   -8.6559    4.1663  -19.0671 C   0  0  0  0  0  0  0  0  0  0  0  0
   -7.2792    4.1295  -19.7889 C   0  0  0  0  0  0  0  0  0  0  0  0
   -5.5831    5.8916  -18.7708 C   0  0  1  0  0  0  0  0  0  0  0  0
   -5.6855    7.3776  -19.2284 C   0  0  0  0  0  0  0  0  0  0  0  0
   -5.5227    7.7512  -20.5747 C   0  0  0  0  0  0  0  0  0  0  0  0
   -5.4987    9.0881  -20.9688 C   0  0  0  0  0  0  0  0  0  0  0  0
   -5.6941   10.0521  -20.0008 C   0  0  0  0  0  0  0  0  0  0  0  0
   -5.9060    9.7643  -18.7026 N   0  0  0  0  0  0  0  0  0  0  0  0
   -5.8479    8.4498  -18.3543 C   0  0  0  0  0  0  0  0  0  0  0  0
  1  2  2  0
  2  3  1  0
  3  4  2  0
  4  5  1  0
  5  6  2  0
  6  7  1  0
  7  8  2  0
  8  9  1  0
  9 10  2  0
 10 11  1  0
 11 12  2  0
  6 13  1  0
 13 14  1  0
 14 15  2  0
  2 16  1  0
 16 17  1  0
 17 18  1  0
 18 19  1  0
 19 20  1  0
 20 21  1  0
 18 22  1  0
 22 23  1  1
 23 24  2  0
 24 25  1  0
 25 26  2  0
 26 27  1  0
 27 28  2  0
 14  3  1  0
 22 16  1  0
 28 23  1  0
 12  7  1  0
 21 18  1  0
M  END
>  <energy_score>  (695) 
-13.385813

>  <alias>  (695) 
None

>  <HIPPO Pose ID>  (695) 
70062

>  <smiles>  (695) 
O=C(c1ccc(-c2ccccn2)[nH]c1=O)N1CC2(CCC2)[C@H]1c1cccnc1

>  <inchikey>  (695) 
LZRGBQNEPMUEEE-LJQANCHMSA-N

>  <distance_score>  (695) 
1.854419

>  <ref_mols>  (695) 
Z0490a,Z0719a

>  <ref_pdb>  (695) 
Z0719a

>  <HIPPO Compound ID>  (695) 
140726

>  <name>  (695) 
P70062

>  <inspiration_score>  (695) 
None

$$$$
P70064
     RDKit          3D

 28 32  0  0  0  0  0  0  0  0999 V2000
   -3.8910    6.0853  -16.8238 O   0  0  0  0  0  0  0  0  0  0  0  0
   -4.7935    5.5166  -16.3345 C   0  0  0  0  0  0  0  0  0  0  0  0
   -4.7306    4.5779  -15.1868 C   0  0  0  0  0  0  0  0  0  0  0  0
   -3.6065    3.8653  -15.0404 C   0  0  0  0  0  0  0  0  0  0  0  0
   -3.4960    2.9036  -13.9801 C   0  0  0  0  0  0  0  0  0  0  0  0
   -4.4975    2.7046  -13.1089 C   0  0  0  0  0  0  0  0  0  0  0  0
   -4.2533    1.8889  -11.9021 C   0  0  0  0  0  0  0  0  0  0  0  0
   -5.2698    1.5210  -11.0283 C   0  0  0  0  0  0  0  0  0  0  0  0
   -4.9294    0.8791   -9.8448 C   0  0  0  0  0  0  0  0  0  0  0  0
   -3.5953    0.6076   -9.5713 C   0  0  0  0  0  0  0  0  0  0  0  0
   -2.6472    0.9671  -10.5039 C   0  0  0  0  0  0  0  0  0  0  0  0
   -2.9419    1.6128  -11.6454 N   0  0  0  0  0  0  0  0  0  0  0  0
   -5.6835    3.3709  -13.2957 N   0  0  0  0  0  0  0  0  0  0  0  0
   -5.8950    4.3142  -14.2664 C   0  0  0  0  0  0  0  0  0  0  0  0
   -6.9726    4.9001  -14.3142 O   0  0  0  0  0  0  0  0  0  0  0  0
   -6.2381    5.5152  -16.6903 N   0  0  0  0  0  0  0  0  0  0  0  0
   -6.5700    4.3983  -17.7146 C   0  0  0  0  0  0  0  0  0  0  0  0
   -7.8559    5.0932  -17.8389 C   0  0  0  0  0  0  0  0  0  0  0  0
   -8.8311    4.7361  -18.8988 C   0  0  0  0  0  0  0  0  0  0  0  0
   -9.6565    3.9807  -17.8501 C   0  0  0  0  0  0  0  0  0  0  0  0
   -8.8729    4.7108  -16.7502 C   0  0  0  0  0  0  0  0  0  0  0  0
   -6.9998    6.3132  -17.7157 C   0  0  2  0  0  0  0  0  0  0  0  0
   -6.1447    7.0961  -18.7970 C   0  0  0  0  0  0  0  0  0  0  0  0
   -5.5403    8.3281  -18.4674 C   0  0  0  0  0  0  0  0  0  0  0  0
   -4.8282    9.0552  -19.4123 C   0  0  0  0  0  0  0  0  0  0  0  0
   -4.6771    8.6665  -20.6899 N   0  0  0  0  0  0  0  0  0  0  0  0
   -5.2129    7.4699  -21.0005 C   0  0  0  0  0  0  0  0  0  0  0  0
   -5.9124    6.6733  -20.1016 C   0  0  0  0  0  0  0  0  0  0  0  0
  1  2  2  0
  2  3  1  0
  3  4  2  0
  4  5  1  0
  5  6  2  0
  6  7  1  0
  7  8  2  0
  8  9  1  0
  9 10  2  0
 10 11  1  0
 11 12  2  0
  6 13  1  0
 13 14  1  0
 14 15  2  0
  2 16  1  0
 16 17  1  0
 17 18  1  0
 18 19  1  0
 19 20  1  0
 20 21  1  0
 18 22  1  0
 22 23  1  6
 23 24  2  0
 24 25  1  0
 25 26  2  0
 26 27  1  0
 27 28  2  0
 14  3  1  0
 22 16  1  0
 28 23  1  0
 12  7  1  0
 21 18  1  0
M  END
>  <energy_score>  (696) 
-14.272014

>  <alias>  (696) 
None

>  <HIPPO Pose ID>  (696) 
70064

>  <smiles>  (696) 
O=C(c1ccc(-c2ccccn2)[nH]c1=O)N1CC2(CCC2)[C@@H]1c1ccncc1

>  <inchikey>  (696) 
RTBXVJKVXKPFDQ-IBGZPJMESA-N

>  <distance_score>  (696) 
1.652465

>  <ref_mols>  (696) 
Z0490a,Z0719a

>  <ref_pdb>  (696) 
Z0719a

>  <HIPPO Compound ID>  (696) 
140727

>  <name>  (696) 
P70064

>  <inspiration_score>  (696) 
None

$$$$
P70065
     RDKit          3D

 29 33  0  0  0  0  0  0  0  0999 V2000
   -5.6464    2.2534  -12.7153 C   0  0  0  0  0  0  0  0  0  0  0  0
   -6.0734    3.5772  -13.1661 N   0  0  0  0  0  0  0  0  0  0  0  0
   -5.0730    4.1453  -14.0583 C   0  0  0  0  0  0  0  0  0  0  0  0
   -5.4721    5.5592  -14.4598 C   0  0  0  0  0  0  0  0  0  0  0  0
   -6.8235    5.6682  -15.1955 C   0  0  0  0  0  0  0  0  0  0  0  0
   -6.7452    5.1069  -16.6242 C   0  0  2  0  0  0  0  0  0  0  0  0
   -5.6875    5.8103  -17.5825 N   0  0  0  0  0  0  0  0  0  0  0  0
   -4.7409    6.9700  -17.3299 C   0  0  0  0  0  0  0  0  0  0  0  0
   -4.6264    7.6699  -16.3882 O   0  0  0  0  0  0  0  0  0  0  0  0
   -3.8457    7.0284  -18.5049 C   0  0  0  0  0  0  0  0  0  0  0  0
   -3.8915    8.0856  -19.3330 C   0  0  0  0  0  0  0  0  0  0  0  0
   -3.0649    8.1289  -20.5232 C   0  0  0  0  0  0  0  0  0  0  0  0
   -2.2270    7.1140  -20.7998 C   0  0  0  0  0  0  0  0  0  0  0  0
   -1.3686    7.0166  -21.9983 C   0  0  0  0  0  0  0  0  0  0  0  0
   -0.8453    8.1202  -22.6636 C   0  0  0  0  0  0  0  0  0  0  0  0
    0.0075    7.9064  -23.7450 C   0  0  0  0  0  0  0  0  0  0  0  0
    0.3236    6.6060  -24.1217 C   0  0  0  0  0  0  0  0  0  0  0  0
   -0.2341    5.5628  -23.4044 C   0  0  0  0  0  0  0  0  0  0  0  0
   -1.0830    5.7362  -22.3658 N   0  0  0  0  0  0  0  0  0  0  0  0
   -2.1640    6.0430  -19.9342 N   0  0  0  0  0  0  0  0  0  0  0  0
   -2.8960    5.9150  -18.7818 C   0  0  0  0  0  0  0  0  0  0  0  0
   -2.7430    4.9532  -18.0371 O   0  0  0  0  0  0  0  0  0  0  0  0
   -7.0246    6.2972  -18.2473 C   0  0  0  0  0  0  0  0  0  0  0  0
   -7.7539    5.1690  -17.7164 C   0  0  0  0  0  0  0  0  0  0  0  0
   -7.8794    3.9949  -18.6478 C   0  0  0  0  0  0  0  0  0  0  0  0
   -9.1098    3.6064  -17.7875 C   0  0  0  0  0  0  0  0  0  0  0  0
   -9.2435    5.0944  -17.4994 C   0  0  0  0  0  0  0  0  0  0  0  0
   -7.8442    4.9247  -14.3034 C   0  0  0  0  0  0  0  0  0  0  0  0
   -7.3829    3.5365  -13.8214 C   0  0  0  0  0  0  0  0  0  0  0  0
  1  2  1  0
  2  3  1  0
  3  4  1  0
  4  5  1  0
  6  5  1  1
  6  7  1  0
  7  8  1  0
  8  9  2  0
  8 10  1  0
 10 11  2  0
 11 12  1  0
 12 13  2  0
 13 14  1  0
 14 15  2  0
 15 16  1  0
 16 17  2  0
 17 18  1  0
 18 19  2  0
 13 20  1  0
 20 21  1  0
 21 22  2  0
  7 23  1  0
 23 24  1  0
 24 25  1  0
 25 26  1  0
 26 27  1  0
  5 28  1  0
 28 29  1  0
 29  2  1  0
 24  6  1  0
 21 10  1  0
 27 24  1  0
 19 14  1  0
M  END
>  <energy_score>  (697) 
-38.7127

>  <alias>  (697) 
None

>  <HIPPO Pose ID>  (697) 
70065

>  <smiles>  (697) 
CN1CCC([C@@H]2N(C(=O)c3ccc(-c4ccccn4)[nH]c3=O)CC23CCC3)CC1

>  <inchikey>  (697) 
JMZSKLPWMBHMMU-FQEVSTJZSA-N

>  <distance_score>  (697) 
1.566718

>  <ref_mols>  (697) 
Z0490a,Z0719a

>  <ref_pdb>  (697) 
Z0719a

>  <HIPPO Compound ID>  (697) 
140737

>  <name>  (697) 
P70065

>  <inspiration_score>  (697) 
None

$$$$
P70066
     RDKit          3D

 29 33  0  0  0  0  0  0  0  0999 V2000
   -3.7490    4.7311  -17.8213 O   0  0  0  0  0  0  0  0  0  0  0  0
   -4.6742    4.7783  -17.0964 C   0  0  0  0  0  0  0  0  0  0  0  0
   -4.6479    4.3106  -15.6701 C   0  0  0  0  0  0  0  0  0  0  0  0
   -3.6038    3.5349  -15.3386 C   0  0  0  0  0  0  0  0  0  0  0  0
   -3.5187    2.8902  -14.0579 C   0  0  0  0  0  0  0  0  0  0  0  0
   -4.4911    3.0524  -13.1519 C   0  0  0  0  0  0  0  0  0  0  0  0
   -4.2871    2.6434  -11.7533 C   0  0  0  0  0  0  0  0  0  0  0  0
   -3.5577    1.5095  -11.4010 C   0  0  0  0  0  0  0  0  0  0  0  0
   -3.1599    1.3509  -10.0798 C   0  0  0  0  0  0  0  0  0  0  0  0
   -3.5130    2.3204   -9.1533 C   0  0  0  0  0  0  0  0  0  0  0  0
   -4.3172    3.3691   -9.5637 C   0  0  0  0  0  0  0  0  0  0  0  0
   -4.7083    3.5542  -10.8400 N   0  0  0  0  0  0  0  0  0  0  0  0
   -5.5872    3.8130  -13.4719 N   0  0  0  0  0  0  0  0  0  0  0  0
   -5.7478    4.4965  -14.6534 C   0  0  0  0  0  0  0  0  0  0  0  0
   -6.7238    5.2215  -14.8115 O   0  0  0  0  0  0  0  0  0  0  0  0
   -6.0834    5.1818  -17.3572 N   0  0  0  0  0  0  0  0  0  0  0  0
   -6.9205    4.0148  -17.7716 C   0  0  0  0  0  0  0  0  0  0  0  0
   -7.9763    5.0440  -18.0709 C   0  0  0  0  0  0  0  0  0  0  0  0
   -9.1059    4.4284  -18.8540 C   0  0  0  0  0  0  0  0  0  0  0  0
  -10.0489    4.7641  -17.6882 C   0  0  0  0  0  0  0  0  0  0  0  0
   -8.8308    5.1121  -16.8054 C   0  0  0  0  0  0  0  0  0  0  0  0
   -6.7344    5.7462  -18.5963 C   0  0  1  0  0  0  0  0  0  0  0  0
   -6.3007    7.2557  -18.7814 C   0  0  0  0  0  0  0  0  0  0  0  0
   -6.0310    7.7839  -20.0642 C   0  0  0  0  0  0  0  0  0  0  0  0
   -5.4958    9.0619  -20.2638 C   0  0  0  0  0  0  0  0  0  0  0  0
   -5.1875    9.8467  -19.1673 C   0  0  0  0  0  0  0  0  0  0  0  0
   -4.6823   11.0734  -19.3485 F   0  0  0  0  0  0  0  0  0  0  0  0
   -5.3852    9.3664  -17.8849 C   0  0  0  0  0  0  0  0  0  0  0  0
   -5.9208    8.0846  -17.7041 C   0  0  0  0  0  0  0  0  0  0  0  0
  1  2  2  0
  2  3  1  0
  3  4  2  0
  4  5  1  0
  5  6  2  0
  6  7  1  0
  7  8  2  0
  8  9  1  0
  9 10  2  0
 10 11  1  0
 11 12  2  0
  6 13  1  0
 13 14  1  0
 14 15  2  0
  2 16  1  0
 16 17  1  0
 17 18  1  0
 18 19  1  0
 19 20  1  0
 20 21  1  0
 18 22  1  0
 22 23  1  1
 23 24  2  0
 24 25  1  0
 25 26  2  0
 26 27  1  0
 26 28  1  0
 28 29  2  0
 14  3  1  0
 22 16  1  0
 29 23  1  0
 12  7  1  0
 21 18  1  0
M  END
>  <energy_score>  (698) 
-0.701201

>  <alias>  (698) 
None

>  <HIPPO Pose ID>  (698) 
70066

>  <smiles>  (698) 
O=C(c1ccc(-c2ccccn2)[nH]c1=O)N1CC2(CCC2)[C@H]1c1ccc(F)cc1

>  <inchikey>  (698) 
NNRZCTHIAJXFFP-HXUWFJFHSA-N

>  <distance_score>  (698) 
1.543883

>  <ref_mols>  (698) 
Z0490a,Z0719a

>  <ref_pdb>  (698) 
Z0719a

>  <HIPPO Compound ID>  (698) 
140741

>  <name>  (698) 
P70066

>  <inspiration_score>  (698) 
None

$$$$
P70067
     RDKit          3D

 30 34  0  0  0  0  0  0  0  0999 V2000
   -2.5079    4.8557  -16.5013 O   0  0  0  0  0  0  0  0  0  0  0  0
   -3.4517    4.4360  -15.9350 C   0  0  0  0  0  0  0  0  0  0  0  0
   -3.3511    3.9869  -14.4951 C   0  0  0  0  0  0  0  0  0  0  0  0
   -2.2226    4.3912  -13.8764 C   0  0  0  0  0  0  0  0  0  0  0  0
   -1.8944    3.9920  -12.5364 C   0  0  0  0  0  0  0  0  0  0  0  0
   -2.6903    3.1406  -11.8754 C   0  0  0  0  0  0  0  0  0  0  0  0
   -2.2845    2.6673  -10.5404 C   0  0  0  0  0  0  0  0  0  0  0  0
   -2.2222    1.3080  -10.2562 C   0  0  0  0  0  0  0  0  0  0  0  0
   -1.6814    0.9112   -9.0362 C   0  0  0  0  0  0  0  0  0  0  0  0
   -1.2626    1.8702   -8.1223 C   0  0  0  0  0  0  0  0  0  0  0  0
   -1.3829    3.2008   -8.4763 C   0  0  0  0  0  0  0  0  0  0  0  0
   -1.8634    3.6185   -9.6660 N   0  0  0  0  0  0  0  0  0  0  0  0
   -3.8570    2.7096  -12.4642 N   0  0  0  0  0  0  0  0  0  0  0  0
   -4.3167    3.1306  -13.7006 C   0  0  0  0  0  0  0  0  0  0  0  0
   -5.4305    2.7659  -14.0648 O   0  0  0  0  0  0  0  0  0  0  0  0
   -4.8627    4.2825  -16.3928 N   0  0  0  0  0  0  0  0  0  0  0  0
   -5.7074    5.5584  -16.0818 C   0  0  0  0  0  0  0  0  0  0  0  0
   -6.6859    4.9725  -17.0323 C   0  0  0  0  0  0  0  0  0  0  0  0
   -7.7208    5.8091  -17.6875 C   0  0  0  0  0  0  0  0  0  0  0  0
   -8.6234    5.3780  -16.4613 C   0  0  0  0  0  0  0  0  0  0  0  0
   -8.4994    6.2785  -15.3283 O   0  0  0  0  0  0  0  0  0  0  0  0
   -8.9768    5.8105  -14.0740 C   0  0  0  0  0  0  0  0  0  0  0  0
   -7.9090    5.9196  -13.0198 C   0  0  0  0  0  0  0  0  0  0  0  0
   -7.5573    4.8024  -12.2499 C   0  0  0  0  0  0  0  0  0  0  0  0
   -6.5754    4.9029  -11.2630 C   0  0  0  0  0  0  0  0  0  0  0  0
   -5.9321    6.1179  -11.0383 C   0  0  0  0  0  0  0  0  0  0  0  0
   -6.2780    7.2378  -11.7924 C   0  0  0  0  0  0  0  0  0  0  0  0
   -7.2652    7.1411  -12.7748 C   0  0  0  0  0  0  0  0  0  0  0  0
   -7.7633    4.1011  -16.4355 C   0  0  0  0  0  0  0  0  0  0  0  0
   -5.4969    4.5227  -17.7534 C   0  0  0  0  0  0  0  0  0  0  0  0
  1  2  2  0
  2  3  1  0
  3  4  2  0
  4  5  1  0
  5  6  2  0
  6  7  1  0
  7  8  2  0
  8  9  1  0
  9 10  2  0
 10 11  1  0
 11 12  2  0
  6 13  1  0
 13 14  1  0
 14 15  2  0
  2 16  1  0
 16 17  1  0
 17 18  1  0
 18 19  1  0
 19 20  1  0
 20 21  1  0
 21 22  1  0
 22 23  1  0
 23 24  2  0
 24 25  1  0
 25 26  2  0
 26 27  1  0
 27 28  2  0
 20 29  1  0
 18 30  1  0
 14  3  1  0
 30 16  1  0
 12  7  1  0
 29 18  1  0
 28 23  1  0
M  END
>  <energy_score>  (699) 
-10.243502

>  <alias>  (699) 
None

>  <HIPPO Pose ID>  (699) 
70067

>  <smiles>  (699) 
O=C(c1ccc(-c2ccccn2)[nH]c1=O)N1CC2(CC(OCc3ccccc3)C2)C1

>  <inchikey>  (699) 
WNSHLRSKKSKJQU-UHFFFAOYSA-N

>  <distance_score>  (699) 
1.80596

>  <ref_mols>  (699) 
Z0490a,Z0719a

>  <ref_pdb>  (699) 
Z0719a

>  <HIPPO Compound ID>  (699) 
140745

>  <name>  (699) 
P70067

>  <inspiration_score>  (699) 
None

$$$$
P70068
     RDKit          3D

 31 34  0  0  0  0  0  0  0  0999 V2000
   -2.1197    8.1517  -20.6419 C   0  0  0  0  0  0  0  0  0  0  0  0
   -3.6450    8.2882  -20.5114 C   0  0  0  0  0  0  0  0  0  0  0  0
   -3.9802    9.7596  -20.2360 C   0  0  0  0  0  0  0  0  0  0  0  0
   -4.2891    7.7967  -21.8102 C   0  0  0  0  0  0  0  0  0  0  0  0
   -3.9913    7.4538  -19.3769 O   0  0  0  0  0  0  0  0  0  0  0  0
   -5.2796    7.3743  -18.9328 C   0  0  0  0  0  0  0  0  0  0  0  0
   -6.1941    7.8394  -19.5070 O   0  0  0  0  0  0  0  0  0  0  0  0
   -5.2155    6.6971  -17.5944 N   0  0  0  0  0  0  0  0  0  0  0  0
   -6.2711    6.4983  -16.5463 C   0  0  0  0  0  0  0  0  0  0  0  0
   -6.8031    5.2883  -17.1867 C   0  0  0  0  0  0  0  0  0  0  0  0
   -7.9273    5.2251  -18.1865 C   0  0  0  0  0  0  0  0  0  0  0  0
   -8.8029    4.5928  -17.0840 C   0  0  0  0  0  0  0  0  0  0  0  0
   -7.5067    4.3074  -16.2722 C   0  0  2  0  0  0  0  0  0  0  0  0
   -7.6590    4.5122  -14.7737 C   0  0  0  0  0  0  0  0  0  0  0  0
   -6.4714    3.9973  -14.1432 N   0  0  0  0  0  0  0  0  0  0  0  0
   -6.2279    2.6673  -13.3977 C   0  0  0  0  0  0  0  0  0  0  0  0
   -6.9712    1.8137  -13.1103 O   0  0  0  0  0  0  0  0  0  0  0  0
   -4.7818    2.5596  -12.9920 C   0  0  0  0  0  0  0  0  0  0  0  0
   -4.4867    1.6659  -12.0284 C   0  0  0  0  0  0  0  0  0  0  0  0
   -3.1249    1.3056  -11.7006 C   0  0  0  0  0  0  0  0  0  0  0  0
   -2.1012    1.8565  -12.3723 C   0  0  0  0  0  0  0  0  0  0  0  0
   -0.6737    1.4799  -12.2173 C   0  0  0  0  0  0  0  0  0  0  0  0
   -0.2430    0.3720  -11.4904 C   0  0  0  0  0  0  0  0  0  0  0  0
    1.1179    0.0715  -11.4519 C   0  0  0  0  0  0  0  0  0  0  0  0
    2.0160    0.8806  -12.1341 C   0  0  0  0  0  0  0  0  0  0  0  0
    1.5139    1.9597  -12.8376 C   0  0  0  0  0  0  0  0  0  0  0  0
    0.1998    2.2676  -12.9048 N   0  0  0  0  0  0  0  0  0  0  0  0
   -2.3840    2.8437  -13.2953 N   0  0  0  0  0  0  0  0  0  0  0  0
   -3.6431    3.2779  -13.6309 C   0  0  0  0  0  0  0  0  0  0  0  0
   -3.8146    4.2060  -14.4175 O   0  0  0  0  0  0  0  0  0  0  0  0
   -5.4481    5.1121  -17.7246 C   0  0  0  0  0  0  0  0  0  0  0  0
  1  2  1  0
  2  3  1  0
  2  4  1  0
  2  5  1  0
  5  6  1  0
  6  7  2  0
  6  8  1  0
  8  9  1  0
  9 10  1  0
 10 11  1  0
 11 12  1  0
 12 13  1  0
 13 14  1  1
 14 15  1  0
 15 16  1  0
 16 17  2  0
 16 18  1  0
 18 19  2  0
 19 20  1  0
 20 21  2  0
 21 22  1  0
 22 23  2  0
 23 24  1  0
 24 25  2  0
 25 26  1  0
 26 27  2  0
 21 28  1  0
 28 29  1  0
 29 30  2  0
 10 31  1  0
 31  8  1  0
 13 10  1  0
 29 18  1  0
 27 22  1  0
M  END
>  <energy_score>  (700) 
-16.253852

>  <alias>  (700) 
None

>  <HIPPO Pose ID>  (700) 
70068

>  <smiles>  (700) 
CC(C)(C)OC(=O)N1CC2(CC[C@@H]2CNC(=O)c2ccc(-c3ccccn3)[nH]c2=O)C1

>  <inchikey>  (700) 
XYLFZOFYOWAPLP-OAHLLOKOSA-N

>  <distance_score>  (700) 
1.723796

>  <ref_mols>  (700) 
Z0490a,Z0719a

>  <ref_pdb>  (700) 
Z0719a

>  <HIPPO Compound ID>  (700) 
140749

>  <name>  (700) 
P70068

>  <inspiration_score>  (700) 
None

$$$$
P70069
     RDKit          3D

 32 36  0  0  0  0  0  0  0  0999 V2000
   -5.2013    8.5703  -16.7732 O   0  0  0  0  0  0  0  0  0  0  0  0
   -5.0554    7.6215  -17.4532 C   0  0  0  0  0  0  0  0  0  0  0  0
   -4.0377    7.5275  -18.5212 C   0  0  0  0  0  0  0  0  0  0  0  0
   -3.0197    6.6647  -18.3680 C   0  0  0  0  0  0  0  0  0  0  0  0
   -2.0785    6.4465  -19.4371 C   0  0  0  0  0  0  0  0  0  0  0  0
   -2.2016    7.1196  -20.5937 C   0  0  0  0  0  0  0  0  0  0  0  0
   -1.2783    6.8435  -21.7054 C   0  0  0  0  0  0  0  0  0  0  0  0
   -0.6325    7.8675  -22.3900 C   0  0  0  0  0  0  0  0  0  0  0  0
    0.2799    7.5291  -23.3864 C   0  0  0  0  0  0  0  0  0  0  0  0
    0.5273    6.1883  -23.6597 C   0  0  0  0  0  0  0  0  0  0  0  0
   -0.1679    5.2332  -22.9382 C   0  0  0  0  0  0  0  0  0  0  0  0
   -1.0901    5.5288  -21.9922 N   0  0  0  0  0  0  0  0  0  0  0  0
   -3.2193    8.0352  -20.7486 N   0  0  0  0  0  0  0  0  0  0  0  0
   -4.1820    8.2856  -19.7930 C   0  0  0  0  0  0  0  0  0  0  0  0
   -5.1072    9.0653  -20.0042 O   0  0  0  0  0  0  0  0  0  0  0  0
   -5.8488    6.3367  -17.5228 N   0  0  0  0  0  0  0  0  0  0  0  0
   -7.0181    6.4408  -18.5632 C   0  0  0  0  0  0  0  0  0  0  0  0
   -7.7125    5.3569  -17.8765 C   0  0  0  0  0  0  0  0  0  0  0  0
   -7.4982    4.0044  -18.4576 C   0  0  0  0  0  0  0  0  0  0  0  0
   -8.8918    3.6355  -17.8935 C   0  0  0  0  0  0  0  0  0  0  0  0
   -9.2030    5.1223  -17.8566 C   0  0  0  0  0  0  0  0  0  0  0  0
   -7.0333    5.8280  -16.6520 C   0  0  1  0  0  0  0  0  0  0  0  0
   -6.5977    4.8280  -15.4952 C   0  0  0  0  0  0  0  0  0  0  0  0
   -7.5037    4.2501  -14.5865 C   0  0  0  0  0  0  0  0  0  0  0  0
   -7.0843    3.3968  -13.5526 C   0  0  0  0  0  0  0  0  0  0  0  0
   -5.7290    3.0975  -13.3852 C   0  0  0  0  0  0  0  0  0  0  0  0
   -5.2272    2.2432  -12.2517 C   0  0  0  0  0  0  0  0  0  0  0  0
   -4.9880    2.9872  -11.1311 F   0  0  0  0  0  0  0  0  0  0  0  0
   -6.0905    1.2713  -11.8765 F   0  0  0  0  0  0  0  0  0  0  0  0
   -4.0387    1.6346  -12.5320 F   0  0  0  0  0  0  0  0  0  0  0  0
   -4.8140    3.6671  -14.2663 C   0  0  0  0  0  0  0  0  0  0  0  0
   -5.2475    4.4994  -15.2939 C   0  0  0  0  0  0  0  0  0  0  0  0
  1  2  2  0
  2  3  1  0
  3  4  2  0
  4  5  1  0
  5  6  2  0
  6  7  1  0
  7  8  2  0
  8  9  1  0
  9 10  2  0
 10 11  1  0
 11 12  2  0
  6 13  1  0
 13 14  1  0
 14 15  2  0
  2 16  1  0
 16 17  1  0
 17 18  1  0
 18 19  1  0
 19 20  1  0
 20 21  1  0
 18 22  1  0
 22 23  1  1
 23 24  2  0
 24 25  1  0
 25 26  2  0
 26 27  1  0
 27 28  1  0
 27 29  1  0
 27 30  1  0
 26 31  1  0
 31 32  2  0
 14  3  1  0
 22 16  1  0
 32 23  1  0
 12  7  1  0
 21 18  1  0
M  END
>  <energy_score>  (701) 
-34.600036

>  <alias>  (701) 
None

>  <HIPPO Pose ID>  (701) 
70069

>  <smiles>  (701) 
O=C(c1ccc(-c2ccccn2)[nH]c1=O)N1CC2(CCC2)[C@H]1c1ccc(C(F)(F)F)cc1

>  <inchikey>  (701) 
TUAZHTMVJHCAAK-HXUWFJFHSA-N

>  <distance_score>  (701) 
1.796973

>  <ref_mols>  (701) 
Z0490a,Z0719a

>  <ref_pdb>  (701) 
Z0719a

>  <HIPPO Compound ID>  (701) 
140750

>  <name>  (701) 
P70069

>  <inspiration_score>  (701) 
None

$$$$
P70071
     RDKit          3D

 32 35  0  0  0  0  0  0  0  0999 V2000
   -7.3900    6.3108  -14.8162 C   0  0  0  0  0  0  0  0  0  0  0  0
   -7.2522    4.9328  -15.4746 C   0  0  0  0  0  0  0  0  0  0  0  0
   -7.4913    3.8393  -14.4352 C   0  0  0  0  0  0  0  0  0  0  0  0
   -6.2557    3.4244  -13.8223 N   0  0  0  0  0  0  0  0  0  0  0  0
   -5.9324    3.0783  -12.3552 C   0  0  0  0  0  0  0  0  0  0  0  0
   -6.5955    3.1485  -11.3984 O   0  0  0  0  0  0  0  0  0  0  0  0
   -4.5469    2.4705  -12.2587 C   0  0  0  0  0  0  0  0  0  0  0  0
   -4.2370    1.8326  -11.1108 C   0  0  0  0  0  0  0  0  0  0  0  0
   -2.9658    1.1684  -10.9083 C   0  0  0  0  0  0  0  0  0  0  0  0
   -2.0184    1.2024  -11.8610 C   0  0  0  0  0  0  0  0  0  0  0  0
   -0.6662    0.5879  -11.7586 C   0  0  0  0  0  0  0  0  0  0  0  0
   -0.1379    0.1109  -10.5597 C   0  0  0  0  0  0  0  0  0  0  0  0
    1.1743   -0.3594  -10.5267 C   0  0  0  0  0  0  0  0  0  0  0  0
    1.9348   -0.3368  -11.6855 C   0  0  0  0  0  0  0  0  0  0  0  0
    1.3444    0.1455  -12.8393 C   0  0  0  0  0  0  0  0  0  0  0  0
    0.0666    0.5880  -12.9135 N   0  0  0  0  0  0  0  0  0  0  0  0
   -2.3118    1.8582  -13.0374 N   0  0  0  0  0  0  0  0  0  0  0  0
   -3.5105    2.4592  -13.3329 C   0  0  0  0  0  0  0  0  0  0  0  0
   -3.7074    2.9528  -14.4407 O   0  0  0  0  0  0  0  0  0  0  0  0
   -5.9927    4.8532  -16.4096 C   0  0  0  0  0  0  0  0  0  0  0  0
   -6.8902    5.1372  -17.5763 C   0  0  0  0  0  0  0  0  0  0  0  0
   -6.5808    4.5819  -18.8966 C   0  0  0  0  0  0  0  0  0  0  0  0
   -5.8358    5.8511  -19.3085 N   0  0  0  0  0  0  0  0  0  0  0  0
   -4.4240    6.2806  -19.0563 C   0  0  0  0  0  0  0  0  0  0  0  0
   -3.5792    5.7764  -18.4142 O   0  0  0  0  0  0  0  0  0  0  0  0
   -4.2678    7.4667  -19.7147 O   0  0  0  0  0  0  0  0  0  0  0  0
   -3.0056    8.1775  -19.6885 C   0  0  0  0  0  0  0  0  0  0  0  0
   -2.6432    8.6197  -18.2664 C   0  0  0  0  0  0  0  0  0  0  0  0
   -1.8879    7.3538  -20.3380 C   0  0  0  0  0  0  0  0  0  0  0  0
   -3.2497    9.4308  -20.5433 C   0  0  0  0  0  0  0  0  0  0  0  0
   -6.8122    6.4403  -18.2410 C   0  0  0  0  0  0  0  0  0  0  0  0
   -8.1118    4.7400  -16.7879 C   0  0  0  0  0  0  0  0  0  0  0  0
  1  2  1  0
  2  3  1  0
  3  4  1  0
  4  5  1  0
  5  6  2  0
  5  7  1  0
  7  8  2  0
  8  9  1  0
  9 10  2  0
 10 11  1  0
 11 12  2  0
 12 13  1  0
 13 14  2  0
 14 15  1  0
 15 16  2  0
 10 17  1  0
 17 18  1  0
 18 19  2  0
  2 20  1  0
 20 21  1  0
 21 22  1  0
 22 23  1  0
 23 24  1  0
 24 25  2  0
 24 26  1  0
 26 27  1  0
 27 28  1  0
 27 29  1  0
 27 30  1  0
 23 31  1  0
 21 32  1  0
 32  2  1  0
 18  7  1  0
 31 21  1  0
 16 11  1  0
M  END
>  <energy_score>  (702) 
-20.864304

>  <alias>  (702) 
None

>  <HIPPO Pose ID>  (702) 
70071

>  <smiles>  (702) 
CC1(CNC(=O)c2ccc(-c3ccccn3)[nH]c2=O)CC2(CN(C(=O)OC(C)(C)C)C2)C1

>  <inchikey>  (702) 
KBIFEOUHTFYQRW-UHFFFAOYSA-N

>  <distance_score>  (702) 
1.950345

>  <ref_mols>  (702) 
Z0490a,Z0719a

>  <ref_pdb>  (702) 
Z0719a

>  <HIPPO Compound ID>  (702) 
140751

>  <name>  (702) 
P70071

>  <inspiration_score>  (702) 
None

$$$$
P70072
     RDKit          3D

 23 25  0  0  0  0  0  0  0  0999 V2000
   -8.3499    3.8096  -15.7304 C   0  0  0  0  0  0  0  0  0  0  0  0
   -7.6295    4.5579  -16.7216 N   0  0  0  0  0  0  0  0  0  0  0  0
   -7.8192    4.4762  -18.0730 C   0  0  0  0  0  0  0  0  0  0  0  0
   -6.9510    5.3840  -18.6152 C   0  0  0  0  0  0  0  0  0  0  0  0
   -6.3217    6.0800  -17.6362 N   0  0  0  0  0  0  0  0  0  0  0  0
   -6.6015    5.4420  -16.5078 C   0  0  0  0  0  0  0  0  0  0  0  0
   -5.7711    5.5780  -15.2638 C   0  0  1  0  0  0  0  0  0  0  0  0
   -6.4826    5.3647  -13.9999 N   0  0  0  0  0  0  0  0  0  0  0  0
   -7.5976    6.1810  -13.3328 C   0  0  0  0  0  0  0  0  0  0  0  0
   -8.1848    7.1116  -13.7157 O   0  0  0  0  0  0  0  0  0  0  0  0
   -7.8818    5.7460  -11.9362 C   0  0  0  0  0  0  0  0  0  0  0  0
   -8.2280    6.7288  -10.9941 C   0  0  0  0  0  0  0  0  0  0  0  0
   -8.3160    8.0247  -11.3366 F   0  0  0  0  0  0  0  0  0  0  0  0
   -8.4544    6.4282   -9.6522 C   0  0  0  0  0  0  0  0  0  0  0  0
   -8.3612    5.1227   -9.1784 C   0  0  0  0  0  0  0  0  0  0  0  0
   -8.0223    4.1513  -10.1137 C   0  0  0  0  0  0  0  0  0  0  0  0
   -7.8197    2.8013   -9.9732 N   0  0  0  0  0  0  0  0  0  0  0  0
   -7.3737    2.3370  -11.1670 C   0  0  0  0  0  0  0  0  0  0  0  0
   -7.4097    3.2623  -12.0921 N   0  0  0  0  0  0  0  0  0  0  0  0
   -7.7751    4.4235  -11.4628 C   0  0  0  0  0  0  0  0  0  0  0  0
   -4.5234    4.6490  -15.4459 C   0  0  0  0  0  0  0  0  0  0  0  0
   -3.6231    5.0339  -16.2511 O   0  0  0  0  0  0  0  0  0  0  0  0
   -4.4955    3.6224  -14.6892 O   0  0  0  0  0  0  0  0  0  0  0  0
  1  2  1  0
  2  3  1  0
  3  4  2  0
  4  5  1  0
  5  6  2  0
  6  7  1  0
  7  8  1  1
  8  9  1  0
  9 10  2  0
  9 11  1  0
 11 12  2  0
 12 13  1  0
 12 14  1  0
 14 15  2  0
 15 16  1  0
 16 17  1  0
 17 18  1  0
 18 19  2  0
 19 20  1  0
  7 21  1  0
 21 22  2  0
 21 23  1  0
  6  2  1  0
 20 11  1  0
 20 16  2  0
M  CHG  1  23  -1
M  END
>  <energy_score>  (703) 
-19.830184

>  <alias>  (703) 
None

>  <HIPPO Pose ID>  (703) 
70072

>  <smiles>  (703) 
Cn1ccnc1[C@@H](NC(=O)c1c(F)ccc2[nH]cnc12)C(=O)[O-]

>  <inchikey>  (703) 
AGHKKAYXCFZGMH-LLVKDONJSA-M

>  <distance_score>  (703) 
1.823135

>  <ref_mols>  (703) 
Z1674a,Z1495a

>  <ref_pdb>  (703) 
Z1495a

>  <HIPPO Compound ID>  (703) 
140766

>  <name>  (703) 
P70072

>  <inspiration_score>  (703) 
None

$$$$
P70073
     RDKit          3D

 23 25  0  0  0  0  0  0  0  0999 V2000
   -3.1143    5.1907  -16.7853 C   0  0  0  0  0  0  0  0  0  0  0  0
   -3.3093    4.1120  -15.8602 O   0  0  0  0  0  0  0  0  0  0  0  0
   -4.3857    3.9752  -15.0452 C   0  0  0  0  0  0  0  0  0  0  0  0
   -4.3754    3.0704  -14.2058 O   0  0  0  0  0  0  0  0  0  0  0  0
   -5.5581    4.9544  -15.1515 C   0  0  2  0  0  0  0  0  0  0  0  0
   -6.3544    4.9022  -13.9376 N   0  0  0  0  0  0  0  0  0  0  0  0
   -7.4396    5.8519  -13.4162 C   0  0  0  0  0  0  0  0  0  0  0  0
   -7.9249    6.7866  -13.9108 O   0  0  0  0  0  0  0  0  0  0  0  0
   -7.8359    5.5460  -12.0094 C   0  0  0  0  0  0  0  0  0  0  0  0
   -8.2783    6.5970  -11.1889 C   0  0  0  0  0  0  0  0  0  0  0  0
   -8.4008    7.8467  -11.6642 F   0  0  0  0  0  0  0  0  0  0  0  0
   -8.5588    6.4151   -9.8363 C   0  0  0  0  0  0  0  0  0  0  0  0
   -8.4357    5.1645   -9.2345 C   0  0  0  0  0  0  0  0  0  0  0  0
   -8.0069    4.1250  -10.0519 C   0  0  0  0  0  0  0  0  0  0  0  0
   -7.7590    2.8041   -9.7756 N   0  0  0  0  0  0  0  0  0  0  0  0
   -7.1978    2.2604  -10.8873 C   0  0  0  0  0  0  0  0  0  0  0  0
   -7.1966    3.0996  -11.8953 N   0  0  0  0  0  0  0  0  0  0  0  0
   -7.6911    4.2834  -11.4018 C   0  0  0  0  0  0  0  0  0  0  0  0
   -6.3561    4.7417  -16.4001 C   0  0  0  0  0  0  0  0  0  0  0  0
   -5.9412    5.0237  -17.6253 N   0  0  0  0  0  0  0  0  0  0  0  0
   -6.9917    4.7670  -18.4545 C   0  0  0  0  0  0  0  0  0  0  0  0
   -8.0742    4.3454  -17.7294 C   0  0  0  0  0  0  0  0  0  0  0  0
   -7.6605    4.3046  -16.4276 N   0  0  0  0  0  0  0  0  0  0  0  0
  1  2  1  0
  2  3  1  0
  3  4  2  0
  3  5  1  0
  5  6  1  1
  6  7  1  0
  7  8  2  0
  7  9  1  0
  9 10  2  0
 10 11  1  0
 10 12  1  0
 12 13  2  0
 13 14  1  0
 14 15  1  0
 15 16  1  0
 16 17  2  0
 17 18  1  0
  5 19  1  0
 19 20  2  0
 20 21  1  0
 21 22  2  0
 22 23  1  0
 18  9  1  0
 23 19  1  0
 18 14  2  0
M  END
>  <energy_score>  (704) 
-1.011406

>  <alias>  (704) 
None

>  <HIPPO Pose ID>  (704) 
70073

>  <smiles>  (704) 
COC(=O)[C@H](NC(=O)c1c(F)ccc2[nH]cnc12)c1ncc[nH]1

>  <inchikey>  (704) 
VRJCTNYYNWTNPB-LLVKDONJSA-N

>  <distance_score>  (704) 
1.900616

>  <ref_mols>  (704) 
Z1674a,Z1495a

>  <ref_pdb>  (704) 
Z1495a

>  <HIPPO Compound ID>  (704) 
140769

>  <name>  (704) 
P70073

>  <inspiration_score>  (704) 
None

$$$$
P70074
     RDKit          3D

 24 27  0  0  0  0  0  0  0  0999 V2000
   -1.7263    5.7233  -16.5321 C   0  0  0  0  0  0  0  0  0  0  0  0
   -3.0496    5.1941  -16.9038 C   0  0  0  0  0  0  0  0  0  0  0  0
   -3.5090    4.8712  -18.1566 C   0  0  0  0  0  0  0  0  0  0  0  0
   -4.8226    4.5608  -17.9772 N   0  0  0  0  0  0  0  0  0  0  0  0
   -5.1371    4.7501  -16.6413 C   0  0  0  0  0  0  0  0  0  0  0  0
   -6.5642    4.9910  -16.2054 C   0  0  2  0  0  0  0  0  0  0  0  0
   -6.7838    4.8861  -14.7638 N   0  0  0  0  0  0  0  0  0  0  0  0
   -8.0620    5.1257  -13.9204 C   0  0  0  0  0  0  0  0  0  0  0  0
   -9.1567    5.3688  -14.2551 O   0  0  0  0  0  0  0  0  0  0  0  0
   -7.8615    5.1512  -12.4631 C   0  0  0  0  0  0  0  0  0  0  0  0
   -8.1453    6.3680  -11.8193 C   0  0  0  0  0  0  0  0  0  0  0  0
   -8.3782    7.4778  -12.5405 F   0  0  0  0  0  0  0  0  0  0  0  0
   -8.2065    6.4781  -10.4326 C   0  0  0  0  0  0  0  0  0  0  0  0
   -8.0053    5.3639   -9.6224 C   0  0  0  0  0  0  0  0  0  0  0  0
   -7.7002    4.1672  -10.2704 C   0  0  0  0  0  0  0  0  0  0  0  0
   -7.4364    2.9189   -9.7659 N   0  0  0  0  0  0  0  0  0  0  0  0
   -7.0825    2.1289  -10.8111 C   0  0  0  0  0  0  0  0  0  0  0  0
   -7.2427    2.7367  -11.9623 N   0  0  0  0  0  0  0  0  0  0  0  0
   -7.6059    4.0275  -11.6610 C   0  0  0  0  0  0  0  0  0  0  0  0
   -7.6227    4.2582  -17.0153 C   0  0  0  0  0  0  0  0  0  0  0  0
   -7.8858    5.1130  -18.2408 C   0  0  0  0  0  0  0  0  0  0  0  0
   -7.1822    6.3500  -18.0457 O   0  0  0  0  0  0  0  0  0  0  0  0
   -6.8302    6.4197  -16.6542 C   0  0  0  0  0  0  0  0  0  0  0  0
   -4.0431    5.0474  -15.9620 N   0  0  0  0  0  0  0  0  0  0  0  0
  1  2  1  0
  2  3  2  0
  3  4  1  0
  4  5  1  0
  5  6  1  0
  6  7  1  1
  7  8  1  0
  8  9  2  0
  8 10  1  0
 10 11  2  0
 11 12  1  0
 11 13  1  0
 13 14  2  0
 14 15  1  0
 15 16  1  0
 16 17  1  0
 17 18  2  0
 18 19  1  0
  6 20  1  0
 20 21  1  0
 21 22  1  0
 22 23  1  0
  5 24  2  0
 24  2  1  0
 23  6  1  0
 19 10  1  0
 19 15  2  0
M  END
>  <energy_score>  (705) 
-11.326289

>  <alias>  (705) 
None

>  <HIPPO Pose ID>  (705) 
70074

>  <smiles>  (705) 
Cc1c[nH]c([C@]2(NC(=O)c3c(F)ccc4[nH]cnc34)CCOC2)n1

>  <inchikey>  (705) 
JWIDYTXVDZQERP-INIZCTEOSA-N

>  <distance_score>  (705) 
1.490247

>  <ref_mols>  (705) 
Z1674a,Z1495a

>  <ref_pdb>  (705) 
Z1495a

>  <HIPPO Compound ID>  (705) 
140771

>  <name>  (705) 
P70074

>  <inspiration_score>  (705) 
None

$$$$
P70075
     RDKit          3D

 26 29  0  0  0  0  0  0  0  0999 V2000
   -8.0860    3.0313   -5.4119 C   0  0  0  0  0  0  0  0  0  0  0  0
   -9.2897    3.3271   -6.1870 N   0  0  0  0  0  0  0  0  0  0  0  0
   -9.2225    4.7709   -6.5120 C   0  0  0  0  0  0  0  0  0  0  0  0
   -8.6076    4.8475   -7.8677 C   0  0  0  0  0  0  0  0  0  0  0  0
   -8.0950    5.9490   -8.5222 C   0  0  0  0  0  0  0  0  0  0  0  0
   -7.6561    5.7822   -9.8317 C   0  0  0  0  0  0  0  0  0  0  0  0
   -7.7792    4.5376  -10.4625 C   0  0  0  0  0  0  0  0  0  0  0  0
   -7.5826    4.4266  -11.8247 N   0  0  0  0  0  0  0  0  0  0  0  0
   -6.9144    5.4148  -12.8384 C   0  0  0  0  0  0  0  0  0  0  0  0
   -6.3645    6.4316  -12.6551 O   0  0  0  0  0  0  0  0  0  0  0  0
   -7.2208    4.8195  -14.1984 C   0  0  1  0  0  0  0  0  0  0  0  0
   -8.7129    5.1014  -14.4425 C   0  0  0  0  0  0  0  0  0  0  0  0
   -9.1993    4.6185  -15.7912 C   0  0  0  0  0  0  0  0  0  0  0  0
   -8.0996    4.1424  -16.6685 C   0  0  0  0  0  0  0  0  0  0  0  0
   -7.0326    5.1101  -16.6301 N   0  0  0  0  0  0  0  0  0  0  0  0
   -6.4132    5.2952  -17.7952 C   0  0  0  0  0  0  0  0  0  0  0  0
   -6.9426    5.3746  -19.0546 C   0  0  0  0  0  0  0  0  0  0  0  0
   -5.8493    5.5452  -19.8972 C   0  0  0  0  0  0  0  0  0  0  0  0
   -4.7238    5.4389  -19.1187 C   0  0  0  0  0  0  0  0  0  0  0  0
   -3.3480    5.3606  -19.4804 C   0  0  0  0  0  0  0  0  0  0  0  0
   -2.9378    5.2939  -20.6388 O   0  0  0  0  0  0  0  0  0  0  0  0
   -5.0645    5.3701  -17.8080 O   0  0  0  0  0  0  0  0  0  0  0  0
   -6.3645    5.3592  -15.3445 C   0  0  0  0  0  0  0  0  0  0  0  0
   -8.2735    3.4199   -9.7832 C   0  0  0  0  0  0  0  0  0  0  0  0
   -8.6611    3.5930   -8.4716 C   0  0  0  0  0  0  0  0  0  0  0  0
   -9.2363    2.6106   -7.5069 C   0  0  0  0  0  0  0  0  0  0  0  0
  1  2  1  0
  2  3  1  0
  3  4  1  0
  4  5  2  0
  5  6  1  0
  6  7  2  0
  7  8  1  0
  8  9  1  0
  9 10  2  0
 11  9  1  1
 11 12  1  0
 12 13  1  0
 13 14  1  0
 14 15  1  0
 15 16  1  0
 16 17  2  0
 17 18  1  0
 18 19  2  0
 19 20  1  0
 20 21  2  0
 19 22  1  0
 15 23  1  0
  7 24  1  0
 24 25  2  0
 25 26  1  0
 26  2  1  0
 25  4  1  0
 23 11  1  0
 22 16  1  0
M  END
>  <energy_score>  (706) 
-67.171487

>  <alias>  (706) 
None

>  <HIPPO Pose ID>  (706) 
70075

>  <smiles>  (706) 
CN1Cc2ccc(NC(=O)[C@H]3CCCN(c4ccc(C=O)o4)C3)cc2C1

>  <inchikey>  (706) 
HGHMMAAKFCUJGS-HNNXBMFYSA-N

>  <distance_score>  (706) 
1.753676

>  <ref_mols>  (706) 
Z3527a,Z0819a

>  <ref_pdb>  (706) 
Z3527a

>  <HIPPO Compound ID>  (706) 
140897

>  <name>  (706) 
P70075

>  <inspiration_score>  (706) 
None

$$$$
P70076
     RDKit          3D

 25 28  0  0  0  0  0  0  0  0999 V2000
   -3.3308    5.6149  -17.8457 N   0  0  0  0  0  0  0  0  0  0  0  0
   -4.4408    5.2770  -17.8984 C   0  0  0  0  0  0  0  0  0  0  0  0
   -5.8041    4.8519  -17.9853 C   0  0  0  0  0  0  0  0  0  0  0  0
   -6.3830    4.5550  -19.1976 C   0  0  0  0  0  0  0  0  0  0  0  0
   -7.9907    4.0335  -19.0211 S   0  0  0  0  0  0  0  0  0  0  0  0
   -7.9597    4.2566  -17.3260 C   0  0  0  0  0  0  0  0  0  0  0  0
   -9.0378    4.0657  -16.4499 C   0  0  0  0  0  0  0  0  0  0  0  0
   -8.8317    4.2127  -15.0771 C   0  0  0  0  0  0  0  0  0  0  0  0
   -7.5840    4.5371  -14.5683 C   0  0  0  0  0  0  0  0  0  0  0  0
   -7.3802    4.7613  -13.0984 C   0  0  0  0  0  0  0  0  0  0  0  0
   -6.6855    5.6645  -12.8183 O   0  0  0  0  0  0  0  0  0  0  0  0
   -8.2192    3.8055  -12.1845 N   0  0  0  0  0  0  0  0  0  0  0  0
   -8.2927    3.7139  -10.7750 C   0  0  0  0  0  0  0  0  0  0  0  0
   -8.9362    2.6397  -10.1632 C   0  0  0  0  0  0  0  0  0  0  0  0
   -9.0128    2.6321   -8.7674 C   0  0  0  0  0  0  0  0  0  0  0  0
   -8.4996    3.6489   -7.9612 C   0  0  0  0  0  0  0  0  0  0  0  0
   -7.8619    4.7053   -8.5410 C   0  0  0  0  0  0  0  0  0  0  0  0
   -7.7761    4.7106   -9.9315 C   0  0  0  0  0  0  0  0  0  0  0  0
   -7.1921    5.7766  -10.4446 F   0  0  0  0  0  0  0  0  0  0  0  0
   -8.7559    3.3815   -6.5256 C   0  0  0  0  0  0  0  0  0  0  0  0
   -9.4913    2.1548   -6.5693 N   0  0  0  0  0  0  0  0  0  0  0  0
   -9.5987    1.6487   -7.8488 C   0  0  0  0  0  0  0  0  0  0  0  0
  -10.0971    0.5860   -8.1458 O   0  0  0  0  0  0  0  0  0  0  0  0
   -6.5301    4.8078  -15.4655 C   0  0  0  0  0  0  0  0  0  0  0  0
   -6.7021    4.6611  -16.8725 C   0  0  0  0  0  0  0  0  0  0  0  0
  1  2  3  0
  2  3  1  0
  3  4  2  0
  4  5  1  0
  5  6  1  0
  6  7  2  0
  7  8  1  0
  8  9  2  0
  9 10  1  0
 10 11  2  0
 10 12  1  0
 12 13  1  0
 13 14  2  0
 14 15  1  0
 15 16  2  0
 16 17  1  0
 17 18  2  0
 18 19  1  0
 16 20  1  0
 20 21  1  0
 21 22  1  0
 22 23  2  0
  9 24  1  0
 24 25  2  0
 25  3  1  0
 25  6  1  0
 18 13  1  0
 22 15  1  0
M  END
>  <energy_score>  (707) 
-16.88429

>  <alias>  (707) 
None

>  <HIPPO Pose ID>  (707) 
70076

>  <smiles>  (707) 
N#Cc1csc2ccc(C(=O)Nc3cc4c(cc3F)CNC4=O)cc12

>  <inchikey>  (707) 
WMTQSDGFSFIMNL-UHFFFAOYSA-N

>  <distance_score>  (707) 
1.210681

>  <ref_mols>  (707) 
Z3970a,Z2057a

>  <ref_pdb>  (707) 
Z3970a

>  <HIPPO Compound ID>  (707) 
140999

>  <name>  (707) 
P70076

>  <inspiration_score>  (707) 
None

$$$$
P70077
     RDKit          3D

 28 31  0  0  0  0  0  0  0  0999 V2000
   -3.3392    5.2172  -14.7594 C   0  0  0  0  0  0  0  0  0  0  0  0
   -4.4946    4.8045  -14.0331 O   0  0  0  0  0  0  0  0  0  0  0  0
   -4.1266    4.1746  -12.7979 C   0  0  0  0  0  0  0  0  0  0  0  0
   -5.3154    3.9556  -11.8319 C   0  0  0  0  0  0  0  0  0  0  0  0
   -4.8969    3.3228  -10.4638 C   0  0  0  0  0  0  0  0  0  0  0  0
   -5.8569    3.0192   -9.3543 N   0  0  0  0  0  0  0  0  0  0  0  0
   -6.4873    4.2180   -8.7333 C   0  0  0  0  0  0  0  0  0  0  0  0
   -7.6946    4.4629   -9.5803 C   0  0  0  0  0  0  0  0  0  0  0  0
   -8.1144    5.6881  -10.0482 C   0  0  0  0  0  0  0  0  0  0  0  0
   -8.5934    5.6924  -11.3495 C   0  0  0  0  0  0  0  0  0  0  0  0
   -8.7707    4.4819  -12.0496 C   0  0  0  0  0  0  0  0  0  0  0  0
   -8.6615    4.4611  -13.4269 N   0  0  0  0  0  0  0  0  0  0  0  0
   -8.1986    5.5475  -14.4069 C   0  0  0  0  0  0  0  0  0  0  0  0
   -7.9084    6.6592  -14.2194 O   0  0  0  0  0  0  0  0  0  0  0  0
   -8.0284    4.9936  -15.7690 C   0  0  0  0  0  0  0  0  0  0  0  0
   -9.0114    4.2258  -16.3746 C   0  0  0  0  0  0  0  0  0  0  0  0
   -8.8337    3.7723  -17.6769 C   0  0  0  0  0  0  0  0  0  0  0  0
   -7.6465    4.1052  -18.3544 C   0  0  0  0  0  0  0  0  0  0  0  0
   -7.2211    3.6350  -19.9425 S   0  0  0  0  0  0  0  0  0  0  0  0
   -5.7723    4.5073  -19.9158 C   0  0  0  0  0  0  0  0  0  0  0  0
   -5.5527    5.0852  -18.6901 C   0  0  0  0  0  0  0  0  0  0  0  0
   -4.3500    5.8089  -18.4293 C   0  0  0  0  0  0  0  0  0  0  0  0
   -3.3535    6.3796  -18.2555 N   0  0  0  0  0  0  0  0  0  0  0  0
   -6.6382    4.8757  -17.7705 C   0  0  0  0  0  0  0  0  0  0  0  0
   -6.8422    5.3142  -16.4448 C   0  0  0  0  0  0  0  0  0  0  0  0
   -8.6777    3.2448  -11.4277 C   0  0  0  0  0  0  0  0  0  0  0  0
   -8.0061    3.2607  -10.2335 C   0  0  0  0  0  0  0  0  0  0  0  0
   -7.0293    2.2087   -9.8003 C   0  0  0  0  0  0  0  0  0  0  0  0
  1  2  1  0
  2  3  1  0
  3  4  1  0
  4  5  1  0
  5  6  1  0
  6  7  1  0
  7  8  1  0
  8  9  2  0
  9 10  1  0
 10 11  2  0
 11 12  1  0
 12 13  1  0
 13 14  2  0
 13 15  1  0
 15 16  2  0
 16 17  1  0
 17 18  2  0
 18 19  1  0
 19 20  1  0
 20 21  2  0
 21 22  1  0
 22 23  3  0
 21 24  1  0
 24 25  2  0
 11 26  1  0
 26 27  2  0
 27 28  1  0
 28  6  1  0
 27  8  1  0
 25 15  1  0
 24 18  1  0
M  END
>  <energy_score>  (708) 
-14.473772

>  <alias>  (708) 
None

>  <HIPPO Pose ID>  (708) 
70077

>  <smiles>  (708) 
COCCCN1Cc2ccc(NC(=O)c3ccc4scc(C#N)c4c3)cc2C1

>  <inchikey>  (708) 
KEHIGCNDRBVFOW-UHFFFAOYSA-N

>  <distance_score>  (708) 
1.635744

>  <ref_mols>  (708) 
Z3970a,Z2057a

>  <ref_pdb>  (708) 
Z3970a

>  <HIPPO Compound ID>  (708) 
141004

>  <name>  (708) 
P70077

>  <inspiration_score>  (708) 
None

$$$$
P70080
     RDKit          3D

 26 29  0  0  0  0  0  0  0  0999 V2000
   -6.0619    2.7564  -11.2648 C   0  0  0  0  0  0  0  0  0  0  0  0
   -5.8328    2.4634  -13.0130 S   0  0  0  0  0  0  0  0  0  0  0  0
   -4.4174    2.3779  -13.3009 O   0  0  0  0  0  0  0  0  0  0  0  0
   -6.7207    1.3885  -13.3868 O   0  0  0  0  0  0  0  0  0  0  0  0
   -6.4433    3.8218  -13.8186 N   0  0  0  0  0  0  0  0  0  0  0  0
   -6.5312    5.0808  -13.0669 C   0  0  0  0  0  0  0  0  0  0  0  0
   -7.6879    5.4621  -12.4258 C   0  0  0  0  0  0  0  0  0  0  0  0
   -7.4025    6.7209  -11.8857 C   0  0  0  0  0  0  0  0  0  0  0  0
   -6.1736    7.1370  -12.1894 N   0  0  0  0  0  0  0  0  0  0  0  0
   -5.6442    6.1303  -12.9378 N   0  0  0  0  0  0  0  0  0  0  0  0
   -4.3241    6.3914  -13.5164 C   0  0  1  0  0  0  0  0  0  0  0  0
   -3.2809    5.2780  -13.3763 C   0  0  0  0  0  0  0  0  0  0  0  0
   -2.7758    4.7127  -14.7088 C   0  0  0  0  0  0  0  0  0  0  0  0
   -3.8342    4.6777  -15.8039 C   0  0  0  0  0  0  0  0  0  0  0  0
   -4.4439    5.9832  -15.9982 N   0  0  0  0  0  0  0  0  0  0  0  0
   -5.0752    6.3072  -17.1896 C   0  0  0  0  0  0  0  0  0  0  0  0
   -4.4670    6.8232  -18.1239 O   0  0  0  0  0  0  0  0  0  0  0  0
   -6.5816    6.0748  -17.1954 C   0  0  2  0  0  0  0  0  0  0  0  0
   -7.0775    5.0853  -16.2821 N   0  0  0  0  0  0  0  0  0  0  0  0
   -8.3290    4.6104  -16.5754 C   0  0  0  0  0  0  0  0  0  0  0  0
   -9.0250    3.9823  -15.8026 O   0  0  0  0  0  0  0  0  0  0  0  0
   -8.5876    5.0352  -18.0253 C   0  0  2  0  0  0  0  0  0  0  0  0
   -8.4187    4.0044  -19.1158 C   0  0  0  0  0  0  0  0  0  0  0  0
   -6.9276    4.3854  -19.1930 C   0  0  0  0  0  0  0  0  0  0  0  0
   -7.2689    5.7189  -18.4999 C   0  0  2  0  0  0  0  0  0  0  0  0
   -4.3971    6.9729  -14.9336 C   0  0  0  0  0  0  0  0  0  0  0  0
  1  2  1  0
  2  3  2  0
  2  4  2  0
  2  5  1  0
  5  6  1  0
  6  7  2  0
  7  8  1  0
  8  9  2  0
  9 10  1  0
 11 10  1  6
 11 12  1  0
 12 13  1  0
 13 14  1  0
 14 15  1  0
 15 16  1  0
 16 17  2  0
 18 16  1  6
 18 19  1  0
 19 20  1  0
 20 21  2  0
 20 22  1  0
 22 23  1  6
 23 24  1  0
 25 24  1  6
 15 26  1  0
 10  6  1  0
 26 11  1  0
 25 18  1  0
 25 22  1  0
M  END
>  <energy_score>  (709) 
-93.784151

>  <alias>  (709) 
None

>  <HIPPO Pose ID>  (709) 
70080

>  <smiles>  (709) 
CS(=O)(=O)Nc1ccnn1[C@H]1CCCN(C(=O)[C@@H]2NC(=O)[C@@H]3CC[C@@H]32)C1

>  <inchikey>  (709) 
PGAAQKVSDFXJLX-CIQGVGRVSA-N

>  <distance_score>  (709) 
1.803623

>  <ref_mols>  (709) 
Z0701a,Z0719a

>  <ref_pdb>  (709) 
Z0719a

>  <HIPPO Compound ID>  (709) 
141220

>  <name>  (709) 
P70080

>  <inspiration_score>  (709) 
None

$$$$
P70081
     RDKit          3D

 27 30  0  0  0  0  0  0  0  0999 V2000
   -7.0265    1.6443  -13.4758 O   0  0  0  0  0  0  0  0  0  0  0  0
   -6.3341    2.5608  -13.0566 C   0  0  0  0  0  0  0  0  0  0  0  0
   -6.8686    3.9034  -12.6299 C   0  0  0  0  0  0  0  0  0  0  0  0
   -6.1391    4.5358  -11.4458 C   0  0  0  0  0  0  0  0  0  0  0  0
   -4.6111    4.4205  -11.5317 C   0  0  2  0  0  0  0  0  0  0  0  0
   -3.9096    5.3630  -12.3947 N   0  0  0  0  0  0  0  0  0  0  0  0
   -4.4122    6.2149  -13.3379 C   0  0  0  0  0  0  0  0  0  0  0  0
   -3.3815    6.3921  -14.2289 C   0  0  0  0  0  0  0  0  0  0  0  0
   -3.5202    6.7996  -15.5189 N   0  0  0  0  0  0  0  0  0  0  0  0
   -4.6498    7.6306  -16.2024 C   0  0  0  0  0  0  0  0  0  0  0  0
   -5.5899    8.1544  -15.7422 O   0  0  0  0  0  0  0  0  0  0  0  0
   -4.3774    7.5690  -17.7202 C   0  0  0  0  0  0  0  0  0  0  0  0
   -5.2044    6.4448  -18.1342 N   0  0  0  0  0  0  0  0  0  0  0  0
   -4.9431    5.1695  -17.7299 C   0  0  0  0  0  0  0  0  0  0  0  0
   -3.8653    4.7537  -17.3329 O   0  0  0  0  0  0  0  0  0  0  0  0
   -6.2472    4.4433  -17.7072 C   0  0  1  0  0  0  0  0  0  0  0  0
   -6.8381    4.5186  -16.2976 C   0  0  0  0  0  0  0  0  0  0  0  0
   -8.3178    4.3428  -16.2514 C   0  0  0  0  0  0  0  0  0  0  0  0
   -9.0894    4.5206  -17.3261 C   0  0  0  0  0  0  0  0  0  0  0  0
   -8.5563    4.9417  -18.6588 C   0  0  0  0  0  0  0  0  0  0  0  0
   -7.0487    5.1646  -18.7708 C   0  0  1  0  0  0  0  0  0  0  0  0
   -6.4578    6.5599  -18.6753 C   0  0  0  0  0  0  0  0  0  0  0  0
   -6.9157    7.6223  -19.0604 O   0  0  0  0  0  0  0  0  0  0  0  0
   -2.2500    5.8510  -13.5983 C   0  0  0  0  0  0  0  0  0  0  0  0
   -2.5533    5.3147  -12.4140 N   0  0  0  0  0  0  0  0  0  0  0  0
   -4.2553    2.9767  -11.9126 C   0  0  0  0  0  0  0  0  0  0  0  0
   -4.9771    2.4325  -13.0361 N   0  0  0  0  0  0  0  0  0  0  0  0
  1  2  2  0
  2  3  1  0
  3  4  1  0
  4  5  1  0
  5  6  1  6
  6  7  1  0
  7  8  2  0
  8  9  1  0
  9 10  1  0
 10 11  2  0
 10 12  1  0
 12 13  1  0
 13 14  1  0
 14 15  2  0
 14 16  1  0
 16 17  1  1
 17 18  1  0
 18 19  2  0
 19 20  1  0
 21 20  1  1
 21 22  1  0
 22 23  2  0
  8 24  1  0
 24 25  2  0
  5 26  1  0
 26 27  1  0
 27  2  1  0
 25  6  1  0
 22 13  1  0
 21 16  1  0
M  END
>  <energy_score>  (710) 
-19.250852

>  <alias>  (710) 
None

>  <HIPPO Pose ID>  (710) 
70081

>  <smiles>  (710) 
O=C1CC[C@H](n2cc(NC(=O)CN3C(=O)[C@H]4CC=CC[C@H]4C3=O)cn2)CN1

>  <inchikey>  (710) 
KQJFMCDENWYCGW-MELADBBJSA-N

>  <distance_score>  (710) 
1.73052

>  <ref_mols>  (710) 
Z0701a,Z0719a

>  <ref_pdb>  (710) 
Z0719a

>  <HIPPO Compound ID>  (710) 
141235

>  <name>  (710) 
P70081

>  <inspiration_score>  (710) 
None

$$$$
P70082
     RDKit          3D

 27 30  0  0  0  0  0  0  0  0999 V2000
   -6.9824    1.6407  -13.4516 O   0  0  0  0  0  0  0  0  0  0  0  0
   -6.2419    2.5155  -13.0218 C   0  0  0  0  0  0  0  0  0  0  0  0
   -6.6989    3.8897  -12.6005 C   0  0  0  0  0  0  0  0  0  0  0  0
   -5.9276    4.4950  -11.4294 C   0  0  0  0  0  0  0  0  0  0  0  0
   -4.4083    4.3135  -11.5443 C   0  0  2  0  0  0  0  0  0  0  0  0
   -3.6894    5.1964  -12.4545 N   0  0  0  0  0  0  0  0  0  0  0  0
   -4.1788    6.0972  -13.3587 C   0  0  0  0  0  0  0  0  0  0  0  0
   -3.1826    6.2296  -14.2948 C   0  0  0  0  0  0  0  0  0  0  0  0
   -3.3425    6.6897  -15.5648 N   0  0  0  0  0  0  0  0  0  0  0  0
   -4.4566    7.5918  -16.1828 C   0  0  0  0  0  0  0  0  0  0  0  0
   -5.3598    8.1368  -15.6747 O   0  0  0  0  0  0  0  0  0  0  0  0
   -4.2293    7.5729  -17.7100 C   0  0  0  0  0  0  0  0  0  0  0  0
   -5.0787    6.4694  -18.1329 N   0  0  0  0  0  0  0  0  0  0  0  0
   -4.8008    5.1775  -17.7971 C   0  0  0  0  0  0  0  0  0  0  0  0
   -3.7040    4.7448  -17.4761 O   0  0  0  0  0  0  0  0  0  0  0  0
   -6.1044    4.4497  -17.7076 C   0  0  1  0  0  0  0  0  0  0  0  0
   -6.5517    4.4184  -16.2418 C   0  0  0  0  0  0  0  0  0  0  0  0
   -8.0298    4.1215  -16.0711 C   0  0  0  0  0  0  0  0  0  0  0  0
   -8.8227    5.1171  -16.8523 C   0  0  0  0  0  0  0  0  0  0  0  0
   -8.4772    5.0735  -18.3372 C   0  0  0  0  0  0  0  0  0  0  0  0
   -6.9971    5.2452  -18.6419 C   0  0  1  0  0  0  0  0  0  0  0  0
   -6.3716    6.6225  -18.5542 C   0  0  0  0  0  0  0  0  0  0  0  0
   -6.8587    7.7036  -18.8387 O   0  0  0  0  0  0  0  0  0  0  0  0
   -2.0621    5.5960  -13.7338 C   0  0  0  0  0  0  0  0  0  0  0  0
   -2.3439    5.0484  -12.5499 N   0  0  0  0  0  0  0  0  0  0  0  0
   -4.1332    2.8430  -11.8881 C   0  0  0  0  0  0  0  0  0  0  0  0
   -4.8962    2.3036  -12.9874 N   0  0  0  0  0  0  0  0  0  0  0  0
  1  2  2  0
  2  3  1  0
  3  4  1  0
  4  5  1  0
  5  6  1  6
  6  7  1  0
  7  8  2  0
  8  9  1  0
  9 10  1  0
 10 11  2  0
 10 12  1  0
 12 13  1  0
 13 14  1  0
 14 15  2  0
 14 16  1  0
 16 17  1  1
 17 18  1  0
 18 19  1  0
 19 20  1  0
 21 20  1  1
 21 22  1  0
 22 23  2  0
  8 24  1  0
 24 25  2  0
  5 26  1  0
 26 27  1  0
 27  2  1  0
 25  6  1  0
 22 13  1  0
 21 16  1  0
M  END
>  <energy_score>  (711) 
-39.425466

>  <alias>  (711) 
None

>  <HIPPO Pose ID>  (711) 
70082

>  <smiles>  (711) 
O=C1CC[C@H](n2cc(NC(=O)CN3C(=O)[C@H]4CCCC[C@H]4C3=O)cn2)CN1

>  <inchikey>  (711) 
MJVBFXXMBVLHEJ-MELADBBJSA-N

>  <distance_score>  (711) 
1.934234

>  <ref_mols>  (711) 
Z0701a,Z0719a

>  <ref_pdb>  (711) 
Z0719a

>  <HIPPO Compound ID>  (711) 
141254

>  <name>  (711) 
P70082

>  <inspiration_score>  (711) 
None

$$$$
P70083
     RDKit          3D

 28 30  0  0  0  0  0  0  0  0999 V2000
  -10.9890    2.5370   -5.2568 C   0  0  0  0  0  0  0  0  0  0  0  0
   -9.7893    3.2455   -5.8663 C   0  0  0  0  0  0  0  0  0  0  0  0
   -9.3527    2.5804   -7.1723 C   0  0  0  0  0  0  0  0  0  0  0  0
   -8.2360    3.3771   -7.8547 C   0  0  0  0  0  0  0  0  0  0  0  0
   -7.7955    2.7981   -9.2007 C   0  0  2  0  0  0  0  0  0  0  0  0
   -8.9021    2.8155  -10.2565 C   0  0  0  0  0  0  0  0  0  0  0  0
   -7.1658    1.5060   -9.1251 N   0  0  0  0  0  0  0  0  0  0  0  0
   -6.0238    1.4425   -9.8985 C   0  0  0  0  0  0  0  0  0  0  0  0
   -5.4102    0.4146  -10.1350 O   0  0  0  0  0  0  0  0  0  0  0  0
   -5.7217    2.7017  -10.3151 N   0  0  0  0  0  0  0  0  0  0  0  0
   -4.6787    3.0352  -11.2658 C   0  0  0  0  0  0  0  0  0  0  0  0
   -5.2270    3.0053  -12.7167 C   0  0  0  0  0  0  0  0  0  0  0  0
   -4.7670    2.3215  -13.5491 O   0  0  0  0  0  0  0  0  0  0  0  0
   -6.4429    3.9861  -12.7698 N   0  0  0  0  0  0  0  0  0  0  0  0
   -7.2261    4.3679  -13.8175 C   0  0  0  0  0  0  0  0  0  0  0  0
   -8.3625    5.1910  -13.7591 C   0  0  0  0  0  0  0  0  0  0  0  0
   -8.8663    5.4556  -14.9655 N   0  0  0  0  0  0  0  0  0  0  0  0
   -8.0344    4.7854  -15.8145 N   0  0  0  0  0  0  0  0  0  0  0  0
   -7.9794    5.2487  -17.1978 C   0  0  1  0  0  0  0  0  0  0  0  0
   -7.0706    6.4733  -17.2786 C   0  0  0  0  0  0  0  0  0  0  0  0
   -5.6000    6.1528  -17.1114 C   0  0  0  0  0  0  0  0  0  0  0  0
   -5.1516    5.0317  -17.9896 C   0  0  0  0  0  0  0  0  0  0  0  0
   -3.9582    4.8274  -18.1910 O   0  0  0  0  0  0  0  0  0  0  0  0
   -6.1157    4.2338  -18.5143 N   0  0  0  0  0  0  0  0  0  0  0  0
   -7.5517    4.2964  -18.2828 C   0  0  0  0  0  0  0  0  0  0  0  0
   -7.0764    4.0740  -15.1456 C   0  0  0  0  0  0  0  0  0  0  0  0
   -6.6282    3.5813   -9.8016 C   0  0  0  0  0  0  0  0  0  0  0  0
   -6.6028    4.7930   -9.9968 O   0  0  0  0  0  0  0  0  0  0  0  0
  1  2  1  0
  2  3  1  0
  3  4  1  0
  5  4  1  0
  5  6  1  6
  5  7  1  0
  7  8  1  0
  8  9  2  0
  8 10  1  0
 10 11  1  0
 11 12  1  0
 12 13  2  0
 12 14  1  0
 14 15  1  0
 15 16  1  0
 16 17  2  0
 17 18  1  0
 19 18  1  1
 19 20  1  0
 20 21  1  0
 21 22  1  0
 22 23  2  0
 22 24  1  0
 24 25  1  0
 18 26  1  0
 10 27  1  0
 27 28  2  0
 27  5  1  0
 26 15  2  0
 25 19  1  0
M  END
>  <energy_score>  (712) 
-60.503218

>  <alias>  (712) 
None

>  <HIPPO Pose ID>  (712) 
70083

>  <smiles>  (712) 
CCCC[C@]1(C)NC(=O)N(CC(=O)Nc2cnn([C@H]3CCC(=O)NC3)c2)C1=O

>  <inchikey>  (712) 
QALOJQRCMCKQLE-UGSOOPFHSA-N

>  <distance_score>  (712) 
1.721

>  <ref_mols>  (712) 
Z0701a,Z0719a

>  <ref_pdb>  (712) 
Z0719a

>  <HIPPO Compound ID>  (712) 
141268

>  <name>  (712) 
P70083

>  <inspiration_score>  (712) 
None

$$$$
P70085
     RDKit          3D

 28 31  0  0  0  0  0  0  0  0999 V2000
   -8.7044    5.3283  -12.8554 O   0  0  0  0  0  0  0  0  0  0  0  0
   -7.7286    4.6283  -12.5913 C   0  0  0  0  0  0  0  0  0  0  0  0
   -6.6557    5.1046  -11.6406 C   0  0  0  0  0  0  0  0  0  0  0  0
   -5.7661    3.9966  -11.0872 C   0  0  0  0  0  0  0  0  0  0  0  0
   -5.3570    2.9349  -12.1104 C   0  0  2  0  0  0  0  0  0  0  0  0
   -4.2620    3.2699  -13.0074 N   0  0  0  0  0  0  0  0  0  0  0  0
   -4.0689    4.4320  -13.7000 C   0  0  0  0  0  0  0  0  0  0  0  0
   -3.4818    4.0509  -14.8844 C   0  0  0  0  0  0  0  0  0  0  0  0
   -3.5046    4.8631  -15.9749 N   0  0  0  0  0  0  0  0  0  0  0  0
   -3.0662    4.5940  -17.4461 C   0  0  0  0  0  0  0  0  0  0  0  0
   -2.5487    3.6614  -17.9229 O   0  0  0  0  0  0  0  0  0  0  0  0
   -3.5419    5.7917  -18.2924 C   0  0  0  0  0  0  0  0  0  0  0  0
   -4.9986    5.7660  -18.2103 N   0  0  0  0  0  0  0  0  0  0  0  0
   -5.6579    6.2545  -17.1254 C   0  0  0  0  0  0  0  0  0  0  0  0
   -5.1387    6.8657  -16.2029 O   0  0  0  0  0  0  0  0  0  0  0  0
   -7.0832    5.8619  -17.2227 C   0  0  2  0  0  0  0  0  0  0  0  0
   -7.7734    5.4816  -15.9367 C   0  0  0  0  0  0  0  0  0  0  0  0
   -9.1527    4.8730  -16.2127 C   0  0  0  0  0  0  0  0  0  0  0  0
   -9.3146    4.0204  -17.4834 C   0  0  0  0  0  0  0  0  0  0  0  0
   -8.3830    4.3812  -18.6437 C   0  0  0  0  0  0  0  0  0  0  0  0
   -7.0114    4.6237  -18.0742 C   0  0  1  0  0  0  0  0  0  0  0  0
   -5.7551    4.8219  -18.8639 C   0  0  0  0  0  0  0  0  0  0  0  0
   -5.3473    4.0908  -19.7415 O   0  0  0  0  0  0  0  0  0  0  0  0
   -3.1556    2.7039  -14.7014 C   0  0  0  0  0  0  0  0  0  0  0  0
   -3.4896    2.2712  -13.4826 N   0  0  0  0  0  0  0  0  0  0  0  0
   -6.5561    2.4943  -12.9283 C   0  0  0  0  0  0  0  0  0  0  0  0
   -6.6745    1.3629  -13.3887 O   0  0  0  0  0  0  0  0  0  0  0  0
   -7.5429    3.4095  -13.1778 N   0  0  0  0  0  0  0  0  0  0  0  0
  1  2  2  0
  2  3  1  0
  3  4  1  0
  4  5  1  0
  5  6  1  6
  6  7  1  0
  7  8  2  0
  8  9  1  0
  9 10  1  0
 10 11  2  0
 10 12  1  0
 12 13  1  0
 13 14  1  0
 14 15  2  0
 14 16  1  0
 16 17  1  1
 17 18  1  0
 18 19  1  0
 19 20  1  0
 21 20  1  6
 21 22  1  0
 22 23  2  0
  8 24  1  0
 24 25  2  0
  5 26  1  0
 26 27  2  0
 26 28  1  0
 28  2  1  0
 25  6  1  0
 22 13  1  0
 21 16  1  0
M  END
>  <energy_score>  (713) 
-55.859925

>  <alias>  (713) 
None

>  <HIPPO Pose ID>  (713) 
70085

>  <smiles>  (713) 
O=C1CC[C@H](n2cc(NC(=O)CN3C(=O)[C@@H]4CCCC[C@H]4C3=O)cn2)C(=O)N1

>  <inchikey>  (713) 
WGEJGSNJOCJFIP-UPJWGTAASA-N

>  <distance_score>  (713) 
1.416532

>  <ref_mols>  (713) 
Z0701a,Z0719a

>  <ref_pdb>  (713) 
Z0719a

>  <HIPPO Compound ID>  (713) 
141289

>  <name>  (713) 
P70085

>  <inspiration_score>  (713) 
None

$$$$
P70086
     RDKit          3D

 28 31  0  0  0  0  0  0  0  0999 V2000
   -7.7766    4.9071  -12.2542 O   0  0  0  0  0  0  0  0  0  0  0  0
   -6.7540    4.2280  -12.2864 C   0  0  0  0  0  0  0  0  0  0  0  0
   -5.8576    4.0662  -11.0556 C   0  0  0  0  0  0  0  0  0  0  0  0
   -4.9930    2.7899  -11.0365 C   0  0  0  0  0  0  0  0  0  0  0  0
   -4.4882    2.3779  -12.4336 C   0  0  2  0  0  0  0  0  0  0  0  0
   -3.4473    3.2354  -13.0091 N   0  0  0  0  0  0  0  0  0  0  0  0
   -3.1014    3.2884  -14.3439 C   0  0  0  0  0  0  0  0  0  0  0  0
   -2.8451    4.6197  -14.5798 C   0  0  0  0  0  0  0  0  0  0  0  0
   -3.0264    5.2672  -15.7665 N   0  0  0  0  0  0  0  0  0  0  0  0
   -3.0416    4.7197  -17.2254 C   0  0  0  0  0  0  0  0  0  0  0  0
   -2.8243    3.6474  -17.6329 O   0  0  0  0  0  0  0  0  0  0  0  0
   -3.5267    5.8628  -18.1345 C   0  0  0  0  0  0  0  0  0  0  0  0
   -4.9842    5.7866  -18.0547 N   0  0  0  0  0  0  0  0  0  0  0  0
   -5.6253    5.9988  -16.8605 C   0  0  0  0  0  0  0  0  0  0  0  0
   -5.1912    6.6449  -15.9215 O   0  0  0  0  0  0  0  0  0  0  0  0
   -6.8224    5.1089  -16.8680 C   0  0  1  0  0  0  0  0  0  0  0  0
   -7.9497    5.3881  -15.9247 C   0  0  0  0  0  0  0  0  0  0  0  0
   -9.1169    4.5542  -16.3402 C   0  0  0  0  0  0  0  0  0  0  0  0
   -9.2875    4.0680  -17.5792 C   0  0  0  0  0  0  0  0  0  0  0  0
   -8.3270    4.2860  -18.7125 C   0  0  0  0  0  0  0  0  0  0  0  0
   -7.1942    5.2145  -18.3370 C   0  0  2  0  0  0  0  0  0  0  0  0
   -5.7885    5.0012  -18.8509 C   0  0  0  0  0  0  0  0  0  0  0  0
   -5.3976    4.2124  -19.6823 O   0  0  0  0  0  0  0  0  0  0  0  0
   -2.7216    5.1989  -13.3056 C   0  0  0  0  0  0  0  0  0  0  0  0
   -3.0351    4.3349  -12.3382 N   0  0  0  0  0  0  0  0  0  0  0  0
   -5.7646    2.4224  -13.2580 C   0  0  0  0  0  0  0  0  0  0  0  0
   -6.3968    1.4118  -13.5464 O   0  0  0  0  0  0  0  0  0  0  0  0
   -6.2706    3.6844  -13.4450 N   0  0  0  0  0  0  0  0  0  0  0  0
  1  2  2  0
  2  3  1  0
  3  4  1  0
  4  5  1  0
  5  6  1  6
  6  7  1  0
  7  8  2  0
  8  9  1  0
  9 10  1  0
 10 11  2  0
 10 12  1  0
 12 13  1  0
 13 14  1  0
 14 15  2  0
 14 16  1  0
 16 17  1  1
 17 18  1  0
 18 19  2  0
 19 20  1  0
 21 20  1  6
 21 22  1  0
 22 23  2  0
  8 24  1  0
 24 25  2  0
  5 26  1  0
 26 27  2  0
 26 28  1  0
 28  2  1  0
 25  6  1  0
 22 13  1  0
 21 16  1  0
M  END
>  <energy_score>  (714) 
-10.786328

>  <alias>  (714) 
None

>  <HIPPO Pose ID>  (714) 
70086

>  <smiles>  (714) 
O=C1CC[C@H](n2cc(NC(=O)CN3C(=O)[C@H]4CC=CC[C@@H]4C3=O)cn2)C(=O)N1

>  <inchikey>  (714) 
UPJAJOJKWCEWDN-AVGNSLFASA-N

>  <distance_score>  (714) 
1.148536

>  <ref_mols>  (714) 
Z0701a,Z0719a

>  <ref_pdb>  (714) 
Z0719a

>  <HIPPO Compound ID>  (714) 
141312

>  <name>  (714) 
P70086

>  <inspiration_score>  (714) 
None

$$$$
P70090
     RDKit          3D

 29 31  0  0  0  0  0  0  0  0999 V2000
   -8.5741    4.5682   -7.0805 C   0  0  0  0  0  0  0  0  0  0  0  0
   -8.4834    4.6881   -8.5951 C   0  0  0  0  0  0  0  0  0  0  0  0
   -7.1613    4.1839   -9.1702 C   0  0  0  0  0  0  0  0  0  0  0  0
   -5.9581    5.0489   -8.7684 C   0  0  0  0  0  0  0  0  0  0  0  0
   -4.5927    4.5166   -9.2359 C   0  0  1  0  0  0  0  0  0  0  0  0
   -3.4535    5.4134   -8.7640 C   0  0  0  0  0  0  0  0  0  0  0  0
   -4.3767    3.1545   -8.8266 N   0  0  0  0  0  0  0  0  0  0  0  0
   -4.4814    2.2756   -9.8826 C   0  0  0  0  0  0  0  0  0  0  0  0
   -4.4626    1.0650   -9.7403 O   0  0  0  0  0  0  0  0  0  0  0  0
   -4.5793    2.9923  -11.0373 N   0  0  0  0  0  0  0  0  0  0  0  0
   -4.5554    2.3639  -12.3482 C   0  0  2  0  0  0  0  0  0  0  0  0
   -3.2845    2.6983  -13.1317 C   0  0  0  0  0  0  0  0  0  0  0  0
   -5.8149    2.5868  -13.2312 C   0  0  0  0  0  0  0  0  0  0  0  0
   -6.4314    1.6791  -13.6446 O   0  0  0  0  0  0  0  0  0  0  0  0
   -5.9696    4.1187  -13.4944 N   0  0  0  0  0  0  0  0  0  0  0  0
   -6.8014    4.7928  -14.3414 C   0  0  0  0  0  0  0  0  0  0  0  0
   -7.0830    6.1674  -14.3678 C   0  0  0  0  0  0  0  0  0  0  0  0
   -7.7483    6.5235  -15.4712 N   0  0  0  0  0  0  0  0  0  0  0  0
   -7.7511    5.3877  -16.2210 N   0  0  0  0  0  0  0  0  0  0  0  0
   -7.7851    5.5102  -17.6857 C   0  0  1  0  0  0  0  0  0  0  0  0
   -6.9077    6.6731  -18.1856 C   0  0  0  0  0  0  0  0  0  0  0  0
   -5.4584    6.5326  -17.7562 C   0  0  0  0  0  0  0  0  0  0  0  0
   -4.9277    5.1595  -17.9930 C   0  0  0  0  0  0  0  0  0  0  0  0
   -3.7471    4.8817  -17.8051 O   0  0  0  0  0  0  0  0  0  0  0  0
   -5.8144    4.2299  -18.4197 N   0  0  0  0  0  0  0  0  0  0  0  0
   -7.2644    4.3249  -18.4567 C   0  0  0  0  0  0  0  0  0  0  0  0
   -7.4174    4.2986  -15.4620 C   0  0  0  0  0  0  0  0  0  0  0  0
   -4.5299    4.3253  -10.7523 C   0  0  0  0  0  0  0  0  0  0  0  0
   -4.4986    5.2317  -11.5768 O   0  0  0  0  0  0  0  0  0  0  0  0
  1  2  1  0
  2  3  1  0
  3  4  1  0
  5  4  1  0
  5  6  1  1
  5  7  1  0
  7  8  1  0
  8  9  2  0
  8 10  1  0
 10 11  1  0
 11 12  1  6
 11 13  1  0
 13 14  2  0
 13 15  1  0
 15 16  1  0
 16 17  1  0
 17 18  2  0
 18 19  1  0
 20 19  1  1
 20 21  1  0
 21 22  1  0
 22 23  1  0
 23 24  2  0
 23 25  1  0
 25 26  1  0
 19 27  1  0
 10 28  1  0
 28 29  2  0
 28  5  1  0
 27 16  2  0
 26 20  1  0
M  END
>  <energy_score>  (715) 
-76.091329

>  <alias>  (715) 
None

>  <HIPPO Pose ID>  (715) 
70090

>  <smiles>  (715) 
CCCC[C@@]1(C)NC(=O)N([C@H](C)C(=O)Nc2cnn([C@H]3CCC(=O)NC3)c2)C1=O

>  <inchikey>  (715) 
UCXARZVECHMAJB-SPKLELGKSA-N

>  <distance_score>  (715) 
1.571332

>  <ref_mols>  (715) 
Z0701a,Z0719a

>  <ref_pdb>  (715) 
Z0719a

>  <HIPPO Compound ID>  (715) 
141337

>  <name>  (715) 
P70090

>  <inspiration_score>  (715) 
None

$$$$
P70092
     RDKit          3D

 29 32  0  0  0  0  0  0  0  0999 V2000
   -8.9694    4.9398  -13.1129 O   0  0  0  0  0  0  0  0  0  0  0  0
   -8.1064    4.2128  -12.6222 C   0  0  0  0  0  0  0  0  0  0  0  0
   -7.7633    4.2695  -11.1423 C   0  0  0  0  0  0  0  0  0  0  0  0
   -6.5968    3.3715  -10.7063 C   0  0  0  0  0  0  0  0  0  0  0  0
   -5.5528    3.1649  -11.8148 C   0  0  2  0  0  0  0  0  0  0  0  0
   -4.8475    4.3821  -12.2207 N   0  0  0  0  0  0  0  0  0  0  0  0
   -4.0312    4.5293  -13.3139 C   0  0  0  0  0  0  0  0  0  0  0  0
   -4.1464    5.8558  -13.6616 C   0  0  0  0  0  0  0  0  0  0  0  0
   -3.8658    6.3613  -14.8925 N   0  0  0  0  0  0  0  0  0  0  0  0
   -2.8482    5.8846  -15.9750 C   0  0  0  0  0  0  0  0  0  0  0  0
   -2.0454    5.0336  -15.9384 O   0  0  0  0  0  0  0  0  0  0  0  0
   -3.1551    6.7060  -17.2436 C   0  0  0  0  0  0  0  0  0  0  0  0
   -4.5743    6.4863  -17.5051 N   0  0  0  0  0  0  0  0  0  0  0  0
   -5.5294    7.4180  -17.7211 C   0  0  0  0  0  0  0  0  0  0  0  0
   -5.3766    8.6236  -17.8229 O   0  0  0  0  0  0  0  0  0  0  0  0
   -6.7433    6.7817  -17.8169 N   0  0  0  0  0  0  0  0  0  0  0  0
   -6.6392    5.3430  -17.6800 C   0  0  0  0  0  0  0  0  0  0  0  0
   -7.2212    4.6102  -18.8663 C   0  0  0  0  0  0  0  0  0  0  0  0
   -8.7456    4.6137  -18.8412 C   0  0  0  0  0  0  0  0  0  0  0  0
   -9.3208    4.0577  -17.5593 C   0  0  0  0  0  0  0  0  0  0  0  0
   -8.7374    4.7200  -16.3262 C   0  0  0  0  0  0  0  0  0  0  0  0
   -7.2148    4.8424  -16.3467 C   0  0  0  0  0  0  0  0  0  0  0  0
   -5.1123    5.2369  -17.6370 C   0  0  0  0  0  0  0  0  0  0  0  0
   -4.4538    4.2111  -17.6125 O   0  0  0  0  0  0  0  0  0  0  0  0
   -4.8178    6.4621  -12.5908 C   0  0  0  0  0  0  0  0  0  0  0  0
   -5.1562    5.5730  -11.6556 N   0  0  0  0  0  0  0  0  0  0  0  0
   -6.3355    2.5777  -12.9749 C   0  0  0  0  0  0  0  0  0  0  0  0
   -6.0903    1.4912  -13.4906 O   0  0  0  0  0  0  0  0  0  0  0  0
   -7.4209    3.3035  -13.3831 N   0  0  0  0  0  0  0  0  0  0  0  0
  1  2  2  0
  2  3  1  0
  3  4  1  0
  4  5  1  0
  5  6  1  6
  6  7  1  0
  7  8  2  0
  8  9  1  0
  9 10  1  0
 10 11  2  0
 10 12  1  0
 12 13  1  0
 13 14  1  0
 14 15  2  0
 14 16  1  0
 16 17  1  0
 17 18  1  0
 18 19  1  0
 19 20  1  0
 20 21  1  0
 21 22  1  0
 17 23  1  0
 23 24  2  0
  8 25  1  0
 25 26  2  0
  5 27  1  0
 27 28  2  0
 27 29  1  0
 29  2  1  0
 26  6  1  0
 23 13  1  0
 22 17  1  0
M  END
>  <energy_score>  (716) 
-42.337405

>  <alias>  (716) 
None

>  <HIPPO Pose ID>  (716) 
70092

>  <smiles>  (716) 
O=C1CC[C@H](n2cc(NC(=O)CN3C(=O)NC4(CCCCC4)C3=O)cn2)C(=O)N1

>  <inchikey>  (716) 
CXPUWCUCJYWSEW-LBPRGKRZSA-N

>  <distance_score>  (716) 
1.692026

>  <ref_mols>  (716) 
Z0701a,Z0719a

>  <ref_pdb>  (716) 
Z0719a

>  <HIPPO Compound ID>  (716) 
141352

>  <name>  (716) 
P70092

>  <inspiration_score>  (716) 
None

$$$$
P70094
     RDKit          3D

 29 32  0  0  0  0  0  0  0  0999 V2000
   -6.2831    4.0336  -19.7101 C   0  0  0  0  0  0  0  0  0  0  0  0
   -5.5626    4.6233  -18.6258 N   0  0  0  0  0  0  0  0  0  0  0  0
   -4.3249    5.1962  -18.9298 C   0  0  0  0  0  0  0  0  0  0  0  0
   -3.5554    4.8721  -19.8242 O   0  0  0  0  0  0  0  0  0  0  0  0
   -4.1059    6.2109  -18.0588 N   0  0  0  0  0  0  0  0  0  0  0  0
   -2.8684    6.9742  -17.9363 C   0  0  0  0  0  0  0  0  0  0  0  0
   -1.9053    6.2251  -16.9968 C   0  0  0  0  0  0  0  0  0  0  0  0
   -0.8788    5.7941  -17.3564 O   0  0  0  0  0  0  0  0  0  0  0  0
   -2.6244    6.1034  -15.6196 N   0  0  0  0  0  0  0  0  0  0  0  0
   -2.2913    5.3933  -14.5112 C   0  0  0  0  0  0  0  0  0  0  0  0
   -1.1219    4.6947  -14.1789 C   0  0  0  0  0  0  0  0  0  0  0  0
   -1.3262    3.8561  -13.1552 N   0  0  0  0  0  0  0  0  0  0  0  0
   -2.6577    3.9649  -12.9223 N   0  0  0  0  0  0  0  0  0  0  0  0
   -3.3867    2.7680  -12.5046 C   0  0  1  0  0  0  0  0  0  0  0  0
   -4.1857    2.8998  -11.2093 C   0  0  0  0  0  0  0  0  0  0  0  0
   -5.5678    3.5072  -11.4023 C   0  0  0  0  0  0  0  0  0  0  0  0
   -6.3140    2.9700  -12.5964 C   0  0  0  0  0  0  0  0  0  0  0  0
   -7.5179    2.7669  -12.6336 O   0  0  0  0  0  0  0  0  0  0  0  0
   -5.5843    2.8221  -13.7324 N   0  0  0  0  0  0  0  0  0  0  0  0
   -4.2639    2.2480  -13.6524 C   0  0  0  0  0  0  0  0  0  0  0  0
   -3.2069    5.0563  -13.5449 C   0  0  0  0  0  0  0  0  0  0  0  0
   -5.1652    6.3267  -17.2266 C   0  0  0  0  0  0  0  0  0  0  0  0
   -5.1664    7.0819  -16.2614 O   0  0  0  0  0  0  0  0  0  0  0  0
   -6.2857    5.3638  -17.6064 C   0  0  0  0  0  0  0  0  0  0  0  0
   -7.4671    6.1240  -18.1795 C   0  0  0  0  0  0  0  0  0  0  0  0
   -8.7654    5.2901  -18.2440 C   0  0  0  0  0  0  0  0  0  0  0  0
   -9.1586    4.8146  -16.8579 C   0  0  0  0  0  0  0  0  0  0  0  0
   -8.0414    3.9631  -16.3315 C   0  0  0  0  0  0  0  0  0  0  0  0
   -6.6684    4.6161  -16.3221 C   0  0  0  0  0  0  0  0  0  0  0  0
  1  2  1  0
  2  3  1  0
  3  4  2  0
  3  5  1  0
  5  6  1  0
  6  7  1  0
  7  8  2  0
  7  9  1  0
  9 10  1  0
 10 11  1  0
 11 12  2  0
 12 13  1  0
 14 13  1  6
 14 15  1  0
 15 16  1  0
 16 17  1  0
 17 18  2  0
 17 19  1  0
 19 20  1  0
 13 21  1  0
  5 22  1  0
 22 23  2  0
 22 24  1  0
 24 25  1  0
 25 26  1  0
 26 27  1  0
 27 28  1  0
 28 29  1  0
 24  2  1  0
 21 10  2  0
 29 24  1  0
 20 14  1  0
M  END
>  <energy_score>  (717) 
-57.846239

>  <alias>  (717) 
None

>  <HIPPO Pose ID>  (717) 
70094

>  <smiles>  (717) 
CN1C(=O)N(CC(=O)Nc2cnn([C@H]3CCC(=O)NC3)c2)C(=O)C12CCCCC2

>  <inchikey>  (717) 
TXEZCRRNPRBLRD-AWEZNQCLSA-N

>  <distance_score>  (717) 
1.806383

>  <ref_mols>  (717) 
Z0701a,Z0719a

>  <ref_pdb>  (717) 
Z0719a

>  <HIPPO Compound ID>  (717) 
141373

>  <name>  (717) 
P70094

>  <inspiration_score>  (717) 
None

$$$$
P70095
     RDKit          3D

 29 32  0  0  0  0  0  0  0  0999 V2000
   -9.0020    4.9233  -13.3500 O   0  0  0  0  0  0  0  0  0  0  0  0
   -8.1778    4.1974  -12.7929 C   0  0  0  0  0  0  0  0  0  0  0  0
   -7.9293    4.2743  -11.2940 C   0  0  0  0  0  0  0  0  0  0  0  0
   -6.7757    3.4036  -10.7746 C   0  0  0  0  0  0  0  0  0  0  0  0
   -5.6644    3.2017  -11.8168 C   0  0  2  0  0  0  0  0  0  0  0  0
   -4.9658    4.4307  -12.2013 N   0  0  0  0  0  0  0  0  0  0  0  0
   -4.1333    4.5975  -13.2802 C   0  0  0  0  0  0  0  0  0  0  0  0
   -4.2710    5.9218  -13.6278 C   0  0  0  0  0  0  0  0  0  0  0  0
   -3.9847    6.4346  -14.8547 N   0  0  0  0  0  0  0  0  0  0  0  0
   -2.9302    5.9918  -15.9166 C   0  0  0  0  0  0  0  0  0  0  0  0
   -2.0988    5.1695  -15.8625 O   0  0  0  0  0  0  0  0  0  0  0  0
   -3.2422    6.8001  -17.1924 C   0  0  0  0  0  0  0  0  0  0  0  0
   -4.6496    6.5392  -17.4822 N   0  0  0  0  0  0  0  0  0  0  0  0
   -5.6117    7.4391  -17.7853 C   0  0  0  0  0  0  0  0  0  0  0  0
   -5.4816    8.6422  -17.9359 O   0  0  0  0  0  0  0  0  0  0  0  0
   -6.8068    6.7715  -17.9146 N   0  0  0  0  0  0  0  0  0  0  0  0
   -6.6742    5.3379  -17.7335 C   0  0  0  0  0  0  0  0  0  0  0  0
   -7.1565    4.5653  -18.9358 C   0  0  0  0  0  0  0  0  0  0  0  0
   -8.6628    4.3831  -18.8863 C   0  0  0  0  0  0  0  0  0  0  0  0
   -9.0368    3.7096  -17.6890 O   0  0  0  0  0  0  0  0  0  0  0  0
   -8.7857    4.5183  -16.5500 C   0  0  0  0  0  0  0  0  0  0  0  0
   -7.3046    4.8566  -16.4205 C   0  0  0  0  0  0  0  0  0  0  0  0
   -5.1481    5.2726  -17.6113 C   0  0  0  0  0  0  0  0  0  0  0  0
   -4.4618    4.2667  -17.5417 O   0  0  0  0  0  0  0  0  0  0  0  0
   -4.9690    6.5122  -12.5649 C   0  0  0  0  0  0  0  0  0  0  0  0
   -5.3022    5.6152  -11.6352 N   0  0  0  0  0  0  0  0  0  0  0  0
   -6.3705    2.5788  -13.0061 C   0  0  0  0  0  0  0  0  0  0  0  0
   -6.0780    1.4873  -13.4829 O   0  0  0  0  0  0  0  0  0  0  0  0
   -7.4423    3.2771  -13.4923 N   0  0  0  0  0  0  0  0  0  0  0  0
  1  2  2  0
  2  3  1  0
  3  4  1  0
  4  5  1  0
  5  6  1  6
  6  7  1  0
  7  8  2  0
  8  9  1  0
  9 10  1  0
 10 11  2  0
 10 12  1  0
 12 13  1  0
 13 14  1  0
 14 15  2  0
 14 16  1  0
 16 17  1  0
 17 18  1  0
 18 19  1  0
 19 20  1  0
 20 21  1  0
 21 22  1  0
 17 23  1  0
 23 24  2  0
  8 25  1  0
 25 26  2  0
  5 27  1  0
 27 28  2  0
 27 29  1  0
 29  2  1  0
 26  6  1  0
 23 13  1  0
 22 17  1  0
M  END
>  <energy_score>  (718) 
-47.672317

>  <alias>  (718) 
None

>  <HIPPO Pose ID>  (718) 
70095

>  <smiles>  (718) 
O=C1CC[C@H](n2cc(NC(=O)CN3C(=O)NC4(CCOCC4)C3=O)cn2)C(=O)N1

>  <inchikey>  (718) 
UMXAHEJQHDCNBE-NSHDSACASA-N

>  <distance_score>  (718) 
1.684095

>  <ref_mols>  (718) 
Z0701a,Z0719a

>  <ref_pdb>  (718) 
Z0719a

>  <HIPPO Compound ID>  (718) 
141386

>  <name>  (718) 
P70095

>  <inspiration_score>  (718) 
None

$$$$
P70097
     RDKit          3D

 29 32  0  0  0  0  0  0  0  0999 V2000
   -3.1859    6.3113  -19.8698 C   0  0  0  0  0  0  0  0  0  0  0  0
   -3.8952    6.7694  -18.6023 C   0  0  2  0  0  0  0  0  0  0  0  0
   -3.0010    6.5663  -17.3389 C   0  0  0  0  0  0  0  0  0  0  0  0
   -1.8797    6.2301  -17.3869 O   0  0  0  0  0  0  0  0  0  0  0  0
   -3.9375    6.7975  -16.1072 N   0  0  0  0  0  0  0  0  0  0  0  0
   -3.7219    6.5818  -14.7832 C   0  0  0  0  0  0  0  0  0  0  0  0
   -2.7060    5.8049  -14.2025 C   0  0  0  0  0  0  0  0  0  0  0  0
   -3.0525    5.3703  -12.9841 N   0  0  0  0  0  0  0  0  0  0  0  0
   -4.3056    5.8442  -12.8181 N   0  0  0  0  0  0  0  0  0  0  0  0
   -5.2637    5.1320  -11.9725 C   0  0  2  0  0  0  0  0  0  0  0  0
   -4.7420    3.8850  -11.2183 C   0  0  0  0  0  0  0  0  0  0  0  0
   -4.6208    2.6217  -12.0924 C   0  0  0  0  0  0  0  0  0  0  0  0
   -5.8361    2.4805  -12.9875 C   0  0  0  0  0  0  0  0  0  0  0  0
   -6.5090    1.4650  -13.0909 O   0  0  0  0  0  0  0  0  0  0  0  0
   -6.0918    3.6258  -13.6857 N   0  0  0  0  0  0  0  0  0  0  0  0
   -6.4221    4.6711  -12.8573 C   0  0  0  0  0  0  0  0  0  0  0  0
   -7.5220    5.2155  -12.8390 O   0  0  0  0  0  0  0  0  0  0  0  0
   -4.6615    6.7492  -13.7988 C   0  0  0  0  0  0  0  0  0  0  0  0
   -5.1668    6.0343  -18.4146 N   0  0  0  0  0  0  0  0  0  0  0  0
   -5.2838    4.8816  -17.6720 C   0  0  0  0  0  0  0  0  0  0  0  0
   -4.3972    4.2956  -17.0704 O   0  0  0  0  0  0  0  0  0  0  0  0
   -6.7077    4.4741  -17.6591 C   0  0  1  0  0  0  0  0  0  0  0  0
   -7.3535    4.2497  -16.3048 C   0  0  0  0  0  0  0  0  0  0  0  0
   -8.8472    4.1283  -16.4449 C   0  0  0  0  0  0  0  0  0  0  0  0
   -9.4871    4.4265  -17.5871 C   0  0  0  0  0  0  0  0  0  0  0  0
   -8.7584    5.0524  -18.7562 C   0  0  0  0  0  0  0  0  0  0  0  0
   -7.4426    5.6384  -18.2645 C   0  0  2  0  0  0  0  0  0  0  0  0
   -6.3680    6.4185  -18.9783 C   0  0  0  0  0  0  0  0  0  0  0  0
   -6.5141    7.4137  -19.6735 O   0  0  0  0  0  0  0  0  0  0  0  0
  2  1  1  6
  2  3  1  0
  3  4  2  0
  3  5  1  0
  5  6  1  0
  6  7  1  0
  7  8  2  0
  8  9  1  0
 10  9  1  6
 10 11  1  0
 11 12  1  0
 12 13  1  0
 13 14  2  0
 13 15  1  0
 15 16  1  0
 16 17  2  0
  9 18  1  0
  2 19  1  0
 19 20  1  0
 20 21  2  0
 20 22  1  0
 22 23  1  1
 23 24  1  0
 24 25  2  0
 25 26  1  0
 27 26  1  6
 27 28  1  0
 28 29  2  0
 18  6  2  0
 28 19  1  0
 16 10  1  0
 27 22  1  0
M  END
>  <energy_score>  (719) 
-13.002428

>  <alias>  (719) 
None

>  <HIPPO Pose ID>  (719) 
70097

>  <smiles>  (719) 
C[C@H](C(=O)Nc1cnn([C@@H]2CCC(=O)NC2=O)c1)N1C(=O)[C@H]2CC=CC[C@@H]2C1=O

>  <inchikey>  (719) 
KFCSCUQWIRLSHI-VZZFWQQMSA-N

>  <distance_score>  (719) 
1.112007

>  <ref_mols>  (719) 
Z0701a,Z0719a

>  <ref_pdb>  (719) 
Z0719a

>  <HIPPO Compound ID>  (719) 
141387

>  <name>  (719) 
P70097

>  <inspiration_score>  (719) 
None

$$$$
P70098
     RDKit          3D

 29 32  0  0  0  0  0  0  0  0999 V2000
  -10.6861    4.4856  -17.7930 C   0  0  0  0  0  0  0  0  0  0  0  0
   -9.2277    4.0646  -17.6542 C   0  0  1  0  0  0  0  0  0  0  0  0
   -8.5371    4.4914  -18.9345 C   0  0  0  0  0  0  0  0  0  0  0  0
   -7.0241    4.5060  -18.8992 C   0  0  0  0  0  0  0  0  0  0  0  0
   -6.5431    5.3199  -17.7287 C   0  0  2  0  0  0  0  0  0  0  0  0
   -7.0876    4.7851  -16.4052 C   0  0  0  0  0  0  0  0  0  0  0  0
   -8.6080    4.6440  -16.3755 C   0  0  0  0  0  0  0  0  0  0  0  0
   -6.8737    6.7170  -17.9416 N   0  0  0  0  0  0  0  0  0  0  0  0
   -5.7700    7.4626  -18.2426 C   0  0  0  0  0  0  0  0  0  0  0  0
   -5.8338    8.6131  -18.6445 O   0  0  0  0  0  0  0  0  0  0  0  0
   -4.6666    6.7292  -17.9702 N   0  0  0  0  0  0  0  0  0  0  0  0
   -3.3067    7.2425  -17.9484 C   0  0  0  0  0  0  0  0  0  0  0  0
   -2.6697    7.3205  -16.5296 C   0  0  0  0  0  0  0  0  0  0  0  0
   -1.5304    7.5399  -16.3779 O   0  0  0  0  0  0  0  0  0  0  0  0
   -3.7736    6.9628  -15.4941 N   0  0  0  0  0  0  0  0  0  0  0  0
   -3.6870    6.7241  -14.1608 C   0  0  0  0  0  0  0  0  0  0  0  0
   -2.5989    6.7355  -13.2768 C   0  0  0  0  0  0  0  0  0  0  0  0
   -2.9076    6.1473  -12.1130 N   0  0  0  0  0  0  0  0  0  0  0  0
   -4.1641    5.6811  -12.3191 N   0  0  0  0  0  0  0  0  0  0  0  0
   -4.5961    4.4939  -11.5888 C   0  0  1  0  0  0  0  0  0  0  0  0
   -6.0917    4.3808  -11.2680 C   0  0  0  0  0  0  0  0  0  0  0  0
   -6.9421    3.7462  -12.3684 C   0  0  0  0  0  0  0  0  0  0  0  0
   -6.2988    2.5895  -13.0835 C   0  0  0  0  0  0  0  0  0  0  0  0
   -6.9121    1.6104  -13.4853 O   0  0  0  0  0  0  0  0  0  0  0  0
   -4.9687    2.7351  -13.3532 N   0  0  0  0  0  0  0  0  0  0  0  0
   -4.1070    3.2345  -12.3099 C   0  0  0  0  0  0  0  0  0  0  0  0
   -4.7345    6.2033  -13.4428 C   0  0  0  0  0  0  0  0  0  0  0  0
   -5.0112    5.4248  -17.7181 C   0  0  0  0  0  0  0  0  0  0  0  0
   -4.2157    4.5368  -17.4568 O   0  0  0  0  0  0  0  0  0  0  0  0
  2  1  1  6
  2  3  1  0
  3  4  1  0
  5  4  1  6
  5  6  1  0
  6  7  1  0
  5  8  1  0
  8  9  1  0
  9 10  2  0
  9 11  1  0
 11 12  1  0
 12 13  1  0
 13 14  2  0
 13 15  1  0
 15 16  1  0
 16 17  1  0
 17 18  2  0
 18 19  1  0
 20 19  1  6
 20 21  1  0
 21 22  1  0
 22 23  1  0
 23 24  2  0
 23 25  1  0
 25 26  1  0
 19 27  1  0
 11 28  1  0
 28 29  2  0
  7  2  1  0
 27 16  2  0
 28  5  1  0
 26 20  1  0
M  END
>  <energy_score>  (720) 
-49.223167

>  <alias>  (720) 
None

>  <HIPPO Pose ID>  (720) 
70098

>  <smiles>  (720) 
C[C@H]1CC[C@]2(CC1)NC(=O)N(CC(=O)Nc1cnn([C@H]3CCC(=O)NC3)c1)C2=O

>  <inchikey>  (720) 
XEFGNQFSZUEWFZ-PTAUBWNISA-N

>  <distance_score>  (720) 
1.804113

>  <ref_mols>  (720) 
Z0701a,Z0719a

>  <ref_pdb>  (720) 
Z0719a

>  <HIPPO Compound ID>  (720) 
141395

>  <name>  (720) 
P70098

>  <inspiration_score>  (720) 
None

$$$$
P70099
     RDKit          3D

 30 32  0  0  0  0  0  0  0  0999 V2000
   -1.2909    7.1113  -16.4446 C   0  0  0  0  0  0  0  0  0  0  0  0
   -1.8045    6.1229  -15.4084 C   0  0  0  0  0  0  0  0  0  0  0  0
   -1.9636    6.7801  -14.0386 C   0  0  0  0  0  0  0  0  0  0  0  0
   -2.7254    5.9351  -13.0079 C   0  0  0  0  0  0  0  0  0  0  0  0
   -2.0917    4.5947  -12.5817 C   0  0  2  0  0  0  0  0  0  0  0  0
   -0.6228    4.6822  -12.1942 C   0  0  0  0  0  0  0  0  0  0  0  0
   -2.3276    3.5515  -13.5527 N   0  0  0  0  0  0  0  0  0  0  0  0
   -3.3209    2.6989  -13.1510 C   0  0  0  0  0  0  0  0  0  0  0  0
   -3.8777    1.9137  -13.9015 O   0  0  0  0  0  0  0  0  0  0  0  0
   -3.6195    2.9339  -11.8480 N   0  0  0  0  0  0  0  0  0  0  0  0
   -4.7126    2.2569  -11.1431 C   0  0  1  0  0  0  0  0  0  0  0  0
   -4.4010    1.9527   -9.6905 C   0  0  0  0  0  0  0  0  0  0  0  0
   -5.9973    3.1189  -11.3140 C   0  0  0  0  0  0  0  0  0  0  0  0
   -6.5159    3.7098  -10.4493 O   0  0  0  0  0  0  0  0  0  0  0  0
   -6.3303    3.0567  -12.8353 N   0  0  0  0  0  0  0  0  0  0  0  0
   -7.2501    3.7400  -13.5652 C   0  0  0  0  0  0  0  0  0  0  0  0
   -8.2736    4.6388  -13.2275 C   0  0  0  0  0  0  0  0  0  0  0  0
   -8.8483    5.1822  -14.3156 N   0  0  0  0  0  0  0  0  0  0  0  0
   -8.2124    4.5684  -15.3542 N   0  0  0  0  0  0  0  0  0  0  0  0
   -8.2657    5.1696  -16.6853 C   0  0  1  0  0  0  0  0  0  0  0  0
   -7.2844    6.3412  -16.7719 C   0  0  0  0  0  0  0  0  0  0  0  0
   -5.8375    5.9060  -16.7772 C   0  0  0  0  0  0  0  0  0  0  0  0
   -5.5960    4.8972  -17.8553 C   0  0  0  0  0  0  0  0  0  0  0  0
   -4.4468    4.6070  -18.1757 O   0  0  0  0  0  0  0  0  0  0  0  0
   -6.7175    4.3011  -18.3871 N   0  0  0  0  0  0  0  0  0  0  0  0
   -7.9965    4.2436  -17.8367 C   0  0  0  0  0  0  0  0  0  0  0  0
   -8.8505    3.4647  -18.2532 O   0  0  0  0  0  0  0  0  0  0  0  0
   -7.2489    3.7106  -14.9287 C   0  0  0  0  0  0  0  0  0  0  0  0
   -2.9240    4.0282  -11.4082 C   0  0  0  0  0  0  0  0  0  0  0  0
   -2.9684    4.5350  -10.2962 O   0  0  0  0  0  0  0  0  0  0  0  0
  1  2  1  0
  2  3  1  0
  3  4  1  0
  5  4  1  0
  5  6  1  1
  5  7  1  0
  7  8  1  0
  8  9  2  0
  8 10  1  0
 10 11  1  0
 11 12  1  1
 11 13  1  0
 13 14  2  0
 13 15  1  0
 15 16  1  0
 16 17  1  0
 17 18  2  0
 18 19  1  0
 20 19  1  1
 20 21  1  0
 21 22  1  0
 22 23  1  0
 23 24  2  0
 23 25  1  0
 25 26  1  0
 26 27  2  0
 19 28  1  0
 10 29  1  0
 29 30  2  0
 29  5  1  0
 28 16  2  0
 26 20  1  0
M  END
>  <energy_score>  (721) 
-68.987135

>  <alias>  (721) 
None

>  <HIPPO Pose ID>  (721) 
70099

>  <smiles>  (721) 
CCCC[C@]1(C)NC(=O)N([C@@H](C)C(=O)Nc2cnn([C@H]3CCC(=O)NC3=O)c2)C1=O

>  <inchikey>  (721) 
JWSIHSZXFNXWKA-BLWXERESSA-N

>  <distance_score>  (721) 
1.981435

>  <ref_mols>  (721) 
Z0701a,Z0719a

>  <ref_pdb>  (721) 
Z0719a

>  <HIPPO Compound ID>  (721) 
141400

>  <name>  (721) 
P70099

>  <inspiration_score>  (721) 
None

$$$$
P70103
     RDKit          3D

 30 33  0  0  0  0  0  0  0  0999 V2000
  -10.7009    4.5580  -17.8046 C   0  0  0  0  0  0  0  0  0  0  0  0
   -9.2825    4.0151  -17.7835 C   0  0  1  0  0  0  0  0  0  0  0  0
   -8.6064    4.5160  -19.0296 C   0  0  0  0  0  0  0  0  0  0  0  0
   -7.1039    4.4794  -18.9639 C   0  0  0  0  0  0  0  0  0  0  0  0
   -6.6319    5.4606  -17.9290 C   0  0  2  0  0  0  0  0  0  0  0  0
   -7.3752    5.3673  -16.5836 C   0  0  0  0  0  0  0  0  0  0  0  0
   -8.5218    4.3511  -16.4976 C   0  0  0  0  0  0  0  0  0  0  0  0
   -6.6844    6.8221  -18.4268 N   0  0  0  0  0  0  0  0  0  0  0  0
   -5.4566    7.4280  -18.4104 C   0  0  0  0  0  0  0  0  0  0  0  0
   -5.2353    8.5177  -18.9118 O   0  0  0  0  0  0  0  0  0  0  0  0
   -4.5729    6.6120  -17.7845 N   0  0  0  0  0  0  0  0  0  0  0  0
   -3.1341    6.8635  -17.6857 C   0  0  0  0  0  0  0  0  0  0  0  0
   -2.4674    6.1874  -16.4527 C   0  0  0  0  0  0  0  0  0  0  0  0
   -1.3451    5.8589  -16.4355 O   0  0  0  0  0  0  0  0  0  0  0  0
   -3.5933    5.9815  -15.4010 N   0  0  0  0  0  0  0  0  0  0  0  0
   -3.5922    5.2909  -14.2323 C   0  0  0  0  0  0  0  0  0  0  0  0
   -2.6303    4.5156  -13.5705 C   0  0  0  0  0  0  0  0  0  0  0  0
   -3.1759    3.7897  -12.5816 N   0  0  0  0  0  0  0  0  0  0  0  0
   -4.5023    4.0326  -12.6994 N   0  0  0  0  0  0  0  0  0  0  0  0
   -5.4794    3.1884  -12.0183 C   0  0  1  0  0  0  0  0  0  0  0  0
   -6.2597    3.9086  -10.9155 C   0  0  0  0  0  0  0  0  0  0  0  0
   -7.2524    4.9363  -11.4547 C   0  0  0  0  0  0  0  0  0  0  0  0
   -8.0116    4.4855  -12.6892 C   0  0  0  0  0  0  0  0  0  0  0  0
   -8.9341    5.1535  -13.1541 O   0  0  0  0  0  0  0  0  0  0  0  0
   -7.5791    3.3410  -13.3029 N   0  0  0  0  0  0  0  0  0  0  0  0
   -6.4783    2.5803  -12.9884 C   0  0  0  0  0  0  0  0  0  0  0  0
   -6.3625    1.4589  -13.4752 O   0  0  0  0  0  0  0  0  0  0  0  0
   -4.7599    5.0656  -13.5542 C   0  0  0  0  0  0  0  0  0  0  0  0
   -5.1143    5.3550  -17.7592 C   0  0  0  0  0  0  0  0  0  0  0  0
   -4.4748    4.3387  -17.5439 O   0  0  0  0  0  0  0  0  0  0  0  0
  2  1  1  1
  2  3  1  0
  3  4  1  0
  5  4  1  6
  5  6  1  0
  6  7  1  0
  5  8  1  0
  8  9  1  0
  9 10  2  0
  9 11  1  0
 11 12  1  0
 12 13  1  0
 13 14  2  0
 13 15  1  0
 15 16  1  0
 16 17  1  0
 17 18  2  0
 18 19  1  0
 20 19  1  6
 20 21  1  0
 21 22  1  0
 22 23  1  0
 23 24  2  0
 23 25  1  0
 25 26  1  0
 26 27  2  0
 19 28  1  0
 11 29  1  0
 29 30  2  0
  7  2  1  0
 28 16  2  0
 29  5  1  0
 26 20  1  0
M  END
>  <energy_score>  (722) 
-61.474988

>  <alias>  (722) 
None

>  <HIPPO Pose ID>  (722) 
70103

>  <smiles>  (722) 
C[C@H]1CC[C@]2(CC1)NC(=O)N(CC(=O)Nc1cnn([C@H]3CCC(=O)NC3=O)c1)C2=O

>  <inchikey>  (722) 
CXLHKUHSDWRHBX-MJLGCCKJSA-N

>  <distance_score>  (722) 
1.462357

>  <ref_mols>  (722) 
Z0701a,Z0719a

>  <ref_pdb>  (722) 
Z0719a

>  <HIPPO Compound ID>  (722) 
141403

>  <name>  (722) 
P70103

>  <inspiration_score>  (722) 
None

$$$$
P70106
     RDKit          3D

 30 33  0  0  0  0  0  0  0  0999 V2000
   -7.8552    6.0863  -15.0905 C   0  0  0  0  0  0  0  0  0  0  0  0
   -7.7586    4.7675  -15.8521 C   0  0  1  0  0  0  0  0  0  0  0  0
   -8.9087    4.5735  -16.8347 C   0  0  0  0  0  0  0  0  0  0  0  0
   -8.6462    5.0240  -18.2734 C   0  0  2  0  0  0  0  0  0  0  0  0
   -8.6876    3.8590  -19.2311 C   0  0  0  0  0  0  0  0  0  0  0  0
   -7.3854    5.8724  -18.4437 C   0  0  0  0  0  0  0  0  0  0  0  0
   -6.1356    5.3028  -17.8165 C   0  0  0  0  0  0  0  0  0  0  0  0
   -6.3853    4.5712  -16.5015 C   0  0  0  0  0  0  0  0  0  0  0  0
   -5.3315    4.5507  -18.7651 N   0  0  0  0  0  0  0  0  0  0  0  0
   -4.2357    5.2345  -19.2267 C   0  0  0  0  0  0  0  0  0  0  0  0
   -3.3992    4.8142  -20.0117 O   0  0  0  0  0  0  0  0  0  0  0  0
   -4.1445    6.3973  -18.5375 N   0  0  0  0  0  0  0  0  0  0  0  0
   -2.9904    7.3089  -18.5322 C   0  0  0  0  0  0  0  0  0  0  0  0
   -2.3253    7.2881  -17.1336 C   0  0  0  0  0  0  0  0  0  0  0  0
   -1.8902    8.2329  -16.6021 O   0  0  0  0  0  0  0  0  0  0  0  0
   -2.4780    5.8295  -16.6258 N   0  0  0  0  0  0  0  0  0  0  0  0
   -2.2321    5.2940  -15.4119 C   0  0  0  0  0  0  0  0  0  0  0  0
   -1.8997    5.8520  -14.1727 C   0  0  0  0  0  0  0  0  0  0  0  0
   -2.2205    5.0263  -13.1613 N   0  0  0  0  0  0  0  0  0  0  0  0
   -2.8191    3.9956  -13.7899 N   0  0  0  0  0  0  0  0  0  0  0  0
   -3.9565    3.3110  -13.2234 C   0  0  1  0  0  0  0  0  0  0  0  0
   -3.6902    2.3619  -12.0612 C   0  0  0  0  0  0  0  0  0  0  0  0
   -5.0231    1.8533  -11.4968 C   0  0  0  0  0  0  0  0  0  0  0  0
   -6.2001    2.1813  -12.4006 C   0  0  0  0  0  0  0  0  0  0  0  0
   -6.9562    1.3557  -12.8882 O   0  0  0  0  0  0  0  0  0  0  0  0
   -6.3210    3.5082  -12.7277 N   0  0  0  0  0  0  0  0  0  0  0  0
   -5.1040    4.2707  -12.8671 C   0  0  0  0  0  0  0  0  0  0  0  0
   -2.6363    4.0178  -15.1442 C   0  0  0  0  0  0  0  0  0  0  0  0
   -5.1580    6.4636  -17.6175 C   0  0  0  0  0  0  0  0  0  0  0  0
   -5.2506    7.3045  -16.7360 O   0  0  0  0  0  0  0  0  0  0  0  0
  2  1  1  6
  2  3  1  0
  3  4  1  0
  4  5  1  6
  4  6  1  0
  6  7  1  0
  7  8  1  0
  7  9  1  0
  9 10  1  0
 10 11  2  0
 10 12  1  0
 12 13  1  0
 13 14  1  0
 14 15  2  0
 14 16  1  0
 16 17  1  0
 17 18  1  0
 18 19  2  0
 19 20  1  0
 21 20  1  1
 21 22  1  0
 22 23  1  0
 23 24  1  0
 24 25  2  0
 24 26  1  0
 26 27  1  0
 20 28  1  0
 12 29  1  0
 29 30  2  0
  8  2  1  0
 28 17  2  0
 29  7  1  0
 27 21  1  0
M  END
>  <energy_score>  (723) 
-28.611455

>  <alias>  (723) 
None

>  <HIPPO Pose ID>  (723) 
70106

>  <smiles>  (723) 
C[C@H]1C[C@H](C)CC2(C1)NC(=O)N(CC(=O)Nc1cnn([C@H]3CCC(=O)NC3)c1)C2=O

>  <inchikey>  (723) 
DXWAQILEDJZGGD-YDHLFZDLSA-N

>  <distance_score>  (723) 
1.773192

>  <ref_mols>  (723) 
Z0701a,Z0719a

>  <ref_pdb>  (723) 
Z0719a

>  <HIPPO Compound ID>  (723) 
141416

>  <name>  (723) 
P70106

>  <inspiration_score>  (723) 
None

$$$$
P70107
     RDKit          3D

 30 33  0  0  0  0  0  0  0  0999 V2000
   -5.9849    7.9045  -15.7016 C   0  0  0  0  0  0  0  0  0  0  0  0
   -6.0382    7.2694  -17.0211 N   0  0  0  0  0  0  0  0  0  0  0  0
   -4.7457    7.2037  -17.5737 C   0  0  0  0  0  0  0  0  0  0  0  0
   -3.9420    8.1280  -17.5593 O   0  0  0  0  0  0  0  0  0  0  0  0
   -4.4220    5.9077  -17.7902 N   0  0  0  0  0  0  0  0  0  0  0  0
   -3.0307    5.4529  -17.7574 C   0  0  0  0  0  0  0  0  0  0  0  0
   -2.9132    4.6042  -16.4922 C   0  0  0  0  0  0  0  0  0  0  0  0
   -2.7039    3.4614  -16.5752 O   0  0  0  0  0  0  0  0  0  0  0  0
   -3.2125    5.4812  -15.2531 N   0  0  0  0  0  0  0  0  0  0  0  0
   -3.3993    5.1350  -13.9504 C   0  0  0  0  0  0  0  0  0  0  0  0
   -3.5754    5.9080  -12.7955 C   0  0  0  0  0  0  0  0  0  0  0  0
   -4.1259    5.1952  -11.8044 N   0  0  0  0  0  0  0  0  0  0  0  0
   -4.3919    3.9959  -12.3826 N   0  0  0  0  0  0  0  0  0  0  0  0
   -5.3901    3.0824  -11.8261 C   0  0  1  0  0  0  0  0  0  0  0  0
   -6.2891    3.6965  -10.7422 C   0  0  0  0  0  0  0  0  0  0  0  0
   -7.1827    4.8065  -11.2971 C   0  0  0  0  0  0  0  0  0  0  0  0
   -7.8635    4.4436  -12.5990 C   0  0  0  0  0  0  0  0  0  0  0  0
   -8.8101    5.1012  -13.0298 O   0  0  0  0  0  0  0  0  0  0  0  0
   -7.3508    3.3800  -13.2927 N   0  0  0  0  0  0  0  0  0  0  0  0
   -6.3317    2.5524  -12.8980 C   0  0  0  0  0  0  0  0  0  0  0  0
   -6.2469    1.4255  -13.3786 O   0  0  0  0  0  0  0  0  0  0  0  0
   -3.7518    3.8572  -13.5824 C   0  0  0  0  0  0  0  0  0  0  0  0
   -5.4464    5.1376  -17.3027 C   0  0  0  0  0  0  0  0  0  0  0  0
   -5.3677    3.9831  -16.9383 O   0  0  0  0  0  0  0  0  0  0  0  0
   -6.7065    5.9531  -17.1960 C   0  0  0  0  0  0  0  0  0  0  0  0
   -7.3672    5.7839  -18.5745 C   0  0  0  0  0  0  0  0  0  0  0  0
   -8.1527    4.4795  -18.7096 C   0  0  0  0  0  0  0  0  0  0  0  0
   -9.1794    4.3145  -17.6120 C   0  0  0  0  0  0  0  0  0  0  0  0
   -8.5037    4.3386  -16.2598 C   0  0  0  0  0  0  0  0  0  0  0  0
   -7.6265    5.5596  -16.0332 C   0  0  0  0  0  0  0  0  0  0  0  0
  1  2  1  0
  2  3  1  0
  3  4  2  0
  3  5  1  0
  5  6  1  0
  6  7  1  0
  7  8  2  0
  7  9  1  0
  9 10  1  0
 10 11  1  0
 11 12  2  0
 12 13  1  0
 14 13  1  6
 14 15  1  0
 15 16  1  0
 16 17  1  0
 17 18  2  0
 17 19  1  0
 19 20  1  0
 20 21  2  0
 13 22  1  0
  5 23  1  0
 23 24  2  0
 23 25  1  0
 25 26  1  0
 26 27  1  0
 27 28  1  0
 28 29  1  0
 29 30  1  0
 25  2  1  0
 22 10  2  0
 30 25  1  0
 20 14  1  0
M  END
>  <energy_score>  (724) 
-27.117215

>  <alias>  (724) 
None

>  <HIPPO Pose ID>  (724) 
70107

>  <smiles>  (724) 
CN1C(=O)N(CC(=O)Nc2cnn([C@H]3CCC(=O)NC3=O)c2)C(=O)C12CCCCC2

>  <inchikey>  (724) 
TUUKGDIDFWTPOW-ZDUSSCGKSA-N

>  <distance_score>  (724) 
1.563052

>  <ref_mols>  (724) 
Z0701a,Z0719a

>  <ref_pdb>  (724) 
Z0719a

>  <HIPPO Compound ID>  (724) 
141428

>  <name>  (724) 
P70107

>  <inspiration_score>  (724) 
None

$$$$
P70108
     RDKit          3D

 30 33  0  0  0  0  0  0  0  0999 V2000
   -7.9071    6.3861  -15.3918 C   0  0  0  0  0  0  0  0  0  0  0  0
   -7.8813    4.9225  -15.8310 C   0  0  0  0  0  0  0  0  0  0  0  0
   -8.1924    4.1641  -14.5442 C   0  0  0  0  0  0  0  0  0  0  0  0
   -8.9552    4.5822  -16.8893 C   0  0  0  0  0  0  0  0  0  0  0  0
   -8.5186    4.7197  -18.3477 C   0  0  0  0  0  0  0  0  0  0  0  0
   -7.3150    5.6282  -18.5421 C   0  0  0  0  0  0  0  0  0  0  0  0
   -6.1260    5.1842  -17.7203 C   0  0  1  0  0  0  0  0  0  0  0  0
   -6.4787    4.5654  -16.3555 C   0  0  0  0  0  0  0  0  0  0  0  0
   -5.2764    4.3448  -18.5425 N   0  0  0  0  0  0  0  0  0  0  0  0
   -4.0811    4.9281  -18.8735 C   0  0  0  0  0  0  0  0  0  0  0  0
   -3.2560    4.4978  -19.6637 O   0  0  0  0  0  0  0  0  0  0  0  0
   -3.9639    6.0703  -18.1610 N   0  0  0  0  0  0  0  0  0  0  0  0
   -2.7071    6.7328  -17.8501 C   0  0  0  0  0  0  0  0  0  0  0  0
   -2.3093    6.0750  -16.5129 C   0  0  0  0  0  0  0  0  0  0  0  0
   -1.5916    5.1527  -16.4415 O   0  0  0  0  0  0  0  0  0  0  0  0
   -3.1209    6.8141  -15.4012 N   0  0  0  0  0  0  0  0  0  0  0  0
   -3.2756    6.5246  -14.0813 C   0  0  0  0  0  0  0  0  0  0  0  0
   -4.0117    7.2331  -13.1173 C   0  0  0  0  0  0  0  0  0  0  0  0
   -4.1657    6.5273  -11.9949 N   0  0  0  0  0  0  0  0  0  0  0  0
   -3.6491    5.3171  -12.3161 N   0  0  0  0  0  0  0  0  0  0  0  0
   -3.9869    4.1726  -11.4767 C   0  0  2  0  0  0  0  0  0  0  0  0
   -3.3982    2.8209  -11.9120 C   0  0  0  0  0  0  0  0  0  0  0  0
   -4.1037    2.2358  -13.1336 C   0  0  0  0  0  0  0  0  0  0  0  0
   -5.6019    2.1900  -12.9802 C   0  0  0  0  0  0  0  0  0  0  0  0
   -6.3112    1.3392  -13.5053 O   0  0  0  0  0  0  0  0  0  0  0  0
   -6.1768    3.2185  -12.3087 N   0  0  0  0  0  0  0  0  0  0  0  0
   -5.5122    4.0198  -11.3099 C   0  0  0  0  0  0  0  0  0  0  0  0
   -2.9098    5.3557  -13.4657 C   0  0  0  0  0  0  0  0  0  0  0  0
   -5.1313    6.3263  -17.5126 C   0  0  0  0  0  0  0  0  0  0  0  0
   -5.2996    7.3152  -16.8101 O   0  0  0  0  0  0  0  0  0  0  0  0
  1  2  1  0
  2  3  1  0
  2  4  1  0
  4  5  1  0
  5  6  1  0
  7  6  1  6
  7  8  1  0
  7  9  1  0
  9 10  1  0
 10 11  2  0
 10 12  1  0
 12 13  1  0
 13 14  1  0
 14 15  2  0
 14 16  1  0
 16 17  1  0
 17 18  1  0
 18 19  2  0
 19 20  1  0
 21 20  1  6
 21 22  1  0
 22 23  1  0
 23 24  1  0
 24 25  2  0
 24 26  1  0
 26 27  1  0
 20 28  1  0
 12 29  1  0
 29 30  2  0
  8  2  1  0
 28 17  2  0
 29  7  1  0
 27 21  1  0
M  END
>  <energy_score>  (725) 
-58.625164

>  <alias>  (725) 
None

>  <HIPPO Pose ID>  (725) 
70108

>  <smiles>  (725) 
CC1(C)CCC[C@@]2(C1)NC(=O)N(CC(=O)Nc1cnn([C@@H]3CCC(=O)NC3)c1)C2=O

>  <inchikey>  (725) 
VRJYWNDMYOADOO-VLIAUNLRSA-N

>  <distance_score>  (725) 
1.82892

>  <ref_mols>  (725) 
Z0701a,Z0719a

>  <ref_pdb>  (725) 
Z0719a

>  <HIPPO Compound ID>  (725) 
141452

>  <name>  (725) 
P70108

>  <inspiration_score>  (725) 
None

$$$$
P70110
     RDKit          3D

 31 35  0  0  0  0  0  0  0  0999 V2000
   -4.3120    4.7917  -18.1578 O   0  0  0  0  0  0  0  0  0  0  0  0
   -5.4690    4.9480  -17.7790 C   0  0  0  0  0  0  0  0  0  0  0  0
   -5.8004    5.9261  -16.6972 C   0  0  0  0  0  0  0  0  0  0  0  0
   -7.2544    6.3491  -16.7515 C   0  0  0  0  0  0  0  0  0  0  0  0
   -8.2370    5.1728  -16.7386 C   0  0  2  0  0  0  0  0  0  0  0  0
   -8.2789    4.5866  -15.4029 N   0  0  0  0  0  0  0  0  0  0  0  0
   -7.3239    3.7899  -14.8471 C   0  0  0  0  0  0  0  0  0  0  0  0
   -7.3917    3.9757  -13.4928 C   0  0  0  0  0  0  0  0  0  0  0  0
   -6.4613    3.5522  -12.5922 N   0  0  0  0  0  0  0  0  0  0  0  0
   -5.2509    2.5844  -12.7668 C   0  0  0  0  0  0  0  0  0  0  0  0
   -4.9177    1.9465  -13.6890 O   0  0  0  0  0  0  0  0  0  0  0  0
   -4.4306    2.6755  -11.4747 C   0  0  0  0  0  0  0  0  0  0  0  0
   -3.0308    2.4768  -11.7903 N   0  0  0  0  0  0  0  0  0  0  0  0
   -2.3450    3.2034  -12.7170 C   0  0  0  0  0  0  0  0  0  0  0  0
   -2.7680    4.1024  -13.4292 O   0  0  0  0  0  0  0  0  0  0  0  0
   -1.0299    2.8034  -12.6983 N   0  0  0  0  0  0  0  0  0  0  0  0
   -0.7133    1.9911  -11.5422 C   0  0  2  0  0  0  0  0  0  0  0  0
    0.1437    2.7980  -10.5684 C   0  0  0  0  0  0  0  0  0  0  0  0
    0.2414    2.6601   -9.1909 C   0  0  0  0  0  0  0  0  0  0  0  0
    1.1573    3.5755   -8.5986 C   0  0  0  0  0  0  0  0  0  0  0  0
    1.7503    4.3867   -9.5361 C   0  0  0  0  0  0  0  0  0  0  0  0
    1.2105    4.0403  -11.1169 S   0  0  0  0  0  0  0  0  0  0  0  0
   -0.1808    0.6586  -12.0298 C   0  0  0  0  0  0  0  0  0  0  0  0
    1.2086    0.5043  -12.6133 C   0  0  0  0  0  0  0  0  0  0  0  0
    0.8758   -0.1377  -11.2956 C   0  0  0  0  0  0  0  0  0  0  0  0
   -2.1505    1.8475  -10.9555 C   0  0  0  0  0  0  0  0  0  0  0  0
   -2.4483    1.3123   -9.8938 O   0  0  0  0  0  0  0  0  0  0  0  0
   -8.5045    4.8066  -13.3017 C   0  0  0  0  0  0  0  0  0  0  0  0
   -9.0614    5.1923  -14.4566 N   0  0  0  0  0  0  0  0  0  0  0  0
   -7.9165    4.2960  -17.9340 C   0  0  0  0  0  0  0  0  0  0  0  0
   -6.4999    4.2194  -18.2886 N   0  0  0  0  0  0  0  0  0  0  0  0
  1  2  2  0
  2  3  1  0
  3  4  1  0
  4  5  1  0
  5  6  1  1
  6  7  1  0
  7  8  2  0
  8  9  1  0
  9 10  1  0
 10 11  2  0
 10 12  1  0
 12 13  1  0
 13 14  1  0
 14 15  2  0
 14 16  1  0
 16 17  1  0
 17 18  1  0
 18 19  2  0
 19 20  1  0
 20 21  2  0
 21 22  1  0
 17 23  1  6
 23 24  1  0
 24 25  1  0
 17 26  1  0
 26 27  2  0
  8 28  1  0
 28 29  2  0
  5 30  1  0
 30 31  1  0
 31  2  1  0
 29  6  1  0
 26 13  1  0
 22 18  1  0
 25 23  1  0
M  END
>  <energy_score>  (726) 
-48.210693

>  <alias>  (726) 
None

>  <HIPPO Pose ID>  (726) 
70110

>  <smiles>  (726) 
O=C1CC[C@H](n2cc(NC(=O)CN3C(=O)N[C@](c4cccs4)(C4CC4)C3=O)cn2)CN1

>  <inchikey>  (726) 
DXNBXMJKDJGMII-XOBRGWDASA-N

>  <distance_score>  (726) 
1.817032

>  <ref_mols>  (726) 
Z0701a,Z0719a

>  <ref_pdb>  (726) 
Z0719a

>  <HIPPO Compound ID>  (726) 
141500

>  <name>  (726) 
P70110

>  <inspiration_score>  (726) 
None

$$$$
P70112
     RDKit          3D

 31 34  0  0  0  0  0  0  0  0999 V2000
   -7.2621    4.0181  -15.1146 C   0  0  0  0  0  0  0  0  0  0  0  0
   -8.1146    5.1423  -15.6861 C   0  0  0  0  0  0  0  0  0  0  0  0
   -8.7679    5.8718  -14.4987 C   0  0  0  0  0  0  0  0  0  0  0  0
   -9.2212    4.5844  -16.5904 C   0  0  0  0  0  0  0  0  0  0  0  0
   -8.6745    3.9984  -17.8647 C   0  0  0  0  0  0  0  0  0  0  0  0
   -7.8748    4.9915  -18.6580 C   0  0  0  0  0  0  0  0  0  0  0  0
   -6.8221    5.7652  -17.8892 C   0  0  2  0  0  0  0  0  0  0  0  0
   -7.1707    6.1033  -16.4279 C   0  0  0  0  0  0  0  0  0  0  0  0
   -6.5269    6.9995  -18.6152 N   0  0  0  0  0  0  0  0  0  0  0  0
   -5.1919    7.1625  -18.8801 C   0  0  0  0  0  0  0  0  0  0  0  0
   -4.7382    8.0771  -19.5472 O   0  0  0  0  0  0  0  0  0  0  0  0
   -4.5148    6.1431  -18.3150 N   0  0  0  0  0  0  0  0  0  0  0  0
   -3.0735    5.9954  -18.2221 C   0  0  0  0  0  0  0  0  0  0  0  0
   -2.6711    6.1603  -16.7336 C   0  0  0  0  0  0  0  0  0  0  0  0
   -2.2124    7.1458  -16.2993 O   0  0  0  0  0  0  0  0  0  0  0  0
   -3.0989    4.8417  -16.0151 N   0  0  0  0  0  0  0  0  0  0  0  0
   -3.1341    4.5285  -14.6908 C   0  0  0  0  0  0  0  0  0  0  0  0
   -2.7622    5.2364  -13.5397 C   0  0  0  0  0  0  0  0  0  0  0  0
   -3.1419    4.6023  -12.4202 N   0  0  0  0  0  0  0  0  0  0  0  0
   -3.8341    3.5278  -12.8739 N   0  0  0  0  0  0  0  0  0  0  0  0
   -4.6249    2.6887  -11.9722 C   0  0  1  0  0  0  0  0  0  0  0  0
   -4.8652    3.3048  -10.5853 C   0  0  0  0  0  0  0  0  0  0  0  0
   -5.7735    4.5297  -10.6740 C   0  0  0  0  0  0  0  0  0  0  0  0
   -7.0326    4.2554  -11.4623 C   0  0  0  0  0  0  0  0  0  0  0  0
   -7.9686    5.0494  -11.4804 O   0  0  0  0  0  0  0  0  0  0  0  0
   -7.0628    3.0882  -12.1721 N   0  0  0  0  0  0  0  0  0  0  0  0
   -5.9868    2.3288  -12.5629 C   0  0  0  0  0  0  0  0  0  0  0  0
   -6.1606    1.4384  -13.3936 O   0  0  0  0  0  0  0  0  0  0  0  0
   -3.6988    3.3709  -14.2221 C   0  0  0  0  0  0  0  0  0  0  0  0
   -5.4021    5.1930  -17.9200 C   0  0  0  0  0  0  0  0  0  0  0  0
   -5.0361    4.0998  -17.5226 O   0  0  0  0  0  0  0  0  0  0  0  0
  1  2  1  0
  2  3  1  0
  2  4  1  0
  4  5  1  0
  5  6  1  0
  7  6  1  6
  7  8  1  0
  7  9  1  0
  9 10  1  0
 10 11  2  0
 10 12  1  0
 12 13  1  0
 13 14  1  0
 14 15  2  0
 14 16  1  0
 16 17  1  0
 17 18  1  0
 18 19  2  0
 19 20  1  0
 21 20  1  6
 21 22  1  0
 22 23  1  0
 23 24  1  0
 24 25  2  0
 24 26  1  0
 26 27  1  0
 27 28  2  0
 20 29  1  0
 12 30  1  0
 30 31  2  0
  8  2  1  0
 29 17  2  0
 30  7  1  0
 27 21  1  0
M  END
>  <energy_score>  (727) 
-86.083913

>  <alias>  (727) 
None

>  <HIPPO Pose ID>  (727) 
70112

>  <smiles>  (727) 
CC1(C)CCC[C@]2(C1)NC(=O)N(CC(=O)Nc1cnn([C@H]3CCC(=O)NC3=O)c1)C2=O

>  <inchikey>  (727) 
LLEYPFZDLYXPQX-RNODOKPDSA-N

>  <distance_score>  (727) 
1.678464

>  <ref_mols>  (727) 
Z0701a,Z0719a

>  <ref_pdb>  (727) 
Z0719a

>  <HIPPO Compound ID>  (727) 
141510

>  <name>  (727) 
P70112

>  <inspiration_score>  (727) 
None

$$$$
P70114
     RDKit          3D

 31 34  0  0  0  0  0  0  0  0999 V2000
   -7.3930    5.5992  -12.1902 O   0  0  0  0  0  0  0  0  0  0  0  0
   -6.6276    4.6390  -12.1900 C   0  0  0  0  0  0  0  0  0  0  0  0
   -5.4039    4.6199  -11.2998 C   0  0  0  0  0  0  0  0  0  0  0  0
   -4.8816    3.2087  -11.0632 C   0  0  0  0  0  0  0  0  0  0  0  0
   -4.6974    2.4729  -12.3948 C   0  0  2  0  0  0  0  0  0  0  0  0
   -3.6525    3.0813  -13.2209 N   0  0  0  0  0  0  0  0  0  0  0  0
   -3.7772    3.8136  -14.3756 C   0  0  0  0  0  0  0  0  0  0  0  0
   -2.5713    4.4438  -14.5584 C   0  0  0  0  0  0  0  0  0  0  0  0
   -2.2773    5.3615  -15.5243 N   0  0  0  0  0  0  0  0  0  0  0  0
   -1.0080    6.2351  -15.7336 C   0  0  0  0  0  0  0  0  0  0  0  0
    0.0083    6.2453  -15.1555 O   0  0  0  0  0  0  0  0  0  0  0  0
   -1.3340    7.2527  -16.8438 C   0  0  0  0  0  0  0  0  0  0  0  0
   -2.2526    6.7713  -17.8521 N   0  0  0  0  0  0  0  0  0  0  0  0
   -3.6428    7.2756  -18.2550 C   0  0  0  0  0  0  0  0  0  0  0  0
   -4.2406    8.2041  -17.8948 O   0  0  0  0  0  0  0  0  0  0  0  0
   -4.1951    6.4104  -19.3288 C   0  0  1  0  0  0  0  0  0  0  0  0
   -4.1402    4.9093  -19.2181 C   0  0  0  0  0  0  0  0  0  0  0  0
   -5.4770    5.6075  -19.2623 C   0  0  1  0  0  0  0  0  0  0  0  0
   -6.4110    5.4095  -18.0988 C   0  0  0  0  0  0  0  0  0  0  0  0
   -6.1158    5.7978  -16.7913 C   0  0  0  0  0  0  0  0  0  0  0  0
   -7.0257    5.6336  -15.7572 C   0  0  0  0  0  0  0  0  0  0  0  0
   -8.2692    5.0705  -16.0024 C   0  0  0  0  0  0  0  0  0  0  0  0
   -9.3115    4.9825  -14.6499 Cl  0  0  0  0  0  0  0  0  0  0  0  0
   -8.6044    4.6736  -17.2927 C   0  0  0  0  0  0  0  0  0  0  0  0
  -10.1588    4.1089  -17.7305 Cl  0  0  0  0  0  0  0  0  0  0  0  0
   -7.6704    4.8210  -18.3177 C   0  0  0  0  0  0  0  0  0  0  0  0
   -1.7462    3.9543  -13.5307 C   0  0  0  0  0  0  0  0  0  0  0  0
   -2.3883    3.0942  -12.7374 N   0  0  0  0  0  0  0  0  0  0  0  0
   -6.0501    2.4224  -13.0664 C   0  0  0  0  0  0  0  0  0  0  0  0
   -6.4839    1.4141  -13.6150 O   0  0  0  0  0  0  0  0  0  0  0  0
   -6.8062    3.5672  -13.0261 N   0  0  0  0  0  0  0  0  0  0  0  0
  1  2  2  0
  2  3  1  0
  3  4  1  0
  4  5  1  0
  5  6  1  6
  6  7  1  0
  7  8  2  0
  8  9  1  0
  9 10  1  0
 10 11  2  0
 10 12  1  0
 12 13  1  0
 13 14  1  0
 14 15  2  0
 16 14  1  1
 16 17  1  0
 17 18  1  0
 18 19  1  1
 19 20  2  0
 20 21  1  0
 21 22  2  0
 22 23  1  0
 22 24  1  0
 24 25  1  0
 24 26  2  0
  8 27  1  0
 27 28  2  0
  5 29  1  0
 29 30  2  0
 29 31  1  0
 31  2  1  0
 28  6  1  0
 18 16  1  0
 26 19  1  0
M  END
>  <energy_score>  (728) 
-10.245423

>  <alias>  (728) 
None

>  <HIPPO Pose ID>  (728) 
70114

>  <smiles>  (728) 
O=C1CC[C@H](n2cc(NC(=O)CNC(=O)[C@H]3C[C@H]3c3ccc(Cl)c(Cl)c3)cn2)C(=O)N1

>  <inchikey>  (728) 
MCLHPJUWDYESCG-XEZPLFJOSA-N

>  <distance_score>  (728) 
1.860902

>  <ref_mols>  (728) 
Z0701a,Z0719a

>  <ref_pdb>  (728) 
Z0719a

>  <HIPPO Compound ID>  (728) 
141584

>  <name>  (728) 
P70114

>  <inspiration_score>  (728) 
None

$$$$
P70117
     RDKit          3D

 31 34  0  0  0  0  0  0  0  0999 V2000
   -8.4240    5.2561  -14.2759 C   0  0  0  0  0  0  0  0  0  0  0  0
   -8.0823    5.4964  -15.7364 C   0  0  2  0  0  0  0  0  0  0  0  0
   -8.9035    4.5918  -16.6364 C   0  0  0  0  0  0  0  0  0  0  0  0
   -8.5607    4.7897  -18.1079 C   0  0  2  0  0  0  0  0  0  0  0  0
   -9.4644    3.9261  -18.9146 C   0  0  0  0  0  0  0  0  0  0  0  0
   -7.0810    4.5724  -18.4028 C   0  0  0  0  0  0  0  0  0  0  0  0
   -6.2816    5.5227  -17.5444 C   0  0  2  0  0  0  0  0  0  0  0  0
   -6.5967    5.3459  -16.0463 C   0  0  0  0  0  0  0  0  0  0  0  0
   -6.4743    6.8813  -18.0046 N   0  0  0  0  0  0  0  0  0  0  0  0
   -5.3096    7.4932  -18.3575 C   0  0  0  0  0  0  0  0  0  0  0  0
   -5.2473    8.6326  -18.7904 O   0  0  0  0  0  0  0  0  0  0  0  0
   -4.2816    6.6419  -18.1097 N   0  0  0  0  0  0  0  0  0  0  0  0
   -2.9309    7.0890  -17.8154 C   0  0  0  0  0  0  0  0  0  0  0  0
   -2.9809    7.2266  -16.2751 C   0  0  0  0  0  0  0  0  0  0  0  0
   -3.5120    8.1213  -15.7387 O   0  0  0  0  0  0  0  0  0  0  0  0
   -2.3131    5.9460  -15.6836 N   0  0  0  0  0  0  0  0  0  0  0  0
   -2.2538    5.4923  -14.4012 C   0  0  0  0  0  0  0  0  0  0  0  0
   -1.5094    4.4310  -13.8652 C   0  0  0  0  0  0  0  0  0  0  0  0
   -1.9963    4.0224  -12.6908 N   0  0  0  0  0  0  0  0  0  0  0  0
   -3.0640    4.8252  -12.4941 N   0  0  0  0  0  0  0  0  0  0  0  0
   -4.1501    4.4140  -11.6106 C   0  0  2  0  0  0  0  0  0  0  0  0
   -4.0859    2.9694  -11.0825 C   0  0  0  0  0  0  0  0  0  0  0  0
   -4.4473    1.9259  -12.1485 C   0  0  0  0  0  0  0  0  0  0  0  0
   -5.6823    2.3271  -12.9371 C   0  0  0  0  0  0  0  0  0  0  0  0
   -6.5939    1.5525  -13.1975 O   0  0  0  0  0  0  0  0  0  0  0  0
   -5.6486    3.6276  -13.3705 N   0  0  0  0  0  0  0  0  0  0  0  0
   -5.4896    4.5199  -12.3341 C   0  0  0  0  0  0  0  0  0  0  0  0
   -6.3590    5.2886  -11.9359 O   0  0  0  0  0  0  0  0  0  0  0  0
   -3.1158    5.8584  -13.3979 C   0  0  0  0  0  0  0  0  0  0  0  0
   -4.7613    5.4210  -17.7088 C   0  0  0  0  0  0  0  0  0  0  0  0
   -4.0536    4.4724  -17.3930 O   0  0  0  0  0  0  0  0  0  0  0  0
  2  1  1  1
  2  3  1  0
  3  4  1  0
  4  5  1  6
  4  6  1  0
  7  6  1  6
  7  8  1  0
  7  9  1  0
  9 10  1  0
 10 11  2  0
 10 12  1  0
 12 13  1  0
 13 14  1  0
 14 15  2  0
 14 16  1  0
 16 17  1  0
 17 18  1  0
 18 19  2  0
 19 20  1  0
 21 20  1  6
 21 22  1  0
 22 23  1  0
 23 24  1  0
 24 25  2  0
 24 26  1  0
 26 27  1  0
 27 28  2  0
 20 29  1  0
 12 30  1  0
 30 31  2  0
  8  2  1  0
 29 17  2  0
 30  7  1  0
 27 21  1  0
M  END
>  <energy_score>  (729) 
-51.953015

>  <alias>  (729) 
None

>  <HIPPO Pose ID>  (729) 
70117

>  <smiles>  (729) 
C[C@@H]1C[C@H](C)C[C@]2(C1)NC(=O)N(CC(=O)Nc1cnn([C@@H]3CCC(=O)NC3=O)c1)C2=O

>  <inchikey>  (729) 
PLLUBJOWTVCZAZ-QJVCWMCKSA-N

>  <distance_score>  (729) 
1.730158

>  <ref_mols>  (729) 
Z0701a,Z0719a

>  <ref_pdb>  (729) 
Z0719a

>  <HIPPO Compound ID>  (729) 
141587

>  <name>  (729) 
P70117

>  <inspiration_score>  (729) 
None

$$$$
P70119
     RDKit          3D

 31 34  0  0  0  0  0  0  0  0999 V2000
   -8.3377    5.1235  -14.0536 C   0  0  0  0  0  0  0  0  0  0  0  0
   -8.0874    5.5167  -15.4984 C   0  0  2  0  0  0  0  0  0  0  0  0
   -9.1615    4.9286  -16.3928 C   0  0  0  0  0  0  0  0  0  0  0  0
   -8.8692    4.8778  -17.9002 C   0  0  0  0  0  0  0  0  0  0  0  0
  -10.2093    5.0708  -18.6191 C   0  0  0  0  0  0  0  0  0  0  0  0
   -8.5044    3.4853  -18.2880 C   0  0  0  0  0  0  0  0  0  0  0  0
   -7.6400    5.7055  -18.3729 C   0  0  0  0  0  0  0  0  0  0  0  0
   -6.4807    5.8484  -17.3661 C   0  0  2  0  0  0  0  0  0  0  0  0
   -6.6989    5.1660  -16.0058 C   0  0  0  0  0  0  0  0  0  0  0  0
   -6.2130    7.2709  -17.1498 N   0  0  0  0  0  0  0  0  0  0  0  0
   -4.9320    7.6157  -17.4521 C   0  0  0  0  0  0  0  0  0  0  0  0
   -4.4003    8.6401  -17.0480 O   0  0  0  0  0  0  0  0  0  0  0  0
   -4.3055    6.5747  -18.0378 N   0  0  0  0  0  0  0  0  0  0  0  0
   -2.8488    6.4846  -18.1068 C   0  0  0  0  0  0  0  0  0  0  0  0
   -2.4228    5.7911  -16.7984 C   0  0  0  0  0  0  0  0  0  0  0  0
   -1.9211    4.7343  -16.7961 O   0  0  0  0  0  0  0  0  0  0  0  0
   -2.8796    6.6948  -15.6126 N   0  0  0  0  0  0  0  0  0  0  0  0
   -2.8968    6.4532  -14.2758 C   0  0  0  0  0  0  0  0  0  0  0  0
   -3.3015    7.2815  -13.2180 C   0  0  0  0  0  0  0  0  0  0  0  0
   -3.5118    6.5815  -12.0978 N   0  0  0  0  0  0  0  0  0  0  0  0
   -3.3227    5.2969  -12.4899 N   0  0  0  0  0  0  0  0  0  0  0  0
   -3.8545    4.2254  -11.6548 C   0  0  2  0  0  0  0  0  0  0  0  0
   -3.3660    2.8056  -11.9806 C   0  0  0  0  0  0  0  0  0  0  0  0
   -4.0855    2.1704  -13.1683 C   0  0  0  0  0  0  0  0  0  0  0  0
   -5.5845    2.2758  -13.0741 C   0  0  0  0  0  0  0  0  0  0  0  0
   -6.3590    1.4103  -13.4647 O   0  0  0  0  0  0  0  0  0  0  0  0
   -6.0702    3.4602  -12.6160 N   0  0  0  0  0  0  0  0  0  0  0  0
   -5.3945    4.2550  -11.6167 C   0  0  0  0  0  0  0  0  0  0  0  0
   -2.7411    5.2102  -13.7195 C   0  0  0  0  0  0  0  0  0  0  0  0
   -5.1020    5.4608  -17.9411 C   0  0  0  0  0  0  0  0  0  0  0  0
   -4.7076    4.3268  -18.1514 O   0  0  0  0  0  0  0  0  0  0  0  0
  2  1  1  1
  2  3  1  0
  3  4  1  0
  4  5  1  0
  4  6  1  0
  4  7  1  0
  8  7  1  6
  8  9  1  0
  8 10  1  0
 10 11  1  0
 11 12  2  0
 11 13  1  0
 13 14  1  0
 14 15  1  0
 15 16  2  0
 15 17  1  0
 17 18  1  0
 18 19  1  0
 19 20  2  0
 20 21  1  0
 22 21  1  6
 22 23  1  0
 23 24  1  0
 24 25  1  0
 25 26  2  0
 25 27  1  0
 27 28  1  0
 21 29  1  0
 13 30  1  0
 30 31  2  0
  9  2  1  0
 29 18  2  0
 30  8  1  0
 28 22  1  0
M  END
>  <energy_score>  (730) 
-69.795948

>  <alias>  (730) 
None

>  <HIPPO Pose ID>  (730) 
70119

>  <smiles>  (730) 
C[C@@H]1CC(C)(C)C[C@]2(C1)NC(=O)N(CC(=O)Nc1cnn([C@@H]3CCC(=O)NC3)c1)C2=O

>  <inchikey>  (730) 
QRGMYILAUMOQDR-VWLHBSKXSA-N

>  <distance_score>  (730) 
1.641635

>  <ref_mols>  (730) 
Z0701a,Z0719a

>  <ref_pdb>  (730) 
Z0719a

>  <HIPPO Compound ID>  (730) 
141590

>  <name>  (730) 
P70119

>  <inspiration_score>  (730) 
None

$$$$
P70124
     RDKit          3D

 32 35  0  0  0  0  0  0  0  0999 V2000
   -0.7104    8.7536  -16.5747 C   0  0  0  0  0  0  0  0  0  0  0  0
   -1.4814    7.9285  -16.9829 C   0  0  0  0  0  0  0  0  0  0  0  0
   -2.4293    6.9192  -17.4835 C   0  0  0  0  0  0  0  0  0  0  0  0
   -2.7037    5.8532  -16.4222 C   0  0  0  0  0  0  0  0  0  0  0  0
   -3.7831    4.5398  -17.0434 S   0  0  0  0  0  0  0  0  0  0  0  0
   -5.2816    5.3472  -17.0570 C   0  0  0  0  0  0  0  0  0  0  0  0
   -5.9495    5.8251  -16.0030 C   0  0  0  0  0  0  0  0  0  0  0  0
   -5.7101    5.6326  -14.5399 C   0  0  0  0  0  0  0  0  0  0  0  0
   -5.7464    6.5243  -13.7872 O   0  0  0  0  0  0  0  0  0  0  0  0
   -5.5355    4.1137  -14.2896 N   0  0  0  0  0  0  0  0  0  0  0  0
   -5.4693    3.4141  -13.1288 C   0  0  0  0  0  0  0  0  0  0  0  0
   -4.9968    2.1269  -12.8395 C   0  0  0  0  0  0  0  0  0  0  0  0
   -5.1607    1.8110  -11.5503 N   0  0  0  0  0  0  0  0  0  0  0  0
   -5.8154    2.8728  -11.0404 N   0  0  0  0  0  0  0  0  0  0  0  0
   -6.2248    2.8885   -9.6389 C   0  0  2  0  0  0  0  0  0  0  0  0
   -7.7556    2.8954   -9.4746 C   0  0  0  0  0  0  0  0  0  0  0  0
   -8.3159    4.2695   -9.1243 C   0  0  0  0  0  0  0  0  0  0  0  0
   -7.6432    4.8356   -7.8959 C   0  0  0  0  0  0  0  0  0  0  0  0
   -8.2229    5.5151   -7.0553 O   0  0  0  0  0  0  0  0  0  0  0  0
   -6.3027    4.5864   -7.7955 N   0  0  0  0  0  0  0  0  0  0  0  0
   -5.5336    4.0467   -8.8974 C   0  0  0  0  0  0  0  0  0  0  0  0
   -5.9907    3.8688  -11.9506 C   0  0  0  0  0  0  0  0  0  0  0  0
   -7.1325    6.4246  -16.3713 N   0  0  0  0  0  0  0  0  0  0  0  0
   -8.2886    5.9204  -15.8470 C   0  0  0  0  0  0  0  0  0  0  0  0
   -8.7362    5.9302  -14.7231 O   0  0  0  0  0  0  0  0  0  0  0  0
   -8.6630    5.2784  -17.1864 C   0  0  2  0  0  0  0  0  0  0  0  0
   -8.7458    3.8108  -17.1553 C   0  0  2  0  0  0  0  0  0  0  0  0
   -9.4394    3.4054  -18.4249 C   0  0  0  0  0  0  0  0  0  0  0  0
   -9.5958    3.4408  -16.1079 O   0  0  0  0  0  0  0  0  0  0  0  0
   -7.4165    6.0174  -17.7861 C   0  0  2  0  0  0  0  0  0  0  0  0
   -6.0534    5.5790  -18.3201 C   0  0  2  0  0  0  0  0  0  0  0  0
   -6.1565    4.4267  -19.2753 C   0  0  0  0  0  0  0  0  0  0  0  0
  1  2  3  0
  2  3  1  0
  3  4  1  0
  4  5  1  0
  5  6  1  0
  6  7  2  0
  7  8  1  0
  8  9  2  0
  8 10  1  0
 10 11  1  0
 11 12  1  0
 12 13  2  0
 13 14  1  0
 15 14  1  6
 15 16  1  0
 16 17  1  0
 17 18  1  0
 18 19  2  0
 18 20  1  0
 20 21  1  0
 14 22  1  0
  7 23  1  0
 23 24  1  0
 24 25  2  0
 26 24  1  1
 26 27  1  0
 27 28  1  6
 27 29  1  0
 26 30  1  0
 30 31  1  0
 31 32  1  1
 31  6  1  0
 22 11  2  0
 30 23  1  1
 21 15  1  0
M  END
>  <energy_score>  (731) 
-96.517307

>  <alias>  (731) 
None

>  <HIPPO Pose ID>  (731) 
70124

>  <smiles>  (731) 
C#CCCSC1=C(C(=O)Nc2cnn([C@@H]3CCC(=O)NC3)c2)N2C(=O)[C@H]([C@H](C)O)[C@@H]2[C@@H]1C

>  <inchikey>  (731) 
WSEZWCKWGNNADW-AXRYGOTBSA-N

>  <distance_score>  (731) 
1.751262

>  <ref_mols>  (731) 
Z0701a,Z0719a

>  <ref_pdb>  (731) 
Z0719a

>  <HIPPO Compound ID>  (731) 
141595

>  <name>  (731) 
P70124

>  <inspiration_score>  (731) 
None

$$$$
P70127
     RDKit          3D

 32 35  0  0  0  0  0  0  0  0999 V2000
   -8.3631    3.8680  -12.0902 C   0  0  0  0  0  0  0  0  0  0  0  0
   -7.0124    3.7461  -12.5451 N   0  0  0  0  0  0  0  0  0  0  0  0
   -6.2561    2.6041  -12.9291 C   0  0  0  0  0  0  0  0  0  0  0  0
   -6.5762    1.4581  -13.0468 O   0  0  0  0  0  0  0  0  0  0  0  0
   -4.8452    3.0019  -13.1668 C   0  0  0  0  0  0  0  0  0  0  0  0
   -3.7208    2.1438  -13.2297 C   0  0  0  0  0  0  0  0  0  0  0  0
   -2.6438    2.9633  -13.4529 C   0  0  0  0  0  0  0  0  0  0  0  0
   -3.1398    4.2335  -13.5127 N   0  0  0  0  0  0  0  0  0  0  0  0
   -2.4079    5.4498  -13.8571 C   0  0  1  0  0  0  0  0  0  0  0  0
   -1.1402    5.6324  -13.0317 C   0  0  0  0  0  0  0  0  0  0  0  0
   -0.2497    6.6162  -13.7578 C   0  0  0  0  0  0  0  0  0  0  0  0
   -0.2722    6.2999  -15.2556 C   0  0  0  0  0  0  0  0  0  0  0  0
   -1.5130    6.7488  -15.9720 N   0  0  0  0  0  0  0  0  0  0  0  0
   -1.8158    6.8073  -17.3761 C   0  0  0  0  0  0  0  0  0  0  0  0
   -1.1850    6.4266  -18.3279 O   0  0  0  0  0  0  0  0  0  0  0  0
   -3.1483    7.5974  -17.5806 C   0  0  1  0  0  0  0  0  0  0  0  0
   -3.1164    8.3828  -18.9091 C   0  0  0  0  0  0  0  0  0  0  0  0
   -2.1000    9.9046  -18.7921 S   0  0  0  0  0  0  0  0  0  0  0  0
   -2.0218   10.3080  -20.5536 C   0  0  0  0  0  0  0  0  0  0  0  0
   -4.3404    6.7522  -17.4884 N   0  0  0  0  0  0  0  0  0  0  0  0
   -5.1346    6.6899  -16.3669 C   0  0  0  0  0  0  0  0  0  0  0  0
   -5.0285    7.3577  -15.3541 O   0  0  0  0  0  0  0  0  0  0  0  0
   -6.1194    5.5846  -16.6055 C   0  0  1  0  0  0  0  0  0  0  0  0
   -7.4526    5.6385  -15.8990 C   0  0  0  0  0  0  0  0  0  0  0  0
   -8.3780    4.5483  -16.4502 C   0  0  0  0  0  0  0  0  0  0  0  0
   -8.4164    4.4613  -17.9870 C   0  0  0  0  0  0  0  0  0  0  0  0
   -7.0264    4.5129  -18.6400 C   0  0  0  0  0  0  0  0  0  0  0  0
   -6.2823    5.7071  -18.1118 C   0  0  2  0  0  0  0  0  0  0  0  0
   -4.8523    5.9803  -18.5082 C   0  0  0  0  0  0  0  0  0  0  0  0
   -4.2858    5.6745  -19.5403 O   0  0  0  0  0  0  0  0  0  0  0  0
   -2.0669    5.4500  -15.3655 C   0  0  0  0  0  0  0  0  0  0  0  0
   -4.4742    4.2912  -13.3380 N   0  0  0  0  0  0  0  0  0  0  0  0
  1  2  1  0
  2  3  1  0
  3  4  2  0
  3  5  1  0
  5  6  1  0
  6  7  2  0
  7  8  1  0
  9  8  1  1
  9 10  1  0
 10 11  1  0
 11 12  1  0
 12 13  1  0
 13 14  1  0
 14 15  2  0
 14 16  1  0
 16 17  1  6
 17 18  1  0
 18 19  1  0
 16 20  1  0
 20 21  1  0
 21 22  2  0
 21 23  1  0
 23 24  1  1
 24 25  1  0
 25 26  1  0
 26 27  1  0
 28 27  1  6
 28 29  1  0
 29 30  2  0
 13 31  1  0
  8 32  1  0
 32  5  2  0
 31  9  1  0
 29 20  1  0
 28 23  1  0
M  END
>  <energy_score>  (732) 
-9.051104

>  <alias>  (732) 
None

>  <HIPPO Pose ID>  (732) 
70127

>  <smiles>  (732) 
CNC(=O)c1ccn([C@H]2CCCN(C(=O)[C@@H](CSC)N3C(=O)[C@H]4CCCC[C@@H]4C3=O)C2)n1

>  <inchikey>  (732) 
ADCAUMQJPYNGNY-NBOOPKSLSA-N

>  <distance_score>  (732) 
1.870763

>  <ref_mols>  (732) 
Z0701a,Z0719a

>  <ref_pdb>  (732) 
Z0719a

>  <HIPPO Compound ID>  (732) 
141602

>  <name>  (732) 
P70127

>  <inspiration_score>  (732) 
None

$$$$
P70129
     RDKit          3D

 33 38  0  0  0  0  0  0  0  0999 V2000
   -7.1116    7.1959  -13.7537 O   0  0  0  0  0  0  0  0  0  0  0  0
   -7.4765    6.1194  -14.0079 C   0  0  0  0  0  0  0  0  0  0  0  0
   -8.0825    5.0353  -13.1067 N   0  0  0  0  0  0  0  0  0  0  0  0
   -8.4415    5.0738  -11.7765 C   0  0  0  0  0  0  0  0  0  0  0  0
   -8.2417    6.2225  -10.9866 C   0  0  0  0  0  0  0  0  0  0  0  0
   -8.3897    6.1707   -9.6005 C   0  0  0  0  0  0  0  0  0  0  0  0
   -8.7472    4.9528   -9.0609 C   0  0  0  0  0  0  0  0  0  0  0  0
   -9.1111    3.8549   -9.8739 C   0  0  0  0  0  0  0  0  0  0  0  0
   -8.9123    3.8842  -11.2338 C   0  0  0  0  0  0  0  0  0  0  0  0
   -9.2024    2.6313   -9.0109 C   0  0  0  0  0  0  0  0  0  0  0  0
   -8.0978    2.9774   -8.0804 N   0  0  0  0  0  0  0  0  0  0  0  0
   -6.8708    2.8036   -8.8761 C   0  0  0  0  0  0  0  0  0  0  0  0
   -6.6297    1.5593   -9.4918 C   0  0  0  0  0  0  0  0  0  0  0  0
   -5.6942    1.4062  -10.5054 C   0  0  0  0  0  0  0  0  0  0  0  0
   -4.9663    2.5095  -10.9080 C   0  0  0  0  0  0  0  0  0  0  0  0
   -5.0821    3.7097  -10.2132 C   0  0  0  0  0  0  0  0  0  0  0  0
   -5.9837    3.8433   -9.1639 C   0  0  0  0  0  0  0  0  0  0  0  0
   -8.3854    4.3928   -7.7046 C   0  0  0  0  0  0  0  0  0  0  0  0
   -7.3015    5.5905  -15.3762 C   0  0  0  0  0  0  0  0  0  0  0  0
   -8.3444    4.8867  -16.0175 C   0  0  0  0  0  0  0  0  0  0  0  0
   -8.1986    4.4932  -17.3426 C   0  0  0  0  0  0  0  0  0  0  0  0
   -7.0067    4.8074  -17.9596 C   0  0  0  0  0  0  0  0  0  0  0  0
   -5.9643    5.4846  -17.3333 C   0  0  0  0  0  0  0  0  0  0  0  0
   -6.0963    5.8834  -16.0227 C   0  0  0  0  0  0  0  0  0  0  0  0
   -4.8422    5.7229  -18.3203 C   0  0  0  0  0  0  0  0  0  0  0  0
   -3.5298    5.0494  -17.9071 C   0  0  0  0  0  0  0  0  0  0  0  0
   -2.5885    6.0527  -17.2612 C   0  0  0  0  0  0  0  0  0  0  0  0
   -2.2738    7.1664  -18.0963 O   0  0  0  0  0  0  0  0  0  0  0  0
   -3.2419    7.4812  -19.0946 C   0  0  0  0  0  0  0  0  0  0  0  0
   -4.6608    7.2237  -18.6116 C   0  0  0  0  0  0  0  0  0  0  0  0
   -5.4169    5.0486  -19.5915 C   0  0  0  0  0  0  0  0  0  0  0  0
   -4.8925    4.9766  -20.6926 O   0  0  0  0  0  0  0  0  0  0  0  0
   -6.6681    4.5559  -19.2689 N   0  0  0  0  0  0  0  0  0  0  0  0
  1  2  2  0
  2  3  1  0
  3  4  1  0
  4  5  2  0
  5  6  1  0
  6  7  2  0
  7  8  1  0
  8  9  2  0
  8 10  1  0
 10 11  1  0
 11 12  1  0
 12 13  2  0
 13 14  1  0
 14 15  2  0
 15 16  1  0
 16 17  2  0
 11 18  1  0
  2 19  1  0
 19 20  2  0
 20 21  1  0
 21 22  2  0
 22 23  1  0
 23 24  2  0
 23 25  1  0
 25 26  1  0
 26 27  1  0
 27 28  1  0
 28 29  1  0
 29 30  1  0
 25 31  1  0
 31 32  2  0
 31 33  1  0
  9  4  1  0
 17 12  1  0
 24 19  1  0
 30 25  1  0
 18  7  1  0
 33 22  1  0
M  END
>  <energy_score>  (733) 
-3.94964

>  <alias>  (733) 
None

>  <HIPPO Pose ID>  (733) 
70129

>  <smiles>  (733) 
O=C(Nc1ccc2c(c1)CN(c1ccccc1)C2)c1ccc2c(c1)C1(CCOCC1)C(=O)N2

>  <inchikey>  (733) 
BVVQKFQQPXZFHT-UHFFFAOYSA-N

>  <distance_score>  (733) 
1.591776

>  <ref_mols>  (733) 
Z5011a,Z4429a

>  <ref_pdb>  (733) 
Z4429a

>  <HIPPO Compound ID>  (733) 
141606

>  <name>  (733) 
P70129

>  <inspiration_score>  (733) 
None

$$$$
P70130
     RDKit          3D

 24 27  0  0  0  0  0  0  0  0999 V2000
   -8.9050    5.4348  -13.0771 O   0  0  0  0  0  0  0  0  0  0  0  0
   -8.1786    4.7397  -13.6554 C   0  0  0  0  0  0  0  0  0  0  0  0
   -7.9669    4.5574  -15.1559 N   0  0  0  0  0  0  0  0  0  0  0  0
   -8.5267    5.2479  -16.2515 C   0  0  0  0  0  0  0  0  0  0  0  0
   -7.6208    5.0504  -17.4192 C   0  0  0  0  0  0  0  0  0  0  0  0
   -8.0890    4.5020  -18.5502 C   0  0  0  0  0  0  0  0  0  0  0  0
   -7.0761    4.2461  -19.5883 C   0  0  0  0  0  0  0  0  0  0  0  0
   -5.8046    4.4819  -19.5119 N   0  0  0  0  0  0  0  0  0  0  0  0
   -5.3716    5.0551  -18.3654 C   0  0  0  0  0  0  0  0  0  0  0  0
   -4.1066    5.3828  -17.9447 C   0  0  0  0  0  0  0  0  0  0  0  0
   -4.2844    5.9058  -16.6640 C   0  0  0  0  0  0  0  0  0  0  0  0
   -5.5666    5.9519  -16.2975 N   0  0  0  0  0  0  0  0  0  0  0  0
   -6.2493    5.3736  -17.3268 N   0  0  0  0  0  0  0  0  0  0  0  0
   -7.1718    3.9033  -12.9946 C   0  0  0  0  0  0  0  0  0  0  0  0
   -7.4556    2.8625  -12.1377 C   0  0  0  0  0  0  0  0  0  0  0  0
   -6.3809    2.0894  -11.7111 C   0  0  0  0  0  0  0  0  0  0  0  0
   -5.0869    2.3818  -12.1655 C   0  0  0  0  0  0  0  0  0  0  0  0
   -3.9524    1.6572  -11.6043 C   0  0  0  0  0  0  0  0  0  0  0  0
   -3.9319    1.3341  -10.2596 N   0  0  0  0  0  0  0  0  0  0  0  0
   -2.8412    0.6277  -10.1343 C   0  0  0  0  0  0  0  0  0  0  0  0
   -2.2275    0.5287  -11.3359 N   0  0  0  0  0  0  0  0  0  0  0  0
   -2.8493    1.2613  -12.2755 N   0  0  0  0  0  0  0  0  0  0  0  0
   -4.8077    3.3942  -13.0199 N   0  0  0  0  0  0  0  0  0  0  0  0
   -5.8527    4.1563  -13.3698 C   0  0  0  0  0  0  0  0  0  0  0  0
  1  2  2  0
  2  3  1  0
  3  4  1  0
  4  5  1  0
  5  6  2  0
  6  7  1  0
  7  8  2  0
  8  9  1  0
  9 10  2  0
 10 11  1  0
 11 12  2  0
 12 13  1  0
  2 14  1  0
 14 15  2  0
 15 16  1  0
 16 17  2  0
 17 18  1  0
 18 19  1  0
 19 20  2  0
 20 21  1  0
 21 22  1  0
 17 23  1  0
 23 24  2  0
 13  5  1  0
 24 14  1  0
 13  9  1  0
 22 18  2  0
M  END
>  <energy_score>  (734) 
-16.971033

>  <alias>  (734) 
None

>  <HIPPO Pose ID>  (734) 
70130

>  <smiles>  (734) 
O=C(NCc1ccnc2ccnn12)c1ccc(-c2nc[nH]n2)nc1

>  <inchikey>  (734) 
GEVQXNRNLZWBKF-UHFFFAOYSA-N

>  <distance_score>  (734) 
1.846507

>  <ref_mols>  (734) 
Z0490a,Z0719a

>  <ref_pdb>  (734) 
Z0719a

>  <HIPPO Compound ID>  (734) 
141692

>  <name>  (734) 
P70130

>  <inspiration_score>  (734) 
None

$$$$
P70131
     RDKit          3D

 27 30  0  0  0  0  0  0  0  0999 V2000
   -6.7121    1.5146  -12.9509 O   0  0  0  0  0  0  0  0  0  0  0  0
   -5.9564    2.3463  -13.2561 C   0  0  0  0  0  0  0  0  0  0  0  0
   -6.1961    3.7285  -13.8831 N   0  0  0  0  0  0  0  0  0  0  0  0
   -7.4110    4.3447  -14.3562 C   0  0  0  0  0  0  0  0  0  0  0  0
   -7.5237    4.4771  -15.8572 C   0  0  0  0  0  0  0  0  0  0  0  0
   -8.7540    4.2881  -16.4650 C   0  0  0  0  0  0  0  0  0  0  0  0
   -8.8198    4.5198  -17.8159 C   0  0  0  0  0  0  0  0  0  0  0  0
   -7.7669    4.9273  -18.5332 N   0  0  0  0  0  0  0  0  0  0  0  0
   -6.6081    5.1086  -17.8784 C   0  0  0  0  0  0  0  0  0  0  0  0
   -5.4411    5.6115  -18.6348 C   0  0  0  0  0  0  0  0  0  0  0  0
   -4.1577    5.1154  -18.3835 C   0  0  0  0  0  0  0  0  0  0  0  0
   -3.0665    5.6373  -19.0760 C   0  0  0  0  0  0  0  0  0  0  0  0
   -3.2772    6.6439  -20.0081 C   0  0  0  0  0  0  0  0  0  0  0  0
   -4.5737    7.0891  -20.2050 C   0  0  0  0  0  0  0  0  0  0  0  0
   -5.6430    6.6196  -19.5311 N   0  0  0  0  0  0  0  0  0  0  0  0
   -6.4388    4.9020  -16.5474 N   0  0  0  0  0  0  0  0  0  0  0  0
   -4.5289    2.1179  -12.9148 C   0  0  0  0  0  0  0  0  0  0  0  0
   -4.2025    1.5937  -11.6634 C   0  0  0  0  0  0  0  0  0  0  0  0
   -2.8790    1.2543  -11.3847 C   0  0  0  0  0  0  0  0  0  0  0  0
   -1.9151    1.4366  -12.3741 C   0  0  0  0  0  0  0  0  0  0  0  0
   -0.5214    1.0527  -12.1097 C   0  0  0  0  0  0  0  0  0  0  0  0
    0.0143    1.1215  -10.8342 N   0  0  0  0  0  0  0  0  0  0  0  0
    1.2512    0.7251  -10.9892 C   0  0  0  0  0  0  0  0  0  0  0  0
    1.4668    0.4330  -12.2937 N   0  0  0  0  0  0  0  0  0  0  0  0
    0.3577    0.6011  -13.0342 N   0  0  0  0  0  0  0  0  0  0  0  0
   -2.2078    1.9655  -13.5966 N   0  0  0  0  0  0  0  0  0  0  0  0
   -3.5063    2.2896  -13.8348 C   0  0  0  0  0  0  0  0  0  0  0  0
  1  2  2  0
  2  3  1  0
  3  4  1  0
  4  5  1  0
  5  6  2  0
  6  7  1  0
  7  8  2  0
  8  9  1  0
  9 10  1  0
 10 11  2  0
 11 12  1  0
 12 13  2  0
 13 14  1  0
 14 15  2  0
  9 16  2  0
  2 17  1  0
 17 18  2  0
 18 19  1  0
 19 20  2  0
 20 21  1  0
 21 22  1  0
 22 23  2  0
 23 24  1  0
 24 25  1  0
 20 26  1  0
 26 27  2  0
 16  5  1  0
 27 17  1  0
 15 10  1  0
 25 21  2  0
M  END
>  <energy_score>  (735) 
-3.369034

>  <alias>  (735) 
None

>  <HIPPO Pose ID>  (735) 
70131

>  <smiles>  (735) 
O=C(NCc1ccnc(-c2ccccn2)n1)c1ccc(-c2nc[nH]n2)nc1

>  <inchikey>  (735) 
YAALBKJOEABSOX-UHFFFAOYSA-N

>  <distance_score>  (735) 
1.003594

>  <ref_mols>  (735) 
Z0490a,Z0719a

>  <ref_pdb>  (735) 
Z0719a

>  <HIPPO Compound ID>  (735) 
141729

>  <name>  (735) 
P70131

>  <inspiration_score>  (735) 
None

$$$$
P70132
     RDKit          3D

 27 30  0  0  0  0  0  0  0  0999 V2000
   -5.6948    1.8708  -12.8810 O   0  0  0  0  0  0  0  0  0  0  0  0
   -4.7759    2.4715  -12.4965 C   0  0  0  0  0  0  0  0  0  0  0  0
   -4.4478    3.9719  -12.6055 N   0  0  0  0  0  0  0  0  0  0  0  0
   -5.2263    5.0627  -13.1273 C   0  0  0  0  0  0  0  0  0  0  0  0
   -5.4164    4.9586  -14.6199 C   0  0  0  0  0  0  0  0  0  0  0  0
   -4.3869    4.8661  -15.4695 C   0  0  0  0  0  0  0  0  0  0  0  0
   -4.6587    4.7629  -16.9163 C   0  0  0  0  0  0  0  0  0  0  0  0
   -3.6926    4.7315  -17.6800 O   0  0  0  0  0  0  0  0  0  0  0  0
   -5.9990    4.7082  -17.2691 N   0  0  0  0  0  0  0  0  0  0  0  0
   -6.3823    4.5157  -18.5889 C   0  0  0  0  0  0  0  0  0  0  0  0
   -7.6774    4.4144  -18.9216 C   0  0  0  0  0  0  0  0  0  0  0  0
   -8.7017    4.5856  -17.9278 C   0  0  0  0  0  0  0  0  0  0  0  0
  -10.4831    4.6868  -18.3753 Br  0  0  0  0  0  0  0  0  0  0  0  0
   -8.3754    4.7413  -16.6502 C   0  0  0  0  0  0  0  0  0  0  0  0
   -6.9605    4.8058  -16.2812 C   0  0  0  0  0  0  0  0  0  0  0  0
   -6.7151    4.9810  -15.0254 N   0  0  0  0  0  0  0  0  0  0  0  0
   -3.7125    1.8156  -11.7115 C   0  0  0  0  0  0  0  0  0  0  0  0
   -2.4394    1.6426  -12.2474 C   0  0  0  0  0  0  0  0  0  0  0  0
   -1.4208    1.1878  -11.4122 C   0  0  0  0  0  0  0  0  0  0  0  0
   -1.6997    0.9517  -10.0624 C   0  0  0  0  0  0  0  0  0  0  0  0
   -0.6070    0.5778   -9.1472 C   0  0  0  0  0  0  0  0  0  0  0  0
    0.7033    0.4335   -9.5903 N   0  0  0  0  0  0  0  0  0  0  0  0
    1.3704    0.1406   -8.5012 C   0  0  0  0  0  0  0  0  0  0  0  0
    0.5213    0.1193   -7.4456 N   0  0  0  0  0  0  0  0  0  0  0  0
   -0.7301    0.4108   -7.8148 N   0  0  0  0  0  0  0  0  0  0  0  0
   -2.9452    1.1211   -9.5360 N   0  0  0  0  0  0  0  0  0  0  0  0
   -3.9324    1.5198  -10.3764 C   0  0  0  0  0  0  0  0  0  0  0  0
  1  2  2  0
  2  3  1  0
  3  4  1  0
  4  5  1  0
  5  6  2  0
  6  7  1  0
  7  8  2  0
  7  9  1  0
  9 10  1  0
 10 11  2  0
 11 12  1  0
 12 13  1  0
 12 14  2  0
 14 15  1  0
 15 16  2  0
  2 17  1  0
 17 18  2  0
 18 19  1  0
 19 20  2  0
 20 21  1  0
 21 22  1  0
 22 23  2  0
 23 24  1  0
 24 25  1  0
 20 26  1  0
 26 27  2  0
 16  5  1  0
 27 17  1  0
 15  9  1  0
 25 21  2  0
M  END
>  <energy_score>  (736) 
-18.914346

>  <alias>  (736) 
None

>  <HIPPO Pose ID>  (736) 
70132

>  <smiles>  (736) 
O=C(NCc1cc(=O)n2ccc(Br)cc2n1)c1ccc(-c2nc[nH]n2)nc1

>  <inchikey>  (736) 
WXBZFSFYWVHKCD-UHFFFAOYSA-N

>  <distance_score>  (736) 
1.790625

>  <ref_mols>  (736) 
Z0490a,Z0719a

>  <ref_pdb>  (736) 
Z0719a

>  <HIPPO Compound ID>  (736) 
141731

>  <name>  (736) 
P70132

>  <inspiration_score>  (736) 
None

$$$$
P70133
     RDKit          3D

 28 31  0  0  0  0  0  0  0  0999 V2000
   -2.8298    4.6909  -17.3757 C   0  0  0  0  0  0  0  0  0  0  0  0
   -3.7106    5.6587  -18.0117 N   0  0  0  0  0  0  0  0  0  0  0  0
   -4.3684    6.4620  -16.9637 C   0  0  0  0  0  0  0  0  0  0  0  0
   -5.5166    7.3413  -17.4910 C   0  0  0  0  0  0  0  0  0  0  0  0
   -6.4731    6.5895  -18.3107 N   0  0  0  0  0  0  0  0  0  0  0  0
   -7.3042    5.7151  -17.6114 C   0  0  0  0  0  0  0  0  0  0  0  0
   -8.2580    5.0867  -18.3012 N   0  0  0  0  0  0  0  0  0  0  0  0
   -9.1410    4.3578  -17.6216 C   0  0  0  0  0  0  0  0  0  0  0  0
   -9.0576    4.1833  -16.2689 C   0  0  0  0  0  0  0  0  0  0  0  0
   -8.0031    4.7799  -15.6218 C   0  0  0  0  0  0  0  0  0  0  0  0
   -7.8053    4.6184  -14.1347 C   0  0  0  0  0  0  0  0  0  0  0  0
   -6.5594    3.9757  -13.7864 N   0  0  0  0  0  0  0  0  0  0  0  0
   -6.2808    2.5621  -13.2453 C   0  0  0  0  0  0  0  0  0  0  0  0
   -7.0032    1.6658  -13.0671 O   0  0  0  0  0  0  0  0  0  0  0  0
   -4.8492    2.3449  -12.9198 C   0  0  0  0  0  0  0  0  0  0  0  0
   -4.4945    1.7087  -11.7309 C   0  0  0  0  0  0  0  0  0  0  0  0
   -3.1617    1.3532  -11.5146 C   0  0  0  0  0  0  0  0  0  0  0  0
   -2.2240    1.6263  -12.5083 C   0  0  0  0  0  0  0  0  0  0  0  0
   -0.8392    1.1646  -12.3486 C   0  0  0  0  0  0  0  0  0  0  0  0
   -0.1805    1.2199  -11.1334 N   0  0  0  0  0  0  0  0  0  0  0  0
    0.9902    0.6897  -11.3878 C   0  0  0  0  0  0  0  0  0  0  0  0
    1.0509    0.3333  -12.6942 N   0  0  0  0  0  0  0  0  0  0  0  0
   -0.0960    0.6159  -13.3345 N   0  0  0  0  0  0  0  0  0  0  0  0
   -2.5435    2.2745  -13.6669 N   0  0  0  0  0  0  0  0  0  0  0  0
   -3.8469    2.6110  -13.8388 C   0  0  0  0  0  0  0  0  0  0  0  0
   -7.1518    5.5874  -16.2812 N   0  0  0  0  0  0  0  0  0  0  0  0
   -5.8122    5.8656  -19.4103 C   0  0  0  0  0  0  0  0  0  0  0  0
   -4.7030    4.9474  -18.8525 C   0  0  0  0  0  0  0  0  0  0  0  0
  1  2  1  0
  2  3  1  0
  3  4  1  0
  4  5  1  0
  5  6  1  0
  6  7  2  0
  7  8  1  0
  8  9  2  0
  9 10  1  0
 10 11  1  0
 11 12  1  0
 12 13  1  0
 13 14  2  0
 13 15  1  0
 15 16  2  0
 16 17  1  0
 17 18  2  0
 18 19  1  0
 19 20  1  0
 20 21  2  0
 21 22  1  0
 22 23  1  0
 18 24  1  0
 24 25  2  0
 10 26  2  0
  5 27  1  0
 27 28  1  0
 28  2  1  0
 26  6  1  0
 25 15  1  0
 23 19  2  0
M  END
>  <energy_score>  (737) 
-36.883427

>  <alias>  (737) 
None

>  <HIPPO Pose ID>  (737) 
70133

>  <smiles>  (737) 
CN1CCN(c2nccc(CNC(=O)c3ccc(-c4nc[nH]n4)nc3)n2)CC1

>  <inchikey>  (737) 
QOAHBSKAOKNTOH-UHFFFAOYSA-N

>  <distance_score>  (737) 
1.721982

>  <ref_mols>  (737) 
Z0490a,Z0719a

>  <ref_pdb>  (737) 
Z0719a

>  <HIPPO Compound ID>  (737) 
141736

>  <name>  (737) 
P70133

>  <inspiration_score>  (737) 
None

$$$$
P70134
     RDKit          3D

 28 31  0  0  0  0  0  0  0  0999 V2000
   -6.1454    3.8559  -11.6372 O   0  0  0  0  0  0  0  0  0  0  0  0
   -5.6828    3.7073  -12.6940 C   0  0  0  0  0  0  0  0  0  0  0  0
   -6.2361    4.0613  -14.0811 N   0  0  0  0  0  0  0  0  0  0  0  0
   -7.5147    4.5863  -14.4690 C   0  0  0  0  0  0  0  0  0  0  0  0
   -7.6198    4.6949  -15.9713 C   0  0  0  0  0  0  0  0  0  0  0  0
   -8.7485    4.3167  -16.5850 C   0  0  0  0  0  0  0  0  0  0  0  0
   -8.8564    4.5003  -18.0348 C   0  0  0  0  0  0  0  0  0  0  0  0
   -9.8261    4.0680  -18.6393 O   0  0  0  0  0  0  0  0  0  0  0  0
   -7.8166    5.1599  -18.6082 N   0  0  0  0  0  0  0  0  0  0  0  0
   -6.6704    5.4551  -17.9128 C   0  0  0  0  0  0  0  0  0  0  0  0
   -5.5765    6.0765  -18.7086 C   0  0  0  0  0  0  0  0  0  0  0  0
   -4.2694    6.0582  -18.2354 C   0  0  0  0  0  0  0  0  0  0  0  0
   -3.2817    6.6694  -19.0029 C   0  0  0  0  0  0  0  0  0  0  0  0
   -3.6314    7.2714  -20.2075 C   0  0  0  0  0  0  0  0  0  0  0  0
   -4.9625    7.2443  -20.5946 C   0  0  0  0  0  0  0  0  0  0  0  0
   -5.9451    6.6774  -19.8653 N   0  0  0  0  0  0  0  0  0  0  0  0
   -6.5336    5.2235  -16.6404 N   0  0  0  0  0  0  0  0  0  0  0  0
   -4.3313    3.1149  -12.7869 C   0  0  0  0  0  0  0  0  0  0  0  0
   -4.0296    1.9271  -12.1268 C   0  0  0  0  0  0  0  0  0  0  0  0
   -2.7267    1.4294  -12.1836 C   0  0  0  0  0  0  0  0  0  0  0  0
   -1.7595    2.1530  -12.8796 C   0  0  0  0  0  0  0  0  0  0  0  0
   -0.3650    1.6939  -12.9119 C   0  0  0  0  0  0  0  0  0  0  0  0
    0.7055    2.5707  -12.9036 N   0  0  0  0  0  0  0  0  0  0  0  0
    1.7535    1.7891  -12.8341 C   0  0  0  0  0  0  0  0  0  0  0  0
    1.3477    0.4967  -12.8273 N   0  0  0  0  0  0  0  0  0  0  0  0
    0.0133    0.3984  -12.9498 N   0  0  0  0  0  0  0  0  0  0  0  0
   -2.0398    3.3201  -13.5280 N   0  0  0  0  0  0  0  0  0  0  0  0
   -3.3139    3.7751  -13.4576 C   0  0  0  0  0  0  0  0  0  0  0  0
  1  2  2  0
  2  3  1  0
  3  4  1  0
  4  5  1  0
  5  6  2  0
  6  7  1  0
  7  8  2  0
  7  9  1  0
  9 10  1  0
 10 11  1  0
 11 12  2  0
 12 13  1  0
 13 14  2  0
 14 15  1  0
 15 16  2  0
 10 17  2  0
  2 18  1  0
 18 19  2  0
 19 20  1  0
 20 21  2  0
 21 22  1  0
 22 23  1  0
 23 24  2  0
 24 25  1  0
 25 26  1  0
 21 27  1  0
 27 28  2  0
 17  5  1  0
 28 18  1  0
 16 11  1  0
 26 22  2  0
M  END
>  <energy_score>  (738) 
-20.261459

>  <alias>  (738) 
None

>  <HIPPO Pose ID>  (738) 
70134

>  <smiles>  (738) 
O=C(NCc1cc(=O)[nH]c(-c2ccccn2)n1)c1ccc(-c2nc[nH]n2)nc1

>  <inchikey>  (738) 
NQVUHUDXDHKSGP-UHFFFAOYSA-N

>  <distance_score>  (738) 
1.207039

>  <ref_mols>  (738) 
Z0490a,Z0719a

>  <ref_pdb>  (738) 
Z0719a

>  <HIPPO Compound ID>  (738) 
141739

>  <name>  (738) 
P70134

>  <inspiration_score>  (738) 
None

$$$$
P70136
     RDKit          3D

 26 29  0  0  0  0  0  0  0  0999 V2000
  -10.7659    2.4459   -5.3695 C   0  0  0  0  0  0  0  0  0  0  0  0
   -9.8844    1.7394   -6.3745 C   0  0  0  0  0  0  0  0  0  0  0  0
   -9.4372    2.5858   -7.4453 N   0  0  0  0  0  0  0  0  0  0  0  0
   -9.0804    1.9813   -8.7119 C   0  0  0  0  0  0  0  0  0  0  0  0
   -8.5482    3.1429   -9.4641 C   0  0  0  0  0  0  0  0  0  0  0  0
   -8.2456    3.2543  -10.8006 C   0  0  0  0  0  0  0  0  0  0  0  0
   -7.7728    4.4888  -11.2531 C   0  0  0  0  0  0  0  0  0  0  0  0
   -7.5233    4.6095  -12.6065 N   0  0  0  0  0  0  0  0  0  0  0  0
   -6.8541    5.7462  -13.4038 C   0  0  0  0  0  0  0  0  0  0  0  0
   -6.4770    6.7928  -13.0561 O   0  0  0  0  0  0  0  0  0  0  0  0
   -6.8178    5.3730  -14.8284 C   0  0  0  0  0  0  0  0  0  0  0  0
   -5.6313    5.5059  -15.5416 C   0  0  0  0  0  0  0  0  0  0  0  0
   -5.5966    5.1393  -16.8799 C   0  0  0  0  0  0  0  0  0  0  0  0
   -4.1693    5.2963  -17.8089 Cl  0  0  0  0  0  0  0  0  0  0  0  0
   -6.7653    4.6478  -17.4571 C   0  0  0  0  0  0  0  0  0  0  0  0
   -6.9999    4.2074  -18.7292 N   0  0  0  0  0  0  0  0  0  0  0  0
   -8.3034    3.8227  -18.8476 C   0  0  0  0  0  0  0  0  0  0  0  0
   -8.9597    4.1185  -17.6886 C   0  0  0  0  0  0  0  0  0  0  0  0
  -10.4080    4.0724  -17.4773 C   0  0  0  0  0  0  0  0  0  0  0  0
   -7.9682    4.5380  -16.7653 C   0  0  0  0  0  0  0  0  0  0  0  0
   -8.0040    4.9146  -15.4205 C   0  0  0  0  0  0  0  0  0  0  0  0
   -7.6048    5.5785  -10.3815 C   0  0  0  0  0  0  0  0  0  0  0  0
   -7.9155    5.4535   -9.0303 C   0  0  0  0  0  0  0  0  0  0  0  0
   -8.3854    4.2285   -8.6085 C   0  0  0  0  0  0  0  0  0  0  0  0
   -8.8654    3.8363   -7.2844 C   0  0  0  0  0  0  0  0  0  0  0  0
   -8.7674    4.5425   -6.2980 O   0  0  0  0  0  0  0  0  0  0  0  0
  1  2  1  0
  2  3  1  0
  3  4  1  0
  4  5  1  0
  5  6  2  0
  6  7  1  0
  7  8  1  0
  8  9  1  0
  9 10  2  0
  9 11  1  0
 11 12  2  0
 12 13  1  0
 13 14  1  0
 13 15  2  0
 15 16  1  0
 16 17  1  0
 17 18  2  0
 18 19  1  0
 18 20  1  0
 20 21  2  0
  7 22  2  0
 22 23  1  0
 23 24  2  0
 24 25  1  0
 25 26  2  0
 25  3  1  0
 24  5  1  0
 21 11  1  0
 20 15  1  0
M  END
>  <energy_score>  (739) 
-21.743029

>  <alias>  (739) 
None

>  <HIPPO Pose ID>  (739) 
70136

>  <smiles>  (739) 
CCN1Cc2cc(NC(=O)c3cc(Cl)c4[nH]cc(C)c4c3)ccc2C1=O

>  <inchikey>  (739) 
XYWHNEFAJWHZHV-UHFFFAOYSA-N

>  <distance_score>  (739) 
1.364206

>  <ref_mols>  (739) 
Z0553a,Z4959a

>  <ref_pdb>  (739) 
Z4959a

>  <HIPPO Compound ID>  (739) 
141759

>  <name>  (739) 
P70136

>  <inspiration_score>  (739) 
None

$$$$
P70137
     RDKit          3D

 28 31  0  0  0  0  0  0  0  0999 V2000
  -11.2632    2.0564   -5.3416 C   0  0  0  0  0  0  0  0  0  0  0  0
  -10.7590    3.4014   -4.8682 C   0  0  0  0  0  0  0  0  0  0  0  0
   -9.2728    3.4639   -4.6034 C   0  0  0  0  0  0  0  0  0  0  0  0
   -8.4642    2.8582   -5.7363 C   0  0  0  0  0  0  0  0  0  0  0  0
   -8.6847    3.5197   -6.9898 N   0  0  0  0  0  0  0  0  0  0  0  0
   -8.8269    2.7740   -8.2431 C   0  0  0  0  0  0  0  0  0  0  0  0
   -8.4792    3.8145   -9.2515 C   0  0  0  0  0  0  0  0  0  0  0  0
   -8.3497    3.7328  -10.6216 C   0  0  0  0  0  0  0  0  0  0  0  0
   -7.9035    4.8835  -11.2848 C   0  0  0  0  0  0  0  0  0  0  0  0
   -7.6379    4.8254  -12.6369 N   0  0  0  0  0  0  0  0  0  0  0  0
   -6.9945    5.8665  -13.5779 C   0  0  0  0  0  0  0  0  0  0  0  0
   -6.6584    6.9651  -13.3738 O   0  0  0  0  0  0  0  0  0  0  0  0
   -6.9155    5.3411  -14.9407 C   0  0  0  0  0  0  0  0  0  0  0  0
   -5.7212    5.4580  -15.6455 C   0  0  0  0  0  0  0  0  0  0  0  0
   -5.6739    5.0623  -16.9728 C   0  0  0  0  0  0  0  0  0  0  0  0
   -4.2444    5.2290  -17.8965 Cl  0  0  0  0  0  0  0  0  0  0  0  0
   -6.8424    4.5670  -17.5443 C   0  0  0  0  0  0  0  0  0  0  0  0
   -7.0820    4.1240  -18.8130 N   0  0  0  0  0  0  0  0  0  0  0  0
   -8.3938    3.7681  -18.9312 C   0  0  0  0  0  0  0  0  0  0  0  0
   -9.0471    4.0705  -17.7743 C   0  0  0  0  0  0  0  0  0  0  0  0
  -10.4962    4.0717  -17.5599 C   0  0  0  0  0  0  0  0  0  0  0  0
   -8.0475    4.4662  -16.8529 C   0  0  0  0  0  0  0  0  0  0  0  0
   -8.0925    4.8545  -15.5148 C   0  0  0  0  0  0  0  0  0  0  0  0
   -7.6737    6.0942  -10.6073 C   0  0  0  0  0  0  0  0  0  0  0  0
   -7.8239    6.1738   -9.2381 C   0  0  0  0  0  0  0  0  0  0  0  0
   -8.2009    5.0182   -8.6023 C   0  0  0  0  0  0  0  0  0  0  0  0
   -8.2662    4.8152   -7.1705 C   0  0  0  0  0  0  0  0  0  0  0  0
   -7.9291    5.6460   -6.3469 O   0  0  0  0  0  0  0  0  0  0  0  0
  1  2  1  0
  2  3  1  0
  3  4  1  0
  4  5  1  0
  5  6  1  0
  6  7  1  0
  7  8  2  0
  8  9  1  0
  9 10  1  0
 10 11  1  0
 11 12  2  0
 11 13  1  0
 13 14  2  0
 14 15  1  0
 15 16  1  0
 15 17  2  0
 17 18  1  0
 18 19  1  0
 19 20  2  0
 20 21  1  0
 20 22  1  0
 22 23  2  0
  9 24  2  0
 24 25  1  0
 25 26  2  0
 26 27  1  0
 27 28  2  0
 27  5  1  0
 26  7  1  0
 23 13  1  0
 22 17  1  0
M  END
>  <energy_score>  (740) 
-18.297371

>  <alias>  (740) 
None

>  <HIPPO Pose ID>  (740) 
70137

>  <smiles>  (740) 
CCCCN1Cc2cc(NC(=O)c3cc(Cl)c4[nH]cc(C)c4c3)ccc2C1=O

>  <inchikey>  (740) 
YOPDOFBBDNJSKZ-UHFFFAOYSA-N

>  <distance_score>  (740) 
1.351278

>  <ref_mols>  (740) 
Z0553a,Z4959a

>  <ref_pdb>  (740) 
Z4959a

>  <HIPPO Compound ID>  (740) 
141760

>  <name>  (740) 
P70137

>  <inspiration_score>  (740) 
None

$$$$
P70138
     RDKit          3D

 24 26  0  0  0  0  0  0  0  0999 V2000
   -9.2922    4.0536  -18.4129 C   0  0  0  0  0  0  0  0  0  0  0  0
   -8.0569    4.6720  -17.8074 C   0  0  0  0  0  0  0  0  0  0  0  0
   -7.4610    5.5845  -18.7562 O   0  0  0  0  0  0  0  0  0  0  0  0
   -6.2060    6.1062  -18.5712 C   0  0  0  0  0  0  0  0  0  0  0  0
   -5.6487    6.7829  -19.4293 O   0  0  0  0  0  0  0  0  0  0  0  0
   -5.6023    5.8606  -17.2671 C   0  0  0  0  0  0  0  0  0  0  0  0
   -6.3679    6.0681  -16.1368 N   0  0  0  0  0  0  0  0  0  0  0  0
   -5.7607    5.5972  -15.0924 C   0  0  0  0  0  0  0  0  0  0  0  0
   -6.3524    5.4896  -13.8931 N   0  0  0  0  0  0  0  0  0  0  0  0
   -7.7817    5.8555  -13.4459 C   0  0  0  0  0  0  0  0  0  0  0  0
   -8.6447    6.3782  -14.0280 O   0  0  0  0  0  0  0  0  0  0  0  0
   -7.9116    5.4799  -12.0262 C   0  0  0  0  0  0  0  0  0  0  0  0
   -7.7397    6.4874  -10.9922 C   0  0  0  0  0  0  0  0  0  0  0  0
   -7.8761    6.1121   -9.7106 C   0  0  0  0  0  0  0  0  0  0  0  0
   -8.1848    4.7840   -9.4264 N   0  0  0  0  0  0  0  0  0  0  0  0
   -8.3688    4.1766   -8.2159 C   0  0  0  0  0  0  0  0  0  0  0  0
   -8.6956    2.8683   -8.5058 C   0  0  0  0  0  0  0  0  0  0  0  0
   -9.0375    1.7773   -7.5715 C   0  0  0  0  0  0  0  0  0  0  0  0
   -8.6835    2.6572   -9.8633 N   0  0  0  0  0  0  0  0  0  0  0  0
   -8.3729    3.8104  -10.3995 C   0  0  0  0  0  0  0  0  0  0  0  0
   -8.2221    4.1980  -11.7555 C   0  0  0  0  0  0  0  0  0  0  0  0
   -4.1759    5.0501  -15.3127 S   0  0  0  0  0  0  0  0  0  0  0  0
   -4.3288    5.4117  -16.9852 C   0  0  0  0  0  0  0  0  0  0  0  0
   -2.8169    5.0686  -18.3641 I   0  0  0  0  0  0  0  0  0  0  0  0
  1  2  1  0
  2  3  1  0
  3  4  1  0
  4  5  2  0
  4  6  1  0
  6  7  1  0
  7  8  2  0
  8  9  1  0
  9 10  1  0
 10 11  2  0
 10 12  1  0
 12 13  1  0
 13 14  2  0
 14 15  1  0
 15 16  1  0
 16 17  2  0
 17 18  1  0
 17 19  1  0
 19 20  2  0
 20 21  1  0
  8 22  1  0
 22 23  1  0
 23 24  1  0
 23  6  2  0
 21 12  2  0
 20 15  1  0
M  END
>  <energy_score>  (741) 
-85.057276

>  <alias>  (741) 
None

>  <HIPPO Pose ID>  (741) 
70138

>  <smiles>  (741) 
CCOC(=O)c1nc(NC(=O)c2ccn3cc(C)nc3c2)sc1I

>  <inchikey>  (741) 
NKIMHZMGLDNBPF-UHFFFAOYSA-N

>  <distance_score>  (741) 
0.976194

>  <ref_mols>  (741) 
Z1495a,Z0673a

>  <ref_pdb>  (741) 
Z0673a

>  <HIPPO Compound ID>  (741) 
141815

>  <name>  (741) 
P70138

>  <inspiration_score>  (741) 
None

$$$$
P70139
     RDKit          3D

 24 26  0  0  0  0  0  0  0  0999 V2000
   -9.2999    4.0744  -18.3802 C   0  0  0  0  0  0  0  0  0  0  0  0
   -8.0371    4.6538  -17.7924 C   0  0  0  0  0  0  0  0  0  0  0  0
   -7.3388    5.4213  -18.7982 O   0  0  0  0  0  0  0  0  0  0  0  0
   -6.0335    5.8135  -18.6343 C   0  0  0  0  0  0  0  0  0  0  0  0
   -5.3788    6.2923  -19.5537 O   0  0  0  0  0  0  0  0  0  0  0  0
   -5.4790    5.6562  -17.2974 C   0  0  0  0  0  0  0  0  0  0  0  0
   -6.2509    5.9528  -16.1891 N   0  0  0  0  0  0  0  0  0  0  0  0
   -5.6853    5.4736  -15.1231 C   0  0  0  0  0  0  0  0  0  0  0  0
   -6.3173    5.3507  -13.9445 N   0  0  0  0  0  0  0  0  0  0  0  0
   -7.7548    5.7320  -13.5343 C   0  0  0  0  0  0  0  0  0  0  0  0
   -8.6393    6.1410  -14.1730 O   0  0  0  0  0  0  0  0  0  0  0  0
   -7.9016    5.4147  -12.1007 C   0  0  0  0  0  0  0  0  0  0  0  0
   -7.7019    6.4421  -11.0919 C   0  0  0  0  0  0  0  0  0  0  0  0
   -7.8406    6.0994   -9.8003 C   0  0  0  0  0  0  0  0  0  0  0  0
   -8.1755    4.7845   -9.4819 N   0  0  0  0  0  0  0  0  0  0  0  0
   -8.3574    4.2046   -8.2566 C   0  0  0  0  0  0  0  0  0  0  0  0
   -8.7062    2.8948   -8.5155 C   0  0  0  0  0  0  0  0  0  0  0  0
   -9.0470    1.8224   -7.5580 C   0  0  0  0  0  0  0  0  0  0  0  0
   -8.7194    2.6588   -9.8686 N   0  0  0  0  0  0  0  0  0  0  0  0
   -8.3921    3.7944  -10.4314 C   0  0  0  0  0  0  0  0  0  0  0  0
   -8.2419    4.1478  -11.7962 C   0  0  0  0  0  0  0  0  0  0  0  0
   -4.1035    4.8930  -15.2924 S   0  0  0  0  0  0  0  0  0  0  0  0
   -4.2238    5.1929  -16.9741 C   0  0  0  0  0  0  0  0  0  0  0  0
   -2.9288    4.7866  -18.0140 Cl  0  0  0  0  0  0  0  0  0  0  0  0
  1  2  1  0
  2  3  1  0
  3  4  1  0
  4  5  2  0
  4  6  1  0
  6  7  1  0
  7  8  2  0
  8  9  1  0
  9 10  1  0
 10 11  2  0
 10 12  1  0
 12 13  1  0
 13 14  2  0
 14 15  1  0
 15 16  1  0
 16 17  2  0
 17 18  1  0
 17 19  1  0
 19 20  2  0
 20 21  1  0
  8 22  1  0
 22 23  1  0
 23 24  1  0
 23  6  2  0
 21 12  2  0
 20 15  1  0
M  END
>  <energy_score>  (742) 
-83.914222

>  <alias>  (742) 
None

>  <HIPPO Pose ID>  (742) 
70139

>  <smiles>  (742) 
CCOC(=O)c1nc(NC(=O)c2ccn3cc(C)nc3c2)sc1Cl

>  <inchikey>  (742) 
HNUMYAVXVMGJLT-UHFFFAOYSA-N

>  <distance_score>  (742) 
0.952829

>  <ref_mols>  (742) 
Z1495a,Z0673a

>  <ref_pdb>  (742) 
Z0673a

>  <HIPPO Compound ID>  (742) 
141816

>  <name>  (742) 
P70139

>  <inspiration_score>  (742) 
None

$$$$
P70142
     RDKit          3D

 24 26  0  0  0  0  0  0  0  0999 V2000
   -9.1496    4.1179  -18.2117 C   0  0  0  0  0  0  0  0  0  0  0  0
   -7.8538    4.7319  -17.7276 C   0  0  0  0  0  0  0  0  0  0  0  0
   -7.2364    5.4822  -18.7967 O   0  0  0  0  0  0  0  0  0  0  0  0
   -5.9149    5.8542  -18.7504 C   0  0  0  0  0  0  0  0  0  0  0  0
   -5.3209    6.2621  -19.7431 O   0  0  0  0  0  0  0  0  0  0  0  0
   -5.2480    5.7402  -17.4515 C   0  0  0  0  0  0  0  0  0  0  0  0
   -5.9308    6.0695  -16.2946 N   0  0  0  0  0  0  0  0  0  0  0  0
   -5.2956    5.6116  -15.2590 C   0  0  0  0  0  0  0  0  0  0  0  0
   -5.8591    5.5017  -14.0401 N   0  0  0  0  0  0  0  0  0  0  0  0
   -7.1989    6.0475  -13.5031 C   0  0  0  0  0  0  0  0  0  0  0  0
   -7.9883    6.7416  -14.0065 O   0  0  0  0  0  0  0  0  0  0  0  0
   -7.4442    5.4484  -12.1702 C   0  0  0  0  0  0  0  0  0  0  0  0
   -7.0968    6.1132  -10.9266 C   0  0  0  0  0  0  0  0  0  0  0  0
   -7.3985    5.5014   -9.7644 C   0  0  0  0  0  0  0  0  0  0  0  0
   -8.0540    4.2647   -9.7859 N   0  0  0  0  0  0  0  0  0  0  0  0
   -8.4497    3.4284   -8.7639 C   0  0  0  0  0  0  0  0  0  0  0  0
   -8.1891    3.6011   -7.3257 C   0  0  0  0  0  0  0  0  0  0  0  0
   -9.1302    2.4140   -9.3886 C   0  0  0  0  0  0  0  0  0  0  0  0
   -9.1306    2.5636  -10.7453 N   0  0  0  0  0  0  0  0  0  0  0  0
   -8.4483    3.6533  -10.9709 C   0  0  0  0  0  0  0  0  0  0  0  0
   -8.1051    4.2760  -12.1952 C   0  0  0  0  0  0  0  0  0  0  0  0
   -3.7398    5.0044  -15.5427 S   0  0  0  0  0  0  0  0  0  0  0  0
   -3.9475    5.3066  -17.2294 C   0  0  0  0  0  0  0  0  0  0  0  0
   -2.8689    4.9920  -18.2022 C   0  0  0  0  0  0  0  0  0  0  0  0
  1  2  1  0
  2  3  1  0
  3  4  1  0
  4  5  2  0
  4  6  1  0
  6  7  1  0
  7  8  2  0
  8  9  1  0
  9 10  1  0
 10 11  2  0
 10 12  1  0
 12 13  1  0
 13 14  2  0
 14 15  1  0
 15 16  1  0
 16 17  1  0
 16 18  2  0
 18 19  1  0
 19 20  2  0
 20 21  1  0
  8 22  1  0
 22 23  1  0
 23 24  1  0
 23  6  2  0
 21 12  2  0
 20 15  1  0
M  END
>  <energy_score>  (743) 
-36.35284

>  <alias>  (743) 
None

>  <HIPPO Pose ID>  (743) 
70142

>  <smiles>  (743) 
CCOC(=O)c1nc(NC(=O)c2ccn3c(C)cnc3c2)sc1C

>  <inchikey>  (743) 
WMXMTXDWMHWLDG-UHFFFAOYSA-N

>  <distance_score>  (743) 
1.629763

>  <ref_mols>  (743) 
Z1495a,Z0673a

>  <ref_pdb>  (743) 
Z0673a

>  <HIPPO Compound ID>  (743) 
141819

>  <name>  (743) 
P70142

>  <inspiration_score>  (743) 
None

$$$$
P70143
     RDKit          3D

 24 26  0  0  0  0  0  0  0  0999 V2000
   -9.1726    4.1212  -18.3403 C   0  0  0  0  0  0  0  0  0  0  0  0
   -7.9274    4.7428  -17.7500 C   0  0  0  0  0  0  0  0  0  0  0  0
   -7.3312    5.6518  -18.7030 O   0  0  0  0  0  0  0  0  0  0  0  0
   -6.0707    6.1638  -18.5169 C   0  0  0  0  0  0  0  0  0  0  0  0
   -5.5007    6.8242  -19.3790 O   0  0  0  0  0  0  0  0  0  0  0  0
   -5.4659    5.9009  -17.2179 C   0  0  0  0  0  0  0  0  0  0  0  0
   -6.1848    6.1719  -16.0670 N   0  0  0  0  0  0  0  0  0  0  0  0
   -5.6211    5.5841  -15.0547 C   0  0  0  0  0  0  0  0  0  0  0  0
   -6.2330    5.3847  -13.8760 N   0  0  0  0  0  0  0  0  0  0  0  0
   -7.5883    5.9007  -13.3516 C   0  0  0  0  0  0  0  0  0  0  0  0
   -8.3501    6.6409  -13.8287 O   0  0  0  0  0  0  0  0  0  0  0  0
   -7.8586    5.1848  -12.0865 C   0  0  0  0  0  0  0  0  0  0  0  0
   -8.2212    3.7851  -12.1342 C   0  0  0  0  0  0  0  0  0  0  0  0
   -8.4546    3.1380  -10.9839 C   0  0  0  0  0  0  0  0  0  0  0  0
   -8.3370    3.8061   -9.7765 N   0  0  0  0  0  0  0  0  0  0  0  0
   -8.4634    3.3616   -8.4800 C   0  0  0  0  0  0  0  0  0  0  0  0
   -8.7396    1.9604   -8.0881 C   0  0  0  0  0  0  0  0  0  0  0  0
   -8.2417    4.4775   -7.7025 C   0  0  0  0  0  0  0  0  0  0  0  0
   -7.9788    5.5840   -8.4660 N   0  0  0  0  0  0  0  0  0  0  0  0
   -8.0229    5.1599   -9.7076 C   0  0  0  0  0  0  0  0  0  0  0  0
   -7.7901    5.8556  -10.9269 C   0  0  0  0  0  0  0  0  0  0  0  0
   -4.0994    4.8892  -15.3215 S   0  0  0  0  0  0  0  0  0  0  0  0
   -4.2389    5.3225  -16.9736 C   0  0  0  0  0  0  0  0  0  0  0  0
   -2.9343    4.8836  -18.2857 Br  0  0  0  0  0  0  0  0  0  0  0  0
  1  2  1  0
  2  3  1  0
  3  4  1  0
  4  5  2  0
  4  6  1  0
  6  7  1  0
  7  8  2  0
  8  9  1  0
  9 10  1  0
 10 11  2  0
 10 12  1  0
 12 13  1  0
 13 14  2  0
 14 15  1  0
 15 16  1  0
 16 17  1  0
 16 18  2  0
 18 19  1  0
 19 20  2  0
 20 21  1  0
  8 22  1  0
 22 23  1  0
 23 24  1  0
 23  6  2  0
 21 12  2  0
 20 15  1  0
M  END
>  <energy_score>  (744) 
-77.370902

>  <alias>  (744) 
None

>  <HIPPO Pose ID>  (744) 
70143

>  <smiles>  (744) 
CCOC(=O)c1nc(NC(=O)c2ccn3c(C)cnc3c2)sc1Br

>  <inchikey>  (744) 
LPLQUEAXSQZZRH-UHFFFAOYSA-N

>  <distance_score>  (744) 
1.495863

>  <ref_mols>  (744) 
Z1495a,Z0673a

>  <ref_pdb>  (744) 
Z0673a

>  <HIPPO Compound ID>  (744) 
141820

>  <name>  (744) 
P70143

>  <inspiration_score>  (744) 
None

$$$$
P70146
     RDKit          3D

 24 26  0  0  0  0  0  0  0  0999 V2000
   -9.8041    3.9042  -18.0763 C   0  0  0  0  0  0  0  0  0  0  0  0
   -8.4385    4.3622  -17.6472 C   0  0  0  0  0  0  0  0  0  0  0  0
   -7.5961    4.4719  -18.8092 O   0  0  0  0  0  0  0  0  0  0  0  0
   -6.2716    4.8339  -18.7527 C   0  0  0  0  0  0  0  0  0  0  0  0
   -5.6032    4.8220  -19.7816 O   0  0  0  0  0  0  0  0  0  0  0  0
   -5.6835    5.1620  -17.4398 C   0  0  0  0  0  0  0  0  0  0  0  0
   -6.4912    5.4793  -16.3584 N   0  0  0  0  0  0  0  0  0  0  0  0
   -5.8216    5.4515  -15.2495 C   0  0  0  0  0  0  0  0  0  0  0  0
   -6.3880    5.4667  -14.0306 N   0  0  0  0  0  0  0  0  0  0  0  0
   -7.8661    5.6280  -13.6141 C   0  0  0  0  0  0  0  0  0  0  0  0
   -8.8127    5.8496  -14.2572 O   0  0  0  0  0  0  0  0  0  0  0  0
   -7.9542    5.3448  -12.1702 C   0  0  0  0  0  0  0  0  0  0  0  0
   -8.2906    4.0852  -11.8311 C   0  0  0  0  0  0  0  0  0  0  0  0
   -8.3923    3.7542  -10.4547 C   0  0  0  0  0  0  0  0  0  0  0  0
   -8.6820    2.6238   -9.8621 N   0  0  0  0  0  0  0  0  0  0  0  0
   -8.5839    2.8724   -8.5192 C   0  0  0  0  0  0  0  0  0  0  0  0
   -8.2652    4.1916   -8.2871 C   0  0  0  0  0  0  0  0  0  0  0  0
   -8.1432    4.7600   -9.5269 N   0  0  0  0  0  0  0  0  0  0  0  0
   -7.8111    6.0655   -9.8789 C   0  0  0  0  0  0  0  0  0  0  0  0
   -7.7127    6.3702  -11.1803 C   0  0  0  0  0  0  0  0  0  0  0  0
   -7.3647    7.6088  -11.5774 F   0  0  0  0  0  0  0  0  0  0  0  0
   -4.1482    5.2934  -15.3902 S   0  0  0  0  0  0  0  0  0  0  0  0
   -4.3417    5.2063  -17.0976 C   0  0  0  0  0  0  0  0  0  0  0  0
   -2.6977    5.1083  -18.3667 I   0  0  0  0  0  0  0  0  0  0  0  0
  1  2  1  0
  2  3  1  0
  3  4  1  0
  4  5  2  0
  4  6  1  0
  6  7  1  0
  7  8  2  0
  8  9  1  0
  9 10  1  0
 10 11  2  0
 10 12  1  0
 12 13  2  0
 13 14  1  0
 14 15  2  0
 15 16  1  0
 16 17  2  0
 17 18  1  0
 18 19  1  0
 19 20  2  0
 20 21  1  0
  8 22  1  0
 22 23  1  0
 23 24  1  0
 23  6  2  0
 20 12  1  0
 18 14  1  0
M  END
>  <energy_score>  (745) 
-55.586459

>  <alias>  (745) 
None

>  <HIPPO Pose ID>  (745) 
70146

>  <smiles>  (745) 
CCOC(=O)c1nc(NC(=O)c2cc3nccn3cc2F)sc1I

>  <inchikey>  (745) 
JXVSWLDVTWGFCE-UHFFFAOYSA-N

>  <distance_score>  (745) 
0.850875

>  <ref_mols>  (745) 
Z1495a,Z0673a

>  <ref_pdb>  (745) 
Z0673a

>  <HIPPO Compound ID>  (745) 
141823

>  <name>  (745) 
P70146

>  <inspiration_score>  (745) 
None

$$$$
P70147
     RDKit          3D

 24 26  0  0  0  0  0  0  0  0999 V2000
   -9.6979    3.9354  -18.1060 C   0  0  0  0  0  0  0  0  0  0  0  0
   -8.3330    4.4014  -17.6760 C   0  0  0  0  0  0  0  0  0  0  0  0
   -7.4898    4.5515  -18.8342 O   0  0  0  0  0  0  0  0  0  0  0  0
   -6.1575    4.8798  -18.7485 C   0  0  0  0  0  0  0  0  0  0  0  0
   -5.4606    4.8851  -19.7579 O   0  0  0  0  0  0  0  0  0  0  0  0
   -5.5944    5.1632  -17.4227 C   0  0  0  0  0  0  0  0  0  0  0  0
   -6.3899    5.5662  -16.3607 N   0  0  0  0  0  0  0  0  0  0  0  0
   -5.7405    5.4519  -15.2427 C   0  0  0  0  0  0  0  0  0  0  0  0
   -6.3214    5.4713  -14.0299 N   0  0  0  0  0  0  0  0  0  0  0  0
   -7.7913    5.7203  -13.6261 C   0  0  0  0  0  0  0  0  0  0  0  0
   -8.7122    6.0232  -14.2737 O   0  0  0  0  0  0  0  0  0  0  0  0
   -7.9157    5.4045  -12.1908 C   0  0  0  0  0  0  0  0  0  0  0  0
   -8.2588    4.1382  -11.8838 C   0  0  0  0  0  0  0  0  0  0  0  0
   -8.3835    3.7785  -10.5161 C   0  0  0  0  0  0  0  0  0  0  0  0
   -8.6842    2.6363   -9.9529 N   0  0  0  0  0  0  0  0  0  0  0  0
   -8.6029    2.8543   -8.6032 C   0  0  0  0  0  0  0  0  0  0  0  0
   -8.2847    4.1673   -8.3374 C   0  0  0  0  0  0  0  0  0  0  0  0
   -8.1469    4.7632   -9.5626 N   0  0  0  0  0  0  0  0  0  0  0  0
   -7.8114    6.0762   -9.8817 C   0  0  0  0  0  0  0  0  0  0  0  0
   -7.6938    6.4088  -11.1748 C   0  0  0  0  0  0  0  0  0  0  0  0
   -7.3430    7.6565  -11.5394 F   0  0  0  0  0  0  0  0  0  0  0  0
   -4.0814    5.1479  -15.3612 S   0  0  0  0  0  0  0  0  0  0  0  0
   -4.2656    5.0612  -17.0618 C   0  0  0  0  0  0  0  0  0  0  0  0
   -2.8910    4.7654  -18.0368 Cl  0  0  0  0  0  0  0  0  0  0  0  0
  1  2  1  0
  2  3  1  0
  3  4  1  0
  4  5  2  0
  4  6  1  0
  6  7  1  0
  7  8  2  0
  8  9  1  0
  9 10  1  0
 10 11  2  0
 10 12  1  0
 12 13  2  0
 13 14  1  0
 14 15  2  0
 15 16  1  0
 16 17  2  0
 17 18  1  0
 18 19  1  0
 19 20  2  0
 20 21  1  0
  8 22  1  0
 22 23  1  0
 23 24  1  0
 23  6  2  0
 20 12  1  0
 18 14  1  0
M  END
>  <energy_score>  (746) 
-49.745498

>  <alias>  (746) 
None

>  <HIPPO Pose ID>  (746) 
70147

>  <smiles>  (746) 
CCOC(=O)c1nc(NC(=O)c2cc3nccn3cc2F)sc1Cl

>  <inchikey>  (746) 
SSRFKSRAHPYDQZ-UHFFFAOYSA-N

>  <distance_score>  (746) 
0.85575

>  <ref_mols>  (746) 
Z1495a,Z0673a

>  <ref_pdb>  (746) 
Z0673a

>  <HIPPO Compound ID>  (746) 
141824

>  <name>  (746) 
P70147

>  <inspiration_score>  (746) 
None

$$$$
P70148
     RDKit          3D

 24 26  0  0  0  0  0  0  0  0999 V2000
   -9.8025    3.9097  -18.0758 C   0  0  0  0  0  0  0  0  0  0  0  0
   -8.4415    4.3779  -17.6428 C   0  0  0  0  0  0  0  0  0  0  0  0
   -7.6141    4.5483  -18.8082 O   0  0  0  0  0  0  0  0  0  0  0  0
   -6.2884    4.9038  -18.7492 C   0  0  0  0  0  0  0  0  0  0  0  0
   -5.6227    4.9218  -19.7794 O   0  0  0  0  0  0  0  0  0  0  0  0
   -5.6985    5.1960  -17.4302 C   0  0  0  0  0  0  0  0  0  0  0  0
   -6.5026    5.5324  -16.3513 N   0  0  0  0  0  0  0  0  0  0  0  0
   -5.8440    5.4429  -15.2384 C   0  0  0  0  0  0  0  0  0  0  0  0
   -6.4183    5.4490  -14.0232 N   0  0  0  0  0  0  0  0  0  0  0  0
   -7.8878    5.6778  -13.6106 C   0  0  0  0  0  0  0  0  0  0  0  0
   -8.8155    5.9727  -14.2514 O   0  0  0  0  0  0  0  0  0  0  0  0
   -7.9861    5.3992  -12.1622 C   0  0  0  0  0  0  0  0  0  0  0  0
   -7.8449    6.4584  -11.1780 C   0  0  0  0  0  0  0  0  0  0  0  0
   -7.9427    6.1361   -9.8765 C   0  0  0  0  0  0  0  0  0  0  0  0
   -8.1754    4.8055   -9.5170 N   0  0  0  0  0  0  0  0  0  0  0  0
   -8.2921    4.2179   -8.2825 C   0  0  0  0  0  0  0  0  0  0  0  0
   -8.1888    5.0411   -6.5756 Br  0  0  0  0  0  0  0  0  0  0  0  0
   -8.4983    2.8798   -8.5181 C   0  0  0  0  0  0  0  0  0  0  0  0
   -8.5336    2.6271   -9.8652 N   0  0  0  0  0  0  0  0  0  0  0  0
   -8.3272    3.7817  -10.4483 C   0  0  0  0  0  0  0  0  0  0  0  0
   -8.2297    4.1189  -11.8228 C   0  0  0  0  0  0  0  0  0  0  0  0
   -4.1760    5.2234  -15.3709 S   0  0  0  0  0  0  0  0  0  0  0  0
   -4.3583    5.1921  -17.0810 C   0  0  0  0  0  0  0  0  0  0  0  0
   -2.7132    5.0796  -18.3463 I   0  0  0  0  0  0  0  0  0  0  0  0
  1  2  1  0
  2  3  1  0
  3  4  1  0
  4  5  2  0
  4  6  1  0
  6  7  1  0
  7  8  2  0
  8  9  1  0
  9 10  1  0
 10 11  2  0
 10 12  1  0
 12 13  1  0
 13 14  2  0
 14 15  1  0
 15 16  1  0
 16 17  1  0
 16 18  2  0
 18 19  1  0
 19 20  2  0
 20 21  1  0
  8 22  1  0
 22 23  1  0
 23 24  1  0
 23  6  2  0
 21 12  2  0
 20 15  1  0
M  END
>  <energy_score>  (747) 
-44.946692

>  <alias>  (747) 
None

>  <HIPPO Pose ID>  (747) 
70148

>  <smiles>  (747) 
CCOC(=O)c1nc(NC(=O)c2ccn3c(Br)cnc3c2)sc1I

>  <inchikey>  (747) 
XEYUQBIQFITQAQ-UHFFFAOYSA-N

>  <distance_score>  (747) 
0.905423

>  <ref_mols>  (747) 
Z1495a,Z0673a

>  <ref_pdb>  (747) 
Z0673a

>  <HIPPO Compound ID>  (747) 
141825

>  <name>  (747) 
P70148

>  <inspiration_score>  (747) 
None

$$$$
P70149
     RDKit          3D

 24 26  0  0  0  0  0  0  0  0999 V2000
   -9.2917    4.0645  -18.3831 C   0  0  0  0  0  0  0  0  0  0  0  0
   -8.0512    4.6672  -17.7720 C   0  0  0  0  0  0  0  0  0  0  0  0
   -7.3981    5.5156  -18.7423 O   0  0  0  0  0  0  0  0  0  0  0  0
   -6.1178    5.9713  -18.5564 C   0  0  0  0  0  0  0  0  0  0  0  0
   -5.4982    6.5508  -19.4421 O   0  0  0  0  0  0  0  0  0  0  0  0
   -5.5531    5.7664  -17.2285 C   0  0  0  0  0  0  0  0  0  0  0  0
   -6.3266    6.0374  -16.1142 N   0  0  0  0  0  0  0  0  0  0  0  0
   -5.7476    5.5719  -15.0500 C   0  0  0  0  0  0  0  0  0  0  0  0
   -6.3502    5.4931  -13.8517 N   0  0  0  0  0  0  0  0  0  0  0  0
   -7.8013    5.8136  -13.4376 C   0  0  0  0  0  0  0  0  0  0  0  0
   -8.6797    6.2685  -14.0532 O   0  0  0  0  0  0  0  0  0  0  0  0
   -7.9488    5.4372  -12.0176 C   0  0  0  0  0  0  0  0  0  0  0  0
   -7.8022    6.4395  -10.9759 C   0  0  0  0  0  0  0  0  0  0  0  0
   -7.9328    6.0536   -9.6960 C   0  0  0  0  0  0  0  0  0  0  0  0
   -8.2080    4.7139   -9.4131 N   0  0  0  0  0  0  0  0  0  0  0  0
   -8.3630    4.0669   -8.2136 C   0  0  0  0  0  0  0  0  0  0  0  0
   -8.2662    4.7962   -6.4642 Br  0  0  0  0  0  0  0  0  0  0  0  0
   -8.6065    2.7506   -8.5232 C   0  0  0  0  0  0  0  0  0  0  0  0
   -8.6313    2.5709   -9.8826 N   0  0  0  0  0  0  0  0  0  0  0  0
   -8.3735    3.7457  -10.4003 C   0  0  0  0  0  0  0  0  0  0  0  0
   -8.2373    4.1492  -11.7538 C   0  0  0  0  0  0  0  0  0  0  0  0
   -4.1746    4.9740  -15.2357 S   0  0  0  0  0  0  0  0  0  0  0  0
   -4.2979    5.2896  -16.9165 C   0  0  0  0  0  0  0  0  0  0  0  0
   -2.9182    4.8887  -18.1633 Br  0  0  0  0  0  0  0  0  0  0  0  0
  1  2  1  0
  2  3  1  0
  3  4  1  0
  4  5  2  0
  4  6  1  0
  6  7  1  0
  7  8  2  0
  8  9  1  0
  9 10  1  0
 10 11  2  0
 10 12  1  0
 12 13  1  0
 13 14  2  0
 14 15  1  0
 15 16  1  0
 16 17  1  0
 16 18  2  0
 18 19  1  0
 19 20  2  0
 20 21  1  0
  8 22  1  0
 22 23  1  0
 23 24  1  0
 23  6  2  0
 21 12  2  0
 20 15  1  0
M  END
>  <energy_score>  (748) 
-48.929497

>  <alias>  (748) 
None

>  <HIPPO Pose ID>  (748) 
70149

>  <smiles>  (748) 
CCOC(=O)c1nc(NC(=O)c2ccn3c(Br)cnc3c2)sc1Br

>  <inchikey>  (748) 
DPYGXIKDLOMKET-UHFFFAOYSA-N

>  <distance_score>  (748) 
0.96165

>  <ref_mols>  (748) 
Z1495a,Z0673a

>  <ref_pdb>  (748) 
Z0673a

>  <HIPPO Compound ID>  (748) 
141826

>  <name>  (748) 
P70149

>  <inspiration_score>  (748) 
None

$$$$
P70151
     RDKit          3D

 24 26  0  0  0  0  0  0  0  0999 V2000
   -9.5730    3.9488  -18.1197 C   0  0  0  0  0  0  0  0  0  0  0  0
   -8.1801    4.4254  -17.7931 C   0  0  0  0  0  0  0  0  0  0  0  0
   -7.3700    4.4485  -18.9836 O   0  0  0  0  0  0  0  0  0  0  0  0
   -6.0376    4.7933  -18.9636 C   0  0  0  0  0  0  0  0  0  0  0  0
   -5.3650    4.7032  -19.9862 O   0  0  0  0  0  0  0  0  0  0  0  0
   -5.4205    5.1819  -17.6797 C   0  0  0  0  0  0  0  0  0  0  0  0
   -6.1805    5.6289  -16.6142 N   0  0  0  0  0  0  0  0  0  0  0  0
   -5.5049    5.5515  -15.5103 C   0  0  0  0  0  0  0  0  0  0  0  0
   -6.0792    5.5540  -14.2903 N   0  0  0  0  0  0  0  0  0  0  0  0
   -7.5638    5.6893  -13.8802 C   0  0  0  0  0  0  0  0  0  0  0  0
   -8.5116    5.8967  -14.5282 O   0  0  0  0  0  0  0  0  0  0  0  0
   -7.6830    5.3997  -12.4345 C   0  0  0  0  0  0  0  0  0  0  0  0
   -8.1073    4.1610  -12.1119 C   0  0  0  0  0  0  0  0  0  0  0  0
   -8.2882    3.8309  -10.7418 C   0  0  0  0  0  0  0  0  0  0  0  0
   -8.6569    2.7130  -10.1688 N   0  0  0  0  0  0  0  0  0  0  0  0
   -8.6128    2.9546   -8.8206 C   0  0  0  0  0  0  0  0  0  0  0  0
   -8.2449    4.2573   -8.5678 C   0  0  0  0  0  0  0  0  0  0  0  0
   -8.0383    4.8220   -9.7987 N   0  0  0  0  0  0  0  0  0  0  0  0
   -7.6287    6.1105  -10.1321 C   0  0  0  0  0  0  0  0  0  0  0  0
   -7.4463    6.4101  -11.4268 C   0  0  0  0  0  0  0  0  0  0  0  0
   -7.0261    7.6335  -11.8008 F   0  0  0  0  0  0  0  0  0  0  0  0
   -3.8405    5.3018  -15.6791 S   0  0  0  0  0  0  0  0  0  0  0  0
   -4.0594    5.1398  -17.3851 C   0  0  0  0  0  0  0  0  0  0  0  0
   -2.8987    4.8861  -18.2801 C   0  0  0  0  0  0  0  0  0  0  0  0
  1  2  1  0
  2  3  1  0
  3  4  1  0
  4  5  2  0
  4  6  1  0
  6  7  1  0
  7  8  2  0
  8  9  1  0
  9 10  1  0
 10 11  2  0
 10 12  1  0
 12 13  2  0
 13 14  1  0
 14 15  2  0
 15 16  1  0
 16 17  2  0
 17 18  1  0
 18 19  1  0
 19 20  2  0
 20 21  1  0
  8 22  1  0
 22 23  1  0
 23 24  1  0
 23  6  2  0
 20 12  1  0
 18 14  1  0
M  END
>  <energy_score>  (749) 
-34.944746

>  <alias>  (749) 
None

>  <HIPPO Pose ID>  (749) 
70151

>  <smiles>  (749) 
CCOC(=O)c1nc(NC(=O)c2cc3nccn3cc2F)sc1C

>  <inchikey>  (749) 
DZELYWBVUDAFKL-UHFFFAOYSA-N

>  <distance_score>  (749) 
1.360988

>  <ref_mols>  (749) 
Z1495a,Z0673a

>  <ref_pdb>  (749) 
Z0673a

>  <HIPPO Compound ID>  (749) 
141829

>  <name>  (749) 
P70151

>  <inspiration_score>  (749) 
None

$$$$
P70155
     RDKit          3D

 24 26  0  0  0  0  0  0  0  0999 V2000
   -9.7383    3.9184  -18.0861 C   0  0  0  0  0  0  0  0  0  0  0  0
   -8.3781    4.3934  -17.6539 C   0  0  0  0  0  0  0  0  0  0  0  0
   -7.5427    4.5589  -18.8152 O   0  0  0  0  0  0  0  0  0  0  0  0
   -6.2157    4.9084  -18.7402 C   0  0  0  0  0  0  0  0  0  0  0  0
   -5.5309    4.9225  -19.7578 O   0  0  0  0  0  0  0  0  0  0  0  0
   -5.6454    5.2008  -17.4157 C   0  0  0  0  0  0  0  0  0  0  0  0
   -6.4497    5.5976  -16.3573 N   0  0  0  0  0  0  0  0  0  0  0  0
   -5.8078    5.4959  -15.2349 C   0  0  0  0  0  0  0  0  0  0  0  0
   -6.3917    5.5302  -14.0238 N   0  0  0  0  0  0  0  0  0  0  0  0
   -7.8777    5.6880  -13.6308 C   0  0  0  0  0  0  0  0  0  0  0  0
   -8.8171    5.8896  -14.2915 O   0  0  0  0  0  0  0  0  0  0  0  0
   -7.9818    5.4283  -12.1791 C   0  0  0  0  0  0  0  0  0  0  0  0
   -8.2624    4.1480  -11.8636 C   0  0  0  0  0  0  0  0  0  0  0  0
   -8.3623    3.7855  -10.4979 C   0  0  0  0  0  0  0  0  0  0  0  0
   -8.6008    2.6308   -9.9313 N   0  0  0  0  0  0  0  0  0  0  0  0
   -8.5309    2.8574   -8.5828 C   0  0  0  0  0  0  0  0  0  0  0  0
   -8.2757    4.1852   -8.3234 C   0  0  0  0  0  0  0  0  0  0  0  0
   -8.1691    4.7817   -9.5517 N   0  0  0  0  0  0  0  0  0  0  0  0
   -7.9011    6.1090   -9.8751 C   0  0  0  0  0  0  0  0  0  0  0  0
   -7.8040    6.4653  -11.1694 C   0  0  0  0  0  0  0  0  0  0  0  0
   -7.4444    8.2233  -11.6715 Br  0  0  0  0  0  0  0  0  0  0  0  0
   -4.1471    5.2044  -15.3414 S   0  0  0  0  0  0  0  0  0  0  0  0
   -4.3138    5.1269  -17.0478 C   0  0  0  0  0  0  0  0  0  0  0  0
   -2.8221    4.8647  -18.2003 Br  0  0  0  0  0  0  0  0  0  0  0  0
  1  2  1  0
  2  3  1  0
  3  4  1  0
  4  5  2  0
  4  6  1  0
  6  7  1  0
  7  8  2  0
  8  9  1  0
  9 10  1  0
 10 11  2  0
 10 12  1  0
 12 13  2  0
 13 14  1  0
 14 15  2  0
 15 16  1  0
 16 17  2  0
 17 18  1  0
 18 19  1  0
 19 20  2  0
 20 21  1  0
  8 22  1  0
 22 23  1  0
 23 24  1  0
 23  6  2  0
 20 12  1  0
 18 14  1  0
M  END
>  <energy_score>  (750) 
-70.272836

>  <alias>  (750) 
None

>  <HIPPO Pose ID>  (750) 
70155

>  <smiles>  (750) 
CCOC(=O)c1nc(NC(=O)c2cc3nccn3cc2Br)sc1Br

>  <inchikey>  (750) 
SZBRLQDUFVVHSH-UHFFFAOYSA-N

>  <distance_score>  (750) 
0.855488

>  <ref_mols>  (750) 
Z1495a,Z0673a

>  <ref_pdb>  (750) 
Z0673a

>  <HIPPO Compound ID>  (750) 
141837

>  <name>  (750) 
P70155

>  <inspiration_score>  (750) 
None

$$$$
P70156
     RDKit          3D

 24 26  0  0  0  0  0  0  0  0999 V2000
   -9.8203    3.9007  -18.0840 C   0  0  0  0  0  0  0  0  0  0  0  0
   -8.4564    4.3602  -17.6527 C   0  0  0  0  0  0  0  0  0  0  0  0
   -7.6178    4.4891  -18.8153 O   0  0  0  0  0  0  0  0  0  0  0  0
   -6.2915    4.8435  -18.7564 C   0  0  0  0  0  0  0  0  0  0  0  0
   -5.6215    4.8338  -19.7840 O   0  0  0  0  0  0  0  0  0  0  0  0
   -5.7060    5.1667  -17.4416 C   0  0  0  0  0  0  0  0  0  0  0  0
   -6.5162    5.4943  -16.3645 N   0  0  0  0  0  0  0  0  0  0  0  0
   -5.8517    5.4567  -15.2529 C   0  0  0  0  0  0  0  0  0  0  0  0
   -6.4208    5.4828  -14.0356 N   0  0  0  0  0  0  0  0  0  0  0  0
   -7.8982    5.6657  -13.6230 C   0  0  0  0  0  0  0  0  0  0  0  0
   -8.8402    5.8988  -14.2693 O   0  0  0  0  0  0  0  0  0  0  0  0
   -7.9872    5.4118  -12.1699 C   0  0  0  0  0  0  0  0  0  0  0  0
   -8.2633    4.1323  -11.8472 C   0  0  0  0  0  0  0  0  0  0  0  0
   -8.3604    3.7772  -10.4794 C   0  0  0  0  0  0  0  0  0  0  0  0
   -8.5978    2.6257   -9.9058 N   0  0  0  0  0  0  0  0  0  0  0  0
   -8.5267    2.8601   -8.5588 C   0  0  0  0  0  0  0  0  0  0  0  0
   -8.2727    4.1897   -8.3073 C   0  0  0  0  0  0  0  0  0  0  0  0
   -8.1680    4.7792   -9.5391 N   0  0  0  0  0  0  0  0  0  0  0  0
   -7.9024    6.1052   -9.8701 C   0  0  0  0  0  0  0  0  0  0  0  0
   -7.8084    6.4545  -11.1665 C   0  0  0  0  0  0  0  0  0  0  0  0
   -7.4472    8.2091  -11.6793 Br  0  0  0  0  0  0  0  0  0  0  0  0
   -4.1792    5.2802  -15.3861 S   0  0  0  0  0  0  0  0  0  0  0  0
   -4.3653    5.2001  -17.0943 C   0  0  0  0  0  0  0  0  0  0  0  0
   -2.7170    5.0950  -18.3570 I   0  0  0  0  0  0  0  0  0  0  0  0
  1  2  1  0
  2  3  1  0
  3  4  1  0
  4  5  2  0
  4  6  1  0
  6  7  1  0
  7  8  2  0
  8  9  1  0
  9 10  1  0
 10 11  2  0
 10 12  1  0
 12 13  2  0
 13 14  1  0
 14 15  2  0
 15 16  1  0
 16 17  2  0
 17 18  1  0
 18 19  1  0
 19 20  2  0
 20 21  1  0
  8 22  1  0
 22 23  1  0
 23 24  1  0
 23  6  2  0
 20 12  1  0
 18 14  1  0
M  END
>  <energy_score>  (751) 
-82.345554

>  <alias>  (751) 
None

>  <HIPPO Pose ID>  (751) 
70156

>  <smiles>  (751) 
CCOC(=O)c1nc(NC(=O)c2cc3nccn3cc2Br)sc1I

>  <inchikey>  (751) 
RJILAMVSAVKRIP-UHFFFAOYSA-N

>  <distance_score>  (751) 
0.923145

>  <ref_mols>  (751) 
Z1495a,Z0673a

>  <ref_pdb>  (751) 
Z0673a

>  <HIPPO Compound ID>  (751) 
141838

>  <name>  (751) 
P70156

>  <inspiration_score>  (751) 
None

$$$$
P70158
     RDKit          3D

 25 27  0  0  0  0  0  0  0  0999 V2000
   -9.6267    3.9213  -18.0910 C   0  0  0  0  0  0  0  0  0  0  0  0
   -8.2355    4.4069  -17.7757 C   0  0  0  0  0  0  0  0  0  0  0  0
   -7.4466    4.4575  -18.9785 O   0  0  0  0  0  0  0  0  0  0  0  0
   -6.1185    4.8170  -18.9765 C   0  0  0  0  0  0  0  0  0  0  0  0
   -5.4629    4.7470  -20.0115 O   0  0  0  0  0  0  0  0  0  0  0  0
   -5.4901    5.2059  -17.6976 C   0  0  0  0  0  0  0  0  0  0  0  0
   -6.2440    5.6640  -16.6313 N   0  0  0  0  0  0  0  0  0  0  0  0
   -5.5676    5.5805  -15.5288 C   0  0  0  0  0  0  0  0  0  0  0  0
   -6.1375    5.5969  -14.3066 N   0  0  0  0  0  0  0  0  0  0  0  0
   -7.6147    5.7765  -13.8912 C   0  0  0  0  0  0  0  0  0  0  0  0
   -8.5573    6.0149  -14.5347 O   0  0  0  0  0  0  0  0  0  0  0  0
   -7.7342    5.4849  -12.4422 C   0  0  0  0  0  0  0  0  0  0  0  0
   -7.6773    6.5402  -11.4468 C   0  0  0  0  0  0  0  0  0  0  0  0
   -7.8603    6.2292  -10.1466 C   0  0  0  0  0  0  0  0  0  0  0  0
   -7.8059    7.5533   -8.8284 Br  0  0  0  0  0  0  0  0  0  0  0  0
   -8.0919    4.8850   -9.8027 N   0  0  0  0  0  0  0  0  0  0  0  0
   -8.2620    4.2758   -8.5799 C   0  0  0  0  0  0  0  0  0  0  0  0
   -8.4317    2.9369   -8.8465 C   0  0  0  0  0  0  0  0  0  0  0  0
   -8.3826    2.7021  -10.1922 N   0  0  0  0  0  0  0  0  0  0  0  0
   -8.1688    3.8661  -10.7503 C   0  0  0  0  0  0  0  0  0  0  0  0
   -7.9981    4.2062  -12.1165 C   0  0  0  0  0  0  0  0  0  0  0  0
   -3.9049    5.3260  -15.7003 S   0  0  0  0  0  0  0  0  0  0  0  0
   -4.1267    5.1696  -17.4092 C   0  0  0  0  0  0  0  0  0  0  0  0
   -2.9551    4.9310  -18.3069 C   0  0  0  0  0  0  0  0  0  0  0  0
   -2.5693    6.1871  -19.0740 C   0  0  0  0  0  0  0  0  0  0  0  0
  1  2  1  0
  2  3  1  0
  3  4  1  0
  4  5  2  0
  4  6  1  0
  6  7  1  0
  7  8  2  0
  8  9  1  0
  9 10  1  0
 10 11  2  0
 10 12  1  0
 12 13  1  0
 13 14  2  0
 14 15  1  0
 14 16  1  0
 16 17  1  0
 17 18  2  0
 18 19  1  0
 19 20  2  0
 20 21  1  0
  8 22  1  0
 22 23  1  0
 23 24  1  0
 24 25  1  0
 23  6  2  0
 21 12  2  0
 20 16  1  0
M  END
>  <energy_score>  (752) 
-81.453869

>  <alias>  (752) 
None

>  <HIPPO Pose ID>  (752) 
70158

>  <smiles>  (752) 
CCOC(=O)c1nc(NC(=O)c2cc(Br)n3ccnc3c2)sc1CC

>  <inchikey>  (752) 
BWSOJEFCAFTRRM-UHFFFAOYSA-N

>  <distance_score>  (752) 
1.384436

>  <ref_mols>  (752) 
Z1495a,Z0673a

>  <ref_pdb>  (752) 
Z0673a

>  <HIPPO Compound ID>  (752) 
141842

>  <name>  (752) 
P70158

>  <inspiration_score>  (752) 
None

$$$$
P70159
     RDKit          3D

 25 27  0  0  0  0  0  0  0  0999 V2000
   -9.3750    4.0233  -18.3378 C   0  0  0  0  0  0  0  0  0  0  0  0
   -8.0468    4.4795  -17.7861 C   0  0  0  0  0  0  0  0  0  0  0  0
   -7.0657    4.5813  -18.8389 O   0  0  0  0  0  0  0  0  0  0  0  0
   -5.7544    4.9306  -18.6017 C   0  0  0  0  0  0  0  0  0  0  0  0
   -4.9393    4.9210  -19.5207 O   0  0  0  0  0  0  0  0  0  0  0  0
   -5.3352    5.2514  -17.2209 C   0  0  0  0  0  0  0  0  0  0  0  0
   -6.2648    5.5207  -16.2299 N   0  0  0  0  0  0  0  0  0  0  0  0
   -5.7121    5.4942  -15.0606 C   0  0  0  0  0  0  0  0  0  0  0  0
   -6.3666    5.4956  -13.8887 N   0  0  0  0  0  0  0  0  0  0  0  0
   -7.8728    5.6314  -13.5827 C   0  0  0  0  0  0  0  0  0  0  0  0
   -8.7722    5.8401  -14.2931 O   0  0  0  0  0  0  0  0  0  0  0  0
   -8.0393    5.3557  -12.1439 C   0  0  0  0  0  0  0  0  0  0  0  0
   -8.3374    4.0850  -11.8114 C   0  0  0  0  0  0  0  0  0  0  0  0
   -8.4332    3.7462  -10.4364 C   0  0  0  0  0  0  0  0  0  0  0  0
   -8.6884    2.6052   -9.8485 N   0  0  0  0  0  0  0  0  0  0  0  0
   -8.5898    2.8485   -8.5048 C   0  0  0  0  0  0  0  0  0  0  0  0
   -8.3041    4.1741   -8.2667 C   0  0  0  0  0  0  0  0  0  0  0  0
   -8.2063    4.7530   -9.5037 N   0  0  0  0  0  0  0  0  0  0  0  0
   -7.9135    6.0694   -9.8491 C   0  0  0  0  0  0  0  0  0  0  0  0
   -7.8299    6.3839  -11.1489 C   0  0  0  0  0  0  0  0  0  0  0  0
   -7.5177    7.6340  -11.5396 F   0  0  0  0  0  0  0  0  0  0  0  0
   -4.0371    5.3571  -15.0324 S   0  0  0  0  0  0  0  0  0  0  0  0
   -4.0189    5.3295  -16.7585 C   0  0  0  0  0  0  0  0  0  0  0  0
   -2.7262    5.2978  -17.5152 C   0  0  0  0  0  0  0  0  0  0  0  0
   -1.5417    5.8845  -16.7489 C   0  0  0  0  0  0  0  0  0  0  0  0
  1  2  1  0
  2  3  1  0
  3  4  1  0
  4  5  2  0
  4  6  1  0
  6  7  1  0
  7  8  2  0
  8  9  1  0
  9 10  1  0
 10 11  2  0
 10 12  1  0
 12 13  2  0
 13 14  1  0
 14 15  2  0
 15 16  1  0
 16 17  2  0
 17 18  1  0
 18 19  1  0
 19 20  2  0
 20 21  1  0
  8 22  1  0
 22 23  1  0
 23 24  1  0
 24 25  1  0
 23  6  2  0
 20 12  1  0
 18 14  1  0
M  END
>  <energy_score>  (753) 
-51.930911

>  <alias>  (753) 
None

>  <HIPPO Pose ID>  (753) 
70159

>  <smiles>  (753) 
CCOC(=O)c1nc(NC(=O)c2cc3nccn3cc2F)sc1CC

>  <inchikey>  (753) 
HXDDTCRABYXRRT-UHFFFAOYSA-N

>  <distance_score>  (753) 
1.335885

>  <ref_mols>  (753) 
Z1495a,Z0673a

>  <ref_pdb>  (753) 
Z0673a

>  <HIPPO Compound ID>  (753) 
141844

>  <name>  (753) 
P70159

>  <inspiration_score>  (753) 
None

$$$$
P70160
     RDKit          3D

 25 27  0  0  0  0  0  0  0  0999 V2000
   -9.6384    3.9215  -18.1153 C   0  0  0  0  0  0  0  0  0  0  0  0
   -8.2442    4.3945  -17.7961 C   0  0  0  0  0  0  0  0  0  0  0  0
   -7.4362    4.3936  -18.9874 O   0  0  0  0  0  0  0  0  0  0  0  0
   -6.1081    4.7559  -18.9824 C   0  0  0  0  0  0  0  0  0  0  0  0
   -5.4478    4.6622  -20.0127 O   0  0  0  0  0  0  0  0  0  0  0  0
   -5.4840    5.1712  -17.7086 C   0  0  0  0  0  0  0  0  0  0  0  0
   -6.2489    5.5876  -16.6347 N   0  0  0  0  0  0  0  0  0  0  0  0
   -5.5553    5.5779  -15.5407 C   0  0  0  0  0  0  0  0  0  0  0  0
   -6.1153    5.6017  -14.3153 N   0  0  0  0  0  0  0  0  0  0  0  0
   -7.5899    5.7868  -13.8893 C   0  0  0  0  0  0  0  0  0  0  0  0
   -8.5374    6.0242  -14.5273 O   0  0  0  0  0  0  0  0  0  0  0  0
   -7.7005    5.5029  -12.4382 C   0  0  0  0  0  0  0  0  0  0  0  0
   -8.0533    4.2331  -12.1486 C   0  0  0  0  0  0  0  0  0  0  0  0
   -8.2369    3.8595  -10.7932 C   0  0  0  0  0  0  0  0  0  0  0  0
   -8.5443    2.7075  -10.2541 N   0  0  0  0  0  0  0  0  0  0  0  0
   -8.5429    2.9194   -8.9002 C   0  0  0  0  0  0  0  0  0  0  0  0
   -8.2584    4.2353   -8.6117 C   0  0  0  0  0  0  0  0  0  0  0  0
   -8.0651    4.8396   -9.8262 N   0  0  0  0  0  0  0  0  0  0  0  0
   -7.7328    6.1591  -10.1217 C   0  0  0  0  0  0  0  0  0  0  0  0
   -7.5444    6.5215  -11.4052 C   0  0  0  0  0  0  0  0  0  0  0  0
   -7.0816    8.2668  -11.8669 Br  0  0  0  0  0  0  0  0  0  0  0  0
   -3.8847    5.4097  -15.7279 S   0  0  0  0  0  0  0  0  0  0  0  0
   -4.1176    5.1962  -17.4303 C   0  0  0  0  0  0  0  0  0  0  0  0
   -2.9424    4.9907  -18.3328 C   0  0  0  0  0  0  0  0  0  0  0  0
   -2.6164    6.2469  -19.1270 C   0  0  0  0  0  0  0  0  0  0  0  0
  1  2  1  0
  2  3  1  0
  3  4  1  0
  4  5  2  0
  4  6  1  0
  6  7  1  0
  7  8  2  0
  8  9  1  0
  9 10  1  0
 10 11  2  0
 10 12  1  0
 12 13  2  0
 13 14  1  0
 14 15  2  0
 15 16  1  0
 16 17  2  0
 17 18  1  0
 18 19  1  0
 19 20  2  0
 20 21  1  0
  8 22  1  0
 22 23  1  0
 23 24  1  0
 24 25  1  0
 23  6  2  0
 20 12  1  0
 18 14  1  0
M  END
>  <energy_score>  (754) 
-76.667126

>  <alias>  (754) 
None

>  <HIPPO Pose ID>  (754) 
70160

>  <smiles>  (754) 
CCOC(=O)c1nc(NC(=O)c2cc3nccn3cc2Br)sc1CC

>  <inchikey>  (754) 
LIEQEIBLKSYXQO-UHFFFAOYSA-N

>  <distance_score>  (754) 
1.366609

>  <ref_mols>  (754) 
Z1495a,Z0673a

>  <ref_pdb>  (754) 
Z0673a

>  <HIPPO Compound ID>  (754) 
141845

>  <name>  (754) 
P70160

>  <inspiration_score>  (754) 
None

$$$$
P70162
     RDKit          3D

 25 27  0  0  0  0  0  0  0  0999 V2000
   -9.6264    3.9291  -18.1082 C   0  0  0  0  0  0  0  0  0  0  0  0
   -8.2330    4.4018  -17.7832 C   0  0  0  0  0  0  0  0  0  0  0  0
   -7.4227    4.4063  -18.9733 O   0  0  0  0  0  0  0  0  0  0  0  0
   -6.0943    4.7669  -18.9637 C   0  0  0  0  0  0  0  0  0  0  0  0
   -5.4324    4.6813  -19.9938 O   0  0  0  0  0  0  0  0  0  0  0  0
   -5.4706    5.1668  -17.6850 C   0  0  0  0  0  0  0  0  0  0  0  0
   -6.2339    5.5813  -16.6096 N   0  0  0  0  0  0  0  0  0  0  0  0
   -5.5456    5.5454  -15.5125 C   0  0  0  0  0  0  0  0  0  0  0  0
   -6.1114    5.5618  -14.2892 N   0  0  0  0  0  0  0  0  0  0  0  0
   -7.5815    5.7774  -13.8674 C   0  0  0  0  0  0  0  0  0  0  0  0
   -8.5185    6.0506  -14.5050 O   0  0  0  0  0  0  0  0  0  0  0  0
   -7.7014    5.4804  -12.4189 C   0  0  0  0  0  0  0  0  0  0  0  0
   -7.5902    6.5257  -11.4145 C   0  0  0  0  0  0  0  0  0  0  0  0
   -7.7713    6.1969  -10.1226 C   0  0  0  0  0  0  0  0  0  0  0  0
   -8.0566    4.8705   -9.7865 N   0  0  0  0  0  0  0  0  0  0  0  0
   -8.2412    4.2735   -8.5641 C   0  0  0  0  0  0  0  0  0  0  0  0
   -8.1757    5.0736   -6.8442 Br  0  0  0  0  0  0  0  0  0  0  0  0
   -8.4744    2.9442   -8.8240 C   0  0  0  0  0  0  0  0  0  0  0  0
   -8.4527    2.7053  -10.1752 N   0  0  0  0  0  0  0  0  0  0  0  0
   -8.1882    3.8601  -10.7354 C   0  0  0  0  0  0  0  0  0  0  0  0
   -8.0130    4.2080  -12.1012 C   0  0  0  0  0  0  0  0  0  0  0  0
   -3.8763    5.3589  -15.6964 S   0  0  0  0  0  0  0  0  0  0  0  0
   -4.1049    5.1784  -17.4033 C   0  0  0  0  0  0  0  0  0  0  0  0
   -2.9295    4.9793  -18.3064 C   0  0  0  0  0  0  0  0  0  0  0  0
   -2.6003    6.2424  -19.0885 C   0  0  0  0  0  0  0  0  0  0  0  0
  1  2  1  0
  2  3  1  0
  3  4  1  0
  4  5  2  0
  4  6  1  0
  6  7  1  0
  7  8  2  0
  8  9  1  0
  9 10  1  0
 10 11  2  0
 10 12  1  0
 12 13  1  0
 13 14  2  0
 14 15  1  0
 15 16  1  0
 16 17  1  0
 16 18  2  0
 18 19  1  0
 19 20  2  0
 20 21  1  0
  8 22  1  0
 22 23  1  0
 23 24  1  0
 24 25  1  0
 23  6  2  0
 21 12  2  0
 20 15  1  0
M  END
>  <energy_score>  (755) 
-64.684454

>  <alias>  (755) 
None

>  <HIPPO Pose ID>  (755) 
70162

>  <smiles>  (755) 
CCOC(=O)c1nc(NC(=O)c2ccn3c(Br)cnc3c2)sc1CC

>  <inchikey>  (755) 
AJNLSVUDTYPRBG-UHFFFAOYSA-N

>  <distance_score>  (755) 
1.364003

>  <ref_mols>  (755) 
Z1495a,Z0673a

>  <ref_pdb>  (755) 
Z0673a

>  <HIPPO Compound ID>  (755) 
141847

>  <name>  (755) 
P70162

>  <inspiration_score>  (755) 
None

$$$$
P70163
     RDKit          3D

 25 27  0  0  0  0  0  0  0  0999 V2000
   -9.1211    4.7584  -18.6483 C   0  0  0  0  0  0  0  0  0  0  0  0
   -7.6291    4.9576  -18.3059 C   0  0  0  0  0  0  0  0  0  0  0  0
   -7.5203    4.3894  -16.8911 C   0  0  0  0  0  0  0  0  0  0  0  0
   -6.7808    4.2330  -19.3474 C   0  0  0  0  0  0  0  0  0  0  0  0
   -7.2481    6.3643  -18.3740 O   0  0  0  0  0  0  0  0  0  0  0  0
   -5.9199    6.7169  -18.2848 C   0  0  0  0  0  0  0  0  0  0  0  0
   -5.3123    7.2560  -19.2028 O   0  0  0  0  0  0  0  0  0  0  0  0
   -5.3296    6.4906  -16.9716 C   0  0  0  0  0  0  0  0  0  0  0  0
   -4.0419    6.0583  -16.6964 C   0  0  0  0  0  0  0  0  0  0  0  0
   -3.9297    5.6383  -15.0171 S   0  0  0  0  0  0  0  0  0  0  0  0
   -5.5361    6.1351  -14.8175 C   0  0  0  0  0  0  0  0  0  0  0  0
   -6.1841    5.8402  -13.6779 N   0  0  0  0  0  0  0  0  0  0  0  0
   -7.6573    6.0673  -13.2750 C   0  0  0  0  0  0  0  0  0  0  0  0
   -8.5563    6.4751  -13.8950 O   0  0  0  0  0  0  0  0  0  0  0  0
   -7.8288    5.5649  -11.9036 C   0  0  0  0  0  0  0  0  0  0  0  0
   -8.2491    4.2916  -11.7731 C   0  0  0  0  0  0  0  0  0  0  0  0
   -8.4306    3.7701  -10.4655 C   0  0  0  0  0  0  0  0  0  0  0  0
   -8.8188    2.5887  -10.0588 N   0  0  0  0  0  0  0  0  0  0  0  0
   -8.7519    2.6286   -8.6905 C   0  0  0  0  0  0  0  0  0  0  0  0
   -8.3628    3.8745   -8.2536 C   0  0  0  0  0  0  0  0  0  0  0  0
   -8.1626    4.6103   -9.3895 N   0  0  0  0  0  0  0  0  0  0  0  0
   -7.7485    5.9310   -9.5296 C   0  0  0  0  0  0  0  0  0  0  0  0
   -7.5800    6.4182  -10.7655 C   0  0  0  0  0  0  0  0  0  0  0  0
   -7.1535    7.6806  -10.9585 F   0  0  0  0  0  0  0  0  0  0  0  0
   -6.1148    6.6644  -15.8511 N   0  0  0  0  0  0  0  0  0  0  0  0
  1  2  1  0
  2  3  1  0
  2  4  1  0
  2  5  1  0
  5  6  1  0
  6  7  2  0
  6  8  1  0
  8  9  2  0
  9 10  1  0
 10 11  1  0
 11 12  1  0
 12 13  1  0
 13 14  2  0
 13 15  1  0
 15 16  2  0
 16 17  1  0
 17 18  2  0
 18 19  1  0
 19 20  2  0
 20 21  1  0
 21 22  1  0
 22 23  2  0
 23 24  1  0
 11 25  2  0
 25  8  1  0
 23 15  1  0
 21 17  1  0
M  END
>  <energy_score>  (756) 
-31.660965

>  <alias>  (756) 
None

>  <HIPPO Pose ID>  (756) 
70163

>  <smiles>  (756) 
CC(C)(C)OC(=O)c1csc(NC(=O)c2cc3nccn3cc2F)n1

>  <inchikey>  (756) 
ZHOAPHUZUCGSHN-UHFFFAOYSA-N

>  <distance_score>  (756) 
1.408504

>  <ref_mols>  (756) 
Z1495a,Z0673a

>  <ref_pdb>  (756) 
Z0673a

>  <HIPPO Compound ID>  (756) 
141848

>  <name>  (756) 
P70163

>  <inspiration_score>  (756) 
None

$$$$
P70164
     RDKit          3D

 25 27  0  0  0  0  0  0  0  0999 V2000
   -9.3384    4.2291  -18.2725 C   0  0  0  0  0  0  0  0  0  0  0  0
   -8.1119    4.4998  -17.4248 C   0  0  0  0  0  0  0  0  0  0  0  0
   -6.9704    4.5964  -18.2971 O   0  0  0  0  0  0  0  0  0  0  0  0
   -5.7477    5.0638  -17.9001 C   0  0  0  0  0  0  0  0  0  0  0  0
   -4.8608    5.2473  -18.7315 O   0  0  0  0  0  0  0  0  0  0  0  0
   -5.4902    5.3438  -16.4751 C   0  0  0  0  0  0  0  0  0  0  0  0
   -4.3242    5.9557  -16.0350 C   0  0  0  0  0  0  0  0  0  0  0  0
   -4.3504    6.1675  -14.3313 S   0  0  0  0  0  0  0  0  0  0  0  0
   -5.8380    5.3018  -14.2749 C   0  0  0  0  0  0  0  0  0  0  0  0
   -6.4838    5.2477  -13.0153 N   0  0  0  0  0  0  0  0  0  0  0  0
   -5.8866    3.7479  -13.0417 C   0  0  0  0  0  0  0  0  0  0  0  0
   -6.7799    2.6506  -13.6237 C   0  0  0  0  0  0  0  0  0  0  0  0
   -7.8713    5.2235  -12.6806 C   0  0  0  0  0  0  0  0  0  0  0  0
   -8.8463    5.1537  -13.3832 O   0  0  0  0  0  0  0  0  0  0  0  0
   -8.0099    5.1899  -11.1943 C   0  0  0  0  0  0  0  0  0  0  0  0
   -8.5067    4.0344  -10.7009 C   0  0  0  0  0  0  0  0  0  0  0  0
   -8.5380    3.8251   -9.2993 C   0  0  0  0  0  0  0  0  0  0  0  0
   -8.9290    2.7953   -8.5859 N   0  0  0  0  0  0  0  0  0  0  0  0
   -8.6750    3.1348   -7.2839 C   0  0  0  0  0  0  0  0  0  0  0  0
   -8.1668    4.4118   -7.1991 C   0  0  0  0  0  0  0  0  0  0  0  0
   -8.0665    4.8502   -8.4932 N   0  0  0  0  0  0  0  0  0  0  0  0
   -7.6017    6.0663   -8.9848 C   0  0  0  0  0  0  0  0  0  0  0  0
   -7.5681    6.2736  -10.3153 C   0  0  0  0  0  0  0  0  0  0  0  0
   -7.0234    7.9147  -11.0163 Br  0  0  0  0  0  0  0  0  0  0  0  0
   -6.3644    5.0284  -15.4423 N   0  0  0  0  0  0  0  0  0  0  0  0
  1  2  1  0
  2  3  1  0
  3  4  1  0
  4  5  2  0
  4  6  1  0
  6  7  2  0
  7  8  1  0
  8  9  1  0
  9 10  1  0
 10 11  1  0
 11 12  1  0
 10 13  1  0
 13 14  2  0
 13 15  1  0
 15 16  2  0
 16 17  1  0
 17 18  2  0
 18 19  1  0
 19 20  2  0
 20 21  1  0
 21 22  1  0
 22 23  2  0
 23 24  1  0
  9 25  2  0
 25  6  1  0
 23 15  1  0
 21 17  1  0
M  END
>  <energy_score>  (757) 
-6.376134

>  <alias>  (757) 
None

>  <HIPPO Pose ID>  (757) 
70164

>  <smiles>  (757) 
CCOC(=O)c1csc(N(CC)C(=O)c2cc3nccn3cc2Br)n1

>  <inchikey>  (757) 
VYOBLXQBSRVHPI-UHFFFAOYSA-N

>  <distance_score>  (757) 
1.531346

>  <ref_mols>  (757) 
Z1495a,Z0673a

>  <ref_pdb>  (757) 
Z0673a

>  <HIPPO Compound ID>  (757) 
141849

>  <name>  (757) 
P70164

>  <inspiration_score>  (757) 
None

$$$$
P70169
     RDKit          3D

 25 27  0  0  0  0  0  0  0  0999 V2000
   -9.5757    3.9560  -18.1345 C   0  0  0  0  0  0  0  0  0  0  0  0
   -8.1813    4.4203  -17.7973 C   0  0  0  0  0  0  0  0  0  0  0  0
   -7.3559    4.4170  -18.9778 O   0  0  0  0  0  0  0  0  0  0  0  0
   -6.0238    4.7631  -18.9496 C   0  0  0  0  0  0  0  0  0  0  0  0
   -5.3475    4.6785  -19.9706 O   0  0  0  0  0  0  0  0  0  0  0  0
   -5.4098    5.1466  -17.6620 C   0  0  0  0  0  0  0  0  0  0  0  0
   -6.1760    5.5517  -16.5859 N   0  0  0  0  0  0  0  0  0  0  0  0
   -5.4885    5.5112  -15.4881 C   0  0  0  0  0  0  0  0  0  0  0  0
   -6.0559    5.5190  -14.2656 N   0  0  0  0  0  0  0  0  0  0  0  0
   -7.5320    5.7021  -13.8459 C   0  0  0  0  0  0  0  0  0  0  0  0
   -8.4747    5.9513  -14.4859 O   0  0  0  0  0  0  0  0  0  0  0  0
   -7.6556    5.3989  -12.4031 C   0  0  0  0  0  0  0  0  0  0  0  0
   -8.0789    4.1582  -12.0882 C   0  0  0  0  0  0  0  0  0  0  0  0
   -8.2780    3.8236  -10.7207 C   0  0  0  0  0  0  0  0  0  0  0  0
   -8.6494    2.6982  -10.1620 N   0  0  0  0  0  0  0  0  0  0  0  0
   -8.6348    2.9315   -8.8097 C   0  0  0  0  0  0  0  0  0  0  0  0
   -8.2812    4.2333   -8.5471 C   0  0  0  0  0  0  0  0  0  0  0  0
   -8.1382    5.0199   -6.8261 Br  0  0  0  0  0  0  0  0  0  0  0  0
   -8.0504    4.8156   -9.7683 N   0  0  0  0  0  0  0  0  0  0  0  0
   -7.6415    6.1076  -10.0998 C   0  0  0  0  0  0  0  0  0  0  0  0
   -7.4393    6.4080  -11.3909 C   0  0  0  0  0  0  0  0  0  0  0  0
   -7.0157    7.6327  -11.7570 F   0  0  0  0  0  0  0  0  0  0  0  0
   -3.8191    5.3161  -15.6699 S   0  0  0  0  0  0  0  0  0  0  0  0
   -4.0464    5.1377  -17.3738 C   0  0  0  0  0  0  0  0  0  0  0  0
   -2.8854    4.9133  -18.2764 C   0  0  0  0  0  0  0  0  0  0  0  0
  1  2  1  0
  2  3  1  0
  3  4  1  0
  4  5  2  0
  4  6  1  0
  6  7  1  0
  7  8  2  0
  8  9  1  0
  9 10  1  0
 10 11  2  0
 10 12  1  0
 12 13  2  0
 13 14  1  0
 14 15  2  0
 15 16  1  0
 16 17  2  0
 17 18  1  0
 17 19  1  0
 19 20  1  0
 20 21  2  0
 21 22  1  0
  8 23  1  0
 23 24  1  0
 24 25  1  0
 24  6  2  0
 21 12  1  0
 19 14  1  0
M  END
>  <energy_score>  (758) 
-44.203532

>  <alias>  (758) 
None

>  <HIPPO Pose ID>  (758) 
70169

>  <smiles>  (758) 
CCOC(=O)c1nc(NC(=O)c2cc3ncc(Br)n3cc2F)sc1C

>  <inchikey>  (758) 
GNTGXIVXPWIQBG-UHFFFAOYSA-N

>  <distance_score>  (758) 
1.366987

>  <ref_mols>  (758) 
Z1495a,Z0673a

>  <ref_pdb>  (758) 
Z0673a

>  <HIPPO Compound ID>  (758) 
141855

>  <name>  (758) 
P70169

>  <inspiration_score>  (758) 
None

$$$$
P70172
     RDKit          3D

 25 27  0  0  0  0  0  0  0  0999 V2000
   -8.3477    4.3045  -18.6489 C   0  0  0  0  0  0  0  0  0  0  0  0
   -7.1918    4.7137  -17.7147 C   0  0  0  0  0  0  0  0  0  0  0  0
   -7.5791    4.1495  -16.3366 C   0  0  0  0  0  0  0  0  0  0  0  0
   -7.0597    6.2254  -17.7535 C   0  0  0  0  0  0  0  0  0  0  0  0
   -5.9581    4.1895  -18.2768 O   0  0  0  0  0  0  0  0  0  0  0  0
   -4.6713    4.5318  -17.9188 C   0  0  0  0  0  0  0  0  0  0  0  0
   -3.7424    4.3531  -18.7048 O   0  0  0  0  0  0  0  0  0  0  0  0
   -4.3950    5.0088  -16.5545 C   0  0  0  0  0  0  0  0  0  0  0  0
   -3.1543    4.8859  -15.9507 C   0  0  0  0  0  0  0  0  0  0  0  0
   -3.3161    5.0975  -14.2504 S   0  0  0  0  0  0  0  0  0  0  0  0
   -4.9300    5.5334  -14.4941 C   0  0  0  0  0  0  0  0  0  0  0  0
   -5.7367    5.5884  -13.4198 N   0  0  0  0  0  0  0  0  0  0  0  0
   -7.1782    6.1209  -13.2754 C   0  0  0  0  0  0  0  0  0  0  0  0
   -7.8632    6.6646  -14.0448 O   0  0  0  0  0  0  0  0  0  0  0  0
   -7.6443    5.7199  -11.9307 C   0  0  0  0  0  0  0  0  0  0  0  0
   -7.6204    6.6319  -10.8079 C   0  0  0  0  0  0  0  0  0  0  0  0
   -7.8988    6.1557   -9.5775 C   0  0  0  0  0  0  0  0  0  0  0  0
   -7.8464    7.2778   -8.0831 Br  0  0  0  0  0  0  0  0  0  0  0  0
   -8.2208    4.7924   -9.4395 N   0  0  0  0  0  0  0  0  0  0  0  0
   -8.4676    4.0268   -8.3239 C   0  0  0  0  0  0  0  0  0  0  0  0
   -8.7174    2.7555   -8.7868 C   0  0  0  0  0  0  0  0  0  0  0  0
   -8.6441    2.7128  -10.1514 N   0  0  0  0  0  0  0  0  0  0  0  0
   -8.3198    3.9242  -10.5250 C   0  0  0  0  0  0  0  0  0  0  0  0
   -8.0196    4.4317  -11.8126 C   0  0  0  0  0  0  0  0  0  0  0  0
   -5.3291    5.6092  -15.7287 N   0  0  0  0  0  0  0  0  0  0  0  0
  1  2  1  0
  2  3  1  0
  2  4  1  0
  2  5  1  0
  5  6  1  0
  6  7  2  0
  6  8  1  0
  8  9  2  0
  9 10  1  0
 10 11  1  0
 11 12  1  0
 12 13  1  0
 13 14  2  0
 13 15  1  0
 15 16  1  0
 16 17  2  0
 17 18  1  0
 17 19  1  0
 19 20  1  0
 20 21  2  0
 21 22  1  0
 22 23  2  0
 23 24  1  0
 11 25  2  0
 25  8  1  0
 24 15  2  0
 23 19  1  0
M  END
>  <energy_score>  (759) 
-30.15324

>  <alias>  (759) 
None

>  <HIPPO Pose ID>  (759) 
70172

>  <smiles>  (759) 
CC(C)(C)OC(=O)c1csc(NC(=O)c2cc(Br)n3ccnc3c2)n1

>  <inchikey>  (759) 
HESWOIFAENKKLX-UHFFFAOYSA-N

>  <distance_score>  (759) 
1.673024

>  <ref_mols>  (759) 
Z1495a,Z0673a

>  <ref_pdb>  (759) 
Z0673a

>  <HIPPO Compound ID>  (759) 
141858

>  <name>  (759) 
P70172

>  <inspiration_score>  (759) 
None

$$$$
P70174
     RDKit          3D

 25 27  0  0  0  0  0  0  0  0999 V2000
   -9.7022    3.9325  -18.1028 C   0  0  0  0  0  0  0  0  0  0  0  0
   -8.3402    4.4030  -17.6693 C   0  0  0  0  0  0  0  0  0  0  0  0
   -7.4969    4.5615  -18.8264 O   0  0  0  0  0  0  0  0  0  0  0  0
   -6.1662    4.8944  -18.7386 C   0  0  0  0  0  0  0  0  0  0  0  0
   -5.4668    4.9015  -19.7461 O   0  0  0  0  0  0  0  0  0  0  0  0
   -5.6068    5.1767  -17.4111 C   0  0  0  0  0  0  0  0  0  0  0  0
   -6.4034    5.5874  -16.3524 N   0  0  0  0  0  0  0  0  0  0  0  0
   -5.7610    5.4600  -15.2317 C   0  0  0  0  0  0  0  0  0  0  0  0
   -6.3455    5.4767  -14.0197 N   0  0  0  0  0  0  0  0  0  0  0  0
   -7.8305    5.6357  -13.6247 C   0  0  0  0  0  0  0  0  0  0  0  0
   -8.7685    5.8536  -14.2821 O   0  0  0  0  0  0  0  0  0  0  0  0
   -7.9403    5.3528  -12.1811 C   0  0  0  0  0  0  0  0  0  0  0  0
   -8.2608    4.0895  -11.8412 C   0  0  0  0  0  0  0  0  0  0  0  0
   -8.3795    3.7612  -10.4645 C   0  0  0  0  0  0  0  0  0  0  0  0
   -8.6554    2.6223   -9.8803 N   0  0  0  0  0  0  0  0  0  0  0  0
   -8.5980    2.8711   -8.5329 C   0  0  0  0  0  0  0  0  0  0  0  0
   -8.3158    4.1953   -8.2978 C   0  0  0  0  0  0  0  0  0  0  0  0
   -8.1613    5.0114   -6.5916 Br  0  0  0  0  0  0  0  0  0  0  0  0
   -8.1692    4.7758   -9.5321 N   0  0  0  0  0  0  0  0  0  0  0  0
   -7.8547    6.0868   -9.8908 C   0  0  0  0  0  0  0  0  0  0  0  0
   -7.7363    6.3858  -11.1918 C   0  0  0  0  0  0  0  0  0  0  0  0
   -7.4089    7.6300  -11.5886 F   0  0  0  0  0  0  0  0  0  0  0  0
   -4.1041    5.1398  -15.3438 S   0  0  0  0  0  0  0  0  0  0  0  0
   -4.2803    5.0635  -17.0454 C   0  0  0  0  0  0  0  0  0  0  0  0
   -2.9043    4.7588  -18.0157 Cl  0  0  0  0  0  0  0  0  0  0  0  0
  1  2  1  0
  2  3  1  0
  3  4  1  0
  4  5  2  0
  4  6  1  0
  6  7  1  0
  7  8  2  0
  8  9  1  0
  9 10  1  0
 10 11  2  0
 10 12  1  0
 12 13  2  0
 13 14  1  0
 14 15  2  0
 15 16  1  0
 16 17  2  0
 17 18  1  0
 17 19  1  0
 19 20  1  0
 20 21  2  0
 21 22  1  0
  8 23  1  0
 23 24  1  0
 24 25  1  0
 24  6  2  0
 21 12  1  0
 19 14  1  0
M  END
>  <energy_score>  (760) 
-29.303714

>  <alias>  (760) 
None

>  <HIPPO Pose ID>  (760) 
70174

>  <smiles>  (760) 
CCOC(=O)c1nc(NC(=O)c2cc3ncc(Br)n3cc2F)sc1Cl

>  <inchikey>  (760) 
DJVIELTZESWZFI-UHFFFAOYSA-N

>  <distance_score>  (760) 
0.859054

>  <ref_mols>  (760) 
Z1495a,Z0673a

>  <ref_pdb>  (760) 
Z0673a

>  <HIPPO Compound ID>  (760) 
141860

>  <name>  (760) 
P70174

>  <inspiration_score>  (760) 
None

$$$$
P70179
     RDKit          3D

 26 28  0  0  0  0  0  0  0  0999 V2000
   -9.8373    3.8537  -18.0435 C   0  0  0  0  0  0  0  0  0  0  0  0
   -8.5541    4.3764  -17.4618 C   0  0  0  0  0  0  0  0  0  0  0  0
   -7.6381    4.5972  -18.5499 O   0  0  0  0  0  0  0  0  0  0  0  0
   -6.3461    5.0047  -18.3688 C   0  0  0  0  0  0  0  0  0  0  0  0
   -5.5279    4.8726  -19.2730 O   0  0  0  0  0  0  0  0  0  0  0  0
   -5.9584    5.5858  -17.0743 C   0  0  0  0  0  0  0  0  0  0  0  0
   -6.9022    6.0000  -16.1420 N   0  0  0  0  0  0  0  0  0  0  0  0
   -6.3366    6.1325  -14.9821 C   0  0  0  0  0  0  0  0  0  0  0  0
   -6.9104    6.0215  -13.7790 N   0  0  0  0  0  0  0  0  0  0  0  0
   -8.3906    5.8720  -13.3881 C   0  0  0  0  0  0  0  0  0  0  0  0
   -9.3513    5.8988  -14.0448 O   0  0  0  0  0  0  0  0  0  0  0  0
   -8.3870    5.5676  -11.9437 C   0  0  0  0  0  0  0  0  0  0  0  0
   -8.4822    4.2484  -11.6798 C   0  0  0  0  0  0  0  0  0  0  0  0
   -8.4135    3.8150  -10.3350 C   0  0  0  0  0  0  0  0  0  0  0  0
   -8.4938    2.6185   -9.8140 N   0  0  0  0  0  0  0  0  0  0  0  0
   -8.3363    2.7903   -8.4654 C   0  0  0  0  0  0  0  0  0  0  0  0
   -8.1728    4.1226   -8.1587 C   0  0  0  0  0  0  0  0  0  0  0  0
   -8.2200    4.7806   -9.3583 N   0  0  0  0  0  0  0  0  0  0  0  0
   -8.1014    6.1412   -9.6308 C   0  0  0  0  0  0  0  0  0  0  0  0
   -8.1847    6.5679  -10.9041 C   0  0  0  0  0  0  0  0  0  0  0  0
   -8.0564    8.3747  -11.3389 Br  0  0  0  0  0  0  0  0  0  0  0  0
   -4.6620    6.2388  -14.9665 S   0  0  0  0  0  0  0  0  0  0  0  0
   -4.6629    5.7092  -16.5975 C   0  0  0  0  0  0  0  0  0  0  0  0
   -3.3808    5.3549  -17.1089 C   0  0  0  0  0  0  0  0  0  0  0  0
   -2.9756    5.7961  -18.4889 C   0  0  0  0  0  0  0  0  0  0  0  0
   -2.5973    4.7227  -16.4029 O   0  0  0  0  0  0  0  0  0  0  0  0
  1  2  1  0
  2  3  1  0
  3  4  1  0
  4  5  2  0
  4  6  1  0
  6  7  1  0
  7  8  2  0
  8  9  1  0
  9 10  1  0
 10 11  2  0
 10 12  1  0
 12 13  2  0
 13 14  1  0
 14 15  2  0
 15 16  1  0
 16 17  2  0
 17 18  1  0
 18 19  1  0
 19 20  2  0
 20 21  1  0
  8 22  1  0
 22 23  1  0
 23 24  1  0
 24 25  1  0
 24 26  2  0
 23  6  2  0
 20 12  1  0
 18 14  1  0
M  END
>  <energy_score>  (761) 
-83.832655

>  <alias>  (761) 
None

>  <HIPPO Pose ID>  (761) 
70179

>  <smiles>  (761) 
CCOC(=O)c1nc(NC(=O)c2cc3nccn3cc2Br)sc1C(C)=O

>  <inchikey>  (761) 
BCHGBKCTUINUMJ-UHFFFAOYSA-N

>  <distance_score>  (761) 
1.55495

>  <ref_mols>  (761) 
Z1495a,Z0673a

>  <ref_pdb>  (761) 
Z0673a

>  <HIPPO Compound ID>  (761) 
141870

>  <name>  (761) 
P70179

>  <inspiration_score>  (761) 
None

$$$$
P70180
     RDKit          3D

 26 28  0  0  0  0  0  0  0  0999 V2000
  -10.0315    4.0858  -18.1474 C   0  0  0  0  0  0  0  0  0  0  0  0
   -8.7765    4.4513  -17.3969 C   0  0  0  0  0  0  0  0  0  0  0  0
   -7.8204    4.8778  -18.3871 O   0  0  0  0  0  0  0  0  0  0  0  0
   -6.4825    4.9816  -18.1494 C   0  0  0  0  0  0  0  0  0  0  0  0
   -5.6905    4.9497  -19.0854 O   0  0  0  0  0  0  0  0  0  0  0  0
   -6.0171    5.1647  -16.7663 C   0  0  0  0  0  0  0  0  0  0  0  0
   -6.9015    5.2827  -15.6999 N   0  0  0  0  0  0  0  0  0  0  0  0
   -6.2655    5.1839  -14.5721 C   0  0  0  0  0  0  0  0  0  0  0  0
   -6.8100    5.1193  -13.3449 N   0  0  0  0  0  0  0  0  0  0  0  0
   -8.1737    5.1385  -12.9247 C   0  0  0  0  0  0  0  0  0  0  0  0
   -9.1829    5.2957  -13.5468 O   0  0  0  0  0  0  0  0  0  0  0  0
   -8.2240    4.9270  -11.4508 C   0  0  0  0  0  0  0  0  0  0  0  0
   -7.8679    6.0028  -10.5366 C   0  0  0  0  0  0  0  0  0  0  0  0
   -7.8769    5.7696   -9.2091 C   0  0  0  0  0  0  0  0  0  0  0  0
   -7.4361    7.1223   -7.9969 Br  0  0  0  0  0  0  0  0  0  0  0  0
   -8.2408    4.4895   -8.7551 N   0  0  0  0  0  0  0  0  0  0  0  0
   -8.3249    3.9732   -7.4830 C   0  0  0  0  0  0  0  0  0  0  0  0
   -8.7445    2.6722   -7.6321 C   0  0  0  0  0  0  0  0  0  0  0  0
   -8.9500    2.3760   -8.9494 N   0  0  0  0  0  0  0  0  0  0  0  0
   -8.6102    3.4546   -9.6144 C   0  0  0  0  0  0  0  0  0  0  0  0
   -8.5766    3.7045  -11.0127 C   0  0  0  0  0  0  0  0  0  0  0  0
   -4.5817    5.1234  -14.6519 S   0  0  0  0  0  0  0  0  0  0  0  0
   -4.6863    5.2435  -16.3718 C   0  0  0  0  0  0  0  0  0  0  0  0
   -3.4488    5.3582  -17.1066 C   0  0  0  0  0  0  0  0  0  0  0  0
   -3.3815    6.2997  -18.2838 C   0  0  0  0  0  0  0  0  0  0  0  0
   -2.4224    4.7784  -16.7503 O   0  0  0  0  0  0  0  0  0  0  0  0
  1  2  1  0
  2  3  1  0
  3  4  1  0
  4  5  2  0
  4  6  1  0
  6  7  1  0
  7  8  2  0
  8  9  1  0
  9 10  1  0
 10 11  2  0
 10 12  1  0
 12 13  1  0
 13 14  2  0
 14 15  1  0
 14 16  1  0
 16 17  1  0
 17 18  2  0
 18 19  1  0
 19 20  2  0
 20 21  1  0
  8 22  1  0
 22 23  1  0
 23 24  1  0
 24 25  1  0
 24 26  2  0
 23  6  2  0
 21 12  2  0
 20 16  1  0
M  END
>  <energy_score>  (762) 
-73.486052

>  <alias>  (762) 
None

>  <HIPPO Pose ID>  (762) 
70180

>  <smiles>  (762) 
CCOC(=O)c1nc(NC(=O)c2cc(Br)n3ccnc3c2)sc1C(C)=O

>  <inchikey>  (762) 
LWAIZLBWTKLHPL-UHFFFAOYSA-N

>  <distance_score>  (762) 
1.619236

>  <ref_mols>  (762) 
Z1495a,Z0673a

>  <ref_pdb>  (762) 
Z0673a

>  <HIPPO Compound ID>  (762) 
141872

>  <name>  (762) 
P70180

>  <inspiration_score>  (762) 
None

$$$$
P70182
     RDKit          3D

 26 28  0  0  0  0  0  0  0  0999 V2000
   -9.3391    3.9590  -18.4374 C   0  0  0  0  0  0  0  0  0  0  0  0
   -8.1919    4.6129  -17.7146 C   0  0  0  0  0  0  0  0  0  0  0  0
   -7.5236    5.5102  -18.6274 O   0  0  0  0  0  0  0  0  0  0  0  0
   -6.3430    6.1184  -18.3063 C   0  0  0  0  0  0  0  0  0  0  0  0
   -5.7140    6.7900  -19.1168 O   0  0  0  0  0  0  0  0  0  0  0  0
   -5.8804    5.9611  -16.9329 C   0  0  0  0  0  0  0  0  0  0  0  0
   -6.7871    6.1572  -15.9008 N   0  0  0  0  0  0  0  0  0  0  0  0
   -6.2338    5.8614  -14.7686 C   0  0  0  0  0  0  0  0  0  0  0  0
   -6.8362    5.7483  -13.5822 N   0  0  0  0  0  0  0  0  0  0  0  0
   -8.3255    5.8129  -13.2089 C   0  0  0  0  0  0  0  0  0  0  0  0
   -9.2576    6.0508  -13.8628 O   0  0  0  0  0  0  0  0  0  0  0  0
   -8.3718    5.4499  -11.7823 C   0  0  0  0  0  0  0  0  0  0  0  0
   -8.1448    6.4520  -10.7565 C   0  0  0  0  0  0  0  0  0  0  0  0
   -8.0966    6.0469   -9.4773 C   0  0  0  0  0  0  0  0  0  0  0  0
   -8.2676    4.6913   -9.1847 N   0  0  0  0  0  0  0  0  0  0  0  0
   -8.2808    4.0329   -7.9824 C   0  0  0  0  0  0  0  0  0  0  0  0
   -8.0867    4.7639   -6.2419 Br  0  0  0  0  0  0  0  0  0  0  0  0
   -8.4696    2.7049   -8.2804 C   0  0  0  0  0  0  0  0  0  0  0  0
   -8.6025    2.5275   -9.6327 N   0  0  0  0  0  0  0  0  0  0  0  0
   -8.4743    3.7190  -10.1597 C   0  0  0  0  0  0  0  0  0  0  0  0
   -8.5109    4.1387  -11.5122 C   0  0  0  0  0  0  0  0  0  0  0  0
   -4.5977    5.4994  -14.7840 S   0  0  0  0  0  0  0  0  0  0  0  0
   -4.6070    5.6313  -16.5016 C   0  0  0  0  0  0  0  0  0  0  0  0
   -3.3622    5.3254  -17.1419 C   0  0  0  0  0  0  0  0  0  0  0  0
   -3.2859    5.2133  -18.6405 C   0  0  0  0  0  0  0  0  0  0  0  0
   -2.3465    5.1316  -16.4750 O   0  0  0  0  0  0  0  0  0  0  0  0
  1  2  1  0
  2  3  1  0
  3  4  1  0
  4  5  2  0
  4  6  1  0
  6  7  1  0
  7  8  2  0
  8  9  1  0
  9 10  1  0
 10 11  2  0
 10 12  1  0
 12 13  1  0
 13 14  2  0
 14 15  1  0
 15 16  1  0
 16 17  1  0
 16 18  2  0
 18 19  1  0
 19 20  2  0
 20 21  1  0
  8 22  1  0
 22 23  1  0
 23 24  1  0
 24 25  1  0
 24 26  2  0
 23  6  2  0
 21 12  2  0
 20 15  1  0
M  END
>  <energy_score>  (763) 
-49.092122

>  <alias>  (763) 
None

>  <HIPPO Pose ID>  (763) 
70182

>  <smiles>  (763) 
CCOC(=O)c1nc(NC(=O)c2ccn3c(Br)cnc3c2)sc1C(C)=O

>  <inchikey>  (763) 
ZDQDGFDGYYQNMY-UHFFFAOYSA-N

>  <distance_score>  (763) 
1.57611

>  <ref_mols>  (763) 
Z1495a,Z0673a

>  <ref_pdb>  (763) 
Z0673a

>  <HIPPO Compound ID>  (763) 
141874

>  <name>  (763) 
P70182

>  <inspiration_score>  (763) 
None

$$$$
P70184
     RDKit          3D

 26 29  0  0  0  0  0  0  0  0999 V2000
   -9.6850    3.9158  -18.1394 C   0  0  0  0  0  0  0  0  0  0  0  0
   -8.2976    4.3788  -17.7848 C   0  0  0  0  0  0  0  0  0  0  0  0
   -7.4723    4.4149  -18.9645 O   0  0  0  0  0  0  0  0  0  0  0  0
   -6.1420    4.7707  -18.9351 C   0  0  0  0  0  0  0  0  0  0  0  0
   -5.4827    4.7336  -19.9684 O   0  0  0  0  0  0  0  0  0  0  0  0
   -5.5344    5.1150  -17.6382 C   0  0  0  0  0  0  0  0  0  0  0  0
   -6.3142    5.5248  -16.5715 N   0  0  0  0  0  0  0  0  0  0  0  0
   -5.6462    5.4526  -15.4638 C   0  0  0  0  0  0  0  0  0  0  0  0
   -6.2225    5.4980  -14.2537 N   0  0  0  0  0  0  0  0  0  0  0  0
   -7.6945    5.7120  -13.8547 C   0  0  0  0  0  0  0  0  0  0  0  0
   -8.6258    5.9588  -14.5085 O   0  0  0  0  0  0  0  0  0  0  0  0
   -7.7830    5.5293  -12.3941 C   0  0  0  0  0  0  0  0  0  0  0  0
   -7.5089    6.6377  -11.4951 C   0  0  0  0  0  0  0  0  0  0  0  0
   -7.6448    6.4315  -10.1763 C   0  0  0  0  0  0  0  0  0  0  0  0
   -8.0456    5.1762   -9.7288 N   0  0  0  0  0  0  0  0  0  0  0  0
   -8.3059    4.7663   -8.4551 C   0  0  0  0  0  0  0  0  0  0  0  0
   -8.7886    3.4889   -8.5970 C   0  0  0  0  0  0  0  0  0  0  0  0
   -9.4621    2.7061   -7.4654 C   0  0  0  0  0  0  0  0  0  0  0  0
   -8.8267    1.4648   -6.9636 C   0  0  0  0  0  0  0  0  0  0  0  0
   -8.8548    2.6871   -6.0930 C   0  0  0  0  0  0  0  0  0  0  0  0
   -8.7394    3.0596   -9.8917 N   0  0  0  0  0  0  0  0  0  0  0  0
   -8.3130    4.0989  -10.5685 C   0  0  0  0  0  0  0  0  0  0  0  0
   -8.1584    4.3088  -11.9634 C   0  0  0  0  0  0  0  0  0  0  0  0
   -3.9860    5.1993  -15.5972 S   0  0  0  0  0  0  0  0  0  0  0  0
   -4.1929    5.0790  -17.2990 C   0  0  0  0  0  0  0  0  0  0  0  0
   -2.7198    4.8256  -18.4732 Br  0  0  0  0  0  0  0  0  0  0  0  0
  1  2  1  0
  2  3  1  0
  3  4  1  0
  4  5  2  0
  4  6  1  0
  6  7  1  0
  7  8  2  0
  8  9  1  0
  9 10  1  0
 10 11  2  0
 10 12  1  0
 12 13  1  0
 13 14  2  0
 14 15  1  0
 15 16  1  0
 16 17  2  0
 17 18  1  0
 18 19  1  0
 19 20  1  0
 17 21  1  0
 21 22  2  0
 22 23  1  0
  8 24  1  0
 24 25  1  0
 25 26  1  0
 25  6  2  0
 23 12  2  0
 22 15  1  0
 20 18  1  0
M  END
>  <energy_score>  (764) 
-76.674138

>  <alias>  (764) 
None

>  <HIPPO Pose ID>  (764) 
70184

>  <smiles>  (764) 
CCOC(=O)c1nc(NC(=O)c2ccn3cc(C4CC4)nc3c2)sc1Br

>  <inchikey>  (764) 
SAIBXCIQFSPIBJ-UHFFFAOYSA-N

>  <distance_score>  (764) 
0.917036

>  <ref_mols>  (764) 
Z1495a,Z0673a

>  <ref_pdb>  (764) 
Z0673a

>  <HIPPO Compound ID>  (764) 
141877

>  <name>  (764) 
P70184

>  <inspiration_score>  (764) 
None

$$$$
P70185
     RDKit          3D

 26 28  0  0  0  0  0  0  0  0999 V2000
   -3.6362    7.6038  -14.2530 C   0  0  0  0  0  0  0  0  0  0  0  0
   -4.8354    7.1229  -13.8961 C   0  0  0  0  0  0  0  0  0  0  0  0
   -6.0053    6.9775  -14.8476 C   0  0  0  0  0  0  0  0  0  0  0  0
   -6.6077    5.5019  -14.6889 N   0  0  0  0  0  0  0  0  0  0  0  0
   -7.9398    5.5659  -14.1996 C   0  0  0  0  0  0  0  0  0  0  0  0
   -8.9877    5.6246  -14.7852 O   0  0  0  0  0  0  0  0  0  0  0  0
   -7.9472    5.4390  -12.7161 C   0  0  0  0  0  0  0  0  0  0  0  0
   -7.9189    6.5933  -11.8247 C   0  0  0  0  0  0  0  0  0  0  0  0
   -7.9896    6.3837  -10.4970 C   0  0  0  0  0  0  0  0  0  0  0  0
   -8.1043    5.0774  -10.0209 N   0  0  0  0  0  0  0  0  0  0  0  0
   -8.2092    4.6179   -8.7328 C   0  0  0  0  0  0  0  0  0  0  0  0
   -8.3468    3.2481   -8.8381 C   0  0  0  0  0  0  0  0  0  0  0  0
   -8.5495    2.2344   -7.7802 C   0  0  0  0  0  0  0  0  0  0  0  0
   -8.2883    2.8613  -10.1542 N   0  0  0  0  0  0  0  0  0  0  0  0
   -8.1506    3.9638  -10.8485 C   0  0  0  0  0  0  0  0  0  0  0  0
   -8.0668    4.1797  -12.2486 C   0  0  0  0  0  0  0  0  0  0  0  0
   -6.1110    5.3815  -16.0178 C   0  0  0  0  0  0  0  0  0  0  0  0
   -6.8515    5.2981  -17.1009 N   0  0  0  0  0  0  0  0  0  0  0  0
   -6.0922    4.8240  -18.1751 C   0  0  0  0  0  0  0  0  0  0  0  0
   -6.6029    4.3632  -19.4803 C   0  0  0  0  0  0  0  0  0  0  0  0
   -5.8458    4.2920  -20.4432 O   0  0  0  0  0  0  0  0  0  0  0  0
   -7.8909    3.9226  -19.5781 O   0  0  0  0  0  0  0  0  0  0  0  0
   -8.9611    4.6636  -18.9921 C   0  0  0  0  0  0  0  0  0  0  0  0
   -9.5675    3.8970  -17.8424 C   0  0  0  0  0  0  0  0  0  0  0  0
   -4.7364    4.7301  -17.8919 C   0  0  0  0  0  0  0  0  0  0  0  0
   -4.4809    4.8255  -16.2069 S   0  0  0  0  0  0  0  0  0  0  0  0
  1  2  2  0
  2  3  1  0
  3  4  1  0
  4  5  1  0
  5  6  2  0
  5  7  1  0
  7  8  1  0
  8  9  2  0
  9 10  1  0
 10 11  1  0
 11 12  2  0
 12 13  1  0
 12 14  1  0
 14 15  2  0
 15 16  1  0
  4 17  1  0
 17 18  2  0
 18 19  1  0
 19 20  1  0
 20 21  2  0
 20 22  1  0
 22 23  1  0
 23 24  1  0
 19 25  2  0
 25 26  1  0
 16  7  2  0
 26 17  1  0
 15 10  1  0
M  END
>  <energy_score>  (765) 
-17.641414

>  <alias>  (765) 
None

>  <HIPPO Pose ID>  (765) 
70185

>  <smiles>  (765) 
C=CCN(C(=O)c1ccn2cc(C)nc2c1)c1nc(C(=O)OCC)cs1

>  <inchikey>  (765) 
JMLDXTJIBMMWNN-UHFFFAOYSA-N

>  <distance_score>  (765) 
1.518448

>  <ref_mols>  (765) 
Z1495a,Z0673a

>  <ref_pdb>  (765) 
Z0673a

>  <HIPPO Compound ID>  (765) 
141879

>  <name>  (765) 
P70185

>  <inspiration_score>  (765) 
None

$$$$
P70186
     RDKit          3D

 26 29  0  0  0  0  0  0  0  0999 V2000
   -9.2515    4.0333  -18.3268 C   0  0  0  0  0  0  0  0  0  0  0  0
   -7.9745    4.6626  -17.8245 C   0  0  0  0  0  0  0  0  0  0  0  0
   -7.3551    5.4200  -18.8870 O   0  0  0  0  0  0  0  0  0  0  0  0
   -6.0928    5.9480  -18.7744 C   0  0  0  0  0  0  0  0  0  0  0  0
   -5.5300    6.4993  -19.7143 O   0  0  0  0  0  0  0  0  0  0  0  0
   -5.4725    5.8430  -17.4591 C   0  0  0  0  0  0  0  0  0  0  0  0
   -6.2195    6.1662  -16.3466 N   0  0  0  0  0  0  0  0  0  0  0  0
   -5.6185    5.7537  -15.2749 C   0  0  0  0  0  0  0  0  0  0  0  0
   -6.2326    5.6993  -14.0850 N   0  0  0  0  0  0  0  0  0  0  0  0
   -7.6951    5.9866  -13.7013 C   0  0  0  0  0  0  0  0  0  0  0  0
   -8.5784    6.3895  -14.3429 O   0  0  0  0  0  0  0  0  0  0  0  0
   -7.8582    5.6389  -12.2831 C   0  0  0  0  0  0  0  0  0  0  0  0
   -7.7090    6.6556  -11.2569 C   0  0  0  0  0  0  0  0  0  0  0  0
   -7.8938    6.2933   -9.9784 C   0  0  0  0  0  0  0  0  0  0  0  0
   -8.2206    4.9701   -9.6970 N   0  0  0  0  0  0  0  0  0  0  0  0
   -8.4524    4.3809   -8.4913 C   0  0  0  0  0  0  0  0  0  0  0  0
   -8.7624    3.0750   -8.7916 C   0  0  0  0  0  0  0  0  0  0  0  0
   -9.0965    1.9777   -7.7715 C   0  0  0  0  0  0  0  0  0  0  0  0
  -10.0151    2.2066   -6.6006 C   0  0  0  0  0  0  0  0  0  0  0  0
   -8.5374    2.1254   -6.3907 C   0  0  0  0  0  0  0  0  0  0  0  0
   -8.6970    2.8326  -10.1334 N   0  0  0  0  0  0  0  0  0  0  0  0
   -8.3754    3.9843  -10.6651 C   0  0  0  0  0  0  0  0  0  0  0  0
   -8.1836    4.3605  -12.0160 C   0  0  0  0  0  0  0  0  0  0  0  0
   -4.0391    5.1839  -15.4535 S   0  0  0  0  0  0  0  0  0  0  0  0
   -4.1938    5.4299  -17.1471 C   0  0  0  0  0  0  0  0  0  0  0  0
   -2.6795    5.0119  -18.4971 I   0  0  0  0  0  0  0  0  0  0  0  0
  1  2  1  0
  2  3  1  0
  3  4  1  0
  4  5  2  0
  4  6  1  0
  6  7  1  0
  7  8  2  0
  8  9  1  0
  9 10  1  0
 10 11  2  0
 10 12  1  0
 12 13  1  0
 13 14  2  0
 14 15  1  0
 15 16  1  0
 16 17  2  0
 17 18  1  0
 18 19  1  0
 19 20  1  0
 17 21  1  0
 21 22  2  0
 22 23  1  0
  8 24  1  0
 24 25  1  0
 25 26  1  0
 25  6  2  0
 23 12  2  0
 22 15  1  0
 20 18  1  0
M  END
>  <energy_score>  (766) 
-61.560221

>  <alias>  (766) 
None

>  <HIPPO Pose ID>  (766) 
70186

>  <smiles>  (766) 
CCOC(=O)c1nc(NC(=O)c2ccn3cc(C4CC4)nc3c2)sc1I

>  <inchikey>  (766) 
LSISYYYJIZVXCX-UHFFFAOYSA-N

>  <distance_score>  (766) 
0.950675

>  <ref_mols>  (766) 
Z1495a,Z0673a

>  <ref_pdb>  (766) 
Z0673a

>  <HIPPO Compound ID>  (766) 
141880

>  <name>  (766) 
P70186

>  <inspiration_score>  (766) 
None

$$$$
P70189
     RDKit          3D

 26 28  0  0  0  0  0  0  0  0999 V2000
   -9.7867    3.8964  -18.0964 C   0  0  0  0  0  0  0  0  0  0  0  0
   -8.4107    4.3541  -17.7013 C   0  0  0  0  0  0  0  0  0  0  0  0
   -7.5747    4.4151  -18.8714 O   0  0  0  0  0  0  0  0  0  0  0  0
   -6.2491    4.7810  -18.8341 C   0  0  0  0  0  0  0  0  0  0  0  0
   -5.5883    4.7392  -19.8669 O   0  0  0  0  0  0  0  0  0  0  0  0
   -5.6507    5.1439  -17.5344 C   0  0  0  0  0  0  0  0  0  0  0  0
   -6.4521    5.4831  -16.4566 N   0  0  0  0  0  0  0  0  0  0  0  0
   -5.7766    5.4829  -15.3518 C   0  0  0  0  0  0  0  0  0  0  0  0
   -6.3436    5.5248  -14.1354 N   0  0  0  0  0  0  0  0  0  0  0  0
   -7.8223    5.6830  -13.7246 C   0  0  0  0  0  0  0  0  0  0  0  0
   -8.7700    5.8786  -14.3737 O   0  0  0  0  0  0  0  0  0  0  0  0
   -7.9086    5.4515  -12.2691 C   0  0  0  0  0  0  0  0  0  0  0  0
   -8.1678    4.1730  -11.9269 C   0  0  0  0  0  0  0  0  0  0  0  0
   -8.3063    3.8468  -10.5555 C   0  0  0  0  0  0  0  0  0  0  0  0
   -8.5552    2.7053   -9.9635 N   0  0  0  0  0  0  0  0  0  0  0  0
   -8.6247    2.9942   -8.6183 C   0  0  0  0  0  0  0  0  0  0  0  0
   -8.9662    2.0164   -7.6049 C   0  0  0  0  0  0  0  0  0  0  0  0
   -9.1819    2.3255   -6.4367 O   0  0  0  0  0  0  0  0  0  0  0  0
   -8.3649    4.3339   -8.4003 C   0  0  0  0  0  0  0  0  0  0  0  0
   -8.1798    4.8799   -9.6369 N   0  0  0  0  0  0  0  0  0  0  0  0
   -7.9170    6.2002   -9.9878 C   0  0  0  0  0  0  0  0  0  0  0  0
   -7.7753    6.5198  -11.2867 C   0  0  0  0  0  0  0  0  0  0  0  0
   -7.4147    8.2656  -11.8283 Br  0  0  0  0  0  0  0  0  0  0  0  0
   -4.1052    5.3292  -15.4949 S   0  0  0  0  0  0  0  0  0  0  0  0
   -4.3073    5.2025  -17.1997 C   0  0  0  0  0  0  0  0  0  0  0  0
   -2.6683    5.0859  -18.4709 I   0  0  0  0  0  0  0  0  0  0  0  0
  1  2  1  0
  2  3  1  0
  3  4  1  0
  4  5  2  0
  4  6  1  0
  6  7  1  0
  7  8  2  0
  8  9  1  0
  9 10  1  0
 10 11  2  0
 10 12  1  0
 12 13  2  0
 13 14  1  0
 14 15  2  0
 15 16  1  0
 16 17  1  0
 17 18  2  0
 16 19  2  0
 19 20  1  0
 20 21  1  0
 21 22  2  0
 22 23  1  0
  8 24  1  0
 24 25  1  0
 25 26  1  0
 25  6  2  0
 22 12  1  0
 20 14  1  0
M  END
>  <energy_score>  (767) 
-64.997112

>  <alias>  (767) 
None

>  <HIPPO Pose ID>  (767) 
70189

>  <smiles>  (767) 
CCOC(=O)c1nc(NC(=O)c2cc3nc(C=O)cn3cc2Br)sc1I

>  <inchikey>  (767) 
YOMJBJQYDLYJRY-UHFFFAOYSA-N

>  <distance_score>  (767) 
0.830007

>  <ref_mols>  (767) 
Z1495a,Z0673a

>  <ref_pdb>  (767) 
Z0673a

>  <HIPPO Compound ID>  (767) 
141884

>  <name>  (767) 
P70189

>  <inspiration_score>  (767) 
None

$$$$
P70191
     RDKit          3D

 27 29  0  0  0  0  0  0  0  0999 V2000
   -9.5529    3.9412  -18.1347 C   0  0  0  0  0  0  0  0  0  0  0  0
   -8.1555    4.4300  -17.8463 C   0  0  0  0  0  0  0  0  0  0  0  0
   -7.3607    4.4216  -19.0470 O   0  0  0  0  0  0  0  0  0  0  0  0
   -6.0301    4.7771  -19.0502 C   0  0  0  0  0  0  0  0  0  0  0  0
   -5.3671    4.6636  -20.0763 O   0  0  0  0  0  0  0  0  0  0  0  0
   -5.4032    5.1995  -17.7823 C   0  0  0  0  0  0  0  0  0  0  0  0
   -6.1529    5.7071  -16.7378 N   0  0  0  0  0  0  0  0  0  0  0  0
   -5.4901    5.6217  -15.6270 C   0  0  0  0  0  0  0  0  0  0  0  0
   -6.0809    5.6522  -14.4162 N   0  0  0  0  0  0  0  0  0  0  0  0
   -7.5630    5.8462  -14.0287 C   0  0  0  0  0  0  0  0  0  0  0  0
   -8.4921    6.0865  -14.6905 O   0  0  0  0  0  0  0  0  0  0  0  0
   -7.7082    5.5671  -12.5811 C   0  0  0  0  0  0  0  0  0  0  0  0
   -7.6221    6.6213  -11.5827 C   0  0  0  0  0  0  0  0  0  0  0  0
   -7.8242    6.2982  -10.2926 C   0  0  0  0  0  0  0  0  0  0  0  0
   -8.1007    4.9726   -9.9605 N   0  0  0  0  0  0  0  0  0  0  0  0
   -8.2904    4.4028   -8.7318 C   0  0  0  0  0  0  0  0  0  0  0  0
   -8.4892    3.0495   -8.9634 C   0  0  0  0  0  0  0  0  0  0  0  0
   -8.6573    1.9493   -7.9585 C   0  0  0  0  0  0  0  0  0  0  0  0
   -7.5953    1.1168   -7.9833 F   0  0  0  0  0  0  0  0  0  0  0  0
   -9.7761    1.2090   -8.1528 F   0  0  0  0  0  0  0  0  0  0  0  0
   -8.7443    2.4528   -6.6954 F   0  0  0  0  0  0  0  0  0  0  0  0
   -8.4381    2.8005  -10.3278 N   0  0  0  0  0  0  0  0  0  0  0  0
   -8.2001    3.9537  -10.8978 C   0  0  0  0  0  0  0  0  0  0  0  0
   -8.0115    4.2930  -12.2618 C   0  0  0  0  0  0  0  0  0  0  0  0
   -3.8329    5.3222  -15.7756 S   0  0  0  0  0  0  0  0  0  0  0  0
   -4.0442    5.1361  -17.4811 C   0  0  0  0  0  0  0  0  0  0  0  0
   -2.8841    4.8375  -18.3624 C   0  0  0  0  0  0  0  0  0  0  0  0
  1  2  1  0
  2  3  1  0
  3  4  1  0
  4  5  2  0
  4  6  1  0
  6  7  1  0
  7  8  2  0
  8  9  1  0
  9 10  1  0
 10 11  2  0
 10 12  1  0
 12 13  1  0
 13 14  2  0
 14 15  1  0
 15 16  1  0
 16 17  2  0
 17 18  1  0
 18 19  1  0
 18 20  1  0
 18 21  1  0
 17 22  1  0
 22 23  2  0
 23 24  1  0
  8 25  1  0
 25 26  1  0
 26 27  1  0
 26  6  2  0
 24 12  2  0
 23 15  1  0
M  END
>  <energy_score>  (768) 
-66.522828

>  <alias>  (768) 
None

>  <HIPPO Pose ID>  (768) 
70191

>  <smiles>  (768) 
CCOC(=O)c1nc(NC(=O)c2ccn3cc(C(F)(F)F)nc3c2)sc1C

>  <inchikey>  (768) 
CJFKFRDDVRUFDJ-UHFFFAOYSA-N

>  <distance_score>  (768) 
1.369044

>  <ref_mols>  (768) 
Z1495a,Z0673a

>  <ref_pdb>  (768) 
Z0673a

>  <HIPPO Compound ID>  (768) 
141892

>  <name>  (768) 
P70191

>  <inspiration_score>  (768) 
None

$$$$
P70192
     RDKit          3D

 27 29  0  0  0  0  0  0  0  0999 V2000
   -9.7119    3.9343  -18.0848 C   0  0  0  0  0  0  0  0  0  0  0  0
   -8.3489    4.4084  -17.6583 C   0  0  0  0  0  0  0  0  0  0  0  0
   -7.5232    4.5943  -18.8239 O   0  0  0  0  0  0  0  0  0  0  0  0
   -6.1948    4.9399  -18.7548 C   0  0  0  0  0  0  0  0  0  0  0  0
   -5.5196    4.9793  -19.7781 O   0  0  0  0  0  0  0  0  0  0  0  0
   -5.6108    5.1985  -17.4298 C   0  0  0  0  0  0  0  0  0  0  0  0
   -6.4016    5.5848  -16.3584 N   0  0  0  0  0  0  0  0  0  0  0  0
   -5.7552    5.4409  -15.2430 C   0  0  0  0  0  0  0  0  0  0  0  0
   -6.3355    5.4505  -14.0302 N   0  0  0  0  0  0  0  0  0  0  0  0
   -7.8159    5.6186  -13.6295 C   0  0  0  0  0  0  0  0  0  0  0  0
   -8.7532    5.8516  -14.2813 O   0  0  0  0  0  0  0  0  0  0  0  0
   -7.9120    5.3421  -12.1800 C   0  0  0  0  0  0  0  0  0  0  0  0
   -7.6500    6.3826  -11.1990 C   0  0  0  0  0  0  0  0  0  0  0  0
   -7.7654    6.0712   -9.8968 C   0  0  0  0  0  0  0  0  0  0  0  0
   -8.1329    4.7746   -9.5395 N   0  0  0  0  0  0  0  0  0  0  0  0
   -8.3179    4.2365   -8.2961 C   0  0  0  0  0  0  0  0  0  0  0  0
   -8.7406    2.9302   -8.4992 C   0  0  0  0  0  0  0  0  0  0  0  0
   -9.1769    1.9392   -7.4585 C   0  0  0  0  0  0  0  0  0  0  0  0
  -10.0244    2.5347   -6.5677 F   0  0  0  0  0  0  0  0  0  0  0  0
   -8.1430    1.4693   -6.7233 F   0  0  0  0  0  0  0  0  0  0  0  0
   -9.8414    0.8678   -7.9544 F   0  0  0  0  0  0  0  0  0  0  0  0
   -8.7620    2.6615   -9.8603 N   0  0  0  0  0  0  0  0  0  0  0  0
   -8.3994    3.7692  -10.4587 C   0  0  0  0  0  0  0  0  0  0  0  0
   -8.2714    4.0900  -11.8352 C   0  0  0  0  0  0  0  0  0  0  0  0
   -4.0993    5.1323  -15.3664 S   0  0  0  0  0  0  0  0  0  0  0  0
   -4.2777    5.1012  -17.0734 C   0  0  0  0  0  0  0  0  0  0  0  0
   -2.7980    4.8511  -18.2432 Br  0  0  0  0  0  0  0  0  0  0  0  0
  1  2  1  0
  2  3  1  0
  3  4  1  0
  4  5  2  0
  4  6  1  0
  6  7  1  0
  7  8  2  0
  8  9  1  0
  9 10  1  0
 10 11  2  0
 10 12  1  0
 12 13  1  0
 13 14  2  0
 14 15  1  0
 15 16  1  0
 16 17  2  0
 17 18  1  0
 18 19  1  0
 18 20  1  0
 18 21  1  0
 17 22  1  0
 22 23  2  0
 23 24  1  0
  8 25  1  0
 25 26  1  0
 26 27  1  0
 26  6  2  0
 24 12  2  0
 23 15  1  0
M  END
>  <energy_score>  (769) 
-45.251663

>  <alias>  (769) 
None

>  <HIPPO Pose ID>  (769) 
70192

>  <smiles>  (769) 
CCOC(=O)c1nc(NC(=O)c2ccn3cc(C(F)(F)F)nc3c2)sc1Br

>  <inchikey>  (769) 
YOOJQXHAWXLWEK-UHFFFAOYSA-N

>  <distance_score>  (769) 
0.847032

>  <ref_mols>  (769) 
Z1495a,Z0673a

>  <ref_pdb>  (769) 
Z0673a

>  <HIPPO Compound ID>  (769) 
141893

>  <name>  (769) 
P70192

>  <inspiration_score>  (769) 
None

$$$$
P70194
     RDKit          3D

 27 29  0  0  0  0  0  0  0  0999 V2000
   -9.3861    3.9255  -18.4603 C   0  0  0  0  0  0  0  0  0  0  0  0
   -8.2539    4.5957  -17.7324 C   0  0  0  0  0  0  0  0  0  0  0  0
   -7.6181    5.5218  -18.6381 O   0  0  0  0  0  0  0  0  0  0  0  0
   -6.4710    6.1829  -18.3063 C   0  0  0  0  0  0  0  0  0  0  0  0
   -5.8895    6.9207  -19.0948 O   0  0  0  0  0  0  0  0  0  0  0  0
   -5.9837    5.9968  -16.9465 C   0  0  0  0  0  0  0  0  0  0  0  0
   -6.8752    6.1325  -15.8943 N   0  0  0  0  0  0  0  0  0  0  0  0
   -6.2859    5.8418  -14.7791 C   0  0  0  0  0  0  0  0  0  0  0  0
   -6.8609    5.6975  -13.5837 N   0  0  0  0  0  0  0  0  0  0  0  0
   -8.3378    5.7907  -13.1687 C   0  0  0  0  0  0  0  0  0  0  0  0
   -9.2785    6.0833  -13.7875 O   0  0  0  0  0  0  0  0  0  0  0  0
   -8.3642    5.4077  -11.7514 C   0  0  0  0  0  0  0  0  0  0  0  0
   -8.5214    4.0985  -11.4822 C   0  0  0  0  0  0  0  0  0  0  0  0
   -8.4968    3.6823  -10.1269 C   0  0  0  0  0  0  0  0  0  0  0  0
   -8.6498    2.4955   -9.5975 N   0  0  0  0  0  0  0  0  0  0  0  0
   -8.5154    2.6712   -8.2451 C   0  0  0  0  0  0  0  0  0  0  0  0
   -8.3066    3.9961   -7.9478 C   0  0  0  0  0  0  0  0  0  0  0  0
   -8.1058    4.7260   -6.2077 Br  0  0  0  0  0  0  0  0  0  0  0  0
   -8.2808    4.6533   -9.1501 N   0  0  0  0  0  0  0  0  0  0  0  0
   -8.0867    6.0028   -9.4416 C   0  0  0  0  0  0  0  0  0  0  0  0
   -8.1272    6.3914  -10.7213 C   0  0  0  0  0  0  0  0  0  0  0  0
   -7.9275    7.6787  -11.0606 F   0  0  0  0  0  0  0  0  0  0  0  0
   -4.6397    5.5329  -14.8353 S   0  0  0  0  0  0  0  0  0  0  0  0
   -4.6969    5.6829  -16.5499 C   0  0  0  0  0  0  0  0  0  0  0  0
   -3.4711    5.4055  -17.2323 C   0  0  0  0  0  0  0  0  0  0  0  0
   -3.4313    5.3438  -18.7356 C   0  0  0  0  0  0  0  0  0  0  0  0
   -2.4382    5.1874  -16.5991 O   0  0  0  0  0  0  0  0  0  0  0  0
  1  2  1  0
  2  3  1  0
  3  4  1  0
  4  5  2  0
  4  6  1  0
  6  7  1  0
  7  8  2  0
  8  9  1  0
  9 10  1  0
 10 11  2  0
 10 12  1  0
 12 13  2  0
 13 14  1  0
 14 15  2  0
 15 16  1  0
 16 17  2  0
 17 18  1  0
 17 19  1  0
 19 20  1  0
 20 21  2  0
 21 22  1  0
  8 23  1  0
 23 24  1  0
 24 25  1  0
 25 26  1  0
 25 27  2  0
 24  6  2  0
 21 12  1  0
 19 14  1  0
M  END
>  <energy_score>  (770) 
-71.923515

>  <alias>  (770) 
None

>  <HIPPO Pose ID>  (770) 
70194

>  <smiles>  (770) 
CCOC(=O)c1nc(NC(=O)c2cc3ncc(Br)n3cc2F)sc1C(C)=O

>  <inchikey>  (770) 
WCBOGCPPURVOME-UHFFFAOYSA-N

>  <distance_score>  (770) 
1.469207

>  <ref_mols>  (770) 
Z1495a,Z0673a

>  <ref_pdb>  (770) 
Z0673a

>  <HIPPO Compound ID>  (770) 
141897

>  <name>  (770) 
P70194

>  <inspiration_score>  (770) 
None

$$$$
P70196
     RDKit          3D

 27 29  0  0  0  0  0  0  0  0999 V2000
   -9.4604    4.1871  -18.3770 C   0  0  0  0  0  0  0  0  0  0  0  0
   -8.2021    4.4439  -17.5780 C   0  0  0  0  0  0  0  0  0  0  0  0
   -7.0808    4.4438  -18.4807 O   0  0  0  0  0  0  0  0  0  0  0  0
   -5.8396    4.9065  -18.1355 C   0  0  0  0  0  0  0  0  0  0  0  0
   -4.9642    5.0192  -18.9912 O   0  0  0  0  0  0  0  0  0  0  0  0
   -5.5536    5.2642  -16.7339 C   0  0  0  0  0  0  0  0  0  0  0  0
   -4.3787    5.8930  -16.3457 C   0  0  0  0  0  0  0  0  0  0  0  0
   -4.3865    6.2098  -14.6579 S   0  0  0  0  0  0  0  0  0  0  0  0
   -5.8771    5.3545  -14.5320 C   0  0  0  0  0  0  0  0  0  0  0  0
   -6.5160    5.3955  -13.2695 N   0  0  0  0  0  0  0  0  0  0  0  0
   -5.9117    3.8979  -13.1831 C   0  0  0  0  0  0  0  0  0  0  0  0
   -6.8077    2.7598  -13.6802 C   0  0  0  0  0  0  0  0  0  0  0  0
   -7.9029    5.3917  -12.9264 C   0  0  0  0  0  0  0  0  0  0  0  0
   -8.8810    5.2641  -13.6156 O   0  0  0  0  0  0  0  0  0  0  0  0
   -8.0260    5.5412  -11.4505 C   0  0  0  0  0  0  0  0  0  0  0  0
   -8.3430    4.4134  -10.7784 C   0  0  0  0  0  0  0  0  0  0  0  0
   -8.2907    4.4092   -9.3618 C   0  0  0  0  0  0  0  0  0  0  0  0
   -8.4552    3.4393   -8.4919 N   0  0  0  0  0  0  0  0  0  0  0  0
   -8.2119    4.0035   -7.2593 C   0  0  0  0  0  0  0  0  0  0  0  0
   -8.2295    3.2555   -6.0158 C   0  0  0  0  0  0  0  0  0  0  0  0
   -8.0139    3.7830   -4.9248 O   0  0  0  0  0  0  0  0  0  0  0  0
   -7.9412    5.3523   -7.3933 C   0  0  0  0  0  0  0  0  0  0  0  0
   -7.9640    5.6037   -8.7362 N   0  0  0  0  0  0  0  0  0  0  0  0
   -7.7036    6.7886   -9.4151 C   0  0  0  0  0  0  0  0  0  0  0  0
   -7.7276    6.7963  -10.7606 C   0  0  0  0  0  0  0  0  0  0  0  0
   -7.4277    8.3663  -11.7226 Br  0  0  0  0  0  0  0  0  0  0  0  0
   -6.4147    5.0109  -15.6732 N   0  0  0  0  0  0  0  0  0  0  0  0
  1  2  1  0
  2  3  1  0
  3  4  1  0
  4  5  2  0
  4  6  1  0
  6  7  2  0
  7  8  1  0
  8  9  1  0
  9 10  1  0
 10 11  1  0
 11 12  1  0
 10 13  1  0
 13 14  2  0
 13 15  1  0
 15 16  2  0
 16 17  1  0
 17 18  2  0
 18 19  1  0
 19 20  1  0
 20 21  2  0
 19 22  2  0
 22 23  1  0
 23 24  1  0
 24 25  2  0
 25 26  1  0
  9 27  2  0
 27  6  1  0
 25 15  1  0
 23 17  1  0
M  END
>  <energy_score>  (771) 
-214.895435

>  <alias>  (771) 
None

>  <HIPPO Pose ID>  (771) 
70196

>  <smiles>  (771) 
CCOC(=O)c1csc(N(CC)C(=O)c2cc3nc(C=O)cn3cc2Br)n1

>  <inchikey>  (771) 
DTIQPCFGTKNGBG-UHFFFAOYSA-N

>  <distance_score>  (771) 
1.513672

>  <ref_mols>  (771) 
Z1495a,Z0673a

>  <ref_pdb>  (771) 
Z0673a

>  <HIPPO Compound ID>  (771) 
141900

>  <name>  (771) 
P70196

>  <inspiration_score>  (771) 
None

$$$$
P70197
     RDKit          3D

 27 29  0  0  0  0  0  0  0  0999 V2000
   -9.6798    3.9266  -18.1290 C   0  0  0  0  0  0  0  0  0  0  0  0
   -8.2872    4.3795  -17.7793 C   0  0  0  0  0  0  0  0  0  0  0  0
   -7.4614    4.3861  -18.9584 O   0  0  0  0  0  0  0  0  0  0  0  0
   -6.1317    4.7395  -18.9326 C   0  0  0  0  0  0  0  0  0  0  0  0
   -5.4632    4.6697  -19.9597 O   0  0  0  0  0  0  0  0  0  0  0  0
   -5.5161    5.1217  -17.6440 C   0  0  0  0  0  0  0  0  0  0  0  0
   -6.2899    5.4740  -16.5534 N   0  0  0  0  0  0  0  0  0  0  0  0
   -5.5914    5.4721  -15.4633 C   0  0  0  0  0  0  0  0  0  0  0  0
   -6.1417    5.4811  -14.2328 N   0  0  0  0  0  0  0  0  0  0  0  0
   -7.6208    5.6054  -13.7948 C   0  0  0  0  0  0  0  0  0  0  0  0
   -8.5833    5.7966  -14.4264 O   0  0  0  0  0  0  0  0  0  0  0  0
   -7.7040    5.3528  -12.3332 C   0  0  0  0  0  0  0  0  0  0  0  0
   -8.1752    4.1330  -11.9950 C   0  0  0  0  0  0  0  0  0  0  0  0
   -8.3186    3.7989  -10.6215 C   0  0  0  0  0  0  0  0  0  0  0  0
   -8.7498    2.7106  -10.0318 N   0  0  0  0  0  0  0  0  0  0  0  0
   -8.5998    2.9224   -8.6747 C   0  0  0  0  0  0  0  0  0  0  0  0
   -8.9304    1.9496   -7.6425 C   0  0  0  0  0  0  0  0  0  0  0  0
   -9.7364    1.0326   -7.7642 O   0  0  0  0  0  0  0  0  0  0  0  0
   -8.0966    4.1918   -8.4525 C   0  0  0  0  0  0  0  0  0  0  0  0
   -7.9516    4.7587   -9.6911 N   0  0  0  0  0  0  0  0  0  0  0  0
   -7.5046    6.0318  -10.0324 C   0  0  0  0  0  0  0  0  0  0  0  0
   -7.3775    6.3627  -11.3311 C   0  0  0  0  0  0  0  0  0  0  0  0
   -6.7854    8.0536  -11.8463 Br  0  0  0  0  0  0  0  0  0  0  0  0
   -3.9170    5.3596  -15.6615 S   0  0  0  0  0  0  0  0  0  0  0  0
   -4.1500    5.1717  -17.3668 C   0  0  0  0  0  0  0  0  0  0  0  0
   -2.9719    5.0152  -18.2761 C   0  0  0  0  0  0  0  0  0  0  0  0
   -2.6736    6.2989  -19.0366 C   0  0  0  0  0  0  0  0  0  0  0  0
  1  2  1  0
  2  3  1  0
  3  4  1  0
  4  5  2  0
  4  6  1  0
  6  7  1  0
  7  8  2  0
  8  9  1  0
  9 10  1  0
 10 11  2  0
 10 12  1  0
 12 13  2  0
 13 14  1  0
 14 15  2  0
 15 16  1  0
 16 17  1  0
 17 18  2  0
 16 19  2  0
 19 20  1  0
 20 21  1  0
 21 22  2  0
 22 23  1  0
  8 24  1  0
 24 25  1  0
 25 26  1  0
 26 27  1  0
 25  6  2  0
 22 12  1  0
 20 14  1  0
M  END
>  <energy_score>  (772) 
-59.597233

>  <alias>  (772) 
None

>  <HIPPO Pose ID>  (772) 
70197

>  <smiles>  (772) 
CCOC(=O)c1nc(NC(=O)c2cc3nc(C=O)cn3cc2Br)sc1CC

>  <inchikey>  (772) 
PHFQMHQBFROBHL-UHFFFAOYSA-N

>  <distance_score>  (772) 
1.38087

>  <ref_mols>  (772) 
Z1495a,Z0673a

>  <ref_pdb>  (772) 
Z0673a

>  <HIPPO Compound ID>  (772) 
141901

>  <name>  (772) 
P70197

>  <inspiration_score>  (772) 
None

$$$$
P70198
     RDKit          3D

 27 29  0  0  0  0  0  0  0  0999 V2000
   -8.3432    4.2914  -18.8220 C   0  0  0  0  0  0  0  0  0  0  0  0
   -7.2480    4.6929  -17.8165 C   0  0  0  0  0  0  0  0  0  0  0  0
   -7.7489    4.1465  -16.4691 C   0  0  0  0  0  0  0  0  0  0  0  0
   -7.0743    6.2024  -17.8528 C   0  0  0  0  0  0  0  0  0  0  0  0
   -5.9973    4.1291  -18.2957 O   0  0  0  0  0  0  0  0  0  0  0  0
   -4.7236    4.4900  -17.9142 C   0  0  0  0  0  0  0  0  0  0  0  0
   -3.7756    4.3229  -18.6797 O   0  0  0  0  0  0  0  0  0  0  0  0
   -4.4848    4.9739  -16.5472 C   0  0  0  0  0  0  0  0  0  0  0  0
   -3.2411    4.9283  -15.9368 C   0  0  0  0  0  0  0  0  0  0  0  0
   -3.4142    5.1929  -14.2456 S   0  0  0  0  0  0  0  0  0  0  0  0
   -5.0569    5.5038  -14.4954 C   0  0  0  0  0  0  0  0  0  0  0  0
   -5.8480    5.5813  -13.4107 N   0  0  0  0  0  0  0  0  0  0  0  0
   -7.3387    5.9668  -13.2820 C   0  0  0  0  0  0  0  0  0  0  0  0
   -8.0916    6.3509  -14.0838 O   0  0  0  0  0  0  0  0  0  0  0  0
   -7.7364    5.6583  -11.8916 C   0  0  0  0  0  0  0  0  0  0  0  0
   -8.1484    4.3866  -11.6917 C   0  0  0  0  0  0  0  0  0  0  0  0
   -8.3642    3.9376  -10.3615 C   0  0  0  0  0  0  0  0  0  0  0  0
   -8.7353    2.7752   -9.8815 N   0  0  0  0  0  0  0  0  0  0  0  0
   -8.6602    2.8897   -8.5064 C   0  0  0  0  0  0  0  0  0  0  0  0
   -8.9606    1.8269   -7.5612 C   0  0  0  0  0  0  0  0  0  0  0  0
   -9.7726    0.9256   -7.7422 O   0  0  0  0  0  0  0  0  0  0  0  0
   -8.2600    4.1668   -8.1608 C   0  0  0  0  0  0  0  0  0  0  0  0
   -8.1117    4.8420   -9.3404 N   0  0  0  0  0  0  0  0  0  0  0  0
   -7.7472    6.1677   -9.5495 C   0  0  0  0  0  0  0  0  0  0  0  0
   -7.5675    6.6115  -10.8052 C   0  0  0  0  0  0  0  0  0  0  0  0
   -7.0712    8.3733  -11.1524 Br  0  0  0  0  0  0  0  0  0  0  0  0
   -5.4642    5.5046  -15.7284 N   0  0  0  0  0  0  0  0  0  0  0  0
  1  2  1  0
  2  3  1  0
  2  4  1  0
  2  5  1  0
  5  6  1  0
  6  7  2  0
  6  8  1  0
  8  9  2  0
  9 10  1  0
 10 11  1  0
 11 12  1  0
 12 13  1  0
 13 14  2  0
 13 15  1  0
 15 16  2  0
 16 17  1  0
 17 18  2  0
 18 19  1  0
 19 20  1  0
 20 21  2  0
 19 22  2  0
 22 23  1  0
 23 24  1  0
 24 25  2  0
 25 26  1  0
 11 27  2  0
 27  8  1  0
 25 15  1  0
 23 17  1  0
M  END
>  <energy_score>  (773) 
-22.245449

>  <alias>  (773) 
None

>  <HIPPO Pose ID>  (773) 
70198

>  <smiles>  (773) 
CC(C)(C)OC(=O)c1csc(NC(=O)c2cc3nc(C=O)cn3cc2Br)n1

>  <inchikey>  (773) 
YNDRIJAJVBHAIP-UHFFFAOYSA-N

>  <distance_score>  (773) 
1.466073

>  <ref_mols>  (773) 
Z1495a,Z0673a

>  <ref_pdb>  (773) 
Z0673a

>  <HIPPO Compound ID>  (773) 
141902

>  <name>  (773) 
P70198

>  <inspiration_score>  (773) 
None

$$$$
P70201
     RDKit          3D

 27 30  0  0  0  0  0  0  0  0999 V2000
   -9.5995    3.9267  -18.1322 C   0  0  0  0  0  0  0  0  0  0  0  0
   -8.1998    4.4064  -17.8451 C   0  0  0  0  0  0  0  0  0  0  0  0
   -7.4107    4.4015  -19.0494 O   0  0  0  0  0  0  0  0  0  0  0  0
   -6.0831    4.7683  -19.0638 C   0  0  0  0  0  0  0  0  0  0  0  0
   -5.4383    4.6883  -20.1045 O   0  0  0  0  0  0  0  0  0  0  0  0
   -5.4415    5.1759  -17.7970 C   0  0  0  0  0  0  0  0  0  0  0  0
   -6.1901    5.6266  -16.7273 N   0  0  0  0  0  0  0  0  0  0  0  0
   -5.5014    5.5710  -15.6318 C   0  0  0  0  0  0  0  0  0  0  0  0
   -6.0728    5.5927  -14.4127 N   0  0  0  0  0  0  0  0  0  0  0  0
   -7.5426    5.8164  -13.9991 C   0  0  0  0  0  0  0  0  0  0  0  0
   -8.4748    6.0931  -14.6418 O   0  0  0  0  0  0  0  0  0  0  0  0
   -7.6696    5.5421  -12.5490 C   0  0  0  0  0  0  0  0  0  0  0  0
   -7.5053    6.5993  -11.5634 C   0  0  0  0  0  0  0  0  0  0  0  0
   -7.7267    6.3073  -10.2701 C   0  0  0  0  0  0  0  0  0  0  0  0
   -8.1017    5.0108   -9.9226 N   0  0  0  0  0  0  0  0  0  0  0  0
   -8.3633    4.4841   -8.6887 C   0  0  0  0  0  0  0  0  0  0  0  0
   -8.6991    3.1710   -8.9259 C   0  0  0  0  0  0  0  0  0  0  0  0
   -9.0615    2.1132   -7.8632 C   0  0  0  0  0  0  0  0  0  0  0  0
   -8.4842    2.2529   -6.4865 C   0  0  0  0  0  0  0  0  0  0  0  0
   -9.9549    2.4176   -6.6878 C   0  0  0  0  0  0  0  0  0  0  0  0
   -8.6403    2.8726  -10.2590 N   0  0  0  0  0  0  0  0  0  0  0  0
   -8.2746    3.9860  -10.8456 C   0  0  0  0  0  0  0  0  0  0  0  0
   -8.0516    4.2929  -12.2139 C   0  0  0  0  0  0  0  0  0  0  0  0
   -3.8367    5.3558  -15.8159 S   0  0  0  0  0  0  0  0  0  0  0  0
   -4.0744    5.1693  -17.5218 C   0  0  0  0  0  0  0  0  0  0  0  0
   -2.9071    4.9443  -18.4285 C   0  0  0  0  0  0  0  0  0  0  0  0
   -2.5538    6.1999  -19.2119 C   0  0  0  0  0  0  0  0  0  0  0  0
  1  2  1  0
  2  3  1  0
  3  4  1  0
  4  5  2  0
  4  6  1  0
  6  7  1  0
  7  8  2  0
  8  9  1  0
  9 10  1  0
 10 11  2  0
 10 12  1  0
 12 13  1  0
 13 14  2  0
 14 15  1  0
 15 16  1  0
 16 17  2  0
 17 18  1  0
 18 19  1  0
 19 20  1  0
 17 21  1  0
 21 22  2  0
 22 23  1  0
  8 24  1  0
 24 25  1  0
 25 26  1  0
 26 27  1  0
 25  6  2  0
 23 12  2  0
 22 15  1  0
 20 18  1  0
M  END
>  <energy_score>  (774) 
-94.858599

>  <alias>  (774) 
None

>  <HIPPO Pose ID>  (774) 
70201

>  <smiles>  (774) 
CCOC(=O)c1nc(NC(=O)c2ccn3cc(C4CC4)nc3c2)sc1CC

>  <inchikey>  (774) 
FQAQZQHDBVUVTG-UHFFFAOYSA-N

>  <distance_score>  (774) 
1.41696

>  <ref_mols>  (774) 
Z1495a,Z0673a

>  <ref_pdb>  (774) 
Z0673a

>  <HIPPO Compound ID>  (774) 
141905

>  <name>  (774) 
P70201

>  <inspiration_score>  (774) 
None

$$$$
P70202
     RDKit          3D

 28 30  0  0  0  0  0  0  0  0999 V2000
   -9.6355    3.9328  -18.1039 C   0  0  0  0  0  0  0  0  0  0  0  0
   -8.2430    4.4019  -17.7706 C   0  0  0  0  0  0  0  0  0  0  0  0
   -7.4355    4.4326  -18.9621 O   0  0  0  0  0  0  0  0  0  0  0  0
   -6.1054    4.7842  -18.9489 C   0  0  0  0  0  0  0  0  0  0  0  0
   -5.4443    4.7109  -19.9803 O   0  0  0  0  0  0  0  0  0  0  0  0
   -5.4798    5.1651  -17.6654 C   0  0  0  0  0  0  0  0  0  0  0  0
   -6.2406    5.5698  -16.5837 N   0  0  0  0  0  0  0  0  0  0  0  0
   -5.5507    5.5133  -15.4884 C   0  0  0  0  0  0  0  0  0  0  0  0
   -6.1114    5.5158  -14.2618 N   0  0  0  0  0  0  0  0  0  0  0  0
   -7.5939    5.6129  -13.8369 C   0  0  0  0  0  0  0  0  0  0  0  0
   -8.5542    5.7831  -14.4764 O   0  0  0  0  0  0  0  0  0  0  0  0
   -7.6832    5.3386  -12.3801 C   0  0  0  0  0  0  0  0  0  0  0  0
   -7.4219    6.3784  -11.3962 C   0  0  0  0  0  0  0  0  0  0  0  0
   -7.5996    6.0874  -10.0953 C   0  0  0  0  0  0  0  0  0  0  0  0
   -8.0220    4.8080   -9.7353 N   0  0  0  0  0  0  0  0  0  0  0  0
   -8.2554    4.2860   -8.4917 C   0  0  0  0  0  0  0  0  0  0  0  0
   -8.6907    2.9832   -8.6924 C   0  0  0  0  0  0  0  0  0  0  0  0
   -9.1424    1.9970   -7.6507 C   0  0  0  0  0  0  0  0  0  0  0  0
   -8.1158    1.5017   -6.9222 F   0  0  0  0  0  0  0  0  0  0  0  0
   -9.8337    0.9414   -8.1429 F   0  0  0  0  0  0  0  0  0  0  0  0
   -9.9714    2.6040   -6.7487 F   0  0  0  0  0  0  0  0  0  0  0  0
   -8.6939    2.7081  -10.0542 N   0  0  0  0  0  0  0  0  0  0  0  0
   -8.2895    3.8020  -10.6534 C   0  0  0  0  0  0  0  0  0  0  0  0
   -8.1114    4.1080  -12.0301 C   0  0  0  0  0  0  0  0  0  0  0  0
   -3.8819    5.3251  -15.6776 S   0  0  0  0  0  0  0  0  0  0  0  0
   -4.1136    5.1678  -17.3860 C   0  0  0  0  0  0  0  0  0  0  0  0
   -2.9403    4.9756  -18.2937 C   0  0  0  0  0  0  0  0  0  0  0  0
   -2.6051    6.2483  -19.0573 C   0  0  0  0  0  0  0  0  0  0  0  0
  1  2  1  0
  2  3  1  0
  3  4  1  0
  4  5  2  0
  4  6  1  0
  6  7  1  0
  7  8  2  0
  8  9  1  0
  9 10  1  0
 10 11  2  0
 10 12  1  0
 12 13  1  0
 13 14  2  0
 14 15  1  0
 15 16  1  0
 16 17  2  0
 17 18  1  0
 18 19  1  0
 18 20  1  0
 18 21  1  0
 17 22  1  0
 22 23  2  0
 23 24  1  0
  8 25  1  0
 25 26  1  0
 26 27  1  0
 27 28  1  0
 26  6  2  0
 24 12  2  0
 23 15  1  0
M  END
>  <energy_score>  (775) 
-103.945983

>  <alias>  (775) 
None

>  <HIPPO Pose ID>  (775) 
70202

>  <smiles>  (775) 
CCOC(=O)c1nc(NC(=O)c2ccn3cc(C(F)(F)F)nc3c2)sc1CC

>  <inchikey>  (775) 
DTXYCYRQLULKHR-UHFFFAOYSA-N

>  <distance_score>  (775) 
1.37524

>  <ref_mols>  (775) 
Z1495a,Z0673a

>  <ref_pdb>  (775) 
Z0673a

>  <HIPPO Compound ID>  (775) 
141908

>  <name>  (775) 
P70202

>  <inspiration_score>  (775) 
None

$$$$
P70203
     RDKit          3D

 28 30  0  0  0  0  0  0  0  0999 V2000
   -9.2236    4.7560  -18.6919 C   0  0  0  0  0  0  0  0  0  0  0  0
   -7.7318    4.9250  -18.3377 C   0  0  0  0  0  0  0  0  0  0  0  0
   -6.8972    4.1672  -19.3639 C   0  0  0  0  0  0  0  0  0  0  0  0
   -7.6517    4.3705  -16.9150 C   0  0  0  0  0  0  0  0  0  0  0  0
   -7.3123    6.3197  -18.4231 O   0  0  0  0  0  0  0  0  0  0  0  0
   -5.9752    6.6410  -18.3486 C   0  0  0  0  0  0  0  0  0  0  0  0
   -5.3680    7.1763  -19.2693 O   0  0  0  0  0  0  0  0  0  0  0  0
   -5.3704    6.3879  -17.0473 C   0  0  0  0  0  0  0  0  0  0  0  0
   -4.0813    5.9495  -16.7882 C   0  0  0  0  0  0  0  0  0  0  0  0
   -3.9428    5.5451  -15.1062 S   0  0  0  0  0  0  0  0  0  0  0  0
   -5.5442    6.0446  -14.8875 C   0  0  0  0  0  0  0  0  0  0  0  0
   -6.1673    5.8116  -13.7210 N   0  0  0  0  0  0  0  0  0  0  0  0
   -7.6350    6.0405  -13.3069 C   0  0  0  0  0  0  0  0  0  0  0  0
   -8.5148    6.5375  -13.8867 O   0  0  0  0  0  0  0  0  0  0  0  0
   -7.7824    5.5840  -11.9120 C   0  0  0  0  0  0  0  0  0  0  0  0
   -7.5500    6.5331  -10.8363 C   0  0  0  0  0  0  0  0  0  0  0  0
   -7.7060    6.1122   -9.5731 C   0  0  0  0  0  0  0  0  0  0  0  0
   -8.0936    4.7959   -9.3453 N   0  0  0  0  0  0  0  0  0  0  0  0
   -8.3134    4.1639   -8.1570 C   0  0  0  0  0  0  0  0  0  0  0  0
   -8.7472    2.8868   -8.4752 C   0  0  0  0  0  0  0  0  0  0  0  0
   -9.2110    1.8363   -7.5102 C   0  0  0  0  0  0  0  0  0  0  0  0
  -10.1432    2.3680   -6.6641 F   0  0  0  0  0  0  0  0  0  0  0  0
   -8.2110    1.3857   -6.7192 F   0  0  0  0  0  0  0  0  0  0  0  0
   -9.7990    0.7670   -8.0935 F   0  0  0  0  0  0  0  0  0  0  0  0
   -8.7544    2.7310   -9.8565 N   0  0  0  0  0  0  0  0  0  0  0  0
   -8.3491    3.8750  -10.3542 C   0  0  0  0  0  0  0  0  0  0  0  0
   -8.1702    4.3111  -11.6961 C   0  0  0  0  0  0  0  0  0  0  0  0
   -6.1398    6.5612  -15.9175 N   0  0  0  0  0  0  0  0  0  0  0  0
  1  2  1  0
  2  3  1  0
  2  4  1  0
  2  5  1  0
  5  6  1  0
  6  7  2  0
  6  8  1  0
  8  9  2  0
  9 10  1  0
 10 11  1  0
 11 12  1  0
 12 13  1  0
 13 14  2  0
 13 15  1  0
 15 16  1  0
 16 17  2  0
 17 18  1  0
 18 19  1  0
 19 20  2  0
 20 21  1  0
 21 22  1  0
 21 23  1  0
 21 24  1  0
 20 25  1  0
 25 26  2  0
 26 27  1  0
 11 28  2  0
 28  8  1  0
 27 15  2  0
 26 18  1  0
M  END
>  <energy_score>  (776) 
-77.965155

>  <alias>  (776) 
None

>  <HIPPO Pose ID>  (776) 
70203

>  <smiles>  (776) 
CC(C)(C)OC(=O)c1csc(NC(=O)c2ccn3cc(C(F)(F)F)nc3c2)n1

>  <inchikey>  (776) 
UCVDHJOQGAIYBP-UHFFFAOYSA-N

>  <distance_score>  (776) 
1.358067

>  <ref_mols>  (776) 
Z1495a,Z0673a

>  <ref_pdb>  (776) 
Z0673a

>  <HIPPO Compound ID>  (776) 
141910

>  <name>  (776) 
P70203

>  <inspiration_score>  (776) 
None

$$$$
P70204
     RDKit          3D

 28 30  0  0  0  0  0  0  0  0999 V2000
   -9.3084    3.9928  -18.3239 C   0  0  0  0  0  0  0  0  0  0  0  0
   -8.1054    4.6605  -17.7075 C   0  0  0  0  0  0  0  0  0  0  0  0
   -7.5590    5.6025  -18.6547 O   0  0  0  0  0  0  0  0  0  0  0  0
   -6.4179    6.3051  -18.3886 C   0  0  0  0  0  0  0  0  0  0  0  0
   -5.9126    7.0767  -19.1966 O   0  0  0  0  0  0  0  0  0  0  0  0
   -5.8371    6.1035  -17.0700 C   0  0  0  0  0  0  0  0  0  0  0  0
   -6.6149    6.3682  -15.9521 N   0  0  0  0  0  0  0  0  0  0  0  0
   -6.0056    5.9550  -14.8849 C   0  0  0  0  0  0  0  0  0  0  0  0
   -6.5548    5.8070  -13.6715 N   0  0  0  0  0  0  0  0  0  0  0  0
   -7.9910    6.0717  -13.1854 C   0  0  0  0  0  0  0  0  0  0  0  0
   -8.9038    6.5324  -13.7423 O   0  0  0  0  0  0  0  0  0  0  0  0
   -8.0795    5.5187  -11.8211 C   0  0  0  0  0  0  0  0  0  0  0  0
   -8.5186    4.2475  -11.8123 C   0  0  0  0  0  0  0  0  0  0  0  0
   -8.6614    3.5833  -10.5761 C   0  0  0  0  0  0  0  0  0  0  0  0
   -9.1824    2.4187  -10.3139 N   0  0  0  0  0  0  0  0  0  0  0  0
   -9.0305    2.2507   -8.9700 C   0  0  0  0  0  0  0  0  0  0  0  0
   -8.4391    3.3436   -8.3858 C   0  0  0  0  0  0  0  0  0  0  0  0
   -8.1099    3.4904   -7.0033 C   0  0  0  0  0  0  0  0  0  0  0  0
   -7.6811    4.5266   -6.4976 O   0  0  0  0  0  0  0  0  0  0  0  0
   -8.2533    4.2373   -9.4213 N   0  0  0  0  0  0  0  0  0  0  0  0
   -7.7757    5.5534   -9.4406 C   0  0  0  0  0  0  0  0  0  0  0  0
   -7.6919    6.2200  -10.6094 C   0  0  0  0  0  0  0  0  0  0  0  0
   -7.0758    7.9749  -10.6959 Br  0  0  0  0  0  0  0  0  0  0  0  0
   -4.4275    5.4074  -15.0715 S   0  0  0  0  0  0  0  0  0  0  0  0
   -4.5780    5.6120  -16.7809 C   0  0  0  0  0  0  0  0  0  0  0  0
   -3.4597    5.1841  -17.5760 C   0  0  0  0  0  0  0  0  0  0  0  0
   -3.5348    5.2201  -19.0779 C   0  0  0  0  0  0  0  0  0  0  0  0
   -2.4379    4.7794  -17.0257 O   0  0  0  0  0  0  0  0  0  0  0  0
  1  2  1  0
  2  3  1  0
  3  4  1  0
  4  5  2  0
  4  6  1  0
  6  7  1  0
  7  8  2  0
  8  9  1  0
  9 10  1  0
 10 11  2  0
 10 12  1  0
 12 13  2  0
 13 14  1  0
 14 15  2  0
 15 16  1  0
 16 17  2  0
 17 18  1  0
 18 19  2  0
 17 20  1  0
 20 21  1  0
 21 22  2  0
 22 23  1  0
  8 24  1  0
 24 25  1  0
 25 26  1  0
 26 27  1  0
 26 28  2  0
 25  6  2  0
 22 12  1  0
 20 14  1  0
M  END
>  <energy_score>  (777) 
-82.337631

>  <alias>  (777) 
None

>  <HIPPO Pose ID>  (777) 
70204

>  <smiles>  (777) 
CCOC(=O)c1nc(NC(=O)c2cc3ncc(C=O)n3cc2Br)sc1C(C)=O

>  <inchikey>  (777) 
VYWZANVWCSFIED-UHFFFAOYSA-N

>  <distance_score>  (777) 
1.731997

>  <ref_mols>  (777) 
Z1495a,Z0673a

>  <ref_pdb>  (777) 
Z0673a

>  <HIPPO Compound ID>  (777) 
141911

>  <name>  (777) 
P70204

>  <inspiration_score>  (777) 
None

$$$$
P70208
     RDKit          3D

 29 31  0  0  0  0  0  0  0  0999 V2000
   -9.3607    4.0417  -18.3551 C   0  0  0  0  0  0  0  0  0  0  0  0
   -8.1152    4.4848  -17.6295 C   0  0  0  0  0  0  0  0  0  0  0  0
   -7.0666    4.7763  -18.5782 O   0  0  0  0  0  0  0  0  0  0  0  0
   -5.7738    5.0354  -18.1938 C   0  0  0  0  0  0  0  0  0  0  0  0
   -4.8708    5.0894  -19.0220 O   0  0  0  0  0  0  0  0  0  0  0  0
   -5.4879    5.2282  -16.7625 C   0  0  0  0  0  0  0  0  0  0  0  0
   -6.4858    5.4836  -15.8481 N   0  0  0  0  0  0  0  0  0  0  0  0
   -6.0109    5.3786  -14.6503 C   0  0  0  0  0  0  0  0  0  0  0  0
   -6.7194    5.3217  -13.5278 N   0  0  0  0  0  0  0  0  0  0  0  0
   -8.2288    5.4891  -13.2905 C   0  0  0  0  0  0  0  0  0  0  0  0
   -9.1007    5.6270  -14.0476 O   0  0  0  0  0  0  0  0  0  0  0  0
   -8.3835    5.3354  -11.8431 C   0  0  0  0  0  0  0  0  0  0  0  0
   -8.5416    4.0496  -11.4739 C   0  0  0  0  0  0  0  0  0  0  0  0
   -8.5474    3.7440  -10.0975 C   0  0  0  0  0  0  0  0  0  0  0  0
   -8.7558    2.6134   -9.4735 N   0  0  0  0  0  0  0  0  0  0  0  0
   -8.7458    2.9351   -8.1389 C   0  0  0  0  0  0  0  0  0  0  0  0
   -9.1151    2.0112   -7.0921 C   0  0  0  0  0  0  0  0  0  0  0  0
   -9.3488    2.3906   -5.9483 O   0  0  0  0  0  0  0  0  0  0  0  0
   -8.4237    4.2669   -7.9584 C   0  0  0  0  0  0  0  0  0  0  0  0
   -8.3353    4.7917   -9.2115 N   0  0  0  0  0  0  0  0  0  0  0  0
   -8.1303    6.1128   -9.5967 C   0  0  0  0  0  0  0  0  0  0  0  0
   -8.1585    6.4228  -10.9031 C   0  0  0  0  0  0  0  0  0  0  0  0
   -7.9244    8.1693  -11.5035 Br  0  0  0  0  0  0  0  0  0  0  0  0
   -4.3503    5.2100  -14.4793 S   0  0  0  0  0  0  0  0  0  0  0  0
   -4.2303    5.2214  -16.1755 C   0  0  0  0  0  0  0  0  0  0  0  0
   -2.9178    5.2104  -16.8009 C   0  0  0  0  0  0  0  0  0  0  0  0
   -1.8915    5.3426  -15.9168 F   0  0  0  0  0  0  0  0  0  0  0  0
   -2.8252    6.2529  -17.6391 F   0  0  0  0  0  0  0  0  0  0  0  0
   -2.6987    4.0603  -17.4587 F   0  0  0  0  0  0  0  0  0  0  0  0
  1  2  1  0
  2  3  1  0
  3  4  1  0
  4  5  2  0
  4  6  1  0
  6  7  1  0
  7  8  2  0
  8  9  1  0
  9 10  1  0
 10 11  2  0
 10 12  1  0
 12 13  2  0
 13 14  1  0
 14 15  2  0
 15 16  1  0
 16 17  1  0
 17 18  2  0
 16 19  2  0
 19 20  1  0
 20 21  1  0
 21 22  2  0
 22 23  1  0
  8 24  1  0
 24 25  1  0
 25 26  1  0
 26 27  1  0
 26 28  1  0
 26 29  1  0
 25  6  2  0
 22 12  1  0
 20 14  1  0
M  END
>  <energy_score>  (778) 
-61.628873

>  <alias>  (778) 
None

>  <HIPPO Pose ID>  (778) 
70208

>  <smiles>  (778) 
CCOC(=O)c1nc(NC(=O)c2cc3nc(C=O)cn3cc2Br)sc1C(F)(F)F

>  <inchikey>  (778) 
JPXSWQJGIBDVJH-UHFFFAOYSA-N

>  <distance_score>  (778) 
1.484783

>  <ref_mols>  (778) 
Z1495a,Z0673a

>  <ref_pdb>  (778) 
Z0673a

>  <HIPPO Compound ID>  (778) 
141918

>  <name>  (778) 
P70208

>  <inspiration_score>  (778) 
None

$$$$
P70211
     RDKit          3D

 30 33  0  0  0  0  0  0  0  0999 V2000
   -9.5125    4.0607  -17.8624 C   0  0  0  0  0  0  0  0  0  0  0  0
   -8.3278    4.2995  -18.7746 C   0  0  0  0  0  0  0  0  0  0  0  0
   -8.0813    5.7029  -18.9329 O   0  0  0  0  0  0  0  0  0  0  0  0
   -6.9516    6.2789  -18.4512 C   0  0  0  0  0  0  0  0  0  0  0  0
   -6.3896    7.2267  -18.9942 O   0  0  0  0  0  0  0  0  0  0  0  0
   -6.5095    5.7540  -17.1750 C   0  0  0  0  0  0  0  0  0  0  0  0
   -7.3667    5.7200  -16.0947 N   0  0  0  0  0  0  0  0  0  0  0  0
   -6.7610    5.1342  -15.1082 C   0  0  0  0  0  0  0  0  0  0  0  0
   -7.2377    4.9781  -13.8721 N   0  0  0  0  0  0  0  0  0  0  0  0
   -8.5315    5.4919  -13.2322 C   0  0  0  0  0  0  0  0  0  0  0  0
   -9.4265    6.0686  -13.6989 O   0  0  0  0  0  0  0  0  0  0  0  0
   -8.4114    5.2027  -11.7912 C   0  0  0  0  0  0  0  0  0  0  0  0
   -8.1381    6.2833  -10.8586 C   0  0  0  0  0  0  0  0  0  0  0  0
   -8.0494    5.9862   -9.5526 C   0  0  0  0  0  0  0  0  0  0  0  0
   -8.2240    4.6620   -9.1445 N   0  0  0  0  0  0  0  0  0  0  0  0
   -8.2120    4.1062   -7.8915 C   0  0  0  0  0  0  0  0  0  0  0  0
   -7.9519    4.9740   -6.2240 Br  0  0  0  0  0  0  0  0  0  0  0  0
   -8.4335    2.7621   -8.0714 C   0  0  0  0  0  0  0  0  0  0  0  0
   -8.6095    2.4740   -9.3981 N   0  0  0  0  0  0  0  0  0  0  0  0
   -8.4707    3.6141  -10.0279 C   0  0  0  0  0  0  0  0  0  0  0  0
   -8.5528    3.9208  -11.4077 C   0  0  0  0  0  0  0  0  0  0  0  0
   -5.2031    4.5523  -15.3722 S   0  0  0  0  0  0  0  0  0  0  0  0
   -5.2679    5.1967  -16.9526 C   0  0  0  0  0  0  0  0  0  0  0  0
   -4.1983    4.9758  -17.9430 C   0  0  0  0  0  0  0  0  0  0  0  0
   -2.8376    5.5591  -17.6977 C   0  0  0  0  0  0  0  0  0  0  0  0
   -2.4918    6.4203  -16.6516 C   0  0  0  0  0  0  0  0  0  0  0  0
   -1.1800    6.8807  -16.5295 C   0  0  0  0  0  0  0  0  0  0  0  0
   -0.2135    6.4954  -17.4573 C   0  0  0  0  0  0  0  0  0  0  0  0
   -0.5543    5.6638  -18.5176 C   0  0  0  0  0  0  0  0  0  0  0  0
   -1.8565    5.1996  -18.6356 C   0  0  0  0  0  0  0  0  0  0  0  0
  1  2  1  0
  2  3  1  0
  3  4  1  0
  4  5  2  0
  4  6  1  0
  6  7  1  0
  7  8  2  0
  8  9  1  0
  9 10  1  0
 10 11  2  0
 10 12  1  0
 12 13  1  0
 13 14  2  0
 14 15  1  0
 15 16  1  0
 16 17  1  0
 16 18  2  0
 18 19  1  0
 19 20  2  0
 20 21  1  0
  8 22  1  0
 22 23  1  0
 23 24  1  0
 24 25  1  0
 25 26  2  0
 26 27  1  0
 27 28  2  0
 28 29  1  0
 29 30  2  0
 23  6  2  0
 30 25  1  0
 21 12  2  0
 20 15  1  0
M  END
>  <energy_score>  (779) 
-66.692249

>  <alias>  (779) 
None

>  <HIPPO Pose ID>  (779) 
70211

>  <smiles>  (779) 
CCOC(=O)c1nc(NC(=O)c2ccn3c(Br)cnc3c2)sc1Cc1ccccc1

>  <inchikey>  (779) 
LNSZGGNFTLHCAD-UHFFFAOYSA-N

>  <distance_score>  (779) 
1.484911

>  <ref_mols>  (779) 
Z1495a,Z0673a

>  <ref_pdb>  (779) 
Z0673a

>  <HIPPO Compound ID>  (779) 
141930

>  <name>  (779) 
P70211

>  <inspiration_score>  (779) 
None

$$$$
P70212
     RDKit          3D

 30 33  0  0  0  0  0  0  0  0999 V2000
   -9.9484    3.8585  -17.9175 C   0  0  0  0  0  0  0  0  0  0  0  0
   -9.1230    4.5558  -18.9712 C   0  0  0  0  0  0  0  0  0  0  0  0
   -7.9194    3.8307  -19.2154 O   0  0  0  0  0  0  0  0  0  0  0  0
   -6.7429    4.4795  -18.9763 C   0  0  0  0  0  0  0  0  0  0  0  0
   -5.8742    4.5372  -19.8405 O   0  0  0  0  0  0  0  0  0  0  0  0
   -6.5244    5.0051  -17.6135 C   0  0  0  0  0  0  0  0  0  0  0  0
   -7.3783    4.7468  -16.5348 N   0  0  0  0  0  0  0  0  0  0  0  0
   -6.7948    5.1162  -15.4311 C   0  0  0  0  0  0  0  0  0  0  0  0
   -7.2090    5.0842  -14.1585 N   0  0  0  0  0  0  0  0  0  0  0  0
   -8.6163    4.9656  -13.5748 C   0  0  0  0  0  0  0  0  0  0  0  0
   -9.6513    4.9533  -14.1006 O   0  0  0  0  0  0  0  0  0  0  0  0
   -8.4448    4.8903  -12.1110 C   0  0  0  0  0  0  0  0  0  0  0  0
   -8.5942    3.6777  -11.5490 C   0  0  0  0  0  0  0  0  0  0  0  0
   -8.4772    3.5609  -10.1411 C   0  0  0  0  0  0  0  0  0  0  0  0
   -8.6186    2.5274   -9.3502 N   0  0  0  0  0  0  0  0  0  0  0  0
   -8.3743    2.9901   -8.0875 C   0  0  0  0  0  0  0  0  0  0  0  0
   -8.1113    4.3414   -8.1019 C   0  0  0  0  0  0  0  0  0  0  0  0
   -8.1795    4.7111   -9.4183 N   0  0  0  0  0  0  0  0  0  0  0  0
   -7.9945    5.9619  -10.0003 C   0  0  0  0  0  0  0  0  0  0  0  0
   -8.1222    6.0679  -11.3296 C   0  0  0  0  0  0  0  0  0  0  0  0
   -7.9432    7.2496  -11.9503 F   0  0  0  0  0  0  0  0  0  0  0  0
   -5.2807    5.8324  -15.5581 S   0  0  0  0  0  0  0  0  0  0  0  0
   -5.4471    5.8052  -17.2532 C   0  0  0  0  0  0  0  0  0  0  0  0
   -4.5091    6.5936  -18.0752 C   0  0  0  0  0  0  0  0  0  0  0  0
   -3.0775    6.1399  -18.0415 C   0  0  0  0  0  0  0  0  0  0  0  0
   -2.1675    6.6859  -17.1218 C   0  0  0  0  0  0  0  0  0  0  0  0
   -0.8107    6.3869  -17.2168 C   0  0  0  0  0  0  0  0  0  0  0  0
   -0.3629    5.5331  -18.2207 C   0  0  0  0  0  0  0  0  0  0  0  0
   -1.2711    4.9372  -19.0958 C   0  0  0  0  0  0  0  0  0  0  0  0
   -2.6260    5.2308  -19.0022 C   0  0  0  0  0  0  0  0  0  0  0  0
  1  2  1  0
  2  3  1  0
  3  4  1  0
  4  5  2  0
  4  6  1  0
  6  7  1  0
  7  8  2  0
  8  9  1  0
  9 10  1  0
 10 11  2  0
 10 12  1  0
 12 13  2  0
 13 14  1  0
 14 15  2  0
 15 16  1  0
 16 17  2  0
 17 18  1  0
 18 19  1  0
 19 20  2  0
 20 21  1  0
  8 22  1  0
 22 23  1  0
 23 24  1  0
 24 25  1  0
 25 26  2  0
 26 27  1  0
 27 28  2  0
 28 29  1  0
 29 30  2  0
 23  6  2  0
 30 25  1  0
 20 12  1  0
 18 14  1  0
M  END
>  <energy_score>  (780) 
-48.452013

>  <alias>  (780) 
None

>  <HIPPO Pose ID>  (780) 
70212

>  <smiles>  (780) 
CCOC(=O)c1nc(NC(=O)c2cc3nccn3cc2F)sc1Cc1ccccc1

>  <inchikey>  (780) 
CEXLZLHRWDRJPH-UHFFFAOYSA-N

>  <distance_score>  (780) 
1.376217

>  <ref_mols>  (780) 
Z1495a,Z0673a

>  <ref_pdb>  (780) 
Z0673a

>  <HIPPO Compound ID>  (780) 
141931

>  <name>  (780) 
P70212

>  <inspiration_score>  (780) 
None

$$$$
P70214
     RDKit          3D

 31 34  0  0  0  0  0  0  0  0999 V2000
  -10.1979    4.5906  -17.8989 C   0  0  0  0  0  0  0  0  0  0  0  0
   -9.2603    3.4596  -18.1840 C   0  0  0  0  0  0  0  0  0  0  0  0
   -8.2431    3.8003  -19.1330 O   0  0  0  0  0  0  0  0  0  0  0  0
   -7.0083    4.3015  -18.8371 C   0  0  0  0  0  0  0  0  0  0  0  0
   -6.1375    4.3393  -19.7027 O   0  0  0  0  0  0  0  0  0  0  0  0
   -6.7661    4.8480  -17.4938 C   0  0  0  0  0  0  0  0  0  0  0  0
   -7.3772    4.3549  -16.3345 N   0  0  0  0  0  0  0  0  0  0  0  0
   -7.1129    5.1486  -15.3403 C   0  0  0  0  0  0  0  0  0  0  0  0
   -7.5160    5.0145  -14.0695 N   0  0  0  0  0  0  0  0  0  0  0  0
   -7.7319    6.0747  -12.9697 C   0  0  0  0  0  0  0  0  0  0  0  0
   -7.6675    7.2386  -13.0183 O   0  0  0  0  0  0  0  0  0  0  0  0
   -7.9632    5.4110  -11.6396 C   0  0  0  0  0  0  0  0  0  0  0  0
   -8.5108    4.1851  -11.4876 C   0  0  0  0  0  0  0  0  0  0  0  0
   -8.6467    3.6262  -10.1875 C   0  0  0  0  0  0  0  0  0  0  0  0
   -9.1171    2.4604   -9.8136 N   0  0  0  0  0  0  0  0  0  0  0  0
   -8.9900    2.4330   -8.4465 C   0  0  0  0  0  0  0  0  0  0  0  0
   -8.5020    3.6281   -7.9924 C   0  0  0  0  0  0  0  0  0  0  0  0
   -8.2170    4.1994   -6.4169 Cl  0  0  0  0  0  0  0  0  0  0  0  0
   -8.2514    4.3949   -9.0969 N   0  0  0  0  0  0  0  0  0  0  0  0
   -7.7194    5.6681   -9.2295 C   0  0  0  0  0  0  0  0  0  0  0  0
   -7.5642    6.1755  -10.4559 C   0  0  0  0  0  0  0  0  0  0  0  0
   -7.0042    7.3945  -10.5865 F   0  0  0  0  0  0  0  0  0  0  0  0
   -6.0449    6.4141  -15.6323 S   0  0  0  0  0  0  0  0  0  0  0  0
   -5.8782    5.8874  -17.2400 C   0  0  0  0  0  0  0  0  0  0  0  0
   -4.9433    6.6208  -18.1212 C   0  0  0  0  0  0  0  0  0  0  0  0
   -3.5020    6.1901  -17.9959 C   0  0  0  0  0  0  0  0  0  0  0  0
   -2.6721    6.7149  -16.9919 C   0  0  0  0  0  0  0  0  0  0  0  0
   -1.3072    6.4355  -16.9895 C   0  0  0  0  0  0  0  0  0  0  0  0
   -0.7666    5.6226  -17.9819 C   0  0  0  0  0  0  0  0  0  0  0  0
   -1.5934    5.0441  -18.9442 C   0  0  0  0  0  0  0  0  0  0  0  0
   -2.9577    5.3195  -18.9475 C   0  0  0  0  0  0  0  0  0  0  0  0
  1  2  1  0
  2  3  1  0
  3  4  1  0
  4  5  2  0
  4  6  1  0
  6  7  1  0
  7  8  2  0
  8  9  1  0
  9 10  1  0
 10 11  2  0
 10 12  1  0
 12 13  2  0
 13 14  1  0
 14 15  2  0
 15 16  1  0
 16 17  2  0
 17 18  1  0
 17 19  1  0
 19 20  1  0
 20 21  2  0
 21 22  1  0
  8 23  1  0
 23 24  1  0
 24 25  1  0
 25 26  1  0
 26 27  2  0
 27 28  1  0
 28 29  2  0
 29 30  1  0
 30 31  2  0
 24  6  2  0
 31 26  1  0
 21 12  1  0
 19 14  1  0
M  END
>  <energy_score>  (781) 
-40.469296

>  <alias>  (781) 
None

>  <HIPPO Pose ID>  (781) 
70214

>  <smiles>  (781) 
CCOC(=O)c1nc(NC(=O)c2cc3ncc(Cl)n3cc2F)sc1Cc1ccccc1

>  <inchikey>  (781) 
VVZYLDUMMADNLQ-UHFFFAOYSA-N

>  <distance_score>  (781) 
1.586864

>  <ref_mols>  (781) 
Z1495a,Z0673a

>  <ref_pdb>  (781) 
Z0673a

>  <HIPPO Compound ID>  (781) 
141942

>  <name>  (781) 
P70214

>  <inspiration_score>  (781) 
None

$$$$
P70215
     RDKit          3D

 31 34  0  0  0  0  0  0  0  0999 V2000
  -10.4280    4.4518  -18.2943 C   0  0  0  0  0  0  0  0  0  0  0  0
   -8.9387    4.3026  -18.1217 C   0  0  0  0  0  0  0  0  0  0  0  0
   -8.3619    3.7492  -19.3174 O   0  0  0  0  0  0  0  0  0  0  0  0
   -7.1094    4.1375  -19.7438 C   0  0  0  0  0  0  0  0  0  0  0  0
   -6.7107    3.7775  -20.8519 O   0  0  0  0  0  0  0  0  0  0  0  0
   -6.3208    4.9593  -18.8120 C   0  0  0  0  0  0  0  0  0  0  0  0
   -6.2581    4.6141  -17.4616 N   0  0  0  0  0  0  0  0  0  0  0  0
   -5.7788    5.5992  -16.7395 C   0  0  0  0  0  0  0  0  0  0  0  0
   -5.9488    5.6184  -15.3250 N   0  0  0  0  0  0  0  0  0  0  0  0
   -4.5770    4.7462  -15.3929 C   0  0  0  0  0  0  0  0  0  0  0  0
   -3.2524    5.3775  -15.8274 C   0  0  0  0  0  0  0  0  0  0  0  0
   -2.5801    6.3048  -15.0218 C   0  0  0  0  0  0  0  0  0  0  0  0
   -1.4018    6.9068  -15.4694 C   0  0  0  0  0  0  0  0  0  0  0  0
   -0.8841    6.5922  -16.7249 C   0  0  0  0  0  0  0  0  0  0  0  0
   -1.5357    5.6652  -17.5323 C   0  0  0  0  0  0  0  0  0  0  0  0
   -2.6996    5.0451  -17.0782 C   0  0  0  0  0  0  0  0  0  0  0  0
   -5.8174    6.6735  -14.3897 C   0  0  0  0  0  0  0  0  0  0  0  0
   -5.4410    7.8086  -14.5355 O   0  0  0  0  0  0  0  0  0  0  0  0
   -6.3559    6.2323  -13.0223 C   0  0  0  0  0  0  0  0  0  0  0  0
   -6.2829    7.1862  -11.9038 C   0  0  0  0  0  0  0  0  0  0  0  0
   -6.7489    6.8384  -10.6908 C   0  0  0  0  0  0  0  0  0  0  0  0
   -7.2882    5.5699  -10.5091 N   0  0  0  0  0  0  0  0  0  0  0  0
   -7.7810    4.9802   -9.3753 C   0  0  0  0  0  0  0  0  0  0  0  0
   -8.1431    3.7012   -9.7472 C   0  0  0  0  0  0  0  0  0  0  0  0
   -8.7000    2.6132   -8.9094 C   0  0  0  0  0  0  0  0  0  0  0  0
   -7.9024    3.5076  -11.0910 N   0  0  0  0  0  0  0  0  0  0  0  0
   -7.3916    4.6366  -11.5289 C   0  0  0  0  0  0  0  0  0  0  0  0
   -6.9248    5.0166  -12.8216 C   0  0  0  0  0  0  0  0  0  0  0  0
   -5.4020    7.0140  -17.6364 S   0  0  0  0  0  0  0  0  0  0  0  0
   -5.6668    6.1449  -19.1084 C   0  0  0  0  0  0  0  0  0  0  0  0
   -5.3421    6.7761  -20.4132 C   0  0  0  0  0  0  0  0  0  0  0  0
  1  2  1  0
  2  3  1  0
  3  4  1  0
  4  5  2  0
  4  6  1  0
  6  7  1  0
  7  8  2  0
  8  9  1  0
  9 10  1  0
 10 11  1  0
 11 12  2  0
 12 13  1  0
 13 14  2  0
 14 15  1  0
 15 16  2  0
  9 17  1  0
 17 18  2  0
 17 19  1  0
 19 20  1  0
 20 21  2  0
 21 22  1  0
 22 23  1  0
 23 24  2  0
 24 25  1  0
 24 26  1  0
 26 27  2  0
 27 28  1  0
  8 29  1  0
 29 30  1  0
 30 31  1  0
 30  6  2  0
 16 11  1  0
 28 19  2  0
 27 22  1  0
M  END
>  <energy_score>  (782) 
-3.672131

>  <alias>  (782) 
None

>  <HIPPO Pose ID>  (782) 
70215

>  <smiles>  (782) 
CCOC(=O)c1nc(N(Cc2ccccc2)C(=O)c2ccn3cc(C)nc3c2)sc1C

>  <inchikey>  (782) 
RUETWCGPFJRUIU-UHFFFAOYSA-N

>  <distance_score>  (782) 
1.711123

>  <ref_mols>  (782) 
Z1495a,Z0673a

>  <ref_pdb>  (782) 
Z0673a

>  <HIPPO Compound ID>  (782) 
141943

>  <name>  (782) 
P70215

>  <inspiration_score>  (782) 
None

$$$$
P70217
     RDKit          3D

 28 31  0  0  0  0  0  0  0  0999 V2000
   -5.9570    3.9527  -20.3654 O   0  0  0  0  0  0  0  0  0  0  0  0
   -5.3393    4.7417  -19.7583 C   0  0  0  0  0  0  0  0  0  0  0  0
   -5.6209    5.3949  -18.3712 N   0  0  0  0  0  0  0  0  0  0  0  0
   -6.6378    5.1468  -17.4378 C   0  0  0  0  0  0  0  0  0  0  0  0
   -6.4199    5.4776  -16.0883 C   0  0  0  0  0  0  0  0  0  0  0  0
   -7.4173    5.2481  -15.1223 C   0  0  0  0  0  0  0  0  0  0  0  0
   -7.3174    5.7490  -13.7078 C   0  0  0  0  0  0  0  0  0  0  0  0
   -6.2371    5.2684  -13.0443 F   0  0  0  0  0  0  0  0  0  0  0  0
   -8.4068    5.4452  -12.9442 F   0  0  0  0  0  0  0  0  0  0  0  0
   -7.2225    7.1090  -13.6626 F   0  0  0  0  0  0  0  0  0  0  0  0
   -8.5976    4.6355  -15.5111 C   0  0  0  0  0  0  0  0  0  0  0  0
   -8.8451    4.4435  -16.8563 C   0  0  0  0  0  0  0  0  0  0  0  0
  -10.1332    4.1585  -17.2289 C   0  0  0  0  0  0  0  0  0  0  0  0
  -10.5297    4.3479  -18.5164 C   0  0  0  0  0  0  0  0  0  0  0  0
   -9.5427    4.5326  -19.4401 C   0  0  0  0  0  0  0  0  0  0  0  0
   -8.2449    4.6390  -19.1290 N   0  0  0  0  0  0  0  0  0  0  0  0
   -7.8910    4.6917  -17.8454 C   0  0  0  0  0  0  0  0  0  0  0  0
   -4.0955    5.2344  -20.3970 C   0  0  0  0  0  0  0  0  0  0  0  0
   -4.2168    5.5168  -21.7597 C   0  0  0  0  0  0  0  0  0  0  0  0
   -3.1048    5.9621  -22.4270 C   0  0  0  0  0  0  0  0  0  0  0  0
   -1.9223    6.1792  -21.8241 N   0  0  0  0  0  0  0  0  0  0  0  0
   -1.8019    5.9057  -20.5164 C   0  0  0  0  0  0  0  0  0  0  0  0
   -0.5823    6.1809  -19.9229 C   0  0  0  0  0  0  0  0  0  0  0  0
   -0.3867    5.9747  -18.5669 C   0  0  0  0  0  0  0  0  0  0  0  0
    0.7891    6.2889  -18.0080 F   0  0  0  0  0  0  0  0  0  0  0  0
   -1.3899    5.4353  -17.7826 C   0  0  0  0  0  0  0  0  0  0  0  0
   -2.5994    5.0791  -18.3718 C   0  0  0  0  0  0  0  0  0  0  0  0
   -2.8577    5.3887  -19.7322 C   0  0  0  0  0  0  0  0  0  0  0  0
  1  2  2  0
  2  3  1  0
  3  4  1  0
  4  5  2  0
  5  6  1  0
  6  7  1  0
  7  8  1  0
  7  9  1  0
  7 10  1  0
  6 11  2  0
 11 12  1  0
 12 13  2  0
 13 14  1  0
 14 15  2  0
 15 16  1  0
 16 17  2  0
  2 18  1  0
 18 19  2  0
 19 20  1  0
 20 21  2  0
 21 22  1  0
 22 23  2  0
 23 24  1  0
 24 25  1  0
 24 26  2  0
 26 27  1  0
 27 28  2  0
 17  4  1  0
 28 18  1  0
 17 12  1  0
 28 22  1  0
M  END
>  <energy_score>  (783) 
-2.104687

>  <alias>  (783) 
None

>  <HIPPO Pose ID>  (783) 
70217

>  <smiles>  (783) 
O=C(Nc1cc(C(F)(F)F)cc2cccnc12)c1ccnc2cc(F)ccc12

>  <inchikey>  (783) 
OXSATTQGNPDTSM-UHFFFAOYSA-N

>  <distance_score>  (783) 
1.065807

>  <ref_mols>  (783) 
Z0917a,Z0852a

>  <ref_pdb>  (783) 
Z0852a

>  <HIPPO Compound ID>  (783) 
142107

>  <name>  (783) 
P70217

>  <inspiration_score>  (783) 
None

$$$$
P70218
     RDKit          3D

 28 31  0  0  0  0  0  0  0  0999 V2000
   -5.7282    6.4371  -13.6455 C   0  0  0  0  0  0  0  0  0  0  0  0
   -7.0543    5.6975  -13.8014 C   0  0  0  0  0  0  0  0  0  0  0  0
   -8.1560    6.6868  -13.3651 C   0  0  0  0  0  0  0  0  0  0  0  0
   -7.0451    4.4948  -12.8478 C   0  0  0  0  0  0  0  0  0  0  0  0
   -7.2666    5.2265  -15.2378 C   0  0  0  0  0  0  0  0  0  0  0  0
   -6.3157    5.3846  -16.2633 C   0  0  0  0  0  0  0  0  0  0  0  0
   -6.5914    5.0444  -17.5978 C   0  0  0  0  0  0  0  0  0  0  0  0
   -5.5557    5.2338  -18.5213 N   0  0  0  0  0  0  0  0  0  0  0  0
   -5.3737    4.6788  -19.9620 C   0  0  0  0  0  0  0  0  0  0  0  0
   -6.0228    3.9170  -20.5694 O   0  0  0  0  0  0  0  0  0  0  0  0
   -4.1445    5.2014  -20.6129 C   0  0  0  0  0  0  0  0  0  0  0  0
   -4.2999    5.5385  -21.9568 C   0  0  0  0  0  0  0  0  0  0  0  0
   -3.2037    6.0114  -22.6316 C   0  0  0  0  0  0  0  0  0  0  0  0
   -2.0063    6.2080  -22.0510 N   0  0  0  0  0  0  0  0  0  0  0  0
   -1.8554    5.8950  -20.7565 C   0  0  0  0  0  0  0  0  0  0  0  0
   -0.6239    6.1657  -20.1860 C   0  0  0  0  0  0  0  0  0  0  0  0
   -0.3961    5.9330  -18.8403 C   0  0  0  0  0  0  0  0  0  0  0  0
    0.7869    6.2511  -18.2991 F   0  0  0  0  0  0  0  0  0  0  0  0
   -1.3782    5.3709  -18.0471 C   0  0  0  0  0  0  0  0  0  0  0  0
   -2.5956    5.0119  -18.6180 C   0  0  0  0  0  0  0  0  0  0  0  0
   -2.8907    5.3476  -19.9662 C   0  0  0  0  0  0  0  0  0  0  0  0
   -7.8674    4.6336  -17.9475 C   0  0  0  0  0  0  0  0  0  0  0  0
   -8.2683    4.5746  -19.2145 N   0  0  0  0  0  0  0  0  0  0  0  0
   -9.5805    4.5127  -19.4670 C   0  0  0  0  0  0  0  0  0  0  0  0
  -10.5356    4.3470  -18.5037 C   0  0  0  0  0  0  0  0  0  0  0  0
  -10.0933    4.1690  -17.2283 C   0  0  0  0  0  0  0  0  0  0  0  0
   -8.7865    4.4359  -16.9131 C   0  0  0  0  0  0  0  0  0  0  0  0
   -8.4796    4.6470  -15.5793 C   0  0  0  0  0  0  0  0  0  0  0  0
  1  2  1  0
  2  3  1  0
  2  4  1  0
  2  5  1  0
  5  6  2  0
  6  7  1  0
  7  8  1  0
  8  9  1  0
  9 10  2  0
  9 11  1  0
 11 12  2  0
 12 13  1  0
 13 14  2  0
 14 15  1  0
 15 16  2  0
 16 17  1  0
 17 18  1  0
 17 19  2  0
 19 20  1  0
 20 21  2  0
  7 22  2  0
 22 23  1  0
 23 24  2  0
 24 25  1  0
 25 26  2  0
 26 27  1  0
 27 28  2  0
 28  5  1  0
 21 11  1  0
 27 22  1  0
 21 15  1  0
M  END
>  <energy_score>  (784) 
-9.295926

>  <alias>  (784) 
None

>  <HIPPO Pose ID>  (784) 
70218

>  <smiles>  (784) 
CC(C)(C)c1cc(NC(=O)c2ccnc3cc(F)ccc23)c2ncccc2c1

>  <inchikey>  (784) 
SJYVBHJKFUUMKM-UHFFFAOYSA-N

>  <distance_score>  (784) 
1.283674

>  <ref_mols>  (784) 
Z0917a,Z0852a

>  <ref_pdb>  (784) 
Z0852a

>  <HIPPO Compound ID>  (784) 
142108

>  <name>  (784) 
P70218

>  <inspiration_score>  (784) 
None

$$$$
P70219
     RDKit          3D

 28 31  0  0  0  0  0  0  0  0999 V2000
   -6.2281    4.7758  -11.6219 C   0  0  0  0  0  0  0  0  0  0  0  0
   -6.7653    4.7523  -12.9443 O   0  0  0  0  0  0  0  0  0  0  0  0
   -5.8655    5.0287  -13.9183 C   0  0  0  0  0  0  0  0  0  0  0  0
   -4.6966    5.3398  -13.7495 O   0  0  0  0  0  0  0  0  0  0  0  0
   -6.4970    4.9246  -15.2598 C   0  0  0  0  0  0  0  0  0  0  0  0
   -5.7360    5.2560  -16.3830 C   0  0  0  0  0  0  0  0  0  0  0  0
   -6.2507    5.1212  -17.6847 C   0  0  0  0  0  0  0  0  0  0  0  0
   -5.3433    5.4089  -18.7180 N   0  0  0  0  0  0  0  0  0  0  0  0
   -5.2641    4.8648  -20.1742 C   0  0  0  0  0  0  0  0  0  0  0  0
   -5.9873    4.1534  -20.7588 O   0  0  0  0  0  0  0  0  0  0  0  0
   -3.9895    5.2823  -20.8342 C   0  0  0  0  0  0  0  0  0  0  0  0
   -2.7652    4.9929  -20.2297 C   0  0  0  0  0  0  0  0  0  0  0  0
   -2.5642    4.3003  -18.4904 Br  0  0  0  0  0  0  0  0  0  0  0  0
   -1.6148    5.2511  -20.9457 C   0  0  0  0  0  0  0  0  0  0  0  0
   -1.6052    5.8022  -22.1763 N   0  0  0  0  0  0  0  0  0  0  0  0
   -2.7751    6.1021  -22.7510 C   0  0  0  0  0  0  0  0  0  0  0  0
   -2.7452    6.6759  -24.0159 C   0  0  0  0  0  0  0  0  0  0  0  0
   -3.9100    7.0461  -24.6889 C   0  0  0  0  0  0  0  0  0  0  0  0
   -5.1379    6.8436  -24.0823 C   0  0  0  0  0  0  0  0  0  0  0  0
   -5.1835    6.2658  -22.8142 C   0  0  0  0  0  0  0  0  0  0  0  0
   -4.0146    5.8721  -22.1246 C   0  0  0  0  0  0  0  0  0  0  0  0
   -7.5781    4.7360  -17.8756 C   0  0  0  0  0  0  0  0  0  0  0  0
   -8.1493    4.7258  -19.0811 N   0  0  0  0  0  0  0  0  0  0  0  0
   -9.4711    4.5155  -19.1855 C   0  0  0  0  0  0  0  0  0  0  0  0
  -10.2831    4.2301  -18.1180 C   0  0  0  0  0  0  0  0  0  0  0  0
   -9.6852    4.1527  -16.8797 C   0  0  0  0  0  0  0  0  0  0  0  0
   -8.3442    4.4522  -16.7289 C   0  0  0  0  0  0  0  0  0  0  0  0
   -7.8095    4.5062  -15.4400 C   0  0  0  0  0  0  0  0  0  0  0  0
  1  2  1  0
  2  3  1  0
  3  4  2  0
  3  5  1  0
  5  6  2  0
  6  7  1  0
  7  8  1  0
  8  9  1  0
  9 10  2  0
  9 11  1  0
 11 12  2  0
 12 13  1  0
 12 14  1  0
 14 15  2  0
 15 16  1  0
 16 17  2  0
 17 18  1  0
 18 19  2  0
 19 20  1  0
 20 21  2  0
  7 22  2  0
 22 23  1  0
 23 24  2  0
 24 25  1  0
 25 26  2  0
 26 27  1  0
 27 28  2  0
 28  5  1  0
 21 11  1  0
 27 22  1  0
 21 16  1  0
M  END
>  <energy_score>  (785) 
-4.937393

>  <alias>  (785) 
None

>  <HIPPO Pose ID>  (785) 
70219

>  <smiles>  (785) 
COC(=O)c1cc(NC(=O)c2c(Br)cnc3ccccc23)c2ncccc2c1

>  <inchikey>  (785) 
YBGICKOCCAKDBJ-UHFFFAOYSA-N

>  <distance_score>  (785) 
1.560306

>  <ref_mols>  (785) 
Z0917a,Z0852a

>  <ref_pdb>  (785) 
Z0852a

>  <HIPPO Compound ID>  (785) 
142119

>  <name>  (785) 
P70219

>  <inspiration_score>  (785) 
None

$$$$
P70220
     RDKit          3D

 28 31  0  0  0  0  0  0  0  0999 V2000
   -5.9785    4.1376  -20.5457 O   0  0  0  0  0  0  0  0  0  0  0  0
   -5.3305    4.8681  -19.8960 C   0  0  0  0  0  0  0  0  0  0  0  0
   -5.5823    5.4452  -18.4641 N   0  0  0  0  0  0  0  0  0  0  0  0
   -6.6063    5.1711  -17.5337 C   0  0  0  0  0  0  0  0  0  0  0  0
   -6.3791    5.4971  -16.1791 C   0  0  0  0  0  0  0  0  0  0  0  0
   -7.3617    5.2622  -15.1958 C   0  0  0  0  0  0  0  0  0  0  0  0
   -7.2546    5.7632  -13.7802 C   0  0  0  0  0  0  0  0  0  0  0  0
   -8.3417    5.4585  -13.0117 F   0  0  0  0  0  0  0  0  0  0  0  0
   -6.1733    5.2818  -13.1197 F   0  0  0  0  0  0  0  0  0  0  0  0
   -7.1621    7.1232  -13.7336 F   0  0  0  0  0  0  0  0  0  0  0  0
   -8.5421    4.6439  -15.5682 C   0  0  0  0  0  0  0  0  0  0  0  0
   -8.8021    4.4498  -16.9087 C   0  0  0  0  0  0  0  0  0  0  0  0
  -10.0985    4.1669  -17.2510 C   0  0  0  0  0  0  0  0  0  0  0  0
  -10.5138    4.3483  -18.5328 C   0  0  0  0  0  0  0  0  0  0  0  0
   -9.5387    4.5156  -19.4740 C   0  0  0  0  0  0  0  0  0  0  0  0
   -8.2338    4.6145  -19.1892 N   0  0  0  0  0  0  0  0  0  0  0  0
   -7.8598    4.6961  -17.9159 C   0  0  0  0  0  0  0  0  0  0  0  0
   -4.0284    5.3101  -20.4735 C   0  0  0  0  0  0  0  0  0  0  0  0
   -2.8455    5.0599  -19.7839 C   0  0  0  0  0  0  0  0  0  0  0  0
   -2.7706    4.4360  -18.0098 Br  0  0  0  0  0  0  0  0  0  0  0  0
   -1.6555    5.3025  -20.4396 C   0  0  0  0  0  0  0  0  0  0  0  0
   -1.5734    5.8098  -21.6872 N   0  0  0  0  0  0  0  0  0  0  0  0
   -2.7064    6.0730  -22.3470 C   0  0  0  0  0  0  0  0  0  0  0  0
   -2.6015    6.6039  -23.6268 C   0  0  0  0  0  0  0  0  0  0  0  0
   -3.7245    6.9356  -24.3849 C   0  0  0  0  0  0  0  0  0  0  0  0
   -4.9861    6.7317  -23.8528 C   0  0  0  0  0  0  0  0  0  0  0  0
   -5.1059    6.1910  -22.5728 C   0  0  0  0  0  0  0  0  0  0  0  0
   -3.9794    5.8466  -21.7910 C   0  0  0  0  0  0  0  0  0  0  0  0
  1  2  2  0
  2  3  1  0
  3  4  1  0
  4  5  2  0
  5  6  1  0
  6  7  1  0
  7  8  1  0
  7  9  1  0
  7 10  1  0
  6 11  2  0
 11 12  1  0
 12 13  2  0
 13 14  1  0
 14 15  2  0
 15 16  1  0
 16 17  2  0
  2 18  1  0
 18 19  2  0
 19 20  1  0
 19 21  1  0
 21 22  2  0
 22 23  1  0
 23 24  2  0
 24 25  1  0
 25 26  2  0
 26 27  1  0
 27 28  2  0
 17  4  1  0
 28 18  1  0
 17 12  1  0
 28 23  1  0
M  END
>  <energy_score>  (786) 
-15.780713

>  <alias>  (786) 
None

>  <HIPPO Pose ID>  (786) 
70220

>  <smiles>  (786) 
O=C(Nc1cc(C(F)(F)F)cc2cccnc12)c1c(Br)cnc2ccccc12

>  <inchikey>  (786) 
RBKQQVLCSOWABW-UHFFFAOYSA-N

>  <distance_score>  (786) 
0.956449

>  <ref_mols>  (786) 
Z0917a,Z0852a

>  <ref_pdb>  (786) 
Z0852a

>  <HIPPO Compound ID>  (786) 
142120

>  <name>  (786) 
P70220

>  <inspiration_score>  (786) 
None

$$$$
P70221
     RDKit          3D

 28 31  0  0  0  0  0  0  0  0999 V2000
   -8.3508    6.8122  -13.6626 C   0  0  0  0  0  0  0  0  0  0  0  0
   -7.3433    5.6642  -13.7892 C   0  0  0  0  0  0  0  0  0  0  0  0
   -5.9847    6.2388  -13.3803 C   0  0  0  0  0  0  0  0  0  0  0  0
   -7.7423    4.5700  -12.7805 C   0  0  0  0  0  0  0  0  0  0  0  0
   -7.3901    5.1554  -15.2322 C   0  0  0  0  0  0  0  0  0  0  0  0
   -6.4021    5.3795  -16.2130 C   0  0  0  0  0  0  0  0  0  0  0  0
   -6.6230    5.0748  -17.5770 C   0  0  0  0  0  0  0  0  0  0  0  0
   -5.5923    5.3682  -18.4946 N   0  0  0  0  0  0  0  0  0  0  0  0
   -5.3308    4.8217  -19.9357 C   0  0  0  0  0  0  0  0  0  0  0  0
   -5.9743    4.1053  -20.6052 O   0  0  0  0  0  0  0  0  0  0  0  0
   -4.0294    5.2854  -20.4996 C   0  0  0  0  0  0  0  0  0  0  0  0
   -2.8462    5.0479  -19.8057 C   0  0  0  0  0  0  0  0  0  0  0  0
   -2.7659    4.4287  -18.0304 Br  0  0  0  0  0  0  0  0  0  0  0  0
   -1.6564    5.3016  -20.4579 C   0  0  0  0  0  0  0  0  0  0  0  0
   -1.5741    5.8077  -21.7060 N   0  0  0  0  0  0  0  0  0  0  0  0
   -2.7075    6.0693  -22.3656 C   0  0  0  0  0  0  0  0  0  0  0  0
   -2.6028    6.6090  -23.6417 C   0  0  0  0  0  0  0  0  0  0  0  0
   -3.7259    6.9410  -24.3995 C   0  0  0  0  0  0  0  0  0  0  0  0
   -4.9873    6.7285  -23.8706 C   0  0  0  0  0  0  0  0  0  0  0  0
   -5.1069    6.1784  -22.5946 C   0  0  0  0  0  0  0  0  0  0  0  0
   -3.9802    5.8323  -21.8133 C   0  0  0  0  0  0  0  0  0  0  0  0
   -7.8781    4.6259  -17.9784 C   0  0  0  0  0  0  0  0  0  0  0  0
   -8.2443    4.5619  -19.2550 N   0  0  0  0  0  0  0  0  0  0  0  0
   -9.5520    4.5251  -19.5418 C   0  0  0  0  0  0  0  0  0  0  0  0
  -10.5407    4.4031  -18.6090 C   0  0  0  0  0  0  0  0  0  0  0  0
  -10.1412    4.1748  -17.3328 C   0  0  0  0  0  0  0  0  0  0  0  0
   -8.8329    4.3932  -16.9851 C   0  0  0  0  0  0  0  0  0  0  0  0
   -8.5727    4.5551  -15.6430 C   0  0  0  0  0  0  0  0  0  0  0  0
  1  2  1  0
  2  3  1  0
  2  4  1  0
  2  5  1  0
  5  6  2  0
  6  7  1  0
  7  8  1  0
  8  9  1  0
  9 10  2  0
  9 11  1  0
 11 12  2  0
 12 13  1  0
 12 14  1  0
 14 15  2  0
 15 16  1  0
 16 17  2  0
 17 18  1  0
 18 19  2  0
 19 20  1  0
 20 21  2  0
  7 22  2  0
 22 23  1  0
 23 24  2  0
 24 25  1  0
 25 26  2  0
 26 27  1  0
 27 28  2  0
 28  5  1  0
 21 11  1  0
 27 22  1  0
 21 16  1  0
M  END
>  <energy_score>  (787) 
-31.849167

>  <alias>  (787) 
None

>  <HIPPO Pose ID>  (787) 
70221

>  <smiles>  (787) 
CC(C)(C)c1cc(NC(=O)c2c(Br)cnc3ccccc23)c2ncccc2c1

>  <inchikey>  (787) 
MZKBEUQLKIEFQF-UHFFFAOYSA-N

>  <distance_score>  (787) 
1.331766

>  <ref_mols>  (787) 
Z0917a,Z0852a

>  <ref_pdb>  (787) 
Z0852a

>  <HIPPO Compound ID>  (787) 
142121

>  <name>  (787) 
P70221

>  <inspiration_score>  (787) 
None

$$$$
P70222
     RDKit          3D

 28 31  0  0  0  0  0  0  0  0999 V2000
    0.9151    6.3170  -18.0963 C   0  0  0  0  0  0  0  0  0  0  0  0
   -0.4201    5.9946  -18.6951 C   0  0  0  0  0  0  0  0  0  0  0  0
   -1.4121    5.3812  -17.9396 C   0  0  0  0  0  0  0  0  0  0  0  0
   -2.6151    5.0034  -18.5340 C   0  0  0  0  0  0  0  0  0  0  0  0
   -2.9130    5.3600  -19.8743 C   0  0  0  0  0  0  0  0  0  0  0  0
   -4.1589    5.2011  -20.5315 C   0  0  0  0  0  0  0  0  0  0  0  0
   -5.3863    4.6472  -19.9039 C   0  0  0  0  0  0  0  0  0  0  0  0
   -5.9987    3.8742  -20.5364 O   0  0  0  0  0  0  0  0  0  0  0  0
   -5.6087    5.1653  -18.4535 N   0  0  0  0  0  0  0  0  0  0  0  0
   -6.6485    4.9185  -17.5497 C   0  0  0  0  0  0  0  0  0  0  0  0
   -6.3996    5.1692  -16.1901 C   0  0  0  0  0  0  0  0  0  0  0  0
   -7.3938    4.9896  -15.2063 C   0  0  0  0  0  0  0  0  0  0  0  0
   -7.1970    5.4579  -13.7660 C   0  0  0  0  0  0  0  0  0  0  0  0
   -8.4343    5.2897  -12.8550 C   0  0  0  0  0  0  0  0  0  0  0  0
   -6.0346    4.7043  -13.1138 C   0  0  0  0  0  0  0  0  0  0  0  0
   -6.8895    6.9577  -13.8158 C   0  0  0  0  0  0  0  0  0  0  0  0
   -8.6151    4.4840  -15.6177 C   0  0  0  0  0  0  0  0  0  0  0  0
   -8.8877    4.3561  -16.9672 C   0  0  0  0  0  0  0  0  0  0  0  0
  -10.1983    4.1794  -17.3330 C   0  0  0  0  0  0  0  0  0  0  0  0
  -10.5873    4.4368  -18.6081 C   0  0  0  0  0  0  0  0  0  0  0  0
   -9.5930    4.5608  -19.5333 C   0  0  0  0  0  0  0  0  0  0  0  0
   -8.2877    4.5557  -19.2396 N   0  0  0  0  0  0  0  0  0  0  0  0
   -7.9258    4.5605  -17.9587 C   0  0  0  0  0  0  0  0  0  0  0  0
   -4.3062    5.5459  -21.8760 C   0  0  0  0  0  0  0  0  0  0  0  0
   -3.2122    6.0421  -22.5368 C   0  0  0  0  0  0  0  0  0  0  0  0
   -2.0252    6.2554  -21.9422 N   0  0  0  0  0  0  0  0  0  0  0  0
   -1.8849    5.9364  -20.6465 C   0  0  0  0  0  0  0  0  0  0  0  0
   -0.6640    6.2239  -20.0524 C   0  0  0  0  0  0  0  0  0  0  0  0
  1  2  1  0
  2  3  2  0
  3  4  1  0
  4  5  2  0
  5  6  1  0
  6  7  1  0
  7  8  2  0
  7  9  1  0
  9 10  1  0
 10 11  2  0
 11 12  1  0
 12 13  1  0
 13 14  1  0
 13 15  1  0
 13 16  1  0
 12 17  2  0
 17 18  1  0
 18 19  2  0
 19 20  1  0
 20 21  2  0
 21 22  1  0
 22 23  2  0
  6 24  2  0
 24 25  1  0
 25 26  2  0
 26 27  1  0
 27 28  2  0
 28  2  1  0
 27  5  1  0
 23 10  1  0
 23 18  1  0
M  END
>  <energy_score>  (788) 
-11.101103

>  <alias>  (788) 
None

>  <HIPPO Pose ID>  (788) 
70222

>  <smiles>  (788) 
Cc1ccc2c(C(=O)Nc3cc(C(C)(C)C)cc4cccnc34)ccnc2c1

>  <inchikey>  (788) 
YKMUWUWIFHTGOJ-UHFFFAOYSA-N

>  <distance_score>  (788) 
1.141246

>  <ref_mols>  (788) 
Z0917a,Z0852a

>  <ref_pdb>  (788) 
Z0852a

>  <HIPPO Compound ID>  (788) 
142123

>  <name>  (788) 
P70222

>  <inspiration_score>  (788) 
None

$$$$
P70223
     RDKit          3D

 28 31  0  0  0  0  0  0  0  0999 V2000
   -6.4833    4.9613  -11.4638 C   0  0  0  0  0  0  0  0  0  0  0  0
   -6.9650    4.8515  -12.8032 O   0  0  0  0  0  0  0  0  0  0  0  0
   -6.0138    5.0344  -13.7516 C   0  0  0  0  0  0  0  0  0  0  0  0
   -4.8378    5.2925  -13.5467 O   0  0  0  0  0  0  0  0  0  0  0  0
   -6.5974    4.9103  -15.1124 C   0  0  0  0  0  0  0  0  0  0  0  0
   -5.7916    5.2094  -16.2117 C   0  0  0  0  0  0  0  0  0  0  0  0
   -6.2749    5.0642  -17.5208 C   0  0  0  0  0  0  0  0  0  0  0  0
   -5.3474    5.2907  -18.5391 N   0  0  0  0  0  0  0  0  0  0  0  0
   -5.2870    4.7393  -19.9879 C   0  0  0  0  0  0  0  0  0  0  0  0
   -5.9613    3.9507  -20.5278 O   0  0  0  0  0  0  0  0  0  0  0  0
   -4.1128    5.2556  -20.7324 C   0  0  0  0  0  0  0  0  0  0  0  0
   -4.3822    5.6158  -22.0496 C   0  0  0  0  0  0  0  0  0  0  0  0
   -3.3367    6.0938  -22.7914 C   0  0  0  0  0  0  0  0  0  0  0  0
   -3.5605    6.5847  -24.4196 Cl  0  0  0  0  0  0  0  0  0  0  0  0
   -2.0930    6.2757  -22.3210 N   0  0  0  0  0  0  0  0  0  0  0  0
   -1.8398    5.9379  -21.0518 C   0  0  0  0  0  0  0  0  0  0  0  0
   -0.5629    6.1963  -20.5792 C   0  0  0  0  0  0  0  0  0  0  0  0
   -0.2056    5.9471  -19.2583 C   0  0  0  0  0  0  0  0  0  0  0  0
   -1.1293    5.3685  -18.4055 C   0  0  0  0  0  0  0  0  0  0  0  0
   -2.3924    5.0179  -18.8795 C   0  0  0  0  0  0  0  0  0  0  0  0
   -2.8058    5.3801  -20.1892 C   0  0  0  0  0  0  0  0  0  0  0  0
   -7.6043    4.7166  -17.7590 C   0  0  0  0  0  0  0  0  0  0  0  0
   -8.1377    4.7355  -18.9856 N   0  0  0  0  0  0  0  0  0  0  0  0
   -9.4536    4.5205  -19.1390 C   0  0  0  0  0  0  0  0  0  0  0  0
  -10.2954    4.2225  -18.0998 C   0  0  0  0  0  0  0  0  0  0  0  0
   -9.7354    4.1399  -16.8432 C   0  0  0  0  0  0  0  0  0  0  0  0
   -8.4034    4.4414  -16.6399 C   0  0  0  0  0  0  0  0  0  0  0  0
   -7.9083    4.5023  -15.3331 C   0  0  0  0  0  0  0  0  0  0  0  0
  1  2  1  0
  2  3  1  0
  3  4  2  0
  3  5  1  0
  5  6  2  0
  6  7  1  0
  7  8  1  0
  8  9  1  0
  9 10  2  0
  9 11  1  0
 11 12  2  0
 12 13  1  0
 13 14  1  0
 13 15  2  0
 15 16  1  0
 16 17  2  0
 17 18  1  0
 18 19  2  0
 19 20  1  0
 20 21  2  0
  7 22  2  0
 22 23  1  0
 23 24  2  0
 24 25  1  0
 25 26  2  0
 26 27  1  0
 27 28  2  0
 28  5  1  0
 21 11  1  0
 27 22  1  0
 21 16  1  0
M  END
>  <energy_score>  (789) 
-16.240935

>  <alias>  (789) 
None

>  <HIPPO Pose ID>  (789) 
70223

>  <smiles>  (789) 
COC(=O)c1cc(NC(=O)c2cc(Cl)nc3ccccc23)c2ncccc2c1

>  <inchikey>  (789) 
ZDRSAFDUAVWMKG-UHFFFAOYSA-N

>  <distance_score>  (789) 
1.629656

>  <ref_mols>  (789) 
Z0917a,Z0852a

>  <ref_pdb>  (789) 
Z0852a

>  <HIPPO Compound ID>  (789) 
142124

>  <name>  (789) 
P70223

>  <inspiration_score>  (789) 
None

$$$$
P70224
     RDKit          3D

 28 31  0  0  0  0  0  0  0  0999 V2000
   -5.9296    3.9205  -20.3438 O   0  0  0  0  0  0  0  0  0  0  0  0
   -5.3262    4.7221  -19.7393 C   0  0  0  0  0  0  0  0  0  0  0  0
   -5.5683    5.3057  -18.3153 N   0  0  0  0  0  0  0  0  0  0  0  0
   -6.6215    5.0983  -17.4138 C   0  0  0  0  0  0  0  0  0  0  0  0
   -6.4188    5.4308  -16.0620 C   0  0  0  0  0  0  0  0  0  0  0  0
   -7.4344    5.2279  -15.1106 C   0  0  0  0  0  0  0  0  0  0  0  0
   -7.3409    5.7301  -13.6965 C   0  0  0  0  0  0  0  0  0  0  0  0
   -7.2481    7.0905  -13.6530 F   0  0  0  0  0  0  0  0  0  0  0  0
   -6.2618    5.2528  -13.0283 F   0  0  0  0  0  0  0  0  0  0  0  0
   -8.4325    5.4255  -12.9368 F   0  0  0  0  0  0  0  0  0  0  0  0
   -8.6215    4.6401  -15.5159 C   0  0  0  0  0  0  0  0  0  0  0  0
   -8.8520    4.4451  -16.8641 C   0  0  0  0  0  0  0  0  0  0  0  0
  -10.1392    4.1783  -17.2541 C   0  0  0  0  0  0  0  0  0  0  0  0
  -10.5121    4.3658  -18.5478 C   0  0  0  0  0  0  0  0  0  0  0  0
   -9.5079    4.5190  -19.4582 C   0  0  0  0  0  0  0  0  0  0  0  0
   -8.2128    4.6102  -19.1294 N   0  0  0  0  0  0  0  0  0  0  0  0
   -7.8776    4.6688  -17.8406 C   0  0  0  0  0  0  0  0  0  0  0  0
   -4.1090    5.2503  -20.3980 C   0  0  0  0  0  0  0  0  0  0  0  0
   -4.2709    5.5461  -21.7525 C   0  0  0  0  0  0  0  0  0  0  0  0
   -3.1776    6.0147  -22.4287 C   0  0  0  0  0  0  0  0  0  0  0  0
   -3.2733    6.4283  -24.0899 Cl  0  0  0  0  0  0  0  0  0  0  0  0
   -1.9824    6.2451  -21.8633 N   0  0  0  0  0  0  0  0  0  0  0  0
   -1.8300    5.9581  -20.5640 C   0  0  0  0  0  0  0  0  0  0  0  0
   -0.6002    6.2451  -19.9918 C   0  0  0  0  0  0  0  0  0  0  0  0
   -0.3500    6.0317  -18.6383 C   0  0  0  0  0  0  0  0  0  0  0  0
   -1.3339    5.4628  -17.8466 C   0  0  0  0  0  0  0  0  0  0  0  0
   -2.5530    5.0956  -18.4130 C   0  0  0  0  0  0  0  0  0  0  0  0
   -2.8563    5.4165  -19.7613 C   0  0  0  0  0  0  0  0  0  0  0  0
  1  2  2  0
  2  3  1  0
  3  4  1  0
  4  5  2  0
  5  6  1  0
  6  7  1  0
  7  8  1  0
  7  9  1  0
  7 10  1  0
  6 11  2  0
 11 12  1  0
 12 13  2  0
 13 14  1  0
 14 15  2  0
 15 16  1  0
 16 17  2  0
  2 18  1  0
 18 19  2  0
 19 20  1  0
 20 21  1  0
 20 22  2  0
 22 23  1  0
 23 24  2  0
 24 25  1  0
 25 26  2  0
 26 27  1  0
 27 28  2  0
 17  4  1  0
 28 18  1  0
 17 12  1  0
 28 23  1  0
M  END
>  <energy_score>  (790) 
-0.532559

>  <alias>  (790) 
None

>  <HIPPO Pose ID>  (790) 
70224

>  <smiles>  (790) 
O=C(Nc1cc(C(F)(F)F)cc2cccnc12)c1cc(Cl)nc2ccccc12

>  <inchikey>  (790) 
WSRRHQSOCXJONH-UHFFFAOYSA-N

>  <distance_score>  (790) 
1.084028

>  <ref_mols>  (790) 
Z0917a,Z0852a

>  <ref_pdb>  (790) 
Z0852a

>  <HIPPO Compound ID>  (790) 
142125

>  <name>  (790) 
P70224

>  <inspiration_score>  (790) 
None

$$$$
P70225
     RDKit          3D

 28 31  0  0  0  0  0  0  0  0999 V2000
   -8.4465    6.7945  -13.5989 C   0  0  0  0  0  0  0  0  0  0  0  0
   -7.4343    5.6488  -13.7114 C   0  0  0  0  0  0  0  0  0  0  0  0
   -7.8363    4.5521  -12.7092 C   0  0  0  0  0  0  0  0  0  0  0  0
   -6.0822    6.2317  -13.2892 C   0  0  0  0  0  0  0  0  0  0  0  0
   -7.4656    5.1368  -15.1517 C   0  0  0  0  0  0  0  0  0  0  0  0
   -6.4484    5.3303  -16.1029 C   0  0  0  0  0  0  0  0  0  0  0  0
   -6.6471    5.0168  -17.4631 C   0  0  0  0  0  0  0  0  0  0  0  0
   -5.5880    5.2435  -18.3526 N   0  0  0  0  0  0  0  0  0  0  0  0
   -5.3359    4.6906  -19.7865 C   0  0  0  0  0  0  0  0  0  0  0  0
   -5.9350    3.9019  -20.4123 O   0  0  0  0  0  0  0  0  0  0  0  0
   -4.1046    5.2269  -20.4191 C   0  0  0  0  0  0  0  0  0  0  0  0
   -4.2419    5.5238  -21.7776 C   0  0  0  0  0  0  0  0  0  0  0  0
   -3.1438    5.9933  -22.4510 C   0  0  0  0  0  0  0  0  0  0  0  0
   -1.9591    6.2235  -21.8581 N   0  0  0  0  0  0  0  0  0  0  0  0
   -1.8239    5.9421  -20.5546 C   0  0  0  0  0  0  0  0  0  0  0  0
   -0.6007    6.2399  -19.9690 C   0  0  0  0  0  0  0  0  0  0  0  0
   -0.3698    6.0444  -18.6099 C   0  0  0  0  0  0  0  0  0  0  0  0
   -1.3674    5.4785  -17.8412 C   0  0  0  0  0  0  0  0  0  0  0  0
   -1.1721    5.3037  -16.5279 F   0  0  0  0  0  0  0  0  0  0  0  0
   -2.5737    5.0899  -18.4097 C   0  0  0  0  0  0  0  0  0  0  0  0
   -2.8611    5.3990  -19.7637 C   0  0  0  0  0  0  0  0  0  0  0  0
   -7.9024    4.6077  -17.9050 C   0  0  0  0  0  0  0  0  0  0  0  0
   -8.2346    4.5670  -19.1952 N   0  0  0  0  0  0  0  0  0  0  0  0
   -9.5325    4.5312  -19.5216 C   0  0  0  0  0  0  0  0  0  0  0  0
  -10.5453    4.4148  -18.6161 C   0  0  0  0  0  0  0  0  0  0  0  0
  -10.1823    4.1818  -17.3297 C   0  0  0  0  0  0  0  0  0  0  0  0
   -8.8838    4.3912  -16.9393 C   0  0  0  0  0  0  0  0  0  0  0  0
   -8.6495    4.5552  -15.5906 C   0  0  0  0  0  0  0  0  0  0  0  0
  1  2  1  0
  2  3  1  0
  2  4  1  0
  2  5  1  0
  5  6  2  0
  6  7  1  0
  7  8  1  0
  8  9  1  0
  9 10  2  0
  9 11  1  0
 11 12  2  0
 12 13  1  0
 13 14  2  0
 14 15  1  0
 15 16  2  0
 16 17  1  0
 17 18  2  0
 18 19  1  0
 18 20  1  0
 20 21  2  0
  7 22  2  0
 22 23  1  0
 23 24  2  0
 24 25  1  0
 25 26  2  0
 26 27  1  0
 27 28  2  0
 28  5  1  0
 21 11  1  0
 27 22  1  0
 21 15  1  0
M  END
>  <energy_score>  (791) 
-10.012035

>  <alias>  (791) 
None

>  <HIPPO Pose ID>  (791) 
70225

>  <smiles>  (791) 
CC(C)(C)c1cc(NC(=O)c2ccnc3ccc(F)cc23)c2ncccc2c1

>  <inchikey>  (791) 
WKCACEZSHOAPED-UHFFFAOYSA-N

>  <distance_score>  (791) 
1.355007

>  <ref_mols>  (791) 
Z0917a,Z0852a

>  <ref_pdb>  (791) 
Z0852a

>  <HIPPO Compound ID>  (791) 
142130

>  <name>  (791) 
P70225

>  <inspiration_score>  (791) 
None

$$$$
P70226
     RDKit          3D

 28 31  0  0  0  0  0  0  0  0999 V2000
   -6.4118    4.8031  -11.4884 C   0  0  0  0  0  0  0  0  0  0  0  0
   -6.9149    4.7716  -12.8241 O   0  0  0  0  0  0  0  0  0  0  0  0
   -5.9815    4.9977  -13.7793 C   0  0  0  0  0  0  0  0  0  0  0  0
   -4.8041    5.2590  -13.5872 O   0  0  0  0  0  0  0  0  0  0  0  0
   -6.5870    4.9037  -15.1332 C   0  0  0  0  0  0  0  0  0  0  0  0
   -5.8020    5.2336  -16.2389 C   0  0  0  0  0  0  0  0  0  0  0  0
   -6.3007    5.0928  -17.5423 C   0  0  0  0  0  0  0  0  0  0  0  0
   -5.3970    5.3480  -18.5742 N   0  0  0  0  0  0  0  0  0  0  0  0
   -5.2992    4.7442  -20.0005 C   0  0  0  0  0  0  0  0  0  0  0  0
   -6.0060    3.9971  -20.5578 O   0  0  0  0  0  0  0  0  0  0  0  0
   -4.0868    5.2236  -20.7138 C   0  0  0  0  0  0  0  0  0  0  0  0
   -4.2981    5.5575  -22.0483 C   0  0  0  0  0  0  0  0  0  0  0  0
   -3.2242    6.0081  -22.7675 C   0  0  0  0  0  0  0  0  0  0  0  0
   -2.0025    6.1860  -22.2356 N   0  0  0  0  0  0  0  0  0  0  0  0
   -1.7881    5.8816  -20.9425 C   0  0  0  0  0  0  0  0  0  0  0  0
   -0.5219    6.1352  -20.4013 C   0  0  0  0  0  0  0  0  0  0  0  0
    0.5758    6.6812  -21.2773 C   0  0  0  0  0  0  0  0  0  0  0  0
   -0.2633    5.9147  -19.0439 C   0  0  0  0  0  0  0  0  0  0  0  0
   -1.2433    5.3660  -18.2354 C   0  0  0  0  0  0  0  0  0  0  0  0
   -2.4729    5.0137  -18.7807 C   0  0  0  0  0  0  0  0  0  0  0  0
   -2.8037    5.3515  -20.1181 C   0  0  0  0  0  0  0  0  0  0  0  0
   -7.6264    4.7258  -17.7667 C   0  0  0  0  0  0  0  0  0  0  0  0
   -8.1730    4.7511  -18.9865 N   0  0  0  0  0  0  0  0  0  0  0  0
   -9.4887    4.5334  -19.1281 C   0  0  0  0  0  0  0  0  0  0  0  0
  -10.3169    4.2207  -18.0825 C   0  0  0  0  0  0  0  0  0  0  0  0
   -9.7422    4.1286  -16.8326 C   0  0  0  0  0  0  0  0  0  0  0  0
   -8.4092    4.4340  -16.6415 C   0  0  0  0  0  0  0  0  0  0  0  0
   -7.8969    4.4843  -15.3411 C   0  0  0  0  0  0  0  0  0  0  0  0
  1  2  1  0
  2  3  1  0
  3  4  2  0
  3  5  1  0
  5  6  2  0
  6  7  1  0
  7  8  1  0
  8  9  1  0
  9 10  2  0
  9 11  1  0
 11 12  2  0
 12 13  1  0
 13 14  2  0
 14 15  1  0
 15 16  2  0
 16 17  1  0
 16 18  1  0
 18 19  2  0
 19 20  1  0
 20 21  2  0
  7 22  2  0
 22 23  1  0
 23 24  2  0
 24 25  1  0
 25 26  2  0
 26 27  1  0
 27 28  2  0
 28  5  1  0
 21 11  1  0
 27 22  1  0
 21 15  1  0
M  END
>  <energy_score>  (792) 
-6.293052

>  <alias>  (792) 
None

>  <HIPPO Pose ID>  (792) 
70226

>  <smiles>  (792) 
COC(=O)c1cc(NC(=O)c2ccnc3c(C)cccc23)c2ncccc2c1

>  <inchikey>  (792) 
ASRIXLBYSMYPAS-UHFFFAOYSA-N

>  <distance_score>  (792) 
1.607728

>  <ref_mols>  (792) 
Z0917a,Z0852a

>  <ref_pdb>  (792) 
Z0852a

>  <HIPPO Compound ID>  (792) 
142132

>  <name>  (792) 
P70226

>  <inspiration_score>  (792) 
None

$$$$
P70227
     RDKit          3D

 28 31  0  0  0  0  0  0  0  0999 V2000
   -6.0666    6.2164  -13.3031 C   0  0  0  0  0  0  0  0  0  0  0  0
   -7.4245    5.6479  -13.7256 C   0  0  0  0  0  0  0  0  0  0  0  0
   -8.4229    6.8059  -13.6213 C   0  0  0  0  0  0  0  0  0  0  0  0
   -7.8417    4.5616  -12.7177 C   0  0  0  0  0  0  0  0  0  0  0  0
   -7.4583    5.1274  -15.1630 C   0  0  0  0  0  0  0  0  0  0  0  0
   -6.4383    5.3059  -16.1153 C   0  0  0  0  0  0  0  0  0  0  0  0
   -6.6354    4.9809  -17.4739 C   0  0  0  0  0  0  0  0  0  0  0  0
   -5.5675    5.1893  -18.3607 N   0  0  0  0  0  0  0  0  0  0  0  0
   -5.3377    4.6626  -19.8089 C   0  0  0  0  0  0  0  0  0  0  0  0
   -5.9669    3.9129  -20.4531 O   0  0  0  0  0  0  0  0  0  0  0  0
   -4.1108    5.2089  -20.4436 C   0  0  0  0  0  0  0  0  0  0  0  0
   -4.2539    5.5228  -21.7975 C   0  0  0  0  0  0  0  0  0  0  0  0
   -3.1585    5.9999  -22.4698 C   0  0  0  0  0  0  0  0  0  0  0  0
   -1.9706    6.2192  -21.8796 N   0  0  0  0  0  0  0  0  0  0  0  0
   -1.8288    5.9224  -20.5799 C   0  0  0  0  0  0  0  0  0  0  0  0
   -0.6003    6.2024  -20.0042 C   0  0  0  0  0  0  0  0  0  0  0  0
   -0.3705    5.9801  -18.6532 C   0  0  0  0  0  0  0  0  0  0  0  0
    1.1490    6.3840  -17.9560 Cl  0  0  0  0  0  0  0  0  0  0  0  0
   -1.3624    5.4205  -17.8640 C   0  0  0  0  0  0  0  0  0  0  0  0
   -2.5775    5.0557  -18.4399 C   0  0  0  0  0  0  0  0  0  0  0  0
   -2.8657    5.3768  -19.7908 C   0  0  0  0  0  0  0  0  0  0  0  0
   -7.8949    4.5824  -17.9133 C   0  0  0  0  0  0  0  0  0  0  0  0
   -8.2272    4.5392  -19.2025 N   0  0  0  0  0  0  0  0  0  0  0  0
   -9.5250    4.5193  -19.5303 C   0  0  0  0  0  0  0  0  0  0  0  0
  -10.5401    4.4190  -18.6255 C   0  0  0  0  0  0  0  0  0  0  0  0
  -10.1810    4.1864  -17.3380 C   0  0  0  0  0  0  0  0  0  0  0  0
   -8.8806    4.3835  -16.9475 C   0  0  0  0  0  0  0  0  0  0  0  0
   -8.6471    4.5542  -15.5995 C   0  0  0  0  0  0  0  0  0  0  0  0
  1  2  1  0
  2  3  1  0
  2  4  1  0
  2  5  1  0
  5  6  2  0
  6  7  1  0
  7  8  1  0
  8  9  1  0
  9 10  2  0
  9 11  1  0
 11 12  2  0
 12 13  1  0
 13 14  2  0
 14 15  1  0
 15 16  2  0
 16 17  1  0
 17 18  1  0
 17 19  2  0
 19 20  1  0
 20 21  2  0
  7 22  2  0
 22 23  1  0
 23 24  2  0
 24 25  1  0
 25 26  2  0
 26 27  1  0
 27 28  2  0
 28  5  1  0
 21 11  1  0
 27 22  1  0
 21 15  1  0
M  END
>  <energy_score>  (793) 
-12.50285

>  <alias>  (793) 
None

>  <HIPPO Pose ID>  (793) 
70227

>  <smiles>  (793) 
CC(C)(C)c1cc(NC(=O)c2ccnc3cc(Cl)ccc23)c2ncccc2c1

>  <inchikey>  (793) 
DCTYFMWZGWEJLK-UHFFFAOYSA-N

>  <distance_score>  (793) 
1.274878

>  <ref_mols>  (793) 
Z0917a,Z0852a

>  <ref_pdb>  (793) 
Z0852a

>  <HIPPO Compound ID>  (793) 
142135

>  <name>  (793) 
P70227

>  <inspiration_score>  (793) 
None

$$$$
P70228
     RDKit          3D

 28 31  0  0  0  0  0  0  0  0999 V2000
   -6.5280    4.9356  -11.4546 C   0  0  0  0  0  0  0  0  0  0  0  0
   -6.9979    4.8511  -12.8001 O   0  0  0  0  0  0  0  0  0  0  0  0
   -6.0367    5.0247  -13.7391 C   0  0  0  0  0  0  0  0  0  0  0  0
   -4.8595    5.2696  -13.5254 O   0  0  0  0  0  0  0  0  0  0  0  0
   -6.6116    4.9057  -15.1041 C   0  0  0  0  0  0  0  0  0  0  0  0
   -5.7985    5.2029  -16.1983 C   0  0  0  0  0  0  0  0  0  0  0  0
   -6.2733    5.0575  -17.5110 C   0  0  0  0  0  0  0  0  0  0  0  0
   -5.3368    5.2834  -18.5212 N   0  0  0  0  0  0  0  0  0  0  0  0
   -5.2647    4.7324  -19.9701 C   0  0  0  0  0  0  0  0  0  0  0  0
   -5.9354    3.9446  -20.5161 O   0  0  0  0  0  0  0  0  0  0  0  0
   -4.0810    5.2502  -20.7031 C   0  0  0  0  0  0  0  0  0  0  0  0
   -4.3307    5.5973  -22.0303 C   0  0  0  0  0  0  0  0  0  0  0  0
   -3.2861    6.0831  -22.7753 C   0  0  0  0  0  0  0  0  0  0  0  0
   -2.0532    6.2876  -22.2772 N   0  0  0  0  0  0  0  0  0  0  0  0
   -1.8204    5.9660  -20.9895 C   0  0  0  0  0  0  0  0  0  0  0  0
   -0.5601    6.2654  -20.4801 C   0  0  0  0  0  0  0  0  0  0  0  0
    0.3733    6.8573  -21.2997 O   0  0  0  0  0  0  0  0  0  0  0  0
   -0.2048    6.0278  -19.1626 C   0  0  0  0  0  0  0  0  0  0  0  0
   -1.1248    5.4141  -18.3293 C   0  0  0  0  0  0  0  0  0  0  0  0
   -2.3761    5.0376  -18.8236 C   0  0  0  0  0  0  0  0  0  0  0  0
   -2.7844    5.3924  -20.1402 C   0  0  0  0  0  0  0  0  0  0  0  0
   -7.6016    4.7107  -17.7582 C   0  0  0  0  0  0  0  0  0  0  0  0
   -8.1281    4.7252  -18.9883 N   0  0  0  0  0  0  0  0  0  0  0  0
   -9.4443    4.5150  -19.1471 C   0  0  0  0  0  0  0  0  0  0  0  0
  -10.2929    4.2237  -18.1115 C   0  0  0  0  0  0  0  0  0  0  0  0
   -9.7395    4.1411  -16.8525 C   0  0  0  0  0  0  0  0  0  0  0  0
   -8.4080    4.4394  -16.6431 C   0  0  0  0  0  0  0  0  0  0  0  0
   -7.9218    4.5008  -15.3333 C   0  0  0  0  0  0  0  0  0  0  0  0
  1  2  1  0
  2  3  1  0
  3  4  2  0
  3  5  1  0
  5  6  2  0
  6  7  1  0
  7  8  1  0
  8  9  1  0
  9 10  2  0
  9 11  1  0
 11 12  2  0
 12 13  1  0
 13 14  2  0
 14 15  1  0
 15 16  2  0
 16 17  1  0
 16 18  1  0
 18 19  2  0
 19 20  1  0
 20 21  2  0
  7 22  2  0
 22 23  1  0
 23 24  2  0
 24 25  1  0
 25 26  2  0
 26 27  1  0
 27 28  2  0
 28  5  1  0
 21 11  1  0
 27 22  1  0
 21 15  1  0
M  END
>  <energy_score>  (794) 
-32.519742

>  <alias>  (794) 
None

>  <HIPPO Pose ID>  (794) 
70228

>  <smiles>  (794) 
COC(=O)c1cc(NC(=O)c2ccnc3c(O)cccc23)c2ncccc2c1

>  <inchikey>  (794) 
LSYFRVZPNQBRND-UHFFFAOYSA-N

>  <distance_score>  (794) 
1.636525

>  <ref_mols>  (794) 
Z0917a,Z0852a

>  <ref_pdb>  (794) 
Z0852a

>  <HIPPO Compound ID>  (794) 
142136

>  <name>  (794) 
P70228

>  <inspiration_score>  (794) 
None

$$$$
P70229
     RDKit          3D

 28 31  0  0  0  0  0  0  0  0999 V2000
   -5.9327    3.9553  -20.3491 O   0  0  0  0  0  0  0  0  0  0  0  0
   -5.3177    4.7401  -19.7341 C   0  0  0  0  0  0  0  0  0  0  0  0
   -5.6106    5.3918  -18.3490 N   0  0  0  0  0  0  0  0  0  0  0  0
   -6.6378    5.1466  -17.4269 C   0  0  0  0  0  0  0  0  0  0  0  0
   -6.4269    5.4772  -16.0761 C   0  0  0  0  0  0  0  0  0  0  0  0
   -7.4286    5.2488  -15.1152 C   0  0  0  0  0  0  0  0  0  0  0  0
   -7.3318    5.7476  -13.6999 C   0  0  0  0  0  0  0  0  0  0  0  0
   -8.4229    5.4425  -12.9394 F   0  0  0  0  0  0  0  0  0  0  0  0
   -6.2528    5.2658  -13.0349 F   0  0  0  0  0  0  0  0  0  0  0  0
   -7.2367    7.1074  -13.6525 F   0  0  0  0  0  0  0  0  0  0  0  0
   -8.6079    4.6390  -15.5105 C   0  0  0  0  0  0  0  0  0  0  0  0
   -8.8484    4.4462  -16.8572 C   0  0  0  0  0  0  0  0  0  0  0  0
  -10.1350    4.1633  -17.2362 C   0  0  0  0  0  0  0  0  0  0  0  0
  -10.5233    4.3514  -18.5261 C   0  0  0  0  0  0  0  0  0  0  0  0
   -9.5304    4.5274  -19.4452 C   0  0  0  0  0  0  0  0  0  0  0  0
   -8.2340    4.6326  -19.1276 N   0  0  0  0  0  0  0  0  0  0  0  0
   -7.8882    4.6910  -17.8419 C   0  0  0  0  0  0  0  0  0  0  0  0
   -4.0554    5.2168  -20.3508 C   0  0  0  0  0  0  0  0  0  0  0  0
   -4.1392    5.4746  -21.7224 C   0  0  0  0  0  0  0  0  0  0  0  0
   -3.0109    5.9115  -22.3699 C   0  0  0  0  0  0  0  0  0  0  0  0
   -1.8458    6.1487  -21.7403 N   0  0  0  0  0  0  0  0  0  0  0  0
   -1.7710    5.9015  -20.4158 C   0  0  0  0  0  0  0  0  0  0  0  0
   -0.5770    6.2091  -19.7688 C   0  0  0  0  0  0  0  0  0  0  0  0
    0.4670    6.7315  -20.4963 O   0  0  0  0  0  0  0  0  0  0  0  0
   -0.3890    6.0335  -18.4053 C   0  0  0  0  0  0  0  0  0  0  0  0
   -1.4118    5.4706  -17.6585 C   0  0  0  0  0  0  0  0  0  0  0  0
   -2.6008    5.0920  -18.2838 C   0  0  0  0  0  0  0  0  0  0  0  0
   -2.8365    5.3852  -19.6545 C   0  0  0  0  0  0  0  0  0  0  0  0
  1  2  2  0
  2  3  1  0
  3  4  1  0
  4  5  2  0
  5  6  1  0
  6  7  1  0
  7  8  1  0
  7  9  1  0
  7 10  1  0
  6 11  2  0
 11 12  1  0
 12 13  2  0
 13 14  1  0
 14 15  2  0
 15 16  1  0
 16 17  2  0
  2 18  1  0
 18 19  2  0
 19 20  1  0
 20 21  2  0
 21 22  1  0
 22 23  2  0
 23 24  1  0
 23 25  1  0
 25 26  2  0
 26 27  1  0
 27 28  2  0
 17  4  1  0
 28 18  1  0
 17 12  1  0
 28 22  1  0
M  END
>  <energy_score>  (795) 
-11.767016

>  <alias>  (795) 
None

>  <HIPPO Pose ID>  (795) 
70229

>  <smiles>  (795) 
O=C(Nc1cc(C(F)(F)F)cc2cccnc12)c1ccnc2c(O)cccc12

>  <inchikey>  (795) 
TVKABOPAPQWQRZ-UHFFFAOYSA-N

>  <distance_score>  (795) 
1.068314

>  <ref_mols>  (795) 
Z0917a,Z0852a

>  <ref_pdb>  (795) 
Z0852a

>  <HIPPO Compound ID>  (795) 
142137

>  <name>  (795) 
P70229

>  <inspiration_score>  (795) 
None

$$$$
P70230
     RDKit          3D

 28 31  0  0  0  0  0  0  0  0999 V2000
   -7.8481    4.5636  -12.7075 C   0  0  0  0  0  0  0  0  0  0  0  0
   -7.4392    5.6570  -13.7106 C   0  0  0  0  0  0  0  0  0  0  0  0
   -8.4471    6.8065  -13.6031 C   0  0  0  0  0  0  0  0  0  0  0  0
   -6.0861    6.2350  -13.2846 C   0  0  0  0  0  0  0  0  0  0  0  0
   -7.4672    5.1409  -15.1496 C   0  0  0  0  0  0  0  0  0  0  0  0
   -6.4467    5.3302  -16.0982 C   0  0  0  0  0  0  0  0  0  0  0  0
   -6.6401    5.0128  -17.4587 C   0  0  0  0  0  0  0  0  0  0  0  0
   -5.5753    5.2370  -18.3425 N   0  0  0  0  0  0  0  0  0  0  0  0
   -5.3183    4.6862  -19.7767 C   0  0  0  0  0  0  0  0  0  0  0  0
   -5.9175    3.9015  -20.4073 O   0  0  0  0  0  0  0  0  0  0  0  0
   -4.0793    5.2186  -20.3983 C   0  0  0  0  0  0  0  0  0  0  0  0
   -4.1981    5.5142  -21.7597 C   0  0  0  0  0  0  0  0  0  0  0  0
   -3.0944    5.9941  -22.4187 C   0  0  0  0  0  0  0  0  0  0  0  0
   -1.9213    6.2410  -21.8084 N   0  0  0  0  0  0  0  0  0  0  0  0
   -1.8127    5.9608  -20.4933 C   0  0  0  0  0  0  0  0  0  0  0  0
   -0.6114    6.2836  -19.8676 C   0  0  0  0  0  0  0  0  0  0  0  0
    0.3989    6.8551  -20.6063 O   0  0  0  0  0  0  0  0  0  0  0  0
   -0.3848    6.0785  -18.5148 C   0  0  0  0  0  0  0  0  0  0  0  0
   -1.3745    5.4704  -17.7599 C   0  0  0  0  0  0  0  0  0  0  0  0
   -2.5683    5.0750  -18.3666 C   0  0  0  0  0  0  0  0  0  0  0  0
   -2.8480    5.3979  -19.7230 C   0  0  0  0  0  0  0  0  0  0  0  0
   -7.8940    4.6027  -17.9040 C   0  0  0  0  0  0  0  0  0  0  0  0
   -8.2200    4.5519  -19.1952 N   0  0  0  0  0  0  0  0  0  0  0  0
   -9.5167    4.5196  -19.5270 C   0  0  0  0  0  0  0  0  0  0  0  0
  -10.5339    4.4159  -18.6249 C   0  0  0  0  0  0  0  0  0  0  0  0
  -10.1781    4.1877  -17.3357 C   0  0  0  0  0  0  0  0  0  0  0  0
   -8.8804    4.3938  -16.9410 C   0  0  0  0  0  0  0  0  0  0  0  0
   -8.6514    4.5624  -15.5916 C   0  0  0  0  0  0  0  0  0  0  0  0
  1  2  1  0
  2  3  1  0
  2  4  1  0
  2  5  1  0
  5  6  2  0
  6  7  1  0
  7  8  1  0
  8  9  1  0
  9 10  2  0
  9 11  1  0
 11 12  2  0
 12 13  1  0
 13 14  2  0
 14 15  1  0
 15 16  2  0
 16 17  1  0
 16 18  1  0
 18 19  2  0
 19 20  1  0
 20 21  2  0
  7 22  2  0
 22 23  1  0
 23 24  2  0
 24 25  1  0
 25 26  2  0
 26 27  1  0
 27 28  2  0
 28  5  1  0
 21 11  1  0
 27 22  1  0
 21 15  1  0
M  END
>  <energy_score>  (796) 
-30.950159

>  <alias>  (796) 
None

>  <HIPPO Pose ID>  (796) 
70230

>  <smiles>  (796) 
CC(C)(C)c1cc(NC(=O)c2ccnc3c(O)cccc23)c2ncccc2c1

>  <inchikey>  (796) 
RRLGUMQTSVQUJZ-UHFFFAOYSA-N

>  <distance_score>  (796) 
1.282318

>  <ref_mols>  (796) 
Z0917a,Z0852a

>  <ref_pdb>  (796) 
Z0852a

>  <HIPPO Compound ID>  (796) 
142138

>  <name>  (796) 
P70230

>  <inspiration_score>  (796) 
None

$$$$
P70231
     RDKit          3D

 28 31  0  0  0  0  0  0  0  0999 V2000
   -6.3707    4.8995  -11.5113 C   0  0  0  0  0  0  0  0  0  0  0  0
   -6.8806    4.8227  -12.8427 O   0  0  0  0  0  0  0  0  0  0  0  0
   -5.9525    5.0308  -13.8078 C   0  0  0  0  0  0  0  0  0  0  0  0
   -4.7744    5.2960  -13.6258 O   0  0  0  0  0  0  0  0  0  0  0  0
   -6.5657    4.9203  -15.1567 C   0  0  0  0  0  0  0  0  0  0  0  0
   -5.7902    5.2512  -16.2690 C   0  0  0  0  0  0  0  0  0  0  0  0
   -6.3000    5.1130  -17.5682 C   0  0  0  0  0  0  0  0  0  0  0  0
   -5.4160    5.3907  -18.6127 N   0  0  0  0  0  0  0  0  0  0  0  0
   -5.3037    4.7686  -20.0308 C   0  0  0  0  0  0  0  0  0  0  0  0
   -5.9822    3.9827  -20.5701 O   0  0  0  0  0  0  0  0  0  0  0  0
   -4.0982    5.2563  -20.7461 C   0  0  0  0  0  0  0  0  0  0  0  0
   -4.3139    5.6218  -22.0741 C   0  0  0  0  0  0  0  0  0  0  0  0
   -3.2477    6.1092  -22.7974 C   0  0  0  0  0  0  0  0  0  0  0  0
   -3.4152    6.5060  -24.2325 C   0  0  0  0  0  0  0  0  0  0  0  0
   -2.0224    6.2631  -22.2557 N   0  0  0  0  0  0  0  0  0  0  0  0
   -1.8165    5.9220  -20.9754 C   0  0  0  0  0  0  0  0  0  0  0  0
   -0.5587    6.1730  -20.4491 C   0  0  0  0  0  0  0  0  0  0  0  0
   -0.2586    5.9266  -19.1127 C   0  0  0  0  0  0  0  0  0  0  0  0
   -1.2208    5.3564  -18.2971 C   0  0  0  0  0  0  0  0  0  0  0  0
   -2.4620    5.0087  -18.8256 C   0  0  0  0  0  0  0  0  0  0  0  0
   -2.8158    5.3708  -20.1529 C   0  0  0  0  0  0  0  0  0  0  0  0
   -7.6252    4.7374  -17.7812 C   0  0  0  0  0  0  0  0  0  0  0  0
   -8.1799    4.7570  -18.9972 N   0  0  0  0  0  0  0  0  0  0  0  0
   -9.4958    4.5350  -19.1287 C   0  0  0  0  0  0  0  0  0  0  0  0
  -10.3156    4.2203  -18.0768 C   0  0  0  0  0  0  0  0  0  0  0  0
   -9.7321    4.1315  -16.8303 C   0  0  0  0  0  0  0  0  0  0  0  0
   -8.3983    4.4415  -16.6497 C   0  0  0  0  0  0  0  0  0  0  0  0
   -7.8757    4.4953  -15.3534 C   0  0  0  0  0  0  0  0  0  0  0  0
  1  2  1  0
  2  3  1  0
  3  4  2  0
  3  5  1  0
  5  6  2  0
  6  7  1  0
  7  8  1  0
  8  9  1  0
  9 10  2  0
  9 11  1  0
 11 12  2  0
 12 13  1  0
 13 14  1  0
 13 15  2  0
 15 16  1  0
 16 17  2  0
 17 18  1  0
 18 19  2  0
 19 20  1  0
 20 21  2  0
  7 22  2  0
 22 23  1  0
 23 24  2  0
 24 25  1  0
 25 26  2  0
 26 27  1  0
 27 28  2  0
 28  5  1  0
 21 11  1  0
 27 22  1  0
 21 16  1  0
M  END
>  <energy_score>  (797) 
-22.879814

>  <alias>  (797) 
None

>  <HIPPO Pose ID>  (797) 
70231

>  <smiles>  (797) 
COC(=O)c1cc(NC(=O)c2cc(C)nc3ccccc23)c2ncccc2c1

>  <inchikey>  (797) 
KSLVNGSWIMPHEI-UHFFFAOYSA-N

>  <distance_score>  (797) 
1.671191

>  <ref_mols>  (797) 
Z0917a,Z0852a

>  <ref_pdb>  (797) 
Z0852a

>  <HIPPO Compound ID>  (797) 
142139

>  <name>  (797) 
P70231

>  <inspiration_score>  (797) 
None

$$$$
P70232
     RDKit          3D

 28 31  0  0  0  0  0  0  0  0999 V2000
   -5.9039    3.9539  -20.2716 O   0  0  0  0  0  0  0  0  0  0  0  0
   -5.2940    4.7478  -19.6655 C   0  0  0  0  0  0  0  0  0  0  0  0
   -5.6021    5.4293  -18.3058 N   0  0  0  0  0  0  0  0  0  0  0  0
   -6.6449    5.2114  -17.3936 C   0  0  0  0  0  0  0  0  0  0  0  0
   -6.4469    5.5487  -16.0434 C   0  0  0  0  0  0  0  0  0  0  0  0
   -7.4457    5.2993  -15.0865 C   0  0  0  0  0  0  0  0  0  0  0  0
   -7.3522    5.7837  -13.6677 C   0  0  0  0  0  0  0  0  0  0  0  0
   -7.2490    7.1426  -13.6069 F   0  0  0  0  0  0  0  0  0  0  0  0
   -6.2814    5.2891  -12.9990 F   0  0  0  0  0  0  0  0  0  0  0  0
   -8.4504    5.4795  -12.9164 F   0  0  0  0  0  0  0  0  0  0  0  0
   -8.6125    4.6694  -15.4865 C   0  0  0  0  0  0  0  0  0  0  0  0
   -8.8450    4.4745  -16.8342 C   0  0  0  0  0  0  0  0  0  0  0  0
  -10.1239    4.1635  -17.2167 C   0  0  0  0  0  0  0  0  0  0  0  0
  -10.5116    4.3362  -18.5090 C   0  0  0  0  0  0  0  0  0  0  0  0
   -9.5203    4.5326  -19.4259 C   0  0  0  0  0  0  0  0  0  0  0  0
   -8.2281    4.6739  -19.1036 N   0  0  0  0  0  0  0  0  0  0  0  0
   -7.8866    4.7378  -17.8157 C   0  0  0  0  0  0  0  0  0  0  0  0
   -4.0750    5.2701  -20.3364 C   0  0  0  0  0  0  0  0  0  0  0  0
   -4.3152    5.5404  -21.6939 C   0  0  0  0  0  0  0  0  0  0  0  0
   -3.2834    5.9949  -22.4654 C   0  0  0  0  0  0  0  0  0  0  0  0
   -2.0643    6.2346  -21.9689 N   0  0  0  0  0  0  0  0  0  0  0  0
   -1.8258    5.9862  -20.6757 C   0  0  0  0  0  0  0  0  0  0  0  0
   -0.5413    6.3072  -20.2677 C   0  0  0  0  0  0  0  0  0  0  0  0
   -0.1198    6.1519  -18.9572 C   0  0  0  0  0  0  0  0  0  0  0  0
   -0.9994    5.6123  -18.0410 C   0  0  0  0  0  0  0  0  0  0  0  0
   -2.2892    5.2239  -18.4358 C   0  0  0  0  0  0  0  0  0  0  0  0
   -3.1725    4.4145  -17.1959 Cl  0  0  0  0  0  0  0  0  0  0  0  0
   -2.7777    5.4664  -19.7625 C   0  0  0  0  0  0  0  0  0  0  0  0
  1  2  2  0
  2  3  1  0
  3  4  1  0
  4  5  2  0
  5  6  1  0
  6  7  1  0
  7  8  1  0
  7  9  1  0
  7 10  1  0
  6 11  2  0
 11 12  1  0
 12 13  2  0
 13 14  1  0
 14 15  2  0
 15 16  1  0
 16 17  2  0
  2 18  1  0
 18 19  2  0
 19 20  1  0
 20 21  2  0
 21 22  1  0
 22 23  2  0
 23 24  1  0
 24 25  2  0
 25 26  1  0
 26 27  1  0
 26 28  2  0
 17  4  1  0
 28 18  1  0
 17 12  1  0
 28 22  1  0
M  END
>  <energy_score>  (798) 
-27.935489

>  <alias>  (798) 
None

>  <HIPPO Pose ID>  (798) 
70232

>  <smiles>  (798) 
O=C(Nc1cc(C(F)(F)F)cc2cccnc12)c1ccnc2cccc(Cl)c12

>  <inchikey>  (798) 
ZURBJJSUSKICAR-UHFFFAOYSA-N

>  <distance_score>  (798) 
1.114824

>  <ref_mols>  (798) 
Z0917a,Z0852a

>  <ref_pdb>  (798) 
Z0852a

>  <HIPPO Compound ID>  (798) 
142140

>  <name>  (798) 
P70232

>  <inspiration_score>  (798) 
None

$$$$
P70233
     RDKit          3D

 28 31  0  0  0  0  0  0  0  0999 V2000
   -7.0527    4.5579  -12.8272 C   0  0  0  0  0  0  0  0  0  0  0  0
   -7.0664    5.7773  -13.7616 C   0  0  0  0  0  0  0  0  0  0  0  0
   -5.7405    6.5129  -13.5905 C   0  0  0  0  0  0  0  0  0  0  0  0
   -8.1727    6.7539  -13.3129 C   0  0  0  0  0  0  0  0  0  0  0  0
   -7.2783    5.3327  -15.2050 C   0  0  0  0  0  0  0  0  0  0  0  0
   -6.3478    5.5550  -16.2369 C   0  0  0  0  0  0  0  0  0  0  0  0
   -6.6090    5.1951  -17.5676 C   0  0  0  0  0  0  0  0  0  0  0  0
   -5.5861    5.4002  -18.5019 N   0  0  0  0  0  0  0  0  0  0  0  0
   -5.3229    4.7239  -19.8701 C   0  0  0  0  0  0  0  0  0  0  0  0
   -5.9605    3.9454  -20.4663 O   0  0  0  0  0  0  0  0  0  0  0  0
   -4.1048    5.2449  -20.5456 C   0  0  0  0  0  0  0  0  0  0  0  0
   -4.3590    5.5509  -21.8901 C   0  0  0  0  0  0  0  0  0  0  0  0
   -3.3328    6.0226  -22.6583 C   0  0  0  0  0  0  0  0  0  0  0  0
   -2.1078    6.2465  -22.1687 N   0  0  0  0  0  0  0  0  0  0  0  0
   -1.8569    5.9687  -20.8846 C   0  0  0  0  0  0  0  0  0  0  0  0
   -0.5680    6.2819  -20.4855 C   0  0  0  0  0  0  0  0  0  0  0  0
   -0.1329    6.1044  -19.1830 C   0  0  0  0  0  0  0  0  0  0  0  0
   -1.0042    5.5510  -18.2679 C   0  0  0  0  0  0  0  0  0  0  0  0
   -2.2981    5.1680  -18.6559 C   0  0  0  0  0  0  0  0  0  0  0  0
   -3.1648    4.3395  -17.4195 Cl  0  0  0  0  0  0  0  0  0  0  0  0
   -2.8010    5.4307  -19.9746 C   0  0  0  0  0  0  0  0  0  0  0  0
   -7.8632    4.7169  -17.9125 C   0  0  0  0  0  0  0  0  0  0  0  0
   -8.2640    4.6340  -19.1794 N   0  0  0  0  0  0  0  0  0  0  0  0
   -9.5720    4.5068  -19.4295 C   0  0  0  0  0  0  0  0  0  0  0  0
  -10.5157    4.3023  -18.4613 C   0  0  0  0  0  0  0  0  0  0  0  0
  -10.0637    4.1554  -17.1843 C   0  0  0  0  0  0  0  0  0  0  0  0
   -8.7690    4.4797  -16.8752 C   0  0  0  0  0  0  0  0  0  0  0  0
   -8.4668    4.7026  -15.5428 C   0  0  0  0  0  0  0  0  0  0  0  0
  1  2  1  0
  2  3  1  0
  2  4  1  0
  2  5  1  0
  5  6  2  0
  6  7  1  0
  7  8  1  0
  8  9  1  0
  9 10  2  0
  9 11  1  0
 11 12  2  0
 12 13  1  0
 13 14  2  0
 14 15  1  0
 15 16  2  0
 16 17  1  0
 17 18  2  0
 18 19  1  0
 19 20  1  0
 19 21  2  0
  7 22  2  0
 22 23  1  0
 23 24  2  0
 24 25  1  0
 25 26  2  0
 26 27  1  0
 27 28  2  0
 28  5  1  0
 21 11  1  0
 27 22  1  0
 21 15  1  0
M  END
>  <energy_score>  (799) 
-37.418554

>  <alias>  (799) 
None

>  <HIPPO Pose ID>  (799) 
70233

>  <smiles>  (799) 
CC(C)(C)c1cc(NC(=O)c2ccnc3cccc(Cl)c23)c2ncccc2c1

>  <inchikey>  (799) 
CKPRXEVXUOGTCR-UHFFFAOYSA-N

>  <distance_score>  (799) 
1.390217

>  <ref_mols>  (799) 
Z0917a,Z0852a

>  <ref_pdb>  (799) 
Z0852a

>  <HIPPO Compound ID>  (799) 
142141

>  <name>  (799) 
P70233

>  <inspiration_score>  (799) 
None

$$$$
P70234
     RDKit          3D

 28 31  0  0  0  0  0  0  0  0999 V2000
   -6.0628    4.7093  -13.0845 C   0  0  0  0  0  0  0  0  0  0  0  0
   -7.2197    5.4677  -13.7418 C   0  0  0  0  0  0  0  0  0  0  0  0
   -6.9069    6.9666  -13.7874 C   0  0  0  0  0  0  0  0  0  0  0  0
   -8.4620    5.3009  -12.8393 C   0  0  0  0  0  0  0  0  0  0  0  0
   -7.4108    5.0028  -15.1831 C   0  0  0  0  0  0  0  0  0  0  0  0
   -6.4069    5.1763  -16.1555 C   0  0  0  0  0  0  0  0  0  0  0  0
   -6.6376    4.9147  -17.5161 C   0  0  0  0  0  0  0  0  0  0  0  0
   -5.5703    5.1430  -18.3912 N   0  0  0  0  0  0  0  0  0  0  0  0
   -5.3285    4.6392  -19.8409 C   0  0  0  0  0  0  0  0  0  0  0  0
   -5.9472    3.8936  -20.4983 O   0  0  0  0  0  0  0  0  0  0  0  0
   -4.0652    5.1673  -20.4321 C   0  0  0  0  0  0  0  0  0  0  0  0
   -4.1457    5.4246  -21.8031 C   0  0  0  0  0  0  0  0  0  0  0  0
   -3.0282    5.8952  -22.4423 C   0  0  0  0  0  0  0  0  0  0  0  0
   -1.8780    6.1707  -21.8042 N   0  0  0  0  0  0  0  0  0  0  0  0
   -1.7980    5.9398  -20.4866 C   0  0  0  0  0  0  0  0  0  0  0  0
   -0.6176    6.3088  -19.8560 C   0  0  0  0  0  0  0  0  0  0  0  0
   -0.4520    6.2039  -18.4756 C   0  0  0  0  0  0  0  0  0  0  0  0
   -1.4644    5.6410  -17.7196 C   0  0  0  0  0  0  0  0  0  0  0  0
   -1.3402    5.6102  -16.0022 Cl  0  0  0  0  0  0  0  0  0  0  0  0
   -2.6125    5.1540  -18.3419 C   0  0  0  0  0  0  0  0  0  0  0  0
   -2.8532    5.3937  -19.7243 C   0  0  0  0  0  0  0  0  0  0  0  0
   -7.9081    4.5543  -17.9418 C   0  0  0  0  0  0  0  0  0  0  0  0
   -8.2515    4.5347  -19.2281 N   0  0  0  0  0  0  0  0  0  0  0  0
   -9.5533    4.5377  -19.5387 C   0  0  0  0  0  0  0  0  0  0  0  0
  -10.5604    4.4364  -18.6244 C   0  0  0  0  0  0  0  0  0  0  0  0
  -10.1909    4.1906  -17.3415 C   0  0  0  0  0  0  0  0  0  0  0  0
   -8.8843    4.3639  -16.9603 C   0  0  0  0  0  0  0  0  0  0  0  0
   -8.6290    4.5011  -15.6075 C   0  0  0  0  0  0  0  0  0  0  0  0
  1  2  1  0
  2  3  1  0
  2  4  1  0
  2  5  1  0
  5  6  2  0
  6  7  1  0
  7  8  1  0
  8  9  1  0
  9 10  2  0
  9 11  1  0
 11 12  2  0
 12 13  1  0
 13 14  2  0
 14 15  1  0
 15 16  2  0
 16 17  1  0
 17 18  2  0
 18 19  1  0
 18 20  1  0
 20 21  2  0
  7 22  2  0
 22 23  1  0
 23 24  2  0
 24 25  1  0
 25 26  2  0
 26 27  1  0
 27 28  2  0
 28  5  1  0
 21 11  1  0
 27 22  1  0
 21 15  1  0
M  END
>  <energy_score>  (800) 
-14.691783

>  <alias>  (800) 
None

>  <HIPPO Pose ID>  (800) 
70234

>  <smiles>  (800) 
CC(C)(C)c1cc(NC(=O)c2ccnc3ccc(Cl)cc23)c2ncccc2c1

>  <inchikey>  (800) 
NGIQFRYAGQSZDN-UHFFFAOYSA-N

>  <distance_score>  (800) 
1.347128

>  <ref_mols>  (800) 
Z0917a,Z0852a

>  <ref_pdb>  (800) 
Z0852a

>  <HIPPO Compound ID>  (800) 
142143

>  <name>  (800) 
P70234

>  <inspiration_score>  (800) 
None

$$$$
P70235
     RDKit          3D

 28 31  0  0  0  0  0  0  0  0999 V2000
   -5.8924    3.9755  -20.2133 O   0  0  0  0  0  0  0  0  0  0  0  0
   -5.2972    4.7914  -19.6231 C   0  0  0  0  0  0  0  0  0  0  0  0
   -5.6257    5.5051  -18.2865 N   0  0  0  0  0  0  0  0  0  0  0  0
   -6.6742    5.3007  -17.3795 C   0  0  0  0  0  0  0  0  0  0  0  0
   -6.4944    5.6710  -16.0363 C   0  0  0  0  0  0  0  0  0  0  0  0
   -7.4768    5.3813  -15.0743 C   0  0  0  0  0  0  0  0  0  0  0  0
   -7.3841    5.8547  -13.6524 C   0  0  0  0  0  0  0  0  0  0  0  0
   -6.3207    5.3423  -12.9850 F   0  0  0  0  0  0  0  0  0  0  0  0
   -7.2678    7.2112  -13.5799 F   0  0  0  0  0  0  0  0  0  0  0  0
   -8.4879    5.5529  -12.9086 F   0  0  0  0  0  0  0  0  0  0  0  0
   -8.6187    4.7033  -15.4669 C   0  0  0  0  0  0  0  0  0  0  0  0
   -8.8465    4.4952  -16.8134 C   0  0  0  0  0  0  0  0  0  0  0  0
  -10.1164    4.1507  -17.1944 C   0  0  0  0  0  0  0  0  0  0  0  0
  -10.5075    4.3099  -18.4880 C   0  0  0  0  0  0  0  0  0  0  0  0
   -9.5218    4.5267  -19.4072 C   0  0  0  0  0  0  0  0  0  0  0  0
   -8.2338    4.6982  -19.0845 N   0  0  0  0  0  0  0  0  0  0  0  0
   -7.8966    4.7786  -17.7966 C   0  0  0  0  0  0  0  0  0  0  0  0
   -4.0790    5.3084  -20.2944 C   0  0  0  0  0  0  0  0  0  0  0  0
   -4.3227    5.5568  -21.6566 C   0  0  0  0  0  0  0  0  0  0  0  0
   -3.2929    5.9946  -22.4383 C   0  0  0  0  0  0  0  0  0  0  0  0
   -2.0730    6.2365  -21.9480 N   0  0  0  0  0  0  0  0  0  0  0  0
   -1.8306    6.0058  -20.6520 C   0  0  0  0  0  0  0  0  0  0  0  0
   -0.5389    6.3224  -20.2666 C   0  0  0  0  0  0  0  0  0  0  0  0
   -0.0997    6.1840  -18.9611 C   0  0  0  0  0  0  0  0  0  0  0  0
   -0.9710    5.6701  -18.0232 C   0  0  0  0  0  0  0  0  0  0  0  0
   -2.2744    5.2912  -18.3896 C   0  0  0  0  0  0  0  0  0  0  0  0
   -3.2025    4.4403  -16.9706 Br  0  0  0  0  0  0  0  0  0  0  0  0
   -2.7792    5.5083  -19.7200 C   0  0  0  0  0  0  0  0  0  0  0  0
  1  2  2  0
  2  3  1  0
  3  4  1  0
  4  5  2  0
  5  6  1  0
  6  7  1  0
  7  8  1  0
  7  9  1  0
  7 10  1  0
  6 11  2  0
 11 12  1  0
 12 13  2  0
 13 14  1  0
 14 15  2  0
 15 16  1  0
 16 17  2  0
  2 18  1  0
 18 19  2  0
 19 20  1  0
 20 21  2  0
 21 22  1  0
 22 23  2  0
 23 24  1  0
 24 25  2  0
 25 26  1  0
 26 27  1  0
 26 28  2  0
 17  4  1  0
 28 18  1  0
 17 12  1  0
 28 22  1  0
M  END
>  <energy_score>  (801) 
-20.453536

>  <alias>  (801) 
None

>  <HIPPO Pose ID>  (801) 
70235

>  <smiles>  (801) 
O=C(Nc1cc(C(F)(F)F)cc2cccnc12)c1ccnc2cccc(Br)c12

>  <inchikey>  (801) 
DBZFLOGNNOYSNI-UHFFFAOYSA-N

>  <distance_score>  (801) 
1.040766

>  <ref_mols>  (801) 
Z0917a,Z0852a

>  <ref_pdb>  (801) 
Z0852a

>  <HIPPO Compound ID>  (801) 
142145

>  <name>  (801) 
P70235

>  <inspiration_score>  (801) 
None

$$$$
P70236
     RDKit          3D

 28 31  0  0  0  0  0  0  0  0999 V2000
   -6.0809    4.7693  -13.0873 C   0  0  0  0  0  0  0  0  0  0  0  0
   -7.2464    5.5410  -13.7139 C   0  0  0  0  0  0  0  0  0  0  0  0
   -6.9431    7.0419  -13.7132 C   0  0  0  0  0  0  0  0  0  0  0  0
   -8.4830    5.3400  -12.8121 C   0  0  0  0  0  0  0  0  0  0  0  0
   -7.4420    5.1115  -15.1641 C   0  0  0  0  0  0  0  0  0  0  0  0
   -6.4591    5.3520  -16.1429 C   0  0  0  0  0  0  0  0  0  0  0  0
   -6.6742    5.0700  -17.5008 C   0  0  0  0  0  0  0  0  0  0  0  0
   -5.6113    5.2886  -18.3867 N   0  0  0  0  0  0  0  0  0  0  0  0
   -5.3376    4.7028  -19.7909 C   0  0  0  0  0  0  0  0  0  0  0  0
   -5.9154    3.8873  -20.3980 O   0  0  0  0  0  0  0  0  0  0  0  0
   -4.1554    5.3004  -20.4682 C   0  0  0  0  0  0  0  0  0  0  0  0
   -4.4677    5.6186  -21.8008 C   0  0  0  0  0  0  0  0  0  0  0  0
   -3.4784    6.0895  -22.6143 C   0  0  0  0  0  0  0  0  0  0  0  0
   -2.2303    6.2930  -22.1840 N   0  0  0  0  0  0  0  0  0  0  0  0
   -1.9221    6.0102  -20.9142 C   0  0  0  0  0  0  0  0  0  0  0  0
   -0.6042    6.2984  -20.6035 C   0  0  0  0  0  0  0  0  0  0  0  0
   -0.0851    6.1148  -19.3353 C   0  0  0  0  0  0  0  0  0  0  0  0
   -0.9078    5.5956  -18.3596 C   0  0  0  0  0  0  0  0  0  0  0  0
   -2.2399    5.2478  -18.6521 C   0  0  0  0  0  0  0  0  0  0  0  0
   -3.1004    4.4443  -17.1698 Br  0  0  0  0  0  0  0  0  0  0  0  0
   -2.8244    5.4893  -19.9476 C   0  0  0  0  0  0  0  0  0  0  0  0
   -7.9277    4.6490  -17.9208 C   0  0  0  0  0  0  0  0  0  0  0  0
   -8.2738    4.6144  -19.2068 N   0  0  0  0  0  0  0  0  0  0  0  0
   -9.5757    4.5606  -19.5124 C   0  0  0  0  0  0  0  0  0  0  0  0
  -10.5731    4.4129  -18.5932 C   0  0  0  0  0  0  0  0  0  0  0  0
  -10.1878    4.1799  -17.3123 C   0  0  0  0  0  0  0  0  0  0  0  0
   -8.8894    4.4104  -16.9360 C   0  0  0  0  0  0  0  0  0  0  0  0
   -8.6341    4.5494  -15.5839 C   0  0  0  0  0  0  0  0  0  0  0  0
  1  2  1  0
  2  3  1  0
  2  4  1  0
  2  5  1  0
  5  6  2  0
  6  7  1  0
  7  8  1  0
  8  9  1  0
  9 10  2  0
  9 11  1  0
 11 12  2  0
 12 13  1  0
 13 14  2  0
 14 15  1  0
 15 16  2  0
 16 17  1  0
 17 18  2  0
 18 19  1  0
 19 20  1  0
 19 21  2  0
  7 22  2  0
 22 23  1  0
 23 24  2  0
 24 25  1  0
 25 26  2  0
 26 27  1  0
 27 28  2  0
 28  5  1  0
 21 11  1  0
 27 22  1  0
 21 15  1  0
M  END
>  <energy_score>  (802) 
-25.319916

>  <alias>  (802) 
None

>  <HIPPO Pose ID>  (802) 
70236

>  <smiles>  (802) 
CC(C)(C)c1cc(NC(=O)c2ccnc3cccc(Br)c23)c2ncccc2c1

>  <inchikey>  (802) 
CWEFHUKEIQJWMT-UHFFFAOYSA-N

>  <distance_score>  (802) 
1.416149

>  <ref_mols>  (802) 
Z0917a,Z0852a

>  <ref_pdb>  (802) 
Z0852a

>  <HIPPO Compound ID>  (802) 
142146

>  <name>  (802) 
P70236

>  <inspiration_score>  (802) 
None

$$$$
P70237
     RDKit          3D

 28 31  0  0  0  0  0  0  0  0999 V2000
   -3.1513    6.3702  -23.9542 C   0  0  0  0  0  0  0  0  0  0  0  0
   -3.1051    6.0191  -22.4989 C   0  0  0  0  0  0  0  0  0  0  0  0
   -4.2147    5.5064  -21.8642 C   0  0  0  0  0  0  0  0  0  0  0  0
   -4.1167    5.1675  -20.5119 C   0  0  0  0  0  0  0  0  0  0  0  0
   -5.3736    4.6416  -19.9138 C   0  0  0  0  0  0  0  0  0  0  0  0
   -6.0258    3.9297  -20.5776 O   0  0  0  0  0  0  0  0  0  0  0  0
   -5.6254    5.1975  -18.4812 N   0  0  0  0  0  0  0  0  0  0  0  0
   -6.6503    4.9243  -17.5670 C   0  0  0  0  0  0  0  0  0  0  0  0
   -6.3978    5.1818  -16.2089 C   0  0  0  0  0  0  0  0  0  0  0  0
   -7.3847    4.9920  -15.2188 C   0  0  0  0  0  0  0  0  0  0  0  0
   -7.1859    5.4610  -13.7788 C   0  0  0  0  0  0  0  0  0  0  0  0
   -6.8834    6.9618  -13.8279 C   0  0  0  0  0  0  0  0  0  0  0  0
   -8.4203    5.2886  -12.8639 C   0  0  0  0  0  0  0  0  0  0  0  0
   -6.0192    4.7106  -13.1307 C   0  0  0  0  0  0  0  0  0  0  0  0
   -8.6037    4.4751  -15.6229 C   0  0  0  0  0  0  0  0  0  0  0  0
   -8.8824    4.3458  -16.9707 C   0  0  0  0  0  0  0  0  0  0  0  0
  -10.1952    4.1695  -17.3287 C   0  0  0  0  0  0  0  0  0  0  0  0
  -10.5923    4.4311  -18.6007 C   0  0  0  0  0  0  0  0  0  0  0  0
   -9.6036    4.5606  -19.5312 C   0  0  0  0  0  0  0  0  0  0  0  0
   -8.2969    4.5529  -19.2450 N   0  0  0  0  0  0  0  0  0  0  0  0
   -7.9267    4.5540  -17.9673 C   0  0  0  0  0  0  0  0  0  0  0  0
   -2.8996    5.3380  -19.8103 C   0  0  0  0  0  0  0  0  0  0  0  0
   -2.6541    4.9953  -18.4543 C   0  0  0  0  0  0  0  0  0  0  0  0
   -1.4775    5.3832  -17.8177 C   0  0  0  0  0  0  0  0  0  0  0  0
   -0.4691    5.9900  -18.5475 C   0  0  0  0  0  0  0  0  0  0  0  0
   -0.6564    6.2216  -19.9082 C   0  0  0  0  0  0  0  0  0  0  0  0
   -1.8495    5.9191  -20.5473 C   0  0  0  0  0  0  0  0  0  0  0  0
   -1.9453    6.2356  -21.8475 N   0  0  0  0  0  0  0  0  0  0  0  0
  1  2  1  0
  2  3  2  0
  3  4  1  0
  4  5  1  0
  5  6  2  0
  5  7  1  0
  7  8  1  0
  8  9  2  0
  9 10  1  0
 10 11  1  0
 11 12  1  0
 11 13  1  0
 11 14  1  0
 10 15  2  0
 15 16  1  0
 16 17  2  0
 17 18  1  0
 18 19  2  0
 19 20  1  0
 20 21  2  0
  4 22  2  0
 22 23  1  0
 23 24  2  0
 24 25  1  0
 25 26  2  0
 26 27  1  0
 27 28  2  0
 28  2  1  0
 21  8  1  0
 27 22  1  0
 21 16  1  0
M  END
>  <energy_score>  (803) 
-8.136446

>  <alias>  (803) 
None

>  <HIPPO Pose ID>  (803) 
70237

>  <smiles>  (803) 
Cc1cc(C(=O)Nc2cc(C(C)(C)C)cc3cccnc23)c2ccccc2n1

>  <inchikey>  (803) 
COWOBABYUVYBBG-UHFFFAOYSA-N

>  <distance_score>  (803) 
1.269876

>  <ref_mols>  (803) 
Z0917a,Z0852a

>  <ref_pdb>  (803) 
Z0852a

>  <HIPPO Compound ID>  (803) 
142151

>  <name>  (803) 
P70237

>  <inspiration_score>  (803) 
None

$$$$
P70238
     RDKit          3D

 28 31  0  0  0  0  0  0  0  0999 V2000
   -5.9149    3.9711  -20.3234 O   0  0  0  0  0  0  0  0  0  0  0  0
   -5.2918    4.7349  -19.6909 C   0  0  0  0  0  0  0  0  0  0  0  0
   -5.5912    5.3790  -18.3053 N   0  0  0  0  0  0  0  0  0  0  0  0
   -6.6371    5.1495  -17.4031 C   0  0  0  0  0  0  0  0  0  0  0  0
   -6.4398    5.4924  -16.0535 C   0  0  0  0  0  0  0  0  0  0  0  0
   -7.4465    5.2634  -15.0994 C   0  0  0  0  0  0  0  0  0  0  0  0
   -7.3552    5.7602  -13.6836 C   0  0  0  0  0  0  0  0  0  0  0  0
   -8.4523    5.4589  -12.9301 F   0  0  0  0  0  0  0  0  0  0  0  0
   -7.2553    7.1197  -13.6346 F   0  0  0  0  0  0  0  0  0  0  0  0
   -6.2825    5.2735  -13.0125 F   0  0  0  0  0  0  0  0  0  0  0  0
   -8.6211    4.6492  -15.5018 C   0  0  0  0  0  0  0  0  0  0  0  0
   -8.8503    4.4493  -16.8498 C   0  0  0  0  0  0  0  0  0  0  0  0
  -10.1338    4.1658  -17.2386 C   0  0  0  0  0  0  0  0  0  0  0  0
  -10.5105    4.3489  -18.5324 C   0  0  0  0  0  0  0  0  0  0  0  0
   -9.5097    4.5154  -19.4446 C   0  0  0  0  0  0  0  0  0  0  0  0
   -8.2159    4.6221  -19.1165 N   0  0  0  0  0  0  0  0  0  0  0  0
   -7.8815    4.6877  -17.8278 C   0  0  0  0  0  0  0  0  0  0  0  0
   -4.0099    5.1954  -20.2885 C   0  0  0  0  0  0  0  0  0  0  0  0
   -4.0566    5.3830  -21.6734 C   0  0  0  0  0  0  0  0  0  0  0  0
   -2.9156    5.7977  -22.3099 C   0  0  0  0  0  0  0  0  0  0  0  0
   -1.7731    6.0770  -21.6591 N   0  0  0  0  0  0  0  0  0  0  0  0
   -1.7239    5.8989  -20.3305 C   0  0  0  0  0  0  0  0  0  0  0  0
   -0.5460    6.2515  -19.6857 C   0  0  0  0  0  0  0  0  0  0  0  0
   -0.4119    6.1870  -18.2984 C   0  0  0  0  0  0  0  0  0  0  0  0
   -1.4592    5.6860  -17.5448 C   0  0  0  0  0  0  0  0  0  0  0  0
   -1.3535    5.6929  -15.6557 Br  0  0  0  0  0  0  0  0  0  0  0  0
   -2.6141    5.2246  -18.1737 C   0  0  0  0  0  0  0  0  0  0  0  0
   -2.8096    5.4175  -19.5688 C   0  0  0  0  0  0  0  0  0  0  0  0
  1  2  2  0
  2  3  1  0
  3  4  1  0
  4  5  2  0
  5  6  1  0
  6  7  1  0
  7  8  1  0
  7  9  1  0
  7 10  1  0
  6 11  2  0
 11 12  1  0
 12 13  2  0
 13 14  1  0
 14 15  2  0
 15 16  1  0
 16 17  2  0
  2 18  1  0
 18 19  2  0
 19 20  1  0
 20 21  2  0
 21 22  1  0
 22 23  2  0
 23 24  1  0
 24 25  2  0
 25 26  1  0
 25 27  1  0
 27 28  2  0
 17  4  1  0
 28 18  1  0
 17 12  1  0
 28 22  1  0
M  END
>  <energy_score>  (804) 
-7.066314

>  <alias>  (804) 
None

>  <HIPPO Pose ID>  (804) 
70238

>  <smiles>  (804) 
O=C(Nc1cc(C(F)(F)F)cc2cccnc12)c1ccnc2ccc(Br)cc12

>  <inchikey>  (804) 
OQZQQBGCPYVSOE-UHFFFAOYSA-N

>  <distance_score>  (804) 
1.06622

>  <ref_mols>  (804) 
Z0917a,Z0852a

>  <ref_pdb>  (804) 
Z0852a

>  <HIPPO Compound ID>  (804) 
142152

>  <name>  (804) 
P70238

>  <inspiration_score>  (804) 
None

$$$$
P70239
     RDKit          3D

 28 31  0  0  0  0  0  0  0  0999 V2000
   -6.1147    4.8541  -13.2450 C   0  0  0  0  0  0  0  0  0  0  0  0
   -7.2685    5.7044  -13.7627 C   0  0  0  0  0  0  0  0  0  0  0  0
   -6.9254    7.2007  -13.6513 C   0  0  0  0  0  0  0  0  0  0  0  0
   -8.4854    5.4679  -12.8412 C   0  0  0  0  0  0  0  0  0  0  0  0
   -7.4837    5.3045  -15.2179 C   0  0  0  0  0  0  0  0  0  0  0  0
   -6.5035    5.5295  -16.2065 C   0  0  0  0  0  0  0  0  0  0  0  0
   -6.7099    5.1699  -17.5475 C   0  0  0  0  0  0  0  0  0  0  0  0
   -5.6602    5.3911  -18.4449 N   0  0  0  0  0  0  0  0  0  0  0  0
   -5.3526    4.7343  -19.8207 C   0  0  0  0  0  0  0  0  0  0  0  0
   -5.9711    3.9640  -20.4492 O   0  0  0  0  0  0  0  0  0  0  0  0
   -4.0514    5.1796  -20.3872 C   0  0  0  0  0  0  0  0  0  0  0  0
   -4.0639    5.3861  -21.7679 C   0  0  0  0  0  0  0  0  0  0  0  0
   -2.9018    5.7947  -22.3695 C   0  0  0  0  0  0  0  0  0  0  0  0
   -1.7716    6.0527  -21.6874 N   0  0  0  0  0  0  0  0  0  0  0  0
   -1.7579    5.8611  -20.3597 C   0  0  0  0  0  0  0  0  0  0  0  0
   -0.5966    6.2005  -19.6782 C   0  0  0  0  0  0  0  0  0  0  0  0
   -0.5042    6.1271  -18.2876 C   0  0  0  0  0  0  0  0  0  0  0  0
   -1.5760    5.6273  -17.5682 C   0  0  0  0  0  0  0  0  0  0  0  0
   -1.5337    5.6311  -15.6765 Br  0  0  0  0  0  0  0  0  0  0  0  0
   -2.7121    5.1742  -18.2345 C   0  0  0  0  0  0  0  0  0  0  0  0
   -2.8671    5.3811  -19.6332 C   0  0  0  0  0  0  0  0  0  0  0  0
   -7.9499    4.6941  -17.9442 C   0  0  0  0  0  0  0  0  0  0  0  0
   -8.2965    4.6064  -19.2245 N   0  0  0  0  0  0  0  0  0  0  0  0
   -9.5978    4.5427  -19.5237 C   0  0  0  0  0  0  0  0  0  0  0  0
  -10.5887    4.3971  -18.5964 C   0  0  0  0  0  0  0  0  0  0  0  0
  -10.1949    4.1890  -17.3146 C   0  0  0  0  0  0  0  0  0  0  0  0
   -8.9044    4.4700  -16.9509 C   0  0  0  0  0  0  0  0  0  0  0  0
   -8.6562    4.6812  -15.6090 C   0  0  0  0  0  0  0  0  0  0  0  0
  1  2  1  0
  2  3  1  0
  2  4  1  0
  2  5  1  0
  5  6  2  0
  6  7  1  0
  7  8  1  0
  8  9  1  0
  9 10  2  0
  9 11  1  0
 11 12  2  0
 12 13  1  0
 13 14  2  0
 14 15  1  0
 15 16  2  0
 16 17  1  0
 17 18  2  0
 18 19  1  0
 18 20  1  0
 20 21  2  0
  7 22  2  0
 22 23  1  0
 23 24  2  0
 24 25  1  0
 25 26  2  0
 26 27  1  0
 27 28  2  0
 28  5  1  0
 21 11  1  0
 27 22  1  0
 21 15  1  0
M  END
>  <energy_score>  (805) 
-10.952662

>  <alias>  (805) 
None

>  <HIPPO Pose ID>  (805) 
70239

>  <smiles>  (805) 
CC(C)(C)c1cc(NC(=O)c2ccnc3ccc(Br)cc23)c2ncccc2c1

>  <inchikey>  (805) 
JMKDIZLHFVPONB-UHFFFAOYSA-N

>  <distance_score>  (805) 
1.322019

>  <ref_mols>  (805) 
Z0917a,Z0852a

>  <ref_pdb>  (805) 
Z0852a

>  <HIPPO Compound ID>  (805) 
142153

>  <name>  (805) 
P70239

>  <inspiration_score>  (805) 
None

$$$$
P70240
     RDKit          3D

 28 31  0  0  0  0  0  0  0  0999 V2000
   -6.5930    5.3100  -11.4418 C   0  0  0  0  0  0  0  0  0  0  0  0
   -7.0512    5.1544  -12.7846 O   0  0  0  0  0  0  0  0  0  0  0  0
   -6.1289    5.4603  -13.7292 C   0  0  0  0  0  0  0  0  0  0  0  0
   -5.0049    5.8905  -13.5210 O   0  0  0  0  0  0  0  0  0  0  0  0
   -6.6794    5.2294  -15.0907 C   0  0  0  0  0  0  0  0  0  0  0  0
   -5.8931    5.5652  -16.1947 C   0  0  0  0  0  0  0  0  0  0  0  0
   -6.3404    5.3163  -17.5007 C   0  0  0  0  0  0  0  0  0  0  0  0
   -5.4204    5.5272  -18.5347 N   0  0  0  0  0  0  0  0  0  0  0  0
   -5.2669    4.8201  -19.9046 C   0  0  0  0  0  0  0  0  0  0  0  0
   -5.9313    4.0047  -20.4155 O   0  0  0  0  0  0  0  0  0  0  0  0
   -4.1027    5.3198  -20.6768 C   0  0  0  0  0  0  0  0  0  0  0  0
   -4.4564    5.6569  -21.9878 C   0  0  0  0  0  0  0  0  0  0  0  0
   -3.4784    6.1195  -22.8223 C   0  0  0  0  0  0  0  0  0  0  0  0
   -2.2111    6.2992  -22.4276 N   0  0  0  0  0  0  0  0  0  0  0  0
   -1.8667    5.9853  -21.1741 C   0  0  0  0  0  0  0  0  0  0  0  0
   -0.5425    6.2512  -20.8666 C   0  0  0  0  0  0  0  0  0  0  0  0
   -0.0171    6.0209  -19.6063 C   0  0  0  0  0  0  0  0  0  0  0  0
   -0.8336    5.4632  -18.6439 C   0  0  0  0  0  0  0  0  0  0  0  0
   -2.1642    5.1334  -18.9428 C   0  0  0  0  0  0  0  0  0  0  0  0
   -2.9768    4.2942  -17.6813 Cl  0  0  0  0  0  0  0  0  0  0  0  0
   -2.7534    5.4514  -20.2094 C   0  0  0  0  0  0  0  0  0  0  0  0
   -7.6348    4.8530  -17.7322 C   0  0  0  0  0  0  0  0  0  0  0  0
   -8.1577    4.8007  -18.9618 N   0  0  0  0  0  0  0  0  0  0  0  0
   -9.4529    4.4923  -19.1173 C   0  0  0  0  0  0  0  0  0  0  0  0
  -10.2776    4.1571  -18.0753 C   0  0  0  0  0  0  0  0  0  0  0  0
   -9.7217    4.1367  -16.8140 C   0  0  0  0  0  0  0  0  0  0  0  0
   -8.4184    4.5442  -16.6113 C   0  0  0  0  0  0  0  0  0  0  0  0
   -7.9417    4.6856  -15.3054 C   0  0  0  0  0  0  0  0  0  0  0  0
  1  2  1  0
  2  3  1  0
  3  4  2  0
  3  5  1  0
  5  6  2  0
  6  7  1  0
  7  8  1  0
  8  9  1  0
  9 10  2  0
  9 11  1  0
 11 12  2  0
 12 13  1  0
 13 14  2  0
 14 15  1  0
 15 16  2  0
 16 17  1  0
 17 18  2  0
 18 19  1  0
 19 20  1  0
 19 21  2  0
  7 22  2  0
 22 23  1  0
 23 24  2  0
 24 25  1  0
 25 26  2  0
 26 27  1  0
 27 28  2  0
 28  5  1  0
 21 11  1  0
 27 22  1  0
 21 15  1  0
M  END
>  <energy_score>  (806) 
-29.668095

>  <alias>  (806) 
None

>  <HIPPO Pose ID>  (806) 
70240

>  <smiles>  (806) 
COC(=O)c1cc(NC(=O)c2ccnc3cccc(Cl)c23)c2ncccc2c1

>  <inchikey>  (806) 
YKSLUTCPRHOBSX-UHFFFAOYSA-N

>  <distance_score>  (806) 
1.619573

>  <ref_mols>  (806) 
Z0917a,Z0852a

>  <ref_pdb>  (806) 
Z0852a

>  <HIPPO Compound ID>  (806) 
142155

>  <name>  (806) 
P70240

>  <inspiration_score>  (806) 
None

$$$$
P70241
     RDKit          3D

 28 31  0  0  0  0  0  0  0  0999 V2000
   -6.0661    6.2116  -13.3057 C   0  0  0  0  0  0  0  0  0  0  0  0
   -7.4235    5.6411  -13.7272 C   0  0  0  0  0  0  0  0  0  0  0  0
   -8.4236    6.7978  -13.6206 C   0  0  0  0  0  0  0  0  0  0  0  0
   -7.8382    4.5532  -12.7202 C   0  0  0  0  0  0  0  0  0  0  0  0
   -7.4584    5.1233  -15.1656 C   0  0  0  0  0  0  0  0  0  0  0  0
   -6.4393    5.3023  -16.1184 C   0  0  0  0  0  0  0  0  0  0  0  0
   -6.6377    4.9785  -17.4771 C   0  0  0  0  0  0  0  0  0  0  0  0
   -5.5696    5.1865  -18.3634 N   0  0  0  0  0  0  0  0  0  0  0  0
   -5.3409    4.6622  -19.8126 C   0  0  0  0  0  0  0  0  0  0  0  0
   -5.9717    3.9149  -20.4583 O   0  0  0  0  0  0  0  0  0  0  0  0
   -4.1135    5.2087  -20.4461 C   0  0  0  0  0  0  0  0  0  0  0  0
   -4.2559    5.5237  -21.7998 C   0  0  0  0  0  0  0  0  0  0  0  0
   -3.1601    6.0009  -22.4714 C   0  0  0  0  0  0  0  0  0  0  0  0
   -1.9723    6.2192  -21.8809 N   0  0  0  0  0  0  0  0  0  0  0  0
   -1.8316    5.9216  -20.5808 C   0  0  0  0  0  0  0  0  0  0  0  0
   -0.6030    6.1997  -20.0038 C   0  0  0  0  0  0  0  0  0  0  0  0
   -0.3738    5.9758  -18.6521 C   0  0  0  0  0  0  0  0  0  0  0  0
    1.3006    6.4072  -17.8907 Br  0  0  0  0  0  0  0  0  0  0  0  0
   -1.3664    5.4178  -17.8630 C   0  0  0  0  0  0  0  0  0  0  0  0
   -2.5809    5.0547  -18.4412 C   0  0  0  0  0  0  0  0  0  0  0  0
   -2.8688    5.3763  -19.7924 C   0  0  0  0  0  0  0  0  0  0  0  0
   -7.8978    4.5815  -17.9159 C   0  0  0  0  0  0  0  0  0  0  0  0
   -8.2321    4.5413  -19.2050 N   0  0  0  0  0  0  0  0  0  0  0  0
   -9.5304    4.5228  -19.5304 C   0  0  0  0  0  0  0  0  0  0  0  0
  -10.5443    4.4200  -18.6246 C   0  0  0  0  0  0  0  0  0  0  0  0
  -10.1832    4.1847  -17.3382 C   0  0  0  0  0  0  0  0  0  0  0  0
   -8.8822    4.3812  -16.9493 C   0  0  0  0  0  0  0  0  0  0  0  0
   -8.6471    4.5497  -15.6015 C   0  0  0  0  0  0  0  0  0  0  0  0
  1  2  1  0
  2  3  1  0
  2  4  1  0
  2  5  1  0
  5  6  2  0
  6  7  1  0
  7  8  1  0
  8  9  1  0
  9 10  2  0
  9 11  1  0
 11 12  2  0
 12 13  1  0
 13 14  2  0
 14 15  1  0
 15 16  2  0
 16 17  1  0
 17 18  1  0
 17 19  2  0
 19 20  1  0
 20 21  2  0
  7 22  2  0
 22 23  1  0
 23 24  2  0
 24 25  1  0
 25 26  2  0
 26 27  1  0
 27 28  2  0
 28  5  1  0
 21 11  1  0
 27 22  1  0
 21 15  1  0
M  END
>  <energy_score>  (807) 
-9.907147

>  <alias>  (807) 
None

>  <HIPPO Pose ID>  (807) 
70241

>  <smiles>  (807) 
CC(C)(C)c1cc(NC(=O)c2ccnc3cc(Br)ccc23)c2ncccc2c1

>  <inchikey>  (807) 
QPIJCZGTOZPNGG-UHFFFAOYSA-N

>  <distance_score>  (807) 
1.322215

>  <ref_mols>  (807) 
Z0917a,Z0852a

>  <ref_pdb>  (807) 
Z0852a

>  <HIPPO Compound ID>  (807) 
142158

>  <name>  (807) 
P70241

>  <inspiration_score>  (807) 
None

$$$$
P70242
     RDKit          3D

 28 31  0  0  0  0  0  0  0  0999 V2000
   -6.3843    4.4054  -11.5279 C   0  0  0  0  0  0  0  0  0  0  0  0
   -6.8701    4.4865  -12.8681 O   0  0  0  0  0  0  0  0  0  0  0  0
   -5.9016    4.5948  -13.8090 C   0  0  0  0  0  0  0  0  0  0  0  0
   -4.7014    4.6793  -13.5998 O   0  0  0  0  0  0  0  0  0  0  0  0
   -6.4965    4.6082  -15.1707 C   0  0  0  0  0  0  0  0  0  0  0  0
   -5.6614    4.8421  -16.2631 C   0  0  0  0  0  0  0  0  0  0  0  0
   -6.1449    4.7934  -17.5839 C   0  0  0  0  0  0  0  0  0  0  0  0
   -5.1570    4.9770  -18.5637 N   0  0  0  0  0  0  0  0  0  0  0  0
   -5.1745    4.6637  -20.0856 C   0  0  0  0  0  0  0  0  0  0  0  0
   -5.9859    4.1339  -20.7417 O   0  0  0  0  0  0  0  0  0  0  0  0
   -3.8983    5.1070  -20.7276 C   0  0  0  0  0  0  0  0  0  0  0  0
   -2.6809    4.7995  -20.1179 C   0  0  0  0  0  0  0  0  0  0  0  0
   -2.6210    4.2173  -18.8819 O   0  0  0  0  0  0  0  0  0  0  0  0
   -1.5234    5.1086  -20.8008 C   0  0  0  0  0  0  0  0  0  0  0  0
   -1.5041    5.7106  -22.0061 N   0  0  0  0  0  0  0  0  0  0  0  0
   -2.6697    6.0304  -22.5826 C   0  0  0  0  0  0  0  0  0  0  0  0
   -2.6250    6.6656  -23.8178 C   0  0  0  0  0  0  0  0  0  0  0  0
   -3.7813    7.0683  -24.4871 C   0  0  0  0  0  0  0  0  0  0  0  0
   -5.0166    6.8388  -23.9062 C   0  0  0  0  0  0  0  0  0  0  0  0
   -5.0786    6.1987  -22.6691 C   0  0  0  0  0  0  0  0  0  0  0  0
   -3.9163    5.7658  -21.9863 C   0  0  0  0  0  0  0  0  0  0  0  0
   -7.5077    4.5831  -17.8291 C   0  0  0  0  0  0  0  0  0  0  0  0
   -8.0498    4.6269  -19.0517 N   0  0  0  0  0  0  0  0  0  0  0  0
   -9.3816    4.5091  -19.1984 C   0  0  0  0  0  0  0  0  0  0  0  0
  -10.2459    4.2946  -18.1577 C   0  0  0  0  0  0  0  0  0  0  0  0
   -9.6915    4.1861  -16.9032 C   0  0  0  0  0  0  0  0  0  0  0  0
   -8.3357    4.3750  -16.7092 C   0  0  0  0  0  0  0  0  0  0  0  0
   -7.8441    4.3658  -15.4012 C   0  0  0  0  0  0  0  0  0  0  0  0
  1  2  1  0
  2  3  1  0
  3  4  2  0
  3  5  1  0
  5  6  2  0
  6  7  1  0
  7  8  1  0
  8  9  1  0
  9 10  2  0
  9 11  1  0
 11 12  2  0
 12 13  1  0
 12 14  1  0
 14 15  2  0
 15 16  1  0
 16 17  2  0
 17 18  1  0
 18 19  2  0
 19 20  1  0
 20 21  2  0
  7 22  2  0
 22 23  1  0
 23 24  2  0
 24 25  1  0
 25 26  2  0
 26 27  1  0
 27 28  2  0
 28  5  1  0
 21 11  1  0
 27 22  1  0
 21 16  1  0
M  END
>  <energy_score>  (808) 
-2.892949

>  <alias>  (808) 
None

>  <HIPPO Pose ID>  (808) 
70242

>  <smiles>  (808) 
COC(=O)c1cc(NC(=O)c2c(O)cnc3ccccc23)c2ncccc2c1

>  <inchikey>  (808) 
LIWRZWYMHFBPQZ-UHFFFAOYSA-N

>  <distance_score>  (808) 
1.795271

>  <ref_mols>  (808) 
Z0917a,Z0852a

>  <ref_pdb>  (808) 
Z0852a

>  <HIPPO Compound ID>  (808) 
142159

>  <name>  (808) 
P70242

>  <inspiration_score>  (808) 
None

$$$$
P70243
     RDKit          3D

 28 31  0  0  0  0  0  0  0  0999 V2000
   -6.0176    4.1308  -20.5294 O   0  0  0  0  0  0  0  0  0  0  0  0
   -5.3171    4.7740  -19.8451 C   0  0  0  0  0  0  0  0  0  0  0  0
   -5.5267    5.2953  -18.3860 N   0  0  0  0  0  0  0  0  0  0  0  0
   -6.5713    5.0551  -17.4696 C   0  0  0  0  0  0  0  0  0  0  0  0
   -6.3513    5.3688  -16.1126 C   0  0  0  0  0  0  0  0  0  0  0  0
   -7.3649    5.1874  -15.1506 C   0  0  0  0  0  0  0  0  0  0  0  0
   -7.2670    5.7028  -13.7395 C   0  0  0  0  0  0  0  0  0  0  0  0
   -8.3532    5.3966  -12.9715 F   0  0  0  0  0  0  0  0  0  0  0  0
   -7.1852    7.0640  -13.7065 F   0  0  0  0  0  0  0  0  0  0  0  0
   -6.1828    5.2372  -13.0723 F   0  0  0  0  0  0  0  0  0  0  0  0
   -8.5657    4.6219  -15.5442 C   0  0  0  0  0  0  0  0  0  0  0  0
   -8.8108    4.4326  -16.8887 C   0  0  0  0  0  0  0  0  0  0  0  0
  -10.1078    4.1821  -17.2573 C   0  0  0  0  0  0  0  0  0  0  0  0
  -10.4963    4.3656  -18.5469 C   0  0  0  0  0  0  0  0  0  0  0  0
   -9.5008    4.5036  -19.4691 C   0  0  0  0  0  0  0  0  0  0  0  0
   -8.1999    4.5769  -19.1569 N   0  0  0  0  0  0  0  0  0  0  0  0
   -7.8428    4.6448  -17.8770 C   0  0  0  0  0  0  0  0  0  0  0  0
   -3.9876    5.1470  -20.3693 C   0  0  0  0  0  0  0  0  0  0  0  0
   -2.8657    4.7960  -19.6254 C   0  0  0  0  0  0  0  0  0  0  0  0
   -2.9283    4.1945  -18.4006 O   0  0  0  0  0  0  0  0  0  0  0  0
   -1.6341    5.0675  -20.1753 C   0  0  0  0  0  0  0  0  0  0  0  0
   -1.4665    5.6601  -21.3792 N   0  0  0  0  0  0  0  0  0  0  0  0
   -2.5500    5.9862  -22.0984 C   0  0  0  0  0  0  0  0  0  0  0  0
   -2.3583    6.5855  -23.3372 C   0  0  0  0  0  0  0  0  0  0  0  0
   -3.4276    6.9826  -24.1425 C   0  0  0  0  0  0  0  0  0  0  0  0
   -4.7252    6.7813  -23.7008 C   0  0  0  0  0  0  0  0  0  0  0  0
   -4.9373    6.1775  -22.4626 C   0  0  0  0  0  0  0  0  0  0  0  0
   -3.8599    5.7611  -21.6419 C   0  0  0  0  0  0  0  0  0  0  0  0
  1  2  2  0
  2  3  1  0
  3  4  1  0
  4  5  2  0
  5  6  1  0
  6  7  1  0
  7  8  1  0
  7  9  1  0
  7 10  1  0
  6 11  2  0
 11 12  1  0
 12 13  2  0
 13 14  1  0
 14 15  2  0
 15 16  1  0
 16 17  2  0
  2 18  1  0
 18 19  2  0
 19 20  1  0
 19 21  1  0
 21 22  2  0
 22 23  1  0
 23 24  2  0
 24 25  1  0
 25 26  2  0
 26 27  1  0
 27 28  2  0
 17  4  1  0
 28 18  1  0
 17 12  1  0
 28 23  1  0
M  END
>  <energy_score>  (809) 
-25.854236

>  <alias>  (809) 
None

>  <HIPPO Pose ID>  (809) 
70243

>  <smiles>  (809) 
O=C(Nc1cc(C(F)(F)F)cc2cccnc12)c1c(O)cnc2ccccc12

>  <inchikey>  (809) 
BQMRPXPAOZNHSM-UHFFFAOYSA-N

>  <distance_score>  (809) 
1.070571

>  <ref_mols>  (809) 
Z0917a,Z0852a

>  <ref_pdb>  (809) 
Z0852a

>  <HIPPO Compound ID>  (809) 
142160

>  <name>  (809) 
P70243

>  <inspiration_score>  (809) 
None

$$$$
P70244
     RDKit          3D

 28 31  0  0  0  0  0  0  0  0999 V2000
   -8.0925    6.6747  -13.3915 C   0  0  0  0  0  0  0  0  0  0  0  0
   -6.9869    5.6869  -13.8247 C   0  0  0  0  0  0  0  0  0  0  0  0
   -5.6644    6.4329  -13.6752 C   0  0  0  0  0  0  0  0  0  0  0  0
   -6.9731    4.4895  -12.8644 C   0  0  0  0  0  0  0  0  0  0  0  0
   -7.1985    5.2076  -15.2597 C   0  0  0  0  0  0  0  0  0  0  0  0
   -6.2541    5.3701  -16.2935 C   0  0  0  0  0  0  0  0  0  0  0  0
   -6.5457    5.0559  -17.6326 C   0  0  0  0  0  0  0  0  0  0  0  0
   -5.5346    5.3040  -18.5786 N   0  0  0  0  0  0  0  0  0  0  0  0
   -5.3523    4.7649  -20.0302 C   0  0  0  0  0  0  0  0  0  0  0  0
   -6.0546    4.0950  -20.6844 O   0  0  0  0  0  0  0  0  0  0  0  0
   -4.0202    5.1317  -20.5530 C   0  0  0  0  0  0  0  0  0  0  0  0
   -2.9007    4.7770  -19.8020 C   0  0  0  0  0  0  0  0  0  0  0  0
   -2.9669    4.1745  -18.5758 O   0  0  0  0  0  0  0  0  0  0  0  0
   -1.6664    5.0506  -20.3440 C   0  0  0  0  0  0  0  0  0  0  0  0
   -1.4948    5.6525  -21.5425 N   0  0  0  0  0  0  0  0  0  0  0  0
   -2.5760    5.9900  -22.2616 C   0  0  0  0  0  0  0  0  0  0  0  0
   -2.3812    6.6052  -23.4920 C   0  0  0  0  0  0  0  0  0  0  0  0
   -3.4487    7.0155  -24.2934 C   0  0  0  0  0  0  0  0  0  0  0  0
   -4.7482    6.8128  -23.8564 C   0  0  0  0  0  0  0  0  0  0  0  0
   -4.9645    6.1936  -22.6268 C   0  0  0  0  0  0  0  0  0  0  0  0
   -3.8882    5.7621  -21.8134 C   0  0  0  0  0  0  0  0  0  0  0  0
   -7.8282    4.6410  -17.9660 C   0  0  0  0  0  0  0  0  0  0  0  0
   -8.2454    4.5673  -19.2255 N   0  0  0  0  0  0  0  0  0  0  0  0
   -9.5613    4.4987  -19.4630 C   0  0  0  0  0  0  0  0  0  0  0  0
  -10.5060    4.3337  -18.4888 C   0  0  0  0  0  0  0  0  0  0  0  0
  -10.0487    4.1667  -17.2168 C   0  0  0  0  0  0  0  0  0  0  0  0
   -8.7365    4.4334  -16.9217 C   0  0  0  0  0  0  0  0  0  0  0  0
   -8.4158    4.6331  -15.5914 C   0  0  0  0  0  0  0  0  0  0  0  0
  1  2  1  0
  2  3  1  0
  2  4  1  0
  2  5  1  0
  5  6  2  0
  6  7  1  0
  7  8  1  0
  8  9  1  0
  9 10  2  0
  9 11  1  0
 11 12  2  0
 12 13  1  0
 12 14  1  0
 14 15  2  0
 15 16  1  0
 16 17  2  0
 17 18  1  0
 18 19  2  0
 19 20  1  0
 20 21  2  0
  7 22  2  0
 22 23  1  0
 23 24  2  0
 24 25  1  0
 25 26  2  0
 26 27  1  0
 27 28  2  0
 28  5  1  0
 21 11  1  0
 27 22  1  0
 21 16  1  0
M  END
>  <energy_score>  (810) 
-28.215315

>  <alias>  (810) 
None

>  <HIPPO Pose ID>  (810) 
70244

>  <smiles>  (810) 
CC(C)(C)c1cc(NC(=O)c2c(O)cnc3ccccc23)c2ncccc2c1

>  <inchikey>  (810) 
YFVTYKHBJFFMNP-UHFFFAOYSA-N

>  <distance_score>  (810) 
1.337173

>  <ref_mols>  (810) 
Z0917a,Z0852a

>  <ref_pdb>  (810) 
Z0852a

>  <HIPPO Compound ID>  (810) 
142161

>  <name>  (810) 
P70244

>  <inspiration_score>  (810) 
None

$$$$
P70245
     RDKit          3D

 28 31  0  0  0  0  0  0  0  0999 V2000
   -6.3702    4.7782  -11.5016 C   0  0  0  0  0  0  0  0  0  0  0  0
   -6.8806    4.7480  -12.8347 O   0  0  0  0  0  0  0  0  0  0  0  0
   -5.9556    4.9914  -13.7937 C   0  0  0  0  0  0  0  0  0  0  0  0
   -4.7806    5.2671  -13.6070 O   0  0  0  0  0  0  0  0  0  0  0  0
   -6.5663    4.8959  -15.1451 C   0  0  0  0  0  0  0  0  0  0  0  0
   -5.7838    5.2222  -16.2539 C   0  0  0  0  0  0  0  0  0  0  0  0
   -6.2866    5.0813  -17.5556 C   0  0  0  0  0  0  0  0  0  0  0  0
   -5.3866    5.3389  -18.5910 N   0  0  0  0  0  0  0  0  0  0  0  0
   -5.2935    4.7369  -20.0184 C   0  0  0  0  0  0  0  0  0  0  0  0
   -6.0017    3.9898  -20.5741 O   0  0  0  0  0  0  0  0  0  0  0  0
   -4.0897    5.2258  -20.7417 C   0  0  0  0  0  0  0  0  0  0  0  0
   -4.3223    5.5711  -22.0697 C   0  0  0  0  0  0  0  0  0  0  0  0
   -3.2618    6.0304  -22.8013 C   0  0  0  0  0  0  0  0  0  0  0  0
   -2.0340    6.2063  -22.2853 N   0  0  0  0  0  0  0  0  0  0  0  0
   -1.7929    5.8954  -20.9933 C   0  0  0  0  0  0  0  0  0  0  0  0
   -0.5310    6.1471  -20.4375 C   0  0  0  0  0  0  0  0  0  0  0  0
    0.8736    6.8974  -21.4891 Br  0  0  0  0  0  0  0  0  0  0  0  0
   -0.2497    5.9099  -19.0923 C   0  0  0  0  0  0  0  0  0  0  0  0
   -1.2240    5.3506  -18.2856 C   0  0  0  0  0  0  0  0  0  0  0  0
   -2.4575    5.0049  -18.8288 C   0  0  0  0  0  0  0  0  0  0  0  0
   -2.7985    5.3536  -20.1624 C   0  0  0  0  0  0  0  0  0  0  0  0
   -7.6143    4.7171  -17.7749 C   0  0  0  0  0  0  0  0  0  0  0  0
   -8.1646    4.7408  -18.9931 N   0  0  0  0  0  0  0  0  0  0  0  0
   -9.4819    4.5287  -19.1298 C   0  0  0  0  0  0  0  0  0  0  0  0
  -10.3087    4.2222  -18.0809 C   0  0  0  0  0  0  0  0  0  0  0  0
   -9.7308    4.1310  -16.8322 C   0  0  0  0  0  0  0  0  0  0  0  0
   -8.3954    4.4306  -16.6465 C   0  0  0  0  0  0  0  0  0  0  0  0
   -7.8786    4.4811  -15.3480 C   0  0  0  0  0  0  0  0  0  0  0  0
  1  2  1  0
  2  3  1  0
  3  4  2  0
  3  5  1  0
  5  6  2  0
  6  7  1  0
  7  8  1  0
  8  9  1  0
  9 10  2  0
  9 11  1  0
 11 12  2  0
 12 13  1  0
 13 14  2  0
 14 15  1  0
 15 16  2  0
 16 17  1  0
 16 18  1  0
 18 19  2  0
 19 20  1  0
 20 21  2  0
  7 22  2  0
 22 23  1  0
 23 24  2  0
 24 25  1  0
 25 26  2  0
 26 27  1  0
 27 28  2  0
 28  5  1  0
 21 11  1  0
 27 22  1  0
 21 15  1  0
M  END
>  <energy_score>  (811) 
-9.92542

>  <alias>  (811) 
None

>  <HIPPO Pose ID>  (811) 
70245

>  <smiles>  (811) 
COC(=O)c1cc(NC(=O)c2ccnc3c(Br)cccc23)c2ncccc2c1

>  <inchikey>  (811) 
LROFOZCBYUXJIV-UHFFFAOYSA-N

>  <distance_score>  (811) 
1.660308

>  <ref_mols>  (811) 
Z0917a,Z0852a

>  <ref_pdb>  (811) 
Z0852a

>  <HIPPO Compound ID>  (811) 
142162

>  <name>  (811) 
P70245

>  <inspiration_score>  (811) 
None

$$$$
P70246
     RDKit          3D

 28 31  0  0  0  0  0  0  0  0999 V2000
   -6.8857    6.9683  -13.8204 C   0  0  0  0  0  0  0  0  0  0  0  0
   -7.1811    5.4659  -13.7774 C   0  0  0  0  0  0  0  0  0  0  0  0
   -8.4122    5.2844  -12.8594 C   0  0  0  0  0  0  0  0  0  0  0  0
   -6.0093    4.7176  -13.1365 C   0  0  0  0  0  0  0  0  0  0  0  0
   -7.3822    5.0021  -15.2192 C   0  0  0  0  0  0  0  0  0  0  0  0
   -6.4012    5.2058  -16.2130 C   0  0  0  0  0  0  0  0  0  0  0  0
   -6.6625    4.9586  -17.5705 C   0  0  0  0  0  0  0  0  0  0  0  0
   -5.6566    5.2484  -18.5011 N   0  0  0  0  0  0  0  0  0  0  0  0
   -5.3886    4.6581  -19.9166 C   0  0  0  0  0  0  0  0  0  0  0  0
   -6.0116    3.8961  -20.5520 O   0  0  0  0  0  0  0  0  0  0  0  0
   -4.1410    5.1843  -20.5311 C   0  0  0  0  0  0  0  0  0  0  0  0
   -4.2690    5.5224  -21.8779 C   0  0  0  0  0  0  0  0  0  0  0  0
   -3.1666    6.0138  -22.5219 C   0  0  0  0  0  0  0  0  0  0  0  0
   -1.9939    6.2315  -21.9039 N   0  0  0  0  0  0  0  0  0  0  0  0
   -1.8535    5.9218  -20.5957 C   0  0  0  0  0  0  0  0  0  0  0  0
   -0.6535    6.2075  -19.9297 C   0  0  0  0  0  0  0  0  0  0  0  0
    0.8112    7.0136  -20.8492 Br  0  0  0  0  0  0  0  0  0  0  0  0
   -0.4790    5.9588  -18.5673 C   0  0  0  0  0  0  0  0  0  0  0  0
   -1.4954    5.3500  -17.8523 C   0  0  0  0  0  0  0  0  0  0  0  0
   -2.6663    4.9765  -18.5029 C   0  0  0  0  0  0  0  0  0  0  0  0
   -2.9065    5.3415  -19.8530 C   0  0  0  0  0  0  0  0  0  0  0  0
   -7.9376    4.5778  -17.9657 C   0  0  0  0  0  0  0  0  0  0  0  0
   -8.3124    4.5777  -19.2424 N   0  0  0  0  0  0  0  0  0  0  0  0
   -9.6201    4.5741  -19.5232 C   0  0  0  0  0  0  0  0  0  0  0  0
  -10.6032    4.4274  -18.5892 C   0  0  0  0  0  0  0  0  0  0  0  0
  -10.1976    4.1649  -17.3197 C   0  0  0  0  0  0  0  0  0  0  0  0
   -8.8852    4.3535  -16.9661 C   0  0  0  0  0  0  0  0  0  0  0  0
   -8.5996    4.4777  -15.6194 C   0  0  0  0  0  0  0  0  0  0  0  0
  1  2  1  0
  2  3  1  0
  2  4  1  0
  2  5  1  0
  5  6  2  0
  6  7  1  0
  7  8  1  0
  8  9  1  0
  9 10  2  0
  9 11  1  0
 11 12  2  0
 12 13  1  0
 13 14  2  0
 14 15  1  0
 15 16  2  0
 16 17  1  0
 16 18  1  0
 18 19  2  0
 19 20  1  0
 20 21  2  0
  7 22  2  0
 22 23  1  0
 23 24  2  0
 24 25  1  0
 25 26  2  0
 26 27  1  0
 27 28  2  0
 28  5  1  0
 21 11  1  0
 27 22  1  0
 21 15  1  0
M  END
>  <energy_score>  (812) 
-6.194643

>  <alias>  (812) 
None

>  <HIPPO Pose ID>  (812) 
70246

>  <smiles>  (812) 
CC(C)(C)c1cc(NC(=O)c2ccnc3c(Br)cccc23)c2ncccc2c1

>  <inchikey>  (812) 
RJJLAMRVRFOLTH-UHFFFAOYSA-N

>  <distance_score>  (812) 
1.136525

>  <ref_mols>  (812) 
Z0917a,Z0852a

>  <ref_pdb>  (812) 
Z0852a

>  <HIPPO Compound ID>  (812) 
142164

>  <name>  (812) 
P70246

>  <inspiration_score>  (812) 
None

$$$$
P70247
     RDKit          3D

 28 31  0  0  0  0  0  0  0  0999 V2000
   -8.1386    6.6928  -13.3616 C   0  0  0  0  0  0  0  0  0  0  0  0
   -7.0296    5.7175  -13.8111 C   0  0  0  0  0  0  0  0  0  0  0  0
   -6.9994    4.5115  -12.8615 C   0  0  0  0  0  0  0  0  0  0  0  0
   -5.7098    6.4694  -13.6640 C   0  0  0  0  0  0  0  0  0  0  0  0
   -7.2501    5.2509  -15.2480 C   0  0  0  0  0  0  0  0  0  0  0  0
   -6.3190    5.4410  -16.2872 C   0  0  0  0  0  0  0  0  0  0  0  0
   -6.6077    5.0996  -17.6179 C   0  0  0  0  0  0  0  0  0  0  0  0
   -5.6092    5.3341  -18.5701 N   0  0  0  0  0  0  0  0  0  0  0  0
   -5.3847    4.7040  -19.9740 C   0  0  0  0  0  0  0  0  0  0  0  0
   -6.0426    3.9495  -20.5813 O   0  0  0  0  0  0  0  0  0  0  0  0
   -4.1360    5.1930  -20.6104 C   0  0  0  0  0  0  0  0  0  0  0  0
   -4.2594    5.5153  -21.9610 C   0  0  0  0  0  0  0  0  0  0  0  0
   -3.1420    5.9607  -22.6188 C   0  0  0  0  0  0  0  0  0  0  0  0
   -1.9533    6.1419  -22.0159 N   0  0  0  0  0  0  0  0  0  0  0  0
   -1.8348    5.8439  -20.7138 C   0  0  0  0  0  0  0  0  0  0  0  0
   -0.6089    6.0954  -20.1182 C   0  0  0  0  0  0  0  0  0  0  0  0
   -0.4073    5.8794  -18.7595 C   0  0  0  0  0  0  0  0  0  0  0  0
    1.4282    6.3249  -17.8964 I   0  0  0  0  0  0  0  0  0  0  0  0
   -1.4283    5.3518  -17.9838 C   0  0  0  0  0  0  0  0  0  0  0  0
   -2.6401    5.0116  -18.5809 C   0  0  0  0  0  0  0  0  0  0  0  0
   -2.8955    5.3288  -19.9396 C   0  0  0  0  0  0  0  0  0  0  0  0
   -7.8777    4.6569  -17.9493 C   0  0  0  0  0  0  0  0  0  0  0  0
   -8.2945    4.5987  -19.2110 N   0  0  0  0  0  0  0  0  0  0  0  0
   -9.6083    4.5210  -19.4471 C   0  0  0  0  0  0  0  0  0  0  0  0
  -10.5470    4.3276  -18.4723 C   0  0  0  0  0  0  0  0  0  0  0  0
  -10.0843    4.1505  -17.2029 C   0  0  0  0  0  0  0  0  0  0  0  0
   -8.7777    4.4361  -16.9041 C   0  0  0  0  0  0  0  0  0  0  0  0
   -8.4555    4.6465  -15.5742 C   0  0  0  0  0  0  0  0  0  0  0  0
  1  2  1  0
  2  3  1  0
  2  4  1  0
  2  5  1  0
  5  6  2  0
  6  7  1  0
  7  8  1  0
  8  9  1  0
  9 10  2  0
  9 11  1  0
 11 12  2  0
 12 13  1  0
 13 14  2  0
 14 15  1  0
 15 16  2  0
 16 17  1  0
 17 18  1  0
 17 19  2  0
 19 20  1  0
 20 21  2  0
  7 22  2  0
 22 23  1  0
 23 24  2  0
 24 25  1  0
 25 26  2  0
 26 27  1  0
 27 28  2  0
 28  5  1  0
 21 11  1  0
 27 22  1  0
 21 15  1  0
M  END
>  <energy_score>  (813) 
-14.760035

>  <alias>  (813) 
None

>  <HIPPO Pose ID>  (813) 
70247

>  <smiles>  (813) 
CC(C)(C)c1cc(NC(=O)c2ccnc3cc(I)ccc23)c2ncccc2c1

>  <inchikey>  (813) 
CLHGJSPBZKCJGK-UHFFFAOYSA-N

>  <distance_score>  (813) 
1.324334

>  <ref_mols>  (813) 
Z0917a,Z0852a

>  <ref_pdb>  (813) 
Z0852a

>  <HIPPO Compound ID>  (813) 
142165

>  <name>  (813) 
P70247

>  <inspiration_score>  (813) 
None

$$$$
P70248
     RDKit          3D

 28 31  0  0  0  0  0  0  0  0999 V2000
   -4.0662    5.3550  -12.5033 C   0  0  0  0  0  0  0  0  0  0  0  0
   -4.6238    5.2159  -13.8107 O   0  0  0  0  0  0  0  0  0  0  0  0
   -5.9801    5.2589  -13.8310 C   0  0  0  0  0  0  0  0  0  0  0  0
   -6.7086    5.4334  -12.8681 O   0  0  0  0  0  0  0  0  0  0  0  0
   -6.4794    5.0614  -15.2133 C   0  0  0  0  0  0  0  0  0  0  0  0
   -5.6914    5.3289  -16.3338 C   0  0  0  0  0  0  0  0  0  0  0  0
   -6.1853    5.1265  -17.6335 C   0  0  0  0  0  0  0  0  0  0  0  0
   -5.2602    5.3664  -18.6615 N   0  0  0  0  0  0  0  0  0  0  0  0
   -5.1965    4.8111  -20.1120 C   0  0  0  0  0  0  0  0  0  0  0  0
   -5.9464    4.1301  -20.6967 O   0  0  0  0  0  0  0  0  0  0  0  0
   -3.9154    5.2111  -20.7586 C   0  0  0  0  0  0  0  0  0  0  0  0
   -2.7012    4.8682  -20.1459 C   0  0  0  0  0  0  0  0  0  0  0  0
   -2.5564    4.1823  -18.8245 C   0  0  0  0  0  0  0  0  0  0  0  0
   -1.5506    5.2027  -20.8367 C   0  0  0  0  0  0  0  0  0  0  0  0
   -1.5330    5.8283  -22.0303 N   0  0  0  0  0  0  0  0  0  0  0  0
   -2.6973    6.1381  -22.6112 C   0  0  0  0  0  0  0  0  0  0  0  0
   -2.6581    6.7722  -23.8473 C   0  0  0  0  0  0  0  0  0  0  0  0
   -3.8186    7.1540  -24.5223 C   0  0  0  0  0  0  0  0  0  0  0  0
   -5.0527    6.9029  -23.9468 C   0  0  0  0  0  0  0  0  0  0  0  0
   -5.1082    6.2680  -22.7071 C   0  0  0  0  0  0  0  0  0  0  0  0
   -3.9401    5.8626  -22.0188 C   0  0  0  0  0  0  0  0  0  0  0  0
   -7.5126    4.7326  -17.8311 C   0  0  0  0  0  0  0  0  0  0  0  0
   -8.0672    4.6755  -19.0447 N   0  0  0  0  0  0  0  0  0  0  0  0
   -9.3851    4.4468  -19.1621 C   0  0  0  0  0  0  0  0  0  0  0  0
  -10.2109    4.1926  -18.0967 C   0  0  0  0  0  0  0  0  0  0  0  0
   -9.6333    4.1735  -16.8457 C   0  0  0  0  0  0  0  0  0  0  0  0
   -8.2981    4.4971  -16.6862 C   0  0  0  0  0  0  0  0  0  0  0  0
   -7.7875    4.6290  -15.3933 C   0  0  0  0  0  0  0  0  0  0  0  0
  1  2  1  0
  2  3  1  0
  3  4  2  0
  3  5  1  0
  5  6  2  0
  6  7  1  0
  7  8  1  0
  8  9  1  0
  9 10  2  0
  9 11  1  0
 11 12  2  0
 12 13  1  0
 12 14  1  0
 14 15  2  0
 15 16  1  0
 16 17  2  0
 17 18  1  0
 18 19  2  0
 19 20  1  0
 20 21  2  0
  7 22  2  0
 22 23  1  0
 23 24  2  0
 24 25  1  0
 25 26  2  0
 26 27  1  0
 27 28  2  0
 28  5  1  0
 21 11  1  0
 27 22  1  0
 21 16  1  0
M  END
>  <energy_score>  (814) 
-20.812545

>  <alias>  (814) 
None

>  <HIPPO Pose ID>  (814) 
70248

>  <smiles>  (814) 
COC(=O)c1cc(NC(=O)c2c(C)cnc3ccccc23)c2ncccc2c1

>  <inchikey>  (814) 
MJQDKYORQMLDGJ-UHFFFAOYSA-N

>  <distance_score>  (814) 
1.920297

>  <ref_mols>  (814) 
Z0917a,Z0852a

>  <ref_pdb>  (814) 
Z0852a

>  <HIPPO Compound ID>  (814) 
142166

>  <name>  (814) 
P70248

>  <inspiration_score>  (814) 
None

$$$$
P70249
     RDKit          3D

 28 31  0  0  0  0  0  0  0  0999 V2000
   -2.6924    4.1481  -18.5955 C   0  0  0  0  0  0  0  0  0  0  0  0
   -2.8019    4.8954  -19.8821 C   0  0  0  0  0  0  0  0  0  0  0  0
   -1.6277    5.2763  -20.5107 C   0  0  0  0  0  0  0  0  0  0  0  0
   -1.5672    5.9355  -21.6837 N   0  0  0  0  0  0  0  0  0  0  0  0
   -2.7090    6.2122  -22.3201 C   0  0  0  0  0  0  0  0  0  0  0  0
   -2.6238    6.8674  -23.5430 C   0  0  0  0  0  0  0  0  0  0  0  0
   -3.7570    7.2113  -24.2806 C   0  0  0  0  0  0  0  0  0  0  0  0
   -5.0096    6.8962  -23.7835 C   0  0  0  0  0  0  0  0  0  0  0  0
   -5.1090    6.2400  -22.5573 C   0  0  0  0  0  0  0  0  0  0  0  0
   -3.9705    5.8782  -21.7994 C   0  0  0  0  0  0  0  0  0  0  0  0
   -3.9946    5.2105  -20.5425 C   0  0  0  0  0  0  0  0  0  0  0  0
   -5.2973    4.7342  -19.9905 C   0  0  0  0  0  0  0  0  0  0  0  0
   -5.9612    4.0455  -20.6678 O   0  0  0  0  0  0  0  0  0  0  0  0
   -5.5330    5.2544  -18.5368 N   0  0  0  0  0  0  0  0  0  0  0  0
   -6.5604    4.9618  -17.6145 C   0  0  0  0  0  0  0  0  0  0  0  0
   -6.3092    5.2108  -16.2506 C   0  0  0  0  0  0  0  0  0  0  0  0
   -7.2954    5.0143  -15.2547 C   0  0  0  0  0  0  0  0  0  0  0  0
   -7.1103    5.4867  -13.8128 C   0  0  0  0  0  0  0  0  0  0  0  0
   -6.8311    6.9912  -13.8623 C   0  0  0  0  0  0  0  0  0  0  0  0
   -5.9362    4.7528  -13.1604 C   0  0  0  0  0  0  0  0  0  0  0  0
   -8.3459    5.2969  -12.8980 C   0  0  0  0  0  0  0  0  0  0  0  0
   -8.5124    4.4928  -15.6530 C   0  0  0  0  0  0  0  0  0  0  0  0
   -8.7933    4.3649  -16.9970 C   0  0  0  0  0  0  0  0  0  0  0  0
  -10.1120    4.1847  -17.3320 C   0  0  0  0  0  0  0  0  0  0  0  0
  -10.5205    4.4146  -18.6059 C   0  0  0  0  0  0  0  0  0  0  0  0
   -9.5380    4.5222  -19.5473 C   0  0  0  0  0  0  0  0  0  0  0  0
   -8.2262    4.5359  -19.2746 N   0  0  0  0  0  0  0  0  0  0  0  0
   -7.8408    4.5742  -18.0026 C   0  0  0  0  0  0  0  0  0  0  0  0
  1  2  1  0
  2  3  2  0
  3  4  1  0
  4  5  2  0
  5  6  1  0
  6  7  2  0
  7  8  1  0
  8  9  2  0
  9 10  1  0
 10 11  2  0
 11 12  1  0
 12 13  2  0
 12 14  1  0
 14 15  1  0
 15 16  2  0
 16 17  1  0
 17 18  1  0
 18 19  1  0
 18 20  1  0
 18 21  1  0
 17 22  2  0
 22 23  1  0
 23 24  2  0
 24 25  1  0
 25 26  2  0
 26 27  1  0
 27 28  2  0
 11  2  1  0
 28 15  1  0
 10  5  1  0
 28 23  1  0
M  END
>  <energy_score>  (815) 
-22.410067

>  <alias>  (815) 
None

>  <HIPPO Pose ID>  (815) 
70249

>  <smiles>  (815) 
Cc1cnc2ccccc2c1C(=O)Nc1cc(C(C)(C)C)cc2cccnc12

>  <inchikey>  (815) 
ZMDCCXPHPDBCKF-UHFFFAOYSA-N

>  <distance_score>  (815) 
1.164654

>  <ref_mols>  (815) 
Z0917a,Z0852a

>  <ref_pdb>  (815) 
Z0852a

>  <HIPPO Compound ID>  (815) 
142168

>  <name>  (815) 
P70249

>  <inspiration_score>  (815) 
None

$$$$
P70250
     RDKit          3D

 28 31  0  0  0  0  0  0  0  0999 V2000
   -5.9345    3.9567  -20.3358 O   0  0  0  0  0  0  0  0  0  0  0  0
   -5.3221    4.7453  -19.7230 C   0  0  0  0  0  0  0  0  0  0  0  0
   -5.6172    5.4001  -18.3407 N   0  0  0  0  0  0  0  0  0  0  0  0
   -6.6432    5.1550  -17.4188 C   0  0  0  0  0  0  0  0  0  0  0  0
   -6.4300    5.4817  -16.0677 C   0  0  0  0  0  0  0  0  0  0  0  0
   -7.4308    5.2511  -15.1072 C   0  0  0  0  0  0  0  0  0  0  0  0
   -7.3337    5.7475  -13.6916 C   0  0  0  0  0  0  0  0  0  0  0  0
   -8.4285    5.4461  -12.9340 F   0  0  0  0  0  0  0  0  0  0  0  0
   -7.2349    7.1073  -13.6417 F   0  0  0  0  0  0  0  0  0  0  0  0
   -6.2593    5.2612  -13.0228 F   0  0  0  0  0  0  0  0  0  0  0  0
   -8.6098    4.6405  -15.5034 C   0  0  0  0  0  0  0  0  0  0  0  0
   -8.8512    4.4492  -16.8504 C   0  0  0  0  0  0  0  0  0  0  0  0
  -10.1367    4.1615  -17.2298 C   0  0  0  0  0  0  0  0  0  0  0  0
  -10.5270    4.3491  -18.5193 C   0  0  0  0  0  0  0  0  0  0  0  0
   -9.5358    4.5329  -19.4385 C   0  0  0  0  0  0  0  0  0  0  0  0
   -8.2400    4.6439  -19.1210 N   0  0  0  0  0  0  0  0  0  0  0  0
   -7.8929    4.6989  -17.8350 C   0  0  0  0  0  0  0  0  0  0  0  0
   -4.0609    5.2218  -20.3438 C   0  0  0  0  0  0  0  0  0  0  0  0
   -4.1489    5.4586  -21.7185 C   0  0  0  0  0  0  0  0  0  0  0  0
   -3.0232    5.8871  -22.3735 C   0  0  0  0  0  0  0  0  0  0  0  0
   -1.8576    6.1321  -21.7496 N   0  0  0  0  0  0  0  0  0  0  0  0
   -1.7708    5.9043  -20.4300 C   0  0  0  0  0  0  0  0  0  0  0  0
   -0.5684    6.2137  -19.8086 C   0  0  0  0  0  0  0  0  0  0  0  0
   -0.3893    6.0786  -18.4323 C   0  0  0  0  0  0  0  0  0  0  0  0
   -1.4223    5.5579  -17.6760 C   0  0  0  0  0  0  0  0  0  0  0  0
   -1.3218    5.4280  -16.3233 O   0  0  0  0  0  0  0  0  0  0  0  0
   -2.6063    5.1533  -18.2790 C   0  0  0  0  0  0  0  0  0  0  0  0
   -2.8393    5.4067  -19.6551 C   0  0  0  0  0  0  0  0  0  0  0  0
  1  2  2  0
  2  3  1  0
  3  4  1  0
  4  5  2  0
  5  6  1  0
  6  7  1  0
  7  8  1  0
  7  9  1  0
  7 10  1  0
  6 11  2  0
 11 12  1  0
 12 13  2  0
 13 14  1  0
 14 15  2  0
 15 16  1  0
 16 17  2  0
  2 18  1  0
 18 19  2  0
 19 20  1  0
 20 21  2  0
 21 22  1  0
 22 23  2  0
 23 24  1  0
 24 25  2  0
 25 26  1  0
 25 27  1  0
 27 28  2  0
 17  4  1  0
 28 18  1  0
 17 12  1  0
 28 22  1  0
M  END
>  <energy_score>  (816) 
-5.543646

>  <alias>  (816) 
None

>  <HIPPO Pose ID>  (816) 
70250

>  <smiles>  (816) 
O=C(Nc1cc(C(F)(F)F)cc2cccnc12)c1ccnc2ccc(O)cc12

>  <inchikey>  (816) 
WPHNUGFCNBULMU-UHFFFAOYSA-N

>  <distance_score>  (816) 
1.067634

>  <ref_mols>  (816) 
Z0917a,Z0852a

>  <ref_pdb>  (816) 
Z0852a

>  <HIPPO Compound ID>  (816) 
142169

>  <name>  (816) 
P70250

>  <inspiration_score>  (816) 
None

$$$$
P70251
     RDKit          3D

 28 31  0  0  0  0  0  0  0  0999 V2000
   -8.4534    6.8045  -13.5912 C   0  0  0  0  0  0  0  0  0  0  0  0
   -7.4324    5.6677  -13.7103 C   0  0  0  0  0  0  0  0  0  0  0  0
   -6.0827    6.2594  -13.2925 C   0  0  0  0  0  0  0  0  0  0  0  0
   -7.8217    4.5665  -12.7079 C   0  0  0  0  0  0  0  0  0  0  0  0
   -7.4653    5.1571  -15.1512 C   0  0  0  0  0  0  0  0  0  0  0  0
   -6.4589    5.3735  -16.1095 C   0  0  0  0  0  0  0  0  0  0  0  0
   -6.6642    5.0625  -17.4688 C   0  0  0  0  0  0  0  0  0  0  0  0
   -5.6312    5.3289  -18.3775 N   0  0  0  0  0  0  0  0  0  0  0  0
   -5.3246    4.7049  -19.7708 C   0  0  0  0  0  0  0  0  0  0  0  0
   -5.9312    3.9291  -20.4054 O   0  0  0  0  0  0  0  0  0  0  0  0
   -4.0592    5.1997  -20.3707 C   0  0  0  0  0  0  0  0  0  0  0  0
   -4.1363    5.4542  -21.7428 C   0  0  0  0  0  0  0  0  0  0  0  0
   -3.0092    5.9018  -22.3822 C   0  0  0  0  0  0  0  0  0  0  0  0
   -1.8522    6.1514  -21.7444 N   0  0  0  0  0  0  0  0  0  0  0  0
   -1.7767    5.9116  -20.4265 C   0  0  0  0  0  0  0  0  0  0  0  0
   -0.5851    6.2333  -19.7910 C   0  0  0  0  0  0  0  0  0  0  0  0
   -0.4170    6.0888  -18.4144 C   0  0  0  0  0  0  0  0  0  0  0  0
   -1.4486    5.5444  -17.6733 C   0  0  0  0  0  0  0  0  0  0  0  0
   -1.3587    5.4049  -16.3206 O   0  0  0  0  0  0  0  0  0  0  0  0
   -2.6201    5.1261  -18.2916 C   0  0  0  0  0  0  0  0  0  0  0  0
   -2.8459    5.3913  -19.6673 C   0  0  0  0  0  0  0  0  0  0  0  0
   -7.9134    4.6277  -17.9025 C   0  0  0  0  0  0  0  0  0  0  0  0
   -8.2513    4.5834  -19.1909 N   0  0  0  0  0  0  0  0  0  0  0  0
   -9.5500    4.5382  -19.5111 C   0  0  0  0  0  0  0  0  0  0  0  0
  -10.5558    4.4045  -18.6000 C   0  0  0  0  0  0  0  0  0  0  0  0
  -10.1825    4.1704  -17.3161 C   0  0  0  0  0  0  0  0  0  0  0  0
   -8.8847    4.3942  -16.9316 C   0  0  0  0  0  0  0  0  0  0  0  0
   -8.6439    4.5590  -15.5836 C   0  0  0  0  0  0  0  0  0  0  0  0
  1  2  1  0
  2  3  1  0
  2  4  1  0
  2  5  1  0
  5  6  2  0
  6  7  1  0
  7  8  1  0
  8  9  1  0
  9 10  2  0
  9 11  1  0
 11 12  2  0
 12 13  1  0
 13 14  2  0
 14 15  1  0
 15 16  2  0
 16 17  1  0
 17 18  2  0
 18 19  1  0
 18 20  1  0
 20 21  2  0
  7 22  2  0
 22 23  1  0
 23 24  2  0
 24 25  1  0
 25 26  2  0
 26 27  1  0
 27 28  2  0
 28  5  1  0
 21 11  1  0
 27 22  1  0
 21 15  1  0
M  END
>  <energy_score>  (817) 
-11.43193

>  <alias>  (817) 
None

>  <HIPPO Pose ID>  (817) 
70251

>  <smiles>  (817) 
CC(C)(C)c1cc(NC(=O)c2ccnc3ccc(O)cc23)c2ncccc2c1

>  <inchikey>  (817) 
IQHTVLIXFWVODK-UHFFFAOYSA-N

>  <distance_score>  (817) 
1.341605

>  <ref_mols>  (817) 
Z0917a,Z0852a

>  <ref_pdb>  (817) 
Z0852a

>  <HIPPO Compound ID>  (817) 
142170

>  <name>  (817) 
P70251

>  <inspiration_score>  (817) 
None

$$$$
P70252
     RDKit          3D

 28 31  0  0  0  0  0  0  0  0999 V2000
   -5.9713    3.9485  -20.3615 O   0  0  0  0  0  0  0  0  0  0  0  0
   -5.3546    4.7435  -19.7616 C   0  0  0  0  0  0  0  0  0  0  0  0
   -5.6337    5.4040  -18.3779 N   0  0  0  0  0  0  0  0  0  0  0  0
   -6.6459    5.1577  -17.4395 C   0  0  0  0  0  0  0  0  0  0  0  0
   -6.4243    5.4884  -16.0909 C   0  0  0  0  0  0  0  0  0  0  0  0
   -7.4178    5.2540  -15.1220 C   0  0  0  0  0  0  0  0  0  0  0  0
   -7.3154    5.7533  -13.7074 C   0  0  0  0  0  0  0  0  0  0  0  0
   -8.4040    5.4512  -12.9420 F   0  0  0  0  0  0  0  0  0  0  0  0
   -7.2177    7.1132  -13.6611 F   0  0  0  0  0  0  0  0  0  0  0  0
   -6.2346    5.2706  -13.0457 F   0  0  0  0  0  0  0  0  0  0  0  0
   -8.5967    4.6364  -15.5074 C   0  0  0  0  0  0  0  0  0  0  0  0
   -8.8483    4.4459  -16.8521 C   0  0  0  0  0  0  0  0  0  0  0  0
  -10.1357    4.1553  -17.2220 C   0  0  0  0  0  0  0  0  0  0  0  0
  -10.5370    4.3449  -18.5082 C   0  0  0  0  0  0  0  0  0  0  0  0
   -9.5540    4.5395  -19.4341 C   0  0  0  0  0  0  0  0  0  0  0  0
   -8.2562    4.6521  -19.1259 N   0  0  0  0  0  0  0  0  0  0  0  0
   -7.8989    4.7001  -17.8434 C   0  0  0  0  0  0  0  0  0  0  0  0
   -4.1119    5.2285  -20.4043 C   0  0  0  0  0  0  0  0  0  0  0  0
   -4.2329    5.4996  -21.7669 C   0  0  0  0  0  0  0  0  0  0  0  0
   -3.1088    5.9157  -22.4168 C   0  0  0  0  0  0  0  0  0  0  0  0
   -3.1330    6.1855  -23.7445 O   0  0  0  0  0  0  0  0  0  0  0  0
   -1.9198    6.1234  -21.8436 N   0  0  0  0  0  0  0  0  0  0  0  0
   -1.8094    5.8709  -20.5300 C   0  0  0  0  0  0  0  0  0  0  0  0
   -0.5888    6.1400  -19.9288 C   0  0  0  0  0  0  0  0  0  0  0  0
   -0.3834    5.9563  -18.5628 C   0  0  0  0  0  0  0  0  0  0  0  0
   -1.4037    5.4334  -17.7849 C   0  0  0  0  0  0  0  0  0  0  0  0
   -2.6151    5.0836  -18.3768 C   0  0  0  0  0  0  0  0  0  0  0  0
   -2.8712    5.3781  -19.7404 C   0  0  0  0  0  0  0  0  0  0  0  0
  1  2  2  0
  2  3  1  0
  3  4  1  0
  4  5  2  0
  5  6  1  0
  6  7  1  0
  7  8  1  0
  7  9  1  0
  7 10  1  0
  6 11  2  0
 11 12  1  0
 12 13  2  0
 13 14  1  0
 14 15  2  0
 15 16  1  0
 16 17  2  0
  2 18  1  0
 18 19  2  0
 19 20  1  0
 20 21  1  0
 20 22  2  0
 22 23  1  0
 23 24  2  0
 24 25  1  0
 25 26  2  0
 26 27  1  0
 27 28  2  0
 17  4  1  0
 28 18  1  0
 17 12  1  0
 28 23  1  0
M  END
>  <energy_score>  (818) 
-11.364121

>  <alias>  (818) 
None

>  <HIPPO Pose ID>  (818) 
70252

>  <smiles>  (818) 
O=C(Nc1cc(C(F)(F)F)cc2cccnc12)c1cc(O)nc2ccccc12

>  <inchikey>  (818) 
MLSYTNPYQPQAAB-UHFFFAOYSA-N

>  <distance_score>  (818) 
1.055799

>  <ref_mols>  (818) 
Z0917a,Z0852a

>  <ref_pdb>  (818) 
Z0852a

>  <HIPPO Compound ID>  (818) 
142172

>  <name>  (818) 
P70252

>  <inspiration_score>  (818) 
None

$$$$
P70253
     RDKit          3D

 28 31  0  0  0  0  0  0  0  0999 V2000
   -8.4253    6.7908  -13.6152 C   0  0  0  0  0  0  0  0  0  0  0  0
   -7.4119    5.6465  -13.7302 C   0  0  0  0  0  0  0  0  0  0  0  0
   -6.0584    6.2312  -13.3157 C   0  0  0  0  0  0  0  0  0  0  0  0
   -7.8087    4.5525  -12.7224 C   0  0  0  0  0  0  0  0  0  0  0  0
   -7.4495    5.1326  -15.1704 C   0  0  0  0  0  0  0  0  0  0  0  0
   -6.4471    5.3455  -16.1347 C   0  0  0  0  0  0  0  0  0  0  0  0
   -6.6611    5.0366  -17.4936 C   0  0  0  0  0  0  0  0  0  0  0  0
   -5.6378    5.3093  -18.4132 N   0  0  0  0  0  0  0  0  0  0  0  0
   -5.3513    4.6991  -19.8182 C   0  0  0  0  0  0  0  0  0  0  0  0
   -5.9691    3.9324  -20.4536 O   0  0  0  0  0  0  0  0  0  0  0  0
   -4.1143    5.2275  -20.4396 C   0  0  0  0  0  0  0  0  0  0  0  0
   -4.2472    5.5615  -21.7896 C   0  0  0  0  0  0  0  0  0  0  0  0
   -3.1472    6.0686  -22.4276 C   0  0  0  0  0  0  0  0  0  0  0  0
   -3.1986    6.4414  -23.7383 O   0  0  0  0  0  0  0  0  0  0  0  0
   -1.9748    6.2912  -21.8241 N   0  0  0  0  0  0  0  0  0  0  0  0
   -1.8474    5.9699  -20.5285 C   0  0  0  0  0  0  0  0  0  0  0  0
   -0.6384    6.2619  -19.9151 C   0  0  0  0  0  0  0  0  0  0  0  0
   -0.4233    6.0239  -18.5593 C   0  0  0  0  0  0  0  0  0  0  0  0
   -1.4206    5.4243  -17.8071 C   0  0  0  0  0  0  0  0  0  0  0  0
   -2.6156    5.0485  -18.4161 C   0  0  0  0  0  0  0  0  0  0  0  0
   -2.8834    5.3936  -19.7660 C   0  0  0  0  0  0  0  0  0  0  0  0
   -7.9168    4.6120  -17.9188 C   0  0  0  0  0  0  0  0  0  0  0  0
   -8.2660    4.5811  -19.2045 N   0  0  0  0  0  0  0  0  0  0  0  0
   -9.5676    4.5462  -19.5139 C   0  0  0  0  0  0  0  0  0  0  0  0
  -10.5673    4.4078  -18.5968 C   0  0  0  0  0  0  0  0  0  0  0  0
  -10.1846    4.1645  -17.3174 C   0  0  0  0  0  0  0  0  0  0  0  0
   -8.8825    4.3791  -16.9422 C   0  0  0  0  0  0  0  0  0  0  0  0
   -8.6320    4.5377  -15.5959 C   0  0  0  0  0  0  0  0  0  0  0  0
  1  2  1  0
  2  3  1  0
  2  4  1  0
  2  5  1  0
  5  6  2  0
  6  7  1  0
  7  8  1  0
  8  9  1  0
  9 10  2  0
  9 11  1  0
 11 12  2  0
 12 13  1  0
 13 14  1  0
 13 15  2  0
 15 16  1  0
 16 17  2  0
 17 18  1  0
 18 19  2  0
 19 20  1  0
 20 21  2  0
  7 22  2  0
 22 23  1  0
 23 24  2  0
 24 25  1  0
 25 26  2  0
 26 27  1  0
 27 28  2  0
 28  5  1  0
 21 11  1  0
 27 22  1  0
 21 16  1  0
M  END
>  <energy_score>  (819) 
-13.635278

>  <alias>  (819) 
None

>  <HIPPO Pose ID>  (819) 
70253

>  <smiles>  (819) 
CC(C)(C)c1cc(NC(=O)c2cc(O)nc3ccccc23)c2ncccc2c1

>  <inchikey>  (819) 
WSIKLELFQCACMM-UHFFFAOYSA-N

>  <distance_score>  (819) 
1.383672

>  <ref_mols>  (819) 
Z0917a,Z0852a

>  <ref_pdb>  (819) 
Z0852a

>  <HIPPO Compound ID>  (819) 
142173

>  <name>  (819) 
P70253

>  <inspiration_score>  (819) 
None

$$$$
P70254
     RDKit          3D

 28 31  0  0  0  0  0  0  0  0999 V2000
   -6.1660    4.5656  -13.2781 C   0  0  0  0  0  0  0  0  0  0  0  0
   -7.3108    5.4064  -13.8512 C   0  0  0  0  0  0  0  0  0  0  0  0
   -8.5146    5.2830  -12.8943 C   0  0  0  0  0  0  0  0  0  0  0  0
   -6.9115    6.8864  -13.8611 C   0  0  0  0  0  0  0  0  0  0  0  0
   -7.6038    4.9896  -15.2907 C   0  0  0  0  0  0  0  0  0  0  0  0
   -6.6778    5.2180  -16.3218 C   0  0  0  0  0  0  0  0  0  0  0  0
   -7.0089    4.9907  -17.6649 C   0  0  0  0  0  0  0  0  0  0  0  0
   -6.0310    5.2191  -18.6165 N   0  0  0  0  0  0  0  0  0  0  0  0
   -5.8300    4.5944  -20.0338 C   0  0  0  0  0  0  0  0  0  0  0  0
   -6.5043    3.8513  -20.6389 O   0  0  0  0  0  0  0  0  0  0  0  0
   -4.5185    4.9940  -20.5608 C   0  0  0  0  0  0  0  0  0  0  0  0
   -4.4482    5.4409  -21.8722 C   0  0  0  0  0  0  0  0  0  0  0  0
   -3.2338    5.9151  -22.2937 C   0  0  0  0  0  0  0  0  0  0  0  0
   -2.1670    6.0289  -21.4781 N   0  0  0  0  0  0  0  0  0  0  0  0
   -2.2642    5.5975  -20.1953 C   0  0  0  0  0  0  0  0  0  0  0  0
   -1.2527    5.8114  -19.2720 C   0  0  0  0  0  0  0  0  0  0  0  0
   -0.1594    6.4495  -19.6645 F   0  0  0  0  0  0  0  0  0  0  0  0
   -1.3111    5.4710  -17.9225 C   0  0  0  0  0  0  0  0  0  0  0  0
   -2.4002    4.7748  -17.4594 C   0  0  0  0  0  0  0  0  0  0  0  0
   -3.4030    4.4725  -18.3610 C   0  0  0  0  0  0  0  0  0  0  0  0
   -3.4038    4.9876  -19.6949 C   0  0  0  0  0  0  0  0  0  0  0  0
   -8.2786    4.6240  -18.0138 C   0  0  0  0  0  0  0  0  0  0  0  0
   -8.6643    4.7117  -19.2755 N   0  0  0  0  0  0  0  0  0  0  0  0
   -9.9633    4.7387  -19.5342 C   0  0  0  0  0  0  0  0  0  0  0  0
  -10.9158    4.4813  -18.5974 C   0  0  0  0  0  0  0  0  0  0  0  0
  -10.4824    4.1353  -17.3564 C   0  0  0  0  0  0  0  0  0  0  0  0
   -9.1778    4.3532  -16.9961 C   0  0  0  0  0  0  0  0  0  0  0  0
   -8.8322    4.4560  -15.6534 C   0  0  0  0  0  0  0  0  0  0  0  0
  1  2  1  0
  2  3  1  0
  2  4  1  0
  2  5  1  0
  5  6  2  0
  6  7  1  0
  7  8  1  0
  8  9  1  0
  9 10  2  0
  9 11  1  0
 11 12  2  0
 12 13  1  0
 13 14  2  0
 14 15  1  0
 15 16  2  0
 16 17  1  0
 16 18  1  0
 18 19  2  0
 19 20  1  0
 20 21  2  0
  7 22  2  0
 22 23  1  0
 23 24  2  0
 24 25  1  0
 25 26  2  0
 26 27  1  0
 27 28  2  0
 28  5  1  0
 21 11  1  0
 27 22  1  0
 21 15  1  0
M  END
>  <energy_score>  (820) 
-8.250541

>  <alias>  (820) 
None

>  <HIPPO Pose ID>  (820) 
70254

>  <smiles>  (820) 
CC(C)(C)c1cc(NC(=O)c2ccnc3c(F)cccc23)c2ncccc2c1

>  <inchikey>  (820) 
PYBFSTHJXOUCOL-UHFFFAOYSA-N

>  <distance_score>  (820) 
1.440337

>  <ref_mols>  (820) 
Z0917a,Z0852a

>  <ref_pdb>  (820) 
Z0852a

>  <HIPPO Compound ID>  (820) 
142174

>  <name>  (820) 
P70254

>  <inspiration_score>  (820) 
None

$$$$
P70255
     RDKit          3D

 28 31  0  0  0  0  0  0  0  0999 V2000
   -7.6101    6.4771  -12.9288 C   0  0  0  0  0  0  0  0  0  0  0  0
   -6.7652    5.3277  -12.7790 O   0  0  0  0  0  0  0  0  0  0  0  0
   -5.9404    4.9875  -13.7999 C   0  0  0  0  0  0  0  0  0  0  0  0
   -4.7562    4.7280  -13.6344 O   0  0  0  0  0  0  0  0  0  0  0  0
   -6.5577    4.9099  -15.1467 C   0  0  0  0  0  0  0  0  0  0  0  0
   -5.7806    5.2414  -16.2554 C   0  0  0  0  0  0  0  0  0  0  0  0
   -6.2926    5.1003  -17.5520 C   0  0  0  0  0  0  0  0  0  0  0  0
   -5.3981    5.3503  -18.5927 N   0  0  0  0  0  0  0  0  0  0  0  0
   -5.3155    4.7431  -20.0177 C   0  0  0  0  0  0  0  0  0  0  0  0
   -6.0296    3.9970  -20.5665 O   0  0  0  0  0  0  0  0  0  0  0  0
   -4.1059    5.2110  -20.7397 C   0  0  0  0  0  0  0  0  0  0  0  0
   -4.3184    5.5413  -22.0733 C   0  0  0  0  0  0  0  0  0  0  0  0
   -3.2323    5.9634  -22.7818 C   0  0  0  0  0  0  0  0  0  0  0  0
   -3.3448    6.2885  -24.0927 O   0  0  0  0  0  0  0  0  0  0  0  0
   -2.0020    6.1294  -22.2881 N   0  0  0  0  0  0  0  0  0  0  0  0
   -1.8049    5.8350  -20.9953 C   0  0  0  0  0  0  0  0  0  0  0  0
   -0.5431    6.0835  -20.4771 C   0  0  0  0  0  0  0  0  0  0  0  0
   -0.2468    5.8772  -19.1329 C   0  0  0  0  0  0  0  0  0  0  0  0
   -1.2176    5.3506  -18.2986 C   0  0  0  0  0  0  0  0  0  0  0  0
   -2.4658    5.0079  -18.8140 C   0  0  0  0  0  0  0  0  0  0  0  0
   -2.8168    5.3288  -20.1520 C   0  0  0  0  0  0  0  0  0  0  0  0
   -7.6210    4.7333  -17.7616 C   0  0  0  0  0  0  0  0  0  0  0  0
   -8.1811    4.7711  -18.9742 N   0  0  0  0  0  0  0  0  0  0  0  0
   -9.4962    4.5438  -19.1058 C   0  0  0  0  0  0  0  0  0  0  0  0
  -10.3115    4.2160  -18.0544 C   0  0  0  0  0  0  0  0  0  0  0  0
   -9.7247    4.1185  -16.8093 C   0  0  0  0  0  0  0  0  0  0  0  0
   -8.3900    4.4261  -16.6297 C   0  0  0  0  0  0  0  0  0  0  0  0
   -7.8596    4.4623  -15.3364 C   0  0  0  0  0  0  0  0  0  0  0  0
  1  2  1  0
  2  3  1  0
  3  4  2  0
  3  5  1  0
  5  6  2  0
  6  7  1  0
  7  8  1  0
  8  9  1  0
  9 10  2  0
  9 11  1  0
 11 12  2  0
 12 13  1  0
 13 14  1  0
 13 15  2  0
 15 16  1  0
 16 17  2  0
 17 18  1  0
 18 19  2  0
 19 20  1  0
 20 21  2  0
  7 22  2  0
 22 23  1  0
 23 24  2  0
 24 25  1  0
 25 26  2  0
 26 27  1  0
 27 28  2  0
 28  5  1  0
 21 11  1  0
 27 22  1  0
 21 16  1  0
M  END
>  <energy_score>  (821) 
-10.727639

>  <alias>  (821) 
None

>  <HIPPO Pose ID>  (821) 
70255

>  <smiles>  (821) 
COC(=O)c1cc(NC(=O)c2cc(O)nc3ccccc23)c2ncccc2c1

>  <inchikey>  (821) 
YCSODAOTGGZGJW-UHFFFAOYSA-N

>  <distance_score>  (821) 
1.458958

>  <ref_mols>  (821) 
Z0917a,Z0852a

>  <ref_pdb>  (821) 
Z0852a

>  <HIPPO Compound ID>  (821) 
142175

>  <name>  (821) 
P70255

>  <inspiration_score>  (821) 
None

$$$$
P70256
     RDKit          3D

 29 32  0  0  0  0  0  0  0  0999 V2000
   -6.8651    6.9315  -13.8512 C   0  0  0  0  0  0  0  0  0  0  0  0
   -7.1641    5.4309  -13.7780 C   0  0  0  0  0  0  0  0  0  0  0  0
   -6.0040    4.6948  -13.1023 C   0  0  0  0  0  0  0  0  0  0  0  0
   -8.4081    5.2688  -12.8732 C   0  0  0  0  0  0  0  0  0  0  0  0
   -7.3457    4.9442  -15.2155 C   0  0  0  0  0  0  0  0  0  0  0  0
   -6.3281    5.0750  -16.1861 C   0  0  0  0  0  0  0  0  0  0  0  0
   -6.5612    4.8369  -17.5544 C   0  0  0  0  0  0  0  0  0  0  0  0
   -5.4785    5.0523  -18.4286 N   0  0  0  0  0  0  0  0  0  0  0  0
   -5.3045    4.6850  -19.9366 C   0  0  0  0  0  0  0  0  0  0  0  0
   -6.0037    4.0804  -20.6562 O   0  0  0  0  0  0  0  0  0  0  0  0
   -3.9834    5.1199  -20.4444 C   0  0  0  0  0  0  0  0  0  0  0  0
   -2.8493    4.7647  -19.7167 C   0  0  0  0  0  0  0  0  0  0  0  0
   -2.8893    4.1271  -18.5087 O   0  0  0  0  0  0  0  0  0  0  0  0
   -1.6236    5.0733  -20.2598 C   0  0  0  0  0  0  0  0  0  0  0  0
   -1.4698    5.7102  -21.4417 N   0  0  0  0  0  0  0  0  0  0  0  0
   -2.5603    6.0543  -22.1374 C   0  0  0  0  0  0  0  0  0  0  0  0
   -2.3746    6.7165  -23.3438 C   0  0  0  0  0  0  0  0  0  0  0  0
   -3.4493    7.1554  -24.1187 C   0  0  0  0  0  0  0  0  0  0  0  0
   -4.7415    6.9250  -23.6756 C   0  0  0  0  0  0  0  0  0  0  0  0
   -6.0753    7.4915  -24.5992 Cl  0  0  0  0  0  0  0  0  0  0  0  0
   -4.9532    6.2464  -22.4784 C   0  0  0  0  0  0  0  0  0  0  0  0
   -3.8680    5.7941  -21.6869 C   0  0  0  0  0  0  0  0  0  0  0  0
   -7.8496    4.5204  -17.9748 C   0  0  0  0  0  0  0  0  0  0  0  0
   -8.2004    4.4796  -19.2566 N   0  0  0  0  0  0  0  0  0  0  0  0
   -9.5037    4.5049  -19.5660 C   0  0  0  0  0  0  0  0  0  0  0  0
  -10.5133    4.4490  -18.6510 C   0  0  0  0  0  0  0  0  0  0  0  0
  -10.1479    4.2186  -17.3651 C   0  0  0  0  0  0  0  0  0  0  0  0
   -8.8344    4.3597  -16.9923 C   0  0  0  0  0  0  0  0  0  0  0  0
   -8.5796    4.4875  -15.6414 C   0  0  0  0  0  0  0  0  0  0  0  0
  1  2  1  0
  2  3  1  0
  2  4  1  0
  2  5  1  0
  5  6  2  0
  6  7  1  0
  7  8  1  0
  8  9  1  0
  9 10  2  0
  9 11  1  0
 11 12  2  0
 12 13  1  0
 12 14  1  0
 14 15  2  0
 15 16  1  0
 16 17  2  0
 17 18  1  0
 18 19  2  0
 19 20  1  0
 19 21  1  0
 21 22  2  0
  7 23  2  0
 23 24  1  0
 24 25  2  0
 25 26  1  0
 26 27  2  0
 27 28  1  0
 28 29  2  0
 29  5  1  0
 22 11  1  0
 28 23  1  0
 22 16  1  0
M  END
>  <energy_score>  (822) 
-17.236463

>  <alias>  (822) 
None

>  <HIPPO Pose ID>  (822) 
70256

>  <smiles>  (822) 
CC(C)(C)c1cc(NC(=O)c2c(O)cnc3ccc(Cl)cc23)c2ncccc2c1

>  <inchikey>  (822) 
GCXBIPOSQKBNKO-UHFFFAOYSA-N

>  <distance_score>  (822) 
1.250099

>  <ref_mols>  (822) 
Z0917a,Z0852a

>  <ref_pdb>  (822) 
Z0852a

>  <HIPPO Compound ID>  (822) 
142177

>  <name>  (822) 
P70256

>  <inspiration_score>  (822) 
None

$$$$
P70257
     RDKit          3D

 29 32  0  0  0  0  0  0  0  0999 V2000
   -6.6765    5.1917  -11.5459 C   0  0  0  0  0  0  0  0  0  0  0  0
   -7.2005    5.0745  -12.8688 O   0  0  0  0  0  0  0  0  0  0  0  0
   -6.2941    5.3000  -13.8500 C   0  0  0  0  0  0  0  0  0  0  0  0
   -5.1246    5.6144  -13.6931 O   0  0  0  0  0  0  0  0  0  0  0  0
   -6.9238    5.1460  -15.1853 C   0  0  0  0  0  0  0  0  0  0  0  0
   -6.2025    5.5323  -16.3145 C   0  0  0  0  0  0  0  0  0  0  0  0
   -6.7387    5.3476  -17.5993 C   0  0  0  0  0  0  0  0  0  0  0  0
   -5.8612    5.4908  -18.6573 N   0  0  0  0  0  0  0  0  0  0  0  0
   -5.7922    4.7400  -20.0266 C   0  0  0  0  0  0  0  0  0  0  0  0
   -6.5137    3.9446  -20.4931 O   0  0  0  0  0  0  0  0  0  0  0  0
   -4.5428    5.0990  -20.7018 C   0  0  0  0  0  0  0  0  0  0  0  0
   -4.5617    5.5657  -22.0027 C   0  0  0  0  0  0  0  0  0  0  0  0
   -3.3592    5.9949  -22.5037 C   0  0  0  0  0  0  0  0  0  0  0  0
   -2.2257    6.0460  -21.7707 N   0  0  0  0  0  0  0  0  0  0  0  0
   -2.2373    5.5914  -20.4931 C   0  0  0  0  0  0  0  0  0  0  0  0
   -1.1592    5.7577  -19.6389 C   0  0  0  0  0  0  0  0  0  0  0  0
   -0.0824    6.3860  -20.0870 F   0  0  0  0  0  0  0  0  0  0  0  0
   -1.1631    5.3974  -18.2987 C   0  0  0  0  0  0  0  0  0  0  0  0
   -0.1116    5.6788  -17.5171 F   0  0  0  0  0  0  0  0  0  0  0  0
   -2.2452    4.7436  -17.7675 C   0  0  0  0  0  0  0  0  0  0  0  0
   -3.3043    4.4730  -18.6074 C   0  0  0  0  0  0  0  0  0  0  0  0
   -3.3635    5.0149  -19.9284 C   0  0  0  0  0  0  0  0  0  0  0  0
   -8.0242    4.9078  -17.7829 C   0  0  0  0  0  0  0  0  0  0  0  0
   -8.5841    4.9597  -18.9877 N   0  0  0  0  0  0  0  0  0  0  0  0
   -9.8747    4.6649  -19.1167 C   0  0  0  0  0  0  0  0  0  0  0  0
  -10.6328    4.2061  -18.0763 C   0  0  0  0  0  0  0  0  0  0  0  0
  -10.0152    4.0881  -16.8475 C   0  0  0  0  0  0  0  0  0  0  0  0
   -8.7283    4.5197  -16.6505 C   0  0  0  0  0  0  0  0  0  0  0  0
   -8.1890    4.5991  -15.3601 C   0  0  0  0  0  0  0  0  0  0  0  0
  1  2  1  0
  2  3  1  0
  3  4  2  0
  3  5  1  0
  5  6  2  0
  6  7  1  0
  7  8  1  0
  8  9  1  0
  9 10  2  0
  9 11  1  0
 11 12  2  0
 12 13  1  0
 13 14  2  0
 14 15  1  0
 15 16  2  0
 16 17  1  0
 16 18  1  0
 18 19  1  0
 18 20  2  0
 20 21  1  0
 21 22  2  0
  7 23  2  0
 23 24  1  0
 24 25  2  0
 25 26  1  0
 26 27  2  0
 27 28  1  0
 28 29  2  0
 29  5  1  0
 22 11  1  0
 28 23  1  0
 22 15  1  0
M  END
>  <energy_score>  (823) 
-5.218409

>  <alias>  (823) 
None

>  <HIPPO Pose ID>  (823) 
70257

>  <smiles>  (823) 
COC(=O)c1cc(NC(=O)c2ccnc3c(F)c(F)ccc23)c2ncccc2c1

>  <inchikey>  (823) 
UADSBMQMNOSICJ-UHFFFAOYSA-N

>  <distance_score>  (823) 
1.702597

>  <ref_mols>  (823) 
Z0917a,Z0852a

>  <ref_pdb>  (823) 
Z0852a

>  <HIPPO Compound ID>  (823) 
142178

>  <name>  (823) 
P70257

>  <inspiration_score>  (823) 
None

$$$$
P70258
     RDKit          3D

 29 32  0  0  0  0  0  0  0  0999 V2000
   -3.0925    3.9253  -17.7440 C   0  0  0  0  0  0  0  0  0  0  0  0
   -2.6005    5.2718  -18.1922 C   0  0  0  0  0  0  0  0  0  0  0  0
   -2.7655    5.5519  -19.6593 C   0  0  0  0  0  0  0  0  0  0  0  0
   -1.6109    5.7844  -20.3952 C   0  0  0  0  0  0  0  0  0  0  0  0
   -1.5764    6.1309  -21.6964 N   0  0  0  0  0  0  0  0  0  0  0  0
   -2.7306    6.2560  -22.3528 C   0  0  0  0  0  0  0  0  0  0  0  0
   -2.6746    6.6587  -23.6822 C   0  0  0  0  0  0  0  0  0  0  0  0
   -3.8249    6.8520  -24.4463 C   0  0  0  0  0  0  0  0  0  0  0  0
   -5.0629    6.6280  -23.8708 C   0  0  0  0  0  0  0  0  0  0  0  0
   -5.1292    6.2042  -22.5431 C   0  0  0  0  0  0  0  0  0  0  0  0
   -3.9748    6.0153  -21.7481 C   0  0  0  0  0  0  0  0  0  0  0  0
   -3.9725    5.6271  -20.3732 C   0  0  0  0  0  0  0  0  0  0  0  0
   -5.2466    5.1082  -19.7842 C   0  0  0  0  0  0  0  0  0  0  0  0
   -5.7668    4.2347  -20.3668 O   0  0  0  0  0  0  0  0  0  0  0  0
   -5.6088    5.7686  -18.4183 N   0  0  0  0  0  0  0  0  0  0  0  0
   -6.6005    5.4332  -17.4742 C   0  0  0  0  0  0  0  0  0  0  0  0
   -6.3943    5.7841  -16.1251 C   0  0  0  0  0  0  0  0  0  0  0  0
   -7.3400    5.4496  -15.1345 C   0  0  0  0  0  0  0  0  0  0  0  0
   -7.2506    5.9242  -13.7105 C   0  0  0  0  0  0  0  0  0  0  0  0
   -8.3516    5.6132  -12.9647 F   0  0  0  0  0  0  0  0  0  0  0  0
   -7.1487    7.2816  -13.6392 F   0  0  0  0  0  0  0  0  0  0  0  0
   -6.1826    5.4216  -13.0451 F   0  0  0  0  0  0  0  0  0  0  0  0
   -8.4648    4.7307  -15.4969 C   0  0  0  0  0  0  0  0  0  0  0  0
   -8.7169    4.5153  -16.8340 C   0  0  0  0  0  0  0  0  0  0  0  0
   -9.9907    4.1319  -17.1586 C   0  0  0  0  0  0  0  0  0  0  0  0
  -10.4204    4.2411  -18.4458 C   0  0  0  0  0  0  0  0  0  0  0  0
   -9.4676    4.4748  -19.3994 C   0  0  0  0  0  0  0  0  0  0  0  0
   -8.1751    4.7018  -19.1229 N   0  0  0  0  0  0  0  0  0  0  0  0
   -7.8044    4.8321  -17.8497 C   0  0  0  0  0  0  0  0  0  0  0  0
  1  2  1  0
  2  3  1  0
  3  4  2  0
  4  5  1  0
  5  6  2  0
  6  7  1  0
  7  8  2  0
  8  9  1  0
  9 10  2  0
 10 11  1  0
 11 12  2  0
 12 13  1  0
 13 14  2  0
 13 15  1  0
 15 16  1  0
 16 17  2  0
 17 18  1  0
 18 19  1  0
 19 20  1  0
 19 21  1  0
 19 22  1  0
 18 23  2  0
 23 24  1  0
 24 25  2  0
 25 26  1  0
 26 27  2  0
 27 28  1  0
 28 29  2  0
 12  3  1  0
 29 16  1  0
 11  6  1  0
 29 24  1  0
M  END
>  <energy_score>  (824) 
-6.288121

>  <alias>  (824) 
None

>  <HIPPO Pose ID>  (824) 
70258

>  <smiles>  (824) 
CCc1cnc2ccccc2c1C(=O)Nc1cc(C(F)(F)F)cc2cccnc12

>  <inchikey>  (824) 
KKXZWLCIKCXJRZ-UHFFFAOYSA-N

>  <distance_score>  (824) 
1.185925

>  <ref_mols>  (824) 
Z0917a,Z0852a

>  <ref_pdb>  (824) 
Z0852a

>  <HIPPO Compound ID>  (824) 
142180

>  <name>  (824) 
P70258

>  <inspiration_score>  (824) 
None

$$$$
P70259
     RDKit          3D

 29 32  0  0  0  0  0  0  0  0999 V2000
   -3.1097    3.9230  -17.8044 C   0  0  0  0  0  0  0  0  0  0  0  0
   -2.6584    5.2824  -18.2536 C   0  0  0  0  0  0  0  0  0  0  0  0
   -2.8032    5.5414  -19.7270 C   0  0  0  0  0  0  0  0  0  0  0  0
   -1.6387    5.7704  -20.4477 C   0  0  0  0  0  0  0  0  0  0  0  0
   -1.5867    6.1131  -21.7492 N   0  0  0  0  0  0  0  0  0  0  0  0
   -2.7326    6.2410  -22.4197 C   0  0  0  0  0  0  0  0  0  0  0  0
   -2.6590    6.6481  -23.7470 C   0  0  0  0  0  0  0  0  0  0  0  0
   -3.7990    6.8507  -24.5242 C   0  0  0  0  0  0  0  0  0  0  0  0
   -5.0454    6.6338  -23.9639 C   0  0  0  0  0  0  0  0  0  0  0  0
   -5.1301    6.2051  -22.6389 C   0  0  0  0  0  0  0  0  0  0  0  0
   -3.9854    6.0016  -21.8320 C   0  0  0  0  0  0  0  0  0  0  0  0
   -4.0003    5.6049  -20.4599 C   0  0  0  0  0  0  0  0  0  0  0  0
   -5.2845    5.0852  -19.8900 C   0  0  0  0  0  0  0  0  0  0  0  0
   -5.8267    4.2425  -20.4965 O   0  0  0  0  0  0  0  0  0  0  0  0
   -5.6402    5.7289  -18.5166 N   0  0  0  0  0  0  0  0  0  0  0  0
   -6.6534    5.4089  -17.5917 C   0  0  0  0  0  0  0  0  0  0  0  0
   -6.4586    5.7800  -16.2485 C   0  0  0  0  0  0  0  0  0  0  0  0
   -7.4018    5.4711  -15.2404 C   0  0  0  0  0  0  0  0  0  0  0  0
   -7.1996    5.8522  -13.7776 C   0  0  0  0  0  0  0  0  0  0  0  0
   -6.0445    4.9937  -13.2766 C   0  0  0  0  0  0  0  0  0  0  0  0
   -8.4209    5.5926  -12.8621 C   0  0  0  0  0  0  0  0  0  0  0  0
   -6.8644    7.3460  -13.6331 C   0  0  0  0  0  0  0  0  0  0  0  0
   -8.5304    4.7640  -15.6107 C   0  0  0  0  0  0  0  0  0  0  0  0
   -8.7790    4.5309  -16.9439 C   0  0  0  0  0  0  0  0  0  0  0  0
  -10.0608    4.1726  -17.2640 C   0  0  0  0  0  0  0  0  0  0  0  0
  -10.4862    4.3118  -18.5454 C   0  0  0  0  0  0  0  0  0  0  0  0
   -9.5206    4.4878  -19.4975 C   0  0  0  0  0  0  0  0  0  0  0  0
   -8.2192    4.6523  -19.2265 N   0  0  0  0  0  0  0  0  0  0  0  0
   -7.8551    4.8099  -17.9582 C   0  0  0  0  0  0  0  0  0  0  0  0
  1  2  1  0
  2  3  1  0
  3  4  2  0
  4  5  1  0
  5  6  2  0
  6  7  1  0
  7  8  2  0
  8  9  1  0
  9 10  2  0
 10 11  1  0
 11 12  2  0
 12 13  1  0
 13 14  2  0
 13 15  1  0
 15 16  1  0
 16 17  2  0
 17 18  1  0
 18 19  1  0
 19 20  1  0
 19 21  1  0
 19 22  1  0
 18 23  2  0
 23 24  1  0
 24 25  2  0
 25 26  1  0
 26 27  2  0
 27 28  1  0
 28 29  2  0
 12  3  1  0
 29 16  1  0
 11  6  1  0
 29 24  1  0
M  END
>  <energy_score>  (825) 
-20.072716

>  <alias>  (825) 
None

>  <HIPPO Pose ID>  (825) 
70259

>  <smiles>  (825) 
CCc1cnc2ccccc2c1C(=O)Nc1cc(C(C)(C)C)cc2cccnc12

>  <inchikey>  (825) 
CMOSHKIDHFECAB-UHFFFAOYSA-N

>  <distance_score>  (825) 
1.618291

>  <ref_mols>  (825) 
Z0917a,Z0852a

>  <ref_pdb>  (825) 
Z0852a

>  <HIPPO Compound ID>  (825) 
142181

>  <name>  (825) 
P70259

>  <inspiration_score>  (825) 
None

$$$$
P70260
     RDKit          3D

 29 32  0  0  0  0  0  0  0  0999 V2000
   -5.7367    6.4446  -13.6075 C   0  0  0  0  0  0  0  0  0  0  0  0
   -7.0718    5.7248  -13.7789 C   0  0  0  0  0  0  0  0  0  0  0  0
   -7.0793    4.5136  -12.8348 C   0  0  0  0  0  0  0  0  0  0  0  0
   -8.1663    6.7210  -13.3429 C   0  0  0  0  0  0  0  0  0  0  0  0
   -7.2838    5.2713  -15.2204 C   0  0  0  0  0  0  0  0  0  0  0  0
   -6.3471    5.4756  -16.2493 C   0  0  0  0  0  0  0  0  0  0  0  0
   -6.6178    5.1340  -17.5840 C   0  0  0  0  0  0  0  0  0  0  0  0
   -5.5990    5.3729  -18.5104 N   0  0  0  0  0  0  0  0  0  0  0  0
   -5.3277    4.7319  -19.8990 C   0  0  0  0  0  0  0  0  0  0  0  0
   -5.9573    3.9615  -20.5149 O   0  0  0  0  0  0  0  0  0  0  0  0
   -4.0409    5.1934  -20.4849 C   0  0  0  0  0  0  0  0  0  0  0  0
   -4.0900    5.4453  -21.8562 C   0  0  0  0  0  0  0  0  0  0  0  0
   -2.9461    5.8986  -22.4568 C   0  0  0  0  0  0  0  0  0  0  0  0
   -2.9124    6.1943  -23.7869 O   0  0  0  0  0  0  0  0  0  0  0  0
   -1.8084    6.1464  -21.7982 N   0  0  0  0  0  0  0  0  0  0  0  0
   -1.7602    5.9117  -20.4806 C   0  0  0  0  0  0  0  0  0  0  0  0
   -0.5916    6.2568  -19.8145 C   0  0  0  0  0  0  0  0  0  0  0  0
   -0.4746    6.1648  -18.4270 C   0  0  0  0  0  0  0  0  0  0  0  0
   -1.5265    5.6381  -17.6980 C   0  0  0  0  0  0  0  0  0  0  0  0
   -1.4712    5.6534  -15.8061 Br  0  0  0  0  0  0  0  0  0  0  0  0
   -2.6613    5.1657  -18.3534 C   0  0  0  0  0  0  0  0  0  0  0  0
   -2.8453    5.3943  -19.7459 C   0  0  0  0  0  0  0  0  0  0  0  0
   -7.8755    4.6739  -17.9334 C   0  0  0  0  0  0  0  0  0  0  0  0
   -8.2710    4.6008  -19.2017 N   0  0  0  0  0  0  0  0  0  0  0  0
   -9.5816    4.5110  -19.4537 C   0  0  0  0  0  0  0  0  0  0  0  0
  -10.5328    4.3271  -18.4889 C   0  0  0  0  0  0  0  0  0  0  0  0
  -10.0878    4.1573  -17.2128 C   0  0  0  0  0  0  0  0  0  0  0  0
   -8.7871    4.4504  -16.8978 C   0  0  0  0  0  0  0  0  0  0  0  0
   -8.4831    4.6640  -15.5632 C   0  0  0  0  0  0  0  0  0  0  0  0
  1  2  1  0
  2  3  1  0
  2  4  1  0
  2  5  1  0
  5  6  2  0
  6  7  1  0
  7  8  1  0
  8  9  1  0
  9 10  2  0
  9 11  1  0
 11 12  2  0
 12 13  1  0
 13 14  1  0
 13 15  2  0
 15 16  1  0
 16 17  2  0
 17 18  1  0
 18 19  2  0
 19 20  1  0
 19 21  1  0
 21 22  2  0
  7 23  2  0
 23 24  1  0
 24 25  2  0
 25 26  1  0
 26 27  2  0
 27 28  1  0
 28 29  2  0
 29  5  1  0
 22 11  1  0
 28 23  1  0
 22 16  1  0
M  END
>  <energy_score>  (826) 
-11.576611

>  <alias>  (826) 
None

>  <HIPPO Pose ID>  (826) 
70260

>  <smiles>  (826) 
CC(C)(C)c1cc(NC(=O)c2cc(O)nc3ccc(Br)cc23)c2ncccc2c1

>  <inchikey>  (826) 
YUWKXODWFWSLQK-UHFFFAOYSA-N

>  <distance_score>  (826) 
1.416391

>  <ref_mols>  (826) 
Z0917a,Z0852a

>  <ref_pdb>  (826) 
Z0852a

>  <HIPPO Compound ID>  (826) 
142182

>  <name>  (826) 
P70260

>  <inspiration_score>  (826) 
None

$$$$
P70261
     RDKit          3D

 29 32  0  0  0  0  0  0  0  0999 V2000
   -0.2766    5.8802  -15.5481 C   0  0  0  0  0  0  0  0  0  0  0  0
   -1.4282    5.4180  -16.2456 O   0  0  0  0  0  0  0  0  0  0  0  0
   -1.4296    5.5752  -17.6038 C   0  0  0  0  0  0  0  0  0  0  0  0
   -0.3974    6.0932  -18.3696 C   0  0  0  0  0  0  0  0  0  0  0  0
   -0.5605    6.2157  -19.7521 C   0  0  0  0  0  0  0  0  0  0  0  0
   -1.7500    5.8950  -20.3885 C   0  0  0  0  0  0  0  0  0  0  0  0
   -1.8203    6.1115  -21.7111 N   0  0  0  0  0  0  0  0  0  0  0  0
   -2.9756    5.8556  -22.3488 C   0  0  0  0  0  0  0  0  0  0  0  0
   -4.1064    5.4248  -21.7046 C   0  0  0  0  0  0  0  0  0  0  0  0
   -4.0347    5.1977  -20.3269 C   0  0  0  0  0  0  0  0  0  0  0  0
   -5.3037    4.7229  -19.7166 C   0  0  0  0  0  0  0  0  0  0  0  0
   -5.9396    3.9737  -20.3544 O   0  0  0  0  0  0  0  0  0  0  0  0
   -5.5874    5.3541  -18.3208 N   0  0  0  0  0  0  0  0  0  0  0  0
   -6.6308    5.1257  -17.4145 C   0  0  0  0  0  0  0  0  0  0  0  0
   -6.4283    5.4660  -16.0647 C   0  0  0  0  0  0  0  0  0  0  0  0
   -7.4361    5.2472  -15.1088 C   0  0  0  0  0  0  0  0  0  0  0  0
   -7.3412    5.7461  -13.6940 C   0  0  0  0  0  0  0  0  0  0  0  0
   -6.2710    5.2528  -13.0226 F   0  0  0  0  0  0  0  0  0  0  0  0
   -7.2338    7.1048  -13.6449 F   0  0  0  0  0  0  0  0  0  0  0  0
   -8.4388    5.4504  -12.9387 F   0  0  0  0  0  0  0  0  0  0  0  0
   -8.6162    4.6419  -15.5089 C   0  0  0  0  0  0  0  0  0  0  0  0
   -8.8492    4.4431  -16.8562 C   0  0  0  0  0  0  0  0  0  0  0  0
  -10.1354    4.1671  -17.2420 C   0  0  0  0  0  0  0  0  0  0  0  0
  -10.5147    4.3534  -18.5346 C   0  0  0  0  0  0  0  0  0  0  0  0
   -9.5151    4.5162  -19.4485 C   0  0  0  0  0  0  0  0  0  0  0  0
   -8.2200    4.6138  -19.1234 N   0  0  0  0  0  0  0  0  0  0  0  0
   -7.8807    4.6753  -17.8361 C   0  0  0  0  0  0  0  0  0  0  0  0
   -2.8226    5.3978  -19.6237 C   0  0  0  0  0  0  0  0  0  0  0  0
   -2.6013    5.1608  -18.2404 C   0  0  0  0  0  0  0  0  0  0  0  0
  1  2  1  0
  2  3  1  0
  3  4  2  0
  4  5  1  0
  5  6  2  0
  6  7  1  0
  7  8  2  0
  8  9  1  0
  9 10  2  0
 10 11  1  0
 11 12  2  0
 11 13  1  0
 13 14  1  0
 14 15  2  0
 15 16  1  0
 16 17  1  0
 17 18  1  0
 17 19  1  0
 17 20  1  0
 16 21  2  0
 21 22  1  0
 22 23  2  0
 23 24  1  0
 24 25  2  0
 25 26  1  0
 26 27  2  0
 10 28  1  0
 28 29  2  0
 29  3  1  0
 28  6  1  0
 27 14  1  0
 27 22  1  0
M  END
>  <energy_score>  (827) 
-14.350075

>  <alias>  (827) 
None

>  <HIPPO Pose ID>  (827) 
70261

>  <smiles>  (827) 
COc1ccc2nccc(C(=O)Nc3cc(C(F)(F)F)cc4cccnc34)c2c1

>  <inchikey>  (827) 
XMFYKWJZHPYMSA-UHFFFAOYSA-N

>  <distance_score>  (827) 
1.06397

>  <ref_mols>  (827) 
Z0917a,Z0852a

>  <ref_pdb>  (827) 
Z0852a

>  <HIPPO Compound ID>  (827) 
142183

>  <name>  (827) 
P70261

>  <inspiration_score>  (827) 
None

$$$$
P70262
     RDKit          3D

 29 32  0  0  0  0  0  0  0  0999 V2000
   -6.6640    5.1933  -11.5514 C   0  0  0  0  0  0  0  0  0  0  0  0
   -7.1876    5.0505  -12.8718 O   0  0  0  0  0  0  0  0  0  0  0  0
   -6.2898    5.3003  -13.8559 C   0  0  0  0  0  0  0  0  0  0  0  0
   -5.1287    5.6445  -13.6989 O   0  0  0  0  0  0  0  0  0  0  0  0
   -6.9182    5.1339  -15.1908 C   0  0  0  0  0  0  0  0  0  0  0  0
   -6.1952    5.5099  -16.3222 C   0  0  0  0  0  0  0  0  0  0  0  0
   -6.7295    5.3159  -17.6064 C   0  0  0  0  0  0  0  0  0  0  0  0
   -5.8446    5.4507  -18.6583 N   0  0  0  0  0  0  0  0  0  0  0  0
   -5.7944    4.7242  -20.0402 C   0  0  0  0  0  0  0  0  0  0  0  0
   -6.5386    3.9611  -20.5236 O   0  0  0  0  0  0  0  0  0  0  0  0
   -4.5302    5.0600  -20.7005 C   0  0  0  0  0  0  0  0  0  0  0  0
   -4.5376    5.5145  -22.0047 C   0  0  0  0  0  0  0  0  0  0  0  0
   -3.3287    5.9397  -22.4863 C   0  0  0  0  0  0  0  0  0  0  0  0
   -3.1813    6.5398  -24.0851 Cl  0  0  0  0  0  0  0  0  0  0  0  0
   -2.2024    6.0118  -21.7509 N   0  0  0  0  0  0  0  0  0  0  0  0
   -2.2323    5.5701  -20.4709 C   0  0  0  0  0  0  0  0  0  0  0  0
   -1.1703    5.7508  -19.5976 C   0  0  0  0  0  0  0  0  0  0  0  0
   -0.0879    6.3762  -20.0348 F   0  0  0  0  0  0  0  0  0  0  0  0
   -1.1735    5.4089  -18.2481 C   0  0  0  0  0  0  0  0  0  0  0  0
   -2.2615    4.7490  -17.7330 C   0  0  0  0  0  0  0  0  0  0  0  0
   -3.3089    4.4666  -18.5858 C   0  0  0  0  0  0  0  0  0  0  0  0
   -3.3598    4.9927  -19.9129 C   0  0  0  0  0  0  0  0  0  0  0  0
   -8.0173    4.8843  -17.7882 C   0  0  0  0  0  0  0  0  0  0  0  0
   -8.5785    4.9429  -18.9917 N   0  0  0  0  0  0  0  0  0  0  0  0
   -9.8719    4.6602  -19.1191 C   0  0  0  0  0  0  0  0  0  0  0  0
  -10.6327    4.2081  -18.0777 C   0  0  0  0  0  0  0  0  0  0  0  0
  -10.0151    4.0864  -16.8494 C   0  0  0  0  0  0  0  0  0  0  0  0
   -8.7244    4.5076  -16.6539 C   0  0  0  0  0  0  0  0  0  0  0  0
   -8.1853    4.5907  -15.3635 C   0  0  0  0  0  0  0  0  0  0  0  0
  1  2  1  0
  2  3  1  0
  3  4  2  0
  3  5  1  0
  5  6  2  0
  6  7  1  0
  7  8  1  0
  8  9  1  0
  9 10  2  0
  9 11  1  0
 11 12  2  0
 12 13  1  0
 13 14  1  0
 13 15  2  0
 15 16  1  0
 16 17  2  0
 17 18  1  0
 17 19  1  0
 19 20  2  0
 20 21  1  0
 21 22  2  0
  7 23  2  0
 23 24  1  0
 24 25  2  0
 25 26  1  0
 26 27  2  0
 27 28  1  0
 28 29  2  0
 29  5  1  0
 22 11  1  0
 28 23  1  0
 22 16  1  0
M  END
>  <energy_score>  (828) 
-5.302622

>  <alias>  (828) 
None

>  <HIPPO Pose ID>  (828) 
70262

>  <smiles>  (828) 
COC(=O)c1cc(NC(=O)c2cc(Cl)nc3c(F)cccc23)c2ncccc2c1

>  <inchikey>  (828) 
ZMBXYVITZXUFKN-UHFFFAOYSA-N

>  <distance_score>  (828) 
1.60141

>  <ref_mols>  (828) 
Z0917a,Z0852a

>  <ref_pdb>  (828) 
Z0852a

>  <HIPPO Compound ID>  (828) 
142184

>  <name>  (828) 
P70262

>  <inspiration_score>  (828) 
None

$$$$
P70263
     RDKit          3D

 29 32  0  0  0  0  0  0  0  0999 V2000
   -6.3732    5.0270  -11.5189 C   0  0  0  0  0  0  0  0  0  0  0  0
   -6.8843    4.9212  -12.8479 O   0  0  0  0  0  0  0  0  0  0  0  0
   -5.9594    5.1169  -13.8182 C   0  0  0  0  0  0  0  0  0  0  0  0
   -4.7827    5.3943  -13.6448 O   0  0  0  0  0  0  0  0  0  0  0  0
   -6.5734    4.9750  -15.1638 C   0  0  0  0  0  0  0  0  0  0  0  0
   -5.7988    5.2854  -16.2833 C   0  0  0  0  0  0  0  0  0  0  0  0
   -6.3067    5.1132  -17.5788 C   0  0  0  0  0  0  0  0  0  0  0  0
   -5.4117    5.3375  -18.6259 N   0  0  0  0  0  0  0  0  0  0  0  0
   -5.3428    4.7097  -20.0476 C   0  0  0  0  0  0  0  0  0  0  0  0
   -6.0701    3.9668  -20.5848 O   0  0  0  0  0  0  0  0  0  0  0  0
   -4.0808    5.1674  -20.7091 C   0  0  0  0  0  0  0  0  0  0  0  0
   -4.2596    5.4570  -22.0069 C   0  0  0  0  0  0  0  0  0  0  0  0
   -3.1407    5.8818  -22.8595 C   0  0  0  0  0  0  0  0  0  0  0  0
   -3.3068    6.0971  -24.0547 O   0  0  0  0  0  0  0  0  0  0  0  0
   -1.9385    6.0506  -22.2448 N   0  0  0  0  0  0  0  0  0  0  0  0
   -1.7029    5.8096  -20.8833 C   0  0  0  0  0  0  0  0  0  0  0  0
   -0.4413    6.0852  -20.3345 C   0  0  0  0  0  0  0  0  0  0  0  0
    0.9763    6.7839  -21.3876 Br  0  0  0  0  0  0  0  0  0  0  0  0
   -0.2174    5.8895  -18.9768 C   0  0  0  0  0  0  0  0  0  0  0  0
   -1.2331    5.3605  -18.1874 C   0  0  0  0  0  0  0  0  0  0  0  0
   -2.4616    5.0030  -18.7500 C   0  0  0  0  0  0  0  0  0  0  0  0
   -2.7474    5.3054  -20.0877 C   0  0  0  0  0  0  0  0  0  0  0  0
   -7.6317    4.7370  -17.7816 C   0  0  0  0  0  0  0  0  0  0  0  0
   -8.1853    4.7443  -18.9968 N   0  0  0  0  0  0  0  0  0  0  0  0
   -9.5012    4.5226  -19.1257 C   0  0  0  0  0  0  0  0  0  0  0  0
  -10.3189    4.2125  -18.0707 C   0  0  0  0  0  0  0  0  0  0  0  0
   -9.7344    4.1359  -16.8236 C   0  0  0  0  0  0  0  0  0  0  0  0
   -8.4031    4.4564  -16.6458 C   0  0  0  0  0  0  0  0  0  0  0  0
   -7.8802    4.5356  -15.3510 C   0  0  0  0  0  0  0  0  0  0  0  0
  1  2  1  0
  2  3  1  0
  3  4  2  0
  3  5  1  0
  5  6  2  0
  6  7  1  0
  7  8  1  0
  8  9  1  0
  9 10  2  0
  9 11  1  0
 11 12  2  0
 12 13  1  0
 13 14  2  0
 13 15  1  0
 15 16  1  0
 16 17  2  0
 17 18  1  0
 17 19  1  0
 19 20  2  0
 20 21  1  0
 21 22  2  0
  7 23  2  0
 23 24  1  0
 24 25  2  0
 25 26  1  0
 26 27  2  0
 27 28  1  0
 28 29  2  0
 29  5  1  0
 22 11  1  0
 28 23  1  0
 22 16  1  0
M  END
>  <energy_score>  (829) 
-23.858289

>  <alias>  (829) 
None

>  <HIPPO Pose ID>  (829) 
70263

>  <smiles>  (829) 
COC(=O)c1cc(NC(=O)c2cc(=O)[nH]c3c(Br)cccc23)c2ncccc2c1

>  <inchikey>  (829) 
BRTQUPNNKCVCPS-UHFFFAOYSA-N

>  <distance_score>  (829) 
1.589782

>  <ref_mols>  (829) 
Z0917a,Z0852a

>  <ref_pdb>  (829) 
Z0852a

>  <HIPPO Compound ID>  (829) 
142186

>  <name>  (829) 
P70263

>  <inspiration_score>  (829) 
None

$$$$
P70264
     RDKit          3D

 29 32  0  0  0  0  0  0  0  0999 V2000
   -6.0568    3.9345  -20.4238 O   0  0  0  0  0  0  0  0  0  0  0  0
   -5.3906    4.6762  -19.8072 C   0  0  0  0  0  0  0  0  0  0  0  0
   -5.6257    5.3203  -18.4034 N   0  0  0  0  0  0  0  0  0  0  0  0
   -6.6487    5.1132  -17.4668 C   0  0  0  0  0  0  0  0  0  0  0  0
   -6.4234    5.4566  -16.1214 C   0  0  0  0  0  0  0  0  0  0  0  0
   -7.4182    5.2414  -15.1481 C   0  0  0  0  0  0  0  0  0  0  0  0
   -7.3082    5.7476  -13.7356 C   0  0  0  0  0  0  0  0  0  0  0  0
   -8.3925    5.4471  -12.9634 F   0  0  0  0  0  0  0  0  0  0  0  0
   -6.2237    5.2681  -13.0779 F   0  0  0  0  0  0  0  0  0  0  0  0
   -7.2117    7.1075  -13.6958 F   0  0  0  0  0  0  0  0  0  0  0  0
   -8.6049    4.6338  -15.5265 C   0  0  0  0  0  0  0  0  0  0  0  0
   -8.8610    4.4372  -16.8693 C   0  0  0  0  0  0  0  0  0  0  0  0
  -10.1522    4.1607  -17.2378 C   0  0  0  0  0  0  0  0  0  0  0  0
  -10.5530    4.3596  -18.5225 C   0  0  0  0  0  0  0  0  0  0  0  0
   -9.5685    4.5407  -19.4491 C   0  0  0  0  0  0  0  0  0  0  0  0
   -8.2688    4.6274  -19.1427 N   0  0  0  0  0  0  0  0  0  0  0  0
   -7.9090    4.6728  -17.8625 C   0  0  0  0  0  0  0  0  0  0  0  0
   -4.0968    5.1595  -20.3837 C   0  0  0  0  0  0  0  0  0  0  0  0
   -4.1837    5.3925  -21.7048 C   0  0  0  0  0  0  0  0  0  0  0  0
   -3.0189    5.8150  -22.4954 C   0  0  0  0  0  0  0  0  0  0  0  0
   -3.1087    5.9961  -23.7043 O   0  0  0  0  0  0  0  0  0  0  0  0
   -1.8641    6.0214  -21.8048 N   0  0  0  0  0  0  0  0  0  0  0  0
   -1.7210    5.8246  -20.4221 C   0  0  0  0  0  0  0  0  0  0  0  0
   -0.5019    6.1208  -19.7948 C   0  0  0  0  0  0  0  0  0  0  0  0
    0.9828    6.7987  -20.7650 Br  0  0  0  0  0  0  0  0  0  0  0  0
   -0.3674    5.9516  -18.4203 C   0  0  0  0  0  0  0  0  0  0  0  0
   -1.4290    5.4296  -17.6867 C   0  0  0  0  0  0  0  0  0  0  0  0
   -2.6195    5.0655  -18.3214 C   0  0  0  0  0  0  0  0  0  0  0  0
   -2.8141    5.3365  -19.6818 C   0  0  0  0  0  0  0  0  0  0  0  0
  1  2  2  0
  2  3  1  0
  3  4  1  0
  4  5  2  0
  5  6  1  0
  6  7  1  0
  7  8  1  0
  7  9  1  0
  7 10  1  0
  6 11  2  0
 11 12  1  0
 12 13  2  0
 13 14  1  0
 14 15  2  0
 15 16  1  0
 16 17  2  0
  2 18  1  0
 18 19  2  0
 19 20  1  0
 20 21  2  0
 20 22  1  0
 22 23  1  0
 23 24  2  0
 24 25  1  0
 24 26  1  0
 26 27  2  0
 27 28  1  0
 28 29  2  0
 17  4  1  0
 29 18  1  0
 17 12  1  0
 29 23  1  0
M  END
>  <energy_score>  (830) 
-18.79763

>  <alias>  (830) 
None

>  <HIPPO Pose ID>  (830) 
70264

>  <smiles>  (830) 
O=C(Nc1cc(C(F)(F)F)cc2cccnc12)c1cc(=O)[nH]c2c(Br)cccc12

>  <inchikey>  (830) 
VYLLRCYBVLUQEL-UHFFFAOYSA-N

>  <distance_score>  (830) 
1.034466

>  <ref_mols>  (830) 
Z0917a,Z0852a

>  <ref_pdb>  (830) 
Z0852a

>  <HIPPO Compound ID>  (830) 
142187

>  <name>  (830) 
P70264

>  <inspiration_score>  (830) 
None

$$$$
P70265
     RDKit          3D

 29 32  0  0  0  0  0  0  0  0999 V2000
   -6.8672    6.9546  -13.8387 C   0  0  0  0  0  0  0  0  0  0  0  0
   -7.1853    5.4571  -13.7871 C   0  0  0  0  0  0  0  0  0  0  0  0
   -6.0251    4.6953  -13.1407 C   0  0  0  0  0  0  0  0  0  0  0  0
   -8.4194    5.2984  -12.8689 C   0  0  0  0  0  0  0  0  0  0  0  0
   -7.3926    4.9892  -15.2265 C   0  0  0  0  0  0  0  0  0  0  0  0
   -6.4056    5.1669  -16.2196 C   0  0  0  0  0  0  0  0  0  0  0  0
   -6.6690    4.9157  -17.5761 C   0  0  0  0  0  0  0  0  0  0  0  0
   -5.6402    5.1383  -18.4987 N   0  0  0  0  0  0  0  0  0  0  0  0
   -5.4503    4.6047  -19.9519 C   0  0  0  0  0  0  0  0  0  0  0  0
   -6.0865    3.8373  -20.5684 O   0  0  0  0  0  0  0  0  0  0  0  0
   -4.1799    5.1488  -20.5305 C   0  0  0  0  0  0  0  0  0  0  0  0
   -4.3135    5.4581  -21.8311 C   0  0  0  0  0  0  0  0  0  0  0  0
   -3.1819    5.9479  -22.6302 C   0  0  0  0  0  0  0  0  0  0  0  0
   -3.3136    6.1975  -23.8231 O   0  0  0  0  0  0  0  0  0  0  0  0
   -2.0103    6.1404  -21.9654 N   0  0  0  0  0  0  0  0  0  0  0  0
   -1.8201    5.8737  -20.6010 C   0  0  0  0  0  0  0  0  0  0  0  0
   -0.5899    6.1738  -19.9971 C   0  0  0  0  0  0  0  0  0  0  0  0
    0.8444    6.9419  -20.9765 Br  0  0  0  0  0  0  0  0  0  0  0  0
   -0.4099    5.9473  -18.6373 C   0  0  0  0  0  0  0  0  0  0  0  0
   -1.4339    5.3592  -17.9018 C   0  0  0  0  0  0  0  0  0  0  0  0
   -2.6274    4.9783  -18.5209 C   0  0  0  0  0  0  0  0  0  0  0  0
   -2.8771    5.3159  -19.8571 C   0  0  0  0  0  0  0  0  0  0  0  0
   -7.9518    4.5658  -17.9702 C   0  0  0  0  0  0  0  0  0  0  0  0
   -8.3232    4.5729  -19.2467 N   0  0  0  0  0  0  0  0  0  0  0  0
   -9.6299    4.5821  -19.5313 C   0  0  0  0  0  0  0  0  0  0  0  0
  -10.6164    4.4424  -18.6004 C   0  0  0  0  0  0  0  0  0  0  0  0
  -10.2163    4.1762  -17.3303 C   0  0  0  0  0  0  0  0  0  0  0  0
   -8.9040    4.3567  -16.9723 C   0  0  0  0  0  0  0  0  0  0  0  0
   -8.6179    4.4821  -15.6257 C   0  0  0  0  0  0  0  0  0  0  0  0
  1  2  1  0
  2  3  1  0
  2  4  1  0
  2  5  1  0
  5  6  2  0
  6  7  1  0
  7  8  1  0
  8  9  1  0
  9 10  2  0
  9 11  1  0
 11 12  2  0
 12 13  1  0
 13 14  2  0
 13 15  1  0
 15 16  1  0
 16 17  2  0
 17 18  1  0
 17 19  1  0
 19 20  2  0
 20 21  1  0
 21 22  2  0
  7 23  2  0
 23 24  1  0
 24 25  2  0
 25 26  1  0
 26 27  2  0
 27 28  1  0
 28 29  2  0
 29  5  1  0
 22 11  1  0
 28 23  1  0
 22 16  1  0
M  END
>  <energy_score>  (831) 
-22.919022

>  <alias>  (831) 
None

>  <HIPPO Pose ID>  (831) 
70265

>  <smiles>  (831) 
CC(C)(C)c1cc(NC(=O)c2cc(=O)[nH]c3c(Br)cccc23)c2ncccc2c1

>  <inchikey>  (831) 
IHRJLVIWWIVAAC-UHFFFAOYSA-N

>  <distance_score>  (831) 
1.12158

>  <ref_mols>  (831) 
Z0917a,Z0852a

>  <ref_pdb>  (831) 
Z0852a

>  <HIPPO Compound ID>  (831) 
142188

>  <name>  (831) 
P70265

>  <inspiration_score>  (831) 
None

$$$$
P70266
     RDKit          3D

 29 32  0  0  0  0  0  0  0  0999 V2000
   -3.3116    6.4457  -24.0944 C   0  0  0  0  0  0  0  0  0  0  0  0
   -3.2043    6.0644  -22.6495 C   0  0  0  0  0  0  0  0  0  0  0  0
   -4.2944    5.5655  -21.9711 C   0  0  0  0  0  0  0  0  0  0  0  0
   -4.1369    5.2053  -20.6319 C   0  0  0  0  0  0  0  0  0  0  0  0
   -5.3632    4.6695  -19.9854 C   0  0  0  0  0  0  0  0  0  0  0  0
   -6.0106    3.9106  -20.5984 O   0  0  0  0  0  0  0  0  0  0  0  0
   -5.5453    5.2118  -18.5396 N   0  0  0  0  0  0  0  0  0  0  0  0
   -6.5793    5.0112  -17.6164 C   0  0  0  0  0  0  0  0  0  0  0  0
   -6.3077    5.3614  -16.2840 C   0  0  0  0  0  0  0  0  0  0  0  0
   -7.2708    5.2379  -15.2641 C   0  0  0  0  0  0  0  0  0  0  0  0
   -7.0683    5.8006  -13.8587 C   0  0  0  0  0  0  0  0  0  0  0  0
   -6.5644    4.6867  -12.9360 C   0  0  0  0  0  0  0  0  0  0  0  0
   -6.0531    6.9443  -13.8829 C   0  0  0  0  0  0  0  0  0  0  0  0
   -8.3575    6.4060  -13.2603 C   0  0  0  0  0  0  0  0  0  0  0  0
   -8.4706    4.6298  -15.5943 C   0  0  0  0  0  0  0  0  0  0  0  0
   -8.7755    4.4115  -16.9272 C   0  0  0  0  0  0  0  0  0  0  0  0
  -10.0860    4.1590  -17.2387 C   0  0  0  0  0  0  0  0  0  0  0  0
  -10.5281    4.3453  -18.5129 C   0  0  0  0  0  0  0  0  0  0  0  0
   -9.5728    4.4998  -19.4784 C   0  0  0  0  0  0  0  0  0  0  0  0
   -8.2590    4.5450  -19.2304 N   0  0  0  0  0  0  0  0  0  0  0  0
   -7.8562    4.6032  -17.9640 C   0  0  0  0  0  0  0  0  0  0  0  0
   -2.8849    5.3455  -19.9834 C   0  0  0  0  0  0  0  0  0  0  0  0
   -2.5886    4.9984  -18.6395 C   0  0  0  0  0  0  0  0  0  0  0  0
   -1.3699    5.3491  -18.0639 C   0  0  0  0  0  0  0  0  0  0  0  0
   -0.3777    5.9093  -18.8512 C   0  0  0  0  0  0  0  0  0  0  0  0
    1.3031    6.3218  -18.0939 Br  0  0  0  0  0  0  0  0  0  0  0  0
   -0.6155    6.1555  -20.1969 C   0  0  0  0  0  0  0  0  0  0  0  0
   -1.8523    5.8997  -20.7664 C   0  0  0  0  0  0  0  0  0  0  0  0
   -2.0061    6.2341  -22.0549 N   0  0  0  0  0  0  0  0  0  0  0  0
  1  2  1  0
  2  3  2  0
  3  4  1  0
  4  5  1  0
  5  6  2  0
  5  7  1  0
  7  8  1  0
  8  9  2  0
  9 10  1  0
 10 11  1  0
 11 12  1  0
 11 13  1  0
 11 14  1  0
 10 15  2  0
 15 16  1  0
 16 17  2  0
 17 18  1  0
 18 19  2  0
 19 20  1  0
 20 21  2  0
  4 22  2  0
 22 23  1  0
 23 24  2  0
 24 25  1  0
 25 26  1  0
 25 27  2  0
 27 28  1  0
 28 29  2  0
 29  2  1  0
 21  8  1  0
 28 22  1  0
 21 16  1  0
M  END
>  <energy_score>  (832) 
-15.232837

>  <alias>  (832) 
None

>  <HIPPO Pose ID>  (832) 
70266

>  <smiles>  (832) 
Cc1cc(C(=O)Nc2cc(C(C)(C)C)cc3cccnc23)c2ccc(Br)cc2n1

>  <inchikey>  (832) 
YTLCJNCYLHCDAU-UHFFFAOYSA-N

>  <distance_score>  (832) 
1.25895

>  <ref_mols>  (832) 
Z0917a,Z0852a

>  <ref_pdb>  (832) 
Z0852a

>  <HIPPO Compound ID>  (832) 
142190

>  <name>  (832) 
P70266

>  <inspiration_score>  (832) 
None

$$$$
P70267
     RDKit          3D

 29 32  0  0  0  0  0  0  0  0999 V2000
   -6.4668    4.2447  -11.5209 C   0  0  0  0  0  0  0  0  0  0  0  0
   -6.9426    4.3772  -12.8599 O   0  0  0  0  0  0  0  0  0  0  0  0
   -5.9684    4.5314  -13.7889 C   0  0  0  0  0  0  0  0  0  0  0  0
   -4.7732    4.6451  -13.5636 O   0  0  0  0  0  0  0  0  0  0  0  0
   -6.5525    4.5637  -15.1553 C   0  0  0  0  0  0  0  0  0  0  0  0
   -5.7121    4.8144  -16.2388 C   0  0  0  0  0  0  0  0  0  0  0  0
   -6.1885    4.7831  -17.5635 C   0  0  0  0  0  0  0  0  0  0  0  0
   -5.1958    4.9872  -18.5308 N   0  0  0  0  0  0  0  0  0  0  0  0
   -5.1911    4.6761  -20.0541 C   0  0  0  0  0  0  0  0  0  0  0  0
   -5.9851    4.1318  -20.7196 O   0  0  0  0  0  0  0  0  0  0  0  0
   -3.9179    5.1657  -20.6771 C   0  0  0  0  0  0  0  0  0  0  0  0
   -2.7038    4.9628  -20.0107 C   0  0  0  0  0  0  0  0  0  0  0  0
   -2.6785    4.3757  -18.7733 O   0  0  0  0  0  0  0  0  0  0  0  0
   -1.5354    5.4061  -20.6108 C   0  0  0  0  0  0  0  0  0  0  0  0
   -0.2156    5.3788  -19.8985 C   0  0  0  0  0  0  0  0  0  0  0  0
   -1.5305    5.9840  -21.8322 N   0  0  0  0  0  0  0  0  0  0  0  0
   -2.6872    6.1721  -22.4800 C   0  0  0  0  0  0  0  0  0  0  0  0
   -2.6324    6.7923  -23.7225 C   0  0  0  0  0  0  0  0  0  0  0  0
   -3.7819    7.0926  -24.4538 C   0  0  0  0  0  0  0  0  0  0  0  0
   -5.0215    6.7738  -23.9279 C   0  0  0  0  0  0  0  0  0  0  0  0
   -5.0916    6.1422  -22.6865 C   0  0  0  0  0  0  0  0  0  0  0  0
   -3.9333    5.8084  -21.9427 C   0  0  0  0  0  0  0  0  0  0  0  0
   -7.5472    4.5770  -17.8229 C   0  0  0  0  0  0  0  0  0  0  0  0
   -8.0806    4.6438  -19.0488 N   0  0  0  0  0  0  0  0  0  0  0  0
   -9.4113    4.5311  -19.2048 C   0  0  0  0  0  0  0  0  0  0  0  0
  -10.2818    4.3033  -18.1725 C   0  0  0  0  0  0  0  0  0  0  0  0
   -9.7341    4.1720  -16.9178 C   0  0  0  0  0  0  0  0  0  0  0  0
   -8.3804    4.3545  -16.7114 C   0  0  0  0  0  0  0  0  0  0  0  0
   -7.8979    4.3262  -15.3999 C   0  0  0  0  0  0  0  0  0  0  0  0
  1  2  1  0
  2  3  1  0
  3  4  2  0
  3  5  1  0
  5  6  2  0
  6  7  1  0
  7  8  1  0
  8  9  1  0
  9 10  2  0
  9 11  1  0
 11 12  2  0
 12 13  1  0
 12 14  1  0
 14 15  1  0
 14 16  2  0
 16 17  1  0
 17 18  2  0
 18 19  1  0
 19 20  2  0
 20 21  1  0
 21 22  2  0
  7 23  2  0
 23 24  1  0
 24 25  2  0
 25 26  1  0
 26 27  2  0
 27 28  1  0
 28 29  2  0
 29  5  1  0
 22 11  1  0
 28 23  1  0
 22 17  1  0
M  END
>  <energy_score>  (833) 
-27.364903

>  <alias>  (833) 
None

>  <HIPPO Pose ID>  (833) 
70267

>  <smiles>  (833) 
COC(=O)c1cc(NC(=O)c2c(O)c(C)nc3ccccc23)c2ncccc2c1

>  <inchikey>  (833) 
YMUUGYDLTVRBTM-UHFFFAOYSA-N

>  <distance_score>  (833) 
1.76517

>  <ref_mols>  (833) 
Z0917a,Z0852a

>  <ref_pdb>  (833) 
Z0852a

>  <HIPPO Compound ID>  (833) 
142191

>  <name>  (833) 
P70267

>  <inspiration_score>  (833) 
None

$$$$
P70268
     RDKit          3D

 29 32  0  0  0  0  0  0  0  0999 V2000
   -7.8672    4.4635  -12.7986 C   0  0  0  0  0  0  0  0  0  0  0  0
   -7.5598    5.5966  -13.7918 C   0  0  0  0  0  0  0  0  0  0  0  0
   -8.5833    6.7149  -13.5723 C   0  0  0  0  0  0  0  0  0  0  0  0
   -6.1916    6.1965  -13.4456 C   0  0  0  0  0  0  0  0  0  0  0  0
   -7.6832    5.1240  -15.2398 C   0  0  0  0  0  0  0  0  0  0  0  0
   -6.7403    5.3770  -16.2451 C   0  0  0  0  0  0  0  0  0  0  0  0
   -7.0280    5.0882  -17.5914 C   0  0  0  0  0  0  0  0  0  0  0  0
   -6.0375    5.2907  -18.5386 N   0  0  0  0  0  0  0  0  0  0  0  0
   -5.8269    4.6355  -19.9427 C   0  0  0  0  0  0  0  0  0  0  0  0
   -6.5008    3.8851  -20.5395 O   0  0  0  0  0  0  0  0  0  0  0  0
   -4.5140    5.0027  -20.4775 C   0  0  0  0  0  0  0  0  0  0  0  0
   -4.4411    5.4073  -21.8016 C   0  0  0  0  0  0  0  0  0  0  0  0
   -3.2181    5.8455  -22.2275 C   0  0  0  0  0  0  0  0  0  0  0  0
   -2.9845    6.3894  -23.8353 Cl  0  0  0  0  0  0  0  0  0  0  0  0
   -2.1456    5.9698  -21.4261 N   0  0  0  0  0  0  0  0  0  0  0  0
   -2.2497    5.5710  -20.1358 C   0  0  0  0  0  0  0  0  0  0  0  0
   -1.2312    5.7849  -19.2220 C   0  0  0  0  0  0  0  0  0  0  0  0
   -0.1249    6.3854  -19.6357 F   0  0  0  0  0  0  0  0  0  0  0  0
   -1.2932    5.4780  -17.8644 C   0  0  0  0  0  0  0  0  0  0  0  0
   -2.3937    4.8120  -17.3816 C   0  0  0  0  0  0  0  0  0  0  0  0
   -3.4073    4.5103  -18.2715 C   0  0  0  0  0  0  0  0  0  0  0  0
   -3.3997    4.9966  -19.6152 C   0  0  0  0  0  0  0  0  0  0  0  0
   -8.2796    4.6749  -17.9666 C   0  0  0  0  0  0  0  0  0  0  0  0
   -8.6485    4.7503  -19.2350 N   0  0  0  0  0  0  0  0  0  0  0  0
   -9.9435    4.7372  -19.5189 C   0  0  0  0  0  0  0  0  0  0  0  0
  -10.9053    4.4666  -18.5959 C   0  0  0  0  0  0  0  0  0  0  0  0
  -10.4835    4.1301  -17.3490 C   0  0  0  0  0  0  0  0  0  0  0  0
   -9.1896    4.3794  -16.9703 C   0  0  0  0  0  0  0  0  0  0  0  0
   -8.8719    4.5084  -15.6272 C   0  0  0  0  0  0  0  0  0  0  0  0
  1  2  1  0
  2  3  1  0
  2  4  1  0
  2  5  1  0
  5  6  2  0
  6  7  1  0
  7  8  1  0
  8  9  1  0
  9 10  2  0
  9 11  1  0
 11 12  2  0
 12 13  1  0
 13 14  1  0
 13 15  2  0
 15 16  1  0
 16 17  2  0
 17 18  1  0
 17 19  1  0
 19 20  2  0
 20 21  1  0
 21 22  2  0
  7 23  2  0
 23 24  1  0
 24 25  2  0
 25 26  1  0
 26 27  2  0
 27 28  1  0
 28 29  2  0
 29  5  1  0
 22 11  1  0
 28 23  1  0
 22 16  1  0
M  END
>  <energy_score>  (834) 
-14.538331

>  <alias>  (834) 
None

>  <HIPPO Pose ID>  (834) 
70268

>  <smiles>  (834) 
CC(C)(C)c1cc(NC(=O)c2cc(Cl)nc3c(F)cccc23)c2ncccc2c1

>  <inchikey>  (834) 
WPUWVUXYXSIIPE-UHFFFAOYSA-N

>  <distance_score>  (834) 
1.529324

>  <ref_mols>  (834) 
Z0917a,Z0852a

>  <ref_pdb>  (834) 
Z0852a

>  <HIPPO Compound ID>  (834) 
142192

>  <name>  (834) 
P70268

>  <inspiration_score>  (834) 
None

$$$$
P70269
     RDKit          3D

 29 32  0  0  0  0  0  0  0  0999 V2000
   -5.9809    4.0929  -20.5130 O   0  0  0  0  0  0  0  0  0  0  0  0
   -5.2871    4.7358  -19.8212 C   0  0  0  0  0  0  0  0  0  0  0  0
   -5.4683    5.1751  -18.3312 N   0  0  0  0  0  0  0  0  0  0  0  0
   -6.5540    4.9956  -17.4500 C   0  0  0  0  0  0  0  0  0  0  0  0
   -6.3509    5.3128  -16.0904 C   0  0  0  0  0  0  0  0  0  0  0  0
   -7.3847    5.1670  -15.1453 C   0  0  0  0  0  0  0  0  0  0  0  0
   -7.2920    5.6828  -13.7341 C   0  0  0  0  0  0  0  0  0  0  0  0
   -7.2128    7.0443  -13.7020 F   0  0  0  0  0  0  0  0  0  0  0  0
   -8.3798    5.3746  -12.9696 F   0  0  0  0  0  0  0  0  0  0  0  0
   -6.2085    5.2204  -13.0635 F   0  0  0  0  0  0  0  0  0  0  0  0
   -8.5941    4.6354  -15.5576 C   0  0  0  0  0  0  0  0  0  0  0  0
   -8.8201    4.4403  -16.9050 C   0  0  0  0  0  0  0  0  0  0  0  0
  -10.1159    4.2141  -17.2941 C   0  0  0  0  0  0  0  0  0  0  0  0
  -10.4756    4.3915  -18.5916 C   0  0  0  0  0  0  0  0  0  0  0  0
   -9.4605    4.4838  -19.4973 C   0  0  0  0  0  0  0  0  0  0  0  0
   -8.1635    4.5351  -19.1640 N   0  0  0  0  0  0  0  0  0  0  0  0
   -7.8286    4.6174  -17.8785 C   0  0  0  0  0  0  0  0  0  0  0  0
   -3.9712    5.1465  -20.3559 C   0  0  0  0  0  0  0  0  0  0  0  0
   -2.8335    4.8058  -19.6301 C   0  0  0  0  0  0  0  0  0  0  0  0
   -2.8702    4.1904  -18.4113 O   0  0  0  0  0  0  0  0  0  0  0  0
   -1.6123    5.0998  -20.1917 C   0  0  0  0  0  0  0  0  0  0  0  0
   -1.4676    5.7043  -21.3926 N   0  0  0  0  0  0  0  0  0  0  0  0
   -2.5626    6.0184  -22.0973 C   0  0  0  0  0  0  0  0  0  0  0  0
   -2.3870    6.6265  -23.3304 C   0  0  0  0  0  0  0  0  0  0  0  0
   -3.4750    7.0028  -24.1064 C   0  0  0  0  0  0  0  0  0  0  0  0
   -3.2709    7.5901  -25.2926 F   0  0  0  0  0  0  0  0  0  0  0  0
   -4.7673    6.7832  -23.6679 C   0  0  0  0  0  0  0  0  0  0  0  0
   -4.9600    6.1695  -22.4331 C   0  0  0  0  0  0  0  0  0  0  0  0
   -3.8661    5.7690  -21.6265 C   0  0  0  0  0  0  0  0  0  0  0  0
  1  2  2  0
  2  3  1  0
  3  4  1  0
  4  5  2  0
  5  6  1  0
  6  7  1  0
  7  8  1  0
  7  9  1  0
  7 10  1  0
  6 11  2  0
 11 12  1  0
 12 13  2  0
 13 14  1  0
 14 15  2  0
 15 16  1  0
 16 17  2  0
  2 18  1  0
 18 19  2  0
 19 20  1  0
 19 21  1  0
 21 22  2  0
 22 23  1  0
 23 24  2  0
 24 25  1  0
 25 26  1  0
 25 27  2  0
 27 28  1  0
 28 29  2  0
 17  4  1  0
 29 18  1  0
 17 12  1  0
 29 23  1  0
M  END
>  <energy_score>  (835) 
-11.504342

>  <alias>  (835) 
None

>  <HIPPO Pose ID>  (835) 
70269

>  <smiles>  (835) 
O=C(Nc1cc(C(F)(F)F)cc2cccnc12)c1c(O)cnc2cc(F)ccc12

>  <inchikey>  (835) 
PCNSXJJPMZCRED-UHFFFAOYSA-N

>  <distance_score>  (835) 
0.95175

>  <ref_mols>  (835) 
Z0917a,Z0852a

>  <ref_pdb>  (835) 
Z0852a

>  <HIPPO Compound ID>  (835) 
142193

>  <name>  (835) 
P70269

>  <inspiration_score>  (835) 
None

$$$$
P70270
     RDKit          3D

 29 32  0  0  0  0  0  0  0  0999 V2000
   -6.0897    6.9858  -13.9374 C   0  0  0  0  0  0  0  0  0  0  0  0
   -7.0452    5.7922  -13.8715 C   0  0  0  0  0  0  0  0  0  0  0  0
   -8.3481    6.3465  -13.2517 C   0  0  0  0  0  0  0  0  0  0  0  0
   -6.4718    4.7174  -12.9446 C   0  0  0  0  0  0  0  0  0  0  0  0
   -7.2389    5.2025  -15.2682 C   0  0  0  0  0  0  0  0  0  0  0  0
   -6.2514    5.2779  -16.2712 C   0  0  0  0  0  0  0  0  0  0  0  0
   -6.5147    4.9505  -17.6131 C   0  0  0  0  0  0  0  0  0  0  0  0
   -5.4513    5.1312  -18.5149 N   0  0  0  0  0  0  0  0  0  0  0  0
   -5.3002    4.6909  -20.0034 C   0  0  0  0  0  0  0  0  0  0  0  0
   -6.0053    4.0451  -20.6789 O   0  0  0  0  0  0  0  0  0  0  0  0
   -3.9899    5.1194  -20.5409 C   0  0  0  0  0  0  0  0  0  0  0  0
   -2.8468    4.7817  -19.8166 C   0  0  0  0  0  0  0  0  0  0  0  0
   -2.8735    4.1559  -18.6004 O   0  0  0  0  0  0  0  0  0  0  0  0
   -1.6287    5.0948  -20.3735 C   0  0  0  0  0  0  0  0  0  0  0  0
   -1.4922    5.7182  -21.5654 N   0  0  0  0  0  0  0  0  0  0  0  0
   -2.5918    6.0385  -22.2614 C   0  0  0  0  0  0  0  0  0  0  0  0
   -2.4251    6.6744  -23.4817 C   0  0  0  0  0  0  0  0  0  0  0  0
   -3.5187    7.0597  -24.2458 C   0  0  0  0  0  0  0  0  0  0  0  0
   -3.3225    7.6740  -25.4195 F   0  0  0  0  0  0  0  0  0  0  0  0
   -4.8084    6.8222  -23.8080 C   0  0  0  0  0  0  0  0  0  0  0  0
   -4.9931    6.1811  -22.5861 C   0  0  0  0  0  0  0  0  0  0  0  0
   -3.8930    5.7695  -21.7948 C   0  0  0  0  0  0  0  0  0  0  0  0
   -7.8034    4.5817  -17.9752 C   0  0  0  0  0  0  0  0  0  0  0  0
   -8.1938    4.4957  -19.2434 N   0  0  0  0  0  0  0  0  0  0  0  0
   -9.5071    4.4672  -19.5060 C   0  0  0  0  0  0  0  0  0  0  0  0
  -10.4785    4.3615  -18.5504 C   0  0  0  0  0  0  0  0  0  0  0  0
  -10.0566    4.1912  -17.2686 C   0  0  0  0  0  0  0  0  0  0  0  0
   -8.7431    4.4189  -16.9481 C   0  0  0  0  0  0  0  0  0  0  0  0
   -8.4526    4.6349  -15.6131 C   0  0  0  0  0  0  0  0  0  0  0  0
  1  2  1  0
  2  3  1  0
  2  4  1  0
  2  5  1  0
  5  6  2  0
  6  7  1  0
  7  8  1  0
  8  9  1  0
  9 10  2  0
  9 11  1  0
 11 12  2  0
 12 13  1  0
 12 14  1  0
 14 15  2  0
 15 16  1  0
 16 17  2  0
 17 18  1  0
 18 19  1  0
 18 20  2  0
 20 21  1  0
 21 22  2  0
  7 23  2  0
 23 24  1  0
 24 25  2  0
 25 26  1  0
 26 27  2  0
 27 28  1  0
 28 29  2  0
 29  5  1  0
 22 11  1  0
 28 23  1  0
 22 16  1  0
M  END
>  <energy_score>  (836) 
-35.397497

>  <alias>  (836) 
None

>  <HIPPO Pose ID>  (836) 
70270

>  <smiles>  (836) 
CC(C)(C)c1cc(NC(=O)c2c(O)cnc3cc(F)ccc23)c2ncccc2c1

>  <inchikey>  (836) 
KWPFIEWNLWJYGJ-UHFFFAOYSA-N

>  <distance_score>  (836) 
1.327877

>  <ref_mols>  (836) 
Z0917a,Z0852a

>  <ref_pdb>  (836) 
Z0852a

>  <HIPPO Compound ID>  (836) 
142194

>  <name>  (836) 
P70270

>  <inspiration_score>  (836) 
None

$$$$
P70271
     RDKit          3D

 29 32  0  0  0  0  0  0  0  0999 V2000
    1.1266    6.2035  -16.6260 C   0  0  0  0  0  0  0  0  0  0  0  0
    0.8417    6.4446  -17.9976 O   0  0  0  0  0  0  0  0  0  0  0  0
   -0.3795    6.0440  -18.4617 C   0  0  0  0  0  0  0  0  0  0  0  0
   -1.3949    5.4732  -17.7087 C   0  0  0  0  0  0  0  0  0  0  0  0
   -2.5902    5.0951  -18.3242 C   0  0  0  0  0  0  0  0  0  0  0  0
   -2.8378    5.3932  -19.6877 C   0  0  0  0  0  0  0  0  0  0  0  0
   -4.0624    5.2121  -20.3721 C   0  0  0  0  0  0  0  0  0  0  0  0
   -5.3138    4.7154  -19.7467 C   0  0  0  0  0  0  0  0  0  0  0  0
   -5.9546    3.9674  -20.3814 O   0  0  0  0  0  0  0  0  0  0  0  0
   -5.5864    5.3429  -18.3458 N   0  0  0  0  0  0  0  0  0  0  0  0
   -6.6231    5.1109  -17.4307 C   0  0  0  0  0  0  0  0  0  0  0  0
   -6.4174    5.4549  -16.0820 C   0  0  0  0  0  0  0  0  0  0  0  0
   -7.4234    5.2398  -15.1222 C   0  0  0  0  0  0  0  0  0  0  0  0
   -7.3277    5.7460  -13.7093 C   0  0  0  0  0  0  0  0  0  0  0  0
   -7.2345    7.1063  -13.6687 F   0  0  0  0  0  0  0  0  0  0  0  0
   -6.2478    5.2695  -13.0419 F   0  0  0  0  0  0  0  0  0  0  0  0
   -8.4181    5.4431  -12.9471 F   0  0  0  0  0  0  0  0  0  0  0  0
   -8.6056    4.6353  -15.5169 C   0  0  0  0  0  0  0  0  0  0  0  0
   -8.8429    4.4355  -16.8629 C   0  0  0  0  0  0  0  0  0  0  0  0
  -10.1319    4.1651  -17.2435 C   0  0  0  0  0  0  0  0  0  0  0  0
  -10.5153    4.3537  -18.5345 C   0  0  0  0  0  0  0  0  0  0  0  0
   -9.5183    4.5137  -19.4518 C   0  0  0  0  0  0  0  0  0  0  0  0
   -8.2213    4.6035  -19.1317 N   0  0  0  0  0  0  0  0  0  0  0  0
   -7.8765    4.6635  -17.8461 C   0  0  0  0  0  0  0  0  0  0  0  0
   -4.1658    5.4857  -21.7384 C   0  0  0  0  0  0  0  0  0  0  0  0
   -3.0513    5.9478  -22.3889 C   0  0  0  0  0  0  0  0  0  0  0  0
   -1.8854    6.1913  -21.7654 N   0  0  0  0  0  0  0  0  0  0  0  0
   -1.7829    5.9287  -20.4522 C   0  0  0  0  0  0  0  0  0  0  0  0
   -0.5829    6.2367  -19.8281 C   0  0  0  0  0  0  0  0  0  0  0  0
  1  2  1  0
  2  3  1  0
  3  4  2  0
  4  5  1  0
  5  6  2  0
  6  7  1  0
  7  8  1  0
  8  9  2  0
  8 10  1  0
 10 11  1  0
 11 12  2  0
 12 13  1  0
 13 14  1  0
 14 15  1  0
 14 16  1  0
 14 17  1  0
 13 18  2  0
 18 19  1  0
 19 20  2  0
 20 21  1  0
 21 22  2  0
 22 23  1  0
 23 24  2  0
  7 25  2  0
 25 26  1  0
 26 27  2  0
 27 28  1  0
 28 29  2  0
 29  3  1  0
 28  6  1  0
 24 11  1  0
 24 19  1  0
M  END
>  <energy_score>  (837) 
-13.135282

>  <alias>  (837) 
None

>  <HIPPO Pose ID>  (837) 
70271

>  <smiles>  (837) 
COc1ccc2c(C(=O)Nc3cc(C(F)(F)F)cc4cccnc34)ccnc2c1

>  <inchikey>  (837) 
XFGQVRKPKGTMEB-UHFFFAOYSA-N

>  <distance_score>  (837) 
1.066133

>  <ref_mols>  (837) 
Z0917a,Z0852a

>  <ref_pdb>  (837) 
Z0852a

>  <HIPPO Compound ID>  (837) 
142195

>  <name>  (837) 
P70271

>  <inspiration_score>  (837) 
None

$$$$
P70272
     RDKit          3D

 29 32  0  0  0  0  0  0  0  0999 V2000
   -6.3972    5.0036  -11.5096 C   0  0  0  0  0  0  0  0  0  0  0  0
   -6.8965    4.8801  -12.8415 O   0  0  0  0  0  0  0  0  0  0  0  0
   -5.9667    5.0885  -13.8053 C   0  0  0  0  0  0  0  0  0  0  0  0
   -4.7936    5.3733  -13.6203 O   0  0  0  0  0  0  0  0  0  0  0  0
   -6.5694    4.9498  -15.1563 C   0  0  0  0  0  0  0  0  0  0  0  0
   -5.7864    5.2635  -16.2685 C   0  0  0  0  0  0  0  0  0  0  0  0
   -6.2834    5.0994  -17.5699 C   0  0  0  0  0  0  0  0  0  0  0  0
   -5.3819    5.3579  -18.6045 N   0  0  0  0  0  0  0  0  0  0  0  0
   -5.2814    4.7501  -20.0297 C   0  0  0  0  0  0  0  0  0  0  0  0
   -5.9839    3.9965  -20.5839 O   0  0  0  0  0  0  0  0  0  0  0  0
   -4.0751    5.2414  -20.7474 C   0  0  0  0  0  0  0  0  0  0  0  0
   -4.3001    5.6018  -22.0743 C   0  0  0  0  0  0  0  0  0  0  0  0
   -3.2410    6.0866  -22.8031 C   0  0  0  0  0  0  0  0  0  0  0  0
   -3.4099    6.4780  -24.2392 C   0  0  0  0  0  0  0  0  0  0  0  0
   -2.0161    6.2405  -22.2645 N   0  0  0  0  0  0  0  0  0  0  0  0
   -1.7812    5.9134  -20.9759 C   0  0  0  0  0  0  0  0  0  0  0  0
   -0.5220    6.1586  -20.4117 C   0  0  0  0  0  0  0  0  0  0  0  0
    0.8889    6.9143  -21.4506 Br  0  0  0  0  0  0  0  0  0  0  0  0
   -0.2488    5.9117  -19.0667 C   0  0  0  0  0  0  0  0  0  0  0  0
   -1.2289    5.3487  -18.2698 C   0  0  0  0  0  0  0  0  0  0  0  0
   -2.4583    5.0060  -18.8238 C   0  0  0  0  0  0  0  0  0  0  0  0
   -2.7899    5.3643  -20.1574 C   0  0  0  0  0  0  0  0  0  0  0  0
   -7.6073    4.7209  -17.7859 C   0  0  0  0  0  0  0  0  0  0  0  0
   -8.1551    4.7267  -19.0046 N   0  0  0  0  0  0  0  0  0  0  0  0
   -9.4718    4.5091  -19.1393 C   0  0  0  0  0  0  0  0  0  0  0  0
  -10.2986    4.2103  -18.0879 C   0  0  0  0  0  0  0  0  0  0  0  0
   -9.7223    4.1335  -16.8377 C   0  0  0  0  0  0  0  0  0  0  0  0
   -8.3889    4.4433  -16.6544 C   0  0  0  0  0  0  0  0  0  0  0  0
   -7.8763    4.5175  -15.3554 C   0  0  0  0  0  0  0  0  0  0  0  0
  1  2  1  0
  2  3  1  0
  3  4  2  0
  3  5  1  0
  5  6  2  0
  6  7  1  0
  7  8  1  0
  8  9  1  0
  9 10  2  0
  9 11  1  0
 11 12  2  0
 12 13  1  0
 13 14  1  0
 13 15  2  0
 15 16  1  0
 16 17  2  0
 17 18  1  0
 17 19  1  0
 19 20  2  0
 20 21  1  0
 21 22  2  0
  7 23  2  0
 23 24  1  0
 24 25  2  0
 25 26  1  0
 26 27  2  0
 27 28  1  0
 28 29  2  0
 29  5  1  0
 22 11  1  0
 28 23  1  0
 22 16  1  0
M  END
>  <energy_score>  (838) 
-9.30846

>  <alias>  (838) 
None

>  <HIPPO Pose ID>  (838) 
70272

>  <smiles>  (838) 
COC(=O)c1cc(NC(=O)c2cc(C)nc3c(Br)cccc23)c2ncccc2c1

>  <inchikey>  (838) 
LEPZVZQHOXIAEI-UHFFFAOYSA-N

>  <distance_score>  (838) 
1.447878

>  <ref_mols>  (838) 
Z0917a,Z0852a

>  <ref_pdb>  (838) 
Z0852a

>  <HIPPO Compound ID>  (838) 
142196

>  <name>  (838) 
P70272

>  <inspiration_score>  (838) 
None

$$$$
P70273
     RDKit          3D

 29 32  0  0  0  0  0  0  0  0999 V2000
   -5.9999    3.9249  -20.3443 O   0  0  0  0  0  0  0  0  0  0  0  0
   -5.3784    4.7245  -19.7553 C   0  0  0  0  0  0  0  0  0  0  0  0
   -5.6554    5.4085  -18.3810 N   0  0  0  0  0  0  0  0  0  0  0  0
   -6.6702    5.1839  -17.4417 C   0  0  0  0  0  0  0  0  0  0  0  0
   -6.4452    5.5154  -16.0942 C   0  0  0  0  0  0  0  0  0  0  0  0
   -7.4345    5.2734  -15.1230 C   0  0  0  0  0  0  0  0  0  0  0  0
   -7.3275    5.7660  -13.7060 C   0  0  0  0  0  0  0  0  0  0  0  0
   -7.2229    7.1248  -13.6541 F   0  0  0  0  0  0  0  0  0  0  0  0
   -8.4180    5.4658  -12.9425 F   0  0  0  0  0  0  0  0  0  0  0  0
   -6.2499    5.2733  -13.0473 F   0  0  0  0  0  0  0  0  0  0  0  0
   -8.6114    4.6493  -15.5060 C   0  0  0  0  0  0  0  0  0  0  0  0
   -8.8655    4.4581  -16.8504 C   0  0  0  0  0  0  0  0  0  0  0  0
  -10.1500    4.1567  -17.2217 C   0  0  0  0  0  0  0  0  0  0  0  0
  -10.5527    4.3476  -18.5074 C   0  0  0  0  0  0  0  0  0  0  0  0
   -9.5714    4.5512  -19.4333 C   0  0  0  0  0  0  0  0  0  0  0  0
   -8.2744    4.6694  -19.1248 N   0  0  0  0  0  0  0  0  0  0  0  0
   -7.9200    4.7197  -17.8423 C   0  0  0  0  0  0  0  0  0  0  0  0
   -4.0635    5.1773  -20.3080 C   0  0  0  0  0  0  0  0  0  0  0  0
   -4.1095    5.3495  -21.6411 C   0  0  0  0  0  0  0  0  0  0  0  0
   -2.9149    5.7100  -22.4201 C   0  0  0  0  0  0  0  0  0  0  0  0
   -2.9702    5.8465  -23.6370 O   0  0  0  0  0  0  0  0  0  0  0  0
   -1.7678    5.9110  -21.7109 N   0  0  0  0  0  0  0  0  0  0  0  0
   -1.6763    5.7813  -20.3212 C   0  0  0  0  0  0  0  0  0  0  0  0
   -0.4640    6.0963  -19.7010 C   0  0  0  0  0  0  0  0  0  0  0  0
   -0.3671    6.0438  -18.3135 C   0  0  0  0  0  0  0  0  0  0  0  0
   -1.4559    5.5997  -17.5705 C   0  0  0  0  0  0  0  0  0  0  0  0
   -1.3749    5.6067  -15.8486 Cl  0  0  0  0  0  0  0  0  0  0  0  0
   -2.6309    5.1801  -18.2008 C   0  0  0  0  0  0  0  0  0  0  0  0
   -2.7950    5.3616  -19.5801 C   0  0  0  0  0  0  0  0  0  0  0  0
  1  2  2  0
  2  3  1  0
  3  4  1  0
  4  5  2  0
  5  6  1  0
  6  7  1  0
  7  8  1  0
  7  9  1  0
  7 10  1  0
  6 11  2  0
 11 12  1  0
 12 13  2  0
 13 14  1  0
 14 15  2  0
 15 16  1  0
 16 17  2  0
  2 18  1  0
 18 19  2  0
 19 20  1  0
 20 21  2  0
 20 22  1  0
 22 23  1  0
 23 24  2  0
 24 25  1  0
 25 26  2  0
 26 27  1  0
 26 28  1  0
 28 29  2  0
 17  4  1  0
 29 18  1  0
 17 12  1  0
 29 23  1  0
M  END
>  <energy_score>  (839) 
-15.385027

>  <alias>  (839) 
None

>  <HIPPO Pose ID>  (839) 
70273

>  <smiles>  (839) 
O=C(Nc1cc(C(F)(F)F)cc2cccnc12)c1cc(=O)[nH]c2ccc(Cl)cc12

>  <inchikey>  (839) 
MEXQCMBROPIKNY-UHFFFAOYSA-N

>  <distance_score>  (839) 
1.040915

>  <ref_mols>  (839) 
Z0917a,Z0852a

>  <ref_pdb>  (839) 
Z0852a

>  <HIPPO Compound ID>  (839) 
142198

>  <name>  (839) 
P70273

>  <inspiration_score>  (839) 
None

$$$$
P70274
     RDKit          3D

 29 32  0  0  0  0  0  0  0  0999 V2000
   -8.1366    6.7240  -13.3405 C   0  0  0  0  0  0  0  0  0  0  0  0
   -7.0433    5.7359  -13.7982 C   0  0  0  0  0  0  0  0  0  0  0  0
   -7.0299    4.5208  -12.8589 C   0  0  0  0  0  0  0  0  0  0  0  0
   -5.7093    6.4615  -13.6455 C   0  0  0  0  0  0  0  0  0  0  0  0
   -7.2762    5.2892  -15.2388 C   0  0  0  0  0  0  0  0  0  0  0  0
   -6.3604    5.5099  -16.2850 C   0  0  0  0  0  0  0  0  0  0  0  0
   -6.6618    5.1805  -17.6148 C   0  0  0  0  0  0  0  0  0  0  0  0
   -5.6749    5.4021  -18.5792 N   0  0  0  0  0  0  0  0  0  0  0  0
   -5.4306    4.7108  -19.9526 C   0  0  0  0  0  0  0  0  0  0  0  0
   -6.0628    3.9049  -20.5196 O   0  0  0  0  0  0  0  0  0  0  0  0
   -4.1082    5.1510  -20.4978 C   0  0  0  0  0  0  0  0  0  0  0  0
   -4.1467    5.3628  -21.8232 C   0  0  0  0  0  0  0  0  0  0  0  0
   -2.9416    5.7318  -22.5821 C   0  0  0  0  0  0  0  0  0  0  0  0
   -2.9884    5.9086  -23.7944 O   0  0  0  0  0  0  0  0  0  0  0  0
   -1.7967    5.9021  -21.8605 N   0  0  0  0  0  0  0  0  0  0  0  0
   -1.7166    5.7422  -20.4736 C   0  0  0  0  0  0  0  0  0  0  0  0
   -0.5118    6.0472  -19.8338 C   0  0  0  0  0  0  0  0  0  0  0  0
   -0.4356    5.9855  -18.4450 C   0  0  0  0  0  0  0  0  0  0  0  0
   -1.5352    5.5361  -17.7216 C   0  0  0  0  0  0  0  0  0  0  0  0
   -1.4967    5.5627  -15.9976 Cl  0  0  0  0  0  0  0  0  0  0  0  0
   -2.6954    5.1114  -18.3737 C   0  0  0  0  0  0  0  0  0  0  0  0
   -2.8430    5.3114  -19.7531 C   0  0  0  0  0  0  0  0  0  0  0  0
   -7.9239    4.7178  -17.9380 C   0  0  0  0  0  0  0  0  0  0  0  0
   -8.3410    4.6617  -19.1982 N   0  0  0  0  0  0  0  0  0  0  0  0
   -9.6524    4.5525  -19.4311 C   0  0  0  0  0  0  0  0  0  0  0  0
  -10.5802    4.3234  -18.4536 C   0  0  0  0  0  0  0  0  0  0  0  0
  -10.1075    4.1487  -17.1868 C   0  0  0  0  0  0  0  0  0  0  0  0
   -8.8086    4.4668  -16.8893 C   0  0  0  0  0  0  0  0  0  0  0  0
   -8.4772    4.6714  -15.5601 C   0  0  0  0  0  0  0  0  0  0  0  0
  1  2  1  0
  2  3  1  0
  2  4  1  0
  2  5  1  0
  5  6  2  0
  6  7  1  0
  7  8  1  0
  8  9  1  0
  9 10  2  0
  9 11  1  0
 11 12  2  0
 12 13  1  0
 13 14  2  0
 13 15  1  0
 15 16  1  0
 16 17  2  0
 17 18  1  0
 18 19  2  0
 19 20  1  0
 19 21  1  0
 21 22  2  0
  7 23  2  0
 23 24  1  0
 24 25  2  0
 25 26  1  0
 26 27  2  0
 27 28  1  0
 28 29  2  0
 29  5  1  0
 22 11  1  0
 28 23  1  0
 22 16  1  0
M  END
>  <energy_score>  (840) 
-25.365496

>  <alias>  (840) 
None

>  <HIPPO Pose ID>  (840) 
70274

>  <smiles>  (840) 
CC(C)(C)c1cc(NC(=O)c2cc(=O)[nH]c3ccc(Cl)cc23)c2ncccc2c1

>  <inchikey>  (840) 
VQJOESMYSRIVJW-UHFFFAOYSA-N

>  <distance_score>  (840) 
1.312429

>  <ref_mols>  (840) 
Z0917a,Z0852a

>  <ref_pdb>  (840) 
Z0852a

>  <HIPPO Compound ID>  (840) 
142199

>  <name>  (840) 
P70274

>  <inspiration_score>  (840) 
None

$$$$
P70275
     RDKit          3D

 29 32  0  0  0  0  0  0  0  0999 V2000
   -6.3676    5.0256  -11.5190 C   0  0  0  0  0  0  0  0  0  0  0  0
   -6.8852    4.9274  -12.8461 O   0  0  0  0  0  0  0  0  0  0  0  0
   -5.9646    5.1273  -13.8198 C   0  0  0  0  0  0  0  0  0  0  0  0
   -4.7865    5.4011  -13.6499 O   0  0  0  0  0  0  0  0  0  0  0  0
   -6.5860    4.9956  -15.1629 C   0  0  0  0  0  0  0  0  0  0  0  0
   -5.8222    5.3264  -16.2838 C   0  0  0  0  0  0  0  0  0  0  0  0
   -6.3400    5.1657  -17.5766 C   0  0  0  0  0  0  0  0  0  0  0  0
   -5.4623    5.4003  -18.6354 N   0  0  0  0  0  0  0  0  0  0  0  0
   -5.3737    4.7365  -20.0402 C   0  0  0  0  0  0  0  0  0  0  0  0
   -6.0704    3.9471  -20.5516 O   0  0  0  0  0  0  0  0  0  0  0  0
   -4.1123    5.1881  -20.7029 C   0  0  0  0  0  0  0  0  0  0  0  0
   -4.2904    5.4880  -21.9936 C   0  0  0  0  0  0  0  0  0  0  0  0
   -3.1773    5.9054  -22.8578 C   0  0  0  0  0  0  0  0  0  0  0  0
   -3.4158    6.1205  -24.0450 O   0  0  0  0  0  0  0  0  0  0  0  0
   -1.9372    6.0602  -22.2612 N   0  0  0  0  0  0  0  0  0  0  0  0
   -0.8214    6.4566  -23.1058 C   0  0  0  0  0  0  0  0  0  0  0  0
   -1.7266    5.8153  -20.8704 C   0  0  0  0  0  0  0  0  0  0  0  0
   -0.4855    6.0837  -20.2681 C   0  0  0  0  0  0  0  0  0  0  0  0
   -0.2939    5.8782  -18.9051 C   0  0  0  0  0  0  0  0  0  0  0  0
   -1.3172    5.3325  -18.1467 C   0  0  0  0  0  0  0  0  0  0  0  0
   -2.5220    4.9745  -18.7486 C   0  0  0  0  0  0  0  0  0  0  0  0
   -2.7807    5.3066  -20.0883 C   0  0  0  0  0  0  0  0  0  0  0  0
   -7.6609    4.7755  -17.7746 C   0  0  0  0  0  0  0  0  0  0  0  0
   -8.2189    4.7859  -18.9876 N   0  0  0  0  0  0  0  0  0  0  0  0
   -9.5309    4.5445  -19.1142 C   0  0  0  0  0  0  0  0  0  0  0  0
  -10.3385    4.2118  -18.0585 C   0  0  0  0  0  0  0  0  0  0  0  0
   -9.7474    4.1332  -16.8140 C   0  0  0  0  0  0  0  0  0  0  0  0
   -8.4205    4.4719  -16.6381 C   0  0  0  0  0  0  0  0  0  0  0  0
   -7.8897    4.5440  -15.3460 C   0  0  0  0  0  0  0  0  0  0  0  0
  1  2  1  0
  2  3  1  0
  3  4  2  0
  3  5  1  0
  5  6  2  0
  6  7  1  0
  7  8  1  0
  8  9  1  0
  9 10  2  0
  9 11  1  0
 11 12  2  0
 12 13  1  0
 13 14  2  0
 13 15  1  0
 15 16  1  0
 15 17  1  0
 17 18  2  0
 18 19  1  0
 19 20  2  0
 20 21  1  0
 21 22  2  0
  7 23  2  0
 23 24  1  0
 24 25  2  0
 25 26  1  0
 26 27  2  0
 27 28  1  0
 28 29  2  0
 29  5  1  0
 22 11  1  0
 28 23  1  0
 22 17  1  0
M  END
>  <energy_score>  (841) 
-39.247017

>  <alias>  (841) 
None

>  <HIPPO Pose ID>  (841) 
70275

>  <smiles>  (841) 
COC(=O)c1cc(NC(=O)c2cc(=O)n(C)c3ccccc23)c2ncccc2c1

>  <inchikey>  (841) 
ZZWDKCAIASHRQM-UHFFFAOYSA-N

>  <distance_score>  (841) 
1.409514

>  <ref_mols>  (841) 
Z0917a,Z0852a

>  <ref_pdb>  (841) 
Z0852a

>  <HIPPO Compound ID>  (841) 
142200

>  <name>  (841) 
P70275

>  <inspiration_score>  (841) 
None

$$$$
P70276
     RDKit          3D

 29 32  0  0  0  0  0  0  0  0999 V2000
   -3.1753    6.3800  -23.9633 C   0  0  0  0  0  0  0  0  0  0  0  0
   -3.1234    6.0233  -22.5099 C   0  0  0  0  0  0  0  0  0  0  0  0
   -4.2268    5.5141  -21.8687 C   0  0  0  0  0  0  0  0  0  0  0  0
   -4.1150    5.1725  -20.5195 C   0  0  0  0  0  0  0  0  0  0  0  0
   -5.3697    4.6434  -19.9166 C   0  0  0  0  0  0  0  0  0  0  0  0
   -6.0159    3.9218  -20.5758 O   0  0  0  0  0  0  0  0  0  0  0  0
   -5.6260    5.2062  -18.4873 N   0  0  0  0  0  0  0  0  0  0  0  0
   -6.6486    4.9298  -17.5710 C   0  0  0  0  0  0  0  0  0  0  0  0
   -6.3965    5.1895  -16.2133 C   0  0  0  0  0  0  0  0  0  0  0  0
   -7.3824    4.9969  -15.2225 C   0  0  0  0  0  0  0  0  0  0  0  0
   -7.1836    5.4641  -13.7817 C   0  0  0  0  0  0  0  0  0  0  0  0
   -8.4177    5.2894  -12.8665 C   0  0  0  0  0  0  0  0  0  0  0  0
   -6.0162    4.7137  -13.1350 C   0  0  0  0  0  0  0  0  0  0  0  0
   -6.8825    6.9652  -13.8285 C   0  0  0  0  0  0  0  0  0  0  0  0
   -8.6004    4.4771  -15.6257 C   0  0  0  0  0  0  0  0  0  0  0  0
   -8.8792    4.3464  -16.9731 C   0  0  0  0  0  0  0  0  0  0  0  0
  -10.1921    4.1694  -17.3300 C   0  0  0  0  0  0  0  0  0  0  0  0
  -10.5893    4.4300  -18.6021 C   0  0  0  0  0  0  0  0  0  0  0  0
   -9.6008    4.5575  -19.5333 C   0  0  0  0  0  0  0  0  0  0  0  0
   -8.2937    4.5492  -19.2482 N   0  0  0  0  0  0  0  0  0  0  0  0
   -7.9239    4.5544  -17.9703 C   0  0  0  0  0  0  0  0  0  0  0  0
   -2.8916    5.3379  -19.8250 C   0  0  0  0  0  0  0  0  0  0  0  0
   -2.6654    4.9802  -18.4700 C   0  0  0  0  0  0  0  0  0  0  0  0
   -1.5022    5.3572  -17.8076 C   0  0  0  0  0  0  0  0  0  0  0  0
   -0.4796    5.9660  -18.5133 C   0  0  0  0  0  0  0  0  0  0  0  0
   -0.6414    6.2114  -19.8778 C   0  0  0  0  0  0  0  0  0  0  0  0
    0.8304    7.0187  -20.7848 Br  0  0  0  0  0  0  0  0  0  0  0  0
   -1.8339    5.9213  -20.5553 C   0  0  0  0  0  0  0  0  0  0  0  0
   -1.9607    6.2320  -21.8640 N   0  0  0  0  0  0  0  0  0  0  0  0
  1  2  1  0
  2  3  2  0
  3  4  1  0
  4  5  1  0
  5  6  2  0
  5  7  1  0
  7  8  1  0
  8  9  2  0
  9 10  1  0
 10 11  1  0
 11 12  1  0
 11 13  1  0
 11 14  1  0
 10 15  2  0
 15 16  1  0
 16 17  2  0
 17 18  1  0
 18 19  2  0
 19 20  1  0
 20 21  2  0
  4 22  2  0
 22 23  1  0
 23 24  2  0
 24 25  1  0
 25 26  2  0
 26 27  1  0
 26 28  1  0
 28 29  2  0
 29  2  1  0
 21  8  1  0
 28 22  1  0
 21 16  1  0
M  END
>  <energy_score>  (842) 
-10.353721

>  <alias>  (842) 
None

>  <HIPPO Pose ID>  (842) 
70276

>  <smiles>  (842) 
Cc1cc(C(=O)Nc2cc(C(C)(C)C)cc3cccnc23)c2cccc(Br)c2n1

>  <inchikey>  (842) 
CHKMSSBWSXHFDM-UHFFFAOYSA-N

>  <distance_score>  (842) 
1.208313

>  <ref_mols>  (842) 
Z0917a,Z0852a

>  <ref_pdb>  (842) 
Z0852a

>  <HIPPO Compound ID>  (842) 
142201

>  <name>  (842) 
P70276

>  <inspiration_score>  (842) 
None

$$$$
P70277
     RDKit          3D

 29 32  0  0  0  0  0  0  0  0999 V2000
   -5.9084    3.9497  -20.2914 O   0  0  0  0  0  0  0  0  0  0  0  0
   -5.3161    4.7652  -19.6957 C   0  0  0  0  0  0  0  0  0  0  0  0
   -5.6302    5.4447  -18.3310 N   0  0  0  0  0  0  0  0  0  0  0  0
   -6.6534    5.1986  -17.4072 C   0  0  0  0  0  0  0  0  0  0  0  0
   -6.4446    5.5316  -16.0577 C   0  0  0  0  0  0  0  0  0  0  0  0
   -7.4406    5.2830  -15.0967 C   0  0  0  0  0  0  0  0  0  0  0  0
   -7.3450    5.7731  -13.6788 C   0  0  0  0  0  0  0  0  0  0  0  0
   -7.2425    7.1320  -13.6239 F   0  0  0  0  0  0  0  0  0  0  0  0
   -8.4404    5.4697  -12.9238 F   0  0  0  0  0  0  0  0  0  0  0  0
   -6.2711    5.2811  -13.0135 F   0  0  0  0  0  0  0  0  0  0  0  0
   -8.6109    4.6550  -15.4918 C   0  0  0  0  0  0  0  0  0  0  0  0
   -8.8501    4.4607  -16.8387 C   0  0  0  0  0  0  0  0  0  0  0  0
  -10.1314    4.1575  -17.2194 C   0  0  0  0  0  0  0  0  0  0  0  0
  -10.5214    4.3380  -18.5104 C   0  0  0  0  0  0  0  0  0  0  0  0
   -9.5313    4.5313  -19.4294 C   0  0  0  0  0  0  0  0  0  0  0  0
   -8.2375    4.6594  -19.1097 N   0  0  0  0  0  0  0  0  0  0  0  0
   -7.8951    4.7217  -17.8229 C   0  0  0  0  0  0  0  0  0  0  0  0
   -4.0435    5.2193  -20.3080 C   0  0  0  0  0  0  0  0  0  0  0  0
   -4.1090    5.4094  -21.6891 C   0  0  0  0  0  0  0  0  0  0  0  0
   -2.9607    5.7879  -22.3190 C   0  0  0  0  0  0  0  0  0  0  0  0
   -2.9328    5.9786  -23.6600 O   0  0  0  0  0  0  0  0  0  0  0  0
   -1.7957    6.0315  -21.7116 N   0  0  0  0  0  0  0  0  0  0  0  0
   -1.7371    5.8625  -20.3822 C   0  0  0  0  0  0  0  0  0  0  0  0
   -0.5446    6.1900  -19.7508 C   0  0  0  0  0  0  0  0  0  0  0  0
   -0.4015    6.1362  -18.3638 C   0  0  0  0  0  0  0  0  0  0  0  0
   -1.4537    5.6668  -17.5964 C   0  0  0  0  0  0  0  0  0  0  0  0
   -1.3365    5.6991  -15.7081 Br  0  0  0  0  0  0  0  0  0  0  0  0
   -2.6226    5.2229  -18.2109 C   0  0  0  0  0  0  0  0  0  0  0  0
   -2.8277    5.4140  -19.6043 C   0  0  0  0  0  0  0  0  0  0  0  0
  1  2  2  0
  2  3  1  0
  3  4  1  0
  4  5  2  0
  5  6  1  0
  6  7  1  0
  7  8  1  0
  7  9  1  0
  7 10  1  0
  6 11  2  0
 11 12  1  0
 12 13  2  0
 13 14  1  0
 14 15  2  0
 15 16  1  0
 16 17  2  0
  2 18  1  0
 18 19  2  0
 19 20  1  0
 20 21  1  0
 20 22  2  0
 22 23  1  0
 23 24  2  0
 24 25  1  0
 25 26  2  0
 26 27  1  0
 26 28  1  0
 28 29  2  0
 17  4  1  0
 29 18  1  0
 17 12  1  0
 29 23  1  0
M  END
>  <energy_score>  (843) 
-5.109998

>  <alias>  (843) 
None

>  <HIPPO Pose ID>  (843) 
70277

>  <smiles>  (843) 
O=C(Nc1cc(C(F)(F)F)cc2cccnc12)c1cc(O)nc2ccc(Br)cc12

>  <inchikey>  (843) 
GMKKFLYRGBHUSF-UHFFFAOYSA-N

>  <distance_score>  (843) 
0.977535

>  <ref_mols>  (843) 
Z0917a,Z0852a

>  <ref_pdb>  (843) 
Z0852a

>  <HIPPO Compound ID>  (843) 
142202

>  <name>  (843) 
P70277

>  <inspiration_score>  (843) 
None

$$$$
P70278
     RDKit          3D

 29 32  0  0  0  0  0  0  0  0999 V2000
   -2.9722    6.1114  -23.8066 C   0  0  0  0  0  0  0  0  0  0  0  0
   -2.9572    5.9007  -22.3241 C   0  0  0  0  0  0  0  0  0  0  0  0
   -4.0755    5.4425  -21.6643 C   0  0  0  0  0  0  0  0  0  0  0  0
   -4.0022    5.2292  -20.2823 C   0  0  0  0  0  0  0  0  0  0  0  0
   -5.2633    4.7241  -19.6738 C   0  0  0  0  0  0  0  0  0  0  0  0
   -5.8660    3.9434  -20.3052 O   0  0  0  0  0  0  0  0  0  0  0  0
   -5.5335    5.2955  -18.2515 N   0  0  0  0  0  0  0  0  0  0  0  0
   -6.6161    5.1006  -17.3832 C   0  0  0  0  0  0  0  0  0  0  0  0
   -6.4355    5.4448  -16.0306 C   0  0  0  0  0  0  0  0  0  0  0  0
   -7.4612    5.2427  -15.0921 C   0  0  0  0  0  0  0  0  0  0  0  0
   -7.3779    5.7410  -13.6766 C   0  0  0  0  0  0  0  0  0  0  0  0
   -8.4775    5.4383  -12.9280 F   0  0  0  0  0  0  0  0  0  0  0  0
   -6.3066    5.2583  -13.0000 F   0  0  0  0  0  0  0  0  0  0  0  0
   -7.2808    7.1009  -13.6294 F   0  0  0  0  0  0  0  0  0  0  0  0
   -8.6423    4.6547  -15.5125 C   0  0  0  0  0  0  0  0  0  0  0  0
   -8.8528    4.4513  -16.8634 C   0  0  0  0  0  0  0  0  0  0  0  0
  -10.1357    4.1893  -17.2699 C   0  0  0  0  0  0  0  0  0  0  0  0
  -10.4860    4.3684  -18.5706 C   0  0  0  0  0  0  0  0  0  0  0  0
   -9.4667    4.4956  -19.4681 C   0  0  0  0  0  0  0  0  0  0  0  0
   -8.1758    4.5851  -19.1217 N   0  0  0  0  0  0  0  0  0  0  0  0
   -7.8622    4.6623  -17.8279 C   0  0  0  0  0  0  0  0  0  0  0  0
   -2.7943    5.4602  -19.5779 C   0  0  0  0  0  0  0  0  0  0  0  0
   -2.5651    5.2498  -18.1894 C   0  0  0  0  0  0  0  0  0  0  0  0
   -1.4061    5.7232  -17.5764 C   0  0  0  0  0  0  0  0  0  0  0  0
   -1.2648    5.7153  -15.6895 Br  0  0  0  0  0  0  0  0  0  0  0  0
   -0.3829    6.2522  -18.3429 C   0  0  0  0  0  0  0  0  0  0  0  0
   -0.5473    6.3342  -19.7255 C   0  0  0  0  0  0  0  0  0  0  0  0
   -1.7326    5.9719  -20.3507 C   0  0  0  0  0  0  0  0  0  0  0  0
   -1.8089    6.1728  -21.6740 N   0  0  0  0  0  0  0  0  0  0  0  0
  1  2  1  0
  2  3  2  0
  3  4  1  0
  4  5  1  0
  5  6  2  0
  5  7  1  0
  7  8  1  0
  8  9  2  0
  9 10  1  0
 10 11  1  0
 11 12  1  0
 11 13  1  0
 11 14  1  0
 10 15  2  0
 15 16  1  0
 16 17  2  0
 17 18  1  0
 18 19  2  0
 19 20  1  0
 20 21  2  0
  4 22  2  0
 22 23  1  0
 23 24  2  0
 24 25  1  0
 24 26  1  0
 26 27  2  0
 27 28  1  0
 28 29  2  0
 29  2  1  0
 21  8  1  0
 28 22  1  0
 21 16  1  0
M  END
>  <energy_score>  (844) 
-2.549476

>  <alias>  (844) 
None

>  <HIPPO Pose ID>  (844) 
70278

>  <smiles>  (844) 
Cc1cc(C(=O)Nc2cc(C(F)(F)F)cc3cccnc23)c2cc(Br)ccc2n1

>  <inchikey>  (844) 
LSGXIPROIZTQIJ-UHFFFAOYSA-N

>  <distance_score>  (844) 
1.087947

>  <ref_mols>  (844) 
Z0917a,Z0852a

>  <ref_pdb>  (844) 
Z0852a

>  <HIPPO Compound ID>  (844) 
142203

>  <name>  (844) 
P70278

>  <inspiration_score>  (844) 
None

$$$$
P70279
     RDKit          3D

 29 32  0  0  0  0  0  0  0  0999 V2000
   -2.8903    6.1036  -23.9487 C   0  0  0  0  0  0  0  0  0  0  0  0
   -2.9247    5.8699  -22.4696 C   0  0  0  0  0  0  0  0  0  0  0  0
   -4.0792    5.4435  -21.8515 C   0  0  0  0  0  0  0  0  0  0  0  0
   -4.0487    5.2096  -20.4760 C   0  0  0  0  0  0  0  0  0  0  0  0
   -5.3424    4.7635  -19.8949 C   0  0  0  0  0  0  0  0  0  0  0  0
   -5.9375    3.9414  -20.4771 O   0  0  0  0  0  0  0  0  0  0  0  0
   -5.6362    5.4417  -18.5285 N   0  0  0  0  0  0  0  0  0  0  0  0
   -6.6367    5.1882  -17.5860 C   0  0  0  0  0  0  0  0  0  0  0  0
   -6.3568    5.5200  -16.2514 C   0  0  0  0  0  0  0  0  0  0  0  0
   -7.2824    5.2937  -15.2168 C   0  0  0  0  0  0  0  0  0  0  0  0
   -7.0656    5.7384  -13.7735 C   0  0  0  0  0  0  0  0  0  0  0  0
   -7.0720    4.5229  -12.8346 C   0  0  0  0  0  0  0  0  0  0  0  0
   -5.7289    6.4546  -13.6016 C   0  0  0  0  0  0  0  0  0  0  0  0
   -8.1587    6.7334  -13.3315 C   0  0  0  0  0  0  0  0  0  0  0  0
   -8.4774    4.6745  -15.5545 C   0  0  0  0  0  0  0  0  0  0  0  0
   -8.7893    4.4655  -16.8880 C   0  0  0  0  0  0  0  0  0  0  0  0
  -10.0867    4.1521  -17.1965 C   0  0  0  0  0  0  0  0  0  0  0  0
  -10.5424    4.3172  -18.4700 C   0  0  0  0  0  0  0  0  0  0  0  0
   -9.6009    4.5245  -19.4398 C   0  0  0  0  0  0  0  0  0  0  0  0
   -8.2912    4.6372  -19.1942 N   0  0  0  0  0  0  0  0  0  0  0  0
   -7.8898    4.7107  -17.9281 C   0  0  0  0  0  0  0  0  0  0  0  0
   -2.8560    5.3912  -19.7303 C   0  0  0  0  0  0  0  0  0  0  0  0
   -2.6859    5.1600  -18.3365 C   0  0  0  0  0  0  0  0  0  0  0  0
   -1.5509    5.6183  -17.6724 C   0  0  0  0  0  0  0  0  0  0  0  0
   -1.5108    5.6329  -15.7802 Br  0  0  0  0  0  0  0  0  0  0  0  0
   -0.4861    6.1287  -18.3941 C   0  0  0  0  0  0  0  0  0  0  0  0
   -0.5892    6.2146  -19.7832 C   0  0  0  0  0  0  0  0  0  0  0  0
   -1.7569    5.8835  -20.4583 C   0  0  0  0  0  0  0  0  0  0  0  0
   -1.7874    6.1003  -21.7815 N   0  0  0  0  0  0  0  0  0  0  0  0
  1  2  1  0
  2  3  2  0
  3  4  1  0
  4  5  1  0
  5  6  2  0
  5  7  1  0
  7  8  1  0
  8  9  2  0
  9 10  1  0
 10 11  1  0
 11 12  1  0
 11 13  1  0
 11 14  1  0
 10 15  2  0
 15 16  1  0
 16 17  2  0
 17 18  1  0
 18 19  2  0
 19 20  1  0
 20 21  2  0
  4 22  2  0
 22 23  1  0
 23 24  2  0
 24 25  1  0
 24 26  1  0
 26 27  2  0
 27 28  1  0
 28 29  2  0
 29  2  1  0
 21  8  1  0
 28 22  1  0
 21 16  1  0
M  END
>  <energy_score>  (845) 
-14.369238

>  <alias>  (845) 
None

>  <HIPPO Pose ID>  (845) 
70279

>  <smiles>  (845) 
Cc1cc(C(=O)Nc2cc(C(C)(C)C)cc3cccnc23)c2cc(Br)ccc2n1

>  <inchikey>  (845) 
TVGLYNUTNUJSMA-UHFFFAOYSA-N

>  <distance_score>  (845) 
1.337632

>  <ref_mols>  (845) 
Z0917a,Z0852a

>  <ref_pdb>  (845) 
Z0852a

>  <HIPPO Compound ID>  (845) 
142204

>  <name>  (845) 
P70279

>  <inspiration_score>  (845) 
None

$$$$
P70280
     RDKit          3D

 29 32  0  0  0  0  0  0  0  0999 V2000
   -6.4256    5.0606  -11.5128 C   0  0  0  0  0  0  0  0  0  0  0  0
   -6.9187    4.9328  -12.8466 O   0  0  0  0  0  0  0  0  0  0  0  0
   -5.9668    5.0434  -13.8050 C   0  0  0  0  0  0  0  0  0  0  0  0
   -4.7765    5.2388  -13.6148 O   0  0  0  0  0  0  0  0  0  0  0  0
   -6.5690    4.9231  -15.1574 C   0  0  0  0  0  0  0  0  0  0  0  0
   -5.7821    5.2357  -16.2671 C   0  0  0  0  0  0  0  0  0  0  0  0
   -6.2804    5.0829  -17.5695 C   0  0  0  0  0  0  0  0  0  0  0  0
   -5.3791    5.3447  -18.6037 N   0  0  0  0  0  0  0  0  0  0  0  0
   -5.2805    4.7430  -20.0317 C   0  0  0  0  0  0  0  0  0  0  0  0
   -5.9844    3.9928  -20.5887 O   0  0  0  0  0  0  0  0  0  0  0  0
   -4.0773    5.2398  -20.7514 C   0  0  0  0  0  0  0  0  0  0  0  0
   -4.3086    5.6051  -22.0761 C   0  0  0  0  0  0  0  0  0  0  0  0
   -3.2546    6.0967  -22.8078 C   0  0  0  0  0  0  0  0  0  0  0  0
   -3.4315    6.4938  -24.2414 C   0  0  0  0  0  0  0  0  0  0  0  0
   -2.0284    6.2533  -22.2735 N   0  0  0  0  0  0  0  0  0  0  0  0
   -1.7866    5.9214  -20.9868 C   0  0  0  0  0  0  0  0  0  0  0  0
   -0.5254    6.1708  -20.4268 C   0  0  0  0  0  0  0  0  0  0  0  0
    0.7472    6.8819  -21.3711 Cl  0  0  0  0  0  0  0  0  0  0  0  0
   -0.2468    5.9179  -19.0842 C   0  0  0  0  0  0  0  0  0  0  0  0
   -1.2208    5.3471  -18.2853 C   0  0  0  0  0  0  0  0  0  0  0  0
   -2.4516    5.0025  -18.8354 C   0  0  0  0  0  0  0  0  0  0  0  0
   -2.7900    5.3648  -20.1663 C   0  0  0  0  0  0  0  0  0  0  0  0
   -7.6070    4.7136  -17.7878 C   0  0  0  0  0  0  0  0  0  0  0  0
   -8.1541    4.7261  -19.0067 N   0  0  0  0  0  0  0  0  0  0  0  0
   -9.4718    4.5138  -19.1431 C   0  0  0  0  0  0  0  0  0  0  0  0
  -10.3009    4.2164  -18.0932 C   0  0  0  0  0  0  0  0  0  0  0  0
   -9.7259    4.1343  -16.8430 C   0  0  0  0  0  0  0  0  0  0  0  0
   -8.3911    4.4366  -16.6580 C   0  0  0  0  0  0  0  0  0  0  0  0
   -7.8793    4.5027  -15.3586 C   0  0  0  0  0  0  0  0  0  0  0  0
  1  2  1  0
  2  3  1  0
  3  4  2  0
  3  5  1  0
  5  6  2  0
  6  7  1  0
  7  8  1  0
  8  9  1  0
  9 10  2  0
  9 11  1  0
 11 12  2  0
 12 13  1  0
 13 14  1  0
 13 15  2  0
 15 16  1  0
 16 17  2  0
 17 18  1  0
 17 19  1  0
 19 20  2  0
 20 21  1  0
 21 22  2  0
  7 23  2  0
 23 24  1  0
 24 25  2  0
 25 26  1  0
 26 27  2  0
 27 28  1  0
 28 29  2  0
 29  5  1  0
 22 11  1  0
 28 23  1  0
 22 16  1  0
M  END
>  <energy_score>  (846) 
-8.432448

>  <alias>  (846) 
None

>  <HIPPO Pose ID>  (846) 
70280

>  <smiles>  (846) 
COC(=O)c1cc(NC(=O)c2cc(C)nc3c(Cl)cccc23)c2ncccc2c1

>  <inchikey>  (846) 
BTJMNASHNLBZRT-UHFFFAOYSA-N

>  <distance_score>  (846) 
1.500476

>  <ref_mols>  (846) 
Z0917a,Z0852a

>  <ref_pdb>  (846) 
Z0852a

>  <HIPPO Compound ID>  (846) 
142205

>  <name>  (846) 
P70280

>  <inspiration_score>  (846) 
None

$$$$
P70281
     RDKit          3D

 29 32  0  0  0  0  0  0  0  0999 V2000
   -3.2917    6.4206  -23.9022 C   0  0  0  0  0  0  0  0  0  0  0  0
   -3.1860    6.0900  -22.4455 C   0  0  0  0  0  0  0  0  0  0  0  0
   -4.2627    5.5904  -21.7532 C   0  0  0  0  0  0  0  0  0  0  0  0
   -4.0960    5.2760  -20.4020 C   0  0  0  0  0  0  0  0  0  0  0  0
   -5.3133    4.7353  -19.7467 C   0  0  0  0  0  0  0  0  0  0  0  0
   -5.9063    3.9233  -20.3480 O   0  0  0  0  0  0  0  0  0  0  0  0
   -5.5638    5.3227  -18.3246 N   0  0  0  0  0  0  0  0  0  0  0  0
   -6.6153    5.1060  -17.4225 C   0  0  0  0  0  0  0  0  0  0  0  0
   -6.4145    5.4420  -16.0708 C   0  0  0  0  0  0  0  0  0  0  0  0
   -7.4283    5.2351  -15.1180 C   0  0  0  0  0  0  0  0  0  0  0  0
   -7.3357    5.7374  -13.7036 C   0  0  0  0  0  0  0  0  0  0  0  0
   -6.2567    5.2601  -13.0353 F   0  0  0  0  0  0  0  0  0  0  0  0
   -8.4275    5.4318  -12.9445 F   0  0  0  0  0  0  0  0  0  0  0  0
   -7.2436    7.0976  -13.6598 F   0  0  0  0  0  0  0  0  0  0  0  0
   -8.6134    4.6428  -15.5218 C   0  0  0  0  0  0  0  0  0  0  0  0
   -8.8433    4.4451  -16.8695 C   0  0  0  0  0  0  0  0  0  0  0  0
  -10.1311    4.1786  -17.2571 C   0  0  0  0  0  0  0  0  0  0  0  0
  -10.5040    4.3633  -18.5513 C   0  0  0  0  0  0  0  0  0  0  0  0
   -9.4997    4.5106  -19.4629 C   0  0  0  0  0  0  0  0  0  0  0  0
   -8.2041    4.6011  -19.1358 N   0  0  0  0  0  0  0  0  0  0  0  0
   -7.8690    4.6676  -17.8473 C   0  0  0  0  0  0  0  0  0  0  0  0
   -2.8448    5.4385  -19.7622 C   0  0  0  0  0  0  0  0  0  0  0  0
   -2.5647    5.0860  -18.4162 C   0  0  0  0  0  0  0  0  0  0  0  0
   -1.3648    5.4460  -17.8107 C   0  0  0  0  0  0  0  0  0  0  0  0
   -0.3693    6.0409  -18.5659 C   0  0  0  0  0  0  0  0  0  0  0  0
   -0.5900    6.2869  -19.9220 C   0  0  0  0  0  0  0  0  0  0  0  0
    0.7135    7.0171  -20.8074 Cl  0  0  0  0  0  0  0  0  0  0  0  0
   -1.8149    6.0045  -20.5440 C   0  0  0  0  0  0  0  0  0  0  0  0
   -1.9970    6.3026  -21.8502 N   0  0  0  0  0  0  0  0  0  0  0  0
  1  2  1  0
  2  3  2  0
  3  4  1  0
  4  5  1  0
  5  6  2  0
  5  7  1  0
  7  8  1  0
  8  9  2  0
  9 10  1  0
 10 11  1  0
 11 12  1  0
 11 13  1  0
 11 14  1  0
 10 15  2  0
 15 16  1  0
 16 17  2  0
 17 18  1  0
 18 19  2  0
 19 20  1  0
 20 21  2  0
  4 22  2  0
 22 23  1  0
 23 24  2  0
 24 25  1  0
 25 26  2  0
 26 27  1  0
 26 28  1  0
 28 29  2  0
 29  2  1  0
 21  8  1  0
 28 22  1  0
 21 16  1  0
M  END
>  <energy_score>  (847) 
-14.538261

>  <alias>  (847) 
None

>  <HIPPO Pose ID>  (847) 
70281

>  <smiles>  (847) 
Cc1cc(C(=O)Nc2cc(C(F)(F)F)cc3cccnc23)c2cccc(Cl)c2n1

>  <inchikey>  (847) 
CQWRLOSIICBFMN-UHFFFAOYSA-N

>  <distance_score>  (847) 
0.991034

>  <ref_mols>  (847) 
Z0917a,Z0852a

>  <ref_pdb>  (847) 
Z0852a

>  <HIPPO Compound ID>  (847) 
142206

>  <name>  (847) 
P70281

>  <inspiration_score>  (847) 
None

$$$$
P70282
     RDKit          3D

 29 32  0  0  0  0  0  0  0  0999 V2000
   -3.2570    6.4269  -24.0379 C   0  0  0  0  0  0  0  0  0  0  0  0
   -3.1540    6.0752  -22.5858 C   0  0  0  0  0  0  0  0  0  0  0  0
   -4.2342    5.5705  -21.9034 C   0  0  0  0  0  0  0  0  0  0  0  0
   -4.0717    5.2366  -20.5580 C   0  0  0  0  0  0  0  0  0  0  0  0
   -5.2959    4.6978  -19.9101 C   0  0  0  0  0  0  0  0  0  0  0  0
   -5.9282    3.9269  -20.5245 O   0  0  0  0  0  0  0  0  0  0  0  0
   -5.5060    5.2573  -18.4729 N   0  0  0  0  0  0  0  0  0  0  0  0
   -6.5548    5.0609  -17.5644 C   0  0  0  0  0  0  0  0  0  0  0  0
   -6.3171    5.4158  -16.2226 C   0  0  0  0  0  0  0  0  0  0  0  0
   -7.2968    5.2455  -15.2267 C   0  0  0  0  0  0  0  0  0  0  0  0
   -7.1068    5.7443  -13.7953 C   0  0  0  0  0  0  0  0  0  0  0  0
   -8.3930    5.6601  -12.9618 C   0  0  0  0  0  0  0  0  0  0  0  0
   -6.6926    7.2275  -13.7843 C   0  0  0  0  0  0  0  0  0  0  0  0
   -6.0346    4.9004  -13.0985 C   0  0  0  0  0  0  0  0  0  0  0  0
   -8.4883    4.6427  -15.6039 C   0  0  0  0  0  0  0  0  0  0  0  0
   -8.7642    4.4346  -16.9404 C   0  0  0  0  0  0  0  0  0  0  0  0
  -10.0706    4.1828  -17.2741 C   0  0  0  0  0  0  0  0  0  0  0  0
  -10.4834    4.3559  -18.5573 C   0  0  0  0  0  0  0  0  0  0  0  0
   -9.5049    4.4809  -19.5022 C   0  0  0  0  0  0  0  0  0  0  0  0
   -8.1960    4.5451  -19.2240 N   0  0  0  0  0  0  0  0  0  0  0  0
   -7.8199    4.6305  -17.9492 C   0  0  0  0  0  0  0  0  0  0  0  0
   -2.8235    5.3993  -19.9077 C   0  0  0  0  0  0  0  0  0  0  0  0
   -2.5493    5.0483  -18.5592 C   0  0  0  0  0  0  0  0  0  0  0  0
   -1.3542    5.4115  -17.9464 C   0  0  0  0  0  0  0  0  0  0  0  0
   -0.3543    6.0058  -18.6954 C   0  0  0  0  0  0  0  0  0  0  0  0
   -0.5682    6.2527  -20.0521 C   0  0  0  0  0  0  0  0  0  0  0  0
    0.7386    6.9873  -20.9292 Cl  0  0  0  0  0  0  0  0  0  0  0  0
   -1.7903    5.9712  -20.6802 C   0  0  0  0  0  0  0  0  0  0  0  0
   -1.9666    6.2795  -21.9845 N   0  0  0  0  0  0  0  0  0  0  0  0
  1  2  1  0
  2  3  2  0
  3  4  1  0
  4  5  1  0
  5  6  2  0
  5  7  1  0
  7  8  1  0
  8  9  2  0
  9 10  1  0
 10 11  1  0
 11 12  1  0
 11 13  1  0
 11 14  1  0
 10 15  2  0
 15 16  1  0
 16 17  2  0
 17 18  1  0
 18 19  2  0
 19 20  1  0
 20 21  2  0
  4 22  2  0
 22 23  1  0
 23 24  2  0
 24 25  1  0
 25 26  2  0
 26 27  1  0
 26 28  1  0
 28 29  2  0
 29  2  1  0
 21  8  1  0
 28 22  1  0
 21 16  1  0
M  END
>  <energy_score>  (848) 
-24.292495

>  <alias>  (848) 
None

>  <HIPPO Pose ID>  (848) 
70282

>  <smiles>  (848) 
Cc1cc(C(=O)Nc2cc(C(C)(C)C)cc3cccnc23)c2cccc(Cl)c2n1

>  <inchikey>  (848) 
JOMVNJOEUOBXPG-UHFFFAOYSA-N

>  <distance_score>  (848) 
1.434082

>  <ref_mols>  (848) 
Z0917a,Z0852a

>  <ref_pdb>  (848) 
Z0852a

>  <HIPPO Compound ID>  (848) 
142207

>  <name>  (848) 
P70282

>  <inspiration_score>  (848) 
None

$$$$
P70283
     RDKit          3D

 29 32  0  0  0  0  0  0  0  0999 V2000
   -5.6924    6.4699  -13.6869 C   0  0  0  0  0  0  0  0  0  0  0  0
   -7.0156    5.7226  -13.8250 C   0  0  0  0  0  0  0  0  0  0  0  0
   -6.9794    4.5129  -12.8797 C   0  0  0  0  0  0  0  0  0  0  0  0
   -8.1189    6.6981  -13.3622 C   0  0  0  0  0  0  0  0  0  0  0  0
   -7.2508    5.2637  -15.2622 C   0  0  0  0  0  0  0  0  0  0  0  0
   -6.3352    5.4689  -16.3133 C   0  0  0  0  0  0  0  0  0  0  0  0
   -6.6456    5.1394  -17.6413 C   0  0  0  0  0  0  0  0  0  0  0  0
   -5.6711    5.3658  -18.6198 N   0  0  0  0  0  0  0  0  0  0  0  0
   -5.4575    4.6932  -20.0095 C   0  0  0  0  0  0  0  0  0  0  0  0
   -6.1085    3.9033  -20.5787 O   0  0  0  0  0  0  0  0  0  0  0  0
   -4.1582    5.1559  -20.5849 C   0  0  0  0  0  0  0  0  0  0  0  0
   -4.2451    5.4311  -21.8960 C   0  0  0  0  0  0  0  0  0  0  0  0
   -3.0669    5.8368  -22.6779 C   0  0  0  0  0  0  0  0  0  0  0  0
   -3.1516    6.0502  -23.8822 O   0  0  0  0  0  0  0  0  0  0  0  0
   -1.9003    5.9904  -21.9885 N   0  0  0  0  0  0  0  0  0  0  0  0
   -1.7685    5.7557  -20.6157 C   0  0  0  0  0  0  0  0  0  0  0  0
   -0.5382    6.0117  -20.0103 C   0  0  0  0  0  0  0  0  0  0  0  0
   -0.4145    5.8230  -18.6446 C   0  0  0  0  0  0  0  0  0  0  0  0
    0.7438    6.1081  -18.0363 F   0  0  0  0  0  0  0  0  0  0  0  0
   -1.4743    5.3268  -17.8974 C   0  0  0  0  0  0  0  0  0  0  0  0
   -2.6752    4.9873  -18.5237 C   0  0  0  0  0  0  0  0  0  0  0  0
   -2.8702    5.2820  -19.8795 C   0  0  0  0  0  0  0  0  0  0  0  0
   -7.9170    4.6927  -17.9549 C   0  0  0  0  0  0  0  0  0  0  0  0
   -8.3460    4.6455  -19.2114 N   0  0  0  0  0  0  0  0  0  0  0  0
   -9.6602    4.5532  -19.4347 C   0  0  0  0  0  0  0  0  0  0  0  0
  -10.5833    4.3281  -18.4521 C   0  0  0  0  0  0  0  0  0  0  0  0
  -10.1028    4.1462  -17.1891 C   0  0  0  0  0  0  0  0  0  0  0  0
   -8.7981    4.4501  -16.9011 C   0  0  0  0  0  0  0  0  0  0  0  0
   -8.4572    4.6524  -15.5747 C   0  0  0  0  0  0  0  0  0  0  0  0
  1  2  1  0
  2  3  1  0
  2  4  1  0
  2  5  1  0
  5  6  2  0
  6  7  1  0
  7  8  1  0
  8  9  1  0
  9 10  2  0
  9 11  1  0
 11 12  2  0
 12 13  1  0
 13 14  2  0
 13 15  1  0
 15 16  1  0
 16 17  2  0
 17 18  1  0
 18 19  1  0
 18 20  2  0
 20 21  1  0
 21 22  2  0
  7 23  2  0
 23 24  1  0
 24 25  2  0
 25 26  1  0
 26 27  2  0
 27 28  1  0
 28 29  2  0
 29  5  1  0
 22 11  1  0
 28 23  1  0
 22 16  1  0
M  END
>  <energy_score>  (849) 
-25.023655

>  <alias>  (849) 
None

>  <HIPPO Pose ID>  (849) 
70283

>  <smiles>  (849) 
CC(C)(C)c1cc(NC(=O)c2cc(=O)[nH]c3cc(F)ccc23)c2ncccc2c1

>  <inchikey>  (849) 
CXUPFUIAUKVYNE-UHFFFAOYSA-N

>  <distance_score>  (849) 
1.316208

>  <ref_mols>  (849) 
Z0917a,Z0852a

>  <ref_pdb>  (849) 
Z0852a

>  <HIPPO Compound ID>  (849) 
142208

>  <name>  (849) 
P70283

>  <inspiration_score>  (849) 
None

$$$$
P70284
     RDKit          3D

 29 32  0  0  0  0  0  0  0  0999 V2000
    0.9459    6.2960  -17.8254 C   0  0  0  0  0  0  0  0  0  0  0  0
   -0.3809    5.9941  -18.4540 C   0  0  0  0  0  0  0  0  0  0  0  0
   -1.4140    5.4377  -17.7077 C   0  0  0  0  0  0  0  0  0  0  0  0
   -2.6104    5.0789  -18.3262 C   0  0  0  0  0  0  0  0  0  0  0  0
   -2.8472    5.3841  -19.6899 C   0  0  0  0  0  0  0  0  0  0  0  0
   -4.0703    5.2216  -20.3790 C   0  0  0  0  0  0  0  0  0  0  0  0
   -5.3230    4.7277  -19.7567 C   0  0  0  0  0  0  0  0  0  0  0  0
   -5.9635    3.9812  -20.3933 O   0  0  0  0  0  0  0  0  0  0  0  0
   -5.5948    5.3499  -18.3532 N   0  0  0  0  0  0  0  0  0  0  0  0
   -6.6303    5.1135  -17.4377 C   0  0  0  0  0  0  0  0  0  0  0  0
   -6.4231    5.4558  -16.0887 C   0  0  0  0  0  0  0  0  0  0  0  0
   -7.4273    5.2386  -15.1275 C   0  0  0  0  0  0  0  0  0  0  0  0
   -7.3301    5.7440  -13.7142 C   0  0  0  0  0  0  0  0  0  0  0  0
   -7.2358    7.1042  -13.6732 F   0  0  0  0  0  0  0  0  0  0  0  0
   -6.2504    5.2661  -13.0476 F   0  0  0  0  0  0  0  0  0  0  0  0
   -8.4206    5.4418  -12.9518 F   0  0  0  0  0  0  0  0  0  0  0  0
   -8.6093    4.6332  -15.5213 C   0  0  0  0  0  0  0  0  0  0  0  0
   -8.8481    4.4346  -16.8673 C   0  0  0  0  0  0  0  0  0  0  0  0
  -10.1375    4.1651  -17.2472 C   0  0  0  0  0  0  0  0  0  0  0  0
  -10.5218    4.3571  -18.5374 C   0  0  0  0  0  0  0  0  0  0  0  0
   -9.5255    4.5176  -19.4554 C   0  0  0  0  0  0  0  0  0  0  0  0
   -8.2283    4.6048  -19.1365 N   0  0  0  0  0  0  0  0  0  0  0  0
   -7.8830    4.6641  -17.8513 C   0  0  0  0  0  0  0  0  0  0  0  0
   -4.1704    5.5098  -21.7427 C   0  0  0  0  0  0  0  0  0  0  0  0
   -3.0478    5.9673  -22.3848 C   0  0  0  0  0  0  0  0  0  0  0  0
   -3.1439    6.3979  -24.2283 Br  0  0  0  0  0  0  0  0  0  0  0  0
   -1.8778    6.1820  -21.7581 N   0  0  0  0  0  0  0  0  0  0  0  0
   -1.7830    5.9052  -20.4505 C   0  0  0  0  0  0  0  0  0  0  0  0
   -0.5750    6.1827  -19.8264 C   0  0  0  0  0  0  0  0  0  0  0  0
  1  2  1  0
  2  3  2  0
  3  4  1  0
  4  5  2  0
  5  6  1  0
  6  7  1  0
  7  8  2  0
  7  9  1  0
  9 10  1  0
 10 11  2  0
 11 12  1  0
 12 13  1  0
 13 14  1  0
 13 15  1  0
 13 16  1  0
 12 17  2  0
 17 18  1  0
 18 19  2  0
 19 20  1  0
 20 21  2  0
 21 22  1  0
 22 23  2  0
  6 24  2  0
 24 25  1  0
 25 26  1  0
 25 27  2  0
 27 28  1  0
 28 29  2  0
 29  2  1  0
 28  5  1  0
 23 10  1  0
 23 18  1  0
M  END
>  <energy_score>  (850) 
-6.176971

>  <alias>  (850) 
None

>  <HIPPO Pose ID>  (850) 
70284

>  <smiles>  (850) 
Cc1ccc2c(C(=O)Nc3cc(C(F)(F)F)cc4cccnc34)cc(Br)nc2c1

>  <inchikey>  (850) 
IIWADHSLAPBKDH-UHFFFAOYSA-N

>  <distance_score>  (850) 
0.969344

>  <ref_mols>  (850) 
Z0917a,Z0852a

>  <ref_pdb>  (850) 
Z0852a

>  <HIPPO Compound ID>  (850) 
142209

>  <name>  (850) 
P70284

>  <inspiration_score>  (850) 
None

$$$$
P70285
     RDKit          3D

 29 32  0  0  0  0  0  0  0  0999 V2000
    0.8673    6.2904  -17.8975 C   0  0  0  0  0  0  0  0  0  0  0  0
   -0.4465    5.9674  -18.5423 C   0  0  0  0  0  0  0  0  0  0  0  0
   -1.4711    5.3720  -17.8157 C   0  0  0  0  0  0  0  0  0  0  0  0
   -2.6532    4.9945  -18.4502 C   0  0  0  0  0  0  0  0  0  0  0  0
   -2.8938    5.3293  -19.8069 C   0  0  0  0  0  0  0  0  0  0  0  0
   -4.1138    5.1670  -20.5068 C   0  0  0  0  0  0  0  0  0  0  0  0
   -5.3693    4.6454  -19.9065 C   0  0  0  0  0  0  0  0  0  0  0  0
   -6.0170    3.9274  -20.5675 O   0  0  0  0  0  0  0  0  0  0  0  0
   -5.6250    5.2060  -18.4770 N   0  0  0  0  0  0  0  0  0  0  0  0
   -6.6492    4.9312  -17.5624 C   0  0  0  0  0  0  0  0  0  0  0  0
   -6.3987    5.1915  -16.2046 C   0  0  0  0  0  0  0  0  0  0  0  0
   -7.3866    5.0015  -15.2153 C   0  0  0  0  0  0  0  0  0  0  0  0
   -7.1893    5.4735  -13.7761 C   0  0  0  0  0  0  0  0  0  0  0  0
   -6.8860    6.9739  -13.8262 C   0  0  0  0  0  0  0  0  0  0  0  0
   -8.4249    5.3024  -12.8626 C   0  0  0  0  0  0  0  0  0  0  0  0
   -6.0237    4.7235  -13.1255 C   0  0  0  0  0  0  0  0  0  0  0  0
   -8.6047    4.4829  -15.6203 C   0  0  0  0  0  0  0  0  0  0  0  0
   -8.8810    4.3498  -16.9684 C   0  0  0  0  0  0  0  0  0  0  0  0
  -10.1928    4.1714  -17.3288 C   0  0  0  0  0  0  0  0  0  0  0  0
  -10.5869    4.4297  -18.6024 C   0  0  0  0  0  0  0  0  0  0  0  0
   -9.5963    4.5559  -19.5314 C   0  0  0  0  0  0  0  0  0  0  0  0
   -8.2899    4.5497  -19.2427 N   0  0  0  0  0  0  0  0  0  0  0  0
   -7.9238    4.5566  -17.9639 C   0  0  0  0  0  0  0  0  0  0  0  0
   -4.2132    5.5005  -21.8589 C   0  0  0  0  0  0  0  0  0  0  0  0
   -3.0934    5.9880  -22.4834 C   0  0  0  0  0  0  0  0  0  0  0  0
   -3.1894    6.4672  -24.3151 Br  0  0  0  0  0  0  0  0  0  0  0  0
   -1.9274    6.1977  -21.8477 N   0  0  0  0  0  0  0  0  0  0  0  0
   -1.8354    5.8899  -20.5474 C   0  0  0  0  0  0  0  0  0  0  0  0
   -0.6363    6.1787  -19.9114 C   0  0  0  0  0  0  0  0  0  0  0  0
  1  2  1  0
  2  3  2  0
  3  4  1  0
  4  5  2  0
  5  6  1  0
  6  7  1  0
  7  8  2  0
  7  9  1  0
  9 10  1  0
 10 11  2  0
 11 12  1  0
 12 13  1  0
 13 14  1  0
 13 15  1  0
 13 16  1  0
 12 17  2  0
 17 18  1  0
 18 19  2  0
 19 20  1  0
 20 21  2  0
 21 22  1  0
 22 23  2  0
  6 24  2  0
 24 25  1  0
 25 26  1  0
 25 27  2  0
 27 28  1  0
 28 29  2  0
 29  2  1  0
 28  5  1  0
 23 10  1  0
 23 18  1  0
M  END
>  <energy_score>  (851) 
-13.017999

>  <alias>  (851) 
None

>  <HIPPO Pose ID>  (851) 
70285

>  <smiles>  (851) 
Cc1ccc2c(C(=O)Nc3cc(C(C)(C)C)cc4cccnc34)cc(Br)nc2c1

>  <inchikey>  (851) 
HNRBLRIAVKPRCB-UHFFFAOYSA-N

>  <distance_score>  (851) 
1.20713

>  <ref_mols>  (851) 
Z0917a,Z0852a

>  <ref_pdb>  (851) 
Z0852a

>  <HIPPO Compound ID>  (851) 
142210

>  <name>  (851) 
P70285

>  <inspiration_score>  (851) 
None

$$$$
P70286
     RDKit          3D

 29 32  0  0  0  0  0  0  0  0999 V2000
   -6.3897    4.9706  -11.4905 C   0  0  0  0  0  0  0  0  0  0  0  0
   -6.8953    4.8620  -12.8211 O   0  0  0  0  0  0  0  0  0  0  0  0
   -5.9733    5.0960  -13.7866 C   0  0  0  0  0  0  0  0  0  0  0  0
   -4.8040    5.3975  -13.6031 O   0  0  0  0  0  0  0  0  0  0  0  0
   -6.5803    4.9652  -15.1366 C   0  0  0  0  0  0  0  0  0  0  0  0
   -5.8044    5.2969  -16.2487 C   0  0  0  0  0  0  0  0  0  0  0  0
   -6.3099    5.1445  -17.5473 C   0  0  0  0  0  0  0  0  0  0  0  0
   -5.4267    5.4094  -18.5953 N   0  0  0  0  0  0  0  0  0  0  0  0
   -5.3129    4.7678  -20.0036 C   0  0  0  0  0  0  0  0  0  0  0  0
   -5.9892    3.9730  -20.5316 O   0  0  0  0  0  0  0  0  0  0  0  0
   -4.1059    5.2353  -20.7254 C   0  0  0  0  0  0  0  0  0  0  0  0
   -4.3192    5.5614  -22.0607 C   0  0  0  0  0  0  0  0  0  0  0  0
   -3.2386    5.9781  -22.7929 C   0  0  0  0  0  0  0  0  0  0  0  0
   -3.4747    6.2801  -24.1191 O   0  0  0  0  0  0  0  0  0  0  0  0
   -2.2782    6.5297  -24.8495 C   0  0  0  0  0  0  0  0  0  0  0  0
   -2.0092    6.1457  -22.2746 N   0  0  0  0  0  0  0  0  0  0  0  0
   -1.8101    5.8507  -20.9832 C   0  0  0  0  0  0  0  0  0  0  0  0
   -0.5472    6.0963  -20.4664 C   0  0  0  0  0  0  0  0  0  0  0  0
   -0.2486    5.8853  -19.1234 C   0  0  0  0  0  0  0  0  0  0  0  0
   -1.2183    5.3564  -18.2889 C   0  0  0  0  0  0  0  0  0  0  0  0
   -2.4676    5.0173  -18.8035 C   0  0  0  0  0  0  0  0  0  0  0  0
   -2.8188    5.3456  -20.1399 C   0  0  0  0  0  0  0  0  0  0  0  0
   -7.6314    4.7574  -17.7617 C   0  0  0  0  0  0  0  0  0  0  0  0
   -8.1823    4.7700  -18.9796 N   0  0  0  0  0  0  0  0  0  0  0  0
   -9.4948    4.5327  -19.1158 C   0  0  0  0  0  0  0  0  0  0  0  0
  -10.3134    4.2095  -18.0657 C   0  0  0  0  0  0  0  0  0  0  0  0
   -9.7327    4.1300  -16.8169 C   0  0  0  0  0  0  0  0  0  0  0  0
   -8.4037    4.4568  -16.6317 C   0  0  0  0  0  0  0  0  0  0  0  0
   -7.8847    4.5226  -15.3343 C   0  0  0  0  0  0  0  0  0  0  0  0
  1  2  1  0
  2  3  1  0
  3  4  2  0
  3  5  1  0
  5  6  2  0
  6  7  1  0
  7  8  1  0
  8  9  1  0
  9 10  2  0
  9 11  1  0
 11 12  2  0
 12 13  1  0
 13 14  1  0
 14 15  1  0
 13 16  2  0
 16 17  1  0
 17 18  2  0
 18 19  1  0
 19 20  2  0
 20 21  1  0
 21 22  2  0
  7 23  2  0
 23 24  1  0
 24 25  2  0
 25 26  1  0
 26 27  2  0
 27 28  1  0
 28 29  2  0
 29  5  1  0
 22 11  1  0
 28 23  1  0
 22 17  1  0
M  END
>  <energy_score>  (852) 
-15.944408

>  <alias>  (852) 
None

>  <HIPPO Pose ID>  (852) 
70286

>  <smiles>  (852) 
COC(=O)c1cc(NC(=O)c2cc(OC)nc3ccccc23)c2ncccc2c1

>  <inchikey>  (852) 
KRYKQQMAFGDTPA-UHFFFAOYSA-N

>  <distance_score>  (852) 
1.493212

>  <ref_mols>  (852) 
Z0917a,Z0852a

>  <ref_pdb>  (852) 
Z0852a

>  <HIPPO Compound ID>  (852) 
142211

>  <name>  (852) 
P70286

>  <inspiration_score>  (852) 
None

$$$$
P70287
     RDKit          3D

 29 32  0  0  0  0  0  0  0  0999 V2000
   -2.1388    6.4327  -24.4921 C   0  0  0  0  0  0  0  0  0  0  0  0
   -3.3652    6.2105  -23.8036 O   0  0  0  0  0  0  0  0  0  0  0  0
   -3.1826    5.9554  -22.4597 C   0  0  0  0  0  0  0  0  0  0  0  0
   -4.2811    5.5267  -21.7623 C   0  0  0  0  0  0  0  0  0  0  0  0
   -4.1239    5.2461  -20.4042 C   0  0  0  0  0  0  0  0  0  0  0  0
   -5.3426    4.7262  -19.7424 C   0  0  0  0  0  0  0  0  0  0  0  0
   -5.9430    3.9146  -20.3365 O   0  0  0  0  0  0  0  0  0  0  0  0
   -5.5824    5.3218  -18.3232 N   0  0  0  0  0  0  0  0  0  0  0  0
   -6.6297    5.1158  -17.4153 C   0  0  0  0  0  0  0  0  0  0  0  0
   -6.4229    5.4492  -16.0647 C   0  0  0  0  0  0  0  0  0  0  0  0
   -7.4335    5.2385  -15.1095 C   0  0  0  0  0  0  0  0  0  0  0  0
   -7.3374    5.7387  -13.6951 C   0  0  0  0  0  0  0  0  0  0  0  0
   -6.2583    5.2586  -13.0286 F   0  0  0  0  0  0  0  0  0  0  0  0
   -7.2417    7.0989  -13.6498 F   0  0  0  0  0  0  0  0  0  0  0  0
   -8.4285    5.4357  -12.9340 F   0  0  0  0  0  0  0  0  0  0  0  0
   -8.6180    4.6423  -15.5100 C   0  0  0  0  0  0  0  0  0  0  0  0
   -8.8534    4.4485  -16.8575 C   0  0  0  0  0  0  0  0  0  0  0  0
  -10.1398    4.1727  -17.2431 C   0  0  0  0  0  0  0  0  0  0  0  0
  -10.5200    4.3599  -18.5352 C   0  0  0  0  0  0  0  0  0  0  0  0
   -9.5211    4.5266  -19.4491 C   0  0  0  0  0  0  0  0  0  0  0  0
   -8.2257    4.6263  -19.1248 N   0  0  0  0  0  0  0  0  0  0  0  0
   -7.8853    4.6809  -17.8373 C   0  0  0  0  0  0  0  0  0  0  0  0
   -2.8692    5.4029  -19.7709 C   0  0  0  0  0  0  0  0  0  0  0  0
   -2.5682    5.0979  -18.4179 C   0  0  0  0  0  0  0  0  0  0  0  0
   -1.3431    5.4552  -17.8585 C   0  0  0  0  0  0  0  0  0  0  0  0
   -0.3528    5.9981  -18.6603 C   0  0  0  0  0  0  0  0  0  0  0  0
   -0.6024    6.1935  -20.0168 C   0  0  0  0  0  0  0  0  0  0  0  0
   -1.8371    5.9150  -20.5836 C   0  0  0  0  0  0  0  0  0  0  0  0
   -1.9851    6.1764  -21.8901 N   0  0  0  0  0  0  0  0  0  0  0  0
  1  2  1  0
  2  3  1  0
  3  4  2  0
  4  5  1  0
  5  6  1  0
  6  7  2  0
  6  8  1  0
  8  9  1  0
  9 10  2  0
 10 11  1  0
 11 12  1  0
 12 13  1  0
 12 14  1  0
 12 15  1  0
 11 16  2  0
 16 17  1  0
 17 18  2  0
 18 19  1  0
 19 20  2  0
 20 21  1  0
 21 22  2  0
  5 23  2  0
 23 24  1  0
 24 25  2  0
 25 26  1  0
 26 27  2  0
 27 28  1  0
 28 29  2  0
 29  3  1  0
 22  9  1  0
 28 23  1  0
 22 17  1  0
M  END
>  <energy_score>  (853) 
-3.828368

>  <alias>  (853) 
None

>  <HIPPO Pose ID>  (853) 
70287

>  <smiles>  (853) 
COc1cc(C(=O)Nc2cc(C(F)(F)F)cc3cccnc23)c2ccccc2n1

>  <inchikey>  (853) 
OCJCZMYWXXRYCT-UHFFFAOYSA-N

>  <distance_score>  (853) 
1.072908

>  <ref_mols>  (853) 
Z0917a,Z0852a

>  <ref_pdb>  (853) 
Z0852a

>  <HIPPO Compound ID>  (853) 
142212

>  <name>  (853) 
P70287

>  <inspiration_score>  (853) 
None

$$$$
P70288
     RDKit          3D

 29 32  0  0  0  0  0  0  0  0999 V2000
   -2.0890    6.4757  -24.6045 C   0  0  0  0  0  0  0  0  0  0  0  0
   -3.3181    6.2314  -23.9286 O   0  0  0  0  0  0  0  0  0  0  0  0
   -3.1429    5.9539  -22.5879 C   0  0  0  0  0  0  0  0  0  0  0  0
   -4.2453    5.5121  -21.9053 C   0  0  0  0  0  0  0  0  0  0  0  0
   -4.0956    5.2082  -20.5531 C   0  0  0  0  0  0  0  0  0  0  0  0
   -5.3222    4.6878  -19.9023 C   0  0  0  0  0  0  0  0  0  0  0  0
   -5.9608    3.9185  -20.5118 O   0  0  0  0  0  0  0  0  0  0  0  0
   -5.5240    5.2529  -18.4675 N   0  0  0  0  0  0  0  0  0  0  0  0
   -6.5699    5.0659  -17.5554 C   0  0  0  0  0  0  0  0  0  0  0  0
   -6.3278    5.4184  -16.2147 C   0  0  0  0  0  0  0  0  0  0  0  0
   -7.3056    5.2465  -15.2177 C   0  0  0  0  0  0  0  0  0  0  0  0
   -7.1121    5.7442  -13.7867 C   0  0  0  0  0  0  0  0  0  0  0  0
   -6.0366    4.9014  -13.0934 C   0  0  0  0  0  0  0  0  0  0  0  0
   -6.6999    7.2280  -13.7762 C   0  0  0  0  0  0  0  0  0  0  0  0
   -8.3958    5.6577  -12.9501 C   0  0  0  0  0  0  0  0  0  0  0  0
   -8.4975    4.6424  -15.5932 C   0  0  0  0  0  0  0  0  0  0  0  0
   -8.7770    4.4366  -16.9297 C   0  0  0  0  0  0  0  0  0  0  0  0
  -10.0822    4.1784  -17.2638 C   0  0  0  0  0  0  0  0  0  0  0  0
  -10.4992    4.3555  -18.5455 C   0  0  0  0  0  0  0  0  0  0  0  0
   -9.5236    4.4943  -19.4912 C   0  0  0  0  0  0  0  0  0  0  0  0
   -8.2154    4.5621  -19.2132 N   0  0  0  0  0  0  0  0  0  0  0  0
   -7.8363    4.6390  -17.9389 C   0  0  0  0  0  0  0  0  0  0  0  0
   -2.8462    5.3672  -19.9050 C   0  0  0  0  0  0  0  0  0  0  0  0
   -2.5539    5.0598  -18.5498 C   0  0  0  0  0  0  0  0  0  0  0  0
   -1.3363    5.4228  -17.9780 C   0  0  0  0  0  0  0  0  0  0  0  0
   -0.3414    5.9726  -18.7686 C   0  0  0  0  0  0  0  0  0  0  0  0
   -0.5811    6.1732  -20.1258 C   0  0  0  0  0  0  0  0  0  0  0  0
   -1.8102    5.8922  -20.7036 C   0  0  0  0  0  0  0  0  0  0  0  0
   -1.9495    6.1685  -22.0076 N   0  0  0  0  0  0  0  0  0  0  0  0
  1  2  1  0
  2  3  1  0
  3  4  2  0
  4  5  1  0
  5  6  1  0
  6  7  2  0
  6  8  1  0
  8  9  1  0
  9 10  2  0
 10 11  1  0
 11 12  1  0
 12 13  1  0
 12 14  1  0
 12 15  1  0
 11 16  2  0
 16 17  1  0
 17 18  2  0
 18 19  1  0
 19 20  2  0
 20 21  1  0
 21 22  2  0
  5 23  2  0
 23 24  1  0
 24 25  2  0
 25 26  1  0
 26 27  2  0
 27 28  1  0
 28 29  2  0
 29  3  1  0
 22  9  1  0
 28 23  1  0
 22 17  1  0
M  END
>  <energy_score>  (854) 
-14.636534

>  <alias>  (854) 
None

>  <HIPPO Pose ID>  (854) 
70288

>  <smiles>  (854) 
COc1cc(C(=O)Nc2cc(C(C)(C)C)cc3cccnc23)c2ccccc2n1

>  <inchikey>  (854) 
HRWZSAAHLCICIJ-UHFFFAOYSA-N

>  <distance_score>  (854) 
1.38475

>  <ref_mols>  (854) 
Z0917a,Z0852a

>  <ref_pdb>  (854) 
Z0852a

>  <HIPPO Compound ID>  (854) 
142213

>  <name>  (854) 
P70288

>  <inspiration_score>  (854) 
None

$$$$
P70289
     RDKit          3D

 29 32  0  0  0  0  0  0  0  0999 V2000
   -5.9310    3.9185  -20.3268 O   0  0  0  0  0  0  0  0  0  0  0  0
   -5.3352    4.7340  -19.7338 C   0  0  0  0  0  0  0  0  0  0  0  0
   -5.5799    5.3319  -18.3167 N   0  0  0  0  0  0  0  0  0  0  0  0
   -6.6278    5.1236  -17.4100 C   0  0  0  0  0  0  0  0  0  0  0  0
   -6.4225    5.4562  -16.0590 C   0  0  0  0  0  0  0  0  0  0  0  0
   -7.4335    5.2429  -15.1049 C   0  0  0  0  0  0  0  0  0  0  0  0
   -7.3395    5.7419  -13.6899 C   0  0  0  0  0  0  0  0  0  0  0  0
   -8.4336    5.4412  -12.9321 F   0  0  0  0  0  0  0  0  0  0  0  0
   -7.2414    7.1020  -13.6442 F   0  0  0  0  0  0  0  0  0  0  0  0
   -6.2636    5.2594  -13.0206 F   0  0  0  0  0  0  0  0  0  0  0  0
   -8.6166    4.6448  -15.5068 C   0  0  0  0  0  0  0  0  0  0  0  0
   -8.8503    4.4508  -16.8546 C   0  0  0  0  0  0  0  0  0  0  0  0
  -10.1358    4.1726  -17.2412 C   0  0  0  0  0  0  0  0  0  0  0  0
  -10.5148    4.3572  -18.5340 C   0  0  0  0  0  0  0  0  0  0  0  0
   -9.5152    4.5249  -19.4471 C   0  0  0  0  0  0  0  0  0  0  0  0
   -8.2202    4.6296  -19.1217 N   0  0  0  0  0  0  0  0  0  0  0  0
   -7.8817    4.6853  -17.8335 C   0  0  0  0  0  0  0  0  0  0  0  0
   -4.1125    5.2465  -20.3954 C   0  0  0  0  0  0  0  0  0  0  0  0
   -4.2652    5.5145  -21.7559 C   0  0  0  0  0  0  0  0  0  0  0  0
   -3.1567    5.9261  -22.4355 C   0  0  0  0  0  0  0  0  0  0  0  0
   -3.2143    6.1899  -23.7632 O   0  0  0  0  0  0  0  0  0  0  0  0
   -1.9525    6.1307  -21.8934 N   0  0  0  0  0  0  0  0  0  0  0  0
   -1.8090    5.8848  -20.5839 C   0  0  0  0  0  0  0  0  0  0  0  0
   -0.5683    6.1553  -20.0217 C   0  0  0  0  0  0  0  0  0  0  0  0
   -0.3271    5.9897  -18.6602 C   0  0  0  0  0  0  0  0  0  0  0  0
   -1.3337    5.4821  -17.8628 C   0  0  0  0  0  0  0  0  0  0  0  0
   -1.1267    5.3344  -16.5482 F   0  0  0  0  0  0  0  0  0  0  0  0
   -2.5608    5.1215  -18.4044 C   0  0  0  0  0  0  0  0  0  0  0  0
   -2.8541    5.4000  -19.7628 C   0  0  0  0  0  0  0  0  0  0  0  0
  1  2  2  0
  2  3  1  0
  3  4  1  0
  4  5  2  0
  5  6  1  0
  6  7  1  0
  7  8  1  0
  7  9  1  0
  7 10  1  0
  6 11  2  0
 11 12  1  0
 12 13  2  0
 13 14  1  0
 14 15  2  0
 15 16  1  0
 16 17  2  0
  2 18  1  0
 18 19  2  0
 19 20  1  0
 20 21  1  0
 20 22  2  0
 22 23  1  0
 23 24  2  0
 24 25  1  0
 25 26  2  0
 26 27  1  0
 26 28  1  0
 28 29  2  0
 17  4  1  0
 29 18  1  0
 17 12  1  0
 29 23  1  0
M  END
>  <energy_score>  (855) 
-10.384393

>  <alias>  (855) 
None

>  <HIPPO Pose ID>  (855) 
70289

>  <smiles>  (855) 
O=C(Nc1cc(C(F)(F)F)cc2cccnc12)c1cc(O)nc2ccc(F)cc12

>  <inchikey>  (855) 
JYLUVDORMYQBFZ-UHFFFAOYSA-N

>  <distance_score>  (855) 
1.073536

>  <ref_mols>  (855) 
Z0917a,Z0852a

>  <ref_pdb>  (855) 
Z0852a

>  <HIPPO Compound ID>  (855) 
142214

>  <name>  (855) 
P70289

>  <inspiration_score>  (855) 
None

$$$$
P70290
     RDKit          3D

 29 32  0  0  0  0  0  0  0  0999 V2000
   -5.7307    6.4437  -13.6227 C   0  0  0  0  0  0  0  0  0  0  0  0
   -7.0606    5.7127  -13.7858 C   0  0  0  0  0  0  0  0  0  0  0  0
   -8.1592    6.7044  -13.3477 C   0  0  0  0  0  0  0  0  0  0  0  0
   -7.0581    4.5049  -12.8383 C   0  0  0  0  0  0  0  0  0  0  0  0
   -7.2742    5.2527  -15.2253 C   0  0  0  0  0  0  0  0  0  0  0  0
   -6.3305    5.4342  -16.2531 C   0  0  0  0  0  0  0  0  0  0  0  0
   -6.6098    5.1017  -17.5878 C   0  0  0  0  0  0  0  0  0  0  0  0
   -5.5891    5.3102  -18.5205 N   0  0  0  0  0  0  0  0  0  0  0  0
   -5.3812    4.7120  -19.9391 C   0  0  0  0  0  0  0  0  0  0  0  0
   -5.9901    3.8948  -20.5147 O   0  0  0  0  0  0  0  0  0  0  0  0
   -4.1492    5.2148  -20.5938 C   0  0  0  0  0  0  0  0  0  0  0  0
   -4.2966    5.5181  -21.9441 C   0  0  0  0  0  0  0  0  0  0  0  0
   -3.1802    5.9342  -22.6082 C   0  0  0  0  0  0  0  0  0  0  0  0
   -3.2308    6.2309  -23.9294 O   0  0  0  0  0  0  0  0  0  0  0  0
   -1.9755    6.1159  -22.0577 N   0  0  0  0  0  0  0  0  0  0  0  0
   -1.8396    5.8454  -20.7527 C   0  0  0  0  0  0  0  0  0  0  0  0
   -0.6027    6.1079  -20.1785 C   0  0  0  0  0  0  0  0  0  0  0  0
   -0.3735    5.9304  -18.8166 C   0  0  0  0  0  0  0  0  0  0  0  0
   -1.3868    5.4147  -18.0336 C   0  0  0  0  0  0  0  0  0  0  0  0
   -1.1998    5.2756  -16.7151 F   0  0  0  0  0  0  0  0  0  0  0  0
   -2.6056    5.0518  -18.5910 C   0  0  0  0  0  0  0  0  0  0  0  0
   -2.8911    5.3492  -19.9484 C   0  0  0  0  0  0  0  0  0  0  0  0
   -7.8790    4.6697  -17.9357 C   0  0  0  0  0  0  0  0  0  0  0  0
   -8.2796    4.6066  -19.2030 N   0  0  0  0  0  0  0  0  0  0  0  0
   -9.5907    4.5226  -19.4540 C   0  0  0  0  0  0  0  0  0  0  0  0
  -10.5408    4.3373  -18.4889 C   0  0  0  0  0  0  0  0  0  0  0  0
  -10.0934    4.1643  -17.2141 C   0  0  0  0  0  0  0  0  0  0  0  0
   -8.7908    4.4517  -16.9001 C   0  0  0  0  0  0  0  0  0  0  0  0
   -8.4818    4.6607  -15.5662 C   0  0  0  0  0  0  0  0  0  0  0  0
  1  2  1  0
  2  3  1  0
  2  4  1  0
  2  5  1  0
  5  6  2  0
  6  7  1  0
  7  8  1  0
  8  9  1  0
  9 10  2  0
  9 11  1  0
 11 12  2  0
 12 13  1  0
 13 14  1  0
 13 15  2  0
 15 16  1  0
 16 17  2  0
 17 18  1  0
 18 19  2  0
 19 20  1  0
 19 21  1  0
 21 22  2  0
  7 23  2  0
 23 24  1  0
 24 25  2  0
 25 26  1  0
 26 27  2  0
 27 28  1  0
 28 29  2  0
 29  5  1  0
 22 11  1  0
 28 23  1  0
 22 16  1  0
M  END
>  <energy_score>  (856) 
-26.799727

>  <alias>  (856) 
None

>  <HIPPO Pose ID>  (856) 
70290

>  <smiles>  (856) 
CC(C)(C)c1cc(NC(=O)c2cc(O)nc3ccc(F)cc23)c2ncccc2c1

>  <inchikey>  (856) 
ACMFLTPUJGJYEC-UHFFFAOYSA-N

>  <distance_score>  (856) 
1.335895

>  <ref_mols>  (856) 
Z0917a,Z0852a

>  <ref_pdb>  (856) 
Z0852a

>  <HIPPO Compound ID>  (856) 
142215

>  <name>  (856) 
P70290

>  <inspiration_score>  (856) 
None

$$$$
P70291
     RDKit          3D

 29 32  0  0  0  0  0  0  0  0999 V2000
   -2.9172    6.1371  -23.8829 C   0  0  0  0  0  0  0  0  0  0  0  0
   -2.9384    5.8806  -22.4075 C   0  0  0  0  0  0  0  0  0  0  0  0
   -4.0767    5.4114  -21.7910 C   0  0  0  0  0  0  0  0  0  0  0  0
   -4.0406    5.1544  -20.4170 C   0  0  0  0  0  0  0  0  0  0  0  0
   -5.3293    4.6608  -19.8525 C   0  0  0  0  0  0  0  0  0  0  0  0
   -5.9558    3.9275  -20.5165 O   0  0  0  0  0  0  0  0  0  0  0  0
   -5.6176    5.2341  -18.4364 N   0  0  0  0  0  0  0  0  0  0  0  0
   -6.6536    4.9580  -17.5385 C   0  0  0  0  0  0  0  0  0  0  0  0
   -6.4124    5.2171  -16.1794 C   0  0  0  0  0  0  0  0  0  0  0  0
   -7.4022    5.0160  -15.1966 C   0  0  0  0  0  0  0  0  0  0  0  0
   -7.2062    5.4742  -13.7534 C   0  0  0  0  0  0  0  0  0  0  0  0
   -6.0380    4.7221  -13.1096 C   0  0  0  0  0  0  0  0  0  0  0  0
   -8.4414    5.2904  -12.8434 C   0  0  0  0  0  0  0  0  0  0  0  0
   -6.9081    6.9763  -13.7898 C   0  0  0  0  0  0  0  0  0  0  0  0
   -8.6153    4.4931  -15.6104 C   0  0  0  0  0  0  0  0  0  0  0  0
   -8.8826    4.3594  -16.9607 C   0  0  0  0  0  0  0  0  0  0  0  0
  -10.1910    4.1741  -17.3294 C   0  0  0  0  0  0  0  0  0  0  0  0
  -10.5769    4.4266  -18.6066 C   0  0  0  0  0  0  0  0  0  0  0  0
   -9.5807    4.5502  -19.5304 C   0  0  0  0  0  0  0  0  0  0  0  0
   -8.2761    4.5547  -19.2334 N   0  0  0  0  0  0  0  0  0  0  0  0
   -7.9203    4.5706  -17.9508 C   0  0  0  0  0  0  0  0  0  0  0  0
   -2.8514    5.3656  -19.6731 C   0  0  0  0  0  0  0  0  0  0  0  0
   -2.6623    5.1218  -18.2841 C   0  0  0  0  0  0  0  0  0  0  0  0
   -1.5312    5.5956  -17.6231 C   0  0  0  0  0  0  0  0  0  0  0  0
   -1.4620    5.5526  -15.9032 Cl  0  0  0  0  0  0  0  0  0  0  0  0
   -0.4885    6.1491  -18.3447 C   0  0  0  0  0  0  0  0  0  0  0  0
   -0.6069    6.2571  -19.7302 C   0  0  0  0  0  0  0  0  0  0  0  0
   -1.7694    5.9007  -20.4003 C   0  0  0  0  0  0  0  0  0  0  0  0
   -1.8076    6.1340  -21.7195 N   0  0  0  0  0  0  0  0  0  0  0  0
  1  2  1  0
  2  3  2  0
  3  4  1  0
  4  5  1  0
  5  6  2  0
  5  7  1  0
  7  8  1  0
  8  9  2  0
  9 10  1  0
 10 11  1  0
 11 12  1  0
 11 13  1  0
 11 14  1  0
 10 15  2  0
 15 16  1  0
 16 17  2  0
 17 18  1  0
 18 19  2  0
 19 20  1  0
 20 21  2  0
  4 22  2  0
 22 23  1  0
 23 24  2  0
 24 25  1  0
 24 26  1  0
 26 27  2  0
 27 28  1  0
 28 29  2  0
 29  2  1  0
 21  8  1  0
 28 22  1  0
 21 16  1  0
M  END
>  <energy_score>  (857) 
-17.772417

>  <alias>  (857) 
None

>  <HIPPO Pose ID>  (857) 
70291

>  <smiles>  (857) 
Cc1cc(C(=O)Nc2cc(C(C)(C)C)cc3cccnc23)c2cc(Cl)ccc2n1

>  <inchikey>  (857) 
QMSNMWUJVWINIR-UHFFFAOYSA-N

>  <distance_score>  (857) 
1.216107

>  <ref_mols>  (857) 
Z0917a,Z0852a

>  <ref_pdb>  (857) 
Z0852a

>  <HIPPO Compound ID>  (857) 
142217

>  <name>  (857) 
P70291

>  <inspiration_score>  (857) 
None

$$$$
P70292
     RDKit          3D

 29 32  0  0  0  0  0  0  0  0999 V2000
   -6.6546    2.8717  -13.0732 C   0  0  0  0  0  0  0  0  0  0  0  0
   -6.5355    4.2752  -12.7988 O   0  0  0  0  0  0  0  0  0  0  0  0
   -6.0749    5.1084  -13.7647 C   0  0  0  0  0  0  0  0  0  0  0  0
   -5.2742    6.0040  -13.5294 O   0  0  0  0  0  0  0  0  0  0  0  0
   -6.6255    4.9355  -15.1314 C   0  0  0  0  0  0  0  0  0  0  0  0
   -5.8130    5.2357  -16.2251 C   0  0  0  0  0  0  0  0  0  0  0  0
   -6.2855    5.0696  -17.5351 C   0  0  0  0  0  0  0  0  0  0  0  0
   -5.3665    5.3229  -18.5554 N   0  0  0  0  0  0  0  0  0  0  0  0
   -5.2601    4.7305  -19.9864 C   0  0  0  0  0  0  0  0  0  0  0  0
   -5.9699    3.9972  -20.5583 O   0  0  0  0  0  0  0  0  0  0  0  0
   -4.0563    5.2264  -20.6996 C   0  0  0  0  0  0  0  0  0  0  0  0
   -4.2782    5.5759  -22.0320 C   0  0  0  0  0  0  0  0  0  0  0  0
   -3.2151    6.0661  -22.7428 C   0  0  0  0  0  0  0  0  0  0  0  0
   -3.3472    6.4476  -24.0444 O   0  0  0  0  0  0  0  0  0  0  0  0
   -1.9985    6.2647  -22.2240 N   0  0  0  0  0  0  0  0  0  0  0  0
   -1.7942    5.9430  -20.9344 C   0  0  0  0  0  0  0  0  0  0  0  0
   -0.5467    6.2441  -20.3980 C   0  0  0  0  0  0  0  0  0  0  0  0
    0.4054    6.8298  -21.1997 O   0  0  0  0  0  0  0  0  0  0  0  0
   -0.2256    6.0173  -19.0693 C   0  0  0  0  0  0  0  0  0  0  0  0
   -1.1693    5.4176  -18.2513 C   0  0  0  0  0  0  0  0  0  0  0  0
   -2.4088    5.0393  -18.7725 C   0  0  0  0  0  0  0  0  0  0  0  0
   -2.7774    5.3753  -20.1046 C   0  0  0  0  0  0  0  0  0  0  0  0
   -7.6102    4.7033  -17.7757 C   0  0  0  0  0  0  0  0  0  0  0  0
   -8.1349    4.6973  -19.0049 N   0  0  0  0  0  0  0  0  0  0  0  0
   -9.4517    4.4940  -19.1626 C   0  0  0  0  0  0  0  0  0  0  0  0
  -10.3021    4.2182  -18.1244 C   0  0  0  0  0  0  0  0  0  0  0  0
   -9.7502    4.1494  -16.8644 C   0  0  0  0  0  0  0  0  0  0  0  0
   -8.4199    4.4524  -16.6578 C   0  0  0  0  0  0  0  0  0  0  0  0
   -7.9412    4.5491  -15.3492 C   0  0  0  0  0  0  0  0  0  0  0  0
  1  2  1  0
  2  3  1  0
  3  4  2  0
  3  5  1  0
  5  6  2  0
  6  7  1  0
  7  8  1  0
  8  9  1  0
  9 10  2  0
  9 11  1  0
 11 12  2  0
 12 13  1  0
 13 14  1  0
 13 15  2  0
 15 16  1  0
 16 17  2  0
 17 18  1  0
 17 19  1  0
 19 20  2  0
 20 21  1  0
 21 22  2  0
  7 23  2  0
 23 24  1  0
 24 25  2  0
 25 26  1  0
 26 27  2  0
 27 28  1  0
 28 29  2  0
 29  5  1  0
 22 11  1  0
 28 23  1  0
 22 16  1  0
M  END
>  <energy_score>  (858) 
-8.445219

>  <alias>  (858) 
None

>  <HIPPO Pose ID>  (858) 
70292

>  <smiles>  (858) 
COC(=O)c1cc(NC(=O)c2cc(O)nc3c(O)cccc23)c2ncccc2c1

>  <inchikey>  (858) 
SEINKEDNRAGAHT-UHFFFAOYSA-N

>  <distance_score>  (858) 
1.579846

>  <ref_mols>  (858) 
Z0917a,Z0852a

>  <ref_pdb>  (858) 
Z0852a

>  <HIPPO Compound ID>  (858) 
142218

>  <name>  (858) 
P70292

>  <inspiration_score>  (858) 
None

$$$$
P70293
     RDKit          3D

 29 32  0  0  0  0  0  0  0  0999 V2000
   -5.9443    3.9495  -20.3475 O   0  0  0  0  0  0  0  0  0  0  0  0
   -5.3313    4.7423  -19.7411 C   0  0  0  0  0  0  0  0  0  0  0  0
   -5.6215    5.4019  -18.3595 N   0  0  0  0  0  0  0  0  0  0  0  0
   -6.6429    5.1571  -17.4308 C   0  0  0  0  0  0  0  0  0  0  0  0
   -6.4287    5.4891  -16.0811 C   0  0  0  0  0  0  0  0  0  0  0  0
   -7.4268    5.2562  -15.1172 C   0  0  0  0  0  0  0  0  0  0  0  0
   -7.3278    5.7541  -13.7017 C   0  0  0  0  0  0  0  0  0  0  0  0
   -7.2312    7.1138  -13.6537 F   0  0  0  0  0  0  0  0  0  0  0  0
   -6.2482    5.2708  -13.0388 F   0  0  0  0  0  0  0  0  0  0  0  0
   -8.4179    5.4495  -12.9397 F   0  0  0  0  0  0  0  0  0  0  0  0
   -8.6050    4.6412  -15.5085 C   0  0  0  0  0  0  0  0  0  0  0  0
   -8.8491    4.4481  -16.8544 C   0  0  0  0  0  0  0  0  0  0  0  0
  -10.1354    4.1603  -17.2307 C   0  0  0  0  0  0  0  0  0  0  0  0
  -10.5278    4.3481  -18.5196 C   0  0  0  0  0  0  0  0  0  0  0  0
   -9.5382    4.5311  -19.4410 C   0  0  0  0  0  0  0  0  0  0  0  0
   -8.2416    4.6402  -19.1260 N   0  0  0  0  0  0  0  0  0  0  0  0
   -7.8930    4.6973  -17.8413 C   0  0  0  0  0  0  0  0  0  0  0  0
   -4.0721    5.2121  -20.3657 C   0  0  0  0  0  0  0  0  0  0  0  0
   -4.1630    5.4648  -21.7348 C   0  0  0  0  0  0  0  0  0  0  0  0
   -3.0255    5.8701  -22.3711 C   0  0  0  0  0  0  0  0  0  0  0  0
   -3.0343    6.1189  -23.7038 O   0  0  0  0  0  0  0  0  0  0  0  0
   -1.8461    6.0872  -21.7787 N   0  0  0  0  0  0  0  0  0  0  0  0
   -1.7708    5.8565  -20.4508 C   0  0  0  0  0  0  0  0  0  0  0  0
   -0.5703    6.1498  -19.8070 C   0  0  0  0  0  0  0  0  0  0  0  0
    0.4873    6.6427  -20.5347 O   0  0  0  0  0  0  0  0  0  0  0  0
   -0.3857    5.9892  -18.4409 C   0  0  0  0  0  0  0  0  0  0  0  0
   -1.4169    5.4540  -17.6861 C   0  0  0  0  0  0  0  0  0  0  0  0
   -2.6119    5.0868  -18.3054 C   0  0  0  0  0  0  0  0  0  0  0  0
   -2.8450    5.3683  -19.6783 C   0  0  0  0  0  0  0  0  0  0  0  0
  1  2  2  0
  2  3  1  0
  3  4  1  0
  4  5  2  0
  5  6  1  0
  6  7  1  0
  7  8  1  0
  7  9  1  0
  7 10  1  0
  6 11  2  0
 11 12  1  0
 12 13  2  0
 13 14  1  0
 14 15  2  0
 15 16  1  0
 16 17  2  0
  2 18  1  0
 18 19  2  0
 19 20  1  0
 20 21  1  0
 20 22  2  0
 22 23  1  0
 23 24  2  0
 24 25  1  0
 24 26  1  0
 26 27  2  0
 27 28  1  0
 28 29  2  0
 17  4  1  0
 29 18  1  0
 17 12  1  0
 29 23  1  0
M  END
>  <energy_score>  (859) 
-25.241515

>  <alias>  (859) 
None

>  <HIPPO Pose ID>  (859) 
70293

>  <smiles>  (859) 
O=C(Nc1cc(C(F)(F)F)cc2cccnc12)c1cc(O)nc2c(O)cccc12

>  <inchikey>  (859) 
YTIBOELGKOCQSP-UHFFFAOYSA-N

>  <distance_score>  (859) 
1.058412

>  <ref_mols>  (859) 
Z0917a,Z0852a

>  <ref_pdb>  (859) 
Z0852a

>  <HIPPO Compound ID>  (859) 
142219

>  <name>  (859) 
P70293

>  <inspiration_score>  (859) 
None

$$$$
P70294
     RDKit          3D

 29 32  0  0  0  0  0  0  0  0999 V2000
   -8.1528    6.7001  -13.3539 C   0  0  0  0  0  0  0  0  0  0  0  0
   -7.0465    5.7205  -13.7995 C   0  0  0  0  0  0  0  0  0  0  0  0
   -7.0255    4.5126  -12.8516 C   0  0  0  0  0  0  0  0  0  0  0  0
   -5.7234    6.4652  -13.6451 C   0  0  0  0  0  0  0  0  0  0  0  0
   -7.2632    5.2568  -15.2375 C   0  0  0  0  0  0  0  0  0  0  0  0
   -6.3295    5.4503  -16.2732 C   0  0  0  0  0  0  0  0  0  0  0  0
   -6.6123    5.1089  -17.6053 C   0  0  0  0  0  0  0  0  0  0  0  0
   -5.6054    5.3385  -18.5491 N   0  0  0  0  0  0  0  0  0  0  0  0
   -5.3706    4.7047  -19.9492 C   0  0  0  0  0  0  0  0  0  0  0  0
   -6.0250    3.9507  -20.5601 O   0  0  0  0  0  0  0  0  0  0  0  0
   -4.1017    5.1678  -20.5656 C   0  0  0  0  0  0  0  0  0  0  0  0
   -4.1864    5.4591  -21.9244 C   0  0  0  0  0  0  0  0  0  0  0  0
   -3.0429    5.8747  -22.5433 C   0  0  0  0  0  0  0  0  0  0  0  0
   -3.0448    6.1597  -23.8690 O   0  0  0  0  0  0  0  0  0  0  0  0
   -1.8650    6.0733  -21.9406 N   0  0  0  0  0  0  0  0  0  0  0  0
   -1.7980    5.8161  -20.6178 C   0  0  0  0  0  0  0  0  0  0  0  0
   -0.6036    6.1044  -19.9604 C   0  0  0  0  0  0  0  0  0  0  0  0
    0.4568    6.6150  -20.6718 O   0  0  0  0  0  0  0  0  0  0  0  0
   -0.4303    5.9277  -18.5952 C   0  0  0  0  0  0  0  0  0  0  0  0
   -1.4673    5.3822  -17.8566 C   0  0  0  0  0  0  0  0  0  0  0  0
   -2.6540    5.0163  -18.4915 C   0  0  0  0  0  0  0  0  0  0  0  0
   -2.8774    5.3125  -19.8639 C   0  0  0  0  0  0  0  0  0  0  0  0
   -7.8793    4.6633  -17.9423 C   0  0  0  0  0  0  0  0  0  0  0  0
   -8.2885    4.6021  -19.2058 N   0  0  0  0  0  0  0  0  0  0  0  0
   -9.6008    4.5194  -19.4489 C   0  0  0  0  0  0  0  0  0  0  0  0
  -10.5441    4.3283  -18.4780 C   0  0  0  0  0  0  0  0  0  0  0  0
  -10.0879    4.1534  -17.2061 C   0  0  0  0  0  0  0  0  0  0  0  0
   -8.7834    4.4414  -16.9008 C   0  0  0  0  0  0  0  0  0  0  0  0
   -8.4670    4.6520  -15.5692 C   0  0  0  0  0  0  0  0  0  0  0  0
  1  2  1  0
  2  3  1  0
  2  4  1  0
  2  5  1  0
  5  6  2  0
  6  7  1  0
  7  8  1  0
  8  9  1  0
  9 10  2  0
  9 11  1  0
 11 12  2  0
 12 13  1  0
 13 14  1  0
 13 15  2  0
 15 16  1  0
 16 17  2  0
 17 18  1  0
 17 19  1  0
 19 20  2  0
 20 21  1  0
 21 22  2  0
  7 23  2  0
 23 24  1  0
 24 25  2  0
 25 26  1  0
 26 27  2  0
 27 28  1  0
 28 29  2  0
 29  5  1  0
 22 11  1  0
 28 23  1  0
 22 16  1  0
M  END
>  <energy_score>  (860) 
-57.260489

>  <alias>  (860) 
None

>  <HIPPO Pose ID>  (860) 
70294

>  <smiles>  (860) 
CC(C)(C)c1cc(NC(=O)c2cc(O)nc3c(O)cccc23)c2ncccc2c1

>  <inchikey>  (860) 
WUSZEEMJYFKZMJ-UHFFFAOYSA-N

>  <distance_score>  (860) 
1.32859

>  <ref_mols>  (860) 
Z0917a,Z0852a

>  <ref_pdb>  (860) 
Z0852a

>  <HIPPO Compound ID>  (860) 
142220

>  <name>  (860) 
P70294

>  <inspiration_score>  (860) 
None

$$$$
P70295
     RDKit          3D

 29 32  0  0  0  0  0  0  0  0999 V2000
   -1.4821    5.4907  -16.0889 C   0  0  0  0  0  0  0  0  0  0  0  0
   -1.5480    5.5636  -17.5866 C   0  0  0  0  0  0  0  0  0  0  0  0
   -0.5209    6.1560  -18.3115 C   0  0  0  0  0  0  0  0  0  0  0  0
   -0.6342    6.2853  -19.6964 C   0  0  0  0  0  0  0  0  0  0  0  0
   -1.7837    5.9193  -20.3806 C   0  0  0  0  0  0  0  0  0  0  0  0
   -1.8175    6.1637  -21.7003 N   0  0  0  0  0  0  0  0  0  0  0  0
   -2.9413    5.9012  -22.3960 C   0  0  0  0  0  0  0  0  0  0  0  0
   -2.9168    6.1700  -23.8690 C   0  0  0  0  0  0  0  0  0  0  0  0
   -4.0780    5.4170  -21.7885 C   0  0  0  0  0  0  0  0  0  0  0  0
   -4.0442    5.1502  -20.4166 C   0  0  0  0  0  0  0  0  0  0  0  0
   -5.3327    4.6529  -19.8559 C   0  0  0  0  0  0  0  0  0  0  0  0
   -5.9618    3.9237  -20.5222 O   0  0  0  0  0  0  0  0  0  0  0  0
   -5.6197    5.2240  -18.4384 N   0  0  0  0  0  0  0  0  0  0  0  0
   -6.6574    4.9500  -17.5420 C   0  0  0  0  0  0  0  0  0  0  0  0
   -6.4161    5.2089  -16.1828 C   0  0  0  0  0  0  0  0  0  0  0  0
   -7.4060    5.0101  -15.1999 C   0  0  0  0  0  0  0  0  0  0  0  0
   -7.2092    5.4678  -13.7566 C   0  0  0  0  0  0  0  0  0  0  0  0
   -8.4444    5.2862  -12.8463 C   0  0  0  0  0  0  0  0  0  0  0  0
   -6.9083    6.9693  -13.7930 C   0  0  0  0  0  0  0  0  0  0  0  0
   -6.0420    4.7136  -13.1131 C   0  0  0  0  0  0  0  0  0  0  0  0
   -8.6201    4.4899  -15.6138 C   0  0  0  0  0  0  0  0  0  0  0  0
   -8.8875    4.3565  -16.9642 C   0  0  0  0  0  0  0  0  0  0  0  0
  -10.1962    4.1744  -17.3331 C   0  0  0  0  0  0  0  0  0  0  0  0
  -10.5815    4.4299  -18.6098 C   0  0  0  0  0  0  0  0  0  0  0  0
   -9.5850    4.5509  -19.5335 C   0  0  0  0  0  0  0  0  0  0  0  0
   -8.2804    4.5490  -19.2370 N   0  0  0  0  0  0  0  0  0  0  0  0
   -7.9247    4.5652  -17.9544 C   0  0  0  0  0  0  0  0  0  0  0  0
   -2.8600    5.3633  -19.6656 C   0  0  0  0  0  0  0  0  0  0  0  0
   -2.6728    5.1001  -18.2781 C   0  0  0  0  0  0  0  0  0  0  0  0
  1  2  1  0
  2  3  2  0
  3  4  1  0
  4  5  2  0
  5  6  1  0
  6  7  2  0
  7  8  1  0
  7  9  1  0
  9 10  2  0
 10 11  1  0
 11 12  2  0
 11 13  1  0
 13 14  1  0
 14 15  2  0
 15 16  1  0
 16 17  1  0
 17 18  1  0
 17 19  1  0
 17 20  1  0
 16 21  2  0
 21 22  1  0
 22 23  2  0
 23 24  1  0
 24 25  2  0
 25 26  1  0
 26 27  2  0
 10 28  1  0
 28 29  2  0
 29  2  1  0
 28  5  1  0
 27 14  1  0
 27 22  1  0
M  END
>  <energy_score>  (861) 
-5.403717

>  <alias>  (861) 
None

>  <HIPPO Pose ID>  (861) 
70295

>  <smiles>  (861) 
Cc1ccc2nc(C)cc(C(=O)Nc3cc(C(C)(C)C)cc4cccnc34)c2c1

>  <inchikey>  (861) 
OTEIWBUVVYOVOJ-UHFFFAOYSA-N

>  <distance_score>  (861) 
1.210042

>  <ref_mols>  (861) 
Z0917a,Z0852a

>  <ref_pdb>  (861) 
Z0852a

>  <HIPPO Compound ID>  (861) 
142224

>  <name>  (861) 
P70295

>  <inspiration_score>  (861) 
None

$$$$
P70296
     RDKit          3D

 29 32  0  0  0  0  0  0  0  0999 V2000
    0.9618    6.2855  -17.8944 C   0  0  0  0  0  0  0  0  0  0  0  0
   -0.3559    5.9957  -18.5592 C   0  0  0  0  0  0  0  0  0  0  0  0
   -1.3841    5.4363  -17.8046 C   0  0  0  0  0  0  0  0  0  0  0  0
   -2.5915    5.0916  -18.4012 C   0  0  0  0  0  0  0  0  0  0  0  0
   -2.8617    5.4256  -19.7475 C   0  0  0  0  0  0  0  0  0  0  0  0
   -4.1124    5.2631  -20.3909 C   0  0  0  0  0  0  0  0  0  0  0  0
   -5.3353    4.7370  -19.7367 C   0  0  0  0  0  0  0  0  0  0  0  0
   -5.9295    3.9219  -20.3325 O   0  0  0  0  0  0  0  0  0  0  0  0
   -5.5835    5.3326  -18.3186 N   0  0  0  0  0  0  0  0  0  0  0  0
   -6.6330    5.1221  -17.4147 C   0  0  0  0  0  0  0  0  0  0  0  0
   -6.4290    5.4563  -16.0637 C   0  0  0  0  0  0  0  0  0  0  0  0
   -7.4396    5.2428  -15.1096 C   0  0  0  0  0  0  0  0  0  0  0  0
   -7.3444    5.7416  -13.6945 C   0  0  0  0  0  0  0  0  0  0  0  0
   -8.4360    5.4367  -12.9351 F   0  0  0  0  0  0  0  0  0  0  0  0
   -6.2658    5.2603  -13.0283 F   0  0  0  0  0  0  0  0  0  0  0  0
   -7.2491    7.1015  -13.6474 F   0  0  0  0  0  0  0  0  0  0  0  0
   -8.6226    4.6448  -15.5119 C   0  0  0  0  0  0  0  0  0  0  0  0
   -8.8555    4.4495  -16.8598 C   0  0  0  0  0  0  0  0  0  0  0  0
  -10.1413    4.1736  -17.2473 C   0  0  0  0  0  0  0  0  0  0  0  0
  -10.5190    4.3609  -18.5399 C   0  0  0  0  0  0  0  0  0  0  0  0
   -9.5184    4.5237  -19.4527 C   0  0  0  0  0  0  0  0  0  0  0  0
   -8.2234    4.6217  -19.1267 N   0  0  0  0  0  0  0  0  0  0  0  0
   -7.8858    4.6816  -17.8385 C   0  0  0  0  0  0  0  0  0  0  0  0
   -4.2658    5.5479  -21.7475 C   0  0  0  0  0  0  0  0  0  0  0  0
   -3.1704    6.0013  -22.4296 C   0  0  0  0  0  0  0  0  0  0  0  0
   -1.9822    6.2261  -21.8423 N   0  0  0  0  0  0  0  0  0  0  0  0
   -1.8173    5.9629  -20.5307 C   0  0  0  0  0  0  0  0  0  0  0  0
   -0.5781    6.2528  -19.9296 C   0  0  0  0  0  0  0  0  0  0  0  0
    0.5428    6.7883  -20.7939 C   0  0  0  0  0  0  0  0  0  0  0  0
  1  2  1  0
  2  3  2  0
  3  4  1  0
  4  5  2  0
  5  6  1  0
  6  7  1  0
  7  8  2  0
  7  9  1  0
  9 10  1  0
 10 11  2  0
 11 12  1  0
 12 13  1  0
 13 14  1  0
 13 15  1  0
 13 16  1  0
 12 17  2  0
 17 18  1  0
 18 19  2  0
 19 20  1  0
 20 21  2  0
 21 22  1  0
 22 23  2  0
  6 24  2  0
 24 25  1  0
 25 26  2  0
 26 27  1  0
 27 28  2  0
 28 29  1  0
 28  2  1  0
 27  5  1  0
 23 10  1  0
 23 18  1  0
M  END
>  <energy_score>  (862) 
-10.300723

>  <alias>  (862) 
None

>  <HIPPO Pose ID>  (862) 
70296

>  <smiles>  (862) 
Cc1ccc2c(C(=O)Nc3cc(C(F)(F)F)cc4cccnc34)ccnc2c1C

>  <inchikey>  (862) 
UGKGWUPXWOOFMX-UHFFFAOYSA-N

>  <distance_score>  (862) 
1.07308

>  <ref_mols>  (862) 
Z0917a,Z0852a

>  <ref_pdb>  (862) 
Z0852a

>  <HIPPO Compound ID>  (862) 
142225

>  <name>  (862) 
P70296

>  <inspiration_score>  (862) 
None

$$$$
P70297
     RDKit          3D

 29 32  0  0  0  0  0  0  0  0999 V2000
    0.8575    6.2927  -17.9511 C   0  0  0  0  0  0  0  0  0  0  0  0
   -0.4327    5.9558  -18.6461 C   0  0  0  0  0  0  0  0  0  0  0  0
   -1.4535    5.3523  -17.9172 C   0  0  0  0  0  0  0  0  0  0  0  0
   -2.6385    4.9753  -18.5379 C   0  0  0  0  0  0  0  0  0  0  0  0
   -2.9084    5.3433  -19.8756 C   0  0  0  0  0  0  0  0  0  0  0  0
   -4.1590    5.1987  -20.5295 C   0  0  0  0  0  0  0  0  0  0  0  0
   -5.3891    4.6504  -19.9009 C   0  0  0  0  0  0  0  0  0  0  0  0
   -5.9982    3.8712  -20.5289 O   0  0  0  0  0  0  0  0  0  0  0  0
   -5.6136    5.1758  -18.4533 N   0  0  0  0  0  0  0  0  0  0  0  0
   -6.6522    4.9296  -17.5481 C   0  0  0  0  0  0  0  0  0  0  0  0
   -6.4031    5.1810  -16.1888 C   0  0  0  0  0  0  0  0  0  0  0  0
   -7.3962    4.9983  -15.2042 C   0  0  0  0  0  0  0  0  0  0  0  0
   -7.1991    5.4679  -13.7646 C   0  0  0  0  0  0  0  0  0  0  0  0
   -6.0364    4.7143  -13.1126 C   0  0  0  0  0  0  0  0  0  0  0  0
   -6.8918    6.9676  -13.8141 C   0  0  0  0  0  0  0  0  0  0  0  0
   -8.4362    5.2991  -12.8535 C   0  0  0  0  0  0  0  0  0  0  0  0
   -8.6167    4.4897  -15.6149 C   0  0  0  0  0  0  0  0  0  0  0  0
   -8.8892    4.3602  -16.9645 C   0  0  0  0  0  0  0  0  0  0  0  0
  -10.1991    4.1792  -17.3309 C   0  0  0  0  0  0  0  0  0  0  0  0
  -10.5883    4.4350  -18.6064 C   0  0  0  0  0  0  0  0  0  0  0  0
   -9.5943    4.5612  -19.5315 C   0  0  0  0  0  0  0  0  0  0  0  0
   -8.2891    4.5601  -19.2369 N   0  0  0  0  0  0  0  0  0  0  0  0
   -7.9282    4.5671  -17.9563 C   0  0  0  0  0  0  0  0  0  0  0  0
   -4.3115    5.5483  -21.8698 C   0  0  0  0  0  0  0  0  0  0  0  0
   -3.2165    6.0359  -22.5291 C   0  0  0  0  0  0  0  0  0  0  0  0
   -2.0270    6.2325  -21.9342 N   0  0  0  0  0  0  0  0  0  0  0  0
   -1.8627    5.9098  -20.6364 C   0  0  0  0  0  0  0  0  0  0  0  0
   -0.6220    6.1714  -20.0273 C   0  0  0  0  0  0  0  0  0  0  0  0
    0.4919    6.7598  -20.8643 C   0  0  0  0  0  0  0  0  0  0  0  0
  1  2  1  0
  2  3  2  0
  3  4  1  0
  4  5  2  0
  5  6  1  0
  6  7  1  0
  7  8  2  0
  7  9  1  0
  9 10  1  0
 10 11  2  0
 11 12  1  0
 12 13  1  0
 13 14  1  0
 13 15  1  0
 13 16  1  0
 12 17  2  0
 17 18  1  0
 18 19  2  0
 19 20  1  0
 20 21  2  0
 21 22  1  0
 22 23  2  0
  6 24  2  0
 24 25  1  0
 25 26  2  0
 26 27  1  0
 27 28  2  0
 28 29  1  0
 28  2  1  0
 27  5  1  0
 23 10  1  0
 23 18  1  0
M  END
>  <energy_score>  (863) 
-18.037286

>  <alias>  (863) 
None

>  <HIPPO Pose ID>  (863) 
70297

>  <smiles>  (863) 
Cc1ccc2c(C(=O)Nc3cc(C(C)(C)C)cc4cccnc34)ccnc2c1C

>  <inchikey>  (863) 
LARJHLHFROXMMG-UHFFFAOYSA-N

>  <distance_score>  (863) 
1.24125

>  <ref_mols>  (863) 
Z0917a,Z0852a

>  <ref_pdb>  (863) 
Z0852a

>  <HIPPO Compound ID>  (863) 
142226

>  <name>  (863) 
P70297

>  <inspiration_score>  (863) 
None

$$$$
P70298
     RDKit          3D

 29 32  0  0  0  0  0  0  0  0999 V2000
   -5.2427    6.0318  -22.5503 C   0  0  0  0  0  0  0  0  0  0  0  0
   -4.0402    5.8072  -21.6815 C   0  0  0  0  0  0  0  0  0  0  0  0
   -4.0443    5.2986  -20.4257 C   0  0  0  0  0  0  0  0  0  0  0  0
   -5.3501    4.7410  -19.9162 C   0  0  0  0  0  0  0  0  0  0  0  0
   -5.9582    3.9679  -20.5518 O   0  0  0  0  0  0  0  0  0  0  0  0
   -5.6379    5.3374  -18.5034 N   0  0  0  0  0  0  0  0  0  0  0  0
   -6.6489    5.0403  -17.5792 C   0  0  0  0  0  0  0  0  0  0  0  0
   -6.3987    5.3082  -16.2226 C   0  0  0  0  0  0  0  0  0  0  0  0
   -7.3688    5.0703  -15.2244 C   0  0  0  0  0  0  0  0  0  0  0  0
   -7.1721    5.5191  -13.7778 C   0  0  0  0  0  0  0  0  0  0  0  0
   -8.4048    5.3236  -12.8640 C   0  0  0  0  0  0  0  0  0  0  0  0
   -6.0003    4.7625  -13.1464 C   0  0  0  0  0  0  0  0  0  0  0  0
   -6.8783    7.0215  -13.7983 C   0  0  0  0  0  0  0  0  0  0  0  0
   -8.5706    4.5100  -15.6210 C   0  0  0  0  0  0  0  0  0  0  0  0
   -8.8526    4.3745  -16.9664 C   0  0  0  0  0  0  0  0  0  0  0  0
  -10.1626    4.1639  -17.3134 C   0  0  0  0  0  0  0  0  0  0  0  0
  -10.5715    4.4070  -18.5857 C   0  0  0  0  0  0  0  0  0  0  0  0
   -9.5906    4.5527  -19.5238 C   0  0  0  0  0  0  0  0  0  0  0  0
   -8.2816    4.5834  -19.2456 N   0  0  0  0  0  0  0  0  0  0  0  0
   -7.9093    4.6107  -17.9695 C   0  0  0  0  0  0  0  0  0  0  0  0
   -2.8107    5.3393  -19.6032 C   0  0  0  0  0  0  0  0  0  0  0  0
   -2.7427    4.9417  -18.2619 C   0  0  0  0  0  0  0  0  0  0  0  0
   -1.6356    5.2731  -17.4766 C   0  0  0  0  0  0  0  0  0  0  0  0
   -0.5104    5.8549  -18.0515 C   0  0  0  0  0  0  0  0  0  0  0  0
   -0.5031    6.1263  -19.4131 C   0  0  0  0  0  0  0  0  0  0  0  0
   -1.6560    5.8935  -20.1672 C   0  0  0  0  0  0  0  0  0  0  0  0
   -1.6543    6.2652  -21.5073 N   0  0  0  0  0  0  0  0  0  0  0  0
   -2.7572    6.2498  -22.3016 C   0  0  0  0  0  0  0  0  0  0  0  0
   -2.6844    6.6336  -23.4659 O   0  0  0  0  0  0  0  0  0  0  0  0
  1  2  1  0
  2  3  2  0
  3  4  1  0
  4  5  2  0
  4  6  1  0
  6  7  1  0
  7  8  2  0
  8  9  1  0
  9 10  1  0
 10 11  1  0
 10 12  1  0
 10 13  1  0
  9 14  2  0
 14 15  1  0
 15 16  2  0
 16 17  1  0
 17 18  2  0
 18 19  1  0
 19 20  2  0
  3 21  1  0
 21 22  2  0
 22 23  1  0
 23 24  2  0
 24 25  1  0
 25 26  2  0
 26 27  1  0
 27 28  1  0
 28 29  2  0
 28  2  1  0
 20  7  1  0
 26 21  1  0
 20 15  1  0
M  END
>  <energy_score>  (864) 
-25.938752

>  <alias>  (864) 
None

>  <HIPPO Pose ID>  (864) 
70298

>  <smiles>  (864) 
Cc1c(C(=O)Nc2cc(C(C)(C)C)cc3cccnc23)c2ccccc2[nH]c1=O

>  <inchikey>  (864) 
PJBIWVGGGWUFSH-UHFFFAOYSA-N

>  <distance_score>  (864) 
1.233715

>  <ref_mols>  (864) 
Z0917a,Z0852a

>  <ref_pdb>  (864) 
Z0852a

>  <HIPPO Compound ID>  (864) 
142227

>  <name>  (864) 
P70298

>  <inspiration_score>  (864) 
None

$$$$
P70299
     RDKit          3D

 29 32  0  0  0  0  0  0  0  0999 V2000
   -4.3398    5.9617  -12.7260 C   0  0  0  0  0  0  0  0  0  0  0  0
   -4.9551    5.7620  -13.9995 O   0  0  0  0  0  0  0  0  0  0  0  0
   -6.2885    5.5181  -13.9299 C   0  0  0  0  0  0  0  0  0  0  0  0
   -6.9564    5.4762  -12.9098 O   0  0  0  0  0  0  0  0  0  0  0  0
   -6.8464    5.3012  -15.2876 C   0  0  0  0  0  0  0  0  0  0  0  0
   -6.1621    5.6667  -16.4468 C   0  0  0  0  0  0  0  0  0  0  0  0
   -6.7118    5.4096  -17.7155 C   0  0  0  0  0  0  0  0  0  0  0  0
   -5.8313    5.5369  -18.7773 N   0  0  0  0  0  0  0  0  0  0  0  0
   -5.7691    4.7719  -20.1448 C   0  0  0  0  0  0  0  0  0  0  0  0
   -6.4985    3.9786  -20.6048 O   0  0  0  0  0  0  0  0  0  0  0  0
   -4.5007    5.1400  -20.8011 C   0  0  0  0  0  0  0  0  0  0  0  0
   -4.4245    5.6821  -22.0713 C   0  0  0  0  0  0  0  0  0  0  0  0
   -5.5212    5.8562  -22.8514 O   0  0  0  0  0  0  0  0  0  0  0  0
   -3.1779    6.0981  -22.4819 C   0  0  0  0  0  0  0  0  0  0  0  0
   -2.0885    6.0998  -21.6844 N   0  0  0  0  0  0  0  0  0  0  0  0
   -2.1947    5.6009  -20.4304 C   0  0  0  0  0  0  0  0  0  0  0  0
   -1.1826    5.7421  -19.4919 C   0  0  0  0  0  0  0  0  0  0  0  0
   -0.0779    6.3874  -19.8367 F   0  0  0  0  0  0  0  0  0  0  0  0
   -1.2617    5.3453  -18.1609 C   0  0  0  0  0  0  0  0  0  0  0  0
   -2.3720    4.6592  -17.7388 C   0  0  0  0  0  0  0  0  0  0  0  0
   -3.3725    4.4251  -18.6600 C   0  0  0  0  0  0  0  0  0  0  0  0
   -3.3580    5.0112  -19.9656 C   0  0  0  0  0  0  0  0  0  0  0  0
   -7.9845    4.9186  -17.8473 C   0  0  0  0  0  0  0  0  0  0  0  0
   -8.5725    4.9175  -19.0352 N   0  0  0  0  0  0  0  0  0  0  0  0
   -9.8661    4.6227  -19.1164 C   0  0  0  0  0  0  0  0  0  0  0  0
  -10.5940    4.1827  -18.0448 C   0  0  0  0  0  0  0  0  0  0  0  0
   -9.9462    4.1016  -16.8277 C   0  0  0  0  0  0  0  0  0  0  0  0
   -8.6602    4.5603  -16.6829 C   0  0  0  0  0  0  0  0  0  0  0  0
   -8.0976    4.7098  -15.4103 C   0  0  0  0  0  0  0  0  0  0  0  0
  1  2  1  0
  2  3  1  0
  3  4  2  0
  3  5  1  0
  5  6  2  0
  6  7  1  0
  7  8  1  0
  8  9  1  0
  9 10  2  0
  9 11  1  0
 11 12  2  0
 12 13  1  0
 12 14  1  0
 14 15  2  0
 15 16  1  0
 16 17  2  0
 17 18  1  0
 17 19  1  0
 19 20  2  0
 20 21  1  0
 21 22  2  0
  7 23  2  0
 23 24  1  0
 24 25  2  0
 25 26  1  0
 26 27  2  0
 27 28  1  0
 28 29  2  0
 29  5  1  0
 22 11  1  0
 28 23  1  0
 22 16  1  0
M  END
>  <energy_score>  (865) 
-2.155797

>  <alias>  (865) 
None

>  <HIPPO Pose ID>  (865) 
70299

>  <smiles>  (865) 
COC(=O)c1cc(NC(=O)c2c(O)cnc3c(F)cccc23)c2ncccc2c1

>  <inchikey>  (865) 
PXEKSXGNDQJBCV-UHFFFAOYSA-N

>  <distance_score>  (865) 
1.844561

>  <ref_mols>  (865) 
Z0917a,Z0852a

>  <ref_pdb>  (865) 
Z0852a

>  <HIPPO Compound ID>  (865) 
142228

>  <name>  (865) 
P70299

>  <inspiration_score>  (865) 
None

$$$$
P70300
     RDKit          3D

 29 32  0  0  0  0  0  0  0  0999 V2000
   -6.5153    5.0682  -11.4842 C   0  0  0  0  0  0  0  0  0  0  0  0
   -6.9896    4.9423  -12.8249 O   0  0  0  0  0  0  0  0  0  0  0  0
   -6.0209    5.0305  -13.7688 C   0  0  0  0  0  0  0  0  0  0  0  0
   -4.8305    5.2058  -13.5609 O   0  0  0  0  0  0  0  0  0  0  0  0
   -6.6050    4.9143  -15.1292 C   0  0  0  0  0  0  0  0  0  0  0  0
   -5.8038    5.2254  -16.2287 C   0  0  0  0  0  0  0  0  0  0  0  0
   -6.2866    5.0764  -17.5380 C   0  0  0  0  0  0  0  0  0  0  0  0
   -5.3680    5.3349  -18.5572 N   0  0  0  0  0  0  0  0  0  0  0  0
   -5.2568    4.7430  -19.9883 C   0  0  0  0  0  0  0  0  0  0  0  0
   -5.9619    4.0058  -20.5609 O   0  0  0  0  0  0  0  0  0  0  0  0
   -4.0335    5.2249  -20.6838 C   0  0  0  0  0  0  0  0  0  0  0  0
   -4.2174    5.5624  -22.0258 C   0  0  0  0  0  0  0  0  0  0  0  0
   -3.1413    6.0510  -22.7355 C   0  0  0  0  0  0  0  0  0  0  0  0
   -3.2807    6.4068  -24.1845 C   0  0  0  0  0  0  0  0  0  0  0  0
   -1.9331    6.2418  -22.1669 N   0  0  0  0  0  0  0  0  0  0  0  0
   -1.7630    5.9303  -20.8671 C   0  0  0  0  0  0  0  0  0  0  0  0
   -0.5289    6.2319  -20.2978 C   0  0  0  0  0  0  0  0  0  0  0  0
    0.4474    6.8090  -21.0767 O   0  0  0  0  0  0  0  0  0  0  0  0
   -0.2425    6.0129  -18.9598 C   0  0  0  0  0  0  0  0  0  0  0  0
   -1.2069    5.4164  -18.1650 C   0  0  0  0  0  0  0  0  0  0  0  0
   -2.4307    5.0354  -18.7192 C   0  0  0  0  0  0  0  0  0  0  0  0
   -2.7678    5.3703  -20.0607 C   0  0  0  0  0  0  0  0  0  0  0  0
   -7.6112    4.7115  -17.7741 C   0  0  0  0  0  0  0  0  0  0  0  0
   -8.1454    4.7259  -18.9993 N   0  0  0  0  0  0  0  0  0  0  0  0
   -9.4617    4.5136  -19.1500 C   0  0  0  0  0  0  0  0  0  0  0  0
  -10.3026    4.2179  -18.1092 C   0  0  0  0  0  0  0  0  0  0  0  0
   -9.7407    4.1333  -16.8539 C   0  0  0  0  0  0  0  0  0  0  0  0
   -8.4083    4.4342  -16.6537 C   0  0  0  0  0  0  0  0  0  0  0  0
   -7.9131    4.4974  -15.3478 C   0  0  0  0  0  0  0  0  0  0  0  0
  1  2  1  0
  2  3  1  0
  3  4  2  0
  3  5  1  0
  5  6  2  0
  6  7  1  0
  7  8  1  0
  8  9  1  0
  9 10  2  0
  9 11  1  0
 11 12  2  0
 12 13  1  0
 13 14  1  0
 13 15  2  0
 15 16  1  0
 16 17  2  0
 17 18  1  0
 17 19  1  0
 19 20  2  0
 20 21  1  0
 21 22  2  0
  7 23  2  0
 23 24  1  0
 24 25  2  0
 25 26  1  0
 26 27  2  0
 27 28  1  0
 28 29  2  0
 29  5  1  0
 22 11  1  0
 28 23  1  0
 22 16  1  0
M  END
>  <energy_score>  (866) 
-21.495514

>  <alias>  (866) 
None

>  <HIPPO Pose ID>  (866) 
70300

>  <smiles>  (866) 
COC(=O)c1cc(NC(=O)c2cc(C)nc3c(O)cccc23)c2ncccc2c1

>  <inchikey>  (866) 
FYKHUKBFVVDBJB-UHFFFAOYSA-N

>  <distance_score>  (866) 
1.499652

>  <ref_mols>  (866) 
Z0917a,Z0852a

>  <ref_pdb>  (866) 
Z0852a

>  <HIPPO Compound ID>  (866) 
142229

>  <name>  (866) 
P70300

>  <inspiration_score>  (866) 
None

$$$$
P70301
     RDKit          3D

 29 32  0  0  0  0  0  0  0  0999 V2000
   -4.1070    5.8897  -22.8954 C   0  0  0  0  0  0  0  0  0  0  0  0
   -3.3581    5.5759  -21.6401 C   0  0  0  0  0  0  0  0  0  0  0  0
   -4.0022    5.0688  -20.5227 C   0  0  0  0  0  0  0  0  0  0  0  0
   -3.3320    5.0624  -19.2833 C   0  0  0  0  0  0  0  0  0  0  0  0
   -4.0485    4.6876  -17.9793 C   0  0  0  0  0  0  0  0  0  0  0  0
   -3.4119    4.3488  -17.0659 O   0  0  0  0  0  0  0  0  0  0  0  0
   -5.5583    4.9361  -18.1023 N   0  0  0  0  0  0  0  0  0  0  0  0
   -6.5809    4.7375  -17.1893 C   0  0  0  0  0  0  0  0  0  0  0  0
   -6.4101    4.9466  -15.8205 C   0  0  0  0  0  0  0  0  0  0  0  0
   -7.5429    5.0581  -15.0034 C   0  0  0  0  0  0  0  0  0  0  0  0
   -7.4716    5.5439  -13.5826 C   0  0  0  0  0  0  0  0  0  0  0  0
   -6.4034    5.0765  -12.8922 F   0  0  0  0  0  0  0  0  0  0  0  0
   -8.5784    5.2229  -12.8535 F   0  0  0  0  0  0  0  0  0  0  0  0
   -7.3972    6.9066  -13.5284 F   0  0  0  0  0  0  0  0  0  0  0  0
   -8.8062    4.8931  -15.5682 C   0  0  0  0  0  0  0  0  0  0  0  0
   -8.9446    4.6637  -16.9300 C   0  0  0  0  0  0  0  0  0  0  0  0
  -10.1857    4.7202  -17.5261 C   0  0  0  0  0  0  0  0  0  0  0  0
  -10.2964    4.6285  -18.8800 C   0  0  0  0  0  0  0  0  0  0  0  0
   -9.1700    4.3490  -19.6005 C   0  0  0  0  0  0  0  0  0  0  0  0
   -7.9372    4.3201  -19.0822 N   0  0  0  0  0  0  0  0  0  0  0  0
   -7.8310    4.5385  -17.7597 C   0  0  0  0  0  0  0  0  0  0  0  0
   -1.9774    5.4992  -19.2417 C   0  0  0  0  0  0  0  0  0  0  0  0
   -1.1637    5.6281  -18.0831 C   0  0  0  0  0  0  0  0  0  0  0  0
    0.1685    6.0567  -18.1434 C   0  0  0  0  0  0  0  0  0  0  0  0
    0.7284    6.3867  -19.3634 C   0  0  0  0  0  0  0  0  0  0  0  0
   -0.0654    6.3003  -20.4956 C   0  0  0  0  0  0  0  0  0  0  0  0
    0.4928    6.6762  -21.6973 O   0  0  0  0  0  0  0  0  0  0  0  0
   -1.3949    5.8808  -20.4659 C   0  0  0  0  0  0  0  0  0  0  0  0
   -2.0649    5.9353  -21.6276 N   0  0  0  0  0  0  0  0  0  0  0  0
  1  2  1  0
  2  3  2  0
  3  4  1  0
  4  5  1  0
  5  6  2  0
  5  7  1  0
  7  8  1  0
  8  9  2  0
  9 10  1  0
 10 11  1  0
 11 12  1  0
 11 13  1  0
 11 14  1  0
 10 15  2  0
 15 16  1  0
 16 17  2  0
 17 18  1  0
 18 19  2  0
 19 20  1  0
 20 21  2  0
  4 22  2  0
 22 23  1  0
 23 24  2  0
 24 25  1  0
 25 26  2  0
 26 27  1  0
 26 28  1  0
 28 29  2  0
 29  2  1  0
 21  8  1  0
 28 22  1  0
 21 16  1  0
M  END
>  <energy_score>  (867) 
-24.437192

>  <alias>  (867) 
None

>  <HIPPO Pose ID>  (867) 
70301

>  <smiles>  (867) 
Cc1cc(C(=O)Nc2cc(C(F)(F)F)cc3cccnc23)c2cccc(O)c2n1

>  <inchikey>  (867) 
QKYBSYYQIRKTKN-UHFFFAOYSA-N

>  <distance_score>  (867) 
1.830897

>  <ref_mols>  (867) 
Z0917a,Z0852a

>  <ref_pdb>  (867) 
Z0852a

>  <HIPPO Compound ID>  (867) 
142230

>  <name>  (867) 
P70301

>  <inspiration_score>  (867) 
None

$$$$
P70302
     RDKit          3D

 29 32  0  0  0  0  0  0  0  0999 V2000
   -3.2257    6.4254  -23.9576 C   0  0  0  0  0  0  0  0  0  0  0  0
   -3.1455    6.0704  -22.5042 C   0  0  0  0  0  0  0  0  0  0  0  0
   -4.2383    5.5436  -21.8496 C   0  0  0  0  0  0  0  0  0  0  0  0
   -4.1133    5.1991  -20.4999 C   0  0  0  0  0  0  0  0  0  0  0  0
   -5.3522    4.6480  -19.8880 C   0  0  0  0  0  0  0  0  0  0  0  0
   -5.9630    3.8827  -20.5310 O   0  0  0  0  0  0  0  0  0  0  0  0
   -5.5850    5.1581  -18.4360 N   0  0  0  0  0  0  0  0  0  0  0  0
   -6.6347    4.9111  -17.5429 C   0  0  0  0  0  0  0  0  0  0  0  0
   -6.3936    5.1632  -16.1815 C   0  0  0  0  0  0  0  0  0  0  0  0
   -7.3930    4.9890  -15.2023 C   0  0  0  0  0  0  0  0  0  0  0  0
   -7.2011    5.4603  -13.7628 C   0  0  0  0  0  0  0  0  0  0  0  0
   -8.4413    5.2930  -12.8558 C   0  0  0  0  0  0  0  0  0  0  0  0
   -6.0408    4.7081  -13.1048 C   0  0  0  0  0  0  0  0  0  0  0  0
   -6.8937    6.9600  -13.8144 C   0  0  0  0  0  0  0  0  0  0  0  0
   -8.6140    4.4882  -15.6196 C   0  0  0  0  0  0  0  0  0  0  0  0
   -8.8789    4.3577  -16.9704 C   0  0  0  0  0  0  0  0  0  0  0  0
  -10.1889    4.1864  -17.3410 C   0  0  0  0  0  0  0  0  0  0  0  0
  -10.5693    4.4376  -18.6196 C   0  0  0  0  0  0  0  0  0  0  0  0
   -9.5694    4.5470  -19.5409 C   0  0  0  0  0  0  0  0  0  0  0  0
   -8.2649    4.5421  -19.2412 N   0  0  0  0  0  0  0  0  0  0  0  0
   -7.9103    4.5544  -17.9584 C   0  0  0  0  0  0  0  0  0  0  0  0
   -2.8833    5.3723  -19.8192 C   0  0  0  0  0  0  0  0  0  0  0  0
   -2.5937    5.0138  -18.4732 C   0  0  0  0  0  0  0  0  0  0  0  0
   -1.4097    5.4200  -17.8550 C   0  0  0  0  0  0  0  0  0  0  0  0
   -0.4322    6.0674  -18.5922 C   0  0  0  0  0  0  0  0  0  0  0  0
   -0.6642    6.3045  -19.9382 C   0  0  0  0  0  0  0  0  0  0  0  0
    0.3310    6.9207  -20.6613 O   0  0  0  0  0  0  0  0  0  0  0  0
   -1.8602    5.9765  -20.5707 C   0  0  0  0  0  0  0  0  0  0  0  0
   -1.9751    6.2986  -21.8746 N   0  0  0  0  0  0  0  0  0  0  0  0
  1  2  1  0
  2  3  2  0
  3  4  1  0
  4  5  1  0
  5  6  2  0
  5  7  1  0
  7  8  1  0
  8  9  2  0
  9 10  1  0
 10 11  1  0
 11 12  1  0
 11 13  1  0
 11 14  1  0
 10 15  2  0
 15 16  1  0
 16 17  2  0
 17 18  1  0
 18 19  2  0
 19 20  1  0
 20 21  2  0
  4 22  2  0
 22 23  1  0
 23 24  2  0
 24 25  1  0
 25 26  2  0
 26 27  1  0
 26 28  1  0
 28 29  2  0
 29  2  1  0
 21  8  1  0
 28 22  1  0
 21 16  1  0
M  END
>  <energy_score>  (868) 
-15.7897

>  <alias>  (868) 
None

>  <HIPPO Pose ID>  (868) 
70302

>  <smiles>  (868) 
Cc1cc(C(=O)Nc2cc(C(C)(C)C)cc3cccnc23)c2cccc(O)c2n1

>  <inchikey>  (868) 
SSBOKOOMABKXOS-UHFFFAOYSA-N

>  <distance_score>  (868) 
1.36191

>  <ref_mols>  (868) 
Z0917a,Z0852a

>  <ref_pdb>  (868) 
Z0852a

>  <HIPPO Compound ID>  (868) 
142231

>  <name>  (868) 
P70302

>  <inspiration_score>  (868) 
None

$$$$
P70303
     RDKit          3D

 29 32  0  0  0  0  0  0  0  0999 V2000
   -6.0709    3.9381  -20.4263 O   0  0  0  0  0  0  0  0  0  0  0  0
   -5.4033    4.6805  -19.8122 C   0  0  0  0  0  0  0  0  0  0  0  0
   -5.6343    5.3250  -18.4080 N   0  0  0  0  0  0  0  0  0  0  0  0
   -6.6541    5.1176  -17.4682 C   0  0  0  0  0  0  0  0  0  0  0  0
   -6.4260    5.4598  -16.1231 C   0  0  0  0  0  0  0  0  0  0  0  0
   -7.4187    5.2423  -15.1481 C   0  0  0  0  0  0  0  0  0  0  0  0
   -7.3073    5.7481  -13.7356 C   0  0  0  0  0  0  0  0  0  0  0  0
   -6.2229    5.2677  -13.0785 F   0  0  0  0  0  0  0  0  0  0  0  0
   -7.2097    7.1080  -13.6956 F   0  0  0  0  0  0  0  0  0  0  0  0
   -8.3914    5.4487  -12.9626 F   0  0  0  0  0  0  0  0  0  0  0  0
   -8.6050    4.6325  -15.5245 C   0  0  0  0  0  0  0  0  0  0  0  0
   -8.8638    4.4375  -16.8670 C   0  0  0  0  0  0  0  0  0  0  0  0
  -10.1549    4.1581  -17.2336 C   0  0  0  0  0  0  0  0  0  0  0  0
  -10.5594    4.3581  -18.5171 C   0  0  0  0  0  0  0  0  0  0  0  0
   -9.5777    4.5465  -19.4451 C   0  0  0  0  0  0  0  0  0  0  0  0
   -8.2778    4.6363  -19.1410 N   0  0  0  0  0  0  0  0  0  0  0  0
   -7.9149    4.6772  -17.8616 C   0  0  0  0  0  0  0  0  0  0  0  0
   -4.1113    5.1627  -20.3914 C   0  0  0  0  0  0  0  0  0  0  0  0
   -4.2014    5.4007  -21.7117 C   0  0  0  0  0  0  0  0  0  0  0  0
   -3.0351    5.8099  -22.5091 C   0  0  0  0  0  0  0  0  0  0  0  0
   -3.1330    6.0103  -23.7145 O   0  0  0  0  0  0  0  0  0  0  0  0
   -1.8662    5.9831  -21.8294 N   0  0  0  0  0  0  0  0  0  0  0  0
   -1.7271    5.7811  -20.4518 C   0  0  0  0  0  0  0  0  0  0  0  0
   -0.4929    6.0531  -19.8611 C   0  0  0  0  0  0  0  0  0  0  0  0
   -0.3577    5.8947  -18.4925 C   0  0  0  0  0  0  0  0  0  0  0  0
    0.8074    6.1883  -17.9014 F   0  0  0  0  0  0  0  0  0  0  0  0
   -1.4115    5.4169  -17.7251 C   0  0  0  0  0  0  0  0  0  0  0  0
   -2.6203    5.0689  -18.3337 C   0  0  0  0  0  0  0  0  0  0  0  0
   -2.8240    5.3245  -19.6957 C   0  0  0  0  0  0  0  0  0  0  0  0
  1  2  2  0
  2  3  1  0
  3  4  1  0
  4  5  2  0
  5  6  1  0
  6  7  1  0
  7  8  1  0
  7  9  1  0
  7 10  1  0
  6 11  2  0
 11 12  1  0
 12 13  2  0
 13 14  1  0
 14 15  2  0
 15 16  1  0
 16 17  2  0
  2 18  1  0
 18 19  2  0
 19 20  1  0
 20 21  2  0
 20 22  1  0
 22 23  1  0
 23 24  2  0
 24 25  1  0
 25 26  1  0
 25 27  2  0
 27 28  1  0
 28 29  2  0
 17  4  1  0
 29 18  1  0
 17 12  1  0
 29 23  1  0
M  END
>  <energy_score>  (869) 
-4.095283

>  <alias>  (869) 
None

>  <HIPPO Pose ID>  (869) 
70303

>  <smiles>  (869) 
O=C(Nc1cc(C(F)(F)F)cc2cccnc12)c1cc(=O)[nH]c2cc(F)ccc12

>  <inchikey>  (869) 
NUBXVFNBJBOLML-UHFFFAOYSA-N

>  <distance_score>  (869) 
1.028242

>  <ref_mols>  (869) 
Z0917a,Z0852a

>  <ref_pdb>  (869) 
Z0852a

>  <HIPPO Compound ID>  (869) 
142232

>  <name>  (869) 
P70303

>  <inspiration_score>  (869) 
None

$$$$
P70304
     RDKit          3D

 29 32  0  0  0  0  0  0  0  0999 V2000
   -7.5272    5.2920  -11.6824 C   0  0  0  0  0  0  0  0  0  0  0  0
   -7.8889    5.1700  -13.0585 O   0  0  0  0  0  0  0  0  0  0  0  0
   -6.8417    5.2292  -13.9169 C   0  0  0  0  0  0  0  0  0  0  0  0
   -5.6764    5.4413  -13.6195 O   0  0  0  0  0  0  0  0  0  0  0  0
   -7.2979    5.0102  -15.3129 C   0  0  0  0  0  0  0  0  0  0  0  0
   -6.3600    5.0625  -16.3441 C   0  0  0  0  0  0  0  0  0  0  0  0
   -6.7363    4.8096  -17.6754 C   0  0  0  0  0  0  0  0  0  0  0  0
   -5.7673    5.0346  -18.6446 N   0  0  0  0  0  0  0  0  0  0  0  0
   -5.6302    4.4626  -20.1005 C   0  0  0  0  0  0  0  0  0  0  0  0
   -6.3553    3.7799  -20.7205 O   0  0  0  0  0  0  0  0  0  0  0  0
   -4.2905    4.8630  -20.5877 C   0  0  0  0  0  0  0  0  0  0  0  0
   -4.2284    5.2831  -21.8581 C   0  0  0  0  0  0  0  0  0  0  0  0
   -2.9679    5.8189  -22.4073 C   0  0  0  0  0  0  0  0  0  0  0  0
   -2.8802    6.1326  -23.5886 O   0  0  0  0  0  0  0  0  0  0  0  0
   -1.9550    6.0115  -21.5095 N   0  0  0  0  0  0  0  0  0  0  0  0
   -2.0292    5.6183  -20.1665 C   0  0  0  0  0  0  0  0  0  0  0  0
   -1.0439    5.9599  -19.2625 C   0  0  0  0  0  0  0  0  0  0  0  0
   -0.0280    6.6962  -19.6796 F   0  0  0  0  0  0  0  0  0  0  0  0
   -1.1103    5.6457  -17.9133 C   0  0  0  0  0  0  0  0  0  0  0  0
   -2.1582    4.8657  -17.4685 C   0  0  0  0  0  0  0  0  0  0  0  0
   -3.1052    4.4261  -18.3848 C   0  0  0  0  0  0  0  0  0  0  0  0
   -3.1195    4.9160  -19.7054 C   0  0  0  0  0  0  0  0  0  0  0  0
   -8.0342    4.5089  -17.9984 C   0  0  0  0  0  0  0  0  0  0  0  0
   -8.3706    4.3197  -19.2640 N   0  0  0  0  0  0  0  0  0  0  0  0
   -9.6391    4.4580  -19.6163 C   0  0  0  0  0  0  0  0  0  0  0  0
  -10.6350    4.7119  -18.7291 C   0  0  0  0  0  0  0  0  0  0  0  0
  -10.2835    4.7889  -17.4147 C   0  0  0  0  0  0  0  0  0  0  0  0
   -8.9816    4.6453  -16.9904 C   0  0  0  0  0  0  0  0  0  0  0  0
   -8.6324    4.8264  -15.6468 C   0  0  0  0  0  0  0  0  0  0  0  0
  1  2  1  0
  2  3  1  0
  3  4  2  0
  3  5  1  0
  5  6  2  0
  6  7  1  0
  7  8  1  0
  8  9  1  0
  9 10  2  0
  9 11  1  0
 11 12  2  0
 12 13  1  0
 13 14  2  0
 13 15  1  0
 15 16  1  0
 16 17  2  0
 17 18  1  0
 17 19  1  0
 19 20  2  0
 20 21  1  0
 21 22  2  0
  7 23  2  0
 23 24  1  0
 24 25  2  0
 25 26  1  0
 26 27  2  0
 27 28  1  0
 28 29  2  0
 29  5  1  0
 22 11  1  0
 28 23  1  0
 22 16  1  0
M  END
>  <energy_score>  (870) 
-2.567536

>  <alias>  (870) 
None

>  <HIPPO Pose ID>  (870) 
70304

>  <smiles>  (870) 
COC(=O)c1cc(NC(=O)c2cc(=O)[nH]c3c(F)cccc23)c2ncccc2c1

>  <inchikey>  (870) 
XZFPVOHSXXFFNT-UHFFFAOYSA-N

>  <distance_score>  (870) 
1.540199

>  <ref_mols>  (870) 
Z0917a,Z0852a

>  <ref_pdb>  (870) 
Z0852a

>  <HIPPO Compound ID>  (870) 
142233

>  <name>  (870) 
P70304

>  <inspiration_score>  (870) 
None

$$$$
P70305
     RDKit          3D

 29 32  0  0  0  0  0  0  0  0999 V2000
   -8.5109    5.2932  -12.8921 C   0  0  0  0  0  0  0  0  0  0  0  0
   -7.3087    5.4116  -13.8518 C   0  0  0  0  0  0  0  0  0  0  0  0
   -6.9014    6.8892  -13.8608 C   0  0  0  0  0  0  0  0  0  0  0  0
   -6.1672    4.5636  -13.2830 C   0  0  0  0  0  0  0  0  0  0  0  0
   -7.6074    4.9980  -15.2914 C   0  0  0  0  0  0  0  0  0  0  0  0
   -6.6842    5.2265  -16.3260 C   0  0  0  0  0  0  0  0  0  0  0  0
   -7.0270    5.0110  -17.6676 C   0  0  0  0  0  0  0  0  0  0  0  0
   -6.0550    5.2053  -18.6330 N   0  0  0  0  0  0  0  0  0  0  0  0
   -5.8758    4.5444  -20.0438 C   0  0  0  0  0  0  0  0  0  0  0  0
   -6.5668    3.7971  -20.6262 O   0  0  0  0  0  0  0  0  0  0  0  0
   -4.5464    4.9534  -20.5444 C   0  0  0  0  0  0  0  0  0  0  0  0
   -4.4714    5.3580  -21.8186 C   0  0  0  0  0  0  0  0  0  0  0  0
   -3.1872    5.8280  -22.3771 C   0  0  0  0  0  0  0  0  0  0  0  0
   -3.0945    6.1413  -23.5584 O   0  0  0  0  0  0  0  0  0  0  0  0
   -2.1495    5.9471  -21.4941 N   0  0  0  0  0  0  0  0  0  0  0  0
   -2.2309    5.5585  -20.1501 C   0  0  0  0  0  0  0  0  0  0  0  0
   -1.1986    5.8036  -19.2672 C   0  0  0  0  0  0  0  0  0  0  0  0
   -0.1209    6.4340  -19.7041 F   0  0  0  0  0  0  0  0  0  0  0  0
   -1.2649    5.4832  -17.9192 C   0  0  0  0  0  0  0  0  0  0  0  0
   -2.3630    4.7859  -17.4552 C   0  0  0  0  0  0  0  0  0  0  0  0
   -3.3727    4.4544  -18.3487 C   0  0  0  0  0  0  0  0  0  0  0  0
   -3.3686    4.9483  -19.6693 C   0  0  0  0  0  0  0  0  0  0  0  0
   -8.3004    4.6537  -18.0090 C   0  0  0  0  0  0  0  0  0  0  0  0
   -8.6863    4.7428  -19.2694 N   0  0  0  0  0  0  0  0  0  0  0  0
   -9.9847    4.7525  -19.5296 C   0  0  0  0  0  0  0  0  0  0  0  0
  -10.9330    4.4805  -18.5930 C   0  0  0  0  0  0  0  0  0  0  0  0
  -10.4952    4.1398  -17.3518 C   0  0  0  0  0  0  0  0  0  0  0  0
   -9.1932    4.3715  -16.9905 C   0  0  0  0  0  0  0  0  0  0  0  0
   -8.8392    4.4675  -15.6492 C   0  0  0  0  0  0  0  0  0  0  0  0
  1  2  1  0
  2  3  1  0
  2  4  1  0
  2  5  1  0
  5  6  2  0
  6  7  1  0
  7  8  1  0
  8  9  1  0
  9 10  2  0
  9 11  1  0
 11 12  2  0
 12 13  1  0
 13 14  2  0
 13 15  1  0
 15 16  1  0
 16 17  2  0
 17 18  1  0
 17 19  1  0
 19 20  2  0
 20 21  1  0
 21 22  2  0
  7 23  2  0
 23 24  1  0
 24 25  2  0
 25 26  1  0
 26 27  2  0
 27 28  1  0
 28 29  2  0
 29  5  1  0
 22 11  1  0
 28 23  1  0
 22 16  1  0
M  END
>  <energy_score>  (871) 
-15.843143

>  <alias>  (871) 
None

>  <HIPPO Pose ID>  (871) 
70305

>  <smiles>  (871) 
CC(C)(C)c1cc(NC(=O)c2cc(=O)[nH]c3c(F)cccc23)c2ncccc2c1

>  <inchikey>  (871) 
APZAAYDPLFYNOM-UHFFFAOYSA-N

>  <distance_score>  (871) 
1.453106

>  <ref_mols>  (871) 
Z0917a,Z0852a

>  <ref_pdb>  (871) 
Z0852a

>  <HIPPO Compound ID>  (871) 
142235

>  <name>  (871) 
P70305

>  <inspiration_score>  (871) 
None

$$$$
P70306
     RDKit          3D

 29 32  0  0  0  0  0  0  0  0999 V2000
    0.9084    6.2959  -17.7517 C   0  0  0  0  0  0  0  0  0  0  0  0
   -0.3830    5.9784  -18.4527 C   0  0  0  0  0  0  0  0  0  0  0  0
   -1.4332    5.4205  -17.7286 C   0  0  0  0  0  0  0  0  0  0  0  0
   -2.6199    5.0698  -18.3649 C   0  0  0  0  0  0  0  0  0  0  0  0
   -2.8456    5.3872  -19.7252 C   0  0  0  0  0  0  0  0  0  0  0  0
   -4.0811    5.2230  -20.3961 C   0  0  0  0  0  0  0  0  0  0  0  0
   -5.3282    4.7252  -19.7609 C   0  0  0  0  0  0  0  0  0  0  0  0
   -5.9658    3.9675  -20.3874 O   0  0  0  0  0  0  0  0  0  0  0  0
   -5.5990    5.3596  -18.3625 N   0  0  0  0  0  0  0  0  0  0  0  0
   -6.6291    5.1246  -17.4404 C   0  0  0  0  0  0  0  0  0  0  0  0
   -6.4192    5.4694  -16.0926 C   0  0  0  0  0  0  0  0  0  0  0  0
   -7.4201    5.2480  -15.1284 C   0  0  0  0  0  0  0  0  0  0  0  0
   -7.3217    5.7532  -13.7151 C   0  0  0  0  0  0  0  0  0  0  0  0
   -6.2415    5.2745  -13.0499 F   0  0  0  0  0  0  0  0  0  0  0  0
   -7.2266    7.1132  -13.6740 F   0  0  0  0  0  0  0  0  0  0  0  0
   -8.4114    5.4512  -12.9515 F   0  0  0  0  0  0  0  0  0  0  0  0
   -8.6006    4.6367  -15.5179 C   0  0  0  0  0  0  0  0  0  0  0  0
   -8.8427    4.4370  -16.8630 C   0  0  0  0  0  0  0  0  0  0  0  0
  -10.1319    4.1613  -17.2386 C   0  0  0  0  0  0  0  0  0  0  0  0
  -10.5214    4.3503  -18.5280 C   0  0  0  0  0  0  0  0  0  0  0  0
   -9.5290    4.5185  -19.4490 C   0  0  0  0  0  0  0  0  0  0  0  0
   -8.2312    4.6123  -19.1340 N   0  0  0  0  0  0  0  0  0  0  0  0
   -7.8818    4.6709  -17.8498 C   0  0  0  0  0  0  0  0  0  0  0  0
   -4.2036    5.5038  -21.7574 C   0  0  0  0  0  0  0  0  0  0  0  0
   -3.0947    5.9529  -22.4194 C   0  0  0  0  0  0  0  0  0  0  0  0
   -1.9199    6.1753  -21.8071 N   0  0  0  0  0  0  0  0  0  0  0  0
   -1.7791    5.9139  -20.4864 C   0  0  0  0  0  0  0  0  0  0  0  0
   -0.5634    6.1921  -19.8321 C   0  0  0  0  0  0  0  0  0  0  0  0
    0.7560    6.8677  -20.7544 Cl  0  0  0  0  0  0  0  0  0  0  0  0
  1  2  1  0
  2  3  2  0
  3  4  1  0
  4  5  2  0
  5  6  1  0
  6  7  1  0
  7  8  2  0
  7  9  1  0
  9 10  1  0
 10 11  2  0
 11 12  1  0
 12 13  1  0
 13 14  1  0
 13 15  1  0
 13 16  1  0
 12 17  2  0
 17 18  1  0
 18 19  2  0
 19 20  1  0
 20 21  2  0
 21 22  1  0
 22 23  2  0
  6 24  2  0
 24 25  1  0
 25 26  2  0
 26 27  1  0
 27 28  2  0
 28 29  1  0
 28  2  1  0
 27  5  1  0
 23 10  1  0
 23 18  1  0
M  END
>  <energy_score>  (872) 
-2.570296

>  <alias>  (872) 
None

>  <HIPPO Pose ID>  (872) 
70306

>  <smiles>  (872) 
Cc1ccc2c(C(=O)Nc3cc(C(F)(F)F)cc4cccnc34)ccnc2c1Cl

>  <inchikey>  (872) 
MEVRLTMZVHMJDE-UHFFFAOYSA-N

>  <distance_score>  (872) 
1.055946

>  <ref_mols>  (872) 
Z0917a,Z0852a

>  <ref_pdb>  (872) 
Z0852a

>  <HIPPO Compound ID>  (872) 
142236

>  <name>  (872) 
P70306

>  <inspiration_score>  (872) 
None

$$$$
P70307
     RDKit          3D

 29 32  0  0  0  0  0  0  0  0999 V2000
   -6.6794    5.2574  -11.4055 C   0  0  0  0  0  0  0  0  0  0  0  0
   -7.1170    5.0952  -12.7549 O   0  0  0  0  0  0  0  0  0  0  0  0
   -6.1626    5.3446  -13.6840 C   0  0  0  0  0  0  0  0  0  0  0  0
   -5.0202    5.7120  -13.4589 O   0  0  0  0  0  0  0  0  0  0  0  0
   -6.6994    5.1377  -15.0543 C   0  0  0  0  0  0  0  0  0  0  0  0
   -5.8893    5.4601  -16.1443 C   0  0  0  0  0  0  0  0  0  0  0  0
   -6.3300    5.2387  -17.4575 C   0  0  0  0  0  0  0  0  0  0  0  0
   -5.3935    5.4690  -18.4652 N   0  0  0  0  0  0  0  0  0  0  0  0
   -5.2248    4.8021  -19.8545 C   0  0  0  0  0  0  0  0  0  0  0  0
   -5.8901    4.0113  -20.4015 O   0  0  0  0  0  0  0  0  0  0  0  0
   -3.9711    5.2309  -20.5323 C   0  0  0  0  0  0  0  0  0  0  0  0
   -4.1059    5.4252  -21.9055 C   0  0  0  0  0  0  0  0  0  0  0  0
   -2.9945    5.8030  -22.6085 C   0  0  0  0  0  0  0  0  0  0  0  0
   -1.8052    6.0404  -22.0293 N   0  0  0  0  0  0  0  0  0  0  0  0
   -1.6619    5.8731  -20.7024 C   0  0  0  0  0  0  0  0  0  0  0  0
   -0.4289    6.2003  -20.1213 C   0  0  0  0  0  0  0  0  0  0  0  0
    0.7126    6.6646  -20.9898 C   0  0  0  0  0  0  0  0  0  0  0  0
   -0.2538    6.1672  -18.7309 C   0  0  0  0  0  0  0  0  0  0  0  0
   -1.2794    5.7080  -17.9246 C   0  0  0  0  0  0  0  0  0  0  0  0
   -1.1161    5.8099  -16.0415 Br  0  0  0  0  0  0  0  0  0  0  0  0
   -2.4603    5.2439  -18.4958 C   0  0  0  0  0  0  0  0  0  0  0  0
   -2.7204    5.4253  -19.8818 C   0  0  0  0  0  0  0  0  0  0  0  0
   -7.6274    4.7997  -17.7142 C   0  0  0  0  0  0  0  0  0  0  0  0
   -8.1318    4.7610  -18.9525 N   0  0  0  0  0  0  0  0  0  0  0  0
   -9.4324    4.4852  -19.1278 C   0  0  0  0  0  0  0  0  0  0  0  0
  -10.2799    4.1694  -18.0981 C   0  0  0  0  0  0  0  0  0  0  0  0
   -9.7416    4.1304  -16.8301 C   0  0  0  0  0  0  0  0  0  0  0  0
   -8.4328    4.5056  -16.6059 C   0  0  0  0  0  0  0  0  0  0  0  0
   -7.9728    4.6309  -15.2915 C   0  0  0  0  0  0  0  0  0  0  0  0
  1  2  1  0
  2  3  1  0
  3  4  2  0
  3  5  1  0
  5  6  2  0
  6  7  1  0
  7  8  1  0
  8  9  1  0
  9 10  2  0
  9 11  1  0
 11 12  2  0
 12 13  1  0
 13 14  2  0
 14 15  1  0
 15 16  2  0
 16 17  1  0
 16 18  1  0
 18 19  2  0
 19 20  1  0
 19 21  1  0
 21 22  2  0
  7 23  2  0
 23 24  1  0
 24 25  2  0
 25 26  1  0
 26 27  2  0
 27 28  1  0
 28 29  2  0
 29  5  1  0
 22 11  1  0
 28 23  1  0
 22 15  1  0
M  END
>  <energy_score>  (873) 
-10.909453

>  <alias>  (873) 
None

>  <HIPPO Pose ID>  (873) 
70307

>  <smiles>  (873) 
COC(=O)c1cc(NC(=O)c2ccnc3c(C)cc(Br)cc23)c2ncccc2c1

>  <inchikey>  (873) 
QOUGQQTVIGFKJO-UHFFFAOYSA-N

>  <distance_score>  (873) 
1.61553

>  <ref_mols>  (873) 
Z0917a,Z0852a

>  <ref_pdb>  (873) 
Z0852a

>  <HIPPO Compound ID>  (873) 
142238

>  <name>  (873) 
P70307

>  <inspiration_score>  (873) 
None

$$$$
P70308
     RDKit          3D

 29 32  0  0  0  0  0  0  0  0999 V2000
   -6.5219    4.8781  -11.4313 C   0  0  0  0  0  0  0  0  0  0  0  0
   -7.0070    4.8336  -12.7734 O   0  0  0  0  0  0  0  0  0  0  0  0
   -6.0889    5.1660  -13.7117 C   0  0  0  0  0  0  0  0  0  0  0  0
   -4.9460    5.5419  -13.5012 O   0  0  0  0  0  0  0  0  0  0  0  0
   -6.6623    5.0269  -15.0758 C   0  0  0  0  0  0  0  0  0  0  0  0
   -5.8668    5.3698  -16.1695 C   0  0  0  0  0  0  0  0  0  0  0  0
   -6.3306    5.1889  -17.4810 C   0  0  0  0  0  0  0  0  0  0  0  0
   -5.4017    5.4308  -18.4919 N   0  0  0  0  0  0  0  0  0  0  0  0
   -5.2466    4.7843  -19.8925 C   0  0  0  0  0  0  0  0  0  0  0  0
   -5.9192    4.0041  -20.4460 O   0  0  0  0  0  0  0  0  0  0  0  0
   -3.9933    5.2223  -20.5652 C   0  0  0  0  0  0  0  0  0  0  0  0
   -4.1279    5.4495  -21.9326 C   0  0  0  0  0  0  0  0  0  0  0  0
   -3.0169    5.8522  -22.6224 C   0  0  0  0  0  0  0  0  0  0  0  0
   -1.8310    6.0859  -22.0341 N   0  0  0  0  0  0  0  0  0  0  0  0
   -1.6908    5.8872  -20.7094 C   0  0  0  0  0  0  0  0  0  0  0  0
   -0.4680    6.2147  -20.1104 C   0  0  0  0  0  0  0  0  0  0  0  0
    0.6709    6.7219  -20.9575 C   0  0  0  0  0  0  0  0  0  0  0  0
   -0.2989    6.1368  -18.7201 C   0  0  0  0  0  0  0  0  0  0  0  0
   -1.3105    5.6272  -17.9157 C   0  0  0  0  0  0  0  0  0  0  0  0
   -1.1743    5.6407  -16.4204 C   0  0  0  0  0  0  0  0  0  0  0  0
   -2.4857    5.1817  -18.5254 C   0  0  0  0  0  0  0  0  0  0  0  0
   -2.7449    5.4061  -19.9068 C   0  0  0  0  0  0  0  0  0  0  0  0
   -7.6365    4.7744  -17.7300 C   0  0  0  0  0  0  0  0  0  0  0  0
   -8.1552    4.7647  -18.9628 N   0  0  0  0  0  0  0  0  0  0  0  0
   -9.4619    4.5114  -19.1272 C   0  0  0  0  0  0  0  0  0  0  0  0
  -10.3024    4.1916  -18.0932 C   0  0  0  0  0  0  0  0  0  0  0  0
   -9.7502    4.1249  -16.8320 C   0  0  0  0  0  0  0  0  0  0  0  0
   -8.4321    4.4720  -16.6169 C   0  0  0  0  0  0  0  0  0  0  0  0
   -7.9503    4.5555  -15.3063 C   0  0  0  0  0  0  0  0  0  0  0  0
  1  2  1  0
  2  3  1  0
  3  4  2  0
  3  5  1  0
  5  6  2  0
  6  7  1  0
  7  8  1  0
  8  9  1  0
  9 10  2  0
  9 11  1  0
 11 12  2  0
 12 13  1  0
 13 14  2  0
 14 15  1  0
 15 16  2  0
 16 17  1  0
 16 18  1  0
 18 19  2  0
 19 20  1  0
 19 21  1  0
 21 22  2  0
  7 23  2  0
 23 24  1  0
 24 25  2  0
 25 26  1  0
 26 27  2  0
 27 28  1  0
 28 29  2  0
 29  5  1  0
 22 11  1  0
 28 23  1  0
 22 15  1  0
M  END
>  <energy_score>  (874) 
-8.905344

>  <alias>  (874) 
None

>  <HIPPO Pose ID>  (874) 
70308

>  <smiles>  (874) 
COC(=O)c1cc(NC(=O)c2ccnc3c(C)cc(C)cc23)c2ncccc2c1

>  <inchikey>  (874) 
SNYGZQSYLDCDQV-UHFFFAOYSA-N

>  <distance_score>  (874) 
1.560297

>  <ref_mols>  (874) 
Z0917a,Z0852a

>  <ref_pdb>  (874) 
Z0852a

>  <HIPPO Compound ID>  (874) 
142239

>  <name>  (874) 
P70308

>  <inspiration_score>  (874) 
None

$$$$
P70309
     RDKit          3D

 29 32  0  0  0  0  0  0  0  0999 V2000
   -1.4481    5.5257  -16.1273 C   0  0  0  0  0  0  0  0  0  0  0  0
   -1.5022    5.5755  -17.6263 C   0  0  0  0  0  0  0  0  0  0  0  0
   -0.4501    6.1164  -18.3560 C   0  0  0  0  0  0  0  0  0  0  0  0
   -0.5334    6.2235  -19.7529 C   0  0  0  0  0  0  0  0  0  0  0  0
    0.6500    6.7593  -20.5175 C   0  0  0  0  0  0  0  0  0  0  0  0
   -1.7093    5.8887  -20.4359 C   0  0  0  0  0  0  0  0  0  0  0  0
   -1.7668    6.0996  -21.7658 N   0  0  0  0  0  0  0  0  0  0  0  0
   -2.9061    5.8444  -22.4318 C   0  0  0  0  0  0  0  0  0  0  0  0
   -4.0508    5.4169  -21.8161 C   0  0  0  0  0  0  0  0  0  0  0  0
   -4.0031    5.1867  -20.4418 C   0  0  0  0  0  0  0  0  0  0  0  0
   -5.2902    4.7291  -19.8541 C   0  0  0  0  0  0  0  0  0  0  0  0
   -5.9203    3.9610  -20.4734 O   0  0  0  0  0  0  0  0  0  0  0  0
   -5.5690    5.3763  -18.4685 N   0  0  0  0  0  0  0  0  0  0  0  0
   -6.5972    5.1471  -17.5503 C   0  0  0  0  0  0  0  0  0  0  0  0
   -6.3552    5.4979  -16.2098 C   0  0  0  0  0  0  0  0  0  0  0  0
   -7.3176    5.2856  -15.2070 C   0  0  0  0  0  0  0  0  0  0  0  0
   -7.1206    5.7671  -13.7714 C   0  0  0  0  0  0  0  0  0  0  0  0
   -8.3970    5.6496  -12.9281 C   0  0  0  0  0  0  0  0  0  0  0  0
   -6.7291    7.2564  -13.7415 C   0  0  0  0  0  0  0  0  0  0  0  0
   -6.0278    4.9295  -13.0989 C   0  0  0  0  0  0  0  0  0  0  0  0
   -8.4957    4.6531  -15.5795 C   0  0  0  0  0  0  0  0  0  0  0  0
   -8.7780    4.4480  -16.9159 C   0  0  0  0  0  0  0  0  0  0  0  0
  -10.0785    4.1641  -17.2454 C   0  0  0  0  0  0  0  0  0  0  0  0
  -10.5040    4.3370  -18.5255 C   0  0  0  0  0  0  0  0  0  0  0  0
   -9.5359    4.4994  -19.4758 C   0  0  0  0  0  0  0  0  0  0  0  0
   -8.2284    4.5919  -19.2031 N   0  0  0  0  0  0  0  0  0  0  0  0
   -7.8486    4.6777  -17.9294 C   0  0  0  0  0  0  0  0  0  0  0  0
   -2.8050    5.3833  -19.7065 C   0  0  0  0  0  0  0  0  0  0  0  0
   -2.6359    5.1404  -18.3155 C   0  0  0  0  0  0  0  0  0  0  0  0
  1  2  1  0
  2  3  2  0
  3  4  1  0
  4  5  1  0
  4  6  2  0
  6  7  1  0
  7  8  2  0
  8  9  1  0
  9 10  2  0
 10 11  1  0
 11 12  2  0
 11 13  1  0
 13 14  1  0
 14 15  2  0
 15 16  1  0
 16 17  1  0
 17 18  1  0
 17 19  1  0
 17 20  1  0
 16 21  2  0
 21 22  1  0
 22 23  2  0
 23 24  1  0
 24 25  2  0
 25 26  1  0
 26 27  2  0
 10 28  1  0
 28 29  2  0
 29  2  1  0
 28  6  1  0
 27 14  1  0
 27 22  1  0
M  END
>  <energy_score>  (875) 
-11.158791

>  <alias>  (875) 
None

>  <HIPPO Pose ID>  (875) 
70309

>  <smiles>  (875) 
Cc1cc(C)c2nccc(C(=O)Nc3cc(C(C)(C)C)cc4cccnc34)c2c1

>  <inchikey>  (875) 
BGNMNUYEJZYIEQ-UHFFFAOYSA-N

>  <distance_score>  (875) 
1.376681

>  <ref_mols>  (875) 
Z0917a,Z0852a

>  <ref_pdb>  (875) 
Z0852a

>  <HIPPO Compound ID>  (875) 
142241

>  <name>  (875) 
P70309

>  <inspiration_score>  (875) 
None

$$$$
P70310
     RDKit          3D

 29 32  0  0  0  0  0  0  0  0999 V2000
    0.6551    6.7260  -20.4598 C   0  0  0  0  0  0  0  0  0  0  0  0
   -0.5272    6.2292  -19.6672 C   0  0  0  0  0  0  0  0  0  0  0  0
   -0.4290    6.1583  -18.2696 C   0  0  0  0  0  0  0  0  0  0  0  0
   -1.4903    5.6613  -17.5333 C   0  0  0  0  0  0  0  0  0  0  0  0
   -1.4142    5.6599  -15.6426 Br  0  0  0  0  0  0  0  0  0  0  0  0
   -2.6353    5.2097  -18.1802 C   0  0  0  0  0  0  0  0  0  0  0  0
   -2.8152    5.4236  -19.5718 C   0  0  0  0  0  0  0  0  0  0  0  0
   -4.0222    5.2231  -20.2872 C   0  0  0  0  0  0  0  0  0  0  0  0
   -5.3015    4.7668  -19.6856 C   0  0  0  0  0  0  0  0  0  0  0  0
   -5.8902    3.9512  -20.2851 O   0  0  0  0  0  0  0  0  0  0  0  0
   -5.6238    5.4458  -18.3222 N   0  0  0  0  0  0  0  0  0  0  0  0
   -6.6519    5.1988  -17.4044 C   0  0  0  0  0  0  0  0  0  0  0  0
   -6.4469    5.5325  -16.0542 C   0  0  0  0  0  0  0  0  0  0  0  0
   -7.4446    5.2839  -15.0954 C   0  0  0  0  0  0  0  0  0  0  0  0
   -7.3508    5.7730  -13.6771 C   0  0  0  0  0  0  0  0  0  0  0  0
   -8.4472    5.4690  -12.9240 F   0  0  0  0  0  0  0  0  0  0  0  0
   -6.2779    5.2801  -13.0107 F   0  0  0  0  0  0  0  0  0  0  0  0
   -7.2482    7.1318  -13.6208 F   0  0  0  0  0  0  0  0  0  0  0  0
   -8.6141    4.6566  -15.4935 C   0  0  0  0  0  0  0  0  0  0  0  0
   -8.8497    4.4613  -16.8411 C   0  0  0  0  0  0  0  0  0  0  0  0
  -10.1306    4.1597  -17.2241 C   0  0  0  0  0  0  0  0  0  0  0  0
  -10.5168    4.3394  -18.5160 C   0  0  0  0  0  0  0  0  0  0  0  0
   -9.5239    4.5269  -19.4333 C   0  0  0  0  0  0  0  0  0  0  0  0
   -8.2303    4.6531  -19.1114 N   0  0  0  0  0  0  0  0  0  0  0  0
   -7.8917    4.7201  -17.8236 C   0  0  0  0  0  0  0  0  0  0  0  0
   -4.0781    5.4138  -21.6695 C   0  0  0  0  0  0  0  0  0  0  0  0
   -2.9357    5.8136  -22.3083 C   0  0  0  0  0  0  0  0  0  0  0  0
   -1.7879    6.0745  -21.6593 N   0  0  0  0  0  0  0  0  0  0  0  0
   -1.7189    5.8969  -20.3268 C   0  0  0  0  0  0  0  0  0  0  0  0
  1  2  1  0
  2  3  2  0
  3  4  1  0
  4  5  1  0
  4  6  2  0
  6  7  1  0
  7  8  2  0
  8  9  1  0
  9 10  2  0
  9 11  1  0
 11 12  1  0
 12 13  2  0
 13 14  1  0
 14 15  1  0
 15 16  1  0
 15 17  1  0
 15 18  1  0
 14 19  2  0
 19 20  1  0
 20 21  2  0
 21 22  1  0
 22 23  2  0
 23 24  1  0
 24 25  2  0
  8 26  1  0
 26 27  2  0
 27 28  1  0
 28 29  2  0
 29  2  1  0
 29  7  1  0
 25 12  1  0
 25 20  1  0
M  END
>  <energy_score>  (876) 
-1.076285

>  <alias>  (876) 
None

>  <HIPPO Pose ID>  (876) 
70310

>  <smiles>  (876) 
Cc1cc(Br)cc2c(C(=O)Nc3cc(C(F)(F)F)cc4cccnc34)ccnc12

>  <inchikey>  (876) 
WAVOAHLGDOWPGE-UHFFFAOYSA-N

>  <distance_score>  (876) 
1.067969

>  <ref_mols>  (876) 
Z0917a,Z0852a

>  <ref_pdb>  (876) 
Z0852a

>  <HIPPO Compound ID>  (876) 
142242

>  <name>  (876) 
P70310

>  <inspiration_score>  (876) 
None

$$$$
P70311
     RDKit          3D

 29 32  0  0  0  0  0  0  0  0999 V2000
    0.6027    6.7712  -20.4482 C   0  0  0  0  0  0  0  0  0  0  0  0
   -0.5816    6.2291  -19.6889 C   0  0  0  0  0  0  0  0  0  0  0  0
   -0.5124    6.1452  -18.2906 C   0  0  0  0  0  0  0  0  0  0  0  0
   -1.5742    5.6075  -17.5855 C   0  0  0  0  0  0  0  0  0  0  0  0
   -1.5527    5.6029  -15.6929 Br  0  0  0  0  0  0  0  0  0  0  0  0
   -2.6865    5.1240  -18.2654 C   0  0  0  0  0  0  0  0  0  0  0  0
   -2.8491    5.3567  -19.6574 C   0  0  0  0  0  0  0  0  0  0  0  0
   -4.0399    5.1438  -20.4034 C   0  0  0  0  0  0  0  0  0  0  0  0
   -5.3338    4.6623  -19.8398 C   0  0  0  0  0  0  0  0  0  0  0  0
   -5.9553    3.9181  -20.4960 O   0  0  0  0  0  0  0  0  0  0  0  0
   -5.6265    5.2490  -18.4308 N   0  0  0  0  0  0  0  0  0  0  0  0
   -6.6608    4.9765  -17.5310 C   0  0  0  0  0  0  0  0  0  0  0  0
   -6.4195    5.2374  -16.1727 C   0  0  0  0  0  0  0  0  0  0  0  0
   -7.4071    5.0295  -15.1892 C   0  0  0  0  0  0  0  0  0  0  0  0
   -7.2110    5.4878  -13.7462 C   0  0  0  0  0  0  0  0  0  0  0  0
   -6.0417    4.7352  -13.1044 C   0  0  0  0  0  0  0  0  0  0  0  0
   -8.4455    5.3017  -12.8361 C   0  0  0  0  0  0  0  0  0  0  0  0
   -6.9133    6.9898  -13.7804 C   0  0  0  0  0  0  0  0  0  0  0  0
   -8.6183    4.5008  -15.6024 C   0  0  0  0  0  0  0  0  0  0  0  0
   -8.8858    4.3655  -16.9530 C   0  0  0  0  0  0  0  0  0  0  0  0
  -10.1926    4.1728  -17.3236 C   0  0  0  0  0  0  0  0  0  0  0  0
  -10.5788    4.4231  -18.6015 C   0  0  0  0  0  0  0  0  0  0  0  0
   -9.5829    4.5517  -19.5248 C   0  0  0  0  0  0  0  0  0  0  0  0
   -8.2790    4.5623  -19.2255 N   0  0  0  0  0  0  0  0  0  0  0  0
   -7.9250    4.5816  -17.9428 C   0  0  0  0  0  0  0  0  0  0  0  0
   -4.0721    5.3772  -21.7788 C   0  0  0  0  0  0  0  0  0  0  0  0
   -2.9255    5.8148  -22.3844 C   0  0  0  0  0  0  0  0  0  0  0  0
   -1.7954    6.0802  -21.7073 N   0  0  0  0  0  0  0  0  0  0  0  0
   -1.7499    5.8745  -20.3786 C   0  0  0  0  0  0  0  0  0  0  0  0
  1  2  1  0
  2  3  2  0
  3  4  1  0
  4  5  1  0
  4  6  2  0
  6  7  1  0
  7  8  2  0
  8  9  1  0
  9 10  2  0
  9 11  1  0
 11 12  1  0
 12 13  2  0
 13 14  1  0
 14 15  1  0
 15 16  1  0
 15 17  1  0
 15 18  1  0
 14 19  2  0
 19 20  1  0
 20 21  2  0
 21 22  1  0
 22 23  2  0
 23 24  1  0
 24 25  2  0
  8 26  1  0
 26 27  2  0
 27 28  1  0
 28 29  2  0
 29  2  1  0
 29  7  1  0
 25 12  1  0
 25 20  1  0
M  END
>  <energy_score>  (877) 
-15.860813

>  <alias>  (877) 
None

>  <HIPPO Pose ID>  (877) 
70311

>  <smiles>  (877) 
Cc1cc(Br)cc2c(C(=O)Nc3cc(C(C)(C)C)cc4cccnc34)ccnc12

>  <inchikey>  (877) 
FCLWPRHBVRKMSW-UHFFFAOYSA-N

>  <distance_score>  (877) 
1.207521

>  <ref_mols>  (877) 
Z0917a,Z0852a

>  <ref_pdb>  (877) 
Z0852a

>  <HIPPO Compound ID>  (877) 
142243

>  <name>  (877) 
P70311

>  <inspiration_score>  (877) 
None

$$$$
P70312
     RDKit          3D

 29 32  0  0  0  0  0  0  0  0999 V2000
   -6.5166    4.9143  -11.4781 C   0  0  0  0  0  0  0  0  0  0  0  0
   -6.9844    4.8267  -12.8243 O   0  0  0  0  0  0  0  0  0  0  0  0
   -6.0059    4.9173  -13.7578 C   0  0  0  0  0  0  0  0  0  0  0  0
   -4.8161    5.0798  -13.5375 O   0  0  0  0  0  0  0  0  0  0  0  0
   -6.5750    4.8212  -15.1267 C   0  0  0  0  0  0  0  0  0  0  0  0
   -5.7393    5.0696  -16.2167 C   0  0  0  0  0  0  0  0  0  0  0  0
   -6.2052    4.9529  -17.5385 C   0  0  0  0  0  0  0  0  0  0  0  0
   -5.2205    5.1307  -18.5208 N   0  0  0  0  0  0  0  0  0  0  0  0
   -5.2067    4.7240  -20.0240 C   0  0  0  0  0  0  0  0  0  0  0  0
   -5.9815    4.1114  -20.6507 O   0  0  0  0  0  0  0  0  0  0  0  0
   -3.9276    5.1437  -20.6497 C   0  0  0  0  0  0  0  0  0  0  0  0
   -2.7494    4.7957  -19.9873 C   0  0  0  0  0  0  0  0  0  0  0  0
   -2.7129    4.1717  -18.7698 O   0  0  0  0  0  0  0  0  0  0  0  0
   -1.5633    5.1051  -20.6028 C   0  0  0  0  0  0  0  0  0  0  0  0
   -1.4926    5.7266  -21.7989 N   0  0  0  0  0  0  0  0  0  0  0  0
   -2.6244    6.0572  -22.4584 C   0  0  0  0  0  0  0  0  0  0  0  0
   -2.5707    6.6917  -23.7101 C   0  0  0  0  0  0  0  0  0  0  0  0
   -0.8947    7.0753  -24.5365 Br  0  0  0  0  0  0  0  0  0  0  0  0
   -3.7199    7.0769  -24.4093 C   0  0  0  0  0  0  0  0  0  0  0  0
   -4.9657    6.8359  -23.8574 C   0  0  0  0  0  0  0  0  0  0  0  0
   -5.0462    6.2035  -22.6203 C   0  0  0  0  0  0  0  0  0  0  0  0
   -3.8940    5.7924  -21.9082 C   0  0  0  0  0  0  0  0  0  0  0  0
   -7.5493    4.6655  -17.7910 C   0  0  0  0  0  0  0  0  0  0  0  0
   -8.0714    4.6693  -19.0214 N   0  0  0  0  0  0  0  0  0  0  0  0
   -9.3945    4.4965  -19.1834 C   0  0  0  0  0  0  0  0  0  0  0  0
  -10.2595    4.2510  -18.1497 C   0  0  0  0  0  0  0  0  0  0  0  0
   -9.7158    4.1717  -16.8879 C   0  0  0  0  0  0  0  0  0  0  0  0
   -8.3757    4.4320  -16.6776 C   0  0  0  0  0  0  0  0  0  0  0  0
   -7.9001    4.4806  -15.3646 C   0  0  0  0  0  0  0  0  0  0  0  0
  1  2  1  0
  2  3  1  0
  3  4  2  0
  3  5  1  0
  5  6  2  0
  6  7  1  0
  7  8  1  0
  8  9  1  0
  9 10  2  0
  9 11  1  0
 11 12  2  0
 12 13  1  0
 12 14  1  0
 14 15  2  0
 15 16  1  0
 16 17  2  0
 17 18  1  0
 17 19  1  0
 19 20  2  0
 20 21  1  0
 21 22  2  0
  7 23  2  0
 23 24  1  0
 24 25  2  0
 25 26  1  0
 26 27  2  0
 27 28  1  0
 28 29  2  0
 29  5  1  0
 22 11  1  0
 28 23  1  0
 22 16  1  0
M  END
>  <energy_score>  (878) 
-25.861193

>  <alias>  (878) 
None

>  <HIPPO Pose ID>  (878) 
70312

>  <smiles>  (878) 
COC(=O)c1cc(NC(=O)c2c(O)cnc3c(Br)cccc23)c2ncccc2c1

>  <inchikey>  (878) 
LDJXSMJBJDVJJN-UHFFFAOYSA-N

>  <distance_score>  (878) 
1.615066

>  <ref_mols>  (878) 
Z0917a,Z0852a

>  <ref_pdb>  (878) 
Z0852a

>  <HIPPO Compound ID>  (878) 
142246

>  <name>  (878) 
P70312

>  <inspiration_score>  (878) 
None

$$$$
P70313
     RDKit          3D

 29 32  0  0  0  0  0  0  0  0999 V2000
   -5.9398    4.0739  -20.5521 O   0  0  0  0  0  0  0  0  0  0  0  0
   -5.2251    4.6696  -19.8379 C   0  0  0  0  0  0  0  0  0  0  0  0
   -5.4001    5.0766  -18.3390 N   0  0  0  0  0  0  0  0  0  0  0  0
   -6.5014    4.9192  -17.4687 C   0  0  0  0  0  0  0  0  0  0  0  0
   -6.3038    5.2379  -16.1067 C   0  0  0  0  0  0  0  0  0  0  0  0
   -7.3499    5.1317  -15.1684 C   0  0  0  0  0  0  0  0  0  0  0  0
   -7.2595    5.6563  -13.7604 C   0  0  0  0  0  0  0  0  0  0  0  0
   -6.1717    5.2077  -13.0866 F   0  0  0  0  0  0  0  0  0  0  0  0
   -7.1916    7.0191  -13.7353 F   0  0  0  0  0  0  0  0  0  0  0  0
   -8.3439    5.3447  -12.9916 F   0  0  0  0  0  0  0  0  0  0  0  0
   -8.5715    4.6365  -15.5881 C   0  0  0  0  0  0  0  0  0  0  0  0
   -8.7903    4.4356  -16.9350 C   0  0  0  0  0  0  0  0  0  0  0  0
  -10.0915    4.2435  -17.3256 C   0  0  0  0  0  0  0  0  0  0  0  0
  -10.4388    4.4078  -18.6274 C   0  0  0  0  0  0  0  0  0  0  0  0
   -9.4159    4.4520  -19.5278 C   0  0  0  0  0  0  0  0  0  0  0  0
   -8.1189    4.4768  -19.1905 N   0  0  0  0  0  0  0  0  0  0  0  0
   -7.7851    4.5728  -17.9045 C   0  0  0  0  0  0  0  0  0  0  0  0
   -3.9314    5.1417  -20.4097 C   0  0  0  0  0  0  0  0  0  0  0  0
   -2.7533    4.8507  -19.7343 C   0  0  0  0  0  0  0  0  0  0  0  0
   -2.7658    4.2928  -18.4896 O   0  0  0  0  0  0  0  0  0  0  0  0
   -1.5675    5.1378  -20.3726 C   0  0  0  0  0  0  0  0  0  0  0  0
   -1.4947    5.7122  -21.5887 N   0  0  0  0  0  0  0  0  0  0  0  0
   -2.6261    6.0167  -22.2557 C   0  0  0  0  0  0  0  0  0  0  0  0
   -2.5688    6.6162  -23.5249 C   0  0  0  0  0  0  0  0  0  0  0  0
   -0.8900    6.9832  -24.3542 Br  0  0  0  0  0  0  0  0  0  0  0  0
   -3.7148    6.9788  -24.2388 C   0  0  0  0  0  0  0  0  0  0  0  0
   -4.9595    6.7468  -23.6839 C   0  0  0  0  0  0  0  0  0  0  0  0
   -5.0395    6.1444  -22.4309 C   0  0  0  0  0  0  0  0  0  0  0  0
   -3.8927    5.7572  -21.6955 C   0  0  0  0  0  0  0  0  0  0  0  0
  1  2  2  0
  2  3  1  0
  3  4  1  0
  4  5  2  0
  5  6  1  0
  6  7  1  0
  7  8  1  0
  7  9  1  0
  7 10  1  0
  6 11  2  0
 11 12  1  0
 12 13  2  0
 13 14  1  0
 14 15  2  0
 15 16  1  0
 16 17  2  0
  2 18  1  0
 18 19  2  0
 19 20  1  0
 19 21  1  0
 21 22  2  0
 22 23  1  0
 23 24  2  0
 24 25  1  0
 24 26  1  0
 26 27  2  0
 27 28  1  0
 28 29  2  0
 17  4  1  0
 29 18  1  0
 17 12  1  0
 29 23  1  0
M  END
>  <energy_score>  (879) 
-9.263359

>  <alias>  (879) 
None

>  <HIPPO Pose ID>  (879) 
70313

>  <smiles>  (879) 
O=C(Nc1cc(C(F)(F)F)cc2cccnc12)c1c(O)cnc2c(Br)cccc12

>  <inchikey>  (879) 
OXLDHLWYEPXOCP-UHFFFAOYSA-N

>  <distance_score>  (879) 
0.971658

>  <ref_mols>  (879) 
Z0917a,Z0852a

>  <ref_pdb>  (879) 
Z0852a

>  <HIPPO Compound ID>  (879) 
142247

>  <name>  (879) 
P70313

>  <inspiration_score>  (879) 
None

$$$$
P70314
     RDKit          3D

 29 32  0  0  0  0  0  0  0  0999 V2000
   -8.4019    5.2822  -12.8817 C   0  0  0  0  0  0  0  0  0  0  0  0
   -7.1578    5.4405  -13.7878 C   0  0  0  0  0  0  0  0  0  0  0  0
   -5.9998    4.6995  -13.1139 C   0  0  0  0  0  0  0  0  0  0  0  0
   -6.8536    6.9399  -13.8595 C   0  0  0  0  0  0  0  0  0  0  0  0
   -7.3414    4.9544  -15.2252 C   0  0  0  0  0  0  0  0  0  0  0  0
   -6.3285    5.0895  -16.2005 C   0  0  0  0  0  0  0  0  0  0  0  0
   -6.5633    4.8347  -17.5655 C   0  0  0  0  0  0  0  0  0  0  0  0
   -5.4828    5.0427  -18.4457 N   0  0  0  0  0  0  0  0  0  0  0  0
   -5.3185    4.6731  -19.9549 C   0  0  0  0  0  0  0  0  0  0  0  0
   -6.0251    4.0724  -20.6706 O   0  0  0  0  0  0  0  0  0  0  0  0
   -3.9939    5.1047  -20.4641 C   0  0  0  0  0  0  0  0  0  0  0  0
   -2.8661    4.7654  -19.7204 C   0  0  0  0  0  0  0  0  0  0  0  0
   -2.9086    4.1383  -18.5066 O   0  0  0  0  0  0  0  0  0  0  0  0
   -1.6420    5.0740  -20.2598 C   0  0  0  0  0  0  0  0  0  0  0  0
   -1.4894    5.6962  -21.4485 N   0  0  0  0  0  0  0  0  0  0  0  0
   -2.5728    6.0241  -22.1845 C   0  0  0  0  0  0  0  0  0  0  0  0
   -2.4327    6.6596  -23.4290 C   0  0  0  0  0  0  0  0  0  0  0  0
   -0.7035    7.0478  -24.1355 Br  0  0  0  0  0  0  0  0  0  0  0  0
   -3.5304    7.0443  -24.2064 C   0  0  0  0  0  0  0  0  0  0  0  0
   -4.8108    6.8010  -23.7429 C   0  0  0  0  0  0  0  0  0  0  0  0
   -4.9762    6.1663  -22.5151 C   0  0  0  0  0  0  0  0  0  0  0  0
   -3.8757    5.7557  -21.7216 C   0  0  0  0  0  0  0  0  0  0  0  0
   -7.8516    4.5110  -17.9798 C   0  0  0  0  0  0  0  0  0  0  0  0
   -8.2075    4.4741  -19.2604 N   0  0  0  0  0  0  0  0  0  0  0  0
   -9.5122    4.5031  -19.5634 C   0  0  0  0  0  0  0  0  0  0  0  0
  -10.5181    4.4434  -18.6442 C   0  0  0  0  0  0  0  0  0  0  0  0
  -10.1470    4.2099  -17.3604 C   0  0  0  0  0  0  0  0  0  0  0  0
   -8.8322    4.3520  -16.9935 C   0  0  0  0  0  0  0  0  0  0  0  0
   -8.5729    4.4852  -15.6443 C   0  0  0  0  0  0  0  0  0  0  0  0
  1  2  1  0
  2  3  1  0
  2  4  1  0
  2  5  1  0
  5  6  2  0
  6  7  1  0
  7  8  1  0
  8  9  1  0
  9 10  2  0
  9 11  1  0
 11 12  2  0
 12 13  1  0
 12 14  1  0
 14 15  2  0
 15 16  1  0
 16 17  2  0
 17 18  1  0
 17 19  1  0
 19 20  2  0
 20 21  1  0
 21 22  2  0
  7 23  2  0
 23 24  1  0
 24 25  2  0
 25 26  1  0
 26 27  2  0
 27 28  1  0
 28 29  2  0
 29  5  1  0
 22 11  1  0
 28 23  1  0
 22 16  1  0
M  END
>  <energy_score>  (880) 
-34.414478

>  <alias>  (880) 
None

>  <HIPPO Pose ID>  (880) 
70314

>  <smiles>  (880) 
CC(C)(C)c1cc(NC(=O)c2c(O)cnc3c(Br)cccc23)c2ncccc2c1

>  <inchikey>  (880) 
FOMQEROPIXNEQN-UHFFFAOYSA-N

>  <distance_score>  (880) 
1.346404

>  <ref_mols>  (880) 
Z0917a,Z0852a

>  <ref_pdb>  (880) 
Z0852a

>  <HIPPO Compound ID>  (880) 
142248

>  <name>  (880) 
P70314

>  <inspiration_score>  (880) 
None

$$$$
P70315
     RDKit          3D

 29 32  0  0  0  0  0  0  0  0999 V2000
   -6.0210    4.2111  -20.5595 O   0  0  0  0  0  0  0  0  0  0  0  0
   -5.2958    4.7867  -19.8419 C   0  0  0  0  0  0  0  0  0  0  0  0
   -5.4942    5.2552  -18.3629 N   0  0  0  0  0  0  0  0  0  0  0  0
   -6.5602    5.0306  -17.4666 C   0  0  0  0  0  0  0  0  0  0  0  0
   -6.3527    5.3552  -16.1092 C   0  0  0  0  0  0  0  0  0  0  0  0
   -7.3739    5.1855  -15.1534 C   0  0  0  0  0  0  0  0  0  0  0  0
   -7.2797    5.7030  -13.7428 C   0  0  0  0  0  0  0  0  0  0  0  0
   -8.3675    5.3971  -12.9769 F   0  0  0  0  0  0  0  0  0  0  0  0
   -7.1988    7.0643  -13.7119 F   0  0  0  0  0  0  0  0  0  0  0  0
   -6.1966    5.2396  -13.0723 F   0  0  0  0  0  0  0  0  0  0  0  0
   -8.5758    4.6282  -15.5538 C   0  0  0  0  0  0  0  0  0  0  0  0
   -8.8099    4.4302  -16.8990 C   0  0  0  0  0  0  0  0  0  0  0  0
  -10.1071    4.1933  -17.2766 C   0  0  0  0  0  0  0  0  0  0  0  0
  -10.4807    4.3734  -18.5705 C   0  0  0  0  0  0  0  0  0  0  0  0
   -9.4747    4.4813  -19.4852 C   0  0  0  0  0  0  0  0  0  0  0  0
   -8.1757    4.5374  -19.1621 N   0  0  0  0  0  0  0  0  0  0  0  0
   -7.8297    4.6217  -17.8808 C   0  0  0  0  0  0  0  0  0  0  0  0
   -3.9557    5.1456  -20.3484 C   0  0  0  0  0  0  0  0  0  0  0  0
   -2.8478    4.7567  -19.6012 C   0  0  0  0  0  0  0  0  0  0  0  0
   -2.9278    4.1443  -18.3833 O   0  0  0  0  0  0  0  0  0  0  0  0
   -1.6063    5.0016  -20.1400 C   0  0  0  0  0  0  0  0  0  0  0  0
   -1.4156    5.6065  -21.3333 N   0  0  0  0  0  0  0  0  0  0  0  0
   -2.4829    5.9782  -22.0498 C   0  0  0  0  0  0  0  0  0  0  0  0
   -2.2544    6.6007  -23.2694 C   0  0  0  0  0  0  0  0  0  0  0  0
   -3.2989    7.0658  -24.0685 C   0  0  0  0  0  0  0  0  0  0  0  0
   -4.6047    6.9031  -23.6349 C   0  0  0  0  0  0  0  0  0  0  0  0
   -6.0260    7.5636  -24.6872 Br  0  0  0  0  0  0  0  0  0  0  0  0
   -4.8620    6.2655  -22.4230 C   0  0  0  0  0  0  0  0  0  0  0  0
   -3.8044    5.7853  -21.6075 C   0  0  0  0  0  0  0  0  0  0  0  0
  1  2  2  0
  2  3  1  0
  3  4  1  0
  4  5  2  0
  5  6  1  0
  6  7  1  0
  7  8  1  0
  7  9  1  0
  7 10  1  0
  6 11  2  0
 11 12  1  0
 12 13  2  0
 13 14  1  0
 14 15  2  0
 15 16  1  0
 16 17  2  0
  2 18  1  0
 18 19  2  0
 19 20  1  0
 19 21  1  0
 21 22  2  0
 22 23  1  0
 23 24  2  0
 24 25  1  0
 25 26  2  0
 26 27  1  0
 26 28  1  0
 28 29  2  0
 17  4  1  0
 29 18  1  0
 17 12  1  0
 29 23  1  0
M  END
>  <energy_score>  (881) 
-12.820735

>  <alias>  (881) 
None

>  <HIPPO Pose ID>  (881) 
70315

>  <smiles>  (881) 
O=C(Nc1cc(C(F)(F)F)cc2cccnc12)c1c(O)cnc2ccc(Br)cc12

>  <inchikey>  (881) 
DPGSAKZAHZSPPN-UHFFFAOYSA-N

>  <distance_score>  (881) 
0.957724

>  <ref_mols>  (881) 
Z0917a,Z0852a

>  <ref_pdb>  (881) 
Z0852a

>  <HIPPO Compound ID>  (881) 
142249

>  <name>  (881) 
P70315

>  <inspiration_score>  (881) 
None

$$$$
P70316
     RDKit          3D

 29 32  0  0  0  0  0  0  0  0999 V2000
   -5.9947    6.9211  -13.8849 C   0  0  0  0  0  0  0  0  0  0  0  0
   -7.0183    5.7854  -13.8662 C   0  0  0  0  0  0  0  0  0  0  0  0
   -8.3076    6.4034  -13.2778 C   0  0  0  0  0  0  0  0  0  0  0  0
   -6.5310    4.6697  -12.9375 C   0  0  0  0  0  0  0  0  0  0  0  0
   -7.2154    5.2219  -15.2734 C   0  0  0  0  0  0  0  0  0  0  0  0
   -6.2545    5.3509  -16.2971 C   0  0  0  0  0  0  0  0  0  0  0  0
   -6.5360    5.0291  -17.6361 C   0  0  0  0  0  0  0  0  0  0  0  0
   -5.5174    5.2836  -18.5724 N   0  0  0  0  0  0  0  0  0  0  0  0
   -5.3330    4.7687  -20.0322 C   0  0  0  0  0  0  0  0  0  0  0  0
   -6.0386    4.1180  -20.7019 O   0  0  0  0  0  0  0  0  0  0  0  0
   -3.9940    5.1305  -20.5397 C   0  0  0  0  0  0  0  0  0  0  0  0
   -2.8849    4.7499  -19.7851 C   0  0  0  0  0  0  0  0  0  0  0  0
   -2.9673    4.1344  -18.5666 O   0  0  0  0  0  0  0  0  0  0  0  0
   -1.6428    5.0154  -20.3119 C   0  0  0  0  0  0  0  0  0  0  0  0
   -1.4543    5.6378  -21.4966 N   0  0  0  0  0  0  0  0  0  0  0  0
   -2.5232    6.0045  -22.2153 C   0  0  0  0  0  0  0  0  0  0  0  0
   -2.3001    6.6488  -23.4245 C   0  0  0  0  0  0  0  0  0  0  0  0
   -3.3493    7.1121  -24.2196 C   0  0  0  0  0  0  0  0  0  0  0  0
   -4.6546    6.9252  -23.7932 C   0  0  0  0  0  0  0  0  0  0  0  0
   -6.0822    7.5830  -24.8385 Br  0  0  0  0  0  0  0  0  0  0  0  0
   -4.9074    6.2648  -22.5931 C   0  0  0  0  0  0  0  0  0  0  0  0
   -3.8447    5.7876  -21.7848 C   0  0  0  0  0  0  0  0  0  0  0  0
   -7.8179    4.6172  -17.9744 C   0  0  0  0  0  0  0  0  0  0  0  0
   -8.2308    4.5404  -19.2353 N   0  0  0  0  0  0  0  0  0  0  0  0
   -9.5470    4.4865  -19.4751 C   0  0  0  0  0  0  0  0  0  0  0  0
  -10.4964    4.3348  -18.5030 C   0  0  0  0  0  0  0  0  0  0  0  0
  -10.0451    4.1603  -17.2302 C   0  0  0  0  0  0  0  0  0  0  0  0
   -8.7311    4.4145  -16.9321 C   0  0  0  0  0  0  0  0  0  0  0  0
   -8.4182    4.6200  -15.6009 C   0  0  0  0  0  0  0  0  0  0  0  0
  1  2  1  0
  2  3  1  0
  2  4  1  0
  2  5  1  0
  5  6  2  0
  6  7  1  0
  7  8  1  0
  8  9  1  0
  9 10  2  0
  9 11  1  0
 11 12  2  0
 12 13  1  0
 12 14  1  0
 14 15  2  0
 15 16  1  0
 16 17  2  0
 17 18  1  0
 18 19  2  0
 19 20  1  0
 19 21  1  0
 21 22  2  0
  7 23  2  0
 23 24  1  0
 24 25  2  0
 25 26  1  0
 26 27  2  0
 27 28  1  0
 28 29  2  0
 29  5  1  0
 22 11  1  0
 28 23  1  0
 22 16  1  0
M  END
>  <energy_score>  (882) 
-25.202668

>  <alias>  (882) 
None

>  <HIPPO Pose ID>  (882) 
70316

>  <smiles>  (882) 
CC(C)(C)c1cc(NC(=O)c2c(O)cnc3ccc(Br)cc23)c2ncccc2c1

>  <inchikey>  (882) 
GWTGRPXSRNCMFX-UHFFFAOYSA-N

>  <distance_score>  (882) 
1.319888

>  <ref_mols>  (882) 
Z0917a,Z0852a

>  <ref_pdb>  (882) 
Z0852a

>  <HIPPO Compound ID>  (882) 
142250

>  <name>  (882) 
P70316

>  <inspiration_score>  (882) 
None

$$$$
P70317
     RDKit          3D

 29 32  0  0  0  0  0  0  0  0999 V2000
   -6.8546    6.0276  -11.4621 C   0  0  0  0  0  0  0  0  0  0  0  0
   -7.2483    5.7053  -12.7959 O   0  0  0  0  0  0  0  0  0  0  0  0
   -6.3364    6.0362  -13.7424 C   0  0  0  0  0  0  0  0  0  0  0  0
   -5.2740    6.6059  -13.5469 O   0  0  0  0  0  0  0  0  0  0  0  0
   -6.8162    5.6393  -15.0922 C   0  0  0  0  0  0  0  0  0  0  0  0
   -6.0331    5.9681  -16.2018 C   0  0  0  0  0  0  0  0  0  0  0  0
   -6.4133    5.5754  -17.4932 C   0  0  0  0  0  0  0  0  0  0  0  0
   -5.4733    5.7522  -18.5176 N   0  0  0  0  0  0  0  0  0  0  0  0
   -5.2403    4.9449  -19.8197 C   0  0  0  0  0  0  0  0  0  0  0  0
   -5.8442    4.0551  -20.2781 O   0  0  0  0  0  0  0  0  0  0  0  0
   -4.0620    5.4170  -20.5769 C   0  0  0  0  0  0  0  0  0  0  0  0
   -4.3845    5.7213  -21.9064 C   0  0  0  0  0  0  0  0  0  0  0  0
   -3.3901    6.1752  -22.7349 C   0  0  0  0  0  0  0  0  0  0  0  0
   -3.6638    6.5124  -24.1678 C   0  0  0  0  0  0  0  0  0  0  0  0
   -2.1280    6.3247  -22.3010 N   0  0  0  0  0  0  0  0  0  0  0  0
   -1.8138    6.0296  -21.0343 C   0  0  0  0  0  0  0  0  0  0  0  0
   -0.4889    6.2733  -20.7130 C   0  0  0  0  0  0  0  0  0  0  0  0
    0.0130    6.0667  -19.4393 C   0  0  0  0  0  0  0  0  0  0  0  0
   -0.8301    5.5604  -18.4717 C   0  0  0  0  0  0  0  0  0  0  0  0
   -2.1662    5.2542  -18.7791 C   0  0  0  0  0  0  0  0  0  0  0  0
   -3.0764    4.4066  -17.3515 Br  0  0  0  0  0  0  0  0  0  0  0  0
   -2.7262    5.5398  -20.0718 C   0  0  0  0  0  0  0  0  0  0  0  0
   -7.6536    4.9829  -17.7145 C   0  0  0  0  0  0  0  0  0  0  0  0
   -8.1357    4.8137  -18.9484 N   0  0  0  0  0  0  0  0  0  0  0  0
   -9.3983    4.3998  -19.1103 C   0  0  0  0  0  0  0  0  0  0  0  0
  -10.2174    4.0577  -18.0651 C   0  0  0  0  0  0  0  0  0  0  0  0
   -9.6921    4.1435  -16.7934 C   0  0  0  0  0  0  0  0  0  0  0  0
   -8.4351    4.6756  -16.5912 C   0  0  0  0  0  0  0  0  0  0  0  0
   -8.0094    4.9513  -15.2898 C   0  0  0  0  0  0  0  0  0  0  0  0
  1  2  1  0
  2  3  1  0
  3  4  2  0
  3  5  1  0
  5  6  2  0
  6  7  1  0
  7  8  1  0
  8  9  1  0
  9 10  2  0
  9 11  1  0
 11 12  2  0
 12 13  1  0
 13 14  1  0
 13 15  2  0
 15 16  1  0
 16 17  2  0
 17 18  1  0
 18 19  2  0
 19 20  1  0
 20 21  1  0
 20 22  2  0
  7 23  2  0
 23 24  1  0
 24 25  2  0
 25 26  1  0
 26 27  2  0
 27 28  1  0
 28 29  2  0
 29  5  1  0
 22 11  1  0
 28 23  1  0
 22 16  1  0
M  END
>  <energy_score>  (883) 
-27.635598

>  <alias>  (883) 
None

>  <HIPPO Pose ID>  (883) 
70317

>  <smiles>  (883) 
COC(=O)c1cc(NC(=O)c2cc(C)nc3cccc(Br)c23)c2ncccc2c1

>  <inchikey>  (883) 
MIPHUDHINQIETP-UHFFFAOYSA-N

>  <distance_score>  (883) 
1.591431

>  <ref_mols>  (883) 
Z0917a,Z0852a

>  <ref_pdb>  (883) 
Z0852a

>  <HIPPO Compound ID>  (883) 
142251

>  <name>  (883) 
P70317

>  <inspiration_score>  (883) 
None

$$$$
P70318
     RDKit          3D

 29 32  0  0  0  0  0  0  0  0999 V2000
   -3.4730    6.3936  -23.8711 C   0  0  0  0  0  0  0  0  0  0  0  0
   -3.2797    6.1083  -22.4148 C   0  0  0  0  0  0  0  0  0  0  0  0
   -4.3035    5.6314  -21.6369 C   0  0  0  0  0  0  0  0  0  0  0  0
   -4.0604    5.3559  -20.2785 C   0  0  0  0  0  0  0  0  0  0  0  0
   -5.2737    4.8220  -19.6142 C   0  0  0  0  0  0  0  0  0  0  0  0
   -5.8411    3.9791  -20.1936 O   0  0  0  0  0  0  0  0  0  0  0  0
   -5.6271    5.5427  -18.2874 N   0  0  0  0  0  0  0  0  0  0  0  0
   -6.6703    5.3161  -17.3778 C   0  0  0  0  0  0  0  0  0  0  0  0
   -6.4912    5.6760  -16.0312 C   0  0  0  0  0  0  0  0  0  0  0  0
   -7.4738    5.3803  -15.0714 C   0  0  0  0  0  0  0  0  0  0  0  0
   -7.3841    5.8506  -13.6482 C   0  0  0  0  0  0  0  0  0  0  0  0
   -6.3201    5.3382  -12.9815 F   0  0  0  0  0  0  0  0  0  0  0  0
   -7.2688    7.2071  -13.5732 F   0  0  0  0  0  0  0  0  0  0  0  0
   -8.4881    5.5462  -12.9063 F   0  0  0  0  0  0  0  0  0  0  0  0
   -8.6142    4.7032  -15.4683 C   0  0  0  0  0  0  0  0  0  0  0  0
   -8.8398    4.4994  -16.8157 C   0  0  0  0  0  0  0  0  0  0  0  0
  -10.1088    4.1531  -17.1973 C   0  0  0  0  0  0  0  0  0  0  0  0
  -10.4974    4.3091  -18.4919 C   0  0  0  0  0  0  0  0  0  0  0  0
   -9.5102    4.5238  -19.4103 C   0  0  0  0  0  0  0  0  0  0  0  0
   -8.2227    4.7013  -19.0871 N   0  0  0  0  0  0  0  0  0  0  0  0
   -7.8896    4.7884  -17.7982 C   0  0  0  0  0  0  0  0  0  0  0  0
   -2.7649    5.5458  -19.6961 C   0  0  0  0  0  0  0  0  0  0  0  0
   -2.2659    5.3054  -18.3679 C   0  0  0  0  0  0  0  0  0  0  0  0
   -3.2071    4.4391  -16.9673 Br  0  0  0  0  0  0  0  0  0  0  0  0
   -0.9637    5.6761  -17.9901 C   0  0  0  0  0  0  0  0  0  0  0  0
   -0.0887    6.2045  -18.9164 C   0  0  0  0  0  0  0  0  0  0  0  0
   -0.5244    6.3673  -20.2204 C   0  0  0  0  0  0  0  0  0  0  0  0
   -1.8160    6.0601  -20.6144 C   0  0  0  0  0  0  0  0  0  0  0  0
   -2.0578    6.3196  -21.9044 N   0  0  0  0  0  0  0  0  0  0  0  0
  1  2  1  0
  2  3  2  0
  3  4  1  0
  4  5  1  0
  5  6  2  0
  5  7  1  0
  7  8  1  0
  8  9  2  0
  9 10  1  0
 10 11  1  0
 11 12  1  0
 11 13  1  0
 11 14  1  0
 10 15  2  0
 15 16  1  0
 16 17  2  0
 17 18  1  0
 18 19  2  0
 19 20  1  0
 20 21  2  0
  4 22  2  0
 22 23  1  0
 23 24  1  0
 23 25  2  0
 25 26  1  0
 26 27  2  0
 27 28  1  0
 28 29  2  0
 29  2  1  0
 21  8  1  0
 28 22  1  0
 21 16  1  0
M  END
>  <energy_score>  (884) 
-19.541052

>  <alias>  (884) 
None

>  <HIPPO Pose ID>  (884) 
70318

>  <smiles>  (884) 
Cc1cc(C(=O)Nc2cc(C(F)(F)F)cc3cccnc23)c2c(Br)cccc2n1

>  <inchikey>  (884) 
SXDMSMBSCJRZMQ-UHFFFAOYSA-N

>  <distance_score>  (884) 
1.055432

>  <ref_mols>  (884) 
Z0917a,Z0852a

>  <ref_pdb>  (884) 
Z0852a

>  <HIPPO Compound ID>  (884) 
142252

>  <name>  (884) 
P70318

>  <inspiration_score>  (884) 
None

$$$$
P70319
     RDKit          3D

 29 32  0  0  0  0  0  0  0  0999 V2000
   -4.4335    6.4541  -23.3771 C   0  0  0  0  0  0  0  0  0  0  0  0
   -3.7917    6.1539  -22.0576 C   0  0  0  0  0  0  0  0  0  0  0  0
   -4.5215    6.2269  -20.8952 C   0  0  0  0  0  0  0  0  0  0  0  0
   -3.8381    6.0769  -19.6836 C   0  0  0  0  0  0  0  0  0  0  0  0
   -4.6444    6.2877  -18.4687 C   0  0  0  0  0  0  0  0  0  0  0  0
   -4.4375    7.1943  -17.7695 O   0  0  0  0  0  0  0  0  0  0  0  0
   -5.6390    5.1314  -18.3283 N   0  0  0  0  0  0  0  0  0  0  0  0
   -6.6192    4.9007  -17.3839 C   0  0  0  0  0  0  0  0  0  0  0  0
   -6.4362    5.2360  -16.0459 C   0  0  0  0  0  0  0  0  0  0  0  0
   -7.4729    5.0654  -15.1124 C   0  0  0  0  0  0  0  0  0  0  0  0
   -7.3035    5.5302  -13.6698 C   0  0  0  0  0  0  0  0  0  0  0  0
   -6.9960    7.0298  -13.7021 C   0  0  0  0  0  0  0  0  0  0  0  0
   -6.1511    4.7731  -12.9991 C   0  0  0  0  0  0  0  0  0  0  0  0
   -8.5549    5.3480  -12.7903 C   0  0  0  0  0  0  0  0  0  0  0  0
   -8.6871    4.5740  -15.5781 C   0  0  0  0  0  0  0  0  0  0  0  0
   -8.8794    4.3721  -16.9381 C   0  0  0  0  0  0  0  0  0  0  0  0
  -10.1578    4.2567  -17.4205 C   0  0  0  0  0  0  0  0  0  0  0  0
  -10.3857    4.4339  -18.7487 C   0  0  0  0  0  0  0  0  0  0  0  0
   -9.3077    4.3567  -19.5886 C   0  0  0  0  0  0  0  0  0  0  0  0
   -8.0341    4.3035  -19.1795 N   0  0  0  0  0  0  0  0  0  0  0  0
   -7.8377    4.4604  -17.8606 C   0  0  0  0  0  0  0  0  0  0  0  0
   -2.4442    5.8216  -19.6145 C   0  0  0  0  0  0  0  0  0  0  0  0
   -1.6141    5.6232  -18.4616 C   0  0  0  0  0  0  0  0  0  0  0  0
   -2.2332    5.4515  -16.6641 Br  0  0  0  0  0  0  0  0  0  0  0  0
   -0.2227    5.5226  -18.5864 C   0  0  0  0  0  0  0  0  0  0  0  0
    0.3648    5.5519  -19.8366 C   0  0  0  0  0  0  0  0  0  0  0  0
   -0.4419    5.6666  -20.9626 C   0  0  0  0  0  0  0  0  0  0  0  0
   -1.8165    5.7972  -20.8770 C   0  0  0  0  0  0  0  0  0  0  0  0
   -2.4622    5.9420  -22.0471 N   0  0  0  0  0  0  0  0  0  0  0  0
  1  2  1  0
  2  3  2  0
  3  4  1  0
  4  5  1  0
  5  6  2  0
  5  7  1  0
  7  8  1  0
  8  9  2  0
  9 10  1  0
 10 11  1  0
 11 12  1  0
 11 13  1  0
 11 14  1  0
 10 15  2  0
 15 16  1  0
 16 17  2  0
 17 18  1  0
 18 19  2  0
 19 20  1  0
 20 21  2  0
  4 22  2  0
 22 23  1  0
 23 24  1  0
 23 25  2  0
 25 26  1  0
 26 27  2  0
 27 28  1  0
 28 29  2  0
 29  2  1  0
 21  8  1  0
 28 22  1  0
 21 16  1  0
M  END
>  <energy_score>  (885) 
-49.226377

>  <alias>  (885) 
None

>  <HIPPO Pose ID>  (885) 
70319

>  <smiles>  (885) 
Cc1cc(C(=O)Nc2cc(C(C)(C)C)cc3cccnc23)c2c(Br)cccc2n1

>  <inchikey>  (885) 
RAKFTZZXWCHVMV-UHFFFAOYSA-N

>  <distance_score>  (885) 
1.730357

>  <ref_mols>  (885) 
Z0917a,Z0852a

>  <ref_pdb>  (885) 
Z0852a

>  <HIPPO Compound ID>  (885) 
142253

>  <name>  (885) 
P70319

>  <inspiration_score>  (885) 
None

$$$$
P70320
     RDKit          3D

 29 32  0  0  0  0  0  0  0  0999 V2000
   -8.5223    5.2777  -12.8504 C   0  0  0  0  0  0  0  0  0  0  0  0
   -7.3189    5.4196  -13.8036 C   0  0  0  0  0  0  0  0  0  0  0  0
   -6.1657    4.5880  -13.2341 C   0  0  0  0  0  0  0  0  0  0  0  0
   -6.9368    6.9044  -13.8056 C   0  0  0  0  0  0  0  0  0  0  0  0
   -7.6058    5.0087  -15.2453 C   0  0  0  0  0  0  0  0  0  0  0  0
   -6.6772    5.2523  -16.2689 C   0  0  0  0  0  0  0  0  0  0  0  0
   -7.0055    5.0357  -17.6116 C   0  0  0  0  0  0  0  0  0  0  0  0
   -6.0341    5.2800  -18.5636 N   0  0  0  0  0  0  0  0  0  0  0  0
   -5.8402    4.6794  -19.9878 C   0  0  0  0  0  0  0  0  0  0  0  0
   -6.5160    3.9453  -20.6006 O   0  0  0  0  0  0  0  0  0  0  0  0
   -4.5420    5.0757  -20.5299 C   0  0  0  0  0  0  0  0  0  0  0  0
   -4.4852    5.5920  -21.8170 C   0  0  0  0  0  0  0  0  0  0  0  0
   -5.5729    5.7548  -22.6215 O   0  0  0  0  0  0  0  0  0  0  0  0
   -3.2581    6.0242  -22.2520 C   0  0  0  0  0  0  0  0  0  0  0  0
   -2.1662    6.0615  -21.4578 N   0  0  0  0  0  0  0  0  0  0  0  0
   -2.2624    5.6035  -20.1850 C   0  0  0  0  0  0  0  0  0  0  0  0
   -1.2399    5.7794  -19.2670 C   0  0  0  0  0  0  0  0  0  0  0  0
   -0.1346    6.3980  -19.6566 F   0  0  0  0  0  0  0  0  0  0  0  0
   -1.3027    5.4277  -17.9213 C   0  0  0  0  0  0  0  0  0  0  0  0
   -2.4034    4.7463  -17.4622 C   0  0  0  0  0  0  0  0  0  0  0  0
   -3.4147    4.4718  -18.3623 C   0  0  0  0  0  0  0  0  0  0  0  0
   -3.4137    5.0126  -19.6847 C   0  0  0  0  0  0  0  0  0  0  0  0
   -8.2720    4.6611  -17.9717 C   0  0  0  0  0  0  0  0  0  0  0  0
   -8.6546    4.7543  -19.2364 N   0  0  0  0  0  0  0  0  0  0  0  0
   -9.9525    4.7446  -19.5070 C   0  0  0  0  0  0  0  0  0  0  0  0
  -10.9045    4.4668  -18.5763 C   0  0  0  0  0  0  0  0  0  0  0  0
  -10.4702    4.1330  -17.3315 C   0  0  0  0  0  0  0  0  0  0  0  0
   -9.1709    4.3700  -16.9614 C   0  0  0  0  0  0  0  0  0  0  0  0
   -8.8294    4.4682  -15.6166 C   0  0  0  0  0  0  0  0  0  0  0  0
  1  2  1  0
  2  3  1  0
  2  4  1  0
  2  5  1  0
  5  6  2  0
  6  7  1  0
  7  8  1  0
  8  9  1  0
  9 10  2  0
  9 11  1  0
 11 12  2  0
 12 13  1  0
 12 14  1  0
 14 15  2  0
 15 16  1  0
 16 17  2  0
 17 18  1  0
 17 19  1  0
 19 20  2  0
 20 21  1  0
 21 22  2  0
  7 23  2  0
 23 24  1  0
 24 25  2  0
 25 26  1  0
 26 27  2  0
 27 28  1  0
 28 29  2  0
 29  5  1  0
 22 11  1  0
 28 23  1  0
 22 16  1  0
M  END
>  <energy_score>  (886) 
-3.505112

>  <alias>  (886) 
None

>  <HIPPO Pose ID>  (886) 
70320

>  <smiles>  (886) 
CC(C)(C)c1cc(NC(=O)c2c(O)cnc3c(F)cccc23)c2ncccc2c1

>  <inchikey>  (886) 
FLWMVXIPWSSRKO-UHFFFAOYSA-N

>  <distance_score>  (886) 
1.452357

>  <ref_mols>  (886) 
Z0917a,Z0852a

>  <ref_pdb>  (886) 
Z0852a

>  <HIPPO Compound ID>  (886) 
142257

>  <name>  (886) 
P70320

>  <inspiration_score>  (886) 
None

$$$$
P70321
     RDKit          3D

 29 32  0  0  0  0  0  0  0  0999 V2000
   -3.2139    6.3535  -23.8923 C   0  0  0  0  0  0  0  0  0  0  0  0
   -3.1270    6.0377  -22.4307 C   0  0  0  0  0  0  0  0  0  0  0  0
   -4.2186    5.5473  -21.7487 C   0  0  0  0  0  0  0  0  0  0  0  0
   -4.0792    5.2420  -20.3906 C   0  0  0  0  0  0  0  0  0  0  0  0
   -5.3066    4.7063  -19.7487 C   0  0  0  0  0  0  0  0  0  0  0  0
   -5.9320    3.9413  -20.3784 O   0  0  0  0  0  0  0  0  0  0  0  0
   -5.5406    5.2612  -18.3109 N   0  0  0  0  0  0  0  0  0  0  0  0
   -6.6088    5.0662  -17.4216 C   0  0  0  0  0  0  0  0  0  0  0  0
   -6.4133    5.4100  -16.0704 C   0  0  0  0  0  0  0  0  0  0  0  0
   -7.4339    5.2199  -15.1215 C   0  0  0  0  0  0  0  0  0  0  0  0
   -7.3420    5.7273  -13.7088 C   0  0  0  0  0  0  0  0  0  0  0  0
   -8.4340    5.4245  -12.9490 F   0  0  0  0  0  0  0  0  0  0  0  0
   -7.2502    7.0878  -13.6701 F   0  0  0  0  0  0  0  0  0  0  0  0
   -6.2631    5.2532  -13.0380 F   0  0  0  0  0  0  0  0  0  0  0  0
   -8.6232    4.6391  -15.5288 C   0  0  0  0  0  0  0  0  0  0  0  0
   -8.8483    4.4374  -16.8768 C   0  0  0  0  0  0  0  0  0  0  0  0
  -10.1374    4.1848  -17.2696 C   0  0  0  0  0  0  0  0  0  0  0  0
  -10.5022    4.3720  -18.5653 C   0  0  0  0  0  0  0  0  0  0  0  0
   -9.4919    4.5025  -19.4725 C   0  0  0  0  0  0  0  0  0  0  0  0
   -8.1967    4.5771  -19.1399 N   0  0  0  0  0  0  0  0  0  0  0  0
   -7.8659    4.6429  -17.8508 C   0  0  0  0  0  0  0  0  0  0  0  0
   -2.8382    5.4116  -19.7347 C   0  0  0  0  0  0  0  0  0  0  0  0
   -2.5540    5.0925  -18.3807 C   0  0  0  0  0  0  0  0  0  0  0  0
   -1.3412    5.4595  -17.8039 C   0  0  0  0  0  0  0  0  0  0  0  0
   -0.3581    6.0234  -18.5952 C   0  0  0  0  0  0  0  0  0  0  0  0
    0.8214    6.3480  -18.0504 F   0  0  0  0  0  0  0  0  0  0  0  0
   -0.5782    6.2443  -19.9445 C   0  0  0  0  0  0  0  0  0  0  0  0
   -1.8023    5.9572  -20.5231 C   0  0  0  0  0  0  0  0  0  0  0  0
   -1.9420    6.2491  -21.8239 N   0  0  0  0  0  0  0  0  0  0  0  0
  1  2  1  0
  2  3  2  0
  3  4  1  0
  4  5  1  0
  5  6  2  0
  5  7  1  0
  7  8  1  0
  8  9  2  0
  9 10  1  0
 10 11  1  0
 11 12  1  0
 11 13  1  0
 11 14  1  0
 10 15  2  0
 15 16  1  0
 16 17  2  0
 17 18  1  0
 18 19  2  0
 19 20  1  0
 20 21  2  0
  4 22  2  0
 22 23  1  0
 23 24  2  0
 24 25  1  0
 25 26  1  0
 25 27  2  0
 27 28  1  0
 28 29  2  0
 29  2  1  0
 21  8  1  0
 28 22  1  0
 21 16  1  0
M  END
>  <energy_score>  (887) 
-0.648383

>  <alias>  (887) 
None

>  <HIPPO Pose ID>  (887) 
70321

>  <smiles>  (887) 
Cc1cc(C(=O)Nc2cc(C(F)(F)F)cc3cccnc23)c2ccc(F)cc2n1

>  <inchikey>  (887) 
FHSMBLMYNSDIJI-UHFFFAOYSA-N

>  <distance_score>  (887) 
1.078596

>  <ref_mols>  (887) 
Z0917a,Z0852a

>  <ref_pdb>  (887) 
Z0852a

>  <HIPPO Compound ID>  (887) 
142258

>  <name>  (887) 
P70321

>  <inspiration_score>  (887) 
None

$$$$
P70322
     RDKit          3D

 29 32  0  0  0  0  0  0  0  0999 V2000
   -3.2231    6.4017  -24.0331 C   0  0  0  0  0  0  0  0  0  0  0  0
   -3.1274    6.0566  -22.5785 C   0  0  0  0  0  0  0  0  0  0  0  0
   -4.2187    5.5611  -21.9001 C   0  0  0  0  0  0  0  0  0  0  0  0
   -4.0716    5.2302  -20.5509 C   0  0  0  0  0  0  0  0  0  0  0  0
   -5.3002    4.6992  -19.9074 C   0  0  0  0  0  0  0  0  0  0  0  0
   -5.9377    3.9356  -20.5252 O   0  0  0  0  0  0  0  0  0  0  0  0
   -5.5062    5.2533  -18.4678 N   0  0  0  0  0  0  0  0  0  0  0  0
   -6.5561    5.0598  -17.5599 C   0  0  0  0  0  0  0  0  0  0  0  0
   -6.3175    5.4124  -16.2176 C   0  0  0  0  0  0  0  0  0  0  0  0
   -7.2975    5.2424  -15.2220 C   0  0  0  0  0  0  0  0  0  0  0  0
   -7.1083    5.7429  -13.7913 C   0  0  0  0  0  0  0  0  0  0  0  0
   -8.3949    5.6598  -12.9585 C   0  0  0  0  0  0  0  0  0  0  0  0
   -6.6937    7.2260  -13.7818 C   0  0  0  0  0  0  0  0  0  0  0  0
   -6.0365    4.8994  -13.0931 C   0  0  0  0  0  0  0  0  0  0  0  0
   -8.4892    4.6401  -15.5996 C   0  0  0  0  0  0  0  0  0  0  0  0
   -8.7658    4.4342  -16.9364 C   0  0  0  0  0  0  0  0  0  0  0  0
  -10.0719    4.1814  -17.2704 C   0  0  0  0  0  0  0  0  0  0  0  0
  -10.4855    4.3549  -18.5534 C   0  0  0  0  0  0  0  0  0  0  0  0
   -9.5076    4.4842  -19.4983 C   0  0  0  0  0  0  0  0  0  0  0  0
   -8.1990    4.5517  -19.2197 N   0  0  0  0  0  0  0  0  0  0  0  0
   -7.8221    4.6325  -17.9451 C   0  0  0  0  0  0  0  0  0  0  0  0
   -2.8268    5.3869  -19.8955 C   0  0  0  0  0  0  0  0  0  0  0  0
   -2.5385    5.0527  -18.5455 C   0  0  0  0  0  0  0  0  0  0  0  0
   -1.3263    5.4183  -17.9672 C   0  0  0  0  0  0  0  0  0  0  0  0
   -0.3445    5.9892  -18.7546 C   0  0  0  0  0  0  0  0  0  0  0  0
    0.8335    6.3151  -18.2069 F   0  0  0  0  0  0  0  0  0  0  0  0
   -0.5671    6.2220  -20.1012 C   0  0  0  0  0  0  0  0  0  0  0  0
   -1.7931    5.9420  -20.6791 C   0  0  0  0  0  0  0  0  0  0  0  0
   -1.9383    6.2545  -21.9743 N   0  0  0  0  0  0  0  0  0  0  0  0
  1  2  1  0
  2  3  2  0
  3  4  1  0
  4  5  1  0
  5  6  2  0
  5  7  1  0
  7  8  1  0
  8  9  2  0
  9 10  1  0
 10 11  1  0
 11 12  1  0
 11 13  1  0
 11 14  1  0
 10 15  2  0
 15 16  1  0
 16 17  2  0
 17 18  1  0
 18 19  2  0
 19 20  1  0
 20 21  2  0
  4 22  2  0
 22 23  1  0
 23 24  2  0
 24 25  1  0
 25 26  1  0
 25 27  2  0
 27 28  1  0
 28 29  2  0
 29  2  1  0
 21  8  1  0
 28 22  1  0
 21 16  1  0
M  END
>  <energy_score>  (888) 
-27.771371

>  <alias>  (888) 
None

>  <HIPPO Pose ID>  (888) 
70322

>  <smiles>  (888) 
Cc1cc(C(=O)Nc2cc(C(C)(C)C)cc3cccnc23)c2ccc(F)cc2n1

>  <inchikey>  (888) 
QYGLQLYHVYKLMV-UHFFFAOYSA-N

>  <distance_score>  (888) 
1.403249

>  <ref_mols>  (888) 
Z0917a,Z0852a

>  <ref_pdb>  (888) 
Z0852a

>  <HIPPO Compound ID>  (888) 
142259

>  <name>  (888) 
P70322

>  <inspiration_score>  (888) 
None

$$$$
P70323
     RDKit          3D

 29 32  0  0  0  0  0  0  0  0999 V2000
   -5.2288    5.9806  -22.4214 C   0  0  0  0  0  0  0  0  0  0  0  0
   -4.0063    5.7907  -21.5727 C   0  0  0  0  0  0  0  0  0  0  0  0
   -3.9988    5.3548  -20.2898 C   0  0  0  0  0  0  0  0  0  0  0  0
   -5.3003    4.8268  -19.7493 C   0  0  0  0  0  0  0  0  0  0  0  0
   -5.9048    4.0265  -20.3538 O   0  0  0  0  0  0  0  0  0  0  0  0
   -5.6004    5.4906  -18.3684 N   0  0  0  0  0  0  0  0  0  0  0  0
   -6.6228    5.2403  -17.4408 C   0  0  0  0  0  0  0  0  0  0  0  0
   -6.4169    5.5940  -16.0948 C   0  0  0  0  0  0  0  0  0  0  0  0
   -7.4002    5.3304  -15.1220 C   0  0  0  0  0  0  0  0  0  0  0  0
   -7.3046    5.8216  -13.7043 C   0  0  0  0  0  0  0  0  0  0  0  0
   -7.2026    7.1802  -13.6491 F   0  0  0  0  0  0  0  0  0  0  0  0
   -6.2301    5.3295  -13.0395 F   0  0  0  0  0  0  0  0  0  0  0  0
   -8.3990    5.5177  -12.9475 F   0  0  0  0  0  0  0  0  0  0  0  0
   -8.5605    4.6769  -15.5022 C   0  0  0  0  0  0  0  0  0  0  0  0
   -8.8042    4.4697  -16.8447 C   0  0  0  0  0  0  0  0  0  0  0  0
  -10.0867    4.1518  -17.2065 C   0  0  0  0  0  0  0  0  0  0  0  0
  -10.4885    4.3118  -18.4966 C   0  0  0  0  0  0  0  0  0  0  0  0
   -9.5077    4.5061  -19.4270 C   0  0  0  0  0  0  0  0  0  0  0  0
   -8.2114    4.6521  -19.1216 N   0  0  0  0  0  0  0  0  0  0  0  0
   -7.8585    4.7335  -17.8398 C   0  0  0  0  0  0  0  0  0  0  0  0
   -2.7532    5.3968  -19.4930 C   0  0  0  0  0  0  0  0  0  0  0  0
   -2.6734    5.0583  -18.1362 C   0  0  0  0  0  0  0  0  0  0  0  0
   -1.5303    5.3646  -17.3926 C   0  0  0  0  0  0  0  0  0  0  0  0
   -0.3962    5.8727  -18.0188 C   0  0  0  0  0  0  0  0  0  0  0  0
   -0.4124    6.0917  -19.3904 C   0  0  0  0  0  0  0  0  0  0  0  0
   -1.5915    5.8774  -20.1082 C   0  0  0  0  0  0  0  0  0  0  0  0
   -1.6075    6.1896  -21.4644 N   0  0  0  0  0  0  0  0  0  0  0  0
   -2.7269    6.1732  -22.2367 C   0  0  0  0  0  0  0  0  0  0  0  0
   -2.6690    6.5063  -23.4172 O   0  0  0  0  0  0  0  0  0  0  0  0
  1  2  1  0
  2  3  2  0
  3  4  1  0
  4  5  2  0
  4  6  1  0
  6  7  1  0
  7  8  2  0
  8  9  1  0
  9 10  1  0
 10 11  1  0
 10 12  1  0
 10 13  1  0
  9 14  2  0
 14 15  1  0
 15 16  2  0
 16 17  1  0
 17 18  2  0
 18 19  1  0
 19 20  2  0
  3 21  1  0
 21 22  2  0
 22 23  1  0
 23 24  2  0
 24 25  1  0
 25 26  2  0
 26 27  1  0
 27 28  1  0
 28 29  2  0
 28  2  1  0
 20  7  1  0
 26 21  1  0
 20 15  1  0
M  END
>  <energy_score>  (889) 
-9.747516

>  <alias>  (889) 
None

>  <HIPPO Pose ID>  (889) 
70323

>  <smiles>  (889) 
Cc1c(C(=O)Nc2cc(C(F)(F)F)cc3cccnc23)c2ccccc2[nH]c1=O

>  <inchikey>  (889) 
FHEDDJDXIIWXEP-UHFFFAOYSA-N

>  <distance_score>  (889) 
1.089586

>  <ref_mols>  (889) 
Z0917a,Z0852a

>  <ref_pdb>  (889) 
Z0852a

>  <HIPPO Compound ID>  (889) 
142266

>  <name>  (889) 
P70323

>  <inspiration_score>  (889) 
None

$$$$
P70324
     RDKit          3D

 29 32  0  0  0  0  0  0  0  0999 V2000
   -3.0803    6.3081  -23.8704 C   0  0  0  0  0  0  0  0  0  0  0  0
   -3.0545    6.0030  -22.4047 C   0  0  0  0  0  0  0  0  0  0  0  0
   -4.1719    5.5197  -21.7656 C   0  0  0  0  0  0  0  0  0  0  0  0
   -4.0808    5.2191  -20.4046 C   0  0  0  0  0  0  0  0  0  0  0  0
   -5.3385    4.7104  -19.8019 C   0  0  0  0  0  0  0  0  0  0  0  0
   -5.9442    3.9293  -20.4313 O   0  0  0  0  0  0  0  0  0  0  0  0
   -5.6400    5.3347  -18.4059 N   0  0  0  0  0  0  0  0  0  0  0  0
   -6.6655    5.0620  -17.4890 C   0  0  0  0  0  0  0  0  0  0  0  0
   -6.4561    5.3755  -16.1303 C   0  0  0  0  0  0  0  0  0  0  0  0
   -7.4571    5.1545  -15.1662 C   0  0  0  0  0  0  0  0  0  0  0  0
   -7.4211    5.6655  -13.7253 C   0  0  0  0  0  0  0  0  0  0  0  0
   -6.0702    6.2560  -13.3104 C   0  0  0  0  0  0  0  0  0  0  0  0
   -7.8096    4.5650  -12.7210 C   0  0  0  0  0  0  0  0  0  0  0  0
   -8.4414    6.8026  -13.6039 C   0  0  0  0  0  0  0  0  0  0  0  0
   -8.6358    4.5528  -15.5929 C   0  0  0  0  0  0  0  0  0  0  0  0
   -8.8825    4.3890  -16.9396 C   0  0  0  0  0  0  0  0  0  0  0  0
  -10.1824    4.1672  -17.3178 C   0  0  0  0  0  0  0  0  0  0  0  0
  -10.5615    4.4047  -18.5994 C   0  0  0  0  0  0  0  0  0  0  0  0
   -9.5596    4.5399  -19.5149 C   0  0  0  0  0  0  0  0  0  0  0  0
   -8.2594    4.5810  -19.2011 N   0  0  0  0  0  0  0  0  0  0  0  0
   -7.9157    4.6236  -17.9150 C   0  0  0  0  0  0  0  0  0  0  0  0
   -2.8647    5.3821  -19.7023 C   0  0  0  0  0  0  0  0  0  0  0  0
   -2.6490    5.0424  -18.3430 C   0  0  0  0  0  0  0  0  0  0  0  0
   -1.4802    5.4139  -17.6886 C   0  0  0  0  0  0  0  0  0  0  0  0
   -0.4495    5.9990  -18.4053 C   0  0  0  0  0  0  0  0  0  0  0  0
   -0.5929    6.2246  -19.7803 C   0  0  0  0  0  0  0  0  0  0  0  0
    0.5631    6.8034  -20.5545 C   0  0  0  0  0  0  0  0  0  0  0  0
   -1.7961    5.9362  -20.4366 C   0  0  0  0  0  0  0  0  0  0  0  0
   -1.8990    6.2246  -21.7479 N   0  0  0  0  0  0  0  0  0  0  0  0
  1  2  1  0
  2  3  2  0
  3  4  1  0
  4  5  1  0
  5  6  2  0
  5  7  1  0
  7  8  1  0
  8  9  2  0
  9 10  1  0
 10 11  1  0
 11 12  1  0
 11 13  1  0
 11 14  1  0
 10 15  2  0
 15 16  1  0
 16 17  2  0
 17 18  1  0
 18 19  2  0
 19 20  1  0
 20 21  2  0
  4 22  2  0
 22 23  1  0
 23 24  2  0
 24 25  1  0
 25 26  2  0
 26 27  1  0
 26 28  1  0
 28 29  2  0
 29  2  1  0
 21  8  1  0
 28 22  1  0
 21 16  1  0
M  END
>  <energy_score>  (890) 
-11.011822

>  <alias>  (890) 
None

>  <HIPPO Pose ID>  (890) 
70324

>  <smiles>  (890) 
Cc1cc(C(=O)Nc2cc(C(C)(C)C)cc3cccnc23)c2cccc(C)c2n1

>  <inchikey>  (890) 
AKSVFYSRYFROOQ-UHFFFAOYSA-N

>  <distance_score>  (890) 
1.3358

>  <ref_mols>  (890) 
Z0917a,Z0852a

>  <ref_pdb>  (890) 
Z0852a

>  <HIPPO Compound ID>  (890) 
142269

>  <name>  (890) 
P70324

>  <inspiration_score>  (890) 
None

$$$$
P70325
     RDKit          3D

 29 32  0  0  0  0  0  0  0  0999 V2000
   -2.7349    4.2614  -18.4319 C   0  0  0  0  0  0  0  0  0  0  0  0
   -2.7977    5.0438  -19.7034 C   0  0  0  0  0  0  0  0  0  0  0  0
   -1.6387    5.5297  -20.2866 C   0  0  0  0  0  0  0  0  0  0  0  0
   -0.1117    5.4793  -19.4884 Cl  0  0  0  0  0  0  0  0  0  0  0  0
   -1.5754    6.1594  -21.4744 N   0  0  0  0  0  0  0  0  0  0  0  0
   -2.7024    6.3228  -22.1696 C   0  0  0  0  0  0  0  0  0  0  0  0
   -2.6132    6.9454  -23.4090 C   0  0  0  0  0  0  0  0  0  0  0  0
   -3.7387    7.1945  -24.1949 C   0  0  0  0  0  0  0  0  0  0  0  0
   -4.9866    6.8158  -23.7310 C   0  0  0  0  0  0  0  0  0  0  0  0
   -5.0894    6.1878  -22.4904 C   0  0  0  0  0  0  0  0  0  0  0  0
   -3.9573    5.9224  -21.6845 C   0  0  0  0  0  0  0  0  0  0  0  0
   -3.9802    5.2909  -20.4096 C   0  0  0  0  0  0  0  0  0  0  0  0
   -5.2755    4.8184  -19.8496 C   0  0  0  0  0  0  0  0  0  0  0  0
   -5.9120    4.0735  -20.4927 O   0  0  0  0  0  0  0  0  0  0  0  0
   -5.5428    5.4143  -18.4279 N   0  0  0  0  0  0  0  0  0  0  0  0
   -6.5713    5.1450  -17.5015 C   0  0  0  0  0  0  0  0  0  0  0  0
   -6.3552    5.4772  -16.1474 C   0  0  0  0  0  0  0  0  0  0  0  0
   -7.3504    5.2545  -15.1740 C   0  0  0  0  0  0  0  0  0  0  0  0
   -7.2538    5.7605  -13.7597 C   0  0  0  0  0  0  0  0  0  0  0  0
   -8.3427    5.4533  -12.9952 F   0  0  0  0  0  0  0  0  0  0  0  0
   -7.1673    7.1211  -13.7174 F   0  0  0  0  0  0  0  0  0  0  0  0
   -6.1728    5.2868  -13.0929 F   0  0  0  0  0  0  0  0  0  0  0  0
   -8.5329    4.6456  -15.5558 C   0  0  0  0  0  0  0  0  0  0  0  0
   -8.7813    4.4466  -16.8977 C   0  0  0  0  0  0  0  0  0  0  0  0
  -10.0770    4.1718  -17.2500 C   0  0  0  0  0  0  0  0  0  0  0  0
  -10.4778    4.3418  -18.5379 C   0  0  0  0  0  0  0  0  0  0  0  0
   -9.4924    4.4925  -19.4713 C   0  0  0  0  0  0  0  0  0  0  0  0
   -8.1893    4.5938  -19.1746 N   0  0  0  0  0  0  0  0  0  0  0  0
   -7.8265    4.6792  -17.8967 C   0  0  0  0  0  0  0  0  0  0  0  0
  1  2  1  0
  2  3  2  0
  3  4  1  0
  3  5  1  0
  5  6  2  0
  6  7  1  0
  7  8  2  0
  8  9  1  0
  9 10  2  0
 10 11  1  0
 11 12  2  0
 12 13  1  0
 13 14  2  0
 13 15  1  0
 15 16  1  0
 16 17  2  0
 17 18  1  0
 18 19  1  0
 19 20  1  0
 19 21  1  0
 19 22  1  0
 18 23  2  0
 23 24  1  0
 24 25  2  0
 25 26  1  0
 26 27  2  0
 27 28  1  0
 28 29  2  0
 12  2  1  0
 29 16  1  0
 11  6  1  0
 29 24  1  0
M  END
>  <energy_score>  (891) 
-17.416762

>  <alias>  (891) 
None

>  <HIPPO Pose ID>  (891) 
70325

>  <smiles>  (891) 
Cc1c(Cl)nc2ccccc2c1C(=O)Nc1cc(C(F)(F)F)cc2cccnc12

>  <inchikey>  (891) 
RKMNRXALGHZXLY-UHFFFAOYSA-N

>  <distance_score>  (891) 
1.100414

>  <ref_mols>  (891) 
Z0917a,Z0852a

>  <ref_pdb>  (891) 
Z0852a

>  <HIPPO Compound ID>  (891) 
142271

>  <name>  (891) 
P70325

>  <inspiration_score>  (891) 
None

$$$$
P70326
     RDKit          3D

 29 32  0  0  0  0  0  0  0  0999 V2000
   -2.7867    4.2747  -18.4650 C   0  0  0  0  0  0  0  0  0  0  0  0
   -2.8302    5.0316  -19.7537 C   0  0  0  0  0  0  0  0  0  0  0  0
   -1.6633    5.5175  -20.3207 C   0  0  0  0  0  0  0  0  0  0  0  0
   -0.1490    5.4788  -19.4973 Cl  0  0  0  0  0  0  0  0  0  0  0  0
   -1.5827    6.1425  -21.5101 N   0  0  0  0  0  0  0  0  0  0  0  0
   -2.7002    6.3083  -22.2201 C   0  0  0  0  0  0  0  0  0  0  0  0
   -2.5931    6.9350  -23.4560 C   0  0  0  0  0  0  0  0  0  0  0  0
   -3.7076    7.1939  -24.2542 C   0  0  0  0  0  0  0  0  0  0  0  0
   -4.9634    6.8226  -23.8059 C   0  0  0  0  0  0  0  0  0  0  0  0
   -5.0846    6.1896  -22.5695 C   0  0  0  0  0  0  0  0  0  0  0  0
   -3.9626    5.9098  -21.7532 C   0  0  0  0  0  0  0  0  0  0  0  0
   -4.0023    5.2709  -20.4824 C   0  0  0  0  0  0  0  0  0  0  0  0
   -5.3073    4.7982  -19.9424 C   0  0  0  0  0  0  0  0  0  0  0  0
   -5.9582    4.0830  -20.6040 O   0  0  0  0  0  0  0  0  0  0  0  0
   -5.5763    5.3859  -18.5195 N   0  0  0  0  0  0  0  0  0  0  0  0
   -6.6263    5.1417  -17.6131 C   0  0  0  0  0  0  0  0  0  0  0  0
   -6.4216    5.5027  -16.2671 C   0  0  0  0  0  0  0  0  0  0  0  0
   -7.4073    5.2969  -15.2732 C   0  0  0  0  0  0  0  0  0  0  0  0
   -7.2066    5.7130  -13.8188 C   0  0  0  0  0  0  0  0  0  0  0  0
   -6.0620    4.8636  -13.2809 C   0  0  0  0  0  0  0  0  0  0  0  0
   -6.8592    7.2082  -13.7192 C   0  0  0  0  0  0  0  0  0  0  0  0
   -8.4331    5.4901  -12.9015 C   0  0  0  0  0  0  0  0  0  0  0  0
   -8.5858    4.6853  -15.6578 C   0  0  0  0  0  0  0  0  0  0  0  0
   -8.8335    4.4663  -16.9952 C   0  0  0  0  0  0  0  0  0  0  0  0
  -10.1335    4.2062  -17.3390 C   0  0  0  0  0  0  0  0  0  0  0  0
  -10.5298    4.3946  -18.6219 C   0  0  0  0  0  0  0  0  0  0  0  0
   -9.5396    4.4973  -19.5567 C   0  0  0  0  0  0  0  0  0  0  0  0
   -8.2333    4.5496  -19.2694 N   0  0  0  0  0  0  0  0  0  0  0  0
   -7.8751    4.6669  -17.9962 C   0  0  0  0  0  0  0  0  0  0  0  0
  1  2  1  0
  2  3  2  0
  3  4  1  0
  3  5  1  0
  5  6  2  0
  6  7  1  0
  7  8  2  0
  8  9  1  0
  9 10  2  0
 10 11  1  0
 11 12  2  0
 12 13  1  0
 13 14  2  0
 13 15  1  0
 15 16  1  0
 16 17  2  0
 17 18  1  0
 18 19  1  0
 19 20  1  0
 19 21  1  0
 19 22  1  0
 18 23  2  0
 23 24  1  0
 24 25  2  0
 25 26  1  0
 26 27  2  0
 27 28  1  0
 28 29  2  0
 12  2  1  0
 29 16  1  0
 11  6  1  0
 29 24  1  0
M  END
>  <energy_score>  (892) 
-17.533628

>  <alias>  (892) 
None

>  <HIPPO Pose ID>  (892) 
70326

>  <smiles>  (892) 
Cc1c(Cl)nc2ccccc2c1C(=O)Nc1cc(C(C)(C)C)cc2cccnc12

>  <inchikey>  (892) 
KPHHWNDKICJKCD-UHFFFAOYSA-N

>  <distance_score>  (892) 
1.355334

>  <ref_mols>  (892) 
Z0917a,Z0852a

>  <ref_pdb>  (892) 
Z0852a

>  <HIPPO Compound ID>  (892) 
142272

>  <name>  (892) 
P70326

>  <inspiration_score>  (892) 
None

$$$$
P70327
     RDKit          3D

 29 32  0  0  0  0  0  0  0  0999 V2000
   -6.4151    4.8561  -11.5101 C   0  0  0  0  0  0  0  0  0  0  0  0
   -6.9134    4.8197  -12.8475 O   0  0  0  0  0  0  0  0  0  0  0  0
   -5.9791    5.0593  -13.7984 C   0  0  0  0  0  0  0  0  0  0  0  0
   -4.8097    5.3508  -13.6013 O   0  0  0  0  0  0  0  0  0  0  0  0
   -6.5723    4.9434  -15.1561 C   0  0  0  0  0  0  0  0  0  0  0  0
   -5.7804    5.2639  -16.2603 C   0  0  0  0  0  0  0  0  0  0  0  0
   -6.2643    5.1120  -17.5702 C   0  0  0  0  0  0  0  0  0  0  0  0
   -5.3330    5.3638  -18.5834 N   0  0  0  0  0  0  0  0  0  0  0  0
   -5.2400    4.8016  -20.0367 C   0  0  0  0  0  0  0  0  0  0  0  0
   -5.9708    4.1044  -20.6287 O   0  0  0  0  0  0  0  0  0  0  0  0
   -3.9380    5.2702  -20.6184 C   0  0  0  0  0  0  0  0  0  0  0  0
   -2.7962    4.9983  -19.9486 C   0  0  0  0  0  0  0  0  0  0  0  0
   -2.6409    4.2383  -18.6640 C   0  0  0  0  0  0  0  0  0  0  0  0
   -1.4879    5.4282  -20.5201 C   0  0  0  0  0  0  0  0  0  0  0  0
   -0.4670    5.4365  -19.8393 O   0  0  0  0  0  0  0  0  0  0  0  0
   -1.4779    5.8290  -21.8211 N   0  0  0  0  0  0  0  0  0  0  0  0
   -2.6345    6.0919  -22.5546 C   0  0  0  0  0  0  0  0  0  0  0  0
   -2.5186    6.6231  -23.8419 C   0  0  0  0  0  0  0  0  0  0  0  0
   -3.6664    6.9697  -24.5519 C   0  0  0  0  0  0  0  0  0  0  0  0
   -4.9185    6.7920  -23.9700 C   0  0  0  0  0  0  0  0  0  0  0  0
   -5.0219    6.2511  -22.6847 C   0  0  0  0  0  0  0  0  0  0  0  0
   -3.8834    5.8777  -21.9633 C   0  0  0  0  0  0  0  0  0  0  0  0
   -7.5864    4.7312  -17.7980 C   0  0  0  0  0  0  0  0  0  0  0  0
   -8.1250    4.7240  -19.0207 N   0  0  0  0  0  0  0  0  0  0  0  0
   -9.4420    4.5049  -19.1618 C   0  0  0  0  0  0  0  0  0  0  0  0
  -10.2787    4.2165  -18.1150 C   0  0  0  0  0  0  0  0  0  0  0  0
   -9.7118    4.1433  -16.8616 C   0  0  0  0  0  0  0  0  0  0  0  0
   -8.3789    4.4517  -16.6722 C   0  0  0  0  0  0  0  0  0  0  0  0
   -7.8780    4.5173  -15.3693 C   0  0  0  0  0  0  0  0  0  0  0  0
  1  2  1  0
  2  3  1  0
  3  4  2  0
  3  5  1  0
  5  6  2  0
  6  7  1  0
  7  8  1  0
  8  9  1  0
  9 10  2  0
  9 11  1  0
 11 12  2  0
 12 13  1  0
 12 14  1  0
 14 15  2  0
 14 16  1  0
 16 17  1  0
 17 18  2  0
 18 19  1  0
 19 20  2  0
 20 21  1  0
 21 22  2  0
  7 23  2  0
 23 24  1  0
 24 25  2  0
 25 26  1  0
 26 27  2  0
 27 28  1  0
 28 29  2  0
 29  5  1  0
 22 11  1  0
 28 23  1  0
 22 17  1  0
M  END
>  <energy_score>  (893) 
-30.719981

>  <alias>  (893) 
None

>  <HIPPO Pose ID>  (893) 
70327

>  <smiles>  (893) 
COC(=O)c1cc(NC(=O)c2c(C)c(=O)[nH]c3ccccc23)c2ncccc2c1

>  <inchikey>  (893) 
XMENUCSPAUEBCK-UHFFFAOYSA-N

>  <distance_score>  (893) 
1.675823

>  <ref_mols>  (893) 
Z0917a,Z0852a

>  <ref_pdb>  (893) 
Z0852a

>  <HIPPO Compound ID>  (893) 
142273

>  <name>  (893) 
P70327

>  <inspiration_score>  (893) 
None

$$$$
P70328
     RDKit          3D

 29 32  0  0  0  0  0  0  0  0999 V2000
   -5.9646    4.1129  -20.5069 O   0  0  0  0  0  0  0  0  0  0  0  0
   -5.2744    4.7550  -19.8111 C   0  0  0  0  0  0  0  0  0  0  0  0
   -5.4623    5.1918  -18.3213 N   0  0  0  0  0  0  0  0  0  0  0  0
   -6.5521    5.0104  -17.4449 C   0  0  0  0  0  0  0  0  0  0  0  0
   -6.3540    5.3295  -16.0849 C   0  0  0  0  0  0  0  0  0  0  0  0
   -7.3890    5.1790  -15.1418 C   0  0  0  0  0  0  0  0  0  0  0  0
   -7.2993    5.6926  -13.7295 C   0  0  0  0  0  0  0  0  0  0  0  0
   -6.2165    5.2285  -13.0589 F   0  0  0  0  0  0  0  0  0  0  0  0
   -7.2190    7.0539  -13.6958 F   0  0  0  0  0  0  0  0  0  0  0  0
   -8.3881    5.3835  -12.9675 F   0  0  0  0  0  0  0  0  0  0  0  0
   -8.5959    4.6438  -15.5568 C   0  0  0  0  0  0  0  0  0  0  0  0
   -8.8173    4.4463  -16.9046 C   0  0  0  0  0  0  0  0  0  0  0  0
  -10.1115    4.2171  -17.2968 C   0  0  0  0  0  0  0  0  0  0  0  0
  -10.4661    4.3897  -18.5964 C   0  0  0  0  0  0  0  0  0  0  0  0
   -9.4478    4.4765  -19.4993 C   0  0  0  0  0  0  0  0  0  0  0  0
   -8.1517    4.5302  -19.1619 N   0  0  0  0  0  0  0  0  0  0  0  0
   -7.8232    4.6234  -17.8757 C   0  0  0  0  0  0  0  0  0  0  0  0
   -3.9583    5.1666  -20.3382 C   0  0  0  0  0  0  0  0  0  0  0  0
   -2.8270    4.7811  -19.6239 C   0  0  0  0  0  0  0  0  0  0  0  0
   -2.8740    4.1382  -18.4193 O   0  0  0  0  0  0  0  0  0  0  0  0
   -1.6017    5.0539  -20.1863 C   0  0  0  0  0  0  0  0  0  0  0  0
   -1.4491    5.6776  -21.3760 N   0  0  0  0  0  0  0  0  0  0  0  0
   -2.5389    6.0393  -22.0640 C   0  0  0  0  0  0  0  0  0  0  0  0
   -2.3546    6.6772  -23.2837 C   0  0  0  0  0  0  0  0  0  0  0  0
   -3.4302    7.1233  -24.0535 C   0  0  0  0  0  0  0  0  0  0  0  0
   -4.7214    6.9252  -23.5918 C   0  0  0  0  0  0  0  0  0  0  0  0
   -6.0549    7.4977  -24.5119 Cl  0  0  0  0  0  0  0  0  0  0  0  0
   -4.9320    6.2735  -22.3795 C   0  0  0  0  0  0  0  0  0  0  0  0
   -3.8456    5.8166  -21.5931 C   0  0  0  0  0  0  0  0  0  0  0  0
  1  2  2  0
  2  3  1  0
  3  4  1  0
  4  5  2  0
  5  6  1  0
  6  7  1  0
  7  8  1  0
  7  9  1  0
  7 10  1  0
  6 11  2  0
 11 12  1  0
 12 13  2  0
 13 14  1  0
 14 15  2  0
 15 16  1  0
 16 17  2  0
  2 18  1  0
 18 19  2  0
 19 20  1  0
 19 21  1  0
 21 22  2  0
 22 23  1  0
 23 24  2  0
 24 25  1  0
 25 26  2  0
 26 27  1  0
 26 28  1  0
 28 29  2  0
 17  4  1  0
 29 18  1  0
 17 12  1  0
 29 23  1  0
M  END
>  <energy_score>  (894) 
-17.72765

>  <alias>  (894) 
None

>  <HIPPO Pose ID>  (894) 
70328

>  <smiles>  (894) 
O=C(Nc1cc(C(F)(F)F)cc2cccnc12)c1c(O)cnc2ccc(Cl)cc12

>  <inchikey>  (894) 
UAMCUPLDALRNEY-UHFFFAOYSA-N

>  <distance_score>  (894) 
0.958911

>  <ref_mols>  (894) 
Z0917a,Z0852a

>  <ref_pdb>  (894) 
Z0852a

>  <HIPPO Compound ID>  (894) 
142275

>  <name>  (894) 
P70328

>  <inspiration_score>  (894) 
None

$$$$
P70329
     RDKit          3D

 29 32  0  0  0  0  0  0  0  0999 V2000
   -4.1318    5.4920  -12.4757 C   0  0  0  0  0  0  0  0  0  0  0  0
   -4.6831    5.3371  -13.7843 O   0  0  0  0  0  0  0  0  0  0  0  0
   -6.0370    5.2428  -13.7995 C   0  0  0  0  0  0  0  0  0  0  0  0
   -6.7692    5.2972  -12.8252 O   0  0  0  0  0  0  0  0  0  0  0  0
   -6.5271    5.0591  -15.1888 C   0  0  0  0  0  0  0  0  0  0  0  0
   -5.7367    5.3420  -16.3035 C   0  0  0  0  0  0  0  0  0  0  0  0
   -6.2202    5.1397  -17.6075 C   0  0  0  0  0  0  0  0  0  0  0  0
   -5.2922    5.3945  -18.6261 N   0  0  0  0  0  0  0  0  0  0  0  0
   -5.1910    4.8183  -20.0675 C   0  0  0  0  0  0  0  0  0  0  0  0
   -5.9095    4.1030  -20.6500 O   0  0  0  0  0  0  0  0  0  0  0  0
   -3.9119    5.2566  -20.6933 C   0  0  0  0  0  0  0  0  0  0  0  0
   -2.7035    5.0161  -20.0183 C   0  0  0  0  0  0  0  0  0  0  0  0
   -2.5944    4.2601  -18.7293 C   0  0  0  0  0  0  0  0  0  0  0  0
   -1.5717    5.5364  -20.6207 C   0  0  0  0  0  0  0  0  0  0  0  0
   -0.0388    5.5748  -19.8329 Cl  0  0  0  0  0  0  0  0  0  0  0  0
   -1.5524    6.1667  -21.8100 N   0  0  0  0  0  0  0  0  0  0  0  0
   -2.7022    6.3241  -22.4704 C   0  0  0  0  0  0  0  0  0  0  0  0
   -2.6590    6.9638  -23.7034 C   0  0  0  0  0  0  0  0  0  0  0  0
   -3.8132    7.2252  -24.4430 C   0  0  0  0  0  0  0  0  0  0  0  0
   -5.0449    6.8468  -23.9362 C   0  0  0  0  0  0  0  0  0  0  0  0
   -5.1035    6.2012  -22.7021 C   0  0  0  0  0  0  0  0  0  0  0  0
   -3.9391    5.9122  -21.9514 C   0  0  0  0  0  0  0  0  0  0  0  0
   -7.5395    4.7354  -17.8190 C   0  0  0  0  0  0  0  0  0  0  0  0
   -8.0806    4.6840  -19.0388 N   0  0  0  0  0  0  0  0  0  0  0  0
   -9.3966    4.4506  -19.1674 C   0  0  0  0  0  0  0  0  0  0  0  0
  -10.2290    4.1875  -18.1093 C   0  0  0  0  0  0  0  0  0  0  0  0
   -9.6610    4.1606  -16.8544 C   0  0  0  0  0  0  0  0  0  0  0  0
   -8.3299    4.4887  -16.6811 C   0  0  0  0  0  0  0  0  0  0  0  0
   -7.8296    4.6154  -15.3829 C   0  0  0  0  0  0  0  0  0  0  0  0
  1  2  1  0
  2  3  1  0
  3  4  2  0
  3  5  1  0
  5  6  2  0
  6  7  1  0
  7  8  1  0
  8  9  1  0
  9 10  2  0
  9 11  1  0
 11 12  2  0
 12 13  1  0
 12 14  1  0
 14 15  1  0
 14 16  2  0
 16 17  1  0
 17 18  2  0
 18 19  1  0
 19 20  2  0
 20 21  1  0
 21 22  2  0
  7 23  2  0
 23 24  1  0
 24 25  2  0
 25 26  1  0
 26 27  2  0
 27 28  1  0
 28 29  2  0
 29  5  1  0
 22 11  1  0
 28 23  1  0
 22 17  1  0
M  END
>  <energy_score>  (895) 
-27.298397

>  <alias>  (895) 
None

>  <HIPPO Pose ID>  (895) 
70329

>  <smiles>  (895) 
COC(=O)c1cc(NC(=O)c2c(C)c(Cl)nc3ccccc23)c2ncccc2c1

>  <inchikey>  (895) 
NTBQOMUDTIWBQR-UHFFFAOYSA-N

>  <distance_score>  (895) 
1.843523

>  <ref_mols>  (895) 
Z0917a,Z0852a

>  <ref_pdb>  (895) 
Z0852a

>  <HIPPO Compound ID>  (895) 
142276

>  <name>  (895) 
P70329

>  <inspiration_score>  (895) 
None

$$$$
P70330
     RDKit          3D

 29 32  0  0  0  0  0  0  0  0999 V2000
   -6.2086    4.7071  -11.5698 C   0  0  0  0  0  0  0  0  0  0  0  0
   -6.7491    4.6913  -12.8912 O   0  0  0  0  0  0  0  0  0  0  0  0
   -5.8647    5.0318  -13.8590 C   0  0  0  0  0  0  0  0  0  0  0  0
   -4.7074    5.3806  -13.6841 O   0  0  0  0  0  0  0  0  0  0  0  0
   -6.4959    4.9434  -15.2019 C   0  0  0  0  0  0  0  0  0  0  0  0
   -5.7412    5.3129  -16.3166 C   0  0  0  0  0  0  0  0  0  0  0  0
   -6.2557    5.1991  -17.6192 C   0  0  0  0  0  0  0  0  0  0  0  0
   -5.3613    5.5460  -18.6430 N   0  0  0  0  0  0  0  0  0  0  0  0
   -5.2709    5.0530  -20.1150 C   0  0  0  0  0  0  0  0  0  0  0  0
   -5.9750    4.3407  -20.7210 O   0  0  0  0  0  0  0  0  0  0  0  0
   -4.0083    5.5282  -20.7673 C   0  0  0  0  0  0  0  0  0  0  0  0
   -2.8053    5.4571  -20.0631 C   0  0  0  0  0  0  0  0  0  0  0  0
   -2.7462    5.3421  -18.7030 O   0  0  0  0  0  0  0  0  0  0  0  0
   -2.6693    3.9795  -18.3238 C   0  0  0  0  0  0  0  0  0  0  0  0
   -1.6308    5.6696  -20.7532 C   0  0  0  0  0  0  0  0  0  0  0  0
   -1.5815    5.9734  -22.0645 N   0  0  0  0  0  0  0  0  0  0  0  0
   -2.7361    6.1284  -22.7255 C   0  0  0  0  0  0  0  0  0  0  0  0
   -2.6698    6.5319  -24.0535 C   0  0  0  0  0  0  0  0  0  0  0  0
   -3.8150    6.7862  -24.8097 C   0  0  0  0  0  0  0  0  0  0  0  0
   -5.0619    6.6331  -24.2272 C   0  0  0  0  0  0  0  0  0  0  0  0
   -5.1467    6.2056  -22.9021 C   0  0  0  0  0  0  0  0  0  0  0  0
   -3.9961    5.9331  -22.1262 C   0  0  0  0  0  0  0  0  0  0  0  0
   -7.5739    4.7847  -17.8226 C   0  0  0  0  0  0  0  0  0  0  0  0
   -8.1432    4.7781  -19.0303 N   0  0  0  0  0  0  0  0  0  0  0  0
   -9.4579    4.5306  -19.1450 C   0  0  0  0  0  0  0  0  0  0  0  0
  -10.2657    4.2149  -18.0837 C   0  0  0  0  0  0  0  0  0  0  0  0
   -9.6703    4.1415  -16.8429 C   0  0  0  0  0  0  0  0  0  0  0  0
   -8.3353    4.4655  -16.6830 C   0  0  0  0  0  0  0  0  0  0  0  0
   -7.8021    4.5076  -15.3920 C   0  0  0  0  0  0  0  0  0  0  0  0
  1  2  1  0
  2  3  1  0
  3  4  2  0
  3  5  1  0
  5  6  2  0
  6  7  1  0
  7  8  1  0
  8  9  1  0
  9 10  2  0
  9 11  1  0
 11 12  2  0
 12 13  1  0
 13 14  1  0
 12 15  1  0
 15 16  2  0
 16 17  1  0
 17 18  2  0
 18 19  1  0
 19 20  2  0
 20 21  1  0
 21 22  2  0
  7 23  2  0
 23 24  1  0
 24 25  2  0
 25 26  1  0
 26 27  2  0
 27 28  1  0
 28 29  2  0
 29  5  1  0
 22 11  1  0
 28 23  1  0
 22 17  1  0
M  END
>  <energy_score>  (896) 
-20.686144

>  <alias>  (896) 
None

>  <HIPPO Pose ID>  (896) 
70330

>  <smiles>  (896) 
COC(=O)c1cc(NC(=O)c2c(OC)cnc3ccccc23)c2ncccc2c1

>  <inchikey>  (896) 
OEJXZHJLJDJALK-UHFFFAOYSA-N

>  <distance_score>  (896) 
1.676236

>  <ref_mols>  (896) 
Z0917a,Z0852a

>  <ref_pdb>  (896) 
Z0852a

>  <HIPPO Compound ID>  (896) 
142277

>  <name>  (896) 
P70330

>  <inspiration_score>  (896) 
None

$$$$
P70331
     RDKit          3D

 29 32  0  0  0  0  0  0  0  0999 V2000
   -0.3844    5.2200  -19.4454 C   0  0  0  0  0  0  0  0  0  0  0  0
   -1.6638    5.3923  -20.2035 C   0  0  0  0  0  0  0  0  0  0  0  0
   -1.5669    5.9955  -21.4131 N   0  0  0  0  0  0  0  0  0  0  0  0
   -2.6706    6.1914  -22.1448 C   0  0  0  0  0  0  0  0  0  0  0  0
   -2.5299    6.8133  -23.3796 C   0  0  0  0  0  0  0  0  0  0  0  0
   -3.6258    7.0991  -24.1950 C   0  0  0  0  0  0  0  0  0  0  0  0
   -4.8977    6.7592  -23.7663 C   0  0  0  0  0  0  0  0  0  0  0  0
   -5.0536    6.1277  -22.5331 C   0  0  0  0  0  0  0  0  0  0  0  0
   -3.9494    5.8217  -21.7012 C   0  0  0  0  0  0  0  0  0  0  0  0
   -4.0221    5.1908  -20.4323 C   0  0  0  0  0  0  0  0  0  0  0  0
   -5.3198    4.7132  -19.8998 C   0  0  0  0  0  0  0  0  0  0  0  0
   -5.9888    4.0416  -20.5893 O   0  0  0  0  0  0  0  0  0  0  0  0
   -5.5127    5.1429  -18.4078 N   0  0  0  0  0  0  0  0  0  0  0  0
   -6.5849    4.9161  -17.5221 C   0  0  0  0  0  0  0  0  0  0  0  0
   -6.3778    5.2176  -16.1563 C   0  0  0  0  0  0  0  0  0  0  0  0
   -7.4029    5.0682  -15.2018 C   0  0  0  0  0  0  0  0  0  0  0  0
   -7.3658    5.6037  -13.7683 C   0  0  0  0  0  0  0  0  0  0  0  0
   -7.8279    4.5466  -12.7483 C   0  0  0  0  0  0  0  0  0  0  0  0
   -5.9962    6.1365  -13.3398 C   0  0  0  0  0  0  0  0  0  0  0  0
   -8.3283    6.7946  -13.6912 C   0  0  0  0  0  0  0  0  0  0  0  0
   -8.6062    4.5279  -15.6361 C   0  0  0  0  0  0  0  0  0  0  0  0
   -8.8456    4.3681  -16.9827 C   0  0  0  0  0  0  0  0  0  0  0  0
  -10.1539    4.2009  -17.3611 C   0  0  0  0  0  0  0  0  0  0  0  0
  -10.5146    4.4308  -18.6479 C   0  0  0  0  0  0  0  0  0  0  0  0
   -9.5009    4.4982  -19.5575 C   0  0  0  0  0  0  0  0  0  0  0  0
   -8.1998    4.4921  -19.2392 N   0  0  0  0  0  0  0  0  0  0  0  0
   -7.8577    4.5468  -17.9541 C   0  0  0  0  0  0  0  0  0  0  0  0
   -2.8708    4.9598  -19.6811 C   0  0  0  0  0  0  0  0  0  0  0  0
   -2.8928    4.3396  -18.4595 O   0  0  0  0  0  0  0  0  0  0  0  0
  1  2  1  0
  2  3  2  0
  3  4  1  0
  4  5  2  0
  5  6  1  0
  6  7  2  0
  7  8  1  0
  8  9  2  0
  9 10  1  0
 10 11  1  0
 11 12  2  0
 11 13  1  0
 13 14  1  0
 14 15  2  0
 15 16  1  0
 16 17  1  0
 17 18  1  0
 17 19  1  0
 17 20  1  0
 16 21  2  0
 21 22  1  0
 22 23  2  0
 23 24  1  0
 24 25  2  0
 25 26  1  0
 26 27  2  0
 10 28  2  0
 28 29  1  0
 28  2  1  0
  9  4  1  0
 27 14  1  0
 27 22  1  0
M  END
>  <energy_score>  (897) 
-29.655101

>  <alias>  (897) 
None

>  <HIPPO Pose ID>  (897) 
70331

>  <smiles>  (897) 
Cc1nc2ccccc2c(C(=O)Nc2cc(C(C)(C)C)cc3cccnc23)c1O

>  <inchikey>  (897) 
VEBDGXPDVOABHE-UHFFFAOYSA-N

>  <distance_score>  (897) 
1.296875

>  <ref_mols>  (897) 
Z0917a,Z0852a

>  <ref_pdb>  (897) 
Z0852a

>  <HIPPO Compound ID>  (897) 
142278

>  <name>  (897) 
P70331

>  <inspiration_score>  (897) 
None

$$$$
P70332
     RDKit          3D

 29 32  0  0  0  0  0  0  0  0999 V2000
   -5.9306    4.1109  -20.5897 O   0  0  0  0  0  0  0  0  0  0  0  0
   -5.1901    4.6133  -19.8307 C   0  0  0  0  0  0  0  0  0  0  0  0
   -5.3621    4.9367  -18.3092 N   0  0  0  0  0  0  0  0  0  0  0  0
   -6.4883    4.7968  -17.4609 C   0  0  0  0  0  0  0  0  0  0  0  0
   -6.3106    5.1241  -16.0964 C   0  0  0  0  0  0  0  0  0  0  0  0
   -7.3993    5.1728  -15.2031 C   0  0  0  0  0  0  0  0  0  0  0  0
   -7.2970    5.6579  -13.7822 C   0  0  0  0  0  0  0  0  0  0  0  0
   -7.2393    7.0201  -13.7206 F   0  0  0  0  0  0  0  0  0  0  0  0
   -8.3737    5.3160  -13.0156 F   0  0  0  0  0  0  0  0  0  0  0  0
   -6.2011    5.2003  -13.1276 F   0  0  0  0  0  0  0  0  0  0  0  0
   -8.6673    4.9011  -15.6869 C   0  0  0  0  0  0  0  0  0  0  0  0
   -8.8462    4.6403  -17.0303 C   0  0  0  0  0  0  0  0  0  0  0  0
  -10.1340    4.6782  -17.5147 C   0  0  0  0  0  0  0  0  0  0  0  0
  -10.3645    4.6084  -18.8494 C   0  0  0  0  0  0  0  0  0  0  0  0
   -9.2968    4.3328  -19.6468 C   0  0  0  0  0  0  0  0  0  0  0  0
   -8.0379    4.2564  -19.2088 N   0  0  0  0  0  0  0  0  0  0  0  0
   -7.7759    4.5151  -17.9310 C   0  0  0  0  0  0  0  0  0  0  0  0
   -3.8968    5.1005  -20.3816 C   0  0  0  0  0  0  0  0  0  0  0  0
   -2.7161    4.7802  -19.7274 C   0  0  0  0  0  0  0  0  0  0  0  0
   -2.7286    4.1801  -18.5043 O   0  0  0  0  0  0  0  0  0  0  0  0
   -1.5291    5.0796  -20.3635 C   0  0  0  0  0  0  0  0  0  0  0  0
   -1.4534    5.6921  -21.5634 N   0  0  0  0  0  0  0  0  0  0  0  0
   -2.5884    6.0278  -22.1857 C   0  0  0  0  0  0  0  0  0  0  0  0
   -2.4855    6.6749  -23.4128 C   0  0  0  0  0  0  0  0  0  0  0  0
   -3.6105    7.0990  -24.1198 C   0  0  0  0  0  0  0  0  0  0  0  0
   -4.8614    6.8696  -23.5817 C   0  0  0  0  0  0  0  0  0  0  0  0
   -5.9537    7.2866  -24.2341 F   0  0  0  0  0  0  0  0  0  0  0  0
   -4.9915    6.2134  -22.3655 C   0  0  0  0  0  0  0  0  0  0  0  0
   -3.8603    5.7681  -21.6397 C   0  0  0  0  0  0  0  0  0  0  0  0
  1  2  2  0
  2  3  1  0
  3  4  1  0
  4  5  2  0
  5  6  1  0
  6  7  1  0
  7  8  1  0
  7  9  1  0
  7 10  1  0
  6 11  2  0
 11 12  1  0
 12 13  2  0
 13 14  1  0
 14 15  2  0
 15 16  1  0
 16 17  2  0
  2 18  1  0
 18 19  2  0
 19 20  1  0
 19 21  1  0
 21 22  2  0
 22 23  1  0
 23 24  2  0
 24 25  1  0
 25 26  2  0
 26 27  1  0
 26 28  1  0
 28 29  2  0
 17  4  1  0
 29 18  1  0
 17 12  1  0
 29 23  1  0
M  END
>  <energy_score>  (898) 
-9.741761

>  <alias>  (898) 
None

>  <HIPPO Pose ID>  (898) 
70332

>  <smiles>  (898) 
O=C(Nc1cc(C(F)(F)F)cc2cccnc12)c1c(O)cnc2ccc(F)cc12

>  <inchikey>  (898) 
UUUOZSHLMDIXOY-UHFFFAOYSA-N

>  <distance_score>  (898) 
0.977319

>  <ref_mols>  (898) 
Z0917a,Z0852a

>  <ref_pdb>  (898) 
Z0852a

>  <HIPPO Compound ID>  (898) 
142279

>  <name>  (898) 
P70332

>  <inspiration_score>  (898) 
None

$$$$
P70333
     RDKit          3D

 29 32  0  0  0  0  0  0  0  0999 V2000
   -5.9999    6.1603  -13.3262 C   0  0  0  0  0  0  0  0  0  0  0  0
   -7.3657    5.6177  -13.7544 C   0  0  0  0  0  0  0  0  0  0  0  0
   -7.8194    4.5563  -12.7350 C   0  0  0  0  0  0  0  0  0  0  0  0
   -8.3375    6.8010  -13.6763 C   0  0  0  0  0  0  0  0  0  0  0  0
   -7.3992    5.0830  -15.1882 C   0  0  0  0  0  0  0  0  0  0  0  0
   -6.3761    5.2434  -16.1434 C   0  0  0  0  0  0  0  0  0  0  0  0
   -6.5808    4.9368  -17.5077 C   0  0  0  0  0  0  0  0  0  0  0  0
   -5.5143    5.1767  -18.3981 N   0  0  0  0  0  0  0  0  0  0  0  0
   -5.3070    4.7212  -19.8784 C   0  0  0  0  0  0  0  0  0  0  0  0
   -6.0247    4.1449  -20.6029 O   0  0  0  0  0  0  0  0  0  0  0  0
   -3.9768    5.1170  -20.3840 C   0  0  0  0  0  0  0  0  0  0  0  0
   -2.8546    4.7624  -19.6426 C   0  0  0  0  0  0  0  0  0  0  0  0
   -2.9091    4.1505  -18.4232 O   0  0  0  0  0  0  0  0  0  0  0  0
   -1.6239    5.0449  -20.1899 C   0  0  0  0  0  0  0  0  0  0  0  0
   -1.4563    5.6578  -21.3844 N   0  0  0  0  0  0  0  0  0  0  0  0
   -2.5386    6.0006  -22.0940 C   0  0  0  0  0  0  0  0  0  0  0  0
   -2.3434    6.6340  -23.3166 C   0  0  0  0  0  0  0  0  0  0  0  0
   -3.4125    7.0629  -24.1043 C   0  0  0  0  0  0  0  0  0  0  0  0
   -4.7018    6.8525  -23.6540 C   0  0  0  0  0  0  0  0  0  0  0  0
   -5.7400    7.2723  -24.3877 F   0  0  0  0  0  0  0  0  0  0  0  0
   -4.9271    6.2113  -22.4440 C   0  0  0  0  0  0  0  0  0  0  0  0
   -3.8497    5.7647  -21.6406 C   0  0  0  0  0  0  0  0  0  0  0  0
   -7.8515    4.5539  -17.9375 C   0  0  0  0  0  0  0  0  0  0  0  0
   -8.1958    4.4968  -19.2214 N   0  0  0  0  0  0  0  0  0  0  0  0
   -9.4963    4.4944  -19.5422 C   0  0  0  0  0  0  0  0  0  0  0  0
  -10.5088    4.4188  -18.6323 C   0  0  0  0  0  0  0  0  0  0  0  0
  -10.1451    4.1924  -17.3453 C   0  0  0  0  0  0  0  0  0  0  0  0
   -8.8376    4.3685  -16.9668 C   0  0  0  0  0  0  0  0  0  0  0  0
   -8.5982    4.5313  -15.6207 C   0  0  0  0  0  0  0  0  0  0  0  0
  1  2  1  0
  2  3  1  0
  2  4  1  0
  2  5  1  0
  5  6  2  0
  6  7  1  0
  7  8  1  0
  8  9  1  0
  9 10  2  0
  9 11  1  0
 11 12  2  0
 12 13  1  0
 12 14  1  0
 14 15  2  0
 15 16  1  0
 16 17  2  0
 17 18  1  0
 18 19  2  0
 19 20  1  0
 19 21  1  0
 21 22  2  0
  7 23  2  0
 23 24  1  0
 24 25  2  0
 25 26  1  0
 26 27  2  0
 27 28  1  0
 28 29  2  0
 29  5  1  0
 22 11  1  0
 28 23  1  0
 22 16  1  0
M  END
>  <energy_score>  (899) 
-31.553688

>  <alias>  (899) 
None

>  <HIPPO Pose ID>  (899) 
70333

>  <smiles>  (899) 
CC(C)(C)c1cc(NC(=O)c2c(O)cnc3ccc(F)cc23)c2ncccc2c1

>  <inchikey>  (899) 
YTKWYFHIWFVQDK-UHFFFAOYSA-N

>  <distance_score>  (899) 
1.248374

>  <ref_mols>  (899) 
Z0917a,Z0852a

>  <ref_pdb>  (899) 
Z0852a

>  <HIPPO Compound ID>  (899) 
142280

>  <name>  (899) 
P70333

>  <inspiration_score>  (899) 
None

$$$$
P70334
     RDKit          3D

 29 32  0  0  0  0  0  0  0  0999 V2000
   -5.9678    3.9609  -20.3810 O   0  0  0  0  0  0  0  0  0  0  0  0
   -5.3471    4.7462  -19.7722 C   0  0  0  0  0  0  0  0  0  0  0  0
   -5.6222    5.3918  -18.3803 N   0  0  0  0  0  0  0  0  0  0  0  0
   -6.6352    5.1387  -17.4435 C   0  0  0  0  0  0  0  0  0  0  0  0
   -6.4148    5.4683  -16.0940 C   0  0  0  0  0  0  0  0  0  0  0  0
   -7.4117    5.2410  -15.1268 C   0  0  0  0  0  0  0  0  0  0  0  0
   -7.3111    5.7441  -13.7127 C   0  0  0  0  0  0  0  0  0  0  0  0
   -8.4000    5.4403  -12.9483 F   0  0  0  0  0  0  0  0  0  0  0  0
   -6.2301    5.2652  -13.0493 F   0  0  0  0  0  0  0  0  0  0  0  0
   -7.2177    7.1042  -13.6697 F   0  0  0  0  0  0  0  0  0  0  0  0
   -8.5936    4.6305  -15.5141 C   0  0  0  0  0  0  0  0  0  0  0  0
   -8.8434    4.4394  -16.8590 C   0  0  0  0  0  0  0  0  0  0  0  0
  -10.1329    4.1576  -17.2294 C   0  0  0  0  0  0  0  0  0  0  0  0
  -10.5315    4.3492  -18.5159 C   0  0  0  0  0  0  0  0  0  0  0  0
   -9.5459    4.5340  -19.4410 C   0  0  0  0  0  0  0  0  0  0  0  0
   -8.2472    4.6367  -19.1324 N   0  0  0  0  0  0  0  0  0  0  0  0
   -7.8903    4.6866  -17.8494 C   0  0  0  0  0  0  0  0  0  0  0  0
   -4.1195    5.2568  -20.4231 C   0  0  0  0  0  0  0  0  0  0  0  0
   -4.2739    5.5765  -21.7742 C   0  0  0  0  0  0  0  0  0  0  0  0
   -3.1753    6.0461  -22.4424 C   0  0  0  0  0  0  0  0  0  0  0  0
   -3.2448    6.4071  -23.7551 O   0  0  0  0  0  0  0  0  0  0  0  0
   -1.9824    6.2378  -21.8683 N   0  0  0  0  0  0  0  0  0  0  0  0
   -1.8316    5.9279  -20.5736 C   0  0  0  0  0  0  0  0  0  0  0  0
   -0.5947    6.1798  -20.0024 C   0  0  0  0  0  0  0  0  0  0  0  0
   -0.3651    5.9497  -18.6513 C   0  0  0  0  0  0  0  0  0  0  0  0
    1.3204    6.3477  -17.8960 Br  0  0  0  0  0  0  0  0  0  0  0  0
   -1.3664    5.4125  -17.8568 C   0  0  0  0  0  0  0  0  0  0  0  0
   -2.5899    5.0725  -18.4288 C   0  0  0  0  0  0  0  0  0  0  0  0
   -2.8710    5.3996  -19.7786 C   0  0  0  0  0  0  0  0  0  0  0  0
  1  2  2  0
  2  3  1  0
  3  4  1  0
  4  5  2  0
  5  6  1  0
  6  7  1  0
  7  8  1  0
  7  9  1  0
  7 10  1  0
  6 11  2  0
 11 12  1  0
 12 13  2  0
 13 14  1  0
 14 15  2  0
 15 16  1  0
 16 17  2  0
  2 18  1  0
 18 19  2  0
 19 20  1  0
 20 21  1  0
 20 22  2  0
 22 23  1  0
 23 24  2  0
 24 25  1  0
 25 26  1  0
 25 27  2  0
 27 28  1  0
 28 29  2  0
 17  4  1  0
 29 18  1  0
 17 12  1  0
 29 23  1  0
M  END
>  <energy_score>  (900) 
-20.059082

>  <alias>  (900) 
None

>  <HIPPO Pose ID>  (900) 
70334

>  <smiles>  (900) 
O=C(Nc1cc(C(F)(F)F)cc2cccnc12)c1cc(O)nc2cc(Br)ccc12

>  <inchikey>  (900) 
MPZOUJWBBZOCKF-UHFFFAOYSA-N

>  <distance_score>  (900) 
0.976908

>  <ref_mols>  (900) 
Z0917a,Z0852a

>  <ref_pdb>  (900) 
Z0852a

>  <HIPPO Compound ID>  (900) 
142281

>  <name>  (900) 
P70334

>  <inspiration_score>  (900) 
None

$$$$
P70335
     RDKit          3D

 29 32  0  0  0  0  0  0  0  0999 V2000
   -6.0045    4.7270  -13.1325 C   0  0  0  0  0  0  0  0  0  0  0  0
   -7.1770    5.4708  -13.7776 C   0  0  0  0  0  0  0  0  0  0  0  0
   -6.8840    6.9732  -13.8271 C   0  0  0  0  0  0  0  0  0  0  0  0
   -8.4084    5.2910  -12.8593 C   0  0  0  0  0  0  0  0  0  0  0  0
   -7.3763    4.9990  -15.2170 C   0  0  0  0  0  0  0  0  0  0  0  0
   -6.3946    5.2001  -16.2114 C   0  0  0  0  0  0  0  0  0  0  0  0
   -6.6574    4.9537  -17.5688 C   0  0  0  0  0  0  0  0  0  0  0  0
   -5.6557    5.2466  -18.5036 N   0  0  0  0  0  0  0  0  0  0  0  0
   -5.3965    4.6633  -19.9233 C   0  0  0  0  0  0  0  0  0  0  0  0
   -6.0243    3.9058  -20.5591 O   0  0  0  0  0  0  0  0  0  0  0  0
   -4.1640    5.1998  -20.5501 C   0  0  0  0  0  0  0  0  0  0  0  0
   -4.3140    5.5629  -21.8896 C   0  0  0  0  0  0  0  0  0  0  0  0
   -3.2161    6.0621  -22.5371 C   0  0  0  0  0  0  0  0  0  0  0  0
   -3.2816    6.4586  -23.8397 O   0  0  0  0  0  0  0  0  0  0  0  0
   -2.0284    6.2496  -21.9509 N   0  0  0  0  0  0  0  0  0  0  0  0
   -1.8835    5.9099  -20.6641 C   0  0  0  0  0  0  0  0  0  0  0  0
   -0.6558    6.1732  -20.0786 C   0  0  0  0  0  0  0  0  0  0  0  0
   -0.4327    5.9208  -18.7312 C   0  0  0  0  0  0  0  0  0  0  0  0
    1.2357    6.3415  -17.9513 Br  0  0  0  0  0  0  0  0  0  0  0  0
   -1.4288    5.3453  -17.9582 C   0  0  0  0  0  0  0  0  0  0  0  0
   -2.6375    4.9863  -18.5490 C   0  0  0  0  0  0  0  0  0  0  0  0
   -2.9196    5.3426  -19.8920 C   0  0  0  0  0  0  0  0  0  0  0  0
   -7.9341    4.5758  -17.9628 C   0  0  0  0  0  0  0  0  0  0  0  0
   -8.3099    4.5783  -19.2390 N   0  0  0  0  0  0  0  0  0  0  0  0
   -9.6178    4.5733  -19.5202 C   0  0  0  0  0  0  0  0  0  0  0  0
  -10.6003    4.4257  -18.5859 C   0  0  0  0  0  0  0  0  0  0  0  0
  -10.1941    4.1641  -17.3162 C   0  0  0  0  0  0  0  0  0  0  0  0
   -8.8814    4.3517  -16.9629 C   0  0  0  0  0  0  0  0  0  0  0  0
   -8.5949    4.4760  -15.6163 C   0  0  0  0  0  0  0  0  0  0  0  0
  1  2  1  0
  2  3  1  0
  2  4  1  0
  2  5  1  0
  5  6  2  0
  6  7  1  0
  7  8  1  0
  8  9  1  0
  9 10  2  0
  9 11  1  0
 11 12  2  0
 12 13  1  0
 13 14  1  0
 13 15  2  0
 15 16  1  0
 16 17  2  0
 17 18  1  0
 18 19  1  0
 18 20  2  0
 20 21  1  0
 21 22  2  0
  7 23  2  0
 23 24  1  0
 24 25  2  0
 25 26  1  0
 26 27  2  0
 27 28  1  0
 28 29  2  0
 29  5  1  0
 22 11  1  0
 28 23  1  0
 22 16  1  0
M  END
>  <energy_score>  (901) 
-21.454463

>  <alias>  (901) 
None

>  <HIPPO Pose ID>  (901) 
70335

>  <smiles>  (901) 
CC(C)(C)c1cc(NC(=O)c2cc(O)nc3cc(Br)ccc23)c2ncccc2c1

>  <inchikey>  (901) 
JYICGOVNVCLVDY-UHFFFAOYSA-N

>  <distance_score>  (901) 
1.141306

>  <ref_mols>  (901) 
Z0917a,Z0852a

>  <ref_pdb>  (901) 
Z0852a

>  <HIPPO Compound ID>  (901) 
142282

>  <name>  (901) 
P70335

>  <inspiration_score>  (901) 
None

$$$$
P70336
     RDKit          3D

 29 32  0  0  0  0  0  0  0  0999 V2000
   -6.3853    4.6502  -11.5000 C   0  0  0  0  0  0  0  0  0  0  0  0
   -6.8972    4.6723  -12.8322 O   0  0  0  0  0  0  0  0  0  0  0  0
   -5.9641    4.8994  -13.7872 C   0  0  0  0  0  0  0  0  0  0  0  0
   -4.7829    5.1450  -13.5957 O   0  0  0  0  0  0  0  0  0  0  0  0
   -6.5747    4.8336  -15.1403 C   0  0  0  0  0  0  0  0  0  0  0  0
   -5.7879    5.1665  -16.2436 C   0  0  0  0  0  0  0  0  0  0  0  0
   -6.2899    5.0460  -17.5479 C   0  0  0  0  0  0  0  0  0  0  0  0
   -5.3857    5.3132  -18.5760 N   0  0  0  0  0  0  0  0  0  0  0  0
   -5.2853    4.7240  -20.0086 C   0  0  0  0  0  0  0  0  0  0  0  0
   -5.9903    3.9814  -20.5743 O   0  0  0  0  0  0  0  0  0  0  0  0
   -4.0805    5.2288  -20.7191 C   0  0  0  0  0  0  0  0  0  0  0  0
   -4.3041    5.5867  -22.0456 C   0  0  0  0  0  0  0  0  0  0  0  0
   -3.2507    6.1032  -22.7499 C   0  0  0  0  0  0  0  0  0  0  0  0
   -2.0423    6.3276  -22.2069 N   0  0  0  0  0  0  0  0  0  0  0  0
   -1.8161    6.0007  -20.9161 C   0  0  0  0  0  0  0  0  0  0  0  0
   -0.5832    6.3158  -20.3256 C   0  0  0  0  0  0  0  0  0  0  0  0
    0.3891    7.0076  -21.0186 O   0  0  0  0  0  0  0  0  0  0  0  0
    1.1030    6.1240  -21.8841 C   0  0  0  0  0  0  0  0  0  0  0  0
   -0.3145    6.0712  -18.9805 C   0  0  0  0  0  0  0  0  0  0  0  0
   -1.2575    5.4125  -18.2127 C   0  0  0  0  0  0  0  0  0  0  0  0
   -2.4612    5.0131  -18.7889 C   0  0  0  0  0  0  0  0  0  0  0  0
   -2.8032    5.3871  -20.1175 C   0  0  0  0  0  0  0  0  0  0  0  0
   -7.6202    4.6975  -17.7753 C   0  0  0  0  0  0  0  0  0  0  0  0
   -8.1674    4.7382  -18.9951 N   0  0  0  0  0  0  0  0  0  0  0  0
   -9.4865    4.5380  -19.1354 C   0  0  0  0  0  0  0  0  0  0  0  0
  -10.3185    4.2321  -18.0907 C   0  0  0  0  0  0  0  0  0  0  0  0
   -9.7439    4.1257  -16.8420 C   0  0  0  0  0  0  0  0  0  0  0  0
   -8.4060    4.4086  -16.6511 C   0  0  0  0  0  0  0  0  0  0  0  0
   -7.8912    4.4376  -15.3509 C   0  0  0  0  0  0  0  0  0  0  0  0
  1  2  1  0
  2  3  1  0
  3  4  2  0
  3  5  1  0
  5  6  2  0
  6  7  1  0
  7  8  1  0
  8  9  1  0
  9 10  2  0
  9 11  1  0
 11 12  2  0
 12 13  1  0
 13 14  2  0
 14 15  1  0
 15 16  2  0
 16 17  1  0
 17 18  1  0
 16 19  1  0
 19 20  2  0
 20 21  1  0
 21 22  2  0
  7 23  2  0
 23 24  1  0
 24 25  2  0
 25 26  1  0
 26 27  2  0
 27 28  1  0
 28 29  2  0
 29  5  1  0
 22 11  1  0
 28 23  1  0
 22 15  1  0
M  END
>  <energy_score>  (902) 
-18.103466

>  <alias>  (902) 
None

>  <HIPPO Pose ID>  (902) 
70336

>  <smiles>  (902) 
COC(=O)c1cc(NC(=O)c2ccnc3c(OC)cccc23)c2ncccc2c1

>  <inchikey>  (902) 
YDLMCKJKRGDMQK-UHFFFAOYSA-N

>  <distance_score>  (902) 
1.566426

>  <ref_mols>  (902) 
Z0917a,Z0852a

>  <ref_pdb>  (902) 
Z0852a

>  <HIPPO Compound ID>  (902) 
142283

>  <name>  (902) 
P70336

>  <inspiration_score>  (902) 
None

$$$$
P70337
     RDKit          3D

 29 32  0  0  0  0  0  0  0  0999 V2000
    0.8013    6.5321  -21.6798 C   0  0  0  0  0  0  0  0  0  0  0  0
    0.5170    6.8749  -20.3268 O   0  0  0  0  0  0  0  0  0  0  0  0
   -0.6008    6.2810  -19.7786 C   0  0  0  0  0  0  0  0  0  0  0  0
   -0.4617    6.0579  -18.4044 C   0  0  0  0  0  0  0  0  0  0  0  0
   -1.4755    5.4423  -17.6928 C   0  0  0  0  0  0  0  0  0  0  0  0
   -2.6353    5.0591  -18.3530 C   0  0  0  0  0  0  0  0  0  0  0  0
   -2.8570    5.4098  -19.7087 C   0  0  0  0  0  0  0  0  0  0  0  0
   -4.0894    5.2421  -20.3826 C   0  0  0  0  0  0  0  0  0  0  0  0
   -5.3332    4.7387  -19.7495 C   0  0  0  0  0  0  0  0  0  0  0  0
   -5.9447    3.9453  -20.3570 O   0  0  0  0  0  0  0  0  0  0  0  0
   -5.6235    5.3944  -18.3650 N   0  0  0  0  0  0  0  0  0  0  0  0
   -6.6424    5.1440  -17.4355 C   0  0  0  0  0  0  0  0  0  0  0  0
   -6.4269    5.4752  -16.0857 C   0  0  0  0  0  0  0  0  0  0  0  0
   -7.4254    5.2459  -15.1214 C   0  0  0  0  0  0  0  0  0  0  0  0
   -7.3261    5.7461  -13.7067 C   0  0  0  0  0  0  0  0  0  0  0  0
   -7.2309    7.1060  -13.6604 F   0  0  0  0  0  0  0  0  0  0  0  0
   -6.2463    5.2646  -13.0428 F   0  0  0  0  0  0  0  0  0  0  0  0
   -8.4160    5.4419  -12.9440 F   0  0  0  0  0  0  0  0  0  0  0  0
   -8.6055    4.6343  -15.5128 C   0  0  0  0  0  0  0  0  0  0  0  0
   -8.8505    4.4420  -16.8587 C   0  0  0  0  0  0  0  0  0  0  0  0
  -10.1383    4.1598  -17.2344 C   0  0  0  0  0  0  0  0  0  0  0  0
  -10.5310    4.3512  -18.5226 C   0  0  0  0  0  0  0  0  0  0  0  0
   -9.5413    4.5311  -19.4444 C   0  0  0  0  0  0  0  0  0  0  0  0
   -8.2439    4.6334  -19.1307 N   0  0  0  0  0  0  0  0  0  0  0  0
   -7.8939    4.6880  -17.8460 C   0  0  0  0  0  0  0  0  0  0  0  0
   -4.2202    5.5427  -21.7377 C   0  0  0  0  0  0  0  0  0  0  0  0
   -3.1220    6.0315  -22.3874 C   0  0  0  0  0  0  0  0  0  0  0  0
   -1.9533    6.2733  -21.7688 N   0  0  0  0  0  0  0  0  0  0  0  0
   -1.8000    5.9817  -20.4551 C   0  0  0  0  0  0  0  0  0  0  0  0
  1  2  1  0
  2  3  1  0
  3  4  2  0
  4  5  1  0
  5  6  2  0
  6  7  1  0
  7  8  2  0
  8  9  1  0
  9 10  2  0
  9 11  1  0
 11 12  1  0
 12 13  2  0
 13 14  1  0
 14 15  1  0
 15 16  1  0
 15 17  1  0
 15 18  1  0
 14 19  2  0
 19 20  1  0
 20 21  2  0
 21 22  1  0
 22 23  2  0
 23 24  1  0
 24 25  2  0
  8 26  1  0
 26 27  2  0
 27 28  1  0
 28 29  2  0
 29  3  1  0
 29  7  1  0
 25 12  1  0
 25 20  1  0
M  END
>  <energy_score>  (903) 
-18.193459

>  <alias>  (903) 
None

>  <HIPPO Pose ID>  (903) 
70337

>  <smiles>  (903) 
COc1cccc2c(C(=O)Nc3cc(C(F)(F)F)cc4cccnc34)ccnc12

>  <inchikey>  (903) 
HBWKBLXQBYLBBC-UHFFFAOYSA-N

>  <distance_score>  (903) 
1.06776

>  <ref_mols>  (903) 
Z0917a,Z0852a

>  <ref_pdb>  (903) 
Z0852a

>  <HIPPO Compound ID>  (903) 
142284

>  <name>  (903) 
P70337

>  <inspiration_score>  (903) 
None

$$$$
P70338
     RDKit          3D

 29 32  0  0  0  0  0  0  0  0999 V2000
    1.1049    6.1684  -21.2550 C   0  0  0  0  0  0  0  0  0  0  0  0
    0.3341    7.0344  -20.4206 O   0  0  0  0  0  0  0  0  0  0  0  0
   -0.6911    6.3327  -19.8198 C   0  0  0  0  0  0  0  0  0  0  0  0
   -0.5337    6.0832  -18.4565 C   0  0  0  0  0  0  0  0  0  0  0  0
   -1.5236    5.3990  -17.7740 C   0  0  0  0  0  0  0  0  0  0  0  0
   -2.6661    4.9852  -18.4530 C   0  0  0  0  0  0  0  0  0  0  0  0
   -2.9024    5.3686  -19.8006 C   0  0  0  0  0  0  0  0  0  0  0  0
   -4.1218    5.1898  -20.4999 C   0  0  0  0  0  0  0  0  0  0  0  0
   -5.3708    4.6548  -19.8973 C   0  0  0  0  0  0  0  0  0  0  0  0
   -5.9876    3.8913  -20.5364 O   0  0  0  0  0  0  0  0  0  0  0  0
   -5.6488    5.2437  -18.4830 N   0  0  0  0  0  0  0  0  0  0  0  0
   -6.6589    4.9505  -17.5588 C   0  0  0  0  0  0  0  0  0  0  0  0
   -6.4030    5.1988  -16.2004 C   0  0  0  0  0  0  0  0  0  0  0  0
   -7.3881    4.9994  -15.2103 C   0  0  0  0  0  0  0  0  0  0  0  0
   -7.1906    5.4694  -13.7705 C   0  0  0  0  0  0  0  0  0  0  0  0
   -6.8962    6.9718  -13.8179 C   0  0  0  0  0  0  0  0  0  0  0  0
   -6.0195    4.7245  -13.1239 C   0  0  0  0  0  0  0  0  0  0  0  0
   -8.4234    5.2893  -12.8551 C   0  0  0  0  0  0  0  0  0  0  0  0
   -8.6059    4.4792  -15.6154 C   0  0  0  0  0  0  0  0  0  0  0  0
   -8.8855    4.3522  -16.9637 C   0  0  0  0  0  0  0  0  0  0  0  0
  -10.1967    4.1680  -17.3238 C   0  0  0  0  0  0  0  0  0  0  0  0
  -10.5940    4.4282  -18.5964 C   0  0  0  0  0  0  0  0  0  0  0  0
   -9.6056    4.5647  -19.5264 C   0  0  0  0  0  0  0  0  0  0  0  0
   -8.2992    4.5656  -19.2385 N   0  0  0  0  0  0  0  0  0  0  0  0
   -7.9322    4.5706  -17.9598 C   0  0  0  0  0  0  0  0  0  0  0  0
   -4.2384    5.5367  -21.8455 C   0  0  0  0  0  0  0  0  0  0  0  0
   -3.1418    6.0727  -22.4642 C   0  0  0  0  0  0  0  0  0  0  0  0
   -1.9889    6.3263  -21.8220 N   0  0  0  0  0  0  0  0  0  0  0  0
   -1.8640    6.0020  -20.5158 C   0  0  0  0  0  0  0  0  0  0  0  0
  1  2  1  0
  2  3  1  0
  3  4  2  0
  4  5  1  0
  5  6  2  0
  6  7  1  0
  7  8  2  0
  8  9  1  0
  9 10  2  0
  9 11  1  0
 11 12  1  0
 12 13  2  0
 13 14  1  0
 14 15  1  0
 15 16  1  0
 15 17  1  0
 15 18  1  0
 14 19  2  0
 19 20  1  0
 20 21  2  0
 21 22  1  0
 22 23  2  0
 23 24  1  0
 24 25  2  0
  8 26  1  0
 26 27  2  0
 27 28  1  0
 28 29  2  0
 29  3  1  0
 29  7  1  0
 25 12  1  0
 25 20  1  0
M  END
>  <energy_score>  (904) 
-12.643228

>  <alias>  (904) 
None

>  <HIPPO Pose ID>  (904) 
70338

>  <smiles>  (904) 
COc1cccc2c(C(=O)Nc3cc(C(C)(C)C)cc4cccnc34)ccnc12

>  <inchikey>  (904) 
DMYLQKZCDJVJSU-UHFFFAOYSA-N

>  <distance_score>  (904) 
1.143387

>  <ref_mols>  (904) 
Z0917a,Z0852a

>  <ref_pdb>  (904) 
Z0852a

>  <HIPPO Compound ID>  (904) 
142285

>  <name>  (904) 
P70338

>  <inspiration_score>  (904) 
None

$$$$
P70339
     RDKit          3D

 29 32  0  0  0  0  0  0  0  0999 V2000
   -2.0296    5.2506  -17.7280 C   0  0  0  0  0  0  0  0  0  0  0  0
   -2.5688    4.2760  -18.7717 C   0  0  0  0  0  0  0  0  0  0  0  0
   -2.7246    4.9296  -20.1181 C   0  0  0  0  0  0  0  0  0  0  0  0
   -1.5788    5.2221  -20.8397 C   0  0  0  0  0  0  0  0  0  0  0  0
   -1.5672    5.8139  -22.0502 N   0  0  0  0  0  0  0  0  0  0  0  0
   -2.7342    6.1217  -22.6247 C   0  0  0  0  0  0  0  0  0  0  0  0
   -2.7023    6.7247  -23.8765 C   0  0  0  0  0  0  0  0  0  0  0  0
   -3.8666    7.0959  -24.5505 C   0  0  0  0  0  0  0  0  0  0  0  0
   -5.0966    6.8635  -23.9589 C   0  0  0  0  0  0  0  0  0  0  0  0
   -5.1437    6.2590  -22.7037 C   0  0  0  0  0  0  0  0  0  0  0  0
   -3.9731    5.8693  -22.0136 C   0  0  0  0  0  0  0  0  0  0  0  0
   -3.9448    5.2533  -20.7360 C   0  0  0  0  0  0  0  0  0  0  0  0
   -5.2241    4.8375  -20.0910 C   0  0  0  0  0  0  0  0  0  0  0  0
   -5.9263    4.0911  -20.6547 O   0  0  0  0  0  0  0  0  0  0  0  0
   -5.3345    5.4418  -18.6639 N   0  0  0  0  0  0  0  0  0  0  0  0
   -6.2527    5.1853  -17.6345 C   0  0  0  0  0  0  0  0  0  0  0  0
   -5.7590    5.3623  -16.3312 C   0  0  0  0  0  0  0  0  0  0  0  0
   -6.5326    5.0469  -15.2120 C   0  0  0  0  0  0  0  0  0  0  0  0
   -5.9270    5.2105  -13.8650 C   0  0  0  0  0  0  0  0  0  0  0  0
   -4.7583    5.5178  -13.6879 O   0  0  0  0  0  0  0  0  0  0  0  0
   -6.8496    4.9994  -12.8947 O   0  0  0  0  0  0  0  0  0  0  0  0
   -6.3441    5.1408  -11.5671 C   0  0  0  0  0  0  0  0  0  0  0  0
   -7.8318    4.5912  -15.4009 C   0  0  0  0  0  0  0  0  0  0  0  0
   -8.3459    4.4945  -16.6962 C   0  0  0  0  0  0  0  0  0  0  0  0
   -9.6759    4.1572  -16.8623 C   0  0  0  0  0  0  0  0  0  0  0  0
  -10.2567    4.1997  -18.1108 C   0  0  0  0  0  0  0  0  0  0  0  0
   -9.4372    4.4888  -19.1717 C   0  0  0  0  0  0  0  0  0  0  0  0
   -8.1234    4.7359  -19.0507 N   0  0  0  0  0  0  0  0  0  0  0  0
   -7.5706    4.7742  -17.8369 C   0  0  0  0  0  0  0  0  0  0  0  0
  1  2  1  0
  2  3  1  0
  3  4  2  0
  4  5  1  0
  5  6  2  0
  6  7  1  0
  7  8  2  0
  8  9  1  0
  9 10  2  0
 10 11  1  0
 11 12  2  0
 12 13  1  0
 13 14  2  0
 13 15  1  0
 15 16  1  0
 16 17  2  0
 17 18  1  0
 18 19  1  0
 19 20  2  0
 19 21  1  0
 21 22  1  0
 18 23  2  0
 23 24  1  0
 24 25  2  0
 25 26  1  0
 26 27  2  0
 27 28  1  0
 28 29  2  0
 12  3  1  0
 29 16  1  0
 11  6  1  0
 29 24  1  0
M  END
>  <energy_score>  (905) 
-24.154491

>  <alias>  (905) 
None

>  <HIPPO Pose ID>  (905) 
70339

>  <smiles>  (905) 
CCc1cnc2ccccc2c1C(=O)Nc1cc(C(=O)OC)cc2cccnc12

>  <inchikey>  (905) 
TXCHHDLSOGPBRL-UHFFFAOYSA-N

>  <distance_score>  (905) 
1.596859

>  <ref_mols>  (905) 
Z0917a,Z0852a

>  <ref_pdb>  (905) 
Z0852a

>  <HIPPO Compound ID>  (905) 
142286

>  <name>  (905) 
P70339

>  <inspiration_score>  (905) 
None

$$$$
P70340
     RDKit          3D

 29 32  0  0  0  0  0  0  0  0999 V2000
   -2.6878    4.1204  -18.5189 C   0  0  0  0  0  0  0  0  0  0  0  0
   -2.7552    4.9054  -19.7851 C   0  0  0  0  0  0  0  0  0  0  0  0
   -1.5601    5.2144  -20.4109 C   0  0  0  0  0  0  0  0  0  0  0  0
   -1.4638    5.8768  -21.5760 N   0  0  0  0  0  0  0  0  0  0  0  0
   -2.5851    6.2394  -22.1974 C   0  0  0  0  0  0  0  0  0  0  0  0
   -2.4359    6.9004  -23.4065 C   0  0  0  0  0  0  0  0  0  0  0  0
   -3.5317    7.3504  -24.1355 C   0  0  0  0  0  0  0  0  0  0  0  0
   -4.8057    7.1302  -23.6389 C   0  0  0  0  0  0  0  0  0  0  0  0
   -6.2820    7.7758  -24.6188 Br  0  0  0  0  0  0  0  0  0  0  0  0
   -4.9821    6.4555  -22.4297 C   0  0  0  0  0  0  0  0  0  0  0  0
   -3.8719    5.9944  -21.6782 C   0  0  0  0  0  0  0  0  0  0  0  0
   -3.9306    5.3149  -20.4282 C   0  0  0  0  0  0  0  0  0  0  0  0
   -5.2368    4.8620  -19.8722 C   0  0  0  0  0  0  0  0  0  0  0  0
   -5.8975    4.1680  -20.5487 O   0  0  0  0  0  0  0  0  0  0  0  0
   -5.4456    5.3346  -18.3938 N   0  0  0  0  0  0  0  0  0  0  0  0
   -6.5292    5.1292  -17.5093 C   0  0  0  0  0  0  0  0  0  0  0  0
   -6.3277    5.4605  -16.1498 C   0  0  0  0  0  0  0  0  0  0  0  0
   -7.3385    5.2647  -15.1862 C   0  0  0  0  0  0  0  0  0  0  0  0
   -7.2453    5.7645  -13.7696 C   0  0  0  0  0  0  0  0  0  0  0  0
   -8.3334    5.4496  -13.0070 F   0  0  0  0  0  0  0  0  0  0  0  0
   -7.1638    7.1251  -13.7210 F   0  0  0  0  0  0  0  0  0  0  0  0
   -6.1630    5.2919  -13.1037 F   0  0  0  0  0  0  0  0  0  0  0  0
   -8.5288    4.6822  -15.5801 C   0  0  0  0  0  0  0  0  0  0  0  0
   -8.7617    4.4757  -16.9228 C   0  0  0  0  0  0  0  0  0  0  0  0
  -10.0574    4.2090  -17.2816 C   0  0  0  0  0  0  0  0  0  0  0  0
  -10.4400    4.3575  -18.5762 C   0  0  0  0  0  0  0  0  0  0  0  0
   -9.4409    4.4662  -19.5006 C   0  0  0  0  0  0  0  0  0  0  0  0
   -8.1391    4.5622  -19.1925 N   0  0  0  0  0  0  0  0  0  0  0  0
   -7.7890    4.6815  -17.9148 C   0  0  0  0  0  0  0  0  0  0  0  0
  1  2  1  0
  2  3  2  0
  3  4  1  0
  4  5  2  0
  5  6  1  0
  6  7  2  0
  7  8  1  0
  8  9  1  0
  8 10  2  0
 10 11  1  0
 11 12  2  0
 12 13  1  0
 13 14  2  0
 13 15  1  0
 15 16  1  0
 16 17  2  0
 17 18  1  0
 18 19  1  0
 19 20  1  0
 19 21  1  0
 19 22  1  0
 18 23  2  0
 23 24  1  0
 24 25  2  0
 25 26  1  0
 26 27  2  0
 27 28  1  0
 28 29  2  0
 12  2  1  0
 29 16  1  0
 11  5  1  0
 29 24  1  0
M  END
>  <energy_score>  (906) 
-14.899424

>  <alias>  (906) 
None

>  <HIPPO Pose ID>  (906) 
70340

>  <smiles>  (906) 
Cc1cnc2ccc(Br)cc2c1C(=O)Nc1cc(C(F)(F)F)cc2cccnc12

>  <inchikey>  (906) 
AKRNSRJJYGUBNX-UHFFFAOYSA-N

>  <distance_score>  (906) 
1.129688

>  <ref_mols>  (906) 
Z0917a,Z0852a

>  <ref_pdb>  (906) 
Z0852a

>  <HIPPO Compound ID>  (906) 
142288

>  <name>  (906) 
P70340

>  <inspiration_score>  (906) 
None

$$$$
P70341
     RDKit          3D

 29 32  0  0  0  0  0  0  0  0999 V2000
   -0.3720    5.2349  -19.4341 C   0  0  0  0  0  0  0  0  0  0  0  0
   -1.6550    5.4070  -20.1860 C   0  0  0  0  0  0  0  0  0  0  0  0
   -1.5632    6.0055  -21.3979 N   0  0  0  0  0  0  0  0  0  0  0  0
   -2.6691    6.1949  -22.1282 C   0  0  0  0  0  0  0  0  0  0  0  0
   -2.5327    6.8072  -23.3682 C   0  0  0  0  0  0  0  0  0  0  0  0
   -3.6314    7.0865  -24.1821 C   0  0  0  0  0  0  0  0  0  0  0  0
   -4.9017    6.7494  -23.7467 C   0  0  0  0  0  0  0  0  0  0  0  0
   -5.0534    6.1270  -22.5083 C   0  0  0  0  0  0  0  0  0  0  0  0
   -3.9466    5.8289  -21.6774 C   0  0  0  0  0  0  0  0  0  0  0  0
   -4.0149    5.2094  -20.4026 C   0  0  0  0  0  0  0  0  0  0  0  0
   -5.3117    4.7465  -19.8542 C   0  0  0  0  0  0  0  0  0  0  0  0
   -5.9876    4.0680  -20.5299 O   0  0  0  0  0  0  0  0  0  0  0  0
   -5.4956    5.2012  -18.3677 N   0  0  0  0  0  0  0  0  0  0  0  0
   -6.5654    4.9948  -17.4740 C   0  0  0  0  0  0  0  0  0  0  0  0
   -6.3552    5.3143  -16.1156 C   0  0  0  0  0  0  0  0  0  0  0  0
   -7.3810    5.1606  -15.1627 C   0  0  0  0  0  0  0  0  0  0  0  0
   -7.2842    5.6794  -13.7528 C   0  0  0  0  0  0  0  0  0  0  0  0
   -7.2050    7.0411  -13.7228 F   0  0  0  0  0  0  0  0  0  0  0  0
   -6.1995    5.2182  -13.0830 F   0  0  0  0  0  0  0  0  0  0  0  0
   -8.3703    5.3733  -12.9845 F   0  0  0  0  0  0  0  0  0  0  0  0
   -8.5896    4.6204  -15.5670 C   0  0  0  0  0  0  0  0  0  0  0  0
   -8.8236    4.4264  -16.9133 C   0  0  0  0  0  0  0  0  0  0  0  0
  -10.1221    4.2033  -17.2944 C   0  0  0  0  0  0  0  0  0  0  0  0
  -10.4907    4.3907  -18.5882 C   0  0  0  0  0  0  0  0  0  0  0  0
   -9.4817    4.4897  -19.5004 C   0  0  0  0  0  0  0  0  0  0  0  0
   -8.1826    4.5335  -19.1767 N   0  0  0  0  0  0  0  0  0  0  0  0
   -7.8394    4.6080  -17.8932 C   0  0  0  0  0  0  0  0  0  0  0  0
   -2.8602    4.9787  -19.6570 C   0  0  0  0  0  0  0  0  0  0  0  0
   -2.8812    4.3625  -18.4334 O   0  0  0  0  0  0  0  0  0  0  0  0
  1  2  1  0
  2  3  2  0
  3  4  1  0
  4  5  2  0
  5  6  1  0
  6  7  2  0
  7  8  1  0
  8  9  2  0
  9 10  1  0
 10 11  1  0
 11 12  2  0
 11 13  1  0
 13 14  1  0
 14 15  2  0
 15 16  1  0
 16 17  1  0
 17 18  1  0
 17 19  1  0
 17 20  1  0
 16 21  2  0
 21 22  1  0
 22 23  2  0
 23 24  1  0
 24 25  2  0
 25 26  1  0
 26 27  2  0
 10 28  2  0
 28 29  1  0
 28  2  1  0
  9  4  1  0
 27 14  1  0
 27 22  1  0
M  END
>  <energy_score>  (907) 
-18.720356

>  <alias>  (907) 
None

>  <HIPPO Pose ID>  (907) 
70341

>  <smiles>  (907) 
Cc1nc2ccccc2c(C(=O)Nc2cc(C(F)(F)F)cc3cccnc23)c1O

>  <inchikey>  (907) 
LYNQTMHYKINJHE-UHFFFAOYSA-N

>  <distance_score>  (907) 
0.951513

>  <ref_mols>  (907) 
Z0917a,Z0852a

>  <ref_pdb>  (907) 
Z0852a

>  <HIPPO Compound ID>  (907) 
142289

>  <name>  (907) 
P70341

>  <inspiration_score>  (907) 
None

$$$$
P70342
     RDKit          3D

 29 32  0  0  0  0  0  0  0  0999 V2000
   -0.8131    6.5631  -22.7370 C   0  0  0  0  0  0  0  0  0  0  0  0
   -1.9518    6.1135  -21.9519 N   0  0  0  0  0  0  0  0  0  0  0  0
   -3.1527    5.9142  -22.6109 C   0  0  0  0  0  0  0  0  0  0  0  0
   -3.3433    6.1375  -23.8051 O   0  0  0  0  0  0  0  0  0  0  0  0
   -4.2830    5.4326  -21.8057 C   0  0  0  0  0  0  0  0  0  0  0  0
   -4.1643    5.1268  -20.5072 C   0  0  0  0  0  0  0  0  0  0  0  0
   -5.4413    4.5845  -19.9392 C   0  0  0  0  0  0  0  0  0  0  0  0
   -6.0984    3.8497  -20.5731 O   0  0  0  0  0  0  0  0  0  0  0  0
   -5.6239    5.0999  -18.4790 N   0  0  0  0  0  0  0  0  0  0  0  0
   -6.6670    4.8972  -17.5673 C   0  0  0  0  0  0  0  0  0  0  0  0
   -6.4101    5.1591  -16.2114 C   0  0  0  0  0  0  0  0  0  0  0  0
   -7.4012    4.9913  -15.2211 C   0  0  0  0  0  0  0  0  0  0  0  0
   -7.1954    5.4659  -13.7840 C   0  0  0  0  0  0  0  0  0  0  0  0
   -6.8685    6.9611  -13.8413 C   0  0  0  0  0  0  0  0  0  0  0  0
   -8.4326    5.3173  -12.8690 C   0  0  0  0  0  0  0  0  0  0  0  0
   -6.0408    4.7008  -13.1310 C   0  0  0  0  0  0  0  0  0  0  0  0
   -8.6272    4.4876  -15.6229 C   0  0  0  0  0  0  0  0  0  0  0  0
   -8.9075    4.3552  -16.9706 C   0  0  0  0  0  0  0  0  0  0  0  0
  -10.2188    4.1798  -17.3346 C   0  0  0  0  0  0  0  0  0  0  0  0
  -10.6110    4.4438  -18.6075 C   0  0  0  0  0  0  0  0  0  0  0  0
   -9.6195    4.5721  -19.5345 C   0  0  0  0  0  0  0  0  0  0  0  0
   -8.3142    4.5560  -19.2433 N   0  0  0  0  0  0  0  0  0  0  0  0
   -7.9494    4.5525  -17.9654 C   0  0  0  0  0  0  0  0  0  0  0  0
   -2.8731    5.3066  -19.8255 C   0  0  0  0  0  0  0  0  0  0  0  0
   -2.6616    4.9723  -18.4782 C   0  0  0  0  0  0  0  0  0  0  0  0
   -1.4973    5.3619  -17.8176 C   0  0  0  0  0  0  0  0  0  0  0  0
   -0.4645    5.9602  -18.5217 C   0  0  0  0  0  0  0  0  0  0  0  0
   -0.6032    6.1777  -19.8893 C   0  0  0  0  0  0  0  0  0  0  0  0
   -1.8027    5.8652  -20.5532 C   0  0  0  0  0  0  0  0  0  0  0  0
  1  2  1  0
  2  3  1  0
  3  4  2  0
  3  5  1  0
  5  6  2  0
  6  7  1  0
  7  8  2  0
  7  9  1  0
  9 10  1  0
 10 11  2  0
 11 12  1  0
 12 13  1  0
 13 14  1  0
 13 15  1  0
 13 16  1  0
 12 17  2  0
 17 18  1  0
 18 19  2  0
 19 20  1  0
 20 21  2  0
 21 22  1  0
 22 23  2  0
  6 24  1  0
 24 25  2  0
 25 26  1  0
 26 27  2  0
 27 28  1  0
 28 29  2  0
 29  2  1  0
 23 10  1  0
 29 24  1  0
 23 18  1  0
M  END
>  <energy_score>  (908) 
-39.896151

>  <alias>  (908) 
None

>  <HIPPO Pose ID>  (908) 
70342

>  <smiles>  (908) 
Cn1c(=O)cc(C(=O)Nc2cc(C(C)(C)C)cc3cccnc23)c2ccccc21

>  <inchikey>  (908) 
ZRAYDAPOKPDOGG-UHFFFAOYSA-N

>  <distance_score>  (908) 
1.194342

>  <ref_mols>  (908) 
Z0917a,Z0852a

>  <ref_pdb>  (908) 
Z0852a

>  <HIPPO Compound ID>  (908) 
142290

>  <name>  (908) 
P70342

>  <inspiration_score>  (908) 
None

$$$$
P70343
     RDKit          3D

 29 32  0  0  0  0  0  0  0  0999 V2000
   -0.7068    6.4241  -22.6208 C   0  0  0  0  0  0  0  0  0  0  0  0
   -1.8692    6.0403  -21.8354 N   0  0  0  0  0  0  0  0  0  0  0  0
   -3.0683    5.8534  -22.5031 C   0  0  0  0  0  0  0  0  0  0  0  0
   -3.2389    6.0400  -23.7066 O   0  0  0  0  0  0  0  0  0  0  0  0
   -4.2221    5.4346  -21.6950 C   0  0  0  0  0  0  0  0  0  0  0  0
   -4.1257    5.1850  -20.3823 C   0  0  0  0  0  0  0  0  0  0  0  0
   -5.4164    4.7052  -19.8030 C   0  0  0  0  0  0  0  0  0  0  0  0
   -6.0534    3.9155  -20.3899 O   0  0  0  0  0  0  0  0  0  0  0  0
   -5.6687    5.3815  -18.4178 N   0  0  0  0  0  0  0  0  0  0  0  0
   -6.6729    5.1581  -17.4661 C   0  0  0  0  0  0  0  0  0  0  0  0
   -6.4375    5.4888  -16.1202 C   0  0  0  0  0  0  0  0  0  0  0  0
   -7.4234    5.2553  -15.1423 C   0  0  0  0  0  0  0  0  0  0  0  0
   -7.3093    5.7536  -13.7276 C   0  0  0  0  0  0  0  0  0  0  0  0
   -6.2246    5.2679  -13.0746 F   0  0  0  0  0  0  0  0  0  0  0  0
   -8.3927    5.4515  -12.9547 F   0  0  0  0  0  0  0  0  0  0  0  0
   -7.2094    7.1131  -13.6804 F   0  0  0  0  0  0  0  0  0  0  0  0
   -8.6062    4.6370  -15.5169 C   0  0  0  0  0  0  0  0  0  0  0  0
   -8.8704    4.4479  -16.8595 C   0  0  0  0  0  0  0  0  0  0  0  0
  -10.1589    4.1542  -17.2235 C   0  0  0  0  0  0  0  0  0  0  0  0
  -10.5704    4.3537  -18.5053 C   0  0  0  0  0  0  0  0  0  0  0  0
   -9.5950    4.5604  -19.4361 C   0  0  0  0  0  0  0  0  0  0  0  0
   -8.2956    4.6658  -19.1357 N   0  0  0  0  0  0  0  0  0  0  0  0
   -7.9301    4.7058  -17.8567 C   0  0  0  0  0  0  0  0  0  0  0  0
   -2.8402    5.3416  -19.6936 C   0  0  0  0  0  0  0  0  0  0  0  0
   -2.6636    5.0402  -18.3338 C   0  0  0  0  0  0  0  0  0  0  0  0
   -1.4917    5.3999  -17.6707 C   0  0  0  0  0  0  0  0  0  0  0  0
   -0.4287    5.9383  -18.3805 C   0  0  0  0  0  0  0  0  0  0  0  0
   -0.5416    6.1217  -19.7566 C   0  0  0  0  0  0  0  0  0  0  0  0
   -1.7429    5.8347  -20.4269 C   0  0  0  0  0  0  0  0  0  0  0  0
  1  2  1  0
  2  3  1  0
  3  4  2  0
  3  5  1  0
  5  6  2  0
  6  7  1  0
  7  8  2  0
  7  9  1  0
  9 10  1  0
 10 11  2  0
 11 12  1  0
 12 13  1  0
 13 14  1  0
 13 15  1  0
 13 16  1  0
 12 17  2  0
 17 18  1  0
 18 19  2  0
 19 20  1  0
 20 21  2  0
 21 22  1  0
 22 23  2  0
  6 24  1  0
 24 25  2  0
 25 26  1  0
 26 27  2  0
 27 28  1  0
 28 29  2  0
 29  2  1  0
 23 10  1  0
 29 24  1  0
 23 18  1  0
M  END
>  <energy_score>  (909) 
-17.060113

>  <alias>  (909) 
None

>  <HIPPO Pose ID>  (909) 
70343

>  <smiles>  (909) 
Cn1c(=O)cc(C(=O)Nc2cc(C(F)(F)F)cc3cccnc23)c2ccccc21

>  <inchikey>  (909) 
BBZQRFRCJVAUEP-UHFFFAOYSA-N

>  <distance_score>  (909) 
1.030265

>  <ref_mols>  (909) 
Z0917a,Z0852a

>  <ref_pdb>  (909) 
Z0852a

>  <HIPPO Compound ID>  (909) 
142291

>  <name>  (909) 
P70343

>  <inspiration_score>  (909) 
None

$$$$
P70344
     RDKit          3D

 29 32  0  0  0  0  0  0  0  0999 V2000
   -2.7155    4.0194  -18.1497 C   0  0  0  0  0  0  0  0  0  0  0  0
   -2.9157    5.3872  -18.4592 O   0  0  0  0  0  0  0  0  0  0  0  0
   -2.9214    5.5521  -19.8146 C   0  0  0  0  0  0  0  0  0  0  0  0
   -1.7338    5.8774  -20.4380 C   0  0  0  0  0  0  0  0  0  0  0  0
   -1.6360    6.2019  -21.7403 N   0  0  0  0  0  0  0  0  0  0  0  0
   -2.7611    6.2650  -22.4616 C   0  0  0  0  0  0  0  0  0  0  0  0
   -2.6522    6.6951  -23.7784 C   0  0  0  0  0  0  0  0  0  0  0  0
   -3.7686    6.8673  -24.5967 C   0  0  0  0  0  0  0  0  0  0  0  0
   -5.0277    6.5995  -24.0888 C   0  0  0  0  0  0  0  0  0  0  0  0
   -5.1499    6.1390  -22.7771 C   0  0  0  0  0  0  0  0  0  0  0  0
   -4.0306    5.9528  -21.9334 C   0  0  0  0  0  0  0  0  0  0  0  0
   -4.0871    5.5264  -20.5769 C   0  0  0  0  0  0  0  0  0  0  0  0
   -5.3439    4.9330  -20.0033 C   0  0  0  0  0  0  0  0  0  0  0  0
   -5.9691    4.2240  -20.6975 O   0  0  0  0  0  0  0  0  0  0  0  0
   -5.5463    5.3163  -18.5027 N   0  0  0  0  0  0  0  0  0  0  0  0
   -6.5830    4.9887  -17.6068 C   0  0  0  0  0  0  0  0  0  0  0  0
   -6.3365    5.2240  -16.2391 C   0  0  0  0  0  0  0  0  0  0  0  0
   -7.3199    5.0125  -15.2464 C   0  0  0  0  0  0  0  0  0  0  0  0
   -7.1331    5.4721  -13.8008 C   0  0  0  0  0  0  0  0  0  0  0  0
   -8.3659    5.2693  -12.8866 C   0  0  0  0  0  0  0  0  0  0  0  0
   -6.8605    6.9786  -13.8371 C   0  0  0  0  0  0  0  0  0  0  0  0
   -5.9541    4.7380  -13.1574 C   0  0  0  0  0  0  0  0  0  0  0  0
   -8.5328    4.4888  -15.6519 C   0  0  0  0  0  0  0  0  0  0  0  0
   -8.8082    4.3656  -16.9981 C   0  0  0  0  0  0  0  0  0  0  0  0
  -10.1250    4.1815  -17.3372 C   0  0  0  0  0  0  0  0  0  0  0  0
  -10.5306    4.4170  -18.6107 C   0  0  0  0  0  0  0  0  0  0  0  0
   -9.5462    4.5261  -19.5498 C   0  0  0  0  0  0  0  0  0  0  0  0
   -8.2350    4.5387  -19.2748 N   0  0  0  0  0  0  0  0  0  0  0  0
   -7.8547    4.5848  -18.0016 C   0  0  0  0  0  0  0  0  0  0  0  0
  1  2  1  0
  2  3  1  0
  3  4  2  0
  4  5  1  0
  5  6  2  0
  6  7  1  0
  7  8  2  0
  8  9  1  0
  9 10  2  0
 10 11  1  0
 11 12  2  0
 12 13  1  0
 13 14  2  0
 13 15  1  0
 15 16  1  0
 16 17  2  0
 17 18  1  0
 18 19  1  0
 19 20  1  0
 19 21  1  0
 19 22  1  0
 18 23  2  0
 23 24  1  0
 24 25  2  0
 25 26  1  0
 26 27  2  0
 27 28  1  0
 28 29  2  0
 12  3  1  0
 29 16  1  0
 11  6  1  0
 29 24  1  0
M  END
>  <energy_score>  (910) 
-16.928916

>  <alias>  (910) 
None

>  <HIPPO Pose ID>  (910) 
70344

>  <smiles>  (910) 
COc1cnc2ccccc2c1C(=O)Nc1cc(C(C)(C)C)cc2cccnc12

>  <inchikey>  (910) 
SJTSEPCPJRQPEJ-UHFFFAOYSA-N

>  <distance_score>  (910) 
1.256629

>  <ref_mols>  (910) 
Z0917a,Z0852a

>  <ref_pdb>  (910) 
Z0852a

>  <HIPPO Compound ID>  (910) 
142292

>  <name>  (910) 
P70344

>  <inspiration_score>  (910) 
None

$$$$
P70345
     RDKit          3D

 29 32  0  0  0  0  0  0  0  0999 V2000
   -2.0773    5.3434  -17.4678 C   0  0  0  0  0  0  0  0  0  0  0  0
   -2.8356    4.5157  -18.3554 O   0  0  0  0  0  0  0  0  0  0  0  0
   -2.7834    4.9626  -19.6469 C   0  0  0  0  0  0  0  0  0  0  0  0
   -1.5895    5.1831  -20.3073 C   0  0  0  0  0  0  0  0  0  0  0  0
   -1.4942    5.6892  -21.5555 N   0  0  0  0  0  0  0  0  0  0  0  0
   -2.6200    5.9626  -22.2235 C   0  0  0  0  0  0  0  0  0  0  0  0
   -2.5011    6.5139  -23.4938 C   0  0  0  0  0  0  0  0  0  0  0  0
   -3.6151    6.8663  -24.2561 C   0  0  0  0  0  0  0  0  0  0  0  0
   -4.8826    6.6631  -23.7380 C   0  0  0  0  0  0  0  0  0  0  0  0
   -5.0173    6.0973  -22.4703 C   0  0  0  0  0  0  0  0  0  0  0  0
   -3.8973    5.7286  -21.6852 C   0  0  0  0  0  0  0  0  0  0  0  0
   -3.9534    5.1724  -20.3737 C   0  0  0  0  0  0  0  0  0  0  0  0
   -5.2609    4.7243  -19.8141 C   0  0  0  0  0  0  0  0  0  0  0  0
   -5.9617    4.1033  -20.5194 O   0  0  0  0  0  0  0  0  0  0  0  0
   -5.4875    5.2334  -18.3555 N   0  0  0  0  0  0  0  0  0  0  0  0
   -6.5540    5.0058  -17.4622 C   0  0  0  0  0  0  0  0  0  0  0  0
   -6.3465    5.3161  -16.1014 C   0  0  0  0  0  0  0  0  0  0  0  0
   -7.3735    5.1573  -15.1512 C   0  0  0  0  0  0  0  0  0  0  0  0
   -7.2798    5.6738  -13.7412 C   0  0  0  0  0  0  0  0  0  0  0  0
   -6.1940    5.2144  -13.0711 F   0  0  0  0  0  0  0  0  0  0  0  0
   -7.2013    7.0358  -13.7093 F   0  0  0  0  0  0  0  0  0  0  0  0
   -8.3654    5.3660  -12.9732 F   0  0  0  0  0  0  0  0  0  0  0  0
   -8.5800    4.6167  -15.5592 C   0  0  0  0  0  0  0  0  0  0  0  0
   -8.8116    4.4276  -16.9065 C   0  0  0  0  0  0  0  0  0  0  0  0
  -10.1100    4.2005  -17.2863 C   0  0  0  0  0  0  0  0  0  0  0  0
  -10.4808    4.3842  -18.5802 C   0  0  0  0  0  0  0  0  0  0  0  0
   -9.4732    4.4916  -19.4928 C   0  0  0  0  0  0  0  0  0  0  0  0
   -8.1741    4.5488  -19.1697 N   0  0  0  0  0  0  0  0  0  0  0  0
   -7.8275    4.6176  -17.8859 C   0  0  0  0  0  0  0  0  0  0  0  0
  1  2  1  0
  2  3  1  0
  3  4  2  0
  4  5  1  0
  5  6  2  0
  6  7  1  0
  7  8  2  0
  8  9  1  0
  9 10  2  0
 10 11  1  0
 11 12  2  0
 12 13  1  0
 13 14  2  0
 13 15  1  0
 15 16  1  0
 16 17  2  0
 17 18  1  0
 18 19  1  0
 19 20  1  0
 19 21  1  0
 19 22  1  0
 18 23  2  0
 23 24  1  0
 24 25  2  0
 25 26  1  0
 26 27  2  0
 27 28  1  0
 28 29  2  0
 12  3  1  0
 29 16  1  0
 11  6  1  0
 29 24  1  0
M  END
>  <energy_score>  (911) 
-9.378058

>  <alias>  (911) 
None

>  <HIPPO Pose ID>  (911) 
70345

>  <smiles>  (911) 
COc1cnc2ccccc2c1C(=O)Nc1cc(C(F)(F)F)cc2cccnc12

>  <inchikey>  (911) 
DOHPSGBHCFCPBR-UHFFFAOYSA-N

>  <distance_score>  (911) 
0.948532

>  <ref_mols>  (911) 
Z0917a,Z0852a

>  <ref_pdb>  (911) 
Z0852a

>  <HIPPO Compound ID>  (911) 
142293

>  <name>  (911) 
P70345

>  <inspiration_score>  (911) 
None

$$$$
P70346
     RDKit          3D

 30 33  0  0  0  0  0  0  0  0999 V2000
   -0.0392    6.5617  -18.8242 C   0  0  0  0  0  0  0  0  0  0  0  0
   -0.2798    5.4099  -19.7890 C   0  0  0  0  0  0  0  0  0  0  0  0
   -1.6299    5.5102  -20.4566 C   0  0  0  0  0  0  0  0  0  0  0  0
   -1.6137    6.1678  -21.6400 N   0  0  0  0  0  0  0  0  0  0  0  0
   -2.7473    6.3451  -22.3244 C   0  0  0  0  0  0  0  0  0  0  0  0
   -2.6706    6.9989  -23.5489 C   0  0  0  0  0  0  0  0  0  0  0  0
   -3.8024    7.2615  -24.3216 C   0  0  0  0  0  0  0  0  0  0  0  0
   -5.0448    6.8657  -23.8580 C   0  0  0  0  0  0  0  0  0  0  0  0
   -5.1337    6.2084  -22.6318 C   0  0  0  0  0  0  0  0  0  0  0  0
   -3.9927    5.9269  -21.8430 C   0  0  0  0  0  0  0  0  0  0  0  0
   -3.9976    5.2657  -20.5874 C   0  0  0  0  0  0  0  0  0  0  0  0
   -5.2953    4.7927  -20.0258 C   0  0  0  0  0  0  0  0  0  0  0  0
   -5.9421    4.0397  -20.6471 O   0  0  0  0  0  0  0  0  0  0  0  0
   -5.5318    5.3978  -18.6078 N   0  0  0  0  0  0  0  0  0  0  0  0
   -6.5349    5.1324  -17.6569 C   0  0  0  0  0  0  0  0  0  0  0  0
   -6.2495    5.4635  -16.3194 C   0  0  0  0  0  0  0  0  0  0  0  0
   -7.1799    5.2679  -15.2775 C   0  0  0  0  0  0  0  0  0  0  0  0
   -6.9669    5.7317  -13.8382 C   0  0  0  0  0  0  0  0  0  0  0  0
   -5.6481    6.4823  -13.6845 C   0  0  0  0  0  0  0  0  0  0  0  0
   -6.9416    4.5237  -12.8900 C   0  0  0  0  0  0  0  0  0  0  0  0
   -8.0781    6.7060  -13.3903 C   0  0  0  0  0  0  0  0  0  0  0  0
   -8.3844    4.6648  -15.6028 C   0  0  0  0  0  0  0  0  0  0  0  0
   -8.7049    4.4531  -16.9305 C   0  0  0  0  0  0  0  0  0  0  0  0
  -10.0152    4.1652  -17.2126 C   0  0  0  0  0  0  0  0  0  0  0  0
  -10.4800    4.3128  -18.4842 C   0  0  0  0  0  0  0  0  0  0  0  0
   -9.5425    4.4824  -19.4662 C   0  0  0  0  0  0  0  0  0  0  0  0
   -8.2262    4.5789  -19.2393 N   0  0  0  0  0  0  0  0  0  0  0  0
   -7.8044    4.6723  -17.9820 C   0  0  0  0  0  0  0  0  0  0  0  0
   -2.8031    5.0172  -19.8856 C   0  0  0  0  0  0  0  0  0  0  0  0
   -2.7486    4.2272  -18.6118 C   0  0  0  0  0  0  0  0  0  0  0  0
  1  2  1  0
  2  3  1  0
  3  4  2  0
  4  5  1  0
  5  6  2  0
  6  7  1  0
  7  8  2  0
  8  9  1  0
  9 10  2  0
 10 11  1  0
 11 12  1  0
 12 13  2  0
 12 14  1  0
 14 15  1  0
 15 16  2  0
 16 17  1  0
 17 18  1  0
 18 19  1  0
 18 20  1  0
 18 21  1  0
 17 22  2  0
 22 23  1  0
 23 24  2  0
 24 25  1  0
 25 26  2  0
 26 27  1  0
 27 28  2  0
 11 29  2  0
 29 30  1  0
 29  3  1  0
 10  5  1  0
 28 15  1  0
 28 23  1  0
M  END
>  <energy_score>  (912) 
-32.515542

>  <alias>  (912) 
None

>  <HIPPO Pose ID>  (912) 
70346

>  <smiles>  (912) 
CCc1nc2ccccc2c(C(=O)Nc2cc(C(C)(C)C)cc3cccnc23)c1C

>  <inchikey>  (912) 
KCDUVVMHLCOLGY-UHFFFAOYSA-N

>  <distance_score>  (912) 
1.382601

>  <ref_mols>  (912) 
Z0917a,Z0852a

>  <ref_pdb>  (912) 
Z0852a

>  <HIPPO Compound ID>  (912) 
142296

>  <name>  (912) 
P70346

>  <inspiration_score>  (912) 
None

$$$$
P70347
     RDKit          3D

 30 33  0  0  0  0  0  0  0  0999 V2000
    0.8758    6.1271  -20.2342 C   0  0  0  0  0  0  0  0  0  0  0  0
   -0.2970    5.4188  -19.5655 C   0  0  0  0  0  0  0  0  0  0  0  0
   -1.6272    5.5653  -20.2758 C   0  0  0  0  0  0  0  0  0  0  0  0
   -1.6052    6.1957  -21.4716 N   0  0  0  0  0  0  0  0  0  0  0  0
   -2.7330    6.3546  -22.1703 C   0  0  0  0  0  0  0  0  0  0  0  0
   -2.6461    6.9791  -23.4092 C   0  0  0  0  0  0  0  0  0  0  0  0
   -3.7708    7.2177  -24.1994 C   0  0  0  0  0  0  0  0  0  0  0  0
   -5.0158    6.8250  -23.7401 C   0  0  0  0  0  0  0  0  0  0  0  0
   -5.1142    6.1954  -22.5000 C   0  0  0  0  0  0  0  0  0  0  0  0
   -3.9813    5.9429  -21.6903 C   0  0  0  0  0  0  0  0  0  0  0  0
   -3.9954    5.3112  -20.4188 C   0  0  0  0  0  0  0  0  0  0  0  0
   -5.2870    4.8280  -19.8573 C   0  0  0  0  0  0  0  0  0  0  0  0
   -5.9190    4.0732  -20.4936 O   0  0  0  0  0  0  0  0  0  0  0  0
   -5.5546    5.4300  -18.4381 N   0  0  0  0  0  0  0  0  0  0  0  0
   -6.5768    5.1568  -17.5062 C   0  0  0  0  0  0  0  0  0  0  0  0
   -6.3581    5.4907  -16.1533 C   0  0  0  0  0  0  0  0  0  0  0  0
   -7.3491    5.2624  -15.1767 C   0  0  0  0  0  0  0  0  0  0  0  0
   -7.2502    5.7674  -13.7623 C   0  0  0  0  0  0  0  0  0  0  0  0
   -6.1689    5.2908  -13.0974 F   0  0  0  0  0  0  0  0  0  0  0  0
   -8.3381    5.4600  -12.9964 F   0  0  0  0  0  0  0  0  0  0  0  0
   -7.1616    7.1275  -13.7178 F   0  0  0  0  0  0  0  0  0  0  0  0
   -8.5297    4.6473  -15.5545 C   0  0  0  0  0  0  0  0  0  0  0  0
   -8.7815    4.4476  -16.8956 C   0  0  0  0  0  0  0  0  0  0  0  0
  -10.0771    4.1680  -17.2446 C   0  0  0  0  0  0  0  0  0  0  0  0
  -10.4826    4.3381  -18.5312 C   0  0  0  0  0  0  0  0  0  0  0  0
   -9.5008    4.4951  -19.4673 C   0  0  0  0  0  0  0  0  0  0  0  0
   -8.1976    4.5993  -19.1736 N   0  0  0  0  0  0  0  0  0  0  0  0
   -7.8309    4.6847  -17.8971 C   0  0  0  0  0  0  0  0  0  0  0  0
   -2.8057    5.0711  -19.7136 C   0  0  0  0  0  0  0  0  0  0  0  0
   -2.7538    4.2712  -18.4476 C   0  0  0  0  0  0  0  0  0  0  0  0
  1  2  1  0
  2  3  1  0
  3  4  2  0
  4  5  1  0
  5  6  2  0
  6  7  1  0
  7  8  2  0
  8  9  1  0
  9 10  2  0
 10 11  1  0
 11 12  1  0
 12 13  2  0
 12 14  1  0
 14 15  1  0
 15 16  2  0
 16 17  1  0
 17 18  1  0
 18 19  1  0
 18 20  1  0
 18 21  1  0
 17 22  2  0
 22 23  1  0
 23 24  2  0
 24 25  1  0
 25 26  2  0
 26 27  1  0
 27 28  2  0
 11 29  2  0
 29 30  1  0
 29  3  1  0
 10  5  1  0
 28 15  1  0
 28 23  1  0
M  END
>  <energy_score>  (913) 
-19.930498

>  <alias>  (913) 
None

>  <HIPPO Pose ID>  (913) 
70347

>  <smiles>  (913) 
CCc1nc2ccccc2c(C(=O)Nc2cc(C(F)(F)F)cc3cccnc23)c1C

>  <inchikey>  (913) 
MMNSGDTYVNPPOG-UHFFFAOYSA-N

>  <distance_score>  (913) 
1.097789

>  <ref_mols>  (913) 
Z0917a,Z0852a

>  <ref_pdb>  (913) 
Z0852a

>  <HIPPO Compound ID>  (913) 
142297

>  <name>  (913) 
P70347

>  <inspiration_score>  (913) 
None

$$$$
P70348
     RDKit          3D

 30 33  0  0  0  0  0  0  0  0999 V2000
    0.0274    6.6381  -19.0402 C   0  0  0  0  0  0  0  0  0  0  0  0
   -0.1951    5.4615  -19.9796 C   0  0  0  0  0  0  0  0  0  0  0  0
   -1.5573    5.5168  -20.6287 C   0  0  0  0  0  0  0  0  0  0  0  0
   -1.5800    6.1653  -21.8171 N   0  0  0  0  0  0  0  0  0  0  0  0
   -2.7355    6.3414  -22.4658 C   0  0  0  0  0  0  0  0  0  0  0  0
   -2.6994    6.9927  -23.6933 C   0  0  0  0  0  0  0  0  0  0  0  0
   -3.8571    7.2606  -24.4251 C   0  0  0  0  0  0  0  0  0  0  0  0
   -5.0850    6.8749  -23.9157 C   0  0  0  0  0  0  0  0  0  0  0  0
   -5.1343    6.2202  -22.6861 C   0  0  0  0  0  0  0  0  0  0  0  0
   -3.9657    5.9294  -21.9424 C   0  0  0  0  0  0  0  0  0  0  0  0
   -3.9276    5.2666  -20.6907 C   0  0  0  0  0  0  0  0  0  0  0  0
   -5.2063    4.8215  -20.0662 C   0  0  0  0  0  0  0  0  0  0  0  0
   -5.9029    4.0773  -20.6400 O   0  0  0  0  0  0  0  0  0  0  0  0
   -5.3211    5.4059  -18.6289 N   0  0  0  0  0  0  0  0  0  0  0  0
   -6.2362    5.1281  -17.6041 C   0  0  0  0  0  0  0  0  0  0  0  0
   -5.7417    5.2771  -16.2980 C   0  0  0  0  0  0  0  0  0  0  0  0
   -6.5258    4.9615  -15.1868 C   0  0  0  0  0  0  0  0  0  0  0  0
   -5.9225    5.0893  -13.8348 C   0  0  0  0  0  0  0  0  0  0  0  0
   -4.7451    5.3542  -13.6478 O   0  0  0  0  0  0  0  0  0  0  0  0
   -6.8581    4.8963  -12.8740 O   0  0  0  0  0  0  0  0  0  0  0  0
   -6.3588    4.9907  -11.5398 C   0  0  0  0  0  0  0  0  0  0  0  0
   -7.8343    4.5369  -15.3871 C   0  0  0  0  0  0  0  0  0  0  0  0
   -8.3451    4.4640  -16.6857 C   0  0  0  0  0  0  0  0  0  0  0  0
   -9.6805    4.1528  -16.8612 C   0  0  0  0  0  0  0  0  0  0  0  0
  -10.2555    4.2135  -18.1117 C   0  0  0  0  0  0  0  0  0  0  0  0
   -9.4265    4.4962  -19.1667 C   0  0  0  0  0  0  0  0  0  0  0  0
   -8.1093    4.7224  -19.0373 N   0  0  0  0  0  0  0  0  0  0  0  0
   -7.5603    4.7408  -17.8197 C   0  0  0  0  0  0  0  0  0  0  0  0
   -2.7090    5.0104  -20.0294 C   0  0  0  0  0  0  0  0  0  0  0  0
   -2.6110    4.2203  -18.7561 C   0  0  0  0  0  0  0  0  0  0  0  0
  1  2  1  0
  2  3  1  0
  3  4  2  0
  4  5  1  0
  5  6  2  0
  6  7  1  0
  7  8  2  0
  8  9  1  0
  9 10  2  0
 10 11  1  0
 11 12  1  0
 12 13  2  0
 12 14  1  0
 14 15  1  0
 15 16  2  0
 16 17  1  0
 17 18  1  0
 18 19  2  0
 18 20  1  0
 20 21  1  0
 17 22  2  0
 22 23  1  0
 23 24  2  0
 24 25  1  0
 25 26  2  0
 26 27  1  0
 27 28  2  0
 11 29  2  0
 29 30  1  0
 29  3  1  0
 10  5  1  0
 28 15  1  0
 28 23  1  0
M  END
>  <energy_score>  (914) 
-30.040859

>  <alias>  (914) 
None

>  <HIPPO Pose ID>  (914) 
70348

>  <smiles>  (914) 
CCc1nc2ccccc2c(C(=O)Nc2cc(C(=O)OC)cc3cccnc23)c1C

>  <inchikey>  (914) 
QEHXMFXNOBFGRK-UHFFFAOYSA-N

>  <distance_score>  (914) 
1.670485

>  <ref_mols>  (914) 
Z0917a,Z0852a

>  <ref_pdb>  (914) 
Z0852a

>  <HIPPO Compound ID>  (914) 
142298

>  <name>  (914) 
P70348

>  <inspiration_score>  (914) 
None

$$$$
P70349
     RDKit          3D

 30 33  0  0  0  0  0  0  0  0999 V2000
   -6.4522    5.0742  -11.5701 C   0  0  0  0  0  0  0  0  0  0  0  0
   -6.9607    5.0006  -12.9019 O   0  0  0  0  0  0  0  0  0  0  0  0
   -6.0646    5.3385  -13.8610 C   0  0  0  0  0  0  0  0  0  0  0  0
   -4.9300    5.7463  -13.6694 O   0  0  0  0  0  0  0  0  0  0  0  0
   -6.6597    5.1660  -15.2127 C   0  0  0  0  0  0  0  0  0  0  0  0
   -5.9194    5.5591  -16.3293 C   0  0  0  0  0  0  0  0  0  0  0  0
   -6.4001    5.3588  -17.6370 C   0  0  0  0  0  0  0  0  0  0  0  0
   -5.4928    5.6823  -18.6534 N   0  0  0  0  0  0  0  0  0  0  0  0
   -5.3394    5.1070  -20.0938 C   0  0  0  0  0  0  0  0  0  0  0  0
   -5.9965    4.3311  -20.6752 O   0  0  0  0  0  0  0  0  0  0  0  0
   -4.0831    5.5827  -20.7567 C   0  0  0  0  0  0  0  0  0  0  0  0
   -2.8768    5.4370  -20.0702 C   0  0  0  0  0  0  0  0  0  0  0  0
   -2.8308    5.2624  -18.6260 C   0  0  0  0  0  0  0  0  0  0  0  0
   -2.8143    3.8914  -18.0851 C   0  0  0  0  0  0  0  0  0  0  0  0
   -2.9795    6.2585  -17.9232 O   0  0  0  0  0  0  0  0  0  0  0  0
   -1.6899    5.6016  -20.7449 C   0  0  0  0  0  0  0  0  0  0  0  0
   -1.6349    5.9256  -22.0514 N   0  0  0  0  0  0  0  0  0  0  0  0
   -2.7845    6.1243  -22.7141 C   0  0  0  0  0  0  0  0  0  0  0  0
   -2.7060    6.5167  -24.0443 C   0  0  0  0  0  0  0  0  0  0  0  0
   -3.8440    6.7915  -24.8045 C   0  0  0  0  0  0  0  0  0  0  0  0
   -5.0960    6.6695  -24.2245 C   0  0  0  0  0  0  0  0  0  0  0  0
   -5.1940    6.2592  -22.8954 C   0  0  0  0  0  0  0  0  0  0  0  0
   -4.0529    5.9735  -22.1154 C   0  0  0  0  0  0  0  0  0  0  0  0
   -7.6775    4.8525  -17.8422 C   0  0  0  0  0  0  0  0  0  0  0  0
   -8.2241    4.7973  -19.0560 N   0  0  0  0  0  0  0  0  0  0  0  0
   -9.5283    4.5150  -19.1769 C   0  0  0  0  0  0  0  0  0  0  0  0
  -10.3323    4.1792  -18.1183 C   0  0  0  0  0  0  0  0  0  0  0  0
   -9.7435    4.1257  -16.8744 C   0  0  0  0  0  0  0  0  0  0  0  0
   -8.4311    4.5162  -16.7047 C   0  0  0  0  0  0  0  0  0  0  0  0
   -7.9228    4.6226  -15.4085 C   0  0  0  0  0  0  0  0  0  0  0  0
  1  2  1  0
  2  3  1  0
  3  4  2  0
  3  5  1  0
  5  6  2  0
  6  7  1  0
  7  8  1  0
  8  9  1  0
  9 10  2  0
  9 11  1  0
 11 12  2  0
 12 13  1  0
 13 14  1  0
 13 15  2  0
 12 16  1  0
 16 17  2  0
 17 18  1  0
 18 19  2  0
 19 20  1  0
 20 21  2  0
 21 22  1  0
 22 23  2  0
  7 24  2  0
 24 25  1  0
 25 26  2  0
 26 27  1  0
 27 28  2  0
 28 29  1  0
 29 30  2  0
 30  5  1  0
 23 11  1  0
 29 24  1  0
 23 18  1  0
M  END
>  <energy_score>  (915) 
-20.819157

>  <alias>  (915) 
None

>  <HIPPO Pose ID>  (915) 
70349

>  <smiles>  (915) 
COC(=O)c1cc(NC(=O)c2c(C(C)=O)cnc3ccccc23)c2ncccc2c1

>  <inchikey>  (915) 
LQOOVZNHZROXAX-UHFFFAOYSA-N

>  <distance_score>  (915) 
1.545593

>  <ref_mols>  (915) 
Z0917a,Z0852a

>  <ref_pdb>  (915) 
Z0852a

>  <HIPPO Compound ID>  (915) 
142299

>  <name>  (915) 
P70349

>  <inspiration_score>  (915) 
None

$$$$
P70350
     RDKit          3D

 30 33  0  0  0  0  0  0  0  0999 V2000
   -1.2399    5.5731  -16.2963 C   0  0  0  0  0  0  0  0  0  0  0  0
   -1.3892    5.6169  -17.7894 C   0  0  0  0  0  0  0  0  0  0  0  0
   -0.3846    6.1603  -18.5807 C   0  0  0  0  0  0  0  0  0  0  0  0
   -0.5847    6.3033  -19.9536 C   0  0  0  0  0  0  0  0  0  0  0  0
   -1.7970    6.0046  -20.5558 C   0  0  0  0  0  0  0  0  0  0  0  0
   -1.9165    6.2854  -21.8614 N   0  0  0  0  0  0  0  0  0  0  0  0
   -3.1122    6.1243  -22.4738 C   0  0  0  0  0  0  0  0  0  0  0  0
   -3.1740    6.4891  -23.9267 C   0  0  0  0  0  0  0  0  0  0  0  0
   -4.2335    5.6851  -21.7949 C   0  0  0  0  0  0  0  0  0  0  0  0
   -5.4328    5.6491  -22.4593 O   0  0  0  0  0  0  0  0  0  0  0  0
   -4.0918    5.3432  -20.4435 C   0  0  0  0  0  0  0  0  0  0  0  0
   -5.3025    4.8099  -19.7853 C   0  0  0  0  0  0  0  0  0  0  0  0
   -5.8956    3.9978  -20.3830 O   0  0  0  0  0  0  0  0  0  0  0  0
   -5.5483    5.3965  -18.3722 N   0  0  0  0  0  0  0  0  0  0  0  0
   -6.5916    5.1828  -17.4716 C   0  0  0  0  0  0  0  0  0  0  0  0
   -6.3597    5.5153  -16.1276 C   0  0  0  0  0  0  0  0  0  0  0  0
   -7.3355    5.2991  -15.1415 C   0  0  0  0  0  0  0  0  0  0  0  0
   -7.1503    5.7727  -13.7030 C   0  0  0  0  0  0  0  0  0  0  0  0
   -8.4286    5.6346  -12.8684 C   0  0  0  0  0  0  0  0  0  0  0  0
   -6.0506    4.9445  -13.0300 C   0  0  0  0  0  0  0  0  0  0  0  0
   -6.7772    7.2668  -13.6660 C   0  0  0  0  0  0  0  0  0  0  0  0
   -8.5109    4.6726  -15.5337 C   0  0  0  0  0  0  0  0  0  0  0  0
   -8.7781    4.4750  -16.8752 C   0  0  0  0  0  0  0  0  0  0  0  0
  -10.0693    4.1697  -17.2223 C   0  0  0  0  0  0  0  0  0  0  0  0
  -10.4823    4.3274  -18.5088 C   0  0  0  0  0  0  0  0  0  0  0  0
   -9.5073    4.5103  -19.4478 C   0  0  0  0  0  0  0  0  0  0  0  0
   -8.2050    4.6424  -19.1578 N   0  0  0  0  0  0  0  0  0  0  0  0
   -7.8408    4.7220  -17.8758 C   0  0  0  0  0  0  0  0  0  0  0  0
   -2.8446    5.4844  -19.7758 C   0  0  0  0  0  0  0  0  0  0  0  0
   -2.5733    5.1963  -18.4062 C   0  0  0  0  0  0  0  0  0  0  0  0
  1  2  1  0
  2  3  2  0
  3  4  1  0
  4  5  2  0
  5  6  1  0
  6  7  2  0
  7  8  1  0
  7  9  1  0
  9 10  1  0
  9 11  2  0
 11 12  1  0
 12 13  2  0
 12 14  1  0
 14 15  1  0
 15 16  2  0
 16 17  1  0
 17 18  1  0
 18 19  1  0
 18 20  1  0
 18 21  1  0
 17 22  2  0
 22 23  1  0
 23 24  2  0
 24 25  1  0
 25 26  2  0
 26 27  1  0
 27 28  2  0
 11 29  1  0
 29 30  2  0
 30  2  1  0
 29  5  1  0
 28 15  1  0
 28 23  1  0
M  END
>  <energy_score>  (916) 
-37.499009

>  <alias>  (916) 
None

>  <HIPPO Pose ID>  (916) 
70350

>  <smiles>  (916) 
Cc1ccc2nc(C)c(O)c(C(=O)Nc3cc(C(C)(C)C)cc4cccnc34)c2c1

>  <inchikey>  (916) 
UCFZSZSFZVBVDD-UHFFFAOYSA-N

>  <distance_score>  (916) 
1.489758

>  <ref_mols>  (916) 
Z0917a,Z0852a

>  <ref_pdb>  (916) 
Z0852a

>  <HIPPO Compound ID>  (916) 
142300

>  <name>  (916) 
P70350

>  <inspiration_score>  (916) 
None

$$$$
P70351
     RDKit          3D

 30 33  0  0  0  0  0  0  0  0999 V2000
   -1.3323    5.5261  -16.0893 C   0  0  0  0  0  0  0  0  0  0  0  0
   -1.4589    5.5934  -17.5837 C   0  0  0  0  0  0  0  0  0  0  0  0
   -0.4320    6.1254  -18.3550 C   0  0  0  0  0  0  0  0  0  0  0  0
   -0.5995    6.2653  -19.7332 C   0  0  0  0  0  0  0  0  0  0  0  0
   -1.7993    5.9724  -20.3626 C   0  0  0  0  0  0  0  0  0  0  0  0
   -1.8861    6.2346  -21.6752 N   0  0  0  0  0  0  0  0  0  0  0  0
   -3.0660    6.0649  -22.3147 C   0  0  0  0  0  0  0  0  0  0  0  0
   -3.0883    6.3955  -23.7767 C   0  0  0  0  0  0  0  0  0  0  0  0
   -4.2046    5.6413  -21.6546 C   0  0  0  0  0  0  0  0  0  0  0  0
   -5.3857    5.5857  -22.3508 O   0  0  0  0  0  0  0  0  0  0  0  0
   -4.0998    5.3302  -20.2901 C   0  0  0  0  0  0  0  0  0  0  0  0
   -5.3308    4.8274  -19.6464 C   0  0  0  0  0  0  0  0  0  0  0  0
   -5.9349    4.0360  -20.2624 O   0  0  0  0  0  0  0  0  0  0  0  0
   -5.6356    5.4773  -18.2686 N   0  0  0  0  0  0  0  0  0  0  0  0
   -6.6620    5.2255  -17.3535 C   0  0  0  0  0  0  0  0  0  0  0  0
   -6.4591    5.5468  -16.0023 C   0  0  0  0  0  0  0  0  0  0  0  0
   -7.4598    5.2888  -15.0512 C   0  0  0  0  0  0  0  0  0  0  0  0
   -7.3715    5.7737  -13.6317 C   0  0  0  0  0  0  0  0  0  0  0  0
   -6.2941    5.2891  -12.9673 F   0  0  0  0  0  0  0  0  0  0  0  0
   -8.4663    5.4605  -12.8814 F   0  0  0  0  0  0  0  0  0  0  0  0
   -7.2785    7.1333  -13.5742 F   0  0  0  0  0  0  0  0  0  0  0  0
   -8.6250    4.6585  -15.4580 C   0  0  0  0  0  0  0  0  0  0  0  0
   -8.8567    4.4713  -16.8080 C   0  0  0  0  0  0  0  0  0  0  0  0
  -10.1316    4.1537  -17.1989 C   0  0  0  0  0  0  0  0  0  0  0  0
  -10.5178    4.3311  -18.4918 C   0  0  0  0  0  0  0  0  0  0  0  0
   -9.5271    4.5461  -19.4046 C   0  0  0  0  0  0  0  0  0  0  0  0
   -8.2368    4.6960  -19.0763 N   0  0  0  0  0  0  0  0  0  0  0  0
   -7.9003    4.7492  -17.7847 C   0  0  0  0  0  0  0  0  0  0  0  0
   -2.8694    5.4715  -19.5998 C   0  0  0  0  0  0  0  0  0  0  0  0
   -2.6372    5.1922  -18.2230 C   0  0  0  0  0  0  0  0  0  0  0  0
  1  2  1  0
  2  3  2  0
  3  4  1  0
  4  5  2  0
  5  6  1  0
  6  7  2  0
  7  8  1  0
  7  9  1  0
  9 10  1  0
  9 11  2  0
 11 12  1  0
 12 13  2  0
 12 14  1  0
 14 15  1  0
 15 16  2  0
 16 17  1  0
 17 18  1  0
 18 19  1  0
 18 20  1  0
 18 21  1  0
 17 22  2  0
 22 23  1  0
 23 24  2  0
 24 25  1  0
 25 26  2  0
 26 27  1  0
 27 28  2  0
 11 29  1  0
 29 30  2  0
 30  2  1  0
 29  5  1  0
 28 15  1  0
 28 23  1  0
M  END
>  <energy_score>  (917) 
-18.05127

>  <alias>  (917) 
None

>  <HIPPO Pose ID>  (917) 
70351

>  <smiles>  (917) 
Cc1ccc2nc(C)c(O)c(C(=O)Nc3cc(C(F)(F)F)cc4cccnc34)c2c1

>  <inchikey>  (917) 
TUOPFAHUCSZQAA-UHFFFAOYSA-N

>  <distance_score>  (917) 
1.084317

>  <ref_mols>  (917) 
Z0917a,Z0852a

>  <ref_pdb>  (917) 
Z0852a

>  <HIPPO Compound ID>  (917) 
142301

>  <name>  (917) 
P70351

>  <inspiration_score>  (917) 
None

$$$$
P70352
     RDKit          3D

 30 33  0  0  0  0  0  0  0  0999 V2000
   -6.6195    5.0440  -11.3519 C   0  0  0  0  0  0  0  0  0  0  0  0
   -7.0762    4.9274  -12.6996 O   0  0  0  0  0  0  0  0  0  0  0  0
   -6.1498    5.2587  -13.6312 C   0  0  0  0  0  0  0  0  0  0  0  0
   -5.0164    5.6555  -13.4087 O   0  0  0  0  0  0  0  0  0  0  0  0
   -6.7017    5.0992  -15.0017 C   0  0  0  0  0  0  0  0  0  0  0  0
   -5.9012    5.4620  -16.0856 C   0  0  0  0  0  0  0  0  0  0  0  0
   -6.3559    5.2864  -17.3991 C   0  0  0  0  0  0  0  0  0  0  0  0
   -5.4409    5.5474  -18.4170 N   0  0  0  0  0  0  0  0  0  0  0  0
   -5.2770    4.8974  -19.8127 C   0  0  0  0  0  0  0  0  0  0  0  0
   -5.9310    4.0956  -20.3569 O   0  0  0  0  0  0  0  0  0  0  0  0
   -4.0701    5.3650  -20.5274 C   0  0  0  0  0  0  0  0  0  0  0  0
   -4.2446    5.6909  -21.8774 C   0  0  0  0  0  0  0  0  0  0  0  0
   -5.4641    5.6777  -22.5038 O   0  0  0  0  0  0  0  0  0  0  0  0
   -3.1328    6.0942  -22.5939 C   0  0  0  0  0  0  0  0  0  0  0  0
   -3.2281    6.4534  -24.0466 C   0  0  0  0  0  0  0  0  0  0  0  0
   -1.9142    6.2270  -22.0207 N   0  0  0  0  0  0  0  0  0  0  0  0
   -1.7611    5.9603  -20.7161 C   0  0  0  0  0  0  0  0  0  0  0  0
   -0.5246    6.2386  -20.1548 C   0  0  0  0  0  0  0  0  0  0  0  0
   -0.2908    6.1211  -18.7850 C   0  0  0  0  0  0  0  0  0  0  0  0
   -1.2866    5.6206  -17.9555 C   0  0  0  0  0  0  0  0  0  0  0  0
   -1.1055    5.6251  -16.4648 C   0  0  0  0  0  0  0  0  0  0  0  0
   -2.4933    5.2082  -18.5325 C   0  0  0  0  0  0  0  0  0  0  0  0
   -2.7981    5.4796  -19.8988 C   0  0  0  0  0  0  0  0  0  0  0  0
   -7.6525    4.8477  -17.6644 C   0  0  0  0  0  0  0  0  0  0  0  0
   -8.1604    4.8382  -18.9044 N   0  0  0  0  0  0  0  0  0  0  0  0
   -9.4549    4.5354  -19.0859 C   0  0  0  0  0  0  0  0  0  0  0  0
  -10.2921    4.1779  -18.0625 C   0  0  0  0  0  0  0  0  0  0  0  0
   -9.7502    4.1229  -16.7954 C   0  0  0  0  0  0  0  0  0  0  0  0
   -8.4464    4.5105  -16.5623 C   0  0  0  0  0  0  0  0  0  0  0  0
   -7.9767    4.5981  -15.2468 C   0  0  0  0  0  0  0  0  0  0  0  0
  1  2  1  0
  2  3  1  0
  3  4  2  0
  3  5  1  0
  5  6  2  0
  6  7  1  0
  7  8  1  0
  8  9  1  0
  9 10  2  0
  9 11  1  0
 11 12  2  0
 12 13  1  0
 12 14  1  0
 14 15  1  0
 14 16  2  0
 16 17  1  0
 17 18  2  0
 18 19  1  0
 19 20  2  0
 20 21  1  0
 20 22  1  0
 22 23  2  0
  7 24  2  0
 24 25  1  0
 25 26  2  0
 26 27  1  0
 27 28  2  0
 28 29  1  0
 29 30  2  0
 30  5  1  0
 23 11  1  0
 29 24  1  0
 23 17  1  0
M  END
>  <energy_score>  (918) 
-1.947081

>  <alias>  (918) 
None

>  <HIPPO Pose ID>  (918) 
70352

>  <smiles>  (918) 
COC(=O)c1cc(NC(=O)c2c(O)c(C)nc3ccc(C)cc23)c2ncccc2c1

>  <inchikey>  (918) 
ZJQQZRJADLUIKH-UHFFFAOYSA-N

>  <distance_score>  (918) 
1.5484

>  <ref_mols>  (918) 
Z0917a,Z0852a

>  <ref_pdb>  (918) 
Z0852a

>  <HIPPO Compound ID>  (918) 
142302

>  <name>  (918) 
P70352

>  <inspiration_score>  (918) 
None

$$$$
P70353
     RDKit          3D

 30 33  0  0  0  0  0  0  0  0999 V2000
   -3.0134    4.0263  -17.5971 C   0  0  0  0  0  0  0  0  0  0  0  0
   -2.9138    5.3752  -18.2033 C   0  0  0  0  0  0  0  0  0  0  0  0
   -2.9828    6.4137  -17.5489 O   0  0  0  0  0  0  0  0  0  0  0  0
   -2.8899    5.4992  -19.6549 C   0  0  0  0  0  0  0  0  0  0  0  0
   -1.6786    5.6828  -20.2812 C   0  0  0  0  0  0  0  0  0  0  0  0
   -1.5664    5.9731  -21.5938 N   0  0  0  0  0  0  0  0  0  0  0  0
   -2.6852    6.1281  -22.3174 C   0  0  0  0  0  0  0  0  0  0  0  0
   -2.5525    6.4970  -23.6502 C   0  0  0  0  0  0  0  0  0  0  0  0
   -3.6595    6.7311  -24.4672 C   0  0  0  0  0  0  0  0  0  0  0  0
   -4.9340    6.5842  -23.9450 C   0  0  0  0  0  0  0  0  0  0  0  0
   -5.0851    6.1887  -22.6163 C   0  0  0  0  0  0  0  0  0  0  0  0
   -3.9746    5.9578  -21.7743 C   0  0  0  0  0  0  0  0  0  0  0  0
   -4.0575    5.6038  -20.4032 C   0  0  0  0  0  0  0  0  0  0  0  0
   -5.3310    5.1126  -19.8103 C   0  0  0  0  0  0  0  0  0  0  0  0
   -5.8771    4.2678  -20.4128 O   0  0  0  0  0  0  0  0  0  0  0  0
   -5.6675    5.7450  -18.4213 N   0  0  0  0  0  0  0  0  0  0  0  0
   -6.6574    5.4088  -17.4815 C   0  0  0  0  0  0  0  0  0  0  0  0
   -6.4379    5.7474  -16.1316 C   0  0  0  0  0  0  0  0  0  0  0  0
   -7.3802    5.4163  -15.1390 C   0  0  0  0  0  0  0  0  0  0  0  0
   -7.2792    5.8893  -13.7151 C   0  0  0  0  0  0  0  0  0  0  0  0
   -6.2098    5.3825  -13.0551 F   0  0  0  0  0  0  0  0  0  0  0  0
   -8.3774    5.5780  -12.9643 F   0  0  0  0  0  0  0  0  0  0  0  0
   -7.1765    7.2463  -13.6401 F   0  0  0  0  0  0  0  0  0  0  0  0
   -8.5119    4.7071  -15.5018 C   0  0  0  0  0  0  0  0  0  0  0  0
   -8.7728    4.5028  -16.8406 C   0  0  0  0  0  0  0  0  0  0  0  0
  -10.0484    4.1305  -17.1705 C   0  0  0  0  0  0  0  0  0  0  0  0
  -10.4843    4.2698  -18.4528 C   0  0  0  0  0  0  0  0  0  0  0  0
   -9.5338    4.5115  -19.4052 C   0  0  0  0  0  0  0  0  0  0  0  0
   -8.2383    4.7120  -19.1294 N   0  0  0  0  0  0  0  0  0  0  0  0
   -7.8648    4.8229  -17.8562 C   0  0  0  0  0  0  0  0  0  0  0  0
  1  2  1  0
  2  3  2  0
  2  4  1  0
  4  5  2  0
  5  6  1  0
  6  7  2  0
  7  8  1  0
  8  9  2  0
  9 10  1  0
 10 11  2  0
 11 12  1  0
 12 13  2  0
 13 14  1  0
 14 15  2  0
 14 16  1  0
 16 17  1  0
 17 18  2  0
 18 19  1  0
 19 20  1  0
 20 21  1  0
 20 22  1  0
 20 23  1  0
 19 24  2  0
 24 25  1  0
 25 26  2  0
 26 27  1  0
 27 28  2  0
 28 29  1  0
 29 30  2  0
 13  4  1  0
 30 17  1  0
 12  7  1  0
 30 25  1  0
M  END
>  <energy_score>  (919) 
-16.959442

>  <alias>  (919) 
None

>  <HIPPO Pose ID>  (919) 
70353

>  <smiles>  (919) 
CC(=O)c1cnc2ccccc2c1C(=O)Nc1cc(C(F)(F)F)cc2cccnc12

>  <inchikey>  (919) 
XSUSTABBDCZWKI-UHFFFAOYSA-N

>  <distance_score>  (919) 
1.046203

>  <ref_mols>  (919) 
Z0917a,Z0852a

>  <ref_pdb>  (919) 
Z0852a

>  <HIPPO Compound ID>  (919) 
142303

>  <name>  (919) 
P70353

>  <inspiration_score>  (919) 
None

$$$$
P70354
     RDKit          3D

 30 34  0  0  0  0  0  0  0  0999 V2000
   -5.9140    3.9246  -20.3550 O   0  0  0  0  0  0  0  0  0  0  0  0
   -5.3150    4.7265  -19.7458 C   0  0  0  0  0  0  0  0  0  0  0  0
   -5.5640    5.3054  -18.3198 N   0  0  0  0  0  0  0  0  0  0  0  0
   -6.6196    5.0917  -17.4223 C   0  0  0  0  0  0  0  0  0  0  0  0
   -6.4190    5.4253  -16.0697 C   0  0  0  0  0  0  0  0  0  0  0  0
   -7.4350    5.2239  -15.1186 C   0  0  0  0  0  0  0  0  0  0  0  0
   -7.3418    5.7270  -13.7047 C   0  0  0  0  0  0  0  0  0  0  0  0
   -7.2498    7.0875  -13.6613 F   0  0  0  0  0  0  0  0  0  0  0  0
   -8.4336    5.4223  -12.9450 F   0  0  0  0  0  0  0  0  0  0  0  0
   -6.2629    5.2505  -13.0356 F   0  0  0  0  0  0  0  0  0  0  0  0
   -8.6223    4.6379  -15.5247 C   0  0  0  0  0  0  0  0  0  0  0  0
   -8.8512    4.4418  -16.8731 C   0  0  0  0  0  0  0  0  0  0  0  0
  -10.1394    4.1807  -17.2631 C   0  0  0  0  0  0  0  0  0  0  0  0
  -10.5099    4.3693  -18.5572 C   0  0  0  0  0  0  0  0  0  0  0  0
   -9.5037    4.5127  -19.4672 C   0  0  0  0  0  0  0  0  0  0  0  0
   -8.2083    4.5966  -19.1383 N   0  0  0  0  0  0  0  0  0  0  0  0
   -7.8746    4.6606  -17.8496 C   0  0  0  0  0  0  0  0  0  0  0  0
   -4.0904    5.2625  -20.3885 C   0  0  0  0  0  0  0  0  0  0  0  0
   -4.2303    5.5742  -21.7455 C   0  0  0  0  0  0  0  0  0  0  0  0
   -3.1534    6.0864  -22.4435 C   0  0  0  0  0  0  0  0  0  0  0  0
   -3.2796    6.4340  -23.9112 C   0  0  0  0  0  0  0  0  0  0  0  0
   -2.0648    6.8059  -24.7317 C   0  0  0  0  0  0  0  0  0  0  0  0
   -2.7278    5.4790  -24.9455 C   0  0  0  0  0  0  0  0  0  0  0  0
   -1.9829    6.3179  -21.8076 N   0  0  0  0  0  0  0  0  0  0  0  0
   -1.8360    6.0089  -20.5107 C   0  0  0  0  0  0  0  0  0  0  0  0
   -0.6176    6.3094  -19.9199 C   0  0  0  0  0  0  0  0  0  0  0  0
   -0.3749    6.0747  -18.5683 C   0  0  0  0  0  0  0  0  0  0  0  0
   -1.3548    5.4714  -17.7976 C   0  0  0  0  0  0  0  0  0  0  0  0
   -2.5605    5.0934  -18.3849 C   0  0  0  0  0  0  0  0  0  0  0  0
   -2.8545    5.4347  -19.7316 C   0  0  0  0  0  0  0  0  0  0  0  0
  1  2  2  0
  2  3  1  0
  3  4  1  0
  4  5  2  0
  5  6  1  0
  6  7  1  0
  7  8  1  0
  7  9  1  0
  7 10  1  0
  6 11  2  0
 11 12  1  0
 12 13  2  0
 13 14  1  0
 14 15  2  0
 15 16  1  0
 16 17  2  0
  2 18  1  0
 18 19  2  0
 19 20  1  0
 20 21  1  0
 21 22  1  0
 22 23  1  0
 20 24  2  0
 24 25  1  0
 25 26  2  0
 26 27  1  0
 27 28  2  0
 28 29  1  0
 29 30  2  0
 17  4  1  0
 30 18  1  0
 17 12  1  0
 23 21  1  0
 30 25  1  0
M  END
>  <energy_score>  (920) 
-7.454899

>  <alias>  (920) 
None

>  <HIPPO Pose ID>  (920) 
70354

>  <smiles>  (920) 
O=C(Nc1cc(C(F)(F)F)cc2cccnc12)c1cc(C2CC2)nc2ccccc12

>  <inchikey>  (920) 
ARBSLFUXVCADFM-UHFFFAOYSA-N

>  <distance_score>  (920) 
1.088862

>  <ref_mols>  (920) 
Z0917a,Z0852a

>  <ref_pdb>  (920) 
Z0852a

>  <HIPPO Compound ID>  (920) 
142305

>  <name>  (920) 
P70354

>  <inspiration_score>  (920) 
None

$$$$
P70355
     RDKit          3D

 30 34  0  0  0  0  0  0  0  0999 V2000
   -6.4332    4.9442  -11.4793 C   0  0  0  0  0  0  0  0  0  0  0  0
   -6.9267    4.8560  -12.8161 O   0  0  0  0  0  0  0  0  0  0  0  0
   -5.9873    5.0553  -13.7719 C   0  0  0  0  0  0  0  0  0  0  0  0
   -4.8121    5.3257  -13.5784 O   0  0  0  0  0  0  0  0  0  0  0  0
   -6.5839    4.9291  -15.1270 C   0  0  0  0  0  0  0  0  0  0  0  0
   -5.7938    5.2427  -16.2338 C   0  0  0  0  0  0  0  0  0  0  0  0
   -6.2878    5.0875  -17.5370 C   0  0  0  0  0  0  0  0  0  0  0  0
   -5.3824    5.3364  -18.5692 N   0  0  0  0  0  0  0  0  0  0  0  0
   -5.2876    4.7304  -19.9943 C   0  0  0  0  0  0  0  0  0  0  0  0
   -5.9984    3.9865  -20.5508 O   0  0  0  0  0  0  0  0  0  0  0  0
   -4.0849    5.2162  -20.7153 C   0  0  0  0  0  0  0  0  0  0  0  0
   -4.3069    5.5495  -22.0507 C   0  0  0  0  0  0  0  0  0  0  0  0
   -3.2609    6.0275  -22.8141 C   0  0  0  0  0  0  0  0  0  0  0  0
   -3.4466    6.3708  -24.2722 C   0  0  0  0  0  0  0  0  0  0  0  0
   -4.5807    7.2635  -24.7238 C   0  0  0  0  0  0  0  0  0  0  0  0
   -3.1734    7.7793  -24.7476 C   0  0  0  0  0  0  0  0  0  0  0  0
   -2.0379    6.2016  -22.2667 N   0  0  0  0  0  0  0  0  0  0  0  0
   -1.8183    5.8943  -20.9796 C   0  0  0  0  0  0  0  0  0  0  0  0
   -0.5562    6.1629  -20.4724 C   0  0  0  0  0  0  0  0  0  0  0  0
   -0.2377    5.9426  -19.1353 C   0  0  0  0  0  0  0  0  0  0  0  0
   -1.1874    5.3858  -18.2961 C   0  0  0  0  0  0  0  0  0  0  0  0
   -2.4359    5.0290  -18.8013 C   0  0  0  0  0  0  0  0  0  0  0  0
   -2.8037    5.3566  -20.1340 C   0  0  0  0  0  0  0  0  0  0  0  0
   -7.6140    4.7215  -17.7620 C   0  0  0  0  0  0  0  0  0  0  0  0
   -8.1580    4.7398  -18.9835 N   0  0  0  0  0  0  0  0  0  0  0  0
   -9.4735    4.5198  -19.1262 C   0  0  0  0  0  0  0  0  0  0  0  0
  -10.3038    4.2130  -18.0804 C   0  0  0  0  0  0  0  0  0  0  0  0
   -9.7322    4.1308  -16.8283 C   0  0  0  0  0  0  0  0  0  0  0  0
   -8.4000    4.4393  -16.6362 C   0  0  0  0  0  0  0  0  0  0  0  0
   -7.8921    4.5040  -15.3346 C   0  0  0  0  0  0  0  0  0  0  0  0
  1  2  1  0
  2  3  1  0
  3  4  2  0
  3  5  1  0
  5  6  2  0
  6  7  1  0
  7  8  1  0
  8  9  1  0
  9 10  2  0
  9 11  1  0
 11 12  2  0
 12 13  1  0
 13 14  1  0
 14 15  1  0
 15 16  1  0
 13 17  2  0
 17 18  1  0
 18 19  2  0
 19 20  1  0
 20 21  2  0
 21 22  1  0
 22 23  2  0
  7 24  2  0
 24 25  1  0
 25 26  2  0
 26 27  1  0
 27 28  2  0
 28 29  1  0
 29 30  2  0
 30  5  1  0
 23 11  1  0
 29 24  1  0
 16 14  1  0
 23 18  1  0
M  END
>  <energy_score>  (921) 
-25.727985

>  <alias>  (921) 
None

>  <HIPPO Pose ID>  (921) 
70355

>  <smiles>  (921) 
COC(=O)c1cc(NC(=O)c2cc(C3CC3)nc3ccccc23)c2ncccc2c1

>  <inchikey>  (921) 
BLGRAQATKYAEHR-UHFFFAOYSA-N

>  <distance_score>  (921) 
1.617378

>  <ref_mols>  (921) 
Z0917a,Z0852a

>  <ref_pdb>  (921) 
Z0852a

>  <HIPPO Compound ID>  (921) 
142306

>  <name>  (921) 
P70355

>  <inspiration_score>  (921) 
None

$$$$
P70356
     RDKit          3D

 30 33  0  0  0  0  0  0  0  0999 V2000
   -2.7570    4.2622  -18.5743 C   0  0  0  0  0  0  0  0  0  0  0  0
   -2.7933    4.9842  -19.8859 C   0  0  0  0  0  0  0  0  0  0  0  0
   -1.6188    5.3957  -20.5070 C   0  0  0  0  0  0  0  0  0  0  0  0
   -0.2819    5.3334  -19.8555 C   0  0  0  0  0  0  0  0  0  0  0  0
   -0.1195    5.2566  -18.6428 O   0  0  0  0  0  0  0  0  0  0  0  0
   -1.5613    5.9569  -21.7386 N   0  0  0  0  0  0  0  0  0  0  0  0
   -2.6986    6.1746  -22.4028 C   0  0  0  0  0  0  0  0  0  0  0  0
   -2.6117    6.7633  -23.6589 C   0  0  0  0  0  0  0  0  0  0  0  0
   -3.7451    7.0717  -24.4119 C   0  0  0  0  0  0  0  0  0  0  0  0
   -4.9985    6.7892  -23.8972 C   0  0  0  0  0  0  0  0  0  0  0  0
   -5.0989    6.1923  -22.6412 C   0  0  0  0  0  0  0  0  0  0  0  0
   -3.9586    5.8632  -21.8708 C   0  0  0  0  0  0  0  0  0  0  0  0
   -3.9806    5.2519  -20.5874 C   0  0  0  0  0  0  0  0  0  0  0  0
   -5.2871    4.8084  -20.0217 C   0  0  0  0  0  0  0  0  0  0  0  0
   -5.9386    4.0635  -20.6477 O   0  0  0  0  0  0  0  0  0  0  0  0
   -5.5208    5.4076  -18.6016 N   0  0  0  0  0  0  0  0  0  0  0  0
   -6.5276    5.1446  -17.6529 C   0  0  0  0  0  0  0  0  0  0  0  0
   -6.2433    5.4744  -16.3148 C   0  0  0  0  0  0  0  0  0  0  0  0
   -7.1744    5.2772  -15.2739 C   0  0  0  0  0  0  0  0  0  0  0  0
   -6.9622    5.7385  -13.8337 C   0  0  0  0  0  0  0  0  0  0  0  0
   -8.0728    6.7137  -13.3862 C   0  0  0  0  0  0  0  0  0  0  0  0
   -6.9398    4.5291  -12.8870 C   0  0  0  0  0  0  0  0  0  0  0  0
   -5.6425    6.4868  -13.6772 C   0  0  0  0  0  0  0  0  0  0  0  0
   -8.3783    4.6735  -15.6001 C   0  0  0  0  0  0  0  0  0  0  0  0
   -8.6972    4.4607  -16.9277 C   0  0  0  0  0  0  0  0  0  0  0  0
  -10.0064    4.1673  -17.2094 C   0  0  0  0  0  0  0  0  0  0  0  0
  -10.4706    4.3082  -18.4819 C   0  0  0  0  0  0  0  0  0  0  0  0
   -9.5329    4.4787  -19.4638 C   0  0  0  0  0  0  0  0  0  0  0  0
   -8.2169    4.5836  -19.2364 N   0  0  0  0  0  0  0  0  0  0  0  0
   -7.7962    4.6817  -17.9788 C   0  0  0  0  0  0  0  0  0  0  0  0
  1  2  1  0
  2  3  2  0
  3  4  1  0
  4  5  2  0
  3  6  1  0
  6  7  2  0
  7  8  1  0
  8  9  2  0
  9 10  1  0
 10 11  2  0
 11 12  1  0
 12 13  2  0
 13 14  1  0
 14 15  2  0
 14 16  1  0
 16 17  1  0
 17 18  2  0
 18 19  1  0
 19 20  1  0
 20 21  1  0
 20 22  1  0
 20 23  1  0
 19 24  2  0
 24 25  1  0
 25 26  2  0
 26 27  1  0
 27 28  2  0
 28 29  1  0
 29 30  2  0
 13  2  1  0
 30 17  1  0
 12  7  1  0
 30 25  1  0
M  END
>  <energy_score>  (922) 
-26.138878

>  <alias>  (922) 
None

>  <HIPPO Pose ID>  (922) 
70356

>  <smiles>  (922) 
Cc1c(C=O)nc2ccccc2c1C(=O)Nc1cc(C(C)(C)C)cc2cccnc12

>  <inchikey>  (922) 
VRYJXNXQZZNJBS-UHFFFAOYSA-N

>  <distance_score>  (922) 
1.370462

>  <ref_mols>  (922) 
Z0917a,Z0852a

>  <ref_pdb>  (922) 
Z0852a

>  <HIPPO Compound ID>  (922) 
142308

>  <name>  (922) 
P70356

>  <inspiration_score>  (922) 
None

$$$$
P70357
     RDKit          3D

 30 33  0  0  0  0  0  0  0  0999 V2000
   -2.7236    4.2787  -18.4588 C   0  0  0  0  0  0  0  0  0  0  0  0
   -2.7706    5.0115  -19.7614 C   0  0  0  0  0  0  0  0  0  0  0  0
   -1.6009    5.4159  -20.3981 C   0  0  0  0  0  0  0  0  0  0  0  0
   -0.2555    5.3422  -19.7664 C   0  0  0  0  0  0  0  0  0  0  0  0
   -0.0767    5.2663  -18.5562 O   0  0  0  0  0  0  0  0  0  0  0  0
   -1.5536    5.9704  -21.6327 N   0  0  0  0  0  0  0  0  0  0  0  0
   -2.6957    6.1837  -22.2876 C   0  0  0  0  0  0  0  0  0  0  0  0
   -2.6164    6.7605  -23.5498 C   0  0  0  0  0  0  0  0  0  0  0  0
   -3.7540    7.0595  -24.2993 C   0  0  0  0  0  0  0  0  0  0  0  0
   -5.0029    6.7782  -23.7744 C   0  0  0  0  0  0  0  0  0  0  0  0
   -5.0938    6.1935  -22.5116 C   0  0  0  0  0  0  0  0  0  0  0  0
   -3.9506    5.8763  -21.7407 C   0  0  0  0  0  0  0  0  0  0  0  0
   -3.9635    5.2783  -20.4472 C   0  0  0  0  0  0  0  0  0  0  0  0
   -5.2603    4.8193  -19.8702 C   0  0  0  0  0  0  0  0  0  0  0  0
   -5.9272    4.1176  -20.5317 O   0  0  0  0  0  0  0  0  0  0  0  0
   -5.5029    5.3892  -18.4332 N   0  0  0  0  0  0  0  0  0  0  0  0
   -6.5425    5.1386  -17.5118 C   0  0  0  0  0  0  0  0  0  0  0  0
   -6.3308    5.4858  -16.1599 C   0  0  0  0  0  0  0  0  0  0  0  0
   -7.3265    5.2696  -15.1844 C   0  0  0  0  0  0  0  0  0  0  0  0
   -7.2315    5.7798  -13.7712 C   0  0  0  0  0  0  0  0  0  0  0  0
   -8.3221    5.4743  -13.0075 F   0  0  0  0  0  0  0  0  0  0  0  0
   -6.1525    5.3075  -13.1005 F   0  0  0  0  0  0  0  0  0  0  0  0
   -7.1463    7.1404  -13.7322 F   0  0  0  0  0  0  0  0  0  0  0  0
   -8.5087    4.6579  -15.5616 C   0  0  0  0  0  0  0  0  0  0  0  0
   -8.7558    4.4484  -16.9012 C   0  0  0  0  0  0  0  0  0  0  0  0
  -10.0532    4.1741  -17.2480 C   0  0  0  0  0  0  0  0  0  0  0  0
  -10.4546    4.3320  -18.5370 C   0  0  0  0  0  0  0  0  0  0  0  0
   -9.4695    4.4716  -19.4727 C   0  0  0  0  0  0  0  0  0  0  0  0
   -8.1654    4.5724  -19.1785 N   0  0  0  0  0  0  0  0  0  0  0  0
   -7.7992    4.6696  -17.9024 C   0  0  0  0  0  0  0  0  0  0  0  0
  1  2  1  0
  2  3  2  0
  3  4  1  0
  4  5  2  0
  3  6  1  0
  6  7  2  0
  7  8  1  0
  8  9  2  0
  9 10  1  0
 10 11  2  0
 11 12  1  0
 12 13  2  0
 13 14  1  0
 14 15  2  0
 14 16  1  0
 16 17  1  0
 17 18  2  0
 18 19  1  0
 19 20  1  0
 20 21  1  0
 20 22  1  0
 20 23  1  0
 19 24  2  0
 24 25  1  0
 25 26  2  0
 26 27  1  0
 27 28  2  0
 28 29  1  0
 29 30  2  0
 13  2  1  0
 30 17  1  0
 12  7  1  0
 30 25  1  0
M  END
>  <energy_score>  (923) 
-9.048629

>  <alias>  (923) 
None

>  <HIPPO Pose ID>  (923) 
70357

>  <smiles>  (923) 
Cc1c(C=O)nc2ccccc2c1C(=O)Nc1cc(C(F)(F)F)cc2cccnc12

>  <inchikey>  (923) 
JJHAGOBTXVYDRD-UHFFFAOYSA-N

>  <distance_score>  (923) 
1.098189

>  <ref_mols>  (923) 
Z0917a,Z0852a

>  <ref_pdb>  (923) 
Z0852a

>  <HIPPO Compound ID>  (923) 
142309

>  <name>  (923) 
P70357

>  <inspiration_score>  (923) 
None

$$$$
P70358
     RDKit          3D

 30 33  0  0  0  0  0  0  0  0999 V2000
   -6.7555    5.3134  -11.4946 C   0  0  0  0  0  0  0  0  0  0  0  0
   -7.2493    5.1342  -12.8219 O   0  0  0  0  0  0  0  0  0  0  0  0
   -6.3527    5.4357  -13.7934 C   0  0  0  0  0  0  0  0  0  0  0  0
   -5.2177    5.8509  -13.6174 O   0  0  0  0  0  0  0  0  0  0  0  0
   -6.9506    5.2318  -15.1375 C   0  0  0  0  0  0  0  0  0  0  0  0
   -6.2181    5.6152  -16.2601 C   0  0  0  0  0  0  0  0  0  0  0  0
   -6.7254    5.3947  -17.5504 C   0  0  0  0  0  0  0  0  0  0  0  0
   -5.8238    5.5232  -18.5896 N   0  0  0  0  0  0  0  0  0  0  0  0
   -5.7379    4.7732  -19.9527 C   0  0  0  0  0  0  0  0  0  0  0  0
   -6.4612    3.9895  -20.4342 O   0  0  0  0  0  0  0  0  0  0  0  0
   -4.4711    5.1063  -20.6083 C   0  0  0  0  0  0  0  0  0  0  0  0
   -4.5015    5.5145  -21.9344 C   0  0  0  0  0  0  0  0  0  0  0  0
   -3.3146    5.9450  -22.4808 C   0  0  0  0  0  0  0  0  0  0  0  0
   -3.2434    6.3967  -23.9071 C   0  0  0  0  0  0  0  0  0  0  0  0
   -2.1804    6.0205  -21.7508 N   0  0  0  0  0  0  0  0  0  0  0  0
   -2.1763    5.6235  -20.4555 C   0  0  0  0  0  0  0  0  0  0  0  0
   -1.0637    5.8177  -19.6504 C   0  0  0  0  0  0  0  0  0  0  0  0
    0.0091    6.3831  -20.1811 F   0  0  0  0  0  0  0  0  0  0  0  0
   -0.9947    5.5361  -18.2907 C   0  0  0  0  0  0  0  0  0  0  0  0
   -2.0697    4.9272  -17.6989 C   0  0  0  0  0  0  0  0  0  0  0  0
   -3.1599    4.6252  -18.4894 C   0  0  0  0  0  0  0  0  0  0  0  0
   -4.1203    3.9140  -17.8966 F   0  0  0  0  0  0  0  0  0  0  0  0
   -3.2869    5.0800  -19.8363 C   0  0  0  0  0  0  0  0  0  0  0  0
   -8.0008    4.9293  -17.7502 C   0  0  0  0  0  0  0  0  0  0  0  0
   -8.5498    4.9672  -18.9623 N   0  0  0  0  0  0  0  0  0  0  0  0
   -9.8340    4.6483  -19.1050 C   0  0  0  0  0  0  0  0  0  0  0  0
  -10.5984    4.1880  -18.0694 C   0  0  0  0  0  0  0  0  0  0  0  0
   -9.9940    4.0889  -16.8326 C   0  0  0  0  0  0  0  0  0  0  0  0
   -8.7158    4.5426  -16.6237 C   0  0  0  0  0  0  0  0  0  0  0  0
   -8.1990    4.6507  -15.3261 C   0  0  0  0  0  0  0  0  0  0  0  0
  1  2  1  0
  2  3  1  0
  3  4  2  0
  3  5  1  0
  5  6  2  0
  6  7  1  0
  7  8  1  0
  8  9  1  0
  9 10  2  0
  9 11  1  0
 11 12  2  0
 12 13  1  0
 13 14  1  0
 13 15  2  0
 15 16  1  0
 16 17  2  0
 17 18  1  0
 17 19  1  0
 19 20  2  0
 20 21  1  0
 21 22  1  0
 21 23  2  0
  7 24  2  0
 24 25  1  0
 25 26  2  0
 26 27  1  0
 27 28  2  0
 28 29  1  0
 29 30  2  0
 30  5  1  0
 23 11  1  0
 29 24  1  0
 23 16  1  0
M  END
>  <energy_score>  (924) 
-5.838886

>  <alias>  (924) 
None

>  <HIPPO Pose ID>  (924) 
70358

>  <smiles>  (924) 
COC(=O)c1cc(NC(=O)c2cc(C)nc3c(F)ccc(F)c23)c2ncccc2c1

>  <inchikey>  (924) 
QUYQCMXUWWHBIB-UHFFFAOYSA-N

>  <distance_score>  (924) 
1.709321

>  <ref_mols>  (924) 
Z0917a,Z0852a

>  <ref_pdb>  (924) 
Z0852a

>  <HIPPO Compound ID>  (924) 
142310

>  <name>  (924) 
P70358

>  <inspiration_score>  (924) 
None

$$$$
P70359
     RDKit          3D

 30 33  0  0  0  0  0  0  0  0999 V2000
   -5.2326    6.0002  -22.4323 C   0  0  0  0  0  0  0  0  0  0  0  0
   -4.0079    5.7887  -21.5871 C   0  0  0  0  0  0  0  0  0  0  0  0
   -4.0102    5.3157  -20.3217 C   0  0  0  0  0  0  0  0  0  0  0  0
   -5.3200    4.7780  -19.8052 C   0  0  0  0  0  0  0  0  0  0  0  0
   -5.9178    3.9866  -20.4282 O   0  0  0  0  0  0  0  0  0  0  0  0
   -5.6318    5.4160  -18.4148 N   0  0  0  0  0  0  0  0  0  0  0  0
   -6.6596    5.1459  -17.4990 C   0  0  0  0  0  0  0  0  0  0  0  0
   -6.4586    5.4795  -16.1436 C   0  0  0  0  0  0  0  0  0  0  0  0
   -7.4459    5.2246  -15.1725 C   0  0  0  0  0  0  0  0  0  0  0  0
   -7.4104    5.7142  -13.7244 C   0  0  0  0  0  0  0  0  0  0  0  0
   -7.7508    4.5849  -12.7341 C   0  0  0  0  0  0  0  0  0  0  0  0
   -6.0736    6.3409  -13.3171 C   0  0  0  0  0  0  0  0  0  0  0  0
   -8.4667    6.8138  -13.5696 C   0  0  0  0  0  0  0  0  0  0  0  0
   -8.6088    4.5885  -15.5916 C   0  0  0  0  0  0  0  0  0  0  0  0
   -8.8548    4.4129  -16.9357 C   0  0  0  0  0  0  0  0  0  0  0  0
  -10.1517    4.1640  -17.3051 C   0  0  0  0  0  0  0  0  0  0  0  0
  -10.5380    4.3828  -18.5880 C   0  0  0  0  0  0  0  0  0  0  0  0
   -9.5411    4.5263  -19.5090 C   0  0  0  0  0  0  0  0  0  0  0  0
   -8.2402    4.5965  -19.2002 N   0  0  0  0  0  0  0  0  0  0  0  0
   -7.8957    4.6619  -17.9159 C   0  0  0  0  0  0  0  0  0  0  0  0
   -2.7780    5.3573  -19.5104 C   0  0  0  0  0  0  0  0  0  0  0  0
   -2.7482    4.9690  -18.1601 C   0  0  0  0  0  0  0  0  0  0  0  0
   -1.6681    5.2964  -17.3429 C   0  0  0  0  0  0  0  0  0  0  0  0
   -0.5348    5.8757  -17.8919 C   0  0  0  0  0  0  0  0  0  0  0  0
   -0.4897    6.1288  -19.2595 C   0  0  0  0  0  0  0  0  0  0  0  0
   -1.6093    5.8892  -20.0764 C   0  0  0  0  0  0  0  0  0  0  0  0
   -1.5851    6.2053  -21.4612 N   0  0  0  0  0  0  0  0  0  0  0  0
   -0.3281    6.5735  -22.0974 C   0  0  0  0  0  0  0  0  0  0  0  0
   -2.7271    6.1866  -22.2420 C   0  0  0  0  0  0  0  0  0  0  0  0
   -2.7242    6.5212  -23.4273 O   0  0  0  0  0  0  0  0  0  0  0  0
  1  2  1  0
  2  3  2  0
  3  4  1  0
  4  5  2  0
  4  6  1  0
  6  7  1  0
  7  8  2  0
  8  9  1  0
  9 10  1  0
 10 11  1  0
 10 12  1  0
 10 13  1  0
  9 14  2  0
 14 15  1  0
 15 16  2  0
 16 17  1  0
 17 18  2  0
 18 19  1  0
 19 20  2  0
  3 21  1  0
 21 22  2  0
 22 23  1  0
 23 24  2  0
 24 25  1  0
 25 26  2  0
 26 27  1  0
 27 28  1  0
 27 29  1  0
 29 30  2  0
 29  2  1  0
 20  7  1  0
 26 21  1  0
 20 15  1  0
M  END
>  <energy_score>  (925) 
-33.822005

>  <alias>  (925) 
None

>  <HIPPO Pose ID>  (925) 
70359

>  <smiles>  (925) 
Cc1c(C(=O)Nc2cc(C(C)(C)C)cc3cccnc23)c2ccccc2n(C)c1=O

>  <inchikey>  (925) 
WRCGXPCYAZQTPI-UHFFFAOYSA-N

>  <distance_score>  (925) 
1.317123

>  <ref_mols>  (925) 
Z0917a,Z0852a

>  <ref_pdb>  (925) 
Z0852a

>  <HIPPO Compound ID>  (925) 
142311

>  <name>  (925) 
P70359

>  <inspiration_score>  (925) 
None

$$$$
P70360
     RDKit          3D

 30 33  0  0  0  0  0  0  0  0999 V2000
   -5.3211    4.3302  -21.0205 C   0  0  0  0  0  0  0  0  0  0  0  0
   -4.0131    4.9691  -20.6591 C   0  0  0  0  0  0  0  0  0  0  0  0
   -3.4736    5.1338  -19.4293 C   0  0  0  0  0  0  0  0  0  0  0  0
   -4.1503    4.6987  -18.1279 C   0  0  0  0  0  0  0  0  0  0  0  0
   -3.5346    4.1728  -17.2898 O   0  0  0  0  0  0  0  0  0  0  0  0
   -5.6218    5.1402  -18.1550 N   0  0  0  0  0  0  0  0  0  0  0  0
   -6.6345    4.9518  -17.2306 C   0  0  0  0  0  0  0  0  0  0  0  0
   -6.4160    5.0933  -15.8599 C   0  0  0  0  0  0  0  0  0  0  0  0
   -7.5042    5.0138  -14.9812 C   0  0  0  0  0  0  0  0  0  0  0  0
   -7.4248    5.5002  -13.5615 C   0  0  0  0  0  0  0  0  0  0  0  0
   -7.3509    6.8636  -13.5100 F   0  0  0  0  0  0  0  0  0  0  0  0
   -6.3484    5.0361  -12.8821 F   0  0  0  0  0  0  0  0  0  0  0  0
   -8.5233    5.1816  -12.8193 F   0  0  0  0  0  0  0  0  0  0  0  0
   -8.7456    4.6287  -15.4760 C   0  0  0  0  0  0  0  0  0  0  0  0
   -8.9357    4.4993  -16.8432 C   0  0  0  0  0  0  0  0  0  0  0  0
  -10.2001    4.2981  -17.3404 C   0  0  0  0  0  0  0  0  0  0  0  0
  -10.4490    4.4684  -18.6654 C   0  0  0  0  0  0  0  0  0  0  0  0
   -9.3683    4.5236  -19.4968 C   0  0  0  0  0  0  0  0  0  0  0  0
   -8.0965    4.6006  -19.0734 N   0  0  0  0  0  0  0  0  0  0  0  0
   -7.8946    4.6825  -17.7499 C   0  0  0  0  0  0  0  0  0  0  0  0
   -2.0782    5.6253  -19.3408 C   0  0  0  0  0  0  0  0  0  0  0  0
   -1.5058    5.9848  -18.1071 C   0  0  0  0  0  0  0  0  0  0  0  0
   -0.1619    6.3498  -18.0042 C   0  0  0  0  0  0  0  0  0  0  0  0
    0.6354    6.3651  -19.1369 C   0  0  0  0  0  0  0  0  0  0  0  0
    0.0770    6.0500  -20.3744 C   0  0  0  0  0  0  0  0  0  0  0  0
   -1.2817    5.7036  -20.4926 C   0  0  0  0  0  0  0  0  0  0  0  0
   -1.8834    5.5076  -21.7632 N   0  0  0  0  0  0  0  0  0  0  0  0
   -1.0975    5.6467  -22.9778 C   0  0  0  0  0  0  0  0  0  0  0  0
   -3.2505    5.3729  -21.8852 C   0  0  0  0  0  0  0  0  0  0  0  0
   -3.8542    5.5291  -22.9468 O   0  0  0  0  0  0  0  0  0  0  0  0
  1  2  1  0
  2  3  2  0
  3  4  1  0
  4  5  2  0
  4  6  1  0
  6  7  1  0
  7  8  2  0
  8  9  1  0
  9 10  1  0
 10 11  1  0
 10 12  1  0
 10 13  1  0
  9 14  2  0
 14 15  1  0
 15 16  2  0
 16 17  1  0
 17 18  2  0
 18 19  1  0
 19 20  2  0
  3 21  1  0
 21 22  2  0
 22 23  1  0
 23 24  2  0
 24 25  1  0
 25 26  2  0
 26 27  1  0
 27 28  1  0
 27 29  1  0
 29 30  2  0
 29  2  1  0
 20  7  1  0
 26 21  1  0
 20 15  1  0
M  END
>  <energy_score>  (926) 
-28.879112

>  <alias>  (926) 
None

>  <HIPPO Pose ID>  (926) 
70360

>  <smiles>  (926) 
Cc1c(C(=O)Nc2cc(C(F)(F)F)cc3cccnc23)c2ccccc2n(C)c1=O

>  <inchikey>  (926) 
KMQPWAQCDWDRCF-UHFFFAOYSA-N

>  <distance_score>  (926) 
1.708434

>  <ref_mols>  (926) 
Z0917a,Z0852a

>  <ref_pdb>  (926) 
Z0852a

>  <HIPPO Compound ID>  (926) 
142312

>  <name>  (926) 
P70360

>  <inspiration_score>  (926) 
None

$$$$
P70361
     RDKit          3D

 30 33  0  0  0  0  0  0  0  0999 V2000
   -6.4558    5.1330  -11.5064 C   0  0  0  0  0  0  0  0  0  0  0  0
   -6.9364    4.9847  -12.8425 O   0  0  0  0  0  0  0  0  0  0  0  0
   -5.9963    5.1944  -13.7965 C   0  0  0  0  0  0  0  0  0  0  0  0
   -4.8321    5.5053  -13.5983 O   0  0  0  0  0  0  0  0  0  0  0  0
   -6.5772    5.0256  -15.1539 C   0  0  0  0  0  0  0  0  0  0  0  0
   -5.7829    5.3289  -16.2614 C   0  0  0  0  0  0  0  0  0  0  0  0
   -6.2600    5.1480  -17.5701 C   0  0  0  0  0  0  0  0  0  0  0  0
   -5.3258    5.3874  -18.5844 N   0  0  0  0  0  0  0  0  0  0  0  0
   -5.2335    4.8132  -20.0334 C   0  0  0  0  0  0  0  0  0  0  0  0
   -5.9670    4.1148  -20.6208 O   0  0  0  0  0  0  0  0  0  0  0  0
   -3.9306    5.2766  -20.6193 C   0  0  0  0  0  0  0  0  0  0  0  0
   -2.7935    4.9936  -19.9546 C   0  0  0  0  0  0  0  0  0  0  0  0
   -2.6524    4.2257  -18.6709 C   0  0  0  0  0  0  0  0  0  0  0  0
   -1.4785    5.4142  -20.5183 C   0  0  0  0  0  0  0  0  0  0  0  0
   -0.4951    5.4327  -19.7774 O   0  0  0  0  0  0  0  0  0  0  0  0
   -1.4409    5.7656  -21.8565 N   0  0  0  0  0  0  0  0  0  0  0  0
   -0.1383    5.9868  -22.4627 C   0  0  0  0  0  0  0  0  0  0  0  0
   -2.6284    6.0468  -22.5893 C   0  0  0  0  0  0  0  0  0  0  0  0
   -2.5824    6.5478  -23.9028 C   0  0  0  0  0  0  0  0  0  0  0  0
   -3.7502    6.9121  -24.5751 C   0  0  0  0  0  0  0  0  0  0  0  0
   -4.9770    6.7862  -23.9407 C   0  0  0  0  0  0  0  0  0  0  0  0
   -5.0317    6.2727  -22.6453 C   0  0  0  0  0  0  0  0  0  0  0  0
   -3.8713    5.8783  -21.9624 C   0  0  0  0  0  0  0  0  0  0  0  0
   -7.5782    4.7521  -17.7944 C   0  0  0  0  0  0  0  0  0  0  0  0
   -8.1141    4.7258  -19.0173 N   0  0  0  0  0  0  0  0  0  0  0  0
   -9.4273    4.4861  -19.1592 C   0  0  0  0  0  0  0  0  0  0  0  0
  -10.2624    4.1978  -18.1109 C   0  0  0  0  0  0  0  0  0  0  0  0
   -9.6985    4.1487  -16.8549 C   0  0  0  0  0  0  0  0  0  0  0  0
   -8.3706    4.4792  -16.6664 C   0  0  0  0  0  0  0  0  0  0  0  0
   -7.8759    4.5762  -15.3631 C   0  0  0  0  0  0  0  0  0  0  0  0
  1  2  1  0
  2  3  1  0
  3  4  2  0
  3  5  1  0
  5  6  2  0
  6  7  1  0
  7  8  1  0
  8  9  1  0
  9 10  2  0
  9 11  1  0
 11 12  2  0
 12 13  1  0
 12 14  1  0
 14 15  2  0
 14 16  1  0
 16 17  1  0
 16 18  1  0
 18 19  2  0
 19 20  1  0
 20 21  2  0
 21 22  1  0
 22 23  2  0
  7 24  2  0
 24 25  1  0
 25 26  2  0
 26 27  1  0
 27 28  2  0
 28 29  1  0
 29 30  2  0
 30  5  1  0
 23 11  1  0
 29 24  1  0
 23 18  1  0
M  END
>  <energy_score>  (927) 
-47.538741

>  <alias>  (927) 
None

>  <HIPPO Pose ID>  (927) 
70361

>  <smiles>  (927) 
COC(=O)c1cc(NC(=O)c2c(C)c(=O)n(C)c3ccccc23)c2ncccc2c1

>  <inchikey>  (927) 
MSXKZJHAEQXLTJ-UHFFFAOYSA-N

>  <distance_score>  (927) 
1.588726

>  <ref_mols>  (927) 
Z0917a,Z0852a

>  <ref_pdb>  (927) 
Z0852a

>  <HIPPO Compound ID>  (927) 
142313

>  <name>  (927) 
P70361

>  <inspiration_score>  (927) 
None

$$$$
P70362
     RDKit          3D

 30 34  0  0  0  0  0  0  0  0999 V2000
   -5.7879    4.0343  -20.5109 O   0  0  0  0  0  0  0  0  0  0  0  0
   -5.1977    4.8329  -19.8874 C   0  0  0  0  0  0  0  0  0  0  0  0
   -5.4342    5.3607  -18.4336 N   0  0  0  0  0  0  0  0  0  0  0  0
   -6.4748    5.0873  -17.5158 C   0  0  0  0  0  0  0  0  0  0  0  0
   -6.2745    5.4359  -16.1613 C   0  0  0  0  0  0  0  0  0  0  0  0
   -7.2849    5.2415  -15.1949 C   0  0  0  0  0  0  0  0  0  0  0  0
   -7.2018    5.7607  -13.7838 C   0  0  0  0  0  0  0  0  0  0  0  0
   -7.1294    7.1224  -13.7514 F   0  0  0  0  0  0  0  0  0  0  0  0
   -8.2922    5.4493  -13.0221 F   0  0  0  0  0  0  0  0  0  0  0  0
   -6.1210    5.3028  -13.1056 F   0  0  0  0  0  0  0  0  0  0  0  0
   -8.4744    4.6521  -15.5826 C   0  0  0  0  0  0  0  0  0  0  0  0
   -8.7094    4.4380  -16.9230 C   0  0  0  0  0  0  0  0  0  0  0  0
  -10.0114    4.1923  -17.2751 C   0  0  0  0  0  0  0  0  0  0  0  0
  -10.3945    4.3362  -18.5707 C   0  0  0  0  0  0  0  0  0  0  0  0
   -9.3964    4.4315  -19.4992 C   0  0  0  0  0  0  0  0  0  0  0  0
   -8.0918    4.5186  -19.1971 N   0  0  0  0  0  0  0  0  0  0  0  0
   -7.7356    4.6306  -17.9178 C   0  0  0  0  0  0  0  0  0  0  0  0
   -4.0121    5.4669  -20.5407 C   0  0  0  0  0  0  0  0  0  0  0  0
   -2.7822    5.4677  -19.9115 C   0  0  0  0  0  0  0  0  0  0  0  0
   -1.7105    6.0256  -20.5894 C   0  0  0  0  0  0  0  0  0  0  0  0
   -1.7500    6.5563  -21.8148 N   0  0  0  0  0  0  0  0  0  0  0  0
   -2.9269    6.5357  -22.4418 C   0  0  0  0  0  0  0  0  0  0  0  0
   -2.9718    7.0924  -23.7139 C   0  0  0  0  0  0  0  0  0  0  0  0
   -4.1545    7.1678  -24.4461 C   0  0  0  0  0  0  0  0  0  0  0  0
   -5.3205    6.6697  -23.8944 C   0  0  0  0  0  0  0  0  0  0  0  0
   -5.2844    6.0947  -22.6223 C   0  0  0  0  0  0  0  0  0  0  0  0
   -4.1028    6.0121  -21.8579 C   0  0  0  0  0  0  0  0  0  0  0  0
   -0.4672    6.0463  -19.7607 C   0  0  0  0  0  0  0  0  0  0  0  0
   -0.8193    4.9789  -18.7376 C   0  0  0  0  0  0  0  0  0  0  0  0
   -2.3480    4.9740  -18.5738 C   0  0  0  0  0  0  0  0  0  0  0  0
  1  2  2  0
  2  3  1  0
  3  4  1  0
  4  5  2  0
  5  6  1  0
  6  7  1  0
  7  8  1  0
  7  9  1  0
  7 10  1  0
  6 11  2  0
 11 12  1  0
 12 13  2  0
 13 14  1  0
 14 15  2  0
 15 16  1  0
 16 17  2  0
  2 18  1  0
 18 19  2  0
 19 20  1  0
 20 21  2  0
 21 22  1  0
 22 23  2  0
 23 24  1  0
 24 25  2  0
 25 26  1  0
 26 27  2  0
 20 28  1  0
 28 29  1  0
 29 30  1  0
 17  4  1  0
 27 18  1  0
 17 12  1  0
 30 19  1  0
 27 22  1  0
M  END
>  <energy_score>  (928) 
-10.150691

>  <alias>  (928) 
None

>  <HIPPO Pose ID>  (928) 
70362

>  <smiles>  (928) 
O=C(Nc1cc(C(F)(F)F)cc2cccnc12)c1c2c(nc3ccccc13)CCC2

>  <inchikey>  (928) 
NVWQQEIYOYYVJS-UHFFFAOYSA-N

>  <distance_score>  (928) 
1.241717

>  <ref_mols>  (928) 
Z0917a,Z0852a

>  <ref_pdb>  (928) 
Z0852a

>  <HIPPO Compound ID>  (928) 
142315

>  <name>  (928) 
P70362

>  <inspiration_score>  (928) 
None

$$$$
P70363
     RDKit          3D

 30 34  0  0  0  0  0  0  0  0999 V2000
   -6.4110    5.0366  -11.5455 C   0  0  0  0  0  0  0  0  0  0  0  0
   -6.8870    4.9016  -12.8847 O   0  0  0  0  0  0  0  0  0  0  0  0
   -5.9303    5.0595  -13.8321 C   0  0  0  0  0  0  0  0  0  0  0  0
   -4.7540    5.3155  -13.6260 O   0  0  0  0  0  0  0  0  0  0  0  0
   -6.5072    4.9081  -15.1931 C   0  0  0  0  0  0  0  0  0  0  0  0
   -5.6905    5.1669  -16.2949 C   0  0  0  0  0  0  0  0  0  0  0  0
   -6.1566    4.9981  -17.6105 C   0  0  0  0  0  0  0  0  0  0  0  0
   -5.1955    5.2418  -18.6037 N   0  0  0  0  0  0  0  0  0  0  0  0
   -5.1256    4.7615  -20.0797 C   0  0  0  0  0  0  0  0  0  0  0  0
   -5.8172    4.0272  -20.6714 O   0  0  0  0  0  0  0  0  0  0  0  0
   -3.9170    5.3313  -20.7473 C   0  0  0  0  0  0  0  0  0  0  0  0
   -2.6762    5.2675  -20.1292 C   0  0  0  0  0  0  0  0  0  0  0  0
   -1.6014    5.8414  -20.7889 C   0  0  0  0  0  0  0  0  0  0  0  0
   -1.6472    6.4186  -21.9942 N   0  0  0  0  0  0  0  0  0  0  0  0
   -2.8369    6.4628  -22.6019 C   0  0  0  0  0  0  0  0  0  0  0  0
   -2.8905    7.0764  -23.8471 C   0  0  0  0  0  0  0  0  0  0  0  0
   -4.0871    7.2302  -24.5466 C   0  0  0  0  0  0  0  0  0  0  0  0
   -5.2631    6.7638  -23.9864 C   0  0  0  0  0  0  0  0  0  0  0  0
   -5.2241    6.1369  -22.7404 C   0  0  0  0  0  0  0  0  0  0  0  0
   -4.0218    5.9565  -22.0220 C   0  0  0  0  0  0  0  0  0  0  0  0
   -0.3486    5.8013  -19.9652 C   0  0  0  0  0  0  0  0  0  0  0  0
   -0.9460    5.5110  -18.5917 C   0  0  0  0  0  0  0  0  0  0  0  0
   -2.1930    4.6473  -18.8550 C   0  0  0  0  0  0  0  0  0  0  0  0
   -7.4902    4.6509  -17.8466 C   0  0  0  0  0  0  0  0  0  0  0  0
   -8.0211    4.6194  -19.0730 N   0  0  0  0  0  0  0  0  0  0  0  0
   -9.3455    4.4375  -19.2151 C   0  0  0  0  0  0  0  0  0  0  0  0
  -10.2031    4.2179  -18.1671 C   0  0  0  0  0  0  0  0  0  0  0  0
   -9.6520    4.1684  -16.9072 C   0  0  0  0  0  0  0  0  0  0  0  0
   -8.3083    4.4336  -16.7193 C   0  0  0  0  0  0  0  0  0  0  0  0
   -7.8237    4.5226  -15.4120 C   0  0  0  0  0  0  0  0  0  0  0  0
  1  2  1  0
  2  3  1  0
  3  4  2  0
  3  5  1  0
  5  6  2  0
  6  7  1  0
  7  8  1  0
  8  9  1  0
  9 10  2  0
  9 11  1  0
 11 12  2  0
 12 13  1  0
 13 14  2  0
 14 15  1  0
 15 16  2  0
 16 17  1  0
 17 18  2  0
 18 19  1  0
 19 20  2  0
 13 21  1  0
 21 22  1  0
 22 23  1  0
  7 24  2  0
 24 25  1  0
 25 26  2  0
 26 27  1  0
 27 28  2  0
 28 29  1  0
 29 30  2  0
 30  5  1  0
 20 11  1  0
 29 24  1  0
 23 12  1  0
 20 15  1  0
M  END
>  <energy_score>  (929) 
-26.953715

>  <alias>  (929) 
None

>  <HIPPO Pose ID>  (929) 
70363

>  <smiles>  (929) 
COC(=O)c1cc(NC(=O)c2c3c(nc4ccccc24)CCC3)c2ncccc2c1

>  <inchikey>  (929) 
ARTYDSQTMOFCQW-UHFFFAOYSA-N

>  <distance_score>  (929) 
1.674142

>  <ref_mols>  (929) 
Z0917a,Z0852a

>  <ref_pdb>  (929) 
Z0852a

>  <HIPPO Compound ID>  (929) 
142316

>  <name>  (929) 
P70363

>  <inspiration_score>  (929) 
None

$$$$
P70364
     RDKit          3D

 30 33  0  0  0  0  0  0  0  0999 V2000
    1.0741    6.1964  -16.5204 C   0  0  0  0  0  0  0  0  0  0  0  0
    0.8664    6.3398  -17.9196 O   0  0  0  0  0  0  0  0  0  0  0  0
   -0.3536    5.9696  -18.4111 C   0  0  0  0  0  0  0  0  0  0  0  0
   -1.4127    5.4448  -17.6736 C   0  0  0  0  0  0  0  0  0  0  0  0
   -2.6108    5.0786  -18.3030 C   0  0  0  0  0  0  0  0  0  0  0  0
   -2.8155    5.3512  -19.6593 C   0  0  0  0  0  0  0  0  0  0  0  0
   -4.0954    5.1815  -20.3649 C   0  0  0  0  0  0  0  0  0  0  0  0
   -5.3904    4.7038  -19.7926 C   0  0  0  0  0  0  0  0  0  0  0  0
   -6.0268    3.9191  -20.3864 O   0  0  0  0  0  0  0  0  0  0  0  0
   -5.6473    5.3741  -18.4059 N   0  0  0  0  0  0  0  0  0  0  0  0
   -6.6575    5.1493  -17.4597 C   0  0  0  0  0  0  0  0  0  0  0  0
   -6.4280    5.4818  -16.1129 C   0  0  0  0  0  0  0  0  0  0  0  0
   -7.4186    5.2527  -15.1388 C   0  0  0  0  0  0  0  0  0  0  0  0
   -7.3088    5.7529  -13.7243 C   0  0  0  0  0  0  0  0  0  0  0  0
   -8.3928    5.4493  -12.9532 F   0  0  0  0  0  0  0  0  0  0  0  0
   -7.2116    7.1125  -13.6790 F   0  0  0  0  0  0  0  0  0  0  0  0
   -6.2239    5.2703  -13.0695 F   0  0  0  0  0  0  0  0  0  0  0  0
   -8.6018    4.6381  -15.5174 C   0  0  0  0  0  0  0  0  0  0  0  0
   -8.8604    4.4469  -16.8606 C   0  0  0  0  0  0  0  0  0  0  0  0
  -10.1491    4.1575  -17.2275 C   0  0  0  0  0  0  0  0  0  0  0  0
  -10.5543    4.3529  -18.5116 C   0  0  0  0  0  0  0  0  0  0  0  0
   -9.5740    4.5485  -19.4400 C   0  0  0  0  0  0  0  0  0  0  0  0
   -8.2748    4.6517  -19.1357 N   0  0  0  0  0  0  0  0  0  0  0  0
   -7.9144    4.6983  -17.8551 C   0  0  0  0  0  0  0  0  0  0  0  0
   -4.1750    5.4086  -21.6877 C   0  0  0  0  0  0  0  0  0  0  0  0
   -3.0027    5.8236  -22.4738 C   0  0  0  0  0  0  0  0  0  0  0  0
   -3.0837    5.9967  -23.6848 O   0  0  0  0  0  0  0  0  0  0  0  0
   -1.8490    6.0315  -21.7775 N   0  0  0  0  0  0  0  0  0  0  0  0
   -1.7246    5.8341  -20.3973 C   0  0  0  0  0  0  0  0  0  0  0  0
   -0.5049    6.1319  -19.7857 C   0  0  0  0  0  0  0  0  0  0  0  0
  1  2  1  0
  2  3  1  0
  3  4  2  0
  4  5  1  0
  5  6  2  0
  6  7  1  0
  7  8  1  0
  8  9  2  0
  8 10  1  0
 10 11  1  0
 11 12  2  0
 12 13  1  0
 13 14  1  0
 14 15  1  0
 14 16  1  0
 14 17  1  0
 13 18  2  0
 18 19  1  0
 19 20  2  0
 20 21  1  0
 21 22  2  0
 22 23  1  0
 23 24  2  0
  7 25  2  0
 25 26  1  0
 26 27  2  0
 26 28  1  0
 28 29  1  0
 29 30  2  0
 30  3  1  0
 29  6  1  0
 24 11  1  0
 24 19  1  0
M  END
>  <energy_score>  (930) 
-10.729228

>  <alias>  (930) 
None

>  <HIPPO Pose ID>  (930) 
70364

>  <smiles>  (930) 
COc1ccc2c(C(=O)Nc3cc(C(F)(F)F)cc4cccnc34)cc(=O)[nH]c2c1

>  <inchikey>  (930) 
KKYFGVZSLPANME-UHFFFAOYSA-N

>  <distance_score>  (930) 
1.044654

>  <ref_mols>  (930) 
Z0917a,Z0852a

>  <ref_pdb>  (930) 
Z0852a

>  <HIPPO Compound ID>  (930) 
142318

>  <name>  (930) 
P70364

>  <inspiration_score>  (930) 
None

$$$$
P70365
     RDKit          3D

 30 33  0  0  0  0  0  0  0  0999 V2000
   -3.0804    6.2794  -23.8528 C   0  0  0  0  0  0  0  0  0  0  0  0
   -3.0529    5.9833  -22.3853 C   0  0  0  0  0  0  0  0  0  0  0  0
   -4.1756    5.5311  -21.7349 C   0  0  0  0  0  0  0  0  0  0  0  0
   -4.0775    5.2428  -20.3726 C   0  0  0  0  0  0  0  0  0  0  0  0
   -5.3344    4.7570  -19.7529 C   0  0  0  0  0  0  0  0  0  0  0  0
   -5.9416    3.9586  -20.3583 O   0  0  0  0  0  0  0  0  0  0  0  0
   -5.6287    5.4154  -18.3706 N   0  0  0  0  0  0  0  0  0  0  0  0
   -6.6470    5.1627  -17.4407 C   0  0  0  0  0  0  0  0  0  0  0  0
   -6.4314    5.4954  -16.0911 C   0  0  0  0  0  0  0  0  0  0  0  0
   -7.4262    5.2586  -15.1246 C   0  0  0  0  0  0  0  0  0  0  0  0
   -7.3258    5.7562  -13.7091 C   0  0  0  0  0  0  0  0  0  0  0  0
   -7.2287    7.1158  -13.6602 F   0  0  0  0  0  0  0  0  0  0  0  0
   -8.4154    5.4516  -12.9463 F   0  0  0  0  0  0  0  0  0  0  0  0
   -6.2460    5.2720  -13.0470 F   0  0  0  0  0  0  0  0  0  0  0  0
   -8.6031    4.6400  -15.5137 C   0  0  0  0  0  0  0  0  0  0  0  0
   -8.8492    4.4466  -16.8592 C   0  0  0  0  0  0  0  0  0  0  0  0
  -10.1362    4.1585  -17.2324 C   0  0  0  0  0  0  0  0  0  0  0  0
  -10.5315    4.3479  -18.5201 C   0  0  0  0  0  0  0  0  0  0  0  0
   -9.5440    4.5310  -19.4437 C   0  0  0  0  0  0  0  0  0  0  0  0
   -8.2465    4.6378  -19.1322 N   0  0  0  0  0  0  0  0  0  0  0  0
   -7.8955    4.6972  -17.8484 C   0  0  0  0  0  0  0  0  0  0  0  0
   -2.8521    5.3829  -19.6822 C   0  0  0  0  0  0  0  0  0  0  0  0
   -2.6449    5.0556  -18.3233 C   0  0  0  0  0  0  0  0  0  0  0  0
   -1.4679    5.4098  -17.6748 C   0  0  0  0  0  0  0  0  0  0  0  0
   -0.4066    5.9615  -18.3888 C   0  0  0  0  0  0  0  0  0  0  0  0
    0.8715    6.2805  -17.6630 C   0  0  0  0  0  0  0  0  0  0  0  0
   -0.5442    6.1411  -19.7823 C   0  0  0  0  0  0  0  0  0  0  0  0
    0.6133    6.6708  -20.5995 C   0  0  0  0  0  0  0  0  0  0  0  0
   -1.7701    5.8939  -20.4262 C   0  0  0  0  0  0  0  0  0  0  0  0
   -1.8855    6.1747  -21.7392 N   0  0  0  0  0  0  0  0  0  0  0  0
  1  2  1  0
  2  3  2  0
  3  4  1  0
  4  5  1  0
  5  6  2  0
  5  7  1  0
  7  8  1  0
  8  9  2  0
  9 10  1  0
 10 11  1  0
 11 12  1  0
 11 13  1  0
 11 14  1  0
 10 15  2  0
 15 16  1  0
 16 17  2  0
 17 18  1  0
 18 19  2  0
 19 20  1  0
 20 21  2  0
  4 22  2  0
 22 23  1  0
 23 24  2  0
 24 25  1  0
 25 26  1  0
 25 27  2  0
 27 28  1  0
 27 29  1  0
 29 30  2  0
 30  2  1  0
 21  8  1  0
 29 22  1  0
 21 16  1  0
M  END
>  <energy_score>  (931) 
-4.863635

>  <alias>  (931) 
None

>  <HIPPO Pose ID>  (931) 
70365

>  <smiles>  (931) 
Cc1cc(C(=O)Nc2cc(C(F)(F)F)cc3cccnc23)c2ccc(C)c(C)c2n1

>  <inchikey>  (931) 
SPPOCNUTYQHNEP-UHFFFAOYSA-N

>  <distance_score>  (931) 
1.056254

>  <ref_mols>  (931) 
Z0917a,Z0852a

>  <ref_pdb>  (931) 
Z0852a

>  <HIPPO Compound ID>  (931) 
142319

>  <name>  (931) 
P70365

>  <inspiration_score>  (931) 
None

$$$$
P70366
     RDKit          3D

 30 33  0  0  0  0  0  0  0  0999 V2000
   -3.0665    6.5574  -23.6574 C   0  0  0  0  0  0  0  0  0  0  0  0
   -3.2475    6.0235  -22.2690 C   0  0  0  0  0  0  0  0  0  0  0  0
   -2.1645    6.0551  -21.4553 N   0  0  0  0  0  0  0  0  0  0  0  0
   -2.2634    5.6028  -20.1815 C   0  0  0  0  0  0  0  0  0  0  0  0
   -1.2400    5.7776  -19.2644 C   0  0  0  0  0  0  0  0  0  0  0  0
   -0.1321    6.3900  -19.6563 F   0  0  0  0  0  0  0  0  0  0  0  0
   -1.3029    5.4285  -17.9181 C   0  0  0  0  0  0  0  0  0  0  0  0
   -2.4052    4.7506  -17.4578 C   0  0  0  0  0  0  0  0  0  0  0  0
   -3.4176    4.4789  -18.3576 C   0  0  0  0  0  0  0  0  0  0  0  0
   -3.4148    5.0177  -19.6812 C   0  0  0  0  0  0  0  0  0  0  0  0
   -4.5399    5.0837  -20.5286 C   0  0  0  0  0  0  0  0  0  0  0  0
   -5.8383    4.6885  -19.9849 C   0  0  0  0  0  0  0  0  0  0  0  0
   -6.5133    3.9528  -20.5968 O   0  0  0  0  0  0  0  0  0  0  0  0
   -6.0332    5.2911  -18.5617 N   0  0  0  0  0  0  0  0  0  0  0  0
   -7.0050    5.0476  -17.6097 C   0  0  0  0  0  0  0  0  0  0  0  0
   -6.6769    5.2648  -16.2668 C   0  0  0  0  0  0  0  0  0  0  0  0
   -7.6043    5.0171  -15.2430 C   0  0  0  0  0  0  0  0  0  0  0  0
   -7.3188    5.4274  -13.8012 C   0  0  0  0  0  0  0  0  0  0  0  0
   -6.1655    4.5957  -13.2319 C   0  0  0  0  0  0  0  0  0  0  0  0
   -8.5227    5.2838  -12.8489 C   0  0  0  0  0  0  0  0  0  0  0  0
   -6.9374    6.9122  -13.8013 C   0  0  0  0  0  0  0  0  0  0  0  0
   -8.8262    4.4723  -15.6141 C   0  0  0  0  0  0  0  0  0  0  0  0
   -9.1679    4.3742  -16.9589 C   0  0  0  0  0  0  0  0  0  0  0  0
  -10.4667    4.1332  -17.3284 C   0  0  0  0  0  0  0  0  0  0  0  0
  -10.9024    4.4641  -18.5735 C   0  0  0  0  0  0  0  0  0  0  0  0
   -9.9516    4.7453  -19.5045 C   0  0  0  0  0  0  0  0  0  0  0  0
   -8.6537    4.7628  -19.2336 N   0  0  0  0  0  0  0  0  0  0  0  0
   -8.2705    4.6691  -17.9694 C   0  0  0  0  0  0  0  0  0  0  0  0
   -4.4803    5.5959  -21.8201 C   0  0  0  0  0  0  0  0  0  0  0  0
   -5.5829    5.7490  -22.6118 O   0  0  0  0  0  0  0  0  0  0  0  0
  1  2  1  0
  2  3  2  0
  3  4  1  0
  4  5  2  0
  5  6  1  0
  5  7  1  0
  7  8  2  0
  8  9  1  0
  9 10  2  0
 10 11  1  0
 11 12  1  0
 12 13  2  0
 12 14  1  0
 14 15  1  0
 15 16  2  0
 16 17  1  0
 17 18  1  0
 18 19  1  0
 18 20  1  0
 18 21  1  0
 17 22  2  0
 22 23  1  0
 23 24  2  0
 24 25  1  0
 25 26  2  0
 26 27  1  0
 27 28  2  0
 11 29  2  0
 29 30  1  0
 29  2  1  0
 10  4  1  0
 28 15  1  0
 28 23  1  0
M  END
>  <energy_score>  (932) 
-27.505069

>  <alias>  (932) 
None

>  <HIPPO Pose ID>  (932) 
70366

>  <smiles>  (932) 
Cc1nc2c(F)cccc2c(C(=O)Nc2cc(C(C)(C)C)cc3cccnc23)c1O

>  <inchikey>  (932) 
JHMLKQWNFIQQIW-UHFFFAOYSA-N

>  <distance_score>  (932) 
1.426571

>  <ref_mols>  (932) 
Z0917a,Z0852a

>  <ref_pdb>  (932) 
Z0852a

>  <HIPPO Compound ID>  (932) 
142320

>  <name>  (932) 
P70366

>  <inspiration_score>  (932) 
None

$$$$
P70367
     RDKit          3D

 30 33  0  0  0  0  0  0  0  0999 V2000
   -0.6460    6.3711  -22.6073 C   0  0  0  0  0  0  0  0  0  0  0  0
   -1.8189    5.9886  -21.8367 N   0  0  0  0  0  0  0  0  0  0  0  0
   -3.0023    5.7813  -22.5251 C   0  0  0  0  0  0  0  0  0  0  0  0
   -3.1510    5.9550  -23.7332 O   0  0  0  0  0  0  0  0  0  0  0  0
   -4.1645    5.3548  -21.7350 C   0  0  0  0  0  0  0  0  0  0  0  0
   -4.0982    5.1203  -20.4174 C   0  0  0  0  0  0  0  0  0  0  0  0
   -5.4026    4.6052  -19.8785 C   0  0  0  0  0  0  0  0  0  0  0  0
   -6.0395    3.8550  -20.5136 O   0  0  0  0  0  0  0  0  0  0  0  0
   -5.6182    5.1388  -18.4321 N   0  0  0  0  0  0  0  0  0  0  0  0
   -6.6748    4.9388  -17.5389 C   0  0  0  0  0  0  0  0  0  0  0  0
   -6.4277    5.2010  -16.1817 C   0  0  0  0  0  0  0  0  0  0  0  0
   -7.4200    5.0194  -15.1976 C   0  0  0  0  0  0  0  0  0  0  0  0
   -7.2162    5.4822  -13.7575 C   0  0  0  0  0  0  0  0  0  0  0  0
   -6.8920    6.9784  -13.8008 C   0  0  0  0  0  0  0  0  0  0  0  0
   -6.0603    4.7134  -13.1102 C   0  0  0  0  0  0  0  0  0  0  0  0
   -8.4540    5.3223  -12.8470 C   0  0  0  0  0  0  0  0  0  0  0  0
   -8.6394    4.5071  -15.6082 C   0  0  0  0  0  0  0  0  0  0  0  0
   -8.9104    4.3726  -16.9584 C   0  0  0  0  0  0  0  0  0  0  0  0
  -10.2169    4.1838  -17.3317 C   0  0  0  0  0  0  0  0  0  0  0  0
  -10.6010    4.4388  -18.6089 C   0  0  0  0  0  0  0  0  0  0  0  0
   -9.6038    4.5685  -19.5302 C   0  0  0  0  0  0  0  0  0  0  0  0
   -8.3003    4.5719  -19.2296 N   0  0  0  0  0  0  0  0  0  0  0  0
   -7.9480    4.5778  -17.9479 C   0  0  0  0  0  0  0  0  0  0  0  0
   -2.8284    5.3317  -19.6971 C   0  0  0  0  0  0  0  0  0  0  0  0
   -2.6731    5.1094  -18.3172 C   0  0  0  0  0  0  0  0  0  0  0  0
   -1.5556    5.5951  -17.6390 C   0  0  0  0  0  0  0  0  0  0  0  0
   -1.5435    5.6111  -15.7448 Br  0  0  0  0  0  0  0  0  0  0  0  0
   -0.4855    6.1249  -18.3403 C   0  0  0  0  0  0  0  0  0  0  0  0
   -0.5541    6.1991  -19.7306 C   0  0  0  0  0  0  0  0  0  0  0  0
   -1.7258    5.8331  -20.4200 C   0  0  0  0  0  0  0  0  0  0  0  0
  1  2  1  0
  2  3  1  0
  3  4  2  0
  3  5  1  0
  5  6  2  0
  6  7  1  0
  7  8  2  0
  7  9  1  0
  9 10  1  0
 10 11  2  0
 11 12  1  0
 12 13  1  0
 13 14  1  0
 13 15  1  0
 13 16  1  0
 12 17  2  0
 17 18  1  0
 18 19  2  0
 19 20  1  0
 20 21  2  0
 21 22  1  0
 22 23  2  0
  6 24  1  0
 24 25  2  0
 25 26  1  0
 26 27  1  0
 26 28  2  0
 28 29  1  0
 29 30  2  0
 30  2  1  0
 23 10  1  0
 30 24  1  0
 23 18  1  0
M  END
>  <energy_score>  (933) 
-16.563422

>  <alias>  (933) 
None

>  <HIPPO Pose ID>  (933) 
70367

>  <smiles>  (933) 
Cn1c(=O)cc(C(=O)Nc2cc(C(C)(C)C)cc3cccnc23)c2cc(Br)ccc21

>  <inchikey>  (933) 
BHUSWVFVZKEYQK-UHFFFAOYSA-N

>  <distance_score>  (933) 
1.199151

>  <ref_mols>  (933) 
Z0917a,Z0852a

>  <ref_pdb>  (933) 
Z0852a

>  <HIPPO Compound ID>  (933) 
142323

>  <name>  (933) 
P70367

>  <inspiration_score>  (933) 
None

$$$$
P70368
     RDKit          3D

 30 33  0  0  0  0  0  0  0  0999 V2000
   -0.6279    6.2996  -22.5770 C   0  0  0  0  0  0  0  0  0  0  0  0
   -1.7964    5.9596  -21.7799 N   0  0  0  0  0  0  0  0  0  0  0  0
   -2.9952    5.7651  -22.4452 C   0  0  0  0  0  0  0  0  0  0  0  0
   -3.1613    5.9188  -23.6536 O   0  0  0  0  0  0  0  0  0  0  0  0
   -4.1520    5.3752  -21.6280 C   0  0  0  0  0  0  0  0  0  0  0  0
   -4.0704    5.1816  -20.3040 C   0  0  0  0  0  0  0  0  0  0  0  0
   -5.3658    4.6869  -19.7349 C   0  0  0  0  0  0  0  0  0  0  0  0
   -5.9915    3.9002  -20.3364 O   0  0  0  0  0  0  0  0  0  0  0  0
   -5.5955    5.2883  -18.3151 N   0  0  0  0  0  0  0  0  0  0  0  0
   -6.6572    5.1199  -17.4174 C   0  0  0  0  0  0  0  0  0  0  0  0
   -6.4518    5.4632  -16.0692 C   0  0  0  0  0  0  0  0  0  0  0  0
   -7.4614    5.2526  -15.1135 C   0  0  0  0  0  0  0  0  0  0  0  0
   -7.3593    5.7462  -13.6972 C   0  0  0  0  0  0  0  0  0  0  0  0
   -6.2859    5.2492  -13.0337 F   0  0  0  0  0  0  0  0  0  0  0  0
   -8.4534    5.4502  -12.9379 F   0  0  0  0  0  0  0  0  0  0  0  0
   -7.2484    7.1045  -13.6455 F   0  0  0  0  0  0  0  0  0  0  0  0
   -8.6452    4.6534  -15.5132 C   0  0  0  0  0  0  0  0  0  0  0  0
   -8.8799    4.4551  -16.8607 C   0  0  0  0  0  0  0  0  0  0  0  0
  -10.1639    4.1770  -17.2524 C   0  0  0  0  0  0  0  0  0  0  0  0
  -10.5393    4.3695  -18.5449 C   0  0  0  0  0  0  0  0  0  0  0  0
   -9.5375    4.5349  -19.4555 C   0  0  0  0  0  0  0  0  0  0  0  0
   -8.2433    4.6290  -19.1263 N   0  0  0  0  0  0  0  0  0  0  0  0
   -7.9101    4.6844  -17.8384 C   0  0  0  0  0  0  0  0  0  0  0  0
   -2.7898    5.3862  -19.6081 C   0  0  0  0  0  0  0  0  0  0  0  0
   -2.6257    5.1982  -18.2246 C   0  0  0  0  0  0  0  0  0  0  0  0
   -1.4742    5.6458  -17.5776 C   0  0  0  0  0  0  0  0  0  0  0  0
   -1.4130    5.6732  -15.6851 Br  0  0  0  0  0  0  0  0  0  0  0  0
   -0.3970    6.1187  -18.3091 C   0  0  0  0  0  0  0  0  0  0  0  0
   -0.4886    6.1711  -19.6993 C   0  0  0  0  0  0  0  0  0  0  0  0
   -1.6835    5.8326  -20.3613 C   0  0  0  0  0  0  0  0  0  0  0  0
  1  2  1  0
  2  3  1  0
  3  4  2  0
  3  5  1  0
  5  6  2  0
  6  7  1  0
  7  8  2  0
  7  9  1  0
  9 10  1  0
 10 11  2  0
 11 12  1  0
 12 13  1  0
 13 14  1  0
 13 15  1  0
 13 16  1  0
 12 17  2  0
 17 18  1  0
 18 19  2  0
 19 20  1  0
 20 21  2  0
 21 22  1  0
 22 23  2  0
  6 24  1  0
 24 25  2  0
 25 26  1  0
 26 27  1  0
 26 28  2  0
 28 29  1  0
 29 30  2  0
 30  2  1  0
 23 10  1  0
 30 24  1  0
 23 18  1  0
M  END
>  <energy_score>  (934) 
-13.084202

>  <alias>  (934) 
None

>  <HIPPO Pose ID>  (934) 
70368

>  <smiles>  (934) 
Cn1c(=O)cc(C(=O)Nc2cc(C(F)(F)F)cc3cccnc23)c2cc(Br)ccc21

>  <inchikey>  (934) 
KJEBYNPKMMKFKJ-UHFFFAOYSA-N

>  <distance_score>  (934) 
1.03876

>  <ref_mols>  (934) 
Z0917a,Z0852a

>  <ref_pdb>  (934) 
Z0852a

>  <HIPPO Compound ID>  (934) 
142324

>  <name>  (934) 
P70368

>  <inspiration_score>  (934) 
None

$$$$
P70369
     RDKit          3D

 30 33  0  0  0  0  0  0  0  0999 V2000
   -2.0329    7.5879  -24.2874 C   0  0  0  0  0  0  0  0  0  0  0  0
   -3.2970    7.0248  -23.8100 N   0  0  0  0  0  0  0  0  0  0  0  0
   -4.1005    6.3798  -24.8394 C   0  0  0  0  0  0  0  0  0  0  0  0
   -3.1915    6.3804  -22.5672 C   0  0  0  0  0  0  0  0  0  0  0  0
   -4.2767    5.7741  -21.9594 C   0  0  0  0  0  0  0  0  0  0  0  0
   -4.1496    5.2868  -20.6531 C   0  0  0  0  0  0  0  0  0  0  0  0
   -5.3910    4.7489  -20.0409 C   0  0  0  0  0  0  0  0  0  0  0  0
   -6.0389    3.9941  -20.6599 O   0  0  0  0  0  0  0  0  0  0  0  0
   -5.6203    5.3492  -18.6202 N   0  0  0  0  0  0  0  0  0  0  0  0
   -6.6109    5.0781  -17.6671 C   0  0  0  0  0  0  0  0  0  0  0  0
   -6.3174    5.4155  -16.3338 C   0  0  0  0  0  0  0  0  0  0  0  0
   -7.2415    5.2240  -15.2879 C   0  0  0  0  0  0  0  0  0  0  0  0
   -7.0156    5.6937  -13.8523 C   0  0  0  0  0  0  0  0  0  0  0  0
   -6.9771    4.4887  -12.9015 C   0  0  0  0  0  0  0  0  0  0  0  0
   -8.1250    6.6657  -13.3962 C   0  0  0  0  0  0  0  0  0  0  0  0
   -5.6975    6.4500  -13.7128 C   0  0  0  0  0  0  0  0  0  0  0  0
   -8.4489    4.6221  -15.6088 C   0  0  0  0  0  0  0  0  0  0  0  0
   -8.7771    4.4160  -16.9378 C   0  0  0  0  0  0  0  0  0  0  0  0
  -10.0896    4.1497  -17.2278 C   0  0  0  0  0  0  0  0  0  0  0  0
  -10.5562    4.3409  -18.4931 C   0  0  0  0  0  0  0  0  0  0  0  0
   -9.6195    4.5192  -19.4731 C   0  0  0  0  0  0  0  0  0  0  0  0
   -8.3030    4.5712  -19.2473 N   0  0  0  0  0  0  0  0  0  0  0  0
   -7.8803    4.6309  -17.9894 C   0  0  0  0  0  0  0  0  0  0  0  0
   -2.9320    5.3884  -19.9482 C   0  0  0  0  0  0  0  0  0  0  0  0
   -2.6907    4.9571  -18.6171 C   0  0  0  0  0  0  0  0  0  0  0  0
   -1.5141    5.3036  -17.9602 C   0  0  0  0  0  0  0  0  0  0  0  0
   -0.5002    5.9414  -18.6554 C   0  0  0  0  0  0  0  0  0  0  0  0
   -0.6928    6.2657  -19.9960 C   0  0  0  0  0  0  0  0  0  0  0  0
   -1.8959    6.0236  -20.6425 C   0  0  0  0  0  0  0  0  0  0  0  0
   -2.0245    6.4792  -21.8959 N   0  0  0  0  0  0  0  0  0  0  0  0
  1  2  1  0
  2  3  1  0
  2  4  1  0
  4  5  2  0
  5  6  1  0
  6  7  1  0
  7  8  2  0
  7  9  1  0
  9 10  1  0
 10 11  2  0
 11 12  1  0
 12 13  1  0
 13 14  1  0
 13 15  1  0
 13 16  1  0
 12 17  2  0
 17 18  1  0
 18 19  2  0
 19 20  1  0
 20 21  2  0
 21 22  1  0
 22 23  2  0
  6 24  2  0
 24 25  1  0
 25 26  2  0
 26 27  1  0
 27 28  2  0
 28 29  1  0
 29 30  2  0
 30  4  1  0
 23 10  1  0
 29 24  1  0
 23 18  1  0
M  END
>  <energy_score>  (935) 
-25.965084

>  <alias>  (935) 
None

>  <HIPPO Pose ID>  (935) 
70369

>  <smiles>  (935) 
CN(C)c1cc(C(=O)Nc2cc(C(C)(C)C)cc3cccnc23)c2ccccc2n1

>  <inchikey>  (935) 
OCJFDGSEUYPQBF-UHFFFAOYSA-N

>  <distance_score>  (935) 
1.334878

>  <ref_mols>  (935) 
Z0917a,Z0852a

>  <ref_pdb>  (935) 
Z0852a

>  <HIPPO Compound ID>  (935) 
142332

>  <name>  (935) 
P70369

>  <inspiration_score>  (935) 
None

$$$$
P70370
     RDKit          3D

 30 33  0  0  0  0  0  0  0  0999 V2000
   -3.9613    6.3579  -24.6081 C   0  0  0  0  0  0  0  0  0  0  0  0
   -3.2092    7.0607  -23.5782 N   0  0  0  0  0  0  0  0  0  0  0  0
   -1.9479    7.6441  -24.0387 C   0  0  0  0  0  0  0  0  0  0  0  0
   -3.1130    6.4365  -22.3234 C   0  0  0  0  0  0  0  0  0  0  0  0
   -4.2018    5.8340  -21.7182 C   0  0  0  0  0  0  0  0  0  0  0  0
   -4.0866    5.3680  -20.4013 C   0  0  0  0  0  0  0  0  0  0  0  0
   -5.3260    4.8194  -19.8027 C   0  0  0  0  0  0  0  0  0  0  0  0
   -5.9239    4.0286  -20.4280 O   0  0  0  0  0  0  0  0  0  0  0  0
   -5.6255    5.4363  -18.3990 N   0  0  0  0  0  0  0  0  0  0  0  0
   -6.6377    5.1425  -17.4718 C   0  0  0  0  0  0  0  0  0  0  0  0
   -6.4217    5.4710  -16.1191 C   0  0  0  0  0  0  0  0  0  0  0  0
   -7.4143    5.2354  -15.1495 C   0  0  0  0  0  0  0  0  0  0  0  0
   -7.3146    5.7380  -13.7354 C   0  0  0  0  0  0  0  0  0  0  0  0
   -6.2345    5.2582  -13.0703 F   0  0  0  0  0  0  0  0  0  0  0  0
   -7.2195    7.0982  -13.6904 F   0  0  0  0  0  0  0  0  0  0  0  0
   -8.4040    5.4356  -12.9707 F   0  0  0  0  0  0  0  0  0  0  0  0
   -8.5925    4.6205  -15.5376 C   0  0  0  0  0  0  0  0  0  0  0  0
   -8.8398    4.4297  -16.8829 C   0  0  0  0  0  0  0  0  0  0  0  0
  -10.1319    4.1580  -17.2503 C   0  0  0  0  0  0  0  0  0  0  0  0
  -10.5279    4.3542  -18.5363 C   0  0  0  0  0  0  0  0  0  0  0  0
   -9.5399    4.5217  -19.4629 C   0  0  0  0  0  0  0  0  0  0  0  0
   -8.2397    4.6125  -19.1576 N   0  0  0  0  0  0  0  0  0  0  0  0
   -7.8855    4.6739  -17.8757 C   0  0  0  0  0  0  0  0  0  0  0  0
   -2.8763    5.4744  -19.6907 C   0  0  0  0  0  0  0  0  0  0  0  0
   -2.6449    5.0425  -18.3589 C   0  0  0  0  0  0  0  0  0  0  0  0
   -1.4719    5.3888  -17.6943 C   0  0  0  0  0  0  0  0  0  0  0  0
   -0.4564    6.0325  -18.3826 C   0  0  0  0  0  0  0  0  0  0  0  0
   -0.6401    6.3559  -19.7252 C   0  0  0  0  0  0  0  0  0  0  0  0
   -1.8364    6.1074  -20.3820 C   0  0  0  0  0  0  0  0  0  0  0  0
   -1.9543    6.5509  -21.6413 N   0  0  0  0  0  0  0  0  0  0  0  0
  1  2  1  0
  2  3  1  0
  2  4  1  0
  4  5  2  0
  5  6  1  0
  6  7  1  0
  7  8  2  0
  7  9  1  0
  9 10  1  0
 10 11  2  0
 11 12  1  0
 12 13  1  0
 13 14  1  0
 13 15  1  0
 13 16  1  0
 12 17  2  0
 17 18  1  0
 18 19  2  0
 19 20  1  0
 20 21  2  0
 21 22  1  0
 22 23  2  0
  6 24  2  0
 24 25  1  0
 25 26  2  0
 26 27  1  0
 27 28  2  0
 28 29  1  0
 29 30  2  0
 30  4  1  0
 23 10  1  0
 29 24  1  0
 23 18  1  0
M  END
>  <energy_score>  (936) 
-26.777247

>  <alias>  (936) 
None

>  <HIPPO Pose ID>  (936) 
70370

>  <smiles>  (936) 
CN(C)c1cc(C(=O)Nc2cc(C(F)(F)F)cc3cccnc23)c2ccccc2n1

>  <inchikey>  (936) 
MKOFSIOYJWUEEC-UHFFFAOYSA-N

>  <distance_score>  (936) 
1.091986

>  <ref_mols>  (936) 
Z0917a,Z0852a

>  <ref_pdb>  (936) 
Z0852a

>  <HIPPO Compound ID>  (936) 
142333

>  <name>  (936) 
P70370

>  <inspiration_score>  (936) 
None

$$$$
P70371
     RDKit          3D

 30 33  0  0  0  0  0  0  0  0999 V2000
   -6.2157    4.8115  -11.5958 C   0  0  0  0  0  0  0  0  0  0  0  0
   -6.7577    4.7290  -12.9139 O   0  0  0  0  0  0  0  0  0  0  0  0
   -5.8535    4.9454  -13.9003 C   0  0  0  0  0  0  0  0  0  0  0  0
   -4.6721    5.2120  -13.7424 O   0  0  0  0  0  0  0  0  0  0  0  0
   -6.4963    4.8416  -15.2360 C   0  0  0  0  0  0  0  0  0  0  0  0
   -5.7365    5.1526  -16.3649 C   0  0  0  0  0  0  0  0  0  0  0  0
   -6.2713    5.0199  -17.6551 C   0  0  0  0  0  0  0  0  0  0  0  0
   -5.4007    5.3092  -18.7083 N   0  0  0  0  0  0  0  0  0  0  0  0
   -5.3400    4.7394  -20.1535 C   0  0  0  0  0  0  0  0  0  0  0  0
   -6.0565    3.9980  -20.7074 O   0  0  0  0  0  0  0  0  0  0  0  0
   -4.1760    5.2927  -20.8889 C   0  0  0  0  0  0  0  0  0  0  0  0
   -4.4633    5.8108  -22.1561 C   0  0  0  0  0  0  0  0  0  0  0  0
   -3.4623    6.4241  -22.8850 C   0  0  0  0  0  0  0  0  0  0  0  0
   -3.7179    7.0961  -24.0877 N   0  0  0  0  0  0  0  0  0  0  0  0
   -2.5170    7.6179  -24.7410 C   0  0  0  0  0  0  0  0  0  0  0  0
   -4.7298    6.5705  -24.9947 C   0  0  0  0  0  0  0  0  0  0  0  0
   -2.2182    6.4972  -22.3665 N   0  0  0  0  0  0  0  0  0  0  0  0
   -1.9359    6.0214  -21.1466 C   0  0  0  0  0  0  0  0  0  0  0  0
   -0.6561    6.2467  -20.6648 C   0  0  0  0  0  0  0  0  0  0  0  0
   -0.2924    5.9063  -19.3666 C   0  0  0  0  0  0  0  0  0  0  0  0
   -1.2147    5.2737  -18.5513 C   0  0  0  0  0  0  0  0  0  0  0  0
   -2.4727    4.9410  -19.0474 C   0  0  0  0  0  0  0  0  0  0  0  0
   -2.8806    5.3827  -20.3341 C   0  0  0  0  0  0  0  0  0  0  0  0
   -7.6082    4.6720  -17.8395 C   0  0  0  0  0  0  0  0  0  0  0  0
   -8.1868    4.7034  -19.0426 N   0  0  0  0  0  0  0  0  0  0  0  0
   -9.5119    4.5261  -19.1454 C   0  0  0  0  0  0  0  0  0  0  0  0
  -10.3201    4.2364  -18.0772 C   0  0  0  0  0  0  0  0  0  0  0  0
   -9.7153    4.1333  -16.8420 C   0  0  0  0  0  0  0  0  0  0  0  0
   -8.3685    4.4034  -16.6908 C   0  0  0  0  0  0  0  0  0  0  0  0
   -7.8200    4.4488  -15.4051 C   0  0  0  0  0  0  0  0  0  0  0  0
  1  2  1  0
  2  3  1  0
  3  4  2  0
  3  5  1  0
  5  6  2  0
  6  7  1  0
  7  8  1  0
  8  9  1  0
  9 10  2  0
  9 11  1  0
 11 12  2  0
 12 13  1  0
 13 14  1  0
 14 15  1  0
 14 16  1  0
 13 17  2  0
 17 18  1  0
 18 19  2  0
 19 20  1  0
 20 21  2  0
 21 22  1  0
 22 23  2  0
  7 24  2  0
 24 25  1  0
 25 26  2  0
 26 27  1  0
 27 28  2  0
 28 29  1  0
 29 30  2  0
 30  5  1  0
 23 11  1  0
 29 24  1  0
 23 18  1  0
M  END
>  <energy_score>  (937) 
-12.908928

>  <alias>  (937) 
None

>  <HIPPO Pose ID>  (937) 
70371

>  <smiles>  (937) 
COC(=O)c1cc(NC(=O)c2cc(N(C)C)nc3ccccc23)c2ncccc2c1

>  <inchikey>  (937) 
FGBDJYKNMSSMIE-UHFFFAOYSA-N

>  <distance_score>  (937) 
1.551648

>  <ref_mols>  (937) 
Z0917a,Z0852a

>  <ref_pdb>  (937) 
Z0852a

>  <HIPPO Compound ID>  (937) 
142334

>  <name>  (937) 
P70371

>  <inspiration_score>  (937) 
None

$$$$
P70372
     RDKit          3D

 30 33  0  0  0  0  0  0  0  0999 V2000
   -6.4447    5.1688  -11.5250 C   0  0  0  0  0  0  0  0  0  0  0  0
   -6.9206    5.0153  -12.8625 O   0  0  0  0  0  0  0  0  0  0  0  0
   -5.9625    5.1521  -13.8120 C   0  0  0  0  0  0  0  0  0  0  0  0
   -4.7824    5.3897  -13.6087 O   0  0  0  0  0  0  0  0  0  0  0  0
   -6.5448    5.0002  -15.1704 C   0  0  0  0  0  0  0  0  0  0  0  0
   -5.7467    5.2988  -16.2767 C   0  0  0  0  0  0  0  0  0  0  0  0
   -6.2237    5.1276  -17.5872 C   0  0  0  0  0  0  0  0  0  0  0  0
   -5.2871    5.3817  -18.5991 N   0  0  0  0  0  0  0  0  0  0  0  0
   -5.1909    4.8265  -20.0488 C   0  0  0  0  0  0  0  0  0  0  0  0
   -5.9203    4.1333  -20.6450 O   0  0  0  0  0  0  0  0  0  0  0  0
   -3.9022    5.2409  -20.6761 C   0  0  0  0  0  0  0  0  0  0  0  0
   -2.6919    4.9629  -20.0146 C   0  0  0  0  0  0  0  0  0  0  0  0
   -2.6097    4.2250  -18.7123 C   0  0  0  0  0  0  0  0  0  0  0  0
   -1.5388    5.3923  -20.6602 C   0  0  0  0  0  0  0  0  0  0  0  0
   -0.1875    5.3527  -20.0356 C   0  0  0  0  0  0  0  0  0  0  0  0
    0.0025    5.2615  -18.8278 O   0  0  0  0  0  0  0  0  0  0  0  0
   -1.5209    5.9629  -21.8886 N   0  0  0  0  0  0  0  0  0  0  0  0
   -2.6786    6.1804  -22.5184 C   0  0  0  0  0  0  0  0  0  0  0  0
   -2.6305    6.7785  -23.7720 C   0  0  0  0  0  0  0  0  0  0  0  0
   -3.7866    7.0945  -24.4867 C   0  0  0  0  0  0  0  0  0  0  0  0
   -5.0242    6.8131  -23.9340 C   0  0  0  0  0  0  0  0  0  0  0  0
   -5.0870    6.2076  -22.6799 C   0  0  0  0  0  0  0  0  0  0  0  0
   -3.9224    5.8653  -21.9516 C   0  0  0  0  0  0  0  0  0  0  0  0
   -7.5460    4.7370  -17.8120 C   0  0  0  0  0  0  0  0  0  0  0  0
   -8.0844    4.7052  -19.0338 N   0  0  0  0  0  0  0  0  0  0  0  0
   -9.4002    4.4744  -19.1732 C   0  0  0  0  0  0  0  0  0  0  0  0
  -10.2388    4.2023  -18.1231 C   0  0  0  0  0  0  0  0  0  0  0  0
   -9.6757    4.1563  -16.8672 C   0  0  0  0  0  0  0  0  0  0  0  0
   -8.3432    4.4736  -16.6829 C   0  0  0  0  0  0  0  0  0  0  0  0
   -7.8487    4.5670  -15.3799 C   0  0  0  0  0  0  0  0  0  0  0  0
  1  2  1  0
  2  3  1  0
  3  4  2  0
  3  5  1  0
  5  6  2  0
  6  7  1  0
  7  8  1  0
  8  9  1  0
  9 10  2  0
  9 11  1  0
 11 12  2  0
 12 13  1  0
 12 14  1  0
 14 15  1  0
 15 16  2  0
 14 17  2  0
 17 18  1  0
 18 19  2  0
 19 20  1  0
 20 21  2  0
 21 22  1  0
 22 23  2  0
  7 24  2  0
 24 25  1  0
 25 26  2  0
 26 27  1  0
 27 28  2  0
 28 29  1  0
 29 30  2  0
 30  5  1  0
 23 11  1  0
 29 24  1  0
 23 18  1  0
M  END
>  <energy_score>  (938) 
-24.39101

>  <alias>  (938) 
None

>  <HIPPO Pose ID>  (938) 
70372

>  <smiles>  (938) 
COC(=O)c1cc(NC(=O)c2c(C)c(C=O)nc3ccccc23)c2ncccc2c1

>  <inchikey>  (938) 
QFODDMKRGFZDDZ-UHFFFAOYSA-N

>  <distance_score>  (938) 
1.538846

>  <ref_mols>  (938) 
Z0917a,Z0852a

>  <ref_pdb>  (938) 
Z0852a

>  <HIPPO Compound ID>  (938) 
142335

>  <name>  (938) 
P70372

>  <inspiration_score>  (938) 
None

$$$$
P70373
     RDKit          3D

 30 33  0  0  0  0  0  0  0  0999 V2000
   -2.1043    7.8141  -25.8983 C   0  0  0  0  0  0  0  0  0  0  0  0
   -3.4045    7.6161  -25.3561 O   0  0  0  0  0  0  0  0  0  0  0  0
   -3.4762    7.0127  -24.1316 C   0  0  0  0  0  0  0  0  0  0  0  0
   -4.7646    6.7851  -23.6666 C   0  0  0  0  0  0  0  0  0  0  0  0
   -4.9595    6.1702  -22.4310 C   0  0  0  0  0  0  0  0  0  0  0  0
   -3.8698    5.7680  -21.6271 C   0  0  0  0  0  0  0  0  0  0  0  0
   -3.9748    5.1450  -20.3570 C   0  0  0  0  0  0  0  0  0  0  0  0
   -5.2902    4.7335  -19.8216 C   0  0  0  0  0  0  0  0  0  0  0  0
   -5.9838    4.0887  -20.5117 O   0  0  0  0  0  0  0  0  0  0  0  0
   -5.4708    5.1753  -18.3322 N   0  0  0  0  0  0  0  0  0  0  0  0
   -6.5556    4.9964  -17.4500 C   0  0  0  0  0  0  0  0  0  0  0  0
   -6.3516    5.3134  -16.0906 C   0  0  0  0  0  0  0  0  0  0  0  0
   -7.3847    5.1670  -15.1448 C   0  0  0  0  0  0  0  0  0  0  0  0
   -7.2915    5.6828  -13.7338 C   0  0  0  0  0  0  0  0  0  0  0  0
   -6.2075    5.2209  -13.0633 F   0  0  0  0  0  0  0  0  0  0  0  0
   -7.2122    7.0444  -13.7018 F   0  0  0  0  0  0  0  0  0  0  0  0
   -8.3788    5.3750  -12.9685 F   0  0  0  0  0  0  0  0  0  0  0  0
   -8.5940    4.6344  -15.5563 C   0  0  0  0  0  0  0  0  0  0  0  0
   -8.8209    4.4398  -16.9036 C   0  0  0  0  0  0  0  0  0  0  0  0
  -10.1167    4.2124  -17.2919 C   0  0  0  0  0  0  0  0  0  0  0  0
  -10.4778    4.3904  -18.5891 C   0  0  0  0  0  0  0  0  0  0  0  0
   -9.4635    4.4856  -19.4954 C   0  0  0  0  0  0  0  0  0  0  0  0
   -8.1664    4.5381  -19.1629 N   0  0  0  0  0  0  0  0  0  0  0  0
   -7.8304    4.6183  -17.8777 C   0  0  0  0  0  0  0  0  0  0  0  0
   -2.8366    4.8048  -19.6325 C   0  0  0  0  0  0  0  0  0  0  0  0
   -2.8704    4.1896  -18.4135 O   0  0  0  0  0  0  0  0  0  0  0  0
   -1.6166    5.0992  -20.1960 C   0  0  0  0  0  0  0  0  0  0  0  0
   -1.4735    5.7027  -21.3974 N   0  0  0  0  0  0  0  0  0  0  0  0
   -2.5705    6.0173  -22.1011 C   0  0  0  0  0  0  0  0  0  0  0  0
   -2.3953    6.6271  -23.3389 C   0  0  0  0  0  0  0  0  0  0  0  0
  1  2  1  0
  2  3  1  0
  3  4  2  0
  4  5  1  0
  5  6  2  0
  6  7  1  0
  7  8  1  0
  8  9  2  0
  8 10  1  0
 10 11  1  0
 11 12  2  0
 12 13  1  0
 13 14  1  0
 14 15  1  0
 14 16  1  0
 14 17  1  0
 13 18  2  0
 18 19  1  0
 19 20  2  0
 20 21  1  0
 21 22  2  0
 22 23  1  0
 23 24  2  0
  7 25  2  0
 25 26  1  0
 25 27  1  0
 27 28  2  0
 28 29  1  0
 29 30  2  0
 30  3  1  0
 29  6  1  0
 24 11  1  0
 24 19  1  0
M  END
>  <energy_score>  (939) 
-18.400078

>  <alias>  (939) 
None

>  <HIPPO Pose ID>  (939) 
70373

>  <smiles>  (939) 
COc1ccc2c(C(=O)Nc3cc(C(F)(F)F)cc4cccnc34)c(O)cnc2c1

>  <inchikey>  (939) 
NBUQKIPHILZILE-UHFFFAOYSA-N

>  <distance_score>  (939) 
0.95043

>  <ref_mols>  (939) 
Z0917a,Z0852a

>  <ref_pdb>  (939) 
Z0852a

>  <HIPPO Compound ID>  (939) 
142336

>  <name>  (939) 
P70373

>  <inspiration_score>  (939) 
None

$$$$
P70374
     RDKit          3D

 30 33  0  0  0  0  0  0  0  0999 V2000
   -3.1401    6.3709  -23.9439 C   0  0  0  0  0  0  0  0  0  0  0  0
   -3.1076    6.0156  -22.4895 C   0  0  0  0  0  0  0  0  0  0  0  0
   -4.2263    5.5265  -21.8592 C   0  0  0  0  0  0  0  0  0  0  0  0
   -4.1277    5.1843  -20.5106 C   0  0  0  0  0  0  0  0  0  0  0  0
   -5.3877    4.6695  -19.9137 C   0  0  0  0  0  0  0  0  0  0  0  0
   -6.0046    3.9025  -20.5492 O   0  0  0  0  0  0  0  0  0  0  0  0
   -5.6634    5.2618  -18.5005 N   0  0  0  0  0  0  0  0  0  0  0  0
   -6.6705    4.9690  -17.5727 C   0  0  0  0  0  0  0  0  0  0  0  0
   -6.4098    5.2165  -16.2150 C   0  0  0  0  0  0  0  0  0  0  0  0
   -7.3888    5.0078  -15.2207 C   0  0  0  0  0  0  0  0  0  0  0  0
   -7.1862    5.4683  -13.7782 C   0  0  0  0  0  0  0  0  0  0  0  0
   -8.4166    5.2846  -12.8599 C   0  0  0  0  0  0  0  0  0  0  0  0
   -6.8903    6.9706  -13.8170 C   0  0  0  0  0  0  0  0  0  0  0  0
   -6.0140    4.7180  -13.1403 C   0  0  0  0  0  0  0  0  0  0  0  0
   -8.6046    4.4801  -15.6211 C   0  0  0  0  0  0  0  0  0  0  0  0
   -8.8899    4.3554  -16.9681 C   0  0  0  0  0  0  0  0  0  0  0  0
  -10.2017    4.1647  -17.3220 C   0  0  0  0  0  0  0  0  0  0  0  0
  -10.6070    4.4282  -18.5914 C   0  0  0  0  0  0  0  0  0  0  0  0
   -9.6240    4.5749  -19.5255 C   0  0  0  0  0  0  0  0  0  0  0  0
   -8.3164    4.5780  -19.2448 N   0  0  0  0  0  0  0  0  0  0  0  0
   -7.9430    4.5818  -17.9679 C   0  0  0  0  0  0  0  0  0  0  0  0
   -2.9051    5.3229  -19.8100 C   0  0  0  0  0  0  0  0  0  0  0  0
   -2.6928    4.9583  -18.4611 C   0  0  0  0  0  0  0  0  0  0  0  0
   -1.5325    5.3316  -17.7942 C   0  0  0  0  0  0  0  0  0  0  0  0
   -0.4808    5.9284  -18.4848 C   0  0  0  0  0  0  0  0  0  0  0  0
    0.7821    6.2638  -17.7407 C   0  0  0  0  0  0  0  0  0  0  0  0
   -0.6136    6.1388  -19.8738 C   0  0  0  0  0  0  0  0  0  0  0  0
    0.5350    6.7177  -20.6696 C   0  0  0  0  0  0  0  0  0  0  0  0
   -1.8303    5.8810  -20.5308 C   0  0  0  0  0  0  0  0  0  0  0  0
   -1.9445    6.2015  -21.8343 N   0  0  0  0  0  0  0  0  0  0  0  0
  1  2  1  0
  2  3  2  0
  3  4  1  0
  4  5  1  0
  5  6  2  0
  5  7  1  0
  7  8  1  0
  8  9  2  0
  9 10  1  0
 10 11  1  0
 11 12  1  0
 11 13  1  0
 11 14  1  0
 10 15  2  0
 15 16  1  0
 16 17  2  0
 17 18  1  0
 18 19  2  0
 19 20  1  0
 20 21  2  0
  4 22  2  0
 22 23  1  0
 23 24  2  0
 24 25  1  0
 25 26  1  0
 25 27  2  0
 27 28  1  0
 27 29  1  0
 29 30  2  0
 30  2  1  0
 21  8  1  0
 29 22  1  0
 21 16  1  0
M  END
>  <energy_score>  (940) 
-17.302773

>  <alias>  (940) 
None

>  <HIPPO Pose ID>  (940) 
70374

>  <smiles>  (940) 
Cc1cc(C(=O)Nc2cc(C(C)(C)C)cc3cccnc23)c2ccc(C)c(C)c2n1

>  <inchikey>  (940) 
ZIOQWXCWCHJFNY-UHFFFAOYSA-N

>  <distance_score>  (940) 
1.325409

>  <ref_mols>  (940) 
Z0917a,Z0852a

>  <ref_pdb>  (940) 
Z0852a

>  <HIPPO Compound ID>  (940) 
142337

>  <name>  (940) 
P70374

>  <inspiration_score>  (940) 
None

$$$$
P70375
     RDKit          3D

 30 33  0  0  0  0  0  0  0  0999 V2000
   -1.4250    4.7044  -24.7565 C   0  0  0  0  0  0  0  0  0  0  0  0
   -1.7704    6.1793  -24.6074 C   0  0  0  0  0  0  0  0  0  0  0  0
   -3.0682    6.4185  -23.8274 C   0  0  0  0  0  0  0  0  0  0  0  0
   -3.0138    6.0238  -22.3721 C   0  0  0  0  0  0  0  0  0  0  0  0
   -4.1338    5.5349  -21.7331 C   0  0  0  0  0  0  0  0  0  0  0  0
   -4.0503    5.2293  -20.3699 C   0  0  0  0  0  0  0  0  0  0  0  0
   -5.3097    4.7282  -19.7617 C   0  0  0  0  0  0  0  0  0  0  0  0
   -5.9486    3.9850  -20.4044 O   0  0  0  0  0  0  0  0  0  0  0  0
   -5.5866    5.3444  -18.3552 N   0  0  0  0  0  0  0  0  0  0  0  0
   -6.6259    5.1042  -17.4446 C   0  0  0  0  0  0  0  0  0  0  0  0
   -6.4207    5.4468  -16.0945 C   0  0  0  0  0  0  0  0  0  0  0  0
   -7.4261    5.2329  -15.1340 C   0  0  0  0  0  0  0  0  0  0  0  0
   -7.3295    5.7392  -13.7211 C   0  0  0  0  0  0  0  0  0  0  0  0
   -7.2361    7.0996  -13.6802 F   0  0  0  0  0  0  0  0  0  0  0  0
   -6.2502    5.2624  -13.0530 F   0  0  0  0  0  0  0  0  0  0  0  0
   -8.4202    5.4371  -12.9585 F   0  0  0  0  0  0  0  0  0  0  0  0
   -8.6091    4.6308  -15.5292 C   0  0  0  0  0  0  0  0  0  0  0  0
   -8.8460    4.4315  -16.8754 C   0  0  0  0  0  0  0  0  0  0  0  0
  -10.1364    4.1677  -17.2554 C   0  0  0  0  0  0  0  0  0  0  0  0
  -10.5182    4.3601  -18.5460 C   0  0  0  0  0  0  0  0  0  0  0  0
   -9.5199    4.5115  -19.4635 C   0  0  0  0  0  0  0  0  0  0  0  0
   -8.2223    4.5927  -19.1445 N   0  0  0  0  0  0  0  0  0  0  0  0
   -7.8784    4.6558  -17.8593 C   0  0  0  0  0  0  0  0  0  0  0  0
   -2.8409    5.4016  -19.6611 C   0  0  0  0  0  0  0  0  0  0  0  0
   -2.6132    5.0740  -18.2987 C   0  0  0  0  0  0  0  0  0  0  0  0
   -1.4356    5.4525  -17.6576 C   0  0  0  0  0  0  0  0  0  0  0  0
   -0.4177    6.0459  -18.3861 C   0  0  0  0  0  0  0  0  0  0  0  0
   -0.5941    6.2695  -19.7501 C   0  0  0  0  0  0  0  0  0  0  0  0
   -1.7836    5.9673  -20.3963 C   0  0  0  0  0  0  0  0  0  0  0  0
   -1.8705    6.2702  -21.7000 N   0  0  0  0  0  0  0  0  0  0  0  0
  1  2  1  0
  2  3  1  0
  3  4  1  0
  4  5  2  0
  5  6  1  0
  6  7  1  0
  7  8  2  0
  7  9  1  0
  9 10  1  0
 10 11  2  0
 11 12  1  0
 12 13  1  0
 13 14  1  0
 13 15  1  0
 13 16  1  0
 12 17  2  0
 17 18  1  0
 18 19  2  0
 19 20  1  0
 20 21  2  0
 21 22  1  0
 22 23  2  0
  6 24  2  0
 24 25  1  0
 25 26  2  0
 26 27  1  0
 27 28  2  0
 28 29  1  0
 29 30  2  0
 30  4  1  0
 23 10  1  0
 29 24  1  0
 23 18  1  0
M  END
>  <energy_score>  (941) 
-14.146401

>  <alias>  (941) 
None

>  <HIPPO Pose ID>  (941) 
70375

>  <smiles>  (941) 
CCCc1cc(C(=O)Nc2cc(C(F)(F)F)cc3cccnc23)c2ccccc2n1

>  <inchikey>  (941) 
JNJYQYWTPWWCOP-UHFFFAOYSA-N

>  <distance_score>  (941) 
1.066181

>  <ref_mols>  (941) 
Z0917a,Z0852a

>  <ref_pdb>  (941) 
Z0852a

>  <HIPPO Compound ID>  (941) 
142339

>  <name>  (941) 
P70375

>  <inspiration_score>  (941) 
None

$$$$
P70376
     RDKit          3D

 30 33  0  0  0  0  0  0  0  0999 V2000
   -1.9550    4.8648  -25.3800 C   0  0  0  0  0  0  0  0  0  0  0  0
   -2.2341    6.3420  -25.1414 C   0  0  0  0  0  0  0  0  0  0  0  0
   -3.4338    6.5882  -24.2197 C   0  0  0  0  0  0  0  0  0  0  0  0
   -3.2446    6.1212  -22.7968 C   0  0  0  0  0  0  0  0  0  0  0  0
   -4.3118    5.6304  -22.0748 C   0  0  0  0  0  0  0  0  0  0  0  0
   -4.0993    5.2544  -20.7486 C   0  0  0  0  0  0  0  0  0  0  0  0
   -5.3063    4.7591  -20.0393 C   0  0  0  0  0  0  0  0  0  0  0  0
   -5.9849    3.9785  -20.5865 O   0  0  0  0  0  0  0  0  0  0  0  0
   -5.4181    5.3664  -18.6144 N   0  0  0  0  0  0  0  0  0  0  0  0
   -6.3013    5.0774  -17.5725 C   0  0  0  0  0  0  0  0  0  0  0  0
   -5.7841    5.1843  -16.2729 C   0  0  0  0  0  0  0  0  0  0  0  0
   -6.5568    4.8358  -15.1642 C   0  0  0  0  0  0  0  0  0  0  0  0
   -5.9321    4.8938  -13.8170 C   0  0  0  0  0  0  0  0  0  0  0  0
   -4.7545    5.1623  -13.6344 O   0  0  0  0  0  0  0  0  0  0  0  0
   -6.8486    4.6312  -12.8551 O   0  0  0  0  0  0  0  0  0  0  0  0
   -6.3209    4.5995  -11.5293 C   0  0  0  0  0  0  0  0  0  0  0  0
   -7.8740    4.4356  -15.3637 C   0  0  0  0  0  0  0  0  0  0  0  0
   -8.4031    4.4151  -16.6581 C   0  0  0  0  0  0  0  0  0  0  0  0
   -9.7413    4.1254  -16.8378 C   0  0  0  0  0  0  0  0  0  0  0  0
  -10.3278    4.2344  -18.0811 C   0  0  0  0  0  0  0  0  0  0  0  0
   -9.5077    4.5525  -19.1316 C   0  0  0  0  0  0  0  0  0  0  0  0
   -8.1892    4.7618  -19.0022 N   0  0  0  0  0  0  0  0  0  0  0  0
   -7.6309    4.7193  -17.7878 C   0  0  0  0  0  0  0  0  0  0  0  0
   -2.8207    5.3731  -20.1488 C   0  0  0  0  0  0  0  0  0  0  0  0
   -2.4673    4.9982  -18.8249 C   0  0  0  0  0  0  0  0  0  0  0  0
   -1.2339    5.3573  -18.2861 C   0  0  0  0  0  0  0  0  0  0  0  0
   -0.2766    5.9526  -19.0894 C   0  0  0  0  0  0  0  0  0  0  0  0
   -0.5747    6.2121  -20.4237 C   0  0  0  0  0  0  0  0  0  0  0  0
   -1.8263    5.9488  -20.9586 C   0  0  0  0  0  0  0  0  0  0  0  0
   -2.0320    6.3053  -22.2341 N   0  0  0  0  0  0  0  0  0  0  0  0
  1  2  1  0
  2  3  1  0
  3  4  1  0
  4  5  2  0
  5  6  1  0
  6  7  1  0
  7  8  2  0
  7  9  1  0
  9 10  1  0
 10 11  2  0
 11 12  1  0
 12 13  1  0
 13 14  2  0
 13 15  1  0
 15 16  1  0
 12 17  2  0
 17 18  1  0
 18 19  2  0
 19 20  1  0
 20 21  2  0
 21 22  1  0
 22 23  2  0
  6 24  2  0
 24 25  1  0
 25 26  2  0
 26 27  1  0
 27 28  2  0
 28 29  1  0
 29 30  2  0
 30  4  1  0
 23 10  1  0
 29 24  1  0
 23 18  1  0
M  END
>  <energy_score>  (942) 
-4.68147

>  <alias>  (942) 
None

>  <HIPPO Pose ID>  (942) 
70376

>  <smiles>  (942) 
CCCc1cc(C(=O)Nc2cc(C(=O)OC)cc3cccnc23)c2ccccc2n1

>  <inchikey>  (942) 
QHXTUZYCQJZXAO-UHFFFAOYSA-N

>  <distance_score>  (942) 
1.623096

>  <ref_mols>  (942) 
Z0917a,Z0852a

>  <ref_pdb>  (942) 
Z0852a

>  <HIPPO Compound ID>  (942) 
142340

>  <name>  (942) 
P70376

>  <inspiration_score>  (942) 
None

$$$$
P70377
     RDKit          3D

 30 33  0  0  0  0  0  0  0  0999 V2000
   -6.8514    5.4408  -11.4951 C   0  0  0  0  0  0  0  0  0  0  0  0
   -7.3435    5.2646  -12.8238 O   0  0  0  0  0  0  0  0  0  0  0  0
   -6.4462    5.5632  -13.7939 C   0  0  0  0  0  0  0  0  0  0  0  0
   -5.3134    5.9862  -13.6233 O   0  0  0  0  0  0  0  0  0  0  0  0
   -7.0351    5.3332  -15.1372 C   0  0  0  0  0  0  0  0  0  0  0  0
   -6.3091    5.7252  -16.2615 C   0  0  0  0  0  0  0  0  0  0  0  0
   -6.7964    5.4618  -17.5509 C   0  0  0  0  0  0  0  0  0  0  0  0
   -5.8746    5.5430  -18.5754 N   0  0  0  0  0  0  0  0  0  0  0  0
   -5.7800    4.7528  -19.9178 C   0  0  0  0  0  0  0  0  0  0  0  0
   -6.5111    3.9712  -20.3909 O   0  0  0  0  0  0  0  0  0  0  0  0
   -4.4932    5.0481  -20.5505 C   0  0  0  0  0  0  0  0  0  0  0  0
   -4.4488    5.4075  -21.8834 C   0  0  0  0  0  0  0  0  0  0  0  0
   -3.2130    5.7485  -22.3479 C   0  0  0  0  0  0  0  0  0  0  0  0
   -3.0300    6.1024  -23.6422 O   0  0  0  0  0  0  0  0  0  0  0  0
   -2.1027    5.8292  -21.6016 N   0  0  0  0  0  0  0  0  0  0  0  0
   -2.1861    5.4932  -20.2893 C   0  0  0  0  0  0  0  0  0  0  0  0
   -1.1428    5.7080  -19.4029 C   0  0  0  0  0  0  0  0  0  0  0  0
   -0.0166    6.2276  -19.8688 F   0  0  0  0  0  0  0  0  0  0  0  0
   -1.2052    5.5156  -18.0218 C   0  0  0  0  0  0  0  0  0  0  0  0
   -2.3273    4.9374  -17.4700 C   0  0  0  0  0  0  0  0  0  0  0  0
   -2.4894    4.7793  -15.9887 C   0  0  0  0  0  0  0  0  0  0  0  0
   -3.3439    4.5839  -18.3463 C   0  0  0  0  0  0  0  0  0  0  0  0
   -3.3467    5.0017  -19.7186 C   0  0  0  0  0  0  0  0  0  0  0  0
   -8.0561    4.9642  -17.7498 C   0  0  0  0  0  0  0  0  0  0  0  0
   -8.5922    4.9780  -18.9652 N   0  0  0  0  0  0  0  0  0  0  0  0
   -9.8709    4.6464  -19.1125 C   0  0  0  0  0  0  0  0  0  0  0  0
  -10.6310    4.1747  -18.0790 C   0  0  0  0  0  0  0  0  0  0  0  0
  -10.0294    4.0844  -16.8402 C   0  0  0  0  0  0  0  0  0  0  0  0
   -8.7664    4.5713  -16.6240 C   0  0  0  0  0  0  0  0  0  0  0  0
   -8.2612    4.7072  -15.3245 C   0  0  0  0  0  0  0  0  0  0  0  0
  1  2  1  0
  2  3  1  0
  3  4  2  0
  3  5  1  0
  5  6  2  0
  6  7  1  0
  7  8  1  0
  8  9  1  0
  9 10  2  0
  9 11  1  0
 11 12  2  0
 12 13  1  0
 13 14  1  0
 13 15  2  0
 15 16  1  0
 16 17  2  0
 17 18  1  0
 17 19  1  0
 19 20  2  0
 20 21  1  0
 20 22  1  0
 22 23  2  0
  7 24  2  0
 24 25  1  0
 25 26  2  0
 26 27  1  0
 27 28  2  0
 28 29  1  0
 29 30  2  0
 30  5  1  0
 23 11  1  0
 29 24  1  0
 23 16  1  0
M  END
>  <energy_score>  (943) 
-16.930576

>  <alias>  (943) 
None

>  <HIPPO Pose ID>  (943) 
70377

>  <smiles>  (943) 
COC(=O)c1cc(NC(=O)c2cc(O)nc3c(F)cc(C)cc23)c2ncccc2c1

>  <inchikey>  (943) 
SAXLTYRYPURWJU-UHFFFAOYSA-N

>  <distance_score>  (943) 
1.569105

>  <ref_mols>  (943) 
Z0917a,Z0852a

>  <ref_pdb>  (943) 
Z0852a

>  <HIPPO Compound ID>  (943) 
142343

>  <name>  (943) 
P70377

>  <inspiration_score>  (943) 
None

$$$$
P70378
     RDKit          3D

 30 33  0  0  0  0  0  0  0  0999 V2000
   -4.4575    7.0828  -24.3667 C   0  0  0  0  0  0  0  0  0  0  0  0
   -3.0849    6.6838  -23.8176 C   0  0  0  0  0  0  0  0  0  0  0  0
   -2.4051    5.6672  -24.7356 C   0  0  0  0  0  0  0  0  0  0  0  0
   -3.0841    6.1886  -22.3851 C   0  0  0  0  0  0  0  0  0  0  0  0
   -4.1775    5.6104  -21.7734 C   0  0  0  0  0  0  0  0  0  0  0  0
   -4.0787    5.2363  -20.4269 C   0  0  0  0  0  0  0  0  0  0  0  0
   -5.3290    4.6944  -19.8330 C   0  0  0  0  0  0  0  0  0  0  0  0
   -5.9648    3.9665  -20.4964 O   0  0  0  0  0  0  0  0  0  0  0  0
   -5.6093    5.2714  -18.4103 N   0  0  0  0  0  0  0  0  0  0  0  0
   -6.6488    5.0028  -17.5071 C   0  0  0  0  0  0  0  0  0  0  0  0
   -6.4433    5.3234  -16.1479 C   0  0  0  0  0  0  0  0  0  0  0  0
   -7.4492    5.1212  -15.1849 C   0  0  0  0  0  0  0  0  0  0  0  0
   -7.4110    5.6374  -13.7456 C   0  0  0  0  0  0  0  0  0  0  0  0
   -6.0540    6.2122  -13.3286 C   0  0  0  0  0  0  0  0  0  0  0  0
   -8.4155    6.7897  -13.6342 C   0  0  0  0  0  0  0  0  0  0  0  0
   -7.8182    4.5481  -12.7367 C   0  0  0  0  0  0  0  0  0  0  0  0
   -8.6336    4.5331  -15.6124 C   0  0  0  0  0  0  0  0  0  0  0  0
   -8.8778    4.3680  -16.9590 C   0  0  0  0  0  0  0  0  0  0  0  0
  -10.1818    4.1707  -17.3366 C   0  0  0  0  0  0  0  0  0  0  0  0
  -10.5546    4.4144  -18.6183 C   0  0  0  0  0  0  0  0  0  0  0  0
   -9.5489    4.5261  -19.5328 C   0  0  0  0  0  0  0  0  0  0  0  0
   -8.2480    4.5417  -19.2197 N   0  0  0  0  0  0  0  0  0  0  0  0
   -7.9039    4.5810  -17.9340 C   0  0  0  0  0  0  0  0  0  0  0  0
   -2.8736    5.4058  -19.7104 C   0  0  0  0  0  0  0  0  0  0  0  0
   -2.6391    5.0320  -18.3610 C   0  0  0  0  0  0  0  0  0  0  0  0
   -1.4720    5.4153  -17.7046 C   0  0  0  0  0  0  0  0  0  0  0  0
   -0.4650    6.0529  -18.4102 C   0  0  0  0  0  0  0  0  0  0  0  0
   -0.6461    6.3228  -19.7649 C   0  0  0  0  0  0  0  0  0  0  0  0
   -1.8312    6.0246  -20.4210 C   0  0  0  0  0  0  0  0  0  0  0  0
   -1.9322    6.3925  -21.7069 N   0  0  0  0  0  0  0  0  0  0  0  0
  1  2  1  0
  2  3  1  0
  2  4  1  0
  4  5  2  0
  5  6  1  0
  6  7  1  0
  7  8  2  0
  7  9  1  0
  9 10  1  0
 10 11  2  0
 11 12  1  0
 12 13  1  0
 13 14  1  0
 13 15  1  0
 13 16  1  0
 12 17  2  0
 17 18  1  0
 18 19  2  0
 19 20  1  0
 20 21  2  0
 21 22  1  0
 22 23  2  0
  6 24  2  0
 24 25  1  0
 25 26  2  0
 26 27  1  0
 27 28  2  0
 28 29  1  0
 29 30  2  0
 30  4  1  0
 23 10  1  0
 29 24  1  0
 23 18  1  0
M  END
>  <energy_score>  (944) 
-18.639246

>  <alias>  (944) 
None

>  <HIPPO Pose ID>  (944) 
70378

>  <smiles>  (944) 
CC(C)c1cc(C(=O)Nc2cc(C(C)(C)C)cc3cccnc23)c2ccccc2n1

>  <inchikey>  (944) 
OBDIWIKCRMZWAF-UHFFFAOYSA-N

>  <distance_score>  (944) 
1.344696

>  <ref_mols>  (944) 
Z0917a,Z0852a

>  <ref_pdb>  (944) 
Z0852a

>  <HIPPO Compound ID>  (944) 
142344

>  <name>  (944) 
P70378

>  <inspiration_score>  (944) 
None

$$$$
P70379
     RDKit          3D

 30 33  0  0  0  0  0  0  0  0999 V2000
   -6.5025    4.9934  -11.4753 C   0  0  0  0  0  0  0  0  0  0  0  0
   -6.9790    4.8888  -12.8169 O   0  0  0  0  0  0  0  0  0  0  0  0
   -6.0084    4.9638  -13.7603 C   0  0  0  0  0  0  0  0  0  0  0  0
   -4.8150    5.1145  -13.5503 O   0  0  0  0  0  0  0  0  0  0  0  0
   -6.5949    4.8691  -15.1214 C   0  0  0  0  0  0  0  0  0  0  0  0
   -5.7879    5.1708  -16.2190 C   0  0  0  0  0  0  0  0  0  0  0  0
   -6.2759    5.0426  -17.5285 C   0  0  0  0  0  0  0  0  0  0  0  0
   -5.3523    5.2787  -18.5481 N   0  0  0  0  0  0  0  0  0  0  0  0
   -5.2923    4.7331  -20.0000 C   0  0  0  0  0  0  0  0  0  0  0  0
   -5.9636    3.9423  -20.5414 O   0  0  0  0  0  0  0  0  0  0  0  0
   -4.1233    5.2668  -20.7427 C   0  0  0  0  0  0  0  0  0  0  0  0
   -4.3980    5.6480  -22.0560 C   0  0  0  0  0  0  0  0  0  0  0  0
   -3.3705    6.1555  -22.8219 C   0  0  0  0  0  0  0  0  0  0  0  0
   -3.6170    6.5873  -24.2533 C   0  0  0  0  0  0  0  0  0  0  0  0
   -3.5064    8.1069  -24.3822 C   0  0  0  0  0  0  0  0  0  0  0  0
   -2.6514    5.8884  -25.2122 C   0  0  0  0  0  0  0  0  0  0  0  0
   -2.1299    6.3315  -22.3191 N   0  0  0  0  0  0  0  0  0  0  0  0
   -1.8658    5.9743  -21.0551 C   0  0  0  0  0  0  0  0  0  0  0  0
   -0.5891    6.2371  -20.5840 C   0  0  0  0  0  0  0  0  0  0  0  0
   -0.2220    5.9695  -19.2694 C   0  0  0  0  0  0  0  0  0  0  0  0
   -1.1362    5.3687  -18.4217 C   0  0  0  0  0  0  0  0  0  0  0  0
   -2.3983    5.0148  -18.8962 C   0  0  0  0  0  0  0  0  0  0  0  0
   -2.8194    5.3934  -20.1997 C   0  0  0  0  0  0  0  0  0  0  0  0
   -7.6083    4.7057  -17.7670 C   0  0  0  0  0  0  0  0  0  0  0  0
   -8.1435    4.7348  -18.9925 N   0  0  0  0  0  0  0  0  0  0  0  0
   -9.4609    4.5272  -19.1445 C   0  0  0  0  0  0  0  0  0  0  0  0
  -10.3031    4.2297  -18.1057 C   0  0  0  0  0  0  0  0  0  0  0  0
   -9.7419    4.1387  -16.8505 C   0  0  0  0  0  0  0  0  0  0  0  0
   -8.4076    4.4297  -16.6482 C   0  0  0  0  0  0  0  0  0  0  0  0
   -7.9104    4.4772  -15.3422 C   0  0  0  0  0  0  0  0  0  0  0  0
  1  2  1  0
  2  3  1  0
  3  4  2  0
  3  5  1  0
  5  6  2  0
  6  7  1  0
  7  8  1  0
  8  9  1  0
  9 10  2  0
  9 11  1  0
 11 12  2  0
 12 13  1  0
 13 14  1  0
 14 15  1  0
 14 16  1  0
 13 17  2  0
 17 18  1  0
 18 19  2  0
 19 20  1  0
 20 21  2  0
 21 22  1  0
 22 23  2  0
  7 24  2  0
 24 25  1  0
 25 26  2  0
 26 27  1  0
 27 28  2  0
 28 29  1  0
 29 30  2  0
 30  5  1  0
 23 11  1  0
 29 24  1  0
 23 18  1  0
M  END
>  <energy_score>  (945) 
-31.741788

>  <alias>  (945) 
None

>  <HIPPO Pose ID>  (945) 
70379

>  <smiles>  (945) 
COC(=O)c1cc(NC(=O)c2cc(C(C)C)nc3ccccc23)c2ncccc2c1

>  <inchikey>  (945) 
ALJQTDICVQIUNO-UHFFFAOYSA-N

>  <distance_score>  (945) 
1.526513

>  <ref_mols>  (945) 
Z0917a,Z0852a

>  <ref_pdb>  (945) 
Z0852a

>  <HIPPO Compound ID>  (945) 
142346

>  <name>  (945) 
P70379

>  <inspiration_score>  (945) 
None

$$$$
P70380
     RDKit          3D

 31 35  0  0  0  0  0  0  0  0999 V2000
   -6.3479    4.8369  -11.5350 C   0  0  0  0  0  0  0  0  0  0  0  0
   -6.8592    4.7734  -12.8664 O   0  0  0  0  0  0  0  0  0  0  0  0
   -5.9231    4.9385  -13.8320 C   0  0  0  0  0  0  0  0  0  0  0  0
   -4.7352    5.1565  -13.6506 O   0  0  0  0  0  0  0  0  0  0  0  0
   -6.5406    4.8462  -15.1803 C   0  0  0  0  0  0  0  0  0  0  0  0
   -5.7570    5.1511  -16.2941 C   0  0  0  0  0  0  0  0  0  0  0  0
   -6.2704    5.0272  -17.5941 C   0  0  0  0  0  0  0  0  0  0  0  0
   -5.3695    5.2837  -18.6298 N   0  0  0  0  0  0  0  0  0  0  0  0
   -5.3330    4.7536  -20.0896 C   0  0  0  0  0  0  0  0  0  0  0  0
   -6.0069    3.9614  -20.6261 O   0  0  0  0  0  0  0  0  0  0  0  0
   -4.1893    5.3226  -20.8434 C   0  0  0  0  0  0  0  0  0  0  0  0
   -4.5123    5.8236  -22.1049 C   0  0  0  0  0  0  0  0  0  0  0  0
   -3.5214    6.4026  -22.8694 C   0  0  0  0  0  0  0  0  0  0  0  0
   -3.7827    7.0780  -24.1975 C   0  0  0  0  0  0  0  0  0  0  0  0
   -3.5427    6.2979  -25.4697 C   0  0  0  0  0  0  0  0  0  0  0  0
   -4.9316    6.7396  -25.1141 C   0  0  0  0  0  0  0  0  0  0  0  0
   -2.2561    6.4748  -22.3968 N   0  0  0  0  0  0  0  0  0  0  0  0
   -1.9296    6.0166  -21.1767 C   0  0  0  0  0  0  0  0  0  0  0  0
   -0.6202    6.2185  -20.7277 C   0  0  0  0  0  0  0  0  0  0  0  0
    0.4019    6.8518  -21.6352 C   0  0  0  0  0  0  0  0  0  0  0  0
   -0.2544    5.8830  -19.4217 C   0  0  0  0  0  0  0  0  0  0  0  0
   -1.1718    5.2700  -18.5870 C   0  0  0  0  0  0  0  0  0  0  0  0
   -2.4399    4.9511  -19.0591 C   0  0  0  0  0  0  0  0  0  0  0  0
   -2.8706    5.4006  -20.3334 C   0  0  0  0  0  0  0  0  0  0  0  0
   -7.6070    4.6908  -17.8051 C   0  0  0  0  0  0  0  0  0  0  0  0
   -8.1653    4.7229  -19.0191 N   0  0  0  0  0  0  0  0  0  0  0  0
   -9.4871    4.5318  -19.1459 C   0  0  0  0  0  0  0  0  0  0  0  0
  -10.3123    4.2383  -18.0920 C   0  0  0  0  0  0  0  0  0  0  0  0
   -9.7283    4.1397  -16.8471 C   0  0  0  0  0  0  0  0  0  0  0  0
   -8.3868    4.4181  -16.6710 C   0  0  0  0  0  0  0  0  0  0  0  0
   -7.8625    4.4602  -15.3753 C   0  0  0  0  0  0  0  0  0  0  0  0
  1  2  1  0
  2  3  1  0
  3  4  2  0
  3  5  1  0
  5  6  2  0
  6  7  1  0
  7  8  1  0
  8  9  1  0
  9 10  2  0
  9 11  1  0
 11 12  2  0
 12 13  1  0
 13 14  1  0
 14 15  1  0
 15 16  1  0
 13 17  2  0
 17 18  1  0
 18 19  2  0
 19 20  1  0
 19 21  1  0
 21 22  2  0
 22 23  1  0
 23 24  2  0
  7 25  2  0
 25 26  1  0
 26 27  2  0
 27 28  1  0
 28 29  2  0
 29 30  1  0
 30 31  2  0
 31  5  1  0
 24 11  1  0
 30 25  1  0
 16 14  1  0
 24 18  1  0
M  END
>  <energy_score>  (946) 
-21.041963

>  <alias>  (946) 
None

>  <HIPPO Pose ID>  (946) 
70380

>  <smiles>  (946) 
COC(=O)c1cc(NC(=O)c2cc(C3CC3)nc3c(C)cccc23)c2ncccc2c1

>  <inchikey>  (946) 
RVJGSCDIVFLULY-UHFFFAOYSA-N

>  <distance_score>  (946) 
1.68877

>  <ref_mols>  (946) 
Z0917a,Z0852a

>  <ref_pdb>  (946) 
Z0852a

>  <HIPPO Compound ID>  (946) 
142349

>  <name>  (946) 
P70380

>  <inspiration_score>  (946) 
None

$$$$
P70381
     RDKit          3D

 31 35  0  0  0  0  0  0  0  0999 V2000
    0.5336    6.8785  -20.6859 C   0  0  0  0  0  0  0  0  0  0  0  0
   -0.5867    6.2857  -19.8703 C   0  0  0  0  0  0  0  0  0  0  0  0
   -0.3888    6.0569  -18.5029 C   0  0  0  0  0  0  0  0  0  0  0  0
   -1.3877    5.4633  -17.7500 C   0  0  0  0  0  0  0  0  0  0  0  0
   -2.5778    5.0843  -18.3615 C   0  0  0  0  0  0  0  0  0  0  0  0
   -2.8441    5.4177  -19.7141 C   0  0  0  0  0  0  0  0  0  0  0  0
   -4.0752    5.2368  -20.3809 C   0  0  0  0  0  0  0  0  0  0  0  0
   -5.3073    4.7017  -19.7462 C   0  0  0  0  0  0  0  0  0  0  0  0
   -5.9318    3.9368  -20.3771 O   0  0  0  0  0  0  0  0  0  0  0  0
   -5.5444    5.2578  -18.3091 N   0  0  0  0  0  0  0  0  0  0  0  0
   -6.6147    5.0644  -17.4227 C   0  0  0  0  0  0  0  0  0  0  0  0
   -6.4197    5.4083  -16.0714 C   0  0  0  0  0  0  0  0  0  0  0  0
   -7.4405    5.2188  -15.1231 C   0  0  0  0  0  0  0  0  0  0  0  0
   -7.3477    5.7253  -13.7103 C   0  0  0  0  0  0  0  0  0  0  0  0
   -7.2557    7.0857  -13.6699 F   0  0  0  0  0  0  0  0  0  0  0  0
   -8.4398    5.4220  -12.9505 F   0  0  0  0  0  0  0  0  0  0  0  0
   -6.2691    5.2501  -13.0396 F   0  0  0  0  0  0  0  0  0  0  0  0
   -8.6302    4.6393  -15.5314 C   0  0  0  0  0  0  0  0  0  0  0  0
   -8.8545    4.4374  -16.8797 C   0  0  0  0  0  0  0  0  0  0  0  0
  -10.1435    4.1868  -17.2745 C   0  0  0  0  0  0  0  0  0  0  0  0
  -10.5064    4.3763  -18.5703 C   0  0  0  0  0  0  0  0  0  0  0  0
   -9.4948    4.5034  -19.4763 C   0  0  0  0  0  0  0  0  0  0  0  0
   -8.2002    4.5736  -19.1421 N   0  0  0  0  0  0  0  0  0  0  0  0
   -7.8710    4.6411  -17.8528 C   0  0  0  0  0  0  0  0  0  0  0  0
   -4.2065    5.5405  -21.7398 C   0  0  0  0  0  0  0  0  0  0  0  0
   -3.1263    6.0477  -22.4314 C   0  0  0  0  0  0  0  0  0  0  0  0
   -3.2373    6.3863  -23.9021 C   0  0  0  0  0  0  0  0  0  0  0  0
   -2.6619    5.4321  -24.9240 C   0  0  0  0  0  0  0  0  0  0  0  0
   -2.0156    6.7670  -24.7083 C   0  0  0  0  0  0  0  0  0  0  0  0
   -1.9628    6.2810  -21.7857 N   0  0  0  0  0  0  0  0  0  0  0  0
   -1.8104    5.9861  -20.4819 C   0  0  0  0  0  0  0  0  0  0  0  0
  1  2  1  0
  2  3  2  0
  3  4  1  0
  4  5  2  0
  5  6  1  0
  6  7  2  0
  7  8  1  0
  8  9  2  0
  8 10  1  0
 10 11  1  0
 11 12  2  0
 12 13  1  0
 13 14  1  0
 14 15  1  0
 14 16  1  0
 14 17  1  0
 13 18  2  0
 18 19  1  0
 19 20  2  0
 20 21  1  0
 21 22  2  0
 22 23  1  0
 23 24  2  0
  7 25  1  0
 25 26  2  0
 26 27  1  0
 27 28  1  0
 28 29  1  0
 26 30  1  0
 30 31  2  0
 31  2  1  0
 31  6  1  0
 24 11  1  0
 29 27  1  0
 24 19  1  0
M  END
>  <energy_score>  (947) 
-3.120481

>  <alias>  (947) 
None

>  <HIPPO Pose ID>  (947) 
70381

>  <smiles>  (947) 
Cc1cccc2c(C(=O)Nc3cc(C(F)(F)F)cc4cccnc34)cc(C3CC3)nc12

>  <inchikey>  (947) 
VXZDOJQCRRSFBW-UHFFFAOYSA-N

>  <distance_score>  (947) 
1.075361

>  <ref_mols>  (947) 
Z0917a,Z0852a

>  <ref_pdb>  (947) 
Z0852a

>  <HIPPO Compound ID>  (947) 
142350

>  <name>  (947) 
P70381

>  <inspiration_score>  (947) 
None

$$$$
P70382
     RDKit          3D

 31 34  0  0  0  0  0  0  0  0999 V2000
   -8.4338    6.8001  -13.6035 C   0  0  0  0  0  0  0  0  0  0  0  0
   -7.4282    5.6497  -13.7236 C   0  0  0  0  0  0  0  0  0  0  0  0
   -6.0705    6.2247  -13.3089 C   0  0  0  0  0  0  0  0  0  0  0  0
   -7.8300    4.5538  -12.7202 C   0  0  0  0  0  0  0  0  0  0  0  0
   -7.4708    5.1393  -15.1642 C   0  0  0  0  0  0  0  0  0  0  0  0
   -6.4566    5.3261  -16.1204 C   0  0  0  0  0  0  0  0  0  0  0  0
   -6.6627    5.0050  -17.4777 C   0  0  0  0  0  0  0  0  0  0  0  0
   -5.5990    5.1982  -18.3698 N   0  0  0  0  0  0  0  0  0  0  0  0
   -5.3730    4.6460  -19.8096 C   0  0  0  0  0  0  0  0  0  0  0  0
   -6.0037    3.8849  -20.4386 O   0  0  0  0  0  0  0  0  0  0  0  0
   -4.0782    5.1597  -20.3658 C   0  0  0  0  0  0  0  0  0  0  0  0
   -4.1542    5.3676  -21.6927 C   0  0  0  0  0  0  0  0  0  0  0  0
   -2.9840    5.7643  -22.4891 C   0  0  0  0  0  0  0  0  0  0  0  0
   -3.0678    5.9310  -23.7005 O   0  0  0  0  0  0  0  0  0  0  0  0
   -1.8229    5.9586  -21.8028 N   0  0  0  0  0  0  0  0  0  0  0  0
   -1.6976    5.8018  -20.4193 C   0  0  0  0  0  0  0  0  0  0  0  0
   -0.4690    6.1189  -19.8289 C   0  0  0  0  0  0  0  0  0  0  0  0
   -0.3272    6.0493  -18.4465 C   0  0  0  0  0  0  0  0  0  0  0  0
   -1.4005    5.5886  -17.6804 C   0  0  0  0  0  0  0  0  0  0  0  0
   -1.2939    5.5835  -16.2152 N   0  0  0  0  0  0  0  0  0  0  0  0
   -0.1684    5.7235  -15.7171 O   0  0  0  0  0  0  0  0  0  0  0  0
   -2.3433    5.4605  -15.5672 O   0  0  0  0  0  0  0  0  0  0  0  0
   -2.5971    5.1649  -18.2855 C   0  0  0  0  0  0  0  0  0  0  0  0
   -2.7964    5.3573  -19.6590 C   0  0  0  0  0  0  0  0  0  0  0  0
   -7.9209    4.6028  -17.9114 C   0  0  0  0  0  0  0  0  0  0  0  0
   -8.2539    4.5670  -19.2001 N   0  0  0  0  0  0  0  0  0  0  0  0
   -9.5523    4.5393  -19.5242 C   0  0  0  0  0  0  0  0  0  0  0  0
  -10.5635    4.4206  -18.6171 C   0  0  0  0  0  0  0  0  0  0  0  0
  -10.1984    4.1830  -17.3320 C   0  0  0  0  0  0  0  0  0  0  0  0
   -8.8996    4.3922  -16.9431 C   0  0  0  0  0  0  0  0  0  0  0  0
   -8.6592    4.5603  -15.5958 C   0  0  0  0  0  0  0  0  0  0  0  0
  1  2  1  0
  2  3  1  0
  2  4  1  0
  2  5  1  0
  5  6  2  0
  6  7  1  0
  7  8  1  0
  8  9  1  0
  9 10  2  0
  9 11  1  0
 11 12  2  0
 12 13  1  0
 13 14  2  0
 13 15  1  0
 15 16  1  0
 16 17  2  0
 17 18  1  0
 18 19  2  0
 19 20  1  0
 20 21  2  0
 20 22  1  0
 19 23  1  0
 23 24  2  0
  7 25  2  0
 25 26  1  0
 26 27  2  0
 27 28  1  0
 28 29  2  0
 29 30  1  0
 30 31  2  0
 31  5  1  0
 24 11  1  0
 30 25  1  0
 24 16  1  0
M  CHG  2  20   1  22  -1
M  END
>  <energy_score>  (948) 
-23.547681

>  <alias>  (948) 
None

>  <HIPPO Pose ID>  (948) 
70382

>  <smiles>  (948) 
CC(C)(C)c1cc(NC(=O)c2cc(=O)[nH]c3ccc([N+](=O)[O-])cc23)c2ncccc2c1

>  <inchikey>  (948) 
BCSUOLWGVFHXCH-UHFFFAOYSA-N

>  <distance_score>  (948) 
1.367041

>  <ref_mols>  (948) 
Z0917a,Z0852a

>  <ref_pdb>  (948) 
Z0852a

>  <HIPPO Compound ID>  (948) 
142351

>  <name>  (948) 
P70382

>  <inspiration_score>  (948) 
None

$$$$
P70383
     RDKit          3D

 31 35  0  0  0  0  0  0  0  0999 V2000
   -5.9441    3.9222  -20.3617 O   0  0  0  0  0  0  0  0  0  0  0  0
   -5.3155    4.6891  -19.7380 C   0  0  0  0  0  0  0  0  0  0  0  0
   -5.5445    5.2524  -18.3038 N   0  0  0  0  0  0  0  0  0  0  0  0
   -6.6106    5.0651  -17.4111 C   0  0  0  0  0  0  0  0  0  0  0  0
   -6.4136    5.4087  -16.0608 C   0  0  0  0  0  0  0  0  0  0  0  0
   -7.4351    5.2199  -15.1127 C   0  0  0  0  0  0  0  0  0  0  0  0
   -7.3431    5.7274  -13.7003 C   0  0  0  0  0  0  0  0  0  0  0  0
   -6.2642    5.2533  -13.0296 F   0  0  0  0  0  0  0  0  0  0  0  0
   -8.4352    5.4250  -12.9405 F   0  0  0  0  0  0  0  0  0  0  0  0
   -7.2510    7.0880  -13.6620 F   0  0  0  0  0  0  0  0  0  0  0  0
   -8.6251    4.6396  -15.5201 C   0  0  0  0  0  0  0  0  0  0  0  0
   -8.8510    4.4386  -16.8682 C   0  0  0  0  0  0  0  0  0  0  0  0
  -10.1392    4.1830  -17.2624 C   0  0  0  0  0  0  0  0  0  0  0  0
  -10.5048    4.3702  -18.5581 C   0  0  0  0  0  0  0  0  0  0  0  0
   -9.4952    4.5073  -19.4647 C   0  0  0  0  0  0  0  0  0  0  0  0
   -8.2005    4.5856  -19.1308 N   0  0  0  0  0  0  0  0  0  0  0  0
   -7.8692    4.6461  -17.8412 C   0  0  0  0  0  0  0  0  0  0  0  0
   -4.0960    5.2222  -20.3931 C   0  0  0  0  0  0  0  0  0  0  0  0
   -4.2510    5.5076  -21.7535 C   0  0  0  0  0  0  0  0  0  0  0  0
   -3.1798    5.9880  -22.4796 C   0  0  0  0  0  0  0  0  0  0  0  0
   -3.2969    6.2758  -23.9560 C   0  0  0  0  0  0  0  0  0  0  0  0
   -3.0156    7.6693  -24.4695 C   0  0  0  0  0  0  0  0  0  0  0  0
   -4.4171    7.1380  -24.4941 C   0  0  0  0  0  0  0  0  0  0  0  0
   -1.9919    6.2088  -21.8749 N   0  0  0  0  0  0  0  0  0  0  0  0
   -1.8301    5.9366  -20.5718 C   0  0  0  0  0  0  0  0  0  0  0  0
   -0.5962    6.2303  -20.0177 C   0  0  0  0  0  0  0  0  0  0  0  0
   -0.3516    6.0235  -18.6700 C   0  0  0  0  0  0  0  0  0  0  0  0
    0.8378    6.3529  -18.1503 F   0  0  0  0  0  0  0  0  0  0  0  0
   -1.3208    5.4696  -17.8547 C   0  0  0  0  0  0  0  0  0  0  0  0
   -2.5449    5.0997  -18.4050 C   0  0  0  0  0  0  0  0  0  0  0  0
   -2.8497    5.4017  -19.7583 C   0  0  0  0  0  0  0  0  0  0  0  0
  1  2  2  0
  2  3  1  0
  3  4  1  0
  4  5  2  0
  5  6  1  0
  6  7  1  0
  7  8  1  0
  7  9  1  0
  7 10  1  0
  6 11  2  0
 11 12  1  0
 12 13  2  0
 13 14  1  0
 14 15  2  0
 15 16  1  0
 16 17  2  0
  2 18  1  0
 18 19  2  0
 19 20  1  0
 20 21  1  0
 21 22  1  0
 22 23  1  0
 20 24  2  0
 24 25  1  0
 25 26  2  0
 26 27  1  0
 27 28  1  0
 27 29  2  0
 29 30  1  0
 30 31  2  0
 17  4  1  0
 31 18  1  0
 17 12  1  0
 23 21  1  0
 31 25  1  0
M  END
>  <energy_score>  (949) 
-3.479037

>  <alias>  (949) 
None

>  <HIPPO Pose ID>  (949) 
70383

>  <smiles>  (949) 
O=C(Nc1cc(C(F)(F)F)cc2cccnc12)c1cc(C2CC2)nc2cc(F)ccc12

>  <inchikey>  (949) 
ILYLHUFIKSXCDE-UHFFFAOYSA-N

>  <distance_score>  (949) 
1.077373

>  <ref_mols>  (949) 
Z0917a,Z0852a

>  <ref_pdb>  (949) 
Z0852a

>  <HIPPO Compound ID>  (949) 
142352

>  <name>  (949) 
P70383

>  <inspiration_score>  (949) 
None

$$$$
P70384
     RDKit          3D

 31 35  0  0  0  0  0  0  0  0999 V2000
   -8.4319    6.7948  -13.6160 C   0  0  0  0  0  0  0  0  0  0  0  0
   -7.4262    5.6432  -13.7251 C   0  0  0  0  0  0  0  0  0  0  0  0
   -7.8366    4.5508  -12.7212 C   0  0  0  0  0  0  0  0  0  0  0  0
   -6.0716    6.2186  -13.3010 C   0  0  0  0  0  0  0  0  0  0  0  0
   -7.4576    5.1290  -15.1650 C   0  0  0  0  0  0  0  0  0  0  0  0
   -6.4405    5.3199  -16.1176 C   0  0  0  0  0  0  0  0  0  0  0  0
   -6.6382    5.0035  -17.4783 C   0  0  0  0  0  0  0  0  0  0  0  0
   -5.5792    5.2376  -18.3678 N   0  0  0  0  0  0  0  0  0  0  0  0
   -5.3249    4.6902  -19.8048 C   0  0  0  0  0  0  0  0  0  0  0  0
   -5.9211    3.9011  -20.4334 O   0  0  0  0  0  0  0  0  0  0  0  0
   -4.0962    5.2390  -20.4311 C   0  0  0  0  0  0  0  0  0  0  0  0
   -4.2304    5.5695  -21.7842 C   0  0  0  0  0  0  0  0  0  0  0  0
   -3.1507    6.0879  -22.4731 C   0  0  0  0  0  0  0  0  0  0  0  0
   -3.2725    6.4534  -23.9365 C   0  0  0  0  0  0  0  0  0  0  0  0
   -2.7514    5.4941  -24.9826 C   0  0  0  0  0  0  0  0  0  0  0  0
   -2.0509    6.7998  -24.7578 C   0  0  0  0  0  0  0  0  0  0  0  0
   -1.9809    6.3089  -21.8318 N   0  0  0  0  0  0  0  0  0  0  0  0
   -1.8376    5.9877  -20.5390 C   0  0  0  0  0  0  0  0  0  0  0  0
   -0.6208    6.2857  -19.9504 C   0  0  0  0  0  0  0  0  0  0  0  0
   -0.3996    6.0380  -18.6059 C   0  0  0  0  0  0  0  0  0  0  0  0
    0.7706    6.3762  -18.0494 F   0  0  0  0  0  0  0  0  0  0  0  0
   -1.3724    5.4341  -17.8320 C   0  0  0  0  0  0  0  0  0  0  0  0
   -2.5742    5.0535  -18.4221 C   0  0  0  0  0  0  0  0  0  0  0  0
   -2.8619    5.4052  -19.7676 C   0  0  0  0  0  0  0  0  0  0  0  0
   -7.8936    4.5934  -17.9182 C   0  0  0  0  0  0  0  0  0  0  0  0
   -8.2250    4.5461  -19.2081 N   0  0  0  0  0  0  0  0  0  0  0  0
   -9.5236    4.5206  -19.5330 C   0  0  0  0  0  0  0  0  0  0  0  0
  -10.5377    4.4176  -18.6268 C   0  0  0  0  0  0  0  0  0  0  0  0
  -10.1771    4.1844  -17.3399 C   0  0  0  0  0  0  0  0  0  0  0  0
   -8.8769    4.3849  -16.9514 C   0  0  0  0  0  0  0  0  0  0  0  0
   -8.6429    4.5504  -15.6030 C   0  0  0  0  0  0  0  0  0  0  0  0
  1  2  1  0
  2  3  1  0
  2  4  1  0
  2  5  1  0
  5  6  2  0
  6  7  1  0
  7  8  1  0
  8  9  1  0
  9 10  2  0
  9 11  1  0
 11 12  2  0
 12 13  1  0
 13 14  1  0
 14 15  1  0
 15 16  1  0
 13 17  2  0
 17 18  1  0
 18 19  2  0
 19 20  1  0
 20 21  1  0
 20 22  2  0
 22 23  1  0
 23 24  2  0
  7 25  2  0
 25 26  1  0
 26 27  2  0
 27 28  1  0
 28 29  2  0
 29 30  1  0
 30 31  2  0
 31  5  1  0
 24 11  1  0
 30 25  1  0
 16 14  1  0
 24 18  1  0
M  END
>  <energy_score>  (950) 
-10.792014

>  <alias>  (950) 
None

>  <HIPPO Pose ID>  (950) 
70384

>  <smiles>  (950) 
CC(C)(C)c1cc(NC(=O)c2cc(C3CC3)nc3cc(F)ccc23)c2ncccc2c1

>  <inchikey>  (950) 
INKSCJPQWHHPHB-UHFFFAOYSA-N

>  <distance_score>  (950) 
1.352667

>  <ref_mols>  (950) 
Z0917a,Z0852a

>  <ref_pdb>  (950) 
Z0852a

>  <HIPPO Compound ID>  (950) 
142353

>  <name>  (950) 
P70384

>  <inspiration_score>  (950) 
None

$$$$
P70385
     RDKit          3D

 31 34  0  0  0  0  0  0  0  0999 V2000
   -5.9250    3.9408  -20.3618 O   0  0  0  0  0  0  0  0  0  0  0  0
   -5.2978    4.7011  -19.7286 C   0  0  0  0  0  0  0  0  0  0  0  0
   -5.5347    5.2561  -18.2926 N   0  0  0  0  0  0  0  0  0  0  0  0
   -6.6079    5.0675  -17.4086 C   0  0  0  0  0  0  0  0  0  0  0  0
   -6.4153    5.4099  -16.0570 C   0  0  0  0  0  0  0  0  0  0  0  0
   -7.4386    5.2205  -15.1114 C   0  0  0  0  0  0  0  0  0  0  0  0
   -7.3488    5.7263  -13.6984 C   0  0  0  0  0  0  0  0  0  0  0  0
   -7.2555    7.0870  -13.6589 F   0  0  0  0  0  0  0  0  0  0  0  0
   -6.2709    5.2516  -13.0263 F   0  0  0  0  0  0  0  0  0  0  0  0
   -8.4420    5.4246  -12.9402 F   0  0  0  0  0  0  0  0  0  0  0  0
   -8.6272    4.6411  -15.5224 C   0  0  0  0  0  0  0  0  0  0  0  0
   -8.8490    4.4407  -16.8713 C   0  0  0  0  0  0  0  0  0  0  0  0
  -10.1366    4.1865  -17.2678 C   0  0  0  0  0  0  0  0  0  0  0  0
  -10.4980    4.3716  -18.5647 C   0  0  0  0  0  0  0  0  0  0  0  0
   -9.4855    4.5032  -19.4692 C   0  0  0  0  0  0  0  0  0  0  0  0
   -8.1911    4.5830  -19.1332 N   0  0  0  0  0  0  0  0  0  0  0  0
   -7.8643    4.6470  -17.8426 C   0  0  0  0  0  0  0  0  0  0  0  0
   -4.0654    5.2261  -20.3697 C   0  0  0  0  0  0  0  0  0  0  0  0
   -4.1975    5.5049  -21.7357 C   0  0  0  0  0  0  0  0  0  0  0  0
   -3.1029    5.9764  -22.4344 C   0  0  0  0  0  0  0  0  0  0  0  0
   -3.2178    6.2487  -23.9263 C   0  0  0  0  0  0  0  0  0  0  0  0
   -2.4597    7.2993  -24.3540 F   0  0  0  0  0  0  0  0  0  0  0  0
   -2.8524    5.1832  -24.6965 F   0  0  0  0  0  0  0  0  0  0  0  0
   -4.4952    6.5499  -24.3119 F   0  0  0  0  0  0  0  0  0  0  0  0
   -1.9177    6.1977  -21.8101 N   0  0  0  0  0  0  0  0  0  0  0  0
   -1.7897    5.9341  -20.5010 C   0  0  0  0  0  0  0  0  0  0  0  0
   -0.5701    6.2313  -19.9119 C   0  0  0  0  0  0  0  0  0  0  0  0
   -0.3419    6.0381  -18.5515 C   0  0  0  0  0  0  0  0  0  0  0  0
   -1.3385    5.4798  -17.7687 C   0  0  0  0  0  0  0  0  0  0  0  0
   -2.5480    5.1062  -18.3516 C   0  0  0  0  0  0  0  0  0  0  0  0
   -2.8283    5.4050  -19.7107 C   0  0  0  0  0  0  0  0  0  0  0  0
  1  2  2  0
  2  3  1  0
  3  4  1  0
  4  5  2  0
  5  6  1  0
  6  7  1  0
  7  8  1  0
  7  9  1  0
  7 10  1  0
  6 11  2  0
 11 12  1  0
 12 13  2  0
 13 14  1  0
 14 15  2  0
 15 16  1  0
 16 17  2  0
  2 18  1  0
 18 19  2  0
 19 20  1  0
 20 21  1  0
 21 22  1  0
 21 23  1  0
 21 24  1  0
 20 25  2  0
 25 26  1  0
 26 27  2  0
 27 28  1  0
 28 29  2  0
 29 30  1  0
 30 31  2  0
 17  4  1  0
 31 18  1  0
 17 12  1  0
 31 26  1  0
M  END
>  <energy_score>  (951) 
-5.71885

>  <alias>  (951) 
None

>  <HIPPO Pose ID>  (951) 
70385

>  <smiles>  (951) 
O=C(Nc1cc(C(F)(F)F)cc2cccnc12)c1cc(C(F)(F)F)nc2ccccc12

>  <inchikey>  (951) 
PPCMCQRTSPBPJQ-UHFFFAOYSA-N

>  <distance_score>  (951) 
1.079629

>  <ref_mols>  (951) 
Z0917a,Z0852a

>  <ref_pdb>  (951) 
Z0852a

>  <HIPPO Compound ID>  (951) 
142362

>  <name>  (951) 
P70385

>  <inspiration_score>  (951) 
None

$$$$
P70386
     RDKit          3D

 31 35  0  0  0  0  0  0  0  0999 V2000
   -5.8764    4.1760  -20.5012 O   0  0  0  0  0  0  0  0  0  0  0  0
   -5.2573    4.9166  -19.8372 C   0  0  0  0  0  0  0  0  0  0  0  0
   -5.5475    5.4808  -18.4099 N   0  0  0  0  0  0  0  0  0  0  0  0
   -6.5814    5.1808  -17.5007 C   0  0  0  0  0  0  0  0  0  0  0  0
   -6.3815    5.5260  -16.1464 C   0  0  0  0  0  0  0  0  0  0  0  0
   -7.3716    5.2820  -15.1741 C   0  0  0  0  0  0  0  0  0  0  0  0
   -7.2799    5.7830  -13.7584 C   0  0  0  0  0  0  0  0  0  0  0  0
   -7.1867    7.1428  -13.7107 F   0  0  0  0  0  0  0  0  0  0  0  0
   -6.2034    5.3020  -13.0886 F   0  0  0  0  0  0  0  0  0  0  0  0
   -8.3731    5.4775  -12.9997 F   0  0  0  0  0  0  0  0  0  0  0  0
   -8.5411    4.6519  -15.5590 C   0  0  0  0  0  0  0  0  0  0  0  0
   -8.7794    4.4457  -16.9019 C   0  0  0  0  0  0  0  0  0  0  0  0
  -10.0728    4.1674  -17.2581 C   0  0  0  0  0  0  0  0  0  0  0  0
  -10.4665    4.3352  -18.5482 C   0  0  0  0  0  0  0  0  0  0  0  0
   -9.4767    4.4772  -19.4789 C   0  0  0  0  0  0  0  0  0  0  0  0
   -8.1752    4.5815  -19.1774 N   0  0  0  0  0  0  0  0  0  0  0  0
   -7.8213    4.6818  -17.8988 C   0  0  0  0  0  0  0  0  0  0  0  0
   -3.9634    5.4157  -20.3761 C   0  0  0  0  0  0  0  0  0  0  0  0
   -2.8145    5.3033  -19.6112 C   0  0  0  0  0  0  0  0  0  0  0  0
   -1.6126    5.6795  -20.1900 C   0  0  0  0  0  0  0  0  0  0  0  0
   -1.4633    6.1398  -21.4342 N   0  0  0  0  0  0  0  0  0  0  0  0
   -2.5699    6.2737  -22.1662 C   0  0  0  0  0  0  0  0  0  0  0  0
   -2.3987    6.8082  -23.4323 C   0  0  0  0  0  0  0  0  0  0  0  0
   -3.4800    7.0969  -24.2571 C   0  0  0  0  0  0  0  0  0  0  0  0
   -4.7617    6.8329  -23.8035 C   0  0  0  0  0  0  0  0  0  0  0  0
   -6.2202    7.3252  -24.8937 Br  0  0  0  0  0  0  0  0  0  0  0  0
   -4.9610    6.2457  -22.5516 C   0  0  0  0  0  0  0  0  0  0  0  0
   -3.8687    5.9535  -21.6958 C   0  0  0  0  0  0  0  0  0  0  0  0
   -0.4729    5.5760  -19.2159 C   0  0  0  0  0  0  0  0  0  0  0  0
   -1.2678    5.5920  -17.9108 C   0  0  0  0  0  0  0  0  0  0  0  0
   -2.5563    4.8108  -18.2229 C   0  0  0  0  0  0  0  0  0  0  0  0
  1  2  2  0
  2  3  1  0
  3  4  1  0
  4  5  2  0
  5  6  1  0
  6  7  1  0
  7  8  1  0
  7  9  1  0
  7 10  1  0
  6 11  2  0
 11 12  1  0
 12 13  2  0
 13 14  1  0
 14 15  2  0
 15 16  1  0
 16 17  2  0
  2 18  1  0
 18 19  2  0
 19 20  1  0
 20 21  2  0
 21 22  1  0
 22 23  2  0
 23 24  1  0
 24 25  2  0
 25 26  1  0
 25 27  1  0
 27 28  2  0
 20 29  1  0
 29 30  1  0
 30 31  1  0
 17  4  1  0
 28 18  1  0
 17 12  1  0
 31 19  1  0
 28 22  1  0
M  END
>  <energy_score>  (952) 
-7.989327

>  <alias>  (952) 
None

>  <HIPPO Pose ID>  (952) 
70386

>  <smiles>  (952) 
O=C(Nc1cc(C(F)(F)F)cc2cccnc12)c1c2c(nc3ccc(Br)cc13)CCC2

>  <inchikey>  (952) 
ZVKNOCBRKGMVPO-UHFFFAOYSA-N

>  <distance_score>  (952) 
1.103193

>  <ref_mols>  (952) 
Z0917a,Z0852a

>  <ref_pdb>  (952) 
Z0852a

>  <HIPPO Compound ID>  (952) 
142363

>  <name>  (952) 
P70386

>  <inspiration_score>  (952) 
None

$$$$
P70387
     RDKit          3D

 31 34  0  0  0  0  0  0  0  0999 V2000
   -3.0492    6.4488  -23.5850 C   0  0  0  0  0  0  0  0  0  0  0  0
   -3.2348    5.9640  -22.1792 C   0  0  0  0  0  0  0  0  0  0  0  0
   -2.1459    5.9936  -21.3732 N   0  0  0  0  0  0  0  0  0  0  0  0
   -2.2420    5.5819  -20.0862 C   0  0  0  0  0  0  0  0  0  0  0  0
   -1.1998    5.7524  -19.1943 C   0  0  0  0  0  0  0  0  0  0  0  0
   -0.0793    6.3136  -19.6254 F   0  0  0  0  0  0  0  0  0  0  0  0
   -1.2749    5.4403  -17.8436 C   0  0  0  0  0  0  0  0  0  0  0  0
   -0.2497    5.7156  -17.0258 F   0  0  0  0  0  0  0  0  0  0  0  0
   -2.3862    4.8077  -17.3434 C   0  0  0  0  0  0  0  0  0  0  0  0
   -3.4180    4.5383  -18.2205 C   0  0  0  0  0  0  0  0  0  0  0  0
   -3.4063    5.0444  -19.5566 C   0  0  0  0  0  0  0  0  0  0  0  0
   -4.5331    5.1170  -20.3969 C   0  0  0  0  0  0  0  0  0  0  0  0
   -5.8291    4.7589  -19.8340 C   0  0  0  0  0  0  0  0  0  0  0  0
   -6.5013    4.0000  -20.4207 O   0  0  0  0  0  0  0  0  0  0  0  0
   -6.0336    5.4204  -18.4351 N   0  0  0  0  0  0  0  0  0  0  0  0
   -7.0143    5.2167  -17.4800 C   0  0  0  0  0  0  0  0  0  0  0  0
   -6.7334    5.5094  -16.1390 C   0  0  0  0  0  0  0  0  0  0  0  0
   -7.6799    5.2223  -15.1473 C   0  0  0  0  0  0  0  0  0  0  0  0
   -7.5104    5.6787  -13.7248 C   0  0  0  0  0  0  0  0  0  0  0  0
   -7.3713    7.0340  -13.6489 F   0  0  0  0  0  0  0  0  0  0  0  0
   -6.4173    5.1516  -13.1196 F   0  0  0  0  0  0  0  0  0  0  0  0
   -8.5779    5.3849  -12.9307 F   0  0  0  0  0  0  0  0  0  0  0  0
   -8.8575    4.5855  -15.5179 C   0  0  0  0  0  0  0  0  0  0  0  0
   -9.1626    4.4420  -16.8662 C   0  0  0  0  0  0  0  0  0  0  0  0
  -10.4368    4.1272  -17.2643 C   0  0  0  0  0  0  0  0  0  0  0  0
  -10.8639    4.4166  -18.5244 C   0  0  0  0  0  0  0  0  0  0  0  0
   -9.9106    4.7343  -19.4399 C   0  0  0  0  0  0  0  0  0  0  0  0
   -8.6227    4.8343  -19.1334 N   0  0  0  0  0  0  0  0  0  0  0  0
   -8.2583    4.7707  -17.8599 C   0  0  0  0  0  0  0  0  0  0  0  0
   -4.4725    5.5772  -21.7088 C   0  0  0  0  0  0  0  0  0  0  0  0
   -5.5758    5.7120  -22.5025 O   0  0  0  0  0  0  0  0  0  0  0  0
  1  2  1  0
  2  3  2  0
  3  4  1  0
  4  5  2  0
  5  6  1  0
  5  7  1  0
  7  8  1  0
  7  9  2  0
  9 10  1  0
 10 11  2  0
 11 12  1  0
 12 13  1  0
 13 14  2  0
 13 15  1  0
 15 16  1  0
 16 17  2  0
 17 18  1  0
 18 19  1  0
 19 20  1  0
 19 21  1  0
 19 22  1  0
 18 23  2  0
 23 24  1  0
 24 25  2  0
 25 26  1  0
 26 27  2  0
 27 28  1  0
 28 29  2  0
 12 30  2  0
 30 31  1  0
 30  2  1  0
 11  4  1  0
 29 16  1  0
 29 24  1  0
M  END
>  <energy_score>  (953) 
-4.728721

>  <alias>  (953) 
None

>  <HIPPO Pose ID>  (953) 
70387

>  <smiles>  (953) 
Cc1nc2c(F)c(F)ccc2c(C(=O)Nc2cc(C(F)(F)F)cc3cccnc23)c1O

>  <inchikey>  (953) 
COJJJHYJMCMKSP-UHFFFAOYSA-N

>  <distance_score>  (953) 
1.29457

>  <ref_mols>  (953) 
Z0917a,Z0852a

>  <ref_pdb>  (953) 
Z0852a

>  <HIPPO Compound ID>  (953) 
142374

>  <name>  (953) 
P70387

>  <inspiration_score>  (953) 
None

$$$$
P70388
     RDKit          3D

 31 34  0  0  0  0  0  0  0  0999 V2000
   -3.0725    6.5146  -23.6063 C   0  0  0  0  0  0  0  0  0  0  0  0
   -3.2511    6.0076  -22.2074 C   0  0  0  0  0  0  0  0  0  0  0  0
   -2.1599    6.0321  -21.4035 N   0  0  0  0  0  0  0  0  0  0  0  0
   -2.2510    5.5996  -20.1227 C   0  0  0  0  0  0  0  0  0  0  0  0
   -1.2109    5.7665  -19.2270 C   0  0  0  0  0  0  0  0  0  0  0  0
   -0.0971    6.3496  -19.6464 F   0  0  0  0  0  0  0  0  0  0  0  0
   -1.2834    5.4319  -17.8817 C   0  0  0  0  0  0  0  0  0  0  0  0
   -0.2626    5.7075  -17.0584 F   0  0  0  0  0  0  0  0  0  0  0  0
   -2.3888    4.7811  -17.3925 C   0  0  0  0  0  0  0  0  0  0  0  0
   -3.4161    4.5138  -18.2749 C   0  0  0  0  0  0  0  0  0  0  0  0
   -3.4101    5.0434  -19.6021 C   0  0  0  0  0  0  0  0  0  0  0  0
   -4.5401    5.1237  -20.4383 C   0  0  0  0  0  0  0  0  0  0  0  0
   -5.8273    4.7329  -19.8773 C   0  0  0  0  0  0  0  0  0  0  0  0
   -6.4753    3.9518  -20.4619 O   0  0  0  0  0  0  0  0  0  0  0  0
   -6.0558    5.3960  -18.4837 N   0  0  0  0  0  0  0  0  0  0  0  0
   -7.0339    5.1700  -17.5310 C   0  0  0  0  0  0  0  0  0  0  0  0
   -6.7494    5.4408  -16.1834 C   0  0  0  0  0  0  0  0  0  0  0  0
   -7.6926    5.1591  -15.1877 C   0  0  0  0  0  0  0  0  0  0  0  0
   -7.5833    5.6242  -13.7362 C   0  0  0  0  0  0  0  0  0  0  0  0
   -7.8826    4.4818  -12.7519 C   0  0  0  0  0  0  0  0  0  0  0  0
   -8.6219    6.7293  -13.5208 C   0  0  0  0  0  0  0  0  0  0  0  0
   -6.2244    6.2385  -13.3779 C   0  0  0  0  0  0  0  0  0  0  0  0
   -8.8705    4.5283  -15.5867 C   0  0  0  0  0  0  0  0  0  0  0  0
   -9.1828    4.4070  -16.9323 C   0  0  0  0  0  0  0  0  0  0  0  0
  -10.4682    4.1282  -17.3218 C   0  0  0  0  0  0  0  0  0  0  0  0
  -10.8913    4.4492  -18.5731 C   0  0  0  0  0  0  0  0  0  0  0  0
   -9.9315    4.7443  -19.4901 C   0  0  0  0  0  0  0  0  0  0  0  0
   -8.6394    4.8036  -19.1935 N   0  0  0  0  0  0  0  0  0  0  0  0
   -8.2768    4.7348  -17.9200 C   0  0  0  0  0  0  0  0  0  0  0  0
   -4.4860    5.6064  -21.7412 C   0  0  0  0  0  0  0  0  0  0  0  0
   -5.5915    5.7462  -22.5302 O   0  0  0  0  0  0  0  0  0  0  0  0
  1  2  1  0
  2  3  2  0
  3  4  1  0
  4  5  2  0
  5  6  1  0
  5  7  1  0
  7  8  1  0
  7  9  2  0
  9 10  1  0
 10 11  2  0
 11 12  1  0
 12 13  1  0
 13 14  2  0
 13 15  1  0
 15 16  1  0
 16 17  2  0
 17 18  1  0
 18 19  1  0
 19 20  1  0
 19 21  1  0
 19 22  1  0
 18 23  2  0
 23 24  1  0
 24 25  2  0
 25 26  1  0
 26 27  2  0
 27 28  1  0
 28 29  2  0
 12 30  2  0
 30 31  1  0
 30  2  1  0
 11  4  1  0
 29 16  1  0
 29 24  1  0
M  END
>  <energy_score>  (954) 
-27.976676

>  <alias>  (954) 
None

>  <HIPPO Pose ID>  (954) 
70388

>  <smiles>  (954) 
Cc1nc2c(F)c(F)ccc2c(C(=O)Nc2cc(C(C)(C)C)cc3cccnc23)c1O

>  <inchikey>  (954) 
DPWYRJBYIBMZHR-UHFFFAOYSA-N

>  <distance_score>  (954) 
1.553176

>  <ref_mols>  (954) 
Z0917a,Z0852a

>  <ref_pdb>  (954) 
Z0852a

>  <HIPPO Compound ID>  (954) 
142375

>  <name>  (954) 
P70388

>  <inspiration_score>  (954) 
None

$$$$
P70389
     RDKit          3D

 31 35  0  0  0  0  0  0  0  0999 V2000
   -5.8409    4.1229  -20.4567 O   0  0  0  0  0  0  0  0  0  0  0  0
   -5.2515    4.9099  -19.8200 C   0  0  0  0  0  0  0  0  0  0  0  0
   -5.5616    5.5086  -18.4120 N   0  0  0  0  0  0  0  0  0  0  0  0
   -6.5803    5.1968  -17.4897 C   0  0  0  0  0  0  0  0  0  0  0  0
   -6.3750    5.5321  -16.1349 C   0  0  0  0  0  0  0  0  0  0  0  0
   -7.3642    5.2827  -15.1630 C   0  0  0  0  0  0  0  0  0  0  0  0
   -7.2735    5.7817  -13.7464 C   0  0  0  0  0  0  0  0  0  0  0  0
   -7.1815    7.1415  -13.6969 F   0  0  0  0  0  0  0  0  0  0  0  0
   -8.3667    5.4741  -12.9886 F   0  0  0  0  0  0  0  0  0  0  0  0
   -6.1968    5.3006  -13.0774 F   0  0  0  0  0  0  0  0  0  0  0  0
   -8.5336    4.6520  -15.5483 C   0  0  0  0  0  0  0  0  0  0  0  0
   -8.7748    4.4508  -16.8914 C   0  0  0  0  0  0  0  0  0  0  0  0
  -10.0669    4.1647  -17.2467 C   0  0  0  0  0  0  0  0  0  0  0  0
  -10.4638    4.3296  -18.5366 C   0  0  0  0  0  0  0  0  0  0  0  0
   -9.4768    4.4841  -19.4685 C   0  0  0  0  0  0  0  0  0  0  0  0
   -8.1757    4.6013  -19.1681 N   0  0  0  0  0  0  0  0  0  0  0  0
   -7.8207    4.6973  -17.8887 C   0  0  0  0  0  0  0  0  0  0  0  0
   -3.9712    5.4206  -20.3745 C   0  0  0  0  0  0  0  0  0  0  0  0
   -2.8085    5.3135  -19.6327 C   0  0  0  0  0  0  0  0  0  0  0  0
   -1.6225    5.7111  -20.2302 C   0  0  0  0  0  0  0  0  0  0  0  0
   -1.5018    6.1864  -21.4730 N   0  0  0  0  0  0  0  0  0  0  0  0
   -2.6233    6.3083  -22.1856 C   0  0  0  0  0  0  0  0  0  0  0  0
   -2.4917    6.8527  -23.4536 C   0  0  0  0  0  0  0  0  0  0  0  0
   -3.5978    7.1182  -24.2557 C   0  0  0  0  0  0  0  0  0  0  0  0
   -4.8633    6.8204  -23.7789 C   0  0  0  0  0  0  0  0  0  0  0  0
   -6.2294    7.2204  -24.7391 Cl  0  0  0  0  0  0  0  0  0  0  0  0
   -5.0196    6.2283  -22.5251 C   0  0  0  0  0  0  0  0  0  0  0  0
   -3.9059    5.9621  -21.6924 C   0  0  0  0  0  0  0  0  0  0  0  0
   -0.4646    5.6104  -19.2772 C   0  0  0  0  0  0  0  0  0  0  0  0
   -1.2365    5.5991  -17.9577 C   0  0  0  0  0  0  0  0  0  0  0  0
   -2.5203    4.8048  -18.2569 C   0  0  0  0  0  0  0  0  0  0  0  0
  1  2  2  0
  2  3  1  0
  3  4  1  0
  4  5  2  0
  5  6  1  0
  6  7  1  0
  7  8  1  0
  7  9  1  0
  7 10  1  0
  6 11  2  0
 11 12  1  0
 12 13  2  0
 13 14  1  0
 14 15  2  0
 15 16  1  0
 16 17  2  0
  2 18  1  0
 18 19  2  0
 19 20  1  0
 20 21  2  0
 21 22  1  0
 22 23  2  0
 23 24  1  0
 24 25  2  0
 25 26  1  0
 25 27  1  0
 27 28  2  0
 20 29  1  0
 29 30  1  0
 30 31  1  0
 17  4  1  0
 28 18  1  0
 17 12  1  0
 31 19  1  0
 28 22  1  0
M  END
>  <energy_score>  (955) 
-8.316071

>  <alias>  (955) 
None

>  <HIPPO Pose ID>  (955) 
70389

>  <smiles>  (955) 
O=C(Nc1cc(C(F)(F)F)cc2cccnc12)c1c2c(nc3ccc(Cl)cc13)CCC2

>  <inchikey>  (955) 
HGWRXVLBQQFPGK-UHFFFAOYSA-N

>  <distance_score>  (955) 
1.118393

>  <ref_mols>  (955) 
Z0917a,Z0852a

>  <ref_pdb>  (955) 
Z0852a

>  <HIPPO Compound ID>  (955) 
142376

>  <name>  (955) 
P70389

>  <inspiration_score>  (955) 
None

$$$$
P70390
     RDKit          3D

 31 35  0  0  0  0  0  0  0  0999 V2000
   -6.0982    4.8400  -13.2661 C   0  0  0  0  0  0  0  0  0  0  0  0
   -7.2310    5.7004  -13.8117 C   0  0  0  0  0  0  0  0  0  0  0  0
   -8.4664    5.4851  -12.9062 C   0  0  0  0  0  0  0  0  0  0  0  0
   -6.8716    7.1925  -13.7053 C   0  0  0  0  0  0  0  0  0  0  0  0
   -7.4235    5.2913  -15.2690 C   0  0  0  0  0  0  0  0  0  0  0  0
   -6.4253    5.4859  -16.2502 C   0  0  0  0  0  0  0  0  0  0  0  0
   -6.6108    5.1215  -17.5993 C   0  0  0  0  0  0  0  0  0  0  0  0
   -5.5301    5.3586  -18.4714 N   0  0  0  0  0  0  0  0  0  0  0  0
   -5.2695    4.8499  -19.9223 C   0  0  0  0  0  0  0  0  0  0  0  0
   -5.8755    4.0957  -20.5827 O   0  0  0  0  0  0  0  0  0  0  0  0
   -3.9903    5.3837  -20.4666 C   0  0  0  0  0  0  0  0  0  0  0  0
   -2.8259    5.2850  -19.7223 C   0  0  0  0  0  0  0  0  0  0  0  0
   -1.6431    5.7015  -20.3143 C   0  0  0  0  0  0  0  0  0  0  0  0
   -1.5258    6.1909  -21.5519 N   0  0  0  0  0  0  0  0  0  0  0  0
   -2.6484    6.3130  -22.2619 C   0  0  0  0  0  0  0  0  0  0  0  0
   -2.5205    6.8782  -23.5212 C   0  0  0  0  0  0  0  0  0  0  0  0
   -3.6281    7.1488  -24.3195 C   0  0  0  0  0  0  0  0  0  0  0  0
   -4.8915    6.8359  -23.8473 C   0  0  0  0  0  0  0  0  0  0  0  0
   -6.2604    7.2423  -24.8009 Cl  0  0  0  0  0  0  0  0  0  0  0  0
   -5.0435    6.2231  -22.6030 C   0  0  0  0  0  0  0  0  0  0  0  0
   -3.9284    5.9484  -21.7748 C   0  0  0  0  0  0  0  0  0  0  0  0
   -0.4846    5.6074  -19.3617 C   0  0  0  0  0  0  0  0  0  0  0  0
   -1.2565    5.5818  -18.0438 C   0  0  0  0  0  0  0  0  0  0  0  0
   -2.5307    4.7737  -18.3472 C   0  0  0  0  0  0  0  0  0  0  0  0
   -7.8544    4.6503  -18.0003 C   0  0  0  0  0  0  0  0  0  0  0  0
   -8.1920    4.5156  -19.2782 N   0  0  0  0  0  0  0  0  0  0  0  0
   -9.4955    4.4740  -19.5819 C   0  0  0  0  0  0  0  0  0  0  0  0
  -10.5016    4.4089  -18.6604 C   0  0  0  0  0  0  0  0  0  0  0  0
  -10.1302    4.2275  -17.3700 C   0  0  0  0  0  0  0  0  0  0  0  0
   -8.8313    4.4701  -17.0105 C   0  0  0  0  0  0  0  0  0  0  0  0
   -8.6023    4.6928  -15.6699 C   0  0  0  0  0  0  0  0  0  0  0  0
  1  2  1  0
  2  3  1  0
  2  4  1  0
  2  5  1  0
  5  6  2  0
  6  7  1  0
  7  8  1  0
  8  9  1  0
  9 10  2  0
  9 11  1  0
 11 12  2  0
 12 13  1  0
 13 14  2  0
 14 15  1  0
 15 16  2  0
 16 17  1  0
 17 18  2  0
 18 19  1  0
 18 20  1  0
 20 21  2  0
 13 22  1  0
 22 23  1  0
 23 24  1  0
  7 25  2  0
 25 26  1  0
 26 27  2  0
 27 28  1  0
 28 29  2  0
 29 30  1  0
 30 31  2  0
 31  5  1  0
 21 11  1  0
 30 25  1  0
 24 12  1  0
 21 15  1  0
M  END
>  <energy_score>  (956) 
-13.780094

>  <alias>  (956) 
None

>  <HIPPO Pose ID>  (956) 
70390

>  <smiles>  (956) 
CC(C)(C)c1cc(NC(=O)c2c3c(nc4ccc(Cl)cc24)CCC3)c2ncccc2c1

>  <inchikey>  (956) 
IROWQKMMAKZTMZ-UHFFFAOYSA-N

>  <distance_score>  (956) 
1.448993

>  <ref_mols>  (956) 
Z0917a,Z0852a

>  <ref_pdb>  (956) 
Z0852a

>  <HIPPO Compound ID>  (956) 
142377

>  <name>  (956) 
P70390

>  <inspiration_score>  (956) 
None

$$$$
P70391
     RDKit          3D

 31 35  0  0  0  0  0  0  0  0999 V2000
   -5.9140    3.9641  -20.3216 O   0  0  0  0  0  0  0  0  0  0  0  0
   -5.2911    4.7293  -19.6908 C   0  0  0  0  0  0  0  0  0  0  0  0
   -5.5891    5.3739  -18.3053 N   0  0  0  0  0  0  0  0  0  0  0  0
   -6.6332    5.1433  -17.4010 C   0  0  0  0  0  0  0  0  0  0  0  0
   -6.4361    5.4866  -16.0516 C   0  0  0  0  0  0  0  0  0  0  0  0
   -7.4442    5.2600  -15.0982 C   0  0  0  0  0  0  0  0  0  0  0  0
   -7.3539    5.7584  -13.6827 C   0  0  0  0  0  0  0  0  0  0  0  0
   -8.4515    5.4580  -12.9298 F   0  0  0  0  0  0  0  0  0  0  0  0
   -6.2817    5.2721  -13.0105 F   0  0  0  0  0  0  0  0  0  0  0  0
   -7.2538    7.1179  -13.6355 F   0  0  0  0  0  0  0  0  0  0  0  0
   -8.6197    4.6475  -15.5011 C   0  0  0  0  0  0  0  0  0  0  0  0
   -8.8484    4.4473  -16.8490 C   0  0  0  0  0  0  0  0  0  0  0  0
  -10.1322    4.1658  -17.2386 C   0  0  0  0  0  0  0  0  0  0  0  0
  -10.5076    4.3486  -18.5328 C   0  0  0  0  0  0  0  0  0  0  0  0
   -9.5059    4.5132  -19.4444 C   0  0  0  0  0  0  0  0  0  0  0  0
   -8.2121    4.6186  -19.1154 N   0  0  0  0  0  0  0  0  0  0  0  0
   -7.8785    4.6837  -17.8263 C   0  0  0  0  0  0  0  0  0  0  0  0
   -4.0174    5.1973  -20.2963 C   0  0  0  0  0  0  0  0  0  0  0  0
   -4.0771    5.3934  -21.6808 C   0  0  0  0  0  0  0  0  0  0  0  0
   -2.9558    5.8212  -22.3625 C   0  0  0  0  0  0  0  0  0  0  0  0
   -2.9705    6.0081  -23.8593 C   0  0  0  0  0  0  0  0  0  0  0  0
   -2.5717    7.3405  -24.4512 C   0  0  0  0  0  0  0  0  0  0  0  0
   -4.0018    6.8967  -24.5181 C   0  0  0  0  0  0  0  0  0  0  0  0
   -1.8122    6.0817  -21.6923 N   0  0  0  0  0  0  0  0  0  0  0  0
   -1.7431    5.8982  -20.3659 C   0  0  0  0  0  0  0  0  0  0  0  0
   -0.5541    6.2443  -19.7384 C   0  0  0  0  0  0  0  0  0  0  0  0
   -0.3971    6.1667  -18.3542 C   0  0  0  0  0  0  0  0  0  0  0  0
   -1.4332    5.6636  -17.5868 C   0  0  0  0  0  0  0  0  0  0  0  0
   -1.3017    5.6385  -15.8707 Cl  0  0  0  0  0  0  0  0  0  0  0  0
   -2.6014    5.2157  -18.1997 C   0  0  0  0  0  0  0  0  0  0  0  0
   -2.8143    5.4158  -19.5910 C   0  0  0  0  0  0  0  0  0  0  0  0
  1  2  2  0
  2  3  1  0
  3  4  1  0
  4  5  2  0
  5  6  1  0
  6  7  1  0
  7  8  1  0
  7  9  1  0
  7 10  1  0
  6 11  2  0
 11 12  1  0
 12 13  2  0
 13 14  1  0
 14 15  2  0
 15 16  1  0
 16 17  2  0
  2 18  1  0
 18 19  2  0
 19 20  1  0
 20 21  1  0
 21 22  1  0
 22 23  1  0
 20 24  2  0
 24 25  1  0
 25 26  2  0
 26 27  1  0
 27 28  2  0
 28 29  1  0
 28 30  1  0
 30 31  2  0
 17  4  1  0
 31 18  1  0
 17 12  1  0
 23 21  1  0
 31 25  1  0
M  END
>  <energy_score>  (957) 
-4.378339

>  <alias>  (957) 
None

>  <HIPPO Pose ID>  (957) 
70391

>  <smiles>  (957) 
O=C(Nc1cc(C(F)(F)F)cc2cccnc12)c1cc(C2CC2)nc2ccc(Cl)cc12

>  <inchikey>  (957) 
GYPDLELRDIUXPM-UHFFFAOYSA-N

>  <distance_score>  (957) 
1.067267

>  <ref_mols>  (957) 
Z0917a,Z0852a

>  <ref_pdb>  (957) 
Z0852a

>  <HIPPO Compound ID>  (957) 
142378

>  <name>  (957) 
P70391

>  <inspiration_score>  (957) 
None

$$$$
P70392
     RDKit          3D

 31 35  0  0  0  0  0  0  0  0999 V2000
   -6.1025    6.2907  -13.2760 C   0  0  0  0  0  0  0  0  0  0  0  0
   -7.4457    5.6848  -13.6948 C   0  0  0  0  0  0  0  0  0  0  0  0
   -8.4809    6.8077  -13.5682 C   0  0  0  0  0  0  0  0  0  0  0  0
   -7.8196    4.5733  -12.6980 C   0  0  0  0  0  0  0  0  0  0  0  0
   -7.4739    5.1804  -15.1376 C   0  0  0  0  0  0  0  0  0  0  0  0
   -6.4690    5.4095  -16.0938 C   0  0  0  0  0  0  0  0  0  0  0  0
   -6.6686    5.0940  -17.4524 C   0  0  0  0  0  0  0  0  0  0  0  0
   -5.6344    5.3601  -18.3587 N   0  0  0  0  0  0  0  0  0  0  0  0
   -5.3104    4.7182  -19.7384 C   0  0  0  0  0  0  0  0  0  0  0  0
   -5.9014    3.9237  -20.3634 O   0  0  0  0  0  0  0  0  0  0  0  0
   -4.0358    5.1992  -20.3291 C   0  0  0  0  0  0  0  0  0  0  0  0
   -4.0921    5.4139  -21.7104 C   0  0  0  0  0  0  0  0  0  0  0  0
   -2.9701    5.8548  -22.3821 C   0  0  0  0  0  0  0  0  0  0  0  0
   -2.9806    6.0574  -23.8769 C   0  0  0  0  0  0  0  0  0  0  0  0
   -2.5856    7.3974  -24.4538 C   0  0  0  0  0  0  0  0  0  0  0  0
   -4.0137    6.9485  -24.5295 C   0  0  0  0  0  0  0  0  0  0  0  0
   -1.8306    6.1144  -21.7042 N   0  0  0  0  0  0  0  0  0  0  0  0
   -1.7656    5.9132  -20.3798 C   0  0  0  0  0  0  0  0  0  0  0  0
   -0.5829    6.2619  -19.7418 C   0  0  0  0  0  0  0  0  0  0  0  0
   -0.4328    6.1695  -18.3577 C   0  0  0  0  0  0  0  0  0  0  0  0
   -1.4668    5.6441  -17.6025 C   0  0  0  0  0  0  0  0  0  0  0  0
   -1.3485    5.6080  -15.8853 Cl  0  0  0  0  0  0  0  0  0  0  0  0
   -2.6245    5.1873  -18.2280 C   0  0  0  0  0  0  0  0  0  0  0  0
   -2.8356    5.4108  -19.6162 C   0  0  0  0  0  0  0  0  0  0  0  0
   -7.9116    4.6459  -17.8897 C   0  0  0  0  0  0  0  0  0  0  0  0
   -8.2436    4.5981  -19.1798 N   0  0  0  0  0  0  0  0  0  0  0  0
   -9.5410    4.5370  -19.5037 C   0  0  0  0  0  0  0  0  0  0  0  0
  -10.5483    4.3971  -18.5947 C   0  0  0  0  0  0  0  0  0  0  0  0
  -10.1771    4.1692  -17.3089 C   0  0  0  0  0  0  0  0  0  0  0  0
   -8.8827    4.4042  -16.9210 C   0  0  0  0  0  0  0  0  0  0  0  0
   -8.6457    4.5706  -15.5726 C   0  0  0  0  0  0  0  0  0  0  0  0
  1  2  1  0
  2  3  1  0
  2  4  1  0
  2  5  1  0
  5  6  2  0
  6  7  1  0
  7  8  1  0
  8  9  1  0
  9 10  2  0
  9 11  1  0
 11 12  2  0
 12 13  1  0
 13 14  1  0
 14 15  1  0
 15 16  1  0
 13 17  2  0
 17 18  1  0
 18 19  2  0
 19 20  1  0
 20 21  2  0
 21 22  1  0
 21 23  1  0
 23 24  2  0
  7 25  2  0
 25 26  1  0
 26 27  2  0
 27 28  1  0
 28 29  2  0
 29 30  1  0
 30 31  2  0
 31  5  1  0
 24 11  1  0
 30 25  1  0
 16 14  1  0
 24 18  1  0
M  END
>  <energy_score>  (958) 
-15.26602

>  <alias>  (958) 
None

>  <HIPPO Pose ID>  (958) 
70392

>  <smiles>  (958) 
CC(C)(C)c1cc(NC(=O)c2cc(C3CC3)nc3ccc(Cl)cc23)c2ncccc2c1

>  <inchikey>  (958) 
SOUCJILWLIRZRL-UHFFFAOYSA-N

>  <distance_score>  (958) 
1.479907

>  <ref_mols>  (958) 
Z0917a,Z0852a

>  <ref_pdb>  (958) 
Z0852a

>  <HIPPO Compound ID>  (958) 
142379

>  <name>  (958) 
P70392

>  <inspiration_score>  (958) 
None

$$$$
P70393
     RDKit          3D

 31 35  0  0  0  0  0  0  0  0999 V2000
   -6.5562    5.0535  -11.4186 C   0  0  0  0  0  0  0  0  0  0  0  0
   -7.0245    4.9235  -12.7612 O   0  0  0  0  0  0  0  0  0  0  0  0
   -6.1036    5.2401  -13.7036 C   0  0  0  0  0  0  0  0  0  0  0  0
   -4.9676    5.6365  -13.4929 O   0  0  0  0  0  0  0  0  0  0  0  0
   -6.6644    5.0628  -15.0682 C   0  0  0  0  0  0  0  0  0  0  0  0
   -5.8627    5.3893  -16.1625 C   0  0  0  0  0  0  0  0  0  0  0  0
   -6.3192    5.1912  -17.4738 C   0  0  0  0  0  0  0  0  0  0  0  0
   -5.3878    5.4282  -18.4838 N   0  0  0  0  0  0  0  0  0  0  0  0
   -5.2333    4.7796  -19.8832 C   0  0  0  0  0  0  0  0  0  0  0  0
   -5.9082    4.0016  -20.4367 O   0  0  0  0  0  0  0  0  0  0  0  0
   -3.9868    5.2229  -20.5617 C   0  0  0  0  0  0  0  0  0  0  0  0
   -4.1258    5.4454  -21.9321 C   0  0  0  0  0  0  0  0  0  0  0  0
   -3.0375    5.8728  -22.6650 C   0  0  0  0  0  0  0  0  0  0  0  0
   -3.1307    6.0929  -24.1550 C   0  0  0  0  0  0  0  0  0  0  0  0
   -2.7949    7.4490  -24.7321 C   0  0  0  0  0  0  0  0  0  0  0  0
   -4.2144    6.9675  -24.7450 C   0  0  0  0  0  0  0  0  0  0  0  0
   -1.8549    6.1091  -22.0560 N   0  0  0  0  0  0  0  0  0  0  0  0
   -1.7149    5.9097  -20.7359 C   0  0  0  0  0  0  0  0  0  0  0  0
   -0.4981    6.2549  -20.1676 C   0  0  0  0  0  0  0  0  0  0  0  0
   -0.2725    6.1789  -18.7930 C   0  0  0  0  0  0  0  0  0  0  0  0
   -1.2577    5.6651  -17.9586 C   0  0  0  0  0  0  0  0  0  0  0  0
   -1.0739    5.6809  -16.4687 C   0  0  0  0  0  0  0  0  0  0  0  0
   -2.4512    5.2131  -18.5334 C   0  0  0  0  0  0  0  0  0  0  0  0
   -2.7426    5.4223  -19.9134 C   0  0  0  0  0  0  0  0  0  0  0  0
   -7.6243    4.7736  -17.7238 C   0  0  0  0  0  0  0  0  0  0  0  0
   -8.1389    4.7539  -18.9583 N   0  0  0  0  0  0  0  0  0  0  0  0
   -9.4443    4.4956  -19.1254 C   0  0  0  0  0  0  0  0  0  0  0  0
  -10.2877    4.1817  -18.0919 C   0  0  0  0  0  0  0  0  0  0  0  0
   -9.7404    4.1273  -16.8279 C   0  0  0  0  0  0  0  0  0  0  0  0
   -8.4241    4.4805  -16.6108 C   0  0  0  0  0  0  0  0  0  0  0  0
   -7.9492    4.5825  -15.2987 C   0  0  0  0  0  0  0  0  0  0  0  0
  1  2  1  0
  2  3  1  0
  3  4  2  0
  3  5  1  0
  5  6  2  0
  6  7  1  0
  7  8  1  0
  8  9  1  0
  9 10  2  0
  9 11  1  0
 11 12  2  0
 12 13  1  0
 13 14  1  0
 14 15  1  0
 15 16  1  0
 13 17  2  0
 17 18  1  0
 18 19  2  0
 19 20  1  0
 20 21  2  0
 21 22  1  0
 21 23  1  0
 23 24  2  0
  7 25  2  0
 25 26  1  0
 26 27  2  0
 27 28  1  0
 28 29  2  0
 29 30  1  0
 30 31  2  0
 31  5  1  0
 24 11  1  0
 30 25  1  0
 16 14  1  0
 24 18  1  0
M  END
>  <energy_score>  (959) 
-17.393804

>  <alias>  (959) 
None

>  <HIPPO Pose ID>  (959) 
70393

>  <smiles>  (959) 
COC(=O)c1cc(NC(=O)c2cc(C3CC3)nc3ccc(C)cc23)c2ncccc2c1

>  <inchikey>  (959) 
SEAMDHYRLQDGSS-UHFFFAOYSA-N

>  <distance_score>  (959) 
1.473811

>  <ref_mols>  (959) 
Z0917a,Z0852a

>  <ref_pdb>  (959) 
Z0852a

>  <HIPPO Compound ID>  (959) 
142380

>  <name>  (959) 
P70393

>  <inspiration_score>  (959) 
None

$$$$
P70394
     RDKit          3D

 31 35  0  0  0  0  0  0  0  0999 V2000
   -1.4189    5.5509  -16.2102 C   0  0  0  0  0  0  0  0  0  0  0  0
   -1.5075    5.5834  -17.7080 C   0  0  0  0  0  0  0  0  0  0  0  0
   -0.4744    6.1210  -18.4670 C   0  0  0  0  0  0  0  0  0  0  0  0
   -0.6091    6.2199  -19.8529 C   0  0  0  0  0  0  0  0  0  0  0  0
   -1.7819    5.8738  -20.5075 C   0  0  0  0  0  0  0  0  0  0  0  0
   -1.8359    6.0835  -21.8328 N   0  0  0  0  0  0  0  0  0  0  0  0
   -2.9738    5.8403  -22.5200 C   0  0  0  0  0  0  0  0  0  0  0  0
   -2.9732    6.0612  -24.0125 C   0  0  0  0  0  0  0  0  0  0  0  0
   -3.9936    6.9699  -24.6606 C   0  0  0  0  0  0  0  0  0  0  0  0
   -2.5618    7.4043  -24.5705 C   0  0  0  0  0  0  0  0  0  0  0  0
   -4.1047    5.4022  -21.8615 C   0  0  0  0  0  0  0  0  0  0  0  0
   -4.0546    5.1691  -20.4864 C   0  0  0  0  0  0  0  0  0  0  0  0
   -5.3386    4.7107  -19.8940 C   0  0  0  0  0  0  0  0  0  0  0  0
   -5.9726    3.9397  -20.5047 O   0  0  0  0  0  0  0  0  0  0  0  0
   -5.6042    5.3596  -18.5087 N   0  0  0  0  0  0  0  0  0  0  0  0
   -6.6216    5.1297  -17.5792 C   0  0  0  0  0  0  0  0  0  0  0  0
   -6.3496    5.4724  -16.2459 C   0  0  0  0  0  0  0  0  0  0  0  0
   -7.2868    5.2702  -15.2170 C   0  0  0  0  0  0  0  0  0  0  0  0
   -7.0740    5.7235  -13.7756 C   0  0  0  0  0  0  0  0  0  0  0  0
   -8.1701    6.7173  -13.3380 C   0  0  0  0  0  0  0  0  0  0  0  0
   -5.7406    6.4468  -13.6061 C   0  0  0  0  0  0  0  0  0  0  0  0
   -7.0776    4.5121  -12.8321 C   0  0  0  0  0  0  0  0  0  0  0  0
   -8.4868    4.6633  -15.5590 C   0  0  0  0  0  0  0  0  0  0  0  0
   -8.7921    4.4499  -16.8934 C   0  0  0  0  0  0  0  0  0  0  0  0
  -10.0925    4.1560  -17.2093 C   0  0  0  0  0  0  0  0  0  0  0  0
  -10.5383    4.3275  -18.4850 C   0  0  0  0  0  0  0  0  0  0  0  0
   -9.5877    4.5142  -19.4495 C   0  0  0  0  0  0  0  0  0  0  0  0
   -8.2774    4.6019  -19.1967 N   0  0  0  0  0  0  0  0  0  0  0  0
   -7.8810    4.6732  -17.9284 C   0  0  0  0  0  0  0  0  0  0  0  0
   -2.8578    5.3702  -19.7593 C   0  0  0  0  0  0  0  0  0  0  0  0
   -2.6599    5.1420  -18.3669 C   0  0  0  0  0  0  0  0  0  0  0  0
  1  2  1  0
  2  3  2  0
  3  4  1  0
  4  5  2  0
  5  6  1  0
  6  7  2  0
  7  8  1  0
  8  9  1  0
  9 10  1  0
  7 11  1  0
 11 12  2  0
 12 13  1  0
 13 14  2  0
 13 15  1  0
 15 16  1  0
 16 17  2  0
 17 18  1  0
 18 19  1  0
 19 20  1  0
 19 21  1  0
 19 22  1  0
 18 23  2  0
 23 24  1  0
 24 25  2  0
 25 26  1  0
 26 27  2  0
 27 28  1  0
 28 29  2  0
 12 30  1  0
 30 31  2  0
 31  2  1  0
 30  5  1  0
 10  8  1  0
 29 16  1  0
 29 24  1  0
M  END
>  <energy_score>  (960) 
-25.579572

>  <alias>  (960) 
None

>  <HIPPO Pose ID>  (960) 
70394

>  <smiles>  (960) 
Cc1ccc2nc(C3CC3)cc(C(=O)Nc3cc(C(C)(C)C)cc4cccnc34)c2c1

>  <inchikey>  (960) 
XAFXJBOJWBVVKX-UHFFFAOYSA-N

>  <distance_score>  (960) 
1.278924

>  <ref_mols>  (960) 
Z0917a,Z0852a

>  <ref_pdb>  (960) 
Z0852a

>  <HIPPO Compound ID>  (960) 
142382

>  <name>  (960) 
P70394

>  <inspiration_score>  (960) 
None

$$$$
P70395
     RDKit          3D

 31 35  0  0  0  0  0  0  0  0999 V2000
   -5.9467    3.9755  -20.3911 O   0  0  0  0  0  0  0  0  0  0  0  0
   -5.3092    4.7231  -19.7526 C   0  0  0  0  0  0  0  0  0  0  0  0
   -5.5863    5.3449  -18.3493 N   0  0  0  0  0  0  0  0  0  0  0  0
   -6.6240    5.1063  -17.4367 C   0  0  0  0  0  0  0  0  0  0  0  0
   -6.4186    5.4481  -16.0868 C   0  0  0  0  0  0  0  0  0  0  0  0
   -7.4251    5.2340  -15.1274 C   0  0  0  0  0  0  0  0  0  0  0  0
   -7.3300    5.7404  -13.7143 C   0  0  0  0  0  0  0  0  0  0  0  0
   -6.2540    5.2611  -13.0432 F   0  0  0  0  0  0  0  0  0  0  0  0
   -8.4237    5.4413  -12.9546 F   0  0  0  0  0  0  0  0  0  0  0  0
   -7.2341    7.1006  -13.6740 F   0  0  0  0  0  0  0  0  0  0  0  0
   -8.6079    4.6318  -15.5235 C   0  0  0  0  0  0  0  0  0  0  0  0
   -8.8444    4.4328  -16.8698 C   0  0  0  0  0  0  0  0  0  0  0  0
  -10.1341    4.1668  -17.2508 C   0  0  0  0  0  0  0  0  0  0  0  0
  -10.5156    4.3575  -18.5419 C   0  0  0  0  0  0  0  0  0  0  0  0
   -9.5171    4.5122  -19.4587 C   0  0  0  0  0  0  0  0  0  0  0  0
   -8.2199    4.5976  -19.1386 N   0  0  0  0  0  0  0  0  0  0  0  0
   -7.8767    4.6587  -17.8527 C   0  0  0  0  0  0  0  0  0  0  0  0
   -4.0526    5.2193  -20.3693 C   0  0  0  0  0  0  0  0  0  0  0  0
   -4.1426    5.5029  -21.7372 C   0  0  0  0  0  0  0  0  0  0  0  0
   -3.0373    5.9847  -22.4123 C   0  0  0  0  0  0  0  0  0  0  0  0
   -3.1140    6.3052  -23.8895 C   0  0  0  0  0  0  0  0  0  0  0  0
   -2.5322    5.3299  -24.8874 C   0  0  0  0  0  0  0  0  0  0  0  0
   -1.8722    6.6588  -24.6768 C   0  0  0  0  0  0  0  0  0  0  0  0
   -1.8832    6.2107  -21.7449 N   0  0  0  0  0  0  0  0  0  0  0  0
   -1.7818    5.9315  -20.4386 C   0  0  0  0  0  0  0  0  0  0  0  0
   -0.5760    6.2300  -19.8177 C   0  0  0  0  0  0  0  0  0  0  0  0
   -0.3854    6.0391  -18.4511 C   0  0  0  0  0  0  0  0  0  0  0  0
   -1.4079    5.4821  -17.7086 C   0  0  0  0  0  0  0  0  0  0  0  0
   -1.2492    5.3013  -16.3913 F   0  0  0  0  0  0  0  0  0  0  0  0
   -2.5992    5.0999  -18.3110 C   0  0  0  0  0  0  0  0  0  0  0  0
   -2.8372    5.3954  -19.6771 C   0  0  0  0  0  0  0  0  0  0  0  0
  1  2  2  0
  2  3  1  0
  3  4  1  0
  4  5  2  0
  5  6  1  0
  6  7  1  0
  7  8  1  0
  7  9  1  0
  7 10  1  0
  6 11  2  0
 11 12  1  0
 12 13  2  0
 13 14  1  0
 14 15  2  0
 15 16  1  0
 16 17  2  0
  2 18  1  0
 18 19  2  0
 19 20  1  0
 20 21  1  0
 21 22  1  0
 22 23  1  0
 20 24  2  0
 24 25  1  0
 25 26  2  0
 26 27  1  0
 27 28  2  0
 28 29  1  0
 28 30  1  0
 30 31  2  0
 17  4  1  0
 31 18  1  0
 17 12  1  0
 23 21  1  0
 31 25  1  0
M  END
>  <energy_score>  (961) 
-11.412861

>  <alias>  (961) 
None

>  <HIPPO Pose ID>  (961) 
70395

>  <smiles>  (961) 
O=C(Nc1cc(C(F)(F)F)cc2cccnc12)c1cc(C2CC2)nc2ccc(F)cc12

>  <inchikey>  (961) 
KSDJLSQAYXPCKH-UHFFFAOYSA-N

>  <distance_score>  (961) 
1.065391

>  <ref_mols>  (961) 
Z0917a,Z0852a

>  <ref_pdb>  (961) 
Z0852a

>  <HIPPO Compound ID>  (961) 
142384

>  <name>  (961) 
P70395

>  <inspiration_score>  (961) 
None

$$$$
P70396
     RDKit          3D

 31 35  0  0  0  0  0  0  0  0999 V2000
   -7.0213    4.5045  -12.8577 C   0  0  0  0  0  0  0  0  0  0  0  0
   -7.0383    5.7138  -13.8039 C   0  0  0  0  0  0  0  0  0  0  0  0
   -5.7126    6.4534  -13.6480 C   0  0  0  0  0  0  0  0  0  0  0  0
   -8.1417    6.6964  -13.3573 C   0  0  0  0  0  0  0  0  0  0  0  0
   -7.2576    5.2544  -15.2431 C   0  0  0  0  0  0  0  0  0  0  0  0
   -6.3293    5.4586  -16.2817 C   0  0  0  0  0  0  0  0  0  0  0  0
   -6.6198    5.1303  -17.6155 C   0  0  0  0  0  0  0  0  0  0  0  0
   -5.6299    5.3879  -18.5710 N   0  0  0  0  0  0  0  0  0  0  0  0
   -5.3703    4.7332  -19.9579 C   0  0  0  0  0  0  0  0  0  0  0  0
   -5.9890    3.9329  -20.5469 O   0  0  0  0  0  0  0  0  0  0  0  0
   -4.1084    5.2139  -20.5737 C   0  0  0  0  0  0  0  0  0  0  0  0
   -4.1997    5.5325  -21.9299 C   0  0  0  0  0  0  0  0  0  0  0  0
   -3.0845    6.0074  -22.5939 C   0  0  0  0  0  0  0  0  0  0  0  0
   -3.1568    6.3630  -24.0632 C   0  0  0  0  0  0  0  0  0  0  0  0
   -2.6519    5.3727  -25.0880 C   0  0  0  0  0  0  0  0  0  0  0  0
   -1.9033    6.6506  -24.8586 C   0  0  0  0  0  0  0  0  0  0  0  0
   -1.9243    6.1983  -21.9242 N   0  0  0  0  0  0  0  0  0  0  0  0
   -1.8257    5.8918  -20.6240 C   0  0  0  0  0  0  0  0  0  0  0  0
   -0.6186    6.1670  -19.9948 C   0  0  0  0  0  0  0  0  0  0  0  0
   -0.4377    5.9596  -18.6293 C   0  0  0  0  0  0  0  0  0  0  0  0
   -1.4695    5.4037  -17.8991 C   0  0  0  0  0  0  0  0  0  0  0  0
   -1.3304    5.2291  -16.5787 F   0  0  0  0  0  0  0  0  0  0  0  0
   -2.6566    5.0315  -18.5141 C   0  0  0  0  0  0  0  0  0  0  0  0
   -2.8885    5.3544  -19.8761 C   0  0  0  0  0  0  0  0  0  0  0  0
   -7.8847    4.6765  -17.9492 C   0  0  0  0  0  0  0  0  0  0  0  0
   -8.2976    4.6151  -19.2119 N   0  0  0  0  0  0  0  0  0  0  0  0
   -9.6107    4.5268  -19.4488 C   0  0  0  0  0  0  0  0  0  0  0  0
  -10.5491    4.3277  -18.4745 C   0  0  0  0  0  0  0  0  0  0  0  0
  -10.0870    4.1511  -17.2048 C   0  0  0  0  0  0  0  0  0  0  0  0
   -8.7825    4.4435  -16.9044 C   0  0  0  0  0  0  0  0  0  0  0  0
   -8.4610    4.6480  -15.5732 C   0  0  0  0  0  0  0  0  0  0  0  0
  1  2  1  0
  2  3  1  0
  2  4  1  0
  2  5  1  0
  5  6  2  0
  6  7  1  0
  7  8  1  0
  8  9  1  0
  9 10  2  0
  9 11  1  0
 11 12  2  0
 12 13  1  0
 13 14  1  0
 14 15  1  0
 15 16  1  0
 13 17  2  0
 17 18  1  0
 18 19  2  0
 19 20  1  0
 20 21  2  0
 21 22  1  0
 21 23  1  0
 23 24  2  0
  7 25  2  0
 25 26  1  0
 26 27  2  0
 27 28  1  0
 28 29  2  0
 29 30  1  0
 30 31  2  0
 31  5  1  0
 24 11  1  0
 30 25  1  0
 16 14  1  0
 24 18  1  0
M  END
>  <energy_score>  (962) 
-9.340477

>  <alias>  (962) 
None

>  <HIPPO Pose ID>  (962) 
70396

>  <smiles>  (962) 
CC(C)(C)c1cc(NC(=O)c2cc(C3CC3)nc3ccc(F)cc23)c2ncccc2c1

>  <inchikey>  (962) 
FEDSQCQZLBDVGN-UHFFFAOYSA-N

>  <distance_score>  (962) 
1.33981

>  <ref_mols>  (962) 
Z0917a,Z0852a

>  <ref_pdb>  (962) 
Z0852a

>  <HIPPO Compound ID>  (962) 
142385

>  <name>  (962) 
P70396

>  <inspiration_score>  (962) 
None

$$$$
P70397
     RDKit          3D

 31 34  0  0  0  0  0  0  0  0999 V2000
   -2.2290    5.7005  -24.7343 C   0  0  0  0  0  0  0  0  0  0  0  0
   -3.2741    6.4380  -23.8956 C   0  0  0  0  0  0  0  0  0  0  0  0
   -3.1480    7.9510  -24.0800 C   0  0  0  0  0  0  0  0  0  0  0  0
   -3.1573    6.0699  -22.4308 C   0  0  0  0  0  0  0  0  0  0  0  0
   -4.2459    5.5848  -21.7370 C   0  0  0  0  0  0  0  0  0  0  0  0
   -4.0951    5.2737  -20.3815 C   0  0  0  0  0  0  0  0  0  0  0  0
   -5.3175    4.7392  -19.7333 C   0  0  0  0  0  0  0  0  0  0  0  0
   -5.9123    3.9319  -20.3389 O   0  0  0  0  0  0  0  0  0  0  0  0
   -5.5685    5.3219  -18.3100 N   0  0  0  0  0  0  0  0  0  0  0  0
   -6.6220    5.1059  -17.4113 C   0  0  0  0  0  0  0  0  0  0  0  0
   -6.4214    5.4377  -16.0587 C   0  0  0  0  0  0  0  0  0  0  0  0
   -7.4368    5.2310  -15.1083 C   0  0  0  0  0  0  0  0  0  0  0  0
   -7.3452    5.7319  -13.6936 C   0  0  0  0  0  0  0  0  0  0  0  0
   -6.2699    5.2512  -13.0222 F   0  0  0  0  0  0  0  0  0  0  0  0
   -8.4401    5.4294  -12.9375 F   0  0  0  0  0  0  0  0  0  0  0  0
   -7.2499    7.0921  -13.6487 F   0  0  0  0  0  0  0  0  0  0  0  0
   -8.6219    4.6406  -15.5153 C   0  0  0  0  0  0  0  0  0  0  0  0
   -8.8505    4.4456  -16.8639 C   0  0  0  0  0  0  0  0  0  0  0  0
  -10.1372    4.1777  -17.2546 C   0  0  0  0  0  0  0  0  0  0  0  0
  -10.5089    4.3642  -18.5488 C   0  0  0  0  0  0  0  0  0  0  0  0
   -9.5039    4.5164  -19.4586 C   0  0  0  0  0  0  0  0  0  0  0  0
   -8.2092    4.6098  -19.1290 N   0  0  0  0  0  0  0  0  0  0  0  0
   -7.8755    4.6710  -17.8398 C   0  0  0  0  0  0  0  0  0  0  0  0
   -2.8495    5.4356  -19.7344 C   0  0  0  0  0  0  0  0  0  0  0  0
   -2.5570    5.1168  -18.3841 C   0  0  0  0  0  0  0  0  0  0  0  0
   -1.3444    5.4943  -17.8216 C   0  0  0  0  0  0  0  0  0  0  0  0
   -1.1418    5.3100  -16.5108 F   0  0  0  0  0  0  0  0  0  0  0  0
   -0.3494    6.0598  -18.5939 C   0  0  0  0  0  0  0  0  0  0  0  0
   -0.5905    6.2685  -19.9495 C   0  0  0  0  0  0  0  0  0  0  0  0
   -1.8200    5.9818  -20.5272 C   0  0  0  0  0  0  0  0  0  0  0  0
   -1.9695    6.2819  -21.8241 N   0  0  0  0  0  0  0  0  0  0  0  0
  1  2  1  0
  2  3  1  0
  2  4  1  0
  4  5  2  0
  5  6  1  0
  6  7  1  0
  7  8  2  0
  7  9  1  0
  9 10  1  0
 10 11  2  0
 11 12  1  0
 12 13  1  0
 13 14  1  0
 13 15  1  0
 13 16  1  0
 12 17  2  0
 17 18  1  0
 18 19  2  0
 19 20  1  0
 20 21  2  0
 21 22  1  0
 22 23  2  0
  6 24  2  0
 24 25  1  0
 25 26  2  0
 26 27  1  0
 26 28  1  0
 28 29  2  0
 29 30  1  0
 30 31  2  0
 31  4  1  0
 23 10  1  0
 30 24  1  0
 23 18  1  0
M  END
>  <energy_score>  (963) 
-18.906545

>  <alias>  (963) 
None

>  <HIPPO Pose ID>  (963) 
70397

>  <smiles>  (963) 
CC(C)c1cc(C(=O)Nc2cc(C(F)(F)F)cc3cccnc23)c2cc(F)ccc2n1

>  <inchikey>  (963) 
MUHTUZOJMBSHOS-UHFFFAOYSA-N

>  <distance_score>  (963) 
0.98691

>  <ref_mols>  (963) 
Z0917a,Z0852a

>  <ref_pdb>  (963) 
Z0852a

>  <HIPPO Compound ID>  (963) 
142386

>  <name>  (963) 
P70397

>  <inspiration_score>  (963) 
None

$$$$
P70398
     RDKit          3D

 31 34  0  0  0  0  0  0  0  0999 V2000
   -2.1264    5.6072  -24.8668 C   0  0  0  0  0  0  0  0  0  0  0  0
   -3.1675    6.3825  -24.0576 C   0  0  0  0  0  0  0  0  0  0  0  0
   -2.9798    7.8899  -24.2347 C   0  0  0  0  0  0  0  0  0  0  0  0
   -3.1070    6.0073  -22.5909 C   0  0  0  0  0  0  0  0  0  0  0  0
   -4.2297    5.5464  -21.9357 C   0  0  0  0  0  0  0  0  0  0  0  0
   -4.1250    5.2200  -20.5830 C   0  0  0  0  0  0  0  0  0  0  0  0
   -5.3818    4.7361  -19.9603 C   0  0  0  0  0  0  0  0  0  0  0  0
   -6.0014    3.9342  -20.5463 O   0  0  0  0  0  0  0  0  0  0  0  0
   -5.6377    5.3921  -18.5737 N   0  0  0  0  0  0  0  0  0  0  0  0
   -6.6239    5.1346  -17.6149 C   0  0  0  0  0  0  0  0  0  0  0  0
   -6.3312    5.4623  -16.2818 C   0  0  0  0  0  0  0  0  0  0  0  0
   -7.2577    5.2564  -15.2420 C   0  0  0  0  0  0  0  0  0  0  0  0
   -7.0370    5.7156  -13.8031 C   0  0  0  0  0  0  0  0  0  0  0  0
   -8.1398    6.6987  -13.3559 C   0  0  0  0  0  0  0  0  0  0  0  0
   -7.0197    4.5066  -12.8566 C   0  0  0  0  0  0  0  0  0  0  0  0
   -5.7108    6.4547  -13.6483 C   0  0  0  0  0  0  0  0  0  0  0  0
   -8.4610    4.6485  -15.5704 C   0  0  0  0  0  0  0  0  0  0  0  0
   -8.7846    4.4443  -16.9013 C   0  0  0  0  0  0  0  0  0  0  0  0
  -10.0889    4.1494  -17.2006 C   0  0  0  0  0  0  0  0  0  0  0  0
  -10.5535    4.3268  -18.4695 C   0  0  0  0  0  0  0  0  0  0  0  0
   -9.6173    4.5309  -19.4446 C   0  0  0  0  0  0  0  0  0  0  0  0
   -8.3043    4.6209  -19.2090 N   0  0  0  0  0  0  0  0  0  0  0  0
   -7.8891    4.6801  -17.9468 C   0  0  0  0  0  0  0  0  0  0  0  0
   -2.8971    5.3523  -19.8928 C   0  0  0  0  0  0  0  0  0  0  0  0
   -2.6614    5.0300  -18.5317 C   0  0  0  0  0  0  0  0  0  0  0  0
   -1.4691    5.3949  -17.9225 C   0  0  0  0  0  0  0  0  0  0  0  0
   -1.3276    5.2253  -16.6016 F   0  0  0  0  0  0  0  0  0  0  0  0
   -0.4350    5.9398  -18.6579 C   0  0  0  0  0  0  0  0  0  0  0  0
   -0.6189    6.1455  -20.0231 C   0  0  0  0  0  0  0  0  0  0  0  0
   -1.8311    5.8804  -20.6464 C   0  0  0  0  0  0  0  0  0  0  0  0
   -1.9329    6.1875  -21.9464 N   0  0  0  0  0  0  0  0  0  0  0  0
  1  2  1  0
  2  3  1  0
  2  4  1  0
  4  5  2  0
  5  6  1  0
  6  7  1  0
  7  8  2  0
  7  9  1  0
  9 10  1  0
 10 11  2  0
 11 12  1  0
 12 13  1  0
 13 14  1  0
 13 15  1  0
 13 16  1  0
 12 17  2  0
 17 18  1  0
 18 19  2  0
 19 20  1  0
 20 21  2  0
 21 22  1  0
 22 23  2  0
  6 24  2  0
 24 25  1  0
 25 26  2  0
 26 27  1  0
 26 28  1  0
 28 29  2  0
 29 30  1  0
 30 31  2  0
 31  4  1  0
 23 10  1  0
 30 24  1  0
 23 18  1  0
M  END
>  <energy_score>  (964) 
-31.794763

>  <alias>  (964) 
None

>  <HIPPO Pose ID>  (964) 
70398

>  <smiles>  (964) 
CC(C)c1cc(C(=O)Nc2cc(C(C)(C)C)cc3cccnc23)c2cc(F)ccc2n1

>  <inchikey>  (964) 
OIZSVHIGDBXLBV-UHFFFAOYSA-N

>  <distance_score>  (964) 
1.278735

>  <ref_mols>  (964) 
Z0917a,Z0852a

>  <ref_pdb>  (964) 
Z0852a

>  <HIPPO Compound ID>  (964) 
142387

>  <name>  (964) 
P70398

>  <inspiration_score>  (964) 
None

$$$$
P70399
     RDKit          3D

 31 35  0  0  0  0  0  0  0  0999 V2000
    0.4909    6.8086  -20.9055 C   0  0  0  0  0  0  0  0  0  0  0  0
   -0.6317    6.2148  -20.0943 C   0  0  0  0  0  0  0  0  0  0  0  0
   -0.4304    5.9620  -18.7321 C   0  0  0  0  0  0  0  0  0  0  0  0
   -1.4328    5.3674  -17.9849 C   0  0  0  0  0  0  0  0  0  0  0  0
   -2.6264    5.0052  -18.5978 C   0  0  0  0  0  0  0  0  0  0  0  0
   -2.8991    5.3733  -19.9407 C   0  0  0  0  0  0  0  0  0  0  0  0
   -4.1417    5.2323  -20.6010 C   0  0  0  0  0  0  0  0  0  0  0  0
   -5.3755    4.7134  -19.9577 C   0  0  0  0  0  0  0  0  0  0  0  0
   -5.9875    3.9038  -20.5416 O   0  0  0  0  0  0  0  0  0  0  0  0
   -5.5825    5.2998  -18.5319 N   0  0  0  0  0  0  0  0  0  0  0  0
   -6.6053    5.0862  -17.6015 C   0  0  0  0  0  0  0  0  0  0  0  0
   -6.3261    5.4184  -16.2657 C   0  0  0  0  0  0  0  0  0  0  0  0
   -7.2696    5.2403  -15.2368 C   0  0  0  0  0  0  0  0  0  0  0  0
   -7.0564    5.7042  -13.7984 C   0  0  0  0  0  0  0  0  0  0  0  0
   -8.1564    6.6943  -13.3601 C   0  0  0  0  0  0  0  0  0  0  0  0
   -5.7280    6.4383  -13.6380 C   0  0  0  0  0  0  0  0  0  0  0  0
   -7.0507    4.4977  -12.8490 C   0  0  0  0  0  0  0  0  0  0  0  0
   -8.4785    4.6514  -15.5773 C   0  0  0  0  0  0  0  0  0  0  0  0
   -8.7884    4.4442  -16.9112 C   0  0  0  0  0  0  0  0  0  0  0  0
  -10.0933    4.1655  -17.2232 C   0  0  0  0  0  0  0  0  0  0  0  0
  -10.5406    4.3421  -18.4973 C   0  0  0  0  0  0  0  0  0  0  0  0
   -9.5899    4.5196  -19.4633 C   0  0  0  0  0  0  0  0  0  0  0  0
   -8.2778    4.5946  -19.2145 N   0  0  0  0  0  0  0  0  0  0  0  0
   -7.8757    4.6576  -17.9481 C   0  0  0  0  0  0  0  0  0  0  0  0
   -4.2859    5.5767  -21.9449 C   0  0  0  0  0  0  0  0  0  0  0  0
   -3.2014    6.0796  -22.6334 C   0  0  0  0  0  0  0  0  0  0  0  0
   -3.3214    6.4583  -24.0936 C   0  0  0  0  0  0  0  0  0  0  0  0
   -2.0965    6.7919  -24.9154 C   0  0  0  0  0  0  0  0  0  0  0  0
   -2.8173    5.4986  -25.1477 C   0  0  0  0  0  0  0  0  0  0  0  0
   -2.0253    6.2747  -21.9961 N   0  0  0  0  0  0  0  0  0  0  0  0
   -1.8640    5.9451  -20.7021 C   0  0  0  0  0  0  0  0  0  0  0  0
  1  2  1  0
  2  3  2  0
  3  4  1  0
  4  5  2  0
  5  6  1  0
  6  7  2  0
  7  8  1  0
  8  9  2  0
  8 10  1  0
 10 11  1  0
 11 12  2  0
 12 13  1  0
 13 14  1  0
 14 15  1  0
 14 16  1  0
 14 17  1  0
 13 18  2  0
 18 19  1  0
 19 20  2  0
 20 21  1  0
 21 22  2  0
 22 23  1  0
 23 24  2  0
  7 25  1  0
 25 26  2  0
 26 27  1  0
 27 28  1  0
 28 29  1  0
 26 30  1  0
 30 31  2  0
 31  2  1  0
 31  6  1  0
 24 11  1  0
 29 27  1  0
 24 19  1  0
M  END
>  <energy_score>  (965) 
-16.60442

>  <alias>  (965) 
None

>  <HIPPO Pose ID>  (965) 
70399

>  <smiles>  (965) 
Cc1cccc2c(C(=O)Nc3cc(C(C)(C)C)cc4cccnc34)cc(C3CC3)nc12

>  <inchikey>  (965) 
MIAJRBUUFLBNTG-UHFFFAOYSA-N

>  <distance_score>  (965) 
1.351208

>  <ref_mols>  (965) 
Z0917a,Z0852a

>  <ref_pdb>  (965) 
Z0852a

>  <HIPPO Compound ID>  (965) 
142389

>  <name>  (965) 
P70399

>  <inspiration_score>  (965) 
None

$$$$
P70400
     RDKit          3D

 31 35  0  0  0  0  0  0  0  0999 V2000
   -6.3921    4.9720  -11.5292 C   0  0  0  0  0  0  0  0  0  0  0  0
   -6.8887    4.8829  -12.8648 O   0  0  0  0  0  0  0  0  0  0  0  0
   -5.9499    5.0752  -13.8227 C   0  0  0  0  0  0  0  0  0  0  0  0
   -4.7720    5.3354  -13.6319 O   0  0  0  0  0  0  0  0  0  0  0  0
   -6.5501    4.9534  -15.1765 C   0  0  0  0  0  0  0  0  0  0  0  0
   -5.7646    5.2758  -16.2845 C   0  0  0  0  0  0  0  0  0  0  0  0
   -6.2567    5.1319  -17.5922 C   0  0  0  0  0  0  0  0  0  0  0  0
   -5.3404    5.4143  -18.6132 N   0  0  0  0  0  0  0  0  0  0  0  0
   -5.2191    4.8324  -20.0511 C   0  0  0  0  0  0  0  0  0  0  0  0
   -5.9113    4.0865  -20.6280 O   0  0  0  0  0  0  0  0  0  0  0  0
   -3.9406    5.2842  -20.6688 C   0  0  0  0  0  0  0  0  0  0  0  0
   -2.7301    5.0484  -19.9889 C   0  0  0  0  0  0  0  0  0  0  0  0
   -2.6352    4.2676  -18.7083 C   0  0  0  0  0  0  0  0  0  0  0  0
   -1.5624    5.5699  -20.5486 C   0  0  0  0  0  0  0  0  0  0  0  0
   -0.2307    5.5076  -19.8238 C   0  0  0  0  0  0  0  0  0  0  0  0
    0.7806    6.6215  -19.9760 C   0  0  0  0  0  0  0  0  0  0  0  0
    0.0469    6.4588  -18.6800 C   0  0  0  0  0  0  0  0  0  0  0  0
   -1.5794    6.1833  -21.7569 N   0  0  0  0  0  0  0  0  0  0  0  0
   -2.7241    6.3399  -22.4308 C   0  0  0  0  0  0  0  0  0  0  0  0
   -2.6696    6.9723  -23.6674 C   0  0  0  0  0  0  0  0  0  0  0  0
   -3.8160    7.2269  -24.4219 C   0  0  0  0  0  0  0  0  0  0  0  0
   -5.0519    6.8468  -23.9271 C   0  0  0  0  0  0  0  0  0  0  0  0
   -5.1203    6.2082  -22.6901 C   0  0  0  0  0  0  0  0  0  0  0  0
   -3.9622    5.9309  -21.9253 C   0  0  0  0  0  0  0  0  0  0  0  0
   -7.5788    4.7436  -17.8131 C   0  0  0  0  0  0  0  0  0  0  0  0
   -8.1244    4.7318  -19.0322 N   0  0  0  0  0  0  0  0  0  0  0  0
   -9.4409    4.5055  -19.1661 C   0  0  0  0  0  0  0  0  0  0  0  0
  -10.2714    4.2158  -18.1144 C   0  0  0  0  0  0  0  0  0  0  0  0
   -9.6985    4.1477  -16.8634 C   0  0  0  0  0  0  0  0  0  0  0  0
   -8.3647    4.4599  -16.6823 C   0  0  0  0  0  0  0  0  0  0  0  0
   -7.8571    4.5273  -15.3820 C   0  0  0  0  0  0  0  0  0  0  0  0
  1  2  1  0
  2  3  1  0
  3  4  2  0
  3  5  1  0
  5  6  2  0
  6  7  1  0
  7  8  1  0
  8  9  1  0
  9 10  2  0
  9 11  1  0
 11 12  2  0
 12 13  1  0
 12 14  1  0
 14 15  1  0
 15 16  1  0
 16 17  1  0
 14 18  2  0
 18 19  1  0
 19 20  2  0
 20 21  1  0
 21 22  2  0
 22 23  1  0
 23 24  2  0
  7 25  2  0
 25 26  1  0
 26 27  2  0
 27 28  1  0
 28 29  2  0
 29 30  1  0
 30 31  2  0
 31  5  1  0
 24 11  1  0
 30 25  1  0
 17 15  1  0
 24 19  1  0
M  END
>  <energy_score>  (966) 
-2.058654

>  <alias>  (966) 
None

>  <HIPPO Pose ID>  (966) 
70400

>  <smiles>  (966) 
COC(=O)c1cc(NC(=O)c2c(C)c(C3CC3)nc3ccccc23)c2ncccc2c1

>  <inchikey>  (966) 
XOXFIPGMJCBLOK-UHFFFAOYSA-N

>  <distance_score>  (966) 
1.509579

>  <ref_mols>  (966) 
Z0917a,Z0852a

>  <ref_pdb>  (966) 
Z0852a

>  <HIPPO Compound ID>  (966) 
142391

>  <name>  (966) 
P70400

>  <inspiration_score>  (966) 
None

$$$$
P70401
     RDKit          3D

 31 35  0  0  0  0  0  0  0  0999 V2000
   -2.7886    4.2860  -18.5629 C   0  0  0  0  0  0  0  0  0  0  0  0
   -2.8298    5.0487  -19.8548 C   0  0  0  0  0  0  0  0  0  0  0  0
   -1.6368    5.5399  -20.3911 C   0  0  0  0  0  0  0  0  0  0  0  0
   -0.3176    5.4266  -19.6515 C   0  0  0  0  0  0  0  0  0  0  0  0
    0.7122    6.5297  -19.7503 C   0  0  0  0  0  0  0  0  0  0  0  0
   -0.0318    6.3230  -18.4668 C   0  0  0  0  0  0  0  0  0  0  0  0
   -1.6097    6.1510  -21.6004 N   0  0  0  0  0  0  0  0  0  0  0  0
   -2.7314    6.3191  -22.3079 C   0  0  0  0  0  0  0  0  0  0  0  0
   -2.6315    6.9461  -23.5445 C   0  0  0  0  0  0  0  0  0  0  0  0
   -3.7502    7.2042  -24.3379 C   0  0  0  0  0  0  0  0  0  0  0  0
   -5.0035    6.8312  -23.8839 C   0  0  0  0  0  0  0  0  0  0  0  0
   -5.1163    6.1979  -22.6472 C   0  0  0  0  0  0  0  0  0  0  0  0
   -3.9874    5.9208  -21.8395 C   0  0  0  0  0  0  0  0  0  0  0  0
   -4.0135    5.2827  -20.5764 C   0  0  0  0  0  0  0  0  0  0  0  0
   -5.3132    4.8119  -20.0219 C   0  0  0  0  0  0  0  0  0  0  0  0
   -5.9539    4.0529  -20.6421 O   0  0  0  0  0  0  0  0  0  0  0  0
   -5.5540    5.4162  -18.6045 N   0  0  0  0  0  0  0  0  0  0  0  0
   -6.5534    5.1432  -17.6534 C   0  0  0  0  0  0  0  0  0  0  0  0
   -6.2667    5.4718  -16.3159 C   0  0  0  0  0  0  0  0  0  0  0  0
   -7.1941    5.2690  -15.2734 C   0  0  0  0  0  0  0  0  0  0  0  0
   -6.9797    5.7302  -13.8335 C   0  0  0  0  0  0  0  0  0  0  0  0
   -5.6602    6.4798  -13.6790 C   0  0  0  0  0  0  0  0  0  0  0  0
   -6.9540    4.5206  -12.8872 C   0  0  0  0  0  0  0  0  0  0  0  0
   -8.0904    6.7040  -13.3839 C   0  0  0  0  0  0  0  0  0  0  0  0
   -8.3969    4.6621  -15.5989 C   0  0  0  0  0  0  0  0  0  0  0  0
   -8.7183    4.4527  -16.9272 C   0  0  0  0  0  0  0  0  0  0  0  0
  -10.0273    4.1614  -17.2107 C   0  0  0  0  0  0  0  0  0  0  0  0
  -10.4935    4.3143  -18.4813 C   0  0  0  0  0  0  0  0  0  0  0  0
   -9.5573    4.4916  -19.4631 C   0  0  0  0  0  0  0  0  0  0  0  0
   -8.2415    4.5890  -19.2361 N   0  0  0  0  0  0  0  0  0  0  0  0
   -7.8201    4.6784  -17.9786 C   0  0  0  0  0  0  0  0  0  0  0  0
  1  2  1  0
  2  3  2  0
  3  4  1  0
  4  5  1  0
  5  6  1  0
  3  7  1  0
  7  8  2  0
  8  9  1  0
  9 10  2  0
 10 11  1  0
 11 12  2  0
 12 13  1  0
 13 14  2  0
 14 15  1  0
 15 16  2  0
 15 17  1  0
 17 18  1  0
 18 19  2  0
 19 20  1  0
 20 21  1  0
 21 22  1  0
 21 23  1  0
 21 24  1  0
 20 25  2  0
 25 26  1  0
 26 27  2  0
 27 28  1  0
 28 29  2  0
 29 30  1  0
 30 31  2  0
 14  2  1  0
 31 18  1  0
  6  4  1  0
 13  8  1  0
 31 26  1  0
M  END
>  <energy_score>  (967) 
-31.000074

>  <alias>  (967) 
None

>  <HIPPO Pose ID>  (967) 
70401

>  <smiles>  (967) 
Cc1c(C2CC2)nc2ccccc2c1C(=O)Nc1cc(C(C)(C)C)cc2cccnc12

>  <inchikey>  (967) 
PSZQVFIDIHUNMP-UHFFFAOYSA-N

>  <distance_score>  (967) 
1.395166

>  <ref_mols>  (967) 
Z0917a,Z0852a

>  <ref_pdb>  (967) 
Z0852a

>  <HIPPO Compound ID>  (967) 
142393

>  <name>  (967) 
P70401

>  <inspiration_score>  (967) 
None

$$$$
P70402
     RDKit          3D

 31 34  0  0  0  0  0  0  0  0999 V2000
   -5.9913    3.9048  -20.3600 O   0  0  0  0  0  0  0  0  0  0  0  0
   -5.3588    4.6827  -19.7538 C   0  0  0  0  0  0  0  0  0  0  0  0
   -5.5771    5.2692  -18.3258 N   0  0  0  0  0  0  0  0  0  0  0  0
   -6.6347    5.0948  -17.4223 C   0  0  0  0  0  0  0  0  0  0  0  0
   -6.4254    5.4345  -16.0730 C   0  0  0  0  0  0  0  0  0  0  0  0
   -7.4381    5.2356  -15.1172 C   0  0  0  0  0  0  0  0  0  0  0  0
   -7.3401    5.7401  -13.7032 C   0  0  0  0  0  0  0  0  0  0  0  0
   -8.4376    5.4471  -12.9464 F   0  0  0  0  0  0  0  0  0  0  0  0
   -6.2683    5.2575  -13.0300 F   0  0  0  0  0  0  0  0  0  0  0  0
   -7.2402    7.1005  -13.6649 F   0  0  0  0  0  0  0  0  0  0  0  0
   -8.6270    4.6457  -15.5162 C   0  0  0  0  0  0  0  0  0  0  0  0
   -8.8633    4.4470  -16.8630 C   0  0  0  0  0  0  0  0  0  0  0  0
  -10.1502    4.1769  -17.2511 C   0  0  0  0  0  0  0  0  0  0  0  0
  -10.5270    4.3673  -18.5436 C   0  0  0  0  0  0  0  0  0  0  0  0
   -9.5255    4.5262  -19.4558 C   0  0  0  0  0  0  0  0  0  0  0  0
   -8.2297    4.6137  -19.1296 N   0  0  0  0  0  0  0  0  0  0  0  0
   -7.8925    4.6687  -17.8419 C   0  0  0  0  0  0  0  0  0  0  0  0
   -4.0721    5.1855  -20.3357 C   0  0  0  0  0  0  0  0  0  0  0  0
   -4.1649    5.3750  -21.6644 C   0  0  0  0  0  0  0  0  0  0  0  0
   -3.0009    5.7454  -22.4830 C   0  0  0  0  0  0  0  0  0  0  0  0
   -3.1017    5.9000  -23.6947 O   0  0  0  0  0  0  0  0  0  0  0  0
   -1.8258    5.9263  -21.8170 N   0  0  0  0  0  0  0  0  0  0  0  0
   -1.6822    5.7855  -20.4336 C   0  0  0  0  0  0  0  0  0  0  0  0
   -0.4385    6.0846  -19.8658 C   0  0  0  0  0  0  0  0  0  0  0  0
   -0.2777    6.0323  -18.4848 C   0  0  0  0  0  0  0  0  0  0  0  0
   -1.3501    5.6086  -17.6968 C   0  0  0  0  0  0  0  0  0  0  0  0
   -1.2246    5.6246  -16.2336 N   0  0  0  0  0  0  0  0  0  0  0  0
   -2.2709    5.5488  -15.5733 O   0  0  0  0  0  0  0  0  0  0  0  0
   -0.0890    5.7342  -15.7518 O   0  0  0  0  0  0  0  0  0  0  0  0
   -2.5650    5.2028  -18.2776 C   0  0  0  0  0  0  0  0  0  0  0  0
   -2.7783    5.3748  -19.6510 C   0  0  0  0  0  0  0  0  0  0  0  0
  1  2  2  0
  2  3  1  0
  3  4  1  0
  4  5  2  0
  5  6  1  0
  6  7  1  0
  7  8  1  0
  7  9  1  0
  7 10  1  0
  6 11  2  0
 11 12  1  0
 12 13  2  0
 13 14  1  0
 14 15  2  0
 15 16  1  0
 16 17  2  0
  2 18  1  0
 18 19  2  0
 19 20  1  0
 20 21  2  0
 20 22  1  0
 22 23  1  0
 23 24  2  0
 24 25  1  0
 25 26  2  0
 26 27  1  0
 27 28  2  0
 27 29  1  0
 26 30  1  0
 30 31  2  0
 17  4  1  0
 31 18  1  0
 17 12  1  0
 31 23  1  0
M  CHG  2  27   1  29  -1
M  END
>  <energy_score>  (968) 
-26.869878

>  <alias>  (968) 
None

>  <HIPPO Pose ID>  (968) 
70402

>  <smiles>  (968) 
O=C(Nc1cc(C(F)(F)F)cc2cccnc12)c1cc(=O)[nH]c2ccc([N+](=O)[O-])cc12

>  <inchikey>  (968) 
WPMKBPQOTXIZBV-UHFFFAOYSA-N

>  <distance_score>  (968) 
1.048818

>  <ref_mols>  (968) 
Z0917a,Z0852a

>  <ref_pdb>  (968) 
Z0852a

>  <HIPPO Compound ID>  (968) 
142394

>  <name>  (968) 
P70402

>  <inspiration_score>  (968) 
None

$$$$
P70403
     RDKit          3D

 32 35  0  0  0  0  0  0  0  0999 V2000
    1.6379    6.7951  -18.8439 C   0  0  0  0  0  0  0  0  0  0  0  0
    0.2638    6.8888  -19.4881 C   0  0  0  0  0  0  0  0  0  0  0  0
   -0.1549    5.5488  -20.1002 C   0  0  0  0  0  0  0  0  0  0  0  0
   -1.5546    5.6081  -20.6614 C   0  0  0  0  0  0  0  0  0  0  0  0
   -1.6129    6.2170  -21.8713 N   0  0  0  0  0  0  0  0  0  0  0  0
   -2.7808    6.3721  -22.4977 C   0  0  0  0  0  0  0  0  0  0  0  0
   -2.7722    6.9897  -23.7433 C   0  0  0  0  0  0  0  0  0  0  0  0
   -3.9447    7.2246  -24.4618 C   0  0  0  0  0  0  0  0  0  0  0  0
   -5.1576    6.8362  -23.9210 C   0  0  0  0  0  0  0  0  0  0  0  0
   -5.1759    6.2143  -22.6732 C   0  0  0  0  0  0  0  0  0  0  0  0
   -3.9935    5.9633  -21.9380 C   0  0  0  0  0  0  0  0  0  0  0  0
   -3.9254    5.3407  -20.6652 C   0  0  0  0  0  0  0  0  0  0  0  0
   -5.1941    4.8625  -20.0372 C   0  0  0  0  0  0  0  0  0  0  0  0
   -5.8472    4.0681  -20.5939 O   0  0  0  0  0  0  0  0  0  0  0  0
   -5.3574    5.4898  -18.6247 N   0  0  0  0  0  0  0  0  0  0  0  0
   -6.2751    5.2062  -17.6032 C   0  0  0  0  0  0  0  0  0  0  0  0
   -5.8073    5.4040  -16.2936 C   0  0  0  0  0  0  0  0  0  0  0  0
   -6.5906    5.0777  -15.1848 C   0  0  0  0  0  0  0  0  0  0  0  0
   -6.0099    5.2596  -13.8290 C   0  0  0  0  0  0  0  0  0  0  0  0
   -4.8507    5.5912  -13.6350 O   0  0  0  0  0  0  0  0  0  0  0  0
   -6.9440    5.0315  -12.8744 O   0  0  0  0  0  0  0  0  0  0  0  0
   -6.4637    5.1718  -11.5371 C   0  0  0  0  0  0  0  0  0  0  0  0
   -7.8778    4.5978  -15.3915 C   0  0  0  0  0  0  0  0  0  0  0  0
   -8.3696    4.4886  -16.6943 C   0  0  0  0  0  0  0  0  0  0  0  0
   -9.6948    4.1457  -16.8778 C   0  0  0  0  0  0  0  0  0  0  0  0
  -10.2595    4.1879  -18.1330 C   0  0  0  0  0  0  0  0  0  0  0  0
   -9.4260    4.4717  -19.1847 C   0  0  0  0  0  0  0  0  0  0  0  0
   -8.1139    4.7185  -19.0480 N   0  0  0  0  0  0  0  0  0  0  0  0
   -7.5809    4.7695  -17.8250 C   0  0  0  0  0  0  0  0  0  0  0  0
   -2.6901    5.1265  -20.0066 C   0  0  0  0  0  0  0  0  0  0  0  0
   -2.5868    4.3560  -18.7090 C   0  0  0  0  0  0  0  0  0  0  0  0
   -2.2199    5.2040  -17.4954 C   0  0  0  0  0  0  0  0  0  0  0  0
  1  2  1  0
  2  3  1  0
  3  4  1  0
  4  5  2  0
  5  6  1  0
  6  7  2  0
  7  8  1  0
  8  9  2  0
  9 10  1  0
 10 11  2  0
 11 12  1  0
 12 13  1  0
 13 14  2  0
 13 15  1  0
 15 16  1  0
 16 17  2  0
 17 18  1  0
 18 19  1  0
 19 20  2  0
 19 21  1  0
 21 22  1  0
 18 23  2  0
 23 24  1  0
 24 25  2  0
 25 26  1  0
 26 27  2  0
 27 28  1  0
 28 29  2  0
 12 30  2  0
 30 31  1  0
 31 32  1  0
 30  4  1  0
 11  6  1  0
 29 16  1  0
 29 24  1  0
M  END
>  <energy_score>  (969) 
-33.441757

>  <alias>  (969) 
None

>  <HIPPO Pose ID>  (969) 
70403

>  <smiles>  (969) 
CCCc1nc2ccccc2c(C(=O)Nc2cc(C(=O)OC)cc3cccnc23)c1CC

>  <inchikey>  (969) 
OHLOHXIXXJFDGJ-UHFFFAOYSA-N

>  <distance_score>  (969) 
1.700032

>  <ref_mols>  (969) 
Z0917a,Z0852a

>  <ref_pdb>  (969) 
Z0852a

>  <HIPPO Compound ID>  (969) 
142395

>  <name>  (969) 
P70403

>  <inspiration_score>  (969) 
None

$$$$
P70404
     RDKit          3D

 32 36  0  0  0  0  0  0  0  0999 V2000
   -8.4310    6.7972  -13.6066 C   0  0  0  0  0  0  0  0  0  0  0  0
   -7.4126    5.6580  -13.7261 C   0  0  0  0  0  0  0  0  0  0  0  0
   -7.8017    4.5607  -12.7184 C   0  0  0  0  0  0  0  0  0  0  0  0
   -6.0605    6.2478  -13.3147 C   0  0  0  0  0  0  0  0  0  0  0  0
   -7.4516    5.1447  -15.1661 C   0  0  0  0  0  0  0  0  0  0  0  0
   -6.4527    5.3638  -16.1330 C   0  0  0  0  0  0  0  0  0  0  0  0
   -6.6698    5.0534  -17.4903 C   0  0  0  0  0  0  0  0  0  0  0  0
   -5.6541    5.3241  -18.4183 N   0  0  0  0  0  0  0  0  0  0  0  0
   -5.3701    4.7005  -19.8174 C   0  0  0  0  0  0  0  0  0  0  0  0
   -5.9846    3.9216  -20.4404 O   0  0  0  0  0  0  0  0  0  0  0  0
   -4.1365    5.2242  -20.4484 C   0  0  0  0  0  0  0  0  0  0  0  0
   -4.2742    5.5491  -21.7998 C   0  0  0  0  0  0  0  0  0  0  0  0
   -3.1736    6.0251  -22.4731 C   0  0  0  0  0  0  0  0  0  0  0  0
   -3.2079    6.3887  -23.8829 C   0  0  0  0  0  0  0  0  0  0  0  0
   -2.2408    6.7569  -24.7985 C   0  0  0  0  0  0  0  0  0  0  0  0
   -2.9056    6.9825  -26.0284 C   0  0  0  0  0  0  0  0  0  0  0  0
   -4.2382    6.7445  -25.7904 C   0  0  0  0  0  0  0  0  0  0  0  0
   -4.4332    6.3916  -24.4941 O   0  0  0  0  0  0  0  0  0  0  0  0
   -1.9838    6.2224  -21.8644 N   0  0  0  0  0  0  0  0  0  0  0  0
   -1.8573    5.9212  -20.5632 C   0  0  0  0  0  0  0  0  0  0  0  0
   -0.6390    6.1982  -19.9615 C   0  0  0  0  0  0  0  0  0  0  0  0
   -0.4207    5.9780  -18.6032 C   0  0  0  0  0  0  0  0  0  0  0  0
   -1.4251    5.4103  -17.8361 C   0  0  0  0  0  0  0  0  0  0  0  0
   -2.6302    5.0483  -18.4328 C   0  0  0  0  0  0  0  0  0  0  0  0
   -2.8993    5.3781  -19.7860 C   0  0  0  0  0  0  0  0  0  0  0  0
   -7.9250    4.6236  -17.9116 C   0  0  0  0  0  0  0  0  0  0  0  0
   -8.2767    4.5959  -19.1959 N   0  0  0  0  0  0  0  0  0  0  0  0
   -9.5777    4.5531  -19.5053 C   0  0  0  0  0  0  0  0  0  0  0  0
  -10.5745    4.4037  -18.5871 C   0  0  0  0  0  0  0  0  0  0  0  0
  -10.1876    4.1612  -17.3083 C   0  0  0  0  0  0  0  0  0  0  0  0
   -8.8866    4.3840  -16.9339 C   0  0  0  0  0  0  0  0  0  0  0  0
   -8.6327    4.5435  -15.5882 C   0  0  0  0  0  0  0  0  0  0  0  0
  1  2  1  0
  2  3  1  0
  2  4  1  0
  2  5  1  0
  5  6  2  0
  6  7  1  0
  7  8  1  0
  8  9  1  0
  9 10  2  0
  9 11  1  0
 11 12  2  0
 12 13  1  0
 13 14  1  0
 14 15  2  0
 15 16  1  0
 16 17  2  0
 17 18  1  0
 13 19  2  0
 19 20  1  0
 20 21  2  0
 21 22  1  0
 22 23  2  0
 23 24  1  0
 24 25  2  0
  7 26  2  0
 26 27  1  0
 27 28  2  0
 28 29  1  0
 29 30  2  0
 30 31  1  0
 31 32  2  0
 32  5  1  0
 25 11  1  0
 31 26  1  0
 18 14  1  0
 25 20  1  0
M  END
>  <energy_score>  (970) 
-18.512464

>  <alias>  (970) 
None

>  <HIPPO Pose ID>  (970) 
70404

>  <smiles>  (970) 
CC(C)(C)c1cc(NC(=O)c2cc(-c3ccco3)nc3ccccc23)c2ncccc2c1

>  <inchikey>  (970) 
UABOTPUSOFUZEL-UHFFFAOYSA-N

>  <distance_score>  (970) 
1.340719

>  <ref_mols>  (970) 
Z0917a,Z0852a

>  <ref_pdb>  (970) 
Z0852a

>  <HIPPO Compound ID>  (970) 
142396

>  <name>  (970) 
P70404

>  <inspiration_score>  (970) 
None

$$$$
P70405
     RDKit          3D

 32 36  0  0  0  0  0  0  0  0999 V2000
   -5.9431    3.9148  -20.3368 O   0  0  0  0  0  0  0  0  0  0  0  0
   -5.3444    4.7281  -19.7436 C   0  0  0  0  0  0  0  0  0  0  0  0
   -5.5821    5.3203  -18.3229 N   0  0  0  0  0  0  0  0  0  0  0  0
   -6.6253    5.1081  -17.4118 C   0  0  0  0  0  0  0  0  0  0  0  0
   -6.4185    5.4414  -16.0615 C   0  0  0  0  0  0  0  0  0  0  0  0
   -7.4304    5.2333  -15.1071 C   0  0  0  0  0  0  0  0  0  0  0  0
   -7.3353    5.7358  -13.6933 C   0  0  0  0  0  0  0  0  0  0  0  0
   -8.4265    5.4318  -12.9326 F   0  0  0  0  0  0  0  0  0  0  0  0
   -6.2561    5.2578  -13.0258 F   0  0  0  0  0  0  0  0  0  0  0  0
   -7.2418    7.0961  -13.6497 F   0  0  0  0  0  0  0  0  0  0  0  0
   -8.6163    4.6395  -15.5081 C   0  0  0  0  0  0  0  0  0  0  0  0
   -8.8513    4.4448  -16.8556 C   0  0  0  0  0  0  0  0  0  0  0  0
  -10.1382    4.1719  -17.2425 C   0  0  0  0  0  0  0  0  0  0  0  0
  -10.5171    4.3594  -18.5350 C   0  0  0  0  0  0  0  0  0  0  0  0
   -9.5173    4.5239  -19.4481 C   0  0  0  0  0  0  0  0  0  0  0  0
   -8.2222    4.6207  -19.1221 N   0  0  0  0  0  0  0  0  0  0  0  0
   -7.8818    4.6749  -17.8344 C   0  0  0  0  0  0  0  0  0  0  0  0
   -4.1466    5.2750  -20.4187 C   0  0  0  0  0  0  0  0  0  0  0  0
   -4.3416    5.5969  -21.7638 C   0  0  0  0  0  0  0  0  0  0  0  0
   -3.2699    6.0700  -22.4842 C   0  0  0  0  0  0  0  0  0  0  0  0
   -3.3655    6.4325  -23.8915 C   0  0  0  0  0  0  0  0  0  0  0  0
   -2.4419    6.8129  -24.8462 C   0  0  0  0  0  0  0  0  0  0  0  0
   -3.1594    7.0249  -26.0487 C   0  0  0  0  0  0  0  0  0  0  0  0
   -4.4776    6.7674  -25.7567 C   0  0  0  0  0  0  0  0  0  0  0  0
   -4.6145    6.4162  -24.4525 O   0  0  0  0  0  0  0  0  0  0  0  0
   -2.0533    6.2598  -21.9287 N   0  0  0  0  0  0  0  0  0  0  0  0
   -1.8717    5.9617  -20.6333 C   0  0  0  0  0  0  0  0  0  0  0  0
   -0.6250    6.2295  -20.0887 C   0  0  0  0  0  0  0  0  0  0  0  0
   -0.3461    6.0081  -18.7419 C   0  0  0  0  0  0  0  0  0  0  0  0
   -1.3196    5.4516  -17.9287 C   0  0  0  0  0  0  0  0  0  0  0  0
   -2.5554    5.1008  -18.4679 C   0  0  0  0  0  0  0  0  0  0  0  0
   -2.8821    5.4275  -19.8093 C   0  0  0  0  0  0  0  0  0  0  0  0
  1  2  2  0
  2  3  1  0
  3  4  1  0
  4  5  2  0
  5  6  1  0
  6  7  1  0
  7  8  1  0
  7  9  1  0
  7 10  1  0
  6 11  2  0
 11 12  1  0
 12 13  2  0
 13 14  1  0
 14 15  2  0
 15 16  1  0
 16 17  2  0
  2 18  1  0
 18 19  2  0
 19 20  1  0
 20 21  1  0
 21 22  2  0
 22 23  1  0
 23 24  2  0
 24 25  1  0
 20 26  2  0
 26 27  1  0
 27 28  2  0
 28 29  1  0
 29 30  2  0
 30 31  1  0
 31 32  2  0
 17  4  1  0
 32 18  1  0
 17 12  1  0
 25 21  1  0
 32 27  1  0
M  END
>  <energy_score>  (971) 
-7.565915

>  <alias>  (971) 
None

>  <HIPPO Pose ID>  (971) 
70405

>  <smiles>  (971) 
O=C(Nc1cc(C(F)(F)F)cc2cccnc12)c1cc(-c2ccco2)nc2ccccc12

>  <inchikey>  (971) 
XUAGKVCCPJRUJL-UHFFFAOYSA-N

>  <distance_score>  (971) 
1.084488

>  <ref_mols>  (971) 
Z0917a,Z0852a

>  <ref_pdb>  (971) 
Z0852a

>  <HIPPO Compound ID>  (971) 
142397

>  <name>  (971) 
P70405

>  <inspiration_score>  (971) 
None

$$$$
P70406
     RDKit          3D

 32 36  0  0  0  0  0  0  0  0999 V2000
   -6.4462    4.8723  -11.4758 C   0  0  0  0  0  0  0  0  0  0  0  0
   -6.9336    4.7982  -12.8157 O   0  0  0  0  0  0  0  0  0  0  0  0
   -5.9819    4.9658  -13.7654 C   0  0  0  0  0  0  0  0  0  0  0  0
   -4.7998    5.1977  -13.5644 O   0  0  0  0  0  0  0  0  0  0  0  0
   -6.5734    4.8575  -15.1242 C   0  0  0  0  0  0  0  0  0  0  0  0
   -5.7665    5.1414  -16.2265 C   0  0  0  0  0  0  0  0  0  0  0  0
   -6.2563    5.0016  -17.5337 C   0  0  0  0  0  0  0  0  0  0  0  0
   -5.3255    5.2154  -18.5528 N   0  0  0  0  0  0  0  0  0  0  0  0
   -5.2960    4.6989  -20.0147 C   0  0  0  0  0  0  0  0  0  0  0  0
   -6.0052    3.9523  -20.5697 O   0  0  0  0  0  0  0  0  0  0  0  0
   -4.1451    5.2493  -20.7710 C   0  0  0  0  0  0  0  0  0  0  0  0
   -4.4544    5.6477  -22.0713 C   0  0  0  0  0  0  0  0  0  0  0  0
   -3.4481    6.1648  -22.8534 C   0  0  0  0  0  0  0  0  0  0  0  0
   -3.6969    6.6159  -24.2210 C   0  0  0  0  0  0  0  0  0  0  0  0
   -4.8289    6.7302  -25.0105 C   0  0  0  0  0  0  0  0  0  0  0  0
   -4.4056    7.2243  -26.2689 C   0  0  0  0  0  0  0  0  0  0  0  0
   -3.0456    7.3901  -26.1737 C   0  0  0  0  0  0  0  0  0  0  0  0
   -2.6079    7.0276  -24.9420 O   0  0  0  0  0  0  0  0  0  0  0  0
   -2.1912    6.3219  -22.3891 N   0  0  0  0  0  0  0  0  0  0  0  0
   -1.8971    5.9596  -21.1343 C   0  0  0  0  0  0  0  0  0  0  0  0
   -0.6079    6.2162  -20.6960 C   0  0  0  0  0  0  0  0  0  0  0  0
   -0.2095    5.9463  -19.3911 C   0  0  0  0  0  0  0  0  0  0  0  0
   -1.1064    5.3536  -18.5193 C   0  0  0  0  0  0  0  0  0  0  0  0
   -2.3835    5.0085  -18.9595 C   0  0  0  0  0  0  0  0  0  0  0  0
   -2.8315    5.3804  -20.2555 C   0  0  0  0  0  0  0  0  0  0  0  0
   -7.5935    4.6794  -17.7673 C   0  0  0  0  0  0  0  0  0  0  0  0
   -8.1333    4.7092  -18.9913 N   0  0  0  0  0  0  0  0  0  0  0  0
   -9.4536    4.5180  -19.1389 C   0  0  0  0  0  0  0  0  0  0  0  0
  -10.2958    4.2327  -18.0967 C   0  0  0  0  0  0  0  0  0  0  0  0
   -9.7316    4.1417  -16.8425 C   0  0  0  0  0  0  0  0  0  0  0  0
   -8.3935    4.4205  -16.6450 C   0  0  0  0  0  0  0  0  0  0  0  0
   -7.8927    4.4740  -15.3402 C   0  0  0  0  0  0  0  0  0  0  0  0
  1  2  1  0
  2  3  1  0
  3  4  2  0
  3  5  1  0
  5  6  2  0
  6  7  1  0
  7  8  1  0
  8  9  1  0
  9 10  2  0
  9 11  1  0
 11 12  2  0
 12 13  1  0
 13 14  1  0
 14 15  2  0
 15 16  1  0
 16 17  2  0
 17 18  1  0
 13 19  2  0
 19 20  1  0
 20 21  2  0
 21 22  1  0
 22 23  2  0
 23 24  1  0
 24 25  2  0
  7 26  2  0
 26 27  1  0
 27 28  2  0
 28 29  1  0
 29 30  2  0
 30 31  1  0
 31 32  2  0
 32  5  1  0
 25 11  1  0
 31 26  1  0
 18 14  1  0
 25 20  1  0
M  END
>  <energy_score>  (972) 
-38.784959

>  <alias>  (972) 
None

>  <HIPPO Pose ID>  (972) 
70406

>  <smiles>  (972) 
COC(=O)c1cc(NC(=O)c2cc(-c3ccco3)nc3ccccc23)c2ncccc2c1

>  <inchikey>  (972) 
IXVVUQBJKDJOGE-UHFFFAOYSA-N

>  <distance_score>  (972) 
1.658672

>  <ref_mols>  (972) 
Z0917a,Z0852a

>  <ref_pdb>  (972) 
Z0852a

>  <HIPPO Compound ID>  (972) 
142398

>  <name>  (972) 
P70406

>  <inspiration_score>  (972) 
None

$$$$
P70407
     RDKit          3D

 32 36  0  0  0  0  0  0  0  0999 V2000
   -2.7369    4.4452  -18.3335 C   0  0  0  0  0  0  0  0  0  0  0  0
   -2.7964    5.3083  -19.5576 C   0  0  0  0  0  0  0  0  0  0  0  0
   -1.6520    6.0028  -19.9484 C   0  0  0  0  0  0  0  0  0  0  0  0
   -0.4887    6.2388  -18.9961 C   0  0  0  0  0  0  0  0  0  0  0  0
    0.8593    6.6746  -19.5325 C   0  0  0  0  0  0  0  0  0  0  0  0
    0.6906    5.3078  -18.9472 C   0  0  0  0  0  0  0  0  0  0  0  0
   -1.5946    6.6121  -21.1515 N   0  0  0  0  0  0  0  0  0  0  0  0
   -2.6533    6.6309  -21.9604 C   0  0  0  0  0  0  0  0  0  0  0  0
   -2.4852    7.2788  -23.1733 C   0  0  0  0  0  0  0  0  0  0  0  0
   -3.5424    7.4630  -24.0562 C   0  0  0  0  0  0  0  0  0  0  0  0
   -4.7957    6.9857  -23.7112 C   0  0  0  0  0  0  0  0  0  0  0  0
   -6.2308    7.3079  -24.8907 Br  0  0  0  0  0  0  0  0  0  0  0  0
   -4.9821    6.3013  -22.5078 C   0  0  0  0  0  0  0  0  0  0  0  0
   -3.9036    6.1033  -21.6050 C   0  0  0  0  0  0  0  0  0  0  0  0
   -3.9536    5.4462  -20.3477 C   0  0  0  0  0  0  0  0  0  0  0  0
   -5.2366    4.8855  -19.8287 C   0  0  0  0  0  0  0  0  0  0  0  0
   -5.8308    4.1242  -20.4938 O   0  0  0  0  0  0  0  0  0  0  0  0
   -5.5049    5.3810  -18.3655 N   0  0  0  0  0  0  0  0  0  0  0  0
   -6.5791    5.1169  -17.4935 C   0  0  0  0  0  0  0  0  0  0  0  0
   -6.3902    5.4477  -16.1325 C   0  0  0  0  0  0  0  0  0  0  0  0
   -7.4023    5.2377  -15.1768 C   0  0  0  0  0  0  0  0  0  0  0  0
   -7.3136    5.7369  -13.7601 C   0  0  0  0  0  0  0  0  0  0  0  0
   -6.2348    5.2601  -13.0906 F   0  0  0  0  0  0  0  0  0  0  0  0
   -7.2245    7.0972  -13.7115 F   0  0  0  0  0  0  0  0  0  0  0  0
   -8.4057    5.4269  -13.0026 F   0  0  0  0  0  0  0  0  0  0  0  0
   -8.5854    4.6495  -15.5836 C   0  0  0  0  0  0  0  0  0  0  0  0
   -8.8063    4.4481  -16.9310 C   0  0  0  0  0  0  0  0  0  0  0  0
  -10.0999    4.2011  -17.3091 C   0  0  0  0  0  0  0  0  0  0  0  0
  -10.4638    4.3757  -18.6055 C   0  0  0  0  0  0  0  0  0  0  0  0
   -9.4531    4.4713  -19.5190 C   0  0  0  0  0  0  0  0  0  0  0  0
   -8.1540    4.5446  -19.1976 N   0  0  0  0  0  0  0  0  0  0  0  0
   -7.8244    4.6545  -17.9136 C   0  0  0  0  0  0  0  0  0  0  0  0
  1  2  1  0
  2  3  2  0
  3  4  1  0
  4  5  1  0
  5  6  1  0
  3  7  1  0
  7  8  2  0
  8  9  1  0
  9 10  2  0
 10 11  1  0
 11 12  1  0
 11 13  2  0
 13 14  1  0
 14 15  2  0
 15 16  1  0
 16 17  2  0
 16 18  1  0
 18 19  1  0
 19 20  2  0
 20 21  1  0
 21 22  1  0
 22 23  1  0
 22 24  1  0
 22 25  1  0
 21 26  2  0
 26 27  1  0
 27 28  2  0
 28 29  1  0
 29 30  2  0
 30 31  1  0
 31 32  2  0
 15  2  1  0
 32 19  1  0
  6  4  1  0
 14  8  1  0
 32 27  1  0
M  END
>  <energy_score>  (973) 
-15.753923

>  <alias>  (973) 
None

>  <HIPPO Pose ID>  (973) 
70407

>  <smiles>  (973) 
Cc1c(C2CC2)nc2ccc(Br)cc2c1C(=O)Nc1cc(C(F)(F)F)cc2cccnc12

>  <inchikey>  (973) 
WNSJYKRUHMRNAX-UHFFFAOYSA-N

>  <distance_score>  (973) 
1.191137

>  <ref_mols>  (973) 
Z0917a,Z0852a

>  <ref_pdb>  (973) 
Z0852a

>  <HIPPO Compound ID>  (973) 
142409

>  <name>  (973) 
P70407

>  <inspiration_score>  (973) 
None

$$$$
P70408
     RDKit          3D

 32 36  0  0  0  0  0  0  0  0999 V2000
    1.2544    6.2149  -18.9959 C   0  0  0  0  0  0  0  0  0  0  0  0
   -0.1559    5.9301  -19.4103 C   0  0  0  0  0  0  0  0  0  0  0  0
   -1.0775    5.4124  -18.5146 C   0  0  0  0  0  0  0  0  0  0  0  0
   -2.3951    5.1046  -18.9084 C   0  0  0  0  0  0  0  0  0  0  0  0
   -3.2245    4.4305  -17.8576 C   0  0  0  0  0  0  0  0  0  0  0  0
   -2.8609    5.4776  -20.2237 C   0  0  0  0  0  0  0  0  0  0  0  0
   -4.1652    5.4096  -20.8093 C   0  0  0  0  0  0  0  0  0  0  0  0
   -5.3720    4.8936  -20.1316 C   0  0  0  0  0  0  0  0  0  0  0  0
   -5.9679    4.0252  -20.6392 O   0  0  0  0  0  0  0  0  0  0  0  0
   -5.6339    5.6507  -18.8053 N   0  0  0  0  0  0  0  0  0  0  0  0
   -6.5978    5.4393  -17.8134 C   0  0  0  0  0  0  0  0  0  0  0  0
   -6.2849    5.8979  -16.5321 C   0  0  0  0  0  0  0  0  0  0  0  0
   -7.0932    5.6120  -15.4185 C   0  0  0  0  0  0  0  0  0  0  0  0
   -6.6634    6.0485  -14.0321 C   0  0  0  0  0  0  0  0  0  0  0  0
   -7.6762    5.7038  -12.9214 C   0  0  0  0  0  0  0  0  0  0  0  0
   -5.3421    5.3296  -13.7253 C   0  0  0  0  0  0  0  0  0  0  0  0
   -6.4295    7.5729  -13.9662 C   0  0  0  0  0  0  0  0  0  0  0  0
   -8.2524    4.8836  -15.6266 C   0  0  0  0  0  0  0  0  0  0  0  0
   -8.6347    4.5796  -16.9188 C   0  0  0  0  0  0  0  0  0  0  0  0
   -9.9213    4.1468  -17.1078 C   0  0  0  0  0  0  0  0  0  0  0  0
  -10.4630    4.1976  -18.3603 C   0  0  0  0  0  0  0  0  0  0  0  0
   -9.6035    4.4434  -19.4013 C   0  0  0  0  0  0  0  0  0  0  0  0
   -8.2912    4.6470  -19.2559 N   0  0  0  0  0  0  0  0  0  0  0  0
   -7.8207    4.8303  -18.0306 C   0  0  0  0  0  0  0  0  0  0  0  0
   -4.4317    5.8612  -22.1080 C   0  0  0  0  0  0  0  0  0  0  0  0
   -3.4063    6.3817  -22.8630 C   0  0  0  0  0  0  0  0  0  0  0  0
   -3.6026    7.0081  -24.2255 C   0  0  0  0  0  0  0  0  0  0  0  0
   -3.3799    6.1606  -25.4568 C   0  0  0  0  0  0  0  0  0  0  0  0
   -4.7496    6.6926  -25.1528 C   0  0  0  0  0  0  0  0  0  0  0  0
   -2.1608    6.4336  -22.3487 N   0  0  0  0  0  0  0  0  0  0  0  0
   -1.9015    6.0203  -21.1019 C   0  0  0  0  0  0  0  0  0  0  0  0
   -0.5918    6.2163  -20.6983 C   0  0  0  0  0  0  0  0  0  0  0  0
  1  2  1  0
  2  3  2  0
  3  4  1  0
  4  5  1  0
  4  6  2  0
  6  7  1  0
  7  8  1  0
  8  9  2  0
  8 10  1  0
 10 11  1  0
 11 12  2  0
 12 13  1  0
 13 14  1  0
 14 15  1  0
 14 16  1  0
 14 17  1  0
 13 18  2  0
 18 19  1  0
 19 20  2  0
 20 21  1  0
 21 22  2  0
 22 23  1  0
 23 24  2  0
  7 25  2  0
 25 26  1  0
 26 27  1  0
 27 28  1  0
 28 29  1  0
 26 30  2  0
 30 31  1  0
 31 32  2  0
 32  2  1  0
 31  6  1  0
 24 11  1  0
 29 27  1  0
 24 19  1  0
M  END
>  <energy_score>  (974) 
-29.346497

>  <alias>  (974) 
None

>  <HIPPO Pose ID>  (974) 
70408

>  <smiles>  (974) 
Cc1cc(C)c2c(C(=O)Nc3cc(C(C)(C)C)cc4cccnc34)cc(C3CC3)nc2c1

>  <inchikey>  (974) 
BZJMAWJAVHONLY-UHFFFAOYSA-N

>  <distance_score>  (974) 
1.402113

>  <ref_mols>  (974) 
Z0917a,Z0852a

>  <ref_pdb>  (974) 
Z0852a

>  <HIPPO Compound ID>  (974) 
142410

>  <name>  (974) 
P70408

>  <inspiration_score>  (974) 
None

$$$$
P70409
     RDKit          3D

 32 36  0  0  0  0  0  0  0  0999 V2000
    1.2187    6.5711  -18.2698 C   0  0  0  0  0  0  0  0  0  0  0  0
   -0.1657    6.2206  -18.7211 C   0  0  0  0  0  0  0  0  0  0  0  0
   -1.0840    5.6593  -17.8478 C   0  0  0  0  0  0  0  0  0  0  0  0
   -2.3590    5.2463  -18.2874 C   0  0  0  0  0  0  0  0  0  0  0  0
   -3.1771    4.5392  -17.2452 C   0  0  0  0  0  0  0  0  0  0  0  0
   -2.7825    5.5190  -19.6421 C   0  0  0  0  0  0  0  0  0  0  0  0
   -4.0479    5.3381  -20.2789 C   0  0  0  0  0  0  0  0  0  0  0  0
   -5.2828    4.8242  -19.6424 C   0  0  0  0  0  0  0  0  0  0  0  0
   -5.8593    3.9913  -20.2282 O   0  0  0  0  0  0  0  0  0  0  0  0
   -5.6260    5.5352  -18.3054 N   0  0  0  0  0  0  0  0  0  0  0  0
   -6.6675    5.3077  -17.3943 C   0  0  0  0  0  0  0  0  0  0  0  0
   -6.4932    5.6848  -16.0516 C   0  0  0  0  0  0  0  0  0  0  0  0
   -7.4716    5.3873  -15.0868 C   0  0  0  0  0  0  0  0  0  0  0  0
   -7.3838    5.8680  -13.6659 C   0  0  0  0  0  0  0  0  0  0  0  0
   -6.3141    5.3693  -12.9991 F   0  0  0  0  0  0  0  0  0  0  0  0
   -7.2785    7.2258  -13.6019 F   0  0  0  0  0  0  0  0  0  0  0  0
   -8.4844    5.5609  -12.9206 F   0  0  0  0  0  0  0  0  0  0  0  0
   -8.6079    4.6993  -15.4764 C   0  0  0  0  0  0  0  0  0  0  0  0
   -8.8342    4.4874  -16.8221 C   0  0  0  0  0  0  0  0  0  0  0  0
  -10.1055    4.1459  -17.1996 C   0  0  0  0  0  0  0  0  0  0  0  0
  -10.4963    4.3043  -18.4932 C   0  0  0  0  0  0  0  0  0  0  0  0
   -9.5098    4.5111  -19.4144 C   0  0  0  0  0  0  0  0  0  0  0  0
   -8.2197    4.6755  -19.0949 N   0  0  0  0  0  0  0  0  0  0  0  0
   -7.8844    4.7691  -17.8075 C   0  0  0  0  0  0  0  0  0  0  0  0
   -4.2328    5.6055  -21.6470 C   0  0  0  0  0  0  0  0  0  0  0  0
   -3.1841    6.0733  -22.4049 C   0  0  0  0  0  0  0  0  0  0  0  0
   -3.3566    6.3694  -23.8792 C   0  0  0  0  0  0  0  0  0  0  0  0
   -2.1975    6.8620  -24.7166 C   0  0  0  0  0  0  0  0  0  0  0  0
   -2.7014    5.4616  -24.8955 C   0  0  0  0  0  0  0  0  0  0  0  0
   -1.9950    6.2996  -21.8165 N   0  0  0  0  0  0  0  0  0  0  0  0
   -1.8037    6.0442  -20.5153 C   0  0  0  0  0  0  0  0  0  0  0  0
   -0.5383    6.3655  -20.0533 C   0  0  0  0  0  0  0  0  0  0  0  0
  1  2  1  0
  2  3  2  0
  3  4  1  0
  4  5  1  0
  4  6  2  0
  6  7  1  0
  7  8  1  0
  8  9  2  0
  8 10  1  0
 10 11  1  0
 11 12  2  0
 12 13  1  0
 13 14  1  0
 14 15  1  0
 14 16  1  0
 14 17  1  0
 13 18  2  0
 18 19  1  0
 19 20  2  0
 20 21  1  0
 21 22  2  0
 22 23  1  0
 23 24  2  0
  7 25  2  0
 25 26  1  0
 26 27  1  0
 27 28  1  0
 28 29  1  0
 26 30  2  0
 30 31  1  0
 31 32  2  0
 32  2  1  0
 31  6  1  0
 24 11  1  0
 29 27  1  0
 24 19  1  0
M  END
>  <energy_score>  (975) 
-22.271141

>  <alias>  (975) 
None

>  <HIPPO Pose ID>  (975) 
70409

>  <smiles>  (975) 
Cc1cc(C)c2c(C(=O)Nc3cc(C(F)(F)F)cc4cccnc34)cc(C3CC3)nc2c1

>  <inchikey>  (975) 
RVXSVOJXTZKBCI-UHFFFAOYSA-N

>  <distance_score>  (975) 
1.102515

>  <ref_mols>  (975) 
Z0917a,Z0852a

>  <ref_pdb>  (975) 
Z0852a

>  <HIPPO Compound ID>  (975) 
142411

>  <name>  (975) 
P70409

>  <inspiration_score>  (975) 
None

$$$$
P70410
     RDKit          3D

 32 36  0  0  0  0  0  0  0  0999 V2000
   -8.0235    6.7332  -13.4333 C   0  0  0  0  0  0  0  0  0  0  0  0
   -6.8992    5.8026  -13.9363 C   0  0  0  0  0  0  0  0  0  0  0  0
   -6.8147    4.5755  -13.0128 C   0  0  0  0  0  0  0  0  0  0  0  0
   -5.5949    6.5801  -13.8024 C   0  0  0  0  0  0  0  0  0  0  0  0
   -7.1404    5.3656  -15.3807 C   0  0  0  0  0  0  0  0  0  0  0  0
   -6.2748    5.6524  -16.4610 C   0  0  0  0  0  0  0  0  0  0  0  0
   -6.5720    5.2983  -17.7948 C   0  0  0  0  0  0  0  0  0  0  0  0
   -5.6298    5.6829  -18.7743 N   0  0  0  0  0  0  0  0  0  0  0  0
   -5.3398    5.0901  -20.1919 C   0  0  0  0  0  0  0  0  0  0  0  0
   -5.8908    4.2447  -20.7890 O   0  0  0  0  0  0  0  0  0  0  0  0
   -4.0826    5.6760  -20.7875 C   0  0  0  0  0  0  0  0  0  0  0  0
   -2.8817    5.6464  -20.0431 C   0  0  0  0  0  0  0  0  0  0  0  0
   -1.7214    6.0830  -20.6876 C   0  0  0  0  0  0  0  0  0  0  0  0
   -1.6930    6.4585  -21.9759 N   0  0  0  0  0  0  0  0  0  0  0  0
   -2.8214    6.5046  -22.6662 C   0  0  0  0  0  0  0  0  0  0  0  0
   -2.6980    6.9831  -23.9587 C   0  0  0  0  0  0  0  0  0  0  0  0
   -3.8079    7.2098  -24.7568 C   0  0  0  0  0  0  0  0  0  0  0  0
   -5.0631    6.9358  -24.2441 C   0  0  0  0  0  0  0  0  0  0  0  0
   -6.5560    7.3877  -25.3013 Br  0  0  0  0  0  0  0  0  0  0  0  0
   -5.2024    6.3873  -22.9635 C   0  0  0  0  0  0  0  0  0  0  0  0
   -4.0764    6.1607  -22.1314 C   0  0  0  0  0  0  0  0  0  0  0  0
   -0.3807    6.1862  -20.0111 C   0  0  0  0  0  0  0  0  0  0  0  0
   -0.5039    6.2147  -18.5009 C   0  0  0  0  0  0  0  0  0  0  0  0
   -1.3935    5.0588  -18.0953 C   0  0  0  0  0  0  0  0  0  0  0  0
   -2.8116    5.2241  -18.5996 C   0  0  0  0  0  0  0  0  0  0  0  0
   -7.8020    4.7199  -18.0673 C   0  0  0  0  0  0  0  0  0  0  0  0
   -8.2504    4.5835  -19.3067 N   0  0  0  0  0  0  0  0  0  0  0  0
   -9.5714    4.4660  -19.4873 C   0  0  0  0  0  0  0  0  0  0  0  0
  -10.4766    4.2803  -18.4748 C   0  0  0  0  0  0  0  0  0  0  0  0
   -9.9726    4.1420  -17.2170 C   0  0  0  0  0  0  0  0  0  0  0  0
   -8.6613    4.4639  -16.9844 C   0  0  0  0  0  0  0  0  0  0  0  0
   -8.3142    4.6903  -15.6680 C   0  0  0  0  0  0  0  0  0  0  0  0
  1  2  1  0
  2  3  1  0
  2  4  1  0
  2  5  1  0
  5  6  2  0
  6  7  1  0
  7  8  1  0
  8  9  1  0
  9 10  2  0
  9 11  1  0
 11 12  2  0
 12 13  1  0
 13 14  2  0
 14 15  1  0
 15 16  2  0
 16 17  1  0
 17 18  2  0
 18 19  1  0
 18 20  1  0
 20 21  2  0
 13 22  1  0
 22 23  1  0
 23 24  1  0
 24 25  1  0
  7 26  2  0
 26 27  1  0
 27 28  2  0
 28 29  1  0
 29 30  2  0
 30 31  1  0
 31 32  2  0
 32  5  1  0
 21 11  1  0
 31 26  1  0
 25 12  1  0
 21 15  1  0
M  END
>  <energy_score>  (976) 
-20.839797

>  <alias>  (976) 
None

>  <HIPPO Pose ID>  (976) 
70410

>  <smiles>  (976) 
CC(C)(C)c1cc(NC(=O)c2c3c(nc4ccc(Br)cc24)CCCC3)c2ncccc2c1

>  <inchikey>  (976) 
HFKQZZNTCKNODC-UHFFFAOYSA-N

>  <distance_score>  (976) 
1.401305

>  <ref_mols>  (976) 
Z0917a,Z0852a

>  <ref_pdb>  (976) 
Z0852a

>  <HIPPO Compound ID>  (976) 
142412

>  <name>  (976) 
P70410

>  <inspiration_score>  (976) 
None

$$$$
P70411
     RDKit          3D

 32 36  0  0  0  0  0  0  0  0999 V2000
   -5.9186    4.1397  -20.5179 O   0  0  0  0  0  0  0  0  0  0  0  0
   -5.3021    4.9057  -19.8795 C   0  0  0  0  0  0  0  0  0  0  0  0
   -5.5846    5.5022  -18.4602 N   0  0  0  0  0  0  0  0  0  0  0  0
   -6.6044    5.2100  -17.5311 C   0  0  0  0  0  0  0  0  0  0  0  0
   -6.3840    5.5432  -16.1770 C   0  0  0  0  0  0  0  0  0  0  0  0
   -7.3619    5.2911  -15.1932 C   0  0  0  0  0  0  0  0  0  0  0  0
   -7.2581    5.7867  -13.7759 C   0  0  0  0  0  0  0  0  0  0  0  0
   -8.3464    5.4803  -13.0102 F   0  0  0  0  0  0  0  0  0  0  0  0
   -6.1784    5.2987  -13.1164 F   0  0  0  0  0  0  0  0  0  0  0  0
   -7.1610    7.1457  -13.7226 F   0  0  0  0  0  0  0  0  0  0  0  0
   -8.5333    4.6562  -15.5654 C   0  0  0  0  0  0  0  0  0  0  0  0
   -8.7892    4.4571  -16.9058 C   0  0  0  0  0  0  0  0  0  0  0  0
  -10.0832    4.1642  -17.2477 C   0  0  0  0  0  0  0  0  0  0  0  0
  -10.4964    4.3363  -18.5315 C   0  0  0  0  0  0  0  0  0  0  0  0
   -9.5208    4.5034  -19.4730 C   0  0  0  0  0  0  0  0  0  0  0  0
   -8.2169    4.6164  -19.1870 N   0  0  0  0  0  0  0  0  0  0  0  0
   -7.8481    4.7103  -17.9133 C   0  0  0  0  0  0  0  0  0  0  0  0
   -3.9889    5.3592  -20.4108 C   0  0  0  0  0  0  0  0  0  0  0  0
   -2.8362    5.1296  -19.6554 C   0  0  0  0  0  0  0  0  0  0  0  0
   -1.6284    5.5705  -20.1857 C   0  0  0  0  0  0  0  0  0  0  0  0
   -1.5094    6.1399  -21.3966 N   0  0  0  0  0  0  0  0  0  0  0  0
   -2.6063    6.3184  -22.1323 C   0  0  0  0  0  0  0  0  0  0  0  0
   -2.4277    6.9212  -23.3673 C   0  0  0  0  0  0  0  0  0  0  0  0
   -3.5030    7.2371  -24.1908 C   0  0  0  0  0  0  0  0  0  0  0  0
   -4.7861    6.9361  -23.7656 C   0  0  0  0  0  0  0  0  0  0  0  0
   -6.2406    7.4328  -24.8589 Br  0  0  0  0  0  0  0  0  0  0  0  0
   -4.9894    6.2977  -22.5406 C   0  0  0  0  0  0  0  0  0  0  0  0
   -3.9000    5.9730  -21.6925 C   0  0  0  0  0  0  0  0  0  0  0  0
   -0.3858    5.4525  -19.3405 C   0  0  0  0  0  0  0  0  0  0  0  0
   -0.6831    5.9045  -17.9057 C   0  0  0  0  0  0  0  0  0  0  0  0
   -2.0136    5.3636  -17.3460 C   0  0  0  0  0  0  0  0  0  0  0  0
   -2.7479    4.4402  -18.3240 C   0  0  0  0  0  0  0  0  0  0  0  0
  1  2  2  0
  2  3  1  0
  3  4  1  0
  4  5  2  0
  5  6  1  0
  6  7  1  0
  7  8  1  0
  7  9  1  0
  7 10  1  0
  6 11  2  0
 11 12  1  0
 12 13  2  0
 13 14  1  0
 14 15  2  0
 15 16  1  0
 16 17  2  0
  2 18  1  0
 18 19  2  0
 19 20  1  0
 20 21  2  0
 21 22  1  0
 22 23  2  0
 23 24  1  0
 24 25  2  0
 25 26  1  0
 25 27  1  0
 27 28  2  0
 20 29  1  0
 29 30  1  0
 30 31  1  0
 31 32  1  0
 17  4  1  0
 28 18  1  0
 17 12  1  0
 32 19  1  0
 28 22  1  0
M  END
>  <energy_score>  (977) 
-12.048316

>  <alias>  (977) 
None

>  <HIPPO Pose ID>  (977) 
70411

>  <smiles>  (977) 
O=C(Nc1cc(C(F)(F)F)cc2cccnc12)c1c2c(nc3ccc(Br)cc13)CCCC2

>  <inchikey>  (977) 
NVDOSAFDRKFYFI-UHFFFAOYSA-N

>  <distance_score>  (977) 
1.07618

>  <ref_mols>  (977) 
Z0917a,Z0852a

>  <ref_pdb>  (977) 
Z0852a

>  <HIPPO Compound ID>  (977) 
142413

>  <name>  (977) 
P70411

>  <inspiration_score>  (977) 
None

$$$$
P70412
     RDKit          3D

 32 36  0  0  0  0  0  0  0  0999 V2000
   -1.7995    5.2650  -16.2141 C   0  0  0  0  0  0  0  0  0  0  0  0
   -1.6986    5.3595  -17.7091 C   0  0  0  0  0  0  0  0  0  0  0  0
   -0.5659    5.8825  -18.3215 C   0  0  0  0  0  0  0  0  0  0  0  0
   -0.5610    6.0985  -19.7003 C   0  0  0  0  0  0  0  0  0  0  0  0
   -1.6967    5.9142  -20.4749 C   0  0  0  0  0  0  0  0  0  0  0  0
   -1.6515    6.3251  -21.7477 N   0  0  0  0  0  0  0  0  0  0  0  0
   -2.7886    6.3721  -22.4762 C   0  0  0  0  0  0  0  0  0  0  0  0
   -4.0200    5.9644  -21.9840 C   0  0  0  0  0  0  0  0  0  0  0  0
   -4.0297    5.4211  -20.6892 C   0  0  0  0  0  0  0  0  0  0  0  0
   -5.3148    4.9256  -20.1204 C   0  0  0  0  0  0  0  0  0  0  0  0
   -5.8833    4.0566  -20.6578 O   0  0  0  0  0  0  0  0  0  0  0  0
   -5.6167    5.6485  -18.7802 N   0  0  0  0  0  0  0  0  0  0  0  0
   -6.5916    5.3952  -17.8128 C   0  0  0  0  0  0  0  0  0  0  0  0
   -6.2610    5.7943  -16.5141 C   0  0  0  0  0  0  0  0  0  0  0  0
   -7.0907    5.5255  -15.4141 C   0  0  0  0  0  0  0  0  0  0  0  0
   -6.6709    5.9487  -14.0213 C   0  0  0  0  0  0  0  0  0  0  0  0
   -7.7156    5.6441  -12.9290 C   0  0  0  0  0  0  0  0  0  0  0  0
   -5.3811    5.1868  -13.6891 C   0  0  0  0  0  0  0  0  0  0  0  0
   -6.3881    7.4654  -13.9580 C   0  0  0  0  0  0  0  0  0  0  0  0
   -8.2702    4.8393  -15.6457 C   0  0  0  0  0  0  0  0  0  0  0  0
   -8.6489    4.5642  -16.9462 C   0  0  0  0  0  0  0  0  0  0  0  0
   -9.9434    4.1618  -17.1473 C   0  0  0  0  0  0  0  0  0  0  0  0
  -10.4763    4.2373  -18.4009 C   0  0  0  0  0  0  0  0  0  0  0  0
   -9.6040    4.4674  -19.4345 C   0  0  0  0  0  0  0  0  0  0  0  0
   -8.2880    4.6470  -19.2813 N   0  0  0  0  0  0  0  0  0  0  0  0
   -7.8237    4.8151  -18.0514 C   0  0  0  0  0  0  0  0  0  0  0  0
   -2.8567    5.4034  -19.8795 C   0  0  0  0  0  0  0  0  0  0  0  0
   -2.7891    5.0142  -18.5107 C   0  0  0  0  0  0  0  0  0  0  0  0
   -5.2906    6.2847  -22.7266 C   0  0  0  0  0  0  0  0  0  0  0  0
   -5.1133    6.8013  -24.1572 C   0  0  0  0  0  0  0  0  0  0  0  0
   -3.9054    7.7177  -24.2749 C   0  0  0  0  0  0  0  0  0  0  0  0
   -2.6510    6.9597  -23.8559 C   0  0  0  0  0  0  0  0  0  0  0  0
  1  2  1  0
  2  3  2  0
  3  4  1  0
  4  5  2  0
  5  6  1  0
  6  7  2  0
  7  8  1  0
  8  9  2  0
  9 10  1  0
 10 11  2  0
 10 12  1  0
 12 13  1  0
 13 14  2  0
 14 15  1  0
 15 16  1  0
 16 17  1  0
 16 18  1  0
 16 19  1  0
 15 20  2  0
 20 21  1  0
 21 22  2  0
 22 23  1  0
 23 24  2  0
 24 25  1  0
 25 26  2  0
  9 27  1  0
 27 28  2  0
  8 29  1  0
 29 30  1  0
 30 31  1  0
 31 32  1  0
 28  2  1  0
 27  5  1  0
 32  7  1  0
 26 13  1  0
 26 21  1  0
M  END
>  <energy_score>  (978) 
-24.59189

>  <alias>  (978) 
None

>  <HIPPO Pose ID>  (978) 
70412

>  <smiles>  (978) 
Cc1ccc2nc3c(c(C(=O)Nc4cc(C(C)(C)C)cc5cccnc45)c2c1)CCCC3

>  <inchikey>  (978) 
JCXFWAPFDMLBHA-UHFFFAOYSA-N

>  <distance_score>  (978) 
1.323303

>  <ref_mols>  (978) 
Z0917a,Z0852a

>  <ref_pdb>  (978) 
Z0852a

>  <HIPPO Compound ID>  (978) 
142414

>  <name>  (978) 
P70412

>  <inspiration_score>  (978) 
None

$$$$
P70413
     RDKit          3D

 32 36  0  0  0  0  0  0  0  0999 V2000
   -1.6030    5.3186  -15.7029 C   0  0  0  0  0  0  0  0  0  0  0  0
   -1.5620    5.4846  -17.1941 C   0  0  0  0  0  0  0  0  0  0  0  0
   -0.4447    6.0288  -17.8175 C   0  0  0  0  0  0  0  0  0  0  0  0
   -0.4553    6.2414  -19.1963 C   0  0  0  0  0  0  0  0  0  0  0  0
   -1.5885    6.0230  -19.9650 C   0  0  0  0  0  0  0  0  0  0  0  0
   -1.5339    6.3764  -21.2545 N   0  0  0  0  0  0  0  0  0  0  0  0
   -2.6520    6.3387  -22.0088 C   0  0  0  0  0  0  0  0  0  0  0  0
   -3.8830    5.9614  -21.4942 C   0  0  0  0  0  0  0  0  0  0  0  0
   -3.9073    5.4883  -20.1652 C   0  0  0  0  0  0  0  0  0  0  0  0
   -5.1932    4.9546  -19.6325 C   0  0  0  0  0  0  0  0  0  0  0  0
   -5.7198    4.1087  -20.2462 O   0  0  0  0  0  0  0  0  0  0  0  0
   -5.5839    5.6085  -18.2748 N   0  0  0  0  0  0  0  0  0  0  0  0
   -6.6166    5.2979  -17.3788 C   0  0  0  0  0  0  0  0  0  0  0  0
   -6.4383    5.6368  -16.0249 C   0  0  0  0  0  0  0  0  0  0  0  0
   -7.4302    5.3484  -15.0721 C   0  0  0  0  0  0  0  0  0  0  0  0
   -7.3554    5.8279  -13.6501 C   0  0  0  0  0  0  0  0  0  0  0  0
   -6.2847    5.3395  -12.9774 F   0  0  0  0  0  0  0  0  0  0  0  0
   -7.2638    7.1870  -13.5845 F   0  0  0  0  0  0  0  0  0  0  0  0
   -8.4571    5.5104  -12.9109 F   0  0  0  0  0  0  0  0  0  0  0  0
   -8.5757    4.6872  -15.4796 C   0  0  0  0  0  0  0  0  0  0  0  0
   -8.7910    4.4827  -16.8284 C   0  0  0  0  0  0  0  0  0  0  0  0
  -10.0648    4.1554  -17.2108 C   0  0  0  0  0  0  0  0  0  0  0  0
  -10.4409    4.3011  -18.5098 C   0  0  0  0  0  0  0  0  0  0  0  0
   -9.4433    4.4832  -19.4252 C   0  0  0  0  0  0  0  0  0  0  0  0
   -8.1542    4.6520  -19.0981 N   0  0  0  0  0  0  0  0  0  0  0  0
   -7.8300    4.7594  -17.8081 C   0  0  0  0  0  0  0  0  0  0  0  0
   -2.7448    5.5179  -19.3531 C   0  0  0  0  0  0  0  0  0  0  0  0
   -2.6694    5.1501  -17.9805 C   0  0  0  0  0  0  0  0  0  0  0  0
   -5.1374    6.1067  -22.3114 C   0  0  0  0  0  0  0  0  0  0  0  0
   -4.9735    6.9019  -23.6079 C   0  0  0  0  0  0  0  0  0  0  0  0
   -3.6720    6.5546  -24.3141 C   0  0  0  0  0  0  0  0  0  0  0  0
   -2.4893    6.8673  -23.4086 C   0  0  0  0  0  0  0  0  0  0  0  0
  1  2  1  0
  2  3  2  0
  3  4  1  0
  4  5  2  0
  5  6  1  0
  6  7  2  0
  7  8  1  0
  8  9  2  0
  9 10  1  0
 10 11  2  0
 10 12  1  0
 12 13  1  0
 13 14  2  0
 14 15  1  0
 15 16  1  0
 16 17  1  0
 16 18  1  0
 16 19  1  0
 15 20  2  0
 20 21  1  0
 21 22  2  0
 22 23  1  0
 23 24  2  0
 24 25  1  0
 25 26  2  0
  9 27  1  0
 27 28  2  0
  8 29  1  0
 29 30  1  0
 30 31  1  0
 31 32  1  0
 28  2  1  0
 27  5  1  0
 32  7  1  0
 26 13  1  0
 26 21  1  0
M  END
>  <energy_score>  (979) 
-23.267883

>  <alias>  (979) 
None

>  <HIPPO Pose ID>  (979) 
70413

>  <smiles>  (979) 
Cc1ccc2nc3c(c(C(=O)Nc4cc(C(F)(F)F)cc5cccnc45)c2c1)CCCC3

>  <inchikey>  (979) 
WEVUTQRRRUTFQP-UHFFFAOYSA-N

>  <distance_score>  (979) 
1.160949

>  <ref_mols>  (979) 
Z0917a,Z0852a

>  <ref_pdb>  (979) 
Z0852a

>  <HIPPO Compound ID>  (979) 
142415

>  <name>  (979) 
P70413

>  <inspiration_score>  (979) 
None

$$$$
P70414
     RDKit          3D

 32 35  0  0  0  0  0  0  0  0999 V2000
   -6.5576    4.6768  -12.9404 C   0  0  0  0  0  0  0  0  0  0  0  0
   -7.0294    5.8034  -13.8651 C   0  0  0  0  0  0  0  0  0  0  0  0
   -5.9878    6.9221  -13.8791 C   0  0  0  0  0  0  0  0  0  0  0  0
   -8.3098    6.4364  -13.2745 C   0  0  0  0  0  0  0  0  0  0  0  0
   -7.2372    5.2477  -15.2729 C   0  0  0  0  0  0  0  0  0  0  0  0
   -6.2868    5.3848  -16.3051 C   0  0  0  0  0  0  0  0  0  0  0  0
   -6.5730    5.0316  -17.6327 C   0  0  0  0  0  0  0  0  0  0  0  0
   -5.5627    5.2321  -18.5840 N   0  0  0  0  0  0  0  0  0  0  0  0
   -5.4079    4.6713  -20.0253 C   0  0  0  0  0  0  0  0  0  0  0  0
   -6.0595    3.8956  -20.6117 O   0  0  0  0  0  0  0  0  0  0  0  0
   -4.2249    5.2186  -20.7307 C   0  0  0  0  0  0  0  0  0  0  0  0
   -4.4777    5.6083  -22.0423 C   0  0  0  0  0  0  0  0  0  0  0  0
   -3.4166    6.0593  -22.7726 C   0  0  0  0  0  0  0  0  0  0  0  0
   -3.6142    6.6009  -24.3855 Cl  0  0  0  0  0  0  0  0  0  0  0  0
   -2.1671    6.1629  -22.2953 N   0  0  0  0  0  0  0  0  0  0  0  0
   -1.9056    5.7879  -21.0352 C   0  0  0  0  0  0  0  0  0  0  0  0
   -0.6189    5.9140  -20.5282 C   0  0  0  0  0  0  0  0  0  0  0  0
    0.6921    6.4519  -21.5777 S   0  0  0  0  0  0  0  0  0  0  0  0
    0.7713    7.8954  -21.4501 O   0  0  0  0  0  0  0  0  0  0  0  0
    0.6621    5.7785  -22.8576 O   0  0  0  0  0  0  0  0  0  0  0  0
    2.0337    5.9234  -20.8897 F   0  0  0  0  0  0  0  0  0  0  0  0
   -0.3121    5.6713  -19.1869 C   0  0  0  0  0  0  0  0  0  0  0  0
   -1.3117    5.2291  -18.3397 C   0  0  0  0  0  0  0  0  0  0  0  0
   -2.5788    4.9599  -18.8450 C   0  0  0  0  0  0  0  0  0  0  0  0
   -2.9216    5.3032  -20.1769 C   0  0  0  0  0  0  0  0  0  0  0  0
   -7.8539    4.6176  -17.9626 C   0  0  0  0  0  0  0  0  0  0  0  0
   -8.2735    4.5680  -19.2235 N   0  0  0  0  0  0  0  0  0  0  0  0
   -9.5894    4.5079  -19.4574 C   0  0  0  0  0  0  0  0  0  0  0  0
  -10.5304    4.3298  -18.4817 C   0  0  0  0  0  0  0  0  0  0  0  0
  -10.0699    4.1483  -17.2123 C   0  0  0  0  0  0  0  0  0  0  0  0
   -8.7579    4.4131  -16.9165 C   0  0  0  0  0  0  0  0  0  0  0  0
   -8.4363    4.6288  -15.5880 C   0  0  0  0  0  0  0  0  0  0  0  0
  1  2  1  0
  2  3  1  0
  2  4  1  0
  2  5  1  0
  5  6  2  0
  6  7  1  0
  7  8  1  0
  8  9  1  0
  9 10  2  0
  9 11  1  0
 11 12  2  0
 12 13  1  0
 13 14  1  0
 13 15  2  0
 15 16  1  0
 16 17  2  0
 17 18  1  0
 18 19  2  0
 18 20  2  0
 18 21  1  0
 17 22  1  0
 22 23  2  0
 23 24  1  0
 24 25  2  0
  7 26  2  0
 26 27  1  0
 27 28  2  0
 28 29  1  0
 29 30  2  0
 30 31  1  0
 31 32  2  0
 32  5  1  0
 25 11  1  0
 31 26  1  0
 25 16  1  0
M  END
>  <energy_score>  (980) 
-36.056042

>  <alias>  (980) 
None

>  <HIPPO Pose ID>  (980) 
70414

>  <smiles>  (980) 
CC(C)(C)c1cc(NC(=O)c2cc(Cl)nc3c(S(=O)(=O)F)cccc23)c2ncccc2c1

>  <inchikey>  (980) 
LCLFIYQMFALFJU-UHFFFAOYSA-N

>  <distance_score>  (980) 
1.281012

>  <ref_mols>  (980) 
Z0917a,Z0852a

>  <ref_pdb>  (980) 
Z0852a

>  <HIPPO Compound ID>  (980) 
142418

>  <name>  (980) 
P70414

>  <inspiration_score>  (980) 
None

$$$$
P70415
     RDKit          3D

 32 35  0  0  0  0  0  0  0  0999 V2000
   -5.9287    3.9654  -20.3586 O   0  0  0  0  0  0  0  0  0  0  0  0
   -5.3197    4.7681  -19.7613 C   0  0  0  0  0  0  0  0  0  0  0  0
   -5.6084    5.4350  -18.3831 N   0  0  0  0  0  0  0  0  0  0  0  0
   -6.6240    5.1872  -17.4456 C   0  0  0  0  0  0  0  0  0  0  0  0
   -6.4082    5.5254  -16.0973 C   0  0  0  0  0  0  0  0  0  0  0  0
   -7.3999    5.2830  -15.1272 C   0  0  0  0  0  0  0  0  0  0  0  0
   -7.3011    5.7800  -13.7110 C   0  0  0  0  0  0  0  0  0  0  0  0
   -8.3906    5.4738  -12.9487 F   0  0  0  0  0  0  0  0  0  0  0  0
   -6.2211    5.2950  -13.0500 F   0  0  0  0  0  0  0  0  0  0  0  0
   -7.2042    7.1392  -13.6618 F   0  0  0  0  0  0  0  0  0  0  0  0
   -8.5738    4.6553  -15.5106 C   0  0  0  0  0  0  0  0  0  0  0  0
   -8.8217    4.4571  -16.8541 C   0  0  0  0  0  0  0  0  0  0  0  0
  -10.1082    4.1577  -17.2197 C   0  0  0  0  0  0  0  0  0  0  0  0
  -10.5085    4.3327  -18.5082 C   0  0  0  0  0  0  0  0  0  0  0  0
   -9.5250    4.5201  -19.4362 C   0  0  0  0  0  0  0  0  0  0  0  0
   -8.2269    4.6431  -19.1294 N   0  0  0  0  0  0  0  0  0  0  0  0
   -7.8722    4.7115  -17.8471 C   0  0  0  0  0  0  0  0  0  0  0  0
   -4.0634    5.2264  -20.4031 C   0  0  0  0  0  0  0  0  0  0  0  0
   -4.1824    5.4860  -21.7685 C   0  0  0  0  0  0  0  0  0  0  0  0
   -3.0452    5.8332  -22.4408 C   0  0  0  0  0  0  0  0  0  0  0  0
   -3.0720    6.1958  -24.1142 Cl  0  0  0  0  0  0  0  0  0  0  0  0
   -1.8403    5.9639  -21.8606 N   0  0  0  0  0  0  0  0  0  0  0  0
   -1.7123    5.7271  -20.5450 C   0  0  0  0  0  0  0  0  0  0  0  0
   -0.4846    5.9090  -19.9196 C   0  0  0  0  0  0  0  0  0  0  0  0
    0.9221    6.3458  -20.8892 S   0  0  0  0  0  0  0  0  0  0  0  0
    2.0838    5.7209  -20.2771 O   0  0  0  0  0  0  0  0  0  0  0  0
    0.8758    7.7850  -21.0727 O   0  0  0  0  0  0  0  0  0  0  0  0
    0.8049    5.7003  -22.3346 F   0  0  0  0  0  0  0  0  0  0  0  0
   -0.3108    5.7701  -18.5387 C   0  0  0  0  0  0  0  0  0  0  0  0
   -1.3812    5.3636  -17.7625 C   0  0  0  0  0  0  0  0  0  0  0  0
   -2.5950    5.0630  -18.3713 C   0  0  0  0  0  0  0  0  0  0  0  0
   -2.8119    5.3270  -19.7474 C   0  0  0  0  0  0  0  0  0  0  0  0
  1  2  2  0
  2  3  1  0
  3  4  1  0
  4  5  2  0
  5  6  1  0
  6  7  1  0
  7  8  1  0
  7  9  1  0
  7 10  1  0
  6 11  2  0
 11 12  1  0
 12 13  2  0
 13 14  1  0
 14 15  2  0
 15 16  1  0
 16 17  2  0
  2 18  1  0
 18 19  2  0
 19 20  1  0
 20 21  1  0
 20 22  2  0
 22 23  1  0
 23 24  2  0
 24 25  1  0
 25 26  2  0
 25 27  2  0
 25 28  1  0
 24 29  1  0
 29 30  2  0
 30 31  1  0
 31 32  2  0
 17  4  1  0
 32 18  1  0
 17 12  1  0
 32 23  1  0
M  END
>  <energy_score>  (981) 
-17.468636

>  <alias>  (981) 
None

>  <HIPPO Pose ID>  (981) 
70415

>  <smiles>  (981) 
O=C(Nc1cc(C(F)(F)F)cc2cccnc12)c1cc(Cl)nc2c(S(=O)(=O)F)cccc12

>  <inchikey>  (981) 
WCVAFKBMSHERGX-UHFFFAOYSA-N

>  <distance_score>  (981) 
1.060157

>  <ref_mols>  (981) 
Z0917a,Z0852a

>  <ref_pdb>  (981) 
Z0852a

>  <HIPPO Compound ID>  (981) 
142419

>  <name>  (981) 
P70415

>  <inspiration_score>  (981) 
None

$$$$
P70416
     RDKit          3D

 32 36  0  0  0  0  0  0  0  0999 V2000
   -2.2244    5.4034  -16.0425 C   0  0  0  0  0  0  0  0  0  0  0  0
   -2.1658    5.6717  -17.4693 N   0  0  0  0  0  0  0  0  0  0  0  0
   -0.8228    6.1200  -17.9089 C   0  0  0  0  0  0  0  0  0  0  0  0
   -0.4529    5.7809  -19.3760 C   0  0  0  0  0  0  0  0  0  0  0  0
   -1.6854    5.7226  -20.2443 C   0  0  0  0  0  0  0  0  0  0  0  0
   -1.6245    6.2550  -21.4811 N   0  0  0  0  0  0  0  0  0  0  0  0
   -2.7507    6.3238  -22.2000 C   0  0  0  0  0  0  0  0  0  0  0  0
   -2.6740    6.9004  -23.4621 C   0  0  0  0  0  0  0  0  0  0  0  0
   -3.8008    7.0795  -24.2650 C   0  0  0  0  0  0  0  0  0  0  0  0
   -5.0381    6.6731  -23.7964 C   0  0  0  0  0  0  0  0  0  0  0  0
   -5.1280    6.0781  -22.5381 C   0  0  0  0  0  0  0  0  0  0  0  0
   -3.9958    5.8830  -21.7145 C   0  0  0  0  0  0  0  0  0  0  0  0
   -4.0162    5.3001  -20.4181 C   0  0  0  0  0  0  0  0  0  0  0  0
   -5.2855    4.7742  -19.8501 C   0  0  0  0  0  0  0  0  0  0  0  0
   -5.8787    3.9888  -20.4869 O   0  0  0  0  0  0  0  0  0  0  0  0
   -5.5497    5.3160  -18.4084 N   0  0  0  0  0  0  0  0  0  0  0  0
   -6.6183    5.0779  -17.5250 C   0  0  0  0  0  0  0  0  0  0  0  0
   -6.4286    5.4083  -16.1643 C   0  0  0  0  0  0  0  0  0  0  0  0
   -7.4306    5.1878  -15.1999 C   0  0  0  0  0  0  0  0  0  0  0  0
   -7.3938    5.6849  -13.7538 C   0  0  0  0  0  0  0  0  0  0  0  0
   -6.0423    6.2712  -13.3359 C   0  0  0  0  0  0  0  0  0  0  0  0
   -7.7800    4.5734  -12.7598 C   0  0  0  0  0  0  0  0  0  0  0  0
   -8.4153    6.8188  -13.6166 C   0  0  0  0  0  0  0  0  0  0  0  0
   -8.6061    4.5860  -15.6285 C   0  0  0  0  0  0  0  0  0  0  0  0
   -8.8407    4.4107  -16.9744 C   0  0  0  0  0  0  0  0  0  0  0  0
  -10.1420    4.1927  -17.3474 C   0  0  0  0  0  0  0  0  0  0  0  0
  -10.5111    4.4067  -18.6347 C   0  0  0  0  0  0  0  0  0  0  0  0
   -9.5025    4.4985  -19.5497 C   0  0  0  0  0  0  0  0  0  0  0  0
   -8.2011    4.5369  -19.2359 N   0  0  0  0  0  0  0  0  0  0  0  0
   -7.8640    4.6253  -17.9509 C   0  0  0  0  0  0  0  0  0  0  0  0
   -2.8362    5.1743  -19.6890 C   0  0  0  0  0  0  0  0  0  0  0  0
   -2.6661    4.5874  -18.3156 C   0  0  0  0  0  0  0  0  0  0  0  0
  1  2  1  0
  2  3  1  0
  3  4  1  0
  4  5  1  0
  5  6  2  0
  6  7  1  0
  7  8  2  0
  8  9  1  0
  9 10  2  0
 10 11  1  0
 11 12  2  0
 12 13  1  0
 13 14  1  0
 14 15  2  0
 14 16  1  0
 16 17  1  0
 17 18  2  0
 18 19  1  0
 19 20  1  0
 20 21  1  0
 20 22  1  0
 20 23  1  0
 19 24  2  0
 24 25  1  0
 25 26  2  0
 26 27  1  0
 27 28  2  0
 28 29  1  0
 29 30  2  0
 13 31  2  0
 31 32  1  0
 32  2  1  0
 31  5  1  0
 12  7  1  0
 30 17  1  0
 30 25  1  0
M  END
>  <energy_score>  (982) 
-26.728387

>  <alias>  (982) 
None

>  <HIPPO Pose ID>  (982) 
70416

>  <smiles>  (982) 
CN1CCc2nc3ccccc3c(C(=O)Nc3cc(C(C)(C)C)cc4cccnc34)c2C1

>  <inchikey>  (982) 
BSRRWBGTVQHAHW-UHFFFAOYSA-N

>  <distance_score>  (982) 
1.395237

>  <ref_mols>  (982) 
Z0917a,Z0852a

>  <ref_pdb>  (982) 
Z0852a

>  <HIPPO Compound ID>  (982) 
142421

>  <name>  (982) 
P70416

>  <inspiration_score>  (982) 
None

$$$$
P70417
     RDKit          3D

 32 36  0  0  0  0  0  0  0  0999 V2000
   -2.1667    5.4531  -16.0265 C   0  0  0  0  0  0  0  0  0  0  0  0
   -2.1229    5.7088  -17.4564 N   0  0  0  0  0  0  0  0  0  0  0  0
   -0.7763    6.1242  -17.9160 C   0  0  0  0  0  0  0  0  0  0  0  0
   -0.4291    5.7608  -19.3818 C   0  0  0  0  0  0  0  0  0  0  0  0
   -1.6710    5.7130  -20.2367 C   0  0  0  0  0  0  0  0  0  0  0  0
   -1.6103    6.2257  -21.4818 N   0  0  0  0  0  0  0  0  0  0  0  0
   -2.7385    6.2982  -22.1962 C   0  0  0  0  0  0  0  0  0  0  0  0
   -2.6600    6.8590  -23.4653 C   0  0  0  0  0  0  0  0  0  0  0  0
   -3.7877    7.0428  -24.2655 C   0  0  0  0  0  0  0  0  0  0  0  0
   -5.0276    6.6565  -23.7871 C   0  0  0  0  0  0  0  0  0  0  0  0
   -5.1188    6.0759  -22.5220 C   0  0  0  0  0  0  0  0  0  0  0  0
   -3.9859    5.8770  -21.6997 C   0  0  0  0  0  0  0  0  0  0  0  0
   -4.0066    5.3113  -20.3943 C   0  0  0  0  0  0  0  0  0  0  0  0
   -5.2805    4.8062  -19.8158 C   0  0  0  0  0  0  0  0  0  0  0  0
   -5.8994    4.0394  -20.4503 O   0  0  0  0  0  0  0  0  0  0  0  0
   -5.5212    5.3533  -18.3718 N   0  0  0  0  0  0  0  0  0  0  0  0
   -6.5921    5.1444  -17.4824 C   0  0  0  0  0  0  0  0  0  0  0  0
   -6.3991    5.5047  -16.1326 C   0  0  0  0  0  0  0  0  0  0  0  0
   -7.3997    5.2843  -15.1670 C   0  0  0  0  0  0  0  0  0  0  0  0
   -7.3047    5.7877  -13.7526 C   0  0  0  0  0  0  0  0  0  0  0  0
   -6.2212    5.3169  -13.0873 F   0  0  0  0  0  0  0  0  0  0  0  0
   -8.3924    5.4747  -12.9895 F   0  0  0  0  0  0  0  0  0  0  0  0
   -7.2224    7.1484  -13.7076 F   0  0  0  0  0  0  0  0  0  0  0  0
   -8.5757    4.6687  -15.5569 C   0  0  0  0  0  0  0  0  0  0  0  0
   -8.8076    4.4566  -16.9007 C   0  0  0  0  0  0  0  0  0  0  0  0
  -10.0985    4.1828  -17.2692 C   0  0  0  0  0  0  0  0  0  0  0  0
  -10.4805    4.3522  -18.5622 C   0  0  0  0  0  0  0  0  0  0  0  0
   -9.4821    4.4818  -19.4845 C   0  0  0  0  0  0  0  0  0  0  0  0
   -8.1824    4.5721  -19.1724 N   0  0  0  0  0  0  0  0  0  0  0  0
   -7.8390    4.6738  -17.8902 C   0  0  0  0  0  0  0  0  0  0  0  0
   -2.8261    5.1900  -19.6655 C   0  0  0  0  0  0  0  0  0  0  0  0
   -2.6560    4.6244  -18.2835 C   0  0  0  0  0  0  0  0  0  0  0  0
  1  2  1  0
  2  3  1  0
  3  4  1  0
  4  5  1  0
  5  6  2  0
  6  7  1  0
  7  8  2  0
  8  9  1  0
  9 10  2  0
 10 11  1  0
 11 12  2  0
 12 13  1  0
 13 14  1  0
 14 15  2  0
 14 16  1  0
 16 17  1  0
 17 18  2  0
 18 19  1  0
 19 20  1  0
 20 21  1  0
 20 22  1  0
 20 23  1  0
 19 24  2  0
 24 25  1  0
 25 26  2  0
 26 27  1  0
 27 28  2  0
 28 29  1  0
 29 30  2  0
 13 31  2  0
 31 32  1  0
 32  2  1  0
 31  5  1  0
 12  7  1  0
 30 17  1  0
 30 25  1  0
M  END
>  <energy_score>  (983) 
-16.662747

>  <alias>  (983) 
None

>  <HIPPO Pose ID>  (983) 
70417

>  <smiles>  (983) 
CN1CCc2nc3ccccc3c(C(=O)Nc3cc(C(F)(F)F)cc4cccnc34)c2C1

>  <inchikey>  (983) 
WXKHRCJXEHVGAW-UHFFFAOYSA-N

>  <distance_score>  (983) 
1.075289

>  <ref_mols>  (983) 
Z0917a,Z0852a

>  <ref_pdb>  (983) 
Z0852a

>  <HIPPO Compound ID>  (983) 
142422

>  <name>  (983) 
P70417

>  <inspiration_score>  (983) 
None

$$$$
P70418
     RDKit          3D

 32 36  0  0  0  0  0  0  0  0999 V2000
   -7.6495    5.6306  -12.9195 C   0  0  0  0  0  0  0  0  0  0  0  0
   -6.6708    6.0470  -14.0360 C   0  0  0  0  0  0  0  0  0  0  0  0
   -5.3234    5.3540  -13.7876 C   0  0  0  0  0  0  0  0  0  0  0  0
   -6.4800    7.5742  -13.9130 C   0  0  0  0  0  0  0  0  0  0  0  0
   -7.1179    5.6517  -15.4289 C   0  0  0  0  0  0  0  0  0  0  0  0
   -6.3598    6.0290  -16.5500 C   0  0  0  0  0  0  0  0  0  0  0  0
   -6.6915    5.6263  -17.8483 C   0  0  0  0  0  0  0  0  0  0  0  0
   -5.7905    6.0089  -18.8475 N   0  0  0  0  0  0  0  0  0  0  0  0
   -5.3820    5.2951  -20.1624 C   0  0  0  0  0  0  0  0  0  0  0  0
   -5.7917    4.3156  -20.6519 O   0  0  0  0  0  0  0  0  0  0  0  0
   -4.2099    5.9881  -20.7841 C   0  0  0  0  0  0  0  0  0  0  0  0
   -3.0253    6.0904  -20.0290 C   0  0  0  0  0  0  0  0  0  0  0  0
   -1.8610    6.4281  -20.7252 C   0  0  0  0  0  0  0  0  0  0  0  0
   -1.8553    6.7666  -22.0300 N   0  0  0  0  0  0  0  0  0  0  0  0
   -2.9957    6.7298  -22.7229 C   0  0  0  0  0  0  0  0  0  0  0  0
   -2.9489    7.1045  -24.0606 C   0  0  0  0  0  0  0  0  0  0  0  0
   -4.0846    7.1018  -24.8701 C   0  0  0  0  0  0  0  0  0  0  0  0
   -5.2959    6.7043  -24.3325 C   0  0  0  0  0  0  0  0  0  0  0  0
   -5.3499    6.3152  -22.9941 C   0  0  0  0  0  0  0  0  0  0  0  0
   -4.2156    6.3308  -22.1577 C   0  0  0  0  0  0  0  0  0  0  0  0
   -0.4942    6.3293  -20.0851 C   0  0  0  0  0  0  0  0  0  0  0  0
   -0.1775    4.9885  -19.3896 C   0  0  0  0  0  0  0  0  0  0  0  0
   -1.2678    3.9090  -19.5034 C   0  0  0  0  0  0  0  0  0  0  0  0
   -2.4491    4.1977  -18.5748 C   0  0  0  0  0  0  0  0  0  0  0  0
   -2.8667    5.6454  -18.5995 C   0  0  0  0  0  0  0  0  0  0  0  0
   -7.8583    4.9178  -18.0568 C   0  0  0  0  0  0  0  0  0  0  0  0
   -8.3270    4.7135  -19.2767 N   0  0  0  0  0  0  0  0  0  0  0  0
   -9.6319    4.4601  -19.4058 C   0  0  0  0  0  0  0  0  0  0  0  0
  -10.4703    4.1772  -18.3557 C   0  0  0  0  0  0  0  0  0  0  0  0
   -9.9124    4.1267  -17.1104 C   0  0  0  0  0  0  0  0  0  0  0  0
   -8.6382    4.5983  -16.9351 C   0  0  0  0  0  0  0  0  0  0  0  0
   -8.2473    4.8810  -15.6408 C   0  0  0  0  0  0  0  0  0  0  0  0
  1  2  1  0
  2  3  1  0
  2  4  1  0
  2  5  1  0
  5  6  2  0
  6  7  1  0
  7  8  1  0
  8  9  1  0
  9 10  2  0
  9 11  1  0
 11 12  2  0
 12 13  1  0
 13 14  2  0
 14 15  1  0
 15 16  2  0
 16 17  1  0
 17 18  2  0
 18 19  1  0
 19 20  2  0
 13 21  1  0
 21 22  1  0
 22 23  1  0
 23 24  1  0
 24 25  1  0
  7 26  2  0
 26 27  1  0
 27 28  2  0
 28 29  1  0
 29 30  2  0
 30 31  1  0
 31 32  2  0
 32  5  1  0
 20 11  1  0
 31 26  1  0
 25 12  1  0
 20 15  1  0
M  END
>  <energy_score>  (984) 
-138.297794

>  <alias>  (984) 
None

>  <HIPPO Pose ID>  (984) 
70418

>  <smiles>  (984) 
CC(C)(C)c1cc(NC(=O)c2c3c(nc4ccccc24)CCCCC3)c2ncccc2c1

>  <inchikey>  (984) 
LTJAVFPRJVTXCT-UHFFFAOYSA-N

>  <distance_score>  (984) 
1.532166

>  <ref_mols>  (984) 
Z0917a,Z0852a

>  <ref_pdb>  (984) 
Z0852a

>  <HIPPO Compound ID>  (984) 
142423

>  <name>  (984) 
P70418

>  <inspiration_score>  (984) 
None

$$$$
P70419
     RDKit          3D

 32 36  0  0  0  0  0  0  0  0999 V2000
   -5.8888    4.0479  -20.4731 O   0  0  0  0  0  0  0  0  0  0  0  0
   -5.2714    4.8147  -19.8374 C   0  0  0  0  0  0  0  0  0  0  0  0
   -5.5078    5.3517  -18.3892 N   0  0  0  0  0  0  0  0  0  0  0  0
   -6.5743    5.1308  -17.4940 C   0  0  0  0  0  0  0  0  0  0  0  0
   -6.3788    5.4836  -16.1414 C   0  0  0  0  0  0  0  0  0  0  0  0
   -7.3824    5.2697  -15.1760 C   0  0  0  0  0  0  0  0  0  0  0  0
   -7.2881    5.7725  -13.7610 C   0  0  0  0  0  0  0  0  0  0  0  0
   -8.3795    5.4671  -13.0000 F   0  0  0  0  0  0  0  0  0  0  0  0
   -7.1952    7.1323  -13.7151 F   0  0  0  0  0  0  0  0  0  0  0  0
   -6.2101    5.2924  -13.0929 F   0  0  0  0  0  0  0  0  0  0  0  0
   -8.5624    4.6628  -15.5664 C   0  0  0  0  0  0  0  0  0  0  0  0
   -8.7949    4.4527  -16.9097 C   0  0  0  0  0  0  0  0  0  0  0  0
  -10.0884    4.1866  -17.2754 C   0  0  0  0  0  0  0  0  0  0  0  0
  -10.4702    4.3543  -18.5684 C   0  0  0  0  0  0  0  0  0  0  0  0
   -9.4716    4.4774  -19.4915 C   0  0  0  0  0  0  0  0  0  0  0  0
   -8.1710    4.5666  -19.1810 N   0  0  0  0  0  0  0  0  0  0  0  0
   -7.8249    4.6657  -17.9000 C   0  0  0  0  0  0  0  0  0  0  0  0
   -3.9949    5.3276  -20.4159 C   0  0  0  0  0  0  0  0  0  0  0  0
   -2.7912    5.1317  -19.7256 C   0  0  0  0  0  0  0  0  0  0  0  0
   -1.6234    5.5737  -20.3525 C   0  0  0  0  0  0  0  0  0  0  0  0
   -1.6102    6.1626  -21.5662 N   0  0  0  0  0  0  0  0  0  0  0  0
   -2.7574    6.3139  -22.2329 C   0  0  0  0  0  0  0  0  0  0  0  0
   -2.6982    6.9084  -23.4879 C   0  0  0  0  0  0  0  0  0  0  0  0
   -3.8407    7.1349  -24.2553 C   0  0  0  0  0  0  0  0  0  0  0  0
   -5.0748    6.7569  -23.7572 C   0  0  0  0  0  0  0  0  0  0  0  0
   -5.1453    6.1545  -22.5012 C   0  0  0  0  0  0  0  0  0  0  0  0
   -3.9979    5.9193  -21.7093 C   0  0  0  0  0  0  0  0  0  0  0  0
   -0.2834    5.4322  -19.6739 C   0  0  0  0  0  0  0  0  0  0  0  0
   -0.1176    6.2949  -18.4193 C   0  0  0  0  0  0  0  0  0  0  0  0
   -1.3819    6.6006  -17.6137 C   0  0  0  0  0  0  0  0  0  0  0  0
   -2.2661    5.4062  -17.2474 C   0  0  0  0  0  0  0  0  0  0  0  0
   -2.6635    4.4566  -18.3878 C   0  0  0  0  0  0  0  0  0  0  0  0
  1  2  2  0
  2  3  1  0
  3  4  1  0
  4  5  2  0
  5  6  1  0
  6  7  1  0
  7  8  1  0
  7  9  1  0
  7 10  1  0
  6 11  2  0
 11 12  1  0
 12 13  2  0
 13 14  1  0
 14 15  2  0
 15 16  1  0
 16 17  2  0
  2 18  1  0
 18 19  2  0
 19 20  1  0
 20 21  2  0
 21 22  1  0
 22 23  2  0
 23 24  1  0
 24 25  2  0
 25 26  1  0
 26 27  2  0
 20 28  1  0
 28 29  1  0
 29 30  1  0
 30 31  1  0
 31 32  1  0
 17  4  1  0
 27 18  1  0
 17 12  1  0
 32 19  1  0
 27 22  1  0
M  END
>  <energy_score>  (985) 
-17.202623

>  <alias>  (985) 
None

>  <HIPPO Pose ID>  (985) 
70419

>  <smiles>  (985) 
O=C(Nc1cc(C(F)(F)F)cc2cccnc12)c1c2c(nc3ccccc13)CCCCC2

>  <inchikey>  (985) 
VZUORNBTAQEYOW-UHFFFAOYSA-N

>  <distance_score>  (985) 
1.086032

>  <ref_mols>  (985) 
Z0917a,Z0852a

>  <ref_pdb>  (985) 
Z0852a

>  <HIPPO Compound ID>  (985) 
142424

>  <name>  (985) 
P70419

>  <inspiration_score>  (985) 
None

$$$$
P70420
     RDKit          3D

 32 36  0  0  0  0  0  0  0  0999 V2000
   -6.3718    5.1273  -11.5632 C   0  0  0  0  0  0  0  0  0  0  0  0
   -6.8599    4.9994  -12.8990 O   0  0  0  0  0  0  0  0  0  0  0  0
   -5.9190    5.1813  -13.8565 C   0  0  0  0  0  0  0  0  0  0  0  0
   -4.7449    5.4593  -13.6671 O   0  0  0  0  0  0  0  0  0  0  0  0
   -6.5108    5.0207  -15.2101 C   0  0  0  0  0  0  0  0  0  0  0  0
   -5.7255    5.3369  -16.3208 C   0  0  0  0  0  0  0  0  0  0  0  0
   -6.2017    5.1552  -17.6292 C   0  0  0  0  0  0  0  0  0  0  0  0
   -5.2971    5.4681  -18.6567 N   0  0  0  0  0  0  0  0  0  0  0  0
   -5.1200    4.8456  -20.0686 C   0  0  0  0  0  0  0  0  0  0  0  0
   -5.7493    4.0298  -20.6216 O   0  0  0  0  0  0  0  0  0  0  0  0
   -3.8858    5.3854  -20.7262 C   0  0  0  0  0  0  0  0  0  0  0  0
   -2.6201    5.2758  -20.0986 C   0  0  0  0  0  0  0  0  0  0  0  0
   -1.5376    5.8316  -20.7801 C   0  0  0  0  0  0  0  0  0  0  0  0
   -1.6703    6.3853  -22.0104 N   0  0  0  0  0  0  0  0  0  0  0  0
   -2.8577    6.4501  -22.6104 C   0  0  0  0  0  0  0  0  0  0  0  0
   -2.9141    7.0416  -23.8675 C   0  0  0  0  0  0  0  0  0  0  0  0
   -4.1156    7.2034  -24.5556 C   0  0  0  0  0  0  0  0  0  0  0  0
   -5.2897    6.7656  -23.9707 C   0  0  0  0  0  0  0  0  0  0  0  0
   -5.2382    6.1634  -22.7132 C   0  0  0  0  0  0  0  0  0  0  0  0
   -4.0258    5.9840  -22.0073 C   0  0  0  0  0  0  0  0  0  0  0  0
   -0.1183    5.9577  -20.2852 C   0  0  0  0  0  0  0  0  0  0  0  0
    0.2550    5.6463  -18.8405 C   0  0  0  0  0  0  0  0  0  0  0  0
   -0.6987    6.2587  -17.8281 C   0  0  0  0  0  0  0  0  0  0  0  0
   -2.0003    5.4777  -17.6429 C   0  0  0  0  0  0  0  0  0  0  0  0
   -2.4073    4.5538  -18.7959 C   0  0  0  0  0  0  0  0  0  0  0  0
   -7.5158    4.7318  -17.8471 C   0  0  0  0  0  0  0  0  0  0  0  0
   -8.0535    4.6768  -19.0688 N   0  0  0  0  0  0  0  0  0  0  0  0
   -9.3708    4.4460  -19.1983 C   0  0  0  0  0  0  0  0  0  0  0  0
  -10.2085    4.1900  -18.1419 C   0  0  0  0  0  0  0  0  0  0  0  0
   -9.6436    4.1537  -16.8867 C   0  0  0  0  0  0  0  0  0  0  0  0
   -8.3091    4.4699  -16.7122 C   0  0  0  0  0  0  0  0  0  0  0  0
   -7.8102    4.5714  -15.4118 C   0  0  0  0  0  0  0  0  0  0  0  0
  1  2  1  0
  2  3  1  0
  3  4  2  0
  3  5  1  0
  5  6  2  0
  6  7  1  0
  7  8  1  0
  8  9  1  0
  9 10  2  0
  9 11  1  0
 11 12  2  0
 12 13  1  0
 13 14  2  0
 14 15  1  0
 15 16  2  0
 16 17  1  0
 17 18  2  0
 18 19  1  0
 19 20  2  0
 13 21  1  0
 21 22  1  0
 22 23  1  0
 23 24  1  0
 24 25  1  0
  7 26  2  0
 26 27  1  0
 27 28  2  0
 28 29  1  0
 29 30  2  0
 30 31  1  0
 31 32  2  0
 32  5  1  0
 20 11  1  0
 31 26  1  0
 25 12  1  0
 20 15  1  0
M  END
>  <energy_score>  (986) 
-34.011934

>  <alias>  (986) 
None

>  <HIPPO Pose ID>  (986) 
70420

>  <smiles>  (986) 
COC(=O)c1cc(NC(=O)c2c3c(nc4ccccc24)CCCCC3)c2ncccc2c1

>  <inchikey>  (986) 
DKMNEARHXVBGJC-UHFFFAOYSA-N

>  <distance_score>  (986) 
1.656798

>  <ref_mols>  (986) 
Z0917a,Z0852a

>  <ref_pdb>  (986) 
Z0852a

>  <HIPPO Compound ID>  (986) 
142425

>  <name>  (986) 
P70420

>  <inspiration_score>  (986) 
None

$$$$
P70421
     RDKit          3D

 32 36  0  0  0  0  0  0  0  0999 V2000
   -0.2606    5.7745  -15.3470 C   0  0  0  0  0  0  0  0  0  0  0  0
   -1.4063    5.3556  -16.0809 O   0  0  0  0  0  0  0  0  0  0  0  0
   -1.3637    5.5251  -17.4375 C   0  0  0  0  0  0  0  0  0  0  0  0
   -0.2725    5.9627  -18.1735 C   0  0  0  0  0  0  0  0  0  0  0  0
   -0.3914    6.1203  -19.5566 C   0  0  0  0  0  0  0  0  0  0  0  0
   -1.5932    5.9308  -20.2191 C   0  0  0  0  0  0  0  0  0  0  0  0
   -1.6205    6.2133  -21.5320 N   0  0  0  0  0  0  0  0  0  0  0  0
   -2.8114    6.1762  -22.1359 C   0  0  0  0  0  0  0  0  0  0  0  0
   -3.9915    5.8718  -21.5002 C   0  0  0  0  0  0  0  0  0  0  0  0
   -3.9513    5.4584  -20.1780 C   0  0  0  0  0  0  0  0  0  0  0  0
   -5.2124    4.9341  -19.6071 C   0  0  0  0  0  0  0  0  0  0  0  0
   -5.7680    4.1147  -20.2306 O   0  0  0  0  0  0  0  0  0  0  0  0
   -5.5724    5.5741  -18.2380 N   0  0  0  0  0  0  0  0  0  0  0  0
   -6.6059    5.2786  -17.3393 C   0  0  0  0  0  0  0  0  0  0  0  0
   -6.4252    5.6089  -15.9853 C   0  0  0  0  0  0  0  0  0  0  0  0
   -7.4269    5.3330  -15.0395 C   0  0  0  0  0  0  0  0  0  0  0  0
   -7.3536    5.8104  -13.6174 C   0  0  0  0  0  0  0  0  0  0  0  0
   -8.4629    5.5045  -12.8845 F   0  0  0  0  0  0  0  0  0  0  0  0
   -7.2440    7.1674  -13.5473 F   0  0  0  0  0  0  0  0  0  0  0  0
   -6.2941    5.3036  -12.9395 F   0  0  0  0  0  0  0  0  0  0  0  0
   -8.5785    4.6849  -15.4526 C   0  0  0  0  0  0  0  0  0  0  0  0
   -8.7925    4.4848  -16.8023 C   0  0  0  0  0  0  0  0  0  0  0  0
  -10.0644    4.1549  -17.1912 C   0  0  0  0  0  0  0  0  0  0  0  0
  -10.4388    4.2978  -18.4915 C   0  0  0  0  0  0  0  0  0  0  0  0
   -9.4407    4.4926  -19.4026 C   0  0  0  0  0  0  0  0  0  0  0  0
   -8.1543    4.6701  -19.0683 N   0  0  0  0  0  0  0  0  0  0  0  0
   -7.8285    4.7624  -17.7765 C   0  0  0  0  0  0  0  0  0  0  0  0
   -2.7229    5.5040  -19.4784 C   0  0  0  0  0  0  0  0  0  0  0  0
   -2.5491    5.2083  -18.1034 C   0  0  0  0  0  0  0  0  0  0  0  0
   -5.1595    6.0897  -22.3978 C   0  0  0  0  0  0  0  0  0  0  0  0
   -4.5245    6.8206  -23.5908 C   0  0  0  0  0  0  0  0  0  0  0  0
   -3.0323    6.4742  -23.5887 C   0  0  0  0  0  0  0  0  0  0  0  0
  1  2  1  0
  2  3  1  0
  3  4  2  0
  4  5  1  0
  5  6  2  0
  6  7  1  0
  7  8  2  0
  8  9  1  0
  9 10  2  0
 10 11  1  0
 11 12  2  0
 11 13  1  0
 13 14  1  0
 14 15  2  0
 15 16  1  0
 16 17  1  0
 17 18  1  0
 17 19  1  0
 17 20  1  0
 16 21  2  0
 21 22  1  0
 22 23  2  0
 23 24  1  0
 24 25  2  0
 25 26  1  0
 26 27  2  0
 10 28  1  0
 28 29  2  0
  9 30  1  0
 30 31  1  0
 31 32  1  0
 29  3  1  0
 28  6  1  0
 32  8  1  0
 27 14  1  0
 27 22  1  0
M  END
>  <energy_score>  (987) 
-23.765575

>  <alias>  (987) 
None

>  <HIPPO Pose ID>  (987) 
70421

>  <smiles>  (987) 
COc1ccc2nc3c(c(C(=O)Nc4cc(C(F)(F)F)cc5cccnc45)c2c1)CCC3

>  <inchikey>  (987) 
ARNGZALFNLFKCV-UHFFFAOYSA-N

>  <distance_score>  (987) 
1.153136

>  <ref_mols>  (987) 
Z0917a,Z0852a

>  <ref_pdb>  (987) 
Z0852a

>  <HIPPO Compound ID>  (987) 
142430

>  <name>  (987) 
P70421

>  <inspiration_score>  (987) 
None

$$$$
P70422
     RDKit          3D

 32 35  0  0  0  0  0  0  0  0999 V2000
    1.6007    5.3816  -19.3953 C   0  0  0  0  0  0  0  0  0  0  0  0
    1.2275    6.6129  -20.2047 C   0  0  0  0  0  0  0  0  0  0  0  0
   -0.0420    7.2923  -19.6817 C   0  0  0  0  0  0  0  0  0  0  0  0
   -1.3196    6.5980  -20.0993 C   0  0  0  0  0  0  0  0  0  0  0  0
   -1.5465    6.6307  -21.4288 N   0  0  0  0  0  0  0  0  0  0  0  0
   -2.7431    6.2948  -21.9041 C   0  0  0  0  0  0  0  0  0  0  0  0
   -2.9834    6.6644  -23.2148 C   0  0  0  0  0  0  0  0  0  0  0  0
   -4.2452    6.5504  -23.7716 C   0  0  0  0  0  0  0  0  0  0  0  0
   -5.2537    5.9723  -23.0204 C   0  0  0  0  0  0  0  0  0  0  0  0
   -4.9974    5.4571  -21.7464 C   0  0  0  0  0  0  0  0  0  0  0  0
   -3.7525    5.6953  -21.1246 C   0  0  0  0  0  0  0  0  0  0  0  0
   -3.4242    5.4954  -19.7627 C   0  0  0  0  0  0  0  0  0  0  0  0
   -4.1970    4.7486  -18.7358 C   0  0  0  0  0  0  0  0  0  0  0  0
   -3.5710    4.0098  -18.0888 O   0  0  0  0  0  0  0  0  0  0  0  0
   -5.6684    5.1524  -18.6361 N   0  0  0  0  0  0  0  0  0  0  0  0
   -6.6305    4.8217  -17.6976 C   0  0  0  0  0  0  0  0  0  0  0  0
   -6.2633    4.9317  -16.3570 C   0  0  0  0  0  0  0  0  0  0  0  0
   -7.2278    4.9287  -15.3436 C   0  0  0  0  0  0  0  0  0  0  0  0
   -6.9374    5.4610  -13.9504 C   0  0  0  0  0  0  0  0  0  0  0  0
   -7.4988    4.5334  -12.8662 C   0  0  0  0  0  0  0  0  0  0  0  0
   -7.5964    6.8470  -13.7836 C   0  0  0  0  0  0  0  0  0  0  0  0
   -5.4306    5.6450  -13.7018 C   0  0  0  0  0  0  0  0  0  0  0  0
   -8.5238    4.5667  -15.6862 C   0  0  0  0  0  0  0  0  0  0  0  0
   -8.8658    4.4334  -17.0220 C   0  0  0  0  0  0  0  0  0  0  0  0
  -10.1847    4.2549  -17.3468 C   0  0  0  0  0  0  0  0  0  0  0  0
  -10.6035    4.4829  -18.6189 C   0  0  0  0  0  0  0  0  0  0  0  0
   -9.6321    4.6058  -19.5745 C   0  0  0  0  0  0  0  0  0  0  0  0
   -8.3126    4.5941  -19.3327 N   0  0  0  0  0  0  0  0  0  0  0  0
   -7.9414    4.6091  -18.0541 C   0  0  0  0  0  0  0  0  0  0  0  0
   -2.2792    6.1220  -19.2138 C   0  0  0  0  0  0  0  0  0  0  0  0
   -2.2474    6.4831  -17.7379 C   0  0  0  0  0  0  0  0  0  0  0  0
   -1.3456    5.6792  -16.8260 C   0  0  0  0  0  0  0  0  0  0  0  0
  1  2  1  0
  2  3  1  0
  3  4  1  0
  4  5  2  0
  5  6  1  0
  6  7  2  0
  7  8  1  0
  8  9  2  0
  9 10  1  0
 10 11  2  0
 11 12  1  0
 12 13  1  0
 13 14  2  0
 13 15  1  0
 15 16  1  0
 16 17  2  0
 17 18  1  0
 18 19  1  0
 19 20  1  0
 19 21  1  0
 19 22  1  0
 18 23  2  0
 23 24  1  0
 24 25  2  0
 25 26  1  0
 26 27  2  0
 27 28  1  0
 28 29  2  0
 12 30  2  0
 30 31  1  0
 31 32  1  0
 30  4  1  0
 11  6  1  0
 29 16  1  0
 29 24  1  0
M  END
>  <energy_score>  (988) 
-2.413175

>  <alias>  (988) 
None

>  <HIPPO Pose ID>  (988) 
70422

>  <smiles>  (988) 
CCCc1nc2ccccc2c(C(=O)Nc2cc(C(C)(C)C)cc3cccnc23)c1CC

>  <inchikey>  (988) 
ROZAZSCCXGWPHC-UHFFFAOYSA-N

>  <distance_score>  (988) 
1.84914

>  <ref_mols>  (988) 
Z0917a,Z0852a

>  <ref_pdb>  (988) 
Z0852a

>  <HIPPO Compound ID>  (988) 
142431

>  <name>  (988) 
P70422

>  <inspiration_score>  (988) 
None

$$$$
P70423
     RDKit          3D

 32 35  0  0  0  0  0  0  0  0999 V2000
    1.5787    6.7219  -18.4742 C   0  0  0  0  0  0  0  0  0  0  0  0
    0.2184    6.8532  -19.1408 C   0  0  0  0  0  0  0  0  0  0  0  0
   -0.2264    5.5257  -19.7605 C   0  0  0  0  0  0  0  0  0  0  0  0
   -1.6134    5.6245  -20.3481 C   0  0  0  0  0  0  0  0  0  0  0  0
   -1.6359    6.2532  -21.5485 N   0  0  0  0  0  0  0  0  0  0  0  0
   -2.7829    6.3984  -22.2129 C   0  0  0  0  0  0  0  0  0  0  0  0
   -2.7348    7.0196  -23.4559 C   0  0  0  0  0  0  0  0  0  0  0  0
   -3.8804    7.2340  -24.2215 C   0  0  0  0  0  0  0  0  0  0  0  0
   -5.1052    6.8165  -23.7330 C   0  0  0  0  0  0  0  0  0  0  0  0
   -5.1616    6.1917  -22.4874 C   0  0  0  0  0  0  0  0  0  0  0  0
   -4.0094    5.9699  -21.6972 C   0  0  0  0  0  0  0  0  0  0  0  0
   -3.9838    5.3521  -20.4163 C   0  0  0  0  0  0  0  0  0  0  0  0
   -5.2624    4.8265  -19.8448 C   0  0  0  0  0  0  0  0  0  0  0  0
   -5.8751    4.0569  -20.4817 O   0  0  0  0  0  0  0  0  0  0  0  0
   -5.5019    5.3597  -18.3953 N   0  0  0  0  0  0  0  0  0  0  0  0
   -6.5668    5.1305  -17.5004 C   0  0  0  0  0  0  0  0  0  0  0  0
   -6.3681    5.4810  -16.1472 C   0  0  0  0  0  0  0  0  0  0  0  0
   -7.3704    5.2672  -15.1802 C   0  0  0  0  0  0  0  0  0  0  0  0
   -7.2764    5.7707  -13.7656 C   0  0  0  0  0  0  0  0  0  0  0  0
   -8.3676    5.4656  -13.0037 F   0  0  0  0  0  0  0  0  0  0  0  0
   -6.1979    5.2938  -13.0961 F   0  0  0  0  0  0  0  0  0  0  0  0
   -7.1859    7.1311  -13.7209 F   0  0  0  0  0  0  0  0  0  0  0  0
   -8.5509    4.6607  -15.5693 C   0  0  0  0  0  0  0  0  0  0  0  0
   -8.7854    4.4513  -16.9123 C   0  0  0  0  0  0  0  0  0  0  0  0
  -10.0800    4.1857  -17.2740 C   0  0  0  0  0  0  0  0  0  0  0  0
  -10.4646    4.3513  -18.5664 C   0  0  0  0  0  0  0  0  0  0  0  0
   -9.4679    4.4748  -19.4920 C   0  0  0  0  0  0  0  0  0  0  0  0
   -8.1663    4.5664  -19.1855 N   0  0  0  0  0  0  0  0  0  0  0  0
   -7.8174    4.6647  -17.9049 C   0  0  0  0  0  0  0  0  0  0  0  0
   -2.7689    5.1397  -19.7291 C   0  0  0  0  0  0  0  0  0  0  0  0
   -2.7044    4.3407  -18.4512 C   0  0  0  0  0  0  0  0  0  0  0  0
   -2.4128    5.1608  -17.2000 C   0  0  0  0  0  0  0  0  0  0  0  0
  1  2  1  0
  2  3  1  0
  3  4  1  0
  4  5  2  0
  5  6  1  0
  6  7  2  0
  7  8  1  0
  8  9  2  0
  9 10  1  0
 10 11  2  0
 11 12  1  0
 12 13  1  0
 13 14  2  0
 13 15  1  0
 15 16  1  0
 16 17  2  0
 17 18  1  0
 18 19  1  0
 19 20  1  0
 19 21  1  0
 19 22  1  0
 18 23  2  0
 23 24  1  0
 24 25  2  0
 25 26  1  0
 26 27  2  0
 27 28  1  0
 28 29  2  0
 12 30  2  0
 30 31  1  0
 31 32  1  0
 30  4  1  0
 11  6  1  0
 29 16  1  0
 29 24  1  0
M  END
>  <energy_score>  (989) 
-22.86017

>  <alias>  (989) 
None

>  <HIPPO Pose ID>  (989) 
70423

>  <smiles>  (989) 
CCCc1nc2ccccc2c(C(=O)Nc2cc(C(F)(F)F)cc3cccnc23)c1CC

>  <inchikey>  (989) 
PVEQGHALFHTWCG-UHFFFAOYSA-N

>  <distance_score>  (989) 
1.095885

>  <ref_mols>  (989) 
Z0917a,Z0852a

>  <ref_pdb>  (989) 
Z0852a

>  <HIPPO Compound ID>  (989) 
142432

>  <name>  (989) 
P70423

>  <inspiration_score>  (989) 
None

$$$$
P70424
     RDKit          3D

 32 36  0  0  0  0  0  0  0  0999 V2000
   -6.0660    6.2512  -13.3065 C   0  0  0  0  0  0  0  0  0  0  0  0
   -7.4179    5.6620  -13.7200 C   0  0  0  0  0  0  0  0  0  0  0  0
   -7.8092    4.5657  -12.7122 C   0  0  0  0  0  0  0  0  0  0  0  0
   -8.4358    6.8019  -13.6034 C   0  0  0  0  0  0  0  0  0  0  0  0
   -7.4546    5.1472  -15.1596 C   0  0  0  0  0  0  0  0  0  0  0  0
   -6.4539    5.3663  -16.1245 C   0  0  0  0  0  0  0  0  0  0  0  0
   -6.6685    5.0551  -17.4818 C   0  0  0  0  0  0  0  0  0  0  0  0
   -5.6527    5.3275  -18.4087 N   0  0  0  0  0  0  0  0  0  0  0  0
   -5.3650    4.7027  -19.8059 C   0  0  0  0  0  0  0  0  0  0  0  0
   -5.9761    3.9209  -20.4284 O   0  0  0  0  0  0  0  0  0  0  0  0
   -4.1369    5.2327  -20.4397 C   0  0  0  0  0  0  0  0  0  0  0  0
   -4.2846    5.5630  -21.7899 C   0  0  0  0  0  0  0  0  0  0  0  0
   -3.1896    6.0415  -22.4716 C   0  0  0  0  0  0  0  0  0  0  0  0
   -3.2085    6.4166  -23.8923 C   0  0  0  0  0  0  0  0  0  0  0  0
   -2.1490    6.4241  -24.7851 C   0  0  0  0  0  0  0  0  0  0  0  0
   -2.5245    6.8423  -26.0940 C   0  0  0  0  0  0  0  0  0  0  0  0
   -3.8608    7.1600  -26.1652 C   0  0  0  0  0  0  0  0  0  0  0  0
   -4.6461    6.9681  -24.6603 S   0  0  0  0  0  0  0  0  0  0  0  0
   -1.9934    6.2177  -21.8685 N   0  0  0  0  0  0  0  0  0  0  0  0
   -1.8584    5.9185  -20.5677 C   0  0  0  0  0  0  0  0  0  0  0  0
   -0.6343    6.1894  -19.9752 C   0  0  0  0  0  0  0  0  0  0  0  0
   -0.4086    5.9715  -18.6177 C   0  0  0  0  0  0  0  0  0  0  0  0
   -1.4116    5.4124  -17.8426 C   0  0  0  0  0  0  0  0  0  0  0  0
   -2.6225    5.0554  -18.4305 C   0  0  0  0  0  0  0  0  0  0  0  0
   -2.8972    5.3828  -19.7832 C   0  0  0  0  0  0  0  0  0  0  0  0
   -7.9225    4.6239  -17.9059 C   0  0  0  0  0  0  0  0  0  0  0  0
   -8.2705    4.5930  -19.1914 N   0  0  0  0  0  0  0  0  0  0  0  0
   -9.5707    4.5493  -19.5043 C   0  0  0  0  0  0  0  0  0  0  0  0
  -10.5698    4.4026  -18.5880 C   0  0  0  0  0  0  0  0  0  0  0  0
  -10.1864    4.1621  -17.3078 C   0  0  0  0  0  0  0  0  0  0  0  0
   -8.8863    4.3854  -16.9302 C   0  0  0  0  0  0  0  0  0  0  0  0
   -8.6352    4.5464  -15.5839 C   0  0  0  0  0  0  0  0  0  0  0  0
  1  2  1  0
  2  3  1  0
  2  4  1  0
  2  5  1  0
  5  6  2  0
  6  7  1  0
  7  8  1  0
  8  9  1  0
  9 10  2  0
  9 11  1  0
 11 12  2  0
 12 13  1  0
 13 14  1  0
 14 15  2  0
 15 16  1  0
 16 17  2  0
 17 18  1  0
 13 19  2  0
 19 20  1  0
 20 21  2  0
 21 22  1  0
 22 23  2  0
 23 24  1  0
 24 25  2  0
  7 26  2  0
 26 27  1  0
 27 28  2  0
 28 29  1  0
 29 30  2  0
 30 31  1  0
 31 32  2  0
 32  5  1  0
 25 11  1  0
 31 26  1  0
 18 14  1  0
 25 20  1  0
M  END
>  <energy_score>  (990) 
-19.772037

>  <alias>  (990) 
None

>  <HIPPO Pose ID>  (990) 
70424

>  <smiles>  (990) 
CC(C)(C)c1cc(NC(=O)c2cc(-c3cccs3)nc3ccccc23)c2ncccc2c1

>  <inchikey>  (990) 
ZDCVFLZGKKCGJB-UHFFFAOYSA-N

>  <distance_score>  (990) 
1.335283

>  <ref_mols>  (990) 
Z0917a,Z0852a

>  <ref_pdb>  (990) 
Z0852a

>  <HIPPO Compound ID>  (990) 
142434

>  <name>  (990) 
P70424

>  <inspiration_score>  (990) 
None

$$$$
P70425
     RDKit          3D

 32 36  0  0  0  0  0  0  0  0999 V2000
   -5.9576    3.9212  -20.3591 O   0  0  0  0  0  0  0  0  0  0  0  0
   -5.3265    4.6870  -19.7367 C   0  0  0  0  0  0  0  0  0  0  0  0
   -5.5505    5.2491  -18.3017 N   0  0  0  0  0  0  0  0  0  0  0  0
   -6.6136    5.0620  -17.4063 C   0  0  0  0  0  0  0  0  0  0  0  0
   -6.4144    5.4039  -16.0564 C   0  0  0  0  0  0  0  0  0  0  0  0
   -7.4357    5.2160  -15.1082 C   0  0  0  0  0  0  0  0  0  0  0  0
   -7.3430    5.7241  -13.6962 C   0  0  0  0  0  0  0  0  0  0  0  0
   -8.4348    5.4220  -12.9358 F   0  0  0  0  0  0  0  0  0  0  0  0
   -6.2640    5.2503  -13.0254 F   0  0  0  0  0  0  0  0  0  0  0  0
   -7.2511    7.0848  -13.6582 F   0  0  0  0  0  0  0  0  0  0  0  0
   -8.6265    4.6366  -15.5151 C   0  0  0  0  0  0  0  0  0  0  0  0
   -8.8540    4.4372  -16.8633 C   0  0  0  0  0  0  0  0  0  0  0  0
  -10.1422    4.1805  -17.2575 C   0  0  0  0  0  0  0  0  0  0  0  0
  -10.5100    4.3695  -18.5525 C   0  0  0  0  0  0  0  0  0  0  0  0
   -9.5017    4.5125  -19.4595 C   0  0  0  0  0  0  0  0  0  0  0  0
   -8.2071    4.5918  -19.1262 N   0  0  0  0  0  0  0  0  0  0  0  0
   -7.8736    4.6467  -17.8365 C   0  0  0  0  0  0  0  0  0  0  0  0
   -4.1221    5.2363  -20.4025 C   0  0  0  0  0  0  0  0  0  0  0  0
   -4.3058    5.5421  -21.7545 C   0  0  0  0  0  0  0  0  0  0  0  0
   -3.2384    6.0303  -22.4725 C   0  0  0  0  0  0  0  0  0  0  0  0
   -3.3624    6.3811  -23.8956 C   0  0  0  0  0  0  0  0  0  0  0  0
   -4.4944    6.7437  -24.6108 C   0  0  0  0  0  0  0  0  0  0  0  0
   -4.2320    6.9711  -25.9933 C   0  0  0  0  0  0  0  0  0  0  0  0
   -2.9040    6.7876  -26.2985 C   0  0  0  0  0  0  0  0  0  0  0  0
   -1.9868    6.3413  -24.9287 S   0  0  0  0  0  0  0  0  0  0  0  0
   -2.0403    6.2578  -21.8965 N   0  0  0  0  0  0  0  0  0  0  0  0
   -1.8627    5.9684  -20.5992 C   0  0  0  0  0  0  0  0  0  0  0  0
   -0.6252    6.2630  -20.0474 C   0  0  0  0  0  0  0  0  0  0  0  0
   -0.3498    6.0497  -18.6985 C   0  0  0  0  0  0  0  0  0  0  0  0
   -1.3177    5.4777  -17.8893 C   0  0  0  0  0  0  0  0  0  0  0  0
   -2.5453    5.1066  -18.4346 C   0  0  0  0  0  0  0  0  0  0  0  0
   -2.8682    5.4183  -19.7810 C   0  0  0  0  0  0  0  0  0  0  0  0
  1  2  2  0
  2  3  1  0
  3  4  1  0
  4  5  2  0
  5  6  1  0
  6  7  1  0
  7  8  1  0
  7  9  1  0
  7 10  1  0
  6 11  2  0
 11 12  1  0
 12 13  2  0
 13 14  1  0
 14 15  2  0
 15 16  1  0
 16 17  2  0
  2 18  1  0
 18 19  2  0
 19 20  1  0
 20 21  1  0
 21 22  2  0
 22 23  1  0
 23 24  2  0
 24 25  1  0
 20 26  2  0
 26 27  1  0
 27 28  2  0
 28 29  1  0
 29 30  2  0
 30 31  1  0
 31 32  2  0
 17  4  1  0
 32 18  1  0
 17 12  1  0
 25 21  1  0
 32 27  1  0
M  END
>  <energy_score>  (991) 
-10.961287

>  <alias>  (991) 
None

>  <HIPPO Pose ID>  (991) 
70425

>  <smiles>  (991) 
O=C(Nc1cc(C(F)(F)F)cc2cccnc12)c1cc(-c2cccs2)nc2ccccc12

>  <inchikey>  (991) 
LLSQZZWSBZUSJP-UHFFFAOYSA-N

>  <distance_score>  (991) 
1.080737

>  <ref_mols>  (991) 
Z0917a,Z0852a

>  <ref_pdb>  (991) 
Z0852a

>  <HIPPO Compound ID>  (991) 
142435

>  <name>  (991) 
P70425

>  <inspiration_score>  (991) 
None

$$$$
P70426
     RDKit          3D

 32 36  0  0  0  0  0  0  0  0999 V2000
   -6.3211    4.5906  -11.5019 C   0  0  0  0  0  0  0  0  0  0  0  0
   -6.8484    4.6249  -12.8278 O   0  0  0  0  0  0  0  0  0  0  0  0
   -5.9324    4.8934  -13.7885 C   0  0  0  0  0  0  0  0  0  0  0  0
   -4.7556    5.1646  -13.6049 O   0  0  0  0  0  0  0  0  0  0  0  0
   -6.5565    4.8381  -15.1362 C   0  0  0  0  0  0  0  0  0  0  0  0
   -5.7824    5.1887  -16.2435 C   0  0  0  0  0  0  0  0  0  0  0  0
   -6.3013    5.0839  -17.5412 C   0  0  0  0  0  0  0  0  0  0  0  0
   -5.4256    5.3653  -18.5902 N   0  0  0  0  0  0  0  0  0  0  0  0
   -5.3246    4.7499  -20.0103 C   0  0  0  0  0  0  0  0  0  0  0  0
   -6.0074    3.9672  -20.5479 O   0  0  0  0  0  0  0  0  0  0  0  0
   -4.1419    5.2532  -20.7464 C   0  0  0  0  0  0  0  0  0  0  0  0
   -4.4024    5.6282  -22.0634 C   0  0  0  0  0  0  0  0  0  0  0  0
   -3.3588    6.1017  -22.8251 C   0  0  0  0  0  0  0  0  0  0  0  0
   -3.4913    6.5222  -24.2289 C   0  0  0  0  0  0  0  0  0  0  0  0
   -2.4943    6.6178  -25.1869 C   0  0  0  0  0  0  0  0  0  0  0  0
   -2.9758    7.0520  -26.4553 C   0  0  0  0  0  0  0  0  0  0  0  0
   -4.3297    7.2920  -26.4326 C   0  0  0  0  0  0  0  0  0  0  0  0
   -5.0043    7.0102  -24.8894 S   0  0  0  0  0  0  0  0  0  0  0  0
   -2.1094    6.2311  -22.3261 N   0  0  0  0  0  0  0  0  0  0  0  0
   -1.8662    5.8958  -21.0515 C   0  0  0  0  0  0  0  0  0  0  0  0
   -0.5889    6.1341  -20.5690 C   0  0  0  0  0  0  0  0  0  0  0  0
   -0.2485    5.8916  -19.2417 C   0  0  0  0  0  0  0  0  0  0  0  0
   -1.1909    5.3396  -18.3911 C   0  0  0  0  0  0  0  0  0  0  0  0
   -2.4535    5.0046  -18.8750 C   0  0  0  0  0  0  0  0  0  0  0  0
   -2.8435    5.3608  -20.1930 C   0  0  0  0  0  0  0  0  0  0  0  0
   -7.6323    4.7293  -17.7583 C   0  0  0  0  0  0  0  0  0  0  0  0
   -8.1899    4.7790  -18.9735 N   0  0  0  0  0  0  0  0  0  0  0  0
   -9.5063    4.5607  -19.1084 C   0  0  0  0  0  0  0  0  0  0  0  0
  -10.3255    4.2322  -18.0608 C   0  0  0  0  0  0  0  0  0  0  0  0
   -9.7403    4.1234  -16.8162 C   0  0  0  0  0  0  0  0  0  0  0  0
   -8.4038    4.4188  -16.6315 C   0  0  0  0  0  0  0  0  0  0  0  0
   -7.8738    4.4368  -15.3370 C   0  0  0  0  0  0  0  0  0  0  0  0
  1  2  1  0
  2  3  1  0
  3  4  2  0
  3  5  1  0
  5  6  2  0
  6  7  1  0
  7  8  1  0
  8  9  1  0
  9 10  2  0
  9 11  1  0
 11 12  2  0
 12 13  1  0
 13 14  1  0
 14 15  2  0
 15 16  1  0
 16 17  2  0
 17 18  1  0
 13 19  2  0
 19 20  1  0
 20 21  2  0
 21 22  1  0
 22 23  2  0
 23 24  1  0
 24 25  2  0
  7 26  2  0
 26 27  1  0
 27 28  2  0
 28 29  1  0
 29 30  2  0
 30 31  1  0
 31 32  2  0
 32  5  1  0
 25 11  1  0
 31 26  1  0
 18 14  1  0
 25 20  1  0
M  END
>  <energy_score>  (992) 
-33.883727

>  <alias>  (992) 
None

>  <HIPPO Pose ID>  (992) 
70426

>  <smiles>  (992) 
COC(=O)c1cc(NC(=O)c2cc(-c3cccs3)nc3ccccc23)c2ncccc2c1

>  <inchikey>  (992) 
YYWYSLYTCMOWSE-UHFFFAOYSA-N

>  <distance_score>  (992) 
1.720751

>  <ref_mols>  (992) 
Z0917a,Z0852a

>  <ref_pdb>  (992) 
Z0852a

>  <HIPPO Compound ID>  (992) 
142436

>  <name>  (992) 
P70426

>  <inspiration_score>  (992) 
None

$$$$
P70427
     RDKit          3D

 32 36  0  0  0  0  0  0  0  0999 V2000
   -1.5799    5.4879  -16.3119 C   0  0  0  0  0  0  0  0  0  0  0  0
   -1.5900    5.5120  -17.8124 C   0  0  0  0  0  0  0  0  0  0  0  0
   -0.5132    6.0249  -18.5259 C   0  0  0  0  0  0  0  0  0  0  0  0
   -0.5702    6.1275  -19.9252 C   0  0  0  0  0  0  0  0  0  0  0  0
    0.6349    6.6404  -20.6713 C   0  0  0  0  0  0  0  0  0  0  0  0
   -1.7431    5.8205  -20.6267 C   0  0  0  0  0  0  0  0  0  0  0  0
   -1.7832    6.0400  -21.9556 N   0  0  0  0  0  0  0  0  0  0  0  0
   -2.9135    5.8375  -22.6693 C   0  0  0  0  0  0  0  0  0  0  0  0
   -2.8728    6.0679  -24.1596 C   0  0  0  0  0  0  0  0  0  0  0  0
   -3.8313    7.0333  -24.8195 C   0  0  0  0  0  0  0  0  0  0  0  0
   -2.3804    7.3907  -24.7002 C   0  0  0  0  0  0  0  0  0  0  0  0
   -4.0704    5.4331  -22.0402 C   0  0  0  0  0  0  0  0  0  0  0  0
   -4.0430    5.1797  -20.6737 C   0  0  0  0  0  0  0  0  0  0  0  0
   -5.3460    4.7634  -20.0953 C   0  0  0  0  0  0  0  0  0  0  0  0
   -5.9767    3.9516  -20.6517 O   0  0  0  0  0  0  0  0  0  0  0  0
   -5.5952    5.4762  -18.7430 N   0  0  0  0  0  0  0  0  0  0  0  0
   -6.5858    5.2772  -17.7846 C   0  0  0  0  0  0  0  0  0  0  0  0
   -6.2570    5.6879  -16.4908 C   0  0  0  0  0  0  0  0  0  0  0  0
   -7.1084    5.4619  -15.3988 C   0  0  0  0  0  0  0  0  0  0  0  0
   -6.6946    5.9036  -14.0101 C   0  0  0  0  0  0  0  0  0  0  0  0
   -5.4110    5.1416  -13.6543 C   0  0  0  0  0  0  0  0  0  0  0  0
   -6.4035    7.4194  -13.9712 C   0  0  0  0  0  0  0  0  0  0  0  0
   -7.7488    5.6228  -12.9211 C   0  0  0  0  0  0  0  0  0  0  0  0
   -8.3040    4.8046  -15.6360 C   0  0  0  0  0  0  0  0  0  0  0  0
   -8.6788    4.5299  -16.9391 C   0  0  0  0  0  0  0  0  0  0  0  0
   -9.9807    4.1627  -17.1569 C   0  0  0  0  0  0  0  0  0  0  0  0
  -10.5029    4.2630  -18.4134 C   0  0  0  0  0  0  0  0  0  0  0  0
   -9.6171    4.4756  -19.4379 C   0  0  0  0  0  0  0  0  0  0  0  0
   -8.2977    4.6090  -19.2717 N   0  0  0  0  0  0  0  0  0  0  0  0
   -7.8373    4.7491  -18.0357 C   0  0  0  0  0  0  0  0  0  0  0  0
   -2.8548    5.3388  -19.9170 C   0  0  0  0  0  0  0  0  0  0  0  0
   -2.7164    5.0938  -18.5215 C   0  0  0  0  0  0  0  0  0  0  0  0
  1  2  1  0
  2  3  2  0
  3  4  1  0
  4  5  1  0
  4  6  2  0
  6  7  1  0
  7  8  2  0
  8  9  1  0
  9 10  1  0
 10 11  1  0
  8 12  1  0
 12 13  2  0
 13 14  1  0
 14 15  2  0
 14 16  1  0
 16 17  1  0
 17 18  2  0
 18 19  1  0
 19 20  1  0
 20 21  1  0
 20 22  1  0
 20 23  1  0
 19 24  2  0
 24 25  1  0
 25 26  2  0
 26 27  1  0
 27 28  2  0
 28 29  1  0
 29 30  2  0
 13 31  1  0
 31 32  2  0
 32  2  1  0
 31  6  1  0
 11  9  1  0
 30 17  1  0
 30 25  1  0
M  END
>  <energy_score>  (993) 
-22.410361

>  <alias>  (993) 
None

>  <HIPPO Pose ID>  (993) 
70427

>  <smiles>  (993) 
Cc1cc(C)c2nc(C3CC3)cc(C(=O)Nc3cc(C(C)(C)C)cc4cccnc34)c2c1

>  <inchikey>  (993) 
GZTZLFXVUUSNCL-UHFFFAOYSA-N

>  <distance_score>  (993) 
1.323768

>  <ref_mols>  (993) 
Z0917a,Z0852a

>  <ref_pdb>  (993) 
Z0852a

>  <HIPPO Compound ID>  (993) 
142437

>  <name>  (993) 
P70427

>  <inspiration_score>  (993) 
None

$$$$
P70428
     RDKit          3D

 32 36  0  0  0  0  0  0  0  0999 V2000
   -1.2864    5.5928  -16.0877 C   0  0  0  0  0  0  0  0  0  0  0  0
   -1.4202    5.6517  -17.5813 C   0  0  0  0  0  0  0  0  0  0  0  0
   -0.4113    6.2097  -18.3574 C   0  0  0  0  0  0  0  0  0  0  0  0
   -0.5614    6.3179  -19.7481 C   0  0  0  0  0  0  0  0  0  0  0  0
    0.5773    6.8711  -20.5670 C   0  0  0  0  0  0  0  0  0  0  0  0
   -1.7592    5.9580  -20.3776 C   0  0  0  0  0  0  0  0  0  0  0  0
   -1.8697    6.1547  -21.7055 N   0  0  0  0  0  0  0  0  0  0  0  0
   -3.0145    5.8759  -22.3635 C   0  0  0  0  0  0  0  0  0  0  0  0
   -3.0512    6.0751  -23.8581 C   0  0  0  0  0  0  0  0  0  0  0  0
   -2.6949    7.4231  -24.4417 C   0  0  0  0  0  0  0  0  0  0  0  0
   -4.1129    6.9405  -24.4991 C   0  0  0  0  0  0  0  0  0  0  0  0
   -4.1147    5.4198  -21.6711 C   0  0  0  0  0  0  0  0  0  0  0  0
   -4.0248    5.2090  -20.2917 C   0  0  0  0  0  0  0  0  0  0  0  0
   -5.2798    4.7039  -19.6738 C   0  0  0  0  0  0  0  0  0  0  0  0
   -5.8874    3.9225  -20.2994 O   0  0  0  0  0  0  0  0  0  0  0  0
   -5.5432    5.2833  -18.2539 N   0  0  0  0  0  0  0  0  0  0  0  0
   -6.6233    5.0970  -17.3817 C   0  0  0  0  0  0  0  0  0  0  0  0
   -6.4399    5.4424  -16.0305 C   0  0  0  0  0  0  0  0  0  0  0  0
   -7.4646    5.2418  -15.0907 C   0  0  0  0  0  0  0  0  0  0  0  0
   -7.3793    5.7428  -13.6762 C   0  0  0  0  0  0  0  0  0  0  0  0
   -8.4735    5.4342  -12.9226 F   0  0  0  0  0  0  0  0  0  0  0  0
   -7.2915    7.1036  -13.6327 F   0  0  0  0  0  0  0  0  0  0  0  0
   -6.3009    5.2706  -13.0038 F   0  0  0  0  0  0  0  0  0  0  0  0
   -8.6468    4.6536  -15.5089 C   0  0  0  0  0  0  0  0  0  0  0  0
   -8.8600    4.4503  -16.8595 C   0  0  0  0  0  0  0  0  0  0  0  0
  -10.1427    4.1869  -17.2660 C   0  0  0  0  0  0  0  0  0  0  0  0
  -10.4955    4.3691  -18.5657 C   0  0  0  0  0  0  0  0  0  0  0  0
   -9.4778    4.5012  -19.4641 C   0  0  0  0  0  0  0  0  0  0  0  0
   -8.1869    4.5879  -19.1182 N   0  0  0  0  0  0  0  0  0  0  0  0
   -7.8712    4.6620  -17.8247 C   0  0  0  0  0  0  0  0  0  0  0  0
   -2.8119    5.4379  -19.6017 C   0  0  0  0  0  0  0  0  0  0  0  0
   -2.5805    5.2044  -18.2179 C   0  0  0  0  0  0  0  0  0  0  0  0
  1  2  1  0
  2  3  2  0
  3  4  1  0
  4  5  1  0
  4  6  2  0
  6  7  1  0
  7  8  2  0
  8  9  1  0
  9 10  1  0
 10 11  1  0
  8 12  1  0
 12 13  2  0
 13 14  1  0
 14 15  2  0
 14 16  1  0
 16 17  1  0
 17 18  2  0
 18 19  1  0
 19 20  1  0
 20 21  1  0
 20 22  1  0
 20 23  1  0
 19 24  2  0
 24 25  1  0
 25 26  2  0
 26 27  1  0
 27 28  2  0
 28 29  1  0
 29 30  2  0
 13 31  1  0
 31 32  2  0
 32  2  1  0
 31  6  1  0
 11  9  1  0
 30 17  1  0
 30 25  1  0
M  END
>  <energy_score>  (994) 
-10.538732

>  <alias>  (994) 
None

>  <HIPPO Pose ID>  (994) 
70428

>  <smiles>  (994) 
Cc1cc(C)c2nc(C3CC3)cc(C(=O)Nc3cc(C(F)(F)F)cc4cccnc34)c2c1

>  <inchikey>  (994) 
QHUPAATWCWMRQI-UHFFFAOYSA-N

>  <distance_score>  (994) 
1.077074

>  <ref_mols>  (994) 
Z0917a,Z0852a

>  <ref_pdb>  (994) 
Z0852a

>  <HIPPO Compound ID>  (994) 
142438

>  <name>  (994) 
P70428

>  <inspiration_score>  (994) 
None

$$$$
P70429
     RDKit          3D

 32 36  0  0  0  0  0  0  0  0999 V2000
   -6.5623    5.1294  -11.4430 C   0  0  0  0  0  0  0  0  0  0  0  0
   -7.0317    4.9869  -12.7838 O   0  0  0  0  0  0  0  0  0  0  0  0
   -6.1037    5.2718  -13.7295 C   0  0  0  0  0  0  0  0  0  0  0  0
   -4.9621    5.6540  -13.5232 O   0  0  0  0  0  0  0  0  0  0  0  0
   -6.6660    5.0832  -15.0920 C   0  0  0  0  0  0  0  0  0  0  0  0
   -5.8685    5.4083  -16.1897 C   0  0  0  0  0  0  0  0  0  0  0  0
   -6.3249    5.2012  -17.5003 C   0  0  0  0  0  0  0  0  0  0  0  0
   -5.3919    5.4422  -18.5085 N   0  0  0  0  0  0  0  0  0  0  0  0
   -5.2301    4.7921  -19.9078 C   0  0  0  0  0  0  0  0  0  0  0  0
   -5.8993    4.0094  -20.4621 O   0  0  0  0  0  0  0  0  0  0  0  0
   -3.9720    5.2327  -20.5707 C   0  0  0  0  0  0  0  0  0  0  0  0
   -4.0928    5.4797  -21.9382 C   0  0  0  0  0  0  0  0  0  0  0  0
   -2.9946    5.9239  -22.6439 C   0  0  0  0  0  0  0  0  0  0  0  0
   -3.0892    6.2047  -24.1283 C   0  0  0  0  0  0  0  0  0  0  0  0
   -1.8580    6.5468  -24.9372 C   0  0  0  0  0  0  0  0  0  0  0  0
   -2.5101    5.2079  -25.1065 C   0  0  0  0  0  0  0  0  0  0  0  0
   -1.8276    6.1538  -22.0020 N   0  0  0  0  0  0  0  0  0  0  0  0
   -1.6896    5.9265  -20.6828 C   0  0  0  0  0  0  0  0  0  0  0  0
   -0.4743    6.2593  -20.0721 C   0  0  0  0  0  0  0  0  0  0  0  0
    0.6614    6.7957  -20.9055 C   0  0  0  0  0  0  0  0  0  0  0  0
   -0.3119    6.1618  -18.6822 C   0  0  0  0  0  0  0  0  0  0  0  0
   -1.3223    5.6283  -17.8921 C   0  0  0  0  0  0  0  0  0  0  0  0
   -1.1977    5.6251  -16.3959 C   0  0  0  0  0  0  0  0  0  0  0  0
   -2.4864    5.1757  -18.5171 C   0  0  0  0  0  0  0  0  0  0  0  0
   -2.7370    5.4180  -19.8976 C   0  0  0  0  0  0  0  0  0  0  0  0
   -7.6269    4.7737  -17.7450 C   0  0  0  0  0  0  0  0  0  0  0  0
   -8.1429    4.7436  -18.9779 N   0  0  0  0  0  0  0  0  0  0  0  0
   -9.4493    4.4884  -19.1395 C   0  0  0  0  0  0  0  0  0  0  0  0
  -10.2909    4.1803  -18.1024 C   0  0  0  0  0  0  0  0  0  0  0  0
   -9.7406    4.1288  -16.8398 C   0  0  0  0  0  0  0  0  0  0  0  0
   -8.4242    4.4843  -16.6283 C   0  0  0  0  0  0  0  0  0  0  0  0
   -7.9480    4.5947  -15.3176 C   0  0  0  0  0  0  0  0  0  0  0  0
  1  2  1  0
  2  3  1  0
  3  4  2  0
  3  5  1  0
  5  6  2  0
  6  7  1  0
  7  8  1  0
  8  9  1  0
  9 10  2  0
  9 11  1  0
 11 12  2  0
 12 13  1  0
 13 14  1  0
 14 15  1  0
 15 16  1  0
 13 17  2  0
 17 18  1  0
 18 19  2  0
 19 20  1  0
 19 21  1  0
 21 22  2  0
 22 23  1  0
 22 24  1  0
 24 25  2  0
  7 26  2  0
 26 27  1  0
 27 28  2  0
 28 29  1  0
 29 30  2  0
 30 31  1  0
 31 32  2  0
 32  5  1  0
 25 11  1  0
 31 26  1  0
 16 14  1  0
 25 18  1  0
M  END
>  <energy_score>  (995) 
-15.54145

>  <alias>  (995) 
None

>  <HIPPO Pose ID>  (995) 
70429

>  <smiles>  (995) 
COC(=O)c1cc(NC(=O)c2cc(C3CC3)nc3c(C)cc(C)cc23)c2ncccc2c1

>  <inchikey>  (995) 
IDWMSPPDGVXYEX-UHFFFAOYSA-N

>  <distance_score>  (995) 
1.552249

>  <ref_mols>  (995) 
Z0917a,Z0852a

>  <ref_pdb>  (995) 
Z0852a

>  <HIPPO Compound ID>  (995) 
142439

>  <name>  (995) 
P70429

>  <inspiration_score>  (995) 
None

$$$$
P70431
     RDKit          3D

 32 36  0  0  0  0  0  0  0  0999 V2000
   -2.0364    5.5382  -16.2497 C   0  0  0  0  0  0  0  0  0  0  0  0
   -2.0443    5.7681  -17.7555 C   0  0  1  0  0  0  0  0  0  0  0  0
   -0.6343    6.1053  -18.2989 C   0  0  0  0  0  0  0  0  0  0  0  0
   -0.3801    5.5852  -19.7249 C   0  0  0  0  0  0  0  0  0  0  0  0
   -1.6423    5.5964  -20.5519 C   0  0  0  0  0  0  0  0  0  0  0  0
   -1.5785    6.1254  -21.7893 N   0  0  0  0  0  0  0  0  0  0  0  0
   -2.7066    6.2479  -22.4993 C   0  0  0  0  0  0  0  0  0  0  0  0
   -2.6181    6.8263  -23.7598 C   0  0  0  0  0  0  0  0  0  0  0  0
   -3.7455    7.0683  -24.5465 C   0  0  0  0  0  0  0  0  0  0  0  0
   -4.9977    6.7312  -24.0613 C   0  0  0  0  0  0  0  0  0  0  0  0
   -5.1025    6.1369  -22.8043 C   0  0  0  0  0  0  0  0  0  0  0  0
   -3.9654    5.8652  -22.0064 C   0  0  0  0  0  0  0  0  0  0  0  0
   -3.9943    5.2718  -20.7192 C   0  0  0  0  0  0  0  0  0  0  0  0
   -5.2958    4.8242  -20.1544 C   0  0  0  0  0  0  0  0  0  0  0  0
   -5.9322    4.0273  -20.7264 O   0  0  0  0  0  0  0  0  0  0  0  0
   -5.5367    5.5080  -18.7814 N   0  0  0  0  0  0  0  0  0  0  0  0
   -6.5281    5.2886  -17.8184 C   0  0  0  0  0  0  0  0  0  0  0  0
   -6.2113    5.7093  -16.5215 C   0  0  0  0  0  0  0  0  0  0  0  0
   -7.0718    5.4964  -15.4311 C   0  0  0  0  0  0  0  0  0  0  0  0
   -6.6836    5.9562  -14.0397 C   0  0  0  0  0  0  0  0  0  0  0  0
   -7.7890    5.7656  -12.9804 C   0  0  0  0  0  0  0  0  0  0  0  0
   -5.4626    5.1317  -13.6201 C   0  0  0  0  0  0  0  0  0  0  0  0
   -6.3055    7.4536  -14.0231 C   0  0  0  0  0  0  0  0  0  0  0  0
   -8.2611    4.8295  -15.6673 C   0  0  0  0  0  0  0  0  0  0  0  0
   -8.6273    4.5401  -16.9671 C   0  0  0  0  0  0  0  0  0  0  0  0
   -9.9319    4.1744  -17.1745 C   0  0  0  0  0  0  0  0  0  0  0  0
  -10.4509    4.2517  -18.4326 C   0  0  0  0  0  0  0  0  0  0  0  0
   -9.5617    4.4398  -19.4597 C   0  0  0  0  0  0  0  0  0  0  0  0
   -8.2414    4.5825  -19.2970 N   0  0  0  0  0  0  0  0  0  0  0  0
   -7.7795    4.7486  -18.0651 C   0  0  0  0  0  0  0  0  0  0  0  0
   -2.8180    5.1274  -19.9718 C   0  0  0  0  0  0  0  0  0  0  0  0
   -2.6848    4.6152  -18.5561 C   0  0  0  0  0  0  0  0  0  0  0  0
  2  1  1  1
  2  3  1  0
  3  4  1  0
  4  5  1  0
  5  6  2  0
  6  7  1  0
  7  8  2  0
  8  9  1  0
  9 10  2  0
 10 11  1  0
 11 12  2  0
 12 13  1  0
 13 14  1  0
 14 15  2  0
 14 16  1  0
 16 17  1  0
 17 18  2  0
 18 19  1  0
 19 20  1  0
 20 21  1  0
 20 22  1  0
 20 23  1  0
 19 24  2  0
 24 25  1  0
 25 26  2  0
 26 27  1  0
 27 28  2  0
 28 29  1  0
 29 30  2  0
 13 31  2  0
 31 32  1  0
 32  2  1  0
 31  5  1  0
 12  7  1  0
 30 17  1  0
 30 25  1  0
M  END
>  <energy_score>  (996) 
-10.669208

>  <alias>  (996) 
None

>  <HIPPO Pose ID>  (996) 
70431

>  <smiles>  (996) 
C[C@H]1CCc2nc3ccccc3c(C(=O)Nc3cc(C(C)(C)C)cc4cccnc34)c2C1

>  <inchikey>  (996) 
FUROGAADZGVSET-KRWDZBQOSA-N

>  <distance_score>  (996) 
1.366567

>  <ref_mols>  (996) 
Z0917a,Z0852a

>  <ref_pdb>  (996) 
Z0852a

>  <HIPPO Compound ID>  (996) 
142440

>  <name>  (996) 
P70431

>  <inspiration_score>  (996) 
None

$$$$
P70433
     RDKit          3D

 32 36  0  0  0  0  0  0  0  0999 V2000
   -1.9384    5.5534  -15.9345 C   0  0  0  0  0  0  0  0  0  0  0  0
   -1.9693    5.8148  -17.4359 C   0  0  1  0  0  0  0  0  0  0  0  0
   -0.5670    6.1450  -18.0002 C   0  0  0  0  0  0  0  0  0  0  0  0
   -0.3564    5.6869  -19.4552 C   0  0  0  0  0  0  0  0  0  0  0  0
   -1.6425    5.7014  -20.2457 C   0  0  0  0  0  0  0  0  0  0  0  0
   -1.6034    6.2134  -21.4904 N   0  0  0  0  0  0  0  0  0  0  0  0
   -2.7397    6.2930  -22.1900 C   0  0  0  0  0  0  0  0  0  0  0  0
   -2.6718    6.8476  -23.4624 C   0  0  0  0  0  0  0  0  0  0  0  0
   -3.8063    7.0305  -24.2529 C   0  0  0  0  0  0  0  0  0  0  0  0
   -5.0419    6.6472  -23.7617 C   0  0  0  0  0  0  0  0  0  0  0  0
   -5.1217    6.0729  -22.4928 C   0  0  0  0  0  0  0  0  0  0  0  0
   -3.9822    5.8798  -21.6779 C   0  0  0  0  0  0  0  0  0  0  0  0
   -3.9923    5.3283  -20.3658 C   0  0  0  0  0  0  0  0  0  0  0  0
   -5.2679    4.8128  -19.7914 C   0  0  0  0  0  0  0  0  0  0  0  0
   -5.8675    4.0258  -20.4189 O   0  0  0  0  0  0  0  0  0  0  0  0
   -5.5260    5.3714  -18.3566 N   0  0  0  0  0  0  0  0  0  0  0  0
   -6.5952    5.1509  -17.4696 C   0  0  0  0  0  0  0  0  0  0  0  0
   -6.4027    5.5034  -16.1177 C   0  0  0  0  0  0  0  0  0  0  0  0
   -7.4060    5.2804  -15.1560 C   0  0  0  0  0  0  0  0  0  0  0  0
   -7.3139    5.7806  -13.7402 C   0  0  0  0  0  0  0  0  0  0  0  0
   -7.2272    7.1412  -13.6946 F   0  0  0  0  0  0  0  0  0  0  0  0
   -6.2339    5.3064  -13.0723 F   0  0  0  0  0  0  0  0  0  0  0  0
   -8.4053    5.4710  -12.9814 F   0  0  0  0  0  0  0  0  0  0  0  0
   -8.5814    4.6668  -15.5512 C   0  0  0  0  0  0  0  0  0  0  0  0
   -8.8099    4.4572  -16.8962 C   0  0  0  0  0  0  0  0  0  0  0  0
  -10.0995    4.1828  -17.2691 C   0  0  0  0  0  0  0  0  0  0  0  0
  -10.4775    4.3524  -18.5632 C   0  0  0  0  0  0  0  0  0  0  0  0
   -9.4768    4.4844  -19.4827 C   0  0  0  0  0  0  0  0  0  0  0  0
   -8.1783    4.5806  -19.1668 N   0  0  0  0  0  0  0  0  0  0  0  0
   -7.8394    4.6781  -17.8827 C   0  0  0  0  0  0  0  0  0  0  0  0
   -2.8026    5.2194  -19.6412 C   0  0  0  0  0  0  0  0  0  0  0  0
   -2.6302    4.6830  -18.2441 C   0  0  0  0  0  0  0  0  0  0  0  0
  2  1  1  1
  2  3  1  0
  3  4  1  0
  4  5  1  0
  5  6  2  0
  6  7  1  0
  7  8  2  0
  8  9  1  0
  9 10  2  0
 10 11  1  0
 11 12  2  0
 12 13  1  0
 13 14  1  0
 14 15  2  0
 14 16  1  0
 16 17  1  0
 17 18  2  0
 18 19  1  0
 19 20  1  0
 20 21  1  0
 20 22  1  0
 20 23  1  0
 19 24  2  0
 24 25  1  0
 25 26  2  0
 26 27  1  0
 27 28  2  0
 28 29  1  0
 29 30  2  0
 13 31  2  0
 31 32  1  0
 32  2  1  0
 31  5  1  0
 12  7  1  0
 30 17  1  0
 30 25  1  0
M  END
>  <energy_score>  (997) 
-13.547339

>  <alias>  (997) 
None

>  <HIPPO Pose ID>  (997) 
70433

>  <smiles>  (997) 
C[C@H]1CCc2nc3ccccc3c(C(=O)Nc3cc(C(F)(F)F)cc4cccnc34)c2C1

>  <inchikey>  (997) 
XZTDRIRSJZLQFG-AWEZNQCLSA-N

>  <distance_score>  (997) 
1.075984

>  <ref_mols>  (997) 
Z0917a,Z0852a

>  <ref_pdb>  (997) 
Z0852a

>  <HIPPO Compound ID>  (997) 
142454

>  <name>  (997) 
P70433

>  <inspiration_score>  (997) 
None

$$$$
P70434
     RDKit          3D

 21 24  0  0  0  0  0  0  0  0999 V2000
   -3.0584    4.8967  -14.2312 N   0  0  0  0  0  0  0  0  0  0  0  0
   -3.9105    4.8464  -15.0188 C   0  0  0  0  0  0  0  0  0  0  0  0
   -4.9580    4.7705  -15.9894 C   0  0  0  0  0  0  0  0  0  0  0  0
   -6.2811    4.5951  -15.5725 C   0  0  0  0  0  0  0  0  0  0  0  0
   -7.2842    4.5006  -16.5419 C   0  0  0  0  0  0  0  0  0  0  0  0
   -8.6315    4.2653  -16.2268 C   0  0  0  0  0  0  0  0  0  0  0  0
   -9.5588    4.1663  -17.2553 C   0  0  0  0  0  0  0  0  0  0  0  0
   -9.1036    4.3096  -18.5464 C   0  0  0  0  0  0  0  0  0  0  0  0
   -7.8147    4.5213  -18.8543 N   0  0  0  0  0  0  0  0  0  0  0  0
   -6.9182    4.6247  -17.8925 C   0  0  0  0  0  0  0  0  0  0  0  0
   -5.6635    4.8349  -18.2672 N   0  0  0  0  0  0  0  0  0  0  0  0
   -4.6814    4.8618  -17.3588 C   0  0  0  0  0  0  0  0  0  0  0  0
   -3.3493    4.9695  -17.8168 N   0  0  0  0  0  0  0  0  0  0  0  0
   -3.0677    5.2646  -19.2251 C   0  0  2  0  0  0  0  0  0  0  0  0
   -1.6505    5.1502  -19.7200 C   0  0  0  0  0  0  0  0  0  0  0  0
   -2.3173    6.4992  -19.6589 C   0  0  2  0  0  0  0  0  0  0  0  0
   -1.8334    7.5700  -18.6440 C   0  0  0  0  0  0  0  0  0  0  0  0
   -1.2374    7.3470  -17.4247 C   0  0  0  0  0  0  0  0  0  0  0  0
   -1.0001    8.5919  -16.9146 N   0  0  0  0  0  0  0  0  0  0  0  0
   -1.4347    9.5031  -17.8347 C   0  0  0  0  0  0  0  0  0  0  0  0
   -1.9408    8.9158  -18.8947 N   0  0  0  0  0  0  0  0  0  0  0  0
  1  2  3  0
  2  3  1  0
  3  4  2  0
  4  5  1  0
  5  6  2  0
  6  7  1  0
  7  8  2  0
  8  9  1  0
  9 10  2  0
 10 11  1  0
 11 12  2  0
 12 13  1  0
 14 13  1  1
 14 15  1  0
 15 16  1  0
 16 17  1  1
 17 18  2  0
 18 19  1  0
 19 20  1  0
 20 21  2  0
 12  3  1  0
 16 14  1  0
 21 17  1  0
 10  5  1  0
M  END
>  <energy_score>  (998) 
-13.663143

>  <alias>  (998) 
None

>  <HIPPO Pose ID>  (998) 
70434

>  <smiles>  (998) 
N#Cc1cc2cccnc2nc1N[C@@H]1C[C@@H]1c1c[nH]cn1

>  <inchikey>  (998) 
QRLZJEQRLAVWAZ-NWDGAFQWSA-N

>  <distance_score>  (998) 
0.939364

>  <ref_mols>  (998) 
Z0719a,Z0089a

>  <ref_pdb>  (998) 
Z0089a

>  <HIPPO Compound ID>  (998) 
142482

>  <name>  (998) 
P70434

>  <inspiration_score>  (998) 
None

$$$$
P70439
     RDKit          3D

 22 25  0  0  0  0  0  0  0  0999 V2000
   -6.4777    1.2523  -13.3146 N   0  0  0  0  0  0  0  0  0  0  0  0
   -6.4455    2.3860  -13.0958 C   0  0  0  0  0  0  0  0  0  0  0  0
   -6.3313    3.7609  -12.7874 C   0  0  0  0  0  0  0  0  0  0  0  0
   -5.2898    4.1727  -11.9615 C   0  0  0  0  0  0  0  0  0  0  0  0
   -5.1867    5.5249  -11.6219 C   0  0  0  0  0  0  0  0  0  0  0  0
   -4.1681    5.9984  -10.7821 C   0  0  0  0  0  0  0  0  0  0  0  0
   -4.1134    7.3483  -10.4740 C   0  0  0  0  0  0  0  0  0  0  0  0
   -5.0804    8.1664  -11.0205 C   0  0  0  0  0  0  0  0  0  0  0  0
   -6.0680    7.7291  -11.8318 N   0  0  0  0  0  0  0  0  0  0  0  0
   -6.1336    6.4303  -12.1342 C   0  0  0  0  0  0  0  0  0  0  0  0
   -7.1109    6.0136  -12.9416 N   0  0  0  0  0  0  0  0  0  0  0  0
   -7.2257    4.7070  -13.2744 C   0  0  0  0  0  0  0  0  0  0  0  0
   -8.2284    4.4186  -14.2083 N   0  0  0  0  0  0  0  0  0  0  0  0
   -7.7499    4.2555  -15.5999 C   0  0  1  0  0  0  0  0  0  0  0  0
   -8.9727    4.3546  -16.5519 C   0  0  0  0  0  0  0  0  0  0  0  0
   -8.6549    4.2922  -18.0642 C   0  0  0  0  0  0  0  0  0  0  0  0
   -7.2923    4.7995  -18.3294 C   0  0  0  0  0  0  0  0  0  0  0  0
   -6.6808    4.9569  -19.5367 N   0  0  0  0  0  0  0  0  0  0  0  0
   -5.4161    5.4219  -19.2873 C   0  0  0  0  0  0  0  0  0  0  0  0
   -5.1897    5.5789  -18.0014 N   0  0  0  0  0  0  0  0  0  0  0  0
   -6.3631    5.2081  -17.4098 C   0  0  0  0  0  0  0  0  0  0  0  0
   -6.6253    5.2522  -15.9658 C   0  0  0  0  0  0  0  0  0  0  0  0
  1  2  3  0
  2  3  1  0
  3  4  2  0
  4  5  1  0
  5  6  2  0
  6  7  1  0
  7  8  2  0
  8  9  1  0
  9 10  2  0
 10 11  1  0
 11 12  2  0
 12 13  1  0
 14 13  1  1
 14 15  1  0
 15 16  1  0
 16 17  1  0
 17 18  1  0
 18 19  1  0
 19 20  2  0
 20 21  1  0
 21 22  1  0
 12  3  1  0
 22 14  1  0
 10  5  1  0
 21 17  2  0
M  END
>  <energy_score>  (999) 
-9.550303

>  <alias>  (999) 
None

>  <HIPPO Pose ID>  (999) 
70439

>  <smiles>  (999) 
N#Cc1cc2cccnc2nc1N[C@H]1CCc2[nH]cnc2C1

>  <inchikey>  (999) 
BXPTUQSQBWQJRW-LBPRGKRZSA-N

>  <distance_score>  (999) 
1.19198

>  <ref_mols>  (999) 
Z0719a,Z0089a

>  <ref_pdb>  (999) 
Z0089a

>  <HIPPO Compound ID>  (999) 
142484

>  <name>  (999) 
P70439

>  <inspiration_score>  (999) 
None

$$$$
P70441
     RDKit          3D

 22 24  0  0  0  0  0  0  0  0999 V2000
   -2.5522    4.9186  -15.1186 N   0  0  0  0  0  0  0  0  0  0  0  0
   -3.5007    4.8641  -15.7863 C   0  0  0  0  0  0  0  0  0  0  0  0
   -4.7067    4.8255  -16.5483 C   0  0  0  0  0  0  0  0  0  0  0  0
   -5.9231    4.7064  -15.8577 C   0  0  0  0  0  0  0  0  0  0  0  0
   -7.1091    4.5551  -16.5832 C   0  0  0  0  0  0  0  0  0  0  0  0
   -8.3460    4.3023  -15.9832 C   0  0  0  0  0  0  0  0  0  0  0  0
   -9.4505    4.1122  -16.7973 C   0  0  0  0  0  0  0  0  0  0  0  0
   -9.2960    4.2195  -18.1593 C   0  0  0  0  0  0  0  0  0  0  0  0
   -8.1165    4.4611  -18.7428 N   0  0  0  0  0  0  0  0  0  0  0  0
   -7.0438    4.6086  -17.9814 C   0  0  0  0  0  0  0  0  0  0  0  0
   -5.8947    4.7766  -18.6089 N   0  0  0  0  0  0  0  0  0  0  0  0
   -4.7358    4.8214  -17.9375 C   0  0  0  0  0  0  0  0  0  0  0  0
   -3.7055    4.7101  -18.8234 N   0  0  0  0  0  0  0  0  0  0  0  0
   -2.4095    5.3799  -18.8038 C   0  0  1  0  0  0  0  0  0  0  0  0
   -1.4492    4.5322  -19.6611 C   0  0  0  0  0  0  0  0  0  0  0  0
   -0.1082    5.0012  -19.5783 O   0  0  0  0  0  0  0  0  0  0  0  0
   -2.4951    6.8401  -19.2897 C   0  0  0  0  0  0  0  0  0  0  0  0
   -3.2615    7.0313  -20.5604 C   0  0  0  0  0  0  0  0  0  0  0  0
   -4.6037    7.3139  -20.7068 C   0  0  0  0  0  0  0  0  0  0  0  0
   -4.8307    7.3220  -22.0529 N   0  0  0  0  0  0  0  0  0  0  0  0
   -3.6300    7.1162  -22.6698 C   0  0  0  0  0  0  0  0  0  0  0  0
   -2.6735    6.8809  -21.7984 N   0  0  0  0  0  0  0  0  0  0  0  0
  1  2  3  0
  2  3  1  0
  3  4  2  0
  4  5  1  0
  5  6  2  0
  6  7  1  0
  7  8  2  0
  8  9  1  0
  9 10  2  0
 10 11  1  0
 11 12  2  0
 12 13  1  0
 13 14  1  0
 14 15  1  6
 15 16  1  0
 14 17  1  0
 17 18  1  0
 18 19  2  0
 19 20  1  0
 20 21  1  0
 21 22  2  0
 12  3  1  0
 22 18  1  0
 10  5  1  0
M  END
>  <energy_score>  (1000) 
-25.909148

>  <alias>  (1000) 
None

>  <HIPPO Pose ID>  (1000) 
70441

>  <smiles>  (1000) 
N#Cc1cc2cccnc2nc1N[C@@H](CO)Cc1c[nH]cn1

>  <inchikey>  (1000) 
ZQQSDPYIGWFQHL-CYBMUJFWSA-N

>  <distance_score>  (1000) 
0.863641

>  <ref_mols>  (1000) 
Z0719a,Z0089a

>  <ref_pdb>  (1000) 
Z0089a

>  <HIPPO Compound ID>  (1000) 
142486

>  <name>  (1000) 
P70441

>  <inspiration_score>  (1000) 
None

$$$$
P70442
     RDKit          3D

 23 25  0  0  0  0  0  0  0  0999 V2000
   -3.1046    4.4463  -14.2343 N   0  0  0  0  0  0  0  0  0  0  0  0
   -3.9684    4.5272  -15.0053 C   0  0  0  0  0  0  0  0  0  0  0  0
   -5.0173    4.6171  -15.9731 C   0  0  0  0  0  0  0  0  0  0  0  0
   -6.3437    4.4329  -15.5771 C   0  0  0  0  0  0  0  0  0  0  0  0
   -7.3403    4.4484  -16.5557 C   0  0  0  0  0  0  0  0  0  0  0  0
   -8.6889    4.1885  -16.2706 C   0  0  0  0  0  0  0  0  0  0  0  0
   -9.6048    4.1527  -17.3124 C   0  0  0  0  0  0  0  0  0  0  0  0
   -9.1362    4.3859  -18.5855 C   0  0  0  0  0  0  0  0  0  0  0  0
   -7.8486    4.6534  -18.8619 N   0  0  0  0  0  0  0  0  0  0  0  0
   -6.9634    4.6941  -17.8864 C   0  0  0  0  0  0  0  0  0  0  0  0
   -5.7065    4.9612  -18.2286 N   0  0  0  0  0  0  0  0  0  0  0  0
   -4.7369    4.8870  -17.3205 C   0  0  0  0  0  0  0  0  0  0  0  0
   -3.4048    5.0415  -17.7585 N   0  0  0  0  0  0  0  0  0  0  0  0
   -3.2077    5.6106  -19.1409 C   0  0  2  0  0  0  0  0  0  0  0  0
   -1.7929    5.1984  -19.5954 C   0  0  0  0  0  0  0  0  0  0  0  0
   -1.3226    5.8865  -20.8237 C   0  0  0  0  0  0  0  0  0  0  0  0
   -0.2630    6.7548  -20.9752 C   0  0  0  0  0  0  0  0  0  0  0  0
   -0.2888    7.1282  -22.2891 N   0  0  0  0  0  0  0  0  0  0  0  0
   -1.3373    6.4830  -22.8767 C   0  0  0  0  0  0  0  0  0  0  0  0
   -1.9746    5.7138  -22.0195 N   0  0  0  0  0  0  0  0  0  0  0  0
   -3.3112    7.1541  -19.0350 C   0  0  0  0  0  0  0  0  0  0  0  0
   -3.5082    7.9455  -19.9436 O   0  0  0  0  0  0  0  0  0  0  0  0
   -3.0911    7.5795  -17.7538 O   0  0  0  0  0  0  0  0  0  0  0  0
  1  2  3  0
  2  3  1  0
  3  4  2  0
  4  5  1  0
  5  6  2  0
  6  7  1  0
  7  8  2  0
  8  9  1  0
  9 10  2  0
 10 11  1  0
 11 12  2  0
 12 13  1  0
 13 14  1  0
 14 15  1  1
 15 16  1  0
 16 17  2  0
 17 18  1  0
 18 19  1  0
 19 20  2  0
 14 21  1  0
 21 22  2  0
 21 23  1  0
 12  3  1  0
 20 16  1  0
 10  5  1  0
M  END
>  <energy_score>  (1001) 
-36.933966

>  <alias>  (1001) 
None

>  <HIPPO Pose ID>  (1001) 
70442

>  <smiles>  (1001) 
N#Cc1cc2cccnc2nc1N[C@H](Cc1c[nH]cn1)C(=O)O

>  <inchikey>  (1001) 
UIMQIPAVCAYYLB-GFCCVEGCSA-N

>  <distance_score>  (1001) 
0.95764

>  <ref_mols>  (1001) 
Z0719a,Z0089a

>  <ref_pdb>  (1001) 
Z0089a

>  <HIPPO Compound ID>  (1001) 
142488

>  <name>  (1001) 
P70442

>  <inspiration_score>  (1001) 
None

$$$$
P70453
     RDKit          3D

 24 26  0  0  0  0  0  0  0  0999 V2000
   -5.5991    2.9365  -13.7605 C   0  0  0  0  0  0  0  0  0  0  0  0
   -4.6674    3.7249  -14.6232 C   0  0  0  0  0  0  0  0  0  0  0  0
   -4.1977    3.4095  -15.8154 N   0  0  0  0  0  0  0  0  0  0  0  0
   -3.4508    4.4757  -16.2981 C   0  0  0  0  0  0  0  0  0  0  0  0
   -2.7498    4.4014  -17.6571 C   0  0  0  0  0  0  0  0  0  0  0  0
   -2.8387    5.4668  -18.7709 C   0  0  2  0  0  0  0  0  0  0  0  0
   -4.1603    5.6939  -19.4111 N   0  0  0  0  0  0  0  0  0  0  0  0
   -5.2892    5.6867  -18.6183 C   0  0  0  0  0  0  0  0  0  0  0  0
   -6.2380    4.8286  -19.0239 N   0  0  0  0  0  0  0  0  0  0  0  0
   -7.2940    4.6087  -18.2446 C   0  0  0  0  0  0  0  0  0  0  0  0
   -8.3267    3.9127  -18.7121 N   0  0  0  0  0  0  0  0  0  0  0  0
   -9.3611    3.6746  -17.8878 C   0  0  0  0  0  0  0  0  0  0  0  0
   -9.3808    4.0286  -16.5577 C   0  0  0  0  0  0  0  0  0  0  0  0
   -8.3410    4.7790  -16.0639 C   0  0  0  0  0  0  0  0  0  0  0  0
   -7.3244    5.1303  -16.9403 C   0  0  0  0  0  0  0  0  0  0  0  0
   -6.3887    6.0773  -16.5619 C   0  0  0  0  0  0  0  0  0  0  0  0
   -5.4265    6.4566  -17.4775 C   0  0  0  0  0  0  0  0  0  0  0  0
   -4.6103    7.5991  -17.2098 C   0  0  0  0  0  0  0  0  0  0  0  0
   -3.9791    8.5367  -16.9410 N   0  0  0  0  0  0  0  0  0  0  0  0
   -1.8780    5.0201  -19.9196 C   0  0  0  0  0  0  0  0  0  0  0  0
   -2.1668    4.9791  -21.1117 O   0  0  0  0  0  0  0  0  0  0  0  0
   -0.6473    4.6461  -19.5138 O   0  0  0  0  0  0  0  0  0  0  0  0
   -3.3810    5.4075  -15.2819 C   0  0  0  0  0  0  0  0  0  0  0  0
   -4.1663    4.9417  -14.2551 N   0  0  0  0  0  0  0  0  0  0  0  0
  1  2  1  0
  2  3  2  0
  3  4  1  0
  4  5  1  0
  6  5  1  1
  6  7  1  0
  7  8  1  0
  8  9  2  0
  9 10  1  0
 10 11  2  0
 11 12  1  0
 12 13  2  0
 13 14  1  0
 14 15  2  0
 15 16  1  0
 16 17  2  0
 17 18  1  0
 18 19  3  0
  6 20  1  0
 20 21  2  0
 20 22  1  0
  4 23  2  0
 23 24  1  0
 24  2  1  0
 17  8  1  0
 15 10  1  0
M  END
>  <energy_score>  (1002) 
-29.000208

>  <alias>  (1002) 
None

>  <HIPPO Pose ID>  (1002) 
70453

>  <smiles>  (1002) 
Cc1nc(C[C@H](Nc2nc3ncccc3cc2C#N)C(=O)O)c[nH]1

>  <inchikey>  (1002) 
JDGSBQJUGAJFKB-ZDUSSCGKSA-N

>  <distance_score>  (1002) 
1.681043

>  <ref_mols>  (1002) 
Z0719a,Z0089a

>  <ref_pdb>  (1002) 
Z0089a

>  <HIPPO Compound ID>  (1002) 
142495

>  <name>  (1002) 
P70453

>  <inspiration_score>  (1002) 
None

$$$$
P70456
     RDKit          3D

 25 27  0  0  0  0  0  0  0  0999 V2000
   -1.3457    4.4033  -20.6799 C   0  0  0  0  0  0  0  0  0  0  0  0
   -2.4794    5.0270  -20.1160 O   0  0  0  0  0  0  0  0  0  0  0  0
   -2.6432    4.5895  -18.8254 C   0  0  0  0  0  0  0  0  0  0  0  0
   -2.4818    3.4378  -18.4636 O   0  0  0  0  0  0  0  0  0  0  0  0
   -2.9459    5.7949  -17.9640 C   0  0  2  0  0  0  0  0  0  0  0  0
   -2.6554    5.5922  -16.4707 C   0  0  0  0  0  0  0  0  0  0  0  0
   -3.5358    4.7917  -15.5120 C   0  0  0  0  0  0  0  0  0  0  0  0
   -3.6666    3.4344  -15.2748 C   0  0  0  0  0  0  0  0  0  0  0  0
   -4.4202    3.3029  -14.1378 N   0  0  0  0  0  0  0  0  0  0  0  0
   -4.6650    2.0999  -13.3838 C   0  0  0  0  0  0  0  0  0  0  0  0
   -4.7855    4.5476  -13.7441 C   0  0  0  0  0  0  0  0  0  0  0  0
   -4.2504    5.4582  -14.5231 N   0  0  0  0  0  0  0  0  0  0  0  0
   -4.1386    6.5166  -18.4832 N   0  0  0  0  0  0  0  0  0  0  0  0
   -5.3154    6.0996  -17.8710 C   0  0  0  0  0  0  0  0  0  0  0  0
   -6.0436    5.2142  -18.5659 N   0  0  0  0  0  0  0  0  0  0  0  0
   -7.1715    4.7655  -18.0222 C   0  0  0  0  0  0  0  0  0  0  0  0
   -8.0148    4.0793  -18.7780 N   0  0  0  0  0  0  0  0  0  0  0  0
   -9.2092    3.7567  -18.2567 C   0  0  0  0  0  0  0  0  0  0  0  0
   -9.5785    3.9856  -16.9526 C   0  0  0  0  0  0  0  0  0  0  0  0
   -8.6831    4.6172  -16.1242 C   0  0  0  0  0  0  0  0  0  0  0  0
   -7.5065    5.0812  -16.6887 C   0  0  0  0  0  0  0  0  0  0  0  0
   -6.7432    5.9884  -15.9798 C   0  0  0  0  0  0  0  0  0  0  0  0
   -5.6848    6.5937  -16.6300 C   0  0  0  0  0  0  0  0  0  0  0  0
   -5.0568    7.7540  -16.0591 C   0  0  0  0  0  0  0  0  0  0  0  0
   -4.6143    8.7358  -15.6211 N   0  0  0  0  0  0  0  0  0  0  0  0
  1  2  1  0
  2  3  1  0
  3  4  2  0
  3  5  1  0
  5  6  1  1
  6  7  1  0
  7  8  2  0
  8  9  1  0
  9 10  1  0
  9 11  1  0
 11 12  2  0
  5 13  1  0
 13 14  1  0
 14 15  2  0
 15 16  1  0
 16 17  2  0
 17 18  1  0
 18 19  2  0
 19 20  1  0
 20 21  2  0
 21 22  1  0
 22 23  2  0
 23 24  1  0
 24 25  3  0
 12  7  1  0
 23 14  1  0
 21 16  1  0
M  END
>  <energy_score>  (1003) 
-99.871809

>  <alias>  (1003) 
None

>  <HIPPO Pose ID>  (1003) 
70456

>  <smiles>  (1003) 
COC(=O)[C@H](Cc1cn(C)cn1)Nc1nc2ncccc2cc1C#N

>  <inchikey>  (1003) 
SNVRPFUHPDFMIN-AWEZNQCLSA-N

>  <distance_score>  (1003) 
1.809101

>  <ref_mols>  (1003) 
Z0719a,Z0089a

>  <ref_pdb>  (1003) 
Z0089a

>  <HIPPO Compound ID>  (1003) 
142497

>  <name>  (1003) 
P70456

>  <inspiration_score>  (1003) 
None

$$$$
P70458
     RDKit          3D

 25 27  0  0  0  0  0  0  0  0999 V2000
    1.7764    6.4483  -21.0695 C   0  0  0  0  0  0  0  0  0  0  0  0
    0.3047    6.3072  -21.4052 C   0  0  0  0  0  0  0  0  0  0  0  0
   -0.4194    6.1572  -20.1795 O   0  0  0  0  0  0  0  0  0  0  0  0
   -1.7307    5.8229  -20.3320 C   0  0  0  0  0  0  0  0  0  0  0  0
   -2.2630    5.5243  -21.4003 O   0  0  0  0  0  0  0  0  0  0  0  0
   -2.4774    5.9080  -18.9865 C   0  0  1  0  0  0  0  0  0  0  0  0
   -2.9153    7.3620  -18.7968 C   0  0  0  0  0  0  0  0  0  0  0  0
   -1.7905    8.2744  -18.4455 C   0  0  0  0  0  0  0  0  0  0  0  0
   -1.0824    8.3692  -17.2665 C   0  0  0  0  0  0  0  0  0  0  0  0
   -0.1515    9.3465  -17.4845 N   0  0  0  0  0  0  0  0  0  0  0  0
   -0.3309    9.8081  -18.7566 C   0  0  0  0  0  0  0  0  0  0  0  0
   -1.3154    9.1836  -19.3602 N   0  0  0  0  0  0  0  0  0  0  0  0
   -3.6290    4.9815  -19.0303 N   0  0  0  0  0  0  0  0  0  0  0  0
   -4.6374    4.9299  -18.0960 C   0  0  0  0  0  0  0  0  0  0  0  0
   -5.8286    4.8330  -18.6957 N   0  0  0  0  0  0  0  0  0  0  0  0
   -6.9421    4.6252  -18.0041 C   0  0  0  0  0  0  0  0  0  0  0  0
   -8.0635    4.4656  -18.6898 N   0  0  0  0  0  0  0  0  0  0  0  0
   -9.2056    4.2064  -18.0393 C   0  0  0  0  0  0  0  0  0  0  0  0
   -9.2799    4.1063  -16.6696 C   0  0  0  0  0  0  0  0  0  0  0  0
   -8.1252    4.3009  -15.9297 C   0  0  0  0  0  0  0  0  0  0  0  0
   -6.9268    4.5619  -16.6050 C   0  0  0  0  0  0  0  0  0  0  0  0
   -5.7019    4.7229  -15.9497 C   0  0  0  0  0  0  0  0  0  0  0  0
   -4.5328    4.8953  -16.7086 C   0  0  0  0  0  0  0  0  0  0  0  0
   -3.2852    5.0012  -16.0234 C   0  0  0  0  0  0  0  0  0  0  0  0
   -2.2898    5.1286  -15.4382 N   0  0  0  0  0  0  0  0  0  0  0  0
  1  2  1  0
  2  3  1  0
  3  4  1  0
  4  5  2  0
  4  6  1  0
  6  7  1  6
  7  8  1  0
  8  9  2  0
  9 10  1  0
 10 11  1  0
 11 12  2  0
  6 13  1  0
 13 14  1  0
 14 15  2  0
 15 16  1  0
 16 17  2  0
 17 18  1  0
 18 19  2  0
 19 20  1  0
 20 21  2  0
 21 22  1  0
 22 23  2  0
 23 24  1  0
 24 25  3  0
 12  8  1  0
 23 14  1  0
 21 16  1  0
M  END
>  <energy_score>  (1004) 
-33.160752

>  <alias>  (1004) 
None

>  <HIPPO Pose ID>  (1004) 
70458

>  <smiles>  (1004) 
CCOC(=O)[C@@H](Cc1c[nH]cn1)Nc1nc2ncccc2cc1C#N

>  <inchikey>  (1004) 
VABFNZPUYIPMDR-CQSZACIVSA-N

>  <distance_score>  (1004) 
1.076394

>  <ref_mols>  (1004) 
Z0719a,Z0089a

>  <ref_pdb>  (1004) 
Z0089a

>  <HIPPO Compound ID>  (1004) 
142498

>  <name>  (1004) 
P70458

>  <inspiration_score>  (1004) 
None

$$$$
P70459
     RDKit          3D

 25 27  0  0  0  0  0  0  0  0999 V2000
   -1.5232    3.4030  -19.7441 C   0  0  0  0  0  0  0  0  0  0  0  0
   -2.3675    4.3327  -19.0889 O   0  0  0  0  0  0  0  0  0  0  0  0
   -1.7231    5.4366  -18.6177 C   0  0  0  0  0  0  0  0  0  0  0  0
   -0.5449    5.7181  -18.7922 O   0  0  0  0  0  0  0  0  0  0  0  0
   -2.6754    6.2629  -17.7756 C   0  0  2  0  0  0  0  0  0  0  0  0
   -2.4719    5.7950  -16.3193 C   0  0  0  0  0  0  0  0  0  0  0  0
   -3.3559    4.8046  -15.5883 C   0  0  0  0  0  0  0  0  0  0  0  0
   -4.3496    3.9619  -16.0198 C   0  0  0  0  0  0  0  0  0  0  0  0
   -5.0050    3.5271  -14.8970 N   0  0  0  0  0  0  0  0  0  0  0  0
   -4.2205    3.8436  -13.8404 C   0  0  0  0  0  0  0  0  0  0  0  0
   -4.3932    3.3972  -12.6120 O   0  0  0  0  0  0  0  0  0  0  0  0
   -3.2731    4.6700  -14.2050 N   0  0  0  0  0  0  0  0  0  0  0  0
   -3.9907    6.3663  -18.4700 N   0  0  0  0  0  0  0  0  0  0  0  0
   -5.1961    6.1986  -17.8375 C   0  0  0  0  0  0  0  0  0  0  0  0
   -6.0227    5.3620  -18.4992 N   0  0  0  0  0  0  0  0  0  0  0  0
   -7.1460    4.9451  -17.9192 C   0  0  0  0  0  0  0  0  0  0  0  0
   -8.0040    4.2086  -18.6156 N   0  0  0  0  0  0  0  0  0  0  0  0
   -9.1439    3.8180  -18.0213 C   0  0  0  0  0  0  0  0  0  0  0  0
   -9.4291    4.0450  -16.6947 C   0  0  0  0  0  0  0  0  0  0  0  0
   -8.5328    4.7705  -15.9414 C   0  0  0  0  0  0  0  0  0  0  0  0
   -7.4081    5.2780  -16.5763 C   0  0  0  0  0  0  0  0  0  0  0  0
   -6.5888    6.1876  -15.9144 C   0  0  0  0  0  0  0  0  0  0  0  0
   -5.5259    6.7480  -16.6083 C   0  0  0  0  0  0  0  0  0  0  0  0
   -4.8407    7.8748  -16.0534 C   0  0  0  0  0  0  0  0  0  0  0  0
   -4.3282    8.8169  -15.6088 N   0  0  0  0  0  0  0  0  0  0  0  0
  1  2  1  0
  2  3  1  0
  3  4  2  0
  3  5  1  0
  5  6  1  1
  6  7  1  0
  7  8  2  0
  8  9  1  0
  9 10  1  0
 10 11  1  0
 10 12  2  0
  5 13  1  0
 13 14  1  0
 14 15  2  0
 15 16  1  0
 16 17  2  0
 17 18  1  0
 18 19  2  0
 19 20  1  0
 20 21  2  0
 21 22  1  0
 22 23  2  0
 23 24  1  0
 24 25  3  0
 12  7  1  0
 23 14  1  0
 21 16  1  0
M  END
>  <energy_score>  (1005) 
-12.445288

>  <alias>  (1005) 
None

>  <HIPPO Pose ID>  (1005) 
70459

>  <smiles>  (1005) 
COC(=O)[C@H](Cc1c[nH]c(O)n1)Nc1nc2ncccc2cc1C#N

>  <inchikey>  (1005) 
FMQYFSSJUBUNNO-LBPRGKRZSA-N

>  <distance_score>  (1005) 
1.94125

>  <ref_mols>  (1005) 
Z0719a,Z0089a

>  <ref_pdb>  (1005) 
Z0089a

>  <HIPPO Compound ID>  (1005) 
142499

>  <name>  (1005) 
P70459

>  <inspiration_score>  (1005) 
None

$$$$
P70460
     RDKit          3D

 26 29  0  0  0  0  0  0  0  0999 V2000
   -4.0794    5.4768  -19.8611 C   0  0  0  0  0  0  0  0  0  0  0  0
   -5.1138    5.4796  -18.8059 C   0  0  0  0  0  0  0  0  0  0  0  0
   -6.1619    4.6794  -18.7284 N   0  0  0  0  0  0  0  0  0  0  0  0
   -6.7477    4.9664  -17.5306 C   0  0  0  0  0  0  0  0  0  0  0  0
   -6.0314    5.9290  -16.8628 C   0  0  0  0  0  0  0  0  0  0  0  0
   -5.1070    6.3713  -17.7578 N   0  0  0  0  0  0  0  0  0  0  0  0
   -4.4012    7.6376  -17.7060 C   0  0  0  0  0  0  0  0  0  0  0  0
   -4.7915    8.5801  -18.8530 C   0  0  0  0  0  0  0  0  0  0  0  0
   -6.2077    8.6663  -19.0406 O   0  0  0  0  0  0  0  0  0  0  0  0
   -6.1985    6.3135  -15.4422 C   0  0  0  0  0  0  0  0  0  0  0  0
   -7.4799    5.6865  -14.8701 C   0  0  0  0  0  0  0  0  0  0  0  0
   -7.6801    4.2333  -15.3385 C   0  0  2  0  0  0  0  0  0  0  0  0
   -6.5083    3.4277  -14.9689 N   0  0  0  0  0  0  0  0  0  0  0  0
   -5.9324    3.1208  -13.7737 C   0  0  0  0  0  0  0  0  0  0  0  0
   -4.6356    2.7413  -13.8969 N   0  0  0  0  0  0  0  0  0  0  0  0
   -3.9184    2.3550  -12.8402 C   0  0  0  0  0  0  0  0  0  0  0  0
   -2.6322    2.0357  -13.0222 N   0  0  0  0  0  0  0  0  0  0  0  0
   -1.8930    1.6764  -11.9503 C   0  0  0  0  0  0  0  0  0  0  0  0
   -2.3816    1.6132  -10.6610 C   0  0  0  0  0  0  0  0  0  0  0  0
   -3.7152    1.9341  -10.4654 C   0  0  0  0  0  0  0  0  0  0  0  0
   -4.4970    2.3211  -11.5637 C   0  0  0  0  0  0  0  0  0  0  0  0
   -5.8318    2.7111  -11.4237 C   0  0  0  0  0  0  0  0  0  0  0  0
   -6.5477    3.1389  -12.5433 C   0  0  0  0  0  0  0  0  0  0  0  0
   -7.8434    3.6861  -12.3615 C   0  0  0  0  0  0  0  0  0  0  0  0
   -8.8287    4.2565  -12.1444 N   0  0  0  0  0  0  0  0  0  0  0  0
   -7.8908    4.2598  -16.8984 C   0  0  0  0  0  0  0  0  0  0  0  0
  1  2  1  0
  2  3  2  0
  3  4  1  0
  4  5  2  0
  5  6  1  0
  6  7  1  0
  7  8  1  0
  8  9  1  0
  5 10  1  0
 10 11  1  0
 11 12  1  0
 12 13  1  6
 13 14  1  0
 14 15  2  0
 15 16  1  0
 16 17  2  0
 17 18  1  0
 18 19  2  0
 19 20  1  0
 20 21  2  0
 21 22  1  0
 22 23  2  0
 23 24  1  0
 24 25  3  0
 12 26  1  0
  6  2  1  0
 23 14  1  0
 26  4  1  0
 21 16  1  0
M  END
>  <energy_score>  (1006) 
-33.999995

>  <alias>  (1006) 
None

>  <HIPPO Pose ID>  (1006) 
70460

>  <smiles>  (1006) 
Cc1nc2c(n1CCO)CC[C@H](Nc1nc3ncccc3cc1C#N)C2

>  <inchikey>  (1006) 
ZHHHHLUWYMEEHU-HNNXBMFYSA-N

>  <distance_score>  (1006) 
1.794543

>  <ref_mols>  (1006) 
Z0719a,Z0089a

>  <ref_pdb>  (1006) 
Z0089a

>  <HIPPO Compound ID>  (1006) 
142501

>  <name>  (1006) 
P70460

>  <inspiration_score>  (1006) 
None

$$$$
P70463
     RDKit          3D

 31 35  0  0  0  0  0  0  0  0999 V2000
   -4.4589    7.2202  -20.9256 C   0  0  0  0  0  0  0  0  0  0  0  0
   -4.4980    7.9501  -19.6835 N   0  0  0  0  0  0  0  0  0  0  0  0
   -5.4431    8.9099  -19.4406 C   0  0  0  0  0  0  0  0  0  0  0  0
   -5.3823    9.3700  -18.2166 N   0  0  0  0  0  0  0  0  0  0  0  0
   -4.2987    8.7370  -17.6700 C   0  0  0  0  0  0  0  0  0  0  0  0
   -3.6905    7.8777  -18.5735 C   0  0  0  0  0  0  0  0  0  0  0  0
   -2.4109    7.1128  -18.3978 C   0  0  2  0  0  0  0  0  0  0  0  0
   -1.3191    7.4915  -19.4113 C   0  0  0  0  0  0  0  0  0  0  0  0
   -0.4310    6.3266  -19.3940 N   0  0  0  0  0  0  0  0  0  0  0  0
    0.5231    6.2830  -20.5039 C   0  0  0  0  0  0  0  0  0  0  0  0
    1.4967    7.4434  -20.5009 C   0  0  0  0  0  0  0  0  0  0  0  0
    1.6150    8.2800  -21.6198 C   0  0  0  0  0  0  0  0  0  0  0  0
    2.5225    9.3411  -21.6177 C   0  0  0  0  0  0  0  0  0  0  0  0
    3.3221    9.5753  -20.5003 C   0  0  0  0  0  0  0  0  0  0  0  0
    3.2175    8.7482  -19.3839 C   0  0  0  0  0  0  0  0  0  0  0  0
    2.3122    7.6864  -19.3849 C   0  0  0  0  0  0  0  0  0  0  0  0
   -1.3415    5.1740  -19.3916 C   0  0  0  0  0  0  0  0  0  0  0  0
   -2.4108    5.5702  -18.3493 C   0  0  2  0  0  0  0  0  0  0  0  0
   -3.6599    4.8838  -18.6148 N   0  0  0  0  0  0  0  0  0  0  0  0
   -4.7662    4.8673  -17.8055 C   0  0  0  0  0  0  0  0  0  0  0  0
   -5.8660    4.8249  -18.5667 N   0  0  0  0  0  0  0  0  0  0  0  0
   -7.0624    4.6336  -18.0302 C   0  0  0  0  0  0  0  0  0  0  0  0
   -8.0769    4.5323  -18.8678 N   0  0  0  0  0  0  0  0  0  0  0  0
   -9.3059    4.2995  -18.3923 C   0  0  0  0  0  0  0  0  0  0  0  0
   -9.5770    4.1362  -17.0562 C   0  0  0  0  0  0  0  0  0  0  0  0
   -8.5302    4.2584  -16.1569 C   0  0  0  0  0  0  0  0  0  0  0  0
   -7.2430    4.5192  -16.6472 C   0  0  0  0  0  0  0  0  0  0  0  0
   -6.1153    4.6337  -15.8286 C   0  0  0  0  0  0  0  0  0  0  0  0
   -4.8504    4.7964  -16.4175 C   0  0  0  0  0  0  0  0  0  0  0  0
   -3.7123    4.8082  -15.5565 C   0  0  0  0  0  0  0  0  0  0  0  0
   -2.8131    4.8225  -14.8210 N   0  0  0  0  0  0  0  0  0  0  0  0
  1  2  1  0
  2  3  1  0
  3  4  2  0
  4  5  1  0
  5  6  2  0
  7  6  1  6
  7  8  1  0
  8  9  1  0
  9 10  1  0
 10 11  1  0
 11 12  2  0
 12 13  1  0
 13 14  2  0
 14 15  1  0
 15 16  2  0
  9 17  1  0
 17 18  1  0
 18 19  1  6
 19 20  1  0
 20 21  2  0
 21 22  1  0
 22 23  2  0
 23 24  1  0
 24 25  2  0
 25 26  1  0
 26 27  2  0
 27 28  1  0
 28 29  2  0
 29 30  1  0
 30 31  3  0
  6  2  1  0
 18  7  1  0
 29 20  1  0
 16 11  1  0
 27 22  1  0
M  END
>  <energy_score>  (1007) 
-41.687662

>  <alias>  (1007) 
None

>  <HIPPO Pose ID>  (1007) 
70463

>  <smiles>  (1007) 
Cn1cncc1[C@@H]1CN(Cc2ccccc2)C[C@@H]1Nc1nc2ncccc2cc1C#N

>  <inchikey>  (1007) 
SNUWKNKCKZJQOF-RTWAWAEBSA-N

>  <distance_score>  (1007) 
0.90675

>  <ref_mols>  (1007) 
Z0719a,Z0089a

>  <ref_pdb>  (1007) 
Z0089a

>  <HIPPO Compound ID>  (1007) 
142503

>  <name>  (1007) 
P70463

>  <inspiration_score>  (1007) 
None

$$$$
P70465
     RDKit          3D

 23 25  0  0  0  0  0  0  0  0999 V2000
   -8.6764    4.0023   -6.0699 C   0  0  0  0  0  0  0  0  0  0  0  0
   -8.6897    3.8067   -7.5490 C   0  0  0  0  0  0  0  0  0  0  0  0
   -8.2404    4.8078   -8.4162 C   0  0  0  0  0  0  0  0  0  0  0  0
   -8.2245    4.5387   -9.7889 C   0  0  0  0  0  0  0  0  0  0  0  0
   -7.7783    5.4939  -10.7328 N   0  0  0  0  0  0  0  0  0  0  0  0
   -7.5980    6.8450  -10.5332 C   0  0  0  0  0  0  0  0  0  0  0  0
   -7.1088    7.3574  -11.7097 C   0  0  0  0  0  0  0  0  0  0  0  0
   -6.9892    6.2473  -12.5623 C   0  0  0  0  0  0  0  0  0  0  0  0
   -6.4489    6.2389  -13.8073 N   0  0  0  0  0  0  0  0  0  0  0  0
   -5.8123    7.3803  -14.6335 C   0  0  0  0  0  0  0  0  0  0  0  0
   -5.7226    8.5225  -14.4036 O   0  0  0  0  0  0  0  0  0  0  0  0
   -5.1658    6.8077  -15.8939 C   0  0  1  0  0  0  0  0  0  0  0  0
   -4.0195    5.8338  -15.6415 C   0  0  0  0  0  0  0  0  0  0  0  0
   -3.2152    5.7020  -16.9293 C   0  0  0  0  0  0  0  0  0  0  0  0
   -4.0392    5.8966  -18.1937 C   0  0  0  0  0  0  0  0  0  0  0  0
   -3.4973    6.2030  -19.2520 O   0  0  0  0  0  0  0  0  0  0  0  0
   -5.4005    5.6697  -18.0660 N   0  0  0  0  0  0  0  0  0  0  0  0
   -6.1918    5.4711  -19.2621 C   0  0  0  0  0  0  0  0  0  0  0  0
   -6.1142    6.1639  -16.8947 C   0  0  0  0  0  0  0  0  0  0  0  0
   -7.4369    5.1308  -11.9994 N   0  0  0  0  0  0  0  0  0  0  0  0
   -8.6653    3.3018  -10.2406 C   0  0  0  0  0  0  0  0  0  0  0  0
   -9.1534    2.4152   -9.3047 C   0  0  0  0  0  0  0  0  0  0  0  0
   -9.1669    2.6292   -7.9801 N   0  0  0  0  0  0  0  0  0  0  0  0
  1  2  1  0
  2  3  2  0
  3  4  1  0
  4  5  1  0
  5  6  1  0
  6  7  2  0
  7  8  1  0
  8  9  1  0
  9 10  1  0
 10 11  2  0
 12 10  1  1
 12 13  1  0
 13 14  1  0
 14 15  1  0
 15 16  2  0
 15 17  1  0
 17 18  1  0
 17 19  1  0
  8 20  2  0
  4 21  2  0
 21 22  1  0
 22 23  2  0
 23  2  1  0
 20  5  1  0
 19 12  1  0
M  END
>  <energy_score>  (1008) 
-21.568075

>  <alias>  (1008) 
None

>  <HIPPO Pose ID>  (1008) 
70465

>  <smiles>  (1008) 
Cc1cc(-n2ccc(NC(=O)[C@H]3CCC(=O)N(C)C3)n2)ccn1

>  <inchikey>  (1008) 
KAADVUMPKDFRTD-LBPRGKRZSA-N

>  <distance_score>  (1008) 
1.764158

>  <ref_mols>  (1008) 
Z0969a,Z0788a

>  <ref_pdb>  (1008) 
Z0788a

>  <HIPPO Compound ID>  (1008) 
142538

>  <name>  (1008) 
P70465

>  <inspiration_score>  (1008) 
None

$$$$
P70467
     RDKit          3D

 23 25  0  0  0  0  0  0  0  0999 V2000
   -9.0233    4.2004   -6.9523 C   0  0  0  0  0  0  0  0  0  0  0  0
   -8.4369    3.8508   -8.2830 C   0  0  0  0  0  0  0  0  0  0  0  0
   -8.3487    4.7721   -9.3407 C   0  0  0  0  0  0  0  0  0  0  0  0
   -7.7263    4.3690  -10.5314 C   0  0  0  0  0  0  0  0  0  0  0  0
   -7.5990    5.2144  -11.6764 N   0  0  0  0  0  0  0  0  0  0  0  0
   -8.1615    6.4553  -11.8835 C   0  0  0  0  0  0  0  0  0  0  0  0
   -7.8176    6.8426  -13.1595 C   0  0  0  0  0  0  0  0  0  0  0  0
   -6.9801    5.8216  -13.6543 C   0  0  0  0  0  0  0  0  0  0  0  0
   -6.3846    5.8193  -14.8954 N   0  0  0  0  0  0  0  0  0  0  0  0
   -5.3003    4.8764  -15.4943 C   0  0  0  0  0  0  0  0  0  0  0  0
   -4.6926    4.0063  -14.9977 O   0  0  0  0  0  0  0  0  0  0  0  0
   -4.9967    5.2686  -16.9713 C   0  0  1  0  0  0  0  0  0  0  0  0
   -6.1974    5.2833  -17.9122 C   0  0  0  0  0  0  0  0  0  0  0  0
   -6.6363    6.5868  -18.3763 N   0  0  0  0  0  0  0  0  0  0  0  0
   -5.9225    7.7455  -18.3233 C   0  0  0  0  0  0  0  0  0  0  0  0
   -6.2721    8.7372  -18.9622 O   0  0  0  0  0  0  0  0  0  0  0  0
   -4.8133    7.8013  -17.3076 C   0  0  0  0  0  0  0  0  0  0  0  0
   -4.0601    6.4838  -17.1399 C   0  0  2  0  0  0  0  0  0  0  0  0
   -3.1099    6.2688  -18.3284 C   0  0  0  0  0  0  0  0  0  0  0  0
   -6.8318    4.8548  -12.7485 N   0  0  0  0  0  0  0  0  0  0  0  0
   -7.2014    3.0806  -10.5981 C   0  0  0  0  0  0  0  0  0  0  0  0
   -7.3284    2.2515   -9.5000 C   0  0  0  0  0  0  0  0  0  0  0  0
   -7.9462    2.6014   -8.3611 N   0  0  0  0  0  0  0  0  0  0  0  0
  1  2  1  0
  2  3  2  0
  3  4  1  0
  4  5  1  0
  5  6  1  0
  6  7  2  0
  7  8  1  0
  8  9  1  0
  9 10  1  0
 10 11  2  0
 12 10  1  1
 12 13  1  0
 13 14  1  0
 14 15  1  0
 15 16  2  0
 15 17  1  0
 17 18  1  0
 18 19  1  6
  8 20  2  0
  4 21  2  0
 21 22  1  0
 22 23  2  0
 23  2  1  0
 20  5  1  0
 18 12  1  0
M  END
>  <energy_score>  (1009) 
-47.200334

>  <alias>  (1009) 
None

>  <HIPPO Pose ID>  (1009) 
70467

>  <smiles>  (1009) 
Cc1cc(-n2ccc(NC(=O)[C@H]3CNC(=O)C[C@@H]3C)n2)ccn1

>  <inchikey>  (1009) 
QTKHGTNYVRCTFF-GWCFXTLKSA-N

>  <distance_score>  (1009) 
1.983648

>  <ref_mols>  (1009) 
Z0788a,Z0969a

>  <ref_pdb>  (1009) 
Z0788a

>  <HIPPO Compound ID>  (1009) 
142539

>  <name>  (1009) 
P70467

>  <inspiration_score>  (1009) 
None

$$$$
P70469
     RDKit          3D

 24 26  0  0  0  0  0  0  0  0999 V2000
   -8.7876    3.5104   -6.5859 C   0  0  0  0  0  0  0  0  0  0  0  0
   -8.6747    3.5634   -8.0805 C   0  0  0  0  0  0  0  0  0  0  0  0
   -9.2897    2.5530   -8.7276 N   0  0  0  0  0  0  0  0  0  0  0  0
   -9.2489    2.5733  -10.0709 C   0  0  0  0  0  0  0  0  0  0  0  0
   -8.5845    3.5134  -10.8253 C   0  0  0  0  0  0  0  0  0  0  0  0
   -7.9100    4.5308  -10.1613 C   0  0  0  0  0  0  0  0  0  0  0  0
   -7.0449    5.3302  -10.9562 N   0  0  0  0  0  0  0  0  0  0  0  0
   -5.7963    5.7958  -10.6002 C   0  0  0  0  0  0  0  0  0  0  0  0
   -5.1662    6.1771  -11.7606 C   0  0  0  0  0  0  0  0  0  0  0  0
   -6.1246    6.0036  -12.7735 C   0  0  0  0  0  0  0  0  0  0  0  0
   -5.9611    6.3069  -14.0930 N   0  0  0  0  0  0  0  0  0  0  0  0
   -4.6754    6.6638  -14.8966 C   0  0  0  0  0  0  0  0  0  0  0  0
   -3.5534    6.6759  -14.5650 O   0  0  0  0  0  0  0  0  0  0  0  0
   -5.1001    7.1518  -16.3036 C   0  0  2  0  0  0  0  0  0  0  0  0
   -5.8422    6.1786  -17.2155 C   0  0  0  0  0  0  0  0  0  0  0  0
   -6.2044    6.8134  -18.4803 N   0  0  0  0  0  0  0  0  0  0  0  0
   -5.5152    7.8289  -19.0826 C   0  0  0  0  0  0  0  0  0  0  0  0
   -5.8092    8.2179  -20.2100 O   0  0  0  0  0  0  0  0  0  0  0  0
   -4.4753    8.5612  -18.2671 C   0  0  0  0  0  0  0  0  0  0  0  0
   -3.9107    7.7527  -17.0990 C   0  0  2  0  0  0  0  0  0  0  0  0
   -2.8903    6.7217  -17.6044 C   0  0  0  0  0  0  0  0  0  0  0  0
   -7.2751    5.5319  -12.2934 N   0  0  0  0  0  0  0  0  0  0  0  0
   -8.0141    4.6055   -8.7622 C   0  0  0  0  0  0  0  0  0  0  0  0
   -7.5411    6.0070   -7.8694 Cl  0  0  0  0  0  0  0  0  0  0  0  0
  1  2  1  0
  2  3  2  0
  3  4  1  0
  4  5  2  0
  5  6  1  0
  6  7  1  0
  7  8  1  0
  8  9  2  0
  9 10  1  0
 10 11  1  0
 11 12  1  0
 12 13  2  0
 14 12  1  1
 14 15  1  0
 15 16  1  0
 16 17  1  0
 17 18  2  0
 17 19  1  0
 19 20  1  0
 20 21  1  6
 10 22  2  0
  6 23  2  0
 23 24  1  0
 23  2  1  0
 22  7  1  0
 20 14  1  0
M  END
>  <energy_score>  (1010) 
-26.611035

>  <alias>  (1010) 
None

>  <HIPPO Pose ID>  (1010) 
70469

>  <smiles>  (1010) 
Cc1nccc(-n2ccc(NC(=O)[C@@H]3CNC(=O)C[C@@H]3C)n2)c1Cl

>  <inchikey>  (1010) 
KQEQEERMCULCPE-GXSJLCMTSA-N

>  <distance_score>  (1010) 
1.95388

>  <ref_mols>  (1010) 
Z0788a,Z0969a

>  <ref_pdb>  (1010) 
Z0788a

>  <HIPPO Compound ID>  (1010) 
142541

>  <name>  (1010) 
P70469

>  <inspiration_score>  (1010) 
None

$$$$
P70470
     RDKit          3D

 24 26  0  0  0  0  0  0  0  0999 V2000
   -9.2041    3.6834   -6.0277 C   0  0  0  0  0  0  0  0  0  0  0  0
   -8.6555    3.5083   -7.4092 C   0  0  0  0  0  0  0  0  0  0  0  0
   -8.3514    2.2336   -7.7164 N   0  0  0  0  0  0  0  0  0  0  0  0
   -7.7958    2.0123   -8.9108 C   0  0  0  0  0  0  0  0  0  0  0  0
   -7.6388    2.9823   -9.8802 C   0  0  0  0  0  0  0  0  0  0  0  0
   -7.9710    4.3090   -9.5833 C   0  0  0  0  0  0  0  0  0  0  0  0
   -7.7989    5.2627  -10.6292 N   0  0  0  0  0  0  0  0  0  0  0  0
   -8.2335    6.5675  -10.7182 C   0  0  0  0  0  0  0  0  0  0  0  0
   -7.7346    7.0890  -11.8857 C   0  0  0  0  0  0  0  0  0  0  0  0
   -7.0655    6.0206  -12.4951 C   0  0  0  0  0  0  0  0  0  0  0  0
   -6.4192    6.0517  -13.6874 N   0  0  0  0  0  0  0  0  0  0  0  0
   -6.0393    7.2452  -14.5921 C   0  0  0  0  0  0  0  0  0  0  0  0
   -6.2903    8.3817  -14.4913 O   0  0  0  0  0  0  0  0  0  0  0  0
   -5.2613    6.7495  -15.8111 C   0  0  1  0  0  0  0  0  0  0  0  0
   -4.0471    5.8636  -15.5648 C   0  0  0  0  0  0  0  0  0  0  0  0
   -3.2194    5.8242  -16.8454 C   0  0  0  0  0  0  0  0  0  0  0  0
   -4.0306    5.9759  -18.1258 C   0  0  0  0  0  0  0  0  0  0  0  0
   -3.4781    6.3040  -19.1730 O   0  0  0  0  0  0  0  0  0  0  0  0
   -5.3832    5.6942  -18.0328 N   0  0  0  0  0  0  0  0  0  0  0  0
   -6.1510    5.4881  -19.2440 C   0  0  0  0  0  0  0  0  0  0  0  0
   -6.1395    6.0530  -16.8407 C   0  0  0  0  0  0  0  0  0  0  0  0
   -7.1207    4.9123  -11.7674 N   0  0  0  0  0  0  0  0  0  0  0  0
   -8.4137    4.5915   -8.2819 C   0  0  0  0  0  0  0  0  0  0  0  0
   -8.4935    6.1814   -7.6071 Cl  0  0  0  0  0  0  0  0  0  0  0  0
  1  2  1  0
  2  3  2  0
  3  4  1  0
  4  5  2  0
  5  6  1  0
  6  7  1  0
  7  8  1  0
  8  9  2  0
  9 10  1  0
 10 11  1  0
 11 12  1  0
 12 13  2  0
 14 12  1  1
 14 15  1  0
 15 16  1  0
 16 17  1  0
 17 18  2  0
 17 19  1  0
 19 20  1  0
 19 21  1  0
 10 22  2  0
  6 23  2  0
 23 24  1  0
 23  2  1  0
 22  7  1  0
 21 14  1  0
M  END
>  <energy_score>  (1011) 
-41.446636

>  <alias>  (1011) 
None

>  <HIPPO Pose ID>  (1011) 
70470

>  <smiles>  (1011) 
Cc1nccc(-n2ccc(NC(=O)[C@H]3CCC(=O)N(C)C3)n2)c1Cl

>  <inchikey>  (1011) 
NYMCURLDRFUOEP-NSHDSACASA-N

>  <distance_score>  (1011) 
1.820806

>  <ref_mols>  (1011) 
Z0788a,Z0969a

>  <ref_pdb>  (1011) 
Z0788a

>  <HIPPO Compound ID>  (1011) 
142542

>  <name>  (1011) 
P70470

>  <inspiration_score>  (1011) 
None

$$$$
P70473
     RDKit          3D

 24 26  0  0  0  0  0  0  0  0999 V2000
   -8.9145    5.2272   -6.9451 C   0  0  0  0  0  0  0  0  0  0  0  0
   -8.5301    4.2535   -8.0073 C   0  0  0  0  0  0  0  0  0  0  0  0
   -7.7759    4.6565   -9.1208 C   0  0  0  0  0  0  0  0  0  0  0  0
   -7.1861    3.6483   -9.8716 C   0  0  0  0  0  0  0  0  0  0  0  0
   -6.2444    3.8861  -10.9064 N   0  0  0  0  0  0  0  0  0  0  0  0
   -5.1902    3.0404  -11.2067 C   0  0  0  0  0  0  0  0  0  0  0  0
   -4.5579    3.5480  -12.3054 C   0  0  0  0  0  0  0  0  0  0  0  0
   -5.2945    4.6951  -12.6316 C   0  0  0  0  0  0  0  0  0  0  0  0
   -5.1111    5.4137  -13.7715 N   0  0  0  0  0  0  0  0  0  0  0  0
   -4.0197    5.2887  -14.8859 C   0  0  0  0  0  0  0  0  0  0  0  0
   -3.0742    4.6005  -14.9477 O   0  0  0  0  0  0  0  0  0  0  0  0
   -4.4529    6.2005  -16.0346 C   0  0  2  0  0  0  0  0  0  0  0  0
   -5.4113    5.3747  -16.8815 C   0  0  0  0  0  0  0  0  0  0  0  0
   -6.0030    6.1432  -17.9562 N   0  0  0  0  0  0  0  0  0  0  0  0
   -7.0865    5.4871  -18.6610 C   0  0  0  0  0  0  0  0  0  0  0  0
   -5.3462    7.1842  -18.5923 C   0  0  0  0  0  0  0  0  0  0  0  0
   -5.8278    7.8189  -19.5333 O   0  0  0  0  0  0  0  0  0  0  0  0
   -4.0060    7.6179  -18.0174 C   0  0  0  0  0  0  0  0  0  0  0  0
   -3.3528    6.6567  -17.0046 C   0  0  1  0  0  0  0  0  0  0  0  0
   -2.2080    7.3771  -16.2888 C   0  0  0  0  0  0  0  0  0  0  0  0
   -6.2468    4.9750  -11.7297 N   0  0  0  0  0  0  0  0  0  0  0  0
   -7.4364    2.3206   -9.5273 C   0  0  0  0  0  0  0  0  0  0  0  0
   -8.2857    2.0285   -8.4849 C   0  0  0  0  0  0  0  0  0  0  0  0
   -8.8256    2.9695   -7.7094 N   0  0  0  0  0  0  0  0  0  0  0  0
  1  2  1  0
  2  3  2  0
  3  4  1  0
  4  5  1  0
  5  6  1  0
  6  7  2  0
  7  8  1  0
  8  9  1  0
  9 10  1  0
 10 11  2  0
 12 10  1  1
 12 13  1  0
 13 14  1  0
 14 15  1  0
 14 16  1  0
 16 17  2  0
 16 18  1  0
 18 19  1  0
 19 20  1  1
  8 21  2  0
  4 22  2  0
 22 23  1  0
 23 24  2  0
 24  2  1  0
 21  5  1  0
 19 12  1  0
M  END
>  <energy_score>  (1012) 
-71.112101

>  <alias>  (1012) 
None

>  <HIPPO Pose ID>  (1012) 
70473

>  <smiles>  (1012) 
Cc1cc(-n2ccc(NC(=O)[C@@H]3CN(C)C(=O)C[C@H]3C)n2)ccn1

>  <inchikey>  (1012) 
IBLZBHDLKQBXQT-BXUZGUMPSA-N

>  <distance_score>  (1012) 
1.940458

>  <ref_mols>  (1012) 
Z0788a,Z0969a

>  <ref_pdb>  (1012) 
Z0788a

>  <HIPPO Compound ID>  (1012) 
142545

>  <name>  (1012) 
P70473

>  <inspiration_score>  (1012) 
None

$$$$
P70474
     RDKit          3D

 24 26  0  0  0  0  0  0  0  0999 V2000
   -7.7073    4.7082  -18.8100 C   0  0  0  0  0  0  0  0  0  0  0  0
   -6.2684    4.9262  -19.2611 C   0  0  0  0  0  0  0  0  0  0  0  0
   -5.5079    5.7231  -18.3099 N   0  0  0  0  0  0  0  0  0  0  0  0
   -5.1915    5.0792  -17.0460 C   0  0  0  0  0  0  0  0  0  0  0  0
   -5.2055    6.1194  -15.9446 C   0  0  1  0  0  0  0  0  0  0  0  0
   -5.3028    5.4486  -14.5779 C   0  0  0  0  0  0  0  0  0  0  0  0
   -5.1057    4.3077  -14.4142 O   0  0  0  0  0  0  0  0  0  0  0  0
   -5.7927    6.5424  -13.5804 N   0  0  0  0  0  0  0  0  0  0  0  0
   -6.2042    6.4377  -12.2853 C   0  0  0  0  0  0  0  0  0  0  0  0
   -6.3207    7.4868  -11.3553 C   0  0  0  0  0  0  0  0  0  0  0  0
   -6.8564    6.9041  -10.2273 C   0  0  0  0  0  0  0  0  0  0  0  0
   -7.1342    5.5932  -10.5555 N   0  0  0  0  0  0  0  0  0  0  0  0
   -7.8252    4.6270   -9.7844 C   0  0  0  0  0  0  0  0  0  0  0  0
   -8.3521    3.5144  -10.4299 C   0  0  0  0  0  0  0  0  0  0  0  0
   -9.0660    2.6088   -9.6761 C   0  0  0  0  0  0  0  0  0  0  0  0
   -9.2282    2.6848   -8.3433 N   0  0  0  0  0  0  0  0  0  0  0  0
   -8.6657    3.7348   -7.7192 C   0  0  0  0  0  0  0  0  0  0  0  0
   -8.7937    3.7602   -6.2307 C   0  0  0  0  0  0  0  0  0  0  0  0
   -7.9986    4.7580   -8.4038 C   0  0  0  0  0  0  0  0  0  0  0  0
   -6.6745    5.2991  -11.7926 N   0  0  0  0  0  0  0  0  0  0  0  0
   -4.0092    7.0026  -16.2364 C   0  0  0  0  0  0  0  0  0  0  0  0
   -4.2388    7.7290  -17.5682 C   0  0  0  0  0  0  0  0  0  0  0  0
   -5.0783    7.0023  -18.6201 C   0  0  0  0  0  0  0  0  0  0  0  0
   -5.3575    7.5914  -19.6651 O   0  0  0  0  0  0  0  0  0  0  0  0
  1  2  1  0
  2  3  1  0
  3  4  1  0
  4  5  1  0
  5  6  1  1
  6  7  2  0
  6  8  1  0
  8  9  1  0
  9 10  1  0
 10 11  2  0
 11 12  1  0
 12 13  1  0
 13 14  2  0
 14 15  1  0
 15 16  2  0
 16 17  1  0
 17 18  1  0
 17 19  2  0
 12 20  1  0
  5 21  1  0
 21 22  1  0
 22 23  1  0
 23 24  2  0
 23  3  1  0
 20  9  2  0
 19 13  1  0
M  END
>  <energy_score>  (1013) 
-45.726203

>  <alias>  (1013) 
None

>  <HIPPO Pose ID>  (1013) 
70474

>  <smiles>  (1013) 
CCN1C[C@@H](C(=O)Nc2ccn(-c3ccnc(C)c3)n2)CCC1=O

>  <inchikey>  (1013) 
YYBHDIROUSXMNG-ZDUSSCGKSA-N

>  <distance_score>  (1013) 
1.984517

>  <ref_mols>  (1013) 
Z0788a,Z0969a

>  <ref_pdb>  (1013) 
Z0788a

>  <HIPPO Compound ID>  (1013) 
142547

>  <name>  (1013) 
P70474

>  <inspiration_score>  (1013) 
None

$$$$
P70475
     RDKit          3D

 24 26  0  0  0  0  0  0  0  0999 V2000
   -9.1511    3.9869   -6.7979 C   0  0  0  0  0  0  0  0  0  0  0  0
   -8.4882    3.6825   -8.1029 C   0  0  0  0  0  0  0  0  0  0  0  0
   -8.3006    4.6542   -9.0977 C   0  0  0  0  0  0  0  0  0  0  0  0
   -7.6017    4.2983  -10.2610 C   0  0  0  0  0  0  0  0  0  0  0  0
   -7.3354    5.2192  -11.3159 N   0  0  0  0  0  0  0  0  0  0  0  0
   -7.7819    6.5189  -11.4239 C   0  0  0  0  0  0  0  0  0  0  0  0
   -7.2271    7.0357  -12.5693 C   0  0  0  0  0  0  0  0  0  0  0  0
   -6.4463    5.9934  -13.1187 C   0  0  0  0  0  0  0  0  0  0  0  0
   -5.7433    6.1396  -14.2897 N   0  0  0  0  0  0  0  0  0  0  0  0
   -4.8363    5.1188  -15.0692 C   0  0  0  0  0  0  0  0  0  0  0  0
   -4.6215    3.9839  -14.8648 O   0  0  0  0  0  0  0  0  0  0  0  0
   -4.2377    5.8690  -16.3222 C   0  0  1  0  0  0  0  0  0  0  0  0
   -3.3301    7.0128  -15.8222 C   0  0  0  0  0  0  0  0  0  0  0  0
   -3.3210    4.9610  -17.1949 C   0  0  0  0  0  0  0  0  0  0  0  0
   -3.2200    5.5180  -18.6238 C   0  0  0  0  0  0  0  0  0  0  0  0
   -4.5629    5.3500  -19.2842 C   0  0  0  0  0  0  0  0  0  0  0  0
   -4.6628    4.9649  -20.4441 O   0  0  0  0  0  0  0  0  0  0  0  0
   -5.6098    5.6302  -18.4275 N   0  0  0  0  0  0  0  0  0  0  0  0
   -6.9453    5.1682  -18.7444 C   0  0  0  0  0  0  0  0  0  0  0  0
   -5.3905    6.4034  -17.2152 C   0  0  0  0  0  0  0  0  0  0  0  0
   -6.5139    4.9012  -12.3636 N   0  0  0  0  0  0  0  0  0  0  0  0
   -7.1113    3.0013  -10.3695 C   0  0  0  0  0  0  0  0  0  0  0  0
   -7.3335    2.1218   -9.3277 C   0  0  0  0  0  0  0  0  0  0  0  0
   -8.0224    2.4270   -8.2151 N   0  0  0  0  0  0  0  0  0  0  0  0
  1  2  1  0
  2  3  2  0
  3  4  1  0
  4  5  1  0
  5  6  1  0
  6  7  2  0
  7  8  1  0
  8  9  1  0
  9 10  1  0
 10 11  2  0
 10 12  1  0
 12 13  1  1
 12 14  1  0
 14 15  1  0
 15 16  1  0
 16 17  2  0
 16 18  1  0
 18 19  1  0
 18 20  1  0
  8 21  2  0
  4 22  2  0
 22 23  1  0
 23 24  2  0
 24  2  1  0
 21  5  1  0
 20 12  1  0
M  END
>  <energy_score>  (1014) 
-22.11181

>  <alias>  (1014) 
None

>  <HIPPO Pose ID>  (1014) 
70475

>  <smiles>  (1014) 
Cc1cc(-n2ccc(NC(=O)[C@@]3(C)CCC(=O)N(C)C3)n2)ccn1

>  <inchikey>  (1014) 
JMJKNIKZTZBPCY-KRWDZBQOSA-N

>  <distance_score>  (1014) 
1.834694

>  <ref_mols>  (1014) 
Z0788a,Z0969a

>  <ref_pdb>  (1014) 
Z0788a

>  <HIPPO Compound ID>  (1014) 
142551

>  <name>  (1014) 
P70475

>  <inspiration_score>  (1014) 
None

$$$$
P70476
     RDKit          3D

 25 27  0  0  0  0  0  0  0  0999 V2000
   -6.6639    5.2842  -18.7576 C   0  0  0  0  0  0  0  0  0  0  0  0
   -5.6428    6.2501  -18.3902 N   0  0  0  0  0  0  0  0  0  0  0  0
   -5.6647    6.8403  -17.0637 C   0  0  0  0  0  0  0  0  0  0  0  0
   -4.3976    6.5259  -16.2555 C   0  0  1  0  0  0  0  0  0  0  0  0
   -4.6954    5.2307  -15.4945 C   0  0  0  0  0  0  0  0  0  0  0  0
   -4.3474    4.1889  -15.9007 O   0  0  0  0  0  0  0  0  0  0  0  0
   -5.5736    5.5915  -14.2498 N   0  0  0  0  0  0  0  0  0  0  0  0
   -6.2329    4.7877  -13.3719 C   0  0  0  0  0  0  0  0  0  0  0  0
   -6.4988    3.4506  -13.6922 C   0  0  0  0  0  0  0  0  0  0  0  0
   -7.2152    2.9797  -12.6397 C   0  0  0  0  0  0  0  0  0  0  0  0
   -7.2197    3.9663  -11.6764 N   0  0  0  0  0  0  0  0  0  0  0  0
   -7.5512    3.7200  -10.3157 C   0  0  0  0  0  0  0  0  0  0  0  0
   -7.4583    2.3935   -9.8824 C   0  0  0  0  0  0  0  0  0  0  0  0
   -7.8593    2.0328   -8.6202 C   0  0  0  0  0  0  0  0  0  0  0  0
   -8.2790    2.9240   -7.7308 N   0  0  0  0  0  0  0  0  0  0  0  0
   -8.2585    4.2297   -8.1044 C   0  0  0  0  0  0  0  0  0  0  0  0
   -8.5931    5.1779   -6.9978 C   0  0  0  0  0  0  0  0  0  0  0  0
   -8.3866    6.4924   -7.3093 F   0  0  0  0  0  0  0  0  0  0  0  0
   -9.8962    5.0984   -6.6247 F   0  0  0  0  0  0  0  0  0  0  0  0
   -7.9180    4.6850   -9.3926 C   0  0  0  0  0  0  0  0  0  0  0  0
   -6.7673    5.1551  -12.1948 N   0  0  0  0  0  0  0  0  0  0  0  0
   -3.1741    6.4217  -17.2011 C   0  0  0  0  0  0  0  0  0  0  0  0
   -3.4184    7.1678  -18.5207 C   0  0  0  0  0  0  0  0  0  0  0  0
   -4.5762    6.5048  -19.2344 C   0  0  0  0  0  0  0  0  0  0  0  0
   -4.5233    6.2178  -20.4247 O   0  0  0  0  0  0  0  0  0  0  0  0
  1  2  1  0
  2  3  1  0
  3  4  1  0
  4  5  1  6
  5  6  2  0
  5  7  1  0
  7  8  1  0
  8  9  1  0
  9 10  2  0
 10 11  1  0
 11 12  1  0
 12 13  2  0
 13 14  1  0
 14 15  2  0
 15 16  1  0
 16 17  1  0
 17 18  1  0
 17 19  1  0
 16 20  2  0
 11 21  1  0
  4 22  1  0
 22 23  1  0
 23 24  1  0
 24 25  2  0
 24  2  1  0
 21  8  2  0
 20 12  1  0
M  END
>  <energy_score>  (1015) 
-50.008237

>  <alias>  (1015) 
None

>  <HIPPO Pose ID>  (1015) 
70476

>  <smiles>  (1015) 
CN1C[C@@H](C(=O)Nc2ccn(-c3ccnc(C(F)F)c3)n2)CCC1=O

>  <inchikey>  (1015) 
CWLCMDYHVRNKGF-JTQLQIEISA-N

>  <distance_score>  (1015) 
1.76923

>  <ref_mols>  (1015) 
Z0788a,Z0969a

>  <ref_pdb>  (1015) 
Z0788a

>  <HIPPO Compound ID>  (1015) 
142552

>  <name>  (1015) 
P70476

>  <inspiration_score>  (1015) 
None

$$$$
P70481
     RDKit          3D

 25 27  0  0  0  0  0  0  0  0999 V2000
   -4.1079    4.3347  -16.1692 C   0  0  0  0  0  0  0  0  0  0  0  0
   -3.9339    5.6674  -16.8899 C   0  0  1  0  0  0  0  0  0  0  0  0
   -3.5416    5.4260  -18.3679 C   0  0  0  0  0  0  0  0  0  0  0  0
   -4.6872    5.2870  -19.3647 C   0  0  0  0  0  0  0  0  0  0  0  0
   -4.5281    4.7899  -20.4770 O   0  0  0  0  0  0  0  0  0  0  0  0
   -5.8879    5.8559  -19.0385 N   0  0  0  0  0  0  0  0  0  0  0  0
   -6.2981    6.0697  -17.6738 C   0  0  0  0  0  0  0  0  0  0  0  0
   -5.1531    6.6100  -16.8306 C   0  0  1  0  0  0  0  0  0  0  0  0
   -5.6338    7.1591  -15.4616 C   0  0  0  0  0  0  0  0  0  0  0  0
   -5.5619    8.3096  -15.2582 O   0  0  0  0  0  0  0  0  0  0  0  0
   -6.2466    6.0222  -14.6010 N   0  0  0  0  0  0  0  0  0  0  0  0
   -6.7802    6.0505  -13.3462 C   0  0  0  0  0  0  0  0  0  0  0  0
   -7.0903    7.1804  -12.5691 C   0  0  0  0  0  0  0  0  0  0  0  0
   -7.6162    6.6794  -11.3982 C   0  0  0  0  0  0  0  0  0  0  0  0
   -7.5102    5.3066  -11.4716 N   0  0  0  0  0  0  0  0  0  0  0  0
   -7.6865    4.3560  -10.4254 C   0  0  0  0  0  0  0  0  0  0  0  0
   -7.2693    3.0463  -10.6486 C   0  0  0  0  0  0  0  0  0  0  0  0
   -7.2962    2.1514   -9.5979 C   0  0  0  0  0  0  0  0  0  0  0  0
   -7.7860    2.4323   -8.3827 N   0  0  0  0  0  0  0  0  0  0  0  0
   -8.2124    3.6935   -8.1674 C   0  0  0  0  0  0  0  0  0  0  0  0
   -8.6721    4.0126   -6.7722 C   0  0  0  0  0  0  0  0  0  0  0  0
   -9.7358    4.8650   -6.7845 F   0  0  0  0  0  0  0  0  0  0  0  0
   -7.7204    4.6632   -6.0362 F   0  0  0  0  0  0  0  0  0  0  0  0
   -8.1625    4.6955   -9.1547 C   0  0  0  0  0  0  0  0  0  0  0  0
   -7.0829    4.9219  -12.7114 N   0  0  0  0  0  0  0  0  0  0  0  0
  2  1  1  6
  2  3  1  0
  3  4  1  0
  4  5  2  0
  4  6  1  0
  6  7  1  0
  7  8  1  0
  8  9  1  1
  9 10  2  0
  9 11  1  0
 11 12  1  0
 12 13  1  0
 13 14  2  0
 14 15  1  0
 15 16  1  0
 16 17  2  0
 17 18  1  0
 18 19  2  0
 19 20  1  0
 20 21  1  0
 21 22  1  0
 21 23  1  0
 20 24  2  0
 15 25  1  0
  8  2  1  0
 25 12  2  0
 24 16  1  0
M  END
>  <energy_score>  (1016) 
-38.765056

>  <alias>  (1016) 
None

>  <HIPPO Pose ID>  (1016) 
70481

>  <smiles>  (1016) 
C[C@H]1CC(=O)NC[C@H]1C(=O)Nc1ccn(-c2ccnc(C(F)F)c2)n1

>  <inchikey>  (1016) 
FDHCIFTVMFZFGC-GXSJLCMTSA-N

>  <distance_score>  (1016) 
1.689407

>  <ref_mols>  (1016) 
Z0788a,Z0969a

>  <ref_pdb>  (1016) 
Z0788a

>  <HIPPO Compound ID>  (1016) 
142555

>  <name>  (1016) 
P70481

>  <inspiration_score>  (1016) 
None

$$$$
P70483
     RDKit          3D

 25 27  0  0  0  0  0  0  0  0999 V2000
   -3.4583    4.4043  -16.0075 C   0  0  0  0  0  0  0  0  0  0  0  0
   -4.1324    5.3587  -16.9803 C   0  0  1  0  0  0  0  0  0  0  0  0
   -3.6312    5.1727  -18.3322 N   0  0  0  0  0  0  0  0  0  0  0  0
   -4.1254    5.9582  -19.3491 C   0  0  0  0  0  0  0  0  0  0  0  0
   -3.5017    6.1294  -20.3902 O   0  0  0  0  0  0  0  0  0  0  0  0
   -5.4457    6.6371  -19.0450 C   0  0  0  0  0  0  0  0  0  0  0  0
   -6.3357    5.7027  -18.2337 C   0  0  0  0  0  0  0  0  0  0  0  0
   -5.6683    5.2118  -16.9304 C   0  0  2  0  0  0  0  0  0  0  0  0
   -6.1930    6.0281  -15.7344 C   0  0  0  0  0  0  0  0  0  0  0  0
   -6.2103    7.1964  -15.7538 O   0  0  0  0  0  0  0  0  0  0  0  0
   -6.6556    5.0338  -14.6364 N   0  0  0  0  0  0  0  0  0  0  0  0
   -7.1172    5.2604  -13.3787 C   0  0  0  0  0  0  0  0  0  0  0  0
   -7.4799    6.4833  -12.7896 C   0  0  0  0  0  0  0  0  0  0  0  0
   -7.9113    6.1541  -11.5227 C   0  0  0  0  0  0  0  0  0  0  0  0
   -7.7252    4.7959  -11.3817 N   0  0  0  0  0  0  0  0  0  0  0  0
   -7.8808    3.9958  -10.2186 C   0  0  0  0  0  0  0  0  0  0  0  0
   -7.4056    2.6888  -10.2487 C   0  0  0  0  0  0  0  0  0  0  0  0
   -7.5013    1.9144   -9.1095 C   0  0  0  0  0  0  0  0  0  0  0  0
   -8.0819    2.3180   -7.9737 N   0  0  0  0  0  0  0  0  0  0  0  0
   -8.5407    3.5845   -7.9407 C   0  0  0  0  0  0  0  0  0  0  0  0
   -9.0969    4.0484   -6.6256 C   0  0  0  0  0  0  0  0  0  0  0  0
  -10.3793    3.6556   -6.3827 F   0  0  0  0  0  0  0  0  0  0  0  0
   -9.1330    5.4121   -6.5650 F   0  0  0  0  0  0  0  0  0  0  0  0
   -8.4408    4.4678   -9.0330 C   0  0  0  0  0  0  0  0  0  0  0  0
   -7.2751    4.2439  -12.5405 N   0  0  0  0  0  0  0  0  0  0  0  0
  2  1  1  1
  2  3  1  0
  3  4  1  0
  4  5  2  0
  4  6  1  0
  6  7  1  0
  7  8  1  0
  8  9  1  1
  9 10  2  0
  9 11  1  0
 11 12  1  0
 12 13  1  0
 13 14  2  0
 14 15  1  0
 15 16  1  0
 16 17  2  0
 17 18  1  0
 18 19  2  0
 19 20  1  0
 20 21  1  0
 21 22  1  0
 21 23  1  0
 20 24  2  0
 15 25  1  0
  8  2  1  0
 25 12  2  0
 24 16  1  0
M  END
>  <energy_score>  (1017) 
-53.569708

>  <alias>  (1017) 
None

>  <HIPPO Pose ID>  (1017) 
70483

>  <smiles>  (1017) 
C[C@H]1NC(=O)CC[C@@H]1C(=O)Nc1ccn(-c2ccnc(C(F)F)c2)n1

>  <inchikey>  (1017) 
QQFFDKNPMVKKRS-KOLCDFICSA-N

>  <distance_score>  (1017) 
1.678142

>  <ref_mols>  (1017) 
Z0788a,Z0969a

>  <ref_pdb>  (1017) 
Z0788a

>  <HIPPO Compound ID>  (1017) 
142556

>  <name>  (1017) 
P70483

>  <inspiration_score>  (1017) 
None

$$$$
P70486
     RDKit          3D

 25 27  0  0  0  0  0  0  0  0999 V2000
   -7.7848    4.7053  -18.7844 C   0  0  0  0  0  0  0  0  0  0  0  0
   -6.3323    5.0055  -19.1299 C   0  0  0  0  0  0  0  0  0  0  0  0
   -5.6363    5.7262  -18.0718 N   0  0  0  0  0  0  0  0  0  0  0  0
   -5.6304    5.0978  -16.7670 C   0  0  0  0  0  0  0  0  0  0  0  0
   -4.3642    5.3420  -15.9661 C   0  0  2  0  0  0  0  0  0  0  0  0
   -4.7204    4.9838  -14.5059 C   0  0  0  0  0  0  0  0  0  0  0  0
   -4.4524    3.9228  -14.0895 O   0  0  0  0  0  0  0  0  0  0  0  0
   -5.5108    6.1557  -13.8499 N   0  0  0  0  0  0  0  0  0  0  0  0
   -6.1752    6.2201  -12.6542 C   0  0  0  0  0  0  0  0  0  0  0  0
   -6.6232    7.3931  -12.0188 C   0  0  0  0  0  0  0  0  0  0  0  0
   -7.2804    6.9643  -10.8850 C   0  0  0  0  0  0  0  0  0  0  0  0
   -7.2609    5.5860  -10.9051 N   0  0  0  0  0  0  0  0  0  0  0  0
   -7.9115    4.6569  -10.0464 C   0  0  0  0  0  0  0  0  0  0  0  0
   -8.3672    3.4877  -10.6554 C   0  0  0  0  0  0  0  0  0  0  0  0
   -9.0763    2.5824   -9.8997 C   0  0  0  0  0  0  0  0  0  0  0  0
   -9.2624    2.6748   -8.5758 N   0  0  0  0  0  0  0  0  0  0  0  0
   -8.7583    3.7656   -7.9653 C   0  0  0  0  0  0  0  0  0  0  0  0
   -8.9282    3.7671   -6.4752 C   0  0  0  0  0  0  0  0  0  0  0  0
   -8.1413    4.8239   -8.6716 C   0  0  0  0  0  0  0  0  0  0  0  0
   -7.6545    6.2166   -7.7815 Cl  0  0  0  0  0  0  0  0  0  0  0  0
   -6.5710    5.1395  -11.9910 N   0  0  0  0  0  0  0  0  0  0  0  0
   -3.7244    6.6879  -16.2944 C   0  0  0  0  0  0  0  0  0  0  0  0
   -4.6820    7.6762  -16.9742 C   0  0  0  0  0  0  0  0  0  0  0  0
   -5.3916    7.0860  -18.1779 C   0  0  0  0  0  0  0  0  0  0  0  0
   -5.7391    7.8039  -19.1120 O   0  0  0  0  0  0  0  0  0  0  0  0
  1  2  1  0
  2  3  1  0
  3  4  1  0
  4  5  1  0
  5  6  1  1
  6  7  2  0
  6  8  1  0
  8  9  1  0
  9 10  1  0
 10 11  2  0
 11 12  1  0
 12 13  1  0
 13 14  2  0
 14 15  1  0
 15 16  2  0
 16 17  1  0
 17 18  1  0
 17 19  2  0
 19 20  1  0
 12 21  1  0
  5 22  1  0
 22 23  1  0
 23 24  1  0
 24 25  2  0
 24  3  1  0
 21  9  2  0
 19 13  1  0
M  END
>  <energy_score>  (1018) 
-35.449036

>  <alias>  (1018) 
None

>  <HIPPO Pose ID>  (1018) 
70486

>  <smiles>  (1018) 
CCN1C[C@H](C(=O)Nc2ccn(-c3ccnc(C)c3Cl)n2)CCC1=O

>  <inchikey>  (1018) 
VDCZXRSELORQCZ-GFCCVEGCSA-N

>  <distance_score>  (1018) 
1.772359

>  <ref_mols>  (1018) 
Z0788a,Z0969a

>  <ref_pdb>  (1018) 
Z0788a

>  <HIPPO Compound ID>  (1018) 
142558

>  <name>  (1018) 
P70486

>  <inspiration_score>  (1018) 
None

$$$$
P70489
     RDKit          3D

 25 27  0  0  0  0  0  0  0  0999 V2000
   -8.7327    4.9394   -6.7027 C   0  0  0  0  0  0  0  0  0  0  0  0
   -8.3626    4.1355   -7.9087 C   0  0  0  0  0  0  0  0  0  0  0  0
   -8.3658    2.8040   -7.6641 N   0  0  0  0  0  0  0  0  0  0  0  0
   -7.9322    2.0103   -8.6386 C   0  0  0  0  0  0  0  0  0  0  0  0
   -7.5531    2.4899   -9.8716 C   0  0  0  0  0  0  0  0  0  0  0  0
   -7.6363    3.8571  -10.1783 C   0  0  0  0  0  0  0  0  0  0  0  0
   -7.3638    4.1690  -11.5468 N   0  0  0  0  0  0  0  0  0  0  0  0
   -7.6961    3.2945  -12.5637 C   0  0  0  0  0  0  0  0  0  0  0  0
   -6.9082    3.5849  -13.6337 C   0  0  0  0  0  0  0  0  0  0  0  0
   -6.2231    4.7543  -13.2661 C   0  0  0  0  0  0  0  0  0  0  0  0
   -5.3811    5.3837  -14.1462 N   0  0  0  0  0  0  0  0  0  0  0  0
   -4.7208    4.8639  -15.4723 C   0  0  0  0  0  0  0  0  0  0  0  0
   -4.7391    3.7995  -15.9620 O   0  0  0  0  0  0  0  0  0  0  0  0
   -4.0357    6.0307  -16.2511 C   0  0  1  0  0  0  0  0  0  0  0  0
   -2.9155    6.6535  -15.4097 C   0  0  0  0  0  0  0  0  0  0  0  0
   -3.3681    5.5570  -17.5961 C   0  0  0  0  0  0  0  0  0  0  0  0
   -3.4170    6.6731  -18.6633 C   0  0  0  0  0  0  0  0  0  0  0  0
   -4.8574    6.9602  -19.0284 C   0  0  0  0  0  0  0  0  0  0  0  0
   -5.2085    7.2594  -20.1634 O   0  0  0  0  0  0  0  0  0  0  0  0
   -5.7199    6.8476  -17.9415 N   0  0  0  0  0  0  0  0  0  0  0  0
   -6.7707    5.8522  -18.1130 C   0  0  0  0  0  0  0  0  0  0  0  0
   -5.1428    7.0420  -16.6147 C   0  0  0  0  0  0  0  0  0  0  0  0
   -6.5712    5.1850  -12.0351 N   0  0  0  0  0  0  0  0  0  0  0  0
   -8.0026    4.7214   -9.1513 C   0  0  0  0  0  0  0  0  0  0  0  0
   -8.1217    6.4212   -9.3432 Cl  0  0  0  0  0  0  0  0  0  0  0  0
  1  2  1  0
  2  3  2  0
  3  4  1  0
  4  5  2  0
  5  6  1  0
  6  7  1  0
  7  8  1  0
  8  9  2  0
  9 10  1  0
 10 11  1  0
 11 12  1  0
 12 13  2  0
 12 14  1  0
 14 15  1  1
 14 16  1  0
 16 17  1  0
 17 18  1  0
 18 19  2  0
 18 20  1  0
 20 21  1  0
 20 22  1  0
 10 23  2  0
  6 24  2  0
 24 25  1  0
 24  2  1  0
 23  7  1  0
 22 14  1  0
M  END
>  <energy_score>  (1019) 
-23.592962

>  <alias>  (1019) 
None

>  <HIPPO Pose ID>  (1019) 
70489

>  <smiles>  (1019) 
Cc1nccc(-n2ccc(NC(=O)[C@@]3(C)CCC(=O)N(C)C3)n2)c1Cl

>  <inchikey>  (1019) 
NCNUMNDWDCBUCM-KRWDZBQOSA-N

>  <distance_score>  (1019) 
1.779285

>  <ref_mols>  (1019) 
Z0788a,Z0969a

>  <ref_pdb>  (1019) 
Z0788a

>  <HIPPO Compound ID>  (1019) 
142559

>  <name>  (1019) 
P70489

>  <inspiration_score>  (1019) 
None

$$$$
P70491
     RDKit          3D

 25 27  0  0  0  0  0  0  0  0999 V2000
   -8.8532    3.7216   -6.3409 C   0  0  0  0  0  0  0  0  0  0  0  0
   -8.7542    3.7039   -7.8372 C   0  0  0  0  0  0  0  0  0  0  0  0
   -9.2825    2.6022   -8.4032 N   0  0  0  0  0  0  0  0  0  0  0  0
   -9.1944    2.5099   -9.7340 C   0  0  0  0  0  0  0  0  0  0  0  0
   -8.5618    3.4265  -10.5416 C   0  0  0  0  0  0  0  0  0  0  0  0
   -8.0415    4.5938   -9.9759 C   0  0  0  0  0  0  0  0  0  0  0  0
   -7.3955    5.4853  -10.8868 N   0  0  0  0  0  0  0  0  0  0  0  0
   -7.0373    6.8113  -10.7628 C   0  0  0  0  0  0  0  0  0  0  0  0
   -6.3443    7.1618  -11.9014 C   0  0  0  0  0  0  0  0  0  0  0  0
   -6.3460    6.0075  -12.6924 C   0  0  0  0  0  0  0  0  0  0  0  0
   -5.7850    5.8152  -13.9162 N   0  0  0  0  0  0  0  0  0  0  0  0
   -4.8981    6.7593  -14.7819 C   0  0  0  0  0  0  0  0  0  0  0  0
   -4.5808    7.8716  -14.6073 O   0  0  0  0  0  0  0  0  0  0  0  0
   -4.5006    5.9627  -16.0532 C   0  0  1  0  0  0  0  0  0  0  0  0
   -5.7707    5.6406  -16.8477 C   0  0  0  0  0  0  0  0  0  0  0  0
   -5.6736    5.8657  -18.2757 N   0  0  0  0  0  0  0  0  0  0  0  0
   -6.5905    5.1195  -19.1102 C   0  0  0  0  0  0  0  0  0  0  0  0
   -5.2017    7.0875  -18.7389 C   0  0  0  0  0  0  0  0  0  0  0  0
   -5.5541    7.6346  -19.7805 O   0  0  0  0  0  0  0  0  0  0  0  0
   -4.1879    7.7396  -17.8267 C   0  0  0  0  0  0  0  0  0  0  0  0
   -3.4697    6.7228  -16.9214 C   0  0  2  0  0  0  0  0  0  0  0  0
   -2.5759    5.7674  -17.7201 C   0  0  0  0  0  0  0  0  0  0  0  0
   -7.0172    5.0181  -12.1164 N   0  0  0  0  0  0  0  0  0  0  0  0
   -8.1775    4.7594   -8.5865 C   0  0  0  0  0  0  0  0  0  0  0  0
   -7.6697    6.1544   -7.7132 Cl  0  0  0  0  0  0  0  0  0  0  0  0
  1  2  1  0
  2  3  2  0
  3  4  1  0
  4  5  2  0
  5  6  1  0
  6  7  1  0
  7  8  1  0
  8  9  2  0
  9 10  1  0
 10 11  1  0
 11 12  1  0
 12 13  2  0
 14 12  1  1
 14 15  1  0
 15 16  1  0
 16 17  1  0
 16 18  1  0
 18 19  2  0
 18 20  1  0
 20 21  1  0
 21 22  1  6
 10 23  2  0
  6 24  2  0
 24 25  1  0
 24  2  1  0
 23  7  1  0
 21 14  1  0
M  END
>  <energy_score>  (1020) 
-32.373065

>  <alias>  (1020) 
None

>  <HIPPO Pose ID>  (1020) 
70491

>  <smiles>  (1020) 
Cc1nccc(-n2ccc(NC(=O)[C@H]3CN(C)C(=O)C[C@@H]3C)n2)c1Cl

>  <inchikey>  (1020) 
MJEMKVNTGQJNPV-JQWIXIFHSA-N

>  <distance_score>  (1020) 
1.749681

>  <ref_mols>  (1020) 
Z0788a,Z0969a

>  <ref_pdb>  (1020) 
Z0788a

>  <HIPPO Compound ID>  (1020) 
142560

>  <name>  (1020) 
P70491

>  <inspiration_score>  (1020) 
None

$$$$
P70493
     RDKit          3D

 26 28  0  0  0  0  0  0  0  0999 V2000
   -4.1136    4.2729  -16.3087 C   0  0  0  0  0  0  0  0  0  0  0  0
   -3.8939    5.6047  -17.0340 C   0  0  0  0  0  0  0  0  0  0  0  0
   -2.6214    6.2464  -16.4408 C   0  0  0  0  0  0  0  0  0  0  0  0
   -3.6186    5.3227  -18.5448 C   0  0  0  0  0  0  0  0  0  0  0  0
   -4.8252    5.2194  -19.4702 C   0  0  0  0  0  0  0  0  0  0  0  0
   -4.7634    4.6789  -20.5722 O   0  0  0  0  0  0  0  0  0  0  0  0
   -5.9648    5.8741  -19.0969 N   0  0  0  0  0  0  0  0  0  0  0  0
   -6.2980    6.0861  -17.7138 C   0  0  0  0  0  0  0  0  0  0  0  0
   -5.0995    6.5824  -16.9114 C   0  0  1  0  0  0  0  0  0  0  0  0
   -5.5566    7.1095  -15.5175 C   0  0  0  0  0  0  0  0  0  0  0  0
   -5.4177    8.2455  -15.2698 O   0  0  0  0  0  0  0  0  0  0  0  0
   -6.2416    5.9776  -14.7021 N   0  0  0  0  0  0  0  0  0  0  0  0
   -6.7803    5.9900  -13.4476 C   0  0  0  0  0  0  0  0  0  0  0  0
   -7.1608    7.1065  -12.6828 C   0  0  0  0  0  0  0  0  0  0  0  0
   -7.6918    6.5854  -11.5220 C   0  0  0  0  0  0  0  0  0  0  0  0
   -7.5186    5.2191  -11.5843 N   0  0  0  0  0  0  0  0  0  0  0  0
   -7.6923    4.2621  -10.5422 C   0  0  0  0  0  0  0  0  0  0  0  0
   -7.1588    2.9895  -10.7251 C   0  0  0  0  0  0  0  0  0  0  0  0
   -7.1978    2.0933   -9.6760 C   0  0  0  0  0  0  0  0  0  0  0  0
   -7.7928    2.3373   -8.4997 N   0  0  0  0  0  0  0  0  0  0  0  0
   -8.3466    3.5550   -8.3274 C   0  0  0  0  0  0  0  0  0  0  0  0
   -8.9564    3.8150   -6.9763 C   0  0  0  0  0  0  0  0  0  0  0  0
   -9.1627    5.1496   -6.7722 F   0  0  0  0  0  0  0  0  0  0  0  0
  -10.1770    3.2383   -6.7958 F   0  0  0  0  0  0  0  0  0  0  0  0
   -8.2947    4.5593   -9.3152 C   0  0  0  0  0  0  0  0  0  0  0  0
   -7.0283    4.8508  -12.8064 N   0  0  0  0  0  0  0  0  0  0  0  0
  1  2  1  0
  2  3  1  0
  2  4  1  0
  4  5  1  0
  5  6  2  0
  5  7  1  0
  7  8  1  0
  8  9  1  0
  9 10  1  1
 10 11  2  0
 10 12  1  0
 12 13  1  0
 13 14  1  0
 14 15  2  0
 15 16  1  0
 16 17  1  0
 17 18  2  0
 18 19  1  0
 19 20  2  0
 20 21  1  0
 21 22  1  0
 22 23  1  0
 22 24  1  0
 21 25  2  0
 16 26  1  0
  9  2  1  0
 26 13  2  0
 25 17  1  0
M  END
>  <energy_score>  (1021) 
-62.648075

>  <alias>  (1021) 
None

>  <HIPPO Pose ID>  (1021) 
70493

>  <smiles>  (1021) 
CC1(C)CC(=O)NC[C@H]1C(=O)Nc1ccn(-c2ccnc(C(F)F)c2)n1

>  <inchikey>  (1021) 
YPWIYVPNVBXJEJ-NSHDSACASA-N

>  <distance_score>  (1021) 
1.663228

>  <ref_mols>  (1021) 
Z0788a,Z0969a

>  <ref_pdb>  (1021) 
Z0788a

>  <HIPPO Compound ID>  (1021) 
142568

>  <name>  (1021) 
P70493

>  <inspiration_score>  (1021) 
None

$$$$
P70494
     RDKit          3D

 26 28  0  0  0  0  0  0  0  0999 V2000
   -7.7461    4.7338  -18.8008 C   0  0  0  0  0  0  0  0  0  0  0  0
   -6.3069    5.0202  -19.2113 C   0  0  0  0  0  0  0  0  0  0  0  0
   -5.5486    5.7017  -18.1714 N   0  0  0  0  0  0  0  0  0  0  0  0
   -5.4886    5.0314  -16.8926 C   0  0  0  0  0  0  0  0  0  0  0  0
   -4.1853    5.2356  -16.1402 C   0  0  2  0  0  0  0  0  0  0  0  0
   -4.5235    4.8167  -14.6946 C   0  0  0  0  0  0  0  0  0  0  0  0
   -4.3467    3.7095  -14.3560 O   0  0  0  0  0  0  0  0  0  0  0  0
   -5.1718    6.0124  -13.9363 N   0  0  0  0  0  0  0  0  0  0  0  0
   -5.7836    6.0614  -12.7167 C   0  0  0  0  0  0  0  0  0  0  0  0
   -5.9932    7.2058  -11.9239 C   0  0  0  0  0  0  0  0  0  0  0  0
   -6.6746    6.7528  -10.8136 C   0  0  0  0  0  0  0  0  0  0  0  0
   -6.9536    5.4230  -11.0414 N   0  0  0  0  0  0  0  0  0  0  0  0
   -7.7429    4.5444  -10.2606 C   0  0  0  0  0  0  0  0  0  0  0  0
   -8.3077    3.4383  -10.8813 C   0  0  0  0  0  0  0  0  0  0  0  0
   -9.0941    2.6006  -10.1225 C   0  0  0  0  0  0  0  0  0  0  0  0
   -9.2753    2.7132   -8.7958 N   0  0  0  0  0  0  0  0  0  0  0  0
   -8.6867    3.7659   -8.1905 C   0  0  0  0  0  0  0  0  0  0  0  0
   -8.8455    3.8767   -6.6987 C   0  0  0  0  0  0  0  0  0  0  0  0
   -9.9844    4.5417   -6.3328 F   0  0  0  0  0  0  0  0  0  0  0  0
   -7.8341    4.6097   -6.1557 F   0  0  0  0  0  0  0  0  0  0  0  0
   -7.9663    4.7441   -8.8983 C   0  0  0  0  0  0  0  0  0  0  0  0
   -6.3610    4.9920  -12.1806 N   0  0  0  0  0  0  0  0  0  0  0  0
   -3.5583    6.5925  -16.4477 C   0  0  0  0  0  0  0  0  0  0  0  0
   -4.5478    7.6080  -17.0423 C   0  0  0  0  0  0  0  0  0  0  0  0
   -5.3122    7.0655  -18.2360 C   0  0  0  0  0  0  0  0  0  0  0  0
   -5.7036    7.8185  -19.1238 O   0  0  0  0  0  0  0  0  0  0  0  0
  1  2  1  0
  2  3  1  0
  3  4  1  0
  4  5  1  0
  5  6  1  1
  6  7  2  0
  6  8  1  0
  8  9  1  0
  9 10  1  0
 10 11  2  0
 11 12  1  0
 12 13  1  0
 13 14  2  0
 14 15  1  0
 15 16  2  0
 16 17  1  0
 17 18  1  0
 18 19  1  0
 18 20  1  0
 17 21  2  0
 12 22  1  0
  5 23  1  0
 23 24  1  0
 24 25  1  0
 25 26  2  0
 25  3  1  0
 22  9  2  0
 21 13  1  0
M  END
>  <energy_score>  (1022) 
-31.222734

>  <alias>  (1022) 
None

>  <HIPPO Pose ID>  (1022) 
70494

>  <smiles>  (1022) 
CCN1C[C@H](C(=O)Nc2ccn(-c3ccnc(C(F)F)c3)n2)CCC1=O

>  <inchikey>  (1022) 
OEIRBRXEFRABAI-LLVKDONJSA-N

>  <distance_score>  (1022) 
1.60596

>  <ref_mols>  (1022) 
Z0788a,Z0969a

>  <ref_pdb>  (1022) 
Z0788a

>  <HIPPO Compound ID>  (1022) 
142569

>  <name>  (1022) 
P70494

>  <inspiration_score>  (1022) 
None

$$$$
P70496
     RDKit          3D

 26 28  0  0  0  0  0  0  0  0999 V2000
   -3.0454    6.4043  -14.5582 C   0  0  0  0  0  0  0  0  0  0  0  0
   -3.9357    5.9305  -15.7074 C   0  0  2  0  0  0  0  0  0  0  0  0
   -3.1206    5.8605  -17.0073 C   0  0  0  0  0  0  0  0  0  0  0  0
   -3.9476    6.0385  -18.2696 C   0  0  0  0  0  0  0  0  0  0  0  0
   -3.4284    6.4173  -19.3148 O   0  0  0  0  0  0  0  0  0  0  0  0
   -5.2863    5.7083  -18.1507 N   0  0  0  0  0  0  0  0  0  0  0  0
   -6.0490    5.4562  -19.3549 C   0  0  0  0  0  0  0  0  0  0  0  0
   -6.0349    6.2062  -17.0094 C   0  0  0  0  0  0  0  0  0  0  0  0
   -5.1340    6.8590  -15.9622 C   0  0  1  0  0  0  0  0  0  0  0  0
   -5.9375    7.3421  -14.7529 C   0  0  0  0  0  0  0  0  0  0  0  0
   -6.1174    8.4829  -14.5804 O   0  0  0  0  0  0  0  0  0  0  0  0
   -6.4059    6.1198  -13.9339 N   0  0  0  0  0  0  0  0  0  0  0  0
   -7.0698    6.0527  -12.7564 C   0  0  0  0  0  0  0  0  0  0  0  0
   -7.6691    7.1065  -12.0505 C   0  0  0  0  0  0  0  0  0  0  0  0
   -8.1377    6.5286  -10.8947 C   0  0  0  0  0  0  0  0  0  0  0  0
   -7.7807    5.1984  -10.9427 N   0  0  0  0  0  0  0  0  0  0  0  0
   -7.8972    4.2226   -9.9235 C   0  0  0  0  0  0  0  0  0  0  0  0
   -7.4323    2.9334  -10.1645 C   0  0  0  0  0  0  0  0  0  0  0  0
   -7.4864    2.0089   -9.1403 C   0  0  0  0  0  0  0  0  0  0  0  0
   -8.0204    2.2508   -7.9351 N   0  0  0  0  0  0  0  0  0  0  0  0
   -8.4654    3.5021   -7.7058 C   0  0  0  0  0  0  0  0  0  0  0  0
   -8.9973    3.8039   -6.3359 C   0  0  0  0  0  0  0  0  0  0  0  0
   -8.0664    4.3793   -5.5165 F   0  0  0  0  0  0  0  0  0  0  0  0
  -10.0055    4.7225   -6.4066 F   0  0  0  0  0  0  0  0  0  0  0  0
   -8.4035    4.5248   -8.6632 C   0  0  0  0  0  0  0  0  0  0  0  0
   -7.1738    4.8946  -12.1198 N   0  0  0  0  0  0  0  0  0  0  0  0
  2  1  1  1
  2  3  1  0
  3  4  1  0
  4  5  2  0
  4  6  1  0
  6  7  1  0
  6  8  1  0
  8  9  1  0
  9 10  1  1
 10 11  2  0
 10 12  1  0
 12 13  1  0
 13 14  1  0
 14 15  2  0
 15 16  1  0
 16 17  1  0
 17 18  2  0
 18 19  1  0
 19 20  2  0
 20 21  1  0
 21 22  1  0
 22 23  1  0
 22 24  1  0
 21 25  2  0
 16 26  1  0
  9  2  1  0
 26 13  2  0
 25 17  1  0
M  END
>  <energy_score>  (1023) 
-72.583177

>  <alias>  (1023) 
None

>  <HIPPO Pose ID>  (1023) 
70496

>  <smiles>  (1023) 
C[C@@H]1CC(=O)N(C)C[C@H]1C(=O)Nc1ccn(-c2ccnc(C(F)F)c2)n1

>  <inchikey>  (1023) 
KAEXQPGDKNIVPX-ZYHUDNBSSA-N

>  <distance_score>  (1023) 
1.69685

>  <ref_mols>  (1023) 
Z0788a,Z0969a

>  <ref_pdb>  (1023) 
Z0788a

>  <HIPPO Compound ID>  (1023) 
142570

>  <name>  (1023) 
P70496

>  <inspiration_score>  (1023) 
None

$$$$
P70500
     RDKit          3D

 26 28  0  0  0  0  0  0  0  0999 V2000
   -6.5196    5.1494  -19.2256 C   0  0  0  0  0  0  0  0  0  0  0  0
   -5.5622    5.8804  -18.4293 N   0  0  0  0  0  0  0  0  0  0  0  0
   -5.6016    5.6643  -16.9993 C   0  0  0  0  0  0  0  0  0  0  0  0
   -4.2216    5.7830  -16.3293 C   0  0  2  0  0  0  0  0  0  0  0  0
   -3.5844    4.3982  -16.1314 C   0  0  0  0  0  0  0  0  0  0  0  0
   -4.3870    6.4754  -14.9360 C   0  0  0  0  0  0  0  0  0  0  0  0
   -3.7761    7.4288  -14.6416 O   0  0  0  0  0  0  0  0  0  0  0  0
   -5.4587    5.6776  -14.1364 N   0  0  0  0  0  0  0  0  0  0  0  0
   -5.8969    5.8256  -12.8623 C   0  0  0  0  0  0  0  0  0  0  0  0
   -5.5329    6.7791  -11.9015 C   0  0  0  0  0  0  0  0  0  0  0  0
   -6.2223    6.4105  -10.7662 C   0  0  0  0  0  0  0  0  0  0  0  0
   -6.9506    5.2844  -11.0884 N   0  0  0  0  0  0  0  0  0  0  0  0
   -7.7180    4.4497  -10.2386 C   0  0  0  0  0  0  0  0  0  0  0  0
   -8.4549    3.4193  -10.8101 C   0  0  0  0  0  0  0  0  0  0  0  0
   -9.1494    2.5720   -9.9770 C   0  0  0  0  0  0  0  0  0  0  0  0
   -9.1397    2.6431   -8.6369 N   0  0  0  0  0  0  0  0  0  0  0  0
   -8.4095    3.6375   -8.0864 C   0  0  0  0  0  0  0  0  0  0  0  0
   -8.4817    3.7856   -6.5940 C   0  0  0  0  0  0  0  0  0  0  0  0
   -7.3455    4.3105   -6.0409 F   0  0  0  0  0  0  0  0  0  0  0  0
   -9.4668    4.6737   -6.2725 F   0  0  0  0  0  0  0  0  0  0  0  0
   -7.7163    4.5876   -8.8510 C   0  0  0  0  0  0  0  0  0  0  0  0
   -6.7981    4.9691  -12.3990 N   0  0  0  0  0  0  0  0  0  0  0  0
   -3.2782    6.6104  -17.2486 C   0  0  0  0  0  0  0  0  0  0  0  0
   -4.0552    7.7220  -17.9666 C   0  0  0  0  0  0  0  0  0  0  0  0
   -5.0891    7.1073  -18.8869 C   0  0  0  0  0  0  0  0  0  0  0  0
   -5.4549    7.6740  -19.9117 O   0  0  0  0  0  0  0  0  0  0  0  0
  1  2  1  0
  2  3  1  0
  3  4  1  0
  4  5  1  1
  4  6  1  0
  6  7  2  0
  6  8  1  0
  8  9  1  0
  9 10  1  0
 10 11  2  0
 11 12  1  0
 12 13  1  0
 13 14  2  0
 14 15  1  0
 15 16  2  0
 16 17  1  0
 17 18  1  0
 18 19  1  0
 18 20  1  0
 17 21  2  0
 12 22  1  0
  4 23  1  0
 23 24  1  0
 24 25  1  0
 25 26  2  0
 25  2  1  0
 22  9  2  0
 21 13  1  0
M  END
>  <energy_score>  (1024) 
-35.482892

>  <alias>  (1024) 
None

>  <HIPPO Pose ID>  (1024) 
70500

>  <smiles>  (1024) 
CN1C[C@](C)(C(=O)Nc2ccn(-c3ccnc(C(F)F)c3)n2)CCC1=O

>  <inchikey>  (1024) 
PWTZAJHSQQJHOS-QGZVFWFLSA-N

>  <distance_score>  (1024) 
1.57074

>  <ref_mols>  (1024) 
Z0788a,Z0969a

>  <ref_pdb>  (1024) 
Z0788a

>  <HIPPO Compound ID>  (1024) 
142572

>  <name>  (1024) 
P70500

>  <inspiration_score>  (1024) 
None

$$$$
P70501
     RDKit          3D

 26 28  0  0  0  0  0  0  0  0999 V2000
   -9.1137    4.0083   -6.8942 C   0  0  0  0  0  0  0  0  0  0  0  0
   -8.4585    3.7151   -8.2063 C   0  0  0  0  0  0  0  0  0  0  0  0
   -8.2991    4.6867   -9.2066 C   0  0  0  0  0  0  0  0  0  0  0  0
   -7.5852    4.3468  -10.3666 C   0  0  0  0  0  0  0  0  0  0  0  0
   -7.3455    5.2728  -11.4253 N   0  0  0  0  0  0  0  0  0  0  0  0
   -7.9295    6.5074  -11.5963 C   0  0  0  0  0  0  0  0  0  0  0  0
   -7.3516    7.0729  -12.7059 C   0  0  0  0  0  0  0  0  0  0  0  0
   -6.3913    6.1402  -13.1497 C   0  0  0  0  0  0  0  0  0  0  0  0
   -5.5110    6.3577  -14.1791 N   0  0  0  0  0  0  0  0  0  0  0  0
   -5.2685    7.6212  -15.0479 C   0  0  0  0  0  0  0  0  0  0  0  0
   -5.8344    8.6450  -15.0710 O   0  0  0  0  0  0  0  0  0  0  0  0
   -3.9859    7.4603  -15.9371 C   0  0  2  0  0  0  0  0  0  0  0  0
   -3.6268    8.8688  -16.4854 C   0  0  0  0  0  0  0  0  0  0  0  0
   -4.5884    9.3536  -17.5884 C   0  0  0  0  0  0  0  0  0  0  0  0
   -5.4246    8.3017  -18.3208 C   0  0  0  0  0  0  0  0  0  0  0  0
   -6.2632    8.6338  -19.1560 O   0  0  0  0  0  0  0  0  0  0  0  0
   -5.2138    6.9825  -18.0024 N   0  0  0  0  0  0  0  0  0  0  0  0
   -4.0474    6.6041  -17.2177 C   0  0  2  0  0  0  0  0  0  0  0  0
   -3.7189    5.1284  -16.9943 C   0  0  0  0  0  0  0  0  0  0  0  0
   -4.5661    4.5325  -16.1404 F   0  0  0  0  0  0  0  0  0  0  0  0
   -2.4743    5.0444  -16.4576 F   0  0  0  0  0  0  0  0  0  0  0  0
   -3.6957    4.4395  -18.1561 F   0  0  0  0  0  0  0  0  0  0  0  0
   -6.4036    5.0346  -12.4026 N   0  0  0  0  0  0  0  0  0  0  0  0
   -7.0589    3.0638  -10.4693 C   0  0  0  0  0  0  0  0  0  0  0  0
   -7.2727    2.1770   -9.4313 C   0  0  0  0  0  0  0  0  0  0  0  0
   -7.9672    2.4690   -8.3199 N   0  0  0  0  0  0  0  0  0  0  0  0
  1  2  1  0
  2  3  2  0
  3  4  1  0
  4  5  1  0
  5  6  1  0
  6  7  2  0
  7  8  1  0
  8  9  1  0
  9 10  1  0
 10 11  2  0
 12 10  1  6
 12 13  1  0
 13 14  1  0
 14 15  1  0
 15 16  2  0
 15 17  1  0
 17 18  1  0
 18 19  1  1
 19 20  1  0
 19 21  1  0
 19 22  1  0
  8 23  2  0
  4 24  2  0
 24 25  1  0
 25 26  2  0
 26  2  1  0
 23  5  1  0
 18 12  1  0
M  END
>  <energy_score>  (1025) 
-31.808141

>  <alias>  (1025) 
None

>  <HIPPO Pose ID>  (1025) 
70501

>  <smiles>  (1025) 
Cc1cc(-n2ccc(NC(=O)[C@@H]3CCC(=O)N[C@@H]3C(F)(F)F)n2)ccn1

>  <inchikey>  (1025) 
MVKKHWFWZNPIPC-RISCZKNCSA-N

>  <distance_score>  (1025) 
1.775683

>  <ref_mols>  (1025) 
Z0788a,Z0969a

>  <ref_pdb>  (1025) 
Z0788a

>  <HIPPO Compound ID>  (1025) 
142574

>  <name>  (1025) 
P70501

>  <inspiration_score>  (1025) 
None

$$$$
P70503
     RDKit          3D

 26 28  0  0  0  0  0  0  0  0999 V2000
   -8.8837    3.5397   -6.3043 C   0  0  0  0  0  0  0  0  0  0  0  0
   -8.7957    3.6097   -7.7993 C   0  0  0  0  0  0  0  0  0  0  0  0
   -9.2629    2.5147   -8.4293 N   0  0  0  0  0  0  0  0  0  0  0  0
   -9.1867    2.5054   -9.7651 C   0  0  0  0  0  0  0  0  0  0  0  0
   -8.6149    3.4981  -10.5238 C   0  0  0  0  0  0  0  0  0  0  0  0
   -8.1798    4.6610   -9.8888 C   0  0  0  0  0  0  0  0  0  0  0  0
   -7.6635    5.6727  -10.7441 N   0  0  0  0  0  0  0  0  0  0  0  0
   -7.5770    7.0347  -10.5592 C   0  0  0  0  0  0  0  0  0  0  0  0
   -6.9099    7.5514  -11.6450 C   0  0  0  0  0  0  0  0  0  0  0  0
   -6.6620    6.4480  -12.4731 C   0  0  0  0  0  0  0  0  0  0  0  0
   -5.9868    6.4370  -13.6510 N   0  0  0  0  0  0  0  0  0  0  0  0
   -5.3210    7.5908  -14.4386 C   0  0  0  0  0  0  0  0  0  0  0  0
   -5.1829    8.7171  -14.1597 O   0  0  0  0  0  0  0  0  0  0  0  0
   -4.7561    7.0528  -15.7564 C   0  0  1  0  0  0  0  0  0  0  0  0
   -3.7351    5.9217  -15.6494 C   0  0  0  0  0  0  0  0  0  0  0  0
   -3.0461    5.7954  -17.0084 C   0  0  0  0  0  0  0  0  0  0  0  0
   -3.9838    6.1313  -18.1615 C   0  0  0  0  0  0  0  0  0  0  0  0
   -3.5704    6.5832  -19.2211 O   0  0  0  0  0  0  0  0  0  0  0  0
   -5.3194    5.8476  -17.8698 N   0  0  0  0  0  0  0  0  0  0  0  0
   -6.2776    5.5457  -18.9615 C   0  0  0  0  0  0  0  0  0  0  0  0
   -7.4967    4.7901  -18.4133 C   0  0  0  0  0  0  0  0  0  0  0  0
   -5.6450    4.7073  -20.0755 C   0  0  0  0  0  0  0  0  0  0  0  0
   -5.8344    6.6568  -16.7676 C   0  0  0  0  0  0  0  0  0  0  0  0
   -7.1740    5.3291  -11.9754 N   0  0  0  0  0  0  0  0  0  0  0  0
   -8.2906    4.7351   -8.4898 C   0  0  0  0  0  0  0  0  0  0  0  0
   -7.7964    6.0933   -7.5506 Cl  0  0  0  0  0  0  0  0  0  0  0  0
  1  2  1  0
  2  3  2  0
  3  4  1  0
  4  5  2  0
  5  6  1  0
  6  7  1  0
  7  8  1  0
  8  9  2  0
  9 10  1  0
 10 11  1  0
 11 12  1  0
 12 13  2  0
 14 12  1  1
 14 15  1  0
 15 16  1  0
 16 17  1  0
 17 18  2  0
 17 19  1  0
 19 20  1  0
 20 21  1  0
 20 22  1  0
 19 23  1  0
 10 24  2  0
  6 25  2  0
 25 26  1  0
 25  2  1  0
 24  7  1  0
 23 14  1  0
M  END
>  <energy_score>  (1026) 
-14.952639

>  <alias>  (1026) 
None

>  <HIPPO Pose ID>  (1026) 
70503

>  <smiles>  (1026) 
Cc1nccc(-n2ccc(NC(=O)[C@H]3CCC(=O)N(C(C)C)C3)n2)c1Cl

>  <inchikey>  (1026) 
ZHXMIGWDBDMNTF-ZDUSSCGKSA-N

>  <distance_score>  (1026) 
1.580931

>  <ref_mols>  (1026) 
Z0788a,Z0969a

>  <ref_pdb>  (1026) 
Z0788a

>  <HIPPO Compound ID>  (1026) 
142575

>  <name>  (1026) 
P70503

>  <inspiration_score>  (1026) 
None

$$$$
P70506
     RDKit          3D

 26 28  0  0  0  0  0  0  0  0999 V2000
   -2.7116    5.2972  -18.5389 C   0  0  0  0  0  0  0  0  0  0  0  0
   -3.3278    5.9348  -17.2966 C   0  0  0  0  0  0  0  0  0  0  0  0
   -2.2578    5.9977  -16.1971 C   0  0  0  0  0  0  0  0  0  0  0  0
   -3.8512    7.3466  -17.5823 C   0  0  0  0  0  0  0  0  0  0  0  0
   -5.2959    7.5800  -17.0993 C   0  0  2  0  0  0  0  0  0  0  0  0
   -5.3752    7.8726  -15.5561 C   0  0  0  0  0  0  0  0  0  0  0  0
   -4.9175    8.8796  -15.1659 O   0  0  0  0  0  0  0  0  0  0  0  0
   -6.0921    6.7225  -14.7838 N   0  0  0  0  0  0  0  0  0  0  0  0
   -6.4551    6.6268  -13.4648 C   0  0  0  0  0  0  0  0  0  0  0  0
   -6.1938    7.5522  -12.4386 C   0  0  0  0  0  0  0  0  0  0  0  0
   -6.7160    6.9880  -11.2950 C   0  0  0  0  0  0  0  0  0  0  0  0
   -7.2638    5.7738  -11.6540 N   0  0  0  0  0  0  0  0  0  0  0  0
   -7.8766    4.8005  -10.8027 C   0  0  0  0  0  0  0  0  0  0  0  0
   -8.4330    3.6681  -11.3820 C   0  0  0  0  0  0  0  0  0  0  0  0
   -9.0305    2.7306  -10.5625 C   0  0  0  0  0  0  0  0  0  0  0  0
   -9.0778    2.7972   -9.2207 N   0  0  0  0  0  0  0  0  0  0  0  0
   -8.5160    3.8807   -8.6476 C   0  0  0  0  0  0  0  0  0  0  0  0
   -8.5649    3.9497   -7.1417 C   0  0  0  0  0  0  0  0  0  0  0  0
   -9.7103    4.5325   -6.6721 F   0  0  0  0  0  0  0  0  0  0  0  0
   -7.5630    4.7287   -6.6485 F   0  0  0  0  0  0  0  0  0  0  0  0
   -7.9338    4.9212   -9.4052 C   0  0  0  0  0  0  0  0  0  0  0  0
   -7.1430    5.5780  -13.0066 N   0  0  0  0  0  0  0  0  0  0  0  0
   -6.1688    6.4994  -17.7145 C   0  0  0  0  0  0  0  0  0  0  0  0
   -5.6954    5.2009  -17.3317 N   0  0  0  0  0  0  0  0  0  0  0  0
   -4.4235    4.9765  -16.9007 C   0  0  0  0  0  0  0  0  0  0  0  0
   -4.1762    3.9749  -16.2510 O   0  0  0  0  0  0  0  0  0  0  0  0
  1  2  1  0
  2  3  1  0
  2  4  1  0
  4  5  1  0
  5  6  1  1
  6  7  2  0
  6  8  1  0
  8  9  1  0
  9 10  1  0
 10 11  2  0
 11 12  1  0
 12 13  1  0
 13 14  2  0
 14 15  1  0
 15 16  2  0
 16 17  1  0
 17 18  1  0
 18 19  1  0
 18 20  1  0
 17 21  2  0
 12 22  1  0
  5 23  1  0
 23 24  1  0
 24 25  1  0
 25 26  2  0
 25  2  1  0
 22  9  2  0
 21 13  1  0
M  END
>  <energy_score>  (1027) 
-32.35354

>  <alias>  (1027) 
None

>  <HIPPO Pose ID>  (1027) 
70506

>  <smiles>  (1027) 
CC1(C)C[C@H](C(=O)Nc2ccn(-c3ccnc(C(F)F)c3)n2)CNC1=O

>  <inchikey>  (1027) 
PSDYRRRCFKCJFF-JTQLQIEISA-N

>  <distance_score>  (1027) 
1.9709

>  <ref_mols>  (1027) 
Z0969a,Z0788a

>  <ref_pdb>  (1027) 
Z0788a

>  <HIPPO Compound ID>  (1027) 
142578

>  <name>  (1027) 
P70506

>  <inspiration_score>  (1027) 
None

$$$$
P70507
     RDKit          3D

 26 28  0  0  0  0  0  0  0  0999 V2000
   -9.1740    4.2914  -16.6091 C   0  0  0  0  0  0  0  0  0  0  0  0
   -7.8549    4.6719  -16.9590 O   0  0  0  0  0  0  0  0  0  0  0  0
   -7.7157    4.8472  -18.3713 C   0  0  0  0  0  0  0  0  0  0  0  0
   -6.2464    5.0483  -18.7289 C   0  0  0  0  0  0  0  0  0  0  0  0
   -5.6577    6.3367  -18.3288 N   0  0  0  0  0  0  0  0  0  0  0  0
   -5.6331    6.7256  -16.9222 C   0  0  0  0  0  0  0  0  0  0  0  0
   -4.3238    6.4056  -16.1997 C   0  0  1  0  0  0  0  0  0  0  0  0
   -4.4384    5.0824  -15.4238 C   0  0  0  0  0  0  0  0  0  0  0  0
   -3.8919    4.1094  -15.7824 O   0  0  0  0  0  0  0  0  0  0  0  0
   -5.3963    5.3181  -14.2056 N   0  0  0  0  0  0  0  0  0  0  0  0
   -5.7703    4.4773  -13.1979 C   0  0  0  0  0  0  0  0  0  0  0  0
   -5.4517    3.1147  -13.1960 C   0  0  0  0  0  0  0  0  0  0  0  0
   -6.0413    2.6192  -12.0710 C   0  0  0  0  0  0  0  0  0  0  0  0
   -6.6516    3.6739  -11.4132 N   0  0  0  0  0  0  0  0  0  0  0  0
   -7.3306    3.5718  -10.1566 C   0  0  0  0  0  0  0  0  0  0  0  0
   -7.4577    2.3089   -9.5731 C   0  0  0  0  0  0  0  0  0  0  0  0
   -8.1579    2.1382   -8.3999 C   0  0  0  0  0  0  0  0  0  0  0  0
   -8.6554    3.1592   -7.7067 N   0  0  0  0  0  0  0  0  0  0  0  0
   -8.4345    4.3945   -8.2043 C   0  0  0  0  0  0  0  0  0  0  0  0
   -8.7455    5.4895   -7.2428 C   0  0  0  0  0  0  0  0  0  0  0  0
   -7.8254    4.6589   -9.4450 C   0  0  0  0  0  0  0  0  0  0  0  0
   -6.4782    4.8441  -12.1170 N   0  0  0  0  0  0  0  0  0  0  0  0
   -3.1555    6.4297  -17.2135 C   0  0  0  0  0  0  0  0  0  0  0  0
   -3.4697    7.3900  -18.3722 C   0  0  0  0  0  0  0  0  0  0  0  0
   -4.6351    6.8150  -19.1481 C   0  0  0  0  0  0  0  0  0  0  0  0
   -4.6194    6.7423  -20.3721 O   0  0  0  0  0  0  0  0  0  0  0  0
  1  2  1  0
  2  3  1  0
  3  4  1  0
  4  5  1  0
  5  6  1  0
  6  7  1  0
  7  8  1  6
  8  9  2  0
  8 10  1  0
 10 11  1  0
 11 12  1  0
 12 13  2  0
 13 14  1  0
 14 15  1  0
 15 16  2  0
 16 17  1  0
 17 18  2  0
 18 19  1  0
 19 20  1  0
 19 21  2  0
 14 22  1  0
  7 23  1  0
 23 24  1  0
 24 25  1  0
 25 26  2  0
 25  5  1  0
 22 11  2  0
 21 15  1  0
M  END
>  <energy_score>  (1028) 
-43.110476

>  <alias>  (1028) 
None

>  <HIPPO Pose ID>  (1028) 
70507

>  <smiles>  (1028) 
COCCN1C[C@@H](C(=O)Nc2ccn(-c3ccnc(C)c3)n2)CCC1=O

>  <inchikey>  (1028) 
FUKBTGSWEYEZFS-AWEZNQCLSA-N

>  <distance_score>  (1028) 
1.775363

>  <ref_mols>  (1028) 
Z0788a,Z0969a

>  <ref_pdb>  (1028) 
Z0788a

>  <HIPPO Compound ID>  (1028) 
142580

>  <name>  (1028) 
P70507

>  <inspiration_score>  (1028) 
None

$$$$
P70508
     RDKit          3D

 26 28  0  0  0  0  0  0  0  0999 V2000
   -8.6655    5.2918   -6.6012 C   0  0  0  0  0  0  0  0  0  0  0  0
   -8.4118    4.3905   -7.7597 C   0  0  0  0  0  0  0  0  0  0  0  0
   -8.1041    4.9060   -9.0302 C   0  0  0  0  0  0  0  0  0  0  0  0
   -7.9151    3.9747  -10.0333 C   0  0  0  0  0  0  0  0  0  0  0  0
   -7.8027    4.2740  -11.4104 N   0  0  0  0  0  0  0  0  0  0  0  0
   -8.3452    3.4571  -12.3718 C   0  0  0  0  0  0  0  0  0  0  0  0
   -7.7789    3.7918  -13.5604 C   0  0  0  0  0  0  0  0  0  0  0  0
   -6.9326    4.8691  -13.2525 C   0  0  0  0  0  0  0  0  0  0  0  0
   -6.1169    5.3443  -14.2358 N   0  0  0  0  0  0  0  0  0  0  0  0
   -5.2248    6.6104  -14.2789 C   0  0  0  0  0  0  0  0  0  0  0  0
   -4.9914    7.3999  -13.4513 O   0  0  0  0  0  0  0  0  0  0  0  0
   -4.6129    6.6810  -15.6918 C   0  0  1  0  0  0  0  0  0  0  0  0
   -3.7113    5.4736  -16.0172 C   0  0  0  0  0  0  0  0  0  0  0  0
   -3.2267    5.4838  -17.4692 C   0  0  0  0  0  0  0  0  0  0  0  0
   -4.0974    6.3532  -18.3573 C   0  0  0  0  0  0  0  0  0  0  0  0
   -3.6279    7.1143  -19.1959 O   0  0  0  0  0  0  0  0  0  0  0  0
   -5.4406    6.3499  -18.0530 N   0  0  0  0  0  0  0  0  0  0  0  0
   -6.1251    5.1166  -18.3159 C   0  0  0  0  0  0  0  0  0  0  0  0
   -7.4622    5.2957  -18.2734 F   0  0  0  0  0  0  0  0  0  0  0  0
   -5.7912    4.5909  -19.5094 F   0  0  0  0  0  0  0  0  0  0  0  0
   -5.8297    4.2183  -17.3507 F   0  0  0  0  0  0  0  0  0  0  0  0
   -5.7001    6.9476  -16.7627 C   0  0  0  0  0  0  0  0  0  0  0  0
   -7.0385    5.2543  -11.9710 N   0  0  0  0  0  0  0  0  0  0  0  0
   -7.9091    2.6159   -9.7061 C   0  0  0  0  0  0  0  0  0  0  0  0
   -8.2023    2.2050   -8.4314 C   0  0  0  0  0  0  0  0  0  0  0  0
   -8.4816    3.0717   -7.4595 N   0  0  0  0  0  0  0  0  0  0  0  0
  1  2  1  0
  2  3  2  0
  3  4  1  0
  4  5  1  0
  5  6  1  0
  6  7  2  0
  7  8  1  0
  8  9  1  0
  9 10  1  0
 10 11  2  0
 12 10  1  1
 12 13  1  0
 13 14  1  0
 14 15  1  0
 15 16  2  0
 15 17  1  0
 17 18  1  0
 18 19  1  0
 18 20  1  0
 18 21  1  0
 17 22  1  0
  8 23  2  0
  4 24  2  0
 24 25  1  0
 25 26  2  0
 26  2  1  0
 23  5  1  0
 22 12  1  0
M  END
>  <energy_score>  (1029) 
-0.847775

>  <alias>  (1029) 
None

>  <HIPPO Pose ID>  (1029) 
70508

>  <smiles>  (1029) 
Cc1cc(-n2ccc(NC(=O)[C@H]3CCC(=O)N(C(F)(F)F)C3)n2)ccn1

>  <inchikey>  (1029) 
FSRDZPXVDLSUKT-NSHDSACASA-N

>  <distance_score>  (1029) 
1.746592

>  <ref_mols>  (1029) 
Z0788a,Z0969a

>  <ref_pdb>  (1029) 
Z0788a

>  <HIPPO Compound ID>  (1029) 
142581

>  <name>  (1029) 
P70508

>  <inspiration_score>  (1029) 
None

$$$$
P70509
     RDKit          3D

 26 28  0  0  0  0  0  0  0  0999 V2000
   -8.5503    3.9495   -6.9877 C   0  0  0  0  0  0  0  0  0  0  0  0
   -8.4906    3.9749   -8.4850 C   0  0  0  0  0  0  0  0  0  0  0  0
   -8.0170    5.1000   -9.1821 C   0  0  0  0  0  0  0  0  0  0  0  0
   -7.9350    5.0498  -10.5853 C   0  0  0  0  0  0  0  0  0  0  0  0
   -7.4363    6.1375  -11.3675 N   0  0  0  0  0  0  0  0  0  0  0  0
   -7.1736    7.4205  -10.9343 C   0  0  0  0  0  0  0  0  0  0  0  0
   -6.6163    8.1002  -11.9918 C   0  0  0  0  0  0  0  0  0  0  0  0
   -6.5617    7.1705  -13.0470 C   0  0  0  0  0  0  0  0  0  0  0  0
   -5.9582    7.3694  -14.2636 N   0  0  0  0  0  0  0  0  0  0  0  0
   -5.2318    8.6231  -14.8406 C   0  0  0  0  0  0  0  0  0  0  0  0
   -5.1064    9.7003  -14.3948 O   0  0  0  0  0  0  0  0  0  0  0  0
   -4.4921    8.2978  -16.1749 C   0  0  2  0  0  0  0  0  0  0  0  0
   -5.3167    8.5405  -17.4352 C   0  0  0  0  0  0  0  0  0  0  0  0
   -5.9662    7.3275  -17.8784 N   0  0  0  0  0  0  0  0  0  0  0  0
   -5.2662    6.1498  -18.0156 C   0  0  0  0  0  0  0  0  0  0  0  0
   -5.8067    5.1590  -18.4775 O   0  0  0  0  0  0  0  0  0  0  0  0
   -3.8270    6.2616  -17.5935 C   0  0  2  0  0  0  0  0  0  0  0  0
   -3.1638    4.9160  -17.5177 C   0  0  0  0  0  0  0  0  0  0  0  0
   -3.7370    4.1097  -16.6028 F   0  0  0  0  0  0  0  0  0  0  0  0
   -1.8806    5.1212  -17.1137 F   0  0  0  0  0  0  0  0  0  0  0  0
   -3.1021    4.2826  -18.7021 F   0  0  0  0  0  0  0  0  0  0  0  0
   -3.7222    6.9726  -16.2335 C   0  0  0  0  0  0  0  0  0  0  0  0
   -7.1197    6.0067  -12.6994 N   0  0  0  0  0  0  0  0  0  0  0  0
   -8.3498    3.8912  -11.2283 C   0  0  0  0  0  0  0  0  0  0  0  0
   -8.8547    2.8604  -10.4581 C   0  0  0  0  0  0  0  0  0  0  0  0
   -8.9228    2.8680   -9.1128 N   0  0  0  0  0  0  0  0  0  0  0  0
  1  2  1  0
  2  3  2  0
  3  4  1  0
  4  5  1  0
  5  6  1  0
  6  7  2  0
  7  8  1  0
  8  9  1  0
  9 10  1  0
 10 11  2  0
 12 10  1  1
 12 13  1  0
 13 14  1  0
 14 15  1  0
 15 16  2  0
 15 17  1  0
 17 18  1  1
 18 19  1  0
 18 20  1  0
 18 21  1  0
 17 22  1  0
  8 23  2  0
  4 24  2  0
 24 25  1  0
 25 26  2  0
 26  2  1  0
 23  5  1  0
 22 12  1  0
M  END
>  <energy_score>  (1030) 
-52.025923

>  <alias>  (1030) 
None

>  <HIPPO Pose ID>  (1030) 
70509

>  <smiles>  (1030) 
Cc1cc(-n2ccc(NC(=O)[C@@H]3CNC(=O)[C@H](C(F)(F)F)C3)n2)ccn1

>  <inchikey>  (1030) 
QMYKWTWYWNTSGP-CMPLNLGQSA-N

>  <distance_score>  (1030) 
1.616053

>  <ref_mols>  (1030) 
Z0788a,Z0969a

>  <ref_pdb>  (1030) 
Z0788a

>  <HIPPO Compound ID>  (1030) 
142582

>  <name>  (1030) 
P70509

>  <inspiration_score>  (1030) 
None

$$$$
P70514
     RDKit          3D

 26 28  0  0  0  0  0  0  0  0999 V2000
   -9.2334    4.0414   -6.3736 C   0  0  0  0  0  0  0  0  0  0  0  0
   -8.6739    3.6977   -7.7152 C   0  0  0  0  0  0  0  0  0  0  0  0
   -8.4849    4.6695   -8.7060 C   0  0  0  0  0  0  0  0  0  0  0  0
   -7.8971    4.2836   -9.9146 C   0  0  0  0  0  0  0  0  0  0  0  0
   -7.6706    5.2000  -10.9761 N   0  0  0  0  0  0  0  0  0  0  0  0
   -8.1038    6.5046  -11.0735 C   0  0  0  0  0  0  0  0  0  0  0  0
   -7.5554    7.0235  -12.2218 C   0  0  0  0  0  0  0  0  0  0  0  0
   -6.7862    5.9782  -12.7599 C   0  0  0  0  0  0  0  0  0  0  0  0
   -5.9693    6.0436  -13.8451 N   0  0  0  0  0  0  0  0  0  0  0  0
   -5.6573    7.2253  -14.8014 C   0  0  0  0  0  0  0  0  0  0  0  0
   -6.1121    8.2999  -14.8496 O   0  0  0  0  0  0  0  0  0  0  0  0
   -4.4832    6.7988  -15.7072 C   0  0  2  0  0  0  0  0  0  0  0  0
   -3.7947    8.0484  -16.2708 C   0  0  0  0  0  0  0  0  0  0  0  0
   -4.4090    8.5721  -17.4693 N   0  0  0  0  0  0  0  0  0  0  0  0
   -5.2723    7.9303  -18.2988 C   0  0  0  0  0  0  0  0  0  0  0  0
   -5.7753    8.5416  -19.2405 O   0  0  0  0  0  0  0  0  0  0  0  0
   -5.6510    6.5081  -17.9687 C   0  0  0  0  0  0  0  0  0  0  0  0
   -4.8675    5.8281  -16.8443 C   0  0  1  0  0  0  0  0  0  0  0  0
   -3.6128    5.1043  -17.3305 C   0  0  0  0  0  0  0  0  0  0  0  0
   -3.1920    4.2864  -16.3329 F   0  0  0  0  0  0  0  0  0  0  0  0
   -2.5942    5.9408  -17.6066 F   0  0  0  0  0  0  0  0  0  0  0  0
   -3.8193    4.3366  -18.4151 F   0  0  0  0  0  0  0  0  0  0  0  0
   -6.8845    4.8642  -12.0412 N   0  0  0  0  0  0  0  0  0  0  0  0
   -7.4778    2.9649  -10.0611 C   0  0  0  0  0  0  0  0  0  0  0  0
   -7.6724    2.0913   -9.0089 C   0  0  0  0  0  0  0  0  0  0  0  0
   -8.2798    2.4215   -7.8592 N   0  0  0  0  0  0  0  0  0  0  0  0
  1  2  1  0
  2  3  2  0
  3  4  1  0
  4  5  1  0
  5  6  1  0
  6  7  2  0
  7  8  1  0
  8  9  1  0
  9 10  1  0
 10 11  2  0
 12 10  1  6
 12 13  1  0
 13 14  1  0
 14 15  1  0
 15 16  2  0
 15 17  1  0
 17 18  1  0
 18 19  1  6
 19 20  1  0
 19 21  1  0
 19 22  1  0
  8 23  2  0
  4 24  2  0
 24 25  1  0
 25 26  2  0
 26  2  1  0
 23  5  1  0
 18 12  1  0
M  END
>  <energy_score>  (1031) 
-61.460093

>  <alias>  (1031) 
None

>  <HIPPO Pose ID>  (1031) 
70514

>  <smiles>  (1031) 
Cc1cc(-n2ccc(NC(=O)[C@@H]3CNC(=O)C[C@H]3C(F)(F)F)n2)ccn1

>  <inchikey>  (1031) 
KJEAMZGZIYXVPY-VXGBXAGGSA-N

>  <distance_score>  (1031) 
1.737137

>  <ref_mols>  (1031) 
Z0788a,Z0969a

>  <ref_pdb>  (1031) 
Z0788a

>  <HIPPO Compound ID>  (1031) 
142583

>  <name>  (1031) 
P70514

>  <inspiration_score>  (1031) 
None

$$$$
P70516
     RDKit          3D

 27 29  0  0  0  0  0  0  0  0999 V2000
   -9.1123    3.8057   -6.2829 C   0  0  0  0  0  0  0  0  0  0  0  0
   -8.5530    3.5941   -7.6566 C   0  0  0  0  0  0  0  0  0  0  0  0
   -8.2305    2.3131   -7.9185 N   0  0  0  0  0  0  0  0  0  0  0  0
   -7.6201    2.0629   -9.0818 C   0  0  0  0  0  0  0  0  0  0  0  0
   -7.4180    3.0081  -10.0677 C   0  0  0  0  0  0  0  0  0  0  0  0
   -7.7830    4.3362   -9.8277 C   0  0  0  0  0  0  0  0  0  0  0  0
   -7.5644    5.2633  -10.8907 N   0  0  0  0  0  0  0  0  0  0  0  0
   -8.1058    6.5146  -11.0871 C   0  0  0  0  0  0  0  0  0  0  0  0
   -7.5321    7.0372  -12.2204 C   0  0  0  0  0  0  0  0  0  0  0  0
   -6.6738    6.0317  -12.6896 C   0  0  0  0  0  0  0  0  0  0  0  0
   -5.8516    6.1123  -13.7725 N   0  0  0  0  0  0  0  0  0  0  0  0
   -5.5992    7.2827  -14.7620 C   0  0  0  0  0  0  0  0  0  0  0  0
   -6.1145    8.3279  -14.8451 O   0  0  0  0  0  0  0  0  0  0  0  0
   -4.4271    6.8925  -15.6905 C   0  0  2  0  0  0  0  0  0  0  0  0
   -3.7373    8.1536  -16.2428 C   0  0  0  0  0  0  0  0  0  0  0  0
   -4.5453    8.8890  -17.3065 C   0  0  0  0  0  0  0  0  0  0  0  0
   -5.3454    8.0223  -18.2513 C   0  0  0  0  0  0  0  0  0  0  0  0
   -5.9349    8.5112  -19.2146 O   0  0  0  0  0  0  0  0  0  0  0  0
   -5.4649    6.6973  -17.9695 N   0  0  0  0  0  0  0  0  0  0  0  0
   -4.8356    5.9704  -16.8582 C   0  0  1  0  0  0  0  0  0  0  0  0
   -3.6261    5.0799  -17.2524 C   0  0  0  0  0  0  0  0  0  0  0  0
   -3.4284    4.1614  -16.2737 F   0  0  0  0  0  0  0  0  0  0  0  0
   -2.4804    5.7836  -17.3734 F   0  0  0  0  0  0  0  0  0  0  0  0
   -3.8177    4.4077  -18.4057 F   0  0  0  0  0  0  0  0  0  0  0  0
   -6.7206    4.9426  -11.9271 N   0  0  0  0  0  0  0  0  0  0  0  0
   -8.2968    4.6517   -8.5584 C   0  0  0  0  0  0  0  0  0  0  0  0
   -8.4206    6.2655   -7.9503 Cl  0  0  0  0  0  0  0  0  0  0  0  0
  1  2  1  0
  2  3  2  0
  3  4  1  0
  4  5  2  0
  5  6  1  0
  6  7  1  0
  7  8  1  0
  8  9  2  0
  9 10  1  0
 10 11  1  0
 11 12  1  0
 12 13  2  0
 14 12  1  6
 14 15  1  0
 15 16  1  0
 16 17  1  0
 17 18  2  0
 17 19  1  0
 19 20  1  0
 20 21  1  6
 21 22  1  0
 21 23  1  0
 21 24  1  0
 10 25  2  0
  6 26  2  0
 26 27  1  0
 26  2  1  0
 25  7  1  0
 20 14  1  0
M  END
>  <energy_score>  (1032) 
-48.892438

>  <alias>  (1032) 
None

>  <HIPPO Pose ID>  (1032) 
70516

>  <smiles>  (1032) 
Cc1nccc(-n2ccc(NC(=O)[C@@H]3CCC(=O)N[C@H]3C(F)(F)F)n2)c1Cl

>  <inchikey>  (1032) 
YMUMDZJTWIWCAL-YMTOWFKASA-N

>  <distance_score>  (1032) 
1.716262

>  <ref_mols>  (1032) 
Z0788a,Z0969a

>  <ref_pdb>  (1032) 
Z0788a

>  <HIPPO Compound ID>  (1032) 
142584

>  <name>  (1032) 
P70516

>  <inspiration_score>  (1032) 
None

$$$$
P70518
     RDKit          3D

 27 29  0  0  0  0  0  0  0  0999 V2000
   -7.7670    5.0689  -18.2377 C   0  0  0  0  0  0  0  0  0  0  0  0
   -6.2880    4.8002  -18.4583 C   0  0  0  0  0  0  0  0  0  0  0  0
   -5.9356    4.5833  -19.9307 C   0  0  0  0  0  0  0  0  0  0  0  0
   -5.3974    5.8039  -17.8439 N   0  0  0  0  0  0  0  0  0  0  0  0
   -4.2015    5.2557  -17.1921 C   0  0  0  0  0  0  0  0  0  0  0  0
   -3.3936    6.2440  -16.3613 C   0  0  2  0  0  0  0  0  0  0  0  0
   -3.3809    6.1021  -14.8245 C   0  0  0  0  0  0  0  0  0  0  0  0
   -2.3634    6.2523  -14.2638 O   0  0  0  0  0  0  0  0  0  0  0  0
   -4.8139    5.8698  -14.2668 N   0  0  0  0  0  0  0  0  0  0  0  0
   -5.2485    5.6904  -12.9826 C   0  0  0  0  0  0  0  0  0  0  0  0
   -4.5080    6.0456  -11.8396 C   0  0  0  0  0  0  0  0  0  0  0  0
   -5.3171    5.7410  -10.7745 C   0  0  0  0  0  0  0  0  0  0  0  0
   -6.4366    5.1204  -11.2886 N   0  0  0  0  0  0  0  0  0  0  0  0
   -7.4102    4.3944  -10.5429 C   0  0  0  0  0  0  0  0  0  0  0  0
   -8.2809    3.5467  -11.2106 C   0  0  0  0  0  0  0  0  0  0  0  0
   -9.0874    2.7187  -10.4541 C   0  0  0  0  0  0  0  0  0  0  0  0
   -9.1164    2.6899   -9.1070 N   0  0  0  0  0  0  0  0  0  0  0  0
   -8.2922    3.5405   -8.4586 C   0  0  0  0  0  0  0  0  0  0  0  0
   -8.4037    3.6021   -6.9574 C   0  0  0  0  0  0  0  0  0  0  0  0
   -9.4082    4.4537   -6.5970 F   0  0  0  0  0  0  0  0  0  0  0  0
   -7.2881    4.1083   -6.3471 F   0  0  0  0  0  0  0  0  0  0  0  0
   -7.4410    4.4204   -9.1412 C   0  0  0  0  0  0  0  0  0  0  0  0
   -6.4414    5.1839  -12.6609 N   0  0  0  0  0  0  0  0  0  0  0  0
   -3.6876    7.6942  -16.7049 C   0  0  0  0  0  0  0  0  0  0  0  0
   -4.1238    7.8686  -18.1388 C   0  0  0  0  0  0  0  0  0  0  0  0
   -5.3966    7.1013  -18.3734 C   0  0  0  0  0  0  0  0  0  0  0  0
   -6.3019    7.6174  -19.0227 O   0  0  0  0  0  0  0  0  0  0  0  0
  1  2  1  0
  2  3  1  0
  2  4  1  0
  4  5  1  0
  5  6  1  0
  6  7  1  1
  7  8  2  0
  7  9  1  0
  9 10  1  0
 10 11  1  0
 11 12  2  0
 12 13  1  0
 13 14  1  0
 14 15  2  0
 15 16  1  0
 16 17  2  0
 17 18  1  0
 18 19  1  0
 19 20  1  0
 19 21  1  0
 18 22  2  0
 13 23  1  0
  6 24  1  0
 24 25  1  0
 25 26  1  0
 26 27  2  0
 26  4  1  0
 23 10  2  0
 22 14  1  0
M  END
>  <energy_score>  (1033) 
-58.115296

>  <alias>  (1033) 
None

>  <HIPPO Pose ID>  (1033) 
70518

>  <smiles>  (1033) 
CC(C)N1C[C@H](C(=O)Nc2ccn(-c3ccnc(C(F)F)c3)n2)CCC1=O

>  <inchikey>  (1033) 
ODMRKOMXAVMCRT-GFCCVEGCSA-N

>  <distance_score>  (1033) 
1.706448

>  <ref_mols>  (1033) 
Z0788a,Z0969a

>  <ref_pdb>  (1033) 
Z0788a

>  <HIPPO Compound ID>  (1033) 
142585

>  <name>  (1033) 
P70518

>  <inspiration_score>  (1033) 
None

$$$$
P70519
     RDKit          3D

 27 30  0  0  0  0  0  0  0  0999 V2000
   -1.9874    9.2499  -16.9024 O   0  0  0  0  0  0  0  0  0  0  0  0
   -2.8539    8.3838  -16.9906 C   0  0  0  0  0  0  0  0  0  0  0  0
   -2.7699    7.0654  -16.2335 C   0  0  0  0  0  0  0  0  0  0  0  0
   -3.6629    5.9994  -16.8528 C   0  0  0  0  0  0  0  0  0  0  0  0
   -2.9885    5.5265  -18.1992 C   0  0  0  0  0  0  0  0  0  0  0  0
   -3.5009    4.1286  -17.8883 C   0  0  0  0  0  0  0  0  0  0  0  0
   -3.4749    4.5207  -16.3988 C   0  0  0  0  0  0  0  0  0  0  0  0
   -5.1162    6.5250  -16.9171 C   0  0  1  0  0  0  0  0  0  0  0  0
   -5.6888    7.0898  -15.5760 C   0  0  0  0  0  0  0  0  0  0  0  0
   -5.6923    8.2408  -15.3689 O   0  0  0  0  0  0  0  0  0  0  0  0
   -6.2472    5.9137  -14.7294 N   0  0  0  0  0  0  0  0  0  0  0  0
   -6.8070    5.9053  -13.4826 C   0  0  0  0  0  0  0  0  0  0  0  0
   -7.2627    7.0279  -12.7653 C   0  0  0  0  0  0  0  0  0  0  0  0
   -7.7473    6.5299  -11.5776 C   0  0  0  0  0  0  0  0  0  0  0  0
   -7.5036    5.1740  -11.5872 N   0  0  0  0  0  0  0  0  0  0  0  0
   -7.6459    4.2536  -10.5078 C   0  0  0  0  0  0  0  0  0  0  0  0
   -7.1790    2.9544  -10.6848 C   0  0  0  0  0  0  0  0  0  0  0  0
   -7.2046    2.0851   -9.6128 C   0  0  0  0  0  0  0  0  0  0  0  0
   -7.7211    2.3849   -8.4128 N   0  0  0  0  0  0  0  0  0  0  0  0
   -8.1822    3.6401   -8.2360 C   0  0  0  0  0  0  0  0  0  0  0  0
   -8.6481    3.9856   -6.8484 C   0  0  0  0  0  0  0  0  0  0  0  0
   -9.6915    4.8621   -6.8746 F   0  0  0  0  0  0  0  0  0  0  0  0
   -7.6885    4.6194   -6.1081 F   0  0  0  0  0  0  0  0  0  0  0  0
   -8.1523    4.6133   -9.2529 C   0  0  0  0  0  0  0  0  0  0  0  0
   -6.9882    4.7808  -12.7945 N   0  0  0  0  0  0  0  0  0  0  0  0
   -5.0810    7.6796  -17.9431 C   0  0  0  0  0  0  0  0  0  0  0  0
   -3.9581    8.5894  -17.7783 N   0  0  0  0  0  0  0  0  0  0  0  0
  1  2  2  0
  2  3  1  0
  3  4  1  0
  4  5  1  0
  5  6  1  0
  6  7  1  0
  4  8  1  0
  8  9  1  1
  9 10  2  0
  9 11  1  0
 11 12  1  0
 12 13  1  0
 13 14  2  0
 14 15  1  0
 15 16  1  0
 16 17  2  0
 17 18  1  0
 18 19  2  0
 19 20  1  0
 20 21  1  0
 21 22  1  0
 21 23  1  0
 20 24  2  0
 15 25  1  0
  8 26  1  0
 26 27  1  0
 27  2  1  0
  7  4  1  0
 25 12  2  0
 24 16  1  0
M  END
>  <energy_score>  (1034) 
-76.207288

>  <alias>  (1034) 
None

>  <HIPPO Pose ID>  (1034) 
70519

>  <smiles>  (1034) 
O=C1CC2(CCC2)[C@@H](C(=O)Nc2ccn(-c3ccnc(C(F)F)c3)n2)CN1

>  <inchikey>  (1034) 
HXNOHVJQZBLFHX-GFCCVEGCSA-N

>  <distance_score>  (1034) 
1.880464

>  <ref_mols>  (1034) 
Z0788a,Z0969a

>  <ref_pdb>  (1034) 
Z0788a

>  <HIPPO Compound ID>  (1034) 
142587

>  <name>  (1034) 
P70519

>  <inspiration_score>  (1034) 
None

$$$$
P70520
     RDKit          3D

 27 30  0  0  0  0  0  0  0  0999 V2000
   -4.7581    4.2143  -15.0731 O   0  0  0  0  0  0  0  0  0  0  0  0
   -5.2660    5.2033  -15.4423 C   0  0  0  0  0  0  0  0  0  0  0  0
   -6.2654    6.1570  -14.7188 N   0  0  0  0  0  0  0  0  0  0  0  0
   -6.8814    6.0416  -13.4976 C   0  0  0  0  0  0  0  0  0  0  0  0
   -7.7253    7.0077  -12.9118 C   0  0  0  0  0  0  0  0  0  0  0  0
   -8.1107    6.4729  -11.7014 C   0  0  0  0  0  0  0  0  0  0  0  0
   -7.5375    5.2228  -11.6163 N   0  0  0  0  0  0  0  0  0  0  0  0
   -7.6405    4.2650  -10.5646 C   0  0  0  0  0  0  0  0  0  0  0  0
   -7.0070    3.0359  -10.7307 C   0  0  0  0  0  0  0  0  0  0  0  0
   -7.0676    2.1076   -9.7113 C   0  0  0  0  0  0  0  0  0  0  0  0
   -7.7207    2.3018   -8.5566 N   0  0  0  0  0  0  0  0  0  0  0  0
   -8.3431    3.4876   -8.3880 C   0  0  0  0  0  0  0  0  0  0  0  0
   -8.9958    3.7033   -7.0487 C   0  0  0  0  0  0  0  0  0  0  0  0
   -9.2340    5.0287   -6.8179 F   0  0  0  0  0  0  0  0  0  0  0  0
  -10.2071    3.0958   -6.9168 F   0  0  0  0  0  0  0  0  0  0  0  0
   -8.3233    4.5019   -9.3671 C   0  0  0  0  0  0  0  0  0  0  0  0
   -6.7533    4.9820  -12.7044 N   0  0  0  0  0  0  0  0  0  0  0  0
   -4.9544    5.7580  -16.8517 C   0  0  1  0  0  0  0  0  0  0  0  0
   -6.1673    5.8111  -17.7837 C   0  0  0  0  0  0  0  0  0  0  0  0
   -5.9377    6.8026  -18.9167 C   0  0  0  0  0  0  0  0  0  0  0  0
   -5.7654    8.1907  -18.3516 C   0  0  0  0  0  0  0  0  0  0  0  0
   -6.3498    9.1649  -18.8279 O   0  0  0  0  0  0  0  0  0  0  0  0
   -4.9287    8.2452  -17.2393 N   0  0  0  0  0  0  0  0  0  0  0  0
   -4.6430    9.5072  -16.6024 C   0  0  0  0  0  0  0  0  0  0  0  0
   -4.0358   10.6538  -17.3699 C   0  0  0  0  0  0  0  0  0  0  0  0
   -3.2354    9.9637  -16.3099 C   0  0  0  0  0  0  0  0  0  0  0  0
   -4.1637    7.0717  -16.8128 C   0  0  0  0  0  0  0  0  0  0  0  0
  1  2  2  0
  2  3  1  0
  3  4  1  0
  4  5  1  0
  5  6  2  0
  6  7  1  0
  7  8  1  0
  8  9  2  0
  9 10  1  0
 10 11  2  0
 11 12  1  0
 12 13  1  0
 13 14  1  0
 13 15  1  0
 12 16  2  0
  7 17  1  0
 18  2  1  1
 18 19  1  0
 19 20  1  0
 20 21  1  0
 21 22  2  0
 21 23  1  0
 23 24  1  0
 24 25  1  0
 25 26  1  0
 23 27  1  0
 17  4  2  0
 27 18  1  0
 16  8  1  0
 26 24  1  0
M  END
>  <energy_score>  (1035) 
-53.901302

>  <alias>  (1035) 
None

>  <HIPPO Pose ID>  (1035) 
70520

>  <smiles>  (1035) 
O=C(Nc1ccn(-c2ccnc(C(F)F)c2)n1)[C@H]1CCC(=O)N(C2CC2)C1

>  <inchikey>  (1035) 
RFCPZNRVJUJUBM-NSHDSACASA-N

>  <distance_score>  (1035) 
1.929044

>  <ref_mols>  (1035) 
Z0969a,Z0788a

>  <ref_pdb>  (1035) 
Z0788a

>  <HIPPO Compound ID>  (1035) 
142588

>  <name>  (1035) 
P70520

>  <inspiration_score>  (1035) 
None

$$$$
P70521
     RDKit          3D

 27 29  0  0  0  0  0  0  0  0999 V2000
   -8.8555    3.5479   -6.3960 C   0  0  0  0  0  0  0  0  0  0  0  0
   -8.7684    3.6197   -7.8919 C   0  0  0  0  0  0  0  0  0  0  0  0
   -9.2545    2.5330   -8.5214 N   0  0  0  0  0  0  0  0  0  0  0  0
   -9.1896    2.5287   -9.8576 C   0  0  0  0  0  0  0  0  0  0  0  0
   -8.6078    3.5167  -10.6160 C   0  0  0  0  0  0  0  0  0  0  0  0
   -8.1361    4.6681   -9.9836 C   0  0  0  0  0  0  0  0  0  0  0  0
   -7.5726    5.6555  -10.8445 N   0  0  0  0  0  0  0  0  0  0  0  0
   -7.3231    6.9944  -10.6350 C   0  0  0  0  0  0  0  0  0  0  0  0
   -6.6245    7.4576  -11.7260 C   0  0  0  0  0  0  0  0  0  0  0  0
   -6.5413    6.3602  -12.5926 C   0  0  0  0  0  0  0  0  0  0  0  0
   -5.9015    6.2988  -13.7909 N   0  0  0  0  0  0  0  0  0  0  0  0
   -5.1743    7.4004  -14.6000 C   0  0  0  0  0  0  0  0  0  0  0  0
   -4.9450    8.5135  -14.3275 O   0  0  0  0  0  0  0  0  0  0  0  0
   -4.7107    6.8398  -15.9535 C   0  0  1  0  0  0  0  0  0  0  0  0
   -3.9835    5.4882  -15.9647 C   0  0  0  0  0  0  0  0  0  0  0  0
   -3.4291    5.2122  -17.3716 C   0  0  0  0  0  0  0  0  0  0  0  0
   -4.1615    6.0406  -18.4214 C   0  0  0  0  0  0  0  0  0  0  0  0
   -3.5688    6.7011  -19.2678 O   0  0  0  0  0  0  0  0  0  0  0  0
   -5.5218    6.1672  -18.2223 N   0  0  0  0  0  0  0  0  0  0  0  0
   -6.2709    4.9682  -18.4522 C   0  0  0  0  0  0  0  0  0  0  0  0
   -7.5965    5.2153  -18.4029 F   0  0  0  0  0  0  0  0  0  0  0  0
   -6.0034    4.0731  -17.4806 F   0  0  0  0  0  0  0  0  0  0  0  0
   -5.9764    4.4115  -19.6437 F   0  0  0  0  0  0  0  0  0  0  0  0
   -5.8405    6.8722  -16.9979 C   0  0  0  0  0  0  0  0  0  0  0  0
   -7.1775    5.3003  -12.1092 N   0  0  0  0  0  0  0  0  0  0  0  0
   -8.2459    4.7397   -8.5826 C   0  0  0  0  0  0  0  0  0  0  0  0
   -7.7533    6.0910   -7.6329 Cl  0  0  0  0  0  0  0  0  0  0  0  0
  1  2  1  0
  2  3  2  0
  3  4  1  0
  4  5  2  0
  5  6  1  0
  6  7  1  0
  7  8  1  0
  8  9  2  0
  9 10  1  0
 10 11  1  0
 11 12  1  0
 12 13  2  0
 14 12  1  1
 14 15  1  0
 15 16  1  0
 16 17  1  0
 17 18  2  0
 17 19  1  0
 19 20  1  0
 20 21  1  0
 20 22  1  0
 20 23  1  0
 19 24  1  0
 10 25  2  0
  6 26  2  0
 26 27  1  0
 26  2  1  0
 25  7  1  0
 24 14  1  0
M  END
>  <energy_score>  (1036) 
-31.925708

>  <alias>  (1036) 
None

>  <HIPPO Pose ID>  (1036) 
70521

>  <smiles>  (1036) 
Cc1nccc(-n2ccc(NC(=O)[C@H]3CCC(=O)N(C(F)(F)F)C3)n2)c1Cl

>  <inchikey>  (1036) 
UNXXBQAYGNXDTE-JTQLQIEISA-N

>  <distance_score>  (1036) 
1.60205

>  <ref_mols>  (1036) 
Z0788a,Z0969a

>  <ref_pdb>  (1036) 
Z0788a

>  <HIPPO Compound ID>  (1036) 
142589

>  <name>  (1036) 
P70521

>  <inspiration_score>  (1036) 
None

$$$$
P70524
     RDKit          3D

 27 29  0  0  0  0  0  0  0  0999 V2000
   -8.8244    3.8565   -6.3161 C   0  0  0  0  0  0  0  0  0  0  0  0
   -8.7630    3.7764   -7.8106 C   0  0  0  0  0  0  0  0  0  0  0  0
   -9.2273    2.6197   -8.3181 N   0  0  0  0  0  0  0  0  0  0  0  0
   -9.1541    2.4684   -9.6465 C   0  0  0  0  0  0  0  0  0  0  0  0
   -8.5893    3.3745  -10.5141 C   0  0  0  0  0  0  0  0  0  0  0  0
   -8.1851    4.6046  -10.0040 C   0  0  0  0  0  0  0  0  0  0  0  0
   -7.7433    5.5551  -10.9581 N   0  0  0  0  0  0  0  0  0  0  0  0
   -7.9896    6.9087  -10.9975 C   0  0  0  0  0  0  0  0  0  0  0  0
   -7.4141    7.3870  -12.1511 C   0  0  0  0  0  0  0  0  0  0  0  0
   -6.7995    6.2698  -12.7426 C   0  0  0  0  0  0  0  0  0  0  0  0
   -5.9924    6.2722  -13.8405 N   0  0  0  0  0  0  0  0  0  0  0  0
   -5.5614    7.4374  -14.7727 C   0  0  0  0  0  0  0  0  0  0  0  0
   -5.8939    8.5577  -14.7874 O   0  0  0  0  0  0  0  0  0  0  0  0
   -4.4482    6.9148  -15.7135 C   0  0  2  0  0  0  0  0  0  0  0  0
   -3.7298    8.1123  -16.3535 C   0  0  0  0  0  0  0  0  0  0  0  0
   -4.3857    8.6211  -17.5362 N   0  0  0  0  0  0  0  0  0  0  0  0
   -5.3000    7.9776  -18.3074 C   0  0  0  0  0  0  0  0  0  0  0  0
   -5.8465    8.5803  -19.2304 O   0  0  0  0  0  0  0  0  0  0  0  0
   -5.6740    6.5632  -17.9387 C   0  0  0  0  0  0  0  0  0  0  0  0
   -4.8869    5.9097  -16.8009 C   0  0  1  0  0  0  0  0  0  0  0  0
   -3.6630    5.1274  -17.2870 C   0  0  0  0  0  0  0  0  0  0  0  0
   -3.2518    4.3223  -16.2751 F   0  0  0  0  0  0  0  0  0  0  0  0
   -2.6205    5.9187  -17.6038 F   0  0  0  0  0  0  0  0  0  0  0  0
   -3.9115    4.3385  -18.3474 F   0  0  0  0  0  0  0  0  0  0  0  0
   -7.0399    5.1535  -12.0605 N   0  0  0  0  0  0  0  0  0  0  0  0
   -8.2887    4.8294   -8.6218 C   0  0  0  0  0  0  0  0  0  0  0  0
   -7.8001    6.2949   -7.8583 Cl  0  0  0  0  0  0  0  0  0  0  0  0
  1  2  1  0
  2  3  2  0
  3  4  1  0
  4  5  2  0
  5  6  1  0
  6  7  1  0
  7  8  1  0
  8  9  2  0
  9 10  1  0
 10 11  1  0
 11 12  1  0
 12 13  2  0
 14 12  1  6
 14 15  1  0
 15 16  1  0
 16 17  1  0
 17 18  2  0
 17 19  1  0
 19 20  1  0
 20 21  1  6
 21 22  1  0
 21 23  1  0
 21 24  1  0
 10 25  2  0
  6 26  2  0
 26 27  1  0
 26  2  1  0
 25  7  1  0
 20 14  1  0
M  END
>  <energy_score>  (1037) 
-45.221843

>  <alias>  (1037) 
None

>  <HIPPO Pose ID>  (1037) 
70524

>  <smiles>  (1037) 
Cc1nccc(-n2ccc(NC(=O)[C@@H]3CNC(=O)C[C@H]3C(F)(F)F)n2)c1Cl

>  <inchikey>  (1037) 
UHQTYGJKTAXAFN-NXEZZACHSA-N

>  <distance_score>  (1037) 
1.722118

>  <ref_mols>  (1037) 
Z0788a,Z0969a

>  <ref_pdb>  (1037) 
Z0788a

>  <HIPPO Compound ID>  (1037) 
142590

>  <name>  (1037) 
P70524

>  <inspiration_score>  (1037) 
None

$$$$
P70526
     RDKit          3D

 27 29  0  0  0  0  0  0  0  0999 V2000
   -9.2235    3.5426   -6.0915 C   0  0  0  0  0  0  0  0  0  0  0  0
   -8.6303    3.4883   -7.4658 C   0  0  0  0  0  0  0  0  0  0  0  0
   -8.3035    2.2456   -7.8678 N   0  0  0  0  0  0  0  0  0  0  0  0
   -7.7060    2.1290   -9.0571 C   0  0  0  0  0  0  0  0  0  0  0  0
   -7.5254    3.1778   -9.9347 C   0  0  0  0  0  0  0  0  0  0  0  0
   -7.8708    4.4769   -9.5390 C   0  0  0  0  0  0  0  0  0  0  0  0
   -7.6377    5.5154  -10.4921 N   0  0  0  0  0  0  0  0  0  0  0  0
   -7.9790    6.8511  -10.4667 C   0  0  0  0  0  0  0  0  0  0  0  0
   -7.4563    7.4354  -11.5955 C   0  0  0  0  0  0  0  0  0  0  0  0
   -6.8893    6.3762  -12.3111 C   0  0  0  0  0  0  0  0  0  0  0  0
   -6.3706    6.4212  -13.5632 N   0  0  0  0  0  0  0  0  0  0  0  0
   -6.1374    7.6222  -14.5125 C   0  0  0  0  0  0  0  0  0  0  0  0
   -6.2840    8.7679  -14.3346 O   0  0  0  0  0  0  0  0  0  0  0  0
   -5.7479    7.1063  -15.9032 C   0  0  2  0  0  0  0  0  0  0  0  0
   -6.7790    6.1236  -16.4411 C   0  0  0  0  0  0  0  0  0  0  0  0
   -6.5669    5.9579  -17.8527 N   0  0  0  0  0  0  0  0  0  0  0  0
   -5.3356    5.5443  -18.2868 C   0  0  0  0  0  0  0  0  0  0  0  0
   -5.2779    4.8889  -19.3177 O   0  0  0  0  0  0  0  0  0  0  0  0
   -4.1228    6.0582  -17.5304 C   0  0  2  0  0  0  0  0  0  0  0  0
   -3.0564    4.9918  -17.5431 C   0  0  0  0  0  0  0  0  0  0  0  0
   -3.4452    3.9252  -16.8059 F   0  0  0  0  0  0  0  0  0  0  0  0
   -1.9354    5.4858  -16.9530 F   0  0  0  0  0  0  0  0  0  0  0  0
   -2.7004    4.5674  -18.7659 F   0  0  0  0  0  0  0  0  0  0  0  0
   -4.3756    6.4845  -16.0652 C   0  0  0  0  0  0  0  0  0  0  0  0
   -6.9872    5.2234  -11.6624 N   0  0  0  0  0  0  0  0  0  0  0  0
   -8.3715    4.6440   -8.2380 C   0  0  0  0  0  0  0  0  0  0  0  0
   -8.5392    6.1684   -7.4434 Cl  0  0  0  0  0  0  0  0  0  0  0  0
  1  2  1  0
  2  3  2  0
  3  4  1  0
  4  5  2  0
  5  6  1  0
  6  7  1  0
  7  8  1  0
  8  9  2  0
  9 10  1  0
 10 11  1  0
 11 12  1  0
 12 13  2  0
 14 12  1  1
 14 15  1  0
 15 16  1  0
 16 17  1  0
 17 18  2  0
 17 19  1  0
 19 20  1  1
 20 21  1  0
 20 22  1  0
 20 23  1  0
 19 24  1  0
 10 25  2  0
  6 26  2  0
 26 27  1  0
 26  2  1  0
 25  7  1  0
 24 14  1  0
M  END
>  <energy_score>  (1038) 
-42.245687

>  <alias>  (1038) 
None

>  <HIPPO Pose ID>  (1038) 
70526

>  <smiles>  (1038) 
Cc1nccc(-n2ccc(NC(=O)[C@@H]3CNC(=O)[C@H](C(F)(F)F)C3)n2)c1Cl

>  <inchikey>  (1038) 
ODAQLFJUSJXSKA-VHSXEESVSA-N

>  <distance_score>  (1038) 
1.558388

>  <ref_mols>  (1038) 
Z0788a,Z0969a

>  <ref_pdb>  (1038) 
Z0788a

>  <HIPPO Compound ID>  (1038) 
142591

>  <name>  (1038) 
P70526

>  <inspiration_score>  (1038) 
None

$$$$
P70528
     RDKit          3D

 27 29  0  0  0  0  0  0  0  0999 V2000
   -8.8996    4.3362  -16.1729 C   0  0  0  0  0  0  0  0  0  0  0  0
   -7.6508    4.3903  -16.8437 O   0  0  0  0  0  0  0  0  0  0  0  0
   -7.8031    4.7069  -18.2309 C   0  0  0  0  0  0  0  0  0  0  0  0
   -6.4331    4.8525  -18.8840 C   0  0  0  0  0  0  0  0  0  0  0  0
   -5.4575    5.7167  -18.2152 N   0  0  0  0  0  0  0  0  0  0  0  0
   -5.9012    6.8389  -17.3929 C   0  0  0  0  0  0  0  0  0  0  0  0
   -4.8224    7.4176  -16.4787 C   0  0  1  0  0  0  0  0  0  0  0  0
   -5.2728    7.8163  -15.0552 C   0  0  0  0  0  0  0  0  0  0  0  0
   -5.0723    8.9156  -14.7029 O   0  0  0  0  0  0  0  0  0  0  0  0
   -5.9057    6.6147  -14.2968 N   0  0  0  0  0  0  0  0  0  0  0  0
   -6.4765    6.5487  -13.0516 C   0  0  0  0  0  0  0  0  0  0  0  0
   -6.5869    7.6219  -12.1510 C   0  0  0  0  0  0  0  0  0  0  0  0
   -7.2063    7.1071  -11.0372 C   0  0  0  0  0  0  0  0  0  0  0  0
   -7.4187    5.7661  -11.2641 N   0  0  0  0  0  0  0  0  0  0  0  0
   -7.9885    4.7693  -10.4043 C   0  0  0  0  0  0  0  0  0  0  0  0
   -8.4619    3.6235  -11.0443 C   0  0  0  0  0  0  0  0  0  0  0  0
   -9.0739    2.6410  -10.2978 C   0  0  0  0  0  0  0  0  0  0  0  0
   -9.1673    2.6420   -8.9610 N   0  0  0  0  0  0  0  0  0  0  0  0
   -8.6725    3.7170   -8.3179 C   0  0  0  0  0  0  0  0  0  0  0  0
   -8.7739    3.6355   -6.8205 C   0  0  0  0  0  0  0  0  0  0  0  0
   -8.1248    4.8340   -8.9997 C   0  0  0  0  0  0  0  0  0  0  0  0
   -7.6345    6.1708   -8.0262 Cl  0  0  0  0  0  0  0  0  0  0  0  0
   -7.0164    5.4388  -12.5460 N   0  0  0  0  0  0  0  0  0  0  0  0
   -3.5371    6.5983  -16.5441 C   0  0  0  0  0  0  0  0  0  0  0  0
   -3.1513    6.5062  -18.0141 C   0  0  0  0  0  0  0  0  0  0  0  0
   -4.1837    5.7099  -18.7707 C   0  0  0  0  0  0  0  0  0  0  0  0
   -3.8788    5.0924  -19.7893 O   0  0  0  0  0  0  0  0  0  0  0  0
  1  2  1  0
  2  3  1  0
  3  4  1  0
  4  5  1  0
  5  6  1  0
  6  7  1  0
  7  8  1  1
  8  9  2  0
  8 10  1  0
 10 11  1  0
 11 12  1  0
 12 13  2  0
 13 14  1  0
 14 15  1  0
 15 16  2  0
 16 17  1  0
 17 18  2  0
 18 19  1  0
 19 20  1  0
 19 21  2  0
 21 22  1  0
 14 23  1  0
  7 24  1  0
 24 25  1  0
 25 26  1  0
 26 27  2  0
 26  5  1  0
 23 11  2  0
 21 15  1  0
M  END
>  <energy_score>  (1039) 
-12.259718

>  <alias>  (1039) 
None

>  <HIPPO Pose ID>  (1039) 
70528

>  <smiles>  (1039) 
COCCN1C[C@@H](C(=O)Nc2ccn(-c3ccnc(C)c3Cl)n2)CCC1=O

>  <inchikey>  (1039) 
BVAFIKGBBBXLGE-ZDUSSCGKSA-N

>  <distance_score>  (1039) 
1.999208

>  <ref_mols>  (1039) 
Z0788a,Z0969a

>  <ref_pdb>  (1039) 
Z0788a

>  <HIPPO Compound ID>  (1039) 
142593

>  <name>  (1039) 
P70528

>  <inspiration_score>  (1039) 
None

$$$$
P70529
     RDKit          3D

 28 31  0  0  0  0  0  0  0  0999 V2000
   -5.6142    5.0488  -19.4686 O   0  0  0  0  0  0  0  0  0  0  0  0
   -4.8835    5.8259  -18.8769 C   0  0  0  0  0  0  0  0  0  0  0  0
   -3.6271    5.4268  -18.1386 C   0  0  0  0  0  0  0  0  0  0  0  0
   -3.8317    5.5975  -16.6173 C   0  0  2  0  0  0  0  0  0  0  0  0
   -2.5375    6.0149  -15.9231 C   0  0  0  0  0  0  0  0  0  0  0  0
   -2.6371    5.3792  -14.5467 C   0  0  0  0  0  0  0  0  0  0  0  0
   -3.6705    4.3883  -14.6172 O   0  0  0  0  0  0  0  0  0  0  0  0
   -4.0533    4.2352  -15.9862 C   0  0  0  0  0  0  0  0  0  0  0  0
   -5.0240    6.5845  -16.3489 C   0  0  1  0  0  0  0  0  0  0  0  0
   -5.2689    7.2004  -14.9577 C   0  0  0  0  0  0  0  0  0  0  0  0
   -4.9651    8.2988  -14.6936 O   0  0  0  0  0  0  0  0  0  0  0  0
   -6.0419    6.1400  -14.1223 N   0  0  0  0  0  0  0  0  0  0  0  0
   -6.4861    6.1808  -12.8400 C   0  0  0  0  0  0  0  0  0  0  0  0
   -6.6318    7.2877  -11.9900 C   0  0  0  0  0  0  0  0  0  0  0  0
   -7.2145    6.7801  -10.8475 C   0  0  0  0  0  0  0  0  0  0  0  0
   -7.2972    5.4136  -11.0189 N   0  0  0  0  0  0  0  0  0  0  0  0
   -7.6124    4.4215  -10.0532 C   0  0  0  0  0  0  0  0  0  0  0  0
   -7.2946    3.0950  -10.3386 C   0  0  0  0  0  0  0  0  0  0  0  0
   -7.4442    2.1497   -9.3440 C   0  0  0  0  0  0  0  0  0  0  0  0
   -7.9768    2.4018   -8.1401 N   0  0  0  0  0  0  0  0  0  0  0  0
   -8.3096    3.6816   -7.8760 C   0  0  0  0  0  0  0  0  0  0  0  0
   -8.8446    3.9711   -6.5044 C   0  0  0  0  0  0  0  0  0  0  0  0
   -9.8852    4.8512   -6.5677 F   0  0  0  0  0  0  0  0  0  0  0  0
   -7.9284    4.5809   -5.6923 F   0  0  0  0  0  0  0  0  0  0  0  0
   -8.1255    4.7297   -8.7941 C   0  0  0  0  0  0  0  0  0  0  0  0
   -6.9213    5.0618  -12.2729 N   0  0  0  0  0  0  0  0  0  0  0  0
   -4.9388    7.7115  -17.4022 C   0  0  0  0  0  0  0  0  0  0  0  0
   -5.2407    7.1471  -18.7029 N   0  0  0  0  0  0  0  0  0  0  0  0
  1  2  2  0
  2  3  1  0
  4  3  1  6
  4  5  1  0
  5  6  1  0
  6  7  1  0
  7  8  1  0
  4  9  1  0
  9 10  1  1
 10 11  2  0
 10 12  1  0
 12 13  1  0
 13 14  1  0
 14 15  2  0
 15 16  1  0
 16 17  1  0
 17 18  2  0
 18 19  1  0
 19 20  2  0
 20 21  1  0
 21 22  1  0
 22 23  1  0
 22 24  1  0
 21 25  2  0
 16 26  1  0
  9 27  1  0
 27 28  1  0
 28  2  1  0
  8  4  1  0
 26 13  2  0
 25 17  1  0
M  END
>  <energy_score>  (1040) 
-50.946349

>  <alias>  (1040) 
None

>  <HIPPO Pose ID>  (1040) 
70529

>  <smiles>  (1040) 
O=C1C[C@@]2(CCOC2)[C@@H](C(=O)Nc2ccn(-c3ccnc(C(F)F)c3)n2)CN1

>  <inchikey>  (1040) 
IMAPMJIZVOIXNF-KZULUSFZSA-N

>  <distance_score>  (1040) 
1.930846

>  <ref_mols>  (1040) 
Z0969a,Z0788a

>  <ref_pdb>  (1040) 
Z0788a

>  <HIPPO Compound ID>  (1040) 
142594

>  <name>  (1040) 
P70529

>  <inspiration_score>  (1040) 
None

$$$$
P70532
     RDKit          3D

 28 30  0  0  0  0  0  0  0  0999 V2000
   -4.8017    8.7371  -19.2223 O   0  0  0  0  0  0  0  0  0  0  0  0
   -4.9705    7.6873  -18.6129 C   0  0  0  0  0  0  0  0  0  0  0  0
   -5.9919    6.6569  -19.0073 C   0  0  0  0  0  0  0  0  0  0  0  0
   -6.6260    6.0635  -17.7603 C   0  0  0  0  0  0  0  0  0  0  0  0
   -5.5812    5.3424  -16.9147 C   0  0  2  0  0  0  0  0  0  0  0  0
   -6.0904    4.9033  -15.5275 C   0  0  0  0  0  0  0  0  0  0  0  0
   -6.1680    3.7638  -15.2831 O   0  0  0  0  0  0  0  0  0  0  0  0
   -6.4375    6.1460  -14.6590 N   0  0  0  0  0  0  0  0  0  0  0  0
   -6.8382    6.2329  -13.3529 C   0  0  0  0  0  0  0  0  0  0  0  0
   -6.8564    7.3725  -12.5270 C   0  0  0  0  0  0  0  0  0  0  0  0
   -7.2804    6.9164  -11.2930 C   0  0  0  0  0  0  0  0  0  0  0  0
   -7.5623    5.5750  -11.4409 N   0  0  0  0  0  0  0  0  0  0  0  0
   -8.0828    4.6546  -10.4931 C   0  0  0  0  0  0  0  0  0  0  0  0
   -8.5787    3.4470  -10.9695 C   0  0  0  0  0  0  0  0  0  0  0  0
   -9.1569    2.5770  -10.0735 C   0  0  0  0  0  0  0  0  0  0  0  0
   -9.1929    2.7547   -8.7452 N   0  0  0  0  0  0  0  0  0  0  0  0
   -8.6658    3.9041   -8.2783 C   0  0  0  0  0  0  0  0  0  0  0  0
   -8.7035    4.1003   -6.7890 C   0  0  0  0  0  0  0  0  0  0  0  0
   -7.6492    4.8531   -6.3716 F   0  0  0  0  0  0  0  0  0  0  0  0
   -9.8090    4.7943   -6.3757 F   0  0  0  0  0  0  0  0  0  0  0  0
   -8.1426    4.9064   -9.1210 C   0  0  0  0  0  0  0  0  0  0  0  0
   -7.2783    5.1672  -12.6983 N   0  0  0  0  0  0  0  0  0  0  0  0
   -4.2405    6.0901  -16.8094 C   0  0  1  0  0  0  0  0  0  0  0  0
   -3.0987    5.1421  -17.2196 C   0  0  0  0  0  0  0  0  0  0  0  0
   -3.1153    4.0436  -16.4371 F   0  0  0  0  0  0  0  0  0  0  0  0
   -1.9044    5.7542  -17.0443 F   0  0  0  0  0  0  0  0  0  0  0  0
   -3.1819    4.7484  -18.5065 F   0  0  0  0  0  0  0  0  0  0  0  0
   -4.2424    7.3965  -17.4939 N   0  0  0  0  0  0  0  0  0  0  0  0
  1  2  2  0
  2  3  1  0
  3  4  1  0
  4  5  1  0
  5  6  1  1
  6  7  2  0
  6  8  1  0
  8  9  1  0
  9 10  1  0
 10 11  2  0
 11 12  1  0
 12 13  1  0
 13 14  2  0
 14 15  1  0
 15 16  2  0
 16 17  1  0
 17 18  1  0
 18 19  1  0
 18 20  1  0
 17 21  2  0
 12 22  1  0
  5 23  1  0
 23 24  1  6
 24 25  1  0
 24 26  1  0
 24 27  1  0
 23 28  1  0
 28  2  1  0
 22  9  2  0
 21 13  1  0
M  END
>  <energy_score>  (1041) 
-41.891562

>  <alias>  (1041) 
None

>  <HIPPO Pose ID>  (1041) 
70532

>  <smiles>  (1041) 
O=C1CC[C@H](C(=O)Nc2ccn(-c3ccnc(C(F)F)c3)n2)[C@@H](C(F)(F)F)N1

>  <inchikey>  (1041) 
WJRMYJIWZMXIRT-ZANVPECISA-N

>  <distance_score>  (1041) 
1.355008

>  <ref_mols>  (1041) 
Z0788a,Z0969a

>  <ref_pdb>  (1041) 
Z0788a

>  <HIPPO Compound ID>  (1041) 
142595

>  <name>  (1041) 
P70532

>  <inspiration_score>  (1041) 
None

$$$$
P70535
     RDKit          3D

 28 30  0  0  0  0  0  0  0  0999 V2000
   -3.6383    7.0276  -14.4452 O   0  0  0  0  0  0  0  0  0  0  0  0
   -4.7676    6.8966  -14.7144 C   0  0  0  0  0  0  0  0  0  0  0  0
   -5.9841    6.5525  -13.8115 N   0  0  0  0  0  0  0  0  0  0  0  0
   -6.0401    6.2286  -12.5012 C   0  0  0  0  0  0  0  0  0  0  0  0
   -5.0915    6.4440  -11.4936 C   0  0  0  0  0  0  0  0  0  0  0  0
   -5.6776    5.9335  -10.3564 C   0  0  0  0  0  0  0  0  0  0  0  0
   -6.8549    5.3365  -10.7571 N   0  0  0  0  0  0  0  0  0  0  0  0
   -7.6687    4.4507  -10.0182 C   0  0  0  0  0  0  0  0  0  0  0  0
   -8.4958    3.5736  -10.7076 C   0  0  0  0  0  0  0  0  0  0  0  0
   -9.1831    2.6268   -9.9814 C   0  0  0  0  0  0  0  0  0  0  0  0
   -9.1477    2.5209   -8.6414 N   0  0  0  0  0  0  0  0  0  0  0  0
   -8.3700    3.4056   -7.9774 C   0  0  0  0  0  0  0  0  0  0  0  0
   -8.4968    3.4523   -6.4807 C   0  0  0  0  0  0  0  0  0  0  0  0
   -7.3547    3.8573   -5.8457 F   0  0  0  0  0  0  0  0  0  0  0  0
   -9.4313    4.3901   -6.1435 F   0  0  0  0  0  0  0  0  0  0  0  0
   -7.6082    4.3818   -8.6292 C   0  0  0  0  0  0  0  0  0  0  0  0
   -7.1311    5.6204  -12.0520 N   0  0  0  0  0  0  0  0  0  0  0  0
   -5.3154    7.1698  -16.1355 C   0  0  2  0  0  0  0  0  0  0  0  0
   -6.3195    6.1231  -16.6321 C   0  0  0  0  0  0  0  0  0  0  0  0
   -6.3711    6.0582  -18.0667 N   0  0  0  0  0  0  0  0  0  0  0  0
   -5.2216    5.7574  -18.7436 C   0  0  0  0  0  0  0  0  0  0  0  0
   -5.2856    5.1239  -19.7868 O   0  0  0  0  0  0  0  0  0  0  0  0
   -3.9352    6.2556  -18.1423 C   0  0  2  0  0  0  0  0  0  0  0  0
   -3.1896    5.1010  -17.5225 C   0  0  0  0  0  0  0  0  0  0  0  0
   -3.8780    4.5193  -16.5177 F   0  0  0  0  0  0  0  0  0  0  0  0
   -2.0196    5.5424  -16.9983 F   0  0  0  0  0  0  0  0  0  0  0  0
   -2.8800    4.1479  -18.4249 F   0  0  0  0  0  0  0  0  0  0  0  0
   -4.2010    7.4263  -17.1827 C   0  0  0  0  0  0  0  0  0  0  0  0
  1  2  2  0
  2  3  1  0
  3  4  1  0
  4  5  1  0
  5  6  2  0
  6  7  1  0
  7  8  1  0
  8  9  2  0
  9 10  1  0
 10 11  2  0
 11 12  1  0
 12 13  1  0
 13 14  1  0
 13 15  1  0
 12 16  2  0
  7 17  1  0
 18  2  1  1
 18 19  1  0
 19 20  1  0
 20 21  1  0
 21 22  2  0
 21 23  1  0
 23 24  1  1
 24 25  1  0
 24 26  1  0
 24 27  1  0
 23 28  1  0
 17  4  2  0
 28 18  1  0
 16  8  1  0
M  END
>  <energy_score>  (1042) 
-33.534555

>  <alias>  (1042) 
None

>  <HIPPO Pose ID>  (1042) 
70535

>  <smiles>  (1042) 
O=C(Nc1ccn(-c2ccnc(C(F)F)c2)n1)[C@@H]1CNC(=O)[C@H](C(F)(F)F)C1

>  <inchikey>  (1042) 
OWKNWNLWFVNMCW-WCBMZHEXSA-N

>  <distance_score>  (1042) 
1.366599

>  <ref_mols>  (1042) 
Z0788a,Z0969a

>  <ref_pdb>  (1042) 
Z0788a

>  <HIPPO Compound ID>  (1042) 
142597

>  <name>  (1042) 
P70535

>  <inspiration_score>  (1042) 
None

$$$$
P70538
     RDKit          3D

 28 30  0  0  0  0  0  0  0  0999 V2000
   -9.0845    4.2503  -16.6866 C   0  0  0  0  0  0  0  0  0  0  0  0
   -7.7854    4.6300  -17.1313 O   0  0  0  0  0  0  0  0  0  0  0  0
   -7.7911    4.8853  -18.5495 C   0  0  0  0  0  0  0  0  0  0  0  0
   -6.3693    5.0126  -19.1024 C   0  0  0  0  0  0  0  0  0  0  0  0
   -5.5661    6.1557  -18.6311 N   0  0  0  0  0  0  0  0  0  0  0  0
   -5.5310    6.4267  -17.2042 C   0  0  0  0  0  0  0  0  0  0  0  0
   -4.6655    5.3653  -16.5333 C   0  0  2  0  0  0  0  0  0  0  0  0
   -4.7353    5.4091  -14.9978 C   0  0  0  0  0  0  0  0  0  0  0  0
   -3.7817    5.4391  -14.3195 O   0  0  0  0  0  0  0  0  0  0  0  0
   -6.2489    5.3459  -14.6140 N   0  0  0  0  0  0  0  0  0  0  0  0
   -6.8543    5.3996  -13.3962 C   0  0  0  0  0  0  0  0  0  0  0  0
   -8.0607    6.0791  -13.1279 C   0  0  0  0  0  0  0  0  0  0  0  0
   -8.2784    5.8915  -11.7817 C   0  0  0  0  0  0  0  0  0  0  0  0
   -7.3914    4.9139  -11.3966 N   0  0  0  0  0  0  0  0  0  0  0  0
   -7.4894    4.0430  -10.2830 C   0  0  0  0  0  0  0  0  0  0  0  0
   -6.7814    2.8470  -10.3331 C   0  0  0  0  0  0  0  0  0  0  0  0
   -6.9729    1.9232   -9.3289 C   0  0  0  0  0  0  0  0  0  0  0  0
   -7.7699    2.1218   -8.2672 N   0  0  0  0  0  0  0  0  0  0  0  0
   -8.4089    3.3078   -8.1858 C   0  0  0  0  0  0  0  0  0  0  0  0
   -9.1604    3.5696   -6.9105 C   0  0  0  0  0  0  0  0  0  0  0  0
  -10.3860    2.9791   -6.8559 F   0  0  0  0  0  0  0  0  0  0  0  0
   -9.3992    4.9052   -6.7403 F   0  0  0  0  0  0  0  0  0  0  0  0
   -8.3190    4.2895   -9.1884 C   0  0  0  0  0  0  0  0  0  0  0  0
   -6.3941    4.7865  -12.3117 N   0  0  0  0  0  0  0  0  0  0  0  0
   -3.2401    5.4796  -17.1489 C   0  0  0  0  0  0  0  0  0  0  0  0
   -3.1638    6.4773  -18.3323 C   0  0  0  0  0  0  0  0  0  0  0  0
   -4.3297    6.2617  -19.2820 C   0  0  0  0  0  0  0  0  0  0  0  0
   -4.1671    6.1221  -20.4902 O   0  0  0  0  0  0  0  0  0  0  0  0
  1  2  1  0
  2  3  1  0
  3  4  1  0
  4  5  1  0
  5  6  1  0
  6  7  1  0
  7  8  1  1
  8  9  2  0
  8 10  1  0
 10 11  1  0
 11 12  1  0
 12 13  2  0
 13 14  1  0
 14 15  1  0
 15 16  2  0
 16 17  1  0
 17 18  2  0
 18 19  1  0
 19 20  1  0
 20 21  1  0
 20 22  1  0
 19 23  2  0
 14 24  1  0
  7 25  1  0
 25 26  1  0
 26 27  1  0
 27 28  2  0
 27  5  1  0
 24 11  2  0
 23 15  1  0
M  END
>  <energy_score>  (1043) 
-7.735256

>  <alias>  (1043) 
None

>  <HIPPO Pose ID>  (1043) 
70538

>  <smiles>  (1043) 
COCCN1C[C@H](C(=O)Nc2ccn(-c3ccnc(C(F)F)c3)n2)CCC1=O

>  <inchikey>  (1043) 
CPJVWVTYRIHQFY-GFCCVEGCSA-N

>  <distance_score>  (1043) 
1.441974

>  <ref_mols>  (1043) 
Z0788a,Z0969a

>  <ref_pdb>  (1043) 
Z0788a

>  <HIPPO Compound ID>  (1043) 
142598

>  <name>  (1043) 
P70538

>  <inspiration_score>  (1043) 
None

$$$$
P70541
     RDKit          3D

 28 30  0  0  0  0  0  0  0  0999 V2000
   -6.2631    8.8134  -19.0407 O   0  0  0  0  0  0  0  0  0  0  0  0
   -5.3972    8.2613  -18.3691 C   0  0  0  0  0  0  0  0  0  0  0  0
   -5.0611    6.7918  -18.4494 C   0  0  0  0  0  0  0  0  0  0  0  0
   -4.7670    6.1250  -17.0898 C   0  0  1  0  0  0  0  0  0  0  0  0
   -3.6296    5.1169  -17.2550 C   0  0  0  0  0  0  0  0  0  0  0  0
   -3.5790    4.3218  -16.1605 F   0  0  0  0  0  0  0  0  0  0  0  0
   -2.4344    5.7436  -17.3492 F   0  0  0  0  0  0  0  0  0  0  0  0
   -3.7644    4.3281  -18.3359 F   0  0  0  0  0  0  0  0  0  0  0  0
   -4.3612    7.1029  -15.9498 C   0  0  2  0  0  0  0  0  0  0  0  0
   -5.5017    7.4935  -14.9780 C   0  0  0  0  0  0  0  0  0  0  0  0
   -5.9314    8.5797  -14.9423 O   0  0  0  0  0  0  0  0  0  0  0  0
   -5.8341    6.2508  -14.1074 N   0  0  0  0  0  0  0  0  0  0  0  0
   -6.6443    6.1241  -13.0204 C   0  0  0  0  0  0  0  0  0  0  0  0
   -7.4209    7.1308  -12.4203 C   0  0  0  0  0  0  0  0  0  0  0  0
   -7.9733    6.5407  -11.3072 C   0  0  0  0  0  0  0  0  0  0  0  0
   -7.5145    5.2426  -11.2752 N   0  0  0  0  0  0  0  0  0  0  0  0
   -7.6842    4.2767  -10.2461 C   0  0  0  0  0  0  0  0  0  0  0  0
   -7.1864    2.9929  -10.4482 C   0  0  0  0  0  0  0  0  0  0  0  0
   -7.2765    2.0756   -9.4207 C   0  0  0  0  0  0  0  0  0  0  0  0
   -7.8550    2.3252   -8.2378 N   0  0  0  0  0  0  0  0  0  0  0  0
   -8.3267    3.5726   -8.0345 C   0  0  0  0  0  0  0  0  0  0  0  0
   -8.8446    3.8793   -6.6568 C   0  0  0  0  0  0  0  0  0  0  0  0
   -9.8214    4.8302   -6.6975 F   0  0  0  0  0  0  0  0  0  0  0  0
   -7.8882    4.4079   -5.8351 F   0  0  0  0  0  0  0  0  0  0  0  0
   -8.2617    4.5816   -9.0116 C   0  0  0  0  0  0  0  0  0  0  0  0
   -6.7401    4.9698  -12.3677 N   0  0  0  0  0  0  0  0  0  0  0  0
   -3.7342    8.3662  -16.5516 C   0  0  0  0  0  0  0  0  0  0  0  0
   -4.6123    8.9832  -17.5163 N   0  0  0  0  0  0  0  0  0  0  0  0
  1  2  2  0
  2  3  1  0
  3  4  1  0
  4  5  1  6
  5  6  1  0
  5  7  1  0
  5  8  1  0
  4  9  1  0
  9 10  1  6
 10 11  2  0
 10 12  1  0
 12 13  1  0
 13 14  1  0
 14 15  2  0
 15 16  1  0
 16 17  1  0
 17 18  2  0
 18 19  1  0
 19 20  2  0
 20 21  1  0
 21 22  1  0
 22 23  1  0
 22 24  1  0
 21 25  2  0
 16 26  1  0
  9 27  1  0
 27 28  1  0
 28  2  1  0
 26 13  2  0
 25 17  1  0
M  END
>  <energy_score>  (1044) 
-71.23117

>  <alias>  (1044) 
None

>  <HIPPO Pose ID>  (1044) 
70541

>  <smiles>  (1044) 
O=C1C[C@@H](C(F)(F)F)[C@H](C(=O)Nc2ccn(-c3ccnc(C(F)F)c3)n2)CN1

>  <inchikey>  (1044) 
BTRSTASIMLBSCE-NXEZZACHSA-N

>  <distance_score>  (1044) 
1.670393

>  <ref_mols>  (1044) 
Z0788a,Z0969a

>  <ref_pdb>  (1044) 
Z0788a

>  <HIPPO Compound ID>  (1044) 
142599

>  <name>  (1044) 
P70541

>  <inspiration_score>  (1044) 
None

$$$$
P70542
     RDKit          3D

 28 30  0  0  0  0  0  0  0  0999 V2000
   -5.7477    8.5159  -14.6260 O   0  0  0  0  0  0  0  0  0  0  0  0
   -5.6351    7.3681  -14.8142 C   0  0  0  0  0  0  0  0  0  0  0  0
   -6.1022    6.1627  -13.9655 N   0  0  0  0  0  0  0  0  0  0  0  0
   -6.8405    6.1190  -12.8292 C   0  0  0  0  0  0  0  0  0  0  0  0
   -7.4502    7.1811  -12.1446 C   0  0  0  0  0  0  0  0  0  0  0  0
   -8.0021    6.6043  -11.0230 C   0  0  0  0  0  0  0  0  0  0  0  0
   -7.6696    5.2669  -11.0589 N   0  0  0  0  0  0  0  0  0  0  0  0
   -7.8305    4.2898  -10.0430 C   0  0  0  0  0  0  0  0  0  0  0  0
   -7.3763    2.9947  -10.2782 C   0  0  0  0  0  0  0  0  0  0  0  0
   -7.4441    2.0713   -9.2540 C   0  0  0  0  0  0  0  0  0  0  0  0
   -7.9825    2.3192   -8.0526 N   0  0  0  0  0  0  0  0  0  0  0  0
   -8.4219    3.5736   -7.8267 C   0  0  0  0  0  0  0  0  0  0  0  0
   -8.9390    3.8763   -6.4502 C   0  0  0  0  0  0  0  0  0  0  0  0
   -7.9963    4.4466   -5.6408 F   0  0  0  0  0  0  0  0  0  0  0  0
   -9.9454    4.7965   -6.5044 F   0  0  0  0  0  0  0  0  0  0  0  0
   -8.3513    4.5953   -8.7876 C   0  0  0  0  0  0  0  0  0  0  0  0
   -7.0233    4.9569  -12.2149 N   0  0  0  0  0  0  0  0  0  0  0  0
   -4.9457    6.8751  -16.0993 C   0  0  1  0  0  0  0  0  0  0  0  0
   -4.0989    5.5937  -16.0740 C   0  0  0  0  0  0  0  0  0  0  0  0
   -3.3996    5.4017  -17.4271 C   0  0  0  0  0  0  0  0  0  0  0  0
   -4.1350    6.1404  -18.5383 C   0  0  0  0  0  0  0  0  0  0  0  0
   -3.5428    6.8219  -19.3682 O   0  0  0  0  0  0  0  0  0  0  0  0
   -5.5103    6.1544  -18.4297 N   0  0  0  0  0  0  0  0  0  0  0  0
   -6.1527    4.9017  -18.6888 C   0  0  0  0  0  0  0  0  0  0  0  0
   -7.4959    5.0225  -18.6310 F   0  0  0  0  0  0  0  0  0  0  0  0
   -5.7997    4.0092  -17.7446 F   0  0  0  0  0  0  0  0  0  0  0  0
   -5.8132    4.4039  -19.8953 F   0  0  0  0  0  0  0  0  0  0  0  0
   -5.9699    6.8456  -17.2483 C   0  0  0  0  0  0  0  0  0  0  0  0
  1  2  2  0
  2  3  1  0
  3  4  1  0
  4  5  1  0
  5  6  2  0
  6  7  1  0
  7  8  1  0
  8  9  2  0
  9 10  1  0
 10 11  2  0
 11 12  1  0
 12 13  1  0
 13 14  1  0
 13 15  1  0
 12 16  2  0
  7 17  1  0
 18  2  1  1
 18 19  1  0
 19 20  1  0
 20 21  1  0
 21 22  2  0
 21 23  1  0
 23 24  1  0
 24 25  1  0
 24 26  1  0
 24 27  1  0
 23 28  1  0
 17  4  2  0
 28 18  1  0
 16  8  1  0
M  END
>  <energy_score>  (1045) 
-2.309373

>  <alias>  (1045) 
None

>  <HIPPO Pose ID>  (1045) 
70542

>  <smiles>  (1045) 
O=C(Nc1ccn(-c2ccnc(C(F)F)c2)n1)[C@H]1CCC(=O)N(C(F)(F)F)C1

>  <inchikey>  (1045) 
NAHRFSYVQFAZLF-VIFPVBQESA-N

>  <distance_score>  (1045) 
1.456783

>  <ref_mols>  (1045) 
Z0788a,Z0969a

>  <ref_pdb>  (1045) 
Z0788a

>  <HIPPO Compound ID>  (1045) 
142600

>  <name>  (1045) 
P70542

>  <inspiration_score>  (1045) 
None

$$$$
P70543
     RDKit          3D

 28 31  0  0  0  0  0  0  0  0999 V2000
   -8.5467    4.0161   -6.7915 C   0  0  0  0  0  0  0  0  0  0  0  0
   -8.4889    3.9097   -8.2834 C   0  0  0  0  0  0  0  0  0  0  0  0
   -7.8408    4.8810   -9.0625 C   0  0  0  0  0  0  0  0  0  0  0  0
   -7.7405    4.6762  -10.4477 C   0  0  0  0  0  0  0  0  0  0  0  0
   -7.0455    5.5738  -11.3074 N   0  0  0  0  0  0  0  0  0  0  0  0
   -6.6875    6.8781  -11.0402 C   0  0  0  0  0  0  0  0  0  0  0  0
   -6.0216    7.3450  -12.1498 C   0  0  0  0  0  0  0  0  0  0  0  0
   -5.9540    6.2493  -13.0372 C   0  0  0  0  0  0  0  0  0  0  0  0
   -5.2673    6.2737  -14.2272 N   0  0  0  0  0  0  0  0  0  0  0  0
   -4.9355    5.1209  -15.2318 C   0  0  0  0  0  0  0  0  0  0  0  0
   -5.2646    3.9963  -15.2319 O   0  0  0  0  0  0  0  0  0  0  0  0
   -3.9232    5.6807  -16.3074 C   0  0  1  0  0  0  0  0  0  0  0  0
   -4.5714    6.7740  -17.1760 C   0  0  0  0  0  0  0  0  0  0  0  0
   -5.6206    6.4308  -18.0454 C   0  0  0  0  0  0  0  0  0  0  0  0
   -6.0954    7.3391  -18.9890 C   0  0  0  0  0  0  0  0  0  0  0  0
   -5.5790    8.6266  -19.0547 C   0  0  0  0  0  0  0  0  0  0  0  0
   -4.6024    9.0125  -18.1499 C   0  0  0  0  0  0  0  0  0  0  0  0
   -4.1072    8.0981  -17.2161 C   0  0  0  0  0  0  0  0  0  0  0  0
   -2.6080    6.0761  -15.5799 C   0  0  0  0  0  0  0  0  0  0  0  0
   -1.4085    6.3659  -16.4841 C   0  0  0  0  0  0  0  0  0  0  0  0
   -1.3630    5.6464  -17.8113 C   0  0  0  0  0  0  0  0  0  0  0  0
   -0.4078    5.7793  -18.5715 O   0  0  0  0  0  0  0  0  0  0  0  0
   -2.4271    4.8703  -18.1498 N   0  0  0  0  0  0  0  0  0  0  0  0
   -3.4918    4.5032  -17.2353 C   0  0  0  0  0  0  0  0  0  0  0  0
   -6.6102    5.1984  -12.5460 N   0  0  0  0  0  0  0  0  0  0  0  0
   -8.3297    3.5470  -10.9994 C   0  0  0  0  0  0  0  0  0  0  0  0
   -9.0181    2.6982  -10.1569 C   0  0  0  0  0  0  0  0  0  0  0  0
   -9.0970    2.8385   -8.8205 N   0  0  0  0  0  0  0  0  0  0  0  0
  1  2  1  0
  2  3  2  0
  3  4  1  0
  4  5  1  0
  5  6  1  0
  6  7  2  0
  7  8  1  0
  8  9  1  0
  9 10  1  0
 10 11  2  0
 12 10  1  1
 12 13  1  0
 13 14  2  0
 14 15  1  0
 15 16  2  0
 16 17  1  0
 17 18  2  0
 12 19  1  0
 19 20  1  0
 20 21  1  0
 21 22  2  0
 21 23  1  0
 23 24  1  0
  8 25  2  0
  4 26  2  0
 26 27  1  0
 27 28  2  0
 28  2  1  0
 25  5  1  0
 24 12  1  0
 18 13  1  0
M  END
>  <energy_score>  (1046) 
-47.699563

>  <alias>  (1046) 
None

>  <HIPPO Pose ID>  (1046) 
70543

>  <smiles>  (1046) 
Cc1cc(-n2ccc(NC(=O)[C@@]3(c4ccccc4)CCC(=O)NC3)n2)ccn1

>  <inchikey>  (1046) 
LGPIYPICCNOTBL-NRFANRHFSA-N

>  <distance_score>  (1046) 
1.570529

>  <ref_mols>  (1046) 
Z0788a,Z0969a

>  <ref_pdb>  (1046) 
Z0788a

>  <HIPPO Compound ID>  (1046) 
142601

>  <name>  (1046) 
P70543

>  <inspiration_score>  (1046) 
None

$$$$
P70545
     RDKit          3D

 28 31  0  0  0  0  0  0  0  0999 V2000
   -9.2473    4.4394   -5.9944 C   0  0  0  0  0  0  0  0  0  0  0  0
   -8.8526    3.8775   -7.3175 C   0  0  0  0  0  0  0  0  0  0  0  0
   -8.5608    4.7210   -8.3966 C   0  0  0  0  0  0  0  0  0  0  0  0
   -8.1766    4.1239   -9.5904 C   0  0  0  0  0  0  0  0  0  0  0  0
   -7.8636    4.8571  -10.7573 N   0  0  0  0  0  0  0  0  0  0  0  0
   -7.9715    6.2072  -11.0154 C   0  0  0  0  0  0  0  0  0  0  0  0
   -7.4556    6.4103  -12.2810 C   0  0  0  0  0  0  0  0  0  0  0  0
   -7.0488    5.1376  -12.6994 C   0  0  0  0  0  0  0  0  0  0  0  0
   -6.4053    4.7216  -13.8085 N   0  0  0  0  0  0  0  0  0  0  0  0
   -6.0341    5.4870  -15.1025 C   0  0  0  0  0  0  0  0  0  0  0  0
   -6.1595    6.6135  -15.3764 O   0  0  0  0  0  0  0  0  0  0  0  0
   -5.3304    4.4351  -15.9776 C   0  0  2  0  0  0  0  0  0  0  0  0
   -3.9649    4.0371  -15.4233 C   0  0  0  0  0  0  0  0  0  0  0  0
   -2.9720    5.1767  -15.5531 C   0  0  0  0  0  0  0  0  0  0  0  0
   -2.9599    5.8880  -16.8976 C   0  0  0  0  0  0  0  0  0  0  0  0
   -1.9267    6.4570  -17.2552 O   0  0  0  0  0  0  0  0  0  0  0  0
   -4.1893    5.9599  -17.5548 N   0  0  0  0  0  0  0  0  0  0  0  0
   -4.5424    7.0948  -18.2970 C   0  0  0  0  0  0  0  0  0  0  0  0
   -5.7495    7.3623  -18.9996 C   0  0  0  0  0  0  0  0  0  0  0  0
   -5.8083    8.6090  -19.4843 N   0  0  0  0  0  0  0  0  0  0  0  0
   -4.6063    9.1147  -19.1555 N   0  0  0  0  0  0  0  0  0  0  0  0
   -4.2677   10.4595  -19.5517 C   0  0  0  0  0  0  0  0  0  0  0  0
   -3.8258    8.2594  -18.4408 C   0  0  0  0  0  0  0  0  0  0  0  0
   -5.1358    4.8668  -17.4169 C   0  0  0  0  0  0  0  0  0  0  0  0
   -7.3286    4.2052  -11.8078 N   0  0  0  0  0  0  0  0  0  0  0  0
   -8.0562    2.7345   -9.6412 C   0  0  0  0  0  0  0  0  0  0  0  0
   -8.3538    1.9929   -8.5204 C   0  0  0  0  0  0  0  0  0  0  0  0
   -8.7725    2.5344   -7.3714 N   0  0  0  0  0  0  0  0  0  0  0  0
  1  2  1  0
  2  3  2  0
  3  4  1  0
  4  5  1  0
  5  6  1  0
  6  7  2  0
  7  8  1  0
  8  9  1  0
  9 10  1  0
 10 11  2  0
 12 10  1  1
 12 13  1  0
 13 14  1  0
 14 15  1  0
 15 16  2  0
 15 17  1  0
 17 18  1  0
 18 19  1  0
 19 20  2  0
 20 21  1  0
 21 22  1  0
 21 23  1  0
 17 24  1  0
  8 25  2  0
  4 26  2  0
 26 27  1  0
 27 28  2  0
 28  2  1  0
 25  5  1  0
 24 12  1  0
 23 18  2  0
M  END
>  <energy_score>  (1047) 
-41.77321

>  <alias>  (1047) 
None

>  <HIPPO Pose ID>  (1047) 
70545

>  <smiles>  (1047) 
Cc1cc(-n2ccc(NC(=O)[C@@H]3CCC(=O)N(c4cnn(C)c4)C3)n2)ccn1

>  <inchikey>  (1047) 
VJOFEAFCVBGRHH-CQSZACIVSA-N

>  <distance_score>  (1047) 
1.980461

>  <ref_mols>  (1047) 
Z0788a,Z0969a

>  <ref_pdb>  (1047) 
Z0788a

>  <HIPPO Compound ID>  (1047) 
142603

>  <name>  (1047) 
P70545

>  <inspiration_score>  (1047) 
None

$$$$
P70546
     RDKit          3D

 29 32  0  0  0  0  0  0  0  0999 V2000
   -9.2285    4.1759   -5.9113 C   0  0  0  0  0  0  0  0  0  0  0  0
   -8.8030    3.7353   -7.2749 C   0  0  0  0  0  0  0  0  0  0  0  0
   -8.7304    2.3950   -7.4073 N   0  0  0  0  0  0  0  0  0  0  0  0
   -8.2723    1.9258   -8.5678 C   0  0  0  0  0  0  0  0  0  0  0  0
   -7.9721    2.7301   -9.6455 C   0  0  0  0  0  0  0  0  0  0  0  0
   -8.1029    4.1224   -9.5403 C   0  0  0  0  0  0  0  0  0  0  0  0
   -7.8318    4.8634  -10.7222 N   0  0  0  0  0  0  0  0  0  0  0  0
   -8.1728    6.1450  -11.1015 C   0  0  0  0  0  0  0  0  0  0  0  0
   -7.7207    6.3225  -12.3937 C   0  0  0  0  0  0  0  0  0  0  0  0
   -7.0909    5.1165  -12.7102 C   0  0  0  0  0  0  0  0  0  0  0  0
   -6.4319    4.7251  -13.8205 N   0  0  0  0  0  0  0  0  0  0  0  0
   -6.1989    5.4620  -15.1669 C   0  0  0  0  0  0  0  0  0  0  0  0
   -6.6064    6.4868  -15.5482 O   0  0  0  0  0  0  0  0  0  0  0  0
   -5.1919    4.5760  -15.9171 C   0  0  2  0  0  0  0  0  0  0  0  0
   -3.8377    4.6016  -15.1877 C   0  0  0  0  0  0  0  0  0  0  0  0
   -2.6847    4.8637  -16.1378 C   0  0  0  0  0  0  0  0  0  0  0  0
   -2.9302    6.1002  -16.9610 C   0  0  0  0  0  0  0  0  0  0  0  0
   -2.0464    6.9490  -17.0553 O   0  0  0  0  0  0  0  0  0  0  0  0
   -4.1936    6.1175  -17.5644 N   0  0  0  0  0  0  0  0  0  0  0  0
   -4.6615    7.2504  -18.2365 C   0  0  0  0  0  0  0  0  0  0  0  0
   -5.9207    7.4623  -18.8563 C   0  0  0  0  0  0  0  0  0  0  0  0
   -6.0669    8.7050  -19.3359 N   0  0  0  0  0  0  0  0  0  0  0  0
   -4.8753    9.2688  -19.0758 N   0  0  0  0  0  0  0  0  0  0  0  0
   -4.6284   10.6313  -19.4788 C   0  0  0  0  0  0  0  0  0  0  0  0
   -4.0114    8.4479  -18.4216 C   0  0  0  0  0  0  0  0  0  0  0  0
   -5.0464    4.9468  -17.3917 C   0  0  0  0  0  0  0  0  0  0  0  0
   -7.1438    4.2487  -11.7146 N   0  0  0  0  0  0  0  0  0  0  0  0
   -8.4694    4.6474   -8.3012 C   0  0  0  0  0  0  0  0  0  0  0  0
   -8.3807    6.3242   -7.9072 Cl  0  0  0  0  0  0  0  0  0  0  0  0
  1  2  1  0
  2  3  2  0
  3  4  1  0
  4  5  2  0
  5  6  1  0
  6  7  1  0
  7  8  1  0
  8  9  2  0
  9 10  1  0
 10 11  1  0
 11 12  1  0
 12 13  2  0
 14 12  1  1
 14 15  1  0
 15 16  1  0
 16 17  1  0
 17 18  2  0
 17 19  1  0
 19 20  1  0
 20 21  1  0
 21 22  2  0
 22 23  1  0
 23 24  1  0
 23 25  1  0
 19 26  1  0
 10 27  2  0
  6 28  2  0
 28 29  1  0
 28  2  1  0
 27  7  1  0
 26 14  1  0
 25 20  2  0
M  END
>  <energy_score>  (1048) 
-72.90483

>  <alias>  (1048) 
None

>  <HIPPO Pose ID>  (1048) 
70546

>  <smiles>  (1048) 
Cc1nccc(-n2ccc(NC(=O)[C@@H]3CCC(=O)N(c4cnn(C)c4)C3)n2)c1Cl

>  <inchikey>  (1048) 
FXIAHIURXISJIJ-CYBMUJFWSA-N

>  <distance_score>  (1048) 
1.680518

>  <ref_mols>  (1048) 
Z0788a,Z0969a

>  <ref_pdb>  (1048) 
Z0788a

>  <HIPPO Compound ID>  (1048) 
142604

>  <name>  (1048) 
P70546

>  <inspiration_score>  (1048) 
None

$$$$
P70547
     RDKit          3D

 29 32  0  0  0  0  0  0  0  0999 V2000
   -8.8776    3.9081   -6.6890 C   0  0  0  0  0  0  0  0  0  0  0  0
   -8.3486    3.7129   -8.0801 C   0  0  0  0  0  0  0  0  0  0  0  0
   -7.9888    2.4415   -8.3393 N   0  0  0  0  0  0  0  0  0  0  0  0
   -7.3925    2.2040   -9.5135 C   0  0  0  0  0  0  0  0  0  0  0  0
   -7.2309    3.1515  -10.5049 C   0  0  0  0  0  0  0  0  0  0  0  0
   -7.6111    4.4784  -10.2691 C   0  0  0  0  0  0  0  0  0  0  0  0
   -7.3611    5.4044  -11.3404 N   0  0  0  0  0  0  0  0  0  0  0  0
   -7.7473    6.7197  -11.4971 C   0  0  0  0  0  0  0  0  0  0  0  0
   -7.1164    7.2043  -12.6218 C   0  0  0  0  0  0  0  0  0  0  0  0
   -6.4266    6.1066  -13.1688 C   0  0  0  0  0  0  0  0  0  0  0  0
   -5.6452    6.1577  -14.3001 N   0  0  0  0  0  0  0  0  0  0  0  0
   -4.8772    5.0232  -15.0555 C   0  0  0  0  0  0  0  0  0  0  0  0
   -4.8591    3.8653  -14.8710 O   0  0  0  0  0  0  0  0  0  0  0  0
   -3.9419    5.6726  -16.1476 C   0  0  1  0  0  0  0  0  0  0  0  0
   -4.6444    6.7048  -17.0472 C   0  0  0  0  0  0  0  0  0  0  0  0
   -5.6827    6.2879  -17.8949 C   0  0  0  0  0  0  0  0  0  0  0  0
   -6.1796    7.1362  -18.8821 C   0  0  0  0  0  0  0  0  0  0  0  0
   -5.6867    8.4279  -19.0227 C   0  0  0  0  0  0  0  0  0  0  0  0
   -4.7258    8.8892  -18.1387 C   0  0  0  0  0  0  0  0  0  0  0  0
   -4.2168    8.0392  -17.1549 C   0  0  0  0  0  0  0  0  0  0  0  0
   -2.6884    6.1833  -15.3843 C   0  0  0  0  0  0  0  0  0  0  0  0
   -1.4618    6.5163  -16.2377 C   0  0  0  0  0  0  0  0  0  0  0  0
   -1.3266    5.7981  -17.5607 C   0  0  0  0  0  0  0  0  0  0  0  0
   -0.3430    5.9617  -18.2781 O   0  0  0  0  0  0  0  0  0  0  0  0
   -2.3459    4.9862  -17.9514 N   0  0  0  0  0  0  0  0  0  0  0  0
   -3.3982    4.5351  -17.0620 C   0  0  0  0  0  0  0  0  0  0  0  0
   -6.6153    5.0175  -12.4277 N   0  0  0  0  0  0  0  0  0  0  0  0
   -8.1340    4.7776   -8.9938 C   0  0  0  0  0  0  0  0  0  0  0  0
   -8.3558    6.3803   -8.3885 Cl  0  0  0  0  0  0  0  0  0  0  0  0
  1  2  1  0
  2  3  2  0
  3  4  1  0
  4  5  2  0
  5  6  1  0
  6  7  1  0
  7  8  1  0
  8  9  2  0
  9 10  1  0
 10 11  1  0
 11 12  1  0
 12 13  2  0
 14 12  1  1
 14 15  1  0
 15 16  2  0
 16 17  1  0
 17 18  2  0
 18 19  1  0
 19 20  2  0
 14 21  1  0
 21 22  1  0
 22 23  1  0
 23 24  2  0
 23 25  1  0
 25 26  1  0
 10 27  2  0
  6 28  2  0
 28 29  1  0
 28  2  1  0
 27  7  1  0
 26 14  1  0
 20 15  1  0
M  END
>  <energy_score>  (1049) 
-29.659703

>  <alias>  (1049) 
None

>  <HIPPO Pose ID>  (1049) 
70547

>  <smiles>  (1049) 
Cc1nccc(-n2ccc(NC(=O)[C@@]3(c4ccccc4)CCC(=O)NC3)n2)c1Cl

>  <inchikey>  (1049) 
CXBIUTYVMSIRNE-NRFANRHFSA-N

>  <distance_score>  (1049) 
1.564155

>  <ref_mols>  (1049) 
Z0788a,Z0969a

>  <ref_pdb>  (1049) 
Z0788a

>  <HIPPO Compound ID>  (1049) 
142605

>  <name>  (1049) 
P70547

>  <inspiration_score>  (1049) 
None

$$$$
P70550
     RDKit          3D

 29 32  0  0  0  0  0  0  0  0999 V2000
   -8.4951    3.8805   -6.9135 C   0  0  0  0  0  0  0  0  0  0  0  0
   -8.4287    3.8579   -8.4101 C   0  0  0  0  0  0  0  0  0  0  0  0
   -7.7741    4.8713   -9.1295 C   0  0  0  0  0  0  0  0  0  0  0  0
   -7.6891    4.7694  -10.5292 C   0  0  0  0  0  0  0  0  0  0  0  0
   -6.9895    5.7255  -11.3292 N   0  0  0  0  0  0  0  0  0  0  0  0
   -6.4833    6.9394  -10.9162 C   0  0  0  0  0  0  0  0  0  0  0  0
   -5.8776    7.5181  -12.0055 C   0  0  0  0  0  0  0  0  0  0  0  0
   -6.0248    6.5911  -13.0543 C   0  0  0  0  0  0  0  0  0  0  0  0
   -5.5468    6.7496  -14.3308 N   0  0  0  0  0  0  0  0  0  0  0  0
   -4.8193    7.9556  -14.9954 C   0  0  0  0  0  0  0  0  0  0  0  0
   -4.5862    9.0255  -14.5777 O   0  0  0  0  0  0  0  0  0  0  0  0
   -4.3476    7.6134  -16.4418 C   0  0  1  0  0  0  0  0  0  0  0  0
   -3.0210    6.8574  -16.4932 C   0  0  0  0  0  0  0  0  0  0  0  0
   -3.1925    5.3800  -16.6988 C   0  0  0  0  0  0  0  0  0  0  0  0
   -3.9767    5.1017  -17.9472 C   0  0  0  0  0  0  0  0  0  0  0  0
   -3.6378    4.1947  -18.7009 O   0  0  0  0  0  0  0  0  0  0  0  0
   -5.1312    5.8426  -18.0989 N   0  0  0  0  0  0  0  0  0  0  0  0
   -6.2095    5.2560  -18.9068 C   0  0  0  0  0  0  0  0  0  0  0  0
   -7.3374    4.7590  -18.0296 C   0  0  0  0  0  0  0  0  0  0  0  0
   -8.6409    4.6773  -18.5284 C   0  0  0  0  0  0  0  0  0  0  0  0
   -9.6937    4.3374  -17.6933 C   0  0  0  0  0  0  0  0  0  0  0  0
   -9.4334    4.0605  -16.3596 C   0  0  0  0  0  0  0  0  0  0  0  0
   -8.1509    4.0775  -15.8508 C   0  0  0  0  0  0  0  0  0  0  0  0
   -7.1048    4.3819  -16.6981 C   0  0  0  0  0  0  0  0  0  0  0  0
   -5.4263    7.0883  -17.3887 C   0  0  0  0  0  0  0  0  0  0  0  0
   -6.7079    5.5113  -12.6591 N   0  0  0  0  0  0  0  0  0  0  0  0
   -8.2968    3.6856  -11.1487 C   0  0  0  0  0  0  0  0  0  0  0  0
   -8.9677    2.7720  -10.3579 C   0  0  0  0  0  0  0  0  0  0  0  0
   -9.0382    2.8237   -9.0143 N   0  0  0  0  0  0  0  0  0  0  0  0
  1  2  1  0
  2  3  2  0
  3  4  1  0
  4  5  1  0
  5  6  1  0
  6  7  2  0
  7  8  1  0
  8  9  1  0
  9 10  1  0
 10 11  2  0
 12 10  1  1
 12 13  1  0
 13 14  1  0
 14 15  1  0
 15 16  2  0
 15 17  1  0
 17 18  1  0
 18 19  1  0
 19 20  2  0
 20 21  1  0
 21 22  2  0
 22 23  1  0
 23 24  2  0
 17 25  1  0
  8 26  2  0
  4 27  2  0
 27 28  1  0
 28 29  2  0
 29  2  1  0
 26  5  1  0
 25 12  1  0
 24 19  1  0
M  END
>  <energy_score>  (1050) 
-10.762811

>  <alias>  (1050) 
None

>  <HIPPO Pose ID>  (1050) 
70550

>  <smiles>  (1050) 
Cc1cc(-n2ccc(NC(=O)[C@H]3CCC(=O)N(Cc4ccccc4)C3)n2)ccn1

>  <inchikey>  (1050) 
KXEQNVGUJQVEQP-SFHVURJKSA-N

>  <distance_score>  (1050) 
1.826516

>  <ref_mols>  (1050) 
Z0788a,Z0969a

>  <ref_pdb>  (1050) 
Z0788a

>  <HIPPO Compound ID>  (1050) 
142614

>  <name>  (1050) 
P70550

>  <inspiration_score>  (1050) 
None

$$$$
P70551
     RDKit          3D

 30 33  0  0  0  0  0  0  0  0999 V2000
   -5.3144    9.9080  -20.5294 C   0  0  0  0  0  0  0  0  0  0  0  0
   -5.0212    9.0132  -19.4370 N   0  0  0  0  0  0  0  0  0  0  0  0
   -4.7903    7.6790  -19.5153 C   0  0  0  0  0  0  0  0  0  0  0  0
   -4.3887    7.2773  -18.2596 C   0  0  0  0  0  0  0  0  0  0  0  0
   -4.0778    5.9634  -17.8910 N   0  0  0  0  0  0  0  0  0  0  0  0
   -4.0534    5.5481  -16.4855 C   0  0  0  0  0  0  0  0  0  0  0  0
   -5.1187    4.4983  -16.2097 C   0  0  1  0  0  0  0  0  0  0  0  0
   -5.3755    4.2870  -14.7252 C   0  0  0  0  0  0  0  0  0  0  0  0
   -4.8988    3.3701  -14.1773 O   0  0  0  0  0  0  0  0  0  0  0  0
   -6.3271    5.3949  -14.1934 N   0  0  0  0  0  0  0  0  0  0  0  0
   -6.9244    5.5377  -12.9802 C   0  0  0  0  0  0  0  0  0  0  0  0
   -7.7114    6.6076  -12.5196 C   0  0  0  0  0  0  0  0  0  0  0  0
   -8.1147    6.2289  -11.2545 C   0  0  0  0  0  0  0  0  0  0  0  0
   -7.6219    4.9577  -11.0482 N   0  0  0  0  0  0  0  0  0  0  0  0
   -7.8189    4.0739   -9.9601 C   0  0  0  0  0  0  0  0  0  0  0  0
   -7.2985    2.7846  -10.0509 C   0  0  0  0  0  0  0  0  0  0  0  0
   -7.4910    1.9105   -9.0015 C   0  0  0  0  0  0  0  0  0  0  0  0
   -8.1707    2.2148   -7.8875 N   0  0  0  0  0  0  0  0  0  0  0  0
   -8.6451    3.4732   -7.7882 C   0  0  0  0  0  0  0  0  0  0  0  0
   -9.2709    3.8500   -6.4770 C   0  0  0  0  0  0  0  0  0  0  0  0
  -10.5741    3.4737   -6.3433 F   0  0  0  0  0  0  0  0  0  0  0  0
   -9.2841    5.2083   -6.3230 F   0  0  0  0  0  0  0  0  0  0  0  0
   -8.4937    4.4371   -8.8016 C   0  0  0  0  0  0  0  0  0  0  0  0
   -6.8335    4.5814  -12.0724 N   0  0  0  0  0  0  0  0  0  0  0  0
   -6.3611    4.7291  -17.0732 C   0  0  0  0  0  0  0  0  0  0  0  0
   -5.9870    4.6382  -18.5538 C   0  0  0  0  0  0  0  0  0  0  0  0
   -4.5284    5.0058  -18.8102 C   0  0  0  0  0  0  0  0  0  0  0  0
   -3.9105    4.6518  -19.8085 O   0  0  0  0  0  0  0  0  0  0  0  0
   -4.4273    8.4615  -17.4969 C   0  0  0  0  0  0  0  0  0  0  0  0
   -4.8928    9.5041  -18.1937 N   0  0  0  0  0  0  0  0  0  0  0  0
  1  2  1  0
  2  3  1  0
  3  4  2  0
  4  5  1  0
  5  6  1  0
  6  7  1  0
  7  8  1  1
  8  9  2  0
  8 10  1  0
 10 11  1  0
 11 12  1  0
 12 13  2  0
 13 14  1  0
 14 15  1  0
 15 16  2  0
 16 17  1  0
 17 18  2  0
 18 19  1  0
 19 20  1  0
 20 21  1  0
 20 22  1  0
 19 23  2  0
 14 24  1  0
  7 25  1  0
 25 26  1  0
 26 27  1  0
 27 28  2  0
  4 29  1  0
 29 30  2  0
 30  2  1  0
 27  5  1  0
 24 11  2  0
 23 15  1  0
M  END
>  <energy_score>  (1051) 
-21.588978

>  <alias>  (1051) 
None

>  <HIPPO Pose ID>  (1051) 
70551

>  <smiles>  (1051) 
Cn1cc(N2C[C@@H](C(=O)Nc3ccn(-c4ccnc(C(F)F)c4)n3)CCC2=O)cn1

>  <inchikey>  (1051) 
MXAULGYYDNFBIF-LBPRGKRZSA-N

>  <distance_score>  (1051) 
1.660037

>  <ref_mols>  (1051) 
Z0788a,Z0969a

>  <ref_pdb>  (1051) 
Z0788a

>  <HIPPO Compound ID>  (1051) 
142615

>  <name>  (1051) 
P70551

>  <inspiration_score>  (1051) 
None

$$$$
P70552
     RDKit          3D

 30 33  0  0  0  0  0  0  0  0999 V2000
   -1.2079    4.1797  -13.4406 O   0  0  0  0  0  0  0  0  0  0  0  0
   -2.0261    4.6218  -14.2417 C   0  0  0  0  0  0  0  0  0  0  0  0
   -3.3334    3.9238  -14.5327 C   0  0  0  0  0  0  0  0  0  0  0  0
   -4.0162    4.3908  -15.8199 C   0  0  0  0  0  0  0  0  0  0  0  0
   -4.0824    5.9411  -15.9491 C   0  0  2  0  0  0  0  0  0  0  0  0
   -4.7953    6.7170  -14.7507 C   0  0  0  0  0  0  0  0  0  0  0  0
   -4.4563    7.7982  -14.4513 O   0  0  0  0  0  0  0  0  0  0  0  0
   -5.8723    5.7857  -14.1183 N   0  0  0  0  0  0  0  0  0  0  0  0
   -6.6329    5.9465  -13.0059 C   0  0  0  0  0  0  0  0  0  0  0  0
   -6.8589    7.0880  -12.2217 C   0  0  0  0  0  0  0  0  0  0  0  0
   -7.5963    6.6368  -11.1438 C   0  0  0  0  0  0  0  0  0  0  0  0
   -7.6323    5.2610  -11.2539 N   0  0  0  0  0  0  0  0  0  0  0  0
   -7.8743    4.3006  -10.2342 C   0  0  0  0  0  0  0  0  0  0  0  0
   -7.4299    2.9967  -10.4389 C   0  0  0  0  0  0  0  0  0  0  0  0
   -7.4867    2.1034   -9.3872 C   0  0  0  0  0  0  0  0  0  0  0  0
   -8.0473    2.3718   -8.2003 N   0  0  0  0  0  0  0  0  0  0  0  0
   -8.5101    3.6229   -8.0117 C   0  0  0  0  0  0  0  0  0  0  0  0
   -9.0584    3.9293   -6.6468 C   0  0  0  0  0  0  0  0  0  0  0  0
  -10.3494    3.5349   -6.4586 F   0  0  0  0  0  0  0  0  0  0  0  0
   -9.0715    5.2762   -6.4215 F   0  0  0  0  0  0  0  0  0  0  0  0
   -8.4131    4.6300   -8.9914 C   0  0  0  0  0  0  0  0  0  0  0  0
   -7.2244    4.8739  -12.4906 N   0  0  0  0  0  0  0  0  0  0  0  0
   -4.6859    6.4458  -17.2783 C   0  0  0  0  0  0  0  0  0  0  0  0
   -5.3382    5.5979  -18.1777 C   0  0  0  0  0  0  0  0  0  0  0  0
   -5.7683    6.0760  -19.4145 C   0  0  0  0  0  0  0  0  0  0  0  0
   -5.5777    7.4046  -19.7772 C   0  0  0  0  0  0  0  0  0  0  0  0
   -4.9821    8.2792  -18.8832 C   0  0  0  0  0  0  0  0  0  0  0  0
   -4.5459    7.8042  -17.6464 C   0  0  0  0  0  0  0  0  0  0  0  0
   -2.5737    6.3339  -15.9748 C   0  0  0  0  0  0  0  0  0  0  0  0
   -1.8071    5.8150  -14.8575 N   0  0  0  0  0  0  0  0  0  0  0  0
  1  2  2  0
  2  3  1  0
  3  4  1  0
  4  5  1  0
  5  6  1  1
  6  7  2  0
  6  8  1  0
  8  9  1  0
  9 10  1  0
 10 11  2  0
 11 12  1  0
 12 13  1  0
 13 14  2  0
 14 15  1  0
 15 16  2  0
 16 17  1  0
 17 18  1  0
 18 19  1  0
 18 20  1  0
 17 21  2  0
 12 22  1  0
  5 23  1  0
 23 24  2  0
 24 25  1  0
 25 26  2  0
 26 27  1  0
 27 28  2  0
  5 29  1  0
 29 30  1  0
 30  2  1  0
 22  9  2  0
 28 23  1  0
 21 13  1  0
M  END
>  <energy_score>  (1052) 
-43.468066

>  <alias>  (1052) 
None

>  <HIPPO Pose ID>  (1052) 
70552

>  <smiles>  (1052) 
O=C1CC[C@](C(=O)Nc2ccn(-c3ccnc(C(F)F)c3)n2)(c2ccccc2)CN1

>  <inchikey>  (1052) 
XISCUMUWLKWZKU-OAQYLSRUSA-N

>  <distance_score>  (1052) 
1.611576

>  <ref_mols>  (1052) 
Z0969a,Z0788a

>  <ref_pdb>  (1052) 
Z0788a

>  <HIPPO Compound ID>  (1052) 
142617

>  <name>  (1052) 
P70552

>  <inspiration_score>  (1052) 
None

$$$$
P70553
     RDKit          3D

 30 33  0  0  0  0  0  0  0  0999 V2000
   -8.7765    3.5378   -6.8701 C   0  0  0  0  0  0  0  0  0  0  0  0
   -8.6286    3.6256   -8.3619 C   0  0  0  0  0  0  0  0  0  0  0  0
   -9.2299    2.6341   -9.0492 N   0  0  0  0  0  0  0  0  0  0  0  0
   -9.1502    2.6821  -10.3914 C   0  0  0  0  0  0  0  0  0  0  0  0
   -8.4563    3.6353  -11.1083 C   0  0  0  0  0  0  0  0  0  0  0  0
   -7.7890    4.6318  -10.4056 C   0  0  0  0  0  0  0  0  0  0  0  0
   -6.8612    5.4238  -11.1491 N   0  0  0  0  0  0  0  0  0  0  0  0
   -5.6243    5.8423  -10.7054 C   0  0  0  0  0  0  0  0  0  0  0  0
   -4.9068    6.2235  -11.8115 C   0  0  0  0  0  0  0  0  0  0  0  0
   -5.7952    6.1089  -12.8978 C   0  0  0  0  0  0  0  0  0  0  0  0
   -5.4776    6.4470  -14.1903 N   0  0  0  0  0  0  0  0  0  0  0  0
   -4.0940    6.7243  -14.8530 C   0  0  0  0  0  0  0  0  0  0  0  0
   -3.0103    6.6307  -14.4155 O   0  0  0  0  0  0  0  0  0  0  0  0
   -4.2386    7.3176  -16.3032 C   0  0  1  0  0  0  0  0  0  0  0  0
   -2.8943    7.2163  -17.0616 C   0  0  0  0  0  0  0  0  0  0  0  0
   -2.6565    5.8049  -17.5538 C   0  0  0  0  0  0  0  0  0  0  0  0
   -3.7669    5.3469  -18.4613 C   0  0  0  0  0  0  0  0  0  0  0  0
   -3.5228    4.6537  -19.4463 O   0  0  0  0  0  0  0  0  0  0  0  0
   -5.0496    5.6714  -18.0433 N   0  0  0  0  0  0  0  0  0  0  0  0
   -6.1553    5.0971  -18.8164 C   0  0  0  0  0  0  0  0  0  0  0  0
   -7.3106    4.6977  -17.9398 C   0  0  0  0  0  0  0  0  0  0  0  0
   -8.6011    4.6212  -18.4729 C   0  0  0  0  0  0  0  0  0  0  0  0
   -9.6731    4.3098  -17.6551 C   0  0  0  0  0  0  0  0  0  0  0  0
   -9.4405    4.0610  -16.3096 C   0  0  0  0  0  0  0  0  0  0  0  0
   -8.1720    4.0928  -15.7643 C   0  0  0  0  0  0  0  0  0  0  0  0
   -7.1050    4.3712  -16.5904 C   0  0  0  0  0  0  0  0  0  0  0  0
   -5.3189    6.8994  -17.2951 C   0  0  0  0  0  0  0  0  0  0  0  0
   -6.9923    5.6560  -12.5055 N   0  0  0  0  0  0  0  0  0  0  0  0
   -7.9422    4.6772   -9.0050 C   0  0  0  0  0  0  0  0  0  0  0  0
   -7.4941    6.0560   -8.0627 Cl  0  0  0  0  0  0  0  0  0  0  0  0
  1  2  1  0
  2  3  2  0
  3  4  1  0
  4  5  2  0
  5  6  1  0
  6  7  1  0
  7  8  1  0
  8  9  2  0
  9 10  1  0
 10 11  1  0
 11 12  1  0
 12 13  2  0
 14 12  1  1
 14 15  1  0
 15 16  1  0
 16 17  1  0
 17 18  2  0
 17 19  1  0
 19 20  1  0
 20 21  1  0
 21 22  2  0
 22 23  1  0
 23 24  2  0
 24 25  1  0
 25 26  2  0
 19 27  1  0
 10 28  2  0
  6 29  2  0
 29 30  1  0
 29  2  1  0
 28  7  1  0
 27 14  1  0
 26 21  1  0
M  END
>  <energy_score>  (1053) 
-10.720117

>  <alias>  (1053) 
None

>  <HIPPO Pose ID>  (1053) 
70553

>  <smiles>  (1053) 
Cc1nccc(-n2ccc(NC(=O)[C@H]3CCC(=O)N(Cc4ccccc4)C3)n2)c1Cl

>  <inchikey>  (1053) 
WCYZXADICTVMNK-KRWDZBQOSA-N

>  <distance_score>  (1053) 
1.859805

>  <ref_mols>  (1053) 
Z0788a,Z0969a

>  <ref_pdb>  (1053) 
Z0788a

>  <HIPPO Compound ID>  (1053) 
142623

>  <name>  (1053) 
P70553

>  <inspiration_score>  (1053) 
None

$$$$
P70554
     RDKit          3D

 26 28  0  0  0  0  0  0  0  0999 V2000
   -4.5986    4.3751  -22.0963 C   0  0  0  0  0  0  0  0  0  0  0  0
   -5.0788    4.8279  -20.8496 O   0  0  0  0  0  0  0  0  0  0  0  0
   -6.1275    4.1402  -20.2895 C   0  0  0  0  0  0  0  0  0  0  0  0
   -6.6620    3.1593  -20.7996 O   0  0  0  0  0  0  0  0  0  0  0  0
   -6.4175    4.7022  -18.9697 C   0  0  0  0  0  0  0  0  0  0  0  0
   -5.8183    5.8828  -18.5783 C   0  0  0  0  0  0  0  0  0  0  0  0
   -6.1329    6.2093  -16.9763 S   0  0  0  0  0  0  0  0  0  0  0  0
   -7.1183    4.8026  -16.8570 C   0  0  0  0  0  0  0  0  0  0  0  0
   -7.6713    4.4538  -15.4948 C   0  0  0  0  0  0  0  0  0  0  0  0
   -6.5530    4.3802  -14.5715 N   0  0  0  0  0  0  0  0  0  0  0  0
   -5.8005    5.5040  -13.8071 C   0  0  0  0  0  0  0  0  0  0  0  0
   -6.0148    6.6511  -13.7438 O   0  0  0  0  0  0  0  0  0  0  0  0
   -4.5544    4.8702  -13.1622 C   0  0  2  0  0  0  0  0  0  0  0  0
   -4.8103    4.7561  -11.6601 C   0  0  0  0  0  0  0  0  0  0  0  0
   -3.2913    5.7357  -13.4496 C   0  0  0  0  0  0  0  0  0  0  0  0
   -2.7138    5.8180  -14.8636 C   0  0  0  0  0  0  0  0  0  0  0  0
   -3.2564    5.1119  -15.9294 C   0  0  0  0  0  0  0  0  0  0  0  0
   -2.8282    5.1549  -17.2121 N   0  0  0  0  0  0  0  0  0  0  0  0
   -1.7601    5.9289  -17.4652 C   0  0  0  0  0  0  0  0  0  0  0  0
   -1.0914    6.6646  -16.4921 C   0  0  0  0  0  0  0  0  0  0  0  0
    0.0355    7.4398  -16.8173 C   0  0  0  0  0  0  0  0  0  0  0  0
    0.6940    8.1809  -15.8391 C   0  0  0  0  0  0  0  0  0  0  0  0
    0.2324    8.1557  -14.5289 C   0  0  0  0  0  0  0  0  0  0  0  0
   -0.8867    7.3872  -14.1937 C   0  0  0  0  0  0  0  0  0  0  0  0
   -1.5781    6.6201  -15.1590 C   0  0  0  0  0  0  0  0  0  0  0  0
   -7.2187    4.1086  -17.9782 N   0  0  0  0  0  0  0  0  0  0  0  0
  1  2  1  0
  2  3  1  0
  3  4  2  0
  3  5  1  0
  5  6  2  0
  6  7  1  0
  7  8  1  0
  8  9  1  0
  9 10  1  0
 10 11  1  0
 11 12  2  0
 11 13  1  0
 13 14  1  1
 13 15  1  0
 15 16  1  0
 16 17  2  0
 17 18  1  0
 18 19  2  0
 19 20  1  0
 20 21  2  0
 21 22  1  0
 22 23  2  0
 23 24  1  0
 24 25  2  0
  8 26  2  0
 26  5  1  0
 25 16  1  0
 25 20  1  0
M  END
>  <energy_score>  (1054) 
-26.778594

>  <alias>  (1054) 
None

>  <HIPPO Pose ID>  (1054) 
70554

>  <smiles>  (1054) 
COC(=O)c1csc(CNC(=O)[C@H](C)Cc2cncc3ccccc23)n1

>  <inchikey>  (1054) 
HQEUDGAIYXAAFD-GFCCVEGCSA-N

>  <distance_score>  (1054) 
1.978371

>  <ref_mols>  (1054) 
Z0673a,Z1274a

>  <ref_pdb>  (1054) 
Z1274a

>  <HIPPO Compound ID>  (1054) 
142643

>  <name>  (1054) 
P70554

>  <inspiration_score>  (1054) 
None

$$$$
P70555
     RDKit          3D

 28 30  0  0  0  0  0  0  0  0999 V2000
   -3.4739    5.3015  -21.4677 C   0  0  0  0  0  0  0  0  0  0  0  0
   -4.3498    6.3395  -20.7977 C   0  0  0  0  0  0  0  0  0  0  0  0
   -5.2866    5.6083  -20.0175 O   0  0  0  0  0  0  0  0  0  0  0  0
   -6.0250    6.3065  -19.1175 C   0  0  0  0  0  0  0  0  0  0  0  0
   -5.9728    7.5290  -18.9869 O   0  0  0  0  0  0  0  0  0  0  0  0
   -6.8647    5.4375  -18.2885 C   0  0  0  0  0  0  0  0  0  0  0  0
   -7.1576    5.7831  -16.9812 N   0  0  0  0  0  0  0  0  0  0  0  0
   -7.9098    4.8672  -16.3922 C   0  0  0  0  0  0  0  0  0  0  0  0
   -8.1407    4.9065  -14.9116 C   0  0  0  0  0  0  0  0  0  0  0  0
   -6.9617    5.5902  -14.4342 N   0  0  0  0  0  0  0  0  0  0  0  0
   -6.3639    5.6822  -13.0215 C   0  0  0  0  0  0  0  0  0  0  0  0
   -6.7674    5.2863  -12.0045 O   0  0  0  0  0  0  0  0  0  0  0  0
   -4.9811    6.3467  -13.1866 C   0  0  2  0  0  0  0  0  0  0  0  0
   -5.0573    7.7490  -13.7840 C   0  0  0  0  0  0  0  0  0  0  0  0
   -4.0442    5.3329  -13.8922 C   0  0  0  0  0  0  0  0  0  0  0  0
   -3.3909    5.6599  -15.2179 C   0  0  0  0  0  0  0  0  0  0  0  0
   -3.9458    5.1493  -16.3882 C   0  0  0  0  0  0  0  0  0  0  0  0
   -3.4004    5.2432  -17.6187 N   0  0  0  0  0  0  0  0  0  0  0  0
   -2.2141    5.8744  -17.7001 C   0  0  0  0  0  0  0  0  0  0  0  0
   -1.5525    6.4444  -16.6141 C   0  0  0  0  0  0  0  0  0  0  0  0
   -0.3148    7.0921  -16.7730 C   0  0  0  0  0  0  0  0  0  0  0  0
    0.3379    7.6541  -15.6784 C   0  0  0  0  0  0  0  0  0  0  0  0
   -0.2378    7.5724  -14.4164 C   0  0  0  0  0  0  0  0  0  0  0  0
   -1.4658    6.9262  -14.2463 C   0  0  0  0  0  0  0  0  0  0  0  0
   -2.1563    6.3477  -15.3357 C   0  0  0  0  0  0  0  0  0  0  0  0
   -8.4375    3.6171  -17.4077 S   0  0  0  0  0  0  0  0  0  0  0  0
   -7.4038    4.2197  -18.6173 C   0  0  0  0  0  0  0  0  0  0  0  0
   -7.1092    3.3126  -20.2446 Br  0  0  0  0  0  0  0  0  0  0  0  0
  1  2  1  0
  2  3  1  0
  3  4  1  0
  4  5  2  0
  4  6  1  0
  6  7  1  0
  7  8  2  0
  8  9  1  0
  9 10  1  0
 10 11  1  0
 11 12  2  0
 11 13  1  0
 13 14  1  6
 13 15  1  0
 15 16  1  0
 16 17  2  0
 17 18  1  0
 18 19  2  0
 19 20  1  0
 20 21  2  0
 21 22  1  0
 22 23  2  0
 23 24  1  0
 24 25  2  0
  8 26  1  0
 26 27  1  0
 27 28  1  0
 27  6  2  0
 25 16  1  0
 25 20  1  0
M  END
>  <energy_score>  (1055) 
-49.09299

>  <alias>  (1055) 
None

>  <HIPPO Pose ID>  (1055) 
70555

>  <smiles>  (1055) 
CCOC(=O)c1nc(CNC(=O)[C@H](C)Cc2cncc3ccccc23)sc1Br

>  <inchikey>  (1055) 
GSGZYFUTUVOXOK-GFCCVEGCSA-N

>  <distance_score>  (1055) 
1.84002

>  <ref_mols>  (1055) 
Z0673a,Z1274a

>  <ref_pdb>  (1055) 
Z1274a

>  <HIPPO Compound ID>  (1055) 
142648

>  <name>  (1055) 
P70555

>  <inspiration_score>  (1055) 
None

$$$$
P70558
     RDKit          3D

 28 30  0  0  0  0  0  0  0  0999 V2000
   -7.4174    5.3415  -11.6305 C   0  0  0  0  0  0  0  0  0  0  0  0
   -7.0218    4.2523  -12.6070 C   0  0  0  0  0  0  0  0  0  0  0  0
   -6.8149    4.7653  -13.9315 O   0  0  0  0  0  0  0  0  0  0  0  0
   -7.9616    4.8921  -14.6612 C   0  0  0  0  0  0  0  0  0  0  0  0
   -9.0869    4.9699  -14.1718 O   0  0  0  0  0  0  0  0  0  0  0  0
   -7.7284    4.8342  -16.1045 C   0  0  0  0  0  0  0  0  0  0  0  0
   -8.5953    4.1270  -16.9115 C   0  0  0  0  0  0  0  0  0  0  0  0
   -8.0844    4.1621  -18.5198 S   0  0  0  0  0  0  0  0  0  0  0  0
   -6.8007    5.2583  -18.0992 C   0  0  0  0  0  0  0  0  0  0  0  0
   -6.0614    5.9102  -19.2565 C   0  0  2  0  0  0  0  0  0  0  0  0
   -5.4171    4.8981  -20.2044 C   0  0  0  0  0  0  0  0  0  0  0  0
   -5.0680    6.9018  -18.9128 N   0  0  0  0  0  0  0  0  0  0  0  0
   -4.3148    7.9275  -19.8064 C   0  0  0  0  0  0  0  0  0  0  0  0
   -4.4397    8.1783  -20.9413 O   0  0  0  0  0  0  0  0  0  0  0  0
   -3.2005    8.5907  -18.9706 C   0  0  2  0  0  0  0  0  0  0  0  0
   -2.6907    9.8487  -19.6851 C   0  0  0  0  0  0  0  0  0  0  0  0
   -2.0041    7.6234  -18.7375 C   0  0  0  0  0  0  0  0  0  0  0  0
   -2.3089    6.6791  -17.6029 C   0  0  0  0  0  0  0  0  0  0  0  0
   -2.6099    5.3733  -17.9453 C   0  0  0  0  0  0  0  0  0  0  0  0
   -3.3408    4.5782  -17.1598 N   0  0  0  0  0  0  0  0  0  0  0  0
   -3.7389    5.0650  -15.9653 C   0  0  0  0  0  0  0  0  0  0  0  0
   -3.3907    6.3056  -15.4668 C   0  0  0  0  0  0  0  0  0  0  0  0
   -3.8248    6.7381  -14.2042 C   0  0  0  0  0  0  0  0  0  0  0  0
   -3.4543    7.9928  -13.7263 C   0  0  0  0  0  0  0  0  0  0  0  0
   -2.6560    8.8202  -14.5081 C   0  0  0  0  0  0  0  0  0  0  0  0
   -2.2426    8.3990  -15.7753 C   0  0  0  0  0  0  0  0  0  0  0  0
   -2.6087    7.1333  -16.2890 C   0  0  0  0  0  0  0  0  0  0  0  0
   -6.6904    5.4940  -16.7975 N   0  0  0  0  0  0  0  0  0  0  0  0
  1  2  1  0
  2  3  1  0
  3  4  1  0
  4  5  2  0
  4  6  1  0
  6  7  2  0
  7  8  1  0
  8  9  1  0
  9 10  1  0
 10 11  1  1
 10 12  1  0
 12 13  1  0
 13 14  2  0
 13 15  1  0
 15 16  1  6
 15 17  1  0
 17 18  1  0
 18 19  2  0
 19 20  1  0
 20 21  2  0
 21 22  1  0
 22 23  2  0
 23 24  1  0
 24 25  2  0
 25 26  1  0
 26 27  2  0
  9 28  2  0
 28  6  1  0
 27 18  1  0
 27 22  1  0
M  END
>  <energy_score>  (1056) 
-50.628795

>  <alias>  (1056) 
None

>  <HIPPO Pose ID>  (1056) 
70558

>  <smiles>  (1056) 
CCOC(=O)c1csc([C@H](C)NC(=O)[C@H](C)Cc2cncc3ccccc23)n1

>  <inchikey>  (1056) 
WVBPXZCLDCQPBF-KGLIPLIRSA-N

>  <distance_score>  (1056) 
1.633907

>  <ref_mols>  (1056) 
Z0673a,Z1274a

>  <ref_pdb>  (1056) 
Z1274a

>  <HIPPO Compound ID>  (1056) 
142649

>  <name>  (1056) 
P70558

>  <inspiration_score>  (1056) 
None

$$$$
P70560
     RDKit          3D

 22 25  0  0  0  0  0  0  0  0999 V2000
   -8.3389    1.2700   -8.1312 C   0  0  0  0  0  0  0  0  0  0  0  0
   -8.1972    2.6875   -8.3479 N   0  0  0  0  0  0  0  0  0  0  0  0
   -9.0329    3.4050   -7.3921 C   0  0  0  0  0  0  0  0  0  0  0  0
   -8.6497    4.8710   -7.4289 C   0  0  0  0  0  0  0  0  0  0  0  0
   -8.5089    5.3246   -8.7981 N   0  0  0  0  0  0  0  0  0  0  0  0
   -8.4470    6.6348   -9.0708 N   0  0  0  0  0  0  0  0  0  0  0  0
   -8.3346    6.6585  -10.4004 C   0  0  0  0  0  0  0  0  0  0  0  0
   -8.3178    5.3682  -10.9957 C   0  0  0  0  0  0  0  0  0  0  0  0
   -8.2632    5.0631  -12.4715 C   0  0  0  0  0  0  0  0  0  0  0  0
   -6.8808    4.8873  -12.8848 N   0  0  0  0  0  0  0  0  0  0  0  0
   -6.4397    5.1748  -14.2663 C   0  0  2  0  0  0  0  0  0  0  0  0
   -6.5101    6.6528  -14.6416 C   0  0  0  0  0  0  0  0  0  0  0  0
   -5.7877    6.9374  -15.9672 C   0  0  0  0  0  0  0  0  0  0  0  0
   -5.1546    5.7137  -16.6175 C   0  0  0  0  0  0  0  0  0  0  0  0
   -6.0629    4.5811  -16.7139 N   0  0  0  0  0  0  0  0  0  0  0  0
   -6.8214    4.5269  -17.9576 C   0  0  0  0  0  0  0  0  0  0  0  0
   -8.1094    5.3187  -17.9261 C   0  0  0  0  0  0  0  0  0  0  0  0
   -8.9117    5.1578  -16.6419 C   0  0  0  0  0  0  0  0  0  0  0  0
   -8.3450    4.1115  -15.7367 C   0  0  0  0  0  0  0  0  0  0  0  0
   -6.8392    4.2624  -15.4818 C   0  0  2  0  0  0  0  0  0  0  0  0
   -8.4211    4.5198   -9.9021 C   0  0  0  0  0  0  0  0  0  0  0  0
   -8.4897    3.0411   -9.7433 C   0  0  0  0  0  0  0  0  0  0  0  0
  1  2  1  0
  2  3  1  0
  3  4  1  0
  4  5  1  0
  5  6  1  0
  6  7  2  0
  7  8  1  0
  8  9  1  0
  9 10  1  0
 11 10  1  1
 11 12  1  0
 12 13  1  0
 13 14  1  0
 14 15  1  0
 15 16  1  0
 16 17  1  0
 17 18  1  0
 18 19  1  0
 20 19  1  6
  8 21  2  0
 21 22  1  0
 22  2  1  0
 21  5  1  0
 20 11  1  0
 20 15  1  0
M  END
>  <energy_score>  (1057) 
-38.980052

>  <alias>  (1057) 
None

>  <HIPPO Pose ID>  (1057) 
70560

>  <smiles>  (1057) 
CN1CCn2ncc(CN[C@@H]3CCCN4CCCC[C@H]34)c2C1

>  <inchikey>  (1057) 
AYOGDEGJHXIBRF-HZPDHXFCSA-N

>  <distance_score>  (1057) 
1.730368

>  <ref_mols>  (1057) 
Z0827a,Z0969a

>  <ref_pdb>  (1057) 
Z0827a

>  <HIPPO Compound ID>  (1057) 
142662

>  <name>  (1057) 
P70560

>  <inspiration_score>  (1057) 
None

$$$$
P70568
     RDKit          3D

 23 26  0  0  0  0  0  0  0  0999 V2000
   -3.8954    5.8208  -13.9108 C   0  0  0  0  0  0  0  0  0  0  0  0
   -4.9724    6.4787  -13.0638 C   0  0  0  0  0  0  0  0  0  0  0  0
   -6.4387    6.2768  -13.5107 C   0  0  1  0  0  0  0  0  0  0  0  0
   -6.7808    7.0138  -14.8436 C   0  0  0  0  0  0  0  0  0  0  0  0
   -7.4529    6.2128  -15.8733 N   0  0  0  0  0  0  0  0  0  0  0  0
   -8.8338    5.7944  -15.5227 C   0  0  0  0  0  0  0  0  0  0  0  0
   -9.3839    4.7021  -16.4588 C   0  0  0  0  0  0  0  0  0  0  0  0
   -8.5333    4.4141  -17.6787 C   0  0  0  0  0  0  0  0  0  0  0  0
   -7.0412    4.4481  -17.3874 C   0  0  0  0  0  0  0  0  0  0  0  0
   -6.6444    5.0018  -16.0210 C   0  0  2  0  0  0  0  0  0  0  0  0
   -6.7139    4.1203  -14.7010 C   0  0  0  0  0  0  0  0  0  0  0  0
   -6.9617    4.9113  -13.4415 N   0  0  0  0  0  0  0  0  0  0  0  0
   -6.9294    4.1603  -12.1714 C   0  0  0  0  0  0  0  0  0  0  0  0
   -7.4795    4.8031  -10.8899 C   0  0  0  0  0  0  0  0  0  0  0  0
   -7.2889    6.1118  -10.3592 C   0  0  0  0  0  0  0  0  0  0  0  0
   -7.7482    6.2824   -9.1179 N   0  0  0  0  0  0  0  0  0  0  0  0
   -8.2177    5.0726   -8.8081 N   0  0  0  0  0  0  0  0  0  0  0  0
   -8.1328    4.1645   -9.8274 C   0  0  0  0  0  0  0  0  0  0  0  0
   -8.5871    2.7609   -9.5892 C   0  0  0  0  0  0  0  0  0  0  0  0
   -9.3710    2.6384   -8.3334 N   0  0  0  0  0  0  0  0  0  0  0  0
   -9.4966    1.2326   -7.9853 C   0  0  0  0  0  0  0  0  0  0  0  0
   -8.7002    3.3027   -7.2124 C   0  0  0  0  0  0  0  0  0  0  0  0
   -8.6362    4.7943   -7.4515 C   0  0  0  0  0  0  0  0  0  0  0  0
  1  2  1  0
  3  2  1  6
  3  4  1  0
  4  5  1  0
  5  6  1  0
  6  7  1  0
  7  8  1  0
  8  9  1  0
 10  9  1  6
 10 11  1  0
 11 12  1  0
 12 13  1  0
 13 14  1  0
 14 15  1  0
 15 16  2  0
 16 17  1  0
 17 18  1  0
 18 19  1  0
 19 20  1  0
 20 21  1  0
 20 22  1  0
 22 23  1  0
 12  3  1  0
 18 14  2  0
 10  5  1  0
 23 17  1  0
M  END
>  <energy_score>  (1058) 
-25.797866

>  <alias>  (1058) 
None

>  <HIPPO Pose ID>  (1058) 
70568

>  <smiles>  (1058) 
CC[C@H]1CN2CCCC[C@@H]2CN1Cc1cnn2c1CN(C)CC2

>  <inchikey>  (1058) 
ZKUYWRXBFVKVKY-DLBZAZTESA-N

>  <distance_score>  (1058) 
1.815861

>  <ref_mols>  (1058) 
Z0827a,Z0969a

>  <ref_pdb>  (1058) 
Z0827a

>  <HIPPO Compound ID>  (1058) 
142666

>  <name>  (1058) 
P70568

>  <inspiration_score>  (1058) 
None

$$$$
P70570
     RDKit          3D

 20 22  0  0  0  0  0  0  0  0999 V2000
   -8.2008    4.3537   -4.8433 C   0  0  0  0  0  0  0  0  0  0  0  0
   -9.3482    4.3107   -5.7545 N   0  0  0  0  0  0  0  0  0  0  0  0
  -10.2238    3.1557   -5.5122 C   0  0  0  0  0  0  0  0  0  0  0  0
   -8.9217    4.4824   -7.0968 C   0  0  0  0  0  0  0  0  0  0  0  0
   -8.5450    5.7795   -7.5232 C   0  0  0  0  0  0  0  0  0  0  0  0
   -8.1594    6.0447   -8.8383 C   0  0  0  0  0  0  0  0  0  0  0  0
   -8.1536    4.9971   -9.7301 C   0  0  0  0  0  0  0  0  0  0  0  0
   -8.5019    3.7137   -9.3376 C   0  0  0  0  0  0  0  0  0  0  0  0
   -8.8750    3.4346   -8.0314 C   0  0  0  0  0  0  0  0  0  0  0  0
   -8.3820    2.7996  -10.5193 C   0  0  0  0  0  0  0  0  0  0  0  0
   -8.2447    3.7112  -11.6996 N   0  0  0  0  0  0  0  0  0  0  0  0
   -7.3599    3.2092  -12.7666 C   0  0  0  0  0  0  0  0  0  0  0  0
   -7.3637    3.9817  -14.1099 C   0  0  0  0  0  0  0  0  0  0  0  0
   -8.5398    4.1193  -14.8347 C   0  0  0  0  0  0  0  0  0  0  0  0
   -8.4776    4.4847  -16.1740 C   0  0  0  0  0  0  0  0  0  0  0  0
   -9.5881    4.4576  -16.9245 F   0  0  0  0  0  0  0  0  0  0  0  0
   -7.2763    4.8189  -16.7621 C   0  0  0  0  0  0  0  0  0  0  0  0
   -6.1589    4.7560  -15.9569 C   0  0  0  0  0  0  0  0  0  0  0  0
   -6.1700    4.3429  -14.6602 N   0  0  0  0  0  0  0  0  0  0  0  0
   -7.7776    4.9998  -11.1700 C   0  0  0  0  0  0  0  0  0  0  0  0
  1  2  1  0
  2  3  1  0
  2  4  1  0
  4  5  2  0
  5  6  1  0
  6  7  2  0
  7  8  1  0
  8  9  2  0
  8 10  1  0
 10 11  1  0
 11 12  1  0
 12 13  1  0
 13 14  2  0
 14 15  1  0
 15 16  1  0
 15 17  2  0
 17 18  1  0
 18 19  2  0
 11 20  1  0
  9  4  1  0
 19 13  1  0
 20  7  1  0
M  END
>  <energy_score>  (1059) 
-23.237232

>  <alias>  (1059) 
None

>  <HIPPO Pose ID>  (1059) 
70570

>  <smiles>  (1059) 
CN(C)c1ccc2c(c1)CN(Cc1cc(F)ccn1)C2

>  <inchikey>  (1059) 
PRSPYHZWPCOIBY-UHFFFAOYSA-N

>  <distance_score>  (1059) 
1.993277

>  <ref_mols>  (1059) 
Z0945a,Z0969a

>  <ref_pdb>  (1059) 
Z0945a

>  <HIPPO Compound ID>  (1059) 
142726

>  <name>  (1059) 
P70570

>  <inspiration_score>  (1059) 
None

$$$$
P70571
     RDKit          3D

 20 22  0  0  0  0  0  0  0  0999 V2000
   -5.4410    5.9755  -17.2963 C   0  0  0  0  0  0  0  0  0  0  0  0
   -6.5624    5.6194  -16.3625 C   0  0  0  0  0  0  0  0  0  0  0  0
   -7.5199    4.7104  -16.7936 C   0  0  0  0  0  0  0  0  0  0  0  0
   -8.5417    4.3739  -15.9229 C   0  0  0  0  0  0  0  0  0  0  0  0
   -8.5841    4.9564  -14.6586 C   0  0  0  0  0  0  0  0  0  0  0  0
   -7.6187    5.8945  -14.2853 C   0  0  0  0  0  0  0  0  0  0  0  0
   -7.8334    6.7070  -12.9867 C   0  0  0  0  0  0  0  0  0  0  0  0
   -7.0388    6.3694  -11.7636 N   0  0  0  0  0  0  0  0  0  0  0  0
   -6.4929    7.5287  -11.0667 C   0  0  0  0  0  0  0  0  0  0  0  0
   -7.5712    5.3477  -10.9414 C   0  0  0  0  0  0  0  0  0  0  0  0
   -7.7226    4.0857  -11.5347 C   0  0  0  0  0  0  0  0  0  0  0  0
   -8.2391    2.9911  -10.8635 C   0  0  0  0  0  0  0  0  0  0  0  0
   -8.5668    3.1394   -9.5437 C   0  0  0  0  0  0  0  0  0  0  0  0
   -8.3786    4.3471   -8.8869 C   0  0  0  0  0  0  0  0  0  0  0  0
   -7.8883    5.4566   -9.5670 C   0  0  0  0  0  0  0  0  0  0  0  0
   -8.7398    4.1442   -7.4498 C   0  0  0  0  0  0  0  0  0  0  0  0
   -9.5492    2.9126   -7.4494 N   0  0  0  0  0  0  0  0  0  0  0  0
   -9.4621    2.1800   -6.2058 C   0  0  0  0  0  0  0  0  0  0  0  0
   -9.0787    2.1121   -8.5965 C   0  0  0  0  0  0  0  0  0  0  0  0
   -6.6070    6.2305  -15.1397 N   0  0  0  0  0  0  0  0  0  0  0  0
  1  2  1  0
  2  3  2  0
  3  4  1  0
  4  5  2  0
  5  6  1  0
  6  7  1  0
  7  8  1  0
  8  9  1  0
  8 10  1  0
 10 11  2  0
 11 12  1  0
 12 13  2  0
 13 14  1  0
 14 15  2  0
 14 16  1  0
 16 17  1  0
 17 18  1  0
 17 19  1  0
  6 20  2  0
 20  2  1  0
 15 10  1  0
 19 13  1  0
M  END
>  <energy_score>  (1060) 
-16.936403

>  <alias>  (1060) 
None

>  <HIPPO Pose ID>  (1060) 
70571

>  <smiles>  (1060) 
Cc1cccc(CN(C)c2ccc3c(c2)CN(C)C3)n1

>  <inchikey>  (1060) 
XDTYTRHFCYXPRV-UHFFFAOYSA-N

>  <distance_score>  (1060) 
1.918308

>  <ref_mols>  (1060) 
Z0945a,Z0969a

>  <ref_pdb>  (1060) 
Z0945a

>  <HIPPO Compound ID>  (1060) 
142729

>  <name>  (1060) 
P70571

>  <inspiration_score>  (1060) 
None

$$$$
P70572
     RDKit          3D

 20 22  0  0  0  0  0  0  0  0999 V2000
   -9.1918    3.5219   -5.2869 C   0  0  0  0  0  0  0  0  0  0  0  0
   -9.0245    4.8536   -5.8762 N   0  0  0  0  0  0  0  0  0  0  0  0
   -8.2844    5.7940   -5.0326 C   0  0  0  0  0  0  0  0  0  0  0  0
   -8.6802    4.8980   -7.2486 C   0  0  0  0  0  0  0  0  0  0  0  0
   -8.6035    6.1493   -7.9121 C   0  0  0  0  0  0  0  0  0  0  0  0
   -8.3543    6.2614   -9.2800 C   0  0  0  0  0  0  0  0  0  0  0  0
   -8.1430    5.1049   -9.9883 C   0  0  0  0  0  0  0  0  0  0  0  0
   -8.1712    3.8597   -9.3747 C   0  0  0  0  0  0  0  0  0  0  0  0
   -8.4662    3.7378   -8.0239 C   0  0  0  0  0  0  0  0  0  0  0  0
   -7.8650    2.8165  -10.4173 C   0  0  0  0  0  0  0  0  0  0  0  0
   -7.2897    3.6164  -11.5497 N   0  0  0  0  0  0  0  0  0  0  0  0
   -7.3242    2.9946  -12.8819 C   0  0  0  0  0  0  0  0  0  0  0  0
   -7.3492    3.8788  -14.1686 C   0  0  0  0  0  0  0  0  0  0  0  0
   -8.5953    4.2240  -14.7003 C   0  0  0  0  0  0  0  0  0  0  0  0
   -8.7030    4.7364  -15.9926 C   0  0  0  0  0  0  0  0  0  0  0  0
   -7.5545    4.9553  -16.7272 C   0  0  0  0  0  0  0  0  0  0  0  0
   -6.3500    4.6761  -16.1104 C   0  0  0  0  0  0  0  0  0  0  0  0
   -4.8958    4.9999  -16.9690 Cl  0  0  0  0  0  0  0  0  0  0  0  0
   -6.2066    4.1508  -14.8605 N   0  0  0  0  0  0  0  0  0  0  0  0
   -7.8940    4.9382  -11.4456 C   0  0  0  0  0  0  0  0  0  0  0  0
  1  2  1  0
  2  3  1  0
  2  4  1  0
  4  5  2  0
  5  6  1  0
  6  7  2  0
  7  8  1  0
  8  9  2  0
  8 10  1  0
 10 11  1  0
 11 12  1  0
 12 13  1  0
 13 14  2  0
 14 15  1  0
 15 16  2  0
 16 17  1  0
 17 18  1  0
 17 19  2  0
 11 20  1  0
  9  4  1  0
 19 13  1  0
 20  7  1  0
M  END
>  <energy_score>  (1061) 
-18.236042

>  <alias>  (1061) 
None

>  <HIPPO Pose ID>  (1061) 
70572

>  <smiles>  (1061) 
CN(C)c1ccc2c(c1)CN(Cc1cccc(Cl)n1)C2

>  <inchikey>  (1061) 
SAKBWXPFMCVQMP-UHFFFAOYSA-N

>  <distance_score>  (1061) 
1.967263

>  <ref_mols>  (1061) 
Z0945a,Z0969a

>  <ref_pdb>  (1061) 
Z0945a

>  <HIPPO Compound ID>  (1061) 
142730

>  <name>  (1061) 
P70572

>  <inspiration_score>  (1061) 
None

$$$$
P70573
     RDKit          3D

 20 22  0  0  0  0  0  0  0  0999 V2000
   -9.0863    5.4808   -4.8720 C   0  0  0  0  0  0  0  0  0  0  0  0
   -9.0091    4.3683   -5.8063 N   0  0  0  0  0  0  0  0  0  0  0  0
   -9.8522    3.2114   -5.4884 C   0  0  0  0  0  0  0  0  0  0  0  0
   -8.7285    4.6009   -7.1614 C   0  0  0  0  0  0  0  0  0  0  0  0
   -8.4810    5.9008   -7.6664 C   0  0  0  0  0  0  0  0  0  0  0  0
   -8.1999    6.1456   -9.0137 C   0  0  0  0  0  0  0  0  0  0  0  0
   -8.1544    5.0732   -9.8708 C   0  0  0  0  0  0  0  0  0  0  0  0
   -8.3704    3.7848   -9.4189 C   0  0  0  0  0  0  0  0  0  0  0  0
   -8.6449    3.5339   -8.0812 C   0  0  0  0  0  0  0  0  0  0  0  0
   -8.2175    2.8353  -10.5706 C   0  0  0  0  0  0  0  0  0  0  0  0
   -8.1671    3.7062  -11.7878 N   0  0  0  0  0  0  0  0  0  0  0  0
   -7.2485    3.2610  -12.8598 C   0  0  0  0  0  0  0  0  0  0  0  0
   -7.3597    4.0067  -14.2202 C   0  0  0  0  0  0  0  0  0  0  0  0
   -8.6162    4.2243  -14.7818 C   0  0  0  0  0  0  0  0  0  0  0  0
   -8.7368    4.6532  -16.1038 C   0  0  0  0  0  0  0  0  0  0  0  0
   -7.5926    4.9033  -16.8389 C   0  0  0  0  0  0  0  0  0  0  0  0
   -6.3777    4.7370  -16.2045 C   0  0  0  0  0  0  0  0  0  0  0  0
   -5.2732    5.0310  -16.9120 F   0  0  0  0  0  0  0  0  0  0  0  0
   -6.2265    4.3006  -14.9222 N   0  0  0  0  0  0  0  0  0  0  0  0
   -7.8302    5.0573  -11.3205 C   0  0  0  0  0  0  0  0  0  0  0  0
  1  2  1  0
  2  3  1  0
  2  4  1  0
  4  5  2  0
  5  6  1  0
  6  7  2  0
  7  8  1  0
  8  9  2  0
  8 10  1  0
 10 11  1  0
 11 12  1  0
 12 13  1  0
 13 14  2  0
 14 15  1  0
 15 16  2  0
 16 17  1  0
 17 18  1  0
 17 19  2  0
 11 20  1  0
  9  4  1  0
 19 13  1  0
 20  7  1  0
M  END
>  <energy_score>  (1062) 
-15.438347

>  <alias>  (1062) 
None

>  <HIPPO Pose ID>  (1062) 
70573

>  <smiles>  (1062) 
CN(C)c1ccc2c(c1)CN(Cc1cccc(F)n1)C2

>  <inchikey>  (1062) 
ZMRXACYOWDJANB-UHFFFAOYSA-N

>  <distance_score>  (1062) 
1.976663

>  <ref_mols>  (1062) 
Z0945a,Z0969a

>  <ref_pdb>  (1062) 
Z0945a

>  <HIPPO Compound ID>  (1062) 
142732

>  <name>  (1062) 
P70573

>  <inspiration_score>  (1062) 
None

$$$$
P70574
     RDKit          3D

 20 22  0  0  0  0  0  0  0  0999 V2000
   -8.2318    4.3304   -4.8756 C   0  0  0  0  0  0  0  0  0  0  0  0
   -9.3581    4.2558   -5.8109 N   0  0  0  0  0  0  0  0  0  0  0  0
  -10.2047    3.0756   -5.5875 C   0  0  0  0  0  0  0  0  0  0  0  0
   -8.9108    4.4440   -7.1442 C   0  0  0  0  0  0  0  0  0  0  0  0
   -8.5525    5.7511   -7.5559 C   0  0  0  0  0  0  0  0  0  0  0  0
   -8.1482    6.0322   -8.8618 C   0  0  0  0  0  0  0  0  0  0  0  0
   -8.1023    4.9902   -9.7590 C   0  0  0  0  0  0  0  0  0  0  0  0
   -8.4306    3.6967   -9.3814 C   0  0  0  0  0  0  0  0  0  0  0  0
   -8.8267    3.4033   -8.0847 C   0  0  0  0  0  0  0  0  0  0  0  0
   -8.2655    2.7923  -10.5669 C   0  0  0  0  0  0  0  0  0  0  0  0
   -8.1287    3.7157  -11.7337 N   0  0  0  0  0  0  0  0  0  0  0  0
   -7.2496    3.2531  -12.8274 C   0  0  0  0  0  0  0  0  0  0  0  0
   -7.3732    4.0138  -14.1765 C   0  0  0  0  0  0  0  0  0  0  0  0
   -8.6373    4.2401  -14.7143 C   0  0  0  0  0  0  0  0  0  0  0  0
   -8.7779    4.6621  -16.0353 C   0  0  0  0  0  0  0  0  0  0  0  0
   -7.6479    4.9023  -16.7941 C   0  0  0  0  0  0  0  0  0  0  0  0
   -6.4189    4.7351  -16.1806 C   0  0  0  0  0  0  0  0  0  0  0  0
   -4.8839    5.1493  -17.2210 Br  0  0  0  0  0  0  0  0  0  0  0  0
   -6.2507    4.2997  -14.8987 N   0  0  0  0  0  0  0  0  0  0  0  0
   -7.6966    5.0094  -11.1907 C   0  0  0  0  0  0  0  0  0  0  0  0
  1  2  1  0
  2  3  1  0
  2  4  1  0
  4  5  2  0
  5  6  1  0
  6  7  2  0
  7  8  1  0
  8  9  2  0
  8 10  1  0
 10 11  1  0
 11 12  1  0
 12 13  1  0
 13 14  2  0
 14 15  1  0
 15 16  2  0
 16 17  1  0
 17 18  1  0
 17 19  2  0
 11 20  1  0
  9  4  1  0
 19 13  1  0
 20  7  1  0
M  END
>  <energy_score>  (1063) 
-13.4015

>  <alias>  (1063) 
None

>  <HIPPO Pose ID>  (1063) 
70574

>  <smiles>  (1063) 
CN(C)c1ccc2c(c1)CN(Cc1cccc(Br)n1)C2

>  <inchikey>  (1063) 
ATXVGDIURXORME-UHFFFAOYSA-N

>  <distance_score>  (1063) 
1.979978

>  <ref_mols>  (1063) 
Z0945a,Z0969a

>  <ref_pdb>  (1063) 
Z0945a

>  <HIPPO Compound ID>  (1063) 
142733

>  <name>  (1063) 
P70574

>  <inspiration_score>  (1063) 
None

$$$$
P70575
     RDKit          3D

 21 23  0  0  0  0  0  0  0  0999 V2000
   -9.1010    5.4922   -4.8692 C   0  0  0  0  0  0  0  0  0  0  0  0
   -9.0815    4.3878   -5.8145 N   0  0  0  0  0  0  0  0  0  0  0  0
   -9.9037    3.2257   -5.4703 C   0  0  0  0  0  0  0  0  0  0  0  0
   -8.7785    4.6050   -7.1644 C   0  0  0  0  0  0  0  0  0  0  0  0
   -8.4431    5.8883   -7.6624 C   0  0  0  0  0  0  0  0  0  0  0  0
   -8.1190    6.1186   -9.0034 C   0  0  0  0  0  0  0  0  0  0  0  0
   -8.1280    5.0491   -9.8652 C   0  0  0  0  0  0  0  0  0  0  0  0
   -8.4542    3.7793   -9.4233 C   0  0  0  0  0  0  0  0  0  0  0  0
   -8.7613    3.5408   -8.0901 C   0  0  0  0  0  0  0  0  0  0  0  0
   -8.3586    2.8234  -10.5759 C   0  0  0  0  0  0  0  0  0  0  0  0
   -8.1849    3.6949  -11.7768 N   0  0  0  0  0  0  0  0  0  0  0  0
   -7.3958    3.1693  -12.9006 C   0  0  2  0  0  0  0  0  0  0  0  0
   -5.7291    2.7490  -12.3740 Cl  0  0  0  0  0  0  0  0  0  0  0  0
   -7.3570    4.0177  -14.2228 C   0  0  0  0  0  0  0  0  0  0  0  0
   -8.4803    4.0503  -15.0444 C   0  0  0  0  0  0  0  0  0  0  0  0
   -8.3606    4.4559  -16.3731 C   0  0  0  0  0  0  0  0  0  0  0  0
   -9.6774    4.2401  -17.4621 Cl  0  0  0  0  0  0  0  0  0  0  0  0
   -7.1629    4.9494  -16.8494 C   0  0  0  0  0  0  0  0  0  0  0  0
   -6.1200    5.0094  -15.9508 C   0  0  0  0  0  0  0  0  0  0  0  0
   -6.1890    4.5644  -14.6682 N   0  0  0  0  0  0  0  0  0  0  0  0
   -7.7591    5.0122  -11.3063 C   0  0  0  0  0  0  0  0  0  0  0  0
  1  2  1  0
  2  3  1  0
  2  4  1  0
  4  5  2  0
  5  6  1  0
  6  7  2  0
  7  8  1  0
  8  9  2  0
  8 10  1  0
 10 11  1  0
 11 12  1  0
 12 13  1  1
 12 14  1  0
 14 15  2  0
 15 16  1  0
 16 17  1  0
 16 18  2  0
 18 19  1  0
 19 20  2  0
 11 21  1  0
  9  4  1  0
 20 14  1  0
 21  7  1  0
M  END
>  <energy_score>  (1064) 
-18.502307

>  <alias>  (1064) 
None

>  <HIPPO Pose ID>  (1064) 
70575

>  <smiles>  (1064) 
CN(C)c1ccc2c(c1)CN([C@H](Cl)c1cc(Cl)ccn1)C2

>  <inchikey>  (1064) 
GFCVSBPMMZOXGZ-INIZCTEOSA-N

>  <distance_score>  (1064) 
1.980293

>  <ref_mols>  (1064) 
Z0945a,Z0969a

>  <ref_pdb>  (1064) 
Z0945a

>  <HIPPO Compound ID>  (1064) 
142735

>  <name>  (1064) 
P70575

>  <inspiration_score>  (1064) 
None

$$$$
P70576
     RDKit          3D

 21 23  0  0  0  0  0  0  0  0999 V2000
   -4.9800    4.8233  -17.7588 C   0  0  0  0  0  0  0  0  0  0  0  0
   -6.1179    4.7232  -16.7879 C   0  0  0  0  0  0  0  0  0  0  0  0
   -7.4149    4.8723  -17.2587 C   0  0  0  0  0  0  0  0  0  0  0  0
   -8.4309    4.9980  -16.3277 C   0  0  0  0  0  0  0  0  0  0  0  0
   -8.1154    4.9942  -14.9728 C   0  0  0  0  0  0  0  0  0  0  0  0
   -9.3501    5.7565  -13.7874 Br  0  0  0  0  0  0  0  0  0  0  0  0
   -6.8369    4.6398  -14.5593 C   0  0  0  0  0  0  0  0  0  0  0  0
   -6.5795    4.1655  -13.1147 C   0  0  0  0  0  0  0  0  0  0  0  0
   -6.7326    5.2038  -12.0716 N   0  0  0  0  0  0  0  0  0  0  0  0
   -5.7490    6.2858  -12.1274 C   0  0  0  0  0  0  0  0  0  0  0  0
   -7.3257    4.9414  -10.8165 C   0  0  0  0  0  0  0  0  0  0  0  0
   -7.5614    6.0040   -9.9094 C   0  0  0  0  0  0  0  0  0  0  0  0
   -8.0950    5.8015   -8.6350 C   0  0  0  0  0  0  0  0  0  0  0  0
   -8.4180    4.5175   -8.2578 C   0  0  0  0  0  0  0  0  0  0  0  0
   -8.2846    3.4629   -9.1377 C   0  0  0  0  0  0  0  0  0  0  0  0
   -7.7442    3.6572  -10.4008 C   0  0  0  0  0  0  0  0  0  0  0  0
   -8.8012    2.2081   -8.5004 C   0  0  0  0  0  0  0  0  0  0  0  0
   -8.9572    2.5518   -7.0768 N   0  0  0  0  0  0  0  0  0  0  0  0
  -10.1057    1.9521   -6.4388 C   0  0  0  0  0  0  0  0  0  0  0  0
   -8.9279    4.0111   -6.9560 C   0  0  0  0  0  0  0  0  0  0  0  0
   -5.8183    4.5546  -15.4665 N   0  0  0  0  0  0  0  0  0  0  0  0
  1  2  1  0
  2  3  2  0
  3  4  1  0
  4  5  2  0
  5  6  1  0
  5  7  1  0
  7  8  1  0
  8  9  1  0
  9 10  1  0
  9 11  1  0
 11 12  2  0
 12 13  1  0
 13 14  2  0
 14 15  1  0
 15 16  2  0
 15 17  1  0
 17 18  1  0
 18 19  1  0
 18 20  1  0
  7 21  2  0
 21  2  1  0
 16 11  1  0
 20 14  1  0
M  END
>  <energy_score>  (1065) 
-7.916984

>  <alias>  (1065) 
None

>  <HIPPO Pose ID>  (1065) 
70576

>  <smiles>  (1065) 
Cc1ccc(Br)c(CN(C)c2ccc3c(c2)CN(C)C3)n1

>  <inchikey>  (1065) 
RLSVHGDZJAIGEG-UHFFFAOYSA-N

>  <distance_score>  (1065) 
1.948866

>  <ref_mols>  (1065) 
Z0945a,Z0969a

>  <ref_pdb>  (1065) 
Z0945a

>  <HIPPO Compound ID>  (1065) 
142737

>  <name>  (1065) 
P70576

>  <inspiration_score>  (1065) 
None

$$$$
P70577
     RDKit          3D

 21 23  0  0  0  0  0  0  0  0999 V2000
   -9.9309    3.2034   -5.4631 C   0  0  0  0  0  0  0  0  0  0  0  0
   -9.0737    4.3500   -5.7784 N   0  0  0  0  0  0  0  0  0  0  0  0
   -9.1289    5.4598   -4.8396 C   0  0  0  0  0  0  0  0  0  0  0  0
   -8.7714    4.5783   -7.1286 C   0  0  0  0  0  0  0  0  0  0  0  0
   -8.4928    5.8738   -7.6288 C   0  0  0  0  0  0  0  0  0  0  0  0
   -8.1848    6.1141   -8.9709 C   0  0  0  0  0  0  0  0  0  0  0  0
   -8.1426    5.0413   -9.8278 C   0  0  0  0  0  0  0  0  0  0  0  0
   -8.3940    3.7572   -9.3812 C   0  0  0  0  0  0  0  0  0  0  0  0
   -8.6961    3.5110   -8.0485 C   0  0  0  0  0  0  0  0  0  0  0  0
   -8.2416    2.8028  -10.5286 C   0  0  0  0  0  0  0  0  0  0  0  0
   -8.0865    3.6663  -11.7323 N   0  0  0  0  0  0  0  0  0  0  0  0
   -7.1914    3.2210  -12.8078 C   0  0  2  0  0  0  0  0  0  0  0  0
   -5.8340    3.2342  -12.3829 O   0  0  0  0  0  0  0  0  0  0  0  0
   -7.3336    3.9875  -14.1804 C   0  0  0  0  0  0  0  0  0  0  0  0
   -8.6107    4.2161  -14.6915 C   0  0  0  0  0  0  0  0  0  0  0  0
   -8.7818    4.6419  -16.0095 C   0  0  0  0  0  0  0  0  0  0  0  0
   -7.6714    4.8863  -16.7957 C   0  0  0  0  0  0  0  0  0  0  0  0
   -6.4285    4.7196  -16.2142 C   0  0  0  0  0  0  0  0  0  0  0  0
   -4.9180    5.1440  -17.2853 Br  0  0  0  0  0  0  0  0  0  0  0  0
   -6.2330    4.2789  -14.9413 N   0  0  0  0  0  0  0  0  0  0  0  0
   -7.7854    5.0237  -11.2707 C   0  0  0  0  0  0  0  0  0  0  0  0
  1  2  1  0
  2  3  1  0
  2  4  1  0
  4  5  2  0
  5  6  1  0
  6  7  2  0
  7  8  1  0
  8  9  2  0
  8 10  1  0
 10 11  1  0
 11 12  1  0
 12 13  1  1
 12 14  1  0
 14 15  2  0
 15 16  1  0
 16 17  2  0
 17 18  1  0
 18 19  1  0
 18 20  2  0
 11 21  1  0
  9  4  1  0
 20 14  1  0
 21  7  1  0
M  END
>  <energy_score>  (1066) 
-15.019327

>  <alias>  (1066) 
None

>  <HIPPO Pose ID>  (1066) 
70577

>  <smiles>  (1066) 
CN(C)c1ccc2c(c1)CN([C@H](O)c1cccc(Br)n1)C2

>  <inchikey>  (1066) 
NPFRLXMQDFBMFR-MRXNPFEDSA-N

>  <distance_score>  (1066) 
1.963086

>  <ref_mols>  (1066) 
Z0945a,Z0969a

>  <ref_pdb>  (1066) 
Z0945a

>  <HIPPO Compound ID>  (1066) 
142739

>  <name>  (1066) 
P70577

>  <inspiration_score>  (1066) 
None

$$$$
P70579
     RDKit          3D

 21 23  0  0  0  0  0  0  0  0999 V2000
   -9.7413    3.1049   -5.6393 C   0  0  0  0  0  0  0  0  0  0  0  0
   -8.9770    4.3136   -5.9614 N   0  0  0  0  0  0  0  0  0  0  0  0
   -9.1019    5.4122   -5.0161 C   0  0  0  0  0  0  0  0  0  0  0  0
   -8.7119    4.5676   -7.3150 C   0  0  0  0  0  0  0  0  0  0  0  0
   -8.4571    5.8742   -7.7978 C   0  0  0  0  0  0  0  0  0  0  0  0
   -8.1982    6.1436   -9.1454 C   0  0  0  0  0  0  0  0  0  0  0  0
   -8.1855    5.0902  -10.0276 C   0  0  0  0  0  0  0  0  0  0  0  0
   -8.4097    3.7961   -9.5982 C   0  0  0  0  0  0  0  0  0  0  0  0
   -8.6572    3.5198   -8.2594 C   0  0  0  0  0  0  0  0  0  0  0  0
   -8.2969    2.8709  -10.7734 C   0  0  0  0  0  0  0  0  0  0  0  0
   -8.2552    3.7659  -11.9816 N   0  0  0  0  0  0  0  0  0  0  0  0
   -7.3310    3.3214  -13.0479 C   0  0  0  0  0  0  0  0  0  0  0  0
   -7.3918    4.0630  -14.4152 C   0  0  0  0  0  0  0  0  0  0  0  0
   -8.5753    4.0839  -15.1483 C   0  0  0  0  0  0  0  0  0  0  0  0
   -8.5450    4.4112  -16.5046 C   0  0  0  0  0  0  0  0  0  0  0  0
   -9.9306    4.2126  -17.5033 Cl  0  0  0  0  0  0  0  0  0  0  0  0
   -7.3753    4.8235  -17.1006 C   0  0  0  0  0  0  0  0  0  0  0  0
   -6.2669    4.8665  -16.2917 C   0  0  0  0  0  0  0  0  0  0  0  0
   -4.7759    5.3793  -16.9692 Cl  0  0  0  0  0  0  0  0  0  0  0  0
   -6.2298    4.4977  -14.9819 N   0  0  0  0  0  0  0  0  0  0  0  0
   -7.8955    5.1031  -11.4857 C   0  0  0  0  0  0  0  0  0  0  0  0
  1  2  1  0
  2  3  1  0
  2  4  1  0
  4  5  2  0
  5  6  1  0
  6  7  2  0
  7  8  1  0
  8  9  2  0
  8 10  1  0
 10 11  1  0
 11 12  1  0
 12 13  1  0
 13 14  2  0
 14 15  1  0
 15 16  1  0
 15 17  2  0
 17 18  1  0
 18 19  1  0
 18 20  2  0
 11 21  1  0
  9  4  1  0
 20 13  1  0
 21  7  1  0
M  END
>  <energy_score>  (1067) 
-17.169368

>  <alias>  (1067) 
None

>  <HIPPO Pose ID>  (1067) 
70579

>  <smiles>  (1067) 
CN(C)c1ccc2c(c1)CN(Cc1cc(Cl)cc(Cl)n1)C2

>  <inchikey>  (1067) 
QSVXDEKNCYVSOW-UHFFFAOYSA-N

>  <distance_score>  (1067) 
1.978292

>  <ref_mols>  (1067) 
Z0945a,Z0969a

>  <ref_pdb>  (1067) 
Z0945a

>  <HIPPO Compound ID>  (1067) 
142742

>  <name>  (1067) 
P70579

>  <inspiration_score>  (1067) 
None

$$$$
P70580
     RDKit          3D

 21 23  0  0  0  0  0  0  0  0999 V2000
   -9.8612    3.1860   -5.5113 C   0  0  0  0  0  0  0  0  0  0  0  0
   -9.0373    4.3577   -5.8229 N   0  0  0  0  0  0  0  0  0  0  0  0
   -9.1293    5.4652   -4.8849 C   0  0  0  0  0  0  0  0  0  0  0  0
   -8.7418    4.5941   -7.1736 C   0  0  0  0  0  0  0  0  0  0  0  0
   -8.4972    5.8967   -7.6737 C   0  0  0  0  0  0  0  0  0  0  0  0
   -8.1996    6.1459   -9.0170 C   0  0  0  0  0  0  0  0  0  0  0  0
   -8.1332    5.0750   -9.8746 C   0  0  0  0  0  0  0  0  0  0  0  0
   -8.3470    3.7843   -9.4268 C   0  0  0  0  0  0  0  0  0  0  0  0
   -8.6394    3.5293   -8.0938 C   0  0  0  0  0  0  0  0  0  0  0  0
   -8.1620    2.8373  -10.5773 C   0  0  0  0  0  0  0  0  0  0  0  0
   -8.1085    3.7117  -11.7875 N   0  0  0  0  0  0  0  0  0  0  0  0
   -7.2384    3.2557  -12.8764 C   0  0  2  0  0  0  0  0  0  0  0  0
   -5.8640    3.2644  -12.4957 O   0  0  0  0  0  0  0  0  0  0  0  0
   -7.3862    4.0079  -14.2454 C   0  0  0  0  0  0  0  0  0  0  0  0
   -8.6515    4.2258  -14.7830 C   0  0  0  0  0  0  0  0  0  0  0  0
   -8.7919    4.6452  -16.1065 C   0  0  0  0  0  0  0  0  0  0  0  0
   -7.6620    4.8904  -16.8659 C   0  0  0  0  0  0  0  0  0  0  0  0
   -6.4386    4.7288  -16.2466 C   0  0  0  0  0  0  0  0  0  0  0  0
   -5.0062    5.0917  -17.1236 Cl  0  0  0  0  0  0  0  0  0  0  0  0
   -6.2571    4.2995  -14.9671 N   0  0  0  0  0  0  0  0  0  0  0  0
   -7.7784    5.0592  -11.3186 C   0  0  0  0  0  0  0  0  0  0  0  0
  1  2  1  0
  2  3  1  0
  2  4  1  0
  4  5  2  0
  5  6  1  0
  6  7  2  0
  7  8  1  0
  8  9  2  0
  8 10  1  0
 10 11  1  0
 11 12  1  0
 12 13  1  1
 12 14  1  0
 14 15  2  0
 15 16  1  0
 16 17  2  0
 17 18  1  0
 18 19  1  0
 18 20  2  0
 11 21  1  0
  9  4  1  0
 20 14  1  0
 21  7  1  0
M  END
>  <energy_score>  (1068) 
-25.527987

>  <alias>  (1068) 
None

>  <HIPPO Pose ID>  (1068) 
70580

>  <smiles>  (1068) 
CN(C)c1ccc2c(c1)CN([C@H](O)c1cccc(Cl)n1)C2

>  <inchikey>  (1068) 
OJPGRTKCXQJJQG-MRXNPFEDSA-N

>  <distance_score>  (1068) 
1.974578

>  <ref_mols>  (1068) 
Z0945a,Z0969a

>  <ref_pdb>  (1068) 
Z0945a

>  <HIPPO Compound ID>  (1068) 
142744

>  <name>  (1068) 
P70580

>  <inspiration_score>  (1068) 
None

$$$$
P70581
     RDKit          3D

 21 23  0  0  0  0  0  0  0  0999 V2000
   -5.3435    5.3785  -17.4227 C   0  0  0  0  0  0  0  0  0  0  0  0
   -6.4546    5.3440  -16.4133 C   0  0  0  0  0  0  0  0  0  0  0  0
   -7.7056    4.8931  -16.8021 C   0  0  0  0  0  0  0  0  0  0  0  0
   -8.7379    4.9475  -15.8758 C   0  0  0  0  0  0  0  0  0  0  0  0
   -8.5015    5.4475  -14.5963 C   0  0  0  0  0  0  0  0  0  0  0  0
   -9.5737    5.5671  -13.7577 O   0  0  0  0  0  0  0  0  0  0  0  0
   -7.2106    5.8312  -14.2345 C   0  0  0  0  0  0  0  0  0  0  0  0
   -6.8130    6.3083  -12.8259 C   0  0  0  0  0  0  0  0  0  0  0  0
   -7.9042    6.4306  -11.7847 N   0  0  0  0  0  0  0  0  0  0  0  0
   -8.0793    7.7816  -11.2494 C   0  0  0  0  0  0  0  0  0  0  0  0
   -8.0085    5.3624  -10.8495 C   0  0  0  0  0  0  0  0  0  0  0  0
   -7.9327    4.0566  -11.3613 C   0  0  0  0  0  0  0  0  0  0  0  0
   -8.1729    2.9328  -10.5909 C   0  0  0  0  0  0  0  0  0  0  0  0
   -8.4795    3.0951   -9.2664 C   0  0  0  0  0  0  0  0  0  0  0  0
   -8.5060    4.3515   -8.6916 C   0  0  0  0  0  0  0  0  0  0  0  0
   -8.2926    5.4902   -9.4678 C   0  0  0  0  0  0  0  0  0  0  0  0
   -8.8177    4.1990   -7.2384 C   0  0  0  0  0  0  0  0  0  0  0  0
   -8.9072    2.7518   -6.9808 N   0  0  0  0  0  0  0  0  0  0  0  0
  -10.0495    2.3792   -6.1700 C   0  0  0  0  0  0  0  0  0  0  0  0
   -8.8695    2.0510   -8.2813 C   0  0  0  0  0  0  0  0  0  0  0  0
   -6.1927    5.7990  -15.1540 N   0  0  0  0  0  0  0  0  0  0  0  0
  1  2  1  0
  2  3  2  0
  3  4  1  0
  4  5  2  0
  5  6  1  0
  5  7  1  0
  7  8  1  0
  8  9  1  0
  9 10  1  0
  9 11  1  0
 11 12  2  0
 12 13  1  0
 13 14  2  0
 14 15  1  0
 15 16  2  0
 15 17  1  0
 17 18  1  0
 18 19  1  0
 18 20  1  0
  7 21  2  0
 21  2  1  0
 16 11  1  0
 20 14  1  0
M  END
>  <energy_score>  (1069) 
-38.416344

>  <alias>  (1069) 
None

>  <HIPPO Pose ID>  (1069) 
70581

>  <smiles>  (1069) 
Cc1ccc(O)c(CN(C)c2ccc3c(c2)CN(C)C3)n1

>  <inchikey>  (1069) 
GGZBBNZDBSGYTD-UHFFFAOYSA-N

>  <distance_score>  (1069) 
1.89523

>  <ref_mols>  (1069) 
Z0945a,Z0969a

>  <ref_pdb>  (1069) 
Z0945a

>  <HIPPO Compound ID>  (1069) 
142749

>  <name>  (1069) 
P70581

>  <inspiration_score>  (1069) 
None

$$$$
P70583
     RDKit          3D

 21 23  0  0  0  0  0  0  0  0999 V2000
  -10.1356    3.0239   -5.6684 C   0  0  0  0  0  0  0  0  0  0  0  0
   -9.3051    4.2138   -5.9067 N   0  0  0  0  0  0  0  0  0  0  0  0
   -8.1634    4.2956   -4.9923 C   0  0  0  0  0  0  0  0  0  0  0  0
   -8.8826    4.4002   -7.2483 C   0  0  0  0  0  0  0  0  0  0  0  0
   -8.5673    5.7122   -7.6771 C   0  0  0  0  0  0  0  0  0  0  0  0
   -8.2089    5.9926   -8.9967 C   0  0  0  0  0  0  0  0  0  0  0  0
   -8.1586    4.9442   -9.8877 C   0  0  0  0  0  0  0  0  0  0  0  0
   -8.4288    3.6457   -9.4903 C   0  0  0  0  0  0  0  0  0  0  0  0
   -8.7863    3.3536   -8.1815 C   0  0  0  0  0  0  0  0  0  0  0  0
   -8.2550    2.7322  -10.6695 C   0  0  0  0  0  0  0  0  0  0  0  0
   -8.1460    3.6328  -11.8573 N   0  0  0  0  0  0  0  0  0  0  0  0
   -7.1950    3.2178  -12.8983 C   0  0  1  0  0  0  0  0  0  0  0  0
   -7.3574    1.8295  -13.2231 O   0  0  0  0  0  0  0  0  0  0  0  0
   -7.2770    4.0308  -14.2373 C   0  0  0  0  0  0  0  0  0  0  0  0
   -8.4902    4.1383  -14.9102 C   0  0  0  0  0  0  0  0  0  0  0  0
   -8.4927    4.4996  -16.2515 C   0  0  0  0  0  0  0  0  0  0  0  0
   -9.6320    4.4396  -16.9545 F   0  0  0  0  0  0  0  0  0  0  0  0
   -7.3251    4.8561  -16.8935 C   0  0  0  0  0  0  0  0  0  0  0  0
   -6.1709    4.8194  -16.1409 C   0  0  0  0  0  0  0  0  0  0  0  0
   -6.1162    4.4107  -14.8452 N   0  0  0  0  0  0  0  0  0  0  0  0
   -7.8036    4.9643  -11.3317 C   0  0  0  0  0  0  0  0  0  0  0  0
  1  2  1  0
  2  3  1  0
  2  4  1  0
  4  5  2  0
  5  6  1  0
  6  7  2  0
  7  8  1  0
  8  9  2  0
  8 10  1  0
 10 11  1  0
 11 12  1  0
 12 13  1  6
 12 14  1  0
 14 15  2  0
 15 16  1  0
 16 17  1  0
 16 18  2  0
 18 19  1  0
 19 20  2  0
 11 21  1  0
  9  4  1  0
 20 14  1  0
 21  7  1  0
M  END
>  <energy_score>  (1070) 
-18.357386

>  <alias>  (1070) 
None

>  <HIPPO Pose ID>  (1070) 
70583

>  <smiles>  (1070) 
CN(C)c1ccc2c(c1)CN([C@@H](O)c1cc(F)ccn1)C2

>  <inchikey>  (1070) 
XVJVZLHULAYNQT-INIZCTEOSA-N

>  <distance_score>  (1070) 
1.970203

>  <ref_mols>  (1070) 
Z0945a,Z0969a

>  <ref_pdb>  (1070) 
Z0945a

>  <HIPPO Compound ID>  (1070) 
142755

>  <name>  (1070) 
P70583

>  <inspiration_score>  (1070) 
None

$$$$
P70585
     RDKit          3D

 21 23  0  0  0  0  0  0  0  0999 V2000
   -8.8028    3.6815   -5.0145 C   0  0  0  0  0  0  0  0  0  0  0  0
   -8.4893    4.9646   -5.6409 N   0  0  0  0  0  0  0  0  0  0  0  0
   -8.7335    6.1546   -4.8416 C   0  0  0  0  0  0  0  0  0  0  0  0
   -8.4471    5.0263   -7.0391 C   0  0  0  0  0  0  0  0  0  0  0  0
   -8.4454    6.2594   -7.7336 C   0  0  0  0  0  0  0  0  0  0  0  0
   -8.3431    6.3434   -9.1260 C   0  0  0  0  0  0  0  0  0  0  0  0
   -8.2229    5.1758   -9.8391 C   0  0  0  0  0  0  0  0  0  0  0  0
   -8.2151    3.9522   -9.2048 C   0  0  0  0  0  0  0  0  0  0  0  0
   -8.3429    3.8594   -7.8253 C   0  0  0  0  0  0  0  0  0  0  0  0
   -7.9996    2.8776  -10.2237 C   0  0  0  0  0  0  0  0  0  0  0  0
   -8.0914    3.5503  -11.5600 N   0  0  0  0  0  0  0  0  0  0  0  0
   -7.1061    3.1726  -12.5962 C   0  0  1  0  0  0  0  0  0  0  0  0
   -7.1756    1.7655  -12.8249 O   0  0  0  0  0  0  0  0  0  0  0  0
   -7.2604    3.8932  -13.9960 C   0  0  0  0  0  0  0  0  0  0  0  0
   -8.5325    4.1152  -14.5242 C   0  0  0  0  0  0  0  0  0  0  0  0
   -8.6947    4.5681  -15.8347 C   0  0  0  0  0  0  0  0  0  0  0  0
   -7.5778    4.8432  -16.5995 C   0  0  0  0  0  0  0  0  0  0  0  0
   -6.3392    4.6816  -16.0037 C   0  0  0  0  0  0  0  0  0  0  0  0
   -4.8911    5.1015  -16.9497 S   0  0  0  0  0  0  0  0  0  0  0  0
   -6.1510    4.2278  -14.7286 N   0  0  0  0  0  0  0  0  0  0  0  0
   -8.0206    4.9986  -11.2981 C   0  0  0  0  0  0  0  0  0  0  0  0
  1  2  1  0
  2  3  1  0
  2  4  1  0
  4  5  2  0
  5  6  1  0
  6  7  2  0
  7  8  1  0
  8  9  2  0
  8 10  1  0
 10 11  1  0
 11 12  1  0
 12 13  1  6
 12 14  1  0
 14 15  2  0
 15 16  1  0
 16 17  2  0
 17 18  1  0
 18 19  1  0
 18 20  2  0
 11 21  1  0
  9  4  1  0
 20 14  1  0
 21  7  1  0
M  END
>  <energy_score>  (1071) 
-38.821014

>  <alias>  (1071) 
None

>  <HIPPO Pose ID>  (1071) 
70585

>  <smiles>  (1071) 
CN(C)c1ccc2c(c1)CN([C@@H](O)c1cccc(S)n1)C2

>  <inchikey>  (1071) 
WQDUPIKJJXYLGT-INIZCTEOSA-N

>  <distance_score>  (1071) 
1.952121

>  <ref_mols>  (1071) 
Z0945a,Z0969a

>  <ref_pdb>  (1071) 
Z0945a

>  <HIPPO Compound ID>  (1071) 
142757

>  <name>  (1071) 
P70585

>  <inspiration_score>  (1071) 
None

$$$$
P70586
     RDKit          3D

 21 23  0  0  0  0  0  0  0  0999 V2000
   -9.0291    3.7005   -5.0297 C   0  0  0  0  0  0  0  0  0  0  0  0
   -8.9562    5.0078   -5.6877 N   0  0  0  0  0  0  0  0  0  0  0  0
   -8.3807    6.0787   -4.8769 C   0  0  0  0  0  0  0  0  0  0  0  0
   -8.6695    5.0286   -7.0678 C   0  0  0  0  0  0  0  0  0  0  0  0
   -8.5503    6.2583   -7.7628 C   0  0  0  0  0  0  0  0  0  0  0  0
   -8.3352    6.3300   -9.1409 C   0  0  0  0  0  0  0  0  0  0  0  0
   -8.2322    5.1528   -9.8395 C   0  0  0  0  0  0  0  0  0  0  0  0
   -8.3208    3.9325   -9.2014 C   0  0  0  0  0  0  0  0  0  0  0  0
   -8.5487    3.8502   -7.8331 C   0  0  0  0  0  0  0  0  0  0  0  0
   -8.1194    2.8460  -10.2108 C   0  0  0  0  0  0  0  0  0  0  0  0
   -8.1262    3.5179  -11.5513 N   0  0  0  0  0  0  0  0  0  0  0  0
   -7.1088    3.0965  -12.5313 C   0  0  1  0  0  0  0  0  0  0  0  0
   -7.2120    1.6922  -12.7687 O   0  0  0  0  0  0  0  0  0  0  0  0
   -7.1319    3.8299  -13.9277 C   0  0  0  0  0  0  0  0  0  0  0  0
   -8.3099    3.9472  -14.6644 C   0  0  0  0  0  0  0  0  0  0  0  0
   -8.2669    4.3440  -16.0011 C   0  0  0  0  0  0  0  0  0  0  0  0
   -9.4136    4.2815  -16.7400 O   0  0  0  0  0  0  0  0  0  0  0  0
   -7.0741    4.7351  -16.5723 C   0  0  0  0  0  0  0  0  0  0  0  0
   -5.9575    4.6933  -15.7581 C   0  0  0  0  0  0  0  0  0  0  0  0
   -5.9520    4.2586  -14.4679 N   0  0  0  0  0  0  0  0  0  0  0  0
   -7.9919    4.9611  -11.2910 C   0  0  0  0  0  0  0  0  0  0  0  0
  1  2  1  0
  2  3  1  0
  2  4  1  0
  4  5  2  0
  5  6  1  0
  6  7  2  0
  7  8  1  0
  8  9  2  0
  8 10  1  0
 10 11  1  0
 11 12  1  0
 12 13  1  6
 12 14  1  0
 14 15  2  0
 15 16  1  0
 16 17  1  0
 16 18  2  0
 18 19  1  0
 19 20  2  0
 11 21  1  0
  9  4  1  0
 20 14  1  0
 21  7  1  0
M  END
>  <energy_score>  (1072) 
-27.79832

>  <alias>  (1072) 
None

>  <HIPPO Pose ID>  (1072) 
70586

>  <smiles>  (1072) 
CN(C)c1ccc2c(c1)CN([C@@H](O)c1cc(O)ccn1)C2

>  <inchikey>  (1072) 
JSAPYXOCHPDZLV-INIZCTEOSA-N

>  <distance_score>  (1072) 
1.963513

>  <ref_mols>  (1072) 
Z0945a,Z0969a

>  <ref_pdb>  (1072) 
Z0945a

>  <HIPPO Compound ID>  (1072) 
142761

>  <name>  (1072) 
P70586

>  <inspiration_score>  (1072) 
None

$$$$
P70587
     RDKit          3D

 21 23  0  0  0  0  0  0  0  0999 V2000
   -9.6155    3.6611   -5.1920 C   0  0  0  0  0  0  0  0  0  0  0  0
   -8.7558    4.7630   -5.6416 N   0  0  0  0  0  0  0  0  0  0  0  0
   -8.7756    5.9514   -4.8008 C   0  0  0  0  0  0  0  0  0  0  0  0
   -8.5906    4.8898   -7.0308 C   0  0  0  0  0  0  0  0  0  0  0  0
   -8.4914    6.1470   -7.6733 C   0  0  0  0  0  0  0  0  0  0  0  0
   -8.3079    6.2755   -9.0547 C   0  0  0  0  0  0  0  0  0  0  0  0
   -8.1989    5.1294   -9.8042 C   0  0  0  0  0  0  0  0  0  0  0  0
   -8.2632    3.8852   -9.2123 C   0  0  0  0  0  0  0  0  0  0  0  0
   -8.4622    3.7474   -7.8457 C   0  0  0  0  0  0  0  0  0  0  0  0
   -8.0364    2.8390  -10.2565 C   0  0  0  0  0  0  0  0  0  0  0  0
   -8.0732    3.5552  -11.5704 N   0  0  0  0  0  0  0  0  0  0  0  0
   -7.0968    3.1601  -12.6075 C   0  0  1  0  0  0  0  0  0  0  0  0
   -7.1915    1.7556  -12.8495 O   0  0  0  0  0  0  0  0  0  0  0  0
   -7.2393    3.8913  -14.0022 C   0  0  0  0  0  0  0  0  0  0  0  0
   -8.5083    4.1226  -14.5385 C   0  0  0  0  0  0  0  0  0  0  0  0
   -8.6599    4.5789  -15.8506 C   0  0  0  0  0  0  0  0  0  0  0  0
   -7.5343    4.8412  -16.6077 C   0  0  0  0  0  0  0  0  0  0  0  0
   -6.3059    4.6648  -16.0031 C   0  0  0  0  0  0  0  0  0  0  0  0
   -5.2205    4.9765  -16.7335 F   0  0  0  0  0  0  0  0  0  0  0  0
   -6.1231    4.2152  -14.7275 N   0  0  0  0  0  0  0  0  0  0  0  0
   -7.9392    4.9895  -11.2598 C   0  0  0  0  0  0  0  0  0  0  0  0
  1  2  1  0
  2  3  1  0
  2  4  1  0
  4  5  2  0
  5  6  1  0
  6  7  2  0
  7  8  1  0
  8  9  2  0
  8 10  1  0
 10 11  1  0
 11 12  1  0
 12 13  1  6
 12 14  1  0
 14 15  2  0
 15 16  1  0
 16 17  2  0
 17 18  1  0
 18 19  1  0
 18 20  2  0
 11 21  1  0
  9  4  1  0
 20 14  1  0
 21  7  1  0
M  END
>  <energy_score>  (1073) 
-26.497566

>  <alias>  (1073) 
None

>  <HIPPO Pose ID>  (1073) 
70587

>  <smiles>  (1073) 
CN(C)c1ccc2c(c1)CN([C@@H](O)c1cccc(F)n1)C2

>  <inchikey>  (1073) 
JNCFLOPNYHFROP-INIZCTEOSA-N

>  <distance_score>  (1073) 
1.965271

>  <ref_mols>  (1073) 
Z0945a,Z0969a

>  <ref_pdb>  (1073) 
Z0945a

>  <HIPPO Compound ID>  (1073) 
142762

>  <name>  (1073) 
P70587

>  <inspiration_score>  (1073) 
None

$$$$
P70588
     RDKit          3D

 21 23  0  0  0  0  0  0  0  0999 V2000
   -9.8476    3.1961   -5.5027 C   0  0  0  0  0  0  0  0  0  0  0  0
   -9.0138    4.3600   -5.8183 N   0  0  0  0  0  0  0  0  0  0  0  0
   -9.0824    5.4659   -4.8770 C   0  0  0  0  0  0  0  0  0  0  0  0
   -8.7271    4.5949   -7.1712 C   0  0  0  0  0  0  0  0  0  0  0  0
   -8.4695    5.8948   -7.6709 C   0  0  0  0  0  0  0  0  0  0  0  0
   -8.1816    6.1421   -9.0165 C   0  0  0  0  0  0  0  0  0  0  0  0
   -8.1395    5.0722   -9.8771 C   0  0  0  0  0  0  0  0  0  0  0  0
   -8.3665    3.7839   -9.4303 C   0  0  0  0  0  0  0  0  0  0  0  0
   -8.6484    3.5307   -8.0946 C   0  0  0  0  0  0  0  0  0  0  0  0
   -8.2173    2.8366  -10.5844 C   0  0  0  0  0  0  0  0  0  0  0  0
   -8.1551    3.7115  -11.7984 N   0  0  0  0  0  0  0  0  0  0  0  0
   -7.2439    3.2616  -12.8735 C   0  0  0  0  0  0  0  0  0  0  0  0
   -7.3666    4.0014  -14.2375 C   0  0  0  0  0  0  0  0  0  0  0  0
   -8.6284    4.2265  -14.7812 C   0  0  0  0  0  0  0  0  0  0  0  0
   -8.7674    4.6443  -16.1051 C   0  0  0  0  0  0  0  0  0  0  0  0
   -7.6366    4.8769  -16.8678 C   0  0  0  0  0  0  0  0  0  0  0  0
   -6.4051    4.7053  -16.2562 C   0  0  0  0  0  0  0  0  0  0  0  0
   -5.2101    4.9835  -17.0105 C   0  0  0  0  0  0  0  0  0  0  0  0
   -4.2683    5.2327  -17.6470 N   0  0  0  0  0  0  0  0  0  0  0  0
   -6.2423    4.2781  -14.9633 N   0  0  0  0  0  0  0  0  0  0  0  0
   -7.8110    5.0583  -11.3258 C   0  0  0  0  0  0  0  0  0  0  0  0
  1  2  1  0
  2  3  1  0
  2  4  1  0
  4  5  2  0
  5  6  1  0
  6  7  2  0
  7  8  1  0
  8  9  2  0
  8 10  1  0
 10 11  1  0
 11 12  1  0
 12 13  1  0
 13 14  2  0
 14 15  1  0
 15 16  2  0
 16 17  1  0
 17 18  1  0
 18 19  3  0
 17 20  2  0
 11 21  1  0
  9  4  1  0
 20 13  1  0
 21  7  1  0
M  END
>  <energy_score>  (1074) 
-21.159208

>  <alias>  (1074) 
None

>  <HIPPO Pose ID>  (1074) 
70588

>  <smiles>  (1074) 
CN(C)c1ccc2c(c1)CN(Cc1cccc(C#N)n1)C2

>  <inchikey>  (1074) 
HXNICFIFRMBGBE-UHFFFAOYSA-N

>  <distance_score>  (1074) 
1.924157

>  <ref_mols>  (1074) 
Z0945a,Z0969a

>  <ref_pdb>  (1074) 
Z0945a

>  <HIPPO Compound ID>  (1074) 
142764

>  <name>  (1074) 
P70588

>  <inspiration_score>  (1074) 
None

$$$$
P70589
     RDKit          3D

 25 28  0  0  0  0  0  0  0  0999 V2000
   -4.4302    7.0850  -17.2351 C   0  0  0  0  0  0  0  0  0  0  0  0
   -5.2607    6.2429  -16.3094 C   0  0  0  0  0  0  0  0  0  0  0  0
   -4.8695    6.1529  -14.9760 C   0  0  0  0  0  0  0  0  0  0  0  0
   -5.6377    5.4445  -14.0645 C   0  0  0  0  0  0  0  0  0  0  0  0
   -6.8579    4.8498  -14.4115 C   0  0  0  0  0  0  0  0  0  0  0  0
   -7.5995    4.1520  -13.3340 C   0  0  0  0  0  0  0  0  0  0  0  0
   -7.9742    3.0569  -13.4825 O   0  0  0  0  0  0  0  0  0  0  0  0
   -7.6480    5.0702  -12.0852 N   0  0  0  0  0  0  0  0  0  0  0  0
   -8.0654    4.8058  -10.7862 C   0  0  0  0  0  0  0  0  0  0  0  0
   -7.9141    5.8653   -9.8663 C   0  0  0  0  0  0  0  0  0  0  0  0
   -8.1686    5.6841   -8.5089 C   0  0  0  0  0  0  0  0  0  0  0  0
   -8.5736    4.4322   -8.0939 C   0  0  0  0  0  0  0  0  0  0  0  0
   -8.7427    3.3880   -9.0020 C   0  0  0  0  0  0  0  0  0  0  0  0
   -8.4964    3.5535  -10.3594 C   0  0  0  0  0  0  0  0  0  0  0  0
   -9.2116    2.1689   -8.2711 C   0  0  0  0  0  0  0  0  0  0  0  0
   -9.2125    2.5406   -6.8372 N   0  0  0  0  0  0  0  0  0  0  0  0
  -10.3996    2.1231   -6.1208 C   0  0  0  0  0  0  0  0  0  0  0  0
   -8.9201    3.9716   -6.7168 C   0  0  0  0  0  0  0  0  0  0  0  0
   -7.2024    4.8527  -15.7644 C   0  0  0  0  0  0  0  0  0  0  0  0
   -8.2690    4.2974  -16.4497 N   0  0  0  0  0  0  0  0  0  0  0  0
   -8.0729    4.4287  -17.8033 C   0  0  0  0  0  0  0  0  0  0  0  0
   -6.8742    5.0809  -17.9880 C   0  0  0  0  0  0  0  0  0  0  0  0
   -6.1334    5.2570  -19.1974 C   0  0  0  0  0  0  0  0  0  0  0  0
   -5.3839    5.4370  -20.0668 N   0  0  0  0  0  0  0  0  0  0  0  0
   -6.3861    5.4785  -16.7153 C   0  0  0  0  0  0  0  0  0  0  0  0
  1  2  1  0
  2  3  2  0
  3  4  1  0
  4  5  2  0
  5  6  1  0
  6  7  2  0
  6  8  1  0
  8  9  1  0
  9 10  2  0
 10 11  1  0
 11 12  2  0
 12 13  1  0
 13 14  2  0
 13 15  1  0
 15 16  1  0
 16 17  1  0
 16 18  1  0
  5 19  1  0
 19 20  1  0
 20 21  1  0
 21 22  2  0
 22 23  1  0
 23 24  3  0
 22 25  1  0
 25  2  1  0
 14  9  1  0
 25 19  2  0
 18 12  1  0
M  END
>  <energy_score>  (1075) 
-17.634948

>  <alias>  (1075) 
None

>  <HIPPO Pose ID>  (1075) 
70589

>  <smiles>  (1075) 
Cc1ccc(C(=O)Nc2ccc3c(c2)CN(C)C3)c2[nH]cc(C#N)c12

>  <inchikey>  (1075) 
KVRFXEPKYXPRMR-UHFFFAOYSA-N

>  <distance_score>  (1075) 
1.737767

>  <ref_mols>  (1075) 
Z4983a,Z3842a

>  <ref_pdb>  (1075) 
Z3842a

>  <HIPPO Compound ID>  (1075) 
142775

>  <name>  (1075) 
P70589

>  <inspiration_score>  (1075) 
None

$$$$
P70590
     RDKit          3D

 25 28  0  0  0  0  0  0  0  0999 V2000
   -4.4431    7.1085  -17.2320 C   0  0  0  0  0  0  0  0  0  0  0  0
   -5.2868    6.2779  -16.3078 C   0  0  0  0  0  0  0  0  0  0  0  0
   -4.9236    6.2175  -14.9645 C   0  0  0  0  0  0  0  0  0  0  0  0
   -5.7016    5.5163  -14.0550 C   0  0  0  0  0  0  0  0  0  0  0  0
   -6.9029    4.8938  -14.4172 C   0  0  0  0  0  0  0  0  0  0  0  0
   -7.6542    4.1814  -13.3548 C   0  0  0  0  0  0  0  0  0  0  0  0
   -8.0573    3.1020  -13.5367 O   0  0  0  0  0  0  0  0  0  0  0  0
   -7.6706    5.0575  -12.0764 N   0  0  0  0  0  0  0  0  0  0  0  0
   -8.0850    4.7603  -10.7844 C   0  0  0  0  0  0  0  0  0  0  0  0
   -7.9651    5.8077   -9.8418 C   0  0  0  0  0  0  0  0  0  0  0  0
   -8.1998    5.5854   -8.4873 C   0  0  0  0  0  0  0  0  0  0  0  0
   -8.5599    4.3073   -8.1194 C   0  0  0  0  0  0  0  0  0  0  0  0
   -8.7073    3.2683   -9.0374 C   0  0  0  0  0  0  0  0  0  0  0  0
   -8.4718    3.4789  -10.3883 C   0  0  0  0  0  0  0  0  0  0  0  0
   -9.0798    2.0178   -8.3134 C   0  0  0  0  0  0  0  0  0  0  0  0
   -9.2283    2.4742   -6.9428 N   0  0  0  0  0  0  0  0  0  0  0  0
   -8.8359    3.7825   -6.7794 C   0  0  0  0  0  0  0  0  0  0  0  0
   -8.7124    4.4081   -5.7428 O   0  0  0  0  0  0  0  0  0  0  0  0
   -7.2238    4.8776  -15.7765 C   0  0  0  0  0  0  0  0  0  0  0  0
   -8.2741    4.3021  -16.4707 N   0  0  0  0  0  0  0  0  0  0  0  0
   -8.0629    4.4247  -17.8222 C   0  0  0  0  0  0  0  0  0  0  0  0
   -6.8678    5.0858  -17.9977 C   0  0  0  0  0  0  0  0  0  0  0  0
   -6.1182    5.2593  -19.2020 C   0  0  0  0  0  0  0  0  0  0  0  0
   -5.3655    5.4380  -20.0687 N   0  0  0  0  0  0  0  0  0  0  0  0
   -6.3993    5.4996  -16.7224 C   0  0  0  0  0  0  0  0  0  0  0  0
  1  2  1  0
  2  3  2  0
  3  4  1  0
  4  5  2  0
  5  6  1  0
  6  7  2  0
  6  8  1  0
  8  9  1  0
  9 10  2  0
 10 11  1  0
 11 12  2  0
 12 13  1  0
 13 14  2  0
 13 15  1  0
 15 16  1  0
 16 17  1  0
 17 18  2  0
  5 19  1  0
 19 20  1  0
 20 21  1  0
 21 22  2  0
 22 23  1  0
 23 24  3  0
 22 25  1  0
 25  2  1  0
 14  9  1  0
 25 19  2  0
 17 12  1  0
M  END
>  <energy_score>  (1076) 
-31.31566

>  <alias>  (1076) 
None

>  <HIPPO Pose ID>  (1076) 
70590

>  <smiles>  (1076) 
Cc1ccc(C(=O)Nc2ccc3c(c2)CNC3=O)c2[nH]cc(C#N)c12

>  <inchikey>  (1076) 
FGLZBOIZXZCTGP-UHFFFAOYSA-N

>  <distance_score>  (1076) 
1.738635

>  <ref_mols>  (1076) 
Z4983a,Z3842a

>  <ref_pdb>  (1076) 
Z3842a

>  <HIPPO Compound ID>  (1076) 
142776

>  <name>  (1076) 
P70590

>  <inspiration_score>  (1076) 
None

$$$$
P70591
     RDKit          3D

 25 28  0  0  0  0  0  0  0  0999 V2000
   -4.4479    7.0431  -17.1473 C   0  0  0  0  0  0  0  0  0  0  0  0
   -5.2806    6.1901  -16.2327 C   0  0  0  0  0  0  0  0  0  0  0  0
   -4.8835    6.0684  -14.9037 C   0  0  0  0  0  0  0  0  0  0  0  0
   -5.6548    5.3502  -14.0006 C   0  0  0  0  0  0  0  0  0  0  0  0
   -6.8858    4.7776  -14.3481 C   0  0  0  0  0  0  0  0  0  0  0  0
   -7.6415    4.0742  -13.2779 C   0  0  0  0  0  0  0  0  0  0  0  0
   -8.0575    2.9988  -13.4550 O   0  0  0  0  0  0  0  0  0  0  0  0
   -7.6419    4.9544  -12.0006 N   0  0  0  0  0  0  0  0  0  0  0  0
   -8.0543    4.6642  -10.7024 C   0  0  0  0  0  0  0  0  0  0  0  0
   -7.7689    5.6707   -9.7476 C   0  0  0  0  0  0  0  0  0  0  0  0
   -7.9980    5.4764   -8.3857 C   0  0  0  0  0  0  0  0  0  0  0  0
   -8.5356    4.2687   -7.9977 C   0  0  0  0  0  0  0  0  0  0  0  0
   -8.8622    3.2959   -8.9500 C   0  0  0  0  0  0  0  0  0  0  0  0
   -8.6203    3.4552  -10.3081 C   0  0  0  0  0  0  0  0  0  0  0  0
   -9.5002    2.1885   -8.2214 C   0  0  0  0  0  0  0  0  0  0  0  0
   -9.9976    1.1899   -8.6919 O   0  0  0  0  0  0  0  0  0  0  0  0
   -9.4980    2.5257   -6.8832 N   0  0  0  0  0  0  0  0  0  0  0  0
   -8.8657    3.7836   -6.6273 C   0  0  0  0  0  0  0  0  0  0  0  0
   -7.2326    4.8080  -15.7020 C   0  0  0  0  0  0  0  0  0  0  0  0
   -8.3058    4.2737  -16.3950 N   0  0  0  0  0  0  0  0  0  0  0  0
   -8.1113    4.4246  -17.7473 C   0  0  0  0  0  0  0  0  0  0  0  0
   -6.9093    5.0721  -17.9254 C   0  0  0  0  0  0  0  0  0  0  0  0
   -6.1714    5.2667  -19.1345 C   0  0  0  0  0  0  0  0  0  0  0  0
   -5.4218    5.4624  -20.0006 N   0  0  0  0  0  0  0  0  0  0  0  0
   -6.4140    5.4425  -16.6464 C   0  0  0  0  0  0  0  0  0  0  0  0
  1  2  1  0
  2  3  2  0
  3  4  1  0
  4  5  2  0
  5  6  1  0
  6  7  2  0
  6  8  1  0
  8  9  1  0
  9 10  2  0
 10 11  1  0
 11 12  2  0
 12 13  1  0
 13 14  2  0
 13 15  1  0
 15 16  2  0
 15 17  1  0
 17 18  1  0
  5 19  1  0
 19 20  1  0
 20 21  1  0
 21 22  2  0
 22 23  1  0
 23 24  3  0
 22 25  1  0
 25  2  1  0
 14  9  1  0
 25 19  2  0
 18 12  1  0
M  END
>  <energy_score>  (1077) 
-24.440355

>  <alias>  (1077) 
None

>  <HIPPO Pose ID>  (1077) 
70591

>  <smiles>  (1077) 
Cc1ccc(C(=O)Nc2ccc3c(c2)C(=O)NC3)c2[nH]cc(C#N)c12

>  <inchikey>  (1077) 
REHMLBUYHZKETM-UHFFFAOYSA-N

>  <distance_score>  (1077) 
1.741707

>  <ref_mols>  (1077) 
Z4983a,Z3842a

>  <ref_pdb>  (1077) 
Z3842a

>  <HIPPO Compound ID>  (1077) 
142777

>  <name>  (1077) 
P70591

>  <inspiration_score>  (1077) 
None

$$$$
P70595
     RDKit          3D

 26 29  0  0  0  0  0  0  0  0999 V2000
   -4.4012    7.0894  -17.2628 C   0  0  0  0  0  0  0  0  0  0  0  0
   -5.2142    6.2240  -16.3430 C   0  0  0  0  0  0  0  0  0  0  0  0
   -4.8000    6.1035  -15.0192 C   0  0  0  0  0  0  0  0  0  0  0  0
   -5.5545    5.3763  -14.1121 C   0  0  0  0  0  0  0  0  0  0  0  0
   -6.7825    4.7944  -14.4534 C   0  0  0  0  0  0  0  0  0  0  0  0
   -7.5185    4.0998  -13.3726 C   0  0  0  0  0  0  0  0  0  0  0  0
   -7.8939    3.0037  -13.5086 O   0  0  0  0  0  0  0  0  0  0  0  0
   -7.5605    5.0295  -12.1329 N   0  0  0  0  0  0  0  0  0  0  0  0
   -7.9707    4.7779  -10.8313 C   0  0  0  0  0  0  0  0  0  0  0  0
   -7.7990    5.8469   -9.9209 C   0  0  0  0  0  0  0  0  0  0  0  0
   -8.0837    5.6915   -8.5688 C   0  0  0  0  0  0  0  0  0  0  0  0
   -8.5337    4.4531   -8.1688 C   0  0  0  0  0  0  0  0  0  0  0  0
   -8.7211    3.3906   -9.0538 C   0  0  0  0  0  0  0  0  0  0  0  0
   -8.4383    3.5355  -10.4037 C   0  0  0  0  0  0  0  0  0  0  0  0
   -9.2828    2.2212   -8.3154 C   0  0  0  0  0  0  0  0  0  0  0  0
   -9.4345    2.7483   -6.9636 N   0  0  0  0  0  0  0  0  0  0  0  0
  -10.2630    2.0943   -5.9866 C   0  0  0  0  0  0  0  0  0  0  0  0
   -9.0047    4.0512   -6.8414 C   0  0  0  0  0  0  0  0  0  0  0  0
   -9.0581    4.7968   -5.8794 O   0  0  0  0  0  0  0  0  0  0  0  0
   -7.1505    4.8257  -15.7986 C   0  0  0  0  0  0  0  0  0  0  0  0
   -8.2313    4.2922  -16.4788 N   0  0  0  0  0  0  0  0  0  0  0  0
   -8.0490    4.4424  -17.8325 C   0  0  0  0  0  0  0  0  0  0  0  0
   -6.8497    5.0923  -18.0201 C   0  0  0  0  0  0  0  0  0  0  0  0
   -6.1176    5.2828  -19.2321 C   0  0  0  0  0  0  0  0  0  0  0  0
   -5.3715    5.4741  -20.1019 N   0  0  0  0  0  0  0  0  0  0  0  0
   -6.3459    5.4681  -16.7476 C   0  0  0  0  0  0  0  0  0  0  0  0
  1  2  1  0
  2  3  2  0
  3  4  1  0
  4  5  2  0
  5  6  1  0
  6  7  2  0
  6  8  1  0
  8  9  1  0
  9 10  2  0
 10 11  1  0
 11 12  2  0
 12 13  1  0
 13 14  2  0
 13 15  1  0
 15 16  1  0
 16 17  1  0
 16 18  1  0
 18 19  2  0
  5 20  1  0
 20 21  1  0
 21 22  1  0
 22 23  2  0
 23 24  1  0
 24 25  3  0
 23 26  1  0
 26  2  1  0
 14  9  1  0
 26 20  2  0
 18 12  1  0
M  END
>  <energy_score>  (1078) 
-24.206856

>  <alias>  (1078) 
None

>  <HIPPO Pose ID>  (1078) 
70595

>  <smiles>  (1078) 
Cc1ccc(C(=O)Nc2ccc3c(c2)CN(C)C3=O)c2[nH]cc(C#N)c12

>  <inchikey>  (1078) 
OXUNGLHHHLRIFN-UHFFFAOYSA-N

>  <distance_score>  (1078) 
1.738688

>  <ref_mols>  (1078) 
Z4983a,Z3842a

>  <ref_pdb>  (1078) 
Z3842a

>  <HIPPO Compound ID>  (1078) 
142782

>  <name>  (1078) 
P70595

>  <inspiration_score>  (1078) 
None

$$$$
P70596
     RDKit          3D

 26 29  0  0  0  0  0  0  0  0999 V2000
   -4.4661    7.0401  -17.1240 C   0  0  0  0  0  0  0  0  0  0  0  0
   -5.2970    6.1787  -16.2152 C   0  0  0  0  0  0  0  0  0  0  0  0
   -4.8999    6.0492  -14.8871 C   0  0  0  0  0  0  0  0  0  0  0  0
   -5.6686    5.3212  -13.9897 C   0  0  0  0  0  0  0  0  0  0  0  0
   -6.8976    4.7451  -14.3407 C   0  0  0  0  0  0  0  0  0  0  0  0
   -7.6432    4.0280  -13.2711 C   0  0  0  0  0  0  0  0  0  0  0  0
   -8.0424    2.9461  -13.4461 O   0  0  0  0  0  0  0  0  0  0  0  0
   -7.6570    4.9104  -11.9955 N   0  0  0  0  0  0  0  0  0  0  0  0
   -8.0646    4.6162  -10.6967 C   0  0  0  0  0  0  0  0  0  0  0  0
   -7.7781    5.6300   -9.7463 C   0  0  0  0  0  0  0  0  0  0  0  0
   -7.9776    5.4271   -8.3835 C   0  0  0  0  0  0  0  0  0  0  0  0
   -8.4824    4.2024   -8.0103 C   0  0  0  0  0  0  0  0  0  0  0  0
   -8.8213    3.2235   -8.9331 C   0  0  0  0  0  0  0  0  0  0  0  0
   -8.6128    3.3957  -10.2958 C   0  0  0  0  0  0  0  0  0  0  0  0
   -9.4154    2.1261   -8.1604 C   0  0  0  0  0  0  0  0  0  0  0  0
   -9.9973    1.1651   -8.6148 O   0  0  0  0  0  0  0  0  0  0  0  0
   -9.2917    2.4562   -6.8422 N   0  0  0  0  0  0  0  0  0  0  0  0
   -8.7756    3.6976   -6.6716 C   0  0  0  0  0  0  0  0  0  0  0  0
   -8.5915    4.3235   -5.6440 O   0  0  0  0  0  0  0  0  0  0  0  0
   -7.2454    4.7861  -15.6942 C   0  0  0  0  0  0  0  0  0  0  0  0
   -8.3172    4.2560  -16.3922 N   0  0  0  0  0  0  0  0  0  0  0  0
   -8.1221    4.4170  -17.7433 C   0  0  0  0  0  0  0  0  0  0  0  0
   -6.9209    5.0674  -17.9160 C   0  0  0  0  0  0  0  0  0  0  0  0
   -6.1813    5.2708  -19.1228 C   0  0  0  0  0  0  0  0  0  0  0  0
   -5.4303    5.4730  -19.9862 N   0  0  0  0  0  0  0  0  0  0  0  0
   -6.4282    5.4306  -16.6338 C   0  0  0  0  0  0  0  0  0  0  0  0
  1  2  1  0
  2  3  2  0
  3  4  1  0
  4  5  2  0
  5  6  1  0
  6  7  2  0
  6  8  1  0
  8  9  1  0
  9 10  2  0
 10 11  1  0
 11 12  2  0
 12 13  1  0
 13 14  2  0
 13 15  1  0
 15 16  2  0
 15 17  1  0
 17 18  1  0
 18 19  2  0
  5 20  1  0
 20 21  1  0
 21 22  1  0
 22 23  2  0
 23 24  1  0
 24 25  3  0
 23 26  1  0
 26  2  1  0
 14  9  1  0
 26 20  2  0
 18 12  1  0
M  END
>  <energy_score>  (1079) 
-17.839916

>  <alias>  (1079) 
None

>  <HIPPO Pose ID>  (1079) 
70596

>  <smiles>  (1079) 
Cc1ccc(C(=O)Nc2ccc3c(c2)C(=O)NC3=O)c2[nH]cc(C#N)c12

>  <inchikey>  (1079) 
YIBGOWSMGMKNLC-UHFFFAOYSA-N

>  <distance_score>  (1079) 
1.735475

>  <ref_mols>  (1079) 
Z4983a,Z3842a

>  <ref_pdb>  (1079) 
Z3842a

>  <HIPPO Compound ID>  (1079) 
142783

>  <name>  (1079) 
P70596

>  <inspiration_score>  (1079) 
None

$$$$
P70597
     RDKit          3D

 27 30  0  0  0  0  0  0  0  0999 V2000
   -4.4031    7.0397  -17.1795 C   0  0  0  0  0  0  0  0  0  0  0  0
   -5.2299    6.1769  -16.2690 C   0  0  0  0  0  0  0  0  0  0  0  0
   -4.8240    6.0404  -14.9440 C   0  0  0  0  0  0  0  0  0  0  0  0
   -5.5932    5.3186  -14.0427 C   0  0  0  0  0  0  0  0  0  0  0  0
   -6.8281    4.7553  -14.3902 C   0  0  0  0  0  0  0  0  0  0  0  0
   -7.6043    4.0749  -13.3210 C   0  0  0  0  0  0  0  0  0  0  0  0
   -8.0801    3.0259  -13.5011 O   0  0  0  0  0  0  0  0  0  0  0  0
   -7.5366    4.9396  -12.0372 N   0  0  0  0  0  0  0  0  0  0  0  0
   -7.9420    4.6594  -10.7379 C   0  0  0  0  0  0  0  0  0  0  0  0
   -7.6847    5.6913   -9.8003 C   0  0  0  0  0  0  0  0  0  0  0  0
   -7.9680    5.5297   -8.4476 C   0  0  0  0  0  0  0  0  0  0  0  0
   -8.5143    4.3233   -8.0724 C   0  0  0  0  0  0  0  0  0  0  0  0
   -8.7885    3.3150   -8.9821 C   0  0  0  0  0  0  0  0  0  0  0  0
   -8.5038    3.4475  -10.3339 C   0  0  0  0  0  0  0  0  0  0  0  0
   -9.5024    2.2714   -8.2416 C   0  0  0  0  0  0  0  0  0  0  0  0
  -10.0258    1.3029   -8.7513 O   0  0  0  0  0  0  0  0  0  0  0  0
   -9.5662    2.6839   -6.9352 N   0  0  0  0  0  0  0  0  0  0  0  0
  -10.3963    2.0414   -5.9501 C   0  0  0  0  0  0  0  0  0  0  0  0
   -9.0221    3.9200   -6.7662 C   0  0  0  0  0  0  0  0  0  0  0  0
   -9.0086    4.6476   -5.7884 O   0  0  0  0  0  0  0  0  0  0  0  0
   -7.1845    4.7993  -15.7407 C   0  0  0  0  0  0  0  0  0  0  0  0
   -8.2676    4.2811  -16.4306 N   0  0  0  0  0  0  0  0  0  0  0  0
   -8.0800    4.4414  -17.7825 C   0  0  0  0  0  0  0  0  0  0  0  0
   -6.8752    5.0834  -17.9619 C   0  0  0  0  0  0  0  0  0  0  0  0
   -6.1439    5.2869  -19.1731 C   0  0  0  0  0  0  0  0  0  0  0  0
   -5.3986    5.4896  -20.0410 N   0  0  0  0  0  0  0  0  0  0  0  0
   -6.3687    5.4380  -16.6834 C   0  0  0  0  0  0  0  0  0  0  0  0
  1  2  1  0
  2  3  2  0
  3  4  1  0
  4  5  2  0
  5  6  1  0
  6  7  2  0
  6  8  1  0
  8  9  1  0
  9 10  2  0
 10 11  1  0
 11 12  2  0
 12 13  1  0
 13 14  2  0
 13 15  1  0
 15 16  2  0
 15 17  1  0
 17 18  1  0
 17 19  1  0
 19 20  2  0
  5 21  1  0
 21 22  1  0
 22 23  1  0
 23 24  2  0
 24 25  1  0
 25 26  3  0
 24 27  1  0
 27  2  1  0
 14  9  1  0
 27 21  2  0
 19 12  1  0
M  END
>  <energy_score>  (1080) 
-21.721632

>  <alias>  (1080) 
None

>  <HIPPO Pose ID>  (1080) 
70597

>  <smiles>  (1080) 
Cc1ccc(C(=O)Nc2ccc3c(c2)C(=O)N(C)C3=O)c2[nH]cc(C#N)c12

>  <inchikey>  (1080) 
OZSVJNHREJSTTK-UHFFFAOYSA-N

>  <distance_score>  (1080) 
1.743905

>  <ref_mols>  (1080) 
Z4983a,Z3842a

>  <ref_pdb>  (1080) 
Z3842a

>  <HIPPO Compound ID>  (1080) 
142784

>  <name>  (1080) 
P70597

>  <inspiration_score>  (1080) 
None

$$$$
P70601
     RDKit          3D

 28 31  0  0  0  0  0  0  0  0999 V2000
   -4.2979    7.0390  -17.4269 C   0  0  0  0  0  0  0  0  0  0  0  0
   -5.1258    6.1755  -16.5202 C   0  0  0  0  0  0  0  0  0  0  0  0
   -4.7022    6.0135  -15.2052 C   0  0  0  0  0  0  0  0  0  0  0  0
   -5.4824    5.3063  -14.3079 C   0  0  0  0  0  0  0  0  0  0  0  0
   -6.7434    4.7982  -14.6516 C   0  0  0  0  0  0  0  0  0  0  0  0
   -7.5365    4.2040  -13.5600 C   0  0  0  0  0  0  0  0  0  0  0  0
   -8.0234    3.1497  -13.6474 O   0  0  0  0  0  0  0  0  0  0  0  0
   -7.4687    5.1797  -12.3642 N   0  0  0  0  0  0  0  0  0  0  0  0
   -7.8856    5.0264  -11.0565 C   0  0  0  0  0  0  0  0  0  0  0  0
   -7.6054    6.1260  -10.2149 C   0  0  0  0  0  0  0  0  0  0  0  0
   -7.7697    6.0370   -8.8421 C   0  0  0  0  0  0  0  0  0  0  0  0
   -8.2424    4.8446   -8.3499 C   0  0  0  0  0  0  0  0  0  0  0  0
   -8.5855    3.7717   -9.1870 C   0  0  0  0  0  0  0  0  0  0  0  0
   -8.3960    3.8351  -10.5533 C   0  0  0  0  0  0  0  0  0  0  0  0
   -9.1464    2.6671   -8.3442 C   0  0  0  0  0  0  0  0  0  0  0  0
   -9.4426    3.3745   -7.0717 N   0  0  0  0  0  0  0  0  0  0  0  0
   -9.5241    2.5076   -5.9116 C   0  0  0  0  0  0  0  0  0  0  0  0
  -10.9078    1.8943   -5.8160 C   0  0  0  0  0  0  0  0  0  0  0  0
  -11.2641    1.7495   -4.5216 F   0  0  0  0  0  0  0  0  0  0  0  0
  -10.9214    0.6766   -6.3953 F   0  0  0  0  0  0  0  0  0  0  0  0
   -8.4835    4.4597   -6.9350 C   0  0  0  0  0  0  0  0  0  0  0  0
   -7.1120    4.8434  -15.9901 C   0  0  0  0  0  0  0  0  0  0  0  0
   -8.2141    4.3566  -16.6687 N   0  0  0  0  0  0  0  0  0  0  0  0
   -8.0171    4.4940  -18.0210 C   0  0  0  0  0  0  0  0  0  0  0  0
   -6.7966    5.1063  -18.2020 C   0  0  0  0  0  0  0  0  0  0  0  0
   -6.0514    5.2820  -19.4064 C   0  0  0  0  0  0  0  0  0  0  0  0
   -5.2973    5.4644  -20.2711 N   0  0  0  0  0  0  0  0  0  0  0  0
   -6.2816    5.4597  -16.9309 C   0  0  0  0  0  0  0  0  0  0  0  0
  1  2  1  0
  2  3  2  0
  3  4  1  0
  4  5  2  0
  5  6  1  0
  6  7  2  0
  6  8  1  0
  8  9  1  0
  9 10  2  0
 10 11  1  0
 11 12  2  0
 12 13  1  0
 13 14  2  0
 13 15  1  0
 15 16  1  0
 16 17  1  0
 17 18  1  0
 18 19  1  0
 18 20  1  0
 16 21  1  0
  5 22  1  0
 22 23  1  0
 23 24  1  0
 24 25  2  0
 25 26  1  0
 26 27  3  0
 25 28  1  0
 28  2  1  0
 14  9  1  0
 28 22  2  0
 21 12  1  0
M  END
>  <energy_score>  (1081) 
-9.200433

>  <alias>  (1081) 
None

>  <HIPPO Pose ID>  (1081) 
70601

>  <smiles>  (1081) 
Cc1ccc(C(=O)Nc2ccc3c(c2)CN(CC(F)F)C3)c2[nH]cc(C#N)c12

>  <inchikey>  (1081) 
WZMLJFYNWRLSBW-UHFFFAOYSA-N

>  <distance_score>  (1081) 
1.760693

>  <ref_mols>  (1081) 
Z4983a,Z3842a

>  <ref_pdb>  (1081) 
Z3842a

>  <HIPPO Compound ID>  (1081) 
142791

>  <name>  (1081) 
P70601

>  <inspiration_score>  (1081) 
None

$$$$
P70602
     RDKit          3D

 29 32  0  0  0  0  0  0  0  0999 V2000
   -4.3781    7.1204  -17.3640 C   0  0  0  0  0  0  0  0  0  0  0  0
   -5.2125    6.2594  -16.4604 C   0  0  0  0  0  0  0  0  0  0  0  0
   -4.8313    6.1510  -15.1260 C   0  0  0  0  0  0  0  0  0  0  0  0
   -5.6067    5.4274  -14.2360 C   0  0  0  0  0  0  0  0  0  0  0  0
   -6.8217    4.8371  -14.6099 C   0  0  0  0  0  0  0  0  0  0  0  0
   -7.5798    4.1493  -13.5470 C   0  0  0  0  0  0  0  0  0  0  0  0
   -7.9687    3.0591  -13.6795 O   0  0  0  0  0  0  0  0  0  0  0  0
   -7.6235    5.0861  -12.3186 N   0  0  0  0  0  0  0  0  0  0  0  0
   -8.0516    4.8514  -11.0248 C   0  0  0  0  0  0  0  0  0  0  0  0
   -7.9547    5.9500  -10.1469 C   0  0  0  0  0  0  0  0  0  0  0  0
   -8.1381    5.7849   -8.7821 C   0  0  0  0  0  0  0  0  0  0  0  0
   -8.4202    4.5127   -8.3302 C   0  0  0  0  0  0  0  0  0  0  0  0
   -8.5611    3.4325   -9.1972 C   0  0  0  0  0  0  0  0  0  0  0  0
   -8.3842    3.5817  -10.5612 C   0  0  0  0  0  0  0  0  0  0  0  0
   -8.8708    2.1972   -8.4134 C   0  0  0  0  0  0  0  0  0  0  0  0
   -8.9573    2.6444   -6.9962 N   0  0  0  0  0  0  0  0  0  0  0  0
  -10.2161    2.2461   -6.3607 C   0  0  0  0  0  0  0  0  0  0  0  0
  -10.6731    2.9633   -5.0895 C   0  0  0  0  0  0  0  0  0  0  0  0
  -11.7450    2.3422   -4.5473 F   0  0  0  0  0  0  0  0  0  0  0  0
   -9.7250    3.0839   -4.1382 F   0  0  0  0  0  0  0  0  0  0  0  0
  -11.0687    4.2312   -5.3808 F   0  0  0  0  0  0  0  0  0  0  0  0
   -8.6113    4.0668   -6.9270 C   0  0  0  0  0  0  0  0  0  0  0  0
   -7.1580    4.8585  -15.9590 C   0  0  0  0  0  0  0  0  0  0  0  0
   -8.2215    4.3167  -16.6572 N   0  0  0  0  0  0  0  0  0  0  0  0
   -8.0075    4.4586  -18.0057 C   0  0  0  0  0  0  0  0  0  0  0  0
   -6.8056    5.1112  -18.1680 C   0  0  0  0  0  0  0  0  0  0  0  0
   -6.0482    5.2980  -19.3635 C   0  0  0  0  0  0  0  0  0  0  0  0
   -5.2913    5.4903  -20.2236 N   0  0  0  0  0  0  0  0  0  0  0  0
   -6.3319    5.4978  -16.8891 C   0  0  0  0  0  0  0  0  0  0  0  0
  1  2  1  0
  2  3  2  0
  3  4  1  0
  4  5  2  0
  5  6  1  0
  6  7  2  0
  6  8  1  0
  8  9  1  0
  9 10  2  0
 10 11  1  0
 11 12  2  0
 12 13  1  0
 13 14  2  0
 13 15  1  0
 15 16  1  0
 16 17  1  0
 17 18  1  0
 18 19  1  0
 18 20  1  0
 18 21  1  0
 16 22  1  0
  5 23  1  0
 23 24  1  0
 24 25  1  0
 25 26  2  0
 26 27  1  0
 27 28  3  0
 26 29  1  0
 29  2  1  0
 14  9  1  0
 29 23  2  0
 22 12  1  0
M  END
>  <energy_score>  (1082) 
-19.990066

>  <alias>  (1082) 
None

>  <HIPPO Pose ID>  (1082) 
70602

>  <smiles>  (1082) 
Cc1ccc(C(=O)Nc2ccc3c(c2)CN(CC(F)(F)F)C3)c2[nH]cc(C#N)c12

>  <inchikey>  (1082) 
SJLIOIFTJMJPDV-UHFFFAOYSA-N

>  <distance_score>  (1082) 
1.725243

>  <ref_mols>  (1082) 
Z4983a,Z3842a

>  <ref_pdb>  (1082) 
Z3842a

>  <HIPPO Compound ID>  (1082) 
142793

>  <name>  (1082) 
P70602

>  <inspiration_score>  (1082) 
None

$$$$
P70603
     RDKit          3D

 29 32  0  0  0  0  0  0  0  0999 V2000
   -8.7515    3.9586   -3.6495 C   0  0  0  0  0  0  0  0  0  0  0  0
   -8.1069    3.3876   -4.7786 O   0  0  0  0  0  0  0  0  0  0  0  0
   -9.0576    2.8671   -5.7294 C   0  0  0  0  0  0  0  0  0  0  0  0
   -8.8291    3.5599   -6.9551 N   0  0  0  0  0  0  0  0  0  0  0  0
   -8.9340    4.9067   -7.0680 C   0  0  0  0  0  0  0  0  0  0  0  0
   -9.3564    5.7407   -6.2875 O   0  0  0  0  0  0  0  0  0  0  0  0
   -8.4463    5.2332   -8.3962 C   0  0  0  0  0  0  0  0  0  0  0  0
   -8.2999    6.4694   -8.9849 C   0  0  0  0  0  0  0  0  0  0  0  0
   -7.7745    6.4901  -10.2717 C   0  0  0  0  0  0  0  0  0  0  0  0
   -7.3507    5.2972  -10.8905 C   0  0  0  0  0  0  0  0  0  0  0  0
   -6.8243    5.4014  -12.1647 N   0  0  0  0  0  0  0  0  0  0  0  0
   -5.8517    4.4787  -12.9243 C   0  0  0  0  0  0  0  0  0  0  0  0
   -5.2813    3.5283  -12.5699 O   0  0  0  0  0  0  0  0  0  0  0  0
   -5.7955    4.9275  -14.3264 C   0  0  0  0  0  0  0  0  0  0  0  0
   -4.6798    5.4437  -14.9531 C   0  0  0  0  0  0  0  0  0  0  0  0
   -4.7336    5.8125  -16.2988 C   0  0  0  0  0  0  0  0  0  0  0  0
   -5.8944    5.6121  -17.0785 C   0  0  0  0  0  0  0  0  0  0  0  0
   -5.8333    5.9283  -18.5474 C   0  0  0  0  0  0  0  0  0  0  0  0
   -7.0324    5.0466  -16.4410 C   0  0  0  0  0  0  0  0  0  0  0  0
   -8.3198    4.5827  -16.8382 C   0  0  0  0  0  0  0  0  0  0  0  0
   -8.9208    4.4474  -18.1175 C   0  0  0  0  0  0  0  0  0  0  0  0
   -9.5285    4.2405  -19.0810 N   0  0  0  0  0  0  0  0  0  0  0  0
   -8.9997    4.1702  -15.7155 C   0  0  0  0  0  0  0  0  0  0  0  0
   -8.1643    4.2589  -14.6551 N   0  0  0  0  0  0  0  0  0  0  0  0
   -6.9570    4.7657  -15.0750 C   0  0  0  0  0  0  0  0  0  0  0  0
   -7.5337    4.0492  -10.2838 C   0  0  0  0  0  0  0  0  0  0  0  0
   -8.1239    4.0529   -9.0378 C   0  0  0  0  0  0  0  0  0  0  0  0
   -8.5089    2.9663   -8.1427 C   0  0  0  0  0  0  0  0  0  0  0  0
   -8.5736    1.8070   -8.4878 O   0  0  0  0  0  0  0  0  0  0  0  0
  1  2  1  0
  2  3  1  0
  3  4  1  0
  4  5  1  0
  5  6  2  0
  5  7  1  0
  7  8  2  0
  8  9  1  0
  9 10  2  0
 10 11  1  0
 11 12  1  0
 12 13  2  0
 12 14  1  0
 14 15  2  0
 15 16  1  0
 16 17  2  0
 17 18  1  0
 17 19  1  0
 19 20  1  0
 20 21  1  0
 21 22  3  0
 20 23  2  0
 23 24  1  0
 24 25  1  0
 10 26  1  0
 26 27  2  0
 27 28  1  0
 28 29  2  0
 28  4  1  0
 27  7  1  0
 25 14  1  0
 25 19  2  0
M  END
>  <energy_score>  (1083) 
-6.243834

>  <alias>  (1083) 
None

>  <HIPPO Pose ID>  (1083) 
70603

>  <smiles>  (1083) 
COCN1C(=O)c2ccc(NC(=O)c3ccc(C)c4c(C#N)c[nH]c34)cc2C1=O

>  <inchikey>  (1083) 
MLQMRDHLFFSKQR-UHFFFAOYSA-N

>  <distance_score>  (1083) 
1.924129

>  <ref_mols>  (1083) 
Z4983a,Z3842a

>  <ref_pdb>  (1083) 
Z3842a

>  <HIPPO Compound ID>  (1083) 
142794

>  <name>  (1083) 
P70603

>  <inspiration_score>  (1083) 
None

$$$$
P70605
     RDKit          3D

 28 32  0  0  0  0  0  0  0  0999 V2000
   -7.5045    6.4749  -13.6860 O   0  0  0  0  0  0  0  0  0  0  0  0
   -7.7339    5.3451  -13.8804 C   0  0  0  0  0  0  0  0  0  0  0  0
   -8.1155    4.2135  -12.8931 N   0  0  0  0  0  0  0  0  0  0  0  0
   -8.1983    4.2157  -11.5000 C   0  0  0  0  0  0  0  0  0  0  0  0
   -7.9570    5.3895  -10.7619 C   0  0  0  0  0  0  0  0  0  0  0  0
   -8.0424    5.3901   -9.3660 C   0  0  0  0  0  0  0  0  0  0  0  0
   -8.3748    4.2017   -8.7479 C   0  0  0  0  0  0  0  0  0  0  0  0
   -8.6182    3.0297   -9.4581 C   0  0  0  0  0  0  0  0  0  0  0  0
   -8.5283    3.0213  -10.8421 C   0  0  0  0  0  0  0  0  0  0  0  0
   -8.9409    1.9252   -8.5074 C   0  0  0  0  0  0  0  0  0  0  0  0
   -8.9705    2.6053   -7.2283 N   0  0  0  0  0  0  0  0  0  0  0  0
   -8.5319    3.9083   -7.3185 C   0  0  0  0  0  0  0  0  0  0  0  0
   -8.2920    4.6769   -6.4065 O   0  0  0  0  0  0  0  0  0  0  0  0
   -7.7060    4.8743  -15.2955 C   0  0  0  0  0  0  0  0  0  0  0  0
   -8.7554    4.1092  -15.8313 C   0  0  0  0  0  0  0  0  0  0  0  0
   -8.7715    3.7708  -17.1847 C   0  0  0  0  0  0  0  0  0  0  0  0
   -7.7134    4.1961  -17.9574 C   0  0  0  0  0  0  0  0  0  0  0  0
   -6.6685    4.9753  -17.4603 C   0  0  0  0  0  0  0  0  0  0  0  0
   -6.6582    5.3192  -16.1176 C   0  0  0  0  0  0  0  0  0  0  0  0
   -5.7013    5.2959  -18.5889 C   0  0  0  0  0  0  0  0  0  0  0  0
   -4.2519    4.9407  -18.2640 C   0  0  0  0  0  0  0  0  0  0  0  0
   -3.5262    6.0083  -17.4609 C   0  0  0  0  0  0  0  0  0  0  0  0
   -3.6256    7.2761  -18.1000 O   0  0  0  0  0  0  0  0  0  0  0  0
   -4.9768    7.7091  -18.1984 C   0  0  0  0  0  0  0  0  0  0  0  0
   -5.7843    6.7545  -19.0624 C   0  0  0  0  0  0  0  0  0  0  0  0
   -6.2940    4.4102  -19.7365 C   0  0  0  0  0  0  0  0  0  0  0  0
   -5.8229    4.2048  -20.8449 O   0  0  0  0  0  0  0  0  0  0  0  0
   -7.5037    3.8981  -19.2883 N   0  0  0  0  0  0  0  0  0  0  0  0
  1  2  2  0
  2  3  1  0
  3  4  1  0
  4  5  2  0
  5  6  1  0
  6  7  2  0
  7  8  1  0
  8  9  2  0
  8 10  1  0
 10 11  1  0
 11 12  1  0
 12 13  2  0
  2 14  1  0
 14 15  2  0
 15 16  1  0
 16 17  2  0
 17 18  1  0
 18 19  2  0
 18 20  1  0
 20 21  1  0
 21 22  1  0
 22 23  1  0
 23 24  1  0
 24 25  1  0
 20 26  1  0
 26 27  2  0
 26 28  1  0
  9  4  1  0
 19 14  1  0
 25 20  1  0
 12  7  1  0
 28 17  1  0
M  END
>  <energy_score>  (1084) 
-34.552836

>  <alias>  (1084) 
None

>  <HIPPO Pose ID>  (1084) 
70605

>  <smiles>  (1084) 
O=C(Nc1ccc2c(c1)CNC2=O)c1ccc2c(c1)C1(CCOCC1)C(=O)N2

>  <inchikey>  (1084) 
XBAJILXTQMKMJB-UHFFFAOYSA-N

>  <distance_score>  (1084) 
0.732567

>  <ref_mols>  (1084) 
Z4590a,Z3677a

>  <ref_pdb>  (1084) 
Z3677a

>  <HIPPO Compound ID>  (1084) 
142804

>  <name>  (1084) 
P70605

>  <inspiration_score>  (1084) 
None

$$$$
P70606
     RDKit          3D

 28 32  0  0  0  0  0  0  0  0999 V2000
   -7.4022    6.3928  -13.5667 O   0  0  0  0  0  0  0  0  0  0  0  0
   -7.7191    5.2835  -13.7621 C   0  0  0  0  0  0  0  0  0  0  0  0
   -8.1712    4.1774  -12.7717 N   0  0  0  0  0  0  0  0  0  0  0  0
   -8.2331    4.1795  -11.3758 C   0  0  0  0  0  0  0  0  0  0  0  0
   -7.8451    5.3227  -10.6498 C   0  0  0  0  0  0  0  0  0  0  0  0
   -7.9012    5.3550   -9.2507 C   0  0  0  0  0  0  0  0  0  0  0  0
   -8.3630    4.2333   -8.5922 C   0  0  0  0  0  0  0  0  0  0  0  0
   -8.7602    3.1094   -9.3160 C   0  0  0  0  0  0  0  0  0  0  0  0
   -8.6914    3.0449  -10.6993 C   0  0  0  0  0  0  0  0  0  0  0  0
   -9.2675    2.1260   -8.3477 C   0  0  0  0  0  0  0  0  0  0  0  0
   -9.7359    1.0361   -8.5946 O   0  0  0  0  0  0  0  0  0  0  0  0
   -9.1625    2.6983   -7.0963 N   0  0  0  0  0  0  0  0  0  0  0  0
   -8.5342    3.9887   -7.1317 C   0  0  0  0  0  0  0  0  0  0  0  0
   -7.7241    4.8312  -15.1851 C   0  0  0  0  0  0  0  0  0  0  0  0
   -8.7859    4.0912  -15.7321 C   0  0  0  0  0  0  0  0  0  0  0  0
   -8.8193    3.7742  -17.0946 C   0  0  0  0  0  0  0  0  0  0  0  0
   -7.7644    4.1952  -17.8704 C   0  0  0  0  0  0  0  0  0  0  0  0
   -6.7162    4.9526  -17.3589 C   0  0  0  0  0  0  0  0  0  0  0  0
   -6.6816    5.2757  -16.0113 C   0  0  0  0  0  0  0  0  0  0  0  0
   -5.7355    5.2764  -18.4672 C   0  0  0  0  0  0  0  0  0  0  0  0
   -5.8104    6.7600  -18.8727 C   0  0  0  0  0  0  0  0  0  0  0  0
   -4.5085    7.1798  -19.5383 C   0  0  0  0  0  0  0  0  0  0  0  0
   -3.3977    7.1014  -18.6435 O   0  0  0  0  0  0  0  0  0  0  0  0
   -3.5186    6.1112  -17.6220 C   0  0  0  0  0  0  0  0  0  0  0  0
   -4.3034    4.8941  -18.0828 C   0  0  0  0  0  0  0  0  0  0  0  0
   -6.3249    4.4208  -19.6359 C   0  0  0  0  0  0  0  0  0  0  0  0
   -5.8396    4.2359  -20.7417 O   0  0  0  0  0  0  0  0  0  0  0  0
   -7.5483    3.9176  -19.2068 N   0  0  0  0  0  0  0  0  0  0  0  0
  1  2  2  0
  2  3  1  0
  3  4  1  0
  4  5  2  0
  5  6  1  0
  6  7  2  0
  7  8  1  0
  8  9  2  0
  8 10  1  0
 10 11  2  0
 10 12  1  0
 12 13  1  0
  2 14  1  0
 14 15  2  0
 15 16  1  0
 16 17  2  0
 17 18  1  0
 18 19  2  0
 18 20  1  0
 20 21  1  0
 21 22  1  0
 22 23  1  0
 23 24  1  0
 24 25  1  0
 20 26  1  0
 26 27  2  0
 26 28  1  0
  9  4  1  0
 19 14  1  0
 25 20  1  0
 13  7  1  0
 28 17  1  0
M  END
>  <energy_score>  (1085) 
-27.806

>  <alias>  (1085) 
None

>  <HIPPO Pose ID>  (1085) 
70606

>  <smiles>  (1085) 
O=C(Nc1ccc2c(c1)C(=O)NC2)c1ccc2c(c1)C1(CCOCC1)C(=O)N2

>  <inchikey>  (1085) 
OVXNEPPPLHIOPF-UHFFFAOYSA-N

>  <distance_score>  (1085) 
0.749073

>  <ref_mols>  (1085) 
Z4590a,Z3677a

>  <ref_pdb>  (1085) 
Z3677a

>  <HIPPO Compound ID>  (1085) 
142805

>  <name>  (1085) 
P70606

>  <inspiration_score>  (1085) 
None

$$$$
P70608
     RDKit          3D

 29 33  0  0  0  0  0  0  0  0999 V2000
   -7.1861    6.3797  -13.6182 O   0  0  0  0  0  0  0  0  0  0  0  0
   -7.6090    5.3047  -13.8038 C   0  0  0  0  0  0  0  0  0  0  0  0
   -8.1642    4.2543  -12.8023 N   0  0  0  0  0  0  0  0  0  0  0  0
   -8.2230    4.2740  -11.3968 C   0  0  0  0  0  0  0  0  0  0  0  0
   -8.6657    3.1168  -10.7361 C   0  0  0  0  0  0  0  0  0  0  0  0
   -8.7480    3.1465   -9.3493 C   0  0  0  0  0  0  0  0  0  0  0  0
   -8.3765    4.2579   -8.5954 C   0  0  0  0  0  0  0  0  0  0  0  0
   -7.9385    5.4020   -9.2272 C   0  0  0  0  0  0  0  0  0  0  0  0
   -7.8764    5.4050  -10.6250 C   0  0  0  0  0  0  0  0  0  0  0  0
   -7.4792    6.5493  -11.1936 F   0  0  0  0  0  0  0  0  0  0  0  0
   -8.5534    3.9798   -7.1421 C   0  0  0  0  0  0  0  0  0  0  0  0
   -9.1629    2.6809   -7.1429 N   0  0  0  0  0  0  0  0  0  0  0  0
   -9.2536    2.1368   -8.4071 C   0  0  0  0  0  0  0  0  0  0  0  0
   -9.7140    1.0520   -8.6856 O   0  0  0  0  0  0  0  0  0  0  0  0
   -7.6444    4.8414  -15.2257 C   0  0  0  0  0  0  0  0  0  0  0  0
   -8.7223    4.1094  -15.7492 C   0  0  0  0  0  0  0  0  0  0  0  0
   -8.7735    3.7860  -17.1083 C   0  0  0  0  0  0  0  0  0  0  0  0
   -7.7253    4.1965  -17.9032 C   0  0  0  0  0  0  0  0  0  0  0  0
   -6.6573    4.9517  -17.4223 C   0  0  0  0  0  0  0  0  0  0  0  0
   -6.6095    5.2744  -16.0753 C   0  0  0  0  0  0  0  0  0  0  0  0
   -5.7125    5.2752  -18.5686 C   0  0  0  0  0  0  0  0  0  0  0  0
   -4.2538    4.9298  -18.2786 C   0  0  0  0  0  0  0  0  0  0  0  0
   -3.5144    6.0006  -17.4919 C   0  0  0  0  0  0  0  0  0  0  0  0
   -3.6383    7.2697  -18.1239 O   0  0  0  0  0  0  0  0  0  0  0  0
   -4.9952    7.6916  -18.1856 C   0  0  0  0  0  0  0  0  0  0  0  0
   -5.8134    6.7347  -19.0366 C   0  0  0  0  0  0  0  0  0  0  0  0
   -6.3303    4.3930  -19.7055 C   0  0  0  0  0  0  0  0  0  0  0  0
   -5.8735    4.1752  -20.8177 O   0  0  0  0  0  0  0  0  0  0  0  0
   -7.5450    3.9044  -19.2409 N   0  0  0  0  0  0  0  0  0  0  0  0
  1  2  2  0
  2  3  1  0
  3  4  1  0
  4  5  2  0
  5  6  1  0
  6  7  2  0
  7  8  1  0
  8  9  2  0
  9 10  1  0
  7 11  1  0
 11 12  1  0
 12 13  1  0
 13 14  2  0
  2 15  1  0
 15 16  2  0
 16 17  1  0
 17 18  2  0
 18 19  1  0
 19 20  2  0
 19 21  1  0
 21 22  1  0
 22 23  1  0
 23 24  1  0
 24 25  1  0
 25 26  1  0
 21 27  1  0
 27 28  2  0
 27 29  1  0
  9  4  1  0
 20 15  1  0
 26 21  1  0
 13  6  1  0
 29 18  1  0
M  END
>  <energy_score>  (1086) 
-30.086452

>  <alias>  (1086) 
None

>  <HIPPO Pose ID>  (1086) 
70608

>  <smiles>  (1086) 
O=C(Nc1cc2c(cc1F)CNC2=O)c1ccc2c(c1)C1(CCOCC1)C(=O)N2

>  <inchikey>  (1086) 
GJJQUEDMQNGDBW-UHFFFAOYSA-N

>  <distance_score>  (1086) 
0.737458

>  <ref_mols>  (1086) 
Z4590a,Z3677a

>  <ref_pdb>  (1086) 
Z3677a

>  <HIPPO Compound ID>  (1086) 
142808

>  <name>  (1086) 
P70608

>  <inspiration_score>  (1086) 
None

$$$$
P70617
     RDKit          3D

 32 36  0  0  0  0  0  0  0  0999 V2000
   -8.9258    3.8725   -3.3627 C   0  0  0  0  0  0  0  0  0  0  0  0
   -8.1004    3.6476   -4.6338 C   0  0  0  0  0  0  0  0  0  0  0  0
   -7.2707    4.9207   -4.8322 C   0  0  0  0  0  0  0  0  0  0  0  0
   -8.9222    3.0595   -5.8680 C   0  0  1  0  0  0  0  0  0  0  0  0
  -10.4488    3.1669   -5.7237 C   0  0  0  0  0  0  0  0  0  0  0  0
   -8.4168    3.5037   -7.1654 N   0  0  0  0  0  0  0  0  0  0  0  0
   -8.6265    4.8988   -7.5280 C   0  0  0  0  0  0  0  0  0  0  0  0
   -8.4833    4.9148   -9.0056 C   0  0  0  0  0  0  0  0  0  0  0  0
   -8.2905    6.0170   -9.8066 C   0  0  0  0  0  0  0  0  0  0  0  0
   -8.1144    5.7970  -11.1621 C   0  0  0  0  0  0  0  0  0  0  0  0
   -8.1478    4.4980  -11.6987 C   0  0  0  0  0  0  0  0  0  0  0  0
   -7.9236    4.3475  -13.0644 N   0  0  0  0  0  0  0  0  0  0  0  0
   -7.5319    5.3906  -14.1402 C   0  0  0  0  0  0  0  0  0  0  0  0
   -7.2613    6.5233  -14.0347 O   0  0  0  0  0  0  0  0  0  0  0  0
   -7.5207    4.8287  -15.5090 C   0  0  0  0  0  0  0  0  0  0  0  0
   -8.6171    4.0890  -15.9891 C   0  0  0  0  0  0  0  0  0  0  0  0
   -8.6803    3.7250  -17.3335 C   0  0  0  0  0  0  0  0  0  0  0  0
   -7.6331    4.1120  -18.1442 C   0  0  0  0  0  0  0  0  0  0  0  0
   -6.5467    4.8599  -17.6904 C   0  0  0  0  0  0  0  0  0  0  0  0
   -6.4747    5.2206  -16.3597 C   0  0  0  0  0  0  0  0  0  0  0  0
   -5.6432    5.2144  -18.8587 C   0  0  0  0  0  0  0  0  0  0  0  0
   -4.1613    4.9125  -18.6112 C   0  0  0  0  0  0  0  0  0  0  0  0
   -3.2741    5.7959  -19.4783 C   0  0  0  0  0  0  0  0  0  0  0  0
   -3.4165    7.1827  -19.1634 O   0  0  0  0  0  0  0  0  0  0  0  0
   -4.7024    7.5568  -18.6792 C   0  0  0  0  0  0  0  0  0  0  0  0
   -5.8152    6.6940  -19.2510 C   0  0  0  0  0  0  0  0  0  0  0  0
   -6.2873    4.3358  -19.9814 C   0  0  0  0  0  0  0  0  0  0  0  0
   -5.8730    4.1418  -21.1143 O   0  0  0  0  0  0  0  0  0  0  0  0
   -7.4805    3.8223  -19.4847 N   0  0  0  0  0  0  0  0  0  0  0  0
   -8.3824    3.3872  -10.8730 C   0  0  0  0  0  0  0  0  0  0  0  0
   -8.5345    3.6162   -9.5119 C   0  0  0  0  0  0  0  0  0  0  0  0
   -8.7643    2.6770   -8.3581 C   0  0  0  0  0  0  0  0  0  0  0  0
  1  2  1  0
  2  3  1  0
  2  4  1  0
  4  5  1  1
  4  6  1  0
  6  7  1  0
  7  8  1  0
  8  9  2  0
  9 10  1  0
 10 11  2  0
 11 12  1  0
 12 13  1  0
 13 14  2  0
 13 15  1  0
 15 16  2  0
 16 17  1  0
 17 18  2  0
 18 19  1  0
 19 20  2  0
 19 21  1  0
 21 22  1  0
 22 23  1  0
 23 24  1  0
 24 25  1  0
 25 26  1  0
 21 27  1  0
 27 28  2  0
 27 29  1  0
 11 30  1  0
 30 31  2  0
 31 32  1  0
 32  6  1  0
 31  8  1  0
 20 15  1  0
 26 21  1  0
 29 18  1  0
M  END
>  <energy_score>  (1087) 
-46.03116

>  <alias>  (1087) 
None

>  <HIPPO Pose ID>  (1087) 
70617

>  <smiles>  (1087) 
CC(C)[C@@H](C)N1Cc2ccc(NC(=O)c3ccc4c(c3)C3(CCOCC3)C(=O)N4)cc2C1

>  <inchikey>  (1087) 
AXYXVAXAWVEXOA-QGZVFWFLSA-N

>  <distance_score>  (1087) 
0.889783

>  <ref_mols>  (1087) 
Z4590a,Z3677a

>  <ref_pdb>  (1087) 
Z3677a

>  <HIPPO Compound ID>  (1087) 
142817

>  <name>  (1087) 
P70617

>  <inspiration_score>  (1087) 
None

$$$$
P70618
     RDKit          3D

 34 38  0  0  0  0  0  0  0  0999 V2000
  -11.9844    2.3921   -4.6300 C   0  0  0  0  0  0  0  0  0  0  0  0
  -10.7476    3.0419   -5.1818 C   0  0  0  0  0  0  0  0  0  0  0  0
   -9.8407    3.6500   -4.1169 C   0  0  0  0  0  0  0  0  0  0  0  0
  -11.1706    4.1372   -5.9750 O   0  0  0  0  0  0  0  0  0  0  0  0
  -10.1627    1.9485   -6.0550 C   0  0  0  0  0  0  0  0  0  0  0  0
   -8.7625    2.1793   -6.5110 C   0  0  0  0  0  0  0  0  0  0  0  0
   -8.7285    3.0174   -7.6646 N   0  0  0  0  0  0  0  0  0  0  0  0
   -8.2345    4.3709   -7.6551 C   0  0  0  0  0  0  0  0  0  0  0  0
   -8.1501    4.6641   -9.1111 C   0  0  0  0  0  0  0  0  0  0  0  0
   -7.7097    5.7941   -9.7610 C   0  0  0  0  0  0  0  0  0  0  0  0
   -7.6391    5.7505  -11.1562 C   0  0  0  0  0  0  0  0  0  0  0  0
   -7.9979    4.5897  -11.8687 C   0  0  0  0  0  0  0  0  0  0  0  0
   -7.8329    4.5083  -13.2394 N   0  0  0  0  0  0  0  0  0  0  0  0
   -7.4389    5.5865  -14.2652 C   0  0  0  0  0  0  0  0  0  0  0  0
   -7.1160    6.6963  -14.1096 O   0  0  0  0  0  0  0  0  0  0  0  0
   -7.4905    5.0428  -15.6427 C   0  0  0  0  0  0  0  0  0  0  0  0
   -8.5933    4.2833  -16.0877 C   0  0  0  0  0  0  0  0  0  0  0  0
   -8.6563    3.8437  -17.4066 C   0  0  0  0  0  0  0  0  0  0  0  0
   -7.6057    4.1853  -18.2295 C   0  0  0  0  0  0  0  0  0  0  0  0
   -6.5209    4.9579  -17.8132 C   0  0  0  0  0  0  0  0  0  0  0  0
   -6.4434    5.3864  -16.5051 C   0  0  0  0  0  0  0  0  0  0  0  0
   -5.6008    5.2327  -18.9862 C   0  0  0  0  0  0  0  0  0  0  0  0
   -4.1418    4.8754  -18.6895 C   0  0  0  0  0  0  0  0  0  0  0  0
   -3.2061    5.5860  -19.6518 C   0  0  0  0  0  0  0  0  0  0  0  0
   -3.2685    7.0092  -19.5142 O   0  0  0  0  0  0  0  0  0  0  0  0
   -4.4948    7.5109  -18.9908 C   0  0  0  0  0  0  0  0  0  0  0  0
   -5.6978    6.6999  -19.4464 C   0  0  0  0  0  0  0  0  0  0  0  0
   -6.2631    4.3238  -20.0737 C   0  0  0  0  0  0  0  0  0  0  0  0
   -5.8677    4.0993  -21.2074 O   0  0  0  0  0  0  0  0  0  0  0  0
   -7.4485    3.8232  -19.5499 N   0  0  0  0  0  0  0  0  0  0  0  0
   -8.4870    3.4696  -11.2133 C   0  0  0  0  0  0  0  0  0  0  0  0
   -8.5599    3.5507   -9.8454 C   0  0  0  0  0  0  0  0  0  0  0  0
   -9.0021    2.5265   -8.9192 C   0  0  0  0  0  0  0  0  0  0  0  0
   -9.5194    1.4773   -9.2357 O   0  0  0  0  0  0  0  0  0  0  0  0
  1  2  1  0
  2  3  1  0
  2  4  1  0
  2  5  1  0
  5  6  1  0
  6  7  1  0
  7  8  1  0
  8  9  1  0
  9 10  2  0
 10 11  1  0
 11 12  2  0
 12 13  1  0
 13 14  1  0
 14 15  2  0
 14 16  1  0
 16 17  2  0
 17 18  1  0
 18 19  2  0
 19 20  1  0
 20 21  2  0
 20 22  1  0
 22 23  1  0
 23 24  1  0
 24 25  1  0
 25 26  1  0
 26 27  1  0
 22 28  1  0
 28 29  2  0
 28 30  1  0
 12 31  1  0
 31 32  2  0
 32 33  1  0
 33 34  2  0
 33  7  1  0
 32  9  1  0
 21 16  1  0
 27 22  1  0
 30 19  1  0
M  END
>  <energy_score>  (1088) 
-42.759014

>  <alias>  (1088) 
None

>  <HIPPO Pose ID>  (1088) 
70618

>  <smiles>  (1088) 
CC(C)(O)CCN1Cc2ccc(NC(=O)c3ccc4c(c3)C3(CCOCC3)C(=O)N4)cc2C1=O

>  <inchikey>  (1088) 
QVIQCDJAVBMKGB-UHFFFAOYSA-N

>  <distance_score>  (1088) 
0.865863

>  <ref_mols>  (1088) 
Z4590a,Z3677a

>  <ref_pdb>  (1088) 
Z3677a

>  <HIPPO Compound ID>  (1088) 
142819

>  <name>  (1088) 
P70618

>  <inspiration_score>  (1088) 
None

$$$$
P70619
     RDKit          3D

 36 41  0  0  0  0  0  0  0  0999 V2000
   -9.8772    5.4196   -1.1434 C   0  0  0  0  0  0  0  0  0  0  0  0
   -9.0876    6.0669   -2.2832 C   0  0  0  0  0  0  0  0  0  0  0  0
   -9.5464    7.5079   -2.5207 C   0  0  0  0  0  0  0  0  0  0  0  0
   -9.0953    5.1773   -3.5125 C   0  0  0  0  0  0  0  0  0  0  0  0
   -9.9300    5.3556   -4.6208 C   0  0  0  0  0  0  0  0  0  0  0  0
   -9.8601    4.5420   -5.7542 C   0  0  0  0  0  0  0  0  0  0  0  0
   -8.8409    3.6169   -5.8756 C   0  0  0  0  0  0  0  0  0  0  0  0
   -8.2833    3.3125   -7.1123 N   0  0  0  0  0  0  0  0  0  0  0  0
   -7.4411    4.4516   -7.5084 C   0  0  0  0  0  0  0  0  0  0  0  0
   -7.7057    4.6090   -8.9537 C   0  0  0  0  0  0  0  0  0  0  0  0
   -7.2254    5.6276   -9.7446 C   0  0  0  0  0  0  0  0  0  0  0  0
   -7.4418    5.5356  -11.1044 C   0  0  0  0  0  0  0  0  0  0  0  0
   -8.0870    4.4203  -11.6616 C   0  0  0  0  0  0  0  0  0  0  0  0
   -8.0924    4.3283  -13.0536 N   0  0  0  0  0  0  0  0  0  0  0  0
   -7.6056    5.3354  -14.1336 C   0  0  0  0  0  0  0  0  0  0  0  0
   -7.1970    6.4274  -14.0237 O   0  0  0  0  0  0  0  0  0  0  0  0
   -7.6180    4.7955  -15.5157 C   0  0  0  0  0  0  0  0  0  0  0  0
   -8.7131    4.0774  -16.0212 C   0  0  0  0  0  0  0  0  0  0  0  0
   -8.7578    3.7269  -17.3707 C   0  0  0  0  0  0  0  0  0  0  0  0
   -7.6931    4.1047  -18.1639 C   0  0  0  0  0  0  0  0  0  0  0  0
   -6.6009    4.8294  -17.6909 C   0  0  0  0  0  0  0  0  0  0  0  0
   -6.5470    5.1697  -16.3540 C   0  0  0  0  0  0  0  0  0  0  0  0
   -5.6597    5.1566  -18.8390 C   0  0  0  0  0  0  0  0  0  0  0  0
   -4.1925    4.7623  -18.6126 C   0  0  0  0  0  0  0  0  0  0  0  0
   -3.2418    5.9464  -18.5241 C   0  0  0  0  0  0  0  0  0  0  0  0
   -3.8204    6.9374  -17.6932 O   0  0  0  0  0  0  0  0  0  0  0  0
   -4.9417    7.5618  -18.3095 C   0  0  0  0  0  0  0  0  0  0  0  0
   -5.7470    6.6398  -19.2234 C   0  0  0  0  0  0  0  0  0  0  0  0
   -6.3258    4.3222  -19.9845 C   0  0  0  0  0  0  0  0  0  0  0  0
   -5.9135    4.1462  -21.1219 O   0  0  0  0  0  0  0  0  0  0  0  0
   -7.5294    3.8208  -19.5037 N   0  0  0  0  0  0  0  0  0  0  0  0
   -8.6265    3.4208  -10.8303 C   0  0  0  0  0  0  0  0  0  0  0  0
   -8.4649    3.5522   -9.4515 C   0  0  0  0  0  0  0  0  0  0  0  0
   -8.9705    2.7219   -8.2910 C   0  0  0  0  0  0  0  0  0  0  0  0
   -8.0564    3.3800   -4.7429 C   0  0  0  0  0  0  0  0  0  0  0  0
   -8.1844    4.1298   -3.5747 C   0  0  0  0  0  0  0  0  0  0  0  0
  1  2  1  0
  2  3  1  0
  2  4  1  0
  4  5  2  0
  5  6  1  0
  6  7  2  0
  7  8  1  0
  8  9  1  0
  9 10  1  0
 10 11  2  0
 11 12  1  0
 12 13  2  0
 13 14  1  0
 14 15  1  0
 15 16  2  0
 15 17  1  0
 17 18  2  0
 18 19  1  0
 19 20  2  0
 20 21  1  0
 21 22  2  0
 21 23  1  0
 23 24  1  0
 24 25  1  0
 25 26  1  0
 26 27  1  0
 27 28  1  0
 23 29  1  0
 29 30  2  0
 29 31  1  0
 13 32  1  0
 32 33  2  0
 33 34  1  0
  7 35  1  0
 35 36  2  0
 36  4  1  0
 34  8  1  0
 33 10  1  0
 22 17  1  0
 28 23  1  0
 31 20  1  0
M  END
>  <energy_score>  (1089) 
-22.441957

>  <alias>  (1089) 
None

>  <HIPPO Pose ID>  (1089) 
70619

>  <smiles>  (1089) 
CC(C)c1ccc(N2Cc3ccc(NC(=O)c4ccc5c(c4)C4(CCOCC4)C(=O)N5)cc3C2)cc1

>  <inchikey>  (1089) 
MAQIHWDHJDWCME-UHFFFAOYSA-N

>  <distance_score>  (1089) 
1.047516

>  <ref_mols>  (1089) 
Z4590a,Z3677a

>  <ref_pdb>  (1089) 
Z3677a

>  <HIPPO Compound ID>  (1089) 
142821

>  <name>  (1089) 
P70619

>  <inspiration_score>  (1089) 
None

$$$$
P70623
     RDKit          3D

 36 41  0  0  0  0  0  0  0  0999 V2000
   -7.1876    6.5209  -14.0106 O   0  0  0  0  0  0  0  0  0  0  0  0
   -7.4456    5.3914  -14.1601 C   0  0  0  0  0  0  0  0  0  0  0  0
   -7.8315    4.3056  -13.1276 N   0  0  0  0  0  0  0  0  0  0  0  0
   -8.0639    4.4019  -11.7603 C   0  0  0  0  0  0  0  0  0  0  0  0
   -8.0315    5.6689  -11.1463 C   0  0  0  0  0  0  0  0  0  0  0  0
   -8.2489    5.8066   -9.7826 C   0  0  0  0  0  0  0  0  0  0  0  0
   -8.4856    4.6516   -9.0739 C   0  0  0  0  0  0  0  0  0  0  0  0
   -8.5257    3.3825   -9.6490 C   0  0  0  0  0  0  0  0  0  0  0  0
   -8.3254    3.2422  -11.0122 C   0  0  0  0  0  0  0  0  0  0  0  0
   -8.7933    2.3633   -8.5861 C   0  0  0  0  0  0  0  0  0  0  0  0
   -8.7242    3.1805   -7.3718 N   0  0  0  0  0  0  0  0  0  0  0  0
   -8.8553    2.6123   -6.0373 C   0  0  1  0  0  0  0  0  0  0  0  0
   -7.9382    3.3124   -5.0089 C   0  0  0  0  0  0  0  0  0  0  0  0
   -8.6217    3.8434   -3.7649 C   0  0  1  0  0  0  0  0  0  0  0  0
   -7.8641    4.8372   -3.2257 F   0  0  0  0  0  0  0  0  0  0  0  0
  -10.0126    4.3425   -4.0541 C   0  0  0  0  0  0  0  0  0  0  0  0
  -10.8021    3.3056   -4.6637 N   0  0  0  0  0  0  0  0  0  0  0  0
  -10.3438    2.5455   -5.6966 C   0  0  0  0  0  0  0  0  0  0  0  0
  -11.1399    1.8754   -6.3468 O   0  0  0  0  0  0  0  0  0  0  0  0
   -8.6916    4.5267   -7.6394 C   0  0  0  0  0  0  0  0  0  0  0  0
   -8.7852    5.4685   -6.8748 O   0  0  0  0  0  0  0  0  0  0  0  0
   -7.4565    4.8631  -15.5434 C   0  0  0  0  0  0  0  0  0  0  0  0
   -8.5770    4.1483  -16.0122 C   0  0  0  0  0  0  0  0  0  0  0  0
   -8.6619    3.7808  -17.3522 C   0  0  0  0  0  0  0  0  0  0  0  0
   -7.6131    4.1430  -18.1712 C   0  0  0  0  0  0  0  0  0  0  0  0
   -6.5036    4.8688  -17.7316 C   0  0  0  0  0  0  0  0  0  0  0  0
   -6.4082    5.2290  -16.4011 C   0  0  0  0  0  0  0  0  0  0  0  0
   -5.5972    5.1821  -18.9112 C   0  0  0  0  0  0  0  0  0  0  0  0
   -4.1238    4.7872  -18.7319 C   0  0  0  0  0  0  0  0  0  0  0  0
   -3.1814    5.9743  -18.5939 C   0  0  0  0  0  0  0  0  0  0  0  0
   -3.7797    6.9470  -17.7540 O   0  0  0  0  0  0  0  0  0  0  0  0
   -4.8856    7.5859  -18.3854 C   0  0  0  0  0  0  0  0  0  0  0  0
   -5.6944    6.6643  -19.2967 C   0  0  0  0  0  0  0  0  0  0  0  0
   -6.2958    4.3400  -20.0292 C   0  0  0  0  0  0  0  0  0  0  0  0
   -5.9154    4.1531  -21.1759 O   0  0  0  0  0  0  0  0  0  0  0  0
   -7.4855    3.8446  -19.5116 N   0  0  0  0  0  0  0  0  0  0  0  0
  1  2  2  0
  2  3  1  0
  3  4  1  0
  4  5  2  0
  5  6  1  0
  6  7  2  0
  7  8  1  0
  8  9  2  0
  8 10  1  0
 10 11  1  0
 12 11  1  6
 12 13  1  0
 13 14  1  0
 14 15  1  6
 14 16  1  0
 16 17  1  0
 17 18  1  0
 18 19  2  0
 11 20  1  0
 20 21  2  0
  2 22  1  0
 22 23  2  0
 23 24  1  0
 24 25  2  0
 25 26  1  0
 26 27  2  0
 26 28  1  0
 28 29  1  0
 29 30  1  0
 30 31  1  0
 31 32  1  0
 32 33  1  0
 28 34  1  0
 34 35  2  0
 34 36  1  0
  9  4  1  0
 18 12  1  0
 27 22  1  0
 33 28  1  0
 20  7  1  0
 36 25  1  0
M  END
>  <energy_score>  (1090) 
-47.540105

>  <alias>  (1090) 
None

>  <HIPPO Pose ID>  (1090) 
70623

>  <smiles>  (1090) 
O=C(Nc1ccc2c(c1)CN([C@H]1C[C@@H](F)CNC1=O)C2=O)c1ccc2c(c1)C1(CCOCC1)C(=O)N2

>  <inchikey>  (1090) 
JISOPDQVHKEDJH-IERDGZPVSA-N

>  <distance_score>  (1090) 
0.759831

>  <ref_mols>  (1090) 
Z4590a,Z3677a

>  <ref_pdb>  (1090) 
Z3677a

>  <HIPPO Compound ID>  (1090) 
142822

>  <name>  (1090) 
P70623

>  <inspiration_score>  (1090) 
None

$$$$
P70628
     RDKit          3D

 22 23  0  0  0  0  0  0  0  0999 V2000
   -3.1689    3.3948  -12.9132 C   0  0  0  0  0  0  0  0  0  0  0  0
   -4.1006    4.4765  -13.4711 C   0  0  2  0  0  0  0  0  0  0  0  0
   -5.5744    3.9133  -13.5573 C   0  0  0  0  0  0  0  0  0  0  0  0
   -5.8020    2.7707  -13.6552 O   0  0  0  0  0  0  0  0  0  0  0  0
   -6.5338    5.1385  -13.5897 N   0  0  0  0  0  0  0  0  0  0  0  0
   -7.9567    5.2111  -13.8446 C   0  0  0  0  0  0  0  0  0  0  0  0
   -8.3297    5.4792  -15.3300 C   0  0  1  0  0  0  0  0  0  0  0  0
   -7.1661    6.0443  -16.1308 C   0  0  0  0  0  0  0  0  0  0  0  0
   -7.3691    6.1348  -17.5500 N   0  0  0  0  0  0  0  0  0  0  0  0
   -7.8550    5.0141  -18.1696 C   0  0  0  0  0  0  0  0  0  0  0  0
   -7.2408    4.5521  -19.1238 O   0  0  0  0  0  0  0  0  0  0  0  0
   -9.1173    4.4241  -17.5412 C   0  0  0  0  0  0  0  0  0  0  0  0
   -9.4377    3.1388  -18.2267 C   0  0  0  0  0  0  0  0  0  0  0  0
  -10.3839    5.2123  -17.8012 C   0  0  0  0  0  0  0  0  0  0  0  0
   -8.8472    4.2219  -16.0362 C   0  0  0  0  0  0  0  0  0  0  0  0
   -3.5560    4.9428  -14.7879 N   0  0  0  0  0  0  0  0  0  0  0  0
   -3.7850    6.3666  -15.0647 C   0  0  0  0  0  0  0  0  0  0  0  0
   -3.5240    6.8237  -16.5238 C   0  0  0  0  0  0  0  0  0  0  0  0
   -4.1995    5.9511  -17.4877 N   0  0  0  0  0  0  0  0  0  0  0  0
   -4.0809    6.4071  -18.8657 C   0  0  0  0  0  0  0  0  0  0  0  0
   -3.6294    4.6047  -17.3289 C   0  0  0  0  0  0  0  0  0  0  0  0
   -3.9024    4.0506  -15.9131 C   0  0  0  0  0  0  0  0  0  0  0  0
  2  1  1  6
  2  3  1  0
  3  4  2  0
  3  5  1  0
  5  6  1  0
  7  6  1  1
  7  8  1  0
  8  9  1  0
  9 10  1  0
 10 11  2  0
 10 12  1  0
 12 13  1  0
 12 14  1  0
 12 15  1  0
  2 16  1  0
 16 17  1  0
 17 18  1  0
 18 19  1  0
 19 20  1  0
 19 21  1  0
 21 22  1  0
 15  7  1  0
 22 16  1  0
M  END
>  <energy_score>  (1091) 
-26.399871

>  <alias>  (1091) 
None

>  <HIPPO Pose ID>  (1091) 
70628

>  <smiles>  (1091) 
C[C@H](C(=O)NC[C@H]1CNC(=O)C(C)(C)C1)N1CCN(C)CC1

>  <inchikey>  (1091) 
RYJSGNPEWCUXSQ-OLZOCXBDSA-N

>  <distance_score>  (1091) 
1.675861

>  <ref_mols>  (1091) 
Z0701a,Z0719a

>  <ref_pdb>  (1091) 
Z0719a

>  <HIPPO Compound ID>  (1091) 
142920

>  <name>  (1091) 
P70628

>  <inspiration_score>  (1091) 
None

$$$$
P70629
     RDKit          3D

 23 24  0  0  0  0  0  0  0  0999 V2000
   -4.0015    6.0257  -18.4894 C   0  0  0  0  0  0  0  0  0  0  0  0
   -3.9801    5.5294  -17.1206 N   0  0  0  0  0  0  0  0  0  0  0  0
   -3.1641    4.3197  -17.0071 C   0  0  0  0  0  0  0  0  0  0  0  0
   -3.4779    3.6656  -15.6532 C   0  0  0  0  0  0  0  0  0  0  0  0
   -3.1856    4.4914  -14.4601 N   0  0  0  0  0  0  0  0  0  0  0  0
   -3.6547    3.8302  -13.1658 C   0  0  0  0  0  0  0  0  0  0  0  0
   -2.5450    2.8216  -12.7774 C   0  0  0  0  0  0  0  0  0  0  0  0
   -3.7970    4.7953  -11.9737 C   0  0  0  0  0  0  0  0  0  0  0  0
   -5.0035    2.9998  -13.4181 C   0  0  0  0  0  0  0  0  0  0  0  0
   -5.0348    1.8338  -13.4054 O   0  0  0  0  0  0  0  0  0  0  0  0
   -6.1084    4.0286  -13.7578 N   0  0  0  0  0  0  0  0  0  0  0  0
   -7.4582    3.8329  -14.2467 C   0  0  0  0  0  0  0  0  0  0  0  0
   -7.4652    4.4526  -15.6559 C   0  0  2  0  0  0  0  0  0  0  0  0
   -7.3772    5.9634  -15.5482 C   0  0  0  0  0  0  0  0  0  0  0  0
   -7.1021    6.5300  -16.8226 N   0  0  0  0  0  0  0  0  0  0  0  0
   -7.6087    6.0822  -17.9979 C   0  0  0  0  0  0  0  0  0  0  0  0
   -7.2422    6.7153  -18.9847 O   0  0  0  0  0  0  0  0  0  0  0  0
   -8.5042    4.8284  -17.9677 C   0  0  0  0  0  0  0  0  0  0  0  0
   -9.9229    4.9662  -18.5212 C   0  0  0  0  0  0  0  0  0  0  0  0
   -7.7460    3.9140  -18.9165 C   0  0  0  0  0  0  0  0  0  0  0  0
   -8.6748    4.2013  -16.5442 C   0  0  0  0  0  0  0  0  0  0  0  0
   -3.5384    5.9061  -14.6762 C   0  0  0  0  0  0  0  0  0  0  0  0
   -3.4523    6.4725  -16.1329 C   0  0  0  0  0  0  0  0  0  0  0  0
  1  2  1  0
  2  3  1  0
  3  4  1  0
  4  5  1  0
  5  6  1  0
  6  7  1  0
  6  8  1  0
  6  9  1  0
  9 10  2  0
  9 11  1  0
 11 12  1  0
 13 12  1  1
 13 14  1  0
 14 15  1  0
 15 16  1  0
 16 17  2  0
 16 18  1  0
 18 19  1  0
 18 20  1  0
 18 21  1  0
  5 22  1  0
 22 23  1  0
 23  2  1  0
 21 13  1  0
M  END
>  <energy_score>  (1092) 
-32.462378

>  <alias>  (1092) 
None

>  <HIPPO Pose ID>  (1092) 
70629

>  <smiles>  (1092) 
CN1CCN(C(C)(C)C(=O)NC[C@@H]2CNC(=O)C(C)(C)C2)CC1

>  <inchikey>  (1092) 
QINZYPQCRQSAIO-ZDUSSCGKSA-N

>  <distance_score>  (1092) 
1.626347

>  <ref_mols>  (1092) 
Z0701a,Z0719a

>  <ref_pdb>  (1092) 
Z0719a

>  <HIPPO Compound ID>  (1092) 
142939

>  <name>  (1092) 
P70629

>  <inspiration_score>  (1092) 
None

$$$$
P70631
     RDKit          3D

 24 25  0  0  0  0  0  0  0  0999 V2000
   -3.2146    2.0500  -13.3203 C   0  0  0  0  0  0  0  0  0  0  0  0
   -3.3123    3.4254  -12.6592 C   0  0  0  0  0  0  0  0  0  0  0  0
   -1.9045    3.9836  -12.4325 C   0  0  0  0  0  0  0  0  0  0  0  0
   -4.2682    4.4556  -13.3297 C   0  0  2  0  0  0  0  0  0  0  0  0
   -5.7892    4.0399  -13.1495 C   0  0  0  0  0  0  0  0  0  0  0  0
   -6.1626    3.0284  -12.7033 O   0  0  0  0  0  0  0  0  0  0  0  0
   -6.5882    5.2427  -13.7237 N   0  0  0  0  0  0  0  0  0  0  0  0
   -8.0035    5.4034  -13.9516 C   0  0  0  0  0  0  0  0  0  0  0  0
   -8.3840    5.5762  -15.4443 C   0  0  1  0  0  0  0  0  0  0  0  0
   -7.2248    6.1106  -16.2789 C   0  0  0  0  0  0  0  0  0  0  0  0
   -7.4535    6.1547  -17.6974 N   0  0  0  0  0  0  0  0  0  0  0  0
   -7.9295    5.0039  -18.2688 C   0  0  0  0  0  0  0  0  0  0  0  0
   -7.3132    4.5062  -19.2036 O   0  0  0  0  0  0  0  0  0  0  0  0
   -9.1739    4.4247  -17.5993 C   0  0  0  0  0  0  0  0  0  0  0  0
   -9.4618    3.1042  -18.2239 C   0  0  0  0  0  0  0  0  0  0  0  0
  -10.4580    5.1714  -17.9031 C   0  0  0  0  0  0  0  0  0  0  0  0
   -8.8863    4.2808  -16.0877 C   0  0  0  0  0  0  0  0  0  0  0  0
   -4.0847    4.9244  -14.7249 N   0  0  0  0  0  0  0  0  0  0  0  0
   -2.9458    5.7640  -15.0490 C   0  0  0  0  0  0  0  0  0  0  0  0
   -3.1219    6.4858  -16.4301 C   0  0  0  0  0  0  0  0  0  0  0  0
   -4.1561    5.9197  -17.3127 N   0  0  0  0  0  0  0  0  0  0  0  0
   -4.0403    6.3617  -18.6973 C   0  0  0  0  0  0  0  0  0  0  0  0
   -4.1237    4.4559  -17.2283 C   0  0  0  0  0  0  0  0  0  0  0  0
   -4.3003    3.9265  -15.7762 C   0  0  0  0  0  0  0  0  0  0  0  0
  1  2  1  0
  2  3  1  0
  4  2  1  6
  4  5  1  0
  5  6  2  0
  5  7  1  0
  7  8  1  0
  9  8  1  1
  9 10  1  0
 10 11  1  0
 11 12  1  0
 12 13  2  0
 12 14  1  0
 14 15  1  0
 14 16  1  0
 14 17  1  0
  4 18  1  0
 18 19  1  0
 19 20  1  0
 20 21  1  0
 21 22  1  0
 21 23  1  0
 23 24  1  0
 17  9  1  0
 24 18  1  0
M  END
>  <energy_score>  (1093) 
-34.601628

>  <alias>  (1093) 
None

>  <HIPPO Pose ID>  (1093) 
70631

>  <smiles>  (1093) 
CC(C)[C@H](C(=O)NC[C@H]1CNC(=O)C(C)(C)C1)N1CCN(C)CC1

>  <inchikey>  (1093) 
UJQISQSGJRRBDJ-LSDHHAIUSA-N

>  <distance_score>  (1093) 
1.586973

>  <ref_mols>  (1093) 
Z0701a,Z0719a

>  <ref_pdb>  (1093) 
Z0719a

>  <HIPPO Compound ID>  (1093) 
142949

>  <name>  (1093) 
P70631

>  <inspiration_score>  (1093) 
None

$$$$
P70632
     RDKit          3D

 24 26  0  0  0  0  0  0  0  0999 V2000
   -5.3868    0.7963  -10.4214 C   0  0  0  0  0  0  0  0  0  0  0  0
   -5.9767    2.0609  -10.7319 O   0  0  0  0  0  0  0  0  0  0  0  0
   -6.4798    2.1422  -11.9938 C   0  0  0  0  0  0  0  0  0  0  0  0
   -6.5082    1.2331  -12.8162 O   0  0  0  0  0  0  0  0  0  0  0  0
   -6.9210    3.5553  -12.3253 C   0  0  0  0  0  0  0  0  0  0  0  0
   -5.8058    4.4999  -12.5651 N   0  0  0  0  0  0  0  0  0  0  0  0
   -4.6381    3.9041  -13.2397 C   0  0  0  0  0  0  0  0  0  0  0  0
   -3.4417    4.8837  -13.4175 C   0  0  0  0  0  0  0  0  0  0  0  0
   -3.6565    6.2692  -12.9650 N   0  0  0  0  0  0  0  0  0  0  0  0
   -4.5945    7.0235  -13.8242 C   0  0  0  0  0  0  0  0  0  0  0  0
   -4.1280    7.2229  -15.2709 C   0  0  0  0  0  0  0  0  0  0  0  0
   -3.2300    7.9943  -15.6002 O   0  0  0  0  0  0  0  0  0  0  0  0
   -4.8770    6.5299  -16.1848 N   0  0  0  0  0  0  0  0  0  0  0  0
   -6.0957    6.8863  -16.8308 C   0  0  0  0  0  0  0  0  0  0  0  0
   -6.1943    5.3403  -17.1078 C   0  0  0  0  0  0  0  0  0  0  0  0
   -7.0533    4.5675  -16.0990 C   0  0  0  0  0  0  0  0  0  0  0  0
   -8.5287    4.6087  -16.4389 C   0  0  0  0  0  0  0  0  0  0  0  0
   -8.8221    4.5346  -17.9156 C   0  0  0  0  0  0  0  0  0  0  0  0
   -9.8731    4.0892  -18.3551 O   0  0  0  0  0  0  0  0  0  0  0  0
   -7.9053    5.1345  -18.7353 N   0  0  0  0  0  0  0  0  0  0  0  0
   -6.4971    4.9527  -18.5355 C   0  0  0  0  0  0  0  0  0  0  0  0
   -4.6610    5.2438  -16.7634 C   0  0  0  0  0  0  0  0  0  0  0  0
   -4.1983    6.2042  -11.5850 C   0  0  0  0  0  0  0  0  0  0  0  0
   -5.3806    5.2114  -11.3500 C   0  0  0  0  0  0  0  0  0  0  0  0
  1  2  1  0
  2  3  1  0
  3  4  2  0
  3  5  1  0
  5  6  1  0
  6  7  1  0
  7  8  1  0
  8  9  1  0
  9 10  1  0
 10 11  1  0
 11 12  2  0
 11 13  1  0
 13 14  1  0
 14 15  1  0
 15 16  1  0
 16 17  1  0
 17 18  1  0
 18 19  2  0
 18 20  1  0
 20 21  1  0
 15 22  1  0
  9 23  1  0
 23 24  1  0
 24  6  1  0
 22 13  1  0
 21 15  1  0
M  END
>  <energy_score>  (1094) 
-40.64053

>  <alias>  (1094) 
None

>  <HIPPO Pose ID>  (1094) 
70632

>  <smiles>  (1094) 
COC(=O)CN1CCN(CC(=O)N2CC3(CCC(=O)NC3)C2)CC1

>  <inchikey>  (1094) 
OFUIYEYMTSCYMV-UHFFFAOYSA-N

>  <distance_score>  (1094) 
1.973375

>  <ref_mols>  (1094) 
Z0701a,Z0719a

>  <ref_pdb>  (1094) 
Z0719a

>  <HIPPO Compound ID>  (1094) 
142973

>  <name>  (1094) 
P70632

>  <inspiration_score>  (1094) 
None

$$$$
P70635
     RDKit          3D

 24 26  0  0  0  0  0  0  0  0999 V2000
  -10.0229    3.8492  -17.6713 C   0  0  0  0  0  0  0  0  0  0  0  0
   -8.8626    4.7698  -17.8621 C   0  0  2  0  0  0  0  0  0  0  0  0
   -7.8837    4.2094  -18.7629 N   0  0  0  0  0  0  0  0  0  0  0  0
   -6.7216    4.8842  -19.0139 C   0  0  0  0  0  0  0  0  0  0  0  0
   -5.7412    4.3832  -19.5425 O   0  0  0  0  0  0  0  0  0  0  0  0
   -6.7372    6.2701  -18.4368 C   0  0  0  0  0  0  0  0  0  0  0  0
   -6.9297    6.1015  -16.9376 C   0  0  0  0  0  0  0  0  0  0  0  0
   -8.1781    5.2673  -16.5556 C   0  0  2  0  0  0  0  0  0  0  0  0
   -7.8530    4.1469  -15.5597 C   0  0  0  0  0  0  0  0  0  0  0  0
   -6.9274    4.5013  -14.5199 N   0  0  0  0  0  0  0  0  0  0  0  0
   -6.4387    3.6911  -13.2813 C   0  0  0  0  0  0  0  0  0  0  0  0
   -6.7742    2.6463  -12.8804 O   0  0  0  0  0  0  0  0  0  0  0  0
   -5.2476    4.5687  -12.6922 C   0  0  2  0  0  0  0  0  0  0  0  0
   -4.4869    4.9812  -13.8998 N   0  0  0  0  0  0  0  0  0  0  0  0
   -3.7346    3.8960  -14.5545 C   0  0  0  0  0  0  0  0  0  0  0  0
   -3.5671    4.2105  -16.0528 C   0  0  0  0  0  0  0  0  0  0  0  0
   -2.9755    5.5286  -16.3320 N   0  0  0  0  0  0  0  0  0  0  0  0
   -3.1486    5.8627  -17.7458 C   0  0  0  0  0  0  0  0  0  0  0  0
   -3.5097    6.5915  -15.4667 C   0  0  0  0  0  0  0  0  0  0  0  0
   -3.7162    6.2120  -13.9686 C   0  0  0  0  0  0  0  0  0  0  0  0
   -4.4390    3.7909  -11.6612 C   0  0  0  0  0  0  0  0  0  0  0  0
   -5.2507    3.9697  -10.3962 C   0  0  0  0  0  0  0  0  0  0  0  0
   -5.7246    5.3202  -10.4433 O   0  0  0  0  0  0  0  0  0  0  0  0
   -5.9077    5.6663  -11.8307 C   0  0  0  0  0  0  0  0  0  0  0  0
  2  1  1  1
  2  3  1  0
  3  4  1  0
  4  5  2  0
  4  6  1  0
  6  7  1  0
  7  8  1  0
  8  9  1  1
  9 10  1  0
 10 11  1  0
 11 12  2  0
 11 13  1  0
 13 14  1  6
 14 15  1  0
 15 16  1  0
 16 17  1  0
 17 18  1  0
 17 19  1  0
 19 20  1  0
 13 21  1  0
 21 22  1  0
 22 23  1  0
 23 24  1  0
  8  2  1  0
 24 13  1  0
 20 14  1  0
M  END
>  <energy_score>  (1095) 
-59.550924

>  <alias>  (1095) 
None

>  <HIPPO Pose ID>  (1095) 
70635

>  <smiles>  (1095) 
C[C@@H]1NC(=O)CC[C@@H]1CNC(=O)[C@]1(N2CCN(C)CC2)CCOC1

>  <inchikey>  (1095) 
PUVFRIWFCSONRW-VBQJREDUSA-N

>  <distance_score>  (1095) 
1.661888

>  <ref_mols>  (1095) 
Z0701a,Z0719a

>  <ref_pdb>  (1095) 
Z0719a

>  <HIPPO Compound ID>  (1095) 
142977

>  <name>  (1095) 
P70635

>  <inspiration_score>  (1095) 
None

$$$$
P70637
     RDKit          3D

 24 26  0  0  0  0  0  0  0  0999 V2000
   -3.9330    6.4969  -18.9351 C   0  0  0  0  0  0  0  0  0  0  0  0
   -3.9784    6.0170  -17.5643 N   0  0  0  0  0  0  0  0  0  0  0  0
   -3.1909    6.8327  -16.6404 C   0  0  0  0  0  0  0  0  0  0  0  0
   -3.4051    6.3969  -15.1680 C   0  0  0  0  0  0  0  0  0  0  0  0
   -3.2925    4.9578  -14.9030 N   0  0  0  0  0  0  0  0  0  0  0  0
   -3.7184    4.4545  -13.5462 C   0  0  1  0  0  0  0  0  0  0  0  0
   -5.1893    3.8331  -13.5995 C   0  0  0  0  0  0  0  0  0  0  0  0
   -5.3738    2.6832  -13.5001 O   0  0  0  0  0  0  0  0  0  0  0  0
   -6.1833    4.9897  -13.8958 N   0  0  0  0  0  0  0  0  0  0  0  0
   -7.5872    4.9566  -14.2238 C   0  0  0  0  0  0  0  0  0  0  0  0
   -7.7575    4.6059  -15.7086 C   0  0  2  0  0  0  0  0  0  0  0  0
   -7.0275    5.5568  -16.6476 C   0  0  0  0  0  0  0  0  0  0  0  0
   -7.0166    4.9497  -18.0436 C   0  0  0  0  0  0  0  0  0  0  0  0
   -8.3499    4.4148  -18.4835 C   0  0  0  0  0  0  0  0  0  0  0  0
   -8.4906    3.8906  -19.5828 O   0  0  0  0  0  0  0  0  0  0  0  0
   -9.3850    4.5892  -17.5934 N   0  0  0  0  0  0  0  0  0  0  0  0
  -10.7228    4.6689  -18.1148 C   0  0  0  0  0  0  0  0  0  0  0  0
   -9.2073    4.6416  -16.1497 C   0  0  0  0  0  0  0  0  0  0  0  0
   -2.7268    3.3681  -13.1120 C   0  0  0  0  0  0  0  0  0  0  0  0
   -2.9241    3.3122  -11.6116 C   0  0  0  0  0  0  0  0  0  0  0  0
   -3.2051    4.6539  -11.1922 O   0  0  0  0  0  0  0  0  0  0  0  0
   -3.5850    5.4158  -12.3524 C   0  0  0  0  0  0  0  0  0  0  0  0
   -3.7294    4.0905  -16.0171 C   0  0  0  0  0  0  0  0  0  0  0  0
   -3.5130    4.6333  -17.4468 C   0  0  0  0  0  0  0  0  0  0  0  0
  1  2  1  0
  2  3  1  0
  3  4  1  0
  4  5  1  0
  6  5  1  6
  6  7  1  0
  7  8  2  0
  7  9  1  0
  9 10  1  0
 11 10  1  1
 11 12  1  0
 12 13  1  0
 13 14  1  0
 14 15  2  0
 14 16  1  0
 16 17  1  0
 16 18  1  0
  6 19  1  0
 19 20  1  0
 20 21  1  0
 21 22  1  0
  5 23  1  0
 23 24  1  0
 24  2  1  0
 22  6  1  0
 18 11  1  0
M  END
>  <energy_score>  (1096) 
-54.033322

>  <alias>  (1096) 
None

>  <HIPPO Pose ID>  (1096) 
70637

>  <smiles>  (1096) 
CN1CCN([C@@]2(C(=O)NC[C@@H]3CCC(=O)N(C)C3)CCOC2)CC1

>  <inchikey>  (1096) 
LUZSONREFCPRSH-YOEHRIQHSA-N

>  <distance_score>  (1096) 
1.912162

>  <ref_mols>  (1096) 
Z0701a,Z0719a

>  <ref_pdb>  (1096) 
Z0719a

>  <HIPPO Compound ID>  (1096) 
142978

>  <name>  (1096) 
P70637

>  <inspiration_score>  (1096) 
None

$$$$
P70639
     RDKit          3D

 24 26  0  0  0  0  0  0  0  0999 V2000
   -3.5630    6.9419  -16.2846 C   0  0  0  0  0  0  0  0  0  0  0  0
   -2.5741    5.8894  -16.1198 N   0  0  0  0  0  0  0  0  0  0  0  0
   -2.0013    5.9205  -14.7586 C   0  0  0  0  0  0  0  0  0  0  0  0
   -2.9883    5.5434  -13.6137 C   0  0  0  0  0  0  0  0  0  0  0  0
   -4.0679    4.6199  -14.0221 N   0  0  0  0  0  0  0  0  0  0  0  0
   -4.6741    3.8132  -12.9080 C   0  0  1  0  0  0  0  0  0  0  0  0
   -6.0077    3.1722  -13.4681 C   0  0  0  0  0  0  0  0  0  0  0  0
   -6.2990    2.0505  -13.3097 O   0  0  0  0  0  0  0  0  0  0  0  0
   -6.7707    4.3201  -14.1955 N   0  0  0  0  0  0  0  0  0  0  0  0
   -7.9967    4.2949  -14.9533 C   0  0  0  0  0  0  0  0  0  0  0  0
   -7.9566    4.9429  -16.3470 C   0  0  1  0  0  0  0  0  0  0  0  0
   -6.6025    4.8617  -17.0268 C   0  0  0  0  0  0  0  0  0  0  0  0
   -6.6604    5.2440  -18.4926 C   0  0  0  0  0  0  0  0  0  0  0  0
   -7.6710    4.3806  -19.1826 C   0  0  0  0  0  0  0  0  0  0  0  0
   -7.4281    3.7219  -20.1875 O   0  0  0  0  0  0  0  0  0  0  0  0
   -8.8911    4.3713  -18.5704 N   0  0  0  0  0  0  0  0  0  0  0  0
   -9.0286    4.3086  -17.2163 C   0  0  0  0  0  0  0  0  0  0  0  0
  -10.0150    3.7592  -16.7445 O   0  0  0  0  0  0  0  0  0  0  0  0
   -3.7681    2.7128  -12.3384 C   0  0  0  0  0  0  0  0  0  0  0  0
   -4.2724    2.5583  -10.9207 C   0  0  0  0  0  0  0  0  0  0  0  0
   -4.5641    3.8942  -10.4933 O   0  0  0  0  0  0  0  0  0  0  0  0
   -5.0772    4.6017  -11.6383 C   0  0  0  0  0  0  0  0  0  0  0  0
   -3.5919    3.7707  -15.1303 C   0  0  0  0  0  0  0  0  0  0  0  0
   -3.1579    4.5667  -16.3854 C   0  0  0  0  0  0  0  0  0  0  0  0
  1  2  1  0
  2  3  1  0
  3  4  1  0
  4  5  1  0
  6  5  1  6
  6  7  1  0
  7  8  2  0
  7  9  1  0
  9 10  1  0
 11 10  1  1
 11 12  1  0
 12 13  1  0
 13 14  1  0
 14 15  2  0
 14 16  1  0
 16 17  1  0
 17 18  2  0
  6 19  1  0
 19 20  1  0
 20 21  1  0
 21 22  1  0
  5 23  1  0
 23 24  1  0
 24  2  1  0
 22  6  1  0
 17 11  1  0
M  END
>  <energy_score>  (1097) 
-52.035213

>  <alias>  (1097) 
None

>  <HIPPO Pose ID>  (1097) 
70639

>  <smiles>  (1097) 
CN1CCN([C@@]2(C(=O)NC[C@H]3CCC(=O)NC3=O)CCOC2)CC1

>  <inchikey>  (1097) 
JRJOTDVAPCDXBH-WBMJQRKESA-N

>  <distance_score>  (1097) 
1.426651

>  <ref_mols>  (1097) 
Z0701a,Z0719a

>  <ref_pdb>  (1097) 
Z0719a

>  <HIPPO Compound ID>  (1097) 
142979

>  <name>  (1097) 
P70639

>  <inspiration_score>  (1097) 
None

$$$$
P70641
     RDKit          3D

 25 26  0  0  0  0  0  0  0  0999 V2000
   -1.9613    2.3298  -12.9949 C   0  0  0  0  0  0  0  0  0  0  0  0
   -3.4656    2.2938  -13.2143 C   0  0  0  0  0  0  0  0  0  0  0  0
   -4.1150    3.6902  -13.3486 C   0  0  2  0  0  0  0  0  0  0  0  0
   -5.7003    3.4429  -13.1171 C   0  0  0  0  0  0  0  0  0  0  0  0
   -6.1644    2.6716  -12.3856 O   0  0  0  0  0  0  0  0  0  0  0  0
   -6.3685    4.4115  -14.0857 N   0  0  0  0  0  0  0  0  0  0  0  0
   -7.7485    4.5767  -14.4346 C   0  0  0  0  0  0  0  0  0  0  0  0
   -7.9053    4.6500  -15.9424 C   0  0  2  0  0  0  0  0  0  0  0  0
   -7.3004    5.9237  -16.5460 C   0  0  0  0  0  0  0  0  0  0  0  0
   -7.5761    6.0471  -17.9682 N   0  0  0  0  0  0  0  0  0  0  0  0
   -8.1795    4.9830  -18.5825 C   0  0  0  0  0  0  0  0  0  0  0  0
   -7.5939    4.4272  -19.4910 O   0  0  0  0  0  0  0  0  0  0  0  0
   -9.4606    4.4946  -17.9086 C   0  0  0  0  0  0  0  0  0  0  0  0
   -9.5234    3.0531  -18.2328 C   0  0  0  0  0  0  0  0  0  0  0  0
  -10.7504    5.0690  -18.4745 C   0  0  0  0  0  0  0  0  0  0  0  0
   -9.3714    4.6665  -16.3770 C   0  0  0  0  0  0  0  0  0  0  0  0
   -3.8875    4.4321  -14.6173 N   0  0  0  0  0  0  0  0  0  0  0  0
   -3.5852    5.8859  -14.5779 C   0  0  0  0  0  0  0  0  0  0  0  0
   -3.3852    6.5111  -16.0057 C   0  0  0  0  0  0  0  0  0  0  0  0
   -3.9216    5.6697  -17.0660 N   0  0  0  0  0  0  0  0  0  0  0  0
   -3.8953    6.2133  -18.4215 C   0  0  0  0  0  0  0  0  0  0  0  0
   -4.8040    5.4406  -19.3979 C   0  0  0  0  0  0  0  0  0  0  0  0
   -5.6668    6.3586  -20.0682 O   0  0  0  0  0  0  0  0  0  0  0  0
   -3.3815    4.2995  -17.0194 C   0  0  0  0  0  0  0  0  0  0  0  0
   -3.0250    3.8123  -15.6223 C   0  0  0  0  0  0  0  0  0  0  0  0
  1  2  1  0
  3  2  1  6
  3  4  1  0
  4  5  2  0
  4  6  1  0
  6  7  1  0
  8  7  1  1
  8  9  1  0
  9 10  1  0
 10 11  1  0
 11 12  2  0
 11 13  1  0
 13 14  1  0
 13 15  1  0
 13 16  1  0
  3 17  1  0
 17 18  1  0
 18 19  1  0
 19 20  1  0
 20 21  1  0
 21 22  1  0
 22 23  1  0
 20 24  1  0
 24 25  1  0
 16  8  1  0
 25 17  1  0
M  END
>  <energy_score>  (1098) 
-25.49883

>  <alias>  (1098) 
None

>  <HIPPO Pose ID>  (1098) 
70641

>  <smiles>  (1098) 
CC[C@H](C(=O)NC[C@@H]1CNC(=O)C(C)(C)C1)N1CCN(CCO)CC1

>  <inchikey>  (1098) 
HPPIJNJNTPWEQJ-HUUCEWRRSA-N

>  <distance_score>  (1098) 
1.53678

>  <ref_mols>  (1098) 
Z0701a,Z0719a

>  <ref_pdb>  (1098) 
Z0719a

>  <HIPPO Compound ID>  (1098) 
142993

>  <name>  (1098) 
P70641

>  <inspiration_score>  (1098) 
None

$$$$
P70642
     RDKit          3D

 25 27  0  0  0  0  0  0  0  0999 V2000
   -4.0800    5.9297  -18.3686 C   0  0  0  0  0  0  0  0  0  0  0  0
   -4.0159    5.5304  -16.9677 N   0  0  0  0  0  0  0  0  0  0  0  0
   -3.6028    6.5962  -16.0422 C   0  0  0  0  0  0  0  0  0  0  0  0
   -3.5144    6.1294  -14.5372 C   0  0  0  0  0  0  0  0  0  0  0  0
   -3.8111    4.7108  -14.3619 N   0  0  0  0  0  0  0  0  0  0  0  0
   -4.0507    4.0891  -13.0286 C   0  0  1  0  0  0  0  0  0  0  0  0
   -5.3653    3.2402  -13.2038 C   0  0  0  0  0  0  0  0  0  0  0  0
   -5.4115    2.0747  -13.1603 O   0  0  0  0  0  0  0  0  0  0  0  0
   -6.4718    4.2791  -13.5324 N   0  0  0  0  0  0  0  0  0  0  0  0
   -7.8336    4.0903  -13.9667 C   0  0  0  0  0  0  0  0  0  0  0  0
   -8.1789    4.8568  -15.2725 C   0  0  1  0  0  0  0  0  0  0  0  0
   -7.1692    5.9451  -15.5786 C   0  0  0  0  0  0  0  0  0  0  0  0
   -7.3262    6.5724  -16.8495 N   0  0  0  0  0  0  0  0  0  0  0  0
   -7.6283    5.8596  -17.9695 C   0  0  0  0  0  0  0  0  0  0  0  0
   -7.1350    6.2881  -19.0059 O   0  0  0  0  0  0  0  0  0  0  0  0
   -8.5825    4.6775  -17.8123 C   0  0  0  0  0  0  0  0  0  0  0  0
  -10.0762    5.0003  -17.7917 C   0  0  0  0  0  0  0  0  0  0  0  0
   -8.3963    3.7978  -19.0297 C   0  0  0  0  0  0  0  0  0  0  0  0
   -8.2275    3.9477  -16.5035 C   0  0  0  0  0  0  0  0  0  0  0  0
   -2.9029    3.2386  -12.4777 C   0  0  0  0  0  0  0  0  0  0  0  0
   -2.0111    4.2648  -11.8153 C   0  0  0  0  0  0  0  0  0  0  0  0
   -2.8663    5.3135  -11.3374 O   0  0  0  0  0  0  0  0  0  0  0  0
   -4.1929    5.0478  -11.8308 C   0  0  0  0  0  0  0  0  0  0  0  0
   -3.0935    3.8757  -15.3265 C   0  0  0  0  0  0  0  0  0  0  0  0
   -3.1088    4.3984  -16.7832 C   0  0  0  0  0  0  0  0  0  0  0  0
  1  2  1  0
  2  3  1  0
  3  4  1  0
  4  5  1  0
  6  5  1  6
  6  7  1  0
  7  8  2  0
  7  9  1  0
  9 10  1  0
 11 10  1  1
 11 12  1  0
 12 13  1  0
 13 14  1  0
 14 15  2  0
 14 16  1  0
 16 17  1  0
 16 18  1  0
 16 19  1  0
  6 20  1  0
 20 21  1  0
 21 22  1  0
 22 23  1  0
  5 24  1  0
 24 25  1  0
 25  2  1  0
 23  6  1  0
 19 11  1  0
M  END
>  <energy_score>  (1099) 
-63.295631

>  <alias>  (1099) 
None

>  <HIPPO Pose ID>  (1099) 
70642

>  <smiles>  (1099) 
CN1CCN([C@@]2(C(=O)NC[C@H]3CNC(=O)C(C)(C)C3)CCOC2)CC1

>  <inchikey>  (1099) 
CPRAMZRNNHJRTK-KDOFPFPSSA-N

>  <distance_score>  (1099) 
1.76055

>  <ref_mols>  (1099) 
Z0701a,Z0719a

>  <ref_pdb>  (1099) 
Z0719a

>  <HIPPO Compound ID>  (1099) 
143001

>  <name>  (1099) 
P70642

>  <inspiration_score>  (1099) 
None

$$$$
P70644
     RDKit          3D

 25 27  0  0  0  0  0  0  0  0999 V2000
   -4.3105    6.3371  -18.9891 C   0  0  0  0  0  0  0  0  0  0  0  0
   -3.4919    5.8907  -17.8560 N   0  0  0  0  0  0  0  0  0  0  0  0
   -3.6157    6.8277  -16.7333 C   0  0  0  0  0  0  0  0  0  0  0  0
   -3.0925    6.3025  -15.3731 C   0  0  0  0  0  0  0  0  0  0  0  0
   -3.7735    5.0583  -15.0566 N   0  0  0  0  0  0  0  0  0  0  0  0
   -3.9322    4.5889  -13.6574 C   0  0  1  0  0  0  0  0  0  0  0  0
   -5.5144    4.4887  -13.4373 C   0  0  0  0  0  0  0  0  0  0  0  0
   -6.0472    3.6365  -12.8439 O   0  0  0  0  0  0  0  0  0  0  0  0
   -6.0941    5.7713  -14.0936 N   0  0  0  0  0  0  0  0  0  0  0  0
   -7.4588    6.2165  -14.2346 C   0  0  2  0  0  0  0  0  0  0  0  0
   -8.2514    6.1145  -12.9208 C   0  0  0  0  0  0  0  0  0  0  0  0
   -8.6171    4.7956  -12.5703 O   0  0  0  0  0  0  0  0  0  0  0  0
   -8.1589    5.6807  -15.5103 C   0  0  1  0  0  0  0  0  0  0  0  0
   -7.2756    5.7644  -16.7726 C   0  0  0  0  0  0  0  0  0  0  0  0
   -7.7285    4.9128  -17.9667 C   0  0  0  0  0  0  0  0  0  0  0  0
   -9.1778    4.5331  -17.9002 C   0  0  0  0  0  0  0  0  0  0  0  0
   -9.9379    4.5520  -18.8560 O   0  0  0  0  0  0  0  0  0  0  0  0
   -9.6052    4.1394  -16.6649 N   0  0  0  0  0  0  0  0  0  0  0  0
   -8.7950    4.3095  -15.4723 C   0  0  0  0  0  0  0  0  0  0  0  0
   -3.2661    3.2598  -13.3012 C   0  0  0  0  0  0  0  0  0  0  0  0
   -3.1864    3.3011  -11.7883 C   0  0  0  0  0  0  0  0  0  0  0  0
   -2.9654    4.6712  -11.4352 O   0  0  0  0  0  0  0  0  0  0  0  0
   -3.3685    5.4944  -12.5431 C   0  0  0  0  0  0  0  0  0  0  0  0
   -3.4519    4.0590  -16.0681 C   0  0  0  0  0  0  0  0  0  0  0  0
   -3.8332    4.5061  -17.4988 C   0  0  0  0  0  0  0  0  0  0  0  0
  1  2  1  0
  2  3  1  0
  3  4  1  0
  4  5  1  0
  6  5  1  6
  6  7  1  0
  7  8  2  0
  7  9  1  0
  9 10  1  0
 10 11  1  1
 11 12  1  0
 10 13  1  0
 13 14  1  6
 14 15  1  0
 15 16  1  0
 16 17  2  0
 16 18  1  0
 18 19  1  0
  6 20  1  0
 20 21  1  0
 21 22  1  0
 22 23  1  0
  5 24  1  0
 24 25  1  0
 25  2  1  0
 23  6  1  0
 19 13  1  0
M  END
>  <energy_score>  (1100) 
-65.3716

>  <alias>  (1100) 
None

>  <HIPPO Pose ID>  (1100) 
70644

>  <smiles>  (1100) 
CN1CCN([C@@]2(C(=O)N[C@H](CO)[C@H]3CCC(=O)NC3)CCOC2)CC1

>  <inchikey>  (1100) 
ZGFWCDBJKDQNBN-VBQJREDUSA-N

>  <distance_score>  (1100) 
1.676249

>  <ref_mols>  (1100) 
Z0701a,Z0719a

>  <ref_pdb>  (1100) 
Z0719a

>  <HIPPO Compound ID>  (1100) 
143003

>  <name>  (1100) 
P70644

>  <inspiration_score>  (1100) 
None

$$$$
P70645
     RDKit          3D

 25 27  0  0  0  0  0  0  0  0999 V2000
   -3.2503    6.4496  -16.9396 C   0  0  0  0  0  0  0  0  0  0  0  0
   -3.4472    5.7426  -15.6904 N   0  0  0  0  0  0  0  0  0  0  0  0
   -2.9467    4.3628  -15.7709 C   0  0  0  0  0  0  0  0  0  0  0  0
   -3.0817    3.5832  -14.4380 C   0  0  0  0  0  0  0  0  0  0  0  0
   -3.7777    4.3530  -13.4007 N   0  0  0  0  0  0  0  0  0  0  0  0
   -4.2965    3.5494  -12.2663 C   0  0  2  0  0  0  0  0  0  0  0  0
   -5.6108    2.8478  -12.8243 C   0  0  0  0  0  0  0  0  0  0  0  0
   -5.9265    1.7470  -12.5981 O   0  0  0  0  0  0  0  0  0  0  0  0
   -6.3232    3.9484  -13.6615 N   0  0  0  0  0  0  0  0  0  0  0  0
   -7.6037    3.9444  -14.3049 C   0  0  0  0  0  0  0  0  0  0  0  0
   -7.6896    4.8135  -15.5868 C   0  0  1  0  0  0  0  0  0  0  0  0
   -7.6764    6.2939  -15.1772 C   0  0  0  0  0  0  0  0  0  0  0  0
   -6.5189    4.5597  -16.5347 C   0  0  0  0  0  0  0  0  0  0  0  0
   -6.7401    4.9438  -17.9852 C   0  0  0  0  0  0  0  0  0  0  0  0
   -8.0569    4.4502  -18.5067 C   0  0  0  0  0  0  0  0  0  0  0  0
   -8.1655    3.8729  -19.5806 O   0  0  0  0  0  0  0  0  0  0  0  0
   -9.1133    4.8037  -17.6797 N   0  0  0  0  0  0  0  0  0  0  0  0
  -10.4402    4.7323  -18.2455 C   0  0  0  0  0  0  0  0  0  0  0  0
   -9.0050    4.4514  -16.2813 C   0  0  0  0  0  0  0  0  0  0  0  0
   -4.7190    4.3339  -11.0190 C   0  0  0  0  0  0  0  0  0  0  0  0
   -4.6760    3.2710   -9.9391 C   0  0  0  0  0  0  0  0  0  0  0  0
   -3.4989    2.5105  -10.2271 O   0  0  0  0  0  0  0  0  0  0  0  0
   -3.3299    2.5117  -11.6606 C   0  0  0  0  0  0  0  0  0  0  0  0
   -3.1726    5.6639  -13.1835 C   0  0  0  0  0  0  0  0  0  0  0  0
   -2.8491    6.4084  -14.5218 C   0  0  0  0  0  0  0  0  0  0  0  0
  1  2  1  0
  2  3  1  0
  3  4  1  0
  4  5  1  0
  6  5  1  6
  6  7  1  0
  7  8  2  0
  7  9  1  0
  9 10  1  0
 11 10  1  0
 11 12  1  1
 11 13  1  0
 13 14  1  0
 14 15  1  0
 15 16  2  0
 15 17  1  0
 17 18  1  0
 17 19  1  0
  6 20  1  0
 20 21  1  0
 21 22  1  0
 22 23  1  0
  5 24  1  0
 24 25  1  0
 25  2  1  0
 23  6  1  0
 19 11  1  0
M  END
>  <energy_score>  (1101) 
-51.99856

>  <alias>  (1101) 
None

>  <HIPPO Pose ID>  (1101) 
70645

>  <smiles>  (1101) 
CN1CCN([C@]2(C(=O)NC[C@@]3(C)CCC(=O)N(C)C3)CCOC2)CC1

>  <inchikey>  (1101) 
WAGKLCYRACCHNN-QZTJIDSGSA-N

>  <distance_score>  (1101) 
1.559455

>  <ref_mols>  (1101) 
Z0701a,Z0719a

>  <ref_pdb>  (1101) 
Z0719a

>  <HIPPO Compound ID>  (1101) 
143005

>  <name>  (1101) 
P70645

>  <inspiration_score>  (1101) 
None

$$$$
P70647
     RDKit          3D

 26 29  0  0  0  0  0  0  0  0999 V2000
   -7.7086    3.8041  -12.7587 C   0  0  0  0  0  0  0  0  0  0  0  0
   -6.4795    3.6356  -13.4999 N   0  0  0  0  0  0  0  0  0  0  0  0
   -5.8735    2.4034  -13.3578 C   0  0  0  0  0  0  0  0  0  0  0  0
   -6.5068    1.3849  -13.0934 O   0  0  0  0  0  0  0  0  0  0  0  0
   -4.3631    2.4030  -13.4109 C   0  0  0  0  0  0  0  0  0  0  0  0
   -3.7968    3.8016  -13.5875 C   0  0  0  0  0  0  0  0  0  0  0  0
   -4.5009    4.4669  -14.7715 C   0  0  2  0  0  0  0  0  0  0  0  0
   -3.8255    5.7918  -15.1049 C   0  0  0  0  0  0  0  0  0  0  0  0
   -4.1122    6.2192  -16.4416 N   0  0  0  0  0  0  0  0  0  0  0  0
   -3.4592    7.3304  -17.3059 C   0  0  0  0  0  0  0  0  0  0  0  0
   -2.6410    8.1173  -17.0334 O   0  0  0  0  0  0  0  0  0  0  0  0
   -4.1377    7.2279  -18.7102 C   0  0  1  0  0  0  0  0  0  0  0  0
   -5.6447    7.6247  -18.6325 C   0  0  0  0  0  0  0  0  0  0  0  0
   -5.9946    8.7104  -19.6149 N   0  0  0  0  0  0  0  0  0  0  0  0
   -5.6052    8.1757  -20.9614 C   0  0  0  0  0  0  0  0  0  0  0  0
   -4.1146    7.7549  -21.0418 C   0  0  0  0  0  0  0  0  0  0  0  0
   -3.3943    8.0211  -19.7667 N   0  0  0  0  0  0  0  0  0  0  0  0
   -3.5868    9.4744  -19.4949 C   0  0  0  0  0  0  0  0  0  0  0  0
   -5.0811    9.8513  -19.3281 C   0  0  0  0  0  0  0  0  0  0  0  0
   -6.0260    4.6415  -14.4819 C   0  0  1  0  0  0  0  0  0  0  0  0
   -6.8303    4.6297  -15.7894 C   0  0  0  0  0  0  0  0  0  0  0  0
   -6.3156    4.4725  -17.0049 N   0  0  0  0  0  0  0  0  0  0  0  0
   -7.3732    4.4597  -17.8823 C   0  0  0  0  0  0  0  0  0  0  0  0
   -8.5418    4.7226  -17.2203 C   0  0  0  0  0  0  0  0  0  0  0  0
   -8.1659    4.9531  -15.9242 N   0  0  0  0  0  0  0  0  0  0  0  0
   -9.0006    5.6072  -14.9558 C   0  0  0  0  0  0  0  0  0  0  0  0
  1  2  1  0
  2  3  1  0
  3  4  2  0
  3  5  1  0
  5  6  1  0
  6  7  1  0
  7  8  1  1
  8  9  1  0
  9 10  1  0
 10 11  2  0
 12 10  1  1
 12 13  1  0
 14 13  1  0
 14 15  1  0
 15 16  1  0
 17 16  1  0
 17 18  1  0
 18 19  1  0
  7 20  1  0
 20 21  1  6
 21 22  2  0
 22 23  1  0
 23 24  2  0
 24 25  1  0
 25 26  1  0
 20  2  1  0
 25 21  1  0
 17 12  1  0
 19 14  1  0
M  END
>  <energy_score>  (1102) 
-29.944151

>  <alias>  (1102) 
None

>  <HIPPO Pose ID>  (1102) 
70647

>  <smiles>  (1102) 
CN1C(=O)CC[C@H](CNC(=O)[C@H]2CN3CCN2CC3)[C@H]1c1nccn1C

>  <inchikey>  (1102) 
WTSXETQCELRRDH-FMKPAKJESA-N

>  <distance_score>  (1102) 
1.74081

>  <ref_mols>  (1102) 
Z0701a,Z0719a

>  <ref_pdb>  (1102) 
Z0719a

>  <HIPPO Compound ID>  (1102) 
143037

>  <name>  (1102) 
P70647

>  <inspiration_score>  (1102) 
None

$$$$
P70649
     RDKit          3D

 26 28  0  0  0  0  0  0  0  0999 V2000
   -2.7000    0.8704  -10.3046 C   0  0  0  0  0  0  0  0  0  0  0  0
   -3.5858    1.9900  -10.5703 N   0  0  0  0  0  0  0  0  0  0  0  0
   -3.4150    3.1155   -9.6514 C   0  0  0  0  0  0  0  0  0  0  0  0
   -4.2946    4.3423  -10.0448 C   0  0  0  0  0  0  0  0  0  0  0  0
   -5.4436    4.0752  -10.9491 N   0  0  0  0  0  0  0  0  0  0  0  0
   -4.9686    4.0523  -12.3538 C   0  0  0  0  0  0  0  0  0  0  0  0
   -6.0884    3.6585  -13.3353 C   0  0  0  0  0  0  0  0  0  0  0  0
   -6.1479    2.6026  -13.8345 O   0  0  0  0  0  0  0  0  0  0  0  0
   -6.9670    4.9242  -13.5475 N   0  0  0  0  0  0  0  0  0  0  0  0
   -8.0349    5.1767  -14.4840 C   0  0  0  0  0  0  0  0  0  0  0  0
   -7.9273    4.4224  -15.8208 C   0  0  1  0  0  0  0  0  0  0  0  0
   -9.2505    4.5402  -16.5729 C   0  0  0  0  0  0  0  0  0  0  0  0
   -9.2146    4.1076  -18.0197 C   0  0  0  0  0  0  0  0  0  0  0  0
   -7.9205    4.3784  -18.7315 C   0  0  0  0  0  0  0  0  0  0  0  0
   -7.6759    3.8535  -19.8106 O   0  0  0  0  0  0  0  0  0  0  0  0
   -7.0103    5.2036  -18.0770 N   0  0  0  0  0  0  0  0  0  0  0  0
   -5.8801    5.5680  -18.9377 C   0  0  0  0  0  0  0  0  0  0  0  0
   -6.7082    4.7009  -16.7342 C   0  0  1  0  0  0  0  0  0  0  0  0
   -5.5462    5.4269  -16.1592 C   0  0  0  0  0  0  0  0  0  0  0  0
   -4.2467    4.8803  -16.0394 C   0  0  0  0  0  0  0  0  0  0  0  0
   -3.3663    5.7491  -15.5476 N   0  0  0  0  0  0  0  0  0  0  0  0
   -4.0987    6.8541  -15.3449 N   0  0  0  0  0  0  0  0  0  0  0  0
   -3.4654    8.0296  -14.7989 C   0  0  0  0  0  0  0  0  0  0  0  0
   -5.4038    6.7255  -15.7137 C   0  0  0  0  0  0  0  0  0  0  0  0
   -6.0062    2.7543  -10.5562 C   0  0  0  0  0  0  0  0  0  0  0  0
   -5.0031    1.5688  -10.6168 C   0  0  0  0  0  0  0  0  0  0  0  0
  1  2  1  0
  2  3  1  0
  3  4  1  0
  4  5  1  0
  5  6  1  0
  6  7  1  0
  7  8  2  0
  7  9  1  0
  9 10  1  0
 11 10  1  1
 11 12  1  0
 12 13  1  0
 13 14  1  0
 14 15  2  0
 14 16  1  0
 16 17  1  0
 16 18  1  0
 18 19  1  1
 19 20  1  0
 20 21  2  0
 21 22  1  0
 22 23  1  0
 22 24  1  0
  5 25  1  0
 25 26  1  0
 26  2  1  0
 18 11  1  0
 24 19  2  0
M  END
>  <energy_score>  (1103) 
-46.700026

>  <alias>  (1103) 
None

>  <HIPPO Pose ID>  (1103) 
70649

>  <smiles>  (1103) 
CN1CCN(CC(=O)NC[C@H]2CCC(=O)N(C)[C@H]2c2cnn(C)c2)CC1

>  <inchikey>  (1103) 
NVZXMCIVVJSCHC-RDTXWAMCSA-N

>  <distance_score>  (1103) 
1.521024

>  <ref_mols>  (1103) 
Z0701a,Z0719a

>  <ref_pdb>  (1103) 
Z0719a

>  <HIPPO Compound ID>  (1103) 
143038

>  <name>  (1103) 
P70649

>  <inspiration_score>  (1103) 
None

$$$$
P70651
     RDKit          3D

 26 28  0  0  0  0  0  0  0  0999 V2000
   -0.1228    4.4603  -11.8827 C   0  0  0  0  0  0  0  0  0  0  0  0
   -1.2919    3.5905  -11.9733 N   0  0  0  0  0  0  0  0  0  0  0  0
   -2.1829    3.7895  -10.8113 C   0  0  0  0  0  0  0  0  0  0  0  0
   -3.4956    2.9770  -10.9198 C   0  0  0  0  0  0  0  0  0  0  0  0
   -4.2297    3.2733  -12.1720 N   0  0  0  0  0  0  0  0  0  0  0  0
   -5.4358    2.4124  -12.2548 C   0  0  0  0  0  0  0  0  0  0  0  0
   -6.5265    2.9572  -13.2094 C   0  0  0  0  0  0  0  0  0  0  0  0
   -7.4385    2.2990  -13.5203 O   0  0  0  0  0  0  0  0  0  0  0  0
   -6.2082    4.4409  -13.5184 N   0  0  0  0  0  0  0  0  0  0  0  0
   -6.9927    5.4471  -14.1937 C   0  0  0  0  0  0  0  0  0  0  0  0
   -7.4575    5.2560  -15.6545 C   0  0  2  0  0  0  0  0  0  0  0  0
   -8.7088    4.3953  -15.7511 C   0  0  0  0  0  0  0  0  0  0  0  0
   -9.2693    4.4076  -17.1523 C   0  0  0  0  0  0  0  0  0  0  0  0
   -8.2536    4.2562  -18.2457 C   0  0  0  0  0  0  0  0  0  0  0  0
   -8.6394    3.8969  -19.3502 O   0  0  0  0  0  0  0  0  0  0  0  0
   -6.9390    4.5890  -18.0072 N   0  0  0  0  0  0  0  0  0  0  0  0
   -6.0268    4.3762  -19.1297 C   0  0  0  0  0  0  0  0  0  0  0  0
   -6.4228    4.6842  -16.6300 C   0  0  1  0  0  0  0  0  0  0  0  0
   -5.1180    5.4228  -16.5843 C   0  0  0  0  0  0  0  0  0  0  0  0
   -4.0627    5.0190  -15.8933 N   0  0  0  0  0  0  0  0  0  0  0  0
   -3.0699    5.9119  -16.1448 C   0  0  0  0  0  0  0  0  0  0  0  0
   -3.5075    6.8816  -17.0047 C   0  0  0  0  0  0  0  0  0  0  0  0
   -4.8129    6.5711  -17.2727 N   0  0  0  0  0  0  0  0  0  0  0  0
   -5.6404    7.3482  -18.1560 C   0  0  0  0  0  0  0  0  0  0  0  0
   -3.3184    2.9835  -13.3045 C   0  0  0  0  0  0  0  0  0  0  0  0
   -2.0490    3.8567  -13.2140 C   0  0  0  0  0  0  0  0  0  0  0  0
  1  2  1  0
  2  3  1  0
  3  4  1  0
  4  5  1  0
  5  6  1  0
  6  7  1  0
  7  8  2  0
  7  9  1  0
  9 10  1  0
 11 10  1  1
 11 12  1  0
 12 13  1  0
 13 14  1  0
 14 15  2  0
 14 16  1  0
 16 17  1  0
 16 18  1  0
 18 19  1  6
 19 20  2  0
 20 21  1  0
 21 22  2  0
 22 23  1  0
 23 24  1  0
  5 25  1  0
 25 26  1  0
 26  2  1  0
 18 11  1  0
 23 19  1  0
M  END
>  <energy_score>  (1104) 
-55.880589

>  <alias>  (1104) 
None

>  <HIPPO Pose ID>  (1104) 
70651

>  <smiles>  (1104) 
CN1CCN(CC(=O)NC[C@@H]2CCC(=O)N(C)[C@H]2c2nccn2C)CC1

>  <inchikey>  (1104) 
UEBSBVJUVNDUBT-WMLDXEAASA-N

>  <distance_score>  (1104) 
1.632375

>  <ref_mols>  (1104) 
Z0701a,Z0719a

>  <ref_pdb>  (1104) 
Z0719a

>  <HIPPO Compound ID>  (1104) 
143045

>  <name>  (1104) 
P70651

>  <inspiration_score>  (1104) 
None

$$$$
P70652
     RDKit          3D

 26 28  0  0  0  0  0  0  0  0999 V2000
   -9.0429    4.3351  -16.1847 C   0  0  0  0  0  0  0  0  0  0  0  0
   -9.0268    4.9056  -14.7688 C   0  0  2  0  0  0  0  0  0  0  0  0
   -9.6195    6.2421  -14.7787 N   0  0  0  0  0  0  0  0  0  0  0  0
   -9.5816    7.0798  -13.6986 C   0  0  0  0  0  0  0  0  0  0  0  0
  -10.4751    7.9005  -13.5116 O   0  0  0  0  0  0  0  0  0  0  0  0
   -8.3430    7.0173  -12.8482 C   0  0  0  0  0  0  0  0  0  0  0  0
   -7.8329    5.6005  -12.6810 C   0  0  0  0  0  0  0  0  0  0  0  0
   -7.6697    4.8889  -14.0424 C   0  0  1  0  0  0  0  0  0  0  0  0
   -7.1751    3.4580  -13.7871 C   0  0  0  0  0  0  0  0  0  0  0  0
   -5.8743    3.4305  -13.1728 N   0  0  0  0  0  0  0  0  0  0  0  0
   -5.4344    2.9430  -11.7695 C   0  0  0  0  0  0  0  0  0  0  0  0
   -6.0704    2.5602  -10.8676 O   0  0  0  0  0  0  0  0  0  0  0  0
   -3.8804    2.9495  -11.6712 C   0  0  0  0  0  0  0  0  0  0  0  0
   -3.1512    3.8113  -12.6124 N   0  0  0  0  0  0  0  0  0  0  0  0
   -2.8570    3.2236  -13.9169 C   0  0  0  0  0  0  0  0  0  0  0  0
   -2.8384    4.1878  -15.1261 C   0  0  0  0  0  0  0  0  0  0  0  0
   -3.7630    5.3219  -14.9473 N   0  0  0  0  0  0  0  0  0  0  0  0
   -3.7815    6.1898  -16.1362 C   0  0  0  0  0  0  0  0  0  0  0  0
   -4.6561    5.7284  -17.2766 C   0  0  0  0  0  0  0  0  0  0  0  0
   -4.5428    6.3757  -18.5152 C   0  0  0  0  0  0  0  0  0  0  0  0
   -5.3819    6.0442  -19.5702 C   0  0  0  0  0  0  0  0  0  0  0  0
   -6.3317    5.0453  -19.4041 C   0  0  0  0  0  0  0  0  0  0  0  0
   -6.4647    4.4139  -18.1898 C   0  0  0  0  0  0  0  0  0  0  0  0
   -5.6382    4.7506  -17.1279 C   0  0  0  0  0  0  0  0  0  0  0  0
   -3.2993    6.0778  -13.7689 C   0  0  0  0  0  0  0  0  0  0  0  0
   -3.4214    5.2410  -12.4825 C   0  0  0  0  0  0  0  0  0  0  0  0
  2  1  1  6
  2  3  1  0
  3  4  1  0
  4  5  2  0
  4  6  1  0
  6  7  1  0
  7  8  1  0
  8  9  1  1
  9 10  1  0
 10 11  1  0
 11 12  2  0
 11 13  1  0
 13 14  1  0
 14 15  1  0
 15 16  1  0
 16 17  1  0
 17 18  1  0
 18 19  1  0
 19 20  2  0
 20 21  1  0
 21 22  2  0
 22 23  1  0
 23 24  2  0
 17 25  1  0
 25 26  1  0
  8  2  1  0
 26 14  1  0
 24 19  1  0
M  END
>  <energy_score>  (1105) 
-30.528329

>  <alias>  (1105) 
None

>  <HIPPO Pose ID>  (1105) 
70652

>  <smiles>  (1105) 
C[C@@H]1NC(=O)CC[C@H]1CNC(=O)CN1CCN(Cc2ccccc2)CC1

>  <inchikey>  (1105) 
NZLHJGMZLYLOIL-WMZOPIPTSA-N

>  <distance_score>  (1105) 
1.858931

>  <ref_mols>  (1105) 
Z0701a,Z0719a

>  <ref_pdb>  (1105) 
Z0719a

>  <HIPPO Compound ID>  (1105) 
143071

>  <name>  (1105) 
P70652

>  <inspiration_score>  (1105) 
None

$$$$
P70653
     RDKit          3D

 27 29  0  0  0  0  0  0  0  0999 V2000
   -3.3200    5.2100  -16.1403 C   0  0  0  0  0  0  0  0  0  0  0  0
   -4.2830    4.2887  -16.8765 C   0  0  0  0  0  0  0  0  0  0  0  0
   -5.5980    4.8491  -17.0677 N   0  0  0  0  0  0  0  0  0  0  0  0
   -5.6323    6.1034  -17.6160 C   0  0  0  0  0  0  0  0  0  0  0  0
   -4.9006    6.4609  -18.5349 O   0  0  0  0  0  0  0  0  0  0  0  0
   -6.6419    7.0085  -17.0004 C   0  0  0  0  0  0  0  0  0  0  0  0
   -7.0938    6.6906  -15.5533 C   0  0  0  0  0  0  0  0  0  0  0  0
   -6.8719    5.2465  -15.0831 C   0  0  1  0  0  0  0  0  0  0  0  0
   -7.8975    4.7587  -14.0453 C   0  0  0  0  0  0  0  0  0  0  0  0
   -7.2887    4.1180  -12.8985 N   0  0  0  0  0  0  0  0  0  0  0  0
   -6.7456    2.6716  -12.7204 C   0  0  0  0  0  0  0  0  0  0  0  0
   -6.7771    1.7555  -13.4468 O   0  0  0  0  0  0  0  0  0  0  0  0
   -6.2027    2.5865  -11.2808 C   0  0  0  0  0  0  0  0  0  0  0  0
   -5.4436    3.8066  -10.9150 N   0  0  0  0  0  0  0  0  0  0  0  0
   -4.1672    3.8875  -11.6619 C   0  0  0  0  0  0  0  0  0  0  0  0
   -3.0551    4.7253  -10.9718 C   0  0  0  0  0  0  0  0  0  0  0  0
   -3.5955    5.7423  -10.0634 N   0  0  0  0  0  0  0  0  0  0  0  0
   -2.5496    6.5726   -9.4817 C   0  0  0  0  0  0  0  0  0  0  0  0
   -4.4282    5.1096   -9.0195 C   0  0  0  0  0  0  0  0  0  0  0  0
   -5.1776    3.8265   -9.4688 C   0  0  0  0  0  0  0  0  0  0  0  0
   -6.7602    4.3520  -16.3111 C   0  0  1  0  0  0  0  0  0  0  0  0
   -8.0184    4.3430  -17.1797 C   0  0  0  0  0  0  0  0  0  0  0  0
   -9.2470    4.4742  -16.7018 N   0  0  0  0  0  0  0  0  0  0  0  0
  -10.0882    4.5334  -17.7685 C   0  0  0  0  0  0  0  0  0  0  0  0
   -9.3745    4.4381  -18.9231 C   0  0  0  0  0  0  0  0  0  0  0  0
   -8.0684    4.2915  -18.5573 N   0  0  0  0  0  0  0  0  0  0  0  0
   -7.0044    4.2033  -19.5241 C   0  0  0  0  0  0  0  0  0  0  0  0
  1  2  1  0
  2  3  1  0
  3  4  1  0
  4  5  2  0
  4  6  1  0
  6  7  1  0
  7  8  1  0
  8  9  1  1
  9 10  1  0
 10 11  1  0
 11 12  2  0
 11 13  1  0
 13 14  1  0
 14 15  1  0
 15 16  1  0
 16 17  1  0
 17 18  1  0
 17 19  1  0
 19 20  1  0
  8 21  1  0
 21 22  1  6
 22 23  2  0
 23 24  1  0
 24 25  2  0
 25 26  1  0
 26 27  1  0
 21  3  1  0
 26 22  1  0
 20 14  1  0
M  END
>  <energy_score>  (1106) 
-32.950162

>  <alias>  (1106) 
None

>  <HIPPO Pose ID>  (1106) 
70653

>  <smiles>  (1106) 
CCN1C(=O)CC[C@@H](CNC(=O)CN2CCN(C)CC2)[C@H]1c1nccn1C

>  <inchikey>  (1106) 
NRAJSMYQUCPBRY-YJBOKZPZSA-N

>  <distance_score>  (1106) 
1.941082

>  <ref_mols>  (1106) 
Z0701a,Z0719a

>  <ref_pdb>  (1106) 
Z0719a

>  <HIPPO Compound ID>  (1106) 
143099

>  <name>  (1106) 
P70653

>  <inspiration_score>  (1106) 
None

$$$$
P70654
     RDKit          3D

 27 29  0  0  0  0  0  0  0  0999 V2000
   -0.9211    4.2175  -13.9110 C   0  0  0  0  0  0  0  0  0  0  0  0
   -2.3722    3.7551  -13.8467 C   0  0  0  0  0  0  0  0  0  0  0  0
   -3.3579    4.8977  -14.1492 C   0  0  2  0  0  0  0  0  0  0  0  0
   -4.7749    4.4857  -13.6339 C   0  0  0  0  0  0  0  0  0  0  0  0
   -5.2310    3.4284  -13.8299 O   0  0  0  0  0  0  0  0  0  0  0  0
   -5.3601    5.7100  -12.8733 N   0  0  0  0  0  0  0  0  0  0  0  0
   -6.5820    5.8471  -12.1213 C   0  0  0  0  0  0  0  0  0  0  0  0
   -6.8125    7.2611  -11.5901 C   0  0  2  0  0  0  0  0  0  0  0  0
   -7.9916    7.2817  -10.6191 C   0  0  0  0  0  0  0  0  0  0  0  0
   -8.1758    8.6791  -10.0556 C   0  0  0  0  0  0  0  0  0  0  0  0
   -8.2256    9.7705  -11.1068 C   0  0  0  0  0  0  0  0  0  0  0  0
   -8.8617   10.8038  -10.9008 O   0  0  0  0  0  0  0  0  0  0  0  0
   -7.4321    9.5844  -12.2364 N   0  0  0  0  0  0  0  0  0  0  0  0
   -7.4432   10.6458  -13.2275 C   0  0  0  0  0  0  0  0  0  0  0  0
   -7.1207    8.2435  -12.7188 C   0  0  0  0  0  0  0  0  0  0  0  0
   -3.3223    5.3214  -15.5754 N   0  0  0  0  0  0  0  0  0  0  0  0
   -3.8149    6.6779  -15.8215 C   0  0  0  0  0  0  0  0  0  0  0  0
   -5.2871    6.7956  -16.2534 C   0  0  0  0  0  0  0  0  0  0  0  0
   -5.6394    5.8879  -17.3510 N   0  0  0  0  0  0  0  0  0  0  0  0
   -6.8957    5.2718  -17.3336 C   0  0  0  0  0  0  0  0  0  0  0  0
   -7.5045    4.9656  -18.5531 C   0  0  0  0  0  0  0  0  0  0  0  0
   -8.8041    4.4615  -18.6171 C   0  0  0  0  0  0  0  0  0  0  0  0
   -9.5176    4.2320  -17.4533 C   0  0  0  0  0  0  0  0  0  0  0  0
   -8.9004    4.4401  -16.2277 C   0  0  0  0  0  0  0  0  0  0  0  0
   -7.6014    4.9475  -16.1714 C   0  0  0  0  0  0  0  0  0  0  0  0
   -4.5599    4.9905  -17.7960 C   0  0  0  0  0  0  0  0  0  0  0  0
   -3.8809    4.3549  -16.5612 C   0  0  0  0  0  0  0  0  0  0  0  0
  1  2  1  0
  3  2  1  6
  3  4  1  0
  4  5  2  0
  4  6  1  0
  6  7  1  0
  8  7  1  6
  8  9  1  0
  9 10  1  0
 10 11  1  0
 11 12  2  0
 11 13  1  0
 13 14  1  0
 13 15  1  0
  3 16  1  0
 16 17  1  0
 17 18  1  0
 18 19  1  0
 19 20  1  0
 20 21  2  0
 21 22  1  0
 22 23  2  0
 23 24  1  0
 24 25  2  0
 19 26  1  0
 26 27  1  0
 15  8  1  0
 27 16  1  0
 25 20  1  0
M  END
>  <energy_score>  (1107) 
-29.124446

>  <alias>  (1107) 
None

>  <HIPPO Pose ID>  (1107) 
70654

>  <smiles>  (1107) 
CC[C@H](C(=O)NC[C@@H]1CCC(=O)N(C)C1)N1CCN(c2ccccc2)CC1

>  <inchikey>  (1107) 
XGGAQBFMYKOMJU-PKOBYXMFSA-N

>  <distance_score>  (1107) 
1.979539

>  <ref_mols>  (1107) 
Z0701a,Z0719a

>  <ref_pdb>  (1107) 
Z0719a

>  <HIPPO Compound ID>  (1107) 
143128

>  <name>  (1107) 
P70654

>  <inspiration_score>  (1107) 
None

$$$$
P70659
     RDKit          3D

 27 30  0  0  0  0  0  0  0  0999 V2000
   -6.0362    5.8236   -9.8984 C   0  0  0  0  0  0  0  0  0  0  0  0
   -5.8902    4.4234  -10.4977 C   0  0  2  0  0  0  0  0  0  0  0  0
   -5.4527    3.3760   -9.4283 C   0  0  0  0  0  0  0  0  0  0  0  0
   -4.3927    2.4665   -9.9468 N   0  0  0  0  0  0  0  0  0  0  0  0
   -3.2139    3.3093  -10.2530 C   0  0  0  0  0  0  0  0  0  0  0  0
   -3.5708    4.4908  -11.1932 C   0  0  0  0  0  0  0  0  0  0  0  0
   -4.9755    4.4215  -11.6962 N   0  0  0  0  0  0  0  0  0  0  0  0
   -5.1018    3.0259  -12.3046 C   0  0  2  0  0  0  0  0  0  0  0  0
   -6.4132    2.8642  -13.1246 C   0  0  0  0  0  0  0  0  0  0  0  0
   -6.9111    1.8307  -13.3547 O   0  0  0  0  0  0  0  0  0  0  0  0
   -6.7918    4.2973  -13.6078 N   0  0  0  0  0  0  0  0  0  0  0  0
   -7.9106    4.7546  -14.3908 C   0  0  0  0  0  0  0  0  0  0  0  0
   -7.7863    4.4434  -15.8923 C   0  0  1  0  0  0  0  0  0  0  0  0
   -9.1742    4.4562  -16.5260 C   0  0  0  0  0  0  0  0  0  0  0  0
   -9.1664    4.1809  -18.0138 C   0  0  0  0  0  0  0  0  0  0  0  0
   -7.8411    4.3406  -18.7103 C   0  0  0  0  0  0  0  0  0  0  0  0
   -7.6559    3.8001  -19.7952 O   0  0  0  0  0  0  0  0  0  0  0  0
   -6.8742    5.1150  -18.1180 N   0  0  0  0  0  0  0  0  0  0  0  0
   -5.7352    5.4901  -18.9502 C   0  0  0  0  0  0  0  0  0  0  0  0
   -6.9215    5.4408  -16.6867 C   0  0  2  0  0  0  0  0  0  0  0  0
   -5.5268    5.5884  -16.1832 C   0  0  0  0  0  0  0  0  0  0  0  0
   -4.8145    6.7997  -16.0662 C   0  0  0  0  0  0  0  0  0  0  0  0
   -3.5605    6.6262  -15.6531 N   0  0  0  0  0  0  0  0  0  0  0  0
   -3.4708    5.3012  -15.4712 N   0  0  0  0  0  0  0  0  0  0  0  0
   -2.2378    4.7392  -14.9846 C   0  0  0  0  0  0  0  0  0  0  0  0
   -4.6053    4.6337  -15.8035 C   0  0  0  0  0  0  0  0  0  0  0  0
   -4.9114    1.9089  -11.2374 C   0  0  0  0  0  0  0  0  0  0  0  0
  2  1  1  1
  2  3  1  0
  4  3  1  0
  4  5  1  0
  5  6  1  0
  7  6  1  0
  7  8  1  0
  8  9  1  1
  9 10  2  0
  9 11  1  0
 11 12  1  0
 13 12  1  1
 13 14  1  0
 14 15  1  0
 15 16  1  0
 16 17  2  0
 16 18  1  0
 18 19  1  0
 18 20  1  0
 20 21  1  1
 21 22  1  0
 22 23  2  0
 23 24  1  0
 24 25  1  0
 24 26  1  0
  8 27  1  0
  7  2  1  0
 20 13  1  0
 26 21  2  0
 27  4  1  0
M  END
>  <energy_score>  (1108) 
-71.67195

>  <alias>  (1108) 
None

>  <HIPPO Pose ID>  (1108) 
70659

>  <smiles>  (1108) 
C[C@@H]1CN2CCN1[C@H](C(=O)NC[C@H]1CCC(=O)N(C)[C@@H]1c1cnn(C)c1)C2

>  <inchikey>  (1108) 
RYTQDMKXAUGYST-DEICHXMPSA-N

>  <distance_score>  (1108) 
1.412916

>  <ref_mols>  (1108) 
Z0701a,Z0719a

>  <ref_pdb>  (1108) 
Z0719a

>  <HIPPO Compound ID>  (1108) 
143134

>  <name>  (1108) 
P70659

>  <inspiration_score>  (1108) 
None

$$$$
P70674
     RDKit          3D

 27 30  0  0  0  0  0  0  0  0999 V2000
   -1.1183    1.4989  -11.7024 C   0  0  0  0  0  0  0  0  0  0  0  0
   -2.2231    2.5391  -11.9112 C   0  0  2  0  0  0  0  0  0  0  0  0
   -2.3625    3.5007  -10.6873 C   0  0  0  0  0  0  0  0  0  0  0  0
   -3.7529    3.5604  -10.1547 N   0  0  0  0  0  0  0  0  0  0  0  0
   -4.1311    2.1554   -9.8175 C   0  0  0  0  0  0  0  0  0  0  0  0
   -4.0540    1.2147  -11.0497 C   0  0  0  0  0  0  0  0  0  0  0  0
   -3.5334    1.9137  -12.2665 N   0  0  0  0  0  0  0  0  0  0  0  0
   -4.4682    3.0717  -12.5419 C   0  0  1  0  0  0  0  0  0  0  0  0
   -5.8358    2.6450  -13.1709 C   0  0  0  0  0  0  0  0  0  0  0  0
   -6.2514    1.5508  -13.1552 O   0  0  0  0  0  0  0  0  0  0  0  0
   -6.4334    3.9454  -13.7996 N   0  0  0  0  0  0  0  0  0  0  0  0
   -7.6916    4.1722  -14.4433 C   0  0  0  0  0  0  0  0  0  0  0  0
   -7.6451    4.8728  -15.8189 C   0  0  2  0  0  0  0  0  0  0  0  0
   -9.0301    4.6537  -16.4918 C   0  0  0  0  0  0  0  0  0  0  0  0
   -9.0538    4.7548  -18.0087 C   0  0  0  0  0  0  0  0  0  0  0  0
   -7.7570    5.3412  -18.4551 C   0  0  0  0  0  0  0  0  0  0  0  0
   -7.5727    6.4956  -18.8020 O   0  0  0  0  0  0  0  0  0  0  0  0
   -6.7123    4.5132  -18.1538 N   0  0  0  0  0  0  0  0  0  0  0  0
   -5.6442    4.4193  -19.1261 C   0  0  0  0  0  0  0  0  0  0  0  0
   -6.4673    4.4100  -16.7175 C   0  0  1  0  0  0  0  0  0  0  0  0
   -5.1213    4.9886  -16.3465 C   0  0  0  0  0  0  0  0  0  0  0  0
   -4.1898    4.3101  -15.6910 N   0  0  0  0  0  0  0  0  0  0  0  0
   -3.0797    5.0940  -15.6534 C   0  0  0  0  0  0  0  0  0  0  0  0
   -3.3159    6.2800  -16.2893 C   0  0  0  0  0  0  0  0  0  0  0  0
   -4.6144    6.2120  -16.7169 N   0  0  0  0  0  0  0  0  0  0  0  0
   -5.2641    7.2858  -17.4128 C   0  0  0  0  0  0  0  0  0  0  0  0
   -4.6636    3.9523  -11.2746 C   0  0  0  0  0  0  0  0  0  0  0  0
  2  1  1  1
  2  3  1  0
  4  3  1  0
  4  5  1  0
  5  6  1  0
  7  6  1  0
  7  8  1  0
  8  9  1  1
  9 10  2  0
  9 11  1  0
 11 12  1  0
 13 12  1  1
 13 14  1  0
 14 15  1  0
 15 16  1  0
 16 17  2  0
 16 18  1  0
 18 19  1  0
 18 20  1  0
 20 21  1  1
 21 22  2  0
 22 23  1  0
 23 24  2  0
 24 25  1  0
 25 26  1  0
  8 27  1  0
  7  2  1  0
 20 13  1  0
 25 21  1  0
 27  4  1  0
M  END
>  <energy_score>  (1109) 
-23.09202

>  <alias>  (1109) 
None

>  <HIPPO Pose ID>  (1109) 
70674

>  <smiles>  (1109) 
C[C@@H]1CN2CCN1[C@@H](C(=O)NC[C@@H]1CCC(=O)N(C)[C@H]1c1nccn1C)C2

>  <inchikey>  (1109) 
UWKOQJLLWSQZLQ-JYYAWHABSA-N

>  <distance_score>  (1109) 
1.415338

>  <ref_mols>  (1109) 
Z0701a,Z0719a

>  <ref_pdb>  (1109) 
Z0719a

>  <HIPPO Compound ID>  (1109) 
143136

>  <name>  (1109) 
P70674

>  <inspiration_score>  (1109) 
None

$$$$
P70682
     RDKit          3D

 27 30  0  0  0  0  0  0  0  0999 V2000
   -1.8239    2.7660  -11.0052 C   0  0  0  0  0  0  0  0  0  0  0  0
   -3.0729    3.4255  -10.4137 C   0  0  1  0  0  0  0  0  0  0  0  0
   -3.5672    4.6170  -11.2925 C   0  0  0  0  0  0  0  0  0  0  0  0
   -4.9883    4.4641  -11.7214 N   0  0  0  0  0  0  0  0  0  0  0  0
   -5.7933    4.3357  -10.4632 C   0  0  0  0  0  0  0  0  0  0  0  0
   -5.2855    3.1957   -9.5395 C   0  0  0  0  0  0  0  0  0  0  0  0
   -4.1610    2.4390  -10.1637 N   0  0  0  0  0  0  0  0  0  0  0  0
   -4.7109    1.9395  -11.4652 C   0  0  0  0  0  0  0  0  0  0  0  0
   -5.0613    3.1139  -12.4209 C   0  0  1  0  0  0  0  0  0  0  0  0
   -6.4219    2.9259  -13.1506 C   0  0  0  0  0  0  0  0  0  0  0  0
   -6.9314    1.8890  -13.3352 O   0  0  0  0  0  0  0  0  0  0  0  0
   -6.8604    4.3584  -13.5845 N   0  0  0  0  0  0  0  0  0  0  0  0
   -7.9585    4.7897  -14.4099 C   0  0  0  0  0  0  0  0  0  0  0  0
   -7.8028    4.4548  -15.9031 C   0  0  1  0  0  0  0  0  0  0  0  0
   -9.1827    4.4477  -16.5554 C   0  0  0  0  0  0  0  0  0  0  0  0
   -9.1570    4.1650  -18.0410 C   0  0  0  0  0  0  0  0  0  0  0  0
   -7.8267    4.3347  -18.7246 C   0  0  0  0  0  0  0  0  0  0  0  0
   -7.6250    3.7927  -19.8059 O   0  0  0  0  0  0  0  0  0  0  0  0
   -6.8744    5.1213  -18.1257 N   0  0  0  0  0  0  0  0  0  0  0  0
   -5.7359    5.5127  -18.9512 C   0  0  0  0  0  0  0  0  0  0  0  0
   -6.9367    5.4516  -16.6956 C   0  0  2  0  0  0  0  0  0  0  0  0
   -5.5467    5.6060  -16.1829 C   0  0  0  0  0  0  0  0  0  0  0  0
   -4.8507    6.8234  -16.0373 C   0  0  0  0  0  0  0  0  0  0  0  0
   -3.5902    6.6561  -15.6417 N   0  0  0  0  0  0  0  0  0  0  0  0
   -3.4797    5.3280  -15.5003 N   0  0  0  0  0  0  0  0  0  0  0  0
   -2.2253    4.7681  -15.0690 C   0  0  0  0  0  0  0  0  0  0  0  0
   -4.6112    4.6543  -15.8319 C   0  0  0  0  0  0  0  0  0  0  0  0
  2  1  1  6
  2  3  1  0
  4  3  1  0
  4  5  1  0
  5  6  1  0
  7  6  1  0
  7  8  1  0
  8  9  1  0
  9 10  1  1
 10 11  2  0
 10 12  1  0
 12 13  1  0
 14 13  1  1
 14 15  1  0
 15 16  1  0
 16 17  1  0
 17 18  2  0
 17 19  1  0
 19 20  1  0
 19 21  1  0
 21 22  1  1
 22 23  1  0
 23 24  2  0
 24 25  1  0
 25 26  1  0
 25 27  1  0
  7  2  1  0
 21 14  1  0
 27 22  2  0
  9  4  1  0
M  END
>  <energy_score>  (1110) 
-46.669601

>  <alias>  (1110) 
None

>  <HIPPO Pose ID>  (1110) 
70682

>  <smiles>  (1110) 
C[C@H]1CN2CCN1C[C@H]2C(=O)NC[C@H]1CCC(=O)N(C)[C@@H]1c1cnn(C)c1

>  <inchikey>  (1110) 
JJSDYMOLOJMXPL-KPEUIFRASA-N

>  <distance_score>  (1110) 
1.41883

>  <ref_mols>  (1110) 
Z0701a,Z0719a

>  <ref_pdb>  (1110) 
Z0719a

>  <HIPPO Compound ID>  (1110) 
143143

>  <name>  (1110) 
P70682

>  <inspiration_score>  (1110) 
None

$$$$
P70698
     RDKit          3D

 27 30  0  0  0  0  0  0  0  0999 V2000
   -3.5656    1.7360   -9.6587 C   0  0  0  0  0  0  0  0  0  0  0  0
   -2.6521    2.2858  -10.7526 C   0  0  1  0  0  0  0  0  0  0  0  0
   -2.8655    1.5484  -12.1116 C   0  0  0  0  0  0  0  0  0  0  0  0
   -2.8707    2.4898  -13.2800 N   0  0  0  0  0  0  0  0  0  0  0  0
   -1.6489    3.3353  -13.1296 C   0  0  0  0  0  0  0  0  0  0  0  0
   -1.6652    4.1762  -11.8203 C   0  0  0  0  0  0  0  0  0  0  0  0
   -2.7750    3.7738  -10.9095 N   0  0  0  0  0  0  0  0  0  0  0  0
   -4.0522    4.0418  -11.6486 C   0  0  0  0  0  0  0  0  0  0  0  0
   -4.0383    3.4364  -13.0783 C   0  0  2  0  0  0  0  0  0  0  0  0
   -5.4216    2.8124  -13.4413 C   0  0  0  0  0  0  0  0  0  0  0  0
   -5.6610    1.6722  -13.3543 O   0  0  0  0  0  0  0  0  0  0  0  0
   -6.3151    3.9967  -13.9130 N   0  0  0  0  0  0  0  0  0  0  0  0
   -7.6389    4.0022  -14.4571 C   0  0  0  0  0  0  0  0  0  0  0  0
   -7.8598    4.9600  -15.6372 C   0  0  2  0  0  0  0  0  0  0  0  0
   -9.2373    4.6697  -16.2782 C   0  0  0  0  0  0  0  0  0  0  0  0
   -9.2333    4.0840  -17.6873 C   0  0  0  0  0  0  0  0  0  0  0  0
   -8.0930    4.5599  -18.5460 C   0  0  0  0  0  0  0  0  0  0  0  0
   -7.8093    4.0471  -19.6164 O   0  0  0  0  0  0  0  0  0  0  0  0
   -7.3033    5.5181  -17.9333 N   0  0  0  0  0  0  0  0  0  0  0  0
   -6.5519    6.4044  -18.8039 C   0  0  0  0  0  0  0  0  0  0  0  0
   -6.7562    4.9313  -16.7092 C   0  0  1  0  0  0  0  0  0  0  0  0
   -5.4585    5.5557  -16.3061 C   0  0  0  0  0  0  0  0  0  0  0  0
   -5.2440    6.3368  -15.2580 N   0  0  0  0  0  0  0  0  0  0  0  0
   -3.9077    6.6214  -15.2702 C   0  0  0  0  0  0  0  0  0  0  0  0
   -3.2862    6.0013  -16.3227 C   0  0  0  0  0  0  0  0  0  0  0  0
   -4.2779    5.3332  -16.9837 N   0  0  0  0  0  0  0  0  0  0  0  0
   -4.0635    4.5953  -18.2060 C   0  0  0  0  0  0  0  0  0  0  0  0
  2  1  1  1
  2  3  1  0
  4  3  1  0
  4  5  1  0
  5  6  1  0
  7  6  1  0
  7  8  1  0
  8  9  1  0
  9 10  1  1
 10 11  2  0
 10 12  1  0
 12 13  1  0
 14 13  1  1
 14 15  1  0
 15 16  1  0
 16 17  1  0
 17 18  2  0
 17 19  1  0
 19 20  1  0
 19 21  1  0
 21 22  1  1
 22 23  2  0
 23 24  1  0
 24 25  2  0
 25 26  1  0
 26 27  1  0
  7  2  1  0
 21 14  1  0
 26 22  1  0
  9  4  1  0
M  END
>  <energy_score>  (1111) 
-18.644304

>  <alias>  (1111) 
None

>  <HIPPO Pose ID>  (1111) 
70698

>  <smiles>  (1111) 
C[C@H]1CN2CCN1C[C@@H]2C(=O)NC[C@@H]1CCC(=O)N(C)[C@H]1c1nccn1C

>  <inchikey>  (1111) 
MIAWMQJSVNTPQA-LJIGWXMPSA-N

>  <distance_score>  (1111) 
1.406617

>  <ref_mols>  (1111) 
Z0701a,Z0719a

>  <ref_pdb>  (1111) 
Z0719a

>  <HIPPO Compound ID>  (1111) 
143144

>  <name>  (1111) 
P70698

>  <inspiration_score>  (1111) 
None

$$$$
P70702
     RDKit          3D

 27 29  0  0  0  0  0  0  0  0999 V2000
   -0.3629    1.4074  -12.4799 C   0  0  0  0  0  0  0  0  0  0  0  0
   -1.2819    2.6228  -12.5468 C   0  0  0  0  0  0  0  0  0  0  0  0
   -2.4817    2.3806  -13.3608 N   0  0  0  0  0  0  0  0  0  0  0  0
   -3.2155    3.6341  -13.6297 C   0  0  0  0  0  0  0  0  0  0  0  0
   -3.8592    4.2881  -12.3842 C   0  0  0  0  0  0  0  0  0  0  0  0
   -4.6358    3.4037  -11.5179 N   0  0  0  0  0  0  0  0  0  0  0  0
   -6.0900    3.5395  -11.5915 C   0  0  0  0  0  0  0  0  0  0  0  0
   -6.7398    3.3276  -12.9818 C   0  0  0  0  0  0  0  0  0  0  0  0
   -6.8990    2.2684  -13.4583 O   0  0  0  0  0  0  0  0  0  0  0  0
   -7.1860    4.7434  -13.4836 N   0  0  0  0  0  0  0  0  0  0  0  0
   -7.9958    5.1234  -14.6172 C   0  0  0  0  0  0  0  0  0  0  0  0
   -7.6596    4.5413  -16.0000 C   0  0  1  0  0  0  0  0  0  0  0  0
   -8.9983    4.2270  -16.7197 C   0  0  0  0  0  0  0  0  0  0  0  0
   -9.0256    4.3850  -18.2351 C   0  0  0  0  0  0  0  0  0  0  0  0
   -7.6847    4.2326  -18.8895 C   0  0  0  0  0  0  0  0  0  0  0  0
   -7.5666    3.6915  -19.9795 O   0  0  0  0  0  0  0  0  0  0  0  0
   -6.6165    4.7602  -18.2052 N   0  0  0  0  0  0  0  0  0  0  0  0
   -5.2773    4.4310  -18.6747 C   0  0  0  0  0  0  0  0  0  0  0  0
   -6.8700    5.4622  -16.9389 C   0  0  2  0  0  0  0  0  0  0  0  0
   -5.6216    6.0882  -16.4228 C   0  0  0  0  0  0  0  0  0  0  0  0
   -5.0114    5.8631  -15.2753 N   0  0  0  0  0  0  0  0  0  0  0  0
   -3.8625    6.5978  -15.3062 C   0  0  0  0  0  0  0  0  0  0  0  0
   -3.7695    7.3046  -16.4747 C   0  0  0  0  0  0  0  0  0  0  0  0
   -4.9216    7.0268  -17.1511 N   0  0  0  0  0  0  0  0  0  0  0  0
   -5.2708    7.6177  -18.4216 C   0  0  0  0  0  0  0  0  0  0  0  0
   -4.1484    2.0208  -11.4480 C   0  0  0  0  0  0  0  0  0  0  0  0
   -3.4456    1.4707  -12.7068 C   0  0  0  0  0  0  0  0  0  0  0  0
  1  2  1  0
  2  3  1  0
  3  4  1  0
  4  5  1  0
  5  6  1  0
  6  7  1  0
  7  8  1  0
  8  9  2  0
  8 10  1  0
 10 11  1  0
 12 11  1  1
 12 13  1  0
 13 14  1  0
 14 15  1  0
 15 16  2  0
 15 17  1  0
 17 18  1  0
 17 19  1  0
 19 20  1  1
 20 21  2  0
 21 22  1  0
 22 23  2  0
 23 24  1  0
 24 25  1  0
  6 26  1  0
 26 27  1  0
 27  3  1  0
 19 12  1  0
 24 20  1  0
M  END
>  <energy_score>  (1112) 
-14.156455

>  <alias>  (1112) 
None

>  <HIPPO Pose ID>  (1112) 
70702

>  <smiles>  (1112) 
CCN1CCN(CC(=O)NC[C@H]2CCC(=O)N(C)[C@@H]2c2nccn2C)CC1

>  <inchikey>  (1112) 
RWAALAAERLFLAS-QAPCUYQASA-N

>  <distance_score>  (1112) 
1.737269

>  <ref_mols>  (1112) 
Z0701a,Z0719a

>  <ref_pdb>  (1112) 
Z0719a

>  <HIPPO Compound ID>  (1112) 
143145

>  <name>  (1112) 
P70702

>  <inspiration_score>  (1112) 
None

$$$$
P70705
     RDKit          3D

 27 29  0  0  0  0  0  0  0  0999 V2000
   -2.6245    4.8852   -7.2624 C   0  0  0  0  0  0  0  0  0  0  0  0
   -2.1507    4.4827   -8.6556 C   0  0  0  0  0  0  0  0  0  0  0  0
   -3.0477    3.5202   -9.3016 N   0  0  0  0  0  0  0  0  0  0  0  0
   -4.3992    4.0851   -9.5344 C   0  0  0  0  0  0  0  0  0  0  0  0
   -5.1467    3.4266  -10.7164 C   0  0  0  0  0  0  0  0  0  0  0  0
   -4.4557    3.6272  -12.0226 N   0  0  0  0  0  0  0  0  0  0  0  0
   -4.8264    2.5228  -12.9423 C   0  0  0  0  0  0  0  0  0  0  0  0
   -6.2977    2.6249  -13.3973 C   0  0  0  0  0  0  0  0  0  0  0  0
   -7.0018    1.6967  -13.4839 O   0  0  0  0  0  0  0  0  0  0  0  0
   -6.5405    4.1117  -13.7783 N   0  0  0  0  0  0  0  0  0  0  0  0
   -7.7291    4.7736  -14.2534 C   0  0  0  0  0  0  0  0  0  0  0  0
   -7.8525    5.0498  -15.7789 C   0  0  2  0  0  0  0  0  0  0  0  0
   -8.9895    4.2166  -16.3704 C   0  0  0  0  0  0  0  0  0  0  0  0
   -9.1781    4.3939  -17.8613 C   0  0  0  0  0  0  0  0  0  0  0  0
   -7.8821    4.4043  -18.6237 C   0  0  0  0  0  0  0  0  0  0  0  0
   -7.7717    3.8334  -19.6997 O   0  0  0  0  0  0  0  0  0  0  0  0
   -6.8441    5.1354  -18.0525 N   0  0  0  0  0  0  0  0  0  0  0  0
   -5.7106    5.3261  -18.9542 C   0  0  0  0  0  0  0  0  0  0  0  0
   -6.6040    4.8070  -16.6389 C   0  0  1  0  0  0  0  0  0  0  0  0
   -5.3729    5.4868  -16.1642 C   0  0  0  0  0  0  0  0  0  0  0  0
   -4.0770    4.9231  -16.2151 C   0  0  0  0  0  0  0  0  0  0  0  0
   -3.1470    5.7297  -15.7103 N   0  0  0  0  0  0  0  0  0  0  0  0
   -3.8462    6.8085  -15.3225 N   0  0  0  0  0  0  0  0  0  0  0  0
   -3.1574    7.9058  -14.6880 C   0  0  0  0  0  0  0  0  0  0  0  0
   -5.1790    6.7276  -15.5939 C   0  0  0  0  0  0  0  0  0  0  0  0
   -2.9905    3.6775  -11.8327 C   0  0  0  0  0  0  0  0  0  0  0  0
   -2.4791    2.9811  -10.5530 C   0  0  0  0  0  0  0  0  0  0  0  0
  1  2  1  0
  2  3  1  0
  3  4  1  0
  4  5  1  0
  5  6  1  0
  6  7  1  0
  7  8  1  0
  8  9  2  0
  8 10  1  0
 10 11  1  0
 12 11  1  1
 12 13  1  0
 13 14  1  0
 14 15  1  0
 15 16  2  0
 15 17  1  0
 17 18  1  0
 17 19  1  0
 19 20  1  1
 20 21  1  0
 21 22  2  0
 22 23  1  0
 23 24  1  0
 23 25  1  0
  6 26  1  0
 26 27  1  0
 27  3  1  0
 19 12  1  0
 25 20  2  0
M  END
>  <energy_score>  (1113) 
-36.227391

>  <alias>  (1113) 
None

>  <HIPPO Pose ID>  (1113) 
70705

>  <smiles>  (1113) 
CCN1CCN(CC(=O)NC[C@@H]2CCC(=O)N(C)[C@H]2c2cnn(C)c2)CC1

>  <inchikey>  (1113) 
WSVUSJVBFYTBNQ-HNAYVOBHSA-N

>  <distance_score>  (1113) 
1.37223

>  <ref_mols>  (1113) 
Z0701a,Z0719a

>  <ref_pdb>  (1113) 
Z0719a

>  <HIPPO Compound ID>  (1113) 
143146

>  <name>  (1113) 
P70705

>  <inspiration_score>  (1113) 
None

$$$$
P70708
     RDKit          3D

 27 29  0  0  0  0  0  0  0  0999 V2000
   -3.3069    2.9412  -12.9993 C   0  0  0  0  0  0  0  0  0  0  0  0
   -4.5538    2.3378  -12.3535 C   0  0  2  0  0  0  0  0  0  0  0  0
   -5.8833    2.5379  -13.1596 C   0  0  0  0  0  0  0  0  0  0  0  0
   -6.5659    1.6216  -13.4144 O   0  0  0  0  0  0  0  0  0  0  0  0
   -6.0696    4.0490  -13.4698 N   0  0  0  0  0  0  0  0  0  0  0  0
   -7.1745    4.7512  -14.0706 C   0  0  0  0  0  0  0  0  0  0  0  0
   -7.4818    4.3391  -15.5161 C   0  0  1  0  0  0  0  0  0  0  0  0
   -8.7981    4.9439  -15.9739 C   0  0  0  0  0  0  0  0  0  0  0  0
   -9.1733    4.4171  -17.3442 C   0  0  0  0  0  0  0  0  0  0  0  0
   -8.0361    4.4377  -18.3277 C   0  0  0  0  0  0  0  0  0  0  0  0
   -8.1712    3.9406  -19.4368 O   0  0  0  0  0  0  0  0  0  0  0  0
   -6.8483    5.0144  -17.9038 N   0  0  0  0  0  0  0  0  0  0  0  0
   -5.8470    5.1428  -18.9657 C   0  0  0  0  0  0  0  0  0  0  0  0
   -6.3840    4.5740  -16.5819 C   0  0  1  0  0  0  0  0  0  0  0  0
   -5.2295    5.4085  -16.1756 C   0  0  0  0  0  0  0  0  0  0  0  0
   -5.1594    6.8037  -16.0377 C   0  0  0  0  0  0  0  0  0  0  0  0
   -3.9370    7.2194  -15.7036 N   0  0  0  0  0  0  0  0  0  0  0  0
   -3.2174    6.0894  -15.6437 N   0  0  0  0  0  0  0  0  0  0  0  0
   -1.8152    6.1565  -15.3142 C   0  0  0  0  0  0  0  0  0  0  0  0
   -3.9373    4.9786  -15.9366 C   0  0  0  0  0  0  0  0  0  0  0  0
   -4.6869    2.6231  -10.9113 N   0  0  0  0  0  0  0  0  0  0  0  0
   -4.5871    4.0145  -10.4620 C   0  0  0  0  0  0  0  0  0  0  0  0
   -5.6443    4.4556   -9.4227 C   0  0  0  0  0  0  0  0  0  0  0  0
   -6.9861    4.1536   -9.9236 N   0  0  0  0  0  0  0  0  0  0  0  0
   -8.0275    4.6561   -9.0351 C   0  0  0  0  0  0  0  0  0  0  0  0
   -7.1429    2.6927  -10.1282 C   0  0  0  0  0  0  0  0  0  0  0  0
   -5.8170    1.9017  -10.2926 C   0  0  0  0  0  0  0  0  0  0  0  0
  2  1  1  6
  2  3  1  0
  3  4  2  0
  3  5  1  0
  5  6  1  0
  7  6  1  1
  7  8  1  0
  8  9  1  0
  9 10  1  0
 10 11  2  0
 10 12  1  0
 12 13  1  0
 12 14  1  0
 14 15  1  1
 15 16  1  0
 16 17  2  0
 17 18  1  0
 18 19  1  0
 18 20  1  0
  2 21  1  0
 21 22  1  0
 22 23  1  0
 23 24  1  0
 24 25  1  0
 24 26  1  0
 26 27  1  0
 14  7  1  0
 20 15  2  0
 27 21  1  0
M  END
>  <energy_score>  (1114) 
-45.599026

>  <alias>  (1114) 
None

>  <HIPPO Pose ID>  (1114) 
70708

>  <smiles>  (1114) 
C[C@H](C(=O)NC[C@H]1CCC(=O)N(C)[C@H]1c1cnn(C)c1)N1CCN(C)CC1

>  <inchikey>  (1114) 
FDOKXWROHFBMSX-IIDMSEBBSA-N

>  <distance_score>  (1114) 
1.520406

>  <ref_mols>  (1114) 
Z0701a,Z0719a

>  <ref_pdb>  (1114) 
Z0719a

>  <HIPPO Compound ID>  (1114) 
143153

>  <name>  (1114) 
P70708

>  <inspiration_score>  (1114) 
None

$$$$
P70712
     RDKit          3D

 27 29  0  0  0  0  0  0  0  0999 V2000
   -5.6147    3.1965  -10.8882 C   0  0  0  0  0  0  0  0  0  0  0  0
   -5.3348    2.5716  -12.2633 C   0  0  1  0  0  0  0  0  0  0  0  0
   -6.5018    2.8810  -13.2645 C   0  0  0  0  0  0  0  0  0  0  0  0
   -7.1444    2.0103  -13.7085 O   0  0  0  0  0  0  0  0  0  0  0  0
   -6.6526    4.4212  -13.4135 N   0  0  0  0  0  0  0  0  0  0  0  0
   -7.6771    5.2033  -14.0584 C   0  0  0  0  0  0  0  0  0  0  0  0
   -7.8880    5.2288  -15.5810 C   0  0  2  0  0  0  0  0  0  0  0  0
   -8.9104    4.1822  -16.0432 C   0  0  0  0  0  0  0  0  0  0  0  0
   -9.2223    4.2333  -17.5375 C   0  0  0  0  0  0  0  0  0  0  0  0
   -8.0170    4.5269  -18.3965 C   0  0  0  0  0  0  0  0  0  0  0  0
   -7.8106    3.9900  -19.4722 O   0  0  0  0  0  0  0  0  0  0  0  0
   -7.1807    5.4914  -17.8614 N   0  0  0  0  0  0  0  0  0  0  0  0
   -6.4234    6.3007  -18.8010 C   0  0  0  0  0  0  0  0  0  0  0  0
   -6.6936    5.1001  -16.5252 C   0  0  1  0  0  0  0  0  0  0  0  0
   -5.4468    5.8188  -16.1607 C   0  0  0  0  0  0  0  0  0  0  0  0
   -5.3018    6.7886  -15.2748 N   0  0  0  0  0  0  0  0  0  0  0  0
   -3.9683    7.0845  -15.2660 C   0  0  0  0  0  0  0  0  0  0  0  0
   -3.2865    6.3171  -16.1750 C   0  0  0  0  0  0  0  0  0  0  0  0
   -4.2351    5.5246  -16.7533 N   0  0  0  0  0  0  0  0  0  0  0  0
   -3.9611    4.6149  -17.8411 C   0  0  0  0  0  0  0  0  0  0  0  0
   -3.9712    2.7595  -12.8454 N   0  0  0  0  0  0  0  0  0  0  0  0
   -3.0075    1.9078  -12.0965 C   0  0  0  0  0  0  0  0  0  0  0  0
   -1.5504    2.0403  -12.5907 C   0  0  0  0  0  0  0  0  0  0  0  0
   -1.0872    3.4382  -12.5568 N   0  0  0  0  0  0  0  0  0  0  0  0
    0.2863    3.5623  -13.0249 C   0  0  0  0  0  0  0  0  0  0  0  0
   -2.0117    4.2664  -13.3481 C   0  0  0  0  0  0  0  0  0  0  0  0
   -3.4720    4.1451  -12.8461 C   0  0  0  0  0  0  0  0  0  0  0  0
  2  1  1  1
  2  3  1  0
  3  4  2  0
  3  5  1  0
  5  6  1  0
  7  6  1  1
  7  8  1  0
  8  9  1  0
  9 10  1  0
 10 11  2  0
 10 12  1  0
 12 13  1  0
 12 14  1  0
 14 15  1  1
 15 16  2  0
 16 17  1  0
 17 18  2  0
 18 19  1  0
 19 20  1  0
  2 21  1  0
 21 22  1  0
 22 23  1  0
 23 24  1  0
 24 25  1  0
 24 26  1  0
 26 27  1  0
 14  7  1  0
 19 15  1  0
 27 21  1  0
M  END
>  <energy_score>  (1115) 
-46.124151

>  <alias>  (1115) 
None

>  <HIPPO Pose ID>  (1115) 
70712

>  <smiles>  (1115) 
C[C@@H](C(=O)NC[C@@H]1CCC(=O)N(C)[C@H]1c1nccn1C)N1CCN(C)CC1

>  <inchikey>  (1115) 
BKHCKSLYGSLFNL-YQQAZPJKSA-N

>  <distance_score>  (1115) 
1.548827

>  <ref_mols>  (1115) 
Z0701a,Z0719a

>  <ref_pdb>  (1115) 
Z0719a

>  <HIPPO Compound ID>  (1115) 
143154

>  <name>  (1115) 
P70712

>  <inspiration_score>  (1115) 
None

$$$$
P70716
     RDKit          3D

 28 30  0  0  0  0  0  0  0  0999 V2000
   -6.0388    6.8111  -19.7493 C   0  0  0  0  0  0  0  0  0  0  0  0
   -6.0361    5.3522  -19.3081 C   0  0  0  0  0  0  0  0  0  0  0  0
   -6.5052    5.1420  -17.9263 N   0  0  0  0  0  0  0  0  0  0  0  0
   -7.7879    4.5783  -17.8028 C   0  0  0  0  0  0  0  0  0  0  0  0
   -8.3744    4.0219  -18.7274 O   0  0  0  0  0  0  0  0  0  0  0  0
   -8.4806    4.5665  -16.4637 C   0  0  0  0  0  0  0  0  0  0  0  0
   -7.8934    5.4496  -15.3905 C   0  0  0  0  0  0  0  0  0  0  0  0
   -6.3702    5.4877  -15.4332 C   0  0  1  0  0  0  0  0  0  0  0  0
   -5.7567    4.1445  -15.0450 C   0  0  0  0  0  0  0  0  0  0  0  0
   -5.7045    3.9055  -13.6312 N   0  0  0  0  0  0  0  0  0  0  0  0
   -6.1400    2.6618  -12.7988 C   0  0  0  0  0  0  0  0  0  0  0  0
   -6.6771    1.6780  -13.1319 O   0  0  0  0  0  0  0  0  0  0  0  0
   -5.6729    2.9838  -11.3376 C   0  0  1  0  0  0  0  0  0  0  0  0
   -6.1431    1.9044  -10.3740 C   0  0  0  0  0  0  0  0  0  0  0  0
   -4.2133    3.2782  -11.3818 N   0  0  0  0  0  0  0  0  0  0  0  0
   -3.3631    2.0863  -11.5750 C   0  0  0  0  0  0  0  0  0  0  0  0
   -2.8464    1.3884  -10.2910 C   0  0  0  0  0  0  0  0  0  0  0  0
   -2.2564    2.2940   -9.2825 N   0  0  0  0  0  0  0  0  0  0  0  0
   -0.9452    2.7802   -9.7043 C   0  0  0  0  0  0  0  0  0  0  0  0
   -3.1919    3.4035   -9.0275 C   0  0  0  0  0  0  0  0  0  0  0  0
   -3.7293    4.1250  -10.2833 C   0  0  0  0  0  0  0  0  0  0  0  0
   -5.9780    5.9713  -16.8400 C   0  0  1  0  0  0  0  0  0  0  0  0
   -4.5204    6.3925  -16.8834 C   0  0  0  0  0  0  0  0  0  0  0  0
   -4.1434    7.6200  -16.5524 N   0  0  0  0  0  0  0  0  0  0  0  0
   -2.7846    7.6691  -16.6736 C   0  0  0  0  0  0  0  0  0  0  0  0
   -2.3013    6.4515  -17.0699 C   0  0  0  0  0  0  0  0  0  0  0  0
   -3.4053    5.6470  -17.1872 N   0  0  0  0  0  0  0  0  0  0  0  0
   -3.3166    4.2571  -17.5339 C   0  0  0  0  0  0  0  0  0  0  0  0
  1  2  1  0
  2  3  1  0
  3  4  1  0
  4  5  2  0
  4  6  1  0
  6  7  1  0
  7  8  1  0
  8  9  1  6
  9 10  1  0
 10 11  1  0
 11 12  2  0
 11 13  1  0
 13 14  1  1
 13 15  1  0
 15 16  1  0
 16 17  1  0
 17 18  1  0
 18 19  1  0
 18 20  1  0
 20 21  1  0
  8 22  1  0
 22 23  1  1
 23 24  2  0
 24 25  1  0
 25 26  2  0
 26 27  1  0
 27 28  1  0
 22  3  1  0
 27 23  1  0
 21 15  1  0
M  END
>  <energy_score>  (1116) 
-50.370652

>  <alias>  (1116) 
None

>  <HIPPO Pose ID>  (1116) 
70716

>  <smiles>  (1116) 
CCN1C(=O)CC[C@@H](CNC(=O)[C@@H](C)N2CCN(C)CC2)[C@H]1c1nccn1C

>  <inchikey>  (1116) 
GRUJEUJSYDCVTK-RYRKJORJSA-N

>  <distance_score>  (1116) 
1.867603

>  <ref_mols>  (1116) 
Z0701a,Z0719a

>  <ref_pdb>  (1116) 
Z0719a

>  <HIPPO Compound ID>  (1116) 
143167

>  <name>  (1116) 
P70716

>  <inspiration_score>  (1116) 
None

$$$$
P70717
     RDKit          3D

 28 30  0  0  0  0  0  0  0  0999 V2000
   -1.7521    4.6363  -14.6033 C   0  0  0  0  0  0  0  0  0  0  0  0
   -3.0790    3.9013  -14.8362 C   0  0  1  0  0  0  0  0  0  0  0  0
   -3.7116    3.5141  -13.4500 C   0  0  0  0  0  0  0  0  0  0  0  0
   -3.0453    3.3206  -12.5087 O   0  0  0  0  0  0  0  0  0  0  0  0
   -5.2419    3.3598  -13.6463 N   0  0  0  0  0  0  0  0  0  0  0  0
   -6.2572    2.8439  -12.7523 C   0  0  0  0  0  0  0  0  0  0  0  0
   -6.7229    3.7933  -11.6134 C   0  0  1  0  0  0  0  0  0  0  0  0
   -7.3476    5.0653  -12.2119 C   0  0  0  0  0  0  0  0  0  0  0  0
   -7.7504    3.0349  -10.7522 C   0  0  0  0  0  0  0  0  0  0  0  0
   -8.2350    3.8469   -9.5631 C   0  0  0  0  0  0  0  0  0  0  0  0
   -7.1522    4.5750   -8.7906 C   0  0  0  0  0  0  0  0  0  0  0  0
   -7.3837    4.9808   -7.6484 O   0  0  0  0  0  0  0  0  0  0  0  0
   -5.9733    4.8716   -9.4659 N   0  0  0  0  0  0  0  0  0  0  0  0
   -4.9073    5.4990   -8.7071 C   0  0  0  0  0  0  0  0  0  0  0  0
   -5.5634    4.1548  -10.6747 C   0  0  0  0  0  0  0  0  0  0  0  0
   -4.0251    4.5669  -15.7603 N   0  0  0  0  0  0  0  0  0  0  0  0
   -4.3898    5.9360  -15.3556 C   0  0  0  0  0  0  0  0  0  0  0  0
   -5.1712    6.7291  -16.4306 C   0  0  0  0  0  0  0  0  0  0  0  0
   -5.6772    5.8998  -17.5304 N   0  0  0  0  0  0  0  0  0  0  0  0
   -6.9366    5.2944  -17.4274 C   0  0  0  0  0  0  0  0  0  0  0  0
   -7.5589    4.8575  -18.6038 C   0  0  0  0  0  0  0  0  0  0  0  0
   -8.8586    4.3518  -18.6114 C   0  0  0  0  0  0  0  0  0  0  0  0
   -9.5629    4.2258  -17.4267 C   0  0  0  0  0  0  0  0  0  0  0  0
   -8.9494    4.5806  -16.2337 C   0  0  0  0  0  0  0  0  0  0  0  0
   -7.6713    5.1332  -16.2455 C   0  0  0  0  0  0  0  0  0  0  0  0
   -7.1793    5.5432  -15.0706 F   0  0  0  0  0  0  0  0  0  0  0  0
   -4.6607    5.0458  -18.1734 C   0  0  0  0  0  0  0  0  0  0  0  0
   -3.5669    4.6115  -17.1695 C   0  0  0  0  0  0  0  0  0  0  0  0
  2  1  1  1
  2  3  1  0
  3  4  2  0
  3  5  1  0
  5  6  1  0
  7  6  1  0
  7  8  1  6
  7  9  1  0
  9 10  1  0
 10 11  1  0
 11 12  2  0
 11 13  1  0
 13 14  1  0
 13 15  1  0
  2 16  1  0
 16 17  1  0
 17 18  1  0
 18 19  1  0
 19 20  1  0
 20 21  2  0
 21 22  1  0
 22 23  2  0
 23 24  1  0
 24 25  2  0
 25 26  1  0
 19 27  1  0
 27 28  1  0
 15  7  1  0
 28 16  1  0
 25 20  1  0
M  END
>  <energy_score>  (1117) 
-41.531708

>  <alias>  (1117) 
None

>  <HIPPO Pose ID>  (1117) 
70717

>  <smiles>  (1117) 
C[C@@H](C(=O)NC[C@@]1(C)CCC(=O)N(C)C1)N1CCN(c2ccccc2F)CC1

>  <inchikey>  (1117) 
UOWKJTULNLVHJB-HRAATJIYSA-N

>  <distance_score>  (1117) 
1.994992

>  <ref_mols>  (1117) 
Z0701a,Z0719a

>  <ref_pdb>  (1117) 
Z0719a

>  <HIPPO Compound ID>  (1117) 
143169

>  <name>  (1117) 
P70717

>  <inspiration_score>  (1117) 
None

$$$$
P70718
     RDKit          3D

 28 31  0  0  0  0  0  0  0  0999 V2000
   -3.4598    1.9794  -14.2132 C   0  0  0  0  0  0  0  0  0  0  0  0
   -4.2623    3.2200  -14.6109 C   0  0  0  0  0  0  0  0  0  0  0  0
   -5.6256    3.2300  -14.0547 N   0  0  0  0  0  0  0  0  0  0  0  0
   -5.7095    2.8709  -12.7144 C   0  0  0  0  0  0  0  0  0  0  0  0
   -6.2031    1.8091  -12.3635 O   0  0  0  0  0  0  0  0  0  0  0  0
   -5.1617    3.9549  -11.7881 C   0  0  0  0  0  0  0  0  0  0  0  0
   -5.6342    5.3911  -12.1535 C   0  0  0  0  0  0  0  0  0  0  0  0
   -5.7302    5.6454  -13.6854 C   0  0  2  0  0  0  0  0  0  0  0  0
   -6.2758    7.0332  -14.0346 C   0  0  0  0  0  0  0  0  0  0  0  0
   -6.0071    7.3470  -15.4153 N   0  0  0  0  0  0  0  0  0  0  0  0
   -4.8562    8.1580  -16.0552 C   0  0  0  0  0  0  0  0  0  0  0  0
   -3.9902    8.7625  -15.5588 O   0  0  0  0  0  0  0  0  0  0  0  0
   -5.0498    8.0647  -17.5995 C   0  0  1  0  0  0  0  0  0  0  0  0
   -3.6814    8.2057  -18.3250 C   0  0  0  0  0  0  0  0  0  0  0  0
   -3.4695    7.1257  -19.3313 N   0  0  0  0  0  0  0  0  0  0  0  0
   -4.6601    7.1858  -20.2423 C   0  0  0  0  0  0  0  0  0  0  0  0
   -6.0080    6.9148  -19.5008 C   0  0  0  0  0  0  0  0  0  0  0  0
   -5.8108    6.8268  -18.0275 N   0  0  0  0  0  0  0  0  0  0  0  0
   -4.9024    5.6488  -17.8765 C   0  0  0  0  0  0  0  0  0  0  0  0
   -3.5622    5.8079  -18.6189 C   0  0  2  0  0  0  0  0  0  0  0  0
   -2.4273    5.5392  -17.6323 C   0  0  0  0  0  0  0  0  0  0  0  0
   -6.4690    4.4104  -14.2479 C   0  0  1  0  0  0  0  0  0  0  0  0
   -7.1971    4.4637  -15.5574 C   0  0  0  0  0  0  0  0  0  0  0  0
   -6.8018    4.0877  -16.7503 N   0  0  0  0  0  0  0  0  0  0  0  0
   -7.8745    4.2416  -17.6021 C   0  0  0  0  0  0  0  0  0  0  0  0
   -8.9633    4.6936  -16.9127 C   0  0  0  0  0  0  0  0  0  0  0  0
   -8.5063    4.8768  -15.6405 N   0  0  0  0  0  0  0  0  0  0  0  0
   -9.2861    5.3791  -14.5515 C   0  0  0  0  0  0  0  0  0  0  0  0
  1  2  1  0
  2  3  1  0
  3  4  1  0
  4  5  2  0
  4  6  1  0
  6  7  1  0
  7  8  1  0
  8  9  1  1
  9 10  1  0
 10 11  1  0
 11 12  2  0
 13 11  1  1
 13 14  1  0
 15 14  1  0
 15 16  1  0
 16 17  1  0
 18 17  1  0
 18 19  1  0
 19 20  1  0
 20 21  1  1
  8 22  1  0
 22 23  1  6
 23 24  2  0
 24 25  1  0
 25 26  2  0
 26 27  1  0
 27 28  1  0
 22  3  1  0
 27 23  1  0
 18 13  1  0
 20 15  1  0
M  END
>  <energy_score>  (1118) 
-0.159575

>  <alias>  (1118) 
None

>  <HIPPO Pose ID>  (1118) 
70718

>  <smiles>  (1118) 
CCN1C(=O)CC[C@H](CNC(=O)[C@H]2CN3CCN2C[C@@H]3C)[C@H]1c1nccn1C

>  <inchikey>  (1118) 
CPTZYKDFVIMZGQ-LHHMISFZSA-N

>  <distance_score>  (1118) 
1.882986

>  <ref_mols>  (1118) 
Z0701a,Z0719a

>  <ref_pdb>  (1118) 
Z0719a

>  <HIPPO Compound ID>  (1118) 
143179

>  <name>  (1118) 
P70718

>  <inspiration_score>  (1118) 
None

$$$$
P70720
     RDKit          3D

 28 30  0  0  0  0  0  0  0  0999 V2000
   -0.8532    4.0176   -8.7660 C   0  0  0  0  0  0  0  0  0  0  0  0
   -1.3697    2.6675   -8.2916 C   0  0  0  0  0  0  0  0  0  0  0  0
   -2.2702    1.9284   -9.1664 N   0  0  0  0  0  0  0  0  0  0  0  0
   -3.5889    2.5302   -9.3920 C   0  0  0  0  0  0  0  0  0  0  0  0
   -3.7239    3.4139  -10.6544 C   0  0  0  0  0  0  0  0  0  0  0  0
   -3.1694    2.8625  -11.9167 N   0  0  0  0  0  0  0  0  0  0  0  0
   -4.0453    1.7798  -12.4600 C   0  0  0  0  0  0  0  0  0  0  0  0
   -5.3616    2.3324  -13.0671 C   0  0  0  0  0  0  0  0  0  0  0  0
   -6.3493    1.7093  -13.1253 O   0  0  0  0  0  0  0  0  0  0  0  0
   -5.0669    3.7956  -13.5022 N   0  0  0  0  0  0  0  0  0  0  0  0
   -5.9463    4.8139  -14.0063 C   0  0  0  0  0  0  0  0  0  0  0  0
   -6.6194    4.4762  -15.3413 C   0  0  1  0  0  0  0  0  0  0  0  0
   -7.9562    5.2019  -15.4673 C   0  0  0  0  0  0  0  0  0  0  0  0
   -8.7285    4.5690  -16.5930 C   0  0  0  0  0  0  0  0  0  0  0  0
   -7.9609    4.5703  -17.8761 C   0  0  0  0  0  0  0  0  0  0  0  0
   -8.5674    4.2395  -18.8875 O   0  0  0  0  0  0  0  0  0  0  0  0
   -6.6155    4.9676  -17.8409 N   0  0  0  0  0  0  0  0  0  0  0  0
   -5.9430    5.0285  -19.1489 C   0  0  0  0  0  0  0  0  0  0  0  0
   -5.7390    6.4702  -19.5957 C   0  0  0  0  0  0  0  0  0  0  0  0
   -5.7994    4.6437  -16.6441 C   0  0  1  0  0  0  0  0  0  0  0  0
   -4.5277    5.4542  -16.5215 C   0  0  0  0  0  0  0  0  0  0  0  0
   -3.3101    4.9322  -16.5845 N   0  0  0  0  0  0  0  0  0  0  0  0
   -2.4333    5.9571  -16.3715 C   0  0  0  0  0  0  0  0  0  0  0  0
   -3.1104    7.1330  -16.1797 C   0  0  0  0  0  0  0  0  0  0  0  0
   -4.4357    6.8050  -16.2861 N   0  0  0  0  0  0  0  0  0  0  0  0
   -5.5092    7.7584  -16.2043 C   0  0  0  0  0  0  0  0  0  0  0  0
   -1.8180    2.3285  -11.6449 C   0  0  0  0  0  0  0  0  0  0  0  0
   -1.6890    1.4078  -10.4072 C   0  0  0  0  0  0  0  0  0  0  0  0
  1  2  1  0
  2  3  1  0
  3  4  1  0
  4  5  1  0
  5  6  1  0
  6  7  1  0
  7  8  1  0
  8  9  2  0
  8 10  1  0
 10 11  1  0
 12 11  1  1
 12 13  1  0
 13 14  1  0
 14 15  1  0
 15 16  2  0
 15 17  1  0
 17 18  1  0
 18 19  1  0
 17 20  1  0
 20 21  1  1
 21 22  2  0
 22 23  1  0
 23 24  2  0
 24 25  1  0
 25 26  1  0
  6 27  1  0
 27 28  1  0
 28  3  1  0
 20 12  1  0
 25 21  1  0
M  END
>  <energy_score>  (1119) 
-46.159076

>  <alias>  (1119) 
None

>  <HIPPO Pose ID>  (1119) 
70720

>  <smiles>  (1119) 
CCN1CCN(CC(=O)NC[C@H]2CCC(=O)N(CC)[C@H]2c2nccn2C)CC1

>  <inchikey>  (1119) 
ZTMLRIKGCSNDBV-VQIMIIECSA-N

>  <distance_score>  (1119) 
1.849146

>  <ref_mols>  (1119) 
Z0701a,Z0719a

>  <ref_pdb>  (1119) 
Z0719a

>  <HIPPO Compound ID>  (1119) 
143181

>  <name>  (1119) 
P70720

>  <inspiration_score>  (1119) 
None

$$$$
P70721
     RDKit          3D

 28 29  0  0  0  0  0  0  0  0999 V2000
    0.2845    1.7434  -10.0599 C   0  0  0  0  0  0  0  0  0  0  0  0
   -0.5151    2.3037  -11.2428 C   0  0  0  0  0  0  0  0  0  0  0  0
    0.1301    3.6262  -11.6847 C   0  0  0  0  0  0  0  0  0  0  0  0
   -0.5109    1.3349  -12.4321 C   0  0  0  0  0  0  0  0  0  0  0  0
   -1.8594    2.6644  -10.8252 O   0  0  0  0  0  0  0  0  0  0  0  0
   -2.7214    1.7124  -10.3721 C   0  0  0  0  0  0  0  0  0  0  0  0
   -2.5044    0.5050  -10.3953 O   0  0  0  0  0  0  0  0  0  0  0  0
   -3.9635    2.3407   -9.7491 C   0  0  0  0  0  0  0  0  0  0  0  0
   -4.9877    2.8346  -10.6739 N   0  0  0  0  0  0  0  0  0  0  0  0
   -4.7753    4.1575  -11.2550 C   0  0  0  0  0  0  0  0  0  0  0  0
   -5.3134    4.2891  -12.7075 C   0  0  0  0  0  0  0  0  0  0  0  0
   -4.7685    3.2610  -13.6251 N   0  0  0  0  0  0  0  0  0  0  0  0
   -3.3412    3.5397  -13.9562 C   0  0  0  0  0  0  0  0  0  0  0  0
   -3.2115    4.6771  -14.9874 C   0  0  0  0  0  0  0  0  0  0  0  0
   -2.2621    5.3356  -15.1359 O   0  0  0  0  0  0  0  0  0  0  0  0
   -4.5327    4.6374  -15.7783 N   0  0  0  0  0  0  0  0  0  0  0  0
   -5.0052    5.4724  -16.8691 C   0  0  1  0  0  0  0  0  0  0  0  0
   -3.9717    5.4677  -18.0038 C   0  0  0  0  0  0  0  0  0  0  0  0
   -2.8420    6.2871  -17.6964 O   0  0  0  0  0  0  0  0  0  0  0  0
   -6.3856    4.9142  -17.2614 C   0  0  1  0  0  0  0  0  0  0  0  0
   -7.4317    5.2040  -16.1724 C   0  0  0  0  0  0  0  0  0  0  0  0
   -8.7381    4.4857  -16.4619 C   0  0  0  0  0  0  0  0  0  0  0  0
   -9.1589    4.4954  -17.9118 C   0  0  0  0  0  0  0  0  0  0  0  0
  -10.2847    4.1529  -18.2554 O   0  0  0  0  0  0  0  0  0  0  0  0
   -8.2206    4.8133  -18.8460 N   0  0  0  0  0  0  0  0  0  0  0  0
   -6.9435    5.4161  -18.5774 C   0  0  0  0  0  0  0  0  0  0  0  0
   -4.8971    1.9152  -13.0212 C   0  0  0  0  0  0  0  0  0  0  0  0
   -5.5109    1.8427  -11.6115 C   0  0  0  0  0  0  0  0  0  0  0  0
  1  2  1  0
  2  3  1  0
  2  4  1  0
  2  5  1  0
  5  6  1  0
  6  7  2  0
  6  8  1  0
  8  9  1  0
  9 10  1  0
 10 11  1  0
 11 12  1  0
 12 13  1  0
 13 14  1  0
 14 15  2  0
 14 16  1  0
 16 17  1  0
 17 18  1  6
 18 19  1  0
 17 20  1  0
 20 21  1  1
 21 22  1  0
 22 23  1  0
 23 24  2  0
 23 25  1  0
 25 26  1  0
 12 27  1  0
 27 28  1  0
 28  9  1  0
 26 20  1  0
M  END
>  <energy_score>  (1120) 
-59.085236

>  <alias>  (1120) 
None

>  <HIPPO Pose ID>  (1120) 
70721

>  <smiles>  (1120) 
CC(C)(C)OC(=O)CN1CCN(CC(=O)N[C@@H](CO)[C@H]2CCC(=O)NC2)CC1

>  <inchikey>  (1120) 
WEUFECTUKGAWFD-GJZGRUSLSA-N

>  <distance_score>  (1120) 
1.83882

>  <ref_mols>  (1120) 
Z0701a,Z0719a

>  <ref_pdb>  (1120) 
Z0719a

>  <HIPPO Compound ID>  (1120) 
143198

>  <name>  (1120) 
P70721

>  <inspiration_score>  (1120) 
None

$$$$
P70722
     RDKit          3D

 28 30  0  0  0  0  0  0  0  0999 V2000
   -4.5087    6.8158   -8.4952 C   0  0  0  0  0  0  0  0  0  0  0  0
   -3.8995    5.5580   -8.9166 N   0  0  0  0  0  0  0  0  0  0  0  0
   -3.1249    5.7446  -10.1585 C   0  0  0  0  0  0  0  0  0  0  0  0
   -2.9823    4.4419  -10.9779 C   0  0  0  0  0  0  0  0  0  0  0  0
   -4.2814    3.9596  -11.4936 N   0  0  0  0  0  0  0  0  0  0  0  0
   -4.2705    2.5266  -11.9612 C   0  0  0  0  0  0  0  0  0  0  0  0
   -3.0866    2.2718  -12.9214 C   0  0  0  0  0  0  0  0  0  0  0  0
   -4.2059    1.5010  -10.8113 C   0  0  0  0  0  0  0  0  0  0  0  0
   -5.5697    2.2706  -12.8351 C   0  0  0  0  0  0  0  0  0  0  0  0
   -6.1486    1.2576  -12.8502 O   0  0  0  0  0  0  0  0  0  0  0  0
   -5.8120    3.5780  -13.6339 N   0  0  0  0  0  0  0  0  0  0  0  0
   -6.8641    3.9336  -14.5354 C   0  0  0  0  0  0  0  0  0  0  0  0
   -6.6475    5.1800  -15.3954 C   0  0  2  0  0  0  0  0  0  0  0  0
   -8.0106    5.7711  -15.7259 C   0  0  0  0  0  0  0  0  0  0  0  0
   -8.8214    4.7897  -16.5452 C   0  0  0  0  0  0  0  0  0  0  0  0
   -8.1151    4.4258  -17.8102 C   0  0  0  0  0  0  0  0  0  0  0  0
   -8.7569    3.8578  -18.6858 O   0  0  0  0  0  0  0  0  0  0  0  0
   -6.7715    4.7574  -17.9100 N   0  0  0  0  0  0  0  0  0  0  0  0
   -6.1717    4.7139  -19.2358 C   0  0  0  0  0  0  0  0  0  0  0  0
   -5.8968    4.9125  -16.7251 C   0  0  1  0  0  0  0  0  0  0  0  0
   -4.8985    6.0314  -16.9580 C   0  0  0  0  0  0  0  0  0  0  0  0
   -5.1915    7.3124  -17.1259 N   0  0  0  0  0  0  0  0  0  0  0  0
   -3.9968    7.9586  -17.2849 C   0  0  0  0  0  0  0  0  0  0  0  0
   -2.9518    7.0731  -17.2014 C   0  0  0  0  0  0  0  0  0  0  0  0
   -3.5327    5.8538  -16.9877 N   0  0  0  0  0  0  0  0  0  0  0  0
   -2.8171    4.6157  -16.8170 C   0  0  0  0  0  0  0  0  0  0  0  0
   -5.3732    4.2483  -10.5235 C   0  0  0  0  0  0  0  0  0  0  0  0
   -4.9066    4.4853   -9.0677 C   0  0  0  0  0  0  0  0  0  0  0  0
  1  2  1  0
  2  3  1  0
  3  4  1  0
  4  5  1  0
  5  6  1  0
  6  7  1  0
  6  8  1  0
  6  9  1  0
  9 10  2  0
  9 11  1  0
 11 12  1  0
 13 12  1  6
 13 14  1  0
 14 15  1  0
 15 16  1  0
 16 17  2  0
 16 18  1  0
 18 19  1  0
 18 20  1  0
 20 21  1  6
 21 22  2  0
 22 23  1  0
 23 24  2  0
 24 25  1  0
 25 26  1  0
  5 27  1  0
 27 28  1  0
 28  2  1  0
 20 13  1  0
 25 21  1  0
M  END
>  <energy_score>  (1121) 
-55.751719

>  <alias>  (1121) 
None

>  <HIPPO Pose ID>  (1121) 
70722

>  <smiles>  (1121) 
CN1CCN(C(C)(C)C(=O)NC[C@@H]2CCC(=O)N(C)[C@H]2c2nccn2C)CC1

>  <inchikey>  (1121) 
JINATDPTKNPYME-DOTOQJQBSA-N

>  <distance_score>  (1121) 
1.615703

>  <ref_mols>  (1121) 
Z0701a,Z0719a

>  <ref_pdb>  (1121) 
Z0719a

>  <HIPPO Compound ID>  (1121) 
143238

>  <name>  (1121) 
P70722

>  <inspiration_score>  (1121) 
None

$$$$
P70723
     RDKit          3D

 29 31  0  0  0  0  0  0  0  0999 V2000
   -5.4563    4.4064  -18.4662 C   0  0  0  0  0  0  0  0  0  0  0  0
   -6.1588    5.3408  -17.4924 C   0  0  2  0  0  0  0  0  0  0  0  0
   -5.1580    6.1944  -16.7169 C   0  0  0  0  0  0  0  0  0  0  0  0
   -4.1246    6.9653  -17.3359 N   0  0  0  0  0  0  0  0  0  0  0  0
   -3.0092    6.5420  -18.3387 C   0  0  0  0  0  0  0  0  0  0  0  0
   -2.8158    5.5171  -18.8691 O   0  0  0  0  0  0  0  0  0  0  0  0
   -2.0615    7.7411  -18.4593 C   0  0  0  0  0  0  0  0  0  0  0  0
   -1.3831    7.7805  -17.1437 N   0  0  0  0  0  0  0  0  0  0  0  0
   -0.6618    6.5808  -16.7029 C   0  0  0  0  0  0  0  0  0  0  0  0
   -1.4620    5.7293  -15.6740 C   0  0  0  0  0  0  0  0  0  0  0  0
   -2.2579    6.5312  -14.7130 N   0  0  0  0  0  0  0  0  0  0  0  0
   -2.2323    5.9783  -13.3466 C   0  0  0  0  0  0  0  0  0  0  0  0
   -2.8350    4.5557  -13.1501 C   0  0  0  0  0  0  0  0  0  0  0  0
   -4.2865    4.3859  -13.3820 N   0  0  0  0  0  0  0  0  0  0  0  0
   -5.1058    5.1437  -12.4207 C   0  0  0  0  0  0  0  0  0  0  0  0
   -6.6100    4.9841  -12.7099 C   0  0  0  0  0  0  0  0  0  0  0  0
   -7.0021    3.6411  -13.0549 N   0  0  0  0  0  0  0  0  0  0  0  0
   -6.1218    2.6318  -13.3081 C   0  0  0  0  0  0  0  0  0  0  0  0
   -6.5499    1.4945  -13.4989 O   0  0  0  0  0  0  0  0  0  0  0  0
   -4.6217    2.9356  -13.2464 C   0  0  0  0  0  0  0  0  0  0  0  0
   -1.8158    7.9505  -14.7133 C   0  0  0  0  0  0  0  0  0  0  0  0
   -1.9948    8.5289  -16.1291 C   0  0  0  0  0  0  0  0  0  0  0  0
   -2.7177    9.4975  -16.3619 O   0  0  0  0  0  0  0  0  0  0  0  0
   -6.9405    4.5464  -16.4016 C   0  0  0  0  0  0  0  0  0  0  0  0
   -8.4589    4.5255  -16.4978 C   0  0  0  0  0  0  0  0  0  0  0  0
   -8.9257    4.5185  -17.9189 C   0  0  0  0  0  0  0  0  0  0  0  0
   -9.8747    3.8504  -18.3038 O   0  0  0  0  0  0  0  0  0  0  0  0
   -8.2376    5.3728  -18.7300 N   0  0  0  0  0  0  0  0  0  0  0  0
   -7.1199    6.1743  -18.3034 C   0  0  0  0  0  0  0  0  0  0  0  0
  2  1  1  6
  2  3  1  0
  3  4  1  0
  4  5  1  0
  5  6  2  0
  5  7  1  0
  7  8  1  0
  8  9  1  0
  9 10  1  0
 10 11  1  0
 11 12  1  0
 12 13  1  0
 13 14  1  0
 14 15  1  0
 15 16  1  0
 16 17  1  0
 17 18  1  0
 18 19  2  0
 18 20  1  0
 11 21  1  0
 21 22  1  0
 22 23  2  0
  2 24  1  0
 24 25  1  0
 25 26  1  0
 26 27  2  0
 26 28  1  0
 28 29  1  0
 29  2  1  0
 22  8  1  0
 20 14  1  0
M  END
>  <energy_score>  (1122) 
-59.219874

>  <alias>  (1122) 
None

>  <HIPPO Pose ID>  (1122) 
70723

>  <smiles>  (1122) 
C[C@]1(CNC(=O)CN2CCN(CCN3CCNC(=O)C3)CC2=O)CCC(=O)NC1

>  <inchikey>  (1122) 
YWLLPIIUOLDMMS-IBGZPJMESA-N

>  <distance_score>  (1122) 
1.664002

>  <ref_mols>  (1122) 
Z0701a,Z0719a

>  <ref_pdb>  (1122) 
Z0719a

>  <HIPPO Compound ID>  (1122) 
143269

>  <name>  (1122) 
P70723

>  <inspiration_score>  (1122) 
None

$$$$
P70724
     RDKit          3D

 29 31  0  0  0  0  0  0  0  0999 V2000
   -4.6130    5.6737  -17.1635 C   0  0  0  0  0  0  0  0  0  0  0  0
   -5.7286    4.7042  -16.7779 C   0  0  2  0  0  0  0  0  0  0  0  0
   -6.5882    4.4760  -17.9372 N   0  0  0  0  0  0  0  0  0  0  0  0
   -7.9483    4.3171  -17.8944 C   0  0  0  0  0  0  0  0  0  0  0  0
   -8.5600    3.7529  -18.7892 O   0  0  0  0  0  0  0  0  0  0  0  0
   -8.6745    4.8334  -16.6999 C   0  0  0  0  0  0  0  0  0  0  0  0
   -7.8056    5.8348  -15.9603 C   0  0  0  0  0  0  0  0  0  0  0  0
   -6.4882    5.1932  -15.5279 C   0  0  1  0  0  0  0  0  0  0  0  0
   -6.7893    4.0766  -14.5192 C   0  0  0  0  0  0  0  0  0  0  0  0
   -5.6521    3.5356  -13.8389 N   0  0  0  0  0  0  0  0  0  0  0  0
   -5.4763    2.1940  -13.0832 C   0  0  0  0  0  0  0  0  0  0  0  0
   -6.2065    1.2914  -12.9654 O   0  0  0  0  0  0  0  0  0  0  0  0
   -4.0683    2.2094  -12.4577 C   0  0  0  0  0  0  0  0  0  0  0  0
   -3.9574    3.1662  -11.3605 N   0  0  0  0  0  0  0  0  0  0  0  0
   -4.6783    2.8759  -10.1263 C   0  0  0  0  0  0  0  0  0  0  0  0
   -4.0606    3.5674   -8.8928 C   0  0  0  0  0  0  0  0  0  0  0  0
   -3.1712    4.7096   -9.1861 N   0  0  0  0  0  0  0  0  0  0  0  0
   -3.0496    5.6297   -8.0401 C   0  0  0  0  0  0  0  0  0  0  0  0
   -2.3700    4.9798   -6.8059 C   0  0  0  0  0  0  0  0  0  0  0  0
   -2.2808    5.8859   -5.6414 N   0  0  0  0  0  0  0  0  0  0  0  0
   -2.0227    5.1478   -4.3888 C   0  0  0  0  0  0  0  0  0  0  0  0
   -0.6429    4.4783   -4.3528 C   0  0  0  0  0  0  0  0  0  0  0  0
    0.4218    5.3633   -4.7732 N   0  0  0  0  0  0  0  0  0  0  0  0
    0.2099    6.3885   -5.6617 C   0  0  0  0  0  0  0  0  0  0  0  0
    1.1669    6.9049   -6.2359 O   0  0  0  0  0  0  0  0  0  0  0  0
   -1.2242    6.9182   -5.8079 C   0  0  0  0  0  0  0  0  0  0  0  0
   -3.6291    5.4224  -10.3942 C   0  0  0  0  0  0  0  0  0  0  0  0
   -3.6128    4.4872  -11.6137 C   0  0  0  0  0  0  0  0  0  0  0  0
   -3.3863    4.8997  -12.7535 O   0  0  0  0  0  0  0  0  0  0  0  0
  2  1  1  6
  2  3  1  0
  3  4  1  0
  4  5  2  0
  4  6  1  0
  6  7  1  0
  7  8  1  0
  8  9  1  1
  9 10  1  0
 10 11  1  0
 11 12  2  0
 11 13  1  0
 13 14  1  0
 14 15  1  0
 15 16  1  0
 16 17  1  0
 17 18  1  0
 18 19  1  0
 19 20  1  0
 20 21  1  0
 21 22  1  0
 22 23  1  0
 23 24  1  0
 24 25  2  0
 24 26  1  0
 17 27  1  0
 27 28  1  0
 28 29  2  0
  8  2  1  0
 28 14  1  0
 26 20  1  0
M  END
>  <energy_score>  (1123) 
-81.230164

>  <alias>  (1123) 
None

>  <HIPPO Pose ID>  (1123) 
70724

>  <smiles>  (1123) 
C[C@@H]1NC(=O)CC[C@H]1CNC(=O)CN1CCN(CCN2CCNC(=O)C2)CC1=O

>  <inchikey>  (1123) 
QIXZRXBDJSUABF-GJZGRUSLSA-N

>  <distance_score>  (1123) 
1.564197

>  <ref_mols>  (1123) 
Z0701a,Z0719a

>  <ref_pdb>  (1123) 
Z0719a

>  <HIPPO Compound ID>  (1123) 
143271

>  <name>  (1123) 
P70724

>  <inspiration_score>  (1123) 
None

$$$$
P70728
     RDKit          3D

 29 33  0  0  0  0  0  0  0  0999 V2000
   -5.6641   10.3565  -18.9045 C   0  0  0  0  0  0  0  0  0  0  0  0
   -4.6172    9.2823  -18.6040 C   0  0  2  0  0  0  0  0  0  0  0  0
   -3.4135    9.3679  -19.5977 C   0  0  0  0  0  0  0  0  0  0  0  0
   -2.9377    8.0163  -20.0088 N   0  0  0  0  0  0  0  0  0  0  0  0
   -4.0660    7.3868  -20.7540 C   0  0  0  0  0  0  0  0  0  0  0  0
   -5.4046    7.4410  -19.9675 C   0  0  0  0  0  0  0  0  0  0  0  0
   -5.2131    7.9014  -18.5568 N   0  0  0  0  0  0  0  0  0  0  0  0
   -4.1179    6.9990  -18.0048 C   0  0  2  0  0  0  0  0  0  0  0  0
   -4.0042    7.1386  -16.4598 C   0  0  0  0  0  0  0  0  0  0  0  0
   -2.9988    7.3509  -15.9029 O   0  0  0  0  0  0  0  0  0  0  0  0
   -5.4328    6.8917  -15.8995 N   0  0  0  0  0  0  0  0  0  0  0  0
   -5.8936    6.7623  -14.5451 C   0  0  0  0  0  0  0  0  0  0  0  0
   -7.0330    5.7547  -14.2725 C   0  0  2  0  0  0  0  0  0  0  0  0
   -7.0305    5.3612  -12.7554 C   0  0  0  0  0  0  0  0  0  0  0  0
   -7.2721    3.8585  -12.4676 C   0  0  0  0  0  0  0  0  0  0  0  0
   -6.4580    2.9245  -13.3514 C   0  0  0  0  0  0  0  0  0  0  0  0
   -6.2392    1.7567  -13.0480 O   0  0  0  0  0  0  0  0  0  0  0  0
   -6.0690    3.5129  -14.5521 N   0  0  0  0  0  0  0  0  0  0  0  0
   -4.6660    3.6309  -14.8966 C   0  0  0  0  0  0  0  0  0  0  0  0
   -3.6389    4.1740  -13.9339 C   0  0  0  0  0  0  0  0  0  0  0  0
   -3.5994    2.7299  -14.3215 C   0  0  0  0  0  0  0  0  0  0  0  0
   -7.0481    4.4540  -15.0763 C   0  0  2  0  0  0  0  0  0  0  0  0
   -7.1756    4.5273  -16.5747 C   0  0  0  0  0  0  0  0  0  0  0  0
   -6.2112    4.5549  -17.4744 N   0  0  0  0  0  0  0  0  0  0  0  0
   -6.8206    4.4240  -18.6944 C   0  0  0  0  0  0  0  0  0  0  0  0
   -8.1801    4.4244  -18.5631 C   0  0  0  0  0  0  0  0  0  0  0  0
   -8.3911    4.5238  -17.2269 N   0  0  0  0  0  0  0  0  0  0  0  0
   -9.6900    4.6270  -16.6380 C   0  0  0  0  0  0  0  0  0  0  0  0
   -2.7629    7.2367  -18.7385 C   0  0  0  0  0  0  0  0  0  0  0  0
  2  1  1  6
  2  3  1  0
  4  3  1  0
  4  5  1  0
  5  6  1  0
  7  6  1  0
  7  8  1  0
  8  9  1  1
  9 10  2  0
  9 11  1  0
 11 12  1  0
 13 12  1  6
 13 14  1  0
 14 15  1  0
 15 16  1  0
 16 17  2  0
 16 18  1  0
 18 19  1  0
 19 20  1  0
 20 21  1  0
 18 22  1  0
 22 23  1  6
 23 24  2  0
 24 25  1  0
 25 26  2  0
 26 27  1  0
 27 28  1  0
  8 29  1  0
  7  2  1  0
 22 13  1  0
 27 23  1  0
 29  4  1  0
 21 19  1  0
M  END
>  <energy_score>  (1124) 
-46.925491

>  <alias>  (1124) 
None

>  <HIPPO Pose ID>  (1124) 
70728

>  <smiles>  (1124) 
C[C@@H]1CN2CCN1[C@H](C(=O)NC[C@@H]1CCC(=O)N(C3CC3)[C@@H]1c1nccn1C)C2

>  <inchikey>  (1124) 
VANZPCJHAZVUMR-YEWFCNIMSA-N

>  <distance_score>  (1124) 
1.738327

>  <ref_mols>  (1124) 
Z0701a,Z0719a

>  <ref_pdb>  (1124) 
Z0719a

>  <HIPPO Compound ID>  (1124) 
143325

>  <name>  (1124) 
P70728

>  <inspiration_score>  (1124) 
None

$$$$
P70733
     RDKit          3D

 29 32  0  0  0  0  0  0  0  0999 V2000
   -0.2970    1.3631   -8.5028 C   0  0  0  0  0  0  0  0  0  0  0  0
   -1.2266    0.7312   -9.5327 C   0  0  0  0  0  0  0  0  0  0  0  0
   -1.6798    1.6747  -10.5651 N   0  0  0  0  0  0  0  0  0  0  0  0
   -2.5445    2.7392  -10.0191 C   0  0  0  0  0  0  0  0  0  0  0  0
   -3.0273    3.6963  -11.1334 C   0  0  0  0  0  0  0  0  0  0  0  0
   -3.7340    3.0590  -12.2625 N   0  0  0  0  0  0  0  0  0  0  0  0
   -5.1040    2.6478  -11.8716 C   0  0  0  0  0  0  0  0  0  0  0  0
   -6.0126    2.5841  -13.1200 C   0  0  0  0  0  0  0  0  0  0  0  0
   -6.6228    1.6328  -13.4235 O   0  0  0  0  0  0  0  0  0  0  0  0
   -5.9930    4.0134  -13.7442 N   0  0  0  0  0  0  0  0  0  0  0  0
   -6.7934    4.5864  -14.8101 C   0  0  0  0  0  0  0  0  0  0  0  0
   -6.2525    4.2849  -16.2291 C   0  0  1  0  0  0  0  0  0  0  0  0
   -7.4054    3.9670  -17.2497 C   0  0  0  0  0  0  0  0  0  0  0  0
   -8.1339    5.1429  -17.8575 C   0  0  0  0  0  0  0  0  0  0  0  0
   -7.3221    6.2714  -17.3477 C   0  0  0  0  0  0  0  0  0  0  0  0
   -7.6706    6.8198  -16.3048 O   0  0  0  0  0  0  0  0  0  0  0  0
   -5.9948    6.2361  -17.7676 N   0  0  0  0  0  0  0  0  0  0  0  0
   -5.6684    6.1602  -19.1744 C   0  0  0  0  0  0  0  0  0  0  0  0
   -5.6757    7.4082  -20.0168 C   0  0  0  0  0  0  0  0  0  0  0  0
   -4.3729    6.7609  -19.6636 C   0  0  0  0  0  0  0  0  0  0  0  0
   -5.2758    5.3116  -16.8874 C   0  0  1  0  0  0  0  0  0  0  0  0
   -4.4188    6.0700  -15.9114 C   0  0  0  0  0  0  0  0  0  0  0  0
   -4.5627    7.3299  -15.5320 N   0  0  0  0  0  0  0  0  0  0  0  0
   -3.5918    7.5687  -14.6007 C   0  0  0  0  0  0  0  0  0  0  0  0
   -2.8171    6.4524  -14.4175 C   0  0  0  0  0  0  0  0  0  0  0  0
   -3.3380    5.5148  -15.2661 N   0  0  0  0  0  0  0  0  0  0  0  0
   -2.8041    4.1951  -15.4591 C   0  0  0  0  0  0  0  0  0  0  0  0
   -2.9545    1.8827  -12.7162 C   0  0  0  0  0  0  0  0  0  0  0  0
   -2.4427    0.9394  -11.6001 C   0  0  0  0  0  0  0  0  0  0  0  0
  1  2  1  0
  2  3  1  0
  3  4  1  0
  4  5  1  0
  5  6  1  0
  6  7  1  0
  7  8  1  0
  8  9  2  0
  8 10  1  0
 10 11  1  0
 12 11  1  1
 12 13  1  0
 13 14  1  0
 14 15  1  0
 15 16  2  0
 15 17  1  0
 17 18  1  0
 18 19  1  0
 19 20  1  0
 17 21  1  0
 21 22  1  1
 22 23  2  0
 23 24  1  0
 24 25  2  0
 25 26  1  0
 26 27  1  0
  6 28  1  0
 28 29  1  0
 29  3  1  0
 21 12  1  0
 26 22  1  0
 20 18  1  0
M  END
>  <energy_score>  (1125) 
-20.164948

>  <alias>  (1125) 
None

>  <HIPPO Pose ID>  (1125) 
70733

>  <smiles>  (1125) 
CCN1CCN(CC(=O)NC[C@H]2CCC(=O)N(C3CC3)[C@H]2c2nccn2C)CC1

>  <inchikey>  (1125) 
VYYSPQPPUQVWMT-OXQOHEQNSA-N

>  <distance_score>  (1125) 
1.590919

>  <ref_mols>  (1125) 
Z0701a,Z0719a

>  <ref_pdb>  (1125) 
Z0719a

>  <HIPPO Compound ID>  (1125) 
143329

>  <name>  (1125) 
P70733

>  <inspiration_score>  (1125) 
None

$$$$
P70735
     RDKit          3D

 29 33  0  0  0  0  0  0  0  0999 V2000
   -2.6722    6.0325  -19.2437 C   0  0  0  0  0  0  0  0  0  0  0  0
   -3.4278    6.7079  -18.1291 C   0  0  1  0  0  0  0  0  0  0  0  0
   -2.4775    7.2265  -16.9834 C   0  0  0  0  0  0  0  0  0  0  0  0
   -3.1799    8.2988  -16.1804 N   0  0  0  0  0  0  0  0  0  0  0  0
   -3.1652    9.4880  -17.0864 C   0  0  0  0  0  0  0  0  0  0  0  0
   -3.5752    9.1012  -18.5499 C   0  0  0  0  0  0  0  0  0  0  0  0
   -4.3495    7.8152  -18.5876 N   0  0  0  0  0  0  0  0  0  0  0  0
   -5.3392    7.9774  -17.4688 C   0  0  0  0  0  0  0  0  0  0  0  0
   -4.6103    7.7984  -16.1142 C   0  0  2  0  0  0  0  0  0  0  0  0
   -5.4721    8.1777  -14.9044 C   0  0  0  0  0  0  0  0  0  0  0  0
   -5.4015    9.1557  -14.2664 O   0  0  0  0  0  0  0  0  0  0  0  0
   -6.3591    6.8984  -14.7073 N   0  0  0  0  0  0  0  0  0  0  0  0
   -7.2489    6.5412  -13.6470 C   0  0  0  0  0  0  0  0  0  0  0  0
   -8.0119    5.2104  -13.8584 C   0  0  2  0  0  0  0  0  0  0  0  0
   -8.2345    4.5002  -12.4914 C   0  0  0  0  0  0  0  0  0  0  0  0
   -7.0775    3.5834  -12.0549 C   0  0  0  0  0  0  0  0  0  0  0  0
   -6.6330    2.6929  -13.1942 C   0  0  0  0  0  0  0  0  0  0  0  0
   -6.6083    1.4703  -13.1482 O   0  0  0  0  0  0  0  0  0  0  0  0
   -6.2786    3.4334  -14.3249 N   0  0  0  0  0  0  0  0  0  0  0  0
   -4.9885    4.0952  -14.2261 C   0  0  0  0  0  0  0  0  0  0  0  0
   -3.7595    3.2271  -14.0294 C   0  0  0  0  0  0  0  0  0  0  0  0
   -3.9250    4.0240  -15.2805 C   0  0  0  0  0  0  0  0  0  0  0  0
   -7.4574    4.1421  -14.8400 C   0  0  2  0  0  0  0  0  0  0  0  0
   -7.3807    4.5022  -16.3055 C   0  0  0  0  0  0  0  0  0  0  0  0
   -6.3008    4.9008  -16.9566 N   0  0  0  0  0  0  0  0  0  0  0  0
   -6.6189    4.8488  -18.2946 C   0  0  0  0  0  0  0  0  0  0  0  0
   -7.9419    4.5628  -18.4595 C   0  0  0  0  0  0  0  0  0  0  0  0
   -8.4290    4.4184  -17.1974 N   0  0  0  0  0  0  0  0  0  0  0  0
   -9.8308    4.2577  -16.9575 C   0  0  0  0  0  0  0  0  0  0  0  0
  2  1  1  6
  2  3  1  0
  4  3  1  0
  4  5  1  0
  5  6  1  0
  7  6  1  0
  7  8  1  0
  8  9  1  0
  9 10  1  1
 10 11  2  0
 10 12  1  0
 12 13  1  0
 14 13  1  1
 14 15  1  0
 15 16  1  0
 16 17  1  0
 17 18  2  0
 17 19  1  0
 19 20  1  0
 20 21  1  0
 21 22  1  0
 19 23  1  0
 23 24  1  6
 24 25  2  0
 25 26  1  0
 26 27  2  0
 27 28  1  0
 28 29  1  0
  7  2  1  0
 23 14  1  0
 28 24  1  0
  9  4  1  0
 22 20  1  0
M  END
>  <energy_score>  (1126) 
-22.637717

>  <alias>  (1126) 
None

>  <HIPPO Pose ID>  (1126) 
70735

>  <smiles>  (1126) 
C[C@H]1CN2CCN1C[C@@H]2C(=O)NC[C@@H]1CCC(=O)N(C2CC2)[C@@H]1c1nccn1C

>  <inchikey>  (1126) 
BGNBWXCVHADXIM-BVYOLEPJSA-N

>  <distance_score>  (1126) 
1.724774

>  <ref_mols>  (1126) 
Z0701a,Z0719a

>  <ref_pdb>  (1126) 
Z0719a

>  <HIPPO Compound ID>  (1126) 
143331

>  <name>  (1126) 
P70735

>  <inspiration_score>  (1126) 
None

$$$$
P70737
     RDKit          3D

 29 32  0  0  0  0  0  0  0  0999 V2000
   -4.9991    1.6128  -11.0631 C   0  0  0  0  0  0  0  0  0  0  0  0
   -4.9791    2.9192  -11.8577 C   0  0  2  0  0  0  0  0  0  0  0  0
   -5.9253    2.8721  -13.1072 C   0  0  0  0  0  0  0  0  0  0  0  0
   -6.6415    1.9834  -13.3664 O   0  0  0  0  0  0  0  0  0  0  0  0
   -5.7504    4.2625  -13.7940 N   0  0  0  0  0  0  0  0  0  0  0  0
   -6.4878    4.8735  -14.8773 C   0  0  0  0  0  0  0  0  0  0  0  0
   -6.1284    4.3135  -16.2702 C   0  0  1  0  0  0  0  0  0  0  0  0
   -7.3981    3.9874  -17.1250 C   0  0  0  0  0  0  0  0  0  0  0  0
   -8.0402    5.1356  -17.8660 C   0  0  0  0  0  0  0  0  0  0  0  0
   -7.2018    6.2811  -17.4401 C   0  0  0  0  0  0  0  0  0  0  0  0
   -7.5234    6.9136  -16.4400 O   0  0  0  0  0  0  0  0  0  0  0  0
   -5.8816    6.2265  -17.8838 N   0  0  0  0  0  0  0  0  0  0  0  0
   -5.6340    6.3347  -19.3064 C   0  0  0  0  0  0  0  0  0  0  0  0
   -4.4383    7.1092  -19.8067 C   0  0  0  0  0  0  0  0  0  0  0  0
   -5.8123    7.6576  -20.0056 C   0  0  0  0  0  0  0  0  0  0  0  0
   -5.1835    5.1362  -17.1901 C   0  0  1  0  0  0  0  0  0  0  0  0
   -3.9327    5.6317  -16.5196 C   0  0  0  0  0  0  0  0  0  0  0  0
   -3.8551    6.3391  -15.4049 N   0  0  0  0  0  0  0  0  0  0  0  0
   -2.5250    6.5198  -15.1494 C   0  0  0  0  0  0  0  0  0  0  0  0
   -1.7630    5.9334  -16.1273 C   0  0  0  0  0  0  0  0  0  0  0  0
   -2.6630    5.3847  -16.9989 N   0  0  0  0  0  0  0  0  0  0  0  0
   -2.3113    4.6919  -18.2121 C   0  0  0  0  0  0  0  0  0  0  0  0
   -3.6353    3.4120  -12.2635 N   0  0  0  0  0  0  0  0  0  0  0  0
   -2.9111    2.5010  -13.1714 C   0  0  0  0  0  0  0  0  0  0  0  0
   -1.5846    1.9406  -12.6069 C   0  0  0  0  0  0  0  0  0  0  0  0
   -0.6440    2.9571  -12.0940 N   0  0  0  0  0  0  0  0  0  0  0  0
    0.3241    3.3736  -13.1021 C   0  0  0  0  0  0  0  0  0  0  0  0
   -1.3643    4.1314  -11.5531 C   0  0  0  0  0  0  0  0  0  0  0  0
   -2.8112    3.8189  -11.1138 C   0  0  0  0  0  0  0  0  0  0  0  0
  2  1  1  6
  2  3  1  0
  3  4  2  0
  3  5  1  0
  5  6  1  0
  7  6  1  1
  7  8  1  0
  8  9  1  0
  9 10  1  0
 10 11  2  0
 10 12  1  0
 12 13  1  0
 13 14  1  0
 14 15  1  0
 12 16  1  0
 16 17  1  1
 17 18  2  0
 18 19  1  0
 19 20  2  0
 20 21  1  0
 21 22  1  0
  2 23  1  0
 23 24  1  0
 24 25  1  0
 25 26  1  0
 26 27  1  0
 26 28  1  0
 28 29  1  0
 16  7  1  0
 21 17  1  0
 29 23  1  0
 15 13  1  0
M  END
>  <energy_score>  (1127) 
-26.400673

>  <alias>  (1127) 
None

>  <HIPPO Pose ID>  (1127) 
70737

>  <smiles>  (1127) 
C[C@H](C(=O)NC[C@H]1CCC(=O)N(C2CC2)[C@H]1c1nccn1C)N1CCN(C)CC1

>  <inchikey>  (1127) 
LEWWEXKPUDLLPN-GPMSIDNRSA-N

>  <distance_score>  (1127) 
1.677294

>  <ref_mols>  (1127) 
Z0701a,Z0719a

>  <ref_pdb>  (1127) 
Z0719a

>  <HIPPO Compound ID>  (1127) 
143344

>  <name>  (1127) 
P70737

>  <inspiration_score>  (1127) 
None

$$$$
P70738
     RDKit          3D

 30 32  0  0  0  0  0  0  0  0999 V2000
  -10.3993    4.3471  -18.3601 O   0  0  0  0  0  0  0  0  0  0  0  0
   -9.2301    4.5060  -18.0276 C   0  0  0  0  0  0  0  0  0  0  0  0
   -8.8207    4.5549  -16.5766 C   0  0  0  0  0  0  0  0  0  0  0  0
   -7.4958    5.2610  -16.3383 C   0  0  0  0  0  0  0  0  0  0  0  0
   -6.4487    4.7449  -17.3326 C   0  0  2  0  0  0  0  0  0  0  0  0
   -4.9920    5.1568  -17.0759 C   0  0  1  0  0  0  0  0  0  0  0  0
   -4.6104    6.6067  -17.3458 C   0  0  0  0  0  0  0  0  0  0  0  0
   -5.3732    7.5193  -16.5564 O   0  0  0  0  0  0  0  0  0  0  0  0
   -4.6912    4.8238  -15.7110 N   0  0  0  0  0  0  0  0  0  0  0  0
   -3.7766    3.7365  -15.1275 C   0  0  0  0  0  0  0  0  0  0  0  0
   -3.0627    2.9886  -15.6575 O   0  0  0  0  0  0  0  0  0  0  0  0
   -4.0023    3.7900  -13.6246 C   0  0  0  0  0  0  0  0  0  0  0  0
   -5.4475    3.6522  -13.3403 N   0  0  0  0  0  0  0  0  0  0  0  0
   -6.0154    4.6774  -12.4676 C   0  0  0  0  0  0  0  0  0  0  0  0
   -5.5162    4.5432  -11.0023 C   0  0  0  0  0  0  0  0  0  0  0  0
   -4.6101    3.3915  -10.8702 N   0  0  0  0  0  0  0  0  0  0  0  0
   -4.0027    3.2718   -9.5495 C   0  0  0  0  0  0  0  0  0  0  0  0
   -2.7907    2.2975   -9.5605 C   0  0  0  0  0  0  0  0  0  0  0  0
   -1.5760    2.6799   -8.8166 N   0  0  0  0  0  0  0  0  0  0  0  0
   -1.8194    2.9991   -7.4077 C   0  0  0  0  0  0  0  0  0  0  0  0
   -0.4787    3.2073   -6.6928 C   0  0  0  0  0  0  0  0  0  0  0  0
    0.3609    4.1777   -7.3582 N   0  0  0  0  0  0  0  0  0  0  0  0
    0.3743    4.2795   -8.7277 C   0  0  0  0  0  0  0  0  0  0  0  0
    1.3162    4.8378   -9.2885 O   0  0  0  0  0  0  0  0  0  0  0  0
   -0.8684    3.7975   -9.4904 C   0  0  0  0  0  0  0  0  0  0  0  0
   -5.2938    2.1634  -11.3660 C   0  0  0  0  0  0  0  0  0  0  0  0
   -5.7679    2.3737  -12.8278 C   0  0  0  0  0  0  0  0  0  0  0  0
   -6.3895    1.5301  -13.4636 O   0  0  0  0  0  0  0  0  0  0  0  0
   -6.9207    5.0746  -18.7324 C   0  0  0  0  0  0  0  0  0  0  0  0
   -8.2435    4.5612  -18.9688 N   0  0  0  0  0  0  0  0  0  0  0  0
  1  2  2  0
  2  3  1  0
  3  4  1  0
  5  4  1  1
  5  6  1  0
  6  7  1  1
  7  8  1  0
  6  9  1  0
  9 10  1  0
 10 11  2  0
 10 12  1  0
 12 13  1  0
 13 14  1  0
 14 15  1  0
 15 16  1  0
 16 17  1  0
 17 18  1  0
 18 19  1  0
 19 20  1  0
 20 21  1  0
 21 22  1  0
 22 23  1  0
 23 24  2  0
 23 25  1  0
 16 26  1  0
 26 27  1  0
 27 28  2  0
  5 29  1  0
 29 30  1  0
 30  2  1  0
 27 13  1  0
 25 19  1  0
M  END
>  <energy_score>  (1128) 
-25.377537

>  <alias>  (1128) 
None

>  <HIPPO Pose ID>  (1128) 
70738

>  <smiles>  (1128) 
O=C1CC[C@H]([C@@H](CO)NC(=O)CN2CCN(CCN3CCNC(=O)C3)CC2=O)CN1

>  <inchikey>  (1128) 
AFOFOWKPGXHUCD-LSDHHAIUSA-N

>  <distance_score>  (1128) 
1.588982

>  <ref_mols>  (1128) 
Z0701a,Z0719a

>  <ref_pdb>  (1128) 
Z0719a

>  <HIPPO Compound ID>  (1128) 
143357

>  <name>  (1128) 
P70738

>  <inspiration_score>  (1128) 
None

$$$$
P70741
     RDKit          3D

 30 31  0  0  0  0  0  0  0  0999 V2000
    1.6353   -0.1129   -5.0127 C   0  0  0  0  0  0  0  0  0  0  0  0
    0.1411   -0.4489   -4.9597 C   0  0  0  0  0  0  0  0  0  0  0  0
   -0.1930   -1.7159   -5.7558 C   0  0  0  0  0  0  0  0  0  0  0  0
   -0.2613   -0.6720   -3.4938 C   0  0  0  0  0  0  0  0  0  0  0  0
   -0.6694    0.6750   -5.3942 O   0  0  0  0  0  0  0  0  0  0  0  0
   -0.5904    1.1530   -6.6634 C   0  0  0  0  0  0  0  0  0  0  0  0
    0.1393    0.7167   -7.4951 O   0  0  0  0  0  0  0  0  0  0  0  0
   -1.5405    2.1842   -6.7242 N   0  0  0  0  0  0  0  0  0  0  0  0
   -1.8719    3.1097   -7.7853 C   0  0  0  0  0  0  0  0  0  0  0  0
   -1.8425    2.4706   -9.1856 C   0  0  0  0  0  0  0  0  0  0  0  0
   -2.4025    3.3457  -10.2329 N   0  0  0  0  0  0  0  0  0  0  0  0
   -3.8832    3.3454  -10.1981 C   0  0  0  0  0  0  0  0  0  0  0  0
   -4.5126    4.1359  -11.3735 C   0  0  0  0  0  0  0  0  0  0  0  0
   -4.0387    3.7583  -12.7291 N   0  0  0  0  0  0  0  0  0  0  0  0
   -4.5661    2.4241  -13.1299 C   0  0  0  0  0  0  0  0  0  0  0  0
   -6.0698    2.4923  -13.4814 C   0  0  0  0  0  0  0  0  0  0  0  0
   -6.7763    1.5514  -13.2582 O   0  0  0  0  0  0  0  0  0  0  0  0
   -6.3602    3.7587  -14.0855 N   0  0  0  0  0  0  0  0  0  0  0  0
   -7.6065    4.3318  -14.5247 C   0  0  0  0  0  0  0  0  0  0  0  0
   -7.5378    5.3805  -15.6544 C   0  0  2  0  0  0  0  0  0  0  0  0
   -7.4668    4.7447  -17.0423 C   0  0  0  0  0  0  0  0  0  0  0  0
   -6.1189    4.4149  -17.4171 N   0  0  0  0  0  0  0  0  0  0  0  0
   -5.0238    5.1497  -17.0807 C   0  0  0  0  0  0  0  0  0  0  0  0
   -3.8894    4.7456  -17.3214 O   0  0  0  0  0  0  0  0  0  0  0  0
   -5.3237    6.5214  -16.4852 C   0  0  0  0  0  0  0  0  0  0  0  0
   -5.7092    7.4479  -17.6542 C   0  0  0  0  0  0  0  0  0  0  0  0
   -4.0496    7.0865  -15.8309 C   0  0  0  0  0  0  0  0  0  0  0  0
   -6.4477    6.4488  -15.4222 C   0  0  0  0  0  0  0  0  0  0  0  0
   -2.5608    3.7386  -12.7104 C   0  0  0  0  0  0  0  0  0  0  0  0
   -1.9373    2.9081  -11.5647 C   0  0  0  0  0  0  0  0  0  0  0  0
  1  2  1  0
  2  3  1  0
  2  4  1  0
  2  5  1  0
  5  6  1  0
  6  7  2  0
  6  8  1  0
  8  9  1  0
  9 10  1  0
 10 11  1  0
 11 12  1  0
 12 13  1  0
 13 14  1  0
 14 15  1  0
 15 16  1  0
 16 17  2  0
 16 18  1  0
 18 19  1  0
 20 19  1  1
 20 21  1  0
 21 22  1  0
 22 23  1  0
 23 24  2  0
 23 25  1  0
 25 26  1  0
 25 27  1  0
 25 28  1  0
 14 29  1  0
 29 30  1  0
 30 11  1  0
 28 20  1  0
M  END
>  <energy_score>  (1129) 
-69.187463

>  <alias>  (1129) 
None

>  <HIPPO Pose ID>  (1129) 
70741

>  <smiles>  (1129) 
CC(C)(C)OC(=O)NCCN1CCN(CC(=O)NC[C@@H]2CNC(=O)C(C)(C)C2)CC1

>  <inchikey>  (1129) 
WNCBEXJWSVIIAA-MRXNPFEDSA-N

>  <distance_score>  (1129) 
1.958374

>  <ref_mols>  (1129) 
Z0701a,Z0719a

>  <ref_pdb>  (1129) 
Z0719a

>  <HIPPO Compound ID>  (1129) 
143360

>  <name>  (1129) 
P70741

>  <inspiration_score>  (1129) 
None

$$$$
P70742
     RDKit          3D

 30 33  0  0  0  0  0  0  0  0999 V2000
   -3.5430    6.5415   -8.2484 C   0  0  0  0  0  0  0  0  0  0  0  0
   -3.2709    5.2253   -8.8163 N   0  0  0  0  0  0  0  0  0  0  0  0
   -2.5773    5.3458  -10.1127 C   0  0  0  0  0  0  0  0  0  0  0  0
   -2.7968    4.1191  -11.0265 C   0  0  0  0  0  0  0  0  0  0  0  0
   -4.2083    3.9753  -11.4420 N   0  0  0  0  0  0  0  0  0  0  0  0
   -4.5480    2.6137  -12.0038 C   0  0  0  0  0  0  0  0  0  0  0  0
   -3.5041    2.1722  -13.0527 C   0  0  0  0  0  0  0  0  0  0  0  0
   -4.6628    1.5258  -10.9167 C   0  0  0  0  0  0  0  0  0  0  0  0
   -5.9115    2.6919  -12.8129 C   0  0  0  0  0  0  0  0  0  0  0  0
   -6.6265    1.7783  -12.9678 O   0  0  0  0  0  0  0  0  0  0  0  0
   -6.0211    4.1579  -13.3289 N   0  0  0  0  0  0  0  0  0  0  0  0
   -7.0716    4.8142  -14.0536 C   0  0  0  0  0  0  0  0  0  0  0  0
   -7.1084    4.5220  -15.5604 C   0  0  1  0  0  0  0  0  0  0  0  0
   -8.5590    4.6946  -16.0187 C   0  0  0  0  0  0  0  0  0  0  0  0
   -8.7671    4.3316  -17.4615 C   0  0  0  0  0  0  0  0  0  0  0  0
   -7.5556    4.4664  -18.3340 C   0  0  0  0  0  0  0  0  0  0  0  0
   -7.6092    3.9702  -19.4549 O   0  0  0  0  0  0  0  0  0  0  0  0
   -6.4456    5.1622  -17.8683 N   0  0  0  0  0  0  0  0  0  0  0  0
   -5.4616    5.5779  -18.8455 C   0  0  0  0  0  0  0  0  0  0  0  0
   -4.7054    6.8878  -18.7909 C   0  0  0  0  0  0  0  0  0  0  0  0
   -5.7890    6.7078  -19.7952 C   0  0  0  0  0  0  0  0  0  0  0  0
   -6.2561    5.4620  -16.4385 C   0  0  2  0  0  0  0  0  0  0  0  0
   -4.7913    5.4653  -16.0337 C   0  0  0  0  0  0  0  0  0  0  0  0
   -3.8874    4.5331  -16.2958 N   0  0  0  0  0  0  0  0  0  0  0  0
   -2.7077    4.9852  -15.7765 C   0  0  0  0  0  0  0  0  0  0  0  0
   -2.8759    6.1971  -15.1612 C   0  0  0  0  0  0  0  0  0  0  0  0
   -4.1967    6.5017  -15.3346 N   0  0  0  0  0  0  0  0  0  0  0  0
   -4.8081    7.7252  -14.8756 C   0  0  0  0  0  0  0  0  0  0  0  0
   -5.1253    4.4141  -10.3553 C   0  0  0  0  0  0  0  0  0  0  0  0
   -4.5029    4.4148   -8.9387 C   0  0  0  0  0  0  0  0  0  0  0  0
  1  2  1  0
  2  3  1  0
  3  4  1  0
  4  5  1  0
  5  6  1  0
  6  7  1  0
  6  8  1  0
  6  9  1  0
  9 10  2  0
  9 11  1  0
 11 12  1  0
 13 12  1  1
 13 14  1  0
 14 15  1  0
 15 16  1  0
 16 17  2  0
 16 18  1  0
 18 19  1  0
 19 20  1  0
 20 21  1  0
 18 22  1  0
 22 23  1  1
 23 24  2  0
 24 25  1  0
 25 26  2  0
 26 27  1  0
 27 28  1  0
  5 29  1  0
 29 30  1  0
 30  2  1  0
 22 13  1  0
 27 23  1  0
 21 19  1  0
M  END
>  <energy_score>  (1130) 
-55.843605

>  <alias>  (1130) 
None

>  <HIPPO Pose ID>  (1130) 
70742

>  <smiles>  (1130) 
CN1CCN(C(C)(C)C(=O)NC[C@H]2CCC(=O)N(C3CC3)[C@@H]2c2nccn2C)CC1

>  <inchikey>  (1130) 
VJSSTNBRGQRSEQ-APWZRJJASA-N

>  <distance_score>  (1130) 
1.762843

>  <ref_mols>  (1130) 
Z0701a,Z0719a

>  <ref_pdb>  (1130) 
Z0719a

>  <HIPPO Compound ID>  (1130) 
143373

>  <name>  (1130) 
P70742

>  <inspiration_score>  (1130) 
None

$$$$
P70743
     RDKit          3D

 30 33  0  0  0  0  0  0  0  0999 V2000
   -0.9915    6.3229  -15.2387 C   0  0  0  0  0  0  0  0  0  0  0  0
   -2.1721    5.3460  -15.2709 C   0  0  1  0  0  0  0  0  0  0  0  0
   -2.9352    5.4360  -13.9142 C   0  0  0  0  0  0  0  0  0  0  0  0
   -3.2768    6.4708  -13.4603 O   0  0  0  0  0  0  0  0  0  0  0  0
   -3.1222    4.0124  -13.3836 N   0  0  0  0  0  0  0  0  0  0  0  0
   -1.9586    3.5994  -12.4987 C   0  0  0  0  0  0  0  0  0  0  0  0
   -1.5671    2.1236  -12.6095 C   0  0  0  0  0  0  0  0  0  0  0  0
   -2.7975    1.2625  -12.4947 C   0  0  0  0  0  0  0  0  0  0  0  0
   -3.7959    2.0146  -11.6552 C   0  0  0  0  0  0  0  0  0  0  0  0
   -3.9135    3.4839  -12.1349 C   0  0  2  0  0  0  0  0  0  0  0  0
   -5.4025    3.8564  -12.4429 C   0  0  2  0  0  0  0  0  0  0  0  0
   -6.2593    4.0681  -11.1920 C   0  0  0  0  0  0  0  0  0  0  0  0
   -7.4909    4.8715  -11.5957 C   0  0  0  0  0  0  0  0  0  0  0  0
   -8.1390    4.3991  -12.8846 C   0  0  0  0  0  0  0  0  0  0  0  0
   -9.2288    4.8556  -13.2283 O   0  0  0  0  0  0  0  0  0  0  0  0
   -7.4517    3.5012  -13.6590 N   0  0  0  0  0  0  0  0  0  0  0  0
   -6.2353    2.9473  -13.3350 C   0  0  0  0  0  0  0  0  0  0  0  0
   -5.9525    1.8078  -13.6738 O   0  0  0  0  0  0  0  0  0  0  0  0
   -2.9966    5.6377  -16.4750 N   0  0  0  0  0  0  0  0  0  0  0  0
   -3.9855    6.7251  -16.3111 C   0  0  0  0  0  0  0  0  0  0  0  0
   -4.8193    7.0107  -17.5896 C   0  0  0  0  0  0  0  0  0  0  0  0
   -5.3903    5.8051  -18.2034 N   0  0  0  0  0  0  0  0  0  0  0  0
   -6.6539    5.3420  -17.8309 C   0  0  0  0  0  0  0  0  0  0  0  0
   -7.2517    5.6268  -16.6049 C   0  0  0  0  0  0  0  0  0  0  0  0
   -8.5358    5.1694  -16.3023 C   0  0  0  0  0  0  0  0  0  0  0  0
   -9.2591    4.4173  -17.2120 C   0  0  0  0  0  0  0  0  0  0  0  0
   -8.6915    4.1291  -18.4367 C   0  0  0  0  0  0  0  0  0  0  0  0
   -7.4023    4.5762  -18.7343 C   0  0  0  0  0  0  0  0  0  0  0  0
   -4.3837    4.7441  -18.3553 C   0  0  0  0  0  0  0  0  0  0  0  0
   -3.6809    4.4415  -17.0051 C   0  0  0  0  0  0  0  0  0  0  0  0
  2  1  1  1
  2  3  1  0
  3  4  2  0
  3  5  1  0
  5  6  1  0
  6  7  1  0
  7  8  1  0
  8  9  1  0
 10  9  1  6
 10 11  1  0
 11 12  1  1
 12 13  1  0
 13 14  1  0
 14 15  2  0
 14 16  1  0
 16 17  1  0
 17 18  2  0
  2 19  1  0
 19 20  1  0
 20 21  1  0
 21 22  1  0
 22 23  1  0
 23 24  2  0
 24 25  1  0
 25 26  2  0
 26 27  1  0
 27 28  2  0
 22 29  1  0
 29 30  1  0
 10  5  1  0
 17 11  1  0
 30 19  1  0
 28 23  1  0
M  END
>  <energy_score>  (1131) 
-9.19669

>  <alias>  (1131) 
None

>  <HIPPO Pose ID>  (1131) 
70743

>  <smiles>  (1131) 
C[C@@H](C(=O)N1CCCC[C@@H]1[C@@H]1CCC(=O)NC1=O)N1CCN(c2ccccc2)CC1

>  <inchikey>  (1131) 
DXXSCXGYSBNANI-YSIASYRMSA-N

>  <distance_score>  (1131) 
1.833532

>  <ref_mols>  (1131) 
Z0701a,Z0719a

>  <ref_pdb>  (1131) 
Z0719a

>  <HIPPO Compound ID>  (1131) 
143375

>  <name>  (1131) 
P70743

>  <inspiration_score>  (1131) 
None

$$$$
P70744
     RDKit          3D

 30 32  0  0  0  0  0  0  0  0999 V2000
   -4.0480    5.3278  -19.2673 C   0  0  0  0  0  0  0  0  0  0  0  0
   -4.5903    4.5353  -18.0808 C   0  0  0  0  0  0  0  0  0  0  0  0
   -5.4317    5.3141  -17.1788 N   0  0  0  0  0  0  0  0  0  0  0  0
   -4.7987    6.3801  -16.5823 C   0  0  0  0  0  0  0  0  0  0  0  0
   -3.5991    6.6122  -16.6697 O   0  0  0  0  0  0  0  0  0  0  0  0
   -5.7129    7.2572  -15.8060 C   0  0  0  0  0  0  0  0  0  0  0  0
   -6.1940    6.4530  -14.6341 C   0  0  0  0  0  0  0  0  0  0  0  0
   -7.0553    5.3034  -15.1314 C   0  0  2  0  0  0  0  0  0  0  0  0
   -7.3037    4.2883  -14.0014 C   0  0  0  0  0  0  0  0  0  0  0  0
   -6.1042    3.6849  -13.4828 N   0  0  0  0  0  0  0  0  0  0  0  0
   -5.8026    2.2225  -13.1057 C   0  0  0  0  0  0  0  0  0  0  0  0
   -6.4506    1.2632  -13.2271 O   0  0  0  0  0  0  0  0  0  0  0  0
   -4.3459    2.1817  -12.5895 C   0  0  0  0  0  0  0  0  0  0  0  0
   -3.9152    3.4953  -12.0419 N   0  0  0  0  0  0  0  0  0  0  0  0
   -4.3154    3.6239  -10.6143 C   0  0  0  0  0  0  0  0  0  0  0  0
   -3.5251    2.7467   -9.6118 C   0  0  0  0  0  0  0  0  0  0  0  0
   -2.0508    2.8974   -9.8106 N   0  0  0  0  0  0  0  0  0  0  0  0
   -1.0465    2.1822   -8.6526 S   0  0  0  0  0  0  0  0  0  0  0  0
   -1.1622    0.4483   -9.0406 C   0  0  0  0  0  0  0  0  0  0  0  0
   -1.6363    2.3904   -7.3477 O   0  0  0  0  0  0  0  0  0  0  0  0
    0.3136    2.5956   -8.9307 O   0  0  0  0  0  0  0  0  0  0  0  0
   -1.6304    2.7448  -11.2272 C   0  0  0  0  0  0  0  0  0  0  0  0
   -2.4523    3.6725  -12.1366 C   0  0  0  0  0  0  0  0  0  0  0  0
   -6.5451    4.6252  -16.4596 C   0  0  1  0  0  0  0  0  0  0  0  0
   -7.6952    4.4227  -17.3897 C   0  0  0  0  0  0  0  0  0  0  0  0
   -7.7321    4.3939  -18.7990 C   0  0  0  0  0  0  0  0  0  0  0  0
   -8.9641    4.2202  -19.2610 N   0  0  0  0  0  0  0  0  0  0  0  0
   -9.7167    4.3152  -18.1734 N   0  0  0  0  0  0  0  0  0  0  0  0
  -11.0841    4.7175  -18.2662 C   0  0  0  0  0  0  0  0  0  0  0  0
   -9.0129    4.2244  -17.0245 C   0  0  0  0  0  0  0  0  0  0  0  0
  1  2  1  0
  2  3  1  0
  3  4  1  0
  4  5  2  0
  4  6  1  0
  6  7  1  0
  7  8  1  0
  8  9  1  1
  9 10  1  0
 10 11  1  0
 11 12  2  0
 11 13  1  0
 13 14  1  0
 14 15  1  0
 15 16  1  0
 16 17  1  0
 17 18  1  0
 18 19  1  0
 18 20  2  0
 18 21  2  0
 17 22  1  0
 22 23  1  0
  8 24  1  0
 24 25  1  6
 25 26  1  0
 26 27  2  0
 27 28  1  0
 28 29  1  0
 28 30  1  0
 24  3  1  0
 30 25  2  0
 23 14  1  0
M  END
>  <energy_score>  (1132) 
-68.58058

>  <alias>  (1132) 
None

>  <HIPPO Pose ID>  (1132) 
70744

>  <smiles>  (1132) 
CCN1C(=O)CC[C@H](CNC(=O)CN2CCN(S(C)(=O)=O)CC2)[C@H]1c1cnn(C)c1

>  <inchikey>  (1132) 
KYGXGMAXBLWTFF-BEFAXECRSA-N

>  <distance_score>  (1132) 
1.9901

>  <ref_mols>  (1132) 
Z0701a,Z0719a

>  <ref_pdb>  (1132) 
Z0719a

>  <HIPPO Compound ID>  (1132) 
143377

>  <name>  (1132) 
P70744

>  <inspiration_score>  (1132) 
None

$$$$
P70745
     RDKit          3D

 30 32  0  0  0  0  0  0  0  0999 V2000
   -5.8758    6.6216  -19.7868 C   0  0  0  0  0  0  0  0  0  0  0  0
   -6.0991    5.2026  -19.2813 C   0  0  0  0  0  0  0  0  0  0  0  0
   -6.6153    5.1926  -17.9001 N   0  0  0  0  0  0  0  0  0  0  0  0
   -7.9285    4.7026  -17.7537 C   0  0  0  0  0  0  0  0  0  0  0  0
   -8.6516    4.3333  -18.6704 O   0  0  0  0  0  0  0  0  0  0  0  0
   -8.4834    4.6236  -16.3635 C   0  0  0  0  0  0  0  0  0  0  0  0
   -7.6845    5.4423  -15.3827 C   0  0  0  0  0  0  0  0  0  0  0  0
   -6.2194    5.0304  -15.3735 C   0  0  1  0  0  0  0  0  0  0  0  0
   -5.9813    3.6940  -14.6708 C   0  0  0  0  0  0  0  0  0  0  0  0
   -5.9838    3.6429  -13.2419 N   0  0  0  0  0  0  0  0  0  0  0  0
   -6.1965    2.4456  -12.2770 C   0  0  0  0  0  0  0  0  0  0  0  0
   -6.4785    1.3344  -12.5009 O   0  0  0  0  0  0  0  0  0  0  0  0
   -5.8561    2.9305  -10.8552 C   0  0  0  0  0  0  0  0  0  0  0  0
   -4.4283    2.8268  -10.5061 N   0  0  0  0  0  0  0  0  0  0  0  0
   -3.5311    3.8828  -10.9684 C   0  0  0  0  0  0  0  0  0  0  0  0
   -2.7415    3.6198  -12.2664 C   0  0  0  0  0  0  0  0  0  0  0  0
   -2.1087    2.2746  -12.3129 N   0  0  0  0  0  0  0  0  0  0  0  0
   -0.5832    2.0721  -11.6177 S   0  0  0  0  0  0  0  0  0  0  0  0
    0.4416    3.0974  -12.6516 C   0  0  0  0  0  0  0  0  0  0  0  0
   -0.1576    0.7073  -11.8514 O   0  0  0  0  0  0  0  0  0  0  0  0
   -0.5912    2.6453  -10.2902 O   0  0  0  0  0  0  0  0  0  0  0  0
   -3.1173    1.2115  -11.9817 C   0  0  0  0  0  0  0  0  0  0  0  0
   -3.8387    1.4826  -10.6452 C   0  0  0  0  0  0  0  0  0  0  0  0
   -5.6667    4.8971  -16.8196 C   0  0  2  0  0  0  0  0  0  0  0  0
   -4.3321    5.6026  -16.9094 C   0  0  0  0  0  0  0  0  0  0  0  0
   -3.1687    4.9755  -16.9921 N   0  0  0  0  0  0  0  0  0  0  0  0
   -2.2076    5.9478  -16.9840 C   0  0  0  0  0  0  0  0  0  0  0  0
   -2.7780    7.1887  -16.8572 C   0  0  0  0  0  0  0  0  0  0  0  0
   -4.1265    6.9599  -16.7955 N   0  0  0  0  0  0  0  0  0  0  0  0
   -5.1176    7.9905  -16.6179 C   0  0  0  0  0  0  0  0  0  0  0  0
  1  2  1  0
  2  3  1  0
  3  4  1  0
  4  5  2  0
  4  6  1  0
  6  7  1  0
  7  8  1  0
  8  9  1  6
  9 10  1  0
 10 11  1  0
 11 12  2  0
 11 13  1  0
 13 14  1  0
 14 15  1  0
 15 16  1  0
 16 17  1  0
 17 18  1  0
 18 19  1  0
 18 20  2  0
 18 21  2  0
 17 22  1  0
 22 23  1  0
  8 24  1  0
 24 25  1  1
 25 26  2  0
 26 27  1  0
 27 28  2  0
 28 29  1  0
 29 30  1  0
 24  3  1  0
 29 25  1  0
 23 14  1  0
M  END
>  <energy_score>  (1133) 
-31.757328

>  <alias>  (1133) 
None

>  <HIPPO Pose ID>  (1133) 
70745

>  <smiles>  (1133) 
CCN1C(=O)CC[C@@H](CNC(=O)CN2CCN(S(C)(=O)=O)CC2)[C@@H]1c1nccn1C

>  <inchikey>  (1133) 
FKGOOOWFHAUFLC-MAUKXSAKSA-N

>  <distance_score>  (1133) 
1.845814

>  <ref_mols>  (1133) 
Z0701a,Z0719a

>  <ref_pdb>  (1133) 
Z0719a

>  <HIPPO Compound ID>  (1133) 
143378

>  <name>  (1133) 
P70745

>  <inspiration_score>  (1133) 
None

$$$$
P70747
     RDKit          3D

 30 32  0  0  0  0  0  0  0  0999 V2000
    2.1070   -0.6831  -11.9468 C   0  0  0  0  0  0  0  0  0  0  0  0
    0.9871   -0.2407  -11.1799 O   0  0  0  0  0  0  0  0  0  0  0  0
   -0.0726    0.1721  -11.9274 C   0  0  0  0  0  0  0  0  0  0  0  0
   -0.1017    0.1871  -13.1584 O   0  0  0  0  0  0  0  0  0  0  0  0
   -1.2166    0.6716  -11.0554 C   0  0  0  0  0  0  0  0  0  0  0  0
   -1.1233    2.1179  -10.7255 N   0  0  0  0  0  0  0  0  0  0  0  0
   -2.4099    2.5770  -10.1406 C   0  0  0  0  0  0  0  0  0  0  0  0
   -3.2746    3.5037  -11.0481 C   0  0  0  0  0  0  0  0  0  0  0  0
   -3.2394    3.2052  -12.5000 N   0  0  0  0  0  0  0  0  0  0  0  0
   -4.1019    2.0285  -12.8016 C   0  0  0  0  0  0  0  0  0  0  0  0
   -5.5240    2.4597  -13.2378 C   0  0  0  0  0  0  0  0  0  0  0  0
   -6.4106    1.7035  -13.3359 O   0  0  0  0  0  0  0  0  0  0  0  0
   -5.4485    3.9731  -13.5834 N   0  0  0  0  0  0  0  0  0  0  0  0
   -6.4719    4.8822  -14.0287 C   0  0  0  0  0  0  0  0  0  0  0  0
   -7.0299    4.5311  -15.4116 C   0  0  1  0  0  0  0  0  0  0  0  0
   -8.3555    5.2400  -15.6492 C   0  0  0  0  0  0  0  0  0  0  0  0
   -9.0432    4.5605  -16.8070 C   0  0  0  0  0  0  0  0  0  0  0  0
   -8.1572    4.4128  -18.0044 C   0  0  0  0  0  0  0  0  0  0  0  0
   -8.6337    3.9052  -19.0120 O   0  0  0  0  0  0  0  0  0  0  0  0
   -6.8463    4.8590  -17.9068 N   0  0  0  0  0  0  0  0  0  0  0  0
   -6.0872    4.9660  -19.1420 C   0  0  0  0  0  0  0  0  0  0  0  0
   -6.1087    4.7550  -16.6316 C   0  0  1  0  0  0  0  0  0  0  0  0
   -5.1664    5.9202  -16.4701 C   0  0  0  0  0  0  0  0  0  0  0  0
   -5.5056    7.1935  -16.3462 N   0  0  0  0  0  0  0  0  0  0  0  0
   -4.3350    7.8832  -16.1878 C   0  0  0  0  0  0  0  0  0  0  0  0
   -3.2609    7.0289  -16.2090 C   0  0  0  0  0  0  0  0  0  0  0  0
   -3.7962    5.7830  -16.3895 N   0  0  0  0  0  0  0  0  0  0  0  0
   -3.0341    4.5641  -16.4909 C   0  0  0  0  0  0  0  0  0  0  0  0
   -1.8525    3.0276  -12.9686 C   0  0  0  0  0  0  0  0  0  0  0  0
   -0.7746    2.9747  -11.8668 C   0  0  0  0  0  0  0  0  0  0  0  0
  1  2  1  0
  2  3  1  0
  3  4  2  0
  3  5  1  0
  5  6  1  0
  6  7  1  0
  7  8  1  0
  8  9  1  0
  9 10  1  0
 10 11  1  0
 11 12  2  0
 11 13  1  0
 13 14  1  0
 15 14  1  1
 15 16  1  0
 16 17  1  0
 17 18  1  0
 18 19  2  0
 18 20  1  0
 20 21  1  0
 20 22  1  0
 22 23  1  1
 23 24  2  0
 24 25  1  0
 25 26  2  0
 26 27  1  0
 27 28  1  0
  9 29  1  0
 29 30  1  0
 30  6  1  0
 22 15  1  0
 27 23  1  0
M  END
>  <energy_score>  (1134) 
-50.959113

>  <alias>  (1134) 
None

>  <HIPPO Pose ID>  (1134) 
70747

>  <smiles>  (1134) 
COC(=O)CN1CCN(CC(=O)NC[C@H]2CCC(=O)N(C)[C@H]2c2nccn2C)CC1

>  <inchikey>  (1134) 
HAAUIUDYVVCZMD-DNVCBOLYSA-N

>  <distance_score>  (1134) 
1.704899

>  <ref_mols>  (1134) 
Z0701a,Z0719a

>  <ref_pdb>  (1134) 
Z0719a

>  <HIPPO Compound ID>  (1134) 
143410

>  <name>  (1134) 
P70747

>  <inspiration_score>  (1134) 
None

$$$$
P70749
     RDKit          3D

 31 34  0  0  0  0  0  0  0  0999 V2000
   -0.6083    5.4187  -15.7230 C   0  0  0  0  0  0  0  0  0  0  0  0
   -2.1055    5.5624  -15.4898 C   0  0  2  0  0  0  0  0  0  0  0  0
   -2.9186    4.2469  -15.2222 C   0  0  0  0  0  0  0  0  0  0  0  0
   -3.3719    3.6410  -16.1230 O   0  0  0  0  0  0  0  0  0  0  0  0
   -3.0603    4.0324  -13.7194 N   0  0  0  0  0  0  0  0  0  0  0  0
   -1.9642    3.1204  -13.1893 C   0  0  0  0  0  0  0  0  0  0  0  0
   -1.5114    3.2308  -11.7362 C   0  0  0  0  0  0  0  0  0  0  0  0
   -2.4903    2.4447  -10.9125 C   0  0  0  0  0  0  0  0  0  0  0  0
   -3.8374    2.9423  -11.3605 C   0  0  0  0  0  0  0  0  0  0  0  0
   -3.9326    3.0123  -12.9146 C   0  0  1  0  0  0  0  0  0  0  0  0
   -5.3655    3.6259  -13.2550 C   0  0  2  0  0  0  0  0  0  0  0  0
   -5.7545    4.8133  -12.3579 C   0  0  0  0  0  0  0  0  0  0  0  0
   -6.9318    5.5560  -12.9454 C   0  0  0  0  0  0  0  0  0  0  0  0
   -8.0635    4.6275  -13.2944 C   0  0  0  0  0  0  0  0  0  0  0  0
   -9.2114    5.0619  -13.3873 O   0  0  0  0  0  0  0  0  0  0  0  0
   -7.7523    3.3122  -13.5327 N   0  0  0  0  0  0  0  0  0  0  0  0
   -6.5424    2.6770  -13.3244 C   0  0  0  0  0  0  0  0  0  0  0  0
   -6.4573    1.4581  -13.2541 O   0  0  0  0  0  0  0  0  0  0  0  0
   -2.7324    6.3553  -16.6062 N   0  0  0  0  0  0  0  0  0  0  0  0
   -4.0435    6.9129  -16.2165 C   0  0  0  0  0  0  0  0  0  0  0  0
   -4.9348    7.2895  -17.4203 C   0  0  0  0  0  0  0  0  0  0  0  0
   -5.3159    6.1077  -18.1945 N   0  0  0  0  0  0  0  0  0  0  0  0
   -6.5420    5.4756  -17.9501 C   0  0  0  0  0  0  0  0  0  0  0  0
   -7.2662    5.6353  -16.7644 C   0  0  0  0  0  0  0  0  0  0  0  0
   -8.5201    5.0450  -16.5819 C   0  0  0  0  0  0  0  0  0  0  0  0
   -9.0849    4.3052  -17.5955 C   0  0  0  0  0  0  0  0  0  0  0  0
  -10.3188    3.8122  -17.4635 F   0  0  0  0  0  0  0  0  0  0  0  0
   -8.3996    4.1226  -18.7727 C   0  0  0  0  0  0  0  0  0  0  0  0
   -7.1288    4.6784  -18.9374 C   0  0  0  0  0  0  0  0  0  0  0  0
   -4.1994    5.1762  -18.4688 C   0  0  0  0  0  0  0  0  0  0  0  0
   -2.8137    5.6850  -17.9350 C   0  0  0  0  0  0  0  0  0  0  0  0
  2  1  1  6
  2  3  1  0
  3  4  2  0
  3  5  1  0
  5  6  1  0
  6  7  1  0
  7  8  1  0
  8  9  1  0
 10  9  1  1
 10 11  1  0
 11 12  1  1
 12 13  1  0
 13 14  1  0
 14 15  2  0
 14 16  1  0
 16 17  1  0
 17 18  2  0
  2 19  1  0
 19 20  1  0
 20 21  1  0
 21 22  1  0
 22 23  1  0
 23 24  2  0
 24 25  1  0
 25 26  2  0
 26 27  1  0
 26 28  1  0
 28 29  2  0
 22 30  1  0
 30 31  1  0
 10  5  1  0
 17 11  1  0
 31 19  1  0
 29 23  1  0
M  END
>  <energy_score>  (1135) 
-9.924884

>  <alias>  (1135) 
None

>  <HIPPO Pose ID>  (1135) 
70749

>  <smiles>  (1135) 
C[C@H](C(=O)N1CCCC[C@H]1[C@@H]1CCC(=O)NC1=O)N1CCN(c2ccc(F)cc2)CC1

>  <inchikey>  (1135) 
DVVNWINAMSKJNF-UXPWSPDFSA-N

>  <distance_score>  (1135) 
1.708198

>  <ref_mols>  (1135) 
Z0701a,Z0719a

>  <ref_pdb>  (1135) 
Z0719a

>  <HIPPO Compound ID>  (1135) 
143426

>  <name>  (1135) 
P70749

>  <inspiration_score>  (1135) 
None

$$$$
P70750
     RDKit          3D

 31 33  0  0  0  0  0  0  0  0999 V2000
   -5.8356    6.7642  -19.8928 C   0  0  0  0  0  0  0  0  0  0  0  0
   -6.0075    5.4260  -19.1819 C   0  0  0  0  0  0  0  0  0  0  0  0
   -6.0926    5.6705  -17.7396 N   0  0  0  0  0  0  0  0  0  0  0  0
   -7.3071    6.1065  -17.2365 C   0  0  0  0  0  0  0  0  0  0  0  0
   -7.3463    7.0059  -16.4093 O   0  0  0  0  0  0  0  0  0  0  0  0
   -8.4523    5.1513  -17.3574 C   0  0  0  0  0  0  0  0  0  0  0  0
   -7.9357    3.8815  -16.7548 C   0  0  0  0  0  0  0  0  0  0  0  0
   -6.6572    4.0670  -15.8799 C   0  0  2  0  0  0  0  0  0  0  0  0
   -6.9977    4.7437  -14.5326 C   0  0  0  0  0  0  0  0  0  0  0  0
   -6.3920    4.0903  -13.3870 N   0  0  0  0  0  0  0  0  0  0  0  0
   -6.5034    2.6208  -12.8861 C   0  0  0  0  0  0  0  0  0  0  0  0
   -7.0375    1.6958  -13.3635 O   0  0  0  0  0  0  0  0  0  0  0  0
   -5.8306    2.5721  -11.4963 C   0  0  0  0  0  0  0  0  0  0  0  0
   -4.5346    3.2934  -11.4941 N   0  0  0  0  0  0  0  0  0  0  0  0
   -3.9873    3.3976  -10.1270 C   0  0  0  0  0  0  0  0  0  0  0  0
   -2.9887    2.2802   -9.7472 C   0  0  0  0  0  0  0  0  0  0  0  0
   -1.8097    2.1755  -10.6502 N   0  0  0  0  0  0  0  0  0  0  0  0
   -1.3940    0.7556  -10.7975 C   0  0  0  0  0  0  0  0  0  0  0  0
   -0.5425    0.2592   -9.6287 C   0  0  0  0  0  0  0  0  0  0  0  0
    0.5676   -0.2490   -9.7714 O   0  0  0  0  0  0  0  0  0  0  0  0
   -1.1632    0.4242   -8.4259 O   0  0  0  0  0  0  0  0  0  0  0  0
   -0.4150   -0.0370   -7.3036 C   0  0  0  0  0  0  0  0  0  0  0  0
   -2.1132    2.7823  -11.9653 C   0  0  0  0  0  0  0  0  0  0  0  0
   -3.5804    2.6196  -12.4052 C   0  0  0  0  0  0  0  0  0  0  0  0
   -5.5441    4.6770  -16.8113 C   0  0  2  0  0  0  0  0  0  0  0  0
   -4.3179    5.2200  -16.1118 C   0  0  0  0  0  0  0  0  0  0  0  0
   -4.2472    5.6525  -14.8651 N   0  0  0  0  0  0  0  0  0  0  0  0
   -2.9508    6.0104  -14.6339 C   0  0  0  0  0  0  0  0  0  0  0  0
   -2.1923    5.7993  -15.7548 C   0  0  0  0  0  0  0  0  0  0  0  0
   -3.0653    5.3090  -16.6888 N   0  0  0  0  0  0  0  0  0  0  0  0
   -2.6932    4.9677  -18.0371 C   0  0  0  0  0  0  0  0  0  0  0  0
  1  2  1  0
  2  3  1  0
  3  4  1  0
  4  5  2  0
  4  6  1  0
  6  7  1  0
  7  8  1  0
  8  9  1  1
  9 10  1  0
 10 11  1  0
 11 12  2  0
 11 13  1  0
 13 14  1  0
 14 15  1  0
 15 16  1  0
 16 17  1  0
 17 18  1  0
 18 19  1  0
 19 20  2  0
 19 21  1  0
 21 22  1  0
 17 23  1  0
 23 24  1  0
  8 25  1  0
 25 26  1  1
 26 27  2  0
 27 28  1  0
 28 29  2  0
 29 30  1  0
 30 31  1  0
 25  3  1  0
 30 26  1  0
 24 14  1  0
M  END
>  <energy_score>  (1136) 
-9.77878

>  <alias>  (1136) 
None

>  <HIPPO Pose ID>  (1136) 
70750

>  <smiles>  (1136) 
CCN1C(=O)CC[C@H](CNC(=O)CN2CCN(CC(=O)OC)CC2)[C@@H]1c1nccn1C

>  <inchikey>  (1136) 
SZWPTNHGCOAMJH-OXQOHEQNSA-N

>  <distance_score>  (1136) 
1.717118

>  <ref_mols>  (1136) 
Z0701a,Z0719a

>  <ref_pdb>  (1136) 
Z0719a

>  <HIPPO Compound ID>  (1136) 
143444

>  <name>  (1136) 
P70750

>  <inspiration_score>  (1136) 
None

$$$$
P70751
     RDKit          3D

 31 33  0  0  0  0  0  0  0  0999 V2000
   -8.5009    3.1678  -10.3654 C   0  0  0  0  0  0  0  0  0  0  0  0
   -7.0670    2.7396  -10.0752 C   0  0  0  0  0  0  0  0  0  0  0  0
   -6.0680    3.2925  -11.1069 C   0  0  2  0  0  0  0  0  0  0  0  0
   -6.3455    2.7269  -12.5461 C   0  0  0  0  0  0  0  0  0  0  0  0
   -6.6751    1.6259  -12.7663 O   0  0  0  0  0  0  0  0  0  0  0  0
   -6.0472    3.9069  -13.5229 N   0  0  0  0  0  0  0  0  0  0  0  0
   -6.1865    3.9938  -14.9536 C   0  0  0  0  0  0  0  0  0  0  0  0
   -6.7275    5.3591  -15.4047 C   0  0  2  0  0  0  0  0  0  0  0  0
   -8.2468    5.3399  -15.4802 C   0  0  0  0  0  0  0  0  0  0  0  0
   -8.7599    4.4986  -16.6231 C   0  0  0  0  0  0  0  0  0  0  0  0
   -7.9084    4.4290  -17.8660 C   0  0  0  0  0  0  0  0  0  0  0  0
   -8.4266    3.9127  -18.8525 O   0  0  0  0  0  0  0  0  0  0  0  0
   -6.5750    4.8809  -17.8361 N   0  0  0  0  0  0  0  0  0  0  0  0
   -5.9090    4.8815  -19.1487 C   0  0  0  0  0  0  0  0  0  0  0  0
   -4.3963    4.7153  -19.1313 C   0  0  0  0  0  0  0  0  0  0  0  0
   -6.2102    5.8288  -16.7785 C   0  0  2  0  0  0  0  0  0  0  0  0
   -4.7548    6.2256  -16.6493 C   0  0  0  0  0  0  0  0  0  0  0  0
   -3.8204    5.5723  -15.9768 N   0  0  0  0  0  0  0  0  0  0  0  0
   -2.6833    6.3278  -16.0466 C   0  0  0  0  0  0  0  0  0  0  0  0
   -2.9179    7.4827  -16.7476 C   0  0  0  0  0  0  0  0  0  0  0  0
   -4.2315    7.4132  -17.1249 N   0  0  0  0  0  0  0  0  0  0  0  0
   -4.9098    8.4141  -17.9105 C   0  0  0  0  0  0  0  0  0  0  0  0
   -4.6608    3.0801  -10.6702 N   0  0  0  0  0  0  0  0  0  0  0  0
   -4.2729    1.6594  -10.5316 C   0  0  0  0  0  0  0  0  0  0  0  0
   -2.8298    1.5063   -9.9795 C   0  0  0  0  0  0  0  0  0  0  0  0
   -1.7749    2.2666  -10.7025 N   0  0  0  0  0  0  0  0  0  0  0  0
   -1.4658    1.6452  -12.0095 C   0  0  0  0  0  0  0  0  0  0  0  0
   -0.5345    0.4368  -11.8318 C   0  0  0  0  0  0  0  0  0  0  0  0
    0.5878    0.8127  -11.0315 O   0  0  0  0  0  0  0  0  0  0  0  0
   -2.2465    3.6570  -10.8697 C   0  0  0  0  0  0  0  0  0  0  0  0
   -3.6624    3.7975  -11.4718 C   0  0  0  0  0  0  0  0  0  0  0  0
  1  2  1  0
  3  2  1  1
  3  4  1  0
  4  5  2  0
  4  6  1  0
  6  7  1  0
  8  7  1  6
  8  9  1  0
  9 10  1  0
 10 11  1  0
 11 12  2  0
 11 13  1  0
 13 14  1  0
 14 15  1  0
 13 16  1  0
 16 17  1  1
 17 18  2  0
 18 19  1  0
 19 20  2  0
 20 21  1  0
 21 22  1  0
  3 23  1  0
 23 24  1  0
 24 25  1  0
 25 26  1  0
 26 27  1  0
 27 28  1  0
 28 29  1  0
 26 30  1  0
 30 31  1  0
 16  8  1  0
 21 17  1  0
 31 23  1  0
M  END
>  <energy_score>  (1137) 
-60.021872

>  <alias>  (1137) 
None

>  <HIPPO Pose ID>  (1137) 
70751

>  <smiles>  (1137) 
CC[C@H](C(=O)NC[C@@H]1CCC(=O)N(CC)[C@@H]1c1nccn1C)N1CCN(CCO)CC1

>  <inchikey>  (1137) 
QOGZPZKLDFXPHA-NSHGMRRFSA-N

>  <distance_score>  (1137) 
1.771965

>  <ref_mols>  (1137) 
Z0701a,Z0719a

>  <ref_pdb>  (1137) 
Z0719a

>  <HIPPO Compound ID>  (1137) 
143448

>  <name>  (1137) 
P70751

>  <inspiration_score>  (1137) 
None

$$$$
P70752
     RDKit          3D

 32 35  0  0  0  0  0  0  0  0999 V2000
   -5.5838    6.2844  -19.5111 C   0  0  0  0  0  0  0  0  0  0  0  0
   -5.8630    4.8827  -18.9825 C   0  0  0  0  0  0  0  0  0  0  0  0
   -6.6410    4.9437  -17.7334 N   0  0  0  0  0  0  0  0  0  0  0  0
   -7.9794    4.5307  -17.8392 C   0  0  0  0  0  0  0  0  0  0  0  0
   -8.4995    4.0755  -18.8486 O   0  0  0  0  0  0  0  0  0  0  0  0
   -8.8254    4.6643  -16.6132 C   0  0  0  0  0  0  0  0  0  0  0  0
   -8.1850    5.6035  -15.6197 C   0  0  0  0  0  0  0  0  0  0  0  0
   -6.8179    5.0877  -15.1903 C   0  0  1  0  0  0  0  0  0  0  0  0
   -7.0234    3.9198  -14.2191 C   0  0  0  0  0  0  0  0  0  0  0  0
   -5.8480    3.4123  -13.5842 N   0  0  0  0  0  0  0  0  0  0  0  0
   -5.6001    2.0725  -12.8575 C   0  0  0  0  0  0  0  0  0  0  0  0
   -6.2916    1.1435  -12.7305 O   0  0  0  0  0  0  0  0  0  0  0  0
   -4.1344    2.0921  -12.3615 C   0  0  0  0  0  0  0  0  0  0  0  0
   -3.6996    3.4691  -12.0119 N   0  0  0  0  0  0  0  0  0  0  0  0
   -4.1766    3.8428  -10.6494 C   0  0  0  0  0  0  0  0  0  0  0  0
   -3.4097    3.2144   -9.4512 C   0  0  0  0  0  0  0  0  0  0  0  0
   -1.9544    3.4363   -9.6119 N   0  0  0  0  0  0  0  0  0  0  0  0
   -1.1841    3.0338   -8.5071 C   0  0  0  0  0  0  0  0  0  0  0  0
    0.1671    3.3917   -8.4475 C   0  0  0  0  0  0  0  0  0  0  0  0
    0.9479    3.0210   -7.3536 C   0  0  0  0  0  0  0  0  0  0  0  0
    0.3645    2.3045   -6.3236 C   0  0  0  0  0  0  0  0  0  0  0  0
   -0.9788    2.0032   -6.4356 C   0  0  0  0  0  0  0  0  0  0  0  0
   -1.7536    2.3551   -7.4871 N   0  0  0  0  0  0  0  0  0  0  0  0
   -1.4589    2.9199  -10.9012 C   0  0  0  0  0  0  0  0  0  0  0  0
   -2.2284    3.5937  -12.0604 C   0  0  0  0  0  0  0  0  0  0  0  0
   -5.9679    4.7179  -16.4334 C   0  0  2  0  0  0  0  0  0  0  0  0
   -4.5825    5.3209  -16.3264 C   0  0  0  0  0  0  0  0  0  0  0  0
   -3.4742    4.6083  -16.1915 N   0  0  0  0  0  0  0  0  0  0  0  0
   -2.4512    5.5047  -16.0619 C   0  0  0  0  0  0  0  0  0  0  0  0
   -2.9290    6.7891  -16.0947 C   0  0  0  0  0  0  0  0  0  0  0  0
   -4.2838    6.6648  -16.2517 N   0  0  0  0  0  0  0  0  0  0  0  0
   -5.1930    7.7817  -16.3051 C   0  0  0  0  0  0  0  0  0  0  0  0
  1  2  1  0
  2  3  1  0
  3  4  1  0
  4  5  2  0
  4  6  1  0
  6  7  1  0
  7  8  1  0
  8  9  1  1
  9 10  1  0
 10 11  1  0
 11 12  2  0
 11 13  1  0
 13 14  1  0
 14 15  1  0
 15 16  1  0
 16 17  1  0
 17 18  1  0
 18 19  2  0
 19 20  1  0
 20 21  2  0
 21 22  1  0
 22 23  2  0
 17 24  1  0
 24 25  1  0
  8 26  1  0
 26 27  1  6
 27 28  2  0
 28 29  1  0
 29 30  2  0
 30 31  1  0
 31 32  1  0
 26  3  1  0
 31 27  1  0
 25 14  1  0
 23 18  1  0
M  END
>  <energy_score>  (1138) 
-60.947423

>  <alias>  (1138) 
None

>  <HIPPO Pose ID>  (1138) 
70752

>  <smiles>  (1138) 
CCN1C(=O)CC[C@@H](CNC(=O)CN2CCN(c3ccccn3)CC2)[C@@H]1c1nccn1C

>  <inchikey>  (1138) 
WLOAETRENGFAHO-PGRDOPGGSA-N

>  <distance_score>  (1138) 
1.681435

>  <ref_mols>  (1138) 
Z0701a,Z0719a

>  <ref_pdb>  (1138) 
Z0719a

>  <HIPPO Compound ID>  (1138) 
143459

>  <name>  (1138) 
P70752

>  <inspiration_score>  (1138) 
None

$$$$
P70753
     RDKit          3D

 32 35  0  0  0  0  0  0  0  0999 V2000
    1.4740   -0.2559  -12.5745 C   0  0  0  0  0  0  0  0  0  0  0  0
    0.1553    0.1511  -12.2068 O   0  0  0  0  0  0  0  0  0  0  0  0
   -0.1126   -0.0191  -10.8736 C   0  0  0  0  0  0  0  0  0  0  0  0
    0.6624   -0.5587  -10.0874 O   0  0  0  0  0  0  0  0  0  0  0  0
   -1.4694    0.5724  -10.4893 C   0  0  0  0  0  0  0  0  0  0  0  0
   -1.4081    2.0598  -10.4584 N   0  0  0  0  0  0  0  0  0  0  0  0
   -2.3080    2.5794   -9.4122 C   0  0  0  0  0  0  0  0  0  0  0  0
   -3.8202    2.3489   -9.6593 C   0  0  0  0  0  0  0  0  0  0  0  0
   -4.2159    2.3311  -11.0765 N   0  0  0  0  0  0  0  0  0  0  0  0
   -5.6444    2.6808  -11.2162 C   0  0  0  0  0  0  0  0  0  0  0  0
   -6.1754    2.3676  -12.6325 C   0  0  0  0  0  0  0  0  0  0  0  0
   -6.5929    1.3188  -12.9309 O   0  0  0  0  0  0  0  0  0  0  0  0
   -5.9727    3.6503  -13.4863 N   0  0  0  0  0  0  0  0  0  0  0  0
   -6.1532    3.8714  -14.8961 C   0  0  0  0  0  0  0  0  0  0  0  0
   -6.5843    5.2902  -15.2689 C   0  0  2  0  0  0  0  0  0  0  0  0
   -8.0890    5.3790  -15.4904 C   0  0  0  0  0  0  0  0  0  0  0  0
   -8.5435    4.5967  -16.6986 C   0  0  0  0  0  0  0  0  0  0  0  0
   -7.6122    4.6123  -17.8826 C   0  0  0  0  0  0  0  0  0  0  0  0
   -8.0256    4.0877  -18.9137 O   0  0  0  0  0  0  0  0  0  0  0  0
   -6.3356    5.1775  -17.7652 N   0  0  0  0  0  0  0  0  0  0  0  0
   -5.6120    5.4114  -19.0070 C   0  0  0  0  0  0  0  0  0  0  0  0
   -5.9434    6.6276  -19.8430 C   0  0  0  0  0  0  0  0  0  0  0  0
   -4.5806    6.4900  -19.2663 C   0  0  0  0  0  0  0  0  0  0  0  0
   -5.8960    5.8338  -16.5346 C   0  0  2  0  0  0  0  0  0  0  0  0
   -4.3907    5.8705  -16.3176 C   0  0  0  0  0  0  0  0  0  0  0  0
   -3.5153    4.9072  -16.5593 N   0  0  0  0  0  0  0  0  0  0  0  0
   -2.2963    5.3885  -16.1700 C   0  0  0  0  0  0  0  0  0  0  0  0
   -2.4108    6.6609  -15.6729 C   0  0  0  0  0  0  0  0  0  0  0  0
   -3.7395    6.9617  -15.7714 N   0  0  0  0  0  0  0  0  0  0  0  0
   -4.3283    8.2202  -15.3814 C   0  0  0  0  0  0  0  0  0  0  0  0
   -3.2889    3.1035  -11.9023 C   0  0  0  0  0  0  0  0  0  0  0  0
   -1.8111    2.6309  -11.7655 C   0  0  0  0  0  0  0  0  0  0  0  0
  1  2  1  0
  2  3  1  0
  3  4  2  0
  3  5  1  0
  5  6  1  0
  6  7  1  0
  7  8  1  0
  8  9  1  0
  9 10  1  0
 10 11  1  0
 11 12  2  0
 11 13  1  0
 13 14  1  0
 15 14  1  6
 15 16  1  0
 16 17  1  0
 17 18  1  0
 18 19  2  0
 18 20  1  0
 20 21  1  0
 21 22  1  0
 22 23  1  0
 20 24  1  0
 24 25  1  1
 25 26  2  0
 26 27  1  0
 27 28  2  0
 28 29  1  0
 29 30  1  0
  9 31  1  0
 31 32  1  0
 32  6  1  0
 24 15  1  0
 29 25  1  0
 23 21  1  0
M  END
>  <energy_score>  (1139) 
-41.953716

>  <alias>  (1139) 
None

>  <HIPPO Pose ID>  (1139) 
70753

>  <smiles>  (1139) 
COC(=O)CN1CCN(CC(=O)NC[C@@H]2CCC(=O)N(C3CC3)[C@@H]2c2nccn2C)CC1

>  <inchikey>  (1139) 
CXXWDJRYMQHKLM-KKSFZXQISA-N

>  <distance_score>  (1139) 
1.783064

>  <ref_mols>  (1139) 
Z0701a,Z0719a

>  <ref_pdb>  (1139) 
Z0719a

>  <HIPPO Compound ID>  (1139) 
143476

>  <name>  (1139) 
P70753

>  <inspiration_score>  (1139) 
None

$$$$
P70755
     RDKit          3D

 32 36  0  0  0  0  0  0  0  0999 V2000
   -1.9845    7.1398  -21.9670 C   0  0  0  0  0  0  0  0  0  0  0  0
   -2.9867    6.4003  -21.1940 N   0  0  0  0  0  0  0  0  0  0  0  0
   -2.4363    5.9714  -19.8981 C   0  0  0  0  0  0  0  0  0  0  0  0
   -3.5131    5.3177  -19.0066 C   0  0  0  0  0  0  0  0  0  0  0  0
   -4.5791    6.2794  -18.6719 N   0  0  0  0  0  0  0  0  0  0  0  0
   -5.4727    5.8104  -17.5864 C   0  0  0  0  0  0  0  0  0  0  0  0
   -4.5104    5.7504  -16.2833 C   0  0  0  0  0  0  0  0  0  0  0  0
   -4.0628    6.7282  -15.8259 O   0  0  0  0  0  0  0  0  0  0  0  0
   -4.2993    4.2725  -15.8872 N   0  0  0  0  0  0  0  0  0  0  0  0
   -3.4297    3.6871  -14.9175 C   0  0  0  0  0  0  0  0  0  0  0  0
   -3.5810    4.1794  -13.4649 C   0  0  2  0  0  0  0  0  0  0  0  0
   -3.1857    3.0457  -12.5161 C   0  0  0  0  0  0  0  0  0  0  0  0
   -4.2175    1.9265  -12.5312 C   0  0  0  0  0  0  0  0  0  0  0  0
   -5.6356    2.2856  -12.9438 C   0  0  0  0  0  0  0  0  0  0  0  0
   -6.4385    1.3882  -13.2126 O   0  0  0  0  0  0  0  0  0  0  0  0
   -5.9776    3.6233  -13.0164 N   0  0  0  0  0  0  0  0  0  0  0  0
   -7.3764    3.9433  -13.2160 C   0  0  0  0  0  0  0  0  0  0  0  0
   -8.2894    3.9088  -12.0132 C   0  0  0  0  0  0  0  0  0  0  0  0
   -8.0824    5.1904  -12.7564 C   0  0  0  0  0  0  0  0  0  0  0  0
   -4.9790    4.6891  -13.0489 C   0  0  1  0  0  0  0  0  0  0  0  0
   -4.9172    5.4349  -11.7376 C   0  0  0  0  0  0  0  0  0  0  0  0
   -5.1680    4.9846  -10.4179 C   0  0  0  0  0  0  0  0  0  0  0  0
   -4.9739    5.9376   -9.5025 N   0  0  0  0  0  0  0  0  0  0  0  0
   -4.6338    7.0135  -10.2282 N   0  0  0  0  0  0  0  0  0  0  0  0
   -4.3696    8.2647   -9.5618 C   0  0  0  0  0  0  0  0  0  0  0  0
   -4.5731    6.7649  -11.5656 C   0  0  0  0  0  0  0  0  0  0  0  0
   -6.5762    6.7832  -17.1392 C   0  0  0  0  0  0  0  0  0  0  0  0
   -7.4275    5.9167  -16.2045 C   0  0  0  0  0  0  0  0  0  0  0  0
   -7.4833    4.5619  -16.8841 C   0  0  0  0  0  0  0  0  0  0  0  0
   -6.4013    4.6298  -17.9597 C   0  0  0  0  0  0  0  0  0  0  0  0
   -5.2144    6.7388  -19.9151 C   0  0  0  0  0  0  0  0  0  0  0  0
   -4.1697    7.2756  -20.9438 C   0  0  0  0  0  0  0  0  0  0  0  0
  1  2  1  0
  2  3  1  0
  3  4  1  0
  4  5  1  0
  5  6  1  0
  6  7  1  0
  7  8  2  0
  7  9  1  0
  9 10  1  0
 11 10  1  6
 11 12  1  0
 12 13  1  0
 13 14  1  0
 14 15  2  0
 14 16  1  0
 16 17  1  0
 17 18  1  0
 18 19  1  0
 16 20  1  0
 20 21  1  1
 21 22  1  0
 22 23  2  0
 23 24  1  0
 24 25  1  0
 24 26  1  0
  6 27  1  0
 27 28  1  0
 28 29  1  0
 29 30  1  0
  5 31  1  0
 31 32  1  0
 32  2  1  0
 30  6  1  0
 20 11  1  0
 26 21  2  0
 19 17  1  0
M  END
>  <energy_score>  (1140) 
-50.192558

>  <alias>  (1140) 
None

>  <HIPPO Pose ID>  (1140) 
70755

>  <smiles>  (1140) 
CN1CCN(C2(C(=O)NC[C@@H]3CCC(=O)N(C4CC4)[C@H]3c3cnn(C)c3)CCCC2)CC1

>  <inchikey>  (1140) 
DIFBKTLRHKDVQX-PGRDOPGGSA-N

>  <distance_score>  (1140) 
1.90755

>  <ref_mols>  (1140) 
Z0701a,Z0719a

>  <ref_pdb>  (1140) 
Z0719a

>  <HIPPO Compound ID>  (1140) 
143478

>  <name>  (1140) 
P70755

>  <inspiration_score>  (1140) 
None

$$$$
P70757
     RDKit          3D

 32 35  0  0  0  0  0  0  0  0999 V2000
   -5.9688    4.9313  -10.7461 C   0  0  0  0  0  0  0  0  0  0  0  0
   -5.5407    3.4867  -10.5179 C   0  0  0  0  0  0  0  0  0  0  0  0
   -4.7551    2.8233  -11.6757 C   0  0  1  0  0  0  0  0  0  0  0  0
   -5.7877    2.4608  -12.7974 C   0  0  0  0  0  0  0  0  0  0  0  0
   -6.3448    1.4351  -12.8402 O   0  0  0  0  0  0  0  0  0  0  0  0
   -5.8697    3.6890  -13.7415 N   0  0  0  0  0  0  0  0  0  0  0  0
   -6.5750    3.8680  -14.9714 C   0  0  0  0  0  0  0  0  0  0  0  0
   -7.0901    5.2747  -15.2301 C   0  0  2  0  0  0  0  0  0  0  0  0
   -8.5559    5.2138  -15.6328 C   0  0  0  0  0  0  0  0  0  0  0  0
   -8.7512    4.5114  -16.9542 C   0  0  0  0  0  0  0  0  0  0  0  0
   -7.6460    4.6909  -17.9635 C   0  0  0  0  0  0  0  0  0  0  0  0
   -7.7417    4.0882  -19.0285 O   0  0  0  0  0  0  0  0  0  0  0  0
   -6.5827    5.5665  -17.7011 N   0  0  0  0  0  0  0  0  0  0  0  0
   -6.3236    6.5002  -18.7953 C   0  0  0  0  0  0  0  0  0  0  0  0
   -5.2032    6.3276  -19.7739 C   0  0  0  0  0  0  0  0  0  0  0  0
   -5.2021    7.5076  -18.8559 C   0  0  0  0  0  0  0  0  0  0  0  0
   -6.3368    6.0389  -16.3361 C   0  0  2  0  0  0  0  0  0  0  0  0
   -4.8815    6.2369  -15.9589 C   0  0  0  0  0  0  0  0  0  0  0  0
   -4.4987    7.2214  -15.1581 N   0  0  0  0  0  0  0  0  0  0  0  0
   -3.1519    7.0924  -14.9809 C   0  0  0  0  0  0  0  0  0  0  0  0
   -2.6811    6.0272  -15.6990 C   0  0  0  0  0  0  0  0  0  0  0  0
   -3.7827    5.4900  -16.3184 N   0  0  0  0  0  0  0  0  0  0  0  0
   -3.6907    4.3398  -17.1744 C   0  0  0  0  0  0  0  0  0  0  0  0
   -3.6102    3.6455  -12.2288 N   0  0  0  0  0  0  0  0  0  0  0  0
   -2.9313    2.9336  -13.3431 C   0  0  0  0  0  0  0  0  0  0  0  0
   -2.2642    1.5962  -12.9599 C   0  0  0  0  0  0  0  0  0  0  0  0
   -1.7200    1.5819  -11.6053 N   0  0  0  0  0  0  0  0  0  0  0  0
   -0.7859    0.4901  -11.3376 C   0  0  0  0  0  0  0  0  0  0  0  0
    0.5963    0.5479  -12.0142 C   0  0  0  0  0  0  0  0  0  0  0  0
    0.5389    0.1728  -13.3921 O   0  0  0  0  0  0  0  0  0  0  0  0
   -1.3611    2.9062  -11.1257 C   0  0  0  0  0  0  0  0  0  0  0  0
   -2.5661    3.9004  -11.1933 C   0  0  0  0  0  0  0  0  0  0  0  0
  1  2  1  0
  3  2  1  1
  3  4  1  0
  4  5  2  0
  4  6  1  0
  6  7  1  0
  8  7  1  6
  8  9  1  0
  9 10  1  0
 10 11  1  0
 11 12  2  0
 11 13  1  0
 13 14  1  0
 14 15  1  0
 15 16  1  0
 13 17  1  0
 17 18  1  1
 18 19  2  0
 19 20  1  0
 20 21  2  0
 21 22  1  0
 22 23  1  0
  3 24  1  0
 24 25  1  0
 25 26  1  0
 26 27  1  0
 27 28  1  0
 28 29  1  0
 29 30  1  0
 27 31  1  0
 31 32  1  0
 17  8  1  0
 22 18  1  0
 32 24  1  0
 16 14  1  0
M  END
>  <energy_score>  (1141) 
-95.39057

>  <alias>  (1141) 
None

>  <HIPPO Pose ID>  (1141) 
70757

>  <smiles>  (1141) 
CC[C@@H](C(=O)NC[C@@H]1CCC(=O)N(C2CC2)[C@@H]1c1nccn1C)N1CCN(CCO)CC1

>  <inchikey>  (1141) 
VRCFMUMWGDFSSQ-CUWPLCDZSA-N

>  <distance_score>  (1141) 
1.878283

>  <ref_mols>  (1141) 
Z0701a,Z0719a

>  <ref_pdb>  (1141) 
Z0719a

>  <HIPPO Compound ID>  (1141) 
143483

>  <name>  (1141) 
P70757

>  <inspiration_score>  (1141) 
None

$$$$
P70759
     RDKit          3D

 25 27  0  0  0  0  0  0  0  0999 V2000
   -3.0127    7.4931  -24.7980 C   0  0  0  0  0  0  0  0  0  0  0  0
   -4.4243    7.5325  -24.2425 C   0  0  0  0  0  0  0  0  0  0  0  0
   -4.6786    8.8839  -23.1268 S   0  0  0  0  0  0  0  0  0  0  0  0
   -6.0660    8.9532  -22.7224 O   0  0  0  0  0  0  0  0  0  0  0  0
   -4.1166   10.0626  -23.7737 O   0  0  0  0  0  0  0  0  0  0  0  0
   -3.6531    8.5896  -21.7071 C   0  0  0  0  0  0  0  0  0  0  0  0
   -2.4241    9.2588  -21.6537 C   0  0  0  0  0  0  0  0  0  0  0  0
   -1.6671    9.2434  -20.4792 C   0  0  0  0  0  0  0  0  0  0  0  0
   -2.1563    8.5834  -19.3763 C   0  0  0  0  0  0  0  0  0  0  0  0
   -3.3075    7.9057  -19.3997 N   0  0  0  0  0  0  0  0  0  0  0  0
   -4.0351    7.8941  -20.5676 C   0  0  0  0  0  0  0  0  0  0  0  0
   -5.1860    6.9530  -20.4657 C   0  0  0  0  0  0  0  0  0  0  0  0
   -5.8357    6.7285  -21.4072 O   0  0  0  0  0  0  0  0  0  0  0  0
   -5.2759    6.3847  -19.0204 N   0  0  0  0  0  0  0  0  0  0  0  0
   -6.2153    5.5233  -18.4391 C   0  0  0  0  0  0  0  0  0  0  0  0
   -7.0334    4.7782  -19.2648 C   0  0  0  0  0  0  0  0  0  0  0  0
   -8.1873    4.1880  -18.7690 C   0  0  0  0  0  0  0  0  0  0  0  0
   -8.4678    4.2511  -17.4149 C   0  0  0  0  0  0  0  0  0  0  0  0
   -7.5707    4.8178  -16.5367 C   0  0  0  0  0  0  0  0  0  0  0  0
   -7.8695    4.7405  -15.2338 N   0  0  0  0  0  0  0  0  0  0  0  0
   -6.9787    5.1916  -14.3336 C   0  0  0  0  0  0  0  0  0  0  0  0
   -7.3157    4.9706  -12.8912 C   0  0  0  0  0  0  0  0  0  0  0  0
   -5.7981    5.8123  -14.7139 C   0  0  0  0  0  0  0  0  0  0  0  0
   -5.5222    5.9624  -16.0758 C   0  0  0  0  0  0  0  0  0  0  0  0
   -6.4063    5.4465  -17.0376 C   0  0  0  0  0  0  0  0  0  0  0  0
  1  2  1  0
  2  3  1  0
  3  4  2  0
  3  5  2  0
  3  6  1  0
  6  7  2  0
  7  8  1  0
  8  9  2  0
  9 10  1  0
 10 11  2  0
 11 12  1  0
 12 13  2  0
 12 14  1  0
 14 15  1  0
 15 16  2  0
 16 17  1  0
 17 18  2  0
 18 19  1  0
 19 20  2  0
 20 21  1  0
 21 22  1  0
 21 23  2  0
 23 24  1  0
 24 25  2  0
 11  6  1  0
 25 15  1  0
 25 19  1  0
M  END
>  <energy_score>  (1142) 
-19.341935

>  <alias>  (1142) 
None

>  <HIPPO Pose ID>  (1142) 
70759

>  <smiles>  (1142) 
CCS(=O)(=O)c1cccnc1C(=O)Nc1cccc2nc(C)ccc12

>  <inchikey>  (1142) 
SXNUZOYPJQSWOE-UHFFFAOYSA-N

>  <distance_score>  (1142) 
1.765622

>  <ref_mols>  (1142) 
Z2971a,Z1719a

>  <ref_pdb>  (1142) 
Z2971a

>  <HIPPO Compound ID>  (1142) 
143604

>  <name>  (1142) 
P70759

>  <inspiration_score>  (1142) 
None

$$$$
P70760
     RDKit          3D

 25 27  0  0  0  0  0  0  0  0999 V2000
   -2.5593    8.7196  -24.9724 C   0  0  0  0  0  0  0  0  0  0  0  0
   -3.9179    8.7392  -24.3024 C   0  0  0  0  0  0  0  0  0  0  0  0
   -4.0597    7.6135  -22.9367 S   0  0  0  0  0  0  0  0  0  0  0  0
   -5.4875    7.5179  -22.7013 O   0  0  0  0  0  0  0  0  0  0  0  0
   -3.2004    6.4911  -23.2522 O   0  0  0  0  0  0  0  0  0  0  0  0
   -3.3758    8.3619  -21.4893 C   0  0  0  0  0  0  0  0  0  0  0  0
   -2.7205    9.5853  -21.5465 C   0  0  0  0  0  0  0  0  0  0  0  0
   -2.3635   10.2182  -20.3515 C   0  0  0  0  0  0  0  0  0  0  0  0
   -2.7022    9.6473  -19.1412 C   0  0  0  0  0  0  0  0  0  0  0  0
   -3.3202    8.4681  -19.0507 N   0  0  0  0  0  0  0  0  0  0  0  0
   -3.5914    7.8154  -20.2221 C   0  0  0  0  0  0  0  0  0  0  0  0
   -4.1414    6.4589  -19.9696 C   0  0  0  0  0  0  0  0  0  0  0  0
   -3.8680    5.5784  -20.6801 O   0  0  0  0  0  0  0  0  0  0  0  0
   -5.1179    6.5146  -18.7740 N   0  0  0  0  0  0  0  0  0  0  0  0
   -6.0016    5.5553  -18.2815 C   0  0  0  0  0  0  0  0  0  0  0  0
   -6.6973    4.7979  -19.2149 C   0  0  0  0  0  0  0  0  0  0  0  0
   -7.8811    4.1537  -18.8548 C   0  0  0  0  0  0  0  0  0  0  0  0
   -8.3139    4.1484  -17.5371 C   0  0  0  0  0  0  0  0  0  0  0  0
   -7.5303    4.7651  -16.5737 C   0  0  0  0  0  0  0  0  0  0  0  0
   -7.8882    4.6317  -15.2247 N   0  0  0  0  0  0  0  0  0  0  0  0
   -7.1612    5.1668  -14.2028 C   0  0  0  0  0  0  0  0  0  0  0  0
   -7.4636    5.0237  -13.0229 O   0  0  0  0  0  0  0  0  0  0  0  0
   -5.9729    5.9708  -14.5871 C   0  0  0  0  0  0  0  0  0  0  0  0
   -5.6165    6.1403  -15.8691 C   0  0  0  0  0  0  0  0  0  0  0  0
   -6.3901    5.5074  -16.9365 C   0  0  0  0  0  0  0  0  0  0  0  0
  1  2  1  0
  2  3  1  0
  3  4  2  0
  3  5  2  0
  3  6  1  0
  6  7  2  0
  7  8  1  0
  8  9  2  0
  9 10  1  0
 10 11  2  0
 11 12  1  0
 12 13  2  0
 12 14  1  0
 14 15  1  0
 15 16  2  0
 16 17  1  0
 17 18  2  0
 18 19  1  0
 19 20  1  0
 20 21  1  0
 21 22  2  0
 21 23  1  0
 23 24  2  0
 24 25  1  0
 11  6  1  0
 25 15  1  0
 25 19  2  0
M  END
>  <energy_score>  (1143) 
-55.654905

>  <alias>  (1143) 
None

>  <HIPPO Pose ID>  (1143) 
70760

>  <smiles>  (1143) 
CCS(=O)(=O)c1cccnc1C(=O)Nc1cccc2[nH]c(=O)ccc12

>  <inchikey>  (1143) 
PAFHBIONUISZHX-UHFFFAOYSA-N

>  <distance_score>  (1143) 
1.827223

>  <ref_mols>  (1143) 
Z2971a,Z1719a

>  <ref_pdb>  (1143) 
Z2971a

>  <HIPPO Compound ID>  (1143) 
143605

>  <name>  (1143) 
P70760

>  <inspiration_score>  (1143) 
None

$$$$
P70761
     RDKit          3D

 25 27  0  0  0  0  0  0  0  0999 V2000
   -2.4774    8.3693  -25.2038 C   0  0  0  0  0  0  0  0  0  0  0  0
   -3.7504    8.9862  -24.6624 C   0  0  0  0  0  0  0  0  0  0  0  0
   -4.5173    8.0461  -23.3731 S   0  0  0  0  0  0  0  0  0  0  0  0
   -5.8228    8.6595  -23.2184 O   0  0  0  0  0  0  0  0  0  0  0  0
   -4.3055    6.6620  -23.7405 O   0  0  0  0  0  0  0  0  0  0  0  0
   -3.6223    8.3139  -21.8655 C   0  0  0  0  0  0  0  0  0  0  0  0
   -2.4749    9.1067  -21.8297 C   0  0  0  0  0  0  0  0  0  0  0  0
   -1.8012    9.3006  -20.6171 C   0  0  0  0  0  0  0  0  0  0  0  0
   -2.2843    8.7150  -19.4685 C   0  0  0  0  0  0  0  0  0  0  0  0
   -3.3696    7.9382  -19.4654 N   0  0  0  0  0  0  0  0  0  0  0  0
   -4.0260    7.7406  -20.6599 C   0  0  0  0  0  0  0  0  0  0  0  0
   -5.2161    6.8600  -20.4786 C   0  0  0  0  0  0  0  0  0  0  0  0
   -5.9949    6.7632  -21.3362 O   0  0  0  0  0  0  0  0  0  0  0  0
   -5.1919    6.2204  -19.0688 N   0  0  0  0  0  0  0  0  0  0  0  0
   -6.1418    5.4308  -18.4145 C   0  0  0  0  0  0  0  0  0  0  0  0
   -7.0527    4.7403  -19.1946 C   0  0  0  0  0  0  0  0  0  0  0  0
   -8.1944    4.1974  -18.6312 C   0  0  0  0  0  0  0  0  0  0  0  0
   -8.3729    4.2690  -17.2615 C   0  0  0  0  0  0  0  0  0  0  0  0
   -9.4999    3.7529  -16.7487 F   0  0  0  0  0  0  0  0  0  0  0  0
   -7.4141    4.8185  -16.4183 C   0  0  0  0  0  0  0  0  0  0  0  0
   -7.6177    4.8117  -15.0821 N   0  0  0  0  0  0  0  0  0  0  0  0
   -6.6609    5.3046  -14.2795 C   0  0  0  0  0  0  0  0  0  0  0  0
   -5.4917    5.8621  -14.7492 C   0  0  0  0  0  0  0  0  0  0  0  0
   -5.2967    5.9210  -16.1268 C   0  0  0  0  0  0  0  0  0  0  0  0
   -6.2574    5.3906  -17.0052 C   0  0  0  0  0  0  0  0  0  0  0  0
  1  2  1  0
  2  3  1  0
  3  4  2  0
  3  5  2  0
  3  6  1  0
  6  7  2  0
  7  8  1  0
  8  9  2  0
  9 10  1  0
 10 11  2  0
 11 12  1  0
 12 13  2  0
 12 14  1  0
 14 15  1  0
 15 16  2  0
 16 17  1  0
 17 18  2  0
 18 19  1  0
 18 20  1  0
 20 21  2  0
 21 22  1  0
 22 23  2  0
 23 24  1  0
 24 25  2  0
 11  6  1  0
 25 15  1  0
 25 20  1  0
M  END
>  <energy_score>  (1144) 
-36.757647

>  <alias>  (1144) 
None

>  <HIPPO Pose ID>  (1144) 
70761

>  <smiles>  (1144) 
CCS(=O)(=O)c1cccnc1C(=O)Nc1ccc(F)c2ncccc12

>  <inchikey>  (1144) 
PJJSTQUUNHNXJN-UHFFFAOYSA-N

>  <distance_score>  (1144) 
1.79884

>  <ref_mols>  (1144) 
Z2971a,Z1719a

>  <ref_pdb>  (1144) 
Z2971a

>  <HIPPO Compound ID>  (1144) 
143606

>  <name>  (1144) 
P70761

>  <inspiration_score>  (1144) 
None

$$$$
P70762
     RDKit          3D

 25 27  0  0  0  0  0  0  0  0999 V2000
   -2.6034    8.5815  -24.8339 C   0  0  0  0  0  0  0  0  0  0  0  0
   -3.9710    8.6250  -24.1822 C   0  0  0  0  0  0  0  0  0  0  0  0
   -4.1649    7.4920  -22.8246 S   0  0  0  0  0  0  0  0  0  0  0  0
   -5.6012    7.3727  -22.6762 O   0  0  0  0  0  0  0  0  0  0  0  0
   -3.2505    6.3973  -23.0725 O   0  0  0  0  0  0  0  0  0  0  0  0
   -3.5865    8.2473  -21.3451 C   0  0  0  0  0  0  0  0  0  0  0  0
   -2.8538    9.4302  -21.3920 C   0  0  0  0  0  0  0  0  0  0  0  0
   -2.5443   10.0866  -20.1996 C   0  0  0  0  0  0  0  0  0  0  0  0
   -3.0182    9.5871  -19.0056 C   0  0  0  0  0  0  0  0  0  0  0  0
   -3.7188    8.4524  -18.9267 N   0  0  0  0  0  0  0  0  0  0  0  0
   -3.9341    7.7529  -20.0874 C   0  0  0  0  0  0  0  0  0  0  0  0
   -4.4808    6.3886  -19.7730 C   0  0  0  0  0  0  0  0  0  0  0  0
   -4.1424    5.4500  -20.3741 O   0  0  0  0  0  0  0  0  0  0  0  0
   -5.4729    6.5194  -18.5891 N   0  0  0  0  0  0  0  0  0  0  0  0
   -6.3063    5.5536  -17.9780 C   0  0  0  0  0  0  0  0  0  0  0  0
   -7.1095    4.6528  -18.6693 C   0  0  0  0  0  0  0  0  0  0  0  0
   -6.7928    4.0661  -20.2148 Cl  0  0  0  0  0  0  0  0  0  0  0  0
   -8.2730    4.1466  -18.0898 C   0  0  0  0  0  0  0  0  0  0  0  0
   -8.5602    4.3960  -16.7596 C   0  0  0  0  0  0  0  0  0  0  0  0
   -7.6777    5.1071  -15.9822 C   0  0  0  0  0  0  0  0  0  0  0  0
   -7.9447    5.2115  -14.6725 N   0  0  0  0  0  0  0  0  0  0  0  0
   -7.0425    5.8347  -13.8947 C   0  0  0  0  0  0  0  0  0  0  0  0
   -5.8926    6.4242  -14.3794 C   0  0  0  0  0  0  0  0  0  0  0  0
   -5.6552    6.3760  -15.7489 C   0  0  0  0  0  0  0  0  0  0  0  0
   -6.5463    5.6999  -16.5937 C   0  0  0  0  0  0  0  0  0  0  0  0
  1  2  1  0
  2  3  1  0
  3  4  2  0
  3  5  2  0
  3  6  1  0
  6  7  2  0
  7  8  1  0
  8  9  2  0
  9 10  1  0
 10 11  2  0
 11 12  1  0
 12 13  2  0
 12 14  1  0
 14 15  1  0
 15 16  2  0
 16 17  1  0
 16 18  1  0
 18 19  2  0
 19 20  1  0
 20 21  2  0
 21 22  1  0
 22 23  2  0
 23 24  1  0
 24 25  2  0
 11  6  1  0
 25 15  1  0
 25 20  1  0
M  END
>  <energy_score>  (1145) 
-17.698457

>  <alias>  (1145) 
None

>  <HIPPO Pose ID>  (1145) 
70762

>  <smiles>  (1145) 
CCS(=O)(=O)c1cccnc1C(=O)Nc1c(Cl)ccc2ncccc12

>  <inchikey>  (1145) 
GWRGCYUOIMADDJ-UHFFFAOYSA-N

>  <distance_score>  (1145) 
1.879709

>  <ref_mols>  (1145) 
Z2971a,Z1719a

>  <ref_pdb>  (1145) 
Z2971a

>  <HIPPO Compound ID>  (1145) 
143609

>  <name>  (1145) 
P70762

>  <inspiration_score>  (1145) 
None

$$$$
P70763
     RDKit          3D

 25 27  0  0  0  0  0  0  0  0999 V2000
   -3.6760    8.1628  -25.6434 C   0  0  0  0  0  0  0  0  0  0  0  0
   -3.3874    8.7646  -24.2899 C   0  0  0  0  0  0  0  0  0  0  0  0
   -3.7141    7.6157  -22.9748 S   0  0  0  0  0  0  0  0  0  0  0  0
   -5.1573    7.5451  -22.8601 O   0  0  0  0  0  0  0  0  0  0  0  0
   -2.8454    6.4833  -23.2269 O   0  0  0  0  0  0  0  0  0  0  0  0
   -3.1220    8.3531  -21.4848 C   0  0  0  0  0  0  0  0  0  0  0  0
   -2.5809    9.6345  -21.4829 C   0  0  0  0  0  0  0  0  0  0  0  0
   -2.2783   10.2447  -20.2618 C   0  0  0  0  0  0  0  0  0  0  0  0
   -2.5421    9.5846  -19.0811 C   0  0  0  0  0  0  0  0  0  0  0  0
   -3.0434    8.3485  -19.0497 N   0  0  0  0  0  0  0  0  0  0  0  0
   -3.2765    7.7293  -20.2502 C   0  0  0  0  0  0  0  0  0  0  0  0
   -3.8370    6.3661  -20.0520 C   0  0  0  0  0  0  0  0  0  0  0  0
   -3.5971    5.4926  -20.7829 O   0  0  0  0  0  0  0  0  0  0  0  0
   -4.7937    6.4240  -18.8413 N   0  0  0  0  0  0  0  0  0  0  0  0
   -5.6936    5.4801  -18.3541 C   0  0  0  0  0  0  0  0  0  0  0  0
   -6.3965    4.7490  -19.2933 C   0  0  0  0  0  0  0  0  0  0  0  0
   -7.6479    4.2581  -18.9703 C   0  0  0  0  0  0  0  0  0  0  0  0
   -8.1606    4.4507  -17.6953 C   0  0  0  0  0  0  0  0  0  0  0  0
   -9.8182    4.0711  -17.4734 Cl  0  0  0  0  0  0  0  0  0  0  0  0
   -7.3990    5.0013  -16.6647 C   0  0  0  0  0  0  0  0  0  0  0  0
   -7.8610    5.0711  -15.3895 N   0  0  0  0  0  0  0  0  0  0  0  0
   -7.0584    5.5644  -14.4301 C   0  0  0  0  0  0  0  0  0  0  0  0
   -5.8054    6.0786  -14.6815 C   0  0  0  0  0  0  0  0  0  0  0  0
   -5.3529    6.0827  -15.9963 C   0  0  0  0  0  0  0  0  0  0  0  0
   -6.1372    5.5276  -17.0171 C   0  0  0  0  0  0  0  0  0  0  0  0
  1  2  1  0
  2  3  1  0
  3  4  2  0
  3  5  2  0
  3  6  1  0
  6  7  2  0
  7  8  1  0
  8  9  2  0
  9 10  1  0
 10 11  2  0
 11 12  1  0
 12 13  2  0
 12 14  1  0
 14 15  1  0
 15 16  2  0
 16 17  1  0
 17 18  2  0
 18 19  1  0
 18 20  1  0
 20 21  2  0
 21 22  1  0
 22 23  2  0
 23 24  1  0
 24 25  2  0
 11  6  1  0
 25 15  1  0
 25 20  1  0
M  END
>  <energy_score>  (1146) 
-22.914468

>  <alias>  (1146) 
None

>  <HIPPO Pose ID>  (1146) 
70763

>  <smiles>  (1146) 
CCS(=O)(=O)c1cccnc1C(=O)Nc1ccc(Cl)c2ncccc12

>  <inchikey>  (1146) 
CAWJZPXEHAKBHZ-UHFFFAOYSA-N

>  <distance_score>  (1146) 
1.876064

>  <ref_mols>  (1146) 
Z2971a,Z1719a

>  <ref_pdb>  (1146) 
Z2971a

>  <HIPPO Compound ID>  (1146) 
143611

>  <name>  (1146) 
P70763

>  <inspiration_score>  (1146) 
None

$$$$
P70764
     RDKit          3D

 25 27  0  0  0  0  0  0  0  0999 V2000
   -2.9686    7.5020  -24.8815 C   0  0  0  0  0  0  0  0  0  0  0  0
   -4.3832    7.5631  -24.3360 C   0  0  0  0  0  0  0  0  0  0  0  0
   -4.6329    8.9491  -23.2608 S   0  0  0  0  0  0  0  0  0  0  0  0
   -6.0108    9.0171  -22.8228 O   0  0  0  0  0  0  0  0  0  0  0  0
   -4.0992   10.1112  -23.9596 O   0  0  0  0  0  0  0  0  0  0  0  0
   -3.5730    8.7125  -21.8574 C   0  0  0  0  0  0  0  0  0  0  0  0
   -2.3771    9.4373  -21.8150 C   0  0  0  0  0  0  0  0  0  0  0  0
   -1.6009    9.4436  -20.6521 C   0  0  0  0  0  0  0  0  0  0  0  0
   -2.0352    8.7440  -19.5510 C   0  0  0  0  0  0  0  0  0  0  0  0
   -3.1510    8.0113  -19.5672 N   0  0  0  0  0  0  0  0  0  0  0  0
   -3.8995    7.9871  -20.7228 C   0  0  0  0  0  0  0  0  0  0  0  0
   -5.0195    7.0155  -20.6095 C   0  0  0  0  0  0  0  0  0  0  0  0
   -5.7046    6.7989  -21.5262 O   0  0  0  0  0  0  0  0  0  0  0  0
   -5.0450    6.4271  -19.1741 N   0  0  0  0  0  0  0  0  0  0  0  0
   -5.9490    5.5519  -18.5697 C   0  0  0  0  0  0  0  0  0  0  0  0
   -6.7871    4.8241  -19.3840 C   0  0  0  0  0  0  0  0  0  0  0  0
   -7.9602    4.3070  -18.8769 C   0  0  0  0  0  0  0  0  0  0  0  0
   -8.2657    4.4652  -17.5307 C   0  0  0  0  0  0  0  0  0  0  0  0
   -9.6624    4.1648  -17.1038 C   0  0  0  0  0  0  0  0  0  0  0  0
   -7.3307    4.9872  -16.6423 C   0  0  0  0  0  0  0  0  0  0  0  0
   -7.6117    5.0168  -15.3216 N   0  0  0  0  0  0  0  0  0  0  0  0
   -6.6763    5.4670  -14.4697 C   0  0  0  0  0  0  0  0  0  0  0  0
   -5.4590    5.9661  -14.8775 C   0  0  0  0  0  0  0  0  0  0  0  0
   -5.1926    6.0106  -16.2435 C   0  0  0  0  0  0  0  0  0  0  0  0
   -6.1266    5.5109  -17.1676 C   0  0  0  0  0  0  0  0  0  0  0  0
  1  2  1  0
  2  3  1  0
  3  4  2  0
  3  5  2  0
  3  6  1  0
  6  7  2  0
  7  8  1  0
  8  9  2  0
  9 10  1  0
 10 11  2  0
 11 12  1  0
 12 13  2  0
 12 14  1  0
 14 15  1  0
 15 16  2  0
 16 17  1  0
 17 18  2  0
 18 19  1  0
 18 20  1  0
 20 21  2  0
 21 22  1  0
 22 23  2  0
 23 24  1  0
 24 25  2  0
 11  6  1  0
 25 15  1  0
 25 20  1  0
M  END
>  <energy_score>  (1147) 
-58.51746

>  <alias>  (1147) 
None

>  <HIPPO Pose ID>  (1147) 
70764

>  <smiles>  (1147) 
CCS(=O)(=O)c1cccnc1C(=O)Nc1ccc(C)c2ncccc12

>  <inchikey>  (1147) 
IEBUBMZEUQNMNL-UHFFFAOYSA-N

>  <distance_score>  (1147) 
1.883901

>  <ref_mols>  (1147) 
Z2971a,Z1719a

>  <ref_pdb>  (1147) 
Z2971a

>  <HIPPO Compound ID>  (1147) 
143614

>  <name>  (1147) 
P70764

>  <inspiration_score>  (1147) 
None

$$$$
P70765
     RDKit          3D

 25 27  0  0  0  0  0  0  0  0999 V2000
   -2.5639    8.0391  -24.7859 C   0  0  0  0  0  0  0  0  0  0  0  0
   -3.8411    7.5328  -24.1477 C   0  0  0  0  0  0  0  0  0  0  0  0
   -4.5390    8.6773  -22.9906 S   0  0  0  0  0  0  0  0  0  0  0  0
   -5.7685    8.1457  -22.4424 O   0  0  0  0  0  0  0  0  0  0  0  0
   -4.6042    9.9679  -23.6622 O   0  0  0  0  0  0  0  0  0  0  0  0
   -3.3779    8.8980  -21.6616 C   0  0  0  0  0  0  0  0  0  0  0  0
   -2.5519   10.0159  -21.6834 C   0  0  0  0  0  0  0  0  0  0  0  0
   -1.8860   10.3963  -20.5132 C   0  0  0  0  0  0  0  0  0  0  0  0
   -2.0832    9.6843  -19.3466 C   0  0  0  0  0  0  0  0  0  0  0  0
   -2.8440    8.5901  -19.2940 N   0  0  0  0  0  0  0  0  0  0  0  0
   -3.4373    8.2021  -20.4618 C   0  0  0  0  0  0  0  0  0  0  0  0
   -4.0567    6.8832  -20.3328 C   0  0  0  0  0  0  0  0  0  0  0  0
   -4.0286    6.1623  -21.2473 O   0  0  0  0  0  0  0  0  0  0  0  0
   -4.7506    6.7337  -18.9599 N   0  0  0  0  0  0  0  0  0  0  0  0
   -5.6063    5.7384  -18.4789 C   0  0  0  0  0  0  0  0  0  0  0  0
   -6.3033    4.9905  -19.4059 C   0  0  0  0  0  0  0  0  0  0  0  0
   -7.4861    4.3766  -19.0473 C   0  0  0  0  0  0  0  0  0  0  0  0
   -7.9652    4.5226  -17.7574 C   0  0  0  0  0  0  0  0  0  0  0  0
   -9.7761    4.0975  -17.5063 Br  0  0  0  0  0  0  0  0  0  0  0  0
   -7.1978    5.0761  -16.7383 C   0  0  0  0  0  0  0  0  0  0  0  0
   -7.6237    5.0693  -15.4501 N   0  0  0  0  0  0  0  0  0  0  0  0
   -6.8190    5.5635  -14.4950 C   0  0  0  0  0  0  0  0  0  0  0  0
   -5.5986    6.1428  -14.7632 C   0  0  0  0  0  0  0  0  0  0  0  0
   -5.1876    6.2239  -16.0910 C   0  0  0  0  0  0  0  0  0  0  0  0
   -5.9781    5.6822  -17.1155 C   0  0  0  0  0  0  0  0  0  0  0  0
  1  2  1  0
  2  3  1  0
  3  4  2  0
  3  5  2  0
  3  6  1  0
  6  7  2  0
  7  8  1  0
  8  9  2  0
  9 10  1  0
 10 11  2  0
 11 12  1  0
 12 13  2  0
 12 14  1  0
 14 15  1  0
 15 16  2  0
 16 17  1  0
 17 18  2  0
 18 19  1  0
 18 20  1  0
 20 21  2  0
 21 22  1  0
 22 23  2  0
 23 24  1  0
 24 25  2  0
 11  6  1  0
 25 15  1  0
 25 20  1  0
M  END
>  <energy_score>  (1148) 
-22.72557

>  <alias>  (1148) 
None

>  <HIPPO Pose ID>  (1148) 
70765

>  <smiles>  (1148) 
CCS(=O)(=O)c1cccnc1C(=O)Nc1ccc(Br)c2ncccc12

>  <inchikey>  (1148) 
LIVMSUWTRSYUBE-UHFFFAOYSA-N

>  <distance_score>  (1148) 
1.964092

>  <ref_mols>  (1148) 
Z2971a,Z1719a

>  <ref_pdb>  (1148) 
Z2971a

>  <HIPPO Compound ID>  (1148) 
143615

>  <name>  (1148) 
P70765

>  <inspiration_score>  (1148) 
None

$$$$
P70766
     RDKit          3D

 25 27  0  0  0  0  0  0  0  0999 V2000
   -2.5574    8.6599  -24.9431 C   0  0  0  0  0  0  0  0  0  0  0  0
   -3.9287    8.6708  -24.2990 C   0  0  0  0  0  0  0  0  0  0  0  0
   -4.0906    7.5503  -22.9304 S   0  0  0  0  0  0  0  0  0  0  0  0
   -5.5217    7.4548  -22.7224 O   0  0  0  0  0  0  0  0  0  0  0  0
   -3.2133    6.4359  -23.2208 O   0  0  0  0  0  0  0  0  0  0  0  0
   -3.4385    8.3032  -21.4766 C   0  0  0  0  0  0  0  0  0  0  0  0
   -2.7924    9.5336  -21.5315 C   0  0  0  0  0  0  0  0  0  0  0  0
   -2.4509   10.1768  -20.3387 C   0  0  0  0  0  0  0  0  0  0  0  0
   -2.7978    9.6092  -19.1311 C   0  0  0  0  0  0  0  0  0  0  0  0
   -3.4073    8.4251  -19.0436 N   0  0  0  0  0  0  0  0  0  0  0  0
   -3.6636    7.7565  -20.2133 C   0  0  0  0  0  0  0  0  0  0  0  0
   -4.1849    6.3857  -19.9269 C   0  0  0  0  0  0  0  0  0  0  0  0
   -3.8903    5.4765  -20.5910 O   0  0  0  0  0  0  0  0  0  0  0  0
   -5.1781    6.4842  -18.7460 N   0  0  0  0  0  0  0  0  0  0  0  0
   -6.0603    5.5306  -18.2153 C   0  0  0  0  0  0  0  0  0  0  0  0
   -6.8072    4.7127  -19.0504 C   0  0  0  0  0  0  0  0  0  0  0  0
   -6.4813    4.5412  -20.3266 F   0  0  0  0  0  0  0  0  0  0  0  0
   -7.9983    4.1518  -18.6128 C   0  0  0  0  0  0  0  0  0  0  0  0
   -8.3936    4.2999  -17.2893 C   0  0  0  0  0  0  0  0  0  0  0  0
   -7.5905    4.9638  -16.3835 C   0  0  0  0  0  0  0  0  0  0  0  0
   -7.9719    4.9968  -15.0961 N   0  0  0  0  0  0  0  0  0  0  0  0
   -7.1509    5.5838  -14.2063 C   0  0  0  0  0  0  0  0  0  0  0  0
   -5.9691    6.2067  -14.5525 C   0  0  0  0  0  0  0  0  0  0  0  0
   -5.6083    6.2307  -15.8958 C   0  0  0  0  0  0  0  0  0  0  0  0
   -6.4126    5.5944  -16.8514 C   0  0  0  0  0  0  0  0  0  0  0  0
  1  2  1  0
  2  3  1  0
  3  4  2  0
  3  5  2  0
  3  6  1  0
  6  7  2  0
  7  8  1  0
  8  9  2  0
  9 10  1  0
 10 11  2  0
 11 12  1  0
 12 13  2  0
 12 14  1  0
 14 15  1  0
 15 16  2  0
 16 17  1  0
 16 18  1  0
 18 19  2  0
 19 20  1  0
 20 21  2  0
 21 22  1  0
 22 23  2  0
 23 24  1  0
 24 25  2  0
 11  6  1  0
 25 15  1  0
 25 20  1  0
M  END
>  <energy_score>  (1149) 
-25.685666

>  <alias>  (1149) 
None

>  <HIPPO Pose ID>  (1149) 
70766

>  <smiles>  (1149) 
CCS(=O)(=O)c1cccnc1C(=O)Nc1c(F)ccc2ncccc12

>  <inchikey>  (1149) 
DJKDPURBSIZMKQ-UHFFFAOYSA-N

>  <distance_score>  (1149) 
1.826396

>  <ref_mols>  (1149) 
Z2971a,Z1719a

>  <ref_pdb>  (1149) 
Z2971a

>  <HIPPO Compound ID>  (1149) 
143616

>  <name>  (1149) 
P70766

>  <inspiration_score>  (1149) 
None

$$$$
P70767
     RDKit          3D

 25 27  0  0  0  0  0  0  0  0999 V2000
   -2.9287    7.5502  -24.9326 C   0  0  0  0  0  0  0  0  0  0  0  0
   -4.3439    7.6033  -24.3887 C   0  0  0  0  0  0  0  0  0  0  0  0
   -4.6088    9.0005  -23.3303 S   0  0  0  0  0  0  0  0  0  0  0  0
   -5.9788    9.0386  -22.8639 O   0  0  0  0  0  0  0  0  0  0  0  0
   -4.1158   10.1648  -24.0542 O   0  0  0  0  0  0  0  0  0  0  0  0
   -3.5189    8.8106  -21.9438 C   0  0  0  0  0  0  0  0  0  0  0  0
   -2.3343    9.5520  -21.9305 C   0  0  0  0  0  0  0  0  0  0  0  0
   -1.5403    9.5833  -20.7793 C   0  0  0  0  0  0  0  0  0  0  0  0
   -1.9456    8.8921  -19.6615 C   0  0  0  0  0  0  0  0  0  0  0  0
   -3.0508    8.1447  -19.6496 N   0  0  0  0  0  0  0  0  0  0  0  0
   -3.8171    8.1013  -20.7934 C   0  0  0  0  0  0  0  0  0  0  0  0
   -4.9174    7.1152  -20.6567 C   0  0  0  0  0  0  0  0  0  0  0  0
   -5.5698    6.8282  -21.5771 O   0  0  0  0  0  0  0  0  0  0  0  0
   -4.9332    6.5711  -19.2064 N   0  0  0  0  0  0  0  0  0  0  0  0
   -5.7896    5.6620  -18.5916 C   0  0  0  0  0  0  0  0  0  0  0  0
   -6.6503    4.9446  -19.3949 C   0  0  0  0  0  0  0  0  0  0  0  0
   -7.7788    4.3714  -18.8563 C   0  0  0  0  0  0  0  0  0  0  0  0
   -8.0073    4.4808  -17.4967 C   0  0  0  0  0  0  0  0  0  0  0  0
   -9.6107    4.0347  -16.9338 S   0  0  0  0  0  0  0  0  0  0  0  0
   -7.0531    4.9936  -16.6222 C   0  0  0  0  0  0  0  0  0  0  0  0
   -7.2743    4.9619  -15.2836 N   0  0  0  0  0  0  0  0  0  0  0  0
   -6.3283    5.4336  -14.4581 C   0  0  0  0  0  0  0  0  0  0  0  0
   -5.1559    5.9993  -14.9062 C   0  0  0  0  0  0  0  0  0  0  0  0
   -4.9493    6.0891  -16.2818 C   0  0  0  0  0  0  0  0  0  0  0  0
   -5.8988    5.5762  -17.1829 C   0  0  0  0  0  0  0  0  0  0  0  0
  1  2  1  0
  2  3  1  0
  3  4  2  0
  3  5  2  0
  3  6  1  0
  6  7  2  0
  7  8  1  0
  8  9  2  0
  9 10  1  0
 10 11  2  0
 11 12  1  0
 12 13  2  0
 12 14  1  0
 14 15  1  0
 15 16  2  0
 16 17  1  0
 17 18  2  0
 18 19  1  0
 18 20  1  0
 20 21  2  0
 21 22  1  0
 22 23  2  0
 23 24  1  0
 24 25  2  0
 11  6  1  0
 25 15  1  0
 25 20  1  0
M  END
>  <energy_score>  (1150) 
-58.499956

>  <alias>  (1150) 
None

>  <HIPPO Pose ID>  (1150) 
70767

>  <smiles>  (1150) 
CCS(=O)(=O)c1cccnc1C(=O)Nc1ccc(S)c2ncccc12

>  <inchikey>  (1150) 
IXGDXRPSHMNCNB-UHFFFAOYSA-N

>  <distance_score>  (1150) 
1.893981

>  <ref_mols>  (1150) 
Z2971a,Z1719a

>  <ref_pdb>  (1150) 
Z2971a

>  <HIPPO Compound ID>  (1150) 
143618

>  <name>  (1150) 
P70767

>  <inspiration_score>  (1150) 
None

$$$$
P70768
     RDKit          3D

 25 27  0  0  0  0  0  0  0  0999 V2000
   -3.1521    7.4088  -24.7403 C   0  0  0  0  0  0  0  0  0  0  0  0
   -4.5412    7.4962  -24.1352 C   0  0  0  0  0  0  0  0  0  0  0  0
   -4.6990    8.8150  -22.9666 S   0  0  0  0  0  0  0  0  0  0  0  0
   -6.0775    8.9512  -22.5547 O   0  0  0  0  0  0  0  0  0  0  0  0
   -4.0755    9.9826  -23.5771 O   0  0  0  0  0  0  0  0  0  0  0  0
   -3.6720    8.4103  -21.5722 C   0  0  0  0  0  0  0  0  0  0  0  0
   -2.3732    8.9421  -21.5843 C   0  0  0  0  0  0  0  0  0  0  0  0
   -1.5702    8.8693  -20.4449 C   0  0  0  0  0  0  0  0  0  0  0  0
   -2.0802    8.2909  -19.3076 C   0  0  0  0  0  0  0  0  0  0  0  0
   -3.2995    7.7455  -19.2638 N   0  0  0  0  0  0  0  0  0  0  0  0
   -4.0807    7.7849  -20.3977 C   0  0  0  0  0  0  0  0  0  0  0  0
   -5.3323    6.9923  -20.1890 C   0  0  0  0  0  0  0  0  0  0  0  0
   -6.0716    6.8360  -21.0765 O   0  0  0  0  0  0  0  0  0  0  0  0
   -5.3927    6.4710  -18.7193 N   0  0  0  0  0  0  0  0  0  0  0  0
   -6.4075    5.7455  -18.0397 C   0  0  0  0  0  0  0  0  0  0  0  0
   -7.3414    4.9369  -18.6722 C   0  0  0  0  0  0  0  0  0  0  0  0
   -6.8895    3.9833  -20.1988 Br  0  0  0  0  0  0  0  0  0  0  0  0
   -8.4749    4.4468  -18.0308 C   0  0  0  0  0  0  0  0  0  0  0  0
   -8.5989    4.6130  -16.6683 C   0  0  0  0  0  0  0  0  0  0  0  0
   -7.5877    5.2053  -15.9478 C   0  0  0  0  0  0  0  0  0  0  0  0
   -7.7283    5.2029  -14.6164 N   0  0  0  0  0  0  0  0  0  0  0  0
   -6.7258    5.7003  -13.8754 C   0  0  0  0  0  0  0  0  0  0  0  0
   -5.5841    6.2540  -14.4144 C   0  0  0  0  0  0  0  0  0  0  0  0
   -5.4640    6.3073  -15.8012 C   0  0  0  0  0  0  0  0  0  0  0  0
   -6.4697    5.7710  -16.6237 C   0  0  0  0  0  0  0  0  0  0  0  0
  1  2  1  0
  2  3  1  0
  3  4  2  0
  3  5  2  0
  3  6  1  0
  6  7  2  0
  7  8  1  0
  8  9  2  0
  9 10  1  0
 10 11  2  0
 11 12  1  0
 12 13  2  0
 12 14  1  0
 14 15  1  0
 15 16  2  0
 16 17  1  0
 16 18  1  0
 18 19  2  0
 19 20  1  0
 20 21  2  0
 21 22  1  0
 22 23  2  0
 23 24  1  0
 24 25  2  0
 11  6  1  0
 25 15  1  0
 25 20  1  0
M  END
>  <energy_score>  (1151) 
-21.202341

>  <alias>  (1151) 
None

>  <HIPPO Pose ID>  (1151) 
70768

>  <smiles>  (1151) 
CCS(=O)(=O)c1cccnc1C(=O)Nc1c(Br)ccc2ncccc12

>  <inchikey>  (1151) 
XRWBUOJEDQZYNJ-UHFFFAOYSA-N

>  <distance_score>  (1151) 
1.836825

>  <ref_mols>  (1151) 
Z2971a,Z1719a

>  <ref_pdb>  (1151) 
Z2971a

>  <HIPPO Compound ID>  (1151) 
143619

>  <name>  (1151) 
P70768

>  <inspiration_score>  (1151) 
None

$$$$
P70770
     RDKit          3D

 26 28  0  0  0  0  0  0  0  0999 V2000
   -3.1757    7.3627  -24.9297 C   0  0  0  0  0  0  0  0  0  0  0  0
   -4.5707    7.4704  -24.3405 C   0  0  0  0  0  0  0  0  0  0  0  0
   -4.7239    8.8270  -23.2145 S   0  0  0  0  0  0  0  0  0  0  0  0
   -6.0803    8.9371  -22.7273 O   0  0  0  0  0  0  0  0  0  0  0  0
   -4.1683    9.9891  -23.8966 O   0  0  0  0  0  0  0  0  0  0  0  0
   -3.6197    8.4896  -21.8699 C   0  0  0  0  0  0  0  0  0  0  0  0
   -2.3840    9.1538  -21.8811 C   0  0  0  0  0  0  0  0  0  0  0  0
   -1.5315    9.0839  -20.7775 C   0  0  0  0  0  0  0  0  0  0  0  0
   -1.9194    8.3517  -19.6840 C   0  0  0  0  0  0  0  0  0  0  0  0
   -3.0666    7.6693  -19.6554 N   0  0  0  0  0  0  0  0  0  0  0  0
   -3.9137    7.7378  -20.7439 C   0  0  0  0  0  0  0  0  0  0  0  0
   -5.1267    6.8898  -20.5076 C   0  0  0  0  0  0  0  0  0  0  0  0
   -5.9490    6.7648  -21.3211 O   0  0  0  0  0  0  0  0  0  0  0  0
   -5.0418    6.3175  -19.0677 N   0  0  0  0  0  0  0  0  0  0  0  0
   -5.9755    5.5718  -18.3245 C   0  0  0  0  0  0  0  0  0  0  0  0
   -7.0249    4.8502  -18.8739 C   0  0  0  0  0  0  0  0  0  0  0  0
   -6.8791    3.9755  -20.3172 Cl  0  0  0  0  0  0  0  0  0  0  0  0
   -8.1364    4.5230  -18.1250 C   0  0  0  0  0  0  0  0  0  0  0  0
   -8.1278    4.7706  -16.7635 C   0  0  0  0  0  0  0  0  0  0  0  0
   -9.3587    4.5392  -15.9699 C   0  0  0  0  0  0  0  0  0  0  0  0
   -6.9989    5.2527  -16.1277 C   0  0  0  0  0  0  0  0  0  0  0  0
   -7.0264    5.3508  -14.7850 N   0  0  0  0  0  0  0  0  0  0  0  0
   -5.9292    5.7690  -14.1435 C   0  0  0  0  0  0  0  0  0  0  0  0
   -4.7847    6.1570  -14.7983 C   0  0  0  0  0  0  0  0  0  0  0  0
   -4.7747    6.1144  -16.1910 C   0  0  0  0  0  0  0  0  0  0  0  0
   -5.8936    5.6448  -16.9072 C   0  0  0  0  0  0  0  0  0  0  0  0
  1  2  1  0
  2  3  1  0
  3  4  2  0
  3  5  2  0
  3  6  1  0
  6  7  2  0
  7  8  1  0
  8  9  2  0
  9 10  1  0
 10 11  2  0
 11 12  1  0
 12 13  2  0
 12 14  1  0
 14 15  1  0
 15 16  2  0
 16 17  1  0
 16 18  1  0
 18 19  2  0
 19 20  1  0
 19 21  1  0
 21 22  2  0
 22 23  1  0
 23 24  2  0
 24 25  1  0
 25 26  2  0
 11  6  1  0
 26 15  1  0
 26 21  1  0
M  END
>  <energy_score>  (1152) 
-27.063939

>  <alias>  (1152) 
None

>  <HIPPO Pose ID>  (1152) 
70770

>  <smiles>  (1152) 
CCS(=O)(=O)c1cccnc1C(=O)Nc1c(Cl)cc(C)c2ncccc12

>  <inchikey>  (1152) 
IFXWCPVHKUMWQW-UHFFFAOYSA-N

>  <distance_score>  (1152) 
1.944462

>  <ref_mols>  (1152) 
Z2971a,Z1719a

>  <ref_pdb>  (1152) 
Z2971a

>  <HIPPO Compound ID>  (1152) 
143623

>  <name>  (1152) 
P70770

>  <inspiration_score>  (1152) 
None

$$$$
P70771
     RDKit          3D

 26 28  0  0  0  0  0  0  0  0999 V2000
  -10.4902    4.1614  -17.8125 C   0  0  0  0  0  0  0  0  0  0  0  0
   -9.4296    4.3436  -16.7406 C   0  0  0  0  0  0  0  0  0  0  0  0
   -8.0680    4.6612  -17.2924 C   0  0  0  0  0  0  0  0  0  0  0  0
   -7.8397    4.5951  -18.6623 C   0  0  0  0  0  0  0  0  0  0  0  0
   -6.6887    5.1179  -19.1823 C   0  0  0  0  0  0  0  0  0  0  0  0
   -5.7339    5.6668  -18.3536 C   0  0  0  0  0  0  0  0  0  0  0  0
   -4.7290    6.2796  -19.0678 N   0  0  0  0  0  0  0  0  0  0  0  0
   -4.8005    7.3220  -20.2141 C   0  0  0  0  0  0  0  0  0  0  0  0
   -5.7164    7.8768  -20.6743 O   0  0  0  0  0  0  0  0  0  0  0  0
   -3.4420    7.4736  -20.7809 C   0  0  0  0  0  0  0  0  0  0  0  0
   -2.5003    7.3026  -19.7885 N   0  0  0  0  0  0  0  0  0  0  0  0
   -1.2122    7.2580  -20.1283 C   0  0  0  0  0  0  0  0  0  0  0  0
   -0.8032    7.3496  -21.4348 C   0  0  0  0  0  0  0  0  0  0  0  0
   -1.7625    7.4889  -22.4420 C   0  0  0  0  0  0  0  0  0  0  0  0
   -3.1280    7.5700  -22.1287 C   0  0  0  0  0  0  0  0  0  0  0  0
   -4.2500    7.5109  -23.5118 S   0  0  0  0  0  0  0  0  0  0  0  0
   -5.6228    7.3203  -23.1145 O   0  0  0  0  0  0  0  0  0  0  0  0
   -3.6427    6.5701  -24.4407 O   0  0  0  0  0  0  0  0  0  0  0  0
   -4.1835    9.1108  -24.2659 C   0  0  0  0  0  0  0  0  0  0  0  0
   -2.8728    9.4289  -24.9509 C   0  0  0  0  0  0  0  0  0  0  0  0
   -5.8335    5.5363  -16.9596 C   0  0  0  0  0  0  0  0  0  0  0  0
   -4.8310    5.9222  -16.0519 C   0  0  0  0  0  0  0  0  0  0  0  0
   -5.0460    5.8009  -14.6831 C   0  0  0  0  0  0  0  0  0  0  0  0
   -6.2715    5.3349  -14.2557 C   0  0  0  0  0  0  0  0  0  0  0  0
   -7.2665    4.9917  -15.0907 N   0  0  0  0  0  0  0  0  0  0  0  0
   -7.0493    5.0528  -16.4204 C   0  0  0  0  0  0  0  0  0  0  0  0
  1  2  1  0
  2  3  1  0
  3  4  2  0
  4  5  1  0
  5  6  2  0
  6  7  1  0
  7  8  1  0
  8  9  2  0
  8 10  1  0
 10 11  2  0
 11 12  1  0
 12 13  2  0
 13 14  1  0
 14 15  2  0
 15 16  1  0
 16 17  2  0
 16 18  2  0
 16 19  1  0
 19 20  1  0
  6 21  1  0
 21 22  2  0
 22 23  1  0
 23 24  2  0
 24 25  1  0
 25 26  2  0
 26  3  1  0
 15 10  1  0
 26 21  1  0
M  END
>  <energy_score>  (1153) 
-7.488714

>  <alias>  (1153) 
None

>  <HIPPO Pose ID>  (1153) 
70771

>  <smiles>  (1153) 
CCc1ccc(NC(=O)c2ncccc2S(=O)(=O)CC)c2cccnc12

>  <inchikey>  (1153) 
BOHVJLCULGWGEU-UHFFFAOYSA-N

>  <distance_score>  (1153) 
1.32161

>  <ref_mols>  (1153) 
Z2971a,Z1719a

>  <ref_pdb>  (1153) 
Z2971a

>  <HIPPO Compound ID>  (1153) 
143627

>  <name>  (1153) 
P70771

>  <inspiration_score>  (1153) 
None

$$$$
P70772
     RDKit          3D

 26 28  0  0  0  0  0  0  0  0999 V2000
   -7.8935    3.7325  -19.8796 C   0  0  0  0  0  0  0  0  0  0  0  0
   -6.8436    4.6983  -19.4310 C   0  0  0  0  0  0  0  0  0  0  0  0
   -7.1426    5.3166  -18.0946 C   0  0  0  0  0  0  0  0  0  0  0  0
   -8.2799    4.9317  -17.3834 C   0  0  0  0  0  0  0  0  0  0  0  0
   -8.2565    4.9591  -16.0074 C   0  0  0  0  0  0  0  0  0  0  0  0
   -7.1226    5.3585  -15.3413 C   0  0  0  0  0  0  0  0  0  0  0  0
   -7.1422    5.2306  -14.0117 N   0  0  0  0  0  0  0  0  0  0  0  0
   -6.0344    5.5782  -13.3372 C   0  0  0  0  0  0  0  0  0  0  0  0
   -4.8958    6.0854  -13.9344 C   0  0  0  0  0  0  0  0  0  0  0  0
   -4.8872    6.2492  -15.3142 C   0  0  0  0  0  0  0  0  0  0  0  0
   -6.0104    5.8729  -16.0622 C   0  0  0  0  0  0  0  0  0  0  0  0
   -6.0860    5.9701  -17.4554 C   0  0  0  0  0  0  0  0  0  0  0  0
   -5.0717    6.4279  -18.3001 N   0  0  0  0  0  0  0  0  0  0  0  0
   -5.1372    7.3702  -19.5434 C   0  0  0  0  0  0  0  0  0  0  0  0
   -6.0360    7.9633  -19.9967 O   0  0  0  0  0  0  0  0  0  0  0  0
   -3.7946    7.3534  -20.2310 C   0  0  0  0  0  0  0  0  0  0  0  0
   -2.8321    6.8283  -19.3924 N   0  0  0  0  0  0  0  0  0  0  0  0
   -1.5993    6.6394  -19.8671 C   0  0  0  0  0  0  0  0  0  0  0  0
   -1.2643    6.9228  -21.1686 C   0  0  0  0  0  0  0  0  0  0  0  0
   -2.2399    7.4226  -22.0355 C   0  0  0  0  0  0  0  0  0  0  0  0
   -3.5411    7.6560  -21.5731 C   0  0  0  0  0  0  0  0  0  0  0  0
   -4.7737    8.3073  -22.6765 S   0  0  0  0  0  0  0  0  0  0  0  0
   -5.8943    7.3953  -22.7140 O   0  0  0  0  0  0  0  0  0  0  0  0
   -4.9298    9.7079  -22.3305 O   0  0  0  0  0  0  0  0  0  0  0  0
   -4.1266    8.2392  -24.3361 C   0  0  0  0  0  0  0  0  0  0  0  0
   -3.1887    9.3695  -24.7011 C   0  0  0  0  0  0  0  0  0  0  0  0
  1  2  1  0
  2  3  1  0
  3  4  2  0
  4  5  1  0
  5  6  2  0
  6  7  1  0
  7  8  2  0
  8  9  1  0
  9 10  2  0
 10 11  1  0
 11 12  2  0
 12 13  1  0
 13 14  1  0
 14 15  2  0
 14 16  1  0
 16 17  2  0
 17 18  1  0
 18 19  2  0
 19 20  1  0
 20 21  2  0
 21 22  1  0
 22 23  2  0
 22 24  2  0
 22 25  1  0
 25 26  1  0
 12  3  1  0
 21 16  1  0
 11  6  1  0
M  END
>  <energy_score>  (1154) 
-16.683771

>  <alias>  (1154) 
None

>  <HIPPO Pose ID>  (1154) 
70772

>  <smiles>  (1154) 
CCc1ccc2ncccc2c1NC(=O)c1ncccc1S(=O)(=O)CC

>  <inchikey>  (1154) 
IIJXQQNTTXZHNB-UHFFFAOYSA-N

>  <distance_score>  (1154) 
1.793417

>  <ref_mols>  (1154) 
Z2971a,Z1719a

>  <ref_pdb>  (1154) 
Z2971a

>  <HIPPO Compound ID>  (1154) 
143628

>  <name>  (1154) 
P70772

>  <inspiration_score>  (1154) 
None

$$$$
P70773
     RDKit          3D

 26 28  0  0  0  0  0  0  0  0999 V2000
   -2.3948    8.3446  -25.2631 C   0  0  0  0  0  0  0  0  0  0  0  0
   -3.6606    8.9913  -24.7420 C   0  0  0  0  0  0  0  0  0  0  0  0
   -4.4383    8.0967  -23.4291 S   0  0  0  0  0  0  0  0  0  0  0  0
   -5.7397    8.7254  -23.2988 O   0  0  0  0  0  0  0  0  0  0  0  0
   -4.2373    6.6991  -23.7507 O   0  0  0  0  0  0  0  0  0  0  0  0
   -3.5446    8.4034  -21.9276 C   0  0  0  0  0  0  0  0  0  0  0  0
   -2.3842    9.1754  -21.9082 C   0  0  0  0  0  0  0  0  0  0  0  0
   -1.7118    9.3871  -20.6971 C   0  0  0  0  0  0  0  0  0  0  0  0
   -2.2109    8.8433  -19.5343 C   0  0  0  0  0  0  0  0  0  0  0  0
   -3.3113    8.0898  -19.5150 N   0  0  0  0  0  0  0  0  0  0  0  0
   -3.9621    7.8726  -20.7083 C   0  0  0  0  0  0  0  0  0  0  0  0
   -5.1563    7.0057  -20.5218 C   0  0  0  0  0  0  0  0  0  0  0  0
   -5.9200    6.8900  -21.3906 O   0  0  0  0  0  0  0  0  0  0  0  0
   -5.1682    6.4160  -19.0922 N   0  0  0  0  0  0  0  0  0  0  0  0
   -6.0456    5.5174  -18.4933 C   0  0  0  0  0  0  0  0  0  0  0  0
   -6.8171    4.7584  -19.3482 C   0  0  0  0  0  0  0  0  0  0  0  0
   -7.9581    4.1493  -18.8881 C   0  0  0  0  0  0  0  0  0  0  0  0
   -8.3196    4.2848  -17.5577 C   0  0  0  0  0  0  0  0  0  0  0  0
   -9.5472    3.8008  -17.1821 O   0  0  0  0  0  0  0  0  0  0  0  0
  -10.5851    4.5320  -17.8429 C   0  0  0  0  0  0  0  0  0  0  0  0
   -7.4549    4.8484  -16.6176 C   0  0  0  0  0  0  0  0  0  0  0  0
   -7.7675    4.8458  -15.2997 N   0  0  0  0  0  0  0  0  0  0  0  0
   -6.8897    5.3618  -14.4232 C   0  0  0  0  0  0  0  0  0  0  0  0
   -5.7020    5.9536  -14.7963 C   0  0  0  0  0  0  0  0  0  0  0  0
   -5.4009    6.0234  -16.1535 C   0  0  0  0  0  0  0  0  0  0  0  0
   -6.2692    5.4581  -17.1011 C   0  0  0  0  0  0  0  0  0  0  0  0
  1  2  1  0
  2  3  1  0
  3  4  2  0
  3  5  2  0
  3  6  1  0
  6  7  2  0
  7  8  1  0
  8  9  2  0
  9 10  1  0
 10 11  2  0
 11 12  1  0
 12 13  2  0
 12 14  1  0
 14 15  1  0
 15 16  2  0
 16 17  1  0
 17 18  2  0
 18 19  1  0
 19 20  1  0
 18 21  1  0
 21 22  2  0
 22 23  1  0
 23 24  2  0
 24 25  1  0
 25 26  2  0
 11  6  1  0
 26 15  1  0
 26 21  1  0
M  END
>  <energy_score>  (1155) 
-11.061662

>  <alias>  (1155) 
None

>  <HIPPO Pose ID>  (1155) 
70773

>  <smiles>  (1155) 
CCS(=O)(=O)c1cccnc1C(=O)Nc1ccc(OC)c2ncccc12

>  <inchikey>  (1155) 
NZGADRBNHNQEIF-UHFFFAOYSA-N

>  <distance_score>  (1155) 
1.788075

>  <ref_mols>  (1155) 
Z2971a,Z1719a

>  <ref_pdb>  (1155) 
Z2971a

>  <HIPPO Compound ID>  (1155) 
143630

>  <name>  (1155) 
P70773

>  <inspiration_score>  (1155) 
None

$$$$
P70775
     RDKit          3D

 27 29  0  0  0  0  0  0  0  0999 V2000
   -3.0070    7.4616  -24.9321 C   0  0  0  0  0  0  0  0  0  0  0  0
   -4.4182    7.5378  -24.3791 C   0  0  0  0  0  0  0  0  0  0  0  0
   -4.6512    8.9388  -23.3206 S   0  0  0  0  0  0  0  0  0  0  0  0
   -6.0171    9.0052  -22.8478 O   0  0  0  0  0  0  0  0  0  0  0  0
   -4.1404   10.0919  -24.0499 O   0  0  0  0  0  0  0  0  0  0  0  0
   -3.5552    8.7215  -21.9439 C   0  0  0  0  0  0  0  0  0  0  0  0
   -2.3789    9.4795  -21.9237 C   0  0  0  0  0  0  0  0  0  0  0  0
   -1.5643    9.4865  -20.7877 C   0  0  0  0  0  0  0  0  0  0  0  0
   -1.9342    8.7439  -19.6930 C   0  0  0  0  0  0  0  0  0  0  0  0
   -3.0247    7.9747  -19.6927 N   0  0  0  0  0  0  0  0  0  0  0  0
   -3.8220    7.9620  -20.8179 C   0  0  0  0  0  0  0  0  0  0  0  0
   -4.9433    6.9941  -20.6524 C   0  0  0  0  0  0  0  0  0  0  0  0
   -5.7203    6.8245  -21.5025 O   0  0  0  0  0  0  0  0  0  0  0  0
   -4.8567    6.3765  -19.2326 N   0  0  0  0  0  0  0  0  0  0  0  0
   -5.7338    5.5252  -18.5605 C   0  0  0  0  0  0  0  0  0  0  0  0
   -6.7309    4.9076  -19.2852 C   0  0  0  0  0  0  0  0  0  0  0  0
   -7.8691    4.4680  -18.6417 C   0  0  0  0  0  0  0  0  0  0  0  0
   -7.9397    4.5767  -17.2518 C   0  0  0  0  0  0  0  0  0  0  0  0
   -9.2388    4.4284  -16.6307 N   0  0  0  0  0  0  0  0  0  0  0  0
  -10.0797    3.7955  -17.2795 O   0  0  0  0  0  0  0  0  0  0  0  0
   -9.4568    5.0132  -15.5567 O   0  0  0  0  0  0  0  0  0  0  0  0
   -6.8474    4.9277  -16.4668 C   0  0  0  0  0  0  0  0  0  0  0  0
   -6.8742    4.8343  -15.1150 N   0  0  0  0  0  0  0  0  0  0  0  0
   -5.8097    5.2047  -14.3933 C   0  0  0  0  0  0  0  0  0  0  0  0
   -4.6637    5.6983  -14.9658 C   0  0  0  0  0  0  0  0  0  0  0  0
   -4.6178    5.8097  -16.3536 C   0  0  0  0  0  0  0  0  0  0  0  0
   -5.7116    5.4160  -17.1464 C   0  0  0  0  0  0  0  0  0  0  0  0
  1  2  1  0
  2  3  1  0
  3  4  2  0
  3  5  2  0
  3  6  1  0
  6  7  2  0
  7  8  1  0
  8  9  2  0
  9 10  1  0
 10 11  2  0
 11 12  1  0
 12 13  2  0
 12 14  1  0
 14 15  1  0
 15 16  2  0
 16 17  1  0
 17 18  2  0
 18 19  1  0
 19 20  2  0
 19 21  1  0
 18 22  1  0
 22 23  2  0
 23 24  1  0
 24 25  2  0
 25 26  1  0
 26 27  2  0
 11  6  1  0
 27 15  1  0
 27 22  1  0
M  CHG  2  19   1  21  -1
M  END
>  <energy_score>  (1156) 
-60.214099

>  <alias>  (1156) 
None

>  <HIPPO Pose ID>  (1156) 
70775

>  <smiles>  (1156) 
CCS(=O)(=O)c1cccnc1C(=O)Nc1ccc([N+](=O)[O-])c2ncccc12

>  <inchikey>  (1156) 
ONJMGHNHGDJMIQ-UHFFFAOYSA-N

>  <distance_score>  (1156) 
1.977182

>  <ref_mols>  (1156) 
Z2971a,Z1719a

>  <ref_pdb>  (1156) 
Z2971a

>  <HIPPO Compound ID>  (1156) 
143635

>  <name>  (1156) 
P70775

>  <inspiration_score>  (1156) 
None

$$$$
P70776
     RDKit          3D

 27 29  0  0  0  0  0  0  0  0999 V2000
   -3.7713    8.6010  -25.7030 C   0  0  0  0  0  0  0  0  0  0  0  0
   -3.3309    8.9128  -24.2936 C   0  0  0  0  0  0  0  0  0  0  0  0
   -4.2524    7.9931  -23.0885 S   0  0  0  0  0  0  0  0  0  0  0  0
   -5.5911    8.5462  -23.1452 O   0  0  0  0  0  0  0  0  0  0  0  0
   -3.9055    6.6128  -23.3460 O   0  0  0  0  0  0  0  0  0  0  0  0
   -3.5464    8.3743  -21.5086 C   0  0  0  0  0  0  0  0  0  0  0  0
   -2.3010    9.0040  -21.4307 C   0  0  0  0  0  0  0  0  0  0  0  0
   -1.7326    9.2702  -20.1812 C   0  0  0  0  0  0  0  0  0  0  0  0
   -2.4245    8.9366  -19.0393 C   0  0  0  0  0  0  0  0  0  0  0  0
   -3.6125    8.3273  -19.0722 N   0  0  0  0  0  0  0  0  0  0  0  0
   -4.1507    8.0217  -20.3022 C   0  0  0  0  0  0  0  0  0  0  0  0
   -5.3930    7.2014  -20.1452 C   0  0  0  0  0  0  0  0  0  0  0  0
   -6.0297    6.9313  -21.0798 O   0  0  0  0  0  0  0  0  0  0  0  0
   -5.5573    6.7791  -18.6610 N   0  0  0  0  0  0  0  0  0  0  0  0
   -6.4648    5.8816  -18.0595 C   0  0  0  0  0  0  0  0  0  0  0  0
   -7.2002    4.9699  -18.8155 C   0  0  0  0  0  0  0  0  0  0  0  0
   -6.4999    4.2783  -19.8847 N   0  0  0  0  0  0  0  0  0  0  0  0
   -5.2559    4.2585  -19.7927 O   0  0  0  0  0  0  0  0  0  0  0  0
   -7.1757    3.6173  -20.6883 O   0  0  0  0  0  0  0  0  0  0  0  0
   -8.3339    4.3327  -18.3110 C   0  0  0  0  0  0  0  0  0  0  0  0
   -8.6219    4.4677  -16.9628 C   0  0  0  0  0  0  0  0  0  0  0  0
   -7.7550    5.1380  -16.1193 C   0  0  0  0  0  0  0  0  0  0  0  0
   -8.0071    5.0801  -14.8051 N   0  0  0  0  0  0  0  0  0  0  0  0
   -7.1245    5.6456  -13.9633 C   0  0  0  0  0  0  0  0  0  0  0  0
   -6.0048    6.3339  -14.3819 C   0  0  0  0  0  0  0  0  0  0  0  0
   -5.7788    6.4566  -15.7497 C   0  0  0  0  0  0  0  0  0  0  0  0
   -6.6491    5.8442  -16.6641 C   0  0  0  0  0  0  0  0  0  0  0  0
  1  2  1  0
  2  3  1  0
  3  4  2  0
  3  5  2  0
  3  6  1  0
  6  7  2  0
  7  8  1  0
  8  9  2  0
  9 10  1  0
 10 11  2  0
 11 12  1  0
 12 13  2  0
 12 14  1  0
 14 15  1  0
 15 16  2  0
 16 17  1  0
 17 18  2  0
 17 19  1  0
 16 20  1  0
 20 21  2  0
 21 22  1  0
 22 23  2  0
 23 24  1  0
 24 25  2  0
 25 26  1  0
 26 27  2  0
 11  6  1  0
 27 15  1  0
 27 22  1  0
M  CHG  2  17   1  19  -1
M  END
>  <energy_score>  (1157) 
-35.014165

>  <alias>  (1157) 
None

>  <HIPPO Pose ID>  (1157) 
70776

>  <smiles>  (1157) 
CCS(=O)(=O)c1cccnc1C(=O)Nc1c([N+](=O)[O-])ccc2ncccc12

>  <inchikey>  (1157) 
CQRDRTOMFVZUKO-UHFFFAOYSA-N

>  <distance_score>  (1157) 
1.834367

>  <ref_mols>  (1157) 
Z2971a,Z1719a

>  <ref_pdb>  (1157) 
Z2971a

>  <HIPPO Compound ID>  (1157) 
143636

>  <name>  (1157) 
P70776

>  <inspiration_score>  (1157) 
None

$$$$
P70777
     RDKit          3D

 27 29  0  0  0  0  0  0  0  0999 V2000
  -10.8971    5.0539  -18.5115 C   0  0  0  0  0  0  0  0  0  0  0  0
  -10.4268    3.9182  -17.6642 C   0  0  0  0  0  0  0  0  0  0  0  0
   -9.3296    4.2497  -16.6670 C   0  0  0  0  0  0  0  0  0  0  0  0
   -7.9813    4.5467  -17.2515 C   0  0  0  0  0  0  0  0  0  0  0  0
   -7.7579    4.4221  -18.6180 C   0  0  0  0  0  0  0  0  0  0  0  0
   -6.6238    4.9501  -19.1649 C   0  0  0  0  0  0  0  0  0  0  0  0
   -5.6718    5.5372  -18.3557 C   0  0  0  0  0  0  0  0  0  0  0  0
   -4.7208    6.2349  -19.0665 N   0  0  0  0  0  0  0  0  0  0  0  0
   -4.8605    7.1281  -20.3189 C   0  0  0  0  0  0  0  0  0  0  0  0
   -5.8092    7.4733  -20.8962 O   0  0  0  0  0  0  0  0  0  0  0  0
   -3.5016    7.4606  -20.8299 C   0  0  0  0  0  0  0  0  0  0  0  0
   -2.5212    7.0206  -19.9636 N   0  0  0  0  0  0  0  0  0  0  0  0
   -1.2546    7.3237  -20.2452 C   0  0  0  0  0  0  0  0  0  0  0  0
   -0.9083    8.0424  -21.3663 C   0  0  0  0  0  0  0  0  0  0  0  0
   -1.9004    8.4380  -22.2723 C   0  0  0  0  0  0  0  0  0  0  0  0
   -3.2362    8.1226  -22.0223 C   0  0  0  0  0  0  0  0  0  0  0  0
   -4.5240    8.5782  -23.1544 S   0  0  0  0  0  0  0  0  0  0  0  0
   -5.2804    7.3974  -23.5110 O   0  0  0  0  0  0  0  0  0  0  0  0
   -5.1376    9.7721  -22.5998 O   0  0  0  0  0  0  0  0  0  0  0  0
   -3.7629    9.0928  -24.6701 C   0  0  0  0  0  0  0  0  0  0  0  0
   -3.0484    7.9846  -25.4130 C   0  0  0  0  0  0  0  0  0  0  0  0
   -5.7609    5.4590  -16.9551 C   0  0  0  0  0  0  0  0  0  0  0  0
   -4.7678    5.9046  -16.0624 C   0  0  0  0  0  0  0  0  0  0  0  0
   -4.9804    5.8400  -14.6895 C   0  0  0  0  0  0  0  0  0  0  0  0
   -6.1938    5.3646  -14.2420 C   0  0  0  0  0  0  0  0  0  0  0  0
   -7.1769    4.9584  -15.0620 N   0  0  0  0  0  0  0  0  0  0  0  0
   -6.9646    4.9789  -16.3958 C   0  0  0  0  0  0  0  0  0  0  0  0
  1  2  1  0
  2  3  1  0
  3  4  1  0
  4  5  2  0
  5  6  1  0
  6  7  2  0
  7  8  1  0
  8  9  1  0
  9 10  2  0
  9 11  1  0
 11 12  2  0
 12 13  1  0
 13 14  2  0
 14 15  1  0
 15 16  2  0
 16 17  1  0
 17 18  2  0
 17 19  2  0
 17 20  1  0
 20 21  1  0
  7 22  1  0
 22 23  2  0
 23 24  1  0
 24 25  2  0
 25 26  1  0
 26 27  2  0
 27  4  1  0
 16 11  1  0
 27 22  1  0
M  END
>  <energy_score>  (1158) 
-36.549617

>  <alias>  (1158) 
None

>  <HIPPO Pose ID>  (1158) 
70777

>  <smiles>  (1158) 
CCCc1ccc(NC(=O)c2ncccc2S(=O)(=O)CC)c2cccnc12

>  <inchikey>  (1158) 
VCGMLZATAHQZJX-UHFFFAOYSA-N

>  <distance_score>  (1158) 
1.321597

>  <ref_mols>  (1158) 
Z2971a,Z1719a

>  <ref_pdb>  (1158) 
Z2971a

>  <HIPPO Compound ID>  (1158) 
143637

>  <name>  (1158) 
P70777

>  <inspiration_score>  (1158) 
None

$$$$
P70778
     RDKit          3D

 28 30  0  0  0  0  0  0  0  0999 V2000
   -2.5375    8.7907  -25.1914 C   0  0  0  0  0  0  0  0  0  0  0  0
   -3.8878    8.7562  -24.5072 C   0  0  0  0  0  0  0  0  0  0  0  0
   -3.9446    7.6654  -23.1115 S   0  0  0  0  0  0  0  0  0  0  0  0
   -5.3464    7.6004  -22.7459 O   0  0  0  0  0  0  0  0  0  0  0  0
   -3.1451    6.5158  -23.4789 O   0  0  0  0  0  0  0  0  0  0  0  0
   -3.1253    8.4260  -21.7412 C   0  0  0  0  0  0  0  0  0  0  0  0
   -2.6263    9.7193  -21.8165 C   0  0  0  0  0  0  0  0  0  0  0  0
   -2.2040   10.3539  -20.6427 C   0  0  0  0  0  0  0  0  0  0  0  0
   -2.3055    9.7041  -19.4301 C   0  0  0  0  0  0  0  0  0  0  0  0
   -2.7590    8.4549  -19.3256 N   0  0  0  0  0  0  0  0  0  0  0  0
   -3.1110    7.8193  -20.4859 C   0  0  0  0  0  0  0  0  0  0  0  0
   -3.6521    6.4673  -20.2173 C   0  0  0  0  0  0  0  0  0  0  0  0
   -3.4239    5.5667  -20.9206 O   0  0  0  0  0  0  0  0  0  0  0  0
   -4.5768    6.5651  -18.9822 N   0  0  0  0  0  0  0  0  0  0  0  0
   -5.4520    5.6360  -18.4351 C   0  0  0  0  0  0  0  0  0  0  0  0
   -6.1175    4.8471  -19.3507 C   0  0  0  0  0  0  0  0  0  0  0  0
   -7.3576    4.3463  -19.0459 C   0  0  0  0  0  0  0  0  0  0  0  0
   -7.8928    4.5961  -17.7918 C   0  0  0  0  0  0  0  0  0  0  0  0
   -9.5265    4.0856  -17.5484 S   0  0  0  0  0  0  0  0  0  0  0  0
   -9.5823    2.7208  -18.0231 O   0  0  0  0  0  0  0  0  0  0  0  0
  -10.4203    5.0898  -18.0749 O   0  0  0  0  0  0  0  0  0  0  0  0
   -9.8033    3.9953  -15.9919 F   0  0  0  0  0  0  0  0  0  0  0  0
   -7.1778    5.1845  -16.7670 C   0  0  0  0  0  0  0  0  0  0  0  0
   -7.6580    5.2626  -15.5049 N   0  0  0  0  0  0  0  0  0  0  0  0
   -6.8872    5.8025  -14.5433 C   0  0  0  0  0  0  0  0  0  0  0  0
   -5.6464    6.3475  -14.7889 C   0  0  0  0  0  0  0  0  0  0  0  0
   -5.1723    6.3336  -16.0967 C   0  0  0  0  0  0  0  0  0  0  0  0
   -5.9228    5.7291  -17.1123 C   0  0  0  0  0  0  0  0  0  0  0  0
  1  2  1  0
  2  3  1  0
  3  4  2  0
  3  5  2  0
  3  6  1  0
  6  7  2  0
  7  8  1  0
  8  9  2  0
  9 10  1  0
 10 11  2  0
 11 12  1  0
 12 13  2  0
 12 14  1  0
 14 15  1  0
 15 16  2  0
 16 17  1  0
 17 18  2  0
 18 19  1  0
 19 20  2  0
 19 21  2  0
 19 22  1  0
 18 23  1  0
 23 24  2  0
 24 25  1  0
 25 26  2  0
 26 27  1  0
 27 28  2  0
 11  6  1  0
 28 15  1  0
 28 23  1  0
M  END
>  <energy_score>  (1159) 
-56.382594

>  <alias>  (1159) 
None

>  <HIPPO Pose ID>  (1159) 
70778

>  <smiles>  (1159) 
CCS(=O)(=O)c1cccnc1C(=O)Nc1ccc(S(=O)(=O)F)c2ncccc12

>  <inchikey>  (1159) 
XFPXHCYHVIRGPH-UHFFFAOYSA-N

>  <distance_score>  (1159) 
1.882234

>  <ref_mols>  (1159) 
Z2971a,Z1719a

>  <ref_pdb>  (1159) 
Z2971a

>  <HIPPO Compound ID>  (1159) 
143638

>  <name>  (1159) 
P70778

>  <inspiration_score>  (1159) 
None

$$$$
P70779
     RDKit          3D

 28 30  0  0  0  0  0  0  0  0999 V2000
   -2.9878    9.4336  -25.2895 C   0  0  0  0  0  0  0  0  0  0  0  0
   -4.3583    9.2959  -24.6554 C   0  0  0  0  0  0  0  0  0  0  0  0
   -4.6307    7.6926  -23.9518 S   0  0  0  0  0  0  0  0  0  0  0  0
   -5.8439    7.6960  -23.1643 O   0  0  0  0  0  0  0  0  0  0  0  0
   -4.4957    6.7321  -25.0358 O   0  0  0  0  0  0  0  0  0  0  0  0
   -3.2464    7.4113  -22.8963 C   0  0  0  0  0  0  0  0  0  0  0  0
   -2.1795    6.6511  -23.3976 C   0  0  0  0  0  0  0  0  0  0  0  0
   -1.1561    6.2220  -22.5533 C   0  0  0  0  0  0  0  0  0  0  0  0
   -1.2503    6.5276  -21.2118 C   0  0  0  0  0  0  0  0  0  0  0  0
   -2.2346    7.2900  -20.7103 N   0  0  0  0  0  0  0  0  0  0  0  0
   -3.1962    7.7779  -21.5706 C   0  0  0  0  0  0  0  0  0  0  0  0
   -4.0669    8.8207  -20.9015 C   0  0  0  0  0  0  0  0  0  0  0  0
   -4.8238    9.4738  -21.4920 O   0  0  0  0  0  0  0  0  0  0  0  0
   -3.7522    8.7745  -19.3990 N   0  0  0  0  0  0  0  0  0  0  0  0
   -4.3708    9.4563  -18.2929 C   0  0  0  0  0  0  0  0  0  0  0  0
   -5.0567    8.4691  -17.3320 C   0  0  0  0  0  0  0  0  0  0  0  0
   -5.3029    8.7466  -16.2199 O   0  0  0  0  0  0  0  0  0  0  0  0
   -5.4056    7.1852  -18.1581 N   0  0  0  0  0  0  0  0  0  0  0  0
   -6.1820    6.0689  -17.8193 C   0  0  0  0  0  0  0  0  0  0  0  0
   -6.7432    5.3877  -18.8968 C   0  0  0  0  0  0  0  0  0  0  0  0
   -7.7944    4.5020  -18.6896 C   0  0  0  0  0  0  0  0  0  0  0  0
   -8.2617    4.2755  -17.4026 C   0  0  0  0  0  0  0  0  0  0  0  0
   -7.6079    4.8009  -16.3060 C   0  0  0  0  0  0  0  0  0  0  0  0
   -8.0388    4.4459  -15.0861 N   0  0  0  0  0  0  0  0  0  0  0  0
   -7.3219    4.8333  -14.0170 C   0  0  0  0  0  0  0  0  0  0  0  0
   -6.1757    5.5905  -14.1082 C   0  0  0  0  0  0  0  0  0  0  0  0
   -5.7707    6.0073  -15.3714 C   0  0  0  0  0  0  0  0  0  0  0  0
   -6.5080    5.6618  -16.5117 C   0  0  0  0  0  0  0  0  0  0  0  0
  1  2  1  0
  2  3  1  0
  3  4  2  0
  3  5  2  0
  3  6  1  0
  6  7  2  0
  7  8  1  0
  8  9  2  0
  9 10  1  0
 10 11  2  0
 11 12  1  0
 12 13  2  0
 12 14  1  0
 14 15  1  0
 15 16  1  0
 16 17  2  0
 16 18  1  0
 18 19  1  0
 19 20  2  0
 20 21  1  0
 21 22  2  0
 22 23  1  0
 23 24  2  0
 24 25  1  0
 25 26  2  0
 26 27  1  0
 27 28  2  0
 11  6  1  0
 28 19  1  0
 28 23  1  0
M  END
>  <energy_score>  (1160) 
-31.01841

>  <alias>  (1160) 
None

>  <HIPPO Pose ID>  (1160) 
70779

>  <smiles>  (1160) 
CCS(=O)(=O)c1cccnc1C(=O)NCC(=O)Nc1cccc2ncccc12

>  <inchikey>  (1160) 
CZKCXMAXWLBRNF-UHFFFAOYSA-N

>  <distance_score>  (1160) 
1.487127

>  <ref_mols>  (1160) 
Z2971a,Z1719a

>  <ref_pdb>  (1160) 
Z2971a

>  <HIPPO Compound ID>  (1160) 
143639

>  <name>  (1160) 
P70779

>  <inspiration_score>  (1160) 
None

$$$$
P70780
     RDKit          3D

 29 31  0  0  0  0  0  0  0  0999 V2000
   -3.3081    8.6505  -26.1432 C   0  0  0  0  0  0  0  0  0  0  0  0
   -4.4033    8.1733  -25.2035 C   0  0  0  0  0  0  0  0  0  0  0  0
   -4.3373    8.9762  -23.6166 S   0  0  0  0  0  0  0  0  0  0  0  0
   -5.6553    8.7956  -23.0390 O   0  0  0  0  0  0  0  0  0  0  0  0
   -3.7462   10.2789  -23.8058 O   0  0  0  0  0  0  0  0  0  0  0  0
   -3.2387    8.0377  -22.6134 C   0  0  0  0  0  0  0  0  0  0  0  0
   -2.2449    7.1989  -23.1266 C   0  0  0  0  0  0  0  0  0  0  0  0
   -1.5988    6.3165  -22.2471 C   0  0  0  0  0  0  0  0  0  0  0  0
   -2.0515    6.2139  -20.9395 C   0  0  0  0  0  0  0  0  0  0  0  0
   -3.0003    7.0152  -20.4176 N   0  0  0  0  0  0  0  0  0  0  0  0
   -3.4831    8.0097  -21.2496 C   0  0  0  0  0  0  0  0  0  0  0  0
   -3.6165    9.2754  -20.4740 C   0  0  0  0  0  0  0  0  0  0  0  0
   -3.6235   10.2937  -21.0261 O   0  0  0  0  0  0  0  0  0  0  0  0
   -3.6274    8.9596  -18.9910 N   0  0  0  0  0  0  0  0  0  0  0  0
   -3.7344    9.8451  -17.8300 C   0  0  0  0  0  0  0  0  0  0  0  0
   -3.4904    9.0358  -16.5498 C   0  0  0  0  0  0  0  0  0  0  0  0
   -4.7497    8.2456  -16.2305 C   0  0  0  0  0  0  0  0  0  0  0  0
   -5.5795    8.6771  -15.5246 O   0  0  0  0  0  0  0  0  0  0  0  0
   -4.7177    6.9170  -17.0714 N   0  0  0  0  0  0  0  0  0  0  0  0
   -5.6710    5.9508  -17.2398 C   0  0  0  0  0  0  0  0  0  0  0  0
   -6.1180    5.6108  -18.5291 C   0  0  0  0  0  0  0  0  0  0  0  0
   -7.2678    4.8275  -18.6574 C   0  0  0  0  0  0  0  0  0  0  0  0
   -7.9847    4.4537  -17.5229 C   0  0  0  0  0  0  0  0  0  0  0  0
   -7.4725    4.6806  -16.2564 C   0  0  0  0  0  0  0  0  0  0  0  0
   -8.1718    4.1968  -15.2153 N   0  0  0  0  0  0  0  0  0  0  0  0
   -7.6093    4.2361  -13.9948 C   0  0  0  0  0  0  0  0  0  0  0  0
   -6.3653    4.7884  -13.7519 C   0  0  0  0  0  0  0  0  0  0  0  0
   -5.6977    5.3865  -14.8121 C   0  0  0  0  0  0  0  0  0  0  0  0
   -6.2620    5.3912  -16.1000 C   0  0  0  0  0  0  0  0  0  0  0  0
  1  2  1  0
  2  3  1  0
  3  4  2  0
  3  5  2  0
  3  6  1  0
  6  7  2  0
  7  8  1  0
  8  9  2  0
  9 10  1  0
 10 11  2  0
 11 12  1  0
 12 13  2  0
 12 14  1  0
 14 15  1  0
 15 16  1  0
 16 17  1  0
 17 18  2  0
 17 19  1  0
 19 20  1  0
 20 21  2  0
 21 22  1  0
 22 23  2  0
 23 24  1  0
 24 25  2  0
 25 26  1  0
 26 27  2  0
 27 28  1  0
 28 29  2  0
 11  6  1  0
 29 20  1  0
 29 24  1  0
M  END
>  <energy_score>  (1161) 
-5.505746

>  <alias>  (1161) 
None

>  <HIPPO Pose ID>  (1161) 
70780

>  <smiles>  (1161) 
CCS(=O)(=O)c1cccnc1C(=O)NCCC(=O)Nc1cccc2ncccc12

>  <inchikey>  (1161) 
PUTFJPRJWNMAPS-UHFFFAOYSA-N

>  <distance_score>  (1161) 
1.468644

>  <ref_mols>  (1161) 
Z2971a,Z1719a

>  <ref_pdb>  (1161) 
Z2971a

>  <HIPPO Compound ID>  (1161) 
143643

>  <name>  (1161) 
P70780

>  <inspiration_score>  (1161) 
None

$$$$
P70781
     RDKit          3D

 31 34  0  0  0  0  0  0  0  0999 V2000
   -3.3264    9.0705  -25.0803 C   0  0  0  0  0  0  0  0  0  0  0  0
   -4.3178    7.9641  -24.7737 C   0  0  0  0  0  0  0  0  0  0  0  0
   -4.9397    7.9808  -23.1072 S   0  0  0  0  0  0  0  0  0  0  0  0
   -5.1259    9.3764  -22.7741 O   0  0  0  0  0  0  0  0  0  0  0  0
   -6.0439    7.0460  -23.1175 O   0  0  0  0  0  0  0  0  0  0  0  0
   -3.6797    7.3121  -22.0486 C   0  0  0  0  0  0  0  0  0  0  0  0
   -2.4277    6.9542  -22.5800 C   0  0  0  0  0  0  0  0  0  0  0  0
   -1.4716    6.3284  -21.7792 C   0  0  0  0  0  0  0  0  0  0  0  0
   -1.8067    6.0296  -20.4778 C   0  0  0  0  0  0  0  0  0  0  0  0
   -2.9912    6.3584  -19.9417 N   0  0  0  0  0  0  0  0  0  0  0  0
   -3.9108    7.0359  -20.6976 C   0  0  0  0  0  0  0  0  0  0  0  0
   -5.0883    7.5339  -19.8922 C   0  0  0  0  0  0  0  0  0  0  0  0
   -5.9394    8.2643  -20.3919 O   0  0  0  0  0  0  0  0  0  0  0  0
   -5.1586    7.2394  -18.5038 N   0  0  0  0  0  0  0  0  0  0  0  0
   -5.9248    6.0667  -18.0647 C   0  0  0  0  0  0  0  0  0  0  0  0
   -6.6110    5.3582  -19.0608 C   0  0  0  0  0  0  0  0  0  0  0  0
   -7.6749    4.5130  -18.7626 C   0  0  0  0  0  0  0  0  0  0  0  0
   -8.0736    4.3486  -17.4523 C   0  0  0  0  0  0  0  0  0  0  0  0
   -7.3298    4.8720  -16.4223 C   0  0  0  0  0  0  0  0  0  0  0  0
   -7.7522    4.5548  -15.1871 N   0  0  0  0  0  0  0  0  0  0  0  0
   -6.9987    4.9036  -14.1365 C   0  0  0  0  0  0  0  0  0  0  0  0
   -5.8080    5.5717  -14.2666 C   0  0  0  0  0  0  0  0  0  0  0  0
   -5.4083    5.9430  -15.5491 C   0  0  0  0  0  0  0  0  0  0  0  0
   -6.1848    5.6668  -16.7018 C   0  0  0  0  0  0  0  0  0  0  0  0
   -4.4456    8.1466  -17.5747 C   0  0  0  0  0  0  0  0  0  0  0  0
   -2.9901    7.7288  -17.3015 C   0  0  0  0  0  0  0  0  0  0  0  0
   -2.3226    8.3321  -16.0500 C   0  0  0  0  0  0  0  0  0  0  0  0
   -3.2019    9.1784  -15.1320 C   0  0  0  0  0  0  0  0  0  0  0  0
   -3.7198   10.4929  -15.7218 C   0  0  0  0  0  0  0  0  0  0  0  0
   -3.6695   10.6266  -17.2384 C   0  0  0  0  0  0  0  0  0  0  0  0
   -4.5256    9.6314  -18.0215 C   0  0  0  0  0  0  0  0  0  0  0  0
  1  2  1  0
  2  3  1  0
  3  4  2  0
  3  5  2  0
  3  6  1  0
  6  7  2  0
  7  8  1  0
  8  9  2  0
  9 10  1  0
 10 11  2  0
 11 12  1  0
 12 13  2  0
 12 14  1  0
 14 15  1  0
 15 16  2  0
 16 17  1  0
 17 18  2  0
 18 19  1  0
 19 20  2  0
 20 21  1  0
 21 22  2  0
 22 23  1  0
 23 24  2  0
 14 25  1  0
 25 26  1  0
 26 27  1  0
 27 28  1  0
 28 29  1  0
 29 30  1  0
 30 31  1  0
 11  6  1  0
 24 15  1  0
 31 25  1  0
 24 19  1  0
M  END
>  <energy_score>  (1162) 
-9.02841

>  <alias>  (1162) 
None

>  <HIPPO Pose ID>  (1162) 
70781

>  <smiles>  (1162) 
CCS(=O)(=O)c1cccnc1C(=O)N(c1cccc2ncccc12)C1CCCCCC1

>  <inchikey>  (1162) 
KPMOORKBRFEZFB-UHFFFAOYSA-N

>  <distance_score>  (1162) 
1.001863

>  <ref_mols>  (1162) 
Z2971a,Z1719a

>  <ref_pdb>  (1162) 
Z2971a

>  <HIPPO Compound ID>  (1162) 
143650

>  <name>  (1162) 
P70781

>  <inspiration_score>  (1162) 
None

$$$$
P70782
     RDKit          3D

 33 36  0  0  0  0  0  0  0  0999 V2000
   -2.9241    9.5609  -25.0818 C   0  0  0  0  0  0  0  0  0  0  0  0
   -4.2286    9.4397  -24.3221 C   0  0  0  0  0  0  0  0  0  0  0  0
   -4.6358    7.7791  -23.8695 S   0  0  0  0  0  0  0  0  0  0  0  0
   -5.7876    7.8060  -22.9922 O   0  0  0  0  0  0  0  0  0  0  0  0
   -4.6894    7.0020  -25.0965 O   0  0  0  0  0  0  0  0  0  0  0  0
   -3.2433    7.1699  -22.9884 C   0  0  0  0  0  0  0  0  0  0  0  0
   -2.1571    6.6434  -23.6977 C   0  0  0  0  0  0  0  0  0  0  0  0
   -1.0989    6.0447  -23.0115 C   0  0  0  0  0  0  0  0  0  0  0  0
   -1.2096    5.8923  -21.6403 C   0  0  0  0  0  0  0  0  0  0  0  0
   -2.2734    6.3224  -20.9452 N   0  0  0  0  0  0  0  0  0  0  0  0
   -3.2359    7.0373  -21.6197 C   0  0  0  0  0  0  0  0  0  0  0  0
   -3.8997    8.0036  -20.7021 C   0  0  0  0  0  0  0  0  0  0  0  0
   -4.1022    9.0990  -21.0491 O   0  0  0  0  0  0  0  0  0  0  0  0
   -4.1199    7.3315  -19.3294 N   0  0  0  0  0  0  0  0  0  0  0  0
   -4.5234    7.8615  -18.1368 C   0  0  0  0  0  0  0  0  0  0  0  0
   -4.1489    9.0899  -17.6290 C   0  0  0  0  0  0  0  0  0  0  0  0
   -3.3241   10.0703  -18.2778 C   0  0  0  0  0  0  0  0  0  0  0  0
   -2.6311   10.8857  -18.7300 N   0  0  0  0  0  0  0  0  0  0  0  0
   -4.6317    9.1909  -16.3037 C   0  0  0  0  0  0  0  0  0  0  0  0
   -4.4532   10.3484  -15.3780 C   0  0  0  0  0  0  0  0  0  0  0  0
   -5.3467    8.0284  -16.0490 C   0  0  0  0  0  0  0  0  0  0  0  0
   -6.1964    7.7935  -14.8328 C   0  0  0  0  0  0  0  0  0  0  0  0
   -5.2310    7.1686  -17.1618 N   0  0  0  0  0  0  0  0  0  0  0  0
   -5.9446    5.9341  -17.3276 C   0  0  0  0  0  0  0  0  0  0  0  0
   -6.6901    5.7338  -18.4947 C   0  0  0  0  0  0  0  0  0  0  0  0
   -7.7900    4.8803  -18.4482 C   0  0  0  0  0  0  0  0  0  0  0  0
   -8.1828    4.3158  -17.2424 C   0  0  0  0  0  0  0  0  0  0  0  0
   -7.3907    4.4227  -16.1169 C   0  0  0  0  0  0  0  0  0  0  0  0
   -7.8071    3.8631  -14.9764 N   0  0  0  0  0  0  0  0  0  0  0  0
   -6.9659    3.8214  -13.9274 C   0  0  0  0  0  0  0  0  0  0  0  0
   -5.6870    4.3310  -13.9566 C   0  0  0  0  0  0  0  0  0  0  0  0
   -5.2856    4.9839  -15.1119 C   0  0  0  0  0  0  0  0  0  0  0  0
   -6.1756    5.1167  -16.2006 C   0  0  0  0  0  0  0  0  0  0  0  0
  1  2  1  0
  2  3  1  0
  3  4  2  0
  3  5  2  0
  3  6  1  0
  6  7  2  0
  7  8  1  0
  8  9  2  0
  9 10  1  0
 10 11  2  0
 11 12  1  0
 12 13  2  0
 12 14  1  0
 14 15  1  0
 15 16  2  0
 16 17  1  0
 17 18  3  0
 16 19  1  0
 19 20  1  0
 19 21  2  0
 21 22  1  0
 21 23  1  0
 23 24  1  0
 24 25  2  0
 25 26  1  0
 26 27  2  0
 27 28  1  0
 28 29  2  0
 29 30  1  0
 30 31  2  0
 31 32  1  0
 32 33  2  0
 11  6  1  0
 23 15  1  0
 33 24  1  0
 33 28  1  0
M  END
>  <energy_score>  (1163) 
-36.144067

>  <alias>  (1163) 
None

>  <HIPPO Pose ID>  (1163) 
70782

>  <smiles>  (1163) 
CCS(=O)(=O)c1cccnc1C(=O)Nc1c(C#N)c(C)c(C)n1-c1cccc2ncccc12

>  <inchikey>  (1163) 
OMTGZUBVOFJREA-UHFFFAOYSA-N

>  <distance_score>  (1163) 
1.32425

>  <ref_mols>  (1163) 
Z2971a,Z1719a

>  <ref_pdb>  (1163) 
Z2971a

>  <HIPPO Compound ID>  (1163) 
143652

>  <name>  (1163) 
P70782

>  <inspiration_score>  (1163) 
None

$$$$
P70783
     RDKit          3D

 18 19  0  0  0  0  0  0  0  0999 V2000
   -8.6731    2.9647  -10.0299 C   0  0  0  0  0  0  0  0  0  0  0  0
   -8.1218    3.9786  -10.9835 C   0  0  0  0  0  0  0  0  0  0  0  0
   -7.8884    3.7015  -12.2767 C   0  0  0  0  0  0  0  0  0  0  0  0
   -7.2919    4.5788  -13.3580 C   0  0  2  0  0  0  0  0  0  0  0  0
   -7.0579    6.0157  -12.8959 C   0  0  0  0  0  0  0  0  0  0  0  0
   -8.2353    4.5579  -14.4851 N   0  0  0  0  0  0  0  0  0  0  0  0
   -7.8095    4.5404  -15.8406 C   0  0  0  0  0  0  0  0  0  0  0  0
   -8.7988    4.2243  -16.7931 C   0  0  0  0  0  0  0  0  0  0  0  0
   -8.5054    4.1667  -18.1415 C   0  0  0  0  0  0  0  0  0  0  0  0
   -7.3097    4.4094  -18.6621 N   0  0  0  0  0  0  0  0  0  0  0  0
   -6.3552    4.8171  -17.7984 C   0  0  0  0  0  0  0  0  0  0  0  0
   -5.0478    5.1944  -18.2323 C   0  0  0  0  0  0  0  0  0  0  0  0
   -4.5831    5.2190  -19.6013 C   0  0  0  0  0  0  0  0  0  0  0  0
   -3.4768    4.8472  -19.9784 O   0  0  0  0  0  0  0  0  0  0  0  0
   -5.4846    5.7278  -20.4598 O   0  0  0  0  0  0  0  0  0  0  0  0
   -4.2544    5.4878  -17.1580 C   0  0  0  0  0  0  0  0  0  0  0  0
   -5.0765    5.4124  -15.6789 S   0  0  0  0  0  0  0  0  0  0  0  0
   -6.5524    4.8832  -16.4076 C   0  0  0  0  0  0  0  0  0  0  0  0
  1  2  1  0
  2  3  2  0
  3  4  1  0
  4  5  1  1
  4  6  1  0
  6  7  1  0
  7  8  2  0
  8  9  1  0
  9 10  2  0
 10 11  1  0
 11 12  1  0
 12 13  1  0
 13 14  2  0
 13 15  1  0
 12 16  2  0
 16 17  1  0
 17 18  1  0
 18  7  1  0
 18 11  2  0
M  END
>  <energy_score>  (1164) 
-26.044657

>  <alias>  (1164) 
None

>  <HIPPO Pose ID>  (1164) 
70783

>  <smiles>  (1164) 
C/C=C/[C@H](C)Nc1ccnc2c(C(=O)O)csc12

>  <inchikey>  (1164) 
DAZGQQDCUSCMNP-RTMURIBGSA-N

>  <distance_score>  (1164) 
1.962305

>  <ref_mols>  (1164) 
Z0089a,Z3515a

>  <ref_pdb>  (1164) 
Z3515a

>  <HIPPO Compound ID>  (1164) 
143705

>  <name>  (1164) 
P70783

>  <inspiration_score>  (1164) 
None

$$$$
P70784
     RDKit          3D

 25 28  0  0  0  0  0  0  0  0999 V2000
   -9.6176    5.6526  -13.3964 F   0  0  0  0  0  0  0  0  0  0  0  0
   -8.3782    6.1406  -13.4925 C   0  0  0  0  0  0  0  0  0  0  0  0
   -7.9695    6.5607  -14.7561 C   0  0  0  0  0  0  0  0  0  0  0  0
   -6.6669    6.9964  -14.9341 C   0  0  0  0  0  0  0  0  0  0  0  0
   -5.8912    7.3497  -16.6360 Br  0  0  0  0  0  0  0  0  0  0  0  0
   -5.8733    7.1070  -13.8044 C   0  0  0  0  0  0  0  0  0  0  0  0
   -6.2413    6.6696  -12.5757 N   0  0  0  0  0  0  0  0  0  0  0  0
   -7.4540    6.0705  -12.4430 C   0  0  0  0  0  0  0  0  0  0  0  0
   -7.5809    5.1683  -11.3467 N   0  0  0  0  0  0  0  0  0  0  0  0
   -8.5058    4.0474  -11.2699 C   0  0  0  0  0  0  0  0  0  0  0  0
   -7.3809    3.1509  -11.8383 C   0  0  0  0  0  0  0  0  0  0  0  0
   -7.5089    3.0430  -13.2688 N   0  0  0  0  0  0  0  0  0  0  0  0
   -6.8227    3.5362  -14.3679 C   0  0  0  0  0  0  0  0  0  0  0  0
   -5.4634    3.7582  -14.4276 C   0  0  0  0  0  0  0  0  0  0  0  0
   -4.8969    4.1198  -15.6539 C   0  0  0  0  0  0  0  0  0  0  0  0
   -5.7029    4.2417  -16.8013 C   0  0  0  0  0  0  0  0  0  0  0  0
   -5.1607    4.5080  -18.0787 C   0  0  0  0  0  0  0  0  0  0  0  0
   -5.9960    4.6000  -19.1881 C   0  0  0  0  0  0  0  0  0  0  0  0
   -5.2582    4.9076  -20.9006 Br  0  0  0  0  0  0  0  0  0  0  0  0
   -7.3654    4.4505  -19.0360 C   0  0  0  0  0  0  0  0  0  0  0  0
   -7.9041    4.2324  -17.7712 C   0  0  0  0  0  0  0  0  0  0  0  0
   -9.6271    4.1176  -17.6606 Cl  0  0  0  0  0  0  0  0  0  0  0  0
   -7.0937    4.0826  -16.6404 C   0  0  0  0  0  0  0  0  0  0  0  0
   -7.6134    3.7569  -15.4376 N   0  0  0  0  0  0  0  0  0  0  0  0
   -6.4798    4.2159  -11.1853 C   0  0  0  0  0  0  0  0  0  0  0  0
  1  2  1  0
  2  3  2  0
  3  4  1  0
  4  5  1  0
  4  6  2  0
  6  7  1  0
  7  8  2  0
  8  9  1  0
  9 10  1  0
 10 11  1  0
 11 12  1  0
 12 13  1  0
 13 14  2  0
 14 15  1  0
 15 16  2  0
 16 17  1  0
 17 18  2  0
 18 19  1  0
 18 20  1  0
 20 21  2  0
 21 22  1  0
 21 23  1  0
 23 24  2  0
 11 25  1  0
  8  2  1  0
 25  9  1  0
 24 13  1  0
 23 16  1  0
M  END
>  <energy_score>  (1165) 
-1.631204

>  <alias>  (1165) 
None

>  <HIPPO Pose ID>  (1165) 
70784

>  <smiles>  (1165) 
Fc1cc(Br)cnc1N1CC(Nc2ccc3cc(Br)cc(Cl)c3n2)C1

>  <inchikey>  (1165) 
QPTYYCGTJRMMDL-UHFFFAOYSA-N

>  <distance_score>  (1165) 
1.864392

>  <ref_mols>  (1165) 
Z0852a,Z1719a

>  <ref_pdb>  (1165) 
Z0852a

>  <HIPPO Compound ID>  (1165) 
143739

>  <name>  (1165) 
P70784

>  <inspiration_score>  (1165) 
None

$$$$
P70785
     RDKit          3D

 25 28  0  0  0  0  0  0  0  0999 V2000
   -9.8003    5.6604  -13.7279 F   0  0  0  0  0  0  0  0  0  0  0  0
   -8.6254    6.1618  -13.3262 C   0  0  0  0  0  0  0  0  0  0  0  0
   -7.8843    6.8560  -14.2617 C   0  0  0  0  0  0  0  0  0  0  0  0
   -6.6743    7.3911  -13.8764 C   0  0  0  0  0  0  0  0  0  0  0  0
   -5.5335    8.3204  -15.0560 Br  0  0  0  0  0  0  0  0  0  0  0  0
   -6.2656    7.2191  -12.5598 C   0  0  0  0  0  0  0  0  0  0  0  0
   -6.9085    6.4319  -11.6668 N   0  0  0  0  0  0  0  0  0  0  0  0
   -8.0578    5.8390  -12.0805 C   0  0  0  0  0  0  0  0  0  0  0  0
   -8.4797    4.6361  -11.4272 N   0  0  0  0  0  0  0  0  0  0  0  0
   -7.5666    3.8371  -10.6159 C   0  0  0  0  0  0  0  0  0  0  0  0
   -7.2213    3.0565  -11.9303 C   0  0  0  0  0  0  0  0  0  0  0  0
   -6.1084    3.6868  -12.6370 N   0  0  0  0  0  0  0  0  0  0  0  0
   -5.9695    3.9908  -14.0139 C   0  0  0  0  0  0  0  0  0  0  0  0
   -4.7134    4.4067  -14.4385 C   0  0  0  0  0  0  0  0  0  0  0  0
   -4.5061    4.7505  -15.7711 C   0  0  0  0  0  0  0  0  0  0  0  0
   -5.5649    4.6868  -16.6741 C   0  0  0  0  0  0  0  0  0  0  0  0
   -5.3736    4.9760  -18.0369 C   0  0  0  0  0  0  0  0  0  0  0  0
   -6.4274    4.8414  -18.9322 C   0  0  0  0  0  0  0  0  0  0  0  0
   -7.6806    4.4823  -18.4526 C   0  0  0  0  0  0  0  0  0  0  0  0
   -8.9576    4.2091  -19.5664 Cl  0  0  0  0  0  0  0  0  0  0  0  0
   -7.8822    4.2844  -17.0857 C   0  0  0  0  0  0  0  0  0  0  0  0
   -9.4802    4.0508  -16.4901 Cl  0  0  0  0  0  0  0  0  0  0  0  0
   -6.8241    4.3010  -16.1769 C   0  0  0  0  0  0  0  0  0  0  0  0
   -6.9956    3.9540  -14.8714 N   0  0  0  0  0  0  0  0  0  0  0  0
   -8.6558    3.4568  -12.2771 C   0  0  0  0  0  0  0  0  0  0  0  0
  1  2  1  0
  2  3  2  0
  3  4  1  0
  4  5  1  0
  4  6  2  0
  6  7  1  0
  7  8  2  0
  8  9  1  0
  9 10  1  0
 10 11  1  0
 11 12  1  0
 12 13  1  0
 13 14  2  0
 14 15  1  0
 15 16  2  0
 16 17  1  0
 17 18  2  0
 18 19  1  0
 19 20  1  0
 19 21  2  0
 21 22  1  0
 21 23  1  0
 23 24  2  0
 11 25  1  0
  8  2  1  0
 25  9  1  0
 24 13  1  0
 23 16  1  0
M  END
>  <energy_score>  (1166) 
-7.806345

>  <alias>  (1166) 
None

>  <HIPPO Pose ID>  (1166) 
70785

>  <smiles>  (1166) 
Fc1cc(Br)cnc1N1CC(Nc2ccc3ccc(Cl)c(Cl)c3n2)C1

>  <inchikey>  (1166) 
VFEGWTNIDSIERX-UHFFFAOYSA-N

>  <distance_score>  (1166) 
1.785971

>  <ref_mols>  (1166) 
Z0852a,Z1719a

>  <ref_pdb>  (1166) 
Z0852a

>  <HIPPO Compound ID>  (1166) 
143740

>  <name>  (1166) 
P70785

>  <inspiration_score>  (1166) 
None

$$$$
P70786
     RDKit          3D

 25 28  0  0  0  0  0  0  0  0999 V2000
   -9.7736    5.6570  -13.7668 F   0  0  0  0  0  0  0  0  0  0  0  0
   -8.5985    6.1658  -13.3714 C   0  0  0  0  0  0  0  0  0  0  0  0
   -7.8541    6.8419  -14.3170 C   0  0  0  0  0  0  0  0  0  0  0  0
   -6.6509    7.3914  -13.9312 C   0  0  0  0  0  0  0  0  0  0  0  0
   -5.4953    8.2872  -15.1234 Br  0  0  0  0  0  0  0  0  0  0  0  0
   -6.2677    7.2742  -12.6004 C   0  0  0  0  0  0  0  0  0  0  0  0
   -6.9337    6.5399  -11.6827 N   0  0  0  0  0  0  0  0  0  0  0  0
   -8.0435    5.8893  -12.1084 C   0  0  0  0  0  0  0  0  0  0  0  0
   -8.4524    4.7042  -11.4153 N   0  0  0  0  0  0  0  0  0  0  0  0
   -8.7091    3.5126  -12.2247 C   0  0  0  0  0  0  0  0  0  0  0  0
   -7.2754    3.0766  -11.9640 C   0  0  0  0  0  0  0  0  0  0  0  0
   -6.1964    3.6263  -12.7567 N   0  0  0  0  0  0  0  0  0  0  0  0
   -6.0608    3.9287  -14.1309 C   0  0  0  0  0  0  0  0  0  0  0  0
   -4.8007    4.3700  -14.5265 C   0  0  0  0  0  0  0  0  0  0  0  0
   -4.5702    4.7442  -15.8418 C   0  0  0  0  0  0  0  0  0  0  0  0
   -5.6141    4.7113  -16.7605 C   0  0  0  0  0  0  0  0  0  0  0  0
   -5.3910    5.0656  -18.1003 C   0  0  0  0  0  0  0  0  0  0  0  0
   -4.1682    5.4465  -18.5020 F   0  0  0  0  0  0  0  0  0  0  0  0
   -6.4080    5.0421  -19.0346 C   0  0  0  0  0  0  0  0  0  0  0  0
   -7.6828    4.7018  -18.6176 C   0  0  0  0  0  0  0  0  0  0  0  0
   -7.9112    4.3715  -17.2755 C   0  0  0  0  0  0  0  0  0  0  0  0
   -9.5452    4.0802  -16.8390 Cl  0  0  0  0  0  0  0  0  0  0  0  0
   -6.8886    4.3194  -16.3098 C   0  0  0  0  0  0  0  0  0  0  0  0
   -7.0847    3.9364  -15.0047 N   0  0  0  0  0  0  0  0  0  0  0  0
   -7.4779    3.9186  -10.6620 C   0  0  0  0  0  0  0  0  0  0  0  0
  1  2  1  0
  2  3  2  0
  3  4  1  0
  4  5  1  0
  4  6  2  0
  6  7  1  0
  7  8  2  0
  8  9  1  0
  9 10  1  0
 10 11  1  0
 11 12  1  0
 12 13  1  0
 13 14  2  0
 14 15  1  0
 15 16  2  0
 16 17  1  0
 17 18  1  0
 17 19  2  0
 19 20  1  0
 20 21  2  0
 21 22  1  0
 21 23  1  0
 23 24  2  0
 11 25  1  0
  8  2  1  0
 25  9  1  0
 24 13  1  0
 23 16  1  0
M  END
>  <energy_score>  (1167) 
-13.47488

>  <alias>  (1167) 
None

>  <HIPPO Pose ID>  (1167) 
70786

>  <smiles>  (1167) 
Fc1cc(Br)cnc1N1CC(Nc2ccc3c(F)ccc(Cl)c3n2)C1

>  <inchikey>  (1167) 
BSJPXOHBDAUSKZ-UHFFFAOYSA-N

>  <distance_score>  (1167) 
1.74181

>  <ref_mols>  (1167) 
Z0852a,Z1719a

>  <ref_pdb>  (1167) 
Z0852a

>  <HIPPO Compound ID>  (1167) 
143741

>  <name>  (1167) 
P70786

>  <inspiration_score>  (1167) 
None

$$$$
P70787
     RDKit          3D

 27 30  0  0  0  0  0  0  0  0999 V2000
   -6.6055    6.8435  -19.1752 O   0  0  0  0  0  0  0  0  0  0  0  0
   -6.1638    5.8572  -18.6241 C   0  0  0  0  0  0  0  0  0  0  0  0
   -4.8519    5.5183  -18.5709 N   0  0  0  0  0  0  0  0  0  0  0  0
   -4.5720    4.9653  -17.3740 C   0  0  0  0  0  0  0  0  0  0  0  0
   -3.4773    4.7870  -16.8786 O   0  0  0  0  0  0  0  0  0  0  0  0
   -5.8597    4.6758  -16.7739 C   0  0  0  0  0  0  0  0  0  0  0  0
   -6.1055    4.1379  -15.5526 C   0  0  0  0  0  0  0  0  0  0  0  0
   -7.4282    3.9049  -15.1823 C   0  0  0  0  0  0  0  0  0  0  0  0
   -7.6108    3.3027  -13.9453 N   0  0  0  0  0  0  0  0  0  0  0  0
   -6.5937    2.5858  -13.0106 C   0  0  0  0  0  0  0  0  0  0  0  0
   -5.4622    2.3256  -13.1766 O   0  0  0  0  0  0  0  0  0  0  0  0
   -7.1906    2.2817  -11.6297 C   0  0  2  0  0  0  0  0  0  0  0  0
   -8.5783    2.8163  -11.2128 C   0  0  0  0  0  0  0  0  0  0  0  0
   -8.6762    2.9800   -9.6891 C   0  0  0  0  0  0  0  0  0  0  0  0
   -7.6274    3.9557   -9.1432 C   0  0  0  0  0  0  0  0  0  0  0  0
   -6.5256    4.1195  -10.1227 N   0  0  0  0  0  0  0  0  0  0  0  0
   -6.5301    5.2510  -10.9874 C   0  0  0  0  0  0  0  0  0  0  0  0
   -5.6829    5.3296  -12.0358 C   0  0  0  0  0  0  0  0  0  0  0  0
   -5.8034    6.4118  -13.0120 C   0  0  0  0  0  0  0  0  0  0  0  0
   -5.1011    6.4644  -14.0135 O   0  0  0  0  0  0  0  0  0  0  0  0
   -6.7438    7.3462  -12.7244 N   0  0  0  0  0  0  0  0  0  0  0  0
   -7.5173    7.2328  -11.6163 C   0  0  0  0  0  0  0  0  0  0  0  0
   -7.4511    6.2614  -10.7768 N   0  0  0  0  0  0  0  0  0  0  0  0
   -6.1245    2.7744  -10.6093 C   0  0  0  0  0  0  0  0  0  0  0  0
   -8.4796    4.2473  -16.0513 C   0  0  0  0  0  0  0  0  0  0  0  0
   -8.1956    4.8234  -17.3067 C   0  0  0  0  0  0  0  0  0  0  0  0
   -6.8679    5.0694  -17.6152 C   0  0  0  0  0  0  0  0  0  0  0  0
  1  2  2  0
  2  3  1  0
  3  4  1  0
  4  5  2  0
  4  6  1  0
  6  7  2  0
  7  8  1  0
  8  9  1  0
  9 10  1  0
 10 11  2  0
 12 10  1  6
 12 13  1  0
 13 14  1  0
 14 15  1  0
 15 16  1  0
 16 17  1  0
 17 18  2  0
 18 19  1  0
 19 20  2  0
 19 21  1  0
 21 22  1  0
 22 23  2  0
 16 24  1  0
  8 25  2  0
 25 26  1  0
 26 27  2  0
 27  2  1  0
 27  6  1  0
 24 12  1  0
 23 17  1  0
M  END
>  <energy_score>  (1168) 
-22.910312

>  <alias>  (1168) 
None

>  <HIPPO Pose ID>  (1168) 
70787

>  <smiles>  (1168) 
O=C1NC(=O)c2cc(NC(=O)[C@@H]3CCCN(c4cc(=O)[nH]cn4)C3)ccc21

>  <inchikey>  (1168) 
RNEKEVODSIWNLV-SNVBAGLBSA-N

>  <distance_score>  (1168) 
1.943024

>  <ref_mols>  (1168) 
Z1729a,Z1716a

>  <ref_pdb>  (1168) 
Z1716a

>  <HIPPO Compound ID>  (1168) 
143767

>  <name>  (1168) 
P70787

>  <inspiration_score>  (1168) 
None

$$$$
P70789
     RDKit          3D

 24 28  0  0  0  0  0  0  0  0999 V2000
   -6.7305    3.6511  -12.3982 O   0  0  0  0  0  0  0  0  0  0  0  0
   -6.8719    4.6072  -13.0692 C   0  0  0  0  0  0  0  0  0  0  0  0
   -6.7905    4.5045  -14.5990 C   0  0  2  0  0  0  0  0  0  0  0  0
   -5.8205    5.4516  -15.3254 C   0  0  0  0  0  0  0  0  0  0  0  0
   -5.7106    5.1181  -16.8236 C   0  0  0  0  0  0  0  0  0  0  0  0
   -7.0437    4.8188  -17.4139 C   0  0  0  0  0  0  0  0  0  0  0  0
   -7.2096    4.6872  -18.7708 N   0  0  0  0  0  0  0  0  0  0  0  0
   -8.4632    4.3596  -19.0116 C   0  0  0  0  0  0  0  0  0  0  0  0
   -9.4972    4.2195  -17.6509 S   0  0  0  0  0  0  0  0  0  0  0  0
   -8.1722    4.5904  -16.6549 C   0  0  0  0  0  0  0  0  0  0  0  0
   -8.2226    4.6499  -15.1698 C   0  0  0  0  0  0  0  0  0  0  0  0
   -7.2413    6.0248  -12.6883 N   0  0  0  0  0  0  0  0  0  0  0  0
   -7.6328    6.6070  -11.3700 C   0  0  0  0  0  0  0  0  0  0  0  0
   -7.7041    8.1215  -11.4490 C   0  0  1  0  0  0  0  0  0  0  0  0
   -7.9219    8.7174  -10.1129 C   0  0  0  0  0  0  0  0  0  0  0  0
   -7.1178    8.6720   -8.9488 C   0  0  0  0  0  0  0  0  0  0  0  0
   -7.8869    9.2422   -7.9649 C   0  0  0  0  0  0  0  0  0  0  0  0
   -9.0812    9.5458   -8.5522 N   0  0  0  0  0  0  0  0  0  0  0  0
   -9.0909    9.3200   -9.8745 N   0  0  0  0  0  0  0  0  0  0  0  0
   -6.4082    8.3108  -12.1743 C   0  0  0  0  0  0  0  0  0  0  0  0
   -6.5064    9.1994  -13.4614 C   0  0  0  0  0  0  0  0  0  0  0  0
   -5.9247   10.3568  -12.6290 C   0  0  0  0  0  0  0  0  0  0  0  0
   -5.2724    9.2915  -11.7296 C   0  0  0  0  0  0  0  0  0  0  0  0
   -5.9937    6.8636  -12.3918 C   0  0  0  0  0  0  0  0  0  0  0  0
  1  2  2  0
  3  2  1  1
  3  4  1  0
  4  5  1  0
  5  6  1  0
  6  7  1  0
  7  8  2  0
  8  9  1  0
  9 10  1  0
 10 11  1  0
  2 12  1  0
 12 13  1  0
 13 14  1  0
 14 15  1  1
 15 16  1  0
 16 17  2  0
 17 18  1  0
 18 19  1  0
 14 20  1  0
 20 21  1  0
 21 22  1  0
 22 23  1  0
 20 24  1  0
 11  3  1  0
 24 12  1  0
 10  6  2  0
 19 15  2  0
 23 20  1  0
M  END
>  <energy_score>  (1169) 
-8.591242

>  <alias>  (1169) 
None

>  <HIPPO Pose ID>  (1169) 
70789

>  <smiles>  (1169) 
O=C([C@@H]1CCc2ncsc2C1)N1C[C@@H](c2cc[nH]n2)C2(CCC2)C1

>  <inchikey>  (1169) 
PDAOJLYBPOXMGD-OLZOCXBDSA-N

>  <distance_score>  (1169) 
0.629952

>  <ref_mols>  (1169) 
Z0852a,Z0772a

>  <ref_pdb>  (1169) 
Z0852a

>  <HIPPO Compound ID>  (1169) 
143821

>  <name>  (1169) 
P70789

>  <inspiration_score>  (1169) 
None

$$$$
P70793
     RDKit          3D

 25 29  0  0  0  0  0  0  0  0999 V2000
   -8.6800    4.0301  -19.6194 C   0  0  0  0  0  0  0  0  0  0  0  0
   -8.2751    4.5286  -18.2952 C   0  0  0  0  0  0  0  0  0  0  0  0
   -7.1442    5.1450  -18.0219 N   0  0  0  0  0  0  0  0  0  0  0  0
   -7.0446    5.2862  -16.6583 C   0  0  0  0  0  0  0  0  0  0  0  0
   -8.1263    4.8316  -15.9330 C   0  0  0  0  0  0  0  0  0  0  0  0
   -9.3201    4.2318  -16.9672 S   0  0  0  0  0  0  0  0  0  0  0  0
   -8.2317    4.8398  -14.4486 C   0  0  0  0  0  0  0  0  0  0  0  0
   -7.2593    5.8956  -13.8887 C   0  0  1  0  0  0  0  0  0  0  0  0
   -7.1688    5.7890  -12.3650 C   0  0  0  0  0  0  0  0  0  0  0  0
   -7.0719    4.7689  -11.7891 O   0  0  0  0  0  0  0  0  0  0  0  0
   -7.1303    7.2150  -11.8485 N   0  0  0  0  0  0  0  0  0  0  0  0
   -6.8556    7.7522  -10.4637 C   0  0  0  0  0  0  0  0  0  0  0  0
   -7.2391    9.2191  -10.2851 C   0  0  1  0  0  0  0  0  0  0  0  0
   -6.1776   10.2097  -10.6264 C   0  0  0  0  0  0  0  0  0  0  0  0
   -5.9071   11.4280   -9.9539 C   0  0  0  0  0  0  0  0  0  0  0  0
   -4.8445   11.9811  -10.6248 C   0  0  0  0  0  0  0  0  0  0  0  0
   -4.5378   11.1065  -11.6230 N   0  0  0  0  0  0  0  0  0  0  0  0
   -5.3352   10.0290  -11.6515 N   0  0  0  0  0  0  0  0  0  0  0  0
   -8.4555    9.1827  -11.1599 C   0  0  0  0  0  0  0  0  0  0  0  0
   -9.7620    9.8032  -10.5743 C   0  0  0  0  0  0  0  0  0  0  0  0
   -9.4816   11.0568  -11.4241 C   0  0  0  0  0  0  0  0  0  0  0  0
   -8.6649   10.1575  -12.3707 C   0  0  0  0  0  0  0  0  0  0  0  0
   -8.5161    7.7028  -11.4819 C   0  0  0  0  0  0  0  0  0  0  0  0
   -5.8503    5.7292  -14.5045 C   0  0  0  0  0  0  0  0  0  0  0  0
   -5.8546    5.9207  -16.0310 C   0  0  0  0  0  0  0  0  0  0  0  0
  1  2  1  0
  2  3  2  0
  3  4  1  0
  4  5  2  0
  5  6  1  0
  5  7  1  0
  7  8  1  0
  8  9  1  1
  9 10  2  0
  9 11  1  0
 11 12  1  0
 12 13  1  0
 13 14  1  6
 14 15  1  0
 15 16  2  0
 16 17  1  0
 17 18  1  0
 13 19  1  0
 19 20  1  0
 20 21  1  0
 21 22  1  0
 19 23  1  0
  8 24  1  0
 24 25  1  0
  6  2  1  0
 23 11  1  0
 25  4  1  0
 18 14  2  0
 22 19  1  0
M  END
>  <energy_score>  (1170) 
-26.222397

>  <alias>  (1170) 
None

>  <HIPPO Pose ID>  (1170) 
70793

>  <smiles>  (1170) 
Cc1nc2c(s1)C[C@@H](C(=O)N1C[C@@H](c3cc[nH]n3)C3(CCC3)C1)CC2

>  <inchikey>  (1170) 
AMFZKPFKLLDUCI-KBPBESRZSA-N

>  <distance_score>  (1170) 
1.0935

>  <ref_mols>  (1170) 
Z0852a,Z0772a

>  <ref_pdb>  (1170) 
Z0852a

>  <HIPPO Compound ID>  (1170) 
143834

>  <name>  (1170) 
P70793

>  <inspiration_score>  (1170) 
None

$$$$
P70794
     RDKit          3D

 27 30  0  0  0  0  0  0  0  0999 V2000
   -6.2788    3.8098  -12.2830 C   0  0  0  0  0  0  0  0  0  0  0  0
   -7.6201    4.3456  -12.7432 C   0  0  0  0  0  0  0  0  0  0  0  0
   -7.5568    4.5142  -14.1634 O   0  0  0  0  0  0  0  0  0  0  0  0
   -8.7471    4.8468  -14.7417 C   0  0  0  0  0  0  0  0  0  0  0  0
   -9.7431    5.1980  -14.1183 O   0  0  0  0  0  0  0  0  0  0  0  0
   -8.6904    4.7468  -16.1851 C   0  0  0  0  0  0  0  0  0  0  0  0
   -9.7049    4.3287  -17.0665 C   0  0  0  0  0  0  0  0  0  0  0  0
   -9.3124    4.2733  -18.3324 N   0  0  0  0  0  0  0  0  0  0  0  0
   -8.0400    4.6787  -18.2825 N   0  0  0  0  0  0  0  0  0  0  0  0
   -7.6377    5.0748  -17.0285 C   0  0  0  0  0  0  0  0  0  0  0  0
   -6.3287    5.7256  -16.7390 C   0  0  1  0  0  0  0  0  0  0  0  0
   -5.1910    4.7823  -16.6642 C   0  0  0  0  0  0  0  0  0  0  0  0
   -4.2075    5.5435  -17.5223 C   0  0  0  0  0  0  0  0  0  0  0  0
   -4.8135    6.0830  -18.8073 N   0  0  0  0  0  0  0  0  0  0  0  0
   -5.0129    4.9777  -19.8292 C   0  0  0  0  0  0  0  0  0  0  0  0
   -5.9383    4.2726  -20.0188 O   0  0  0  0  0  0  0  0  0  0  0  0
   -3.8138    4.8955  -20.7908 C   0  0  2  0  0  0  0  0  0  0  0  0
   -2.4850    4.4544  -20.2292 C   0  0  0  0  0  0  0  0  0  0  0  0
   -1.7157    5.7354  -20.0443 C   0  0  0  0  0  0  0  0  0  0  0  0
   -2.2183    6.6690  -20.9994 O   0  0  0  0  0  0  0  0  0  0  0  0
   -3.5206    6.2397  -21.4372 C   0  0  1  0  0  0  0  0  0  0  0  0
   -3.4977    6.2007  -22.9365 C   0  0  0  0  0  0  0  0  0  0  0  0
   -4.4830    6.6290  -23.8082 C   0  0  0  0  0  0  0  0  0  0  0  0
   -4.2059    6.4890  -25.1538 N   0  0  0  0  0  0  0  0  0  0  0  0
   -3.0057    5.9715  -25.2938 C   0  0  0  0  0  0  0  0  0  0  0  0
   -2.1668    5.6020  -23.8478 S   0  0  0  0  0  0  0  0  0  0  0  0
   -5.7715    6.6771  -17.8003 C   0  0  0  0  0  0  0  0  0  0  0  0
  1  2  1  0
  2  3  1  0
  3  4  1  0
  4  5  2  0
  4  6  1  0
  6  7  1  0
  7  8  2  0
  8  9  1  0
  9 10  1  0
 11 10  1  6
 11 12  1  0
 12 13  1  0
 13 14  1  0
 14 15  1  0
 15 16  2  0
 17 15  1  1
 17 18  1  0
 18 19  1  0
 19 20  1  0
 20 21  1  0
 21 22  1  6
 22 23  2  0
 23 24  1  0
 24 25  2  0
 25 26  1  0
 14 27  1  0
 10  6  2  0
 27 11  1  0
 21 17  1  0
 26 22  1  0
M  END
>  <energy_score>  (1171) 
-23.188146

>  <alias>  (1171) 
None

>  <HIPPO Pose ID>  (1171) 
70794

>  <smiles>  (1171) 
CCOC(=O)c1cn[nH]c1[C@H]1CCN(C(=O)[C@@H]2CCO[C@H]2c2cncs2)C1

>  <inchikey>  (1171) 
NIMQLPIWQBJIJZ-HWWQOWPSSA-N

>  <distance_score>  (1171) 
1.648739

>  <ref_mols>  (1171) 
Z0852a,Z0772a

>  <ref_pdb>  (1171) 
Z0852a

>  <HIPPO Compound ID>  (1171) 
143845

>  <name>  (1171) 
P70794

>  <inspiration_score>  (1171) 
None

$$$$
P70795
     RDKit          3D

 30 34  0  0  0  0  0  0  0  0999 V2000
   -4.9974    8.6051  -16.5847 C   0  0  0  0  0  0  0  0  0  0  0  0
   -4.2575    7.3719  -16.6835 N   0  0  0  0  0  0  0  0  0  0  0  0
   -2.9197    7.4158  -16.5499 N   0  0  0  0  0  0  0  0  0  0  0  0
   -2.5499    6.1370  -16.5921 C   0  0  0  0  0  0  0  0  0  0  0  0
   -3.6407    5.2816  -16.8063 C   0  0  0  0  0  0  0  0  0  0  0  0
   -4.7475    6.1081  -16.9069 C   0  0  0  0  0  0  0  0  0  0  0  0
   -6.1983    5.7928  -17.1709 C   0  0  2  0  0  0  0  0  0  0  0  0
   -6.5121    4.3181  -17.0368 C   0  0  0  0  0  0  0  0  0  0  0  0
   -7.8680    4.1760  -17.5485 N   0  0  0  0  0  0  0  0  0  0  0  0
   -8.9996    4.2693  -16.6279 C   0  0  0  0  0  0  0  0  0  0  0  0
   -8.6987    4.7237  -15.2181 C   0  0  0  0  0  0  0  0  0  0  0  0
   -7.9820    3.9137  -14.3283 C   0  0  0  0  0  0  0  0  0  0  0  0
   -7.6311    4.3492  -13.0531 C   0  0  0  0  0  0  0  0  0  0  0  0
   -8.0232    5.6049  -12.6215 C   0  0  0  0  0  0  0  0  0  0  0  0
   -8.7866    6.4048  -13.4643 C   0  0  0  0  0  0  0  0  0  0  0  0
   -9.1387    5.9548  -14.7473 C   0  0  0  0  0  0  0  0  0  0  0  0
   -7.9318    5.0601  -18.7152 C   0  0  0  0  0  0  0  0  0  0  0  0
   -6.7178    6.0265  -18.6081 C   0  0  2  0  0  0  0  0  0  0  0  0
   -5.6521    5.8402  -19.5838 N   0  0  0  0  0  0  0  0  0  0  0  0
   -5.4585    4.7469  -20.6686 C   0  0  0  0  0  0  0  0  0  0  0  0
   -6.1618    3.8728  -20.9974 O   0  0  0  0  0  0  0  0  0  0  0  0
   -4.1013    4.9549  -21.3165 C   0  0  2  0  0  0  0  0  0  0  0  0
   -2.9134    4.9929  -20.3276 C   0  0  0  0  0  0  0  0  0  0  0  0
   -1.5825    4.9292  -21.0922 C   0  0  0  0  0  0  0  0  0  0  0  0
   -1.5955    5.8923  -22.2349 C   0  0  0  0  0  0  0  0  0  0  0  0
   -0.4324    6.3041  -22.8512 N   0  0  0  0  0  0  0  0  0  0  0  0
   -0.7332    7.1224  -23.8367 C   0  0  0  0  0  0  0  0  0  0  0  0
   -2.4037    7.4565  -24.0671 S   0  0  0  0  0  0  0  0  0  0  0  0
   -2.7577    6.4253  -22.7604 C   0  0  0  0  0  0  0  0  0  0  0  0
   -4.1331    6.1737  -22.2462 C   0  0  0  0  0  0  0  0  0  0  0  0
  1  2  1  0
  2  3  1  0
  3  4  2  0
  4  5  1  0
  5  6  2  0
  7  6  1  6
  7  8  1  0
  8  9  1  0
  9 10  1  0
 10 11  1  0
 11 12  2  0
 12 13  1  0
 13 14  2  0
 14 15  1  0
 15 16  2  0
  9 17  1  0
 17 18  1  0
 18 19  1  6
 19 20  1  0
 20 21  2  0
 22 20  1  1
 22 23  1  0
 23 24  1  0
 24 25  1  0
 25 26  1  0
 26 27  2  0
 27 28  1  0
 28 29  1  0
 29 30  1  0
  6  2  1  0
 18  7  1  0
 30 22  1  0
 16 11  1  0
 29 25  2  0
M  END
>  <energy_score>  (1172) 
-41.58939

>  <alias>  (1172) 
None

>  <HIPPO Pose ID>  (1172) 
70795

>  <smiles>  (1172) 
Cn1nccc1[C@@H]1CN(Cc2ccccc2)C[C@@H]1NC(=O)[C@@H]1CCc2ncsc2C1

>  <inchikey>  (1172) 
AVKLUIXCSONHJV-GGPKGHCWSA-N

>  <distance_score>  (1172) 
1.70764

>  <ref_mols>  (1172) 
Z0852a,Z0772a

>  <ref_pdb>  (1172) 
Z0852a

>  <HIPPO Compound ID>  (1172) 
143871

>  <name>  (1172) 
P70795

>  <inspiration_score>  (1172) 
None

$$$$
P70801
     RDKit          3D

 31 35  0  0  0  0  0  0  0  0999 V2000
    1.9490    6.8527  -21.3230 C   0  0  0  0  0  0  0  0  0  0  0  0
    0.5109    6.4763  -21.3178 C   0  0  0  0  0  0  0  0  0  0  0  0
   -0.3242    6.7066  -22.3122 N   0  0  0  0  0  0  0  0  0  0  0  0
   -1.5557    6.1765  -21.9984 C   0  0  0  0  0  0  0  0  0  0  0  0
   -1.6459    5.5750  -20.7622 C   0  0  0  0  0  0  0  0  0  0  0  0
   -0.1661    5.6995  -19.9349 S   0  0  0  0  0  0  0  0  0  0  0  0
   -2.8725    4.9661  -20.1853 C   0  0  0  0  0  0  0  0  0  0  0  0
   -4.0148    4.9557  -21.2293 C   0  0  1  0  0  0  0  0  0  0  0  0
   -5.3903    4.7405  -20.6107 C   0  0  0  0  0  0  0  0  0  0  0  0
   -6.0522    3.8232  -20.9058 O   0  0  0  0  0  0  0  0  0  0  0  0
   -5.6357    5.8649  -19.5668 N   0  0  0  0  0  0  0  0  0  0  0  0
   -6.7106    6.0384  -18.5978 C   0  0  1  0  0  0  0  0  0  0  0  0
   -7.8980    5.0363  -18.6832 C   0  0  0  0  0  0  0  0  0  0  0  0
   -7.8110    4.1805  -17.4932 N   0  0  0  0  0  0  0  0  0  0  0  0
   -8.9427    4.2673  -16.5689 C   0  0  0  0  0  0  0  0  0  0  0  0
   -8.6516    4.7162  -15.1595 C   0  0  0  0  0  0  0  0  0  0  0  0
   -9.0929    5.9489  -14.6927 C   0  0  0  0  0  0  0  0  0  0  0  0
   -8.7509    6.3937  -13.4064 C   0  0  0  0  0  0  0  0  0  0  0  0
   -7.9990    5.5869  -12.5591 C   0  0  0  0  0  0  0  0  0  0  0  0
   -7.6057    4.3304  -12.9902 C   0  0  0  0  0  0  0  0  0  0  0  0
   -7.9441    3.8993  -14.2695 C   0  0  0  0  0  0  0  0  0  0  0  0
   -6.4618    4.3725  -16.9825 C   0  0  0  0  0  0  0  0  0  0  0  0
   -6.1931    5.8546  -17.1507 C   0  0  1  0  0  0  0  0  0  0  0  0
   -4.7572    6.2173  -16.8643 C   0  0  0  0  0  0  0  0  0  0  0  0
   -3.6650    5.4174  -16.5672 C   0  0  0  0  0  0  0  0  0  0  0  0
   -2.5836    6.2965  -16.4107 C   0  0  0  0  0  0  0  0  0  0  0  0
   -2.9462    7.5666  -16.5783 N   0  0  0  0  0  0  0  0  0  0  0  0
   -4.2708    7.5017  -16.8045 N   0  0  0  0  0  0  0  0  0  0  0  0
   -4.9963    8.7405  -16.9327 C   0  0  0  0  0  0  0  0  0  0  0  0
   -4.0296    6.1795  -22.1596 C   0  0  0  0  0  0  0  0  0  0  0  0
   -2.7086    6.2787  -22.9343 C   0  0  0  0  0  0  0  0  0  0  0  0
  1  2  1  0
  2  3  2  0
  3  4  1  0
  4  5  2  0
  5  6  1  0
  5  7  1  0
  7  8  1  0
  8  9  1  1
  9 10  2  0
  9 11  1  0
 12 11  1  6
 12 13  1  0
 13 14  1  0
 14 15  1  0
 15 16  1  0
 16 17  2  0
 17 18  1  0
 18 19  2  0
 19 20  1  0
 20 21  2  0
 14 22  1  0
 22 23  1  0
 23 24  1  6
 24 25  2  0
 25 26  1  0
 26 27  2  0
 27 28  1  0
 28 29  1  0
  8 30  1  0
 30 31  1  0
  6  2  1  0
 23 12  1  0
 28 24  1  0
 31  4  1  0
 21 16  1  0
M  END
>  <energy_score>  (1173) 
-57.388352

>  <alias>  (1173) 
None

>  <HIPPO Pose ID>  (1173) 
70801

>  <smiles>  (1173) 
Cc1nc2c(s1)C[C@@H](C(=O)N[C@H]1CN(Cc3ccccc3)C[C@H]1c1ccnn1C)CC2

>  <inchikey>  (1173) 
REJYYQRAQWGKBT-ZVDOUQERSA-N

>  <distance_score>  (1173) 
1.729921

>  <ref_mols>  (1173) 
Z0852a,Z0772a

>  <ref_pdb>  (1173) 
Z0852a

>  <HIPPO Compound ID>  (1173) 
143874

>  <name>  (1173) 
P70801

>  <inspiration_score>  (1173) 
None

$$$$
P70802
     RDKit          3D

 32 36  0  0  0  0  0  0  0  0999 V2000
   -1.4504    2.5484  -27.1379 C   0  0  0  0  0  0  0  0  0  0  0  0
   -1.7233    4.0564  -27.1012 C   0  0  0  0  0  0  0  0  0  0  0  0
   -3.0020    4.3431  -27.9034 C   0  0  0  0  0  0  0  0  0  0  0  0
   -0.5751    4.8652  -27.7158 C   0  0  0  0  0  0  0  0  0  0  0  0
   -2.0269    4.4992  -25.7536 O   0  0  0  0  0  0  0  0  0  0  0  0
   -1.0954    4.4069  -24.7623 C   0  0  0  0  0  0  0  0  0  0  0  0
   -0.0058    4.0108  -24.9209 O   0  0  0  0  0  0  0  0  0  0  0  0
   -1.7785    4.8851  -23.5255 N   0  0  0  0  0  0  0  0  0  0  0  0
   -1.5958    6.3661  -23.3393 C   0  0  0  0  0  0  0  0  0  0  0  0
   -2.3959    6.8985  -22.1636 C   0  0  0  0  0  0  0  0  0  0  0  0
   -2.2362    5.7466  -21.2229 C   0  0  1  0  0  0  0  0  0  0  0  0
   -3.5532    5.1209  -20.9394 C   0  0  0  0  0  0  0  0  0  0  0  0
   -4.1474    4.2976  -21.8429 N   0  0  0  0  0  0  0  0  0  0  0  0
   -5.4016    3.9584  -21.5307 N   0  0  0  0  0  0  0  0  0  0  0  0
   -5.5864    4.5457  -20.3471 C   0  0  0  0  0  0  0  0  0  0  0  0
   -4.4481    5.2615  -19.9011 C   0  0  0  0  0  0  0  0  0  0  0  0
   -4.2290    6.0826  -18.6973 C   0  0  0  0  0  0  0  0  0  0  0  0
   -4.6888    5.4582  -17.4982 N   0  0  0  0  0  0  0  0  0  0  0  0
   -4.7194    5.9758  -16.0508 C   0  0  0  0  0  0  0  0  0  0  0  0
   -4.3033    6.9656  -15.5921 O   0  0  0  0  0  0  0  0  0  0  0  0
   -5.5523    4.9696  -15.1780 C   0  0  1  0  0  0  0  0  0  0  0  0
   -5.8772    5.4755  -13.7245 C   0  0  2  0  0  0  0  0  0  0  0  0
   -6.5481    4.2988  -13.0372 C   0  0  0  0  0  0  0  0  0  0  0  0
   -7.5299    3.9008  -14.1352 C   0  0  0  0  0  0  0  0  0  0  0  0
   -7.1391    4.9311  -15.1940 C   0  0  2  0  0  0  0  0  0  0  0  0
   -7.8735    4.9367  -16.5368 C   0  0  0  0  0  0  0  0  0  0  0  0
   -7.5659    5.7864  -17.5642 C   0  0  0  0  0  0  0  0  0  0  0  0
   -8.2269    5.5534  -18.7342 N   0  0  0  0  0  0  0  0  0  0  0  0
   -9.1102    4.5982  -18.5704 C   0  0  0  0  0  0  0  0  0  0  0  0
   -9.1905    3.9645  -16.9904 S   0  0  0  0  0  0  0  0  0  0  0  0
   -7.0568    6.2543  -14.3872 C   0  0  0  0  0  0  0  0  0  0  0  0
   -1.3134    4.9094  -22.0954 C   0  0  0  0  0  0  0  0  0  0  0  0
  1  2  1  0
  2  3  1  0
  2  4  1  0
  2  5  1  0
  5  6  1  0
  6  7  2  0
  6  8  1  0
  8  9  1  0
  9 10  1  0
 10 11  1  0
 11 12  1  6
 12 13  1  0
 13 14  1  0
 14 15  2  0
 15 16  1  0
 16 17  1  0
 17 18  1  0
 18 19  1  0
 19 20  2  0
 21 19  1  6
 21 22  1  0
 22 23  1  1
 23 24  1  0
 24 25  1  0
 25 26  1  6
 26 27  2  0
 27 28  1  0
 28 29  2  0
 29 30  1  0
 25 31  1  0
 11 32  1  0
 32  8  1  0
 16 12  2  0
 25 21  1  0
 30 26  1  0
 31 22  1  0
M  END
>  <energy_score>  (1174) 
-12.598696

>  <alias>  (1174) 
None

>  <HIPPO Pose ID>  (1174) 
70802

>  <smiles>  (1174) 
CC(C)(C)OC(=O)N1CC[C@@H](c2[nH]ncc2CNC(=O)[C@H]2[C@@H]3CC[C@@]2(c2cncs2)C3)C1

>  <inchikey>  (1174) 
UEYIFYIJGZRFCJ-WAAXPXDBSA-N

>  <distance_score>  (1174) 
1.861537

>  <ref_mols>  (1174) 
Z0852a,Z0772a

>  <ref_pdb>  (1174) 
Z0852a

>  <HIPPO Compound ID>  (1174) 
143879

>  <name>  (1174) 
P70802

>  <inspiration_score>  (1174) 
None

$$$$
P70803
     RDKit          3D

 20 22  0  0  0  0  0  0  0  0999 V2000
   -8.5425    3.6479  -18.6767 C   0  0  0  0  0  0  0  0  0  0  0  0
   -7.4759    3.9123  -17.6958 N   0  0  0  0  0  0  0  0  0  0  0  0
   -8.1217    4.0956  -16.3724 C   0  0  0  0  0  0  0  0  0  0  0  0
   -7.2535    4.4549  -15.1239 C   0  0  0  0  0  0  0  0  0  0  0  0
   -5.8685    4.9029  -15.3086 N   0  0  0  0  0  0  0  0  0  0  0  0
   -5.0208    4.8439  -14.1112 C   0  0  0  0  0  0  0  0  0  0  0  0
   -5.6653    5.3655  -12.8150 C   0  0  0  0  0  0  0  0  0  0  0  0
   -5.6082    6.4838  -12.4750 O   0  0  0  0  0  0  0  0  0  0  0  0
   -6.2579    4.1182  -12.0900 N   0  0  0  0  0  0  0  0  0  0  0  0
   -6.8120    3.9803  -10.7634 C   0  0  0  0  0  0  0  0  0  0  0  0
   -7.5725    5.2051  -10.2563 C   0  0  0  0  0  0  0  0  0  0  0  0
   -7.9971    4.9900   -8.8034 C   0  0  0  0  0  0  0  0  0  0  0  0
   -8.7869    3.6999   -8.6169 C   0  0  0  0  0  0  0  0  0  0  0  0
   -8.1355    2.4826   -9.2485 C   0  0  0  0  0  0  0  0  0  0  0  0
   -7.7080    2.7395  -10.6869 C   0  0  0  0  0  0  0  0  0  0  0  0
   -5.7597    6.1858  -15.9873 C   0  0  0  0  0  0  0  0  0  0  0  0
   -6.6064    6.2587  -17.2589 C   0  0  0  0  0  0  0  0  0  0  0  0
   -6.5729    5.0362  -18.1107 C   0  0  0  0  0  0  0  0  0  0  0  0
   -6.2046    5.1690  -19.5769 C   0  0  0  0  0  0  0  0  0  0  0  0
   -5.1735    4.7641  -18.5950 C   0  0  0  0  0  0  0  0  0  0  0  0
  1  2  1  0
  2  3  1  0
  3  4  1  0
  4  5  1  0
  5  6  1  0
  6  7  1  0
  7  8  2  0
  7  9  1  0
  9 10  1  0
 10 11  1  0
 11 12  1  0
 12 13  1  0
 13 14  1  0
 14 15  1  0
  5 16  1  0
 16 17  1  0
 17 18  1  0
 18 19  1  0
 19 20  1  0
 18  2  1  0
 15 10  1  0
 20 18  1  0
M  END
>  <energy_score>  (1175) 
-26.468497

>  <alias>  (1175) 
None

>  <HIPPO Pose ID>  (1175) 
70803

>  <smiles>  (1175) 
CN1CCN(CC(=O)NC2CCCCC2)CCC12CC2

>  <inchikey>  (1175) 
MLACVIJBRKMWTL-UHFFFAOYSA-N

>  <distance_score>  (1175) 
1.573797

>  <ref_mols>  (1175) 
Z3515a,Z0089a

>  <ref_pdb>  (1175) 
Z3515a

>  <HIPPO Compound ID>  (1175) 
143906

>  <name>  (1175) 
P70803

>  <inspiration_score>  (1175) 
None

$$$$
P70804
     RDKit          3D

 22 24  0  0  0  0  0  0  0  0999 V2000
   -9.4779    3.7849  -18.2183 C   0  0  0  0  0  0  0  0  0  0  0  0
   -8.4851    4.5202  -17.4429 N   0  0  0  0  0  0  0  0  0  0  0  0
   -8.5490    4.1788  -16.0195 C   0  0  0  0  0  0  0  0  0  0  0  0
   -8.1073    5.3330  -15.0908 C   0  0  0  0  0  0  0  0  0  0  0  0
   -6.6884    5.6716  -14.9163 N   0  0  0  0  0  0  0  0  0  0  0  0
   -5.9860    4.8136  -13.9565 C   0  0  0  0  0  0  0  0  0  0  0  0
   -6.2857    5.2733  -12.5168 C   0  0  0  0  0  0  0  0  0  0  0  0
   -5.8532    6.2602  -12.0575 O   0  0  0  0  0  0  0  0  0  0  0  0
   -7.1658    4.1594  -11.8710 N   0  0  0  0  0  0  0  0  0  0  0  0
   -7.7452    4.0857  -10.6119 C   0  0  0  0  0  0  0  0  0  0  0  0
   -7.5046    5.0492   -9.6369 C   0  0  0  0  0  0  0  0  0  0  0  0
   -8.0279    4.8717   -8.3569 C   0  0  0  0  0  0  0  0  0  0  0  0
   -8.7724    3.7311   -8.0639 C   0  0  0  0  0  0  0  0  0  0  0  0
   -9.2541    3.5742   -6.8241 F   0  0  0  0  0  0  0  0  0  0  0  0
   -9.0463    2.7795   -9.0365 C   0  0  0  0  0  0  0  0  0  0  0  0
   -8.5447    2.9787  -10.3142 C   0  0  0  0  0  0  0  0  0  0  0  0
   -8.8294    2.1025  -11.2894 F   0  0  0  0  0  0  0  0  0  0  0  0
   -5.9605    5.7997  -16.1711 C   0  0  0  0  0  0  0  0  0  0  0  0
   -5.9713    4.5739  -17.0676 C   0  0  0  0  0  0  0  0  0  0  0  0
   -7.1194    4.5814  -18.0290 C   0  0  0  0  0  0  0  0  0  0  0  0
   -6.8501    4.1466  -19.4542 C   0  0  0  0  0  0  0  0  0  0  0  0
   -6.9198    5.5968  -19.1178 C   0  0  0  0  0  0  0  0  0  0  0  0
  1  2  1  0
  2  3  1  0
  3  4  1  0
  4  5  1  0
  5  6  1  0
  6  7  1  0
  7  8  2  0
  7  9  1  0
  9 10  1  0
 10 11  2  0
 11 12  1  0
 12 13  2  0
 13 14  1  0
 13 15  1  0
 15 16  2  0
 16 17  1  0
  5 18  1  0
 18 19  1  0
 19 20  1  0
 20 21  1  0
 21 22  1  0
 20  2  1  0
 16 10  1  0
 22 20  1  0
M  END
>  <energy_score>  (1176) 
-41.443495

>  <alias>  (1176) 
None

>  <HIPPO Pose ID>  (1176) 
70804

>  <smiles>  (1176) 
CN1CCN(CC(=O)Nc2ccc(F)cc2F)CCC12CC2

>  <inchikey>  (1176) 
GDCNHPZERGDRDX-UHFFFAOYSA-N

>  <distance_score>  (1176) 
1.742807

>  <ref_mols>  (1176) 
Z0089a,Z3515a

>  <ref_pdb>  (1176) 
Z3515a

>  <HIPPO Compound ID>  (1176) 
143910

>  <name>  (1176) 
P70804

>  <inspiration_score>  (1176) 
None

$$$$
P70805
     RDKit          3D

 22 24  0  0  0  0  0  0  0  0999 V2000
   -9.0562    3.8756   -6.3900 C   0  0  0  0  0  0  0  0  0  0  0  0
   -8.5687    4.1246   -7.7840 C   0  0  0  0  0  0  0  0  0  0  0  0
   -7.8200    5.2712   -8.0919 C   0  0  0  0  0  0  0  0  0  0  0  0
   -7.3105    5.4758   -9.3791 C   0  0  0  0  0  0  0  0  0  0  0  0
   -7.5668    4.5390  -10.3667 C   0  0  0  0  0  0  0  0  0  0  0  0
   -6.9741    4.5822  -11.6248 N   0  0  0  0  0  0  0  0  0  0  0  0
   -5.9001    5.5522  -12.2052 C   0  0  0  0  0  0  0  0  0  0  0  0
   -5.4094    6.5070  -11.7385 O   0  0  0  0  0  0  0  0  0  0  0  0
   -5.4862    4.9382  -13.5596 C   0  0  0  0  0  0  0  0  0  0  0  0
   -6.1126    5.6027  -14.7165 N   0  0  0  0  0  0  0  0  0  0  0  0
   -7.5759    5.4836  -14.7829 C   0  0  0  0  0  0  0  0  0  0  0  0
   -8.1969    4.3162  -15.5755 C   0  0  0  0  0  0  0  0  0  0  0  0
   -8.3962    4.6167  -16.9944 N   0  0  0  0  0  0  0  0  0  0  0  0
   -9.4058    3.7282  -17.5665 C   0  0  0  0  0  0  0  0  0  0  0  0
   -7.1682    4.8276  -17.8097 C   0  0  0  0  0  0  0  0  0  0  0  0
   -6.0524    5.6524  -17.2158 C   0  0  0  0  0  0  0  0  0  0  0  0
   -5.4742    5.1059  -15.9345 C   0  0  0  0  0  0  0  0  0  0  0  0
   -6.8431    3.9589  -19.0100 C   0  0  0  0  0  0  0  0  0  0  0  0
   -7.4315    5.3066  -19.1978 C   0  0  0  0  0  0  0  0  0  0  0  0
   -8.3997    3.4502  -10.0830 C   0  0  0  0  0  0  0  0  0  0  0  0
   -8.8397    2.3825  -11.3452 Cl  0  0  0  0  0  0  0  0  0  0  0  0
   -8.8847    3.2250   -8.8018 C   0  0  0  0  0  0  0  0  0  0  0  0
  1  2  1  0
  2  3  2  0
  3  4  1  0
  4  5  2  0
  5  6  1  0
  6  7  1  0
  7  8  2  0
  7  9  1  0
  9 10  1  0
 10 11  1  0
 11 12  1  0
 12 13  1  0
 13 14  1  0
 13 15  1  0
 15 16  1  0
 16 17  1  0
 15 18  1  0
 18 19  1  0
  5 20  1  0
 20 21  1  0
 20 22  2  0
 22  2  1  0
 17 10  1  0
 19 15  1  0
M  END
>  <energy_score>  (1177) 
-49.724307

>  <alias>  (1177) 
None

>  <HIPPO Pose ID>  (1177) 
70805

>  <smiles>  (1177) 
Cc1ccc(NC(=O)CN2CCN(C)C3(CC2)CC3)c(Cl)c1

>  <inchikey>  (1177) 
WVYSPXMXVNLHRJ-UHFFFAOYSA-N

>  <distance_score>  (1177) 
1.79503

>  <ref_mols>  (1177) 
Z0089a,Z3515a

>  <ref_pdb>  (1177) 
Z3515a

>  <HIPPO Compound ID>  (1177) 
143912

>  <name>  (1177) 
P70805

>  <inspiration_score>  (1177) 
None

$$$$
P70806
     RDKit          3D

 23 25  0  0  0  0  0  0  0  0999 V2000
   -9.1450    3.5619   -6.4929 C   0  0  0  0  0  0  0  0  0  0  0  0
   -8.7167    3.9832   -7.8640 C   0  0  0  0  0  0  0  0  0  0  0  0
   -8.2447    5.2758   -8.1024 C   0  0  0  0  0  0  0  0  0  0  0  0
   -7.7473    5.6825   -9.3618 C   0  0  0  0  0  0  0  0  0  0  0  0
   -7.2419    7.0917   -9.4371 C   0  0  0  0  0  0  0  0  0  0  0  0
   -7.7132    4.7452  -10.4027 C   0  0  0  0  0  0  0  0  0  0  0  0
   -7.0627    4.8692  -11.6437 N   0  0  0  0  0  0  0  0  0  0  0  0
   -6.4461    6.1229  -12.3462 C   0  0  0  0  0  0  0  0  0  0  0  0
   -6.4568    7.2514  -12.0312 O   0  0  0  0  0  0  0  0  0  0  0  0
   -5.6751    5.5796  -13.5614 C   0  0  0  0  0  0  0  0  0  0  0  0
   -6.4685    5.5797  -14.8126 N   0  0  0  0  0  0  0  0  0  0  0  0
   -7.6183    4.6600  -14.7478 C   0  0  0  0  0  0  0  0  0  0  0  0
   -8.5211    4.5149  -15.9907 C   0  0  0  0  0  0  0  0  0  0  0  0
   -7.9261    3.8181  -17.1416 N   0  0  0  0  0  0  0  0  0  0  0  0
   -8.9943    3.1511  -17.8936 C   0  0  0  0  0  0  0  0  0  0  0  0
   -7.0228    4.6719  -17.9538 C   0  0  0  0  0  0  0  0  0  0  0  0
   -6.0998    5.6205  -17.2435 C   0  0  0  0  0  0  0  0  0  0  0  0
   -5.5798    5.1750  -15.9037 C   0  0  0  0  0  0  0  0  0  0  0  0
   -6.5400    4.1840  -19.3096 C   0  0  0  0  0  0  0  0  0  0  0  0
   -7.5415    5.2833  -19.2016 C   0  0  0  0  0  0  0  0  0  0  0  0
   -8.2969    3.4692  -10.1888 C   0  0  0  0  0  0  0  0  0  0  0  0
   -8.4558    2.4698  -11.2983 C   0  0  0  0  0  0  0  0  0  0  0  0
   -8.7485    3.0852   -8.9196 C   0  0  0  0  0  0  0  0  0  0  0  0
  1  2  1  0
  2  3  2  0
  3  4  1  0
  4  5  1  0
  4  6  2  0
  6  7  1  0
  7  8  1  0
  8  9  2  0
  8 10  1  0
 10 11  1  0
 11 12  1  0
 12 13  1  0
 13 14  1  0
 14 15  1  0
 14 16  1  0
 16 17  1  0
 17 18  1  0
 16 19  1  0
 19 20  1  0
  6 21  1  0
 21 22  1  0
 21 23  2  0
 23  2  1  0
 18 11  1  0
 20 16  1  0
M  END
>  <energy_score>  (1178) 
-41.425563

>  <alias>  (1178) 
None

>  <HIPPO Pose ID>  (1178) 
70806

>  <smiles>  (1178) 
Cc1cc(C)c(NC(=O)CN2CCN(C)C3(CC2)CC3)c(C)c1

>  <inchikey>  (1178) 
DFQPYOKHPYIZDE-UHFFFAOYSA-N

>  <distance_score>  (1178) 
1.794886

>  <ref_mols>  (1178) 
Z0089a,Z3515a

>  <ref_pdb>  (1178) 
Z3515a

>  <HIPPO Compound ID>  (1178) 
143913

>  <name>  (1178) 
P70806

>  <inspiration_score>  (1178) 
None

$$$$
P70807
     RDKit          3D

 23 25  0  0  0  0  0  0  0  0999 V2000
   -8.9526    4.6847  -14.7350 C   0  0  0  0  0  0  0  0  0  0  0  0
   -7.4190    4.7940  -14.7486 C   0  0  2  0  0  0  0  0  0  0  0  0
   -7.0228    5.4573  -13.3694 C   0  0  0  0  0  0  0  0  0  0  0  0
   -6.5238    6.5096  -13.2297 O   0  0  0  0  0  0  0  0  0  0  0  0
   -7.5493    4.4304  -12.3010 N   0  0  0  0  0  0  0  0  0  0  0  0
   -7.6468    4.5377  -10.9126 C   0  0  0  0  0  0  0  0  0  0  0  0
   -7.2184    5.6231  -10.1686 C   0  0  0  0  0  0  0  0  0  0  0  0
   -7.4534    5.6365   -8.7820 C   0  0  0  0  0  0  0  0  0  0  0  0
   -8.1009    4.5658   -8.1504 C   0  0  0  0  0  0  0  0  0  0  0  0
   -8.4189    4.5949   -6.4618 Cl  0  0  0  0  0  0  0  0  0  0  0  0
   -8.5372    3.4811   -8.8850 C   0  0  0  0  0  0  0  0  0  0  0  0
   -8.3293    3.4940  -10.2558 C   0  0  0  0  0  0  0  0  0  0  0  0
   -9.0660    2.2601  -11.1790 Cl  0  0  0  0  0  0  0  0  0  0  0  0
   -6.9590    5.5658  -15.9428 N   0  0  0  0  0  0  0  0  0  0  0  0
   -5.5425    5.3219  -16.2662 C   0  0  0  0  0  0  0  0  0  0  0  0
   -5.2962    4.2870  -17.4213 C   0  0  0  0  0  0  0  0  0  0  0  0
   -5.5949    4.5131  -18.8524 N   0  0  0  0  0  0  0  0  0  0  0  0
   -6.5773    3.6481  -19.5300 C   0  0  0  0  0  0  0  0  0  0  0  0
   -6.0231    5.8591  -19.0044 C   0  0  0  0  0  0  0  0  0  0  0  0
   -7.3547    6.0931  -18.3787 C   0  0  0  0  0  0  0  0  0  0  0  0
   -7.7569    5.2520  -17.1404 C   0  0  0  0  0  0  0  0  0  0  0  0
   -5.6512    6.5975  -20.2626 C   0  0  0  0  0  0  0  0  0  0  0  0
   -4.9609    6.9401  -18.9866 C   0  0  0  0  0  0  0  0  0  0  0  0
  2  1  1  1
  2  3  1  0
  3  4  2  0
  3  5  1  0
  5  6  1  0
  6  7  2  0
  7  8  1  0
  8  9  2  0
  9 10  1  0
  9 11  1  0
 11 12  2  0
 12 13  1  0
  2 14  1  0
 14 15  1  0
 15 16  1  0
 16 17  1  0
 17 18  1  0
 17 19  1  0
 19 20  1  0
 20 21  1  0
 19 22  1  0
 22 23  1  0
 12  6  1  0
 21 14  1  0
 23 19  1  0
M  END
>  <energy_score>  (1179) 
-18.471832

>  <alias>  (1179) 
None

>  <HIPPO Pose ID>  (1179) 
70807

>  <smiles>  (1179) 
C[C@H](C(=O)Nc1ccc(Cl)cc1Cl)N1CCN(C)C2(CC1)CC2

>  <inchikey>  (1179) 
VURVXIFREQRDDD-GFCCVEGCSA-N

>  <distance_score>  (1179) 
1.773271

>  <ref_mols>  (1179) 
Z0089a,Z3515a

>  <ref_pdb>  (1179) 
Z3515a

>  <HIPPO Compound ID>  (1179) 
143914

>  <name>  (1179) 
P70807

>  <inspiration_score>  (1179) 
None

$$$$
P70808
     RDKit          3D

 23 25  0  0  0  0  0  0  0  0999 V2000
   -9.4773    1.3763   -7.2465 C   0  0  0  0  0  0  0  0  0  0  0  0
   -9.0650    2.6286   -6.5061 C   0  0  0  0  0  0  0  0  0  0  0  0
   -9.1975    3.8343   -7.2595 O   0  0  0  0  0  0  0  0  0  0  0  0
   -8.4575    3.8758   -8.4078 C   0  0  0  0  0  0  0  0  0  0  0  0
   -7.3225    4.6739   -8.4413 C   0  0  0  0  0  0  0  0  0  0  0  0
   -6.7130    4.9626   -9.6650 C   0  0  0  0  0  0  0  0  0  0  0  0
   -7.2824    4.5023  -10.8518 C   0  0  0  0  0  0  0  0  0  0  0  0
   -6.9566    5.1134  -12.0534 N   0  0  0  0  0  0  0  0  0  0  0  0
   -5.6723    5.8994  -12.4772 C   0  0  0  0  0  0  0  0  0  0  0  0
   -4.6684    6.0800  -11.9007 O   0  0  0  0  0  0  0  0  0  0  0  0
   -5.9999    6.5311  -13.8313 C   0  0  0  0  0  0  0  0  0  0  0  0
   -5.6131    5.8553  -15.0978 N   0  0  0  0  0  0  0  0  0  0  0  0
   -6.1321    4.4940  -15.2575 C   0  0  0  0  0  0  0  0  0  0  0  0
   -7.4566    4.2649  -16.0387 C   0  0  0  0  0  0  0  0  0  0  0  0
   -7.2556    4.1083  -17.4867 N   0  0  0  0  0  0  0  0  0  0  0  0
   -8.5381    3.9698  -18.1795 C   0  0  0  0  0  0  0  0  0  0  0  0
   -6.2976    5.0508  -18.1247 C   0  0  0  0  0  0  0  0  0  0  0  0
   -6.2387    6.4559  -17.6575 C   0  0  0  0  0  0  0  0  0  0  0  0
   -6.1621    6.7170  -16.1484 C   0  0  0  0  0  0  0  0  0  0  0  0
   -5.9950    4.7674  -19.5834 C   0  0  0  0  0  0  0  0  0  0  0  0
   -4.9252    4.6341  -18.5619 C   0  0  0  0  0  0  0  0  0  0  0  0
   -8.3758    3.6429  -10.8136 C   0  0  0  0  0  0  0  0  0  0  0  0
   -8.9559    3.3267   -9.5873 C   0  0  0  0  0  0  0  0  0  0  0  0
  1  2  1  0
  2  3  1  0
  3  4  1  0
  4  5  2  0
  5  6  1  0
  6  7  2  0
  7  8  1  0
  8  9  1  0
  9 10  2  0
  9 11  1  0
 11 12  1  0
 12 13  1  0
 13 14  1  0
 14 15  1  0
 15 16  1  0
 15 17  1  0
 17 18  1  0
 18 19  1  0
 17 20  1  0
 20 21  1  0
  7 22  1  0
 22 23  2  0
 23  4  1  0
 19 12  1  0
 21 17  1  0
M  END
>  <energy_score>  (1180) 
-0.98653

>  <alias>  (1180) 
None

>  <HIPPO Pose ID>  (1180) 
70808

>  <smiles>  (1180) 
CCOc1ccc(NC(=O)CN2CCN(C)C3(CC2)CC3)cc1

>  <inchikey>  (1180) 
OURWPCDOPDWVCU-UHFFFAOYSA-N

>  <distance_score>  (1180) 
1.562515

>  <ref_mols>  (1180) 
Z0089a,Z3515a

>  <ref_pdb>  (1180) 
Z3515a

>  <HIPPO Compound ID>  (1180) 
143915

>  <name>  (1180) 
P70808

>  <inspiration_score>  (1180) 
None

$$$$
P70809
     RDKit          3D

 24 27  0  0  0  0  0  0  0  0999 V2000
   -8.1580    3.6548  -14.0870 C   0  0  0  0  0  0  0  0  0  0  0  0
   -6.9169    4.5287  -13.9392 C   0  0  2  0  0  0  0  0  0  0  0  0
   -7.1785    5.3144  -12.6123 C   0  0  0  0  0  0  0  0  0  0  0  0
   -7.3682    6.4685  -12.5246 O   0  0  0  0  0  0  0  0  0  0  0  0
   -7.2241    4.1898  -11.5158 N   0  0  0  0  0  0  0  0  0  0  0  0
   -7.5870    4.2501  -10.1875 C   0  0  0  0  0  0  0  0  0  0  0  0
   -7.7547    5.4537   -9.4980 C   0  0  0  0  0  0  0  0  0  0  0  0
   -8.2784    5.4369   -8.2026 C   0  0  0  0  0  0  0  0  0  0  0  0
   -8.6568    4.2187   -7.6718 C   0  0  0  0  0  0  0  0  0  0  0  0
   -8.5213    3.0468   -8.3730 C   0  0  0  0  0  0  0  0  0  0  0  0
   -7.9594    3.0243   -9.6208 C   0  0  0  0  0  0  0  0  0  0  0  0
   -9.0222    1.9722   -7.7132 O   0  0  0  0  0  0  0  0  0  0  0  0
   -9.3304    2.5723   -6.4451 C   0  0  0  0  0  0  0  0  0  0  0  0
   -9.2282    4.0197   -6.4534 O   0  0  0  0  0  0  0  0  0  0  0  0
   -6.7588    5.4235  -15.0871 N   0  0  0  0  0  0  0  0  0  0  0  0
   -7.9425    5.6577  -15.9073 C   0  0  0  0  0  0  0  0  0  0  0  0
   -8.4708    4.6348  -16.9491 C   0  0  0  0  0  0  0  0  0  0  0  0
   -7.9129    4.8478  -18.2905 N   0  0  0  0  0  0  0  0  0  0  0  0
   -8.4095    3.8057  -19.1865 C   0  0  0  0  0  0  0  0  0  0  0  0
   -6.4451    5.0524  -18.2992 C   0  0  0  0  0  0  0  0  0  0  0  0
   -5.6632    4.4660  -17.1495 C   0  0  0  0  0  0  0  0  0  0  0  0
   -5.5422    5.3030  -15.8739 C   0  0  0  0  0  0  0  0  0  0  0  0
   -5.7202    5.1546  -19.6214 C   0  0  0  0  0  0  0  0  0  0  0  0
   -5.9580    6.3876  -18.8261 C   0  0  0  0  0  0  0  0  0  0  0  0
  2  1  1  6
  2  3  1  0
  3  4  2  0
  3  5  1  0
  5  6  1  0
  6  7  2  0
  7  8  1  0
  8  9  2  0
  9 10  1  0
 10 11  2  0
 10 12  1  0
 12 13  1  0
 13 14  1  0
  2 15  1  0
 15 16  1  0
 16 17  1  0
 17 18  1  0
 18 19  1  0
 18 20  1  0
 20 21  1  0
 21 22  1  0
 20 23  1  0
 23 24  1  0
 11  6  1  0
 22 15  1  0
 14  9  1  0
 24 20  1  0
M  END
>  <energy_score>  (1181) 
-44.516046

>  <alias>  (1181) 
None

>  <HIPPO Pose ID>  (1181) 
70809

>  <smiles>  (1181) 
C[C@H](C(=O)Nc1ccc2c(c1)OCO2)N1CCN(C)C2(CC1)CC2

>  <inchikey>  (1181) 
PZUZAJKXUGESKP-CYBMUJFWSA-N

>  <distance_score>  (1181) 
1.491718

>  <ref_mols>  (1181) 
Z3515a,Z0089a

>  <ref_pdb>  (1181) 
Z3515a

>  <HIPPO Compound ID>  (1181) 
143917

>  <name>  (1181) 
P70809

>  <inspiration_score>  (1181) 
None

$$$$
P70811
     RDKit          3D

 25 28  0  0  0  0  0  0  0  0999 V2000
   -6.4762    5.8862  -18.8926 C   0  0  0  0  0  0  0  0  0  0  0  0
   -7.0186    5.4513  -17.6056 N   0  0  0  0  0  0  0  0  0  0  0  0
   -5.9668    4.7969  -16.8249 C   0  0  0  0  0  0  0  0  0  0  0  0
   -5.9988    5.0850  -15.3156 C   0  0  0  0  0  0  0  0  0  0  0  0
   -7.2533    4.9991  -14.5679 N   0  0  0  0  0  0  0  0  0  0  0  0
   -7.7491    6.2966  -14.0950 C   0  0  0  0  0  0  0  0  0  0  0  0
   -7.6168    6.4440  -12.5637 C   0  0  0  0  0  0  0  0  0  0  0  0
   -7.4371    7.4805  -12.0472 O   0  0  0  0  0  0  0  0  0  0  0  0
   -7.8693    5.0352  -11.9422 N   0  0  0  0  0  0  0  0  0  0  0  0
   -8.0393    4.6505  -10.6166 C   0  0  0  0  0  0  0  0  0  0  0  0
   -7.9059    5.5846   -9.5775 C   0  0  0  0  0  0  0  0  0  0  0  0
   -8.1410    5.2147   -8.2513 C   0  0  0  0  0  0  0  0  0  0  0  0
   -8.5315    3.9174   -8.0061 C   0  0  0  0  0  0  0  0  0  0  0  0
   -8.6737    2.9999   -9.0216 C   0  0  0  0  0  0  0  0  0  0  0  0
   -8.4132    3.3287  -10.3377 C   0  0  0  0  0  0  0  0  0  0  0  0
   -9.1175    1.7963   -8.5708 O   0  0  0  0  0  0  0  0  0  0  0  0
   -9.2551    2.0844   -7.1731 C   0  0  0  0  0  0  0  0  0  0  0  0
   -8.5668    1.1717   -6.4618 F   0  0  0  0  0  0  0  0  0  0  0  0
  -10.5602    1.9487   -6.8348 F   0  0  0  0  0  0  0  0  0  0  0  0
   -8.8387    3.4055   -6.7851 O   0  0  0  0  0  0  0  0  0  0  0  0
   -8.2797    4.1279  -15.1338 C   0  0  0  0  0  0  0  0  0  0  0  0
   -9.0363    4.5486  -16.3830 C   0  0  0  0  0  0  0  0  0  0  0  0
   -8.2286    4.5788  -17.6605 C   0  0  0  0  0  0  0  0  0  0  0  0
   -9.0884    4.4844  -18.8920 C   0  0  0  0  0  0  0  0  0  0  0  0
   -8.2127    3.3414  -18.5323 C   0  0  0  0  0  0  0  0  0  0  0  0
  1  2  1  0
  2  3  1  0
  3  4  1  0
  4  5  1  0
  5  6  1  0
  6  7  1  0
  7  8  2  0
  7  9  1  0
  9 10  1  0
 10 11  2  0
 11 12  1  0
 12 13  2  0
 13 14  1  0
 14 15  2  0
 14 16  1  0
 16 17  1  0
 17 18  1  0
 17 19  1  0
 17 20  1  0
  5 21  1  0
 21 22  1  0
 22 23  1  0
 23 24  1  0
 24 25  1  0
 23  2  1  0
 15 10  1  0
 25 23  1  0
 20 13  1  0
M  END
>  <energy_score>  (1182) 
-74.051693

>  <alias>  (1182) 
None

>  <HIPPO Pose ID>  (1182) 
70811

>  <smiles>  (1182) 
CN1CCN(CC(=O)Nc2ccc3c(c2)OC(F)(F)O3)CCC12CC2

>  <inchikey>  (1182) 
OEWOPDUJAZOKMO-UHFFFAOYSA-N

>  <distance_score>  (1182) 
1.794077

>  <ref_mols>  (1182) 
Z3515a,Z0089a

>  <ref_pdb>  (1182) 
Z3515a

>  <HIPPO Compound ID>  (1182) 
143919

>  <name>  (1182) 
P70811

>  <inspiration_score>  (1182) 
None

$$$$
P70816
     RDKit          3D

 12 13  0  0  0  0  0  0  0  0999 V2000
   -8.9188    4.5246  -15.3605 C   0  0  0  0  0  0  0  0  0  0  0  0
   -8.1128    4.7592  -16.2130 C   0  0  0  0  0  0  0  0  0  0  0  0
   -7.0933    4.9757  -17.1698 C   0  0  0  0  0  0  0  0  0  0  0  0
   -7.2211    4.5743  -18.4860 C   0  0  0  0  0  0  0  0  0  0  0  0
   -6.2070    4.7084  -19.3666 N   0  0  0  0  0  0  0  0  0  0  0  0
   -5.0797    5.2708  -18.8955 C   0  0  0  0  0  0  0  0  0  0  0  0
   -4.0400    5.4017  -19.8249 N   0  0  0  0  0  0  0  0  0  0  0  0
   -2.6920    5.0480  -19.3951 C   0  0  0  0  0  0  0  0  0  0  0  0
   -1.4968    5.4618  -20.1949 C   0  0  0  0  0  0  0  0  0  0  0  0
   -1.7636    6.1067  -18.8676 C   0  0  0  0  0  0  0  0  0  0  0  0
   -4.9777    5.6882  -17.5679 C   0  0  0  0  0  0  0  0  0  0  0  0
   -5.9789    5.5584  -16.6741 N   0  0  0  0  0  0  0  0  0  0  0  0
  1  2  3  0
  2  3  1  0
  3  4  2  0
  4  5  1  0
  5  6  2  0
  6  7  1  0
  7  8  1  0
  8  9  1  0
  9 10  1  0
  6 11  1  0
 11 12  2  0
 12  3  1  0
 10  8  1  0
M  END
>  <energy_score>  (1183) 
-10.754223

>  <alias>  (1183) 
None

>  <HIPPO Pose ID>  (1183) 
70816

>  <smiles>  (1183) 
C#Cc1cnc(NC2CC2)cn1

>  <inchikey>  (1183) 
QNNPRKYHAGBTII-UHFFFAOYSA-N

>  <distance_score>  (1183) 
1.111101

>  <ref_mols>  (1183) 
Z0875a,Z0089a

>  <ref_pdb>  (1183) 
Z0089a

>  <HIPPO Compound ID>  (1183) 
144001

>  <name>  (1183) 
P70816

>  <inspiration_score>  (1183) 
None

$$$$
P70817
     RDKit          3D

 12 13  0  0  0  0  0  0  0  0999 V2000
   -9.4058    4.0760  -16.5964 C   0  0  0  0  0  0  0  0  0  0  0  0
   -8.1534    4.7379  -16.0650 C   0  0  0  0  0  0  0  0  0  0  0  0
   -7.0795    4.9895  -17.0773 C   0  0  0  0  0  0  0  0  0  0  0  0
   -7.1988    4.6591  -18.4229 C   0  0  0  0  0  0  0  0  0  0  0  0
   -6.1863    4.8023  -19.3025 N   0  0  0  0  0  0  0  0  0  0  0  0
   -5.0444    5.3093  -18.8195 C   0  0  0  0  0  0  0  0  0  0  0  0
   -4.0092    5.4355  -19.7537 N   0  0  0  0  0  0  0  0  0  0  0  0
   -2.6642    5.0569  -19.3410 C   0  0  0  0  0  0  0  0  0  0  0  0
   -1.4716    5.4552  -20.1523 C   0  0  0  0  0  0  0  0  0  0  0  0
   -1.7141    6.0990  -18.8197 C   0  0  0  0  0  0  0  0  0  0  0  0
   -4.9319    5.6748  -17.4814 C   0  0  0  0  0  0  0  0  0  0  0  0
   -5.9356    5.5329  -16.5887 N   0  0  0  0  0  0  0  0  0  0  0  0
  1  2  1  0
  2  3  1  0
  3  4  2  0
  4  5  1  0
  5  6  2  0
  6  7  1  0
  7  8  1  0
  8  9  1  0
  9 10  1  0
  6 11  1  0
 11 12  2  0
 12  3  1  0
 10  8  1  0
M  END
>  <energy_score>  (1184) 
-19.638991

>  <alias>  (1184) 
None

>  <HIPPO Pose ID>  (1184) 
70817

>  <smiles>  (1184) 
CCc1cnc(NC2CC2)cn1

>  <inchikey>  (1184) 
ZRAWYPSAFDCBCB-UHFFFAOYSA-N

>  <distance_score>  (1184) 
0.817671

>  <ref_mols>  (1184) 
Z0875a,Z0089a

>  <ref_pdb>  (1184) 
Z0089a

>  <HIPPO Compound ID>  (1184) 
144002

>  <name>  (1184) 
P70817

>  <inspiration_score>  (1184) 
None

$$$$
P70818
     RDKit          3D

 12 13  0  0  0  0  0  0  0  0999 V2000
   -9.8745    3.7834  -18.2814 N   0  0  0  0  0  0  0  0  0  0  0  0
   -8.7718    4.1428  -18.2298 C   0  0  0  0  0  0  0  0  0  0  0  0
   -7.4551    4.6136  -17.9359 C   0  0  0  0  0  0  0  0  0  0  0  0
   -7.1651    4.9743  -16.6284 C   0  0  0  0  0  0  0  0  0  0  0  0
   -5.9655    5.4732  -16.2592 N   0  0  0  0  0  0  0  0  0  0  0  0
   -5.0617    5.5561  -17.2628 C   0  0  0  0  0  0  0  0  0  0  0  0
   -5.3291    5.1814  -18.5860 C   0  0  0  0  0  0  0  0  0  0  0  0
   -4.3664    5.2967  -19.6059 N   0  0  0  0  0  0  0  0  0  0  0  0
   -2.9752    4.9653  -19.2997 C   0  0  0  0  0  0  0  0  0  0  0  0
   -1.8563    5.4130  -20.1912 C   0  0  0  0  0  0  0  0  0  0  0  0
   -2.0152    6.0252  -18.8326 C   0  0  0  0  0  0  0  0  0  0  0  0
   -6.5442    4.7114  -18.9375 N   0  0  0  0  0  0  0  0  0  0  0  0
  1  2  3  0
  2  3  1  0
  3  4  2  0
  4  5  1  0
  5  6  2  0
  6  7  1  0
  7  8  1  0
  8  9  1  0
  9 10  1  0
 10 11  1  0
  7 12  2  0
 12  3  1  0
 11  9  1  0
M  END
>  <energy_score>  (1185) 
-9.02402

>  <alias>  (1185) 
None

>  <HIPPO Pose ID>  (1185) 
70818

>  <smiles>  (1185) 
N#Cc1cncc(NC2CC2)n1

>  <inchikey>  (1185) 
DVTRWKTXEAWMOO-UHFFFAOYSA-N

>  <distance_score>  (1185) 
0.817006

>  <ref_mols>  (1185) 
Z0875a,Z0089a

>  <ref_pdb>  (1185) 
Z0089a

>  <HIPPO Compound ID>  (1185) 
144003

>  <name>  (1185) 
P70818

>  <inspiration_score>  (1185) 
None

$$$$
P70822
     RDKit          3D

 12 12  0  0  0  0  0  0  0  0999 V2000
   -2.2073    4.4800  -18.7169 C   0  0  0  0  0  0  0  0  0  0  0  0
   -2.9417    5.6638  -19.3195 C   0  0  2  0  0  0  0  0  0  0  0  0
   -2.6074    6.9427  -18.6545 C   0  0  0  0  0  0  0  0  0  0  0  0
   -2.3107    7.9623  -18.1802 N   0  0  0  0  0  0  0  0  0  0  0  0
   -4.3581    5.4113  -19.4841 N   0  0  0  0  0  0  0  0  0  0  0  0
   -5.3416    5.1810  -18.5711 C   0  0  0  0  0  0  0  0  0  0  0  0
   -6.4481    4.6873  -19.1640 N   0  0  0  0  0  0  0  0  0  0  0  0
   -7.5322    4.4699  -18.3893 C   0  0  0  0  0  0  0  0  0  0  0  0
   -7.5230    4.7208  -17.0329 C   0  0  0  0  0  0  0  0  0  0  0  0
   -6.4384    5.2162  -16.3979 N   0  0  0  0  0  0  0  0  0  0  0  0
   -5.3638    5.4199  -17.1888 C   0  0  0  0  0  0  0  0  0  0  0  0
   -4.3250    5.9084  -16.4701 O   0  0  0  0  0  0  0  0  0  0  0  0
  2  1  1  1
  2  3  1  0
  3  4  3  0
  2  5  1  0
  5  6  1  0
  6  7  2  0
  7  8  1  0
  8  9  2  0
  9 10  1  0
 10 11  2  0
 11 12  1  0
 11  6  1  0
M  END
>  <energy_score>  (1186) 
-26.270753

>  <alias>  (1186) 
None

>  <HIPPO Pose ID>  (1186) 
70822

>  <smiles>  (1186) 
C[C@H](C#N)Nc1nccnc1O

>  <inchikey>  (1186) 
HBVIOJARRKOHJL-RXMQYKEDSA-N

>  <distance_score>  (1186) 
0.910608

>  <ref_mols>  (1186) 
Z0875a,Z0089a

>  <ref_pdb>  (1186) 
Z0089a

>  <HIPPO Compound ID>  (1186) 
144006

>  <name>  (1186) 
P70822

>  <inspiration_score>  (1186) 
None

$$$$
P70826
     RDKit          3D

 12 12  0  0  0  0  0  0  0  0999 V2000
   -2.0215    4.3720  -19.0594 C   0  0  0  0  0  0  0  0  0  0  0  0
   -2.7809    5.5886  -19.5647 C   0  0  2  0  0  0  0  0  0  0  0  0
   -2.4582    6.8006  -18.7793 C   0  0  0  0  0  0  0  0  0  0  0  0
   -2.1992    7.7482  -18.1586 N   0  0  0  0  0  0  0  0  0  0  0  0
   -4.1987    5.3126  -19.6852 N   0  0  0  0  0  0  0  0  0  0  0  0
   -5.1532    5.1477  -18.7282 C   0  0  0  0  0  0  0  0  0  0  0  0
   -5.0250    5.3642  -17.3546 C   0  0  0  0  0  0  0  0  0  0  0  0
   -6.0495    5.2492  -16.4705 N   0  0  0  0  0  0  0  0  0  0  0  0
   -7.2148    4.8852  -17.0278 C   0  0  0  0  0  0  0  0  0  0  0  0
   -8.2423    4.7914  -16.1532 O   0  0  0  0  0  0  0  0  0  0  0  0
   -7.3735    4.6456  -18.3742 C   0  0  0  0  0  0  0  0  0  0  0  0
   -6.3391    4.7670  -19.2367 N   0  0  0  0  0  0  0  0  0  0  0  0
  2  1  1  1
  2  3  1  0
  3  4  3  0
  2  5  1  0
  5  6  1  0
  6  7  2  0
  7  8  1  0
  8  9  2  0
  9 10  1  0
  9 11  1  0
 11 12  2  0
 12  6  1  0
M  END
>  <energy_score>  (1187) 
-27.355553

>  <alias>  (1187) 
None

>  <HIPPO Pose ID>  (1187) 
70826

>  <smiles>  (1187) 
C[C@H](C#N)Nc1cnc(O)cn1

>  <inchikey>  (1187) 
SKJUEBUNYCCUSF-RXMQYKEDSA-N

>  <distance_score>  (1187) 
0.778655

>  <ref_mols>  (1187) 
Z0875a,Z0089a

>  <ref_pdb>  (1187) 
Z0089a

>  <HIPPO Compound ID>  (1187) 
144008

>  <name>  (1187) 
P70826

>  <inspiration_score>  (1187) 
None

$$$$
P70829
     RDKit          3D

 12 12  0  0  0  0  0  0  0  0999 V2000
   -4.5943    6.3050  -16.0489 C   0  0  0  0  0  0  0  0  0  0  0  0
   -5.5075    5.5912  -16.9956 C   0  0  0  0  0  0  0  0  0  0  0  0
   -6.7055    5.2512  -16.4453 N   0  0  0  0  0  0  0  0  0  0  0  0
   -7.5999    4.6652  -17.2678 C   0  0  0  0  0  0  0  0  0  0  0  0
   -7.3238    4.4294  -18.5942 C   0  0  0  0  0  0  0  0  0  0  0  0
   -6.1286    4.7359  -19.1408 N   0  0  0  0  0  0  0  0  0  0  0  0
   -5.2136    5.3251  -18.3461 C   0  0  0  0  0  0  0  0  0  0  0  0
   -4.1029    5.6965  -19.0670 N   0  0  0  0  0  0  0  0  0  0  0  0
   -2.7363    5.5002  -18.6028 C   0  0  1  0  0  0  0  0  0  0  0  0
   -2.0857    4.3197  -19.3196 C   0  0  0  0  0  0  0  0  0  0  0  0
   -1.9452    6.7286  -18.8625 C   0  0  0  0  0  0  0  0  0  0  0  0
   -1.3156    7.6864  -19.0549 N   0  0  0  0  0  0  0  0  0  0  0  0
  1  2  1  0
  2  3  2  0
  3  4  1  0
  4  5  2  0
  5  6  1  0
  6  7  2  0
  7  8  1  0
  8  9  1  0
  9 10  1  6
  9 11  1  0
 11 12  3  0
  7  2  1  0
M  END
>  <energy_score>  (1188) 
-13.785283

>  <alias>  (1188) 
None

>  <HIPPO Pose ID>  (1188) 
70829

>  <smiles>  (1188) 
Cc1nccnc1N[C@@H](C)C#N

>  <inchikey>  (1188) 
RGHWOYUWWXSLAO-LURJTMIESA-N

>  <distance_score>  (1188) 
1.073213

>  <ref_mols>  (1188) 
Z0875a,Z0089a

>  <ref_pdb>  (1188) 
Z0089a

>  <HIPPO Compound ID>  (1188) 
144009

>  <name>  (1188) 
P70829

>  <inspiration_score>  (1188) 
None

$$$$
P70831
     RDKit          3D

 12 13  0  0  0  0  0  0  0  0999 V2000
   -9.7715    3.9627  -17.6920 C   0  0  0  0  0  0  0  0  0  0  0  0
   -8.6878    4.0699  -18.5993 O   0  0  0  0  0  0  0  0  0  0  0  0
   -7.5235    4.5839  -18.1049 C   0  0  0  0  0  0  0  0  0  0  0  0
   -7.3131    4.9921  -16.7918 C   0  0  0  0  0  0  0  0  0  0  0  0
   -6.1438    5.5171  -16.3500 N   0  0  0  0  0  0  0  0  0  0  0  0
   -5.1778    5.5941  -17.2911 C   0  0  0  0  0  0  0  0  0  0  0  0
   -5.3571    5.1846  -18.6133 C   0  0  0  0  0  0  0  0  0  0  0  0
   -4.3461    5.2948  -19.5866 N   0  0  0  0  0  0  0  0  0  0  0  0
   -2.9768    4.9485  -19.2146 C   0  0  0  0  0  0  0  0  0  0  0  0
   -1.8163    5.3386  -20.0795 C   0  0  0  0  0  0  0  0  0  0  0  0
   -2.0159    6.0091  -18.7532 C   0  0  0  0  0  0  0  0  0  0  0  0
   -6.5341    4.6749  -19.0227 N   0  0  0  0  0  0  0  0  0  0  0  0
  1  2  1  0
  2  3  1  0
  3  4  2  0
  4  5  1  0
  5  6  2  0
  6  7  1  0
  7  8  1  0
  8  9  1  0
  9 10  1  0
 10 11  1  0
  7 12  2  0
 12  3  1  0
 11  9  1  0
M  END
>  <energy_score>  (1189) 
-10.294562

>  <alias>  (1189) 
None

>  <HIPPO Pose ID>  (1189) 
70831

>  <smiles>  (1189) 
COc1cncc(NC2CC2)n1

>  <inchikey>  (1189) 
AIWACCJBTCHZOR-UHFFFAOYSA-N

>  <distance_score>  (1189) 
0.791044

>  <ref_mols>  (1189) 
Z0875a,Z0089a

>  <ref_pdb>  (1189) 
Z0089a

>  <HIPPO Compound ID>  (1189) 
144011

>  <name>  (1189) 
P70831

>  <inspiration_score>  (1189) 
None

$$$$
P70832
     RDKit          3D

 12 12  0  0  0  0  0  0  0  0999 V2000
   -8.7833    4.1228  -18.7714 C   0  0  0  0  0  0  0  0  0  0  0  0
   -7.4554    4.5629  -18.2423 C   0  0  0  0  0  0  0  0  0  0  0  0
   -7.2833    4.8563  -16.8999 C   0  0  0  0  0  0  0  0  0  0  0  0
   -6.1095    5.2958  -16.3947 N   0  0  0  0  0  0  0  0  0  0  0  0
   -5.1045    5.4113  -17.2984 C   0  0  0  0  0  0  0  0  0  0  0  0
   -5.2488    5.1371  -18.6561 C   0  0  0  0  0  0  0  0  0  0  0  0
   -4.3069    5.2739  -19.6316 N   0  0  0  0  0  0  0  0  0  0  0  0
   -2.8974    5.6026  -19.5450 C   0  0  2  0  0  0  0  0  0  0  0  0
   -2.0902    4.4354  -18.9947 C   0  0  0  0  0  0  0  0  0  0  0  0
   -2.5991    6.8590  -18.8226 C   0  0  0  0  0  0  0  0  0  0  0  0
   -2.3551    7.8412  -18.2517 N   0  0  0  0  0  0  0  0  0  0  0  0
   -6.4346    4.7055  -19.1231 N   0  0  0  0  0  0  0  0  0  0  0  0
  1  2  1  0
  2  3  2  0
  3  4  1  0
  4  5  2  0
  5  6  1  0
  6  7  1  0
  7  8  1  0
  8  9  1  1
  8 10  1  0
 10 11  3  0
  6 12  2  0
 12  2  1  0
M  END
>  <energy_score>  (1190) 
-25.463396

>  <alias>  (1190) 
None

>  <HIPPO Pose ID>  (1190) 
70832

>  <smiles>  (1190) 
Cc1cncc(N[C@H](C)C#N)n1

>  <inchikey>  (1190) 
IOXQPKAQMXXDQR-ZCFIWIBFSA-N

>  <distance_score>  (1190) 
0.679548

>  <ref_mols>  (1190) 
Z0875a,Z0089a

>  <ref_pdb>  (1190) 
Z0089a

>  <HIPPO Compound ID>  (1190) 
144012

>  <name>  (1190) 
P70832

>  <inspiration_score>  (1190) 
None

$$$$
P70834
     RDKit          3D

 12 12  0  0  0  0  0  0  0  0999 V2000
   -1.8238    4.4599  -19.3933 C   0  0  0  0  0  0  0  0  0  0  0  0
   -2.7411    5.6367  -19.7102 C   0  0  2  0  0  0  0  0  0  0  0  0
   -2.5866    6.7205  -18.7167 C   0  0  0  0  0  0  0  0  0  0  0  0
   -2.5490    7.5076  -17.8633 N   0  0  0  0  0  0  0  0  0  0  0  0
   -4.1111    5.1504  -19.8494 N   0  0  0  0  0  0  0  0  0  0  0  0
   -5.0755    4.9841  -18.9007 C   0  0  0  0  0  0  0  0  0  0  0  0
   -4.8899    4.9575  -17.5293 C   0  0  0  0  0  0  0  0  0  0  0  0
   -5.9496    4.7910  -16.7054 N   0  0  0  0  0  0  0  0  0  0  0  0
   -5.7270    4.8163  -15.2615 C   0  0  0  0  0  0  0  0  0  0  0  0
   -7.1913    4.6130  -17.2108 C   0  0  0  0  0  0  0  0  0  0  0  0
   -7.3467    4.6270  -18.5792 C   0  0  0  0  0  0  0  0  0  0  0  0
   -6.3018    4.8092  -19.4080 N   0  0  0  0  0  0  0  0  0  0  0  0
  2  1  1  1
  2  3  1  0
  3  4  3  0
  2  5  1  0
  5  6  1  0
  6  7  2  0
  7  8  1  0
  8  9  1  0
  8 10  2  0
 10 11  1  0
 11 12  2  0
 12  6  1  0
M  CHG  1   8   1
M  END
>  <energy_score>  (1191) 
-15.556458

>  <alias>  (1191) 
None

>  <HIPPO Pose ID>  (1191) 
70834

>  <smiles>  (1191) 
C[C@H](C#N)Nc1c[n+](C)ccn1

>  <inchikey>  (1191) 
GBTBTTMAUMHURJ-SSDOTTSWSA-N

>  <distance_score>  (1191) 
0.838327

>  <ref_mols>  (1191) 
Z0875a,Z0089a

>  <ref_pdb>  (1191) 
Z0089a

>  <HIPPO Compound ID>  (1191) 
144013

>  <name>  (1191) 
P70834

>  <inspiration_score>  (1191) 
None

$$$$
P70836
     RDKit          3D

 12 13  0  0  0  0  0  0  0  0999 V2000
   -8.5797    4.2832  -14.8104 C   0  0  0  0  0  0  0  0  0  0  0  0
   -8.2417    4.4976  -16.2235 C   0  0  0  0  0  0  0  0  0  0  0  0
   -9.0465    4.1303  -17.2843 C   0  0  0  0  0  0  0  0  0  0  0  0
   -8.6314    4.2493  -18.5583 N   0  0  0  0  0  0  0  0  0  0  0  0
   -7.3811    4.7676  -18.7178 C   0  0  0  0  0  0  0  0  0  0  0  0
   -6.5693    5.1500  -17.6543 C   0  0  0  0  0  0  0  0  0  0  0  0
   -5.2932    5.7323  -17.8155 N   0  0  0  0  0  0  0  0  0  0  0  0
   -4.4253    5.6564  -16.6107 C   0  0  1  0  0  0  0  0  0  0  0  0
   -3.5239    6.7861  -16.1909 C   0  0  0  0  0  0  0  0  0  0  0  0
   -4.7355    6.4604  -15.3663 C   0  0  2  0  0  0  0  0  0  0  0  0
   -4.6358    5.7986  -14.0323 C   0  0  0  0  0  0  0  0  0  0  0  0
   -7.0247    5.0251  -16.4026 N   0  0  0  0  0  0  0  0  0  0  0  0
  1  2  1  0
  2  3  2  0
  3  4  1  0
  4  5  2  0
  5  6  1  0
  6  7  1  0
  8  7  1  6
  8  9  1  0
  9 10  1  0
 10 11  1  1
  6 12  2  0
 12  2  1  0
 10  8  1  0
M  END
>  <energy_score>  (1192) 
-7.102738

>  <alias>  (1192) 
None

>  <HIPPO Pose ID>  (1192) 
70836

>  <smiles>  (1192) 
Cc1cncc(N[C@H]2C[C@@H]2C)n1

>  <inchikey>  (1192) 
JBMLDORCKRDOCM-XPUUQOCRSA-N

>  <distance_score>  (1192) 
1.338626

>  <ref_mols>  (1192) 
Z0875a,Z0089a

>  <ref_pdb>  (1192) 
Z0089a

>  <HIPPO Compound ID>  (1192) 
144014

>  <name>  (1192) 
P70836

>  <inspiration_score>  (1192) 
None

$$$$
P70845
     RDKit          3D

 12 12  0  0  0  0  0  0  0  0999 V2000
   -2.2424    4.4599  -18.6600 C   0  0  0  0  0  0  0  0  0  0  0  0
   -2.9153    5.6129  -19.3708 C   0  0  2  0  0  0  0  0  0  0  0  0
   -2.5180    6.9936  -18.8325 C   0  0  0  0  0  0  0  0  0  0  0  0
   -3.2270    8.0076  -19.5543 O   0  0  0  0  0  0  0  0  0  0  0  0
   -4.3600    5.4818  -19.4929 N   0  0  0  0  0  0  0  0  0  0  0  0
   -5.3268    5.2031  -18.5714 C   0  0  0  0  0  0  0  0  0  0  0  0
   -6.4238    4.6963  -19.1723 N   0  0  0  0  0  0  0  0  0  0  0  0
   -7.5083    4.4523  -18.4068 C   0  0  0  0  0  0  0  0  0  0  0  0
   -7.5103    4.6897  -17.0490 C   0  0  0  0  0  0  0  0  0  0  0  0
   -6.4374    5.1980  -16.4050 N   0  0  0  0  0  0  0  0  0  0  0  0
   -5.3615    5.4315  -17.1878 C   0  0  0  0  0  0  0  0  0  0  0  0
   -4.3542    5.9550  -16.4505 O   0  0  0  0  0  0  0  0  0  0  0  0
  2  1  1  1
  2  3  1  0
  3  4  1  0
  2  5  1  0
  5  6  1  0
  6  7  2  0
  7  8  1  0
  8  9  2  0
  9 10  1  0
 10 11  2  0
 11 12  1  0
 11  6  1  0
M  END
>  <energy_score>  (1193) 
-31.602434

>  <alias>  (1193) 
None

>  <HIPPO Pose ID>  (1193) 
70845

>  <smiles>  (1193) 
C[C@H](CO)Nc1nccnc1O

>  <inchikey>  (1193) 
CLRVHVSJEAILHB-RXMQYKEDSA-N

>  <distance_score>  (1193) 
0.834422

>  <ref_mols>  (1193) 
Z0875a,Z0089a

>  <ref_pdb>  (1193) 
Z0089a

>  <HIPPO Compound ID>  (1193) 
144018

>  <name>  (1193) 
P70845

>  <inspiration_score>  (1193) 
None

$$$$
P70847
     RDKit          3D

 12 12  0  0  0  0  0  0  0  0999 V2000
   -8.0692    4.4411  -15.8750 C   0  0  0  0  0  0  0  0  0  0  0  0
   -6.9848    4.6824  -16.8713 C   0  0  0  0  0  0  0  0  0  0  0  0
   -7.2373    4.6307  -18.2321 C   0  0  0  0  0  0  0  0  0  0  0  0
   -6.2757    4.8491  -19.1562 N   0  0  0  0  0  0  0  0  0  0  0  0
   -5.0399    5.1266  -18.7112 C   0  0  0  0  0  0  0  0  0  0  0  0
   -4.1466    5.3548  -19.7145 N   0  0  0  0  0  0  0  0  0  0  0  0
   -2.7130    5.5979  -19.6780 C   0  0  2  0  0  0  0  0  0  0  0  0
   -1.9295    4.4202  -19.1278 C   0  0  0  0  0  0  0  0  0  0  0  0
   -2.3791    6.9312  -18.9912 C   0  0  0  0  0  0  0  0  0  0  0  0
   -3.1873    7.9749  -19.5409 O   0  0  0  0  0  0  0  0  0  0  0  0
   -4.8029    5.1925  -17.3428 C   0  0  0  0  0  0  0  0  0  0  0  0
   -5.7543    4.9913  -16.4004 N   0  0  0  0  0  0  0  0  0  0  0  0
  1  2  1  0
  2  3  2  0
  3  4  1  0
  4  5  2  0
  5  6  1  0
  6  7  1  0
  7  8  1  1
  7  9  1  0
  9 10  1  0
  5 11  1  0
 11 12  2  0
 12  2  1  0
M  END
>  <energy_score>  (1194) 
-17.751316

>  <alias>  (1194) 
None

>  <HIPPO Pose ID>  (1194) 
70847

>  <smiles>  (1194) 
Cc1cnc(N[C@H](C)CO)cn1

>  <inchikey>  (1194) 
LKHZBCZTHYDNPS-SSDOTTSWSA-N

>  <distance_score>  (1194) 
0.740286

>  <ref_mols>  (1194) 
Z0875a,Z0089a

>  <ref_pdb>  (1194) 
Z0089a

>  <HIPPO Compound ID>  (1194) 
144019

>  <name>  (1194) 
P70847

>  <inspiration_score>  (1194) 
None

$$$$
P70852
     RDKit          3D

 12 12  0  0  0  0  0  0  0  0999 V2000
   -4.4399    6.2042  -15.9785 C   0  0  0  0  0  0  0  0  0  0  0  0
   -5.3648    5.5265  -16.9389 C   0  0  0  0  0  0  0  0  0  0  0  0
   -6.5225    5.0969  -16.3686 N   0  0  0  0  0  0  0  0  0  0  0  0
   -7.4441    4.5681  -17.1977 C   0  0  0  0  0  0  0  0  0  0  0  0
   -7.2285    4.4657  -18.5516 C   0  0  0  0  0  0  0  0  0  0  0  0
   -6.0681    4.8506  -19.1217 N   0  0  0  0  0  0  0  0  0  0  0  0
   -5.1264    5.3821  -18.3170 C   0  0  0  0  0  0  0  0  0  0  0  0
   -4.0512    5.8440  -19.0490 N   0  0  0  0  0  0  0  0  0  0  0  0
   -2.6640    5.5658  -18.6675 C   0  0  1  0  0  0  0  0  0  0  0  0
   -2.1578    4.2678  -19.2771 C   0  0  0  0  0  0  0  0  0  0  0  0
   -1.8191    6.7538  -19.1659 C   0  0  0  0  0  0  0  0  0  0  0  0
   -2.3713    7.9764  -18.6728 O   0  0  0  0  0  0  0  0  0  0  0  0
  1  2  1  0
  2  3  2  0
  3  4  1  0
  4  5  2  0
  5  6  1  0
  6  7  2  0
  7  8  1  0
  8  9  1  0
  9 10  1  6
  9 11  1  0
 11 12  1  0
  7  2  1  0
M  END
>  <energy_score>  (1195) 
-19.284087

>  <alias>  (1195) 
None

>  <HIPPO Pose ID>  (1195) 
70852

>  <smiles>  (1195) 
Cc1nccnc1N[C@@H](C)CO

>  <inchikey>  (1195) 
XKGGZKPHDCYJLZ-LURJTMIESA-N

>  <distance_score>  (1195) 
1.059528

>  <ref_mols>  (1195) 
Z0875a,Z0089a

>  <ref_pdb>  (1195) 
Z0089a

>  <HIPPO Compound ID>  (1195) 
144021

>  <name>  (1195) 
P70852

>  <inspiration_score>  (1195) 
None

$$$$
P70854
     RDKit          3D

 12 12  0  0  0  0  0  0  0  0999 V2000
   -8.7548    4.1523  -18.8703 C   0  0  0  0  0  0  0  0  0  0  0  0
   -7.4710    4.5837  -18.2349 C   0  0  0  0  0  0  0  0  0  0  0  0
   -7.4376    4.9436  -16.8964 C   0  0  0  0  0  0  0  0  0  0  0  0
   -6.3088    5.3495  -16.2771 N   0  0  0  0  0  0  0  0  0  0  0  0
   -5.1982    5.3271  -17.0521 C   0  0  0  0  0  0  0  0  0  0  0  0
   -5.1979    4.9757  -18.4016 C   0  0  0  0  0  0  0  0  0  0  0  0
   -4.0931    4.9034  -19.2122 N   0  0  0  0  0  0  0  0  0  0  0  0
   -2.7605    5.3763  -18.8776 C   0  0  1  0  0  0  0  0  0  0  0  0
   -1.7489    4.4637  -19.5765 C   0  0  0  0  0  0  0  0  0  0  0  0
   -2.6039    6.8388  -19.2933 C   0  0  0  0  0  0  0  0  0  0  0  0
   -1.0217    7.6442  -18.4898 Br  0  0  0  0  0  0  0  0  0  0  0  0
   -6.3494    4.6168  -18.9997 N   0  0  0  0  0  0  0  0  0  0  0  0
  1  2  1  0
  2  3  2  0
  3  4  1  0
  4  5  2  0
  5  6  1  0
  6  7  1  0
  7  8  1  0
  8  9  1  6
  8 10  1  0
 10 11  1  0
  6 12  2  0
 12  2  1  0
M  END
>  <energy_score>  (1196) 
-31.314477

>  <alias>  (1196) 
None

>  <HIPPO Pose ID>  (1196) 
70854

>  <smiles>  (1196) 
Cc1cncc(N[C@@H](C)CBr)n1

>  <inchikey>  (1196) 
LGQLMGJMKWBDSB-LURJTMIESA-N

>  <distance_score>  (1196) 
0.706278

>  <ref_mols>  (1196) 
Z0875a,Z0089a

>  <ref_pdb>  (1196) 
Z0089a

>  <HIPPO Compound ID>  (1196) 
144022

>  <name>  (1196) 
P70854

>  <inspiration_score>  (1196) 
None

$$$$
P70856
     RDKit          3D

 12 12  0  0  0  0  0  0  0  0999 V2000
   -1.9567    4.1851  -19.4505 C   0  0  0  0  0  0  0  0  0  0  0  0
   -2.6236    5.5198  -19.1358 C   0  0  1  0  0  0  0  0  0  0  0  0
   -1.9050    6.7114  -19.7750 C   0  0  0  0  0  0  0  0  0  0  0  0
   -1.9827    6.6771  -21.7249 Br  0  0  0  0  0  0  0  0  0  0  0  0
   -4.0257    5.5042  -19.5319 N   0  0  0  0  0  0  0  0  0  0  0  0
   -5.0887    5.1266  -18.7641 C   0  0  0  0  0  0  0  0  0  0  0  0
   -5.1183    5.1487  -17.3825 C   0  0  0  0  0  0  0  0  0  0  0  0
   -6.2563    4.8377  -16.7228 N   0  0  0  0  0  0  0  0  0  0  0  0
   -6.2397    4.8381  -15.2635 C   0  0  0  0  0  0  0  0  0  0  0  0
   -7.3762    4.5105  -17.4071 C   0  0  0  0  0  0  0  0  0  0  0  0
   -7.3176    4.4895  -18.7835 C   0  0  0  0  0  0  0  0  0  0  0  0
   -6.1852    4.7848  -19.4503 N   0  0  0  0  0  0  0  0  0  0  0  0
  2  1  1  6
  2  3  1  0
  3  4  1  0
  2  5  1  0
  5  6  1  0
  6  7  2  0
  7  8  1  0
  8  9  1  0
  8 10  2  0
 10 11  1  0
 11 12  2  0
 12  6  1  0
M  CHG  1   8   1
M  END
>  <energy_score>  (1197) 
-30.39657

>  <alias>  (1197) 
None

>  <HIPPO Pose ID>  (1197) 
70856

>  <smiles>  (1197) 
C[C@@H](CBr)Nc1c[n+](C)ccn1

>  <inchikey>  (1197) 
UXHATIHRZVWQRR-ZETCQYMHSA-N

>  <distance_score>  (1197) 
0.834147

>  <ref_mols>  (1197) 
Z0875a,Z0089a

>  <ref_pdb>  (1197) 
Z0089a

>  <HIPPO Compound ID>  (1197) 
144023

>  <name>  (1197) 
P70856

>  <inspiration_score>  (1197) 
None

$$$$
P70858
     RDKit          3D

 12 12  0  0  0  0  0  0  0  0999 V2000
   -1.8374    4.3922  -19.4960 C   0  0  0  0  0  0  0  0  0  0  0  0
   -2.7949    5.4335  -18.9129 C   0  0  1  0  0  0  0  0  0  0  0  0
   -2.4300    6.8227  -19.4370 C   0  0  0  0  0  0  0  0  0  0  0  0
   -3.3521    8.2281  -18.4431 Br  0  0  0  0  0  0  0  0  0  0  0  0
   -4.1466    5.0653  -19.2959 N   0  0  0  0  0  0  0  0  0  0  0  0
   -5.2452    5.0142  -18.4773 C   0  0  0  0  0  0  0  0  0  0  0  0
   -5.2309    5.1005  -17.0810 C   0  0  0  0  0  0  0  0  0  0  0  0
   -6.3396    5.0120  -16.3033 N   0  0  0  0  0  0  0  0  0  0  0  0
   -7.4814    4.7709  -16.9825 C   0  0  0  0  0  0  0  0  0  0  0  0
   -7.5046    4.7008  -18.3600 C   0  0  0  0  0  0  0  0  0  0  0  0
   -8.6730    4.5637  -19.0375 O   0  0  0  0  0  0  0  0  0  0  0  0
   -6.4116    4.8385  -19.1298 N   0  0  0  0  0  0  0  0  0  0  0  0
  2  1  1  6
  2  3  1  0
  3  4  1  0
  2  5  1  0
  5  6  1  0
  6  7  2  0
  7  8  1  0
  8  9  2  0
  9 10  1  0
 10 11  1  0
 10 12  2  0
 12  6  1  0
M  END
>  <energy_score>  (1198) 
-23.255063

>  <alias>  (1198) 
None

>  <HIPPO Pose ID>  (1198) 
70858

>  <smiles>  (1198) 
C[C@@H](CBr)Nc1cncc(O)n1

>  <inchikey>  (1198) 
HOCPLUORKLZHDH-YFKPBYRVSA-N

>  <distance_score>  (1198) 
0.675784

>  <ref_mols>  (1198) 
Z0875a,Z0089a

>  <ref_pdb>  (1198) 
Z0089a

>  <HIPPO Compound ID>  (1198) 
144024

>  <name>  (1198) 
P70858

>  <inspiration_score>  (1198) 
None

$$$$
P70860
     RDKit          3D

 12 12  0  0  0  0  0  0  0  0999 V2000
   -2.0919    4.3167  -19.2479 C   0  0  0  0  0  0  0  0  0  0  0  0
   -2.7829    5.5541  -18.6712 C   0  0  1  0  0  0  0  0  0  0  0  0
   -2.0327    6.8056  -19.1386 C   0  0  0  0  0  0  0  0  0  0  0  0
   -2.6418    8.4073  -18.2014 Br  0  0  0  0  0  0  0  0  0  0  0  0
   -4.1534    5.6039  -19.1555 N   0  0  0  0  0  0  0  0  0  0  0  0
   -5.2509    5.2613  -18.4008 C   0  0  0  0  0  0  0  0  0  0  0  0
   -6.2396    4.7377  -19.1546 N   0  0  0  0  0  0  0  0  0  0  0  0
   -7.4084    4.4613  -18.5363 C   0  0  0  0  0  0  0  0  0  0  0  0
   -7.5933    4.6763  -17.1849 C   0  0  0  0  0  0  0  0  0  0  0  0
   -6.6293    5.1992  -16.3954 N   0  0  0  0  0  0  0  0  0  0  0  0
   -5.4699    5.4730  -17.0285 C   0  0  0  0  0  0  0  0  0  0  0  0
   -4.5744    6.0242  -16.1712 O   0  0  0  0  0  0  0  0  0  0  0  0
  2  1  1  6
  2  3  1  0
  3  4  1  0
  2  5  1  0
  5  6  1  0
  6  7  2  0
  7  8  1  0
  8  9  2  0
  9 10  1  0
 10 11  2  0
 11 12  1  0
 11  6  1  0
M  END
>  <energy_score>  (1199) 
-116.918101

>  <alias>  (1199) 
None

>  <HIPPO Pose ID>  (1199) 
70860

>  <smiles>  (1199) 
C[C@@H](CBr)Nc1nccnc1O

>  <inchikey>  (1199) 
ALWBHIHAQZPYCK-YFKPBYRVSA-N

>  <distance_score>  (1199) 
0.908056

>  <ref_mols>  (1199) 
Z0875a,Z0089a

>  <ref_pdb>  (1199) 
Z0089a

>  <HIPPO Compound ID>  (1199) 
144025

>  <name>  (1199) 
P70860

>  <inspiration_score>  (1199) 
None

$$$$
P70868
     RDKit          3D

 12 12  0  0  0  0  0  0  0  0999 V2000
   -8.6769    4.1010  -18.8816 C   0  0  0  0  0  0  0  0  0  0  0  0
   -7.4090    4.5813  -18.2480 C   0  0  0  0  0  0  0  0  0  0  0  0
   -7.4023    4.9776  -16.9187 C   0  0  0  0  0  0  0  0  0  0  0  0
   -6.3145    5.5052  -16.3174 N   0  0  0  0  0  0  0  0  0  0  0  0
   -5.2162    5.5806  -17.1060 C   0  0  0  0  0  0  0  0  0  0  0  0
   -5.1795    5.1616  -18.4374 C   0  0  0  0  0  0  0  0  0  0  0  0
   -4.0821    5.2612  -19.2697 N   0  0  0  0  0  0  0  0  0  0  0  0
   -2.7141    5.2881  -18.7635 C   0  0  1  0  0  0  0  0  0  0  0  0
   -1.8392    4.3485  -19.5942 C   0  0  0  0  0  0  0  0  0  0  0  0
   -2.2000    6.7402  -18.8357 C   0  0  0  0  0  0  0  0  0  0  0  0
   -0.4932    7.0637  -17.5686 I   0  0  0  0  0  0  0  0  0  0  0  0
   -6.2904    4.6674  -19.0146 N   0  0  0  0  0  0  0  0  0  0  0  0
  1  2  1  0
  2  3  2  0
  3  4  1  0
  4  5  2  0
  5  6  1  0
  6  7  1  0
  7  8  1  0
  8  9  1  6
  8 10  1  0
 10 11  1  0
  6 12  2  0
 12  2  1  0
M  END
>  <energy_score>  (1200) 
-28.123927

>  <alias>  (1200) 
None

>  <HIPPO Pose ID>  (1200) 
70868

>  <smiles>  (1200) 
Cc1cncc(N[C@@H](C)CI)n1

>  <inchikey>  (1200) 
UYFFNWUQWBWTCP-LURJTMIESA-N

>  <distance_score>  (1200) 
0.691495

>  <ref_mols>  (1200) 
Z0875a,Z0089a

>  <ref_pdb>  (1200) 
Z0089a

>  <HIPPO Compound ID>  (1200) 
144029

>  <name>  (1200) 
P70868

>  <inspiration_score>  (1200) 
None

$$$$
P70870
     RDKit          3D

 12 12  0  0  0  0  0  0  0  0999 V2000
   -1.6362    4.3998  -19.6975 C   0  0  0  0  0  0  0  0  0  0  0  0
   -2.6148    5.3726  -19.0432 C   0  0  1  0  0  0  0  0  0  0  0  0
   -2.2985    6.8391  -19.3825 C   0  0  0  0  0  0  0  0  0  0  0  0
   -0.7224    7.6202  -18.1559 I   0  0  0  0  0  0  0  0  0  0  0  0
   -3.9590    5.0462  -19.4952 N   0  0  0  0  0  0  0  0  0  0  0  0
   -5.0854    4.9420  -18.7345 C   0  0  0  0  0  0  0  0  0  0  0  0
   -5.1295    5.0216  -17.3547 C   0  0  0  0  0  0  0  0  0  0  0  0
   -6.3016    4.8628  -16.7013 N   0  0  0  0  0  0  0  0  0  0  0  0
   -6.2957    4.9083  -15.2424 C   0  0  0  0  0  0  0  0  0  0  0  0
   -7.4383    4.6097  -17.3884 C   0  0  0  0  0  0  0  0  0  0  0  0
   -7.3686    4.5420  -18.7631 C   0  0  0  0  0  0  0  0  0  0  0  0
   -6.2073    4.7087  -19.4262 N   0  0  0  0  0  0  0  0  0  0  0  0
  2  1  1  6
  2  3  1  0
  3  4  1  0
  2  5  1  0
  5  6  1  0
  6  7  2  0
  7  8  1  0
  8  9  1  0
  8 10  2  0
 10 11  1  0
 11 12  2  0
 12  6  1  0
M  CHG  1   8   1
M  END
>  <energy_score>  (1201) 
-34.827767

>  <alias>  (1201) 
None

>  <HIPPO Pose ID>  (1201) 
70870

>  <smiles>  (1201) 
C[C@@H](CI)Nc1c[n+](C)ccn1

>  <inchikey>  (1201) 
FYQNHYUZOVFVJC-ZETCQYMHSA-N

>  <distance_score>  (1201) 
1.027279

>  <ref_mols>  (1201) 
Z0875a,Z0089a

>  <ref_pdb>  (1201) 
Z0089a

>  <HIPPO Compound ID>  (1201) 
144030

>  <name>  (1201) 
P70870

>  <inspiration_score>  (1201) 
None

$$$$
P70874
     RDKit          3D

 12 12  0  0  0  0  0  0  0  0999 V2000
   -1.8632    4.4675  -19.4818 C   0  0  0  0  0  0  0  0  0  0  0  0
   -2.7453    5.3473  -18.5879 C   0  0  1  0  0  0  0  0  0  0  0  0
   -2.1872    6.7811  -18.5020 C   0  0  0  0  0  0  0  0  0  0  0  0
   -0.4948    6.9279  -17.1810 I   0  0  0  0  0  0  0  0  0  0  0  0
   -4.0788    5.4206  -19.1723 N   0  0  0  0  0  0  0  0  0  0  0  0
   -5.2186    5.1887  -18.4294 C   0  0  0  0  0  0  0  0  0  0  0  0
   -6.2147    4.6596  -19.1678 N   0  0  0  0  0  0  0  0  0  0  0  0
   -7.3986    4.4551  -18.5496 C   0  0  0  0  0  0  0  0  0  0  0  0
   -7.5914    4.7493  -17.2137 C   0  0  0  0  0  0  0  0  0  0  0  0
   -6.6238    5.2946  -16.4430 N   0  0  0  0  0  0  0  0  0  0  0  0
   -5.4507    5.4957  -17.0765 C   0  0  0  0  0  0  0  0  0  0  0  0
   -4.5389    6.0603  -16.2434 O   0  0  0  0  0  0  0  0  0  0  0  0
  2  1  1  6
  2  3  1  0
  3  4  1  0
  2  5  1  0
  5  6  1  0
  6  7  2  0
  7  8  1  0
  8  9  2  0
  9 10  1  0
 10 11  2  0
 11 12  1  0
 11  6  1  0
M  END
>  <energy_score>  (1202) 
-42.779249

>  <alias>  (1202) 
None

>  <HIPPO Pose ID>  (1202) 
70874

>  <smiles>  (1202) 
C[C@@H](CI)Nc1nccnc1O

>  <inchikey>  (1202) 
HUAJSYHTWGHBFH-YFKPBYRVSA-N

>  <distance_score>  (1202) 
0.930219

>  <ref_mols>  (1202) 
Z0875a,Z0089a

>  <ref_pdb>  (1202) 
Z0089a

>  <HIPPO Compound ID>  (1202) 
144032

>  <name>  (1202) 
P70874

>  <inspiration_score>  (1202) 
None

$$$$
P70878
     RDKit          3D

 12 12  0  0  0  0  0  0  0  0999 V2000
   -1.6778    4.4171  -19.5385 C   0  0  0  0  0  0  0  0  0  0  0  0
   -2.6756    5.4256  -18.9625 C   0  0  1  0  0  0  0  0  0  0  0  0
   -2.3928    6.8238  -19.5355 C   0  0  0  0  0  0  0  0  0  0  0  0
   -3.4049    8.3866  -18.4581 I   0  0  0  0  0  0  0  0  0  0  0  0
   -4.0031    4.9617  -19.3185 N   0  0  0  0  0  0  0  0  0  0  0  0
   -5.0997    4.9565  -18.4987 C   0  0  0  0  0  0  0  0  0  0  0  0
   -5.0894    5.0391  -17.1040 C   0  0  0  0  0  0  0  0  0  0  0  0
   -6.2054    5.0149  -16.3343 N   0  0  0  0  0  0  0  0  0  0  0  0
   -7.3403    4.8588  -17.0318 C   0  0  0  0  0  0  0  0  0  0  0  0
   -8.4528    4.8067  -16.2654 O   0  0  0  0  0  0  0  0  0  0  0  0
   -7.3881    4.7621  -18.4063 C   0  0  0  0  0  0  0  0  0  0  0  0
   -6.2639    4.8164  -19.1567 N   0  0  0  0  0  0  0  0  0  0  0  0
  2  1  1  6
  2  3  1  0
  3  4  1  0
  2  5  1  0
  5  6  1  0
  6  7  2  0
  7  8  1  0
  8  9  2  0
  9 10  1  0
  9 11  1  0
 11 12  2  0
 12  6  1  0
M  END
>  <energy_score>  (1203) 
-52.328025

>  <alias>  (1203) 
None

>  <HIPPO Pose ID>  (1203) 
70878

>  <smiles>  (1203) 
C[C@@H](CI)Nc1cnc(O)cn1

>  <inchikey>  (1203) 
YWVKQJMZODIYSP-YFKPBYRVSA-N

>  <distance_score>  (1203) 
0.698169

>  <ref_mols>  (1203) 
Z0875a,Z0089a

>  <ref_pdb>  (1203) 
Z0089a

>  <HIPPO Compound ID>  (1203) 
144034

>  <name>  (1203) 
P70878

>  <inspiration_score>  (1203) 
None

$$$$
P70881
     RDKit          3D

 12 13  0  0  0  0  0  0  0  0999 V2000
   -8.6577    4.3179  -14.9385 C   0  0  0  0  0  0  0  0  0  0  0  0
   -8.2660    4.5700  -16.3317 C   0  0  0  0  0  0  0  0  0  0  0  0
   -8.9588    4.0833  -17.4240 C   0  0  0  0  0  0  0  0  0  0  0  0
   -8.4654    4.1773  -18.6704 N   0  0  0  0  0  0  0  0  0  0  0  0
   -7.2519    4.7846  -18.7745 C   0  0  0  0  0  0  0  0  0  0  0  0
   -6.5660    5.3059  -17.6810 C   0  0  0  0  0  0  0  0  0  0  0  0
   -5.3047    5.9330  -17.7854 N   0  0  0  0  0  0  0  0  0  0  0  0
   -4.7583    6.4167  -16.4953 C   0  0  2  0  0  0  0  0  0  0  0  0
   -3.3252    6.3371  -16.0718 C   0  0  0  0  0  0  0  0  0  0  0  0
   -4.3264    5.4245  -15.4358 C   0  0  1  0  0  0  0  0  0  0  0  0
   -4.7765    5.7341  -14.1076 O   0  0  0  0  0  0  0  0  0  0  0  0
   -7.1029    5.2247  -16.4533 N   0  0  0  0  0  0  0  0  0  0  0  0
  1  2  1  0
  2  3  2  0
  3  4  1  0
  4  5  2  0
  5  6  1  0
  6  7  1  0
  8  7  1  6
  8  9  1  0
  9 10  1  0
 10 11  1  1
  6 12  2  0
 12  2  1  0
 10  8  1  0
M  END
>  <energy_score>  (1204) 
-5.557274

>  <alias>  (1204) 
None

>  <HIPPO Pose ID>  (1204) 
70881

>  <smiles>  (1204) 
Cc1cncc(N[C@@H]2C[C@H]2O)n1

>  <inchikey>  (1204) 
UNEASBKALNVZIX-RNFRBKRXSA-N

>  <distance_score>  (1204) 
1.492784

>  <ref_mols>  (1204) 
Z0875a,Z0089a

>  <ref_pdb>  (1204) 
Z0089a

>  <HIPPO Compound ID>  (1204) 
144036

>  <name>  (1204) 
P70881

>  <inspiration_score>  (1204) 
None

$$$$
P70882
     RDKit          3D

 12 13  0  0  0  0  0  0  0  0999 V2000
   -8.8234    4.1154  -18.7688 C   0  0  0  0  0  0  0  0  0  0  0  0
   -7.4897    4.5501  -18.2501 C   0  0  0  0  0  0  0  0  0  0  0  0
   -7.2993    4.8133  -16.9017 C   0  0  0  0  0  0  0  0  0  0  0  0
   -6.1213    5.2483  -16.3989 N   0  0  0  0  0  0  0  0  0  0  0  0
   -5.1326    5.3946  -17.3158 C   0  0  0  0  0  0  0  0  0  0  0  0
   -5.3005    5.1594  -18.6787 C   0  0  0  0  0  0  0  0  0  0  0  0
   -4.3321    5.4011  -19.6537 N   0  0  0  0  0  0  0  0  0  0  0  0
   -2.9007    5.5740  -19.4090 C   0  0  0  0  0  0  0  0  0  0  0  0
   -2.1106    4.2968  -19.2639 C   0  0  0  0  0  0  0  0  0  0  0  0
   -2.2066    6.6908  -20.1586 C   0  0  0  0  0  0  0  0  0  0  0  0
   -2.4025    6.8065  -18.6816 C   0  0  0  0  0  0  0  0  0  0  0  0
   -6.4865    4.7239  -19.1452 N   0  0  0  0  0  0  0  0  0  0  0  0
  1  2  1  0
  2  3  2  0
  3  4  1  0
  4  5  2  0
  5  6  1  0
  6  7  1  0
  7  8  1  0
  8  9  1  0
  8 10  1  0
 10 11  1  0
  6 12  2  0
 12  2  1  0
 11  8  1  0
M  END
>  <energy_score>  (1205) 
-14.974211

>  <alias>  (1205) 
None

>  <HIPPO Pose ID>  (1205) 
70882

>  <smiles>  (1205) 
Cc1cncc(NC2(C)CC2)n1

>  <inchikey>  (1205) 
NSOKVNQNZFCKIN-UHFFFAOYSA-N

>  <distance_score>  (1205) 
0.715075

>  <ref_mols>  (1205) 
Z0875a,Z0089a

>  <ref_pdb>  (1205) 
Z0089a

>  <HIPPO Compound ID>  (1205) 
144037

>  <name>  (1205) 
P70882

>  <inspiration_score>  (1205) 
None

$$$$
P70883
     RDKit          3D

 12 13  0  0  0  0  0  0  0  0999 V2000
   -2.0525    4.3384  -19.3874 C   0  0  0  0  0  0  0  0  0  0  0  0
   -2.9371    5.5329  -19.6547 C   0  0  0  0  0  0  0  0  0  0  0  0
   -4.3634    5.2432  -19.7750 N   0  0  0  0  0  0  0  0  0  0  0  0
   -5.2612    5.0542  -18.7251 C   0  0  0  0  0  0  0  0  0  0  0  0
   -4.9473    5.2563  -17.3803 C   0  0  0  0  0  0  0  0  0  0  0  0
   -5.8359    5.0991  -16.3690 N   0  0  0  0  0  0  0  0  0  0  0  0
   -7.0739    4.7188  -16.7619 C   0  0  0  0  0  0  0  0  0  0  0  0
   -7.4007    4.5154  -18.0925 C   0  0  0  0  0  0  0  0  0  0  0  0
   -8.6521    4.1351  -18.4829 O   0  0  0  0  0  0  0  0  0  0  0  0
   -6.5027    4.6668  -19.0814 N   0  0  0  0  0  0  0  0  0  0  0  0
   -2.4890    6.8801  -19.1319 C   0  0  0  0  0  0  0  0  0  0  0  0
   -2.3673    6.5775  -20.5928 C   0  0  0  0  0  0  0  0  0  0  0  0
  1  2  1  0
  2  3  1  0
  3  4  1  0
  4  5  2  0
  5  6  1  0
  6  7  2  0
  7  8  1  0
  8  9  1  0
  8 10  2  0
  2 11  1  0
 11 12  1  0
 12  2  1  0
 10  4  1  0
M  END
>  <energy_score>  (1206) 
-16.422492

>  <alias>  (1206) 
None

>  <HIPPO Pose ID>  (1206) 
70883

>  <smiles>  (1206) 
CC1(Nc2cncc(O)n2)CC1

>  <inchikey>  (1206) 
WVOBNRRFMAVDAN-UHFFFAOYSA-N

>  <distance_score>  (1206) 
0.661986

>  <ref_mols>  (1206) 
Z0875a,Z0089a

>  <ref_pdb>  (1206) 
Z0089a

>  <HIPPO Compound ID>  (1206) 
144038

>  <name>  (1206) 
P70883

>  <inspiration_score>  (1206) 
None

$$$$
P70885
     RDKit          3D

 12 13  0  0  0  0  0  0  0  0999 V2000
   -8.8800    4.4563  -15.2258 C   0  0  0  0  0  0  0  0  0  0  0  0
   -8.2913    4.5032  -16.5697 C   0  0  0  0  0  0  0  0  0  0  0  0
   -8.9761    4.1317  -17.7106 C   0  0  0  0  0  0  0  0  0  0  0  0
   -8.3913    4.1707  -18.9162 N   0  0  0  0  0  0  0  0  0  0  0  0
   -7.1098    4.6315  -18.9310 C   0  0  0  0  0  0  0  0  0  0  0  0
   -6.4276    5.0347  -17.7862 C   0  0  0  0  0  0  0  0  0  0  0  0
   -5.0978    5.4842  -17.7998 N   0  0  0  0  0  0  0  0  0  0  0  0
   -4.3917    5.5432  -16.5012 C   0  0  1  0  0  0  0  0  0  0  0  0
   -3.6451    6.7704  -16.0477 C   0  0  0  0  0  0  0  0  0  0  0  0
   -4.8719    6.3404  -15.3154 C   0  0  2  0  0  0  0  0  0  0  0  0
   -4.7080    5.7735  -14.0610 F   0  0  0  0  0  0  0  0  0  0  0  0
   -7.0354    4.9717  -16.5965 N   0  0  0  0  0  0  0  0  0  0  0  0
  1  2  1  0
  2  3  2  0
  3  4  1  0
  4  5  2  0
  5  6  1  0
  6  7  1  0
  8  7  1  6
  8  9  1  0
  9 10  1  0
 10 11  1  1
  6 12  2  0
 12  2  1  0
 10  8  1  0
M  END
>  <energy_score>  (1207) 
-8.693755

>  <alias>  (1207) 
None

>  <HIPPO Pose ID>  (1207) 
70885

>  <smiles>  (1207) 
Cc1cncc(N[C@H]2C[C@@H]2F)n1

>  <inchikey>  (1207) 
VVRLUBLRUAZEGV-BQBZGAKWSA-N

>  <distance_score>  (1207) 
1.175057

>  <ref_mols>  (1207) 
Z0875a,Z0089a

>  <ref_pdb>  (1207) 
Z0089a

>  <HIPPO Compound ID>  (1207) 
144039

>  <name>  (1207) 
P70885

>  <inspiration_score>  (1207) 
None

$$$$
P70889
     RDKit          3D

 12 12  0  0  0  0  0  0  0  0999 V2000
   -1.5233    4.0431  -19.7901 C   0  0  0  0  0  0  0  0  0  0  0  0
   -2.4714    4.4011  -18.9204 C   0  0  0  0  0  0  0  0  0  0  0  0
   -2.9493    5.7835  -18.5803 C   0  0  1  0  0  0  0  0  0  0  0  0
   -2.1269    6.9183  -19.1939 C   0  0  0  0  0  0  0  0  0  0  0  0
   -4.3041    5.9099  -19.0733 N   0  0  0  0  0  0  0  0  0  0  0  0
   -5.3787    5.4369  -18.3447 C   0  0  0  0  0  0  0  0  0  0  0  0
   -6.3157    4.8501  -19.1157 N   0  0  0  0  0  0  0  0  0  0  0  0
   -7.4559    4.4578  -18.5076 C   0  0  0  0  0  0  0  0  0  0  0  0
   -7.6569    4.6171  -17.1501 C   0  0  0  0  0  0  0  0  0  0  0  0
   -6.7385    5.1935  -16.3425 N   0  0  0  0  0  0  0  0  0  0  0  0
   -5.6111    5.5871  -16.9664 C   0  0  0  0  0  0  0  0  0  0  0  0
   -4.7641    6.1948  -16.0968 O   0  0  0  0  0  0  0  0  0  0  0  0
  1  2  2  0
  2  3  1  0
  3  4  1  6
  3  5  1  0
  5  6  1  0
  6  7  2  0
  7  8  1  0
  8  9  2  0
  9 10  1  0
 10 11  2  0
 11 12  1  0
 11  6  1  0
M  END
>  <energy_score>  (1208) 
-36.796128

>  <alias>  (1208) 
None

>  <HIPPO Pose ID>  (1208) 
70889

>  <smiles>  (1208) 
C=C[C@@H](C)Nc1nccnc1O

>  <inchikey>  (1208) 
SQCHCEZEGBRAFY-ZCFIWIBFSA-N

>  <distance_score>  (1208) 
0.960336

>  <ref_mols>  (1208) 
Z0875a,Z0089a

>  <ref_pdb>  (1208) 
Z0089a

>  <HIPPO Compound ID>  (1208) 
144040

>  <name>  (1208) 
P70889

>  <inspiration_score>  (1208) 
None

$$$$
P70890
     RDKit          3D

 12 12  0  0  0  0  0  0  0  0999 V2000
   -1.8462    3.6749  -19.3329 C   0  0  0  0  0  0  0  0  0  0  0  0
   -1.8384    4.9098  -19.8440 C   0  0  0  0  0  0  0  0  0  0  0  0
   -2.9478    5.9215  -19.7678 C   0  0  2  0  0  0  0  0  0  0  0  0
   -2.6629    7.0054  -18.7443 C   0  0  0  0  0  0  0  0  0  0  0  0
   -4.2261    5.2550  -19.6858 N   0  0  0  0  0  0  0  0  0  0  0  0
   -5.1524    5.1416  -18.6980 C   0  0  0  0  0  0  0  0  0  0  0  0
   -4.9629    5.2871  -17.3300 C   0  0  0  0  0  0  0  0  0  0  0  0
   -5.9558    5.1707  -16.4103 N   0  0  0  0  0  0  0  0  0  0  0  0
   -7.1672    4.8179  -16.9028 C   0  0  0  0  0  0  0  0  0  0  0  0
   -8.2850    4.6306  -15.9306 C   0  0  0  0  0  0  0  0  0  0  0  0
   -7.3658    4.6572  -18.2638 C   0  0  0  0  0  0  0  0  0  0  0  0
   -6.3713    4.8178  -19.1639 N   0  0  0  0  0  0  0  0  0  0  0  0
  1  2  2  0
  2  3  1  0
  3  4  1  1
  3  5  1  0
  5  6  1  0
  6  7  2  0
  7  8  1  0
  8  9  2  0
  9 10  1  0
  9 11  1  0
 11 12  2  0
 12  6  1  0
M  END
>  <energy_score>  (1209) 
-26.973056

>  <alias>  (1209) 
None

>  <HIPPO Pose ID>  (1209) 
70890

>  <smiles>  (1209) 
C=C[C@H](C)Nc1cnc(C)cn1

>  <inchikey>  (1209) 
GSZIADZCHLIZSS-ZETCQYMHSA-N

>  <distance_score>  (1209) 
0.737321

>  <ref_mols>  (1209) 
Z0875a,Z0089a

>  <ref_pdb>  (1209) 
Z0089a

>  <HIPPO Compound ID>  (1209) 
144041

>  <name>  (1209) 
P70890

>  <inspiration_score>  (1209) 
None

$$$$
P70893
     RDKit          3D

 12 12  0  0  0  0  0  0  0  0999 V2000
   -1.7237    3.5174  -19.4203 C   0  0  0  0  0  0  0  0  0  0  0  0
   -1.7608    4.8375  -19.6309 C   0  0  0  0  0  0  0  0  0  0  0  0
   -2.8164    5.7282  -19.0379 C   0  0  1  0  0  0  0  0  0  0  0  0
   -2.7410    7.1386  -19.6046 C   0  0  0  0  0  0  0  0  0  0  0  0
   -4.0928    5.1375  -19.3519 N   0  0  0  0  0  0  0  0  0  0  0  0
   -5.1727    5.0834  -18.5158 C   0  0  0  0  0  0  0  0  0  0  0  0
   -5.1413    5.2058  -17.1248 C   0  0  0  0  0  0  0  0  0  0  0  0
   -6.2385    5.1292  -16.3324 N   0  0  0  0  0  0  0  0  0  0  0  0
   -7.3731    4.8754  -17.0021 C   0  0  0  0  0  0  0  0  0  0  0  0
   -8.4657    4.7755  -16.2123 O   0  0  0  0  0  0  0  0  0  0  0  0
   -7.4405    4.7359  -18.3717 C   0  0  0  0  0  0  0  0  0  0  0  0
   -6.3368    4.8439  -19.1443 N   0  0  0  0  0  0  0  0  0  0  0  0
  1  2  2  0
  2  3  1  0
  3  4  1  6
  3  5  1  0
  5  6  1  0
  6  7  2  0
  7  8  1  0
  8  9  2  0
  9 10  1  0
  9 11  1  0
 11 12  2  0
 12  6  1  0
M  END
>  <energy_score>  (1210) 
-46.425604

>  <alias>  (1210) 
None

>  <HIPPO Pose ID>  (1210) 
70893

>  <smiles>  (1210) 
C=C[C@@H](C)Nc1cnc(O)cn1

>  <inchikey>  (1210) 
ZWZXAFYPRRZMJR-ZCFIWIBFSA-N

>  <distance_score>  (1210) 
0.79791

>  <ref_mols>  (1210) 
Z0875a,Z0089a

>  <ref_pdb>  (1210) 
Z0089a

>  <HIPPO Compound ID>  (1210) 
144042

>  <name>  (1210) 
P70893

>  <inspiration_score>  (1210) 
None

$$$$
P70895
     RDKit          3D

 12 12  0  0  0  0  0  0  0  0999 V2000
   -1.3953    5.3558  -20.7156 C   0  0  0  0  0  0  0  0  0  0  0  0
   -2.0946    4.7854  -19.7221 C   0  0  0  0  0  0  0  0  0  0  0  0
   -2.7928    5.5117  -18.5948 C   0  0  1  0  0  0  0  0  0  0  0  0
   -2.0750    6.8167  -18.2362 C   0  0  0  0  0  0  0  0  0  0  0  0
   -4.1368    5.8339  -19.0339 N   0  0  0  0  0  0  0  0  0  0  0  0
   -5.2459    5.3780  -18.3440 C   0  0  0  0  0  0  0  0  0  0  0  0
   -6.1428    4.8109  -19.1760 N   0  0  0  0  0  0  0  0  0  0  0  0
   -7.3320    4.4444  -18.6553 C   0  0  0  0  0  0  0  0  0  0  0  0
   -7.6248    4.6068  -17.3217 C   0  0  0  0  0  0  0  0  0  0  0  0
   -6.7499    5.1650  -16.4609 N   0  0  0  0  0  0  0  0  0  0  0  0
   -5.5505    5.5499  -16.9800 C   0  0  0  0  0  0  0  0  0  0  0  0
   -4.6691    6.2431  -15.9911 C   0  0  0  0  0  0  0  0  0  0  0  0
  1  2  2  0
  2  3  1  0
  3  4  1  6
  3  5  1  0
  5  6  1  0
  6  7  2  0
  7  8  1  0
  8  9  2  0
  9 10  1  0
 10 11  2  0
 11 12  1  0
 11  6  1  0
M  END
>  <energy_score>  (1211) 
-21.438022

>  <alias>  (1211) 
None

>  <HIPPO Pose ID>  (1211) 
70895

>  <smiles>  (1211) 
C=C[C@@H](C)Nc1nccnc1C

>  <inchikey>  (1211) 
HFYLTZWTDUOKHW-SSDOTTSWSA-N

>  <distance_score>  (1211) 
1.024359

>  <ref_mols>  (1211) 
Z0875a,Z0089a

>  <ref_pdb>  (1211) 
Z0089a

>  <HIPPO Compound ID>  (1211) 
144043

>  <name>  (1211) 
P70895

>  <inspiration_score>  (1211) 
None

$$$$
P70900
     RDKit          3D

 12 12  0  0  0  0  0  0  0  0999 V2000
   -0.6173    5.1997  -19.3911 C   0  0  0  0  0  0  0  0  0  0  0  0
   -1.9119    4.8952  -19.2217 C   0  0  0  0  0  0  0  0  0  0  0  0
   -3.0246    5.8020  -19.6548 C   0  0  2  0  0  0  0  0  0  0  0  0
   -3.0899    7.1119  -18.8812 C   0  0  0  0  0  0  0  0  0  0  0  0
   -4.2541    5.0407  -19.6965 N   0  0  0  0  0  0  0  0  0  0  0  0
   -5.2240    4.9824  -18.7276 C   0  0  0  0  0  0  0  0  0  0  0  0
   -5.0227    5.0098  -17.3471 C   0  0  0  0  0  0  0  0  0  0  0  0
   -6.0293    4.9380  -16.4381 N   0  0  0  0  0  0  0  0  0  0  0  0
   -7.2601    4.7563  -16.9723 C   0  0  0  0  0  0  0  0  0  0  0  0
   -7.4591    4.7141  -18.3359 C   0  0  0  0  0  0  0  0  0  0  0  0
   -8.6949    4.6095  -18.8840 O   0  0  0  0  0  0  0  0  0  0  0  0
   -6.4663    4.8428  -19.2271 N   0  0  0  0  0  0  0  0  0  0  0  0
  1  2  2  0
  2  3  1  0
  3  4  1  1
  3  5  1  0
  5  6  1  0
  6  7  2  0
  7  8  1  0
  8  9  2  0
  9 10  1  0
 10 11  1  0
 10 12  2  0
 12  6  1  0
M  END
>  <energy_score>  (1212) 
-35.98149

>  <alias>  (1212) 
None

>  <HIPPO Pose ID>  (1212) 
70900

>  <smiles>  (1212) 
C=C[C@H](C)Nc1cncc(O)n1

>  <inchikey>  (1212) 
NFRGLMFZXOBWDD-LURJTMIESA-N

>  <distance_score>  (1212) 
0.755576

>  <ref_mols>  (1212) 
Z0875a,Z0089a

>  <ref_pdb>  (1212) 
Z0089a

>  <HIPPO Compound ID>  (1212) 
144046

>  <name>  (1212) 
P70900

>  <inspiration_score>  (1212) 
None

$$$$
P70902
     RDKit          3D

 12 12  0  0  0  0  0  0  0  0999 V2000
   -8.7845    4.1474  -18.7867 C   0  0  0  0  0  0  0  0  0  0  0  0
   -7.4541    4.5637  -18.2456 C   0  0  0  0  0  0  0  0  0  0  0  0
   -7.2809    4.8204  -16.8962 C   0  0  0  0  0  0  0  0  0  0  0  0
   -6.0953    5.2051  -16.3760 N   0  0  0  0  0  0  0  0  0  0  0  0
   -5.0812    5.3045  -17.2730 C   0  0  0  0  0  0  0  0  0  0  0  0
   -5.2286    5.0878  -18.6373 C   0  0  0  0  0  0  0  0  0  0  0  0
   -4.2819    5.2246  -19.6054 N   0  0  0  0  0  0  0  0  0  0  0  0
   -2.8686    5.5591  -19.5554 C   0  0  2  0  0  0  0  0  0  0  0  0
   -2.0481    4.4335  -18.9445 C   0  0  0  0  0  0  0  0  0  0  0  0
   -2.5880    6.9926  -19.0546 C   0  0  0  0  0  0  0  0  0  0  0  0
   -1.9121    7.1994  -17.3741 S   0  0  0  0  0  0  0  0  0  0  0  0
   -6.4275    4.7078  -19.1197 N   0  0  0  0  0  0  0  0  0  0  0  0
  1  2  1  0
  2  3  2  0
  3  4  1  0
  4  5  2  0
  5  6  1  0
  6  7  1  0
  7  8  1  0
  8  9  1  1
  8 10  1  0
 10 11  1  0
  6 12  2  0
 12  2  1  0
M  END
>  <energy_score>  (1213) 
-19.688176

>  <alias>  (1213) 
None

>  <HIPPO Pose ID>  (1213) 
70902

>  <smiles>  (1213) 
Cc1cncc(N[C@H](C)CS)n1

>  <inchikey>  (1213) 
CYPXRJQJEXUBFB-SSDOTTSWSA-N

>  <distance_score>  (1213) 
0.68381

>  <ref_mols>  (1213) 
Z0875a,Z0089a

>  <ref_pdb>  (1213) 
Z0089a

>  <HIPPO Compound ID>  (1213) 
144047

>  <name>  (1213) 
P70902

>  <inspiration_score>  (1213) 
None

$$$$
P70904
     RDKit          3D

 12 12  0  0  0  0  0  0  0  0999 V2000
   -1.8921    4.4729  -19.1206 C   0  0  0  0  0  0  0  0  0  0  0  0
   -2.7061    5.6164  -19.7191 C   0  0  2  0  0  0  0  0  0  0  0  0
   -2.5282    6.9809  -19.0294 C   0  0  0  0  0  0  0  0  0  0  0  0
   -0.8244    7.6092  -19.0793 S   0  0  0  0  0  0  0  0  0  0  0  0
   -4.1117    5.2391  -19.8264 N   0  0  0  0  0  0  0  0  0  0  0  0
   -5.0766    5.0370  -18.8931 C   0  0  0  0  0  0  0  0  0  0  0  0
   -4.9091    5.0259  -17.5223 C   0  0  0  0  0  0  0  0  0  0  0  0
   -5.9696    4.8088  -16.7098 N   0  0  0  0  0  0  0  0  0  0  0  0
   -5.7651    4.8164  -15.2628 C   0  0  0  0  0  0  0  0  0  0  0  0
   -7.1997    4.5906  -17.2293 C   0  0  0  0  0  0  0  0  0  0  0  0
   -7.3407    4.6045  -18.5984 C   0  0  0  0  0  0  0  0  0  0  0  0
   -6.2913    4.8196  -19.4125 N   0  0  0  0  0  0  0  0  0  0  0  0
  2  1  1  1
  2  3  1  0
  3  4  1  0
  2  5  1  0
  5  6  1  0
  6  7  2  0
  7  8  1  0
  8  9  1  0
  8 10  2  0
 10 11  1  0
 11 12  2  0
 12  6  1  0
M  CHG  1   8   1
M  END
>  <energy_score>  (1214) 
-17.45076

>  <alias>  (1214) 
None

>  <HIPPO Pose ID>  (1214) 
70904

>  <smiles>  (1214) 
C[C@H](CS)Nc1c[n+](C)ccn1

>  <inchikey>  (1214) 
SFDMPLFYFMMYAS-SSDOTTSWSA-O

>  <distance_score>  (1214) 
0.838525

>  <ref_mols>  (1214) 
Z0875a,Z0089a

>  <ref_pdb>  (1214) 
Z0089a

>  <HIPPO Compound ID>  (1214) 
144048

>  <name>  (1214) 
P70904

>  <inspiration_score>  (1214) 
None

$$$$
P70911
     RDKit          3D

 12 12  0  0  0  0  0  0  0  0999 V2000
   -8.4842    4.6117  -16.1493 C   0  0  0  0  0  0  0  0  0  0  0  0
   -7.2956    4.8847  -17.0105 C   0  0  0  0  0  0  0  0  0  0  0  0
   -7.2699    4.5070  -18.3457 C   0  0  0  0  0  0  0  0  0  0  0  0
   -6.1911    4.7014  -19.1392 N   0  0  0  0  0  0  0  0  0  0  0  0
   -5.1235    5.2908  -18.5796 C   0  0  0  0  0  0  0  0  0  0  0  0
   -4.0944    5.5587  -19.4514 N   0  0  0  0  0  0  0  0  0  0  0  0
   -2.6910    5.5356  -19.0661 C   0  0  1  0  0  0  0  0  0  0  0  0
   -2.0722    4.1675  -19.3343 C   0  0  0  0  0  0  0  0  0  0  0  0
   -1.9464    6.6695  -19.7967 C   0  0  0  0  0  0  0  0  0  0  0  0
   -1.9339    6.5208  -21.6228 S   0  0  0  0  0  0  0  0  0  0  0  0
   -5.1572    5.6643  -17.2371 C   0  0  0  0  0  0  0  0  0  0  0  0
   -6.2272    5.4789  -16.4270 N   0  0  0  0  0  0  0  0  0  0  0  0
  1  2  1  0
  2  3  2  0
  3  4  1  0
  4  5  2  0
  5  6  1  0
  6  7  1  0
  7  8  1  6
  7  9  1  0
  9 10  1  0
  5 11  1  0
 11 12  2  0
 12  2  1  0
M  END
>  <energy_score>  (1215) 
-42.45358

>  <alias>  (1215) 
None

>  <HIPPO Pose ID>  (1215) 
70911

>  <smiles>  (1215) 
Cc1cnc(N[C@@H](C)CS)cn1

>  <inchikey>  (1215) 
SAFDLZNJGWCTBT-ZETCQYMHSA-N

>  <distance_score>  (1215) 
0.721025

>  <ref_mols>  (1215) 
Z0875a,Z0089a

>  <ref_pdb>  (1215) 
Z0089a

>  <HIPPO Compound ID>  (1215) 
144051

>  <name>  (1215) 
P70911

>  <inspiration_score>  (1215) 
None

$$$$
P70913
     RDKit          3D

 12 12  0  0  0  0  0  0  0  0999 V2000
   -1.5994    4.5129  -19.6382 C   0  0  0  0  0  0  0  0  0  0  0  0
   -2.6349    5.3653  -18.9025 C   0  0  1  0  0  0  0  0  0  0  0  0
   -2.5230    6.8627  -19.2376 C   0  0  0  0  0  0  0  0  0  0  0  0
   -0.9949    7.6341  -18.6175 S   0  0  0  0  0  0  0  0  0  0  0  0
   -3.9498    4.8717  -19.2771 N   0  0  0  0  0  0  0  0  0  0  0  0
   -5.0620    4.9327  -18.4764 C   0  0  0  0  0  0  0  0  0  0  0  0
   -5.0662    5.0439  -17.0835 C   0  0  0  0  0  0  0  0  0  0  0  0
   -6.1919    5.0551  -16.3286 N   0  0  0  0  0  0  0  0  0  0  0  0
   -7.3205    4.8963  -17.0355 C   0  0  0  0  0  0  0  0  0  0  0  0
   -8.4401    4.8546  -16.2788 O   0  0  0  0  0  0  0  0  0  0  0  0
   -7.3543    4.7840  -18.4093 C   0  0  0  0  0  0  0  0  0  0  0  0
   -6.2208    4.8154  -19.1477 N   0  0  0  0  0  0  0  0  0  0  0  0
  2  1  1  6
  2  3  1  0
  3  4  1  0
  2  5  1  0
  5  6  1  0
  6  7  2  0
  7  8  1  0
  8  9  2  0
  9 10  1  0
  9 11  1  0
 11 12  2  0
 12  6  1  0
M  END
>  <energy_score>  (1216) 
-41.838939

>  <alias>  (1216) 
None

>  <HIPPO Pose ID>  (1216) 
70913

>  <smiles>  (1216) 
C[C@@H](CS)Nc1cnc(O)cn1

>  <inchikey>  (1216) 
PFKAAPAYAQPDMX-YFKPBYRVSA-N

>  <distance_score>  (1216) 
0.70975

>  <ref_mols>  (1216) 
Z0875a,Z0089a

>  <ref_pdb>  (1216) 
Z0089a

>  <HIPPO Compound ID>  (1216) 
144052

>  <name>  (1216) 
P70913

>  <inspiration_score>  (1216) 
None

$$$$
P70914
     RDKit          3D

 12 12  0  0  0  0  0  0  0  0999 V2000
   -4.4289    6.4417  -16.2337 C   0  0  0  0  0  0  0  0  0  0  0  0
   -5.3774    5.6531  -17.0758 C   0  0  0  0  0  0  0  0  0  0  0  0
   -6.4753    5.2114  -16.3988 N   0  0  0  0  0  0  0  0  0  0  0  0
   -7.4280    4.6009  -17.1333 C   0  0  0  0  0  0  0  0  0  0  0  0
   -7.3023    4.4304  -18.4919 C   0  0  0  0  0  0  0  0  0  0  0  0
   -6.2076    4.8405  -19.1634 N   0  0  0  0  0  0  0  0  0  0  0  0
   -5.2420    5.4693  -18.4624 C   0  0  0  0  0  0  0  0  0  0  0  0
   -4.2846    5.9905  -19.3041 N   0  0  0  0  0  0  0  0  0  0  0  0
   -2.8561    5.6561  -19.3184 C   0  0  2  0  0  0  0  0  0  0  0  0
   -2.4725    4.3813  -18.5909 C   0  0  0  0  0  0  0  0  0  0  0  0
   -1.9914    6.8409  -18.8579 C   0  0  0  0  0  0  0  0  0  0  0  0
   -2.0990    8.2824  -19.9756 S   0  0  0  0  0  0  0  0  0  0  0  0
  1  2  1  0
  2  3  2  0
  3  4  1  0
  4  5  2  0
  5  6  1  0
  6  7  2  0
  7  8  1  0
  8  9  1  0
  9 10  1  1
  9 11  1  0
 11 12  1  0
  7  2  1  0
M  END
>  <energy_score>  (1217) 
-29.782621

>  <alias>  (1217) 
None

>  <HIPPO Pose ID>  (1217) 
70914

>  <smiles>  (1217) 
Cc1nccnc1N[C@H](C)CS

>  <inchikey>  (1217) 
IOQXLHVTMPIXEE-ZCFIWIBFSA-N

>  <distance_score>  (1217) 
0.963572

>  <ref_mols>  (1217) 
Z0875a,Z0089a

>  <ref_pdb>  (1217) 
Z0089a

>  <HIPPO Compound ID>  (1217) 
144053

>  <name>  (1217) 
P70914

>  <inspiration_score>  (1217) 
None

$$$$
P70920
     RDKit          3D

 12 12  0  0  0  0  0  0  0  0999 V2000
   -0.3132    5.4022  -19.2743 C   0  0  0  0  0  0  0  0  0  0  0  0
   -1.7071    4.7920  -19.1949 C   0  0  0  0  0  0  0  0  0  0  0  0
   -2.7956    5.7435  -19.7069 C   0  0  2  0  0  0  0  0  0  0  0  0
   -2.8343    7.0991  -19.0097 C   0  0  0  0  0  0  0  0  0  0  0  0
   -4.0834    5.0725  -19.7402 N   0  0  0  0  0  0  0  0  0  0  0  0
   -4.9998    4.9917  -18.7227 C   0  0  0  0  0  0  0  0  0  0  0  0
   -4.7319    4.9824  -17.3583 C   0  0  0  0  0  0  0  0  0  0  0  0
   -5.6858    4.8647  -16.4032 N   0  0  0  0  0  0  0  0  0  0  0  0
   -6.9486    4.6964  -16.8610 C   0  0  0  0  0  0  0  0  0  0  0  0
   -8.0346    4.5098  -15.8544 C   0  0  0  0  0  0  0  0  0  0  0  0
   -7.2283    4.7139  -18.2179 C   0  0  0  0  0  0  0  0  0  0  0  0
   -6.2662    4.8663  -19.1533 N   0  0  0  0  0  0  0  0  0  0  0  0
  1  2  1  0
  2  3  1  0
  3  4  1  1
  3  5  1  0
  5  6  1  0
  6  7  2  0
  7  8  1  0
  8  9  2  0
  9 10  1  0
  9 11  1  0
 11 12  2  0
 12  6  1  0
M  END
>  <energy_score>  (1218) 
-20.962658

>  <alias>  (1218) 
None

>  <HIPPO Pose ID>  (1218) 
70920

>  <smiles>  (1218) 
CC[C@H](C)Nc1cnc(C)cn1

>  <inchikey>  (1218) 
HIVCUJDJLOBAJI-ZETCQYMHSA-N

>  <distance_score>  (1218) 
0.779264

>  <ref_mols>  (1218) 
Z0875a,Z0089a

>  <ref_pdb>  (1218) 
Z0089a

>  <HIPPO Compound ID>  (1218) 
144056

>  <name>  (1218) 
P70920

>  <inspiration_score>  (1218) 
None

$$$$
P70922
     RDKit          3D

 12 12  0  0  0  0  0  0  0  0999 V2000
   -8.6375    4.1778  -18.9380 C   0  0  0  0  0  0  0  0  0  0  0  0
   -7.3598    4.6161  -18.2914 C   0  0  0  0  0  0  0  0  0  0  0  0
   -7.3319    4.8870  -16.9316 C   0  0  0  0  0  0  0  0  0  0  0  0
   -6.2141    5.2842  -16.2879 N   0  0  0  0  0  0  0  0  0  0  0  0
   -5.1056    5.3506  -17.0659 C   0  0  0  0  0  0  0  0  0  0  0  0
   -5.0883    5.0920  -18.4391 C   0  0  0  0  0  0  0  0  0  0  0  0
   -3.9458    5.1702  -19.2342 N   0  0  0  0  0  0  0  0  0  0  0  0
   -4.0836    5.5835  -20.5635 O   0  0  0  0  0  0  0  0  0  0  0  0
   -2.5924    5.3422  -18.7090 C   0  0  0  0  0  0  0  0  0  0  0  0
   -1.6145    4.4965  -19.5275 C   0  0  0  0  0  0  0  0  0  0  0  0
   -2.1888    6.8146  -18.7295 C   0  0  0  0  0  0  0  0  0  0  0  0
   -6.2450    4.7473  -19.0606 N   0  0  0  0  0  0  0  0  0  0  0  0
  1  2  1  0
  2  3  2  0
  3  4  1  0
  4  5  2  0
  5  6  1  0
  6  7  1  0
  7  8  1  0
  7  9  1  0
  9 10  1  0
  9 11  1  0
  6 12  2  0
 12  2  1  0
M  END
>  <energy_score>  (1219) 
-36.432554

>  <alias>  (1219) 
None

>  <HIPPO Pose ID>  (1219) 
70922

>  <smiles>  (1219) 
Cc1cncc(N(O)C(C)C)n1

>  <inchikey>  (1219) 
QPOPICIFYZZDKO-UHFFFAOYSA-N

>  <distance_score>  (1219) 
0.706322

>  <ref_mols>  (1219) 
Z0875a,Z0089a

>  <ref_pdb>  (1219) 
Z0089a

>  <HIPPO Compound ID>  (1219) 
144057

>  <name>  (1219) 
P70922

>  <inspiration_score>  (1219) 
None

$$$$
P70923
     RDKit          3D

 12 12  0  0  0  0  0  0  0  0999 V2000
   -1.4740    4.5338  -19.7152 C   0  0  0  0  0  0  0  0  0  0  0  0
   -2.4578    5.3680  -18.9014 C   0  0  0  0  0  0  0  0  0  0  0  0
   -2.0337    6.8320  -18.8374 C   0  0  0  0  0  0  0  0  0  0  0  0
   -3.7982    5.2493  -19.4769 N   0  0  0  0  0  0  0  0  0  0  0  0
   -3.8928    5.7401  -20.7852 O   0  0  0  0  0  0  0  0  0  0  0  0
   -4.9642    5.0468  -18.7572 C   0  0  0  0  0  0  0  0  0  0  0  0
   -5.0312    5.0478  -17.3742 C   0  0  0  0  0  0  0  0  0  0  0  0
   -6.2085    4.8316  -16.7442 N   0  0  0  0  0  0  0  0  0  0  0  0
   -6.2268    4.8206  -15.2836 C   0  0  0  0  0  0  0  0  0  0  0  0
   -7.3332    4.5929  -17.4548 C   0  0  0  0  0  0  0  0  0  0  0  0
   -7.2495    4.5989  -18.8293 C   0  0  0  0  0  0  0  0  0  0  0  0
   -6.0884    4.8362  -19.4723 N   0  0  0  0  0  0  0  0  0  0  0  0
  1  2  1  0
  2  3  1  0
  2  4  1  0
  4  5  1  0
  4  6  1  0
  6  7  2  0
  7  8  1  0
  8  9  1  0
  8 10  2  0
 10 11  1  0
 11 12  2  0
 12  6  1  0
M  CHG  1   8   1
M  END
>  <energy_score>  (1220) 
-23.2769

>  <alias>  (1220) 
None

>  <HIPPO Pose ID>  (1220) 
70923

>  <smiles>  (1220) 
CC(C)N(O)c1c[n+](C)ccn1

>  <inchikey>  (1220) 
KKSFTVOZZOVYSB-UHFFFAOYSA-N

>  <distance_score>  (1220) 
0.841171

>  <ref_mols>  (1220) 
Z0875a,Z0089a

>  <ref_pdb>  (1220) 
Z0089a

>  <HIPPO Compound ID>  (1220) 
144058

>  <name>  (1220) 
P70923

>  <inspiration_score>  (1220) 
None

$$$$
P70926
     RDKit          3D

 12 12  0  0  0  0  0  0  0  0999 V2000
   -1.4719    4.5034  -19.5859 C   0  0  0  0  0  0  0  0  0  0  0  0
   -2.4639    5.3230  -18.7619 C   0  0  0  0  0  0  0  0  0  0  0  0
   -2.0745    6.7986  -18.7374 C   0  0  0  0  0  0  0  0  0  0  0  0
   -3.8051    5.1577  -19.3131 N   0  0  0  0  0  0  0  0  0  0  0  0
   -3.9185    5.5801  -20.6453 O   0  0  0  0  0  0  0  0  0  0  0  0
   -4.9624    5.0733  -18.5476 C   0  0  0  0  0  0  0  0  0  0  0  0
   -5.0040    5.1476  -17.1503 C   0  0  0  0  0  0  0  0  0  0  0  0
   -6.1400    5.0655  -16.4109 N   0  0  0  0  0  0  0  0  0  0  0  0
   -7.2500    4.8696  -17.1370 C   0  0  0  0  0  0  0  0  0  0  0  0
   -8.3776    4.7600  -16.3989 O   0  0  0  0  0  0  0  0  0  0  0  0
   -7.2582    4.7933  -18.5133 C   0  0  0  0  0  0  0  0  0  0  0  0
   -6.1180    4.9066  -19.2365 N   0  0  0  0  0  0  0  0  0  0  0  0
  1  2  1  0
  2  3  1  0
  2  4  1  0
  4  5  1  0
  4  6  1  0
  6  7  2  0
  7  8  1  0
  8  9  2  0
  9 10  1  0
  9 11  1  0
 11 12  2  0
 12  6  1  0
M  END
>  <energy_score>  (1221) 
-38.621702

>  <alias>  (1221) 
None

>  <HIPPO Pose ID>  (1221) 
70926

>  <smiles>  (1221) 
CC(C)N(O)c1cnc(O)cn1

>  <inchikey>  (1221) 
HTDDKRZUXRQWHR-UHFFFAOYSA-N

>  <distance_score>  (1221) 
0.783989

>  <ref_mols>  (1221) 
Z0875a,Z0089a

>  <ref_pdb>  (1221) 
Z0089a

>  <HIPPO Compound ID>  (1221) 
144061

>  <name>  (1221) 
P70926

>  <inspiration_score>  (1221) 
None

$$$$
P70927
     RDKit          3D

 12 12  0  0  0  0  0  0  0  0999 V2000
   -0.4798    5.3696  -19.1830 C   0  0  0  0  0  0  0  0  0  0  0  0
   -1.8800    4.7834  -19.0479 C   0  0  0  0  0  0  0  0  0  0  0  0
   -2.9547    5.6982  -19.6467 C   0  0  2  0  0  0  0  0  0  0  0  0
   -2.9834    7.1052  -19.0614 C   0  0  0  0  0  0  0  0  0  0  0  0
   -4.2462    5.0392  -19.6445 N   0  0  0  0  0  0  0  0  0  0  0  0
   -5.2046    4.9983  -18.6695 C   0  0  0  0  0  0  0  0  0  0  0  0
   -5.0306    5.2275  -17.3090 C   0  0  0  0  0  0  0  0  0  0  0  0
   -6.0395    5.1974  -16.4017 N   0  0  0  0  0  0  0  0  0  0  0  0
   -7.2429    4.8396  -16.9050 C   0  0  0  0  0  0  0  0  0  0  0  0
   -7.4411    4.5637  -18.2481 C   0  0  0  0  0  0  0  0  0  0  0  0
   -8.7845    4.1588  -18.7660 C   0  0  0  0  0  0  0  0  0  0  0  0
   -6.4226    4.6654  -19.1361 N   0  0  0  0  0  0  0  0  0  0  0  0
  1  2  1  0
  2  3  1  0
  3  4  1  1
  3  5  1  0
  5  6  1  0
  6  7  2  0
  7  8  1  0
  8  9  2  0
  9 10  1  0
 10 11  1  0
 10 12  2  0
 12  6  1  0
M  END
>  <energy_score>  (1222) 
-28.599259

>  <alias>  (1222) 
None

>  <HIPPO Pose ID>  (1222) 
70927

>  <smiles>  (1222) 
CC[C@H](C)Nc1cncc(C)n1

>  <inchikey>  (1222) 
BLWCZRKNNRVEJJ-ZETCQYMHSA-N

>  <distance_score>  (1222) 
0.727528

>  <ref_mols>  (1222) 
Z0875a,Z0089a

>  <ref_pdb>  (1222) 
Z0089a

>  <HIPPO Compound ID>  (1222) 
144062

>  <name>  (1222) 
P70927

>  <inspiration_score>  (1222) 
None

$$$$
P70930
     RDKit          3D

 12 12  0  0  0  0  0  0  0  0999 V2000
   -0.1879    5.4067  -19.1485 C   0  0  0  0  0  0  0  0  0  0  0  0
   -1.5179    4.8176  -19.6059 C   0  0  0  0  0  0  0  0  0  0  0  0
   -2.7200    5.6180  -19.0836 C   0  0  1  0  0  0  0  0  0  0  0  0
   -2.7435    7.0538  -19.5949 C   0  0  0  0  0  0  0  0  0  0  0  0
   -3.9397    4.9371  -19.4921 N   0  0  0  0  0  0  0  0  0  0  0  0
   -5.0835    4.8923  -18.7353 C   0  0  0  0  0  0  0  0  0  0  0  0
   -5.1192    4.9375  -17.3536 C   0  0  0  0  0  0  0  0  0  0  0  0
   -6.2964    4.8227  -16.7004 N   0  0  0  0  0  0  0  0  0  0  0  0
   -6.2878    4.8507  -15.2415 C   0  0  0  0  0  0  0  0  0  0  0  0
   -7.4426    4.6226  -17.3891 C   0  0  0  0  0  0  0  0  0  0  0  0
   -7.3775    4.5714  -18.7649 C   0  0  0  0  0  0  0  0  0  0  0  0
   -6.2135    4.7111  -19.4291 N   0  0  0  0  0  0  0  0  0  0  0  0
  1  2  1  0
  2  3  1  0
  3  4  1  6
  3  5  1  0
  5  6  1  0
  6  7  2  0
  7  8  1  0
  8  9  1  0
  8 10  2  0
 10 11  1  0
 11 12  2  0
 12  6  1  0
M  CHG  1   8   1
M  END
>  <energy_score>  (1223) 
-20.93912

>  <alias>  (1223) 
None

>  <HIPPO Pose ID>  (1223) 
70930

>  <smiles>  (1223) 
CC[C@@H](C)Nc1c[n+](C)ccn1

>  <inchikey>  (1223) 
CUZGXEODIXSYKZ-MRVPVSSYSA-N

>  <distance_score>  (1223) 
0.849892

>  <ref_mols>  (1223) 
Z0875a,Z0089a

>  <ref_pdb>  (1223) 
Z0089a

>  <HIPPO Compound ID>  (1223) 
144063

>  <name>  (1223) 
P70930

>  <inspiration_score>  (1223) 
None

$$$$
P70931
     RDKit          3D

 12 12  0  0  0  0  0  0  0  0999 V2000
   -8.6527    4.1256  -18.8800 C   0  0  0  0  0  0  0  0  0  0  0  0
   -7.3688    4.5850  -18.2629 C   0  0  0  0  0  0  0  0  0  0  0  0
   -7.2853    4.8004  -16.8980 C   0  0  0  0  0  0  0  0  0  0  0  0
   -6.1731    5.2837  -16.3065 N   0  0  0  0  0  0  0  0  0  0  0  0
   -5.1400    5.5362  -17.1512 C   0  0  0  0  0  0  0  0  0  0  0  0
   -5.1862    5.3394  -18.5272 C   0  0  0  0  0  0  0  0  0  0  0  0
   -4.2391    5.6901  -19.4508 N   0  0  0  0  0  0  0  0  0  0  0  0
   -2.7846    5.8066  -19.3702 C   0  0  0  0  0  0  0  0  0  0  0  0
   -2.1366    4.4208  -19.4430 C   0  0  0  0  0  0  0  0  0  0  0  0
   -2.2756    6.5567  -18.1408 C   0  0  0  0  0  0  0  0  0  0  0  0
   -2.3485    6.6497  -20.5888 C   0  0  0  0  0  0  0  0  0  0  0  0
   -6.3150    4.8493  -19.0795 N   0  0  0  0  0  0  0  0  0  0  0  0
  1  2  1  0
  2  3  2  0
  3  4  1  0
  4  5  2  0
  5  6  1  0
  6  7  1  0
  7  8  1  0
  8  9  1  0
  8 10  1  0
  8 11  1  0
  6 12  2  0
 12  2  1  0
M  END
>  <energy_score>  (1224) 
-29.72055

>  <alias>  (1224) 
None

>  <HIPPO Pose ID>  (1224) 
70931

>  <smiles>  (1224) 
Cc1cncc(NC(C)(C)C)n1

>  <inchikey>  (1224) 
LLYYNODGVOBWNQ-UHFFFAOYSA-N

>  <distance_score>  (1224) 
0.748966

>  <ref_mols>  (1224) 
Z0875a,Z0089a

>  <ref_pdb>  (1224) 
Z0089a

>  <HIPPO Compound ID>  (1224) 
144064

>  <name>  (1224) 
P70931

>  <inspiration_score>  (1224) 
None

$$$$
P70932
     RDKit          3D

 12 12  0  0  0  0  0  0  0  0999 V2000
   -1.6919    3.5826  -19.5609 C   0  0  0  0  0  0  0  0  0  0  0  0
   -1.7893    4.9784  -18.9854 C   0  0  0  0  0  0  0  0  0  0  0  0
   -2.8972    5.8038  -19.6380 C   0  0  2  0  0  0  0  0  0  0  0  0
   -2.9807    7.2067  -19.0543 C   0  0  0  0  0  0  0  0  0  0  0  0
   -4.1652    5.0998  -19.6692 N   0  0  0  0  0  0  0  0  0  0  0  0
   -5.1321    5.0404  -18.7045 C   0  0  0  0  0  0  0  0  0  0  0  0
   -4.9559    5.1532  -17.3263 C   0  0  0  0  0  0  0  0  0  0  0  0
   -5.9728    5.1144  -16.4259 N   0  0  0  0  0  0  0  0  0  0  0  0
   -7.1799    4.9059  -16.9774 C   0  0  0  0  0  0  0  0  0  0  0  0
   -8.1995    4.8748  -16.0882 O   0  0  0  0  0  0  0  0  0  0  0  0
   -7.3862    4.7546  -18.3304 C   0  0  0  0  0  0  0  0  0  0  0  0
   -6.3607    4.8227  -19.2068 N   0  0  0  0  0  0  0  0  0  0  0  0
  1  2  1  0
  2  3  1  0
  3  4  1  1
  3  5  1  0
  5  6  1  0
  6  7  2  0
  7  8  1  0
  8  9  2  0
  9 10  1  0
  9 11  1  0
 11 12  2  0
 12  6  1  0
M  END
>  <energy_score>  (1225) 
-40.825488

>  <alias>  (1225) 
None

>  <HIPPO Pose ID>  (1225) 
70932

>  <smiles>  (1225) 
CC[C@H](C)Nc1cnc(O)cn1

>  <inchikey>  (1225) 
TVXKWUWULRLYCB-LURJTMIESA-N

>  <distance_score>  (1225) 
0.802452

>  <ref_mols>  (1225) 
Z0875a,Z0089a

>  <ref_pdb>  (1225) 
Z0089a

>  <HIPPO Compound ID>  (1225) 
144065

>  <name>  (1225) 
P70932

>  <inspiration_score>  (1225) 
None

$$$$
P70938
     RDKit          3D

 12 12  0  0  0  0  0  0  0  0999 V2000
   -4.5713    6.4827  -16.0537 C   0  0  0  0  0  0  0  0  0  0  0  0
   -5.3726    5.7051  -17.0442 C   0  0  0  0  0  0  0  0  0  0  0  0
   -6.5137    5.1823  -16.5080 N   0  0  0  0  0  0  0  0  0  0  0  0
   -7.3577    4.5709  -17.3619 C   0  0  0  0  0  0  0  0  0  0  0  0
   -7.0801    4.4653  -18.7033 C   0  0  0  0  0  0  0  0  0  0  0  0
   -5.9380    4.9472  -19.2376 N   0  0  0  0  0  0  0  0  0  0  0  0
   -5.0789    5.5855  -18.4140 C   0  0  0  0  0  0  0  0  0  0  0  0
   -4.0874    6.2153  -19.1432 N   0  0  0  0  0  0  0  0  0  0  0  0
   -2.6501    5.8874  -19.1325 C   0  0  0  0  0  0  0  0  0  0  0  0
   -2.3761    4.3916  -19.2739 C   0  0  0  0  0  0  0  0  0  0  0  0
   -1.9315    6.4488  -17.9148 C   0  0  0  0  0  0  0  0  0  0  0  0
   -2.0461    6.6080  -20.3634 C   0  0  0  0  0  0  0  0  0  0  0  0
  1  2  1  0
  2  3  2  0
  3  4  1  0
  4  5  2  0
  5  6  1  0
  6  7  2  0
  7  8  1  0
  8  9  1  0
  9 10  1  0
  9 11  1  0
  9 12  1  0
  7  2  1  0
M  END
>  <energy_score>  (1226) 
-17.000228

>  <alias>  (1226) 
None

>  <HIPPO Pose ID>  (1226) 
70938

>  <smiles>  (1226) 
Cc1nccnc1NC(C)(C)C

>  <inchikey>  (1226) 
PRDMIFYLWYECJH-UHFFFAOYSA-N

>  <distance_score>  (1226) 
1.15018

>  <ref_mols>  (1226) 
Z0875a,Z0089a

>  <ref_pdb>  (1226) 
Z0089a

>  <HIPPO Compound ID>  (1226) 
144069

>  <name>  (1226) 
P70938

>  <inspiration_score>  (1226) 
None

$$$$
P70940
     RDKit          3D

 12 12  0  0  0  0  0  0  0  0999 V2000
   -1.8887    4.6515  -18.7392 C   0  0  0  0  0  0  0  0  0  0  0  0
   -2.7208    5.7894  -19.3311 C   0  0  0  0  0  0  0  0  0  0  0  0
   -2.6714    7.0539  -18.4673 C   0  0  0  0  0  0  0  0  0  0  0  0
   -2.0804    6.1680  -20.6819 C   0  0  0  0  0  0  0  0  0  0  0  0
   -4.0885    5.3309  -19.5602 N   0  0  0  0  0  0  0  0  0  0  0  0
   -5.1130    5.1274  -18.6697 C   0  0  0  0  0  0  0  0  0  0  0  0
   -5.0114    5.0699  -17.2768 C   0  0  0  0  0  0  0  0  0  0  0  0
   -6.0647    4.8912  -16.4366 N   0  0  0  0  0  0  0  0  0  0  0  0
   -7.2484    4.6936  -17.0545 C   0  0  0  0  0  0  0  0  0  0  0  0
   -7.3593    4.7340  -18.4272 C   0  0  0  0  0  0  0  0  0  0  0  0
   -8.5645    4.6049  -19.0392 O   0  0  0  0  0  0  0  0  0  0  0  0
   -6.3202    4.9674  -19.2496 N   0  0  0  0  0  0  0  0  0  0  0  0
  1  2  1  0
  2  3  1  0
  2  4  1  0
  2  5  1  0
  5  6  1  0
  6  7  2  0
  7  8  1  0
  8  9  2  0
  9 10  1  0
 10 11  1  0
 10 12  2  0
 12  6  1  0
M  END
>  <energy_score>  (1227) 
-34.847463

>  <alias>  (1227) 
None

>  <HIPPO Pose ID>  (1227) 
70940

>  <smiles>  (1227) 
CC(C)(C)Nc1cncc(O)n1

>  <inchikey>  (1227) 
JWQLNVAYWYTGFI-UHFFFAOYSA-N

>  <distance_score>  (1227) 
0.740972

>  <ref_mols>  (1227) 
Z0875a,Z0089a

>  <ref_pdb>  (1227) 
Z0089a

>  <HIPPO Compound ID>  (1227) 
144071

>  <name>  (1227) 
P70940

>  <inspiration_score>  (1227) 
None

$$$$
P70941
     RDKit          3D

 12 12  0  0  0  0  0  0  0  0999 V2000
   -1.7010    4.6287  -19.4921 C   0  0  0  0  0  0  0  0  0  0  0  0
   -2.6603    5.5060  -18.6578 C   0  0  0  0  0  0  0  0  0  0  0  0
   -2.6006    6.9454  -19.1766 C   0  0  0  0  0  0  0  0  0  0  0  0
   -2.1877    5.4489  -17.2064 C   0  0  0  0  0  0  0  0  0  0  0  0
   -3.9900    4.9704  -18.8871 N   0  0  0  0  0  0  0  0  0  0  0  0
   -5.1964    5.0380  -18.2703 C   0  0  0  0  0  0  0  0  0  0  0  0
   -6.1647    4.6058  -19.1118 N   0  0  0  0  0  0  0  0  0  0  0  0
   -7.4202    4.4955  -18.6290 C   0  0  0  0  0  0  0  0  0  0  0  0
   -7.7277    4.8149  -17.3260 C   0  0  0  0  0  0  0  0  0  0  0  0
   -6.8105    5.3117  -16.4705 N   0  0  0  0  0  0  0  0  0  0  0  0
   -5.5548    5.3967  -16.9645 C   0  0  0  0  0  0  0  0  0  0  0  0
   -4.7262    5.8689  -16.0072 O   0  0  0  0  0  0  0  0  0  0  0  0
  1  2  1  0
  2  3  1  0
  2  4  1  0
  2  5  1  0
  5  6  1  0
  6  7  2  0
  7  8  1  0
  8  9  2  0
  9 10  1  0
 10 11  2  0
 11 12  1  0
 11  6  1  0
M  END
>  <energy_score>  (1228) 
-26.560693

>  <alias>  (1228) 
None

>  <HIPPO Pose ID>  (1228) 
70941

>  <smiles>  (1228) 
CC(C)(C)Nc1nccnc1O

>  <inchikey>  (1228) 
SLZWPQNXOGAHBJ-UHFFFAOYSA-N

>  <distance_score>  (1228) 
0.943488

>  <ref_mols>  (1228) 
Z0875a,Z0089a

>  <ref_pdb>  (1228) 
Z0089a

>  <HIPPO Compound ID>  (1228) 
144072

>  <name>  (1228) 
P70941

>  <inspiration_score>  (1228) 
None

$$$$
P70942
     RDKit          3D

 12 12  0  0  0  0  0  0  0  0999 V2000
   -8.6122    4.1861  -18.9162 C   0  0  0  0  0  0  0  0  0  0  0  0
   -7.3382    4.6230  -18.2614 C   0  0  0  0  0  0  0  0  0  0  0  0
   -7.2985    4.8334  -16.8919 C   0  0  0  0  0  0  0  0  0  0  0  0
   -6.1823    5.2304  -16.2451 N   0  0  0  0  0  0  0  0  0  0  0  0
   -5.0868    5.3668  -17.0336 C   0  0  0  0  0  0  0  0  0  0  0  0
   -5.0791    5.1742  -18.4191 C   0  0  0  0  0  0  0  0  0  0  0  0
   -3.9408    5.3795  -19.2187 N   0  0  0  0  0  0  0  0  0  0  0  0
   -4.1629    5.8621  -20.5362 N   0  0  0  0  0  0  0  0  0  0  0  0
   -2.5786    5.3725  -18.6709 C   0  0  0  0  0  0  0  0  0  0  0  0
   -1.6662    4.4974  -19.5337 C   0  0  0  0  0  0  0  0  0  0  0  0
   -2.0375    6.7984  -18.5842 C   0  0  0  0  0  0  0  0  0  0  0  0
   -6.2390    4.8249  -19.0363 N   0  0  0  0  0  0  0  0  0  0  0  0
  1  2  1  0
  2  3  2  0
  3  4  1  0
  4  5  2  0
  5  6  1  0
  6  7  1  0
  7  8  1  0
  7  9  1  0
  9 10  1  0
  9 11  1  0
  6 12  2  0
 12  2  1  0
M  END
>  <energy_score>  (1229) 
-20.710955

>  <alias>  (1229) 
None

>  <HIPPO Pose ID>  (1229) 
70942

>  <smiles>  (1229) 
Cc1cncc(N(N)C(C)C)n1

>  <inchikey>  (1229) 
HRKCABCUVDIONL-UHFFFAOYSA-N

>  <distance_score>  (1229) 
0.827162

>  <ref_mols>  (1229) 
Z0875a,Z0089a

>  <ref_pdb>  (1229) 
Z0089a

>  <HIPPO Compound ID>  (1229) 
144073

>  <name>  (1229) 
P70942

>  <inspiration_score>  (1229) 
None

$$$$
P70944
     RDKit          3D

 12 12  0  0  0  0  0  0  0  0999 V2000
   -1.6514    4.5240  -19.6097 C   0  0  0  0  0  0  0  0  0  0  0  0
   -2.5722    5.3522  -18.7114 C   0  0  0  0  0  0  0  0  0  0  0  0
   -2.0297    6.7693  -18.5376 C   0  0  0  0  0  0  0  0  0  0  0  0
   -3.9305    5.3980  -19.2722 N   0  0  0  0  0  0  0  0  0  0  0  0
   -4.1259    5.9320  -20.5776 N   0  0  0  0  0  0  0  0  0  0  0  0
   -5.0842    5.1791  -18.4956 C   0  0  0  0  0  0  0  0  0  0  0  0
   -5.0795    5.1651  -17.0922 C   0  0  0  0  0  0  0  0  0  0  0  0
   -6.1793    4.9660  -16.3204 N   0  0  0  0  0  0  0  0  0  0  0  0
   -7.3150    4.7268  -17.0100 C   0  0  0  0  0  0  0  0  0  0  0  0
   -7.3459    4.7585  -18.3882 C   0  0  0  0  0  0  0  0  0  0  0  0
   -8.5156    4.5924  -19.0589 O   0  0  0  0  0  0  0  0  0  0  0  0
   -6.2660    5.0106  -19.1508 N   0  0  0  0  0  0  0  0  0  0  0  0
  1  2  1  0
  2  3  1  0
  2  4  1  0
  4  5  1  0
  4  6  1  0
  6  7  2  0
  7  8  1  0
  8  9  2  0
  9 10  1  0
 10 11  1  0
 10 12  2  0
 12  6  1  0
M  END
>  <energy_score>  (1230) 
-34.928756

>  <alias>  (1230) 
None

>  <HIPPO Pose ID>  (1230) 
70944

>  <smiles>  (1230) 
CC(C)N(N)c1cncc(O)n1

>  <inchikey>  (1230) 
LMWBUQQXVQXFKV-UHFFFAOYSA-N

>  <distance_score>  (1230) 
1.06078

>  <ref_mols>  (1230) 
Z0875a,Z0089a

>  <ref_pdb>  (1230) 
Z0089a

>  <HIPPO Compound ID>  (1230) 
144075

>  <name>  (1230) 
P70944

>  <inspiration_score>  (1230) 
None

$$$$
P70945
     RDKit          3D

 12 12  0  0  0  0  0  0  0  0999 V2000
   -8.1663    4.5132  -16.1421 C   0  0  0  0  0  0  0  0  0  0  0  0
   -7.0117    4.7886  -17.0497 C   0  0  0  0  0  0  0  0  0  0  0  0
   -7.1854    4.9125  -18.4162 C   0  0  0  0  0  0  0  0  0  0  0  0
   -6.1687    5.2288  -19.2514 N   0  0  0  0  0  0  0  0  0  0  0  0
   -4.9269    5.3854  -18.7276 C   0  0  0  0  0  0  0  0  0  0  0  0
   -3.9156    5.7695  -19.6138 N   0  0  0  0  0  0  0  0  0  0  0  0
   -4.3555    6.3564  -20.8445 N   0  0  0  0  0  0  0  0  0  0  0  0
   -2.4658    5.7415  -19.3891 C   0  0  0  0  0  0  0  0  0  0  0  0
   -1.9512    4.3552  -19.0432 C   0  0  0  0  0  0  0  0  0  0  0  0
   -2.0018    6.8384  -18.4431 C   0  0  0  0  0  0  0  0  0  0  0  0
   -4.7751    5.2280  -17.3511 C   0  0  0  0  0  0  0  0  0  0  0  0
   -5.7942    4.9678  -16.4871 N   0  0  0  0  0  0  0  0  0  0  0  0
  1  2  1  0
  2  3  2  0
  3  4  1  0
  4  5  2  0
  5  6  1  0
  6  7  1  0
  6  8  1  0
  8  9  1  0
  8 10  1  0
  5 11  1  0
 11 12  2  0
 12  2  1  0
M  END
>  <energy_score>  (1231) 
-25.052905

>  <alias>  (1231) 
None

>  <HIPPO Pose ID>  (1231) 
70945

>  <smiles>  (1231) 
Cc1cnc(N(N)C(C)C)cn1

>  <inchikey>  (1231) 
SPGPMNRLZUNUNY-UHFFFAOYSA-N

>  <distance_score>  (1231) 
0.811811

>  <ref_mols>  (1231) 
Z0875a,Z0089a

>  <ref_pdb>  (1231) 
Z0089a

>  <HIPPO Compound ID>  (1231) 
144076

>  <name>  (1231) 
P70945

>  <inspiration_score>  (1231) 
None

$$$$
P70948
     RDKit          3D

 12 12  0  0  0  0  0  0  0  0999 V2000
   -1.5065    4.6427  -19.7005 C   0  0  0  0  0  0  0  0  0  0  0  0
   -2.5829    5.4352  -18.9639 C   0  0  1  0  0  0  0  0  0  0  0  0
   -2.4945    6.9264  -19.2894 C   0  0  0  0  0  0  0  0  0  0  0  0
   -1.3032    7.4175  -18.8530 F   0  0  0  0  0  0  0  0  0  0  0  0
   -3.8771    4.8838  -19.3350 N   0  0  0  0  0  0  0  0  0  0  0  0
   -4.9564    4.9171  -18.4812 C   0  0  0  0  0  0  0  0  0  0  0  0
   -4.8928    4.8316  -17.0881 C   0  0  0  0  0  0  0  0  0  0  0  0
   -5.9815    4.7635  -16.2887 N   0  0  0  0  0  0  0  0  0  0  0  0
   -7.1460    4.7544  -16.9532 C   0  0  0  0  0  0  0  0  0  0  0  0
   -8.2312    4.6185  -16.1604 O   0  0  0  0  0  0  0  0  0  0  0  0
   -7.2455    4.8531  -18.3249 C   0  0  0  0  0  0  0  0  0  0  0  0
   -6.1454    4.9493  -19.1058 N   0  0  0  0  0  0  0  0  0  0  0  0
  2  1  1  6
  2  3  1  0
  3  4  1  0
  2  5  1  0
  5  6  1  0
  6  7  2  0
  7  8  1  0
  8  9  2  0
  9 10  1  0
  9 11  1  0
 11 12  2  0
 12  6  1  0
M  END
>  <energy_score>  (1232) 
-45.586719

>  <alias>  (1232) 
None

>  <HIPPO Pose ID>  (1232) 
70948

>  <smiles>  (1232) 
C[C@@H](CF)Nc1cnc(O)cn1

>  <inchikey>  (1232) 
MRKCVEMITWMCQL-YFKPBYRVSA-N

>  <distance_score>  (1232) 
0.778575

>  <ref_mols>  (1232) 
Z0875a,Z0089a

>  <ref_pdb>  (1232) 
Z0089a

>  <HIPPO Compound ID>  (1232) 
144078

>  <name>  (1232) 
P70948

>  <inspiration_score>  (1232) 
None

$$$$
P70951
     RDKit          3D

 12 12  0  0  0  0  0  0  0  0999 V2000
   -8.8038    4.1464  -18.7671 C   0  0  0  0  0  0  0  0  0  0  0  0
   -7.4679    4.5638  -18.2409 C   0  0  0  0  0  0  0  0  0  0  0  0
   -7.2804    4.8349  -16.8957 C   0  0  0  0  0  0  0  0  0  0  0  0
   -6.0875    5.2190  -16.3892 N   0  0  0  0  0  0  0  0  0  0  0  0
   -5.0808    5.2925  -17.2955 C   0  0  0  0  0  0  0  0  0  0  0  0
   -5.2431    5.0623  -18.6575 C   0  0  0  0  0  0  0  0  0  0  0  0
   -4.2979    5.1757  -19.6315 N   0  0  0  0  0  0  0  0  0  0  0  0
   -2.9007    5.5630  -19.5832 C   0  0  2  0  0  0  0  0  0  0  0  0
   -2.0410    4.4797  -18.9488 C   0  0  0  0  0  0  0  0  0  0  0  0
   -2.6576    6.9430  -18.9745 C   0  0  0  0  0  0  0  0  0  0  0  0
   -1.3989    7.3573  -19.2928 F   0  0  0  0  0  0  0  0  0  0  0  0
   -6.4491    4.6928  -19.1256 N   0  0  0  0  0  0  0  0  0  0  0  0
  1  2  1  0
  2  3  2  0
  3  4  1  0
  4  5  2  0
  5  6  1  0
  6  7  1  0
  7  8  1  0
  8  9  1  1
  8 10  1  0
 10 11  1  0
  6 12  2  0
 12  2  1  0
M  END
>  <energy_score>  (1233) 
-15.432375

>  <alias>  (1233) 
None

>  <HIPPO Pose ID>  (1233) 
70951

>  <smiles>  (1233) 
Cc1cncc(N[C@H](C)CF)n1

>  <inchikey>  (1233) 
QKXXXZCHMODVRL-ZCFIWIBFSA-N

>  <distance_score>  (1233) 
0.685833

>  <ref_mols>  (1233) 
Z0875a,Z0089a

>  <ref_pdb>  (1233) 
Z0089a

>  <HIPPO Compound ID>  (1233) 
144080

>  <name>  (1233) 
P70951

>  <inspiration_score>  (1233) 
None

$$$$
P70955
     RDKit          3D

 12 12  0  0  0  0  0  0  0  0999 V2000
   -1.8817    4.4768  -19.1016 C   0  0  0  0  0  0  0  0  0  0  0  0
   -2.7593    5.6023  -19.6299 C   0  0  2  0  0  0  0  0  0  0  0  0
   -2.5498    6.9205  -18.8840 C   0  0  0  0  0  0  0  0  0  0  0  0
   -3.2083    7.9213  -19.5339 F   0  0  0  0  0  0  0  0  0  0  0  0
   -4.1444    5.1682  -19.7246 N   0  0  0  0  0  0  0  0  0  0  0  0
   -5.0974    5.0475  -18.7532 C   0  0  0  0  0  0  0  0  0  0  0  0
   -4.8901    4.9695  -17.3762 C   0  0  0  0  0  0  0  0  0  0  0  0
   -5.8848    4.8052  -16.4680 N   0  0  0  0  0  0  0  0  0  0  0  0
   -7.1211    4.6716  -17.0014 C   0  0  0  0  0  0  0  0  0  0  0  0
   -7.3321    4.7507  -18.3607 C   0  0  0  0  0  0  0  0  0  0  0  0
   -8.5695    4.6736  -18.9087 O   0  0  0  0  0  0  0  0  0  0  0  0
   -6.3463    4.9551  -19.2457 N   0  0  0  0  0  0  0  0  0  0  0  0
  2  1  1  1
  2  3  1  0
  3  4  1  0
  2  5  1  0
  5  6  1  0
  6  7  2  0
  7  8  1  0
  8  9  2  0
  9 10  1  0
 10 11  1  0
 10 12  2  0
 12  6  1  0
M  END
>  <energy_score>  (1234) 
-38.071873

>  <alias>  (1234) 
None

>  <HIPPO Pose ID>  (1234) 
70955

>  <smiles>  (1234) 
C[C@H](CF)Nc1cncc(O)n1

>  <inchikey>  (1234) 
ILNAQLDXGHDNPJ-RXMQYKEDSA-N

>  <distance_score>  (1234) 
0.707832

>  <ref_mols>  (1234) 
Z0875a,Z0089a

>  <ref_pdb>  (1234) 
Z0089a

>  <HIPPO Compound ID>  (1234) 
144082

>  <name>  (1234) 
P70955

>  <inspiration_score>  (1234) 
None

$$$$
P70958
     RDKit          3D

 12 12  0  0  0  0  0  0  0  0999 V2000
   -2.0834    4.3120  -19.2738 C   0  0  0  0  0  0  0  0  0  0  0  0
   -2.7210    5.5700  -18.6884 C   0  0  1  0  0  0  0  0  0  0  0  0
   -1.9468    6.8084  -19.1608 C   0  0  0  0  0  0  0  0  0  0  0  0
   -2.3836    7.9173  -18.5012 F   0  0  0  0  0  0  0  0  0  0  0  0
   -4.1046    5.6697  -19.1338 N   0  0  0  0  0  0  0  0  0  0  0  0
   -5.1801    5.2885  -18.3665 C   0  0  0  0  0  0  0  0  0  0  0  0
   -6.1948    4.8068  -19.1136 N   0  0  0  0  0  0  0  0  0  0  0  0
   -7.3371    4.4822  -18.4698 C   0  0  0  0  0  0  0  0  0  0  0  0
   -7.4679    4.6014  -17.1009 C   0  0  0  0  0  0  0  0  0  0  0  0
   -6.4764    5.0811  -16.3200 N   0  0  0  0  0  0  0  0  0  0  0  0
   -5.3512    5.4206  -16.9785 C   0  0  0  0  0  0  0  0  0  0  0  0
   -4.4436    5.9591  -16.1268 O   0  0  0  0  0  0  0  0  0  0  0  0
  2  1  1  6
  2  3  1  0
  3  4  1  0
  2  5  1  0
  5  6  1  0
  6  7  2  0
  7  8  1  0
  8  9  2  0
  9 10  1  0
 10 11  2  0
 11 12  1  0
 11  6  1  0
M  END
>  <energy_score>  (1235) 
-31.129355

>  <alias>  (1235) 
None

>  <HIPPO Pose ID>  (1235) 
70958

>  <smiles>  (1235) 
C[C@@H](CF)Nc1nccnc1O

>  <inchikey>  (1235) 
GNWRIDXJSUCHSN-YFKPBYRVSA-N

>  <distance_score>  (1235) 
0.894547

>  <ref_mols>  (1235) 
Z0875a,Z0089a

>  <ref_pdb>  (1235) 
Z0089a

>  <HIPPO Compound ID>  (1235) 
144083

>  <name>  (1235) 
P70958

>  <inspiration_score>  (1235) 
None

$$$$
P70959
     RDKit          3D

 12 12  0  0  0  0  0  0  0  0999 V2000
   -8.3210    4.6163  -15.9812 C   0  0  0  0  0  0  0  0  0  0  0  0
   -7.1911    4.7976  -16.9405 C   0  0  0  0  0  0  0  0  0  0  0  0
   -7.3690    4.6297  -18.3040 C   0  0  0  0  0  0  0  0  0  0  0  0
   -6.3608    4.7842  -19.1914 N   0  0  0  0  0  0  0  0  0  0  0  0
   -5.1511    5.1102  -18.7088 C   0  0  0  0  0  0  0  0  0  0  0  0
   -4.2110    5.2622  -19.6811 N   0  0  0  0  0  0  0  0  0  0  0  0
   -2.8016    5.5949  -19.6156 C   0  0  2  0  0  0  0  0  0  0  0  0
   -1.9819    4.4557  -19.0283 C   0  0  0  0  0  0  0  0  0  0  0  0
   -2.5163    6.9380  -18.9448 C   0  0  0  0  0  0  0  0  0  0  0  0
   -1.2440    7.3260  -19.2419 F   0  0  0  0  0  0  0  0  0  0  0  0
   -4.9840    5.2730  -17.3382 C   0  0  0  0  0  0  0  0  0  0  0  0
   -5.9876    5.1553  -16.4323 N   0  0  0  0  0  0  0  0  0  0  0  0
  1  2  1  0
  2  3  2  0
  3  4  1  0
  4  5  2  0
  5  6  1  0
  6  7  1  0
  7  8  1  1
  7  9  1  0
  9 10  1  0
  5 11  1  0
 11 12  2  0
 12  2  1  0
M  END
>  <energy_score>  (1236) 
-15.429401

>  <alias>  (1236) 
None

>  <HIPPO Pose ID>  (1236) 
70959

>  <smiles>  (1236) 
Cc1cnc(N[C@H](C)CF)cn1

>  <inchikey>  (1236) 
YMCQDIKMQPGNGI-ZCFIWIBFSA-N

>  <distance_score>  (1236) 
0.690009

>  <ref_mols>  (1236) 
Z0875a,Z0089a

>  <ref_pdb>  (1236) 
Z0089a

>  <HIPPO Compound ID>  (1236) 
144084

>  <name>  (1236) 
P70959

>  <inspiration_score>  (1236) 
None

$$$$
P70966
     RDKit          3D

 12 12  0  0  0  0  0  0  0  0999 V2000
   -1.6719    4.2995  -19.5451 C   0  0  0  0  0  0  0  0  0  0  0  0
   -2.6718    5.3437  -19.0498 C   0  0  1  0  0  0  0  0  0  0  0  0
   -2.4224    6.7342  -19.6501 C   0  0  0  0  0  0  0  0  0  0  0  0
   -2.5384    6.7497  -21.4364 Cl  0  0  0  0  0  0  0  0  0  0  0  0
   -4.0080    4.8690  -19.3552 N   0  0  0  0  0  0  0  0  0  0  0  0
   -5.0911    4.9339  -18.5209 C   0  0  0  0  0  0  0  0  0  0  0  0
   -5.0540    5.0326  -17.1282 C   0  0  0  0  0  0  0  0  0  0  0  0
   -6.1564    5.0493  -16.3389 N   0  0  0  0  0  0  0  0  0  0  0  0
   -7.3076    4.9074  -17.0137 C   0  0  0  0  0  0  0  0  0  0  0  0
   -8.4065    4.8812  -16.2263 O   0  0  0  0  0  0  0  0  0  0  0  0
   -7.3825    4.7999  -18.3858 C   0  0  0  0  0  0  0  0  0  0  0  0
   -6.2706    4.8250  -19.1550 N   0  0  0  0  0  0  0  0  0  0  0  0
  2  1  1  6
  2  3  1  0
  3  4  1  0
  2  5  1  0
  5  6  1  0
  6  7  2  0
  7  8  1  0
  8  9  2  0
  9 10  1  0
  9 11  1  0
 11 12  2  0
 12  6  1  0
M  END
>  <energy_score>  (1237) 
-44.254957

>  <alias>  (1237) 
None

>  <HIPPO Pose ID>  (1237) 
70966

>  <smiles>  (1237) 
C[C@@H](CCl)Nc1cnc(O)cn1

>  <inchikey>  (1237) 
OEUPSWPZJMTIES-YFKPBYRVSA-N

>  <distance_score>  (1237) 
0.714263

>  <ref_mols>  (1237) 
Z0875a,Z0089a

>  <ref_pdb>  (1237) 
Z0089a

>  <HIPPO Compound ID>  (1237) 
144087

>  <name>  (1237) 
P70966

>  <inspiration_score>  (1237) 
None

$$$$
P70968
     RDKit          3D

 12 12  0  0  0  0  0  0  0  0999 V2000
   -4.4329    5.6907  -15.9602 C   0  0  0  0  0  0  0  0  0  0  0  0
   -5.4783    5.3088  -16.9571 C   0  0  0  0  0  0  0  0  0  0  0  0
   -6.7262    5.2181  -16.4116 N   0  0  0  0  0  0  0  0  0  0  0  0
   -7.7133    4.8038  -17.2293 C   0  0  0  0  0  0  0  0  0  0  0  0
   -7.4960    4.5529  -18.5612 C   0  0  0  0  0  0  0  0  0  0  0  0
   -6.2733    4.6702  -19.1148 N   0  0  0  0  0  0  0  0  0  0  0  0
   -5.2465    5.0376  -18.3162 C   0  0  0  0  0  0  0  0  0  0  0  0
   -4.0920    5.0165  -19.0339 N   0  0  0  0  0  0  0  0  0  0  0  0
   -2.7676    5.5262  -18.7619 C   0  0  1  0  0  0  0  0  0  0  0  0
   -1.7754    4.5148  -19.3514 C   0  0  0  0  0  0  0  0  0  0  0  0
   -2.5323    6.8964  -19.4150 C   0  0  0  0  0  0  0  0  0  0  0  0
   -3.5151    8.1951  -18.6888 Cl  0  0  0  0  0  0  0  0  0  0  0  0
  1  2  1  0
  2  3  2  0
  3  4  1  0
  4  5  2  0
  5  6  1  0
  6  7  2  0
  7  8  1  0
  8  9  1  0
  9 10  1  6
  9 11  1  0
 11 12  1  0
  7  2  1  0
M  END
>  <energy_score>  (1238) 
-28.506501

>  <alias>  (1238) 
None

>  <HIPPO Pose ID>  (1238) 
70968

>  <smiles>  (1238) 
Cc1nccnc1N[C@@H](C)CCl

>  <inchikey>  (1238) 
RUDWOVWZQXADAP-LURJTMIESA-N

>  <distance_score>  (1238) 
1.04118

>  <ref_mols>  (1238) 
Z0875a,Z0089a

>  <ref_pdb>  (1238) 
Z0089a

>  <HIPPO Compound ID>  (1238) 
144088

>  <name>  (1238) 
P70968

>  <inspiration_score>  (1238) 
None

$$$$
P70973
     RDKit          3D

 12 12  0  0  0  0  0  0  0  0999 V2000
   -1.9750    4.4903  -18.9852 C   0  0  0  0  0  0  0  0  0  0  0  0
   -2.8601    5.5740  -19.5887 C   0  0  2  0  0  0  0  0  0  0  0  0
   -2.6663    6.9305  -18.9015 C   0  0  0  0  0  0  0  0  0  0  0  0
   -3.5490    8.2363  -19.7434 Cl  0  0  0  0  0  0  0  0  0  0  0  0
   -4.2357    5.1124  -19.6772 N   0  0  0  0  0  0  0  0  0  0  0  0
   -5.2099    5.0267  -18.7234 C   0  0  0  0  0  0  0  0  0  0  0  0
   -5.0405    5.0631  -17.3390 C   0  0  0  0  0  0  0  0  0  0  0  0
   -6.0599    4.9660  -16.4461 N   0  0  0  0  0  0  0  0  0  0  0  0
   -7.2767    4.7614  -17.0004 C   0  0  0  0  0  0  0  0  0  0  0  0
   -7.4496    4.7198  -18.3667 C   0  0  0  0  0  0  0  0  0  0  0  0
   -8.6758    4.6014  -18.9339 O   0  0  0  0  0  0  0  0  0  0  0  0
   -6.4422    4.8650  -19.2402 N   0  0  0  0  0  0  0  0  0  0  0  0
  2  1  1  1
  2  3  1  0
  3  4  1  0
  2  5  1  0
  5  6  1  0
  6  7  2  0
  7  8  1  0
  8  9  2  0
  9 10  1  0
 10 11  1  0
 10 12  2  0
 12  6  1  0
M  END
>  <energy_score>  (1239) 
-39.089473

>  <alias>  (1239) 
None

>  <HIPPO Pose ID>  (1239) 
70973

>  <smiles>  (1239) 
C[C@H](CCl)Nc1cncc(O)n1

>  <inchikey>  (1239) 
NVNDOHRLTIZVDZ-RXMQYKEDSA-N

>  <distance_score>  (1239) 
0.684918

>  <ref_mols>  (1239) 
Z0875a,Z0089a

>  <ref_pdb>  (1239) 
Z0089a

>  <HIPPO Compound ID>  (1239) 
144091

>  <name>  (1239) 
P70973

>  <inspiration_score>  (1239) 
None

$$$$
P70976
     RDKit          3D

 12 12  0  0  0  0  0  0  0  0999 V2000
   -1.7967    4.3777  -19.3880 C   0  0  0  0  0  0  0  0  0  0  0  0
   -2.7871    5.3761  -18.7801 C   0  0  1  0  0  0  0  0  0  0  0  0
   -2.5078    6.8170  -19.2291 C   0  0  0  0  0  0  0  0  0  0  0  0
   -2.6052    7.0274  -21.0067 Cl  0  0  0  0  0  0  0  0  0  0  0  0
   -4.1241    4.9667  -19.1483 N   0  0  0  0  0  0  0  0  0  0  0  0
   -5.2682    5.0049  -18.4080 C   0  0  0  0  0  0  0  0  0  0  0  0
   -6.3413    4.6153  -19.1271 N   0  0  0  0  0  0  0  0  0  0  0  0
   -7.5245    4.5275  -18.4840 C   0  0  0  0  0  0  0  0  0  0  0  0
   -7.6517    4.8285  -17.1432 C   0  0  0  0  0  0  0  0  0  0  0  0
   -6.6164    5.2752  -16.3987 N   0  0  0  0  0  0  0  0  0  0  0  0
   -5.4383    5.3354  -17.0536 C   0  0  0  0  0  0  0  0  0  0  0  0
   -4.4578    5.7870  -16.2307 O   0  0  0  0  0  0  0  0  0  0  0  0
  2  1  1  6
  2  3  1  0
  3  4  1  0
  2  5  1  0
  5  6  1  0
  6  7  2  0
  7  8  1  0
  8  9  2  0
  9 10  1  0
 10 11  2  0
 11 12  1  0
 11  6  1  0
M  END
>  <energy_score>  (1240) 
-42.972517

>  <alias>  (1240) 
None

>  <HIPPO Pose ID>  (1240) 
70976

>  <smiles>  (1240) 
C[C@@H](CCl)Nc1nccnc1O

>  <inchikey>  (1240) 
MTXXIOJWEZRSBE-YFKPBYRVSA-N

>  <distance_score>  (1240) 
0.894718

>  <ref_mols>  (1240) 
Z0875a,Z0089a

>  <ref_pdb>  (1240) 
Z0089a

>  <HIPPO Compound ID>  (1240) 
144092

>  <name>  (1240) 
P70976

>  <inspiration_score>  (1240) 
None

$$$$
P70978
     RDKit          3D

 12 12  0  0  0  0  0  0  0  0999 V2000
   -1.6585    3.5025  -19.5654 C   0  0  0  0  0  0  0  0  0  0  0  0
   -2.2635    4.4993  -19.2889 C   0  0  0  0  0  0  0  0  0  0  0  0
   -2.9621    5.7263  -18.9016 C   0  0  1  0  0  0  0  0  0  0  0  0
   -2.3185    6.9310  -19.5810 C   0  0  0  0  0  0  0  0  0  0  0  0
   -4.3501    5.6675  -19.2953 N   0  0  0  0  0  0  0  0  0  0  0  0
   -5.3633    5.3366  -18.4230 C   0  0  0  0  0  0  0  0  0  0  0  0
   -5.3711    5.6123  -17.0550 C   0  0  0  0  0  0  0  0  0  0  0  0
   -6.4250    5.3736  -16.2389 N   0  0  0  0  0  0  0  0  0  0  0  0
   -7.5013    4.8360  -16.8525 C   0  0  0  0  0  0  0  0  0  0  0  0
   -7.5318    4.5641  -18.2120 C   0  0  0  0  0  0  0  0  0  0  0  0
   -8.7896    4.0784  -18.8588 C   0  0  0  0  0  0  0  0  0  0  0  0
   -6.4542    4.8041  -19.0018 N   0  0  0  0  0  0  0  0  0  0  0  0
  1  2  3  0
  2  3  1  0
  3  4  1  6
  3  5  1  0
  5  6  1  0
  6  7  2  0
  7  8  1  0
  8  9  2  0
  9 10  1  0
 10 11  1  0
 10 12  2  0
 12  6  1  0
M  END
>  <energy_score>  (1241) 
-19.677292

>  <alias>  (1241) 
None

>  <HIPPO Pose ID>  (1241) 
70978

>  <smiles>  (1241) 
C#C[C@@H](C)Nc1cncc(C)n1

>  <inchikey>  (1241) 
PWCWIKFCRLPMKY-SSDOTTSWSA-N

>  <distance_score>  (1241) 
0.749498

>  <ref_mols>  (1241) 
Z0875a,Z0089a

>  <ref_pdb>  (1241) 
Z0089a

>  <HIPPO Compound ID>  (1241) 
144093

>  <name>  (1241) 
P70978

>  <inspiration_score>  (1241) 
None

$$$$
P70979
     RDKit          3D

 12 12  0  0  0  0  0  0  0  0999 V2000
   -1.7029    3.5317  -19.4812 C   0  0  0  0  0  0  0  0  0  0  0  0
   -2.3282    4.5534  -19.5305 C   0  0  0  0  0  0  0  0  0  0  0  0
   -3.0696    5.8064  -19.6800 C   0  0  2  0  0  0  0  0  0  0  0  0
   -2.5604    6.8975  -18.7528 C   0  0  0  0  0  0  0  0  0  0  0  0
   -4.4985    5.6059  -19.6520 N   0  0  0  0  0  0  0  0  0  0  0  0
   -5.3423    5.2440  -18.6421 C   0  0  0  0  0  0  0  0  0  0  0  0
   -5.1300    5.4058  -17.2751 C   0  0  0  0  0  0  0  0  0  0  0  0
   -6.0693    5.1575  -16.3252 N   0  0  0  0  0  0  0  0  0  0  0  0
   -7.2457    4.6955  -16.8042 C   0  0  0  0  0  0  0  0  0  0  0  0
   -7.4722    4.5133  -18.1562 C   0  0  0  0  0  0  0  0  0  0  0  0
   -8.6709    4.0789  -18.6416 O   0  0  0  0  0  0  0  0  0  0  0  0
   -6.5294    4.7761  -19.0778 N   0  0  0  0  0  0  0  0  0  0  0  0
  1  2  3  0
  2  3  1  0
  3  4  1  1
  3  5  1  0
  5  6  1  0
  6  7  2  0
  7  8  1  0
  8  9  2  0
  9 10  1  0
 10 11  1  0
 10 12  2  0
 12  6  1  0
M  END
>  <energy_score>  (1242) 
-19.95318

>  <alias>  (1242) 
None

>  <HIPPO Pose ID>  (1242) 
70979

>  <smiles>  (1242) 
C#C[C@H](C)Nc1cncc(O)n1

>  <inchikey>  (1242) 
NTDYNSVHPWNDCE-LURJTMIESA-N

>  <distance_score>  (1242) 
0.697438

>  <ref_mols>  (1242) 
Z0875a,Z0089a

>  <ref_pdb>  (1242) 
Z0089a

>  <HIPPO Compound ID>  (1242) 
144094

>  <name>  (1242) 
P70979

>  <inspiration_score>  (1242) 
None

$$$$
P70981
     RDKit          3D

 12 12  0  0  0  0  0  0  0  0999 V2000
   -1.7587    3.5245  -19.4534 C   0  0  0  0  0  0  0  0  0  0  0  0
   -2.3213    4.5811  -19.3806 C   0  0  0  0  0  0  0  0  0  0  0  0
   -2.9362    5.9109  -19.3548 C   0  0  2  0  0  0  0  0  0  0  0  0
   -2.3540    6.8007  -18.2775 C   0  0  0  0  0  0  0  0  0  0  0  0
   -4.3800    5.8773  -19.4244 N   0  0  0  0  0  0  0  0  0  0  0  0
   -5.2953    5.3954  -18.5291 C   0  0  0  0  0  0  0  0  0  0  0  0
   -6.3257    4.8057  -19.1749 N   0  0  0  0  0  0  0  0  0  0  0  0
   -7.3952    4.4251  -18.4453 C   0  0  0  0  0  0  0  0  0  0  0  0
   -7.4422    4.5940  -17.0786 C   0  0  0  0  0  0  0  0  0  0  0  0
   -6.4312    5.1644  -16.3890 N   0  0  0  0  0  0  0  0  0  0  0  0
   -5.3734    5.5490  -17.1374 C   0  0  0  0  0  0  0  0  0  0  0  0
   -4.4698    6.1836  -16.3564 O   0  0  0  0  0  0  0  0  0  0  0  0
  1  2  3  0
  2  3  1  0
  3  4  1  1
  3  5  1  0
  5  6  1  0
  6  7  2  0
  7  8  1  0
  8  9  2  0
  9 10  1  0
 10 11  2  0
 11 12  1  0
 11  6  1  0
M  END
>  <energy_score>  (1243) 
-22.650755

>  <alias>  (1243) 
None

>  <HIPPO Pose ID>  (1243) 
70981

>  <smiles>  (1243) 
C#C[C@H](C)Nc1nccnc1O

>  <inchikey>  (1243) 
UPOYOTINQJGKQN-LURJTMIESA-N

>  <distance_score>  (1243) 
0.856963

>  <ref_mols>  (1243) 
Z0875a,Z0089a

>  <ref_pdb>  (1243) 
Z0089a

>  <HIPPO Compound ID>  (1243) 
144095

>  <name>  (1243) 
P70981

>  <inspiration_score>  (1243) 
None

$$$$
P70984
     RDKit          3D

 12 12  0  0  0  0  0  0  0  0999 V2000
   -1.6348    3.4825  -19.5702 C   0  0  0  0  0  0  0  0  0  0  0  0
   -2.1986    4.5059  -19.3055 C   0  0  0  0  0  0  0  0  0  0  0  0
   -2.8511    5.7600  -18.9260 C   0  0  1  0  0  0  0  0  0  0  0  0
   -2.1046    6.9444  -19.5310 C   0  0  0  0  0  0  0  0  0  0  0  0
   -4.2152    5.7916  -19.4104 N   0  0  0  0  0  0  0  0  0  0  0  0
   -5.2454    5.4520  -18.5513 C   0  0  0  0  0  0  0  0  0  0  0  0
   -5.3479    5.8845  -17.2286 C   0  0  0  0  0  0  0  0  0  0  0  0
   -6.4068    5.6225  -16.4293 N   0  0  0  0  0  0  0  0  0  0  0  0
   -7.3982    4.9037  -17.0066 C   0  0  0  0  0  0  0  0  0  0  0  0
   -8.5785    4.5634  -16.1597 C   0  0  0  0  0  0  0  0  0  0  0  0
   -7.3076    4.4762  -18.3245 C   0  0  0  0  0  0  0  0  0  0  0  0
   -6.2338    4.7349  -19.1062 N   0  0  0  0  0  0  0  0  0  0  0  0
  1  2  3  0
  2  3  1  0
  3  4  1  6
  3  5  1  0
  5  6  1  0
  6  7  2  0
  7  8  1  0
  8  9  2  0
  9 10  1  0
  9 11  1  0
 11 12  2  0
 12  6  1  0
M  END
>  <energy_score>  (1244) 
-16.827589

>  <alias>  (1244) 
None

>  <HIPPO Pose ID>  (1244) 
70984

>  <smiles>  (1244) 
C#C[C@@H](C)Nc1cnc(C)cn1

>  <inchikey>  (1244) 
GOQFOCKSBCORFK-SSDOTTSWSA-N

>  <distance_score>  (1244) 
0.744127

>  <ref_mols>  (1244) 
Z0875a,Z0089a

>  <ref_pdb>  (1244) 
Z0089a

>  <HIPPO Compound ID>  (1244) 
144096

>  <name>  (1244) 
P70984

>  <inspiration_score>  (1244) 
None

$$$$
P70989
     RDKit          3D

 12 13  0  0  0  0  0  0  0  0999 V2000
   -9.4664    4.1233  -16.5837 O   0  0  0  0  0  0  0  0  0  0  0  0
   -8.3904    4.5399  -16.1747 C   0  0  0  0  0  0  0  0  0  0  0  0
   -7.2709    4.7934  -17.0836 C   0  0  0  0  0  0  0  0  0  0  0  0
   -7.3820    4.5013  -18.4312 C   0  0  0  0  0  0  0  0  0  0  0  0
   -6.3493    4.6872  -19.2853 N   0  0  0  0  0  0  0  0  0  0  0  0
   -5.2153    5.1831  -18.7602 C   0  0  0  0  0  0  0  0  0  0  0  0
   -4.1624    5.3662  -19.6664 N   0  0  0  0  0  0  0  0  0  0  0  0
   -2.8153    4.9916  -19.2498 C   0  0  0  0  0  0  0  0  0  0  0  0
   -1.6211    5.3883  -20.0618 C   0  0  0  0  0  0  0  0  0  0  0  0
   -1.8659    6.0345  -18.7303 C   0  0  0  0  0  0  0  0  0  0  0  0
   -5.1296    5.4941  -17.4002 C   0  0  0  0  0  0  0  0  0  0  0  0
   -6.1495    5.3183  -16.5266 N   0  0  0  0  0  0  0  0  0  0  0  0
  1  2  2  0
  2  3  1  0
  3  4  2  0
  4  5  1  0
  5  6  2  0
  6  7  1  0
  7  8  1  0
  8  9  1  0
  9 10  1  0
  6 11  1  0
 11 12  2  0
 12  3  1  0
 10  8  1  0
M  END
>  <energy_score>  (1245) 
-19.589637

>  <alias>  (1245) 
None

>  <HIPPO Pose ID>  (1245) 
70989

>  <smiles>  (1245) 
O=Cc1cnc(NC2CC2)cn1

>  <inchikey>  (1245) 
YQOQYHNQEDEHBV-UHFFFAOYSA-N

>  <distance_score>  (1245) 
0.763135

>  <ref_mols>  (1245) 
Z0875a,Z0089a

>  <ref_pdb>  (1245) 
Z0089a

>  <HIPPO Compound ID>  (1245) 
144099

>  <name>  (1245) 
P70989

>  <inspiration_score>  (1245) 
None

$$$$
P70993
     RDKit          3D

 13 13  0  0  0  0  0  0  0  0999 V2000
   -4.3760    6.4672  -15.1086 C   0  0  0  0  0  0  0  0  0  0  0  0
   -4.2110    6.2146  -16.5001 O   0  0  0  0  0  0  0  0  0  0  0  0
   -5.2780    5.5897  -17.1072 C   0  0  0  0  0  0  0  0  0  0  0  0
   -6.3574    5.3132  -16.3294 N   0  0  0  0  0  0  0  0  0  0  0  0
   -7.4055    4.7402  -16.9599 C   0  0  0  0  0  0  0  0  0  0  0  0
   -7.3962    4.4742  -18.3109 C   0  0  0  0  0  0  0  0  0  0  0  0
   -6.3262    4.7488  -19.0831 N   0  0  0  0  0  0  0  0  0  0  0  0
   -5.2513    5.3187  -18.4924 C   0  0  0  0  0  0  0  0  0  0  0  0
   -4.3054    5.6203  -19.4343 N   0  0  0  0  0  0  0  0  0  0  0  0
   -2.8532    5.6889  -19.3476 C   0  0  2  0  0  0  0  0  0  0  0  0
   -2.2305    4.4554  -18.7177 C   0  0  0  0  0  0  0  0  0  0  0  0
   -2.3578    7.0075  -18.7447 C   0  0  0  0  0  0  0  0  0  0  0  0
   -0.6968    7.4014  -19.2855 Cl  0  0  0  0  0  0  0  0  0  0  0  0
  1  2  1  0
  2  3  1  0
  3  4  2  0
  4  5  1  0
  5  6  2  0
  6  7  1  0
  7  8  2  0
  8  9  1  0
  9 10  1  0
 10 11  1  1
 10 12  1  0
 12 13  1  0
  8  3  1  0
M  END
>  <energy_score>  (1246) 
-14.620183

>  <alias>  (1246) 
None

>  <HIPPO Pose ID>  (1246) 
70993

>  <smiles>  (1246) 
COc1nccnc1N[C@H](C)CCl

>  <inchikey>  (1246) 
LSRZEXNIMSMSEV-ZCFIWIBFSA-N

>  <distance_score>  (1246) 
0.876074

>  <ref_mols>  (1246) 
Z0875a,Z0089a

>  <ref_pdb>  (1246) 
Z0089a

>  <HIPPO Compound ID>  (1246) 
144102

>  <name>  (1246) 
P70993

>  <inspiration_score>  (1246) 
None

$$$$
P70996
     RDKit          3D

 13 13  0  0  0  0  0  0  0  0999 V2000
   -4.2443    5.9795  -14.8250 C   0  0  0  0  0  0  0  0  0  0  0  0
   -4.8319    5.7029  -15.8367 C   0  0  0  0  0  0  0  0  0  0  0  0
   -5.6682    5.2876  -16.9253 C   0  0  0  0  0  0  0  0  0  0  0  0
   -6.9259    5.0461  -16.4676 N   0  0  0  0  0  0  0  0  0  0  0  0
   -7.8148    4.6104  -17.3809 C   0  0  0  0  0  0  0  0  0  0  0  0
   -7.4819    4.4539  -18.7061 C   0  0  0  0  0  0  0  0  0  0  0  0
   -6.2401    4.7146  -19.1679 N   0  0  0  0  0  0  0  0  0  0  0  0
   -5.3135    5.1417  -18.2801 C   0  0  0  0  0  0  0  0  0  0  0  0
   -4.1464    5.4452  -18.9357 N   0  0  0  0  0  0  0  0  0  0  0  0
   -2.8031    5.3327  -18.3907 C   0  0  1  0  0  0  0  0  0  0  0  0
   -1.9687    4.4245  -19.3010 C   0  0  0  0  0  0  0  0  0  0  0  0
   -2.2005    6.7458  -18.3211 C   0  0  0  0  0  0  0  0  0  0  0  0
   -0.6533    6.7791  -17.4340 Cl  0  0  0  0  0  0  0  0  0  0  0  0
  1  2  3  0
  2  3  1  0
  3  4  2  0
  4  5  1  0
  5  6  2  0
  6  7  1  0
  7  8  2  0
  8  9  1  0
  9 10  1  0
 10 11  1  6
 10 12  1  0
 12 13  1  0
  8  3  1  0
M  END
>  <energy_score>  (1247) 
-15.989701

>  <alias>  (1247) 
None

>  <HIPPO Pose ID>  (1247) 
70996

>  <smiles>  (1247) 
C#Cc1nccnc1N[C@@H](C)CCl

>  <inchikey>  (1247) 
UHQRQPGGEMBTPK-ZETCQYMHSA-N

>  <distance_score>  (1247) 
0.99874

>  <ref_mols>  (1247) 
Z0875a,Z0089a

>  <ref_pdb>  (1247) 
Z0089a

>  <HIPPO Compound ID>  (1247) 
144103

>  <name>  (1247) 
P70996

>  <inspiration_score>  (1247) 
None

$$$$
P70998
     RDKit          3D

 13 13  0  0  0  0  0  0  0  0999 V2000
   -9.8323    4.0922  -18.2719 C   0  0  0  0  0  0  0  0  0  0  0  0
   -8.6544    4.2828  -18.1463 C   0  0  0  0  0  0  0  0  0  0  0  0
   -7.3224    4.6192  -17.7659 C   0  0  0  0  0  0  0  0  0  0  0  0
   -7.0681    4.8845  -16.4293 C   0  0  0  0  0  0  0  0  0  0  0  0
   -5.8661    5.3017  -15.9879 N   0  0  0  0  0  0  0  0  0  0  0  0
   -4.9270    5.4003  -16.9568 C   0  0  0  0  0  0  0  0  0  0  0  0
   -5.1501    5.1260  -18.3136 C   0  0  0  0  0  0  0  0  0  0  0  0
   -4.1986    5.2658  -19.2961 N   0  0  0  0  0  0  0  0  0  0  0  0
   -2.7664    5.4314  -19.0874 C   0  0  1  0  0  0  0  0  0  0  0  0
   -2.0153    4.1620  -19.4755 C   0  0  0  0  0  0  0  0  0  0  0  0
   -2.2534    6.6776  -19.8244 C   0  0  0  0  0  0  0  0  0  0  0  0
   -2.3871    6.5503  -21.6018 Cl  0  0  0  0  0  0  0  0  0  0  0  0
   -6.3774    4.7417  -18.7281 N   0  0  0  0  0  0  0  0  0  0  0  0
  1  2  3  0
  2  3  1  0
  3  4  2  0
  4  5  1  0
  5  6  2  0
  6  7  1  0
  7  8  1  0
  8  9  1  0
  9 10  1  6
  9 11  1  0
 11 12  1  0
  7 13  2  0
 13  3  1  0
M  END
>  <energy_score>  (1248) 
-24.068448

>  <alias>  (1248) 
None

>  <HIPPO Pose ID>  (1248) 
70998

>  <smiles>  (1248) 
C#Cc1cncc(N[C@@H](C)CCl)n1

>  <inchikey>  (1248) 
BOSWGTRDACWOKW-ZETCQYMHSA-N

>  <distance_score>  (1248) 
1.061704

>  <ref_mols>  (1248) 
Z0875a,Z0089a

>  <ref_pdb>  (1248) 
Z0089a

>  <HIPPO Compound ID>  (1248) 
144104

>  <name>  (1248) 
P70998

>  <inspiration_score>  (1248) 
None

$$$$
P71000
     RDKit          3D

 13 13  0  0  0  0  0  0  0  0999 V2000
   -8.9959    4.4432  -15.6270 C   0  0  0  0  0  0  0  0  0  0  0  0
   -8.1373    4.7386  -16.4054 C   0  0  0  0  0  0  0  0  0  0  0  0
   -7.0559    5.0215  -17.2710 C   0  0  0  0  0  0  0  0  0  0  0  0
   -6.9940    4.5289  -18.5597 C   0  0  0  0  0  0  0  0  0  0  0  0
   -5.8890    4.6811  -19.3225 N   0  0  0  0  0  0  0  0  0  0  0  0
   -4.8724    5.3629  -18.7702 C   0  0  0  0  0  0  0  0  0  0  0  0
   -3.7604    5.4929  -19.5895 N   0  0  0  0  0  0  0  0  0  0  0  0
   -2.4466    5.3478  -18.9595 C   0  0  1  0  0  0  0  0  0  0  0  0
   -1.6046    4.3617  -19.7622 C   0  0  0  0  0  0  0  0  0  0  0  0
   -1.7822    6.7347  -18.9030 C   0  0  0  0  0  0  0  0  0  0  0  0
   -0.3158    6.7361  -17.8882 Cl  0  0  0  0  0  0  0  0  0  0  0  0
   -4.9812    5.9015  -17.4858 C   0  0  0  0  0  0  0  0  0  0  0  0
   -6.0655    5.7425  -16.7030 N   0  0  0  0  0  0  0  0  0  0  0  0
  1  2  3  0
  2  3  1  0
  3  4  2  0
  4  5  1  0
  5  6  2  0
  6  7  1  0
  7  8  1  0
  8  9  1  6
  8 10  1  0
 10 11  1  0
  6 12  1  0
 12 13  2  0
 13  3  1  0
M  END
>  <energy_score>  (1249) 
-33.033265

>  <alias>  (1249) 
None

>  <HIPPO Pose ID>  (1249) 
71000

>  <smiles>  (1249) 
C#Cc1cnc(N[C@@H](C)CCl)cn1

>  <inchikey>  (1249) 
JERNDHUXEQRKKR-ZETCQYMHSA-N

>  <distance_score>  (1249) 
1.001032

>  <ref_mols>  (1249) 
Z0875a,Z0089a

>  <ref_pdb>  (1249) 
Z0089a

>  <HIPPO Compound ID>  (1249) 
144105

>  <name>  (1249) 
P71000

>  <inspiration_score>  (1249) 
None

$$$$
P71001
     RDKit          3D

 13 13  0  0  0  0  0  0  0  0999 V2000
   -9.3455    4.0915  -16.5755 C   0  0  0  0  0  0  0  0  0  0  0  0
   -8.0937    4.7611  -16.0470 C   0  0  0  0  0  0  0  0  0  0  0  0
   -6.9904    4.9204  -17.0468 C   0  0  0  0  0  0  0  0  0  0  0  0
   -7.1838    4.8450  -18.4176 C   0  0  0  0  0  0  0  0  0  0  0  0
   -6.1684    4.9448  -19.3001 N   0  0  0  0  0  0  0  0  0  0  0  0
   -4.9336    5.1128  -18.8088 C   0  0  0  0  0  0  0  0  0  0  0  0
   -3.9818    5.1598  -19.7843 N   0  0  0  0  0  0  0  0  0  0  0  0
   -2.6074    5.6173  -19.7169 C   0  0  2  0  0  0  0  0  0  0  0  0
   -1.7349    4.5435  -19.0796 C   0  0  0  0  0  0  0  0  0  0  0  0
   -2.4052    6.9937  -19.0728 C   0  0  0  0  0  0  0  0  0  0  0  0
   -3.2550    8.2809  -19.9747 Cl  0  0  0  0  0  0  0  0  0  0  0  0
   -4.7466    5.1890  -17.4350 C   0  0  0  0  0  0  0  0  0  0  0  0
   -5.7547    5.1341  -16.5331 N   0  0  0  0  0  0  0  0  0  0  0  0
  1  2  1  0
  2  3  1  0
  3  4  2  0
  4  5  1  0
  5  6  2  0
  6  7  1  0
  7  8  1  0
  8  9  1  1
  8 10  1  0
 10 11  1  0
  6 12  1  0
 12 13  2  0
 13  3  1  0
M  END
>  <energy_score>  (1250) 
-31.548231

>  <alias>  (1250) 
None

>  <HIPPO Pose ID>  (1250) 
71001

>  <smiles>  (1250) 
CCc1cnc(N[C@H](C)CCl)cn1

>  <inchikey>  (1250) 
GMKRQACENBUKOT-SSDOTTSWSA-N

>  <distance_score>  (1250) 
0.755101

>  <ref_mols>  (1250) 
Z0875a,Z0089a

>  <ref_pdb>  (1250) 
Z0089a

>  <HIPPO Compound ID>  (1250) 
144106

>  <name>  (1250) 
P71001

>  <inspiration_score>  (1250) 
None

$$$$
P71005
     RDKit          3D

 13 13  0  0  0  0  0  0  0  0999 V2000
   -0.1969    5.5453  -19.0740 C   0  0  0  0  0  0  0  0  0  0  0  0
   -1.5499    5.1547  -19.6643 C   0  0  2  0  0  0  0  0  0  0  0  0
   -1.6293    5.9282  -21.4726 Br  0  0  0  0  0  0  0  0  0  0  0  0
   -2.7405    5.6284  -18.7972 C   0  0  1  0  0  0  0  0  0  0  0  0
   -2.8857    7.1494  -18.7103 C   0  0  0  0  0  0  0  0  0  0  0  0
   -3.9905    5.0199  -19.2518 N   0  0  0  0  0  0  0  0  0  0  0  0
   -5.1290    4.9770  -18.4627 C   0  0  0  0  0  0  0  0  0  0  0  0
   -5.1318    4.9939  -17.0611 C   0  0  0  0  0  0  0  0  0  0  0  0
   -6.2517    4.9205  -16.3003 N   0  0  0  0  0  0  0  0  0  0  0  0
   -7.3913    4.7440  -17.0022 C   0  0  0  0  0  0  0  0  0  0  0  0
   -7.3983    4.7230  -18.3822 C   0  0  0  0  0  0  0  0  0  0  0  0
   -8.5668    4.6129  -19.0659 O   0  0  0  0  0  0  0  0  0  0  0  0
   -6.2915    4.8649  -19.1359 N   0  0  0  0  0  0  0  0  0  0  0  0
  2  1  1  1
  2  3  1  0
  2  4  1  0
  4  5  1  6
  4  6  1  0
  6  7  1  0
  7  8  2  0
  8  9  1  0
  9 10  2  0
 10 11  1  0
 11 12  1  0
 11 13  2  0
 13  7  1  0
M  END
>  <energy_score>  (1251) 
-44.844379

>  <alias>  (1251) 
None

>  <HIPPO Pose ID>  (1251) 
71005

>  <smiles>  (1251) 
C[C@H](Br)[C@@H](C)Nc1cncc(O)n1

>  <inchikey>  (1251) 
BXTAGUUIHSJCDH-NTSWFWBYSA-N

>  <distance_score>  (1251) 
0.783304

>  <ref_mols>  (1251) 
Z0875a,Z0089a

>  <ref_pdb>  (1251) 
Z0089a

>  <HIPPO Compound ID>  (1251) 
144107

>  <name>  (1251) 
P71005

>  <inspiration_score>  (1251) 
None

$$$$
P71008
     RDKit          3D

 13 13  0  0  0  0  0  0  0  0999 V2000
   -2.1716    4.2262  -19.2151 C   0  0  0  0  0  0  0  0  0  0  0  0
   -2.7855    5.5613  -18.7912 C   0  0  2  0  0  0  0  0  0  0  0  0
   -4.1792    5.6268  -19.2095 N   0  0  0  0  0  0  0  0  0  0  0  0
   -5.2508    5.2697  -18.4276 C   0  0  0  0  0  0  0  0  0  0  0  0
   -6.2568    4.7388  -19.1514 N   0  0  0  0  0  0  0  0  0  0  0  0
   -7.4060    4.4551  -18.5012 C   0  0  0  0  0  0  0  0  0  0  0  0
   -7.5546    4.6717  -17.1456 C   0  0  0  0  0  0  0  0  0  0  0  0
   -6.5726    5.2040  -16.3842 N   0  0  0  0  0  0  0  0  0  0  0  0
   -5.4339    5.4846  -17.0509 C   0  0  0  0  0  0  0  0  0  0  0  0
   -4.5252    6.0637  -16.2250 O   0  0  0  0  0  0  0  0  0  0  0  0
   -2.0439    6.7956  -19.3521 C   0  0  1  0  0  0  0  0  0  0  0  0
   -0.6043    6.9245  -18.8733 C   0  0  0  0  0  0  0  0  0  0  0  0
   -2.0362    6.8052  -21.3265 Br  0  0  0  0  0  0  0  0  0  0  0  0
  2  1  1  6
  2  3  1  0
  3  4  1  0
  4  5  2  0
  5  6  1  0
  6  7  2  0
  7  8  1  0
  8  9  2  0
  9 10  1  0
  2 11  1  0
 11 12  1  1
 11 13  1  0
  9  4  1  0
M  END
>  <energy_score>  (1252) 
-35.944799

>  <alias>  (1252) 
None

>  <HIPPO Pose ID>  (1252) 
71008

>  <smiles>  (1252) 
C[C@H](Nc1nccnc1O)[C@@H](C)Br

>  <inchikey>  (1252) 
IXJALQQAPGGXQU-RITPCOANSA-N

>  <distance_score>  (1252) 
0.910445

>  <ref_mols>  (1252) 
Z0875a,Z0089a

>  <ref_pdb>  (1252) 
Z0089a

>  <HIPPO Compound ID>  (1252) 
144108

>  <name>  (1252) 
P71008

>  <inspiration_score>  (1252) 
None

$$$$
P71021
     RDKit          3D

 13 13  0  0  0  0  0  0  0  0999 V2000
   -4.2893    6.3346  -16.2004 C   0  0  0  0  0  0  0  0  0  0  0  0
   -5.2653    5.5833  -17.0424 C   0  0  0  0  0  0  0  0  0  0  0  0
   -6.3307    5.1114  -16.3365 N   0  0  0  0  0  0  0  0  0  0  0  0
   -7.3260    4.5450  -17.0462 C   0  0  0  0  0  0  0  0  0  0  0  0
   -7.2691    4.4421  -18.4143 C   0  0  0  0  0  0  0  0  0  0  0  0
   -6.1991    4.8667  -19.1152 N   0  0  0  0  0  0  0  0  0  0  0  0
   -5.1859    5.4444  -18.4364 C   0  0  0  0  0  0  0  0  0  0  0  0
   -4.2488    5.9304  -19.3148 N   0  0  0  0  0  0  0  0  0  0  0  0
   -2.7974    5.7131  -19.3067 C   0  0  2  0  0  0  0  0  0  0  0  0
   -2.3777    4.3925  -18.6775 C   0  0  0  0  0  0  0  0  0  0  0  0
   -2.0393    6.9348  -18.7507 C   0  0  2  0  0  0  0  0  0  0  0  0
   -2.5331    8.2710  -19.2988 C   0  0  0  0  0  0  0  0  0  0  0  0
   -0.1210    6.8088  -19.2102 Br  0  0  0  0  0  0  0  0  0  0  0  0
  1  2  1  0
  2  3  2  0
  3  4  1  0
  4  5  2  0
  5  6  1  0
  6  7  2  0
  7  8  1  0
  8  9  1  0
  9 10  1  1
  9 11  1  0
 11 12  1  6
 11 13  1  0
  7  2  1  0
M  END
>  <energy_score>  (1253) 
-21.129455

>  <alias>  (1253) 
None

>  <HIPPO Pose ID>  (1253) 
71021

>  <smiles>  (1253) 
Cc1nccnc1N[C@H](C)[C@H](C)Br

>  <inchikey>  (1253) 
ZIEZPSDEZJGICQ-NKWVEPMBSA-N

>  <distance_score>  (1253) 
1.055849

>  <ref_mols>  (1253) 
Z0875a,Z0089a

>  <ref_pdb>  (1253) 
Z0089a

>  <HIPPO Compound ID>  (1253) 
144111

>  <name>  (1253) 
P71021

>  <inspiration_score>  (1253) 
None

$$$$
P71023
     RDKit          3D

 13 13  0  0  0  0  0  0  0  0999 V2000
   -8.8278    4.1571  -18.7903 C   0  0  0  0  0  0  0  0  0  0  0  0
   -7.4975    4.5589  -18.2380 C   0  0  0  0  0  0  0  0  0  0  0  0
   -7.3234    4.7831  -16.8830 C   0  0  0  0  0  0  0  0  0  0  0  0
   -6.1317    5.1338  -16.3510 N   0  0  0  0  0  0  0  0  0  0  0  0
   -5.1128    5.2208  -17.2432 C   0  0  0  0  0  0  0  0  0  0  0  0
   -5.2612    5.0486  -18.6130 C   0  0  0  0  0  0  0  0  0  0  0  0
   -4.3120    5.1769  -19.5763 N   0  0  0  0  0  0  0  0  0  0  0  0
   -2.8978    5.5102  -19.5614 C   0  0  2  0  0  0  0  0  0  0  0  0
   -2.0792    4.5228  -18.7443 C   0  0  0  0  0  0  0  0  0  0  0  0
   -2.6296    7.0086  -19.3070 C   0  0  1  0  0  0  0  0  0  0  0  0
   -2.4450    7.4649  -17.8684 C   0  0  0  0  0  0  0  0  0  0  0  0
   -0.9852    7.5346  -20.2875 Br  0  0  0  0  0  0  0  0  0  0  0  0
   -6.4678    4.7133  -19.1062 N   0  0  0  0  0  0  0  0  0  0  0  0
  1  2  1  0
  2  3  2  0
  3  4  1  0
  4  5  2  0
  5  6  1  0
  6  7  1  0
  7  8  1  0
  8  9  1  1
  8 10  1  0
 10 11  1  1
 10 12  1  0
  6 13  2  0
 13  2  1  0
M  END
>  <energy_score>  (1254) 
-32.592711

>  <alias>  (1254) 
None

>  <HIPPO Pose ID>  (1254) 
71023

>  <smiles>  (1254) 
Cc1cncc(N[C@H](C)[C@@H](C)Br)n1

>  <inchikey>  (1254) 
YEQUGEITKKCJTQ-HTQZYQBOSA-N

>  <distance_score>  (1254) 
0.714201

>  <ref_mols>  (1254) 
Z0875a,Z0089a

>  <ref_pdb>  (1254) 
Z0089a

>  <HIPPO Compound ID>  (1254) 
144112

>  <name>  (1254) 
P71023

>  <inspiration_score>  (1254) 
None

$$$$
P71030
     RDKit          3D

 13 13  0  0  0  0  0  0  0  0999 V2000
   -1.6636    3.6201  -19.6806 C   0  0  0  0  0  0  0  0  0  0  0  0
   -1.5449    5.1309  -19.6320 C   0  0  1  0  0  0  0  0  0  0  0  0
   -1.3767    5.8352  -21.4535 Br  0  0  0  0  0  0  0  0  0  0  0  0
   -2.7266    5.7688  -18.8844 C   0  0  1  0  0  0  0  0  0  0  0  0
   -2.6777    7.2924  -18.8438 C   0  0  0  0  0  0  0  0  0  0  0  0
   -4.0049    5.3208  -19.4168 N   0  0  0  0  0  0  0  0  0  0  0  0
   -5.1467    5.0890  -18.7061 C   0  0  0  0  0  0  0  0  0  0  0  0
   -5.2381    5.1021  -17.3260 C   0  0  0  0  0  0  0  0  0  0  0  0
   -6.4133    4.8345  -16.7171 N   0  0  0  0  0  0  0  0  0  0  0  0
   -6.4540    4.8221  -15.2583 C   0  0  0  0  0  0  0  0  0  0  0  0
   -7.5100    4.5395  -17.4500 C   0  0  0  0  0  0  0  0  0  0  0  0
   -7.3912    4.5244  -18.8227 C   0  0  0  0  0  0  0  0  0  0  0  0
   -6.2239    4.7941  -19.4409 N   0  0  0  0  0  0  0  0  0  0  0  0
  2  1  1  6
  2  3  1  0
  2  4  1  0
  4  5  1  6
  4  6  1  0
  6  7  1  0
  7  8  2  0
  8  9  1  0
  9 10  1  0
  9 11  2  0
 11 12  1  0
 12 13  2  0
 13  7  1  0
M  CHG  1   9   1
M  END
>  <energy_score>  (1255) 
-26.844954

>  <alias>  (1255) 
None

>  <HIPPO Pose ID>  (1255) 
71030

>  <smiles>  (1255) 
C[C@@H](Br)[C@@H](C)Nc1c[n+](C)ccn1

>  <inchikey>  (1255) 
JBWZXRZPJNDGIW-HTQZYQBOSA-N

>  <distance_score>  (1255) 
0.92521

>  <ref_mols>  (1255) 
Z0875a,Z0089a

>  <ref_pdb>  (1255) 
Z0089a

>  <HIPPO Compound ID>  (1255) 
144113

>  <name>  (1255) 
P71030

>  <inspiration_score>  (1255) 
None

$$$$
P71032
     RDKit          3D

 13 13  0  0  0  0  0  0  0  0999 V2000
   -1.8525    4.2909  -19.5968 C   0  0  0  0  0  0  0  0  0  0  0  0
   -2.7423    5.3517  -18.9515 C   0  0  1  0  0  0  0  0  0  0  0  0
   -2.4064    6.7728  -19.4267 C   0  0  0  0  0  0  0  0  0  0  0  0
   -0.7972    7.3087  -18.8841 Cl  0  0  0  0  0  0  0  0  0  0  0  0
   -4.1399    5.0597  -19.2477 N   0  0  0  0  0  0  0  0  0  0  0  0
   -5.1725    5.0908  -18.3431 C   0  0  0  0  0  0  0  0  0  0  0  0
   -5.0531    5.5386  -17.0210 C   0  0  0  0  0  0  0  0  0  0  0  0
   -6.0687    5.5556  -16.1271 N   0  0  0  0  0  0  0  0  0  0  0  0
   -7.2322    5.0633  -16.5971 C   0  0  0  0  0  0  0  0  0  0  0  0
   -7.3859    4.6330  -17.9049 C   0  0  0  0  0  0  0  0  0  0  0  0
   -8.6760    4.1605  -18.2980 C   0  0  0  0  0  0  0  0  0  0  0  0
   -9.7771    3.8085  -18.4059 N   0  0  0  0  0  0  0  0  0  0  0  0
   -6.3640    4.6501  -18.8011 N   0  0  0  0  0  0  0  0  0  0  0  0
  2  1  1  6
  2  3  1  0
  3  4  1  0
  2  5  1  0
  5  6  1  0
  6  7  2  0
  7  8  1  0
  8  9  2  0
  9 10  1  0
 10 11  1  0
 11 12  3  0
 10 13  2  0
 13  6  1  0
M  END
>  <energy_score>  (1256) 
-13.649534

>  <alias>  (1256) 
None

>  <HIPPO Pose ID>  (1256) 
71032

>  <smiles>  (1256) 
C[C@@H](CCl)Nc1cncc(C#N)n1

>  <inchikey>  (1256) 
OQYUTIUDXUTJRZ-LURJTMIESA-N

>  <distance_score>  (1256) 
0.732001

>  <ref_mols>  (1256) 
Z0875a,Z0089a

>  <ref_pdb>  (1256) 
Z0089a

>  <HIPPO Compound ID>  (1256) 
144114

>  <name>  (1256) 
P71032

>  <inspiration_score>  (1256) 
None

$$$$
P71034
     RDKit          3D

 13 13  0  0  0  0  0  0  0  0999 V2000
   -2.2061    4.2685  -19.2214 C   0  0  0  0  0  0  0  0  0  0  0  0
   -2.7368    5.5361  -18.5521 C   0  0  1  0  0  0  0  0  0  0  0  0
   -1.8802    6.7642  -18.9111 C   0  0  0  0  0  0  0  0  0  0  0  0
   -1.8094    7.0777  -20.6755 Cl  0  0  0  0  0  0  0  0  0  0  0  0
   -4.1168    5.7978  -18.9499 N   0  0  0  0  0  0  0  0  0  0  0  0
   -5.2170    5.3705  -18.2503 C   0  0  0  0  0  0  0  0  0  0  0  0
   -6.1253    4.8370  -19.1017 N   0  0  0  0  0  0  0  0  0  0  0  0
   -7.3225    4.4610  -18.6052 C   0  0  0  0  0  0  0  0  0  0  0  0
   -7.6212    4.5786  -17.2683 C   0  0  0  0  0  0  0  0  0  0  0  0
   -6.7461    5.0988  -16.3830 N   0  0  0  0  0  0  0  0  0  0  0  0
   -5.5395    5.4979  -16.8889 C   0  0  0  0  0  0  0  0  0  0  0  0
   -4.7322    6.1545  -15.8202 C   0  0  0  0  0  0  0  0  0  0  0  0
   -3.7060    6.8072  -15.9561 O   0  0  0  0  0  0  0  0  0  0  0  0
  2  1  1  6
  2  3  1  0
  3  4  1  0
  2  5  1  0
  5  6  1  0
  6  7  2  0
  7  8  1  0
  8  9  2  0
  9 10  1  0
 10 11  2  0
 11 12  1  0
 12 13  2  0
 11  6  1  0
M  END
>  <energy_score>  (1257) 
-20.661632

>  <alias>  (1257) 
None

>  <HIPPO Pose ID>  (1257) 
71034

>  <smiles>  (1257) 
C[C@@H](CCl)Nc1nccnc1C=O

>  <inchikey>  (1257) 
VPNYQQNJCNRUEC-LURJTMIESA-N

>  <distance_score>  (1257) 
0.916093

>  <ref_mols>  (1257) 
Z0875a,Z0089a

>  <ref_pdb>  (1257) 
Z0089a

>  <HIPPO Compound ID>  (1257) 
144115

>  <name>  (1257) 
P71034

>  <inspiration_score>  (1257) 
None

$$$$
P71037
     RDKit          3D

 13 13  0  0  0  0  0  0  0  0999 V2000
   -8.3265    4.7062  -15.8527 C   0  0  0  0  0  0  0  0  0  0  0  0
   -7.2388    4.8650  -16.8667 C   0  0  0  0  0  0  0  0  0  0  0  0
   -6.0276    5.2503  -16.3909 N   0  0  0  0  0  0  0  0  0  0  0  0
   -5.0313    5.3217  -17.3057 C   0  0  0  0  0  0  0  0  0  0  0  0
   -5.2064    5.0847  -18.6613 C   0  0  0  0  0  0  0  0  0  0  0  0
   -4.2702    5.1983  -19.6444 N   0  0  0  0  0  0  0  0  0  0  0  0
   -2.8663    5.5717  -19.6061 C   0  0  2  0  0  0  0  0  0  0  0  0
   -2.0275    4.4776  -18.9574 C   0  0  0  0  0  0  0  0  0  0  0  0
   -2.6367    6.9689  -19.0155 C   0  0  0  0  0  0  0  0  0  0  0  0
   -1.0107    7.6003  -19.3966 Cl  0  0  0  0  0  0  0  0  0  0  0  0
   -6.4153    4.7101  -19.1121 N   0  0  0  0  0  0  0  0  0  0  0  0
   -7.4308    4.5807  -18.2180 C   0  0  0  0  0  0  0  0  0  0  0  0
   -8.7553    4.1460  -18.7692 C   0  0  0  0  0  0  0  0  0  0  0  0
  1  2  1  0
  2  3  2  0
  3  4  1  0
  4  5  2  0
  5  6  1  0
  6  7  1  0
  7  8  1  1
  7  9  1  0
  9 10  1  0
  5 11  1  0
 11 12  2  0
 12 13  1  0
 12  2  1  0
M  END
>  <energy_score>  (1258) 
-35.301478

>  <alias>  (1258) 
None

>  <HIPPO Pose ID>  (1258) 
71037

>  <smiles>  (1258) 
Cc1ncc(N[C@H](C)CCl)nc1C

>  <inchikey>  (1258) 
NKLCHIOPRPEFKU-ZCFIWIBFSA-N

>  <distance_score>  (1258) 
0.787304

>  <ref_mols>  (1258) 
Z0875a,Z0089a

>  <ref_pdb>  (1258) 
Z0089a

>  <HIPPO Compound ID>  (1258) 
144117

>  <name>  (1258) 
P71037

>  <inspiration_score>  (1258) 
None

$$$$
P71046
     RDKit          3D

 13 13  0  0  0  0  0  0  0  0999 V2000
   -1.8744    4.3987  -19.2395 C   0  0  0  0  0  0  0  0  0  0  0  0
   -2.8497    5.3509  -18.5371 C   0  0  1  0  0  0  0  0  0  0  0  0
   -2.5599    6.8201  -18.8842 C   0  0  0  0  0  0  0  0  0  0  0  0
   -2.7057    7.1739  -20.6327 Cl  0  0  0  0  0  0  0  0  0  0  0  0
   -4.1933    4.9769  -18.9203 N   0  0  0  0  0  0  0  0  0  0  0  0
   -5.3810    4.9528  -18.2646 C   0  0  0  0  0  0  0  0  0  0  0  0
   -6.3614    4.6298  -19.1400 N   0  0  0  0  0  0  0  0  0  0  0  0
   -7.6199    4.4851  -18.6753 C   0  0  0  0  0  0  0  0  0  0  0  0
   -7.9274    4.6829  -17.3521 C   0  0  0  0  0  0  0  0  0  0  0  0
   -6.9969    5.0618  -16.4555 N   0  0  0  0  0  0  0  0  0  0  0  0
   -5.7148    5.1584  -16.9192 C   0  0  0  0  0  0  0  0  0  0  0  0
   -4.8070    5.4866  -15.8590 C   0  0  0  0  0  0  0  0  0  0  0  0
   -4.1302    5.7419  -14.9470 N   0  0  0  0  0  0  0  0  0  0  0  0
  2  1  1  6
  2  3  1  0
  3  4  1  0
  2  5  1  0
  5  6  1  0
  6  7  2  0
  7  8  1  0
  8  9  2  0
  9 10  1  0
 10 11  2  0
 11 12  1  0
 12 13  3  0
 11  6  1  0
M  END
>  <energy_score>  (1259) 
-14.062409

>  <alias>  (1259) 
None

>  <HIPPO Pose ID>  (1259) 
71046

>  <smiles>  (1259) 
C[C@@H](CCl)Nc1nccnc1C#N

>  <inchikey>  (1259) 
CGDSYCXDFGKIQT-LURJTMIESA-N

>  <distance_score>  (1259) 
0.993288

>  <ref_mols>  (1259) 
Z0875a,Z0089a

>  <ref_pdb>  (1259) 
Z0089a

>  <HIPPO Compound ID>  (1259) 
144121

>  <name>  (1259) 
P71046

>  <inspiration_score>  (1259) 
None

$$$$
P71048
     RDKit          3D

 13 13  0  0  0  0  0  0  0  0999 V2000
   -1.6038    4.4836  -19.6414 C   0  0  0  0  0  0  0  0  0  0  0  0
   -2.5939    5.4434  -18.9812 C   0  0  1  0  0  0  0  0  0  0  0  0
   -2.3384    6.8793  -19.4571 C   0  0  0  0  0  0  0  0  0  0  0  0
   -3.2645    8.0790  -18.5140 Cl  0  0  0  0  0  0  0  0  0  0  0  0
   -3.9302    4.9893  -19.3211 N   0  0  0  0  0  0  0  0  0  0  0  0
   -4.9929    4.9655  -18.4542 C   0  0  0  0  0  0  0  0  0  0  0  0
   -4.9164    4.9950  -17.0645 C   0  0  0  0  0  0  0  0  0  0  0  0
   -5.9900    4.8888  -16.2483 N   0  0  0  0  0  0  0  0  0  0  0  0
   -7.1816    4.6998  -16.8686 C   0  0  0  0  0  0  0  0  0  0  0  0
   -8.3825    4.5315  -15.9821 C   0  0  0  0  0  0  0  0  0  0  0  0
   -9.5514    4.1507  -16.6997 O   0  0  0  0  0  0  0  0  0  0  0  0
   -7.2680    4.6919  -18.2536 C   0  0  0  0  0  0  0  0  0  0  0  0
   -6.1851    4.8329  -19.0559 N   0  0  0  0  0  0  0  0  0  0  0  0
  2  1  1  6
  2  3  1  0
  3  4  1  0
  2  5  1  0
  5  6  1  0
  6  7  2  0
  7  8  1  0
  8  9  2  0
  9 10  1  0
 10 11  1  0
  9 12  1  0
 12 13  2  0
 13  6  1  0
M  END
>  <energy_score>  (1260) 
-32.533837

>  <alias>  (1260) 
None

>  <HIPPO Pose ID>  (1260) 
71048

>  <smiles>  (1260) 
C[C@@H](CCl)Nc1cnc(CO)cn1

>  <inchikey>  (1260) 
YMEXQWFOINATEE-LURJTMIESA-N

>  <distance_score>  (1260) 
0.741196

>  <ref_mols>  (1260) 
Z0875a,Z0089a

>  <ref_pdb>  (1260) 
Z0089a

>  <HIPPO Compound ID>  (1260) 
144122

>  <name>  (1260) 
P71048

>  <inspiration_score>  (1260) 
None

$$$$
P71049
     RDKit          3D

 13 13  0  0  0  0  0  0  0  0999 V2000
   -3.7225    6.7293  -15.4355 C   0  0  0  0  0  0  0  0  0  0  0  0
   -4.4539    6.2009  -16.2305 C   0  0  0  0  0  0  0  0  0  0  0  0
   -5.3990    5.5579  -17.0952 C   0  0  0  0  0  0  0  0  0  0  0  0
   -6.5143    5.2168  -16.3905 N   0  0  0  0  0  0  0  0  0  0  0  0
   -7.5139    4.6520  -17.0973 C   0  0  0  0  0  0  0  0  0  0  0  0
   -7.4202    4.4433  -18.4531 C   0  0  0  0  0  0  0  0  0  0  0  0
   -6.3127    4.7721  -19.1494 N   0  0  0  0  0  0  0  0  0  0  0  0
   -5.2863    5.3526  -18.4822 C   0  0  0  0  0  0  0  0  0  0  0  0
   -4.3223    5.7227  -19.3781 N   0  0  0  0  0  0  0  0  0  0  0  0
   -2.8826    5.7101  -19.2617 C   0  0  2  0  0  0  0  0  0  0  0  0
   -2.3091    4.4601  -18.6293 C   0  0  0  0  0  0  0  0  0  0  0  0
   -2.3749    6.9466  -18.6530 C   0  0  0  0  0  0  0  0  0  0  0  0
   -1.9452    7.9661  -18.1839 C   0  0  0  0  0  0  0  0  0  0  0  0
  1  2  3  0
  2  3  1  0
  3  4  2  0
  4  5  1  0
  5  6  2  0
  6  7  1  0
  7  8  2  0
  8  9  1  0
  9 10  1  0
 10 11  1  1
 10 12  1  0
 12 13  3  0
  8  3  1  0
M  END
>  <energy_score>  (1261) 
-10.166398

>  <alias>  (1261) 
None

>  <HIPPO Pose ID>  (1261) 
71049

>  <smiles>  (1261) 
C#Cc1nccnc1N[C@H](C)C#C

>  <inchikey>  (1261) 
NMWNLXONGODTTI-MRVPVSSYSA-N

>  <distance_score>  (1261) 
0.867231

>  <ref_mols>  (1261) 
Z0875a,Z0089a

>  <ref_pdb>  (1261) 
Z0089a

>  <HIPPO Compound ID>  (1261) 
144123

>  <name>  (1261) 
P71049

>  <inspiration_score>  (1261) 
None

$$$$
P71054
     RDKit          3D

 13 13  0  0  0  0  0  0  0  0999 V2000
   -8.9767    4.4609  -15.5939 C   0  0  0  0  0  0  0  0  0  0  0  0
   -8.1287    4.7567  -16.3842 C   0  0  0  0  0  0  0  0  0  0  0  0
   -7.0616    5.0415  -17.2678 C   0  0  0  0  0  0  0  0  0  0  0  0
   -7.0048    4.5188  -18.5451 C   0  0  0  0  0  0  0  0  0  0  0  0
   -5.9100    4.6671  -19.3226 N   0  0  0  0  0  0  0  0  0  0  0  0
   -4.9021    5.3861  -18.8001 C   0  0  0  0  0  0  0  0  0  0  0  0
   -3.7896    5.4992  -19.6240 N   0  0  0  0  0  0  0  0  0  0  0  0
   -2.5046    5.2876  -18.9762 C   0  0  1  0  0  0  0  0  0  0  0  0
   -1.5985    4.4482  -19.8649 C   0  0  0  0  0  0  0  0  0  0  0  0
   -1.8845    6.6055  -18.7392 C   0  0  0  0  0  0  0  0  0  0  0  0
   -1.3803    7.6785  -18.5435 C   0  0  0  0  0  0  0  0  0  0  0  0
   -5.0086    5.9609  -17.5310 C   0  0  0  0  0  0  0  0  0  0  0  0
   -6.0791    5.7953  -16.7291 N   0  0  0  0  0  0  0  0  0  0  0  0
  1  2  3  0
  2  3  1  0
  3  4  2  0
  4  5  1  0
  5  6  2  0
  6  7  1  0
  7  8  1  0
  8  9  1  6
  8 10  1  0
 10 11  3  0
  6 12  1  0
 12 13  2  0
 13  3  1  0
M  END
>  <energy_score>  (1262) 
-34.683786

>  <alias>  (1262) 
None

>  <HIPPO Pose ID>  (1262) 
71054

>  <smiles>  (1262) 
C#Cc1cnc(N[C@@H](C)C#C)cn1

>  <inchikey>  (1262) 
HJJRPMXBZIXNHU-QMMMGPOBSA-N

>  <distance_score>  (1262) 
1.01409

>  <ref_mols>  (1262) 
Z0875a,Z0089a

>  <ref_pdb>  (1262) 
Z0089a

>  <HIPPO Compound ID>  (1262) 
144125

>  <name>  (1262) 
P71054

>  <inspiration_score>  (1262) 
None

$$$$
P71055
     RDKit          3D

 13 13  0  0  0  0  0  0  0  0999 V2000
   -1.6229    3.4710  -19.5088 C   0  0  0  0  0  0  0  0  0  0  0  0
   -2.1160    4.5557  -19.6373 C   0  0  0  0  0  0  0  0  0  0  0  0
   -2.7215    5.8664  -19.8692 C   0  0  2  0  0  0  0  0  0  0  0  0
   -2.1131    6.9663  -19.0123 C   0  0  0  0  0  0  0  0  0  0  0  0
   -4.1612    5.8176  -19.8052 N   0  0  0  0  0  0  0  0  0  0  0  0
   -4.9393    5.3936  -18.7661 C   0  0  0  0  0  0  0  0  0  0  0  0
   -4.5920    5.3633  -17.4229 C   0  0  0  0  0  0  0  0  0  0  0  0
   -5.4555    5.0489  -16.4328 N   0  0  0  0  0  0  0  0  0  0  0  0
   -6.7160    4.7455  -16.8212 C   0  0  0  0  0  0  0  0  0  0  0  0
   -7.6673    4.4534  -15.7055 C   0  0  0  0  0  0  0  0  0  0  0  0
   -9.0927    4.1480  -16.1078 C   0  0  0  0  0  0  0  0  0  0  0  0
   -7.0610    4.7405  -18.1637 C   0  0  0  0  0  0  0  0  0  0  0  0
   -6.1847    5.0591  -19.1387 N   0  0  0  0  0  0  0  0  0  0  0  0
  1  2  3  0
  2  3  1  0
  3  4  1  1
  3  5  1  0
  5  6  1  0
  6  7  2  0
  7  8  1  0
  8  9  2  0
  9 10  1  0
 10 11  1  0
  9 12  1  0
 12 13  2  0
 13  6  1  0
M  END
>  <energy_score>  (1263) 
-28.074591

>  <alias>  (1263) 
None

>  <HIPPO Pose ID>  (1263) 
71055

>  <smiles>  (1263) 
C#C[C@H](C)Nc1cnc(CC)cn1

>  <inchikey>  (1263) 
QQBOJYZDHXTQCS-QMMMGPOBSA-N

>  <distance_score>  (1263) 
0.820427

>  <ref_mols>  (1263) 
Z0875a,Z0089a

>  <ref_pdb>  (1263) 
Z0089a

>  <HIPPO Compound ID>  (1263) 
144126

>  <name>  (1263) 
P71055

>  <inspiration_score>  (1263) 
None

$$$$
P71057
     RDKit          3D

 13 13  0  0  0  0  0  0  0  0999 V2000
   -1.6925    3.5679  -19.4917 C   0  0  0  0  0  0  0  0  0  0  0  0
   -2.3285    4.5810  -19.5740 C   0  0  0  0  0  0  0  0  0  0  0  0
   -3.0971    5.8114  -19.7687 C   0  0  2  0  0  0  0  0  0  0  0  0
   -2.5777    6.9687  -18.9294 C   0  0  0  0  0  0  0  0  0  0  0  0
   -4.5207    5.5877  -19.6659 N   0  0  0  0  0  0  0  0  0  0  0  0
   -5.2909    5.2298  -18.5980 C   0  0  0  0  0  0  0  0  0  0  0  0
   -4.9260    5.3178  -17.2546 C   0  0  0  0  0  0  0  0  0  0  0  0
   -5.7664    5.0681  -16.2200 N   0  0  0  0  0  0  0  0  0  0  0  0
   -7.0066    4.6758  -16.5820 C   0  0  0  0  0  0  0  0  0  0  0  0
   -7.3889    4.5579  -17.9059 C   0  0  0  0  0  0  0  0  0  0  0  0
   -8.7332    4.1713  -18.2029 C   0  0  0  0  0  0  0  0  0  0  0  0
   -9.8522    3.8659  -18.2626 N   0  0  0  0  0  0  0  0  0  0  0  0
   -6.5406    4.8359  -18.9264 N   0  0  0  0  0  0  0  0  0  0  0  0
  1  2  3  0
  2  3  1  0
  3  4  1  1
  3  5  1  0
  5  6  1  0
  6  7  2  0
  7  8  1  0
  8  9  2  0
  9 10  1  0
 10 11  1  0
 11 12  3  0
 10 13  2  0
 13  6  1  0
M  END
>  <energy_score>  (1264) 
-6.056179

>  <alias>  (1264) 
None

>  <HIPPO Pose ID>  (1264) 
71057

>  <smiles>  (1264) 
C#C[C@H](C)Nc1cncc(C#N)n1

>  <inchikey>  (1264) 
OTGBTAJVYFZNBY-ZETCQYMHSA-N

>  <distance_score>  (1264) 
0.789593

>  <ref_mols>  (1264) 
Z0875a,Z0089a

>  <ref_pdb>  (1264) 
Z0089a

>  <HIPPO Compound ID>  (1264) 
144127

>  <name>  (1264) 
P71057

>  <inspiration_score>  (1264) 
None

$$$$
P71060
     RDKit          3D

 13 13  0  0  0  0  0  0  0  0999 V2000
   -1.6982    3.4572  -19.4864 C   0  0  0  0  0  0  0  0  0  0  0  0
   -2.1308    4.5734  -19.5461 C   0  0  0  0  0  0  0  0  0  0  0  0
   -2.6009    5.9540  -19.6706 C   0  0  2  0  0  0  0  0  0  0  0  0
   -2.0159    6.8570  -18.5992 C   0  0  0  0  0  0  0  0  0  0  0  0
   -4.0428    6.0508  -19.8096 N   0  0  0  0  0  0  0  0  0  0  0  0
   -4.9253    5.6199  -18.8451 C   0  0  0  0  0  0  0  0  0  0  0  0
   -4.9797    6.0479  -17.5239 C   0  0  0  0  0  0  0  0  0  0  0  0
   -5.9731    5.7116  -16.6652 N   0  0  0  0  0  0  0  0  0  0  0  0
   -6.9473    4.9148  -17.1761 C   0  0  0  0  0  0  0  0  0  0  0  0
   -8.0302    4.5093  -16.2311 C   0  0  0  0  0  0  0  0  0  0  0  0
   -9.6964    4.1273  -17.1340 Br  0  0  0  0  0  0  0  0  0  0  0  0
   -6.8751    4.4723  -18.4906 C   0  0  0  0  0  0  0  0  0  0  0  0
   -5.8730    4.8088  -19.3277 N   0  0  0  0  0  0  0  0  0  0  0  0
  1  2  3  0
  2  3  1  0
  3  4  1  1
  3  5  1  0
  5  6  1  0
  6  7  2  0
  7  8  1  0
  8  9  2  0
  9 10  1  0
 10 11  1  0
  9 12  1  0
 12 13  2  0
 13  6  1  0
M  END
>  <energy_score>  (1265) 
-9.13728

>  <alias>  (1265) 
None

>  <HIPPO Pose ID>  (1265) 
71060

>  <smiles>  (1265) 
C#C[C@H](C)Nc1cnc(CBr)cn1

>  <inchikey>  (1265) 
CRIBELGRENPQEM-ZETCQYMHSA-N

>  <distance_score>  (1265) 
0.920764

>  <ref_mols>  (1265) 
Z0875a,Z0089a

>  <ref_pdb>  (1265) 
Z0089a

>  <HIPPO Compound ID>  (1265) 
144129

>  <name>  (1265) 
P71060

>  <inspiration_score>  (1265) 
None

$$$$
P71062
     RDKit          3D

 13 13  0  0  0  0  0  0  0  0999 V2000
   -1.6827    3.5005  -19.4851 C   0  0  0  0  0  0  0  0  0  0  0  0
   -2.2774    4.5398  -19.5424 C   0  0  0  0  0  0  0  0  0  0  0  0
   -2.9838    5.8115  -19.6976 C   0  0  2  0  0  0  0  0  0  0  0  0
   -2.4565    6.8884  -18.7645 C   0  0  0  0  0  0  0  0  0  0  0  0
   -4.4162    5.6423  -19.6852 N   0  0  0  0  0  0  0  0  0  0  0  0
   -5.2696    5.3121  -18.6736 C   0  0  0  0  0  0  0  0  0  0  0  0
   -5.0875    5.5260  -17.3162 C   0  0  0  0  0  0  0  0  0  0  0  0
   -6.0516    5.3287  -16.3842 N   0  0  0  0  0  0  0  0  0  0  0  0
   -7.2386    4.8661  -16.8503 C   0  0  0  0  0  0  0  0  0  0  0  0
   -8.3128    4.6538  -15.8322 C   0  0  0  0  0  0  0  0  0  0  0  0
   -7.4331    4.6004  -18.2043 C   0  0  0  0  0  0  0  0  0  0  0  0
   -8.7452    4.1270  -18.7529 C   0  0  0  0  0  0  0  0  0  0  0  0
   -6.4456    4.8255  -19.1094 N   0  0  0  0  0  0  0  0  0  0  0  0
  1  2  3  0
  2  3  1  0
  3  4  1  1
  3  5  1  0
  5  6  1  0
  6  7  2  0
  7  8  1  0
  8  9  2  0
  9 10  1  0
  9 11  1  0
 11 12  1  0
 11 13  2  0
 13  6  1  0
M  END
>  <energy_score>  (1266) 
-27.251814

>  <alias>  (1266) 
None

>  <HIPPO Pose ID>  (1266) 
71062

>  <smiles>  (1266) 
C#C[C@H](C)Nc1cnc(C)c(C)n1

>  <inchikey>  (1266) 
KNRHDXZEEFKBHU-ZETCQYMHSA-N

>  <distance_score>  (1266) 
0.774752

>  <ref_mols>  (1266) 
Z0875a,Z0089a

>  <ref_pdb>  (1266) 
Z0089a

>  <HIPPO Compound ID>  (1266) 
144130

>  <name>  (1266) 
P71062

>  <inspiration_score>  (1266) 
None

$$$$
P71065
     RDKit          3D

 13 13  0  0  0  0  0  0  0  0999 V2000
   -1.6585    3.4875  -19.5764 C   0  0  0  0  0  0  0  0  0  0  0  0
   -2.2675    4.4917  -19.3385 C   0  0  0  0  0  0  0  0  0  0  0  0
   -2.9667    5.7298  -18.9921 C   0  0  1  0  0  0  0  0  0  0  0  0
   -2.3572    6.9072  -19.7448 C   0  0  0  0  0  0  0  0  0  0  0  0
   -4.3687    5.6415  -19.3329 N   0  0  0  0  0  0  0  0  0  0  0  0
   -5.3446    5.3666  -18.3963 C   0  0  0  0  0  0  0  0  0  0  0  0
   -5.2787    5.7467  -17.0538 C   0  0  0  0  0  0  0  0  0  0  0  0
   -6.2752    5.5539  -16.1635 N   0  0  0  0  0  0  0  0  0  0  0  0
   -7.3733    4.9550  -16.6795 C   0  0  0  0  0  0  0  0  0  0  0  0
   -7.4871    4.5863  -18.0146 C   0  0  0  0  0  0  0  0  0  0  0  0
   -8.5984    4.0335  -18.5862 O   0  0  0  0  0  0  0  0  0  0  0  0
   -9.7484    3.9360  -17.7616 C   0  0  0  0  0  0  0  0  0  0  0  0
   -6.4583    4.7794  -18.8743 N   0  0  0  0  0  0  0  0  0  0  0  0
  1  2  3  0
  2  3  1  0
  3  4  1  6
  3  5  1  0
  5  6  1  0
  6  7  2  0
  7  8  1  0
  8  9  2  0
  9 10  1  0
 10 11  1  0
 11 12  1  0
 10 13  2  0
 13  6  1  0
M  END
>  <energy_score>  (1267) 
-31.812746

>  <alias>  (1267) 
None

>  <HIPPO Pose ID>  (1267) 
71065

>  <smiles>  (1267) 
C#C[C@@H](C)Nc1cncc(OC)n1

>  <inchikey>  (1267) 
HMUQDTGBBHTEAF-SSDOTTSWSA-N

>  <distance_score>  (1267) 
0.768658

>  <ref_mols>  (1267) 
Z0875a,Z0089a

>  <ref_pdb>  (1267) 
Z0089a

>  <HIPPO Compound ID>  (1267) 
144131

>  <name>  (1267) 
P71065

>  <inspiration_score>  (1267) 
None

$$$$
P71066
     RDKit          3D

 13 13  0  0  0  0  0  0  0  0999 V2000
   -1.6653    3.4340  -19.4852 C   0  0  0  0  0  0  0  0  0  0  0  0
   -2.1787    4.5133  -19.5732 C   0  0  0  0  0  0  0  0  0  0  0  0
   -2.7778    5.8340  -19.7566 C   0  0  2  0  0  0  0  0  0  0  0  0
   -2.2039    6.8701  -18.8054 C   0  0  0  0  0  0  0  0  0  0  0  0
   -4.2209    5.7762  -19.7982 N   0  0  0  0  0  0  0  0  0  0  0  0
   -5.0865    5.4470  -18.7917 C   0  0  0  0  0  0  0  0  0  0  0  0
   -4.9706    5.7801  -17.4484 C   0  0  0  0  0  0  0  0  0  0  0  0
   -5.9594    5.6068  -16.5402 N   0  0  0  0  0  0  0  0  0  0  0  0
   -7.0966    5.0546  -17.0099 C   0  0  0  0  0  0  0  0  0  0  0  0
   -8.0725    4.9927  -16.0665 O   0  0  0  0  0  0  0  0  0  0  0  0
   -9.2046    4.2101  -16.3980 C   0  0  0  0  0  0  0  0  0  0  0  0
   -7.2114    4.6827  -18.3399 C   0  0  0  0  0  0  0  0  0  0  0  0
   -6.2102    4.8594  -19.2349 N   0  0  0  0  0  0  0  0  0  0  0  0
  1  2  3  0
  2  3  1  0
  3  4  1  1
  3  5  1  0
  5  6  1  0
  6  7  2  0
  7  8  1  0
  8  9  2  0
  9 10  1  0
 10 11  1  0
  9 12  1  0
 12 13  2  0
 13  6  1  0
M  END
>  <energy_score>  (1268) 
-13.915513

>  <alias>  (1268) 
None

>  <HIPPO Pose ID>  (1268) 
71066

>  <smiles>  (1268) 
C#C[C@H](C)Nc1cnc(OC)cn1

>  <inchikey>  (1268) 
QHSZQNNKHHWFHZ-ZETCQYMHSA-N

>  <distance_score>  (1268) 
0.762451

>  <ref_mols>  (1268) 
Z0875a,Z0089a

>  <ref_pdb>  (1268) 
Z0089a

>  <HIPPO Compound ID>  (1268) 
144132

>  <name>  (1268) 
P71066

>  <inspiration_score>  (1268) 
None

$$$$
P71074
     RDKit          3D

 13 13  0  0  0  0  0  0  0  0999 V2000
   -1.6810    3.4691  -19.4796 C   0  0  0  0  0  0  0  0  0  0  0  0
   -2.2204    4.5379  -19.5377 C   0  0  0  0  0  0  0  0  0  0  0  0
   -2.8490    5.8496  -19.6870 C   0  0  2  0  0  0  0  0  0  0  0  0
   -2.3087    6.8719  -18.7017 C   0  0  0  0  0  0  0  0  0  0  0  0
   -4.2905    5.7666  -19.7303 N   0  0  0  0  0  0  0  0  0  0  0  0
   -5.1615    5.3462  -18.7668 C   0  0  0  0  0  0  0  0  0  0  0  0
   -5.0412    5.5079  -17.3885 C   0  0  0  0  0  0  0  0  0  0  0  0
   -6.0280    5.2177  -16.5015 N   0  0  0  0  0  0  0  0  0  0  0  0
   -7.1603    4.7276  -17.0649 C   0  0  0  0  0  0  0  0  0  0  0  0
   -8.2699    4.4380  -16.1530 C   0  0  0  0  0  0  0  0  0  0  0  0
   -9.3789    4.1200  -16.5633 O   0  0  0  0  0  0  0  0  0  0  0  0
   -7.2976    4.5356  -18.4234 C   0  0  0  0  0  0  0  0  0  0  0  0
   -6.2941    4.8320  -19.2808 N   0  0  0  0  0  0  0  0  0  0  0  0
  1  2  3  0
  2  3  1  0
  3  4  1  1
  3  5  1  0
  5  6  1  0
  6  7  2  0
  7  8  1  0
  8  9  2  0
  9 10  1  0
 10 11  2  0
  9 12  1  0
 12 13  2  0
 13  6  1  0
M  END
>  <energy_score>  (1269) 
-16.965647

>  <alias>  (1269) 
None

>  <HIPPO Pose ID>  (1269) 
71074

>  <smiles>  (1269) 
C#C[C@H](C)Nc1cnc(C=O)cn1

>  <inchikey>  (1269) 
YVQXAUFDSCLZLK-ZETCQYMHSA-N

>  <distance_score>  (1269) 
0.701633

>  <ref_mols>  (1269) 
Z0875a,Z0089a

>  <ref_pdb>  (1269) 
Z0089a

>  <HIPPO Compound ID>  (1269) 
144136

>  <name>  (1269) 
P71074

>  <inspiration_score>  (1269) 
None

$$$$
P71080
     RDKit          3D

 13 14  0  0  0  0  0  0  0  0999 V2000
   -9.5215    4.0098  -19.4194 C   0  0  0  0  0  0  0  0  0  0  0  0
   -8.3954    4.3256  -18.5481 C   0  0  0  0  0  0  0  0  0  0  0  0
   -8.6790    4.4495  -17.2111 C   0  0  0  0  0  0  0  0  0  0  0  0
   -7.7565    4.8853  -16.3741 N   0  0  0  0  0  0  0  0  0  0  0  0
   -6.5452    5.1648  -16.8774 C   0  0  0  0  0  0  0  0  0  0  0  0
   -5.5919    5.7540  -16.0413 N   0  0  0  0  0  0  0  0  0  0  0  0
   -5.8588    5.9518  -14.5819 C   0  0  0  0  0  0  0  0  0  0  0  0
   -4.8343    6.8502  -13.9114 C   0  0  0  0  0  0  0  0  0  0  0  0
   -3.1611    6.6307  -14.5569 S   0  0  0  0  0  0  0  0  0  0  0  0
   -6.4564    4.8046  -13.7773 C   0  0  0  0  0  0  0  0  0  0  0  0
   -7.2456    6.0660  -13.9634 C   0  0  0  0  0  0  0  0  0  0  0  0
   -6.2618    4.9660  -18.2223 C   0  0  0  0  0  0  0  0  0  0  0  0
   -7.1753    4.5228  -19.0880 N   0  0  0  0  0  0  0  0  0  0  0  0
  1  2  1  0
  2  3  2  0
  3  4  1  0
  4  5  2  0
  5  6  1  0
  6  7  1  0
  7  8  1  0
  8  9  1  0
  7 10  1  0
 10 11  1  0
  5 12  1  0
 12 13  2  0
 13  2  1  0
 11  7  1  0
M  END
>  <energy_score>  (1270) 
-14.17919

>  <alias>  (1270) 
None

>  <HIPPO Pose ID>  (1270) 
71080

>  <smiles>  (1270) 
Cc1cnc(NC2(CS)CC2)cn1

>  <inchikey>  (1270) 
FFBPTHPYOABFNX-UHFFFAOYSA-N

>  <distance_score>  (1270) 
1.941715

>  <ref_mols>  (1270) 
Z0875a,Z0089a

>  <ref_pdb>  (1270) 
Z0089a

>  <HIPPO Compound ID>  (1270) 
144141

>  <name>  (1270) 
P71080

>  <inspiration_score>  (1270) 
None

$$$$
P71082
     RDKit          3D

 13 13  0  0  0  0  0  0  0  0999 V2000
   -1.7695    4.3957  -19.5894 C   0  0  0  0  0  0  0  0  0  0  0  0
   -2.7386    5.3416  -18.8801 C   0  0  1  0  0  0  0  0  0  0  0  0
   -2.4807    6.8184  -19.2222 C   0  0  0  0  0  0  0  0  0  0  0  0
   -1.0913    7.3507  -18.8723 C   0  0  0  0  0  0  0  0  0  0  0  0
   -0.7475    7.3152  -17.0894 S   0  0  0  0  0  0  0  0  0  0  0  0
   -4.0910    4.9955  -19.2800 N   0  0  0  0  0  0  0  0  0  0  0  0
   -5.2005    4.9986  -18.4720 C   0  0  0  0  0  0  0  0  0  0  0  0
   -5.1926    5.1251  -17.0782 C   0  0  0  0  0  0  0  0  0  0  0  0
   -6.3067    5.0692  -16.3050 N   0  0  0  0  0  0  0  0  0  0  0  0
   -7.4470    4.8185  -16.9834 C   0  0  0  0  0  0  0  0  0  0  0  0
   -7.4650    4.7161  -18.3590 C   0  0  0  0  0  0  0  0  0  0  0  0
   -8.6336    4.5718  -19.0353 O   0  0  0  0  0  0  0  0  0  0  0  0
   -6.3669    4.8252  -19.1268 N   0  0  0  0  0  0  0  0  0  0  0  0
  2  1  1  6
  2  3  1  0
  3  4  1  0
  4  5  1  0
  2  6  1  0
  6  7  1  0
  7  8  2  0
  8  9  1  0
  9 10  2  0
 10 11  1  0
 11 12  1  0
 11 13  2  0
 13  7  1  0
M  END
>  <energy_score>  (1271) 
-59.417677

>  <alias>  (1271) 
None

>  <HIPPO Pose ID>  (1271) 
71082

>  <smiles>  (1271) 
C[C@@H](CCS)Nc1cncc(O)n1

>  <inchikey>  (1271) 
OFDBWUNOEWMFKX-LURJTMIESA-N

>  <distance_score>  (1271) 
0.666806

>  <ref_mols>  (1271) 
Z0875a,Z0089a

>  <ref_pdb>  (1271) 
Z0089a

>  <HIPPO Compound ID>  (1271) 
144142

>  <name>  (1271) 
P71082

>  <inspiration_score>  (1271) 
None

$$$$
P71085
     RDKit          3D

 13 13  0  0  0  0  0  0  0  0999 V2000
   -8.3235    4.6791  -16.0476 C   0  0  0  0  0  0  0  0  0  0  0  0
   -7.1880    4.8906  -16.9943 C   0  0  0  0  0  0  0  0  0  0  0  0
   -7.3010    4.5723  -18.3378 C   0  0  0  0  0  0  0  0  0  0  0  0
   -6.2772    4.7214  -19.2089 N   0  0  0  0  0  0  0  0  0  0  0  0
   -5.1179    5.2021  -18.7279 C   0  0  0  0  0  0  0  0  0  0  0  0
   -4.1714    5.3814  -19.6928 N   0  0  0  0  0  0  0  0  0  0  0  0
   -2.7391    5.5822  -19.6017 C   0  0  2  0  0  0  0  0  0  0  0  0
   -2.0456    4.4151  -18.9165 C   0  0  0  0  0  0  0  0  0  0  0  0
   -2.3877    6.9572  -19.0133 C   0  0  0  0  0  0  0  0  0  0  0  0
   -0.9379    7.3522  -19.2949 C   0  0  0  0  0  0  0  0  0  0  0  0
   -0.6027    9.0268  -18.6738 S   0  0  0  0  0  0  0  0  0  0  0  0
   -5.0081    5.4941  -17.3731 C   0  0  0  0  0  0  0  0  0  0  0  0
   -6.0256    5.3619  -16.4838 N   0  0  0  0  0  0  0  0  0  0  0  0
  1  2  1  0
  2  3  2  0
  3  4  1  0
  4  5  2  0
  5  6  1  0
  6  7  1  0
  7  8  1  1
  7  9  1  0
  9 10  1  0
 10 11  1  0
  5 12  1  0
 12 13  2  0
 13  2  1  0
M  END
>  <energy_score>  (1272) 
-36.360622

>  <alias>  (1272) 
None

>  <HIPPO Pose ID>  (1272) 
71085

>  <smiles>  (1272) 
Cc1cnc(N[C@H](C)CCS)cn1

>  <inchikey>  (1272) 
AXVURJGQCYNPGM-SSDOTTSWSA-N

>  <distance_score>  (1272) 
0.69617

>  <ref_mols>  (1272) 
Z0875a,Z0089a

>  <ref_pdb>  (1272) 
Z0089a

>  <HIPPO Compound ID>  (1272) 
144144

>  <name>  (1272) 
P71085

>  <inspiration_score>  (1272) 
None

$$$$
P71088
     RDKit          3D

 13 13  0  0  0  0  0  0  0  0999 V2000
   -1.6495    4.4536  -19.5634 C   0  0  0  0  0  0  0  0  0  0  0  0
   -2.6808    5.4866  -19.1057 C   0  0  1  0  0  0  0  0  0  0  0  0
   -2.4580    6.8199  -19.8307 C   0  0  0  0  0  0  0  0  0  0  0  0
   -3.4289    7.9466  -19.4717 C   0  0  0  0  0  0  0  0  0  0  0  0
   -3.2515    8.5418  -17.7645 S   0  0  0  0  0  0  0  0  0  0  0  0
   -3.9922    4.9492  -19.4076 N   0  0  0  0  0  0  0  0  0  0  0  0
   -5.0332    4.9254  -18.5142 C   0  0  0  0  0  0  0  0  0  0  0  0
   -4.9134    4.9381  -17.1252 C   0  0  0  0  0  0  0  0  0  0  0  0
   -5.9668    4.9220  -16.2808 N   0  0  0  0  0  0  0  0  0  0  0  0
   -7.1650    4.8147  -16.8747 C   0  0  0  0  0  0  0  0  0  0  0  0
   -8.2180    4.7777  -16.0169 O   0  0  0  0  0  0  0  0  0  0  0  0
   -7.3098    4.7788  -18.2505 C   0  0  0  0  0  0  0  0  0  0  0  0
   -6.2476    4.8498  -19.0849 N   0  0  0  0  0  0  0  0  0  0  0  0
  2  1  1  6
  2  3  1  0
  3  4  1  0
  4  5  1  0
  2  6  1  0
  6  7  1  0
  7  8  2  0
  8  9  1  0
  9 10  2  0
 10 11  1  0
 10 12  1  0
 12 13  2  0
 13  7  1  0
M  END
>  <energy_score>  (1273) 
-40.52003

>  <alias>  (1273) 
None

>  <HIPPO Pose ID>  (1273) 
71088

>  <smiles>  (1273) 
C[C@@H](CCS)Nc1cnc(O)cn1

>  <inchikey>  (1273) 
XLECANYAXZBHOU-LURJTMIESA-N

>  <distance_score>  (1273) 
0.731952

>  <ref_mols>  (1273) 
Z0875a,Z0089a

>  <ref_pdb>  (1273) 
Z0089a

>  <HIPPO Compound ID>  (1273) 
144145

>  <name>  (1273) 
P71088

>  <inspiration_score>  (1273) 
None

$$$$
P71090
     RDKit          3D

 13 13  0  0  0  0  0  0  0  0999 V2000
   -4.5478    6.2816  -16.0410 C   0  0  0  0  0  0  0  0  0  0  0  0
   -5.4678    5.5868  -16.9943 C   0  0  0  0  0  0  0  0  0  0  0  0
   -6.6675    5.2449  -16.4460 N   0  0  0  0  0  0  0  0  0  0  0  0
   -7.5621    4.6690  -17.2754 C   0  0  0  0  0  0  0  0  0  0  0  0
   -7.2879    4.4495  -18.6053 C   0  0  0  0  0  0  0  0  0  0  0  0
   -6.0954    4.7659  -19.1514 N   0  0  0  0  0  0  0  0  0  0  0  0
   -5.1764    5.3407  -18.3490 C   0  0  0  0  0  0  0  0  0  0  0  0
   -4.0641    5.7314  -19.0640 N   0  0  0  0  0  0  0  0  0  0  0  0
   -2.6966    5.4991  -18.6187 C   0  0  1  0  0  0  0  0  0  0  0  0
   -2.1219    4.2590  -19.2986 C   0  0  0  0  0  0  0  0  0  0  0  0
   -1.8969    6.7685  -18.9705 C   0  0  0  0  0  0  0  0  0  0  0  0
   -0.4879    6.7612  -18.3817 C   0  0  0  0  0  0  0  0  0  0  0  0
    0.3460    8.3475  -18.6898 S   0  0  0  0  0  0  0  0  0  0  0  0
  1  2  1  0
  2  3  2  0
  3  4  1  0
  4  5  2  0
  5  6  1  0
  6  7  2  0
  7  8  1  0
  8  9  1  0
  9 10  1  6
  9 11  1  0
 11 12  1  0
 12 13  1  0
  7  2  1  0
M  END
>  <energy_score>  (1274) 
-174.272114

>  <alias>  (1274) 
None

>  <HIPPO Pose ID>  (1274) 
71090

>  <smiles>  (1274) 
Cc1nccnc1N[C@@H](C)CCS

>  <inchikey>  (1274) 
LOVSKHMXNPNIHK-ZETCQYMHSA-N

>  <distance_score>  (1274) 
1.022912

>  <ref_mols>  (1274) 
Z0875a,Z0089a

>  <ref_pdb>  (1274) 
Z0089a

>  <HIPPO Compound ID>  (1274) 
144146

>  <name>  (1274) 
P71090

>  <inspiration_score>  (1274) 
None

$$$$
P71092
     RDKit          3D

 13 13  0  0  0  0  0  0  0  0999 V2000
   -8.6391    4.1095  -18.9024 C   0  0  0  0  0  0  0  0  0  0  0  0
   -7.3713    4.5929  -18.2704 C   0  0  0  0  0  0  0  0  0  0  0  0
   -7.3556    4.9470  -16.9292 C   0  0  0  0  0  0  0  0  0  0  0  0
   -6.2701    5.4740  -16.3234 N   0  0  0  0  0  0  0  0  0  0  0  0
   -5.1849    5.5982  -17.1255 C   0  0  0  0  0  0  0  0  0  0  0  0
   -5.1560    5.2280  -18.4719 C   0  0  0  0  0  0  0  0  0  0  0  0
   -4.0744    5.4009  -19.3122 N   0  0  0  0  0  0  0  0  0  0  0  0
   -2.6944    5.3471  -18.8561 C   0  0  1  0  0  0  0  0  0  0  0  0
   -1.9799    4.1197  -19.4083 C   0  0  0  0  0  0  0  0  0  0  0  0
   -1.9870    6.6796  -19.1738 C   0  0  0  0  0  0  0  0  0  0  0  0
   -1.2663    6.8149  -20.5167 C   0  0  0  0  0  0  0  0  0  0  0  0
   -2.3545    6.7713  -21.9655 S   0  0  0  0  0  0  0  0  0  0  0  0
   -6.2654    4.7295  -19.0489 N   0  0  0  0  0  0  0  0  0  0  0  0
  1  2  1  0
  2  3  2  0
  3  4  1  0
  4  5  2  0
  5  6  1  0
  6  7  1  0
  7  8  1  0
  8  9  1  6
  8 10  1  0
 10 11  1  0
 11 12  1  0
  6 13  2  0
 13  2  1  0
M  END
>  <energy_score>  (1275) 
-30.511087

>  <alias>  (1275) 
None

>  <HIPPO Pose ID>  (1275) 
71092

>  <smiles>  (1275) 
Cc1cncc(N[C@@H](C)CCS)n1

>  <inchikey>  (1275) 
SQWOCMMFAFQYAF-ZETCQYMHSA-N

>  <distance_score>  (1275) 
0.686157

>  <ref_mols>  (1275) 
Z0875a,Z0089a

>  <ref_pdb>  (1275) 
Z0089a

>  <HIPPO Compound ID>  (1275) 
144147

>  <name>  (1275) 
P71092

>  <inspiration_score>  (1275) 
None

$$$$
P71094
     RDKit          3D

 13 13  0  0  0  0  0  0  0  0999 V2000
   -1.5858    4.5517  -19.8048 C   0  0  0  0  0  0  0  0  0  0  0  0
   -2.6257    5.3484  -19.0285 C   0  0  1  0  0  0  0  0  0  0  0  0
   -2.4156    6.8682  -19.1027 C   0  0  0  0  0  0  0  0  0  0  0  0
   -2.5337    7.4570  -20.5076 C   0  0  0  0  0  0  0  0  0  0  0  0
   -2.4197    9.2694  -20.4349 S   0  0  0  0  0  0  0  0  0  0  0  0
   -3.9538    4.9854  -19.4830 N   0  0  0  0  0  0  0  0  0  0  0  0
   -5.0898    4.9171  -18.7306 C   0  0  0  0  0  0  0  0  0  0  0  0
   -5.1401    5.0242  -17.3533 C   0  0  0  0  0  0  0  0  0  0  0  0
   -6.3166    4.8865  -16.7037 N   0  0  0  0  0  0  0  0  0  0  0  0
   -6.3182    4.9549  -15.2460 C   0  0  0  0  0  0  0  0  0  0  0  0
   -7.4513    4.6293  -17.3928 C   0  0  0  0  0  0  0  0  0  0  0  0
   -7.3751    4.5371  -18.7659 C   0  0  0  0  0  0  0  0  0  0  0  0
   -6.2090    4.6801  -19.4255 N   0  0  0  0  0  0  0  0  0  0  0  0
  2  1  1  6
  2  3  1  0
  3  4  1  0
  4  5  1  0
  2  6  1  0
  6  7  1  0
  7  8  2  0
  8  9  1  0
  9 10  1  0
  9 11  2  0
 11 12  1  0
 12 13  2  0
 13  7  1  0
M  CHG  1   9   1
M  END
>  <energy_score>  (1276) 
-38.245129

>  <alias>  (1276) 
None

>  <HIPPO Pose ID>  (1276) 
71094

>  <smiles>  (1276) 
C[C@@H](CCS)Nc1c[n+](C)ccn1

>  <inchikey>  (1276) 
RTITVWPYYDVVNH-QMMMGPOBSA-O

>  <distance_score>  (1276) 
0.993951

>  <ref_mols>  (1276) 
Z0875a,Z0089a

>  <ref_pdb>  (1276) 
Z0089a

>  <HIPPO Compound ID>  (1276) 
144148

>  <name>  (1276) 
P71094

>  <inspiration_score>  (1276) 
None

$$$$
P71097
     RDKit          3D

 13 13  0  0  0  0  0  0  0  0999 V2000
   -9.7648    4.1177  -18.1456 C   0  0  0  0  0  0  0  0  0  0  0  0
   -8.5825    4.3018  -18.0521 C   0  0  0  0  0  0  0  0  0  0  0  0
   -7.2108    4.5686  -17.7688 C   0  0  0  0  0  0  0  0  0  0  0  0
   -6.7786    4.6132  -16.4550 C   0  0  0  0  0  0  0  0  0  0  0  0
   -5.4986    4.8769  -16.1249 N   0  0  0  0  0  0  0  0  0  0  0  0
   -4.6754    5.0694  -17.1834 C   0  0  0  0  0  0  0  0  0  0  0  0
   -5.0875    5.0364  -18.5179 C   0  0  0  0  0  0  0  0  0  0  0  0
   -4.2841    5.2161  -19.6090 N   0  0  0  0  0  0  0  0  0  0  0  0
   -2.8870    5.6170  -19.6942 C   0  0  2  0  0  0  0  0  0  0  0  0
   -1.9461    4.4976  -19.2689 C   0  0  0  0  0  0  0  0  0  0  0  0
   -2.5631    6.9625  -19.0369 C   0  0  0  0  0  0  0  0  0  0  0  0
   -2.3883    6.8294  -17.6970 F   0  0  0  0  0  0  0  0  0  0  0  0
   -6.3828    4.7916  -18.8139 N   0  0  0  0  0  0  0  0  0  0  0  0
  1  2  3  0
  2  3  1  0
  3  4  2  0
  4  5  1  0
  5  6  2  0
  6  7  1  0
  7  8  1  0
  8  9  1  0
  9 10  1  1
  9 11  1  0
 11 12  1  0
  7 13  2  0
 13  3  1  0
M  END
>  <energy_score>  (1277) 
-23.950002

>  <alias>  (1277) 
None

>  <HIPPO Pose ID>  (1277) 
71097

>  <smiles>  (1277) 
C#Cc1cncc(N[C@H](C)CF)n1

>  <inchikey>  (1277) 
KLLLEOHJJVNOEV-SSDOTTSWSA-N

>  <distance_score>  (1277) 
1.071999

>  <ref_mols>  (1277) 
Z0875a,Z0089a

>  <ref_pdb>  (1277) 
Z0089a

>  <HIPPO Compound ID>  (1277) 
144150

>  <name>  (1277) 
P71097

>  <inspiration_score>  (1277) 
None

$$$$
P71099
     RDKit          3D

 13 13  0  0  0  0  0  0  0  0999 V2000
   -8.9096    4.4549  -15.5880 C   0  0  0  0  0  0  0  0  0  0  0  0
   -8.0381    4.7208  -16.3641 C   0  0  0  0  0  0  0  0  0  0  0  0
   -6.9733    4.9853  -17.2592 C   0  0  0  0  0  0  0  0  0  0  0  0
   -6.9756    4.5227  -18.5583 C   0  0  0  0  0  0  0  0  0  0  0  0
   -5.9286    4.7323  -19.3859 N   0  0  0  0  0  0  0  0  0  0  0  0
   -4.9028    5.4565  -18.9027 C   0  0  0  0  0  0  0  0  0  0  0  0
   -3.9421    5.7242  -19.8459 N   0  0  0  0  0  0  0  0  0  0  0  0
   -2.4946    5.6482  -19.6424 C   0  0  2  0  0  0  0  0  0  0  0  0
   -2.0232    4.2272  -19.3720 C   0  0  0  0  0  0  0  0  0  0  0  0
   -1.9124    6.6291  -18.6253 C   0  0  0  0  0  0  0  0  0  0  0  0
   -2.4069    7.8795  -18.8251 F   0  0  0  0  0  0  0  0  0  0  0  0
   -4.9381    5.9353  -17.5954 C   0  0  0  0  0  0  0  0  0  0  0  0
   -5.9589    5.7066  -16.7376 N   0  0  0  0  0  0  0  0  0  0  0  0
  1  2  3  0
  2  3  1  0
  3  4  2  0
  4  5  1  0
  5  6  2  0
  6  7  1  0
  7  8  1  0
  8  9  1  1
  8 10  1  0
 10 11  1  0
  6 12  1  0
 12 13  2  0
 13  3  1  0
M  END
>  <energy_score>  (1278) 
-6.230094

>  <alias>  (1278) 
None

>  <HIPPO Pose ID>  (1278) 
71099

>  <smiles>  (1278) 
C#Cc1cnc(N[C@H](C)CF)cn1

>  <inchikey>  (1278) 
WXCXLUWGVNFHCQ-SSDOTTSWSA-N

>  <distance_score>  (1278) 
1.032402

>  <ref_mols>  (1278) 
Z0875a,Z0089a

>  <ref_pdb>  (1278) 
Z0089a

>  <HIPPO Compound ID>  (1278) 
144151

>  <name>  (1278) 
P71099

>  <inspiration_score>  (1278) 
None

$$$$
P71101
     RDKit          3D

 13 13  0  0  0  0  0  0  0  0999 V2000
   -9.3697    4.0703  -16.6741 C   0  0  0  0  0  0  0  0  0  0  0  0
   -8.1069    4.6875  -16.1101 C   0  0  0  0  0  0  0  0  0  0  0  0
   -7.0046    4.9377  -17.0926 C   0  0  0  0  0  0  0  0  0  0  0  0
   -7.1001    4.6660  -18.4486 C   0  0  0  0  0  0  0  0  0  0  0  0
   -6.0723    4.8582  -19.3036 N   0  0  0  0  0  0  0  0  0  0  0  0
   -4.9317    5.3547  -18.8010 C   0  0  0  0  0  0  0  0  0  0  0  0
   -3.9993    5.5993  -19.7700 N   0  0  0  0  0  0  0  0  0  0  0  0
   -2.5494    5.6266  -19.6473 C   0  0  2  0  0  0  0  0  0  0  0  0
   -1.9711    4.3246  -19.1237 C   0  0  0  0  0  0  0  0  0  0  0  0
   -2.0106    6.8596  -18.9160 C   0  0  0  0  0  0  0  0  0  0  0  0
   -1.9885    6.6636  -17.5716 F   0  0  0  0  0  0  0  0  0  0  0  0
   -4.8402    5.6271  -17.4433 C   0  0  0  0  0  0  0  0  0  0  0  0
   -5.8592    5.4385  -16.5687 N   0  0  0  0  0  0  0  0  0  0  0  0
  1  2  1  0
  2  3  1  0
  3  4  2  0
  4  5  1  0
  5  6  2  0
  6  7  1  0
  7  8  1  0
  8  9  1  1
  8 10  1  0
 10 11  1  0
  6 12  1  0
 12 13  2  0
 13  3  1  0
M  END
>  <energy_score>  (1279) 
-23.920136

>  <alias>  (1279) 
None

>  <HIPPO Pose ID>  (1279) 
71101

>  <smiles>  (1279) 
CCc1cnc(N[C@H](C)CF)cn1

>  <inchikey>  (1279) 
YPUDHGRYMDGGIY-SSDOTTSWSA-N

>  <distance_score>  (1279) 
0.74941

>  <ref_mols>  (1279) 
Z0875a,Z0089a

>  <ref_pdb>  (1279) 
Z0089a

>  <HIPPO Compound ID>  (1279) 
144152

>  <name>  (1279) 
P71101

>  <inspiration_score>  (1279) 
None

$$$$
P71104
     RDKit          3D

 13 13  0  0  0  0  0  0  0  0999 V2000
   -1.8618    4.2541  -19.6089 C   0  0  0  0  0  0  0  0  0  0  0  0
   -2.7064    5.2763  -18.8581 C   0  0  1  0  0  0  0  0  0  0  0  0
   -2.1671    6.6912  -19.1084 C   0  0  0  0  0  0  0  0  0  0  0  0
   -2.7513    7.5631  -18.2383 F   0  0  0  0  0  0  0  0  0  0  0  0
   -4.1060    5.1891  -19.2754 N   0  0  0  0  0  0  0  0  0  0  0  0
   -5.1506    5.1911  -18.3716 C   0  0  0  0  0  0  0  0  0  0  0  0
   -5.0655    5.7280  -17.0794 C   0  0  0  0  0  0  0  0  0  0  0  0
   -6.0773    5.7148  -16.1804 N   0  0  0  0  0  0  0  0  0  0  0  0
   -7.2112    5.1404  -16.6290 C   0  0  0  0  0  0  0  0  0  0  0  0
   -7.3405    4.6470  -17.9176 C   0  0  0  0  0  0  0  0  0  0  0  0
   -8.6180    4.1304  -18.2986 C   0  0  0  0  0  0  0  0  0  0  0  0
   -9.7104    3.7488  -18.3983 N   0  0  0  0  0  0  0  0  0  0  0  0
   -6.3129    4.6573  -18.8084 N   0  0  0  0  0  0  0  0  0  0  0  0
  2  1  1  6
  2  3  1  0
  3  4  1  0
  2  5  1  0
  5  6  1  0
  6  7  2  0
  7  8  1  0
  8  9  2  0
  9 10  1  0
 10 11  1  0
 11 12  3  0
 10 13  2  0
 13  6  1  0
M  END
>  <energy_score>  (1280) 
-13.974891

>  <alias>  (1280) 
None

>  <HIPPO Pose ID>  (1280) 
71104

>  <smiles>  (1280) 
C[C@@H](CF)Nc1cncc(C#N)n1

>  <inchikey>  (1280) 
ZILWQOVYMZIOTJ-LURJTMIESA-N

>  <distance_score>  (1280) 
0.72828

>  <ref_mols>  (1280) 
Z0875a,Z0089a

>  <ref_pdb>  (1280) 
Z0089a

>  <HIPPO Compound ID>  (1280) 
144153

>  <name>  (1280) 
P71104

>  <inspiration_score>  (1280) 
None

$$$$
P71106
     RDKit          3D

 13 13  0  0  0  0  0  0  0  0999 V2000
   -2.1677    4.3076  -19.2360 C   0  0  0  0  0  0  0  0  0  0  0  0
   -2.7343    5.5344  -18.5239 C   0  0  1  0  0  0  0  0  0  0  0  0
   -1.9003    6.7709  -18.8812 C   0  0  0  0  0  0  0  0  0  0  0  0
   -1.8561    6.9179  -20.2385 F   0  0  0  0  0  0  0  0  0  0  0  0
   -4.1125    5.7752  -18.9389 N   0  0  0  0  0  0  0  0  0  0  0  0
   -5.2187    5.3599  -18.2440 C   0  0  0  0  0  0  0  0  0  0  0  0
   -6.1241    4.8213  -19.0960 N   0  0  0  0  0  0  0  0  0  0  0  0
   -7.3277    4.4589  -18.6039 C   0  0  0  0  0  0  0  0  0  0  0  0
   -7.6330    4.5875  -17.2696 C   0  0  0  0  0  0  0  0  0  0  0  0
   -6.7589    5.1075  -16.3833 N   0  0  0  0  0  0  0  0  0  0  0  0
   -5.5485    5.4991  -16.8854 C   0  0  0  0  0  0  0  0  0  0  0  0
   -4.7447    6.1612  -15.8172 C   0  0  0  0  0  0  0  0  0  0  0  0
   -3.7090    6.7988  -15.9524 O   0  0  0  0  0  0  0  0  0  0  0  0
  2  1  1  6
  2  3  1  0
  3  4  1  0
  2  5  1  0
  5  6  1  0
  6  7  2  0
  7  8  1  0
  8  9  2  0
  9 10  1  0
 10 11  2  0
 11 12  1  0
 12 13  2  0
 11  6  1  0
M  END
>  <energy_score>  (1281) 
-18.90559

>  <alias>  (1281) 
None

>  <HIPPO Pose ID>  (1281) 
71106

>  <smiles>  (1281) 
C[C@@H](CF)Nc1nccnc1C=O

>  <inchikey>  (1281) 
FTVSRUKTYXCDRS-LURJTMIESA-N

>  <distance_score>  (1281) 
0.917331

>  <ref_mols>  (1281) 
Z0875a,Z0089a

>  <ref_pdb>  (1281) 
Z0089a

>  <HIPPO Compound ID>  (1281) 
144154

>  <name>  (1281) 
P71106

>  <inspiration_score>  (1281) 
None

$$$$
P71107
     RDKit          3D

 13 13  0  0  0  0  0  0  0  0999 V2000
   -2.0174    4.2944  -19.2265 C   0  0  0  0  0  0  0  0  0  0  0  0
   -2.4566    5.7021  -19.5918 C   0  0  2  0  0  0  0  0  0  0  0  0
   -1.8570    6.7676  -18.6745 C   0  0  0  0  0  0  0  0  0  0  0  0
   -1.9695    6.4035  -17.3693 F   0  0  0  0  0  0  0  0  0  0  0  0
   -3.9009    5.8271  -19.7929 N   0  0  0  0  0  0  0  0  0  0  0  0
   -4.8400    5.4999  -18.8418 C   0  0  0  0  0  0  0  0  0  0  0  0
   -4.8946    5.9384  -17.5251 C   0  0  0  0  0  0  0  0  0  0  0  0
   -5.9258    5.6659  -16.6854 N   0  0  0  0  0  0  0  0  0  0  0  0
   -6.9317    4.9159  -17.2052 C   0  0  0  0  0  0  0  0  0  0  0  0
   -8.0284    4.5457  -16.2607 C   0  0  0  0  0  0  0  0  0  0  0  0
   -9.6899    4.1292  -17.1564 Br  0  0  0  0  0  0  0  0  0  0  0  0
   -6.8659    4.4736  -18.5193 C   0  0  0  0  0  0  0  0  0  0  0  0
   -5.8308    4.7507  -19.3399 N   0  0  0  0  0  0  0  0  0  0  0  0
  2  1  1  1
  2  3  1  0
  3  4  1  0
  2  5  1  0
  5  6  1  0
  6  7  2  0
  7  8  1  0
  8  9  2  0
  9 10  1  0
 10 11  1  0
  9 12  1  0
 12 13  2  0
 13  6  1  0
M  END
>  <energy_score>  (1282) 
-20.473748

>  <alias>  (1282) 
None

>  <HIPPO Pose ID>  (1282) 
71107

>  <smiles>  (1282) 
C[C@H](CF)Nc1cnc(CBr)cn1

>  <inchikey>  (1282) 
YSZAFZBUHHFKET-ZCFIWIBFSA-N

>  <distance_score>  (1282) 
0.88771

>  <ref_mols>  (1282) 
Z0875a,Z0089a

>  <ref_pdb>  (1282) 
Z0089a

>  <HIPPO Compound ID>  (1282) 
144155

>  <name>  (1282) 
P71107

>  <inspiration_score>  (1282) 
None

$$$$
P71109
     RDKit          3D

 13 13  0  0  0  0  0  0  0  0999 V2000
   -8.0950    4.5258  -15.8072 C   0  0  0  0  0  0  0  0  0  0  0  0
   -7.0316    4.7385  -16.8353 C   0  0  0  0  0  0  0  0  0  0  0  0
   -5.8136    5.1063  -16.3663 N   0  0  0  0  0  0  0  0  0  0  0  0
   -4.8530    5.3006  -17.3006 C   0  0  0  0  0  0  0  0  0  0  0  0
   -5.0666    5.1700  -18.6637 C   0  0  0  0  0  0  0  0  0  0  0  0
   -4.1746    5.3995  -19.6690 N   0  0  0  0  0  0  0  0  0  0  0  0
   -2.7365    5.6023  -19.6337 C   0  0  2  0  0  0  0  0  0  0  0  0
   -1.9867    4.3899  -19.1074 C   0  0  0  0  0  0  0  0  0  0  0  0
   -2.3084    6.9118  -18.9630 C   0  0  0  0  0  0  0  0  0  0  0  0
   -2.2519    6.7811  -17.6122 F   0  0  0  0  0  0  0  0  0  0  0  0
   -6.2834    4.8104  -19.1076 N   0  0  0  0  0  0  0  0  0  0  0  0
   -7.2664    4.5788  -18.1995 C   0  0  0  0  0  0  0  0  0  0  0  0
   -8.6022    4.1861  -18.7542 C   0  0  0  0  0  0  0  0  0  0  0  0
  1  2  1  0
  2  3  2  0
  3  4  1  0
  4  5  2  0
  5  6  1  0
  6  7  1  0
  7  8  1  1
  7  9  1  0
  9 10  1  0
  5 11  1  0
 11 12  2  0
 12 13  1  0
 12  2  1  0
M  END
>  <energy_score>  (1283) 
-29.097857

>  <alias>  (1283) 
None

>  <HIPPO Pose ID>  (1283) 
71109

>  <smiles>  (1283) 
Cc1ncc(N[C@H](C)CF)nc1C

>  <inchikey>  (1283) 
WKQWYKKMFSXYBV-ZCFIWIBFSA-N

>  <distance_score>  (1283) 
0.722881

>  <ref_mols>  (1283) 
Z0875a,Z0089a

>  <ref_pdb>  (1283) 
Z0089a

>  <HIPPO Compound ID>  (1283) 
144156

>  <name>  (1283) 
P71109

>  <inspiration_score>  (1283) 
None

$$$$
P71118
     RDKit          3D

 13 13  0  0  0  0  0  0  0  0999 V2000
   -1.8422    4.4596  -19.2440 C   0  0  0  0  0  0  0  0  0  0  0  0
   -2.8379    5.3628  -18.5091 C   0  0  1  0  0  0  0  0  0  0  0  0
   -2.5813    6.8272  -18.8763 C   0  0  0  0  0  0  0  0  0  0  0  0
   -2.6589    6.9855  -20.2288 F   0  0  0  0  0  0  0  0  0  0  0  0
   -4.1702    4.9569  -18.9016 N   0  0  0  0  0  0  0  0  0  0  0  0
   -5.3657    4.9480  -18.2580 C   0  0  0  0  0  0  0  0  0  0  0  0
   -6.3417    4.6318  -19.1407 N   0  0  0  0  0  0  0  0  0  0  0  0
   -7.6039    4.4915  -18.6842 C   0  0  0  0  0  0  0  0  0  0  0  0
   -7.9195    4.6894  -17.3628 C   0  0  0  0  0  0  0  0  0  0  0  0
   -6.9938    5.0646  -16.4598 N   0  0  0  0  0  0  0  0  0  0  0  0
   -5.7081    5.1544  -16.9146 C   0  0  0  0  0  0  0  0  0  0  0  0
   -4.8053    5.4763  -15.8482 C   0  0  0  0  0  0  0  0  0  0  0  0
   -4.1316    5.7290  -14.9331 N   0  0  0  0  0  0  0  0  0  0  0  0
  2  1  1  6
  2  3  1  0
  3  4  1  0
  2  5  1  0
  5  6  1  0
  6  7  2  0
  7  8  1  0
  8  9  2  0
  9 10  1  0
 10 11  2  0
 11 12  1  0
 12 13  3  0
 11  6  1  0
M  END
>  <energy_score>  (1284) 
-23.324761

>  <alias>  (1284) 
None

>  <HIPPO Pose ID>  (1284) 
71118

>  <smiles>  (1284) 
C[C@@H](CF)Nc1nccnc1C#N

>  <inchikey>  (1284) 
CTWOHHPRSCSLEK-LURJTMIESA-N

>  <distance_score>  (1284) 
0.996007

>  <ref_mols>  (1284) 
Z0875a,Z0089a

>  <ref_pdb>  (1284) 
Z0089a

>  <HIPPO Compound ID>  (1284) 
144160

>  <name>  (1284) 
P71118

>  <inspiration_score>  (1284) 
None

$$$$
P71119
     RDKit          3D

 13 13  0  0  0  0  0  0  0  0999 V2000
   -1.8101    4.5430  -19.0656 C   0  0  0  0  0  0  0  0  0  0  0  0
   -2.7410    5.5994  -19.6425 C   0  0  2  0  0  0  0  0  0  0  0  0
   -2.5937    6.9589  -18.9589 C   0  0  0  0  0  0  0  0  0  0  0  0
   -3.2959    7.8970  -19.6545 F   0  0  0  0  0  0  0  0  0  0  0  0
   -4.1000    5.0853  -19.7106 N   0  0  0  0  0  0  0  0  0  0  0  0
   -5.0429    4.9977  -18.7253 C   0  0  0  0  0  0  0  0  0  0  0  0
   -4.8341    4.9871  -17.3514 C   0  0  0  0  0  0  0  0  0  0  0  0
   -5.8258    4.8564  -16.4347 N   0  0  0  0  0  0  0  0  0  0  0  0
   -7.0757    4.6848  -16.9389 C   0  0  0  0  0  0  0  0  0  0  0  0
   -8.2085    4.5329  -15.9601 C   0  0  0  0  0  0  0  0  0  0  0  0
   -9.3947    4.0320  -16.5721 O   0  0  0  0  0  0  0  0  0  0  0  0
   -7.2911    4.6981  -18.3073 C   0  0  0  0  0  0  0  0  0  0  0  0
   -6.2880    4.8526  -19.2019 N   0  0  0  0  0  0  0  0  0  0  0  0
  2  1  1  1
  2  3  1  0
  3  4  1  0
  2  5  1  0
  5  6  1  0
  6  7  2  0
  7  8  1  0
  8  9  2  0
  9 10  1  0
 10 11  1  0
  9 12  1  0
 12 13  2  0
 13  6  1  0
M  END
>  <energy_score>  (1285) 
-20.89138

>  <alias>  (1285) 
None

>  <HIPPO Pose ID>  (1285) 
71119

>  <smiles>  (1285) 
C[C@H](CF)Nc1cnc(CO)cn1

>  <inchikey>  (1285) 
YJEWHTVNBNROQP-ZCFIWIBFSA-N

>  <distance_score>  (1285) 
0.809612

>  <ref_mols>  (1285) 
Z0875a,Z0089a

>  <ref_pdb>  (1285) 
Z0089a

>  <HIPPO Compound ID>  (1285) 
144161

>  <name>  (1285) 
P71119

>  <inspiration_score>  (1285) 
None

$$$$
P71122
     RDKit          3D

 13 13  0  0  0  0  0  0  0  0999 V2000
   -1.7294    4.4023  -19.6663 C   0  0  0  0  0  0  0  0  0  0  0  0
   -2.6035    5.3372  -18.8373 C   0  0  1  0  0  0  0  0  0  0  0  0
   -1.9890    6.7408  -18.8062 C   0  0  0  0  0  0  0  0  0  0  0  0
   -0.8123    6.7045  -18.1226 F   0  0  0  0  0  0  0  0  0  0  0  0
   -3.9489    5.4130  -19.3978 N   0  0  0  0  0  0  0  0  0  0  0  0
   -5.0502    5.2220  -18.5855 C   0  0  0  0  0  0  0  0  0  0  0  0
   -5.1436    5.6200  -17.2481 C   0  0  0  0  0  0  0  0  0  0  0  0
   -6.2434    5.4367  -16.4800 N   0  0  0  0  0  0  0  0  0  0  0  0
   -7.2720    4.8260  -17.1199 C   0  0  0  0  0  0  0  0  0  0  0  0
   -8.4640    4.5573  -16.3099 C   0  0  0  0  0  0  0  0  0  0  0  0
   -9.4803    4.0729  -16.7902 O   0  0  0  0  0  0  0  0  0  0  0  0
   -7.2199    4.4658  -18.4534 C   0  0  0  0  0  0  0  0  0  0  0  0
   -6.1007    4.6503  -19.1976 N   0  0  0  0  0  0  0  0  0  0  0  0
  2  1  1  6
  2  3  1  0
  3  4  1  0
  2  5  1  0
  5  6  1  0
  6  7  2  0
  7  8  1  0
  8  9  2  0
  9 10  1  0
 10 11  2  0
  9 12  1  0
 12 13  2  0
 13  6  1  0
M  END
>  <energy_score>  (1286) 
-18.22249

>  <alias>  (1286) 
None

>  <HIPPO Pose ID>  (1286) 
71122

>  <smiles>  (1286) 
C[C@@H](CF)Nc1cnc(C=O)cn1

>  <inchikey>  (1286) 
UPYYTIVWWOBGGZ-LURJTMIESA-N

>  <distance_score>  (1286) 
0.693693

>  <ref_mols>  (1286) 
Z0875a,Z0089a

>  <ref_pdb>  (1286) 
Z0089a

>  <HIPPO Compound ID>  (1286) 
144162

>  <name>  (1286) 
P71122

>  <inspiration_score>  (1286) 
None

$$$$
P71125
     RDKit          3D

 13 13  0  0  0  0  0  0  0  0999 V2000
   -0.4875    5.3670  -19.1982 C   0  0  0  0  0  0  0  0  0  0  0  0
   -1.8972    4.8127  -19.0302 C   0  0  0  0  0  0  0  0  0  0  0  0
   -2.9752    5.7296  -19.6356 C   0  0  2  0  0  0  0  0  0  0  0  0
   -2.9871    7.1491  -19.0404 C   0  0  0  0  0  0  0  0  0  0  0  0
   -4.1711    8.2770  -19.8566 S   0  0  0  0  0  0  0  0  0  0  0  0
   -4.2545    5.0317  -19.6386 N   0  0  0  0  0  0  0  0  0  0  0  0
   -5.2140    4.9807  -18.6623 C   0  0  0  0  0  0  0  0  0  0  0  0
   -5.0369    5.1806  -17.2976 C   0  0  0  0  0  0  0  0  0  0  0  0
   -6.0444    5.1453  -16.3897 N   0  0  0  0  0  0  0  0  0  0  0  0
   -7.2535    4.8148  -16.8989 C   0  0  0  0  0  0  0  0  0  0  0  0
   -7.4537    4.5571  -18.2453 C   0  0  0  0  0  0  0  0  0  0  0  0
   -8.7996    4.1677  -18.7686 C   0  0  0  0  0  0  0  0  0  0  0  0
   -6.4332    4.6579  -19.1311 N   0  0  0  0  0  0  0  0  0  0  0  0
  1  2  1  0
  3  2  1  1
  3  4  1  0
  4  5  1  0
  3  6  1  0
  6  7  1  0
  7  8  2  0
  8  9  1  0
  9 10  2  0
 10 11  1  0
 11 12  1  0
 11 13  2  0
 13  7  1  0
M  END
>  <energy_score>  (1287) 
-29.511032

>  <alias>  (1287) 
None

>  <HIPPO Pose ID>  (1287) 
71125

>  <smiles>  (1287) 
CC[C@H](CS)Nc1cncc(C)n1

>  <inchikey>  (1287) 
GLXMDFFNPAOYFU-MRVPVSSYSA-N

>  <distance_score>  (1287) 
0.736792

>  <ref_mols>  (1287) 
Z0875a,Z0089a

>  <ref_pdb>  (1287) 
Z0089a

>  <HIPPO Compound ID>  (1287) 
144164

>  <name>  (1287) 
P71125

>  <inspiration_score>  (1287) 
None

$$$$
P71128
     RDKit          3D

 13 13  0  0  0  0  0  0  0  0999 V2000
   -0.2108    5.3492  -19.0790 C   0  0  0  0  0  0  0  0  0  0  0  0
   -1.5448    4.7264  -19.4730 C   0  0  0  0  0  0  0  0  0  0  0  0
   -2.7347    5.6566  -19.1782 C   0  0  1  0  0  0  0  0  0  0  0  0
   -2.6743    7.0263  -19.8815 C   0  0  0  0  0  0  0  0  0  0  0  0
   -2.5712    6.9247  -21.7018 S   0  0  0  0  0  0  0  0  0  0  0  0
   -3.9622    4.9487  -19.5372 N   0  0  0  0  0  0  0  0  0  0  0  0
   -5.0893    4.9064  -18.7570 C   0  0  0  0  0  0  0  0  0  0  0  0
   -5.0981    4.9464  -17.3743 C   0  0  0  0  0  0  0  0  0  0  0  0
   -6.2635    4.8338  -16.6988 N   0  0  0  0  0  0  0  0  0  0  0  0
   -6.2300    4.8616  -15.2395 C   0  0  0  0  0  0  0  0  0  0  0  0
   -7.4236    4.6382  -17.3660 C   0  0  0  0  0  0  0  0  0  0  0  0
   -7.3848    4.5890  -18.7426 C   0  0  0  0  0  0  0  0  0  0  0  0
   -6.2326    4.7259  -19.4276 N   0  0  0  0  0  0  0  0  0  0  0  0
  1  2  1  0
  3  2  1  6
  3  4  1  0
  4  5  1  0
  3  6  1  0
  6  7  1  0
  7  8  2  0
  8  9  1  0
  9 10  1  0
  9 11  2  0
 11 12  1  0
 12 13  2  0
 13  7  1  0
M  CHG  1   9   1
M  END
>  <energy_score>  (1288) 
-41.1177

>  <alias>  (1288) 
None

>  <HIPPO Pose ID>  (1288) 
71128

>  <smiles>  (1288) 
CC[C@@H](CS)Nc1c[n+](C)ccn1

>  <inchikey>  (1288) 
SJCDBTQWHLDPKJ-QMMMGPOBSA-O

>  <distance_score>  (1288) 
0.831375

>  <ref_mols>  (1288) 
Z0875a,Z0089a

>  <ref_pdb>  (1288) 
Z0089a

>  <HIPPO Compound ID>  (1288) 
144165

>  <name>  (1288) 
P71128

>  <inspiration_score>  (1288) 
None

$$$$
P71134
     RDKit          3D

 13 13  0  0  0  0  0  0  0  0999 V2000
   -1.6971    3.5431  -19.6386 C   0  0  0  0  0  0  0  0  0  0  0  0
   -1.5900    5.0529  -19.6635 C   0  0  0  0  0  0  0  0  0  0  0  0
   -2.7157    5.7457  -18.8808 C   0  0  1  0  0  0  0  0  0  0  0  0
   -2.7022    7.2705  -19.0853 C   0  0  0  0  0  0  0  0  0  0  0  0
   -1.2416    8.0942  -18.3739 S   0  0  0  0  0  0  0  0  0  0  0  0
   -3.9996    5.2076  -19.2961 N   0  0  0  0  0  0  0  0  0  0  0  0
   -5.1138    5.1305  -18.5008 C   0  0  0  0  0  0  0  0  0  0  0  0
   -5.1559    5.3721  -17.1282 C   0  0  0  0  0  0  0  0  0  0  0  0
   -6.2779    5.2733  -16.3775 N   0  0  0  0  0  0  0  0  0  0  0  0
   -7.3816    4.8568  -17.0405 C   0  0  0  0  0  0  0  0  0  0  0  0
   -8.6109    4.6182  -16.2290 C   0  0  0  0  0  0  0  0  0  0  0  0
   -7.3502    4.6096  -18.4055 C   0  0  0  0  0  0  0  0  0  0  0  0
   -6.2280    4.7577  -19.1483 N   0  0  0  0  0  0  0  0  0  0  0  0
  1  2  1  0
  3  2  1  6
  3  4  1  0
  4  5  1  0
  3  6  1  0
  6  7  1  0
  7  8  2  0
  8  9  1  0
  9 10  2  0
 10 11  1  0
 10 12  1  0
 12 13  2  0
 13  7  1  0
M  END
>  <energy_score>  (1289) 
-16.998222

>  <alias>  (1289) 
None

>  <HIPPO Pose ID>  (1289) 
71134

>  <smiles>  (1289) 
CC[C@@H](CS)Nc1cnc(C)cn1

>  <inchikey>  (1289) 
DOSBDOVEFYPLFL-QMMMGPOBSA-N

>  <distance_score>  (1289) 
0.75173

>  <ref_mols>  (1289) 
Z0875a,Z0089a

>  <ref_pdb>  (1289) 
Z0089a

>  <HIPPO Compound ID>  (1289) 
144168

>  <name>  (1289) 
P71134

>  <inspiration_score>  (1289) 
None

$$$$
P71142
     RDKit          3D

 13 13  0  0  0  0  0  0  0  0999 V2000
   -1.5268    4.4862  -19.6169 C   0  0  0  0  0  0  0  0  0  0  0  0
   -2.4152    5.3896  -18.7630 C   0  0  0  0  0  0  0  0  0  0  0  0
   -1.8366    6.7989  -18.6649 C   0  0  0  0  0  0  0  0  0  0  0  0
   -3.7683    5.4474  -19.3238 N   0  0  0  0  0  0  0  0  0  0  0  0
   -3.9611    5.8911  -20.6620 N   0  0  0  0  0  0  0  0  0  0  0  0
   -4.9169    5.2057  -18.5591 C   0  0  0  0  0  0  0  0  0  0  0  0
   -4.9470    5.2709  -17.1602 C   0  0  0  0  0  0  0  0  0  0  0  0
   -6.0549    5.0649  -16.4042 N   0  0  0  0  0  0  0  0  0  0  0  0
   -7.1642    4.7421  -17.1122 C   0  0  0  0  0  0  0  0  0  0  0  0
   -8.3662    4.4542  -16.3228 C   0  0  0  0  0  0  0  0  0  0  0  0
   -9.4484    4.2225  -16.8456 O   0  0  0  0  0  0  0  0  0  0  0  0
   -7.1815    4.6886  -18.4920 C   0  0  0  0  0  0  0  0  0  0  0  0
   -6.0680    4.9374  -19.2269 N   0  0  0  0  0  0  0  0  0  0  0  0
  1  2  1  0
  2  3  1  0
  2  4  1  0
  4  5  1  0
  4  6  1  0
  6  7  2  0
  7  8  1  0
  8  9  2  0
  9 10  1  0
 10 11  2  0
  9 12  1  0
 12 13  2  0
 13  6  1  0
M  END
>  <energy_score>  (1290) 
-14.581716

>  <alias>  (1290) 
None

>  <HIPPO Pose ID>  (1290) 
71142

>  <smiles>  (1290) 
CC(C)N(N)c1cnc(C=O)cn1

>  <inchikey>  (1290) 
CWZXBSJHWJNWIB-UHFFFAOYSA-N

>  <distance_score>  (1290) 
0.738553

>  <ref_mols>  (1290) 
Z0875a,Z0089a

>  <ref_pdb>  (1290) 
Z0089a

>  <HIPPO Compound ID>  (1290) 
144174

>  <name>  (1290) 
P71142

>  <inspiration_score>  (1290) 
None

$$$$
P71143
     RDKit          3D

 13 13  0  0  0  0  0  0  0  0999 V2000
   -9.7404    4.1813  -18.3676 C   0  0  0  0  0  0  0  0  0  0  0  0
   -8.5636    4.3558  -18.2112 C   0  0  0  0  0  0  0  0  0  0  0  0
   -7.2345    4.6488  -17.7856 C   0  0  0  0  0  0  0  0  0  0  0  0
   -6.9944    4.7665  -16.4258 C   0  0  0  0  0  0  0  0  0  0  0  0
   -5.7893    5.1012  -15.9270 N   0  0  0  0  0  0  0  0  0  0  0  0
   -4.8256    5.2604  -16.8645 C   0  0  0  0  0  0  0  0  0  0  0  0
   -5.0240    5.1365  -18.2507 C   0  0  0  0  0  0  0  0  0  0  0  0
   -3.9792    5.3393  -19.1782 N   0  0  0  0  0  0  0  0  0  0  0  0
   -4.3417    5.8880  -20.4356 N   0  0  0  0  0  0  0  0  0  0  0  0
   -2.5660    5.3643  -18.7614 C   0  0  0  0  0  0  0  0  0  0  0  0
   -1.7004    4.5626  -19.7329 C   0  0  0  0  0  0  0  0  0  0  0  0
   -2.0655    6.8037  -18.6526 C   0  0  0  0  0  0  0  0  0  0  0  0
   -6.2749    4.8586  -18.7189 N   0  0  0  0  0  0  0  0  0  0  0  0
  1  2  3  0
  2  3  1  0
  3  4  2  0
  4  5  1  0
  5  6  2  0
  6  7  1  0
  7  8  1  0
  8  9  1  0
  8 10  1  0
 10 11  1  0
 10 12  1  0
  7 13  2  0
 13  3  1  0
M  END
>  <energy_score>  (1291) 
-32.23449

>  <alias>  (1291) 
None

>  <HIPPO Pose ID>  (1291) 
71143

>  <smiles>  (1291) 
C#Cc1cncc(N(N)C(C)C)n1

>  <inchikey>  (1291) 
QKFJLXDIRBAJED-UHFFFAOYSA-N

>  <distance_score>  (1291) 
1.090266

>  <ref_mols>  (1291) 
Z0875a,Z0089a

>  <ref_pdb>  (1291) 
Z0089a

>  <HIPPO Compound ID>  (1291) 
144175

>  <name>  (1291) 
P71143

>  <inspiration_score>  (1291) 
None

$$$$
P71145
     RDKit          3D

 13 13  0  0  0  0  0  0  0  0999 V2000
   -9.2905    4.0752  -16.7290 C   0  0  0  0  0  0  0  0  0  0  0  0
   -8.0294    4.6789  -16.1414 C   0  0  0  0  0  0  0  0  0  0  0  0
   -6.9058    4.9148  -17.1063 C   0  0  0  0  0  0  0  0  0  0  0  0
   -7.0803    5.0491  -18.4723 C   0  0  0  0  0  0  0  0  0  0  0  0
   -6.0583    5.3266  -19.3151 N   0  0  0  0  0  0  0  0  0  0  0  0
   -4.8080    5.4283  -18.8028 C   0  0  0  0  0  0  0  0  0  0  0  0
   -3.7882    5.7635  -19.6984 N   0  0  0  0  0  0  0  0  0  0  0  0
   -4.2089    6.3433  -20.9384 N   0  0  0  0  0  0  0  0  0  0  0  0
   -2.3421    5.7168  -19.4610 C   0  0  0  0  0  0  0  0  0  0  0  0
   -1.8559    4.3211  -19.1127 C   0  0  0  0  0  0  0  0  0  0  0  0
   -1.8704    6.8085  -18.5123 C   0  0  0  0  0  0  0  0  0  0  0  0
   -4.6516    5.2587  -17.4299 C   0  0  0  0  0  0  0  0  0  0  0  0
   -5.6731    5.0408  -16.5604 N   0  0  0  0  0  0  0  0  0  0  0  0
  1  2  1  0
  2  3  1  0
  3  4  2  0
  4  5  1  0
  5  6  2  0
  6  7  1  0
  7  8  1  0
  7  9  1  0
  9 10  1  0
  9 11  1  0
  6 12  1  0
 12 13  2  0
 13  3  1  0
M  END
>  <energy_score>  (1292) 
-34.576888

>  <alias>  (1292) 
None

>  <HIPPO Pose ID>  (1292) 
71145

>  <smiles>  (1292) 
CCc1cnc(N(N)C(C)C)cn1

>  <inchikey>  (1292) 
WNKGNFLCAKXTOV-UHFFFAOYSA-N

>  <distance_score>  (1292) 
0.857591

>  <ref_mols>  (1292) 
Z0875a,Z0089a

>  <ref_pdb>  (1292) 
Z0089a

>  <HIPPO Compound ID>  (1292) 
144177

>  <name>  (1292) 
P71145

>  <inspiration_score>  (1292) 
None

$$$$
P71146
     RDKit          3D

 13 13  0  0  0  0  0  0  0  0999 V2000
   -2.0452    4.3325  -19.3909 C   0  0  0  0  0  0  0  0  0  0  0  0
   -2.6053    5.6577  -18.8835 C   0  0  0  0  0  0  0  0  0  0  0  0
   -1.8481    6.8401  -19.4893 C   0  0  0  0  0  0  0  0  0  0  0  0
   -4.0507    5.7680  -19.1679 N   0  0  0  0  0  0  0  0  0  0  0  0
   -4.4837    6.1115  -20.4753 N   0  0  0  0  0  0  0  0  0  0  0  0
   -5.0274    5.3019  -18.2671 C   0  0  0  0  0  0  0  0  0  0  0  0
   -4.7851    5.1963  -16.8897 C   0  0  0  0  0  0  0  0  0  0  0  0
   -5.7061    4.8127  -15.9749 N   0  0  0  0  0  0  0  0  0  0  0  0
   -6.9176    4.5134  -16.4831 C   0  0  0  0  0  0  0  0  0  0  0  0
   -7.1991    4.6084  -17.8343 C   0  0  0  0  0  0  0  0  0  0  0  0
   -8.5109    4.2474  -18.2746 C   0  0  0  0  0  0  0  0  0  0  0  0
   -9.6061    3.9037  -18.4514 N   0  0  0  0  0  0  0  0  0  0  0  0
   -6.2742    5.0174  -18.7423 N   0  0  0  0  0  0  0  0  0  0  0  0
  1  2  1  0
  2  3  1  0
  2  4  1  0
  4  5  1  0
  4  6  1  0
  6  7  2  0
  7  8  1  0
  8  9  2  0
  9 10  1  0
 10 11  1  0
 11 12  3  0
 10 13  2  0
 13  6  1  0
M  END
>  <energy_score>  (1293) 
-27.890248

>  <alias>  (1293) 
None

>  <HIPPO Pose ID>  (1293) 
71146

>  <smiles>  (1293) 
CC(C)N(N)c1cncc(C#N)n1

>  <inchikey>  (1293) 
ILMGRXWMOFKDSH-UHFFFAOYSA-N

>  <distance_score>  (1293) 
0.860487

>  <ref_mols>  (1293) 
Z0875a,Z0089a

>  <ref_pdb>  (1293) 
Z0089a

>  <HIPPO Compound ID>  (1293) 
144178

>  <name>  (1293) 
P71146

>  <inspiration_score>  (1293) 
None

$$$$
P71147
     RDKit          3D

 13 13  0  0  0  0  0  0  0  0999 V2000
   -1.6411    4.3581  -19.5153 C   0  0  0  0  0  0  0  0  0  0  0  0
   -2.3077    5.5506  -18.8336 C   0  0  0  0  0  0  0  0  0  0  0  0
   -1.4731    6.8184  -18.9965 C   0  0  0  0  0  0  0  0  0  0  0  0
   -3.6452    5.7994  -19.3829 N   0  0  0  0  0  0  0  0  0  0  0  0
   -3.8173    5.9490  -20.7904 N   0  0  0  0  0  0  0  0  0  0  0  0
   -4.7774    5.4330  -18.6388 C   0  0  0  0  0  0  0  0  0  0  0  0
   -4.8894    5.6701  -17.2682 C   0  0  0  0  0  0  0  0  0  0  0  0
   -6.0030    5.4121  -16.5412 N   0  0  0  0  0  0  0  0  0  0  0  0
   -7.0438    4.8639  -17.2223 C   0  0  0  0  0  0  0  0  0  0  0  0
   -8.2306    4.5082  -16.3863 C   0  0  0  0  0  0  0  0  0  0  0  0
   -9.8245    4.1109  -17.4037 Br  0  0  0  0  0  0  0  0  0  0  0  0
   -6.9383    4.6254  -18.5877 C   0  0  0  0  0  0  0  0  0  0  0  0
   -5.8306    4.9192  -19.3066 N   0  0  0  0  0  0  0  0  0  0  0  0
  1  2  1  0
  2  3  1  0
  2  4  1  0
  4  5  1  0
  4  6  1  0
  6  7  2  0
  7  8  1  0
  8  9  2  0
  9 10  1  0
 10 11  1  0
  9 12  1  0
 12 13  2  0
 13  6  1  0
M  END
>  <energy_score>  (1294) 
-13.661684

>  <alias>  (1294) 
None

>  <HIPPO Pose ID>  (1294) 
71147

>  <smiles>  (1294) 
CC(C)N(N)c1cnc(CBr)cn1

>  <inchikey>  (1294) 
HEZNKWOTTFALNE-UHFFFAOYSA-N

>  <distance_score>  (1294) 
0.90412

>  <ref_mols>  (1294) 
Z0875a,Z0089a

>  <ref_pdb>  (1294) 
Z0089a

>  <HIPPO Compound ID>  (1294) 
144179

>  <name>  (1294) 
P71147

>  <inspiration_score>  (1294) 
None

$$$$
P71151
     RDKit          3D

 13 13  0  0  0  0  0  0  0  0999 V2000
    0.0105    6.3300  -20.3227 C   0  0  0  0  0  0  0  0  0  0  0  0
   -0.5795    5.2278  -19.5035 C   0  0  0  0  0  0  0  0  0  0  0  0
   -1.8761    5.0080  -19.2267 C   0  0  0  0  0  0  0  0  0  0  0  0
   -3.0292    5.8531  -19.6833 C   0  0  2  0  0  0  0  0  0  0  0  0
   -3.1406    7.1778  -18.9398 C   0  0  0  0  0  0  0  0  0  0  0  0
   -4.2258    5.0394  -19.6748 N   0  0  0  0  0  0  0  0  0  0  0  0
   -5.1583    4.9567  -18.6717 C   0  0  0  0  0  0  0  0  0  0  0  0
   -4.9192    5.0456  -17.3046 C   0  0  0  0  0  0  0  0  0  0  0  0
   -5.8891    4.9489  -16.3640 N   0  0  0  0  0  0  0  0  0  0  0  0
   -7.1248    4.6809  -16.8478 C   0  0  0  0  0  0  0  0  0  0  0  0
   -7.3848    4.5393  -18.2016 C   0  0  0  0  0  0  0  0  0  0  0  0
   -8.7491    4.1936  -18.7065 C   0  0  0  0  0  0  0  0  0  0  0  0
   -6.4016    4.7069  -19.1169 N   0  0  0  0  0  0  0  0  0  0  0  0
  1  2  1  0
  2  3  2  0
  3  4  1  0
  4  5  1  1
  4  6  1  0
  6  7  1  0
  7  8  2  0
  8  9  1  0
  9 10  2  0
 10 11  1  0
 11 12  1  0
 11 13  2  0
 13  7  1  0
M  END
>  <energy_score>  (1295) 
-33.63543

>  <alias>  (1295) 
None

>  <HIPPO Pose ID>  (1295) 
71151

>  <smiles>  (1295) 
C/C=C\[C@H](C)Nc1cncc(C)n1

>  <inchikey>  (1295) 
OLWIVQSVIDSDKR-LGYSABEFSA-N

>  <distance_score>  (1295) 
0.780484

>  <ref_mols>  (1295) 
Z0875a,Z0089a

>  <ref_pdb>  (1295) 
Z0089a

>  <HIPPO Compound ID>  (1295) 
144181

>  <name>  (1295) 
P71151

>  <inspiration_score>  (1295) 
None

$$$$
P71155
     RDKit          3D

 13 13  0  0  0  0  0  0  0  0999 V2000
    0.0930    6.3580  -20.1783 C   0  0  0  0  0  0  0  0  0  0  0  0
   -0.5550    5.2248  -19.4470 C   0  0  0  0  0  0  0  0  0  0  0  0
   -1.8671    4.9942  -19.2686 C   0  0  0  0  0  0  0  0  0  0  0  0
   -2.9781    5.8664  -19.7721 C   0  0  2  0  0  0  0  0  0  0  0  0
   -3.1212    7.1720  -18.9994 C   0  0  0  0  0  0  0  0  0  0  0  0
   -4.1901    5.0687  -19.8385 N   0  0  0  0  0  0  0  0  0  0  0  0
   -5.1778    4.9522  -18.9026 C   0  0  0  0  0  0  0  0  0  0  0  0
   -5.0080    4.9977  -17.5327 C   0  0  0  0  0  0  0  0  0  0  0  0
   -6.0773    4.8649  -16.7138 N   0  0  0  0  0  0  0  0  0  0  0  0
   -5.8653    4.9263  -15.2699 C   0  0  0  0  0  0  0  0  0  0  0  0
   -7.3097    4.6400  -17.2271 C   0  0  0  0  0  0  0  0  0  0  0  0
   -7.4456    4.5701  -18.5963 C   0  0  0  0  0  0  0  0  0  0  0  0
   -6.3914    4.7196  -19.4183 N   0  0  0  0  0  0  0  0  0  0  0  0
  1  2  1  0
  2  3  2  0
  3  4  1  0
  4  5  1  1
  4  6  1  0
  6  7  1  0
  7  8  2  0
  8  9  1  0
  9 10  1  0
  9 11  2  0
 11 12  1  0
 12 13  2  0
 13  7  1  0
M  CHG  1   9   1
M  END
>  <energy_score>  (1296) 
-20.897222

>  <alias>  (1296) 
None

>  <HIPPO Pose ID>  (1296) 
71155

>  <smiles>  (1296) 
C/C=C\[C@H](C)Nc1c[n+](C)ccn1

>  <inchikey>  (1296) 
UCZHHIAGPOKDCL-WBSSQXGSSA-N

>  <distance_score>  (1296) 
0.894319

>  <ref_mols>  (1296) 
Z0875a,Z0089a

>  <ref_pdb>  (1296) 
Z0089a

>  <HIPPO Compound ID>  (1296) 
144182

>  <name>  (1296) 
P71155

>  <inspiration_score>  (1296) 
None

$$$$
P71158
     RDKit          3D

 13 13  0  0  0  0  0  0  0  0999 V2000
   -0.5089    5.7541  -22.2689 C   0  0  0  0  0  0  0  0  0  0  0  0
   -1.3716    6.0946  -21.0964 C   0  0  0  0  0  0  0  0  0  0  0  0
   -1.8871    5.2061  -20.2241 C   0  0  0  0  0  0  0  0  0  0  0  0
   -2.7897    5.5269  -19.0530 C   0  0  1  0  0  0  0  0  0  0  0  0
   -2.8687    7.0175  -18.7195 C   0  0  0  0  0  0  0  0  0  0  0  0
   -4.0887    4.9953  -19.4069 N   0  0  0  0  0  0  0  0  0  0  0  0
   -5.1664    4.9484  -18.5498 C   0  0  0  0  0  0  0  0  0  0  0  0
   -5.0897    4.9476  -17.1530 C   0  0  0  0  0  0  0  0  0  0  0  0
   -6.1703    4.8831  -16.3357 N   0  0  0  0  0  0  0  0  0  0  0  0
   -7.3505    4.7331  -16.9780 C   0  0  0  0  0  0  0  0  0  0  0  0
   -7.4315    4.7247  -18.3553 C   0  0  0  0  0  0  0  0  0  0  0  0
   -8.6274    4.6386  -18.9916 O   0  0  0  0  0  0  0  0  0  0  0  0
   -6.3644    4.8581  -19.1606 N   0  0  0  0  0  0  0  0  0  0  0  0
  1  2  1  0
  2  3  2  0
  3  4  1  0
  4  5  1  6
  4  6  1  0
  6  7  1  0
  7  8  2  0
  8  9  1  0
  9 10  2  0
 10 11  1  0
 11 12  1  0
 11 13  2  0
 13  7  1  0
M  END
>  <energy_score>  (1297) 
-34.191752

>  <alias>  (1297) 
None

>  <HIPPO Pose ID>  (1297) 
71158

>  <smiles>  (1297) 
C/C=C/[C@@H](C)Nc1cncc(O)n1

>  <inchikey>  (1297) 
JGDBTOVMIABBFU-KGGZQZJCSA-N

>  <distance_score>  (1297) 
0.786803

>  <ref_mols>  (1297) 
Z0875a,Z0089a

>  <ref_pdb>  (1297) 
Z0089a

>  <HIPPO Compound ID>  (1297) 
144183

>  <name>  (1297) 
P71158

>  <inspiration_score>  (1297) 
None

$$$$
P71176
     RDKit          3D

 13 13  0  0  0  0  0  0  0  0999 V2000
    0.1957    6.3975  -18.0582 C   0  0  0  0  0  0  0  0  0  0  0  0
   -0.3092    5.3529  -18.9994 C   0  0  0  0  0  0  0  0  0  0  0  0
   -1.5893    5.0557  -19.2867 C   0  0  0  0  0  0  0  0  0  0  0  0
   -2.8095    5.7295  -18.7074 C   0  0  1  0  0  0  0  0  0  0  0  0
   -3.1040    7.0204  -19.4606 C   0  0  0  0  0  0  0  0  0  0  0  0
   -3.8954    4.7868  -18.8489 N   0  0  0  0  0  0  0  0  0  0  0  0
   -5.1293    4.9367  -18.2549 C   0  0  0  0  0  0  0  0  0  0  0  0
   -6.1107    4.5919  -19.1167 N   0  0  0  0  0  0  0  0  0  0  0  0
   -7.3718    4.5510  -18.6422 C   0  0  0  0  0  0  0  0  0  0  0  0
   -7.6659    4.8686  -17.3382 C   0  0  0  0  0  0  0  0  0  0  0  0
   -6.7220    5.2879  -16.4719 N   0  0  0  0  0  0  0  0  0  0  0  0
   -5.4374    5.2822  -16.9273 C   0  0  0  0  0  0  0  0  0  0  0  0
   -4.4308    5.6462  -15.8839 C   0  0  0  0  0  0  0  0  0  0  0  0
  1  2  1  0
  2  3  2  0
  3  4  1  0
  4  5  1  6
  4  6  1  0
  6  7  1  0
  7  8  2  0
  8  9  1  0
  9 10  2  0
 10 11  1  0
 11 12  2  0
 12 13  1  0
 12  7  1  0
M  END
>  <energy_score>  (1298) 
-26.089471

>  <alias>  (1298) 
None

>  <HIPPO Pose ID>  (1298) 
71176

>  <smiles>  (1298) 
C/C=C\[C@@H](C)Nc1nccnc1C

>  <inchikey>  (1298) 
DGAAUINIJRRUAN-PULIVWKDSA-N

>  <distance_score>  (1298) 
1.095294

>  <ref_mols>  (1298) 
Z0875a,Z0089a

>  <ref_pdb>  (1298) 
Z0089a

>  <HIPPO Compound ID>  (1298) 
144187

>  <name>  (1298) 
P71176

>  <inspiration_score>  (1298) 
None

$$$$
P71177
     RDKit          3D

 13 14  0  0  0  0  0  0  0  0999 V2000
   -4.4212    6.3823  -12.7622 C   0  0  0  0  0  0  0  0  0  0  0  0
   -4.7637    5.4995  -13.9483 C   0  0  0  0  0  0  0  0  0  0  0  0
   -4.7653    6.2723  -15.2348 C   0  0  1  0  0  0  0  0  0  0  0  0
   -3.4970    6.6305  -15.9580 C   0  0  0  0  0  0  0  0  0  0  0  0
   -4.3855    5.5473  -16.5055 C   0  0  2  0  0  0  0  0  0  0  0  0
   -5.1463    5.7142  -17.7684 N   0  0  0  0  0  0  0  0  0  0  0  0
   -6.4341    5.1342  -17.7624 C   0  0  0  0  0  0  0  0  0  0  0  0
   -7.1018    4.7613  -18.9267 C   0  0  0  0  0  0  0  0  0  0  0  0
   -8.3508    4.2193  -18.9428 N   0  0  0  0  0  0  0  0  0  0  0  0
   -8.9343    4.0995  -17.7398 C   0  0  0  0  0  0  0  0  0  0  0  0
   -8.2794    4.4716  -16.5801 C   0  0  0  0  0  0  0  0  0  0  0  0
   -8.8627    4.3269  -15.2417 C   0  0  0  0  0  0  0  0  0  0  0  0
   -7.0489    5.0045  -16.5815 N   0  0  0  0  0  0  0  0  0  0  0  0
  1  2  1  0
  3  2  1  1
  3  4  1  0
  4  5  1  0
  5  6  1  6
  6  7  1  0
  7  8  2  0
  8  9  1  0
  9 10  2  0
 10 11  1  0
 11 12  1  0
 11 13  2  0
  5  3  1  0
 13  7  1  0
M  END
>  <energy_score>  (1299) 
-14.496025

>  <alias>  (1299) 
None

>  <HIPPO Pose ID>  (1299) 
71177

>  <smiles>  (1299) 
CC[C@H]1C[C@@H]1Nc1cncc(C)n1

>  <inchikey>  (1299) 
DHNQWIMVWYWQSY-IUCAKERBSA-N

>  <distance_score>  (1299) 
1.148994

>  <ref_mols>  (1299) 
Z0875a,Z0089a

>  <ref_pdb>  (1299) 
Z0089a

>  <HIPPO Compound ID>  (1299) 
144188

>  <name>  (1299) 
P71177

>  <inspiration_score>  (1299) 
None

$$$$
P71181
     RDKit          3D

 13 13  0  0  0  0  0  0  0  0999 V2000
   -1.4763    4.5126  -19.6117 C   0  0  0  0  0  0  0  0  0  0  0  0
   -2.4393    5.3771  -18.8005 C   0  0  0  0  0  0  0  0  0  0  0  0
   -2.0121    6.8417  -18.8086 C   0  0  0  0  0  0  0  0  0  0  0  0
   -3.7884    5.2410  -19.3377 N   0  0  0  0  0  0  0  0  0  0  0  0
   -3.9109    5.6238  -20.6788 O   0  0  0  0  0  0  0  0  0  0  0  0
   -4.9352    5.1094  -18.5681 C   0  0  0  0  0  0  0  0  0  0  0  0
   -4.9723    5.2254  -17.1746 C   0  0  0  0  0  0  0  0  0  0  0  0
   -6.0912    5.0735  -16.4237 N   0  0  0  0  0  0  0  0  0  0  0  0
   -7.2001    4.7489  -17.1316 C   0  0  0  0  0  0  0  0  0  0  0  0
   -8.4080    4.4879  -16.3425 C   0  0  0  0  0  0  0  0  0  0  0  0
   -9.4824    4.2253  -16.8665 O   0  0  0  0  0  0  0  0  0  0  0  0
   -7.2074    4.6537  -18.5102 C   0  0  0  0  0  0  0  0  0  0  0  0
   -6.0815    4.8492  -19.2432 N   0  0  0  0  0  0  0  0  0  0  0  0
  1  2  1  0
  2  3  1  0
  2  4  1  0
  4  5  1  0
  4  6  1  0
  6  7  2  0
  7  8  1  0
  8  9  2  0
  9 10  1  0
 10 11  2  0
  9 12  1  0
 12 13  2  0
 13  6  1  0
M  END
>  <energy_score>  (1300) 
-41.705792

>  <alias>  (1300) 
None

>  <HIPPO Pose ID>  (1300) 
71181

>  <smiles>  (1300) 
CC(C)N(O)c1cnc(C=O)cn1

>  <inchikey>  (1300) 
OZGCKRACIFBNEI-UHFFFAOYSA-N

>  <distance_score>  (1300) 
0.724151

>  <ref_mols>  (1300) 
Z0875a,Z0089a

>  <ref_pdb>  (1300) 
Z0089a

>  <HIPPO Compound ID>  (1300) 
144189

>  <name>  (1300) 
P71181

>  <inspiration_score>  (1300) 
None

$$$$
P71182
     RDKit          3D

 13 13  0  0  0  0  0  0  0  0999 V2000
   -2.1306    4.5289  -19.5487 C   0  0  0  0  0  0  0  0  0  0  0  0
   -2.8800    5.8639  -19.4794 C   0  0  0  0  0  0  0  0  0  0  0  0
   -2.3364    6.7040  -18.3212 C   0  0  0  0  0  0  0  0  0  0  0  0
   -2.6113    6.6979  -20.7525 C   0  0  0  0  0  0  0  0  0  0  0  0
   -4.3233    5.6262  -19.4415 N   0  0  0  0  0  0  0  0  0  0  0  0
   -5.1827    5.2704  -18.4404 C   0  0  0  0  0  0  0  0  0  0  0  0
   -4.9425    5.3668  -17.0698 C   0  0  0  0  0  0  0  0  0  0  0  0
   -5.8625    5.1045  -16.1083 N   0  0  0  0  0  0  0  0  0  0  0  0
   -7.0618    4.7011  -16.5711 C   0  0  0  0  0  0  0  0  0  0  0  0
   -7.3311    4.5852  -17.9225 C   0  0  0  0  0  0  0  0  0  0  0  0
   -8.6524    4.2006  -18.3110 C   0  0  0  0  0  0  0  0  0  0  0  0
   -9.7685    3.8980  -18.4188 N   0  0  0  0  0  0  0  0  0  0  0  0
   -6.4004    4.8671  -18.8721 N   0  0  0  0  0  0  0  0  0  0  0  0
  1  2  1  0
  2  3  1  0
  2  4  1  0
  2  5  1  0
  5  6  1  0
  6  7  2  0
  7  8  1  0
  8  9  2  0
  9 10  1  0
 10 11  1  0
 11 12  3  0
 10 13  2  0
 13  6  1  0
M  END
>  <energy_score>  (1301) 
-25.86174

>  <alias>  (1301) 
None

>  <HIPPO Pose ID>  (1301) 
71182

>  <smiles>  (1301) 
CC(C)(C)Nc1cncc(C#N)n1

>  <inchikey>  (1301) 
LCKVWGXILMHHKR-UHFFFAOYSA-N

>  <distance_score>  (1301) 
0.790901

>  <ref_mols>  (1301) 
Z0875a,Z0089a

>  <ref_pdb>  (1301) 
Z0089a

>  <HIPPO Compound ID>  (1301) 
144190

>  <name>  (1301) 
P71182

>  <inspiration_score>  (1301) 
None

$$$$
P71184
     RDKit          3D

 13 13  0  0  0  0  0  0  0  0999 V2000
   -2.0728    4.2128  -19.3328 C   0  0  0  0  0  0  0  0  0  0  0  0
   -2.4048    5.6578  -18.9486 C   0  0  0  0  0  0  0  0  0  0  0  0
   -1.5633    6.6091  -19.8143 C   0  0  0  0  0  0  0  0  0  0  0  0
   -2.0172    5.9057  -17.4869 C   0  0  0  0  0  0  0  0  0  0  0  0
   -3.8032    5.9685  -19.2821 N   0  0  0  0  0  0  0  0  0  0  0  0
   -4.8706    5.5608  -18.5092 C   0  0  0  0  0  0  0  0  0  0  0  0
   -5.1214    5.9776  -17.2066 C   0  0  0  0  0  0  0  0  0  0  0  0
   -6.2375    5.6529  -16.5143 N   0  0  0  0  0  0  0  0  0  0  0  0
   -7.1398    4.8869  -17.1790 C   0  0  0  0  0  0  0  0  0  0  0  0
   -8.3380    4.4688  -16.3916 C   0  0  0  0  0  0  0  0  0  0  0  0
   -9.8910    4.1294  -17.4949 Br  0  0  0  0  0  0  0  0  0  0  0  0
   -6.8891    4.4799  -18.4851 C   0  0  0  0  0  0  0  0  0  0  0  0
   -5.7614    4.8029  -19.1598 N   0  0  0  0  0  0  0  0  0  0  0  0
  1  2  1  0
  2  3  1  0
  2  4  1  0
  2  5  1  0
  5  6  1  0
  6  7  2  0
  7  8  1  0
  8  9  2  0
  9 10  1  0
 10 11  1  0
  9 12  1  0
 12 13  2  0
 13  6  1  0
M  END
>  <energy_score>  (1302) 
-27.672157

>  <alias>  (1302) 
None

>  <HIPPO Pose ID>  (1302) 
71184

>  <smiles>  (1302) 
CC(C)(C)Nc1cnc(CBr)cn1

>  <inchikey>  (1302) 
KPRACCGOVAVDRQ-UHFFFAOYSA-N

>  <distance_score>  (1302) 
0.97739

>  <ref_mols>  (1302) 
Z0875a,Z0089a

>  <ref_pdb>  (1302) 
Z0089a

>  <HIPPO Compound ID>  (1302) 
144192

>  <name>  (1302) 
P71184

>  <inspiration_score>  (1302) 
None

$$$$
P71185
     RDKit          3D

 13 13  0  0  0  0  0  0  0  0999 V2000
   -8.3770    4.6596  -15.9531 C   0  0  0  0  0  0  0  0  0  0  0  0
   -7.2362    4.8549  -16.9005 C   0  0  0  0  0  0  0  0  0  0  0  0
   -6.0614    5.2321  -16.3434 N   0  0  0  0  0  0  0  0  0  0  0  0
   -5.0149    5.3408  -17.1971 C   0  0  0  0  0  0  0  0  0  0  0  0
   -5.0981    5.1533  -18.5717 C   0  0  0  0  0  0  0  0  0  0  0  0
   -4.0861    5.3156  -19.4827 N   0  0  0  0  0  0  0  0  0  0  0  0
   -2.7126    5.7721  -19.2981 C   0  0  0  0  0  0  0  0  0  0  0  0
   -1.9096    4.7188  -18.5381 C   0  0  0  0  0  0  0  0  0  0  0  0
   -2.6496    7.1493  -18.6288 C   0  0  0  0  0  0  0  0  0  0  0  0
   -2.0370    5.9341  -20.6712 C   0  0  0  0  0  0  0  0  0  0  0  0
   -6.2757    4.7759  -19.1037 N   0  0  0  0  0  0  0  0  0  0  0  0
   -7.3409    4.6054  -18.2687 C   0  0  0  0  0  0  0  0  0  0  0  0
   -8.6308    4.1649  -18.8948 C   0  0  0  0  0  0  0  0  0  0  0  0
  1  2  1  0
  2  3  2  0
  3  4  1  0
  4  5  2  0
  5  6  1  0
  6  7  1  0
  7  8  1  0
  7  9  1  0
  7 10  1  0
  5 11  1  0
 11 12  2  0
 12 13  1  0
 12  2  1  0
M  END
>  <energy_score>  (1303) 
-30.701876

>  <alias>  (1303) 
None

>  <HIPPO Pose ID>  (1303) 
71185

>  <smiles>  (1303) 
Cc1ncc(NC(C)(C)C)nc1C

>  <inchikey>  (1303) 
WAINSMPIPQKMTH-UHFFFAOYSA-N

>  <distance_score>  (1303) 
0.830544

>  <ref_mols>  (1303) 
Z0875a,Z0089a

>  <ref_pdb>  (1303) 
Z0089a

>  <HIPPO Compound ID>  (1303) 
144193

>  <name>  (1303) 
P71185

>  <inspiration_score>  (1303) 
None

$$$$
P71186
     RDKit          3D

 13 13  0  0  0  0  0  0  0  0999 V2000
   -9.6792    3.9305  -17.8435 C   0  0  0  0  0  0  0  0  0  0  0  0
   -8.5225    4.1104  -18.6458 O   0  0  0  0  0  0  0  0  0  0  0  0
   -7.4272    4.6348  -18.0182 C   0  0  0  0  0  0  0  0  0  0  0  0
   -7.4209    5.1406  -16.7270 C   0  0  0  0  0  0  0  0  0  0  0  0
   -6.3217    5.6597  -16.1415 N   0  0  0  0  0  0  0  0  0  0  0  0
   -5.2030    5.5980  -16.9004 C   0  0  0  0  0  0  0  0  0  0  0  0
   -5.1578    5.0914  -18.1950 C   0  0  0  0  0  0  0  0  0  0  0  0
   -4.0515    4.9462  -18.9801 N   0  0  0  0  0  0  0  0  0  0  0  0
   -2.6707    5.4087  -18.8897 C   0  0  0  0  0  0  0  0  0  0  0  0
   -1.8029    4.3646  -19.6160 C   0  0  0  0  0  0  0  0  0  0  0  0
   -2.5550    6.7588  -19.6029 C   0  0  0  0  0  0  0  0  0  0  0  0
   -2.1134    5.5347  -17.4686 C   0  0  0  0  0  0  0  0  0  0  0  0
   -6.2935    4.6260  -18.7611 N   0  0  0  0  0  0  0  0  0  0  0  0
  1  2  1  0
  2  3  1  0
  3  4  2  0
  4  5  1  0
  5  6  2  0
  6  7  1  0
  7  8  1  0
  8  9  1  0
  9 10  1  0
  9 11  1  0
  9 12  1  0
  7 13  2  0
 13  3  1  0
M  END
>  <energy_score>  (1304) 
-21.632275

>  <alias>  (1304) 
None

>  <HIPPO Pose ID>  (1304) 
71186

>  <smiles>  (1304) 
COc1cncc(NC(C)(C)C)n1

>  <inchikey>  (1304) 
POZBDJVZMQEEFL-UHFFFAOYSA-N

>  <distance_score>  (1304) 
0.781797

>  <ref_mols>  (1304) 
Z0875a,Z0089a

>  <ref_pdb>  (1304) 
Z0089a

>  <HIPPO Compound ID>  (1304) 
144194

>  <name>  (1304) 
P71186

>  <inspiration_score>  (1304) 
None

$$$$
P71189
     RDKit          3D

 13 13  0  0  0  0  0  0  0  0999 V2000
   -2.3497    4.2832  -19.2291 C   0  0  0  0  0  0  0  0  0  0  0  0
   -2.5702    5.6863  -18.6623 C   0  0  0  0  0  0  0  0  0  0  0  0
   -1.7485    6.6822  -19.5047 C   0  0  0  0  0  0  0  0  0  0  0  0
   -2.0447    5.7562  -17.2306 C   0  0  0  0  0  0  0  0  0  0  0  0
   -3.9745    6.1193  -18.8148 N   0  0  0  0  0  0  0  0  0  0  0  0
   -5.0635    5.5182  -18.2083 C   0  0  0  0  0  0  0  0  0  0  0  0
   -5.8770    4.9437  -19.1248 N   0  0  0  0  0  0  0  0  0  0  0  0
   -7.0758    4.4851  -18.6981 C   0  0  0  0  0  0  0  0  0  0  0  0
   -7.4633    4.5691  -17.3794 C   0  0  0  0  0  0  0  0  0  0  0  0
   -6.6788    5.1336  -16.4383 N   0  0  0  0  0  0  0  0  0  0  0  0
   -5.4727    5.6065  -16.8680 C   0  0  0  0  0  0  0  0  0  0  0  0
   -4.7766    6.3413  -15.8501 C   0  0  0  0  0  0  0  0  0  0  0  0
   -4.2314    6.9396  -15.0127 N   0  0  0  0  0  0  0  0  0  0  0  0
  1  2  1  0
  2  3  1  0
  2  4  1  0
  2  5  1  0
  5  6  1  0
  6  7  2  0
  7  8  1  0
  8  9  2  0
  9 10  1  0
 10 11  2  0
 11 12  1  0
 12 13  3  0
 11  6  1  0
M  END
>  <energy_score>  (1305) 
-16.27399

>  <alias>  (1305) 
None

>  <HIPPO Pose ID>  (1305) 
71189

>  <smiles>  (1305) 
CC(C)(C)Nc1nccnc1C#N

>  <inchikey>  (1305) 
ZMYRODCSTWQNQU-UHFFFAOYSA-N

>  <distance_score>  (1305) 
0.927466

>  <ref_mols>  (1305) 
Z0875a,Z0089a

>  <ref_pdb>  (1305) 
Z0089a

>  <HIPPO Compound ID>  (1305) 
144197

>  <name>  (1305) 
P71189

>  <inspiration_score>  (1305) 
None

$$$$
P71190
     RDKit          3D

 13 13  0  0  0  0  0  0  0  0999 V2000
   -2.1278    4.1944  -19.3457 C   0  0  0  0  0  0  0  0  0  0  0  0
   -2.6096    5.5861  -18.9246 C   0  0  0  0  0  0  0  0  0  0  0  0
   -1.9039    6.6388  -19.7966 C   0  0  0  0  0  0  0  0  0  0  0  0
   -2.1907    5.8398  -17.4741 C   0  0  0  0  0  0  0  0  0  0  0  0
   -4.0433    5.7310  -19.2129 N   0  0  0  0  0  0  0  0  0  0  0  0
   -5.0998    5.3986  -18.3953 C   0  0  0  0  0  0  0  0  0  0  0  0
   -5.2647    5.8001  -17.0732 C   0  0  0  0  0  0  0  0  0  0  0  0
   -6.3709    5.5512  -16.3299 N   0  0  0  0  0  0  0  0  0  0  0  0
   -7.3601    4.8739  -16.9645 C   0  0  0  0  0  0  0  0  0  0  0  0
   -8.5803    4.5378  -16.1537 C   0  0  0  0  0  0  0  0  0  0  0  0
   -9.7609    4.4671  -16.9451 O   0  0  0  0  0  0  0  0  0  0  0  0
   -7.2168    4.4894  -18.2904 C   0  0  0  0  0  0  0  0  0  0  0  0
   -6.0938    4.7397  -19.0154 N   0  0  0  0  0  0  0  0  0  0  0  0
  1  2  1  0
  2  3  1  0
  2  4  1  0
  2  5  1  0
  5  6  1  0
  6  7  2  0
  7  8  1  0
  8  9  2  0
  9 10  1  0
 10 11  1  0
  9 12  1  0
 12 13  2  0
 13  6  1  0
M  END
>  <energy_score>  (1306) 
-36.181258

>  <alias>  (1306) 
None

>  <HIPPO Pose ID>  (1306) 
71190

>  <smiles>  (1306) 
CC(C)(C)Nc1cnc(CO)cn1

>  <inchikey>  (1306) 
IUTJNVFDYUEAJV-UHFFFAOYSA-N

>  <distance_score>  (1306) 
0.927471

>  <ref_mols>  (1306) 
Z0875a,Z0089a

>  <ref_pdb>  (1306) 
Z0089a

>  <HIPPO Compound ID>  (1306) 
144198

>  <name>  (1306) 
P71190

>  <inspiration_score>  (1306) 
None

$$$$
P71192
     RDKit          3D

 13 13  0  0  0  0  0  0  0  0999 V2000
   -4.8251    6.5353  -14.8223 C   0  0  0  0  0  0  0  0  0  0  0  0
   -4.4148    6.1287  -16.1184 O   0  0  0  0  0  0  0  0  0  0  0  0
   -5.3899    5.5626  -16.9030 C   0  0  0  0  0  0  0  0  0  0  0  0
   -6.6421    5.4989  -16.3772 N   0  0  0  0  0  0  0  0  0  0  0  0
   -7.5819    4.9383  -17.1677 C   0  0  0  0  0  0  0  0  0  0  0  0
   -7.3180    4.5372  -18.4570 C   0  0  0  0  0  0  0  0  0  0  0  0
   -6.0805    4.6158  -18.9847 N   0  0  0  0  0  0  0  0  0  0  0  0
   -5.0873    5.1018  -18.1999 C   0  0  0  0  0  0  0  0  0  0  0  0
   -3.9005    4.9818  -18.8518 N   0  0  0  0  0  0  0  0  0  0  0  0
   -2.5632    5.5341  -18.7198 C   0  0  0  0  0  0  0  0  0  0  0  0
   -1.6522    4.6434  -19.5929 C   0  0  0  0  0  0  0  0  0  0  0  0
   -2.5484    6.9617  -19.2711 C   0  0  0  0  0  0  0  0  0  0  0  0
   -1.9868    5.5057  -17.3041 C   0  0  0  0  0  0  0  0  0  0  0  0
  1  2  1  0
  2  3  1  0
  3  4  2  0
  4  5  1  0
  5  6  2  0
  6  7  1  0
  7  8  2  0
  8  9  1  0
  9 10  1  0
 10 11  1  0
 10 12  1  0
 10 13  1  0
  8  3  1  0
M  END
>  <energy_score>  (1307) 
-20.205994

>  <alias>  (1307) 
None

>  <HIPPO Pose ID>  (1307) 
71192

>  <smiles>  (1307) 
COc1nccnc1NC(C)(C)C

>  <inchikey>  (1307) 
HOTQWYAWUHELDE-UHFFFAOYSA-N

>  <distance_score>  (1307) 
0.892744

>  <ref_mols>  (1307) 
Z0875a,Z0089a

>  <ref_pdb>  (1307) 
Z0089a

>  <HIPPO Compound ID>  (1307) 
144200

>  <name>  (1307) 
P71192

>  <inspiration_score>  (1307) 
None

$$$$
P71193
     RDKit          3D

 13 13  0  0  0  0  0  0  0  0999 V2000
   -4.4002    5.5940  -14.5024 C   0  0  0  0  0  0  0  0  0  0  0  0
   -4.8768    5.4629  -15.5986 C   0  0  0  0  0  0  0  0  0  0  0  0
   -5.5992    5.2533  -16.8187 C   0  0  0  0  0  0  0  0  0  0  0  0
   -6.9371    5.2877  -16.5720 N   0  0  0  0  0  0  0  0  0  0  0  0
   -7.7312    4.8687  -17.5769 C   0  0  0  0  0  0  0  0  0  0  0  0
   -7.2371    4.5448  -18.8172 C   0  0  0  0  0  0  0  0  0  0  0  0
   -5.9164    4.5767  -19.0893 N   0  0  0  0  0  0  0  0  0  0  0  0
   -5.0773    4.8953  -18.0735 C   0  0  0  0  0  0  0  0  0  0  0  0
   -3.7775    4.6427  -18.4560 N   0  0  0  0  0  0  0  0  0  0  0  0
   -2.6927    5.6198  -18.5659 C   0  0  0  0  0  0  0  0  0  0  0  0
   -1.5973    4.9207  -19.4052 C   0  0  0  0  0  0  0  0  0  0  0  0
   -3.1310    6.8852  -19.3053 C   0  0  0  0  0  0  0  0  0  0  0  0
   -2.1002    5.9779  -17.2032 C   0  0  0  0  0  0  0  0  0  0  0  0
  1  2  3  0
  2  3  1  0
  3  4  2  0
  4  5  1  0
  5  6  2  0
  6  7  1  0
  7  8  2  0
  8  9  1  0
  9 10  1  0
 10 11  1  0
 10 12  1  0
 10 13  1  0
  8  3  1  0
M  END
>  <energy_score>  (1308) 
-23.421349

>  <alias>  (1308) 
None

>  <HIPPO Pose ID>  (1308) 
71193

>  <smiles>  (1308) 
C#Cc1nccnc1NC(C)(C)C

>  <inchikey>  (1308) 
MTQOFPKPNIWWJB-UHFFFAOYSA-N

>  <distance_score>  (1308) 
1.046368

>  <ref_mols>  (1308) 
Z0875a,Z0089a

>  <ref_pdb>  (1308) 
Z0089a

>  <HIPPO Compound ID>  (1308) 
144201

>  <name>  (1308) 
P71193

>  <inspiration_score>  (1308) 
None

$$$$
P71195
     RDKit          3D

 13 13  0  0  0  0  0  0  0  0999 V2000
   -8.9833    4.3541  -15.8185 C   0  0  0  0  0  0  0  0  0  0  0  0
   -8.0612    4.6590  -16.5175 C   0  0  0  0  0  0  0  0  0  0  0  0
   -6.9494    4.9752  -17.3342 C   0  0  0  0  0  0  0  0  0  0  0  0
   -6.8623    4.5658  -18.6491 C   0  0  0  0  0  0  0  0  0  0  0  0
   -5.7786    4.8433  -19.4091 N   0  0  0  0  0  0  0  0  0  0  0  0
   -4.8060    5.5755  -18.8373 C   0  0  0  0  0  0  0  0  0  0  0  0
   -3.8073    5.9482  -19.7135 N   0  0  0  0  0  0  0  0  0  0  0  0
   -2.3705    5.7680  -19.4633 C   0  0  0  0  0  0  0  0  0  0  0  0
   -2.0023    4.2830  -19.4302 C   0  0  0  0  0  0  0  0  0  0  0  0
   -1.8809    6.4691  -18.1970 C   0  0  0  0  0  0  0  0  0  0  0  0
   -1.6329    6.4429  -20.6410 C   0  0  0  0  0  0  0  0  0  0  0  0
   -4.9295    5.9930  -17.5128 C   0  0  0  0  0  0  0  0  0  0  0  0
   -5.9899    5.7022  -16.7260 N   0  0  0  0  0  0  0  0  0  0  0  0
  1  2  3  0
  2  3  1  0
  3  4  2  0
  4  5  1  0
  5  6  2  0
  6  7  1  0
  7  8  1  0
  8  9  1  0
  8 10  1  0
  8 11  1  0
  6 12  1  0
 12 13  2  0
 13  3  1  0
M  END
>  <energy_score>  (1309) 
-31.607387

>  <alias>  (1309) 
None

>  <HIPPO Pose ID>  (1309) 
71195

>  <smiles>  (1309) 
C#Cc1cnc(NC(C)(C)C)cn1

>  <inchikey>  (1309) 
SNVMMYMDBGVTGV-UHFFFAOYSA-N

>  <distance_score>  (1309) 
1.034271

>  <ref_mols>  (1309) 
Z0875a,Z0089a

>  <ref_pdb>  (1309) 
Z0089a

>  <HIPPO Compound ID>  (1309) 
144203

>  <name>  (1309) 
P71195

>  <inspiration_score>  (1309) 
None

$$$$
P71198
     RDKit          3D

 13 13  0  0  0  0  0  0  0  0999 V2000
   -9.7408    4.1626  -18.3875 C   0  0  0  0  0  0  0  0  0  0  0  0
   -8.5636    4.3522  -18.2530 C   0  0  0  0  0  0  0  0  0  0  0  0
   -7.2381    4.6732  -17.8376 C   0  0  0  0  0  0  0  0  0  0  0  0
   -7.0209    4.8988  -16.4865 C   0  0  0  0  0  0  0  0  0  0  0  0
   -5.8201    5.2517  -15.9920 N   0  0  0  0  0  0  0  0  0  0  0  0
   -4.8374    5.3135  -16.9203 C   0  0  0  0  0  0  0  0  0  0  0  0
   -5.0155    5.0818  -18.2949 C   0  0  0  0  0  0  0  0  0  0  0  0
   -3.9591    5.1400  -19.2146 N   0  0  0  0  0  0  0  0  0  0  0  0
   -4.2203    5.6476  -20.4916 O   0  0  0  0  0  0  0  0  0  0  0  0
   -2.5616    5.3153  -18.8013 C   0  0  0  0  0  0  0  0  0  0  0  0
   -1.6411    4.5085  -19.7152 C   0  0  0  0  0  0  0  0  0  0  0  0
   -2.1708    6.7920  -18.8013 C   0  0  0  0  0  0  0  0  0  0  0  0
   -6.2579    4.7847  -18.7682 N   0  0  0  0  0  0  0  0  0  0  0  0
  1  2  3  0
  2  3  1  0
  3  4  2  0
  4  5  1  0
  5  6  2  0
  6  7  1  0
  7  8  1  0
  8  9  1  0
  8 10  1  0
 10 11  1  0
 10 12  1  0
  7 13  2  0
 13  3  1  0
M  END
>  <energy_score>  (1310) 
-26.259637

>  <alias>  (1310) 
None

>  <HIPPO Pose ID>  (1310) 
71198

>  <smiles>  (1310) 
C#Cc1cncc(N(O)C(C)C)n1

>  <inchikey>  (1310) 
PBWCCAYKGPOUAK-UHFFFAOYSA-N

>  <distance_score>  (1310) 
1.063696

>  <ref_mols>  (1310) 
Z0875a,Z0089a

>  <ref_pdb>  (1310) 
Z0089a

>  <HIPPO Compound ID>  (1310) 
144206

>  <name>  (1310) 
P71198

>  <inspiration_score>  (1310) 
None

$$$$
P71200
     RDKit          3D

 13 13  0  0  0  0  0  0  0  0999 V2000
   -9.3134    4.0756  -16.7433 C   0  0  0  0  0  0  0  0  0  0  0  0
   -8.0542    4.6917  -16.1656 C   0  0  0  0  0  0  0  0  0  0  0  0
   -6.9295    4.9103  -17.1329 C   0  0  0  0  0  0  0  0  0  0  0  0
   -7.0916    4.9648  -18.5075 C   0  0  0  0  0  0  0  0  0  0  0  0
   -6.0620    5.1926  -19.3574 N   0  0  0  0  0  0  0  0  0  0  0  0
   -4.8252    5.3437  -18.8315 C   0  0  0  0  0  0  0  0  0  0  0  0
   -3.8161    5.6030  -19.7443 N   0  0  0  0  0  0  0  0  0  0  0  0
   -4.1818    6.1588  -20.9810 O   0  0  0  0  0  0  0  0  0  0  0  0
   -2.3786    5.6977  -19.5189 C   0  0  0  0  0  0  0  0  0  0  0  0
   -1.7947    4.3753  -19.0563 C   0  0  0  0  0  0  0  0  0  0  0  0
   -1.9938    6.8907  -18.6570 C   0  0  0  0  0  0  0  0  0  0  0  0
   -4.6781    5.2639  -17.4508 C   0  0  0  0  0  0  0  0  0  0  0  0
   -5.7050    5.0850  -16.5810 N   0  0  0  0  0  0  0  0  0  0  0  0
  1  2  1  0
  2  3  1  0
  3  4  2  0
  4  5  1  0
  5  6  2  0
  6  7  1  0
  7  8  1  0
  7  9  1  0
  9 10  1  0
  9 11  1  0
  6 12  1  0
 12 13  2  0
 13  3  1  0
M  END
>  <energy_score>  (1311) 
-18.338051

>  <alias>  (1311) 
None

>  <HIPPO Pose ID>  (1311) 
71200

>  <smiles>  (1311) 
CCc1cnc(N(O)C(C)C)cn1

>  <inchikey>  (1311) 
GEMLNJKZJVHDNE-UHFFFAOYSA-N

>  <distance_score>  (1311) 
0.798555

>  <ref_mols>  (1311) 
Z0875a,Z0089a

>  <ref_pdb>  (1311) 
Z0089a

>  <HIPPO Compound ID>  (1311) 
144208

>  <name>  (1311) 
P71200

>  <inspiration_score>  (1311) 
None

$$$$
P71201
     RDKit          3D

 13 13  0  0  0  0  0  0  0  0999 V2000
   -2.0181    4.4570  -18.9946 C   0  0  0  0  0  0  0  0  0  0  0  0
   -2.7314    5.7089  -19.4837 C   0  0  0  0  0  0  0  0  0  0  0  0
   -2.3348    6.9740  -18.7346 C   0  0  0  0  0  0  0  0  0  0  0  0
   -4.1851    5.5344  -19.5875 N   0  0  0  0  0  0  0  0  0  0  0  0
   -4.6954    6.2239  -20.7010 O   0  0  0  0  0  0  0  0  0  0  0  0
   -5.0916    5.2098  -18.5841 C   0  0  0  0  0  0  0  0  0  0  0  0
   -4.7911    5.2146  -17.2188 C   0  0  0  0  0  0  0  0  0  0  0  0
   -5.6894    4.9723  -16.2314 N   0  0  0  0  0  0  0  0  0  0  0  0
   -6.9299    4.6599  -16.6596 C   0  0  0  0  0  0  0  0  0  0  0  0
   -7.2632    4.6202  -18.0016 C   0  0  0  0  0  0  0  0  0  0  0  0
   -8.6066    4.2707  -18.3518 C   0  0  0  0  0  0  0  0  0  0  0  0
   -9.7295    3.9842  -18.4334 N   0  0  0  0  0  0  0  0  0  0  0  0
   -6.3627    4.9115  -18.9770 N   0  0  0  0  0  0  0  0  0  0  0  0
  1  2  1  0
  2  3  1  0
  2  4  1  0
  4  5  1  0
  4  6  1  0
  6  7  2  0
  7  8  1  0
  8  9  2  0
  9 10  1  0
 10 11  1  0
 11 12  3  0
 10 13  2  0
 13  6  1  0
M  END
>  <energy_score>  (1312) 
-23.884437

>  <alias>  (1312) 
None

>  <HIPPO Pose ID>  (1312) 
71201

>  <smiles>  (1312) 
CC(C)N(O)c1cncc(C#N)n1

>  <inchikey>  (1312) 
ALMQOUVHZBKWTR-UHFFFAOYSA-N

>  <distance_score>  (1312) 
0.76227

>  <ref_mols>  (1312) 
Z0875a,Z0089a

>  <ref_pdb>  (1312) 
Z0089a

>  <HIPPO Compound ID>  (1312) 
144209

>  <name>  (1312) 
P71201

>  <inspiration_score>  (1312) 
None

$$$$
P71202
     RDKit          3D

 13 13  0  0  0  0  0  0  0  0999 V2000
   -1.7133    4.3048  -19.4523 C   0  0  0  0  0  0  0  0  0  0  0  0
   -2.3426    5.5765  -18.8888 C   0  0  0  0  0  0  0  0  0  0  0  0
   -1.5013    6.8043  -19.2257 C   0  0  0  0  0  0  0  0  0  0  0  0
   -3.6909    5.7894  -19.4169 N   0  0  0  0  0  0  0  0  0  0  0  0
   -3.7666    5.6872  -20.8141 O   0  0  0  0  0  0  0  0  0  0  0  0
   -4.8020    5.4235  -18.6586 C   0  0  0  0  0  0  0  0  0  0  0  0
   -4.9267    5.7075  -17.2993 C   0  0  0  0  0  0  0  0  0  0  0  0
   -6.0396    5.4504  -16.5724 N   0  0  0  0  0  0  0  0  0  0  0  0
   -7.0632    4.8596  -17.2434 C   0  0  0  0  0  0  0  0  0  0  0  0
   -8.2469    4.4982  -16.4054 C   0  0  0  0  0  0  0  0  0  0  0  0
   -9.8441    4.1175  -17.4255 Br  0  0  0  0  0  0  0  0  0  0  0  0
   -6.9416    4.5777  -18.6002 C   0  0  0  0  0  0  0  0  0  0  0  0
   -5.8334    4.8664  -19.3219 N   0  0  0  0  0  0  0  0  0  0  0  0
  1  2  1  0
  2  3  1  0
  2  4  1  0
  4  5  1  0
  4  6  1  0
  6  7  2  0
  7  8  1  0
  8  9  2  0
  9 10  1  0
 10 11  1  0
  9 12  1  0
 12 13  2  0
 13  6  1  0
M  END
>  <energy_score>  (1313) 
-22.061466

>  <alias>  (1313) 
None

>  <HIPPO Pose ID>  (1313) 
71202

>  <smiles>  (1313) 
CC(C)N(O)c1cnc(CBr)cn1

>  <inchikey>  (1313) 
HQRSQUKSVBMSTP-UHFFFAOYSA-N

>  <distance_score>  (1313) 
0.901192

>  <ref_mols>  (1313) 
Z0875a,Z0089a

>  <ref_pdb>  (1313) 
Z0089a

>  <HIPPO Compound ID>  (1313) 
144210

>  <name>  (1313) 
P71202

>  <inspiration_score>  (1313) 
None

$$$$
P71204
     RDKit          3D

 13 13  0  0  0  0  0  0  0  0999 V2000
   -9.5815    4.0711  -17.7789 C   0  0  0  0  0  0  0  0  0  0  0  0
   -8.5398    4.4353  -18.6696 O   0  0  0  0  0  0  0  0  0  0  0  0
   -7.3092    4.6725  -18.1262 C   0  0  0  0  0  0  0  0  0  0  0  0
   -7.0071    4.6384  -16.7742 C   0  0  0  0  0  0  0  0  0  0  0  0
   -5.7707    4.8943  -16.2871 N   0  0  0  0  0  0  0  0  0  0  0  0
   -4.8320    5.1569  -17.2290 C   0  0  0  0  0  0  0  0  0  0  0  0
   -5.0881    5.2212  -18.5970 C   0  0  0  0  0  0  0  0  0  0  0  0
   -4.1511    5.5547  -19.5675 N   0  0  0  0  0  0  0  0  0  0  0  0
   -4.6297    6.2124  -20.7137 O   0  0  0  0  0  0  0  0  0  0  0  0
   -2.7018    5.7150  -19.4337 C   0  0  0  0  0  0  0  0  0  0  0  0
   -2.0100    4.4380  -18.9825 C   0  0  0  0  0  0  0  0  0  0  0  0
   -2.3142    6.9445  -18.6247 C   0  0  0  0  0  0  0  0  0  0  0  0
   -6.3529    4.9798  -19.0352 N   0  0  0  0  0  0  0  0  0  0  0  0
  1  2  1  0
  2  3  1  0
  3  4  2  0
  4  5  1  0
  5  6  2  0
  6  7  1  0
  7  8  1  0
  8  9  1  0
  8 10  1  0
 10 11  1  0
 10 12  1  0
  7 13  2  0
 13  3  1  0
M  END
>  <energy_score>  (1314) 
-14.991753

>  <alias>  (1314) 
None

>  <HIPPO Pose ID>  (1314) 
71204

>  <smiles>  (1314) 
COc1cncc(N(O)C(C)C)n1

>  <inchikey>  (1314) 
SGFLJNQWNNCJPV-UHFFFAOYSA-N

>  <distance_score>  (1314) 
0.732357

>  <ref_mols>  (1314) 
Z0875a,Z0089a

>  <ref_pdb>  (1314) 
Z0089a

>  <HIPPO Compound ID>  (1314) 
144212

>  <name>  (1314) 
P71204

>  <inspiration_score>  (1314) 
None

$$$$
P71205
     RDKit          3D

 13 13  0  0  0  0  0  0  0  0999 V2000
   -9.2944    4.1964  -16.6853 C   0  0  0  0  0  0  0  0  0  0  0  0
   -8.2519    5.0677  -16.2779 O   0  0  0  0  0  0  0  0  0  0  0  0
   -7.1579    5.0585  -17.0858 C   0  0  0  0  0  0  0  0  0  0  0  0
   -7.1667    4.8623  -18.4593 C   0  0  0  0  0  0  0  0  0  0  0  0
   -6.0364    4.8969  -19.2104 N   0  0  0  0  0  0  0  0  0  0  0  0
   -4.8723    5.1253  -18.5587 C   0  0  0  0  0  0  0  0  0  0  0  0
   -3.7248    5.1421  -19.3442 N   0  0  0  0  0  0  0  0  0  0  0  0
   -3.8505    5.5260  -20.6862 O   0  0  0  0  0  0  0  0  0  0  0  0
   -2.3840    5.3512  -18.8056 C   0  0  0  0  0  0  0  0  0  0  0  0
   -1.3864    4.5205  -19.6096 C   0  0  0  0  0  0  0  0  0  0  0  0
   -2.0168    6.8324  -18.8291 C   0  0  0  0  0  0  0  0  0  0  0  0
   -4.8921    5.3340  -17.1794 C   0  0  0  0  0  0  0  0  0  0  0  0
   -6.0158    5.3303  -16.4260 N   0  0  0  0  0  0  0  0  0  0  0  0
  1  2  1  0
  2  3  1  0
  3  4  2  0
  4  5  1  0
  5  6  2  0
  6  7  1  0
  7  8  1  0
  7  9  1  0
  9 10  1  0
  9 11  1  0
  6 12  1  0
 12 13  2  0
 13  3  1  0
M  END
>  <energy_score>  (1315) 
-25.77377

>  <alias>  (1315) 
None

>  <HIPPO Pose ID>  (1315) 
71205

>  <smiles>  (1315) 
COc1cnc(N(O)C(C)C)cn1

>  <inchikey>  (1315) 
CGVVRWKVCSTFIK-UHFFFAOYSA-N

>  <distance_score>  (1315) 
0.75803

>  <ref_mols>  (1315) 
Z0875a,Z0089a

>  <ref_pdb>  (1315) 
Z0089a

>  <HIPPO Compound ID>  (1315) 
144213

>  <name>  (1315) 
P71205

>  <inspiration_score>  (1315) 
None

$$$$
P71207
     RDKit          3D

 13 13  0  0  0  0  0  0  0  0999 V2000
   -8.7110    4.1474  -18.9430 C   0  0  0  0  0  0  0  0  0  0  0  0
   -7.4775    4.5922  -18.2229 C   0  0  0  0  0  0  0  0  0  0  0  0
   -7.5463    4.9420  -16.8857 C   0  0  0  0  0  0  0  0  0  0  0  0
   -6.4700    5.3521  -16.1873 N   0  0  0  0  0  0  0  0  0  0  0  0
   -5.3028    5.3331  -16.8784 C   0  0  0  0  0  0  0  0  0  0  0  0
   -5.1916    5.0024  -18.2244 C   0  0  0  0  0  0  0  0  0  0  0  0
   -4.0553    4.9054  -18.9732 N   0  0  0  0  0  0  0  0  0  0  0  0
   -2.7142    5.5061  -18.8895 C   0  0  0  0  0  0  0  0  0  0  0  0
   -1.7807    4.4874  -19.5790 C   0  0  0  0  0  0  0  0  0  0  0  0
   -2.7439    6.8082  -19.7040 C   0  0  0  0  0  0  0  0  0  0  0  0
   -2.2346    5.7790  -17.4539 C   0  0  0  0  0  0  0  0  0  0  0  0
   -0.3949    6.4293  -17.3029 Br  0  0  0  0  0  0  0  0  0  0  0  0
   -6.3016    4.6433  -18.9030 N   0  0  0  0  0  0  0  0  0  0  0  0
  1  2  1  0
  2  3  2  0
  3  4  1  0
  4  5  2  0
  5  6  1  0
  6  7  1  0
  7  8  1  0
  8  9  1  0
  8 10  1  0
  8 11  1  0
 11 12  1  0
  6 13  2  0
 13  2  1  0
M  END
>  <energy_score>  (1316) 
-32.312473

>  <alias>  (1316) 
None

>  <HIPPO Pose ID>  (1316) 
71207

>  <smiles>  (1316) 
Cc1cncc(NC(C)(C)CBr)n1

>  <inchikey>  (1316) 
RSTOHNMSZDXCQX-UHFFFAOYSA-N

>  <distance_score>  (1316) 
0.798418

>  <ref_mols>  (1316) 
Z0875a,Z0089a

>  <ref_pdb>  (1316) 
Z0089a

>  <HIPPO Compound ID>  (1316) 
144215

>  <name>  (1316) 
P71207

>  <inspiration_score>  (1316) 
None

$$$$
P71209
     RDKit          3D

 13 13  0  0  0  0  0  0  0  0999 V2000
   -1.7832    4.4913  -19.5586 C   0  0  0  0  0  0  0  0  0  0  0  0
   -2.7367    5.5116  -18.9015 C   0  0  0  0  0  0  0  0  0  0  0  0
   -2.7082    6.8274  -19.6971 C   0  0  0  0  0  0  0  0  0  0  0  0
   -2.3226    5.7561  -17.4408 C   0  0  0  0  0  0  0  0  0  0  0  0
   -0.5207    6.4799  -17.1995 Br  0  0  0  0  0  0  0  0  0  0  0  0
   -4.0854    4.9374  -19.0700 N   0  0  0  0  0  0  0  0  0  0  0  0
   -5.2224    4.9694  -18.3112 C   0  0  0  0  0  0  0  0  0  0  0  0
   -5.3097    5.0368  -16.9196 C   0  0  0  0  0  0  0  0  0  0  0  0
   -6.4726    4.9921  -16.2206 N   0  0  0  0  0  0  0  0  0  0  0  0
   -7.5711    4.7832  -16.9722 C   0  0  0  0  0  0  0  0  0  0  0  0
   -7.5009    4.7151  -18.3463 C   0  0  0  0  0  0  0  0  0  0  0  0
   -8.6295    4.5831  -19.0898 O   0  0  0  0  0  0  0  0  0  0  0  0
   -6.3525    4.8330  -19.0392 N   0  0  0  0  0  0  0  0  0  0  0  0
  1  2  1  0
  2  3  1  0
  2  4  1  0
  4  5  1  0
  2  6  1  0
  6  7  1  0
  7  8  2  0
  8  9  1  0
  9 10  2  0
 10 11  1  0
 11 12  1  0
 11 13  2  0
 13  7  1  0
M  END
>  <energy_score>  (1317) 
-40.38948

>  <alias>  (1317) 
None

>  <HIPPO Pose ID>  (1317) 
71209

>  <smiles>  (1317) 
CC(C)(CBr)Nc1cncc(O)n1

>  <inchikey>  (1317) 
BNBCPQRRJJPZCI-UHFFFAOYSA-N

>  <distance_score>  (1317) 
0.767244

>  <ref_mols>  (1317) 
Z0875a,Z0089a

>  <ref_pdb>  (1317) 
Z0089a

>  <HIPPO Compound ID>  (1317) 
144217

>  <name>  (1317) 
P71209

>  <inspiration_score>  (1317) 
None

$$$$
P71211
     RDKit          3D

 13 13  0  0  0  0  0  0  0  0999 V2000
   -8.4142    4.5803  -16.2064 C   0  0  0  0  0  0  0  0  0  0  0  0
   -7.2329    4.9029  -17.0604 C   0  0  0  0  0  0  0  0  0  0  0  0
   -7.1638    4.5028  -18.3853 C   0  0  0  0  0  0  0  0  0  0  0  0
   -6.0911    4.7604  -19.1720 N   0  0  0  0  0  0  0  0  0  0  0  0
   -5.0747    5.4487  -18.6240 C   0  0  0  0  0  0  0  0  0  0  0  0
   -4.1124    5.7978  -19.5369 N   0  0  0  0  0  0  0  0  0  0  0  0
   -2.6431    5.8345  -19.4012 C   0  0  0  0  0  0  0  0  0  0  0  0
   -2.1025    4.3980  -19.4582 C   0  0  0  0  0  0  0  0  0  0  0  0
   -2.1737    6.5114  -18.1125 C   0  0  0  0  0  0  0  0  0  0  0  0
   -2.1588    6.6959  -20.6002 C   0  0  0  0  0  0  0  0  0  0  0  0
   -0.2338    6.7475  -20.8744 Br  0  0  0  0  0  0  0  0  0  0  0  0
   -5.1541    5.8393  -17.2916 C   0  0  0  0  0  0  0  0  0  0  0  0
   -6.2139    5.5804  -16.4840 N   0  0  0  0  0  0  0  0  0  0  0  0
  1  2  1  0
  2  3  2  0
  3  4  1  0
  4  5  2  0
  5  6  1  0
  6  7  1  0
  7  8  1  0
  7  9  1  0
  7 10  1  0
 10 11  1  0
  5 12  1  0
 12 13  2  0
 13  2  1  0
M  END
>  <energy_score>  (1318) 
-30.163793

>  <alias>  (1318) 
None

>  <HIPPO Pose ID>  (1318) 
71211

>  <smiles>  (1318) 
Cc1cnc(NC(C)(C)CBr)cn1

>  <inchikey>  (1318) 
GQJJVFONMVNBQE-UHFFFAOYSA-N

>  <distance_score>  (1318) 
0.817944

>  <ref_mols>  (1318) 
Z0875a,Z0089a

>  <ref_pdb>  (1318) 
Z0089a

>  <HIPPO Compound ID>  (1318) 
144219

>  <name>  (1318) 
P71211

>  <inspiration_score>  (1318) 
None

$$$$
P71212
     RDKit          3D

 13 13  0  0  0  0  0  0  0  0999 V2000
   -1.7260    4.7202  -18.6073 C   0  0  0  0  0  0  0  0  0  0  0  0
   -2.5691    5.7612  -19.3481 C   0  0  0  0  0  0  0  0  0  0  0  0
   -2.6277    7.0815  -18.5696 C   0  0  0  0  0  0  0  0  0  0  0  0
   -1.8106    6.0110  -20.6737 C   0  0  0  0  0  0  0  0  0  0  0  0
   -2.8125    7.0901  -21.9495 Br  0  0  0  0  0  0  0  0  0  0  0  0
   -3.8974    5.1904  -19.5898 N   0  0  0  0  0  0  0  0  0  0  0  0
   -4.9525    5.0831  -18.7152 C   0  0  0  0  0  0  0  0  0  0  0  0
   -4.9032    5.0667  -17.3193 C   0  0  0  0  0  0  0  0  0  0  0  0
   -5.9932    4.9836  -16.5105 N   0  0  0  0  0  0  0  0  0  0  0  0
   -7.1523    4.8586  -17.1718 C   0  0  0  0  0  0  0  0  0  0  0  0
   -8.2409    4.7681  -16.3736 O   0  0  0  0  0  0  0  0  0  0  0  0
   -7.2416    4.8349  -18.5452 C   0  0  0  0  0  0  0  0  0  0  0  0
   -6.1421    4.9556  -19.3280 N   0  0  0  0  0  0  0  0  0  0  0  0
  1  2  1  0
  2  3  1  0
  2  4  1  0
  4  5  1  0
  2  6  1  0
  6  7  1  0
  7  8  2  0
  8  9  1  0
  9 10  2  0
 10 11  1  0
 10 12  1  0
 12 13  2  0
 13  7  1  0
M  END
>  <energy_score>  (1319) 
-50.055277

>  <alias>  (1319) 
None

>  <HIPPO Pose ID>  (1319) 
71212

>  <smiles>  (1319) 
CC(C)(CBr)Nc1cnc(O)cn1

>  <inchikey>  (1319) 
FABOGONPKVBONQ-UHFFFAOYSA-N

>  <distance_score>  (1319) 
0.790573

>  <ref_mols>  (1319) 
Z0875a,Z0089a

>  <ref_pdb>  (1319) 
Z0089a

>  <HIPPO Compound ID>  (1319) 
144220

>  <name>  (1319) 
P71212

>  <inspiration_score>  (1319) 
None

$$$$
P71213
     RDKit          3D

 13 13  0  0  0  0  0  0  0  0999 V2000
   -2.4056    3.9368  -18.5381 C   0  0  0  0  0  0  0  0  0  0  0  0
   -2.1948    4.7917  -19.7556 C   0  0  0  0  0  0  0  0  0  0  0  0
   -2.9955    6.0894  -19.7566 C   0  0  2  0  0  0  0  0  0  0  0  0
   -2.5162    7.0956  -18.7231 C   0  0  0  0  0  0  0  0  0  0  0  0
   -4.4316    5.8687  -19.7858 N   0  0  0  0  0  0  0  0  0  0  0  0
   -5.3097    5.5129  -18.7998 C   0  0  0  0  0  0  0  0  0  0  0  0
   -5.2781    5.8863  -17.4605 C   0  0  0  0  0  0  0  0  0  0  0  0
   -6.2597    5.5994  -16.5632 N   0  0  0  0  0  0  0  0  0  0  0  0
   -7.3192    4.9059  -17.0555 C   0  0  0  0  0  0  0  0  0  0  0  0
   -8.4532    4.5985  -16.1133 C   0  0  0  0  0  0  0  0  0  0  0  0
   -9.6729    4.3425  -16.8047 O   0  0  0  0  0  0  0  0  0  0  0  0
   -7.3424    4.5040  -18.3815 C   0  0  0  0  0  0  0  0  0  0  0  0
   -6.3418    4.7827  -19.2519 N   0  0  0  0  0  0  0  0  0  0  0  0
  1  2  1  0
  2  3  1  0
  3  4  1  1
  3  5  1  0
  5  6  1  0
  6  7  2  0
  7  8  1  0
  8  9  2  0
  9 10  1  0
 10 11  1  0
  9 12  1  0
 12 13  2  0
 13  6  1  0
M  END
>  <energy_score>  (1320) 
-23.478849

>  <alias>  (1320) 
None

>  <HIPPO Pose ID>  (1320) 
71213

>  <smiles>  (1320) 
CC[C@H](C)Nc1cnc(CO)cn1

>  <inchikey>  (1320) 
CHFALLWYRPRWKI-ZETCQYMHSA-N

>  <distance_score>  (1320) 
0.911674

>  <ref_mols>  (1320) 
Z0875a,Z0089a

>  <ref_pdb>  (1320) 
Z0089a

>  <HIPPO Compound ID>  (1320) 
144221

>  <name>  (1320) 
P71213

>  <inspiration_score>  (1320) 
None

$$$$
P71216
     RDKit          3D

 13 13  0  0  0  0  0  0  0  0999 V2000
   -1.7476    3.6063  -19.5579 C   0  0  0  0  0  0  0  0  0  0  0  0
   -1.6913    5.1085  -19.3854 C   0  0  0  0  0  0  0  0  0  0  0  0
   -2.8114    5.6684  -18.4933 C   0  0  1  0  0  0  0  0  0  0  0  0
   -2.7437    7.1914  -18.5144 C   0  0  0  0  0  0  0  0  0  0  0  0
   -4.0951    5.2277  -18.9755 N   0  0  0  0  0  0  0  0  0  0  0  0
   -5.2716    5.1075  -18.2909 C   0  0  0  0  0  0  0  0  0  0  0  0
   -6.2681    4.7328  -19.1245 N   0  0  0  0  0  0  0  0  0  0  0  0
   -7.4895    4.5338  -18.5900 C   0  0  0  0  0  0  0  0  0  0  0  0
   -7.7344    4.7113  -17.2471 C   0  0  0  0  0  0  0  0  0  0  0  0
   -6.7790    5.1188  -16.3860 N   0  0  0  0  0  0  0  0  0  0  0  0
   -5.5379    5.2875  -16.9130 C   0  0  0  0  0  0  0  0  0  0  0  0
   -4.5473    5.6998  -16.0403 O   0  0  0  0  0  0  0  0  0  0  0  0
   -4.9143    5.5650  -14.6644 C   0  0  0  0  0  0  0  0  0  0  0  0
  1  2  1  0
  2  3  1  0
  3  4  1  6
  3  5  1  0
  5  6  1  0
  6  7  2  0
  7  8  1  0
  8  9  2  0
  9 10  1  0
 10 11  2  0
 11 12  1  0
 12 13  1  0
 11  6  1  0
M  END
>  <energy_score>  (1321) 
-753.185674

>  <alias>  (1321) 
None

>  <HIPPO Pose ID>  (1321) 
71216

>  <smiles>  (1321) 
CC[C@@H](C)Nc1nccnc1OC

>  <inchikey>  (1321) 
OFNYSVVLZGKETD-SSDOTTSWSA-N

>  <distance_score>  (1321) 
0.953415

>  <ref_mols>  (1321) 
Z0875a,Z0089a

>  <ref_pdb>  (1321) 
Z0089a

>  <HIPPO Compound ID>  (1321) 
144222

>  <name>  (1321) 
P71216

>  <inspiration_score>  (1321) 
None

$$$$
P71218
     RDKit          3D

 13 13  0  0  0  0  0  0  0  0999 V2000
   -3.9100    6.8034  -15.2580 C   0  0  0  0  0  0  0  0  0  0  0  0
   -4.6059    6.2363  -16.0581 C   0  0  0  0  0  0  0  0  0  0  0  0
   -5.4749    5.5602  -16.9793 C   0  0  0  0  0  0  0  0  0  0  0  0
   -6.6650    5.2561  -16.3978 N   0  0  0  0  0  0  0  0  0  0  0  0
   -7.5818    4.6865  -17.2084 C   0  0  0  0  0  0  0  0  0  0  0  0
   -7.3383    4.4506  -18.5446 C   0  0  0  0  0  0  0  0  0  0  0  0
   -6.1528    4.7440  -19.1209 N   0  0  0  0  0  0  0  0  0  0  0  0
   -5.2054    5.3106  -18.3404 C   0  0  0  0  0  0  0  0  0  0  0  0
   -4.0968    5.6641  -19.0823 N   0  0  0  0  0  0  0  0  0  0  0  0
   -2.7328    5.4742  -18.6158 C   0  0  1  0  0  0  0  0  0  0  0  0
   -2.0889    4.2692  -19.2974 C   0  0  0  0  0  0  0  0  0  0  0  0
   -1.9487    6.7716  -18.8832 C   0  0  0  0  0  0  0  0  0  0  0  0
   -1.7803    7.1316  -20.3553 C   0  0  0  0  0  0  0  0  0  0  0  0
  1  2  3  0
  2  3  1  0
  3  4  2  0
  4  5  1  0
  5  6  2  0
  6  7  1  0
  7  8  2  0
  8  9  1  0
  9 10  1  0
 10 11  1  6
 10 12  1  0
 12 13  1  0
  8  3  1  0
M  END
>  <energy_score>  (1322) 
-16.978628

>  <alias>  (1322) 
None

>  <HIPPO Pose ID>  (1322) 
71218

>  <smiles>  (1322) 
C#Cc1nccnc1N[C@@H](C)CC

>  <inchikey>  (1322) 
CYCPIAOGZGGQPQ-QMMMGPOBSA-N

>  <distance_score>  (1322) 
0.833642

>  <ref_mols>  (1322) 
Z0875a,Z0089a

>  <ref_pdb>  (1322) 
Z0089a

>  <HIPPO Compound ID>  (1322) 
144223

>  <name>  (1322) 
P71218

>  <inspiration_score>  (1322) 
None

$$$$
P71219
     RDKit          3D

 13 13  0  0  0  0  0  0  0  0999 V2000
   -9.8668    4.1140  -18.2045 C   0  0  0  0  0  0  0  0  0  0  0  0
   -8.6844    4.2977  -18.1120 C   0  0  0  0  0  0  0  0  0  0  0  0
   -7.3239    4.6028  -17.8116 C   0  0  0  0  0  0  0  0  0  0  0  0
   -6.9511    4.8022  -16.4929 C   0  0  0  0  0  0  0  0  0  0  0  0
   -5.6950    5.1405  -16.1378 N   0  0  0  0  0  0  0  0  0  0  0  0
   -4.8301    5.2327  -17.1768 C   0  0  0  0  0  0  0  0  0  0  0  0
   -5.1815    5.0533  -18.5179 C   0  0  0  0  0  0  0  0  0  0  0  0
   -4.3316    5.1708  -19.5829 N   0  0  0  0  0  0  0  0  0  0  0  0
   -2.9324    5.5581  -19.6452 C   0  0  2  0  0  0  0  0  0  0  0  0
   -2.0242    4.4803  -19.0646 C   0  0  0  0  0  0  0  0  0  0  0  0
   -2.6837    6.9642  -19.0810 C   0  0  0  0  0  0  0  0  0  0  0  0
   -1.3375    7.5447  -19.4967 C   0  0  0  0  0  0  0  0  0  0  0  0
   -6.4557    4.7374  -18.8397 N   0  0  0  0  0  0  0  0  0  0  0  0
  1  2  3  0
  2  3  1  0
  3  4  2  0
  4  5  1  0
  5  6  2  0
  6  7  1  0
  7  8  1  0
  8  9  1  0
  9 10  1  1
  9 11  1  0
 11 12  1  0
  7 13  2  0
 13  3  1  0
M  END
>  <energy_score>  (1323) 
-30.26874

>  <alias>  (1323) 
None

>  <HIPPO Pose ID>  (1323) 
71219

>  <smiles>  (1323) 
C#Cc1cncc(N[C@H](C)CC)n1

>  <inchikey>  (1323) 
IKRBUYGXONFZBS-MRVPVSSYSA-N

>  <distance_score>  (1323) 
1.053186

>  <ref_mols>  (1323) 
Z0875a,Z0089a

>  <ref_pdb>  (1323) 
Z0089a

>  <HIPPO Compound ID>  (1323) 
144224

>  <name>  (1323) 
P71219

>  <inspiration_score>  (1323) 
None

$$$$
P71230
     RDKit          3D

 13 13  0  0  0  0  0  0  0  0999 V2000
   -1.7391    3.4972  -19.6679 C   0  0  0  0  0  0  0  0  0  0  0  0
   -1.3162    4.9473  -19.6388 C   0  0  0  0  0  0  0  0  0  0  0  0
   -2.2947    5.8313  -18.8647 C   0  0  1  0  0  0  0  0  0  0  0  0
   -1.7973    7.2744  -18.8760 C   0  0  0  0  0  0  0  0  0  0  0  0
   -3.6270    5.8186  -19.4534 N   0  0  0  0  0  0  0  0  0  0  0  0
   -4.6913    5.5500  -18.6086 C   0  0  0  0  0  0  0  0  0  0  0  0
   -4.8065    6.0241  -17.3035 C   0  0  0  0  0  0  0  0  0  0  0  0
   -5.8253    5.7057  -16.4792 N   0  0  0  0  0  0  0  0  0  0  0  0
   -6.7820    4.9073  -17.0109 C   0  0  0  0  0  0  0  0  0  0  0  0
   -7.8351    4.4507  -16.0582 C   0  0  0  0  0  0  0  0  0  0  0  0
   -9.5061    4.0624  -16.9317 Br  0  0  0  0  0  0  0  0  0  0  0  0
   -6.6934    4.4853  -18.3335 C   0  0  0  0  0  0  0  0  0  0  0  0
   -5.6510    4.7852  -19.1397 N   0  0  0  0  0  0  0  0  0  0  0  0
  1  2  1  0
  2  3  1  0
  3  4  1  6
  3  5  1  0
  5  6  1  0
  6  7  2  0
  7  8  1  0
  8  9  2  0
  9 10  1  0
 10 11  1  0
  9 12  1  0
 12 13  2  0
 13  6  1  0
M  END
>  <energy_score>  (1324) 
-18.274186

>  <alias>  (1324) 
None

>  <HIPPO Pose ID>  (1324) 
71230

>  <smiles>  (1324) 
CC[C@@H](C)Nc1cnc(CBr)cn1

>  <inchikey>  (1324) 
ORPUOPXKUIEEQL-SSDOTTSWSA-N

>  <distance_score>  (1324) 
0.955068

>  <ref_mols>  (1324) 
Z0875a,Z0089a

>  <ref_pdb>  (1324) 
Z0089a

>  <HIPPO Compound ID>  (1324) 
144229

>  <name>  (1324) 
P71230

>  <inspiration_score>  (1324) 
None

$$$$
P71232
     RDKit          3D

 13 13  0  0  0  0  0  0  0  0999 V2000
   -0.2114    5.4307  -19.1879 C   0  0  0  0  0  0  0  0  0  0  0  0
   -1.5552    4.8169  -19.5661 C   0  0  0  0  0  0  0  0  0  0  0  0
   -2.7385    5.6452  -19.0408 C   0  0  1  0  0  0  0  0  0  0  0  0
   -2.8182    7.0271  -19.6782 C   0  0  0  0  0  0  0  0  0  0  0  0
   -3.9636    4.9100  -19.3086 N   0  0  0  0  0  0  0  0  0  0  0  0
   -5.0271    4.9181  -18.4267 C   0  0  0  0  0  0  0  0  0  0  0  0
   -4.9223    5.0557  -17.0470 C   0  0  0  0  0  0  0  0  0  0  0  0
   -5.9734    4.9866  -16.2045 N   0  0  0  0  0  0  0  0  0  0  0  0
   -7.1695    4.7103  -16.7772 C   0  0  0  0  0  0  0  0  0  0  0  0
   -8.3162    4.5393  -15.8355 C   0  0  0  0  0  0  0  0  0  0  0  0
   -7.2987    4.5491  -18.1579 C   0  0  0  0  0  0  0  0  0  0  0  0
   -8.6081    4.2119  -18.8056 C   0  0  0  0  0  0  0  0  0  0  0  0
   -6.2262    4.6785  -18.9849 N   0  0  0  0  0  0  0  0  0  0  0  0
  1  2  1  0
  2  3  1  0
  3  4  1  6
  3  5  1  0
  5  6  1  0
  6  7  2  0
  7  8  1  0
  8  9  2  0
  9 10  1  0
  9 11  1  0
 11 12  1  0
 11 13  2  0
 13  6  1  0
M  END
>  <energy_score>  (1325) 
-30.849084

>  <alias>  (1325) 
None

>  <HIPPO Pose ID>  (1325) 
71232

>  <smiles>  (1325) 
CC[C@@H](C)Nc1cnc(C)c(C)n1

>  <inchikey>  (1325) 
XHJQSVRPFIINOQ-SSDOTTSWSA-N

>  <distance_score>  (1325) 
0.795545

>  <ref_mols>  (1325) 
Z0875a,Z0089a

>  <ref_pdb>  (1325) 
Z0089a

>  <HIPPO Compound ID>  (1325) 
144230

>  <name>  (1325) 
P71232

>  <inspiration_score>  (1325) 
None

$$$$
P71236
     RDKit          3D

 13 13  0  0  0  0  0  0  0  0999 V2000
   -1.6693    4.0034  -20.0422 C   0  0  0  0  0  0  0  0  0  0  0  0
   -1.8771    4.7898  -18.7719 C   0  0  0  0  0  0  0  0  0  0  0  0
   -2.6297    6.1054  -18.9667 C   0  0  1  0  0  0  0  0  0  0  0  0
   -1.9708    7.0280  -19.9831 C   0  0  0  0  0  0  0  0  0  0  0  0
   -4.0027    5.8817  -19.3671 N   0  0  0  0  0  0  0  0  0  0  0  0
   -4.9836    5.4870  -18.4943 C   0  0  0  0  0  0  0  0  0  0  0  0
   -4.9277    5.6402  -17.1113 C   0  0  0  0  0  0  0  0  0  0  0  0
   -5.9366    5.3179  -16.2809 N   0  0  0  0  0  0  0  0  0  0  0  0
   -7.0450    4.8340  -16.8710 C   0  0  0  0  0  0  0  0  0  0  0  0
   -8.0258    4.5810  -15.9717 O   0  0  0  0  0  0  0  0  0  0  0  0
   -9.2334    4.0660  -16.4900 C   0  0  0  0  0  0  0  0  0  0  0  0
   -7.1130    4.6750  -18.2482 C   0  0  0  0  0  0  0  0  0  0  0  0
   -6.0836    4.9829  -19.0731 N   0  0  0  0  0  0  0  0  0  0  0  0
  1  2  1  0
  2  3  1  0
  3  4  1  6
  3  5  1  0
  5  6  1  0
  6  7  2  0
  7  8  1  0
  8  9  2  0
  9 10  1  0
 10 11  1  0
  9 12  1  0
 12 13  2  0
 13  6  1  0
M  END
>  <energy_score>  (1326) 
-15.920203

>  <alias>  (1326) 
None

>  <HIPPO Pose ID>  (1326) 
71236

>  <smiles>  (1326) 
CC[C@@H](C)Nc1cnc(OC)cn1

>  <inchikey>  (1326) 
OOCCHKFVBXIUAA-SSDOTTSWSA-N

>  <distance_score>  (1326) 
0.796539

>  <ref_mols>  (1326) 
Z0875a,Z0089a

>  <ref_pdb>  (1326) 
Z0089a

>  <HIPPO Compound ID>  (1326) 
144232

>  <name>  (1326) 
P71236

>  <inspiration_score>  (1326) 
None

$$$$
P71237
     RDKit          3D

 13 13  0  0  0  0  0  0  0  0999 V2000
   -1.7212    3.6113  -19.5217 C   0  0  0  0  0  0  0  0  0  0  0  0
   -1.8270    5.0016  -18.9315 C   0  0  0  0  0  0  0  0  0  0  0  0
   -2.8728    5.8531  -19.6434 C   0  0  2  0  0  0  0  0  0  0  0  0
   -2.9140    7.2885  -19.1476 C   0  0  0  0  0  0  0  0  0  0  0  0
   -4.1663    5.2200  -19.7104 N   0  0  0  0  0  0  0  0  0  0  0  0
   -5.1854    5.0698  -18.8039 C   0  0  0  0  0  0  0  0  0  0  0  0
   -6.2797    4.5776  -19.3336 N   0  0  0  0  0  0  0  0  0  0  0  0
   -7.3928    4.4793  -18.5511 C   0  0  0  0  0  0  0  0  0  0  0  0
   -7.4725    4.9187  -17.2941 C   0  0  0  0  0  0  0  0  0  0  0  0
   -6.3826    5.4922  -16.6902 N   0  0  0  0  0  0  0  0  0  0  0  0
   -6.4511    5.9810  -15.3485 C   0  0  0  0  0  0  0  0  0  0  0  0
   -5.1373    5.4773  -17.3009 C   0  0  0  0  0  0  0  0  0  0  0  0
   -4.1077    5.7852  -16.7158 O   0  0  0  0  0  0  0  0  0  0  0  0
  1  2  1  0
  2  3  1  0
  3  4  1  1
  3  5  1  0
  5  6  1  0
  6  7  2  0
  7  8  1  0
  8  9  2  0
  9 10  1  0
 10 11  1  0
 10 12  1  0
 12 13  2  0
 12  6  1  0
M  END
>  <energy_score>  (1327) 
-15.903449

>  <alias>  (1327) 
None

>  <HIPPO Pose ID>  (1327) 
71237

>  <smiles>  (1327) 
CC[C@H](C)Nc1nccn(C)c1=O

>  <inchikey>  (1327) 
OVMLJNHMYXBQFE-ZETCQYMHSA-N

>  <distance_score>  (1327) 
1.189628

>  <ref_mols>  (1327) 
Z0875a,Z0089a

>  <ref_pdb>  (1327) 
Z0089a

>  <HIPPO Compound ID>  (1327) 
144233

>  <name>  (1327) 
P71237

>  <inspiration_score>  (1327) 
None

$$$$
P71241
     RDKit          3D

 13 13  0  0  0  0  0  0  0  0999 V2000
   -0.3320    5.3974  -19.1904 C   0  0  0  0  0  0  0  0  0  0  0  0
   -1.7339    4.8039  -19.1171 C   0  0  0  0  0  0  0  0  0  0  0  0
   -2.7956    5.7455  -19.6960 C   0  0  2  0  0  0  0  0  0  0  0  0
   -2.8464    7.1216  -19.0421 C   0  0  0  0  0  0  0  0  0  0  0  0
   -4.0866    5.0879  -19.7502 N   0  0  0  0  0  0  0  0  0  0  0  0
   -5.0461    4.9993  -18.7821 C   0  0  0  0  0  0  0  0  0  0  0  0
   -4.8655    5.0924  -17.4033 C   0  0  0  0  0  0  0  0  0  0  0  0
   -5.8733    4.9968  -16.4992 N   0  0  0  0  0  0  0  0  0  0  0  0
   -7.0863    4.7296  -17.0443 C   0  0  0  0  0  0  0  0  0  0  0  0
   -8.1954    4.5439  -16.1059 C   0  0  0  0  0  0  0  0  0  0  0  0
   -9.3458    4.3784  -16.4900 O   0  0  0  0  0  0  0  0  0  0  0  0
   -7.2915    4.6231  -18.4045 C   0  0  0  0  0  0  0  0  0  0  0  0
   -6.2731    4.7659  -19.2827 N   0  0  0  0  0  0  0  0  0  0  0  0
  1  2  1  0
  2  3  1  0
  3  4  1  1
  3  5  1  0
  5  6  1  0
  6  7  2  0
  7  8  1  0
  8  9  2  0
  9 10  1  0
 10 11  2  0
  9 12  1  0
 12 13  2  0
 13  6  1  0
M  END
>  <energy_score>  (1328) 
-27.483856

>  <alias>  (1328) 
None

>  <HIPPO Pose ID>  (1328) 
71241

>  <smiles>  (1328) 
CC[C@H](C)Nc1cnc(C=O)cn1

>  <inchikey>  (1328) 
XHTNDDGAUQPFEH-ZETCQYMHSA-N

>  <distance_score>  (1328) 
0.726295

>  <ref_mols>  (1328) 
Z0875a,Z0089a

>  <ref_pdb>  (1328) 
Z0089a

>  <HIPPO Compound ID>  (1328) 
144235

>  <name>  (1328) 
P71241

>  <inspiration_score>  (1328) 
None

$$$$
P71243
     RDKit          3D

 13 14  0  0  0  0  0  0  0  0999 V2000
   -4.5495    6.2653  -12.8187 C   0  0  0  0  0  0  0  0  0  0  0  0
   -4.5631    5.4833  -14.0020 O   0  0  0  0  0  0  0  0  0  0  0  0
   -4.7973    6.2682  -15.1940 C   0  0  1  0  0  0  0  0  0  0  0  0
   -3.5796    6.7263  -15.9396 C   0  0  0  0  0  0  0  0  0  0  0  0
   -4.3940    5.5875  -16.4848 C   0  0  2  0  0  0  0  0  0  0  0  0
   -5.1491    5.7257  -17.7627 N   0  0  0  0  0  0  0  0  0  0  0  0
   -6.4388    5.1518  -17.7541 C   0  0  0  0  0  0  0  0  0  0  0  0
   -7.1018    4.7586  -18.9150 C   0  0  0  0  0  0  0  0  0  0  0  0
   -8.3488    4.2120  -18.9261 N   0  0  0  0  0  0  0  0  0  0  0  0
   -8.9304    4.0992  -17.7210 C   0  0  0  0  0  0  0  0  0  0  0  0
   -8.2807    4.4941  -16.5659 C   0  0  0  0  0  0  0  0  0  0  0  0
   -8.8510    4.3378  -15.2231 C   0  0  0  0  0  0  0  0  0  0  0  0
   -7.0598    5.0481  -16.5757 N   0  0  0  0  0  0  0  0  0  0  0  0
  1  2  1  0
  3  2  1  1
  3  4  1  0
  4  5  1  0
  5  6  1  6
  6  7  1  0
  7  8  2  0
  8  9  1  0
  9 10  2  0
 10 11  1  0
 11 12  1  0
 11 13  2  0
  5  3  1  0
 13  7  1  0
M  END
>  <energy_score>  (1329) 
-11.958112

>  <alias>  (1329) 
None

>  <HIPPO Pose ID>  (1329) 
71243

>  <smiles>  (1329) 
CO[C@H]1C[C@@H]1Nc1cncc(C)n1

>  <inchikey>  (1329) 
FVUCZMXAIVUDTN-YUMQZZPRSA-N

>  <distance_score>  (1329) 
1.147149

>  <ref_mols>  (1329) 
Z0875a,Z0089a

>  <ref_pdb>  (1329) 
Z0089a

>  <HIPPO Compound ID>  (1329) 
144236

>  <name>  (1329) 
P71243

>  <inspiration_score>  (1329) 
None

$$$$
P71248
     RDKit          3D

 13 14  0  0  0  0  0  0  0  0999 V2000
   -8.9430    4.4582  -15.1923 C   0  0  0  0  0  0  0  0  0  0  0  0
   -8.2709    4.5394  -16.4929 C   0  0  0  0  0  0  0  0  0  0  0  0
   -8.8807    4.1781  -17.6814 C   0  0  0  0  0  0  0  0  0  0  0  0
   -8.2273    4.2504  -18.8510 N   0  0  0  0  0  0  0  0  0  0  0  0
   -6.9509    4.7143  -18.7675 C   0  0  0  0  0  0  0  0  0  0  0  0
   -6.3263    5.0617  -17.5657 C   0  0  0  0  0  0  0  0  0  0  0  0
   -4.9835    5.4838  -17.5113 N   0  0  0  0  0  0  0  0  0  0  0  0
   -4.2140    5.7187  -16.3018 C   0  0  2  0  0  0  0  0  0  0  0  0
   -4.2546    4.6287  -15.2133 C   0  0  0  0  0  0  0  0  0  0  0  0
   -4.9245    5.6073  -14.2410 C   0  0  0  0  0  0  0  0  0  0  0  0
   -4.7975    6.7315  -15.2928 C   0  0  1  0  0  0  0  0  0  0  0  0
   -3.8319    7.8321  -14.8874 C   0  0  0  0  0  0  0  0  0  0  0  0
   -7.0170    5.0138  -16.4290 N   0  0  0  0  0  0  0  0  0  0  0  0
  1  2  1  0
  2  3  2  0
  3  4  1  0
  4  5  2  0
  5  6  1  0
  6  7  1  0
  8  7  1  6
  8  9  1  0
  9 10  1  0
 10 11  1  0
 11 12  1  1
  6 13  2  0
 13  2  1  0
 11  8  1  0
M  END
>  <energy_score>  (1330) 
-10.809511

>  <alias>  (1330) 
None

>  <HIPPO Pose ID>  (1330) 
71248

>  <smiles>  (1330) 
Cc1cncc(N[C@@H]2CC[C@H]2C)n1

>  <inchikey>  (1330) 
VUPOTUGAUDSANA-VXNVDRBHSA-N

>  <distance_score>  (1330) 
1.518887

>  <ref_mols>  (1330) 
Z0875a,Z0089a

>  <ref_pdb>  (1330) 
Z0089a

>  <HIPPO Compound ID>  (1330) 
144237

>  <name>  (1330) 
P71248

>  <inspiration_score>  (1330) 
None

$$$$
P71252
     RDKit          3D

 13 13  0  0  0  0  0  0  0  0999 V2000
   -9.5640    4.0546  -17.5689 C   0  0  0  0  0  0  0  0  0  0  0  0
   -8.5559    4.3555  -18.5192 O   0  0  0  0  0  0  0  0  0  0  0  0
   -7.3060    4.6016  -18.0294 C   0  0  0  0  0  0  0  0  0  0  0  0
   -6.9556    4.6605  -16.6887 C   0  0  0  0  0  0  0  0  0  0  0  0
   -5.6948    4.9135  -16.2651 N   0  0  0  0  0  0  0  0  0  0  0  0
   -4.7889    5.0719  -17.2557 C   0  0  0  0  0  0  0  0  0  0  0  0
   -5.1046    5.0300  -18.6102 C   0  0  0  0  0  0  0  0  0  0  0  0
   -4.2339    5.1882  -19.6509 N   0  0  0  0  0  0  0  0  0  0  0  0
   -2.8424    5.6130  -19.6639 C   0  0  2  0  0  0  0  0  0  0  0  0
   -1.9309    4.4923  -19.1717 C   0  0  0  0  0  0  0  0  0  0  0  0
   -2.6264    6.9648  -18.9615 C   0  0  0  0  0  0  0  0  0  0  0  0
   -1.0405    7.7600  -19.3867 S   0  0  0  0  0  0  0  0  0  0  0  0
   -6.3760    4.8013  -18.9898 N   0  0  0  0  0  0  0  0  0  0  0  0
  1  2  1  0
  2  3  1  0
  3  4  2  0
  4  5  1  0
  5  6  2  0
  6  7  1  0
  7  8  1  0
  8  9  1  0
  9 10  1  1
  9 11  1  0
 11 12  1  0
  7 13  2  0
 13  3  1  0
M  END
>  <energy_score>  (1331) 
-34.551212

>  <alias>  (1331) 
None

>  <HIPPO Pose ID>  (1331) 
71252

>  <smiles>  (1331) 
COc1cncc(N[C@H](C)CS)n1

>  <inchikey>  (1331) 
MFVMPHKRQGWPRS-ZCFIWIBFSA-N

>  <distance_score>  (1331) 
0.734974

>  <ref_mols>  (1331) 
Z0875a,Z0089a

>  <ref_pdb>  (1331) 
Z0089a

>  <HIPPO Compound ID>  (1331) 
144239

>  <name>  (1331) 
P71252

>  <inspiration_score>  (1331) 
None

$$$$
P71259
     RDKit          3D

 13 13  0  0  0  0  0  0  0  0999 V2000
   -1.9817    4.3571  -19.3585 C   0  0  0  0  0  0  0  0  0  0  0  0
   -2.7068    5.4270  -18.5378 C   0  0  1  0  0  0  0  0  0  0  0  0
   -2.0125    6.7997  -18.6531 C   0  0  0  0  0  0  0  0  0  0  0  0
   -0.3787    6.8637  -17.8507 S   0  0  0  0  0  0  0  0  0  0  0  0
   -4.0720    5.5835  -19.0432 N   0  0  0  0  0  0  0  0  0  0  0  0
   -5.2018    5.2647  -18.3208 C   0  0  0  0  0  0  0  0  0  0  0  0
   -6.1416    4.7120  -19.1207 N   0  0  0  0  0  0  0  0  0  0  0  0
   -7.3484    4.4378  -18.5779 C   0  0  0  0  0  0  0  0  0  0  0  0
   -7.6249    4.6844  -17.2517 C   0  0  0  0  0  0  0  0  0  0  0  0
   -6.7206    5.2491  -16.4243 N   0  0  0  0  0  0  0  0  0  0  0  0
   -5.5035    5.5298  -16.9741 C   0  0  0  0  0  0  0  0  0  0  0  0
   -4.6256    6.2098  -16.0640 C   0  0  0  0  0  0  0  0  0  0  0  0
   -3.9190    6.7764  -15.3326 N   0  0  0  0  0  0  0  0  0  0  0  0
  2  1  1  6
  2  3  1  0
  3  4  1  0
  2  5  1  0
  5  6  1  0
  6  7  2  0
  7  8  1  0
  8  9  2  0
  9 10  1  0
 10 11  2  0
 11 12  1  0
 12 13  3  0
 11  6  1  0
M  END
>  <energy_score>  (1332) 
-100.363821

>  <alias>  (1332) 
None

>  <HIPPO Pose ID>  (1332) 
71259

>  <smiles>  (1332) 
C[C@@H](CS)Nc1nccnc1C#N

>  <inchikey>  (1332) 
ZVCALLVDFWTQPZ-LURJTMIESA-N

>  <distance_score>  (1332) 
0.820633

>  <ref_mols>  (1332) 
Z0875a,Z0089a

>  <ref_pdb>  (1332) 
Z0089a

>  <HIPPO Compound ID>  (1332) 
144242

>  <name>  (1332) 
P71259

>  <inspiration_score>  (1332) 
None

$$$$
P71262
     RDKit          3D

 13 13  0  0  0  0  0  0  0  0999 V2000
   -1.8980    4.4646  -19.0406 C   0  0  0  0  0  0  0  0  0  0  0  0
   -2.7129    5.5980  -19.6520 C   0  0  2  0  0  0  0  0  0  0  0  0
   -2.4350    6.9452  -18.9671 C   0  0  0  0  0  0  0  0  0  0  0  0
   -3.2194    8.3558  -19.8196 S   0  0  0  0  0  0  0  0  0  0  0  0
   -4.1128    5.2297  -19.7287 N   0  0  0  0  0  0  0  0  0  0  0  0
   -5.0704    5.0797  -18.7764 C   0  0  0  0  0  0  0  0  0  0  0  0
   -4.9168    5.1792  -17.3951 C   0  0  0  0  0  0  0  0  0  0  0  0
   -5.9308    5.0374  -16.5039 N   0  0  0  0  0  0  0  0  0  0  0  0
   -7.1264    4.7307  -17.0661 C   0  0  0  0  0  0  0  0  0  0  0  0
   -8.2431    4.5146  -16.1432 C   0  0  0  0  0  0  0  0  0  0  0  0
   -9.3797    4.2973  -16.5421 O   0  0  0  0  0  0  0  0  0  0  0  0
   -7.3066    4.6156  -18.4286 C   0  0  0  0  0  0  0  0  0  0  0  0
   -6.2794    4.7926  -19.2905 N   0  0  0  0  0  0  0  0  0  0  0  0
  2  1  1  1
  2  3  1  0
  3  4  1  0
  2  5  1  0
  5  6  1  0
  6  7  2  0
  7  8  1  0
  8  9  2  0
  9 10  1  0
 10 11  2  0
  9 12  1  0
 12 13  2  0
 13  6  1  0
M  END
>  <energy_score>  (1333) 
-29.284797

>  <alias>  (1333) 
None

>  <HIPPO Pose ID>  (1333) 
71262

>  <smiles>  (1333) 
C[C@H](CS)Nc1cnc(C=O)cn1

>  <inchikey>  (1333) 
SVPLRTWHMDJPBD-ZCFIWIBFSA-N

>  <distance_score>  (1333) 
0.675094

>  <ref_mols>  (1333) 
Z0875a,Z0089a

>  <ref_pdb>  (1333) 
Z0089a

>  <HIPPO Compound ID>  (1333) 
144244

>  <name>  (1333) 
P71262

>  <inspiration_score>  (1333) 
None

$$$$
P71267
     RDKit          3D

 13 13  0  0  0  0  0  0  0  0999 V2000
   -3.9342    6.7576  -15.1923 C   0  0  0  0  0  0  0  0  0  0  0  0
   -4.6113    6.2101  -16.0216 C   0  0  0  0  0  0  0  0  0  0  0  0
   -5.4706    5.5532  -16.9653 C   0  0  0  0  0  0  0  0  0  0  0  0
   -6.6503    5.2048  -16.3877 N   0  0  0  0  0  0  0  0  0  0  0  0
   -7.5640    4.6499  -17.2116 C   0  0  0  0  0  0  0  0  0  0  0  0
   -7.3242    4.4617  -18.5555 C   0  0  0  0  0  0  0  0  0  0  0  0
   -6.1479    4.7969  -19.1281 N   0  0  0  0  0  0  0  0  0  0  0  0
   -5.2080    5.3605  -18.3365 C   0  0  0  0  0  0  0  0  0  0  0  0
   -4.1213    5.7705  -19.0788 N   0  0  0  0  0  0  0  0  0  0  0  0
   -2.7387    5.5992  -18.6554 C   0  0  1  0  0  0  0  0  0  0  0  0
   -2.1783    4.2938  -19.2210 C   0  0  0  0  0  0  0  0  0  0  0  0
   -1.8902    6.7758  -19.1829 C   0  0  0  0  0  0  0  0  0  0  0  0
   -2.3769    8.4055  -18.5182 S   0  0  0  0  0  0  0  0  0  0  0  0
  1  2  3  0
  2  3  1  0
  3  4  2  0
  4  5  1  0
  5  6  2  0
  6  7  1  0
  7  8  2  0
  8  9  1  0
  9 10  1  0
 10 11  1  6
 10 12  1  0
 12 13  1  0
  8  3  1  0
M  END
>  <energy_score>  (1334) 
-32.966077

>  <alias>  (1334) 
None

>  <HIPPO Pose ID>  (1334) 
71267

>  <smiles>  (1334) 
C#Cc1nccnc1N[C@@H](C)CS

>  <inchikey>  (1334) 
SBHWHBWMTOKUNQ-ZETCQYMHSA-N

>  <distance_score>  (1334) 
0.829918

>  <ref_mols>  (1334) 
Z0875a,Z0089a

>  <ref_pdb>  (1334) 
Z0089a

>  <HIPPO Compound ID>  (1334) 
144246

>  <name>  (1334) 
P71267

>  <inspiration_score>  (1334) 
None

$$$$
P71268
     RDKit          3D

 13 13  0  0  0  0  0  0  0  0999 V2000
   -9.8810    4.1238  -18.2026 C   0  0  0  0  0  0  0  0  0  0  0  0
   -8.6977    4.3015  -18.1098 C   0  0  0  0  0  0  0  0  0  0  0  0
   -7.3349    4.5955  -17.8100 C   0  0  0  0  0  0  0  0  0  0  0  0
   -6.9564    4.7817  -16.4912 C   0  0  0  0  0  0  0  0  0  0  0  0
   -5.6940    5.0984  -16.1378 N   0  0  0  0  0  0  0  0  0  0  0  0
   -4.8290    5.1790  -17.1768 C   0  0  0  0  0  0  0  0  0  0  0  0
   -5.1883    5.0196  -18.5184 C   0  0  0  0  0  0  0  0  0  0  0  0
   -4.3405    5.1295  -19.5870 N   0  0  0  0  0  0  0  0  0  0  0  0
   -2.9566    5.5818  -19.6525 C   0  0  2  0  0  0  0  0  0  0  0  0
   -2.0064    4.5132  -19.1176 C   0  0  0  0  0  0  0  0  0  0  0  0
   -2.7488    6.9773  -19.0377 C   0  0  0  0  0  0  0  0  0  0  0  0
   -1.2095    7.7885  -19.5870 S   0  0  0  0  0  0  0  0  0  0  0  0
   -6.4675    4.7282  -18.8393 N   0  0  0  0  0  0  0  0  0  0  0  0
  1  2  3  0
  2  3  1  0
  3  4  2  0
  4  5  1  0
  5  6  2  0
  6  7  1  0
  7  8  1  0
  8  9  1  0
  9 10  1  1
  9 11  1  0
 11 12  1  0
  7 13  2  0
 13  3  1  0
M  END
>  <energy_score>  (1335) 
-27.664161

>  <alias>  (1335) 
None

>  <HIPPO Pose ID>  (1335) 
71268

>  <smiles>  (1335) 
C#Cc1cncc(N[C@H](C)CS)n1

>  <inchikey>  (1335) 
XBJBOJFHKCKWJV-SSDOTTSWSA-N

>  <distance_score>  (1335) 
1.059916

>  <ref_mols>  (1335) 
Z0875a,Z0089a

>  <ref_pdb>  (1335) 
Z0089a

>  <HIPPO Compound ID>  (1335) 
144247

>  <name>  (1335) 
P71268

>  <inspiration_score>  (1335) 
None

$$$$
P71271
     RDKit          3D

 13 13  0  0  0  0  0  0  0  0999 V2000
   -8.9829    4.4333  -15.5461 C   0  0  0  0  0  0  0  0  0  0  0  0
   -8.1185    4.6939  -16.3303 C   0  0  0  0  0  0  0  0  0  0  0  0
   -7.0333    4.9548  -17.1968 C   0  0  0  0  0  0  0  0  0  0  0  0
   -7.0323    4.5664  -18.5216 C   0  0  0  0  0  0  0  0  0  0  0  0
   -5.9579    4.7692  -19.3136 N   0  0  0  0  0  0  0  0  0  0  0  0
   -4.9057    5.3877  -18.7519 C   0  0  0  0  0  0  0  0  0  0  0  0
   -3.8749    5.6590  -19.6202 N   0  0  0  0  0  0  0  0  0  0  0  0
   -2.4837    5.5386  -19.2065 C   0  0  1  0  0  0  0  0  0  0  0  0
   -1.9653    4.1220  -19.4296 C   0  0  0  0  0  0  0  0  0  0  0  0
   -1.6508    6.5987  -19.9489 C   0  0  0  0  0  0  0  0  0  0  0  0
   -1.6580    6.4244  -21.7728 S   0  0  0  0  0  0  0  0  0  0  0  0
   -4.9390    5.7865  -17.4154 C   0  0  0  0  0  0  0  0  0  0  0  0
   -5.9958    5.5850  -16.6050 N   0  0  0  0  0  0  0  0  0  0  0  0
  1  2  3  0
  2  3  1  0
  3  4  2  0
  4  5  1  0
  5  6  2  0
  6  7  1  0
  7  8  1  0
  8  9  1  6
  8 10  1  0
 10 11  1  0
  6 12  1  0
 12 13  2  0
 13  3  1  0
M  END
>  <energy_score>  (1336) 
-33.309064

>  <alias>  (1336) 
None

>  <HIPPO Pose ID>  (1336) 
71271

>  <smiles>  (1336) 
C#Cc1cnc(N[C@@H](C)CS)cn1

>  <inchikey>  (1336) 
YBWXOXFMUCPBQK-ZETCQYMHSA-N

>  <distance_score>  (1336) 
1.030403

>  <ref_mols>  (1336) 
Z0875a,Z0089a

>  <ref_pdb>  (1336) 
Z0089a

>  <HIPPO Compound ID>  (1336) 
144248

>  <name>  (1336) 
P71271

>  <inspiration_score>  (1336) 
None

$$$$
P71275
     RDKit          3D

 13 13  0  0  0  0  0  0  0  0999 V2000
   -1.7692    4.3512  -19.6509 C   0  0  0  0  0  0  0  0  0  0  0  0
   -2.6849    5.3922  -19.0080 C   0  0  1  0  0  0  0  0  0  0  0  0
   -2.4502    6.8170  -19.5368 C   0  0  0  0  0  0  0  0  0  0  0  0
   -0.8345    7.5109  -19.0679 S   0  0  0  0  0  0  0  0  0  0  0  0
   -4.0706    5.0103  -19.2497 N   0  0  0  0  0  0  0  0  0  0  0  0
   -5.0772    5.0261  -18.3170 C   0  0  0  0  0  0  0  0  0  0  0  0
   -4.8992    5.3147  -16.9590 C   0  0  0  0  0  0  0  0  0  0  0  0
   -5.8884    5.2768  -16.0380 N   0  0  0  0  0  0  0  0  0  0  0  0
   -7.0881    4.8956  -16.5183 C   0  0  0  0  0  0  0  0  0  0  0  0
   -7.2955    4.6158  -17.8577 C   0  0  0  0  0  0  0  0  0  0  0  0
   -8.5956    4.1810  -18.2592 C   0  0  0  0  0  0  0  0  0  0  0  0
   -9.6851    3.8039  -18.3973 N   0  0  0  0  0  0  0  0  0  0  0  0
   -6.3006    4.6921  -18.7799 N   0  0  0  0  0  0  0  0  0  0  0  0
  2  1  1  6
  2  3  1  0
  3  4  1  0
  2  5  1  0
  5  6  1  0
  6  7  2  0
  7  8  1  0
  8  9  2  0
  9 10  1  0
 10 11  1  0
 11 12  3  0
 10 13  2  0
 13  6  1  0
M  END
>  <energy_score>  (1337) 
-23.305905

>  <alias>  (1337) 
None

>  <HIPPO Pose ID>  (1337) 
71275

>  <smiles>  (1337) 
C[C@@H](CS)Nc1cncc(C#N)n1

>  <inchikey>  (1337) 
WBDKVRAKKMVPPQ-LURJTMIESA-N

>  <distance_score>  (1337) 
0.765308

>  <ref_mols>  (1337) 
Z0875a,Z0089a

>  <ref_pdb>  (1337) 
Z0089a

>  <HIPPO Compound ID>  (1337) 
144250

>  <name>  (1337) 
P71275

>  <inspiration_score>  (1337) 
None

$$$$
P71277
     RDKit          3D

 13 13  0  0  0  0  0  0  0  0999 V2000
   -2.1079    4.3605  -19.2639 C   0  0  0  0  0  0  0  0  0  0  0  0
   -2.7079    5.5081  -18.4454 C   0  0  1  0  0  0  0  0  0  0  0  0
   -1.8991    6.8103  -18.6157 C   0  0  0  0  0  0  0  0  0  0  0  0
   -0.2210    6.7396  -17.9046 S   0  0  0  0  0  0  0  0  0  0  0  0
   -4.0676    5.7808  -18.9155 N   0  0  0  0  0  0  0  0  0  0  0  0
   -5.1921    5.3702  -18.2376 C   0  0  0  0  0  0  0  0  0  0  0  0
   -6.0834    4.8402  -19.1101 N   0  0  0  0  0  0  0  0  0  0  0  0
   -7.2928    4.4685  -18.6389 C   0  0  0  0  0  0  0  0  0  0  0  0
   -7.6215    4.5891  -17.3093 C   0  0  0  0  0  0  0  0  0  0  0  0
   -6.7655    5.1090  -16.4058 N   0  0  0  0  0  0  0  0  0  0  0  0
   -5.5459    5.5023  -16.8844 C   0  0  0  0  0  0  0  0  0  0  0  0
   -4.7568    6.1473  -15.7973 C   0  0  0  0  0  0  0  0  0  0  0  0
   -3.7505    6.8318  -15.9188 O   0  0  0  0  0  0  0  0  0  0  0  0
  2  1  1  6
  2  3  1  0
  3  4  1  0
  2  5  1  0
  5  6  1  0
  6  7  2  0
  7  8  1  0
  8  9  2  0
  9 10  1  0
 10 11  2  0
 11 12  1  0
 12 13  2  0
 11  6  1  0
M  END
>  <energy_score>  (1338) 
-19.609235

>  <alias>  (1338) 
None

>  <HIPPO Pose ID>  (1338) 
71277

>  <smiles>  (1338) 
C[C@@H](CS)Nc1nccnc1C=O

>  <inchikey>  (1338) 
RKHWNQZEWJOLNY-LURJTMIESA-N

>  <distance_score>  (1338) 
0.925886

>  <ref_mols>  (1338) 
Z0875a,Z0089a

>  <ref_pdb>  (1338) 
Z0089a

>  <HIPPO Compound ID>  (1338) 
144251

>  <name>  (1338) 
P71277

>  <inspiration_score>  (1338) 
None

$$$$
P71280
     RDKit          3D

 13 13  0  0  0  0  0  0  0  0999 V2000
   -8.3202    4.7140  -15.8558 C   0  0  0  0  0  0  0  0  0  0  0  0
   -7.2316    4.8602  -16.8708 C   0  0  0  0  0  0  0  0  0  0  0  0
   -6.0134    5.2212  -16.3941 N   0  0  0  0  0  0  0  0  0  0  0  0
   -5.0165    5.2762  -17.3097 C   0  0  0  0  0  0  0  0  0  0  0  0
   -5.1952    5.0473  -18.6662 C   0  0  0  0  0  0  0  0  0  0  0  0
   -4.2474    5.1106  -19.6446 N   0  0  0  0  0  0  0  0  0  0  0  0
   -2.8662    5.5574  -19.6170 C   0  0  2  0  0  0  0  0  0  0  0  0
   -1.9876    4.5237  -18.9213 C   0  0  0  0  0  0  0  0  0  0  0  0
   -2.6430    6.9730  -19.0636 C   0  0  0  0  0  0  0  0  0  0  0  0
   -3.4758    8.2623  -20.0518 S   0  0  0  0  0  0  0  0  0  0  0  0
   -6.4108    4.6921  -19.1162 N   0  0  0  0  0  0  0  0  0  0  0  0
   -7.4283    4.5800  -18.2224 C   0  0  0  0  0  0  0  0  0  0  0  0
   -8.7568    4.1568  -18.7727 C   0  0  0  0  0  0  0  0  0  0  0  0
  1  2  1  0
  2  3  2  0
  3  4  1  0
  4  5  2  0
  5  6  1  0
  6  7  1  0
  7  8  1  1
  7  9  1  0
  9 10  1  0
  5 11  1  0
 11 12  2  0
 12 13  1  0
 12  2  1  0
M  END
>  <energy_score>  (1339) 
-23.912068

>  <alias>  (1339) 
None

>  <HIPPO Pose ID>  (1339) 
71280

>  <smiles>  (1339) 
Cc1ncc(N[C@H](C)CS)nc1C

>  <inchikey>  (1339) 
DZVNMWXRBBSIEG-ZCFIWIBFSA-N

>  <distance_score>  (1339) 
0.726189

>  <ref_mols>  (1339) 
Z0875a,Z0089a

>  <ref_pdb>  (1339) 
Z0089a

>  <HIPPO Compound ID>  (1339) 
144253

>  <name>  (1339) 
P71280

>  <inspiration_score>  (1339) 
None

$$$$
P71283
     RDKit          3D

 13 13  0  0  0  0  0  0  0  0999 V2000
   -0.5607    5.3532  -18.9187 C   0  0  0  0  0  0  0  0  0  0  0  0
   -1.7098    5.1470  -19.5786 C   0  0  0  0  0  0  0  0  0  0  0  0
   -2.8584    6.1237  -19.6974 C   0  0  0  0  0  0  0  0  0  0  0  0
   -2.9331    7.1555  -18.5616 C   0  0  0  0  0  0  0  0  0  0  0  0
   -2.6752    6.9459  -20.9944 C   0  0  0  0  0  0  0  0  0  0  0  0
   -4.0626    5.3056  -19.8478 N   0  0  0  0  0  0  0  0  0  0  0  0
   -5.0437    5.0563  -18.9293 C   0  0  0  0  0  0  0  0  0  0  0  0
   -4.8691    4.9064  -17.5681 C   0  0  0  0  0  0  0  0  0  0  0  0
   -5.9409    4.7137  -16.7640 N   0  0  0  0  0  0  0  0  0  0  0  0
   -5.7338    4.6269  -15.3211 C   0  0  0  0  0  0  0  0  0  0  0  0
   -7.1803    4.5872  -17.2921 C   0  0  0  0  0  0  0  0  0  0  0  0
   -7.3197    4.6796  -18.6583 C   0  0  0  0  0  0  0  0  0  0  0  0
   -6.2657    4.9206  -19.4602 N   0  0  0  0  0  0  0  0  0  0  0  0
  1  2  2  0
  2  3  1  0
  3  4  1  0
  3  5  1  0
  3  6  1  0
  6  7  1  0
  7  8  2  0
  8  9  1  0
  9 10  1  0
  9 11  2  0
 11 12  1  0
 12 13  2  0
 13  7  1  0
M  CHG  1   9   1
M  END
>  <energy_score>  (1340) 
-30.504962

>  <alias>  (1340) 
None

>  <HIPPO Pose ID>  (1340) 
71283

>  <smiles>  (1340) 
C=CC(C)(C)Nc1c[n+](C)ccn1

>  <inchikey>  (1340) 
SVWLYKOXNQJOMQ-UHFFFAOYSA-N

>  <distance_score>  (1340) 
1.066024

>  <ref_mols>  (1340) 
Z0875a,Z0089a

>  <ref_pdb>  (1340) 
Z0089a

>  <HIPPO Compound ID>  (1340) 
144255

>  <name>  (1340) 
P71283

>  <inspiration_score>  (1340) 
None

$$$$
P71286
     RDKit          3D

 13 13  0  0  0  0  0  0  0  0999 V2000
   -1.6284    3.8282  -19.6718 C   0  0  0  0  0  0  0  0  0  0  0  0
   -1.7744    4.9997  -19.0398 C   0  0  0  0  0  0  0  0  0  0  0  0
   -2.7662    6.0735  -19.4240 C   0  0  0  0  0  0  0  0  0  0  0  0
   -2.8092    7.2103  -18.3950 C   0  0  0  0  0  0  0  0  0  0  0  0
   -2.3172    6.7334  -20.7464 C   0  0  0  0  0  0  0  0  0  0  0  0
   -4.0558    5.4288  -19.6335 N   0  0  0  0  0  0  0  0  0  0  0  0
   -5.0327    5.1765  -18.7054 C   0  0  0  0  0  0  0  0  0  0  0  0
   -4.8651    5.0169  -17.3342 C   0  0  0  0  0  0  0  0  0  0  0  0
   -5.8885    4.8471  -16.4592 N   0  0  0  0  0  0  0  0  0  0  0  0
   -7.1178    4.7372  -17.0153 C   0  0  0  0  0  0  0  0  0  0  0  0
   -8.2792    4.5365  -16.0979 C   0  0  0  0  0  0  0  0  0  0  0  0
   -7.2918    4.8424  -18.3856 C   0  0  0  0  0  0  0  0  0  0  0  0
   -6.2629    5.0742  -19.2332 N   0  0  0  0  0  0  0  0  0  0  0  0
  1  2  2  0
  2  3  1  0
  3  4  1  0
  3  5  1  0
  3  6  1  0
  6  7  1  0
  7  8  2  0
  8  9  1  0
  9 10  2  0
 10 11  1  0
 10 12  1  0
 12 13  2  0
 13  7  1  0
M  END
>  <energy_score>  (1341) 
-28.045801

>  <alias>  (1341) 
None

>  <HIPPO Pose ID>  (1341) 
71286

>  <smiles>  (1341) 
C=CC(C)(C)Nc1cnc(C)cn1

>  <inchikey>  (1341) 
WLTSYOQOUAFIJM-UHFFFAOYSA-N

>  <distance_score>  (1341) 
0.813465

>  <ref_mols>  (1341) 
Z0875a,Z0089a

>  <ref_pdb>  (1341) 
Z0089a

>  <HIPPO Compound ID>  (1341) 
144258

>  <name>  (1341) 
P71286

>  <inspiration_score>  (1341) 
None

$$$$
P71287
     RDKit          3D

 13 13  0  0  0  0  0  0  0  0999 V2000
   -1.6146    3.8297  -19.8915 C   0  0  0  0  0  0  0  0  0  0  0  0
   -2.4233    4.5330  -19.0960 C   0  0  0  0  0  0  0  0  0  0  0  0
   -2.8542    5.9682  -19.2650 C   0  0  0  0  0  0  0  0  0  0  0  0
   -2.3829    6.7946  -18.0665 C   0  0  0  0  0  0  0  0  0  0  0  0
   -2.2628    6.6772  -20.5081 C   0  0  0  0  0  0  0  0  0  0  0  0
   -4.3010    5.9797  -19.4552 N   0  0  0  0  0  0  0  0  0  0  0  0
   -5.2642    5.5293  -18.5848 C   0  0  0  0  0  0  0  0  0  0  0  0
   -5.3321    5.7823  -17.2145 C   0  0  0  0  0  0  0  0  0  0  0  0
   -6.3758    5.4247  -16.4239 N   0  0  0  0  0  0  0  0  0  0  0  0
   -7.3688    4.8082  -17.0823 C   0  0  0  0  0  0  0  0  0  0  0  0
   -8.4355    4.4998  -16.3118 O   0  0  0  0  0  0  0  0  0  0  0  0
   -7.3372    4.5393  -18.4328 C   0  0  0  0  0  0  0  0  0  0  0  0
   -6.2727    4.8800  -19.1949 N   0  0  0  0  0  0  0  0  0  0  0  0
  1  2  2  0
  2  3  1  0
  3  4  1  0
  3  5  1  0
  3  6  1  0
  6  7  1  0
  7  8  2  0
  8  9  1  0
  9 10  2  0
 10 11  1  0
 10 12  1  0
 12 13  2  0
 13  7  1  0
M  END
>  <energy_score>  (1342) 
-31.983951

>  <alias>  (1342) 
None

>  <HIPPO Pose ID>  (1342) 
71287

>  <smiles>  (1342) 
C=CC(C)(C)Nc1cnc(O)cn1

>  <inchikey>  (1342) 
MJJVLHMSTXPIMG-UHFFFAOYSA-N

>  <distance_score>  (1342) 
0.787679

>  <ref_mols>  (1342) 
Z0875a,Z0089a

>  <ref_pdb>  (1342) 
Z0089a

>  <HIPPO Compound ID>  (1342) 
144259

>  <name>  (1342) 
P71287

>  <inspiration_score>  (1342) 
None

$$$$
P71289
     RDKit          3D

 13 13  0  0  0  0  0  0  0  0999 V2000
   -1.6858    3.4882  -19.5432 C   0  0  0  0  0  0  0  0  0  0  0  0
   -2.2458    4.5144  -19.2785 C   0  0  0  0  0  0  0  0  0  0  0  0
   -2.8629    5.8006  -18.9185 C   0  0  0  0  0  0  0  0  0  0  0  0
   -2.3423    6.8760  -19.8888 C   0  0  0  0  0  0  0  0  0  0  0  0
   -2.3999    6.2014  -17.5163 C   0  0  0  0  0  0  0  0  0  0  0  0
   -4.3027    5.7322  -19.1226 N   0  0  0  0  0  0  0  0  0  0  0  0
   -5.3192    5.3553  -18.2885 C   0  0  0  0  0  0  0  0  0  0  0  0
   -5.4020    5.5694  -16.9159 C   0  0  0  0  0  0  0  0  0  0  0  0
   -6.4938    5.2916  -16.1609 N   0  0  0  0  0  0  0  0  0  0  0  0
   -7.5359    4.7746  -16.8413 C   0  0  0  0  0  0  0  0  0  0  0  0
   -7.4985    4.5594  -18.2085 C   0  0  0  0  0  0  0  0  0  0  0  0
   -8.7224    4.0870  -18.9269 C   0  0  0  0  0  0  0  0  0  0  0  0
   -6.3858    4.8433  -18.9359 N   0  0  0  0  0  0  0  0  0  0  0  0
  1  2  3  0
  2  3  1  0
  3  4  1  0
  3  5  1  0
  3  6  1  0
  6  7  1  0
  7  8  2  0
  8  9  1  0
  9 10  2  0
 10 11  1  0
 11 12  1  0
 11 13  2  0
 13  7  1  0
M  END
>  <energy_score>  (1343) 
-30.517451

>  <alias>  (1343) 
None

>  <HIPPO Pose ID>  (1343) 
71289

>  <smiles>  (1343) 
C#CC(C)(C)Nc1cncc(C)n1

>  <inchikey>  (1343) 
MJFHGJCHTQBZIP-UHFFFAOYSA-N

>  <distance_score>  (1343) 
0.81651

>  <ref_mols>  (1343) 
Z0875a,Z0089a

>  <ref_pdb>  (1343) 
Z0089a

>  <HIPPO Compound ID>  (1343) 
144261

>  <name>  (1343) 
P71289

>  <inspiration_score>  (1343) 
None

$$$$
P71292
     RDKit          3D

 13 13  0  0  0  0  0  0  0  0999 V2000
   -1.7613    3.5779  -19.5145 C   0  0  0  0  0  0  0  0  0  0  0  0
   -2.2962    4.6451  -19.3965 C   0  0  0  0  0  0  0  0  0  0  0  0
   -2.8732    5.9936  -19.2588 C   0  0  0  0  0  0  0  0  0  0  0  0
   -2.3182    6.6829  -18.0210 C   0  0  0  0  0  0  0  0  0  0  0  0
   -2.4077    6.8371  -20.4728 C   0  0  0  0  0  0  0  0  0  0  0  0
   -4.3250    5.9659  -19.3417 N   0  0  0  0  0  0  0  0  0  0  0  0
   -5.2596    5.4471  -18.4866 C   0  0  0  0  0  0  0  0  0  0  0  0
   -6.2467    4.8380  -19.1808 N   0  0  0  0  0  0  0  0  0  0  0  0
   -7.3387    4.4279  -18.5014 C   0  0  0  0  0  0  0  0  0  0  0  0
   -7.4491    4.5835  -17.1371 C   0  0  0  0  0  0  0  0  0  0  0  0
   -6.4828    5.1713  -16.4003 N   0  0  0  0  0  0  0  0  0  0  0  0
   -5.4037    5.5896  -17.0986 C   0  0  0  0  0  0  0  0  0  0  0  0
   -4.5634    6.2557  -16.2745 O   0  0  0  0  0  0  0  0  0  0  0  0
  1  2  3  0
  2  3  1  0
  3  4  1  0
  3  5  1  0
  3  6  1  0
  6  7  1  0
  7  8  2  0
  8  9  1  0
  9 10  2  0
 10 11  1  0
 11 12  2  0
 12 13  1  0
 12  7  1  0
M  END
>  <energy_score>  (1344) 
-34.193097

>  <alias>  (1344) 
None

>  <HIPPO Pose ID>  (1344) 
71292

>  <smiles>  (1344) 
C#CC(C)(C)Nc1nccnc1O

>  <inchikey>  (1344) 
RHVPPTPZUNLHOE-UHFFFAOYSA-N

>  <distance_score>  (1344) 
0.958513

>  <ref_mols>  (1344) 
Z0875a,Z0089a

>  <ref_pdb>  (1344) 
Z0089a

>  <HIPPO Compound ID>  (1344) 
144264

>  <name>  (1344) 
P71292

>  <inspiration_score>  (1344) 
None

$$$$
P71295
     RDKit          3D

 13 13  0  0  0  0  0  0  0  0999 V2000
   -1.7006    3.5624  -19.5767 C   0  0  0  0  0  0  0  0  0  0  0  0
   -2.2156    4.6449  -19.5439 C   0  0  0  0  0  0  0  0  0  0  0  0
   -2.7989    5.9946  -19.4876 C   0  0  0  0  0  0  0  0  0  0  0  0
   -2.2811    6.7316  -18.2548 C   0  0  0  0  0  0  0  0  0  0  0  0
   -2.3128    6.8048  -20.7112 C   0  0  0  0  0  0  0  0  0  0  0  0
   -4.2503    5.9322  -19.5979 N   0  0  0  0  0  0  0  0  0  0  0  0
   -5.1597    5.5159  -18.6575 C   0  0  0  0  0  0  0  0  0  0  0  0
   -5.2001    5.8846  -17.3166 C   0  0  0  0  0  0  0  0  0  0  0  0
   -6.2254    5.5923  -16.4770 N   0  0  0  0  0  0  0  0  0  0  0  0
   -7.2481    4.8999  -17.0290 C   0  0  0  0  0  0  0  0  0  0  0  0
   -8.4030    4.5603  -16.1467 C   0  0  0  0  0  0  0  0  0  0  0  0
   -7.2114    4.5094  -18.3580 C   0  0  0  0  0  0  0  0  0  0  0  0
   -6.1738    4.8022  -19.1767 N   0  0  0  0  0  0  0  0  0  0  0  0
  1  2  3  0
  2  3  1  0
  3  4  1  0
  3  5  1  0
  3  6  1  0
  6  7  1  0
  7  8  2  0
  8  9  1  0
  9 10  2  0
 10 11  1  0
 10 12  1  0
 12 13  2  0
 13  7  1  0
M  END
>  <energy_score>  (1345) 
-31.690397

>  <alias>  (1345) 
None

>  <HIPPO Pose ID>  (1345) 
71295

>  <smiles>  (1345) 
C#CC(C)(C)Nc1cnc(C)cn1

>  <inchikey>  (1345) 
PDGBJPJVDCHCLP-UHFFFAOYSA-N

>  <distance_score>  (1345) 
0.780664

>  <ref_mols>  (1345) 
Z0875a,Z0089a

>  <ref_pdb>  (1345) 
Z0089a

>  <HIPPO Compound ID>  (1345) 
144267

>  <name>  (1345) 
P71295

>  <inspiration_score>  (1345) 
None

$$$$
P71296
     RDKit          3D

 13 13  0  0  0  0  0  0  0  0999 V2000
   -1.6763    3.4701  -19.5329 C   0  0  0  0  0  0  0  0  0  0  0  0
   -2.1740    4.5253  -19.2593 C   0  0  0  0  0  0  0  0  0  0  0  0
   -2.7077    5.8444  -18.8901 C   0  0  0  0  0  0  0  0  0  0  0  0
   -2.0488    6.9033  -19.7922 C   0  0  0  0  0  0  0  0  0  0  0  0
   -2.3082    6.1687  -17.4485 C   0  0  0  0  0  0  0  0  0  0  0  0
   -4.1349    5.9088  -19.1791 N   0  0  0  0  0  0  0  0  0  0  0  0
   -5.1761    5.4374  -18.4211 C   0  0  0  0  0  0  0  0  0  0  0  0
   -5.3697    5.6479  -17.0550 C   0  0  0  0  0  0  0  0  0  0  0  0
   -6.4932    5.3001  -16.3794 N   0  0  0  0  0  0  0  0  0  0  0  0
   -7.4366    4.7392  -17.1491 C   0  0  0  0  0  0  0  0  0  0  0  0
   -8.5733    4.4273  -16.4886 O   0  0  0  0  0  0  0  0  0  0  0  0
   -7.2877    4.5224  -18.5016 C   0  0  0  0  0  0  0  0  0  0  0  0
   -6.1463    4.8553  -19.1500 N   0  0  0  0  0  0  0  0  0  0  0  0
  1  2  3  0
  2  3  1  0
  3  4  1  0
  3  5  1  0
  3  6  1  0
  6  7  1  0
  7  8  2  0
  8  9  1  0
  9 10  2  0
 10 11  1  0
 10 12  1  0
 12 13  2  0
 13  7  1  0
M  END
>  <energy_score>  (1346) 
-34.94464

>  <alias>  (1346) 
None

>  <HIPPO Pose ID>  (1346) 
71296

>  <smiles>  (1346) 
C#CC(C)(C)Nc1cnc(O)cn1

>  <inchikey>  (1346) 
AUUGZFROYVSWMX-UHFFFAOYSA-N

>  <distance_score>  (1346) 
0.752138

>  <ref_mols>  (1346) 
Z0875a,Z0089a

>  <ref_pdb>  (1346) 
Z0089a

>  <HIPPO Compound ID>  (1346) 
144268

>  <name>  (1346) 
P71296

>  <inspiration_score>  (1346) 
None

$$$$
P71297
     RDKit          3D

 13 13  0  0  0  0  0  0  0  0999 V2000
   -1.4390    4.0452  -19.8300 C   0  0  0  0  0  0  0  0  0  0  0  0
   -2.1725    4.9478  -19.5470 C   0  0  0  0  0  0  0  0  0  0  0  0
   -3.2336    5.8070  -18.9883 C   0  0  0  0  0  0  0  0  0  0  0  0
   -2.6010    6.7701  -17.9924 C   0  0  0  0  0  0  0  0  0  0  0  0
   -3.9326    6.5951  -20.0943 C   0  0  0  0  0  0  0  0  0  0  0  0
   -4.0951    4.8111  -18.3534 N   0  0  0  0  0  0  0  0  0  0  0  0
   -5.3882    5.0555  -17.9492 C   0  0  0  0  0  0  0  0  0  0  0  0
   -6.2912    4.6192  -18.8518 N   0  0  0  0  0  0  0  0  0  0  0  0
   -7.5694    4.5381  -18.4388 C   0  0  0  0  0  0  0  0  0  0  0  0
   -7.9395    4.8930  -17.1611 C   0  0  0  0  0  0  0  0  0  0  0  0
   -7.0689    5.4200  -16.2715 N   0  0  0  0  0  0  0  0  0  0  0  0
   -5.7692    5.4631  -16.6643 C   0  0  0  0  0  0  0  0  0  0  0  0
   -4.7984    5.8746  -15.6037 C   0  0  0  0  0  0  0  0  0  0  0  0
  1  2  3  0
  2  3  1  0
  3  4  1  0
  3  5  1  0
  3  6  1  0
  6  7  1  0
  7  8  2  0
  8  9  1  0
  9 10  2  0
 10 11  1  0
 11 12  2  0
 12 13  1  0
 12  7  1  0
M  END
>  <energy_score>  (1347) 
-20.580992

>  <alias>  (1347) 
None

>  <HIPPO Pose ID>  (1347) 
71297

>  <smiles>  (1347) 
C#CC(C)(C)Nc1nccnc1C

>  <inchikey>  (1347) 
LWSVPTCEHSCDTL-UHFFFAOYSA-N

>  <distance_score>  (1347) 
1.164955

>  <ref_mols>  (1347) 
Z0875a,Z0089a

>  <ref_pdb>  (1347) 
Z0089a

>  <HIPPO Compound ID>  (1347) 
144269

>  <name>  (1347) 
P71297

>  <inspiration_score>  (1347) 
None

$$$$
P71298
     RDKit          3D

 13 13  0  0  0  0  0  0  0  0999 V2000
   -1.8391    3.6613  -19.3323 C   0  0  0  0  0  0  0  0  0  0  0  0
   -1.7846    4.8986  -19.8341 C   0  0  0  0  0  0  0  0  0  0  0  0
   -2.8635    5.9424  -19.7809 C   0  0  2  0  0  0  0  0  0  0  0  0
   -2.5846    7.0127  -18.7415 C   0  0  0  0  0  0  0  0  0  0  0  0
   -4.1641    5.3199  -19.7396 N   0  0  0  0  0  0  0  0  0  0  0  0
   -5.0917    5.1460  -18.7669 C   0  0  0  0  0  0  0  0  0  0  0  0
   -4.9206    5.2508  -17.3898 C   0  0  0  0  0  0  0  0  0  0  0  0
   -5.9208    5.0847  -16.4862 N   0  0  0  0  0  0  0  0  0  0  0  0
   -7.1155    4.7445  -17.0310 C   0  0  0  0  0  0  0  0  0  0  0  0
   -8.2196    4.5171  -16.0962 C   0  0  0  0  0  0  0  0  0  0  0  0
   -9.3583    4.2927  -16.4853 O   0  0  0  0  0  0  0  0  0  0  0  0
   -7.3088    4.6125  -18.3895 C   0  0  0  0  0  0  0  0  0  0  0  0
   -6.2974    4.8124  -19.2639 N   0  0  0  0  0  0  0  0  0  0  0  0
  1  2  2  0
  2  3  1  0
  3  4  1  1
  3  5  1  0
  5  6  1  0
  6  7  2  0
  7  8  1  0
  8  9  2  0
  9 10  1  0
 10 11  2  0
  9 12  1  0
 12 13  2  0
 13  6  1  0
M  END
>  <energy_score>  (1348) 
-14.19595

>  <alias>  (1348) 
None

>  <HIPPO Pose ID>  (1348) 
71298

>  <smiles>  (1348) 
C=C[C@H](C)Nc1cnc(C=O)cn1

>  <inchikey>  (1348) 
UUBDGAAIXGLIIQ-ZETCQYMHSA-N

>  <distance_score>  (1348) 
0.726715

>  <ref_mols>  (1348) 
Z0875a,Z0089a

>  <ref_pdb>  (1348) 
Z0089a

>  <HIPPO Compound ID>  (1348) 
144270

>  <name>  (1348) 
P71298

>  <inspiration_score>  (1348) 
None

$$$$
P71300
     RDKit          3D

 13 13  0  0  0  0  0  0  0  0999 V2000
   -1.6749    3.8116  -19.4865 C   0  0  0  0  0  0  0  0  0  0  0  0
   -1.9933    5.0708  -19.8147 C   0  0  0  0  0  0  0  0  0  0  0  0
   -3.2153    5.8252  -19.3259 C   0  0  2  0  0  0  0  0  0  0  0  0
   -2.7570    6.9023  -18.3625 C   0  0  0  0  0  0  0  0  0  0  0  0
   -4.1160    4.8201  -18.7971 N   0  0  0  0  0  0  0  0  0  0  0  0
   -5.3020    5.0774  -18.1481 C   0  0  0  0  0  0  0  0  0  0  0  0
   -6.3599    4.6283  -18.8606 N   0  0  0  0  0  0  0  0  0  0  0  0
   -7.5477    4.6005  -18.2278 C   0  0  0  0  0  0  0  0  0  0  0  0
   -7.6874    5.0277  -16.9226 C   0  0  0  0  0  0  0  0  0  0  0  0
   -6.6685    5.5628  -16.2114 N   0  0  0  0  0  0  0  0  0  0  0  0
   -5.4630    5.5545  -16.8309 C   0  0  0  0  0  0  0  0  0  0  0  0
   -4.3569    5.9342  -16.0994 O   0  0  0  0  0  0  0  0  0  0  0  0
   -4.6504    6.5380  -14.8480 C   0  0  0  0  0  0  0  0  0  0  0  0
  1  2  2  0
  2  3  1  0
  3  4  1  1
  3  5  1  0
  5  6  1  0
  6  7  2  0
  7  8  1  0
  8  9  2  0
  9 10  1  0
 10 11  2  0
 11 12  1  0
 12 13  1  0
 11  6  1  0
M  END
>  <energy_score>  (1349) 
-16.501025

>  <alias>  (1349) 
None

>  <HIPPO Pose ID>  (1349) 
71300

>  <smiles>  (1349) 
C=C[C@H](C)Nc1nccnc1OC

>  <inchikey>  (1349) 
YIGVKTJAOCUYLT-ZETCQYMHSA-N

>  <distance_score>  (1349) 
0.937563

>  <ref_mols>  (1349) 
Z0875a,Z0089a

>  <ref_pdb>  (1349) 
Z0089a

>  <HIPPO Compound ID>  (1349) 
144271

>  <name>  (1349) 
P71300

>  <inspiration_score>  (1349) 
None

$$$$
P71303
     RDKit          3D

 13 13  0  0  0  0  0  0  0  0999 V2000
   -3.9164    6.8119  -15.2430 C   0  0  0  0  0  0  0  0  0  0  0  0
   -4.6067    6.2421  -16.0459 C   0  0  0  0  0  0  0  0  0  0  0  0
   -5.4684    5.5636  -16.9717 C   0  0  0  0  0  0  0  0  0  0  0  0
   -6.6493    5.2297  -16.3881 N   0  0  0  0  0  0  0  0  0  0  0  0
   -7.5638    4.6622  -17.2028 C   0  0  0  0  0  0  0  0  0  0  0  0
   -7.3248    4.4513  -18.5438 C   0  0  0  0  0  0  0  0  0  0  0  0
   -6.1473    4.7722  -19.1221 N   0  0  0  0  0  0  0  0  0  0  0  0
   -5.2047    5.3435  -18.3388 C   0  0  0  0  0  0  0  0  0  0  0  0
   -4.1136    5.7416  -19.0813 N   0  0  0  0  0  0  0  0  0  0  0  0
   -2.7449    5.5511  -18.6478 C   0  0  1  0  0  0  0  0  0  0  0  0
   -2.1573    4.2795  -19.2553 C   0  0  0  0  0  0  0  0  0  0  0  0
   -1.9247    6.7425  -19.0935 C   0  0  0  0  0  0  0  0  0  0  0  0
   -2.3325    7.8238  -19.7760 C   0  0  0  0  0  0  0  0  0  0  0  0
  1  2  3  0
  2  3  1  0
  3  4  2  0
  4  5  1  0
  5  6  2  0
  6  7  1  0
  7  8  2  0
  8  9  1  0
  9 10  1  0
 10 11  1  6
 10 12  1  0
 12 13  2  0
  8  3  1  0
M  END
>  <energy_score>  (1350) 
-21.164483

>  <alias>  (1350) 
None

>  <HIPPO Pose ID>  (1350) 
71303

>  <smiles>  (1350) 
C#Cc1nccnc1N[C@@H](C)C=C

>  <inchikey>  (1350) 
APESGAPVGCTOSD-QMMMGPOBSA-N

>  <distance_score>  (1350) 
0.836144

>  <ref_mols>  (1350) 
Z0875a,Z0089a

>  <ref_pdb>  (1350) 
Z0089a

>  <HIPPO Compound ID>  (1350) 
144272

>  <name>  (1350) 
P71303

>  <inspiration_score>  (1350) 
None

$$$$
P71304
     RDKit          3D

 13 13  0  0  0  0  0  0  0  0999 V2000
   -9.8423    4.0789  -18.1978 C   0  0  0  0  0  0  0  0  0  0  0  0
   -8.6612    4.2741  -18.1119 C   0  0  0  0  0  0  0  0  0  0  0  0
   -7.3049    4.6052  -17.8187 C   0  0  0  0  0  0  0  0  0  0  0  0
   -6.9392    4.8467  -16.5043 C   0  0  0  0  0  0  0  0  0  0  0  0
   -5.7008    5.2521  -16.1577 N   0  0  0  0  0  0  0  0  0  0  0  0
   -4.8442    5.3721  -17.2007 C   0  0  0  0  0  0  0  0  0  0  0  0
   -5.1848    5.1296  -18.5369 C   0  0  0  0  0  0  0  0  0  0  0  0
   -4.3423    5.2984  -19.6044 N   0  0  0  0  0  0  0  0  0  0  0  0
   -2.9171    5.5551  -19.6247 C   0  0  2  0  0  0  0  0  0  0  0  0
   -2.1079    4.4127  -19.0192 C   0  0  0  0  0  0  0  0  0  0  0  0
   -2.5526    6.9044  -19.0534 C   0  0  0  0  0  0  0  0  0  0  0  0
   -3.3477    7.9808  -18.9541 C   0  0  0  0  0  0  0  0  0  0  0  0
   -6.4426    4.7448  -18.8514 N   0  0  0  0  0  0  0  0  0  0  0  0
  1  2  3  0
  2  3  1  0
  3  4  2  0
  4  5  1  0
  5  6  2  0
  6  7  1  0
  7  8  1  0
  8  9  1  0
  9 10  1  1
  9 11  1  0
 11 12  2  0
  7 13  2  0
 13  3  1  0
M  END
>  <energy_score>  (1351) 
-20.080865

>  <alias>  (1351) 
None

>  <HIPPO Pose ID>  (1351) 
71304

>  <smiles>  (1351) 
C#Cc1cncc(N[C@H](C)C=C)n1

>  <inchikey>  (1351) 
DNKVPNVICMEAPB-MRVPVSSYSA-N

>  <distance_score>  (1351) 
1.038145

>  <ref_mols>  (1351) 
Z0875a,Z0089a

>  <ref_pdb>  (1351) 
Z0089a

>  <HIPPO Compound ID>  (1351) 
144273

>  <name>  (1351) 
P71304

>  <inspiration_score>  (1351) 
None

$$$$
P71310
     RDKit          3D

 13 13  0  0  0  0  0  0  0  0999 V2000
   -1.6562    3.6463  -19.7865 C   0  0  0  0  0  0  0  0  0  0  0  0
   -2.4021    4.4747  -19.0500 C   0  0  0  0  0  0  0  0  0  0  0  0
   -3.0702    5.6978  -19.5952 C   0  0  2  0  0  0  0  0  0  0  0  0
   -2.5918    6.9896  -18.9448 C   0  0  0  0  0  0  0  0  0  0  0  0
   -4.5072    5.5335  -19.5767 N   0  0  0  0  0  0  0  0  0  0  0  0
   -5.3478    5.2762  -18.5293 C   0  0  0  0  0  0  0  0  0  0  0  0
   -5.0634    5.5072  -17.1815 C   0  0  0  0  0  0  0  0  0  0  0  0
   -5.9409    5.3014  -16.1700 N   0  0  0  0  0  0  0  0  0  0  0  0
   -7.1429    4.8271  -16.5575 C   0  0  0  0  0  0  0  0  0  0  0  0
   -7.4534    4.5921  -17.8852 C   0  0  0  0  0  0  0  0  0  0  0  0
   -8.7723    4.1464  -18.2064 C   0  0  0  0  0  0  0  0  0  0  0  0
   -9.8780    3.7997  -18.2772 N   0  0  0  0  0  0  0  0  0  0  0  0
   -6.5630    4.8083  -18.8852 N   0  0  0  0  0  0  0  0  0  0  0  0
  1  2  2  0
  2  3  1  0
  3  4  1  1
  3  5  1  0
  5  6  1  0
  6  7  2  0
  7  8  1  0
  8  9  2  0
  9 10  1  0
 10 11  1  0
 11 12  3  0
 10 13  2  0
 13  6  1  0
M  END
>  <energy_score>  (1352) 
-18.938101

>  <alias>  (1352) 
None

>  <HIPPO Pose ID>  (1352) 
71310

>  <smiles>  (1352) 
C=C[C@H](C)Nc1cncc(C#N)n1

>  <inchikey>  (1352) 
FBKTWSBKNFDIPN-ZETCQYMHSA-N

>  <distance_score>  (1352) 
0.770846

>  <ref_mols>  (1352) 
Z0875a,Z0089a

>  <ref_pdb>  (1352) 
Z0089a

>  <HIPPO Compound ID>  (1352) 
144276

>  <name>  (1352) 
P71310

>  <inspiration_score>  (1352) 
None

$$$$
P71314
     RDKit          3D

 13 13  0  0  0  0  0  0  0  0999 V2000
   -1.6728    3.5281  -19.7958 C   0  0  0  0  0  0  0  0  0  0  0  0
   -2.2088    4.5301  -19.0951 C   0  0  0  0  0  0  0  0  0  0  0  0
   -2.5724    5.8572  -19.6850 C   0  0  2  0  0  0  0  0  0  0  0  0
   -1.9114    7.0245  -18.9637 C   0  0  0  0  0  0  0  0  0  0  0  0
   -4.0136    6.0138  -19.8062 N   0  0  0  0  0  0  0  0  0  0  0  0
   -4.8674    5.6662  -18.7811 C   0  0  0  0  0  0  0  0  0  0  0  0
   -4.7528    6.0709  -17.4566 C   0  0  0  0  0  0  0  0  0  0  0  0
   -5.6009    5.6836  -16.4812 N   0  0  0  0  0  0  0  0  0  0  0  0
   -6.6203    4.8836  -16.8746 C   0  0  0  0  0  0  0  0  0  0  0  0
   -7.5108    4.3929  -15.7854 C   0  0  0  0  0  0  0  0  0  0  0  0
   -9.3130    4.1352  -16.3998 Br  0  0  0  0  0  0  0  0  0  0  0  0
   -6.7512    4.5067  -18.2063 C   0  0  0  0  0  0  0  0  0  0  0  0
   -5.8837    4.8846  -19.1656 N   0  0  0  0  0  0  0  0  0  0  0  0
  1  2  2  0
  2  3  1  0
  3  4  1  1
  3  5  1  0
  5  6  1  0
  6  7  2  0
  7  8  1  0
  8  9  2  0
  9 10  1  0
 10 11  1  0
  9 12  1  0
 12 13  2  0
 13  6  1  0
M  END
>  <energy_score>  (1353) 
-124.869571

>  <alias>  (1353) 
None

>  <HIPPO Pose ID>  (1353) 
71314

>  <smiles>  (1353) 
C=C[C@H](C)Nc1cnc(CBr)cn1

>  <inchikey>  (1353) 
AIIUPDVLDUUBPR-ZETCQYMHSA-N

>  <distance_score>  (1353) 
0.908626

>  <ref_mols>  (1353) 
Z0875a,Z0089a

>  <ref_pdb>  (1353) 
Z0089a

>  <HIPPO Compound ID>  (1353) 
144278

>  <name>  (1353) 
P71314

>  <inspiration_score>  (1353) 
None

$$$$
P71318
     RDKit          3D

 13 13  0  0  0  0  0  0  0  0999 V2000
   -1.6608    3.6387  -19.7679 C   0  0  0  0  0  0  0  0  0  0  0  0
   -2.4325    4.4448  -19.0332 C   0  0  0  0  0  0  0  0  0  0  0  0
   -3.0313    5.7138  -19.5498 C   0  0  2  0  0  0  0  0  0  0  0  0
   -2.5155    6.9570  -18.8368 C   0  0  0  0  0  0  0  0  0  0  0  0
   -4.4733    5.6195  -19.5804 N   0  0  0  0  0  0  0  0  0  0  0  0
   -5.3463    5.3323  -18.5643 C   0  0  0  0  0  0  0  0  0  0  0  0
   -5.1366    5.5716  -17.2092 C   0  0  0  0  0  0  0  0  0  0  0  0
   -6.0632    5.3474  -16.2492 N   0  0  0  0  0  0  0  0  0  0  0  0
   -7.2341    4.8460  -16.7070 C   0  0  0  0  0  0  0  0  0  0  0  0
   -7.4826    4.6008  -18.0503 C   0  0  0  0  0  0  0  0  0  0  0  0
   -8.6589    4.1424  -18.5712 O   0  0  0  0  0  0  0  0  0  0  0  0
   -9.7252    3.9643  -17.6557 C   0  0  0  0  0  0  0  0  0  0  0  0
   -6.5291    4.8372  -18.9779 N   0  0  0  0  0  0  0  0  0  0  0  0
  1  2  2  0
  2  3  1  0
  3  4  1  1
  3  5  1  0
  5  6  1  0
  6  7  2  0
  7  8  1  0
  8  9  2  0
  9 10  1  0
 10 11  1  0
 11 12  1  0
 10 13  2  0
 13  6  1  0
M  END
>  <energy_score>  (1354) 
-21.120308

>  <alias>  (1354) 
None

>  <HIPPO Pose ID>  (1354) 
71318

>  <smiles>  (1354) 
C=C[C@H](C)Nc1cncc(OC)n1

>  <inchikey>  (1354) 
FIRUGANSCAYDSV-ZETCQYMHSA-N

>  <distance_score>  (1354) 
0.781485

>  <ref_mols>  (1354) 
Z0875a,Z0089a

>  <ref_pdb>  (1354) 
Z0089a

>  <HIPPO Compound ID>  (1354) 
144280

>  <name>  (1354) 
P71318

>  <inspiration_score>  (1354) 
None

$$$$
P71320
     RDKit          3D

 13 13  0  0  0  0  0  0  0  0999 V2000
   -1.6556    3.5221  -19.7516 C   0  0  0  0  0  0  0  0  0  0  0  0
   -2.2992    4.4489  -19.0372 C   0  0  0  0  0  0  0  0  0  0  0  0
   -2.7701    5.7458  -19.6115 C   0  0  2  0  0  0  0  0  0  0  0  0
   -2.2270    6.9641  -18.8770 C   0  0  0  0  0  0  0  0  0  0  0  0
   -4.2097    5.7424  -19.7493 N   0  0  0  0  0  0  0  0  0  0  0  0
   -5.1271    5.4750  -18.7666 C   0  0  0  0  0  0  0  0  0  0  0  0
   -5.0461    5.8638  -17.4351 C   0  0  0  0  0  0  0  0  0  0  0  0
   -6.0406    5.6866  -16.5372 N   0  0  0  0  0  0  0  0  0  0  0  0
   -7.1534    5.0891  -17.0090 C   0  0  0  0  0  0  0  0  0  0  0  0
   -8.1339    5.0112  -16.0727 O   0  0  0  0  0  0  0  0  0  0  0  0
   -9.2448    4.2017  -16.4091 C   0  0  0  0  0  0  0  0  0  0  0  0
   -7.2408    4.6828  -18.3319 C   0  0  0  0  0  0  0  0  0  0  0  0
   -6.2279    4.8504  -19.2147 N   0  0  0  0  0  0  0  0  0  0  0  0
  1  2  2  0
  2  3  1  0
  3  4  1  1
  3  5  1  0
  5  6  1  0
  6  7  2  0
  7  8  1  0
  8  9  2  0
  9 10  1  0
 10 11  1  0
  9 12  1  0
 12 13  2  0
 13  6  1  0
M  END
>  <energy_score>  (1355) 
-14.762296

>  <alias>  (1355) 
None

>  <HIPPO Pose ID>  (1355) 
71320

>  <smiles>  (1355) 
C=C[C@H](C)Nc1cnc(OC)cn1

>  <inchikey>  (1355) 
TVPZYBBWAULZLF-ZETCQYMHSA-N

>  <distance_score>  (1355) 
0.752591

>  <ref_mols>  (1355) 
Z0875a,Z0089a

>  <ref_pdb>  (1355) 
Z0089a

>  <HIPPO Compound ID>  (1355) 
144281

>  <name>  (1355) 
P71320

>  <inspiration_score>  (1355) 
None

$$$$
P71326
     RDKit          3D

 13 13  0  0  0  0  0  0  0  0999 V2000
   -1.5262    3.8922  -19.8415 C   0  0  0  0  0  0  0  0  0  0  0  0
   -2.4205    4.4106  -18.9985 C   0  0  0  0  0  0  0  0  0  0  0  0
   -2.8691    5.8374  -18.9120 C   0  0  1  0  0  0  0  0  0  0  0  0
   -2.0901    6.8329  -19.7688 C   0  0  0  0  0  0  0  0  0  0  0  0
   -4.2584    5.8921  -19.3166 N   0  0  0  0  0  0  0  0  0  0  0  0
   -5.2481    5.4896  -18.4398 C   0  0  0  0  0  0  0  0  0  0  0  0
   -5.2469    5.7530  -17.0714 C   0  0  0  0  0  0  0  0  0  0  0  0
   -6.2465    5.3952  -16.2372 N   0  0  0  0  0  0  0  0  0  0  0  0
   -7.2999    4.7711  -16.8214 C   0  0  0  0  0  0  0  0  0  0  0  0
   -8.4394    4.3934  -15.9201 C   0  0  0  0  0  0  0  0  0  0  0  0
   -9.6028    4.0011  -16.6410 O   0  0  0  0  0  0  0  0  0  0  0  0
   -7.3116    4.5186  -18.1863 C   0  0  0  0  0  0  0  0  0  0  0  0
   -6.2872    4.8578  -19.0046 N   0  0  0  0  0  0  0  0  0  0  0  0
  1  2  2  0
  2  3  1  0
  3  4  1  6
  3  5  1  0
  5  6  1  0
  6  7  2  0
  7  8  1  0
  8  9  2  0
  9 10  1  0
 10 11  1  0
  9 12  1  0
 12 13  2  0
 13  6  1  0
M  END
>  <energy_score>  (1356) 
-30.762143

>  <alias>  (1356) 
None

>  <HIPPO Pose ID>  (1356) 
71326

>  <smiles>  (1356) 
C=C[C@@H](C)Nc1cnc(CO)cn1

>  <inchikey>  (1356) 
HAQRSKGCMXIWBW-SSDOTTSWSA-N

>  <distance_score>  (1356) 
0.857991

>  <ref_mols>  (1356) 
Z0875a,Z0089a

>  <ref_pdb>  (1356) 
Z0089a

>  <HIPPO Compound ID>  (1356) 
144284

>  <name>  (1356) 
P71326

>  <inspiration_score>  (1356) 
None

$$$$
P71327
     RDKit          3D

 13 13  0  0  0  0  0  0  0  0999 V2000
   -1.9662    4.5039  -18.8006 C   0  0  0  0  0  0  0  0  0  0  0  0
   -2.6649    5.7524  -19.3356 C   0  0  0  0  0  0  0  0  0  0  0  0
   -2.4648    6.9634  -18.4138 C   0  0  0  0  0  0  0  0  0  0  0  0
   -2.0069    6.1619  -20.6921 C   0  0  0  0  0  0  0  0  0  0  0  0
   -1.8374    5.0631  -21.5862 O   0  0  0  0  0  0  0  0  0  0  0  0
   -4.0879    5.4782  -19.5472 N   0  0  0  0  0  0  0  0  0  0  0  0
   -5.1021    5.2016  -18.6697 C   0  0  0  0  0  0  0  0  0  0  0  0
   -5.0178    5.1764  -17.2748 C   0  0  0  0  0  0  0  0  0  0  0  0
   -6.0698    4.9548  -16.4428 N   0  0  0  0  0  0  0  0  0  0  0  0
   -7.2373    4.6996  -17.0698 C   0  0  0  0  0  0  0  0  0  0  0  0
   -7.3345    4.7181  -18.4437 C   0  0  0  0  0  0  0  0  0  0  0  0
   -8.5308    4.5541  -19.0651 O   0  0  0  0  0  0  0  0  0  0  0  0
   -6.2946    4.9764  -19.2582 N   0  0  0  0  0  0  0  0  0  0  0  0
  1  2  1  0
  2  3  1  0
  2  4  1  0
  4  5  1  0
  2  6  1  0
  6  7  1  0
  7  8  2  0
  8  9  1  0
  9 10  2  0
 10 11  1  0
 11 12  1  0
 11 13  2  0
 13  7  1  0
M  END
>  <energy_score>  (1357) 
-45.272466

>  <alias>  (1357) 
None

>  <HIPPO Pose ID>  (1357) 
71327

>  <smiles>  (1357) 
CC(C)(CO)Nc1cncc(O)n1

>  <inchikey>  (1357) 
YGUUIKGKIHAZAM-UHFFFAOYSA-N

>  <distance_score>  (1357) 
0.717971

>  <ref_mols>  (1357) 
Z0875a,Z0089a

>  <ref_pdb>  (1357) 
Z0089a

>  <HIPPO Compound ID>  (1357) 
144285

>  <name>  (1357) 
P71327

>  <inspiration_score>  (1357) 
None

$$$$
P71331
     RDKit          3D

 13 13  0  0  0  0  0  0  0  0999 V2000
   -4.5144    6.4363  -16.1085 C   0  0  0  0  0  0  0  0  0  0  0  0
   -5.3705    5.6753  -17.0629 C   0  0  0  0  0  0  0  0  0  0  0  0
   -6.5171    5.2138  -16.4812 N   0  0  0  0  0  0  0  0  0  0  0  0
   -7.4031    4.5977  -17.2873 C   0  0  0  0  0  0  0  0  0  0  0  0
   -7.1650    4.4345  -18.6289 C   0  0  0  0  0  0  0  0  0  0  0  0
   -6.0215    4.8583  -19.2057 N   0  0  0  0  0  0  0  0  0  0  0  0
   -5.1157    5.4968  -18.4320 C   0  0  0  0  0  0  0  0  0  0  0  0
   -4.1400    6.0400  -19.2363 N   0  0  0  0  0  0  0  0  0  0  0  0
   -2.6790    5.8221  -19.2196 C   0  0  0  0  0  0  0  0  0  0  0  0
   -2.3092    4.3398  -19.1987 C   0  0  0  0  0  0  0  0  0  0  0  0
   -1.9800    6.5646  -18.0891 C   0  0  0  0  0  0  0  0  0  0  0  0
   -2.1294    6.4521  -20.5451 C   0  0  0  0  0  0  0  0  0  0  0  0
   -2.8241    5.9630  -21.6991 O   0  0  0  0  0  0  0  0  0  0  0  0
  1  2  1  0
  2  3  2  0
  3  4  1  0
  4  5  2  0
  5  6  1  0
  6  7  2  0
  7  8  1  0
  8  9  1  0
  9 10  1  0
  9 11  1  0
  9 12  1  0
 12 13  1  0
  7  2  1  0
M  END
>  <energy_score>  (1358) 
-30.801742

>  <alias>  (1358) 
None

>  <HIPPO Pose ID>  (1358) 
71331

>  <smiles>  (1358) 
Cc1nccnc1NC(C)(C)CO

>  <inchikey>  (1358) 
CLAUFWJEKOWXBF-UHFFFAOYSA-N

>  <distance_score>  (1358) 
1.182707

>  <ref_mols>  (1358) 
Z0875a,Z0089a

>  <ref_pdb>  (1358) 
Z0089a

>  <HIPPO Compound ID>  (1358) 
144289

>  <name>  (1358) 
P71331

>  <inspiration_score>  (1358) 
None

$$$$
P71333
     RDKit          3D

 13 13  0  0  0  0  0  0  0  0999 V2000
   -1.6112    3.7762  -19.7052 C   0  0  0  0  0  0  0  0  0  0  0  0
   -1.9195    5.2594  -19.7967 C   0  0  0  0  0  0  0  0  0  0  0  0
   -2.7945    5.8016  -18.6346 C   0  0  0  0  0  0  0  0  0  0  0  0
   -3.0061    7.2968  -18.8787 C   0  0  0  0  0  0  0  0  0  0  0  0
   -2.0547    5.5632  -17.3178 C   0  0  0  0  0  0  0  0  0  0  0  0
   -4.0585    5.0883  -18.7286 N   0  0  0  0  0  0  0  0  0  0  0  0
   -5.2713    5.1200  -18.1277 C   0  0  0  0  0  0  0  0  0  0  0  0
   -6.1883    4.6559  -19.0101 N   0  0  0  0  0  0  0  0  0  0  0  0
   -7.4577    4.4972  -18.5898 C   0  0  0  0  0  0  0  0  0  0  0  0
   -7.8305    4.7989  -17.3061 C   0  0  0  0  0  0  0  0  0  0  0  0
   -6.9632    5.3224  -16.4185 N   0  0  0  0  0  0  0  0  0  0  0  0
   -5.6681    5.4609  -16.8295 C   0  0  0  0  0  0  0  0  0  0  0  0
   -4.7769    5.9647  -15.7464 C   0  0  0  0  0  0  0  0  0  0  0  0
  1  2  1  0
  2  3  1  0
  3  4  1  0
  3  5  1  0
  3  6  1  0
  6  7  1  0
  7  8  2  0
  8  9  1  0
  9 10  2  0
 10 11  1  0
 11 12  2  0
 12 13  1  0
 12  7  1  0
M  END
>  <energy_score>  (1359) 
-13.352387

>  <alias>  (1359) 
None

>  <HIPPO Pose ID>  (1359) 
71333

>  <smiles>  (1359) 
CCC(C)(C)Nc1nccnc1C

>  <inchikey>  (1359) 
KOLPCFQZESERGQ-UHFFFAOYSA-N

>  <distance_score>  (1359) 
1.111445

>  <ref_mols>  (1359) 
Z0875a,Z0089a

>  <ref_pdb>  (1359) 
Z0089a

>  <HIPPO Compound ID>  (1359) 
144291

>  <name>  (1359) 
P71333

>  <inspiration_score>  (1359) 
None

$$$$
P71335
     RDKit          3D

 13 13  0  0  0  0  0  0  0  0999 V2000
   -1.7194    3.6639  -19.5346 C   0  0  0  0  0  0  0  0  0  0  0  0
   -1.6690    5.0546  -18.9305 C   0  0  0  0  0  0  0  0  0  0  0  0
   -2.6715    6.0538  -19.5437 C   0  0  0  0  0  0  0  0  0  0  0  0
   -2.7941    7.3042  -18.6619 C   0  0  0  0  0  0  0  0  0  0  0  0
   -2.1155    6.5520  -20.8983 C   0  0  0  0  0  0  0  0  0  0  0  0
   -3.9738    5.4234  -19.7766 N   0  0  0  0  0  0  0  0  0  0  0  0
   -4.9860    5.1351  -18.9078 C   0  0  0  0  0  0  0  0  0  0  0  0
   -4.8847    5.0279  -17.5350 C   0  0  0  0  0  0  0  0  0  0  0  0
   -5.9844    4.7764  -16.7866 N   0  0  0  0  0  0  0  0  0  0  0  0
   -5.8457    4.7059  -15.3346 C   0  0  0  0  0  0  0  0  0  0  0  0
   -7.1838    4.5734  -17.3773 C   0  0  0  0  0  0  0  0  0  0  0  0
   -7.2528    4.6419  -18.7497 C   0  0  0  0  0  0  0  0  0  0  0  0
   -6.1697    4.9254  -19.4983 N   0  0  0  0  0  0  0  0  0  0  0  0
  1  2  1  0
  2  3  1  0
  3  4  1  0
  3  5  1  0
  3  6  1  0
  6  7  1  0
  7  8  2  0
  8  9  1  0
  9 10  1  0
  9 11  2  0
 11 12  1  0
 12 13  2  0
 13  7  1  0
M  CHG  1   9   1
M  END
>  <energy_score>  (1360) 
-33.65549

>  <alias>  (1360) 
None

>  <HIPPO Pose ID>  (1360) 
71335

>  <smiles>  (1360) 
CCC(C)(C)Nc1c[n+](C)ccn1

>  <inchikey>  (1360) 
OZPHYCZYIMBEMM-UHFFFAOYSA-N

>  <distance_score>  (1360) 
0.858393

>  <ref_mols>  (1360) 
Z0875a,Z0089a

>  <ref_pdb>  (1360) 
Z0089a

>  <HIPPO Compound ID>  (1360) 
144293

>  <name>  (1360) 
P71335

>  <inspiration_score>  (1360) 
None

$$$$
P71337
     RDKit          3D

 13 13  0  0  0  0  0  0  0  0999 V2000
   -1.6007    5.9701  -20.8480 C   0  0  0  0  0  0  0  0  0  0  0  0
   -1.8536    5.0535  -19.6540 C   0  0  0  0  0  0  0  0  0  0  0  0
   -2.8080    5.6398  -18.5643 C   0  0  0  0  0  0  0  0  0  0  0  0
   -2.4269    7.0925  -18.2531 C   0  0  0  0  0  0  0  0  0  0  0  0
   -2.6179    4.7702  -17.3187 C   0  0  0  0  0  0  0  0  0  0  0  0
   -4.1728    5.6174  -19.0900 N   0  0  0  0  0  0  0  0  0  0  0  0
   -5.3341    5.3478  -18.4079 C   0  0  0  0  0  0  0  0  0  0  0  0
   -6.2112    4.6709  -19.1791 N   0  0  0  0  0  0  0  0  0  0  0  0
   -7.4178    4.3843  -18.6437 C   0  0  0  0  0  0  0  0  0  0  0  0
   -7.7453    4.7212  -17.3472 C   0  0  0  0  0  0  0  0  0  0  0  0
   -6.9059    5.4116  -16.5467 N   0  0  0  0  0  0  0  0  0  0  0  0
   -5.7166    5.7174  -17.1067 C   0  0  0  0  0  0  0  0  0  0  0  0
   -4.9829    6.4729  -16.2523 O   0  0  0  0  0  0  0  0  0  0  0  0
  1  2  1  0
  2  3  1  0
  3  4  1  0
  3  5  1  0
  3  6  1  0
  6  7  1  0
  7  8  2  0
  8  9  1  0
  9 10  2  0
 10 11  1  0
 11 12  2  0
 12 13  1  0
 12  7  1  0
M  END
>  <energy_score>  (1361) 
-26.838089

>  <alias>  (1361) 
None

>  <HIPPO Pose ID>  (1361) 
71337

>  <smiles>  (1361) 
CCC(C)(C)Nc1nccnc1O

>  <inchikey>  (1361) 
JTTSAAXDTNQZBO-UHFFFAOYSA-N

>  <distance_score>  (1361) 
1.050119

>  <ref_mols>  (1361) 
Z0875a,Z0089a

>  <ref_pdb>  (1361) 
Z0089a

>  <HIPPO Compound ID>  (1361) 
144295

>  <name>  (1361) 
P71337

>  <inspiration_score>  (1361) 
None

$$$$
P71338
     RDKit          3D

 13 13  0  0  0  0  0  0  0  0999 V2000
   -1.7029    3.6293  -19.7455 C   0  0  0  0  0  0  0  0  0  0  0  0
   -1.6940    5.1442  -19.8002 C   0  0  0  0  0  0  0  0  0  0  0  0
   -2.6439    5.8189  -18.7829 C   0  0  0  0  0  0  0  0  0  0  0  0
   -2.4690    7.3375  -18.9154 C   0  0  0  0  0  0  0  0  0  0  0  0
   -2.2540    5.3801  -17.3634 C   0  0  0  0  0  0  0  0  0  0  0  0
   -4.0123    5.4890  -19.1670 N   0  0  0  0  0  0  0  0  0  0  0  0
   -5.1418    5.3592  -18.4154 C   0  0  0  0  0  0  0  0  0  0  0  0
   -5.3627    5.8900  -17.1499 C   0  0  0  0  0  0  0  0  0  0  0  0
   -6.4920    5.6932  -16.4287 N   0  0  0  0  0  0  0  0  0  0  0  0
   -7.4394    4.9435  -17.0356 C   0  0  0  0  0  0  0  0  0  0  0  0
   -8.6619    4.6124  -16.2472 C   0  0  0  0  0  0  0  0  0  0  0  0
   -7.2566    4.4598  -18.3218 C   0  0  0  0  0  0  0  0  0  0  0  0
   -6.1127    4.6520  -19.0189 N   0  0  0  0  0  0  0  0  0  0  0  0
  1  2  1  0
  2  3  1  0
  3  4  1  0
  3  5  1  0
  3  6  1  0
  6  7  1  0
  7  8  2  0
  8  9  1  0
  9 10  2  0
 10 11  1  0
 10 12  1  0
 12 13  2  0
 13  7  1  0
M  END
>  <energy_score>  (1362) 
-31.422498

>  <alias>  (1362) 
None

>  <HIPPO Pose ID>  (1362) 
71338

>  <smiles>  (1362) 
CCC(C)(C)Nc1cnc(C)cn1

>  <inchikey>  (1362) 
SAJYSWHGSAAXDU-UHFFFAOYSA-N

>  <distance_score>  (1362) 
0.83551

>  <ref_mols>  (1362) 
Z0875a,Z0089a

>  <ref_pdb>  (1362) 
Z0089a

>  <HIPPO Compound ID>  (1362) 
144296

>  <name>  (1362) 
P71338

>  <inspiration_score>  (1362) 
None

$$$$
P71340
     RDKit          3D

 13 14  0  0  0  0  0  0  0  0999 V2000
   -8.9149    4.5752  -15.1447 C   0  0  0  0  0  0  0  0  0  0  0  0
   -8.2588    4.5814  -16.4574 C   0  0  0  0  0  0  0  0  0  0  0  0
   -8.9022    4.2003  -17.6205 C   0  0  0  0  0  0  0  0  0  0  0  0
   -8.2654    4.2064  -18.7993 N   0  0  0  0  0  0  0  0  0  0  0  0
   -6.9727    4.6282  -18.7598 C   0  0  0  0  0  0  0  0  0  0  0  0
   -6.3291    5.0335  -17.5877 C   0  0  0  0  0  0  0  0  0  0  0  0
   -4.9734    5.3947  -17.5502 N   0  0  0  0  0  0  0  0  0  0  0  0
   -4.2005    5.6746  -16.3528 C   0  0  2  0  0  0  0  0  0  0  0  0
   -4.2408    4.6160  -15.2342 C   0  0  0  0  0  0  0  0  0  0  0  0
   -4.8455    5.6394  -14.2692 C   0  0  0  0  0  0  0  0  0  0  0  0
   -4.7634    6.7226  -15.3627 C   0  0  1  0  0  0  0  0  0  0  0  0
   -3.9080    7.7350  -15.0747 F   0  0  0  0  0  0  0  0  0  0  0  0
   -6.9920    5.0256  -16.4314 N   0  0  0  0  0  0  0  0  0  0  0  0
  1  2  1  0
  2  3  2  0
  3  4  1  0
  4  5  2  0
  5  6  1  0
  6  7  1  0
  8  7  1  6
  8  9  1  0
  9 10  1  0
 10 11  1  0
 11 12  1  1
  6 13  2  0
 13  2  1  0
 11  8  1  0
M  END
>  <energy_score>  (1363) 
-5.604668

>  <alias>  (1363) 
None

>  <HIPPO Pose ID>  (1363) 
71340

>  <smiles>  (1363) 
Cc1cncc(N[C@@H]2CC[C@H]2F)n1

>  <inchikey>  (1363) 
JHRYIAPZJDBVIB-HTQZYQBOSA-N

>  <distance_score>  (1363) 
1.5534

>  <ref_mols>  (1363) 
Z0875a,Z0089a

>  <ref_pdb>  (1363) 
Z0089a

>  <HIPPO Compound ID>  (1363) 
144297

>  <name>  (1363) 
P71340

>  <inspiration_score>  (1363) 
None

$$$$
P71342
     RDKit          3D

 13 14  0  0  0  0  0  0  0  0999 V2000
   -3.4206    7.0013  -14.6060 C   0  0  0  0  0  0  0  0  0  0  0  0
   -4.4234    6.3825  -14.8346 C   0  0  0  0  0  0  0  0  0  0  0  0
   -5.6325    5.6567  -15.1274 C   0  0  0  0  0  0  0  0  0  0  0  0
   -5.6530    5.1968  -16.5400 N   0  0  0  0  0  0  0  0  0  0  0  0
   -6.8445    4.6978  -17.0985 C   0  0  0  0  0  0  0  0  0  0  0  0
   -6.9974    4.5942  -18.4739 C   0  0  0  0  0  0  0  0  0  0  0  0
   -8.1947    4.3793  -19.0444 N   0  0  0  0  0  0  0  0  0  0  0  0
   -9.2301    4.2645  -18.1872 C   0  0  0  0  0  0  0  0  0  0  0  0
  -10.5966    4.5413  -18.6728 C   0  0  0  0  0  0  0  0  0  0  0  0
   -9.0538    4.1580  -16.8316 C   0  0  0  0  0  0  0  0  0  0  0  0
   -7.8611    4.3642  -16.2828 N   0  0  0  0  0  0  0  0  0  0  0  0
   -6.8623    6.1452  -14.3821 C   0  0  0  0  0  0  0  0  0  0  0  0
   -6.2264    4.8368  -14.0041 C   0  0  0  0  0  0  0  0  0  0  0  0
  1  2  3  0
  2  3  1  0
  3  4  1  0
  4  5  1  0
  5  6  2  0
  6  7  1  0
  7  8  2  0
  8  9  1  0
  8 10  1  0
 10 11  2  0
  3 12  1  0
 12 13  1  0
 13  3  1  0
 11  5  1  0
M  END
>  <energy_score>  (1364) 
-6.296543

>  <alias>  (1364) 
None

>  <HIPPO Pose ID>  (1364) 
71342

>  <smiles>  (1364) 
C#CC1(Nc2cnc(C)cn2)CC1

>  <inchikey>  (1364) 
SCRDEVACVHFSSX-UHFFFAOYSA-N

>  <distance_score>  (1364) 
1.842954

>  <ref_mols>  (1364) 
Z0875a,Z0089a

>  <ref_pdb>  (1364) 
Z0089a

>  <HIPPO Compound ID>  (1364) 
144298

>  <name>  (1364) 
P71342

>  <inspiration_score>  (1364) 
None

$$$$
P71343
     RDKit          3D

 13 14  0  0  0  0  0  0  0  0999 V2000
   -1.6596    3.5531  -19.5209 C   0  0  0  0  0  0  0  0  0  0  0  0
   -2.3022    4.5643  -19.5437 C   0  0  0  0  0  0  0  0  0  0  0  0
   -3.0798    5.7683  -19.6289 C   0  0  0  0  0  0  0  0  0  0  0  0
   -4.5073    5.5550  -19.7760 N   0  0  0  0  0  0  0  0  0  0  0  0
   -5.3923    5.2445  -18.7470 C   0  0  0  0  0  0  0  0  0  0  0  0
   -5.1580    5.4748  -17.3938 C   0  0  0  0  0  0  0  0  0  0  0  0
   -6.0891    5.2786  -16.4271 N   0  0  0  0  0  0  0  0  0  0  0  0
   -7.2770    4.8047  -16.8710 C   0  0  0  0  0  0  0  0  0  0  0  0
   -7.5299    4.5458  -18.2095 C   0  0  0  0  0  0  0  0  0  0  0  0
   -8.8744    4.0843  -18.6723 C   0  0  0  0  0  0  0  0  0  0  0  0
   -6.5820    4.7619  -19.1515 N   0  0  0  0  0  0  0  0  0  0  0  0
   -2.5380    7.0128  -18.9702 C   0  0  0  0  0  0  0  0  0  0  0  0
   -2.4589    6.8774  -20.4579 C   0  0  0  0  0  0  0  0  0  0  0  0
  1  2  3  0
  2  3  1  0
  3  4  1  0
  4  5  1  0
  5  6  2  0
  6  7  1  0
  7  8  2  0
  8  9  1  0
  9 10  1  0
  9 11  2  0
  3 12  1  0
 12 13  1  0
 13  3  1  0
 11  5  1  0
M  END
>  <energy_score>  (1365) 
-18.189639

>  <alias>  (1365) 
None

>  <HIPPO Pose ID>  (1365) 
71343

>  <smiles>  (1365) 
C#CC1(Nc2cncc(C)n2)CC1

>  <inchikey>  (1365) 
AAYXJHBZGQGQJT-UHFFFAOYSA-N

>  <distance_score>  (1365) 
0.703349

>  <ref_mols>  (1365) 
Z0875a,Z0089a

>  <ref_pdb>  (1365) 
Z0089a

>  <HIPPO Compound ID>  (1365) 
144300

>  <name>  (1365) 
P71343

>  <inspiration_score>  (1365) 
None

$$$$
P71344
     RDKit          3D

 13 14  0  0  0  0  0  0  0  0999 V2000
   -1.6725    3.5893  -19.5254 C   0  0  0  0  0  0  0  0  0  0  0  0
   -2.3527    4.5754  -19.5586 C   0  0  0  0  0  0  0  0  0  0  0  0
   -3.1776    5.7472  -19.6588 C   0  0  0  0  0  0  0  0  0  0  0  0
   -4.5995    5.4774  -19.7705 N   0  0  0  0  0  0  0  0  0  0  0  0
   -5.4642    5.1833  -18.7172 C   0  0  0  0  0  0  0  0  0  0  0  0
   -5.1824    5.4393  -17.3737 C   0  0  0  0  0  0  0  0  0  0  0  0
   -6.0767    5.2592  -16.3691 N   0  0  0  0  0  0  0  0  0  0  0  0
   -7.2746    4.7718  -16.7667 C   0  0  0  0  0  0  0  0  0  0  0  0
   -7.5649    4.5017  -18.0942 C   0  0  0  0  0  0  0  0  0  0  0  0
   -8.7900    4.0483  -18.4904 O   0  0  0  0  0  0  0  0  0  0  0  0
   -6.6673    4.6910  -19.0759 N   0  0  0  0  0  0  0  0  0  0  0  0
   -2.6681    7.0275  -19.0435 C   0  0  0  0  0  0  0  0  0  0  0  0
   -2.6158    6.8567  -20.5287 C   0  0  0  0  0  0  0  0  0  0  0  0
  1  2  3  0
  2  3  1  0
  3  4  1  0
  4  5  1  0
  5  6  2  0
  6  7  1  0
  7  8  2  0
  8  9  1  0
  9 10  1  0
  9 11  2  0
  3 12  1  0
 12 13  1  0
 13  3  1  0
 11  5  1  0
M  END
>  <energy_score>  (1366) 
-7.649048

>  <alias>  (1366) 
None

>  <HIPPO Pose ID>  (1366) 
71344

>  <smiles>  (1366) 
C#CC1(Nc2cncc(O)n2)CC1

>  <inchikey>  (1366) 
JNGFNYUQLYMTQL-UHFFFAOYSA-N

>  <distance_score>  (1366) 
0.699286

>  <ref_mols>  (1366) 
Z0875a,Z0089a

>  <ref_pdb>  (1366) 
Z0089a

>  <HIPPO Compound ID>  (1366) 
144301

>  <name>  (1366) 
P71344

>  <inspiration_score>  (1366) 
None

$$$$
P71345
     RDKit          3D

 13 13  0  0  0  0  0  0  0  0999 V2000
   -8.7423    4.1413  -18.7895 C   0  0  0  0  0  0  0  0  0  0  0  0
   -7.4167    4.5828  -18.2549 C   0  0  0  0  0  0  0  0  0  0  0  0
   -7.2485    4.8630  -16.9088 C   0  0  0  0  0  0  0  0  0  0  0  0
   -6.0766    5.2977  -16.3947 N   0  0  0  0  0  0  0  0  0  0  0  0
   -5.0691    5.4188  -17.2961 C   0  0  0  0  0  0  0  0  0  0  0  0
   -5.2094    5.1674  -18.6573 C   0  0  0  0  0  0  0  0  0  0  0  0
   -4.2668    5.3470  -19.6289 N   0  0  0  0  0  0  0  0  0  0  0  0
   -2.8322    5.5508  -19.5380 C   0  0  2  0  0  0  0  0  0  0  0  0
   -2.1376    4.4093  -18.8173 C   0  0  0  0  0  0  0  0  0  0  0  0
   -2.5086    6.9644  -19.0276 C   0  0  0  0  0  0  0  0  0  0  0  0
   -1.0387    7.3612  -19.1338 C   0  0  0  0  0  0  0  0  0  0  0  0
   -0.0896    6.8146  -17.7313 Cl  0  0  0  0  0  0  0  0  0  0  0  0
   -6.3953    4.7419  -19.1327 N   0  0  0  0  0  0  0  0  0  0  0  0
  1  2  1  0
  2  3  2  0
  3  4  1  0
  4  5  2  0
  5  6  1  0
  6  7  1  0
  7  8  1  0
  8  9  1  1
  8 10  1  0
 10 11  1  0
 11 12  1  0
  6 13  2  0
 13  2  1  0
M  END
>  <energy_score>  (1367) 
-24.503925

>  <alias>  (1367) 
None

>  <HIPPO Pose ID>  (1367) 
71345

>  <smiles>  (1367) 
Cc1cncc(N[C@H](C)CCCl)n1

>  <inchikey>  (1367) 
OJPALRQKEHTNQW-SSDOTTSWSA-N

>  <distance_score>  (1367) 
0.683483

>  <ref_mols>  (1367) 
Z0875a,Z0089a

>  <ref_pdb>  (1367) 
Z0089a

>  <HIPPO Compound ID>  (1367) 
144302

>  <name>  (1367) 
P71345

>  <inspiration_score>  (1367) 
None

$$$$
P71348
     RDKit          3D

 13 13  0  0  0  0  0  0  0  0999 V2000
   -1.8898    4.2253  -19.5581 C   0  0  0  0  0  0  0  0  0  0  0  0
   -2.6263    5.4653  -19.0670 C   0  0  1  0  0  0  0  0  0  0  0  0
   -1.9614    6.7986  -19.4515 C   0  0  0  0  0  0  0  0  0  0  0  0
   -2.2465    7.3666  -20.8400 C   0  0  0  0  0  0  0  0  0  0  0  0
   -1.6334    6.3468  -22.1512 Cl  0  0  0  0  0  0  0  0  0  0  0  0
   -4.0125    5.4573  -19.5028 N   0  0  0  0  0  0  0  0  0  0  0  0
   -5.0934    5.1082  -18.7429 C   0  0  0  0  0  0  0  0  0  0  0  0
   -5.1519    5.1795  -17.3637 C   0  0  0  0  0  0  0  0  0  0  0  0
   -6.2982    4.8745  -16.7166 N   0  0  0  0  0  0  0  0  0  0  0  0
   -6.3023    4.9016  -15.2575 C   0  0  0  0  0  0  0  0  0  0  0  0
   -7.4027    4.5199  -17.4120 C   0  0  0  0  0  0  0  0  0  0  0  0
   -7.3192    4.4645  -18.7865 C   0  0  0  0  0  0  0  0  0  0  0  0
   -6.1752    4.7432  -19.4410 N   0  0  0  0  0  0  0  0  0  0  0  0
  2  1  1  6
  2  3  1  0
  3  4  1  0
  4  5  1  0
  2  6  1  0
  6  7  1  0
  7  8  2  0
  8  9  1  0
  9 10  1  0
  9 11  2  0
 11 12  1  0
 12 13  2  0
 13  7  1  0
M  CHG  1   9   1
M  END
>  <energy_score>  (1368) 
-25.617189

>  <alias>  (1368) 
None

>  <HIPPO Pose ID>  (1368) 
71348

>  <smiles>  (1368) 
C[C@@H](CCCl)Nc1c[n+](C)ccn1

>  <inchikey>  (1368) 
QTXQMECBRMITPU-QMMMGPOBSA-N

>  <distance_score>  (1368) 
1.052637

>  <ref_mols>  (1368) 
Z0875a,Z0089a

>  <ref_pdb>  (1368) 
Z0089a

>  <HIPPO Compound ID>  (1368) 
144303

>  <name>  (1368) 
P71348

>  <inspiration_score>  (1368) 
None

$$$$
P71349
     RDKit          3D

 13 13  0  0  0  0  0  0  0  0999 V2000
   -2.0525    4.4952  -18.9727 C   0  0  0  0  0  0  0  0  0  0  0  0
   -2.8885    5.6192  -19.5770 C   0  0  2  0  0  0  0  0  0  0  0  0
   -2.6378    6.9698  -18.8919 C   0  0  0  0  0  0  0  0  0  0  0  0
   -3.1927    8.1759  -19.6515 C   0  0  0  0  0  0  0  0  0  0  0  0
   -4.9070    8.5066  -19.3039 Cl  0  0  0  0  0  0  0  0  0  0  0  0
   -4.2779    5.2370  -19.6678 N   0  0  0  0  0  0  0  0  0  0  0  0
   -5.2413    5.0750  -18.7161 C   0  0  0  0  0  0  0  0  0  0  0  0
   -5.0775    5.1306  -17.3316 C   0  0  0  0  0  0  0  0  0  0  0  0
   -6.0930    4.9876  -16.4398 N   0  0  0  0  0  0  0  0  0  0  0  0
   -7.3004    4.7400  -16.9971 C   0  0  0  0  0  0  0  0  0  0  0  0
   -7.4680    4.6862  -18.3639 C   0  0  0  0  0  0  0  0  0  0  0  0
   -8.6898    4.5444  -18.9354 O   0  0  0  0  0  0  0  0  0  0  0  0
   -6.4632    4.8529  -19.2361 N   0  0  0  0  0  0  0  0  0  0  0  0
  2  1  1  1
  2  3  1  0
  3  4  1  0
  4  5  1  0
  2  6  1  0
  6  7  1  0
  7  8  2  0
  8  9  1  0
  9 10  2  0
 10 11  1  0
 11 12  1  0
 11 13  2  0
 13  7  1  0
M  END
>  <energy_score>  (1369) 
-34.117171

>  <alias>  (1369) 
None

>  <HIPPO Pose ID>  (1369) 
71349

>  <smiles>  (1369) 
C[C@H](CCCl)Nc1cncc(O)n1

>  <inchikey>  (1369) 
VMQQYPOBACIIQQ-ZCFIWIBFSA-N

>  <distance_score>  (1369) 
0.680016

>  <ref_mols>  (1369) 
Z0875a,Z0089a

>  <ref_pdb>  (1369) 
Z0089a

>  <HIPPO Compound ID>  (1369) 
144304

>  <name>  (1369) 
P71349

>  <inspiration_score>  (1369) 
None

$$$$
P71354
     RDKit          3D

 13 13  0  0  0  0  0  0  0  0999 V2000
   -8.2602    4.3816  -16.0230 C   0  0  0  0  0  0  0  0  0  0  0  0
   -7.0988    4.7086  -16.8998 C   0  0  0  0  0  0  0  0  0  0  0  0
   -7.1525    4.5313  -18.2744 C   0  0  0  0  0  0  0  0  0  0  0  0
   -6.1025    4.7963  -19.0855 N   0  0  0  0  0  0  0  0  0  0  0  0
   -4.9913    5.2730  -18.5019 C   0  0  0  0  0  0  0  0  0  0  0  0
   -3.9724    5.5722  -19.3797 N   0  0  0  0  0  0  0  0  0  0  0  0
   -2.5735    5.5089  -18.9919 C   0  0  1  0  0  0  0  0  0  0  0  0
   -1.9536    4.1971  -19.4635 C   0  0  0  0  0  0  0  0  0  0  0  0
   -1.8459    6.7030  -19.6255 C   0  0  0  0  0  0  0  0  0  0  0  0
   -2.3198    8.0612  -19.1161 C   0  0  0  0  0  0  0  0  0  0  0  0
   -1.9042    8.3110  -17.4025 Cl  0  0  0  0  0  0  0  0  0  0  0  0
   -4.9646    5.4975  -17.1271 C   0  0  0  0  0  0  0  0  0  0  0  0
   -5.9995    5.2225  -16.3019 N   0  0  0  0  0  0  0  0  0  0  0  0
  1  2  1  0
  2  3  2  0
  3  4  1  0
  4  5  2  0
  5  6  1  0
  6  7  1  0
  7  8  1  6
  7  9  1  0
  9 10  1  0
 10 11  1  0
  5 12  1  0
 12 13  2  0
 13  2  1  0
M  END
>  <energy_score>  (1370) 
-22.290242

>  <alias>  (1370) 
None

>  <HIPPO Pose ID>  (1370) 
71354

>  <smiles>  (1370) 
Cc1cnc(N[C@@H](C)CCCl)cn1

>  <inchikey>  (1370) 
VMMPDABEMBMEDO-ZETCQYMHSA-N

>  <distance_score>  (1370) 
0.752163

>  <ref_mols>  (1370) 
Z0875a,Z0089a

>  <ref_pdb>  (1370) 
Z0089a

>  <HIPPO Compound ID>  (1370) 
144306

>  <name>  (1370) 
P71354

>  <inspiration_score>  (1370) 
None

$$$$
P71359
     RDKit          3D

 13 14  0  0  0  0  0  0  0  0999 V2000
   -2.0201    4.2449  -19.3417 C   0  0  0  0  0  0  0  0  0  0  0  0
   -2.7326    5.5707  -19.4438 C   0  0  0  0  0  0  0  0  0  0  0  0
   -4.1663    5.4935  -19.7243 N   0  0  0  0  0  0  0  0  0  0  0  0
   -5.1461    5.1929  -18.7810 C   0  0  0  0  0  0  0  0  0  0  0  0
   -5.0134    5.3798  -17.4041 C   0  0  0  0  0  0  0  0  0  0  0  0
   -6.0172    5.1719  -16.5154 N   0  0  0  0  0  0  0  0  0  0  0  0
   -7.1731    4.7321  -17.0746 C   0  0  0  0  0  0  0  0  0  0  0  0
   -8.2872    4.4855  -16.1560 C   0  0  0  0  0  0  0  0  0  0  0  0
   -9.4010    4.1777  -16.5603 O   0  0  0  0  0  0  0  0  0  0  0  0
   -7.3243    4.5306  -18.4329 C   0  0  0  0  0  0  0  0  0  0  0  0
   -6.3081    4.7522  -19.2982 N   0  0  0  0  0  0  0  0  0  0  0  0
   -1.9629    6.6795  -20.1276 C   0  0  0  0  0  0  0  0  0  0  0  0
   -2.1810    6.7371  -18.6498 C   0  0  0  0  0  0  0  0  0  0  0  0
  1  2  1  0
  2  3  1  0
  3  4  1  0
  4  5  2  0
  5  6  1  0
  6  7  2  0
  7  8  1  0
  8  9  2  0
  7 10  1  0
 10 11  2  0
  2 12  1  0
 12 13  1  0
 13  2  1  0
 11  4  1  0
M  END
>  <energy_score>  (1371) 
-20.54872

>  <alias>  (1371) 
None

>  <HIPPO Pose ID>  (1371) 
71359

>  <smiles>  (1371) 
CC1(Nc2cnc(C=O)cn2)CC1

>  <inchikey>  (1371) 
NMADTSXRCFYBMD-UHFFFAOYSA-N

>  <distance_score>  (1371) 
0.702584

>  <ref_mols>  (1371) 
Z0875a,Z0089a

>  <ref_pdb>  (1371) 
Z0089a

>  <HIPPO Compound ID>  (1371) 
144309

>  <name>  (1371) 
P71359

>  <inspiration_score>  (1371) 
None

$$$$
P71360
     RDKit          3D

 13 14  0  0  0  0  0  0  0  0999 V2000
   -9.8858    4.0746  -18.1496 C   0  0  0  0  0  0  0  0  0  0  0  0
   -8.7033    4.2707  -18.0886 C   0  0  0  0  0  0  0  0  0  0  0  0
   -7.3363    4.5991  -17.8474 C   0  0  0  0  0  0  0  0  0  0  0  0
   -6.9128    4.8511  -16.5514 C   0  0  0  0  0  0  0  0  0  0  0  0
   -5.6532    5.2411  -16.2587 N   0  0  0  0  0  0  0  0  0  0  0  0
   -4.8376    5.3367  -17.3363 C   0  0  0  0  0  0  0  0  0  0  0  0
   -5.2449    5.0910  -18.6529 C   0  0  0  0  0  0  0  0  0  0  0  0
   -4.4007    5.2403  -19.7560 N   0  0  0  0  0  0  0  0  0  0  0  0
   -2.9665    5.5275  -19.7042 C   0  0  0  0  0  0  0  0  0  0  0  0
   -2.0727    4.3405  -19.4273 C   0  0  0  0  0  0  0  0  0  0  0  0
   -2.4964    6.8909  -19.2432 C   0  0  0  0  0  0  0  0  0  0  0  0
   -2.4303    6.5402  -20.6962 C   0  0  0  0  0  0  0  0  0  0  0  0
   -6.5172    4.7179  -18.9155 N   0  0  0  0  0  0  0  0  0  0  0  0
  1  2  3  0
  2  3  1  0
  3  4  2  0
  4  5  1  0
  5  6  2  0
  6  7  1  0
  7  8  1  0
  8  9  1  0
  9 10  1  0
  9 11  1  0
 11 12  1  0
  7 13  2  0
 13  3  1  0
 12  9  1  0
M  END
>  <energy_score>  (1372) 
-13.679596

>  <alias>  (1372) 
None

>  <HIPPO Pose ID>  (1372) 
71360

>  <smiles>  (1372) 
C#Cc1cncc(NC2(C)CC2)n1

>  <inchikey>  (1372) 
DARSXSOIFAIOEY-UHFFFAOYSA-N

>  <distance_score>  (1372) 
1.025135

>  <ref_mols>  (1372) 
Z0875a,Z0089a

>  <ref_pdb>  (1372) 
Z0089a

>  <HIPPO Compound ID>  (1372) 
144310

>  <name>  (1372) 
P71360

>  <inspiration_score>  (1372) 
None

$$$$
P71362
     RDKit          3D

 13 14  0  0  0  0  0  0  0  0999 V2000
   -9.0339    4.2088  -16.0167 C   0  0  0  0  0  0  0  0  0  0  0  0
   -7.6056    4.5783  -15.6808 C   0  0  0  0  0  0  0  0  0  0  0  0
   -6.6815    4.8064  -16.8355 C   0  0  0  0  0  0  0  0  0  0  0  0
   -7.0420    4.6522  -18.1671 C   0  0  0  0  0  0  0  0  0  0  0  0
   -6.1738    4.8428  -19.1841 N   0  0  0  0  0  0  0  0  0  0  0  0
   -4.9233    5.2094  -18.8561 C   0  0  0  0  0  0  0  0  0  0  0  0
   -4.0664    5.4303  -19.9309 N   0  0  0  0  0  0  0  0  0  0  0  0
   -2.6117    5.5239  -19.8275 C   0  0  0  0  0  0  0  0  0  0  0  0
   -1.8857    4.2254  -19.5666 C   0  0  0  0  0  0  0  0  0  0  0  0
   -1.9955    6.7990  -19.2946 C   0  0  0  0  0  0  0  0  0  0  0  0
   -1.9148    6.4940  -20.7586 C   0  0  0  0  0  0  0  0  0  0  0  0
   -4.5673    5.3712  -17.5225 C   0  0  0  0  0  0  0  0  0  0  0  0
   -5.4226    5.1775  -16.4955 N   0  0  0  0  0  0  0  0  0  0  0  0
  1  2  1  0
  2  3  1  0
  3  4  2  0
  4  5  1  0
  5  6  2  0
  6  7  1  0
  7  8  1  0
  8  9  1  0
  8 10  1  0
 10 11  1  0
  6 12  1  0
 12 13  2  0
 13  3  1  0
 11  8  1  0
M  END
>  <energy_score>  (1373) 
-24.198876

>  <alias>  (1373) 
None

>  <HIPPO Pose ID>  (1373) 
71362

>  <smiles>  (1373) 
CCc1cnc(NC2(C)CC2)cn1

>  <inchikey>  (1373) 
CRXYXNKYAWHLAA-UHFFFAOYSA-N

>  <distance_score>  (1373) 
0.825531

>  <ref_mols>  (1373) 
Z0875a,Z0089a

>  <ref_pdb>  (1373) 
Z0089a

>  <HIPPO Compound ID>  (1373) 
144312

>  <name>  (1373) 
P71362

>  <inspiration_score>  (1373) 
None

$$$$
P71363
     RDKit          3D

 13 14  0  0  0  0  0  0  0  0999 V2000
   -2.0832    4.3487  -19.3858 C   0  0  0  0  0  0  0  0  0  0  0  0
   -2.9569    5.5433  -19.6909 C   0  0  0  0  0  0  0  0  0  0  0  0
   -4.3921    5.2703  -19.7811 N   0  0  0  0  0  0  0  0  0  0  0  0
   -5.2658    5.1218  -18.7035 C   0  0  0  0  0  0  0  0  0  0  0  0
   -4.9178    5.4130  -17.3810 C   0  0  0  0  0  0  0  0  0  0  0  0
   -5.7760    5.3193  -16.3362 N   0  0  0  0  0  0  0  0  0  0  0  0
   -7.0134    4.8839  -16.6623 C   0  0  0  0  0  0  0  0  0  0  0  0
   -7.3796    4.5851  -17.9647 C   0  0  0  0  0  0  0  0  0  0  0  0
   -8.7209    4.1595  -18.2205 C   0  0  0  0  0  0  0  0  0  0  0  0
   -9.8343    3.8306  -18.2530 N   0  0  0  0  0  0  0  0  0  0  0  0
   -6.5139    4.6990  -19.0028 N   0  0  0  0  0  0  0  0  0  0  0  0
   -2.4835    6.9045  -19.2283 C   0  0  0  0  0  0  0  0  0  0  0  0
   -2.3846    6.5422  -20.6767 C   0  0  0  0  0  0  0  0  0  0  0  0
  1  2  1  0
  2  3  1  0
  3  4  1  0
  4  5  2  0
  5  6  1  0
  6  7  2  0
  7  8  1  0
  8  9  1  0
  9 10  3  0
  8 11  2  0
  2 12  1  0
 12 13  1  0
 13  2  1  0
 11  4  1  0
M  END
>  <energy_score>  (1374) 
-15.444595

>  <alias>  (1374) 
None

>  <HIPPO Pose ID>  (1374) 
71363

>  <smiles>  (1374) 
CC1(Nc2cncc(C#N)n2)CC1

>  <inchikey>  (1374) 
IUTOASISUHOHNJ-UHFFFAOYSA-N

>  <distance_score>  (1374) 
0.712877

>  <ref_mols>  (1374) 
Z0875a,Z0089a

>  <ref_pdb>  (1374) 
Z0089a

>  <HIPPO Compound ID>  (1374) 
144313

>  <name>  (1374) 
P71363

>  <inspiration_score>  (1374) 
None

$$$$
P71364
     RDKit          3D

 13 14  0  0  0  0  0  0  0  0999 V2000
   -1.9249    4.2310  -19.3510 C   0  0  0  0  0  0  0  0  0  0  0  0
   -2.4640    5.6380  -19.4256 C   0  0  0  0  0  0  0  0  0  0  0  0
   -3.8910    5.7473  -19.7524 N   0  0  0  0  0  0  0  0  0  0  0  0
   -4.8860    5.4143  -18.8342 C   0  0  0  0  0  0  0  0  0  0  0  0
   -4.8684    5.7324  -17.4818 C   0  0  0  0  0  0  0  0  0  0  0  0
   -5.9047    5.4818  -16.6455 N   0  0  0  0  0  0  0  0  0  0  0  0
   -6.9790    4.8617  -17.2042 C   0  0  0  0  0  0  0  0  0  0  0  0
   -8.0933    4.5279  -16.2670 C   0  0  0  0  0  0  0  0  0  0  0  0
   -9.7527    4.1210  -17.1689 Br  0  0  0  0  0  0  0  0  0  0  0  0
   -6.9731    4.5222  -18.5524 C   0  0  0  0  0  0  0  0  0  0  0  0
   -5.9404    4.7930  -19.3745 N   0  0  0  0  0  0  0  0  0  0  0  0
   -1.5483    6.6615  -20.0586 C   0  0  0  0  0  0  0  0  0  0  0  0
   -1.7941    6.7034  -18.5840 C   0  0  0  0  0  0  0  0  0  0  0  0
  1  2  1  0
  2  3  1  0
  3  4  1  0
  4  5  2  0
  5  6  1  0
  6  7  2  0
  7  8  1  0
  8  9  1  0
  7 10  1  0
 10 11  2  0
  2 12  1  0
 12 13  1  0
 13  2  1  0
 11  4  1  0
M  END
>  <energy_score>  (1375) 
-11.886782

>  <alias>  (1375) 
None

>  <HIPPO Pose ID>  (1375) 
71364

>  <smiles>  (1375) 
CC1(Nc2cnc(CBr)cn2)CC1

>  <inchikey>  (1375) 
YXTIGHJJUKPKHP-UHFFFAOYSA-N

>  <distance_score>  (1375) 
0.885272

>  <ref_mols>  (1375) 
Z0875a,Z0089a

>  <ref_pdb>  (1375) 
Z0089a

>  <HIPPO Compound ID>  (1375) 
144314

>  <name>  (1375) 
P71364

>  <inspiration_score>  (1375) 
None

$$$$
P71365
     RDKit          3D

 13 14  0  0  0  0  0  0  0  0999 V2000
   -8.2424    4.7404  -15.8357 C   0  0  0  0  0  0  0  0  0  0  0  0
   -7.1964    4.9076  -16.8924 C   0  0  0  0  0  0  0  0  0  0  0  0
   -5.9857    5.3612  -16.4735 N   0  0  0  0  0  0  0  0  0  0  0  0
   -5.0340    5.4669  -17.4324 C   0  0  0  0  0  0  0  0  0  0  0  0
   -5.2551    5.1664  -18.7703 C   0  0  0  0  0  0  0  0  0  0  0  0
   -4.3233    5.3445  -19.7911 N   0  0  0  0  0  0  0  0  0  0  0  0
   -2.8872    5.5487  -19.6201 C   0  0  0  0  0  0  0  0  0  0  0  0
   -2.0835    4.3092  -19.3095 C   0  0  0  0  0  0  0  0  0  0  0  0
   -2.3789    6.8752  -19.0998 C   0  0  0  0  0  0  0  0  0  0  0  0
   -2.2234    6.5433  -20.5511 C   0  0  0  0  0  0  0  0  0  0  0  0
   -6.4578    4.7122  -19.1662 N   0  0  0  0  0  0  0  0  0  0  0  0
   -7.4317    4.5802  -18.2291 C   0  0  0  0  0  0  0  0  0  0  0  0
   -8.7693    4.1163  -18.7219 C   0  0  0  0  0  0  0  0  0  0  0  0
  1  2  1  0
  2  3  2  0
  3  4  1  0
  4  5  2  0
  5  6  1  0
  6  7  1  0
  7  8  1  0
  7  9  1  0
  9 10  1  0
  5 11  1  0
 11 12  2  0
 12 13  1  0
 12  2  1  0
 10  7  1  0
M  END
>  <energy_score>  (1376) 
-17.919519

>  <alias>  (1376) 
None

>  <HIPPO Pose ID>  (1376) 
71365

>  <smiles>  (1376) 
Cc1ncc(NC2(C)CC2)nc1C

>  <inchikey>  (1376) 
LSDNZWZUWYAQGU-UHFFFAOYSA-N

>  <distance_score>  (1376) 
0.715345

>  <ref_mols>  (1376) 
Z0875a,Z0089a

>  <ref_pdb>  (1376) 
Z0089a

>  <HIPPO Compound ID>  (1376) 
144315

>  <name>  (1376) 
P71365

>  <inspiration_score>  (1376) 
None

$$$$
P71367
     RDKit          3D

 13 14  0  0  0  0  0  0  0  0999 V2000
   -9.1762    4.2609  -16.3052 C   0  0  0  0  0  0  0  0  0  0  0  0
   -8.0676    5.1091  -16.0609 O   0  0  0  0  0  0  0  0  0  0  0  0
   -7.0942    5.0745  -17.0105 C   0  0  0  0  0  0  0  0  0  0  0  0
   -7.2718    4.7263  -18.3424 C   0  0  0  0  0  0  0  0  0  0  0  0
   -6.2708    4.7874  -19.2516 N   0  0  0  0  0  0  0  0  0  0  0  0
   -5.0811    5.2299  -18.8104 C   0  0  0  0  0  0  0  0  0  0  0  0
   -4.1182    5.4089  -19.8002 N   0  0  0  0  0  0  0  0  0  0  0  0
   -2.6815    5.5204  -19.5618 C   0  0  0  0  0  0  0  0  0  0  0  0
   -1.9608    4.2123  -19.3544 C   0  0  0  0  0  0  0  0  0  0  0  0
   -1.9332    6.5661  -20.3588 C   0  0  0  0  0  0  0  0  0  0  0  0
   -2.1196    6.7565  -18.8887 C   0  0  0  0  0  0  0  0  0  0  0  0
   -4.9050    5.5462  -17.4667 C   0  0  0  0  0  0  0  0  0  0  0  0
   -5.8985    5.4978  -16.5496 N   0  0  0  0  0  0  0  0  0  0  0  0
  1  2  1  0
  2  3  1  0
  3  4  2  0
  4  5  1  0
  5  6  2  0
  6  7  1  0
  7  8  1  0
  8  9  1  0
  8 10  1  0
 10 11  1  0
  6 12  1  0
 12 13  2  0
 13  3  1  0
 11  8  1  0
M  END
>  <energy_score>  (1377) 
-12.229195

>  <alias>  (1377) 
None

>  <HIPPO Pose ID>  (1377) 
71367

>  <smiles>  (1377) 
COc1cnc(NC2(C)CC2)cn1

>  <inchikey>  (1377) 
XOBUXKHUUMJAAM-UHFFFAOYSA-N

>  <distance_score>  (1377) 
0.793668

>  <ref_mols>  (1377) 
Z0875a,Z0089a

>  <ref_pdb>  (1377) 
Z0089a

>  <HIPPO Compound ID>  (1377) 
144317

>  <name>  (1377) 
P71367

>  <inspiration_score>  (1377) 
None

$$$$
P71371
     RDKit          3D

 13 13  0  0  0  0  0  0  0  0999 V2000
   -0.6980    5.4003  -18.8428 C   0  0  0  0  0  0  0  0  0  0  0  0
   -1.7987    4.9972  -19.4939 C   0  0  0  0  0  0  0  0  0  0  0  0
   -2.9854    5.8553  -19.8353 C   0  0  2  0  0  0  0  0  0  0  0  0
   -3.1457    7.1737  -19.0416 C   0  0  0  0  0  0  0  0  0  0  0  0
   -4.4553    7.7442  -19.1562 O   0  0  0  0  0  0  0  0  0  0  0  0
   -4.1624    4.9966  -19.8654 N   0  0  0  0  0  0  0  0  0  0  0  0
   -5.1375    4.8979  -18.9121 C   0  0  0  0  0  0  0  0  0  0  0  0
   -4.9463    4.9687  -17.5466 C   0  0  0  0  0  0  0  0  0  0  0  0
   -6.0084    4.8725  -16.7141 N   0  0  0  0  0  0  0  0  0  0  0  0
   -5.7790    4.9635  -15.2758 C   0  0  0  0  0  0  0  0  0  0  0  0
   -7.2504    4.6603  -17.2095 C   0  0  0  0  0  0  0  0  0  0  0  0
   -7.4054    4.5679  -18.5760 C   0  0  0  0  0  0  0  0  0  0  0  0
   -6.3606    4.6822  -19.4152 N   0  0  0  0  0  0  0  0  0  0  0  0
  1  2  2  0
  2  3  1  0
  3  4  1  1
  4  5  1  0
  3  6  1  0
  6  7  1  0
  7  8  2  0
  8  9  1  0
  9 10  1  0
  9 11  2  0
 11 12  1  0
 12 13  2  0
 13  7  1  0
M  CHG  1   9   1
M  END
>  <energy_score>  (1378) 
-28.152337

>  <alias>  (1378) 
None

>  <HIPPO Pose ID>  (1378) 
71371

>  <smiles>  (1378) 
C=C[C@H](CO)Nc1c[n+](C)ccn1

>  <inchikey>  (1378) 
PWSMTXCQOBZPHG-MRVPVSSYSA-N

>  <distance_score>  (1378) 
0.760289

>  <ref_mols>  (1378) 
Z0875a,Z0089a

>  <ref_pdb>  (1378) 
Z0089a

>  <HIPPO Compound ID>  (1378) 
144320

>  <name>  (1378) 
P71371

>  <inspiration_score>  (1378) 
None

$$$$
P71373
     RDKit          3D

 13 13  0  0  0  0  0  0  0  0999 V2000
   -1.6564    3.6810  -19.7628 C   0  0  0  0  0  0  0  0  0  0  0  0
   -2.4833    4.4263  -19.0238 C   0  0  0  0  0  0  0  0  0  0  0  0
   -3.0861    5.7152  -19.4939 C   0  0  2  0  0  0  0  0  0  0  0  0
   -2.6395    6.9469  -18.6778 C   0  0  0  0  0  0  0  0  0  0  0  0
   -1.4677    7.5580  -19.2267 O   0  0  0  0  0  0  0  0  0  0  0  0
   -4.5250    5.5761  -19.5984 N   0  0  0  0  0  0  0  0  0  0  0  0
   -5.4316    5.2729  -18.6146 C   0  0  0  0  0  0  0  0  0  0  0  0
   -5.2953    5.5545  -17.2545 C   0  0  0  0  0  0  0  0  0  0  0  0
   -6.2657    5.3342  -16.3325 N   0  0  0  0  0  0  0  0  0  0  0  0
   -7.3982    4.7898  -16.8304 C   0  0  0  0  0  0  0  0  0  0  0  0
   -7.5528    4.5061  -18.1760 C   0  0  0  0  0  0  0  0  0  0  0  0
   -8.7189    4.0058  -18.6780 O   0  0  0  0  0  0  0  0  0  0  0  0
   -6.5747    4.7276  -19.0718 N   0  0  0  0  0  0  0  0  0  0  0  0
  1  2  2  0
  2  3  1  0
  3  4  1  1
  4  5  1  0
  3  6  1  0
  6  7  1  0
  7  8  2  0
  8  9  1  0
  9 10  2  0
 10 11  1  0
 11 12  1  0
 11 13  2  0
 13  7  1  0
M  END
>  <energy_score>  (1379) 
-21.497401

>  <alias>  (1379) 
None

>  <HIPPO Pose ID>  (1379) 
71373

>  <smiles>  (1379) 
C=C[C@H](CO)Nc1cncc(O)n1

>  <inchikey>  (1379) 
KFALLXIVHFTUIX-ZCFIWIBFSA-N

>  <distance_score>  (1379) 
0.714794

>  <ref_mols>  (1379) 
Z0875a,Z0089a

>  <ref_pdb>  (1379) 
Z0089a

>  <HIPPO Compound ID>  (1379) 
144321

>  <name>  (1379) 
P71373

>  <inspiration_score>  (1379) 
None

$$$$
P71380
     RDKit          3D

 13 13  0  0  0  0  0  0  0  0999 V2000
   -1.6160    3.6238  -19.7012 C   0  0  0  0  0  0  0  0  0  0  0  0
   -2.4607    4.3285  -18.9452 C   0  0  0  0  0  0  0  0  0  0  0  0
   -2.9460    5.7287  -19.1872 C   0  0  1  0  0  0  0  0  0  0  0  0
   -2.2128    6.5278  -20.2937 C   0  0  0  0  0  0  0  0  0  0  0  0
   -2.4173    5.9845  -21.6171 O   0  0  0  0  0  0  0  0  0  0  0  0
   -4.3535    5.6787  -19.5218 N   0  0  0  0  0  0  0  0  0  0  0  0
   -5.3408    5.3470  -18.6272 C   0  0  0  0  0  0  0  0  0  0  0  0
   -5.3174    5.6424  -17.2602 C   0  0  0  0  0  0  0  0  0  0  0  0
   -6.3442    5.3944  -16.4116 N   0  0  0  0  0  0  0  0  0  0  0  0
   -7.4096    4.8341  -17.0069 C   0  0  0  0  0  0  0  0  0  0  0  0
   -8.4539    4.6173  -16.1764 O   0  0  0  0  0  0  0  0  0  0  0  0
   -7.4670    4.5272  -18.3500 C   0  0  0  0  0  0  0  0  0  0  0  0
   -6.4225    4.7673  -19.1731 N   0  0  0  0  0  0  0  0  0  0  0  0
  1  2  2  0
  2  3  1  0
  3  4  1  6
  4  5  1  0
  3  6  1  0
  6  7  1  0
  7  8  2  0
  8  9  1  0
  9 10  2  0
 10 11  1  0
 10 12  1  0
 12 13  2  0
 13  7  1  0
M  END
>  <energy_score>  (1380) 
-51.044145

>  <alias>  (1380) 
None

>  <HIPPO Pose ID>  (1380) 
71380

>  <smiles>  (1380) 
C=C[C@@H](CO)Nc1cnc(O)cn1

>  <inchikey>  (1380) 
NTOSOGZNVMGRNY-LURJTMIESA-N

>  <distance_score>  (1380) 
0.773931

>  <ref_mols>  (1380) 
Z0875a,Z0089a

>  <ref_pdb>  (1380) 
Z0089a

>  <HIPPO Compound ID>  (1380) 
144324

>  <name>  (1380) 
P71380

>  <inspiration_score>  (1380) 
None

$$$$
P71384
     RDKit          3D

 13 13  0  0  0  0  0  0  0  0999 V2000
   -2.1139    4.2759  -19.3262 C   0  0  0  0  0  0  0  0  0  0  0  0
   -2.7035    5.6334  -18.9183 C   0  0  0  0  0  0  0  0  0  0  0  0
   -2.1881    6.7110  -19.8952 C   0  0  0  0  0  0  0  0  0  0  0  0
   -2.2745    6.0005  -17.4782 C   0  0  0  0  0  0  0  0  0  0  0  0
   -0.5269    6.3274  -17.2655 Cl  0  0  0  0  0  0  0  0  0  0  0  0
   -4.1615    5.5958  -19.1336 N   0  0  0  0  0  0  0  0  0  0  0  0
   -5.2288    5.2459  -18.3571 C   0  0  0  0  0  0  0  0  0  0  0  0
   -5.3089    5.2593  -16.9646 C   0  0  0  0  0  0  0  0  0  0  0  0
   -6.4329    4.9741  -16.2582 N   0  0  0  0  0  0  0  0  0  0  0  0
   -7.5052    4.6473  -17.0079 C   0  0  0  0  0  0  0  0  0  0  0  0
   -7.4476    4.6548  -18.3836 C   0  0  0  0  0  0  0  0  0  0  0  0
   -8.5640    4.4450  -19.1275 O   0  0  0  0  0  0  0  0  0  0  0  0
   -6.3331    4.9540  -19.0776 N   0  0  0  0  0  0  0  0  0  0  0  0
  1  2  1  0
  2  3  1  0
  2  4  1  0
  4  5  1  0
  2  6  1  0
  6  7  1  0
  7  8  2  0
  8  9  1  0
  9 10  2  0
 10 11  1  0
 11 12  1  0
 11 13  2  0
 13  7  1  0
M  END
>  <energy_score>  (1381) 
-49.909702

>  <alias>  (1381) 
None

>  <HIPPO Pose ID>  (1381) 
71384

>  <smiles>  (1381) 
CC(C)(CCl)Nc1cncc(O)n1

>  <inchikey>  (1381) 
ZBCXEHLVKYBXKO-UHFFFAOYSA-N

>  <distance_score>  (1381) 
1.09242

>  <ref_mols>  (1381) 
Z0875a,Z0089a

>  <ref_pdb>  (1381) 
Z0089a

>  <HIPPO Compound ID>  (1381) 
144327

>  <name>  (1381) 
P71384

>  <inspiration_score>  (1381) 
None

$$$$
P71385
     RDKit          3D

 13 13  0  0  0  0  0  0  0  0999 V2000
   -2.2571    4.4238  -19.3055 C   0  0  0  0  0  0  0  0  0  0  0  0
   -2.7560    5.8703  -19.1870 C   0  0  0  0  0  0  0  0  0  0  0  0
   -2.2319    6.5022  -17.9025 C   0  0  0  0  0  0  0  0  0  0  0  0
   -2.2463    6.7338  -20.3877 C   0  0  0  0  0  0  0  0  0  0  0  0
   -0.4834    6.7287  -20.6471 Cl  0  0  0  0  0  0  0  0  0  0  0  0
   -4.2259    5.9074  -19.2931 N   0  0  0  0  0  0  0  0  0  0  0  0
   -5.2023    5.4231  -18.4621 C   0  0  0  0  0  0  0  0  0  0  0  0
   -6.1729    4.8233  -19.1863 N   0  0  0  0  0  0  0  0  0  0  0  0
   -7.2948    4.4371  -18.5406 C   0  0  0  0  0  0  0  0  0  0  0  0
   -7.4497    4.6063  -17.1820 C   0  0  0  0  0  0  0  0  0  0  0  0
   -6.5009    5.1877  -16.4179 N   0  0  0  0  0  0  0  0  0  0  0  0
   -5.3921    5.5834  -17.0814 C   0  0  0  0  0  0  0  0  0  0  0  0
   -4.5705    6.2465  -16.2363 O   0  0  0  0  0  0  0  0  0  0  0  0
  1  2  1  0
  2  3  1  0
  2  4  1  0
  4  5  1  0
  2  6  1  0
  6  7  1  0
  7  8  2  0
  8  9  1  0
  9 10  2  0
 10 11  1  0
 11 12  2  0
 12 13  1  0
 12  7  1  0
M  END
>  <energy_score>  (1382) 
-26.483766

>  <alias>  (1382) 
None

>  <HIPPO Pose ID>  (1382) 
71385

>  <smiles>  (1382) 
CC(C)(CCl)Nc1nccnc1O

>  <inchikey>  (1382) 
HYJROGROYVGHFP-UHFFFAOYSA-N

>  <distance_score>  (1382) 
0.993722

>  <ref_mols>  (1382) 
Z0875a,Z0089a

>  <ref_pdb>  (1382) 
Z0089a

>  <HIPPO Compound ID>  (1382) 
144328

>  <name>  (1382) 
P71385

>  <inspiration_score>  (1382) 
None

$$$$
P71386
     RDKit          3D

 13 13  0  0  0  0  0  0  0  0999 V2000
   -8.4173    4.5801  -16.2045 C   0  0  0  0  0  0  0  0  0  0  0  0
   -7.2361    4.9024  -17.0588 C   0  0  0  0  0  0  0  0  0  0  0  0
   -7.1672    4.5015  -18.3835 C   0  0  0  0  0  0  0  0  0  0  0  0
   -6.0948    4.7588  -19.1704 N   0  0  0  0  0  0  0  0  0  0  0  0
   -5.0786    5.4478  -18.6231 C   0  0  0  0  0  0  0  0  0  0  0  0
   -4.1168    5.7974  -19.5365 N   0  0  0  0  0  0  0  0  0  0  0  0
   -2.6486    5.8340  -19.3963 C   0  0  0  0  0  0  0  0  0  0  0  0
   -2.0983    4.4018  -19.4602 C   0  0  0  0  0  0  0  0  0  0  0  0
   -2.1745    6.5062  -18.1070 C   0  0  0  0  0  0  0  0  0  0  0  0
   -2.1420    6.6994  -20.5941 C   0  0  0  0  0  0  0  0  0  0  0  0
   -0.3741    6.7562  -20.8039 Cl  0  0  0  0  0  0  0  0  0  0  0  0
   -5.1578    5.8393  -17.2910 C   0  0  0  0  0  0  0  0  0  0  0  0
   -6.2172    5.5805  -16.4830 N   0  0  0  0  0  0  0  0  0  0  0  0
  1  2  1  0
  2  3  2  0
  3  4  1  0
  4  5  2  0
  5  6  1  0
  6  7  1  0
  7  8  1  0
  7  9  1  0
  7 10  1  0
 10 11  1  0
  5 12  1  0
 12 13  2  0
 13  2  1  0
M  END
>  <energy_score>  (1383) 
-24.687434

>  <alias>  (1383) 
None

>  <HIPPO Pose ID>  (1383) 
71386

>  <smiles>  (1383) 
Cc1cnc(NC(C)(C)CCl)cn1

>  <inchikey>  (1383) 
QSHOJDPDNBXTRX-UHFFFAOYSA-N

>  <distance_score>  (1383) 
0.818223

>  <ref_mols>  (1383) 
Z0875a,Z0089a

>  <ref_pdb>  (1383) 
Z0089a

>  <HIPPO Compound ID>  (1383) 
144329

>  <name>  (1383) 
P71386

>  <inspiration_score>  (1383) 
None

$$$$
P71388
     RDKit          3D

 13 13  0  0  0  0  0  0  0  0999 V2000
   -4.8669    6.4986  -15.8371 C   0  0  0  0  0  0  0  0  0  0  0  0
   -5.5409    5.6893  -16.8972 C   0  0  0  0  0  0  0  0  0  0  0  0
   -6.7270    5.1586  -16.4894 N   0  0  0  0  0  0  0  0  0  0  0  0
   -7.4703    4.5471  -17.4328 C   0  0  0  0  0  0  0  0  0  0  0  0
   -7.0500    4.4501  -18.7381 C   0  0  0  0  0  0  0  0  0  0  0  0
   -5.8574    4.9356  -19.1455 N   0  0  0  0  0  0  0  0  0  0  0  0
   -5.0991    5.5693  -18.2272 C   0  0  0  0  0  0  0  0  0  0  0  0
   -4.0354    6.2198  -18.8256 N   0  0  0  0  0  0  0  0  0  0  0  0
   -2.6040    5.8351  -18.6954 C   0  0  0  0  0  0  0  0  0  0  0  0
   -2.3733    4.3905  -19.1549 C   0  0  0  0  0  0  0  0  0  0  0  0
   -1.8773    6.7730  -19.6880 C   0  0  0  0  0  0  0  0  0  0  0  0
   -2.0563    6.0689  -17.2704 C   0  0  0  0  0  0  0  0  0  0  0  0
   -0.2733    6.0400  -17.1199 Cl  0  0  0  0  0  0  0  0  0  0  0  0
  1  2  1  0
  2  3  2  0
  3  4  1  0
  4  5  2  0
  5  6  1  0
  6  7  2  0
  7  8  1  0
  8  9  1  0
  9 10  1  0
  9 11  1  0
  9 12  1  0
 12 13  1  0
  7  2  1  0
M  END
>  <energy_score>  (1384) 
-14.610544

>  <alias>  (1384) 
None

>  <HIPPO Pose ID>  (1384) 
71388

>  <smiles>  (1384) 
Cc1nccnc1NC(C)(C)CCl

>  <inchikey>  (1384) 
BPFDLYDTOYWPBK-UHFFFAOYSA-N

>  <distance_score>  (1384) 
1.105518

>  <ref_mols>  (1384) 
Z0875a,Z0089a

>  <ref_pdb>  (1384) 
Z0089a

>  <HIPPO Compound ID>  (1384) 
144331

>  <name>  (1384) 
P71388

>  <inspiration_score>  (1384) 
None

$$$$
P71389
     RDKit          3D

 13 13  0  0  0  0  0  0  0  0999 V2000
   -8.7177    4.1429  -18.9434 C   0  0  0  0  0  0  0  0  0  0  0  0
   -7.4845    4.5874  -18.2227 C   0  0  0  0  0  0  0  0  0  0  0  0
   -7.5536    4.9354  -16.8851 C   0  0  0  0  0  0  0  0  0  0  0  0
   -6.4777    5.3482  -16.1874 N   0  0  0  0  0  0  0  0  0  0  0  0
   -5.3114    5.3351  -16.8797 C   0  0  0  0  0  0  0  0  0  0  0  0
   -5.1995    5.0038  -18.2255 C   0  0  0  0  0  0  0  0  0  0  0  0
   -4.0643    4.9116  -18.9758 N   0  0  0  0  0  0  0  0  0  0  0  0
   -2.7171    5.4938  -18.8819 C   0  0  0  0  0  0  0  0  0  0  0  0
   -1.7863    4.4735  -19.5725 C   0  0  0  0  0  0  0  0  0  0  0  0
   -2.7173    6.8037  -19.6835 C   0  0  0  0  0  0  0  0  0  0  0  0
   -2.2226    5.7549  -17.4408 C   0  0  0  0  0  0  0  0  0  0  0  0
   -0.5237    6.3084  -17.3127 Cl  0  0  0  0  0  0  0  0  0  0  0  0
   -6.3086    4.6412  -18.9029 N   0  0  0  0  0  0  0  0  0  0  0  0
  1  2  1  0
  2  3  2  0
  3  4  1  0
  4  5  2  0
  5  6  1  0
  6  7  1  0
  7  8  1  0
  8  9  1  0
  8 10  1  0
  8 11  1  0
 11 12  1  0
  6 13  2  0
 13  2  1  0
M  END
>  <energy_score>  (1385) 
-43.890267

>  <alias>  (1385) 
None

>  <HIPPO Pose ID>  (1385) 
71389

>  <smiles>  (1385) 
Cc1cncc(NC(C)(C)CCl)n1

>  <inchikey>  (1385) 
LJUUBUYWTUTPCP-UHFFFAOYSA-N

>  <distance_score>  (1385) 
0.796196

>  <ref_mols>  (1385) 
Z0875a,Z0089a

>  <ref_pdb>  (1385) 
Z0089a

>  <HIPPO Compound ID>  (1385) 
144332

>  <name>  (1385) 
P71389

>  <inspiration_score>  (1385) 
None

$$$$
P71390
     RDKit          3D

 13 14  0  0  0  0  0  0  0  0999 V2000
   -8.8458    4.4064  -15.1859 C   0  0  0  0  0  0  0  0  0  0  0  0
   -8.2698    4.4804  -16.5340 C   0  0  0  0  0  0  0  0  0  0  0  0
   -8.9674    4.1389  -17.6771 C   0  0  0  0  0  0  0  0  0  0  0  0
   -8.3979    4.2152  -18.8889 N   0  0  0  0  0  0  0  0  0  0  0  0
   -7.1163    4.6761  -18.9067 C   0  0  0  0  0  0  0  0  0  0  0  0
   -6.4203    5.0391  -17.7574 C   0  0  0  0  0  0  0  0  0  0  0  0
   -5.0886    5.4919  -17.7695 N   0  0  0  0  0  0  0  0  0  0  0  0
   -4.4176    5.4903  -16.4448 C   0  0  1  0  0  0  0  0  0  0  0  0
   -3.4710    6.5738  -15.9948 C   0  0  0  0  0  0  0  0  0  0  0  0
   -4.7777    6.3954  -15.3120 C   0  0  0  0  0  0  0  0  0  0  0  0
   -4.8221    5.9210  -14.0180 F   0  0  0  0  0  0  0  0  0  0  0  0
   -5.7001    7.4119  -15.4167 F   0  0  0  0  0  0  0  0  0  0  0  0
   -7.0101    4.9385  -16.5610 N   0  0  0  0  0  0  0  0  0  0  0  0
  1  2  1  0
  2  3  2  0
  3  4  1  0
  4  5  2  0
  5  6  1  0
  6  7  1  0
  8  7  1  6
  8  9  1  0
  9 10  1  0
 10 11  1  0
 10 12  1  0
  6 13  2  0
 13  2  1  0
 10  8  1  0
M  END
>  <energy_score>  (1386) 
-19.020708

>  <alias>  (1386) 
None

>  <HIPPO Pose ID>  (1386) 
71390

>  <smiles>  (1386) 
Cc1cncc(N[C@H]2CC2(F)F)n1

>  <inchikey>  (1386) 
LLGFWXQCKMEHTK-LURJTMIESA-N

>  <distance_score>  (1386) 
1.887697

>  <ref_mols>  (1386) 
Z0875a,Z0089a

>  <ref_pdb>  (1386) 
Z0089a

>  <HIPPO Compound ID>  (1386) 
144333

>  <name>  (1386) 
P71390

>  <inspiration_score>  (1386) 
None

$$$$
P71397
     RDKit          3D

 13 13  0  0  0  0  0  0  0  0999 V2000
   -4.3743    6.4619  -15.1251 C   0  0  0  0  0  0  0  0  0  0  0  0
   -4.1869    6.1167  -16.4934 O   0  0  0  0  0  0  0  0  0  0  0  0
   -5.2836    5.5469  -17.1035 C   0  0  0  0  0  0  0  0  0  0  0  0
   -6.3642    5.2958  -16.3175 N   0  0  0  0  0  0  0  0  0  0  0  0
   -7.4322    4.7532  -16.9411 C   0  0  0  0  0  0  0  0  0  0  0  0
   -7.4422    4.4930  -18.2928 C   0  0  0  0  0  0  0  0  0  0  0  0
   -6.3731    4.7447  -19.0727 N   0  0  0  0  0  0  0  0  0  0  0  0
   -5.2762    5.2817  -18.4904 C   0  0  0  0  0  0  0  0  0  0  0  0
   -4.3289    5.5391  -19.4386 N   0  0  0  0  0  0  0  0  0  0  0  0
   -2.8829    5.6381  -19.3829 C   0  0  2  0  0  0  0  0  0  0  0  0
   -2.2365    4.4837  -18.6375 C   0  0  0  0  0  0  0  0  0  0  0  0
   -2.3785    7.0080  -18.9109 C   0  0  0  0  0  0  0  0  0  0  0  0
   -2.8836    8.5759  -20.3242 I   0  0  0  0  0  0  0  0  0  0  0  0
  1  2  1  0
  2  3  1  0
  3  4  2  0
  4  5  1  0
  5  6  2  0
  6  7  1  0
  7  8  2  0
  8  9  1  0
  9 10  1  0
 10 11  1  1
 10 12  1  0
 12 13  1  0
  8  3  1  0
M  END
>  <energy_score>  (1387) 
-24.196677

>  <alias>  (1387) 
None

>  <HIPPO Pose ID>  (1387) 
71397

>  <smiles>  (1387) 
COc1nccnc1N[C@H](C)CI

>  <inchikey>  (1387) 
UXHGLEOWAWYUKS-ZCFIWIBFSA-N

>  <distance_score>  (1387) 
0.87643

>  <ref_mols>  (1387) 
Z0875a,Z0089a

>  <ref_pdb>  (1387) 
Z0089a

>  <HIPPO Compound ID>  (1387) 
144337

>  <name>  (1387) 
P71397

>  <inspiration_score>  (1387) 
None

$$$$
P71400
     RDKit          3D

 13 13  0  0  0  0  0  0  0  0999 V2000
   -4.2597    6.0308  -14.7757 C   0  0  0  0  0  0  0  0  0  0  0  0
   -4.8238    5.7458  -15.7984 C   0  0  0  0  0  0  0  0  0  0  0  0
   -5.6370    5.3108  -16.8963 C   0  0  0  0  0  0  0  0  0  0  0  0
   -6.8656    4.9500  -16.4385 N   0  0  0  0  0  0  0  0  0  0  0  0
   -7.7425    4.5240  -17.3677 C   0  0  0  0  0  0  0  0  0  0  0  0
   -7.4225    4.4752  -18.7045 C   0  0  0  0  0  0  0  0  0  0  0  0
   -6.2109    4.8528  -19.1657 N   0  0  0  0  0  0  0  0  0  0  0  0
   -5.3032    5.2899  -18.2634 C   0  0  0  0  0  0  0  0  0  0  0  0
   -4.1905    5.7809  -18.9059 N   0  0  0  0  0  0  0  0  0  0  0  0
   -2.8137    5.5407  -18.5038 C   0  0  1  0  0  0  0  0  0  0  0  0
   -2.2728    4.2499  -19.1148 C   0  0  0  0  0  0  0  0  0  0  0  0
   -1.9578    6.7627  -18.8993 C   0  0  0  0  0  0  0  0  0  0  0  0
   -1.9379    7.1838  -21.0241 I   0  0  0  0  0  0  0  0  0  0  0  0
  1  2  3  0
  2  3  1  0
  3  4  2  0
  4  5  1  0
  5  6  2  0
  6  7  1  0
  7  8  2  0
  8  9  1  0
  9 10  1  0
 10 11  1  6
 10 12  1  0
 12 13  1  0
  8  3  1  0
M  END
>  <energy_score>  (1388) 
-23.104191

>  <alias>  (1388) 
None

>  <HIPPO Pose ID>  (1388) 
71400

>  <smiles>  (1388) 
C#Cc1nccnc1N[C@@H](C)CI

>  <inchikey>  (1388) 
HCZDPQUWJQLHMZ-ZETCQYMHSA-N

>  <distance_score>  (1388) 
0.986397

>  <ref_mols>  (1388) 
Z0875a,Z0089a

>  <ref_pdb>  (1388) 
Z0089a

>  <HIPPO Compound ID>  (1388) 
144338

>  <name>  (1388) 
P71400

>  <inspiration_score>  (1388) 
None

$$$$
P71401
     RDKit          3D

 13 13  0  0  0  0  0  0  0  0999 V2000
   -9.8997    4.1306  -18.1960 C   0  0  0  0  0  0  0  0  0  0  0  0
   -8.7159    4.3038  -18.1016 C   0  0  0  0  0  0  0  0  0  0  0  0
   -7.3515    4.5905  -17.8023 C   0  0  0  0  0  0  0  0  0  0  0  0
   -6.9699    4.7728  -16.4836 C   0  0  0  0  0  0  0  0  0  0  0  0
   -5.7027    5.0701  -16.1301 N   0  0  0  0  0  0  0  0  0  0  0  0
   -4.8380    5.1365  -17.1703 C   0  0  0  0  0  0  0  0  0  0  0  0
   -5.2009    4.9863  -18.5119 C   0  0  0  0  0  0  0  0  0  0  0  0
   -4.3494    5.0714  -19.5812 N   0  0  0  0  0  0  0  0  0  0  0  0
   -2.9893    5.5835  -19.6592 C   0  0  2  0  0  0  0  0  0  0  0  0
   -1.9967    4.5636  -19.1050 C   0  0  0  0  0  0  0  0  0  0  0  0
   -2.7769    6.9842  -19.0651 C   0  0  0  0  0  0  0  0  0  0  0  0
   -3.9491    8.4830  -20.0921 I   0  0  0  0  0  0  0  0  0  0  0  0
   -6.4837    4.7112  -18.8318 N   0  0  0  0  0  0  0  0  0  0  0  0
  1  2  3  0
  2  3  1  0
  3  4  2  0
  4  5  1  0
  5  6  2  0
  6  7  1  0
  7  8  1  0
  8  9  1  0
  9 10  1  1
  9 11  1  0
 11 12  1  0
  7 13  2  0
 13  3  1  0
M  END
>  <energy_score>  (1389) 
-12.324843

>  <alias>  (1389) 
None

>  <HIPPO Pose ID>  (1389) 
71401

>  <smiles>  (1389) 
C#Cc1cncc(N[C@H](C)CI)n1

>  <inchikey>  (1389) 
LZTUKAYSOVXCIL-SSDOTTSWSA-N

>  <distance_score>  (1389) 
1.06841

>  <ref_mols>  (1389) 
Z0875a,Z0089a

>  <ref_pdb>  (1389) 
Z0089a

>  <HIPPO Compound ID>  (1389) 
144339

>  <name>  (1389) 
P71401

>  <inspiration_score>  (1389) 
None

$$$$
P71404
     RDKit          3D

 13 13  0  0  0  0  0  0  0  0999 V2000
   -8.9908    4.4491  -15.6191 C   0  0  0  0  0  0  0  0  0  0  0  0
   -8.1338    4.7442  -16.3995 C   0  0  0  0  0  0  0  0  0  0  0  0
   -7.0546    5.0257  -17.2686 C   0  0  0  0  0  0  0  0  0  0  0  0
   -6.9943    4.5258  -18.5547 C   0  0  0  0  0  0  0  0  0  0  0  0
   -5.8907    4.6740  -19.3201 N   0  0  0  0  0  0  0  0  0  0  0  0
   -4.8741    5.3607  -18.7735 C   0  0  0  0  0  0  0  0  0  0  0  0
   -3.7619    5.4849  -19.5931 N   0  0  0  0  0  0  0  0  0  0  0  0
   -2.4481    5.3515  -18.9623 C   0  0  1  0  0  0  0  0  0  0  0  0
   -1.6058    4.3632  -19.7642 C   0  0  0  0  0  0  0  0  0  0  0  0
   -1.7947    6.7479  -18.9302 C   0  0  0  0  0  0  0  0  0  0  0  0
   -0.1914    6.8646  -17.5030 I   0  0  0  0  0  0  0  0  0  0  0  0
   -4.9820    5.9083  -17.4929 C   0  0  0  0  0  0  0  0  0  0  0  0
   -6.0645    5.7520  -16.7066 N   0  0  0  0  0  0  0  0  0  0  0  0
  1  2  3  0
  2  3  1  0
  3  4  2  0
  4  5  1  0
  5  6  2  0
  6  7  1  0
  7  8  1  0
  8  9  1  6
  8 10  1  0
 10 11  1  0
  6 12  1  0
 12 13  2  0
 13  3  1  0
M  END
>  <energy_score>  (1390) 
-30.620846

>  <alias>  (1390) 
None

>  <HIPPO Pose ID>  (1390) 
71404

>  <smiles>  (1390) 
C#Cc1cnc(N[C@@H](C)CI)cn1

>  <inchikey>  (1390) 
AHZYIQCPMKDORX-ZETCQYMHSA-N

>  <distance_score>  (1390) 
1.002686

>  <ref_mols>  (1390) 
Z0875a,Z0089a

>  <ref_pdb>  (1390) 
Z0089a

>  <HIPPO Compound ID>  (1390) 
144340

>  <name>  (1390) 
P71404

>  <inspiration_score>  (1390) 
None

$$$$
P71414
     RDKit          3D

 13 13  0  0  0  0  0  0  0  0999 V2000
   -8.2924    4.5089  -15.8368 C   0  0  0  0  0  0  0  0  0  0  0  0
   -7.1599    4.7475  -16.7808 C   0  0  0  0  0  0  0  0  0  0  0  0
   -6.0001    5.1637  -16.2177 N   0  0  0  0  0  0  0  0  0  0  0  0
   -4.9751    5.3719  -17.0706 C   0  0  0  0  0  0  0  0  0  0  0  0
   -5.0605    5.1774  -18.4437 C   0  0  0  0  0  0  0  0  0  0  0  0
   -4.0531    5.4064  -19.3462 N   0  0  0  0  0  0  0  0  0  0  0  0
   -2.6411    5.4892  -19.0164 C   0  0  1  0  0  0  0  0  0  0  0  0
   -1.9343    4.2189  -19.4833 C   0  0  0  0  0  0  0  0  0  0  0  0
   -2.0203    6.7231  -19.6915 C   0  0  0  0  0  0  0  0  0  0  0  0
   -2.6652    8.5622  -18.7677 I   0  0  0  0  0  0  0  0  0  0  0  0
   -6.2224    4.7799  -18.9890 N   0  0  0  0  0  0  0  0  0  0  0  0
   -7.2780    4.5639  -18.1591 C   0  0  0  0  0  0  0  0  0  0  0  0
   -8.5706    4.1684  -18.8076 C   0  0  0  0  0  0  0  0  0  0  0  0
  1  2  1  0
  2  3  2  0
  3  4  1  0
  4  5  2  0
  5  6  1  0
  6  7  1  0
  7  8  1  6
  7  9  1  0
  9 10  1  0
  5 11  1  0
 11 12  2  0
 12 13  1  0
 12  2  1  0
M  END
>  <energy_score>  (1391) 
-20.482959

>  <alias>  (1391) 
None

>  <HIPPO Pose ID>  (1391) 
71414

>  <smiles>  (1391) 
Cc1ncc(N[C@@H](C)CI)nc1C

>  <inchikey>  (1391) 
GSOIFKPLUCMSCY-LURJTMIESA-N

>  <distance_score>  (1391) 
0.745199

>  <ref_mols>  (1391) 
Z0875a,Z0089a

>  <ref_pdb>  (1391) 
Z0089a

>  <HIPPO Compound ID>  (1391) 
144345

>  <name>  (1391) 
P71414

>  <inspiration_score>  (1391) 
None

$$$$
P71416
     RDKit          3D

 13 13  0  0  0  0  0  0  0  0999 V2000
   -9.6229    3.9123  -17.8111 C   0  0  0  0  0  0  0  0  0  0  0  0
   -8.4818    4.0441  -18.6436 O   0  0  0  0  0  0  0  0  0  0  0  0
   -7.3707    4.6054  -18.0786 C   0  0  0  0  0  0  0  0  0  0  0  0
   -7.3043    5.1166  -16.7882 C   0  0  0  0  0  0  0  0  0  0  0  0
   -6.1990    5.7057  -16.2754 N   0  0  0  0  0  0  0  0  0  0  0  0
   -5.1421    5.7293  -17.1157 C   0  0  0  0  0  0  0  0  0  0  0  0
   -5.1603    5.1992  -18.4082 C   0  0  0  0  0  0  0  0  0  0  0  0
   -4.0870    5.2470  -19.2837 N   0  0  0  0  0  0  0  0  0  0  0  0
   -2.7079    5.2757  -18.8004 C   0  0  1  0  0  0  0  0  0  0  0  0
   -1.8598    4.2752  -19.5855 C   0  0  0  0  0  0  0  0  0  0  0  0
   -2.1684    6.7120  -18.9600 C   0  0  0  0  0  0  0  0  0  0  0  0
   -0.4466    7.0772  -17.7245 I   0  0  0  0  0  0  0  0  0  0  0  0
   -6.2873    4.6427  -18.8937 N   0  0  0  0  0  0  0  0  0  0  0  0
  1  2  1  0
  2  3  1  0
  3  4  2  0
  4  5  1  0
  5  6  2  0
  6  7  1  0
  7  8  1  0
  8  9  1  0
  9 10  1  6
  9 11  1  0
 11 12  1  0
  7 13  2  0
 13  3  1  0
M  END
>  <energy_score>  (1392) 
-22.162181

>  <alias>  (1392) 
None

>  <HIPPO Pose ID>  (1392) 
71416

>  <smiles>  (1392) 
COc1cncc(N[C@@H](C)CI)n1

>  <inchikey>  (1392) 
BEPMHIFFCRHNKL-LURJTMIESA-N

>  <distance_score>  (1392) 
0.705684

>  <ref_mols>  (1392) 
Z0875a,Z0089a

>  <ref_pdb>  (1392) 
Z0089a

>  <HIPPO Compound ID>  (1392) 
144346

>  <name>  (1392) 
P71416

>  <inspiration_score>  (1392) 
None

$$$$
P71421
     RDKit          3D

 13 15  0  0  0  0  0  0  0  0999 V2000
   -8.6029    4.3199  -14.8102 C   0  0  0  0  0  0  0  0  0  0  0  0
   -8.2254    4.5078  -16.2171 C   0  0  0  0  0  0  0  0  0  0  0  0
   -9.0208    4.1457  -17.2873 C   0  0  0  0  0  0  0  0  0  0  0  0
   -8.5878    4.2568  -18.5548 N   0  0  0  0  0  0  0  0  0  0  0  0
   -7.3320    4.7666  -18.6963 C   0  0  0  0  0  0  0  0  0  0  0  0
   -6.5246    5.1363  -17.6216 C   0  0  0  0  0  0  0  0  0  0  0  0
   -5.2486    5.7147  -17.7784 N   0  0  0  0  0  0  0  0  0  0  0  0
   -4.3458    5.6513  -16.5919 C   0  0  1  0  0  0  0  0  0  0  0  0
   -3.5467    6.8210  -16.2112 C   0  0  0  0  0  0  0  0  0  0  0  0
   -4.6435    6.3638  -15.2560 C   0  0  0  0  0  0  0  0  0  0  0  0
   -4.8389    5.3059  -14.1593 C   0  0  0  0  0  0  0  0  0  0  0  0
   -4.1207    6.5329  -13.8252 C   0  0  0  0  0  0  0  0  0  0  0  0
   -6.9959    5.0165  -16.3778 N   0  0  0  0  0  0  0  0  0  0  0  0
  1  2  1  0
  2  3  2  0
  3  4  1  0
  4  5  2  0
  5  6  1  0
  6  7  1  0
  8  7  1  6
  8  9  1  0
  9 10  1  0
 10 11  1  0
 11 12  1  0
  6 13  2  0
 13  2  1  0
 10  8  1  0
 12 10  1  0
M  END
>  <energy_score>  (1393) 
-0.729735

>  <alias>  (1393) 
None

>  <HIPPO Pose ID>  (1393) 
71421

>  <smiles>  (1393) 
Cc1cncc(N[C@H]2CC23CC3)n1

>  <inchikey>  (1393) 
PEMUUYMDHPCEQO-QMMMGPOBSA-N

>  <distance_score>  (1393) 
1.143308

>  <ref_mols>  (1393) 
Z0875a,Z0089a

>  <ref_pdb>  (1393) 
Z0089a

>  <HIPPO Compound ID>  (1393) 
144349

>  <name>  (1393) 
P71421

>  <inspiration_score>  (1393) 
None

$$$$
P71423
     RDKit          3D

 13 13  0  0  0  0  0  0  0  0999 V2000
   -2.2797    4.3215  -19.1378 C   0  0  0  0  0  0  0  0  0  0  0  0
   -2.7220    5.6653  -18.5550 C   0  0  1  0  0  0  0  0  0  0  0  0
   -1.8246    6.7603  -19.1452 C   0  0  0  0  0  0  0  0  0  0  0  0
   -2.1726    8.5154  -18.3713 Br  0  0  0  0  0  0  0  0  0  0  0  0
   -4.1100    5.9346  -18.9222 N   0  0  0  0  0  0  0  0  0  0  0  0
   -5.1946    5.4428  -18.2364 C   0  0  0  0  0  0  0  0  0  0  0  0
   -6.0751    4.9102  -19.1202 N   0  0  0  0  0  0  0  0  0  0  0  0
   -7.2699    4.4859  -18.6577 C   0  0  0  0  0  0  0  0  0  0  0  0
   -7.5957    4.5564  -17.3251 C   0  0  0  0  0  0  0  0  0  0  0  0
   -6.7470    5.0660  -16.4100 N   0  0  0  0  0  0  0  0  0  0  0  0
   -5.5381    5.5093  -16.8761 C   0  0  0  0  0  0  0  0  0  0  0  0
   -4.7700    6.1230  -15.7536 C   0  0  0  0  0  0  0  0  0  0  0  0
   -3.7098    6.7280  -15.8049 O   0  0  0  0  0  0  0  0  0  0  0  0
  2  1  1  6
  2  3  1  0
  3  4  1  0
  2  5  1  0
  5  6  1  0
  6  7  2  0
  7  8  1  0
  8  9  2  0
  9 10  1  0
 10 11  2  0
 11 12  1  0
 12 13  2  0
 11  6  1  0
M  END
>  <energy_score>  (1394) 
-16.657286

>  <alias>  (1394) 
None

>  <HIPPO Pose ID>  (1394) 
71423

>  <smiles>  (1394) 
C[C@@H](CBr)Nc1nccnc1C=O

>  <inchikey>  (1394) 
CDDAYAVJDNWGOB-LURJTMIESA-N

>  <distance_score>  (1394) 
0.926196

>  <ref_mols>  (1394) 
Z0875a,Z0089a

>  <ref_pdb>  (1394) 
Z0089a

>  <HIPPO Compound ID>  (1394) 
144351

>  <name>  (1394) 
P71423

>  <inspiration_score>  (1394) 
None

$$$$
P71425
     RDKit          3D

 13 13  0  0  0  0  0  0  0  0999 V2000
   -1.3864    4.4575  -19.6391 C   0  0  0  0  0  0  0  0  0  0  0  0
   -2.3997    5.4254  -19.0379 C   0  0  1  0  0  0  0  0  0  0  0  0
   -2.1894    6.8741  -19.4775 C   0  0  0  0  0  0  0  0  0  0  0  0
   -2.4410    7.1254  -21.4014 Br  0  0  0  0  0  0  0  0  0  0  0  0
   -3.7198    4.9505  -19.3858 N   0  0  0  0  0  0  0  0  0  0  0  0
   -4.8048    5.0235  -18.5591 C   0  0  0  0  0  0  0  0  0  0  0  0
   -4.7931    5.0067  -17.1697 C   0  0  0  0  0  0  0  0  0  0  0  0
   -5.9151    4.9827  -16.4147 N   0  0  0  0  0  0  0  0  0  0  0  0
   -7.0823    4.8807  -17.1000 C   0  0  0  0  0  0  0  0  0  0  0  0
   -8.3043    4.6945  -16.2632 C   0  0  0  0  0  0  0  0  0  0  0  0
   -9.8232    4.0561  -17.2747 Br  0  0  0  0  0  0  0  0  0  0  0  0
   -7.0890    4.9489  -18.4876 C   0  0  0  0  0  0  0  0  0  0  0  0
   -5.9636    5.0393  -19.2228 N   0  0  0  0  0  0  0  0  0  0  0  0
  2  1  1  6
  2  3  1  0
  3  4  1  0
  2  5  1  0
  5  6  1  0
  6  7  2  0
  7  8  1  0
  8  9  2  0
  9 10  1  0
 10 11  1  0
  9 12  1  0
 12 13  2  0
 13  6  1  0
M  END
>  <energy_score>  (1395) 
-24.153793

>  <alias>  (1395) 
None

>  <HIPPO Pose ID>  (1395) 
71425

>  <smiles>  (1395) 
C[C@@H](CBr)Nc1cnc(CBr)cn1

>  <inchikey>  (1395) 
YUXJFFWHJYLRQV-LURJTMIESA-N

>  <distance_score>  (1395) 
0.876489

>  <ref_mols>  (1395) 
Z0875a,Z0089a

>  <ref_pdb>  (1395) 
Z0089a

>  <HIPPO Compound ID>  (1395) 
144352

>  <name>  (1395) 
P71425

>  <inspiration_score>  (1395) 
None

$$$$
P71427
     RDKit          3D

 13 13  0  0  0  0  0  0  0  0999 V2000
   -8.4754    4.7550  -15.9471 C   0  0  0  0  0  0  0  0  0  0  0  0
   -7.3210    4.9763  -16.8723 C   0  0  0  0  0  0  0  0  0  0  0  0
   -6.2118    5.5209  -16.3144 N   0  0  0  0  0  0  0  0  0  0  0  0
   -5.1402    5.6265  -17.1308 C   0  0  0  0  0  0  0  0  0  0  0  0
   -5.1295    5.2075  -18.4591 C   0  0  0  0  0  0  0  0  0  0  0  0
   -4.0448    5.3157  -19.3137 N   0  0  0  0  0  0  0  0  0  0  0  0
   -2.6781    5.2878  -18.7977 C   0  0  1  0  0  0  0  0  0  0  0  0
   -1.8072    4.3828  -19.6679 C   0  0  0  0  0  0  0  0  0  0  0  0
   -2.1365    6.7226  -18.7899 C   0  0  0  0  0  0  0  0  0  0  0  0
   -0.5799    6.8855  -17.6240 Br  0  0  0  0  0  0  0  0  0  0  0  0
   -6.2471    4.7024  -19.0082 N   0  0  0  0  0  0  0  0  0  0  0  0
   -7.3501    4.5924  -18.2151 C   0  0  0  0  0  0  0  0  0  0  0  0
   -8.6078    4.0975  -18.8658 C   0  0  0  0  0  0  0  0  0  0  0  0
  1  2  1  0
  2  3  2  0
  3  4  1  0
  4  5  2  0
  5  6  1  0
  6  7  1  0
  7  8  1  6
  7  9  1  0
  9 10  1  0
  5 11  1  0
 11 12  2  0
 12 13  1  0
 12  2  1  0
M  END
>  <energy_score>  (1396) 
-25.755841

>  <alias>  (1396) 
None

>  <HIPPO Pose ID>  (1396) 
71427

>  <smiles>  (1396) 
Cc1ncc(N[C@@H](C)CBr)nc1C

>  <inchikey>  (1396) 
BNMBLTRACOUVKW-LURJTMIESA-N

>  <distance_score>  (1396) 
0.759515

>  <ref_mols>  (1396) 
Z0875a,Z0089a

>  <ref_pdb>  (1396) 
Z0089a

>  <HIPPO Compound ID>  (1396) 
144353

>  <name>  (1396) 
P71427

>  <inspiration_score>  (1396) 
None

$$$$
P71429
     RDKit          3D

 13 13  0  0  0  0  0  0  0  0999 V2000
   -9.6332    3.9091  -17.8167 C   0  0  0  0  0  0  0  0  0  0  0  0
   -8.4879    4.0381  -18.6453 O   0  0  0  0  0  0  0  0  0  0  0  0
   -7.3786    4.6003  -18.0785 C   0  0  0  0  0  0  0  0  0  0  0  0
   -7.3142    5.1099  -16.7874 C   0  0  0  0  0  0  0  0  0  0  0  0
   -6.2097    5.6994  -16.2726 N   0  0  0  0  0  0  0  0  0  0  0  0
   -5.1519    5.7250  -17.1116 C   0  0  0  0  0  0  0  0  0  0  0  0
   -5.1681    5.1972  -18.4051 C   0  0  0  0  0  0  0  0  0  0  0  0
   -4.0938    5.2479  -19.2801 N   0  0  0  0  0  0  0  0  0  0  0  0
   -2.7166    5.2734  -18.7915 C   0  0  1  0  0  0  0  0  0  0  0  0
   -1.8575    4.2938  -19.5900 C   0  0  0  0  0  0  0  0  0  0  0  0
   -2.1821    6.7050  -18.9212 C   0  0  0  0  0  0  0  0  0  0  0  0
   -0.6109    6.9779  -17.7963 Br  0  0  0  0  0  0  0  0  0  0  0  0
   -6.2937    4.6398  -18.8922 N   0  0  0  0  0  0  0  0  0  0  0  0
  1  2  1  0
  2  3  1  0
  3  4  2  0
  4  5  1  0
  5  6  2  0
  6  7  1  0
  7  8  1  0
  8  9  1  0
  9 10  1  6
  9 11  1  0
 11 12  1  0
  7 13  2  0
 13  3  1  0
M  END
>  <energy_score>  (1397) 
-34.913783

>  <alias>  (1397) 
None

>  <HIPPO Pose ID>  (1397) 
71429

>  <smiles>  (1397) 
COc1cncc(N[C@@H](C)CBr)n1

>  <inchikey>  (1397) 
FRUKPLDYMYMTBR-LURJTMIESA-N

>  <distance_score>  (1397) 
0.707065

>  <ref_mols>  (1397) 
Z0875a,Z0089a

>  <ref_pdb>  (1397) 
Z0089a

>  <HIPPO Compound ID>  (1397) 
144354

>  <name>  (1397) 
P71429

>  <inspiration_score>  (1397) 
None

$$$$
P71433
     RDKit          3D

 13 13  0  0  0  0  0  0  0  0999 V2000
   -1.6214    4.3405  -19.5838 C   0  0  0  0  0  0  0  0  0  0  0  0
   -2.6319    5.2984  -18.9536 C   0  0  1  0  0  0  0  0  0  0  0  0
   -2.3458    6.7657  -19.2677 C   0  0  0  0  0  0  0  0  0  0  0  0
   -2.4918    7.1637  -21.1795 Br  0  0  0  0  0  0  0  0  0  0  0  0
   -3.9591    4.9171  -19.3777 N   0  0  0  0  0  0  0  0  0  0  0  0
   -5.1319    4.9541  -18.6672 C   0  0  0  0  0  0  0  0  0  0  0  0
   -6.1848    4.5234  -19.3131 N   0  0  0  0  0  0  0  0  0  0  0  0
   -7.3773    4.4913  -18.6490 C   0  0  0  0  0  0  0  0  0  0  0  0
   -7.5553    4.8976  -17.3905 C   0  0  0  0  0  0  0  0  0  0  0  0
   -6.5148    5.4399  -16.6809 N   0  0  0  0  0  0  0  0  0  0  0  0
   -6.6977    5.9287  -15.3499 C   0  0  0  0  0  0  0  0  0  0  0  0
   -5.2346    5.4826  -17.2038 C   0  0  0  0  0  0  0  0  0  0  0  0
   -4.2716    5.9322  -16.5931 O   0  0  0  0  0  0  0  0  0  0  0  0
  2  1  1  6
  2  3  1  0
  3  4  1  0
  2  5  1  0
  5  6  1  0
  6  7  2  0
  7  8  1  0
  8  9  2  0
  9 10  1  0
 10 11  1  0
 10 12  1  0
 12 13  2  0
 12  6  1  0
M  END
>  <energy_score>  (1398) 
-128.516684

>  <alias>  (1398) 
None

>  <HIPPO Pose ID>  (1398) 
71433

>  <smiles>  (1398) 
C[C@@H](CBr)Nc1nccn(C)c1=O

>  <inchikey>  (1398) 
SGINUHMAKCLQKL-LURJTMIESA-N

>  <distance_score>  (1398) 
1.14434

>  <ref_mols>  (1398) 
Z0875a,Z0089a

>  <ref_pdb>  (1398) 
Z0089a

>  <HIPPO Compound ID>  (1398) 
144356

>  <name>  (1398) 
P71433

>  <inspiration_score>  (1398) 
None

$$$$
P71441
     RDKit          3D

 13 13  0  0  0  0  0  0  0  0999 V2000
   -4.5861    6.5382  -14.9703 C   0  0  0  0  0  0  0  0  0  0  0  0
   -4.3065    6.2466  -16.3329 O   0  0  0  0  0  0  0  0  0  0  0  0
   -5.3304    5.6178  -17.0156 C   0  0  0  0  0  0  0  0  0  0  0  0
   -6.4997    5.4162  -16.3589 N   0  0  0  0  0  0  0  0  0  0  0  0
   -7.4781    4.8298  -17.0853 C   0  0  0  0  0  0  0  0  0  0  0  0
   -7.3175    4.4907  -18.4137 C   0  0  0  0  0  0  0  0  0  0  0  0
   -6.1539    4.6859  -19.0683 N   0  0  0  0  0  0  0  0  0  0  0  0
   -5.1453    5.2516  -18.3713 C   0  0  0  0  0  0  0  0  0  0  0  0
   -4.0283    5.4608  -19.1638 N   0  0  0  0  0  0  0  0  0  0  0  0
   -2.6796    5.3518  -18.6174 C   0  0  1  0  0  0  0  0  0  0  0  0
   -1.8439    4.4360  -19.5176 C   0  0  0  0  0  0  0  0  0  0  0  0
   -2.0728    6.7582  -18.5672 C   0  0  0  0  0  0  0  0  0  0  0  0
   -0.5088    6.8165  -17.3993 Br  0  0  0  0  0  0  0  0  0  0  0  0
  1  2  1  0
  2  3  1  0
  3  4  2  0
  4  5  1  0
  5  6  2  0
  6  7  1  0
  7  8  2  0
  8  9  1  0
  9 10  1  0
 10 11  1  6
 10 12  1  0
 12 13  1  0
  8  3  1  0
M  END
>  <energy_score>  (1399) 
-23.785514

>  <alias>  (1399) 
None

>  <HIPPO Pose ID>  (1399) 
71441

>  <smiles>  (1399) 
COc1nccnc1N[C@@H](C)CBr

>  <inchikey>  (1399) 
SDASKWYSTUJAKF-LURJTMIESA-N

>  <distance_score>  (1399) 
0.849854

>  <ref_mols>  (1399) 
Z0875a,Z0089a

>  <ref_pdb>  (1399) 
Z0089a

>  <HIPPO Compound ID>  (1399) 
144360

>  <name>  (1399) 
P71441

>  <inspiration_score>  (1399) 
None

$$$$
P71445
     RDKit          3D

 13 13  0  0  0  0  0  0  0  0999 V2000
   -9.8747    4.1105  -18.2695 C   0  0  0  0  0  0  0  0  0  0  0  0
   -8.6968    4.2984  -18.1405 C   0  0  0  0  0  0  0  0  0  0  0  0
   -7.3659    4.6277  -17.7520 C   0  0  0  0  0  0  0  0  0  0  0  0
   -7.1233    4.9204  -16.4189 C   0  0  0  0  0  0  0  0  0  0  0  0
   -5.9105    5.2897  -15.9659 N   0  0  0  0  0  0  0  0  0  0  0  0
   -4.9486    5.3079  -16.9169 C   0  0  0  0  0  0  0  0  0  0  0  0
   -5.1649    5.0175  -18.2715 C   0  0  0  0  0  0  0  0  0  0  0  0
   -4.1808    5.0089  -19.2324 N   0  0  0  0  0  0  0  0  0  0  0  0
   -2.8018    5.4354  -19.0462 C   0  0  1  0  0  0  0  0  0  0  0  0
   -1.8812    4.3337  -19.5723 C   0  0  0  0  0  0  0  0  0  0  0  0
   -2.5210    6.7517  -19.7683 C   0  0  0  0  0  0  0  0  0  0  0  0
   -3.3666    8.2599  -18.8613 Br  0  0  0  0  0  0  0  0  0  0  0  0
   -6.4021    4.6837  -18.7013 N   0  0  0  0  0  0  0  0  0  0  0  0
  1  2  3  0
  2  3  1  0
  3  4  2  0
  4  5  1  0
  5  6  2  0
  6  7  1  0
  7  8  1  0
  8  9  1  0
  9 10  1  6
  9 11  1  0
 11 12  1  0
  7 13  2  0
 13  3  1  0
M  END
>  <energy_score>  (1400) 
-21.19695

>  <alias>  (1400) 
None

>  <HIPPO Pose ID>  (1400) 
71445

>  <smiles>  (1400) 
C#Cc1cncc(N[C@@H](C)CBr)n1

>  <inchikey>  (1400) 
UKJVLLDBHPRLMP-ZETCQYMHSA-N

>  <distance_score>  (1400) 
1.0749

>  <ref_mols>  (1400) 
Z0875a,Z0089a

>  <ref_pdb>  (1400) 
Z0089a

>  <HIPPO Compound ID>  (1400) 
144362

>  <name>  (1400) 
P71445

>  <inspiration_score>  (1400) 
None

$$$$
P71447
     RDKit          3D

 13 13  0  0  0  0  0  0  0  0999 V2000
   -8.8494    4.3376  -15.4433 C   0  0  0  0  0  0  0  0  0  0  0  0
   -7.9738    4.5670  -16.2258 C   0  0  0  0  0  0  0  0  0  0  0  0
   -6.8973    4.8474  -17.0976 C   0  0  0  0  0  0  0  0  0  0  0  0
   -6.9395    4.5688  -18.4490 C   0  0  0  0  0  0  0  0  0  0  0  0
   -5.8759    4.7957  -19.2503 N   0  0  0  0  0  0  0  0  0  0  0  0
   -4.7939    5.3426  -18.6693 C   0  0  0  0  0  0  0  0  0  0  0  0
   -3.7561    5.6012  -19.5352 N   0  0  0  0  0  0  0  0  0  0  0  0
   -2.3719    5.4905  -19.0933 C   0  0  1  0  0  0  0  0  0  0  0  0
   -1.7793    4.1721  -19.5777 C   0  0  0  0  0  0  0  0  0  0  0  0
   -1.5711    6.6700  -19.6451 C   0  0  0  0  0  0  0  0  0  0  0  0
   -2.0267    8.3276  -18.7147 Br  0  0  0  0  0  0  0  0  0  0  0  0
   -4.7942    5.6581  -17.3104 C   0  0  0  0  0  0  0  0  0  0  0  0
   -5.8303    5.4048  -16.4904 N   0  0  0  0  0  0  0  0  0  0  0  0
  1  2  3  0
  2  3  1  0
  3  4  2  0
  4  5  1  0
  5  6  2  0
  6  7  1  0
  7  8  1  0
  8  9  1  6
  8 10  1  0
 10 11  1  0
  6 12  1  0
 12 13  2  0
 13  3  1  0
M  END
>  <energy_score>  (1401) 
-33.211401

>  <alias>  (1401) 
None

>  <HIPPO Pose ID>  (1401) 
71447

>  <smiles>  (1401) 
C#Cc1cnc(N[C@@H](C)CBr)cn1

>  <inchikey>  (1401) 
CGNNNCIBOWXXBY-ZETCQYMHSA-N

>  <distance_score>  (1401) 
1.058773

>  <ref_mols>  (1401) 
Z0875a,Z0089a

>  <ref_pdb>  (1401) 
Z0089a

>  <HIPPO Compound ID>  (1401) 
144363

>  <name>  (1401) 
P71447

>  <inspiration_score>  (1401) 
None

$$$$
P71448
     RDKit          3D

 13 13  0  0  0  0  0  0  0  0999 V2000
   -9.3604    4.0763  -16.6401 C   0  0  0  0  0  0  0  0  0  0  0  0
   -8.0958    4.7022  -16.0902 C   0  0  0  0  0  0  0  0  0  0  0  0
   -6.9979    4.9343  -17.0821 C   0  0  0  0  0  0  0  0  0  0  0  0
   -7.1217    4.6914  -18.4417 C   0  0  0  0  0  0  0  0  0  0  0  0
   -6.1008    4.8685  -19.3077 N   0  0  0  0  0  0  0  0  0  0  0  0
   -4.9376    5.3127  -18.8124 C   0  0  0  0  0  0  0  0  0  0  0  0
   -4.0024    5.5352  -19.7806 N   0  0  0  0  0  0  0  0  0  0  0  0
   -2.5564    5.6343  -19.6702 C   0  0  2  0  0  0  0  0  0  0  0  0
   -1.9435    4.3453  -19.1395 C   0  0  0  0  0  0  0  0  0  0  0  0
   -2.1224    6.8787  -18.8953 C   0  0  0  0  0  0  0  0  0  0  0  0
   -0.3350    7.4601  -19.4361 Br  0  0  0  0  0  0  0  0  0  0  0  0
   -4.8182    5.5536  -17.4504 C   0  0  0  0  0  0  0  0  0  0  0  0
   -5.8298    5.3897  -16.5652 N   0  0  0  0  0  0  0  0  0  0  0  0
  1  2  1  0
  2  3  1  0
  3  4  2  0
  4  5  1  0
  5  6  2  0
  6  7  1  0
  7  8  1  0
  8  9  1  1
  8 10  1  0
 10 11  1  0
  6 12  1  0
 12 13  2  0
 13  3  1  0
M  END
>  <energy_score>  (1402) 
-39.871077

>  <alias>  (1402) 
None

>  <HIPPO Pose ID>  (1402) 
71448

>  <smiles>  (1402) 
CCc1cnc(N[C@H](C)CBr)cn1

>  <inchikey>  (1402) 
CSHUZTDTBUQLIF-SSDOTTSWSA-N

>  <distance_score>  (1402) 
0.763179

>  <ref_mols>  (1402) 
Z0875a,Z0089a

>  <ref_pdb>  (1402) 
Z0089a

>  <HIPPO Compound ID>  (1402) 
144364

>  <name>  (1402) 
P71448

>  <inspiration_score>  (1402) 
None

$$$$
P71457
     RDKit          3D

 13 13  0  0  0  0  0  0  0  0999 V2000
   -4.6233    6.5428  -14.9178 C   0  0  0  0  0  0  0  0  0  0  0  0
   -4.3587    6.3200  -16.2956 O   0  0  0  0  0  0  0  0  0  0  0  0
   -5.3450    5.6314  -16.9743 C   0  0  0  0  0  0  0  0  0  0  0  0
   -6.4959    5.3540  -16.3140 N   0  0  0  0  0  0  0  0  0  0  0  0
   -7.4585    4.7575  -17.0531 C   0  0  0  0  0  0  0  0  0  0  0  0
   -7.2971    4.4726  -18.3945 C   0  0  0  0  0  0  0  0  0  0  0  0
   -6.1490    4.7393  -19.0521 N   0  0  0  0  0  0  0  0  0  0  0  0
   -5.1608    5.3251  -18.3438 C   0  0  0  0  0  0  0  0  0  0  0  0
   -4.0805    5.6598  -19.1433 N   0  0  0  0  0  0  0  0  0  0  0  0
   -2.6998    5.4908  -18.6862 C   0  0  1  0  0  0  0  0  0  0  0  0
   -2.0581    4.2660  -19.3247 C   0  0  0  0  0  0  0  0  0  0  0  0
   -1.9268    6.7632  -19.0866 C   0  0  0  0  0  0  0  0  0  0  0  0
   -2.5592    7.9217  -18.5400 O   0  0  0  0  0  0  0  0  0  0  0  0
  1  2  1  0
  2  3  1  0
  3  4  2  0
  4  5  1  0
  5  6  2  0
  6  7  1  0
  7  8  2  0
  8  9  1  0
  9 10  1  0
 10 11  1  6
 10 12  1  0
 12 13  1  0
  8  3  1  0
M  END
>  <energy_score>  (1403) 
-28.812736

>  <alias>  (1403) 
None

>  <HIPPO Pose ID>  (1403) 
71457

>  <smiles>  (1403) 
COc1nccnc1N[C@@H](C)CO

>  <inchikey>  (1403) 
UQWJEUDPJWMNEI-LURJTMIESA-N

>  <distance_score>  (1403) 
0.933919

>  <ref_mols>  (1403) 
Z0875a,Z0089a

>  <ref_pdb>  (1403) 
Z0089a

>  <HIPPO Compound ID>  (1403) 
144368

>  <name>  (1403) 
P71457

>  <inspiration_score>  (1403) 
None

$$$$
P71458
     RDKit          3D

 13 13  0  0  0  0  0  0  0  0999 V2000
   -3.7640    6.7844  -15.4264 C   0  0  0  0  0  0  0  0  0  0  0  0
   -4.4767    6.2298  -16.2206 C   0  0  0  0  0  0  0  0  0  0  0  0
   -5.4042    5.5569  -17.0812 C   0  0  0  0  0  0  0  0  0  0  0  0
   -6.5102    5.1895  -16.3781 N   0  0  0  0  0  0  0  0  0  0  0  0
   -7.5036    4.6187  -17.0897 C   0  0  0  0  0  0  0  0  0  0  0  0
   -7.4106    4.4290  -18.4489 C   0  0  0  0  0  0  0  0  0  0  0  0
   -6.3101    4.7841  -19.1442 N   0  0  0  0  0  0  0  0  0  0  0  0
   -5.2930    5.3692  -18.4706 C   0  0  0  0  0  0  0  0  0  0  0  0
   -4.3440    5.7946  -19.3672 N   0  0  0  0  0  0  0  0  0  0  0  0
   -2.8886    5.6481  -19.3048 C   0  0  2  0  0  0  0  0  0  0  0  0
   -2.3734    4.4372  -18.5642 C   0  0  0  0  0  0  0  0  0  0  0  0
   -2.2391    6.9613  -18.8495 C   0  0  0  0  0  0  0  0  0  0  0  0
   -2.8060    8.0528  -19.5802 O   0  0  0  0  0  0  0  0  0  0  0  0
  1  2  3  0
  2  3  1  0
  3  4  2  0
  4  5  1  0
  5  6  2  0
  6  7  1  0
  7  8  2  0
  8  9  1  0
  9 10  1  0
 10 11  1  1
 10 12  1  0
 12 13  1  0
  8  3  1  0
M  END
>  <energy_score>  (1404) 
-16.76567

>  <alias>  (1404) 
None

>  <HIPPO Pose ID>  (1404) 
71458

>  <smiles>  (1404) 
C#Cc1nccnc1N[C@H](C)CO

>  <inchikey>  (1404) 
SHBXEVPTOPGFSS-SSDOTTSWSA-N

>  <distance_score>  (1404) 
0.874485

>  <ref_mols>  (1404) 
Z0875a,Z0089a

>  <ref_pdb>  (1404) 
Z0089a

>  <HIPPO Compound ID>  (1404) 
144369

>  <name>  (1404) 
P71458

>  <inspiration_score>  (1404) 
None

$$$$
P71460
     RDKit          3D

 13 13  0  0  0  0  0  0  0  0999 V2000
   -9.8960    4.1089  -18.1941 C   0  0  0  0  0  0  0  0  0  0  0  0
   -8.7127    4.2865  -18.1025 C   0  0  0  0  0  0  0  0  0  0  0  0
   -7.3516    4.5876  -17.8033 C   0  0  0  0  0  0  0  0  0  0  0  0
   -6.9786    4.7975  -16.4865 C   0  0  0  0  0  0  0  0  0  0  0  0
   -5.7224    5.1399  -16.1358 N   0  0  0  0  0  0  0  0  0  0  0  0
   -4.8583    5.2254  -17.1749 C   0  0  0  0  0  0  0  0  0  0  0  0
   -5.2101    5.0295  -18.5137 C   0  0  0  0  0  0  0  0  0  0  0  0
   -4.3677    5.1532  -19.5839 N   0  0  0  0  0  0  0  0  0  0  0  0
   -2.9622    5.5373  -19.6493 C   0  0  2  0  0  0  0  0  0  0  0  0
   -2.0370    4.4967  -19.0411 C   0  0  0  0  0  0  0  0  0  0  0  0
   -2.7185    6.9590  -19.1198 C   0  0  0  0  0  0  0  0  0  0  0  0
   -3.6330    7.8693  -19.7365 O   0  0  0  0  0  0  0  0  0  0  0  0
   -6.4830    4.7130  -18.8328 N   0  0  0  0  0  0  0  0  0  0  0  0
  1  2  3  0
  2  3  1  0
  3  4  2  0
  4  5  1  0
  5  6  2  0
  6  7  1  0
  7  8  1  0
  8  9  1  0
  9 10  1  1
  9 11  1  0
 11 12  1  0
  7 13  2  0
 13  3  1  0
M  END
>  <energy_score>  (1405) 
-31.445247

>  <alias>  (1405) 
None

>  <HIPPO Pose ID>  (1405) 
71460

>  <smiles>  (1405) 
C#Cc1cncc(N[C@H](C)CO)n1

>  <inchikey>  (1405) 
JGUSHMJVSHDZDS-SSDOTTSWSA-N

>  <distance_score>  (1405) 
1.058244

>  <ref_mols>  (1405) 
Z0875a,Z0089a

>  <ref_pdb>  (1405) 
Z0089a

>  <HIPPO Compound ID>  (1405) 
144370

>  <name>  (1405) 
P71460

>  <inspiration_score>  (1405) 
None

$$$$
P71463
     RDKit          3D

 13 13  0  0  0  0  0  0  0  0999 V2000
   -6.4985    5.3185  -15.3683 C   0  0  0  0  0  0  0  0  0  0  0  0
   -6.4759    5.1625  -16.8195 N   0  0  0  0  0  0  0  0  0  0  0  0
   -7.5015    4.5846  -17.4815 C   0  0  0  0  0  0  0  0  0  0  0  0
   -7.3539    4.3543  -18.8324 C   0  0  0  0  0  0  0  0  0  0  0  0
   -6.2017    4.6222  -19.4794 N   0  0  0  0  0  0  0  0  0  0  0  0
   -5.1961    5.2049  -18.8132 C   0  0  0  0  0  0  0  0  0  0  0  0
   -4.0788    5.4232  -19.5628 N   0  0  0  0  0  0  0  0  0  0  0  0
   -2.6865    5.6288  -19.1423 C   0  0  0  0  0  0  0  0  0  0  0  0
   -1.7770    5.2034  -20.3060 C   0  0  0  0  0  0  0  0  0  0  0  0
   -2.4633    7.1177  -18.8635 C   0  0  0  0  0  0  0  0  0  0  0  0
   -2.2348    4.7761  -17.9486 C   0  0  0  0  0  0  0  0  0  0  0  0
   -2.8226    5.1599  -16.7857 F   0  0  0  0  0  0  0  0  0  0  0  0
   -5.3607    5.5321  -17.4834 C   0  0  0  0  0  0  0  0  0  0  0  0
  1  2  1  0
  2  3  2  0
  3  4  1  0
  4  5  2  0
  5  6  1  0
  6  7  1  0
  7  8  1  0
  8  9  1  0
  8 10  1  0
  8 11  1  0
 11 12  1  0
  6 13  2  0
 13  2  1  0
M  CHG  1   2   1
M  END
>  <energy_score>  (1406) 
-25.358546

>  <alias>  (1406) 
None

>  <HIPPO Pose ID>  (1406) 
71463

>  <smiles>  (1406) 
C[n+]1ccnc(NC(C)(C)CF)c1

>  <inchikey>  (1406) 
FNLPPBSTLFFOJV-UHFFFAOYSA-N

>  <distance_score>  (1406) 
1.083529

>  <ref_mols>  (1406) 
Z0875a,Z0089a

>  <ref_pdb>  (1406) 
Z0089a

>  <HIPPO Compound ID>  (1406) 
144372

>  <name>  (1406) 
P71463

>  <inspiration_score>  (1406) 
None

$$$$
P71465
     RDKit          3D

 13 13  0  0  0  0  0  0  0  0999 V2000
   -2.3378    4.3079  -19.2418 C   0  0  0  0  0  0  0  0  0  0  0  0
   -2.5691    5.6995  -18.6499 C   0  0  0  0  0  0  0  0  0  0  0  0
   -1.7195    6.7123  -19.4427 C   0  0  0  0  0  0  0  0  0  0  0  0
   -2.0815    5.7241  -17.1927 C   0  0  0  0  0  0  0  0  0  0  0  0
   -2.3320    6.9529  -16.6531 F   0  0  0  0  0  0  0  0  0  0  0  0
   -3.9701    6.1460  -18.8458 N   0  0  0  0  0  0  0  0  0  0  0  0
   -5.0562    5.5377  -18.2349 C   0  0  0  0  0  0  0  0  0  0  0  0
   -5.8952    4.9577  -19.1134 N   0  0  0  0  0  0  0  0  0  0  0  0
   -7.0568    4.4784  -18.6121 C   0  0  0  0  0  0  0  0  0  0  0  0
   -7.3568    4.5297  -17.2652 C   0  0  0  0  0  0  0  0  0  0  0  0
   -6.5299    5.0991  -16.3653 N   0  0  0  0  0  0  0  0  0  0  0  0
   -5.3995    5.6218  -16.8718 C   0  0  0  0  0  0  0  0  0  0  0  0
   -4.7040    6.3714  -15.9678 O   0  0  0  0  0  0  0  0  0  0  0  0
  1  2  1  0
  2  3  1  0
  2  4  1  0
  4  5  1  0
  2  6  1  0
  6  7  1  0
  7  8  2  0
  8  9  1  0
  9 10  2  0
 10 11  1  0
 11 12  2  0
 12 13  1  0
 12  7  1  0
M  END
>  <energy_score>  (1407) 
-28.878405

>  <alias>  (1407) 
None

>  <HIPPO Pose ID>  (1407) 
71465

>  <smiles>  (1407) 
CC(C)(CF)Nc1nccnc1O

>  <inchikey>  (1407) 
QYSIVYQYCJUEAV-UHFFFAOYSA-N

>  <distance_score>  (1407) 
1.008621

>  <ref_mols>  (1407) 
Z0875a,Z0089a

>  <ref_pdb>  (1407) 
Z0089a

>  <HIPPO Compound ID>  (1407) 
144374

>  <name>  (1407) 
P71465

>  <inspiration_score>  (1407) 
None

$$$$
P71470
     RDKit          3D

 13 13  0  0  0  0  0  0  0  0999 V2000
   -1.6060    3.6314  -19.6016 C   0  0  0  0  0  0  0  0  0  0  0  0
   -2.3713    4.8729  -19.9171 C   0  0  0  0  0  0  0  0  0  0  0  0
   -2.5485    5.2268  -21.0873 O   0  0  0  0  0  0  0  0  0  0  0  0
   -2.8576    5.6952  -18.7278 C   0  0  1  0  0  0  0  0  0  0  0  0
   -1.9087    6.8741  -18.5611 C   0  0  0  0  0  0  0  0  0  0  0  0
   -4.2006    6.2157  -18.9871 N   0  0  0  0  0  0  0  0  0  0  0  0
   -5.2441    5.5980  -18.3073 C   0  0  0  0  0  0  0  0  0  0  0  0
   -6.1399    5.0234  -19.1270 N   0  0  0  0  0  0  0  0  0  0  0  0
   -7.2463    4.5017  -18.5579 C   0  0  0  0  0  0  0  0  0  0  0  0
   -7.4369    4.5040  -17.1941 C   0  0  0  0  0  0  0  0  0  0  0  0
   -6.5413    5.0525  -16.3471 N   0  0  0  0  0  0  0  0  0  0  0  0
   -5.4500    5.6249  -16.9153 C   0  0  0  0  0  0  0  0  0  0  0  0
   -4.5485    6.3362  -15.9554 C   0  0  0  0  0  0  0  0  0  0  0  0
  1  2  1  0
  2  3  2  0
  2  4  1  0
  4  5  1  6
  4  6  1  0
  6  7  1  0
  7  8  2  0
  8  9  1  0
  9 10  2  0
 10 11  1  0
 11 12  2  0
 12 13  1  0
 12  7  1  0
M  END
>  <energy_score>  (1408) 
-31.6085

>  <alias>  (1408) 
None

>  <HIPPO Pose ID>  (1408) 
71470

>  <smiles>  (1408) 
CC(=O)[C@@H](C)Nc1nccnc1C

>  <inchikey>  (1408) 
OVXNCKGDEPKKRJ-ZCFIWIBFSA-N

>  <distance_score>  (1408) 
1.039198

>  <ref_mols>  (1408) 
Z0875a,Z0089a

>  <ref_pdb>  (1408) 
Z0089a

>  <HIPPO Compound ID>  (1408) 
144378

>  <name>  (1408) 
P71470

>  <inspiration_score>  (1408) 
None

$$$$
P71471
     RDKit          3D

 13 13  0  0  0  0  0  0  0  0999 V2000
   -8.9012    4.4854  -15.4799 C   0  0  0  0  0  0  0  0  0  0  0  0
   -8.0463    4.7148  -16.2855 C   0  0  0  0  0  0  0  0  0  0  0  0
   -6.9913    4.9311  -17.2039 C   0  0  0  0  0  0  0  0  0  0  0  0
   -7.0917    4.5816  -18.5337 C   0  0  0  0  0  0  0  0  0  0  0  0
   -6.0642    4.7668  -19.3897 N   0  0  0  0  0  0  0  0  0  0  0  0
   -4.9436    5.3205  -18.8936 C   0  0  0  0  0  0  0  0  0  0  0  0
   -4.0054    5.5699  -19.8594 N   0  0  0  0  0  0  0  0  0  0  0  0
   -2.5529    5.5884  -19.7034 C   0  0  2  0  0  0  0  0  0  0  0  0
   -1.9862    4.3632  -19.0169 C   0  0  0  0  0  0  0  0  0  0  0  0
   -2.0759    6.9090  -19.0782 C   0  0  0  0  0  0  0  0  0  0  0  0
   -2.7414    8.0087  -19.7040 O   0  0  0  0  0  0  0  0  0  0  0  0
   -4.8667    5.6596  -17.5452 C   0  0  0  0  0  0  0  0  0  0  0  0
   -5.8827    5.4873  -16.6706 N   0  0  0  0  0  0  0  0  0  0  0  0
  1  2  3  0
  2  3  1  0
  3  4  2  0
  4  5  1  0
  5  6  2  0
  6  7  1  0
  7  8  1  0
  8  9  1  1
  8 10  1  0
 10 11  1  0
  6 12  1  0
 12 13  2  0
 13  3  1  0
M  END
>  <energy_score>  (1409) 
-22.031222

>  <alias>  (1409) 
None

>  <HIPPO Pose ID>  (1409) 
71471

>  <smiles>  (1409) 
C#Cc1cnc(N[C@H](C)CO)cn1

>  <inchikey>  (1409) 
CBRRHNRSHDIUGY-SSDOTTSWSA-N

>  <distance_score>  (1409) 
1.021802

>  <ref_mols>  (1409) 
Z0875a,Z0089a

>  <ref_pdb>  (1409) 
Z0089a

>  <HIPPO Compound ID>  (1409) 
144379

>  <name>  (1409) 
P71471

>  <inspiration_score>  (1409) 
None

$$$$
P71473
     RDKit          3D

 13 13  0  0  0  0  0  0  0  0999 V2000
   -9.3548    4.0782  -16.6158 C   0  0  0  0  0  0  0  0  0  0  0  0
   -8.0839    4.6987  -16.0747 C   0  0  0  0  0  0  0  0  0  0  0  0
   -6.9961    4.9374  -17.0759 C   0  0  0  0  0  0  0  0  0  0  0  0
   -7.1138    4.6503  -18.4275 C   0  0  0  0  0  0  0  0  0  0  0  0
   -6.0995    4.8289  -19.3008 N   0  0  0  0  0  0  0  0  0  0  0  0
   -4.9510    5.3237  -18.8199 C   0  0  0  0  0  0  0  0  0  0  0  0
   -4.0263    5.5552  -19.8000 N   0  0  0  0  0  0  0  0  0  0  0  0
   -2.5739    5.6015  -19.6828 C   0  0  2  0  0  0  0  0  0  0  0  0
   -1.9733    4.3826  -19.0131 C   0  0  0  0  0  0  0  0  0  0  0  0
   -2.1055    6.9277  -19.0640 C   0  0  0  0  0  0  0  0  0  0  0  0
   -2.7836    8.0192  -19.6899 O   0  0  0  0  0  0  0  0  0  0  0  0
   -4.8377    5.6143  -17.4668 C   0  0  0  0  0  0  0  0  0  0  0  0
   -5.8416    5.4419  -16.5752 N   0  0  0  0  0  0  0  0  0  0  0  0
  1  2  1  0
  2  3  1  0
  3  4  2  0
  4  5  1  0
  5  6  2  0
  6  7  1  0
  7  8  1  0
  8  9  1  1
  8 10  1  0
 10 11  1  0
  6 12  1  0
 12 13  2  0
 13  3  1  0
M  END
>  <energy_score>  (1410) 
-40.400923

>  <alias>  (1410) 
None

>  <HIPPO Pose ID>  (1410) 
71473

>  <smiles>  (1410) 
CCc1cnc(N[C@H](C)CO)cn1

>  <inchikey>  (1410) 
NDMHDUBREMVKBR-SSDOTTSWSA-N

>  <distance_score>  (1410) 
0.739931

>  <ref_mols>  (1410) 
Z0875a,Z0089a

>  <ref_pdb>  (1410) 
Z0089a

>  <HIPPO Compound ID>  (1410) 
144380

>  <name>  (1410) 
P71473

>  <inspiration_score>  (1410) 
None

$$$$
P71476
     RDKit          3D

 13 13  0  0  0  0  0  0  0  0999 V2000
   -2.0057    4.2091  -19.4864 C   0  0  0  0  0  0  0  0  0  0  0  0
   -2.7276    5.4836  -19.0807 C   0  0  1  0  0  0  0  0  0  0  0  0
   -2.1926    6.7016  -19.8496 C   0  0  0  0  0  0  0  0  0  0  0  0
   -2.9451    7.8634  -19.4967 O   0  0  0  0  0  0  0  0  0  0  0  0
   -4.1657    5.3810  -19.3293 N   0  0  0  0  0  0  0  0  0  0  0  0
   -5.1092    5.1689  -18.3505 C   0  0  0  0  0  0  0  0  0  0  0  0
   -4.9066    5.4099  -16.9867 C   0  0  0  0  0  0  0  0  0  0  0  0
   -5.8497    5.2265  -16.0354 N   0  0  0  0  0  0  0  0  0  0  0  0
   -7.0395    4.7945  -16.4980 C   0  0  0  0  0  0  0  0  0  0  0  0
   -7.2766    4.5798  -17.8443 C   0  0  0  0  0  0  0  0  0  0  0  0
   -8.5794    4.1442  -18.2369 C   0  0  0  0  0  0  0  0  0  0  0  0
   -9.6688    3.7654  -18.3718 N   0  0  0  0  0  0  0  0  0  0  0  0
   -6.3172    4.7591  -18.7904 N   0  0  0  0  0  0  0  0  0  0  0  0
  2  1  1  6
  2  3  1  0
  3  4  1  0
  2  5  1  0
  5  6  1  0
  6  7  2  0
  7  8  1  0
  8  9  2  0
  9 10  1  0
 10 11  1  0
 11 12  3  0
 10 13  2  0
 13  6  1  0
M  END
>  <energy_score>  (1411) 
-30.809034

>  <alias>  (1411) 
None

>  <HIPPO Pose ID>  (1411) 
71476

>  <smiles>  (1411) 
C[C@@H](CO)Nc1cncc(C#N)n1

>  <inchikey>  (1411) 
SUGQAMMKOFGGQY-LURJTMIESA-N

>  <distance_score>  (1411) 
0.777338

>  <ref_mols>  (1411) 
Z0875a,Z0089a

>  <ref_pdb>  (1411) 
Z0089a

>  <HIPPO Compound ID>  (1411) 
144381

>  <name>  (1411) 
P71476

>  <inspiration_score>  (1411) 
None

$$$$
P71478
     RDKit          3D

 13 13  0  0  0  0  0  0  0  0999 V2000
   -2.2633    4.2379  -19.2288 C   0  0  0  0  0  0  0  0  0  0  0  0
   -2.7709    5.5190  -18.5758 C   0  0  1  0  0  0  0  0  0  0  0  0
   -1.9496    6.7232  -19.0848 C   0  0  0  0  0  0  0  0  0  0  0  0
   -2.2333    6.9781  -20.4645 O   0  0  0  0  0  0  0  0  0  0  0  0
   -4.1682    5.7767  -18.9362 N   0  0  0  0  0  0  0  0  0  0  0  0
   -5.2601    5.3109  -18.2372 C   0  0  0  0  0  0  0  0  0  0  0  0
   -6.1782    4.8120  -19.0946 N   0  0  0  0  0  0  0  0  0  0  0  0
   -7.3741    4.4357  -18.5891 C   0  0  0  0  0  0  0  0  0  0  0  0
   -7.6592    4.5289  -17.2455 C   0  0  0  0  0  0  0  0  0  0  0  0
   -6.7698    5.0191  -16.3597 N   0  0  0  0  0  0  0  0  0  0  0  0
   -5.5665    5.4038  -16.8693 C   0  0  0  0  0  0  0  0  0  0  0  0
   -4.6823    6.0482  -15.8692 C   0  0  0  0  0  0  0  0  0  0  0  0
   -4.7790    5.8813  -14.6560 O   0  0  0  0  0  0  0  0  0  0  0  0
  2  1  1  6
  2  3  1  0
  3  4  1  0
  2  5  1  0
  5  6  1  0
  6  7  2  0
  7  8  1  0
  8  9  2  0
  9 10  1  0
 10 11  2  0
 11 12  1  0
 12 13  2  0
 11  6  1  0
M  END
>  <energy_score>  (1412) 
-16.211078

>  <alias>  (1412) 
None

>  <HIPPO Pose ID>  (1412) 
71478

>  <smiles>  (1412) 
C[C@@H](CO)Nc1nccnc1C=O

>  <inchikey>  (1412) 
ROVUIKLEXSKCNQ-LURJTMIESA-N

>  <distance_score>  (1412) 
0.942697

>  <ref_mols>  (1412) 
Z0875a,Z0089a

>  <ref_pdb>  (1412) 
Z0089a

>  <HIPPO Compound ID>  (1412) 
144382

>  <name>  (1412) 
P71478

>  <inspiration_score>  (1412) 
None

$$$$
P71479
     RDKit          3D

 13 13  0  0  0  0  0  0  0  0999 V2000
   -2.0163    4.2971  -19.2047 C   0  0  0  0  0  0  0  0  0  0  0  0
   -2.4544    5.6989  -19.5952 C   0  0  2  0  0  0  0  0  0  0  0  0
   -1.8532    6.8106  -18.7177 C   0  0  0  0  0  0  0  0  0  0  0  0
   -1.7864    6.4564  -17.3391 O   0  0  0  0  0  0  0  0  0  0  0  0
   -3.8997    5.8225  -19.7900 N   0  0  0  0  0  0  0  0  0  0  0  0
   -4.8367    5.4895  -18.8397 C   0  0  0  0  0  0  0  0  0  0  0  0
   -4.8825    5.9106  -17.5177 C   0  0  0  0  0  0  0  0  0  0  0  0
   -5.9159    5.6430  -16.6784 N   0  0  0  0  0  0  0  0  0  0  0  0
   -6.9306    4.9092  -17.2041 C   0  0  0  0  0  0  0  0  0  0  0  0
   -8.0290    4.5422  -16.2606 C   0  0  0  0  0  0  0  0  0  0  0  0
   -9.6917    4.1287  -17.1552 Br  0  0  0  0  0  0  0  0  0  0  0  0
   -6.8724    4.4800  -18.5230 C   0  0  0  0  0  0  0  0  0  0  0  0
   -5.8379    4.7575  -19.3438 N   0  0  0  0  0  0  0  0  0  0  0  0
  2  1  1  1
  2  3  1  0
  3  4  1  0
  2  5  1  0
  5  6  1  0
  6  7  2  0
  7  8  1  0
  8  9  2  0
  9 10  1  0
 10 11  1  0
  9 12  1  0
 12 13  2  0
 13  6  1  0
M  END
>  <energy_score>  (1413) 
-25.569264

>  <alias>  (1413) 
None

>  <HIPPO Pose ID>  (1413) 
71479

>  <smiles>  (1413) 
C[C@H](CO)Nc1cnc(CBr)cn1

>  <inchikey>  (1413) 
OUXDEHMTIYSTSE-ZCFIWIBFSA-N

>  <distance_score>  (1413) 
0.883764

>  <ref_mols>  (1413) 
Z0875a,Z0089a

>  <ref_pdb>  (1413) 
Z0089a

>  <HIPPO Compound ID>  (1413) 
144383

>  <name>  (1413) 
P71479

>  <inspiration_score>  (1413) 
None

$$$$
P71483
     RDKit          3D

 13 13  0  0  0  0  0  0  0  0999 V2000
   -9.6593    3.9851  -17.6811 C   0  0  0  0  0  0  0  0  0  0  0  0
   -8.6149    4.2264  -18.6091 O   0  0  0  0  0  0  0  0  0  0  0  0
   -7.4110    4.6080  -18.0875 C   0  0  0  0  0  0  0  0  0  0  0  0
   -7.1551    4.8568  -16.7472 C   0  0  0  0  0  0  0  0  0  0  0  0
   -5.9469    5.2564  -16.2864 N   0  0  0  0  0  0  0  0  0  0  0  0
   -4.9890    5.3690  -17.2384 C   0  0  0  0  0  0  0  0  0  0  0  0
   -5.2089    5.1369  -18.5919 C   0  0  0  0  0  0  0  0  0  0  0  0
   -4.3029    5.2729  -19.6027 N   0  0  0  0  0  0  0  0  0  0  0  0
   -2.8809    5.5688  -19.5999 C   0  0  2  0  0  0  0  0  0  0  0  0
   -2.0641    4.4142  -19.0396 C   0  0  0  0  0  0  0  0  0  0  0  0
   -2.5251    6.9463  -19.0027 C   0  0  0  0  0  0  0  0  0  0  0  0
   -2.2208    6.9237  -17.6110 O   0  0  0  0  0  0  0  0  0  0  0  0
   -6.4324    4.7523  -19.0107 N   0  0  0  0  0  0  0  0  0  0  0  0
  1  2  1  0
  2  3  1  0
  3  4  2  0
  4  5  1  0
  5  6  2  0
  6  7  1  0
  7  8  1  0
  8  9  1  0
  9 10  1  1
  9 11  1  0
 11 12  1  0
  7 13  2  0
 13  3  1  0
M  END
>  <energy_score>  (1414) 
-10.108156

>  <alias>  (1414) 
None

>  <HIPPO Pose ID>  (1414) 
71483

>  <smiles>  (1414) 
COc1cncc(N[C@H](C)CO)n1

>  <inchikey>  (1414) 
YVKSZKDDOBZGRO-ZCFIWIBFSA-N

>  <distance_score>  (1414) 
0.730702

>  <ref_mols>  (1414) 
Z0875a,Z0089a

>  <ref_pdb>  (1414) 
Z0089a

>  <HIPPO Compound ID>  (1414) 
144385

>  <name>  (1414) 
P71483

>  <inspiration_score>  (1414) 
None

$$$$
P71485
     RDKit          3D

 13 13  0  0  0  0  0  0  0  0999 V2000
   -9.1594    4.2711  -16.3183 C   0  0  0  0  0  0  0  0  0  0  0  0
   -8.0907    5.1763  -16.0949 O   0  0  0  0  0  0  0  0  0  0  0  0
   -7.0887    5.0886  -17.0129 C   0  0  0  0  0  0  0  0  0  0  0  0
   -7.2639    4.8252  -18.3616 C   0  0  0  0  0  0  0  0  0  0  0  0
   -6.2347    4.8273  -19.2393 N   0  0  0  0  0  0  0  0  0  0  0  0
   -5.0127    5.1092  -18.7555 C   0  0  0  0  0  0  0  0  0  0  0  0
   -4.0568    5.1162  -19.7244 N   0  0  0  0  0  0  0  0  0  0  0  0
   -2.6717    5.5445  -19.6887 C   0  0  2  0  0  0  0  0  0  0  0  0
   -1.8069    4.4675  -19.0547 C   0  0  0  0  0  0  0  0  0  0  0  0
   -2.4470    6.9632  -19.1289 C   0  0  0  0  0  0  0  0  0  0  0  0
   -2.2132    7.0076  -17.7251 O   0  0  0  0  0  0  0  0  0  0  0  0
   -4.8499    5.3434  -17.3958 C   0  0  0  0  0  0  0  0  0  0  0  0
   -5.8727    5.3677  -16.5063 N   0  0  0  0  0  0  0  0  0  0  0  0
  1  2  1  0
  2  3  1  0
  3  4  2  0
  4  5  1  0
  5  6  2  0
  6  7  1  0
  7  8  1  0
  8  9  1  1
  8 10  1  0
 10 11  1  0
  6 12  1  0
 12 13  2  0
 13  3  1  0
M  END
>  <energy_score>  (1415) 
-19.176935

>  <alias>  (1415) 
None

>  <HIPPO Pose ID>  (1415) 
71485

>  <smiles>  (1415) 
COc1cnc(N[C@H](C)CO)cn1

>  <inchikey>  (1415) 
WAHIDYOCHAPDOX-ZCFIWIBFSA-N

>  <distance_score>  (1415) 
0.729196

>  <ref_mols>  (1415) 
Z0875a,Z0089a

>  <ref_pdb>  (1415) 
Z0089a

>  <HIPPO Compound ID>  (1415) 
144386

>  <name>  (1415) 
P71485

>  <inspiration_score>  (1415) 
None

$$$$
P71490
     RDKit          3D

 13 13  0  0  0  0  0  0  0  0999 V2000
   -2.2590    4.3423  -18.6780 C   0  0  0  0  0  0  0  0  0  0  0  0
   -2.8484    5.7051  -18.9942 C   0  0  1  0  0  0  0  0  0  0  0  0
   -2.1217    6.3156  -20.2146 C   0  0  0  0  0  0  0  0  0  0  0  0
   -2.0268    5.3831  -21.3126 O   0  0  0  0  0  0  0  0  0  0  0  0
   -4.2647    5.6075  -19.2968 N   0  0  0  0  0  0  0  0  0  0  0  0
   -5.3002    5.2802  -18.4645 C   0  0  0  0  0  0  0  0  0  0  0  0
   -6.3047    4.7128  -19.1695 N   0  0  0  0  0  0  0  0  0  0  0  0
   -7.4548    4.4218  -18.5257 C   0  0  0  0  0  0  0  0  0  0  0  0
   -7.6134    4.6595  -17.1803 C   0  0  0  0  0  0  0  0  0  0  0  0
   -6.6395    5.2218  -16.4350 N   0  0  0  0  0  0  0  0  0  0  0  0
   -5.4791    5.5203  -17.0924 C   0  0  0  0  0  0  0  0  0  0  0  0
   -4.5231    6.1635  -16.2365 C   0  0  0  0  0  0  0  0  0  0  0  0
   -3.7594    6.6922  -15.5338 N   0  0  0  0  0  0  0  0  0  0  0  0
  2  1  1  6
  2  3  1  0
  3  4  1  0
  2  5  1  0
  5  6  1  0
  6  7  2  0
  7  8  1  0
  8  9  2  0
  9 10  1  0
 10 11  2  0
 11 12  1  0
 12 13  3  0
 11  6  1  0
M  END
>  <energy_score>  (1416) 
-20.154549

>  <alias>  (1416) 
None

>  <HIPPO Pose ID>  (1416) 
71490

>  <smiles>  (1416) 
C[C@@H](CO)Nc1nccnc1C#N

>  <inchikey>  (1416) 
CWVNEVGKTMNOOF-LURJTMIESA-N

>  <distance_score>  (1416) 
0.886482

>  <ref_mols>  (1416) 
Z0875a,Z0089a

>  <ref_pdb>  (1416) 
Z0089a

>  <HIPPO Compound ID>  (1416) 
144388

>  <name>  (1416) 
P71490

>  <inspiration_score>  (1416) 
None

$$$$
P71491
     RDKit          3D

 13 13  0  0  0  0  0  0  0  0999 V2000
   -1.9526    4.4930  -18.9503 C   0  0  0  0  0  0  0  0  0  0  0  0
   -2.8306    5.5557  -19.5970 C   0  0  2  0  0  0  0  0  0  0  0  0
   -2.6593    6.9495  -18.9743 C   0  0  0  0  0  0  0  0  0  0  0  0
   -1.3920    7.5184  -19.3031 O   0  0  0  0  0  0  0  0  0  0  0  0
   -4.2046    5.1068  -19.6682 N   0  0  0  0  0  0  0  0  0  0  0  0
   -5.1812    5.0251  -18.7240 C   0  0  0  0  0  0  0  0  0  0  0  0
   -5.0614    5.2163  -17.3527 C   0  0  0  0  0  0  0  0  0  0  0  0
   -6.1021    5.1404  -16.4808 N   0  0  0  0  0  0  0  0  0  0  0  0
   -7.3020    4.8025  -17.0249 C   0  0  0  0  0  0  0  0  0  0  0  0
   -8.4769    4.6589  -16.0926 C   0  0  0  0  0  0  0  0  0  0  0  0
   -9.6905    4.3787  -16.7846 O   0  0  0  0  0  0  0  0  0  0  0  0
   -7.4219    4.5924  -18.3895 C   0  0  0  0  0  0  0  0  0  0  0  0
   -6.3755    4.7022  -19.2410 N   0  0  0  0  0  0  0  0  0  0  0  0
  2  1  1  1
  2  3  1  0
  3  4  1  0
  2  5  1  0
  5  6  1  0
  6  7  2  0
  7  8  1  0
  8  9  2  0
  9 10  1  0
 10 11  1  0
  9 12  1  0
 12 13  2  0
 13  6  1  0
M  END
>  <energy_score>  (1417) 
-28.153885

>  <alias>  (1417) 
None

>  <HIPPO Pose ID>  (1417) 
71491

>  <smiles>  (1417) 
C[C@H](CO)Nc1cnc(CO)cn1

>  <inchikey>  (1417) 
LIMVOOULUZQOTD-ZCFIWIBFSA-N

>  <distance_score>  (1417) 
0.841434

>  <ref_mols>  (1417) 
Z0875a,Z0089a

>  <ref_pdb>  (1417) 
Z0089a

>  <HIPPO Compound ID>  (1417) 
144389

>  <name>  (1417) 
P71491

>  <inspiration_score>  (1417) 
None

$$$$
P71501
     RDKit          3D

 13 13  0  0  0  0  0  0  0  0999 V2000
   -1.6418    3.6809  -19.5004 C   0  0  0  0  0  0  0  0  0  0  0  0
   -1.9497    5.0261  -18.9146 C   0  0  0  0  0  0  0  0  0  0  0  0
   -1.4028    5.4152  -17.8809 O   0  0  0  0  0  0  0  0  0  0  0  0
   -2.9810    5.8640  -19.6569 C   0  0  2  0  0  0  0  0  0  0  0  0
   -3.0694    7.2907  -19.1426 C   0  0  0  0  0  0  0  0  0  0  0  0
   -4.2579    5.1771  -19.7210 N   0  0  0  0  0  0  0  0  0  0  0  0
   -5.1880    5.0743  -18.7206 C   0  0  0  0  0  0  0  0  0  0  0  0
   -4.9716    5.1955  -17.3510 C   0  0  0  0  0  0  0  0  0  0  0  0
   -5.9572    5.0956  -16.4236 N   0  0  0  0  0  0  0  0  0  0  0  0
   -7.1848    4.7876  -16.9067 C   0  0  0  0  0  0  0  0  0  0  0  0
   -8.2968    4.6224  -15.9239 C   0  0  0  0  0  0  0  0  0  0  0  0
   -7.4054    4.6539  -18.2678 C   0  0  0  0  0  0  0  0  0  0  0  0
   -6.4188    4.7985  -19.1795 N   0  0  0  0  0  0  0  0  0  0  0  0
  1  2  1  0
  2  3  2  0
  2  4  1  0
  4  5  1  1
  4  6  1  0
  6  7  1  0
  7  8  2  0
  8  9  1  0
  9 10  2  0
 10 11  1  0
 10 12  1  0
 12 13  2  0
 13  7  1  0
M  END
>  <energy_score>  (1418) 
-25.450548

>  <alias>  (1418) 
None

>  <HIPPO Pose ID>  (1418) 
71501

>  <smiles>  (1418) 
CC(=O)[C@H](C)Nc1cnc(C)cn1

>  <inchikey>  (1418) 
AUROQPSSVSEHCX-ZETCQYMHSA-N

>  <distance_score>  (1418) 
0.824912

>  <ref_mols>  (1418) 
Z0875a,Z0089a

>  <ref_pdb>  (1418) 
Z0089a

>  <HIPPO Compound ID>  (1418) 
144394

>  <name>  (1418) 
P71501

>  <inspiration_score>  (1418) 
None

$$$$
P71506
     RDKit          3D

 13 14  0  0  0  0  0  0  0  0999 V2000
   -4.4024    7.9421  -15.3169 C   0  0  0  0  0  0  0  0  0  0  0  0
   -4.4735    6.6101  -15.3238 C   0  0  0  0  0  0  0  0  0  0  0  0
   -4.8657    5.6192  -14.2493 C   0  0  0  0  0  0  0  0  0  0  0  0
   -4.3000    4.5522  -15.2013 C   0  0  0  0  0  0  0  0  0  0  0  0
   -4.1134    5.5662  -16.3516 C   0  0  1  0  0  0  0  0  0  0  0  0
   -4.9722    5.4733  -17.5123 N   0  0  0  0  0  0  0  0  0  0  0  0
   -6.3248    5.0804  -17.5325 C   0  0  0  0  0  0  0  0  0  0  0  0
   -6.9903    4.7557  -18.7202 C   0  0  0  0  0  0  0  0  0  0  0  0
   -8.2725    4.3026  -18.7680 N   0  0  0  0  0  0  0  0  0  0  0  0
   -8.8946    4.2218  -17.5852 C   0  0  0  0  0  0  0  0  0  0  0  0
   -8.2489    4.5723  -16.4144 C   0  0  0  0  0  0  0  0  0  0  0  0
   -8.8924    4.5031  -15.0980 C   0  0  0  0  0  0  0  0  0  0  0  0
   -6.9872    5.0299  -16.3791 N   0  0  0  0  0  0  0  0  0  0  0  0
  1  2  2  0
  2  3  1  0
  3  4  1  0
  4  5  1  0
  5  6  1  6
  6  7  1  0
  7  8  2  0
  8  9  1  0
  9 10  2  0
 10 11  1  0
 11 12  1  0
 11 13  2  0
  5  2  1  0
 13  7  1  0
M  END
>  <energy_score>  (1419) 
-2.174755

>  <alias>  (1419) 
None

>  <HIPPO Pose ID>  (1419) 
71506

>  <smiles>  (1419) 
C=C1CC[C@H]1Nc1cncc(C)n1

>  <inchikey>  (1419) 
UTDVFEOMXHXKDK-SECBINFHSA-N

>  <distance_score>  (1419) 
1.565344

>  <ref_mols>  (1419) 
Z0875a,Z0089a

>  <ref_pdb>  (1419) 
Z0089a

>  <HIPPO Compound ID>  (1419) 
144396

>  <name>  (1419) 
P71506

>  <inspiration_score>  (1419) 
None

$$$$
P71509
     RDKit          3D

 13 14  0  0  0  0  0  0  0  0999 V2000
   -4.3390    6.8804  -14.8214 O   0  0  0  0  0  0  0  0  0  0  0  0
   -4.9880    5.8814  -14.0311 C   0  0  0  0  0  0  0  0  0  0  0  0
   -6.2145    5.3488  -14.7659 C   0  0  0  0  0  0  0  0  0  0  0  0
   -5.9363    5.1793  -16.2219 N   0  0  0  0  0  0  0  0  0  0  0  0
   -6.9388    4.7501  -17.1162 C   0  0  0  0  0  0  0  0  0  0  0  0
   -6.6005    4.5839  -18.4553 C   0  0  0  0  0  0  0  0  0  0  0  0
   -7.4991    4.2912  -19.3993 N   0  0  0  0  0  0  0  0  0  0  0  0
   -8.7559    4.2003  -18.9432 C   0  0  0  0  0  0  0  0  0  0  0  0
   -9.6741    4.3084  -19.9112 O   0  0  0  0  0  0  0  0  0  0  0  0
   -9.1284    4.2901  -17.6314 C   0  0  0  0  0  0  0  0  0  0  0  0
   -8.2123    4.5852  -16.7017 N   0  0  0  0  0  0  0  0  0  0  0  0
   -7.0967    4.3568  -14.0306 C   0  0  0  0  0  0  0  0  0  0  0  0
   -7.5588    5.7737  -14.2104 C   0  0  0  0  0  0  0  0  0  0  0  0
  1  2  1  0
  2  3  1  0
  3  4  1  0
  4  5  1  0
  5  6  2  0
  6  7  1  0
  7  8  2  0
  8  9  1  0
  8 10  1  0
 10 11  2  0
  3 12  1  0
 12 13  1  0
 13  3  1  0
 11  5  1  0
M  END
>  <energy_score>  (1420) 
-34.581588

>  <alias>  (1420) 
None

>  <HIPPO Pose ID>  (1420) 
71509

>  <smiles>  (1420) 
OCC1(Nc2cnc(O)cn2)CC1

>  <inchikey>  (1420) 
DADXTERDSIIYQS-UHFFFAOYSA-N

>  <distance_score>  (1420) 
1.964864

>  <ref_mols>  (1420) 
Z0875a,Z0089a

>  <ref_pdb>  (1420) 
Z0089a

>  <HIPPO Compound ID>  (1420) 
144400

>  <name>  (1420) 
P71509

>  <inspiration_score>  (1420) 
None

$$$$
P71512
     RDKit          3D

 13 14  0  0  0  0  0  0  0  0999 V2000
   -8.7503    4.1324  -18.7830 C   0  0  0  0  0  0  0  0  0  0  0  0
   -7.4219    4.5714  -18.2533 C   0  0  0  0  0  0  0  0  0  0  0  0
   -7.2492    4.8547  -16.9081 C   0  0  0  0  0  0  0  0  0  0  0  0
   -6.0764    5.2932  -16.3987 N   0  0  0  0  0  0  0  0  0  0  0  0
   -5.0746    5.4201  -17.3059 C   0  0  0  0  0  0  0  0  0  0  0  0
   -5.2186    5.1631  -18.6657 C   0  0  0  0  0  0  0  0  0  0  0  0
   -4.2791    5.3523  -19.6373 N   0  0  0  0  0  0  0  0  0  0  0  0
   -2.8581    5.6035  -19.5388 C   0  0  2  0  0  0  0  0  0  0  0  0
   -2.1103    4.3878  -19.0136 C   0  0  0  0  0  0  0  0  0  0  0  0
   -2.5815    6.9098  -18.8356 C   0  0  0  0  0  0  0  0  0  0  0  0
   -1.1801    7.4798  -18.8173 C   0  0  0  0  0  0  0  0  0  0  0  0
   -1.8204    7.0383  -17.5335 C   0  0  0  0  0  0  0  0  0  0  0  0
   -6.4035    4.7275  -19.1352 N   0  0  0  0  0  0  0  0  0  0  0  0
  1  2  1  0
  2  3  2  0
  3  4  1  0
  4  5  2  0
  5  6  1  0
  6  7  1  0
  7  8  1  0
  8  9  1  1
  8 10  1  0
 10 11  1  0
 11 12  1  0
  6 13  2  0
 13  2  1  0
 12 10  1  0
M  END
>  <energy_score>  (1421) 
-27.764573

>  <alias>  (1421) 
None

>  <HIPPO Pose ID>  (1421) 
71512

>  <smiles>  (1421) 
Cc1cncc(N[C@H](C)C2CC2)n1

>  <inchikey>  (1421) 
LJDMKYNJWLMWNT-MRVPVSSYSA-N

>  <distance_score>  (1421) 
0.67618

>  <ref_mols>  (1421) 
Z0875a,Z0089a

>  <ref_pdb>  (1421) 
Z0089a

>  <HIPPO Compound ID>  (1421) 
144402

>  <name>  (1421) 
P71512

>  <inspiration_score>  (1421) 
None

$$$$
P71514
     RDKit          3D

 13 14  0  0  0  0  0  0  0  0999 V2000
   -1.9697    4.2031  -19.5238 C   0  0  0  0  0  0  0  0  0  0  0  0
   -2.6740    5.5336  -19.2831 C   0  0  2  0  0  0  0  0  0  0  0  0
   -4.0751    5.4322  -19.6372 N   0  0  0  0  0  0  0  0  0  0  0  0
   -5.1109    5.1009  -18.8161 C   0  0  0  0  0  0  0  0  0  0  0  0
   -5.0916    5.1762  -17.4366 C   0  0  0  0  0  0  0  0  0  0  0  0
   -6.2058    4.8900  -16.7263 N   0  0  0  0  0  0  0  0  0  0  0  0
   -6.1346    4.9353  -15.2691 C   0  0  0  0  0  0  0  0  0  0  0  0
   -7.3499    4.5413  -17.3585 C   0  0  0  0  0  0  0  0  0  0  0  0
   -7.3418    4.4733  -18.7346 C   0  0  0  0  0  0  0  0  0  0  0  0
   -6.2324    4.7358  -19.4504 N   0  0  0  0  0  0  0  0  0  0  0  0
   -2.0010    6.6423  -20.0556 C   0  0  0  0  0  0  0  0  0  0  0  0
   -2.6089    8.0238  -20.1250 C   0  0  0  0  0  0  0  0  0  0  0  0
   -2.5003    7.1928  -21.3747 C   0  0  0  0  0  0  0  0  0  0  0  0
  2  1  1  6
  2  3  1  0
  3  4  1  0
  4  5  2  0
  5  6  1  0
  6  7  1  0
  6  8  2  0
  8  9  1  0
  9 10  2  0
  2 11  1  0
 11 12  1  0
 12 13  1  0
 10  4  1  0
 13 11  1  0
M  CHG  1   6   1
M  END
>  <energy_score>  (1422) 
-32.71984

>  <alias>  (1422) 
None

>  <HIPPO Pose ID>  (1422) 
71514

>  <smiles>  (1422) 
C[C@H](Nc1c[n+](C)ccn1)C1CC1

>  <inchikey>  (1422) 
QRJGJAWWEQEABB-QMMMGPOBSA-N

>  <distance_score>  (1422) 
1.009703

>  <ref_mols>  (1422) 
Z0875a,Z0089a

>  <ref_pdb>  (1422) 
Z0089a

>  <HIPPO Compound ID>  (1422) 
144403

>  <name>  (1422) 
P71514

>  <inspiration_score>  (1422) 
None

$$$$
P71517
     RDKit          3D

 13 14  0  0  0  0  0  0  0  0999 V2000
   -2.0388    4.4289  -19.1192 C   0  0  0  0  0  0  0  0  0  0  0  0
   -2.8938    5.5927  -19.6031 C   0  0  1  0  0  0  0  0  0  0  0  0
   -4.2915    5.2222  -19.6500 N   0  0  0  0  0  0  0  0  0  0  0  0
   -5.1992    5.0425  -18.6460 C   0  0  0  0  0  0  0  0  0  0  0  0
   -4.9560    5.1954  -17.2817 C   0  0  0  0  0  0  0  0  0  0  0  0
   -5.8985    5.0354  -16.3201 N   0  0  0  0  0  0  0  0  0  0  0  0
   -7.1198    4.6873  -16.7823 C   0  0  0  0  0  0  0  0  0  0  0  0
   -7.3799    4.5241  -18.1316 C   0  0  0  0  0  0  0  0  0  0  0  0
   -8.6136    4.1648  -18.5933 O   0  0  0  0  0  0  0  0  0  0  0  0
   -6.4304    4.6922  -19.0694 N   0  0  0  0  0  0  0  0  0  0  0  0
   -2.6924    6.9090  -18.8946 C   0  0  0  0  0  0  0  0  0  0  0  0
   -1.8982    7.0833  -17.6179 C   0  0  0  0  0  0  0  0  0  0  0  0
   -1.3384    7.5835  -18.9177 C   0  0  0  0  0  0  0  0  0  0  0  0
  2  1  1  1
  2  3  1  0
  3  4  1  0
  4  5  2  0
  5  6  1  0
  6  7  2  0
  7  8  1  0
  8  9  1  0
  8 10  2  0
  2 11  1  0
 11 12  1  0
 12 13  1  0
 10  4  1  0
 13 11  1  0
M  END
>  <energy_score>  (1423) 
-22.489798

>  <alias>  (1423) 
None

>  <HIPPO Pose ID>  (1423) 
71517

>  <smiles>  (1423) 
C[C@@H](Nc1cncc(O)n1)C1CC1

>  <inchikey>  (1423) 
HKANONIXFXDJGZ-ZCFIWIBFSA-N

>  <distance_score>  (1423) 
0.680646

>  <ref_mols>  (1423) 
Z0875a,Z0089a

>  <ref_pdb>  (1423) 
Z0089a

>  <HIPPO Compound ID>  (1423) 
144404

>  <name>  (1423) 
P71517

>  <inspiration_score>  (1423) 
None

$$$$
P71518
     RDKit          3D

 13 14  0  0  0  0  0  0  0  0999 V2000
   -2.0761    4.3048  -19.2716 C   0  0  0  0  0  0  0  0  0  0  0  0
   -2.7517    5.5102  -18.6200 C   0  0  2  0  0  0  0  0  0  0  0  0
   -4.1009    5.6673  -19.1238 N   0  0  0  0  0  0  0  0  0  0  0  0
   -5.2094    5.2966  -18.3930 C   0  0  0  0  0  0  0  0  0  0  0  0
   -6.1800    4.7624  -19.1629 N   0  0  0  0  0  0  0  0  0  0  0  0
   -7.3535    4.4683  -18.5612 C   0  0  0  0  0  0  0  0  0  0  0  0
   -7.5600    4.6763  -17.2116 C   0  0  0  0  0  0  0  0  0  0  0  0
   -6.6146    5.2103  -16.4066 N   0  0  0  0  0  0  0  0  0  0  0  0
   -5.4511    5.5032  -17.0233 C   0  0  0  0  0  0  0  0  0  0  0  0
   -4.5780    6.0749  -16.1554 O   0  0  0  0  0  0  0  0  0  0  0  0
   -2.0022    6.7694  -18.9817 C   0  0  0  0  0  0  0  0  0  0  0  0
   -2.1122    7.9989  -18.1135 C   0  0  0  0  0  0  0  0  0  0  0  0
   -0.8234    7.2264  -18.1571 C   0  0  0  0  0  0  0  0  0  0  0  0
  2  1  1  6
  2  3  1  0
  3  4  1  0
  4  5  2  0
  5  6  1  0
  6  7  2  0
  7  8  1  0
  8  9  2  0
  9 10  1  0
  2 11  1  0
 11 12  1  0
 12 13  1  0
  9  4  1  0
 13 11  1  0
M  END
>  <energy_score>  (1424) 
-38.96633

>  <alias>  (1424) 
None

>  <HIPPO Pose ID>  (1424) 
71518

>  <smiles>  (1424) 
C[C@H](Nc1nccnc1O)C1CC1

>  <inchikey>  (1424) 
QMVMSRRBWYHEHM-LURJTMIESA-N

>  <distance_score>  (1424) 
0.899782

>  <ref_mols>  (1424) 
Z0875a,Z0089a

>  <ref_pdb>  (1424) 
Z0089a

>  <HIPPO Compound ID>  (1424) 
144405

>  <name>  (1424) 
P71518

>  <inspiration_score>  (1424) 
None

$$$$
P71521
     RDKit          3D

 13 14  0  0  0  0  0  0  0  0999 V2000
   -8.4478    4.6349  -16.1351 C   0  0  0  0  0  0  0  0  0  0  0  0
   -7.2693    4.9113  -17.0095 C   0  0  0  0  0  0  0  0  0  0  0  0
   -7.2414    4.4945  -18.3329 C   0  0  0  0  0  0  0  0  0  0  0  0
   -6.1681    4.6807  -19.1356 N   0  0  0  0  0  0  0  0  0  0  0  0
   -5.1098    5.3083  -18.5980 C   0  0  0  0  0  0  0  0  0  0  0  0
   -4.0852    5.5582  -19.4820 N   0  0  0  0  0  0  0  0  0  0  0  0
   -2.6901    5.5507  -19.0878 C   0  0  1  0  0  0  0  0  0  0  0  0
   -2.0547    4.2001  -19.4029 C   0  0  0  0  0  0  0  0  0  0  0  0
   -1.9373    6.6551  -19.7978 C   0  0  0  0  0  0  0  0  0  0  0  0
   -2.3482    7.2185  -21.1408 C   0  0  0  0  0  0  0  0  0  0  0  0
   -2.4998    8.0537  -19.8975 C   0  0  0  0  0  0  0  0  0  0  0  0
   -5.1481    5.7291  -17.2699 C   0  0  0  0  0  0  0  0  0  0  0  0
   -6.2112    5.5454  -16.4496 N   0  0  0  0  0  0  0  0  0  0  0  0
  1  2  1  0
  2  3  2  0
  3  4  1  0
  4  5  2  0
  5  6  1  0
  6  7  1  0
  7  8  1  6
  7  9  1  0
  9 10  1  0
 10 11  1  0
  5 12  1  0
 12 13  2  0
 13  2  1  0
 11  9  1  0
M  END
>  <energy_score>  (1425) 
-31.956163

>  <alias>  (1425) 
None

>  <HIPPO Pose ID>  (1425) 
71521

>  <smiles>  (1425) 
Cc1cnc(N[C@@H](C)C2CC2)cn1

>  <inchikey>  (1425) 
MMWSEVSCALLWCD-QMMMGPOBSA-N

>  <distance_score>  (1425) 
0.704578

>  <ref_mols>  (1425) 
Z0875a,Z0089a

>  <ref_pdb>  (1425) 
Z0089a

>  <HIPPO Compound ID>  (1425) 
144406

>  <name>  (1425) 
P71521

>  <inspiration_score>  (1425) 
None

$$$$
P71522
     RDKit          3D

 13 14  0  0  0  0  0  0  0  0999 V2000
   -1.6903    4.4135  -19.6039 C   0  0  0  0  0  0  0  0  0  0  0  0
   -2.7021    5.4185  -19.0525 C   0  0  2  0  0  0  0  0  0  0  0  0
   -4.0238    4.9291  -19.3582 N   0  0  0  0  0  0  0  0  0  0  0  0
   -5.1070    4.9548  -18.5240 C   0  0  0  0  0  0  0  0  0  0  0  0
   -5.0760    5.1077  -17.1361 C   0  0  0  0  0  0  0  0  0  0  0  0
   -6.1795    5.1028  -16.3474 N   0  0  0  0  0  0  0  0  0  0  0  0
   -7.3228    4.8931  -17.0173 C   0  0  0  0  0  0  0  0  0  0  0  0
   -8.4209    4.8523  -16.2294 O   0  0  0  0  0  0  0  0  0  0  0  0
   -7.3921    4.7348  -18.3849 C   0  0  0  0  0  0  0  0  0  0  0  0
   -6.2811    4.7703  -19.1546 N   0  0  0  0  0  0  0  0  0  0  0  0
   -2.4392    6.7931  -19.6183 C   0  0  0  0  0  0  0  0  0  0  0  0
   -3.0830    7.3220  -20.8813 C   0  0  0  0  0  0  0  0  0  0  0  0
   -3.4582    7.9064  -19.5457 C   0  0  0  0  0  0  0  0  0  0  0  0
  2  1  1  6
  2  3  1  0
  3  4  1  0
  4  5  2  0
  5  6  1  0
  6  7  2  0
  7  8  1  0
  7  9  1  0
  9 10  2  0
  2 11  1  0
 11 12  1  0
 12 13  1  0
 10  4  1  0
 13 11  1  0
M  END
>  <energy_score>  (1426) 
-53.751637

>  <alias>  (1426) 
None

>  <HIPPO Pose ID>  (1426) 
71522

>  <smiles>  (1426) 
C[C@H](Nc1cnc(O)cn1)C1CC1

>  <inchikey>  (1426) 
MQTUFKSIBPJKKP-LURJTMIESA-N

>  <distance_score>  (1426) 
0.697106

>  <ref_mols>  (1426) 
Z0875a,Z0089a

>  <ref_pdb>  (1426) 
Z0089a

>  <HIPPO Compound ID>  (1426) 
144407

>  <name>  (1426) 
P71522

>  <inspiration_score>  (1426) 
None

$$$$
P71525
     RDKit          3D

 13 14  0  0  0  0  0  0  0  0999 V2000
   -4.5192    6.3035  -16.0412 C   0  0  0  0  0  0  0  0  0  0  0  0
   -5.4280    5.6062  -17.0035 C   0  0  0  0  0  0  0  0  0  0  0  0
   -6.6197    5.2309  -16.4595 N   0  0  0  0  0  0  0  0  0  0  0  0
   -7.5067    4.6575  -17.2982 C   0  0  0  0  0  0  0  0  0  0  0  0
   -7.2303    4.4664  -18.6322 C   0  0  0  0  0  0  0  0  0  0  0  0
   -6.0441    4.8130  -19.1751 N   0  0  0  0  0  0  0  0  0  0  0  0
   -5.1353    5.3927  -18.3639 C   0  0  0  0  0  0  0  0  0  0  0  0
   -4.0322    5.8322  -19.0678 N   0  0  0  0  0  0  0  0  0  0  0  0
   -2.6675    5.5487  -18.6500 C   0  0  1  0  0  0  0  0  0  0  0  0
   -2.1927    4.2261  -19.2424 C   0  0  0  0  0  0  0  0  0  0  0  0
   -1.8514    6.7512  -19.0690 C   0  0  0  0  0  0  0  0  0  0  0  0
   -0.3433    6.7717  -18.9849 C   0  0  0  0  0  0  0  0  0  0  0  0
   -1.0190    6.8093  -20.3296 C   0  0  0  0  0  0  0  0  0  0  0  0
  1  2  1  0
  2  3  2  0
  3  4  1  0
  4  5  2  0
  5  6  1  0
  6  7  2  0
  7  8  1  0
  8  9  1  0
  9 10  1  6
  9 11  1  0
 11 12  1  0
 12 13  1  0
  7  2  1  0
 13 11  1  0
M  END
>  <energy_score>  (1427) 
-24.164941

>  <alias>  (1427) 
None

>  <HIPPO Pose ID>  (1427) 
71525

>  <smiles>  (1427) 
Cc1nccnc1N[C@@H](C)C1CC1

>  <inchikey>  (1427) 
OZKGVHLIXLCFDY-ZETCQYMHSA-N

>  <distance_score>  (1427) 
1.10884

>  <ref_mols>  (1427) 
Z0875a,Z0089a

>  <ref_pdb>  (1427) 
Z0089a

>  <HIPPO Compound ID>  (1427) 
144408

>  <name>  (1427) 
P71525

>  <inspiration_score>  (1427) 
None

$$$$
P71527
     RDKit          3D

 13 13  0  0  0  0  0  0  0  0999 V2000
   -1.6556    3.4925  -19.5789 C   0  0  0  0  0  0  0  0  0  0  0  0
   -2.2626    4.4851  -19.2924 C   0  0  0  0  0  0  0  0  0  0  0  0
   -2.9600    5.7091  -18.8778 C   0  0  1  0  0  0  0  0  0  0  0  0
   -2.2883    6.9432  -19.5180 C   0  0  0  0  0  0  0  0  0  0  0  0
   -0.9733    7.1762  -19.0045 O   0  0  0  0  0  0  0  0  0  0  0  0
   -4.3466    5.6534  -19.2878 N   0  0  0  0  0  0  0  0  0  0  0  0
   -5.3652    5.3380  -18.4160 C   0  0  0  0  0  0  0  0  0  0  0  0
   -5.3808    5.6316  -17.0517 C   0  0  0  0  0  0  0  0  0  0  0  0
   -6.4378    5.3959  -16.2391 N   0  0  0  0  0  0  0  0  0  0  0  0
   -7.5079    4.8451  -16.8510 C   0  0  0  0  0  0  0  0  0  0  0  0
   -7.5318    4.5614  -18.2080 C   0  0  0  0  0  0  0  0  0  0  0  0
   -8.7863    4.0700  -18.8565 C   0  0  0  0  0  0  0  0  0  0  0  0
   -6.4514    4.7966  -18.9952 N   0  0  0  0  0  0  0  0  0  0  0  0
  1  2  3  0
  3  2  1  6
  3  4  1  0
  4  5  1  0
  3  6  1  0
  6  7  1  0
  7  8  2  0
  8  9  1  0
  9 10  2  0
 10 11  1  0
 11 12  1  0
 11 13  2  0
 13  7  1  0
M  END
>  <energy_score>  (1428) 
-28.587016

>  <alias>  (1428) 
None

>  <HIPPO Pose ID>  (1428) 
71527

>  <smiles>  (1428) 
C#C[C@@H](CO)Nc1cncc(C)n1

>  <inchikey>  (1428) 
MOILJHSRMJSYBF-QMMMGPOBSA-N

>  <distance_score>  (1428) 
0.748219

>  <ref_mols>  (1428) 
Z0875a,Z0089a

>  <ref_pdb>  (1428) 
Z0089a

>  <HIPPO Compound ID>  (1428) 
144409

>  <name>  (1428) 
P71527

>  <inspiration_score>  (1428) 
None

$$$$
P71532
     RDKit          3D

 13 13  0  0  0  0  0  0  0  0999 V2000
   -1.7620    3.5064  -19.4431 C   0  0  0  0  0  0  0  0  0  0  0  0
   -2.3194    4.5654  -19.3677 C   0  0  0  0  0  0  0  0  0  0  0  0
   -2.9257    5.8989  -19.3470 C   0  0  2  0  0  0  0  0  0  0  0  0
   -2.2742    6.8715  -18.3525 C   0  0  0  0  0  0  0  0  0  0  0  0
   -1.9996    6.3220  -17.0650 O   0  0  0  0  0  0  0  0  0  0  0  0
   -4.3774    5.8817  -19.3857 N   0  0  0  0  0  0  0  0  0  0  0  0
   -5.2994    5.3833  -18.5101 C   0  0  0  0  0  0  0  0  0  0  0  0
   -6.3255    4.8120  -19.1763 N   0  0  0  0  0  0  0  0  0  0  0  0
   -7.4072    4.4274  -18.4657 C   0  0  0  0  0  0  0  0  0  0  0  0
   -7.4714    4.5804  -17.0978 C   0  0  0  0  0  0  0  0  0  0  0  0
   -6.4648    5.1351  -16.3891 N   0  0  0  0  0  0  0  0  0  0  0  0
   -5.3955    5.5157  -17.1197 C   0  0  0  0  0  0  0  0  0  0  0  0
   -4.4899    6.1280  -16.3215 O   0  0  0  0  0  0  0  0  0  0  0  0
  1  2  3  0
  3  2  1  1
  3  4  1  0
  4  5  1  0
  3  6  1  0
  6  7  1  0
  7  8  2  0
  8  9  1  0
  9 10  2  0
 10 11  1  0
 11 12  2  0
 12 13  1  0
 12  7  1  0
M  END
>  <energy_score>  (1429) 
-16.056613

>  <alias>  (1429) 
None

>  <HIPPO Pose ID>  (1429) 
71532

>  <smiles>  (1429) 
C#C[C@H](CO)Nc1nccnc1O

>  <inchikey>  (1429) 
JWTSJSWKVRPCBI-ZCFIWIBFSA-N

>  <distance_score>  (1429) 
0.928113

>  <ref_mols>  (1429) 
Z0875a,Z0089a

>  <ref_pdb>  (1429) 
Z0089a

>  <HIPPO Compound ID>  (1429) 
144412

>  <name>  (1429) 
P71532

>  <inspiration_score>  (1429) 
None

$$$$
P71535
     RDKit          3D

 13 13  0  0  0  0  0  0  0  0999 V2000
   -1.6997    3.5497  -19.5776 C   0  0  0  0  0  0  0  0  0  0  0  0
   -2.2569    4.5231  -19.1557 C   0  0  0  0  0  0  0  0  0  0  0  0
   -2.8675    5.7226  -18.5793 C   0  0  1  0  0  0  0  0  0  0  0  0
   -2.0737    6.9741  -19.0181 C   0  0  0  0  0  0  0  0  0  0  0  0
   -2.7398    8.1673  -18.5879 O   0  0  0  0  0  0  0  0  0  0  0  0
   -4.2374    5.9037  -19.0411 N   0  0  0  0  0  0  0  0  0  0  0  0
   -5.3157    5.4249  -18.3233 C   0  0  0  0  0  0  0  0  0  0  0  0
   -6.1995    4.8097  -19.1335 N   0  0  0  0  0  0  0  0  0  0  0  0
   -7.3734    4.4219  -18.5944 C   0  0  0  0  0  0  0  0  0  0  0  0
   -7.6604    4.6092  -17.2627 C   0  0  0  0  0  0  0  0  0  0  0  0
   -6.7978    5.2197  -16.4248 N   0  0  0  0  0  0  0  0  0  0  0  0
   -5.6191    5.6357  -16.9642 C   0  0  0  0  0  0  0  0  0  0  0  0
   -4.7449    6.3639  -15.9919 C   0  0  0  0  0  0  0  0  0  0  0  0
  1  2  3  0
  3  2  1  6
  3  4  1  0
  4  5  1  0
  3  6  1  0
  6  7  1  0
  7  8  2  0
  8  9  1  0
  9 10  2  0
 10 11  1  0
 11 12  2  0
 12 13  1  0
 12  7  1  0
M  END
>  <energy_score>  (1430) 
-20.415867

>  <alias>  (1430) 
None

>  <HIPPO Pose ID>  (1430) 
71535

>  <smiles>  (1430) 
C#C[C@@H](CO)Nc1nccnc1C

>  <inchikey>  (1430) 
JICUQVHCQYJSNW-QMMMGPOBSA-N

>  <distance_score>  (1430) 
1.034284

>  <ref_mols>  (1430) 
Z0875a,Z0089a

>  <ref_pdb>  (1430) 
Z0089a

>  <HIPPO Compound ID>  (1430) 
144413

>  <name>  (1430) 
P71535

>  <inspiration_score>  (1430) 
None

$$$$
P71537
     RDKit          3D

 13 13  0  0  0  0  0  0  0  0999 V2000
   -1.6223    3.4798  -19.5768 C   0  0  0  0  0  0  0  0  0  0  0  0
   -2.1949    4.4968  -19.3071 C   0  0  0  0  0  0  0  0  0  0  0  0
   -2.8668    5.7349  -18.9169 C   0  0  1  0  0  0  0  0  0  0  0  0
   -2.1345    6.9602  -19.4979 C   0  0  0  0  0  0  0  0  0  0  0  0
   -2.8791    8.1554  -19.2324 O   0  0  0  0  0  0  0  0  0  0  0  0
   -4.2361    5.7617  -19.4197 N   0  0  0  0  0  0  0  0  0  0  0  0
   -5.2662    5.4375  -18.5522 C   0  0  0  0  0  0  0  0  0  0  0  0
   -5.3711    5.8952  -17.2378 C   0  0  0  0  0  0  0  0  0  0  0  0
   -6.4285    5.6397  -16.4357 N   0  0  0  0  0  0  0  0  0  0  0  0
   -7.4174    4.9088  -17.0013 C   0  0  0  0  0  0  0  0  0  0  0  0
   -8.5954    4.5753  -16.1485 C   0  0  0  0  0  0  0  0  0  0  0  0
   -7.3264    4.4635  -18.3130 C   0  0  0  0  0  0  0  0  0  0  0  0
   -6.2518    4.7106  -19.0975 N   0  0  0  0  0  0  0  0  0  0  0  0
  1  2  3  0
  3  2  1  6
  3  4  1  0
  4  5  1  0
  3  6  1  0
  6  7  1  0
  7  8  2  0
  8  9  1  0
  9 10  2  0
 10 11  1  0
 10 12  1  0
 12 13  2  0
 13  7  1  0
M  END
>  <energy_score>  (1431) 
-37.553636

>  <alias>  (1431) 
None

>  <HIPPO Pose ID>  (1431) 
71537

>  <smiles>  (1431) 
C#C[C@@H](CO)Nc1cnc(C)cn1

>  <inchikey>  (1431) 
ZHZLQZLCEJMGPS-QMMMGPOBSA-N

>  <distance_score>  (1431) 
0.743124

>  <ref_mols>  (1431) 
Z0875a,Z0089a

>  <ref_pdb>  (1431) 
Z0089a

>  <HIPPO Compound ID>  (1431) 
144414

>  <name>  (1431) 
P71537

>  <inspiration_score>  (1431) 
None

$$$$
P71540
     RDKit          3D

 13 14  0  0  0  0  0  0  0  0999 V2000
   -1.7286    3.6784  -19.5963 C   0  0  0  0  0  0  0  0  0  0  0  0
   -1.8128    5.0977  -19.0879 C   0  0  0  0  0  0  0  0  0  0  0  0
   -2.9989    5.8649  -19.6495 C   0  0  0  0  0  0  0  0  0  0  0  0
   -4.2644    5.1328  -19.7430 N   0  0  0  0  0  0  0  0  0  0  0  0
   -5.2174    5.0444  -18.7296 C   0  0  0  0  0  0  0  0  0  0  0  0
   -4.9731    5.2860  -17.3816 C   0  0  0  0  0  0  0  0  0  0  0  0
   -5.9229    5.1842  -16.4208 N   0  0  0  0  0  0  0  0  0  0  0  0
   -7.1413    4.7956  -16.8632 C   0  0  0  0  0  0  0  0  0  0  0  0
   -7.4092    4.5386  -18.1991 C   0  0  0  0  0  0  0  0  0  0  0  0
   -8.7737    4.1375  -18.6596 C   0  0  0  0  0  0  0  0  0  0  0  0
   -6.4448    4.6685  -19.1389 N   0  0  0  0  0  0  0  0  0  0  0  0
   -3.0148    7.3543  -19.3899 C   0  0  0  0  0  0  0  0  0  0  0  0
   -2.7031    6.8523  -20.7646 C   0  0  0  0  0  0  0  0  0  0  0  0
  1  2  1  0
  2  3  1  0
  3  4  1  0
  4  5  1  0
  5  6  2  0
  6  7  1  0
  7  8  2  0
  8  9  1  0
  9 10  1  0
  9 11  2  0
  3 12  1  0
 12 13  1  0
 13  3  1  0
 11  5  1  0
M  END
>  <energy_score>  (1432) 
-24.256978

>  <alias>  (1432) 
None

>  <HIPPO Pose ID>  (1432) 
71540

>  <smiles>  (1432) 
CCC1(Nc2cncc(C)n2)CC1

>  <inchikey>  (1432) 
YXWVARLNSKVXGE-UHFFFAOYSA-N

>  <distance_score>  (1432) 
0.770151

>  <ref_mols>  (1432) 
Z0875a,Z0089a

>  <ref_pdb>  (1432) 
Z0089a

>  <HIPPO Compound ID>  (1432) 
144416

>  <name>  (1432) 
P71540

>  <inspiration_score>  (1432) 
None

$$$$
P71544
     RDKit          3D

 13 13  0  0  0  0  0  0  0  0999 V2000
   -8.3260    4.6117  -16.1596 C   0  0  0  0  0  0  0  0  0  0  0  0
   -7.1695    4.9188  -17.0529 C   0  0  0  0  0  0  0  0  0  0  0  0
   -7.1557    4.5253  -18.3814 C   0  0  0  0  0  0  0  0  0  0  0  0
   -6.1125    4.7766  -19.2074 N   0  0  0  0  0  0  0  0  0  0  0  0
   -5.0660    5.4451  -18.6939 C   0  0  0  0  0  0  0  0  0  0  0  0
   -4.1398    5.8150  -19.6426 N   0  0  0  0  0  0  0  0  0  0  0  0
   -2.6745    5.7688  -19.5065 C   0  0  0  0  0  0  0  0  0  0  0  0
   -2.1140    4.3535  -19.5156 C   0  0  0  0  0  0  0  0  0  0  0  0
   -2.2939    3.8620  -20.7781 F   0  0  0  0  0  0  0  0  0  0  0  0
   -2.0873    6.6086  -18.3844 C   0  0  0  0  0  0  0  0  0  0  0  0
   -2.1252    5.9246  -17.2096 F   0  0  0  0  0  0  0  0  0  0  0  0
   -5.0810    5.8169  -17.3530 C   0  0  0  0  0  0  0  0  0  0  0  0
   -6.1175    5.5738  -16.5100 N   0  0  0  0  0  0  0  0  0  0  0  0
  1  2  1  0
  2  3  2  0
  3  4  1  0
  4  5  2  0
  5  6  1  0
  6  7  1  0
  7  8  1  0
  8  9  1  0
  7 10  1  0
 10 11  1  0
  5 12  1  0
 12 13  2  0
 13  2  1  0
M  END
>  <energy_score>  (1433) 
-27.411874

>  <alias>  (1433) 
None

>  <HIPPO Pose ID>  (1433) 
71544

>  <smiles>  (1433) 
Cc1cnc(NC(CF)CF)cn1

>  <inchikey>  (1433) 
MRJILCCEIFVVKT-UHFFFAOYSA-N

>  <distance_score>  (1433) 
0.749184

>  <ref_mols>  (1433) 
Z0875a,Z0089a

>  <ref_pdb>  (1433) 
Z0089a

>  <HIPPO Compound ID>  (1433) 
144422

>  <name>  (1433) 
P71544

>  <inspiration_score>  (1433) 
None

$$$$
P71546
     RDKit          3D

 13 13  0  0  0  0  0  0  0  0999 V2000
   -4.6219    6.2762  -16.0516 C   0  0  0  0  0  0  0  0  0  0  0  0
   -5.5452    5.5798  -17.0010 C   0  0  0  0  0  0  0  0  0  0  0  0
   -6.7482    5.2586  -16.4483 N   0  0  0  0  0  0  0  0  0  0  0  0
   -7.6465    4.6687  -17.2627 C   0  0  0  0  0  0  0  0  0  0  0  0
   -7.3745    4.4192  -18.5870 C   0  0  0  0  0  0  0  0  0  0  0  0
   -6.1796    4.7154  -19.1394 N   0  0  0  0  0  0  0  0  0  0  0  0
   -5.2571    5.3026  -18.3505 C   0  0  0  0  0  0  0  0  0  0  0  0
   -4.1492    5.6507  -19.0864 N   0  0  0  0  0  0  0  0  0  0  0  0
   -2.7744    5.5502  -18.6020 C   0  0  0  0  0  0  0  0  0  0  0  0
   -1.9999    4.4406  -19.3153 C   0  0  0  0  0  0  0  0  0  0  0  0
   -0.6981    4.4763  -18.9354 F   0  0  0  0  0  0  0  0  0  0  0  0
   -2.0825    6.8984  -18.8355 C   0  0  0  0  0  0  0  0  0  0  0  0
   -0.9566    6.9823  -18.0771 F   0  0  0  0  0  0  0  0  0  0  0  0
  1  2  1  0
  2  3  2  0
  3  4  1  0
  4  5  2  0
  5  6  1  0
  6  7  2  0
  7  8  1  0
  8  9  1  0
  9 10  1  0
 10 11  1  0
  9 12  1  0
 12 13  1  0
  7  2  1  0
M  END
>  <energy_score>  (1434) 
-13.582569

>  <alias>  (1434) 
None

>  <HIPPO Pose ID>  (1434) 
71546

>  <smiles>  (1434) 
Cc1nccnc1NC(CF)CF

>  <inchikey>  (1434) 
XJMHDYRVSMIKEV-UHFFFAOYSA-N

>  <distance_score>  (1434) 
1.027382

>  <ref_mols>  (1434) 
Z0875a,Z0089a

>  <ref_pdb>  (1434) 
Z0089a

>  <HIPPO Compound ID>  (1434) 
144424

>  <name>  (1434) 
P71546

>  <inspiration_score>  (1434) 
None

$$$$
P71548
     RDKit          3D

 13 13  0  0  0  0  0  0  0  0999 V2000
   -8.7142    4.0816  -18.7327 O   0  0  0  0  0  0  0  0  0  0  0  0
   -7.5274    4.5166  -18.2185 C   0  0  0  0  0  0  0  0  0  0  0  0
   -7.3747    4.8101  -16.8759 C   0  0  0  0  0  0  0  0  0  0  0  0
   -6.2044    5.2482  -16.3632 N   0  0  0  0  0  0  0  0  0  0  0  0
   -5.1923    5.3456  -17.2642 C   0  0  0  0  0  0  0  0  0  0  0  0
   -5.3296    5.0655  -18.6230 C   0  0  0  0  0  0  0  0  0  0  0  0
   -4.3749    5.1797  -19.5894 N   0  0  0  0  0  0  0  0  0  0  0  0
   -2.9664    5.5464  -19.5281 C   0  0  0  0  0  0  0  0  0  0  0  0
   -2.1118    4.5412  -18.7722 C   0  0  0  0  0  0  0  0  0  0  0  0
   -0.8026    4.8914  -18.9056 F   0  0  0  0  0  0  0  0  0  0  0  0
   -2.7095    6.9802  -19.0627 C   0  0  0  0  0  0  0  0  0  0  0  0
   -2.8594    7.0946  -17.7174 F   0  0  0  0  0  0  0  0  0  0  0  0
   -6.5153    4.6351  -19.0968 N   0  0  0  0  0  0  0  0  0  0  0  0
  1  2  1  0
  2  3  2  0
  3  4  1  0
  4  5  2  0
  5  6  1  0
  6  7  1  0
  7  8  1  0
  8  9  1  0
  9 10  1  0
  8 11  1  0
 11 12  1  0
  6 13  2  0
 13  2  1  0
M  END
>  <energy_score>  (1435) 
-30.643185

>  <alias>  (1435) 
None

>  <HIPPO Pose ID>  (1435) 
71548

>  <smiles>  (1435) 
Oc1cncc(NC(CF)CF)n1

>  <inchikey>  (1435) 
CGAGVNBFALEKCN-UHFFFAOYSA-N

>  <distance_score>  (1435) 
0.69288

>  <ref_mols>  (1435) 
Z0875a,Z0089a

>  <ref_pdb>  (1435) 
Z0089a

>  <HIPPO Compound ID>  (1435) 
144426

>  <name>  (1435) 
P71548

>  <inspiration_score>  (1435) 
None

$$$$
P71551
     RDKit          3D

 13 13  0  0  0  0  0  0  0  0999 V2000
   -8.3375    4.6796  -16.0321 C   0  0  0  0  0  0  0  0  0  0  0  0
   -7.2077    4.8933  -16.9846 C   0  0  0  0  0  0  0  0  0  0  0  0
   -7.3190    4.5485  -18.3219 C   0  0  0  0  0  0  0  0  0  0  0  0
   -6.3005    4.6991  -19.1985 N   0  0  0  0  0  0  0  0  0  0  0  0
   -5.1479    5.2015  -18.7274 C   0  0  0  0  0  0  0  0  0  0  0  0
   -4.2135    5.4011  -19.7036 N   0  0  0  0  0  0  0  0  0  0  0  0
   -2.7665    5.5635  -19.6000 C   0  0  2  0  0  0  0  0  0  0  0  0
   -2.0921    4.4287  -18.8527 C   0  0  0  0  0  0  0  0  0  0  0  0
   -2.4104    6.9787  -19.0849 C   0  0  1  0  0  0  0  0  0  0  0  0
   -0.9454    7.3412  -19.2862 C   0  0  0  0  0  0  0  0  0  0  0  0
   -3.1991    7.9410  -19.8025 O   0  0  0  0  0  0  0  0  0  0  0  0
   -5.0391    5.5234  -17.3789 C   0  0  0  0  0  0  0  0  0  0  0  0
   -6.0524    5.3938  -16.4857 N   0  0  0  0  0  0  0  0  0  0  0  0
  1  2  1  0
  2  3  2  0
  3  4  1  0
  4  5  2  0
  5  6  1  0
  6  7  1  0
  7  8  1  1
  7  9  1  0
  9 10  1  6
  9 11  1  0
  5 12  1  0
 12 13  2  0
 13  2  1  0
M  END
>  <energy_score>  (1436) 
-21.041251

>  <alias>  (1436) 
None

>  <HIPPO Pose ID>  (1436) 
71551

>  <smiles>  (1436) 
Cc1cnc(N[C@H](C)[C@@H](C)O)cn1

>  <inchikey>  (1436) 
JWXBPGACUOSULX-HTQZYQBOSA-N

>  <distance_score>  (1436) 
0.671683

>  <ref_mols>  (1436) 
Z0875a,Z0089a

>  <ref_pdb>  (1436) 
Z0089a

>  <HIPPO Compound ID>  (1436) 
144427

>  <name>  (1436) 
P71551

>  <inspiration_score>  (1436) 
None

$$$$
P71554
     RDKit          3D

 13 13  0  0  0  0  0  0  0  0999 V2000
   -1.6068    4.4555  -19.5923 C   0  0  0  0  0  0  0  0  0  0  0  0
   -2.6130    5.4600  -19.0373 C   0  0  2  0  0  0  0  0  0  0  0  0
   -3.9469    4.9861  -19.3838 N   0  0  0  0  0  0  0  0  0  0  0  0
   -5.0005    4.9364  -18.5086 C   0  0  0  0  0  0  0  0  0  0  0  0
   -4.9093    4.8297  -17.1192 C   0  0  0  0  0  0  0  0  0  0  0  0
   -5.9817    4.7297  -16.2998 N   0  0  0  0  0  0  0  0  0  0  0  0
   -7.1581    4.7136  -16.9427 C   0  0  0  0  0  0  0  0  0  0  0  0
   -8.2271    4.5543  -16.1320 O   0  0  0  0  0  0  0  0  0  0  0  0
   -7.2850    4.8310  -18.3103 C   0  0  0  0  0  0  0  0  0  0  0  0
   -6.2021    4.9605  -19.1094 N   0  0  0  0  0  0  0  0  0  0  0  0
   -2.4097    6.8873  -19.6018 C   0  0  2  0  0  0  0  0  0  0  0  0
   -1.0738    7.5045  -19.2125 C   0  0  0  0  0  0  0  0  0  0  0  0
   -3.4410    7.7561  -19.1133 O   0  0  0  0  0  0  0  0  0  0  0  0
  2  1  1  6
  2  3  1  0
  3  4  1  0
  4  5  2  0
  5  6  1  0
  6  7  2  0
  7  8  1  0
  7  9  1  0
  9 10  2  0
  2 11  1  0
 11 12  1  1
 11 13  1  0
 10  4  1  0
M  END
>  <energy_score>  (1437) 
-51.355817

>  <alias>  (1437) 
None

>  <HIPPO Pose ID>  (1437) 
71554

>  <smiles>  (1437) 
C[C@H](O)[C@H](C)Nc1cnc(O)cn1

>  <inchikey>  (1437) 
VIFUTAGYGPFVKS-WDSKDSINSA-N

>  <distance_score>  (1437) 
0.762882

>  <ref_mols>  (1437) 
Z0875a,Z0089a

>  <ref_pdb>  (1437) 
Z0089a

>  <HIPPO Compound ID>  (1437) 
144428

>  <name>  (1437) 
P71554

>  <inspiration_score>  (1437) 
None

$$$$
P71558
     RDKit          3D

 13 13  0  0  0  0  0  0  0  0999 V2000
   -4.5616    6.2725  -16.0319 C   0  0  0  0  0  0  0  0  0  0  0  0
   -5.4776    5.5811  -16.9917 C   0  0  0  0  0  0  0  0  0  0  0  0
   -6.6727    5.2235  -16.4437 N   0  0  0  0  0  0  0  0  0  0  0  0
   -7.5670    4.6493  -17.2743 C   0  0  0  0  0  0  0  0  0  0  0  0
   -7.2963    4.4439  -18.6068 C   0  0  0  0  0  0  0  0  0  0  0  0
   -6.1088    4.7761  -19.1547 N   0  0  0  0  0  0  0  0  0  0  0  0
   -5.1923    5.3520  -18.3509 C   0  0  0  0  0  0  0  0  0  0  0  0
   -4.0965    5.7731  -19.0773 N   0  0  0  0  0  0  0  0  0  0  0  0
   -2.7124    5.5356  -18.6484 C   0  0  1  0  0  0  0  0  0  0  0  0
   -2.1661    4.2502  -19.2577 C   0  0  0  0  0  0  0  0  0  0  0  0
   -1.8920    6.7727  -19.1038 C   0  0  2  0  0  0  0  0  0  0  0  0
   -0.5024    6.8398  -18.4881 C   0  0  0  0  0  0  0  0  0  0  0  0
   -2.5970    7.9630  -18.7188 O   0  0  0  0  0  0  0  0  0  0  0  0
  1  2  1  0
  2  3  2  0
  3  4  1  0
  4  5  2  0
  5  6  1  0
  6  7  2  0
  7  8  1  0
  8  9  1  0
  9 10  1  6
  9 11  1  0
 11 12  1  1
 11 13  1  0
  7  2  1  0
M  END
>  <energy_score>  (1438) 
-40.111936

>  <alias>  (1438) 
None

>  <HIPPO Pose ID>  (1438) 
71558

>  <smiles>  (1438) 
Cc1nccnc1N[C@@H](C)[C@H](C)O

>  <inchikey>  (1438) 
OYLUZHJTUAFWBY-XPUUQOCRSA-N

>  <distance_score>  (1438) 
1.018281

>  <ref_mols>  (1438) 
Z0875a,Z0089a

>  <ref_pdb>  (1438) 
Z0089a

>  <HIPPO Compound ID>  (1438) 
144429

>  <name>  (1438) 
P71558

>  <inspiration_score>  (1438) 
None

$$$$
P71564
     RDKit          3D

 13 13  0  0  0  0  0  0  0  0999 V2000
   -8.6060    4.1473  -18.8428 C   0  0  0  0  0  0  0  0  0  0  0  0
   -7.3182    4.5685  -18.2084 C   0  0  0  0  0  0  0  0  0  0  0  0
   -7.2432    4.7822  -16.8408 C   0  0  0  0  0  0  0  0  0  0  0  0
   -6.1226    5.2270  -16.2310 N   0  0  0  0  0  0  0  0  0  0  0  0
   -5.0704    5.4319  -17.0569 C   0  0  0  0  0  0  0  0  0  0  0  0
   -5.1061    5.2056  -18.4314 C   0  0  0  0  0  0  0  0  0  0  0  0
   -4.0740    5.4435  -19.3089 N   0  0  0  0  0  0  0  0  0  0  0  0
   -2.6676    5.4243  -18.9354 C   0  0  1  0  0  0  0  0  0  0  0  0
   -1.9972    4.1523  -19.4484 C   0  0  0  0  0  0  0  0  0  0  0  0
   -1.9796    6.7232  -19.4335 C   0  0  2  0  0  0  0  0  0  0  0  0
   -1.9174    6.8669  -20.9517 C   0  0  0  0  0  0  0  0  0  0  0  0
   -0.6492    6.8233  -18.9106 O   0  0  0  0  0  0  0  0  0  0  0  0
   -6.2444    4.7838  -19.0107 N   0  0  0  0  0  0  0  0  0  0  0  0
  1  2  1  0
  2  3  2  0
  3  4  1  0
  4  5  2  0
  5  6  1  0
  6  7  1  0
  7  8  1  0
  8  9  1  6
  8 10  1  0
 10 11  1  6
 10 12  1  0
  6 13  2  0
 13  2  1  0
M  END
>  <energy_score>  (1439) 
-34.666913

>  <alias>  (1439) 
None

>  <HIPPO Pose ID>  (1439) 
71564

>  <smiles>  (1439) 
Cc1cncc(N[C@@H](C)[C@H](C)O)n1

>  <inchikey>  (1439) 
UPFLFTPADMGOCC-YUMQZZPRSA-N

>  <distance_score>  (1439) 
0.691411

>  <ref_mols>  (1439) 
Z0875a,Z0089a

>  <ref_pdb>  (1439) 
Z0089a

>  <HIPPO Compound ID>  (1439) 
144430

>  <name>  (1439) 
P71564

>  <inspiration_score>  (1439) 
None

$$$$
P71566
     RDKit          3D

 13 13  0  0  0  0  0  0  0  0999 V2000
   -1.5892    4.5732  -19.8890 C   0  0  0  0  0  0  0  0  0  0  0  0
   -2.5954    5.3006  -19.0053 C   0  0  2  0  0  0  0  0  0  0  0  0
   -3.9350    4.9920  -19.4961 N   0  0  0  0  0  0  0  0  0  0  0  0
   -5.0718    4.9338  -18.7417 C   0  0  0  0  0  0  0  0  0  0  0  0
   -5.1121    5.0423  -17.3641 C   0  0  0  0  0  0  0  0  0  0  0  0
   -6.2822    4.9054  -16.7050 N   0  0  0  0  0  0  0  0  0  0  0  0
   -6.2678    4.9879  -15.2493 C   0  0  0  0  0  0  0  0  0  0  0  0
   -7.4213    4.6455  -17.3841 C   0  0  0  0  0  0  0  0  0  0  0  0
   -7.3564    4.5522  -18.7583 C   0  0  0  0  0  0  0  0  0  0  0  0
   -6.1970    4.6961  -19.4296 N   0  0  0  0  0  0  0  0  0  0  0  0
   -2.3770    6.8357  -18.9507 C   0  0  2  0  0  0  0  0  0  0  0  0
   -0.9381    7.2365  -18.6431 C   0  0  0  0  0  0  0  0  0  0  0  0
   -3.2111    7.3906  -17.9129 O   0  0  0  0  0  0  0  0  0  0  0  0
  2  1  1  6
  2  3  1  0
  3  4  1  0
  4  5  2  0
  5  6  1  0
  6  7  1  0
  6  8  2  0
  8  9  1  0
  9 10  2  0
  2 11  1  0
 11 12  1  1
 11 13  1  0
 10  4  1  0
M  CHG  1   6   1
M  END
>  <energy_score>  (1440) 
-34.761687

>  <alias>  (1440) 
None

>  <HIPPO Pose ID>  (1440) 
71566

>  <smiles>  (1440) 
C[C@H](O)[C@H](C)Nc1c[n+](C)ccn1

>  <inchikey>  (1440) 
JYOMFVUGFYBPOH-YUMQZZPRSA-N

>  <distance_score>  (1440) 
0.781683

>  <ref_mols>  (1440) 
Z0875a,Z0089a

>  <ref_pdb>  (1440) 
Z0089a

>  <HIPPO Compound ID>  (1440) 
144431

>  <name>  (1440) 
P71566

>  <inspiration_score>  (1440) 
None

$$$$
P71569
     RDKit          3D

 13 13  0  0  0  0  0  0  0  0999 V2000
   -1.4907    4.0860  -19.9437 C   0  0  0  0  0  0  0  0  0  0  0  0
   -2.0093    5.0168  -18.8712 C   0  0  2  0  0  0  0  0  0  0  0  0
   -2.5121    4.2384  -17.7901 O   0  0  0  0  0  0  0  0  0  0  0  0
   -3.1022    5.9490  -19.4319 C   0  0  2  0  0  0  0  0  0  0  0  0
   -3.1667    7.2707  -18.6817 C   0  0  0  0  0  0  0  0  0  0  0  0
   -4.3844    5.2573  -19.5456 N   0  0  0  0  0  0  0  0  0  0  0  0
   -5.4040    5.1623  -18.6345 C   0  0  0  0  0  0  0  0  0  0  0  0
   -5.3124    5.2761  -17.2442 C   0  0  0  0  0  0  0  0  0  0  0  0
   -6.3642    5.1213  -16.3989 N   0  0  0  0  0  0  0  0  0  0  0  0
   -7.5268    4.7897  -17.0007 C   0  0  0  0  0  0  0  0  0  0  0  0
   -7.6241    4.6870  -18.3712 C   0  0  0  0  0  0  0  0  0  0  0  0
   -8.8116    4.4845  -18.9928 O   0  0  0  0  0  0  0  0  0  0  0  0
   -6.5877    4.8736  -19.2025 N   0  0  0  0  0  0  0  0  0  0  0  0
  2  1  1  6
  2  3  1  0
  2  4  1  0
  4  5  1  1
  4  6  1  0
  6  7  1  0
  7  8  2  0
  8  9  1  0
  9 10  2  0
 10 11  1  0
 11 12  1  0
 11 13  2  0
 13  7  1  0
M  END
>  <energy_score>  (1441) 
-50.151259

>  <alias>  (1441) 
None

>  <HIPPO Pose ID>  (1441) 
71569

>  <smiles>  (1441) 
C[C@H](O)[C@H](C)Nc1cncc(O)n1

>  <inchikey>  (1441) 
GJSUIMKWWNHHQJ-WDSKDSINSA-N

>  <distance_score>  (1441) 
0.804916

>  <ref_mols>  (1441) 
Z0875a,Z0089a

>  <ref_pdb>  (1441) 
Z0089a

>  <HIPPO Compound ID>  (1441) 
144432

>  <name>  (1441) 
P71569

>  <inspiration_score>  (1441) 
None

$$$$
P71577
     RDKit          3D

 13 13  0  0  0  0  0  0  0  0999 V2000
    0.5709    5.7079  -19.0928 C   0  0  0  0  0  0  0  0  0  0  0  0
   -0.5472    5.2767  -19.0147 C   0  0  0  0  0  0  0  0  0  0  0  0
   -1.9188    4.7455  -18.9132 C   0  0  0  0  0  0  0  0  0  0  0  0
   -2.9416    5.6649  -19.5975 C   0  0  2  0  0  0  0  0  0  0  0  0
   -2.9542    7.0949  -19.0614 C   0  0  0  0  0  0  0  0  0  0  0  0
   -4.2637    5.0611  -19.6233 N   0  0  0  0  0  0  0  0  0  0  0  0
   -5.2295    5.0153  -18.6575 C   0  0  0  0  0  0  0  0  0  0  0  0
   -5.0725    5.2581  -17.2966 C   0  0  0  0  0  0  0  0  0  0  0  0
   -6.0884    5.2198  -16.3978 N   0  0  0  0  0  0  0  0  0  0  0  0
   -7.2826    4.8457  -16.9095 C   0  0  0  0  0  0  0  0  0  0  0  0
   -7.4654    4.5626  -18.2531 C   0  0  0  0  0  0  0  0  0  0  0  0
   -8.8024    4.1499  -18.7809 C   0  0  0  0  0  0  0  0  0  0  0  0
   -6.4394    4.6674  -19.1324 N   0  0  0  0  0  0  0  0  0  0  0  0
  1  2  3  0
  2  3  1  0
  3  4  1  0
  4  5  1  1
  4  6  1  0
  6  7  1  0
  7  8  2  0
  8  9  1  0
  9 10  2  0
 10 11  1  0
 11 12  1  0
 11 13  2  0
 13  7  1  0
M  END
>  <energy_score>  (1442) 
-21.63049

>  <alias>  (1442) 
None

>  <HIPPO Pose ID>  (1442) 
71577

>  <smiles>  (1442) 
C#CC[C@H](C)Nc1cncc(C)n1

>  <inchikey>  (1442) 
KGZNKQLWYVXSNW-QMMMGPOBSA-N

>  <distance_score>  (1442) 
0.726474

>  <ref_mols>  (1442) 
Z0875a,Z0089a

>  <ref_pdb>  (1442) 
Z0089a

>  <HIPPO Compound ID>  (1442) 
144434

>  <name>  (1442) 
P71577

>  <inspiration_score>  (1442) 
None

$$$$
P71588
     RDKit          3D

 13 13  0  0  0  0  0  0  0  0999 V2000
   -1.1770    6.3265  -22.0061 C   0  0  0  0  0  0  0  0  0  0  0  0
   -1.3349    5.6614  -21.0181 C   0  0  0  0  0  0  0  0  0  0  0  0
   -1.4843    4.8608  -19.7856 C   0  0  0  0  0  0  0  0  0  0  0  0
   -2.5742    5.3936  -18.8327 C   0  0  1  0  0  0  0  0  0  0  0  0
   -2.5113    6.9097  -18.6472 C   0  0  0  0  0  0  0  0  0  0  0  0
   -3.8910    4.9807  -19.2894 N   0  0  0  0  0  0  0  0  0  0  0  0
   -5.0171    4.9704  -18.5021 C   0  0  0  0  0  0  0  0  0  0  0  0
   -5.0361    4.9951  -17.1039 C   0  0  0  0  0  0  0  0  0  0  0  0
   -6.1670    4.9651  -16.3566 N   0  0  0  0  0  0  0  0  0  0  0  0
   -7.2904    4.8556  -17.0810 C   0  0  0  0  0  0  0  0  0  0  0  0
   -8.4191    4.7915  -16.3391 O   0  0  0  0  0  0  0  0  0  0  0  0
   -7.3109    4.8154  -18.4592 C   0  0  0  0  0  0  0  0  0  0  0  0
   -6.1707    4.8859  -19.1861 N   0  0  0  0  0  0  0  0  0  0  0  0
  1  2  3  0
  2  3  1  0
  3  4  1  0
  4  5  1  6
  4  6  1  0
  6  7  1  0
  7  8  2  0
  8  9  1  0
  9 10  2  0
 10 11  1  0
 10 12  1  0
 12 13  2  0
 13  7  1  0
M  END
>  <energy_score>  (1443) 
-42.990894

>  <alias>  (1443) 
None

>  <HIPPO Pose ID>  (1443) 
71588

>  <smiles>  (1443) 
C#CC[C@@H](C)Nc1cnc(O)cn1

>  <inchikey>  (1443) 
FEGSXJZKMMAGRN-SSDOTTSWSA-N

>  <distance_score>  (1443) 
0.750089

>  <ref_mols>  (1443) 
Z0875a,Z0089a

>  <ref_pdb>  (1443) 
Z0089a

>  <HIPPO Compound ID>  (1443) 
144439

>  <name>  (1443) 
P71588

>  <inspiration_score>  (1443) 
None

$$$$
P71592
     RDKit          3D

 13 13  0  0  0  0  0  0  0  0999 V2000
   -1.8757    4.6945  -19.3022 C   0  0  0  0  0  0  0  0  0  0  0  0
   -2.8369    5.7577  -19.8188 C   0  0  1  0  0  0  0  0  0  0  0  0
   -4.1921    5.2177  -19.9062 N   0  0  0  0  0  0  0  0  0  0  0  0
   -5.1451    5.0203  -18.9571 C   0  0  0  0  0  0  0  0  0  0  0  0
   -4.9687    5.0420  -17.5879 C   0  0  0  0  0  0  0  0  0  0  0  0
   -6.0253    4.8609  -16.7625 N   0  0  0  0  0  0  0  0  0  0  0  0
   -5.8005    4.9197  -15.3215 C   0  0  0  0  0  0  0  0  0  0  0  0
   -7.2546    4.6114  -17.2680 C   0  0  0  0  0  0  0  0  0  0  0  0
   -7.3996    4.5617  -18.6364 C   0  0  0  0  0  0  0  0  0  0  0  0
   -6.3576    4.7598  -19.4643 N   0  0  0  0  0  0  0  0  0  0  0  0
   -2.7174    7.0573  -19.0135 C   0  0  0  0  0  0  0  0  0  0  0  0
   -3.3758    7.3875  -18.0371 O   0  0  0  0  0  0  0  0  0  0  0  0
   -1.7274    7.8525  -19.4690 O   0  0  0  0  0  0  0  0  0  0  0  0
  2  1  1  1
  2  3  1  0
  3  4  1  0
  4  5  2  0
  5  6  1  0
  6  7  1  0
  6  8  2  0
  8  9  1  0
  9 10  2  0
  2 11  1  0
 11 12  2  0
 11 13  1  0
 10  4  1  0
M  CHG  1   6   1
M  END
>  <energy_score>  (1444) 
-34.87558

>  <alias>  (1444) 
None

>  <HIPPO Pose ID>  (1444) 
71592

>  <smiles>  (1444) 
C[C@@H](Nc1c[n+](C)ccn1)C(=O)O

>  <inchikey>  (1444) 
AOPGOJKWJYUNOR-ZCFIWIBFSA-O

>  <distance_score>  (1444) 
0.708006

>  <ref_mols>  (1444) 
Z0875a,Z0089a

>  <ref_pdb>  (1444) 
Z0089a

>  <HIPPO Compound ID>  (1444) 
144441

>  <name>  (1444) 
P71592

>  <inspiration_score>  (1444) 
None

$$$$
P71594
     RDKit          3D

 13 13  0  0  0  0  0  0  0  0999 V2000
   -2.1529    4.5095  -19.0473 C   0  0  0  0  0  0  0  0  0  0  0  0
   -2.8856    5.7171  -19.6027 C   0  0  1  0  0  0  0  0  0  0  0  0
   -4.3330    5.5172  -19.7359 N   0  0  0  0  0  0  0  0  0  0  0  0
   -5.2465    5.2015  -18.7608 C   0  0  0  0  0  0  0  0  0  0  0  0
   -5.0753    5.3150  -17.3785 C   0  0  0  0  0  0  0  0  0  0  0  0
   -6.0666    5.0920  -16.4789 N   0  0  0  0  0  0  0  0  0  0  0  0
   -7.2559    4.7332  -17.0156 C   0  0  0  0  0  0  0  0  0  0  0  0
   -7.4323    4.6459  -18.3790 C   0  0  0  0  0  0  0  0  0  0  0  0
   -8.6513    4.4353  -18.9350 O   0  0  0  0  0  0  0  0  0  0  0  0
   -6.4482    4.8721  -19.2642 N   0  0  0  0  0  0  0  0  0  0  0  0
   -2.5887    7.0232  -18.8475 C   0  0  0  0  0  0  0  0  0  0  0  0
   -1.5554    7.2860  -18.2538 O   0  0  0  0  0  0  0  0  0  0  0  0
   -3.6189    7.9080  -18.9582 O   0  0  0  0  0  0  0  0  0  0  0  0
  2  1  1  1
  2  3  1  0
  3  4  1  0
  4  5  2  0
  5  6  1  0
  6  7  2  0
  7  8  1  0
  8  9  1  0
  8 10  2  0
  2 11  1  0
 11 12  2  0
 11 13  1  0
 10  4  1  0
M  END
>  <energy_score>  (1445) 
-49.957848

>  <alias>  (1445) 
None

>  <HIPPO Pose ID>  (1445) 
71594

>  <smiles>  (1445) 
C[C@@H](Nc1cncc(O)n1)C(=O)O

>  <inchikey>  (1445) 
SFIMLZOXMLYPBC-SCSAIBSYSA-N

>  <distance_score>  (1445) 
0.673497

>  <ref_mols>  (1445) 
Z0875a,Z0089a

>  <ref_pdb>  (1445) 
Z0089a

>  <HIPPO Compound ID>  (1445) 
144442

>  <name>  (1445) 
P71594

>  <inspiration_score>  (1445) 
None

$$$$
P71597
     RDKit          3D

 13 13  0  0  0  0  0  0  0  0999 V2000
   -8.0039    4.5219  -15.8251 C   0  0  0  0  0  0  0  0  0  0  0  0
   -6.9418    4.7020  -16.8585 C   0  0  0  0  0  0  0  0  0  0  0  0
   -7.2549    4.7164  -18.2079 C   0  0  0  0  0  0  0  0  0  0  0  0
   -6.3157    4.8640  -19.1671 N   0  0  0  0  0  0  0  0  0  0  0  0
   -5.0418    5.0038  -18.7688 C   0  0  0  0  0  0  0  0  0  0  0  0
   -4.1475    5.0822  -19.8125 N   0  0  0  0  0  0  0  0  0  0  0  0
   -2.8931    5.8304  -19.7627 C   0  0  2  0  0  0  0  0  0  0  0  0
   -1.7688    4.8974  -19.3138 C   0  0  0  0  0  0  0  0  0  0  0  0
   -2.9884    7.1610  -19.0054 C   0  0  0  0  0  0  0  0  0  0  0  0
   -3.6780    8.1207  -19.3196 O   0  0  0  0  0  0  0  0  0  0  0  0
   -2.2430    7.2168  -17.8826 O   0  0  0  0  0  0  0  0  0  0  0  0
   -4.7378    4.9938  -17.4105 C   0  0  0  0  0  0  0  0  0  0  0  0
   -5.6669    4.8672  -16.4336 N   0  0  0  0  0  0  0  0  0  0  0  0
  1  2  1  0
  2  3  2  0
  3  4  1  0
  4  5  2  0
  5  6  1  0
  6  7  1  0
  7  8  1  1
  7  9  1  0
  9 10  2  0
  9 11  1  0
  5 12  1  0
 12 13  2  0
 13  2  1  0
M  END
>  <energy_score>  (1446) 
-25.19783

>  <alias>  (1446) 
None

>  <HIPPO Pose ID>  (1446) 
71597

>  <smiles>  (1446) 
Cc1cnc(N[C@H](C)C(=O)O)cn1

>  <inchikey>  (1446) 
ZOFOJPWYEFLZLY-ZCFIWIBFSA-N

>  <distance_score>  (1446) 
0.795683

>  <ref_mols>  (1446) 
Z0875a,Z0089a

>  <ref_pdb>  (1446) 
Z0089a

>  <HIPPO Compound ID>  (1446) 
144444

>  <name>  (1446) 
P71597

>  <inspiration_score>  (1446) 
None

$$$$
P71599
     RDKit          3D

 13 13  0  0  0  0  0  0  0  0999 V2000
   -1.7530    4.5652  -19.4723 C   0  0  0  0  0  0  0  0  0  0  0  0
   -2.8508    5.6222  -19.4643 C   0  0  2  0  0  0  0  0  0  0  0  0
   -4.1303    4.9524  -19.6466 N   0  0  0  0  0  0  0  0  0  0  0  0
   -5.1408    4.9766  -18.7188 C   0  0  0  0  0  0  0  0  0  0  0  0
   -4.9870    5.0973  -17.3350 C   0  0  0  0  0  0  0  0  0  0  0  0
   -6.0198    5.0997  -16.4545 N   0  0  0  0  0  0  0  0  0  0  0  0
   -7.2209    4.9208  -17.0276 C   0  0  0  0  0  0  0  0  0  0  0  0
   -8.2542    4.9060  -16.1543 O   0  0  0  0  0  0  0  0  0  0  0  0
   -7.4066    4.7751  -18.3854 C   0  0  0  0  0  0  0  0  0  0  0  0
   -6.3643    4.8083  -19.2458 N   0  0  0  0  0  0  0  0  0  0  0  0
   -2.6019    6.6415  -20.5745 C   0  0  0  0  0  0  0  0  0  0  0  0
   -2.3519    7.8277  -20.4236 O   0  0  0  0  0  0  0  0  0  0  0  0
   -2.6838    6.1262  -21.8265 O   0  0  0  0  0  0  0  0  0  0  0  0
  2  1  1  6
  2  3  1  0
  3  4  1  0
  4  5  2  0
  5  6  1  0
  6  7  2  0
  7  8  1  0
  7  9  1  0
  9 10  2  0
  2 11  1  0
 11 12  2  0
 11 13  1  0
 10  4  1  0
M  END
>  <energy_score>  (1447) 
-45.668599

>  <alias>  (1447) 
None

>  <HIPPO Pose ID>  (1447) 
71599

>  <smiles>  (1447) 
C[C@H](Nc1cnc(O)cn1)C(=O)O

>  <inchikey>  (1447) 
BWTHQQNCSQMJQJ-BYPYZUCNSA-N

>  <distance_score>  (1447) 
0.822679

>  <ref_mols>  (1447) 
Z0875a,Z0089a

>  <ref_pdb>  (1447) 
Z0089a

>  <HIPPO Compound ID>  (1447) 
144445

>  <name>  (1447) 
P71599

>  <inspiration_score>  (1447) 
None

$$$$
P71601
     RDKit          3D

 13 13  0  0  0  0  0  0  0  0999 V2000
   -4.3900    6.2488  -15.9004 C   0  0  0  0  0  0  0  0  0  0  0  0
   -5.2296    5.5981  -16.9487 C   0  0  0  0  0  0  0  0  0  0  0  0
   -6.3579    5.0193  -16.4530 N   0  0  0  0  0  0  0  0  0  0  0  0
   -7.2273    4.5169  -17.3504 C   0  0  0  0  0  0  0  0  0  0  0  0
   -6.9821    4.5696  -18.7009 C   0  0  0  0  0  0  0  0  0  0  0  0
   -5.8501    5.1093  -19.2014 N   0  0  0  0  0  0  0  0  0  0  0  0
   -4.9660    5.6329  -18.3273 C   0  0  0  0  0  0  0  0  0  0  0  0
   -3.9414    6.2809  -18.9918 N   0  0  0  0  0  0  0  0  0  0  0  0
   -2.5233    5.8807  -18.8901 C   0  0  2  0  0  0  0  0  0  0  0  0
   -2.2987    4.3906  -19.0904 C   0  0  0  0  0  0  0  0  0  0  0  0
   -1.7967    6.4290  -17.6664 C   0  0  0  0  0  0  0  0  0  0  0  0
   -1.1885    5.7932  -16.8193 O   0  0  0  0  0  0  0  0  0  0  0  0
   -1.8306    7.7792  -17.5875 O   0  0  0  0  0  0  0  0  0  0  0  0
  1  2  1  0
  2  3  2  0
  3  4  1  0
  4  5  2  0
  5  6  1  0
  6  7  2  0
  7  8  1  0
  8  9  1  0
  9 10  1  1
  9 11  1  0
 11 12  2  0
 11 13  1  0
  7  2  1  0
M  END
>  <energy_score>  (1448) 
-14.657992

>  <alias>  (1448) 
None

>  <HIPPO Pose ID>  (1448) 
71601

>  <smiles>  (1448) 
Cc1nccnc1N[C@H](C)C(=O)O

>  <inchikey>  (1448) 
GVZLYOYAKPJENN-ZCFIWIBFSA-N

>  <distance_score>  (1448) 
1.050448

>  <ref_mols>  (1448) 
Z0875a,Z0089a

>  <ref_pdb>  (1448) 
Z0089a

>  <HIPPO Compound ID>  (1448) 
144446

>  <name>  (1448) 
P71601

>  <inspiration_score>  (1448) 
None

$$$$
P71608
     RDKit          3D

 13 13  0  0  0  0  0  0  0  0999 V2000
   -0.9283    6.0873  -21.8151 C   0  0  0  0  0  0  0  0  0  0  0  0
   -2.0180    5.2887  -21.3559 O   0  0  0  0  0  0  0  0  0  0  0  0
   -1.7935    4.7737  -20.0272 C   0  0  0  0  0  0  0  0  0  0  0  0
   -2.7750    5.4022  -19.0111 C   0  0  1  0  0  0  0  0  0  0  0  0
   -2.6641    6.9244  -18.9965 C   0  0  0  0  0  0  0  0  0  0  0  0
   -4.1334    5.0033  -19.3299 N   0  0  0  0  0  0  0  0  0  0  0  0
   -5.2088    4.9992  -18.4825 C   0  0  0  0  0  0  0  0  0  0  0  0
   -5.1650    5.2840  -17.1179 C   0  0  0  0  0  0  0  0  0  0  0  0
   -6.2471    5.2681  -16.3019 N   0  0  0  0  0  0  0  0  0  0  0  0
   -7.3953    4.8842  -16.9016 C   0  0  0  0  0  0  0  0  0  0  0  0
   -7.4716    4.5761  -18.2515 C   0  0  0  0  0  0  0  0  0  0  0  0
   -8.7711    4.1575  -18.8630 C   0  0  0  0  0  0  0  0  0  0  0  0
   -6.3780    4.6534  -19.0516 N   0  0  0  0  0  0  0  0  0  0  0  0
  1  2  1  0
  2  3  1  0
  3  4  1  0
  4  5  1  6
  4  6  1  0
  6  7  1  0
  7  8  2  0
  8  9  1  0
  9 10  2  0
 10 11  1  0
 11 12  1  0
 11 13  2  0
 13  7  1  0
M  END
>  <energy_score>  (1449) 
-32.297386

>  <alias>  (1449) 
None

>  <HIPPO Pose ID>  (1449) 
71608

>  <smiles>  (1449) 
COC[C@@H](C)Nc1cncc(C)n1

>  <inchikey>  (1449) 
YTZYSYWQRSKOKN-MRVPVSSYSA-N

>  <distance_score>  (1449) 
0.714816

>  <ref_mols>  (1449) 
Z0875a,Z0089a

>  <ref_pdb>  (1449) 
Z0089a

>  <HIPPO Compound ID>  (1449) 
144449

>  <name>  (1449) 
P71608

>  <inspiration_score>  (1449) 
None

$$$$
P71611
     RDKit          3D

 13 13  0  0  0  0  0  0  0  0999 V2000
    0.2769    5.6699  -19.3303 C   0  0  0  0  0  0  0  0  0  0  0  0
   -0.7378    5.5216  -18.3471 O   0  0  0  0  0  0  0  0  0  0  0  0
   -1.8653    4.7730  -18.8139 C   0  0  0  0  0  0  0  0  0  0  0  0
   -2.8929    5.6637  -19.5389 C   0  0  2  0  0  0  0  0  0  0  0  0
   -2.9852    7.0861  -18.9940 C   0  0  0  0  0  0  0  0  0  0  0  0
   -4.1920    5.0131  -19.6551 N   0  0  0  0  0  0  0  0  0  0  0  0
   -5.1940    4.9887  -18.7136 C   0  0  0  0  0  0  0  0  0  0  0  0
   -5.0439    5.0808  -17.3276 C   0  0  0  0  0  0  0  0  0  0  0  0
   -6.0775    5.0204  -16.4478 N   0  0  0  0  0  0  0  0  0  0  0  0
   -7.2859    4.7986  -17.0123 C   0  0  0  0  0  0  0  0  0  0  0  0
   -7.4400    4.7123  -18.3793 C   0  0  0  0  0  0  0  0  0  0  0  0
   -8.6627    4.5891  -18.9541 O   0  0  0  0  0  0  0  0  0  0  0  0
   -6.4200    4.8196  -19.2452 N   0  0  0  0  0  0  0  0  0  0  0  0
  1  2  1  0
  2  3  1  0
  3  4  1  0
  4  5  1  1
  4  6  1  0
  6  7  1  0
  7  8  2  0
  8  9  1  0
  9 10  2  0
 10 11  1  0
 11 12  1  0
 11 13  2  0
 13  7  1  0
M  END
>  <energy_score>  (1450) 
-40.931235

>  <alias>  (1450) 
None

>  <HIPPO Pose ID>  (1450) 
71611

>  <smiles>  (1450) 
COC[C@H](C)Nc1cncc(O)n1

>  <inchikey>  (1450) 
OTRZZOIVNHRANW-LURJTMIESA-N

>  <distance_score>  (1450) 
0.730769

>  <ref_mols>  (1450) 
Z0875a,Z0089a

>  <ref_pdb>  (1450) 
Z0089a

>  <HIPPO Compound ID>  (1450) 
144451

>  <name>  (1450) 
P71611

>  <inspiration_score>  (1450) 
None

$$$$
P71613
     RDKit          3D

 13 13  0  0  0  0  0  0  0  0999 V2000
    0.2105    5.6299  -19.3104 C   0  0  0  0  0  0  0  0  0  0  0  0
   -0.7299    5.6777  -18.2479 O   0  0  0  0  0  0  0  0  0  0  0  0
   -1.9179    4.9194  -18.5100 C   0  0  0  0  0  0  0  0  0  0  0  0
   -2.9472    5.7101  -19.3300 C   0  0  2  0  0  0  0  0  0  0  0  0
   -3.0620    7.1808  -18.9544 C   0  0  0  0  0  0  0  0  0  0  0  0
   -4.2260    5.0287  -19.4113 N   0  0  0  0  0  0  0  0  0  0  0  0
   -5.2867    5.0196  -18.5501 C   0  0  0  0  0  0  0  0  0  0  0  0
   -6.4110    4.6319  -19.1904 N   0  0  0  0  0  0  0  0  0  0  0  0
   -7.5449    4.5248  -18.4667 C   0  0  0  0  0  0  0  0  0  0  0  0
   -7.5764    4.7989  -17.1162 C   0  0  0  0  0  0  0  0  0  0  0  0
   -6.4860    5.2185  -16.4395 N   0  0  0  0  0  0  0  0  0  0  0  0
   -5.3552    5.2962  -17.1758 C   0  0  0  0  0  0  0  0  0  0  0  0
   -4.3182    5.6844  -16.3969 O   0  0  0  0  0  0  0  0  0  0  0  0
  1  2  1  0
  2  3  1  0
  3  4  1  0
  4  5  1  1
  4  6  1  0
  6  7  1  0
  7  8  2  0
  8  9  1  0
  9 10  2  0
 10 11  1  0
 11 12  2  0
 12 13  1  0
 12  7  1  0
M  END
>  <energy_score>  (1451) 
-24.088317

>  <alias>  (1451) 
None

>  <HIPPO Pose ID>  (1451) 
71613

>  <smiles>  (1451) 
COC[C@H](C)Nc1nccnc1O

>  <inchikey>  (1451) 
XRYIWPOLXIOGOS-LURJTMIESA-N

>  <distance_score>  (1451) 
0.982455

>  <ref_mols>  (1451) 
Z0875a,Z0089a

>  <ref_pdb>  (1451) 
Z0089a

>  <HIPPO Compound ID>  (1451) 
144452

>  <name>  (1451) 
P71613

>  <inspiration_score>  (1451) 
None

$$$$
P71621
     RDKit          3D

 13 13  0  0  0  0  0  0  0  0999 V2000
   -1.6966    3.5038  -19.4799 C   0  0  0  0  0  0  0  0  0  0  0  0
   -2.2956    4.5413  -19.5244 C   0  0  0  0  0  0  0  0  0  0  0  0
   -3.0002    5.8182  -19.6636 C   0  0  2  0  0  0  0  0  0  0  0  0
   -2.4913    6.8886  -18.6958 C   0  0  0  0  0  0  0  0  0  0  0  0
   -1.1453    7.4683  -19.1232 C   0  0  0  0  0  0  0  0  0  0  0  0
   -4.4339    5.6412  -19.6556 N   0  0  0  0  0  0  0  0  0  0  0  0
   -5.2922    5.2837  -18.6580 C   0  0  0  0  0  0  0  0  0  0  0  0
   -5.1120    5.4423  -17.2892 C   0  0  0  0  0  0  0  0  0  0  0  0
   -6.0762    5.2006  -16.3643 N   0  0  0  0  0  0  0  0  0  0  0  0
   -7.2484    4.7525  -16.8670 C   0  0  0  0  0  0  0  0  0  0  0  0
   -7.4530    4.5576  -18.2222 C   0  0  0  0  0  0  0  0  0  0  0  0
   -8.7800    4.1137  -18.7502 C   0  0  0  0  0  0  0  0  0  0  0  0
   -6.4712    4.8229  -19.1180 N   0  0  0  0  0  0  0  0  0  0  0  0
  1  2  3  0
  3  2  1  1
  3  4  1  0
  4  5  1  0
  3  6  1  0
  6  7  1  0
  7  8  2  0
  8  9  1  0
  9 10  2  0
 10 11  1  0
 11 12  1  0
 11 13  2  0
 13  7  1  0
M  END
>  <energy_score>  (1452) 
-31.119187

>  <alias>  (1452) 
None

>  <HIPPO Pose ID>  (1452) 
71621

>  <smiles>  (1452) 
C#C[C@H](CC)Nc1cncc(C)n1

>  <inchikey>  (1452) 
OGOGODKDNAOATA-SECBINFHSA-N

>  <distance_score>  (1452) 
0.715975

>  <ref_mols>  (1452) 
Z0875a,Z0089a

>  <ref_pdb>  (1452) 
Z0089a

>  <HIPPO Compound ID>  (1452) 
144456

>  <name>  (1452) 
P71621

>  <inspiration_score>  (1452) 
None

$$$$
P71624
     RDKit          3D

 13 13  0  0  0  0  0  0  0  0999 V2000
   -1.6501    3.4772  -19.5330 C   0  0  0  0  0  0  0  0  0  0  0  0
   -2.1921    4.5329  -19.3667 C   0  0  0  0  0  0  0  0  0  0  0  0
   -2.8156    5.8385  -19.1486 C   0  0  1  0  0  0  0  0  0  0  0  0
   -2.1182    6.9398  -19.9538 C   0  0  0  0  0  0  0  0  0  0  0  0
   -0.6973    7.2230  -19.4804 C   0  0  0  0  0  0  0  0  0  0  0  0
   -4.2080    5.7888  -19.5504 N   0  0  0  0  0  0  0  0  0  0  0  0
   -5.2137    5.2768  -18.7741 C   0  0  0  0  0  0  0  0  0  0  0  0
   -5.2153    5.2619  -17.3910 C   0  0  0  0  0  0  0  0  0  0  0  0
   -6.3086    4.8404  -16.7188 N   0  0  0  0  0  0  0  0  0  0  0  0
   -6.2572    4.7939  -15.2610 C   0  0  0  0  0  0  0  0  0  0  0  0
   -7.4158    4.4505  -17.3904 C   0  0  0  0  0  0  0  0  0  0  0  0
   -7.3830    4.4637  -18.7680 C   0  0  0  0  0  0  0  0  0  0  0  0
   -6.2896    4.8567  -19.4483 N   0  0  0  0  0  0  0  0  0  0  0  0
  1  2  3  0
  3  2  1  6
  3  4  1  0
  4  5  1  0
  3  6  1  0
  6  7  1  0
  7  8  2  0
  8  9  1  0
  9 10  1  0
  9 11  2  0
 11 12  1  0
 12 13  2  0
 13  7  1  0
M  CHG  1   9   1
M  END
>  <energy_score>  (1453) 
-27.592504

>  <alias>  (1453) 
None

>  <HIPPO Pose ID>  (1453) 
71624

>  <smiles>  (1453) 
C#C[C@@H](CC)Nc1c[n+](C)ccn1

>  <inchikey>  (1453) 
LXZMABHWOUJRDY-VIFPVBQESA-N

>  <distance_score>  (1453) 
0.879235

>  <ref_mols>  (1453) 
Z0875a,Z0089a

>  <ref_pdb>  (1453) 
Z0089a

>  <HIPPO Compound ID>  (1453) 
144457

>  <name>  (1453) 
P71624

>  <inspiration_score>  (1453) 
None

$$$$
P71626
     RDKit          3D

 13 13  0  0  0  0  0  0  0  0999 V2000
   -1.6595    3.5196  -19.5650 C   0  0  0  0  0  0  0  0  0  0  0  0
   -2.2483    4.5249  -19.2842 C   0  0  0  0  0  0  0  0  0  0  0  0
   -2.9292    5.7594  -18.8880 C   0  0  1  0  0  0  0  0  0  0  0  0
   -2.2419    6.9996  -19.4818 C   0  0  0  0  0  0  0  0  0  0  0  0
   -2.2191    7.0648  -21.0062 C   0  0  0  0  0  0  0  0  0  0  0  0
   -4.3166    5.7339  -19.2895 N   0  0  0  0  0  0  0  0  0  0  0  0
   -5.3486    5.3340  -18.4736 C   0  0  0  0  0  0  0  0  0  0  0  0
   -5.3485    5.3844  -17.0755 C   0  0  0  0  0  0  0  0  0  0  0  0
   -6.4187    5.0660  -16.3056 N   0  0  0  0  0  0  0  0  0  0  0  0
   -7.5127    4.6750  -16.9965 C   0  0  0  0  0  0  0  0  0  0  0  0
   -7.5267    4.6509  -18.3751 C   0  0  0  0  0  0  0  0  0  0  0  0
   -8.6675    4.4099  -19.0688 O   0  0  0  0  0  0  0  0  0  0  0  0
   -6.4650    4.9721  -19.1326 N   0  0  0  0  0  0  0  0  0  0  0  0
  1  2  3  0
  3  2  1  6
  3  4  1  0
  4  5  1  0
  3  6  1  0
  6  7  1  0
  7  8  2  0
  8  9  1  0
  9 10  2  0
 10 11  1  0
 11 12  1  0
 11 13  2  0
 13  7  1  0
M  END
>  <energy_score>  (1454) 
-46.500223

>  <alias>  (1454) 
None

>  <HIPPO Pose ID>  (1454) 
71626

>  <smiles>  (1454) 
C#C[C@@H](CC)Nc1cncc(O)n1

>  <inchikey>  (1454) 
MBFMLQSGYPYYFD-ZETCQYMHSA-N

>  <distance_score>  (1454) 
0.716436

>  <ref_mols>  (1454) 
Z0875a,Z0089a

>  <ref_pdb>  (1454) 
Z0089a

>  <HIPPO Compound ID>  (1454) 
144458

>  <name>  (1454) 
P71626

>  <inspiration_score>  (1454) 
None

$$$$
P71628
     RDKit          3D

 13 13  0  0  0  0  0  0  0  0999 V2000
   -1.6856    3.5559  -19.5607 C   0  0  0  0  0  0  0  0  0  0  0  0
   -2.2468    4.5439  -19.1795 C   0  0  0  0  0  0  0  0  0  0  0  0
   -2.8817    5.7627  -18.6614 C   0  0  1  0  0  0  0  0  0  0  0  0
   -2.1162    7.0170  -19.1199 C   0  0  0  0  0  0  0  0  0  0  0  0
   -2.0808    7.2407  -20.6301 C   0  0  0  0  0  0  0  0  0  0  0  0
   -4.2528    5.8593  -19.1108 N   0  0  0  0  0  0  0  0  0  0  0  0
   -5.2965    5.3846  -18.3447 C   0  0  0  0  0  0  0  0  0  0  0  0
   -6.2830    4.8423  -19.0857 N   0  0  0  0  0  0  0  0  0  0  0  0
   -7.3979    4.4468  -18.4344 C   0  0  0  0  0  0  0  0  0  0  0  0
   -7.5256    4.5545  -17.0638 C   0  0  0  0  0  0  0  0  0  0  0  0
   -6.5598    5.0923  -16.2879 N   0  0  0  0  0  0  0  0  0  0  0  0
   -5.4660    5.5045  -16.9548 C   0  0  0  0  0  0  0  0  0  0  0  0
   -4.5919    6.1113  -16.1124 O   0  0  0  0  0  0  0  0  0  0  0  0
  1  2  3  0
  3  2  1  6
  3  4  1  0
  4  5  1  0
  3  6  1  0
  6  7  1  0
  7  8  2  0
  8  9  1  0
  9 10  2  0
 10 11  1  0
 11 12  2  0
 12 13  1  0
 12  7  1  0
M  END
>  <energy_score>  (1455) 
-42.404348

>  <alias>  (1455) 
None

>  <HIPPO Pose ID>  (1455) 
71628

>  <smiles>  (1455) 
C#C[C@@H](CC)Nc1nccnc1O

>  <inchikey>  (1455) 
YKHAJTVLOXXQQC-ZETCQYMHSA-N

>  <distance_score>  (1455) 
0.918769

>  <ref_mols>  (1455) 
Z0875a,Z0089a

>  <ref_pdb>  (1455) 
Z0089a

>  <HIPPO Compound ID>  (1455) 
144459

>  <name>  (1455) 
P71628

>  <inspiration_score>  (1455) 
None

$$$$
P71630
     RDKit          3D

 13 13  0  0  0  0  0  0  0  0999 V2000
   -1.6305    3.4906  -19.5758 C   0  0  0  0  0  0  0  0  0  0  0  0
   -2.1578    4.5405  -19.3412 C   0  0  0  0  0  0  0  0  0  0  0  0
   -2.7622    5.8277  -18.9932 C   0  0  1  0  0  0  0  0  0  0  0  0
   -2.0256    7.0035  -19.6505 C   0  0  0  0  0  0  0  0  0  0  0  0
   -2.0229    6.9997  -21.1761 C   0  0  0  0  0  0  0  0  0  0  0  0
   -4.1595    5.8630  -19.3664 N   0  0  0  0  0  0  0  0  0  0  0  0
   -5.1354    5.4338  -18.4909 C   0  0  0  0  0  0  0  0  0  0  0  0
   -5.1098    5.6195  -17.1096 C   0  0  0  0  0  0  0  0  0  0  0  0
   -6.1145    5.2550  -16.2839 N   0  0  0  0  0  0  0  0  0  0  0  0
   -7.1872    4.6958  -16.8876 C   0  0  0  0  0  0  0  0  0  0  0  0
   -8.3326    4.3137  -16.0134 C   0  0  0  0  0  0  0  0  0  0  0  0
   -7.2372    4.5390  -18.2647 C   0  0  0  0  0  0  0  0  0  0  0  0
   -6.2120    4.8857  -19.0755 N   0  0  0  0  0  0  0  0  0  0  0  0
  1  2  3  0
  3  2  1  6
  3  4  1  0
  4  5  1  0
  3  6  1  0
  6  7  1  0
  7  8  2  0
  8  9  1  0
  9 10  2  0
 10 11  1  0
 10 12  1  0
 12 13  2  0
 13  7  1  0
M  END
>  <energy_score>  (1456) 
-21.388166

>  <alias>  (1456) 
None

>  <HIPPO Pose ID>  (1456) 
71630

>  <smiles>  (1456) 
C#C[C@@H](CC)Nc1cnc(C)cn1

>  <inchikey>  (1456) 
KZCISIKGKHCVSD-VIFPVBQESA-N

>  <distance_score>  (1456) 
0.75845

>  <ref_mols>  (1456) 
Z0875a,Z0089a

>  <ref_pdb>  (1456) 
Z0089a

>  <HIPPO Compound ID>  (1456) 
144460

>  <name>  (1456) 
P71630

>  <inspiration_score>  (1456) 
None

$$$$
P71631
     RDKit          3D

 13 13  0  0  0  0  0  0  0  0999 V2000
   -2.0389    4.3484  -19.1362 C   0  0  0  0  0  0  0  0  0  0  0  0
   -2.7084    5.6442  -19.5673 C   0  0  2  0  0  0  0  0  0  0  0  0
   -2.3113    6.7779  -18.7038 C   0  0  0  0  0  0  0  0  0  0  0  0
   -2.0011    7.6599  -18.0140 N   0  0  0  0  0  0  0  0  0  0  0  0
   -4.1452    5.4883  -19.7193 N   0  0  0  0  0  0  0  0  0  0  0  0
   -5.0878    5.2287  -18.7675 C   0  0  0  0  0  0  0  0  0  0  0  0
   -5.0000    5.4716  -17.3959 C   0  0  0  0  0  0  0  0  0  0  0  0
   -6.0182    5.2575  -16.5241 N   0  0  0  0  0  0  0  0  0  0  0  0
   -7.1500    4.7692  -17.0898 C   0  0  0  0  0  0  0  0  0  0  0  0
   -8.2772    4.5230  -16.1860 C   0  0  0  0  0  0  0  0  0  0  0  0
   -9.3737    4.1697  -16.6006 O   0  0  0  0  0  0  0  0  0  0  0  0
   -7.2619    4.5209  -18.4420 C   0  0  0  0  0  0  0  0  0  0  0  0
   -6.2259    4.7360  -19.2876 N   0  0  0  0  0  0  0  0  0  0  0  0
  2  1  1  1
  2  3  1  0
  3  4  3  0
  2  5  1  0
  5  6  1  0
  6  7  2  0
  7  8  1  0
  8  9  2  0
  9 10  1  0
 10 11  2  0
  9 12  1  0
 12 13  2  0
 13  6  1  0
M  END
>  <energy_score>  (1457) 
-32.554384

>  <alias>  (1457) 
None

>  <HIPPO Pose ID>  (1457) 
71631

>  <smiles>  (1457) 
C[C@H](C#N)Nc1cnc(C=O)cn1

>  <inchikey>  (1457) 
XEIVKLCGVWXVTJ-ZCFIWIBFSA-N

>  <distance_score>  (1457) 
0.666612

>  <ref_mols>  (1457) 
Z0875a,Z0089a

>  <ref_pdb>  (1457) 
Z0089a

>  <HIPPO Compound ID>  (1457) 
144461

>  <name>  (1457) 
P71631

>  <inspiration_score>  (1457) 
None

$$$$
P71633
     RDKit          3D

 13 13  0  0  0  0  0  0  0  0999 V2000
   -4.3675    6.5288  -15.1729 C   0  0  0  0  0  0  0  0  0  0  0  0
   -4.1735    6.0855  -16.5120 O   0  0  0  0  0  0  0  0  0  0  0  0
   -5.2903    5.5459  -17.1112 C   0  0  0  0  0  0  0  0  0  0  0  0
   -6.3672    5.3050  -16.3202 N   0  0  0  0  0  0  0  0  0  0  0  0
   -7.4391    4.7629  -16.9381 C   0  0  0  0  0  0  0  0  0  0  0  0
   -7.4523    4.4903  -18.2885 C   0  0  0  0  0  0  0  0  0  0  0  0
   -6.3834    4.7301  -19.0743 N   0  0  0  0  0  0  0  0  0  0  0  0
   -5.2875    5.2699  -18.4962 C   0  0  0  0  0  0  0  0  0  0  0  0
   -4.3334    5.5209  -19.4409 N   0  0  0  0  0  0  0  0  0  0  0  0
   -2.8991    5.6906  -19.3176 C   0  0  2  0  0  0  0  0  0  0  0  0
   -2.2099    4.4778  -18.7198 C   0  0  0  0  0  0  0  0  0  0  0  0
   -2.4747    6.9576  -18.6816 C   0  0  0  0  0  0  0  0  0  0  0  0
   -2.1073    7.9602  -18.2206 N   0  0  0  0  0  0  0  0  0  0  0  0
  1  2  1  0
  2  3  1  0
  3  4  2  0
  4  5  1  0
  5  6  2  0
  6  7  1  0
  7  8  2  0
  8  9  1  0
  9 10  1  0
 10 11  1  1
 10 12  1  0
 12 13  3  0
  8  3  1  0
M  END
>  <energy_score>  (1458) 
-20.079981

>  <alias>  (1458) 
None

>  <HIPPO Pose ID>  (1458) 
71633

>  <smiles>  (1458) 
COc1nccnc1N[C@H](C)C#N

>  <inchikey>  (1458) 
JLPVRYXJTIZPBF-ZCFIWIBFSA-N

>  <distance_score>  (1458) 
0.883986

>  <ref_mols>  (1458) 
Z0875a,Z0089a

>  <ref_pdb>  (1458) 
Z0089a

>  <HIPPO Compound ID>  (1458) 
144462

>  <name>  (1458) 
P71633

>  <inspiration_score>  (1458) 
None

$$$$
P71636
     RDKit          3D

 13 13  0  0  0  0  0  0  0  0999 V2000
   -4.1805    5.6844  -14.7993 C   0  0  0  0  0  0  0  0  0  0  0  0
   -4.7890    5.4747  -15.8147 C   0  0  0  0  0  0  0  0  0  0  0  0
   -5.6700    5.1779  -16.9062 C   0  0  0  0  0  0  0  0  0  0  0  0
   -6.9514    5.1273  -16.4540 N   0  0  0  0  0  0  0  0  0  0  0  0
   -7.8807    4.7490  -17.3524 C   0  0  0  0  0  0  0  0  0  0  0  0
   -7.5696    4.5168  -18.6707 C   0  0  0  0  0  0  0  0  0  0  0  0
   -6.3054    4.6144  -19.1317 N   0  0  0  0  0  0  0  0  0  0  0  0
   -5.3299    4.9235  -18.2469 C   0  0  0  0  0  0  0  0  0  0  0  0
   -4.1196    4.8429  -18.8717 N   0  0  0  0  0  0  0  0  0  0  0  0
   -2.8509    5.4144  -18.4810 C   0  0  1  0  0  0  0  0  0  0  0  0
   -1.7616    4.6657  -19.2601 C   0  0  0  0  0  0  0  0  0  0  0  0
   -2.7613    6.8620  -18.7776 C   0  0  0  0  0  0  0  0  0  0  0  0
   -2.6827    7.9975  -19.0125 N   0  0  0  0  0  0  0  0  0  0  0  0
  1  2  3  0
  2  3  1  0
  3  4  2  0
  4  5  1  0
  5  6  2  0
  6  7  1  0
  7  8  2  0
  8  9  1  0
  9 10  1  0
 10 11  1  6
 10 12  1  0
 12 13  3  0
  8  3  1  0
M  END
>  <energy_score>  (1459) 
-9.199914

>  <alias>  (1459) 
None

>  <HIPPO Pose ID>  (1459) 
71636

>  <smiles>  (1459) 
C#Cc1nccnc1N[C@@H](C)C#N

>  <inchikey>  (1459) 
UDYCFOVPWQSSML-ZETCQYMHSA-N

>  <distance_score>  (1459) 
1.001111

>  <ref_mols>  (1459) 
Z0875a,Z0089a

>  <ref_pdb>  (1459) 
Z0089a

>  <HIPPO Compound ID>  (1459) 
144463

>  <name>  (1459) 
P71636

>  <inspiration_score>  (1459) 
None

$$$$
P71638
     RDKit          3D

 13 13  0  0  0  0  0  0  0  0999 V2000
   -1.7026    3.5566  -19.6120 C   0  0  0  0  0  0  0  0  0  0  0  0
   -2.2562    4.5181  -19.1600 C   0  0  0  0  0  0  0  0  0  0  0  0
   -2.8627    5.6961  -18.5299 C   0  0  1  0  0  0  0  0  0  0  0  0
   -2.0583    6.9623  -18.8728 C   0  0  0  0  0  0  0  0  0  0  0  0
   -0.6786    6.9872  -18.2247 C   0  0  0  0  0  0  0  0  0  0  0  0
   -4.2122    5.8991  -19.0173 N   0  0  0  0  0  0  0  0  0  0  0  0
   -5.3087    5.4337  -18.3181 C   0  0  0  0  0  0  0  0  0  0  0  0
   -6.1856    4.8113  -19.1309 N   0  0  0  0  0  0  0  0  0  0  0  0
   -7.3629    4.4271  -18.5969 C   0  0  0  0  0  0  0  0  0  0  0  0
   -7.6600    4.6238  -17.2683 C   0  0  0  0  0  0  0  0  0  0  0  0
   -6.8061    5.2433  -16.4276 N   0  0  0  0  0  0  0  0  0  0  0  0
   -5.6251    5.6572  -16.9637 C   0  0  0  0  0  0  0  0  0  0  0  0
   -4.7565    6.3985  -15.9961 C   0  0  0  0  0  0  0  0  0  0  0  0
  1  2  3  0
  3  2  1  6
  3  4  1  0
  4  5  1  0
  3  6  1  0
  6  7  1  0
  7  8  2  0
  8  9  1  0
  9 10  2  0
 10 11  1  0
 11 12  2  0
 12 13  1  0
 12  7  1  0
M  END
>  <energy_score>  (1460) 
-23.321711

>  <alias>  (1460) 
None

>  <HIPPO Pose ID>  (1460) 
71638

>  <smiles>  (1460) 
C#C[C@@H](CC)Nc1nccnc1C

>  <inchikey>  (1460) 
IMMJFCFOEMPYDG-VIFPVBQESA-N

>  <distance_score>  (1460) 
1.105184

>  <ref_mols>  (1460) 
Z0875a,Z0089a

>  <ref_pdb>  (1460) 
Z0089a

>  <HIPPO Compound ID>  (1460) 
144464

>  <name>  (1460) 
P71638

>  <inspiration_score>  (1460) 
None

$$$$
P71639
     RDKit          3D

 13 14  0  0  0  0  0  0  0  0999 V2000
   -8.6042    4.1536  -14.8621 C   0  0  0  0  0  0  0  0  0  0  0  0
   -8.1566    4.4935  -16.2166 C   0  0  0  0  0  0  0  0  0  0  0  0
   -8.8105    4.0977  -17.3664 C   0  0  0  0  0  0  0  0  0  0  0  0
   -8.3025    4.3539  -18.5820 N   0  0  0  0  0  0  0  0  0  0  0  0
   -7.1326    5.0493  -18.5894 C   0  0  0  0  0  0  0  0  0  0  0  0
   -6.4838    5.4725  -17.4288 C   0  0  0  0  0  0  0  0  0  0  0  0
   -5.3417    6.2844  -17.4343 N   0  0  0  0  0  0  0  0  0  0  0  0
   -4.5981    6.7187  -16.2614 C   0  0  1  0  0  0  0  0  0  0  0  0
   -5.3526    7.2031  -15.0034 C   0  0  0  0  0  0  0  0  0  0  0  0
   -4.8977    5.9572  -14.2343 C   0  0  0  0  0  0  0  0  0  0  0  0
   -3.9589    5.6033  -15.4022 C   0  0  2  0  0  0  0  0  0  0  0  0
   -2.5617    5.8117  -15.1120 O   0  0  0  0  0  0  0  0  0  0  0  0
   -7.0094    5.1844  -16.2422 N   0  0  0  0  0  0  0  0  0  0  0  0
  1  2  1  0
  2  3  2  0
  3  4  1  0
  4  5  2  0
  5  6  1  0
  6  7  1  0
  8  7  1  6
  8  9  1  0
  9 10  1  0
 10 11  1  0
 11 12  1  1
  6 13  2  0
 13  2  1  0
 11  8  1  0
M  END
>  <energy_score>  (1461) 
-13.707047

>  <alias>  (1461) 
None

>  <HIPPO Pose ID>  (1461) 
71639

>  <smiles>  (1461) 
Cc1cncc(N[C@H]2CC[C@@H]2O)n1

>  <inchikey>  (1461) 
WTRDYLZIBNDESX-YUMQZZPRSA-N

>  <distance_score>  (1461) 
1.568549

>  <ref_mols>  (1461) 
Z0875a,Z0089a

>  <ref_pdb>  (1461) 
Z0089a

>  <HIPPO Compound ID>  (1461) 
144465

>  <name>  (1461) 
P71639

>  <inspiration_score>  (1461) 
None

$$$$
P71642
     RDKit          3D

 13 13  0  0  0  0  0  0  0  0999 V2000
   -9.8961    4.1049  -18.1873 C   0  0  0  0  0  0  0  0  0  0  0  0
   -8.7138    4.2894  -18.0968 C   0  0  0  0  0  0  0  0  0  0  0  0
   -7.3537    4.5991  -17.8010 C   0  0  0  0  0  0  0  0  0  0  0  0
   -6.9794    4.8205  -16.4866 C   0  0  0  0  0  0  0  0  0  0  0  0
   -5.7228    5.1662  -16.1399 N   0  0  0  0  0  0  0  0  0  0  0  0
   -4.8586    5.2471  -17.1790 C   0  0  0  0  0  0  0  0  0  0  0  0
   -5.2140    5.0376  -18.5167 C   0  0  0  0  0  0  0  0  0  0  0  0
   -4.3646    5.1122  -19.5884 N   0  0  0  0  0  0  0  0  0  0  0  0
   -2.9893    5.5834  -19.6341 C   0  0  2  0  0  0  0  0  0  0  0  0
   -2.0291    4.5052  -19.1429 C   0  0  0  0  0  0  0  0  0  0  0  0
   -2.7419    6.8813  -18.9665 C   0  0  0  0  0  0  0  0  0  0  0  0
   -2.5403    7.8983  -18.4421 N   0  0  0  0  0  0  0  0  0  0  0  0
   -6.4860    4.7138  -18.8323 N   0  0  0  0  0  0  0  0  0  0  0  0
  1  2  3  0
  2  3  1  0
  3  4  2  0
  4  5  1  0
  5  6  2  0
  6  7  1  0
  7  8  1  0
  8  9  1  0
  9 10  1  1
  9 11  1  0
 11 12  3  0
  7 13  2  0
 13  3  1  0
M  END
>  <energy_score>  (1462) 
-7.627585

>  <alias>  (1462) 
None

>  <HIPPO Pose ID>  (1462) 
71642

>  <smiles>  (1462) 
C#Cc1cncc(N[C@H](C)C#N)n1

>  <inchikey>  (1462) 
WLKGYBOXOOCBBJ-SSDOTTSWSA-N

>  <distance_score>  (1462) 
1.053744

>  <ref_mols>  (1462) 
Z0875a,Z0089a

>  <ref_pdb>  (1462) 
Z0089a

>  <HIPPO Compound ID>  (1462) 
144466

>  <name>  (1462) 
P71642

>  <inspiration_score>  (1462) 
None

$$$$
P71646
     RDKit          3D

 13 13  0  0  0  0  0  0  0  0999 V2000
   -9.3576    4.0768  -16.6606 C   0  0  0  0  0  0  0  0  0  0  0  0
   -8.0887    4.6890  -16.1048 C   0  0  0  0  0  0  0  0  0  0  0  0
   -6.9986    4.9577  -17.0964 C   0  0  0  0  0  0  0  0  0  0  0  0
   -7.0726    4.6185  -18.4389 C   0  0  0  0  0  0  0  0  0  0  0  0
   -6.0494    4.8175  -19.2988 N   0  0  0  0  0  0  0  0  0  0  0  0
   -4.9435    5.4005  -18.8157 C   0  0  0  0  0  0  0  0  0  0  0  0
   -4.0101    5.6456  -19.7886 N   0  0  0  0  0  0  0  0  0  0  0  0
   -2.5659    5.6700  -19.6097 C   0  0  2  0  0  0  0  0  0  0  0  0
   -2.0129    4.3301  -19.1517 C   0  0  0  0  0  0  0  0  0  0  0  0
   -2.0795    6.7818  -18.7633 C   0  0  0  0  0  0  0  0  0  0  0  0
   -1.6912    7.6484  -18.0934 N   0  0  0  0  0  0  0  0  0  0  0  0
   -4.8737    5.7483  -17.4713 C   0  0  0  0  0  0  0  0  0  0  0  0
   -5.8823    5.5398  -16.5925 N   0  0  0  0  0  0  0  0  0  0  0  0
  1  2  1  0
  2  3  1  0
  3  4  2  0
  4  5  1  0
  5  6  2  0
  6  7  1  0
  7  8  1  0
  8  9  1  1
  8 10  1  0
 10 11  3  0
  6 12  1  0
 12 13  2  0
 13  3  1  0
M  END
>  <energy_score>  (1463) 
-21.409899

>  <alias>  (1463) 
None

>  <HIPPO Pose ID>  (1463) 
71646

>  <smiles>  (1463) 
CCc1cnc(N[C@H](C)C#N)cn1

>  <inchikey>  (1463) 
TUDVYRRUZDZAEQ-SSDOTTSWSA-N

>  <distance_score>  (1463) 
0.775624

>  <ref_mols>  (1463) 
Z0875a,Z0089a

>  <ref_pdb>  (1463) 
Z0089a

>  <HIPPO Compound ID>  (1463) 
144468

>  <name>  (1463) 
P71646

>  <inspiration_score>  (1463) 
None

$$$$
P71648
     RDKit          3D

 13 13  0  0  0  0  0  0  0  0999 V2000
   -2.0546    4.4902  -19.0831 C   0  0  0  0  0  0  0  0  0  0  0  0
   -2.9645    5.5873  -19.6234 C   0  0  2  0  0  0  0  0  0  0  0  0
   -2.7039    6.8866  -18.9642 C   0  0  0  0  0  0  0  0  0  0  0  0
   -2.4978    7.9032  -18.4411 N   0  0  0  0  0  0  0  0  0  0  0  0
   -4.3558    5.1614  -19.6159 N   0  0  0  0  0  0  0  0  0  0  0  0
   -5.2358    5.0813  -18.5732 C   0  0  0  0  0  0  0  0  0  0  0  0
   -4.9444    5.3457  -17.2313 C   0  0  0  0  0  0  0  0  0  0  0  0
   -5.8519    5.2670  -16.2285 N   0  0  0  0  0  0  0  0  0  0  0  0
   -7.0824    4.8654  -16.6104 C   0  0  0  0  0  0  0  0  0  0  0  0
   -7.3956    4.5894  -17.9294 C   0  0  0  0  0  0  0  0  0  0  0  0
   -8.7293    4.1796  -18.2414 C   0  0  0  0  0  0  0  0  0  0  0  0
   -9.8444    3.8622  -18.3073 N   0  0  0  0  0  0  0  0  0  0  0  0
   -6.4812    4.6998  -18.9270 N   0  0  0  0  0  0  0  0  0  0  0  0
  2  1  1  1
  2  3  1  0
  3  4  3  0
  2  5  1  0
  5  6  1  0
  6  7  2  0
  7  8  1  0
  8  9  2  0
  9 10  1  0
 10 11  1  0
 11 12  3  0
 10 13  2  0
 13  6  1  0
M  END
>  <energy_score>  (1464) 
-15.323939

>  <alias>  (1464) 
None

>  <HIPPO Pose ID>  (1464) 
71648

>  <smiles>  (1464) 
C[C@H](C#N)Nc1cncc(C#N)n1

>  <inchikey>  (1464) 
KOAAFXJUHFTBMD-ZCFIWIBFSA-N

>  <distance_score>  (1464) 
0.736868

>  <ref_mols>  (1464) 
Z0875a,Z0089a

>  <ref_pdb>  (1464) 
Z0089a

>  <HIPPO Compound ID>  (1464) 
144469

>  <name>  (1464) 
P71648

>  <inspiration_score>  (1464) 
None

$$$$
P71652
     RDKit          3D

 13 13  0  0  0  0  0  0  0  0999 V2000
   -1.9153    4.3363  -19.3005 C   0  0  0  0  0  0  0  0  0  0  0  0
   -2.4118    5.7138  -19.7166 C   0  0  2  0  0  0  0  0  0  0  0  0
   -1.8290    6.7828  -18.8754 C   0  0  0  0  0  0  0  0  0  0  0  0
   -1.3699    7.6150  -18.2070 N   0  0  0  0  0  0  0  0  0  0  0  0
   -3.8662    5.7821  -19.8325 N   0  0  0  0  0  0  0  0  0  0  0  0
   -4.7168    5.4756  -18.7973 C   0  0  0  0  0  0  0  0  0  0  0  0
   -4.5549    5.8120  -17.4581 C   0  0  0  0  0  0  0  0  0  0  0  0
   -5.4451    5.4855  -16.4963 N   0  0  0  0  0  0  0  0  0  0  0  0
   -6.5531    4.8228  -16.9077 C   0  0  0  0  0  0  0  0  0  0  0  0
   -7.4860    4.4092  -15.8200 C   0  0  0  0  0  0  0  0  0  0  0  0
   -9.2863    4.1435  -16.4378 Br  0  0  0  0  0  0  0  0  0  0  0  0
   -6.7207    4.5051  -18.2491 C   0  0  0  0  0  0  0  0  0  0  0  0
   -5.8100    4.8150  -19.1967 N   0  0  0  0  0  0  0  0  0  0  0  0
  2  1  1  1
  2  3  1  0
  3  4  3  0
  2  5  1  0
  5  6  1  0
  6  7  2  0
  7  8  1  0
  8  9  2  0
  9 10  1  0
 10 11  1  0
  9 12  1  0
 12 13  2  0
 13  6  1  0
M  END
>  <energy_score>  (1465) 
-28.33471

>  <alias>  (1465) 
None

>  <HIPPO Pose ID>  (1465) 
71652

>  <smiles>  (1465) 
C[C@H](C#N)Nc1cnc(CBr)cn1

>  <inchikey>  (1465) 
WDPZPZCBSHZLJG-ZCFIWIBFSA-N

>  <distance_score>  (1465) 
0.887306

>  <ref_mols>  (1465) 
Z0875a,Z0089a

>  <ref_pdb>  (1465) 
Z0089a

>  <HIPPO Compound ID>  (1465) 
144471

>  <name>  (1465) 
P71652

>  <inspiration_score>  (1465) 
None

$$$$
P71655
     RDKit          3D

 13 13  0  0  0  0  0  0  0  0999 V2000
   -8.5329    4.7424  -15.9182 C   0  0  0  0  0  0  0  0  0  0  0  0
   -7.3668    4.9059  -16.8391 C   0  0  0  0  0  0  0  0  0  0  0  0
   -6.2087    5.3057  -16.2580 N   0  0  0  0  0  0  0  0  0  0  0  0
   -5.1234    5.3171  -17.0625 C   0  0  0  0  0  0  0  0  0  0  0  0
   -5.1579    4.9981  -18.4156 C   0  0  0  0  0  0  0  0  0  0  0  0
   -4.0752    4.9205  -19.2536 N   0  0  0  0  0  0  0  0  0  0  0  0
   -2.7446    5.4132  -18.9524 C   0  0  1  0  0  0  0  0  0  0  0  0
   -1.7245    4.4842  -19.6091 C   0  0  0  0  0  0  0  0  0  0  0  0
   -2.5421    6.8057  -19.4088 C   0  0  0  0  0  0  0  0  0  0  0  0
   -2.3718    7.8976  -19.7678 N   0  0  0  0  0  0  0  0  0  0  0  0
   -6.3233    4.6526  -18.9871 N   0  0  0  0  0  0  0  0  0  0  0  0
   -7.4284    4.5828  -18.1954 C   0  0  0  0  0  0  0  0  0  0  0  0
   -8.7031    4.1441  -18.8519 C   0  0  0  0  0  0  0  0  0  0  0  0
  1  2  1  0
  2  3  2  0
  3  4  1  0
  4  5  2  0
  5  6  1  0
  6  7  1  0
  7  8  1  6
  7  9  1  0
  9 10  3  0
  5 11  1  0
 11 12  2  0
 12 13  1  0
 12  2  1  0
M  END
>  <energy_score>  (1466) 
-18.065116

>  <alias>  (1466) 
None

>  <HIPPO Pose ID>  (1466) 
71655

>  <smiles>  (1466) 
Cc1ncc(N[C@@H](C)C#N)nc1C

>  <inchikey>  (1466) 
PAMASTWLNMPKHB-LURJTMIESA-N

>  <distance_score>  (1466) 
0.71988

>  <ref_mols>  (1466) 
Z0875a,Z0089a

>  <ref_pdb>  (1466) 
Z0089a

>  <HIPPO Compound ID>  (1466) 
144472

>  <name>  (1466) 
P71655

>  <inspiration_score>  (1466) 
None

$$$$
P71656
     RDKit          3D

 13 13  0  0  0  0  0  0  0  0999 V2000
   -9.6841    3.9814  -17.6518 C   0  0  0  0  0  0  0  0  0  0  0  0
   -8.6543    4.2383  -18.5912 O   0  0  0  0  0  0  0  0  0  0  0  0
   -7.4424    4.6062  -18.0802 C   0  0  0  0  0  0  0  0  0  0  0  0
   -7.1742    4.8694  -16.7446 C   0  0  0  0  0  0  0  0  0  0  0  0
   -5.9562    5.2557  -16.2963 N   0  0  0  0  0  0  0  0  0  0  0  0
   -5.0022    5.3350  -17.2523 C   0  0  0  0  0  0  0  0  0  0  0  0
   -5.2377    5.0876  -18.6032 C   0  0  0  0  0  0  0  0  0  0  0  0
   -4.3256    5.1681  -19.6165 N   0  0  0  0  0  0  0  0  0  0  0  0
   -2.9360    5.5853  -19.5920 C   0  0  2  0  0  0  0  0  0  0  0  0
   -2.0467    4.4759  -19.0442 C   0  0  0  0  0  0  0  0  0  0  0  0
   -2.6799    6.8746  -18.9122 C   0  0  0  0  0  0  0  0  0  0  0  0
   -2.4691    7.8832  -18.3751 N   0  0  0  0  0  0  0  0  0  0  0  0
   -6.4680    4.7228  -19.0109 N   0  0  0  0  0  0  0  0  0  0  0  0
  1  2  1  0
  2  3  1  0
  3  4  2  0
  4  5  1  0
  5  6  2  0
  6  7  1  0
  7  8  1  0
  8  9  1  0
  9 10  1  1
  9 11  1  0
 11 12  3  0
  7 13  2  0
 13  3  1  0
M  END
>  <energy_score>  (1467) 
-24.159449

>  <alias>  (1467) 
None

>  <HIPPO Pose ID>  (1467) 
71656

>  <smiles>  (1467) 
COc1cncc(N[C@H](C)C#N)n1

>  <inchikey>  (1467) 
LRQLREIHXHSCIC-ZCFIWIBFSA-N

>  <distance_score>  (1467) 
0.722264

>  <ref_mols>  (1467) 
Z0875a,Z0089a

>  <ref_pdb>  (1467) 
Z0089a

>  <HIPPO Compound ID>  (1467) 
144473

>  <name>  (1467) 
P71656

>  <inspiration_score>  (1467) 
None

$$$$
P71658
     RDKit          3D

 13 13  0  0  0  0  0  0  0  0999 V2000
   -9.1582    4.2884  -16.2824 C   0  0  0  0  0  0  0  0  0  0  0  0
   -8.0871    5.1955  -16.0755 O   0  0  0  0  0  0  0  0  0  0  0  0
   -7.0942    5.0980  -17.0015 C   0  0  0  0  0  0  0  0  0  0  0  0
   -7.2832    4.8258  -18.3473 C   0  0  0  0  0  0  0  0  0  0  0  0
   -6.2601    4.8086  -19.2327 N   0  0  0  0  0  0  0  0  0  0  0  0
   -5.0342    5.0759  -18.7569 C   0  0  0  0  0  0  0  0  0  0  0  0
   -4.0745    5.0489  -19.7283 N   0  0  0  0  0  0  0  0  0  0  0  0
   -2.7234    5.5737  -19.6650 C   0  0  2  0  0  0  0  0  0  0  0  0
   -1.8017    4.5421  -19.0309 C   0  0  0  0  0  0  0  0  0  0  0  0
   -2.5801    6.9056  -19.0372 C   0  0  0  0  0  0  0  0  0  0  0  0
   -2.4544    7.9523  -18.5489 N   0  0  0  0  0  0  0  0  0  0  0  0
   -4.8567    5.3260  -17.3991 C   0  0  0  0  0  0  0  0  0  0  0  0
   -5.8716    5.3736  -16.5060 N   0  0  0  0  0  0  0  0  0  0  0  0
  1  2  1  0
  2  3  1  0
  3  4  2  0
  4  5  1  0
  5  6  2  0
  6  7  1  0
  7  8  1  0
  8  9  1  1
  8 10  1  0
 10 11  3  0
  6 12  1  0
 12 13  2  0
 13  3  1  0
M  END
>  <energy_score>  (1468) 
-21.43998

>  <alias>  (1468) 
None

>  <HIPPO Pose ID>  (1468) 
71658

>  <smiles>  (1468) 
COc1cnc(N[C@H](C)C#N)cn1

>  <inchikey>  (1468) 
MZKHZEXPLSPWRF-ZCFIWIBFSA-N

>  <distance_score>  (1468) 
0.755595

>  <ref_mols>  (1468) 
Z0875a,Z0089a

>  <ref_pdb>  (1468) 
Z0089a

>  <HIPPO Compound ID>  (1468) 
144474

>  <name>  (1468) 
P71658

>  <inspiration_score>  (1468) 
None

$$$$
P71664
     RDKit          3D

 13 13  0  0  0  0  0  0  0  0999 V2000
   -2.1216    4.3756  -19.0223 C   0  0  0  0  0  0  0  0  0  0  0  0
   -2.7903    5.6494  -19.5139 C   0  0  2  0  0  0  0  0  0  0  0  0
   -2.3970    6.8200  -18.6990 C   0  0  0  0  0  0  0  0  0  0  0  0
   -2.0822    7.7330  -18.0525 N   0  0  0  0  0  0  0  0  0  0  0  0
   -4.2251    5.4905  -19.6778 N   0  0  0  0  0  0  0  0  0  0  0  0
   -5.1747    5.2532  -18.7230 C   0  0  0  0  0  0  0  0  0  0  0  0
   -5.1293    5.5991  -17.3752 C   0  0  0  0  0  0  0  0  0  0  0  0
   -6.1634    5.4168  -16.5118 N   0  0  0  0  0  0  0  0  0  0  0  0
   -7.2806    4.8502  -17.0403 C   0  0  0  0  0  0  0  0  0  0  0  0
   -8.4467    4.6111  -16.1179 C   0  0  0  0  0  0  0  0  0  0  0  0
   -9.6722    4.4551  -16.8278 O   0  0  0  0  0  0  0  0  0  0  0  0
   -7.3223    4.4884  -18.3776 C   0  0  0  0  0  0  0  0  0  0  0  0
   -6.2782    4.6754  -19.2214 N   0  0  0  0  0  0  0  0  0  0  0  0
  2  1  1  1
  2  3  1  0
  3  4  3  0
  2  5  1  0
  5  6  1  0
  6  7  2  0
  7  8  1  0
  8  9  2  0
  9 10  1  0
 10 11  1  0
  9 12  1  0
 12 13  2  0
 13  6  1  0
M  END
>  <energy_score>  (1469) 
-26.726128

>  <alias>  (1469) 
None

>  <HIPPO Pose ID>  (1469) 
71664

>  <smiles>  (1469) 
C[C@H](C#N)Nc1cnc(CO)cn1

>  <inchikey>  (1469) 
LHWXHUJTOHEVOK-ZCFIWIBFSA-N

>  <distance_score>  (1469) 
0.84644

>  <ref_mols>  (1469) 
Z0875a,Z0089a

>  <ref_pdb>  (1469) 
Z0089a

>  <HIPPO Compound ID>  (1469) 
144477

>  <name>  (1469) 
P71664

>  <inspiration_score>  (1469) 
None

$$$$
P71667
     RDKit          3D

 13 15  0  0  0  0  0  0  0  0999 V2000
   -8.7785    4.0590  -18.6354 C   0  0  0  0  0  0  0  0  0  0  0  0
   -8.7022    4.3123  -17.2582 C   0  0  0  0  0  0  0  0  0  0  0  0
   -7.4064    4.7018  -17.0087 C   0  0  0  0  0  0  0  0  0  0  0  0
   -6.7594    5.1044  -15.8028 C   0  0  0  0  0  0  0  0  0  0  0  0
   -5.5206    5.4953  -15.7841 N   0  0  0  0  0  0  0  0  0  0  0  0
   -4.8240    5.4702  -16.9750 C   0  0  0  0  0  0  0  0  0  0  0  0
   -5.3046    5.0714  -18.1794 C   0  0  0  0  0  0  0  0  0  0  0  0
   -4.5650    5.0014  -19.3669 N   0  0  0  0  0  0  0  0  0  0  0  0
   -3.2914    5.7167  -19.5150 C   0  0  0  0  0  0  0  0  0  0  0  0
   -2.1016    5.0140  -20.1224 C   0  0  0  0  0  0  0  0  0  0  0  0
   -2.0674    5.4327  -18.6904 C   0  0  0  0  0  0  0  0  0  0  0  0
   -6.6679    4.6805  -18.1720 N   0  0  0  0  0  0  0  0  0  0  0  0
   -7.5154    4.2445  -19.1574 C   0  0  0  0  0  0  0  0  0  0  0  0
  1  2  1  0
  2  3  2  0
  3  4  1  0
  4  5  2  0
  5  6  1  0
  6  7  2  0
  7  8  1  0
  8  9  1  0
  9 10  1  0
 10 11  1  0
  7 12  1  0
 12 13  1  0
 13  1  2  0
 12  3  1  0
 11  9  1  0
M  END
>  <energy_score>  (1470) 
-12.287669

>  <alias>  (1470) 
None

>  <HIPPO Pose ID>  (1470) 
71667

>  <smiles>  (1470) 
c1cc2cncc(NC3CC3)n2c1

>  <inchikey>  (1470) 
MIAPFBBKIOTPGL-UHFFFAOYSA-N

>  <distance_score>  (1470) 
1.820386

>  <ref_mols>  (1470) 
Z0875a,Z0089a

>  <ref_pdb>  (1470) 
Z0089a

>  <HIPPO Compound ID>  (1470) 
144479

>  <name>  (1470) 
P71667

>  <inspiration_score>  (1470) 
None

$$$$
P71669
     RDKit          3D

 13 15  0  0  0  0  0  0  0  0999 V2000
   -5.0737    5.5980  -17.0877 C   0  0  0  0  0  0  0  0  0  0  0  0
   -6.0826    5.5565  -16.1926 N   0  0  0  0  0  0  0  0  0  0  0  0
   -7.2574    5.1205  -16.6991 C   0  0  0  0  0  0  0  0  0  0  0  0
   -7.4607    4.7750  -18.0359 C   0  0  0  0  0  0  0  0  0  0  0  0
   -8.7971    4.3242  -18.5724 C   0  0  0  0  0  0  0  0  0  0  0  0
   -9.5542    3.2724  -17.8215 C   0  0  0  0  0  0  0  0  0  0  0  0
  -10.1328    4.6280  -17.9181 C   0  0  0  0  0  0  0  0  0  0  0  0
   -6.4099    4.8337  -18.8974 N   0  0  0  0  0  0  0  0  0  0  0  0
   -5.2131    5.2382  -18.4260 C   0  0  0  0  0  0  0  0  0  0  0  0
   -4.1847    5.3057  -19.3674 N   0  0  0  0  0  0  0  0  0  0  0  0
   -2.7693    5.3523  -19.0469 C   0  0  0  0  0  0  0  0  0  0  0  0
   -1.7607    4.5398  -19.8009 C   0  0  0  0  0  0  0  0  0  0  0  0
   -1.8260    6.0276  -19.9993 C   0  0  0  0  0  0  0  0  0  0  0  0
  1  2  2  0
  2  3  1  0
  3  4  2  0
  4  5  1  0
  5  6  1  0
  6  7  1  0
  4  8  1  0
  8  9  2  0
  9 10  1  0
 10 11  1  0
 11 12  1  0
 12 13  1  0
  9  1  1  0
 13 11  1  0
  7  5  1  0
M  END
>  <energy_score>  (1471) 
-10.055667

>  <alias>  (1471) 
None

>  <HIPPO Pose ID>  (1471) 
71669

>  <smiles>  (1471) 
c1ncc(C2CC2)nc1NC1CC1

>  <inchikey>  (1471) 
VQMMBRPNBBCYER-UHFFFAOYSA-N

>  <distance_score>  (1471) 
0.96902

>  <ref_mols>  (1471) 
Z0875a,Z0089a

>  <ref_pdb>  (1471) 
Z0089a

>  <HIPPO Compound ID>  (1471) 
144481

>  <name>  (1471) 
P71669

>  <inspiration_score>  (1471) 
None

$$$$
P71670
     RDKit          3D

 13 15  0  0  0  0  0  0  0  0999 V2000
   -4.8283    5.4005  -19.2191 C   0  0  0  0  0  0  0  0  0  0  0  0
   -4.2703    5.2730  -18.0145 C   0  0  0  0  0  0  0  0  0  0  0  0
   -5.0834    4.9753  -16.9404 N   0  0  0  0  0  0  0  0  0  0  0  0
   -4.7212    4.8564  -15.6396 N   0  0  0  0  0  0  0  0  0  0  0  0
   -5.8519    4.5259  -15.0160 C   0  0  0  0  0  0  0  0  0  0  0  0
   -6.9400    4.4447  -15.8829 C   0  0  0  0  0  0  0  0  0  0  0  0
   -6.4391    4.7790  -17.1190 C   0  0  0  0  0  0  0  0  0  0  0  0
   -6.9896    4.9538  -18.4502 C   0  0  0  0  0  0  0  0  0  0  0  0
   -8.3139    4.8987  -18.8134 N   0  0  0  0  0  0  0  0  0  0  0  0
   -9.2730    4.0108  -18.1952 C   0  0  0  0  0  0  0  0  0  0  0  0
  -10.7278    4.3826  -18.1170 C   0  0  0  0  0  0  0  0  0  0  0  0
   -9.8981    4.3332  -16.8818 C   0  0  0  0  0  0  0  0  0  0  0  0
   -6.1748    5.2706  -19.4350 N   0  0  0  0  0  0  0  0  0  0  0  0
  1  2  2  0
  2  3  1  0
  3  4  1  0
  4  5  2  0
  5  6  1  0
  6  7  2  0
  7  8  1  0
  8  9  1  0
  9 10  1  0
 10 11  1  0
 11 12  1  0
  8 13  2  0
 13  1  1  0
  7  3  1  0
 12 10  1  0
M  END
>  <energy_score>  (1472) 
-22.294556

>  <alias>  (1472) 
None

>  <HIPPO Pose ID>  (1472) 
71670

>  <smiles>  (1472) 
c1cn2nccc2c(NC2CC2)n1

>  <inchikey>  (1472) 
COQOIVWSDWSVSJ-UHFFFAOYSA-N

>  <distance_score>  (1472) 
1.361895

>  <ref_mols>  (1472) 
Z0875a,Z0089a

>  <ref_pdb>  (1472) 
Z0089a

>  <HIPPO Compound ID>  (1472) 
144482

>  <name>  (1472) 
P71670

>  <inspiration_score>  (1472) 
None

$$$$
P71673
     RDKit          3D

 13 13  0  0  0  0  0  0  0  0999 V2000
   -1.6594    3.6716  -19.6176 C   0  0  0  0  0  0  0  0  0  0  0  0
   -1.8120    5.0577  -19.0326 C   0  0  0  0  0  0  0  0  0  0  0  0
   -2.9448    5.8699  -19.6712 C   0  0  2  0  0  0  0  0  0  0  0  0
   -3.1347    7.1405  -18.9377 C   0  0  0  0  0  0  0  0  0  0  0  0
   -3.3561    8.0743  -18.2833 N   0  0  0  0  0  0  0  0  0  0  0  0
   -4.1635    5.0680  -19.8001 N   0  0  0  0  0  0  0  0  0  0  0  0
   -5.1722    4.9583  -18.8806 C   0  0  0  0  0  0  0  0  0  0  0  0
   -5.0410    5.0428  -17.5061 C   0  0  0  0  0  0  0  0  0  0  0  0
   -6.1286    4.9045  -16.7137 N   0  0  0  0  0  0  0  0  0  0  0  0
   -5.9543    4.9998  -15.2666 C   0  0  0  0  0  0  0  0  0  0  0  0
   -7.3418    4.6456  -17.2543 C   0  0  0  0  0  0  0  0  0  0  0  0
   -7.4396    4.5479  -18.6256 C   0  0  0  0  0  0  0  0  0  0  0  0
   -6.3665    4.6971  -19.4246 N   0  0  0  0  0  0  0  0  0  0  0  0
  1  2  1  0
  3  2  1  1
  3  4  1  0
  4  5  3  0
  3  6  1  0
  6  7  1  0
  7  8  2  0
  8  9  1  0
  9 10  1  0
  9 11  2  0
 11 12  1  0
 12 13  2  0
 13  7  1  0
M  CHG  1   9   1
M  END
>  <energy_score>  (1473) 
-17.649813

>  <alias>  (1473) 
None

>  <HIPPO Pose ID>  (1473) 
71673

>  <smiles>  (1473) 
CC[C@H](C#N)Nc1c[n+](C)ccn1

>  <inchikey>  (1473) 
OLMDUGQZTOAEOU-MRVPVSSYSA-N

>  <distance_score>  (1473) 
0.772557

>  <ref_mols>  (1473) 
Z0875a,Z0089a

>  <ref_pdb>  (1473) 
Z0089a

>  <HIPPO Compound ID>  (1473) 
144484

>  <name>  (1473) 
P71673

>  <inspiration_score>  (1473) 
None

$$$$
P71675
     RDKit          3D

 13 13  0  0  0  0  0  0  0  0999 V2000
   -1.6910    3.7249  -19.5573 C   0  0  0  0  0  0  0  0  0  0  0  0
   -1.9606    5.0789  -18.9362 C   0  0  0  0  0  0  0  0  0  0  0  0
   -3.1400    5.8113  -19.5839 C   0  0  2  0  0  0  0  0  0  0  0  0
   -3.2694    7.1799  -19.0360 C   0  0  0  0  0  0  0  0  0  0  0  0
   -3.3614    8.2559  -18.6069 N   0  0  0  0  0  0  0  0  0  0  0  0
   -4.3490    4.9989  -19.5680 N   0  0  0  0  0  0  0  0  0  0  0  0
   -5.3175    4.9873  -18.5929 C   0  0  0  0  0  0  0  0  0  0  0  0
   -5.1379    5.2728  -17.2388 C   0  0  0  0  0  0  0  0  0  0  0  0
   -6.1384    5.2390  -16.3237 N   0  0  0  0  0  0  0  0  0  0  0  0
   -7.3364    4.8463  -16.8129 C   0  0  0  0  0  0  0  0  0  0  0  0
   -7.5272    4.5423  -18.1496 C   0  0  0  0  0  0  0  0  0  0  0  0
   -8.7377    4.1450  -18.6381 O   0  0  0  0  0  0  0  0  0  0  0  0
   -6.5279    4.6112  -19.0472 N   0  0  0  0  0  0  0  0  0  0  0  0
  1  2  1  0
  3  2  1  1
  3  4  1  0
  4  5  3  0
  3  6  1  0
  6  7  1  0
  7  8  2  0
  8  9  1  0
  9 10  2  0
 10 11  1  0
 11 12  1  0
 11 13  2  0
 13  7  1  0
M  END
>  <energy_score>  (1474) 
-26.013688

>  <alias>  (1474) 
None

>  <HIPPO Pose ID>  (1474) 
71675

>  <smiles>  (1474) 
CC[C@H](C#N)Nc1cncc(O)n1

>  <inchikey>  (1474) 
OVATXGPCADIMET-ZCFIWIBFSA-N

>  <distance_score>  (1474) 
0.778667

>  <ref_mols>  (1474) 
Z0875a,Z0089a

>  <ref_pdb>  (1474) 
Z0089a

>  <HIPPO Compound ID>  (1474) 
144485

>  <name>  (1474) 
P71675

>  <inspiration_score>  (1474) 
None

$$$$
P71678
     RDKit          3D

 13 13  0  0  0  0  0  0  0  0999 V2000
   -1.4420    3.9103  -19.5959 C   0  0  0  0  0  0  0  0  0  0  0  0
   -2.5709    4.4518  -18.7390 C   0  0  0  0  0  0  0  0  0  0  0  0
   -3.0893    5.7874  -19.2746 C   0  0  2  0  0  0  0  0  0  0  0  0
   -2.5211    6.9511  -18.5556 C   0  0  0  0  0  0  0  0  0  0  0  0
   -2.0330    7.8689  -18.0343 N   0  0  0  0  0  0  0  0  0  0  0  0
   -4.5369    5.8199  -19.4351 N   0  0  0  0  0  0  0  0  0  0  0  0
   -5.4584    5.3991  -18.5078 C   0  0  0  0  0  0  0  0  0  0  0  0
   -6.5235    4.8192  -19.0954 N   0  0  0  0  0  0  0  0  0  0  0  0
   -7.5521    4.4561  -18.3002 C   0  0  0  0  0  0  0  0  0  0  0  0
   -7.5187    4.6390  -16.9325 C   0  0  0  0  0  0  0  0  0  0  0  0
   -6.4626    5.2013  -16.3033 N   0  0  0  0  0  0  0  0  0  0  0  0
   -5.4476    5.5593  -17.1146 C   0  0  0  0  0  0  0  0  0  0  0  0
   -4.4349    6.1191  -16.4115 O   0  0  0  0  0  0  0  0  0  0  0  0
  1  2  1  0
  3  2  1  1
  3  4  1  0
  4  5  3  0
  3  6  1  0
  6  7  1  0
  7  8  2  0
  8  9  1  0
  9 10  2  0
 10 11  1  0
 11 12  2  0
 12 13  1  0
 12  7  1  0
M  END
>  <energy_score>  (1475) 
-27.150117

>  <alias>  (1475) 
None

>  <HIPPO Pose ID>  (1475) 
71678

>  <smiles>  (1475) 
CC[C@H](C#N)Nc1nccnc1O

>  <inchikey>  (1475) 
XEXKREZRQIGOHP-ZCFIWIBFSA-N

>  <distance_score>  (1475) 
0.934963

>  <ref_mols>  (1475) 
Z0875a,Z0089a

>  <ref_pdb>  (1475) 
Z0089a

>  <HIPPO Compound ID>  (1475) 
144487

>  <name>  (1475) 
P71678

>  <inspiration_score>  (1475) 
None

$$$$
P71683
     RDKit          3D

 13 13  0  0  0  0  0  0  0  0999 V2000
   -2.3421    3.8002  -18.7102 C   0  0  0  0  0  0  0  0  0  0  0  0
   -1.9798    4.9992  -19.5444 C   0  0  0  0  0  0  0  0  0  0  0  0
   -2.7873    6.2238  -19.1080 C   0  0  1  0  0  0  0  0  0  0  0  0
   -2.2532    7.4218  -19.7931 C   0  0  0  0  0  0  0  0  0  0  0  0
   -1.8192    8.3547  -20.3327 N   0  0  0  0  0  0  0  0  0  0  0  0
   -4.1986    6.0561  -19.4151 N   0  0  0  0  0  0  0  0  0  0  0  0
   -5.1453    5.5714  -18.5531 C   0  0  0  0  0  0  0  0  0  0  0  0
   -5.0774    5.5931  -17.1575 C   0  0  0  0  0  0  0  0  0  0  0  0
   -6.0573    5.1315  -16.3454 N   0  0  0  0  0  0  0  0  0  0  0  0
   -7.1355    4.6715  -16.9987 C   0  0  0  0  0  0  0  0  0  0  0  0
   -8.1348    4.2436  -16.1962 O   0  0  0  0  0  0  0  0  0  0  0  0
   -7.2406    4.6440  -18.3719 C   0  0  0  0  0  0  0  0  0  0  0  0
   -6.2338    5.0785  -19.1636 N   0  0  0  0  0  0  0  0  0  0  0  0
  1  2  1  0
  3  2  1  6
  3  4  1  0
  4  5  3  0
  3  6  1  0
  6  7  1  0
  7  8  2  0
  8  9  1  0
  9 10  2  0
 10 11  1  0
 10 12  1  0
 12 13  2  0
 13  7  1  0
M  END
>  <energy_score>  (1476) 
-28.745026

>  <alias>  (1476) 
None

>  <HIPPO Pose ID>  (1476) 
71683

>  <smiles>  (1476) 
CC[C@@H](C#N)Nc1cnc(O)cn1

>  <inchikey>  (1476) 
XOCCYAJQQPHJEJ-LURJTMIESA-N

>  <distance_score>  (1476) 
0.827554

>  <ref_mols>  (1476) 
Z0875a,Z0089a

>  <ref_pdb>  (1476) 
Z0089a

>  <HIPPO Compound ID>  (1476) 
144489

>  <name>  (1476) 
P71683

>  <inspiration_score>  (1476) 
None

$$$$
P71685
     RDKit          3D

 13 13  0  0  0  0  0  0  0  0999 V2000
   -1.8169    4.1023  -19.9319 C   0  0  0  0  0  0  0  0  0  0  0  0
   -2.0962    4.7214  -18.5785 C   0  0  0  0  0  0  0  0  0  0  0  0
   -2.8648    6.0434  -18.6139 C   0  0  1  0  0  0  0  0  0  0  0  0
   -2.1770    7.0374  -19.4748 C   0  0  0  0  0  0  0  0  0  0  0  0
   -1.6323    7.8084  -20.1526 N   0  0  0  0  0  0  0  0  0  0  0  0
   -4.2368    5.8638  -19.0416 N   0  0  0  0  0  0  0  0  0  0  0  0
   -5.3032    5.4128  -18.3181 C   0  0  0  0  0  0  0  0  0  0  0  0
   -6.2037    4.8301  -19.1352 N   0  0  0  0  0  0  0  0  0  0  0  0
   -7.3820    4.4447  -18.6040 C   0  0  0  0  0  0  0  0  0  0  0  0
   -7.6599    4.5997  -17.2679 C   0  0  0  0  0  0  0  0  0  0  0  0
   -6.7779    5.1639  -16.4189 N   0  0  0  0  0  0  0  0  0  0  0  0
   -5.5902    5.5671  -16.9498 C   0  0  0  0  0  0  0  0  0  0  0  0
   -4.6936    6.2206  -15.9475 C   0  0  0  0  0  0  0  0  0  0  0  0
  1  2  1  0
  3  2  1  6
  3  4  1  0
  4  5  3  0
  3  6  1  0
  6  7  1  0
  7  8  2  0
  8  9  1  0
  9 10  2  0
 10 11  1  0
 11 12  2  0
 12 13  1  0
 12  7  1  0
M  END
>  <energy_score>  (1477) 
-18.723123

>  <alias>  (1477) 
None

>  <HIPPO Pose ID>  (1477) 
71685

>  <smiles>  (1477) 
CC[C@@H](C#N)Nc1nccnc1C

>  <inchikey>  (1477) 
PMXUHAISWITYKZ-QMMMGPOBSA-N

>  <distance_score>  (1477) 
1.041097

>  <ref_mols>  (1477) 
Z0875a,Z0089a

>  <ref_pdb>  (1477) 
Z0089a

>  <HIPPO Compound ID>  (1477) 
144490

>  <name>  (1477) 
P71685

>  <inspiration_score>  (1477) 
None

$$$$
P71686
     RDKit          3D

 13 14  0  0  0  0  0  0  0  0999 V2000
   -1.7943    3.4477  -19.2908 N   0  0  0  0  0  0  0  0  0  0  0  0
   -2.3776    4.4420  -19.4009 C   0  0  0  0  0  0  0  0  0  0  0  0
   -3.1096    5.6787  -19.5878 C   0  0  0  0  0  0  0  0  0  0  0  0
   -4.5619    5.5508  -19.7499 N   0  0  0  0  0  0  0  0  0  0  0  0
   -5.4467    5.2352  -18.7148 C   0  0  0  0  0  0  0  0  0  0  0  0
   -5.2106    5.5055  -17.3652 C   0  0  0  0  0  0  0  0  0  0  0  0
   -6.1277    5.3013  -16.3876 N   0  0  0  0  0  0  0  0  0  0  0  0
   -7.2985    4.7749  -16.8163 C   0  0  0  0  0  0  0  0  0  0  0  0
   -7.5452    4.5002  -18.1514 C   0  0  0  0  0  0  0  0  0  0  0  0
   -8.7465    4.0227  -18.5865 O   0  0  0  0  0  0  0  0  0  0  0  0
   -6.6258    4.7175  -19.1079 N   0  0  0  0  0  0  0  0  0  0  0  0
   -2.5247    6.9423  -18.9910 C   0  0  0  0  0  0  0  0  0  0  0  0
   -2.4183    6.7131  -20.4655 C   0  0  0  0  0  0  0  0  0  0  0  0
  1  2  3  0
  2  3  1  0
  3  4  1  0
  4  5  1  0
  5  6  2  0
  6  7  1  0
  7  8  2  0
  8  9  1  0
  9 10  1  0
  9 11  2  0
  3 12  1  0
 12 13  1  0
 13  3  1  0
 11  5  1  0
M  END
>  <energy_score>  (1478) 
-24.283945

>  <alias>  (1478) 
None

>  <HIPPO Pose ID>  (1478) 
71686

>  <smiles>  (1478) 
N#CC1(Nc2cncc(O)n2)CC1

>  <inchikey>  (1478) 
HSFRPWSCWGSPGW-UHFFFAOYSA-N

>  <distance_score>  (1478) 
0.672122

>  <ref_mols>  (1478) 
Z0875a,Z0089a

>  <ref_pdb>  (1478) 
Z0089a

>  <HIPPO Compound ID>  (1478) 
144491

>  <name>  (1478) 
P71686

>  <inspiration_score>  (1478) 
None

$$$$
P71691
     RDKit          3D

 13 13  0  0  0  0  0  0  0  0999 V2000
   -8.6075    4.2026  -18.7877 C   0  0  0  0  0  0  0  0  0  0  0  0
   -7.3156    4.5866  -18.1381 C   0  0  0  0  0  0  0  0  0  0  0  0
   -7.1559    4.5117  -16.7642 C   0  0  0  0  0  0  0  0  0  0  0  0
   -6.0013    4.8406  -16.1436 N   0  0  0  0  0  0  0  0  0  0  0  0
   -5.0053    5.2510  -16.9633 C   0  0  0  0  0  0  0  0  0  0  0  0
   -5.1267    5.3577  -18.3494 C   0  0  0  0  0  0  0  0  0  0  0  0
   -4.1162    5.8841  -19.1765 N   0  0  0  0  0  0  0  0  0  0  0  0
   -4.5182    6.1933  -20.5169 N   0  0  0  0  0  0  0  0  0  0  0  0
   -2.6823    5.6935  -18.8455 C   0  0  1  0  0  0  0  0  0  0  0  0
   -2.1743    4.3422  -19.3417 C   0  0  0  0  0  0  0  0  0  0  0  0
   -1.8473    6.8511  -19.4329 C   0  0  0  0  0  0  0  0  0  0  0  0
   -1.9422    6.9013  -20.8579 O   0  0  0  0  0  0  0  0  0  0  0  0
   -6.3113    5.0356  -18.9316 N   0  0  0  0  0  0  0  0  0  0  0  0
  1  2  1  0
  2  3  2  0
  3  4  1  0
  4  5  2  0
  5  6  1  0
  6  7  1  0
  7  8  1  0
  7  9  1  0
  9 10  1  6
  9 11  1  0
 11 12  1  0
  6 13  2  0
 13  2  1  0
M  END
>  <energy_score>  (1479) 
-30.933599

>  <alias>  (1479) 
None

>  <HIPPO Pose ID>  (1479) 
71691

>  <smiles>  (1479) 
Cc1cncc(N(N)[C@@H](C)CO)n1

>  <inchikey>  (1479) 
UPKXGSHNYWTJOW-ZETCQYMHSA-N

>  <distance_score>  (1479) 
0.777562

>  <ref_mols>  (1479) 
Z0875a,Z0089a

>  <ref_pdb>  (1479) 
Z0089a

>  <HIPPO Compound ID>  (1479) 
144496

>  <name>  (1479) 
P71691

>  <inspiration_score>  (1479) 
None

$$$$
P71692
     RDKit          3D

 13 13  0  0  0  0  0  0  0  0999 V2000
   -1.9320    4.2765  -19.3383 C   0  0  0  0  0  0  0  0  0  0  0  0
   -2.3961    5.7246  -19.4075 C   0  0  2  0  0  0  0  0  0  0  0  0
   -1.9323    6.5619  -18.2069 C   0  0  0  0  0  0  0  0  0  0  0  0
   -2.8300    7.6289  -17.9006 O   0  0  0  0  0  0  0  0  0  0  0  0
   -3.8436    5.8363  -19.6896 N   0  0  0  0  0  0  0  0  0  0  0  0
   -4.2020    6.3601  -20.9659 N   0  0  0  0  0  0  0  0  0  0  0  0
   -4.8892    5.3506  -18.8999 C   0  0  0  0  0  0  0  0  0  0  0  0
   -4.8136    5.1971  -17.5254 C   0  0  0  0  0  0  0  0  0  0  0  0
   -5.9035    4.8295  -16.8098 N   0  0  0  0  0  0  0  0  0  0  0  0
   -5.7873    4.7309  -15.3563 C   0  0  0  0  0  0  0  0  0  0  0  0
   -7.0759    4.5640  -17.4267 C   0  0  0  0  0  0  0  0  0  0  0  0
   -7.1345    4.6931  -18.7938 C   0  0  0  0  0  0  0  0  0  0  0  0
   -6.0684    5.0969  -19.5118 N   0  0  0  0  0  0  0  0  0  0  0  0
  2  1  1  1
  2  3  1  0
  3  4  1  0
  2  5  1  0
  5  6  1  0
  5  7  1  0
  7  8  2  0
  8  9  1  0
  9 10  1  0
  9 11  2  0
 11 12  1  0
 12 13  2  0
 13  7  1  0
M  CHG  1   9   1
M  END
>  <energy_score>  (1480) 
-9.020737

>  <alias>  (1480) 
None

>  <HIPPO Pose ID>  (1480) 
71692

>  <smiles>  (1480) 
C[C@H](CO)N(N)c1c[n+](C)ccn1

>  <inchikey>  (1480) 
YKCOFIKNGSOWRD-SSDOTTSWSA-N

>  <distance_score>  (1480) 
1.058484

>  <ref_mols>  (1480) 
Z0875a,Z0089a

>  <ref_pdb>  (1480) 
Z0089a

>  <HIPPO Compound ID>  (1480) 
144497

>  <name>  (1480) 
P71692

>  <inspiration_score>  (1480) 
None

$$$$
P71702
     RDKit          3D

 13 13  0  0  0  0  0  0  0  0999 V2000
   -2.1072    4.4637  -18.8135 C   0  0  0  0  0  0  0  0  0  0  0  0
   -2.8512    5.6798  -19.3643 C   0  0  0  0  0  0  0  0  0  0  0  0
   -2.5831    6.9345  -18.5304 C   0  0  0  0  0  0  0  0  0  0  0  0
   -2.3217    5.9430  -20.7281 C   0  0  0  0  0  0  0  0  0  0  0  0
   -1.9997    6.0584  -21.8387 N   0  0  0  0  0  0  0  0  0  0  0  0
   -4.2778    5.4009  -19.4847 N   0  0  0  0  0  0  0  0  0  0  0  0
   -5.2607    5.1650  -18.5775 C   0  0  0  0  0  0  0  0  0  0  0  0
   -5.1535    5.1717  -17.1879 C   0  0  0  0  0  0  0  0  0  0  0  0
   -6.1999    4.9679  -16.3475 N   0  0  0  0  0  0  0  0  0  0  0  0
   -7.3768    4.7033  -16.9599 C   0  0  0  0  0  0  0  0  0  0  0  0
   -7.4892    4.6971  -18.3327 C   0  0  0  0  0  0  0  0  0  0  0  0
   -8.6825    4.5352  -18.9559 O   0  0  0  0  0  0  0  0  0  0  0  0
   -6.4552    4.9341  -19.1541 N   0  0  0  0  0  0  0  0  0  0  0  0
  1  2  1  0
  2  3  1  0
  2  4  1  0
  4  5  3  0
  2  6  1  0
  6  7  1  0
  7  8  2  0
  8  9  1  0
  9 10  2  0
 10 11  1  0
 11 12  1  0
 11 13  2  0
 13  7  1  0
M  END
>  <energy_score>  (1481) 
-41.527214

>  <alias>  (1481) 
None

>  <HIPPO Pose ID>  (1481) 
71702

>  <smiles>  (1481) 
CC(C)(C#N)Nc1cncc(O)n1

>  <inchikey>  (1481) 
UBQIXIPYWLRSBE-UHFFFAOYSA-N

>  <distance_score>  (1481) 
0.710001

>  <ref_mols>  (1481) 
Z0875a,Z0089a

>  <ref_pdb>  (1481) 
Z0089a

>  <HIPPO Compound ID>  (1481) 
144503

>  <name>  (1481) 
P71702

>  <inspiration_score>  (1481) 
None

$$$$
P71705
     RDKit          3D

 13 13  0  0  0  0  0  0  0  0999 V2000
   -8.7848    4.1557  -18.7476 C   0  0  0  0  0  0  0  0  0  0  0  0
   -7.4589    4.5975  -18.2149 C   0  0  0  0  0  0  0  0  0  0  0  0
   -7.2933    4.9188  -16.8780 C   0  0  0  0  0  0  0  0  0  0  0  0
   -6.1095    5.3284  -16.3676 N   0  0  0  0  0  0  0  0  0  0  0  0
   -5.0858    5.3644  -17.2550 C   0  0  0  0  0  0  0  0  0  0  0  0
   -5.2277    5.0785  -18.6079 C   0  0  0  0  0  0  0  0  0  0  0  0
   -4.2526    5.0902  -19.5627 N   0  0  0  0  0  0  0  0  0  0  0  0
   -2.9294    5.7166  -19.5602 C   0  0  2  0  0  0  0  0  0  0  0  0
   -1.9181    4.8953  -18.7544 C   0  0  0  0  0  0  0  0  0  0  0  0
   -2.1189    3.5105  -19.0054 O   0  0  0  0  0  0  0  0  0  0  0  0
   -2.9185    7.1850  -19.1621 C   0  0  0  0  0  0  0  0  0  0  0  0
   -1.6969    7.7176  -19.4397 F   0  0  0  0  0  0  0  0  0  0  0  0
   -6.4244    4.6940  -19.0849 N   0  0  0  0  0  0  0  0  0  0  0  0
  1  2  1  0
  2  3  2  0
  3  4  1  0
  4  5  2  0
  5  6  1  0
  6  7  1  0
  7  8  1  0
  8  9  1  1
  9 10  1  0
  8 11  1  0
 11 12  1  0
  6 13  2  0
 13  2  1  0
M  END
>  <energy_score>  (1482) 
-31.480881

>  <alias>  (1482) 
None

>  <HIPPO Pose ID>  (1482) 
71705

>  <smiles>  (1482) 
Cc1cncc(N[C@H](CO)CF)n1

>  <inchikey>  (1482) 
ZUCYSHCKXQWBHK-ZETCQYMHSA-N

>  <distance_score>  (1482) 
0.839851

>  <ref_mols>  (1482) 
Z0875a,Z0089a

>  <ref_pdb>  (1482) 
Z0089a

>  <HIPPO Compound ID>  (1482) 
144506

>  <name>  (1482) 
P71705

>  <inspiration_score>  (1482) 
None

$$$$
P71710
     RDKit          3D

 13 13  0  0  0  0  0  0  0  0999 V2000
   -1.7154    4.6145  -21.1490 O   0  0  0  0  0  0  0  0  0  0  0  0
   -1.6968    4.4873  -19.7196 C   0  0  0  0  0  0  0  0  0  0  0  0
   -2.7516    5.3681  -19.0206 C   0  0  1  0  0  0  0  0  0  0  0  0
   -2.5620    6.8410  -19.3751 C   0  0  0  0  0  0  0  0  0  0  0  0
   -1.3607    7.2677  -18.8946 F   0  0  0  0  0  0  0  0  0  0  0  0
   -4.0917    4.9110  -19.3645 N   0  0  0  0  0  0  0  0  0  0  0  0
   -5.1886    4.9588  -18.5400 C   0  0  0  0  0  0  0  0  0  0  0  0
   -5.1520    5.0977  -17.1474 C   0  0  0  0  0  0  0  0  0  0  0  0
   -6.2508    5.0753  -16.3518 N   0  0  0  0  0  0  0  0  0  0  0  0
   -7.4091    4.8395  -17.0053 C   0  0  0  0  0  0  0  0  0  0  0  0
   -7.4552    4.7210  -18.3789 C   0  0  0  0  0  0  0  0  0  0  0  0
   -8.6380    4.5866  -19.0315 O   0  0  0  0  0  0  0  0  0  0  0  0
   -6.3696    4.8010  -19.1679 N   0  0  0  0  0  0  0  0  0  0  0  0
  1  2  1  0
  3  2  1  6
  3  4  1  0
  4  5  1  0
  3  6  1  0
  6  7  1  0
  7  8  2  0
  8  9  1  0
  9 10  2  0
 10 11  1  0
 11 12  1  0
 11 13  2  0
 13  7  1  0
M  END
>  <energy_score>  (1483) 
-41.260586

>  <alias>  (1483) 
None

>  <HIPPO Pose ID>  (1483) 
71710

>  <smiles>  (1483) 
OC[C@@H](CF)Nc1cncc(O)n1

>  <inchikey>  (1483) 
LJTHDROLMZZIFM-RXMQYKEDSA-N

>  <distance_score>  (1483) 
0.671281

>  <ref_mols>  (1483) 
Z0875a,Z0089a

>  <ref_pdb>  (1483) 
Z0089a

>  <HIPPO Compound ID>  (1483) 
144508

>  <name>  (1483) 
P71710

>  <inspiration_score>  (1483) 
None

$$$$
P71712
     RDKit          3D

 13 13  0  0  0  0  0  0  0  0999 V2000
   -1.9885    3.4071  -19.0826 O   0  0  0  0  0  0  0  0  0  0  0  0
   -1.7389    4.7786  -19.3736 C   0  0  0  0  0  0  0  0  0  0  0  0
   -2.8122    5.6495  -18.6896 C   0  0  1  0  0  0  0  0  0  0  0  0
   -2.6498    7.1037  -19.1175 C   0  0  0  0  0  0  0  0  0  0  0  0
   -3.5019    7.9016  -18.4167 F   0  0  0  0  0  0  0  0  0  0  0  0
   -4.1049    5.0961  -19.0769 N   0  0  0  0  0  0  0  0  0  0  0  0
   -5.2648    5.0974  -18.3554 C   0  0  0  0  0  0  0  0  0  0  0  0
   -6.3091    4.6967  -19.1095 N   0  0  0  0  0  0  0  0  0  0  0  0
   -7.5027    4.5578  -18.4943 C   0  0  0  0  0  0  0  0  0  0  0  0
   -7.6659    4.8171  -17.1486 C   0  0  0  0  0  0  0  0  0  0  0  0
   -6.6572    5.2634  -16.3680 N   0  0  0  0  0  0  0  0  0  0  0  0
   -5.4672    5.3740  -16.9941 C   0  0  0  0  0  0  0  0  0  0  0  0
   -4.5064    5.7863  -16.1300 O   0  0  0  0  0  0  0  0  0  0  0  0
  1  2  1  0
  3  2  1  6
  3  4  1  0
  4  5  1  0
  3  6  1  0
  6  7  1  0
  7  8  2  0
  8  9  1  0
  9 10  2  0
 10 11  1  0
 11 12  2  0
 12 13  1  0
 12  7  1  0
M  END
>  <energy_score>  (1484) 
-37.497418

>  <alias>  (1484) 
None

>  <HIPPO Pose ID>  (1484) 
71712

>  <smiles>  (1484) 
OC[C@@H](CF)Nc1nccnc1O

>  <inchikey>  (1484) 
UWYZOCWHUPLAKP-RXMQYKEDSA-N

>  <distance_score>  (1484) 
0.920995

>  <ref_mols>  (1484) 
Z0875a,Z0089a

>  <ref_pdb>  (1484) 
Z0089a

>  <HIPPO Compound ID>  (1484) 
144509

>  <name>  (1484) 
P71712

>  <inspiration_score>  (1484) 
None

$$$$
P71714
     RDKit          3D

 13 13  0  0  0  0  0  0  0  0999 V2000
   -8.3152    4.4876  -15.9775 C   0  0  0  0  0  0  0  0  0  0  0  0
   -7.1261    4.7065  -16.8500 C   0  0  0  0  0  0  0  0  0  0  0  0
   -7.2388    4.7506  -18.2317 C   0  0  0  0  0  0  0  0  0  0  0  0
   -6.1681    4.9003  -19.0434 N   0  0  0  0  0  0  0  0  0  0  0  0
   -4.9644    4.9899  -18.4519 C   0  0  0  0  0  0  0  0  0  0  0  0
   -3.9136    4.9832  -19.3335 N   0  0  0  0  0  0  0  0  0  0  0  0
   -2.5599    5.4117  -19.0011 C   0  0  1  0  0  0  0  0  0  0  0  0
   -1.5779    4.4749  -19.7225 C   0  0  0  0  0  0  0  0  0  0  0  0
   -0.2286    4.8959  -19.5695 O   0  0  0  0  0  0  0  0  0  0  0  0
   -2.3294    6.8741  -19.3897 C   0  0  0  0  0  0  0  0  0  0  0  0
   -3.1402    7.6805  -18.6463 F   0  0  0  0  0  0  0  0  0  0  0  0
   -4.8678    4.9871  -17.0631 C   0  0  0  0  0  0  0  0  0  0  0  0
   -5.9323    4.8714  -16.2376 N   0  0  0  0  0  0  0  0  0  0  0  0
  1  2  1  0
  2  3  2  0
  3  4  1  0
  4  5  2  0
  5  6  1  0
  6  7  1  0
  7  8  1  6
  8  9  1  0
  7 10  1  0
 10 11  1  0
  5 12  1  0
 12 13  2  0
 13  2  1  0
M  END
>  <energy_score>  (1485) 
-32.636845

>  <alias>  (1485) 
None

>  <HIPPO Pose ID>  (1485) 
71714

>  <smiles>  (1485) 
Cc1cnc(N[C@@H](CO)CF)cn1

>  <inchikey>  (1485) 
CRBAXMLRMPNDAF-SSDOTTSWSA-N

>  <distance_score>  (1485) 
0.767055

>  <ref_mols>  (1485) 
Z0875a,Z0089a

>  <ref_pdb>  (1485) 
Z0089a

>  <HIPPO Compound ID>  (1485) 
144510

>  <name>  (1485) 
P71714

>  <inspiration_score>  (1485) 
None

$$$$
P71720
     RDKit          3D

 13 13  0  0  0  0  0  0  0  0999 V2000
   -2.0692    4.4992  -18.8772 C   0  0  0  0  0  0  0  0  0  0  0  0
   -2.9445    5.5396  -19.5602 C   0  0  1  0  0  0  0  0  0  0  0  0
   -4.3381    5.1102  -19.5918 N   0  0  0  0  0  0  0  0  0  0  0  0
   -5.2909    5.0295  -18.6192 C   0  0  0  0  0  0  0  0  0  0  0  0
   -5.1242    5.2597  -17.2548 C   0  0  0  0  0  0  0  0  0  0  0  0
   -6.1276    5.1805  -16.3417 N   0  0  0  0  0  0  0  0  0  0  0  0
   -7.3196    4.7986  -16.8494 C   0  0  0  0  0  0  0  0  0  0  0  0
   -7.5013    4.5444  -18.1968 C   0  0  0  0  0  0  0  0  0  0  0  0
   -8.7065    4.1499  -18.7022 O   0  0  0  0  0  0  0  0  0  0  0  0
   -6.4998    4.6585  -19.0872 N   0  0  0  0  0  0  0  0  0  0  0  0
   -2.6681    6.9625  -19.0479 C   0  0  0  0  0  0  0  0  0  0  0  0
   -3.4660    7.8649  -19.6732 F   0  0  0  0  0  0  0  0  0  0  0  0
   -2.8968    7.0833  -17.7194 F   0  0  0  0  0  0  0  0  0  0  0  0
  2  1  1  1
  2  3  1  0
  3  4  1  0
  4  5  2  0
  5  6  1  0
  6  7  2  0
  7  8  1  0
  8  9  1  0
  8 10  2  0
  2 11  1  0
 11 12  1  0
 11 13  1  0
 10  4  1  0
M  END
>  <energy_score>  (1486) 
-14.443873

>  <alias>  (1486) 
None

>  <HIPPO Pose ID>  (1486) 
71720

>  <smiles>  (1486) 
C[C@@H](Nc1cncc(O)n1)C(F)F

>  <inchikey>  (1486) 
KGYATVLCZRTZIE-SCSAIBSYSA-N

>  <distance_score>  (1486) 
0.678525

>  <ref_mols>  (1486) 
Z0875a,Z0089a

>  <ref_pdb>  (1486) 
Z0089a

>  <HIPPO Compound ID>  (1486) 
144513

>  <name>  (1486) 
P71720

>  <inspiration_score>  (1486) 
None

$$$$
P71726
     RDKit          3D

 13 13  0  0  0  0  0  0  0  0999 V2000
   -1.8697    4.5332  -19.0127 C   0  0  0  0  0  0  0  0  0  0  0  0
   -2.8281    5.5559  -19.6044 C   0  0  1  0  0  0  0  0  0  0  0  0
   -4.1772    5.0064  -19.6735 N   0  0  0  0  0  0  0  0  0  0  0  0
   -5.1441    4.9818  -18.7098 C   0  0  0  0  0  0  0  0  0  0  0  0
   -4.9762    5.0660  -17.3280 C   0  0  0  0  0  0  0  0  0  0  0  0
   -6.0032    5.0534  -16.4385 N   0  0  0  0  0  0  0  0  0  0  0  0
   -7.2119    4.8970  -17.0000 C   0  0  0  0  0  0  0  0  0  0  0  0
   -8.2368    4.8790  -16.1175 O   0  0  0  0  0  0  0  0  0  0  0  0
   -7.4116    4.7816  -18.3569 C   0  0  0  0  0  0  0  0  0  0  0  0
   -6.3768    4.8323  -19.2246 N   0  0  0  0  0  0  0  0  0  0  0  0
   -2.6971    6.9450  -18.9663 C   0  0  0  0  0  0  0  0  0  0  0  0
   -1.5129    7.5048  -19.3319 F   0  0  0  0  0  0  0  0  0  0  0  0
   -2.6777    6.8707  -17.6124 F   0  0  0  0  0  0  0  0  0  0  0  0
  2  1  1  1
  2  3  1  0
  3  4  1  0
  4  5  2  0
  5  6  1  0
  6  7  2  0
  7  8  1  0
  7  9  1  0
  9 10  2  0
  2 11  1  0
 11 12  1  0
 11 13  1  0
 10  4  1  0
M  END
>  <energy_score>  (1487) 
-49.570017

>  <alias>  (1487) 
None

>  <HIPPO Pose ID>  (1487) 
71726

>  <smiles>  (1487) 
C[C@@H](Nc1cnc(O)cn1)C(F)F

>  <inchikey>  (1487) 
WSJJLUNWEMTUAV-SCSAIBSYSA-N

>  <distance_score>  (1487) 
0.743129

>  <ref_mols>  (1487) 
Z0875a,Z0089a

>  <ref_pdb>  (1487) 
Z0089a

>  <HIPPO Compound ID>  (1487) 
144516

>  <name>  (1487) 
P71726

>  <inspiration_score>  (1487) 
None

$$$$
P71728
     RDKit          3D

 13 13  0  0  0  0  0  0  0  0999 V2000
   -4.2626    6.1118  -16.1398 C   0  0  0  0  0  0  0  0  0  0  0  0
   -5.2970    5.4760  -17.0095 C   0  0  0  0  0  0  0  0  0  0  0  0
   -6.4048    5.0733  -16.3278 N   0  0  0  0  0  0  0  0  0  0  0  0
   -7.4138    4.5659  -17.0626 C   0  0  0  0  0  0  0  0  0  0  0  0
   -7.3339    4.4644  -18.4305 C   0  0  0  0  0  0  0  0  0  0  0  0
   -6.2296    4.8346  -19.1088 N   0  0  0  0  0  0  0  0  0  0  0  0
   -5.1989    5.3458  -18.4049 C   0  0  0  0  0  0  0  0  0  0  0  0
   -4.2010    5.7656  -19.2428 N   0  0  0  0  0  0  0  0  0  0  0  0
   -2.7595    5.6873  -19.0147 C   0  0  1  0  0  0  0  0  0  0  0  0
   -2.2710    4.2465  -19.0381 C   0  0  0  0  0  0  0  0  0  0  0  0
   -2.0105    6.4544  -20.1214 C   0  0  0  0  0  0  0  0  0  0  0  0
   -2.3328    5.9311  -21.3447 F   0  0  0  0  0  0  0  0  0  0  0  0
   -2.3776    7.7603  -20.1458 F   0  0  0  0  0  0  0  0  0  0  0  0
  1  2  1  0
  2  3  2  0
  3  4  1  0
  4  5  2  0
  5  6  1  0
  6  7  2  0
  7  8  1  0
  8  9  1  0
  9 10  1  6
  9 11  1  0
 11 12  1  0
 11 13  1  0
  7  2  1  0
M  END
>  <energy_score>  (1488) 
-15.448533

>  <alias>  (1488) 
None

>  <HIPPO Pose ID>  (1488) 
71728

>  <smiles>  (1488) 
Cc1nccnc1N[C@@H](C)C(F)F

>  <inchikey>  (1488) 
DWKWQYFSBODGSO-YFKPBYRVSA-N

>  <distance_score>  (1488) 
1.059158

>  <ref_mols>  (1488) 
Z0875a,Z0089a

>  <ref_pdb>  (1488) 
Z0089a

>  <HIPPO Compound ID>  (1488) 
144517

>  <name>  (1488) 
P71728

>  <inspiration_score>  (1488) 
None

$$$$
P71732
     RDKit          3D

 13 13  0  0  0  0  0  0  0  0999 V2000
   -1.8624    4.4871  -19.2447 C   0  0  0  0  0  0  0  0  0  0  0  0
   -2.7684    5.6206  -19.7115 C   0  0  1  0  0  0  0  0  0  0  0  0
   -4.1471    5.1441  -19.8238 N   0  0  0  0  0  0  0  0  0  0  0  0
   -5.1343    4.9844  -18.9056 C   0  0  0  0  0  0  0  0  0  0  0  0
   -4.9991    4.9865  -17.5322 C   0  0  0  0  0  0  0  0  0  0  0  0
   -6.0855    4.8198  -16.7412 N   0  0  0  0  0  0  0  0  0  0  0  0
   -5.9073    4.8317  -15.2913 C   0  0  0  0  0  0  0  0  0  0  0  0
   -7.3058    4.6109  -17.2873 C   0  0  0  0  0  0  0  0  0  0  0  0
   -7.4110    4.5886  -18.6591 C   0  0  0  0  0  0  0  0  0  0  0  0
   -6.3384    4.7728  -19.4501 N   0  0  0  0  0  0  0  0  0  0  0  0
   -2.5586    6.8988  -18.8895 C   0  0  0  0  0  0  0  0  0  0  0  0
   -3.4633    7.8465  -19.2433 F   0  0  0  0  0  0  0  0  0  0  0  0
   -1.3325    7.4185  -19.1420 F   0  0  0  0  0  0  0  0  0  0  0  0
  2  1  1  1
  2  3  1  0
  3  4  1  0
  4  5  2  0
  5  6  1  0
  6  7  1  0
  6  8  2  0
  8  9  1  0
  9 10  2  0
  2 11  1  0
 11 12  1  0
 11 13  1  0
 10  4  1  0
M  CHG  1   6   1
M  END
>  <energy_score>  (1489) 
-23.453657

>  <alias>  (1489) 
None

>  <HIPPO Pose ID>  (1489) 
71732

>  <smiles>  (1489) 
C[C@@H](Nc1c[n+](C)ccn1)C(F)F

>  <inchikey>  (1489) 
YZPFNAXNBOKDOR-ZCFIWIBFSA-N

>  <distance_score>  (1489) 
0.731985

>  <ref_mols>  (1489) 
Z0875a,Z0089a

>  <ref_pdb>  (1489) 
Z0089a

>  <HIPPO Compound ID>  (1489) 
144519

>  <name>  (1489) 
P71732

>  <inspiration_score>  (1489) 
None

$$$$
P71734
     RDKit          3D

 13 13  0  0  0  0  0  0  0  0999 V2000
   -0.5510    6.2198  -21.6842 C   0  0  0  0  0  0  0  0  0  0  0  0
   -1.7035    5.9560  -21.0570 C   0  0  0  0  0  0  0  0  0  0  0  0
   -1.8620    4.9104  -19.9737 C   0  0  0  0  0  0  0  0  0  0  0  0
   -2.7321    5.3834  -18.7887 C   0  0  1  0  0  0  0  0  0  0  0  0
   -2.1835    6.6984  -18.2235 C   0  0  0  0  0  0  0  0  0  0  0  0
   -4.1192    5.5762  -19.2093 N   0  0  0  0  0  0  0  0  0  0  0  0
   -5.1658    5.2521  -18.3617 C   0  0  0  0  0  0  0  0  0  0  0  0
   -5.1435    5.3808  -16.9737 C   0  0  0  0  0  0  0  0  0  0  0  0
   -6.1993    5.1127  -16.1726 N   0  0  0  0  0  0  0  0  0  0  0  0
   -7.3099    4.7005  -16.8208 C   0  0  0  0  0  0  0  0  0  0  0  0
   -7.3671    4.5664  -18.1999 C   0  0  0  0  0  0  0  0  0  0  0  0
   -8.6407    4.1554  -18.8686 C   0  0  0  0  0  0  0  0  0  0  0  0
   -6.2902    4.8473  -18.9787 N   0  0  0  0  0  0  0  0  0  0  0  0
  1  2  2  0
  2  3  1  0
  3  4  1  0
  4  5  1  6
  4  6  1  0
  6  7  1  0
  7  8  2  0
  8  9  1  0
  9 10  2  0
 10 11  1  0
 11 12  1  0
 11 13  2  0
 13  7  1  0
M  END
>  <energy_score>  (1490) 
-30.808824

>  <alias>  (1490) 
None

>  <HIPPO Pose ID>  (1490) 
71734

>  <smiles>  (1490) 
C=CC[C@@H](C)Nc1cncc(C)n1

>  <inchikey>  (1490) 
GDXLXTPXSQSUAG-MRVPVSSYSA-N

>  <distance_score>  (1490) 
0.782303

>  <ref_mols>  (1490) 
Z0875a,Z0089a

>  <ref_pdb>  (1490) 
Z0089a

>  <HIPPO Compound ID>  (1490) 
144520

>  <name>  (1490) 
P71734

>  <inspiration_score>  (1490) 
None

$$$$
P71736
     RDKit          3D

 13 13  0  0  0  0  0  0  0  0999 V2000
   -1.9187    6.7570  -21.7184 C   0  0  0  0  0  0  0  0  0  0  0  0
   -1.2669    5.6985  -21.2197 C   0  0  0  0  0  0  0  0  0  0  0  0
   -1.6140    4.8340  -20.0280 C   0  0  0  0  0  0  0  0  0  0  0  0
   -2.6038    5.3482  -18.9635 C   0  0  1  0  0  0  0  0  0  0  0  0
   -2.1583    6.6900  -18.3777 C   0  0  0  0  0  0  0  0  0  0  0  0
   -3.9635    5.4576  -19.4834 N   0  0  0  0  0  0  0  0  0  0  0  0
   -5.0775    5.1198  -18.7558 C   0  0  0  0  0  0  0  0  0  0  0  0
   -5.1662    5.1933  -17.3771 C   0  0  0  0  0  0  0  0  0  0  0  0
   -6.3253    4.8923  -16.7526 N   0  0  0  0  0  0  0  0  0  0  0  0
   -6.3584    4.9247  -15.2941 C   0  0  0  0  0  0  0  0  0  0  0  0
   -7.4141    4.5345  -17.4699 C   0  0  0  0  0  0  0  0  0  0  0  0
   -7.2996    4.4716  -18.8422 C   0  0  0  0  0  0  0  0  0  0  0  0
   -6.1422    4.7485  -19.4753 N   0  0  0  0  0  0  0  0  0  0  0  0
  1  2  2  0
  2  3  1  0
  3  4  1  0
  4  5  1  6
  4  6  1  0
  6  7  1  0
  7  8  2  0
  8  9  1  0
  9 10  1  0
  9 11  2  0
 11 12  1  0
 12 13  2  0
 13  7  1  0
M  CHG  1   9   1
M  END
>  <energy_score>  (1491) 
-18.130819

>  <alias>  (1491) 
None

>  <HIPPO Pose ID>  (1491) 
71736

>  <smiles>  (1491) 
C=CC[C@@H](C)Nc1c[n+](C)ccn1

>  <inchikey>  (1491) 
PCXUDCZWZBMFPS-SECBINFHSA-N

>  <distance_score>  (1491) 
1.100364

>  <ref_mols>  (1491) 
Z0875a,Z0089a

>  <ref_pdb>  (1491) 
Z0089a

>  <HIPPO Compound ID>  (1491) 
144521

>  <name>  (1491) 
P71736

>  <inspiration_score>  (1491) 
None

$$$$
P71737
     RDKit          3D

 13 13  0  0  0  0  0  0  0  0999 V2000
    0.1930    5.8806  -18.1186 C   0  0  0  0  0  0  0  0  0  0  0  0
   -0.5418    5.3160  -19.0856 C   0  0  0  0  0  0  0  0  0  0  0  0
   -1.9405    4.7863  -18.8976 C   0  0  0  0  0  0  0  0  0  0  0  0
   -2.9982    5.6466  -19.6105 C   0  0  2  0  0  0  0  0  0  0  0  0
   -3.0446    7.0949  -19.1317 C   0  0  0  0  0  0  0  0  0  0  0  0
   -4.3022    5.0024  -19.6080 N   0  0  0  0  0  0  0  0  0  0  0  0
   -5.2640    4.9751  -18.6331 C   0  0  0  0  0  0  0  0  0  0  0  0
   -5.0809    5.2444  -17.2773 C   0  0  0  0  0  0  0  0  0  0  0  0
   -6.0790    5.2209  -16.3569 N   0  0  0  0  0  0  0  0  0  0  0  0
   -7.2815    4.8420  -16.8448 C   0  0  0  0  0  0  0  0  0  0  0  0
   -7.4790    4.5472  -18.1826 C   0  0  0  0  0  0  0  0  0  0  0  0
   -8.6943    4.1584  -18.6675 O   0  0  0  0  0  0  0  0  0  0  0  0
   -6.4828    4.6163  -19.0836 N   0  0  0  0  0  0  0  0  0  0  0  0
  1  2  2  0
  2  3  1  0
  3  4  1  0
  4  5  1  1
  4  6  1  0
  6  7  1  0
  7  8  2  0
  8  9  1  0
  9 10  2  0
 10 11  1  0
 11 12  1  0
 11 13  2  0
 13  7  1  0
M  END
>  <energy_score>  (1492) 
-33.368312

>  <alias>  (1492) 
None

>  <HIPPO Pose ID>  (1492) 
71737

>  <smiles>  (1492) 
C=CC[C@H](C)Nc1cncc(O)n1

>  <inchikey>  (1492) 
WHXKMLOOPZHVOQ-ZETCQYMHSA-N

>  <distance_score>  (1492) 
0.721257

>  <ref_mols>  (1492) 
Z0875a,Z0089a

>  <ref_pdb>  (1492) 
Z0089a

>  <HIPPO Compound ID>  (1492) 
144522

>  <name>  (1492) 
P71737

>  <inspiration_score>  (1492) 
None

$$$$
P71740
     RDKit          3D

 13 13  0  0  0  0  0  0  0  0999 V2000
   -0.5486    6.1536  -21.4705 C   0  0  0  0  0  0  0  0  0  0  0  0
   -1.7302    5.9125  -20.8904 C   0  0  0  0  0  0  0  0  0  0  0  0
   -1.9417    4.9220  -19.7636 C   0  0  0  0  0  0  0  0  0  0  0  0
   -2.8248    5.4776  -18.6155 C   0  0  1  0  0  0  0  0  0  0  0  0
   -2.2346    6.7908  -18.0947 C   0  0  0  0  0  0  0  0  0  0  0  0
   -4.1804    5.7217  -19.1031 N   0  0  0  0  0  0  0  0  0  0  0  0
   -5.2805    5.3177  -18.3680 C   0  0  0  0  0  0  0  0  0  0  0  0
   -6.2565    4.8099  -19.1479 N   0  0  0  0  0  0  0  0  0  0  0  0
   -7.4207    4.4835  -18.5457 C   0  0  0  0  0  0  0  0  0  0  0  0
   -7.6130    4.6381  -17.1869 C   0  0  0  0  0  0  0  0  0  0  0  0
   -6.6587    5.1395  -16.3716 N   0  0  0  0  0  0  0  0  0  0  0  0
   -5.5027    5.4590  -16.9879 C   0  0  0  0  0  0  0  0  0  0  0  0
   -4.6094    5.9632  -16.1010 O   0  0  0  0  0  0  0  0  0  0  0  0
  1  2  2  0
  2  3  1  0
  3  4  1  0
  4  5  1  6
  4  6  1  0
  6  7  1  0
  7  8  2  0
  8  9  1  0
  9 10  2  0
 10 11  1  0
 11 12  2  0
 12 13  1  0
 12  7  1  0
M  END
>  <energy_score>  (1493) 
-113.90772

>  <alias>  (1493) 
None

>  <HIPPO Pose ID>  (1493) 
71740

>  <smiles>  (1493) 
C=CC[C@@H](C)Nc1nccnc1O

>  <inchikey>  (1493) 
FLACUYIJGZNKGT-SSDOTTSWSA-N

>  <distance_score>  (1493) 
0.954784

>  <ref_mols>  (1493) 
Z0875a,Z0089a

>  <ref_pdb>  (1493) 
Z0089a

>  <HIPPO Compound ID>  (1493) 
144523

>  <name>  (1493) 
P71740

>  <inspiration_score>  (1493) 
None

$$$$
P71746
     RDKit          3D

 13 13  0  0  0  0  0  0  0  0999 V2000
    0.7668    5.7742  -18.6912 C   0  0  0  0  0  0  0  0  0  0  0  0
   -0.2952    5.9035  -19.4955 C   0  0  0  0  0  0  0  0  0  0  0  0
   -1.5287    5.0374  -19.4471 C   0  0  0  0  0  0  0  0  0  0  0  0
   -2.7413    5.7087  -18.7511 C   0  0  1  0  0  0  0  0  0  0  0  0
   -3.0638    7.0741  -19.3541 C   0  0  0  0  0  0  0  0  0  0  0  0
   -3.8801    4.8164  -18.8943 N   0  0  0  0  0  0  0  0  0  0  0  0
   -5.1001    4.9580  -18.2767 C   0  0  0  0  0  0  0  0  0  0  0  0
   -6.0937    4.5998  -19.1186 N   0  0  0  0  0  0  0  0  0  0  0  0
   -7.3467    4.5543  -18.6237 C   0  0  0  0  0  0  0  0  0  0  0  0
   -7.6219    4.8813  -17.3178 C   0  0  0  0  0  0  0  0  0  0  0  0
   -6.6668    5.3149  -16.4704 N   0  0  0  0  0  0  0  0  0  0  0  0
   -5.3899    5.3165  -16.9491 C   0  0  0  0  0  0  0  0  0  0  0  0
   -4.3677    5.7048  -15.9305 C   0  0  0  0  0  0  0  0  0  0  0  0
  1  2  2  0
  2  3  1  0
  3  4  1  0
  4  5  1  6
  4  6  1  0
  6  7  1  0
  7  8  2  0
  8  9  1  0
  9 10  2  0
 10 11  1  0
 11 12  2  0
 12 13  1  0
 12  7  1  0
M  END
>  <energy_score>  (1494) 
-18.769434

>  <alias>  (1494) 
None

>  <HIPPO Pose ID>  (1494) 
71746

>  <smiles>  (1494) 
C=CC[C@@H](C)Nc1nccnc1C

>  <inchikey>  (1494) 
TWYLESGCUJOWOE-MRVPVSSYSA-N

>  <distance_score>  (1494) 
1.098823

>  <ref_mols>  (1494) 
Z0875a,Z0089a

>  <ref_pdb>  (1494) 
Z0089a

>  <HIPPO Compound ID>  (1494) 
144526

>  <name>  (1494) 
P71746

>  <inspiration_score>  (1494) 
None

$$$$
P71747
     RDKit          3D

 13 13  0  0  0  0  0  0  0  0999 V2000
   -1.7157    3.7575  -19.5714 C   0  0  0  0  0  0  0  0  0  0  0  0
   -1.6444    5.2690  -19.4018 C   0  0  0  0  0  0  0  0  0  0  0  0
   -1.1313    5.6390  -18.0085 C   0  0  0  0  0  0  0  0  0  0  0  0
   -2.9367    5.9947  -19.8526 C   0  0  2  0  0  0  0  0  0  0  0  0
   -3.1714    7.3654  -19.2331 C   0  0  0  0  0  0  0  0  0  0  0  0
   -4.1288    5.1512  -19.8647 N   0  0  0  0  0  0  0  0  0  0  0  0
   -5.0892    5.0163  -18.9044 C   0  0  0  0  0  0  0  0  0  0  0  0
   -4.8829    5.0255  -17.5413 C   0  0  0  0  0  0  0  0  0  0  0  0
   -5.9228    4.8304  -16.6982 N   0  0  0  0  0  0  0  0  0  0  0  0
   -5.6745    4.8473  -15.2593 C   0  0  0  0  0  0  0  0  0  0  0  0
   -7.1669    4.6091  -17.1824 C   0  0  0  0  0  0  0  0  0  0  0  0
   -7.3446    4.6017  -18.5480 C   0  0  0  0  0  0  0  0  0  0  0  0
   -6.3169    4.7953  -19.3936 N   0  0  0  0  0  0  0  0  0  0  0  0
  1  2  1  0
  2  3  1  0
  2  4  1  0
  4  5  1  1
  4  6  1  0
  6  7  1  0
  7  8  2  0
  8  9  1  0
  9 10  1  0
  9 11  2  0
 11 12  1  0
 12 13  2  0
 13  7  1  0
M  CHG  1   9   1
M  END
>  <energy_score>  (1495) 
-33.913625

>  <alias>  (1495) 
None

>  <HIPPO Pose ID>  (1495) 
71747

>  <smiles>  (1495) 
CC(C)[C@H](C)Nc1c[n+](C)ccn1

>  <inchikey>  (1495) 
RGMHMWKUOHPKJV-VIFPVBQESA-N

>  <distance_score>  (1495) 
0.925324

>  <ref_mols>  (1495) 
Z0875a,Z0089a

>  <ref_pdb>  (1495) 
Z0089a

>  <HIPPO Compound ID>  (1495) 
144527

>  <name>  (1495) 
P71747

>  <inspiration_score>  (1495) 
None

$$$$
P71749
     RDKit          3D

 13 13  0  0  0  0  0  0  0  0999 V2000
   -0.4398    5.7160  -19.3001 C   0  0  0  0  0  0  0  0  0  0  0  0
   -1.7861    5.0319  -19.0299 C   0  0  0  0  0  0  0  0  0  0  0  0
   -1.7381    3.6051  -19.5600 C   0  0  0  0  0  0  0  0  0  0  0  0
   -2.9606    5.8246  -19.6485 C   0  0  2  0  0  0  0  0  0  0  0  0
   -3.1039    7.2371  -19.0906 C   0  0  0  0  0  0  0  0  0  0  0  0
   -4.2137    5.0804  -19.6297 N   0  0  0  0  0  0  0  0  0  0  0  0
   -5.1335    4.9887  -18.6152 C   0  0  0  0  0  0  0  0  0  0  0  0
   -4.8695    5.1177  -17.2531 C   0  0  0  0  0  0  0  0  0  0  0  0
   -5.8143    5.0094  -16.2867 N   0  0  0  0  0  0  0  0  0  0  0  0
   -7.0532    4.7140  -16.7411 C   0  0  0  0  0  0  0  0  0  0  0  0
   -7.3311    4.5637  -18.0885 C   0  0  0  0  0  0  0  0  0  0  0  0
   -8.5788    4.2461  -18.5426 O   0  0  0  0  0  0  0  0  0  0  0  0
   -6.3835    4.7029  -19.0326 N   0  0  0  0  0  0  0  0  0  0  0  0
  1  2  1  0
  2  3  1  0
  2  4  1  0
  4  5  1  1
  4  6  1  0
  6  7  1  0
  7  8  2  0
  8  9  1  0
  9 10  2  0
 10 11  1  0
 11 12  1  0
 11 13  2  0
 13  7  1  0
M  END
>  <energy_score>  (1496) 
-30.572125

>  <alias>  (1496) 
None

>  <HIPPO Pose ID>  (1496) 
71749

>  <smiles>  (1496) 
CC(C)[C@H](C)Nc1cncc(O)n1

>  <inchikey>  (1496) 
LZMKDOUXQYWSCY-ZETCQYMHSA-N

>  <distance_score>  (1496) 
0.782598

>  <ref_mols>  (1496) 
Z0875a,Z0089a

>  <ref_pdb>  (1496) 
Z0089a

>  <HIPPO Compound ID>  (1496) 
144528

>  <name>  (1496) 
P71749

>  <inspiration_score>  (1496) 
None

$$$$
P71754
     RDKit          3D

 13 13  0  0  0  0  0  0  0  0999 V2000
   -8.5005    4.6345  -16.1819 C   0  0  0  0  0  0  0  0  0  0  0  0
   -7.3050    4.9144  -17.0314 C   0  0  0  0  0  0  0  0  0  0  0  0
   -7.2444    4.4943  -18.3532 C   0  0  0  0  0  0  0  0  0  0  0  0
   -6.1492    4.6709  -19.1289 N   0  0  0  0  0  0  0  0  0  0  0  0
   -5.1017    5.2908  -18.5627 C   0  0  0  0  0  0  0  0  0  0  0  0
   -4.0372    5.5151  -19.4118 N   0  0  0  0  0  0  0  0  0  0  0  0
   -2.6604    5.4679  -18.9408 C   0  0  1  0  0  0  0  0  0  0  0  0
   -1.9816    4.1876  -19.4234 C   0  0  0  0  0  0  0  0  0  0  0  0
   -1.9046    6.7382  -19.4074 C   0  0  0  0  0  0  0  0  0  0  0  0
   -2.4927    8.0066  -18.7786 C   0  0  0  0  0  0  0  0  0  0  0  0
   -1.8407    6.8963  -20.9304 C   0  0  0  0  0  0  0  0  0  0  0  0
   -5.1769    5.7242  -17.2395 C   0  0  0  0  0  0  0  0  0  0  0  0
   -6.2623    5.5511  -16.4478 N   0  0  0  0  0  0  0  0  0  0  0  0
  1  2  1  0
  2  3  2  0
  3  4  1  0
  4  5  2  0
  5  6  1  0
  6  7  1  0
  7  8  1  6
  7  9  1  0
  9 10  1  0
  9 11  1  0
  5 12  1  0
 12 13  2  0
 13  2  1  0
M  END
>  <energy_score>  (1497) 
-31.986995

>  <alias>  (1497) 
None

>  <HIPPO Pose ID>  (1497) 
71754

>  <smiles>  (1497) 
Cc1cnc(N[C@@H](C)C(C)C)cn1

>  <inchikey>  (1497) 
COYJBMCUPUQULN-VIFPVBQESA-N

>  <distance_score>  (1497) 
0.686373

>  <ref_mols>  (1497) 
Z0875a,Z0089a

>  <ref_pdb>  (1497) 
Z0089a

>  <HIPPO Compound ID>  (1497) 
144530

>  <name>  (1497) 
P71754

>  <inspiration_score>  (1497) 
None

$$$$
P71760
     RDKit          3D

 13 13  0  0  0  0  0  0  0  0999 V2000
   -8.6701    4.1564  -18.8230 C   0  0  0  0  0  0  0  0  0  0  0  0
   -7.3690    4.5504  -18.1992 C   0  0  0  0  0  0  0  0  0  0  0  0
   -7.2727    4.7496  -16.8310 C   0  0  0  0  0  0  0  0  0  0  0  0
   -6.1298    5.1441  -16.2292 N   0  0  0  0  0  0  0  0  0  0  0  0
   -5.0790    5.3169  -17.0650 C   0  0  0  0  0  0  0  0  0  0  0  0
   -5.1397    5.1206  -18.4430 C   0  0  0  0  0  0  0  0  0  0  0  0
   -4.1121    5.3249  -19.3250 N   0  0  0  0  0  0  0  0  0  0  0  0
   -2.7063    5.4719  -18.9951 C   0  0  1  0  0  0  0  0  0  0  0  0
   -1.9647    4.2144  -19.4475 C   0  0  0  0  0  0  0  0  0  0  0  0
   -2.1722    6.7659  -19.6612 C   0  0  0  0  0  0  0  0  0  0  0  0
   -2.8859    8.0088  -19.1096 C   0  0  0  0  0  0  0  0  0  0  0  0
   -0.6609    6.9426  -19.4785 C   0  0  0  0  0  0  0  0  0  0  0  0
   -6.2993    4.7414  -19.0121 N   0  0  0  0  0  0  0  0  0  0  0  0
  1  2  1  0
  2  3  2  0
  3  4  1  0
  4  5  2  0
  5  6  1  0
  6  7  1  0
  7  8  1  0
  8  9  1  6
  8 10  1  0
 10 11  1  0
 10 12  1  0
  6 13  2  0
 13  2  1  0
M  END
>  <energy_score>  (1498) 
-26.039665

>  <alias>  (1498) 
None

>  <HIPPO Pose ID>  (1498) 
71760

>  <smiles>  (1498) 
Cc1cncc(N[C@@H](C)C(C)C)n1

>  <inchikey>  (1498) 
SWYMNLAFBIZNOV-VIFPVBQESA-N

>  <distance_score>  (1498) 
0.807877

>  <ref_mols>  (1498) 
Z0875a,Z0089a

>  <ref_pdb>  (1498) 
Z0089a

>  <HIPPO Compound ID>  (1498) 
144533

>  <name>  (1498) 
P71760

>  <inspiration_score>  (1498) 
None

$$$$
P71762
     RDKit          3D

 13 13  0  0  0  0  0  0  0  0999 V2000
    0.4337    6.1241  -17.9807 C   0  0  0  0  0  0  0  0  0  0  0  0
   -0.0308    6.0808  -19.7257 S   0  0  0  0  0  0  0  0  0  0  0  0
   -1.5341    5.0310  -19.6356 C   0  0  0  0  0  0  0  0  0  0  0  0
   -2.7654    5.6943  -18.9730 C   0  0  1  0  0  0  0  0  0  0  0  0
   -3.0497    7.1018  -19.4954 C   0  0  0  0  0  0  0  0  0  0  0  0
   -3.9348    4.8485  -19.2109 N   0  0  0  0  0  0  0  0  0  0  0  0
   -5.0417    4.8991  -18.3800 C   0  0  0  0  0  0  0  0  0  0  0  0
   -5.0043    5.1101  -17.0028 C   0  0  0  0  0  0  0  0  0  0  0  0
   -6.1010    5.1007  -16.2109 N   0  0  0  0  0  0  0  0  0  0  0  0
   -7.2552    4.8030  -16.8455 C   0  0  0  0  0  0  0  0  0  0  0  0
   -7.3223    4.5648  -18.2096 C   0  0  0  0  0  0  0  0  0  0  0  0
   -8.6240    4.2077  -18.8546 C   0  0  0  0  0  0  0  0  0  0  0  0
   -6.2137    4.6382  -18.9893 N   0  0  0  0  0  0  0  0  0  0  0  0
  1  2  1  0
  2  3  1  0
  3  4  1  0
  4  5  1  6
  4  6  1  0
  6  7  1  0
  7  8  2  0
  8  9  1  0
  9 10  2  0
 10 11  1  0
 11 12  1  0
 11 13  2  0
 13  7  1  0
M  END
>  <energy_score>  (1499) 
-41.447111

>  <alias>  (1499) 
None

>  <HIPPO Pose ID>  (1499) 
71762

>  <smiles>  (1499) 
CSC[C@@H](C)Nc1cncc(C)n1

>  <inchikey>  (1499) 
SLVJSJNOCHBPDS-MRVPVSSYSA-N

>  <distance_score>  (1499) 
0.800604

>  <ref_mols>  (1499) 
Z0875a,Z0089a

>  <ref_pdb>  (1499) 
Z0089a

>  <HIPPO Compound ID>  (1499) 
144534

>  <name>  (1499) 
P71762

>  <inspiration_score>  (1499) 
None

$$$$
P71763
     RDKit          3D

 13 13  0  0  0  0  0  0  0  0999 V2000
   -1.5339    3.4326  -19.6530 C   0  0  0  0  0  0  0  0  0  0  0  0
   -0.6349    4.9555  -19.3007 S   0  0  0  0  0  0  0  0  0  0  0  0
   -1.9847    5.9111  -18.6063 C   0  0  0  0  0  0  0  0  0  0  0  0
   -3.1115    6.2118  -19.6028 C   0  0  2  0  0  0  0  0  0  0  0  0
   -3.7301    7.5693  -19.2995 C   0  0  0  0  0  0  0  0  0  0  0  0
   -4.1206    5.1471  -19.7069 N   0  0  0  0  0  0  0  0  0  0  0  0
   -5.1900    4.9974  -18.8532 C   0  0  0  0  0  0  0  0  0  0  0  0
   -5.1490    5.0990  -17.4754 C   0  0  0  0  0  0  0  0  0  0  0  0
   -6.2697    4.8991  -16.7452 N   0  0  0  0  0  0  0  0  0  0  0  0
   -6.1760    4.9702  -15.2887 C   0  0  0  0  0  0  0  0  0  0  0  0
   -7.4365    4.5871  -17.3545 C   0  0  0  0  0  0  0  0  0  0  0  0
   -7.4473    4.4816  -18.7286 C   0  0  0  0  0  0  0  0  0  0  0  0
   -6.3342    4.6693  -19.4637 N   0  0  0  0  0  0  0  0  0  0  0  0
  1  2  1  0
  2  3  1  0
  3  4  1  0
  4  5  1  1
  4  6  1  0
  6  7  1  0
  7  8  2  0
  8  9  1  0
  9 10  1  0
  9 11  2  0
 11 12  1  0
 12 13  2  0
 13  7  1  0
M  CHG  1   9   1
M  END
>  <energy_score>  (1500) 
-22.837944

>  <alias>  (1500) 
None

>  <HIPPO Pose ID>  (1500) 
71763

>  <smiles>  (1500) 
CSC[C@H](C)Nc1c[n+](C)ccn1

>  <inchikey>  (1500) 
NSCNMHZCEOPMOF-QMMMGPOBSA-N

>  <distance_score>  (1500) 
1.021149

>  <ref_mols>  (1500) 
Z0875a,Z0089a

>  <ref_pdb>  (1500) 
Z0089a

>  <HIPPO Compound ID>  (1500) 
144535

>  <name>  (1500) 
P71763

>  <inspiration_score>  (1500) 
None

$$$$
P71765
     RDKit          3D

 13 13  0  0  0  0  0  0  0  0999 V2000
   -1.5447    3.4424  -19.6418 C   0  0  0  0  0  0  0  0  0  0  0  0
   -0.6326    4.9678  -19.3228 S   0  0  0  0  0  0  0  0  0  0  0  0
   -1.9459    5.8808  -18.4989 C   0  0  0  0  0  0  0  0  0  0  0  0
   -3.1242    6.2196  -19.4200 C   0  0  2  0  0  0  0  0  0  0  0  0
   -3.7257    7.5647  -19.0374 C   0  0  0  0  0  0  0  0  0  0  0  0
   -4.1273    5.1528  -19.5289 N   0  0  0  0  0  0  0  0  0  0  0  0
   -5.1667    5.0313  -18.6185 C   0  0  0  0  0  0  0  0  0  0  0  0
   -5.0392    4.9909  -17.2286 C   0  0  0  0  0  0  0  0  0  0  0  0
   -6.0853    4.8382  -16.3813 N   0  0  0  0  0  0  0  0  0  0  0  0
   -7.2825    4.6697  -16.9871 C   0  0  0  0  0  0  0  0  0  0  0  0
   -7.4114    4.7142  -18.3595 C   0  0  0  0  0  0  0  0  0  0  0  0
   -8.6212    4.6264  -18.9655 O   0  0  0  0  0  0  0  0  0  0  0  0
   -6.3769    4.9111  -19.1921 N   0  0  0  0  0  0  0  0  0  0  0  0
  1  2  1  0
  2  3  1  0
  3  4  1  0
  4  5  1  1
  4  6  1  0
  6  7  1  0
  7  8  2  0
  8  9  1  0
  9 10  2  0
 10 11  1  0
 11 12  1  0
 11 13  2  0
 13  7  1  0
M  END
>  <energy_score>  (1501) 
-59.957667

>  <alias>  (1501) 
None

>  <HIPPO Pose ID>  (1501) 
71765

>  <smiles>  (1501) 
CSC[C@H](C)Nc1cncc(O)n1

>  <inchikey>  (1501) 
ROSZVRJRKWZXOV-LURJTMIESA-N

>  <distance_score>  (1501) 
1.023073

>  <ref_mols>  (1501) 
Z0875a,Z0089a

>  <ref_pdb>  (1501) 
Z0089a

>  <HIPPO Compound ID>  (1501) 
144536

>  <name>  (1501) 
P71765

>  <inspiration_score>  (1501) 
None

$$$$
P71774
     RDKit          3D

 13 13  0  0  0  0  0  0  0  0999 V2000
   -1.5459    3.2375  -19.6304 C   0  0  0  0  0  0  0  0  0  0  0  0
   -0.9490    4.9294  -19.6048 S   0  0  0  0  0  0  0  0  0  0  0  0
   -2.5532    5.6883  -19.8877 C   0  0  0  0  0  0  0  0  0  0  0  0
   -3.1858    6.1481  -18.5730 C   0  0  1  0  0  0  0  0  0  0  0  0
   -2.4622    7.4024  -18.0775 C   0  0  0  0  0  0  0  0  0  0  0  0
   -4.5845    6.5063  -18.8188 N   0  0  0  0  0  0  0  0  0  0  0  0
   -5.5466    5.7401  -18.1690 C   0  0  0  0  0  0  0  0  0  0  0  0
   -6.3705    5.1217  -19.0356 N   0  0  0  0  0  0  0  0  0  0  0  0
   -7.4403    4.4894  -18.5123 C   0  0  0  0  0  0  0  0  0  0  0  0
   -7.6728    4.4499  -17.1553 C   0  0  0  0  0  0  0  0  0  0  0  0
   -6.8463    5.0394  -16.2662 N   0  0  0  0  0  0  0  0  0  0  0  0
   -5.7686    5.6839  -16.7818 C   0  0  0  0  0  0  0  0  0  0  0  0
   -4.9267    6.3940  -15.7698 C   0  0  0  0  0  0  0  0  0  0  0  0
  1  2  1  0
  2  3  1  0
  3  4  1  0
  4  5  1  6
  4  6  1  0
  6  7  1  0
  7  8  2  0
  8  9  1  0
  9 10  2  0
 10 11  1  0
 11 12  2  0
 12 13  1  0
 12  7  1  0
M  END
>  <energy_score>  (1502) 
-172.108109

>  <alias>  (1502) 
None

>  <HIPPO Pose ID>  (1502) 
71774

>  <smiles>  (1502) 
CSC[C@@H](C)Nc1nccnc1C

>  <inchikey>  (1502) 
PCUKJQVCKHEZBL-SSDOTTSWSA-N

>  <distance_score>  (1502) 
1.152084

>  <ref_mols>  (1502) 
Z0875a,Z0089a

>  <ref_pdb>  (1502) 
Z0089a

>  <HIPPO Compound ID>  (1502) 
144540

>  <name>  (1502) 
P71774

>  <inspiration_score>  (1502) 
None

$$$$
P71776
     RDKit          3D

 13 13  0  0  0  0  0  0  0  0999 V2000
   -1.8875    4.3754  -19.0545 C   0  0  0  0  0  0  0  0  0  0  0  0
   -2.3841    5.8004  -19.3128 C   0  0  0  0  0  0  0  0  0  0  0  0
   -2.0622    6.7714  -18.1711 C   0  0  0  0  0  0  0  0  0  0  0  0
   -1.5593    6.3247  -20.5243 C   0  0  0  0  0  0  0  0  0  0  0  0
   -3.8412    5.7839  -19.6171 N   0  0  0  0  0  0  0  0  0  0  0  0
   -4.2809    6.3631  -20.8594 N   0  0  0  0  0  0  0  0  0  0  0  0
   -4.8864    5.3863  -18.7654 C   0  0  0  0  0  0  0  0  0  0  0  0
   -4.7750    5.0805  -17.4052 C   0  0  0  0  0  0  0  0  0  0  0  0
   -5.8246    4.8224  -16.5713 N   0  0  0  0  0  0  0  0  0  0  0  0
   -7.0203    4.8178  -17.1752 C   0  0  0  0  0  0  0  0  0  0  0  0
   -8.0721    4.5964  -16.3524 O   0  0  0  0  0  0  0  0  0  0  0  0
   -7.1832    5.0507  -18.5180 C   0  0  0  0  0  0  0  0  0  0  0  0
   -6.1312    5.3582  -19.3129 N   0  0  0  0  0  0  0  0  0  0  0  0
  1  2  1  0
  2  3  1  0
  2  4  1  0
  2  5  1  0
  5  6  1  0
  5  7  1  0
  7  8  2  0
  8  9  1  0
  9 10  2  0
 10 11  1  0
 10 12  1  0
 12 13  2  0
 13  7  1  0
M  END
>  <energy_score>  (1503) 
-36.999713

>  <alias>  (1503) 
None

>  <HIPPO Pose ID>  (1503) 
71776

>  <smiles>  (1503) 
CC(C)(C)N(N)c1cnc(O)cn1

>  <inchikey>  (1503) 
MQFNJZQKSFAEJF-UHFFFAOYSA-N

>  <distance_score>  (1503) 
0.866405

>  <ref_mols>  (1503) 
Z0875a,Z0089a

>  <ref_pdb>  (1503) 
Z0089a

>  <HIPPO Compound ID>  (1503) 
144542

>  <name>  (1503) 
P71776

>  <inspiration_score>  (1503) 
None

$$$$
P71778
     RDKit          3D

 13 13  0  0  0  0  0  0  0  0999 V2000
   -8.6925    4.1007  -18.8621 C   0  0  0  0  0  0  0  0  0  0  0  0
   -7.4152    4.5780  -18.2454 C   0  0  0  0  0  0  0  0  0  0  0  0
   -7.3844    4.9617  -16.9131 C   0  0  0  0  0  0  0  0  0  0  0  0
   -6.2870    5.4897  -16.3290 N   0  0  0  0  0  0  0  0  0  0  0  0
   -5.2068    5.5862  -17.1415 C   0  0  0  0  0  0  0  0  0  0  0  0
   -5.1944    5.1835  -18.4772 C   0  0  0  0  0  0  0  0  0  0  0  0
   -4.1355    5.3339  -19.3452 N   0  0  0  0  0  0  0  0  0  0  0  0
   -2.7386    5.3653  -18.9353 C   0  0  1  0  0  0  0  0  0  0  0  0
   -2.0209    4.0837  -19.3401 C   0  0  0  0  0  0  0  0  0  0  0  0
   -2.0817    6.6261  -19.5220 C   0  0  0  0  0  0  0  0  0  0  0  0
   -1.7230    6.5508  -21.0054 C   0  0  0  0  0  0  0  0  0  0  0  0
   -2.7970    6.0556  -21.7970 O   0  0  0  0  0  0  0  0  0  0  0  0
   -6.3130    4.6813  -19.0331 N   0  0  0  0  0  0  0  0  0  0  0  0
  1  2  1  0
  2  3  2  0
  3  4  1  0
  4  5  2  0
  5  6  1  0
  6  7  1  0
  7  8  1  0
  8  9  1  6
  8 10  1  0
 10 11  1  0
 11 12  1  0
  6 13  2  0
 13  2  1  0
M  END
>  <energy_score>  (1504) 
-20.467425

>  <alias>  (1504) 
None

>  <HIPPO Pose ID>  (1504) 
71778

>  <smiles>  (1504) 
Cc1cncc(N[C@@H](C)CCO)n1

>  <inchikey>  (1504) 
ZGUQWKDUYLXGGN-ZETCQYMHSA-N

>  <distance_score>  (1504) 
0.687435

>  <ref_mols>  (1504) 
Z0875a,Z0089a

>  <ref_pdb>  (1504) 
Z0089a

>  <HIPPO Compound ID>  (1504) 
144543

>  <name>  (1504) 
P71778

>  <inspiration_score>  (1504) 
None

$$$$
P71779
     RDKit          3D

 13 13  0  0  0  0  0  0  0  0999 V2000
   -1.9996    4.4462  -18.9185 C   0  0  0  0  0  0  0  0  0  0  0  0
   -2.7051    5.5551  -19.6798 C   0  0  2  0  0  0  0  0  0  0  0  0
   -2.2951    6.9887  -19.3068 C   0  0  0  0  0  0  0  0  0  0  0  0
   -2.7637    7.5579  -17.9773 C   0  0  0  0  0  0  0  0  0  0  0  0
   -2.3154    6.7805  -16.8765 O   0  0  0  0  0  0  0  0  0  0  0  0
   -4.1414    5.3735  -19.8016 N   0  0  0  0  0  0  0  0  0  0  0  0
   -5.1151    5.0754  -18.9032 C   0  0  0  0  0  0  0  0  0  0  0  0
   -4.9973    5.0602  -17.5297 C   0  0  0  0  0  0  0  0  0  0  0  0
   -6.0769    4.8215  -16.7516 N   0  0  0  0  0  0  0  0  0  0  0  0
   -5.9013    4.8323  -15.3023 C   0  0  0  0  0  0  0  0  0  0  0  0
   -7.2795    4.5604  -17.3104 C   0  0  0  0  0  0  0  0  0  0  0  0
   -7.3703    4.5542  -18.6843 C   0  0  0  0  0  0  0  0  0  0  0  0
   -6.3025    4.8079  -19.4643 N   0  0  0  0  0  0  0  0  0  0  0  0
  2  1  1  1
  2  3  1  0
  3  4  1  0
  4  5  1  0
  2  6  1  0
  6  7  1  0
  7  8  2  0
  8  9  1  0
  9 10  1  0
  9 11  2  0
 11 12  1  0
 12 13  2  0
 13  7  1  0
M  CHG  1   9   1
M  END
>  <energy_score>  (1505) 
-24.142666

>  <alias>  (1505) 
None

>  <HIPPO Pose ID>  (1505) 
71779

>  <smiles>  (1505) 
C[C@H](CCO)Nc1c[n+](C)ccn1

>  <inchikey>  (1505) 
VNCHLUNKXHQKHF-MRVPVSSYSA-N

>  <distance_score>  (1505) 
0.735337

>  <ref_mols>  (1505) 
Z0875a,Z0089a

>  <ref_pdb>  (1505) 
Z0089a

>  <HIPPO Compound ID>  (1505) 
144544

>  <name>  (1505) 
P71779

>  <inspiration_score>  (1505) 
None

$$$$
P71782
     RDKit          3D

 13 13  0  0  0  0  0  0  0  0999 V2000
   -1.7755    4.3983  -19.5714 C   0  0  0  0  0  0  0  0  0  0  0  0
   -2.7442    5.3545  -18.8762 C   0  0  1  0  0  0  0  0  0  0  0  0
   -2.4762    6.8252  -19.2327 C   0  0  0  0  0  0  0  0  0  0  0  0
   -1.1420    7.3499  -18.7170 C   0  0  0  0  0  0  0  0  0  0  0  0
   -1.0868    7.2704  -17.2999 O   0  0  0  0  0  0  0  0  0  0  0  0
   -4.0975    5.0138  -19.2800 N   0  0  0  0  0  0  0  0  0  0  0  0
   -5.2061    4.9974  -18.4722 C   0  0  0  0  0  0  0  0  0  0  0  0
   -5.1973    5.1081  -17.0771 C   0  0  0  0  0  0  0  0  0  0  0  0
   -6.3112    5.0510  -16.3038 N   0  0  0  0  0  0  0  0  0  0  0  0
   -7.4521    4.8068  -16.9836 C   0  0  0  0  0  0  0  0  0  0  0  0
   -7.4705    4.7145  -18.3600 C   0  0  0  0  0  0  0  0  0  0  0  0
   -8.6392    4.5750  -19.0372 O   0  0  0  0  0  0  0  0  0  0  0  0
   -6.3732    4.8312  -19.1276 N   0  0  0  0  0  0  0  0  0  0  0  0
  2  1  1  6
  2  3  1  0
  3  4  1  0
  4  5  1  0
  2  6  1  0
  6  7  1  0
  7  8  2  0
  8  9  1  0
  9 10  2  0
 10 11  1  0
 11 12  1  0
 11 13  2  0
 13  7  1  0
M  END
>  <energy_score>  (1506) 
-42.203833

>  <alias>  (1506) 
None

>  <HIPPO Pose ID>  (1506) 
71782

>  <smiles>  (1506) 
C[C@@H](CCO)Nc1cncc(O)n1

>  <inchikey>  (1506) 
MOEKAONPPCIARD-LURJTMIESA-N

>  <distance_score>  (1506) 
0.668874

>  <ref_mols>  (1506) 
Z0875a,Z0089a

>  <ref_pdb>  (1506) 
Z0089a

>  <HIPPO Compound ID>  (1506) 
144545

>  <name>  (1506) 
P71782

>  <inspiration_score>  (1506) 
None

$$$$
P71786
     RDKit          3D

 13 13  0  0  0  0  0  0  0  0999 V2000
   -8.4769    4.6138  -16.1466 C   0  0  0  0  0  0  0  0  0  0  0  0
   -7.2881    4.9076  -17.0009 C   0  0  0  0  0  0  0  0  0  0  0  0
   -7.2398    4.5111  -18.3304 C   0  0  0  0  0  0  0  0  0  0  0  0
   -6.1595    4.7220  -19.1177 N   0  0  0  0  0  0  0  0  0  0  0  0
   -5.1161    5.3525  -18.5566 C   0  0  0  0  0  0  0  0  0  0  0  0
   -4.0805    5.6428  -19.4230 N   0  0  0  0  0  0  0  0  0  0  0  0
   -2.6917    5.5301  -19.0064 C   0  0  1  0  0  0  0  0  0  0  0  0
   -2.1472    4.1291  -19.2544 C   0  0  0  0  0  0  0  0  0  0  0  0
   -1.8621    6.6175  -19.7090 C   0  0  0  0  0  0  0  0  0  0  0  0
   -2.0037    6.6986  -21.2279 C   0  0  0  0  0  0  0  0  0  0  0  0
   -1.7196    5.4637  -21.8754 O   0  0  0  0  0  0  0  0  0  0  0  0
   -5.1728    5.7496  -17.2217 C   0  0  0  0  0  0  0  0  0  0  0  0
   -6.2427    5.5417  -16.4174 N   0  0  0  0  0  0  0  0  0  0  0  0
  1  2  1  0
  2  3  2  0
  3  4  1  0
  4  5  2  0
  5  6  1  0
  6  7  1  0
  7  8  1  6
  7  9  1  0
  9 10  1  0
 10 11  1  0
  5 12  1  0
 12 13  2  0
 13  2  1  0
M  END
>  <energy_score>  (1507) 
-21.172451

>  <alias>  (1507) 
None

>  <HIPPO Pose ID>  (1507) 
71786

>  <smiles>  (1507) 
Cc1cnc(N[C@@H](C)CCO)cn1

>  <inchikey>  (1507) 
UPSFVYKVYFDGIX-ZETCQYMHSA-N

>  <distance_score>  (1507) 
0.734992

>  <ref_mols>  (1507) 
Z0875a,Z0089a

>  <ref_pdb>  (1507) 
Z0089a

>  <HIPPO Compound ID>  (1507) 
144547

>  <name>  (1507) 
P71786

>  <inspiration_score>  (1507) 
None

$$$$
P71788
     RDKit          3D

 13 13  0  0  0  0  0  0  0  0999 V2000
   -2.0932    4.1098  -19.2932 C   0  0  0  0  0  0  0  0  0  0  0  0
   -2.5814    5.5219  -19.0012 C   0  0  1  0  0  0  0  0  0  0  0  0
   -1.7589    6.6003  -19.7252 C   0  0  0  0  0  0  0  0  0  0  0  0
   -1.9444    6.6964  -21.2378 C   0  0  0  0  0  0  0  0  0  0  0  0
   -1.7040    5.4608  -21.9002 O   0  0  0  0  0  0  0  0  0  0  0  0
   -3.9852    5.6807  -19.3343 N   0  0  0  0  0  0  0  0  0  0  0  0
   -5.0044    5.2852  -18.4992 C   0  0  0  0  0  0  0  0  0  0  0  0
   -4.9637    5.3079  -17.1031 C   0  0  0  0  0  0  0  0  0  0  0  0
   -6.0115    4.9779  -16.3108 N   0  0  0  0  0  0  0  0  0  0  0  0
   -7.1210    4.6454  -16.9885 C   0  0  0  0  0  0  0  0  0  0  0  0
   -8.1746    4.3245  -16.2051 O   0  0  0  0  0  0  0  0  0  0  0  0
   -7.2020    4.6290  -18.3644 C   0  0  0  0  0  0  0  0  0  0  0  0
   -6.1363    4.9391  -19.1364 N   0  0  0  0  0  0  0  0  0  0  0  0
  2  1  1  6
  2  3  1  0
  3  4  1  0
  4  5  1  0
  2  6  1  0
  6  7  1  0
  7  8  2  0
  8  9  1  0
  9 10  2  0
 10 11  1  0
 10 12  1  0
 12 13  2  0
 13  7  1  0
M  END
>  <energy_score>  (1508) 
-42.781729

>  <alias>  (1508) 
None

>  <HIPPO Pose ID>  (1508) 
71788

>  <smiles>  (1508) 
C[C@@H](CCO)Nc1cnc(O)cn1

>  <inchikey>  (1508) 
DOVPTMROKLFZAP-LURJTMIESA-N

>  <distance_score>  (1508) 
0.73375

>  <ref_mols>  (1508) 
Z0875a,Z0089a

>  <ref_pdb>  (1508) 
Z0089a

>  <HIPPO Compound ID>  (1508) 
144548

>  <name>  (1508) 
P71788

>  <inspiration_score>  (1508) 
None

$$$$
P71790
     RDKit          3D

 13 13  0  0  0  0  0  0  0  0999 V2000
   -4.5644    6.2758  -16.0528 C   0  0  0  0  0  0  0  0  0  0  0  0
   -5.4884    5.5792  -17.0008 C   0  0  0  0  0  0  0  0  0  0  0  0
   -6.6911    5.2532  -16.4492 N   0  0  0  0  0  0  0  0  0  0  0  0
   -7.5919    4.6761  -17.2707 C   0  0  0  0  0  0  0  0  0  0  0  0
   -7.3198    4.4373  -18.5973 C   0  0  0  0  0  0  0  0  0  0  0  0
   -6.1230    4.7325  -19.1458 N   0  0  0  0  0  0  0  0  0  0  0  0
   -5.1993    5.3122  -18.3518 C   0  0  0  0  0  0  0  0  0  0  0  0
   -4.0855    5.6753  -19.0779 N   0  0  0  0  0  0  0  0  0  0  0  0
   -2.7199    5.4730  -18.6205 C   0  0  1  0  0  0  0  0  0  0  0  0
   -2.0785    4.2785  -19.3213 C   0  0  0  0  0  0  0  0  0  0  0  0
   -1.9358    6.7723  -18.8614 C   0  0  0  0  0  0  0  0  0  0  0  0
   -1.7837    7.1654  -20.3264 C   0  0  0  0  0  0  0  0  0  0  0  0
   -1.0800    8.3998  -20.4204 O   0  0  0  0  0  0  0  0  0  0  0  0
  1  2  1  0
  2  3  2  0
  3  4  1  0
  4  5  2  0
  5  6  1  0
  6  7  2  0
  7  8  1  0
  8  9  1  0
  9 10  1  6
  9 11  1  0
 11 12  1  0
 12 13  1  0
  7  2  1  0
M  END
>  <energy_score>  (1509) 
-18.367713

>  <alias>  (1509) 
None

>  <HIPPO Pose ID>  (1509) 
71790

>  <smiles>  (1509) 
Cc1nccnc1N[C@@H](C)CCO

>  <inchikey>  (1509) 
LFLJZGJHJPHEDH-ZETCQYMHSA-N

>  <distance_score>  (1509) 
1.094519

>  <ref_mols>  (1509) 
Z0875a,Z0089a

>  <ref_pdb>  (1509) 
Z0089a

>  <HIPPO Compound ID>  (1509) 
144549

>  <name>  (1509) 
P71790

>  <inspiration_score>  (1509) 
None

$$$$
P71791
     RDKit          3D

 13 13  0  0  0  0  0  0  0  0999 V2000
   -8.5630    4.1801  -18.8746 C   0  0  0  0  0  0  0  0  0  0  0  0
   -7.2694    4.6169  -18.2591 C   0  0  0  0  0  0  0  0  0  0  0  0
   -7.1200    4.6493  -16.8846 C   0  0  0  0  0  0  0  0  0  0  0  0
   -5.9851    5.0690  -16.2877 N   0  0  0  0  0  0  0  0  0  0  0  0
   -4.9948    5.4556  -17.1351 C   0  0  0  0  0  0  0  0  0  0  0  0
   -5.0972    5.4602  -18.5257 C   0  0  0  0  0  0  0  0  0  0  0  0
   -4.1405    6.0336  -19.3899 N   0  0  0  0  0  0  0  0  0  0  0  0
   -4.6794    6.4148  -20.6700 N   0  0  0  0  0  0  0  0  0  0  0  0
   -2.6533    5.8967  -19.2554 C   0  0  0  0  0  0  0  0  0  0  0  0
   -2.2287    4.4232  -19.2656 C   0  0  0  0  0  0  0  0  0  0  0  0
   -2.1188    6.6076  -18.0077 C   0  0  0  0  0  0  0  0  0  0  0  0
   -1.9387    6.5975  -20.4455 C   0  0  0  0  0  0  0  0  0  0  0  0
   -6.2687    5.0344  -19.0788 N   0  0  0  0  0  0  0  0  0  0  0  0
  1  2  1  0
  2  3  2  0
  3  4  1  0
  4  5  2  0
  5  6  1  0
  6  7  1  0
  7  8  1  0
  7  9  1  0
  9 10  1  0
  9 11  1  0
  9 12  1  0
  6 13  2  0
 13  2  1  0
M  END
>  <energy_score>  (1510) 
-31.174176

>  <alias>  (1510) 
None

>  <HIPPO Pose ID>  (1510) 
71791

>  <smiles>  (1510) 
Cc1cncc(N(N)C(C)(C)C)n1

>  <inchikey>  (1510) 
DTNMAIZIEIVAJF-UHFFFAOYSA-N

>  <distance_score>  (1510) 
0.808415

>  <ref_mols>  (1510) 
Z0875a,Z0089a

>  <ref_pdb>  (1510) 
Z0089a

>  <HIPPO Compound ID>  (1510) 
144550

>  <name>  (1510) 
P71791

>  <inspiration_score>  (1510) 
None

$$$$
P71795
     RDKit          3D

 13 13  0  0  0  0  0  0  0  0999 V2000
   -8.7461    4.0998  -18.8690 C   0  0  0  0  0  0  0  0  0  0  0  0
   -7.4745    4.5644  -18.2324 C   0  0  0  0  0  0  0  0  0  0  0  0
   -7.4532    4.9181  -16.8919 C   0  0  0  0  0  0  0  0  0  0  0  0
   -6.3564    5.4211  -16.2864 N   0  0  0  0  0  0  0  0  0  0  0  0
   -5.2691    5.5319  -17.0867 C   0  0  0  0  0  0  0  0  0  0  0  0
   -5.2500    5.1624  -18.4318 C   0  0  0  0  0  0  0  0  0  0  0  0
   -4.1814    5.2908  -19.2850 N   0  0  0  0  0  0  0  0  0  0  0  0
   -2.7938    5.4415  -18.8833 C   0  0  1  0  0  0  0  0  0  0  0  0
   -1.9798    4.2704  -19.4324 C   0  0  0  0  0  0  0  0  0  0  0  0
   -2.2373    6.7681  -19.4189 C   0  0  0  0  0  0  0  0  0  0  0  0
   -2.7883    7.9183  -18.6891 C   0  0  0  0  0  0  0  0  0  0  0  0
   -3.1957    8.8352  -18.1053 N   0  0  0  0  0  0  0  0  0  0  0  0
   -6.3653    4.6778  -19.0083 N   0  0  0  0  0  0  0  0  0  0  0  0
  1  2  1  0
  2  3  2  0
  3  4  1  0
  4  5  2  0
  5  6  1  0
  6  7  1  0
  7  8  1  0
  8  9  1  6
  8 10  1  0
 10 11  1  0
 11 12  3  0
  6 13  2  0
 13  2  1  0
M  END
>  <energy_score>  (1511) 
-37.27752

>  <alias>  (1511) 
None

>  <HIPPO Pose ID>  (1511) 
71795

>  <smiles>  (1511) 
Cc1cncc(N[C@@H](C)CC#N)n1

>  <inchikey>  (1511) 
GZCRBGBSKKQKAY-ZETCQYMHSA-N

>  <distance_score>  (1511) 
0.69246

>  <ref_mols>  (1511) 
Z0875a,Z0089a

>  <ref_pdb>  (1511) 
Z0089a

>  <HIPPO Compound ID>  (1511) 
144553

>  <name>  (1511) 
P71795

>  <inspiration_score>  (1511) 
None

$$$$
P71798
     RDKit          3D

 13 13  0  0  0  0  0  0  0  0999 V2000
   -2.0729    4.5396  -18.9933 C   0  0  0  0  0  0  0  0  0  0  0  0
   -3.0036    5.5949  -19.5853 C   0  0  2  0  0  0  0  0  0  0  0  0
   -2.7994    6.9680  -18.9378 C   0  0  0  0  0  0  0  0  0  0  0  0
   -3.5963    8.0193  -19.5873 C   0  0  0  0  0  0  0  0  0  0  0  0
   -4.1974    8.8843  -20.0761 N   0  0  0  0  0  0  0  0  0  0  0  0
   -4.3713    5.1096  -19.5982 N   0  0  0  0  0  0  0  0  0  0  0  0
   -5.3130    4.9904  -18.6173 C   0  0  0  0  0  0  0  0  0  0  0  0
   -5.1243    5.1883  -17.2504 C   0  0  0  0  0  0  0  0  0  0  0  0
   -6.1168    5.1188  -16.3277 N   0  0  0  0  0  0  0  0  0  0  0  0
   -7.3222    4.7655  -16.8277 C   0  0  0  0  0  0  0  0  0  0  0  0
   -7.5228    4.5292  -18.1761 C   0  0  0  0  0  0  0  0  0  0  0  0
   -8.7374    4.1555  -18.6732 O   0  0  0  0  0  0  0  0  0  0  0  0
   -6.5297    4.6417  -19.0761 N   0  0  0  0  0  0  0  0  0  0  0  0
  2  1  1  1
  2  3  1  0
  3  4  1  0
  4  5  3  0
  2  6  1  0
  6  7  1  0
  7  8  2  0
  8  9  1  0
  9 10  2  0
 10 11  1  0
 11 12  1  0
 11 13  2  0
 13  7  1  0
M  END
>  <energy_score>  (1512) 
-29.017699

>  <alias>  (1512) 
None

>  <HIPPO Pose ID>  (1512) 
71798

>  <smiles>  (1512) 
C[C@H](CC#N)Nc1cncc(O)n1

>  <inchikey>  (1512) 
MDECUNKKVISVOK-ZCFIWIBFSA-N

>  <distance_score>  (1512) 
0.692456

>  <ref_mols>  (1512) 
Z0875a,Z0089a

>  <ref_pdb>  (1512) 
Z0089a

>  <HIPPO Compound ID>  (1512) 
144555

>  <name>  (1512) 
P71798

>  <inspiration_score>  (1512) 
None

$$$$
P71805
     RDKit          3D

 13 13  0  0  0  0  0  0  0  0999 V2000
   -2.0058    4.1281  -19.3418 C   0  0  0  0  0  0  0  0  0  0  0  0
   -2.5900    5.4961  -18.9992 C   0  0  1  0  0  0  0  0  0  0  0  0
   -1.8379    6.6459  -19.6882 C   0  0  0  0  0  0  0  0  0  0  0  0
   -1.8716    6.4978  -21.1468 C   0  0  0  0  0  0  0  0  0  0  0  0
   -1.9458    6.2838  -22.2855 N   0  0  0  0  0  0  0  0  0  0  0  0
   -4.0010    5.5586  -19.3564 N   0  0  0  0  0  0  0  0  0  0  0  0
   -5.0109    5.2708  -18.4683 C   0  0  0  0  0  0  0  0  0  0  0  0
   -4.9751    5.5329  -17.0994 C   0  0  0  0  0  0  0  0  0  0  0  0
   -6.0111    5.3066  -16.2644 N   0  0  0  0  0  0  0  0  0  0  0  0
   -7.1088    4.8040  -16.8501 C   0  0  0  0  0  0  0  0  0  0  0  0
   -8.1505    4.5972  -16.0037 O   0  0  0  0  0  0  0  0  0  0  0  0
   -7.1759    4.5541  -18.2098 C   0  0  0  0  0  0  0  0  0  0  0  0
   -6.1250    4.7755  -19.0329 N   0  0  0  0  0  0  0  0  0  0  0  0
  2  1  1  6
  2  3  1  0
  3  4  1  0
  4  5  3  0
  2  6  1  0
  6  7  1  0
  7  8  2  0
  8  9  1  0
  9 10  2  0
 10 11  1  0
 10 12  1  0
 12 13  2  0
 13  7  1  0
M  END
>  <energy_score>  (1513) 
-29.617375

>  <alias>  (1513) 
None

>  <HIPPO Pose ID>  (1513) 
71805

>  <smiles>  (1513) 
C[C@@H](CC#N)Nc1cnc(O)cn1

>  <inchikey>  (1513) 
SPOGCOGGAKVQJS-LURJTMIESA-N

>  <distance_score>  (1513) 
0.709418

>  <ref_mols>  (1513) 
Z0875a,Z0089a

>  <ref_pdb>  (1513) 
Z0089a

>  <HIPPO Compound ID>  (1513) 
144558

>  <name>  (1513) 
P71805

>  <inspiration_score>  (1513) 
None

$$$$
P71807
     RDKit          3D

 13 13  0  0  0  0  0  0  0  0999 V2000
   -4.5862    6.2763  -16.0116 C   0  0  0  0  0  0  0  0  0  0  0  0
   -5.4881    5.5835  -16.9827 C   0  0  0  0  0  0  0  0  0  0  0  0
   -6.6791    5.2010  -16.4425 N   0  0  0  0  0  0  0  0  0  0  0  0
   -7.5660    4.6317  -17.2838 C   0  0  0  0  0  0  0  0  0  0  0  0
   -7.2895    4.4484  -18.6182 C   0  0  0  0  0  0  0  0  0  0  0  0
   -6.1039    4.8006  -19.1578 N   0  0  0  0  0  0  0  0  0  0  0  0
   -5.1976    5.3805  -18.3443 C   0  0  0  0  0  0  0  0  0  0  0  0
   -4.1050    5.8178  -19.0641 N   0  0  0  0  0  0  0  0  0  0  0  0
   -2.7237    5.5941  -18.6520 C   0  0  1  0  0  0  0  0  0  0  0  0
   -2.2094    4.2756  -19.2286 C   0  0  0  0  0  0  0  0  0  0  0  0
   -1.8584    6.7488  -19.1844 C   0  0  0  0  0  0  0  0  0  0  0  0
   -2.0943    7.9950  -18.4429 C   0  0  0  0  0  0  0  0  0  0  0  0
   -2.2437    8.9842  -17.8538 N   0  0  0  0  0  0  0  0  0  0  0  0
  1  2  1  0
  2  3  2  0
  3  4  1  0
  4  5  2  0
  5  6  1  0
  6  7  2  0
  7  8  1  0
  8  9  1  0
  9 10  1  6
  9 11  1  0
 11 12  1  0
 12 13  3  0
  7  2  1  0
M  END
>  <energy_score>  (1514) 
-14.361772

>  <alias>  (1514) 
None

>  <HIPPO Pose ID>  (1514) 
71807

>  <smiles>  (1514) 
Cc1nccnc1N[C@@H](C)CC#N

>  <inchikey>  (1514) 
BKADPMDJOXGPNA-ZETCQYMHSA-N

>  <distance_score>  (1514) 
1.105027

>  <ref_mols>  (1514) 
Z0875a,Z0089a

>  <ref_pdb>  (1514) 
Z0089a

>  <HIPPO Compound ID>  (1514) 
144559

>  <name>  (1514) 
P71807

>  <inspiration_score>  (1514) 
None

$$$$
P71813
     RDKit          3D

 13 13  0  0  0  0  0  0  0  0999 V2000
   -1.0539    5.8040  -20.8228 C   0  0  0  0  0  0  0  0  0  0  0  0
   -1.6304    4.8380  -19.7890 C   0  0  0  0  0  0  0  0  0  0  0  0
   -2.6259    5.4544  -18.7796 C   0  0  1  0  0  0  0  0  0  0  0  0
   -2.2310    6.8585  -18.3261 C   0  0  0  0  0  0  0  0  0  0  0  0
   -3.9988    5.4575  -19.3174 N   0  0  0  0  0  0  0  0  0  0  0  0
   -4.2596    6.0660  -20.5769 N   0  0  0  0  0  0  0  0  0  0  0  0
   -5.1260    5.1873  -18.5169 C   0  0  0  0  0  0  0  0  0  0  0  0
   -5.0858    5.1127  -17.1168 C   0  0  0  0  0  0  0  0  0  0  0  0
   -6.1671    4.8800  -16.3287 N   0  0  0  0  0  0  0  0  0  0  0  0
   -7.3203    4.6692  -16.9995 C   0  0  0  0  0  0  0  0  0  0  0  0
   -7.3831    4.7501  -18.3739 C   0  0  0  0  0  0  0  0  0  0  0  0
   -8.5623    4.6052  -19.0312 O   0  0  0  0  0  0  0  0  0  0  0  0
   -6.3215    5.0327  -19.1487 N   0  0  0  0  0  0  0  0  0  0  0  0
  1  2  1  0
  2  3  1  0
  3  4  1  6
  3  5  1  0
  5  6  1  0
  5  7  1  0
  7  8  2  0
  8  9  1  0
  9 10  2  0
 10 11  1  0
 11 12  1  0
 11 13  2  0
 13  7  1  0
M  END
>  <energy_score>  (1515) 
-53.647995

>  <alias>  (1515) 
None

>  <HIPPO Pose ID>  (1515) 
71813

>  <smiles>  (1515) 
CC[C@@H](C)N(N)c1cncc(O)n1

>  <inchikey>  (1515) 
OAQALXJPZDTWQU-ZCFIWIBFSA-N

>  <distance_score>  (1515) 
0.735569

>  <ref_mols>  (1515) 
Z0875a,Z0089a

>  <ref_pdb>  (1515) 
Z0089a

>  <HIPPO Compound ID>  (1515) 
144562

>  <name>  (1515) 
P71813

>  <inspiration_score>  (1515) 
None

$$$$
P71815
     RDKit          3D

 13 13  0  0  0  0  0  0  0  0999 V2000
    0.0995    5.3827  -18.9717 C   0  0  0  0  0  0  0  0  0  0  0  0
   -1.2886    4.9693  -19.4524 C   0  0  0  0  0  0  0  0  0  0  0  0
   -2.4243    5.6584  -18.6652 C   0  0  1  0  0  0  0  0  0  0  0  0
   -2.2502    7.1770  -18.5788 C   0  0  0  0  0  0  0  0  0  0  0  0
   -3.7209    5.3475  -19.2883 N   0  0  0  0  0  0  0  0  0  0  0  0
   -3.9320    5.7666  -20.6397 N   0  0  0  0  0  0  0  0  0  0  0  0
   -4.8916    5.1759  -18.5232 C   0  0  0  0  0  0  0  0  0  0  0  0
   -4.9584    5.3303  -17.1356 C   0  0  0  0  0  0  0  0  0  0  0  0
   -6.0935    5.2031  -16.4012 N   0  0  0  0  0  0  0  0  0  0  0  0
   -7.2008    4.8520  -17.0947 C   0  0  0  0  0  0  0  0  0  0  0  0
   -8.4468    4.6116  -16.3076 C   0  0  0  0  0  0  0  0  0  0  0  0
   -7.1612    4.6917  -18.4710 C   0  0  0  0  0  0  0  0  0  0  0  0
   -6.0296    4.8701  -19.1950 N   0  0  0  0  0  0  0  0  0  0  0  0
  1  2  1  0
  2  3  1  0
  3  4  1  6
  3  5  1  0
  5  6  1  0
  5  7  1  0
  7  8  2  0
  8  9  1  0
  9 10  2  0
 10 11  1  0
 10 12  1  0
 12 13  2  0
 13  7  1  0
M  END
>  <energy_score>  (1516) 
-20.767337

>  <alias>  (1516) 
None

>  <HIPPO Pose ID>  (1516) 
71815

>  <smiles>  (1516) 
CC[C@@H](C)N(N)c1cnc(C)cn1

>  <inchikey>  (1516) 
QIXLVXQNAZNUNE-MRVPVSSYSA-N

>  <distance_score>  (1516) 
0.831012

>  <ref_mols>  (1516) 
Z0875a,Z0089a

>  <ref_pdb>  (1516) 
Z0089a

>  <HIPPO Compound ID>  (1516) 
144563

>  <name>  (1516) 
P71815

>  <inspiration_score>  (1516) 
None

$$$$
P71819
     RDKit          3D

 13 13  0  0  0  0  0  0  0  0999 V2000
    0.0282    6.4231  -20.7249 C   0  0  0  0  0  0  0  0  0  0  0  0
   -1.2538    5.6413  -20.9852 C   0  0  0  0  0  0  0  0  0  0  0  0
   -1.7003    4.7429  -19.8204 C   0  0  0  0  0  0  0  0  0  0  0  0
   -2.6397    5.3751  -18.7750 C   0  0  1  0  0  0  0  0  0  0  0  0
   -2.1840    6.7670  -18.3406 C   0  0  0  0  0  0  0  0  0  0  0  0
   -4.0093    5.4604  -19.2665 N   0  0  0  0  0  0  0  0  0  0  0  0
   -5.0849    5.2088  -18.4271 C   0  0  0  0  0  0  0  0  0  0  0  0
   -5.0826    5.4052  -17.0442 C   0  0  0  0  0  0  0  0  0  0  0  0
   -6.1507    5.1913  -16.2425 N   0  0  0  0  0  0  0  0  0  0  0  0
   -7.2591    4.7671  -16.8836 C   0  0  0  0  0  0  0  0  0  0  0  0
   -7.3019    4.5716  -18.2559 C   0  0  0  0  0  0  0  0  0  0  0  0
   -8.5797    4.1550  -18.9137 C   0  0  0  0  0  0  0  0  0  0  0  0
   -6.2101    4.7931  -19.0360 N   0  0  0  0  0  0  0  0  0  0  0  0
  1  2  1  0
  2  3  1  0
  3  4  1  0
  4  5  1  6
  4  6  1  0
  6  7  1  0
  7  8  2  0
  8  9  1  0
  9 10  2  0
 10 11  1  0
 11 12  1  0
 11 13  2  0
 13  7  1  0
M  END
>  <energy_score>  (1517) 
-33.3188

>  <alias>  (1517) 
None

>  <HIPPO Pose ID>  (1517) 
71819

>  <smiles>  (1517) 
CCC[C@@H](C)Nc1cncc(C)n1

>  <inchikey>  (1517) 
LLDOUSYIFLSRST-MRVPVSSYSA-N

>  <distance_score>  (1517) 
0.747089

>  <ref_mols>  (1517) 
Z0875a,Z0089a

>  <ref_pdb>  (1517) 
Z0089a

>  <HIPPO Compound ID>  (1517) 
144565

>  <name>  (1517) 
P71819

>  <inspiration_score>  (1517) 
None

$$$$
P71822
     RDKit          3D

 13 13  0  0  0  0  0  0  0  0999 V2000
   -0.0195    6.1461  -20.4921 C   0  0  0  0  0  0  0  0  0  0  0  0
   -0.4340    5.4702  -19.1925 C   0  0  0  0  0  0  0  0  0  0  0  0
   -1.8287    4.8316  -19.2314 C   0  0  0  0  0  0  0  0  0  0  0  0
   -2.9606    5.7848  -19.6389 C   0  0  2  0  0  0  0  0  0  0  0  0
   -3.0191    7.0765  -18.8316 C   0  0  0  0  0  0  0  0  0  0  0  0
   -4.2218    5.0604  -19.6982 N   0  0  0  0  0  0  0  0  0  0  0  0
   -5.1938    4.9834  -18.7327 C   0  0  0  0  0  0  0  0  0  0  0  0
   -5.0006    4.9970  -17.3511 C   0  0  0  0  0  0  0  0  0  0  0  0
   -6.0112    4.9188  -16.4464 N   0  0  0  0  0  0  0  0  0  0  0  0
   -7.2397    4.7450  -16.9871 C   0  0  0  0  0  0  0  0  0  0  0  0
   -7.4323    4.7150  -18.3518 C   0  0  0  0  0  0  0  0  0  0  0  0
   -8.6671    4.6166  -18.9041 O   0  0  0  0  0  0  0  0  0  0  0  0
   -6.4351    4.8498  -19.2379 N   0  0  0  0  0  0  0  0  0  0  0  0
  1  2  1  0
  2  3  1  0
  3  4  1  0
  4  5  1  1
  4  6  1  0
  6  7  1  0
  7  8  2  0
  8  9  1  0
  9 10  2  0
 10 11  1  0
 11 12  1  0
 11 13  2  0
 13  7  1  0
M  END
>  <energy_score>  (1518) 
-46.367517

>  <alias>  (1518) 
None

>  <HIPPO Pose ID>  (1518) 
71822

>  <smiles>  (1518) 
CCC[C@H](C)Nc1cncc(O)n1

>  <inchikey>  (1518) 
HICSYBRCZBMYLO-ZETCQYMHSA-N

>  <distance_score>  (1518) 
0.743477

>  <ref_mols>  (1518) 
Z0875a,Z0089a

>  <ref_pdb>  (1518) 
Z0089a

>  <HIPPO Compound ID>  (1518) 
144567

>  <name>  (1518) 
P71822

>  <inspiration_score>  (1518) 
None

$$$$
P71825
     RDKit          3D

 13 13  0  0  0  0  0  0  0  0999 V2000
    0.2190    6.4248  -20.2296 C   0  0  0  0  0  0  0  0  0  0  0  0
   -0.2554    5.4514  -19.1591 C   0  0  0  0  0  0  0  0  0  0  0  0
   -1.6476    4.8708  -19.4396 C   0  0  0  0  0  0  0  0  0  0  0  0
   -2.7949    5.5877  -18.6931 C   0  0  1  0  0  0  0  0  0  0  0  0
   -2.8833    7.0704  -19.0348 C   0  0  0  0  0  0  0  0  0  0  0  0
   -4.0283    4.9267  -19.0619 N   0  0  0  0  0  0  0  0  0  0  0  0
   -5.2123    4.9820  -18.3712 C   0  0  0  0  0  0  0  0  0  0  0  0
   -6.2577    4.6123  -19.1411 N   0  0  0  0  0  0  0  0  0  0  0  0
   -7.4673    4.5307  -18.5471 C   0  0  0  0  0  0  0  0  0  0  0  0
   -7.6475    4.8221  -17.2101 C   0  0  0  0  0  0  0  0  0  0  0  0
   -6.6405    5.2516  -16.4181 N   0  0  0  0  0  0  0  0  0  0  0  0
   -5.4339    5.3006  -17.0206 C   0  0  0  0  0  0  0  0  0  0  0  0
   -4.4815    5.7165  -16.1479 O   0  0  0  0  0  0  0  0  0  0  0  0
  1  2  1  0
  2  3  1  0
  3  4  1  0
  4  5  1  6
  4  6  1  0
  6  7  1  0
  7  8  2  0
  8  9  1  0
  9 10  2  0
 10 11  1  0
 11 12  2  0
 12 13  1  0
 12  7  1  0
M  END
>  <energy_score>  (1519) 
-31.140238

>  <alias>  (1519) 
None

>  <HIPPO Pose ID>  (1519) 
71825

>  <smiles>  (1519) 
CCC[C@@H](C)Nc1nccnc1O

>  <inchikey>  (1519) 
JPYNGDORYVURLM-SSDOTTSWSA-N

>  <distance_score>  (1519) 
0.941286

>  <ref_mols>  (1519) 
Z0875a,Z0089a

>  <ref_pdb>  (1519) 
Z0089a

>  <HIPPO Compound ID>  (1519) 
144568

>  <name>  (1519) 
P71825

>  <inspiration_score>  (1519) 
None

$$$$
P71827
     RDKit          3D

 13 13  0  0  0  0  0  0  0  0999 V2000
   -2.3717    3.5687  -18.7921 C   0  0  0  0  0  0  0  0  0  0  0  0
   -1.5548    4.2799  -19.8324 C   0  0  0  0  0  0  0  0  0  0  0  0
   -1.8218    5.7669  -19.9711 C   0  0  0  0  0  0  0  0  0  0  0  0
   -2.8835    6.3695  -19.0442 C   0  0  1  0  0  0  0  0  0  0  0  0
   -2.7578    7.8890  -19.0845 C   0  0  0  0  0  0  0  0  0  0  0  0
   -4.2216    6.0165  -19.4828 N   0  0  0  0  0  0  0  0  0  0  0  0
   -5.2211    5.6440  -18.6102 C   0  0  0  0  0  0  0  0  0  0  0  0
   -5.3067    6.0332  -17.2742 C   0  0  0  0  0  0  0  0  0  0  0  0
   -6.3349    5.7077  -16.4563 N   0  0  0  0  0  0  0  0  0  0  0  0
   -7.3090    4.9580  -17.0235 C   0  0  0  0  0  0  0  0  0  0  0  0
   -8.4602    4.5632  -16.1592 C   0  0  0  0  0  0  0  0  0  0  0  0
   -7.2263    4.5546  -18.3488 C   0  0  0  0  0  0  0  0  0  0  0  0
   -6.1845    4.8802  -19.1500 N   0  0  0  0  0  0  0  0  0  0  0  0
  1  2  1  0
  2  3  1  0
  3  4  1  0
  4  5  1  6
  4  6  1  0
  6  7  1  0
  7  8  2  0
  8  9  1  0
  9 10  2  0
 10 11  1  0
 10 12  1  0
 12 13  2  0
 13  7  1  0
M  END
>  <energy_score>  (1520) 
-14.709643

>  <alias>  (1520) 
None

>  <HIPPO Pose ID>  (1520) 
71827

>  <smiles>  (1520) 
CCC[C@@H](C)Nc1cnc(C)cn1

>  <inchikey>  (1520) 
OYAQJMQYEIIXLV-MRVPVSSYSA-N

>  <distance_score>  (1520) 
0.99502

>  <ref_mols>  (1520) 
Z0875a,Z0089a

>  <ref_pdb>  (1520) 
Z0089a

>  <HIPPO Compound ID>  (1520) 
144569

>  <name>  (1520) 
P71827

>  <inspiration_score>  (1520) 
None

$$$$
P71829
     RDKit          3D

 13 13  0  0  0  0  0  0  0  0999 V2000
    0.3184    6.3969  -20.4329 C   0  0  0  0  0  0  0  0  0  0  0  0
   -0.1633    5.4743  -19.3213 C   0  0  0  0  0  0  0  0  0  0  0  0
   -1.5333    4.8423  -19.6061 C   0  0  0  0  0  0  0  0  0  0  0  0
   -2.7082    5.5767  -18.9327 C   0  0  1  0  0  0  0  0  0  0  0  0
   -2.8518    7.0239  -19.3880 C   0  0  0  0  0  0  0  0  0  0  0  0
   -3.9267    4.8400  -19.2306 N   0  0  0  0  0  0  0  0  0  0  0  0
   -5.0559    4.9350  -18.4431 C   0  0  0  0  0  0  0  0  0  0  0  0
   -5.0689    5.2045  -17.0739 C   0  0  0  0  0  0  0  0  0  0  0  0
   -6.1958    5.2642  -16.3272 N   0  0  0  0  0  0  0  0  0  0  0  0
   -7.3262    4.9720  -16.9889 C   0  0  0  0  0  0  0  0  0  0  0  0
   -8.4489    5.0023  -16.2218 O   0  0  0  0  0  0  0  0  0  0  0  0
   -7.3399    4.6938  -18.3458 C   0  0  0  0  0  0  0  0  0  0  0  0
   -6.2075    4.6797  -19.0896 N   0  0  0  0  0  0  0  0  0  0  0  0
  1  2  1  0
  2  3  1  0
  3  4  1  0
  4  5  1  6
  4  6  1  0
  6  7  1  0
  7  8  2  0
  8  9  1  0
  9 10  2  0
 10 11  1  0
 10 12  1  0
 12 13  2  0
 13  7  1  0
M  END
>  <energy_score>  (1521) 
-35.04721

>  <alias>  (1521) 
None

>  <HIPPO Pose ID>  (1521) 
71829

>  <smiles>  (1521) 
CCC[C@@H](C)Nc1cnc(O)cn1

>  <inchikey>  (1521) 
ABQQEMKMLJTLCN-SSDOTTSWSA-N

>  <distance_score>  (1521) 
0.728907

>  <ref_mols>  (1521) 
Z0875a,Z0089a

>  <ref_pdb>  (1521) 
Z0089a

>  <HIPPO Compound ID>  (1521) 
144570

>  <name>  (1521) 
P71829

>  <inspiration_score>  (1521) 
None

$$$$
P71832
     RDKit          3D

 13 14  0  0  0  0  0  0  0  0999 V2000
   -4.2415    6.2285  -16.0972 C   0  0  0  0  0  0  0  0  0  0  0  0
   -5.3235    5.5867  -16.9164 C   0  0  0  0  0  0  0  0  0  0  0  0
   -6.4048    5.1825  -16.1740 N   0  0  0  0  0  0  0  0  0  0  0  0
   -7.5723    4.7758  -16.7496 C   0  0  0  0  0  0  0  0  0  0  0  0
   -8.6031    4.6039  -16.1240 O   0  0  0  0  0  0  0  0  0  0  0  0
   -7.4981    4.6135  -18.2545 C   0  0  0  0  0  0  0  0  0  0  0  0
   -8.7340    4.0971  -18.9275 C   0  0  0  0  0  0  0  0  0  0  0  0
   -6.4429    4.9494  -18.9383 N   0  0  0  0  0  0  0  0  0  0  0  0
   -5.3568    5.4844  -18.2735 C   0  0  0  0  0  0  0  0  0  0  0  0
   -4.3708    6.0600  -19.0706 N   0  0  0  0  0  0  0  0  0  0  0  0
   -3.2709    5.1824  -19.4968 C   0  0  0  0  0  0  0  0  0  0  0  0
   -2.1040    4.7828  -18.6560 C   0  0  0  0  0  0  0  0  0  0  0  0
   -1.9218    5.8065  -19.7360 C   0  0  0  0  0  0  0  0  0  0  0  0
  1  2  1  0
  2  3  1  0
  3  4  1  0
  4  5  2  0
  4  6  1  0
  6  7  1  0
  6  8  2  0
  8  9  1  0
  9 10  1  0
 10 11  1  0
 11 12  1  0
 12 13  1  0
  9  2  2  0
 13 11  1  0
M  END
>  <energy_score>  (1522) 
-21.382929

>  <alias>  (1522) 
None

>  <HIPPO Pose ID>  (1522) 
71832

>  <smiles>  (1522) 
Cc1[nH]c(=O)c(C)nc1NC1CC1

>  <inchikey>  (1522) 
JYUXYTHILKHNSW-UHFFFAOYSA-N

>  <distance_score>  (1522) 
1.481728

>  <ref_mols>  (1522) 
Z0875a,Z0089a

>  <ref_pdb>  (1522) 
Z0089a

>  <HIPPO Compound ID>  (1522) 
144572

>  <name>  (1522) 
P71832

>  <inspiration_score>  (1522) 
None

$$$$
P71834
     RDKit          3D

 13 15  0  0  0  0  0  0  0  0999 V2000
   -4.8998    5.1281  -17.0334 C   0  0  0  0  0  0  0  0  0  0  0  0
   -5.5369    5.0070  -15.8095 N   0  0  0  0  0  0  0  0  0  0  0  0
   -6.8019    4.6927  -15.8124 C   0  0  0  0  0  0  0  0  0  0  0  0
   -7.5016    4.4855  -17.0285 C   0  0  0  0  0  0  0  0  0  0  0  0
   -8.7558    4.1485  -17.2010 N   0  0  0  0  0  0  0  0  0  0  0  0
   -8.9303    3.9843  -18.5477 N   0  0  0  0  0  0  0  0  0  0  0  0
   -7.7740    4.2358  -19.1275 C   0  0  0  0  0  0  0  0  0  0  0  0
   -6.8314    4.6029  -18.2133 N   0  0  0  0  0  0  0  0  0  0  0  0
   -5.4654    4.9720  -18.2580 C   0  0  0  0  0  0  0  0  0  0  0  0
   -4.8464    5.1109  -19.4969 N   0  0  0  0  0  0  0  0  0  0  0  0
   -3.4983    5.5849  -19.8127 C   0  0  0  0  0  0  0  0  0  0  0  0
   -2.2707    4.9158  -19.2639 C   0  0  0  0  0  0  0  0  0  0  0  0
   -2.5368    6.3729  -18.9832 C   0  0  0  0  0  0  0  0  0  0  0  0
  1  2  1  0
  2  3  2  0
  3  4  1  0
  4  5  2  0
  5  6  1  0
  6  7  2  0
  7  8  1  0
  8  9  1  0
  9 10  1  0
 10 11  1  0
 11 12  1  0
 12 13  1  0
  9  1  2  0
 13 11  1  0
  8  4  1  0
M  END
>  <energy_score>  (1523) 
-8.069382

>  <alias>  (1523) 
None

>  <HIPPO Pose ID>  (1523) 
71834

>  <smiles>  (1523) 
c1ncc2nncn2c1NC1CC1

>  <inchikey>  (1523) 
JDFUWKLWDCRZFK-UHFFFAOYSA-N

>  <distance_score>  (1523) 
1.764856

>  <ref_mols>  (1523) 
Z0875a,Z0089a

>  <ref_pdb>  (1523) 
Z0089a

>  <HIPPO Compound ID>  (1523) 
144574

>  <name>  (1523) 
P71834

>  <inspiration_score>  (1523) 
None

$$$$
P71840
     RDKit          3D

 13 14  0  0  0  0  0  0  0  0999 V2000
   -9.6328    3.6248  -16.7260 O   0  0  0  0  0  0  0  0  0  0  0  0
   -8.5987    4.0564  -16.2447 C   0  0  0  0  0  0  0  0  0  0  0  0
   -8.3793    4.0311  -14.9142 O   0  0  0  0  0  0  0  0  0  0  0  0
   -7.4595    4.5586  -17.0506 C   0  0  0  0  0  0  0  0  0  0  0  0
   -7.5293    4.4115  -18.4274 C   0  0  0  0  0  0  0  0  0  0  0  0
   -6.4863    4.7000  -19.2433 N   0  0  0  0  0  0  0  0  0  0  0  0
   -5.3686    5.1540  -18.6531 C   0  0  0  0  0  0  0  0  0  0  0  0
   -4.2929    5.4001  -19.5185 N   0  0  0  0  0  0  0  0  0  0  0  0
   -2.9540    4.9902  -19.1040 C   0  0  0  0  0  0  0  0  0  0  0  0
   -1.7526    5.3410  -19.9295 C   0  0  0  0  0  0  0  0  0  0  0  0
   -1.9713    6.0103  -18.6043 C   0  0  0  0  0  0  0  0  0  0  0  0
   -5.3227    5.3487  -17.2699 C   0  0  0  0  0  0  0  0  0  0  0  0
   -6.3565    5.0673  -16.4355 N   0  0  0  0  0  0  0  0  0  0  0  0
  1  2  2  0
  2  3  1  0
  2  4  1  0
  4  5  2  0
  5  6  1  0
  6  7  2  0
  7  8  1  0
  8  9  1  0
  9 10  1  0
 10 11  1  0
  7 12  1  0
 12 13  2  0
 13  4  1  0
 11  9  1  0
M  END
>  <energy_score>  (1524) 
-29.990451

>  <alias>  (1524) 
None

>  <HIPPO Pose ID>  (1524) 
71840

>  <smiles>  (1524) 
O=C(O)c1cnc(NC2CC2)cn1

>  <inchikey>  (1524) 
LCMJBENFPBWPDK-UHFFFAOYSA-N

>  <distance_score>  (1524) 
0.845436

>  <ref_mols>  (1524) 
Z0875a,Z0089a

>  <ref_pdb>  (1524) 
Z0089a

>  <HIPPO Compound ID>  (1524) 
144580

>  <name>  (1524) 
P71840

>  <inspiration_score>  (1524) 
None

$$$$
P71841
     RDKit          3D

 13 15  0  0  0  0  0  0  0  0999 V2000
   -4.8735    5.5803  -17.4303 C   0  0  0  0  0  0  0  0  0  0  0  0
   -5.9347    5.5163  -16.5941 N   0  0  0  0  0  0  0  0  0  0  0  0
   -7.1003    5.1037  -17.1508 C   0  0  0  0  0  0  0  0  0  0  0  0
   -8.3143    5.0110  -16.2831 C   0  0  0  0  0  0  0  0  0  0  0  0
   -8.5042    3.9086  -15.2972 C   0  0  0  0  0  0  0  0  0  0  0  0
   -9.3082    3.9136  -16.5659 C   0  0  0  0  0  0  0  0  0  0  0  0
   -7.1585    4.8099  -18.5150 C   0  0  0  0  0  0  0  0  0  0  0  0
   -6.0944    4.8662  -19.3394 N   0  0  0  0  0  0  0  0  0  0  0  0
   -4.9441    5.2609  -18.7837 C   0  0  0  0  0  0  0  0  0  0  0  0
   -3.8711    5.3467  -19.6728 N   0  0  0  0  0  0  0  0  0  0  0  0
   -2.5403    4.9917  -19.2131 C   0  0  0  0  0  0  0  0  0  0  0  0
   -1.3281    5.3827  -19.9974 C   0  0  0  0  0  0  0  0  0  0  0  0
   -1.6201    6.0608  -18.6923 C   0  0  0  0  0  0  0  0  0  0  0  0
  1  2  2  0
  2  3  1  0
  3  4  1  0
  4  5  1  0
  5  6  1  0
  3  7  2  0
  7  8  1  0
  8  9  2  0
  9 10  1  0
 10 11  1  0
 11 12  1  0
 12 13  1  0
  9  1  1  0
 13 11  1  0
  6  4  1  0
M  END
>  <energy_score>  (1525) 
-18.789586

>  <alias>  (1525) 
None

>  <HIPPO Pose ID>  (1525) 
71841

>  <smiles>  (1525) 
c1nc(C2CC2)cnc1NC1CC1

>  <inchikey>  (1525) 
SNNWKDFSFLHKHX-UHFFFAOYSA-N

>  <distance_score>  (1525) 
0.888203

>  <ref_mols>  (1525) 
Z0875a,Z0089a

>  <ref_pdb>  (1525) 
Z0089a

>  <HIPPO Compound ID>  (1525) 
144581

>  <name>  (1525) 
P71841

>  <inspiration_score>  (1525) 
None

$$$$
P71845
     RDKit          3D

 14 14  0  0  0  0  0  0  0  0999 V2000
   -1.0731    4.6910  -18.9894 C   0  0  0  0  0  0  0  0  0  0  0  0
   -1.7874    5.5368  -20.0212 C   0  0  0  0  0  0  0  0  0  0  0  0
   -3.1350    6.1372  -19.5427 C   0  0  0  0  0  0  0  0  0  0  0  0
   -2.8747    7.0544  -18.3451 C   0  0  0  0  0  0  0  0  0  0  0  0
   -3.7137    7.0170  -20.6725 C   0  0  0  0  0  0  0  0  0  0  0  0
   -4.0552    5.0102  -19.3176 N   0  0  0  0  0  0  0  0  0  0  0  0
   -5.1400    5.0449  -18.4594 C   0  0  0  0  0  0  0  0  0  0  0  0
   -5.0831    5.3014  -17.0961 C   0  0  0  0  0  0  0  0  0  0  0  0
   -6.1599    5.2761  -16.2784 N   0  0  0  0  0  0  0  0  0  0  0  0
   -7.3250    4.8933  -16.8550 C   0  0  0  0  0  0  0  0  0  0  0  0
   -8.4834    4.7225  -15.9254 C   0  0  0  0  0  0  0  0  0  0  0  0
   -7.3998    4.5893  -18.2157 C   0  0  0  0  0  0  0  0  0  0  0  0
   -8.6792    4.1487  -18.8618 C   0  0  0  0  0  0  0  0  0  0  0  0
   -6.3071    4.6855  -19.0223 N   0  0  0  0  0  0  0  0  0  0  0  0
  1  2  1  0
  2  3  1  0
  3  4  1  0
  3  5  1  0
  3  6  1  0
  6  7  1  0
  7  8  2  0
  8  9  1  0
  9 10  2  0
 10 11  1  0
 10 12  1  0
 12 13  1  0
 12 14  2  0
 14  7  1  0
M  END
>  <energy_score>  (1526) 
-33.073594

>  <alias>  (1526) 
None

>  <HIPPO Pose ID>  (1526) 
71845

>  <smiles>  (1526) 
CCC(C)(C)Nc1cnc(C)c(C)n1

>  <inchikey>  (1526) 
TVEDMPJQOBPRFA-UHFFFAOYSA-N

>  <distance_score>  (1526) 
0.989567

>  <ref_mols>  (1526) 
Z0875a,Z0089a

>  <ref_pdb>  (1526) 
Z0089a

>  <HIPPO Compound ID>  (1526) 
144585

>  <name>  (1526) 
P71845

>  <inspiration_score>  (1526) 
None

$$$$
P71846
     RDKit          3D

 14 14  0  0  0  0  0  0  0  0999 V2000
   -1.2398    5.8827  -21.1189 C   0  0  0  0  0  0  0  0  0  0  0  0
   -1.5719    5.0403  -19.8883 C   0  0  0  0  0  0  0  0  0  0  0  0
   -2.5245    5.7328  -18.8709 C   0  0  0  0  0  0  0  0  0  0  0  0
   -2.0838    7.1811  -18.6128 C   0  0  0  0  0  0  0  0  0  0  0  0
   -2.4303    4.9414  -17.5586 C   0  0  0  0  0  0  0  0  0  0  0  0
   -3.8733    5.7609  -19.4545 N   0  0  0  0  0  0  0  0  0  0  0  0
   -5.0094    5.5553  -18.7005 C   0  0  0  0  0  0  0  0  0  0  0  0
   -5.3114    6.1678  -17.4889 C   0  0  0  0  0  0  0  0  0  0  0  0
   -6.4038    5.8721  -16.7471 N   0  0  0  0  0  0  0  0  0  0  0  0
   -7.2464    4.9588  -17.2911 C   0  0  0  0  0  0  0  0  0  0  0  0
   -8.3996    4.5269  -16.4459 C   0  0  0  0  0  0  0  0  0  0  0  0
   -9.9731    4.1456  -17.5094 Br  0  0  0  0  0  0  0  0  0  0  0  0
   -6.9764    4.4052  -18.5363 C   0  0  0  0  0  0  0  0  0  0  0  0
   -5.8576    4.6755  -19.2417 N   0  0  0  0  0  0  0  0  0  0  0  0
  1  2  1  0
  2  3  1  0
  3  4  1  0
  3  5  1  0
  3  6  1  0
  6  7  1  0
  7  8  2  0
  8  9  1  0
  9 10  2  0
 10 11  1  0
 11 12  1  0
 10 13  1  0
 13 14  2  0
 14  7  1  0
M  END
>  <energy_score>  (1527) 
-21.412429

>  <alias>  (1527) 
None

>  <HIPPO Pose ID>  (1527) 
71846

>  <smiles>  (1527) 
CCC(C)(C)Nc1cnc(CBr)cn1

>  <inchikey>  (1527) 
XWLJYJASKCRLDN-UHFFFAOYSA-N

>  <distance_score>  (1527) 
0.988628

>  <ref_mols>  (1527) 
Z0875a,Z0089a

>  <ref_pdb>  (1527) 
Z0089a

>  <HIPPO Compound ID>  (1527) 
144586

>  <name>  (1527) 
P71846

>  <inspiration_score>  (1527) 
None

$$$$
P71849
     RDKit          3D

 14 14  0  0  0  0  0  0  0  0999 V2000
   -9.1705    4.0536  -16.5225 C   0  0  0  0  0  0  0  0  0  0  0  0
   -7.8632    4.5999  -15.9860 C   0  0  0  0  0  0  0  0  0  0  0  0
   -6.7794    4.7783  -17.0040 C   0  0  0  0  0  0  0  0  0  0  0  0
   -7.0184    5.0695  -18.3383 C   0  0  0  0  0  0  0  0  0  0  0  0
   -6.0233    5.2868  -19.2278 N   0  0  0  0  0  0  0  0  0  0  0  0
   -4.7619    5.1792  -18.7838 C   0  0  0  0  0  0  0  0  0  0  0  0
   -3.8155    5.3953  -19.7535 N   0  0  0  0  0  0  0  0  0  0  0  0
   -2.4549    5.8989  -19.5668 C   0  0  0  0  0  0  0  0  0  0  0  0
   -1.5414    4.6758  -19.3855 C   0  0  0  0  0  0  0  0  0  0  0  0
   -2.3050    6.8712  -18.3886 C   0  0  0  0  0  0  0  0  0  0  0  0
   -1.9948    6.6524  -20.8516 C   0  0  0  0  0  0  0  0  0  0  0  0
   -2.8243    7.8780  -21.2259 C   0  0  0  0  0  0  0  0  0  0  0  0
   -4.5328    4.8526  -17.4534 C   0  0  0  0  0  0  0  0  0  0  0  0
   -5.5131    4.6833  -16.5373 N   0  0  0  0  0  0  0  0  0  0  0  0
  1  2  1  0
  2  3  1  0
  3  4  2  0
  4  5  1  0
  5  6  2  0
  6  7  1  0
  7  8  1  0
  8  9  1  0
  8 10  1  0
  8 11  1  0
 11 12  1  0
  6 13  1  0
 13 14  2  0
 14  3  1  0
M  END
>  <energy_score>  (1528) 
-41.597317

>  <alias>  (1528) 
None

>  <HIPPO Pose ID>  (1528) 
71849

>  <smiles>  (1528) 
CCc1cnc(NC(C)(C)CC)cn1

>  <inchikey>  (1528) 
IFYZWRFZGILKPU-UHFFFAOYSA-N

>  <distance_score>  (1528) 
0.876282

>  <ref_mols>  (1528) 
Z0875a,Z0089a

>  <ref_pdb>  (1528) 
Z0089a

>  <HIPPO Compound ID>  (1528) 
144589

>  <name>  (1528) 
P71849

>  <inspiration_score>  (1528) 
None

$$$$
P71850
     RDKit          3D

 14 14  0  0  0  0  0  0  0  0999 V2000
   -8.9536    4.4338  -15.6878 C   0  0  0  0  0  0  0  0  0  0  0  0
   -8.0490    4.6660  -16.4360 C   0  0  0  0  0  0  0  0  0  0  0  0
   -6.9349    4.8646  -17.2858 C   0  0  0  0  0  0  0  0  0  0  0  0
   -7.0245    4.7758  -18.6578 C   0  0  0  0  0  0  0  0  0  0  0  0
   -5.9407    4.9465  -19.4482 N   0  0  0  0  0  0  0  0  0  0  0  0
   -4.7611    5.1780  -18.8449 C   0  0  0  0  0  0  0  0  0  0  0  0
   -3.7276    5.3282  -19.7292 N   0  0  0  0  0  0  0  0  0  0  0  0
   -2.3745    5.8404  -19.5095 C   0  0  0  0  0  0  0  0  0  0  0  0
   -1.5680    4.7786  -18.7583 C   0  0  0  0  0  0  0  0  0  0  0  0
   -2.3978    7.1813  -18.7658 C   0  0  0  0  0  0  0  0  0  0  0  0
   -1.7069    6.0442  -20.9046 C   0  0  0  0  0  0  0  0  0  0  0  0
   -0.3891    6.8142  -20.9335 C   0  0  0  0  0  0  0  0  0  0  0  0
   -4.7003    5.2269  -17.4534 C   0  0  0  0  0  0  0  0  0  0  0  0
   -5.7768    5.1124  -16.6426 N   0  0  0  0  0  0  0  0  0  0  0  0
  1  2  3  0
  2  3  1  0
  3  4  2  0
  4  5  1  0
  5  6  2  0
  6  7  1  0
  7  8  1  0
  8  9  1  0
  8 10  1  0
  8 11  1  0
 11 12  1  0
  6 13  1  0
 13 14  2  0
 14  3  1  0
M  END
>  <energy_score>  (1529) 
-29.533729

>  <alias>  (1529) 
None

>  <HIPPO Pose ID>  (1529) 
71850

>  <smiles>  (1529) 
C#Cc1cnc(NC(C)(C)CC)cn1

>  <inchikey>  (1529) 
UZNOIDUZJFWRBY-UHFFFAOYSA-N

>  <distance_score>  (1529) 
1.032693

>  <ref_mols>  (1529) 
Z0875a,Z0089a

>  <ref_pdb>  (1529) 
Z0089a

>  <HIPPO Compound ID>  (1529) 
144590

>  <name>  (1529) 
P71850

>  <inspiration_score>  (1529) 
None

$$$$
P71853
     RDKit          3D

 14 16  0  0  0  0  0  0  0  0999 V2000
   -4.2275    6.2923  -20.9273 N   0  0  0  0  0  0  0  0  0  0  0  0
   -3.8860    5.7007  -19.6794 N   0  0  0  0  0  0  0  0  0  0  0  0
   -4.9713    5.3702  -18.8400 C   0  0  0  0  0  0  0  0  0  0  0  0
   -6.1145    5.0192  -19.4096 N   0  0  0  0  0  0  0  0  0  0  0  0
   -7.2108    4.6897  -18.6392 C   0  0  0  0  0  0  0  0  0  0  0  0
   -7.2125    4.7066  -17.2995 C   0  0  0  0  0  0  0  0  0  0  0  0
   -6.0474    5.0721  -16.6664 N   0  0  0  0  0  0  0  0  0  0  0  0
   -5.7334    5.1945  -15.3419 C   0  0  0  0  0  0  0  0  0  0  0  0
   -4.4299    5.6349  -15.3172 C   0  0  0  0  0  0  0  0  0  0  0  0
   -3.9347    5.7757  -16.5860 N   0  0  0  0  0  0  0  0  0  0  0  0
   -4.9241    5.4072  -17.3788 C   0  0  0  0  0  0  0  0  0  0  0  0
   -2.5897    6.0988  -19.1333 C   0  0  0  0  0  0  0  0  0  0  0  0
   -1.3135    5.6568  -19.8112 C   0  0  0  0  0  0  0  0  0  0  0  0
   -1.6783    5.1152  -18.4695 C   0  0  0  0  0  0  0  0  0  0  0  0
  1  2  1  0
  2  3  1  0
  3  4  2  0
  4  5  1  0
  5  6  2  0
  6  7  1  0
  7  8  1  0
  8  9  2  0
  9 10  1  0
 10 11  2  0
  2 12  1  0
 12 13  1  0
 13 14  1  0
 11  3  1  0
 14 12  1  0
 11  7  1  0
M  END
>  <energy_score>  (1530) 
-36.393468

>  <alias>  (1530) 
None

>  <HIPPO Pose ID>  (1530) 
71853

>  <smiles>  (1530) 
NN(c1nccn2ccnc12)C1CC1

>  <inchikey>  (1530) 
RZOBWPLNFKRXCV-UHFFFAOYSA-N

>  <distance_score>  (1530) 
0.99348

>  <ref_mols>  (1530) 
Z0875a,Z0089a

>  <ref_pdb>  (1530) 
Z0089a

>  <HIPPO Compound ID>  (1530) 
144594

>  <name>  (1530) 
P71853

>  <inspiration_score>  (1530) 
None

$$$$
P71855
     RDKit          3D

 14 16  0  0  0  0  0  0  0  0999 V2000
   -0.8888    5.7610  -17.8097 F   0  0  0  0  0  0  0  0  0  0  0  0
   -1.7082    6.1528  -18.8515 C   0  0  1  0  0  0  0  0  0  0  0  0
   -1.4848    5.5229  -20.1865 C   0  0  0  0  0  0  0  0  0  0  0  0
   -2.6843    5.1390  -19.3738 C   0  0  2  0  0  0  0  0  0  0  0  0
   -4.0365    5.5388  -19.7745 N   0  0  0  0  0  0  0  0  0  0  0  0
   -5.0551    5.3421  -18.8310 C   0  0  0  0  0  0  0  0  0  0  0  0
   -4.9386    5.6757  -17.4834 C   0  0  0  0  0  0  0  0  0  0  0  0
   -5.8921    5.4022  -16.5669 N   0  0  0  0  0  0  0  0  0  0  0  0
   -6.9872    4.7491  -17.0305 C   0  0  0  0  0  0  0  0  0  0  0  0
   -7.9720    4.2231  -16.0387 C   0  0  0  0  0  0  0  0  0  0  0  0
   -8.8423    5.1252  -15.2204 C   0  0  0  0  0  0  0  0  0  0  0  0
   -9.4409    4.3149  -16.3316 C   0  0  0  0  0  0  0  0  0  0  0  0
   -7.1167    4.4805  -18.3939 C   0  0  0  0  0  0  0  0  0  0  0  0
   -6.1638    4.7633  -19.3063 N   0  0  0  0  0  0  0  0  0  0  0  0
  2  1  1  1
  2  3  1  0
  3  4  1  0
  4  5  1  6
  5  6  1  0
  6  7  2  0
  7  8  1  0
  8  9  2  0
  9 10  1  0
 10 11  1  0
 11 12  1  0
  9 13  1  0
 13 14  2  0
  4  2  1  0
 14  6  1  0
 12 10  1  0
M  END
>  <energy_score>  (1531) 
-18.202185

>  <alias>  (1531) 
None

>  <HIPPO Pose ID>  (1531) 
71855

>  <smiles>  (1531) 
F[C@H]1C[C@@H]1Nc1cnc(C2CC2)cn1

>  <inchikey>  (1531) 
QSZGATZQLZRKNL-YUMQZZPRSA-N

>  <distance_score>  (1531) 
0.969696

>  <ref_mols>  (1531) 
Z0875a,Z0089a

>  <ref_pdb>  (1531) 
Z0089a

>  <HIPPO Compound ID>  (1531) 
144595

>  <name>  (1531) 
P71855

>  <inspiration_score>  (1531) 
None

$$$$
P71859
     RDKit          3D

 14 15  0  0  0  0  0  0  0  0999 V2000
   -8.9030    4.4801  -15.3370 C   0  0  0  0  0  0  0  0  0  0  0  0
   -8.0872    4.6909  -16.1864 C   0  0  0  0  0  0  0  0  0  0  0  0
   -7.0699    4.9122  -17.1437 C   0  0  0  0  0  0  0  0  0  0  0  0
   -7.2283    4.5888  -18.4763 C   0  0  0  0  0  0  0  0  0  0  0  0
   -6.2539    4.8255  -19.3786 N   0  0  0  0  0  0  0  0  0  0  0  0
   -5.1320    5.4088  -18.9176 C   0  0  0  0  0  0  0  0  0  0  0  0
   -4.2125    5.7684  -19.9017 N   0  0  0  0  0  0  0  0  0  0  0  0
   -2.7803    5.8309  -19.6508 C   0  0  0  0  0  0  0  0  0  0  0  0
   -2.1418    4.5496  -19.5591 C   0  0  0  0  0  0  0  0  0  0  0  0
   -1.6166    3.4738  -19.5192 C   0  0  0  0  0  0  0  0  0  0  0  0
   -1.9890    6.9014  -20.3695 C   0  0  0  0  0  0  0  0  0  0  0  0
   -2.1707    6.9862  -18.8894 C   0  0  0  0  0  0  0  0  0  0  0  0
   -4.9829    5.6979  -17.5614 C   0  0  0  0  0  0  0  0  0  0  0  0
   -5.9475    5.4745  -16.6446 N   0  0  0  0  0  0  0  0  0  0  0  0
  1  2  3  0
  2  3  1  0
  3  4  2  0
  4  5  1  0
  5  6  2  0
  6  7  1  0
  7  8  1  0
  8  9  1  0
  9 10  3  0
  8 11  1  0
 11 12  1  0
  6 13  1  0
 13 14  2  0
 14  3  1  0
 12  8  1  0
M  END
>  <energy_score>  (1532) 
-16.249461

>  <alias>  (1532) 
None

>  <HIPPO Pose ID>  (1532) 
71859

>  <smiles>  (1532) 
C#Cc1cnc(NC2(C#C)CC2)cn1

>  <inchikey>  (1532) 
VIFJGBFBECSWLQ-UHFFFAOYSA-N

>  <distance_score>  (1532) 
1.109078

>  <ref_mols>  (1532) 
Z0875a,Z0089a

>  <ref_pdb>  (1532) 
Z0089a

>  <HIPPO Compound ID>  (1532) 
144597

>  <name>  (1532) 
P71859

>  <inspiration_score>  (1532) 
None

$$$$
P71864
     RDKit          3D

 14 16  0  0  0  0  0  0  0  0999 V2000
   -2.1165    4.6515  -17.6772 F   0  0  0  0  0  0  0  0  0  0  0  0
   -2.1100    5.5683  -18.7106 C   0  0  1  0  0  0  0  0  0  0  0  0
   -2.0991    5.0125  -20.0899 C   0  0  0  0  0  0  0  0  0  0  0  0
   -3.3372    5.7065  -19.5654 C   0  0  1  0  0  0  0  0  0  0  0  0
   -4.5801    4.9383  -19.4164 N   0  0  0  0  0  0  0  0  0  0  0  0
   -5.3558    5.0033  -18.2545 C   0  0  0  0  0  0  0  0  0  0  0  0
   -4.9553    5.4180  -17.0274 C   0  0  0  0  0  0  0  0  0  0  0  0
   -5.7322    5.4402  -15.8831 N   0  0  0  0  0  0  0  0  0  0  0  0
   -6.9644    5.0301  -15.9811 C   0  0  0  0  0  0  0  0  0  0  0  0
   -7.5150    4.6203  -17.2245 C   0  0  0  0  0  0  0  0  0  0  0  0
   -8.7571    4.3085  -17.5011 N   0  0  0  0  0  0  0  0  0  0  0  0
   -8.6748    4.0724  -18.8339 C   0  0  0  0  0  0  0  0  0  0  0  0
   -7.4516    4.1368  -19.3657 N   0  0  0  0  0  0  0  0  0  0  0  0
   -6.7063    4.5847  -18.3330 N   0  0  0  0  0  0  0  0  0  0  0  0
  2  1  1  1
  2  3  1  0
  3  4  1  0
  4  5  1  1
  5  6  1  0
  6  7  2  0
  7  8  1  0
  8  9  2  0
  9 10  1  0
 10 11  2  0
 11 12  1  0
 12 13  2  0
 13 14  1  0
  4  2  1  0
 14  6  1  0
 14 10  1  0
M  END
>  <energy_score>  (1533) 
-24.913836

>  <alias>  (1533) 
None

>  <HIPPO Pose ID>  (1533) 
71864

>  <smiles>  (1533) 
F[C@H]1C[C@H]1Nc1cncc2ncnn12

>  <inchikey>  (1533) 
KZZUISZQWDYUDI-NTSWFWBYSA-N

>  <distance_score>  (1533) 
1.473563

>  <ref_mols>  (1533) 
Z0875a,Z0089a

>  <ref_pdb>  (1533) 
Z0089a

>  <HIPPO Compound ID>  (1533) 
144599

>  <name>  (1533) 
P71864

>  <inspiration_score>  (1533) 
None

$$$$
P71866
     RDKit          3D

 14 16  0  0  0  0  0  0  0  0999 V2000
   -1.1669    7.2391  -19.3388 F   0  0  0  0  0  0  0  0  0  0  0  0
   -1.9781    6.3002  -19.9495 C   0  0  1  0  0  0  0  0  0  0  0  0
   -1.6794    4.8592  -19.6828 C   0  0  0  0  0  0  0  0  0  0  0  0
   -2.8963    5.5034  -19.0761 C   0  0  2  0  0  0  0  0  0  0  0  0
   -4.2349    5.1119  -19.5142 N   0  0  0  0  0  0  0  0  0  0  0  0
   -5.2639    4.9773  -18.5990 C   0  0  0  0  0  0  0  0  0  0  0  0
   -6.5012    4.7034  -19.0625 C   0  0  0  0  0  0  0  0  0  0  0  0
   -7.5554    4.5651  -18.1912 N   0  0  0  0  0  0  0  0  0  0  0  0
   -8.8775    4.2654  -18.3698 C   0  0  0  0  0  0  0  0  0  0  0  0
   -9.4177    4.2823  -17.1021 C   0  0  0  0  0  0  0  0  0  0  0  0
   -8.4728    4.6064  -16.1574 N   0  0  0  0  0  0  0  0  0  0  0  0
   -7.3684    4.7226  -16.8547 C   0  0  0  0  0  0  0  0  0  0  0  0
   -6.0451    4.9840  -16.4074 C   0  0  0  0  0  0  0  0  0  0  0  0
   -5.0451    5.1074  -17.2349 N   0  0  0  0  0  0  0  0  0  0  0  0
  2  1  1  1
  2  3  1  0
  3  4  1  0
  4  5  1  6
  5  6  1  0
  6  7  2  0
  7  8  1  0
  8  9  1  0
  9 10  2  0
 10 11  1  0
 11 12  2  0
 12 13  1  0
 13 14  2  0
  4  2  1  0
 14  6  1  0
 12  8  1  0
M  END
>  <energy_score>  (1534) 
-13.382326

>  <alias>  (1534) 
None

>  <HIPPO Pose ID>  (1534) 
71866

>  <smiles>  (1534) 
F[C@H]1C[C@@H]1Nc1cn2ccnc2cn1

>  <inchikey>  (1534) 
SEUHOLIHPYSHIK-BQBZGAKWSA-N

>  <distance_score>  (1534) 
1.627232

>  <ref_mols>  (1534) 
Z0875a,Z0089a

>  <ref_pdb>  (1534) 
Z0089a

>  <HIPPO Compound ID>  (1534) 
144600

>  <name>  (1534) 
P71866

>  <inspiration_score>  (1534) 
None

$$$$
P71869
     RDKit          3D

 14 15  0  0  0  0  0  0  0  0999 V2000
   -1.6642    3.5884  -19.5469 C   0  0  0  0  0  0  0  0  0  0  0  0
   -2.3293    4.5829  -19.6162 C   0  0  0  0  0  0  0  0  0  0  0  0
   -3.1396    5.7612  -19.7515 C   0  0  0  0  0  0  0  0  0  0  0  0
   -4.5707    5.5099  -19.8029 N   0  0  0  0  0  0  0  0  0  0  0  0
   -5.3767    5.2242  -18.7024 C   0  0  0  0  0  0  0  0  0  0  0  0
   -4.9903    5.4517  -17.3779 C   0  0  0  0  0  0  0  0  0  0  0  0
   -5.8053    5.2639  -16.3116 N   0  0  0  0  0  0  0  0  0  0  0  0
   -7.0377    4.8016  -16.6203 C   0  0  0  0  0  0  0  0  0  0  0  0
   -7.4389    4.5629  -17.9244 C   0  0  0  0  0  0  0  0  0  0  0  0
   -8.7801    4.1318  -18.1671 C   0  0  0  0  0  0  0  0  0  0  0  0
   -9.8928    3.8004  -18.1932 N   0  0  0  0  0  0  0  0  0  0  0  0
   -6.6164    4.7677  -18.9814 N   0  0  0  0  0  0  0  0  0  0  0  0
   -2.5985    7.0572  -19.1982 C   0  0  0  0  0  0  0  0  0  0  0  0
   -2.5870    6.8279  -20.6769 C   0  0  0  0  0  0  0  0  0  0  0  0
  1  2  3  0
  2  3  1  0
  3  4  1  0
  4  5  1  0
  5  6  2  0
  6  7  1  0
  7  8  2  0
  8  9  1  0
  9 10  1  0
 10 11  3  0
  9 12  2  0
  3 13  1  0
 13 14  1  0
 14  3  1  0
 12  5  1  0
M  END
>  <energy_score>  (1535) 
-24.406836

>  <alias>  (1535) 
None

>  <HIPPO Pose ID>  (1535) 
71869

>  <smiles>  (1535) 
C#CC1(Nc2cncc(C#N)n2)CC1

>  <inchikey>  (1535) 
CCIVPZXSYFOVKI-UHFFFAOYSA-N

>  <distance_score>  (1535) 
0.769399

>  <ref_mols>  (1535) 
Z0875a,Z0089a

>  <ref_pdb>  (1535) 
Z0089a

>  <HIPPO Compound ID>  (1535) 
144601

>  <name>  (1535) 
P71869

>  <inspiration_score>  (1535) 
None

$$$$
P71871
     RDKit          3D

 14 16  0  0  0  0  0  0  0  0999 V2000
   -1.2316    5.6854  -17.6030 F   0  0  0  0  0  0  0  0  0  0  0  0
   -2.0437    6.0016  -18.6756 C   0  0  1  0  0  0  0  0  0  0  0  0
   -1.7963    5.2988  -19.9691 C   0  0  0  0  0  0  0  0  0  0  0  0
   -2.9976    4.9401  -19.1424 C   0  0  2  0  0  0  0  0  0  0  0  0
   -4.3546    5.2805  -19.5743 N   0  0  0  0  0  0  0  0  0  0  0  0
   -5.4193    5.1041  -18.6631 C   0  0  0  0  0  0  0  0  0  0  0  0
   -5.3016    5.4378  -17.3001 C   0  0  0  0  0  0  0  0  0  0  0  0
   -6.2877    5.3155  -16.3697 N   0  0  0  0  0  0  0  0  0  0  0  0
   -7.3942    4.8152  -16.9541 C   0  0  0  0  0  0  0  0  0  0  0  0
   -8.5911    4.5248  -16.3719 N   0  0  0  0  0  0  0  0  0  0  0  0
   -9.4397    4.1183  -17.3675 C   0  0  0  0  0  0  0  0  0  0  0  0
   -8.8360    4.0454  -18.5335 N   0  0  0  0  0  0  0  0  0  0  0  0
   -7.5619    4.4844  -18.2950 C   0  0  0  0  0  0  0  0  0  0  0  0
   -6.5565    4.6151  -19.1903 N   0  0  0  0  0  0  0  0  0  0  0  0
  2  1  1  1
  2  3  1  0
  3  4  1  0
  4  5  1  6
  5  6  1  0
  6  7  2  0
  7  8  1  0
  8  9  2  0
  9 10  1  0
 10 11  1  0
 11 12  2  0
 12 13  1  0
 13 14  2  0
  4  2  1  0
 14  6  1  0
 13  9  1  0
M  END
>  <energy_score>  (1536) 
-20.90489

>  <alias>  (1536) 
None

>  <HIPPO Pose ID>  (1536) 
71871

>  <smiles>  (1536) 
F[C@H]1C[C@@H]1Nc1cnc2[nH]cnc2n1

>  <inchikey>  (1536) 
JFKYOMUTPSDGJP-WHFBIAKZSA-N

>  <distance_score>  (1536) 
0.843109

>  <ref_mols>  (1536) 
Z0875a,Z0089a

>  <ref_pdb>  (1536) 
Z0089a

>  <HIPPO Compound ID>  (1536) 
144602

>  <name>  (1536) 
P71871

>  <inspiration_score>  (1536) 
None

$$$$
P71875
     RDKit          3D

 14 16  0  0  0  0  0  0  0  0999 V2000
   -1.3304    5.7726  -17.2305 F   0  0  0  0  0  0  0  0  0  0  0  0
   -2.0353    5.9968  -18.3988 C   0  0  1  0  0  0  0  0  0  0  0  0
   -1.7276    5.1207  -19.5691 C   0  0  0  0  0  0  0  0  0  0  0  0
   -3.0196    4.9461  -18.8172 C   0  0  2  0  0  0  0  0  0  0  0  0
   -4.2947    5.3106  -19.4426 N   0  0  0  0  0  0  0  0  0  0  0  0
   -5.4772    5.0246  -18.7807 C   0  0  0  0  0  0  0  0  0  0  0  0
   -5.6707    5.2597  -17.4631 C   0  0  0  0  0  0  0  0  0  0  0  0
   -6.9017    4.9711  -16.9034 N   0  0  0  0  0  0  0  0  0  0  0  0
   -7.3733    5.1168  -15.6435 N   0  0  0  0  0  0  0  0  0  0  0  0
   -8.5966    4.5855  -15.7350 C   0  0  0  0  0  0  0  0  0  0  0  0
   -8.9824    4.2031  -16.9802 N   0  0  0  0  0  0  0  0  0  0  0  0
   -7.9047    4.4592  -17.6781 C   0  0  0  0  0  0  0  0  0  0  0  0
   -7.6506    4.2448  -19.0574 C   0  0  0  0  0  0  0  0  0  0  0  0
   -6.4817    4.4943  -19.5702 N   0  0  0  0  0  0  0  0  0  0  0  0
  2  1  1  1
  2  3  1  0
  3  4  1  0
  4  5  1  6
  5  6  1  0
  6  7  2  0
  7  8  1  0
  8  9  1  0
  9 10  2  0
 10 11  1  0
 11 12  2  0
 12 13  1  0
 13 14  2  0
  4  2  1  0
 14  6  1  0
 12  8  1  0
M  END
>  <energy_score>  (1537) 
-20.387964

>  <alias>  (1537) 
None

>  <HIPPO Pose ID>  (1537) 
71875

>  <smiles>  (1537) 
F[C@H]1C[C@@H]1Nc1cn2ncnc2cn1

>  <inchikey>  (1537) 
MKGXMOOWPVPNAI-WDSKDSINSA-N

>  <distance_score>  (1537) 
1.254117

>  <ref_mols>  (1537) 
Z0875a,Z0089a

>  <ref_pdb>  (1537) 
Z0089a

>  <HIPPO Compound ID>  (1537) 
144603

>  <name>  (1537) 
P71875

>  <inspiration_score>  (1537) 
None

$$$$
P71884
     RDKit          3D

 14 15  0  0  0  0  0  0  0  0999 V2000
  -10.2171    4.0889  -17.3905 C   0  0  0  0  0  0  0  0  0  0  0  0
   -8.7719    4.3889  -17.3162 C   0  0  0  0  0  0  0  0  0  0  0  0
   -8.1027    4.2957  -18.4758 N   0  0  0  0  0  0  0  0  0  0  0  0
   -6.8247    4.7365  -18.4715 C   0  0  0  0  0  0  0  0  0  0  0  0
   -6.1168    4.6638  -19.7694 C   0  0  0  0  0  0  0  0  0  0  0  0
   -6.2224    5.2741  -17.3381 C   0  0  0  0  0  0  0  0  0  0  0  0
   -4.9091    5.7908  -17.3310 N   0  0  0  0  0  0  0  0  0  0  0  0
   -4.4810    6.3547  -16.0299 C   0  0  2  0  0  0  0  0  0  0  0  0
   -3.1005    6.1692  -15.4733 C   0  0  0  0  0  0  0  0  0  0  0  0
   -4.2579    5.4710  -14.8335 C   0  0  1  0  0  0  0  0  0  0  0  0
   -4.6933    5.9299  -13.6046 F   0  0  0  0  0  0  0  0  0  0  0  0
   -6.9033    5.3489  -16.1901 N   0  0  0  0  0  0  0  0  0  0  0  0
   -8.1586    4.8821  -16.1753 C   0  0  0  0  0  0  0  0  0  0  0  0
   -8.8228    5.0447  -14.8727 C   0  0  0  0  0  0  0  0  0  0  0  0
  1  2  1  0
  2  3  2  0
  3  4  1  0
  4  5  1  0
  4  6  2  0
  6  7  1  0
  8  7  1  6
  8  9  1  0
  9 10  1  0
 10 11  1  1
  6 12  1  0
 12 13  2  0
 13 14  1  0
 13  2  1  0
 10  8  1  0
M  END
>  <energy_score>  (1538) 
-15.656956

>  <alias>  (1538) 
None

>  <HIPPO Pose ID>  (1538) 
71884

>  <smiles>  (1538) 
Cc1nc(C)c(N[C@@H]2C[C@H]2F)nc1C

>  <inchikey>  (1538) 
OAIOBMLSWXEVHO-RKDXNWHRSA-N

>  <distance_score>  (1538) 
1.49958

>  <ref_mols>  (1538) 
Z0875a,Z0089a

>  <ref_pdb>  (1538) 
Z0089a

>  <HIPPO Compound ID>  (1538) 
144605

>  <name>  (1538) 
P71884

>  <inspiration_score>  (1538) 
None

$$$$
P71887
     RDKit          3D

 14 16  0  0  0  0  0  0  0  0999 V2000
   -1.1137    5.6867  -17.5715 F   0  0  0  0  0  0  0  0  0  0  0  0
   -1.9202    6.0124  -18.6456 C   0  0  1  0  0  0  0  0  0  0  0  0
   -1.6779    5.3060  -19.9385 C   0  0  0  0  0  0  0  0  0  0  0  0
   -2.8856    4.9634  -19.1156 C   0  0  2  0  0  0  0  0  0  0  0  0
   -4.2326    5.3270  -19.5513 N   0  0  0  0  0  0  0  0  0  0  0  0
   -5.3080    5.1421  -18.6610 C   0  0  0  0  0  0  0  0  0  0  0  0
   -5.2155    5.3995  -17.2844 C   0  0  0  0  0  0  0  0  0  0  0  0
   -6.2241    5.2417  -16.3859 N   0  0  0  0  0  0  0  0  0  0  0  0
   -7.3346    4.7933  -17.0070 C   0  0  0  0  0  0  0  0  0  0  0  0
   -8.5285    4.4924  -16.4118 N   0  0  0  0  0  0  0  0  0  0  0  0
   -9.4475    4.1414  -17.3746 C   0  0  0  0  0  0  0  0  0  0  0  0
   -8.8101    4.1591  -18.5979 C   0  0  0  0  0  0  0  0  0  0  0  0
   -7.4735    4.5507  -18.3692 C   0  0  0  0  0  0  0  0  0  0  0  0
   -6.4438    4.7136  -19.2326 N   0  0  0  0  0  0  0  0  0  0  0  0
  2  1  1  1
  2  3  1  0
  3  4  1  0
  4  5  1  6
  5  6  1  0
  6  7  2  0
  7  8  1  0
  8  9  2  0
  9 10  1  0
 10 11  1  0
 11 12  2  0
 12 13  1  0
 13 14  2  0
  4  2  1  0
 14  6  1  0
 13  9  1  0
M  END
>  <energy_score>  (1539) 
-23.813055

>  <alias>  (1539) 
None

>  <HIPPO Pose ID>  (1539) 
71887

>  <smiles>  (1539) 
F[C@H]1C[C@@H]1Nc1cnc2[nH]ccc2n1

>  <inchikey>  (1539) 
XASVMHRHJGGCGI-FSPLSTOPSA-N

>  <distance_score>  (1539) 
0.819441

>  <ref_mols>  (1539) 
Z0875a,Z0089a

>  <ref_pdb>  (1539) 
Z0089a

>  <HIPPO Compound ID>  (1539) 
144606

>  <name>  (1539) 
P71887

>  <inspiration_score>  (1539) 
None

$$$$
P71893
     RDKit          3D

 14 16  0  0  0  0  0  0  0  0999 V2000
   -2.8697    6.9746  -17.7982 F   0  0  0  0  0  0  0  0  0  0  0  0
   -2.5167    6.4256  -19.0109 C   0  0  1  0  0  0  0  0  0  0  0  0
   -2.2761    4.9468  -19.1052 C   0  0  0  0  0  0  0  0  0  0  0  0
   -3.4818    5.5637  -19.7574 C   0  0  1  0  0  0  0  0  0  0  0  0
   -4.8563    5.1482  -19.4526 N   0  0  0  0  0  0  0  0  0  0  0  0
   -5.4842    4.9873  -18.2202 C   0  0  0  0  0  0  0  0  0  0  0  0
   -4.9391    5.1428  -16.9864 C   0  0  0  0  0  0  0  0  0  0  0  0
   -5.5897    4.9910  -15.7724 N   0  0  0  0  0  0  0  0  0  0  0  0
   -6.8512    4.6656  -15.7949 C   0  0  0  0  0  0  0  0  0  0  0  0
   -7.5329    4.4683  -17.0224 C   0  0  0  0  0  0  0  0  0  0  0  0
   -8.7817    4.1225  -17.2160 N   0  0  0  0  0  0  0  0  0  0  0  0
   -8.9358    3.9705  -18.5666 N   0  0  0  0  0  0  0  0  0  0  0  0
   -7.7733    4.2364  -19.1270 C   0  0  0  0  0  0  0  0  0  0  0  0
   -6.8471    4.6035  -18.1962 N   0  0  0  0  0  0  0  0  0  0  0  0
  2  1  1  1
  2  3  1  0
  3  4  1  0
  4  5  1  1
  5  6  1  0
  6  7  2  0
  7  8  1  0
  8  9  2  0
  9 10  1  0
 10 11  2  0
 11 12  1  0
 12 13  2  0
 13 14  1  0
  4  2  1  0
 14  6  1  0
 14 10  1  0
M  END
>  <energy_score>  (1540) 
-10.474052

>  <alias>  (1540) 
None

>  <HIPPO Pose ID>  (1540) 
71893

>  <smiles>  (1540) 
F[C@H]1C[C@H]1Nc1cncc2nncn12

>  <inchikey>  (1540) 
QPQJQUMNGKWJTP-NTSWFWBYSA-N

>  <distance_score>  (1540) 
1.766604

>  <ref_mols>  (1540) 
Z0875a,Z0089a

>  <ref_pdb>  (1540) 
Z0089a

>  <HIPPO Compound ID>  (1540) 
144607

>  <name>  (1540) 
P71893

>  <inspiration_score>  (1540) 
None

$$$$
P71897
     RDKit          3D

 14 15  0  0  0  0  0  0  0  0999 V2000
   -6.0972    4.8478  -19.8097 C   0  0  0  0  0  0  0  0  0  0  0  0
   -6.8561    4.8780  -18.5370 C   0  0  0  0  0  0  0  0  0  0  0  0
   -8.1301    4.3647  -18.6195 N   0  0  0  0  0  0  0  0  0  0  0  0
   -8.8932    4.1497  -17.5151 C   0  0  0  0  0  0  0  0  0  0  0  0
   -9.9966    3.6361  -17.5237 O   0  0  0  0  0  0  0  0  0  0  0  0
   -8.2026    4.6045  -16.2430 C   0  0  0  0  0  0  0  0  0  0  0  0
   -8.8896    4.4304  -14.9588 C   0  0  0  0  0  0  0  0  0  0  0  0
   -7.0346    5.1503  -16.2010 N   0  0  0  0  0  0  0  0  0  0  0  0
   -6.3272    5.2878  -17.3576 C   0  0  0  0  0  0  0  0  0  0  0  0
   -5.0708    5.8720  -17.2681 N   0  0  0  0  0  0  0  0  0  0  0  0
   -4.2010    5.4022  -16.1738 C   0  0  1  0  0  0  0  0  0  0  0  0
   -3.3557    6.4013  -15.4242 C   0  0  0  0  0  0  0  0  0  0  0  0
   -4.3972    5.6128  -14.7000 C   0  0  1  0  0  0  0  0  0  0  0  0
   -5.4718    6.3204  -14.2051 F   0  0  0  0  0  0  0  0  0  0  0  0
  1  2  1  0
  2  3  1  0
  3  4  1  0
  4  5  2  0
  4  6  1  0
  6  7  1  0
  6  8  2  0
  8  9  1  0
  9 10  1  0
 11 10  1  6
 11 12  1  0
 12 13  1  0
 13 14  1  6
  9  2  2  0
 13 11  1  0
M  END
>  <energy_score>  (1541) 
-11.163501

>  <alias>  (1541) 
None

>  <HIPPO Pose ID>  (1541) 
71897

>  <smiles>  (1541) 
Cc1[nH]c(=O)c(C)nc1N[C@H]1C[C@H]1F

>  <inchikey>  (1541) 
SBKYUGUJBFJSRZ-RQJHMYQMSA-N

>  <distance_score>  (1541) 
1.239189

>  <ref_mols>  (1541) 
Z0875a,Z0089a

>  <ref_pdb>  (1541) 
Z0089a

>  <HIPPO Compound ID>  (1541) 
144609

>  <name>  (1541) 
P71897

>  <inspiration_score>  (1541) 
None

$$$$
P71898
     RDKit          3D

 14 15  0  0  0  0  0  0  0  0999 V2000
   -1.6348    3.5045  -19.5101 C   0  0  0  0  0  0  0  0  0  0  0  0
   -2.2096    4.5549  -19.4720 C   0  0  0  0  0  0  0  0  0  0  0  0
   -2.9028    5.8112  -19.4697 C   0  0  0  0  0  0  0  0  0  0  0  0
   -4.3300    5.7070  -19.7280 N   0  0  0  0  0  0  0  0  0  0  0  0
   -5.2630    5.3036  -18.7760 C   0  0  0  0  0  0  0  0  0  0  0  0
   -5.1218    5.4769  -17.3975 C   0  0  0  0  0  0  0  0  0  0  0  0
   -6.1012    5.2045  -16.5006 N   0  0  0  0  0  0  0  0  0  0  0  0
   -7.2393    4.7137  -17.0533 C   0  0  0  0  0  0  0  0  0  0  0  0
   -8.3382    4.4239  -16.1307 C   0  0  0  0  0  0  0  0  0  0  0  0
   -9.4433    4.0854  -16.5342 O   0  0  0  0  0  0  0  0  0  0  0  0
   -7.3934    4.5130  -18.4114 C   0  0  0  0  0  0  0  0  0  0  0  0
   -6.4009    4.7972  -19.2844 N   0  0  0  0  0  0  0  0  0  0  0  0
   -2.1575    6.9620  -20.1115 C   0  0  0  0  0  0  0  0  0  0  0  0
   -2.3401    6.9343  -18.6289 C   0  0  0  0  0  0  0  0  0  0  0  0
  1  2  3  0
  2  3  1  0
  3  4  1  0
  4  5  1  0
  5  6  2  0
  6  7  1  0
  7  8  2  0
  8  9  1  0
  9 10  2  0
  8 11  1  0
 11 12  2  0
  3 13  1  0
 13 14  1  0
 14  3  1  0
 12  5  1  0
M  END
>  <energy_score>  (1542) 
-22.567771

>  <alias>  (1542) 
None

>  <HIPPO Pose ID>  (1542) 
71898

>  <smiles>  (1542) 
C#CC1(Nc2cnc(C=O)cn2)CC1

>  <inchikey>  (1542) 
GSTQRELNUIGWJF-UHFFFAOYSA-N

>  <distance_score>  (1542) 
0.731852

>  <ref_mols>  (1542) 
Z0875a,Z0089a

>  <ref_pdb>  (1542) 
Z0089a

>  <HIPPO Compound ID>  (1542) 
144610

>  <name>  (1542) 
P71898

>  <inspiration_score>  (1542) 
None

$$$$
P71899
     RDKit          3D

 14 14  0  0  0  0  0  0  0  0999 V2000
   -1.6585    3.6976  -19.7393 C   0  0  0  0  0  0  0  0  0  0  0  0
   -1.8977    5.1888  -19.8684 C   0  0  0  0  0  0  0  0  0  0  0  0
   -2.7996    5.7811  -18.7637 C   0  0  0  0  0  0  0  0  0  0  0  0
   -2.8937    7.2927  -18.9964 C   0  0  0  0  0  0  0  0  0  0  0  0
   -2.1509    5.4988  -17.4003 C   0  0  0  0  0  0  0  0  0  0  0  0
   -4.1212    5.1797  -18.9236 N   0  0  0  0  0  0  0  0  0  0  0  0
   -5.2345    5.2170  -18.1311 C   0  0  0  0  0  0  0  0  0  0  0  0
   -5.2898    5.6797  -16.8199 C   0  0  0  0  0  0  0  0  0  0  0  0
   -6.4005    5.6585  -16.0514 N   0  0  0  0  0  0  0  0  0  0  0  0
   -7.4770    5.1033  -16.6471 C   0  0  0  0  0  0  0  0  0  0  0  0
   -7.4717    4.6445  -17.9576 C   0  0  0  0  0  0  0  0  0  0  0  0
   -8.5512    4.1087  -18.6029 O   0  0  0  0  0  0  0  0  0  0  0  0
   -9.7209    3.9322  -17.8197 C   0  0  0  0  0  0  0  0  0  0  0  0
   -6.3461    4.7131  -18.7086 N   0  0  0  0  0  0  0  0  0  0  0  0
  1  2  1  0
  2  3  1  0
  3  4  1  0
  3  5  1  0
  3  6  1  0
  6  7  1  0
  7  8  2  0
  8  9  1  0
  9 10  2  0
 10 11  1  0
 11 12  1  0
 12 13  1  0
 11 14  2  0
 14  7  1  0
M  END
>  <energy_score>  (1543) 
-20.609787

>  <alias>  (1543) 
None

>  <HIPPO Pose ID>  (1543) 
71899

>  <smiles>  (1543) 
CCC(C)(C)Nc1cncc(OC)n1

>  <inchikey>  (1543) 
SBFJNOKLGGGHPG-UHFFFAOYSA-N

>  <distance_score>  (1543) 
0.934589

>  <ref_mols>  (1543) 
Z0875a,Z0089a

>  <ref_pdb>  (1543) 
Z0089a

>  <HIPPO Compound ID>  (1543) 
144611

>  <name>  (1543) 
P71899

>  <inspiration_score>  (1543) 
None

$$$$
P71903
     RDKit          3D

 14 15  0  0  0  0  0  0  0  0999 V2000
   -1.6274    3.5165  -19.5329 C   0  0  0  0  0  0  0  0  0  0  0  0
   -2.2317    4.5509  -19.5212 C   0  0  0  0  0  0  0  0  0  0  0  0
   -2.9676    5.7826  -19.5433 C   0  0  0  0  0  0  0  0  0  0  0  0
   -4.3999    5.6205  -19.7215 N   0  0  0  0  0  0  0  0  0  0  0  0
   -5.2787    5.2502  -18.7059 C   0  0  0  0  0  0  0  0  0  0  0  0
   -5.0082    5.3667  -17.3485 C   0  0  0  0  0  0  0  0  0  0  0  0
   -5.9181    5.1120  -16.3830 N   0  0  0  0  0  0  0  0  0  0  0  0
   -7.1400    4.7086  -16.8150 C   0  0  0  0  0  0  0  0  0  0  0  0
   -8.1658    4.4773  -15.7537 C   0  0  0  0  0  0  0  0  0  0  0  0
   -7.4219    4.5534  -18.1732 C   0  0  0  0  0  0  0  0  0  0  0  0
   -8.7676    4.1381  -18.6848 C   0  0  0  0  0  0  0  0  0  0  0  0
   -6.4859    4.8251  -19.1163 N   0  0  0  0  0  0  0  0  0  0  0  0
   -2.2923    6.9335  -20.2566 C   0  0  0  0  0  0  0  0  0  0  0  0
   -2.4102    6.9552  -18.7676 C   0  0  0  0  0  0  0  0  0  0  0  0
  1  2  3  0
  2  3  1  0
  3  4  1  0
  4  5  1  0
  5  6  2  0
  6  7  1  0
  7  8  2  0
  8  9  1  0
  8 10  1  0
 10 11  1  0
 10 12  2  0
  3 13  1  0
 13 14  1  0
 14  3  1  0
 12  5  1  0
M  END
>  <energy_score>  (1544) 
-29.224882

>  <alias>  (1544) 
None

>  <HIPPO Pose ID>  (1544) 
71903

>  <smiles>  (1544) 
C#CC1(Nc2cnc(C)c(C)n2)CC1

>  <inchikey>  (1544) 
VIGIKPGRCLSWTP-UHFFFAOYSA-N

>  <distance_score>  (1544) 
0.846819

>  <ref_mols>  (1544) 
Z0875a,Z0089a

>  <ref_pdb>  (1544) 
Z0089a

>  <HIPPO Compound ID>  (1544) 
144615

>  <name>  (1544) 
P71903

>  <inspiration_score>  (1544) 
None

$$$$
P71908
     RDKit          3D

 14 14  0  0  0  0  0  0  0  0999 V2000
   -2.1079    4.2257  -19.4206 C   0  0  0  0  0  0  0  0  0  0  0  0
   -2.6994    5.5779  -18.9980 C   0  0  0  0  0  0  0  0  0  0  0  0
   -2.2422    6.6499  -20.0050 C   0  0  0  0  0  0  0  0  0  0  0  0
   -2.1320    5.9615  -17.6099 C   0  0  0  0  0  0  0  0  0  0  0  0
   -0.7109    6.1064  -17.6243 O   0  0  0  0  0  0  0  0  0  0  0  0
   -4.1699    5.5163  -19.1160 N   0  0  0  0  0  0  0  0  0  0  0  0
   -5.1643    5.2840  -18.2045 C   0  0  0  0  0  0  0  0  0  0  0  0
   -5.1221    5.5972  -16.8442 C   0  0  0  0  0  0  0  0  0  0  0  0
   -6.1467    5.4187  -15.9760 N   0  0  0  0  0  0  0  0  0  0  0  0
   -7.2599    4.9004  -16.5241 C   0  0  0  0  0  0  0  0  0  0  0  0
   -7.3526    4.6120  -17.8737 C   0  0  0  0  0  0  0  0  0  0  0  0
   -8.6193    4.1590  -18.3540 C   0  0  0  0  0  0  0  0  0  0  0  0
   -9.7174    3.8187  -18.5147 N   0  0  0  0  0  0  0  0  0  0  0  0
   -6.3113    4.7945  -18.7318 N   0  0  0  0  0  0  0  0  0  0  0  0
  1  2  1  0
  2  3  1  0
  2  4  1  0
  4  5  1  0
  2  6  1  0
  6  7  1  0
  7  8  2  0
  8  9  1  0
  9 10  2  0
 10 11  1  0
 11 12  1  0
 12 13  3  0
 11 14  2  0
 14  7  1  0
M  END
>  <energy_score>  (1545) 
-21.985456

>  <alias>  (1545) 
None

>  <HIPPO Pose ID>  (1545) 
71908

>  <smiles>  (1545) 
CC(C)(CO)Nc1cncc(C#N)n1

>  <inchikey>  (1545) 
AXBMNAHFNUGKLM-UHFFFAOYSA-N

>  <distance_score>  (1545) 
0.817375

>  <ref_mols>  (1545) 
Z0875a,Z0089a

>  <ref_pdb>  (1545) 
Z0089a

>  <HIPPO Compound ID>  (1545) 
144620

>  <name>  (1545) 
P71908

>  <inspiration_score>  (1545) 
None

$$$$
P71910
     RDKit          3D

 14 16  0  0  0  0  0  0  0  0999 V2000
   -2.9499    6.0655  -17.1710 N   0  0  0  0  0  0  0  0  0  0  0  0
   -3.6982    5.6884  -18.3060 N   0  0  0  0  0  0  0  0  0  0  0  0
   -5.0299    5.2488  -18.1743 C   0  0  0  0  0  0  0  0  0  0  0  0
   -5.6371    5.3005  -16.9584 C   0  0  0  0  0  0  0  0  0  0  0  0
   -6.9467    4.9036  -16.8283 N   0  0  0  0  0  0  0  0  0  0  0  0
   -7.7872    4.8196  -15.7533 C   0  0  0  0  0  0  0  0  0  0  0  0
   -8.9597    4.3038  -16.2532 C   0  0  0  0  0  0  0  0  0  0  0  0
   -8.8822    4.1207  -17.6060 N   0  0  0  0  0  0  0  0  0  0  0  0
   -7.6552    4.4751  -17.9078 C   0  0  0  0  0  0  0  0  0  0  0  0
   -6.9852    4.4204  -19.1643 C   0  0  0  0  0  0  0  0  0  0  0  0
   -5.7367    4.7769  -19.2870 N   0  0  0  0  0  0  0  0  0  0  0  0
   -3.0059    5.4951  -19.5919 C   0  0  0  0  0  0  0  0  0  0  0  0
   -1.8961    4.4884  -19.7404 C   0  0  0  0  0  0  0  0  0  0  0  0
   -1.5930    5.9558  -19.8431 C   0  0  0  0  0  0  0  0  0  0  0  0
  1  2  1  0
  2  3  1  0
  3  4  2  0
  4  5  1  0
  5  6  1  0
  6  7  2  0
  7  8  1  0
  8  9  2  0
  9 10  1  0
 10 11  2  0
  2 12  1  0
 12 13  1  0
 13 14  1  0
 11  3  1  0
 14 12  1  0
  9  5  1  0
M  END
>  <energy_score>  (1546) 
-25.834857

>  <alias>  (1546) 
None

>  <HIPPO Pose ID>  (1546) 
71910

>  <smiles>  (1546) 
NN(c1cn2ccnc2cn1)C1CC1

>  <inchikey>  (1546) 
XSMXKTDMMGJULA-UHFFFAOYSA-N

>  <distance_score>  (1546) 
1.666173

>  <ref_mols>  (1546) 
Z0875a,Z0089a

>  <ref_pdb>  (1546) 
Z0089a

>  <HIPPO Compound ID>  (1546) 
144622

>  <name>  (1546) 
P71910

>  <inspiration_score>  (1546) 
None

$$$$
P71914
     RDKit          3D

 14 16  0  0  0  0  0  0  0  0999 V2000
   -4.0587    5.8942  -20.5254 N   0  0  0  0  0  0  0  0  0  0  0  0
   -4.0637    5.5531  -19.1523 N   0  0  0  0  0  0  0  0  0  0  0  0
   -5.2935    5.1187  -18.6223 C   0  0  0  0  0  0  0  0  0  0  0  0
   -5.5469    5.2131  -17.2906 C   0  0  0  0  0  0  0  0  0  0  0  0
   -6.8129    4.9114  -16.8318 N   0  0  0  0  0  0  0  0  0  0  0  0
   -7.4232    4.9465  -15.6138 C   0  0  0  0  0  0  0  0  0  0  0  0
   -8.6957    4.6347  -15.7341 N   0  0  0  0  0  0  0  0  0  0  0  0
   -8.9277    4.3417  -17.0585 N   0  0  0  0  0  0  0  0  0  0  0  0
   -7.7926    4.5179  -17.6860 C   0  0  0  0  0  0  0  0  0  0  0  0
   -7.4763    4.3779  -19.0607 C   0  0  0  0  0  0  0  0  0  0  0  0
   -6.2833    4.6605  -19.5006 N   0  0  0  0  0  0  0  0  0  0  0  0
   -2.8008    5.0514  -18.5765 C   0  0  0  0  0  0  0  0  0  0  0  0
   -1.5442    4.8741  -19.3919 C   0  0  0  0  0  0  0  0  0  0  0  0
   -1.6374    5.9907  -18.3936 C   0  0  0  0  0  0  0  0  0  0  0  0
  1  2  1  0
  2  3  1  0
  3  4  2  0
  4  5  1  0
  5  6  1  0
  6  7  2  0
  7  8  1  0
  8  9  2  0
  9 10  1  0
 10 11  2  0
  2 12  1  0
 12 13  1  0
 13 14  1  0
 11  3  1  0
 14 12  1  0
  9  5  1  0
M  END
>  <energy_score>  (1547) 
-13.922801

>  <alias>  (1547) 
None

>  <HIPPO Pose ID>  (1547) 
71914

>  <smiles>  (1547) 
NN(c1cn2cnnc2cn1)C1CC1

>  <inchikey>  (1547) 
XVEMGZNPRKADTB-UHFFFAOYSA-N

>  <distance_score>  (1547) 
1.680865

>  <ref_mols>  (1547) 
Z0875a,Z0089a

>  <ref_pdb>  (1547) 
Z0089a

>  <HIPPO Compound ID>  (1547) 
144626

>  <name>  (1547) 
P71914

>  <inspiration_score>  (1547) 
None

$$$$
P71915
     RDKit          3D

 14 16  0  0  0  0  0  0  0  0999 V2000
   -4.0650    5.8261  -20.5471 N   0  0  0  0  0  0  0  0  0  0  0  0
   -3.9195    5.2928  -19.2499 N   0  0  0  0  0  0  0  0  0  0  0  0
   -5.1113    5.1021  -18.4843 C   0  0  0  0  0  0  0  0  0  0  0  0
   -5.0872    5.1886  -17.0808 C   0  0  0  0  0  0  0  0  0  0  0  0
   -6.1546    5.0288  -16.2528 N   0  0  0  0  0  0  0  0  0  0  0  0
   -7.2541    4.7160  -16.9660 C   0  0  0  0  0  0  0  0  0  0  0  0
   -8.4830    4.4098  -16.4497 N   0  0  0  0  0  0  0  0  0  0  0  0
   -9.3659    4.1625  -17.4750 C   0  0  0  0  0  0  0  0  0  0  0  0
   -8.6753    4.2823  -18.6650 C   0  0  0  0  0  0  0  0  0  0  0  0
   -7.3397    4.6281  -18.3509 C   0  0  0  0  0  0  0  0  0  0  0  0
   -6.2669    4.8550  -19.1503 N   0  0  0  0  0  0  0  0  0  0  0  0
   -2.5761    5.1682  -18.6734 C   0  0  0  0  0  0  0  0  0  0  0  0
   -1.3246    5.2458  -19.5053 C   0  0  0  0  0  0  0  0  0  0  0  0
   -1.6607    6.3536  -18.5464 C   0  0  0  0  0  0  0  0  0  0  0  0
  1  2  1  0
  2  3  1  0
  3  4  2  0
  4  5  1  0
  5  6  2  0
  6  7  1  0
  7  8  1  0
  8  9  2  0
  9 10  1  0
 10 11  2  0
  2 12  1  0
 12 13  1  0
 13 14  1  0
 11  3  1  0
 14 12  1  0
 10  6  1  0
M  END
>  <energy_score>  (1548) 
-20.047604

>  <alias>  (1548) 
None

>  <HIPPO Pose ID>  (1548) 
71915

>  <smiles>  (1548) 
NN(c1cnc2[nH]ccc2n1)C1CC1

>  <inchikey>  (1548) 
MWUXNROAZCTPPF-UHFFFAOYSA-N

>  <distance_score>  (1548) 
0.840687

>  <ref_mols>  (1548) 
Z0875a,Z0089a

>  <ref_pdb>  (1548) 
Z0089a

>  <HIPPO Compound ID>  (1548) 
144627

>  <name>  (1548) 
P71915

>  <inspiration_score>  (1548) 
None

$$$$
P71917
     RDKit          3D

 14 16  0  0  0  0  0  0  0  0999 V2000
   -9.1321    3.6292  -16.0992 N   0  0  0  0  0  0  0  0  0  0  0  0
   -8.6342    3.8574  -17.3684 N   0  0  0  0  0  0  0  0  0  0  0  0
   -7.3671    4.4044  -17.6123 C   0  0  0  0  0  0  0  0  0  0  0  0
   -6.8870    4.4421  -18.8400 N   0  0  0  0  0  0  0  0  0  0  0  0
   -5.6532    4.9809  -19.1050 C   0  0  0  0  0  0  0  0  0  0  0  0
   -4.8488    5.4730  -18.1634 C   0  0  0  0  0  0  0  0  0  0  0  0
   -5.2965    5.4662  -16.8619 N   0  0  0  0  0  0  0  0  0  0  0  0
   -4.6686    5.9548  -15.7655 N   0  0  0  0  0  0  0  0  0  0  0  0
   -5.5482    5.7779  -14.7797 C   0  0  0  0  0  0  0  0  0  0  0  0
   -6.7255    5.1661  -15.2017 C   0  0  0  0  0  0  0  0  0  0  0  0
   -6.5416    4.9652  -16.5501 C   0  0  0  0  0  0  0  0  0  0  0  0
   -9.6150    3.7195  -18.4149 C   0  0  0  0  0  0  0  0  0  0  0  0
   -9.8725    4.7941  -19.3935 C   0  0  0  0  0  0  0  0  0  0  0  0
  -10.8801    4.5371  -18.3241 C   0  0  0  0  0  0  0  0  0  0  0  0
  1  2  1  0
  2  3  1  0
  3  4  2  0
  4  5  1  0
  5  6  2  0
  6  7  1  0
  7  8  1  0
  8  9  2  0
  9 10  1  0
 10 11  2  0
  2 12  1  0
 12 13  1  0
 13 14  1  0
 11  3  1  0
 14 12  1  0
 11  7  1  0
M  END
>  <energy_score>  (1549) 
-17.543595

>  <alias>  (1549) 
None

>  <HIPPO Pose ID>  (1549) 
71917

>  <smiles>  (1549) 
NN(c1nccn2nccc12)C1CC1

>  <inchikey>  (1549) 
SFGAOCLPGSRIDX-UHFFFAOYSA-N

>  <distance_score>  (1549) 
1.633839

>  <ref_mols>  (1549) 
Z0875a,Z0089a

>  <ref_pdb>  (1549) 
Z0089a

>  <HIPPO Compound ID>  (1549) 
144630

>  <name>  (1549) 
P71917

>  <inspiration_score>  (1549) 
None

$$$$
P71918
     RDKit          3D

 14 14  0  0  0  0  0  0  0  0999 V2000
   -9.3883    4.0639  -16.8852 C   0  0  0  0  0  0  0  0  0  0  0  0
   -8.1368    4.6379  -16.2528 C   0  0  0  0  0  0  0  0  0  0  0  0
   -7.0090    4.9662  -17.1843 C   0  0  0  0  0  0  0  0  0  0  0  0
   -6.9498    4.5663  -18.5113 C   0  0  0  0  0  0  0  0  0  0  0  0
   -5.8765    4.8035  -19.3054 N   0  0  0  0  0  0  0  0  0  0  0  0
   -4.8551    5.4926  -18.7749 C   0  0  0  0  0  0  0  0  0  0  0  0
   -3.8539    5.7890  -19.6736 N   0  0  0  0  0  0  0  0  0  0  0  0
   -2.4063    5.7594  -19.4127 C   0  0  0  0  0  0  0  0  0  0  0  0
   -1.9731    4.3776  -18.9275 C   0  0  0  0  0  0  0  0  0  0  0  0
   -1.9857    6.8526  -18.4238 C   0  0  0  0  0  0  0  0  0  0  0  0
   -1.6635    6.0884  -20.7484 C   0  0  0  0  0  0  0  0  0  0  0  0
   -1.6925    4.9984  -21.6715 O   0  0  0  0  0  0  0  0  0  0  0  0
   -4.9338    5.9108  -17.4514 C   0  0  0  0  0  0  0  0  0  0  0  0
   -5.9844    5.6591  -16.6328 N   0  0  0  0  0  0  0  0  0  0  0  0
  1  2  1  0
  2  3  1  0
  3  4  2  0
  4  5  1  0
  5  6  2  0
  6  7  1  0
  7  8  1  0
  8  9  1  0
  8 10  1  0
  8 11  1  0
 11 12  1  0
  6 13  1  0
 13 14  2  0
 14  3  1  0
M  END
>  <energy_score>  (1550) 
-40.608458

>  <alias>  (1550) 
None

>  <HIPPO Pose ID>  (1550) 
71918

>  <smiles>  (1550) 
CCc1cnc(NC(C)(C)CO)cn1

>  <inchikey>  (1550) 
FEESQIYQTRICOB-UHFFFAOYSA-N

>  <distance_score>  (1550) 
0.848538

>  <ref_mols>  (1550) 
Z0875a,Z0089a

>  <ref_pdb>  (1550) 
Z0089a

>  <HIPPO Compound ID>  (1550) 
144631

>  <name>  (1550) 
P71918

>  <inspiration_score>  (1550) 
None

$$$$
P71921
     RDKit          3D

 14 14  0  0  0  0  0  0  0  0999 V2000
   -4.3915    7.0684  -14.9517 C   0  0  0  0  0  0  0  0  0  0  0  0
   -4.9082    6.4589  -15.8501 C   0  0  0  0  0  0  0  0  0  0  0  0
   -5.5607    5.7054  -16.8813 C   0  0  0  0  0  0  0  0  0  0  0  0
   -6.7621    5.2372  -16.4596 N   0  0  0  0  0  0  0  0  0  0  0  0
   -7.5128    4.6198  -17.3949 C   0  0  0  0  0  0  0  0  0  0  0  0
   -7.0885    4.4774  -18.6984 C   0  0  0  0  0  0  0  0  0  0  0  0
   -5.8804    4.9204  -19.1158 N   0  0  0  0  0  0  0  0  0  0  0  0
   -5.1053    5.5500  -18.2051 C   0  0  0  0  0  0  0  0  0  0  0  0
   -3.9962    6.1240  -18.7980 N   0  0  0  0  0  0  0  0  0  0  0  0
   -2.5882    5.6910  -18.6261 C   0  0  0  0  0  0  0  0  0  0  0  0
   -2.3619    4.2951  -19.2125 C   0  0  0  0  0  0  0  0  0  0  0  0
   -1.7792    6.7013  -19.4716 C   0  0  0  0  0  0  0  0  0  0  0  0
   -2.0393    5.7828  -17.1833 C   0  0  0  0  0  0  0  0  0  0  0  0
   -2.3911    4.6844  -16.3490 O   0  0  0  0  0  0  0  0  0  0  0  0
  1  2  3  0
  2  3  1  0
  3  4  2  0
  4  5  1  0
  5  6  2  0
  6  7  1  0
  7  8  2  0
  8  9  1  0
  9 10  1  0
 10 11  1  0
 10 12  1  0
 10 13  1  0
 13 14  1  0
  8  3  1  0
M  END
>  <energy_score>  (1551) 
-27.082569

>  <alias>  (1551) 
None

>  <HIPPO Pose ID>  (1551) 
71921

>  <smiles>  (1551) 
C#Cc1nccnc1NC(C)(C)CO

>  <inchikey>  (1551) 
VNGDFNFHSNGCHS-UHFFFAOYSA-N

>  <distance_score>  (1551) 
0.98471

>  <ref_mols>  (1551) 
Z0875a,Z0089a

>  <ref_pdb>  (1551) 
Z0089a

>  <HIPPO Compound ID>  (1551) 
144634

>  <name>  (1551) 
P71921

>  <inspiration_score>  (1551) 
None

$$$$
P71923
     RDKit          3D

 14 14  0  0  0  0  0  0  0  0999 V2000
   -2.1172    4.2848  -19.3993 C   0  0  0  0  0  0  0  0  0  0  0  0
   -2.6363    5.7253  -19.4269 C   0  0  0  0  0  0  0  0  0  0  0  0
   -2.1125    6.4994  -18.2197 C   0  0  0  0  0  0  0  0  0  0  0  0
   -2.0735    6.4481  -20.6897 C   0  0  0  0  0  0  0  0  0  0  0  0
   -2.7508    6.0162  -21.8751 O   0  0  0  0  0  0  0  0  0  0  0  0
   -4.1021    5.7455  -19.5577 N   0  0  0  0  0  0  0  0  0  0  0  0
   -5.0554    5.3727  -18.6473 C   0  0  0  0  0  0  0  0  0  0  0  0
   -5.0875    5.6723  -17.2874 C   0  0  0  0  0  0  0  0  0  0  0  0
   -6.1360    5.3923  -16.4713 N   0  0  0  0  0  0  0  0  0  0  0  0
   -7.1822    4.7899  -17.0887 C   0  0  0  0  0  0  0  0  0  0  0  0
   -8.3462    4.4932  -16.2478 C   0  0  0  0  0  0  0  0  0  0  0  0
   -9.3966    4.0719  -16.7149 O   0  0  0  0  0  0  0  0  0  0  0  0
   -7.1826    4.4932  -18.4359 C   0  0  0  0  0  0  0  0  0  0  0  0
   -6.1119    4.7665  -19.2213 N   0  0  0  0  0  0  0  0  0  0  0  0
  1  2  1  0
  2  3  1  0
  2  4  1  0
  4  5  1  0
  2  6  1  0
  6  7  1  0
  7  8  2  0
  8  9  1  0
  9 10  2  0
 10 11  1  0
 11 12  2  0
 10 13  1  0
 13 14  2  0
 14  7  1  0
M  END
>  <energy_score>  (1552) 
-31.035763

>  <alias>  (1552) 
None

>  <HIPPO Pose ID>  (1552) 
71923

>  <smiles>  (1552) 
CC(C)(CO)Nc1cnc(C=O)cn1

>  <inchikey>  (1552) 
YUQCPAZQJVGDTK-UHFFFAOYSA-N

>  <distance_score>  (1552) 
0.740948

>  <ref_mols>  (1552) 
Z0875a,Z0089a

>  <ref_pdb>  (1552) 
Z0089a

>  <HIPPO Compound ID>  (1552) 
144636

>  <name>  (1552) 
P71923

>  <inspiration_score>  (1552) 
None

$$$$
P71925
     RDKit          3D

 14 14  0  0  0  0  0  0  0  0999 V2000
   -2.2515    4.2906  -19.2645 C   0  0  0  0  0  0  0  0  0  0  0  0
   -2.5914    5.7792  -19.2216 C   0  0  0  0  0  0  0  0  0  0  0  0
   -1.9351    6.4426  -18.0185 C   0  0  0  0  0  0  0  0  0  0  0  0
   -1.9829    6.4725  -20.4884 C   0  0  0  0  0  0  0  0  0  0  0  0
   -2.5120    5.9410  -21.7135 O   0  0  0  0  0  0  0  0  0  0  0  0
   -4.0477    6.0277  -19.2698 N   0  0  0  0  0  0  0  0  0  0  0  0
   -5.0456    5.4798  -18.4934 C   0  0  0  0  0  0  0  0  0  0  0  0
   -5.9644    4.8763  -19.2827 N   0  0  0  0  0  0  0  0  0  0  0  0
   -7.1180    4.4513  -18.7211 C   0  0  0  0  0  0  0  0  0  0  0  0
   -7.3608    4.5804  -17.3750 C   0  0  0  0  0  0  0  0  0  0  0  0
   -6.4682    5.1569  -16.5462 N   0  0  0  0  0  0  0  0  0  0  0  0
   -5.3092    5.6063  -17.1192 C   0  0  0  0  0  0  0  0  0  0  0  0
   -4.5141    6.3372  -16.1751 C   0  0  0  0  0  0  0  0  0  0  0  0
   -3.9046    6.9299  -15.3787 N   0  0  0  0  0  0  0  0  0  0  0  0
  1  2  1  0
  2  3  1  0
  2  4  1  0
  4  5  1  0
  2  6  1  0
  6  7  1  0
  7  8  2  0
  8  9  1  0
  9 10  2  0
 10 11  1  0
 11 12  2  0
 12 13  1  0
 13 14  3  0
 12  7  1  0
M  END
>  <energy_score>  (1553) 
-17.440533

>  <alias>  (1553) 
None

>  <HIPPO Pose ID>  (1553) 
71925

>  <smiles>  (1553) 
CC(C)(CO)Nc1nccnc1C#N

>  <inchikey>  (1553) 
ORERQJVEGACRMU-UHFFFAOYSA-N

>  <distance_score>  (1553) 
0.914359

>  <ref_mols>  (1553) 
Z0875a,Z0089a

>  <ref_pdb>  (1553) 
Z0089a

>  <HIPPO Compound ID>  (1553) 
144638

>  <name>  (1553) 
P71925

>  <inspiration_score>  (1553) 
None

$$$$
P71926
     RDKit          3D

 14 14  0  0  0  0  0  0  0  0999 V2000
   -9.2509    4.1986  -16.5521 C   0  0  0  0  0  0  0  0  0  0  0  0
   -8.1811    5.0598  -16.2064 O   0  0  0  0  0  0  0  0  0  0  0  0
   -7.1442    5.0955  -17.0838 C   0  0  0  0  0  0  0  0  0  0  0  0
   -7.1629    4.6728  -18.4043 C   0  0  0  0  0  0  0  0  0  0  0  0
   -6.0819    4.7682  -19.2193 N   0  0  0  0  0  0  0  0  0  0  0  0
   -4.9756    5.3289  -18.7055 C   0  0  0  0  0  0  0  0  0  0  0  0
   -3.9650    5.4776  -19.6169 N   0  0  0  0  0  0  0  0  0  0  0  0
   -2.5333    5.6556  -19.3760 C   0  0  0  0  0  0  0  0  0  0  0  0
   -1.9758    4.6331  -18.4043 C   0  0  0  0  0  0  0  0  0  0  0  0
   -2.2477    7.0936  -18.9195 C   0  0  0  0  0  0  0  0  0  0  0  0
   -1.7773    5.4360  -20.7152 C   0  0  0  0  0  0  0  0  0  0  0  0
   -2.5230    5.9500  -21.8259 O   0  0  0  0  0  0  0  0  0  0  0  0
   -4.9752    5.7520  -17.3810 C   0  0  0  0  0  0  0  0  0  0  0  0
   -6.0407    5.6582  -16.5529 N   0  0  0  0  0  0  0  0  0  0  0  0
  1  2  1  0
  2  3  1  0
  3  4  2  0
  4  5  1  0
  5  6  2  0
  6  7  1  0
  7  8  1  0
  8  9  1  0
  8 10  1  0
  8 11  1  0
 11 12  1  0
  6 13  1  0
 13 14  2  0
 14  3  1  0
M  END
>  <energy_score>  (1554) 
-22.097586

>  <alias>  (1554) 
None

>  <HIPPO Pose ID>  (1554) 
71926

>  <smiles>  (1554) 
COc1cnc(NC(C)(C)CO)cn1

>  <inchikey>  (1554) 
IESLVBOOEZQMDV-UHFFFAOYSA-N

>  <distance_score>  (1554) 
0.790022

>  <ref_mols>  (1554) 
Z0875a,Z0089a

>  <ref_pdb>  (1554) 
Z0089a

>  <HIPPO Compound ID>  (1554) 
144640

>  <name>  (1554) 
P71926

>  <inspiration_score>  (1554) 
None

$$$$
P71927
     RDKit          3D

 14 14  0  0  0  0  0  0  0  0999 V2000
   -9.6105    4.0497  -17.8760 C   0  0  0  0  0  0  0  0  0  0  0  0
   -8.5241    4.3421  -18.7408 O   0  0  0  0  0  0  0  0  0  0  0  0
   -7.3229    4.6257  -18.1526 C   0  0  0  0  0  0  0  0  0  0  0  0
   -7.1084    4.7126  -16.7852 C   0  0  0  0  0  0  0  0  0  0  0  0
   -5.9070    5.0146  -16.2463 N   0  0  0  0  0  0  0  0  0  0  0  0
   -4.9173    5.2000  -17.1509 C   0  0  0  0  0  0  0  0  0  0  0  0
   -5.0876    5.1450  -18.5335 C   0  0  0  0  0  0  0  0  0  0  0  0
   -4.1195    5.3892  -19.4752 N   0  0  0  0  0  0  0  0  0  0  0  0
   -2.7127    5.7811  -19.3340 C   0  0  0  0  0  0  0  0  0  0  0  0
   -1.9112    4.6108  -18.7630 C   0  0  0  0  0  0  0  0  0  0  0  0
   -2.5636    7.0510  -18.4826 C   0  0  0  0  0  0  0  0  0  0  0  0
   -2.1260    6.1685  -20.7282 C   0  0  0  0  0  0  0  0  0  0  0  0
   -1.8693    5.0439  -21.5660 O   0  0  0  0  0  0  0  0  0  0  0  0
   -6.3074    4.8461  -19.0275 N   0  0  0  0  0  0  0  0  0  0  0  0
  1  2  1  0
  2  3  1  0
  3  4  2  0
  4  5  1  0
  5  6  2  0
  6  7  1  0
  7  8  1  0
  8  9  1  0
  9 10  1  0
  9 11  1  0
  9 12  1  0
 12 13  1  0
  7 14  2  0
 14  3  1  0
M  END
>  <energy_score>  (1555) 
-23.767133

>  <alias>  (1555) 
None

>  <HIPPO Pose ID>  (1555) 
71927

>  <smiles>  (1555) 
COc1cncc(NC(C)(C)CO)n1

>  <inchikey>  (1555) 
WMROZEOWOJLIHN-UHFFFAOYSA-N

>  <distance_score>  (1555) 
0.760488

>  <ref_mols>  (1555) 
Z0875a,Z0089a

>  <ref_pdb>  (1555) 
Z0089a

>  <HIPPO Compound ID>  (1555) 
144641

>  <name>  (1555) 
P71927

>  <inspiration_score>  (1555) 
None

$$$$
P71930
     RDKit          3D

 14 14  0  0  0  0  0  0  0  0999 V2000
   -1.2739    4.2561  -19.5748 C   0  0  0  0  0  0  0  0  0  0  0  0
   -2.7139    4.6067  -19.2683 C   0  0  0  0  0  0  0  0  0  0  0  0
   -2.9949    6.1003  -19.0346 C   0  0  0  0  0  0  0  0  0  0  0  0
   -2.2907    6.6323  -17.7915 C   0  0  0  0  0  0  0  0  0  0  0  0
   -2.4818    6.9402  -20.2336 C   0  0  0  0  0  0  0  0  0  0  0  0
   -4.4432    6.3552  -18.9939 N   0  0  0  0  0  0  0  0  0  0  0  0
   -5.3679    5.6346  -18.2609 C   0  0  0  0  0  0  0  0  0  0  0  0
   -6.2874    5.0842  -19.0864 N   0  0  0  0  0  0  0  0  0  0  0  0
   -7.3679    4.5094  -18.5226 C   0  0  0  0  0  0  0  0  0  0  0  0
   -7.5305    4.4555  -17.1574 C   0  0  0  0  0  0  0  0  0  0  0  0
   -6.6190    4.9640  -16.3020 N   0  0  0  0  0  0  0  0  0  0  0  0
   -5.5288    5.5489  -16.8620 C   0  0  0  0  0  0  0  0  0  0  0  0
   -4.6508    6.1671  -15.9966 O   0  0  0  0  0  0  0  0  0  0  0  0
   -4.8732    5.8250  -14.6252 C   0  0  0  0  0  0  0  0  0  0  0  0
  1  2  1  0
  2  3  1  0
  3  4  1  0
  3  5  1  0
  3  6  1  0
  6  7  1  0
  7  8  2  0
  8  9  1  0
  9 10  2  0
 10 11  1  0
 11 12  2  0
 12 13  1  0
 13 14  1  0
 12  7  1  0
M  END
>  <energy_score>  (1556) 
-16.141316

>  <alias>  (1556) 
None

>  <HIPPO Pose ID>  (1556) 
71930

>  <smiles>  (1556) 
CCC(C)(C)Nc1nccnc1OC

>  <inchikey>  (1556) 
LRDFBJHYVZWUNB-UHFFFAOYSA-N

>  <distance_score>  (1556) 
1.032565

>  <ref_mols>  (1556) 
Z0875a,Z0089a

>  <ref_pdb>  (1556) 
Z0089a

>  <HIPPO Compound ID>  (1556) 
144644

>  <name>  (1556) 
P71930

>  <inspiration_score>  (1556) 
None

$$$$
P71938
     RDKit          3D

 14 14  0  0  0  0  0  0  0  0999 V2000
   -8.4977    4.7484  -15.9170 C   0  0  0  0  0  0  0  0  0  0  0  0
   -7.3385    4.9175  -16.8458 C   0  0  0  0  0  0  0  0  0  0  0  0
   -6.1844    5.3423  -16.2759 N   0  0  0  0  0  0  0  0  0  0  0  0
   -5.1039    5.3648  -17.0883 C   0  0  0  0  0  0  0  0  0  0  0  0
   -5.1389    5.0247  -18.4358 C   0  0  0  0  0  0  0  0  0  0  0  0
   -4.0586    4.9813  -19.2779 N   0  0  0  0  0  0  0  0  0  0  0  0
   -2.7026    5.3795  -18.9613 C   0  0  1  0  0  0  0  0  0  0  0  0
   -1.7437    4.3791  -19.6055 C   0  0  0  0  0  0  0  0  0  0  0  0
   -2.4736    6.8191  -19.4372 C   0  0  0  0  0  0  0  0  0  0  0  0
   -1.0990    7.3545  -19.0591 C   0  0  0  0  0  0  0  0  0  0  0  0
   -0.9538    9.0660  -19.5290 Cl  0  0  0  0  0  0  0  0  0  0  0  0
   -6.3024    4.6514  -18.9968 N   0  0  0  0  0  0  0  0  0  0  0  0
   -7.4027    4.5800  -18.1988 C   0  0  0  0  0  0  0  0  0  0  0  0
   -8.6789    4.1341  -18.8473 C   0  0  0  0  0  0  0  0  0  0  0  0
  1  2  1  0
  2  3  2  0
  3  4  1  0
  4  5  2  0
  5  6  1  0
  6  7  1  0
  7  8  1  6
  7  9  1  0
  9 10  1  0
 10 11  1  0
  5 12  1  0
 12 13  2  0
 13 14  1  0
 13  2  1  0
M  END
>  <energy_score>  (1557) 
-22.099606

>  <alias>  (1557) 
None

>  <HIPPO Pose ID>  (1557) 
71938

>  <smiles>  (1557) 
Cc1ncc(N[C@@H](C)CCCl)nc1C

>  <inchikey>  (1557) 
LEXYAKBPEKSBCI-ZETCQYMHSA-N

>  <distance_score>  (1557) 
0.759819

>  <ref_mols>  (1557) 
Z0875a,Z0089a

>  <ref_pdb>  (1557) 
Z0089a

>  <HIPPO Compound ID>  (1557) 
144651

>  <name>  (1557) 
P71938

>  <inspiration_score>  (1557) 
None

$$$$
P71940
     RDKit          3D

 14 14  0  0  0  0  0  0  0  0999 V2000
   -1.8200    4.2209  -19.5616 C   0  0  0  0  0  0  0  0  0  0  0  0
   -2.3367    5.5728  -19.0854 C   0  0  1  0  0  0  0  0  0  0  0  0
   -1.4958    6.7750  -19.5414 C   0  0  0  0  0  0  0  0  0  0  0  0
   -1.7648    7.3429  -20.9333 C   0  0  0  0  0  0  0  0  0  0  0  0
   -1.3486    6.2234  -22.2446 Cl  0  0  0  0  0  0  0  0  0  0  0  0
   -3.7179    5.7839  -19.4892 N   0  0  0  0  0  0  0  0  0  0  0  0
   -4.7142    5.4769  -18.5853 C   0  0  0  0  0  0  0  0  0  0  0  0
   -4.7149    5.8546  -17.2466 C   0  0  0  0  0  0  0  0  0  0  0  0
   -5.7040    5.5392  -16.3878 N   0  0  0  0  0  0  0  0  0  0  0  0
   -6.7384    4.8387  -16.9154 C   0  0  0  0  0  0  0  0  0  0  0  0
   -7.7771    4.4088  -15.9364 C   0  0  0  0  0  0  0  0  0  0  0  0
   -9.4794    4.0734  -16.7655 Br  0  0  0  0  0  0  0  0  0  0  0  0
   -6.7480    4.4969  -18.2644 C   0  0  0  0  0  0  0  0  0  0  0  0
   -5.7427    4.8043  -19.1087 N   0  0  0  0  0  0  0  0  0  0  0  0
  2  1  1  6
  2  3  1  0
  3  4  1  0
  4  5  1  0
  2  6  1  0
  6  7  1  0
  7  8  2  0
  8  9  1  0
  9 10  2  0
 10 11  1  0
 11 12  1  0
 10 13  1  0
 13 14  2  0
 14  7  1  0
M  END
>  <energy_score>  (1558) 
-14.879607

>  <alias>  (1558) 
None

>  <HIPPO Pose ID>  (1558) 
71940

>  <smiles>  (1558) 
C[C@@H](CCCl)Nc1cnc(CBr)cn1

>  <inchikey>  (1558) 
INXFOTBCVXYOMC-ZETCQYMHSA-N

>  <distance_score>  (1558) 
0.8813

>  <ref_mols>  (1558) 
Z0875a,Z0089a

>  <ref_pdb>  (1558) 
Z0089a

>  <HIPPO Compound ID>  (1558) 
144652

>  <name>  (1558) 
P71940

>  <inspiration_score>  (1558) 
None

$$$$
P71942
     RDKit          3D

 14 14  0  0  0  0  0  0  0  0999 V2000
   -2.2381    4.2590  -19.2158 C   0  0  0  0  0  0  0  0  0  0  0  0
   -2.7590    5.5397  -18.5669 C   0  0  1  0  0  0  0  0  0  0  0  0
   -1.9041    6.7722  -18.9199 C   0  0  0  0  0  0  0  0  0  0  0  0
   -2.1722    7.4627  -20.2566 C   0  0  0  0  0  0  0  0  0  0  0  0
   -1.8119    6.4503  -21.6732 Cl  0  0  0  0  0  0  0  0  0  0  0  0
   -4.1379    5.8005  -18.9503 N   0  0  0  0  0  0  0  0  0  0  0  0
   -5.2300    5.3727  -18.2353 C   0  0  0  0  0  0  0  0  0  0  0  0
   -6.1401    4.8299  -19.0804 N   0  0  0  0  0  0  0  0  0  0  0  0
   -7.3360    4.4569  -18.5782 C   0  0  0  0  0  0  0  0  0  0  0  0
   -7.6286    4.5794  -17.2407 C   0  0  0  0  0  0  0  0  0  0  0  0
   -6.7489    5.1025  -16.3619 N   0  0  0  0  0  0  0  0  0  0  0  0
   -5.5460    5.5056  -16.8737 C   0  0  0  0  0  0  0  0  0  0  0  0
   -4.7373    6.1652  -15.8090 C   0  0  0  0  0  0  0  0  0  0  0  0
   -3.7266    6.8392  -15.9519 O   0  0  0  0  0  0  0  0  0  0  0  0
  2  1  1  6
  2  3  1  0
  3  4  1  0
  4  5  1  0
  2  6  1  0
  6  7  1  0
  7  8  2  0
  8  9  1  0
  9 10  2  0
 10 11  1  0
 11 12  2  0
 12 13  1  0
 13 14  2  0
 12  7  1  0
M  END
>  <energy_score>  (1559) 
-23.172375

>  <alias>  (1559) 
None

>  <HIPPO Pose ID>  (1559) 
71942

>  <smiles>  (1559) 
C[C@@H](CCCl)Nc1nccnc1C=O

>  <inchikey>  (1559) 
CSILACYNXCWXOT-ZETCQYMHSA-N

>  <distance_score>  (1559) 
0.910464

>  <ref_mols>  (1559) 
Z0875a,Z0089a

>  <ref_pdb>  (1559) 
Z0089a

>  <HIPPO Compound ID>  (1559) 
144653

>  <name>  (1559) 
P71942

>  <inspiration_score>  (1559) 
None

$$$$
P71944
     RDKit          3D

 14 14  0  0  0  0  0  0  0  0999 V2000
   -1.9252    4.1397  -19.5457 C   0  0  0  0  0  0  0  0  0  0  0  0
   -2.7110    5.2993  -18.9414 C   0  0  1  0  0  0  0  0  0  0  0  0
   -2.2100    6.6704  -19.4259 C   0  0  0  0  0  0  0  0  0  0  0  0
   -0.7572    6.9933  -19.0911 C   0  0  0  0  0  0  0  0  0  0  0  0
   -0.4709    7.0348  -17.3363 Cl  0  0  0  0  0  0  0  0  0  0  0  0
   -4.1213    5.1880  -19.2976 N   0  0  0  0  0  0  0  0  0  0  0  0
   -5.1480    5.1664  -18.3783 C   0  0  0  0  0  0  0  0  0  0  0  0
   -5.0405    5.6620  -17.0720 C   0  0  0  0  0  0  0  0  0  0  0  0
   -6.0473    5.6502  -16.1674 N   0  0  0  0  0  0  0  0  0  0  0  0
   -7.1944    5.1038  -16.6185 C   0  0  0  0  0  0  0  0  0  0  0  0
   -7.3416    4.6403  -17.9160 C   0  0  0  0  0  0  0  0  0  0  0  0
   -8.6263    4.1417  -18.2970 C   0  0  0  0  0  0  0  0  0  0  0  0
   -9.7227    3.7723  -18.3976 N   0  0  0  0  0  0  0  0  0  0  0  0
   -6.3233    4.6634  -18.8167 N   0  0  0  0  0  0  0  0  0  0  0  0
  2  1  1  6
  2  3  1  0
  3  4  1  0
  4  5  1  0
  2  6  1  0
  6  7  1  0
  7  8  2  0
  8  9  1  0
  9 10  2  0
 10 11  1  0
 11 12  1  0
 12 13  3  0
 11 14  2  0
 14  7  1  0
M  END
>  <energy_score>  (1560) 
-20.558443

>  <alias>  (1560) 
None

>  <HIPPO Pose ID>  (1560) 
71944

>  <smiles>  (1560) 
C[C@@H](CCCl)Nc1cncc(C#N)n1

>  <inchikey>  (1560) 
GMIUIZFLILCARB-ZETCQYMHSA-N

>  <distance_score>  (1560) 
0.725844

>  <ref_mols>  (1560) 
Z0875a,Z0089a

>  <ref_pdb>  (1560) 
Z0089a

>  <HIPPO Compound ID>  (1560) 
144654

>  <name>  (1560) 
P71944

>  <inspiration_score>  (1560) 
None

$$$$
P71946
     RDKit          3D

 14 14  0  0  0  0  0  0  0  0999 V2000
   -9.4551    4.0628  -16.8282 C   0  0  0  0  0  0  0  0  0  0  0  0
   -8.2326    4.6873  -16.1897 C   0  0  0  0  0  0  0  0  0  0  0  0
   -7.0964    4.9991  -17.1150 C   0  0  0  0  0  0  0  0  0  0  0  0
   -7.0326    4.5652  -18.4342 C   0  0  0  0  0  0  0  0  0  0  0  0
   -5.9365    4.7282  -19.2092 N   0  0  0  0  0  0  0  0  0  0  0  0
   -4.8992    5.3664  -18.6523 C   0  0  0  0  0  0  0  0  0  0  0  0
   -3.8035    5.5120  -19.4885 N   0  0  0  0  0  0  0  0  0  0  0  0
   -2.4710    5.3727  -18.9094 C   0  0  1  0  0  0  0  0  0  0  0  0
   -1.6692    4.3536  -19.7122 C   0  0  0  0  0  0  0  0  0  0  0  0
   -1.8186    6.7675  -18.9395 C   0  0  0  0  0  0  0  0  0  0  0  0
   -0.4282    6.8517  -18.3192 C   0  0  0  0  0  0  0  0  0  0  0  0
   -0.4475    6.4637  -16.5838 Cl  0  0  0  0  0  0  0  0  0  0  0  0
   -4.9852    5.8546  -17.3503 C   0  0  0  0  0  0  0  0  0  0  0  0
   -6.0664    5.6841  -16.5583 N   0  0  0  0  0  0  0  0  0  0  0  0
  1  2  1  0
  2  3  1  0
  3  4  2  0
  4  5  1  0
  5  6  2  0
  6  7  1  0
  7  8  1  0
  8  9  1  6
  8 10  1  0
 10 11  1  0
 11 12  1  0
  6 13  1  0
 13 14  2  0
 14  3  1  0
M  END
>  <energy_score>  (1561) 
-32.390125

>  <alias>  (1561) 
None

>  <HIPPO Pose ID>  (1561) 
71946

>  <smiles>  (1561) 
CCc1cnc(N[C@@H](C)CCCl)cn1

>  <inchikey>  (1561) 
INTQMLJVUUDAEF-QMMMGPOBSA-N

>  <distance_score>  (1561) 
0.762078

>  <ref_mols>  (1561) 
Z0875a,Z0089a

>  <ref_pdb>  (1561) 
Z0089a

>  <HIPPO Compound ID>  (1561) 
144655

>  <name>  (1561) 
P71946

>  <inspiration_score>  (1561) 
None

$$$$
P71947
     RDKit          3D

 14 14  0  0  0  0  0  0  0  0999 V2000
   -8.9284    4.4608  -15.4874 C   0  0  0  0  0  0  0  0  0  0  0  0
   -8.0703    4.6781  -16.2923 C   0  0  0  0  0  0  0  0  0  0  0  0
   -7.0035    4.8879  -17.1968 C   0  0  0  0  0  0  0  0  0  0  0  0
   -7.1193    4.6408  -18.5476 C   0  0  0  0  0  0  0  0  0  0  0  0
   -6.0834    4.8454  -19.3889 N   0  0  0  0  0  0  0  0  0  0  0  0
   -4.9378    5.3072  -18.8574 C   0  0  0  0  0  0  0  0  0  0  0  0
   -3.9939    5.5918  -19.8026 N   0  0  0  0  0  0  0  0  0  0  0  0
   -2.5482    5.5372  -19.7062 C   0  0  2  0  0  0  0  0  0  0  0  0
   -1.9990    4.4622  -18.7910 C   0  0  0  0  0  0  0  0  0  0  0  0
   -1.9279    6.9286  -19.5206 C   0  0  0  0  0  0  0  0  0  0  0  0
   -2.1864    7.6106  -18.1895 C   0  0  0  0  0  0  0  0  0  0  0  0
   -1.2912    9.1520  -18.1027 Cl  0  0  0  0  0  0  0  0  0  0  0  0
   -4.8441    5.5243  -17.4867 C   0  0  0  0  0  0  0  0  0  0  0  0
   -5.8676    5.3403  -16.6255 N   0  0  0  0  0  0  0  0  0  0  0  0
  1  2  3  0
  2  3  1  0
  3  4  2  0
  4  5  1  0
  5  6  2  0
  6  7  1  0
  7  8  1  0
  8  9  1  1
  8 10  1  0
 10 11  1  0
 11 12  1  0
  6 13  1  0
 13 14  2  0
 14  3  1  0
M  END
>  <energy_score>  (1562) 
-23.215388

>  <alias>  (1562) 
None

>  <HIPPO Pose ID>  (1562) 
71947

>  <smiles>  (1562) 
C#Cc1cnc(N[C@H](C)CCCl)cn1

>  <inchikey>  (1562) 
UWRBJCCRHGZVLF-MRVPVSSYSA-N

>  <distance_score>  (1562) 
1.033683

>  <ref_mols>  (1562) 
Z0875a,Z0089a

>  <ref_pdb>  (1562) 
Z0089a

>  <HIPPO Compound ID>  (1562) 
144656

>  <name>  (1562) 
P71947

>  <inspiration_score>  (1562) 
None

$$$$
P71950
     RDKit          3D

 14 14  0  0  0  0  0  0  0  0999 V2000
   -9.7785    4.0062  -18.2499 C   0  0  0  0  0  0  0  0  0  0  0  0
   -8.6099    4.2506  -18.1310 C   0  0  0  0  0  0  0  0  0  0  0  0
   -7.3003    4.6714  -17.7572 C   0  0  0  0  0  0  0  0  0  0  0  0
   -7.1082    5.1306  -16.4623 C   0  0  0  0  0  0  0  0  0  0  0  0
   -5.9438    5.6623  -16.0430 N   0  0  0  0  0  0  0  0  0  0  0  0
   -4.9730    5.6677  -16.9836 C   0  0  0  0  0  0  0  0  0  0  0  0
   -5.1256    5.1694  -18.2865 C   0  0  0  0  0  0  0  0  0  0  0  0
   -4.1169    5.1814  -19.2330 N   0  0  0  0  0  0  0  0  0  0  0  0
   -2.7074    5.2709  -18.8823 C   0  0  1  0  0  0  0  0  0  0  0  0
   -1.8864    4.2138  -19.6106 C   0  0  0  0  0  0  0  0  0  0  0  0
   -2.1997    6.6988  -19.1432 C   0  0  0  0  0  0  0  0  0  0  0  0
   -2.3263    7.1463  -20.5937 C   0  0  0  0  0  0  0  0  0  0  0  0
   -1.7113    8.8090  -20.7802 Cl  0  0  0  0  0  0  0  0  0  0  0  0
   -6.3185    4.6801  -18.6905 N   0  0  0  0  0  0  0  0  0  0  0  0
  1  2  3  0
  2  3  1  0
  3  4  2  0
  4  5  1  0
  5  6  2  0
  6  7  1  0
  7  8  1  0
  8  9  1  0
  9 10  1  6
  9 11  1  0
 11 12  1  0
 12 13  1  0
  7 14  2  0
 14  3  1  0
M  END
>  <energy_score>  (1563) 
-32.917708

>  <alias>  (1563) 
None

>  <HIPPO Pose ID>  (1563) 
71950

>  <smiles>  (1563) 
C#Cc1cncc(N[C@@H](C)CCCl)n1

>  <inchikey>  (1563) 
IQNFOMMEKPCOJR-QMMMGPOBSA-N

>  <distance_score>  (1563) 
1.042751

>  <ref_mols>  (1563) 
Z0875a,Z0089a

>  <ref_pdb>  (1563) 
Z0089a

>  <HIPPO Compound ID>  (1563) 
144657

>  <name>  (1563) 
P71950

>  <inspiration_score>  (1563) 
None

$$$$
P71952
     RDKit          3D

 14 14  0  0  0  0  0  0  0  0999 V2000
   -3.8362    6.7447  -15.1425 C   0  0  0  0  0  0  0  0  0  0  0  0
   -4.5070    6.1863  -15.9688 C   0  0  0  0  0  0  0  0  0  0  0  0
   -5.3539    5.5220  -16.9153 C   0  0  0  0  0  0  0  0  0  0  0  0
   -6.4967    5.0879  -16.3272 N   0  0  0  0  0  0  0  0  0  0  0  0
   -7.4227    4.5640  -17.1550 C   0  0  0  0  0  0  0  0  0  0  0  0
   -7.2259    4.4837  -18.5163 C   0  0  0  0  0  0  0  0  0  0  0  0
   -6.0791    4.8915  -19.1020 N   0  0  0  0  0  0  0  0  0  0  0  0
   -5.1269    5.4195  -18.3007 C   0  0  0  0  0  0  0  0  0  0  0  0
   -4.0633    5.9020  -19.0418 N   0  0  0  0  0  0  0  0  0  0  0  0
   -2.6767    5.6404  -18.6695 C   0  0  1  0  0  0  0  0  0  0  0  0
   -2.2257    4.2865  -19.2149 C   0  0  0  0  0  0  0  0  0  0  0  0
   -1.8158    6.7495  -19.3000 C   0  0  0  0  0  0  0  0  0  0  0  0
   -2.0117    8.1184  -18.6575 C   0  0  0  0  0  0  0  0  0  0  0  0
   -1.2096    8.2170  -17.0703 Cl  0  0  0  0  0  0  0  0  0  0  0  0
  1  2  3  0
  2  3  1  0
  3  4  2  0
  4  5  1  0
  5  6  2  0
  6  7  1  0
  7  8  2  0
  8  9  1  0
  9 10  1  0
 10 11  1  6
 10 12  1  0
 12 13  1  0
 13 14  1  0
  8  3  1  0
M  END
>  <energy_score>  (1564) 
-18.077071

>  <alias>  (1564) 
None

>  <HIPPO Pose ID>  (1564) 
71952

>  <smiles>  (1564) 
C#Cc1nccnc1N[C@@H](C)CCCl

>  <inchikey>  (1564) 
JSTRJNTVTRHZJZ-QMMMGPOBSA-N

>  <distance_score>  (1564) 
0.837069

>  <ref_mols>  (1564) 
Z0875a,Z0089a

>  <ref_pdb>  (1564) 
Z0089a

>  <HIPPO Compound ID>  (1564) 
144658

>  <name>  (1564) 
P71952

>  <inspiration_score>  (1564) 
None

$$$$
P71956
     RDKit          3D

 14 14  0  0  0  0  0  0  0  0999 V2000
   -1.9702    4.1257  -19.4452 C   0  0  0  0  0  0  0  0  0  0  0  0
   -2.5609    5.4519  -18.9801 C   0  0  1  0  0  0  0  0  0  0  0  0
   -1.8539    6.6679  -19.6014 C   0  0  0  0  0  0  0  0  0  0  0  0
   -0.3558    6.7706  -19.3298 C   0  0  0  0  0  0  0  0  0  0  0  0
    0.0056    6.8997  -17.5933 Cl  0  0  0  0  0  0  0  0  0  0  0  0
   -3.9643    5.5329  -19.3634 N   0  0  0  0  0  0  0  0  0  0  0  0
   -4.9887    5.2489  -18.4870 C   0  0  0  0  0  0  0  0  0  0  0  0
   -4.9712    5.5042  -17.1181 C   0  0  0  0  0  0  0  0  0  0  0  0
   -6.0165    5.2618  -16.2933 N   0  0  0  0  0  0  0  0  0  0  0  0
   -7.1271    4.7522  -16.8849 C   0  0  0  0  0  0  0  0  0  0  0  0
   -8.2973    4.4616  -15.9869 C   0  0  0  0  0  0  0  0  0  0  0  0
   -9.4821    4.1374  -16.7069 O   0  0  0  0  0  0  0  0  0  0  0  0
   -7.1577    4.5193  -18.2526 C   0  0  0  0  0  0  0  0  0  0  0  0
   -6.0957    4.7546  -19.0630 N   0  0  0  0  0  0  0  0  0  0  0  0
  2  1  1  6
  2  3  1  0
  3  4  1  0
  4  5  1  0
  2  6  1  0
  6  7  1  0
  7  8  2  0
  8  9  1  0
  9 10  2  0
 10 11  1  0
 11 12  1  0
 10 13  1  0
 13 14  2  0
 14  7  1  0
M  END
>  <energy_score>  (1565) 
-32.053585

>  <alias>  (1565) 
None

>  <HIPPO Pose ID>  (1565) 
71956

>  <smiles>  (1565) 
C[C@@H](CCCl)Nc1cnc(CO)cn1

>  <inchikey>  (1565) 
RAYWBIWMVPDUQQ-ZETCQYMHSA-N

>  <distance_score>  (1565) 
0.716069

>  <ref_mols>  (1565) 
Z0875a,Z0089a

>  <ref_pdb>  (1565) 
Z0089a

>  <HIPPO Compound ID>  (1565) 
144660

>  <name>  (1565) 
P71956

>  <inspiration_score>  (1565) 
None

$$$$
P71958
     RDKit          3D

 14 14  0  0  0  0  0  0  0  0999 V2000
   -2.0947    4.2711  -19.2884 C   0  0  0  0  0  0  0  0  0  0  0  0
   -2.6919    5.4872  -18.5828 C   0  0  1  0  0  0  0  0  0  0  0  0
   -1.9251    6.7825  -18.9101 C   0  0  0  0  0  0  0  0  0  0  0  0
   -0.4331    6.7790  -18.5901 C   0  0  0  0  0  0  0  0  0  0  0  0
   -0.1047    6.4658  -16.8734 Cl  0  0  0  0  0  0  0  0  0  0  0  0
   -4.0659    5.6931  -19.0379 N   0  0  0  0  0  0  0  0  0  0  0  0
   -5.1795    5.3171  -18.3169 C   0  0  0  0  0  0  0  0  0  0  0  0
   -6.1090    4.7572  -19.1237 N   0  0  0  0  0  0  0  0  0  0  0  0
   -7.3077    4.4472  -18.5821 C   0  0  0  0  0  0  0  0  0  0  0  0
   -7.5831    4.6614  -17.2499 C   0  0  0  0  0  0  0  0  0  0  0  0
   -6.6846    5.2234  -16.4136 N   0  0  0  0  0  0  0  0  0  0  0  0
   -5.4774    5.5445  -16.9635 C   0  0  0  0  0  0  0  0  0  0  0  0
   -4.6116    6.2317  -16.0471 C   0  0  0  0  0  0  0  0  0  0  0  0
   -3.9188    6.7985  -15.3028 N   0  0  0  0  0  0  0  0  0  0  0  0
  2  1  1  6
  2  3  1  0
  3  4  1  0
  4  5  1  0
  2  6  1  0
  6  7  1  0
  7  8  2  0
  8  9  1  0
  9 10  2  0
 10 11  1  0
 11 12  2  0
 12 13  1  0
 13 14  3  0
 12  7  1  0
M  END
>  <energy_score>  (1566) 
-25.44446

>  <alias>  (1566) 
None

>  <HIPPO Pose ID>  (1566) 
71958

>  <smiles>  (1566) 
C[C@@H](CCCl)Nc1nccnc1C#N

>  <inchikey>  (1566) 
ONCMBHKSKRCMBA-ZETCQYMHSA-N

>  <distance_score>  (1566) 
0.81818

>  <ref_mols>  (1566) 
Z0875a,Z0089a

>  <ref_pdb>  (1566) 
Z0089a

>  <HIPPO Compound ID>  (1566) 
144661

>  <name>  (1566) 
P71958

>  <inspiration_score>  (1566) 
None

$$$$
P71963
     RDKit          3D

 14 14  0  0  0  0  0  0  0  0999 V2000
   -2.0069    4.3624  -19.0232 C   0  0  0  0  0  0  0  0  0  0  0  0
   -2.6766    5.5949  -19.6107 C   0  0  2  0  0  0  0  0  0  0  0  0
   -2.3021    6.9074  -18.9096 C   0  0  0  0  0  0  0  0  0  0  0  0
   -0.8557    7.3119  -19.1763 C   0  0  0  0  0  0  0  0  0  0  0  0
   -0.5035    8.8804  -18.4094 Cl  0  0  0  0  0  0  0  0  0  0  0  0
   -4.1137    5.4341  -19.7174 N   0  0  0  0  0  0  0  0  0  0  0  0
   -5.0618    5.1886  -18.7703 C   0  0  0  0  0  0  0  0  0  0  0  0
   -4.9515    5.3704  -17.3932 C   0  0  0  0  0  0  0  0  0  0  0  0
   -5.9705    5.1764  -16.5168 N   0  0  0  0  0  0  0  0  0  0  0  0
   -7.1261    4.7539  -17.0874 C   0  0  0  0  0  0  0  0  0  0  0  0
   -8.2517    4.5143  -16.1799 C   0  0  0  0  0  0  0  0  0  0  0  0
   -9.3662    4.2209  -16.5932 O   0  0  0  0  0  0  0  0  0  0  0  0
   -7.2618    4.5604  -18.4464 C   0  0  0  0  0  0  0  0  0  0  0  0
   -6.2282    4.7704  -19.2952 N   0  0  0  0  0  0  0  0  0  0  0  0
  2  1  1  1
  2  3  1  0
  3  4  1  0
  4  5  1  0
  2  6  1  0
  6  7  1  0
  7  8  2  0
  8  9  1  0
  9 10  2  0
 10 11  1  0
 11 12  2  0
 10 13  1  0
 13 14  2  0
 14  7  1  0
M  END
>  <energy_score>  (1567) 
-13.966758

>  <alias>  (1567) 
None

>  <HIPPO Pose ID>  (1567) 
71963

>  <smiles>  (1567) 
C[C@H](CCCl)Nc1cnc(C=O)cn1

>  <inchikey>  (1567) 
XAPBAAIUGPYHHU-SSDOTTSWSA-N

>  <distance_score>  (1567) 
0.667514

>  <ref_mols>  (1567) 
Z0875a,Z0089a

>  <ref_pdb>  (1567) 
Z0089a

>  <HIPPO Compound ID>  (1567) 
144664

>  <name>  (1567) 
P71963

>  <inspiration_score>  (1567) 
None

$$$$
P71967
     RDKit          3D

 14 16  0  0  0  0  0  0  0  0999 V2000
   -8.7926    4.7273  -16.2399 O   0  0  0  0  0  0  0  0  0  0  0  0
   -8.2127    4.3723  -17.4574 N   0  0  0  0  0  0  0  0  0  0  0  0
   -6.8550    4.6505  -17.5975 C   0  0  0  0  0  0  0  0  0  0  0  0
   -6.3298    4.8283  -18.7957 N   0  0  0  0  0  0  0  0  0  0  0  0
   -5.0017    5.1429  -18.9395 C   0  0  0  0  0  0  0  0  0  0  0  0
   -4.1764    5.2979  -17.9011 C   0  0  0  0  0  0  0  0  0  0  0  0
   -4.6817    5.1155  -16.6289 N   0  0  0  0  0  0  0  0  0  0  0  0
   -4.0461    5.2404  -15.4402 N   0  0  0  0  0  0  0  0  0  0  0  0
   -4.9779    4.9251  -14.5352 C   0  0  0  0  0  0  0  0  0  0  0  0
   -6.2041    4.5959  -15.1026 C   0  0  0  0  0  0  0  0  0  0  0  0
   -5.9962    4.7709  -16.4482 C   0  0  0  0  0  0  0  0  0  0  0  0
   -9.0442    4.8055  -18.5450 C   0  0  0  0  0  0  0  0  0  0  0  0
  -10.5100    4.4995  -18.5650 C   0  0  0  0  0  0  0  0  0  0  0  0
   -9.5371    3.8101  -19.4813 C   0  0  0  0  0  0  0  0  0  0  0  0
  1  2  1  0
  2  3  1  0
  3  4  2  0
  4  5  1  0
  5  6  2  0
  6  7  1  0
  7  8  1  0
  8  9  2  0
  9 10  1  0
 10 11  2  0
  2 12  1  0
 12 13  1  0
 13 14  1  0
 11  3  1  0
 14 12  1  0
 11  7  1  0
M  END
>  <energy_score>  (1568) 
-22.089497

>  <alias>  (1568) 
None

>  <HIPPO Pose ID>  (1568) 
71967

>  <smiles>  (1568) 
ON(c1nccn2nccc12)C1CC1

>  <inchikey>  (1568) 
BYCMFECSOWDBPH-UHFFFAOYSA-N

>  <distance_score>  (1568) 
1.873538

>  <ref_mols>  (1568) 
Z0875a,Z0089a

>  <ref_pdb>  (1568) 
Z0089a

>  <HIPPO Compound ID>  (1568) 
144668

>  <name>  (1568) 
P71967

>  <inspiration_score>  (1568) 
None

$$$$
P71983
     RDKit          3D

 14 16  0  0  0  0  0  0  0  0999 V2000
   -1.2790    6.6013  -18.4117 F   0  0  0  0  0  0  0  0  0  0  0  0
   -2.0564    5.4967  -18.7073 C   0  0  2  0  0  0  0  0  0  0  0  0
   -2.0943    5.0441  -20.1222 C   0  0  0  0  0  0  0  0  0  0  0  0
   -3.2983    5.7312  -19.5175 C   0  0  1  0  0  0  0  0  0  0  0  0
   -4.5637    4.9896  -19.3681 N   0  0  0  0  0  0  0  0  0  0  0  0
   -5.3033    5.0622  -18.1796 C   0  0  0  0  0  0  0  0  0  0  0  0
   -4.8227    5.4612  -16.9751 C   0  0  0  0  0  0  0  0  0  0  0  0
   -5.5193    5.4827  -15.7847 N   0  0  0  0  0  0  0  0  0  0  0  0
   -6.7598    5.0977  -15.8033 C   0  0  0  0  0  0  0  0  0  0  0  0
   -7.4073    4.6979  -17.0098 C   0  0  0  0  0  0  0  0  0  0  0  0
   -8.7045    4.3142  -17.2606 C   0  0  0  0  0  0  0  0  0  0  0  0
   -8.7805    4.0617  -18.6379 C   0  0  0  0  0  0  0  0  0  0  0  0
   -7.5159    4.2412  -19.1586 C   0  0  0  0  0  0  0  0  0  0  0  0
   -6.6681    4.6746  -18.1726 N   0  0  0  0  0  0  0  0  0  0  0  0
  2  1  1  6
  2  3  1  0
  3  4  1  0
  4  5  1  1
  5  6  1  0
  6  7  2  0
  7  8  1  0
  8  9  2  0
  9 10  1  0
 10 11  2  0
 11 12  1  0
 12 13  2  0
 13 14  1  0
  4  2  1  0
 14  6  1  0
 14 10  1  0
M  END
>  <energy_score>  (1569) 
-25.424837

>  <alias>  (1569) 
None

>  <HIPPO Pose ID>  (1569) 
71983

>  <smiles>  (1569) 
F[C@@H]1C[C@H]1Nc1cncc2cccn12

>  <inchikey>  (1569) 
GEAUSRAQQKRXTM-RKDXNWHRSA-N

>  <distance_score>  (1569) 
1.81881

>  <ref_mols>  (1569) 
Z0875a,Z0089a

>  <ref_pdb>  (1569) 
Z0089a

>  <HIPPO Compound ID>  (1569) 
144675

>  <name>  (1569) 
P71983

>  <inspiration_score>  (1569) 
None

$$$$
P71985
     RDKit          3D

 14 16  0  0  0  0  0  0  0  0999 V2000
   -1.0442    5.6657  -17.8987 F   0  0  0  0  0  0  0  0  0  0  0  0
   -1.9612    6.0434  -18.8636 C   0  0  1  0  0  0  0  0  0  0  0  0
   -1.7533    5.4818  -20.2318 C   0  0  0  0  0  0  0  0  0  0  0  0
   -2.9004    4.9975  -19.3908 C   0  0  2  0  0  0  0  0  0  0  0  0
   -4.2822    5.3064  -19.7762 N   0  0  0  0  0  0  0  0  0  0  0  0
   -5.2768    5.1394  -18.8329 C   0  0  0  0  0  0  0  0  0  0  0  0
   -6.4344    4.7199  -19.2997 N   0  0  0  0  0  0  0  0  0  0  0  0
   -7.4915    4.5314  -18.4314 C   0  0  0  0  0  0  0  0  0  0  0  0
   -7.4130    4.7235  -17.1056 C   0  0  0  0  0  0  0  0  0  0  0  0
   -6.2095    5.1523  -16.5904 N   0  0  0  0  0  0  0  0  0  0  0  0
   -5.8046    5.4317  -15.3151 C   0  0  0  0  0  0  0  0  0  0  0  0
   -4.4966    5.8477  -15.4329 C   0  0  0  0  0  0  0  0  0  0  0  0
   -4.0893    5.8283  -16.7410 N   0  0  0  0  0  0  0  0  0  0  0  0
   -5.1359    5.3844  -17.4079 C   0  0  0  0  0  0  0  0  0  0  0  0
  2  1  1  1
  2  3  1  0
  3  4  1  0
  4  5  1  6
  5  6  1  0
  6  7  2  0
  7  8  1  0
  8  9  2  0
  9 10  1  0
 10 11  1  0
 11 12  2  0
 12 13  1  0
 13 14  2  0
  4  2  1  0
 14  6  1  0
 14 10  1  0
M  END
>  <energy_score>  (1570) 
-11.213411

>  <alias>  (1570) 
None

>  <HIPPO Pose ID>  (1570) 
71985

>  <smiles>  (1570) 
F[C@H]1C[C@@H]1Nc1nccn2ccnc12

>  <inchikey>  (1570) 
CAEWASZJMYKAJE-BQBZGAKWSA-N

>  <distance_score>  (1570) 
0.762665

>  <ref_mols>  (1570) 
Z0875a,Z0089a

>  <ref_pdb>  (1570) 
Z0089a

>  <HIPPO Compound ID>  (1570) 
144676

>  <name>  (1570) 
P71985

>  <inspiration_score>  (1570) 
None

$$$$
P71988
     RDKit          3D

 14 16  0  0  0  0  0  0  0  0999 V2000
   -4.1090    5.7474  -20.6060 O   0  0  0  0  0  0  0  0  0  0  0  0
   -3.9493    5.1404  -19.3597 N   0  0  0  0  0  0  0  0  0  0  0  0
   -5.0845    5.0061  -18.5183 C   0  0  0  0  0  0  0  0  0  0  0  0
   -4.9609    5.0525  -17.1156 C   0  0  0  0  0  0  0  0  0  0  0  0
   -5.9695    4.8749  -16.2203 N   0  0  0  0  0  0  0  0  0  0  0  0
   -7.1147    4.6193  -16.8794 C   0  0  0  0  0  0  0  0  0  0  0  0
   -8.3340    4.3188  -16.3501 N   0  0  0  0  0  0  0  0  0  0  0  0
   -9.2013    4.1501  -17.3972 C   0  0  0  0  0  0  0  0  0  0  0  0
   -8.6005    4.2803  -18.5614 N   0  0  0  0  0  0  0  0  0  0  0  0
   -7.3004    4.5805  -18.2567 C   0  0  0  0  0  0  0  0  0  0  0  0
   -6.2819    4.8014  -19.1209 N   0  0  0  0  0  0  0  0  0  0  0  0
   -2.5728    5.1613  -18.8598 C   0  0  0  0  0  0  0  0  0  0  0  0
   -1.3836    5.3868  -19.7493 C   0  0  0  0  0  0  0  0  0  0  0  0
   -1.7878    6.4374  -18.7522 C   0  0  0  0  0  0  0  0  0  0  0  0
  1  2  1  0
  2  3  1  0
  3  4  2  0
  4  5  1  0
  5  6  2  0
  6  7  1  0
  7  8  1  0
  8  9  2  0
  9 10  1  0
 10 11  2  0
  2 12  1  0
 12 13  1  0
 13 14  1  0
 11  3  1  0
 14 12  1  0
 10  6  1  0
M  END
>  <energy_score>  (1571) 
-30.313959

>  <alias>  (1571) 
None

>  <HIPPO Pose ID>  (1571) 
71988

>  <smiles>  (1571) 
ON(c1cnc2[nH]cnc2n1)C1CC1

>  <inchikey>  (1571) 
SWSUTXSOQPMRQD-UHFFFAOYSA-N

>  <distance_score>  (1571) 
0.864499

>  <ref_mols>  (1571) 
Z0875a,Z0089a

>  <ref_pdb>  (1571) 
Z0089a

>  <HIPPO Compound ID>  (1571) 
144677

>  <name>  (1571) 
P71988

>  <inspiration_score>  (1571) 
None

$$$$
P71989
     RDKit          3D

 14 16  0  0  0  0  0  0  0  0999 V2000
   -5.2447    6.1199  -20.1492 O   0  0  0  0  0  0  0  0  0  0  0  0
   -4.5805    5.3483  -19.1844 N   0  0  0  0  0  0  0  0  0  0  0  0
   -5.3232    4.9900  -18.0440 C   0  0  0  0  0  0  0  0  0  0  0  0
   -4.8545    4.9665  -16.7697 C   0  0  0  0  0  0  0  0  0  0  0  0
   -5.5931    4.6804  -15.6371 N   0  0  0  0  0  0  0  0  0  0  0  0
   -6.8586    4.4097  -15.7923 C   0  0  0  0  0  0  0  0  0  0  0  0
   -7.4632    4.3922  -17.0787 C   0  0  0  0  0  0  0  0  0  0  0  0
   -8.7192    4.1720  -17.3853 N   0  0  0  0  0  0  0  0  0  0  0  0
   -8.6741    4.2359  -18.7387 C   0  0  0  0  0  0  0  0  0  0  0  0
   -7.4639    4.4238  -19.2674 N   0  0  0  0  0  0  0  0  0  0  0  0
   -6.6835    4.6282  -18.1863 N   0  0  0  0  0  0  0  0  0  0  0  0
   -3.2064    5.8691  -18.9873 C   0  0  0  0  0  0  0  0  0  0  0  0
   -2.0207    4.9949  -19.3075 C   0  0  0  0  0  0  0  0  0  0  0  0
   -2.2957    6.2195  -20.1285 C   0  0  0  0  0  0  0  0  0  0  0  0
  1  2  1  0
  2  3  1  0
  3  4  2  0
  4  5  1  0
  5  6  2  0
  6  7  1  0
  7  8  2  0
  8  9  1  0
  9 10  2  0
 10 11  1  0
  2 12  1  0
 12 13  1  0
 13 14  1  0
 11  3  1  0
 14 12  1  0
 11  7  1  0
M  END
>  <energy_score>  (1572) 
-37.312308

>  <alias>  (1572) 
None

>  <HIPPO Pose ID>  (1572) 
71989

>  <smiles>  (1572) 
ON(c1cncc2ncnn12)C1CC1

>  <inchikey>  (1572) 
BGYHEEQRTSRMNP-UHFFFAOYSA-N

>  <distance_score>  (1572) 
1.529996

>  <ref_mols>  (1572) 
Z0875a,Z0089a

>  <ref_pdb>  (1572) 
Z0089a

>  <HIPPO Compound ID>  (1572) 
144678

>  <name>  (1572) 
P71989

>  <inspiration_score>  (1572) 
None

$$$$
P71993
     RDKit          3D

 14 16  0  0  0  0  0  0  0  0999 V2000
   -3.9146    5.4541  -20.5852 O   0  0  0  0  0  0  0  0  0  0  0  0
   -4.0274    5.4648  -19.1921 N   0  0  0  0  0  0  0  0  0  0  0  0
   -5.2612    5.0867  -18.6465 C   0  0  0  0  0  0  0  0  0  0  0  0
   -5.5160    5.2092  -17.3179 C   0  0  0  0  0  0  0  0  0  0  0  0
   -6.7860    4.9278  -16.8565 N   0  0  0  0  0  0  0  0  0  0  0  0
   -7.3969    4.9786  -15.6393 C   0  0  0  0  0  0  0  0  0  0  0  0
   -8.6716    4.6744  -15.7575 N   0  0  0  0  0  0  0  0  0  0  0  0
   -8.9044    4.3692  -17.0791 N   0  0  0  0  0  0  0  0  0  0  0  0
   -7.7676    4.5320  -17.7074 C   0  0  0  0  0  0  0  0  0  0  0  0
   -7.4506    4.3729  -19.0803 C   0  0  0  0  0  0  0  0  0  0  0  0
   -6.2529    4.6347  -19.5237 N   0  0  0  0  0  0  0  0  0  0  0  0
   -2.7746    5.0317  -18.5569 C   0  0  0  0  0  0  0  0  0  0  0  0
   -1.4417    5.1675  -19.2506 C   0  0  0  0  0  0  0  0  0  0  0  0
   -1.7765    6.0574  -18.0916 C   0  0  0  0  0  0  0  0  0  0  0  0
  1  2  1  0
  2  3  1  0
  3  4  2  0
  4  5  1  0
  5  6  1  0
  6  7  2  0
  7  8  1  0
  8  9  2  0
  9 10  1  0
 10 11  2  0
  2 12  1  0
 12 13  1  0
 13 14  1  0
 11  3  1  0
 14 12  1  0
  9  5  1  0
M  END
>  <energy_score>  (1573) 
-18.591627

>  <alias>  (1573) 
None

>  <HIPPO Pose ID>  (1573) 
71993

>  <smiles>  (1573) 
ON(c1cn2cnnc2cn1)C1CC1

>  <inchikey>  (1573) 
LXSCNOQVYGHKRG-UHFFFAOYSA-N

>  <distance_score>  (1573) 
1.697349

>  <ref_mols>  (1573) 
Z0875a,Z0089a

>  <ref_pdb>  (1573) 
Z0089a

>  <HIPPO Compound ID>  (1573) 
144682

>  <name>  (1573) 
P71993

>  <inspiration_score>  (1573) 
None

$$$$
P71994
     RDKit          3D

 14 16  0  0  0  0  0  0  0  0999 V2000
   -4.0024    5.6927  -20.6360 O   0  0  0  0  0  0  0  0  0  0  0  0
   -3.8590    5.1686  -19.3510 N   0  0  0  0  0  0  0  0  0  0  0  0
   -5.0051    5.0422  -18.5275 C   0  0  0  0  0  0  0  0  0  0  0  0
   -4.9105    5.0598  -17.1265 C   0  0  0  0  0  0  0  0  0  0  0  0
   -5.9371    4.8683  -16.2587 N   0  0  0  0  0  0  0  0  0  0  0  0
   -7.0788    4.6280  -16.9325 C   0  0  0  0  0  0  0  0  0  0  0  0
   -8.2876    4.3182  -16.3740 N   0  0  0  0  0  0  0  0  0  0  0  0
   -9.2249    4.1563  -17.3669 C   0  0  0  0  0  0  0  0  0  0  0  0
   -8.5912    4.3310  -18.5819 C   0  0  0  0  0  0  0  0  0  0  0  0
   -7.2344    4.6261  -18.3147 C   0  0  0  0  0  0  0  0  0  0  0  0
   -6.1933    4.8664  -19.1515 N   0  0  0  0  0  0  0  0  0  0  0  0
   -2.4889    5.2017  -18.8401 C   0  0  0  0  0  0  0  0  0  0  0  0
   -1.2910    5.3867  -19.7272 C   0  0  0  0  0  0  0  0  0  0  0  0
   -1.7016    6.4792  -18.7789 C   0  0  0  0  0  0  0  0  0  0  0  0
  1  2  1  0
  2  3  1  0
  3  4  2  0
  4  5  1  0
  5  6  2  0
  6  7  1  0
  7  8  1  0
  8  9  2  0
  9 10  1  0
 10 11  2  0
  2 12  1  0
 12 13  1  0
 13 14  1  0
 11  3  1  0
 14 12  1  0
 10  6  1  0
M  END
>  <energy_score>  (1574) 
-20.034127

>  <alias>  (1574) 
None

>  <HIPPO Pose ID>  (1574) 
71994

>  <smiles>  (1574) 
ON(c1cnc2[nH]ccc2n1)C1CC1

>  <inchikey>  (1574) 
YPUYNSRDECCOTE-UHFFFAOYSA-N

>  <distance_score>  (1574) 
0.863081

>  <ref_mols>  (1574) 
Z0875a,Z0089a

>  <ref_pdb>  (1574) 
Z0089a

>  <HIPPO Compound ID>  (1574) 
144683

>  <name>  (1574) 
P71994

>  <inspiration_score>  (1574) 
None

$$$$
P71995
     RDKit          3D

 14 16  0  0  0  0  0  0  0  0999 V2000
   -4.9609    5.3184  -17.2096 C   0  0  0  0  0  0  0  0  0  0  0  0
   -5.8395    5.0814  -16.2101 N   0  0  0  0  0  0  0  0  0  0  0  0
   -7.0316    4.5871  -16.6143 C   0  0  0  0  0  0  0  0  0  0  0  0
   -7.3679    4.3661  -17.9466 C   0  0  0  0  0  0  0  0  0  0  0  0
   -8.7200    3.8387  -18.3582 C   0  0  0  0  0  0  0  0  0  0  0  0
   -9.6497    4.8021  -19.0014 C   0  0  0  0  0  0  0  0  0  0  0  0
   -9.9920    4.2477  -17.6589 C   0  0  0  0  0  0  0  0  0  0  0  0
   -6.4591    4.6488  -18.9186 N   0  0  0  0  0  0  0  0  0  0  0  0
   -5.2510    5.1195  -18.5557 C   0  0  0  0  0  0  0  0  0  0  0  0
   -4.3943    5.3840  -19.6204 N   0  0  0  0  0  0  0  0  0  0  0  0
   -2.9969    5.6564  -19.7144 C   0  0  0  0  0  0  0  0  0  0  0  0
   -2.0656    4.6792  -18.9571 C   0  0  0  0  0  0  0  0  0  0  0  0
   -0.9203    6.0602  -18.5992 S   0  0  0  0  0  0  0  0  0  0  0  0
   -2.4952    6.9090  -18.9566 C   0  0  0  0  0  0  0  0  0  0  0  0
  1  2  2  0
  2  3  1  0
  3  4  2  0
  4  5  1  0
  5  6  1  0
  6  7  1  0
  4  8  1  0
  8  9  2  0
  9 10  1  0
 10 11  1  0
 11 12  1  0
 12 13  1  0
 13 14  1  0
  9  1  1  0
 14 11  1  0
  7  5  1  0
M  END
>  <energy_score>  (1575) 
-13.223161

>  <alias>  (1575) 
None

>  <HIPPO Pose ID>  (1575) 
71995

>  <smiles>  (1575) 
c1ncc(C2CC2)nc1NC1CSC1

>  <inchikey>  (1575) 
HTCPBIHGFYTBAW-UHFFFAOYSA-N

>  <distance_score>  (1575) 
1.119216

>  <ref_mols>  (1575) 
Z0875a,Z0089a

>  <ref_pdb>  (1575) 
Z0089a

>  <HIPPO Compound ID>  (1575) 
144684

>  <name>  (1575) 
P71995

>  <inspiration_score>  (1575) 
None

$$$$
P71996
     RDKit          3D

 14 16  0  0  0  0  0  0  0  0999 V2000
   -5.0860    5.1947  -16.8543 C   0  0  0  0  0  0  0  0  0  0  0  0
   -5.8940    5.1041  -15.7369 N   0  0  0  0  0  0  0  0  0  0  0  0
   -7.1312    4.7301  -15.9090 C   0  0  0  0  0  0  0  0  0  0  0  0
   -7.6431    4.4466  -17.1988 C   0  0  0  0  0  0  0  0  0  0  0  0
   -8.8526    4.0899  -17.5468 N   0  0  0  0  0  0  0  0  0  0  0  0
   -8.7808    3.9255  -18.8997 N   0  0  0  0  0  0  0  0  0  0  0  0
   -7.5484    4.1518  -19.3489 N   0  0  0  0  0  0  0  0  0  0  0  0
   -6.8126    4.5308  -18.2868 N   0  0  0  0  0  0  0  0  0  0  0  0
   -5.4657    4.9400  -18.1314 C   0  0  0  0  0  0  0  0  0  0  0  0
   -4.6375    5.0398  -19.2512 N   0  0  0  0  0  0  0  0  0  0  0  0
   -3.3599    5.7160  -19.3028 C   0  0  0  0  0  0  0  0  0  0  0  0
   -2.2101    4.8086  -19.8126 C   0  0  0  0  0  0  0  0  0  0  0  0
   -1.6066    6.1303  -20.9080 S   0  0  0  0  0  0  0  0  0  0  0  0
   -3.2725    6.7056  -20.4881 C   0  0  0  0  0  0  0  0  0  0  0  0
  1  2  1  0
  2  3  2  0
  3  4  1  0
  4  5  2  0
  5  6  1  0
  6  7  2  0
  7  8  1  0
  8  9  1  0
  9 10  1  0
 10 11  1  0
 11 12  1  0
 12 13  1  0
 13 14  1  0
  9  1  2  0
 14 11  1  0
  8  4  1  0
M  END
>  <energy_score>  (1576) 
-23.068682

>  <alias>  (1576) 
None

>  <HIPPO Pose ID>  (1576) 
71996

>  <smiles>  (1576) 
c1ncc2nnnn2c1NC1CSC1

>  <inchikey>  (1576) 
OTDSPRHCJLBAJH-UHFFFAOYSA-N

>  <distance_score>  (1576) 
1.506122

>  <ref_mols>  (1576) 
Z0875a,Z0089a

>  <ref_pdb>  (1576) 
Z0089a

>  <HIPPO Compound ID>  (1576) 
144685

>  <name>  (1576) 
P71996

>  <inspiration_score>  (1576) 
None

$$$$
P71997
     RDKit          3D

 14 16  0  0  0  0  0  0  0  0999 V2000
   -8.7118    4.1363  -18.7940 C   0  0  0  0  0  0  0  0  0  0  0  0
   -8.7797    4.2577  -17.3990 C   0  0  0  0  0  0  0  0  0  0  0  0
   -7.5076    4.5712  -16.9797 C   0  0  0  0  0  0  0  0  0  0  0  0
   -6.9789    4.8140  -15.6776 C   0  0  0  0  0  0  0  0  0  0  0  0
   -5.7375    5.1491  -15.4939 N   0  0  0  0  0  0  0  0  0  0  0  0
   -4.9251    5.2412  -16.6030 C   0  0  0  0  0  0  0  0  0  0  0  0
   -5.2926    5.0185  -17.8885 C   0  0  0  0  0  0  0  0  0  0  0  0
   -4.4356    5.1067  -19.0000 N   0  0  0  0  0  0  0  0  0  0  0  0
   -3.3295    6.0483  -19.1099 C   0  0  0  0  0  0  0  0  0  0  0  0
   -2.3555    5.6544  -20.2613 C   0  0  0  0  0  0  0  0  0  0  0  0
   -0.9813    6.4314  -19.3556 S   0  0  0  0  0  0  0  0  0  0  0  0
   -2.1729    5.9157  -18.0740 C   0  0  0  0  0  0  0  0  0  0  0  0
   -6.6536    4.6536  -18.0582 N   0  0  0  0  0  0  0  0  0  0  0  0
   -7.3968    4.3359  -19.1622 C   0  0  0  0  0  0  0  0  0  0  0  0
  1  2  1  0
  2  3  2  0
  3  4  1  0
  4  5  2  0
  5  6  1  0
  6  7  2  0
  7  8  1  0
  8  9  1  0
  9 10  1  0
 10 11  1  0
 11 12  1  0
  7 13  1  0
 13 14  1  0
 14  1  2  0
 13  3  1  0
 12  9  1  0
M  END
>  <energy_score>  (1577) 
-13.677963

>  <alias>  (1577) 
None

>  <HIPPO Pose ID>  (1577) 
71997

>  <smiles>  (1577) 
c1cc2cncc(NC3CSC3)n2c1

>  <inchikey>  (1577) 
LPRJSQVZSCZBPY-UHFFFAOYSA-N

>  <distance_score>  (1577) 
1.896379

>  <ref_mols>  (1577) 
Z0875a,Z0089a

>  <ref_pdb>  (1577) 
Z0089a

>  <HIPPO Compound ID>  (1577) 
144686

>  <name>  (1577) 
P71997

>  <inspiration_score>  (1577) 
None

$$$$
P71998
     RDKit          3D

 14 16  0  0  0  0  0  0  0  0999 V2000
   -7.4658    4.6665  -18.4160 C   0  0  0  0  0  0  0  0  0  0  0  0
   -7.3512    4.7292  -17.0825 C   0  0  0  0  0  0  0  0  0  0  0  0
   -6.0919    4.9202  -16.5592 N   0  0  0  0  0  0  0  0  0  0  0  0
   -5.6515    5.0166  -15.2688 C   0  0  0  0  0  0  0  0  0  0  0  0
   -4.2888    5.1797  -15.3624 C   0  0  0  0  0  0  0  0  0  0  0  0
   -3.8862    5.1983  -16.6731 N   0  0  0  0  0  0  0  0  0  0  0  0
   -4.9920    5.0428  -17.3727 C   0  0  0  0  0  0  0  0  0  0  0  0
   -5.1786    4.9836  -18.8135 C   0  0  0  0  0  0  0  0  0  0  0  0
   -4.2581    5.0930  -19.8269 N   0  0  0  0  0  0  0  0  0  0  0  0
   -2.9511    5.6576  -19.7710 C   0  0  0  0  0  0  0  0  0  0  0  0
   -1.8845    4.8407  -19.0081 C   0  0  0  0  0  0  0  0  0  0  0  0
   -1.0052    6.4037  -18.6151 S   0  0  0  0  0  0  0  0  0  0  0  0
   -2.7233    6.9468  -18.9527 C   0  0  0  0  0  0  0  0  0  0  0  0
   -6.4001    4.7947  -19.2801 N   0  0  0  0  0  0  0  0  0  0  0  0
  1  2  2  0
  2  3  1  0
  3  4  1  0
  4  5  2  0
  5  6  1  0
  6  7  2  0
  7  8  1  0
  8  9  1  0
  9 10  1  0
 10 11  1  0
 11 12  1  0
 12 13  1  0
  8 14  2  0
 14  1  1  0
  7  3  1  0
 13 10  1  0
M  END
>  <energy_score>  (1578) 
-7.375171

>  <alias>  (1578) 
None

>  <HIPPO Pose ID>  (1578) 
71998

>  <smiles>  (1578) 
c1cn2ccnc2c(NC2CSC2)n1

>  <inchikey>  (1578) 
GNVRCKAXFYLOCI-UHFFFAOYSA-N

>  <distance_score>  (1578) 
0.937084

>  <ref_mols>  (1578) 
Z0875a,Z0089a

>  <ref_pdb>  (1578) 
Z0089a

>  <HIPPO Compound ID>  (1578) 
144687

>  <name>  (1578) 
P71998

>  <inspiration_score>  (1578) 
None

$$$$
P72000
     RDKit          3D

 14 14  0  0  0  0  0  0  0  0999 V2000
   -8.5081    4.3658  -15.9180 C   0  0  0  0  0  0  0  0  0  0  0  0
   -7.3143    4.6812  -16.7540 C   0  0  0  0  0  0  0  0  0  0  0  0
   -6.2467    5.1631  -16.0824 N   0  0  0  0  0  0  0  0  0  0  0  0
   -5.1629    5.5351  -16.8054 C   0  0  0  0  0  0  0  0  0  0  0  0
   -4.1126    6.1829  -15.9666 C   0  0  0  0  0  0  0  0  0  0  0  0
   -5.1136    5.3658  -18.1950 C   0  0  0  0  0  0  0  0  0  0  0  0
   -4.1189    5.7342  -19.0697 N   0  0  0  0  0  0  0  0  0  0  0  0
   -2.6861    5.6163  -18.8249 C   0  0  1  0  0  0  0  0  0  0  0  0
   -2.1726    4.2585  -19.2939 C   0  0  0  0  0  0  0  0  0  0  0  0
   -1.9484    6.7342  -19.5876 C   0  0  0  0  0  0  0  0  0  0  0  0
   -2.4544    8.4013  -19.0506 S   0  0  0  0  0  0  0  0  0  0  0  0
   -6.1908    4.8837  -18.8507 N   0  0  0  0  0  0  0  0  0  0  0  0
   -7.2999    4.5593  -18.1359 C   0  0  0  0  0  0  0  0  0  0  0  0
   -8.5147    4.1482  -18.9113 C   0  0  0  0  0  0  0  0  0  0  0  0
  1  2  1  0
  2  3  2  0
  3  4  1  0
  4  5  1  0
  4  6  2  0
  6  7  1  0
  7  8  1  0
  8  9  1  6
  8 10  1  0
 10 11  1  0
  6 12  1  0
 12 13  2  0
 13 14  1  0
 13  2  1  0
M  END
>  <energy_score>  (1579) 
-29.075434

>  <alias>  (1579) 
None

>  <HIPPO Pose ID>  (1579) 
72000

>  <smiles>  (1579) 
Cc1nc(C)c(N[C@@H](C)CS)nc1C

>  <inchikey>  (1579) 
RCYBGOGIOQUQMG-LURJTMIESA-N

>  <distance_score>  (1579) 
1.197363

>  <ref_mols>  (1579) 
Z0875a,Z0089a

>  <ref_pdb>  (1579) 
Z0089a

>  <HIPPO Compound ID>  (1579) 
144688

>  <name>  (1579) 
P72000

>  <inspiration_score>  (1579) 
None

$$$$
P72005
     RDKit          3D

 14 14  0  0  0  0  0  0  0  0999 V2000
   -2.0398    4.4153  -18.9283 C   0  0  0  0  0  0  0  0  0  0  0  0
   -2.6725    5.6477  -19.5569 C   0  0  2  0  0  0  0  0  0  0  0  0
   -2.2443    6.9770  -18.9110 C   0  0  0  0  0  0  0  0  0  0  0  0
   -0.5013    7.4142  -19.2261 S   0  0  0  0  0  0  0  0  0  0  0  0
   -4.1212    5.5333  -19.6462 N   0  0  0  0  0  0  0  0  0  0  0  0
   -5.0421    5.3000  -18.6654 C   0  0  0  0  0  0  0  0  0  0  0  0
   -4.9356    5.5969  -17.3081 C   0  0  0  0  0  0  0  0  0  0  0  0
   -5.9412    5.4194  -16.4097 N   0  0  0  0  0  0  0  0  0  0  0  0
   -7.0772    4.8880  -16.9222 C   0  0  0  0  0  0  0  0  0  0  0  0
   -7.1941    4.5765  -18.2617 C   0  0  0  0  0  0  0  0  0  0  0  0
   -8.4501    3.9777  -18.7576 C   0  0  0  0  0  0  0  0  0  0  0  0
   -9.4651    3.8026  -18.1056 O   0  0  0  0  0  0  0  0  0  0  0  0
   -8.3279    3.5626  -20.0291 O   0  0  0  0  0  0  0  0  0  0  0  0
   -6.1800    4.7787  -19.1417 N   0  0  0  0  0  0  0  0  0  0  0  0
  2  1  1  1
  2  3  1  0
  3  4  1  0
  2  5  1  0
  5  6  1  0
  6  7  2  0
  7  8  1  0
  8  9  2  0
  9 10  1  0
 10 11  1  0
 11 12  2  0
 11 13  1  0
 10 14  2  0
 14  6  1  0
M  END
>  <energy_score>  (1580) 
-41.401221

>  <alias>  (1580) 
None

>  <HIPPO Pose ID>  (1580) 
72005

>  <smiles>  (1580) 
C[C@H](CS)Nc1cncc(C(=O)O)n1

>  <inchikey>  (1580) 
ZUDGTHFGLQDHRE-RXMQYKEDSA-N

>  <distance_score>  (1580) 
0.672494

>  <ref_mols>  (1580) 
Z0875a,Z0089a

>  <ref_pdb>  (1580) 
Z0089a

>  <HIPPO Compound ID>  (1580) 
144691

>  <name>  (1580) 
P72005

>  <inspiration_score>  (1580) 
None

$$$$
P72007
     RDKit          3D

 14 15  0  0  0  0  0  0  0  0999 V2000
   -1.9405    4.3280  -19.2733 C   0  0  0  0  0  0  0  0  0  0  0  0
   -2.5047    5.6890  -19.6555 C   0  0  2  0  0  0  0  0  0  0  0  0
   -1.9541    6.9277  -18.9121 C   0  0  0  0  0  0  0  0  0  0  0  0
   -1.1084    6.6671  -17.3159 S   0  0  0  0  0  0  0  0  0  0  0  0
   -3.9618    5.6937  -19.7395 N   0  0  0  0  0  0  0  0  0  0  0  0
   -4.8465    5.3401  -18.7572 C   0  0  0  0  0  0  0  0  0  0  0  0
   -4.6763    5.4723  -17.3864 C   0  0  0  0  0  0  0  0  0  0  0  0
   -5.6147    5.1291  -16.4720 N   0  0  0  0  0  0  0  0  0  0  0  0
   -6.7763    4.6327  -16.9599 C   0  0  0  0  0  0  0  0  0  0  0  0
   -7.7993    4.1429  -15.9811 C   0  0  0  0  0  0  0  0  0  0  0  0
   -8.6405    5.0986  -15.1875 C   0  0  0  0  0  0  0  0  0  0  0  0
   -9.2674    4.2850  -16.2783 C   0  0  0  0  0  0  0  0  0  0  0  0
   -6.9504    4.5277  -18.3370 C   0  0  0  0  0  0  0  0  0  0  0  0
   -6.0039    4.8683  -19.2389 N   0  0  0  0  0  0  0  0  0  0  0  0
  2  1  1  1
  2  3  1  0
  3  4  1  0
  2  5  1  0
  5  6  1  0
  6  7  2  0
  7  8  1  0
  8  9  2  0
  9 10  1  0
 10 11  1  0
 11 12  1  0
  9 13  1  0
 13 14  2  0
 14  6  1  0
 12 10  1  0
M  END
>  <energy_score>  (1581) 
-28.63961

>  <alias>  (1581) 
None

>  <HIPPO Pose ID>  (1581) 
72007

>  <smiles>  (1581) 
C[C@H](CS)Nc1cnc(C2CC2)cn1

>  <inchikey>  (1581) 
IMJQGBWZUBEBSF-SSDOTTSWSA-N

>  <distance_score>  (1581) 
0.893605

>  <ref_mols>  (1581) 
Z0875a,Z0089a

>  <ref_pdb>  (1581) 
Z0089a

>  <HIPPO Compound ID>  (1581) 
144692

>  <name>  (1581) 
P72007

>  <inspiration_score>  (1581) 
None

$$$$
P72011
     RDKit          3D

 14 15  0  0  0  0  0  0  0  0999 V2000
   -2.0453    4.4882  -18.9494 C   0  0  0  0  0  0  0  0  0  0  0  0
   -2.9228    5.5574  -19.5916 C   0  0  2  0  0  0  0  0  0  0  0  0
   -2.7595    6.9615  -18.9869 C   0  0  0  0  0  0  0  0  0  0  0  0
   -1.1650    7.7483  -19.3960 S   0  0  0  0  0  0  0  0  0  0  0  0
   -4.3084    5.1179  -19.6395 N   0  0  0  0  0  0  0  0  0  0  0  0
   -5.2742    4.9993  -18.6779 C   0  0  0  0  0  0  0  0  0  0  0  0
   -5.0895    5.1933  -17.3002 C   0  0  0  0  0  0  0  0  0  0  0  0
   -6.0543    5.0998  -16.3394 N   0  0  0  0  0  0  0  0  0  0  0  0
   -7.2198    4.7373  -16.9091 C   0  0  0  0  0  0  0  0  0  0  0  0
   -8.4121    4.4824  -16.3000 N   0  0  0  0  0  0  0  0  0  0  0  0
   -9.3139    4.1700  -17.2832 C   0  0  0  0  0  0  0  0  0  0  0  0
   -8.7612    4.1647  -18.4766 N   0  0  0  0  0  0  0  0  0  0  0  0
   -7.4561    4.5172  -18.2599 C   0  0  0  0  0  0  0  0  0  0  0  0
   -6.4737    4.6506  -19.1778 N   0  0  0  0  0  0  0  0  0  0  0  0
  2  1  1  1
  2  3  1  0
  3  4  1  0
  2  5  1  0
  5  6  1  0
  6  7  2  0
  7  8  1  0
  8  9  2  0
  9 10  1  0
 10 11  1  0
 11 12  2  0
 12 13  1  0
 13 14  2  0
 14  6  1  0
 13  9  1  0
M  END
>  <energy_score>  (1582) 
-28.28739

>  <alias>  (1582) 
None

>  <HIPPO Pose ID>  (1582) 
72011

>  <smiles>  (1582) 
C[C@H](CS)Nc1cnc2[nH]cnc2n1

>  <inchikey>  (1582) 
MRBOZMCYOVKIGS-RXMQYKEDSA-N

>  <distance_score>  (1582) 
0.773786

>  <ref_mols>  (1582) 
Z0875a,Z0089a

>  <ref_pdb>  (1582) 
Z0089a

>  <HIPPO Compound ID>  (1582) 
144694

>  <name>  (1582) 
P72011

>  <inspiration_score>  (1582) 
None

$$$$
P72013
     RDKit          3D

 14 15  0  0  0  0  0  0  0  0999 V2000
   -2.1715    4.3121  -19.0995 C   0  0  0  0  0  0  0  0  0  0  0  0
   -2.8477    5.6531  -19.3386 C   0  0  2  0  0  0  0  0  0  0  0  0
   -2.4942    6.7960  -18.3703 C   0  0  0  0  0  0  0  0  0  0  0  0
   -2.0768    6.3585  -16.6459 S   0  0  0  0  0  0  0  0  0  0  0  0
   -4.2725    5.5032  -19.5935 N   0  0  0  0  0  0  0  0  0  0  0  0
   -5.3575    5.1163  -18.8401 C   0  0  0  0  0  0  0  0  0  0  0  0
   -5.5325    5.3203  -17.5169 C   0  0  0  0  0  0  0  0  0  0  0  0
   -6.7502    4.9940  -16.9363 N   0  0  0  0  0  0  0  0  0  0  0  0
   -7.2152    5.1391  -15.6705 N   0  0  0  0  0  0  0  0  0  0  0  0
   -8.4405    4.6105  -15.7527 C   0  0  0  0  0  0  0  0  0  0  0  0
   -8.8340    4.2231  -16.9930 N   0  0  0  0  0  0  0  0  0  0  0  0
   -7.7589    4.4735  -17.6979 C   0  0  0  0  0  0  0  0  0  0  0  0
   -7.5135    4.2567  -19.0765 C   0  0  0  0  0  0  0  0  0  0  0  0
   -6.3582    4.5372  -19.6013 N   0  0  0  0  0  0  0  0  0  0  0  0
  2  1  1  1
  2  3  1  0
  3  4  1  0
  2  5  1  0
  5  6  1  0
  6  7  2  0
  7  8  1  0
  8  9  1  0
  9 10  2  0
 10 11  1  0
 11 12  2  0
 12 13  1  0
 13 14  2  0
 14  6  1  0
 12  8  1  0
M  END
>  <energy_score>  (1583) 
-26.449018

>  <alias>  (1583) 
None

>  <HIPPO Pose ID>  (1583) 
72013

>  <smiles>  (1583) 
C[C@H](CS)Nc1cn2ncnc2cn1

>  <inchikey>  (1583) 
GXLQXZPHMVVYER-ZCFIWIBFSA-N

>  <distance_score>  (1583) 
1.228862

>  <ref_mols>  (1583) 
Z0875a,Z0089a

>  <ref_pdb>  (1583) 
Z0089a

>  <HIPPO Compound ID>  (1583) 
144695

>  <name>  (1583) 
P72013

>  <inspiration_score>  (1583) 
None

$$$$
P72017
     RDKit          3D

 14 15  0  0  0  0  0  0  0  0999 V2000
   -2.0221    4.4290  -18.9951 C   0  0  0  0  0  0  0  0  0  0  0  0
   -2.8162    5.5879  -19.5849 C   0  0  2  0  0  0  0  0  0  0  0  0
   -2.5679    6.9412  -18.8979 C   0  0  0  0  0  0  0  0  0  0  0  0
   -0.9273    7.6527  -19.2642 S   0  0  0  0  0  0  0  0  0  0  0  0
   -4.2282    5.2590  -19.6660 N   0  0  0  0  0  0  0  0  0  0  0  0
   -5.1934    5.0775  -18.7181 C   0  0  0  0  0  0  0  0  0  0  0  0
   -5.0409    5.2184  -17.3342 C   0  0  0  0  0  0  0  0  0  0  0  0
   -6.0259    5.0794  -16.4013 N   0  0  0  0  0  0  0  0  0  0  0  0
   -7.1842    4.7312  -16.9973 C   0  0  0  0  0  0  0  0  0  0  0  0
   -8.3677    4.4519  -16.3715 N   0  0  0  0  0  0  0  0  0  0  0  0
   -9.3319    4.1674  -17.3121 C   0  0  0  0  0  0  0  0  0  0  0  0
   -8.7408    4.2289  -18.5578 C   0  0  0  0  0  0  0  0  0  0  0  0
   -7.3842    4.5709  -18.3619 C   0  0  0  0  0  0  0  0  0  0  0  0
   -6.3804    4.7475  -19.2506 N   0  0  0  0  0  0  0  0  0  0  0  0
  2  1  1  1
  2  3  1  0
  3  4  1  0
  2  5  1  0
  5  6  1  0
  6  7  2  0
  7  8  1  0
  8  9  2  0
  9 10  1  0
 10 11  1  0
 11 12  2  0
 12 13  1  0
 13 14  2  0
 14  6  1  0
 13  9  1  0
M  END
>  <energy_score>  (1584) 
-28.546972

>  <alias>  (1584) 
None

>  <HIPPO Pose ID>  (1584) 
72017

>  <smiles>  (1584) 
C[C@H](CS)Nc1cnc2[nH]ccc2n1

>  <inchikey>  (1584) 
LMNJTQPJBJEMBV-ZCFIWIBFSA-N

>  <distance_score>  (1584) 
0.744788

>  <ref_mols>  (1584) 
Z0875a,Z0089a

>  <ref_pdb>  (1584) 
Z0089a

>  <HIPPO Compound ID>  (1584) 
144697

>  <name>  (1584) 
P72017

>  <inspiration_score>  (1584) 
None

$$$$
P72021
     RDKit          3D

 14 15  0  0  0  0  0  0  0  0999 V2000
   -2.0633    4.4043  -19.0194 C   0  0  0  0  0  0  0  0  0  0  0  0
   -2.8087    5.5990  -19.5999 C   0  0  2  0  0  0  0  0  0  0  0  0
   -2.5740    6.9928  -18.9714 C   0  0  0  0  0  0  0  0  0  0  0  0
   -1.3542    7.1313  -17.6270 S   0  0  0  0  0  0  0  0  0  0  0  0
   -4.2220    5.3016  -19.7606 N   0  0  0  0  0  0  0  0  0  0  0  0
   -5.1992    5.0983  -18.8192 C   0  0  0  0  0  0  0  0  0  0  0  0
   -6.3537    4.7188  -19.3296 N   0  0  0  0  0  0  0  0  0  0  0  0
   -7.4434    4.5148  -18.5061 C   0  0  0  0  0  0  0  0  0  0  0  0
   -7.4067    4.6634  -17.1733 C   0  0  0  0  0  0  0  0  0  0  0  0
   -6.2092    5.0467  -16.6149 N   0  0  0  0  0  0  0  0  0  0  0  0
   -5.8098    5.2951  -15.3376 C   0  0  0  0  0  0  0  0  0  0  0  0
   -4.5533    5.6879  -15.3298 N   0  0  0  0  0  0  0  0  0  0  0  0
   -4.1000    5.6622  -16.6349 N   0  0  0  0  0  0  0  0  0  0  0  0
   -5.1055    5.2733  -17.3872 C   0  0  0  0  0  0  0  0  0  0  0  0
  2  1  1  1
  2  3  1  0
  3  4  1  0
  2  5  1  0
  5  6  1  0
  6  7  2  0
  7  8  1  0
  8  9  2  0
  9 10  1  0
 10 11  1  0
 11 12  2  0
 12 13  1  0
 13 14  2  0
 14  6  1  0
 14 10  1  0
M  END
>  <energy_score>  (1585) 
-19.204099

>  <alias>  (1585) 
None

>  <HIPPO Pose ID>  (1585) 
72021

>  <smiles>  (1585) 
C[C@H](CS)Nc1nccn2cnnc12

>  <inchikey>  (1585) 
UHSRXWKKVQCAOL-ZCFIWIBFSA-N

>  <distance_score>  (1585) 
0.676119

>  <ref_mols>  (1585) 
Z0875a,Z0089a

>  <ref_pdb>  (1585) 
Z0089a

>  <HIPPO Compound ID>  (1585) 
144699

>  <name>  (1585) 
P72021

>  <inspiration_score>  (1585) 
None

$$$$
P72023
     RDKit          3D

 14 15  0  0  0  0  0  0  0  0999 V2000
   -2.1473    4.3148  -19.4708 C   0  0  0  0  0  0  0  0  0  0  0  0
   -3.0239    5.4694  -18.9880 C   0  0  1  0  0  0  0  0  0  0  0  0
   -2.8269    6.7673  -19.7889 C   0  0  0  0  0  0  0  0  0  0  0  0
   -1.1599    7.4849  -19.6625 S   0  0  0  0  0  0  0  0  0  0  0  0
   -4.4399    5.0675  -19.0525 N   0  0  0  0  0  0  0  0  0  0  0  0
   -5.3384    4.9960  -17.9835 C   0  0  0  0  0  0  0  0  0  0  0  0
   -5.0207    5.2556  -16.6876 C   0  0  0  0  0  0  0  0  0  0  0  0
   -5.8760    5.1765  -15.6035 N   0  0  0  0  0  0  0  0  0  0  0  0
   -7.1042    4.7996  -15.8259 C   0  0  0  0  0  0  0  0  0  0  0  0
   -7.5578    4.5156  -17.1395 C   0  0  0  0  0  0  0  0  0  0  0  0
   -8.7520    4.1407  -17.5242 N   0  0  0  0  0  0  0  0  0  0  0  0
   -8.6784    3.9643  -18.8789 N   0  0  0  0  0  0  0  0  0  0  0  0
   -7.4446    4.2468  -19.2523 C   0  0  0  0  0  0  0  0  0  0  0  0
   -6.6834    4.6133  -18.1863 N   0  0  0  0  0  0  0  0  0  0  0  0
  2  1  1  6
  2  3  1  0
  3  4  1  0
  2  5  1  0
  5  6  1  0
  6  7  2  0
  7  8  1  0
  8  9  2  0
  9 10  1  0
 10 11  2  0
 11 12  1  0
 12 13  2  0
 13 14  1  0
 14  6  1  0
 14 10  1  0
M  END
>  <energy_score>  (1586) 
-43.997667

>  <alias>  (1586) 
None

>  <HIPPO Pose ID>  (1586) 
72023

>  <smiles>  (1586) 
C[C@@H](CS)Nc1cncc2nncn12

>  <inchikey>  (1586) 
OQZYRPVLDIGVFA-LURJTMIESA-N

>  <distance_score>  (1586) 
1.798825

>  <ref_mols>  (1586) 
Z0875a,Z0089a

>  <ref_pdb>  (1586) 
Z0089a

>  <HIPPO Compound ID>  (1586) 
144700

>  <name>  (1586) 
P72023

>  <inspiration_score>  (1586) 
None

$$$$
P72026
     RDKit          3D

 14 15  0  0  0  0  0  0  0  0999 V2000
   -2.0695    4.5677  -18.7242 C   0  0  0  0  0  0  0  0  0  0  0  0
   -2.9395    5.5144  -19.5316 C   0  0  2  0  0  0  0  0  0  0  0  0
   -2.7327    6.9961  -19.2021 C   0  0  0  0  0  0  0  0  0  0  0  0
   -3.6308    8.0786  -20.3706 S   0  0  0  0  0  0  0  0  0  0  0  0
   -4.3201    5.0982  -19.5212 N   0  0  0  0  0  0  0  0  0  0  0  0
   -5.3155    5.0524  -18.5848 C   0  0  0  0  0  0  0  0  0  0  0  0
   -6.4234    4.5971  -19.1332 N   0  0  0  0  0  0  0  0  0  0  0  0
   -7.5703    4.4833  -18.3903 C   0  0  0  0  0  0  0  0  0  0  0  0
   -7.6445    4.8297  -17.1031 C   0  0  0  0  0  0  0  0  0  0  0  0
   -6.5200    5.3386  -16.4895 N   0  0  0  0  0  0  0  0  0  0  0  0
   -6.4190    5.8261  -15.2256 N   0  0  0  0  0  0  0  0  0  0  0  0
   -5.1416    6.1726  -15.1053 C   0  0  0  0  0  0  0  0  0  0  0  0
   -4.4070    5.9293  -16.2750 C   0  0  0  0  0  0  0  0  0  0  0  0
   -5.3219    5.4433  -17.1836 C   0  0  0  0  0  0  0  0  0  0  0  0
  2  1  1  1
  2  3  1  0
  3  4  1  0
  2  5  1  0
  5  6  1  0
  6  7  2  0
  7  8  1  0
  8  9  2  0
  9 10  1  0
 10 11  1  0
 11 12  2  0
 12 13  1  0
 13 14  2  0
 14  6  1  0
 14 10  1  0
M  END
>  <energy_score>  (1587) 
-22.391797

>  <alias>  (1587) 
None

>  <HIPPO Pose ID>  (1587) 
72026

>  <smiles>  (1587) 
C[C@H](CS)Nc1nccn2nccc12

>  <inchikey>  (1587) 
QERQIVLVUBJDTO-SSDOTTSWSA-N

>  <distance_score>  (1587) 
1.310059

>  <ref_mols>  (1587) 
Z0875a,Z0089a

>  <ref_pdb>  (1587) 
Z0089a

>  <HIPPO Compound ID>  (1587) 
144702

>  <name>  (1587) 
P72026

>  <inspiration_score>  (1587) 
None

$$$$
P72032
     RDKit          3D

 14 14  0  0  0  0  0  0  0  0999 V2000
   -1.5768    3.7287  -19.6787 C   0  0  0  0  0  0  0  0  0  0  0  0
   -1.5629    4.9482  -19.1257 C   0  0  0  0  0  0  0  0  0  0  0  0
   -2.4664    6.0854  -19.5412 C   0  0  0  0  0  0  0  0  0  0  0  0
   -2.4913    7.2181  -18.5075 C   0  0  0  0  0  0  0  0  0  0  0  0
   -1.9156    6.6980  -20.8469 C   0  0  0  0  0  0  0  0  0  0  0  0
   -3.7865    5.5327  -19.8084 N   0  0  0  0  0  0  0  0  0  0  0  0
   -4.7552    5.3043  -18.8628 C   0  0  0  0  0  0  0  0  0  0  0  0
   -4.5655    4.9523  -17.5317 C   0  0  0  0  0  0  0  0  0  0  0  0
   -5.5767    4.7959  -16.6427 N   0  0  0  0  0  0  0  0  0  0  0  0
   -6.8300    4.8945  -17.1517 C   0  0  0  0  0  0  0  0  0  0  0  0
   -7.9512    4.7186  -16.1816 C   0  0  0  0  0  0  0  0  0  0  0  0
   -9.5471    4.0233  -17.0139 Br  0  0  0  0  0  0  0  0  0  0  0  0
   -7.0174    5.2178  -18.4883 C   0  0  0  0  0  0  0  0  0  0  0  0
   -5.9960    5.4489  -19.3394 N   0  0  0  0  0  0  0  0  0  0  0  0
  1  2  2  0
  2  3  1  0
  3  4  1  0
  3  5  1  0
  3  6  1  0
  6  7  1  0
  7  8  2  0
  8  9  1  0
  9 10  2  0
 10 11  1  0
 11 12  1  0
 10 13  1  0
 13 14  2  0
 14  7  1  0
M  END
>  <energy_score>  (1588) 
-29.467234

>  <alias>  (1588) 
None

>  <HIPPO Pose ID>  (1588) 
72032

>  <smiles>  (1588) 
C=CC(C)(C)Nc1cnc(CBr)cn1

>  <inchikey>  (1588) 
IMVOOOJGTLXOAD-UHFFFAOYSA-N

>  <distance_score>  (1588) 
0.978626

>  <ref_mols>  (1588) 
Z0875a,Z0089a

>  <ref_pdb>  (1588) 
Z0089a

>  <HIPPO Compound ID>  (1588) 
144706

>  <name>  (1588) 
P72032

>  <inspiration_score>  (1588) 
None

$$$$
P72033
     RDKit          3D

 14 14  0  0  0  0  0  0  0  0999 V2000
   -1.8665    3.8283  -19.8439 C   0  0  0  0  0  0  0  0  0  0  0  0
   -2.2702    5.0982  -19.7345 C   0  0  0  0  0  0  0  0  0  0  0  0
   -2.8247    5.8097  -18.5070 C   0  0  0  0  0  0  0  0  0  0  0  0
   -2.1029    7.1668  -18.4356 C   0  0  0  0  0  0  0  0  0  0  0  0
   -2.5451    5.0339  -17.2216 C   0  0  0  0  0  0  0  0  0  0  0  0
   -4.2325    6.0908  -18.7959 N   0  0  0  0  0  0  0  0  0  0  0  0
   -5.3228    5.5548  -18.1559 C   0  0  0  0  0  0  0  0  0  0  0  0
   -6.1245    4.9403  -19.0603 N   0  0  0  0  0  0  0  0  0  0  0  0
   -7.3056    4.4456  -18.6346 C   0  0  0  0  0  0  0  0  0  0  0  0
   -7.6871    4.5158  -17.3161 C   0  0  0  0  0  0  0  0  0  0  0  0
   -6.9189    5.1102  -16.3813 N   0  0  0  0  0  0  0  0  0  0  0  0
   -5.7391    5.6455  -16.8183 C   0  0  0  0  0  0  0  0  0  0  0  0
   -5.1017    6.4165  -15.7140 C   0  0  0  0  0  0  0  0  0  0  0  0
   -4.2475    7.2865  -15.8130 O   0  0  0  0  0  0  0  0  0  0  0  0
  1  2  2  0
  2  3  1  0
  3  4  1  0
  3  5  1  0
  3  6  1  0
  6  7  1  0
  7  8  2  0
  8  9  1  0
  9 10  2  0
 10 11  1  0
 11 12  2  0
 12 13  1  0
 13 14  2  0
 12  7  1  0
M  END
>  <energy_score>  (1589) 
-23.515912

>  <alias>  (1589) 
None

>  <HIPPO Pose ID>  (1589) 
72033

>  <smiles>  (1589) 
C=CC(C)(C)Nc1nccnc1C=O

>  <inchikey>  (1589) 
GVPWUIWHSAYYTF-UHFFFAOYSA-N

>  <distance_score>  (1589) 
1.034063

>  <ref_mols>  (1589) 
Z0875a,Z0089a

>  <ref_pdb>  (1589) 
Z0089a

>  <HIPPO Compound ID>  (1589) 
144707

>  <name>  (1589) 
P72033

>  <inspiration_score>  (1589) 
None

$$$$
P72034
     RDKit          3D

 14 14  0  0  0  0  0  0  0  0999 V2000
   -1.7948    3.5237  -19.4893 C   0  0  0  0  0  0  0  0  0  0  0  0
   -1.8633    4.8347  -19.7478 C   0  0  0  0  0  0  0  0  0  0  0  0
   -2.8182    5.7868  -19.0525 C   0  0  0  0  0  0  0  0  0  0  0  0
   -2.9513    7.0729  -19.8719 C   0  0  0  0  0  0  0  0  0  0  0  0
   -2.1883    6.1298  -17.7006 C   0  0  0  0  0  0  0  0  0  0  0  0
   -4.1165    5.1199  -19.0302 N   0  0  0  0  0  0  0  0  0  0  0  0
   -5.1734    5.1607  -18.1680 C   0  0  0  0  0  0  0  0  0  0  0  0
   -5.1272    5.5235  -16.8212 C   0  0  0  0  0  0  0  0  0  0  0  0
   -6.1909    5.5063  -15.9812 N   0  0  0  0  0  0  0  0  0  0  0  0
   -7.3259    5.0346  -16.5275 C   0  0  0  0  0  0  0  0  0  0  0  0
   -7.4079    4.6614  -17.8566 C   0  0  0  0  0  0  0  0  0  0  0  0
   -8.6708    4.1899  -18.3274 C   0  0  0  0  0  0  0  0  0  0  0  0
   -9.7644    3.8360  -18.4897 N   0  0  0  0  0  0  0  0  0  0  0  0
   -6.3437    4.7331  -18.6993 N   0  0  0  0  0  0  0  0  0  0  0  0
  1  2  2  0
  2  3  1  0
  3  4  1  0
  3  5  1  0
  3  6  1  0
  6  7  1  0
  7  8  2  0
  8  9  1  0
  9 10  2  0
 10 11  1  0
 11 12  1  0
 12 13  3  0
 11 14  2  0
 14  7  1  0
M  END
>  <energy_score>  (1590) 
-24.971614

>  <alias>  (1590) 
None

>  <HIPPO Pose ID>  (1590) 
72034

>  <smiles>  (1590) 
C=CC(C)(C)Nc1cncc(C#N)n1

>  <inchikey>  (1590) 
DSZGVRLGDAQRHT-UHFFFAOYSA-N

>  <distance_score>  (1590) 
0.866358

>  <ref_mols>  (1590) 
Z0875a,Z0089a

>  <ref_pdb>  (1590) 
Z0089a

>  <HIPPO Compound ID>  (1590) 
144708

>  <name>  (1590) 
P72034

>  <inspiration_score>  (1590) 
None

$$$$
P72036
     RDKit          3D

 14 14  0  0  0  0  0  0  0  0999 V2000
   -8.9330    4.4193  -15.6661 C   0  0  0  0  0  0  0  0  0  0  0  0
   -8.0413    4.6925  -16.4161 C   0  0  0  0  0  0  0  0  0  0  0  0
   -6.9562    4.9683  -17.2824 C   0  0  0  0  0  0  0  0  0  0  0  0
   -6.9399    4.5499  -18.5962 C   0  0  0  0  0  0  0  0  0  0  0  0
   -5.8800    4.7860  -19.4006 N   0  0  0  0  0  0  0  0  0  0  0  0
   -4.8557    5.4841  -18.8768 C   0  0  0  0  0  0  0  0  0  0  0  0
   -3.8895    5.8025  -19.8004 N   0  0  0  0  0  0  0  0  0  0  0  0
   -2.4451    5.6995  -19.6085 C   0  0  0  0  0  0  0  0  0  0  0  0
   -2.0250    4.2481  -19.3611 C   0  0  0  0  0  0  0  0  0  0  0  0
   -1.9142    6.6139  -18.5041 C   0  0  0  0  0  0  0  0  0  0  0  0
   -1.7815    6.1719  -20.9057 C   0  0  0  0  0  0  0  0  0  0  0  0
   -2.3078    6.9594  -21.8579 C   0  0  0  0  0  0  0  0  0  0  0  0
   -4.9058    5.9074  -17.5506 C   0  0  0  0  0  0  0  0  0  0  0  0
   -5.9444    5.6611  -16.7196 N   0  0  0  0  0  0  0  0  0  0  0  0
  1  2  3  0
  2  3  1  0
  3  4  2  0
  4  5  1  0
  5  6  2  0
  6  7  1  0
  7  8  1  0
  8  9  1  0
  8 10  1  0
  8 11  1  0
 11 12  2  0
  6 13  1  0
 13 14  2  0
 14  3  1  0
M  END
>  <energy_score>  (1591) 
-35.049295

>  <alias>  (1591) 
None

>  <HIPPO Pose ID>  (1591) 
72036

>  <smiles>  (1591) 
C#Cc1cnc(NC(C)(C)C=C)cn1

>  <inchikey>  (1591) 
AZUVFPPWXREKTH-UHFFFAOYSA-N

>  <distance_score>  (1591) 
1.024173

>  <ref_mols>  (1591) 
Z0875a,Z0089a

>  <ref_pdb>  (1591) 
Z0089a

>  <HIPPO Compound ID>  (1591) 
144710

>  <name>  (1591) 
P72036

>  <inspiration_score>  (1591) 
None

$$$$
P72038
     RDKit          3D

 14 14  0  0  0  0  0  0  0  0999 V2000
   -1.7266    3.6138  -19.4452 C   0  0  0  0  0  0  0  0  0  0  0  0
   -1.7658    4.9519  -19.4107 C   0  0  0  0  0  0  0  0  0  0  0  0
   -2.7801    5.7623  -18.6096 C   0  0  0  0  0  0  0  0  0  0  0  0
   -2.9731    7.1240  -19.2815 C   0  0  0  0  0  0  0  0  0  0  0  0
   -2.2051    5.9447  -17.2085 C   0  0  0  0  0  0  0  0  0  0  0  0
   -4.0143    5.0038  -18.6978 N   0  0  0  0  0  0  0  0  0  0  0  0
   -5.2204    5.0679  -18.0719 C   0  0  0  0  0  0  0  0  0  0  0  0
   -6.1940    4.7414  -18.9575 N   0  0  0  0  0  0  0  0  0  0  0  0
   -7.4488    4.5941  -18.4911 C   0  0  0  0  0  0  0  0  0  0  0  0
   -7.7498    4.7753  -17.1634 C   0  0  0  0  0  0  0  0  0  0  0  0
   -6.8237    5.1614  -16.2641 N   0  0  0  0  0  0  0  0  0  0  0  0
   -5.5518    5.2839  -16.7213 C   0  0  0  0  0  0  0  0  0  0  0  0
   -4.5999    5.6089  -15.7837 O   0  0  0  0  0  0  0  0  0  0  0  0
   -5.0512    5.4988  -14.4334 C   0  0  0  0  0  0  0  0  0  0  0  0
  1  2  2  0
  2  3  1  0
  3  4  1  0
  3  5  1  0
  3  6  1  0
  6  7  1  0
  7  8  2  0
  8  9  1  0
  9 10  2  0
 10 11  1  0
 11 12  2  0
 12 13  1  0
 13 14  1  0
 12  7  1  0
M  END
>  <energy_score>  (1592) 
-22.193384

>  <alias>  (1592) 
None

>  <HIPPO Pose ID>  (1592) 
72038

>  <smiles>  (1592) 
C=CC(C)(C)Nc1nccnc1OC

>  <inchikey>  (1592) 
ZTQMSDYERJFARO-UHFFFAOYSA-N

>  <distance_score>  (1592) 
0.927043

>  <ref_mols>  (1592) 
Z0875a,Z0089a

>  <ref_pdb>  (1592) 
Z0089a

>  <HIPPO Compound ID>  (1592) 
144712

>  <name>  (1592) 
P72038

>  <inspiration_score>  (1592) 
None

$$$$
P72040
     RDKit          3D

 14 14  0  0  0  0  0  0  0  0999 V2000
   -1.7776    3.7186  -19.4594 C   0  0  0  0  0  0  0  0  0  0  0  0
   -1.8527    4.9836  -19.8945 C   0  0  0  0  0  0  0  0  0  0  0  0
   -2.9602    5.9627  -19.5441 C   0  0  0  0  0  0  0  0  0  0  0  0
   -2.5312    6.7307  -18.2995 C   0  0  0  0  0  0  0  0  0  0  0  0
   -3.1516    6.9806  -20.6859 C   0  0  0  0  0  0  0  0  0  0  0  0
   -4.1807    5.1828  -19.4501 N   0  0  0  0  0  0  0  0  0  0  0  0
   -5.2110    5.1471  -18.5662 C   0  0  0  0  0  0  0  0  0  0  0  0
   -5.1905    5.4257  -17.2063 C   0  0  0  0  0  0  0  0  0  0  0  0
   -6.2727    5.3221  -16.3915 N   0  0  0  0  0  0  0  0  0  0  0  0
   -7.4064    4.8595  -16.9784 C   0  0  0  0  0  0  0  0  0  0  0  0
   -8.6037    4.6470  -16.0935 C   0  0  0  0  0  0  0  0  0  0  0  0
   -9.7909    4.3963  -16.8383 O   0  0  0  0  0  0  0  0  0  0  0  0
   -7.4325    4.5676  -18.3326 C   0  0  0  0  0  0  0  0  0  0  0  0
   -6.3486    4.7087  -19.1307 N   0  0  0  0  0  0  0  0  0  0  0  0
  1  2  2  0
  2  3  1  0
  3  4  1  0
  3  5  1  0
  3  6  1  0
  6  7  1  0
  7  8  2  0
  8  9  1  0
  9 10  2  0
 10 11  1  0
 11 12  1  0
 10 13  1  0
 13 14  2  0
 14  7  1  0
M  END
>  <energy_score>  (1593) 
-37.271057

>  <alias>  (1593) 
None

>  <HIPPO Pose ID>  (1593) 
72040

>  <smiles>  (1593) 
C=CC(C)(C)Nc1cnc(CO)cn1

>  <inchikey>  (1593) 
KLCDQAZMHZHOSY-UHFFFAOYSA-N

>  <distance_score>  (1593) 
0.913732

>  <ref_mols>  (1593) 
Z0875a,Z0089a

>  <ref_pdb>  (1593) 
Z0089a

>  <HIPPO Compound ID>  (1593) 
144714

>  <name>  (1593) 
P72040

>  <inspiration_score>  (1593) 
None

$$$$
P72043
     RDKit          3D

 14 14  0  0  0  0  0  0  0  0999 V2000
   -1.6837    3.4696  -19.4716 C   0  0  0  0  0  0  0  0  0  0  0  0
   -1.6022    4.7909  -19.6724 C   0  0  0  0  0  0  0  0  0  0  0  0
   -2.5506    5.7955  -19.0498 C   0  0  0  0  0  0  0  0  0  0  0  0
   -2.5531    7.0924  -19.8631 C   0  0  0  0  0  0  0  0  0  0  0  0
   -2.0389    6.0965  -17.6408 C   0  0  0  0  0  0  0  0  0  0  0  0
   -3.8661    5.1942  -19.1558 N   0  0  0  0  0  0  0  0  0  0  0  0
   -4.9753    5.2233  -18.3790 C   0  0  0  0  0  0  0  0  0  0  0  0
   -5.0551    5.4790  -17.0176 C   0  0  0  0  0  0  0  0  0  0  0  0
   -6.2056    5.4513  -16.3101 N   0  0  0  0  0  0  0  0  0  0  0  0
   -7.3007    5.0879  -17.0007 C   0  0  0  0  0  0  0  0  0  0  0  0
   -8.4172    5.0477  -16.2288 O   0  0  0  0  0  0  0  0  0  0  0  0
   -9.4175    4.1593  -16.6941 C   0  0  0  0  0  0  0  0  0  0  0  0
   -7.2446    4.8397  -18.3631 C   0  0  0  0  0  0  0  0  0  0  0  0
   -6.0879    4.9010  -19.0621 N   0  0  0  0  0  0  0  0  0  0  0  0
  1  2  2  0
  2  3  1  0
  3  4  1  0
  3  5  1  0
  3  6  1  0
  6  7  1  0
  7  8  2  0
  8  9  1  0
  9 10  2  0
 10 11  1  0
 11 12  1  0
 10 13  1  0
 13 14  2  0
 14  7  1  0
M  END
>  <energy_score>  (1594) 
-22.180505

>  <alias>  (1594) 
None

>  <HIPPO Pose ID>  (1594) 
72043

>  <smiles>  (1594) 
C=CC(C)(C)Nc1cnc(OC)cn1

>  <inchikey>  (1594) 
YBAKYRCIOJFTPP-UHFFFAOYSA-N

>  <distance_score>  (1594) 
0.802334

>  <ref_mols>  (1594) 
Z0875a,Z0089a

>  <ref_pdb>  (1594) 
Z0089a

>  <HIPPO Compound ID>  (1594) 
144717

>  <name>  (1594) 
P72043

>  <inspiration_score>  (1594) 
None

$$$$
P72045
     RDKit          3D

 14 16  0  0  0  0  0  0  0  0999 V2000
   -4.9631    5.1874  -16.9596 C   0  0  0  0  0  0  0  0  0  0  0  0
   -5.6460    5.0708  -15.7618 N   0  0  0  0  0  0  0  0  0  0  0  0
   -6.9007    4.7189  -15.8082 C   0  0  0  0  0  0  0  0  0  0  0  0
   -7.5488    4.4797  -17.0476 C   0  0  0  0  0  0  0  0  0  0  0  0
   -8.7905    4.1234  -17.2655 N   0  0  0  0  0  0  0  0  0  0  0  0
   -8.9116    3.9527  -18.6179 N   0  0  0  0  0  0  0  0  0  0  0  0
   -7.7379    4.2180  -19.1556 C   0  0  0  0  0  0  0  0  0  0  0  0
   -6.8361    4.5960  -18.2073 N   0  0  0  0  0  0  0  0  0  0  0  0
   -5.4776    4.9864  -18.2008 C   0  0  0  0  0  0  0  0  0  0  0  0
   -4.7916    5.1235  -19.4070 N   0  0  0  0  0  0  0  0  0  0  0  0
   -3.4386    5.5417  -19.6881 C   0  0  0  0  0  0  0  0  0  0  0  0
   -2.3097    4.6801  -19.0645 C   0  0  0  0  0  0  0  0  0  0  0  0
   -1.2573    6.1732  -18.9493 S   0  0  0  0  0  0  0  0  0  0  0  0
   -2.9483    6.8593  -19.0383 C   0  0  0  0  0  0  0  0  0  0  0  0
  1  2  1  0
  2  3  2  0
  3  4  1  0
  4  5  2  0
  5  6  1  0
  6  7  2  0
  7  8  1  0
  8  9  1  0
  9 10  1  0
 10 11  1  0
 11 12  1  0
 12 13  1  0
 13 14  1  0
  9  1  2  0
 14 11  1  0
  8  4  1  0
M  END
>  <energy_score>  (1595) 
-15.396506

>  <alias>  (1595) 
None

>  <HIPPO Pose ID>  (1595) 
72045

>  <smiles>  (1595) 
c1ncc2nncn2c1NC1CSC1

>  <inchikey>  (1595) 
MYWAWEPHXVPZEV-UHFFFAOYSA-N

>  <distance_score>  (1595) 
1.767965

>  <ref_mols>  (1595) 
Z0875a,Z0089a

>  <ref_pdb>  (1595) 
Z0089a

>  <HIPPO Compound ID>  (1595) 
144719

>  <name>  (1595) 
P72045

>  <inspiration_score>  (1595) 
None

$$$$
P72047
     RDKit          3D

 14 16  0  0  0  0  0  0  0  0999 V2000
   -9.3115    4.1334  -17.3487 C   0  0  0  0  0  0  0  0  0  0  0  0
   -8.6963    4.1840  -18.5110 N   0  0  0  0  0  0  0  0  0  0  0  0
   -7.4002    4.5017  -18.2071 C   0  0  0  0  0  0  0  0  0  0  0  0
   -6.3681    4.6605  -19.0664 N   0  0  0  0  0  0  0  0  0  0  0  0
   -5.1920    4.9254  -18.4672 C   0  0  0  0  0  0  0  0  0  0  0  0
   -4.0929    4.9929  -19.3268 N   0  0  0  0  0  0  0  0  0  0  0  0
   -2.7517    5.4277  -19.0629 C   0  0  0  0  0  0  0  0  0  0  0  0
   -1.7000    4.7277  -19.9705 C   0  0  0  0  0  0  0  0  0  0  0  0
   -1.9063    6.0440  -21.2273 S   0  0  0  0  0  0  0  0  0  0  0  0
   -2.4464    6.8269  -19.6654 C   0  0  0  0  0  0  0  0  0  0  0  0
   -5.0790    5.0655  -17.0729 C   0  0  0  0  0  0  0  0  0  0  0  0
   -6.0978    4.9486  -16.1800 N   0  0  0  0  0  0  0  0  0  0  0  0
   -7.2328    4.6378  -16.8338 C   0  0  0  0  0  0  0  0  0  0  0  0
   -8.4564    4.3625  -16.3028 N   0  0  0  0  0  0  0  0  0  0  0  0
  1  2  2  0
  2  3  1  0
  3  4  2  0
  4  5  1  0
  5  6  1  0
  6  7  1  0
  7  8  1  0
  8  9  1  0
  9 10  1  0
  5 11  2  0
 11 12  1  0
 12 13  2  0
 13 14  1  0
 14  1  1  0
 13  3  1  0
 10  7  1  0
M  END
>  <energy_score>  (1596) 
-23.973882

>  <alias>  (1596) 
None

>  <HIPPO Pose ID>  (1596) 
72047

>  <smiles>  (1596) 
c1nc2nc(NC3CSC3)cnc2[nH]1

>  <inchikey>  (1596) 
TZINWGYUYGXZAZ-UHFFFAOYSA-N

>  <distance_score>  (1596) 
0.82368

>  <ref_mols>  (1596) 
Z0875a,Z0089a

>  <ref_pdb>  (1596) 
Z0089a

>  <HIPPO Compound ID>  (1596) 
144721

>  <name>  (1596) 
P72047

>  <inspiration_score>  (1596) 
None

$$$$
P72048
     RDKit          3D

 14 16  0  0  0  0  0  0  0  0999 V2000
   -8.4689    4.5874  -15.6636 C   0  0  0  0  0  0  0  0  0  0  0  0
   -8.9364    4.2269  -16.8865 N   0  0  0  0  0  0  0  0  0  0  0  0
   -7.8893    4.4468  -17.6407 C   0  0  0  0  0  0  0  0  0  0  0  0
   -7.7193    4.2322  -19.0307 C   0  0  0  0  0  0  0  0  0  0  0  0
   -6.5813    4.4754  -19.6078 N   0  0  0  0  0  0  0  0  0  0  0  0
   -5.5234    5.0063  -18.8899 C   0  0  0  0  0  0  0  0  0  0  0  0
   -4.4422    5.3200  -19.6781 N   0  0  0  0  0  0  0  0  0  0  0  0
   -3.0662    5.6113  -19.4508 C   0  0  0  0  0  0  0  0  0  0  0  0
   -2.3188    4.6530  -18.4990 C   0  0  0  0  0  0  0  0  0  0  0  0
   -1.2795    6.0551  -17.9339 S   0  0  0  0  0  0  0  0  0  0  0  0
   -2.7749    6.8664  -18.5959 C   0  0  0  0  0  0  0  0  0  0  0  0
   -5.6269    5.2051  -17.5569 C   0  0  0  0  0  0  0  0  0  0  0  0
   -6.8282    4.9245  -16.9244 N   0  0  0  0  0  0  0  0  0  0  0  0
   -7.2242    5.0754  -15.6384 N   0  0  0  0  0  0  0  0  0  0  0  0
  1  2  1  0
  2  3  2  0
  3  4  1  0
  4  5  2  0
  5  6  1  0
  6  7  1  0
  7  8  1  0
  8  9  1  0
  9 10  1  0
 10 11  1  0
  6 12  2  0
 12 13  1  0
 13 14  1  0
 14  1  2  0
 13  3  1  0
 11  8  1  0
M  END
>  <energy_score>  (1597) 
-16.096868

>  <alias>  (1597) 
None

>  <HIPPO Pose ID>  (1597) 
72048

>  <smiles>  (1597) 
c1nc2cnc(NC3CSC3)cn2n1

>  <inchikey>  (1597) 
GQBUQSNXIISGNU-UHFFFAOYSA-N

>  <distance_score>  (1597) 
1.27265

>  <ref_mols>  (1597) 
Z0875a,Z0089a

>  <ref_pdb>  (1597) 
Z0089a

>  <HIPPO Compound ID>  (1597) 
144722

>  <name>  (1597) 
P72048

>  <inspiration_score>  (1597) 
None

$$$$
P72051
     RDKit          3D

 14 16  0  0  0  0  0  0  0  0999 V2000
   -8.7464    4.1738  -18.6757 C   0  0  0  0  0  0  0  0  0  0  0  0
   -8.7433    4.2328  -17.3193 N   0  0  0  0  0  0  0  0  0  0  0  0
   -7.4754    4.4639  -17.0779 C   0  0  0  0  0  0  0  0  0  0  0  0
   -6.8228    4.6312  -15.8269 C   0  0  0  0  0  0  0  0  0  0  0  0
   -5.5572    4.9349  -15.7519 N   0  0  0  0  0  0  0  0  0  0  0  0
   -4.8565    5.0785  -16.9350 C   0  0  0  0  0  0  0  0  0  0  0  0
   -5.3658    4.9279  -18.1812 C   0  0  0  0  0  0  0  0  0  0  0  0
   -4.6992    5.0907  -19.3934 N   0  0  0  0  0  0  0  0  0  0  0  0
   -3.3706    5.5399  -19.7041 C   0  0  0  0  0  0  0  0  0  0  0  0
   -2.2179    4.6683  -19.1421 C   0  0  0  0  0  0  0  0  0  0  0  0
   -1.1802    6.1662  -18.9809 S   0  0  0  0  0  0  0  0  0  0  0  0
   -2.8804    6.8340  -19.0083 C   0  0  0  0  0  0  0  0  0  0  0  0
   -6.7373    4.5715  -18.2283 N   0  0  0  0  0  0  0  0  0  0  0  0
   -7.5543    4.2952  -19.2629 N   0  0  0  0  0  0  0  0  0  0  0  0
  1  2  1  0
  2  3  2  0
  3  4  1  0
  4  5  2  0
  5  6  1  0
  6  7  2  0
  7  8  1  0
  8  9  1  0
  9 10  1  0
 10 11  1  0
 11 12  1  0
  7 13  1  0
 13 14  1  0
 14  1  2  0
 13  3  1  0
 12  9  1  0
M  END
>  <energy_score>  (1598) 
-24.886899

>  <alias>  (1598) 
None

>  <HIPPO Pose ID>  (1598) 
72051

>  <smiles>  (1598) 
c1nc2cncc(NC3CSC3)n2n1

>  <inchikey>  (1598) 
JVAAAXVMCNWPFN-UHFFFAOYSA-N

>  <distance_score>  (1598) 
1.473324

>  <ref_mols>  (1598) 
Z0875a,Z0089a

>  <ref_pdb>  (1598) 
Z0089a

>  <HIPPO Compound ID>  (1598) 
144725

>  <name>  (1598) 
P72051

>  <inspiration_score>  (1598) 
None

$$$$
P72055
     RDKit          3D

 14 14  0  0  0  0  0  0  0  0999 V2000
   -1.7445    3.5150  -19.5645 C   0  0  0  0  0  0  0  0  0  0  0  0
   -2.2142    4.5608  -19.2151 C   0  0  0  0  0  0  0  0  0  0  0  0
   -2.6578    5.8787  -18.7289 C   0  0  0  0  0  0  0  0  0  0  0  0
   -1.9496    6.9547  -19.5774 C   0  0  0  0  0  0  0  0  0  0  0  0
   -2.1766    6.0562  -17.2891 C   0  0  0  0  0  0  0  0  0  0  0  0
   -4.0858    6.0771  -18.9716 N   0  0  0  0  0  0  0  0  0  0  0  0
   -5.1285    5.5422  -18.2430 C   0  0  0  0  0  0  0  0  0  0  0  0
   -6.0038    4.8864  -19.0380 N   0  0  0  0  0  0  0  0  0  0  0  0
   -7.1537    4.4628  -18.4714 C   0  0  0  0  0  0  0  0  0  0  0  0
   -7.4231    4.6485  -17.1313 C   0  0  0  0  0  0  0  0  0  0  0  0
   -6.5746    5.2979  -16.3048 N   0  0  0  0  0  0  0  0  0  0  0  0
   -5.4296    5.7464  -16.8778 C   0  0  0  0  0  0  0  0  0  0  0  0
   -4.6442    6.5894  -16.1210 O   0  0  0  0  0  0  0  0  0  0  0  0
   -4.8170    6.4505  -14.7189 C   0  0  0  0  0  0  0  0  0  0  0  0
  1  2  3  0
  2  3  1  0
  3  4  1  0
  3  5  1  0
  3  6  1  0
  6  7  1  0
  7  8  2  0
  8  9  1  0
  9 10  2  0
 10 11  1  0
 11 12  2  0
 12 13  1  0
 13 14  1  0
 12  7  1  0
M  END
>  <energy_score>  (1599) 
-14.620278

>  <alias>  (1599) 
None

>  <HIPPO Pose ID>  (1599) 
72055

>  <smiles>  (1599) 
C#CC(C)(C)Nc1nccnc1OC

>  <inchikey>  (1599) 
SGRYLUWKZNRXJP-UHFFFAOYSA-N

>  <distance_score>  (1599) 
1.017393

>  <ref_mols>  (1599) 
Z0875a,Z0089a

>  <ref_pdb>  (1599) 
Z0089a

>  <HIPPO Compound ID>  (1599) 
144730

>  <name>  (1599) 
P72055

>  <inspiration_score>  (1599) 
None

$$$$
P72056
     RDKit          3D

 14 14  0  0  0  0  0  0  0  0999 V2000
   -1.6875    3.5629  -19.5754 C   0  0  0  0  0  0  0  0  0  0  0  0
   -2.1955    4.6487  -19.5441 C   0  0  0  0  0  0  0  0  0  0  0  0
   -2.7784    5.9977  -19.4915 C   0  0  0  0  0  0  0  0  0  0  0  0
   -2.2602    6.7465  -18.2654 C   0  0  0  0  0  0  0  0  0  0  0  0
   -2.3043    6.8041  -20.7220 C   0  0  0  0  0  0  0  0  0  0  0  0
   -4.2296    5.9318  -19.5847 N   0  0  0  0  0  0  0  0  0  0  0  0
   -5.1351    5.4605  -18.6727 C   0  0  0  0  0  0  0  0  0  0  0  0
   -5.1295    5.6684  -17.2947 C   0  0  0  0  0  0  0  0  0  0  0  0
   -6.1511    5.3269  -16.4682 N   0  0  0  0  0  0  0  0  0  0  0  0
   -7.2075    4.7510  -17.0920 C   0  0  0  0  0  0  0  0  0  0  0  0
   -8.3554    4.4177  -16.2435 C   0  0  0  0  0  0  0  0  0  0  0  0
   -9.4189    4.0309  -16.7108 O   0  0  0  0  0  0  0  0  0  0  0  0
   -7.2378    4.5242  -18.4522 C   0  0  0  0  0  0  0  0  0  0  0  0
   -6.1948    4.8620  -19.2487 N   0  0  0  0  0  0  0  0  0  0  0  0
  1  2  3  0
  2  3  1  0
  3  4  1  0
  3  5  1  0
  3  6  1  0
  6  7  1  0
  7  8  2  0
  8  9  1  0
  9 10  2  0
 10 11  1  0
 11 12  2  0
 10 13  1  0
 13 14  2  0
 14  7  1  0
M  END
>  <energy_score>  (1600) 
-26.386616

>  <alias>  (1600) 
None

>  <HIPPO Pose ID>  (1600) 
72056

>  <smiles>  (1600) 
C#CC(C)(C)Nc1cnc(C=O)cn1

>  <inchikey>  (1600) 
MQXOGXFLLOSIPO-UHFFFAOYSA-N

>  <distance_score>  (1600) 
0.767638

>  <ref_mols>  (1600) 
Z0875a,Z0089a

>  <ref_pdb>  (1600) 
Z0089a

>  <HIPPO Compound ID>  (1600) 
144731

>  <name>  (1600) 
P72056

>  <inspiration_score>  (1600) 
None

$$$$
P72059
     RDKit          3D

 14 14  0  0  0  0  0  0  0  0999 V2000
   -1.6518    3.4631  -19.5709 C   0  0  0  0  0  0  0  0  0  0  0  0
   -2.0931    4.5312  -19.2555 C   0  0  0  0  0  0  0  0  0  0  0  0
   -2.5526    5.8521  -18.8026 C   0  0  0  0  0  0  0  0  0  0  0  0
   -1.7709    6.9310  -19.5720 C   0  0  0  0  0  0  0  0  0  0  0  0
   -2.2183    6.0107  -17.3225 C   0  0  0  0  0  0  0  0  0  0  0  0
   -3.9473    6.0353  -19.1693 N   0  0  0  0  0  0  0  0  0  0  0  0
   -5.0621    5.5087  -18.5583 C   0  0  0  0  0  0  0  0  0  0  0  0
   -5.8531    4.8412  -19.3602 N   0  0  0  0  0  0  0  0  0  0  0  0
   -7.0620    4.4319  -18.8755 C   0  0  0  0  0  0  0  0  0  0  0  0
   -7.5037    4.6668  -17.6397 C   0  0  0  0  0  0  0  0  0  0  0  0
   -6.7345    5.3703  -16.7501 N   0  0  0  0  0  0  0  0  0  0  0  0
   -7.2082    5.6152  -15.4238 C   0  0  0  0  0  0  0  0  0  0  0  0
   -5.4641    5.8066  -17.0822 C   0  0  0  0  0  0  0  0  0  0  0  0
   -4.7452    6.4234  -16.3069 O   0  0  0  0  0  0  0  0  0  0  0  0
  1  2  3  0
  2  3  1  0
  3  4  1  0
  3  5  1  0
  3  6  1  0
  6  7  1  0
  7  8  2  0
  8  9  1  0
  9 10  2  0
 10 11  1  0
 11 12  1  0
 11 13  1  0
 13 14  2  0
 13  7  1  0
M  END
>  <energy_score>  (1601) 
-21.717617

>  <alias>  (1601) 
None

>  <HIPPO Pose ID>  (1601) 
72059

>  <smiles>  (1601) 
C#CC(C)(C)Nc1nccn(C)c1=O

>  <inchikey>  (1601) 
UHKZTNDQBUKBHI-UHFFFAOYSA-N

>  <distance_score>  (1601) 
1.326156

>  <ref_mols>  (1601) 
Z0875a,Z0089a

>  <ref_pdb>  (1601) 
Z0089a

>  <HIPPO Compound ID>  (1601) 
144734

>  <name>  (1601) 
P72059

>  <inspiration_score>  (1601) 
None

$$$$
P72060
     RDKit          3D

 14 14  0  0  0  0  0  0  0  0999 V2000
   -4.3861    7.2764  -15.2794 C   0  0  0  0  0  0  0  0  0  0  0  0
   -4.9665    6.5865  -16.0758 C   0  0  0  0  0  0  0  0  0  0  0  0
   -5.6906    5.7440  -16.9880 C   0  0  0  0  0  0  0  0  0  0  0  0
   -6.9102    5.4227  -16.4807 N   0  0  0  0  0  0  0  0  0  0  0  0
   -7.7214    4.7288  -17.3052 C   0  0  0  0  0  0  0  0  0  0  0  0
   -7.3549    4.3991  -18.5915 C   0  0  0  0  0  0  0  0  0  0  0  0
   -6.1350    4.6940  -19.0901 N   0  0  0  0  0  0  0  0  0  0  0  0
   -5.2805    5.3665  -18.2845 C   0  0  0  0  0  0  0  0  0  0  0  0
   -4.1135    5.6576  -18.9573 N   0  0  0  0  0  0  0  0  0  0  0  0
   -2.7545    5.4583  -18.4505 C   0  0  0  0  0  0  0  0  0  0  0  0
   -1.9982    4.4962  -19.3855 C   0  0  0  0  0  0  0  0  0  0  0  0
   -2.0595    6.8270  -18.5150 C   0  0  0  0  0  0  0  0  0  0  0  0
   -2.6782    4.9177  -17.0782 C   0  0  0  0  0  0  0  0  0  0  0  0
   -2.6414    4.4975  -15.9524 C   0  0  0  0  0  0  0  0  0  0  0  0
  1  2  3  0
  2  3  1  0
  3  4  2  0
  4  5  1  0
  5  6  2  0
  6  7  1  0
  7  8  2  0
  8  9  1  0
  9 10  1  0
 10 11  1  0
 10 12  1  0
 10 13  1  0
 13 14  3  0
  8  3  1  0
M  END
>  <energy_score>  (1602) 
-11.264134

>  <alias>  (1602) 
None

>  <HIPPO Pose ID>  (1602) 
72060

>  <smiles>  (1602) 
C#Cc1nccnc1NC(C)(C)C#C

>  <inchikey>  (1602) 
HLDSOMYSRJIQND-UHFFFAOYSA-N

>  <distance_score>  (1602) 
0.986401

>  <ref_mols>  (1602) 
Z0875a,Z0089a

>  <ref_pdb>  (1602) 
Z0089a

>  <HIPPO Compound ID>  (1602) 
144735

>  <name>  (1602) 
P72060

>  <inspiration_score>  (1602) 
None

$$$$
P72063
     RDKit          3D

 14 14  0  0  0  0  0  0  0  0999 V2000
   -1.6907    3.5193  -19.5391 C   0  0  0  0  0  0  0  0  0  0  0  0
   -2.1030    4.6451  -19.5317 C   0  0  0  0  0  0  0  0  0  0  0  0
   -2.5530    6.0457  -19.5201 C   0  0  0  0  0  0  0  0  0  0  0  0
   -2.0396    6.7546  -18.2688 C   0  0  0  0  0  0  0  0  0  0  0  0
   -1.9267    6.7756  -20.7302 C   0  0  0  0  0  0  0  0  0  0  0  0
   -4.0003    6.1361  -19.6981 N   0  0  0  0  0  0  0  0  0  0  0  0
   -4.9164    5.6774  -18.7760 C   0  0  0  0  0  0  0  0  0  0  0  0
   -5.0474    6.1130  -17.4620 C   0  0  0  0  0  0  0  0  0  0  0  0
   -6.0661    5.7509  -16.6448 N   0  0  0  0  0  0  0  0  0  0  0  0
   -6.9944    4.9259  -17.1929 C   0  0  0  0  0  0  0  0  0  0  0  0
   -8.1055    4.4955  -16.2923 C   0  0  0  0  0  0  0  0  0  0  0  0
   -9.7409    4.1227  -17.2560 Br  0  0  0  0  0  0  0  0  0  0  0  0
   -6.8526    4.4817  -18.5014 C   0  0  0  0  0  0  0  0  0  0  0  0
   -5.8209    4.8396  -19.2961 N   0  0  0  0  0  0  0  0  0  0  0  0
  1  2  3  0
  2  3  1  0
  3  4  1  0
  3  5  1  0
  3  6  1  0
  6  7  1  0
  7  8  2  0
  8  9  1  0
  9 10  2  0
 10 11  1  0
 11 12  1  0
 10 13  1  0
 13 14  2  0
 14  7  1  0
M  END
>  <energy_score>  (1603) 
-26.487075

>  <alias>  (1603) 
None

>  <HIPPO Pose ID>  (1603) 
72063

>  <smiles>  (1603) 
C#CC(C)(C)Nc1cnc(CBr)cn1

>  <inchikey>  (1603) 
KHMYSVTUUCAESM-UHFFFAOYSA-N

>  <distance_score>  (1603) 
0.965619

>  <ref_mols>  (1603) 
Z0875a,Z0089a

>  <ref_pdb>  (1603) 
Z0089a

>  <HIPPO Compound ID>  (1603) 
144738

>  <name>  (1603) 
P72063

>  <inspiration_score>  (1603) 
None

$$$$
P72064
     RDKit          3D

 14 14  0  0  0  0  0  0  0  0999 V2000
   -1.8261    3.6302  -19.6582 C   0  0  0  0  0  0  0  0  0  0  0  0
   -2.2827    4.6014  -19.1249 C   0  0  0  0  0  0  0  0  0  0  0  0
   -2.6735    5.8268  -18.4105 C   0  0  0  0  0  0  0  0  0  0  0  0
   -1.8693    6.9938  -19.0239 C   0  0  0  0  0  0  0  0  0  0  0  0
   -2.2579    5.7003  -16.9441 C   0  0  0  0  0  0  0  0  0  0  0  0
   -4.0830    6.1754  -18.6338 N   0  0  0  0  0  0  0  0  0  0  0  0
   -5.1761    5.5092  -18.1146 C   0  0  0  0  0  0  0  0  0  0  0  0
   -5.9365    4.9809  -19.0993 N   0  0  0  0  0  0  0  0  0  0  0  0
   -7.1371    4.4612  -18.7525 C   0  0  0  0  0  0  0  0  0  0  0  0
   -7.5783    4.4417  -17.4478 C   0  0  0  0  0  0  0  0  0  0  0  0
   -6.8463    4.9519  -16.4391 N   0  0  0  0  0  0  0  0  0  0  0  0
   -5.6449    5.4860  -16.7897 C   0  0  0  0  0  0  0  0  0  0  0  0
   -5.0048    6.2442  -15.6920 C   0  0  0  0  0  0  0  0  0  0  0  0
   -5.0529    5.9190  -14.5094 O   0  0  0  0  0  0  0  0  0  0  0  0
  1  2  3  0
  2  3  1  0
  3  4  1  0
  3  5  1  0
  3  6  1  0
  6  7  1  0
  7  8  2  0
  8  9  1  0
  9 10  2  0
 10 11  1  0
 11 12  2  0
 12 13  1  0
 13 14  2  0
 12  7  1  0
M  END
>  <energy_score>  (1604) 
-11.873233

>  <alias>  (1604) 
None

>  <HIPPO Pose ID>  (1604) 
72064

>  <smiles>  (1604) 
C#CC(C)(C)Nc1nccnc1C=O

>  <inchikey>  (1604) 
FWGTWNNLGYIFOG-UHFFFAOYSA-N

>  <distance_score>  (1604) 
1.046583

>  <ref_mols>  (1604) 
Z0875a,Z0089a

>  <ref_pdb>  (1604) 
Z0089a

>  <HIPPO Compound ID>  (1604) 
144739

>  <name>  (1604) 
P72064

>  <inspiration_score>  (1604) 
None

$$$$
P72065
     RDKit          3D

 14 14  0  0  0  0  0  0  0  0999 V2000
   -1.6948    3.5136  -19.5415 C   0  0  0  0  0  0  0  0  0  0  0  0
   -2.2560    4.5563  -19.3539 C   0  0  0  0  0  0  0  0  0  0  0  0
   -2.8850    5.8616  -19.1029 C   0  0  0  0  0  0  0  0  0  0  0  0
   -2.4935    6.8236  -20.2374 C   0  0  0  0  0  0  0  0  0  0  0  0
   -2.3133    6.4649  -17.8161 C   0  0  0  0  0  0  0  0  0  0  0  0
   -4.3377    5.7351  -19.1589 N   0  0  0  0  0  0  0  0  0  0  0  0
   -5.2492    5.3367  -18.2191 C   0  0  0  0  0  0  0  0  0  0  0  0
   -5.1172    5.4698  -16.8358 C   0  0  0  0  0  0  0  0  0  0  0  0
   -6.0862    5.1704  -15.9374 N   0  0  0  0  0  0  0  0  0  0  0  0
   -7.2294    4.7095  -16.4769 C   0  0  0  0  0  0  0  0  0  0  0  0
   -7.4005    4.5792  -17.8429 C   0  0  0  0  0  0  0  0  0  0  0  0
   -8.6884    4.1742  -18.3086 C   0  0  0  0  0  0  0  0  0  0  0  0
   -9.7951    3.8609  -18.4658 N   0  0  0  0  0  0  0  0  0  0  0  0
   -6.4184    4.8868  -18.7315 N   0  0  0  0  0  0  0  0  0  0  0  0
  1  2  3  0
  2  3  1  0
  3  4  1  0
  3  5  1  0
  3  6  1  0
  6  7  1  0
  7  8  2  0
  8  9  1  0
  9 10  2  0
 10 11  1  0
 11 12  1  0
 12 13  3  0
 11 14  2  0
 14  7  1  0
M  END
>  <energy_score>  (1605) 
-20.457619

>  <alias>  (1605) 
None

>  <HIPPO Pose ID>  (1605) 
72065

>  <smiles>  (1605) 
C#CC(C)(C)Nc1cncc(C#N)n1

>  <inchikey>  (1605) 
AQKHBNMFMUDXMY-UHFFFAOYSA-N

>  <distance_score>  (1605) 
0.87559

>  <ref_mols>  (1605) 
Z0875a,Z0089a

>  <ref_pdb>  (1605) 
Z0089a

>  <HIPPO Compound ID>  (1605) 
144740

>  <name>  (1605) 
P72065

>  <inspiration_score>  (1605) 
None

$$$$
P72067
     RDKit          3D

 14 14  0  0  0  0  0  0  0  0999 V2000
   -1.6659    3.4547  -19.5283 C   0  0  0  0  0  0  0  0  0  0  0  0
   -2.0930    4.5473  -19.2845 C   0  0  0  0  0  0  0  0  0  0  0  0
   -2.5367    5.9081  -18.9487 C   0  0  0  0  0  0  0  0  0  0  0  0
   -1.7895    6.8998  -19.8563 C   0  0  0  0  0  0  0  0  0  0  0  0
   -2.1397    6.2317  -17.5049 C   0  0  0  0  0  0  0  0  0  0  0  0
   -3.9515    6.0750  -19.2701 N   0  0  0  0  0  0  0  0  0  0  0  0
   -4.9872    5.6233  -18.4834 C   0  0  0  0  0  0  0  0  0  0  0  0
   -5.2149    5.9858  -17.1603 C   0  0  0  0  0  0  0  0  0  0  0  0
   -6.3176    5.6368  -16.4620 N   0  0  0  0  0  0  0  0  0  0  0  0
   -7.2331    4.9073  -17.1427 C   0  0  0  0  0  0  0  0  0  0  0  0
   -8.4503    4.5117  -16.3646 C   0  0  0  0  0  0  0  0  0  0  0  0
   -9.6239    4.0430  -17.2015 C   0  0  0  0  0  0  0  0  0  0  0  0
   -7.0153    4.5547  -18.4690 C   0  0  0  0  0  0  0  0  0  0  0  0
   -5.8954    4.8949  -19.1472 N   0  0  0  0  0  0  0  0  0  0  0  0
  1  2  3  0
  2  3  1  0
  3  4  1  0
  3  5  1  0
  3  6  1  0
  6  7  1  0
  7  8  2  0
  8  9  1  0
  9 10  2  0
 10 11  1  0
 11 12  1  0
 10 13  1  0
 13 14  2  0
 14  7  1  0
M  END
>  <energy_score>  (1606) 
-30.231757

>  <alias>  (1606) 
None

>  <HIPPO Pose ID>  (1606) 
72067

>  <smiles>  (1606) 
C#CC(C)(C)Nc1cnc(CC)cn1

>  <inchikey>  (1606) 
AKKYZCDHTQIDEI-UHFFFAOYSA-N

>  <distance_score>  (1606) 
0.927099

>  <ref_mols>  (1606) 
Z0875a,Z0089a

>  <ref_pdb>  (1606) 
Z0089a

>  <HIPPO Compound ID>  (1606) 
144744

>  <name>  (1606) 
P72067

>  <inspiration_score>  (1606) 
None

$$$$
P72072
     RDKit          3D

 14 16  0  0  0  0  0  0  0  0999 V2000
   -8.8531    4.1580  -18.5052 C   0  0  0  0  0  0  0  0  0  0  0  0
   -8.7018    4.2679  -17.1142 C   0  0  0  0  0  0  0  0  0  0  0  0
   -7.3741    4.5517  -16.8880 C   0  0  0  0  0  0  0  0  0  0  0  0
   -6.6368    4.7284  -15.6795 C   0  0  0  0  0  0  0  0  0  0  0  0
   -5.3706    5.0206  -15.6808 N   0  0  0  0  0  0  0  0  0  0  0  0
   -4.7449    5.1519  -16.9038 C   0  0  0  0  0  0  0  0  0  0  0  0
   -5.3230    5.0091  -18.1216 C   0  0  0  0  0  0  0  0  0  0  0  0
   -4.6967    5.1813  -19.3549 N   0  0  0  0  0  0  0  0  0  0  0  0
   -3.3552    5.5091  -19.7182 C   0  0  0  0  0  0  0  0  0  0  0  0
   -2.2568    4.5805  -19.1738 C   0  0  0  0  0  0  0  0  0  0  0  0
   -1.3796    5.8383  -18.9936 C   0  0  0  0  0  0  0  0  0  0  0  0
   -2.6698    6.6902  -19.0133 C   0  0  0  0  0  0  0  0  0  0  0  0
   -6.6990    4.6593  -18.0831 N   0  0  0  0  0  0  0  0  0  0  0  0
   -7.6064    4.3464  -19.0630 C   0  0  0  0  0  0  0  0  0  0  0  0
  1  2  1  0
  2  3  2  0
  3  4  1  0
  4  5  2  0
  5  6  1  0
  6  7  2  0
  7  8  1  0
  8  9  1  0
  9 10  1  0
 10 11  1  0
 11 12  1  0
  7 13  1  0
 13 14  1  0
 14  1  2  0
 13  3  1  0
 12  9  1  0
M  END
>  <energy_score>  (1607) 
-8.905867

>  <alias>  (1607) 
None

>  <HIPPO Pose ID>  (1607) 
72072

>  <smiles>  (1607) 
c1cc2cncc(NC3CCC3)n2c1

>  <inchikey>  (1607) 
LCBDOBVBMYUCGV-UHFFFAOYSA-N

>  <distance_score>  (1607) 
1.777694

>  <ref_mols>  (1607) 
Z0875a,Z0089a

>  <ref_pdb>  (1607) 
Z0089a

>  <HIPPO Compound ID>  (1607) 
144749

>  <name>  (1607) 
P72072

>  <inspiration_score>  (1607) 
None

$$$$
P72073
     RDKit          3D

 14 16  0  0  0  0  0  0  0  0999 V2000
   -7.4328    4.5400  -18.5601 C   0  0  0  0  0  0  0  0  0  0  0  0
   -7.5003    4.6823  -17.2281 C   0  0  0  0  0  0  0  0  0  0  0  0
   -6.3627    5.0916  -16.5695 N   0  0  0  0  0  0  0  0  0  0  0  0
   -6.1040    5.3141  -15.2461 C   0  0  0  0  0  0  0  0  0  0  0  0
   -4.7908    5.7229  -15.1966 C   0  0  0  0  0  0  0  0  0  0  0  0
   -4.2376    5.7554  -16.4512 N   0  0  0  0  0  0  0  0  0  0  0  0
   -5.2064    5.3584  -17.2539 C   0  0  0  0  0  0  0  0  0  0  0  0
   -5.1909    5.1723  -18.6973 C   0  0  0  0  0  0  0  0  0  0  0  0
   -4.1148    5.3759  -19.5376 N   0  0  0  0  0  0  0  0  0  0  0  0
   -2.8185    5.0882  -19.0131 C   0  0  0  0  0  0  0  0  0  0  0  0
   -1.7481    4.9533  -20.1174 C   0  0  0  0  0  0  0  0  0  0  0  0
   -0.7904    5.7196  -19.1865 C   0  0  0  0  0  0  0  0  0  0  0  0
   -2.0489    6.3594  -18.5640 C   0  0  0  0  0  0  0  0  0  0  0  0
   -6.2891    4.7645  -19.3005 N   0  0  0  0  0  0  0  0  0  0  0  0
  1  2  2  0
  2  3  1  0
  3  4  1  0
  4  5  2  0
  5  6  1  0
  6  7  2  0
  7  8  1  0
  8  9  1  0
  9 10  1  0
 10 11  1  0
 11 12  1  0
 12 13  1  0
  8 14  2  0
 14  1  1  0
  7  3  1  0
 13 10  1  0
M  END
>  <energy_score>  (1608) 
-12.571719

>  <alias>  (1608) 
None

>  <HIPPO Pose ID>  (1608) 
72073

>  <smiles>  (1608) 
c1cn2ccnc2c(NC2CCC2)n1

>  <inchikey>  (1608) 
QUNOJRXSGSBWCU-UHFFFAOYSA-N

>  <distance_score>  (1608) 
0.936425

>  <ref_mols>  (1608) 
Z0875a,Z0089a

>  <ref_pdb>  (1608) 
Z0089a

>  <HIPPO Compound ID>  (1608) 
144750

>  <name>  (1608) 
P72073

>  <inspiration_score>  (1608) 
None

$$$$
P72076
     RDKit          3D

 14 15  0  0  0  0  0  0  0  0999 V2000
   -2.0975    4.5542  -19.0958 C   0  0  0  0  0  0  0  0  0  0  0  0
   -3.1680    5.5266  -19.5838 C   0  0  2  0  0  0  0  0  0  0  0  0
   -2.9124    6.9634  -19.0969 C   0  0  0  0  0  0  0  0  0  0  0  0
   -4.1218    8.1472  -19.7890 S   0  0  0  0  0  0  0  0  0  0  0  0
   -4.5227    5.0257  -19.3161 N   0  0  0  0  0  0  0  0  0  0  0  0
   -5.2233    4.9398  -18.1095 C   0  0  0  0  0  0  0  0  0  0  0  0
   -4.6949    5.1334  -16.8769 C   0  0  0  0  0  0  0  0  0  0  0  0
   -5.3752    5.0718  -15.6788 N   0  0  0  0  0  0  0  0  0  0  0  0
   -6.6451    4.7963  -15.7188 C   0  0  0  0  0  0  0  0  0  0  0  0
   -7.3346    4.5783  -16.9487 C   0  0  0  0  0  0  0  0  0  0  0  0
   -8.6555    4.3004  -17.2186 C   0  0  0  0  0  0  0  0  0  0  0  0
   -8.7545    4.1638  -18.6121 C   0  0  0  0  0  0  0  0  0  0  0  0
   -7.4852    4.3251  -19.1273 C   0  0  0  0  0  0  0  0  0  0  0  0
   -6.6096    4.6297  -18.1182 N   0  0  0  0  0  0  0  0  0  0  0  0
  2  1  1  1
  2  3  1  0
  3  4  1  0
  2  5  1  0
  5  6  1  0
  6  7  2  0
  7  8  1  0
  8  9  2  0
  9 10  1  0
 10 11  2  0
 11 12  1  0
 12 13  2  0
 13 14  1  0
 14  6  1  0
 14 10  1  0
M  END
>  <energy_score>  (1609) 
-36.722964

>  <alias>  (1609) 
None

>  <HIPPO Pose ID>  (1609) 
72076

>  <smiles>  (1609) 
C[C@H](CS)Nc1cncc2cccn12

>  <inchikey>  (1609) 
BDUTUMNYEDNQMW-MRVPVSSYSA-N

>  <distance_score>  (1609) 
1.796379

>  <ref_mols>  (1609) 
Z0875a,Z0089a

>  <ref_pdb>  (1609) 
Z0089a

>  <HIPPO Compound ID>  (1609) 
144752

>  <name>  (1609) 
P72076

>  <inspiration_score>  (1609) 
None

$$$$
P72078
     RDKit          3D

 14 15  0  0  0  0  0  0  0  0999 V2000
   -1.9251    4.4726  -19.0784 C   0  0  0  0  0  0  0  0  0  0  0  0
   -2.7656    5.5679  -19.7231 C   0  0  2  0  0  0  0  0  0  0  0  0
   -2.5252    6.9578  -19.1188 C   0  0  0  0  0  0  0  0  0  0  0  0
   -3.2491    8.2932  -20.1402 S   0  0  0  0  0  0  0  0  0  0  0  0
   -4.1565    5.1738  -19.8115 N   0  0  0  0  0  0  0  0  0  0  0  0
   -5.1149    5.0420  -18.8384 C   0  0  0  0  0  0  0  0  0  0  0  0
   -6.3105    4.7641  -19.3194 N   0  0  0  0  0  0  0  0  0  0  0  0
   -7.3847    4.6215  -18.4668 C   0  0  0  0  0  0  0  0  0  0  0  0
   -7.2989    4.7500  -17.1352 C   0  0  0  0  0  0  0  0  0  0  0  0
   -6.0627    5.0378  -16.6006 N   0  0  0  0  0  0  0  0  0  0  0  0
   -5.6524    5.2320  -15.3112 C   0  0  0  0  0  0  0  0  0  0  0  0
   -4.3044    5.4968  -15.3958 C   0  0  0  0  0  0  0  0  0  0  0  0
   -3.8762    5.4668  -16.6969 N   0  0  0  0  0  0  0  0  0  0  0  0
   -4.9571    5.1862  -17.4003 C   0  0  0  0  0  0  0  0  0  0  0  0
  2  1  1  1
  2  3  1  0
  3  4  1  0
  2  5  1  0
  5  6  1  0
  6  7  2  0
  7  8  1  0
  8  9  2  0
  9 10  1  0
 10 11  1  0
 11 12  2  0
 12 13  1  0
 13 14  2  0
 14  6  1  0
 14 10  1  0
M  END
>  <energy_score>  (1610) 
-17.75886

>  <alias>  (1610) 
None

>  <HIPPO Pose ID>  (1610) 
72078

>  <smiles>  (1610) 
C[C@H](CS)Nc1nccn2ccnc12

>  <inchikey>  (1610) 
IPSOMGHSKSFHGK-SSDOTTSWSA-N

>  <distance_score>  (1610) 
0.761359

>  <ref_mols>  (1610) 
Z0875a,Z0089a

>  <ref_pdb>  (1610) 
Z0089a

>  <HIPPO Compound ID>  (1610) 
144753

>  <name>  (1610) 
P72078

>  <inspiration_score>  (1610) 
None

$$$$
P72081
     RDKit          3D

 14 16  0  0  0  0  0  0  0  0999 V2000
   -4.7969    5.2670  -17.1491 C   0  0  0  0  0  0  0  0  0  0  0  0
   -5.9323    5.3019  -16.4191 N   0  0  0  0  0  0  0  0  0  0  0  0
   -7.0785    5.0671  -17.1017 C   0  0  0  0  0  0  0  0  0  0  0  0
   -8.3585    5.0241  -16.3357 C   0  0  0  0  0  0  0  0  0  0  0  0
   -8.6772    3.9154  -15.3944 C   0  0  0  0  0  0  0  0  0  0  0  0
   -9.3863    3.9869  -16.7168 C   0  0  0  0  0  0  0  0  0  0  0  0
   -7.0467    4.8838  -18.4854 C   0  0  0  0  0  0  0  0  0  0  0  0
   -5.9105    4.8814  -19.2120 N   0  0  0  0  0  0  0  0  0  0  0  0
   -4.7764    5.0635  -18.5252 C   0  0  0  0  0  0  0  0  0  0  0  0
   -3.6230    4.9971  -19.2920 N   0  0  0  0  0  0  0  0  0  0  0  0
   -2.3412    5.4887  -18.9576 C   0  0  0  0  0  0  0  0  0  0  0  0
   -1.2388    4.8733  -19.8358 C   0  0  0  0  0  0  0  0  0  0  0  0
   -0.6108    6.2813  -19.9052 C   0  0  0  0  0  0  0  0  0  0  0  0
   -2.0189    6.8451  -19.6166 C   0  0  0  0  0  0  0  0  0  0  0  0
  1  2  2  0
  2  3  1  0
  3  4  1  0
  4  5  1  0
  5  6  1  0
  3  7  2  0
  7  8  1  0
  8  9  2  0
  9 10  1  0
 10 11  1  0
 11 12  1  0
 12 13  1  0
 13 14  1  0
  9  1  1  0
 14 11  1  0
  6  4  1  0
M  END
>  <energy_score>  (1611) 
-19.565711

>  <alias>  (1611) 
None

>  <HIPPO Pose ID>  (1611) 
72081

>  <smiles>  (1611) 
c1nc(C2CC2)cnc1NC1CCC1

>  <inchikey>  (1611) 
IIWDAGFCNRSBTM-UHFFFAOYSA-N

>  <distance_score>  (1611) 
0.855975

>  <ref_mols>  (1611) 
Z0875a,Z0089a

>  <ref_pdb>  (1611) 
Z0089a

>  <HIPPO Compound ID>  (1611) 
144755

>  <name>  (1611) 
P72081

>  <inspiration_score>  (1611) 
None

$$$$
P72082
     RDKit          3D

 14 16  0  0  0  0  0  0  0  0999 V2000
   -9.1795    4.1198  -17.1243 C   0  0  0  0  0  0  0  0  0  0  0  0
   -8.7063    4.2342  -18.3465 N   0  0  0  0  0  0  0  0  0  0  0  0
   -7.3863    4.5515  -18.1790 C   0  0  0  0  0  0  0  0  0  0  0  0
   -6.4733    4.7952  -19.1425 N   0  0  0  0  0  0  0  0  0  0  0  0
   -5.2443    5.0998  -18.6861 C   0  0  0  0  0  0  0  0  0  0  0  0
   -4.3275    5.3821  -19.7002 N   0  0  0  0  0  0  0  0  0  0  0  0
   -2.9276    5.5768  -19.7659 C   0  0  0  0  0  0  0  0  0  0  0  0
   -2.0609    4.5275  -19.0527 C   0  0  0  0  0  0  0  0  0  0  0  0
   -1.1292    5.6893  -18.6392 C   0  0  0  0  0  0  0  0  0  0  0  0
   -2.3190    6.6527  -18.8526 C   0  0  0  0  0  0  0  0  0  0  0  0
   -4.9612    5.1414  -17.3118 C   0  0  0  0  0  0  0  0  0  0  0  0
   -5.8518    4.9092  -16.3058 N   0  0  0  0  0  0  0  0  0  0  0  0
   -7.0558    4.6148  -16.8316 C   0  0  0  0  0  0  0  0  0  0  0  0
   -8.2082    4.3025  -16.1753 N   0  0  0  0  0  0  0  0  0  0  0  0
  1  2  2  0
  2  3  1  0
  3  4  2  0
  4  5  1  0
  5  6  1  0
  6  7  1  0
  7  8  1  0
  8  9  1  0
  9 10  1  0
  5 11  2  0
 11 12  1  0
 12 13  2  0
 13 14  1  0
 14  1  1  0
 13  3  1  0
 10  7  1  0
M  END
>  <energy_score>  (1612) 
-22.047048

>  <alias>  (1612) 
None

>  <HIPPO Pose ID>  (1612) 
72082

>  <smiles>  (1612) 
c1nc2nc(NC3CCC3)cnc2[nH]1

>  <inchikey>  (1612) 
SUMYKZVOZFIIMN-UHFFFAOYSA-N

>  <distance_score>  (1612) 
0.778868

>  <ref_mols>  (1612) 
Z0875a,Z0089a

>  <ref_pdb>  (1612) 
Z0089a

>  <HIPPO Compound ID>  (1612) 
144756

>  <name>  (1612) 
P72082

>  <inspiration_score>  (1612) 
None

$$$$
P72087
     RDKit          3D

 14 14  0  0  0  0  0  0  0  0999 V2000
   -2.0494    4.2907  -19.3415 C   0  0  0  0  0  0  0  0  0  0  0  0
   -2.3769    5.7873  -19.3823 C   0  0  0  0  0  0  0  0  0  0  0  0
   -1.9042    6.4761  -18.1030 C   0  0  0  0  0  0  0  0  0  0  0  0
   -1.5657    6.4209  -20.5463 C   0  0  0  0  0  0  0  0  0  0  0  0
   -1.7408    7.7720  -20.5685 F   0  0  0  0  0  0  0  0  0  0  0  0
   -3.8169    5.9947  -19.6504 N   0  0  0  0  0  0  0  0  0  0  0  0
   -4.8127    5.6208  -18.7683 C   0  0  0  0  0  0  0  0  0  0  0  0
   -4.9791    6.0955  -17.4717 C   0  0  0  0  0  0  0  0  0  0  0  0
   -6.0291    5.7733  -16.6768 N   0  0  0  0  0  0  0  0  0  0  0  0
   -6.9567    4.9508  -17.2296 C   0  0  0  0  0  0  0  0  0  0  0  0
   -8.0756    4.5293  -16.3328 C   0  0  0  0  0  0  0  0  0  0  0  0
   -9.7053    4.1227  -17.2917 Br  0  0  0  0  0  0  0  0  0  0  0  0
   -6.7930    4.4873  -18.5293 C   0  0  0  0  0  0  0  0  0  0  0  0
   -5.7276    4.8026  -19.3028 N   0  0  0  0  0  0  0  0  0  0  0  0
  1  2  1  0
  2  3  1  0
  2  4  1  0
  4  5  1  0
  2  6  1  0
  6  7  1  0
  7  8  2  0
  8  9  1  0
  9 10  2  0
 10 11  1  0
 11 12  1  0
 10 13  1  0
 13 14  2  0
 14  7  1  0
M  END
>  <energy_score>  (1613) 
-23.045654

>  <alias>  (1613) 
None

>  <HIPPO Pose ID>  (1613) 
72087

>  <smiles>  (1613) 
CC(C)(CF)Nc1cnc(CBr)cn1

>  <inchikey>  (1613) 
LTBWDXDNIRKXMI-UHFFFAOYSA-N

>  <distance_score>  (1613) 
0.967585

>  <ref_mols>  (1613) 
Z0875a,Z0089a

>  <ref_pdb>  (1613) 
Z0089a

>  <HIPPO Compound ID>  (1613) 
144761

>  <name>  (1613) 
P72087

>  <inspiration_score>  (1613) 
None

$$$$
P72088
     RDKit          3D

 14 14  0  0  0  0  0  0  0  0999 V2000
   -2.4206    4.3330  -19.2035 C   0  0  0  0  0  0  0  0  0  0  0  0
   -2.5846    5.7027  -18.5383 C   0  0  0  0  0  0  0  0  0  0  0  0
   -1.7185    6.7179  -19.3127 C   0  0  0  0  0  0  0  0  0  0  0  0
   -2.0448    5.6474  -17.1016 C   0  0  0  0  0  0  0  0  0  0  0  0
   -2.6908    4.6861  -16.3855 F   0  0  0  0  0  0  0  0  0  0  0  0
   -3.9727    6.2063  -18.6808 N   0  0  0  0  0  0  0  0  0  0  0  0
   -5.0736    5.5856  -18.1202 C   0  0  0  0  0  0  0  0  0  0  0  0
   -5.8631    5.0606  -19.0904 N   0  0  0  0  0  0  0  0  0  0  0  0
   -7.0512    4.5335  -18.7188 C   0  0  0  0  0  0  0  0  0  0  0  0
   -7.4546    4.4987  -17.4036 C   0  0  0  0  0  0  0  0  0  0  0  0
   -6.6957    5.0010  -16.4095 N   0  0  0  0  0  0  0  0  0  0  0  0
   -5.5033    5.5548  -16.7841 C   0  0  0  0  0  0  0  0  0  0  0  0
   -4.8655    6.2321  -15.6260 C   0  0  0  0  0  0  0  0  0  0  0  0
   -4.1645    7.2352  -15.6666 O   0  0  0  0  0  0  0  0  0  0  0  0
  1  2  1  0
  2  3  1  0
  2  4  1  0
  4  5  1  0
  2  6  1  0
  6  7  1  0
  7  8  2  0
  8  9  1  0
  9 10  2  0
 10 11  1  0
 11 12  2  0
 12 13  1  0
 13 14  2  0
 12  7  1  0
M  END
>  <energy_score>  (1614) 
-112.345323

>  <alias>  (1614) 
None

>  <HIPPO Pose ID>  (1614) 
72088

>  <smiles>  (1614) 
CC(C)(CF)Nc1nccnc1C=O

>  <inchikey>  (1614) 
GZXZKSLDSSYXNY-UHFFFAOYSA-N

>  <distance_score>  (1614) 
0.991652

>  <ref_mols>  (1614) 
Z0875a,Z0089a

>  <ref_pdb>  (1614) 
Z0089a

>  <HIPPO Compound ID>  (1614) 
144762

>  <name>  (1614) 
P72088

>  <inspiration_score>  (1614) 
None

$$$$
P72089
     RDKit          3D

 14 14  0  0  0  0  0  0  0  0999 V2000
   -2.0837    4.1965  -19.4436 C   0  0  0  0  0  0  0  0  0  0  0  0
   -2.6877    5.5303  -18.9850 C   0  0  0  0  0  0  0  0  0  0  0  0
   -2.2250    6.6427  -19.9409 C   0  0  0  0  0  0  0  0  0  0  0  0
   -2.1218    5.8578  -17.5935 C   0  0  0  0  0  0  0  0  0  0  0  0
   -0.7609    5.9302  -17.6449 F   0  0  0  0  0  0  0  0  0  0  0  0
   -4.1564    5.4608  -19.1187 N   0  0  0  0  0  0  0  0  0  0  0  0
   -5.1622    5.2726  -18.2097 C   0  0  0  0  0  0  0  0  0  0  0  0
   -5.1280    5.6293  -16.8597 C   0  0  0  0  0  0  0  0  0  0  0  0
   -6.1589    5.4796  -15.9940 N   0  0  0  0  0  0  0  0  0  0  0  0
   -7.2698    4.9469  -16.5331 C   0  0  0  0  0  0  0  0  0  0  0  0
   -7.3551    4.6192  -17.8740 C   0  0  0  0  0  0  0  0  0  0  0  0
   -8.6187    4.1513  -18.3478 C   0  0  0  0  0  0  0  0  0  0  0  0
   -9.7142    3.8010  -18.5049 N   0  0  0  0  0  0  0  0  0  0  0  0
   -6.3071    4.7723  -18.7301 N   0  0  0  0  0  0  0  0  0  0  0  0
  1  2  1  0
  2  3  1  0
  2  4  1  0
  4  5  1  0
  2  6  1  0
  6  7  1  0
  7  8  2  0
  8  9  1  0
  9 10  2  0
 10 11  1  0
 11 12  1  0
 12 13  3  0
 11 14  2  0
 14  7  1  0
M  END
>  <energy_score>  (1615) 
-13.904157

>  <alias>  (1615) 
None

>  <HIPPO Pose ID>  (1615) 
72089

>  <smiles>  (1615) 
CC(C)(CF)Nc1cncc(C#N)n1

>  <inchikey>  (1615) 
VGJVUQBGRGYLSQ-UHFFFAOYSA-N

>  <distance_score>  (1615) 
0.808108

>  <ref_mols>  (1615) 
Z0875a,Z0089a

>  <ref_pdb>  (1615) 
Z0089a

>  <HIPPO Compound ID>  (1615) 
144763

>  <name>  (1615) 
P72089

>  <inspiration_score>  (1615) 
None

$$$$
P72090
     RDKit          3D

 14 14  0  0  0  0  0  0  0  0999 V2000
   -9.3879    4.0579  -16.8360 C   0  0  0  0  0  0  0  0  0  0  0  0
   -8.1349    4.6237  -16.1995 C   0  0  0  0  0  0  0  0  0  0  0  0
   -7.0122    4.9655  -17.1313 C   0  0  0  0  0  0  0  0  0  0  0  0
   -6.9636    4.5853  -18.4651 C   0  0  0  0  0  0  0  0  0  0  0  0
   -5.9064    4.8540  -19.2681 N   0  0  0  0  0  0  0  0  0  0  0  0
   -4.8885    5.5435  -18.7330 C   0  0  0  0  0  0  0  0  0  0  0  0
   -3.9182    5.8985  -19.6436 N   0  0  0  0  0  0  0  0  0  0  0  0
   -2.4638    5.7596  -19.4566 C   0  0  0  0  0  0  0  0  0  0  0  0
   -2.0637    4.2900  -19.3105 C   0  0  0  0  0  0  0  0  0  0  0  0
   -1.9351    6.5836  -18.2831 C   0  0  0  0  0  0  0  0  0  0  0  0
   -1.7825    6.3295  -20.7281 C   0  0  0  0  0  0  0  0  0  0  0  0
   -2.2131    5.6435  -21.8256 F   0  0  0  0  0  0  0  0  0  0  0  0
   -4.9492    5.9345  -17.4007 C   0  0  0  0  0  0  0  0  0  0  0  0
   -5.9882    5.6589  -16.5767 N   0  0  0  0  0  0  0  0  0  0  0  0
  1  2  1  0
  2  3  1  0
  3  4  2  0
  4  5  1  0
  5  6  2  0
  6  7  1  0
  7  8  1  0
  8  9  1  0
  8 10  1  0
  8 11  1  0
 11 12  1  0
  6 13  1  0
 13 14  2  0
 14  3  1  0
M  END
>  <energy_score>  (1616) 
-31.432672

>  <alias>  (1616) 
None

>  <HIPPO Pose ID>  (1616) 
72090

>  <smiles>  (1616) 
CCc1cnc(NC(C)(C)CF)cn1

>  <inchikey>  (1616) 
CUDKMUNZZIVHTI-UHFFFAOYSA-N

>  <distance_score>  (1616) 
0.848841

>  <ref_mols>  (1616) 
Z0875a,Z0089a

>  <ref_pdb>  (1616) 
Z0089a

>  <HIPPO Compound ID>  (1616) 
144764

>  <name>  (1616) 
P72090

>  <inspiration_score>  (1616) 
None

$$$$
P72091
     RDKit          3D

 14 14  0  0  0  0  0  0  0  0999 V2000
   -8.9940    4.3531  -15.7910 C   0  0  0  0  0  0  0  0  0  0  0  0
   -8.0784    4.6557  -16.4991 C   0  0  0  0  0  0  0  0  0  0  0  0
   -6.9700    4.9717  -17.3189 C   0  0  0  0  0  0  0  0  0  0  0  0
   -6.8800    4.5530  -18.6303 C   0  0  0  0  0  0  0  0  0  0  0  0
   -5.7967    4.8309  -19.3909 N   0  0  0  0  0  0  0  0  0  0  0  0
   -4.8299    5.5733  -18.8227 C   0  0  0  0  0  0  0  0  0  0  0  0
   -3.8418    5.9449  -19.7074 N   0  0  0  0  0  0  0  0  0  0  0  0
   -2.3907    5.8239  -19.4662 C   0  0  0  0  0  0  0  0  0  0  0  0
   -1.9698    4.3508  -19.4623 C   0  0  0  0  0  0  0  0  0  0  0  0
   -1.9261    6.5035  -18.1781 C   0  0  0  0  0  0  0  0  0  0  0  0
   -1.6747    6.5633  -20.6279 C   0  0  0  0  0  0  0  0  0  0  0  0
   -0.3250    6.4865  -20.4861 F   0  0  0  0  0  0  0  0  0  0  0  0
   -4.9569    6.0009  -17.5023 C   0  0  0  0  0  0  0  0  0  0  0  0
   -6.0159    5.7094  -16.7158 N   0  0  0  0  0  0  0  0  0  0  0  0
  1  2  3  0
  2  3  1  0
  3  4  2  0
  4  5  1  0
  5  6  2  0
  6  7  1  0
  7  8  1  0
  8  9  1  0
  8 10  1  0
  8 11  1  0
 11 12  1  0
  6 13  1  0
 13 14  2  0
 14  3  1  0
M  END
>  <energy_score>  (1617) 
-32.911142

>  <alias>  (1617) 
None

>  <HIPPO Pose ID>  (1617) 
72091

>  <smiles>  (1617) 
C#Cc1cnc(NC(C)(C)CF)cn1

>  <inchikey>  (1617) 
HBICGGJSPAJYEU-UHFFFAOYSA-N

>  <distance_score>  (1617) 
1.036889

>  <ref_mols>  (1617) 
Z0875a,Z0089a

>  <ref_pdb>  (1617) 
Z0089a

>  <HIPPO Compound ID>  (1617) 
144765

>  <name>  (1617) 
P72091

>  <inspiration_score>  (1617) 
None

$$$$
P72096
     RDKit          3D

 14 14  0  0  0  0  0  0  0  0999 V2000
   -2.0918    4.2017  -19.3465 C   0  0  0  0  0  0  0  0  0  0  0  0
   -2.5410    5.6034  -18.9219 C   0  0  0  0  0  0  0  0  0  0  0  0
   -1.8186    6.6393  -19.8021 C   0  0  0  0  0  0  0  0  0  0  0  0
   -2.1119    5.8562  -17.4666 C   0  0  0  0  0  0  0  0  0  0  0  0
   -0.7537    5.8049  -17.3613 F   0  0  0  0  0  0  0  0  0  0  0  0
   -3.9774    5.7815  -19.2142 N   0  0  0  0  0  0  0  0  0  0  0  0
   -5.0387    5.3873  -18.4358 C   0  0  0  0  0  0  0  0  0  0  0  0
   -5.2152    5.6783  -17.0829 C   0  0  0  0  0  0  0  0  0  0  0  0
   -6.3301    5.3751  -16.3770 N   0  0  0  0  0  0  0  0  0  0  0  0
   -7.2989    4.7634  -17.0990 C   0  0  0  0  0  0  0  0  0  0  0  0
   -8.5239    4.4302  -16.3663 C   0  0  0  0  0  0  0  0  0  0  0  0
   -9.5191    3.9906  -16.9271 O   0  0  0  0  0  0  0  0  0  0  0  0
   -7.1663    4.4924  -18.4471 C   0  0  0  0  0  0  0  0  0  0  0  0
   -6.0277    4.7905  -19.1258 N   0  0  0  0  0  0  0  0  0  0  0  0
  1  2  1  0
  2  3  1  0
  2  4  1  0
  4  5  1  0
  2  6  1  0
  6  7  1  0
  7  8  2  0
  8  9  1  0
  9 10  2  0
 10 11  1  0
 11 12  2  0
 10 13  1  0
 13 14  2  0
 14  7  1  0
M  END
>  <energy_score>  (1618) 
-15.941116

>  <alias>  (1618) 
None

>  <HIPPO Pose ID>  (1618) 
72096

>  <smiles>  (1618) 
CC(C)(CF)Nc1cnc(C=O)cn1

>  <inchikey>  (1618) 
IXDRKPWBPKEQAS-UHFFFAOYSA-N

>  <distance_score>  (1618) 
0.792269

>  <ref_mols>  (1618) 
Z0875a,Z0089a

>  <ref_pdb>  (1618) 
Z0089a

>  <HIPPO Compound ID>  (1618) 
144770

>  <name>  (1618) 
P72096

>  <inspiration_score>  (1618) 
None

$$$$
P72097
     RDKit          3D

 14 14  0  0  0  0  0  0  0  0999 V2000
   -2.1102    4.3239  -19.2554 C   0  0  0  0  0  0  0  0  0  0  0  0
   -2.6494    5.7513  -19.3732 C   0  0  0  0  0  0  0  0  0  0  0  0
   -2.1768    6.6034  -18.1960 C   0  0  0  0  0  0  0  0  0  0  0  0
   -2.0443    6.4064  -20.6424 C   0  0  0  0  0  0  0  0  0  0  0  0
   -2.3796    5.6781  -21.7444 F   0  0  0  0  0  0  0  0  0  0  0  0
   -4.1115    5.7422  -19.5340 N   0  0  0  0  0  0  0  0  0  0  0  0
   -5.0843    5.3953  -18.6281 C   0  0  0  0  0  0  0  0  0  0  0  0
   -5.1375    5.7492  -17.2838 C   0  0  0  0  0  0  0  0  0  0  0  0
   -6.1951    5.5025  -16.4658 N   0  0  0  0  0  0  0  0  0  0  0  0
   -7.2510    4.8729  -17.0424 C   0  0  0  0  0  0  0  0  0  0  0  0
   -8.4379    4.5752  -16.1647 C   0  0  0  0  0  0  0  0  0  0  0  0
   -9.6504    4.4559  -16.9014 O   0  0  0  0  0  0  0  0  0  0  0  0
   -7.2049    4.5075  -18.3790 C   0  0  0  0  0  0  0  0  0  0  0  0
   -6.1285    4.7499  -19.1737 N   0  0  0  0  0  0  0  0  0  0  0  0
  1  2  1  0
  2  3  1  0
  2  4  1  0
  4  5  1  0
  2  6  1  0
  6  7  1  0
  7  8  2  0
  8  9  1  0
  9 10  2  0
 10 11  1  0
 11 12  1  0
 10 13  1  0
 13 14  2  0
 14  7  1  0
M  END
>  <energy_score>  (1619) 
-26.436086

>  <alias>  (1619) 
None

>  <HIPPO Pose ID>  (1619) 
72097

>  <smiles>  (1619) 
CC(C)(CF)Nc1cnc(CO)cn1

>  <inchikey>  (1619) 
ZHXZNDRFGIDEMV-UHFFFAOYSA-N

>  <distance_score>  (1619) 
0.884909

>  <ref_mols>  (1619) 
Z0875a,Z0089a

>  <ref_pdb>  (1619) 
Z0089a

>  <HIPPO Compound ID>  (1619) 
144771

>  <name>  (1619) 
P72097

>  <inspiration_score>  (1619) 
None

$$$$
P72100
     RDKit          3D

 14 14  0  0  0  0  0  0  0  0999 V2000
   -9.2482    4.1654  -16.6758 C   0  0  0  0  0  0  0  0  0  0  0  0
   -8.1501    4.9492  -16.2458 O   0  0  0  0  0  0  0  0  0  0  0  0
   -7.1054    5.0495  -17.1087 C   0  0  0  0  0  0  0  0  0  0  0  0
   -7.0832    4.6636  -18.4399 C   0  0  0  0  0  0  0  0  0  0  0  0
   -6.0003    4.8472  -19.2405 N   0  0  0  0  0  0  0  0  0  0  0  0
   -4.9351    5.4639  -18.7026 C   0  0  0  0  0  0  0  0  0  0  0  0
   -3.9569    5.7764  -19.6143 N   0  0  0  0  0  0  0  0  0  0  0  0
   -2.4973    5.7179  -19.4433 C   0  0  0  0  0  0  0  0  0  0  0  0
   -2.0291    4.2668  -19.3193 C   0  0  0  0  0  0  0  0  0  0  0  0
   -1.9905    6.5508  -18.2664 C   0  0  0  0  0  0  0  0  0  0  0  0
   -1.8568    6.3400  -20.7114 C   0  0  0  0  0  0  0  0  0  0  0  0
   -2.2550    5.6477  -21.8159 F   0  0  0  0  0  0  0  0  0  0  0  0
   -4.9719    5.8403  -17.3651 C   0  0  0  0  0  0  0  0  0  0  0  0
   -6.0353    5.6482  -16.5489 N   0  0  0  0  0  0  0  0  0  0  0  0
  1  2  1  0
  2  3  1  0
  3  4  2  0
  4  5  1  0
  5  6  2  0
  6  7  1  0
  7  8  1  0
  8  9  1  0
  8 10  1  0
  8 11  1  0
 11 12  1  0
  6 13  1  0
 13 14  2  0
 14  3  1  0
M  END
>  <energy_score>  (1620) 
-28.61909

>  <alias>  (1620) 
None

>  <HIPPO Pose ID>  (1620) 
72100

>  <smiles>  (1620) 
COc1cnc(NC(C)(C)CF)cn1

>  <inchikey>  (1620) 
YCFREPZWJXGTTK-UHFFFAOYSA-N

>  <distance_score>  (1620) 
0.79178

>  <ref_mols>  (1620) 
Z0875a,Z0089a

>  <ref_pdb>  (1620) 
Z0089a

>  <HIPPO Compound ID>  (1620) 
144774

>  <name>  (1620) 
P72100

>  <inspiration_score>  (1620) 
None

$$$$
P72102
     RDKit          3D

 14 14  0  0  0  0  0  0  0  0999 V2000
   -1.5475    3.6447  -19.5495 C   0  0  0  0  0  0  0  0  0  0  0  0
   -2.2456    4.8703  -20.0289 C   0  0  0  0  0  0  0  0  0  0  0  0
   -2.2842    5.1592  -21.2289 O   0  0  0  0  0  0  0  0  0  0  0  0
   -2.8933    5.7457  -18.9683 C   0  0  1  0  0  0  0  0  0  0  0  0
   -2.1191    7.0514  -18.8696 C   0  0  0  0  0  0  0  0  0  0  0  0
   -4.2685    6.0334  -19.3664 N   0  0  0  0  0  0  0  0  0  0  0  0
   -5.2724    5.5542  -18.5425 C   0  0  0  0  0  0  0  0  0  0  0  0
   -5.3334    5.8100  -17.1692 C   0  0  0  0  0  0  0  0  0  0  0  0
   -6.3627    5.4301  -16.3812 N   0  0  0  0  0  0  0  0  0  0  0  0
   -7.3557    4.7819  -17.0417 C   0  0  0  0  0  0  0  0  0  0  0  0
   -8.5184    4.4015  -16.2372 C   0  0  0  0  0  0  0  0  0  0  0  0
   -9.5247    3.9237  -16.7444 O   0  0  0  0  0  0  0  0  0  0  0  0
   -7.3151    4.5207  -18.3998 C   0  0  0  0  0  0  0  0  0  0  0  0
   -6.2559    4.8860  -19.1617 N   0  0  0  0  0  0  0  0  0  0  0  0
  1  2  1  0
  2  3  2  0
  2  4  1  0
  4  5  1  6
  4  6  1  0
  6  7  1  0
  7  8  2  0
  8  9  1  0
  9 10  2  0
 10 11  1  0
 11 12  2  0
 10 13  1  0
 13 14  2  0
 14  7  1  0
M  END
>  <energy_score>  (1621) 
-28.744969

>  <alias>  (1621) 
None

>  <HIPPO Pose ID>  (1621) 
72102

>  <smiles>  (1621) 
CC(=O)[C@@H](C)Nc1cnc(C=O)cn1

>  <inchikey>  (1621) 
QPGQCHSVFOEFDS-ZCFIWIBFSA-N

>  <distance_score>  (1621) 
0.788601

>  <ref_mols>  (1621) 
Z0875a,Z0089a

>  <ref_pdb>  (1621) 
Z0089a

>  <HIPPO Compound ID>  (1621) 
144775

>  <name>  (1621) 
P72102

>  <inspiration_score>  (1621) 
None

$$$$
P72105
     RDKit          3D

 14 14  0  0  0  0  0  0  0  0999 V2000
   -0.5369    5.3107  -18.8558 C   0  0  0  0  0  0  0  0  0  0  0  0
   -1.9391    4.8150  -19.1204 C   0  0  0  0  0  0  0  0  0  0  0  0
   -2.2378    3.6346  -18.9384 O   0  0  0  0  0  0  0  0  0  0  0  0
   -2.9133    5.8411  -19.7004 C   0  0  2  0  0  0  0  0  0  0  0  0
   -2.8088    7.2316  -19.0933 C   0  0  0  0  0  0  0  0  0  0  0  0
   -4.2722    5.3619  -19.7914 N   0  0  0  0  0  0  0  0  0  0  0  0
   -5.2376    5.1256  -18.8484 C   0  0  0  0  0  0  0  0  0  0  0  0
   -6.3311    4.5898  -19.3328 N   0  0  0  0  0  0  0  0  0  0  0  0
   -7.4051    4.4498  -18.5027 C   0  0  0  0  0  0  0  0  0  0  0  0
   -7.4486    4.8898  -17.2436 C   0  0  0  0  0  0  0  0  0  0  0  0
   -6.3532    5.4985  -16.6842 N   0  0  0  0  0  0  0  0  0  0  0  0
   -6.3830    5.9872  -15.3413 C   0  0  0  0  0  0  0  0  0  0  0  0
   -5.1364    5.5227  -17.3478 C   0  0  0  0  0  0  0  0  0  0  0  0
   -4.0897    5.8731  -16.8185 O   0  0  0  0  0  0  0  0  0  0  0  0
  1  2  1  0
  2  3  2  0
  2  4  1  0
  4  5  1  1
  4  6  1  0
  6  7  1  0
  7  8  2  0
  8  9  1  0
  9 10  2  0
 10 11  1  0
 11 12  1  0
 11 13  1  0
 13 14  2  0
 13  7  1  0
M  END
>  <energy_score>  (1622) 
-25.607824

>  <alias>  (1622) 
None

>  <HIPPO Pose ID>  (1622) 
72105

>  <smiles>  (1622) 
CC(=O)[C@H](C)Nc1nccn(C)c1=O

>  <inchikey>  (1622) 
LPGAUROXMWNJOM-LURJTMIESA-N

>  <distance_score>  (1622) 
1.179383

>  <ref_mols>  (1622) 
Z0875a,Z0089a

>  <ref_pdb>  (1622) 
Z0089a

>  <HIPPO Compound ID>  (1622) 
144777

>  <name>  (1622) 
P72105

>  <inspiration_score>  (1622) 
None

$$$$
P72109
     RDKit          3D

 14 14  0  0  0  0  0  0  0  0999 V2000
   -9.6509    3.9640  -17.6795 C   0  0  0  0  0  0  0  0  0  0  0  0
   -8.5961    4.1545  -18.6068 O   0  0  0  0  0  0  0  0  0  0  0  0
   -7.4075    4.5990  -18.0990 C   0  0  0  0  0  0  0  0  0  0  0  0
   -7.1652    4.9107  -16.7681 C   0  0  0  0  0  0  0  0  0  0  0  0
   -5.9754    5.3744  -16.3186 N   0  0  0  0  0  0  0  0  0  0  0  0
   -5.0248    5.4989  -17.2751 C   0  0  0  0  0  0  0  0  0  0  0  0
   -5.2285    5.1931  -18.6190 C   0  0  0  0  0  0  0  0  0  0  0  0
   -4.3136    5.3288  -19.6263 N   0  0  0  0  0  0  0  0  0  0  0  0
   -2.8809    5.5754  -19.5637 C   0  0  2  0  0  0  0  0  0  0  0  0
   -2.1367    4.4149  -18.9223 C   0  0  0  0  0  0  0  0  0  0  0  0
   -2.5013    6.9407  -18.9570 C   0  0  0  0  0  0  0  0  0  0  0  0
   -1.0272    7.2585  -18.8723 C   0  0  0  0  0  0  0  0  0  0  0  0
   -3.3230    7.7769  -18.5749 O   0  0  0  0  0  0  0  0  0  0  0  0
   -6.4299    4.7330  -19.0247 N   0  0  0  0  0  0  0  0  0  0  0  0
  1  2  1  0
  2  3  1  0
  3  4  2  0
  4  5  1  0
  5  6  2  0
  6  7  1  0
  7  8  1  0
  8  9  1  0
  9 10  1  1
  9 11  1  0
 11 12  1  0
 11 13  2  0
  7 14  2  0
 14  3  1  0
M  END
>  <energy_score>  (1623) 
-23.126018

>  <alias>  (1623) 
None

>  <HIPPO Pose ID>  (1623) 
72109

>  <smiles>  (1623) 
COc1cncc(N[C@H](C)C(C)=O)n1

>  <inchikey>  (1623) 
LFOPSCVNQSMXMA-ZCFIWIBFSA-N

>  <distance_score>  (1623) 
0.682811

>  <ref_mols>  (1623) 
Z0875a,Z0089a

>  <ref_pdb>  (1623) 
Z0089a

>  <HIPPO Compound ID>  (1623) 
144779

>  <name>  (1623) 
P72109

>  <inspiration_score>  (1623) 
None

$$$$
P72114
     RDKit          3D

 14 15  0  0  0  0  0  0  0  0999 V2000
   -1.8267    4.2534  -19.5434 C   0  0  0  0  0  0  0  0  0  0  0  0
   -2.7563    5.3587  -19.0479 C   0  0  1  0  0  0  0  0  0  0  0  0
   -2.3537    6.7509  -19.5297 C   0  0  0  0  0  0  0  0  0  0  0  0
   -2.4709    6.9334  -21.4752 Br  0  0  0  0  0  0  0  0  0  0  0  0
   -4.1302    5.0504  -19.4241 N   0  0  0  0  0  0  0  0  0  0  0  0
   -5.1947    4.9761  -18.5526 C   0  0  0  0  0  0  0  0  0  0  0  0
   -6.4232    4.7080  -19.0413 C   0  0  0  0  0  0  0  0  0  0  0  0
   -7.4966    4.5862  -18.1888 N   0  0  0  0  0  0  0  0  0  0  0  0
   -8.8155    4.2780  -18.3831 C   0  0  0  0  0  0  0  0  0  0  0  0
   -9.3762    4.3062  -17.1240 C   0  0  0  0  0  0  0  0  0  0  0  0
   -8.4482    4.6498  -16.1690 N   0  0  0  0  0  0  0  0  0  0  0  0
   -7.3334    4.7626  -16.8510 C   0  0  0  0  0  0  0  0  0  0  0  0
   -6.0199    5.0409  -16.3847 C   0  0  0  0  0  0  0  0  0  0  0  0
   -5.0028    5.1530  -17.1933 N   0  0  0  0  0  0  0  0  0  0  0  0
  2  1  1  6
  2  3  1  0
  3  4  1  0
  2  5  1  0
  5  6  1  0
  6  7  2  0
  7  8  1  0
  8  9  1  0
  9 10  2  0
 10 11  1  0
 11 12  2  0
 12 13  1  0
 13 14  2  0
 14  6  1  0
 12  8  1  0
M  END
>  <energy_score>  (1624) 
-29.176361

>  <alias>  (1624) 
None

>  <HIPPO Pose ID>  (1624) 
72114

>  <smiles>  (1624) 
C[C@@H](CBr)Nc1cn2ccnc2cn1

>  <inchikey>  (1624) 
XRJGXZPUBYMLGH-ZETCQYMHSA-N

>  <distance_score>  (1624) 
1.600167

>  <ref_mols>  (1624) 
Z0875a,Z0089a

>  <ref_pdb>  (1624) 
Z0089a

>  <HIPPO Compound ID>  (1624) 
144781

>  <name>  (1624) 
P72114

>  <inspiration_score>  (1624) 
None

$$$$
P72115
     RDKit          3D

 14 14  0  0  0  0  0  0  0  0999 V2000
   -2.0387    4.3226  -19.1300 C   0  0  0  0  0  0  0  0  0  0  0  0
   -2.6490    5.6585  -19.5212 C   0  0  2  0  0  0  0  0  0  0  0  0
   -2.1193    6.9177  -18.8276 C   0  0  0  0  0  0  0  0  0  0  0  0
   -1.3541    6.6508  -17.0561 Br  0  0  0  0  0  0  0  0  0  0  0  0
   -4.1044    5.6033  -19.6138 N   0  0  0  0  0  0  0  0  0  0  0  0
   -5.0314    5.3378  -18.6457 C   0  0  0  0  0  0  0  0  0  0  0  0
   -4.9650    5.6581  -17.2930 C   0  0  0  0  0  0  0  0  0  0  0  0
   -5.9827    5.4593  -16.4126 N   0  0  0  0  0  0  0  0  0  0  0  0
   -7.0959    4.8998  -16.9415 C   0  0  0  0  0  0  0  0  0  0  0  0
   -7.1777    4.5736  -18.2798 C   0  0  0  0  0  0  0  0  0  0  0  0
   -8.4225    3.9681  -18.7952 C   0  0  0  0  0  0  0  0  0  0  0  0
   -9.4474    3.7929  -18.1586 O   0  0  0  0  0  0  0  0  0  0  0  0
   -8.2835    3.5474  -20.0634 O   0  0  0  0  0  0  0  0  0  0  0  0
   -6.1452    4.7779  -19.1394 N   0  0  0  0  0  0  0  0  0  0  0  0
  2  1  1  1
  2  3  1  0
  3  4  1  0
  2  5  1  0
  5  6  1  0
  6  7  2  0
  7  8  1  0
  8  9  2  0
  9 10  1  0
 10 11  1  0
 11 12  2  0
 11 13  1  0
 10 14  2  0
 14  6  1  0
M  END
>  <energy_score>  (1625) 
-28.974265

>  <alias>  (1625) 
None

>  <HIPPO Pose ID>  (1625) 
72115

>  <smiles>  (1625) 
C[C@H](CBr)Nc1cncc(C(=O)O)n1

>  <inchikey>  (1625) 
LJRSJCFTTGDZHZ-RXMQYKEDSA-N

>  <distance_score>  (1625) 
0.67298

>  <ref_mols>  (1625) 
Z0875a,Z0089a

>  <ref_pdb>  (1625) 
Z0089a

>  <HIPPO Compound ID>  (1625) 
144782

>  <name>  (1625) 
P72115

>  <inspiration_score>  (1625) 
None

$$$$
P72117
     RDKit          3D

 14 15  0  0  0  0  0  0  0  0999 V2000
   -1.5956    4.6409  -18.9375 C   0  0  0  0  0  0  0  0  0  0  0  0
   -2.5175    5.5889  -19.6795 C   0  0  2  0  0  0  0  0  0  0  0  0
   -2.4054    7.0775  -19.3537 C   0  0  0  0  0  0  0  0  0  0  0  0
   -2.2699    7.5388  -17.4741 Br  0  0  0  0  0  0  0  0  0  0  0  0
   -3.8707    5.0712  -19.7492 N   0  0  0  0  0  0  0  0  0  0  0  0
   -4.8486    5.0807  -18.8014 C   0  0  0  0  0  0  0  0  0  0  0  0
   -4.7213    5.0692  -17.4196 C   0  0  0  0  0  0  0  0  0  0  0  0
   -5.7748    5.0947  -16.5642 N   0  0  0  0  0  0  0  0  0  0  0  0
   -7.0007    5.0448  -17.1334 C   0  0  0  0  0  0  0  0  0  0  0  0
   -8.2182    5.0275  -16.2679 C   0  0  0  0  0  0  0  0  0  0  0  0
   -8.5174    3.9281  -15.3070 C   0  0  0  0  0  0  0  0  0  0  0  0
   -9.2790    4.0032  -16.5982 C   0  0  0  0  0  0  0  0  0  0  0  0
   -7.1186    5.0292  -18.5195 C   0  0  0  0  0  0  0  0  0  0  0  0
   -6.0653    5.0628  -19.3573 N   0  0  0  0  0  0  0  0  0  0  0  0
  2  1  1  1
  2  3  1  0
  3  4  1  0
  2  5  1  0
  5  6  1  0
  6  7  2  0
  7  8  1  0
  8  9  2  0
  9 10  1  0
 10 11  1  0
 11 12  1  0
  9 13  1  0
 13 14  2  0
 14  6  1  0
 12 10  1  0
M  END
>  <energy_score>  (1626) 
-20.22525

>  <alias>  (1626) 
None

>  <HIPPO Pose ID>  (1626) 
72117

>  <smiles>  (1626) 
C[C@H](CBr)Nc1cnc(C2CC2)cn1

>  <inchikey>  (1626) 
WLCIKGBGFKYAIP-SSDOTTSWSA-N

>  <distance_score>  (1626) 
0.868188

>  <ref_mols>  (1626) 
Z0875a,Z0089a

>  <ref_pdb>  (1626) 
Z0089a

>  <HIPPO Compound ID>  (1626) 
144783

>  <name>  (1626) 
P72117

>  <inspiration_score>  (1626) 
None

$$$$
P72124
     RDKit          3D

 14 15  0  0  0  0  0  0  0  0999 V2000
   -2.0722    4.2441  -19.2379 C   0  0  0  0  0  0  0  0  0  0  0  0
   -2.8513    5.5048  -18.8684 C   0  0  1  0  0  0  0  0  0  0  0  0
   -2.1889    6.7757  -19.4082 C   0  0  0  0  0  0  0  0  0  0  0  0
   -2.1098    6.8173  -21.3642 Br  0  0  0  0  0  0  0  0  0  0  0  0
   -4.2132    5.4089  -19.3565 N   0  0  0  0  0  0  0  0  0  0  0  0
   -5.3743    5.0578  -18.7147 C   0  0  0  0  0  0  0  0  0  0  0  0
   -5.5986    5.2419  -17.3956 C   0  0  0  0  0  0  0  0  0  0  0  0
   -6.8454    4.9376  -16.8772 N   0  0  0  0  0  0  0  0  0  0  0  0
   -7.3516    5.0590  -15.6264 N   0  0  0  0  0  0  0  0  0  0  0  0
   -8.5792    4.5491  -15.7674 C   0  0  0  0  0  0  0  0  0  0  0  0
   -8.9324    4.1993  -17.0316 N   0  0  0  0  0  0  0  0  0  0  0  0
   -7.8308    4.4552  -17.6921 C   0  0  0  0  0  0  0  0  0  0  0  0
   -7.5360    4.2728  -19.0682 C   0  0  0  0  0  0  0  0  0  0  0  0
   -6.3550    4.5432  -19.5404 N   0  0  0  0  0  0  0  0  0  0  0  0
  2  1  1  6
  2  3  1  0
  3  4  1  0
  2  5  1  0
  5  6  1  0
  6  7  2  0
  7  8  1  0
  8  9  1  0
  9 10  2  0
 10 11  1  0
 11 12  2  0
 12 13  1  0
 13 14  2  0
 14  6  1  0
 12  8  1  0
M  END
>  <energy_score>  (1627) 
-26.140707

>  <alias>  (1627) 
None

>  <HIPPO Pose ID>  (1627) 
72124

>  <smiles>  (1627) 
C[C@@H](CBr)Nc1cn2ncnc2cn1

>  <inchikey>  (1627) 
RNUULSPLAXTLBE-LURJTMIESA-N

>  <distance_score>  (1627) 
1.197137

>  <ref_mols>  (1627) 
Z0875a,Z0089a

>  <ref_pdb>  (1627) 
Z0089a

>  <HIPPO Compound ID>  (1627) 
144786

>  <name>  (1627) 
P72124

>  <inspiration_score>  (1627) 
None

$$$$
P72126
     RDKit          3D

 14 15  0  0  0  0  0  0  0  0999 V2000
   -1.8048    4.4568  -19.3803 C   0  0  0  0  0  0  0  0  0  0  0  0
   -2.8255    5.4008  -18.7384 C   0  0  1  0  0  0  0  0  0  0  0  0
   -2.4736    6.8483  -19.0862 C   0  0  0  0  0  0  0  0  0  0  0  0
   -3.4639    8.1138  -17.9735 Br  0  0  0  0  0  0  0  0  0  0  0  0
   -4.1322    5.0451  -19.2506 N   0  0  0  0  0  0  0  0  0  0  0  0
   -5.3447    4.8771  -18.6325 C   0  0  0  0  0  0  0  0  0  0  0  0
   -5.5577    5.0470  -17.3065 C   0  0  0  0  0  0  0  0  0  0  0  0
   -6.8373    4.8709  -16.8193 N   0  0  0  0  0  0  0  0  0  0  0  0
   -7.4157    4.9669  -15.5896 C   0  0  0  0  0  0  0  0  0  0  0  0
   -8.7089    4.7388  -15.6755 N   0  0  0  0  0  0  0  0  0  0  0  0
   -8.9898    4.4375  -16.9891 N   0  0  0  0  0  0  0  0  0  0  0  0
   -7.8606    4.5315  -17.6453 C   0  0  0  0  0  0  0  0  0  0  0  0
   -7.5813    4.3411  -19.0226 C   0  0  0  0  0  0  0  0  0  0  0  0
   -6.3739    4.5061  -19.4831 N   0  0  0  0  0  0  0  0  0  0  0  0
  2  1  1  6
  2  3  1  0
  3  4  1  0
  2  5  1  0
  5  6  1  0
  6  7  2  0
  7  8  1  0
  8  9  1  0
  9 10  2  0
 10 11  1  0
 11 12  2  0
 12 13  1  0
 13 14  2  0
 14  6  1  0
 12  8  1  0
M  END
>  <energy_score>  (1628) 
-35.098718

>  <alias>  (1628) 
None

>  <HIPPO Pose ID>  (1628) 
72126

>  <smiles>  (1628) 
C[C@@H](CBr)Nc1cn2cnnc2cn1

>  <inchikey>  (1628) 
SKSIANXYKHXIOR-LURJTMIESA-N

>  <distance_score>  (1628) 
1.65655

>  <ref_mols>  (1628) 
Z0875a,Z0089a

>  <ref_pdb>  (1628) 
Z0089a

>  <HIPPO Compound ID>  (1628) 
144787

>  <name>  (1628) 
P72126

>  <inspiration_score>  (1628) 
None

$$$$
P72128
     RDKit          3D

 14 14  0  0  0  0  0  0  0  0999 V2000
   -8.7143    4.5603  -16.0104 C   0  0  0  0  0  0  0  0  0  0  0  0
   -7.4921    4.8426  -16.8183 C   0  0  0  0  0  0  0  0  0  0  0  0
   -6.4425    5.3495  -16.1379 N   0  0  0  0  0  0  0  0  0  0  0  0
   -5.3097    5.6166  -16.8379 C   0  0  0  0  0  0  0  0  0  0  0  0
   -4.2531    6.2400  -15.9888 C   0  0  0  0  0  0  0  0  0  0  0  0
   -5.2142    5.3616  -18.2141 C   0  0  0  0  0  0  0  0  0  0  0  0
   -4.1922    5.6694  -19.0790 N   0  0  0  0  0  0  0  0  0  0  0  0
   -2.7637    5.6088  -18.8079 C   0  0  1  0  0  0  0  0  0  0  0  0
   -2.2062    4.2562  -19.2446 C   0  0  0  0  0  0  0  0  0  0  0  0
   -2.0464    6.7141  -19.5903 C   0  0  0  0  0  0  0  0  0  0  0  0
   -2.4336    8.4860  -18.8700 Br  0  0  0  0  0  0  0  0  0  0  0  0
   -6.2739    4.8426  -18.8749 N   0  0  0  0  0  0  0  0  0  0  0  0
   -7.4142    4.5890  -18.1803 C   0  0  0  0  0  0  0  0  0  0  0  0
   -8.6002    4.1017  -18.9562 C   0  0  0  0  0  0  0  0  0  0  0  0
  1  2  1  0
  2  3  2  0
  3  4  1  0
  4  5  1  0
  4  6  2  0
  6  7  1  0
  7  8  1  0
  8  9  1  6
  8 10  1  0
 10 11  1  0
  6 12  1  0
 12 13  2  0
 13 14  1  0
 13  2  1  0
M  END
>  <energy_score>  (1629) 
-18.258277

>  <alias>  (1629) 
None

>  <HIPPO Pose ID>  (1629) 
72128

>  <smiles>  (1629) 
Cc1nc(C)c(N[C@@H](C)CBr)nc1C

>  <inchikey>  (1629) 
LXKOIIHYTFECMB-LURJTMIESA-N

>  <distance_score>  (1629) 
1.167999

>  <ref_mols>  (1629) 
Z0875a,Z0089a

>  <ref_pdb>  (1629) 
Z0089a

>  <HIPPO Compound ID>  (1629) 
144788

>  <name>  (1629) 
P72128

>  <inspiration_score>  (1629) 
None

$$$$
P72130
     RDKit          3D

 14 15  0  0  0  0  0  0  0  0999 V2000
   -2.0359    4.1888  -19.3652 C   0  0  0  0  0  0  0  0  0  0  0  0
   -2.7363    5.4886  -18.9810 C   0  0  1  0  0  0  0  0  0  0  0  0
   -2.0707    6.7235  -19.5951 C   0  0  0  0  0  0  0  0  0  0  0  0
   -2.1247    6.7255  -21.5491 Br  0  0  0  0  0  0  0  0  0  0  0  0
   -4.1410    5.4437  -19.3486 N   0  0  0  0  0  0  0  0  0  0  0  0
   -5.1950    5.1717  -18.5081 C   0  0  0  0  0  0  0  0  0  0  0  0
   -5.1866    5.3768  -17.1207 C   0  0  0  0  0  0  0  0  0  0  0  0
   -6.2383    5.1843  -16.2788 N   0  0  0  0  0  0  0  0  0  0  0  0
   -7.3139    4.7590  -16.9703 C   0  0  0  0  0  0  0  0  0  0  0  0
   -8.5381    4.4486  -16.4464 N   0  0  0  0  0  0  0  0  0  0  0  0
   -9.4074    4.1280  -17.4638 C   0  0  0  0  0  0  0  0  0  0  0  0
   -8.7038    4.1739  -18.6509 C   0  0  0  0  0  0  0  0  0  0  0  0
   -7.3785    4.5579  -18.3438 C   0  0  0  0  0  0  0  0  0  0  0  0
   -6.3014    4.7515  -19.1434 N   0  0  0  0  0  0  0  0  0  0  0  0
  2  1  1  6
  2  3  1  0
  3  4  1  0
  2  5  1  0
  5  6  1  0
  6  7  2  0
  7  8  1  0
  8  9  2  0
  9 10  1  0
 10 11  1  0
 11 12  2  0
 12 13  1  0
 13 14  2  0
 14  6  1  0
 13  9  1  0
M  END
>  <energy_score>  (1630) 
-37.10151

>  <alias>  (1630) 
None

>  <HIPPO Pose ID>  (1630) 
72130

>  <smiles>  (1630) 
C[C@@H](CBr)Nc1cnc2[nH]ccc2n1

>  <inchikey>  (1630) 
NMNMOYNANMTTHZ-LURJTMIESA-N

>  <distance_score>  (1630) 
0.754436

>  <ref_mols>  (1630) 
Z0875a,Z0089a

>  <ref_pdb>  (1630) 
Z0089a

>  <HIPPO Compound ID>  (1630) 
144789

>  <name>  (1630) 
P72130

>  <inspiration_score>  (1630) 
None

$$$$
P72131
     RDKit          3D

 14 15  0  0  0  0  0  0  0  0999 V2000
   -2.1768    4.5476  -19.0545 C   0  0  0  0  0  0  0  0  0  0  0  0
   -3.2273    5.5169  -19.5930 C   0  0  2  0  0  0  0  0  0  0  0  0
   -2.9929    6.9399  -19.0839 C   0  0  0  0  0  0  0  0  0  0  0  0
   -4.1728    8.2127  -19.9878 Br  0  0  0  0  0  0  0  0  0  0  0  0
   -4.5853    5.0000  -19.3893 N   0  0  0  0  0  0  0  0  0  0  0  0
   -5.3564    4.9153  -18.2249 C   0  0  0  0  0  0  0  0  0  0  0  0
   -4.9194    5.1441  -16.9620 C   0  0  0  0  0  0  0  0  0  0  0  0
   -5.6822    5.0739  -15.8115 N   0  0  0  0  0  0  0  0  0  0  0  0
   -6.9373    4.7431  -15.9341 C   0  0  0  0  0  0  0  0  0  0  0  0
   -7.5118    4.4804  -17.2009 C   0  0  0  0  0  0  0  0  0  0  0  0
   -8.7436    4.1509  -17.4947 N   0  0  0  0  0  0  0  0  0  0  0  0
   -8.7342    3.9806  -18.8485 N   0  0  0  0  0  0  0  0  0  0  0  0
   -7.5180    4.1802  -19.3512 N   0  0  0  0  0  0  0  0  0  0  0  0
   -6.7262    4.5462  -18.3233 N   0  0  0  0  0  0  0  0  0  0  0  0
  2  1  1  1
  2  3  1  0
  3  4  1  0
  2  5  1  0
  5  6  1  0
  6  7  2  0
  7  8  1  0
  8  9  2  0
  9 10  1  0
 10 11  2  0
 11 12  1  0
 12 13  2  0
 13 14  1  0
 14  6  1  0
 14 10  1  0
M  END
>  <energy_score>  (1631) 
-20.570935

>  <alias>  (1631) 
None

>  <HIPPO Pose ID>  (1631) 
72131

>  <smiles>  (1631) 
C[C@H](CBr)Nc1cncc2nnnn12

>  <inchikey>  (1631) 
UYFONBCSBMZLRK-RXMQYKEDSA-N

>  <distance_score>  (1631) 
1.438996

>  <ref_mols>  (1631) 
Z0875a,Z0089a

>  <ref_pdb>  (1631) 
Z0089a

>  <HIPPO Compound ID>  (1631) 
144790

>  <name>  (1631) 
P72131

>  <inspiration_score>  (1631) 
None

$$$$
P72133
     RDKit          3D

 14 15  0  0  0  0  0  0  0  0999 V2000
   -1.5478    4.6496  -19.6395 C   0  0  0  0  0  0  0  0  0  0  0  0
   -2.6753    5.6612  -19.8033 C   0  0  2  0  0  0  0  0  0  0  0  0
   -2.3566    7.0064  -19.1495 C   0  0  0  0  0  0  0  0  0  0  0  0
   -3.6738    8.3590  -19.6710 Br  0  0  0  0  0  0  0  0  0  0  0  0
   -3.9525    5.0711  -19.4039 N   0  0  0  0  0  0  0  0  0  0  0  0
   -4.4517    4.9257  -18.1102 C   0  0  0  0  0  0  0  0  0  0  0  0
   -3.7229    4.9036  -16.9639 C   0  0  0  0  0  0  0  0  0  0  0  0
   -4.2205    4.8276  -15.6716 N   0  0  0  0  0  0  0  0  0  0  0  0
   -5.5174    4.7866  -15.5397 C   0  0  0  0  0  0  0  0  0  0  0  0
   -6.3842    4.8015  -16.6753 C   0  0  0  0  0  0  0  0  0  0  0  0
   -7.6956    4.8024  -16.6824 N   0  0  0  0  0  0  0  0  0  0  0  0
   -8.0189    4.6929  -18.0110 C   0  0  0  0  0  0  0  0  0  0  0  0
   -6.8955    4.7261  -18.8040 C   0  0  0  0  0  0  0  0  0  0  0  0
   -5.8423    4.8166  -17.9357 N   0  0  0  0  0  0  0  0  0  0  0  0
  2  1  1  1
  2  3  1  0
  3  4  1  0
  2  5  1  0
  5  6  1  0
  6  7  2  0
  7  8  1  0
  8  9  2  0
  9 10  1  0
 10 11  2  0
 11 12  1  0
 12 13  2  0
 13 14  1  0
 14  6  1  0
 14 10  1  0
M  END
>  <energy_score>  (1632) 
-22.378528

>  <alias>  (1632) 
None

>  <HIPPO Pose ID>  (1632) 
72133

>  <smiles>  (1632) 
C[C@H](CBr)Nc1cncc2nccn12

>  <inchikey>  (1632) 
OBRWWBDLIMUKCL-SSDOTTSWSA-N

>  <distance_score>  (1632) 
1.569275

>  <ref_mols>  (1632) 
Z0875a,Z0089a

>  <ref_pdb>  (1632) 
Z0089a

>  <HIPPO Compound ID>  (1632) 
144791

>  <name>  (1632) 
P72133

>  <inspiration_score>  (1632) 
None

$$$$
P72136
     RDKit          3D

 14 15  0  0  0  0  0  0  0  0999 V2000
   -1.7412    4.2584  -19.6149 C   0  0  0  0  0  0  0  0  0  0  0  0
   -2.7026    5.3053  -19.0571 C   0  0  1  0  0  0  0  0  0  0  0  0
   -2.3410    6.7350  -19.4531 C   0  0  0  0  0  0  0  0  0  0  0  0
   -2.4582    7.0241  -21.3855 Br  0  0  0  0  0  0  0  0  0  0  0  0
   -4.0575    4.9792  -19.4527 N   0  0  0  0  0  0  0  0  0  0  0  0
   -5.1738    4.9525  -18.6583 C   0  0  0  0  0  0  0  0  0  0  0  0
   -6.2842    4.6095  -19.2772 N   0  0  0  0  0  0  0  0  0  0  0  0
   -7.4650    4.5099  -18.5655 C   0  0  0  0  0  0  0  0  0  0  0  0
   -7.5605    4.7283  -17.2445 C   0  0  0  0  0  0  0  0  0  0  0  0
   -6.4167    5.1116  -16.5837 N   0  0  0  0  0  0  0  0  0  0  0  0
   -6.1439    5.4369  -15.2904 C   0  0  0  0  0  0  0  0  0  0  0  0
   -4.8893    5.8211  -15.1789 N   0  0  0  0  0  0  0  0  0  0  0  0
   -4.3064    5.7064  -16.4263 N   0  0  0  0  0  0  0  0  0  0  0  0
   -5.2329    5.2568  -17.2456 C   0  0  0  0  0  0  0  0  0  0  0  0
  2  1  1  6
  2  3  1  0
  3  4  1  0
  2  5  1  0
  5  6  1  0
  6  7  2  0
  7  8  1  0
  8  9  2  0
  9 10  1  0
 10 11  1  0
 11 12  2  0
 12 13  1  0
 13 14  2  0
 14  6  1  0
 14 10  1  0
M  END
>  <energy_score>  (1633) 
-25.183136

>  <alias>  (1633) 
None

>  <HIPPO Pose ID>  (1633) 
72136

>  <smiles>  (1633) 
C[C@@H](CBr)Nc1nccn2cnnc12

>  <inchikey>  (1633) 
YSKGQXIAMSKGAK-LURJTMIESA-N

>  <distance_score>  (1633) 
0.692424

>  <ref_mols>  (1633) 
Z0875a,Z0089a

>  <ref_pdb>  (1633) 
Z0089a

>  <HIPPO Compound ID>  (1633) 
144792

>  <name>  (1633) 
P72136

>  <inspiration_score>  (1633) 
None

$$$$
P72139
     RDKit          3D

 14 14  0  0  0  0  0  0  0  0999 V2000
   -4.2222    6.1631  -15.9891 C   0  0  0  0  0  0  0  0  0  0  0  0
   -5.2765    5.5304  -16.8526 C   0  0  0  0  0  0  0  0  0  0  0  0
   -6.4539    5.3368  -16.1723 N   0  0  0  0  0  0  0  0  0  0  0  0
   -7.5894    4.8825  -16.7682 C   0  0  0  0  0  0  0  0  0  0  0  0
   -8.6529    4.7825  -16.1829 O   0  0  0  0  0  0  0  0  0  0  0  0
   -7.4302    4.5651  -18.2374 C   0  0  0  0  0  0  0  0  0  0  0  0
   -8.6639    4.0922  -18.9454 C   0  0  0  0  0  0  0  0  0  0  0  0
   -6.3005    4.7265  -18.8623 N   0  0  0  0  0  0  0  0  0  0  0  0
   -5.2011    5.2149  -18.1782 C   0  0  0  0  0  0  0  0  0  0  0  0
   -4.0954    5.3671  -18.9927 N   0  0  0  0  0  0  0  0  0  0  0  0
   -2.6754    5.3630  -18.6742 C   0  0  1  0  0  0  0  0  0  0  0  0
   -1.9835    4.2218  -19.4197 C   0  0  0  0  0  0  0  0  0  0  0  0
   -2.0895    6.7218  -19.0667 C   0  0  0  0  0  0  0  0  0  0  0  0
   -0.3712    7.0322  -18.1948 Br  0  0  0  0  0  0  0  0  0  0  0  0
  1  2  1  0
  2  3  1  0
  3  4  1  0
  4  5  2  0
  4  6  1  0
  6  7  1  0
  6  8  2  0
  8  9  1  0
  9 10  1  0
 10 11  1  0
 11 12  1  6
 11 13  1  0
 13 14  1  0
  9  2  2  0
M  END
>  <energy_score>  (1634) 
-26.66465

>  <alias>  (1634) 
None

>  <HIPPO Pose ID>  (1634) 
72139

>  <smiles>  (1634) 
Cc1[nH]c(=O)c(C)nc1N[C@@H](C)CBr

>  <inchikey>  (1634) 
HBXVABPVYAODMH-YFKPBYRVSA-N

>  <distance_score>  (1634) 
1.328712

>  <ref_mols>  (1634) 
Z0875a,Z0089a

>  <ref_pdb>  (1634) 
Z0089a

>  <HIPPO Compound ID>  (1634) 
144794

>  <name>  (1634) 
P72139

>  <inspiration_score>  (1634) 
None

$$$$
P72140
     RDKit          3D

 14 15  0  0  0  0  0  0  0  0999 V2000
   -2.4495    4.5384  -18.3654 C   0  0  0  0  0  0  0  0  0  0  0  0
   -2.9383    5.3729  -19.5259 C   0  0  2  0  0  0  0  0  0  0  0  0
   -1.9706    6.5011  -19.8933 C   0  0  0  0  0  0  0  0  0  0  0  0
   -1.8355    7.9132  -18.5645 Br  0  0  0  0  0  0  0  0  0  0  0  0
   -4.3070    5.8768  -19.4477 N   0  0  0  0  0  0  0  0  0  0  0  0
   -5.2862    5.4345  -18.5915 C   0  0  0  0  0  0  0  0  0  0  0  0
   -6.2568    4.7898  -19.1961 N   0  0  0  0  0  0  0  0  0  0  0  0
   -7.3755    4.4296  -18.4808 C   0  0  0  0  0  0  0  0  0  0  0  0
   -7.5418    4.7040  -17.1822 C   0  0  0  0  0  0  0  0  0  0  0  0
   -6.5409    5.3798  -16.5155 N   0  0  0  0  0  0  0  0  0  0  0  0
   -6.5399    5.8312  -15.2356 N   0  0  0  0  0  0  0  0  0  0  0  0
   -5.3484    6.4068  -15.0852 C   0  0  0  0  0  0  0  0  0  0  0  0
   -4.5924    6.3916  -16.2646 C   0  0  0  0  0  0  0  0  0  0  0  0
   -5.3843    5.7376  -17.1796 C   0  0  0  0  0  0  0  0  0  0  0  0
  2  1  1  1
  2  3  1  0
  3  4  1  0
  2  5  1  0
  5  6  1  0
  6  7  2  0
  7  8  1  0
  8  9  2  0
  9 10  1  0
 10 11  1  0
 11 12  2  0
 12 13  1  0
 13 14  2  0
 14  6  1  0
 14 10  1  0
M  END
>  <energy_score>  (1635) 
-10.628643

>  <alias>  (1635) 
None

>  <HIPPO Pose ID>  (1635) 
72140

>  <smiles>  (1635) 
C[C@H](CBr)Nc1nccn2nccc12

>  <inchikey>  (1635) 
RMLLKWXOSFGDLM-SSDOTTSWSA-N

>  <distance_score>  (1635) 
1.257634

>  <ref_mols>  (1635) 
Z0875a,Z0089a

>  <ref_pdb>  (1635) 
Z0089a

>  <HIPPO Compound ID>  (1635) 
144795

>  <name>  (1635) 
P72140

>  <inspiration_score>  (1635) 
None

$$$$
P72144
     RDKit          3D

 14 15  0  0  0  0  0  0  0  0999 V2000
   -1.9892    4.4723  -19.0293 C   0  0  0  0  0  0  0  0  0  0  0  0
   -2.8590    5.5722  -19.6289 C   0  0  2  0  0  0  0  0  0  0  0  0
   -2.6178    6.9495  -19.0109 C   0  0  0  0  0  0  0  0  0  0  0  0
   -0.9780    7.7575  -19.7022 Br  0  0  0  0  0  0  0  0  0  0  0  0
   -4.2597    5.1823  -19.6129 N   0  0  0  0  0  0  0  0  0  0  0  0
   -5.1630    5.1300  -18.5917 C   0  0  0  0  0  0  0  0  0  0  0  0
   -4.9055    5.3473  -17.2437 C   0  0  0  0  0  0  0  0  0  0  0  0
   -5.8561    5.3299  -16.2836 N   0  0  0  0  0  0  0  0  0  0  0  0
   -7.0943    5.0141  -16.7277 C   0  0  0  0  0  0  0  0  0  0  0  0
   -7.4079    4.7618  -18.0615 C   0  0  0  0  0  0  0  0  0  0  0  0
   -8.7895    4.3722  -18.5324 C   0  0  0  0  0  0  0  0  0  0  0  0
   -9.5184    3.2867  -17.7987 C   0  0  0  0  0  0  0  0  0  0  0  0
  -10.0743    4.6525  -17.7761 C   0  0  0  0  0  0  0  0  0  0  0  0
   -6.4165    4.8390  -18.9888 N   0  0  0  0  0  0  0  0  0  0  0  0
  2  1  1  1
  2  3  1  0
  3  4  1  0
  2  5  1  0
  5  6  1  0
  6  7  2  0
  7  8  1  0
  8  9  2  0
  9 10  1  0
 10 11  1  0
 11 12  1  0
 12 13  1  0
 10 14  2  0
 14  6  1  0
 13 11  1  0
M  END
>  <energy_score>  (1636) 
-16.196664

>  <alias>  (1636) 
None

>  <HIPPO Pose ID>  (1636) 
72144

>  <smiles>  (1636) 
C[C@H](CBr)Nc1cncc(C2CC2)n1

>  <inchikey>  (1636) 
NYRYSCFMJWBGNW-SSDOTTSWSA-N

>  <distance_score>  (1636) 
0.884841

>  <ref_mols>  (1636) 
Z0875a,Z0089a

>  <ref_pdb>  (1636) 
Z0089a

>  <HIPPO Compound ID>  (1636) 
144797

>  <name>  (1636) 
P72144

>  <inspiration_score>  (1636) 
None

$$$$
P72149
     RDKit          3D

 14 15  0  0  0  0  0  0  0  0999 V2000
   -1.6752    4.2597  -19.7085 C   0  0  0  0  0  0  0  0  0  0  0  0
   -2.6463    5.2748  -19.1141 C   0  0  1  0  0  0  0  0  0  0  0  0
   -2.3163    6.7215  -19.4703 C   0  0  0  0  0  0  0  0  0  0  0  0
   -2.4614    7.0648  -21.3921 Br  0  0  0  0  0  0  0  0  0  0  0  0
   -4.0018    4.9349  -19.4959 N   0  0  0  0  0  0  0  0  0  0  0  0
   -5.1077    4.9504  -18.6849 C   0  0  0  0  0  0  0  0  0  0  0  0
   -6.2370    4.6221  -19.2747 N   0  0  0  0  0  0  0  0  0  0  0  0
   -7.4003    4.5594  -18.5327 C   0  0  0  0  0  0  0  0  0  0  0  0
   -7.4598    4.8044  -17.2147 C   0  0  0  0  0  0  0  0  0  0  0  0
   -6.2963    5.1792  -16.5804 N   0  0  0  0  0  0  0  0  0  0  0  0
   -6.0260    5.5156  -15.2834 C   0  0  0  0  0  0  0  0  0  0  0  0
   -4.6920    5.8578  -15.2670 C   0  0  0  0  0  0  0  0  0  0  0  0
   -4.1350    5.7321  -16.5116 N   0  0  0  0  0  0  0  0  0  0  0  0
   -5.1194    5.2885  -17.2715 C   0  0  0  0  0  0  0  0  0  0  0  0
  2  1  1  6
  2  3  1  0
  3  4  1  0
  2  5  1  0
  5  6  1  0
  6  7  2  0
  7  8  1  0
  8  9  2  0
  9 10  1  0
 10 11  1  0
 11 12  2  0
 12 13  1  0
 13 14  2  0
 14  6  1  0
 14 10  1  0
M  END
>  <energy_score>  (1637) 
-18.294624

>  <alias>  (1637) 
None

>  <HIPPO Pose ID>  (1637) 
72149

>  <smiles>  (1637) 
C[C@@H](CBr)Nc1nccn2ccnc12

>  <inchikey>  (1637) 
ZWWBMWUAOVIYSA-ZETCQYMHSA-N

>  <distance_score>  (1637) 
0.692727

>  <ref_mols>  (1637) 
Z0875a,Z0089a

>  <ref_pdb>  (1637) 
Z0089a

>  <HIPPO Compound ID>  (1637) 
144799

>  <name>  (1637) 
P72149

>  <inspiration_score>  (1637) 
None

$$$$
P72151
     RDKit          3D

 14 14  0  0  0  0  0  0  0  0999 V2000
   -0.3617    5.3625  -19.6862 C   0  0  0  0  0  0  0  0  0  0  0  0
   -1.8111    5.3326  -20.0956 C   0  0  0  0  0  0  0  0  0  0  0  0
   -2.1444    5.1257  -21.2671 O   0  0  0  0  0  0  0  0  0  0  0  0
   -2.8315    5.6588  -19.0042 C   0  0  1  0  0  0  0  0  0  0  0  0
   -2.9966    7.1733  -18.9840 C   0  0  0  0  0  0  0  0  0  0  0  0
   -4.0884    4.9875  -19.2876 N   0  0  0  0  0  0  0  0  0  0  0  0
   -5.1669    4.9840  -18.4354 C   0  0  0  0  0  0  0  0  0  0  0  0
   -5.1061    5.2367  -17.0685 C   0  0  0  0  0  0  0  0  0  0  0  0
   -6.1796    5.2189  -16.2487 N   0  0  0  0  0  0  0  0  0  0  0  0
   -7.3502    4.8557  -16.8286 C   0  0  0  0  0  0  0  0  0  0  0  0
   -8.5123    4.6970  -15.9023 C   0  0  0  0  0  0  0  0  0  0  0  0
   -7.4325    4.5682  -18.1926 C   0  0  0  0  0  0  0  0  0  0  0  0
   -8.7161    4.1475  -18.8428 C   0  0  0  0  0  0  0  0  0  0  0  0
   -6.3417    4.6618  -18.9997 N   0  0  0  0  0  0  0  0  0  0  0  0
  1  2  1  0
  2  3  2  0
  2  4  1  0
  4  5  1  6
  4  6  1  0
  6  7  1  0
  7  8  2  0
  8  9  1  0
  9 10  2  0
 10 11  1  0
 10 12  1  0
 12 13  1  0
 12 14  2  0
 14  7  1  0
M  END
>  <energy_score>  (1638) 
-34.713749

>  <alias>  (1638) 
None

>  <HIPPO Pose ID>  (1638) 
72151

>  <smiles>  (1638) 
CC(=O)[C@@H](C)Nc1cnc(C)c(C)n1

>  <inchikey>  (1638) 
BGNZKGKHHQXKGE-MRVPVSSYSA-N

>  <distance_score>  (1638) 
0.811712

>  <ref_mols>  (1638) 
Z0875a,Z0089a

>  <ref_pdb>  (1638) 
Z0089a

>  <HIPPO Compound ID>  (1638) 
144800

>  <name>  (1638) 
P72151

>  <inspiration_score>  (1638) 
None

$$$$
P72155
     RDKit          3D

 14 14  0  0  0  0  0  0  0  0999 V2000
   -1.3859    5.1524  -20.5069 C   0  0  0  0  0  0  0  0  0  0  0  0
   -2.0970    4.5633  -19.3172 C   0  0  0  0  0  0  0  0  0  0  0  0
   -2.1591    3.3437  -19.1619 O   0  0  0  0  0  0  0  0  0  0  0  0
   -2.7637    5.5238  -18.3281 C   0  0  1  0  0  0  0  0  0  0  0  0
   -1.9223    6.7891  -18.1624 C   0  0  0  0  0  0  0  0  0  0  0  0
   -4.0959    5.9285  -18.7878 N   0  0  0  0  0  0  0  0  0  0  0  0
   -5.2316    5.4026  -18.1878 C   0  0  0  0  0  0  0  0  0  0  0  0
   -6.0839    4.9229  -19.1186 N   0  0  0  0  0  0  0  0  0  0  0  0
   -7.2916    4.4865  -18.6920 C   0  0  0  0  0  0  0  0  0  0  0  0
   -7.6542    4.5169  -17.3632 C   0  0  0  0  0  0  0  0  0  0  0  0
   -6.8314    4.9934  -16.4083 N   0  0  0  0  0  0  0  0  0  0  0  0
   -5.6131    5.4247  -16.8329 C   0  0  0  0  0  0  0  0  0  0  0  0
   -4.7877    6.0294  -15.7584 C   0  0  0  0  0  0  0  0  0  0  0  0
   -4.9544    5.8307  -14.5582 O   0  0  0  0  0  0  0  0  0  0  0  0
  1  2  1  0
  2  3  2  0
  2  4  1  0
  4  5  1  6
  4  6  1  0
  6  7  1  0
  7  8  2  0
  8  9  1  0
  9 10  2  0
 10 11  1  0
 11 12  2  0
 12 13  1  0
 13 14  2  0
 12  7  1  0
M  END
>  <energy_score>  (1639) 
-11.737743

>  <alias>  (1639) 
None

>  <HIPPO Pose ID>  (1639) 
72155

>  <smiles>  (1639) 
CC(=O)[C@@H](C)Nc1nccnc1C=O

>  <inchikey>  (1639) 
HOSWFZSEZPHWOQ-ZCFIWIBFSA-N

>  <distance_score>  (1639) 
0.992801

>  <ref_mols>  (1639) 
Z0875a,Z0089a

>  <ref_pdb>  (1639) 
Z0089a

>  <HIPPO Compound ID>  (1639) 
144802

>  <name>  (1639) 
P72155

>  <inspiration_score>  (1639) 
None

$$$$
P72158
     RDKit          3D

 14 14  0  0  0  0  0  0  0  0999 V2000
   -9.1552    4.0908  -16.3309 C   0  0  0  0  0  0  0  0  0  0  0  0
   -7.7995    4.5690  -15.8576 C   0  0  0  0  0  0  0  0  0  0  0  0
   -6.7743    4.7978  -16.9231 C   0  0  0  0  0  0  0  0  0  0  0  0
   -7.0349    4.7295  -18.2826 C   0  0  0  0  0  0  0  0  0  0  0  0
   -6.0821    4.9373  -19.2166 N   0  0  0  0  0  0  0  0  0  0  0  0
   -4.8480    5.2346  -18.7839 C   0  0  0  0  0  0  0  0  0  0  0  0
   -3.9707    5.4851  -19.8001 N   0  0  0  0  0  0  0  0  0  0  0  0
   -2.5270    5.6085  -19.7187 C   0  0  2  0  0  0  0  0  0  0  0  0
   -1.8607    4.2987  -19.3293 C   0  0  0  0  0  0  0  0  0  0  0  0
   -2.0994    6.7948  -18.8475 C   0  0  0  0  0  0  0  0  0  0  0  0
   -2.5556    8.1615  -19.2956 C   0  0  0  0  0  0  0  0  0  0  0  0
   -1.4155    6.6630  -17.8306 O   0  0  0  0  0  0  0  0  0  0  0  0
   -4.5919    5.3068  -17.4197 C   0  0  0  0  0  0  0  0  0  0  0  0
   -5.5330    5.0972  -16.4732 N   0  0  0  0  0  0  0  0  0  0  0  0
  1  2  1  0
  2  3  1  0
  3  4  2  0
  4  5  1  0
  5  6  2  0
  6  7  1  0
  7  8  1  0
  8  9  1  1
  8 10  1  0
 10 11  1  0
 10 12  2  0
  6 13  1  0
 13 14  2  0
 14  3  1  0
M  END
>  <energy_score>  (1640) 
-36.69766

>  <alias>  (1640) 
None

>  <HIPPO Pose ID>  (1640) 
72158

>  <smiles>  (1640) 
CCc1cnc(N[C@H](C)C(C)=O)cn1

>  <inchikey>  (1640) 
JCIUUUKWODQPAY-SSDOTTSWSA-N

>  <distance_score>  (1640) 
0.834137

>  <ref_mols>  (1640) 
Z0875a,Z0089a

>  <ref_pdb>  (1640) 
Z0089a

>  <HIPPO Compound ID>  (1640) 
144804

>  <name>  (1640) 
P72158

>  <inspiration_score>  (1640) 
None

$$$$
P72160
     RDKit          3D

 14 14  0  0  0  0  0  0  0  0999 V2000
   -8.8950    4.4730  -15.5276 C   0  0  0  0  0  0  0  0  0  0  0  0
   -8.0277    4.7138  -16.3165 C   0  0  0  0  0  0  0  0  0  0  0  0
   -6.9662    4.9461  -17.2245 C   0  0  0  0  0  0  0  0  0  0  0  0
   -7.0456    4.5814  -18.5520 C   0  0  0  0  0  0  0  0  0  0  0  0
   -6.0125    4.7745  -19.3995 N   0  0  0  0  0  0  0  0  0  0  0  0
   -4.9158    5.3762  -18.9030 C   0  0  0  0  0  0  0  0  0  0  0  0
   -3.9647    5.6153  -19.8592 N   0  0  0  0  0  0  0  0  0  0  0  0
   -2.5206    5.6398  -19.6595 C   0  0  2  0  0  0  0  0  0  0  0  0
   -1.9992    4.3247  -19.1061 C   0  0  0  0  0  0  0  0  0  0  0  0
   -2.0238    6.8788  -18.8887 C   0  0  0  0  0  0  0  0  0  0  0  0
   -0.5503    6.9357  -18.5634 C   0  0  0  0  0  0  0  0  0  0  0  0
   -2.7494    7.8242  -18.5710 O   0  0  0  0  0  0  0  0  0  0  0  0
   -4.8611    5.7351  -17.5575 C   0  0  0  0  0  0  0  0  0  0  0  0
   -5.8753    5.5303  -16.6852 N   0  0  0  0  0  0  0  0  0  0  0  0
  1  2  3  0
  2  3  1  0
  3  4  2  0
  4  5  1  0
  5  6  2  0
  6  7  1  0
  7  8  1  0
  8  9  1  1
  8 10  1  0
 10 11  1  0
 10 12  2  0
  6 13  1  0
 13 14  2  0
 14  3  1  0
M  END
>  <energy_score>  (1641) 
-20.753472

>  <alias>  (1641) 
None

>  <HIPPO Pose ID>  (1641) 
72160

>  <smiles>  (1641) 
C#Cc1cnc(N[C@H](C)C(C)=O)cn1

>  <inchikey>  (1641) 
YJMWVAUHFUEOTI-SSDOTTSWSA-N

>  <distance_score>  (1641) 
1.016784

>  <ref_mols>  (1641) 
Z0875a,Z0089a

>  <ref_pdb>  (1641) 
Z0089a

>  <HIPPO Compound ID>  (1641) 
144805

>  <name>  (1641) 
P72160

>  <inspiration_score>  (1641) 
None

$$$$
P72162
     RDKit          3D

 14 14  0  0  0  0  0  0  0  0999 V2000
   -9.7510    4.0976  -18.1435 C   0  0  0  0  0  0  0  0  0  0  0  0
   -8.5691    4.2891  -18.0594 C   0  0  0  0  0  0  0  0  0  0  0  0
   -7.1986    4.5738  -17.7865 C   0  0  0  0  0  0  0  0  0  0  0  0
   -6.7648    4.6554  -16.4736 C   0  0  0  0  0  0  0  0  0  0  0  0
   -5.4917    4.9585  -16.1485 N   0  0  0  0  0  0  0  0  0  0  0  0
   -4.6802    5.1590  -17.2129 C   0  0  0  0  0  0  0  0  0  0  0  0
   -5.0898    5.0735  -18.5482 C   0  0  0  0  0  0  0  0  0  0  0  0
   -4.2737    5.2344  -19.6371 N   0  0  0  0  0  0  0  0  0  0  0  0
   -2.8694    5.6233  -19.6776 C   0  0  2  0  0  0  0  0  0  0  0  0
   -1.9788    4.4559  -19.2664 C   0  0  0  0  0  0  0  0  0  0  0  0
   -2.5548    6.9446  -18.9479 C   0  0  0  0  0  0  0  0  0  0  0  0
   -1.0998    7.2914  -18.7461 C   0  0  0  0  0  0  0  0  0  0  0  0
   -3.4230    7.7400  -18.5800 O   0  0  0  0  0  0  0  0  0  0  0  0
   -6.3764    4.7825  -18.8393 N   0  0  0  0  0  0  0  0  0  0  0  0
  1  2  3  0
  2  3  1  0
  3  4  2  0
  4  5  1  0
  5  6  2  0
  6  7  1  0
  7  8  1  0
  8  9  1  0
  9 10  1  1
  9 11  1  0
 11 12  1  0
 11 13  2  0
  7 14  2  0
 14  3  1  0
M  END
>  <energy_score>  (1642) 
-9.712437

>  <alias>  (1642) 
None

>  <HIPPO Pose ID>  (1642) 
72162

>  <smiles>  (1642) 
C#Cc1cncc(N[C@H](C)C(C)=O)n1

>  <inchikey>  (1642) 
XXPHCIRKTQFJBK-SSDOTTSWSA-N

>  <distance_score>  (1642) 
1.05694

>  <ref_mols>  (1642) 
Z0875a,Z0089a

>  <ref_pdb>  (1642) 
Z0089a

>  <HIPPO Compound ID>  (1642) 
144806

>  <name>  (1642) 
P72162

>  <inspiration_score>  (1642) 
None

$$$$
P72166
     RDKit          3D

 14 14  0  0  0  0  0  0  0  0999 V2000
   -4.3548    6.5297  -15.1954 C   0  0  0  0  0  0  0  0  0  0  0  0
   -4.1374    6.0335  -16.5128 O   0  0  0  0  0  0  0  0  0  0  0  0
   -5.2664    5.5273  -17.1239 C   0  0  0  0  0  0  0  0  0  0  0  0
   -6.3492    5.3039  -16.3330 N   0  0  0  0  0  0  0  0  0  0  0  0
   -7.4302    4.7833  -16.9536 C   0  0  0  0  0  0  0  0  0  0  0  0
   -7.4480    4.5145  -18.3044 C   0  0  0  0  0  0  0  0  0  0  0  0
   -6.3750    4.7359  -19.0884 N   0  0  0  0  0  0  0  0  0  0  0  0
   -5.2673    5.2533  -18.5099 C   0  0  0  0  0  0  0  0  0  0  0  0
   -4.2995    5.4638  -19.4476 N   0  0  0  0  0  0  0  0  0  0  0  0
   -2.8717    5.6832  -19.3240 C   0  0  2  0  0  0  0  0  0  0  0  0
   -2.1699    4.4500  -18.7834 C   0  0  0  0  0  0  0  0  0  0  0  0
   -2.5243    7.0210  -18.6493 C   0  0  0  0  0  0  0  0  0  0  0  0
   -1.2938    7.0816  -17.7784 C   0  0  0  0  0  0  0  0  0  0  0  0
   -3.1656    8.0560  -18.8648 O   0  0  0  0  0  0  0  0  0  0  0  0
  1  2  1  0
  2  3  1  0
  3  4  2  0
  4  5  1  0
  5  6  2  0
  6  7  1  0
  7  8  2  0
  8  9  1  0
  9 10  1  0
 10 11  1  1
 10 12  1  0
 12 13  1  0
 12 14  2  0
  8  3  1  0
M  END
>  <energy_score>  (1643) 
-21.143081

>  <alias>  (1643) 
None

>  <HIPPO Pose ID>  (1643) 
72166

>  <smiles>  (1643) 
COc1nccnc1N[C@H](C)C(C)=O

>  <inchikey>  (1643) 
VSDZRAGSTPRIFN-ZCFIWIBFSA-N

>  <distance_score>  (1643) 
0.881044

>  <ref_mols>  (1643) 
Z0875a,Z0089a

>  <ref_pdb>  (1643) 
Z0089a

>  <HIPPO Compound ID>  (1643) 
144808

>  <name>  (1643) 
P72166

>  <inspiration_score>  (1643) 
None

$$$$
P72169
     RDKit          3D

 14 14  0  0  0  0  0  0  0  0999 V2000
   -1.5506    3.6459  -19.5408 C   0  0  0  0  0  0  0  0  0  0  0  0
   -2.2689    4.8579  -20.0257 C   0  0  0  0  0  0  0  0  0  0  0  0
   -2.2839    5.1545  -21.2244 O   0  0  0  0  0  0  0  0  0  0  0  0
   -2.9626    5.7070  -18.9720 C   0  0  1  0  0  0  0  0  0  0  0  0
   -2.2268    7.0340  -18.8548 C   0  0  0  0  0  0  0  0  0  0  0  0
   -4.3393    5.9519  -19.3902 N   0  0  0  0  0  0  0  0  0  0  0  0
   -5.3384    5.5322  -18.5248 C   0  0  0  0  0  0  0  0  0  0  0  0
   -5.3941    5.8894  -17.1777 C   0  0  0  0  0  0  0  0  0  0  0  0
   -6.4212    5.5708  -16.3593 N   0  0  0  0  0  0  0  0  0  0  0  0
   -7.4355    4.8790  -16.9437 C   0  0  0  0  0  0  0  0  0  0  0  0
   -8.6188    4.5410  -16.0805 C   0  0  0  0  0  0  0  0  0  0  0  0
   -9.7974    4.3261  -16.8487 O   0  0  0  0  0  0  0  0  0  0  0  0
   -7.3716    4.5077  -18.2817 C   0  0  0  0  0  0  0  0  0  0  0  0
   -6.3186    4.8099  -19.0798 N   0  0  0  0  0  0  0  0  0  0  0  0
  1  2  1  0
  2  3  2  0
  2  4  1  0
  4  5  1  6
  4  6  1  0
  6  7  1  0
  7  8  2  0
  8  9  1  0
  9 10  2  0
 10 11  1  0
 11 12  1  0
 10 13  1  0
 13 14  2  0
 14  7  1  0
M  END
>  <energy_score>  (1644) 
-30.340395

>  <alias>  (1644) 
None

>  <HIPPO Pose ID>  (1644) 
72169

>  <smiles>  (1644) 
CC(=O)[C@@H](C)Nc1cnc(CO)cn1

>  <inchikey>  (1644) 
WCKUFGJEAQQNDE-ZCFIWIBFSA-N

>  <distance_score>  (1644) 
0.929287

>  <ref_mols>  (1644) 
Z0875a,Z0089a

>  <ref_pdb>  (1644) 
Z0089a

>  <HIPPO Compound ID>  (1644) 
144809

>  <name>  (1644) 
P72169

>  <inspiration_score>  (1644) 
None

$$$$
P72170
     RDKit          3D

 14 15  0  0  0  0  0  0  0  0999 V2000
   -9.3707    3.9601  -16.6297 O   0  0  0  0  0  0  0  0  0  0  0  0
   -8.1939    4.3683  -15.9385 C   0  0  0  0  0  0  0  0  0  0  0  0
   -7.0535    4.6982  -16.8637 C   0  0  0  0  0  0  0  0  0  0  0  0
   -7.2224    4.8017  -18.2369 C   0  0  0  0  0  0  0  0  0  0  0  0
   -6.2392    5.2338  -19.0628 N   0  0  0  0  0  0  0  0  0  0  0  0
   -5.0703    5.5712  -18.4960 C   0  0  0  0  0  0  0  0  0  0  0  0
   -4.1421    6.1464  -19.3599 N   0  0  0  0  0  0  0  0  0  0  0  0
   -2.6810    6.1035  -19.1659 C   0  0  0  0  0  0  0  0  0  0  0  0
   -2.0375    4.7741  -19.5117 C   0  0  0  0  0  0  0  0  0  0  0  0
   -2.6255    4.3537  -20.7357 O   0  0  0  0  0  0  0  0  0  0  0  0
   -2.0079    6.9974  -18.1547 C   0  0  0  0  0  0  0  0  0  0  0  0
   -1.9191    7.3402  -19.6084 C   0  0  0  0  0  0  0  0  0  0  0  0
   -4.8845    5.4184  -17.1275 C   0  0  0  0  0  0  0  0  0  0  0  0
   -5.8576    4.9930  -16.2873 N   0  0  0  0  0  0  0  0  0  0  0  0
  1  2  1  0
  2  3  1  0
  3  4  2  0
  4  5  1  0
  5  6  2  0
  6  7  1  0
  7  8  1  0
  8  9  1  0
  9 10  1  0
  8 11  1  0
 11 12  1  0
  6 13  1  0
 13 14  2  0
 14  3  1  0
 12  8  1  0
M  END
>  <energy_score>  (1645) 
-30.817805

>  <alias>  (1645) 
None

>  <HIPPO Pose ID>  (1645) 
72170

>  <smiles>  (1645) 
OCc1cnc(NC2(CO)CC2)cn1

>  <inchikey>  (1645) 
OWLUOTMIRFPACD-UHFFFAOYSA-N

>  <distance_score>  (1645) 
0.892503

>  <ref_mols>  (1645) 
Z0875a,Z0089a

>  <ref_pdb>  (1645) 
Z0089a

>  <HIPPO Compound ID>  (1645) 
144810

>  <name>  (1645) 
P72170

>  <inspiration_score>  (1645) 
None

$$$$
P72172
     RDKit          3D

 14 15  0  0  0  0  0  0  0  0999 V2000
   -1.7082    4.2559  -21.0285 O   0  0  0  0  0  0  0  0  0  0  0  0
   -1.7737    4.4389  -19.6099 C   0  0  0  0  0  0  0  0  0  0  0  0
   -2.4247    5.7842  -19.3287 C   0  0  0  0  0  0  0  0  0  0  0  0
   -3.8624    5.8620  -19.6510 N   0  0  0  0  0  0  0  0  0  0  0  0
   -4.8612    5.4506  -18.7689 C   0  0  0  0  0  0  0  0  0  0  0  0
   -4.8922    5.7334  -17.4089 C   0  0  0  0  0  0  0  0  0  0  0  0
   -5.9505    5.4539  -16.6096 N   0  0  0  0  0  0  0  0  0  0  0  0
   -7.0025    4.8402  -17.2133 C   0  0  0  0  0  0  0  0  0  0  0  0
   -8.1469    4.4940  -16.3176 C   0  0  0  0  0  0  0  0  0  0  0  0
   -9.7855    4.1187  -17.2722 Br  0  0  0  0  0  0  0  0  0  0  0  0
   -6.9481    4.5252  -18.5659 C   0  0  0  0  0  0  0  0  0  0  0  0
   -5.8917    4.8249  -19.3507 N   0  0  0  0  0  0  0  0  0  0  0  0
   -1.5987    6.9892  -19.7449 C   0  0  0  0  0  0  0  0  0  0  0  0
   -1.7946    6.6989  -18.2946 C   0  0  0  0  0  0  0  0  0  0  0  0
  1  2  1  0
  2  3  1  0
  3  4  1  0
  4  5  1  0
  5  6  2  0
  6  7  1  0
  7  8  2  0
  8  9  1  0
  9 10  1  0
  8 11  1  0
 11 12  2  0
  3 13  1  0
 13 14  1  0
 14  3  1  0
 12  5  1  0
M  END
>  <energy_score>  (1646) 
-7.219804

>  <alias>  (1646) 
None

>  <HIPPO Pose ID>  (1646) 
72172

>  <smiles>  (1646) 
OCC1(Nc2cnc(CBr)cn2)CC1

>  <inchikey>  (1646) 
WNTFZUYPUSWXME-UHFFFAOYSA-N

>  <distance_score>  (1646) 
0.897652

>  <ref_mols>  (1646) 
Z0875a,Z0089a

>  <ref_pdb>  (1646) 
Z0089a

>  <HIPPO Compound ID>  (1646) 
144812

>  <name>  (1646) 
P72172

>  <inspiration_score>  (1646) 
None

$$$$
P72173
     RDKit          3D

 14 15  0  0  0  0  0  0  0  0999 V2000
   -9.6984    3.8082  -18.1813 N   0  0  0  0  0  0  0  0  0  0  0  0
   -8.5937    4.1653  -18.1393 C   0  0  0  0  0  0  0  0  0  0  0  0
   -7.2398    4.5649  -17.9083 C   0  0  0  0  0  0  0  0  0  0  0  0
   -6.7969    4.7409  -16.6086 C   0  0  0  0  0  0  0  0  0  0  0  0
   -5.5233    5.0891  -16.3168 N   0  0  0  0  0  0  0  0  0  0  0  0
   -4.7134    5.2334  -17.3925 C   0  0  0  0  0  0  0  0  0  0  0  0
   -5.1393    5.0613  -18.7115 C   0  0  0  0  0  0  0  0  0  0  0  0
   -4.3110    5.2128  -19.8204 N   0  0  0  0  0  0  0  0  0  0  0  0
   -2.8868    5.5733  -19.7950 C   0  0  0  0  0  0  0  0  0  0  0  0
   -1.9248    4.3949  -19.6199 C   0  0  0  0  0  0  0  0  0  0  0  0
   -0.5653    4.8154  -19.6472 O   0  0  0  0  0  0  0  0  0  0  0  0
   -2.4788    6.9393  -19.2760 C   0  0  0  0  0  0  0  0  0  0  0  0
   -2.4630    6.6781  -20.7505 C   0  0  0  0  0  0  0  0  0  0  0  0
   -6.4199    4.7232  -18.9764 N   0  0  0  0  0  0  0  0  0  0  0  0
  1  2  3  0
  2  3  1  0
  3  4  2  0
  4  5  1  0
  5  6  2  0
  6  7  1  0
  7  8  1  0
  8  9  1  0
  9 10  1  0
 10 11  1  0
  9 12  1  0
 12 13  1  0
  7 14  2  0
 14  3  1  0
 13  9  1  0
M  END
>  <energy_score>  (1647) 
-24.070307

>  <alias>  (1647) 
None

>  <HIPPO Pose ID>  (1647) 
72173

>  <smiles>  (1647) 
N#Cc1cncc(NC2(CO)CC2)n1

>  <inchikey>  (1647) 
QSMOEHLQTKOQJP-UHFFFAOYSA-N

>  <distance_score>  (1647) 
0.775581

>  <ref_mols>  (1647) 
Z0875a,Z0089a

>  <ref_pdb>  (1647) 
Z0089a

>  <HIPPO Compound ID>  (1647) 
144813

>  <name>  (1647) 
P72173

>  <inspiration_score>  (1647) 
None

$$$$
P72176
     RDKit          3D

 14 15  0  0  0  0  0  0  0  0999 V2000
   -9.7504    4.0320  -18.1115 C   0  0  0  0  0  0  0  0  0  0  0  0
   -8.5717    4.2530  -18.0631 C   0  0  0  0  0  0  0  0  0  0  0  0
   -7.2059    4.5979  -17.8420 C   0  0  0  0  0  0  0  0  0  0  0  0
   -6.7484    4.7894  -16.5476 C   0  0  0  0  0  0  0  0  0  0  0  0
   -5.5010    5.2279  -16.2750 N   0  0  0  0  0  0  0  0  0  0  0  0
   -4.7370    5.4370  -17.3720 C   0  0  0  0  0  0  0  0  0  0  0  0
   -5.1632    5.2138  -18.6860 C   0  0  0  0  0  0  0  0  0  0  0  0
   -4.3562    5.4468  -19.8057 N   0  0  0  0  0  0  0  0  0  0  0  0
   -2.8933    5.6403  -19.7804 C   0  0  0  0  0  0  0  0  0  0  0  0
   -2.0279    4.3892  -19.6547 C   0  0  0  0  0  0  0  0  0  0  0  0
   -2.4774    3.5865  -18.5785 O   0  0  0  0  0  0  0  0  0  0  0  0
   -2.3351    6.9410  -19.2354 C   0  0  0  0  0  0  0  0  0  0  0  0
   -2.3480    6.7074  -20.7130 C   0  0  0  0  0  0  0  0  0  0  0  0
   -6.4272    4.8030  -18.9275 N   0  0  0  0  0  0  0  0  0  0  0  0
  1  2  3  0
  2  3  1  0
  3  4  2  0
  4  5  1  0
  5  6  2  0
  6  7  1  0
  7  8  1  0
  8  9  1  0
  9 10  1  0
 10 11  1  0
  9 12  1  0
 12 13  1  0
  7 14  2  0
 14  3  1  0
 13  9  1  0
M  END
>  <energy_score>  (1648) 
-13.193258

>  <alias>  (1648) 
None

>  <HIPPO Pose ID>  (1648) 
72176

>  <smiles>  (1648) 
C#Cc1cncc(NC2(CO)CC2)n1

>  <inchikey>  (1648) 
UHWBHSXFGMAJCX-UHFFFAOYSA-N

>  <distance_score>  (1648) 
1.02813

>  <ref_mols>  (1648) 
Z0875a,Z0089a

>  <ref_pdb>  (1648) 
Z0089a

>  <HIPPO Compound ID>  (1648) 
144816

>  <name>  (1648) 
P72176

>  <inspiration_score>  (1648) 
None

$$$$
P72178
     RDKit          3D

 14 15  0  0  0  0  0  0  0  0999 V2000
   -9.1373    4.2914  -16.1910 C   0  0  0  0  0  0  0  0  0  0  0  0
   -8.0209    5.1420  -15.9964 O   0  0  0  0  0  0  0  0  0  0  0  0
   -7.0708    5.0716  -16.9673 C   0  0  0  0  0  0  0  0  0  0  0  0
   -7.2954    4.7295  -18.2930 C   0  0  0  0  0  0  0  0  0  0  0  0
   -6.3212    4.7741  -19.2296 N   0  0  0  0  0  0  0  0  0  0  0  0
   -5.1092    5.1913  -18.8253 C   0  0  0  0  0  0  0  0  0  0  0  0
   -4.1829    5.3562  -19.8428 N   0  0  0  0  0  0  0  0  0  0  0  0
   -2.7831    5.7541  -19.7154 C   0  0  0  0  0  0  0  0  0  0  0  0
   -1.7879    4.6073  -19.7720 C   0  0  0  0  0  0  0  0  0  0  0  0
   -1.6405    4.2233  -21.1398 O   0  0  0  0  0  0  0  0  0  0  0  0
   -2.3872    7.0300  -18.9963 C   0  0  0  0  0  0  0  0  0  0  0  0
   -2.3751    7.0017  -20.4878 C   0  0  0  0  0  0  0  0  0  0  0  0
   -4.8840    5.4832  -17.4843 C   0  0  0  0  0  0  0  0  0  0  0  0
   -5.8512    5.4582  -16.5386 N   0  0  0  0  0  0  0  0  0  0  0  0
  1  2  1  0
  2  3  1  0
  3  4  2  0
  4  5  1  0
  5  6  2  0
  6  7  1  0
  7  8  1  0
  8  9  1  0
  9 10  1  0
  8 11  1  0
 11 12  1  0
  6 13  1  0
 13 14  2  0
 14  3  1  0
 12  8  1  0
M  END
>  <energy_score>  (1649) 
-12.201236

>  <alias>  (1649) 
None

>  <HIPPO Pose ID>  (1649) 
72178

>  <smiles>  (1649) 
COc1cnc(NC2(CO)CC2)cn1

>  <inchikey>  (1649) 
LPYKZTXSUODAIB-UHFFFAOYSA-N

>  <distance_score>  (1649) 
0.693826

>  <ref_mols>  (1649) 
Z0875a,Z0089a

>  <ref_pdb>  (1649) 
Z0089a

>  <HIPPO Compound ID>  (1649) 
144818

>  <name>  (1649) 
P72178

>  <inspiration_score>  (1649) 
None

$$$$
P72181
     RDKit          3D

 14 14  0  0  0  0  0  0  0  0999 V2000
   -9.4193    4.0514  -16.8546 C   0  0  0  0  0  0  0  0  0  0  0  0
   -8.1733    4.6108  -16.2000 C   0  0  0  0  0  0  0  0  0  0  0  0
   -7.0471    4.9666  -17.1216 C   0  0  0  0  0  0  0  0  0  0  0  0
   -6.9698    4.5642  -18.4474 C   0  0  0  0  0  0  0  0  0  0  0  0
   -5.9063    4.8409  -19.2391 N   0  0  0  0  0  0  0  0  0  0  0  0
   -4.9143    5.5651  -18.7001 C   0  0  0  0  0  0  0  0  0  0  0  0
   -3.9499    5.9228  -19.6130 N   0  0  0  0  0  0  0  0  0  0  0  0
   -2.4838    5.8523  -19.4388 C   0  0  0  0  0  0  0  0  0  0  0  0
   -2.0327    4.3853  -19.4763 C   0  0  0  0  0  0  0  0  0  0  0  0
   -2.0000    6.5081  -18.1437 C   0  0  0  0  0  0  0  0  0  0  0  0
   -1.8871    6.6628  -20.6341 C   0  0  0  0  0  0  0  0  0  0  0  0
   -0.1110    6.6391  -20.7681 Cl  0  0  0  0  0  0  0  0  0  0  0  0
   -5.0060    5.9825  -17.3782 C   0  0  0  0  0  0  0  0  0  0  0  0
   -6.0490    5.6939  -16.5649 N   0  0  0  0  0  0  0  0  0  0  0  0
  1  2  1  0
  2  3  1  0
  3  4  2  0
  4  5  1  0
  5  6  2  0
  6  7  1  0
  7  8  1  0
  8  9  1  0
  8 10  1  0
  8 11  1  0
 11 12  1  0
  6 13  1  0
 13 14  2  0
 14  3  1  0
M  END
>  <energy_score>  (1650) 
-28.217403

>  <alias>  (1650) 
None

>  <HIPPO Pose ID>  (1650) 
72181

>  <smiles>  (1650) 
CCc1cnc(NC(C)(C)CCl)cn1

>  <inchikey>  (1650) 
WYOREGFYDSOUKQ-UHFFFAOYSA-N

>  <distance_score>  (1650) 
0.844337

>  <ref_mols>  (1650) 
Z0875a,Z0089a

>  <ref_pdb>  (1650) 
Z0089a

>  <HIPPO Compound ID>  (1650) 
144821

>  <name>  (1650) 
P72181

>  <inspiration_score>  (1650) 
None

$$$$
P72182
     RDKit          3D

 14 14  0  0  0  0  0  0  0  0999 V2000
   -9.0336    4.2941  -15.9613 C   0  0  0  0  0  0  0  0  0  0  0  0
   -8.0805    4.6227  -16.6061 C   0  0  0  0  0  0  0  0  0  0  0  0
   -6.9415    4.9675  -17.3723 C   0  0  0  0  0  0  0  0  0  0  0  0
   -6.8024    4.5929  -18.6940 C   0  0  0  0  0  0  0  0  0  0  0  0
   -5.6972    4.9055  -19.4099 N   0  0  0  0  0  0  0  0  0  0  0  0
   -4.7576    5.6346  -18.7850 C   0  0  0  0  0  0  0  0  0  0  0  0
   -3.7308    6.0593  -19.6063 N   0  0  0  0  0  0  0  0  0  0  0  0
   -2.3022    5.7883  -19.3425 C   0  0  0  0  0  0  0  0  0  0  0  0
   -2.0044    4.2880  -19.4510 C   0  0  0  0  0  0  0  0  0  0  0  0
   -1.8481    6.3004  -17.9730 C   0  0  0  0  0  0  0  0  0  0  0  0
   -1.4523    6.5934  -20.3736 C   0  0  0  0  0  0  0  0  0  0  0  0
   -1.8375    6.2447  -22.0770 Cl  0  0  0  0  0  0  0  0  0  0  0  0
   -4.9325    6.0156  -17.4542 C   0  0  0  0  0  0  0  0  0  0  0  0
   -6.0137    5.6904  -16.7121 N   0  0  0  0  0  0  0  0  0  0  0  0
  1  2  3  0
  2  3  1  0
  3  4  2  0
  4  5  1  0
  5  6  2  0
  6  7  1  0
  7  8  1  0
  8  9  1  0
  8 10  1  0
  8 11  1  0
 11 12  1  0
  6 13  1  0
 13 14  2  0
 14  3  1  0
M  END
>  <energy_score>  (1651) 
-27.112572

>  <alias>  (1651) 
None

>  <HIPPO Pose ID>  (1651) 
72182

>  <smiles>  (1651) 
C#Cc1cnc(NC(C)(C)CCl)cn1

>  <inchikey>  (1651) 
ZOCCODRAAVJAEF-UHFFFAOYSA-N

>  <distance_score>  (1651) 
1.049253

>  <ref_mols>  (1651) 
Z0875a,Z0089a

>  <ref_pdb>  (1651) 
Z0089a

>  <HIPPO Compound ID>  (1651) 
144822

>  <name>  (1651) 
P72182

>  <inspiration_score>  (1651) 
None

$$$$
P72183
     RDKit          3D

 14 14  0  0  0  0  0  0  0  0999 V2000
   -9.7086    4.1733  -18.4088 C   0  0  0  0  0  0  0  0  0  0  0  0
   -8.5277    4.3325  -18.2661 C   0  0  0  0  0  0  0  0  0  0  0  0
   -7.1959    4.6200  -17.8451 C   0  0  0  0  0  0  0  0  0  0  0  0
   -6.9397    4.6525  -16.4858 C   0  0  0  0  0  0  0  0  0  0  0  0
   -5.7534    5.0411  -15.9878 N   0  0  0  0  0  0  0  0  0  0  0  0
   -4.8364    5.3765  -16.9276 C   0  0  0  0  0  0  0  0  0  0  0  0
   -5.0517    5.3436  -18.3087 C   0  0  0  0  0  0  0  0  0  0  0  0
   -4.1684    5.7743  -19.2706 N   0  0  0  0  0  0  0  0  0  0  0  0
   -2.6967    5.8764  -19.2828 C   0  0  0  0  0  0  0  0  0  0  0  0
   -2.0833    4.4980  -19.5610 C   0  0  0  0  0  0  0  0  0  0  0  0
   -2.0888    6.4251  -17.9867 C   0  0  0  0  0  0  0  0  0  0  0  0
   -2.2739    6.9317  -20.3527 C   0  0  0  0  0  0  0  0  0  0  0  0
   -2.7833    6.5826  -22.0135 Cl  0  0  0  0  0  0  0  0  0  0  0  0
   -6.2657    4.9621  -18.7733 N   0  0  0  0  0  0  0  0  0  0  0  0
  1  2  3  0
  2  3  1  0
  3  4  2  0
  4  5  1  0
  5  6  2  0
  6  7  1  0
  7  8  1  0
  8  9  1  0
  9 10  1  0
  9 11  1  0
  9 12  1  0
 12 13  1  0
  7 14  2  0
 14  3  1  0
M  END
>  <energy_score>  (1652) 
-25.173738

>  <alias>  (1652) 
None

>  <HIPPO Pose ID>  (1652) 
72183

>  <smiles>  (1652) 
C#Cc1cncc(NC(C)(C)CCl)n1

>  <inchikey>  (1652) 
VOIKHOCFMMCNIA-UHFFFAOYSA-N

>  <distance_score>  (1652) 
1.130194

>  <ref_mols>  (1652) 
Z0875a,Z0089a

>  <ref_pdb>  (1652) 
Z0089a

>  <HIPPO Compound ID>  (1652) 
144823

>  <name>  (1652) 
P72183

>  <inspiration_score>  (1652) 
None

$$$$
P72184
     RDKit          3D

 14 14  0  0  0  0  0  0  0  0999 V2000
   -4.4115    5.5807  -14.4895 C   0  0  0  0  0  0  0  0  0  0  0  0
   -4.8861    5.4530  -15.5870 C   0  0  0  0  0  0  0  0  0  0  0  0
   -5.6000    5.2498  -16.8133 C   0  0  0  0  0  0  0  0  0  0  0  0
   -6.9393    5.2871  -16.5830 N   0  0  0  0  0  0  0  0  0  0  0  0
   -7.7214    4.8706  -17.5989 C   0  0  0  0  0  0  0  0  0  0  0  0
   -7.2116    4.5460  -18.8331 C   0  0  0  0  0  0  0  0  0  0  0  0
   -5.8870    4.5760  -19.0887 N   0  0  0  0  0  0  0  0  0  0  0  0
   -5.0630    4.8930  -18.0622 C   0  0  0  0  0  0  0  0  0  0  0  0
   -3.7547    4.6376  -18.4213 N   0  0  0  0  0  0  0  0  0  0  0  0
   -2.6826    5.6424  -18.5735 C   0  0  0  0  0  0  0  0  0  0  0  0
   -1.6032    4.9257  -19.4263 C   0  0  0  0  0  0  0  0  0  0  0  0
   -3.1739    6.8638  -19.3595 C   0  0  0  0  0  0  0  0  0  0  0  0
   -2.1050    6.0559  -17.2011 C   0  0  0  0  0  0  0  0  0  0  0  0
   -0.6194    7.0489  -17.2852 Cl  0  0  0  0  0  0  0  0  0  0  0  0
  1  2  3  0
  2  3  1  0
  3  4  2  0
  4  5  1  0
  5  6  2  0
  6  7  1  0
  7  8  2  0
  8  9  1  0
  9 10  1  0
 10 11  1  0
 10 12  1  0
 10 13  1  0
 13 14  1  0
  8  3  1  0
M  END
>  <energy_score>  (1653) 
-23.995748

>  <alias>  (1653) 
None

>  <HIPPO Pose ID>  (1653) 
72184

>  <smiles>  (1653) 
C#Cc1nccnc1NC(C)(C)CCl

>  <inchikey>  (1653) 
NSNKZGQTSDVYDW-UHFFFAOYSA-N

>  <distance_score>  (1653) 
1.058966

>  <ref_mols>  (1653) 
Z0875a,Z0089a

>  <ref_pdb>  (1653) 
Z0089a

>  <HIPPO Compound ID>  (1653) 
144824

>  <name>  (1653) 
P72184

>  <inspiration_score>  (1653) 
None

$$$$
P72186
     RDKit          3D

 14 14  0  0  0  0  0  0  0  0999 V2000
   -2.0894    4.2600  -19.3070 C   0  0  0  0  0  0  0  0  0  0  0  0
   -2.5454    5.6861  -18.9715 C   0  0  0  0  0  0  0  0  0  0  0  0
   -1.9006    6.6618  -19.9767 C   0  0  0  0  0  0  0  0  0  0  0  0
   -2.1200    6.0810  -17.5366 C   0  0  0  0  0  0  0  0  0  0  0  0
   -0.3550    6.2132  -17.2747 Cl  0  0  0  0  0  0  0  0  0  0  0  0
   -3.9973    5.8030  -19.2279 N   0  0  0  0  0  0  0  0  0  0  0  0
   -5.0420    5.3943  -18.4383 C   0  0  0  0  0  0  0  0  0  0  0  0
   -5.2066    5.6606  -17.0796 C   0  0  0  0  0  0  0  0  0  0  0  0
   -6.3175    5.3486  -16.3704 N   0  0  0  0  0  0  0  0  0  0  0  0
   -7.2950    4.7535  -17.0943 C   0  0  0  0  0  0  0  0  0  0  0  0
   -8.5184    4.4207  -16.3588 C   0  0  0  0  0  0  0  0  0  0  0  0
   -9.5168    3.9866  -16.9180 O   0  0  0  0  0  0  0  0  0  0  0  0
   -7.1716    4.4987  -18.4459 C   0  0  0  0  0  0  0  0  0  0  0  0
   -6.0361    4.8035  -19.1266 N   0  0  0  0  0  0  0  0  0  0  0  0
  1  2  1  0
  2  3  1  0
  2  4  1  0
  4  5  1  0
  2  6  1  0
  6  7  1  0
  7  8  2  0
  8  9  1  0
  9 10  2  0
 10 11  1  0
 11 12  2  0
 10 13  1  0
 13 14  2  0
 14  7  1  0
M  END
>  <energy_score>  (1654) 
-29.53292

>  <alias>  (1654) 
None

>  <HIPPO Pose ID>  (1654) 
72186

>  <smiles>  (1654) 
CC(C)(CCl)Nc1cnc(C=O)cn1

>  <inchikey>  (1654) 
XKOUBWGBLXZQFE-UHFFFAOYSA-N

>  <distance_score>  (1654) 
0.802504

>  <ref_mols>  (1654) 
Z0875a,Z0089a

>  <ref_pdb>  (1654) 
Z0089a

>  <HIPPO Compound ID>  (1654) 
144826

>  <name>  (1654) 
P72186

>  <inspiration_score>  (1654) 
None

$$$$
P72188
     RDKit          3D

 14 14  0  0  0  0  0  0  0  0999 V2000
   -1.6133    4.9330  -19.4258 C   0  0  0  0  0  0  0  0  0  0  0  0
   -2.6841    5.6459  -18.5585 C   0  0  0  0  0  0  0  0  0  0  0  0
   -3.2127    6.8472  -19.3515 C   0  0  0  0  0  0  0  0  0  0  0  0
   -2.0768    6.0891  -17.2057 C   0  0  0  0  0  0  0  0  0  0  0  0
   -0.6326    7.1329  -17.3496 Cl  0  0  0  0  0  0  0  0  0  0  0  0
   -3.7394    4.6245  -18.3569 N   0  0  0  0  0  0  0  0  0  0  0  0
   -5.0597    4.8776  -18.0403 C   0  0  0  0  0  0  0  0  0  0  0  0
   -5.8543    4.5602  -19.0887 N   0  0  0  0  0  0  0  0  0  0  0  0
   -7.1871    4.5299  -18.8756 C   0  0  0  0  0  0  0  0  0  0  0  0
   -7.7345    4.8550  -17.6584 C   0  0  0  0  0  0  0  0  0  0  0  0
   -6.9804    5.2680  -16.6194 N   0  0  0  0  0  0  0  0  0  0  0  0
   -5.6297    5.2292  -16.8094 C   0  0  0  0  0  0  0  0  0  0  0  0
   -4.9067    5.4350  -15.5883 C   0  0  0  0  0  0  0  0  0  0  0  0
   -4.3727    5.5989  -14.5670 N   0  0  0  0  0  0  0  0  0  0  0  0
  1  2  1  0
  2  3  1  0
  2  4  1  0
  4  5  1  0
  2  6  1  0
  6  7  1  0
  7  8  2  0
  8  9  1  0
  9 10  2  0
 10 11  1  0
 11 12  2  0
 12 13  1  0
 13 14  3  0
 12  7  1  0
M  END
>  <energy_score>  (1655) 
-16.22386

>  <alias>  (1655) 
None

>  <HIPPO Pose ID>  (1655) 
72188

>  <smiles>  (1655) 
CC(C)(CCl)Nc1nccnc1C#N

>  <inchikey>  (1655) 
DIOMDVQVBWPKMF-UHFFFAOYSA-N

>  <distance_score>  (1655) 
1.115747

>  <ref_mols>  (1655) 
Z0875a,Z0089a

>  <ref_pdb>  (1655) 
Z0089a

>  <HIPPO Compound ID>  (1655) 
144828

>  <name>  (1655) 
P72188

>  <inspiration_score>  (1655) 
None

$$$$
P72189
     RDKit          3D

 14 14  0  0  0  0  0  0  0  0999 V2000
   -6.9263    5.8694  -15.3809 C   0  0  0  0  0  0  0  0  0  0  0  0
   -6.5544    5.4525  -16.6970 N   0  0  0  0  0  0  0  0  0  0  0  0
   -7.4824    4.9448  -17.5700 C   0  0  0  0  0  0  0  0  0  0  0  0
   -7.1197    4.5441  -18.7897 C   0  0  0  0  0  0  0  0  0  0  0  0
   -5.8342    4.5397  -19.2535 N   0  0  0  0  0  0  0  0  0  0  0  0
   -4.8941    4.9433  -18.4369 C   0  0  0  0  0  0  0  0  0  0  0  0
   -3.6147    4.7843  -18.9218 N   0  0  0  0  0  0  0  0  0  0  0  0
   -2.7091    5.8783  -19.2986 C   0  0  0  0  0  0  0  0  0  0  0  0
   -1.4632    5.1648  -19.8692 C   0  0  0  0  0  0  0  0  0  0  0  0
   -2.2632    6.7044  -18.0960 C   0  0  0  0  0  0  0  0  0  0  0  0
   -3.4028    6.7810  -20.3541 C   0  0  0  0  0  0  0  0  0  0  0  0
   -2.3483    8.0348  -21.0581 Cl  0  0  0  0  0  0  0  0  0  0  0  0
   -5.2046    5.4495  -17.0032 C   0  0  0  0  0  0  0  0  0  0  0  0
   -4.3284    5.8012  -16.2246 O   0  0  0  0  0  0  0  0  0  0  0  0
  1  2  1  0
  2  3  1  0
  3  4  2  0
  4  5  1  0
  5  6  2  0
  6  7  1  0
  7  8  1  0
  8  9  1  0
  8 10  1  0
  8 11  1  0
 11 12  1  0
  6 13  1  0
 13 14  2  0
 13  2  1  0
M  END
>  <energy_score>  (1656) 
-27.896871

>  <alias>  (1656) 
None

>  <HIPPO Pose ID>  (1656) 
72189

>  <smiles>  (1656) 
Cn1ccnc(NC(C)(C)CCl)c1=O

>  <inchikey>  (1656) 
DAAHRSDFAWWGQU-UHFFFAOYSA-N

>  <distance_score>  (1656) 
1.288318

>  <ref_mols>  (1656) 
Z0875a,Z0089a

>  <ref_pdb>  (1656) 
Z0089a

>  <HIPPO Compound ID>  (1656) 
144829

>  <name>  (1656) 
P72189

>  <inspiration_score>  (1656) 
None

$$$$
P72191
     RDKit          3D

 14 16  0  0  0  0  0  0  0  0999 V2000
   -5.0219    5.1693  -16.9947 C   0  0  0  0  0  0  0  0  0  0  0  0
   -5.7357    5.0290  -15.8182 N   0  0  0  0  0  0  0  0  0  0  0  0
   -6.9839    4.6641  -15.9012 C   0  0  0  0  0  0  0  0  0  0  0  0
   -7.5997    4.4285  -17.1538 C   0  0  0  0  0  0  0  0  0  0  0  0
   -8.8328    4.0776  -17.4155 N   0  0  0  0  0  0  0  0  0  0  0  0
   -8.8685    3.9492  -18.7734 N   0  0  0  0  0  0  0  0  0  0  0  0
   -7.6762    4.1922  -19.3110 N   0  0  0  0  0  0  0  0  0  0  0  0
   -6.8594    4.5528  -18.3009 N   0  0  0  0  0  0  0  0  0  0  0  0
   -5.5033    4.9672  -18.2469 C   0  0  0  0  0  0  0  0  0  0  0  0
   -4.8050    5.1258  -19.4443 N   0  0  0  0  0  0  0  0  0  0  0  0
   -3.4464    5.5135  -19.7168 C   0  0  0  0  0  0  0  0  0  0  0  0
   -2.3493    4.6920  -19.0353 C   0  0  0  0  0  0  0  0  0  0  0  0
   -1.8966    5.8474  -18.2817 O   0  0  0  0  0  0  0  0  0  0  0  0
   -2.8588    6.6988  -18.9536 C   0  0  0  0  0  0  0  0  0  0  0  0
  1  2  1  0
  2  3  2  0
  3  4  1  0
  4  5  2  0
  5  6  1  0
  6  7  2  0
  7  8  1  0
  8  9  1  0
  9 10  1  0
 10 11  1  0
 11 12  1  0
 12 13  1  0
 13 14  1  0
  9  1  2  0
 14 11  1  0
  8  4  1  0
M  END
>  <energy_score>  (1657) 
-15.840189

>  <alias>  (1657) 
None

>  <HIPPO Pose ID>  (1657) 
72191

>  <smiles>  (1657) 
c1ncc2nnnn2c1NC1COC1

>  <inchikey>  (1657) 
GAMQMOZSEDKNQG-UHFFFAOYSA-N

>  <distance_score>  (1657) 
1.442654

>  <ref_mols>  (1657) 
Z0875a,Z0089a

>  <ref_pdb>  (1657) 
Z0089a

>  <HIPPO Compound ID>  (1657) 
144831

>  <name>  (1657) 
P72191

>  <inspiration_score>  (1657) 
None

$$$$
P72192
     RDKit          3D

 14 16  0  0  0  0  0  0  0  0999 V2000
   -7.5099    4.6018  -18.3676 C   0  0  0  0  0  0  0  0  0  0  0  0
   -7.4553    4.8353  -17.0480 C   0  0  0  0  0  0  0  0  0  0  0  0
   -6.2297    5.1484  -16.5030 N   0  0  0  0  0  0  0  0  0  0  0  0
   -5.8487    5.4490  -15.2253 C   0  0  0  0  0  0  0  0  0  0  0  0
   -4.4967    5.6981  -15.2984 C   0  0  0  0  0  0  0  0  0  0  0  0
   -4.0380    5.5541  -16.5809 N   0  0  0  0  0  0  0  0  0  0  0  0
   -5.1027    5.2109  -17.2807 C   0  0  0  0  0  0  0  0  0  0  0  0
   -5.2191    4.9099  -18.6980 C   0  0  0  0  0  0  0  0  0  0  0  0
   -4.2081    4.8554  -19.6197 N   0  0  0  0  0  0  0  0  0  0  0  0
   -2.9347    5.4673  -19.4158 C   0  0  0  0  0  0  0  0  0  0  0  0
   -1.8265    4.7345  -20.1940 C   0  0  0  0  0  0  0  0  0  0  0  0
   -2.0978    5.5855  -21.3636 O   0  0  0  0  0  0  0  0  0  0  0  0
   -2.6652    6.5785  -20.4409 C   0  0  0  0  0  0  0  0  0  0  0  0
   -6.4080    4.6319  -19.1963 N   0  0  0  0  0  0  0  0  0  0  0  0
  1  2  2  0
  2  3  1  0
  3  4  1  0
  4  5  2  0
  5  6  1  0
  6  7  2  0
  7  8  1  0
  8  9  1  0
  9 10  1  0
 10 11  1  0
 11 12  1  0
 12 13  1  0
  8 14  2  0
 14  1  1  0
  7  3  1  0
 13 10  1  0
M  END
>  <energy_score>  (1658) 
-17.412473

>  <alias>  (1658) 
None

>  <HIPPO Pose ID>  (1658) 
72192

>  <smiles>  (1658) 
c1cn2ccnc2c(NC2COC2)n1

>  <inchikey>  (1658) 
XYZYOUFITILYLW-UHFFFAOYSA-N

>  <distance_score>  (1658) 
0.818076

>  <ref_mols>  (1658) 
Z0875a,Z0089a

>  <ref_pdb>  (1658) 
Z0089a

>  <HIPPO Compound ID>  (1658) 
144833

>  <name>  (1658) 
P72192

>  <inspiration_score>  (1658) 
None

$$$$
P72196
     RDKit          3D

 14 16  0  0  0  0  0  0  0  0999 V2000
   -2.1585    4.6700  -17.7816 O   0  0  0  0  0  0  0  0  0  0  0  0
   -2.1819    5.7250  -18.7513 C   0  0  1  0  0  0  0  0  0  0  0  0
   -2.1718    5.2696  -20.1727 C   0  0  0  0  0  0  0  0  0  0  0  0
   -3.4372    5.8398  -19.5788 C   0  0  1  0  0  0  0  0  0  0  0  0
   -4.6142    4.9732  -19.4032 N   0  0  0  0  0  0  0  0  0  0  0  0
   -5.4145    5.0687  -18.2558 C   0  0  0  0  0  0  0  0  0  0  0  0
   -5.0449    5.5478  -17.0417 C   0  0  0  0  0  0  0  0  0  0  0  0
   -5.8321    5.5712  -15.9052 N   0  0  0  0  0  0  0  0  0  0  0  0
   -7.0476    5.1138  -16.0003 C   0  0  0  0  0  0  0  0  0  0  0  0
   -7.5710    4.6507  -17.2364 C   0  0  0  0  0  0  0  0  0  0  0  0
   -8.8005    4.2973  -17.5174 N   0  0  0  0  0  0  0  0  0  0  0  0
   -8.6974    4.0348  -18.8434 C   0  0  0  0  0  0  0  0  0  0  0  0
   -7.4692    4.1102  -19.3625 N   0  0  0  0  0  0  0  0  0  0  0  0
   -6.7503    4.6080  -18.3354 N   0  0  0  0  0  0  0  0  0  0  0  0
  2  1  1  1
  2  3  1  0
  3  4  1  0
  4  5  1  1
  5  6  1  0
  6  7  2  0
  7  8  1  0
  8  9  2  0
  9 10  1  0
 10 11  2  0
 11 12  1  0
 12 13  2  0
 13 14  1  0
  4  2  1  0
 14  6  1  0
 14 10  1  0
M  END
>  <energy_score>  (1659) 
-21.839441

>  <alias>  (1659) 
None

>  <HIPPO Pose ID>  (1659) 
72196

>  <smiles>  (1659) 
O[C@H]1C[C@H]1Nc1cncc2ncnn12

>  <inchikey>  (1659) 
SMJIHQLPSBSHTN-RITPCOANSA-N

>  <distance_score>  (1659) 
1.478968

>  <ref_mols>  (1659) 
Z0875a,Z0089a

>  <ref_pdb>  (1659) 
Z0089a

>  <HIPPO Compound ID>  (1659) 
144834

>  <name>  (1659) 
P72196

>  <inspiration_score>  (1659) 
None

$$$$
P72210
     RDKit          3D

 14 16  0  0  0  0  0  0  0  0999 V2000
   -1.3192    5.8344  -17.2267 O   0  0  0  0  0  0  0  0  0  0  0  0
   -2.0526    6.0529  -18.4400 C   0  0  1  0  0  0  0  0  0  0  0  0
   -1.7358    5.1219  -19.5715 C   0  0  0  0  0  0  0  0  0  0  0  0
   -3.0255    4.9677  -18.8175 C   0  0  2  0  0  0  0  0  0  0  0  0
   -4.3019    5.3040  -19.4515 N   0  0  0  0  0  0  0  0  0  0  0  0
   -5.4831    5.0223  -18.7865 C   0  0  0  0  0  0  0  0  0  0  0  0
   -5.6723    5.2610  -17.4687 C   0  0  0  0  0  0  0  0  0  0  0  0
   -6.9010    4.9742  -16.9039 N   0  0  0  0  0  0  0  0  0  0  0  0
   -7.3698    5.1226  -15.6427 N   0  0  0  0  0  0  0  0  0  0  0  0
   -8.5927    4.5904  -15.7297 C   0  0  0  0  0  0  0  0  0  0  0  0
   -8.9824    4.2056  -16.9728 N   0  0  0  0  0  0  0  0  0  0  0  0
   -7.9067    4.4604  -17.6743 C   0  0  0  0  0  0  0  0  0  0  0  0
   -7.6575    4.2431  -19.0540 C   0  0  0  0  0  0  0  0  0  0  0  0
   -6.4907    4.4906  -19.5718 N   0  0  0  0  0  0  0  0  0  0  0  0
  2  1  1  1
  2  3  1  0
  3  4  1  0
  4  5  1  6
  5  6  1  0
  6  7  2  0
  7  8  1  0
  8  9  1  0
  9 10  2  0
 10 11  1  0
 11 12  2  0
 12 13  1  0
 13 14  2  0
  4  2  1  0
 14  6  1  0
 12  8  1  0
M  END
>  <energy_score>  (1660) 
-25.355798

>  <alias>  (1660) 
None

>  <HIPPO Pose ID>  (1660) 
72210

>  <smiles>  (1660) 
O[C@H]1C[C@@H]1Nc1cn2ncnc2cn1

>  <inchikey>  (1660) 
XECQEKNRUMCEII-WDSKDSINSA-N

>  <distance_score>  (1660) 
1.25031

>  <ref_mols>  (1660) 
Z0875a,Z0089a

>  <ref_pdb>  (1660) 
Z0089a

>  <HIPPO Compound ID>  (1660) 
144838

>  <name>  (1660) 
P72210

>  <inspiration_score>  (1660) 
None

$$$$
P72214
     RDKit          3D

 14 16  0  0  0  0  0  0  0  0999 V2000
   -1.3279    5.8171  -17.2173 O   0  0  0  0  0  0  0  0  0  0  0  0
   -2.0628    6.0265  -18.4314 C   0  0  1  0  0  0  0  0  0  0  0  0
   -1.7234    5.1144  -19.5718 C   0  0  0  0  0  0  0  0  0  0  0  0
   -3.0068    4.9188  -18.8182 C   0  0  2  0  0  0  0  0  0  0  0  0
   -4.2933    5.2293  -19.4389 N   0  0  0  0  0  0  0  0  0  0  0  0
   -5.4680    4.9720  -18.7549 C   0  0  0  0  0  0  0  0  0  0  0  0
   -5.6195    5.1932  -17.4263 C   0  0  0  0  0  0  0  0  0  0  0  0
   -6.8565    4.9623  -16.8609 N   0  0  0  0  0  0  0  0  0  0  0  0
   -7.3769    5.0876  -15.6087 C   0  0  0  0  0  0  0  0  0  0  0  0
   -8.6601    4.7947  -15.6177 N   0  0  0  0  0  0  0  0  0  0  0  0
   -8.9910    4.4195  -16.9002 N   0  0  0  0  0  0  0  0  0  0  0  0
   -7.9015    4.5338  -17.6167 C   0  0  0  0  0  0  0  0  0  0  0  0
   -7.6854    4.2938  -18.9979 C   0  0  0  0  0  0  0  0  0  0  0  0
   -6.5115    4.4857  -19.5287 N   0  0  0  0  0  0  0  0  0  0  0  0
  2  1  1  1
  2  3  1  0
  3  4  1  0
  4  5  1  6
  5  6  1  0
  6  7  2  0
  7  8  1  0
  8  9  1  0
  9 10  2  0
 10 11  1  0
 11 12  2  0
 12 13  1  0
 13 14  2  0
  4  2  1  0
 14  6  1  0
 12  8  1  0
M  END
>  <energy_score>  (1661) 
-27.888738

>  <alias>  (1661) 
None

>  <HIPPO Pose ID>  (1661) 
72214

>  <smiles>  (1661) 
O[C@H]1C[C@@H]1Nc1cn2cnnc2cn1

>  <inchikey>  (1661) 
JVGRFASMEJVFQF-WDSKDSINSA-N

>  <distance_score>  (1661) 
1.705888

>  <ref_mols>  (1661) 
Z0875a,Z0089a

>  <ref_pdb>  (1661) 
Z0089a

>  <HIPPO Compound ID>  (1661) 
144839

>  <name>  (1661) 
P72214

>  <inspiration_score>  (1661) 
None

$$$$
P72217
     RDKit          3D

 14 15  0  0  0  0  0  0  0  0999 V2000
  -10.3125    4.0907  -17.5742 C   0  0  0  0  0  0  0  0  0  0  0  0
   -8.8589    4.3519  -17.4318 C   0  0  0  0  0  0  0  0  0  0  0  0
   -8.1726    4.3307  -18.5819 N   0  0  0  0  0  0  0  0  0  0  0  0
   -6.8693    4.6888  -18.5231 C   0  0  0  0  0  0  0  0  0  0  0  0
   -6.1321    4.6412  -19.8044 C   0  0  0  0  0  0  0  0  0  0  0  0
   -6.2485    5.0875  -17.3450 C   0  0  0  0  0  0  0  0  0  0  0  0
   -4.9043    5.5078  -17.3040 N   0  0  0  0  0  0  0  0  0  0  0  0
   -4.2766    5.5588  -15.9789 C   0  0  1  0  0  0  0  0  0  0  0  0
   -3.4086    6.6827  -15.4966 C   0  0  0  0  0  0  0  0  0  0  0  0
   -4.7707    6.5027  -14.9073 C   0  0  2  0  0  0  0  0  0  0  0  0
   -4.8693    5.8977  -13.6088 O   0  0  0  0  0  0  0  0  0  0  0  0
   -6.9360    5.0849  -16.1978 N   0  0  0  0  0  0  0  0  0  0  0  0
   -8.2299    4.7203  -16.2494 C   0  0  0  0  0  0  0  0  0  0  0  0
   -8.9097    4.8840  -14.9574 C   0  0  0  0  0  0  0  0  0  0  0  0
  1  2  1  0
  2  3  2  0
  3  4  1  0
  4  5  1  0
  4  6  2  0
  6  7  1  0
  8  7  1  6
  8  9  1  0
  9 10  1  0
 10 11  1  1
  6 12  1  0
 12 13  2  0
 13 14  1  0
 13  2  1  0
 10  8  1  0
M  END
>  <energy_score>  (1662) 
-14.303956

>  <alias>  (1662) 
None

>  <HIPPO Pose ID>  (1662) 
72217

>  <smiles>  (1662) 
Cc1nc(C)c(N[C@H]2C[C@@H]2O)nc1C

>  <inchikey>  (1662) 
JSFLHAIONMXBIQ-IUCAKERBSA-N

>  <distance_score>  (1662) 
1.276164

>  <ref_mols>  (1662) 
Z0875a,Z0089a

>  <ref_pdb>  (1662) 
Z0089a

>  <HIPPO Compound ID>  (1662) 
144840

>  <name>  (1662) 
P72217

>  <inspiration_score>  (1662) 
None

$$$$
P72221
     RDKit          3D

 14 16  0  0  0  0  0  0  0  0999 V2000
   -1.1039    5.7579  -17.5875 O   0  0  0  0  0  0  0  0  0  0  0  0
   -1.9478    6.0844  -18.6988 C   0  0  1  0  0  0  0  0  0  0  0  0
   -1.6901    5.3321  -19.9687 C   0  0  0  0  0  0  0  0  0  0  0  0
   -2.8903    4.9935  -19.1392 C   0  0  2  0  0  0  0  0  0  0  0  0
   -4.2426    5.3270  -19.5741 N   0  0  0  0  0  0  0  0  0  0  0  0
   -5.3105    5.1428  -18.6759 C   0  0  0  0  0  0  0  0  0  0  0  0
   -5.2081    5.4030  -17.3003 C   0  0  0  0  0  0  0  0  0  0  0  0
   -6.2112    5.2475  -16.3941 N   0  0  0  0  0  0  0  0  0  0  0  0
   -7.3255    4.7973  -17.0071 C   0  0  0  0  0  0  0  0  0  0  0  0
   -8.5152    4.4970  -16.4034 N   0  0  0  0  0  0  0  0  0  0  0  0
   -9.4406    4.1429  -17.3591 C   0  0  0  0  0  0  0  0  0  0  0  0
   -8.8115    4.1584  -18.5867 C   0  0  0  0  0  0  0  0  0  0  0  0
   -7.4736    4.5512  -18.3677 C   0  0  0  0  0  0  0  0  0  0  0  0
   -6.4506    4.7121  -19.2387 N   0  0  0  0  0  0  0  0  0  0  0  0
  2  1  1  1
  2  3  1  0
  3  4  1  0
  4  5  1  6
  5  6  1  0
  6  7  2  0
  7  8  1  0
  8  9  2  0
  9 10  1  0
 10 11  1  0
 11 12  2  0
 12 13  1  0
 13 14  2  0
  4  2  1  0
 14  6  1  0
 13  9  1  0
M  END
>  <energy_score>  (1663) 
-29.857167

>  <alias>  (1663) 
None

>  <HIPPO Pose ID>  (1663) 
72221

>  <smiles>  (1663) 
O[C@H]1C[C@@H]1Nc1cnc2[nH]ccc2n1

>  <inchikey>  (1663) 
JLGPUVQHGQGSAL-BQBZGAKWSA-N

>  <distance_score>  (1663) 
0.813478

>  <ref_mols>  (1663) 
Z0875a,Z0089a

>  <ref_pdb>  (1663) 
Z0089a

>  <HIPPO Compound ID>  (1663) 
144841

>  <name>  (1663) 
P72221

>  <inspiration_score>  (1663) 
None

$$$$
P72224
     RDKit          3D

 14 16  0  0  0  0  0  0  0  0999 V2000
   -8.7350    4.1714  -18.6841 C   0  0  0  0  0  0  0  0  0  0  0  0
   -8.7364    4.2302  -17.3278 N   0  0  0  0  0  0  0  0  0  0  0  0
   -7.4703    4.4673  -17.0826 C   0  0  0  0  0  0  0  0  0  0  0  0
   -6.8220    4.6365  -15.8297 C   0  0  0  0  0  0  0  0  0  0  0  0
   -5.5589    4.9478  -15.7506 N   0  0  0  0  0  0  0  0  0  0  0  0
   -4.8553    5.0990  -16.9320 C   0  0  0  0  0  0  0  0  0  0  0  0
   -5.3605    4.9452  -18.1799 C   0  0  0  0  0  0  0  0  0  0  0  0
   -4.6928    5.1164  -19.3912 N   0  0  0  0  0  0  0  0  0  0  0  0
   -3.3442    5.5021  -19.6960 C   0  0  0  0  0  0  0  0  0  0  0  0
   -2.2343    4.6613  -19.0616 C   0  0  0  0  0  0  0  0  0  0  0  0
   -1.7582    5.7967  -18.2914 O   0  0  0  0  0  0  0  0  0  0  0  0
   -2.7332    6.6669  -18.9193 C   0  0  0  0  0  0  0  0  0  0  0  0
   -6.7293    4.5801  -18.2306 N   0  0  0  0  0  0  0  0  0  0  0  0
   -7.5417    4.2975  -19.2679 N   0  0  0  0  0  0  0  0  0  0  0  0
  1  2  1  0
  2  3  2  0
  3  4  1  0
  4  5  2  0
  5  6  1  0
  6  7  2  0
  7  8  1  0
  8  9  1  0
  9 10  1  0
 10 11  1  0
 11 12  1  0
  7 13  1  0
 13 14  1  0
 14  1  2  0
 13  3  1  0
 12  9  1  0
M  END
>  <energy_score>  (1664) 
-27.371088

>  <alias>  (1664) 
None

>  <HIPPO Pose ID>  (1664) 
72224

>  <smiles>  (1664) 
c1nc2cncc(NC3COC3)n2n1

>  <inchikey>  (1664) 
IFIOOKCMLBXTIE-UHFFFAOYSA-N

>  <distance_score>  (1664) 
1.469486

>  <ref_mols>  (1664) 
Z0875a,Z0089a

>  <ref_pdb>  (1664) 
Z0089a

>  <HIPPO Compound ID>  (1664) 
144842

>  <name>  (1664) 
P72224

>  <inspiration_score>  (1664) 
None

$$$$
P72228
     RDKit          3D

 14 16  0  0  0  0  0  0  0  0999 V2000
   -7.7053    4.2970  -18.9754 C   0  0  0  0  0  0  0  0  0  0  0  0
   -6.5672    4.4943  -19.5749 N   0  0  0  0  0  0  0  0  0  0  0  0
   -5.4778    5.0012  -18.8808 C   0  0  0  0  0  0  0  0  0  0  0  0
   -4.4159    5.3194  -19.6952 N   0  0  0  0  0  0  0  0  0  0  0  0
   -3.0217    5.5371  -19.4965 C   0  0  0  0  0  0  0  0  0  0  0  0
   -2.3074    4.5606  -18.5712 C   0  0  0  0  0  0  0  0  0  0  0  0
   -2.1020    5.5943  -17.5693 O   0  0  0  0  0  0  0  0  0  0  0  0
   -2.6218    6.6001  -18.4781 C   0  0  0  0  0  0  0  0  0  0  0  0
   -5.5350    5.1839  -17.5400 C   0  0  0  0  0  0  0  0  0  0  0  0
   -6.7366    4.9485  -16.8966 N   0  0  0  0  0  0  0  0  0  0  0  0
   -7.1792    5.0777  -15.6147 C   0  0  0  0  0  0  0  0  0  0  0  0
   -8.4678    4.8154  -15.5473 N   0  0  0  0  0  0  0  0  0  0  0  0
   -8.8825    4.4502  -16.8070 N   0  0  0  0  0  0  0  0  0  0  0  0
   -7.8343    4.5400  -17.5858 C   0  0  0  0  0  0  0  0  0  0  0  0
  1  2  2  0
  2  3  1  0
  3  4  1  0
  4  5  1  0
  5  6  1  0
  6  7  1  0
  7  8  1  0
  3  9  2  0
  9 10  1  0
 10 11  1  0
 11 12  2  0
 12 13  1  0
 13 14  2  0
 14  1  1  0
  8  5  1  0
 14 10  1  0
M  END
>  <energy_score>  (1665) 
-22.791705

>  <alias>  (1665) 
None

>  <HIPPO Pose ID>  (1665) 
72228

>  <smiles>  (1665) 
c1nc(NC2COC2)cn2cnnc12

>  <inchikey>  (1665) 
BUQOTGSTDRBVHK-UHFFFAOYSA-N

>  <distance_score>  (1665) 
1.735077

>  <ref_mols>  (1665) 
Z0875a,Z0089a

>  <ref_pdb>  (1665) 
Z0089a

>  <HIPPO Compound ID>  (1665) 
144846

>  <name>  (1665) 
P72228

>  <inspiration_score>  (1665) 
None

$$$$
P72237
     RDKit          3D

 14 14  0  0  0  0  0  0  0  0999 V2000
   -1.2650    5.5985  -21.0557 C   0  0  0  0  0  0  0  0  0  0  0  0
   -1.9054    4.9671  -20.0587 C   0  0  0  0  0  0  0  0  0  0  0  0
   -2.8323    5.5831  -19.0377 C   0  0  1  0  0  0  0  0  0  0  0  0
   -2.8747    7.1300  -19.0669 C   0  0  0  0  0  0  0  0  0  0  0  0
   -3.4153    7.6674  -17.8569 O   0  0  0  0  0  0  0  0  0  0  0  0
   -4.1409    4.9951  -19.2816 N   0  0  0  0  0  0  0  0  0  0  0  0
   -5.1615    4.9984  -18.3529 C   0  0  0  0  0  0  0  0  0  0  0  0
   -4.9871    5.2264  -16.9809 C   0  0  0  0  0  0  0  0  0  0  0  0
   -5.9866    5.1906  -16.0671 N   0  0  0  0  0  0  0  0  0  0  0  0
   -7.1880    4.8483  -16.5711 C   0  0  0  0  0  0  0  0  0  0  0  0
   -7.3883    4.6031  -17.9199 C   0  0  0  0  0  0  0  0  0  0  0  0
   -8.7031    4.2279  -18.3355 C   0  0  0  0  0  0  0  0  0  0  0  0
   -9.8212    3.9395  -18.4579 N   0  0  0  0  0  0  0  0  0  0  0  0
   -6.3871    4.6928  -18.8345 N   0  0  0  0  0  0  0  0  0  0  0  0
  1  2  2  0
  2  3  1  0
  3  4  1  6
  4  5  1  0
  3  6  1  0
  6  7  1  0
  7  8  2  0
  8  9  1  0
  9 10  2  0
 10 11  1  0
 11 12  1  0
 12 13  3  0
 11 14  2  0
 14  7  1  0
M  END
>  <energy_score>  (1666) 
-27.988832

>  <alias>  (1666) 
None

>  <HIPPO Pose ID>  (1666) 
72237

>  <smiles>  (1666) 
C=C[C@@H](CO)Nc1cncc(C#N)n1

>  <inchikey>  (1666) 
HKPNGMWKSGYLGQ-ZETCQYMHSA-N

>  <distance_score>  (1666) 
0.803784

>  <ref_mols>  (1666) 
Z0875a,Z0089a

>  <ref_pdb>  (1666) 
Z0089a

>  <HIPPO Compound ID>  (1666) 
144853

>  <name>  (1666) 
P72237

>  <inspiration_score>  (1666) 
None

$$$$
P72239
     RDKit          3D

 14 14  0  0  0  0  0  0  0  0999 V2000
   -0.9820    5.8036  -21.1164 C   0  0  0  0  0  0  0  0  0  0  0  0
   -1.5949    5.1167  -20.1400 C   0  0  0  0  0  0  0  0  0  0  0  0
   -2.5904    5.6486  -19.1396 C   0  0  1  0  0  0  0  0  0  0  0  0
   -2.8162    7.1812  -19.1606 C   0  0  0  0  0  0  0  0  0  0  0  0
   -1.6583    7.9222  -18.7705 O   0  0  0  0  0  0  0  0  0  0  0  0
   -3.8088    4.9217  -19.4276 N   0  0  0  0  0  0  0  0  0  0  0  0
   -4.8801    4.9748  -18.5632 C   0  0  0  0  0  0  0  0  0  0  0  0
   -4.8000    5.0348  -17.1759 C   0  0  0  0  0  0  0  0  0  0  0  0
   -5.8812    5.0416  -16.3693 N   0  0  0  0  0  0  0  0  0  0  0  0
   -7.0771    4.9009  -16.9929 C   0  0  0  0  0  0  0  0  0  0  0  0
   -8.2620    4.7459  -16.0912 C   0  0  0  0  0  0  0  0  0  0  0  0
   -9.4522    4.0635  -16.7321 C   0  0  0  0  0  0  0  0  0  0  0  0
   -7.1604    4.8663  -18.3792 C   0  0  0  0  0  0  0  0  0  0  0  0
   -6.0697    4.9138  -19.1732 N   0  0  0  0  0  0  0  0  0  0  0  0
  1  2  2  0
  2  3  1  0
  3  4  1  6
  4  5  1  0
  3  6  1  0
  6  7  1  0
  7  8  2  0
  8  9  1  0
  9 10  2  0
 10 11  1  0
 11 12  1  0
 10 13  1  0
 13 14  2  0
 14  7  1  0
M  END
>  <energy_score>  (1667) 
-29.128314

>  <alias>  (1667) 
None

>  <HIPPO Pose ID>  (1667) 
72239

>  <smiles>  (1667) 
C=C[C@@H](CO)Nc1cnc(CC)cn1

>  <inchikey>  (1667) 
DBHGKNRBUIFFRV-VIFPVBQESA-N

>  <distance_score>  (1667) 
0.862349

>  <ref_mols>  (1667) 
Z0875a,Z0089a

>  <ref_pdb>  (1667) 
Z0089a

>  <HIPPO Compound ID>  (1667) 
144854

>  <name>  (1667) 
P72239

>  <inspiration_score>  (1667) 
None

$$$$
P72241
     RDKit          3D

 14 14  0  0  0  0  0  0  0  0999 V2000
   -8.9622    4.4550  -15.3602 C   0  0  0  0  0  0  0  0  0  0  0  0
   -8.1569    4.7106  -16.2064 C   0  0  0  0  0  0  0  0  0  0  0  0
   -7.1302    4.9978  -17.1330 C   0  0  0  0  0  0  0  0  0  0  0  0
   -7.1642    4.5622  -18.4426 C   0  0  0  0  0  0  0  0  0  0  0  0
   -6.1489    4.8156  -19.2936 N   0  0  0  0  0  0  0  0  0  0  0  0
   -5.1247    5.5367  -18.8081 C   0  0  0  0  0  0  0  0  0  0  0  0
   -4.1373    5.8352  -19.7194 N   0  0  0  0  0  0  0  0  0  0  0  0
   -2.7398    5.7922  -19.3322 C   0  0  1  0  0  0  0  0  0  0  0  0
   -2.3691    4.3797  -18.9756 C   0  0  0  0  0  0  0  0  0  0  0  0
   -1.6591    3.5223  -19.7120 C   0  0  0  0  0  0  0  0  0  0  0  0
   -1.9092    6.4511  -20.4577 C   0  0  0  0  0  0  0  0  0  0  0  0
   -2.1556    5.8669  -21.7555 O   0  0  0  0  0  0  0  0  0  0  0  0
   -5.1245    5.9815  -17.4851 C   0  0  0  0  0  0  0  0  0  0  0  0
   -6.1174    5.7254  -16.6143 N   0  0  0  0  0  0  0  0  0  0  0  0
  1  2  3  0
  2  3  1  0
  3  4  2  0
  4  5  1  0
  5  6  2  0
  6  7  1  0
  7  8  1  0
  8  9  1  0
  9 10  2  0
  8 11  1  6
 11 12  1  0
  6 13  1  0
 13 14  2  0
 14  3  1  0
M  END
>  <energy_score>  (1668) 
-37.521769

>  <alias>  (1668) 
None

>  <HIPPO Pose ID>  (1668) 
72241

>  <smiles>  (1668) 
C#Cc1cnc(N[C@@H](C=C)CO)cn1

>  <inchikey>  (1668) 
KCXNNNIEJWUVOJ-VIFPVBQESA-N

>  <distance_score>  (1668) 
1.13182

>  <ref_mols>  (1668) 
Z0875a,Z0089a

>  <ref_pdb>  (1668) 
Z0089a

>  <HIPPO Compound ID>  (1668) 
144855

>  <name>  (1668) 
P72241

>  <inspiration_score>  (1668) 
None

$$$$
P72242
     RDKit          3D

 14 14  0  0  0  0  0  0  0  0999 V2000
   -9.8329    4.1347  -18.1624 C   0  0  0  0  0  0  0  0  0  0  0  0
   -8.6495    4.3156  -18.0731 C   0  0  0  0  0  0  0  0  0  0  0  0
   -7.2756    4.5956  -17.8077 C   0  0  0  0  0  0  0  0  0  0  0  0
   -6.8483    4.7869  -16.5041 C   0  0  0  0  0  0  0  0  0  0  0  0
   -5.5598    5.0521  -16.1913 N   0  0  0  0  0  0  0  0  0  0  0  0
   -4.7203    5.0729  -17.2532 C   0  0  0  0  0  0  0  0  0  0  0  0
   -5.1374    4.9255  -18.5784 C   0  0  0  0  0  0  0  0  0  0  0  0
   -4.3046    4.9598  -19.6765 N   0  0  0  0  0  0  0  0  0  0  0  0
   -3.1376    5.8153  -19.8116 C   0  0  2  0  0  0  0  0  0  0  0  0
   -1.9120    4.9980  -19.4771 C   0  0  0  0  0  0  0  0  0  0  0  0
   -0.8559    5.3821  -18.7460 C   0  0  0  0  0  0  0  0  0  0  0  0
   -3.2577    7.2159  -19.1717 C   0  0  0  0  0  0  0  0  0  0  0  0
   -2.4314    8.1801  -19.8349 O   0  0  0  0  0  0  0  0  0  0  0  0
   -6.4349    4.6842  -18.8620 N   0  0  0  0  0  0  0  0  0  0  0  0
  1  2  3  0
  2  3  1  0
  3  4  2  0
  4  5  1  0
  5  6  2  0
  6  7  1  0
  7  8  1  0
  8  9  1  0
  9 10  1  0
 10 11  2  0
  9 12  1  1
 12 13  1  0
  7 14  2  0
 14  3  1  0
M  END
>  <energy_score>  (1669) 
-26.795737

>  <alias>  (1669) 
None

>  <HIPPO Pose ID>  (1669) 
72242

>  <smiles>  (1669) 
C#Cc1cncc(N[C@H](C=C)CO)n1

>  <inchikey>  (1669) 
KGRQFBVZBXRZGN-SECBINFHSA-N

>  <distance_score>  (1669) 
1.122079

>  <ref_mols>  (1669) 
Z0875a,Z0089a

>  <ref_pdb>  (1669) 
Z0089a

>  <HIPPO Compound ID>  (1669) 
144856

>  <name>  (1669) 
P72242

>  <inspiration_score>  (1669) 
None

$$$$
P72245
     RDKit          3D

 14 14  0  0  0  0  0  0  0  0999 V2000
   -3.8636    6.7966  -15.3857 C   0  0  0  0  0  0  0  0  0  0  0  0
   -4.6275    6.2437  -16.1320 C   0  0  0  0  0  0  0  0  0  0  0  0
   -5.5904    5.5769  -16.9600 C   0  0  0  0  0  0  0  0  0  0  0  0
   -6.7053    5.2679  -16.2471 N   0  0  0  0  0  0  0  0  0  0  0  0
   -7.6965    4.6643  -16.9365 C   0  0  0  0  0  0  0  0  0  0  0  0
   -7.5961    4.3971  -18.2835 C   0  0  0  0  0  0  0  0  0  0  0  0
   -6.4871    4.6983  -18.9884 N   0  0  0  0  0  0  0  0  0  0  0  0
   -5.4697    5.3040  -18.3342 C   0  0  0  0  0  0  0  0  0  0  0  0
   -4.4820    5.6398  -19.2226 N   0  0  0  0  0  0  0  0  0  0  0  0
   -3.0591    5.7201  -18.9651 C   0  0  1  0  0  0  0  0  0  0  0  0
   -2.5248    4.3212  -18.8342 C   0  0  0  0  0  0  0  0  0  0  0  0
   -1.6678    3.6941  -19.6471 C   0  0  0  0  0  0  0  0  0  0  0  0
   -2.4396    6.5522  -20.1195 C   0  0  0  0  0  0  0  0  0  0  0  0
   -2.8884    6.0843  -21.4134 O   0  0  0  0  0  0  0  0  0  0  0  0
  1  2  3  0
  2  3  1  0
  3  4  2  0
  4  5  1  0
  5  6  2  0
  6  7  1  0
  7  8  2  0
  8  9  1  0
  9 10  1  0
 10 11  1  0
 11 12  2  0
 10 13  1  6
 13 14  1  0
  8  3  1  0
M  END
>  <energy_score>  (1670) 
-18.230617

>  <alias>  (1670) 
None

>  <HIPPO Pose ID>  (1670) 
72245

>  <smiles>  (1670) 
C#Cc1nccnc1N[C@@H](C=C)CO

>  <inchikey>  (1670) 
SWOGHFREGCKAHM-QMMMGPOBSA-N

>  <distance_score>  (1670) 
0.915218

>  <ref_mols>  (1670) 
Z0875a,Z0089a

>  <ref_pdb>  (1670) 
Z0089a

>  <HIPPO Compound ID>  (1670) 
144857

>  <name>  (1670) 
P72245

>  <inspiration_score>  (1670) 
None

$$$$
P72247
     RDKit          3D

 14 14  0  0  0  0  0  0  0  0999 V2000
   -1.5362    4.0923  -19.7994 C   0  0  0  0  0  0  0  0  0  0  0  0
   -2.4806    4.3893  -18.9028 C   0  0  0  0  0  0  0  0  0  0  0  0
   -2.9261    5.7405  -18.4304 C   0  0  1  0  0  0  0  0  0  0  0  0
   -2.0938    6.9359  -18.9535 C   0  0  0  0  0  0  0  0  0  0  0  0
   -2.6634    8.1693  -18.4973 O   0  0  0  0  0  0  0  0  0  0  0  0
   -4.2939    5.9509  -18.8877 N   0  0  0  0  0  0  0  0  0  0  0  0
   -5.3793    5.4247  -18.2107 C   0  0  0  0  0  0  0  0  0  0  0  0
   -6.2915    4.9181  -19.0674 N   0  0  0  0  0  0  0  0  0  0  0  0
   -7.4583    4.4890  -18.5449 C   0  0  0  0  0  0  0  0  0  0  0  0
   -7.7158    4.5445  -17.1923 C   0  0  0  0  0  0  0  0  0  0  0  0
   -6.8242    5.0358  -16.3052 N   0  0  0  0  0  0  0  0  0  0  0  0
   -5.6465    5.4628  -16.8233 C   0  0  0  0  0  0  0  0  0  0  0  0
   -4.7402    6.0221  -15.9424 O   0  0  0  0  0  0  0  0  0  0  0  0
   -5.0392    5.7380  -14.5729 C   0  0  0  0  0  0  0  0  0  0  0  0
  1  2  2  0
  2  3  1  0
  3  4  1  6
  4  5  1  0
  3  6  1  0
  6  7  1  0
  7  8  2  0
  8  9  1  0
  9 10  2  0
 10 11  1  0
 11 12  2  0
 12 13  1  0
 13 14  1  0
 12  7  1  0
M  END
>  <energy_score>  (1671) 
-22.605809

>  <alias>  (1671) 
None

>  <HIPPO Pose ID>  (1671) 
72247

>  <smiles>  (1671) 
C=C[C@@H](CO)Nc1nccnc1OC

>  <inchikey>  (1671) 
MPKLQEIBNHOCEE-ZETCQYMHSA-N

>  <distance_score>  (1671) 
0.938894

>  <ref_mols>  (1671) 
Z0875a,Z0089a

>  <ref_pdb>  (1671) 
Z0089a

>  <HIPPO Compound ID>  (1671) 
144858

>  <name>  (1671) 
P72247

>  <inspiration_score>  (1671) 
None

$$$$
P72250
     RDKit          3D

 14 14  0  0  0  0  0  0  0  0999 V2000
   -1.6538    3.5728  -19.7625 C   0  0  0  0  0  0  0  0  0  0  0  0
   -2.3326    4.4521  -19.0208 C   0  0  0  0  0  0  0  0  0  0  0  0
   -2.8825    5.7322  -19.5587 C   0  0  2  0  0  0  0  0  0  0  0  0
   -2.4016    6.9970  -18.8236 C   0  0  0  0  0  0  0  0  0  0  0  0
   -3.1387    8.1404  -19.2703 O   0  0  0  0  0  0  0  0  0  0  0  0
   -4.3334    5.6758  -19.6505 N   0  0  0  0  0  0  0  0  0  0  0  0
   -5.2222    5.3153  -18.6722 C   0  0  0  0  0  0  0  0  0  0  0  0
   -5.0739    5.4948  -17.3013 C   0  0  0  0  0  0  0  0  0  0  0  0
   -6.0360    5.2033  -16.3934 N   0  0  0  0  0  0  0  0  0  0  0  0
   -7.1969    4.7166  -16.9011 C   0  0  0  0  0  0  0  0  0  0  0  0
   -8.3072    4.4331  -15.9277 C   0  0  0  0  0  0  0  0  0  0  0  0
   -9.5007    3.9935  -16.5712 O   0  0  0  0  0  0  0  0  0  0  0  0
   -7.3480    4.5320  -18.2661 C   0  0  0  0  0  0  0  0  0  0  0  0
   -6.3683    4.8144  -19.1557 N   0  0  0  0  0  0  0  0  0  0  0  0
  1  2  2  0
  2  3  1  0
  3  4  1  1
  4  5  1  0
  3  6  1  0
  6  7  1  0
  7  8  2  0
  8  9  1  0
  9 10  2  0
 10 11  1  0
 11 12  1  0
 10 13  1  0
 13 14  2  0
 14  7  1  0
M  END
>  <energy_score>  (1672) 
-31.912889

>  <alias>  (1672) 
None

>  <HIPPO Pose ID>  (1672) 
72250

>  <smiles>  (1672) 
C=C[C@H](CO)Nc1cnc(CO)cn1

>  <inchikey>  (1672) 
JXLXJOVXABKLGB-SSDOTTSWSA-N

>  <distance_score>  (1672) 
0.797553

>  <ref_mols>  (1672) 
Z0875a,Z0089a

>  <ref_pdb>  (1672) 
Z0089a

>  <HIPPO Compound ID>  (1672) 
144860

>  <name>  (1672) 
P72250

>  <inspiration_score>  (1672) 
None

$$$$
P72252
     RDKit          3D

 14 14  0  0  0  0  0  0  0  0999 V2000
   -1.6535    3.8534  -19.4859 C   0  0  0  0  0  0  0  0  0  0  0  0
   -2.0710    5.0883  -19.7916 C   0  0  0  0  0  0  0  0  0  0  0  0
   -3.3097    5.7868  -19.2524 C   0  0  2  0  0  0  0  0  0  0  0  0
   -2.8731    7.0437  -18.4811 C   0  0  0  0  0  0  0  0  0  0  0  0
   -2.3255    8.0286  -19.3635 O   0  0  0  0  0  0  0  0  0  0  0  0
   -4.0040    4.7959  -18.4272 N   0  0  0  0  0  0  0  0  0  0  0  0
   -5.3146    5.0348  -18.0390 C   0  0  0  0  0  0  0  0  0  0  0  0
   -6.2158    4.5438  -18.9157 N   0  0  0  0  0  0  0  0  0  0  0  0
   -7.4973    4.4812  -18.4984 C   0  0  0  0  0  0  0  0  0  0  0  0
   -7.8698    4.8901  -17.2346 C   0  0  0  0  0  0  0  0  0  0  0  0
   -7.0026    5.4634  -16.3676 N   0  0  0  0  0  0  0  0  0  0  0  0
   -5.7089    5.5114  -16.7825 C   0  0  0  0  0  0  0  0  0  0  0  0
   -4.7853    6.0364  -15.8165 C   0  0  0  0  0  0  0  0  0  0  0  0
   -4.0368    6.5187  -15.0663 N   0  0  0  0  0  0  0  0  0  0  0  0
  1  2  2  0
  2  3  1  0
  3  4  1  1
  4  5  1  0
  3  6  1  0
  6  7  1  0
  7  8  2  0
  8  9  1  0
  9 10  2  0
 10 11  1  0
 11 12  2  0
 12 13  1  0
 13 14  3  0
 12  7  1  0
M  END
>  <energy_score>  (1673) 
-13.39473

>  <alias>  (1673) 
None

>  <HIPPO Pose ID>  (1673) 
72252

>  <smiles>  (1673) 
C=C[C@H](CO)Nc1nccnc1C#N

>  <inchikey>  (1673) 
RIQNAFDTWJXBOM-SSDOTTSWSA-N

>  <distance_score>  (1673) 
0.98272

>  <ref_mols>  (1673) 
Z0875a,Z0089a

>  <ref_pdb>  (1673) 
Z0089a

>  <HIPPO Compound ID>  (1673) 
144861

>  <name>  (1673) 
P72252

>  <inspiration_score>  (1673) 
None

$$$$
P72259
     RDKit          3D

 14 14  0  0  0  0  0  0  0  0999 V2000
   -1.2077    5.6552  -20.9806 C   0  0  0  0  0  0  0  0  0  0  0  0
   -1.9044    4.9924  -20.0445 C   0  0  0  0  0  0  0  0  0  0  0  0
   -2.8856    5.5817  -19.0579 C   0  0  1  0  0  0  0  0  0  0  0  0
   -3.0589    7.1198  -19.1223 C   0  0  0  0  0  0  0  0  0  0  0  0
   -1.8875    7.8337  -18.7209 O   0  0  0  0  0  0  0  0  0  0  0  0
   -4.1410    4.8959  -19.2934 N   0  0  0  0  0  0  0  0  0  0  0  0
   -5.1833    4.9243  -18.3860 C   0  0  0  0  0  0  0  0  0  0  0  0
   -5.0359    5.1278  -17.0123 C   0  0  0  0  0  0  0  0  0  0  0  0
   -6.0670    5.1626  -16.1414 N   0  0  0  0  0  0  0  0  0  0  0  0
   -7.2715    4.8890  -16.6934 C   0  0  0  0  0  0  0  0  0  0  0  0
   -7.4513    4.6432  -18.0492 C   0  0  0  0  0  0  0  0  0  0  0  0
   -8.6481    4.3510  -18.6412 O   0  0  0  0  0  0  0  0  0  0  0  0
   -9.7133    4.0249  -17.7633 C   0  0  0  0  0  0  0  0  0  0  0  0
   -6.4035    4.6927  -18.9055 N   0  0  0  0  0  0  0  0  0  0  0  0
  1  2  2  0
  2  3  1  0
  3  4  1  6
  4  5  1  0
  3  6  1  0
  6  7  1  0
  7  8  2  0
  8  9  1  0
  9 10  2  0
 10 11  1  0
 11 12  1  0
 12 13  1  0
 11 14  2  0
 14  7  1  0
M  END
>  <energy_score>  (1674) 
-11.573623

>  <alias>  (1674) 
None

>  <HIPPO Pose ID>  (1674) 
72259

>  <smiles>  (1674) 
C=C[C@@H](CO)Nc1cncc(OC)n1

>  <inchikey>  (1674) 
WXGVDUOAPLOEQT-ZETCQYMHSA-N

>  <distance_score>  (1674) 
0.777851

>  <ref_mols>  (1674) 
Z0875a,Z0089a

>  <ref_pdb>  (1674) 
Z0089a

>  <HIPPO Compound ID>  (1674) 
144864

>  <name>  (1674) 
P72259

>  <inspiration_score>  (1674) 
None

$$$$
P72260
     RDKit          3D

 14 14  0  0  0  0  0  0  0  0999 V2000
   -8.1131    4.5186  -15.9006 C   0  0  0  0  0  0  0  0  0  0  0  0
   -6.9983    4.7204  -16.8758 C   0  0  0  0  0  0  0  0  0  0  0  0
   -5.7940    5.0264  -16.3420 N   0  0  0  0  0  0  0  0  0  0  0  0
   -4.7786    5.1698  -17.2237 C   0  0  0  0  0  0  0  0  0  0  0  0
   -4.9149    5.0816  -18.6041 C   0  0  0  0  0  0  0  0  0  0  0  0
   -3.9118    5.2153  -19.5379 N   0  0  0  0  0  0  0  0  0  0  0  0
   -2.5596    5.7607  -19.3590 C   0  0  0  0  0  0  0  0  0  0  0  0
   -1.7154    4.7633  -18.5617 C   0  0  0  0  0  0  0  0  0  0  0  0
   -2.5833    7.1446  -18.6977 C   0  0  0  0  0  0  0  0  0  0  0  0
   -1.8128    5.8936  -20.7150 C   0  0  0  0  0  0  0  0  0  0  0  0
   -2.7137    6.8166  -21.9435 Cl  0  0  0  0  0  0  0  0  0  0  0  0
   -6.1271    4.7982  -19.1154 N   0  0  0  0  0  0  0  0  0  0  0  0
   -7.1654    4.5925  -18.2542 C   0  0  0  0  0  0  0  0  0  0  0  0
   -8.4879    4.2343  -18.8643 C   0  0  0  0  0  0  0  0  0  0  0  0
  1  2  1  0
  2  3  2  0
  3  4  1  0
  4  5  2  0
  5  6  1  0
  6  7  1  0
  7  8  1  0
  7  9  1  0
  7 10  1  0
 10 11  1  0
  5 12  1  0
 12 13  2  0
 13 14  1  0
 13  2  1  0
M  END
>  <energy_score>  (1675) 
-29.201432

>  <alias>  (1675) 
None

>  <HIPPO Pose ID>  (1675) 
72260

>  <smiles>  (1675) 
Cc1ncc(NC(C)(C)CCl)nc1C

>  <inchikey>  (1675) 
PTFAICUEQLSHLB-UHFFFAOYSA-N

>  <distance_score>  (1675) 
0.848964

>  <ref_mols>  (1675) 
Z0875a,Z0089a

>  <ref_pdb>  (1675) 
Z0089a

>  <HIPPO Compound ID>  (1675) 
144865

>  <name>  (1675) 
P72260

>  <inspiration_score>  (1675) 
None

$$$$
P72263
     RDKit          3D

 14 14  0  0  0  0  0  0  0  0999 V2000
   -1.8658    4.3440  -19.6134 C   0  0  0  0  0  0  0  0  0  0  0  0
   -2.6886    5.4938  -18.9995 C   0  0  0  0  0  0  0  0  0  0  0  0
   -2.6087    6.7271  -19.9128 C   0  0  0  0  0  0  0  0  0  0  0  0
   -2.1141    5.8457  -17.6079 C   0  0  0  0  0  0  0  0  0  0  0  0
   -0.3848    6.3137  -17.5945 Cl  0  0  0  0  0  0  0  0  0  0  0  0
   -4.0919    5.0396  -19.0176 N   0  0  0  0  0  0  0  0  0  0  0  0
   -5.1445    5.0877  -18.1538 C   0  0  0  0  0  0  0  0  0  0  0  0
   -5.1101    5.4481  -16.8062 C   0  0  0  0  0  0  0  0  0  0  0  0
   -6.1840    5.4515  -15.9794 N   0  0  0  0  0  0  0  0  0  0  0  0
   -7.3236    5.0106  -16.5398 C   0  0  0  0  0  0  0  0  0  0  0  0
   -7.3972    4.6440  -17.8705 C   0  0  0  0  0  0  0  0  0  0  0  0
   -8.6641    4.1964  -18.3537 C   0  0  0  0  0  0  0  0  0  0  0  0
   -9.7627    3.8602  -18.5187 N   0  0  0  0  0  0  0  0  0  0  0  0
   -6.3191    4.6920  -18.6990 N   0  0  0  0  0  0  0  0  0  0  0  0
  1  2  1  0
  2  3  1  0
  2  4  1  0
  4  5  1  0
  2  6  1  0
  6  7  1  0
  7  8  2  0
  8  9  1  0
  9 10  2  0
 10 11  1  0
 11 12  1  0
 12 13  3  0
 11 14  2  0
 14  7  1  0
M  END
>  <energy_score>  (1676) 
-26.248021

>  <alias>  (1676) 
None

>  <HIPPO Pose ID>  (1676) 
72263

>  <smiles>  (1676) 
CC(C)(CCl)Nc1cncc(C#N)n1

>  <inchikey>  (1676) 
GPJUMLOZDXTSHK-UHFFFAOYSA-N

>  <distance_score>  (1676) 
0.824417

>  <ref_mols>  (1676) 
Z0875a,Z0089a

>  <ref_pdb>  (1676) 
Z0089a

>  <HIPPO Compound ID>  (1676) 
144868

>  <name>  (1676) 
P72263

>  <inspiration_score>  (1676) 
None

$$$$
P72265
     RDKit          3D

 14 16  0  0  0  0  0  0  0  0999 V2000
   -5.0113    5.4306  -17.0828 C   0  0  0  0  0  0  0  0  0  0  0  0
   -6.0302    5.5360  -16.2053 N   0  0  0  0  0  0  0  0  0  0  0  0
   -7.2352    5.1735  -16.7050 C   0  0  0  0  0  0  0  0  0  0  0  0
   -7.4571    4.7780  -18.0248 C   0  0  0  0  0  0  0  0  0  0  0  0
   -8.8092    4.3604  -18.5484 C   0  0  0  0  0  0  0  0  0  0  0  0
   -9.5471    3.2862  -17.8081 C   0  0  0  0  0  0  0  0  0  0  0  0
  -10.1338    4.6398  -17.8649 C   0  0  0  0  0  0  0  0  0  0  0  0
   -6.4015    4.7269  -18.8778 N   0  0  0  0  0  0  0  0  0  0  0  0
   -5.1806    5.0406  -18.4069 C   0  0  0  0  0  0  0  0  0  0  0  0
   -4.1384    4.8931  -19.3157 N   0  0  0  0  0  0  0  0  0  0  0  0
   -2.8395    5.4860  -19.2807 C   0  0  0  0  0  0  0  0  0  0  0  0
   -1.8158    4.6981  -20.1169 C   0  0  0  0  0  0  0  0  0  0  0  0
   -2.1429    5.5159  -21.2910 O   0  0  0  0  0  0  0  0  0  0  0  0
   -2.6567    6.5437  -20.3799 C   0  0  0  0  0  0  0  0  0  0  0  0
  1  2  2  0
  2  3  1  0
  3  4  2  0
  4  5  1  0
  5  6  1  0
  6  7  1  0
  4  8  1  0
  8  9  2  0
  9 10  1  0
 10 11  1  0
 11 12  1  0
 12 13  1  0
 13 14  1  0
  9  1  1  0
 14 11  1  0
  7  5  1  0
M  END
>  <energy_score>  (1677) 
-29.519045

>  <alias>  (1677) 
None

>  <HIPPO Pose ID>  (1677) 
72265

>  <smiles>  (1677) 
c1ncc(C2CC2)nc1NC1COC1

>  <inchikey>  (1677) 
MSDXRBZJEKHNER-UHFFFAOYSA-N

>  <distance_score>  (1677) 
0.997913

>  <ref_mols>  (1677) 
Z0875a,Z0089a

>  <ref_pdb>  (1677) 
Z0089a

>  <HIPPO Compound ID>  (1677) 
144870

>  <name>  (1677) 
P72265

>  <inspiration_score>  (1677) 
None

$$$$
P72266
     RDKit          3D

 14 15  0  0  0  0  0  0  0  0999 V2000
   -2.1740    4.5363  -19.0143 C   0  0  0  0  0  0  0  0  0  0  0  0
   -3.2081    5.5153  -19.5658 C   0  0  2  0  0  0  0  0  0  0  0  0
   -2.9500    6.9538  -19.0889 C   0  0  0  0  0  0  0  0  0  0  0  0
   -4.2196    8.3743  -20.1227 I   0  0  0  0  0  0  0  0  0  0  0  0
   -4.5824    5.0354  -19.3541 N   0  0  0  0  0  0  0  0  0  0  0  0
   -5.3281    4.9548  -18.1742 C   0  0  0  0  0  0  0  0  0  0  0  0
   -4.8549    5.1735  -16.9204 C   0  0  0  0  0  0  0  0  0  0  0  0
   -5.5839    5.1047  -15.7460 N   0  0  0  0  0  0  0  0  0  0  0  0
   -6.8434    4.7769  -15.8328 C   0  0  0  0  0  0  0  0  0  0  0  0
   -7.4523    4.5228  -17.0889 C   0  0  0  0  0  0  0  0  0  0  0  0
   -8.6921    4.1832  -17.3427 N   0  0  0  0  0  0  0  0  0  0  0  0
   -8.7704    3.9974  -18.6969 N   0  0  0  0  0  0  0  0  0  0  0  0
   -7.5753    4.2403  -19.1992 C   0  0  0  0  0  0  0  0  0  0  0  0
   -6.6967    4.6030  -18.2243 N   0  0  0  0  0  0  0  0  0  0  0  0
  2  1  1  1
  2  3  1  0
  3  4  1  0
  2  5  1  0
  5  6  1  0
  6  7  2  0
  7  8  1  0
  8  9  2  0
  9 10  1  0
 10 11  2  0
 11 12  1  0
 12 13  2  0
 13 14  1  0
 14  6  1  0
 14 10  1  0
M  END
>  <energy_score>  (1678) 
-25.849598

>  <alias>  (1678) 
None

>  <HIPPO Pose ID>  (1678) 
72266

>  <smiles>  (1678) 
C[C@H](CI)Nc1cncc2nncn12

>  <inchikey>  (1678) 
SUSYYYUPNYMLNK-ZCFIWIBFSA-N

>  <distance_score>  (1678) 
1.776989

>  <ref_mols>  (1678) 
Z0875a,Z0089a

>  <ref_pdb>  (1678) 
Z0089a

>  <HIPPO Compound ID>  (1678) 
144871

>  <name>  (1678) 
P72266

>  <inspiration_score>  (1678) 
None

$$$$
P72271
     RDKit          3D

 14 15  0  0  0  0  0  0  0  0999 V2000
   -1.8157    4.3343  -19.5077 C   0  0  0  0  0  0  0  0  0  0  0  0
   -2.6713    5.3415  -18.7359 C   0  0  1  0  0  0  0  0  0  0  0  0
   -2.1763    6.7838  -18.9435 C   0  0  0  0  0  0  0  0  0  0  0  0
   -0.4171    7.2194  -17.7888 I   0  0  0  0  0  0  0  0  0  0  0  0
   -4.0406    5.2553  -19.2041 N   0  0  0  0  0  0  0  0  0  0  0  0
   -5.1806    5.1568  -18.4494 C   0  0  0  0  0  0  0  0  0  0  0  0
   -6.1836    4.6279  -19.1125 N   0  0  0  0  0  0  0  0  0  0  0  0
   -7.3981    4.4598  -18.4901 C   0  0  0  0  0  0  0  0  0  0  0  0
   -7.6242    4.7908  -17.2145 C   0  0  0  0  0  0  0  0  0  0  0  0
   -6.6052    5.3747  -16.4911 N   0  0  0  0  0  0  0  0  0  0  0  0
   -6.6507    5.8612  -15.2229 N   0  0  0  0  0  0  0  0  0  0  0  0
   -5.4414    6.3804  -15.0219 C   0  0  0  0  0  0  0  0  0  0  0  0
   -4.5999    6.2341  -16.1338 C   0  0  0  0  0  0  0  0  0  0  0  0
   -5.3686    5.5851  -17.0748 C   0  0  0  0  0  0  0  0  0  0  0  0
  2  1  1  6
  2  3  1  0
  3  4  1  0
  2  5  1  0
  5  6  1  0
  6  7  2  0
  7  8  1  0
  8  9  2  0
  9 10  1  0
 10 11  1  0
 11 12  2  0
 12 13  1  0
 13 14  2  0
 14  6  1  0
 14 10  1  0
M  END
>  <energy_score>  (1679) 
-19.299972

>  <alias>  (1679) 
None

>  <HIPPO Pose ID>  (1679) 
72271

>  <smiles>  (1679) 
C[C@@H](CI)Nc1nccn2nccc12

>  <inchikey>  (1679) 
BNKBHWAPXSTLHQ-ZETCQYMHSA-N

>  <distance_score>  (1679) 
1.189817

>  <ref_mols>  (1679) 
Z0875a,Z0089a

>  <ref_pdb>  (1679) 
Z0089a

>  <HIPPO Compound ID>  (1679) 
144873

>  <name>  (1679) 
P72271

>  <inspiration_score>  (1679) 
None

$$$$
P72275
     RDKit          3D

 14 15  0  0  0  0  0  0  0  0999 V2000
   -1.7752    4.3395  -19.6056 C   0  0  0  0  0  0  0  0  0  0  0  0
   -2.7001    5.3449  -18.9170 C   0  0  1  0  0  0  0  0  0  0  0  0
   -2.4624    6.7867  -19.3953 C   0  0  0  0  0  0  0  0  0  0  0  0
   -0.6833    7.6464  -18.5605 I   0  0  0  0  0  0  0  0  0  0  0  0
   -4.0762    4.9617  -19.1892 N   0  0  0  0  0  0  0  0  0  0  0  0
   -5.1290    5.0802  -18.3164 C   0  0  0  0  0  0  0  0  0  0  0  0
   -5.0247    5.4599  -16.9798 C   0  0  0  0  0  0  0  0  0  0  0  0
   -6.0746    5.5396  -16.1361 N   0  0  0  0  0  0  0  0  0  0  0  0
   -7.2526    5.1624  -16.6793 C   0  0  0  0  0  0  0  0  0  0  0  0
   -7.4215    4.7806  -18.0100 C   0  0  0  0  0  0  0  0  0  0  0  0
   -8.7562    4.3451  -18.5702 C   0  0  0  0  0  0  0  0  0  0  0  0
   -9.5240    3.2854  -17.8357 C   0  0  0  0  0  0  0  0  0  0  0  0
  -10.1038    4.6390  -17.9333 C   0  0  0  0  0  0  0  0  0  0  0  0
   -6.3340    4.7616  -18.8304 N   0  0  0  0  0  0  0  0  0  0  0  0
  2  1  1  6
  2  3  1  0
  3  4  1  0
  2  5  1  0
  5  6  1  0
  6  7  2  0
  7  8  1  0
  8  9  2  0
  9 10  1  0
 10 11  1  0
 11 12  1  0
 12 13  1  0
 10 14  2  0
 14  6  1  0
 13 11  1  0
M  END
>  <energy_score>  (1680) 
-20.092914

>  <alias>  (1680) 
None

>  <HIPPO Pose ID>  (1680) 
72275

>  <smiles>  (1680) 
C[C@@H](CI)Nc1cncc(C2CC2)n1

>  <inchikey>  (1680) 
QQEYUEGDPBRNEO-ZETCQYMHSA-N

>  <distance_score>  (1680) 
0.935746

>  <ref_mols>  (1680) 
Z0875a,Z0089a

>  <ref_pdb>  (1680) 
Z0089a

>  <HIPPO Compound ID>  (1680) 
144875

>  <name>  (1680) 
P72275

>  <inspiration_score>  (1680) 
None

$$$$
P72278
     RDKit          3D

 14 15  0  0  0  0  0  0  0  0999 V2000
   -2.0977    4.4990  -19.1368 C   0  0  0  0  0  0  0  0  0  0  0  0
   -3.1363    5.5257  -19.5860 C   0  0  2  0  0  0  0  0  0  0  0  0
   -2.8744    6.9365  -19.0318 C   0  0  0  0  0  0  0  0  0  0  0  0
   -1.3650    7.9819  -20.1708 I   0  0  0  0  0  0  0  0  0  0  0  0
   -4.5017    5.0532  -19.3221 N   0  0  0  0  0  0  0  0  0  0  0  0
   -5.2038    4.9702  -18.1167 C   0  0  0  0  0  0  0  0  0  0  0  0
   -4.6759    5.1702  -16.8848 C   0  0  0  0  0  0  0  0  0  0  0  0
   -5.3557    5.1088  -15.6863 N   0  0  0  0  0  0  0  0  0  0  0  0
   -6.6234    4.8227  -15.7249 C   0  0  0  0  0  0  0  0  0  0  0  0
   -7.3120    4.5955  -16.9537 C   0  0  0  0  0  0  0  0  0  0  0  0
   -8.6309    4.3059  -17.2215 C   0  0  0  0  0  0  0  0  0  0  0  0
   -8.7299    4.1633  -18.6145 C   0  0  0  0  0  0  0  0  0  0  0  0
   -7.4623    4.3337  -19.1311 C   0  0  0  0  0  0  0  0  0  0  0  0
   -6.5882    4.6502  -18.1240 N   0  0  0  0  0  0  0  0  0  0  0  0
  2  1  1  1
  2  3  1  0
  3  4  1  0
  2  5  1  0
  5  6  1  0
  6  7  2  0
  7  8  1  0
  8  9  2  0
  9 10  1  0
 10 11  2  0
 11 12  1  0
 12 13  2  0
 13 14  1  0
 14  6  1  0
 14 10  1  0
M  END
>  <energy_score>  (1681) 
-17.858104

>  <alias>  (1681) 
None

>  <HIPPO Pose ID>  (1681) 
72278

>  <smiles>  (1681) 
C[C@H](CI)Nc1cncc2cccn12

>  <inchikey>  (1681) 
BMNVKMSHKBSZNQ-MRVPVSSYSA-N

>  <distance_score>  (1681) 
1.795251

>  <ref_mols>  (1681) 
Z0875a,Z0089a

>  <ref_pdb>  (1681) 
Z0089a

>  <HIPPO Compound ID>  (1681) 
144877

>  <name>  (1681) 
P72278

>  <inspiration_score>  (1681) 
None

$$$$
P72284
     RDKit          3D

 14 16  0  0  0  0  0  0  0  0999 V2000
   -2.2674    4.4794  -17.7986 O   0  0  0  0  0  0  0  0  0  0  0  0
   -2.1783    5.5756  -18.7180 C   0  0  1  0  0  0  0  0  0  0  0  0
   -2.2113    5.1866  -20.1570 C   0  0  0  0  0  0  0  0  0  0  0  0
   -3.4169    5.8489  -19.5351 C   0  0  1  0  0  0  0  0  0  0  0  0
   -4.6740    5.0936  -19.3695 N   0  0  0  0  0  0  0  0  0  0  0  0
   -5.4318    5.2054  -18.1939 C   0  0  0  0  0  0  0  0  0  0  0  0
   -4.9869    5.7064  -17.0130 C   0  0  0  0  0  0  0  0  0  0  0  0
   -5.6869    5.7412  -15.8252 N   0  0  0  0  0  0  0  0  0  0  0  0
   -6.8929    5.2603  -15.8213 C   0  0  0  0  0  0  0  0  0  0  0  0
   -7.5088    4.7642  -17.0081 C   0  0  0  0  0  0  0  0  0  0  0  0
   -8.7808    4.2967  -17.2414 C   0  0  0  0  0  0  0  0  0  0  0  0
   -8.8404    3.9903  -18.6078 C   0  0  0  0  0  0  0  0  0  0  0  0
   -7.5873    4.2157  -19.1371 C   0  0  0  0  0  0  0  0  0  0  0  0
   -6.7684    4.7366  -18.1697 N   0  0  0  0  0  0  0  0  0  0  0  0
  2  1  1  1
  2  3  1  0
  3  4  1  0
  4  5  1  1
  5  6  1  0
  6  7  2  0
  7  8  1  0
  8  9  2  0
  9 10  1  0
 10 11  2  0
 11 12  1  0
 12 13  2  0
 13 14  1  0
  4  2  1  0
 14  6  1  0
 14 10  1  0
M  END
>  <energy_score>  (1682) 
-22.124969

>  <alias>  (1682) 
None

>  <HIPPO Pose ID>  (1682) 
72284

>  <smiles>  (1682) 
O[C@H]1C[C@H]1Nc1cncc2cccn12

>  <inchikey>  (1682) 
YHGDGMGUPFZWNH-BDAKNGLRSA-N

>  <distance_score>  (1682) 
1.812449

>  <ref_mols>  (1682) 
Z0875a,Z0089a

>  <ref_pdb>  (1682) 
Z0089a

>  <HIPPO Compound ID>  (1682) 
144879

>  <name>  (1682) 
P72284

>  <inspiration_score>  (1682) 
None

$$$$
P72286
     RDKit          3D

 14 16  0  0  0  0  0  0  0  0999 V2000
   -2.9705    7.2010  -17.8892 O   0  0  0  0  0  0  0  0  0  0  0  0
   -2.5154    6.4752  -19.0337 C   0  0  1  0  0  0  0  0  0  0  0  0
   -2.2664    4.9962  -18.8705 C   0  0  0  0  0  0  0  0  0  0  0  0
   -3.4415    5.4756  -19.6623 C   0  0  1  0  0  0  0  0  0  0  0  0
   -4.8474    5.1744  -19.3780 N   0  0  0  0  0  0  0  0  0  0  0  0
   -5.5005    5.0020  -18.1614 C   0  0  0  0  0  0  0  0  0  0  0  0
   -4.9923    5.1711  -16.9142 C   0  0  0  0  0  0  0  0  0  0  0  0
   -5.6684    5.0040  -15.7160 N   0  0  0  0  0  0  0  0  0  0  0  0
   -6.9239    4.6596  -15.7724 C   0  0  0  0  0  0  0  0  0  0  0  0
   -7.5724    4.4588  -17.0173 C   0  0  0  0  0  0  0  0  0  0  0  0
   -8.8123    4.1004  -17.2433 N   0  0  0  0  0  0  0  0  0  0  0  0
   -8.9311    3.9551  -18.5984 N   0  0  0  0  0  0  0  0  0  0  0  0
   -7.7577    4.2358  -19.1287 C   0  0  0  0  0  0  0  0  0  0  0  0
   -6.8589    4.6055  -18.1729 N   0  0  0  0  0  0  0  0  0  0  0  0
  2  1  1  1
  2  3  1  0
  3  4  1  0
  4  5  1  1
  5  6  1  0
  6  7  2  0
  7  8  1  0
  8  9  2  0
  9 10  1  0
 10 11  2  0
 11 12  1  0
 12 13  2  0
 13 14  1  0
  4  2  1  0
 14  6  1  0
 14 10  1  0
M  END
>  <energy_score>  (1683) 
-6.325433

>  <alias>  (1683) 
None

>  <HIPPO Pose ID>  (1683) 
72286

>  <smiles>  (1683) 
O[C@H]1C[C@H]1Nc1cncc2nncn12

>  <inchikey>  (1683) 
WAPYDZDQVRCMGN-RITPCOANSA-N

>  <distance_score>  (1683) 
1.771992

>  <ref_mols>  (1683) 
Z0875a,Z0089a

>  <ref_pdb>  (1683) 
Z0089a

>  <HIPPO Compound ID>  (1683) 
144880

>  <name>  (1683) 
P72286

>  <inspiration_score>  (1683) 
None

$$$$
P72287
     RDKit          3D

 14 15  0  0  0  0  0  0  0  0999 V2000
   -6.1432    4.6731  -19.7916 C   0  0  0  0  0  0  0  0  0  0  0  0
   -6.8780    4.7670  -18.5062 C   0  0  0  0  0  0  0  0  0  0  0  0
   -8.1948    4.3681  -18.5636 N   0  0  0  0  0  0  0  0  0  0  0  0
   -8.9820    4.3165  -17.4551 C   0  0  0  0  0  0  0  0  0  0  0  0
  -10.1564    3.9998  -17.4388 O   0  0  0  0  0  0  0  0  0  0  0  0
   -8.2389    4.7350  -16.2023 C   0  0  0  0  0  0  0  0  0  0  0  0
   -8.9488    4.7125  -14.9178 C   0  0  0  0  0  0  0  0  0  0  0  0
   -7.0245    5.1726  -16.1813 N   0  0  0  0  0  0  0  0  0  0  0  0
   -6.3122    5.1906  -17.3478 C   0  0  0  0  0  0  0  0  0  0  0  0
   -4.9988    5.6356  -17.2803 N   0  0  0  0  0  0  0  0  0  0  0  0
   -4.6554    6.6454  -16.2616 C   0  0  2  0  0  0  0  0  0  0  0  0
   -3.3521    6.5475  -15.5187 C   0  0  0  0  0  0  0  0  0  0  0  0
   -4.6384    6.4068  -14.7680 C   0  0  2  0  0  0  0  0  0  0  0  0
   -4.9581    5.0818  -14.3176 O   0  0  0  0  0  0  0  0  0  0  0  0
  1  2  1  0
  2  3  1  0
  3  4  1  0
  4  5  2  0
  4  6  1  0
  6  7  1  0
  6  8  2  0
  8  9  1  0
  9 10  1  0
 11 10  1  6
 11 12  1  0
 12 13  1  0
 13 14  1  6
  9  2  2  0
 13 11  1  0
M  END
>  <energy_score>  (1684) 
-30.233348

>  <alias>  (1684) 
None

>  <HIPPO Pose ID>  (1684) 
72287

>  <smiles>  (1684) 
Cc1[nH]c(=O)c(C)nc1N[C@@H]1C[C@@H]1O

>  <inchikey>  (1684) 
MTMWRMAPYNHSOC-RQJHMYQMSA-N

>  <distance_score>  (1684) 
1.309341

>  <ref_mols>  (1684) 
Z0875a,Z0089a

>  <ref_pdb>  (1684) 
Z0089a

>  <HIPPO Compound ID>  (1684) 
144882

>  <name>  (1684) 
P72287

>  <inspiration_score>  (1684) 
None

$$$$
P72291
     RDKit          3D

 14 16  0  0  0  0  0  0  0  0999 V2000
   -9.2744    3.3209  -16.1216 O   0  0  0  0  0  0  0  0  0  0  0  0
   -9.8079    4.3502  -16.9577 C   0  0  2  0  0  0  0  0  0  0  0  0
  -10.5118    3.8205  -18.1460 C   0  0  0  0  0  0  0  0  0  0  0  0
   -9.2232    4.5414  -18.3282 C   0  0  2  0  0  0  0  0  0  0  0  0
   -7.9915    3.9078  -18.7426 N   0  0  0  0  0  0  0  0  0  0  0  0
   -6.7903    4.5207  -18.4598 C   0  0  0  0  0  0  0  0  0  0  0  0
   -5.9601    4.5541  -19.4822 N   0  0  0  0  0  0  0  0  0  0  0  0
   -4.7325    5.1539  -19.3588 C   0  0  0  0  0  0  0  0  0  0  0  0
   -4.2904    5.6934  -18.2231 C   0  0  0  0  0  0  0  0  0  0  0  0
   -5.1102    5.6588  -17.1170 N   0  0  0  0  0  0  0  0  0  0  0  0
   -4.8493    6.1562  -15.8838 N   0  0  0  0  0  0  0  0  0  0  0  0
   -5.9369    5.8584  -15.1754 C   0  0  0  0  0  0  0  0  0  0  0  0
   -6.8999    5.1960  -15.9319 C   0  0  0  0  0  0  0  0  0  0  0  0
   -6.3653    5.0903  -17.1931 C   0  0  0  0  0  0  0  0  0  0  0  0
  2  1  1  1
  2  3  1  0
  3  4  1  0
  4  5  1  1
  5  6  1  0
  6  7  2  0
  7  8  1  0
  8  9  2  0
  9 10  1  0
 10 11  1  0
 11 12  2  0
 12 13  1  0
 13 14  2  0
  4  2  1  0
 14  6  1  0
 14 10  1  0
M  END
>  <energy_score>  (1685) 
-8.409993

>  <alias>  (1685) 
None

>  <HIPPO Pose ID>  (1685) 
72291

>  <smiles>  (1685) 
O[C@@H]1C[C@@H]1Nc1nccn2nccc12

>  <inchikey>  (1685) 
WTLBCEPCGVWHFG-POYBYMJQSA-N

>  <distance_score>  (1685) 
1.375054

>  <ref_mols>  (1685) 
Z0875a,Z0089a

>  <ref_pdb>  (1685) 
Z0089a

>  <HIPPO Compound ID>  (1685) 
144883

>  <name>  (1685) 
P72291

>  <inspiration_score>  (1685) 
None

$$$$
P72297
     RDKit          3D

 18 20  0  0  0  0  0  0  0  0999 V2000
   -9.1477    4.4341  -15.9129 C   0  0  0  0  0  0  0  0  0  0  0  0
   -7.6625    4.3741  -15.6679 C   0  0  1  0  0  0  0  0  0  0  0  0
   -6.9067    4.8977  -16.8802 C   0  0  0  0  0  0  0  0  0  0  0  0
   -5.8995    5.7955  -16.4061 O   0  0  0  0  0  0  0  0  0  0  0  0
   -5.7731    5.5925  -14.9975 C   0  0  0  0  0  0  0  0  0  0  0  0
   -7.1528    5.1939  -14.4851 C   0  0  2  0  0  0  0  0  0  0  0  0
   -6.9993    4.4698  -13.1347 C   0  0  0  0  0  0  0  0  0  0  0  0
   -8.2668    4.2887  -12.4068 N   0  0  0  0  0  0  0  0  0  0  0  0
   -8.2325    4.7387  -11.0680 C   0  0  0  0  0  0  0  0  0  0  0  0
   -7.9083    6.0819  -10.8044 C   0  0  0  0  0  0  0  0  0  0  0  0
   -7.8430    6.6023   -9.5005 C   0  0  0  0  0  0  0  0  0  0  0  0
   -8.1116    5.7979   -8.4050 C   0  0  0  0  0  0  0  0  0  0  0  0
   -8.4709    4.4924   -8.6512 C   0  0  0  0  0  0  0  0  0  0  0  0
   -8.5377    3.9600   -9.9529 C   0  0  0  0  0  0  0  0  0  0  0  0
   -8.9391    2.5252   -9.7914 C   0  0  0  0  0  0  0  0  0  0  0  0
   -9.5154    2.4361   -8.4266 N   0  0  0  0  0  0  0  0  0  0  0  0
   -9.3377    1.1322   -7.8337 C   0  0  0  0  0  0  0  0  0  0  0  0
   -8.8521    3.4657   -7.6381 C   0  0  0  0  0  0  0  0  0  0  0  0
  2  1  1  6
  2  3  1  0
  3  4  1  0
  4  5  1  0
  5  6  1  0
  6  7  1  1
  7  8  1  0
  8  9  1  0
  9 10  2  0
 10 11  1  0
 11 12  2  0
 12 13  1  0
 13 14  2  0
 14 15  1  0
 15 16  1  0
 16 17  1  0
 16 18  1  0
  6  2  1  0
 14  9  1  0
 18 13  1  0
M  END
>  <energy_score>  (1686) 
-24.822189

>  <alias>  (1686) 
None

>  <HIPPO Pose ID>  (1686) 
72297

>  <smiles>  (1686) 
C[C@H]1COC[C@@H]1CNc1cccc2c1CN(C)C2

>  <inchikey>  (1686) 
YFSCDAHTDUXTFR-AAEUAGOBSA-N

>  <distance_score>  (1686) 
1.519479

>  <ref_mols>  (1686) 
Z0089a,Z3515a

>  <ref_pdb>  (1686) 
Z3515a

>  <HIPPO Compound ID>  (1686) 
144974

>  <name>  (1686) 
P72297

>  <inspiration_score>  (1686) 
None

$$$$
P72300
     RDKit          3D

 19 21  0  0  0  0  0  0  0  0999 V2000
   -9.0574    4.0831  -15.9914 C   0  0  0  0  0  0  0  0  0  0  0  0
   -7.8553    4.9773  -15.8229 C   0  0  2  0  0  0  0  0  0  0  0  0
   -6.9546    4.8619  -17.0386 C   0  0  0  0  0  0  0  0  0  0  0  0
   -5.6564    5.2838  -16.6239 O   0  0  0  0  0  0  0  0  0  0  0  0
   -5.6088    5.2496  -15.1921 C   0  0  0  0  0  0  0  0  0  0  0  0
   -6.9163    4.6478  -14.6674 C   0  0  1  0  0  0  0  0  0  0  0  0
   -7.2349    5.2416  -13.2909 C   0  0  0  0  0  0  0  0  0  0  0  0
   -8.0599    4.4037  -12.3978 N   0  0  0  0  0  0  0  0  0  0  0  0
   -8.1139    4.8500  -11.0496 C   0  0  0  0  0  0  0  0  0  0  0  0
   -7.9732    6.2215  -10.7280 C   0  0  0  0  0  0  0  0  0  0  0  0
   -8.0354    6.7256   -9.4143 C   0  0  0  0  0  0  0  0  0  0  0  0
   -8.2886    5.8801   -8.3562 C   0  0  0  0  0  0  0  0  0  0  0  0
   -8.5085    4.5615   -8.6718 C   0  0  0  0  0  0  0  0  0  0  0  0
   -8.4389    4.0285   -9.9719 C   0  0  0  0  0  0  0  0  0  0  0  0
   -8.7463    2.5721   -9.8563 C   0  0  0  0  0  0  0  0  0  0  0  0
   -9.1499    2.4172   -8.4641 N   0  0  0  0  0  0  0  0  0  0  0  0
   -9.2418    1.1300   -7.8587 C   0  0  0  0  0  0  0  0  0  0  0  0
   -8.9201    3.5391   -7.7202 C   0  0  0  0  0  0  0  0  0  0  0  0
   -9.0328    3.7378   -6.5249 O   0  0  0  0  0  0  0  0  0  0  0  0
  2  1  1  6
  2  3  1  0
  3  4  1  0
  4  5  1  0
  5  6  1  0
  6  7  1  1
  7  8  1  0
  8  9  1  0
  9 10  2  0
 10 11  1  0
 11 12  2  0
 12 13  1  0
 13 14  2  0
 14 15  1  0
 15 16  1  0
 16 17  1  0
 16 18  1  0
 18 19  2  0
  6  2  1  0
 14  9  1  0
 18 13  1  0
M  END
>  <energy_score>  (1687) 
-19.792465

>  <alias>  (1687) 
None

>  <HIPPO Pose ID>  (1687) 
72300

>  <smiles>  (1687) 
C[C@@H]1COC[C@H]1CNc1cccc2c1CN(C)C2=O

>  <inchikey>  (1687) 
FFVWXBNGPJXKRB-GHMZBOCLSA-N

>  <distance_score>  (1687) 
1.531911

>  <ref_mols>  (1687) 
Z0089a,Z3515a

>  <ref_pdb>  (1687) 
Z3515a

>  <HIPPO Compound ID>  (1687) 
144978

>  <name>  (1687) 
P72300

>  <inspiration_score>  (1687) 
None

$$$$
P72301
     RDKit          3D

 19 21  0  0  0  0  0  0  0  0999 V2000
   -7.7287    4.7357  -17.7640 C   0  0  0  0  0  0  0  0  0  0  0  0
   -6.6001    5.0313  -16.7689 C   0  0  0  0  0  0  0  0  0  0  0  0
   -5.2265    4.9291  -17.4767 C   0  0  0  0  0  0  0  0  0  0  0  0
   -6.7861    4.1968  -15.4967 C   0  0  0  0  0  0  0  0  0  0  0  0
   -7.2900    5.1384  -14.4183 C   0  0  1  0  0  0  0  0  0  0  0  0
   -6.9278    4.7236  -12.9825 C   0  0  0  0  0  0  0  0  0  0  0  0
   -8.1021    4.2399  -12.2327 N   0  0  0  0  0  0  0  0  0  0  0  0
   -8.1775    4.5970  -10.8753 C   0  0  0  0  0  0  0  0  0  0  0  0
   -8.0528    5.9455  -10.4879 C   0  0  0  0  0  0  0  0  0  0  0  0
   -8.1401    6.3649   -9.1450 C   0  0  0  0  0  0  0  0  0  0  0  0
   -8.3821    5.4472   -8.1342 C   0  0  0  0  0  0  0  0  0  0  0  0
   -8.5480    4.1369   -8.5163 C   0  0  0  0  0  0  0  0  0  0  0  0
   -8.4426    3.7001   -9.8435 C   0  0  0  0  0  0  0  0  0  0  0  0
   -8.6242    2.2253   -9.8318 C   0  0  0  0  0  0  0  0  0  0  0  0
   -8.9370    1.9053   -8.4569 N   0  0  0  0  0  0  0  0  0  0  0  0
   -8.8637    3.0030   -7.6451 C   0  0  0  0  0  0  0  0  0  0  0  0
   -9.0260    3.0813   -6.4436 O   0  0  0  0  0  0  0  0  0  0  0  0
   -6.5609    6.3828  -14.8673 C   0  0  0  0  0  0  0  0  0  0  0  0
   -6.6751    6.3839  -16.2979 O   0  0  0  0  0  0  0  0  0  0  0  0
  1  2  1  0
  2  3  1  0
  2  4  1  0
  4  5  1  0
  5  6  1  1
  6  7  1  0
  7  8  1  0
  8  9  2  0
  9 10  1  0
 10 11  2  0
 11 12  1  0
 12 13  2  0
 13 14  1  0
 14 15  1  0
 15 16  1  0
 16 17  2  0
  5 18  1  0
 18 19  1  0
 19  2  1  0
 13  8  1  0
 16 12  1  0
M  END
>  <energy_score>  (1688) 
-100.521429

>  <alias>  (1688) 
None

>  <HIPPO Pose ID>  (1688) 
72301

>  <smiles>  (1688) 
CC1(C)C[C@@H](CNc2cccc3c2CNC3=O)CO1

>  <inchikey>  (1688) 
UJFDRQVRYCQFKP-JTQLQIEISA-N

>  <distance_score>  (1688) 
1.691919

>  <ref_mols>  (1688) 
Z0089a,Z3515a

>  <ref_pdb>  (1688) 
Z3515a

>  <HIPPO Compound ID>  (1688) 
144980

>  <name>  (1688) 
P72301

>  <inspiration_score>  (1688) 
None

$$$$
P72302
     RDKit          3D

 19 21  0  0  0  0  0  0  0  0999 V2000
   -9.6294    1.2438   -7.7035 C   0  0  0  0  0  0  0  0  0  0  0  0
   -8.6271    2.1692   -8.1685 N   0  0  0  0  0  0  0  0  0  0  0  0
   -8.6571    3.3992   -7.3970 C   0  0  0  0  0  0  0  0  0  0  0  0
   -8.3874    4.4741   -8.3897 C   0  0  0  0  0  0  0  0  0  0  0  0
   -8.2024    5.8080   -8.1091 C   0  0  0  0  0  0  0  0  0  0  0  0
   -8.0539    6.6673   -9.1816 C   0  0  0  0  0  0  0  0  0  0  0  0
   -8.0612    6.1756  -10.4985 C   0  0  0  0  0  0  0  0  0  0  0  0
   -8.1894    4.8073  -10.8038 C   0  0  0  0  0  0  0  0  0  0  0  0
   -8.2321    4.3430  -12.1336 N   0  0  0  0  0  0  0  0  0  0  0  0
   -7.7356    5.2394  -13.1892 C   0  0  0  0  0  0  0  0  0  0  0  0
   -7.6350    4.5525  -14.5468 C   0  0  2  0  0  0  0  0  0  0  0  0
   -6.2158    4.5209  -15.0662 C   0  0  0  0  0  0  0  0  0  0  0  0
   -6.3493    4.1195  -16.4367 O   0  0  0  0  0  0  0  0  0  0  0  0
   -7.5998    4.6186  -16.9447 C   0  0  0  0  0  0  0  0  0  0  0  0
   -8.5127    3.5132  -17.4745 C   0  0  0  0  0  0  0  0  0  0  0  0
   -7.2050    5.4873  -18.1342 C   0  0  0  0  0  0  0  0  0  0  0  0
   -8.2574    5.2926  -15.7286 C   0  0  0  0  0  0  0  0  0  0  0  0
   -8.4036    3.9748   -9.7024 C   0  0  0  0  0  0  0  0  0  0  0  0
   -8.7176    2.5126   -9.6025 C   0  0  0  0  0  0  0  0  0  0  0  0
  1  2  1  0
  2  3  1  0
  3  4  1  0
  4  5  2  0
  5  6  1  0
  6  7  2  0
  7  8  1  0
  8  9  1  0
  9 10  1  0
 11 10  1  1
 11 12  1  0
 12 13  1  0
 13 14  1  0
 14 15  1  0
 14 16  1  0
 14 17  1  0
  8 18  2  0
 18 19  1  0
 19  2  1  0
 18  4  1  0
 17 11  1  0
M  END
>  <energy_score>  (1689) 
-21.347371

>  <alias>  (1689) 
None

>  <HIPPO Pose ID>  (1689) 
72302

>  <smiles>  (1689) 
CN1Cc2cccc(NC[C@@H]3COC(C)(C)C3)c2C1

>  <inchikey>  (1689) 
KXMWZAYUAQEUGO-GFCCVEGCSA-N

>  <distance_score>  (1689) 
1.376867

>  <ref_mols>  (1689) 
Z0089a,Z3515a

>  <ref_pdb>  (1689) 
Z3515a

>  <HIPPO Compound ID>  (1689) 
144981

>  <name>  (1689) 
P72302

>  <inspiration_score>  (1689) 
None

$$$$
P72304
     RDKit          3D

 19 21  0  0  0  0  0  0  0  0999 V2000
   -7.7138    4.7476  -18.0849 C   0  0  0  0  0  0  0  0  0  0  0  0
   -6.8357    4.9521  -16.8447 C   0  0  0  0  0  0  0  0  0  0  0  0
   -5.3578    4.7130  -17.2315 C   0  0  0  0  0  0  0  0  0  0  0  0
   -7.4937    4.2751  -15.6366 C   0  0  0  0  0  0  0  0  0  0  0  0
   -6.9279    4.9642  -14.4023 C   0  0  2  0  0  0  0  0  0  0  0  0
   -7.9446    5.1754  -13.2579 C   0  0  0  0  0  0  0  0  0  0  0  0
   -7.9039    4.1122  -12.2530 N   0  0  0  0  0  0  0  0  0  0  0  0
   -7.9741    4.4115  -10.8815 C   0  0  0  0  0  0  0  0  0  0  0  0
   -7.3516    5.5320  -10.3158 C   0  0  0  0  0  0  0  0  0  0  0  0
   -7.3177    5.7551   -8.9191 C   0  0  0  0  0  0  0  0  0  0  0  0
   -7.8567    4.8352   -8.0220 C   0  0  0  0  0  0  0  0  0  0  0  0
   -8.4500    3.7123   -8.5475 C   0  0  0  0  0  0  0  0  0  0  0  0
   -8.5231    3.5378   -9.9381 C   0  0  0  0  0  0  0  0  0  0  0  0
   -9.3010    2.3235  -10.1379 C   0  0  0  0  0  0  0  0  0  0  0  0
   -9.6457    1.9023  -11.2258 O   0  0  0  0  0  0  0  0  0  0  0  0
   -9.6017    1.7892   -8.9025 N   0  0  0  0  0  0  0  0  0  0  0  0
   -9.0657    2.5594   -7.8297 C   0  0  0  0  0  0  0  0  0  0  0  0
   -6.4771    6.2980  -14.9936 C   0  0  0  0  0  0  0  0  0  0  0  0
   -6.8493    6.3074  -16.3871 O   0  0  0  0  0  0  0  0  0  0  0  0
  1  2  1  0
  2  3  1  0
  2  4  1  0
  4  5  1  0
  5  6  1  1
  6  7  1  0
  7  8  1  0
  8  9  2  0
  9 10  1  0
 10 11  2  0
 11 12  1  0
 12 13  2  0
 13 14  1  0
 14 15  2  0
 14 16  1  0
 16 17  1  0
  5 18  1  0
 18 19  1  0
 19  2  1  0
 13  8  1  0
 17 12  1  0
M  END
>  <energy_score>  (1690) 
-16.469056

>  <alias>  (1690) 
None

>  <HIPPO Pose ID>  (1690) 
72304

>  <smiles>  (1690) 
CC1(C)C[C@H](CNc2cccc3c2C(=O)NC3)CO1

>  <inchikey>  (1690) 
BGBLTROEJNDMHV-SNVBAGLBSA-N

>  <distance_score>  (1690) 
1.833536

>  <ref_mols>  (1690) 
Z0089a,Z3515a

>  <ref_pdb>  (1690) 
Z3515a

>  <HIPPO Compound ID>  (1690) 
144982

>  <name>  (1690) 
P72304

>  <inspiration_score>  (1690) 
None

$$$$
P72309
     RDKit          3D

 19 21  0  0  0  0  0  0  0  0999 V2000
   -9.0553    5.0389  -15.5142 C   0  0  0  0  0  0  0  0  0  0  0  0
   -7.8643    4.1266  -15.4501 C   0  0  1  0  0  0  0  0  0  0  0  0
   -7.1724    4.2472  -16.7776 C   0  0  0  0  0  0  0  0  0  0  0  0
   -7.6195    3.8596  -17.8461 O   0  0  0  0  0  0  0  0  0  0  0  0
   -6.0087    4.9471  -16.6394 O   0  0  0  0  0  0  0  0  0  0  0  0
   -5.8906    5.4069  -15.2921 C   0  0  0  0  0  0  0  0  0  0  0  0
   -6.7835    4.5122  -14.4512 C   0  0  1  0  0  0  0  0  0  0  0  0
   -7.1830    5.1784  -13.1367 C   0  0  0  0  0  0  0  0  0  0  0  0
   -7.9562    4.3142  -12.2276 N   0  0  0  0  0  0  0  0  0  0  0  0
   -8.0693    4.7929  -10.8962 C   0  0  0  0  0  0  0  0  0  0  0  0
   -8.0440    6.1723  -10.6079 C   0  0  0  0  0  0  0  0  0  0  0  0
   -8.1301    6.6818   -9.3011 C   0  0  0  0  0  0  0  0  0  0  0  0
   -8.2744    5.8289   -8.2240 C   0  0  0  0  0  0  0  0  0  0  0  0
   -8.3842    4.4841   -8.4941 C   0  0  0  0  0  0  0  0  0  0  0  0
   -8.3199    3.9661   -9.7983 C   0  0  0  0  0  0  0  0  0  0  0  0
   -8.5841    2.4956   -9.6877 C   0  0  0  0  0  0  0  0  0  0  0  0
   -8.5580    2.1722   -8.2446 N   0  0  0  0  0  0  0  0  0  0  0  0
   -9.5933    1.2645   -7.8176 C   0  0  0  0  0  0  0  0  0  0  0  0
   -8.6271    3.4136   -7.4910 C   0  0  0  0  0  0  0  0  0  0  0  0
  2  1  1  6
  2  3  1  0
  3  4  2  0
  3  5  1  0
  5  6  1  0
  6  7  1  0
  7  8  1  1
  8  9  1  0
  9 10  1  0
 10 11  2  0
 11 12  1  0
 12 13  2  0
 13 14  1  0
 14 15  2  0
 15 16  1  0
 16 17  1  0
 17 18  1  0
 17 19  1  0
  7  2  1  0
 15 10  1  0
 19 14  1  0
M  END
>  <energy_score>  (1691) 
-46.381994

>  <alias>  (1691) 
None

>  <HIPPO Pose ID>  (1691) 
72309

>  <smiles>  (1691) 
C[C@H]1C(=O)OC[C@H]1CNc1cccc2c1CN(C)C2

>  <inchikey>  (1691) 
UXYZCSMZDLZBJK-ZYHUDNBSSA-N

>  <distance_score>  (1691) 
1.419596

>  <ref_mols>  (1691) 
Z0089a,Z3515a

>  <ref_pdb>  (1691) 
Z3515a

>  <HIPPO Compound ID>  (1691) 
144985

>  <name>  (1691) 
P72309

>  <inspiration_score>  (1691) 
None

$$$$
P72311
     RDKit          3D

 19 21  0  0  0  0  0  0  0  0999 V2000
   -9.0312    5.0724  -15.4544 C   0  0  0  0  0  0  0  0  0  0  0  0
   -7.7020    4.3770  -15.3169 C   0  0  1  0  0  0  0  0  0  0  0  0
   -6.9360    4.5351  -16.6200 C   0  0  0  0  0  0  0  0  0  0  0  0
   -6.1943    5.7510  -16.5075 O   0  0  0  0  0  0  0  0  0  0  0  0
   -5.9685    6.0050  -15.1149 C   0  0  0  0  0  0  0  0  0  0  0  0
   -6.7452    4.9733  -14.2867 C   0  0  1  0  0  0  0  0  0  0  0  0
   -7.2524    5.6305  -12.9882 C   0  0  0  0  0  0  0  0  0  0  0  0
   -8.1674    4.8851  -12.1242 N   0  0  0  0  0  0  0  0  0  0  0  0
   -7.6765    4.0517  -11.1114 C   0  0  0  0  0  0  0  0  0  0  0  0
   -6.8479    2.9930  -11.4573 C   0  0  0  0  0  0  0  0  0  0  0  0
   -6.6472    1.9015  -10.6087 C   0  0  0  0  0  0  0  0  0  0  0  0
   -7.3130    1.8007   -9.3992 C   0  0  0  0  0  0  0  0  0  0  0  0
   -8.0757    2.8571   -8.9980 C   0  0  0  0  0  0  0  0  0  0  0  0
   -8.2009    3.9837   -9.8144 C   0  0  0  0  0  0  0  0  0  0  0  0
   -8.7127    5.0352   -8.9097 C   0  0  0  0  0  0  0  0  0  0  0  0
   -8.7522    6.2279   -9.1574 O   0  0  0  0  0  0  0  0  0  0  0  0
   -9.0119    4.4305   -7.6879 N   0  0  0  0  0  0  0  0  0  0  0  0
   -9.3208    5.1259   -6.4659 C   0  0  0  0  0  0  0  0  0  0  0  0
   -8.7825    3.0081   -7.7051 C   0  0  0  0  0  0  0  0  0  0  0  0
  2  1  1  6
  2  3  1  0
  3  4  1  0
  4  5  1  0
  5  6  1  0
  6  7  1  1
  7  8  1  0
  8  9  1  0
  9 10  2  0
 10 11  1  0
 11 12  2  0
 12 13  1  0
 13 14  2  0
 14 15  1  0
 15 16  2  0
 15 17  1  0
 17 18  1  0
 17 19  1  0
  6  2  1  0
 14  9  1  0
 19 13  1  0
M  END
>  <energy_score>  (1692) 
-5.007198

>  <alias>  (1692) 
None

>  <HIPPO Pose ID>  (1692) 
72311

>  <smiles>  (1692) 
C[C@H]1COC[C@H]1CNc1cccc2c1C(=O)N(C)C2

>  <inchikey>  (1692) 
HYYMSFNJNFEHCK-CMPLNLGQSA-N

>  <distance_score>  (1692) 
1.936832

>  <ref_mols>  (1692) 
Z0089a,Z3515a

>  <ref_pdb>  (1692) 
Z3515a

>  <HIPPO Compound ID>  (1692) 
145004

>  <name>  (1692) 
P72311

>  <inspiration_score>  (1692) 
None

$$$$
P72312
     RDKit          3D

 20 22  0  0  0  0  0  0  0  0999 V2000
   -9.4575    1.4171   -8.0715 C   0  0  0  0  0  0  0  0  0  0  0  0
   -8.4482    2.3072   -8.6003 N   0  0  0  0  0  0  0  0  0  0  0  0
   -8.4616    3.5636   -7.8754 C   0  0  0  0  0  0  0  0  0  0  0  0
   -8.2784    4.6098   -8.9160 C   0  0  0  0  0  0  0  0  0  0  0  0
   -8.1425    5.9561   -8.6672 C   0  0  0  0  0  0  0  0  0  0  0  0
   -8.0553    6.7934   -9.7607 C   0  0  0  0  0  0  0  0  0  0  0  0
   -8.0604    6.2694  -11.0664 C   0  0  0  0  0  0  0  0  0  0  0  0
   -8.1268    4.8902  -11.3469 C   0  0  0  0  0  0  0  0  0  0  0  0
   -8.1606    4.4383  -12.6922 N   0  0  0  0  0  0  0  0  0  0  0  0
   -7.2339    5.1071  -13.6744 C   0  0  0  0  0  0  0  0  0  0  0  0
   -7.6095    5.0245  -15.2332 C   0  0  2  0  0  0  0  0  0  0  0  0
   -6.7337    5.8880  -16.1389 N   0  0  0  0  0  0  0  0  0  0  0  0
   -5.3252    5.8424  -15.7420 C   0  0  0  0  0  0  0  0  0  0  0  0
   -6.7448    5.5645  -17.5940 C   0  0  0  0  0  0  0  0  0  0  0  0
   -9.0897    5.2493  -15.4650 C   0  0  0  0  0  0  0  0  0  0  0  0
   -9.4669    4.3914  -16.6698 C   0  0  0  0  0  0  0  0  0  0  0  0
   -8.4288    3.4441  -16.8444 O   0  0  0  0  0  0  0  0  0  0  0  0
   -7.5814    3.6009  -15.7035 C   0  0  0  0  0  0  0  0  0  0  0  0
   -8.3046    4.0720  -10.2185 C   0  0  0  0  0  0  0  0  0  0  0  0
   -8.5721    2.6011  -10.0494 C   0  0  0  0  0  0  0  0  0  0  0  0
  1  2  1  0
  2  3  1  0
  3  4  1  0
  4  5  2  0
  5  6  1  0
  6  7  2  0
  7  8  1  0
  8  9  1  0
  9 10  1  0
 11 10  1  1
 11 12  1  0
 12 13  1  0
 12 14  1  0
 11 15  1  0
 15 16  1  0
 16 17  1  0
 17 18  1  0
  8 19  2  0
 19 20  1  0
 20  2  1  0
 19  4  1  0
 18 11  1  0
M  END
>  <energy_score>  (1693) 
-29.066073

>  <alias>  (1693) 
None

>  <HIPPO Pose ID>  (1693) 
72312

>  <smiles>  (1693) 
CN1Cc2cccc(NC[C@]3(N(C)C)CCOC3)c2C1

>  <inchikey>  (1693) 
MBXYWRKOMFJPGC-MRXNPFEDSA-N

>  <distance_score>  (1693) 
1.885705

>  <ref_mols>  (1693) 
Z3515a,Z0089a

>  <ref_pdb>  (1693) 
Z3515a

>  <HIPPO Compound ID>  (1693) 
145028

>  <name>  (1693) 
P72312

>  <inspiration_score>  (1693) 
None

$$$$
P72313
     RDKit          3D

 20 23  0  0  0  0  0  0  0  0999 V2000
   -4.6682    5.7276  -17.4385 C   0  0  0  0  0  0  0  0  0  0  0  0
   -5.7151    5.5931  -16.3360 C   0  0  2  0  0  0  0  0  0  0  0  0
   -6.9968    4.8384  -16.7299 C   0  0  0  0  0  0  0  0  0  0  0  0
   -7.6275    4.4976  -15.3675 C   0  0  0  0  0  0  0  0  0  0  0  0
   -6.6044    5.0611  -14.3589 C   0  0  2  0  0  0  0  0  0  0  0  0
   -6.6411    4.4997  -12.9336 C   0  0  0  0  0  0  0  0  0  0  0  0
   -8.0034    4.3534  -12.3831 N   0  0  0  0  0  0  0  0  0  0  0  0
   -8.1220    4.6710  -11.0135 C   0  0  0  0  0  0  0  0  0  0  0  0
   -7.9568    6.0080  -10.6079 C   0  0  0  0  0  0  0  0  0  0  0  0
   -8.0644    6.4089   -9.2613 C   0  0  0  0  0  0  0  0  0  0  0  0
   -8.3450    5.4809   -8.2683 C   0  0  0  0  0  0  0  0  0  0  0  0
   -8.5132    4.1754   -8.6684 C   0  0  0  0  0  0  0  0  0  0  0  0
   -8.3885    3.7541   -9.9992 C   0  0  0  0  0  0  0  0  0  0  0  0
   -8.5567    2.2768  -10.0052 C   0  0  0  0  0  0  0  0  0  0  0  0
   -8.8960    1.9432   -8.6381 N   0  0  0  0  0  0  0  0  0  0  0  0
   -8.8418    3.0321   -7.8136 C   0  0  0  0  0  0  0  0  0  0  0  0
   -9.0308    3.0993   -6.6152 O   0  0  0  0  0  0  0  0  0  0  0  0
   -6.6573    6.5815  -14.4615 C   0  0  0  0  0  0  0  0  0  0  0  0
   -6.1080    6.8730  -15.7827 O   0  0  0  0  0  0  0  0  0  0  0  0
   -5.2661    4.8836  -15.0834 C   0  0  0  0  0  0  0  0  0  0  0  0
  2  1  1  6
  2  3  1  0
  3  4  1  0
  4  5  1  0
  5  6  1  1
  6  7  1  0
  7  8  1  0
  8  9  2  0
  9 10  1  0
 10 11  2  0
 11 12  1  0
 12 13  2  0
 13 14  1  0
 14 15  1  0
 15 16  1  0
 16 17  2  0
  5 18  1  0
 18 19  1  0
  5 20  1  0
 19  2  1  0
 20  2  1  0
 13  8  1  0
 16 12  1  0
M  END
>  <energy_score>  (1694) 
-18.772556

>  <alias>  (1694) 
None

>  <HIPPO Pose ID>  (1694) 
72313

>  <smiles>  (1694) 
C[C@]12CC[C@](CNc3cccc4c3CNC4=O)(CO1)C2

>  <inchikey>  (1694) 
SFQLSQRIQTTXJO-CVEARBPZSA-N

>  <distance_score>  (1694) 
1.964065

>  <ref_mols>  (1694) 
Z0089a,Z3515a

>  <ref_pdb>  (1694) 
Z3515a

>  <HIPPO Compound ID>  (1694) 
145045

>  <name>  (1694) 
P72313

>  <inspiration_score>  (1694) 
None

$$$$
P72315
     RDKit          3D

 20 22  0  0  0  0  0  0  0  0999 V2000
   -7.6781    4.7570  -17.7576 C   0  0  0  0  0  0  0  0  0  0  0  0
   -6.5639    5.0480  -16.7432 C   0  0  0  0  0  0  0  0  0  0  0  0
   -5.1815    4.9629  -17.4340 C   0  0  0  0  0  0  0  0  0  0  0  0
   -6.7615    4.1956  -15.4878 C   0  0  0  0  0  0  0  0  0  0  0  0
   -7.3540    5.1042  -14.4270 C   0  0  1  0  0  0  0  0  0  0  0  0
   -7.0661    4.6621  -12.9808 C   0  0  0  0  0  0  0  0  0  0  0  0
   -8.3139    4.4834  -12.2153 N   0  0  0  0  0  0  0  0  0  0  0  0
   -8.1962    4.6150  -10.8125 C   0  0  0  0  0  0  0  0  0  0  0  0
   -7.6968    5.7864  -10.2337 C   0  0  0  0  0  0  0  0  0  0  0  0
   -7.6056    5.9413   -8.8335 C   0  0  0  0  0  0  0  0  0  0  0  0
   -8.0119    4.9263   -7.9645 C   0  0  0  0  0  0  0  0  0  0  0  0
   -7.8849    5.1529   -6.2659 Cl  0  0  0  0  0  0  0  0  0  0  0  0
   -8.5316    3.7762   -8.5031 C   0  0  0  0  0  0  0  0  0  0  0  0
   -8.6344    3.6554   -9.8959 C   0  0  0  0  0  0  0  0  0  0  0  0
   -9.2677    2.3701  -10.1377 C   0  0  0  0  0  0  0  0  0  0  0  0
   -9.5071    1.9383  -11.2492 O   0  0  0  0  0  0  0  0  0  0  0  0
   -9.5136    1.7716   -8.9215 N   0  0  0  0  0  0  0  0  0  0  0  0
   -9.0638    2.5636   -7.8212 C   0  0  0  0  0  0  0  0  0  0  0  0
   -6.6372    6.3742  -14.8185 C   0  0  0  0  0  0  0  0  0  0  0  0
   -6.6641    6.3938  -16.2554 O   0  0  0  0  0  0  0  0  0  0  0  0
  1  2  1  0
  2  3  1  0
  2  4  1  0
  4  5  1  0
  5  6  1  1
  6  7  1  0
  7  8  1  0
  8  9  2  0
  9 10  1  0
 10 11  2  0
 11 12  1  0
 11 13  1  0
 13 14  2  0
 14 15  1  0
 15 16  2  0
 15 17  1  0
 17 18  1  0
  5 19  1  0
 19 20  1  0
 20  2  1  0
 14  8  1  0
 18 13  1  0
M  END
>  <energy_score>  (1695) 
-24.767018

>  <alias>  (1695) 
None

>  <HIPPO Pose ID>  (1695) 
72315

>  <smiles>  (1695) 
CC1(C)C[C@@H](CNc2ccc(Cl)c3c2C(=O)NC3)CO1

>  <inchikey>  (1695) 
FZSUYGIUMVQBSD-VIFPVBQESA-N

>  <distance_score>  (1695) 
1.769688

>  <ref_mols>  (1695) 
Z0089a,Z3515a

>  <ref_pdb>  (1695) 
Z3515a

>  <HIPPO Compound ID>  (1695) 
145068

>  <name>  (1695) 
P72315

>  <inspiration_score>  (1695) 
None

$$$$
P72317
     RDKit          3D

 20 22  0  0  0  0  0  0  0  0999 V2000
   -7.7153    4.7516  -17.7597 C   0  0  0  0  0  0  0  0  0  0  0  0
   -6.6053    5.0420  -16.7410 C   0  0  0  0  0  0  0  0  0  0  0  0
   -5.2211    4.9682  -17.4310 C   0  0  0  0  0  0  0  0  0  0  0  0
   -6.7972    4.1758  -15.4955 C   0  0  0  0  0  0  0  0  0  0  0  0
   -7.3978    5.0658  -14.4242 C   0  0  1  0  0  0  0  0  0  0  0  0
   -7.1030    4.6058  -12.9848 C   0  0  0  0  0  0  0  0  0  0  0  0
   -8.3444    4.4496  -12.2033 N   0  0  0  0  0  0  0  0  0  0  0  0
   -8.2065    4.5820  -10.8025 C   0  0  0  0  0  0  0  0  0  0  0  0
   -7.6831    5.7498  -10.2366 C   0  0  0  0  0  0  0  0  0  0  0  0
   -7.5698    5.9132   -8.8395 C   0  0  0  0  0  0  0  0  0  0  0  0
   -7.9780    4.9093   -7.9589 C   0  0  0  0  0  0  0  0  0  0  0  0
   -7.8052    5.1692   -6.0970 Br  0  0  0  0  0  0  0  0  0  0  0  0
   -8.5226    3.7623   -8.4831 C   0  0  0  0  0  0  0  0  0  0  0  0
   -8.6473    3.6338   -9.8749 C   0  0  0  0  0  0  0  0  0  0  0  0
   -9.3127    2.3597  -10.0978 C   0  0  0  0  0  0  0  0  0  0  0  0
   -9.5978    1.9254  -11.1965 O   0  0  0  0  0  0  0  0  0  0  0  0
   -9.5429    1.7705   -8.8746 N   0  0  0  0  0  0  0  0  0  0  0  0
   -9.0661    2.5610   -7.7874 C   0  0  0  0  0  0  0  0  0  0  0  0
   -6.6926    6.3463  -14.8011 C   0  0  0  0  0  0  0  0  0  0  0  0
   -6.7133    6.3817  -16.2381 O   0  0  0  0  0  0  0  0  0  0  0  0
  1  2  1  0
  2  3  1  0
  2  4  1  0
  4  5  1  0
  5  6  1  1
  6  7  1  0
  7  8  1  0
  8  9  2  0
  9 10  1  0
 10 11  2  0
 11 12  1  0
 11 13  1  0
 13 14  2  0
 14 15  1  0
 15 16  2  0
 15 17  1  0
 17 18  1  0
  5 19  1  0
 19 20  1  0
 20  2  1  0
 14  8  1  0
 18 13  1  0
M  END
>  <energy_score>  (1696) 
-22.101632

>  <alias>  (1696) 
None

>  <HIPPO Pose ID>  (1696) 
72317

>  <smiles>  (1696) 
CC1(C)C[C@@H](CNc2ccc(Br)c3c2C(=O)NC3)CO1

>  <inchikey>  (1696) 
ZQJGNOKMVRUSBE-VIFPVBQESA-N

>  <distance_score>  (1696) 
1.773022

>  <ref_mols>  (1696) 
Z3515a,Z0089a

>  <ref_pdb>  (1696) 
Z3515a

>  <HIPPO Compound ID>  (1696) 
145070

>  <name>  (1696) 
P72317

>  <inspiration_score>  (1696) 
None

$$$$
P72319
     RDKit          3D

 20 22  0  0  0  0  0  0  0  0999 V2000
   -7.7158    4.7381  -17.7519 C   0  0  0  0  0  0  0  0  0  0  0  0
   -6.5869    5.0380  -16.7581 C   0  0  0  0  0  0  0  0  0  0  0  0
   -5.2137    4.9402  -17.4675 C   0  0  0  0  0  0  0  0  0  0  0  0
   -6.7675    4.2021  -15.4859 C   0  0  0  0  0  0  0  0  0  0  0  0
   -7.2620    5.1422  -14.4018 C   0  0  1  0  0  0  0  0  0  0  0  0
   -6.8843    4.7268  -12.9700 C   0  0  0  0  0  0  0  0  0  0  0  0
   -8.0458    4.2120  -12.2164 N   0  0  0  0  0  0  0  0  0  0  0  0
   -8.1301    4.5764  -10.8596 C   0  0  0  0  0  0  0  0  0  0  0  0
   -8.0057    5.9215  -10.4717 C   0  0  0  0  0  0  0  0  0  0  0  0
   -8.1030    6.3233   -9.1298 C   0  0  0  0  0  0  0  0  0  0  0  0
   -7.9417    7.6193   -8.8291 F   0  0  0  0  0  0  0  0  0  0  0  0
   -8.3692    5.4247   -8.1160 C   0  0  0  0  0  0  0  0  0  0  0  0
   -8.5440    4.1196   -8.5021 C   0  0  0  0  0  0  0  0  0  0  0  0
   -8.4197    3.6827   -9.8290 C   0  0  0  0  0  0  0  0  0  0  0  0
   -8.6005    2.2063   -9.8170 C   0  0  0  0  0  0  0  0  0  0  0  0
   -8.9473    1.8916   -8.4486 N   0  0  0  0  0  0  0  0  0  0  0  0
   -8.8773    2.9884   -7.6362 C   0  0  0  0  0  0  0  0  0  0  0  0
   -9.0546    3.0722   -6.4374 O   0  0  0  0  0  0  0  0  0  0  0  0
   -6.5406    6.3892  -14.8571 C   0  0  0  0  0  0  0  0  0  0  0  0
   -6.6687    6.3892  -16.2868 O   0  0  0  0  0  0  0  0  0  0  0  0
  1  2  1  0
  2  3  1  0
  2  4  1  0
  4  5  1  0
  5  6  1  1
  6  7  1  0
  7  8  1  0
  8  9  2  0
  9 10  1  0
 10 11  1  0
 10 12  2  0
 12 13  1  0
 13 14  2  0
 14 15  1  0
 15 16  1  0
 16 17  1  0
 17 18  2  0
  5 19  1  0
 19 20  1  0
 20  2  1  0
 14  8  1  0
 17 13  1  0
M  END
>  <energy_score>  (1697) 
-12.999696

>  <alias>  (1697) 
None

>  <HIPPO Pose ID>  (1697) 
72319

>  <smiles>  (1697) 
CC1(C)C[C@@H](CNc2cc(F)cc3c2CNC3=O)CO1

>  <inchikey>  (1697) 
FTPRPXVLHAXXIC-VIFPVBQESA-N

>  <distance_score>  (1697) 
1.800573

>  <ref_mols>  (1697) 
Z3515a,Z0089a

>  <ref_pdb>  (1697) 
Z3515a

>  <HIPPO Compound ID>  (1697) 
145072

>  <name>  (1697) 
P72319

>  <inspiration_score>  (1697) 
None

$$$$
P72320
     RDKit          3D

 20 22  0  0  0  0  0  0  0  0999 V2000
   -9.3351    5.1999   -6.3236 C   0  0  0  0  0  0  0  0  0  0  0  0
   -8.9838    4.5341   -7.5495 N   0  0  0  0  0  0  0  0  0  0  0  0
   -8.7879    3.1043   -7.6054 C   0  0  0  0  0  0  0  0  0  0  0  0
   -8.1577    2.9620   -8.9389 C   0  0  0  0  0  0  0  0  0  0  0  0
   -7.4634    1.8943   -9.4204 C   0  0  0  0  0  0  0  0  0  0  0  0
   -6.9036    2.0080  -10.6835 C   0  0  0  0  0  0  0  0  0  0  0  0
   -7.1199    3.1352  -11.4861 C   0  0  0  0  0  0  0  0  0  0  0  0
   -7.8431    4.2311  -11.0395 C   0  0  0  0  0  0  0  0  0  0  0  0
   -8.2241    5.2677  -11.9110 N   0  0  0  0  0  0  0  0  0  0  0  0
   -7.3223    5.6746  -13.0002 C   0  0  0  0  0  0  0  0  0  0  0  0
   -7.4503    4.8494  -14.2918 C   0  0  2  0  0  0  0  0  0  0  0  0
   -6.0837    4.6105  -14.9027 C   0  0  0  0  0  0  0  0  0  0  0  0
   -6.3325    4.1414  -16.2310 O   0  0  0  0  0  0  0  0  0  0  0  0
   -7.5732    4.6951  -16.6998 C   0  0  0  0  0  0  0  0  0  0  0  0
   -8.5754    3.6065  -17.0782 C   0  0  0  0  0  0  0  0  0  0  0  0
   -7.1935    5.4365  -17.9817 C   0  0  0  0  0  0  0  0  0  0  0  0
   -8.0953    5.5180  -15.5041 C   0  0  0  0  0  0  0  0  0  0  0  0
   -8.2831    4.1183   -9.7138 C   0  0  0  0  0  0  0  0  0  0  0  0
   -8.7283    5.1535   -8.7684 C   0  0  0  0  0  0  0  0  0  0  0  0
   -8.7715    6.3438   -9.0301 O   0  0  0  0  0  0  0  0  0  0  0  0
  1  2  1  0
  2  3  1  0
  3  4  1  0
  4  5  2  0
  5  6  1  0
  6  7  2  0
  7  8  1  0
  8  9  1  0
  9 10  1  0
 11 10  1  1
 11 12  1  0
 12 13  1  0
 13 14  1  0
 14 15  1  0
 14 16  1  0
 14 17  1  0
  8 18  2  0
 18 19  1  0
 19 20  2  0
 19  2  1  0
 18  4  1  0
 17 11  1  0
M  END
>  <energy_score>  (1698) 
-11.56908

>  <alias>  (1698) 
None

>  <HIPPO Pose ID>  (1698) 
72320

>  <smiles>  (1698) 
CN1Cc2cccc(NC[C@@H]3COC(C)(C)C3)c2C1=O

>  <inchikey>  (1698) 
DANFWDANVJTRQD-LLVKDONJSA-N

>  <distance_score>  (1698) 
1.753408

>  <ref_mols>  (1698) 
Z0089a,Z3515a

>  <ref_pdb>  (1698) 
Z3515a

>  <HIPPO Compound ID>  (1698) 
145073

>  <name>  (1698) 
P72320

>  <inspiration_score>  (1698) 
None

$$$$
P72322
     RDKit          3D

 20 22  0  0  0  0  0  0  0  0999 V2000
   -9.4755    1.1608   -7.5639 C   0  0  0  0  0  0  0  0  0  0  0  0
   -9.2612    2.3924   -8.2539 N   0  0  0  0  0  0  0  0  0  0  0  0
   -8.7415    2.4556   -9.6181 C   0  0  0  0  0  0  0  0  0  0  0  0
   -8.4069    3.9035   -9.7980 C   0  0  0  0  0  0  0  0  0  0  0  0
   -8.0604    4.6809  -10.9028 C   0  0  0  0  0  0  0  0  0  0  0  0
   -7.9688    4.1777  -12.2265 N   0  0  0  0  0  0  0  0  0  0  0  0
   -7.4557    5.1205  -13.2342 C   0  0  0  0  0  0  0  0  0  0  0  0
   -7.0564    4.5624  -14.6047 C   0  0  2  0  0  0  0  0  0  0  0  0
   -6.5720    5.7284  -15.4712 C   0  0  0  0  0  0  0  0  0  0  0  0
   -7.5345    5.8822  -16.5299 O   0  0  0  0  0  0  0  0  0  0  0  0
   -8.0168    4.5700  -16.8477 C   0  0  0  0  0  0  0  0  0  0  0  0
   -9.3510    4.5215  -17.5894 C   0  0  0  0  0  0  0  0  0  0  0  0
   -6.9933    4.0163  -17.8284 C   0  0  0  0  0  0  0  0  0  0  0  0
   -8.1765    3.9713  -15.4493 C   0  0  0  0  0  0  0  0  0  0  0  0
   -7.9325    6.0679  -10.6314 C   0  0  0  0  0  0  0  0  0  0  0  0
   -8.0229    6.6290   -9.3438 C   0  0  0  0  0  0  0  0  0  0  0  0
   -8.3031    5.8291   -8.2599 C   0  0  0  0  0  0  0  0  0  0  0  0
   -8.5168    4.4985   -8.5271 C   0  0  0  0  0  0  0  0  0  0  0  0
   -9.0063    3.5367   -7.5510 C   0  0  0  0  0  0  0  0  0  0  0  0
   -9.1664    3.7913   -6.3713 O   0  0  0  0  0  0  0  0  0  0  0  0
  1  2  1  0
  2  3  1  0
  3  4  1  0
  4  5  2  0
  5  6  1  0
  6  7  1  0
  8  7  1  1
  8  9  1  0
  9 10  1  0
 10 11  1  0
 11 12  1  0
 11 13  1  0
 11 14  1  0
  5 15  1  0
 15 16  2  0
 16 17  1  0
 17 18  2  0
 18 19  1  0
 19 20  2  0
 19  2  1  0
 18  4  1  0
 14  8  1  0
M  END
>  <energy_score>  (1699) 
-7.935747

>  <alias>  (1699) 
None

>  <HIPPO Pose ID>  (1699) 
72322

>  <smiles>  (1699) 
CN1Cc2c(NC[C@@H]3COC(C)(C)C3)cccc2C1=O

>  <inchikey>  (1699) 
MSVAEVOHJFZZQH-LLVKDONJSA-N

>  <distance_score>  (1699) 
1.4038

>  <ref_mols>  (1699) 
Z0089a,Z3515a

>  <ref_pdb>  (1699) 
Z3515a

>  <HIPPO Compound ID>  (1699) 
145078

>  <name>  (1699) 
P72322

>  <inspiration_score>  (1699) 
None

$$$$
P72324
     RDKit          3D

 20 22  0  0  0  0  0  0  0  0999 V2000
   -8.9305    3.7166  -16.1773 C   0  0  0  0  0  0  0  0  0  0  0  0
   -8.1444    4.9591  -15.8420 C   0  0  2  0  0  0  0  0  0  0  0  0
   -6.8966    4.9077  -16.6643 C   0  0  0  0  0  0  0  0  0  0  0  0
   -6.8704    4.8803  -17.8850 O   0  0  0  0  0  0  0  0  0  0  0  0
   -5.7959    4.9002  -15.8625 O   0  0  0  0  0  0  0  0  0  0  0  0
   -6.1989    4.7132  -14.4976 C   0  0  0  0  0  0  0  0  0  0  0  0
   -7.6170    5.2101  -14.4291 C   0  0  2  0  0  0  0  0  0  0  0  0
   -8.5163    4.7726  -13.2759 C   0  0  0  0  0  0  0  0  0  0  0  0
   -7.8842    3.9941  -12.2138 N   0  0  0  0  0  0  0  0  0  0  0  0
   -7.9228    4.5723  -10.9254 C   0  0  0  0  0  0  0  0  0  0  0  0
   -7.3944    5.8509  -10.7042 C   0  0  0  0  0  0  0  0  0  0  0  0
   -7.3280    6.4162   -9.4157 C   0  0  0  0  0  0  0  0  0  0  0  0
   -7.7515    5.7084   -8.2955 C   0  0  0  0  0  0  0  0  0  0  0  0
   -8.2622    4.4468   -8.4939 C   0  0  0  0  0  0  0  0  0  0  0  0
   -8.3690    3.9067   -9.7811 C   0  0  0  0  0  0  0  0  0  0  0  0
   -9.0640    2.6251   -9.6218 C   0  0  0  0  0  0  0  0  0  0  0  0
   -9.4574    1.9760  -10.5723 O   0  0  0  0  0  0  0  0  0  0  0  0
   -9.2014    2.3980   -8.2649 N   0  0  0  0  0  0  0  0  0  0  0  0
   -9.7235    1.2241   -7.6335 C   0  0  0  0  0  0  0  0  0  0  0  0
   -8.7660    3.4995   -7.4671 C   0  0  0  0  0  0  0  0  0  0  0  0
  2  1  1  1
  2  3  1  0
  3  4  2  0
  3  5  1  0
  5  6  1  0
  6  7  1  0
  7  8  1  1
  8  9  1  0
  9 10  1  0
 10 11  2  0
 11 12  1  0
 12 13  2  0
 13 14  1  0
 14 15  2  0
 15 16  1  0
 16 17  2  0
 16 18  1  0
 18 19  1  0
 18 20  1  0
  7  2  1  0
 15 10  1  0
 20 14  1  0
M  END
>  <energy_score>  (1700) 
-14.513971

>  <alias>  (1700) 
None

>  <HIPPO Pose ID>  (1700) 
72324

>  <smiles>  (1700) 
C[C@@H]1C(=O)OC[C@@H]1CNc1cccc2c1C(=O)N(C)C2

>  <inchikey>  (1700) 
SRUWIRGKVLAUKN-ONGXEEELSA-N

>  <distance_score>  (1700) 
1.674383

>  <ref_mols>  (1700) 
Z3515a,Z0089a

>  <ref_pdb>  (1700) 
Z3515a

>  <HIPPO Compound ID>  (1700) 
145094

>  <name>  (1700) 
P72324

>  <inspiration_score>  (1700) 
None

$$$$
P72328
     RDKit          3D

 20 22  0  0  0  0  0  0  0  0999 V2000
   -9.1268    4.7091  -15.3543 C   0  0  0  0  0  0  0  0  0  0  0  0
   -7.6744    4.3443  -15.2879 C   0  0  1  0  0  0  0  0  0  0  0  0
   -7.0545    4.5721  -16.6363 C   0  0  0  0  0  0  0  0  0  0  0  0
   -7.5362    4.2466  -17.7092 O   0  0  0  0  0  0  0  0  0  0  0  0
   -5.8677    5.2261  -16.4906 O   0  0  0  0  0  0  0  0  0  0  0  0
   -5.5409    5.2962  -15.1029 C   0  0  0  0  0  0  0  0  0  0  0  0
   -6.8512    5.2079  -14.3357 C   0  0  2  0  0  0  0  0  0  0  0  0
   -6.6250    4.6133  -12.9272 C   0  0  0  0  0  0  0  0  0  0  0  0
   -7.5145    5.1824  -11.8906 N   0  0  0  0  0  0  0  0  0  0  0  0
   -7.9788    4.2526  -10.9352 C   0  0  0  0  0  0  0  0  0  0  0  0
   -8.7231    3.1582  -11.3464 C   0  0  0  0  0  0  0  0  0  0  0  0
   -9.3550    2.3035  -10.4298 C   0  0  0  0  0  0  0  0  0  0  0  0
   -9.2542    2.4652   -9.0626 C   0  0  0  0  0  0  0  0  0  0  0  0
   -8.5282    3.5429   -8.6625 C   0  0  0  0  0  0  0  0  0  0  0  0
   -7.9073    4.4337   -9.5596 C   0  0  0  0  0  0  0  0  0  0  0  0
   -7.2733    5.5119   -8.7533 C   0  0  0  0  0  0  0  0  0  0  0  0
   -7.5335    5.1179   -7.3758 N   0  0  0  0  0  0  0  0  0  0  0  0
   -7.2847    6.0156   -6.2784 C   0  0  0  0  0  0  0  0  0  0  0  0
   -8.3644    4.0200   -7.2917 C   0  0  0  0  0  0  0  0  0  0  0  0
   -8.9239    3.5949   -6.3001 O   0  0  0  0  0  0  0  0  0  0  0  0
  2  1  1  6
  2  3  1  0
  3  4  2  0
  3  5  1  0
  5  6  1  0
  6  7  1  0
  7  8  1  1
  8  9  1  0
  9 10  1  0
 10 11  2  0
 11 12  1  0
 12 13  2  0
 13 14  1  0
 14 15  2  0
 15 16  1  0
 16 17  1  0
 17 18  1  0
 17 19  1  0
 19 20  2  0
  7  2  1  0
 15 10  1  0
 19 14  1  0
M  END
>  <energy_score>  (1701) 
-22.246503

>  <alias>  (1701) 
None

>  <HIPPO Pose ID>  (1701) 
72328

>  <smiles>  (1701) 
C[C@H]1C(=O)OC[C@@H]1CNc1cccc2c1CN(C)C2=O

>  <inchikey>  (1701) 
ODLOQMHAAZJYKO-ZJUUUORDSA-N

>  <distance_score>  (1701) 
1.90964

>  <ref_mols>  (1701) 
Z3515a,Z0089a

>  <ref_pdb>  (1701) 
Z3515a

>  <HIPPO Compound ID>  (1701) 
145096

>  <name>  (1701) 
P72328

>  <inspiration_score>  (1701) 
None

$$$$
P72329
     RDKit          3D

 20 22  0  0  0  0  0  0  0  0999 V2000
   -7.9443    4.4774  -17.9764 C   0  0  0  0  0  0  0  0  0  0  0  0
   -6.8319    4.9533  -17.0398 C   0  0  0  0  0  0  0  0  0  0  0  0
   -5.4675    4.9976  -17.7873 C   0  0  0  0  0  0  0  0  0  0  0  0
   -6.8316    4.1738  -15.7298 C   0  0  0  0  0  0  0  0  0  0  0  0
   -6.6438    5.1362  -14.5590 C   0  0  2  0  0  0  0  0  0  0  0  0
   -5.3365    4.8679  -13.8125 C   0  0  0  0  0  0  0  0  0  0  0  0
   -7.8695    5.1610  -13.5914 C   0  0  0  0  0  0  0  0  0  0  0  0
   -7.7686    4.2331  -12.4408 N   0  0  0  0  0  0  0  0  0  0  0  0
   -8.0159    4.6387  -11.1223 C   0  0  0  0  0  0  0  0  0  0  0  0
   -7.8226    5.9646  -10.6912 C   0  0  0  0  0  0  0  0  0  0  0  0
   -8.0044    6.3784   -9.3512 C   0  0  0  0  0  0  0  0  0  0  0  0
   -8.3608    5.4697   -8.3689 C   0  0  0  0  0  0  0  0  0  0  0  0
   -8.5148    4.1667   -8.7712 C   0  0  0  0  0  0  0  0  0  0  0  0
   -8.3233    3.7405  -10.0956 C   0  0  0  0  0  0  0  0  0  0  0  0
   -8.4832    2.2617  -10.0958 C   0  0  0  0  0  0  0  0  0  0  0  0
   -8.8725    1.9329   -8.7409 N   0  0  0  0  0  0  0  0  0  0  0  0
   -8.8719    3.0267   -7.9235 C   0  0  0  0  0  0  0  0  0  0  0  0
   -9.1183    3.0975   -6.7358 O   0  0  0  0  0  0  0  0  0  0  0  0
   -6.4912    6.4467  -15.3178 C   0  0  0  0  0  0  0  0  0  0  0  0
   -7.1138    6.2675  -16.5894 O   0  0  0  0  0  0  0  0  0  0  0  0
  1  2  1  0
  2  3  1  0
  2  4  1  0
  4  5  1  0
  5  6  1  1
  5  7  1  0
  7  8  1  0
  8  9  1  0
  9 10  2  0
 10 11  1  0
 11 12  2  0
 12 13  1  0
 13 14  2  0
 14 15  1  0
 15 16  1  0
 16 17  1  0
 17 18  2  0
  5 19  1  0
 19 20  1  0
 20  2  1  0
 14  9  1  0
 17 13  1  0
M  END
>  <energy_score>  (1702) 
-24.202894

>  <alias>  (1702) 
None

>  <HIPPO Pose ID>  (1702) 
72329

>  <smiles>  (1702) 
CC1(C)C[C@](C)(CNc2cccc3c2CNC3=O)CO1

>  <inchikey>  (1702) 
ABJNPKKFEHQJMD-MRXNPFEDSA-N

>  <distance_score>  (1702) 
1.830966

>  <ref_mols>  (1702) 
Z0089a,Z3515a

>  <ref_pdb>  (1702) 
Z3515a

>  <HIPPO Compound ID>  (1702) 
145098

>  <name>  (1702) 
P72329

>  <inspiration_score>  (1702) 
None

$$$$
P72330
     RDKit          3D

 20 22  0  0  0  0  0  0  0  0999 V2000
   -7.8536    4.6041  -18.1417 C   0  0  0  0  0  0  0  0  0  0  0  0
   -6.7649    4.9574  -17.1215 C   0  0  0  0  0  0  0  0  0  0  0  0
   -5.3741    4.7090  -17.7529 C   0  0  0  0  0  0  0  0  0  0  0  0
   -7.1410    4.3946  -15.7435 C   0  0  0  0  0  0  0  0  0  0  0  0
   -6.4755    5.2860  -14.6963 C   0  0  2  0  0  0  0  0  0  0  0  0
   -5.1818    4.7008  -14.1333 C   0  0  0  0  0  0  0  0  0  0  0  0
   -7.4222    5.6895  -13.5216 C   0  0  0  0  0  0  0  0  0  0  0  0
   -7.5865    4.6648  -12.4957 N   0  0  0  0  0  0  0  0  0  0  0  0
   -7.9615    4.9101  -11.1762 C   0  0  0  0  0  0  0  0  0  0  0  0
   -7.9652    6.1731  -10.5776 C   0  0  0  0  0  0  0  0  0  0  0  0
   -8.2273    6.3575   -9.1958 C   0  0  0  0  0  0  0  0  0  0  0  0
   -8.5007    5.2821   -8.3505 C   0  0  0  0  0  0  0  0  0  0  0  0
   -8.5262    4.0314   -8.9154 C   0  0  0  0  0  0  0  0  0  0  0  0
   -8.2432    3.8763  -10.2819 C   0  0  0  0  0  0  0  0  0  0  0  0
   -8.2556    2.4495  -10.5387 C   0  0  0  0  0  0  0  0  0  0  0  0
   -8.0213    1.9661  -11.6327 O   0  0  0  0  0  0  0  0  0  0  0  0
   -8.5536    1.8168   -9.3542 N   0  0  0  0  0  0  0  0  0  0  0  0
   -8.8191    2.7154   -8.2791 C   0  0  0  0  0  0  0  0  0  0  0  0
   -6.1245    6.5123  -15.5485 C   0  0  0  0  0  0  0  0  0  0  0  0
   -6.7672    6.3532  -16.8230 O   0  0  0  0  0  0  0  0  0  0  0  0
  1  2  1  0
  2  3  1  0
  2  4  1  0
  4  5  1  0
  5  6  1  1
  5  7  1  0
  7  8  1  0
  8  9  1  0
  9 10  2  0
 10 11  1  0
 11 12  2  0
 12 13  1  0
 13 14  2  0
 14 15  1  0
 15 16  2  0
 15 17  1  0
 17 18  1  0
  5 19  1  0
 19 20  1  0
 20  2  1  0
 14  9  1  0
 18 13  1  0
M  END
>  <energy_score>  (1703) 
-25.918344

>  <alias>  (1703) 
None

>  <HIPPO Pose ID>  (1703) 
72330

>  <smiles>  (1703) 
CC1(C)C[C@](C)(CNc2cccc3c2C(=O)NC3)CO1

>  <inchikey>  (1703) 
GTRFSLAZUDFNGI-MRXNPFEDSA-N

>  <distance_score>  (1703) 
1.894897

>  <ref_mols>  (1703) 
Z0089a,Z3515a

>  <ref_pdb>  (1703) 
Z3515a

>  <HIPPO Compound ID>  (1703) 
145099

>  <name>  (1703) 
P72330

>  <inspiration_score>  (1703) 
None

$$$$
P72332
     RDKit          3D

 20 22  0  0  0  0  0  0  0  0999 V2000
   -9.5955    1.3186   -7.7718 C   0  0  0  0  0  0  0  0  0  0  0  0
   -8.5702    2.1905   -8.2870 N   0  0  0  0  0  0  0  0  0  0  0  0
   -8.5990    3.4875   -7.6294 C   0  0  0  0  0  0  0  0  0  0  0  0
   -8.2583    4.4617   -8.7029 C   0  0  0  0  0  0  0  0  0  0  0  0
   -8.0102    5.8035   -8.5381 C   0  0  0  0  0  0  0  0  0  0  0  0
   -7.7274    6.5390   -9.6753 C   0  0  0  0  0  0  0  0  0  0  0  0
   -7.6739    5.9205  -10.9393 C   0  0  0  0  0  0  0  0  0  0  0  0
   -7.9017    4.5477  -11.1289 C   0  0  0  0  0  0  0  0  0  0  0  0
   -7.9006    3.9726  -12.4094 N   0  0  0  0  0  0  0  0  0  0  0  0
   -6.9384    4.4260  -13.4452 C   0  0  0  0  0  0  0  0  0  0  0  0
   -7.6200    4.9380  -14.7348 C   0  0  1  0  0  0  0  0  0  0  0  0
   -8.5174    6.1081  -14.3586 C   0  0  0  0  0  0  0  0  0  0  0  0
   -6.6542    5.4150  -15.8171 C   0  0  0  0  0  0  0  0  0  0  0  0
   -7.5033    5.5884  -16.9704 O   0  0  0  0  0  0  0  0  0  0  0  0
   -8.3665    4.4307  -17.0203 C   0  0  0  0  0  0  0  0  0  0  0  0
   -7.7356    3.5404  -18.0652 C   0  0  0  0  0  0  0  0  0  0  0  0
   -9.7742    4.6608  -17.5640 C   0  0  0  0  0  0  0  0  0  0  0  0
   -8.4237    3.9279  -15.5613 C   0  0  0  0  0  0  0  0  0  0  0  0
   -8.2395    3.8465   -9.9665 C   0  0  0  0  0  0  0  0  0  0  0  0
   -8.6225    2.4163   -9.7451 C   0  0  0  0  0  0  0  0  0  0  0  0
  1  2  1  0
  2  3  1  0
  3  4  1  0
  4  5  2  0
  5  6  1  0
  6  7  2  0
  7  8  1  0
  8  9  1  0
  9 10  1  0
 11 10  1  0
 11 12  1  1
 11 13  1  0
 13 14  1  0
 14 15  1  0
 15 16  1  0
 15 17  1  0
 15 18  1  0
  8 19  2  0
 19 20  1  0
 20  2  1  0
 19  4  1  0
 18 11  1  0
M  END
>  <energy_score>  (1704) 
-24.649732

>  <alias>  (1704) 
None

>  <HIPPO Pose ID>  (1704) 
72332

>  <smiles>  (1704) 
CN1Cc2cccc(NC[C@@]3(C)COC(C)(C)C3)c2C1

>  <inchikey>  (1704) 
ROKVYEKJWFHPKQ-KRWDZBQOSA-N

>  <distance_score>  (1704) 
1.612174

>  <ref_mols>  (1704) 
Z0089a,Z3515a

>  <ref_pdb>  (1704) 
Z3515a

>  <HIPPO Compound ID>  (1704) 
145100

>  <name>  (1704) 
P72332

>  <inspiration_score>  (1704) 
None

$$$$
P72333
     RDKit          3D

 20 22  0  0  0  0  0  0  0  0999 V2000
   -8.5697    3.3822  -15.8476 C   0  0  0  0  0  0  0  0  0  0  0  0
   -7.8772    4.6844  -15.5306 C   0  0  0  0  0  0  0  0  0  0  0  0
   -8.9403    5.6817  -15.1585 C   0  0  0  0  0  0  0  0  0  0  0  0
   -7.1525    5.0677  -16.7987 C   0  0  0  0  0  0  0  0  0  0  0  0
   -7.6132    5.0150  -17.9283 O   0  0  0  0  0  0  0  0  0  0  0  0
   -5.8839    5.4724  -16.5283 O   0  0  0  0  0  0  0  0  0  0  0  0
   -5.6849    5.5040  -15.1213 C   0  0  0  0  0  0  0  0  0  0  0  0
   -6.7451    4.6093  -14.4917 C   0  0  1  0  0  0  0  0  0  0  0  0
   -6.9737    5.0670  -13.0380 C   0  0  0  0  0  0  0  0  0  0  0  0
   -7.8700    4.2118  -12.2436 N   0  0  0  0  0  0  0  0  0  0  0  0
   -8.0281    4.5848  -10.8827 C   0  0  0  0  0  0  0  0  0  0  0  0
   -8.0037    5.9330  -10.4687 C   0  0  0  0  0  0  0  0  0  0  0  0
   -8.1849    6.3306   -9.1260 C   0  0  0  0  0  0  0  0  0  0  0  0
   -8.4482    5.3941   -8.1408 C   0  0  0  0  0  0  0  0  0  0  0  0
   -8.5538    4.0878   -8.5511 C   0  0  0  0  0  0  0  0  0  0  0  0
   -8.3501    3.6736   -9.8762 C   0  0  0  0  0  0  0  0  0  0  0  0
   -8.5092    2.1964   -9.8925 C   0  0  0  0  0  0  0  0  0  0  0  0
   -8.8954    1.8508   -8.5432 N   0  0  0  0  0  0  0  0  0  0  0  0
   -8.8987    2.9366   -7.7147 C   0  0  0  0  0  0  0  0  0  0  0  0
   -9.1408    2.9968   -6.5258 O   0  0  0  0  0  0  0  0  0  0  0  0
  1  2  1  0
  2  3  1  0
  2  4  1  0
  4  5  2  0
  4  6  1  0
  6  7  1  0
  7  8  1  0
  8  9  1  1
  9 10  1  0
 10 11  1  0
 11 12  2  0
 12 13  1  0
 13 14  2  0
 14 15  1  0
 15 16  2  0
 16 17  1  0
 17 18  1  0
 18 19  1  0
 19 20  2  0
  8  2  1  0
 16 11  1  0
 19 15  1  0
M  END
>  <energy_score>  (1705) 
-22.337554

>  <alias>  (1705) 
None

>  <HIPPO Pose ID>  (1705) 
72333

>  <smiles>  (1705) 
CC1(C)C(=O)OC[C@H]1CNc1cccc2c1CNC2=O

>  <inchikey>  (1705) 
JUTKUTDAHNVYRK-SECBINFHSA-N

>  <distance_score>  (1705) 
1.443065

>  <ref_mols>  (1705) 
Z3515a,Z0089a

>  <ref_pdb>  (1705) 
Z3515a

>  <HIPPO Compound ID>  (1705) 
145114

>  <name>  (1705) 
P72333

>  <inspiration_score>  (1705) 
None

$$$$
P72334
     RDKit          3D

 20 22  0  0  0  0  0  0  0  0999 V2000
   -9.0722    5.8887  -14.8442 C   0  0  0  0  0  0  0  0  0  0  0  0
   -7.8911    5.0078  -15.2010 C   0  0  0  0  0  0  0  0  0  0  0  0
   -8.4049    3.6369  -15.5983 C   0  0  0  0  0  0  0  0  0  0  0  0
   -7.0949    5.4239  -16.4174 C   0  0  0  0  0  0  0  0  0  0  0  0
   -7.5187    5.5136  -17.5586 O   0  0  0  0  0  0  0  0  0  0  0  0
   -5.7790    5.5917  -16.1034 O   0  0  0  0  0  0  0  0  0  0  0  0
   -5.5421    5.0726  -14.7986 C   0  0  0  0  0  0  0  0  0  0  0  0
   -6.8605    5.1627  -14.0728 C   0  0  2  0  0  0  0  0  0  0  0  0
   -6.9258    4.2825  -12.8244 C   0  0  0  0  0  0  0  0  0  0  0  0
   -8.2246    4.3753  -12.1454 N   0  0  0  0  0  0  0  0  0  0  0  0
   -8.1515    4.5452  -10.7448 C   0  0  0  0  0  0  0  0  0  0  0  0
   -7.5953    5.7014  -10.1898 C   0  0  0  0  0  0  0  0  0  0  0  0
   -7.5072    5.8805   -8.7925 C   0  0  0  0  0  0  0  0  0  0  0  0
   -7.9574    4.9020   -7.9022 C   0  0  0  0  0  0  0  0  0  0  0  0
   -8.5179    3.7617   -8.4315 C   0  0  0  0  0  0  0  0  0  0  0  0
   -8.6249    3.6162   -9.8195 C   0  0  0  0  0  0  0  0  0  0  0  0
   -9.3047    2.3507  -10.0408 C   0  0  0  0  0  0  0  0  0  0  0  0
   -9.5880    1.9209  -11.1424 O   0  0  0  0  0  0  0  0  0  0  0  0
   -9.5453    1.7723   -8.8146 N   0  0  0  0  0  0  0  0  0  0  0  0
   -9.0894    2.5767   -7.7271 C   0  0  0  0  0  0  0  0  0  0  0  0
  1  2  1  0
  2  3  1  0
  2  4  1  0
  4  5  2  0
  4  6  1  0
  6  7  1  0
  7  8  1  0
  8  9  1  1
  9 10  1  0
 10 11  1  0
 11 12  2  0
 12 13  1  0
 13 14  2  0
 14 15  1  0
 15 16  2  0
 16 17  1  0
 17 18  2  0
 17 19  1  0
 19 20  1  0
  8  2  1  0
 16 11  1  0
 20 15  1  0
M  END
>  <energy_score>  (1706) 
-14.711729

>  <alias>  (1706) 
None

>  <HIPPO Pose ID>  (1706) 
72334

>  <smiles>  (1706) 
CC1(C)C(=O)OC[C@@H]1CNc1cccc2c1C(=O)NC2

>  <inchikey>  (1706) 
PGDDEBIATSGOHR-JTQLQIEISA-N

>  <distance_score>  (1706) 
1.549947

>  <ref_mols>  (1706) 
Z0089a,Z3515a

>  <ref_pdb>  (1706) 
Z3515a

>  <HIPPO Compound ID>  (1706) 
145115

>  <name>  (1706) 
P72334

>  <inspiration_score>  (1706) 
None

$$$$
P72336
     RDKit          3D

 20 22  0  0  0  0  0  0  0  0999 V2000
   -9.0848    5.7566   -6.3693 C   0  0  0  0  0  0  0  0  0  0  0  0
   -8.3212    5.0393   -7.3575 N   0  0  0  0  0  0  0  0  0  0  0  0
   -8.6489    3.6132   -7.4688 C   0  0  0  0  0  0  0  0  0  0  0  0
   -8.1313    3.2850   -8.8223 C   0  0  0  0  0  0  0  0  0  0  0  0
   -7.6901    2.0685   -9.2480 C   0  0  0  0  0  0  0  0  0  0  0  0
   -7.0992    2.0256  -10.4929 C   0  0  0  0  0  0  0  0  0  0  0  0
   -7.0986    3.1359  -11.3398 C   0  0  0  0  0  0  0  0  0  0  0  0
   -7.6076    4.3748  -10.9626 C   0  0  0  0  0  0  0  0  0  0  0  0
   -7.7362    5.4155  -11.9077 N   0  0  0  0  0  0  0  0  0  0  0  0
   -6.5992    5.6379  -12.8190 C   0  0  0  0  0  0  0  0  0  0  0  0
   -6.9823    6.0453  -14.2666 C   0  0  1  0  0  0  0  0  0  0  0  0
   -5.7032    6.2003  -15.0889 C   0  0  0  0  0  0  0  0  0  0  0  0
   -6.0354    5.9742  -16.4581 O   0  0  0  0  0  0  0  0  0  0  0  0
   -7.1565    5.2045  -16.5280 C   0  0  0  0  0  0  0  0  0  0  0  0
   -7.5789    4.7044  -17.5593 O   0  0  0  0  0  0  0  0  0  0  0  0
   -7.7751    5.0872  -15.1562 C   0  0  0  0  0  0  0  0  0  0  0  0
   -7.6563    3.6706  -14.7227 C   0  0  0  0  0  0  0  0  0  0  0  0
   -9.2391    5.3844  -15.2508 C   0  0  0  0  0  0  0  0  0  0  0  0
   -8.0415    4.4319   -9.6360 C   0  0  0  0  0  0  0  0  0  0  0  0
   -8.3280    5.5963   -8.7315 C   0  0  0  0  0  0  0  0  0  0  0  0
  1  2  1  0
  2  3  1  0
  3  4  1  0
  4  5  2  0
  5  6  1  0
  6  7  2  0
  7  8  1  0
  8  9  1  0
  9 10  1  0
 11 10  1  1
 11 12  1  0
 12 13  1  0
 13 14  1  0
 14 15  2  0
 14 16  1  0
 16 17  1  0
 16 18  1  0
  8 19  2  0
 19 20  1  0
 20  2  1  0
 19  4  1  0
 16 11  1  0
M  END
>  <energy_score>  (1707) 
-32.826256

>  <alias>  (1707) 
None

>  <HIPPO Pose ID>  (1707) 
72336

>  <smiles>  (1707) 
CN1Cc2cccc(NC[C@H]3COC(=O)C3(C)C)c2C1

>  <inchikey>  (1707) 
HLEZIXZMBZDRSO-LBPRGKRZSA-N

>  <distance_score>  (1707) 
1.971727

>  <ref_mols>  (1707) 
Z0089a,Z3515a

>  <ref_pdb>  (1707) 
Z3515a

>  <HIPPO Compound ID>  (1707) 
145116

>  <name>  (1707) 
P72336

>  <inspiration_score>  (1707) 
None

$$$$
P72337
     RDKit          3D

 20 23  0  0  0  0  0  0  0  0999 V2000
   -9.7601    1.8489  -11.2819 O   0  0  0  0  0  0  0  0  0  0  0  0
   -9.3891    2.3378  -10.2333 C   0  0  0  0  0  0  0  0  0  0  0  0
   -9.5916    1.8312   -8.9689 N   0  0  0  0  0  0  0  0  0  0  0  0
   -8.9892    2.6326   -7.9598 C   0  0  0  0  0  0  0  0  0  0  0  0
   -8.4333    3.7691   -8.7474 C   0  0  0  0  0  0  0  0  0  0  0  0
   -7.7979    4.8990   -8.3039 C   0  0  0  0  0  0  0  0  0  0  0  0
   -7.5066    5.2358   -6.4706 Br  0  0  0  0  0  0  0  0  0  0  0  0
   -7.3723    5.8204   -9.2558 C   0  0  0  0  0  0  0  0  0  0  0  0
   -7.5669    5.5952  -10.6412 C   0  0  0  0  0  0  0  0  0  0  0  0
   -8.2033    4.4553  -11.1451 C   0  0  0  0  0  0  0  0  0  0  0  0
   -8.4597    4.2334  -12.5013 N   0  0  0  0  0  0  0  0  0  0  0  0
   -7.7634    4.7745  -13.7062 C   0  0  2  0  0  0  0  0  0  0  0  0
   -8.1484    3.9713  -14.9606 C   0  0  2  0  0  0  0  0  0  0  0  0
   -7.8077    4.3547  -16.4075 C   0  0  0  0  0  0  0  0  0  0  0  0
   -9.1117    4.5325  -15.8621 O   0  0  0  0  0  0  0  0  0  0  0  0
   -6.2508    4.7225  -13.5755 C   0  0  0  0  0  0  0  0  0  0  0  0
   -5.7835    5.8477  -14.4693 C   0  0  0  0  0  0  0  0  0  0  0  0
   -6.8769    6.7466  -14.6864 O   0  0  0  0  0  0  0  0  0  0  0  0
   -8.0124    6.2628  -13.9411 C   0  0  0  0  0  0  0  0  0  0  0  0
   -8.6423    3.5859  -10.1287 C   0  0  0  0  0  0  0  0  0  0  0  0
  1  2  2  0
  2  3  1  0
  3  4  1  0
  4  5  1  0
  5  6  2  0
  6  7  1  0
  6  8  1  0
  8  9  2  0
  9 10  1  0
 10 11  1  0
 12 11  1  1
 12 13  1  0
 13 14  1  6
 14 15  1  0
 12 16  1  0
 16 17  1  0
 17 18  1  0
 18 19  1  0
 10 20  2  0
 20  2  1  0
 20  5  1  0
 19 12  1  0
 15 13  1  0
M  END
>  <energy_score>  (1708) 
-20.445022

>  <alias>  (1708) 
None

>  <HIPPO Pose ID>  (1708) 
72337

>  <smiles>  (1708) 
O=C1NCc2c(Br)ccc(N[C@]3([C@@H]4CO4)CCOC3)c21

>  <inchikey>  (1708) 
KVTFXCUYLRMCKI-SMDDNHRTSA-N

>  <distance_score>  (1708) 
1.996192

>  <ref_mols>  (1708) 
Z0089a,Z3515a

>  <ref_pdb>  (1708) 
Z3515a

>  <HIPPO Compound ID>  (1708) 
145117

>  <name>  (1708) 
P72337

>  <inspiration_score>  (1708) 
None

$$$$
P72340
     RDKit          3D

 20 22  0  0  0  0  0  0  0  0999 V2000
   -9.0740    4.1191  -15.9551 C   0  0  0  0  0  0  0  0  0  0  0  0
   -7.8694    5.0053  -15.7575 C   0  0  2  0  0  0  0  0  0  0  0  0
   -6.9641    4.8926  -16.9709 C   0  0  0  0  0  0  0  0  0  0  0  0
   -5.6641    5.2942  -16.5457 O   0  0  0  0  0  0  0  0  0  0  0  0
   -5.6065    5.1756  -15.1195 C   0  0  0  0  0  0  0  0  0  0  0  0
   -6.9470    4.6384  -14.6019 C   0  0  1  0  0  0  0  0  0  0  0  0
   -7.2130    5.2450  -13.2199 C   0  0  0  0  0  0  0  0  0  0  0  0
   -8.2448    4.5983  -12.3933 N   0  0  0  0  0  0  0  0  0  0  0  0
   -8.1938    4.9600  -11.0170 C   0  0  0  0  0  0  0  0  0  0  0  0
   -7.8704    6.2713  -10.6233 C   0  0  0  0  0  0  0  0  0  0  0  0
   -7.8053    6.6689   -9.2730 C   0  0  0  0  0  0  0  0  0  0  0  0
   -8.0828    5.7708   -8.2540 C   0  0  0  0  0  0  0  0  0  0  0  0
   -7.9790    6.3321   -6.4549 Br  0  0  0  0  0  0  0  0  0  0  0  0
   -8.4681    4.5015   -8.6047 C   0  0  0  0  0  0  0  0  0  0  0  0
   -8.5524    4.1211   -9.9571 C   0  0  0  0  0  0  0  0  0  0  0  0
   -9.0798    2.7561   -9.9503 C   0  0  0  0  0  0  0  0  0  0  0  0
   -9.2453    2.1130  -10.9697 O   0  0  0  0  0  0  0  0  0  0  0  0
   -9.3189    2.4069   -8.6271 N   0  0  0  0  0  0  0  0  0  0  0  0
   -9.4456    1.0571   -8.1868 C   0  0  0  0  0  0  0  0  0  0  0  0
   -8.8549    3.3893   -7.7049 C   0  0  0  0  0  0  0  0  0  0  0  0
  2  1  1  6
  2  3  1  0
  3  4  1  0
  4  5  1  0
  5  6  1  0
  6  7  1  1
  7  8  1  0
  8  9  1  0
  9 10  2  0
 10 11  1  0
 11 12  2  0
 12 13  1  0
 12 14  1  0
 14 15  2  0
 15 16  1  0
 16 17  2  0
 16 18  1  0
 18 19  1  0
 18 20  1  0
  6  2  1  0
 15  9  1  0
 20 14  1  0
M  END
>  <energy_score>  (1709) 
-23.358285

>  <alias>  (1709) 
None

>  <HIPPO Pose ID>  (1709) 
72340

>  <smiles>  (1709) 
C[C@@H]1COC[C@H]1CNc1ccc(Br)c2c1C(=O)N(C)C2

>  <inchikey>  (1709) 
VJTUTOHLAGAAFO-NXEZZACHSA-N

>  <distance_score>  (1709) 
1.546061

>  <ref_mols>  (1709) 
Z3515a,Z0089a

>  <ref_pdb>  (1709) 
Z3515a

>  <HIPPO Compound ID>  (1709) 
145122

>  <name>  (1709) 
P72340

>  <inspiration_score>  (1709) 
None

$$$$
P72343
     RDKit          3D

 21 23  0  0  0  0  0  0  0  0999 V2000
   -8.6942    6.1332  -14.7931 C   0  0  0  0  0  0  0  0  0  0  0  0
   -7.9724    4.9079  -15.3031 C   0  0  0  0  0  0  0  0  0  0  0  0
   -9.0172    3.8942  -15.7301 C   0  0  0  0  0  0  0  0  0  0  0  0
   -7.1349    5.1086  -16.5502 C   0  0  0  0  0  0  0  0  0  0  0  0
   -7.5510    5.1827  -17.6959 O   0  0  0  0  0  0  0  0  0  0  0  0
   -5.8124    5.1680  -16.2460 O   0  0  0  0  0  0  0  0  0  0  0  0
   -5.6491    5.0457  -14.8416 C   0  0  0  0  0  0  0  0  0  0  0  0
   -6.9346    4.4503  -14.2815 C   0  0  1  0  0  0  0  0  0  0  0  0
   -7.0190    4.8258  -12.7951 C   0  0  0  0  0  0  0  0  0  0  0  0
   -8.2252    4.3621  -12.1083 N   0  0  0  0  0  0  0  0  0  0  0  0
   -8.2007    4.5449  -10.7012 C   0  0  0  0  0  0  0  0  0  0  0  0
   -7.7691    5.7378  -10.1085 C   0  0  0  0  0  0  0  0  0  0  0  0
   -7.7347    5.9035   -8.7066 C   0  0  0  0  0  0  0  0  0  0  0  0
   -8.1373    4.8796   -7.8475 C   0  0  0  0  0  0  0  0  0  0  0  0
   -8.0604    5.1384   -5.9795 Br  0  0  0  0  0  0  0  0  0  0  0  0
   -8.6130    3.7163   -8.3994 C   0  0  0  0  0  0  0  0  0  0  0  0
   -8.6719    3.5932   -9.7949 C   0  0  0  0  0  0  0  0  0  0  0  0
   -9.2981    2.3111  -10.0587 C   0  0  0  0  0  0  0  0  0  0  0  0
   -9.5392    1.9029  -11.1782 O   0  0  0  0  0  0  0  0  0  0  0  0
   -9.5504    1.6963   -8.8521 N   0  0  0  0  0  0  0  0  0  0  0  0
   -9.1307    2.4846   -7.7384 C   0  0  0  0  0  0  0  0  0  0  0  0
  1  2  1  0
  2  3  1  0
  2  4  1  0
  4  5  2  0
  4  6  1  0
  6  7  1  0
  7  8  1  0
  8  9  1  1
  9 10  1  0
 10 11  1  0
 11 12  2  0
 12 13  1  0
 13 14  2  0
 14 15  1  0
 14 16  1  0
 16 17  2  0
 17 18  1  0
 18 19  2  0
 18 20  1  0
 20 21  1  0
  8  2  1  0
 17 11  1  0
 21 16  1  0
M  END
>  <energy_score>  (1710) 
-16.032308

>  <alias>  (1710) 
None

>  <HIPPO Pose ID>  (1710) 
72343

>  <smiles>  (1710) 
CC1(C)C(=O)OC[C@H]1CNc1ccc(Br)c2c1C(=O)NC2

>  <inchikey>  (1710) 
DRLAPEYDKOZFPJ-MRVPVSSYSA-N

>  <distance_score>  (1710) 
1.375329

>  <ref_mols>  (1710) 
Z0089a,Z3515a

>  <ref_pdb>  (1710) 
Z3515a

>  <HIPPO Compound ID>  (1710) 
145154

>  <name>  (1710) 
P72343

>  <inspiration_score>  (1710) 
None

$$$$
P72345
     RDKit          3D

 21 23  0  0  0  0  0  0  0  0999 V2000
   -9.0186    3.8939  -15.7328 C   0  0  0  0  0  0  0  0  0  0  0  0
   -7.9737    4.9073  -15.3051 C   0  0  0  0  0  0  0  0  0  0  0  0
   -8.6953    6.1322  -14.7938 C   0  0  0  0  0  0  0  0  0  0  0  0
   -7.1363    5.1087  -16.5522 C   0  0  0  0  0  0  0  0  0  0  0  0
   -7.5525    5.1832  -17.6978 O   0  0  0  0  0  0  0  0  0  0  0  0
   -5.8138    5.1678  -16.2482 O   0  0  0  0  0  0  0  0  0  0  0  0
   -5.6503    5.0445  -14.8440 C   0  0  0  0  0  0  0  0  0  0  0  0
   -6.9358    4.4488  -14.2840 C   0  0  1  0  0  0  0  0  0  0  0  0
   -7.0192    4.8233  -12.7974 C   0  0  0  0  0  0  0  0  0  0  0  0
   -8.2237    4.3582  -12.1083 N   0  0  0  0  0  0  0  0  0  0  0  0
   -8.1971    4.5403  -10.7014 C   0  0  0  0  0  0  0  0  0  0  0  0
   -7.7614    5.7323  -10.1094 C   0  0  0  0  0  0  0  0  0  0  0  0
   -7.7243    5.8971   -8.7076 C   0  0  0  0  0  0  0  0  0  0  0  0
   -8.1282    4.8743   -7.8482 C   0  0  0  0  0  0  0  0  0  0  0  0
   -8.0569    5.1079   -6.1476 Cl  0  0  0  0  0  0  0  0  0  0  0  0
   -8.6082    3.7138   -8.3997 C   0  0  0  0  0  0  0  0  0  0  0  0
   -8.6699    3.5899   -9.7944 C   0  0  0  0  0  0  0  0  0  0  0  0
   -9.3016    2.3094  -10.0539 C   0  0  0  0  0  0  0  0  0  0  0  0
   -9.5478    1.9004  -11.1719 O   0  0  0  0  0  0  0  0  0  0  0  0
   -9.5529    1.6982   -8.8450 N   0  0  0  0  0  0  0  0  0  0  0  0
   -9.1288    2.4879   -7.7331 C   0  0  0  0  0  0  0  0  0  0  0  0
  1  2  1  0
  2  3  1  0
  2  4  1  0
  4  5  2  0
  4  6  1  0
  6  7  1  0
  7  8  1  0
  8  9  1  1
  9 10  1  0
 10 11  1  0
 11 12  2  0
 12 13  1  0
 13 14  2  0
 14 15  1  0
 14 16  1  0
 16 17  2  0
 17 18  1  0
 18 19  2  0
 18 20  1  0
 20 21  1  0
  8  2  1  0
 17 11  1  0
 21 16  1  0
M  END
>  <energy_score>  (1711) 
-12.62185

>  <alias>  (1711) 
None

>  <HIPPO Pose ID>  (1711) 
72345

>  <smiles>  (1711) 
CC1(C)C(=O)OC[C@H]1CNc1ccc(Cl)c2c1C(=O)NC2

>  <inchikey>  (1711) 
KSKCBUZCAYEHPV-MRVPVSSYSA-N

>  <distance_score>  (1711) 
1.527076

>  <ref_mols>  (1711) 
Z0089a,Z3515a

>  <ref_pdb>  (1711) 
Z3515a

>  <HIPPO Compound ID>  (1711) 
145159

>  <name>  (1711) 
P72345

>  <inspiration_score>  (1711) 
None

$$$$
P72346
     RDKit          3D

 21 23  0  0  0  0  0  0  0  0999 V2000
   -9.4408    1.1622   -7.6519 C   0  0  0  0  0  0  0  0  0  0  0  0
   -9.2586    2.4097   -8.3231 N   0  0  0  0  0  0  0  0  0  0  0  0
   -8.7382    2.5003   -9.6837 C   0  0  0  0  0  0  0  0  0  0  0  0
   -8.4016    3.9506   -9.8389 C   0  0  0  0  0  0  0  0  0  0  0  0
   -8.0134    4.7419  -10.9210 C   0  0  0  0  0  0  0  0  0  0  0  0
   -7.8963    4.2681  -12.2586 N   0  0  0  0  0  0  0  0  0  0  0  0
   -6.9622    5.0408  -13.1004 C   0  0  0  0  0  0  0  0  0  0  0  0
   -6.7635    4.5489  -14.5429 C   0  0  2  0  0  0  0  0  0  0  0  0
   -5.6692    5.3940  -15.1863 C   0  0  0  0  0  0  0  0  0  0  0  0
   -5.8809    5.3736  -16.5903 O   0  0  0  0  0  0  0  0  0  0  0  0
   -7.1655    5.0187  -16.8508 C   0  0  0  0  0  0  0  0  0  0  0  0
   -7.6370    4.9927  -17.9767 O   0  0  0  0  0  0  0  0  0  0  0  0
   -7.8931    4.6464  -15.5812 C   0  0  0  0  0  0  0  0  0  0  0  0
   -8.6084    3.3569  -15.9030 C   0  0  0  0  0  0  0  0  0  0  0  0
   -8.9374    5.6610  -15.2050 C   0  0  0  0  0  0  0  0  0  0  0  0
   -7.8758    6.1215  -10.6250 C   0  0  0  0  0  0  0  0  0  0  0  0
   -7.9890    6.6614   -9.3300 C   0  0  0  0  0  0  0  0  0  0  0  0
   -8.2994    5.8469   -8.2653 C   0  0  0  0  0  0  0  0  0  0  0  0
   -8.5249    4.5241   -8.5592 C   0  0  0  0  0  0  0  0  0  0  0  0
   -9.0191    3.5460   -7.6018 C   0  0  0  0  0  0  0  0  0  0  0  0
   -9.1878    3.7830   -6.4200 O   0  0  0  0  0  0  0  0  0  0  0  0
  1  2  1  0
  2  3  1  0
  3  4  1  0
  4  5  2  0
  5  6  1  0
  6  7  1  0
  8  7  1  1
  8  9  1  0
  9 10  1  0
 10 11  1  0
 11 12  2  0
 11 13  1  0
 13 14  1  0
 13 15  1  0
  5 16  1  0
 16 17  2  0
 17 18  1  0
 18 19  2  0
 19 20  1  0
 20 21  2  0
 20  2  1  0
 19  4  1  0
 13  8  1  0
M  END
>  <energy_score>  (1712) 
-14.284182

>  <alias>  (1712) 
None

>  <HIPPO Pose ID>  (1712) 
72346

>  <smiles>  (1712) 
CN1Cc2c(NC[C@@H]3COC(=O)C3(C)C)cccc2C1=O

>  <inchikey>  (1712) 
PAWHWWOYUOHTEA-SNVBAGLBSA-N

>  <distance_score>  (1712) 
1.521271

>  <ref_mols>  (1712) 
Z0089a,Z3515a

>  <ref_pdb>  (1712) 
Z3515a

>  <HIPPO Compound ID>  (1712) 
145160

>  <name>  (1712) 
P72346

>  <inspiration_score>  (1712) 
None

$$$$
P72348
     RDKit          3D

 21 23  0  0  0  0  0  0  0  0999 V2000
   -8.9379    5.7631  -15.1154 C   0  0  0  0  0  0  0  0  0  0  0  0
   -7.8464    4.7812  -15.4335 C   0  0  0  0  0  0  0  0  0  0  0  0
   -8.5072    3.4460  -15.6581 C   0  0  0  0  0  0  0  0  0  0  0  0
   -7.1457    5.0898  -16.7352 C   0  0  0  0  0  0  0  0  0  0  0  0
   -7.6397    4.9994  -17.8483 O   0  0  0  0  0  0  0  0  0  0  0  0
   -5.8572    5.4562  -16.5160 O   0  0  0  0  0  0  0  0  0  0  0  0
   -5.6191    5.5626  -15.1186 C   0  0  0  0  0  0  0  0  0  0  0  0
   -6.7071    4.7731  -14.3991 C   0  0  1  0  0  0  0  0  0  0  0  0
   -6.8968    5.3845  -12.9911 C   0  0  0  0  0  0  0  0  0  0  0  0
   -7.9503    4.8102  -12.1498 N   0  0  0  0  0  0  0  0  0  0  0  0
   -7.5767    3.9536  -11.1042 C   0  0  0  0  0  0  0  0  0  0  0  0
   -6.7697    2.8529  -11.3683 C   0  0  0  0  0  0  0  0  0  0  0  0
   -6.6535    1.7863  -10.4673 C   0  0  0  0  0  0  0  0  0  0  0  0
   -7.3878    1.7514   -9.2920 C   0  0  0  0  0  0  0  0  0  0  0  0
   -8.1106    2.8605   -8.9875 C   0  0  0  0  0  0  0  0  0  0  0  0
   -8.1579    3.9570   -9.8372 C   0  0  0  0  0  0  0  0  0  0  0  0
   -8.7113    5.0359   -9.0129 C   0  0  0  0  0  0  0  0  0  0  0  0
   -8.7935    6.2113   -9.3164 O   0  0  0  0  0  0  0  0  0  0  0  0
   -9.0375    4.4946   -7.8005 N   0  0  0  0  0  0  0  0  0  0  0  0
   -8.8066    3.1640   -7.7479 C   0  0  0  0  0  0  0  0  0  0  0  0
   -9.1229    2.4071   -6.8556 O   0  0  0  0  0  0  0  0  0  0  0  0
  1  2  1  0
  2  3  1  0
  2  4  1  0
  4  5  2  0
  4  6  1  0
  6  7  1  0
  7  8  1  0
  8  9  1  1
  9 10  1  0
 10 11  1  0
 11 12  2  0
 12 13  1  0
 13 14  2  0
 14 15  1  0
 15 16  2  0
 16 17  1  0
 17 18  2  0
 17 19  1  0
 19 20  1  0
 20 21  2  0
  8  2  1  0
 16 11  1  0
 20 15  1  0
M  END
>  <energy_score>  (1713) 
-3.385039

>  <alias>  (1713) 
None

>  <HIPPO Pose ID>  (1713) 
72348

>  <smiles>  (1713) 
CC1(C)C(=O)OC[C@H]1CNc1cccc2c1C(=O)NC2=O

>  <inchikey>  (1713) 
DOUSCGDMDLHHSI-MRVPVSSYSA-N

>  <distance_score>  (1713) 
1.90681

>  <ref_mols>  (1713) 
Z0089a,Z3515a

>  <ref_pdb>  (1713) 
Z3515a

>  <HIPPO Compound ID>  (1713) 
145161

>  <name>  (1713) 
P72348

>  <inspiration_score>  (1713) 
None

$$$$
P72349
     RDKit          3D

 21 23  0  0  0  0  0  0  0  0999 V2000
   -9.2907    5.2482   -6.4724 C   0  0  0  0  0  0  0  0  0  0  0  0
   -8.9690    4.5283   -7.6764 N   0  0  0  0  0  0  0  0  0  0  0  0
   -8.7931    3.0946   -7.6749 C   0  0  0  0  0  0  0  0  0  0  0  0
   -8.1113    2.8994   -8.9755 C   0  0  0  0  0  0  0  0  0  0  0  0
   -7.4028    1.8091   -9.3807 C   0  0  0  0  0  0  0  0  0  0  0  0
   -6.7434    1.8808  -10.5979 C   0  0  0  0  0  0  0  0  0  0  0  0
   -6.8764    2.9901  -11.4394 C   0  0  0  0  0  0  0  0  0  0  0  0
   -7.6201    4.1015  -11.0762 C   0  0  0  0  0  0  0  0  0  0  0  0
   -7.8770    5.1286  -12.0019 N   0  0  0  0  0  0  0  0  0  0  0  0
   -6.7703    5.6134  -12.8401 C   0  0  0  0  0  0  0  0  0  0  0  0
   -6.6233    4.9989  -14.2527 C   0  0  2  0  0  0  0  0  0  0  0  0
   -5.6448    5.8261  -15.0755 C   0  0  0  0  0  0  0  0  0  0  0  0
   -5.9342    5.5793  -16.4496 O   0  0  0  0  0  0  0  0  0  0  0  0
   -7.2051    5.1044  -16.5682 C   0  0  0  0  0  0  0  0  0  0  0  0
   -7.7363    4.8549  -17.6396 O   0  0  0  0  0  0  0  0  0  0  0  0
   -7.8217    4.9178  -15.2015 C   0  0  0  0  0  0  0  0  0  0  0  0
   -8.4505    3.5626  -15.2127 C   0  0  0  0  0  0  0  0  0  0  0  0
   -8.9209    5.8995  -14.9090 C   0  0  0  0  0  0  0  0  0  0  0  0
   -8.1732    4.0317   -9.7901 C   0  0  0  0  0  0  0  0  0  0  0  0
   -8.6693    5.1005   -8.9088 C   0  0  0  0  0  0  0  0  0  0  0  0
   -8.7050    6.2782   -9.2229 O   0  0  0  0  0  0  0  0  0  0  0  0
  1  2  1  0
  2  3  1  0
  3  4  1  0
  4  5  2  0
  5  6  1  0
  6  7  2  0
  7  8  1  0
  8  9  1  0
  9 10  1  0
 11 10  1  1
 11 12  1  0
 12 13  1  0
 13 14  1  0
 14 15  2  0
 14 16  1  0
 16 17  1  0
 16 18  1  0
  8 19  2  0
 19 20  1  0
 20 21  2  0
 20  2  1  0
 19  4  1  0
 16 11  1  0
M  END
>  <energy_score>  (1714) 
-16.692673

>  <alias>  (1714) 
None

>  <HIPPO Pose ID>  (1714) 
72349

>  <smiles>  (1714) 
CN1Cc2cccc(NC[C@@H]3COC(=O)C3(C)C)c2C1=O

>  <inchikey>  (1714) 
WPLIOLXHBNNBRP-LLVKDONJSA-N

>  <distance_score>  (1714) 
1.914511

>  <ref_mols>  (1714) 
Z3515a,Z0089a

>  <ref_pdb>  (1714) 
Z3515a

>  <HIPPO Compound ID>  (1714) 
145162

>  <name>  (1714) 
P72349

>  <inspiration_score>  (1714) 
None

$$$$
P72352
     RDKit          3D

 21 23  0  0  0  0  0  0  0  0999 V2000
   -8.5938    6.1507  -14.7482 C   0  0  0  0  0  0  0  0  0  0  0  0
   -7.8914    4.9199  -15.2796 C   0  0  0  0  0  0  0  0  0  0  0  0
   -8.9571    3.9010  -15.6247 C   0  0  0  0  0  0  0  0  0  0  0  0
   -7.1181    5.1166  -16.5682 C   0  0  0  0  0  0  0  0  0  0  0  0
   -7.5822    5.1211  -17.6973 O   0  0  0  0  0  0  0  0  0  0  0  0
   -5.7899    5.2649  -16.3149 O   0  0  0  0  0  0  0  0  0  0  0  0
   -5.5655    5.1658  -14.9150 C   0  0  0  0  0  0  0  0  0  0  0  0
   -6.7883    4.4824  -14.3177 C   0  0  1  0  0  0  0  0  0  0  0  0
   -6.8506    4.8003  -12.8186 C   0  0  0  0  0  0  0  0  0  0  0  0
   -7.9653    4.1523  -12.1116 N   0  0  0  0  0  0  0  0  0  0  0  0
   -8.0996    4.5273  -10.7527 C   0  0  0  0  0  0  0  0  0  0  0  0
   -8.0190    5.8735  -10.3533 C   0  0  0  0  0  0  0  0  0  0  0  0
   -8.1529    6.2658   -9.0112 C   0  0  0  0  0  0  0  0  0  0  0  0
   -8.0213    7.5629   -8.7011 F   0  0  0  0  0  0  0  0  0  0  0  0
   -8.4266    5.3582   -8.0091 C   0  0  0  0  0  0  0  0  0  0  0  0
   -8.5797    4.0552   -8.4093 C   0  0  0  0  0  0  0  0  0  0  0  0
   -8.4166    3.6283   -9.7354 C   0  0  0  0  0  0  0  0  0  0  0  0
   -8.5915    2.1519   -9.7380 C   0  0  0  0  0  0  0  0  0  0  0  0
   -8.9683    1.8252   -8.3812 N   0  0  0  0  0  0  0  0  0  0  0  0
   -8.9257    2.9160   -7.5598 C   0  0  0  0  0  0  0  0  0  0  0  0
   -9.1317    2.9912   -6.3652 O   0  0  0  0  0  0  0  0  0  0  0  0
  1  2  1  0
  2  3  1  0
  2  4  1  0
  4  5  2  0
  4  6  1  0
  6  7  1  0
  7  8  1  0
  8  9  1  1
  9 10  1  0
 10 11  1  0
 11 12  2  0
 12 13  1  0
 13 14  1  0
 13 15  2  0
 15 16  1  0
 16 17  2  0
 17 18  1  0
 18 19  1  0
 19 20  1  0
 20 21  2  0
  8  2  1  0
 17 11  1  0
 20 16  1  0
M  END
>  <energy_score>  (1715) 
-32.796777

>  <alias>  (1715) 
None

>  <HIPPO Pose ID>  (1715) 
72352

>  <smiles>  (1715) 
CC1(C)C(=O)OC[C@H]1CNc1cc(F)cc2c1CNC2=O

>  <inchikey>  (1715) 
BQGWRVMHGVXPOY-MRVPVSSYSA-N

>  <distance_score>  (1715) 
1.492144

>  <ref_mols>  (1715) 
Z0089a,Z3515a

>  <ref_pdb>  (1715) 
Z3515a

>  <HIPPO Compound ID>  (1715) 
145163

>  <name>  (1715) 
P72352

>  <inspiration_score>  (1715) 
None

$$$$
P72353
     RDKit          3D

 21 23  0  0  0  0  0  0  0  0999 V2000
   -9.1883    5.2840   -6.6560 C   0  0  0  0  0  0  0  0  0  0  0  0
   -8.9297    4.5888   -7.8902 N   0  0  0  0  0  0  0  0  0  0  0  0
   -8.6847    3.1672   -7.9150 C   0  0  0  0  0  0  0  0  0  0  0  0
   -8.0123    3.0257   -9.2287 C   0  0  0  0  0  0  0  0  0  0  0  0
   -7.2331    1.9878   -9.6454 C   0  0  0  0  0  0  0  0  0  0  0  0
   -6.5906    2.1266  -10.8644 C   0  0  0  0  0  0  0  0  0  0  0  0
   -6.7990    3.2456  -11.6900 C   0  0  0  0  0  0  0  0  0  0  0  0
   -7.6404    4.2909  -11.3332 C   0  0  0  0  0  0  0  0  0  0  0  0
   -8.0368    5.2714  -12.2622 N   0  0  0  0  0  0  0  0  0  0  0  0
   -7.1480    5.7196  -13.3765 C   0  0  0  0  0  0  0  0  0  0  0  0
   -7.5115    5.2840  -14.8722 C   0  0  2  0  0  0  0  0  0  0  0  0
   -6.6656    5.9809  -15.9438 N   0  0  0  0  0  0  0  0  0  0  0  0
   -5.2393    5.9749  -15.6194 C   0  0  0  0  0  0  0  0  0  0  0  0
   -6.7501    5.4706  -17.3396 C   0  0  0  0  0  0  0  0  0  0  0  0
   -8.9997    5.3853  -15.1665 C   0  0  0  0  0  0  0  0  0  0  0  0
   -9.2866    4.2895  -16.1852 C   0  0  0  0  0  0  0  0  0  0  0  0
   -8.1617    3.4250  -16.1830 O   0  0  0  0  0  0  0  0  0  0  0  0
   -7.4181    3.7909  -15.0112 C   0  0  0  0  0  0  0  0  0  0  0  0
   -8.1675    4.1614  -10.0367 C   0  0  0  0  0  0  0  0  0  0  0  0
   -8.6914    5.1922   -9.1228 C   0  0  0  0  0  0  0  0  0  0  0  0
   -8.7809    6.3739   -9.4101 O   0  0  0  0  0  0  0  0  0  0  0  0
  1  2  1  0
  2  3  1  0
  3  4  1  0
  4  5  2  0
  5  6  1  0
  6  7  2  0
  7  8  1  0
  8  9  1  0
  9 10  1  0
 11 10  1  1
 11 12  1  0
 12 13  1  0
 12 14  1  0
 11 15  1  0
 15 16  1  0
 16 17  1  0
 17 18  1  0
  8 19  2  0
 19 20  1  0
 20 21  2  0
 20  2  1  0
 19  4  1  0
 18 11  1  0
M  END
>  <energy_score>  (1716) 
-25.100232

>  <alias>  (1716) 
None

>  <HIPPO Pose ID>  (1716) 
72353

>  <smiles>  (1716) 
CN1Cc2cccc(NC[C@]3(N(C)C)CCOC3)c2C1=O

>  <inchikey>  (1716) 
LAGRLFDLSICGDS-MRXNPFEDSA-N

>  <distance_score>  (1716) 
1.998032

>  <ref_mols>  (1716) 
Z3515a,Z0089a

>  <ref_pdb>  (1716) 
Z3515a

>  <HIPPO Compound ID>  (1716) 
145171

>  <name>  (1716) 
P72353

>  <inspiration_score>  (1716) 
None

$$$$
P72354
     RDKit          3D

 21 23  0  0  0  0  0  0  0  0999 V2000
   -9.2632    5.3399   -6.4148 C   0  0  0  0  0  0  0  0  0  0  0  0
   -8.9456    4.6102   -7.6135 N   0  0  0  0  0  0  0  0  0  0  0  0
   -8.7983    3.1738   -7.6099 C   0  0  0  0  0  0  0  0  0  0  0  0
   -8.1751    2.9572   -8.9364 C   0  0  0  0  0  0  0  0  0  0  0  0
   -7.5070    1.8481   -9.3609 C   0  0  0  0  0  0  0  0  0  0  0  0
   -6.9141    1.8901  -10.6136 C   0  0  0  0  0  0  0  0  0  0  0  0
   -7.0817    2.9844  -11.4637 C   0  0  0  0  0  0  0  0  0  0  0  0
   -7.7564    4.1289  -11.0632 C   0  0  0  0  0  0  0  0  0  0  0  0
   -7.9589    5.1785  -11.9881 N   0  0  0  0  0  0  0  0  0  0  0  0
   -6.7580    5.5595  -12.7529 C   0  0  0  0  0  0  0  0  0  0  0  0
   -6.7222    5.2030  -14.2716 C   0  0  2  0  0  0  0  0  0  0  0  0
   -5.2899    4.7737  -14.6209 C   0  0  0  0  0  0  0  0  0  0  0  0
   -7.0249    6.4335  -15.0939 C   0  0  0  0  0  0  0  0  0  0  0  0
   -7.3630    6.0052  -16.4110 O   0  0  0  0  0  0  0  0  0  0  0  0
   -7.9642    4.7077  -16.3328 C   0  0  0  0  0  0  0  0  0  0  0  0
   -7.3411    3.9110  -17.4576 C   0  0  0  0  0  0  0  0  0  0  0  0
   -9.4444    4.7416  -16.6652 C   0  0  0  0  0  0  0  0  0  0  0  0
   -7.7805    4.2712  -14.8641 C   0  0  0  0  0  0  0  0  0  0  0  0
   -8.2461    4.0884   -9.7539 C   0  0  0  0  0  0  0  0  0  0  0  0
   -8.6787    5.1717   -8.8584 C   0  0  0  0  0  0  0  0  0  0  0  0
   -8.7037    6.3489   -9.1740 O   0  0  0  0  0  0  0  0  0  0  0  0
  1  2  1  0
  2  3  1  0
  3  4  1  0
  4  5  2  0
  5  6  1  0
  6  7  2  0
  7  8  1  0
  8  9  1  0
  9 10  1  0
 11 10  1  0
 11 12  1  6
 11 13  1  0
 13 14  1  0
 14 15  1  0
 15 16  1  0
 15 17  1  0
 15 18  1  0
  8 19  2  0
 19 20  1  0
 20 21  2  0
 20  2  1  0
 19  4  1  0
 18 11  1  0
M  END
>  <energy_score>  (1717) 
-11.738344

>  <alias>  (1717) 
None

>  <HIPPO Pose ID>  (1717) 
72354

>  <smiles>  (1717) 
CN1Cc2cccc(NC[C@]3(C)COC(C)(C)C3)c2C1=O

>  <inchikey>  (1717) 
VCKGGTNNCABXPZ-QGZVFWFLSA-N

>  <distance_score>  (1717) 
1.886138

>  <ref_mols>  (1717) 
Z0089a,Z3515a

>  <ref_pdb>  (1717) 
Z3515a

>  <HIPPO Compound ID>  (1717) 
145215

>  <name>  (1717) 
P72354

>  <inspiration_score>  (1717) 
None

$$$$
P72356
     RDKit          3D

 21 23  0  0  0  0  0  0  0  0999 V2000
   -7.9754    4.5524  -18.0780 C   0  0  0  0  0  0  0  0  0  0  0  0
   -6.9014    4.8925  -17.0373 C   0  0  0  0  0  0  0  0  0  0  0  0
   -5.5034    4.6867  -17.6701 C   0  0  0  0  0  0  0  0  0  0  0  0
   -7.2931    4.3004  -15.6757 C   0  0  0  0  0  0  0  0  0  0  0  0
   -6.6218    5.1496  -14.6004 C   0  0  2  0  0  0  0  0  0  0  0  0
   -5.2978    4.5912  -14.0849 C   0  0  0  0  0  0  0  0  0  0  0  0
   -7.5452    5.4802  -13.3850 C   0  0  0  0  0  0  0  0  0  0  0  0
   -7.6694    4.4186  -12.3607 N   0  0  0  0  0  0  0  0  0  0  0  0
   -8.0014    4.7272  -11.0293 C   0  0  0  0  0  0  0  0  0  0  0  0
   -7.8911    6.0245  -10.4961 C   0  0  0  0  0  0  0  0  0  0  0  0
   -8.1017    6.3129   -9.1330 C   0  0  0  0  0  0  0  0  0  0  0  0
   -7.9598    7.5780   -8.7132 F   0  0  0  0  0  0  0  0  0  0  0  0
   -8.4357    5.3375   -8.2199 C   0  0  0  0  0  0  0  0  0  0  0  0
   -8.5455    4.0704   -8.7270 C   0  0  0  0  0  0  0  0  0  0  0  0
   -8.3079    3.7489  -10.0776 C   0  0  0  0  0  0  0  0  0  0  0  0
   -8.4217    2.2707  -10.1893 C   0  0  0  0  0  0  0  0  0  0  0  0
   -8.8278    1.8374   -8.8689 N   0  0  0  0  0  0  0  0  0  0  0  0
   -8.8940    2.8650   -7.9758 C   0  0  0  0  0  0  0  0  0  0  0  0
   -9.1883    2.8434   -6.7982 O   0  0  0  0  0  0  0  0  0  0  0  0
   -6.3224    6.4222  -15.4095 C   0  0  0  0  0  0  0  0  0  0  0  0
   -6.9325    6.2784  -16.7014 O   0  0  0  0  0  0  0  0  0  0  0  0
  1  2  1  0
  2  3  1  0
  2  4  1  0
  4  5  1  0
  5  6  1  1
  5  7  1  0
  7  8  1  0
  8  9  1  0
  9 10  2  0
 10 11  1  0
 11 12  1  0
 11 13  2  0
 13 14  1  0
 14 15  2  0
 15 16  1  0
 16 17  1  0
 17 18  1  0
 18 19  2  0
  5 20  1  0
 20 21  1  0
 21  2  1  0
 15  9  1  0
 18 14  1  0
M  END
>  <energy_score>  (1718) 
-22.920374

>  <alias>  (1718) 
None

>  <HIPPO Pose ID>  (1718) 
72356

>  <smiles>  (1718) 
CC1(C)C[C@](C)(CNc2cc(F)cc3c2CNC3=O)CO1

>  <inchikey>  (1718) 
NIZCTZDNWNABCK-MRXNPFEDSA-N

>  <distance_score>  (1718) 
1.854153

>  <ref_mols>  (1718) 
Z0089a,Z3515a

>  <ref_pdb>  (1718) 
Z3515a

>  <HIPPO Compound ID>  (1718) 
145216

>  <name>  (1718) 
P72356

>  <inspiration_score>  (1718) 
None

$$$$
P72358
     RDKit          3D

 21 23  0  0  0  0  0  0  0  0999 V2000
   -7.7098    4.5221  -17.8168 C   0  0  0  0  0  0  0  0  0  0  0  0
   -6.6159    4.9150  -16.8104 C   0  0  0  0  0  0  0  0  0  0  0  0
   -5.2214    4.8676  -17.4770 C   0  0  0  0  0  0  0  0  0  0  0  0
   -6.8100    4.1649  -15.4723 C   0  0  0  0  0  0  0  0  0  0  0  0
   -6.9650    5.1895  -14.3604 C   0  0  2  0  0  0  0  0  0  0  0  0
   -5.5894    5.5183  -13.7716 C   0  0  0  0  0  0  0  0  0  0  0  0
   -8.0442    4.9360  -13.2767 C   0  0  0  0  0  0  0  0  0  0  0  0
   -7.7128    3.9523  -12.2456 N   0  0  0  0  0  0  0  0  0  0  0  0
   -7.8715    4.3333  -10.8934 C   0  0  0  0  0  0  0  0  0  0  0  0
   -7.3147    5.5090  -10.3817 C   0  0  0  0  0  0  0  0  0  0  0  0
   -7.3456    5.8090   -9.0004 C   0  0  0  0  0  0  0  0  0  0  0  0
   -7.8958    4.9178   -8.0758 C   0  0  0  0  0  0  0  0  0  0  0  0
   -7.8769    5.3414   -6.2368 Br  0  0  0  0  0  0  0  0  0  0  0  0
   -8.4469    3.7522   -8.5447 C   0  0  0  0  0  0  0  0  0  0  0  0
   -8.4545    3.5082   -9.9261 C   0  0  0  0  0  0  0  0  0  0  0  0
   -9.2444    2.3023  -10.1092 C   0  0  0  0  0  0  0  0  0  0  0  0
   -9.5925    1.8866  -11.1976 O   0  0  0  0  0  0  0  0  0  0  0  0
   -9.5565    1.7999   -8.8681 N   0  0  0  0  0  0  0  0  0  0  0  0
   -9.0881    2.6269   -7.8044 C   0  0  0  0  0  0  0  0  0  0  0  0
   -7.4438    6.3414  -15.1968 C   0  0  0  0  0  0  0  0  0  0  0  0
   -6.7845    6.2872  -16.4540 O   0  0  0  0  0  0  0  0  0  0  0  0
  1  2  1  0
  2  3  1  0
  2  4  1  0
  4  5  1  0
  5  6  1  1
  5  7  1  0
  7  8  1  0
  8  9  1  0
  9 10  2  0
 10 11  1  0
 11 12  2  0
 12 13  1  0
 12 14  1  0
 14 15  2  0
 15 16  1  0
 16 17  2  0
 16 18  1  0
 18 19  1  0
  5 20  1  0
 20 21  1  0
 21  2  1  0
 15  9  1  0
 19 14  1  0
M  END
>  <energy_score>  (1719) 
-17.81485

>  <alias>  (1719) 
None

>  <HIPPO Pose ID>  (1719) 
72358

>  <smiles>  (1719) 
CC1(C)C[C@](C)(CNc2ccc(Br)c3c2C(=O)NC3)CO1

>  <inchikey>  (1719) 
IOIKNUPEBHTYFV-MRXNPFEDSA-N

>  <distance_score>  (1719) 
1.905454

>  <ref_mols>  (1719) 
Z3515a,Z0089a

>  <ref_pdb>  (1719) 
Z3515a

>  <HIPPO Compound ID>  (1719) 
145218

>  <name>  (1719) 
P72358

>  <inspiration_score>  (1719) 
None

$$$$
P72361
     RDKit          3D

 21 23  0  0  0  0  0  0  0  0999 V2000
   -9.2482    3.9285  -16.5535 C   0  0  0  0  0  0  0  0  0  0  0  0
   -8.1744    4.8141  -15.9589 C   0  0  2  0  0  0  0  0  0  0  0  0
   -6.9774    4.7573  -16.8545 C   0  0  0  0  0  0  0  0  0  0  0  0
   -7.0115    4.6859  -18.0723 O   0  0  0  0  0  0  0  0  0  0  0  0
   -5.8383    4.8452  -16.1147 O   0  0  0  0  0  0  0  0  0  0  0  0
   -6.1746    4.8450  -14.7216 C   0  0  0  0  0  0  0  0  0  0  0  0
   -7.6024    4.3441  -14.6317 C   0  0  1  0  0  0  0  0  0  0  0  0
   -8.3335    4.8542  -13.3919 C   0  0  0  0  0  0  0  0  0  0  0  0
   -8.0197    4.0452  -12.2154 N   0  0  0  0  0  0  0  0  0  0  0  0
   -8.0486    4.6172  -10.9351 C   0  0  0  0  0  0  0  0  0  0  0  0
   -7.5073    5.8855  -10.6874 C   0  0  0  0  0  0  0  0  0  0  0  0
   -7.4207    6.4256   -9.3887 C   0  0  0  0  0  0  0  0  0  0  0  0
   -7.8281    5.6922   -8.2812 C   0  0  0  0  0  0  0  0  0  0  0  0
   -7.6761    6.4395   -6.5544 Br  0  0  0  0  0  0  0  0  0  0  0  0
   -8.3331    4.4334   -8.4881 C   0  0  0  0  0  0  0  0  0  0  0  0
   -8.4577    3.9236   -9.7890 C   0  0  0  0  0  0  0  0  0  0  0  0
   -9.1309    2.6257   -9.6483 C   0  0  0  0  0  0  0  0  0  0  0  0
   -9.5261    1.9872  -10.6060 O   0  0  0  0  0  0  0  0  0  0  0  0
   -9.2556    2.3752   -8.2951 N   0  0  0  0  0  0  0  0  0  0  0  0
   -9.7305    1.1773   -7.6743 C   0  0  0  0  0  0  0  0  0  0  0  0
   -8.8093    3.4566   -7.4791 C   0  0  0  0  0  0  0  0  0  0  0  0
  2  1  1  6
  2  3  1  0
  3  4  2  0
  3  5  1  0
  5  6  1  0
  6  7  1  0
  7  8  1  1
  8  9  1  0
  9 10  1  0
 10 11  2  0
 11 12  1  0
 12 13  2  0
 13 14  1  0
 13 15  1  0
 15 16  2  0
 16 17  1  0
 17 18  2  0
 17 19  1  0
 19 20  1  0
 19 21  1  0
  7  2  1  0
 16 10  1  0
 21 15  1  0
M  END
>  <energy_score>  (1720) 
-24.009313

>  <alias>  (1720) 
None

>  <HIPPO Pose ID>  (1720) 
72361

>  <smiles>  (1720) 
C[C@@H]1C(=O)OC[C@H]1CNc1ccc(Br)c2c1C(=O)N(C)C2

>  <inchikey>  (1720) 
ANZYQVZZQSSVMG-DTWKUNHWSA-N

>  <distance_score>  (1720) 
1.561768

>  <ref_mols>  (1720) 
Z0089a,Z3515a

>  <ref_pdb>  (1720) 
Z3515a

>  <HIPPO Compound ID>  (1720) 
145227

>  <name>  (1720) 
P72361

>  <inspiration_score>  (1720) 
None

$$$$
P72362
     RDKit          3D

 21 23  0  0  0  0  0  0  0  0999 V2000
   -9.3264    4.3370  -16.4725 C   0  0  0  0  0  0  0  0  0  0  0  0
   -7.9568    4.2431  -15.8558 C   0  0  1  0  0  0  0  0  0  0  0  0
   -6.9035    4.6979  -16.8112 C   0  0  0  0  0  0  0  0  0  0  0  0
   -6.9248    4.5417  -18.0209 O   0  0  0  0  0  0  0  0  0  0  0  0
   -5.8961    5.3071  -16.1190 O   0  0  0  0  0  0  0  0  0  0  0  0
   -6.1767    5.2219  -14.7120 C   0  0  0  0  0  0  0  0  0  0  0  0
   -7.6831    5.0983  -14.6173 C   0  0  2  0  0  0  0  0  0  0  0  0
   -8.2047    4.4456  -13.3385 C   0  0  0  0  0  0  0  0  0  0  0  0
   -7.6919    5.0339  -12.0839 N   0  0  0  0  0  0  0  0  0  0  0  0
   -7.6254    4.0763  -11.0405 C   0  0  0  0  0  0  0  0  0  0  0  0
   -6.9161    2.8956  -11.2481 C   0  0  0  0  0  0  0  0  0  0  0  0
   -6.9238    1.8498  -10.3177 C   0  0  0  0  0  0  0  0  0  0  0  0
   -7.6456    1.9310   -9.1387 C   0  0  0  0  0  0  0  0  0  0  0  0
   -8.1963    3.1423   -8.8590 C   0  0  0  0  0  0  0  0  0  0  0  0
   -8.1457    4.2043   -9.7561 C   0  0  0  0  0  0  0  0  0  0  0  0
   -8.5720    5.3704   -8.9856 C   0  0  0  0  0  0  0  0  0  0  0  0
   -8.6424    6.4966   -9.4462 O   0  0  0  0  0  0  0  0  0  0  0  0
   -8.8153    4.9492   -7.7029 N   0  0  0  0  0  0  0  0  0  0  0  0
   -9.1093    5.8119   -6.5896 C   0  0  0  0  0  0  0  0  0  0  0  0
   -8.7177    3.5979   -7.5812 C   0  0  0  0  0  0  0  0  0  0  0  0
   -8.9701    2.9222   -6.6052 O   0  0  0  0  0  0  0  0  0  0  0  0
  2  1  1  6
  2  3  1  0
  3  4  2  0
  3  5  1  0
  5  6  1  0
  6  7  1  0
  7  8  1  1
  8  9  1  0
  9 10  1  0
 10 11  2  0
 11 12  1  0
 12 13  2  0
 13 14  1  0
 14 15  2  0
 15 16  1  0
 16 17  2  0
 16 18  1  0
 18 19  1  0
 18 20  1  0
 20 21  2  0
  7  2  1  0
 15 10  1  0
 20 14  1  0
M  END
>  <energy_score>  (1721) 
-13.995486

>  <alias>  (1721) 
None

>  <HIPPO Pose ID>  (1721) 
72362

>  <smiles>  (1721) 
C[C@H]1C(=O)OC[C@@H]1CNc1cccc2c1C(=O)N(C)C2=O

>  <inchikey>  (1721) 
LDGCSFIGMHZTBK-BDAKNGLRSA-N

>  <distance_score>  (1721) 
1.973034

>  <ref_mols>  (1721) 
Z3515a,Z0089a

>  <ref_pdb>  (1721) 
Z3515a

>  <HIPPO Compound ID>  (1721) 
145230

>  <name>  (1721) 
P72362

>  <inspiration_score>  (1721) 
None

$$$$
P72363
     RDKit          3D

 21 24  0  0  0  0  0  0  0  0999 V2000
   -4.7254    5.8360  -17.4621 C   0  0  0  0  0  0  0  0  0  0  0  0
   -5.5417    5.3287  -16.2816 C   0  0  1  0  0  0  0  0  0  0  0  0
   -6.8397    4.5898  -16.6511 C   0  0  0  0  0  0  0  0  0  0  0  0
   -7.5782    4.4984  -15.3035 C   0  0  0  0  0  0  0  0  0  0  0  0
   -6.6214    5.2166  -14.3325 C   0  0  1  0  0  0  0  0  0  0  0  0
   -7.2299    5.6489  -13.0060 C   0  0  0  0  0  0  0  0  0  0  0  0
   -7.7818    4.5529  -12.1847 N   0  0  0  0  0  0  0  0  0  0  0  0
   -7.9797    4.7739  -10.8093 C   0  0  0  0  0  0  0  0  0  0  0  0
   -7.9893    6.0660  -10.2528 C   0  0  0  0  0  0  0  0  0  0  0  0
   -8.1964    6.2966   -8.8813 C   0  0  0  0  0  0  0  0  0  0  0  0
   -8.1346    7.5538   -8.4211 F   0  0  0  0  0  0  0  0  0  0  0  0
   -8.4733    5.2725   -8.0011 C   0  0  0  0  0  0  0  0  0  0  0  0
   -8.5505    4.0206   -8.5538 C   0  0  0  0  0  0  0  0  0  0  0  0
   -8.3013    3.7535   -9.9119 C   0  0  0  0  0  0  0  0  0  0  0  0
   -8.4350    2.2833  -10.0950 C   0  0  0  0  0  0  0  0  0  0  0  0
   -8.8377    1.7962   -8.7927 N   0  0  0  0  0  0  0  0  0  0  0  0
   -8.9061    2.7851   -7.8571 C   0  0  0  0  0  0  0  0  0  0  0  0
   -9.2116    2.7173   -6.6840 O   0  0  0  0  0  0  0  0  0  0  0  0
   -5.3226    4.4499  -14.1578 C   0  0  0  0  0  0  0  0  0  0  0  0
   -4.7109    4.4750  -15.4634 O   0  0  0  0  0  0  0  0  0  0  0  0
   -6.0536    6.3172  -15.2464 C   0  0  0  0  0  0  0  0  0  0  0  0
  2  1  1  6
  2  3  1  0
  3  4  1  0
  4  5  1  0
  5  6  1  1
  6  7  1  0
  7  8  1  0
  8  9  2  0
  9 10  1  0
 10 11  1  0
 10 12  2  0
 12 13  1  0
 13 14  2  0
 14 15  1  0
 15 16  1  0
 16 17  1  0
 17 18  2  0
  5 19  1  0
 19 20  1  0
  5 21  1  0
 20  2  1  0
 21  2  1  0
 14  8  1  0
 17 13  1  0
M  END
>  <energy_score>  (1722) 
-24.634522

>  <alias>  (1722) 
None

>  <HIPPO Pose ID>  (1722) 
72363

>  <smiles>  (1722) 
C[C@@]12CC[C@@](CNc3cc(F)cc4c3CNC4=O)(CO1)C2

>  <inchikey>  (1722) 
MXOOGBAGCTVSAN-JKSUJKDBSA-N

>  <distance_score>  (1722) 
1.810038

>  <ref_mols>  (1722) 
Z0089a,Z3515a

>  <ref_pdb>  (1722) 
Z3515a

>  <HIPPO Compound ID>  (1722) 
145233

>  <name>  (1722) 
P72363

>  <inspiration_score>  (1722) 
None

$$$$
P72364
     RDKit          3D

 21 23  0  0  0  0  0  0  0  0999 V2000
   -9.7622    1.1935   -7.6204 C   0  0  0  0  0  0  0  0  0  0  0  0
   -9.2369    2.3777   -8.2270 N   0  0  0  0  0  0  0  0  0  0  0  0
   -8.8184    3.4649   -7.4045 C   0  0  0  0  0  0  0  0  0  0  0  0
   -8.2459    4.4054   -8.3982 C   0  0  0  0  0  0  0  0  0  0  0  0
   -7.7192    5.6529   -8.1850 C   0  0  0  0  0  0  0  0  0  0  0  0
   -7.6839    6.4472   -6.4732 Br  0  0  0  0  0  0  0  0  0  0  0  0
   -7.2124    6.3431   -9.2783 C   0  0  0  0  0  0  0  0  0  0  0  0
   -7.1934    5.7577  -10.5611 C   0  0  0  0  0  0  0  0  0  0  0  0
   -7.7025    4.4785  -10.8096 C   0  0  0  0  0  0  0  0  0  0  0  0
   -7.6393    3.8767  -12.0523 N   0  0  0  0  0  0  0  0  0  0  0  0
   -6.8477    4.3043  -13.2184 C   0  0  0  0  0  0  0  0  0  0  0  0
   -7.7015    4.1819  -14.4909 C   0  0  1  0  0  0  0  0  0  0  0  0
   -8.9938    4.9231  -14.2163 C   0  0  0  0  0  0  0  0  0  0  0  0
   -9.2739    5.6573  -15.4752 C   0  0  0  0  0  0  0  0  0  0  0  0
   -7.9746    6.0044  -15.9344 O   0  0  0  0  0  0  0  0  0  0  0  0
   -7.2137    4.7938  -15.8324 C   0  0  0  0  0  0  0  0  0  0  0  0
   -5.7538    5.1898  -15.9265 C   0  0  0  0  0  0  0  0  0  0  0  0
   -7.6385    3.9960  -17.0885 C   0  0  0  0  0  0  0  0  0  0  0  0
   -8.2837    3.8649   -9.6922 C   0  0  0  0  0  0  0  0  0  0  0  0
   -9.0301    2.6059   -9.5741 C   0  0  0  0  0  0  0  0  0  0  0  0
   -9.4026    1.9683  -10.5402 O   0  0  0  0  0  0  0  0  0  0  0  0
  1  2  1  0
  2  3  1  0
  3  4  1  0
  4  5  2  0
  5  6  1  0
  5  7  1  0
  7  8  2  0
  8  9  1  0
  9 10  1  0
 10 11  1  0
 12 11  1  1
 12 13  1  0
 13 14  1  0
 14 15  1  0
 15 16  1  0
 16 17  1  0
 16 18  1  0
  9 19  2  0
 19 20  1  0
 20 21  2  0
 20  2  1  0
 19  4  1  0
 16 12  1  0
M  END
>  <energy_score>  (1723) 
-52.423478

>  <alias>  (1723) 
None

>  <HIPPO Pose ID>  (1723) 
72364

>  <smiles>  (1723) 
CN1Cc2c(Br)ccc(NC[C@H]3CCOC3(C)C)c2C1=O

>  <inchikey>  (1723) 
YOYKPCPDWQVWQR-SNVBAGLBSA-N

>  <distance_score>  (1723) 
1.86832

>  <ref_mols>  (1723) 
Z0089a,Z3515a

>  <ref_pdb>  (1723) 
Z3515a

>  <HIPPO Compound ID>  (1723) 
145273

>  <name>  (1723) 
P72364

>  <inspiration_score>  (1723) 
None

$$$$
P72366
     RDKit          3D

 21 23  0  0  0  0  0  0  0  0999 V2000
   -8.4566    4.1991  -16.3729 C   0  0  0  0  0  0  0  0  0  0  0  0
   -7.6928    4.5647  -15.2212 O   0  0  0  0  0  0  0  0  0  0  0  0
   -8.4305    4.8331  -14.1127 C   0  0  0  0  0  0  0  0  0  0  0  0
   -9.6591    4.9001  -14.1015 O   0  0  0  0  0  0  0  0  0  0  0  0
   -7.5696    5.1639  -12.8632 C   0  0  2  0  0  0  0  0  0  0  0  0
   -8.2291    4.5528  -11.6889 N   0  0  0  0  0  0  0  0  0  0  0  0
   -7.8865    4.5381  -10.3528 C   0  0  0  0  0  0  0  0  0  0  0  0
   -7.0395    5.4538   -9.7266 C   0  0  0  0  0  0  0  0  0  0  0  0
   -6.8629    5.4703   -8.3237 C   0  0  0  0  0  0  0  0  0  0  0  0
   -7.5135    4.5484   -7.5007 C   0  0  0  0  0  0  0  0  0  0  0  0
   -7.2924    4.6208   -5.7967 Cl  0  0  0  0  0  0  0  0  0  0  0  0
   -8.3094    3.5973   -8.0926 C   0  0  0  0  0  0  0  0  0  0  0  0
   -8.4754    3.6151   -9.4826 C   0  0  0  0  0  0  0  0  0  0  0  0
   -9.2981    2.4525   -9.8271 C   0  0  0  0  0  0  0  0  0  0  0  0
   -9.5555    2.0905  -10.9593 O   0  0  0  0  0  0  0  0  0  0  0  0
   -9.6543    1.8359   -8.6494 N   0  0  0  0  0  0  0  0  0  0  0  0
   -9.0655    2.4600   -7.4966 C   0  0  0  0  0  0  0  0  0  0  0  0
   -7.5374    6.6882  -12.8205 C   0  0  0  0  0  0  0  0  0  0  0  0
   -6.2565    7.0121  -13.5562 C   0  0  0  0  0  0  0  0  0  0  0  0
   -5.3351    5.9635  -13.2573 O   0  0  0  0  0  0  0  0  0  0  0  0
   -6.0984    4.7626  -12.9969 C   0  0  0  0  0  0  0  0  0  0  0  0
  1  2  1  0
  2  3  1  0
  3  4  2  0
  3  5  1  0
  5  6  1  1
  6  7  1  0
  7  8  2  0
  8  9  1  0
  9 10  2  0
 10 11  1  0
 10 12  1  0
 12 13  2  0
 13 14  1  0
 14 15  2  0
 14 16  1  0
 16 17  1  0
  5 18  1  0
 18 19  1  0
 19 20  1  0
 20 21  1  0
 21  5  1  0
 13  7  1  0
 17 12  1  0
M  END
>  <energy_score>  (1724) 
-18.667563

>  <alias>  (1724) 
None

>  <HIPPO Pose ID>  (1724) 
72366

>  <smiles>  (1724) 
COC(=O)[C@]1(Nc2ccc(Cl)c3c2C(=O)NC3)CCOC1

>  <inchikey>  (1724) 
KLIHFHXEXJRLLS-AWEZNQCLSA-N

>  <distance_score>  (1724) 
1.942549

>  <ref_mols>  (1724) 
Z0089a,Z3515a

>  <ref_pdb>  (1724) 
Z3515a

>  <HIPPO Compound ID>  (1724) 
145279

>  <name>  (1724) 
P72366

>  <inspiration_score>  (1724) 
None

$$$$
P72367
     RDKit          3D

 21 23  0  0  0  0  0  0  0  0999 V2000
   -9.0405    6.0385   -6.6024 C   0  0  0  0  0  0  0  0  0  0  0  0
   -8.8168    5.0956   -7.6641 N   0  0  0  0  0  0  0  0  0  0  0  0
   -8.8013    3.7522   -7.4610 C   0  0  0  0  0  0  0  0  0  0  0  0
   -9.0719    3.1541   -6.4396 O   0  0  0  0  0  0  0  0  0  0  0  0
   -8.3257    3.1918   -8.7118 C   0  0  0  0  0  0  0  0  0  0  0  0
   -7.8307    1.9405   -8.8918 C   0  0  0  0  0  0  0  0  0  0  0  0
   -7.0357    1.7769  -10.0080 C   0  0  0  0  0  0  0  0  0  0  0  0
   -6.9537    2.7579  -11.0034 C   0  0  0  0  0  0  0  0  0  0  0  0
   -7.6554    3.9635  -10.9286 C   0  0  0  0  0  0  0  0  0  0  0  0
   -7.6489    4.8715  -12.0189 N   0  0  0  0  0  0  0  0  0  0  0  0
   -7.5124    4.1918  -13.3230 C   0  0  0  0  0  0  0  0  0  0  0  0
   -8.0564    4.9275  -14.5381 C   0  0  1  0  0  0  0  0  0  0  0  0
   -7.0373    5.7046  -15.3330 C   0  0  0  0  0  0  0  0  0  0  0  0
   -7.6504    5.8363  -16.6322 O   0  0  0  0  0  0  0  0  0  0  0  0
   -8.2856    4.5861  -16.9557 C   0  0  0  0  0  0  0  0  0  0  0  0
   -7.3181    3.8830  -17.8831 C   0  0  0  0  0  0  0  0  0  0  0  0
   -9.6014    4.6458  -17.7397 C   0  0  0  0  0  0  0  0  0  0  0  0
   -8.5408    3.9418  -15.6044 C   0  0  0  0  0  0  0  0  0  0  0  0
   -8.2013    4.1952   -9.6710 C   0  0  0  0  0  0  0  0  0  0  0  0
   -8.5648    5.4280   -8.9721 C   0  0  0  0  0  0  0  0  0  0  0  0
   -8.5941    6.5321   -9.4864 O   0  0  0  0  0  0  0  0  0  0  0  0
  1  2  1  0
  2  3  1  0
  3  4  2  0
  3  5  1  0
  5  6  2  0
  6  7  1  0
  7  8  2  0
  8  9  1  0
  9 10  1  0
 10 11  1  0
 12 11  1  1
 12 13  1  0
 13 14  1  0
 14 15  1  0
 15 16  1  0
 15 17  1  0
 15 18  1  0
  9 19  2  0
 19 20  1  0
 20 21  2  0
 20  2  1  0
 19  5  1  0
 18 12  1  0
M  END
>  <energy_score>  (1725) 
-9.331355

>  <alias>  (1725) 
None

>  <HIPPO Pose ID>  (1725) 
72367

>  <smiles>  (1725) 
CN1C(=O)c2cccc(NC[C@H]3COC(C)(C)C3)c2C1=O

>  <inchikey>  (1725) 
BZVBSSYRJVKWGK-JTQLQIEISA-N

>  <distance_score>  (1725) 
1.901435

>  <ref_mols>  (1725) 
Z3515a,Z0089a

>  <ref_pdb>  (1725) 
Z3515a

>  <HIPPO Compound ID>  (1725) 
145288

>  <name>  (1725) 
P72367

>  <inspiration_score>  (1725) 
None

$$$$
P72368
     RDKit          3D

 21 23  0  0  0  0  0  0  0  0999 V2000
   -9.4684    1.0448   -8.1182 C   0  0  0  0  0  0  0  0  0  0  0  0
   -9.3684    2.4041   -8.5350 N   0  0  0  0  0  0  0  0  0  0  0  0
   -8.8695    3.3725   -7.6128 C   0  0  0  0  0  0  0  0  0  0  0  0
   -8.4541    4.4770   -8.5100 C   0  0  0  0  0  0  0  0  0  0  0  0
   -8.0001    5.7250   -8.1650 C   0  0  0  0  0  0  0  0  0  0  0  0
   -7.8188    6.2661   -6.3657 Br  0  0  0  0  0  0  0  0  0  0  0  0
   -7.7028    6.6170   -9.1866 C   0  0  0  0  0  0  0  0  0  0  0  0
   -7.8351    6.2402  -10.5378 C   0  0  0  0  0  0  0  0  0  0  0  0
   -8.2513    4.9569  -10.9240 C   0  0  0  0  0  0  0  0  0  0  0  0
   -8.4293    4.6196  -12.2873 N   0  0  0  0  0  0  0  0  0  0  0  0
   -7.4354    5.1783  -13.2139 C   0  0  0  0  0  0  0  0  0  0  0  0
   -7.4749    4.5322  -14.5928 C   0  0  2  0  0  0  0  0  0  0  0  0
   -6.1076    4.5758  -15.2367 C   0  0  0  0  0  0  0  0  0  0  0  0
   -6.3411    4.1225  -16.5720 O   0  0  0  0  0  0  0  0  0  0  0  0
   -7.6377    4.5925  -16.9871 C   0  0  0  0  0  0  0  0  0  0  0  0
   -8.5516    3.4717  -17.4784 C   0  0  0  0  0  0  0  0  0  0  0  0
   -7.3233    5.4720  -18.1922 C   0  0  0  0  0  0  0  0  0  0  0  0
   -8.2411    5.2313  -15.7142 C   0  0  0  0  0  0  0  0  0  0  0  0
   -8.5939    4.1170   -9.8601 C   0  0  0  0  0  0  0  0  0  0  0  0
   -9.1491    2.7628   -9.8586 C   0  0  0  0  0  0  0  0  0  0  0  0
   -9.3368    2.1260  -10.8790 O   0  0  0  0  0  0  0  0  0  0  0  0
  1  2  1  0
  2  3  1  0
  3  4  1  0
  4  5  2  0
  5  6  1  0
  5  7  1  0
  7  8  2  0
  8  9  1  0
  9 10  1  0
 10 11  1  0
 12 11  1  1
 12 13  1  0
 13 14  1  0
 14 15  1  0
 15 16  1  0
 15 17  1  0
 15 18  1  0
  9 19  2  0
 19 20  1  0
 20 21  2  0
 20  2  1  0
 19  4  1  0
 18 12  1  0
M  END
>  <energy_score>  (1726) 
-16.751492

>  <alias>  (1726) 
None

>  <HIPPO Pose ID>  (1726) 
72368

>  <smiles>  (1726) 
CN1Cc2c(Br)ccc(NC[C@@H]3COC(C)(C)C3)c2C1=O

>  <inchikey>  (1726) 
TTXNECVTVKIOLU-SNVBAGLBSA-N

>  <distance_score>  (1726) 
1.350459

>  <ref_mols>  (1726) 
Z0089a,Z3515a

>  <ref_pdb>  (1726) 
Z3515a

>  <HIPPO Compound ID>  (1726) 
145289

>  <name>  (1726) 
P72368

>  <inspiration_score>  (1726) 
None

$$$$
P72370
     RDKit          3D

 21 23  0  0  0  0  0  0  0  0999 V2000
   -7.6882    4.7828  -18.1495 C   0  0  0  0  0  0  0  0  0  0  0  0
   -6.8345    4.9487  -16.8871 C   0  0  0  0  0  0  0  0  0  0  0  0
   -5.3518    4.7129  -17.2545 C   0  0  0  0  0  0  0  0  0  0  0  0
   -7.5207    4.2407  -15.7158 C   0  0  0  0  0  0  0  0  0  0  0  0
   -6.9750    4.8830  -14.4470 C   0  0  2  0  0  0  0  0  0  0  0  0
   -8.0199    5.0417  -13.3196 C   0  0  0  0  0  0  0  0  0  0  0  0
   -7.8976    4.0195  -12.2722 N   0  0  0  0  0  0  0  0  0  0  0  0
   -7.9622    4.3779  -10.9172 C   0  0  0  0  0  0  0  0  0  0  0  0
   -7.3793    5.5547  -10.4272 C   0  0  0  0  0  0  0  0  0  0  0  0
   -7.3730    5.8805   -9.0523 C   0  0  0  0  0  0  0  0  0  0  0  0
   -7.9089    5.0133   -8.1013 C   0  0  0  0  0  0  0  0  0  0  0  0
   -7.8552    5.5120   -6.2823 Br  0  0  0  0  0  0  0  0  0  0  0  0
   -8.4412    3.8335   -8.5583 C   0  0  0  0  0  0  0  0  0  0  0  0
   -8.4703    3.5383   -9.9217 C   0  0  0  0  0  0  0  0  0  0  0  0
   -9.2069    2.2902  -10.0262 C   0  0  0  0  0  0  0  0  0  0  0  0
   -9.6949    1.8883  -11.0665 O   0  0  0  0  0  0  0  0  0  0  0  0
   -9.3624    1.7940   -8.7705 N   0  0  0  0  0  0  0  0  0  0  0  0
   -9.1004    2.7391   -7.8429 C   0  0  0  0  0  0  0  0  0  0  0  0
   -9.4496    2.7566   -6.6795 O   0  0  0  0  0  0  0  0  0  0  0  0
   -6.5142    6.2366  -14.9852 C   0  0  0  0  0  0  0  0  0  0  0  0
   -6.8516    6.2904  -16.3871 O   0  0  0  0  0  0  0  0  0  0  0  0
  1  2  1  0
  2  3  1  0
  2  4  1  0
  4  5  1  0
  5  6  1  1
  6  7  1  0
  7  8  1  0
  8  9  2  0
  9 10  1  0
 10 11  2  0
 11 12  1  0
 11 13  1  0
 13 14  2  0
 14 15  1  0
 15 16  2  0
 15 17  1  0
 17 18  1  0
 18 19  2  0
  5 20  1  0
 20 21  1  0
 21  2  1  0
 14  8  1  0
 18 13  1  0
M  END
>  <energy_score>  (1727) 
-17.863887

>  <alias>  (1727) 
None

>  <HIPPO Pose ID>  (1727) 
72370

>  <smiles>  (1727) 
CC1(C)C[C@H](CNc2ccc(Br)c3c2C(=O)NC3=O)CO1

>  <inchikey>  (1727) 
HDJXVAYQXACEGN-MRVPVSSYSA-N

>  <distance_score>  (1727) 
1.853535

>  <ref_mols>  (1727) 
Z0089a,Z3515a

>  <ref_pdb>  (1727) 
Z3515a

>  <HIPPO Compound ID>  (1727) 
145291

>  <name>  (1727) 
P72370

>  <inspiration_score>  (1727) 
None

$$$$
P72371
     RDKit          3D

 22 24  0  0  0  0  0  0  0  0999 V2000
   -9.4234    1.0619   -8.2626 C   0  0  0  0  0  0  0  0  0  0  0  0
   -9.2575    2.4217   -8.6528 N   0  0  0  0  0  0  0  0  0  0  0  0
   -8.8711    3.3736   -7.6684 C   0  0  0  0  0  0  0  0  0  0  0  0
   -8.4789    4.5331   -8.5023 C   0  0  0  0  0  0  0  0  0  0  0  0
   -8.1454    5.7907   -8.0680 C   0  0  0  0  0  0  0  0  0  0  0  0
   -8.1150    6.2550   -6.2389 Br  0  0  0  0  0  0  0  0  0  0  0  0
   -7.8680    6.7491   -9.0260 C   0  0  0  0  0  0  0  0  0  0  0  0
   -7.8911    6.4252  -10.3970 C   0  0  0  0  0  0  0  0  0  0  0  0
   -8.1636    5.1304  -10.8829 C   0  0  0  0  0  0  0  0  0  0  0  0
   -8.2043    4.8621  -12.2820 N   0  0  0  0  0  0  0  0  0  0  0  0
   -7.3406    5.7312  -13.1015 C   0  0  0  0  0  0  0  0  0  0  0  0
   -7.1430    5.4603  -14.6037 C   0  0  1  0  0  0  0  0  0  0  0  0
   -6.1524    6.5246  -15.1224 C   0  0  0  0  0  0  0  0  0  0  0  0
   -6.5353    4.1312  -14.8927 C   0  0  0  0  0  0  0  0  0  0  0  0
   -6.6851    3.9442  -16.2998 O   0  0  0  0  0  0  0  0  0  0  0  0
   -7.9501    4.4890  -16.6986 C   0  0  0  0  0  0  0  0  0  0  0  0
   -7.6821    5.1479  -18.0444 C   0  0  0  0  0  0  0  0  0  0  0  0
   -8.9666    3.3934  -16.9751 C   0  0  0  0  0  0  0  0  0  0  0  0
   -8.3914    5.3329  -15.4773 C   0  0  0  0  0  0  0  0  0  0  0  0
   -8.5082    4.2194   -9.8777 C   0  0  0  0  0  0  0  0  0  0  0  0
   -8.9654    2.8301   -9.9479 C   0  0  0  0  0  0  0  0  0  0  0  0
   -9.0224    2.2089  -10.9923 O   0  0  0  0  0  0  0  0  0  0  0  0
  1  2  1  0
  2  3  1  0
  3  4  1  0
  4  5  2  0
  5  6  1  0
  5  7  1  0
  7  8  2  0
  8  9  1  0
  9 10  1  0
 10 11  1  0
 12 11  1  0
 12 13  1  6
 12 14  1  0
 14 15  1  0
 15 16  1  0
 16 17  1  0
 16 18  1  0
 16 19  1  0
  9 20  2  0
 20 21  1  0
 21 22  2  0
 21  2  1  0
 20  4  1  0
 19 12  1  0
M  END
>  <energy_score>  (1728) 
-30.032174

>  <alias>  (1728) 
None

>  <HIPPO Pose ID>  (1728) 
72371

>  <smiles>  (1728) 
CN1Cc2c(Br)ccc(NC[C@@]3(C)COC(C)(C)C3)c2C1=O

>  <inchikey>  (1728) 
JIMLBAAZGSWALI-KRWDZBQOSA-N

>  <distance_score>  (1728) 
1.675937

>  <ref_mols>  (1728) 
Z0089a,Z3515a

>  <ref_pdb>  (1728) 
Z3515a

>  <HIPPO Compound ID>  (1728) 
145304

>  <name>  (1728) 
P72371

>  <inspiration_score>  (1728) 
None

$$$$
P72372
     RDKit          3D

 22 24  0  0  0  0  0  0  0  0999 V2000
   -7.9642    4.4768  -17.9577 C   0  0  0  0  0  0  0  0  0  0  0  0
   -6.8693    4.9411  -16.9948 C   0  0  0  0  0  0  0  0  0  0  0  0
   -5.4886    4.9714  -17.7127 C   0  0  0  0  0  0  0  0  0  0  0  0
   -6.9162    4.1658  -15.6817 C   0  0  0  0  0  0  0  0  0  0  0  0
   -6.7187    5.1290  -14.5125 C   0  0  2  0  0  0  0  0  0  0  0  0
   -5.4197    4.8387  -13.7600 C   0  0  0  0  0  0  0  0  0  0  0  0
   -7.9477    5.1829  -13.5504 C   0  0  0  0  0  0  0  0  0  0  0  0
   -7.9418    4.1749  -12.4676 N   0  0  0  0  0  0  0  0  0  0  0  0
   -8.0049    4.5289  -11.1109 C   0  0  0  0  0  0  0  0  0  0  0  0
   -7.4700    5.7282  -10.6224 C   0  0  0  0  0  0  0  0  0  0  0  0
   -7.4602    6.0513   -9.2451 C   0  0  0  0  0  0  0  0  0  0  0  0
   -7.9466    5.1633   -8.2870 C   0  0  0  0  0  0  0  0  0  0  0  0
   -7.8935    5.6666   -6.4696 Br  0  0  0  0  0  0  0  0  0  0  0  0
   -8.4341    3.9629   -8.7386 C   0  0  0  0  0  0  0  0  0  0  0  0
   -8.4631    3.6668  -10.1039 C   0  0  0  0  0  0  0  0  0  0  0  0
   -9.1357    2.3815  -10.1943 C   0  0  0  0  0  0  0  0  0  0  0  0
   -9.5791    1.9379  -11.2362 O   0  0  0  0  0  0  0  0  0  0  0  0
   -9.2765    1.8891   -8.9354 N   0  0  0  0  0  0  0  0  0  0  0  0
   -9.0374    2.8428   -8.0115 C   0  0  0  0  0  0  0  0  0  0  0  0
   -9.3542    2.8407   -6.8390 O   0  0  0  0  0  0  0  0  0  0  0  0
   -6.5413    6.4363  -15.2723 C   0  0  0  0  0  0  0  0  0  0  0  0
   -7.1450    6.2592  -16.5529 O   0  0  0  0  0  0  0  0  0  0  0  0
  1  2  1  0
  2  3  1  0
  2  4  1  0
  4  5  1  0
  5  6  1  1
  5  7  1  0
  7  8  1  0
  8  9  1  0
  9 10  2  0
 10 11  1  0
 11 12  2  0
 12 13  1  0
 12 14  1  0
 14 15  2  0
 15 16  1  0
 16 17  2  0
 16 18  1  0
 18 19  1  0
 19 20  2  0
  5 21  1  0
 21 22  1  0
 22  2  1  0
 15  9  1  0
 19 14  1  0
M  END
>  <energy_score>  (1729) 
-30.647367

>  <alias>  (1729) 
None

>  <HIPPO Pose ID>  (1729) 
72372

>  <smiles>  (1729) 
CC1(C)C[C@](C)(CNc2ccc(Br)c3c2C(=O)NC3=O)CO1

>  <inchikey>  (1729) 
HRFKZYSXPUXNLR-MRXNPFEDSA-N

>  <distance_score>  (1729) 
1.909933

>  <ref_mols>  (1729) 
Z0089a,Z3515a

>  <ref_pdb>  (1729) 
Z3515a

>  <HIPPO Compound ID>  (1729) 
145306

>  <name>  (1729) 
P72372

>  <inspiration_score>  (1729) 
None

$$$$
P72373
     RDKit          3D

 22 25  0  0  0  0  0  0  0  0999 V2000
   -3.5405    7.8959  -18.3129 C   0  0  0  0  0  0  0  0  0  0  0  0
   -3.5897    6.6588  -19.1975 C   0  0  0  0  0  0  0  0  0  0  0  0
   -2.8801    5.4336  -18.6160 C   0  0  0  0  0  0  0  0  0  0  0  0
   -1.3775    5.4008  -18.9096 C   0  0  0  0  0  0  0  0  0  0  0  0
   -0.6576    6.5365  -18.3083 N   0  0  0  0  0  0  0  0  0  0  0  0
   -0.4079    6.3239  -16.8584 C   0  0  0  0  0  0  0  0  0  0  0  0
    1.0283    5.9235  -16.7354 C   0  0  0  0  0  0  0  0  0  0  0  0
    1.7102    5.4699  -15.6233 C   0  0  0  0  0  0  0  0  0  0  0  0
    3.0771    5.2378  -15.7517 C   0  0  0  0  0  0  0  0  0  0  0  0
    3.7333    5.4604  -16.9787 C   0  0  0  0  0  0  0  0  0  0  0  0
    3.0442    5.8941  -18.1210 C   0  0  0  0  0  0  0  0  0  0  0  0
    3.6693    6.2163  -19.3252 N   0  0  0  0  0  0  0  0  0  0  0  0
    5.0160    5.7308  -19.6196 C   0  0  0  0  0  0  0  0  0  0  0  0
    5.4165    6.1449  -21.0405 C   0  0  2  0  0  0  0  0  0  0  0  0
    6.7059    5.4367  -21.4951 C   0  0  0  0  0  0  0  0  0  0  0  0
    7.6280    6.6137  -21.8042 C   0  0  1  0  0  0  0  0  0  0  0  0
    7.1691    7.3562  -23.0571 C   0  0  0  0  0  0  0  0  0  0  0  0
    5.9225    8.0869  -22.5581 C   0  0  0  0  0  0  0  0  0  0  0  0
    5.8389    7.6209  -21.1048 C   0  0  2  0  0  0  0  0  0  0  0  0
    7.2457    7.5394  -20.7630 O   0  0  0  0  0  0  0  0  0  0  0  0
    1.6818    6.1357  -17.9525 C   0  0  0  0  0  0  0  0  0  0  0  0
    0.6902    6.7019  -18.9220 C   0  0  0  0  0  0  0  0  0  0  0  0
  1  2  1  0
  2  3  1  0
  3  4  1  0
  4  5  1  0
  5  6  1  0
  6  7  1  0
  7  8  2  0
  8  9  1  0
  9 10  2  0
 10 11  1  0
 11 12  1  0
 12 13  1  0
 14 13  1  1
 14 15  1  0
 16 15  1  1
 16 17  1  0
 17 18  1  0
 19 18  1  6
 19 20  1  0
 11 21  2  0
 21 22  1  0
 22  5  1  0
 21  7  1  0
 19 14  1  0
 20 16  1  0
M  END
>  <energy_score>  (1730) 
-52.125953

>  <alias>  (1730) 
None

>  <HIPPO Pose ID>  (1730) 
72373

>  <smiles>  (1730) 
CCCCN1Cc2cccc(NC[C@@H]3C[C@H]4CC[C@@H]3O4)c2C1

>  <inchikey>  (1730) 
COXFFIOLDBKPKQ-FCEWJHQRSA-N

>  <distance_score>  (1730) 
1.117185

>  <ref_mols>  (1730) 
Z0089a,Z3515a

>  <ref_pdb>  (1730) 
Z3515a

>  <HIPPO Compound ID>  (1730) 
145321

>  <name>  (1730) 
P72373

>  <inspiration_score>  (1730) 
None

$$$$
P72376
     RDKit          3D

 26 29  0  0  0  0  0  0  0  0999 V2000
   -5.9271    4.5473  -20.4026 C   0  0  0  0  0  0  0  0  0  0  0  0
   -6.1658    4.8514  -18.9563 C   0  0  0  0  0  0  0  0  0  0  0  0
   -7.4409    4.6649  -18.3963 C   0  0  0  0  0  0  0  0  0  0  0  0
   -7.6419    4.7816  -17.0139 C   0  0  0  0  0  0  0  0  0  0  0  0
   -9.0440    4.5203  -16.4846 C   0  0  0  0  0  0  0  0  0  0  0  0
   -9.9977    4.8995  -17.3756 F   0  0  0  0  0  0  0  0  0  0  0  0
   -9.2816    3.2043  -16.2598 F   0  0  0  0  0  0  0  0  0  0  0  0
   -9.3127    5.1743  -15.3164 F   0  0  0  0  0  0  0  0  0  0  0  0
   -6.6437    5.0566  -16.1236 N   0  0  0  0  0  0  0  0  0  0  0  0
   -5.4501    5.2358  -16.7136 C   0  0  0  0  0  0  0  0  0  0  0  0
   -4.2620    5.4082  -16.0712 N   0  0  0  0  0  0  0  0  0  0  0  0
   -3.2023    5.5339  -16.8971 N   0  0  0  0  0  0  0  0  0  0  0  0
   -3.7650    5.5809  -18.1088 C   0  0  0  0  0  0  0  0  0  0  0  0
   -3.0017    5.9322  -19.1818 N   0  0  0  0  0  0  0  0  0  0  0  0
   -3.3917    6.6442  -20.5085 C   0  0  0  0  0  0  0  0  0  0  0  0
   -4.4100    7.1056  -20.8490 O   0  0  0  0  0  0  0  0  0  0  0  0
   -2.1626    6.5874  -21.4314 C   0  0  2  0  0  0  0  0  0  0  0  0
   -2.3474    7.5431  -22.6358 C   0  0  0  0  0  0  0  0  0  0  0  0
   -1.4505    7.1967  -23.8354 C   0  0  1  0  0  0  0  0  0  0  0  0
    0.0302    7.1661  -23.4508 C   0  0  0  0  0  0  0  0  0  0  0  0
    0.2795    5.7268  -23.0050 C   0  0  0  0  0  0  0  0  0  0  0  0
   -1.0752    5.0297  -23.1688 C   0  0  1  0  0  0  0  0  0  0  0  0
   -1.9299    5.1319  -21.8928 C   0  0  0  0  0  0  0  0  0  0  0  0
   -1.7779    5.8079  -24.2022 N   0  0  0  0  0  0  0  0  0  0  0  0
   -1.3468    5.4677  -25.5563 C   0  0  0  0  0  0  0  0  0  0  0  0
   -5.1467    5.2323  -18.0649 C   0  0  0  0  0  0  0  0  0  0  0  0
  1  2  1  0
  2  3  2  0
  3  4  1  0
  4  5  1  0
  5  6  1  0
  5  7  1  0
  5  8  1  0
  4  9  2  0
  9 10  1  0
 10 11  1  0
 11 12  1  0
 12 13  2  0
 13 14  1  0
 14 15  1  0
 15 16  2  0
 17 15  1  1
 17 18  1  0
 19 18  1  1
 19 20  1  0
 20 21  1  0
 22 21  1  1
 22 23  1  0
 22 24  1  0
 24 25  1  0
 13 26  1  0
 26  2  1  0
 26 10  2  0
 23 17  1  0
 24 19  1  0
M  END
>  <energy_score>  (1731) 
-41.10101

>  <alias>  (1731) 
None

>  <HIPPO Pose ID>  (1731) 
72376

>  <smiles>  (1731) 
Cc1cc(C(F)(F)F)nc2[nH]nc(NC(=O)[C@@H]3C[C@H]4CC[C@@H](C3)N4C)c12

>  <inchikey>  (1731) 
JHRVTYBYJSMEOG-RTCCRHLQSA-N

>  <distance_score>  (1731) 
1.041418

>  <ref_mols>  (1731) 
Z0827a,Z0709a

>  <ref_pdb>  (1731) 
Z0709a

>  <HIPPO Compound ID>  (1731) 
145344

>  <name>  (1731) 
P72376

>  <inspiration_score>  (1731) 
None

$$$$
P72379
     RDKit          3D

 26 29  0  0  0  0  0  0  0  0999 V2000
   -6.2700    4.4008  -20.2313 C   0  0  0  0  0  0  0  0  0  0  0  0
   -6.2295    4.7406  -18.7818 C   0  0  0  0  0  0  0  0  0  0  0  0
   -7.4359    4.6151  -18.0539 C   0  0  0  0  0  0  0  0  0  0  0  0
   -7.4700    4.8370  -16.6800 C   0  0  0  0  0  0  0  0  0  0  0  0
   -8.7552    4.5924  -15.9143 C   0  0  0  0  0  0  0  0  0  0  0  0
   -9.3699    5.7573  -15.5567 F   0  0  0  0  0  0  0  0  0  0  0  0
   -9.6631    3.8601  -16.6152 F   0  0  0  0  0  0  0  0  0  0  0  0
   -8.5472    3.9362  -14.7394 F   0  0  0  0  0  0  0  0  0  0  0  0
   -6.3917    5.2564  -15.9767 N   0  0  0  0  0  0  0  0  0  0  0  0
   -5.2735    5.3566  -16.7100 C   0  0  0  0  0  0  0  0  0  0  0  0
   -4.0729    5.6914  -16.1872 N   0  0  0  0  0  0  0  0  0  0  0  0
   -3.0854    5.7310  -17.0796 N   0  0  0  0  0  0  0  0  0  0  0  0
   -3.6676    5.4138  -18.2484 C   0  0  0  0  0  0  0  0  0  0  0  0
   -2.7564    5.4579  -19.2719 N   0  0  0  0  0  0  0  0  0  0  0  0
   -2.9350    5.1994  -20.7958 C   0  0  0  0  0  0  0  0  0  0  0  0
   -3.8675    4.8352  -21.3973 O   0  0  0  0  0  0  0  0  0  0  0  0
   -1.5644    5.4835  -21.4422 C   0  0  1  0  0  0  0  0  0  0  0  0
   -1.5493    5.0222  -22.9105 C   0  0  0  0  0  0  0  0  0  0  0  0
   -2.3122    5.9645  -23.8567 C   0  0  0  0  0  0  0  0  0  0  0  0
   -2.2412    7.3616  -23.4411 N   0  0  0  0  0  0  0  0  0  0  0  0
   -2.2641    8.3223  -24.5367 C   0  0  0  0  0  0  0  0  0  0  0  0
   -1.8012    9.6163  -23.8738 C   0  0  0  0  0  0  0  0  0  0  0  0
   -1.1058    9.1924  -22.5793 C   0  0  0  0  0  0  0  0  0  0  0  0
   -1.0581    7.6715  -22.6517 C   0  0  1  0  0  0  0  0  0  0  0  0
   -1.1571    6.9688  -21.2999 C   0  0  0  0  0  0  0  0  0  0  0  0
   -5.0730    5.1379  -18.0719 C   0  0  0  0  0  0  0  0  0  0  0  0
  1  2  1  0
  2  3  2  0
  3  4  1  0
  4  5  1  0
  5  6  1  0
  5  7  1  0
  5  8  1  0
  4  9  2  0
  9 10  1  0
 10 11  1  0
 11 12  1  0
 12 13  2  0
 13 14  1  0
 14 15  1  0
 15 16  2  0
 17 15  1  6
 17 18  1  0
 18 19  1  0
 19 20  1  0
 20 21  1  0
 21 22  1  0
 22 23  1  0
 24 23  1  1
 24 25  1  0
 13 26  1  0
 26  2  1  0
 26 10  2  0
 25 17  1  0
 24 20  1  0
M  END
>  <energy_score>  (1732) 
-51.268793

>  <alias>  (1732) 
None

>  <HIPPO Pose ID>  (1732) 
72379

>  <smiles>  (1732) 
Cc1cc(C(F)(F)F)nc2[nH]nc(NC(=O)[C@H]3CCN4CCC[C@H]4C3)c12

>  <inchikey>  (1732) 
QEBNGOZSZSNNAQ-QWRGUYRKSA-N

>  <distance_score>  (1732) 
0.961729

>  <ref_mols>  (1732) 
Z0827a,Z0709a

>  <ref_pdb>  (1732) 
Z0709a

>  <HIPPO Compound ID>  (1732) 
145345

>  <name>  (1732) 
P72379

>  <inspiration_score>  (1732) 
None

$$$$
P72381
     RDKit          3D

 26 29  0  0  0  0  0  0  0  0999 V2000
   -6.1464    4.4305  -20.2371 C   0  0  0  0  0  0  0  0  0  0  0  0
   -6.1732    4.7649  -18.7836 C   0  0  0  0  0  0  0  0  0  0  0  0
   -7.4070    4.6624  -18.1005 C   0  0  0  0  0  0  0  0  0  0  0  0
   -7.4782    4.8563  -16.7207 C   0  0  0  0  0  0  0  0  0  0  0  0
   -8.7852    4.6126  -15.9919 C   0  0  0  0  0  0  0  0  0  0  0  0
   -8.6105    3.9240  -14.8303 F   0  0  0  0  0  0  0  0  0  0  0  0
   -9.3890    5.7764  -15.6159 F   0  0  0  0  0  0  0  0  0  0  0  0
   -9.6871    3.9090  -16.7283 F   0  0  0  0  0  0  0  0  0  0  0  0
   -6.4127    5.2311  -15.9699 N   0  0  0  0  0  0  0  0  0  0  0  0
   -5.2688    5.3115  -16.6626 C   0  0  0  0  0  0  0  0  0  0  0  0
   -4.0660    5.5636  -16.0955 N   0  0  0  0  0  0  0  0  0  0  0  0
   -3.0430    5.5217  -16.9525 N   0  0  0  0  0  0  0  0  0  0  0  0
   -3.6211    5.3312  -18.1484 C   0  0  0  0  0  0  0  0  0  0  0  0
   -2.7171    5.3504  -19.1751 N   0  0  0  0  0  0  0  0  0  0  0  0
   -2.9293    5.5369  -20.7030 C   0  0  0  0  0  0  0  0  0  0  0  0
   -3.9135    5.6251  -21.3249 O   0  0  0  0  0  0  0  0  0  0  0  0
   -1.5207    5.5705  -21.3413 C   0  0  1  0  0  0  0  0  0  0  0  0
   -1.6066    5.3267  -22.8691 C   0  0  0  0  0  0  0  0  0  0  0  0
   -1.6461    6.6139  -23.7042 C   0  0  2  0  0  0  0  0  0  0  0  0
   -0.4236    7.4562  -23.3740 C   0  0  0  0  0  0  0  0  0  0  0  0
   -0.8400    7.9863  -22.0020 C   0  0  2  0  0  0  0  0  0  0  0  0
   -0.7446    6.8598  -20.9612 C   0  0  0  0  0  0  0  0  0  0  0  0
   -2.2998    8.3139  -22.2549 C   0  0  0  0  0  0  0  0  0  0  0  0
   -3.0016    9.0696  -21.6096 O   0  0  0  0  0  0  0  0  0  0  0  0
   -2.7084    7.4975  -23.3001 N   0  0  0  0  0  0  0  0  0  0  0  0
   -5.0390    5.1251  -18.0218 C   0  0  0  0  0  0  0  0  0  0  0  0
  1  2  1  0
  2  3  2  0
  3  4  1  0
  4  5  1  0
  5  6  1  0
  5  7  1  0
  5  8  1  0
  4  9  2  0
  9 10  1  0
 10 11  1  0
 11 12  1  0
 12 13  2  0
 13 14  1  0
 14 15  1  0
 15 16  2  0
 17 15  1  6
 17 18  1  0
 19 18  1  1
 19 20  1  0
 20 21  1  0
 21 22  1  1
 21 23  1  0
 23 24  2  0
 23 25  1  0
 13 26  1  0
 26  2  1  0
 26 10  2  0
 22 17  1  0
 25 19  1  0
M  END
>  <energy_score>  (1733) 
-47.726721

>  <alias>  (1733) 
None

>  <HIPPO Pose ID>  (1733) 
72381

>  <smiles>  (1733) 
Cc1cc(C(F)(F)F)nc2[nH]nc(NC(=O)[C@H]3C[C@@H]4C[C@H](C3)C(=O)N4)c12

>  <inchikey>  (1733) 
RAXNMTYYBLLMRM-YIZRAAEISA-N

>  <distance_score>  (1733) 
0.993188

>  <ref_mols>  (1733) 
Z0827a,Z0709a

>  <ref_pdb>  (1733) 
Z0709a

>  <HIPPO Compound ID>  (1733) 
145346

>  <name>  (1733) 
P72381

>  <inspiration_score>  (1733) 
None

$$$$
P72386
     RDKit          3D

 27 30  0  0  0  0  0  0  0  0999 V2000
   -6.0075    4.5493  -20.2633 C   0  0  0  0  0  0  0  0  0  0  0  0
   -6.0761    4.8436  -18.8016 C   0  0  0  0  0  0  0  0  0  0  0  0
   -7.3172    4.6374  -18.1472 C   0  0  0  0  0  0  0  0  0  0  0  0
   -7.4409    4.8142  -16.7700 C   0  0  0  0  0  0  0  0  0  0  0  0
   -8.7577    4.5336  -16.0742 C   0  0  0  0  0  0  0  0  0  0  0  0
   -9.3742    5.6830  -15.6724 F   0  0  0  0  0  0  0  0  0  0  0  0
   -9.6474    3.8514  -16.8444 F   0  0  0  0  0  0  0  0  0  0  0  0
   -8.5938    3.8114  -14.9332 F   0  0  0  0  0  0  0  0  0  0  0  0
   -6.4175    5.2341  -15.9907 N   0  0  0  0  0  0  0  0  0  0  0  0
   -5.2694    5.4190  -16.6538 C   0  0  0  0  0  0  0  0  0  0  0  0
   -4.1188    5.7809  -16.0451 N   0  0  0  0  0  0  0  0  0  0  0  0
   -3.1035    5.9724  -16.8832 N   0  0  0  0  0  0  0  0  0  0  0  0
   -3.6083    5.7056  -18.0980 C   0  0  0  0  0  0  0  0  0  0  0  0
   -2.6745    5.9639  -19.0663 N   0  0  0  0  0  0  0  0  0  0  0  0
   -2.7427    5.7831  -20.6088 C   0  0  0  0  0  0  0  0  0  0  0  0
   -3.6312    5.4593  -21.2943 O   0  0  0  0  0  0  0  0  0  0  0  0
   -1.3612    6.2365  -21.1397 C   0  0  2  0  0  0  0  0  0  0  0  0
   -1.1431    5.9263  -22.6140 C   0  0  0  0  0  0  0  0  0  0  0  0
    0.1420    6.6435  -22.9844 C   0  0  2  0  0  0  0  0  0  0  0  0
    0.7100    6.2940  -24.3570 C   0  0  0  0  0  0  0  0  0  0  0  0
    2.1815    6.6722  -24.1955 C   0  0  0  0  0  0  0  0  0  0  0  0
    2.4943    6.2243  -22.7722 C   0  0  0  0  0  0  0  0  0  0  0  0
    1.2280    6.3291  -22.0719 N   0  0  0  0  0  0  0  0  0  0  0  0
    1.0625    5.8342  -20.8051 C   0  0  0  0  0  0  0  0  0  0  0  0
    1.9803    5.4085  -20.1106 O   0  0  0  0  0  0  0  0  0  0  0  0
   -0.2263    5.7818  -20.3504 N   0  0  0  0  0  0  0  0  0  0  0  0
   -4.9873    5.2860  -18.0121 C   0  0  0  0  0  0  0  0  0  0  0  0
  1  2  1  0
  2  3  2  0
  3  4  1  0
  4  5  1  0
  5  6  1  0
  5  7  1  0
  5  8  1  0
  4  9  2  0
  9 10  1  0
 10 11  1  0
 11 12  1  0
 12 13  2  0
 13 14  1  0
 14 15  1  0
 15 16  2  0
 17 15  1  1
 17 18  1  0
 19 18  1  1
 19 20  1  0
 20 21  1  0
 21 22  1  0
 22 23  1  0
 23 24  1  0
 24 25  2  0
 24 26  1  0
 13 27  1  0
 27  2  1  0
 27 10  2  0
 26 17  1  0
 23 19  1  0
M  END
>  <energy_score>  (1734) 
-49.136795

>  <alias>  (1734) 
None

>  <HIPPO Pose ID>  (1734) 
72386

>  <smiles>  (1734) 
Cc1cc(C(F)(F)F)nc2[nH]nc(NC(=O)[C@@H]3C[C@@H]4CCCN4C(=O)N3)c12

>  <inchikey>  (1734) 
OHJGAQGIROKOTJ-IUCAKERBSA-N

>  <distance_score>  (1734) 
1.064641

>  <ref_mols>  (1734) 
Z0827a,Z0709a

>  <ref_pdb>  (1734) 
Z0709a

>  <HIPPO Compound ID>  (1734) 
145348

>  <name>  (1734) 
P72386

>  <inspiration_score>  (1734) 
None

$$$$
P72389
     RDKit          3D

 28 32  0  0  0  0  0  0  0  0999 V2000
   -0.8059    7.3690  -17.0046 O   0  0  0  0  0  0  0  0  0  0  0  0
   -1.3923    7.1416  -17.9907 C   0  0  0  0  0  0  0  0  0  0  0  0
   -2.8046    6.5164  -18.2047 N   0  0  0  0  0  0  0  0  0  0  0  0
   -3.6863    5.9896  -17.3046 C   0  0  0  0  0  0  0  0  0  0  0  0
   -3.3565    5.8771  -16.0183 N   0  0  0  0  0  0  0  0  0  0  0  0
   -4.4669    5.4184  -15.4342 N   0  0  0  0  0  0  0  0  0  0  0  0
   -5.5043    5.2424  -16.2907 C   0  0  0  0  0  0  0  0  0  0  0  0
   -6.7384    4.8770  -15.9270 N   0  0  0  0  0  0  0  0  0  0  0  0
   -7.5992    4.7490  -16.9687 C   0  0  0  0  0  0  0  0  0  0  0  0
   -9.0404    4.3961  -16.6377 C   0  0  0  0  0  0  0  0  0  0  0  0
   -9.9173    4.9314  -17.5266 F   0  0  0  0  0  0  0  0  0  0  0  0
   -9.4141    4.8434  -15.4032 F   0  0  0  0  0  0  0  0  0  0  0  0
   -9.2899    3.0634  -16.6632 F   0  0  0  0  0  0  0  0  0  0  0  0
   -7.2247    4.9594  -18.3040 C   0  0  0  0  0  0  0  0  0  0  0  0
   -5.9142    5.3698  -18.6371 C   0  0  0  0  0  0  0  0  0  0  0  0
   -5.4536    5.7135  -20.0262 C   0  0  0  0  0  0  0  0  0  0  0  0
   -4.2243    5.0732  -20.6368 C   0  0  0  0  0  0  0  0  0  0  0  0
   -5.5763    4.6878  -21.1277 C   0  0  0  0  0  0  0  0  0  0  0  0
   -5.0216    5.5317  -17.5567 C   0  0  0  0  0  0  0  0  0  0  0  0
   -0.8311    7.4413  -19.3934 C   0  0  2  0  0  0  0  0  0  0  0  0
   -0.3514    6.1396  -20.0648 C   0  0  0  0  0  0  0  0  0  0  0  0
    1.0166    5.6725  -19.5492 C   0  0  0  0  0  0  0  0  0  0  0  0
    1.9723    6.7614  -19.6976 N   0  0  0  0  0  0  0  0  0  0  0  0
    3.3354    6.4270  -19.2970 C   0  0  0  0  0  0  0  0  0  0  0  0
    3.9858    7.7988  -19.1132 C   0  0  0  0  0  0  0  0  0  0  0  0
    2.8252    8.7935  -19.0250 C   0  0  0  0  0  0  0  0  0  0  0  0
    1.6038    7.9036  -18.8591 C   0  0  1  0  0  0  0  0  0  0  0  0
    0.2881    8.5017  -19.3425 C   0  0  0  0  0  0  0  0  0  0  0  0
  1  2  2  0
  2  3  1  0
  3  4  1  0
  4  5  2  0
  5  6  1  0
  6  7  1  0
  7  8  2  0
  8  9  1  0
  9 10  1  0
 10 11  1  0
 10 12  1  0
 10 13  1  0
  9 14  2  0
 14 15  1  0
 15 16  1  0
 16 17  1  0
 17 18  1  0
 15 19  2  0
 20  2  1  1
 20 21  1  0
 21 22  1  0
 22 23  1  0
 23 24  1  0
 24 25  1  0
 25 26  1  0
 27 26  1  6
 27 28  1  0
 19  4  1  0
 28 20  1  0
 19  7  1  0
 27 23  1  0
 18 16  1  0
M  END
>  <energy_score>  (1735) 
-56.849128

>  <alias>  (1735) 
None

>  <HIPPO Pose ID>  (1735) 
72389

>  <smiles>  (1735) 
O=C(Nc1n[nH]c2nc(C(F)(F)F)cc(C3CC3)c12)[C@@H]1CCN2CCC[C@H]2C1

>  <inchikey>  (1735) 
QIDLDHQBBSWFAF-NEPJUHHUSA-N

>  <distance_score>  (1735) 
1.391295

>  <ref_mols>  (1735) 
Z0827a,Z0709a

>  <ref_pdb>  (1735) 
Z0709a

>  <HIPPO Compound ID>  (1735) 
145349

>  <name>  (1735) 
P72389

>  <inspiration_score>  (1735) 
None

$$$$
P72393
     RDKit          3D

 28 32  0  0  0  0  0  0  0  0999 V2000
   -2.1867    4.1646  -19.3066 O   0  0  0  0  0  0  0  0  0  0  0  0
   -1.8572    5.2694  -19.1241 C   0  0  0  0  0  0  0  0  0  0  0  0
   -2.4390    6.3463  -18.1760 N   0  0  0  0  0  0  0  0  0  0  0  0
   -3.5426    6.3178  -17.3716 C   0  0  0  0  0  0  0  0  0  0  0  0
   -3.4130    7.0788  -16.2773 N   0  0  0  0  0  0  0  0  0  0  0  0
   -4.5207    6.8297  -15.5759 N   0  0  0  0  0  0  0  0  0  0  0  0
   -5.4235    6.0606  -16.2263 C   0  0  0  0  0  0  0  0  0  0  0  0
   -6.6325    5.7585  -15.7410 N   0  0  0  0  0  0  0  0  0  0  0  0
   -7.3819    4.9941  -16.5755 C   0  0  0  0  0  0  0  0  0  0  0  0
   -8.7089    4.5118  -16.0280 C   0  0  0  0  0  0  0  0  0  0  0  0
   -9.5103    3.9062  -16.9451 F   0  0  0  0  0  0  0  0  0  0  0  0
   -9.4304    5.5327  -15.4787 F   0  0  0  0  0  0  0  0  0  0  0  0
   -8.5281    3.6230  -15.0170 F   0  0  0  0  0  0  0  0  0  0  0  0
   -6.9590    4.6197  -17.8496 C   0  0  0  0  0  0  0  0  0  0  0  0
   -5.6752    4.9793  -18.3150 C   0  0  0  0  0  0  0  0  0  0  0  0
   -5.1191    4.6439  -19.6473 C   0  0  0  0  0  0  0  0  0  0  0  0
   -5.2296    5.6322  -20.7772 C   0  0  0  0  0  0  0  0  0  0  0  0
   -5.9574    4.3215  -20.8370 C   0  0  0  0  0  0  0  0  0  0  0  0
   -4.8440    5.7062  -17.4352 C   0  0  0  0  0  0  0  0  0  0  0  0
   -0.6523    5.8771  -19.8704 C   0  0  2  0  0  0  0  0  0  0  0  0
    0.4587    6.3497  -18.9030 C   0  0  0  0  0  0  0  0  0  0  0  0
    0.7439    7.8503  -18.9668 C   0  0  1  0  0  0  0  0  0  0  0  0
    0.9159    8.2663  -20.4210 C   0  0  0  0  0  0  0  0  0  0  0  0
   -0.5463    8.2931  -20.8608 C   0  0  1  0  0  0  0  0  0  0  0  0
   -1.1075    6.8715  -20.9698 C   0  0  0  0  0  0  0  0  0  0  0  0
   -1.1643    8.9915  -19.6708 C   0  0  0  0  0  0  0  0  0  0  0  0
   -2.1583    9.6898  -19.6520 O   0  0  0  0  0  0  0  0  0  0  0  0
   -0.4154    8.6099  -18.5663 N   0  0  0  0  0  0  0  0  0  0  0  0
  1  2  2  0
  2  3  1  0
  3  4  1  0
  4  5  2  0
  5  6  1  0
  6  7  1  0
  7  8  2  0
  8  9  1  0
  9 10  1  0
 10 11  1  0
 10 12  1  0
 10 13  1  0
  9 14  2  0
 14 15  1  0
 15 16  1  0
 16 17  1  0
 17 18  1  0
 15 19  2  0
 20  2  1  1
 20 21  1  0
 22 21  1  6
 22 23  1  0
 23 24  1  0
 24 25  1  1
 24 26  1  0
 26 27  2  0
 26 28  1  0
 19  4  1  0
 25 20  1  0
 19  7  1  0
 28 22  1  0
 18 16  1  0
M  END
>  <energy_score>  (1736) 
-35.413997

>  <alias>  (1736) 
None

>  <HIPPO Pose ID>  (1736) 
72393

>  <smiles>  (1736) 
O=C(Nc1n[nH]c2nc(C(F)(F)F)cc(C3CC3)c12)[C@@H]1C[C@H]2C[C@@H](C1)C(=O)N2

>  <inchikey>  (1736) 
KEVSRWVFEQJNJW-KXUCPTDWSA-N

>  <distance_score>  (1736) 
1.526656

>  <ref_mols>  (1736) 
Z0827a,Z0709a

>  <ref_pdb>  (1736) 
Z0709a

>  <HIPPO Compound ID>  (1736) 
145350

>  <name>  (1736) 
P72393

>  <inspiration_score>  (1736) 
None

$$$$
P72395
     RDKit          3D

 28 32  0  0  0  0  0  0  0  0999 V2000
    3.3269    6.8013  -20.8115 C   0  0  0  0  0  0  0  0  0  0  0  0
    2.0515    6.9077  -20.1061 N   0  0  0  0  0  0  0  0  0  0  0  0
    1.1102    5.8342  -20.4651 C   0  0  2  0  0  0  0  0  0  0  0  0
    0.5222    6.2689  -21.8106 C   0  0  0  0  0  0  0  0  0  0  0  0
    0.6398    7.7941  -21.8039 C   0  0  0  0  0  0  0  0  0  0  0  0
    1.3055    8.1250  -20.4637 C   0  0  1  0  0  0  0  0  0  0  0  0
    0.2752    8.3334  -19.3404 C   0  0  0  0  0  0  0  0  0  0  0  0
   -0.6910    7.1381  -19.1807 C   0  0  2  0  0  0  0  0  0  0  0  0
   -1.3797    7.1677  -17.8075 C   0  0  0  0  0  0  0  0  0  0  0  0
   -0.9235    7.7115  -16.8777 O   0  0  0  0  0  0  0  0  0  0  0  0
   -2.6923    6.3372  -17.9488 N   0  0  0  0  0  0  0  0  0  0  0  0
   -3.6955    6.1036  -17.0496 C   0  0  0  0  0  0  0  0  0  0  0  0
   -3.5525    6.4448  -15.7701 N   0  0  0  0  0  0  0  0  0  0  0  0
   -4.7283    6.1385  -15.2140 N   0  0  0  0  0  0  0  0  0  0  0  0
   -5.6348    5.6337  -16.0878 C   0  0  0  0  0  0  0  0  0  0  0  0
   -6.8954    5.3078  -15.7842 N   0  0  0  0  0  0  0  0  0  0  0  0
   -7.5895    4.7877  -16.8320 C   0  0  0  0  0  0  0  0  0  0  0  0
   -9.0366    4.3961  -16.5790 C   0  0  0  0  0  0  0  0  0  0  0  0
   -9.2655    3.0632  -16.6890 F   0  0  0  0  0  0  0  0  0  0  0  0
   -9.4678    4.7642  -15.3375 F   0  0  0  0  0  0  0  0  0  0  0  0
   -9.8797    4.9671  -17.4766 F   0  0  0  0  0  0  0  0  0  0  0  0
   -7.0408    4.6140  -18.1121 C   0  0  0  0  0  0  0  0  0  0  0  0
   -5.7031    4.9762  -18.3787 C   0  0  0  0  0  0  0  0  0  0  0  0
   -4.9330    4.7870  -19.6490 C   0  0  0  0  0  0  0  0  0  0  0  0
   -5.5802    4.4710  -20.9588 C   0  0  0  0  0  0  0  0  0  0  0  0
   -5.0238    5.8427  -20.7248 C   0  0  0  0  0  0  0  0  0  0  0  0
   -4.9846    5.5339  -17.3039 C   0  0  0  0  0  0  0  0  0  0  0  0
    0.0340    5.7902  -19.3643 C   0  0  0  0  0  0  0  0  0  0  0  0
  1  2  1  0
  2  3  1  0
  3  4  1  6
  4  5  1  0
  6  5  1  6
  6  7  1  0
  7  8  1  0
  8  9  1  1
  9 10  2  0
  9 11  1  0
 11 12  1  0
 12 13  2  0
 13 14  1  0
 14 15  1  0
 15 16  2  0
 16 17  1  0
 17 18  1  0
 18 19  1  0
 18 20  1  0
 18 21  1  0
 17 22  2  0
 22 23  1  0
 23 24  1  0
 24 25  1  0
 25 26  1  0
 23 27  2  0
  8 28  1  0
  6  2  1  0
 27 12  1  0
 28  3  1  0
 27 15  1  0
 26 24  1  0
M  END
>  <energy_score>  (1737) 
-45.846363

>  <alias>  (1737) 
None

>  <HIPPO Pose ID>  (1737) 
72395

>  <smiles>  (1737) 
CN1[C@@H]2CC[C@H]1C[C@H](C(=O)Nc1n[nH]c3nc(C(F)(F)F)cc(C4CC4)c13)C2

>  <inchikey>  (1737) 
HJYXOVVFFAGJPL-CNDDSTCGSA-N

>  <distance_score>  (1737) 
1.5101

>  <ref_mols>  (1737) 
Z0827a,Z0709a

>  <ref_pdb>  (1737) 
Z0709a

>  <HIPPO Compound ID>  (1737) 
145351

>  <name>  (1737) 
P72395

>  <inspiration_score>  (1737) 
None

$$$$
P72396
     RDKit          3D

 28 32  0  0  0  0  0  0  0  0999 V2000
    1.8854    5.2290  -24.0096 O   0  0  0  0  0  0  0  0  0  0  0  0
    0.9914    5.5554  -23.2483 C   0  0  0  0  0  0  0  0  0  0  0  0
   -0.4886    5.5096  -23.5127 C   0  0  0  0  0  0  0  0  0  0  0  0
   -1.1302    5.5987  -22.1227 C   0  0  0  0  0  0  0  0  0  0  0  0
   -0.0671    6.2264  -21.2256 C   0  0  1  0  0  0  0  0  0  0  0  0
   -0.3291    7.6480  -20.6811 C   0  0  0  0  0  0  0  0  0  0  0  0
   -0.7446    7.0126  -19.3254 C   0  0  1  0  0  0  0  0  0  0  0  0
   -2.2741    6.8316  -19.0224 C   0  0  0  0  0  0  0  0  0  0  0  0
   -3.1116    7.2699  -19.7087 O   0  0  0  0  0  0  0  0  0  0  0  0
   -2.3762    5.9930  -17.7298 N   0  0  0  0  0  0  0  0  0  0  0  0
   -3.4650    5.6197  -17.0000 C   0  0  0  0  0  0  0  0  0  0  0  0
   -3.2265    5.4572  -15.6950 N   0  0  0  0  0  0  0  0  0  0  0  0
   -4.4470    5.2999  -15.1685 N   0  0  0  0  0  0  0  0  0  0  0  0
   -5.4375    5.2207  -16.0906 C   0  0  0  0  0  0  0  0  0  0  0  0
   -6.7242    5.0142  -15.7929 N   0  0  0  0  0  0  0  0  0  0  0  0
   -7.5131    4.8266  -16.8804 C   0  0  0  0  0  0  0  0  0  0  0  0
   -8.9832    4.5361  -16.6167 C   0  0  0  0  0  0  0  0  0  0  0  0
   -9.2461    3.2197  -16.4157 F   0  0  0  0  0  0  0  0  0  0  0  0
   -9.7879    4.9029  -17.6472 F   0  0  0  0  0  0  0  0  0  0  0  0
   -9.4345    5.1954  -15.5092 F   0  0  0  0  0  0  0  0  0  0  0  0
   -7.0195    4.8475  -18.1922 C   0  0  0  0  0  0  0  0  0  0  0  0
   -5.6452    5.0798  -18.4567 C   0  0  0  0  0  0  0  0  0  0  0  0
   -4.9436    4.9287  -19.7788 C   0  0  0  0  0  0  0  0  0  0  0  0
   -5.2699    5.8352  -20.9350 C   0  0  0  0  0  0  0  0  0  0  0  0
   -5.6526    4.3890  -20.9862 C   0  0  0  0  0  0  0  0  0  0  0  0
   -4.8306    5.3347  -17.3314 C   0  0  0  0  0  0  0  0  0  0  0  0
    0.0296    5.7418  -19.7620 C   0  0  0  0  0  0  0  0  0  0  0  0
    1.1703    6.0814  -21.9901 N   0  0  0  0  0  0  0  0  0  0  0  0
  1  2  2  0
  2  3  1  0
  3  4  1  0
  5  4  1  6
  5  6  1  0
  6  7  1  0
  7  8  1  6
  8  9  2  0
  8 10  1  0
 10 11  1  0
 11 12  2  0
 12 13  1  0
 13 14  1  0
 14 15  2  0
 15 16  1  0
 16 17  1  0
 17 18  1  0
 17 19  1  0
 17 20  1  0
 16 21  2  0
 21 22  1  0
 22 23  1  0
 23 24  1  0
 24 25  1  0
 22 26  2  0
  7 27  1  0
  5 28  1  0
 28  2  1  0
 27  5  1  0
 26 11  1  0
 26 14  1  0
 25 23  1  0
M  END
>  <energy_score>  (1738) 
-46.561318

>  <alias>  (1738) 
None

>  <HIPPO Pose ID>  (1738) 
72396

>  <smiles>  (1738) 
O=C1CC[C@]2(C[C@@H](C(=O)Nc3n[nH]c4nc(C(F)(F)F)cc(C5CC5)c34)C2)N1

>  <inchikey>  (1738) 
NOQZEYNJDYOKGK-DBGHOVABSA-N

>  <distance_score>  (1738) 
1.533892

>  <ref_mols>  (1738) 
Z0827a,Z0709a

>  <ref_pdb>  (1738) 
Z0709a

>  <HIPPO Compound ID>  (1738) 
145352

>  <name>  (1738) 
P72396

>  <inspiration_score>  (1738) 
None

$$$$
P72398
     RDKit          3D

 28 31  0  0  0  0  0  0  0  0999 V2000
   -6.3490    4.3530  -20.2212 C   0  0  0  0  0  0  0  0  0  0  0  0
   -6.2707    4.7025  -18.7765 C   0  0  0  0  0  0  0  0  0  0  0  0
   -7.4579    4.5769  -18.0196 C   0  0  0  0  0  0  0  0  0  0  0  0
   -7.4649    4.8276  -16.6509 C   0  0  0  0  0  0  0  0  0  0  0  0
   -8.7352    4.5859  -15.8593 C   0  0  0  0  0  0  0  0  0  0  0  0
   -9.6506    3.8408  -16.5372 F   0  0  0  0  0  0  0  0  0  0  0  0
   -9.3524    5.7516  -15.5071 F   0  0  0  0  0  0  0  0  0  0  0  0
   -8.5047    3.9452  -14.6798 F   0  0  0  0  0  0  0  0  0  0  0  0
   -6.3769    5.2768  -15.9804 N   0  0  0  0  0  0  0  0  0  0  0  0
   -5.2771    5.3797  -16.7422 C   0  0  0  0  0  0  0  0  0  0  0  0
   -4.0738    5.7651  -16.2611 N   0  0  0  0  0  0  0  0  0  0  0  0
   -3.1135    5.8233  -17.1831 N   0  0  0  0  0  0  0  0  0  0  0  0
   -3.7089    5.4288  -18.3215 C   0  0  0  0  0  0  0  0  0  0  0  0
   -2.8268    5.4513  -19.3726 N   0  0  0  0  0  0  0  0  0  0  0  0
   -3.0410    5.1247  -20.8790 C   0  0  0  0  0  0  0  0  0  0  0  0
   -3.9805    4.7135  -21.4379 O   0  0  0  0  0  0  0  0  0  0  0  0
   -1.7163    5.4892  -21.5986 C   0  0  2  0  0  0  0  0  0  0  0  0
   -1.4769    7.0175  -21.5870 C   0  0  0  0  0  0  0  0  0  0  0  0
   -1.9976    7.7403  -22.8480 C   0  0  1  0  0  0  0  0  0  0  0  0
   -0.9514    7.7781  -23.9711 C   0  0  0  0  0  0  0  0  0  0  0  0
   -1.3062    6.6039  -24.8715 C   0  0  0  0  0  0  0  0  0  0  0  0
   -2.3735    5.8516  -24.0790 C   0  0  1  0  0  0  0  0  0  0  0  0
   -1.7148    4.9165  -23.0312 C   0  0  0  0  0  0  0  0  0  0  0  0
   -3.1049    6.9279  -23.3805 N   0  0  0  0  0  0  0  0  0  0  0  0
   -4.0832    7.6865  -24.1849 C   0  0  0  0  0  0  0  0  0  0  0  0
   -5.0832    6.7749  -24.9136 C   0  0  0  0  0  0  0  0  0  0  0  0
   -4.9035    8.6122  -23.2685 C   0  0  0  0  0  0  0  0  0  0  0  0
   -5.1032    5.1267  -18.1019 C   0  0  0  0  0  0  0  0  0  0  0  0
  1  2  1  0
  2  3  2  0
  3  4  1  0
  4  5  1  0
  5  6  1  0
  5  7  1  0
  5  8  1  0
  4  9  2  0
  9 10  1  0
 10 11  1  0
 11 12  1  0
 12 13  2  0
 13 14  1  0
 14 15  1  0
 15 16  2  0
 17 15  1  6
 17 18  1  0
 19 18  1  1
 19 20  1  0
 20 21  1  0
 22 21  1  6
 22 23  1  0
 22 24  1  0
 24 25  1  0
 25 26  1  0
 25 27  1  0
 13 28  1  0
 28  2  1  0
 28 10  2  0
 23 17  1  0
 24 19  1  0
M  END
>  <energy_score>  (1739) 
-45.358278

>  <alias>  (1739) 
None

>  <HIPPO Pose ID>  (1739) 
72398

>  <smiles>  (1739) 
Cc1cc(C(F)(F)F)nc2[nH]nc(NC(=O)[C@@H]3C[C@H]4CC[C@@H](C3)N4C(C)C)c12

>  <inchikey>  (1739) 
OXOUXIVCFSHUBX-XYYAHUGASA-N

>  <distance_score>  (1739) 
0.94106

>  <ref_mols>  (1739) 
Z0827a,Z0709a

>  <ref_pdb>  (1739) 
Z0709a

>  <HIPPO Compound ID>  (1739) 
145353

>  <name>  (1739) 
P72398

>  <inspiration_score>  (1739) 
None

$$$$
P72400
     RDKit          3D

 28 31  0  0  0  0  0  0  0  0999 V2000
   -4.5520    7.0545  -26.4224 C   0  0  0  0  0  0  0  0  0  0  0  0
   -3.1109    6.7787  -26.0172 C   0  0  0  0  0  0  0  0  0  0  0  0
   -2.8131    7.3291  -24.6173 C   0  0  0  0  0  0  0  0  0  0  0  0
   -1.4159    7.1378  -24.2261 N   0  0  0  0  0  0  0  0  0  0  0  0
   -1.0458    7.7351  -22.9375 C   0  0  2  0  0  0  0  0  0  0  0  0
    0.4265    7.3206  -22.8496 C   0  0  0  0  0  0  0  0  0  0  0  0
    0.4984    6.0005  -23.6197 C   0  0  0  0  0  0  0  0  0  0  0  0
   -0.9343    5.7565  -24.1065 C   0  0  1  0  0  0  0  0  0  0  0  0
   -1.7593    4.9565  -23.0885 C   0  0  0  0  0  0  0  0  0  0  0  0
   -1.8181    5.6114  -21.6893 C   0  0  2  0  0  0  0  0  0  0  0  0
   -3.0520    5.1139  -20.9147 C   0  0  0  0  0  0  0  0  0  0  0  0
   -3.9468    4.5727  -21.4337 O   0  0  0  0  0  0  0  0  0  0  0  0
   -2.8551    5.5395  -19.4335 N   0  0  0  0  0  0  0  0  0  0  0  0
   -3.7146    5.4738  -18.3650 C   0  0  0  0  0  0  0  0  0  0  0  0
   -3.1096    5.8611  -17.2299 N   0  0  0  0  0  0  0  0  0  0  0  0
   -4.0567    5.7778  -16.2951 N   0  0  0  0  0  0  0  0  0  0  0  0
   -5.2627    5.3867  -16.7660 C   0  0  0  0  0  0  0  0  0  0  0  0
   -6.3549    5.2713  -15.9945 N   0  0  0  0  0  0  0  0  0  0  0  0
   -7.4476    4.8212  -16.6570 C   0  0  0  0  0  0  0  0  0  0  0  0
   -8.7130    4.5743  -15.8572 C   0  0  0  0  0  0  0  0  0  0  0  0
   -9.6319    3.8306  -16.5323 F   0  0  0  0  0  0  0  0  0  0  0  0
   -8.4738    3.9296  -14.6819 F   0  0  0  0  0  0  0  0  0  0  0  0
   -9.3307    5.7378  -15.4981 F   0  0  0  0  0  0  0  0  0  0  0  0
   -7.4498    4.5743  -18.0264 C   0  0  0  0  0  0  0  0  0  0  0  0
   -6.2706    4.7128  -18.7941 C   0  0  0  0  0  0  0  0  0  0  0  0
   -6.3571    4.3577  -20.2367 C   0  0  0  0  0  0  0  0  0  0  0  0
   -5.1007    5.1454  -18.1294 C   0  0  0  0  0  0  0  0  0  0  0  0
   -1.8555    7.1541  -21.7650 C   0  0  0  0  0  0  0  0  0  0  0  0
  1  2  1  0
  2  3  1  0
  3  4  1  0
  4  5  1  0
  5  6  1  1
  6  7  1  0
  8  7  1  1
  8  9  1  0
  9 10  1  0
 10 11  1  6
 11 12  2  0
 11 13  1  0
 13 14  1  0
 14 15  2  0
 15 16  1  0
 16 17  1  0
 17 18  2  0
 18 19  1  0
 19 20  1  0
 20 21  1  0
 20 22  1  0
 20 23  1  0
 19 24  2  0
 24 25  1  0
 25 26  1  0
 25 27  2  0
 10 28  1  0
  8  4  1  0
 27 14  1  0
 28  5  1  0
 27 17  1  0
M  END
>  <energy_score>  (1740) 
-50.401677

>  <alias>  (1740) 
None

>  <HIPPO Pose ID>  (1740) 
72400

>  <smiles>  (1740) 
CCCN1[C@@H]2CC[C@H]1C[C@H](C(=O)Nc1n[nH]c3nc(C(F)(F)F)cc(C)c13)C2

>  <inchikey>  (1740) 
YJIOWLPEMZCYRH-XYYAHUGASA-N

>  <distance_score>  (1740) 
0.948067

>  <ref_mols>  (1740) 
Z0827a,Z0709a

>  <ref_pdb>  (1740) 
Z0709a

>  <HIPPO Compound ID>  (1740) 
145354

>  <name>  (1740) 
P72400

>  <inspiration_score>  (1740) 
None

$$$$
P72401
     RDKit          3D

 28 32  0  0  0  0  0  0  0  0999 V2000
   -6.0770    4.5967  -20.1581 C   0  0  0  0  0  0  0  0  0  0  0  0
   -6.1753    4.8280  -18.6900 C   0  0  0  0  0  0  0  0  0  0  0  0
   -7.4003    4.6620  -18.0173 C   0  0  0  0  0  0  0  0  0  0  0  0
   -7.4707    4.8092  -16.6261 C   0  0  0  0  0  0  0  0  0  0  0  0
   -8.7915    4.5808  -15.9190 C   0  0  0  0  0  0  0  0  0  0  0  0
   -8.6461    3.9428  -14.7267 F   0  0  0  0  0  0  0  0  0  0  0  0
   -9.4089    5.7571  -15.6102 F   0  0  0  0  0  0  0  0  0  0  0  0
   -9.6692    3.8479  -16.6561 F   0  0  0  0  0  0  0  0  0  0  0  0
   -6.4093    5.1611  -15.8498 N   0  0  0  0  0  0  0  0  0  0  0  0
   -5.2711    5.3081  -16.5392 C   0  0  0  0  0  0  0  0  0  0  0  0
   -4.0566    5.5877  -16.0006 N   0  0  0  0  0  0  0  0  0  0  0  0
   -3.0795    5.7136  -16.9073 N   0  0  0  0  0  0  0  0  0  0  0  0
   -3.6886    5.5223  -18.0790 C   0  0  0  0  0  0  0  0  0  0  0  0
   -3.0179    5.6967  -19.2593 N   0  0  0  0  0  0  0  0  0  0  0  0
   -1.5054    5.9326  -19.5358 C   0  0  0  0  0  0  0  0  0  0  0  0
   -0.5924    5.9367  -18.8038 O   0  0  0  0  0  0  0  0  0  0  0  0
   -1.3146    6.3034  -21.0190 C   0  0  1  0  0  0  0  0  0  0  0  0
   -1.8109    5.2710  -22.0492 C   0  0  0  0  0  0  0  0  0  0  0  0
   -2.5788    5.8451  -23.2533 C   0  0  1  0  0  0  0  0  0  0  0  0
   -4.0317    6.1519  -22.9017 C   0  0  0  0  0  0  0  0  0  0  0  0
   -4.0037    7.5634  -22.3232 C   0  0  0  0  0  0  0  0  0  0  0  0
   -2.5553    8.0265  -22.5159 C   0  0  1  0  0  0  0  0  0  0  0  0
   -1.7213    7.7730  -21.2562 C   0  0  0  0  0  0  0  0  0  0  0  0
   -2.1394    7.1837  -23.6369 N   0  0  0  0  0  0  0  0  0  0  0  0
   -0.7600    7.3186  -24.1012 C   0  0  0  0  0  0  0  0  0  0  0  0
   -0.4154    8.4506  -25.0298 C   0  0  0  0  0  0  0  0  0  0  0  0
   -0.4578    7.0439  -25.5492 C   0  0  0  0  0  0  0  0  0  0  0  0
   -5.0691    5.1967  -17.9038 C   0  0  0  0  0  0  0  0  0  0  0  0
  1  2  1  0
  2  3  2  0
  3  4  1  0
  4  5  1  0
  5  6  1  0
  5  7  1  0
  5  8  1  0
  4  9  2  0
  9 10  1  0
 10 11  1  0
 11 12  1  0
 12 13  2  0
 13 14  1  0
 14 15  1  0
 15 16  2  0
 17 15  1  1
 17 18  1  0
 19 18  1  1
 19 20  1  0
 20 21  1  0
 22 21  1  1
 22 23  1  0
 22 24  1  0
 24 25  1  0
 25 26  1  0
 26 27  1  0
 13 28  1  0
 28  2  1  0
 28 10  2  0
 23 17  1  0
 27 25  1  0
 24 19  1  0
M  END
>  <energy_score>  (1741) 
-51.021936

>  <alias>  (1741) 
None

>  <HIPPO Pose ID>  (1741) 
72401

>  <smiles>  (1741) 
Cc1cc(C(F)(F)F)nc2[nH]nc(NC(=O)[C@H]3C[C@H]4CC[C@@H](C3)N4C3CC3)c12

>  <inchikey>  (1741) 
WJBUDHAHBVTGEN-LMKPVCQUSA-N

>  <distance_score>  (1741) 
1.017972

>  <ref_mols>  (1741) 
Z0827a,Z0709a

>  <ref_pdb>  (1741) 
Z0709a

>  <HIPPO Compound ID>  (1741) 
145355

>  <name>  (1741) 
P72401

>  <inspiration_score>  (1741) 
None

$$$$
P72403
     RDKit          3D

 29 33  0  0  0  0  0  0  0  0999 V2000
   -3.1215    4.5859  -20.6796 O   0  0  0  0  0  0  0  0  0  0  0  0
   -2.3248    5.0345  -19.9482 C   0  0  0  0  0  0  0  0  0  0  0  0
   -2.3961    5.2933  -18.4119 N   0  0  0  0  0  0  0  0  0  0  0  0
   -3.4343    5.1490  -17.5348 C   0  0  0  0  0  0  0  0  0  0  0  0
   -3.0810    5.0421  -16.2479 N   0  0  0  0  0  0  0  0  0  0  0  0
   -4.2372    4.7981  -15.6154 N   0  0  0  0  0  0  0  0  0  0  0  0
   -5.3280    4.8449  -16.4189 C   0  0  0  0  0  0  0  0  0  0  0  0
   -6.5904    4.6788  -16.0004 N   0  0  0  0  0  0  0  0  0  0  0  0
   -7.5122    4.7849  -16.9925 C   0  0  0  0  0  0  0  0  0  0  0  0
   -8.9683    4.5418  -16.6180 C   0  0  0  0  0  0  0  0  0  0  0  0
   -9.8343    4.8507  -17.6192 F   0  0  0  0  0  0  0  0  0  0  0  0
   -9.3425    5.2889  -15.5365 F   0  0  0  0  0  0  0  0  0  0  0  0
   -9.2402    3.2497  -16.3063 F   0  0  0  0  0  0  0  0  0  0  0  0
   -7.1793    5.1748  -18.2959 C   0  0  0  0  0  0  0  0  0  0  0  0
   -5.8384    5.4369  -18.6540 C   0  0  0  0  0  0  0  0  0  0  0  0
   -5.4066    6.1388  -19.9084 C   0  0  0  0  0  0  0  0  0  0  0  0
   -4.4500    7.3285  -19.8164 C   0  0  0  0  0  0  0  0  0  0  0  0
   -5.8663    7.5496  -20.1770 C   0  0  0  0  0  0  0  0  0  0  0  0
   -4.8579    5.1366  -17.6900 C   0  0  0  0  0  0  0  0  0  0  0  0
   -0.8707    5.3988  -20.3848 C   0  0  1  0  0  0  0  0  0  0  0  0
   -0.7326    5.5129  -21.9035 C   0  0  0  0  0  0  0  0  0  0  0  0
   -1.4219    6.7886  -22.3365 C   0  0  2  0  0  0  0  0  0  0  0  0
   -1.1484    7.2205  -23.7757 C   0  0  0  0  0  0  0  0  0  0  0  0
   -1.4457    8.7187  -23.7183 C   0  0  0  0  0  0  0  0  0  0  0  0
   -0.8868    9.1291  -22.3603 C   0  0  0  0  0  0  0  0  0  0  0  0
   -0.9823    7.9285  -21.5522 N   0  0  0  0  0  0  0  0  0  0  0  0
   -0.4730    7.8619  -20.2883 C   0  0  0  0  0  0  0  0  0  0  0  0
   -0.0471    8.8303  -19.6680 O   0  0  0  0  0  0  0  0  0  0  0  0
   -0.3922    6.6178  -19.7399 N   0  0  0  0  0  0  0  0  0  0  0  0
  1  2  2  0
  2  3  1  0
  3  4  1  0
  4  5  2  0
  5  6  1  0
  6  7  1  0
  7  8  2  0
  8  9  1  0
  9 10  1  0
 10 11  1  0
 10 12  1  0
 10 13  1  0
  9 14  2  0
 14 15  1  0
 15 16  1  0
 16 17  1  0
 17 18  1  0
 15 19  2  0
 20  2  1  6
 20 21  1  0
 22 21  1  1
 22 23  1  0
 23 24  1  0
 24 25  1  0
 25 26  1  0
 26 27  1  0
 27 28  2  0
 27 29  1  0
 19  4  1  0
 29 20  1  0
 19  7  1  0
 26 22  1  0
 18 16  1  0
M  END
>  <energy_score>  (1742) 
-67.448658

>  <alias>  (1742) 
None

>  <HIPPO Pose ID>  (1742) 
72403

>  <smiles>  (1742) 
O=C(Nc1n[nH]c2nc(C(F)(F)F)cc(C3CC3)c12)[C@H]1C[C@@H]2CCCN2C(=O)N1

>  <inchikey>  (1742) 
BVKNWXKPHIQHPF-GXSJLCMTSA-N

>  <distance_score>  (1742) 
1.440978

>  <ref_mols>  (1742) 
Z0827a,Z0709a

>  <ref_pdb>  (1742) 
Z0709a

>  <HIPPO Compound ID>  (1742) 
145356

>  <name>  (1742) 
P72403

>  <inspiration_score>  (1742) 
None

$$$$
P72404
     RDKit          3D

 29 32  0  0  0  0  0  0  0  0999 V2000
    1.0446    5.2192  -15.3451 C   0  0  0  0  0  0  0  0  0  0  0  0
    1.4389    5.8744  -16.6266 C   0  0  0  0  0  0  0  0  0  0  0  0
    0.5742    6.1899  -17.6038 C   0  0  0  0  0  0  0  0  0  0  0  0
    1.0519    6.8791  -18.8398 C   0  0  0  0  0  0  0  0  0  0  0  0
    2.1590    7.2549  -18.9639 O   0  0  0  0  0  0  0  0  0  0  0  0
   -0.1442    7.0322  -19.7579 N   0  0  0  0  0  0  0  0  0  0  0  0
   -0.2992    7.7944  -21.0499 C   0  0  1  0  0  0  0  0  0  0  0  0
    0.8650    7.4492  -21.9771 C   0  0  0  0  0  0  0  0  0  0  0  0
    0.9176    5.9720  -21.7380 C   0  0  0  0  0  0  0  0  0  0  0  0
   -0.2433    5.8607  -20.7447 C   0  0  2  0  0  0  0  0  0  0  0  0
   -1.5999    5.9588  -21.4564 C   0  0  1  0  0  0  0  0  0  0  0  0
   -2.8047    5.3872  -20.6979 C   0  0  0  0  0  0  0  0  0  0  0  0
   -3.5576    4.6677  -21.2263 O   0  0  0  0  0  0  0  0  0  0  0  0
   -2.8362    6.0076  -19.2786 N   0  0  0  0  0  0  0  0  0  0  0  0
   -3.7056    5.8064  -18.2374 C   0  0  0  0  0  0  0  0  0  0  0  0
   -3.1851    6.2253  -17.0730 N   0  0  0  0  0  0  0  0  0  0  0  0
   -4.1470    6.0090  -16.1772 N   0  0  0  0  0  0  0  0  0  0  0  0
   -5.2938    5.5298  -16.7085 C   0  0  0  0  0  0  0  0  0  0  0  0
   -6.4055    5.3235  -15.9895 N   0  0  0  0  0  0  0  0  0  0  0  0
   -7.4374    4.8213  -16.7087 C   0  0  0  0  0  0  0  0  0  0  0  0
   -8.7205    4.5194  -15.9598 C   0  0  0  0  0  0  0  0  0  0  0  0
   -8.4979    3.8214  -14.8129 F   0  0  0  0  0  0  0  0  0  0  0  0
   -9.3551    5.6596  -15.5569 F   0  0  0  0  0  0  0  0  0  0  0  0
   -9.6188    3.8030  -16.6885 F   0  0  0  0  0  0  0  0  0  0  0  0
   -7.3590    4.5873  -18.0799 C   0  0  0  0  0  0  0  0  0  0  0  0
   -6.1584    4.8214  -18.7938 C   0  0  0  0  0  0  0  0  0  0  0  0
   -6.1458    4.4933  -20.2482 C   0  0  0  0  0  0  0  0  0  0  0  0
   -5.0570    5.3298  -18.0668 C   0  0  0  0  0  0  0  0  0  0  0  0
   -1.6583    7.4489  -21.6447 C   0  0  0  0  0  0  0  0  0  0  0  0
  1  2  1  0
  2  3  2  0
  3  4  1  0
  4  5  2  0
  4  6  1  0
  6  7  1  0
  7  8  1  6
  8  9  1  0
 10  9  1  6
 10 11  1  0
 11 12  1  1
 12 13  2  0
 12 14  1  0
 14 15  1  0
 15 16  2  0
 16 17  1  0
 17 18  1  0
 18 19  2  0
 19 20  1  0
 20 21  1  0
 21 22  1  0
 21 23  1  0
 21 24  1  0
 20 25  2  0
 25 26  1  0
 26 27  1  0
 26 28  2  0
 11 29  1  0
 10  6  1  0
 28 15  1  0
 29  7  1  0
 28 18  1  0
M  END
>  <energy_score>  (1743) 
-33.872273

>  <alias>  (1743) 
None

>  <HIPPO Pose ID>  (1743) 
72404

>  <smiles>  (1743) 
C/C=C/C(=O)N1[C@H]2CC[C@@H]1[C@@H](C(=O)Nc1n[nH]c3nc(C(F)(F)F)cc(C)c13)C2

>  <inchikey>  (1743) 
PAVABILVEILPQX-JJVHAXESSA-N

>  <distance_score>  (1743) 
1.029612

>  <ref_mols>  (1743) 
Z0827a,Z0709a

>  <ref_pdb>  (1743) 
Z0709a

>  <HIPPO Compound ID>  (1743) 
145357

>  <name>  (1743) 
P72404

>  <inspiration_score>  (1743) 
None

$$$$
P72405
     RDKit          3D

 30 34  0  0  0  0  0  0  0  0999 V2000
    0.6007    9.0621  -22.4249 C   0  0  0  0  0  0  0  0  0  0  0  0
    1.5866    7.9190  -22.1898 C   0  0  0  0  0  0  0  0  0  0  0  0
    2.9949    8.3884  -22.5818 C   0  0  0  0  0  0  0  0  0  0  0  0
    1.6699    7.3498  -20.8552 N   0  0  0  0  0  0  0  0  0  0  0  0
    1.6316    8.1405  -19.6363 C   0  0  2  0  0  0  0  0  0  0  0  0
    2.1183    7.0689  -18.6531 C   0  0  0  0  0  0  0  0  0  0  0  0
    1.5739    5.7503  -19.2159 C   0  0  0  0  0  0  0  0  0  0  0  0
    0.9221    6.1389  -20.5485 C   0  0  1  0  0  0  0  0  0  0  0  0
   -0.5768    6.4277  -20.3955 C   0  0  0  0  0  0  0  0  0  0  0  0
   -0.9035    7.5698  -19.4104 C   0  0  1  0  0  0  0  0  0  0  0  0
   -1.3429    7.0173  -18.0366 C   0  0  0  0  0  0  0  0  0  0  0  0
   -0.6798    7.0866  -17.0756 O   0  0  0  0  0  0  0  0  0  0  0  0
   -2.7649    6.4097  -18.2413 N   0  0  0  0  0  0  0  0  0  0  0  0
   -3.6426    5.8821  -17.3362 C   0  0  0  0  0  0  0  0  0  0  0  0
   -3.2953    5.7263  -16.0590 N   0  0  0  0  0  0  0  0  0  0  0  0
   -4.4124    5.2922  -15.4674 N   0  0  0  0  0  0  0  0  0  0  0  0
   -5.4698    5.1742  -16.3096 C   0  0  0  0  0  0  0  0  0  0  0  0
   -6.7102    4.8410  -15.9350 N   0  0  0  0  0  0  0  0  0  0  0  0
   -7.5865    4.7498  -16.9680 C   0  0  0  0  0  0  0  0  0  0  0  0
   -9.0311    4.4217  -16.6246 C   0  0  0  0  0  0  0  0  0  0  0  0
   -9.4022    4.9314  -15.4131 F   0  0  0  0  0  0  0  0  0  0  0  0
   -9.9045    4.9211  -17.5382 F   0  0  0  0  0  0  0  0  0  0  0  0
   -9.2911    3.0919  -16.5855 F   0  0  0  0  0  0  0  0  0  0  0  0
   -7.2231    4.9749  -18.3041 C   0  0  0  0  0  0  0  0  0  0  0  0
   -5.9075    5.3600  -18.6470 C   0  0  0  0  0  0  0  0  0  0  0  0
   -5.4567    5.7137  -20.0371 C   0  0  0  0  0  0  0  0  0  0  0  0
   -4.2295    5.0845  -20.6636 C   0  0  0  0  0  0  0  0  0  0  0  0
   -5.5833    4.6921  -21.1422 C   0  0  0  0  0  0  0  0  0  0  0  0
   -4.9966    5.4754  -17.5761 C   0  0  0  0  0  0  0  0  0  0  0  0
    0.2173    8.6272  -19.2747 C   0  0  0  0  0  0  0  0  0  0  0  0
  1  2  1  0
  2  3  1  0
  2  4  1  0
  4  5  1  0
  5  6  1  1
  6  7  1  0
  8  7  1  1
  8  9  1  0
  9 10  1  0
 10 11  1  1
 11 12  2  0
 11 13  1  0
 13 14  1  0
 14 15  2  0
 15 16  1  0
 16 17  1  0
 17 18  2  0
 18 19  1  0
 19 20  1  0
 20 21  1  0
 20 22  1  0
 20 23  1  0
 19 24  2  0
 24 25  1  0
 25 26  1  0
 26 27  1  0
 27 28  1  0
 25 29  2  0
 10 30  1  0
  8  4  1  0
 29 14  1  0
 30  5  1  0
 29 17  1  0
 28 26  1  0
M  END
>  <energy_score>  (1744) 
-53.936338

>  <alias>  (1744) 
None

>  <HIPPO Pose ID>  (1744) 
72405

>  <smiles>  (1744) 
CC(C)N1[C@@H]2CC[C@H]1C[C@@H](C(=O)Nc1n[nH]c3nc(C(F)(F)F)cc(C4CC4)c13)C2

>  <inchikey>  (1744) 
SGNOYYSNIQFAOJ-BTTYYORXSA-N

>  <distance_score>  (1744) 
1.386876

>  <ref_mols>  (1744) 
Z0827a,Z0709a

>  <ref_pdb>  (1744) 
Z0709a

>  <HIPPO Compound ID>  (1744) 
145358

>  <name>  (1744) 
P72405

>  <inspiration_score>  (1744) 
None

$$$$
P72407
     RDKit          3D

 30 34  0  0  0  0  0  0  0  0999 V2000
    1.7127    8.6254  -26.3702 C   0  0  0  0  0  0  0  0  0  0  0  0
    0.9689    8.5828  -25.0431 C   0  0  0  0  0  0  0  0  0  0  0  0
    0.7997    7.1416  -24.5469 C   0  0  0  0  0  0  0  0  0  0  0  0
    0.1684    7.0993  -23.2187 N   0  0  0  0  0  0  0  0  0  0  0  0
    0.2220    5.7423  -22.6287 C   0  0  2  0  0  0  0  0  0  0  0  0
   -0.9316    4.9780  -23.2847 C   0  0  0  0  0  0  0  0  0  0  0  0
   -1.9209    6.0548  -23.7080 C   0  0  0  0  0  0  0  0  0  0  0  0
   -1.2825    7.3586  -23.2360 C   0  0  1  0  0  0  0  0  0  0  0  0
   -1.6779    7.7238  -21.7953 C   0  0  0  0  0  0  0  0  0  0  0  0
   -1.1702    6.7567  -20.7013 C   0  0  1  0  0  0  0  0  0  0  0  0
   -2.3105    5.8491  -20.1726 C   0  0  0  0  0  0  0  0  0  0  0  0
   -2.9600    5.1771  -20.8731 O   0  0  0  0  0  0  0  0  0  0  0  0
   -2.4275    6.1216  -18.6464 N   0  0  0  0  0  0  0  0  0  0  0  0
   -3.3695    5.7206  -17.7444 C   0  0  0  0  0  0  0  0  0  0  0  0
   -2.8862    5.5239  -16.5115 N   0  0  0  0  0  0  0  0  0  0  0  0
   -3.9122    4.9839  -15.8527 N   0  0  0  0  0  0  0  0  0  0  0  0
   -5.0759    4.9978  -16.5435 C   0  0  0  0  0  0  0  0  0  0  0  0
   -6.2435    4.6291  -16.0050 N   0  0  0  0  0  0  0  0  0  0  0  0
   -7.2964    4.7307  -16.8431 C   0  0  0  0  0  0  0  0  0  0  0  0
   -8.6683    4.4158  -16.2741 C   0  0  0  0  0  0  0  0  0  0  0  0
   -9.5057    3.8118  -17.1591 F   0  0  0  0  0  0  0  0  0  0  0  0
   -8.6170    3.6207  -15.1756 F   0  0  0  0  0  0  0  0  0  0  0  0
   -9.2975    5.5520  -15.8509 F   0  0  0  0  0  0  0  0  0  0  0  0
   -7.1819    5.2873  -18.1153 C   0  0  0  0  0  0  0  0  0  0  0  0
   -5.9469    5.8273  -18.5821 C   0  0  0  0  0  0  0  0  0  0  0  0
   -6.0234    6.9408  -19.5981 C   0  0  0  0  0  0  0  0  0  0  0  0
   -5.4169    6.9194  -20.9627 C   0  0  0  0  0  0  0  0  0  0  0  0
   -4.9394    7.9150  -19.9401 C   0  0  0  0  0  0  0  0  0  0  0  0
   -4.7997    5.5304  -17.8008 C   0  0  0  0  0  0  0  0  0  0  0  0
    0.0518    5.9262  -21.1100 C   0  0  0  0  0  0  0  0  0  0  0  0
  1  2  1  0
  2  3  1  0
  3  4  1  0
  4  5  1  0
  5  6  1  6
  6  7  1  0
  8  7  1  1
  8  9  1  0
  9 10  1  0
 10 11  1  6
 11 12  2  0
 11 13  1  0
 13 14  1  0
 14 15  2  0
 15 16  1  0
 16 17  1  0
 17 18  2  0
 18 19  1  0
 19 20  1  0
 20 21  1  0
 20 22  1  0
 20 23  1  0
 19 24  2  0
 24 25  1  0
 25 26  1  0
 26 27  1  0
 27 28  1  0
 25 29  2  0
 10 30  1  0
  8  4  1  0
 29 14  1  0
 30  5  1  0
 29 17  1  0
 28 26  1  0
M  END
>  <energy_score>  (1745) 
-22.648113

>  <alias>  (1745) 
None

>  <HIPPO Pose ID>  (1745) 
72407

>  <smiles>  (1745) 
CCCN1[C@@H]2CC[C@H]1C[C@@H](C(=O)Nc1n[nH]c3nc(C(F)(F)F)cc(C4CC4)c13)C2

>  <inchikey>  (1745) 
AOZZZJTUTWVPOK-BTTYYORXSA-N

>  <distance_score>  (1745) 
1.427641

>  <ref_mols>  (1745) 
Z0827a,Z0709a

>  <ref_pdb>  (1745) 
Z0709a

>  <HIPPO Compound ID>  (1745) 
145359

>  <name>  (1745) 
P72407

>  <inspiration_score>  (1745) 
None

$$$$
P72408
     RDKit          3D

 30 35  0  0  0  0  0  0  0  0999 V2000
   -0.6730    7.0913  -17.1937 O   0  0  0  0  0  0  0  0  0  0  0  0
   -1.3817    7.0866  -18.1240 C   0  0  0  0  0  0  0  0  0  0  0  0
   -2.8604    6.6097  -18.2655 N   0  0  0  0  0  0  0  0  0  0  0  0
   -3.6833    5.9914  -17.3653 C   0  0  0  0  0  0  0  0  0  0  0  0
   -3.3085    5.8138  -16.0987 N   0  0  0  0  0  0  0  0  0  0  0  0
   -4.4047    5.3377  -15.4976 N   0  0  0  0  0  0  0  0  0  0  0  0
   -5.4708    5.2021  -16.3271 C   0  0  0  0  0  0  0  0  0  0  0  0
   -6.7002    4.8378  -15.9434 N   0  0  0  0  0  0  0  0  0  0  0  0
   -7.5871    4.7469  -16.9683 C   0  0  0  0  0  0  0  0  0  0  0  0
   -9.0283    4.4096  -16.6162 C   0  0  0  0  0  0  0  0  0  0  0  0
   -9.3922    4.8971  -15.3939 F   0  0  0  0  0  0  0  0  0  0  0  0
   -9.2837    3.0783  -16.5991 F   0  0  0  0  0  0  0  0  0  0  0  0
   -9.9095    4.9212  -17.5153 F   0  0  0  0  0  0  0  0  0  0  0  0
   -7.2390    4.9791  -18.3074 C   0  0  0  0  0  0  0  0  0  0  0  0
   -5.9337    5.3864  -18.6597 C   0  0  0  0  0  0  0  0  0  0  0  0
   -5.4885    5.7270  -20.0541 C   0  0  0  0  0  0  0  0  0  0  0  0
   -4.2547    5.0967  -20.6680 C   0  0  0  0  0  0  0  0  0  0  0  0
   -5.6035    4.6888  -21.1452 C   0  0  0  0  0  0  0  0  0  0  0  0
   -5.0199    5.5276  -17.5955 C   0  0  0  0  0  0  0  0  0  0  0  0
   -0.9786    7.6559  -19.5000 C   0  0  1  0  0  0  0  0  0  0  0  0
    0.2046    8.6471  -19.3989 C   0  0  0  0  0  0  0  0  0  0  0  0
    1.5751    8.0663  -19.7851 C   0  0  1  0  0  0  0  0  0  0  0  0
    2.0275    6.9221  -18.8812 C   0  0  0  0  0  0  0  0  0  0  0  0
    1.4140    5.6746  -19.5074 C   0  0  0  0  0  0  0  0  0  0  0  0
    0.7203    6.1795  -20.7739 C   0  0  1  0  0  0  0  0  0  0  0  0
   -0.7567    6.5293  -20.5310 C   0  0  0  0  0  0  0  0  0  0  0  0
    1.4005    7.4428  -21.1087 N   0  0  0  0  0  0  0  0  0  0  0  0
    2.6635    7.2472  -21.8415 C   0  0  0  0  0  0  0  0  0  0  0  0
    2.6150    7.1269  -23.3405 C   0  0  0  0  0  0  0  0  0  0  0  0
    3.1769    8.3651  -22.7072 C   0  0  0  0  0  0  0  0  0  0  0  0
  1  2  2  0
  2  3  1  0
  3  4  1  0
  4  5  2  0
  5  6  1  0
  6  7  1  0
  7  8  2  0
  8  9  1  0
  9 10  1  0
 10 11  1  0
 10 12  1  0
 10 13  1  0
  9 14  2  0
 14 15  1  0
 15 16  1  0
 16 17  1  0
 17 18  1  0
 15 19  2  0
 20  2  1  1
 20 21  1  0
 22 21  1  1
 22 23  1  0
 23 24  1  0
 25 24  1  1
 25 26  1  0
 25 27  1  0
 27 28  1  0
 28 29  1  0
 29 30  1  0
 19  4  1  0
 26 20  1  0
 30 28  1  0
 19  7  1  0
 27 22  1  0
 18 16  1  0
M  END
>  <energy_score>  (1746) 
-61.935852

>  <alias>  (1746) 
None

>  <HIPPO Pose ID>  (1746) 
72408

>  <smiles>  (1746) 
O=C(Nc1n[nH]c2nc(C(F)(F)F)cc(C3CC3)c12)[C@H]1C[C@H]2CC[C@@H](C1)N2C1CC1

>  <inchikey>  (1746) 
IVMFYLZGBCUBPT-UBSAEIQESA-N

>  <distance_score>  (1746) 
1.374851

>  <ref_mols>  (1746) 
Z0827a,Z0709a

>  <ref_pdb>  (1746) 
Z0709a

>  <HIPPO Compound ID>  (1746) 
145360

>  <name>  (1746) 
P72408

>  <inspiration_score>  (1746) 
None

$$$$
P72410
     RDKit          3D

 31 35  0  0  0  0  0  0  0  0999 V2000
    2.3975    4.4467  -24.8012 C   0  0  0  0  0  0  0  0  0  0  0  0
    1.2925    5.2384  -24.1846 C   0  0  0  0  0  0  0  0  0  0  0  0
    1.4550    6.0743  -23.1475 C   0  0  0  0  0  0  0  0  0  0  0  0
    0.2887    6.8157  -22.5797 C   0  0  0  0  0  0  0  0  0  0  0  0
   -0.7976    6.7518  -23.0249 O   0  0  0  0  0  0  0  0  0  0  0  0
    0.8289    7.6396  -21.4323 N   0  0  0  0  0  0  0  0  0  0  0  0
    0.1673    8.6945  -20.5853 C   0  0  2  0  0  0  0  0  0  0  0  0
    1.1318    9.0578  -19.4672 C   0  0  0  0  0  0  0  0  0  0  0  0
    1.5850    7.6738  -19.1166 C   0  0  0  0  0  0  0  0  0  0  0  0
    0.7218    6.8794  -20.0990 C   0  0  1  0  0  0  0  0  0  0  0  0
   -0.7678    6.7591  -19.7668 C   0  0  1  0  0  0  0  0  0  0  0  0
   -1.1514    6.2809  -18.3720 C   0  0  0  0  0  0  0  0  0  0  0  0
   -0.3873    6.0345  -17.5233 O   0  0  0  0  0  0  0  0  0  0  0  0
   -2.7009    6.1168  -18.4146 N   0  0  0  0  0  0  0  0  0  0  0  0
   -3.5774    5.7282  -17.4434 C   0  0  0  0  0  0  0  0  0  0  0  0
   -3.2032    5.5763  -16.1742 N   0  0  0  0  0  0  0  0  0  0  0  0
   -4.3356    5.2419  -15.5410 N   0  0  0  0  0  0  0  0  0  0  0  0
   -5.4204    5.1585  -16.3551 C   0  0  0  0  0  0  0  0  0  0  0  0
   -6.6642    4.8691  -15.9514 N   0  0  0  0  0  0  0  0  0  0  0  0
   -7.5633    4.7856  -16.9676 C   0  0  0  0  0  0  0  0  0  0  0  0
   -9.0075    4.4710  -16.5992 C   0  0  0  0  0  0  0  0  0  0  0  0
   -9.2583    3.1436  -16.4801 F   0  0  0  0  0  0  0  0  0  0  0  0
   -9.8880    4.9096  -17.5367 F   0  0  0  0  0  0  0  0  0  0  0  0
   -9.3757    5.0480  -15.4175 F   0  0  0  0  0  0  0  0  0  0  0  0
   -7.2216    4.9967  -18.3123 C   0  0  0  0  0  0  0  0  0  0  0  0
   -5.9031    5.3404  -18.6869 C   0  0  0  0  0  0  0  0  0  0  0  0
   -5.4756    5.6773  -20.0910 C   0  0  0  0  0  0  0  0  0  0  0  0
   -5.6568    4.6537  -21.1867 C   0  0  0  0  0  0  0  0  0  0  0  0
   -4.2835    5.0248  -20.7622 C   0  0  0  0  0  0  0  0  0  0  0  0
   -4.9661    5.4264  -17.6355 C   0  0  0  0  0  0  0  0  0  0  0  0
   -1.1753    8.1712  -20.0713 C   0  0  0  0  0  0  0  0  0  0  0  0
  1  2  1  0
  2  3  2  0
  3  4  1  0
  4  5  2  0
  4  6  1  0
  6  7  1  0
  7  8  1  1
  8  9  1  0
 10  9  1  1
 10 11  1  0
 11 12  1  1
 12 13  2  0
 12 14  1  0
 14 15  1  0
 15 16  2  0
 16 17  1  0
 17 18  1  0
 18 19  2  0
 19 20  1  0
 20 21  1  0
 21 22  1  0
 21 23  1  0
 21 24  1  0
 20 25  2  0
 25 26  1  0
 26 27  1  0
 27 28  1  0
 28 29  1  0
 26 30  2  0
 11 31  1  0
 10  6  1  0
 30 15  1  0
 31  7  1  0
 30 18  1  0
 29 27  1  0
M  END
>  <energy_score>  (1747) 
-5.150815

>  <alias>  (1747) 
None

>  <HIPPO Pose ID>  (1747) 
72410

>  <smiles>  (1747) 
C/C=C/C(=O)N1[C@@H]2CC[C@H]1[C@@H](C(=O)Nc1n[nH]c3nc(C(F)(F)F)cc(C4CC4)c13)C2

>  <inchikey>  (1747) 
IDEFCXJYVFBUFB-USGNRJJLSA-N

>  <distance_score>  (1747) 
1.358232

>  <ref_mols>  (1747) 
Z0827a,Z0709a

>  <ref_pdb>  (1747) 
Z0709a

>  <HIPPO Compound ID>  (1747) 
145361

>  <name>  (1747) 
P72410

>  <inspiration_score>  (1747) 
None

$$$$
P72414
     RDKit          3D

 32 36  0  0  0  0  0  0  0  0999 V2000
   -6.1016    4.5487  -20.1863 C   0  0  0  0  0  0  0  0  0  0  0  0
   -6.1686    4.8920  -18.7357 C   0  0  0  0  0  0  0  0  0  0  0  0
   -7.3652    4.5933  -18.0415 C   0  0  0  0  0  0  0  0  0  0  0  0
   -7.4854    4.8482  -16.6766 C   0  0  0  0  0  0  0  0  0  0  0  0
   -8.7562    4.4870  -15.9402 C   0  0  0  0  0  0  0  0  0  0  0  0
   -9.6425    3.7821  -16.6930 F   0  0  0  0  0  0  0  0  0  0  0  0
   -9.4106    5.5958  -15.4845 F   0  0  0  0  0  0  0  0  0  0  0  0
   -8.5060    3.7477  -14.8261 F   0  0  0  0  0  0  0  0  0  0  0  0
   -6.5026    5.4218  -15.9430 N   0  0  0  0  0  0  0  0  0  0  0  0
   -5.3942    5.6877  -16.6430 C   0  0  0  0  0  0  0  0  0  0  0  0
   -4.2938    6.2500  -16.0965 N   0  0  0  0  0  0  0  0  0  0  0  0
   -3.3385    6.5307  -16.9796 N   0  0  0  0  0  0  0  0  0  0  0  0
   -3.8027    6.0430  -18.1407 C   0  0  0  0  0  0  0  0  0  0  0  0
   -2.9195    6.2601  -19.1600 N   0  0  0  0  0  0  0  0  0  0  0  0
   -2.7854    5.5685  -20.5406 C   0  0  0  0  0  0  0  0  0  0  0  0
   -3.4563    4.7602  -21.0504 O   0  0  0  0  0  0  0  0  0  0  0  0
   -1.5465    6.1476  -21.2397 C   0  0  2  0  0  0  0  0  0  0  0  0
   -0.2352    5.9262  -20.4464 C   0  0  0  0  0  0  0  0  0  0  0  0
    0.9159    6.8164  -20.9508 C   0  0  1  0  0  0  0  0  0  0  0  0
    1.1746    6.6040  -22.4441 C   0  0  0  0  0  0  0  0  0  0  0  0
    0.2701    7.6158  -23.1443 C   0  0  0  0  0  0  0  0  0  0  0  0
   -0.4574    8.3419  -22.0094 C   0  0  1  0  0  0  0  0  0  0  0  0
   -1.7712    7.6235  -21.6419 C   0  0  0  0  0  0  0  0  0  0  0  0
    0.3979    8.1814  -20.8326 N   0  0  0  0  0  0  0  0  0  0  0  0
    1.3611    9.2444  -20.5487 C   0  0  0  0  0  0  0  0  0  0  0  0
    2.4538    9.5358  -21.5494 C   0  0  0  0  0  0  0  0  0  0  0  0
    2.2605   10.4862  -22.5632 C   0  0  0  0  0  0  0  0  0  0  0  0
    3.2756   10.7652  -23.4801 C   0  0  0  0  0  0  0  0  0  0  0  0
    4.4982   10.1034  -23.3900 C   0  0  0  0  0  0  0  0  0  0  0  0
    4.7088    9.1659  -22.3813 C   0  0  0  0  0  0  0  0  0  0  0  0
    3.6945    8.8864  -21.4639 C   0  0  0  0  0  0  0  0  0  0  0  0
   -5.1198    5.4816  -17.9922 C   0  0  0  0  0  0  0  0  0  0  0  0
  1  2  1  0
  2  3  2  0
  3  4  1  0
  4  5  1  0
  5  6  1  0
  5  7  1  0
  5  8  1  0
  4  9  2  0
  9 10  1  0
 10 11  1  0
 11 12  1  0
 12 13  2  0
 13 14  1  0
 14 15  1  0
 15 16  2  0
 17 15  1  1
 17 18  1  0
 19 18  1  6
 19 20  1  0
 20 21  1  0
 22 21  1  6
 22 23  1  0
 22 24  1  0
 24 25  1  0
 25 26  1  0
 26 27  2  0
 27 28  1  0
 28 29  2  0
 29 30  1  0
 30 31  2  0
 13 32  1  0
 32  2  1  0
 32 10  2  0
 23 17  1  0
 31 26  1  0
 24 19  1  0
M  END
>  <energy_score>  (1748) 
-47.874674

>  <alias>  (1748) 
None

>  <HIPPO Pose ID>  (1748) 
72414

>  <smiles>  (1748) 
Cc1cc(C(F)(F)F)nc2[nH]nc(NC(=O)[C@@H]3C[C@H]4CC[C@@H](C3)N4Cc3ccccc3)c12

>  <inchikey>  (1748) 
QQCFMOUZUGGWOW-OSYLJGHBSA-N

>  <distance_score>  (1748) 
1.068596

>  <ref_mols>  (1748) 
Z0827a,Z0709a

>  <ref_pdb>  (1748) 
Z0709a

>  <HIPPO Compound ID>  (1748) 
145363

>  <name>  (1748) 
P72414

>  <inspiration_score>  (1748) 
None

$$$$
P72415
     RDKit          3D

 32 35  0  0  0  0  0  0  0  0999 V2000
   -6.2229    4.4006  -20.2395 C   0  0  0  0  0  0  0  0  0  0  0  0
   -6.2047    4.7310  -18.7862 C   0  0  0  0  0  0  0  0  0  0  0  0
   -7.4284    4.6523  -18.0816 C   0  0  0  0  0  0  0  0  0  0  0  0
   -7.4716    4.8390  -16.7011 C   0  0  0  0  0  0  0  0  0  0  0  0
   -8.7732    4.6171  -15.9552 C   0  0  0  0  0  0  0  0  0  0  0  0
   -8.5956    3.9572  -14.7774 F   0  0  0  0  0  0  0  0  0  0  0  0
   -9.6825    3.9009  -16.6700 F   0  0  0  0  0  0  0  0  0  0  0  0
   -9.3709    5.7924  -15.6048 F   0  0  0  0  0  0  0  0  0  0  0  0
   -6.3856    5.1902  -15.9705 N   0  0  0  0  0  0  0  0  0  0  0  0
   -5.2510    5.2419  -16.6823 C   0  0  0  0  0  0  0  0  0  0  0  0
   -4.0352    5.4587  -16.1310 N   0  0  0  0  0  0  0  0  0  0  0  0
   -3.0301    5.4292  -17.0068 N   0  0  0  0  0  0  0  0  0  0  0  0
   -3.6237    5.2356  -18.1956 C   0  0  0  0  0  0  0  0  0  0  0  0
   -2.7186    5.2743  -19.2229 N   0  0  0  0  0  0  0  0  0  0  0  0
   -2.9361    5.3395  -20.7520 C   0  0  0  0  0  0  0  0  0  0  0  0
   -3.9221    5.2927  -21.3806 O   0  0  0  0  0  0  0  0  0  0  0  0
   -1.5682    5.5115  -21.4770 C   0  0  1  0  0  0  0  0  0  0  0  0
   -1.5480    6.5238  -22.6539 C   0  0  0  0  0  0  0  0  0  0  0  0
   -0.7642    7.5386  -21.7646 C   0  0  1  0  0  0  0  0  0  0  0  0
    0.3044    8.2538  -22.5720 C   0  0  0  0  0  0  0  0  0  0  0  0
    0.4658    9.5131  -21.7979 C   0  0  0  0  0  0  0  0  0  0  0  0
   -0.4119    9.1942  -20.6180 C   0  0  0  0  0  0  0  0  0  0  0  0
   -1.7780    8.5732  -21.0528 N   0  0  0  0  0  0  0  0  0  0  0  0
   -2.6880    9.6143  -21.6413 C   0  0  0  0  0  0  0  0  0  0  0  0
   -2.8150    9.9721  -22.7530 O   0  0  0  0  0  0  0  0  0  0  0  0
   -3.3827   10.2633  -20.6551 O   0  0  0  0  0  0  0  0  0  0  0  0
   -4.1231    9.5844  -19.6046 C   0  0  0  0  0  0  0  0  0  0  0  0
   -5.0712   10.6618  -19.0501 C   0  0  0  0  0  0  0  0  0  0  0  0
   -3.2193    9.1123  -18.4633 C   0  0  0  0  0  0  0  0  0  0  0  0
   -4.9744    8.4515  -20.1773 C   0  0  0  0  0  0  0  0  0  0  0  0
   -0.3881    6.3093  -20.8717 C   0  0  0  0  0  0  0  0  0  0  0  0
   -5.0451    5.0551  -18.0465 C   0  0  0  0  0  0  0  0  0  0  0  0
  1  2  1  0
  2  3  2  0
  3  4  1  0
  4  5  1  0
  5  6  1  0
  5  7  1  0
  5  8  1  0
  4  9  2  0
  9 10  1  0
 10 11  1  0
 11 12  1  0
 12 13  2  0
 13 14  1  0
 14 15  1  0
 15 16  2  0
 17 15  1  1
 17 18  1  0
 19 18  1  6
 19 20  1  0
 20 21  1  0
 21 22  1  0
 22 23  1  0
 23 24  1  0
 24 25  2  0
 24 26  1  0
 26 27  1  0
 27 28  1  0
 27 29  1  0
 27 30  1  0
 19 31  1  0
 13 32  1  0
 32  2  1  0
 32 10  2  0
 31 17  1  0
 19 23  1  0
M  END
>  <energy_score>  (1749) 
-1.294652

>  <alias>  (1749) 
None

>  <HIPPO Pose ID>  (1749) 
72415

>  <smiles>  (1749) 
Cc1cc(C(F)(F)F)nc2[nH]nc(NC(=O)[C@H]3C[C@]4(CCCN4C(=O)OC(C)(C)C)C3)c12

>  <inchikey>  (1749) 
YIBYPNCIKVSVMP-KWUMSVIQSA-N

>  <distance_score>  (1749) 
0.986628

>  <ref_mols>  (1749) 
Z0827a,Z0709a

>  <ref_pdb>  (1749) 
Z0709a

>  <HIPPO Compound ID>  (1749) 
145364

>  <name>  (1749) 
P72415

>  <inspiration_score>  (1749) 
None

$$$$
P72418
     RDKit          3D

 33 37  0  0  0  0  0  0  0  0999 V2000
   -4.1512    7.0158  -25.9275 C   0  0  0  0  0  0  0  0  0  0  0  0
   -4.4192    8.0090  -24.7920 C   0  0  0  0  0  0  0  0  0  0  0  0
   -5.8726    7.8362  -24.3227 C   0  0  0  0  0  0  0  0  0  0  0  0
   -4.2115    9.4600  -25.2353 C   0  0  0  0  0  0  0  0  0  0  0  0
   -3.6203    7.7002  -23.6241 O   0  0  0  0  0  0  0  0  0  0  0  0
   -2.2603    7.7139  -23.6557 C   0  0  0  0  0  0  0  0  0  0  0  0
   -1.6202    8.0095  -24.5917 O   0  0  0  0  0  0  0  0  0  0  0  0
   -1.8355    7.2431  -22.3035 N   0  0  0  0  0  0  0  0  0  0  0  0
   -0.4779    6.9106  -21.7674 C   0  0  1  0  0  0  0  0  0  0  0  0
    0.5039    8.0402  -22.0585 C   0  0  0  0  0  0  0  0  0  0  0  0
   -0.3859    9.1974  -21.7430 C   0  0  0  0  0  0  0  0  0  0  0  0
   -1.6375    8.4138  -21.3453 C   0  0  2  0  0  0  0  0  0  0  0  0
   -1.5272    7.8213  -19.9266 C   0  0  1  0  0  0  0  0  0  0  0  0
   -2.9249    7.5146  -19.3634 C   0  0  0  0  0  0  0  0  0  0  0  0
   -3.8957    8.0006  -19.7962 O   0  0  0  0  0  0  0  0  0  0  0  0
   -2.7434    6.4589  -18.2382 N   0  0  0  0  0  0  0  0  0  0  0  0
   -3.6567    5.8911  -17.4025 C   0  0  0  0  0  0  0  0  0  0  0  0
   -3.2213    5.5349  -16.1901 N   0  0  0  0  0  0  0  0  0  0  0  0
   -4.3468    5.1819  -15.5486 N   0  0  0  0  0  0  0  0  0  0  0  0
   -5.4547    5.1832  -16.3340 C   0  0  0  0  0  0  0  0  0  0  0  0
   -6.6853    4.8551  -15.9190 N   0  0  0  0  0  0  0  0  0  0  0  0
   -7.6022    4.8069  -16.9216 C   0  0  0  0  0  0  0  0  0  0  0  0
   -9.0361    4.4650  -16.5481 C   0  0  0  0  0  0  0  0  0  0  0  0
   -9.9323    4.9167  -17.4639 F   0  0  0  0  0  0  0  0  0  0  0  0
   -9.2678    3.1313  -16.4642 F   0  0  0  0  0  0  0  0  0  0  0  0
   -9.3989    5.0024  -15.3455 F   0  0  0  0  0  0  0  0  0  0  0  0
   -7.2838    5.0515  -18.2629 C   0  0  0  0  0  0  0  0  0  0  0  0
   -5.9777    5.4251  -18.6431 C   0  0  0  0  0  0  0  0  0  0  0  0
   -5.5548    5.6603  -20.0626 C   0  0  0  0  0  0  0  0  0  0  0  0
   -5.6782    4.5539  -21.0810 C   0  0  0  0  0  0  0  0  0  0  0  0
   -4.3263    4.9831  -20.6363 C   0  0  0  0  0  0  0  0  0  0  0  0
   -5.0315    5.5447  -17.6030 C   0  0  0  0  0  0  0  0  0  0  0  0
   -0.6659    6.6328  -20.2794 C   0  0  0  0  0  0  0  0  0  0  0  0
  1  2  1  0
  2  3  1  0
  2  4  1  0
  2  5  1  0
  5  6  1  0
  6  7  2  0
  6  8  1  0
  8  9  1  0
  9 10  1  1
 10 11  1  0
 12 11  1  6
 12 13  1  0
 13 14  1  6
 14 15  2  0
 14 16  1  0
 16 17  1  0
 17 18  2  0
 18 19  1  0
 19 20  1  0
 20 21  2  0
 21 22  1  0
 22 23  1  0
 23 24  1  0
 23 25  1  0
 23 26  1  0
 22 27  2  0
 27 28  1  0
 28 29  1  0
 29 30  1  0
 30 31  1  0
 28 32  2  0
 13 33  1  0
 12  8  1  0
 32 17  1  0
 33  9  1  0
 32 20  1  0
 31 29  1  0
M  END
>  <energy_score>  (1750) 
-11.394745

>  <alias>  (1750) 
None

>  <HIPPO Pose ID>  (1750) 
72418

>  <smiles>  (1750) 
CC(C)(C)OC(=O)N1[C@H]2CC[C@@H]1[C@@H](C(=O)Nc1n[nH]c3nc(C(F)(F)F)cc(C4CC4)c13)C2

>  <inchikey>  (1750) 
UEQHQTRDAMLOII-FPMFFAJLSA-N

>  <distance_score>  (1750) 
1.352592

>  <ref_mols>  (1750) 
Z0827a,Z0709a

>  <ref_pdb>  (1750) 
Z0709a

>  <HIPPO Compound ID>  (1750) 
145369

>  <name>  (1750) 
P72418

>  <inspiration_score>  (1750) 
None

$$$$
P72419
     RDKit          3D

 25 28  0  0  0  0  0  0  0  0999 V2000
   -0.9829    7.3707  -15.1579 C   0  0  0  0  0  0  0  0  0  0  0  0
   -1.9655    6.5775  -14.3529 C   0  0  0  0  0  0  0  0  0  0  0  0
   -1.8578    6.5021  -12.9737 C   0  0  0  0  0  0  0  0  0  0  0  0
   -3.0046    5.4719  -12.2634 S   0  0  0  0  0  0  0  0  0  0  0  0
   -3.7025    5.1274  -13.7790 C   0  0  0  0  0  0  0  0  0  0  0  0
   -4.9380    4.3651  -13.7783 C   0  0  0  0  0  0  0  0  0  0  0  0
   -4.9585    3.2065  -13.8791 O   0  0  0  0  0  0  0  0  0  0  0  0
   -6.0879    5.3800  -13.7287 N   0  0  0  0  0  0  0  0  0  0  0  0
   -7.5032    5.1950  -13.8879 C   0  0  0  0  0  0  0  0  0  0  0  0
   -7.7794    5.2606  -15.3782 C   0  0  0  0  0  0  0  0  0  0  0  0
   -6.9405    6.0487  -16.2098 C   0  0  0  0  0  0  0  0  0  0  0  0
   -6.9322    5.9001  -17.5837 C   0  0  0  0  0  0  0  0  0  0  0  0
   -7.7820    4.9676  -18.0855 C   0  0  0  0  0  0  0  0  0  0  0  0
   -8.7915    4.3809  -17.3371 C   0  0  0  0  0  0  0  0  0  0  0  0
   -8.7900    4.4941  -15.9636 C   0  0  0  0  0  0  0  0  0  0  0  0
   -9.6923    3.6646  -18.2626 C   0  0  0  0  0  0  0  0  0  0  0  0
   -8.9876    3.7485  -19.5127 N   0  0  0  0  0  0  0  0  0  0  0  0
   -7.7649    4.3421  -19.3877 C   0  0  0  0  0  0  0  0  0  0  0  0
   -6.8085    4.2469  -20.1290 O   0  0  0  0  0  0  0  0  0  0  0  0
   -3.0561    5.7566  -14.8433 C   0  0  0  0  0  0  0  0  0  0  0  0
   -3.4087    5.6135  -16.2449 N   0  0  0  0  0  0  0  0  0  0  0  0
   -4.0533    4.5436  -16.8128 C   0  0  0  0  0  0  0  0  0  0  0  0
   -4.1729    4.7299  -18.1721 C   0  0  0  0  0  0  0  0  0  0  0  0
   -3.6114    5.9761  -18.4741 C   0  0  0  0  0  0  0  0  0  0  0  0
   -3.1600    6.4993  -17.2826 C   0  0  0  0  0  0  0  0  0  0  0  0
  1  2  1  0
  2  3  2  0
  3  4  1  0
  4  5  1  0
  5  6  1  0
  6  7  2  0
  6  8  1  0
  8  9  1  0
  9 10  1  0
 10 11  2  0
 11 12  1  0
 12 13  2  0
 13 14  1  0
 14 15  2  0
 14 16  1  0
 16 17  1  0
 17 18  1  0
 18 19  2  0
  5 20  2  0
 20 21  1  0
 21 22  1  0
 22 23  2  0
 23 24  1  0
 24 25  2  0
 20  2  1  0
 25 21  1  0
 15 10  1  0
 18 13  1  0
M  END
>  <energy_score>  (1751) 
-6.269972

>  <alias>  (1751) 
None

>  <HIPPO Pose ID>  (1751) 
72419

>  <smiles>  (1751) 
Cc1csc(C(=O)NCc2ccc3c(c2)CNC3=O)c1-n1cccc1

>  <inchikey>  (1751) 
LMBWVKHGOVOLJL-UHFFFAOYSA-N

>  <distance_score>  (1751) 
1.988866

>  <ref_mols>  (1751) 
Z0719a,Z0727a

>  <ref_pdb>  (1751) 
Z0727a

>  <HIPPO Compound ID>  (1751) 
145415

>  <name>  (1751) 
P72419

>  <inspiration_score>  (1751) 
None

$$$$
P72422
     RDKit          3D

 16 18  0  0  0  0  0  0  0  0999 V2000
   -6.5044    6.3697  -14.2176 C   0  0  0  0  0  0  0  0  0  0  0  0
   -7.2744    5.0879  -14.4898 C   0  0  1  0  0  0  0  0  0  0  0  0
   -7.0918    4.1048  -13.2906 C   0  0  0  0  0  0  0  0  0  0  0  0
   -7.6142    4.6910  -12.0872 O   0  0  0  0  0  0  0  0  0  0  0  0
   -8.7198    5.1734  -14.9147 C   0  0  0  0  0  0  0  0  0  0  0  0
   -8.4063    3.9361  -15.7259 C   0  0  0  0  0  0  0  0  0  0  0  0
   -7.0291    4.4411  -16.0078 N   0  0  0  0  0  0  0  0  0  0  0  0
   -6.5410    5.4974  -16.9944 C   0  0  0  0  0  0  0  0  0  0  0  0
   -7.1498    6.2148  -17.7068 O   0  0  0  0  0  0  0  0  0  0  0  0
   -5.0008    5.5044  -17.0964 C   0  0  1  0  0  0  0  0  0  0  0  0
   -4.5476    4.6923  -18.2219 N   0  0  0  0  0  0  0  0  0  0  0  0
   -3.8414    5.3556  -19.1951 C   0  0  0  0  0  0  0  0  0  0  0  0
   -3.3793    4.8962  -20.2260 O   0  0  0  0  0  0  0  0  0  0  0  0
   -3.6936    6.7571  -18.7592 C   0  0  1  0  0  0  0  0  0  0  0  0
   -4.8763    7.6750  -18.6815 C   0  0  0  0  0  0  0  0  0  0  0  0
   -4.4565    6.8798  -17.4539 C   0  0  1  0  0  0  0  0  0  0  0  0
  2  1  1  1
  2  3  1  0
  3  4  1  0
  2  5  1  0
  5  6  1  0
  6  7  1  0
  7  8  1  0
  8  9  2  0
 10  8  1  6
 10 11  1  0
 11 12  1  0
 12 13  2  0
 12 14  1  0
 14 15  1  6
 16 15  1  6
  7  2  1  0
 16 10  1  0
 16 14  1  0
M  END
>  <energy_score>  (1752) 
-2.328071

>  <alias>  (1752) 
None

>  <HIPPO Pose ID>  (1752) 
72422

>  <smiles>  (1752) 
C[C@@]1(CO)CCN1C(=O)[C@H]1NC(=O)[C@H]2C[C@H]21

>  <inchikey>  (1752) 
DWQRUMAEQZGTTL-GLLZPBPUSA-N

>  <distance_score>  (1752) 
1.816432

>  <ref_mols>  (1752) 
Z0917a,Z3515a

>  <ref_pdb>  (1752) 
Z3515a

>  <HIPPO Compound ID>  (1752) 
145487

>  <name>  (1752) 
P72422

>  <inspiration_score>  (1752) 
None

$$$$
P72424
     RDKit          3D

 17 19  0  0  0  0  0  0  0  0999 V2000
   -5.6070    4.4360  -13.3922 C   0  0  0  0  0  0  0  0  0  0  0  0
   -6.9462    4.9204  -13.9243 C   0  0  2  0  0  0  0  0  0  0  0  0
   -7.6975    5.6720  -12.7824 C   0  0  0  0  0  0  0  0  0  0  0  0
   -7.9107    4.8307  -11.6398 O   0  0  0  0  0  0  0  0  0  0  0  0
   -7.8915    3.8454  -14.3897 C   0  0  0  0  0  0  0  0  0  0  0  0
   -8.5006    4.1485  -15.5392 C   0  0  0  0  0  0  0  0  0  0  0  0
   -8.0660    5.4875  -15.9737 C   0  0  0  0  0  0  0  0  0  0  0  0
   -6.8607    5.6515  -15.2002 N   0  0  0  0  0  0  0  0  0  0  0  0
   -5.8225    6.4153  -15.6860 C   0  0  0  0  0  0  0  0  0  0  0  0
   -5.7311    7.6216  -15.4641 O   0  0  0  0  0  0  0  0  0  0  0  0
   -4.8362    5.6560  -16.6322 C   0  0  2  0  0  0  0  0  0  0  0  0
   -3.6846    6.4451  -17.0594 N   0  0  0  0  0  0  0  0  0  0  0  0
   -3.6230    6.7149  -18.4046 C   0  0  0  0  0  0  0  0  0  0  0  0
   -2.8633    7.4739  -18.9754 O   0  0  0  0  0  0  0  0  0  0  0  0
   -4.6881    5.9450  -19.0704 C   0  0  2  0  0  0  0  0  0  0  0  0
   -6.1263    6.3134  -18.8770 C   0  0  0  0  0  0  0  0  0  0  0  0
   -5.4846    5.2903  -17.9627 C   0  0  2  0  0  0  0  0  0  0  0  0
  2  1  1  1
  2  3  1  0
  3  4  1  0
  2  5  1  0
  5  6  2  0
  6  7  1  0
  7  8  1  0
  8  9  1  0
  9 10  2  0
 11  9  1  1
 11 12  1  0
 12 13  1  0
 13 14  2  0
 13 15  1  0
 15 16  1  1
 17 16  1  1
  8  2  1  0
 17 11  1  0
 17 15  1  0
M  END
>  <energy_score>  (1753) 
-7.379482

>  <alias>  (1753) 
None

>  <HIPPO Pose ID>  (1753) 
72424

>  <smiles>  (1753) 
C[C@]1(CO)C=CCN1C(=O)[C@@H]1NC(=O)[C@@H]2C[C@@H]21

>  <inchikey>  (1753) 
JNTQPJSECNMQCR-FNOROQBZSA-N

>  <distance_score>  (1753) 
1.948577

>  <ref_mols>  (1753) 
Z0917a,Z3515a

>  <ref_pdb>  (1753) 
Z3515a

>  <HIPPO Compound ID>  (1753) 
145493

>  <name>  (1753) 
P72424

>  <inspiration_score>  (1753) 
None

$$$$
P72425
     RDKit          3D

 17 18  0  0  0  0  0  0  0  0999 V2000
   -5.4182    5.6637  -18.7714 O   0  0  0  0  0  0  0  0  0  0  0  0
   -5.7799    5.2699  -17.6809 C   0  0  0  0  0  0  0  0  0  0  0  0
   -5.1537    5.4517  -16.4667 N   0  0  0  0  0  0  0  0  0  0  0  0
   -5.7740    4.7573  -15.3565 C   0  0  1  0  0  0  0  0  0  0  0  0
   -6.2195    5.6161  -14.1623 C   0  0  0  0  0  0  0  0  0  0  0  0
   -6.0611    6.7721  -14.0798 O   0  0  0  0  0  0  0  0  0  0  0  0
   -6.9774    4.6288  -13.2181 N   0  0  0  0  0  0  0  0  0  0  0  0
   -7.7783    4.8859  -12.0268 C   0  0  0  0  0  0  0  0  0  0  0  0
   -7.0832    5.6667  -10.8834 C   0  0  0  0  0  0  0  0  0  0  0  0
   -6.7160    4.8733   -9.7550 O   0  0  0  0  0  0  0  0  0  0  0  0
   -8.3943    3.5714  -11.4852 C   0  0  0  0  0  0  0  0  0  0  0  0
   -8.9398    3.7624  -10.2490 F   0  0  0  0  0  0  0  0  0  0  0  0
   -8.8269    5.8339  -12.6585 C   0  0  0  0  0  0  0  0  0  0  0  0
   -9.4167    5.2584  -13.7735 F   0  0  0  0  0  0  0  0  0  0  0  0
   -7.0232    4.1513  -15.9971 C   0  0  1  0  0  0  0  0  0  0  0  0
   -8.1084    4.9998  -16.5770 C   0  0  0  0  0  0  0  0  0  0  0  0
   -7.0051    4.4848  -17.4588 C   0  0  1  0  0  0  0  0  0  0  0  0
  1  2  2  0
  2  3  1  0
  3  4  1  0
  4  5  1  1
  5  6  2  0
  5  7  1  0
  7  8  1  0
  8  9  1  0
  9 10  1  0
  8 11  1  0
 11 12  1  0
  8 13  1  0
 13 14  1  0
  4 15  1  0
 15 16  1  1
 17 16  1  1
 17  2  1  0
 17 15  1  0
M  END
>  <energy_score>  (1754) 
-15.015384

>  <alias>  (1754) 
None

>  <HIPPO Pose ID>  (1754) 
72425

>  <smiles>  (1754) 
O=C1N[C@@H](C(=O)NC(CO)(CF)CF)[C@H]2C[C@@H]12

>  <inchikey>  (1754) 
ZNCNTYFHHBHZIR-RRKCRQDMSA-N

>  <distance_score>  (1754) 
1.973048

>  <ref_mols>  (1754) 
Z0917a,Z3515a

>  <ref_pdb>  (1754) 
Z3515a

>  <HIPPO Compound ID>  (1754) 
145498

>  <name>  (1754) 
P72425

>  <inspiration_score>  (1754) 
None

$$$$
P72426
     RDKit          3D

 22 25  0  0  0  0  0  0  0  0999 V2000
   -9.1727    4.4585  -15.0709 O   0  0  0  0  0  0  0  0  0  0  0  0
   -8.5575    4.4359  -16.1180 C   0  0  0  0  0  0  0  0  0  0  0  0
   -9.0198    4.5770  -17.3919 O   0  0  0  0  0  0  0  0  0  0  0  0
   -7.9342    4.9106  -18.3093 C   0  0  0  0  0  0  0  0  0  0  0  0
   -6.7491    4.9555  -17.4112 C   0  0  0  0  0  0  0  0  0  0  0  0
   -5.5082    5.4293  -17.6457 N   0  0  0  0  0  0  0  0  0  0  0  0
   -4.6196    5.2266  -16.6414 C   0  0  0  0  0  0  0  0  0  0  0  0
   -3.4575    5.9837  -16.6373 N   0  0  0  0  0  0  0  0  0  0  0  0
   -2.9042    6.4475  -15.3506 C   0  0  0  0  0  0  0  0  0  0  0  0
   -3.8183    7.2394  -14.3613 C   0  0  0  0  0  0  0  0  0  0  0  0
   -4.4736    6.2822  -13.2127 C   0  0  0  0  0  0  0  0  0  0  0  0
   -3.6771    5.5344  -12.3222 C   0  0  0  0  0  0  0  0  0  0  0  0
   -4.2623    4.7045  -11.3776 C   0  0  0  0  0  0  0  0  0  0  0  0
   -5.5896    4.5578  -11.2444 N   0  0  0  0  0  0  0  0  0  0  0  0
   -6.3644    5.2770  -12.0762 C   0  0  0  0  0  0  0  0  0  0  0  0
   -5.8607    6.1510  -13.0295 C   0  0  0  0  0  0  0  0  0  0  0  0
   -4.7283    8.3052  -15.0764 C   0  0  0  0  0  0  0  0  0  0  0  0
   -4.4346    9.2626  -13.9079 C   0  0  0  0  0  0  0  0  0  0  0  0
   -3.1097    8.5000  -13.7139 C   0  0  0  0  0  0  0  0  0  0  0  0
   -4.8913    4.3913  -15.5632 C   0  0  0  0  0  0  0  0  0  0  0  0
   -6.2058    4.0835  -15.2742 C   0  0  0  0  0  0  0  0  0  0  0  0
   -7.1286    4.4412  -16.2106 C   0  0  0  0  0  0  0  0  0  0  0  0
  1  2  2  0
  2  3  1  0
  3  4  1  0
  4  5  1  0
  5  6  2  0
  6  7  1  0
  7  8  1  0
  8  9  1  0
  9 10  1  0
 10 11  1  0
 11 12  2  0
 12 13  1  0
 13 14  2  0
 14 15  1  0
 15 16  2  0
 10 17  1  0
 17 18  1  0
 18 19  1  0
  7 20  2  0
 20 21  1  0
 21 22  2  0
 22  2  1  0
 22  5  1  0
 19 10  1  0
 16 11  1  0
M  END
>  <energy_score>  (1755) 
-15.815793

>  <alias>  (1755) 
None

>  <HIPPO Pose ID>  (1755) 
72426

>  <smiles>  (1755) 
O=C1OCc2nc(NCC3(c4ccncc4)CCC3)ccc21

>  <inchikey>  (1755) 
NHZABILVKSTQTP-UHFFFAOYSA-N

>  <distance_score>  (1755) 
1.676576

>  <ref_mols>  (1755) 
Z1342a,Z1716a

>  <ref_pdb>  (1755) 
Z1716a

>  <HIPPO Compound ID>  (1755) 
145636

>  <name>  (1755) 
P72426

>  <inspiration_score>  (1755) 
None

$$$$
P72427
     RDKit          3D

 22 24  0  0  0  0  0  0  0  0999 V2000
   -4.4374    8.3224  -13.4102 C   0  0  0  0  0  0  0  0  0  0  0  0
   -3.1001    7.8079  -13.5142 O   0  0  0  0  0  0  0  0  0  0  0  0
   -2.8199    6.6265  -14.1198 C   0  0  0  0  0  0  0  0  0  0  0  0
   -1.6873    6.1689  -14.1850 O   0  0  0  0  0  0  0  0  0  0  0  0
   -3.9382    5.9008  -14.7289 C   0  0  0  0  0  0  0  0  0  0  0  0
   -4.2829    6.1948  -16.0392 C   0  0  0  0  0  0  0  0  0  0  0  0
   -5.3817    5.6968  -16.6553 N   0  0  0  0  0  0  0  0  0  0  0  0
   -6.1012    4.7845  -15.9776 C   0  0  0  0  0  0  0  0  0  0  0  0
   -7.3777    4.4984  -16.4280 N   0  0  0  0  0  0  0  0  0  0  0  0
   -8.4194    4.2092  -15.4264 C   0  0  0  0  0  0  0  0  0  0  0  0
   -8.4819    5.1902  -14.1785 C   0  0  0  0  0  0  0  0  0  0  0  0
   -8.3236    4.6715  -12.6747 C   0  0  0  0  0  0  0  0  0  0  0  0
   -8.0781    3.3545  -12.2976 C   0  0  0  0  0  0  0  0  0  0  0  0
   -7.8888    3.0334  -10.9520 C   0  0  0  0  0  0  0  0  0  0  0  0
   -7.9085    3.9138   -9.9297 N   0  0  0  0  0  0  0  0  0  0  0  0
   -8.1779    5.1742  -10.2621 C   0  0  0  0  0  0  0  0  0  0  0  0
   -8.3817    5.5731  -11.5775 C   0  0  0  0  0  0  0  0  0  0  0  0
   -9.4268    6.3581  -14.3703 C   0  0  0  0  0  0  0  0  0  0  0  0
   -7.9598    6.6125  -14.4104 C   0  0  0  0  0  0  0  0  0  0  0  0
   -5.6737    4.2876  -14.7548 C   0  0  0  0  0  0  0  0  0  0  0  0
   -4.6615    4.9241  -14.0534 C   0  0  0  0  0  0  0  0  0  0  0  0
   -4.5316    4.6239  -12.5954 C   0  0  0  0  0  0  0  0  0  0  0  0
  1  2  1  0
  2  3  1  0
  3  4  2  0
  3  5  1  0
  5  6  2  0
  6  7  1  0
  7  8  2  0
  8  9  1  0
  9 10  1  0
 10 11  1  0
 11 12  1  0
 12 13  2  0
 13 14  1  0
 14 15  2  0
 15 16  1  0
 16 17  2  0
 11 18  1  0
 18 19  1  0
  8 20  1  0
 20 21  2  0
 21 22  1  0
 21  5  1  0
 19 11  1  0
 17 12  1  0
M  END
>  <energy_score>  (1756) 
-8.361852

>  <alias>  (1756) 
None

>  <HIPPO Pose ID>  (1756) 
72427

>  <smiles>  (1756) 
COC(=O)c1cnc(NCC2(c3ccncc3)CC2)cc1C

>  <inchikey>  (1756) 
CCYINRQFLLFKQY-UHFFFAOYSA-N

>  <distance_score>  (1756) 
1.9453

>  <ref_mols>  (1756) 
Z1342a,Z1716a

>  <ref_pdb>  (1756) 
Z1716a

>  <HIPPO Compound ID>  (1756) 
145645

>  <name>  (1756) 
P72427

>  <inspiration_score>  (1756) 
None

$$$$
P72428
     RDKit          3D

 23 26  0  0  0  0  0  0  0  0999 V2000
   -5.0984    8.1020  -13.1921 C   0  0  0  0  0  0  0  0  0  0  0  0
   -6.0538    7.3781  -13.9001 C   0  0  0  0  0  0  0  0  0  0  0  0
   -5.8362    6.0178  -14.1379 C   0  0  0  0  0  0  0  0  0  0  0  0
   -6.8044    5.0998  -14.9212 C   0  0  0  0  0  0  0  0  0  0  0  0
   -7.1632    3.8623  -14.0116 C   0  0  0  0  0  0  0  0  0  0  0  0
   -8.3775    4.0531  -13.1903 N   0  0  0  0  0  0  0  0  0  0  0  0
   -8.1788    4.1662  -11.8127 C   0  0  0  0  0  0  0  0  0  0  0  0
   -7.7305    5.3606  -11.2434 C   0  0  0  0  0  0  0  0  0  0  0  0
   -7.6630    5.4969   -9.8559 C   0  0  0  0  0  0  0  0  0  0  0  0
   -8.0652    4.4266   -9.0955 C   0  0  0  0  0  0  0  0  0  0  0  0
   -8.4775    3.2749   -9.7307 C   0  0  0  0  0  0  0  0  0  0  0  0
   -8.5392    3.1073  -11.0668 N   0  0  0  0  0  0  0  0  0  0  0  0
   -8.8536    2.2665   -8.6914 C   0  0  0  0  0  0  0  0  0  0  0  0
   -8.9582    3.0543   -7.4711 O   0  0  0  0  0  0  0  0  0  0  0  0
   -8.1512    4.2402   -7.6316 C   0  0  0  0  0  0  0  0  0  0  0  0
   -5.9907    4.7086  -16.2064 C   0  0  0  0  0  0  0  0  0  0  0  0
   -6.6688    4.9131  -17.5679 C   0  0  0  0  0  0  0  0  0  0  0  0
   -8.1227    4.4815  -17.6436 C   0  0  0  0  0  0  0  0  0  0  0  0
   -8.8890    4.7401  -16.3562 C   0  0  0  0  0  0  0  0  0  0  0  0
   -8.1375    5.6998  -15.4161 C   0  0  0  0  0  0  0  0  0  0  0  0
   -4.6297    5.4762  -13.6510 C   0  0  0  0  0  0  0  0  0  0  0  0
   -3.7418    6.2768  -12.9540 C   0  0  0  0  0  0  0  0  0  0  0  0
   -3.9477    7.5837  -12.7152 N   0  0  0  0  0  0  0  0  0  0  0  0
  1  2  2  0
  2  3  1  0
  3  4  1  0
  4  5  1  0
  5  6  1  0
  6  7  1  0
  7  8  2  0
  8  9  1  0
  9 10  2  0
 10 11  1  0
 11 12  2  0
 11 13  1  0
 13 14  1  0
 14 15  1  0
  4 16  1  0
 16 17  1  0
 17 18  1  0
 18 19  1  0
 19 20  1  0
  3 21  2  0
 21 22  1  0
 22 23  2  0
 23  1  1  0
 20  4  1  0
 12  7  1  0
 15 10  1  0
M  END
>  <energy_score>  (1757) 
-48.347665

>  <alias>  (1757) 
None

>  <HIPPO Pose ID>  (1757) 
72428

>  <smiles>  (1757) 
c1cc(C2(CNc3ccc4c(n3)COC4)CCCCC2)ccn1

>  <inchikey>  (1757) 
WGUFJGSCCXLFRI-UHFFFAOYSA-N

>  <distance_score>  (1757) 
1.339759

>  <ref_mols>  (1757) 
Z1342a,Z1716a

>  <ref_pdb>  (1757) 
Z1716a

>  <HIPPO Compound ID>  (1757) 
145648

>  <name>  (1757) 
P72428

>  <inspiration_score>  (1757) 
None

$$$$
P72429
     RDKit          3D

 23 26  0  0  0  0  0  0  0  0999 V2000
   -9.3496    4.9075  -14.9224 O   0  0  0  0  0  0  0  0  0  0  0  0
   -8.6952    4.7642  -15.9363 C   0  0  0  0  0  0  0  0  0  0  0  0
   -8.9508    4.0229  -17.0553 O   0  0  0  0  0  0  0  0  0  0  0  0
   -7.9005    4.2259  -18.0458 C   0  0  0  0  0  0  0  0  0  0  0  0
   -6.8220    4.8735  -17.2542 C   0  0  0  0  0  0  0  0  0  0  0  0
   -5.5164    5.0732  -17.5359 N   0  0  0  0  0  0  0  0  0  0  0  0
   -4.8910    5.9575  -16.7238 C   0  0  0  0  0  0  0  0  0  0  0  0
   -3.5270    5.8887  -16.5854 N   0  0  0  0  0  0  0  0  0  0  0  0
   -2.7142    6.4134  -15.4718 C   0  0  0  0  0  0  0  0  0  0  0  0
   -3.2454    6.4688  -13.9885 C   0  0  0  0  0  0  0  0  0  0  0  0
   -3.9960    5.1039  -13.5486 C   0  0  0  0  0  0  0  0  0  0  0  0
   -3.3529    3.8548  -13.5709 C   0  0  0  0  0  0  0  0  0  0  0  0
   -4.0440    2.6897  -13.2488 C   0  0  0  0  0  0  0  0  0  0  0  0
   -5.3424    2.6657  -12.9068 N   0  0  0  0  0  0  0  0  0  0  0  0
   -5.9360    3.8578  -12.8390 C   0  0  0  0  0  0  0  0  0  0  0  0
   -7.2335    3.8338  -12.4490 O   0  0  0  0  0  0  0  0  0  0  0  0
   -5.3256    5.0672  -13.1070 C   0  0  0  0  0  0  0  0  0  0  0  0
   -3.8738    7.8624  -13.5429 C   0  0  0  0  0  0  0  0  0  0  0  0
   -3.0821    7.7678  -12.2437 C   0  0  0  0  0  0  0  0  0  0  0  0
   -2.0790    6.8898  -13.0046 C   0  0  0  0  0  0  0  0  0  0  0  0
   -5.6134    6.8342  -15.9377 C   0  0  0  0  0  0  0  0  0  0  0  0
   -6.8708    6.4602  -15.5150 C   0  0  0  0  0  0  0  0  0  0  0  0
   -7.4300    5.4015  -16.1617 C   0  0  0  0  0  0  0  0  0  0  0  0
  1  2  2  0
  2  3  1  0
  3  4  1  0
  4  5  1  0
  5  6  2  0
  6  7  1  0
  7  8  1  0
  8  9  1  0
  9 10  1  0
 10 11  1  0
 11 12  2  0
 12 13  1  0
 13 14  2  0
 14 15  1  0
 15 16  1  0
 15 17  2  0
 10 18  1  0
 18 19  1  0
 19 20  1  0
  7 21  2  0
 21 22  1  0
 22 23  2  0
 23  2  1  0
 23  5  1  0
 20 10  1  0
 17 11  1  0
M  END
>  <energy_score>  (1758) 
-28.372688

>  <alias>  (1758) 
None

>  <HIPPO Pose ID>  (1758) 
72429

>  <smiles>  (1758) 
O=C1OCc2nc(NCC3(c4ccnc(O)c4)CCC3)ccc21

>  <inchikey>  (1758) 
IKCQWZNRQQDGMA-UHFFFAOYSA-N

>  <distance_score>  (1758) 
1.783801

>  <ref_mols>  (1758) 
Z1342a,Z1716a

>  <ref_pdb>  (1758) 
Z1716a

>  <HIPPO Compound ID>  (1758) 
145674

>  <name>  (1758) 
P72429

>  <inspiration_score>  (1758) 
None

$$$$
P72430
     RDKit          3D

 24 26  0  0  0  0  0  0  0  0999 V2000
   -4.6806    7.6813  -11.7433 C   0  0  0  0  0  0  0  0  0  0  0  0
   -4.3881    6.4264  -10.9172 C   0  0  0  0  0  0  0  0  0  0  0  0
   -4.8926    6.5451   -9.5596 O   0  0  0  0  0  0  0  0  0  0  0  0
   -5.7055    5.5872   -9.0127 C   0  0  0  0  0  0  0  0  0  0  0  0
   -5.5988    5.2006   -7.8605 O   0  0  0  0  0  0  0  0  0  0  0  0
   -6.7800    5.1318   -9.9070 C   0  0  0  0  0  0  0  0  0  0  0  0
   -6.9166    3.7932  -10.2625 C   0  0  0  0  0  0  0  0  0  0  0  0
   -7.5956    3.3864  -11.3711 N   0  0  0  0  0  0  0  0  0  0  0  0
   -8.1680    4.3505  -12.1093 C   0  0  0  0  0  0  0  0  0  0  0  0
   -8.5927    4.0716  -13.4367 N   0  0  0  0  0  0  0  0  0  0  0  0
   -7.4010    4.0503  -14.3341 C   0  0  0  0  0  0  0  0  0  0  0  0
   -7.6992    4.4214  -15.8142 C   0  0  0  0  0  0  0  0  0  0  0  0
   -6.3296    4.7770  -16.6776 C   0  0  0  0  0  0  0  0  0  0  0  0
   -5.1417    5.2621  -16.1059 C   0  0  0  0  0  0  0  0  0  0  0  0
   -4.0487    5.5776  -16.9074 C   0  0  0  0  0  0  0  0  0  0  0  0
   -4.0336    5.4703  -18.2490 N   0  0  0  0  0  0  0  0  0  0  0  0
   -5.1689    5.0286  -18.8156 C   0  0  0  0  0  0  0  0  0  0  0  0
   -6.2948    4.6737  -18.0882 C   0  0  0  0  0  0  0  0  0  0  0  0
   -8.7867    3.6112  -16.5948 C   0  0  0  0  0  0  0  0  0  0  0  0
   -9.3734    4.9018  -17.0925 C   0  0  0  0  0  0  0  0  0  0  0  0
   -8.7453    5.5509  -15.8341 C   0  0  0  0  0  0  0  0  0  0  0  0
   -8.1879    5.6944  -11.7054 C   0  0  0  0  0  0  0  0  0  0  0  0
   -8.7645    6.6498  -12.4953 O   0  0  0  0  0  0  0  0  0  0  0  0
   -7.5307    6.0901  -10.5678 C   0  0  0  0  0  0  0  0  0  0  0  0
  1  2  1  0
  2  3  1  0
  3  4  1  0
  4  5  2  0
  4  6  1  0
  6  7  2  0
  7  8  1  0
  8  9  2  0
  9 10  1  0
 10 11  1  0
 11 12  1  0
 12 13  1  0
 13 14  2  0
 14 15  1  0
 15 16  2  0
 16 17  1  0
 17 18  2  0
 12 19  1  0
 19 20  1  0
 20 21  1  0
  9 22  1  0
 22 23  1  0
 22 24  2  0
 24  6  1  0
 21 12  1  0
 18 13  1  0
M  END
>  <energy_score>  (1759) 
-27.099927

>  <alias>  (1759) 
None

>  <HIPPO Pose ID>  (1759) 
72430

>  <smiles>  (1759) 
CCOC(=O)c1cnc(NCC2(c3ccncc3)CCC2)c(O)c1

>  <inchikey>  (1759) 
DONAAMKFPAGUAM-UHFFFAOYSA-N

>  <distance_score>  (1759) 
1.888809

>  <ref_mols>  (1759) 
Z1342a,Z1716a

>  <ref_pdb>  (1759) 
Z1716a

>  <HIPPO Compound ID>  (1759) 
145681

>  <name>  (1759) 
P72430

>  <inspiration_score>  (1759) 
None

$$$$
P72431
     RDKit          3D

 24 26  0  0  0  0  0  0  0  0999 V2000
   -4.2499    8.3598  -11.9464 C   0  0  0  0  0  0  0  0  0  0  0  0
   -4.1081    7.6176  -10.6162 C   0  0  0  0  0  0  0  0  0  0  0  0
   -4.9733    6.4807  -10.6919 O   0  0  0  0  0  0  0  0  0  0  0  0
   -5.6119    6.0716   -9.5625 C   0  0  0  0  0  0  0  0  0  0  0  0
   -5.3383    6.3202   -8.4078 O   0  0  0  0  0  0  0  0  0  0  0  0
   -6.7722    5.3367  -10.0912 C   0  0  0  0  0  0  0  0  0  0  0  0
   -7.7354    6.1317  -10.7023 C   0  0  0  0  0  0  0  0  0  0  0  0
   -8.4167    5.6044  -11.7785 C   0  0  0  0  0  0  0  0  0  0  0  0
   -8.1757    4.2882  -12.1541 C   0  0  0  0  0  0  0  0  0  0  0  0
   -8.5344    3.9301  -13.4671 N   0  0  0  0  0  0  0  0  0  0  0  0
   -7.3465    4.0166  -14.3506 C   0  0  0  0  0  0  0  0  0  0  0  0
   -7.6728    4.4243  -15.8104 C   0  0  0  0  0  0  0  0  0  0  0  0
   -6.3214    4.7979  -16.6874 C   0  0  0  0  0  0  0  0  0  0  0  0
   -5.1306    5.2835  -16.1225 C   0  0  0  0  0  0  0  0  0  0  0  0
   -4.0460    5.6068  -16.9314 C   0  0  0  0  0  0  0  0  0  0  0  0
   -4.0419    5.5072  -18.2742 N   0  0  0  0  0  0  0  0  0  0  0  0
   -5.1806    5.0624  -18.8327 C   0  0  0  0  0  0  0  0  0  0  0  0
   -6.3000    4.7019  -18.0981 C   0  0  0  0  0  0  0  0  0  0  0  0
   -8.7678    3.6182  -16.5837 C   0  0  0  0  0  0  0  0  0  0  0  0
   -9.3783    4.9123  -17.0363 C   0  0  0  0  0  0  0  0  0  0  0  0
   -8.7269    5.5512  -15.7796 C   0  0  0  0  0  0  0  0  0  0  0  0
   -7.4039    3.4505  -11.4369 N   0  0  0  0  0  0  0  0  0  0  0  0
   -6.7015    3.9798  -10.3998 C   0  0  0  0  0  0  0  0  0  0  0  0
   -5.6983    3.0800   -9.7463 C   0  0  0  0  0  0  0  0  0  0  0  0
  1  2  1  0
  2  3  1  0
  3  4  1  0
  4  5  2  0
  4  6  1  0
  6  7  2  0
  7  8  1  0
  8  9  2  0
  9 10  1  0
 10 11  1  0
 11 12  1  0
 12 13  1  0
 13 14  2  0
 14 15  1  0
 15 16  2  0
 16 17  1  0
 17 18  2  0
 12 19  1  0
 19 20  1  0
 20 21  1  0
  9 22  1  0
 22 23  2  0
 23 24  1  0
 23  6  1  0
 21 12  1  0
 18 13  1  0
M  END
>  <energy_score>  (1760) 
-38.144503

>  <alias>  (1760) 
None

>  <HIPPO Pose ID>  (1760) 
72431

>  <smiles>  (1760) 
CCOC(=O)c1ccc(NCC2(c3ccncc3)CCC2)nc1C

>  <inchikey>  (1760) 
BCECJXPSZMUPEG-UHFFFAOYSA-N

>  <distance_score>  (1760) 
1.713675

>  <ref_mols>  (1760) 
Z1342a,Z1716a

>  <ref_pdb>  (1760) 
Z1716a

>  <HIPPO Compound ID>  (1760) 
145682

>  <name>  (1760) 
P72431

>  <inspiration_score>  (1760) 
None

$$$$
P72432
     RDKit          3D

 24 26  0  0  0  0  0  0  0  0999 V2000
   -9.2877    3.0723   -5.7579 C   0  0  0  0  0  0  0  0  0  0  0  0
   -9.1005    3.0905   -7.1705 O   0  0  0  0  0  0  0  0  0  0  0  0
   -8.3142    4.0988   -7.6144 C   0  0  0  0  0  0  0  0  0  0  0  0
   -7.8126    4.9778   -6.9284 O   0  0  0  0  0  0  0  0  0  0  0  0
   -8.2181    4.0607   -9.0880 C   0  0  0  0  0  0  0  0  0  0  0  0
   -7.7126    5.1632   -9.7737 C   0  0  0  0  0  0  0  0  0  0  0  0
   -7.7110    5.1633  -11.1682 C   0  0  0  0  0  0  0  0  0  0  0  0
   -8.2184    4.0626  -11.8418 C   0  0  0  0  0  0  0  0  0  0  0  0
   -8.3821    4.0546  -13.2227 N   0  0  0  0  0  0  0  0  0  0  0  0
   -7.1492    3.8625  -14.0051 C   0  0  0  0  0  0  0  0  0  0  0  0
   -6.7800    5.1044  -14.8932 C   0  0  0  0  0  0  0  0  0  0  0  0
   -5.8303    6.0437  -14.1046 C   0  0  0  0  0  0  0  0  0  0  0  0
   -5.9840    7.4262  -14.0790 C   0  0  0  0  0  0  0  0  0  0  0  0
   -4.9711    8.1845  -13.5272 C   0  0  0  0  0  0  0  0  0  0  0  0
   -3.8531    7.6815  -12.9662 N   0  0  0  0  0  0  0  0  0  0  0  0
   -3.7260    6.3488  -12.9567 C   0  0  0  0  0  0  0  0  0  0  0  0
   -4.6611    5.5089  -13.5185 C   0  0  0  0  0  0  0  0  0  0  0  0
   -5.9358    4.7093  -16.1592 C   0  0  0  0  0  0  0  0  0  0  0  0
   -6.5786    4.9295  -17.5366 C   0  0  0  0  0  0  0  0  0  0  0  0
   -8.0334    4.5046  -17.6587 C   0  0  0  0  0  0  0  0  0  0  0  0
   -8.8299    4.7254  -16.3823 C   0  0  0  0  0  0  0  0  0  0  0  0
   -8.1103    5.6923  -15.4248 C   0  0  0  0  0  0  0  0  0  0  0  0
   -8.6710    2.9749  -11.2009 N   0  0  0  0  0  0  0  0  0  0  0  0
   -8.6621    2.9886   -9.8432 C   0  0  0  0  0  0  0  0  0  0  0  0
  1  2  1  0
  2  3  1  0
  3  4  2  0
  3  5  1  0
  5  6  2  0
  6  7  1  0
  7  8  2  0
  8  9  1  0
  9 10  1  0
 10 11  1  0
 11 12  1  0
 12 13  2  0
 13 14  1  0
 14 15  2  0
 15 16  1  0
 16 17  2  0
 11 18  1  0
 18 19  1  0
 19 20  1  0
 20 21  1  0
 21 22  1  0
  8 23  1  0
 23 24  2  0
 24  5  1  0
 22 11  1  0
 17 12  1  0
M  END
>  <energy_score>  (1761) 
-14.772718

>  <alias>  (1761) 
None

>  <HIPPO Pose ID>  (1761) 
72432

>  <smiles>  (1761) 
COC(=O)c1ccc(NCC2(c3ccncc3)CCCCC2)nc1

>  <inchikey>  (1761) 
XSKZETDLZLPFKL-UHFFFAOYSA-N

>  <distance_score>  (1761) 
1.675873

>  <ref_mols>  (1761) 
Z1342a,Z1716a

>  <ref_pdb>  (1761) 
Z1716a

>  <HIPPO Compound ID>  (1761) 
145690

>  <name>  (1761) 
P72432

>  <inspiration_score>  (1761) 
None

$$$$
P72433
     RDKit          3D

 24 27  0  0  0  0  0  0  0  0999 V2000
   -7.9162    5.0326   -6.6646 O   0  0  0  0  0  0  0  0  0  0  0  0
   -8.1319    4.2826   -7.5982 C   0  0  0  0  0  0  0  0  0  0  0  0
   -8.5433    2.9846   -7.5432 O   0  0  0  0  0  0  0  0  0  0  0  0
   -8.6415    2.3994   -8.8679 C   0  0  0  0  0  0  0  0  0  0  0  0
   -8.3852    3.5578   -9.7646 C   0  0  0  0  0  0  0  0  0  0  0  0
   -8.5017    3.5901  -11.1098 N   0  0  0  0  0  0  0  0  0  0  0  0
   -8.3017    4.7864  -11.7100 C   0  0  0  0  0  0  0  0  0  0  0  0
   -8.6250    4.8257  -13.0410 N   0  0  0  0  0  0  0  0  0  0  0  0
   -8.2001    5.8130  -14.0280 C   0  0  0  0  0  0  0  0  0  0  0  0
   -7.0213    5.3407  -14.9435 C   0  0  0  0  0  0  0  0  0  0  0  0
   -5.7090    5.4886  -14.1434 C   0  0  0  0  0  0  0  0  0  0  0  0
   -5.1359    6.7527  -13.9121 C   0  0  0  0  0  0  0  0  0  0  0  0
   -3.8916    6.8212  -13.3198 C   0  0  0  0  0  0  0  0  0  0  0  0
   -3.2147    5.7503  -12.8718 N   0  0  0  0  0  0  0  0  0  0  0  0
   -3.8145    4.5560  -13.0127 C   0  0  0  0  0  0  0  0  0  0  0  0
   -5.0348    4.3795  -13.6362 C   0  0  0  0  0  0  0  0  0  0  0  0
   -6.8764    6.2196  -16.2287 C   0  0  0  0  0  0  0  0  0  0  0  0
   -6.6978    5.4954  -17.5699 C   0  0  0  0  0  0  0  0  0  0  0  0
   -7.8883    4.5913  -17.8700 C   0  0  0  0  0  0  0  0  0  0  0  0
   -8.4752    4.0133  -16.5869 C   0  0  0  0  0  0  0  0  0  0  0  0
   -7.3948    3.9424  -15.4874 C   0  0  0  0  0  0  0  0  0  0  0  0
   -7.9116    5.9151  -10.9819 C   0  0  0  0  0  0  0  0  0  0  0  0
   -7.7858    5.8476   -9.5934 C   0  0  0  0  0  0  0  0  0  0  0  0
   -8.0561    4.6396   -9.0003 C   0  0  0  0  0  0  0  0  0  0  0  0
  1  2  2  0
  2  3  1  0
  3  4  1  0
  4  5  1  0
  5  6  2  0
  6  7  1  0
  7  8  1  0
  8  9  1  0
  9 10  1  0
 10 11  1  0
 11 12  2  0
 12 13  1  0
 13 14  2  0
 14 15  1  0
 15 16  2  0
 10 17  1  0
 17 18  1  0
 18 19  1  0
 19 20  1  0
 20 21  1  0
  7 22  2  0
 22 23  1  0
 23 24  2  0
 24  2  1  0
 24  5  1  0
 21 10  1  0
 16 11  1  0
M  END
>  <energy_score>  (1762) 
-27.716285

>  <alias>  (1762) 
None

>  <HIPPO Pose ID>  (1762) 
72433

>  <smiles>  (1762) 
O=C1OCc2nc(NCC3(c4ccncc4)CCCCC3)ccc21

>  <inchikey>  (1762) 
RQPHIHKLHTYBSJ-UHFFFAOYSA-N

>  <distance_score>  (1762) 
1.940999

>  <ref_mols>  (1762) 
Z1342a,Z1716a

>  <ref_pdb>  (1762) 
Z1716a

>  <HIPPO Compound ID>  (1762) 
145691

>  <name>  (1762) 
P72433

>  <inspiration_score>  (1762) 
None

$$$$
P72434
     RDKit          3D

 24 27  0  0  0  0  0  0  0  0999 V2000
   -7.7248    6.8680  -12.5645 O   0  0  0  0  0  0  0  0  0  0  0  0
   -7.5790    5.7551  -12.8966 C   0  0  0  0  0  0  0  0  0  0  0  0
   -7.7678    4.4465  -12.1098 N   0  0  0  0  0  0  0  0  0  0  0  0
   -8.0696    4.2357  -10.7827 C   0  0  0  0  0  0  0  0  0  0  0  0
   -8.1230    5.3554   -9.9393 C   0  0  0  0  0  0  0  0  0  0  0  0
   -8.3381    5.1930   -8.5780 C   0  0  0  0  0  0  0  0  0  0  0  0
   -8.5572    3.9160   -8.1343 C   0  0  0  0  0  0  0  0  0  0  0  0
   -8.5183    2.8708   -9.0366 C   0  0  0  0  0  0  0  0  0  0  0  0
   -8.2336    2.9782  -10.3534 N   0  0  0  0  0  0  0  0  0  0  0  0
   -8.8521    1.6128   -8.2983 C   0  0  0  0  0  0  0  0  0  0  0  0
   -9.3220    2.0557   -6.9964 O   0  0  0  0  0  0  0  0  0  0  0  0
   -8.8597    3.4018   -6.7794 C   0  0  0  0  0  0  0  0  0  0  0  0
   -7.0025    5.5118  -14.3326 C   0  0  0  0  0  0  0  0  0  0  0  0
   -5.6416    6.2920  -14.2659 C   0  0  0  0  0  0  0  0  0  0  0  0
   -4.6939    5.8777  -13.3002 C   0  0  0  0  0  0  0  0  0  0  0  0
   -3.4200    6.3980  -13.3265 C   0  0  0  0  0  0  0  0  0  0  0  0
   -3.0181    7.2903  -14.2438 N   0  0  0  0  0  0  0  0  0  0  0  0
   -3.9398    7.7094  -15.1353 C   0  0  0  0  0  0  0  0  0  0  0  0
   -5.2526    7.2766  -15.1661 C   0  0  0  0  0  0  0  0  0  0  0  0
   -6.5758    4.1787  -15.0006 C   0  0  0  0  0  0  0  0  0  0  0  0
   -6.5721    4.3998  -16.5483 C   0  0  0  0  0  0  0  0  0  0  0  0
   -7.9925    4.4120  -17.0968 C   0  0  0  0  0  0  0  0  0  0  0  0
   -8.9227    4.9198  -16.0120 C   0  0  0  0  0  0  0  0  0  0  0  0
   -8.1984    6.0216  -15.2134 C   0  0  0  0  0  0  0  0  0  0  0  0
  1  2  2  0
  2  3  1  0
  3  4  1  0
  4  5  2  0
  5  6  1  0
  6  7  2  0
  7  8  1  0
  8  9  2  0
  8 10  1  0
 10 11  1  0
 11 12  1  0
  2 13  1  0
 13 14  1  0
 14 15  2  0
 15 16  1  0
 16 17  2  0
 17 18  1  0
 18 19  2  0
 13 20  1  0
 20 21  1  0
 21 22  1  0
 22 23  1  0
 23 24  1  0
  9  4  1  0
 24 13  1  0
 12  7  1  0
 19 14  1  0
M  END
>  <energy_score>  (1763) 
-14.530651

>  <alias>  (1763) 
None

>  <HIPPO Pose ID>  (1763) 
72434

>  <smiles>  (1763) 
O=C(Nc1ccc2c(n1)COC2)C1(c2ccncc2)CCCCC1

>  <inchikey>  (1763) 
SHMOITQAIIYAGA-UHFFFAOYSA-N

>  <distance_score>  (1763) 
1.845742

>  <ref_mols>  (1763) 
Z1342a,Z1716a

>  <ref_pdb>  (1763) 
Z1716a

>  <HIPPO Compound ID>  (1763) 
145695

>  <name>  (1763) 
P72434

>  <inspiration_score>  (1763) 
None

$$$$
P72435
     RDKit          3D

 25 27  0  0  0  0  0  0  0  0999 V2000
   -9.4698    2.3780   -7.1981 C   0  0  0  0  0  0  0  0  0  0  0  0
   -8.4684    3.3037   -6.7441 O   0  0  0  0  0  0  0  0  0  0  0  0
   -7.7852    4.1687   -7.5279 C   0  0  0  0  0  0  0  0  0  0  0  0
   -7.0895    5.0543   -7.0347 O   0  0  0  0  0  0  0  0  0  0  0  0
   -7.9289    4.1314   -8.9966 C   0  0  0  0  0  0  0  0  0  0  0  0
   -7.8945    2.9667   -9.7419 C   0  0  0  0  0  0  0  0  0  0  0  0
   -8.0434    2.9312  -11.0904 N   0  0  0  0  0  0  0  0  0  0  0  0
   -8.1977    4.1005  -11.7411 C   0  0  0  0  0  0  0  0  0  0  0  0
   -8.4430    4.0192  -13.1148 N   0  0  0  0  0  0  0  0  0  0  0  0
   -7.2249    3.8463  -13.9322 C   0  0  0  0  0  0  0  0  0  0  0  0
   -6.8482    5.1029  -14.7960 C   0  0  0  0  0  0  0  0  0  0  0  0
   -5.9126    6.1101  -14.0627 C   0  0  0  0  0  0  0  0  0  0  0  0
   -5.1873    5.7604  -12.9132 C   0  0  0  0  0  0  0  0  0  0  0  0
   -4.1448    6.5607  -12.4897 C   0  0  0  0  0  0  0  0  0  0  0  0
   -3.7589    7.6739  -13.1327 N   0  0  0  0  0  0  0  0  0  0  0  0
   -4.4722    8.0232  -14.2183 C   0  0  0  0  0  0  0  0  0  0  0  0
   -5.5529    7.3093  -14.6932 C   0  0  0  0  0  0  0  0  0  0  0  0
   -5.9854    4.6527  -16.0325 C   0  0  0  0  0  0  0  0  0  0  0  0
   -6.5244    5.0247  -17.4186 C   0  0  0  0  0  0  0  0  0  0  0  0
   -7.9707    4.6039  -17.6440 C   0  0  0  0  0  0  0  0  0  0  0  0
   -8.8268    4.7307  -16.3891 C   0  0  0  0  0  0  0  0  0  0  0  0
   -8.1813    5.6704  -15.3519 C   0  0  0  0  0  0  0  0  0  0  0  0
   -8.1681    5.3284  -11.0717 C   0  0  0  0  0  0  0  0  0  0  0  0
   -8.3194    6.5048  -11.7551 O   0  0  0  0  0  0  0  0  0  0  0  0
   -8.0354    5.3413   -9.6866 C   0  0  0  0  0  0  0  0  0  0  0  0
  1  2  1  0
  2  3  1  0
  3  4  2  0
  3  5  1  0
  5  6  2  0
  6  7  1  0
  7  8  2  0
  8  9  1  0
  9 10  1  0
 10 11  1  0
 11 12  1  0
 12 13  2  0
 13 14  1  0
 14 15  2  0
 15 16  1  0
 16 17  2  0
 11 18  1  0
 18 19  1  0
 19 20  1  0
 20 21  1  0
 21 22  1  0
  8 23  1  0
 23 24  1  0
 23 25  2  0
 25  5  1  0
 22 11  1  0
 17 12  1  0
M  END
>  <energy_score>  (1764) 
-14.910323

>  <alias>  (1764) 
None

>  <HIPPO Pose ID>  (1764) 
72435

>  <smiles>  (1764) 
COC(=O)c1cnc(NCC2(c3ccncc3)CCCCC2)c(O)c1

>  <inchikey>  (1764) 
NGOZYPWMAPFPAC-UHFFFAOYSA-N

>  <distance_score>  (1764) 
1.808284

>  <ref_mols>  (1764) 
Z1342a,Z1716a

>  <ref_pdb>  (1764) 
Z1716a

>  <HIPPO Compound ID>  (1764) 
145737

>  <name>  (1764) 
P72435

>  <inspiration_score>  (1764) 
None

$$$$
P72436
     RDKit          3D

 25 27  0  0  0  0  0  0  0  0999 V2000
   -8.4864    3.9985   -5.3336 C   0  0  0  0  0  0  0  0  0  0  0  0
   -8.6787    3.9967   -6.7473 O   0  0  0  0  0  0  0  0  0  0  0  0
   -7.6414    4.4961   -7.4574 C   0  0  0  0  0  0  0  0  0  0  0  0
   -6.6682    5.0669   -6.9833 O   0  0  0  0  0  0  0  0  0  0  0  0
   -7.8722    4.3637   -8.9182 C   0  0  0  0  0  0  0  0  0  0  0  0
   -7.3351    5.3593   -9.7348 C   0  0  0  0  0  0  0  0  0  0  0  0
   -7.4977    5.2971  -11.1174 C   0  0  0  0  0  0  0  0  0  0  0  0
   -8.1636    4.2221  -11.6752 C   0  0  0  0  0  0  0  0  0  0  0  0
   -8.3919    4.1173  -13.0464 N   0  0  0  0  0  0  0  0  0  0  0  0
   -7.2021    3.8843  -13.8894 C   0  0  0  0  0  0  0  0  0  0  0  0
   -6.8242    5.1047  -14.8130 C   0  0  0  0  0  0  0  0  0  0  0  0
   -5.8404    6.0520  -14.0766 C   0  0  0  0  0  0  0  0  0  0  0  0
   -5.9486    7.4388  -14.1231 C   0  0  0  0  0  0  0  0  0  0  0  0
   -4.9032    8.1928  -13.6280 C   0  0  0  0  0  0  0  0  0  0  0  0
   -3.7944    7.6843  -13.0545 N   0  0  0  0  0  0  0  0  0  0  0  0
   -3.7111    6.3505  -12.9719 C   0  0  0  0  0  0  0  0  0  0  0  0
   -4.6809    5.5123  -13.4748 C   0  0  0  0  0  0  0  0  0  0  0  0
   -6.0001    4.6637  -16.0772 C   0  0  0  0  0  0  0  0  0  0  0  0
   -6.6220    4.9287  -17.4544 C   0  0  0  0  0  0  0  0  0  0  0  0
   -8.0773    4.5120  -17.5864 C   0  0  0  0  0  0  0  0  0  0  0  0
   -8.8732    4.7330  -16.3085 C   0  0  0  0  0  0  0  0  0  0  0  0
   -8.1545    5.6940  -15.3445 C   0  0  0  0  0  0  0  0  0  0  0  0
   -8.6885    3.2536  -10.9086 N   0  0  0  0  0  0  0  0  0  0  0  0
   -8.5611    3.3268   -9.5458 C   0  0  0  0  0  0  0  0  0  0  0  0
   -9.2157    2.2105   -8.7900 C   0  0  0  0  0  0  0  0  0  0  0  0
  1  2  1  0
  2  3  1  0
  3  4  2  0
  3  5  1  0
  5  6  2  0
  6  7  1  0
  7  8  2  0
  8  9  1  0
  9 10  1  0
 10 11  1  0
 11 12  1  0
 12 13  2  0
 13 14  1  0
 14 15  2  0
 15 16  1  0
 16 17  2  0
 11 18  1  0
 18 19  1  0
 19 20  1  0
 20 21  1  0
 21 22  1  0
  8 23  1  0
 23 24  2  0
 24 25  1  0
 24  5  1  0
 22 11  1  0
 17 12  1  0
M  END
>  <energy_score>  (1765) 
-40.151214

>  <alias>  (1765) 
None

>  <HIPPO Pose ID>  (1765) 
72436

>  <smiles>  (1765) 
COC(=O)c1ccc(NCC2(c3ccncc3)CCCCC2)nc1C

>  <inchikey>  (1765) 
QRGZGLDATDYFPK-UHFFFAOYSA-N

>  <distance_score>  (1765) 
1.916888

>  <ref_mols>  (1765) 
Z1342a,Z1716a

>  <ref_pdb>  (1765) 
Z1716a

>  <HIPPO Compound ID>  (1765) 
145738

>  <name>  (1765) 
P72436

>  <inspiration_score>  (1765) 
None

$$$$
P72437
     RDKit          3D

 26 28  0  0  0  0  0  0  0  0999 V2000
   -4.2486    8.1910  -11.8430 C   0  0  0  0  0  0  0  0  0  0  0  0
   -4.0844    7.4155  -10.5326 C   0  0  0  0  0  0  0  0  0  0  0  0
   -4.9707    6.2929  -10.6079 O   0  0  0  0  0  0  0  0  0  0  0  0
   -5.7036    5.9715   -9.5078 C   0  0  0  0  0  0  0  0  0  0  0  0
   -5.4752    6.2222   -8.3449 O   0  0  0  0  0  0  0  0  0  0  0  0
   -6.8930    5.3309  -10.0835 C   0  0  0  0  0  0  0  0  0  0  0  0
   -6.9034    3.9794  -10.3937 C   0  0  0  0  0  0  0  0  0  0  0  0
   -7.5977    3.4752  -11.4451 N   0  0  0  0  0  0  0  0  0  0  0  0
   -8.2522    4.3663  -12.2218 C   0  0  0  0  0  0  0  0  0  0  0  0
   -8.5787    3.9686  -13.5350 N   0  0  0  0  0  0  0  0  0  0  0  0
   -7.3713    4.0371  -14.3841 C   0  0  0  0  0  0  0  0  0  0  0  0
   -7.6572    4.4365  -15.8534 C   0  0  0  0  0  0  0  0  0  0  0  0
   -6.2731    4.8464  -16.6665 C   0  0  0  0  0  0  0  0  0  0  0  0
   -5.1649    5.4605  -16.0604 C   0  0  0  0  0  0  0  0  0  0  0  0
   -4.0477    5.8059  -16.8146 C   0  0  0  0  0  0  0  0  0  0  0  0
   -3.9386    5.6172  -18.1429 N   0  0  0  0  0  0  0  0  0  0  0  0
   -5.0021    5.0612  -18.7450 C   0  0  0  0  0  0  0  0  0  0  0  0
   -6.1391    4.6602  -18.0613 C   0  0  0  0  0  0  0  0  0  0  0  0
   -8.6878    3.6002  -16.6714 C   0  0  0  0  0  0  0  0  0  0  0  0
   -9.2983    4.8747  -17.1840 C   0  0  0  0  0  0  0  0  0  0  0  0
  -10.6236    4.8217  -17.3945 F   0  0  0  0  0  0  0  0  0  0  0  0
   -8.7721    5.3382  -18.3391 F   0  0  0  0  0  0  0  0  0  0  0  0
   -8.7548    5.5180  -15.8736 C   0  0  0  0  0  0  0  0  0  0  0  0
   -8.3933    5.7187  -11.8723 C   0  0  0  0  0  0  0  0  0  0  0  0
   -9.0463    6.6013  -12.6954 O   0  0  0  0  0  0  0  0  0  0  0  0
   -7.7522    6.1975  -10.7498 C   0  0  0  0  0  0  0  0  0  0  0  0
  1  2  1  0
  2  3  1  0
  3  4  1  0
  4  5  2  0
  4  6  1  0
  6  7  2  0
  7  8  1  0
  8  9  2  0
  9 10  1  0
 10 11  1  0
 11 12  1  0
 12 13  1  0
 13 14  2  0
 14 15  1  0
 15 16  2  0
 16 17  1  0
 17 18  2  0
 12 19  1  0
 19 20  1  0
 20 21  1  0
 20 22  1  0
 20 23  1  0
  9 24  1  0
 24 25  1  0
 24 26  2  0
 26  6  1  0
 23 12  1  0
 18 13  1  0
M  END
>  <energy_score>  (1766) 
-5.442917

>  <alias>  (1766) 
None

>  <HIPPO Pose ID>  (1766) 
72437

>  <smiles>  (1766) 
CCOC(=O)c1cnc(NCC2(c3ccncc3)CC(F)(F)C2)c(O)c1

>  <inchikey>  (1766) 
IYXYCYBQRGMHMM-UHFFFAOYSA-N

>  <distance_score>  (1766) 
1.777418

>  <ref_mols>  (1766) 
Z1342a,Z1716a

>  <ref_pdb>  (1766) 
Z1716a

>  <HIPPO Compound ID>  (1766) 
145757

>  <name>  (1766) 
P72437

>  <inspiration_score>  (1766) 
None

$$$$
P72438
     RDKit          3D

 26 28  0  0  0  0  0  0  0  0999 V2000
  -10.1446    2.2127   -5.8719 C   0  0  0  0  0  0  0  0  0  0  0  0
   -9.5474    2.5740   -7.1184 O   0  0  0  0  0  0  0  0  0  0  0  0
   -8.7102    3.6359   -7.1039 C   0  0  0  0  0  0  0  0  0  0  0  0
   -8.3666    4.3012   -6.1406 O   0  0  0  0  0  0  0  0  0  0  0  0
   -8.3404    3.9412   -8.5027 C   0  0  0  0  0  0  0  0  0  0  0  0
   -8.0666    2.9110   -9.3902 C   0  0  0  0  0  0  0  0  0  0  0  0
   -7.7541    3.1086  -10.6953 N   0  0  0  0  0  0  0  0  0  0  0  0
   -7.8290    4.3713  -11.1566 C   0  0  0  0  0  0  0  0  0  0  0  0
   -7.4815    4.5112  -12.4739 N   0  0  0  0  0  0  0  0  0  0  0  0
   -7.6423    5.7302  -13.4437 C   0  0  0  0  0  0  0  0  0  0  0  0
   -8.1657    6.7667  -13.2802 O   0  0  0  0  0  0  0  0  0  0  0  0
   -6.8344    5.3535  -14.7423 C   0  0  0  0  0  0  0  0  0  0  0  0
   -5.3523    5.4825  -14.3034 C   0  0  0  0  0  0  0  0  0  0  0  0
   -4.5060    4.3838  -14.1843 C   0  0  0  0  0  0  0  0  0  0  0  0
   -3.1980    4.5790  -13.7852 C   0  0  0  0  0  0  0  0  0  0  0  0
   -2.6734    5.7829  -13.5102 N   0  0  0  0  0  0  0  0  0  0  0  0
   -3.4997    6.8384  -13.5990 C   0  0  0  0  0  0  0  0  0  0  0  0
   -4.8290    6.7429  -13.9513 C   0  0  0  0  0  0  0  0  0  0  0  0
   -7.0339    6.3517  -15.9013 C   0  0  0  0  0  0  0  0  0  0  0  0
   -6.8293    5.7653  -17.3091 C   0  0  0  0  0  0  0  0  0  0  0  0
   -7.8928    4.7217  -17.6382 C   0  0  0  0  0  0  0  0  0  0  0  0
   -8.4814    4.1402  -16.3597 C   0  0  0  0  0  0  0  0  0  0  0  0
   -7.3749    3.9959  -15.2982 C   0  0  0  0  0  0  0  0  0  0  0  0
   -8.0929    5.4643  -10.3583 C   0  0  0  0  0  0  0  0  0  0  0  0
   -8.2932    5.2576   -8.9881 C   0  0  0  0  0  0  0  0  0  0  0  0
   -8.3787    6.4501   -8.0872 C   0  0  0  0  0  0  0  0  0  0  0  0
  1  2  1  0
  2  3  1  0
  3  4  2  0
  3  5  1  0
  5  6  2  0
  6  7  1  0
  7  8  2  0
  8  9  1  0
  9 10  1  0
 10 11  2  0
 10 12  1  0
 12 13  1  0
 13 14  2  0
 14 15  1  0
 15 16  2  0
 16 17  1  0
 17 18  2  0
 12 19  1  0
 19 20  1  0
 20 21  1  0
 21 22  1  0
 22 23  1  0
  8 24  1  0
 24 25  2  0
 25 26  1  0
 25  5  1  0
 23 12  1  0
 18 13  1  0
M  END
>  <energy_score>  (1767) 
-16.034805

>  <alias>  (1767) 
None

>  <HIPPO Pose ID>  (1767) 
72438

>  <smiles>  (1767) 
COC(=O)c1cnc(NC(=O)C2(c3ccncc3)CCCCC2)cc1C

>  <inchikey>  (1767) 
GNOGAXQDWPMMCE-UHFFFAOYSA-N

>  <distance_score>  (1767) 
1.883724

>  <ref_mols>  (1767) 
Z1342a,Z1716a

>  <ref_pdb>  (1767) 
Z1716a

>  <HIPPO Compound ID>  (1767) 
145766

>  <name>  (1767) 
P72438

>  <inspiration_score>  (1767) 
None

$$$$
P72439
     RDKit          3D

 26 28  0  0  0  0  0  0  0  0999 V2000
  -10.2761    1.9217   -5.8210 C   0  0  0  0  0  0  0  0  0  0  0  0
   -9.5730    2.2066   -7.0204 O   0  0  0  0  0  0  0  0  0  0  0  0
   -8.8517    3.3445   -6.9938 C   0  0  0  0  0  0  0  0  0  0  0  0
   -8.6637    4.0910   -6.0464 O   0  0  0  0  0  0  0  0  0  0  0  0
   -8.3857    3.6247   -8.3537 C   0  0  0  0  0  0  0  0  0  0  0  0
   -8.0598    2.6494   -9.2829 C   0  0  0  0  0  0  0  0  0  0  0  0
   -7.7387    2.9145  -10.5795 N   0  0  0  0  0  0  0  0  0  0  0  0
   -7.8258    4.1992  -10.9687 C   0  0  0  0  0  0  0  0  0  0  0  0
   -7.5396    4.4221  -12.2982 N   0  0  0  0  0  0  0  0  0  0  0  0
   -7.6200    5.7032  -13.1324 C   0  0  0  0  0  0  0  0  0  0  0  0
   -8.0153    6.7661  -12.8521 O   0  0  0  0  0  0  0  0  0  0  0  0
   -6.9627    5.5205  -14.5344 C   0  0  0  0  0  0  0  0  0  0  0  0
   -5.6476    6.3586  -14.3891 C   0  0  0  0  0  0  0  0  0  0  0  0
   -4.7387    6.0025  -13.3636 C   0  0  0  0  0  0  0  0  0  0  0  0
   -3.4855    6.5712  -13.3304 C   0  0  0  0  0  0  0  0  0  0  0  0
   -3.0665    7.4545  -14.2472 N   0  0  0  0  0  0  0  0  0  0  0  0
   -3.9501    7.8178  -15.1988 C   0  0  0  0  0  0  0  0  0  0  0  0
   -5.2418    7.3343  -15.2916 C   0  0  0  0  0  0  0  0  0  0  0  0
   -6.4548    4.2142  -15.1915 C   0  0  0  0  0  0  0  0  0  0  0  0
   -6.4170    4.4297  -16.7398 C   0  0  0  0  0  0  0  0  0  0  0  0
   -7.8220    4.4082  -17.3357 C   0  0  0  0  0  0  0  0  0  0  0  0
   -8.8070    4.8388  -16.2668 C   0  0  0  0  0  0  0  0  0  0  0  0
   -8.1445    5.9756  -15.4616 C   0  0  0  0  0  0  0  0  0  0  0  0
   -8.1202    5.2463  -10.0814 C   0  0  0  0  0  0  0  0  0  0  0  0
   -8.1695    6.5850  -10.3404 O   0  0  0  0  0  0  0  0  0  0  0  0
   -8.3663    4.9482   -8.7554 C   0  0  0  0  0  0  0  0  0  0  0  0
  1  2  1  0
  2  3  1  0
  3  4  2  0
  3  5  1  0
  5  6  2  0
  6  7  1  0
  7  8  2  0
  8  9  1  0
  9 10  1  0
 10 11  2  0
 10 12  1  0
 12 13  1  0
 13 14  2  0
 14 15  1  0
 15 16  2  0
 16 17  1  0
 17 18  2  0
 12 19  1  0
 19 20  1  0
 20 21  1  0
 21 22  1  0
 22 23  1  0
  8 24  1  0
 24 25  1  0
 24 26  2  0
 26  5  1  0
 23 12  1  0
 18 13  1  0
M  END
>  <energy_score>  (1768) 
-36.98994

>  <alias>  (1768) 
None

>  <HIPPO Pose ID>  (1768) 
72439

>  <smiles>  (1768) 
COC(=O)c1cnc(NC(=O)C2(c3ccncc3)CCCCC2)c(O)c1

>  <inchikey>  (1768) 
DQRVKPAOOJKJJB-UHFFFAOYSA-N

>  <distance_score>  (1768) 
1.865854

>  <ref_mols>  (1768) 
Z1342a,Z1716a

>  <ref_pdb>  (1768) 
Z1716a

>  <HIPPO Compound ID>  (1768) 
145767

>  <name>  (1768) 
P72439

>  <inspiration_score>  (1768) 
None

$$$$
P72440
     RDKit          3D

 26 28  0  0  0  0  0  0  0  0999 V2000
   -9.8098    3.4422   -5.2193 C   0  0  0  0  0  0  0  0  0  0  0  0
   -9.5256    3.5714   -6.6109 O   0  0  0  0  0  0  0  0  0  0  0  0
   -8.7131    4.6062   -6.9230 C   0  0  0  0  0  0  0  0  0  0  0  0
   -8.3249    5.4726   -6.1533 O   0  0  0  0  0  0  0  0  0  0  0  0
   -8.4261    4.6224   -8.3738 C   0  0  0  0  0  0  0  0  0  0  0  0
   -8.4223    5.8695   -9.0120 C   0  0  0  0  0  0  0  0  0  0  0  0
   -8.2109    5.9596  -10.3840 C   0  0  0  0  0  0  0  0  0  0  0  0
   -7.9237    4.7972  -11.0601 C   0  0  0  0  0  0  0  0  0  0  0  0
   -7.5560    4.7934  -12.3786 N   0  0  0  0  0  0  0  0  0  0  0  0
   -7.7061    5.8973  -13.4789 C   0  0  0  0  0  0  0  0  0  0  0  0
   -8.2360    6.9425  -13.4385 O   0  0  0  0  0  0  0  0  0  0  0  0
   -6.8753    5.3870  -14.7200 C   0  0  0  0  0  0  0  0  0  0  0  0
   -5.4007    5.4712  -14.2512 C   0  0  0  0  0  0  0  0  0  0  0  0
   -4.8115    6.7256  -13.9966 C   0  0  0  0  0  0  0  0  0  0  0  0
   -3.4812    6.7764  -13.6380 C   0  0  0  0  0  0  0  0  0  0  0  0
   -2.7172    5.6878  -13.4477 N   0  0  0  0  0  0  0  0  0  0  0  0
   -3.3105    4.4952  -13.6155 C   0  0  0  0  0  0  0  0  0  0  0  0
   -4.6238    4.3399  -14.0153 C   0  0  0  0  0  0  0  0  0  0  0  0
   -6.9945    6.3111  -15.9534 C   0  0  0  0  0  0  0  0  0  0  0  0
   -6.7912    5.6236  -17.3099 C   0  0  0  0  0  0  0  0  0  0  0  0
   -7.9145    4.6341  -17.5936 C   0  0  0  0  0  0  0  0  0  0  0  0
   -8.5387    4.1386  -16.2948 C   0  0  0  0  0  0  0  0  0  0  0  0
   -7.4734    4.0178  -15.1883 C   0  0  0  0  0  0  0  0  0  0  0  0
   -7.8665    3.5879  -10.4699 N   0  0  0  0  0  0  0  0  0  0  0  0
   -8.1504    3.4936   -9.1415 C   0  0  0  0  0  0  0  0  0  0  0  0
   -8.1608    2.0980   -8.5983 C   0  0  0  0  0  0  0  0  0  0  0  0
  1  2  1  0
  2  3  1  0
  3  4  2  0
  3  5  1  0
  5  6  2  0
  6  7  1  0
  7  8  2  0
  8  9  1  0
  9 10  1  0
 10 11  2  0
 10 12  1  0
 12 13  1  0
 13 14  2  0
 14 15  1  0
 15 16  2  0
 16 17  1  0
 17 18  2  0
 12 19  1  0
 19 20  1  0
 20 21  1  0
 21 22  1  0
 22 23  1  0
  8 24  1  0
 24 25  2  0
 25 26  1  0
 25  5  1  0
 23 12  1  0
 18 13  1  0
M  END
>  <energy_score>  (1769) 
-30.185407

>  <alias>  (1769) 
None

>  <HIPPO Pose ID>  (1769) 
72440

>  <smiles>  (1769) 
COC(=O)c1ccc(NC(=O)C2(c3ccncc3)CCCCC2)nc1C

>  <inchikey>  (1769) 
BRWNBRGSNBBQKJ-UHFFFAOYSA-N

>  <distance_score>  (1769) 
1.835755

>  <ref_mols>  (1769) 
Z1342a,Z1716a

>  <ref_pdb>  (1769) 
Z1716a

>  <HIPPO Compound ID>  (1769) 
145768

>  <name>  (1769) 
P72440

>  <inspiration_score>  (1769) 
None

$$$$
P72441
     RDKit          3D

 27 30  0  0  0  0  0  0  0  0999 V2000
   -8.7023    5.4783   -4.6663 C   0  0  0  0  0  0  0  0  0  0  0  0
   -8.7130    5.1063   -6.0424 O   0  0  0  0  0  0  0  0  0  0  0  0
   -7.6508    5.5632   -6.7546 C   0  0  0  0  0  0  0  0  0  0  0  0
   -6.7764    6.2997   -6.3149 O   0  0  0  0  0  0  0  0  0  0  0  0
   -7.7151    5.0929   -8.1661 C   0  0  0  0  0  0  0  0  0  0  0  0
   -7.1374    5.8660   -9.1065 C   0  0  0  0  0  0  0  0  0  0  0  0
   -7.1171    5.4942  -10.5091 C   0  0  0  0  0  0  0  0  0  0  0  0
   -7.6756    4.3405  -10.9327 C   0  0  0  0  0  0  0  0  0  0  0  0
   -7.5973    3.9149  -12.2698 N   0  0  0  0  0  0  0  0  0  0  0  0
   -8.1682    4.7458  -13.3206 C   0  0  0  0  0  0  0  0  0  0  0  0
   -7.2535    5.1967  -14.4961 C   0  0  0  0  0  0  0  0  0  0  0  0
   -6.0579    6.0677  -14.0140 C   0  0  0  0  0  0  0  0  0  0  0  0
   -5.8376    7.3813  -14.4148 C   0  0  0  0  0  0  0  0  0  0  0  0
   -4.6069    7.9591  -14.1521 C   0  0  0  0  0  0  0  0  0  0  0  0
   -3.6120    7.3648  -13.4649 N   0  0  0  0  0  0  0  0  0  0  0  0
   -3.8525    6.1278  -13.0101 C   0  0  0  0  0  0  0  0  0  0  0  0
   -5.0308    5.4576  -13.2608 C   0  0  0  0  0  0  0  0  0  0  0  0
   -6.6115    4.0724  -15.3540 C   0  0  0  0  0  0  0  0  0  0  0  0
   -6.5122    4.4911  -16.8455 C   0  0  0  0  0  0  0  0  0  0  0  0
   -7.8966    4.5058  -17.4922 C   0  0  0  0  0  0  0  0  0  0  0  0
   -8.9396    4.8209  -16.4296 C   0  0  0  0  0  0  0  0  0  0  0  0
   -8.3150    5.8465  -15.4481 C   0  0  0  0  0  0  0  0  0  0  0  0
   -8.3405    3.5762   -9.9414 N   0  0  0  0  0  0  0  0  0  0  0  0
   -9.1279    2.4659  -10.0582 C   0  0  0  0  0  0  0  0  0  0  0  0
   -9.5626    2.0165   -8.9004 N   0  0  0  0  0  0  0  0  0  0  0  0
   -9.0488    2.8719   -7.9732 C   0  0  0  0  0  0  0  0  0  0  0  0
   -8.3632    3.8985   -8.5828 C   0  0  0  0  0  0  0  0  0  0  0  0
  1  2  1  0
  2  3  1  0
  3  4  2  0
  3  5  1  0
  5  6  2  0
  6  7  1  0
  7  8  2  0
  8  9  1  0
  9 10  1  0
 10 11  1  0
 11 12  1  0
 12 13  2  0
 13 14  1  0
 14 15  2  0
 15 16  1  0
 16 17  2  0
 11 18  1  0
 18 19  1  0
 19 20  1  0
 20 21  1  0
 21 22  1  0
  8 23  1  0
 23 24  1  0
 24 25  2  0
 25 26  1  0
 26 27  2  0
 27  5  1  0
 22 11  1  0
 27 23  1  0
 17 12  1  0
M  END
>  <energy_score>  (1770) 
-34.795886

>  <alias>  (1770) 
None

>  <HIPPO Pose ID>  (1770) 
72441

>  <smiles>  (1770) 
COC(=O)c1ccc(NCC2(c3ccncc3)CCCCC2)n2cncc12

>  <inchikey>  (1770) 
BERNPEKHQDOGCD-UHFFFAOYSA-N

>  <distance_score>  (1770) 
1.852567

>  <ref_mols>  (1770) 
Z1342a,Z1716a

>  <ref_pdb>  (1770) 
Z1716a

>  <HIPPO Compound ID>  (1770) 
145774

>  <name>  (1770) 
P72441

>  <inspiration_score>  (1770) 
None

$$$$
P72443
     RDKit          3D

 24 26  0  0  0  0  0  0  0  0999 V2000
   -9.8127    3.5503  -17.9477 C   0  0  0  0  0  0  0  0  0  0  0  0
   -9.3194    3.6897  -16.6123 O   0  0  0  0  0  0  0  0  0  0  0  0
   -7.9689    3.8220  -16.6066 C   0  0  0  0  0  0  0  0  0  0  0  0
   -7.2269    3.4612  -17.5010 O   0  0  0  0  0  0  0  0  0  0  0  0
   -7.5726    4.5774  -15.3655 C   0  0  0  0  0  0  0  0  0  0  0  0
   -7.8454    5.8135  -15.8261 C   0  0  0  0  0  0  0  0  0  0  0  0
   -7.0539    6.3701  -16.7657 N   0  0  0  0  0  0  0  0  0  0  0  0
   -5.7833    5.9103  -16.8297 C   0  0  0  0  0  0  0  0  0  0  0  0
   -4.8145    6.2208  -17.8126 C   0  0  0  0  0  0  0  0  0  0  0  0
   -3.5725    5.7527  -17.4492 C   0  0  0  0  0  0  0  0  0  0  0  0
   -3.5860    5.0531  -15.8794 S   0  0  0  0  0  0  0  0  0  0  0  0
   -5.3000    5.0762  -15.8261 C   0  0  0  0  0  0  0  0  0  0  0  0
   -6.2523    4.5621  -14.9180 C   0  0  0  0  0  0  0  0  0  0  0  0
   -5.9358    4.4542  -13.5608 N   0  0  0  0  0  0  0  0  0  0  0  0
   -6.8452    3.7535  -12.6696 C   0  0  0  0  0  0  0  0  0  0  0  0
   -7.6045    4.7233  -11.7582 C   0  0  0  0  0  0  0  0  0  0  0  0
   -7.6717    4.2098  -10.3842 N   0  0  0  0  0  0  0  0  0  0  0  0
   -8.5198    3.0141  -10.2761 C   0  0  0  0  0  0  0  0  0  0  0  0
   -8.2328    2.2579   -8.9935 C   0  0  0  0  0  0  0  0  0  0  0  0
   -9.0354    2.6961   -7.7829 C   0  0  0  0  0  0  0  0  0  0  0  0
   -9.0735    4.1275   -7.4482 N   0  0  0  0  0  0  0  0  0  0  0  0
   -9.2018    4.2568   -6.0012 C   0  0  0  0  0  0  0  0  0  0  0  0
   -7.9383    4.9040   -7.9541 C   0  0  0  0  0  0  0  0  0  0  0  0
   -8.0618    5.2683   -9.4504 C   0  0  0  0  0  0  0  0  0  0  0  0
  1  2  1  0
  2  3  1  0
  3  4  2  0
  3  5  1  0
  5  6  2  0
  6  7  1  0
  7  8  2  0
  8  9  1  0
  9 10  2  0
 10 11  1  0
 11 12  1  0
 12 13  2  0
 13 14  1  0
 14 15  1  0
 15 16  1  0
 16 17  1  0
 17 18  1  0
 18 19  1  0
 19 20  1  0
 20 21  1  0
 21 22  1  0
 21 23  1  0
 23 24  1  0
 13  5  1  0
 24 17  1  0
 12  8  1  0
M  END
>  <energy_score>  (1771) 
-18.23662

>  <alias>  (1771) 
None

>  <HIPPO Pose ID>  (1771) 
72443

>  <smiles>  (1771) 
COC(=O)c1cnc2ccsc2c1NCCN1CCCN(C)CC1

>  <inchikey>  (1771) 
PJTVDCNHOGMXPN-UHFFFAOYSA-N

>  <distance_score>  (1771) 
1.573061

>  <ref_mols>  (1771) 
Z0917a,Z3515a

>  <ref_pdb>  (1771) 
Z3515a

>  <HIPPO Compound ID>  (1771) 
145797

>  <name>  (1771) 
P72443

>  <inspiration_score>  (1771) 
None

$$$$
P72445
     RDKit          3D

 28 30  0  0  0  0  0  0  0  0999 V2000
    0.3606    8.2336  -25.2508 C   0  0  0  0  0  0  0  0  0  0  0  0
   -0.2516    9.3120  -24.5399 O   0  0  0  0  0  0  0  0  0  0  0  0
   -1.2015    8.8186  -23.6842 C   0  0  0  0  0  0  0  0  0  0  0  0
   -0.8429    8.6801  -22.3431 C   0  0  0  0  0  0  0  0  0  0  0  0
   -1.7516    8.1454  -21.4289 C   0  0  0  0  0  0  0  0  0  0  0  0
   -3.0281    7.7440  -21.8463 C   0  0  0  0  0  0  0  0  0  0  0  0
   -4.0044    7.1448  -20.8585 C   0  0  0  0  0  0  0  0  0  0  0  0
   -3.9802    5.5962  -20.6876 C   0  0  2  0  0  0  0  0  0  0  0  0
   -2.6247    5.1151  -20.1484 C   0  0  0  0  0  0  0  0  0  0  0  0
   -4.2637    4.8657  -22.0216 C   0  0  0  0  0  0  0  0  0  0  0  0
   -5.4436    5.3386  -22.6603 O   0  0  0  0  0  0  0  0  0  0  0  0
   -4.9951    5.2283  -19.6793 N   0  0  0  0  0  0  0  0  0  0  0  0
   -5.2211    5.7541  -18.2474 C   0  0  0  0  0  0  0  0  0  0  0  0
   -4.5951    6.5055  -17.6098 O   0  0  0  0  0  0  0  0  0  0  0  0
   -6.4336    5.1682  -17.5712 C   0  0  0  0  0  0  0  0  0  0  0  0
   -7.5400    4.6135  -18.2279 C   0  0  0  0  0  0  0  0  0  0  0  0
   -8.6551    4.1784  -17.5113 C   0  0  0  0  0  0  0  0  0  0  0  0
  -10.0595    3.6813  -18.3667 Cl  0  0  0  0  0  0  0  0  0  0  0  0
   -8.7039    4.2374  -16.1196 C   0  0  0  0  0  0  0  0  0  0  0  0
   -7.6321    4.8218  -15.4328 C   0  0  0  0  0  0  0  0  0  0  0  0
   -7.3938    5.1303  -14.0652 C   0  0  0  0  0  0  0  0  0  0  0  0
   -6.1820    5.7767  -13.9892 C   0  0  0  0  0  0  0  0  0  0  0  0
   -5.6607    5.8317  -15.2535 N   0  0  0  0  0  0  0  0  0  0  0  0
   -6.5346    5.2711  -16.1647 C   0  0  0  0  0  0  0  0  0  0  0  0
   -3.3872    7.9202  -23.1914 C   0  0  0  0  0  0  0  0  0  0  0  0
   -2.4916    8.4824  -24.1053 C   0  0  0  0  0  0  0  0  0  0  0  0
   -2.9560    8.6108  -25.3876 O   0  0  0  0  0  0  0  0  0  0  0  0
   -2.7380    9.9083  -25.9389 C   0  0  0  0  0  0  0  0  0  0  0  0
  1  2  1  0
  2  3  1  0
  3  4  2  0
  4  5  1  0
  5  6  2  0
  6  7  1  0
  7  8  1  0
  8  9  1  1
  8 10  1  0
 10 11  1  0
  8 12  1  0
 12 13  1  0
 13 14  2  0
 13 15  1  0
 15 16  2  0
 16 17  1  0
 17 18  1  0
 17 19  2  0
 19 20  1  0
 20 21  1  0
 21 22  2  0
 22 23  1  0
 23 24  1  0
  6 25  1  0
 25 26  2  0
 26 27  1  0
 27 28  1  0
 26  3  1  0
 24 15  1  0
 24 20  2  0
M  END
>  <energy_score>  (1772) 
-31.126609

>  <alias>  (1772) 
None

>  <HIPPO Pose ID>  (1772) 
72445

>  <smiles>  (1772) 
COc1ccc(C[C@](C)(CO)NC(=O)c2cc(Cl)cc3cc[nH]c23)cc1OC

>  <inchikey>  (1772) 
QGELXGVPRWMKBZ-OAQYLSRUSA-N

>  <distance_score>  (1772) 
0.573569

>  <ref_mols>  (1772) 
Z0827a,Z0101a

>  <ref_pdb>  (1772) 
Z0101a

>  <HIPPO Compound ID>  (1772) 
145824

>  <name>  (1772) 
P72445

>  <inspiration_score>  (1772) 
None

$$$$
P72450
     RDKit          3D

 28 30  0  0  0  0  0  0  0  0999 V2000
    0.0913    9.8469  -25.8278 C   0  0  0  0  0  0  0  0  0  0  0  0
    0.4230    9.4890  -24.4935 O   0  0  0  0  0  0  0  0  0  0  0  0
   -0.5853    8.9963  -23.7081 C   0  0  0  0  0  0  0  0  0  0  0  0
   -1.8738    8.6931  -24.1534 C   0  0  0  0  0  0  0  0  0  0  0  0
   -2.8354    8.1983  -23.2630 C   0  0  0  0  0  0  0  0  0  0  0  0
   -2.5305    8.0023  -21.9099 C   0  0  0  0  0  0  0  0  0  0  0  0
   -3.5684    7.4606  -20.9553 C   0  0  0  0  0  0  0  0  0  0  0  0
   -3.6242    5.9225  -20.7927 C   0  0  2  0  0  0  0  0  0  0  0  0
   -2.3203    5.3502  -20.2289 C   0  0  0  0  0  0  0  0  0  0  0  0
   -3.9332    5.1873  -22.1320 C   0  0  0  0  0  0  0  0  0  0  0  0
   -5.1254    5.6601  -22.7673 O   0  0  0  0  0  0  0  0  0  0  0  0
   -4.7380    5.6313  -19.8902 N   0  0  0  0  0  0  0  0  0  0  0  0
   -4.7407    5.1615  -18.4170 C   0  0  0  0  0  0  0  0  0  0  0  0
   -3.8576    5.0079  -17.6711 O   0  0  0  0  0  0  0  0  0  0  0  0
   -6.1227    4.7936  -18.0418 C   0  0  0  0  0  0  0  0  0  0  0  0
   -6.9283    4.2031  -19.0173 C   0  0  0  0  0  0  0  0  0  0  0  0
   -8.2578    3.9713  -18.8015 C   0  0  0  0  0  0  0  0  0  0  0  0
   -8.8054    4.2342  -17.5599 C   0  0  0  0  0  0  0  0  0  0  0  0
  -10.6540    4.0346  -17.5995 Br  0  0  0  0  0  0  0  0  0  0  0  0
   -8.0052    4.7008  -16.4864 C   0  0  0  0  0  0  0  0  0  0  0  0
   -8.2030    5.0334  -15.1130 C   0  0  0  0  0  0  0  0  0  0  0  0
   -7.0100    5.5053  -14.6052 C   0  0  0  0  0  0  0  0  0  0  0  0
   -6.0807    5.4621  -15.6121 N   0  0  0  0  0  0  0  0  0  0  0  0
   -6.6606    4.9879  -16.7657 C   0  0  0  0  0  0  0  0  0  0  0  0
   -1.2429    8.3129  -21.4612 C   0  0  0  0  0  0  0  0  0  0  0  0
   -0.2776    8.7783  -22.3577 C   0  0  0  0  0  0  0  0  0  0  0  0
    0.9638    9.0700  -21.8468 O   0  0  0  0  0  0  0  0  0  0  0  0
    1.8574    7.9854  -22.0992 C   0  0  0  0  0  0  0  0  0  0  0  0
  1  2  1  0
  2  3  1  0
  3  4  2  0
  4  5  1  0
  5  6  2  0
  6  7  1  0
  7  8  1  0
  8  9  1  1
  8 10  1  0
 10 11  1  0
  8 12  1  0
 12 13  1  0
 13 14  2  0
 13 15  1  0
 15 16  2  0
 16 17  1  0
 17 18  2  0
 18 19  1  0
 18 20  1  0
 20 21  1  0
 21 22  2  0
 22 23  1  0
 23 24  1  0
  6 25  1  0
 25 26  2  0
 26 27  1  0
 27 28  1  0
 26  3  1  0
 24 15  1  0
 24 20  2  0
M  END
>  <energy_score>  (1773) 
-12.818108

>  <alias>  (1773) 
None

>  <HIPPO Pose ID>  (1773) 
72450

>  <smiles>  (1773) 
COc1ccc(C[C@](C)(CO)NC(=O)c2ccc(Br)c3cc[nH]c23)cc1OC

>  <inchikey>  (1773) 
AOTDAKJAXOGFHB-OAQYLSRUSA-N

>  <distance_score>  (1773) 
1.169019

>  <ref_mols>  (1773) 
Z0827a,Z0101a

>  <ref_pdb>  (1773) 
Z0101a

>  <HIPPO Compound ID>  (1773) 
145827

>  <name>  (1773) 
P72450

>  <inspiration_score>  (1773) 
None

$$$$
P72453
     RDKit          3D

 28 30  0  0  0  0  0  0  0  0999 V2000
    0.6330    9.5506  -24.6292 C   0  0  0  0  0  0  0  0  0  0  0  0
   -0.6847    9.1029  -24.9098 O   0  0  0  0  0  0  0  0  0  0  0  0
   -1.4325    8.6327  -23.8588 C   0  0  0  0  0  0  0  0  0  0  0  0
   -0.9546    8.4778  -22.5535 C   0  0  0  0  0  0  0  0  0  0  0  0
   -1.7876    7.9818  -21.5461 C   0  0  0  0  0  0  0  0  0  0  0  0
   -3.1133    7.6375  -21.8239 C   0  0  0  0  0  0  0  0  0  0  0  0
   -4.0190    7.1013  -20.7352 C   0  0  0  0  0  0  0  0  0  0  0  0
   -4.0453    5.5524  -20.5252 C   0  0  2  0  0  0  0  0  0  0  0  0
   -2.7009    5.0573  -19.9703 C   0  0  0  0  0  0  0  0  0  0  0  0
   -4.3328    4.8110  -21.8556 C   0  0  0  0  0  0  0  0  0  0  0  0
   -5.4840    5.3057  -22.5258 O   0  0  0  0  0  0  0  0  0  0  0  0
   -5.0724    5.2229  -19.5014 N   0  0  0  0  0  0  0  0  0  0  0  0
   -5.4794    5.9691  -18.2139 C   0  0  0  0  0  0  0  0  0  0  0  0
   -5.1272    6.9992  -17.7934 O   0  0  0  0  0  0  0  0  0  0  0  0
   -6.4630    5.2245  -17.3758 C   0  0  0  0  0  0  0  0  0  0  0  0
   -6.3388    5.3110  -15.9802 C   0  0  0  0  0  0  0  0  0  0  0  0
   -7.3505    4.8581  -15.1471 C   0  0  0  0  0  0  0  0  0  0  0  0
   -7.2606    5.0817  -13.8295 F   0  0  0  0  0  0  0  0  0  0  0  0
   -8.5083    4.2816  -15.6499 C   0  0  0  0  0  0  0  0  0  0  0  0
   -8.6707    4.1928  -17.0397 C   0  0  0  0  0  0  0  0  0  0  0  0
   -9.7760    3.8429  -17.8617 C   0  0  0  0  0  0  0  0  0  0  0  0
   -9.3970    4.0560  -19.1571 C   0  0  0  0  0  0  0  0  0  0  0  0
   -8.1102    4.5075  -19.1528 N   0  0  0  0  0  0  0  0  0  0  0  0
   -7.6390    4.6434  -17.8755 C   0  0  0  0  0  0  0  0  0  0  0  0
   -3.5943    7.8062  -23.1311 C   0  0  0  0  0  0  0  0  0  0  0  0
   -2.7623    8.2788  -24.1529 C   0  0  0  0  0  0  0  0  0  0  0  0
   -3.1707    8.4496  -25.4536 O   0  0  0  0  0  0  0  0  0  0  0  0
   -4.3467    7.7556  -25.8526 C   0  0  0  0  0  0  0  0  0  0  0  0
  1  2  1  0
  2  3  1  0
  3  4  2  0
  4  5  1  0
  5  6  2  0
  6  7  1  0
  7  8  1  0
  8  9  1  1
  8 10  1  0
 10 11  1  0
  8 12  1  0
 12 13  1  0
 13 14  2  0
 13 15  1  0
 15 16  2  0
 16 17  1  0
 17 18  1  0
 17 19  2  0
 19 20  1  0
 20 21  1  0
 21 22  2  0
 22 23  1  0
 23 24  1  0
  6 25  1  0
 25 26  2  0
 26 27  1  0
 27 28  1  0
 26  3  1  0
 24 15  1  0
 24 20  2  0
M  END
>  <energy_score>  (1774) 
-10.030504

>  <alias>  (1774) 
None

>  <HIPPO Pose ID>  (1774) 
72453

>  <smiles>  (1774) 
COc1ccc(C[C@](C)(CO)NC(=O)c2cc(F)cc3cc[nH]c23)cc1OC

>  <inchikey>  (1774) 
NEGLHLWLBLEBBM-OAQYLSRUSA-N

>  <distance_score>  (1774) 
0.682046

>  <ref_mols>  (1774) 
Z0101a,Z0827a

>  <ref_pdb>  (1774) 
Z0101a

>  <HIPPO Compound ID>  (1774) 
145828

>  <name>  (1774) 
P72453

>  <inspiration_score>  (1774) 
None

$$$$
P72454
     RDKit          3D

 28 30  0  0  0  0  0  0  0  0999 V2000
    0.8062    9.7681  -24.2599 C   0  0  0  0  0  0  0  0  0  0  0  0
   -0.5214    9.3999  -24.6038 O   0  0  0  0  0  0  0  0  0  0  0  0
   -1.3139    8.8815  -23.6096 C   0  0  0  0  0  0  0  0  0  0  0  0
   -0.9017    8.6891  -22.2871 C   0  0  0  0  0  0  0  0  0  0  0  0
   -1.7777    8.1483  -21.3413 C   0  0  0  0  0  0  0  0  0  0  0  0
   -3.0815    7.7952  -21.6992 C   0  0  0  0  0  0  0  0  0  0  0  0
   -4.0308    7.2065  -20.6802 C   0  0  0  0  0  0  0  0  0  0  0  0
   -4.0601    5.6574  -20.5440 C   0  0  2  0  0  0  0  0  0  0  0  0
   -2.6965    5.1290  -20.0601 C   0  0  0  0  0  0  0  0  0  0  0  0
   -4.3659    4.9451  -21.8871 C   0  0  0  0  0  0  0  0  0  0  0  0
   -5.4913    5.4894  -22.5626 O   0  0  0  0  0  0  0  0  0  0  0  0
   -5.1075    5.3324  -19.5397 N   0  0  0  0  0  0  0  0  0  0  0  0
   -4.9836    4.7553  -18.1099 C   0  0  0  0  0  0  0  0  0  0  0  0
   -4.0468    4.3734  -17.5268 O   0  0  0  0  0  0  0  0  0  0  0  0
   -6.2787    4.7302  -17.3632 C   0  0  0  0  0  0  0  0  0  0  0  0
   -6.2386    4.9792  -15.9751 C   0  0  0  0  0  0  0  0  0  0  0  0
   -7.3767    4.8915  -15.1707 C   0  0  0  0  0  0  0  0  0  0  0  0
   -7.3157    5.1701  -13.7004 C   0  0  0  0  0  0  0  0  0  0  0  0
   -8.5839    4.4839  -15.7395 C   0  0  0  0  0  0  0  0  0  0  0  0
   -8.6790    4.2736  -17.1235 C   0  0  0  0  0  0  0  0  0  0  0  0
   -9.7763    3.9873  -17.9789 C   0  0  0  0  0  0  0  0  0  0  0  0
   -9.2808    3.9515  -19.2526 C   0  0  0  0  0  0  0  0  0  0  0  0
   -7.9226    4.0823  -19.1868 N   0  0  0  0  0  0  0  0  0  0  0  0
   -7.5290    4.4029  -17.9129 C   0  0  0  0  0  0  0  0  0  0  0  0
   -3.4969    7.9988  -23.0237 C   0  0  0  0  0  0  0  0  0  0  0  0
   -2.6222    8.5218  -23.9836 C   0  0  0  0  0  0  0  0  0  0  0  0
   -2.9644    8.7333  -25.2974 O   0  0  0  0  0  0  0  0  0  0  0  0
   -4.1275    8.0689  -25.7750 C   0  0  0  0  0  0  0  0  0  0  0  0
  1  2  1  0
  2  3  1  0
  3  4  2  0
  4  5  1  0
  5  6  2  0
  6  7  1  0
  7  8  1  0
  8  9  1  1
  8 10  1  0
 10 11  1  0
  8 12  1  0
 12 13  1  0
 13 14  2  0
 13 15  1  0
 15 16  2  0
 16 17  1  0
 17 18  1  0
 17 19  2  0
 19 20  1  0
 20 21  1  0
 21 22  2  0
 22 23  1  0
 23 24  1  0
  6 25  1  0
 25 26  2  0
 26 27  1  0
 27 28  1  0
 26  3  1  0
 24 15  1  0
 24 20  2  0
M  END
>  <energy_score>  (1775) 
-100.401497

>  <alias>  (1775) 
None

>  <HIPPO Pose ID>  (1775) 
72454

>  <smiles>  (1775) 
COc1ccc(C[C@](C)(CO)NC(=O)c2cc(C)cc3cc[nH]c23)cc1OC

>  <inchikey>  (1775) 
JNVQTWJACMBWPL-JOCHJYFZSA-N

>  <distance_score>  (1775) 
0.770323

>  <ref_mols>  (1775) 
Z0827a,Z0101a

>  <ref_pdb>  (1775) 
Z0101a

>  <HIPPO Compound ID>  (1775) 
145829

>  <name>  (1775) 
P72454

>  <inspiration_score>  (1775) 
None

$$$$
P72457
     RDKit          3D

 28 30  0  0  0  0  0  0  0  0999 V2000
    0.7208    9.6680  -24.8445 C   0  0  0  0  0  0  0  0  0  0  0  0
   -0.5974    9.2168  -25.1215 O   0  0  0  0  0  0  0  0  0  0  0  0
   -1.3253    8.7289  -24.0687 C   0  0  0  0  0  0  0  0  0  0  0  0
   -0.8280    8.5046  -22.7829 C   0  0  0  0  0  0  0  0  0  0  0  0
   -1.6619    8.0030  -21.7746 C   0  0  0  0  0  0  0  0  0  0  0  0
   -3.0077    7.7154  -22.0317 C   0  0  0  0  0  0  0  0  0  0  0  0
   -3.9095    7.1716  -20.9468 C   0  0  0  0  0  0  0  0  0  0  0  0
   -3.9242    5.6262  -20.7489 C   0  0  2  0  0  0  0  0  0  0  0  0
   -2.6028    5.1280  -20.1516 C   0  0  0  0  0  0  0  0  0  0  0  0
   -4.1926    4.8762  -22.0756 C   0  0  0  0  0  0  0  0  0  0  0  0
   -5.3957    5.3075  -22.7043 O   0  0  0  0  0  0  0  0  0  0  0  0
   -4.9901    5.2955  -19.7886 N   0  0  0  0  0  0  0  0  0  0  0  0
   -5.3202    5.9023  -18.4117 C   0  0  0  0  0  0  0  0  0  0  0  0
   -4.8481    6.8115  -17.8531 O   0  0  0  0  0  0  0  0  0  0  0  0
   -6.4666    5.2138  -17.7325 C   0  0  0  0  0  0  0  0  0  0  0  0
   -7.5048    4.5531  -18.4109 C   0  0  0  0  0  0  0  0  0  0  0  0
   -8.6007    4.0310  -17.7332 C   0  0  0  0  0  0  0  0  0  0  0  0
   -8.6759    4.1366  -16.3512 C   0  0  0  0  0  0  0  0  0  0  0  0
   -9.7448    3.6346  -15.7372 F   0  0  0  0  0  0  0  0  0  0  0  0
   -7.6731    4.7932  -15.6237 C   0  0  0  0  0  0  0  0  0  0  0  0
   -7.4841    5.1165  -14.2511 C   0  0  0  0  0  0  0  0  0  0  0  0
   -6.3170    5.8397  -14.1494 C   0  0  0  0  0  0  0  0  0  0  0  0
   -5.7762    5.9377  -15.4047 N   0  0  0  0  0  0  0  0  0  0  0  0
   -6.5901    5.3160  -16.3300 C   0  0  0  0  0  0  0  0  0  0  0  0
   -3.5085    7.9472  -23.3178 C   0  0  0  0  0  0  0  0  0  0  0  0
   -2.6694    8.4270  -24.3260 C   0  0  0  0  0  0  0  0  0  0  0  0
   -3.2266    8.6563  -25.5603 O   0  0  0  0  0  0  0  0  0  0  0  0
   -3.0292    7.5169  -26.3972 C   0  0  0  0  0  0  0  0  0  0  0  0
  1  2  1  0
  2  3  1  0
  3  4  2  0
  4  5  1  0
  5  6  2  0
  6  7  1  0
  7  8  1  0
  8  9  1  1
  8 10  1  0
 10 11  1  0
  8 12  1  0
 12 13  1  0
 13 14  2  0
 13 15  1  0
 15 16  2  0
 16 17  1  0
 17 18  2  0
 18 19  1  0
 18 20  1  0
 20 21  1  0
 21 22  2  0
 22 23  1  0
 23 24  1  0
  6 25  1  0
 25 26  2  0
 26 27  1  0
 27 28  1  0
 26  3  1  0
 24 15  1  0
 24 20  2  0
M  END
>  <energy_score>  (1776) 
-21.136531

>  <alias>  (1776) 
None

>  <HIPPO Pose ID>  (1776) 
72457

>  <smiles>  (1776) 
COc1ccc(C[C@](C)(CO)NC(=O)c2ccc(F)c3cc[nH]c23)cc1OC

>  <inchikey>  (1776) 
MKEKPSUUTLSBJM-OAQYLSRUSA-N

>  <distance_score>  (1776) 
0.63937

>  <ref_mols>  (1776) 
Z0827a,Z0101a

>  <ref_pdb>  (1776) 
Z0101a

>  <HIPPO Compound ID>  (1776) 
145830

>  <name>  (1776) 
P72457

>  <inspiration_score>  (1776) 
None

$$$$
P72459
     RDKit          3D

 28 30  0  0  0  0  0  0  0  0999 V2000
    0.3056    9.7313  -25.1442 C   0  0  0  0  0  0  0  0  0  0  0  0
   -0.9927    9.1967  -25.3549 O   0  0  0  0  0  0  0  0  0  0  0  0
   -1.6683    8.7209  -24.2584 C   0  0  0  0  0  0  0  0  0  0  0  0
   -1.1208    8.6175  -22.9751 C   0  0  0  0  0  0  0  0  0  0  0  0
   -1.8806    8.1101  -21.9170 C   0  0  0  0  0  0  0  0  0  0  0  0
   -3.2013    7.7036  -22.1223 C   0  0  0  0  0  0  0  0  0  0  0  0
   -4.0301    7.1512  -20.9827 C   0  0  0  0  0  0  0  0  0  0  0  0
   -3.9730    5.6108  -20.7450 C   0  0  2  0  0  0  0  0  0  0  0  0
   -2.6067    5.1896  -20.1878 C   0  0  0  0  0  0  0  0  0  0  0  0
   -4.2455    4.8184  -22.0431 C   0  0  0  0  0  0  0  0  0  0  0  0
   -5.4708    5.2007  -22.6557 O   0  0  0  0  0  0  0  0  0  0  0  0
   -4.9792    5.2567  -19.7250 N   0  0  0  0  0  0  0  0  0  0  0  0
   -5.3678    5.9659  -18.4152 C   0  0  0  0  0  0  0  0  0  0  0  0
   -4.9027    6.9008  -17.8946 O   0  0  0  0  0  0  0  0  0  0  0  0
   -6.4747    5.2691  -17.6847 C   0  0  0  0  0  0  0  0  0  0  0  0
   -7.5339    4.5938  -18.3049 C   0  0  0  0  0  0  0  0  0  0  0  0
   -8.5860    4.0623  -17.5585 C   0  0  0  0  0  0  0  0  0  0  0  0
   -8.6005    4.1678  -16.1641 C   0  0  0  0  0  0  0  0  0  0  0  0
   -7.5524    4.8379  -15.5069 C   0  0  0  0  0  0  0  0  0  0  0  0
   -7.2472    5.1622  -14.1619 C   0  0  0  0  0  0  0  0  0  0  0  0
   -8.2592    4.6572  -12.6727 Br  0  0  0  0  0  0  0  0  0  0  0  0
   -6.0932    5.9020  -14.1265 C   0  0  0  0  0  0  0  0  0  0  0  0
   -5.6500    6.0070  -15.4161 N   0  0  0  0  0  0  0  0  0  0  0  0
   -6.5216    5.3720  -16.2807 C   0  0  0  0  0  0  0  0  0  0  0  0
   -3.7525    7.8186  -23.4079 C   0  0  0  0  0  0  0  0  0  0  0  0
   -2.9941    8.3034  -24.4796 C   0  0  0  0  0  0  0  0  0  0  0  0
   -3.4691    8.4229  -25.7632 O   0  0  0  0  0  0  0  0  0  0  0  0
   -4.6688    7.7252  -26.0758 C   0  0  0  0  0  0  0  0  0  0  0  0
  1  2  1  0
  2  3  1  0
  3  4  2  0
  4  5  1  0
  5  6  2  0
  6  7  1  0
  7  8  1  0
  8  9  1  1
  8 10  1  0
 10 11  1  0
  8 12  1  0
 12 13  1  0
 13 14  2  0
 13 15  1  0
 15 16  2  0
 16 17  1  0
 17 18  2  0
 18 19  1  0
 19 20  1  0
 20 21  1  0
 20 22  2  0
 22 23  1  0
 23 24  1  0
  6 25  1  0
 25 26  2  0
 26 27  1  0
 27 28  1  0
 26  3  1  0
 24 15  1  0
 24 19  2  0
M  END
>  <energy_score>  (1777) 
-16.416334

>  <alias>  (1777) 
None

>  <HIPPO Pose ID>  (1777) 
72459

>  <smiles>  (1777) 
COc1ccc(C[C@](C)(CO)NC(=O)c2cccc3c(Br)c[nH]c23)cc1OC

>  <inchikey>  (1777) 
KFLXQJXYKDSZKR-OAQYLSRUSA-N

>  <distance_score>  (1777) 
0.668937

>  <ref_mols>  (1777) 
Z0827a,Z0101a

>  <ref_pdb>  (1777) 
Z0101a

>  <HIPPO Compound ID>  (1777) 
145831

>  <name>  (1777) 
P72459

>  <inspiration_score>  (1777) 
None

$$$$
P72461
     RDKit          3D

 28 30  0  0  0  0  0  0  0  0999 V2000
    0.5812    9.4728  -24.7339 C   0  0  0  0  0  0  0  0  0  0  0  0
   -0.7634    9.0867  -24.9765 O   0  0  0  0  0  0  0  0  0  0  0  0
   -1.4913    8.6192  -23.9104 C   0  0  0  0  0  0  0  0  0  0  0  0
   -0.9834    8.4469  -22.6186 C   0  0  0  0  0  0  0  0  0  0  0  0
   -1.7980    7.9552  -21.5942 C   0  0  0  0  0  0  0  0  0  0  0  0
   -3.1349    7.6325  -21.8412 C   0  0  0  0  0  0  0  0  0  0  0  0
   -4.0207    7.0953  -20.7368 C   0  0  0  0  0  0  0  0  0  0  0  0
   -4.0439    5.5459  -20.5299 C   0  0  2  0  0  0  0  0  0  0  0  0
   -2.7005    5.0537  -19.9706 C   0  0  0  0  0  0  0  0  0  0  0  0
   -4.3250    4.8064  -21.8627 C   0  0  0  0  0  0  0  0  0  0  0  0
   -5.4830    5.2914  -22.5289 O   0  0  0  0  0  0  0  0  0  0  0  0
   -5.0748    5.2101  -19.5118 N   0  0  0  0  0  0  0  0  0  0  0  0
   -5.5115    5.9671  -18.2406 C   0  0  0  0  0  0  0  0  0  0  0  0
   -5.1861    7.0109  -17.8327 O   0  0  0  0  0  0  0  0  0  0  0  0
   -6.4909    5.2141  -17.4048 C   0  0  0  0  0  0  0  0  0  0  0  0
   -6.3807    5.3106  -16.0082 C   0  0  0  0  0  0  0  0  0  0  0  0
   -7.4013    4.8577  -15.1796 C   0  0  0  0  0  0  0  0  0  0  0  0
   -7.3304    5.2168  -13.3280 Br  0  0  0  0  0  0  0  0  0  0  0  0
   -8.5491    4.2664  -15.6975 C   0  0  0  0  0  0  0  0  0  0  0  0
   -8.6965    4.1748  -17.0881 C   0  0  0  0  0  0  0  0  0  0  0  0
   -9.7946    3.8226  -17.9187 C   0  0  0  0  0  0  0  0  0  0  0  0
   -9.4038    4.0407  -19.2093 C   0  0  0  0  0  0  0  0  0  0  0  0
   -8.1128    4.4784  -19.1929 N   0  0  0  0  0  0  0  0  0  0  0  0
   -7.6584    4.6261  -17.9124 C   0  0  0  0  0  0  0  0  0  0  0  0
   -3.6464    7.8200  -23.1343 C   0  0  0  0  0  0  0  0  0  0  0  0
   -2.8336    8.2887  -24.1731 C   0  0  0  0  0  0  0  0  0  0  0  0
   -3.2728    8.4756  -25.4616 O   0  0  0  0  0  0  0  0  0  0  0  0
   -4.4626    7.7921  -25.8375 C   0  0  0  0  0  0  0  0  0  0  0  0
  1  2  1  0
  2  3  1  0
  3  4  2  0
  4  5  1  0
  5  6  2  0
  6  7  1  0
  7  8  1  0
  8  9  1  1
  8 10  1  0
 10 11  1  0
  8 12  1  0
 12 13  1  0
 13 14  2  0
 13 15  1  0
 15 16  2  0
 16 17  1  0
 17 18  1  0
 17 19  2  0
 19 20  1  0
 20 21  1  0
 21 22  2  0
 22 23  1  0
 23 24  1  0
  6 25  1  0
 25 26  2  0
 26 27  1  0
 27 28  1  0
 26  3  1  0
 24 15  1  0
 24 20  2  0
M  END
>  <energy_score>  (1778) 
-10.077055

>  <alias>  (1778) 
None

>  <HIPPO Pose ID>  (1778) 
72461

>  <smiles>  (1778) 
COc1ccc(C[C@](C)(CO)NC(=O)c2cc(Br)cc3cc[nH]c23)cc1OC

>  <inchikey>  (1778) 
HYCNNPKMAVVGTJ-OAQYLSRUSA-N

>  <distance_score>  (1778) 
0.672651

>  <ref_mols>  (1778) 
Z0827a,Z0101a

>  <ref_pdb>  (1778) 
Z0101a

>  <HIPPO Compound ID>  (1778) 
145832

>  <name>  (1778) 
P72461

>  <inspiration_score>  (1778) 
None

$$$$
P72463
     RDKit          3D

 28 30  0  0  0  0  0  0  0  0999 V2000
   -2.4931   10.3138  -15.5547 C   0  0  0  0  0  0  0  0  0  0  0  0
   -3.6362   10.3537  -16.3995 O   0  0  0  0  0  0  0  0  0  0  0  0
   -3.5822    9.6624  -17.5802 C   0  0  0  0  0  0  0  0  0  0  0  0
   -2.4046    9.0878  -18.0837 C   0  0  0  0  0  0  0  0  0  0  0  0
   -2.4085    8.3417  -19.2689 C   0  0  0  0  0  0  0  0  0  0  0  0
   -3.5950    8.1394  -19.9685 C   0  0  0  0  0  0  0  0  0  0  0  0
   -3.6649    7.2754  -21.2114 C   0  0  0  0  0  0  0  0  0  0  0  0
   -3.7891    5.7403  -20.9821 C   0  0  2  0  0  0  0  0  0  0  0  0
   -2.4229    5.1410  -20.6222 C   0  0  0  0  0  0  0  0  0  0  0  0
   -4.2453    5.0344  -22.2829 C   0  0  0  0  0  0  0  0  0  0  0  0
   -5.4459    5.5805  -22.8126 O   0  0  0  0  0  0  0  0  0  0  0  0
   -4.7371    5.4557  -19.9084 N   0  0  0  0  0  0  0  0  0  0  0  0
   -4.5137    5.2912  -18.3958 C   0  0  0  0  0  0  0  0  0  0  0  0
   -3.5269    5.2801  -17.7741 O   0  0  0  0  0  0  0  0  0  0  0  0
   -5.7863    5.1334  -17.6484 C   0  0  0  0  0  0  0  0  0  0  0  0
   -6.9241    4.5010  -18.1662 C   0  0  0  0  0  0  0  0  0  0  0  0
   -8.0183    4.2418  -17.3494 C   0  0  0  0  0  0  0  0  0  0  0  0
   -7.9968    4.5951  -15.9913 C   0  0  0  0  0  0  0  0  0  0  0  0
   -9.0692    4.1534  -15.0743 C   0  0  0  0  0  0  0  0  0  0  0  0
   -6.9053    5.3118  -15.4777 C   0  0  0  0  0  0  0  0  0  0  0  0
   -6.6023    5.8670  -14.2013 C   0  0  0  0  0  0  0  0  0  0  0  0
   -5.3642    6.4561  -14.2909 C   0  0  0  0  0  0  0  0  0  0  0  0
   -4.8953    6.2427  -15.5612 N   0  0  0  0  0  0  0  0  0  0  0  0
   -5.8289    5.5615  -16.3114 C   0  0  0  0  0  0  0  0  0  0  0  0
   -4.7609    8.7384  -19.4789 C   0  0  0  0  0  0  0  0  0  0  0  0
   -4.7700    9.5128  -18.3132 C   0  0  0  0  0  0  0  0  0  0  0  0
   -6.0178   10.0088  -18.0219 O   0  0  0  0  0  0  0  0  0  0  0  0
   -6.0642   11.1925  -17.2329 C   0  0  0  0  0  0  0  0  0  0  0  0
  1  2  1  0
  2  3  1  0
  3  4  2  0
  4  5  1  0
  5  6  2  0
  6  7  1  0
  7  8  1  0
  8  9  1  1
  8 10  1  0
 10 11  1  0
  8 12  1  0
 12 13  1  0
 13 14  2  0
 13 15  1  0
 15 16  2  0
 16 17  1  0
 17 18  2  0
 18 19  1  0
 18 20  1  0
 20 21  1  0
 21 22  2  0
 22 23  1  0
 23 24  1  0
  6 25  1  0
 25 26  2  0
 26 27  1  0
 27 28  1  0
 26  3  1  0
 24 15  1  0
 24 20  2  0
M  END
>  <energy_score>  (1779) 
-25.104004

>  <alias>  (1779) 
None

>  <HIPPO Pose ID>  (1779) 
72463

>  <smiles>  (1779) 
COc1ccc(C[C@](C)(CO)NC(=O)c2ccc(C)c3cc[nH]c23)cc1OC

>  <inchikey>  (1779) 
RVZLKGZZOKZHCY-JOCHJYFZSA-N

>  <distance_score>  (1779) 
1.142747

>  <ref_mols>  (1779) 
Z0827a,Z0101a

>  <ref_pdb>  (1779) 
Z0101a

>  <HIPPO Compound ID>  (1779) 
145833

>  <name>  (1779) 
P72463

>  <inspiration_score>  (1779) 
None

$$$$
P72465
     RDKit          3D

 29 31  0  0  0  0  0  0  0  0999 V2000
   -1.3161   10.9579  -16.2369 C   0  0  0  0  0  0  0  0  0  0  0  0
   -2.6296   10.4318  -16.3694 O   0  0  0  0  0  0  0  0  0  0  0  0
   -2.8808    9.6113  -17.4371 C   0  0  0  0  0  0  0  0  0  0  0  0
   -1.9351    9.2749  -18.4110 C   0  0  0  0  0  0  0  0  0  0  0  0
   -2.2865    8.4713  -19.5016 C   0  0  0  0  0  0  0  0  0  0  0  0
   -3.5922    7.9911  -19.6459 C   0  0  0  0  0  0  0  0  0  0  0  0
   -3.9720    7.1466  -20.8424 C   0  0  0  0  0  0  0  0  0  0  0  0
   -4.0104    5.6050  -20.6360 C   0  0  2  0  0  0  0  0  0  0  0  0
   -2.6569    5.0748  -20.1335 C   0  0  0  0  0  0  0  0  0  0  0  0
   -4.2734    4.9255  -22.0097 C   0  0  0  0  0  0  0  0  0  0  0  0
   -5.3996    5.4701  -22.6887 O   0  0  0  0  0  0  0  0  0  0  0  0
   -5.0898    5.2464  -19.7019 N   0  0  0  0  0  0  0  0  0  0  0  0
   -5.0385    4.8831  -18.1995 C   0  0  0  0  0  0  0  0  0  0  0  0
   -4.1244    4.7365  -17.4868 O   0  0  0  0  0  0  0  0  0  0  0  0
   -6.4041    4.7358  -17.6045 C   0  0  0  0  0  0  0  0  0  0  0  0
   -7.5259    4.2975  -18.3303 C   0  0  0  0  0  0  0  0  0  0  0  0
   -8.7570    4.1024  -17.7114 C   0  0  0  0  0  0  0  0  0  0  0  0
   -8.9045    4.3623  -16.3496 C   0  0  0  0  0  0  0  0  0  0  0  0
   -7.8208    4.8511  -15.5994 C   0  0  0  0  0  0  0  0  0  0  0  0
   -7.6586    5.2765  -14.2501 C   0  0  0  0  0  0  0  0  0  0  0  0
   -8.7018    5.4310  -13.2280 C   0  0  0  0  0  0  0  0  0  0  0  0
   -6.3150    5.4737  -14.0347 C   0  0  0  0  0  0  0  0  0  0  0  0
   -5.6251    5.7603  -12.7529 C   0  0  0  0  0  0  0  0  0  0  0  0
   -5.6824    5.3505  -15.2495 N   0  0  0  0  0  0  0  0  0  0  0  0
   -6.5878    4.9881  -16.2293 C   0  0  0  0  0  0  0  0  0  0  0  0
   -4.5372    8.3198  -18.6684 C   0  0  0  0  0  0  0  0  0  0  0  0
   -4.1841    9.1024  -17.5632 C   0  0  0  0  0  0  0  0  0  0  0  0
   -5.2122    9.3637  -16.6902 O   0  0  0  0  0  0  0  0  0  0  0  0
   -4.8796    9.0808  -15.3307 C   0  0  0  0  0  0  0  0  0  0  0  0
  1  2  1  0
  2  3  1  0
  3  4  2  0
  4  5  1  0
  5  6  2  0
  6  7  1  0
  7  8  1  0
  8  9  1  1
  8 10  1  0
 10 11  1  0
  8 12  1  0
 12 13  1  0
 13 14  2  0
 13 15  1  0
 15 16  2  0
 16 17  1  0
 17 18  2  0
 18 19  1  0
 19 20  1  0
 20 21  1  0
 20 22  2  0
 22 23  1  0
 22 24  1  0
 24 25  1  0
  6 26  1  0
 26 27  2  0
 27 28  1  0
 28 29  1  0
 27  3  1  0
 25 15  1  0
 25 19  2  0
M  END
>  <energy_score>  (1780) 
-33.21766

>  <alias>  (1780) 
None

>  <HIPPO Pose ID>  (1780) 
72465

>  <smiles>  (1780) 
COc1ccc(C[C@](C)(CO)NC(=O)c2cccc3c(C)c(C)[nH]c23)cc1OC

>  <inchikey>  (1780) 
HEYBMOYNEZPDLF-HSZRJFAPSA-N

>  <distance_score>  (1780) 
1.390005

>  <ref_mols>  (1780) 
Z0827a,Z0101a

>  <ref_pdb>  (1780) 
Z0101a

>  <HIPPO Compound ID>  (1780) 
145834

>  <name>  (1780) 
P72465

>  <inspiration_score>  (1780) 
None

$$$$
P72469
     RDKit          3D

 29 31  0  0  0  0  0  0  0  0999 V2000
   -1.4365   11.2341  -16.6529 C   0  0  0  0  0  0  0  0  0  0  0  0
   -2.7402   10.6774  -16.7578 O   0  0  0  0  0  0  0  0  0  0  0  0
   -2.9823    9.8015  -17.7825 C   0  0  0  0  0  0  0  0  0  0  0  0
   -2.0299    9.4470  -18.7453 C   0  0  0  0  0  0  0  0  0  0  0  0
   -2.3609    8.5919  -19.8020 C   0  0  0  0  0  0  0  0  0  0  0  0
   -3.6539    8.0769  -19.9241 C   0  0  0  0  0  0  0  0  0  0  0  0
   -4.0195    7.1824  -21.0880 C   0  0  0  0  0  0  0  0  0  0  0  0
   -4.0263    5.6487  -20.8339 C   0  0  2  0  0  0  0  0  0  0  0  0
   -2.6547    5.1598  -20.3349 C   0  0  0  0  0  0  0  0  0  0  0  0
   -4.2953    4.9136  -22.1719 C   0  0  0  0  0  0  0  0  0  0  0  0
   -5.4362    5.4240  -22.8491 O   0  0  0  0  0  0  0  0  0  0  0  0
   -5.0745    5.2987  -19.8646 N   0  0  0  0  0  0  0  0  0  0  0  0
   -4.9909    5.0488  -18.3475 C   0  0  0  0  0  0  0  0  0  0  0  0
   -4.0655    5.0051  -17.6380 O   0  0  0  0  0  0  0  0  0  0  0  0
   -6.3313    4.8489  -17.7058 C   0  0  0  0  0  0  0  0  0  0  0  0
   -7.4719    4.3518  -18.3503 C   0  0  0  0  0  0  0  0  0  0  0  0
   -8.6406    4.0776  -17.6366 C   0  0  0  0  0  0  0  0  0  0  0  0
   -8.6927    4.2554  -16.2494 C   0  0  0  0  0  0  0  0  0  0  0  0
   -7.5757    4.7820  -15.5746 C   0  0  0  0  0  0  0  0  0  0  0  0
   -7.2567    5.0604  -14.2156 C   0  0  0  0  0  0  0  0  0  0  0  0
   -8.0369    4.7834  -13.0561 C   0  0  0  0  0  0  0  0  0  0  0  0
   -8.6216    4.5936  -12.0740 N   0  0  0  0  0  0  0  0  0  0  0  0
   -5.9969    5.6198  -14.1754 C   0  0  0  0  0  0  0  0  0  0  0  0
   -5.5009    5.5984  -15.4483 N   0  0  0  0  0  0  0  0  0  0  0  0
   -6.4402    5.0889  -16.3221 C   0  0  0  0  0  0  0  0  0  0  0  0
   -4.6039    8.4220  -18.9569 C   0  0  0  0  0  0  0  0  0  0  0  0
   -4.2743    9.2568  -17.8814 C   0  0  0  0  0  0  0  0  0  0  0  0
   -5.3233    9.5037  -17.0288 O   0  0  0  0  0  0  0  0  0  0  0  0
   -4.9758    9.5349  -15.6457 C   0  0  0  0  0  0  0  0  0  0  0  0
  1  2  1  0
  2  3  1  0
  3  4  2  0
  4  5  1  0
  5  6  2  0
  6  7  1  0
  7  8  1  0
  8  9  1  1
  8 10  1  0
 10 11  1  0
  8 12  1  0
 12 13  1  0
 13 14  2  0
 13 15  1  0
 15 16  2  0
 16 17  1  0
 17 18  2  0
 18 19  1  0
 19 20  1  0
 20 21  1  0
 21 22  3  0
 20 23  2  0
 23 24  1  0
 24 25  1  0
  6 26  1  0
 26 27  2  0
 27 28  1  0
 28 29  1  0
 27  3  1  0
 25 15  1  0
 25 19  2  0
M  END
>  <energy_score>  (1781) 
-22.377154

>  <alias>  (1781) 
None

>  <HIPPO Pose ID>  (1781) 
72469

>  <smiles>  (1781) 
COc1ccc(C[C@](C)(CO)NC(=O)c2cccc3c(C#N)c[nH]c23)cc1OC

>  <inchikey>  (1781) 
AUKZLZXVNWKYEL-JOCHJYFZSA-N

>  <distance_score>  (1781) 
0.678185

>  <ref_mols>  (1781) 
Z0101a,Z0827a

>  <ref_pdb>  (1781) 
Z0101a

>  <HIPPO Compound ID>  (1781) 
145836

>  <name>  (1781) 
P72469

>  <inspiration_score>  (1781) 
None

$$$$
P72473
     RDKit          3D

 29 31  0  0  0  0  0  0  0  0999 V2000
    0.2007   10.3042  -25.3690 C   0  0  0  0  0  0  0  0  0  0  0  0
   -1.0640    9.6759  -25.5164 O   0  0  0  0  0  0  0  0  0  0  0  0
   -1.6394    9.1338  -24.3940 C   0  0  0  0  0  0  0  0  0  0  0  0
   -1.0350    9.0983  -23.1326 C   0  0  0  0  0  0  0  0  0  0  0  0
   -1.6939    8.5179  -22.0449 C   0  0  0  0  0  0  0  0  0  0  0  0
   -2.9697    7.9701  -22.1984 C   0  0  0  0  0  0  0  0  0  0  0  0
   -3.6906    7.3415  -21.0268 C   0  0  0  0  0  0  0  0  0  0  0  0
   -3.4555    5.8220  -20.7973 C   0  0  2  0  0  0  0  0  0  0  0  0
   -2.0542    5.5283  -20.2746 C   0  0  0  0  0  0  0  0  0  0  0  0
   -3.7341    4.9901  -22.0837 C   0  0  0  0  0  0  0  0  0  0  0  0
   -5.0577    5.1881  -22.5989 O   0  0  0  0  0  0  0  0  0  0  0  0
   -4.3999    5.3553  -19.7866 N   0  0  0  0  0  0  0  0  0  0  0  0
   -4.8263    5.9878  -18.4442 C   0  0  0  0  0  0  0  0  0  0  0  0
   -4.4335    6.9414  -17.8993 O   0  0  0  0  0  0  0  0  0  0  0  0
   -5.9891    5.2520  -17.8748 C   0  0  0  0  0  0  0  0  0  0  0  0
   -6.8768    4.6115  -18.7398 C   0  0  0  0  0  0  0  0  0  0  0  0
   -8.0630    4.0816  -18.3058 C   0  0  0  0  0  0  0  0  0  0  0  0
   -8.4428    4.1851  -16.9725 C   0  0  0  0  0  0  0  0  0  0  0  0
   -9.6808    3.7538  -16.5779 O   0  0  0  0  0  0  0  0  0  0  0  0
  -10.6506    3.8958  -17.6200 C   0  0  0  0  0  0  0  0  0  0  0  0
   -7.5614    4.7908  -16.0465 C   0  0  0  0  0  0  0  0  0  0  0  0
   -7.6182    5.0824  -14.6516 C   0  0  0  0  0  0  0  0  0  0  0  0
   -6.4818    5.7869  -14.3193 C   0  0  0  0  0  0  0  0  0  0  0  0
   -5.7271    5.9255  -15.4560 N   0  0  0  0  0  0  0  0  0  0  0  0
   -6.3556    5.3229  -16.5228 C   0  0  0  0  0  0  0  0  0  0  0  0
   -3.5792    8.0149  -23.4621 C   0  0  0  0  0  0  0  0  0  0  0  0
   -2.9198    8.5740  -24.5627 C   0  0  0  0  0  0  0  0  0  0  0  0
   -3.4552    8.6360  -25.8263 O   0  0  0  0  0  0  0  0  0  0  0  0
   -4.5712    7.7963  -26.0968 C   0  0  0  0  0  0  0  0  0  0  0  0
  1  2  1  0
  2  3  1  0
  3  4  2  0
  4  5  1  0
  5  6  2  0
  6  7  1  0
  7  8  1  0
  8  9  1  1
  8 10  1  0
 10 11  1  0
  8 12  1  0
 12 13  1  0
 13 14  2  0
 13 15  1  0
 15 16  2  0
 16 17  1  0
 17 18  2  0
 18 19  1  0
 19 20  1  0
 18 21  1  0
 21 22  1  0
 22 23  2  0
 23 24  1  0
 24 25  1  0
  6 26  1  0
 26 27  2  0
 27 28  1  0
 28 29  1  0
 27  3  1  0
 25 15  1  0
 25 21  2  0
M  END
>  <energy_score>  (1782) 
-7.58991

>  <alias>  (1782) 
None

>  <HIPPO Pose ID>  (1782) 
72473

>  <smiles>  (1782) 
COc1ccc(C[C@](C)(CO)NC(=O)c2ccc(OC)c3cc[nH]c23)cc1OC

>  <inchikey>  (1782) 
OTCNYKTXKOKNDP-JOCHJYFZSA-N

>  <distance_score>  (1782) 
1.036533

>  <ref_mols>  (1782) 
Z0101a,Z0827a

>  <ref_pdb>  (1782) 
Z0101a

>  <HIPPO Compound ID>  (1782) 
145838

>  <name>  (1782) 
P72473

>  <inspiration_score>  (1782) 
None

$$$$
P72474
     RDKit          3D

 30 32  0  0  0  0  0  0  0  0999 V2000
   -6.1471    5.6571  -11.4219 C   0  0  0  0  0  0  0  0  0  0  0  0
   -5.5822    6.1696  -12.7387 C   0  0  0  0  0  0  0  0  0  0  0  0
   -6.3126    5.6633  -13.9364 C   0  0  0  0  0  0  0  0  0  0  0  0
   -7.5128    4.9949  -14.0667 C   0  0  0  0  0  0  0  0  0  0  0  0
   -7.7324    4.7493  -15.4459 C   0  0  0  0  0  0  0  0  0  0  0  0
   -8.7836    4.1702  -16.1651 C   0  0  0  0  0  0  0  0  0  0  0  0
   -8.7217    4.1635  -17.5558 C   0  0  0  0  0  0  0  0  0  0  0  0
  -10.1064    3.6687  -18.4353 Cl  0  0  0  0  0  0  0  0  0  0  0  0
   -7.6136    4.6517  -18.2427 C   0  0  0  0  0  0  0  0  0  0  0  0
   -6.5393    5.2200  -17.5500 C   0  0  0  0  0  0  0  0  0  0  0  0
   -5.3747    5.8842  -18.2162 C   0  0  0  0  0  0  0  0  0  0  0  0
   -4.8473    6.7380  -17.6204 O   0  0  0  0  0  0  0  0  0  0  0  0
   -5.0190    5.2462  -19.5739 N   0  0  0  0  0  0  0  0  0  0  0  0
   -3.9713    5.5954  -20.5518 C   0  0  2  0  0  0  0  0  0  0  0  0
   -3.9467    7.1204  -20.7582 C   0  0  0  0  0  0  0  0  0  0  0  0
   -4.2903    4.9217  -21.9209 C   0  0  0  0  0  0  0  0  0  0  0  0
   -5.4521    5.4460  -22.5472 O   0  0  0  0  0  0  0  0  0  0  0  0
   -2.6117    5.0056  -20.0652 C   0  0  0  0  0  0  0  0  0  0  0  0
   -1.6314    5.9194  -19.3637 C   0  0  0  0  0  0  0  0  0  0  0  0
   -0.6000    6.5292  -20.0875 C   0  0  0  0  0  0  0  0  0  0  0  0
    0.3396    7.3425  -19.4490 C   0  0  0  0  0  0  0  0  0  0  0  0
    0.2633    7.5624  -18.0714 C   0  0  0  0  0  0  0  0  0  0  0  0
    1.1432    8.3383  -17.3579 O   0  0  0  0  0  0  0  0  0  0  0  0
    2.2077    8.9494  -18.0718 C   0  0  0  0  0  0  0  0  0  0  0  0
   -0.7777    6.9659  -17.3347 C   0  0  0  0  0  0  0  0  0  0  0  0
   -0.7810    7.2080  -15.9817 O   0  0  0  0  0  0  0  0  0  0  0  0
   -2.0045    6.9796  -15.2982 C   0  0  0  0  0  0  0  0  0  0  0  0
   -1.7103    6.1459  -17.9848 C   0  0  0  0  0  0  0  0  0  0  0  0
   -6.6450    5.2638  -16.1446 C   0  0  0  0  0  0  0  0  0  0  0  0
   -5.8027    5.8183  -15.2046 N   0  0  0  0  0  0  0  0  0  0  0  0
  1  2  1  0
  2  3  1  0
  3  4  2  0
  4  5  1  0
  5  6  2  0
  6  7  1  0
  7  8  1  0
  7  9  2  0
  9 10  1  0
 10 11  1  0
 11 12  2  0
 11 13  1  0
 14 13  1  0
 14 15  1  6
 14 16  1  0
 16 17  1  0
 14 18  1  0
 18 19  1  0
 19 20  2  0
 20 21  1  0
 21 22  2  0
 22 23  1  0
 23 24  1  0
 22 25  1  0
 25 26  1  0
 26 27  1  0
 25 28  2  0
 10 29  2  0
 29 30  1  0
 30  3  1  0
 29  5  1  0
 28 19  1  0
M  END
>  <energy_score>  (1783) 
-25.881055

>  <alias>  (1783) 
None

>  <HIPPO Pose ID>  (1783) 
72474

>  <smiles>  (1783) 
CCc1cc2cc(Cl)cc(C(=O)N[C@](C)(CO)Cc3ccc(OC)c(OC)c3)c2[nH]1

>  <inchikey>  (1783) 
RVGPGMDWGYYQBT-QHCPKHFHSA-N

>  <distance_score>  (1783) 
0.692655

>  <ref_mols>  (1783) 
Z0827a,Z0101a

>  <ref_pdb>  (1783) 
Z0101a

>  <HIPPO Compound ID>  (1783) 
145839

>  <name>  (1783) 
P72474

>  <inspiration_score>  (1783) 
None

$$$$
P72475
     RDKit          3D

 30 32  0  0  0  0  0  0  0  0999 V2000
   -0.4986   10.4957  -15.7672 C   0  0  0  0  0  0  0  0  0  0  0  0
   -1.7348   10.8719  -16.3691 O   0  0  0  0  0  0  0  0  0  0  0  0
   -2.1145   10.0667  -17.4143 C   0  0  0  0  0  0  0  0  0  0  0  0
   -3.4502    9.6585  -17.3722 C   0  0  0  0  0  0  0  0  0  0  0  0
   -3.9749    8.8484  -18.3772 C   0  0  0  0  0  0  0  0  0  0  0  0
   -3.1717    8.4453  -19.4483 C   0  0  0  0  0  0  0  0  0  0  0  0
   -3.7229    7.5563  -20.5468 C   0  0  0  0  0  0  0  0  0  0  0  0
   -3.8177    6.0414  -20.2162 C   0  0  2  0  0  0  0  0  0  0  0  0
   -2.4573    5.4741  -19.7671 C   0  0  0  0  0  0  0  0  0  0  0  0
   -4.1811    5.2744  -21.5364 C   0  0  0  0  0  0  0  0  0  0  0  0
   -5.2071    5.8938  -22.3125 O   0  0  0  0  0  0  0  0  0  0  0  0
   -4.8243    5.8369  -19.1429 N   0  0  0  0  0  0  0  0  0  0  0  0
   -4.8214    4.8715  -17.9320 C   0  0  0  0  0  0  0  0  0  0  0  0
   -3.9936    4.1425  -17.5472 O   0  0  0  0  0  0  0  0  0  0  0  0
   -6.0948    4.9361  -17.1431 C   0  0  0  0  0  0  0  0  0  0  0  0
   -6.0415    5.2718  -15.7849 C   0  0  0  0  0  0  0  0  0  0  0  0
   -4.8943    5.8369  -15.2921 O   0  0  0  0  0  0  0  0  0  0  0  0
   -4.2188    4.9258  -14.4225 C   0  0  0  0  0  0  0  0  0  0  0  0
   -7.1511    5.1471  -14.9488 C   0  0  0  0  0  0  0  0  0  0  0  0
   -8.3676    4.6867  -15.4513 C   0  0  0  0  0  0  0  0  0  0  0  0
   -8.4858    4.4117  -16.8225 C   0  0  0  0  0  0  0  0  0  0  0  0
   -9.5896    4.0490  -17.6454 C   0  0  0  0  0  0  0  0  0  0  0  0
   -9.1122    3.9241  -18.9225 C   0  0  0  0  0  0  0  0  0  0  0  0
   -7.7599    4.1007  -18.8752 N   0  0  0  0  0  0  0  0  0  0  0  0
   -6.8680    3.8221  -19.9536 C   0  0  0  0  0  0  0  0  0  0  0  0
   -7.3519    4.5292  -17.6394 C   0  0  0  0  0  0  0  0  0  0  0  0
   -1.8349    8.8811  -19.4984 C   0  0  0  0  0  0  0  0  0  0  0  0
   -1.2959    9.6985  -18.4945 C   0  0  0  0  0  0  0  0  0  0  0  0
   -0.0176   10.1911  -18.5092 O   0  0  0  0  0  0  0  0  0  0  0  0
    0.8332    9.7942  -19.5760 C   0  0  0  0  0  0  0  0  0  0  0  0
  1  2  1  0
  2  3  1  0
  3  4  2  0
  4  5  1  0
  5  6  2  0
  6  7  1  0
  7  8  1  0
  8  9  1  1
  8 10  1  0
 10 11  1  0
  8 12  1  0
 12 13  1  0
 13 14  2  0
 13 15  1  0
 15 16  2  0
 16 17  1  0
 17 18  1  0
 16 19  1  0
 19 20  2  0
 20 21  1  0
 21 22  1  0
 22 23  2  0
 23 24  1  0
 24 25  1  0
 24 26  1  0
  6 27  1  0
 27 28  2  0
 28 29  1  0
 29 30  1  0
 28  3  1  0
 26 15  1  0
 26 21  2  0
M  END
>  <energy_score>  (1784) 
-34.20743

>  <alias>  (1784) 
None

>  <HIPPO Pose ID>  (1784) 
72475

>  <smiles>  (1784) 
COc1ccc(C[C@](C)(CO)NC(=O)c2c(OC)ccc3ccn(C)c23)cc1OC

>  <inchikey>  (1784) 
YRTLOHOVOXWCFV-HSZRJFAPSA-N

>  <distance_score>  (1784) 
1.181484

>  <ref_mols>  (1784) 
Z0827a,Z0101a

>  <ref_pdb>  (1784) 
Z0101a

>  <HIPPO Compound ID>  (1784) 
145840

>  <name>  (1784) 
P72475

>  <inspiration_score>  (1784) 
None

$$$$
P72478
     RDKit          3D

 30 32  0  0  0  0  0  0  0  0999 V2000
   -0.4133    9.4390  -25.5128 C   0  0  0  0  0  0  0  0  0  0  0  0
   -0.0354    9.1539  -24.1740 O   0  0  0  0  0  0  0  0  0  0  0  0
   -1.0114    8.6945  -23.3236 C   0  0  0  0  0  0  0  0  0  0  0  0
   -2.3403    8.4675  -23.6942 C   0  0  0  0  0  0  0  0  0  0  0  0
   -3.2651    7.9909  -22.7613 C   0  0  0  0  0  0  0  0  0  0  0  0
   -2.8799    7.7324  -21.4427 C   0  0  0  0  0  0  0  0  0  0  0  0
   -3.8792    7.2036  -20.4340 C   0  0  0  0  0  0  0  0  0  0  0  0
   -3.9617    5.6564  -20.2685 C   0  0  2  0  0  0  0  0  0  0  0  0
   -2.6412    5.0716  -19.7449 C   0  0  0  0  0  0  0  0  0  0  0  0
   -4.2875    4.9704  -21.6300 C   0  0  0  0  0  0  0  0  0  0  0  0
   -5.3994    5.5469  -22.3057 O   0  0  0  0  0  0  0  0  0  0  0  0
   -4.9953    5.3166  -19.2579 N   0  0  0  0  0  0  0  0  0  0  0  0
   -5.3613    6.0108  -17.9158 C   0  0  0  0  0  0  0  0  0  0  0  0
   -4.9572    6.9989  -17.4398 O   0  0  0  0  0  0  0  0  0  0  0  0
   -6.4665    5.2971  -17.1822 C   0  0  0  0  0  0  0  0  0  0  0  0
   -7.5083    4.7143  -17.9392 C   0  0  0  0  0  0  0  0  0  0  0  0
   -8.6111    4.1252  -17.3417 C   0  0  0  0  0  0  0  0  0  0  0  0
   -8.7263    4.1209  -15.9577 C   0  0  0  0  0  0  0  0  0  0  0  0
   -7.7452    4.7236  -15.1457 C   0  0  0  0  0  0  0  0  0  0  0  0
   -7.6467    4.9106  -13.7323 C   0  0  0  0  0  0  0  0  0  0  0  0
   -8.4862    4.4381  -12.6553 C   0  0  0  0  0  0  0  0  0  0  0  0
   -8.3981    4.8676  -11.5077 O   0  0  0  0  0  0  0  0  0  0  0  0
   -6.5289    5.6694  -13.5099 C   0  0  0  0  0  0  0  0  0  0  0  0
   -5.8590    5.7954  -14.6904 N   0  0  0  0  0  0  0  0  0  0  0  0
   -4.5227    6.3206  -14.6793 C   0  0  0  0  0  0  0  0  0  0  0  0
   -6.6129    5.3101  -15.7553 C   0  0  0  0  0  0  0  0  0  0  0  0
   -1.5487    7.9725  -21.0686 C   0  0  0  0  0  0  0  0  0  0  0  0
   -0.6099    8.4391  -21.9981 C   0  0  0  0  0  0  0  0  0  0  0  0
    0.7107    8.6837  -21.7073 O   0  0  0  0  0  0  0  0  0  0  0  0
    1.1858    8.2683  -20.4350 C   0  0  0  0  0  0  0  0  0  0  0  0
  1  2  1  0
  2  3  1  0
  3  4  2  0
  4  5  1  0
  5  6  2  0
  6  7  1  0
  7  8  1  0
  8  9  1  1
  8 10  1  0
 10 11  1  0
  8 12  1  0
 12 13  1  0
 13 14  2  0
 13 15  1  0
 15 16  2  0
 16 17  1  0
 17 18  2  0
 18 19  1  0
 19 20  1  0
 20 21  1  0
 21 22  2  0
 20 23  2  0
 23 24  1  0
 24 25  1  0
 24 26  1  0
  6 27  1  0
 27 28  2  0
 28 29  1  0
 29 30  1  0
 28  3  1  0
 26 15  1  0
 26 19  2  0
M  END
>  <energy_score>  (1785) 
-15.995969

>  <alias>  (1785) 
None

>  <HIPPO Pose ID>  (1785) 
72478

>  <smiles>  (1785) 
COc1ccc(C[C@](C)(CO)NC(=O)c2cccc3c(C=O)cn(C)c23)cc1OC

>  <inchikey>  (1785) 
QKTCHOXTNYWIAD-HSZRJFAPSA-N

>  <distance_score>  (1785) 
1.509025

>  <ref_mols>  (1785) 
Z0101a,Z0827a

>  <ref_pdb>  (1785) 
Z0101a

>  <HIPPO Compound ID>  (1785) 
145841

>  <name>  (1785) 
P72478

>  <inspiration_score>  (1785) 
None

$$$$
P72479
     RDKit          3D

 30 33  0  0  0  0  0  0  0  0999 V2000
   -0.4095    9.7211  -25.6297 C   0  0  0  0  0  0  0  0  0  0  0  0
   -0.0624    9.3307  -24.3087 O   0  0  0  0  0  0  0  0  0  0  0  0
   -1.0561    8.8043  -23.5268 C   0  0  0  0  0  0  0  0  0  0  0  0
   -2.3694    8.5765  -23.9430 C   0  0  0  0  0  0  0  0  0  0  0  0
   -3.3132    8.0408  -23.0572 C   0  0  0  0  0  0  0  0  0  0  0  0
   -2.9670    7.7310  -21.7357 C   0  0  0  0  0  0  0  0  0  0  0  0
   -3.9845    7.1373  -20.7889 C   0  0  0  0  0  0  0  0  0  0  0  0
   -4.0472    5.5852  -20.7164 C   0  0  2  0  0  0  0  0  0  0  0  0
   -2.7186    5.0071  -20.1957 C   0  0  0  0  0  0  0  0  0  0  0  0
   -4.3282    4.9345  -22.0927 C   0  0  0  0  0  0  0  0  0  0  0  0
   -5.4484    5.5100  -22.7534 O   0  0  0  0  0  0  0  0  0  0  0  0
   -5.1269    5.2312  -19.7715 N   0  0  0  0  0  0  0  0  0  0  0  0
   -5.0968    5.0419  -18.2406 C   0  0  0  0  0  0  0  0  0  0  0  0
   -4.1996    5.0598  -17.4934 O   0  0  0  0  0  0  0  0  0  0  0  0
   -6.4609    4.8101  -17.6466 C   0  0  0  0  0  0  0  0  0  0  0  0
   -7.5787    4.3249  -18.3477 C   0  0  0  0  0  0  0  0  0  0  0  0
   -8.7898    4.0667  -17.7028 C   0  0  0  0  0  0  0  0  0  0  0  0
   -8.9252    4.2826  -16.3307 C   0  0  0  0  0  0  0  0  0  0  0  0
   -7.8488    4.8018  -15.5985 C   0  0  0  0  0  0  0  0  0  0  0  0
   -7.6380    5.1640  -14.2594 C   0  0  0  0  0  0  0  0  0  0  0  0
   -6.3297    5.5064  -14.1117 C   0  0  0  0  0  0  0  0  0  0  0  0
   -5.7100    5.4572  -15.3114 N   0  0  0  0  0  0  0  0  0  0  0  0
   -6.6347    5.0344  -16.2636 C   0  0  0  0  0  0  0  0  0  0  0  0
   -5.9111    5.8188  -12.7369 C   0  0  0  0  0  0  0  0  0  0  0  0
   -7.2963    5.9397  -12.0443 C   0  0  0  0  0  0  0  0  0  0  0  0
   -8.3457    5.2390  -12.9734 C   0  0  0  0  0  0  0  0  0  0  0  0
   -1.6552    7.9714  -21.3143 C   0  0  0  0  0  0  0  0  0  0  0  0
   -0.7072    8.4733  -22.2098 C   0  0  0  0  0  0  0  0  0  0  0  0
    0.5629    8.6760  -21.7267 O   0  0  0  0  0  0  0  0  0  0  0  0
    1.4097    7.5959  -22.1239 C   0  0  0  0  0  0  0  0  0  0  0  0
  1  2  1  0
  2  3  1  0
  3  4  2  0
  4  5  1  0
  5  6  2  0
  6  7  1  0
  7  8  1  0
  8  9  1  1
  8 10  1  0
 10 11  1  0
  8 12  1  0
 12 13  1  0
 13 14  2  0
 13 15  1  0
 15 16  2  0
 16 17  1  0
 17 18  2  0
 18 19  1  0
 19 20  1  0
 20 21  2  0
 21 22  1  0
 22 23  1  0
 21 24  1  0
 24 25  1  0
 25 26  1  0
  6 27  1  0
 27 28  2  0
 28 29  1  0
 29 30  1  0
 28  3  1  0
 23 15  1  0
 23 19  2  0
 26 20  1  0
M  END
>  <energy_score>  (1786) 
-31.501496

>  <alias>  (1786) 
None

>  <HIPPO Pose ID>  (1786) 
72479

>  <smiles>  (1786) 
COc1ccc(C[C@](C)(CO)NC(=O)c2cccc3c4c([nH]c23)CCC4)cc1OC

>  <inchikey>  (1786) 
DVYAPWDQSGBZIJ-XMMPIXPASA-N

>  <distance_score>  (1786) 
1.063467

>  <ref_mols>  (1786) 
Z0827a,Z0101a

>  <ref_pdb>  (1786) 
Z0101a

>  <HIPPO Compound ID>  (1786) 
145842

>  <name>  (1786) 
P72479

>  <inspiration_score>  (1786) 
None

$$$$
P72481
     RDKit          3D

 30 32  0  0  0  0  0  0  0  0999 V2000
   -0.8646    9.0700  -26.9033 C   0  0  0  0  0  0  0  0  0  0  0  0
   -0.3211    8.8271  -25.6134 O   0  0  0  0  0  0  0  0  0  0  0  0
   -1.1923    8.4521  -24.6253 C   0  0  0  0  0  0  0  0  0  0  0  0
   -2.5531    8.1980  -24.8102 C   0  0  0  0  0  0  0  0  0  0  0  0
   -3.3607    7.8270  -23.7274 C   0  0  0  0  0  0  0  0  0  0  0  0
   -2.8270    7.7101  -22.4373 C   0  0  0  0  0  0  0  0  0  0  0  0
   -3.6999    7.2866  -21.2761 C   0  0  0  0  0  0  0  0  0  0  0  0
   -3.7198    5.7656  -20.9520 C   0  0  2  0  0  0  0  0  0  0  0  0
   -2.3767    5.2855  -20.3980 C   0  0  0  0  0  0  0  0  0  0  0  0
   -4.0989    4.9148  -22.1874 C   0  0  0  0  0  0  0  0  0  0  0  0
   -5.3519    5.3079  -22.7422 O   0  0  0  0  0  0  0  0  0  0  0  0
   -4.7147    5.5223  -19.9047 N   0  0  0  0  0  0  0  0  0  0  0  0
   -4.9665    6.2550  -18.5762 C   0  0  0  0  0  0  0  0  0  0  0  0
   -4.4736    7.2160  -18.1381 O   0  0  0  0  0  0  0  0  0  0  0  0
   -6.0211    5.5815  -17.7732 C   0  0  0  0  0  0  0  0  0  0  0  0
   -7.0778    4.8727  -18.3598 C   0  0  0  0  0  0  0  0  0  0  0  0
   -8.0776    4.3099  -17.5914 C   0  0  0  0  0  0  0  0  0  0  0  0
   -8.0510    4.4435  -16.2015 C   0  0  0  0  0  0  0  0  0  0  0  0
   -9.1058    3.8007  -15.3964 C   0  0  0  0  0  0  0  0  0  0  0  0
   -7.0069    5.1470  -15.5723 C   0  0  0  0  0  0  0  0  0  0  0  0
   -6.6951    5.4604  -14.2146 C   0  0  0  0  0  0  0  0  0  0  0  0
   -7.4142    5.0451  -13.0455 C   0  0  0  0  0  0  0  0  0  0  0  0
   -8.0103    4.6932  -12.1141 N   0  0  0  0  0  0  0  0  0  0  0  0
   -5.5625    6.2447  -14.2258 C   0  0  0  0  0  0  0  0  0  0  0  0
   -5.1571    6.3771  -15.5313 N   0  0  0  0  0  0  0  0  0  0  0  0
   -6.0191    5.7068  -16.3731 C   0  0  0  0  0  0  0  0  0  0  0  0
   -1.4675    7.9789  -22.2489 C   0  0  0  0  0  0  0  0  0  0  0  0
   -0.6569    8.3144  -23.3367 C   0  0  0  0  0  0  0  0  0  0  0  0
    0.6696    8.5571  -23.0741 O   0  0  0  0  0  0  0  0  0  0  0  0
    1.4538    7.4178  -23.4324 C   0  0  0  0  0  0  0  0  0  0  0  0
  1  2  1  0
  2  3  1  0
  3  4  2  0
  4  5  1  0
  5  6  2  0
  6  7  1  0
  7  8  1  0
  8  9  1  1
  8 10  1  0
 10 11  1  0
  8 12  1  0
 12 13  1  0
 13 14  2  0
 13 15  1  0
 15 16  2  0
 16 17  1  0
 17 18  2  0
 18 19  1  0
 18 20  1  0
 20 21  1  0
 21 22  1  0
 22 23  3  0
 21 24  2  0
 24 25  1  0
 25 26  1  0
  6 27  1  0
 27 28  2  0
 28 29  1  0
 29 30  1  0
 28  3  1  0
 26 15  1  0
 26 20  2  0
M  END
>  <energy_score>  (1787) 
-14.537467

>  <alias>  (1787) 
None

>  <HIPPO Pose ID>  (1787) 
72481

>  <smiles>  (1787) 
COc1ccc(C[C@](C)(CO)NC(=O)c2ccc(C)c3c(C#N)c[nH]c23)cc1OC

>  <inchikey>  (1787) 
BCASLVJRBZBEEO-HSZRJFAPSA-N

>  <distance_score>  (1787) 
1.042593

>  <ref_mols>  (1787) 
Z0827a,Z0101a

>  <ref_pdb>  (1787) 
Z0101a

>  <HIPPO Compound ID>  (1787) 
145843

>  <name>  (1787) 
P72481

>  <inspiration_score>  (1787) 
None

$$$$
P72483
     RDKit          3D

 30 32  0  0  0  0  0  0  0  0999 V2000
    1.1143   10.1117  -24.8559 C   0  0  0  0  0  0  0  0  0  0  0  0
   -0.1298    9.5120  -25.1849 O   0  0  0  0  0  0  0  0  0  0  0  0
   -0.9054    9.0489  -24.1508 C   0  0  0  0  0  0  0  0  0  0  0  0
   -0.5117    9.0420  -22.8086 C   0  0  0  0  0  0  0  0  0  0  0  0
   -1.3659    8.5437  -21.8210 C   0  0  0  0  0  0  0  0  0  0  0  0
   -2.6287    8.0483  -22.1572 C   0  0  0  0  0  0  0  0  0  0  0  0
   -3.5566    7.5108  -21.0916 C   0  0  0  0  0  0  0  0  0  0  0  0
   -3.4946    5.9894  -20.8103 C   0  0  2  0  0  0  0  0  0  0  0  0
   -2.1278    5.5539  -20.2812 C   0  0  0  0  0  0  0  0  0  0  0  0
   -3.8299    5.1339  -22.0719 C   0  0  0  0  0  0  0  0  0  0  0  0
   -5.0696    5.5037  -22.6892 O   0  0  0  0  0  0  0  0  0  0  0  0
   -4.5408    5.7081  -19.8265 N   0  0  0  0  0  0  0  0  0  0  0  0
   -4.4541    5.0543  -18.4243 C   0  0  0  0  0  0  0  0  0  0  0  0
   -3.5263    4.7103  -17.8068 O   0  0  0  0  0  0  0  0  0  0  0  0
   -5.8248    4.7970  -17.9444 C   0  0  0  0  0  0  0  0  0  0  0  0
   -6.7207    4.2948  -18.8922 C   0  0  0  0  0  0  0  0  0  0  0  0
   -8.0350    4.1075  -18.5932 C   0  0  0  0  0  0  0  0  0  0  0  0
   -8.4825    4.3534  -17.3059 C   0  0  0  0  0  0  0  0  0  0  0  0
  -10.3101    4.0487  -17.2331 Br  0  0  0  0  0  0  0  0  0  0  0  0
   -7.6068    4.7871  -16.2706 C   0  0  0  0  0  0  0  0  0  0  0  0
   -7.6949    5.1541  -14.8830 C   0  0  0  0  0  0  0  0  0  0  0  0
   -8.8883    5.2744  -14.0362 C   0  0  0  0  0  0  0  0  0  0  0  0
   -6.4157    5.3568  -14.4048 C   0  0  0  0  0  0  0  0  0  0  0  0
   -5.9737    5.5987  -13.0001 C   0  0  0  0  0  0  0  0  0  0  0  0
   -5.5644    5.3060  -15.4822 N   0  0  0  0  0  0  0  0  0  0  0  0
   -6.2603    4.9732  -16.6243 C   0  0  0  0  0  0  0  0  0  0  0  0
   -3.0252    8.0617  -23.5032 C   0  0  0  0  0  0  0  0  0  0  0  0
   -2.1711    8.5426  -24.5029 C   0  0  0  0  0  0  0  0  0  0  0  0
   -2.4902    8.5742  -25.8388 O   0  0  0  0  0  0  0  0  0  0  0  0
   -3.6422    7.8495  -26.2498 C   0  0  0  0  0  0  0  0  0  0  0  0
  1  2  1  0
  2  3  1  0
  3  4  2  0
  4  5  1  0
  5  6  2  0
  6  7  1  0
  7  8  1  0
  8  9  1  1
  8 10  1  0
 10 11  1  0
  8 12  1  0
 12 13  1  0
 13 14  2  0
 13 15  1  0
 15 16  2  0
 16 17  1  0
 17 18  2  0
 18 19  1  0
 18 20  1  0
 20 21  1  0
 21 22  1  0
 21 23  2  0
 23 24  1  0
 23 25  1  0
 25 26  1  0
  6 27  1  0
 27 28  2  0
 28 29  1  0
 29 30  1  0
 28  3  1  0
 26 15  1  0
 26 20  2  0
M  END
>  <energy_score>  (1788) 
-22.085448

>  <alias>  (1788) 
None

>  <HIPPO Pose ID>  (1788) 
72483

>  <smiles>  (1788) 
COc1ccc(C[C@](C)(CO)NC(=O)c2ccc(Br)c3c(C)c(C)[nH]c23)cc1OC

>  <inchikey>  (1788) 
OFKGKQDFGVGXIS-HSZRJFAPSA-N

>  <distance_score>  (1788) 
1.661798

>  <ref_mols>  (1788) 
Z0827a,Z0101a

>  <ref_pdb>  (1788) 
Z0101a

>  <HIPPO Compound ID>  (1788) 
145844

>  <name>  (1788) 
P72483

>  <inspiration_score>  (1788) 
None

$$$$
P72485
     RDKit          3D

 31 34  0  0  0  0  0  0  0  0999 V2000
    0.7455    9.7038  -24.5944 C   0  0  0  0  0  0  0  0  0  0  0  0
   -0.5388    9.2001  -24.9300 O   0  0  0  0  0  0  0  0  0  0  0  0
   -1.3181    8.7193  -23.9067 C   0  0  0  0  0  0  0  0  0  0  0  0
   -0.8904    8.5867  -22.5816 C   0  0  0  0  0  0  0  0  0  0  0  0
   -1.7515    8.0782  -21.6049 C   0  0  0  0  0  0  0  0  0  0  0  0
   -3.0555    7.6993  -21.9343 C   0  0  0  0  0  0  0  0  0  0  0  0
   -3.9914    7.1503  -20.8793 C   0  0  0  0  0  0  0  0  0  0  0  0
   -4.0020    5.6045  -20.6760 C   0  0  2  0  0  0  0  0  0  0  0  0
   -2.6710    5.1150  -20.0883 C   0  0  0  0  0  0  0  0  0  0  0  0
   -4.2659    4.8524  -22.0024 C   0  0  0  0  0  0  0  0  0  0  0  0
   -5.4474    5.3073  -22.6541 O   0  0  0  0  0  0  0  0  0  0  0  0
   -5.0596    5.2755  -19.7001 N   0  0  0  0  0  0  0  0  0  0  0  0
   -5.3582    5.8686  -18.3091 C   0  0  0  0  0  0  0  0  0  0  0  0
   -4.8635    6.7633  -17.7463 O   0  0  0  0  0  0  0  0  0  0  0  0
   -6.4819    5.1682  -17.6090 C   0  0  0  0  0  0  0  0  0  0  0  0
   -7.6031    4.6346  -18.2621 C   0  0  0  0  0  0  0  0  0  0  0  0
   -8.6758    4.1035  -17.5480 C   0  0  0  0  0  0  0  0  0  0  0  0
   -8.6526    4.0747  -16.1529 C   0  0  0  0  0  0  0  0  0  0  0  0
   -7.5332    4.5704  -15.4631 C   0  0  0  0  0  0  0  0  0  0  0  0
   -7.1799    4.6697  -14.0897 C   0  0  0  0  0  0  0  0  0  0  0  0
   -5.9511    5.2916  -14.0239 C   0  0  0  0  0  0  0  0  0  0  0  0
   -5.5386    5.5621  -15.2952 N   0  0  0  0  0  0  0  0  0  0  0  0
   -6.4812    5.1153  -16.2016 C   0  0  0  0  0  0  0  0  0  0  0  0
   -5.1818    5.5867  -12.7873 C   0  0  0  0  0  0  0  0  0  0  0  0
   -6.1112    5.4788  -11.5636 C   0  0  0  0  0  0  0  0  0  0  0  0
   -7.0162    4.2339  -11.6292 C   0  0  0  0  0  0  0  0  0  0  0  0
   -7.9260    4.2343  -12.8727 C   0  0  0  0  0  0  0  0  0  0  0  0
   -3.4861    7.8418  -23.2621 C   0  0  0  0  0  0  0  0  0  0  0  0
   -2.6253    8.3288  -24.2529 C   0  0  0  0  0  0  0  0  0  0  0  0
   -2.9805    8.4773  -25.5719 O   0  0  0  0  0  0  0  0  0  0  0  0
   -4.1512    7.7952  -26.0045 C   0  0  0  0  0  0  0  0  0  0  0  0
  1  2  1  0
  2  3  1  0
  3  4  2  0
  4  5  1  0
  5  6  2  0
  6  7  1  0
  7  8  1  0
  8  9  1  1
  8 10  1  0
 10 11  1  0
  8 12  1  0
 12 13  1  0
 13 14  2  0
 13 15  1  0
 15 16  2  0
 16 17  1  0
 17 18  2  0
 18 19  1  0
 19 20  1  0
 20 21  2  0
 21 22  1  0
 22 23  1  0
 21 24  1  0
 24 25  1  0
 25 26  1  0
 26 27  1  0
  6 28  1  0
 28 29  2  0
 29 30  1  0
 30 31  1  0
 29  3  1  0
 23 15  1  0
 23 19  2  0
 27 20  1  0
M  END
>  <energy_score>  (1789) 
-43.234485

>  <alias>  (1789) 
None

>  <HIPPO Pose ID>  (1789) 
72485

>  <smiles>  (1789) 
COc1ccc(C[C@](C)(CO)NC(=O)c2cccc3c4c([nH]c23)CCCC4)cc1OC

>  <inchikey>  (1789) 
KOOJOQRSNFGRFR-RUZDIDTESA-N

>  <distance_score>  (1789) 
0.746297

>  <ref_mols>  (1789) 
Z0101a,Z0827a

>  <ref_pdb>  (1789) 
Z0101a

>  <HIPPO Compound ID>  (1789) 
145845

>  <name>  (1789) 
P72485

>  <inspiration_score>  (1789) 
None

$$$$
P72489
     RDKit          3D

 32 35  0  0  0  0  0  0  0  0999 V2000
    0.8434    9.8226  -24.4162 C   0  0  0  0  0  0  0  0  0  0  0  0
   -0.1689    8.8930  -24.7895 O   0  0  0  0  0  0  0  0  0  0  0  0
   -0.9898    8.4867  -23.7717 C   0  0  0  0  0  0  0  0  0  0  0  0
   -2.3191    8.2739  -24.1450 C   0  0  0  0  0  0  0  0  0  0  0  0
   -3.2637    7.8421  -23.2098 C   0  0  0  0  0  0  0  0  0  0  0  0
   -2.8930    7.6113  -21.8797 C   0  0  0  0  0  0  0  0  0  0  0  0
   -3.9038    7.1163  -20.8686 C   0  0  0  0  0  0  0  0  0  0  0  0
   -3.9910    5.5707  -20.6746 C   0  0  2  0  0  0  0  0  0  0  0  0
   -2.6934    5.0120  -20.0735 C   0  0  0  0  0  0  0  0  0  0  0  0
   -4.2783    4.8476  -22.0118 C   0  0  0  0  0  0  0  0  0  0  0  0
   -5.4387    5.3594  -22.6574 O   0  0  0  0  0  0  0  0  0  0  0  0
   -5.0713    5.2802  -19.7129 N   0  0  0  0  0  0  0  0  0  0  0  0
   -5.3520    5.8661  -18.3169 C   0  0  0  0  0  0  0  0  0  0  0  0
   -4.8189    6.7264  -17.7369 O   0  0  0  0  0  0  0  0  0  0  0  0
   -6.4818    5.1737  -17.6184 C   0  0  0  0  0  0  0  0  0  0  0  0
   -7.5967    4.6303  -18.2718 C   0  0  0  0  0  0  0  0  0  0  0  0
   -8.6694    4.1024  -17.5559 C   0  0  0  0  0  0  0  0  0  0  0  0
   -8.6502    4.0883  -16.1597 C   0  0  0  0  0  0  0  0  0  0  0  0
   -7.5350    4.5961  -15.4679 C   0  0  0  0  0  0  0  0  0  0  0  0
   -7.1932    4.7234  -14.0836 C   0  0  0  0  0  0  0  0  0  0  0  0
   -5.9481    5.3277  -14.0254 C   0  0  0  0  0  0  0  0  0  0  0  0
   -5.5506    5.5852  -15.3097 N   0  0  0  0  0  0  0  0  0  0  0  0
   -6.4862    5.1297  -16.2112 C   0  0  0  0  0  0  0  0  0  0  0  0
   -5.0990    5.7016  -12.8553 C   0  0  0  0  0  0  0  0  0  0  0  0
   -5.3010    4.7617  -11.6687 C   0  0  0  0  0  0  0  0  0  0  0  0
   -6.5973    4.9942  -10.8862 C   0  0  0  0  0  0  0  0  0  0  0  0
   -7.8789    5.1984  -11.7003 C   0  0  0  0  0  0  0  0  0  0  0  0
   -8.0216    4.2804  -12.9149 C   0  0  0  0  0  0  0  0  0  0  0  0
   -1.5595    7.8228  -21.5073 C   0  0  0  0  0  0  0  0  0  0  0  0
   -0.6070    8.2167  -22.4542 C   0  0  0  0  0  0  0  0  0  0  0  0
    0.6976    8.3332  -22.0486 O   0  0  0  0  0  0  0  0  0  0  0  0
    1.2917    7.0358  -21.9566 C   0  0  0  0  0  0  0  0  0  0  0  0
  1  2  1  0
  2  3  1  0
  3  4  2  0
  4  5  1  0
  5  6  2  0
  6  7  1  0
  7  8  1  0
  8  9  1  1
  8 10  1  0
 10 11  1  0
  8 12  1  0
 12 13  1  0
 13 14  2  0
 13 15  1  0
 15 16  2  0
 16 17  1  0
 17 18  2  0
 18 19  1  0
 19 20  1  0
 20 21  2  0
 21 22  1  0
 22 23  1  0
 21 24  1  0
 24 25  1  0
 25 26  1  0
 26 27  1  0
 27 28  1  0
  6 29  1  0
 29 30  2  0
 30 31  1  0
 31 32  1  0
 30  3  1  0
 23 15  1  0
 23 19  2  0
 28 20  1  0
M  END
>  <energy_score>  (1790) 
-41.248032

>  <alias>  (1790) 
None

>  <HIPPO Pose ID>  (1790) 
72489

>  <smiles>  (1790) 
COc1ccc(C[C@](C)(CO)NC(=O)c2cccc3c4c([nH]c23)CCCCC4)cc1OC

>  <inchikey>  (1790) 
NNSIHUPWOKSFID-AREMUKBSSA-N

>  <distance_score>  (1790) 
0.698257

>  <ref_mols>  (1790) 
Z0827a,Z0101a

>  <ref_pdb>  (1790) 
Z0101a

>  <HIPPO Compound ID>  (1790) 
145847

>  <name>  (1790) 
P72489

>  <inspiration_score>  (1790) 
None

$$$$
P72492
     RDKit          3D

 32 35  0  0  0  0  0  0  0  0999 V2000
   -0.3689    9.2802  -25.9135 C   0  0  0  0  0  0  0  0  0  0  0  0
   -0.0087    9.0037  -24.5680 O   0  0  0  0  0  0  0  0  0  0  0  0
   -0.9987    8.5625  -23.7243 C   0  0  0  0  0  0  0  0  0  0  0  0
   -2.3208    8.3249  -24.1127 C   0  0  0  0  0  0  0  0  0  0  0  0
   -3.2606    7.8665  -23.1858 C   0  0  0  0  0  0  0  0  0  0  0  0
   -2.8972    7.6392  -21.8552 C   0  0  0  0  0  0  0  0  0  0  0  0
   -3.9118    7.1265  -20.8548 C   0  0  0  0  0  0  0  0  0  0  0  0
   -3.9903    5.5805  -20.6682 C   0  0  2  0  0  0  0  0  0  0  0  0
   -2.6863    5.0262  -20.0760 C   0  0  0  0  0  0  0  0  0  0  0  0
   -4.2770    4.8597  -22.0076 C   0  0  0  0  0  0  0  0  0  0  0  0
   -5.4282    5.3818  -22.6634 O   0  0  0  0  0  0  0  0  0  0  0  0
   -5.0637    5.2797  -19.7018 N   0  0  0  0  0  0  0  0  0  0  0  0
   -5.3261    5.8402  -18.2899 C   0  0  0  0  0  0  0  0  0  0  0  0
   -4.7795    6.6844  -17.6977 O   0  0  0  0  0  0  0  0  0  0  0  0
   -6.4736    5.1645  -17.5985 C   0  0  0  0  0  0  0  0  0  0  0  0
   -7.5980    4.6400  -18.2545 C   0  0  0  0  0  0  0  0  0  0  0  0
   -8.6762    4.1130  -17.5447 C   0  0  0  0  0  0  0  0  0  0  0  0
   -8.6571    4.0792  -16.1501 C   0  0  0  0  0  0  0  0  0  0  0  0
   -7.5374    4.5676  -15.4561 C   0  0  0  0  0  0  0  0  0  0  0  0
   -7.1876    4.6597  -14.0812 C   0  0  0  0  0  0  0  0  0  0  0  0
   -5.9590    5.2801  -14.0087 C   0  0  0  0  0  0  0  0  0  0  0  0
   -5.5430    5.5555  -15.2776 N   0  0  0  0  0  0  0  0  0  0  0  0
   -6.4811    5.1101  -16.1901 C   0  0  0  0  0  0  0  0  0  0  0  0
   -5.1960    5.5737  -12.7683 C   0  0  0  0  0  0  0  0  0  0  0  0
   -6.1256    5.4523  -11.5452 C   0  0  0  0  0  0  0  0  0  0  0  0
   -7.0278    4.1949  -11.6171 C   0  0  1  0  0  0  0  0  0  0  0  0
   -7.8681    4.0553  -10.3494 C   0  0  0  0  0  0  0  0  0  0  0  0
   -7.9405    4.2208  -12.8684 C   0  0  0  0  0  0  0  0  0  0  0  0
   -1.5735    7.8897  -21.4634 C   0  0  0  0  0  0  0  0  0  0  0  0
   -0.6193    8.3357  -22.3871 C   0  0  0  0  0  0  0  0  0  0  0  0
    0.6965    8.5861  -22.0791 O   0  0  0  0  0  0  0  0  0  0  0  0
    1.1525    8.1815  -20.7961 C   0  0  0  0  0  0  0  0  0  0  0  0
  1  2  1  0
  2  3  1  0
  3  4  2  0
  4  5  1  0
  5  6  2  0
  6  7  1  0
  7  8  1  0
  8  9  1  1
  8 10  1  0
 10 11  1  0
  8 12  1  0
 12 13  1  0
 13 14  2  0
 13 15  1  0
 15 16  2  0
 16 17  1  0
 17 18  2  0
 18 19  1  0
 19 20  1  0
 20 21  2  0
 21 22  1  0
 22 23  1  0
 21 24  1  0
 24 25  1  0
 25 26  1  0
 26 27  1  1
 26 28  1  0
  6 29  1  0
 29 30  2  0
 30 31  1  0
 31 32  1  0
 30  3  1  0
 23 15  1  0
 23 19  2  0
 28 20  1  0
M  END
>  <energy_score>  (1791) 
-56.828636

>  <alias>  (1791) 
None

>  <HIPPO Pose ID>  (1791) 
72492

>  <smiles>  (1791) 
COc1ccc(C[C@](C)(CO)NC(=O)c2cccc3c4c([nH]c23)CC[C@@H](C)C4)cc1OC

>  <inchikey>  (1791) 
CGWAWJKJZCVSKI-AKJBCIBTSA-N

>  <distance_score>  (1791) 
0.74093

>  <ref_mols>  (1791) 
Z0101a,Z0827a

>  <ref_pdb>  (1791) 
Z0101a

>  <HIPPO Compound ID>  (1791) 
145848

>  <name>  (1791) 
P72492

>  <inspiration_score>  (1791) 
None

$$$$
P72494
     RDKit          3D

 34 37  0  0  0  0  0  0  0  0999 V2000
   -0.7034    9.3545  -25.9028 C   0  0  0  0  0  0  0  0  0  0  0  0
   -0.3609    9.3449  -24.5235 O   0  0  0  0  0  0  0  0  0  0  0  0
   -1.2840    8.8473  -23.6422 C   0  0  0  0  0  0  0  0  0  0  0  0
   -2.5897    8.4910  -23.9993 C   0  0  0  0  0  0  0  0  0  0  0  0
   -3.4678    7.9448  -23.0567 C   0  0  0  0  0  0  0  0  0  0  0  0
   -3.0576    7.7289  -21.7381 C   0  0  0  0  0  0  0  0  0  0  0  0
   -4.0000    7.1223  -20.7221 C   0  0  0  0  0  0  0  0  0  0  0  0
   -3.9836    5.5696  -20.5697 C   0  0  2  0  0  0  0  0  0  0  0  0
   -2.6463    5.0828  -19.9959 C   0  0  0  0  0  0  0  0  0  0  0  0
   -4.2311    4.8668  -21.9287 C   0  0  0  0  0  0  0  0  0  0  0  0
   -5.4205    5.3190  -22.5690 O   0  0  0  0  0  0  0  0  0  0  0  0
   -5.0352    5.1763  -19.6066 N   0  0  0  0  0  0  0  0  0  0  0  0
   -5.4307    5.7914  -18.2476 C   0  0  0  0  0  0  0  0  0  0  0  0
   -5.0410    6.7508  -17.7098 O   0  0  0  0  0  0  0  0  0  0  0  0
   -6.5299    5.0359  -17.5701 C   0  0  0  0  0  0  0  0  0  0  0  0
   -7.6327    4.5715  -18.3089 C   0  0  0  0  0  0  0  0  0  0  0  0
   -8.7751    4.0789  -17.6914 C   0  0  0  0  0  0  0  0  0  0  0  0
   -8.8618    4.0686  -16.3039 C   0  0  0  0  0  0  0  0  0  0  0  0
   -7.7790    4.5121  -15.5247 C   0  0  0  0  0  0  0  0  0  0  0  0
   -7.6086    4.6744  -14.1265 C   0  0  0  0  0  0  0  0  0  0  0  0
   -6.3456    5.1684  -13.9210 C   0  0  0  0  0  0  0  0  0  0  0  0
   -5.6923    5.1759  -15.1339 N   0  0  0  0  0  0  0  0  0  0  0  0
   -4.2394    5.3132  -15.2752 C   0  0  0  0  0  0  0  0  0  0  0  0
   -3.4465    4.5385  -14.2368 C   0  0  0  0  0  0  0  0  0  0  0  0
   -2.3374    5.1332  -13.6179 C   0  0  0  0  0  0  0  0  0  0  0  0
   -1.5899    4.4288  -12.6706 C   0  0  0  0  0  0  0  0  0  0  0  0
   -1.9365    3.1206  -12.3341 C   0  0  0  0  0  0  0  0  0  0  0  0
   -3.0250    2.5098  -12.9513 C   0  0  0  0  0  0  0  0  0  0  0  0
   -3.7655    3.2098  -13.9053 C   0  0  0  0  0  0  0  0  0  0  0  0
   -6.6023    4.9411  -16.1571 C   0  0  0  0  0  0  0  0  0  0  0  0
   -1.7572    8.0984  -21.3764 C   0  0  0  0  0  0  0  0  0  0  0  0
   -0.8818    8.6742  -22.3071 C   0  0  0  0  0  0  0  0  0  0  0  0
    0.3586    8.9684  -21.7967 O   0  0  0  0  0  0  0  0  0  0  0  0
    0.8993   10.2169  -22.2172 C   0  0  0  0  0  0  0  0  0  0  0  0
  1  2  1  0
  2  3  1  0
  3  4  2  0
  4  5  1  0
  5  6  2  0
  6  7  1  0
  7  8  1  0
  8  9  1  1
  8 10  1  0
 10 11  1  0
  8 12  1  0
 12 13  1  0
 13 14  2  0
 13 15  1  0
 15 16  2  0
 16 17  1  0
 17 18  2  0
 18 19  1  0
 19 20  1  0
 20 21  2  0
 21 22  1  0
 22 23  1  0
 23 24  1  0
 24 25  2  0
 25 26  1  0
 26 27  2  0
 27 28  1  0
 28 29  2  0
 22 30  1  0
  6 31  1  0
 31 32  2  0
 32 33  1  0
 33 34  1  0
 32  3  1  0
 30 15  1  0
 30 19  2  0
 29 24  1  0
M  END
>  <energy_score>  (1792) 
-30.306776

>  <alias>  (1792) 
None

>  <HIPPO Pose ID>  (1792) 
72494

>  <smiles>  (1792) 
COc1ccc(C[C@](C)(CO)NC(=O)c2cccc3ccn(Cc4ccccc4)c23)cc1OC

>  <inchikey>  (1792) 
JHRHXVXMZMLTTQ-MUUNZHRXSA-N

>  <distance_score>  (1792) 
0.700299

>  <ref_mols>  (1792) 
Z0827a,Z0101a

>  <ref_pdb>  (1792) 
Z0101a

>  <HIPPO Compound ID>  (1792) 
145849

>  <name>  (1792) 
P72494

>  <inspiration_score>  (1792) 
None

$$$$
P72496
     RDKit          3D

 26 29  0  0  0  0  0  0  0  0999 V2000
   -4.7934    5.8543  -14.3339 C   0  0  0  0  0  0  0  0  0  0  0  0
   -6.1938    5.5910  -14.5422 N   0  0  0  0  0  0  0  0  0  0  0  0
   -7.0750    5.6803  -13.4927 C   0  0  0  0  0  0  0  0  0  0  0  0
   -8.2531    5.1147  -13.8900 C   0  0  0  0  0  0  0  0  0  0  0  0
   -8.1225    4.7712  -15.2588 C   0  0  0  0  0  0  0  0  0  0  0  0
   -9.0261    4.1710  -16.1538 C   0  0  0  0  0  0  0  0  0  0  0  0
   -8.6964    3.9716  -17.4801 C   0  0  0  0  0  0  0  0  0  0  0  0
   -7.4346    4.3246  -17.9131 C   0  0  0  0  0  0  0  0  0  0  0  0
   -6.4760    4.9360  -17.0633 C   0  0  0  0  0  0  0  0  0  0  0  0
   -5.1511    5.2742  -17.6839 C   0  0  0  0  0  0  0  0  0  0  0  0
   -4.1687    5.0721  -17.0849 O   0  0  0  0  0  0  0  0  0  0  0  0
   -5.3569    5.7748  -19.1446 N   0  0  0  0  0  0  0  0  0  0  0  0
   -4.3738    6.0413  -20.2142 C   0  0  0  0  0  0  0  0  0  0  0  0
   -4.0739    7.5301  -20.3673 C   0  0  0  0  0  0  0  0  0  0  0  0
   -3.4640    8.1284  -19.1203 C   0  0  0  0  0  0  0  0  0  0  0  0
   -4.2756    8.6133  -18.0824 C   0  0  0  0  0  0  0  0  0  0  0  0
   -3.7004    9.1417  -16.9255 C   0  0  0  0  0  0  0  0  0  0  0  0
   -2.3155    9.1882  -16.8051 C   0  0  0  0  0  0  0  0  0  0  0  0
   -1.7705    9.6969  -15.6922 F   0  0  0  0  0  0  0  0  0  0  0  0
   -1.4928    8.7225  -17.8193 C   0  0  0  0  0  0  0  0  0  0  0  0
   -2.0737    8.1982  -18.9676 C   0  0  0  0  0  0  0  0  0  0  0  0
   -1.2730    7.7679  -19.9522 F   0  0  0  0  0  0  0  0  0  0  0  0
   -3.1942    5.0525  -20.3648 C   0  0  0  0  0  0  0  0  0  0  0  0
   -3.5347    4.8126  -21.7657 O   0  0  0  0  0  0  0  0  0  0  0  0
   -4.8312    5.4010  -21.5556 C   0  0  0  0  0  0  0  0  0  0  0  0
   -6.8315    5.1335  -15.6948 C   0  0  0  0  0  0  0  0  0  0  0  0
  1  2  1  0
  2  3  1  0
  3  4  2  0
  4  5  1  0
  5  6  2  0
  6  7  1  0
  7  8  2  0
  8  9  1  0
  9 10  1  0
 10 11  2  0
 10 12  1  0
 12 13  1  0
 13 14  1  0
 14 15  1  0
 15 16  2  0
 16 17  1  0
 17 18  2  0
 18 19  1  0
 18 20  1  0
 20 21  2  0
 21 22  1  0
 13 23  1  0
 23 24  1  0
 24 25  1  0
  9 26  2  0
 26  2  1  0
 26  5  1  0
 25 13  1  0
 21 15  1  0
M  END
>  <energy_score>  (1793) 
-10.796838

>  <alias>  (1793) 
None

>  <HIPPO Pose ID>  (1793) 
72496

>  <smiles>  (1793) 
Cn1ccc2cccc(C(=O)NC3(Cc4ccc(F)cc4F)COC3)c21

>  <inchikey>  (1793) 
YGSPFBQZALYWPA-UHFFFAOYSA-N

>  <distance_score>  (1793) 
1.448178

>  <ref_mols>  (1793) 
Z0827a,Z0101a

>  <ref_pdb>  (1793) 
Z0101a

>  <HIPPO Compound ID>  (1793) 
145852

>  <name>  (1793) 
P72496

>  <inspiration_score>  (1793) 
None

$$$$
P72497
     RDKit          3D

 26 29  0  0  0  0  0  0  0  0999 V2000
   -7.2032    5.1581  -13.7005 C   0  0  0  0  0  0  0  0  0  0  0  0
   -7.3139    4.8791  -15.1681 C   0  0  0  0  0  0  0  0  0  0  0  0
   -6.2077    4.9901  -16.0159 C   0  0  0  0  0  0  0  0  0  0  0  0
   -6.3148    4.7645  -17.3996 C   0  0  0  0  0  0  0  0  0  0  0  0
   -5.0867    4.8733  -18.2434 C   0  0  0  0  0  0  0  0  0  0  0  0
   -4.0841    4.4654  -17.8092 O   0  0  0  0  0  0  0  0  0  0  0  0
   -5.3919    5.5336  -19.6049 N   0  0  0  0  0  0  0  0  0  0  0  0
   -4.4904    5.9244  -20.7021 C   0  0  0  0  0  0  0  0  0  0  0  0
   -4.2422    7.4328  -20.7398 C   0  0  0  0  0  0  0  0  0  0  0  0
   -3.8277    7.9829  -19.3937 C   0  0  0  0  0  0  0  0  0  0  0  0
   -2.5076    7.8544  -18.9374 C   0  0  0  0  0  0  0  0  0  0  0  0
   -2.1496    8.3305  -17.6743 C   0  0  0  0  0  0  0  0  0  0  0  0
   -3.1066    8.9376  -16.8691 C   0  0  0  0  0  0  0  0  0  0  0  0
   -2.7579    9.3955  -15.6598 F   0  0  0  0  0  0  0  0  0  0  0  0
   -4.4163    9.0831  -17.3004 C   0  0  0  0  0  0  0  0  0  0  0  0
   -4.7657    8.6057  -18.5575 C   0  0  0  0  0  0  0  0  0  0  0  0
   -6.0357    8.7547  -18.9672 F   0  0  0  0  0  0  0  0  0  0  0  0
   -3.2456    5.0369  -20.9497 C   0  0  0  0  0  0  0  0  0  0  0  0
   -3.6155    4.8714  -22.3542 O   0  0  0  0  0  0  0  0  0  0  0  0
   -4.9450    5.3411  -22.0585 C   0  0  0  0  0  0  0  0  0  0  0  0
   -7.5818    4.4151  -17.8993 C   0  0  0  0  0  0  0  0  0  0  0  0
   -8.0200    4.1196  -19.1668 N   0  0  0  0  0  0  0  0  0  0  0  0
   -9.3777    3.9789  -19.1827 C   0  0  0  0  0  0  0  0  0  0  0  0
   -9.8230    3.9877  -17.8897 C   0  0  0  0  0  0  0  0  0  0  0  0
   -8.6964    4.2638  -17.0687 C   0  0  0  0  0  0  0  0  0  0  0  0
   -8.5455    4.4677  -15.6887 C   0  0  0  0  0  0  0  0  0  0  0  0
  1  2  1  0
  2  3  2  0
  3  4  1  0
  4  5  1  0
  5  6  2  0
  5  7  1  0
  7  8  1  0
  8  9  1  0
  9 10  1  0
 10 11  2  0
 11 12  1  0
 12 13  2  0
 13 14  1  0
 13 15  1  0
 15 16  2  0
 16 17  1  0
  8 18  1  0
 18 19  1  0
 19 20  1  0
  4 21  2  0
 21 22  1  0
 22 23  1  0
 23 24  2  0
 24 25  1  0
 25 26  2  0
 26  2  1  0
 20  8  1  0
 25 21  1  0
 16 10  1  0
M  END
>  <energy_score>  (1794) 
-42.324665

>  <alias>  (1794) 
None

>  <HIPPO Pose ID>  (1794) 
72497

>  <smiles>  (1794) 
Cc1cc(C(=O)NC2(Cc3ccc(F)cc3F)COC2)c2[nH]ccc2c1

>  <inchikey>  (1794) 
XMNGIBRWXUVGDW-UHFFFAOYSA-N

>  <distance_score>  (1794) 
0.921519

>  <ref_mols>  (1794) 
Z0101a,Z0827a

>  <ref_pdb>  (1794) 
Z0101a

>  <HIPPO Compound ID>  (1794) 
145853

>  <name>  (1794) 
P72497

>  <inspiration_score>  (1794) 
None

$$$$
P72498
     RDKit          3D

 26 29  0  0  0  0  0  0  0  0999 V2000
   -9.0415    4.0111  -15.2727 C   0  0  0  0  0  0  0  0  0  0  0  0
   -7.9971    4.5363  -16.1810 C   0  0  0  0  0  0  0  0  0  0  0  0
   -8.0255    4.2362  -17.5501 C   0  0  0  0  0  0  0  0  0  0  0  0
   -6.9724    4.6010  -18.3825 C   0  0  0  0  0  0  0  0  0  0  0  0
   -5.8683    5.3066  -17.8837 C   0  0  0  0  0  0  0  0  0  0  0  0
   -4.6737    5.6882  -18.6977 C   0  0  0  0  0  0  0  0  0  0  0  0
   -3.6758    5.8623  -18.1178 O   0  0  0  0  0  0  0  0  0  0  0  0
   -4.9894    5.8099  -20.2025 N   0  0  0  0  0  0  0  0  0  0  0  0
   -4.0998    6.0857  -21.3516 C   0  0  0  0  0  0  0  0  0  0  0  0
   -3.4217    7.4263  -21.0973 C   0  0  0  0  0  0  0  0  0  0  0  0
   -2.5505    7.9086  -22.2312 C   0  0  0  0  0  0  0  0  0  0  0  0
   -1.1956    7.5516  -22.2995 C   0  0  0  0  0  0  0  0  0  0  0  0
   -0.4028    8.0053  -23.3553 C   0  0  0  0  0  0  0  0  0  0  0  0
   -0.9608    8.8172  -24.3377 C   0  0  0  0  0  0  0  0  0  0  0  0
   -0.1949    9.2486  -25.3482 F   0  0  0  0  0  0  0  0  0  0  0  0
   -2.2970    9.1867  -24.2884 C   0  0  0  0  0  0  0  0  0  0  0  0
   -3.0794    8.7307  -23.2352 C   0  0  0  0  0  0  0  0  0  0  0  0
   -4.3744    9.0784  -23.1932 F   0  0  0  0  0  0  0  0  0  0  0  0
   -3.2514    4.8302  -21.6999 C   0  0  0  0  0  0  0  0  0  0  0  0
   -4.2807    4.4048  -22.6557 O   0  0  0  0  0  0  0  0  0  0  0  0
   -4.7516    5.7786  -22.7195 C   0  0  0  0  0  0  0  0  0  0  0  0
   -5.8786    5.6171  -16.5090 C   0  0  0  0  0  0  0  0  0  0  0  0
   -4.9432    6.2693  -15.7327 N   0  0  0  0  0  0  0  0  0  0  0  0
   -5.3836    6.3865  -14.4402 C   0  0  0  0  0  0  0  0  0  0  0  0
   -6.5974    5.7493  -14.3570 C   0  0  0  0  0  0  0  0  0  0  0  0
   -6.9148    5.2609  -15.6578 C   0  0  0  0  0  0  0  0  0  0  0  0
  1  2  1  0
  2  3  2  0
  3  4  1  0
  4  5  2  0
  5  6  1  0
  6  7  2  0
  6  8  1  0
  8  9  1  0
  9 10  1  0
 10 11  1  0
 11 12  2  0
 12 13  1  0
 13 14  2  0
 14 15  1  0
 14 16  1  0
 16 17  2  0
 17 18  1  0
  9 19  1  0
 19 20  1  0
 20 21  1  0
  5 22  1  0
 22 23  1  0
 23 24  1  0
 24 25  2  0
 25 26  1  0
 26  2  1  0
 21  9  1  0
 26 22  2  0
 17 11  1  0
M  END
>  <energy_score>  (1795) 
-45.936934

>  <alias>  (1795) 
None

>  <HIPPO Pose ID>  (1795) 
72498

>  <smiles>  (1795) 
Cc1ccc(C(=O)NC2(Cc3ccc(F)cc3F)COC2)c2[nH]ccc12

>  <inchikey>  (1795) 
QGMIUZCCHPNETO-UHFFFAOYSA-N

>  <distance_score>  (1795) 
1.253762

>  <ref_mols>  (1795) 
Z0827a,Z0101a

>  <ref_pdb>  (1795) 
Z0101a

>  <HIPPO Compound ID>  (1795) 
145854

>  <name>  (1795) 
P72498

>  <inspiration_score>  (1795) 
None

$$$$
P72499
     RDKit          3D

 26 29  0  0  0  0  0  0  0  0999 V2000
   -4.0913    5.2802  -17.7801 O   0  0  0  0  0  0  0  0  0  0  0  0
   -5.0578    5.3058  -18.4365 C   0  0  0  0  0  0  0  0  0  0  0  0
   -5.2525    5.7047  -19.9186 N   0  0  0  0  0  0  0  0  0  0  0  0
   -4.2596    6.0733  -20.9538 C   0  0  0  0  0  0  0  0  0  0  0  0
   -3.4201    7.2738  -20.5373 C   0  0  0  0  0  0  0  0  0  0  0  0
   -4.2455    8.5071  -20.2567 C   0  0  0  0  0  0  0  0  0  0  0  0
   -4.6294    8.8244  -18.9437 C   0  0  0  0  0  0  0  0  0  0  0  0
   -5.3688    9.9788  -18.6844 C   0  0  0  0  0  0  0  0  0  0  0  0
   -5.7209   10.8171  -19.7364 C   0  0  0  0  0  0  0  0  0  0  0  0
   -6.4542   11.9095  -19.4879 F   0  0  0  0  0  0  0  0  0  0  0  0
   -5.3471   10.5277  -21.0409 C   0  0  0  0  0  0  0  0  0  0  0  0
   -4.6170    9.3723  -21.2908 C   0  0  0  0  0  0  0  0  0  0  0  0
   -4.2667    9.0935  -22.5535 F   0  0  0  0  0  0  0  0  0  0  0  0
   -3.3900    4.8701  -21.3991 C   0  0  0  0  0  0  0  0  0  0  0  0
   -4.3040    4.6154  -22.5155 O   0  0  0  0  0  0  0  0  0  0  0  0
   -4.7510    5.9958  -22.4151 C   0  0  0  0  0  0  0  0  0  0  0  0
   -6.3420    4.9727  -17.7311 C   0  0  0  0  0  0  0  0  0  0  0  0
   -7.4830    4.4471  -18.3484 C   0  0  0  0  0  0  0  0  0  0  0  0
   -8.6305    4.1721  -17.6043 C   0  0  0  0  0  0  0  0  0  0  0  0
  -10.0622    3.6735  -18.4081 Cl  0  0  0  0  0  0  0  0  0  0  0  0
   -8.6754    4.3563  -16.2221 C   0  0  0  0  0  0  0  0  0  0  0  0
   -7.5584    4.9024  -15.5775 C   0  0  0  0  0  0  0  0  0  0  0  0
   -7.2900    5.2883  -14.2352 C   0  0  0  0  0  0  0  0  0  0  0  0
   -6.0115    5.7941  -14.1966 C   0  0  0  0  0  0  0  0  0  0  0  0
   -5.4838    5.6871  -15.4565 N   0  0  0  0  0  0  0  0  0  0  0  0
   -6.4246    5.1898  -16.3360 C   0  0  0  0  0  0  0  0  0  0  0  0
  1  2  2  0
  2  3  1  0
  3  4  1  0
  4  5  1  0
  5  6  1  0
  6  7  2  0
  7  8  1  0
  8  9  2  0
  9 10  1  0
  9 11  1  0
 11 12  2  0
 12 13  1  0
  4 14  1  0
 14 15  1  0
 15 16  1  0
  2 17  1  0
 17 18  2  0
 18 19  1  0
 19 20  1  0
 19 21  2  0
 21 22  1  0
 22 23  1  0
 23 24  2  0
 24 25  1  0
 25 26  1  0
 16  4  1  0
 26 17  1  0
 12  6  1  0
 26 22  2  0
M  END
>  <energy_score>  (1796) 
-25.355575

>  <alias>  (1796) 
None

>  <HIPPO Pose ID>  (1796) 
72499

>  <smiles>  (1796) 
O=C(NC1(Cc2ccc(F)cc2F)COC1)c1cc(Cl)cc2cc[nH]c12

>  <inchikey>  (1796) 
CHFVTBQVTYZENW-UHFFFAOYSA-N

>  <distance_score>  (1796) 
0.81658

>  <ref_mols>  (1796) 
Z0101a,Z0827a

>  <ref_pdb>  (1796) 
Z0101a

>  <HIPPO Compound ID>  (1796) 
145855

>  <name>  (1796) 
P72499

>  <inspiration_score>  (1796) 
None

$$$$
P72502
     RDKit          3D

 26 29  0  0  0  0  0  0  0  0999 V2000
   -5.4631    7.2045  -17.9569 O   0  0  0  0  0  0  0  0  0  0  0  0
   -5.6371    6.0805  -18.2183 C   0  0  0  0  0  0  0  0  0  0  0  0
   -5.1540    5.2477  -19.4245 N   0  0  0  0  0  0  0  0  0  0  0  0
   -4.4082    5.6607  -20.6554 C   0  0  0  0  0  0  0  0  0  0  0  0
   -4.2247    7.1854  -20.6921 C   0  0  0  0  0  0  0  0  0  0  0  0
   -3.6159    7.7371  -21.9628 C   0  0  0  0  0  0  0  0  0  0  0  0
   -2.2261    7.8759  -22.0970 C   0  0  0  0  0  0  0  0  0  0  0  0
   -1.6781    8.3843  -23.2767 C   0  0  0  0  0  0  0  0  0  0  0  0
   -2.5164    8.7642  -24.3191 C   0  0  0  0  0  0  0  0  0  0  0  0
   -1.9850    9.2525  -25.4473 F   0  0  0  0  0  0  0  0  0  0  0  0
   -3.8936    8.6528  -24.2055 C   0  0  0  0  0  0  0  0  0  0  0  0
   -4.4302    8.1460  -23.0283 C   0  0  0  0  0  0  0  0  0  0  0  0
   -5.7635    8.0539  -22.9208 F   0  0  0  0  0  0  0  0  0  0  0  0
   -3.1581    4.7974  -20.9455 C   0  0  0  0  0  0  0  0  0  0  0  0
   -3.6999    4.3731  -22.2275 O   0  0  0  0  0  0  0  0  0  0  0  0
   -4.9779    4.9557  -21.9096 C   0  0  0  0  0  0  0  0  0  0  0  0
   -6.5427    5.3036  -17.3293 C   0  0  0  0  0  0  0  0  0  0  0  0
   -6.4163    5.4342  -15.9430 C   0  0  0  0  0  0  0  0  0  0  0  0
   -7.4163    4.9658  -15.1028 C   0  0  0  0  0  0  0  0  0  0  0  0
   -7.3292    5.2088  -13.7886 F   0  0  0  0  0  0  0  0  0  0  0  0
   -8.5605    4.3437  -15.5916 C   0  0  0  0  0  0  0  0  0  0  0  0
   -8.7277    4.2262  -16.9796 C   0  0  0  0  0  0  0  0  0  0  0  0
   -9.8242    3.8498  -17.8021 C   0  0  0  0  0  0  0  0  0  0  0  0
   -9.4497    4.0591  -19.1005 C   0  0  0  0  0  0  0  0  0  0  0  0
   -8.1713    4.5338  -19.1025 N   0  0  0  0  0  0  0  0  0  0  0  0
   -7.7066    4.6845  -17.8211 C   0  0  0  0  0  0  0  0  0  0  0  0
  1  2  2  0
  2  3  1  0
  3  4  1  0
  4  5  1  0
  5  6  1  0
  6  7  2  0
  7  8  1  0
  8  9  2  0
  9 10  1  0
  9 11  1  0
 11 12  2  0
 12 13  1  0
  4 14  1  0
 14 15  1  0
 15 16  1  0
  2 17  1  0
 17 18  2  0
 18 19  1  0
 19 20  1  0
 19 21  2  0
 21 22  1  0
 22 23  1  0
 23 24  2  0
 24 25  1  0
 25 26  1  0
 16  4  1  0
 26 17  1  0
 12  6  1  0
 26 22  2  0
M  END
>  <energy_score>  (1797) 
-16.397879

>  <alias>  (1797) 
None

>  <HIPPO Pose ID>  (1797) 
72502

>  <smiles>  (1797) 
O=C(NC1(Cc2ccc(F)cc2F)COC1)c1cc(F)cc2cc[nH]c12

>  <inchikey>  (1797) 
LLNDMDFMMVOLFW-UHFFFAOYSA-N

>  <distance_score>  (1797) 
0.907412

>  <ref_mols>  (1797) 
Z0827a,Z0101a

>  <ref_pdb>  (1797) 
Z0101a

>  <HIPPO Compound ID>  (1797) 
145858

>  <name>  (1797) 
P72502

>  <inspiration_score>  (1797) 
None

$$$$
P72503
     RDKit          3D

 26 29  0  0  0  0  0  0  0  0999 V2000
   -3.7552    5.1910  -17.9827 O   0  0  0  0  0  0  0  0  0  0  0  0
   -4.8182    5.1962  -18.4613 C   0  0  0  0  0  0  0  0  0  0  0  0
   -5.2566    5.4552  -19.9124 N   0  0  0  0  0  0  0  0  0  0  0  0
   -4.4715    5.8659  -21.0921 C   0  0  0  0  0  0  0  0  0  0  0  0
   -4.2150    7.3716  -20.9926 C   0  0  0  0  0  0  0  0  0  0  0  0
   -3.6812    8.0114  -22.2522 C   0  0  0  0  0  0  0  0  0  0  0  0
   -2.3022    8.0898  -22.4961 C   0  0  0  0  0  0  0  0  0  0  0  0
   -1.8269    8.6773  -23.6705 C   0  0  0  0  0  0  0  0  0  0  0  0
   -2.7265    9.1916  -24.5980 C   0  0  0  0  0  0  0  0  0  0  0  0
   -2.2644    9.7563  -25.7211 F   0  0  0  0  0  0  0  0  0  0  0  0
   -4.0939    9.1351  -24.3754 C   0  0  0  0  0  0  0  0  0  0  0  0
   -4.5581    8.5490  -23.2046 C   0  0  0  0  0  0  0  0  0  0  0  0
   -5.8809    8.5052  -22.9892 F   0  0  0  0  0  0  0  0  0  0  0  0
   -3.2300    4.9785  -21.3710 C   0  0  0  0  0  0  0  0  0  0  0  0
   -3.6779    4.7516  -22.7423 O   0  0  0  0  0  0  0  0  0  0  0  0
   -4.9969    5.2201  -22.3877 C   0  0  0  0  0  0  0  0  0  0  0  0
   -5.9839    5.0195  -17.5347 C   0  0  0  0  0  0  0  0  0  0  0  0
   -7.2189    4.4358  -17.8799 C   0  0  0  0  0  0  0  0  0  0  0  0
   -8.2340    4.2789  -16.9264 C   0  0  0  0  0  0  0  0  0  0  0  0
   -8.0220    4.7186  -15.6213 C   0  0  0  0  0  0  0  0  0  0  0  0
   -9.1417    4.6204  -14.3539 Cl  0  0  0  0  0  0  0  0  0  0  0  0
   -6.8283    5.3386  -15.2408 C   0  0  0  0  0  0  0  0  0  0  0  0
   -6.3393    5.9356  -14.0413 C   0  0  0  0  0  0  0  0  0  0  0  0
   -5.0689    6.3911  -14.2916 C   0  0  0  0  0  0  0  0  0  0  0  0
   -4.7585    6.0654  -15.5846 N   0  0  0  0  0  0  0  0  0  0  0  0
   -5.8332    5.4618  -16.2040 C   0  0  0  0  0  0  0  0  0  0  0  0
  1  2  2  0
  2  3  1  0
  3  4  1  0
  4  5  1  0
  5  6  1  0
  6  7  2  0
  7  8  1  0
  8  9  2  0
  9 10  1  0
  9 11  1  0
 11 12  2  0
 12 13  1  0
  4 14  1  0
 14 15  1  0
 15 16  1  0
  2 17  1  0
 17 18  2  0
 18 19  1  0
 19 20  2  0
 20 21  1  0
 20 22  1  0
 22 23  1  0
 23 24  2  0
 24 25  1  0
 25 26  1  0
 16  4  1  0
 26 17  1  0
 12  6  1  0
 26 22  2  0
M  END
>  <energy_score>  (1798) 
-26.858397

>  <alias>  (1798) 
None

>  <HIPPO Pose ID>  (1798) 
72503

>  <smiles>  (1798) 
O=C(NC1(Cc2ccc(F)cc2F)COC1)c1ccc(Cl)c2cc[nH]c12

>  <inchikey>  (1798) 
GDDFHKKLFKLMRQ-UHFFFAOYSA-N

>  <distance_score>  (1798) 
1.283253

>  <ref_mols>  (1798) 
Z0827a,Z0101a

>  <ref_pdb>  (1798) 
Z0101a

>  <HIPPO Compound ID>  (1798) 
145859

>  <name>  (1798) 
P72503

>  <inspiration_score>  (1798) 
None

$$$$
P72506
     RDKit          3D

 27 29  0  0  0  0  0  0  0  0999 V2000
   -4.2498    6.3226  -23.6545 C   0  0  0  0  0  0  0  0  0  0  0  0
   -3.9167    6.5866  -22.2939 O   0  0  0  0  0  0  0  0  0  0  0  0
   -4.3606    5.6500  -21.4036 C   0  0  0  0  0  0  0  0  0  0  0  0
   -4.9715    4.6359  -21.7270 O   0  0  0  0  0  0  0  0  0  0  0  0
   -3.9342    6.0066  -19.9520 C   0  0  2  0  0  0  0  0  0  0  0  0
   -3.8246    7.5296  -19.8028 C   0  0  0  0  0  0  0  0  0  0  0  0
   -2.6316    5.1979  -19.6821 C   0  0  0  0  0  0  0  0  0  0  0  0
   -1.3996    6.0114  -19.3376 C   0  0  0  0  0  0  0  0  0  0  0  0
   -1.1249    6.3619  -18.0073 C   0  0  0  0  0  0  0  0  0  0  0  0
    0.0048    7.1180  -17.6937 C   0  0  0  0  0  0  0  0  0  0  0  0
    0.8597    7.5254  -18.7098 C   0  0  0  0  0  0  0  0  0  0  0  0
    1.9455    8.2501  -18.4083 F   0  0  0  0  0  0  0  0  0  0  0  0
    0.6060    7.1919  -20.0341 C   0  0  0  0  0  0  0  0  0  0  0  0
   -0.5241    6.4366  -20.3486 C   0  0  0  0  0  0  0  0  0  0  0  0
   -5.0266    5.5826  -19.0609 N   0  0  0  0  0  0  0  0  0  0  0  0
   -5.0364    5.3254  -17.5285 C   0  0  0  0  0  0  0  0  0  0  0  0
   -4.1623    5.3364  -16.7545 O   0  0  0  0  0  0  0  0  0  0  0  0
   -6.4106    4.9555  -17.0180 C   0  0  0  0  0  0  0  0  0  0  0  0
   -7.3269    4.3481  -17.9167 C   0  0  0  0  0  0  0  0  0  0  0  0
   -8.6136    3.9945  -17.5559 C   0  0  0  0  0  0  0  0  0  0  0  0
   -9.0181    4.1738  -16.2494 C   0  0  0  0  0  0  0  0  0  0  0  0
   -8.1602    4.7549  -15.2997 C   0  0  0  0  0  0  0  0  0  0  0  0
   -8.3663    5.0572  -13.9317 C   0  0  0  0  0  0  0  0  0  0  0  0
   -7.2267    5.6382  -13.4597 C   0  0  0  0  0  0  0  0  0  0  0  0
   -6.2888    5.5967  -14.4630 N   0  0  0  0  0  0  0  0  0  0  0  0
   -4.9185    5.9221  -14.1563 C   0  0  0  0  0  0  0  0  0  0  0  0
   -6.8498    5.1375  -15.6604 C   0  0  0  0  0  0  0  0  0  0  0  0
  1  2  1  0
  2  3  1  0
  3  4  2  0
  3  5  1  0
  5  6  1  6
  5  7  1  0
  7  8  1  0
  8  9  2  0
  9 10  1  0
 10 11  2  0
 11 12  1  0
 11 13  1  0
 13 14  2  0
  5 15  1  0
 15 16  1  0
 16 17  2  0
 16 18  1  0
 18 19  2  0
 19 20  1  0
 20 21  2  0
 21 22  1  0
 22 23  1  0
 23 24  2  0
 24 25  1  0
 25 26  1  0
 25 27  1  0
 14  8  1  0
 27 18  1  0
 27 22  2  0
M  END
>  <energy_score>  (1799) 
-19.860118

>  <alias>  (1799) 
None

>  <HIPPO Pose ID>  (1799) 
72506

>  <smiles>  (1799) 
COC(=O)[C@](C)(Cc1ccc(F)cc1)NC(=O)c1cccc2ccn(C)c12

>  <inchikey>  (1799) 
OUIDMWYNJVODDY-NRFANRHFSA-N

>  <distance_score>  (1799) 
1.428657

>  <ref_mols>  (1799) 
Z0101a,Z0827a

>  <ref_pdb>  (1799) 
Z0101a

>  <HIPPO Compound ID>  (1799) 
145862

>  <name>  (1799) 
P72506

>  <inspiration_score>  (1799) 
None

$$$$
P72515
     RDKit          3D

 27 29  0  0  0  0  0  0  0  0999 V2000
   -4.9551    6.4065  -23.9102 C   0  0  0  0  0  0  0  0  0  0  0  0
   -4.4501    6.5500  -22.5871 O   0  0  0  0  0  0  0  0  0  0  0  0
   -4.6566    5.5298  -21.7031 C   0  0  0  0  0  0  0  0  0  0  0  0
   -5.1634    4.4491  -21.9866 O   0  0  0  0  0  0  0  0  0  0  0  0
   -4.0977    5.9042  -20.3026 C   0  0  2  0  0  0  0  0  0  0  0  0
   -3.9477    7.4394  -20.2245 C   0  0  0  0  0  0  0  0  0  0  0  0
   -2.7314    5.1751  -20.1629 C   0  0  0  0  0  0  0  0  0  0  0  0
   -1.7225    5.7898  -19.2092 C   0  0  0  0  0  0  0  0  0  0  0  0
   -1.9947    5.9295  -17.8409 C   0  0  0  0  0  0  0  0  0  0  0  0
   -1.0608    6.5199  -16.9863 C   0  0  0  0  0  0  0  0  0  0  0  0
    0.1559    6.9540  -17.4942 C   0  0  0  0  0  0  0  0  0  0  0  0
    1.0550    7.5112  -16.6725 F   0  0  0  0  0  0  0  0  0  0  0  0
    0.4558    6.8132  -18.8420 C   0  0  0  0  0  0  0  0  0  0  0  0
   -0.4818    6.2335  -19.6979 C   0  0  0  0  0  0  0  0  0  0  0  0
   -5.0444    5.4288  -19.2731 N   0  0  0  0  0  0  0  0  0  0  0  0
   -5.5975    6.1327  -18.0238 C   0  0  0  0  0  0  0  0  0  0  0  0
   -5.3368    7.1717  -17.5643 O   0  0  0  0  0  0  0  0  0  0  0  0
   -6.5723    5.3123  -17.2569 C   0  0  0  0  0  0  0  0  0  0  0  0
   -6.5249    5.3983  -15.8573 C   0  0  0  0  0  0  0  0  0  0  0  0
   -7.5597    4.9064  -15.0824 C   0  0  0  0  0  0  0  0  0  0  0  0
   -7.5411    5.1189  -13.7605 F   0  0  0  0  0  0  0  0  0  0  0  0
   -8.6651    4.2917  -15.6520 C   0  0  0  0  0  0  0  0  0  0  0  0
   -8.7492    4.1948  -17.0494 C   0  0  0  0  0  0  0  0  0  0  0  0
   -9.7911    3.8055  -17.9328 C   0  0  0  0  0  0  0  0  0  0  0  0
   -9.3415    4.0225  -19.2052 C   0  0  0  0  0  0  0  0  0  0  0  0
   -8.0701    4.5158  -19.1334 N   0  0  0  0  0  0  0  0  0  0  0  0
   -7.6880    4.6797  -17.8284 C   0  0  0  0  0  0  0  0  0  0  0  0
  1  2  1  0
  2  3  1  0
  3  4  2  0
  3  5  1  0
  5  6  1  6
  5  7  1  0
  7  8  1  0
  8  9  2  0
  9 10  1  0
 10 11  2  0
 11 12  1  0
 11 13  1  0
 13 14  2  0
  5 15  1  0
 15 16  1  0
 16 17  2  0
 16 18  1  0
 18 19  2  0
 19 20  1  0
 20 21  1  0
 20 22  2  0
 22 23  1  0
 23 24  1  0
 24 25  2  0
 25 26  1  0
 26 27  1  0
 14  8  1  0
 27 18  1  0
 27 23  2  0
M  END
>  <energy_score>  (1800) 
-0.273798

>  <alias>  (1800) 
None

>  <HIPPO Pose ID>  (1800) 
72515

>  <smiles>  (1800) 
COC(=O)[C@](C)(Cc1ccc(F)cc1)NC(=O)c1cc(F)cc2cc[nH]c12

>  <inchikey>  (1800) 
XVPTWONDKPHDFQ-FQEVSTJZSA-N

>  <distance_score>  (1800) 
0.83554

>  <ref_mols>  (1800) 
Z0101a,Z0827a

>  <ref_pdb>  (1800) 
Z0101a

>  <HIPPO Compound ID>  (1800) 
145869

>  <name>  (1800) 
P72515

>  <inspiration_score>  (1800) 
None

$$$$
P72521
     RDKit          3D

 27 30  0  0  0  0  0  0  0  0999 V2000
   -5.6460    5.8971  -12.8640 C   0  0  0  0  0  0  0  0  0  0  0  0
   -6.3236    5.5453  -14.1370 C   0  0  0  0  0  0  0  0  0  0  0  0
   -5.7030    5.4912  -15.3639 N   0  0  0  0  0  0  0  0  0  0  0  0
   -6.5907    5.0708  -16.3386 C   0  0  0  0  0  0  0  0  0  0  0  0
   -6.4208    4.8865  -17.7300 C   0  0  0  0  0  0  0  0  0  0  0  0
   -5.1161    5.2531  -18.3783 C   0  0  0  0  0  0  0  0  0  0  0  0
   -4.1739    5.2990  -17.6881 O   0  0  0  0  0  0  0  0  0  0  0  0
   -5.2772    5.5947  -19.8823 N   0  0  0  0  0  0  0  0  0  0  0  0
   -4.2631    5.9829  -20.8981 C   0  0  0  0  0  0  0  0  0  0  0  0
   -3.8126    7.4042  -20.5719 C   0  0  0  0  0  0  0  0  0  0  0  0
   -2.8142    7.9926  -21.5393 C   0  0  0  0  0  0  0  0  0  0  0  0
   -3.2378    8.7303  -22.6556 C   0  0  0  0  0  0  0  0  0  0  0  0
   -2.2994    9.2636  -23.5417 C   0  0  0  0  0  0  0  0  0  0  0  0
   -0.9413    9.0671  -23.3104 C   0  0  0  0  0  0  0  0  0  0  0  0
   -0.0483    9.5824  -24.1653 F   0  0  0  0  0  0  0  0  0  0  0  0
   -0.4992    8.3520  -22.2081 C   0  0  0  0  0  0  0  0  0  0  0  0
   -1.4384    7.8255  -21.3306 C   0  0  0  0  0  0  0  0  0  0  0  0
   -1.0076    7.1460  -20.2592 F   0  0  0  0  0  0  0  0  0  0  0  0
   -3.2241    4.8549  -21.1503 C   0  0  0  0  0  0  0  0  0  0  0  0
   -4.0325    4.3498  -22.2661 O   0  0  0  0  0  0  0  0  0  0  0  0
   -4.6946    5.6353  -22.3460 C   0  0  0  0  0  0  0  0  0  0  0  0
   -7.5106    4.3437  -18.4319 C   0  0  0  0  0  0  0  0  0  0  0  0
   -8.7147    4.0502  -17.7975 C   0  0  0  0  0  0  0  0  0  0  0  0
   -8.8633    4.2773  -16.4305 C   0  0  0  0  0  0  0  0  0  0  0  0
   -7.7956    4.8111  -15.6871 C   0  0  0  0  0  0  0  0  0  0  0  0
   -7.6424    5.2075  -14.3268 C   0  0  0  0  0  0  0  0  0  0  0  0
   -8.6698    5.2336  -13.2759 C   0  0  0  0  0  0  0  0  0  0  0  0
  1  2  1  0
  2  3  1  0
  3  4  1  0
  4  5  2  0
  5  6  1  0
  6  7  2  0
  6  8  1  0
  8  9  1  0
  9 10  1  0
 10 11  1  0
 11 12  2  0
 12 13  1  0
 13 14  2  0
 14 15  1  0
 14 16  1  0
 16 17  2  0
 17 18  1  0
  9 19  1  0
 19 20  1  0
 20 21  1  0
  5 22  1  0
 22 23  2  0
 23 24  1  0
 24 25  2  0
 25 26  1  0
 26 27  1  0
 26  2  2  0
 25  4  1  0
 21  9  1  0
 17 11  1  0
M  END
>  <energy_score>  (1801) 
-38.067055

>  <alias>  (1801) 
None

>  <HIPPO Pose ID>  (1801) 
72521

>  <smiles>  (1801) 
Cc1[nH]c2c(C(=O)NC3(Cc4ccc(F)cc4F)COC3)cccc2c1C

>  <inchikey>  (1801) 
QXUIIDAKYJYLAO-UHFFFAOYSA-N

>  <distance_score>  (1801) 
1.381789

>  <ref_mols>  (1801) 
Z0827a,Z0101a

>  <ref_pdb>  (1801) 
Z0101a

>  <HIPPO Compound ID>  (1801) 
145872

>  <name>  (1801) 
P72521

>  <inspiration_score>  (1801) 
None

$$$$
P72523
     RDKit          3D

 27 30  0  0  0  0  0  0  0  0999 V2000
   -7.9046    5.3621  -11.8869 O   0  0  0  0  0  0  0  0  0  0  0  0
   -8.1224    4.8449  -12.9794 C   0  0  0  0  0  0  0  0  0  0  0  0
   -7.3344    5.1223  -14.1671 C   0  0  0  0  0  0  0  0  0  0  0  0
   -6.1056    5.7557  -14.1721 C   0  0  0  0  0  0  0  0  0  0  0  0
   -5.6145    5.7225  -15.4477 N   0  0  0  0  0  0  0  0  0  0  0  0
   -6.5398    5.1656  -16.3056 C   0  0  0  0  0  0  0  0  0  0  0  0
   -6.4674    4.9557  -17.6991 C   0  0  0  0  0  0  0  0  0  0  0  0
   -5.2024    5.3294  -18.4279 C   0  0  0  0  0  0  0  0  0  0  0  0
   -4.2307    5.4363  -17.7912 O   0  0  0  0  0  0  0  0  0  0  0  0
   -5.4276    5.5004  -19.9434 N   0  0  0  0  0  0  0  0  0  0  0  0
   -4.5027    5.9421  -21.0073 C   0  0  0  0  0  0  0  0  0  0  0  0
   -4.2861    7.4487  -20.8636 C   0  0  0  0  0  0  0  0  0  0  0  0
   -3.6123    8.1130  -22.0403 C   0  0  0  0  0  0  0  0  0  0  0  0
   -4.3634    8.5763  -23.1326 C   0  0  0  0  0  0  0  0  0  0  0  0
   -3.7268    9.1812  -24.2181 C   0  0  0  0  0  0  0  0  0  0  0  0
   -2.3438    9.3323  -24.2100 C   0  0  0  0  0  0  0  0  0  0  0  0
   -1.7408    9.9169  -25.2534 F   0  0  0  0  0  0  0  0  0  0  0  0
   -1.5828    8.8964  -23.1364 C   0  0  0  0  0  0  0  0  0  0  0  0
   -2.2232    8.2946  -22.0603 C   0  0  0  0  0  0  0  0  0  0  0  0
   -1.4852    7.9009  -21.0133 F   0  0  0  0  0  0  0  0  0  0  0  0
   -3.2366    5.0632  -21.1745 C   0  0  0  0  0  0  0  0  0  0  0  0
   -3.5620    4.8171  -22.5768 O   0  0  0  0  0  0  0  0  0  0  0  0
   -4.8971    5.3121  -22.3632 C   0  0  0  0  0  0  0  0  0  0  0  0
   -7.5899    4.3609  -18.2990 C   0  0  0  0  0  0  0  0  0  0  0  0
   -8.7158    4.0140  -17.5535 C   0  0  0  0  0  0  0  0  0  0  0  0
   -8.7392    4.2029  -16.1707 C   0  0  0  0  0  0  0  0  0  0  0  0
   -7.6362    4.7921  -15.5263 C   0  0  0  0  0  0  0  0  0  0  0  0
  1  2  2  0
  2  3  1  0
  3  4  2  0
  4  5  1  0
  5  6  1  0
  6  7  2  0
  7  8  1  0
  8  9  2  0
  8 10  1  0
 10 11  1  0
 11 12  1  0
 12 13  1  0
 13 14  2  0
 14 15  1  0
 15 16  2  0
 16 17  1  0
 16 18  1  0
 18 19  2  0
 19 20  1  0
 11 21  1  0
 21 22  1  0
 22 23  1  0
  7 24  1  0
 24 25  2  0
 25 26  1  0
 26 27  2  0
 27  3  1  0
 27  6  1  0
 23 11  1  0
 19 13  1  0
M  END
>  <energy_score>  (1802) 
-26.636869

>  <alias>  (1802) 
None

>  <HIPPO Pose ID>  (1802) 
72523

>  <smiles>  (1802) 
O=Cc1c[nH]c2c(C(=O)NC3(Cc4ccc(F)cc4F)COC3)cccc12

>  <inchikey>  (1802) 
ZKHRABWFWUIIGU-UHFFFAOYSA-N

>  <distance_score>  (1802) 
0.765837

>  <ref_mols>  (1802) 
Z0827a,Z0101a

>  <ref_pdb>  (1802) 
Z0101a

>  <HIPPO Compound ID>  (1802) 
145874

>  <name>  (1802) 
P72523

>  <inspiration_score>  (1802) 
None

$$$$
P72524
     RDKit          3D

 27 30  0  0  0  0  0  0  0  0999 V2000
   -8.4300    3.7818  -13.3626 C   0  0  0  0  0  0  0  0  0  0  0  0
   -9.0146    4.5415  -14.4328 O   0  0  0  0  0  0  0  0  0  0  0  0
   -8.0717    4.7543  -15.4133 C   0  0  0  0  0  0  0  0  0  0  0  0
   -8.2859    4.2678  -16.7105 C   0  0  0  0  0  0  0  0  0  0  0  0
   -7.3041    4.4166  -17.7059 C   0  0  0  0  0  0  0  0  0  0  0  0
   -6.0797    5.0413  -17.4178 C   0  0  0  0  0  0  0  0  0  0  0  0
   -4.9161    5.1650  -18.3523 C   0  0  0  0  0  0  0  0  0  0  0  0
   -3.8522    5.0798  -17.8830 O   0  0  0  0  0  0  0  0  0  0  0  0
   -5.3470    5.4761  -19.7955 N   0  0  0  0  0  0  0  0  0  0  0  0
   -4.5436    5.8515  -20.9776 C   0  0  0  0  0  0  0  0  0  0  0  0
   -4.2944    7.3613  -20.9246 C   0  0  0  0  0  0  0  0  0  0  0  0
   -3.7253    7.9607  -22.1890 C   0  0  0  0  0  0  0  0  0  0  0  0
   -2.3396    8.0468  -22.3892 C   0  0  0  0  0  0  0  0  0  0  0  0
   -1.8303    8.5953  -23.5683 C   0  0  0  0  0  0  0  0  0  0  0  0
   -2.7029    9.0638  -24.5444 C   0  0  0  0  0  0  0  0  0  0  0  0
   -2.2085    9.5914  -25.6719 F   0  0  0  0  0  0  0  0  0  0  0  0
   -4.0763    9.0000  -24.3658 C   0  0  0  0  0  0  0  0  0  0  0  0
   -4.5743    8.4527  -23.1900 C   0  0  0  0  0  0  0  0  0  0  0  0
   -5.9030    8.4041  -23.0180 F   0  0  0  0  0  0  0  0  0  0  0  0
   -3.2855    4.9718  -21.2071 C   0  0  0  0  0  0  0  0  0  0  0  0
   -3.7030    4.7001  -22.5800 O   0  0  0  0  0  0  0  0  0  0  0  0
   -5.0354    5.1577  -22.2628 C   0  0  0  0  0  0  0  0  0  0  0  0
   -5.9346    5.5878  -16.1298 C   0  0  0  0  0  0  0  0  0  0  0  0
   -4.8754    6.2751  -15.5748 N   0  0  0  0  0  0  0  0  0  0  0  0
   -5.2052    6.7383  -14.3300 C   0  0  0  0  0  0  0  0  0  0  0  0
   -6.4643    6.2768  -14.0375 C   0  0  0  0  0  0  0  0  0  0  0  0
   -6.9138    5.5033  -15.1469 C   0  0  0  0  0  0  0  0  0  0  0  0
  1  2  1  0
  2  3  1  0
  3  4  2  0
  4  5  1  0
  5  6  2  0
  6  7  1  0
  7  8  2  0
  7  9  1  0
  9 10  1  0
 10 11  1  0
 11 12  1  0
 12 13  2  0
 13 14  1  0
 14 15  2  0
 15 16  1  0
 15 17  1  0
 17 18  2  0
 18 19  1  0
 10 20  1  0
 20 21  1  0
 21 22  1  0
  6 23  1  0
 23 24  1  0
 24 25  1  0
 25 26  2  0
 26 27  1  0
 27  3  1  0
 22 10  1  0
 27 23  2  0
 18 12  1  0
M  END
>  <energy_score>  (1803) 
-39.783635

>  <alias>  (1803) 
None

>  <HIPPO Pose ID>  (1803) 
72524

>  <smiles>  (1803) 
COc1ccc(C(=O)NC2(Cc3ccc(F)cc3F)COC2)c2[nH]ccc12

>  <inchikey>  (1803) 
UBEGGPHGRPQYEE-UHFFFAOYSA-N

>  <distance_score>  (1803) 
1.313028

>  <ref_mols>  (1803) 
Z0101a,Z0827a

>  <ref_pdb>  (1803) 
Z0101a

>  <HIPPO Compound ID>  (1803) 
145875

>  <name>  (1803) 
P72524

>  <inspiration_score>  (1803) 
None

$$$$
P72525
     RDKit          3D

 27 30  0  0  0  0  0  0  0  0999 V2000
   -4.0203    5.1678  -17.7262 O   0  0  0  0  0  0  0  0  0  0  0  0
   -4.9813    5.1564  -18.3918 C   0  0  0  0  0  0  0  0  0  0  0  0
   -5.1623    5.4671  -19.8971 N   0  0  0  0  0  0  0  0  0  0  0  0
   -4.1903    5.9615  -20.9021 C   0  0  0  0  0  0  0  0  0  0  0  0
   -3.3527    7.1278  -20.3888 C   0  0  0  0  0  0  0  0  0  0  0  0
   -4.1774    8.3344  -19.9996 C   0  0  0  0  0  0  0  0  0  0  0  0
   -4.5154    8.5661  -18.6569 C   0  0  0  0  0  0  0  0  0  0  0  0
   -5.2636    9.6883  -18.2983 C   0  0  0  0  0  0  0  0  0  0  0  0
   -5.6679   10.5849  -19.2805 C   0  0  0  0  0  0  0  0  0  0  0  0
   -6.4131   11.6430  -18.9376 F   0  0  0  0  0  0  0  0  0  0  0  0
   -5.3311   10.3887  -20.6112 C   0  0  0  0  0  0  0  0  0  0  0  0
   -4.5910    9.2649  -20.9594 C   0  0  0  0  0  0  0  0  0  0  0  0
   -4.2706    9.0856  -22.2476 F   0  0  0  0  0  0  0  0  0  0  0  0
   -4.7313    6.0753  -22.3390 C   0  0  0  0  0  0  0  0  0  0  0  0
   -4.3187    4.7128  -22.6344 O   0  0  0  0  0  0  0  0  0  0  0  0
   -3.3533    4.8235  -21.5425 C   0  0  0  0  0  0  0  0  0  0  0  0
   -6.2687    4.8685  -17.6844 C   0  0  0  0  0  0  0  0  0  0  0  0
   -7.4047    4.3439  -18.3010 C   0  0  0  0  0  0  0  0  0  0  0  0
   -7.3495    4.0064  -19.5969 F   0  0  0  0  0  0  0  0  0  0  0  0
   -8.5852    4.1363  -17.5903 C   0  0  0  0  0  0  0  0  0  0  0  0
  -10.0247    3.6663  -18.4012 Cl  0  0  0  0  0  0  0  0  0  0  0  0
   -8.6537    4.3727  -16.2157 C   0  0  0  0  0  0  0  0  0  0  0  0
   -7.5358    4.9115  -15.5632 C   0  0  0  0  0  0  0  0  0  0  0  0
   -7.2880    5.3364  -14.2293 C   0  0  0  0  0  0  0  0  0  0  0  0
   -6.0001    5.8172  -14.1795 C   0  0  0  0  0  0  0  0  0  0  0  0
   -5.4463    5.6591  -15.4228 N   0  0  0  0  0  0  0  0  0  0  0  0
   -6.3767    5.1453  -16.3031 C   0  0  0  0  0  0  0  0  0  0  0  0
  1  2  2  0
  2  3  1  0
  3  4  1  0
  4  5  1  0
  5  6  1  0
  6  7  2  0
  7  8  1  0
  8  9  2  0
  9 10  1  0
  9 11  1  0
 11 12  2  0
 12 13  1  0
  4 14  1  0
 14 15  1  0
 15 16  1  0
  2 17  1  0
 17 18  2  0
 18 19  1  0
 18 20  1  0
 20 21  1  0
 20 22  2  0
 22 23  1  0
 23 24  1  0
 24 25  2  0
 25 26  1  0
 26 27  1  0
 16  4  1  0
 27 17  1  0
 12  6  1  0
 27 23  2  0
M  END
>  <energy_score>  (1804) 
-53.02848

>  <alias>  (1804) 
None

>  <HIPPO Pose ID>  (1804) 
72525

>  <smiles>  (1804) 
O=C(NC1(Cc2ccc(F)cc2F)COC1)c1c(F)c(Cl)cc2cc[nH]c12

>  <inchikey>  (1804) 
APJJTQKATZMACK-UHFFFAOYSA-N

>  <distance_score>  (1804) 
1.034212

>  <ref_mols>  (1804) 
Z0827a,Z0101a

>  <ref_pdb>  (1804) 
Z0101a

>  <HIPPO Compound ID>  (1804) 
145876

>  <name>  (1804) 
P72525

>  <inspiration_score>  (1804) 
None

$$$$
P72534
     RDKit          3D

 28 30  0  0  0  0  0  0  0  0999 V2000
   -3.4106    6.4989  -24.4534 C   0  0  0  0  0  0  0  0  0  0  0  0
   -3.1335    6.7597  -23.0777 O   0  0  0  0  0  0  0  0  0  0  0  0
   -3.8582    6.0069  -22.1990 C   0  0  0  0  0  0  0  0  0  0  0  0
   -4.6846    5.1626  -22.5339 O   0  0  0  0  0  0  0  0  0  0  0  0
   -3.4625    6.3236  -20.7338 C   0  0  2  0  0  0  0  0  0  0  0  0
   -3.4396    7.8374  -20.5259 C   0  0  0  0  0  0  0  0  0  0  0  0
   -2.1545    5.5527  -20.4364 C   0  0  0  0  0  0  0  0  0  0  0  0
   -0.9235    6.3906  -20.1636 C   0  0  0  0  0  0  0  0  0  0  0  0
   -0.0804    6.7843  -21.2140 C   0  0  0  0  0  0  0  0  0  0  0  0
    1.0536    7.5549  -20.9563 C   0  0  0  0  0  0  0  0  0  0  0  0
    1.3425    7.9333  -19.6509 C   0  0  0  0  0  0  0  0  0  0  0  0
    2.4321    8.6727  -19.4042 F   0  0  0  0  0  0  0  0  0  0  0  0
    0.5205    7.5541  -18.5968 C   0  0  0  0  0  0  0  0  0  0  0  0
   -0.6125    6.7816  -18.8520 C   0  0  0  0  0  0  0  0  0  0  0  0
   -4.5243    5.8025  -19.8804 N   0  0  0  0  0  0  0  0  0  0  0  0
   -4.5873    5.6351  -18.3464 C   0  0  0  0  0  0  0  0  0  0  0  0
   -3.7713    5.8159  -17.5318 O   0  0  0  0  0  0  0  0  0  0  0  0
   -5.9108    5.1105  -17.9072 C   0  0  0  0  0  0  0  0  0  0  0  0
   -6.7574    4.4361  -18.7842 C   0  0  0  0  0  0  0  0  0  0  0  0
   -8.0206    4.0443  -18.4010 C   0  0  0  0  0  0  0  0  0  0  0  0
   -8.4709    4.2273  -17.0938 C   0  0  0  0  0  0  0  0  0  0  0  0
   -9.7322    3.8511  -16.7220 O   0  0  0  0  0  0  0  0  0  0  0  0
  -10.6622    3.9174  -17.8014 C   0  0  0  0  0  0  0  0  0  0  0  0
   -7.6029    4.8120  -16.1452 C   0  0  0  0  0  0  0  0  0  0  0  0
   -7.7027    5.1378  -14.7595 C   0  0  0  0  0  0  0  0  0  0  0  0
   -6.5297    5.7544  -14.3832 C   0  0  0  0  0  0  0  0  0  0  0  0
   -5.7137    5.8006  -15.4835 N   0  0  0  0  0  0  0  0  0  0  0  0
   -6.3471    5.2493  -16.5766 C   0  0  0  0  0  0  0  0  0  0  0  0
  1  2  1  0
  2  3  1  0
  3  4  2  0
  3  5  1  0
  5  6  1  6
  5  7  1  0
  7  8  1  0
  8  9  2  0
  9 10  1  0
 10 11  2  0
 11 12  1  0
 11 13  1  0
 13 14  2  0
  5 15  1  0
 15 16  1  0
 16 17  2  0
 16 18  1  0
 18 19  2  0
 19 20  1  0
 20 21  2  0
 21 22  1  0
 22 23  1  0
 21 24  1  0
 24 25  1  0
 25 26  2  0
 26 27  1  0
 27 28  1  0
 14  8  1  0
 28 18  1  0
 28 24  2  0
M  END
>  <energy_score>  (1805) 
-17.481596

>  <alias>  (1805) 
None

>  <HIPPO Pose ID>  (1805) 
72534

>  <smiles>  (1805) 
COC(=O)[C@](C)(Cc1ccc(F)cc1)NC(=O)c1ccc(OC)c2cc[nH]c12

>  <inchikey>  (1805) 
FPJPDQICLXOTGM-NRFANRHFSA-N

>  <distance_score>  (1805) 
1.259035

>  <ref_mols>  (1805) 
Z0827a,Z0101a

>  <ref_pdb>  (1805) 
Z0101a

>  <HIPPO Compound ID>  (1805) 
145881

>  <name>  (1805) 
P72534

>  <inspiration_score>  (1805) 
None

$$$$
P72537
     RDKit          3D

 28 31  0  0  0  0  0  0  0  0999 V2000
   -3.9897    5.4523  -15.6423 C   0  0  0  0  0  0  0  0  0  0  0  0
   -5.3837    5.1146  -15.4459 N   0  0  0  0  0  0  0  0  0  0  0  0
   -5.9546    5.0978  -14.1945 C   0  0  0  0  0  0  0  0  0  0  0  0
   -7.2998    4.8527  -14.3386 C   0  0  0  0  0  0  0  0  0  0  0  0
   -8.2793    4.8569  -13.2750 C   0  0  0  0  0  0  0  0  0  0  0  0
   -9.4348    5.2330  -13.4553 O   0  0  0  0  0  0  0  0  0  0  0  0
   -7.5368    4.6271  -15.7240 C   0  0  0  0  0  0  0  0  0  0  0  0
   -8.7053    4.2767  -16.4323 C   0  0  0  0  0  0  0  0  0  0  0  0
   -8.6688    4.0994  -17.8073 C   0  0  0  0  0  0  0  0  0  0  0  0
   -7.4694    4.2580  -18.4827 C   0  0  0  0  0  0  0  0  0  0  0  0
   -6.2746    4.6219  -17.8231 C   0  0  0  0  0  0  0  0  0  0  0  0
   -5.0167    4.7541  -18.6278 C   0  0  0  0  0  0  0  0  0  0  0  0
   -4.0100    4.3753  -18.1816 O   0  0  0  0  0  0  0  0  0  0  0  0
   -5.3166    5.4413  -19.9757 N   0  0  0  0  0  0  0  0  0  0  0  0
   -4.4047    5.9021  -21.0405 C   0  0  0  0  0  0  0  0  0  0  0  0
   -4.1776    7.4024  -20.8468 C   0  0  0  0  0  0  0  0  0  0  0  0
   -3.3705    8.0771  -21.9299 C   0  0  0  0  0  0  0  0  0  0  0  0
   -3.9862    8.5737  -23.0893 C   0  0  0  0  0  0  0  0  0  0  0  0
   -3.2219    9.1877  -24.0838 C   0  0  0  0  0  0  0  0  0  0  0  0
   -1.8464    9.3143  -23.9178 C   0  0  0  0  0  0  0  0  0  0  0  0
   -1.1210    9.9082  -24.8744 F   0  0  0  0  0  0  0  0  0  0  0  0
   -1.2177    8.8454  -22.7749 C   0  0  0  0  0  0  0  0  0  0  0  0
   -1.9848    8.2352  -21.7904 C   0  0  0  0  0  0  0  0  0  0  0  0
   -1.3760    7.8057  -20.6761 F   0  0  0  0  0  0  0  0  0  0  0  0
   -3.1697    5.0034  -21.3082 C   0  0  0  0  0  0  0  0  0  0  0  0
   -3.5422    4.8799  -22.7177 O   0  0  0  0  0  0  0  0  0  0  0  0
   -4.8669    5.3584  -22.4109 C   0  0  0  0  0  0  0  0  0  0  0  0
   -6.3227    4.7936  -16.4149 C   0  0  0  0  0  0  0  0  0  0  0  0
  1  2  1  0
  2  3  1  0
  3  4  2  0
  4  5  1  0
  5  6  2  0
  4  7  1  0
  7  8  2  0
  8  9  1  0
  9 10  2  0
 10 11  1  0
 11 12  1  0
 12 13  2  0
 12 14  1  0
 14 15  1  0
 15 16  1  0
 16 17  1  0
 17 18  2  0
 18 19  1  0
 19 20  2  0
 20 21  1  0
 20 22  1  0
 22 23  2  0
 23 24  1  0
 15 25  1  0
 25 26  1  0
 26 27  1  0
 11 28  2  0
 28  2  1  0
 28  7  1  0
 27 15  1  0
 23 17  1  0
M  END
>  <energy_score>  (1806) 
-21.106011

>  <alias>  (1806) 
None

>  <HIPPO Pose ID>  (1806) 
72537

>  <smiles>  (1806) 
Cn1cc(C=O)c2cccc(C(=O)NC3(Cc4ccc(F)cc4F)COC3)c21

>  <inchikey>  (1806) 
SKFJNIBLOSGDNE-UHFFFAOYSA-N

>  <distance_score>  (1806) 
0.97584

>  <ref_mols>  (1806) 
Z0101a,Z0827a

>  <ref_pdb>  (1806) 
Z0101a

>  <HIPPO Compound ID>  (1806) 
145883

>  <name>  (1806) 
P72537

>  <inspiration_score>  (1806) 
None

$$$$
P72539
     RDKit          3D

 28 31  0  0  0  0  0  0  0  0999 V2000
   -4.1278    4.8366  -15.0773 C   0  0  0  0  0  0  0  0  0  0  0  0
   -4.9466    5.7341  -15.8316 O   0  0  0  0  0  0  0  0  0  0  0  0
   -6.1695    5.1640  -16.1050 C   0  0  0  0  0  0  0  0  0  0  0  0
   -7.0862    5.0689  -15.0616 C   0  0  0  0  0  0  0  0  0  0  0  0
   -8.3702    4.6134  -15.3103 C   0  0  0  0  0  0  0  0  0  0  0  0
   -8.7636    4.3697  -16.6342 C   0  0  0  0  0  0  0  0  0  0  0  0
  -10.0198    4.0401  -17.1829 C   0  0  0  0  0  0  0  0  0  0  0  0
   -9.9120    4.1228  -18.5288 C   0  0  0  0  0  0  0  0  0  0  0  0
   -8.5755    4.1404  -18.8024 N   0  0  0  0  0  0  0  0  0  0  0  0
   -8.1701    3.5785  -20.0443 C   0  0  0  0  0  0  0  0  0  0  0  0
   -7.8359    4.4765  -17.6948 C   0  0  0  0  0  0  0  0  0  0  0  0
   -6.4833    4.8095  -17.4386 C   0  0  0  0  0  0  0  0  0  0  0  0
   -5.3404    4.7687  -18.4063 C   0  0  0  0  0  0  0  0  0  0  0  0
   -4.3920    4.1783  -18.0730 O   0  0  0  0  0  0  0  0  0  0  0  0
   -5.5954    5.6179  -19.6635 N   0  0  0  0  0  0  0  0  0  0  0  0
   -4.6785    6.0112  -20.7657 C   0  0  0  0  0  0  0  0  0  0  0  0
   -4.3689    7.5037  -20.6193 C   0  0  0  0  0  0  0  0  0  0  0  0
   -3.7056    8.1458  -21.8150 C   0  0  0  0  0  0  0  0  0  0  0  0
   -2.3081    8.1946  -21.9269 C   0  0  0  0  0  0  0  0  0  0  0  0
   -1.7099    8.7845  -23.0425 C   0  0  0  0  0  0  0  0  0  0  0  0
   -2.5054    9.3317  -24.0431 C   0  0  0  0  0  0  0  0  0  0  0  0
   -1.9265    9.8994  -25.1092 F   0  0  0  0  0  0  0  0  0  0  0  0
   -3.8885    9.3052  -23.9514 C   0  0  0  0  0  0  0  0  0  0  0  0
   -4.4752    8.7155  -22.8386 C   0  0  0  0  0  0  0  0  0  0  0  0
   -5.8133    8.7024  -22.7510 F   0  0  0  0  0  0  0  0  0  0  0  0
   -3.4268    5.1060  -20.9586 C   0  0  0  0  0  0  0  0  0  0  0  0
   -3.7233    4.9742  -22.3848 O   0  0  0  0  0  0  0  0  0  0  0  0
   -5.0814    5.3950  -22.1271 C   0  0  0  0  0  0  0  0  0  0  0  0
  1  2  1  0
  2  3  1  0
  3  4  2  0
  4  5  1  0
  5  6  2  0
  6  7  1  0
  7  8  2  0
  8  9  1  0
  9 10  1  0
  9 11  1  0
 11 12  2  0
 12 13  1  0
 13 14  2  0
 13 15  1  0
 15 16  1  0
 16 17  1  0
 17 18  1  0
 18 19  2  0
 19 20  1  0
 20 21  2  0
 21 22  1  0
 21 23  1  0
 23 24  2  0
 24 25  1  0
 16 26  1  0
 26 27  1  0
 27 28  1  0
 12  3  1  0
 28 16  1  0
 11  6  1  0
 24 18  1  0
M  END
>  <energy_score>  (1807) 
-8.40534

>  <alias>  (1807) 
None

>  <HIPPO Pose ID>  (1807) 
72539

>  <smiles>  (1807) 
COc1ccc2ccn(C)c2c1C(=O)NC1(Cc2ccc(F)cc2F)COC1

>  <inchikey>  (1807) 
KRSPNHLWKWLJKH-UHFFFAOYSA-N

>  <distance_score>  (1807) 
1.185189

>  <ref_mols>  (1807) 
Z0827a,Z0101a

>  <ref_pdb>  (1807) 
Z0101a

>  <HIPPO Compound ID>  (1807) 
145885

>  <name>  (1807) 
P72539

>  <inspiration_score>  (1807) 
None

$$$$
P72540
     RDKit          3D

 28 31  0  0  0  0  0  0  0  0999 V2000
   -9.1225    3.9273  -15.2891 C   0  0  0  0  0  0  0  0  0  0  0  0
   -8.1014    4.5271  -16.1715 C   0  0  0  0  0  0  0  0  0  0  0  0
   -8.1374    4.2550  -17.5453 C   0  0  0  0  0  0  0  0  0  0  0  0
   -7.0895    4.6376  -18.3701 C   0  0  0  0  0  0  0  0  0  0  0  0
   -5.9872    5.3399  -17.8617 C   0  0  0  0  0  0  0  0  0  0  0  0
   -4.7819    5.7230  -18.6669 C   0  0  0  0  0  0  0  0  0  0  0  0
   -3.8034    5.9378  -18.0678 O   0  0  0  0  0  0  0  0  0  0  0  0
   -5.0448    5.7279  -20.1871 N   0  0  0  0  0  0  0  0  0  0  0  0
   -4.1598    6.1004  -21.3156 C   0  0  0  0  0  0  0  0  0  0  0  0
   -3.6698    7.5239  -21.0709 C   0  0  0  0  0  0  0  0  0  0  0  0
   -2.8704    8.1182  -22.2055 C   0  0  0  0  0  0  0  0  0  0  0  0
   -3.5007    8.8466  -23.2268 C   0  0  0  0  0  0  0  0  0  0  0  0
   -2.7476    9.3871  -24.2711 C   0  0  0  0  0  0  0  0  0  0  0  0
   -1.3679    9.2074  -24.2923 C   0  0  0  0  0  0  0  0  0  0  0  0
   -0.6529    9.7296  -25.2971 F   0  0  0  0  0  0  0  0  0  0  0  0
   -0.7227    8.5011  -23.2889 C   0  0  0  0  0  0  0  0  0  0  0  0
   -1.4784    7.9663  -22.2533 C   0  0  0  0  0  0  0  0  0  0  0  0
   -0.8500    7.2950  -21.2790 F   0  0  0  0  0  0  0  0  0  0  0  0
   -3.1570    4.9515  -21.6256 C   0  0  0  0  0  0  0  0  0  0  0  0
   -4.0841    4.4121  -22.6274 O   0  0  0  0  0  0  0  0  0  0  0  0
   -4.7370    5.7041  -22.6941 C   0  0  0  0  0  0  0  0  0  0  0  0
   -5.9957    5.6255  -16.4777 C   0  0  0  0  0  0  0  0  0  0  0  0
   -5.0477    6.2523  -15.6942 N   0  0  0  0  0  0  0  0  0  0  0  0
   -5.4607    6.3147  -14.3890 C   0  0  0  0  0  0  0  0  0  0  0  0
   -6.6707    5.6624  -14.3000 C   0  0  0  0  0  0  0  0  0  0  0  0
   -7.3949    5.4674  -13.0767 C   0  0  0  0  0  0  0  0  0  0  0  0
   -7.9633    5.3730  -12.0686 N   0  0  0  0  0  0  0  0  0  0  0  0
   -7.0226    5.2417  -15.6213 C   0  0  0  0  0  0  0  0  0  0  0  0
  1  2  1  0
  2  3  2  0
  3  4  1  0
  4  5  2  0
  5  6  1  0
  6  7  2  0
  6  8  1  0
  8  9  1  0
  9 10  1  0
 10 11  1  0
 11 12  2  0
 12 13  1  0
 13 14  2  0
 14 15  1  0
 14 16  1  0
 16 17  2  0
 17 18  1  0
  9 19  1  0
 19 20  1  0
 20 21  1  0
  5 22  1  0
 22 23  1  0
 23 24  1  0
 24 25  2  0
 25 26  1  0
 26 27  3  0
 25 28  1  0
 28  2  1  0
 21  9  1  0
 28 22  2  0
 17 11  1  0
M  END
>  <energy_score>  (1808) 
-45.282616

>  <alias>  (1808) 
None

>  <HIPPO Pose ID>  (1808) 
72540

>  <smiles>  (1808) 
Cc1ccc(C(=O)NC2(Cc3ccc(F)cc3F)COC2)c2[nH]cc(C#N)c12

>  <inchikey>  (1808) 
DMTPQVYUNGHOBH-UHFFFAOYSA-N

>  <distance_score>  (1808) 
1.143642

>  <ref_mols>  (1808) 
Z0101a,Z0827a

>  <ref_pdb>  (1808) 
Z0101a

>  <HIPPO Compound ID>  (1808) 
145886

>  <name>  (1808) 
P72540

>  <inspiration_score>  (1808) 
None

$$$$
P72546
     RDKit          3D

 29 31  0  0  0  0  0  0  0  0999 V2000
   -4.9436    6.7769  -23.5503 C   0  0  0  0  0  0  0  0  0  0  0  0
   -4.5987    7.1305  -22.2110 O   0  0  0  0  0  0  0  0  0  0  0  0
   -4.2527    6.0728  -21.4167 C   0  0  0  0  0  0  0  0  0  0  0  0
   -4.2839    4.9066  -21.7999 O   0  0  0  0  0  0  0  0  0  0  0  0
   -3.8549    6.5334  -19.9828 C   0  0  2  0  0  0  0  0  0  0  0  0
   -3.8445    8.0611  -19.8667 C   0  0  0  0  0  0  0  0  0  0  0  0
   -2.4546    5.9188  -19.6904 C   0  0  0  0  0  0  0  0  0  0  0  0
   -1.2894    6.6238  -20.3653 C   0  0  0  0  0  0  0  0  0  0  0  0
   -0.9946    6.4019  -21.7180 C   0  0  0  0  0  0  0  0  0  0  0  0
    0.0668    7.0700  -22.3310 C   0  0  0  0  0  0  0  0  0  0  0  0
    0.8327    7.9629  -21.5934 C   0  0  0  0  0  0  0  0  0  0  0  0
    1.8507    8.6046  -22.1819 F   0  0  0  0  0  0  0  0  0  0  0  0
    0.5620    8.1967  -20.2514 C   0  0  0  0  0  0  0  0  0  0  0  0
   -0.4960    7.5264  -19.6363 C   0  0  0  0  0  0  0  0  0  0  0  0
   -4.8758    6.0639  -19.0160 N   0  0  0  0  0  0  0  0  0  0  0  0
   -4.7655    5.0586  -17.8509 C   0  0  0  0  0  0  0  0  0  0  0  0
   -3.8746    4.3844  -17.5161 O   0  0  0  0  0  0  0  0  0  0  0  0
   -6.0585    4.9505  -17.1097 C   0  0  0  0  0  0  0  0  0  0  0  0
   -6.0864    5.2138  -15.7361 C   0  0  0  0  0  0  0  0  0  0  0  0
   -4.9820    5.7733  -15.1480 O   0  0  0  0  0  0  0  0  0  0  0  0
   -4.3188    4.8088  -14.3269 C   0  0  0  0  0  0  0  0  0  0  0  0
   -7.2380    5.0246  -14.9746 C   0  0  0  0  0  0  0  0  0  0  0  0
   -8.4127    4.5727  -15.5742 C   0  0  0  0  0  0  0  0  0  0  0  0
   -8.4426    4.3534  -16.9613 C   0  0  0  0  0  0  0  0  0  0  0  0
   -9.4863    4.0081  -17.8627 C   0  0  0  0  0  0  0  0  0  0  0  0
   -8.9242    3.9254  -19.1096 C   0  0  0  0  0  0  0  0  0  0  0  0
   -7.5777    4.1352  -18.9835 N   0  0  0  0  0  0  0  0  0  0  0  0
   -6.6149    3.8950  -20.0221 C   0  0  0  0  0  0  0  0  0  0  0  0
   -7.2650    4.5256  -17.7041 C   0  0  0  0  0  0  0  0  0  0  0  0
  1  2  1  0
  2  3  1  0
  3  4  2  0
  3  5  1  0
  5  6  1  6
  5  7  1  0
  7  8  1  0
  8  9  2  0
  9 10  1  0
 10 11  2  0
 11 12  1  0
 11 13  1  0
 13 14  2  0
  5 15  1  0
 15 16  1  0
 16 17  2  0
 16 18  1  0
 18 19  2  0
 19 20  1  0
 20 21  1  0
 19 22  1  0
 22 23  2  0
 23 24  1  0
 24 25  1  0
 25 26  2  0
 26 27  1  0
 27 28  1  0
 27 29  1  0
 14  8  1  0
 29 18  1  0
 29 24  2  0
M  END
>  <energy_score>  (1809) 
-24.055627

>  <alias>  (1809) 
None

>  <HIPPO Pose ID>  (1809) 
72546

>  <smiles>  (1809) 
COC(=O)[C@](C)(Cc1ccc(F)cc1)NC(=O)c1c(OC)ccc2ccn(C)c12

>  <inchikey>  (1809) 
NYMZZSOQSFAJEA-QFIPXVFZSA-N

>  <distance_score>  (1809) 
1.229683

>  <ref_mols>  (1809) 
Z0827a,Z0101a

>  <ref_pdb>  (1809) 
Z0101a

>  <HIPPO Compound ID>  (1809) 
145890

>  <name>  (1809) 
P72546

>  <inspiration_score>  (1809) 
None

$$$$
P72553
     RDKit          3D

 29 33  0  0  0  0  0  0  0  0999 V2000
   -4.2502    4.9595  -17.8298 O   0  0  0  0  0  0  0  0  0  0  0  0
   -5.2405    5.0773  -18.4357 C   0  0  0  0  0  0  0  0  0  0  0  0
   -5.4701    5.4763  -19.9084 N   0  0  0  0  0  0  0  0  0  0  0  0
   -4.5128    5.9168  -20.9438 C   0  0  0  0  0  0  0  0  0  0  0  0
   -4.2936    7.4213  -20.7808 C   0  0  0  0  0  0  0  0  0  0  0  0
   -3.5490    8.0885  -21.9124 C   0  0  0  0  0  0  0  0  0  0  0  0
   -4.2315    8.5608  -23.0449 C   0  0  0  0  0  0  0  0  0  0  0  0
   -3.5289    9.1688  -24.0872 C   0  0  0  0  0  0  0  0  0  0  0  0
   -2.1483    9.3141  -23.9957 C   0  0  0  0  0  0  0  0  0  0  0  0
   -1.4819    9.9020  -24.9979 F   0  0  0  0  0  0  0  0  0  0  0  0
   -1.4545    8.8700  -22.8808 C   0  0  0  0  0  0  0  0  0  0  0  0
   -2.1605    8.2655  -21.8482 C   0  0  0  0  0  0  0  0  0  0  0  0
   -1.4881    7.8639  -20.7606 F   0  0  0  0  0  0  0  0  0  0  0  0
   -3.2489    5.0336  -21.1007 C   0  0  0  0  0  0  0  0  0  0  0  0
   -3.5508    4.8074  -22.5118 O   0  0  0  0  0  0  0  0  0  0  0  0
   -4.8860    5.3091  -22.3163 C   0  0  0  0  0  0  0  0  0  0  0  0
   -6.5351    4.8123  -17.7196 C   0  0  0  0  0  0  0  0  0  0  0  0
   -7.6954    4.3120  -18.3390 C   0  0  0  0  0  0  0  0  0  0  0  0
   -8.8562    4.0541  -17.6117 C   0  0  0  0  0  0  0  0  0  0  0  0
   -8.8915    4.2871  -16.2372 C   0  0  0  0  0  0  0  0  0  0  0  0
   -7.7631    4.8076  -15.5835 C   0  0  0  0  0  0  0  0  0  0  0  0
   -7.4797    5.1773  -14.2424 C   0  0  0  0  0  0  0  0  0  0  0  0
   -6.1462    5.5024  -14.1777 C   0  0  0  0  0  0  0  0  0  0  0  0
   -5.6265    5.4382  -15.4407 N   0  0  0  0  0  0  0  0  0  0  0  0
   -6.6044    5.0311  -16.3294 C   0  0  0  0  0  0  0  0  0  0  0  0
   -5.3919    5.8646  -12.9483 C   0  0  0  0  0  0  0  0  0  0  0  0
   -6.1925    5.4715  -11.7004 C   0  0  0  0  0  0  0  0  0  0  0  0
   -7.6652    5.8695  -11.8450 C   0  0  0  0  0  0  0  0  0  0  0  0
   -8.3443    5.1720  -13.0376 C   0  0  0  0  0  0  0  0  0  0  0  0
  1  2  2  0
  2  3  1  0
  3  4  1  0
  4  5  1  0
  5  6  1  0
  6  7  2  0
  7  8  1  0
  8  9  2  0
  9 10  1  0
  9 11  1  0
 11 12  2  0
 12 13  1  0
  4 14  1  0
 14 15  1  0
 15 16  1  0
  2 17  1  0
 17 18  2  0
 18 19  1  0
 19 20  2  0
 20 21  1  0
 21 22  1  0
 22 23  2  0
 23 24  1  0
 24 25  1  0
 23 26  1  0
 26 27  1  0
 27 28  1  0
 28 29  1  0
 16  4  1  0
 25 17  1  0
 12  6  1  0
 25 21  2  0
 29 22  1  0
M  END
>  <energy_score>  (1810) 
-37.532849

>  <alias>  (1810) 
None

>  <HIPPO Pose ID>  (1810) 
72553

>  <smiles>  (1810) 
O=C(NC1(Cc2ccc(F)cc2F)COC1)c1cccc2c3c([nH]c12)CCCC3

>  <inchikey>  (1810) 
CVGDDDWUQQIUNA-UHFFFAOYSA-N

>  <distance_score>  (1810) 
1.25571

>  <ref_mols>  (1810) 
Z0827a,Z0101a

>  <ref_pdb>  (1810) 
Z0101a

>  <HIPPO Compound ID>  (1810) 
145894

>  <name>  (1810) 
P72553

>  <inspiration_score>  (1810) 
None

$$$$
P72556
     RDKit          3D

 30 34  0  0  0  0  0  0  0  0999 V2000
   -4.1221    4.7720  -17.8599 O   0  0  0  0  0  0  0  0  0  0  0  0
   -5.0996    4.9480  -18.4751 C   0  0  0  0  0  0  0  0  0  0  0  0
   -5.2986    5.5172  -19.9004 N   0  0  0  0  0  0  0  0  0  0  0  0
   -4.3085    5.9081  -20.9236 C   0  0  0  0  0  0  0  0  0  0  0  0
   -3.9282    7.3826  -20.7869 C   0  0  0  0  0  0  0  0  0  0  0  0
   -3.3491    7.7147  -19.4312 C   0  0  0  0  0  0  0  0  0  0  0  0
   -4.1729    8.1694  -18.3884 C   0  0  0  0  0  0  0  0  0  0  0  0
   -3.6355    8.4217  -17.1250 C   0  0  0  0  0  0  0  0  0  0  0  0
   -2.2755    8.2279  -16.9052 C   0  0  0  0  0  0  0  0  0  0  0  0
   -1.7663    8.4717  -15.6904 F   0  0  0  0  0  0  0  0  0  0  0  0
   -1.4398    7.7931  -17.9229 C   0  0  0  0  0  0  0  0  0  0  0  0
   -1.9835    7.5412  -19.1764 C   0  0  0  0  0  0  0  0  0  0  0  0
   -1.1697    7.1389  -20.1620 F   0  0  0  0  0  0  0  0  0  0  0  0
   -3.1827    4.8779  -21.1801 C   0  0  0  0  0  0  0  0  0  0  0  0
   -3.8776    4.3742  -22.3624 O   0  0  0  0  0  0  0  0  0  0  0  0
   -4.7269    5.5387  -22.3610 C   0  0  0  0  0  0  0  0  0  0  0  0
   -6.4032    4.6897  -17.7867 C   0  0  0  0  0  0  0  0  0  0  0  0
   -7.5756    4.2997  -18.4490 C   0  0  0  0  0  0  0  0  0  0  0  0
   -8.7639    4.0984  -17.7509 C   0  0  0  0  0  0  0  0  0  0  0  0
   -8.8136    4.2885  -16.3671 C   0  0  0  0  0  0  0  0  0  0  0  0
   -7.6589    4.6841  -15.6670 C   0  0  0  0  0  0  0  0  0  0  0  0
   -7.3688    4.9719  -14.2974 C   0  0  0  0  0  0  0  0  0  0  0  0
   -6.0035    5.1225  -14.1954 C   0  0  0  0  0  0  0  0  0  0  0  0
   -5.4887    5.1250  -15.4683 N   0  0  0  0  0  0  0  0  0  0  0  0
   -6.4780    4.8442  -16.3872 C   0  0  0  0  0  0  0  0  0  0  0  0
   -5.1524    5.2079  -12.9763 C   0  0  0  0  0  0  0  0  0  0  0  0
   -5.5448    6.3379  -12.0346 C   0  0  0  0  0  0  0  0  0  0  0  0
   -6.8728    6.1187  -11.3193 C   0  0  0  0  0  0  0  0  0  0  0  0
   -8.0884    6.2179  -12.2364 C   0  0  0  0  0  0  0  0  0  0  0  0
   -8.3052    5.0090  -13.1483 C   0  0  0  0  0  0  0  0  0  0  0  0
  1  2  2  0
  2  3  1  0
  3  4  1  0
  4  5  1  0
  5  6  1  0
  6  7  2  0
  7  8  1  0
  8  9  2  0
  9 10  1  0
  9 11  1  0
 11 12  2  0
 12 13  1  0
  4 14  1  0
 14 15  1  0
 15 16  1  0
  2 17  1  0
 17 18  2  0
 18 19  1  0
 19 20  2  0
 20 21  1  0
 21 22  1  0
 22 23  2  0
 23 24  1  0
 24 25  1  0
 23 26  1  0
 26 27  1  0
 27 28  1  0
 28 29  1  0
 29 30  1  0
 16  4  1  0
 25 17  1  0
 12  6  1  0
 25 21  2  0
 30 22  1  0
M  END
>  <energy_score>  (1811) 
-49.048838

>  <alias>  (1811) 
None

>  <HIPPO Pose ID>  (1811) 
72556

>  <smiles>  (1811) 
O=C(NC1(Cc2ccc(F)cc2F)COC1)c1cccc2c3c([nH]c12)CCCCC3

>  <inchikey>  (1811) 
PIPDARMZYJWNKT-UHFFFAOYSA-N

>  <distance_score>  (1811) 
1.367038

>  <ref_mols>  (1811) 
Z0101a,Z0827a

>  <ref_pdb>  (1811) 
Z0101a

>  <HIPPO Compound ID>  (1811) 
145896

>  <name>  (1811) 
P72556

>  <inspiration_score>  (1811) 
None

$$$$
P72559
     RDKit          3D

 30 34  0  0  0  0  0  0  0  0999 V2000
   -7.9268    4.6160  -10.4234 C   0  0  0  0  0  0  0  0  0  0  0  0
   -7.4584    5.3455  -11.6812 C   0  0  1  0  0  0  0  0  0  0  0  0
   -5.9107    5.3419  -11.7321 C   0  0  0  0  0  0  0  0  0  0  0  0
   -5.3586    6.0843  -12.9595 C   0  0  0  0  0  0  0  0  0  0  0  0
   -6.0958    5.6451  -14.1686 C   0  0  0  0  0  0  0  0  0  0  0  0
   -5.6084    5.6659  -15.4443 N   0  0  0  0  0  0  0  0  0  0  0  0
   -6.5428    5.1346  -16.3116 C   0  0  0  0  0  0  0  0  0  0  0  0
   -6.4674    4.9192  -17.7007 C   0  0  0  0  0  0  0  0  0  0  0  0
   -5.1914    5.2371  -18.4172 C   0  0  0  0  0  0  0  0  0  0  0  0
   -4.2000    5.1945  -17.8033 O   0  0  0  0  0  0  0  0  0  0  0  0
   -5.4433    5.6515  -19.8809 N   0  0  0  0  0  0  0  0  0  0  0  0
   -4.5004    6.0163  -20.9437 C   0  0  0  0  0  0  0  0  0  0  0  0
   -4.2371    7.5222  -20.9914 C   0  0  0  0  0  0  0  0  0  0  0  0
   -3.7919    8.0837  -19.6594 C   0  0  0  0  0  0  0  0  0  0  0  0
   -2.4513    7.9949  -19.2550 C   0  0  0  0  0  0  0  0  0  0  0  0
   -2.0603    8.4688  -18.0008 C   0  0  0  0  0  0  0  0  0  0  0  0
   -3.0049    9.0345  -17.1521 C   0  0  0  0  0  0  0  0  0  0  0  0
   -2.6255    9.4846  -15.9489 F   0  0  0  0  0  0  0  0  0  0  0  0
   -4.3333    9.1459  -17.5328 C   0  0  0  0  0  0  0  0  0  0  0  0
   -4.7153    8.6731  -18.7825 C   0  0  0  0  0  0  0  0  0  0  0  0
   -6.0037    8.7928  -19.1403 F   0  0  0  0  0  0  0  0  0  0  0  0
   -3.2651    5.0991  -21.1126 C   0  0  0  0  0  0  0  0  0  0  0  0
   -3.5802    4.8949  -22.5239 O   0  0  0  0  0  0  0  0  0  0  0  0
   -4.9051    5.4172  -22.3062 C   0  0  0  0  0  0  0  0  0  0  0  0
   -7.5945    4.3586  -18.3218 C   0  0  0  0  0  0  0  0  0  0  0  0
   -8.7340    4.0309  -17.5892 C   0  0  0  0  0  0  0  0  0  0  0  0
   -8.7635    4.2123  -16.2043 C   0  0  0  0  0  0  0  0  0  0  0  0
   -7.6572    4.7802  -15.5493 C   0  0  0  0  0  0  0  0  0  0  0  0
   -7.3439    5.0610  -14.1898 C   0  0  0  0  0  0  0  0  0  0  0  0
   -8.0977    4.7174  -12.9472 C   0  0  0  0  0  0  0  0  0  0  0  0
  2  1  1  1
  2  3  1  0
  3  4  1  0
  4  5  1  0
  5  6  1  0
  6  7  1  0
  7  8  2  0
  8  9  1  0
  9 10  2  0
  9 11  1  0
 11 12  1  0
 12 13  1  0
 13 14  1  0
 14 15  2  0
 15 16  1  0
 16 17  2  0
 17 18  1  0
 17 19  1  0
 19 20  2  0
 20 21  1  0
 12 22  1  0
 22 23  1  0
 23 24  1  0
  8 25  1  0
 25 26  2  0
 26 27  1  0
 27 28  2  0
 28 29  1  0
 29 30  1  0
 30  2  1  0
 29  5  2  0
 28  7  1  0
 24 12  1  0
 20 14  1  0
M  END
>  <energy_score>  (1812) 
-1200.081113

>  <alias>  (1812) 
None

>  <HIPPO Pose ID>  (1812) 
72559

>  <smiles>  (1812) 
C[C@H]1CCc2[nH]c3c(C(=O)NC4(Cc5ccc(F)cc5F)COC4)cccc3c2C1

>  <inchikey>  (1812) 
JTVACIALKYSGGL-AWEZNQCLSA-N

>  <distance_score>  (1812) 
0.773772

>  <ref_mols>  (1812) 
Z0827a,Z0101a

>  <ref_pdb>  (1812) 
Z0101a

>  <HIPPO Compound ID>  (1812) 
145898

>  <name>  (1812) 
P72559

>  <inspiration_score>  (1812) 
None

$$$$
P72567
     RDKit          3D

 16 18  0  0  0  0  0  0  0  0999 V2000
   -3.5315    5.9382  -15.2726 C   0  0  0  0  0  0  0  0  0  0  0  0
   -4.6437    5.5455  -16.2003 C   0  0  0  0  0  0  0  0  0  0  0  0
   -5.9108    5.2537  -15.6811 C   0  0  0  0  0  0  0  0  0  0  0  0
   -6.9420    4.8616  -16.5396 C   0  0  0  0  0  0  0  0  0  0  0  0
   -8.2369    4.5503  -16.0891 C   0  0  0  0  0  0  0  0  0  0  0  0
   -9.2240    4.2057  -17.0080 C   0  0  0  0  0  0  0  0  0  0  0  0
   -8.9231    4.1545  -18.3595 C   0  0  0  0  0  0  0  0  0  0  0  0
   -7.6291    4.4140  -18.7911 C   0  0  0  0  0  0  0  0  0  0  0  0
   -6.6369    4.7795  -17.9089 C   0  0  0  0  0  0  0  0  0  0  0  0
   -5.4286    5.0505  -18.4089 N   0  0  0  0  0  0  0  0  0  0  0  0
   -4.4489    5.4391  -17.5847 C   0  0  0  0  0  0  0  0  0  0  0  0
   -3.1818    5.7472  -18.1264 N   0  0  0  0  0  0  0  0  0  0  0  0
   -2.9156    5.5241  -19.5452 C   0  0  2  0  0  0  0  0  0  0  0  0
   -1.8908    4.5091  -19.9701 C   0  0  0  0  0  0  0  0  0  0  0  0
   -1.6073    5.9741  -20.1473 C   0  0  2  0  0  0  0  0  0  0  0  0
   -0.5312    6.6153  -19.3402 C   0  0  0  0  0  0  0  0  0  0  0  0
  1  2  1  0
  2  3  2  0
  3  4  1  0
  4  5  2  0
  5  6  1  0
  6  7  2  0
  7  8  1  0
  8  9  2  0
  9 10  1  0
 10 11  2  0
 11 12  1  0
 13 12  1  1
 13 14  1  0
 14 15  1  0
 15 16  1  1
 11  2  1  0
 15 13  1  0
  9  4  1  0
M  END
>  <energy_score>  (1813) 
-16.500181

>  <alias>  (1813) 
None

>  <HIPPO Pose ID>  (1813) 
72567

>  <smiles>  (1813) 
Cc1cc2ccccc2nc1N[C@@H]1C[C@@H]1C

>  <inchikey>  (1813) 
KXGDWQYRZDLYNB-TVQRCGJNSA-N

>  <distance_score>  (1813) 
0.958592

>  <ref_mols>  (1813) 
Z1688a,Z0089a

>  <ref_pdb>  (1813) 
Z1688a

>  <HIPPO Compound ID>  (1813) 
145944

>  <name>  (1813) 
P72567

>  <inspiration_score>  (1813) 
None

$$$$
P72572
     RDKit          3D

 16 18  0  0  0  0  0  0  0  0999 V2000
   -5.0545    5.9524  -15.0440 C   0  0  0  0  0  0  0  0  0  0  0  0
   -5.4320    5.5818  -16.4453 C   0  0  0  0  0  0  0  0  0  0  0  0
   -4.5021    5.7347  -17.4694 C   0  0  0  0  0  0  0  0  0  0  0  0
   -4.8391    5.3712  -18.7661 C   0  0  0  0  0  0  0  0  0  0  0  0
   -3.9141    5.4491  -19.8132 N   0  0  0  0  0  0  0  0  0  0  0  0
   -2.5090    5.1782  -19.5469 C   0  0  1  0  0  0  0  0  0  0  0  0
   -1.4742    5.4544  -20.5929 C   0  0  0  0  0  0  0  0  0  0  0  0
   -1.5167    6.2967  -19.3482 C   0  0  1  0  0  0  0  0  0  0  0  0
   -1.9113    7.7314  -19.4425 C   0  0  0  0  0  0  0  0  0  0  0  0
   -6.0539    4.9226  -19.0939 N   0  0  0  0  0  0  0  0  0  0  0  0
   -6.9642    4.7796  -18.1269 C   0  0  0  0  0  0  0  0  0  0  0  0
   -8.2175    4.3249  -18.4796 C   0  0  0  0  0  0  0  0  0  0  0  0
   -9.2046    4.0978  -17.5263 C   0  0  0  0  0  0  0  0  0  0  0  0
   -8.9321    4.3127  -16.1894 C   0  0  0  0  0  0  0  0  0  0  0  0
   -7.6976    4.8082  -15.8122 C   0  0  0  0  0  0  0  0  0  0  0  0
   -6.6995    5.0636  -16.7707 C   0  0  0  0  0  0  0  0  0  0  0  0
  1  2  1  0
  2  3  2  0
  3  4  1  0
  4  5  1  0
  6  5  1  6
  6  7  1  0
  7  8  1  0
  8  9  1  6
  4 10  2  0
 10 11  1  0
 11 12  2  0
 12 13  1  0
 13 14  2  0
 14 15  1  0
 15 16  2  0
 16  2  1  0
  8  6  1  0
 16 11  1  0
M  END
>  <energy_score>  (1814) 
-22.750354

>  <alias>  (1814) 
None

>  <HIPPO Pose ID>  (1814) 
72572

>  <smiles>  (1814) 
Cc1cc(N[C@H]2C[C@H]2C)nc2ccccc12

>  <inchikey>  (1814) 
ACUHSFYAOBOFQO-MFKMUULPSA-N

>  <distance_score>  (1814) 
1.821226

>  <ref_mols>  (1814) 
Z1688a,Z0089a

>  <ref_pdb>  (1814) 
Z1688a

>  <HIPPO Compound ID>  (1814) 
145945

>  <name>  (1814) 
P72572

>  <inspiration_score>  (1814) 
None

$$$$
P72580
     RDKit          3D

 16 18  0  0  0  0  0  0  0  0999 V2000
   -0.5791    6.1839  -17.8853 C   0  0  0  0  0  0  0  0  0  0  0  0
   -1.1469    5.9244  -19.2381 C   0  0  1  0  0  0  0  0  0  0  0  0
   -1.7154    4.5704  -19.5692 C   0  0  0  0  0  0  0  0  0  0  0  0
   -2.6233    5.7633  -19.4789 C   0  0  1  0  0  0  0  0  0  0  0  0
   -3.5830    5.9035  -18.4072 N   0  0  0  0  0  0  0  0  0  0  0  0
   -4.8628    5.3578  -18.4105 C   0  0  0  0  0  0  0  0  0  0  0  0
   -5.4483    4.8851  -19.5651 C   0  0  0  0  0  0  0  0  0  0  0  0
   -6.7358    4.3992  -19.5084 C   0  0  0  0  0  0  0  0  0  0  0  0
   -7.4462    4.4690  -18.3250 C   0  0  0  0  0  0  0  0  0  0  0  0
   -8.7937    4.1019  -18.3176 C   0  0  0  0  0  0  0  0  0  0  0  0
   -9.5041    4.1218  -17.1332 C   0  0  0  0  0  0  0  0  0  0  0  0
   -8.8567    4.4660  -15.9550 C   0  0  0  0  0  0  0  0  0  0  0  0
   -7.5222    4.8685  -15.9841 C   0  0  0  0  0  0  0  0  0  0  0  0
   -6.9556    5.2390  -14.7897 O   0  0  0  0  0  0  0  0  0  0  0  0
   -6.7829    4.9148  -17.1689 C   0  0  0  0  0  0  0  0  0  0  0  0
   -5.5003    5.3512  -17.2226 N   0  0  0  0  0  0  0  0  0  0  0  0
  2  1  1  1
  2  3  1  0
  3  4  1  0
  4  5  1  1
  5  6  1  0
  6  7  2  0
  7  8  1  0
  8  9  2  0
  9 10  1  0
 10 11  2  0
 11 12  1  0
 12 13  2  0
 13 14  1  0
 13 15  1  0
 15 16  2  0
  4  2  1  0
 16  6  1  0
 15  9  1  0
M  END
>  <energy_score>  (1815) 
-14.346628

>  <alias>  (1815) 
None

>  <HIPPO Pose ID>  (1815) 
72580

>  <smiles>  (1815) 
C[C@H]1C[C@H]1Nc1ccc2cccc(O)c2n1

>  <inchikey>  (1815) 
JEOCWXQVHNYUOU-WCBMZHEXSA-N

>  <distance_score>  (1815) 
0.825483

>  <ref_mols>  (1815) 
Z1688a,Z0089a

>  <ref_pdb>  (1815) 
Z1688a

>  <HIPPO Compound ID>  (1815) 
145947

>  <name>  (1815) 
P72580

>  <inspiration_score>  (1815) 
None

$$$$
P72582
     RDKit          3D

 16 18  0  0  0  0  0  0  0  0999 V2000
  -10.5776    3.9933  -17.2049 O   0  0  0  0  0  0  0  0  0  0  0  0
   -9.2630    4.2047  -17.4547 C   0  0  0  0  0  0  0  0  0  0  0  0
   -8.8942    4.0761  -18.7766 C   0  0  0  0  0  0  0  0  0  0  0  0
   -7.5882    4.2864  -19.1526 C   0  0  0  0  0  0  0  0  0  0  0  0
   -6.6670    4.7178  -18.2452 C   0  0  0  0  0  0  0  0  0  0  0  0
   -5.4916    5.0305  -18.7642 N   0  0  0  0  0  0  0  0  0  0  0  0
   -4.5457    5.4991  -17.9653 C   0  0  0  0  0  0  0  0  0  0  0  0
   -3.4283    5.9218  -18.6692 N   0  0  0  0  0  0  0  0  0  0  0  0
   -2.0933    5.5417  -18.3711 C   0  0  0  0  0  0  0  0  0  0  0  0
   -1.4964    4.5611  -19.4131 C   0  0  0  0  0  0  0  0  0  0  0  0
   -0.2054    5.4067  -19.3424 C   0  0  0  0  0  0  0  0  0  0  0  0
   -1.0925    6.5902  -18.9071 C   0  0  0  0  0  0  0  0  0  0  0  0
   -4.7205    5.6177  -16.5958 C   0  0  0  0  0  0  0  0  0  0  0  0
   -5.9665    5.2880  -16.0435 C   0  0  0  0  0  0  0  0  0  0  0  0
   -7.0039    4.8460  -16.8851 C   0  0  0  0  0  0  0  0  0  0  0  0
   -8.3296    4.5530  -16.4820 C   0  0  0  0  0  0  0  0  0  0  0  0
  1  2  1  0
  2  3  2  0
  3  4  1  0
  4  5  2  0
  5  6  1  0
  6  7  2  0
  7  8  1  0
  8  9  1  0
  9 10  1  0
 10 11  1  0
 11 12  1  0
  7 13  1  0
 13 14  2  0
 14 15  1  0
 15 16  2  0
 16  2  1  0
 15  5  1  0
 12  9  1  0
M  END
>  <energy_score>  (1816) 
-14.572649

>  <alias>  (1816) 
None

>  <HIPPO Pose ID>  (1816) 
72582

>  <smiles>  (1816) 
Oc1ccc2nc(NC3CCC3)ccc2c1

>  <inchikey>  (1816) 
NOFVHCNMMCYYJP-UHFFFAOYSA-N

>  <distance_score>  (1816) 
0.940501

>  <ref_mols>  (1816) 
Z1688a,Z0089a

>  <ref_pdb>  (1816) 
Z1688a

>  <HIPPO Compound ID>  (1816) 
145950

>  <name>  (1816) 
P72582

>  <inspiration_score>  (1816) 
None

$$$$
P72585
     RDKit          3D

 16 18  0  0  0  0  0  0  0  0999 V2000
   -4.9109    5.9204  -15.1414 C   0  0  0  0  0  0  0  0  0  0  0  0
   -5.3232    5.5510  -16.5338 C   0  0  0  0  0  0  0  0  0  0  0  0
   -4.4128    5.6929  -17.5822 C   0  0  0  0  0  0  0  0  0  0  0  0
   -4.7845    5.3465  -18.8729 C   0  0  0  0  0  0  0  0  0  0  0  0
   -3.9212    5.4626  -19.9629 N   0  0  0  0  0  0  0  0  0  0  0  0
   -2.4641    5.5649  -19.8659 C   0  0  0  0  0  0  0  0  0  0  0  0
   -1.7444    4.2955  -19.4854 C   0  0  0  0  0  0  0  0  0  0  0  0
   -1.8411    6.8883  -19.4781 C   0  0  0  0  0  0  0  0  0  0  0  0
   -1.7687    6.4251  -20.9002 C   0  0  0  0  0  0  0  0  0  0  0  0
   -6.0129    4.8987  -19.1581 N   0  0  0  0  0  0  0  0  0  0  0  0
   -6.9047    4.7650  -18.1701 C   0  0  0  0  0  0  0  0  0  0  0  0
   -8.1728    4.3230  -18.4899 C   0  0  0  0  0  0  0  0  0  0  0  0
   -9.1468    4.1197  -17.5155 C   0  0  0  0  0  0  0  0  0  0  0  0
   -8.8494    4.3485  -16.1862 C   0  0  0  0  0  0  0  0  0  0  0  0
   -7.5964    4.8255  -15.8423 C   0  0  0  0  0  0  0  0  0  0  0  0
   -6.6092    5.0538  -16.8237 C   0  0  0  0  0  0  0  0  0  0  0  0
  1  2  1  0
  2  3  2  0
  3  4  1  0
  4  5  1  0
  5  6  1  0
  6  7  1  0
  6  8  1  0
  8  9  1  0
  4 10  2  0
 10 11  1  0
 11 12  2  0
 12 13  1  0
 13 14  2  0
 14 15  1  0
 15 16  2  0
 16  2  1  0
  9  6  1  0
 16 11  1  0
M  END
>  <energy_score>  (1817) 
-22.294342

>  <alias>  (1817) 
None

>  <HIPPO Pose ID>  (1817) 
72585

>  <smiles>  (1817) 
Cc1cc(NC2(C)CC2)nc2ccccc12

>  <inchikey>  (1817) 
WAEFQTACEHWSAY-UHFFFAOYSA-N

>  <distance_score>  (1817) 
1.892436

>  <ref_mols>  (1817) 
Z1688a,Z0089a

>  <ref_pdb>  (1817) 
Z1688a

>  <HIPPO Compound ID>  (1817) 
145953

>  <name>  (1817) 
P72585

>  <inspiration_score>  (1817) 
None

$$$$
P72589
     RDKit          3D

 17 19  0  0  0  0  0  0  0  0999 V2000
   -0.3275    6.1364  -18.4705 C   0  0  0  0  0  0  0  0  0  0  0  0
   -1.4722    6.0496  -19.4182 C   0  0  1  0  0  0  0  0  0  0  0  0
   -1.7088    4.7873  -20.1981 C   0  0  0  0  0  0  0  0  0  0  0  0
   -2.6717    5.1875  -19.1165 C   0  0  2  0  0  0  0  0  0  0  0  0
   -4.0050    5.6848  -19.4707 N   0  0  0  0  0  0  0  0  0  0  0  0
   -5.0539    5.5524  -18.5518 C   0  0  0  0  0  0  0  0  0  0  0  0
   -6.1351    4.9515  -19.0705 N   0  0  0  0  0  0  0  0  0  0  0  0
   -7.1858    4.7150  -18.2773 C   0  0  0  0  0  0  0  0  0  0  0  0
   -8.3095    4.1137  -18.7818 C   0  0  0  0  0  0  0  0  0  0  0  0
   -9.3732    3.7959  -17.9463 C   0  0  0  0  0  0  0  0  0  0  0  0
   -9.3217    4.0606  -16.5931 C   0  0  0  0  0  0  0  0  0  0  0  0
   -8.2419    4.7172  -16.0686 C   0  0  0  0  0  0  0  0  0  0  0  0
   -7.1971    5.0530  -16.9200 C   0  0  0  0  0  0  0  0  0  0  0  0
   -6.1175    5.7411  -16.4200 C   0  0  0  0  0  0  0  0  0  0  0  0
   -5.0102    5.9999  -17.2332 C   0  0  0  0  0  0  0  0  0  0  0  0
   -3.8929    6.7788  -16.6376 C   0  0  0  0  0  0  0  0  0  0  0  0
   -3.2327    5.8367  -15.0653 Br  0  0  0  0  0  0  0  0  0  0  0  0
  2  1  1  1
  2  3  1  0
  3  4  1  0
  4  5  1  6
  5  6  1  0
  6  7  2  0
  7  8  1  0
  8  9  2  0
  9 10  1  0
 10 11  2  0
 11 12  1  0
 12 13  2  0
 13 14  1  0
 14 15  2  0
 15 16  1  0
 16 17  1  0
  4  2  1  0
 15  6  1  0
 13  8  1  0
M  END
>  <energy_score>  (1818) 
-17.154335

>  <alias>  (1818) 
None

>  <HIPPO Pose ID>  (1818) 
72589

>  <smiles>  (1818) 
C[C@H]1C[C@@H]1Nc1nc2ccccc2cc1CBr

>  <inchikey>  (1818) 
DYSUJMCQYYMDSS-ZANVPECISA-N

>  <distance_score>  (1818) 
1.938687

>  <ref_mols>  (1818) 
Z1688a,Z0089a

>  <ref_pdb>  (1818) 
Z1688a

>  <HIPPO Compound ID>  (1818) 
145956

>  <name>  (1818) 
P72589

>  <inspiration_score>  (1818) 
None

$$$$
P72594
     RDKit          3D

 17 18  0  0  0  0  0  0  0  0999 V2000
   -1.5985    3.6086  -19.7662 C   0  0  0  0  0  0  0  0  0  0  0  0
   -1.3660    5.0858  -19.9858 C   0  0  0  0  0  0  0  0  0  0  0  0
   -2.3391    5.9411  -19.1728 C   0  0  1  0  0  0  0  0  0  0  0  0
   -2.1185    7.4397  -19.3608 C   0  0  0  0  0  0  0  0  0  0  0  0
   -2.4893    8.0661  -21.1712 Br  0  0  0  0  0  0  0  0  0  0  0  0
   -3.7134    5.5743  -19.4399 N   0  0  0  0  0  0  0  0  0  0  0  0
   -4.7043    5.4828  -18.5026 C   0  0  0  0  0  0  0  0  0  0  0  0
   -4.5284    5.8177  -17.1689 C   0  0  0  0  0  0  0  0  0  0  0  0
   -5.5559    5.6150  -16.2524 C   0  0  0  0  0  0  0  0  0  0  0  0
   -5.3343    5.9604  -14.8124 C   0  0  0  0  0  0  0  0  0  0  0  0
   -6.7626    5.0684  -16.7178 C   0  0  0  0  0  0  0  0  0  0  0  0
   -7.8449    4.7585  -15.8728 C   0  0  0  0  0  0  0  0  0  0  0  0
   -9.0118    4.2283  -16.3887 C   0  0  0  0  0  0  0  0  0  0  0  0
   -9.1301    4.0319  -17.7495 C   0  0  0  0  0  0  0  0  0  0  0  0
   -8.0592    4.3170  -18.5893 C   0  0  0  0  0  0  0  0  0  0  0  0
   -6.8701    4.8120  -18.0994 C   0  0  0  0  0  0  0  0  0  0  0  0
   -5.8667    5.0140  -18.9605 N   0  0  0  0  0  0  0  0  0  0  0  0
  1  2  1  0
  3  2  1  6
  3  4  1  0
  4  5  1  0
  3  6  1  0
  6  7  1  0
  7  8  2  0
  8  9  1  0
  9 10  1  0
  9 11  2  0
 11 12  1  0
 12 13  2  0
 13 14  1  0
 14 15  2  0
 15 16  1  0
 16 17  2  0
 17  7  1  0
 16 11  1  0
M  END
>  <energy_score>  (1819) 
-26.907437

>  <alias>  (1819) 
None

>  <HIPPO Pose ID>  (1819) 
72594

>  <smiles>  (1819) 
CC[C@@H](CBr)Nc1cc(C)c2ccccc2n1

>  <inchikey>  (1819) 
HPFHKXVRRXGJCB-NSHDSACASA-N

>  <distance_score>  (1819) 
1.931955

>  <ref_mols>  (1819) 
Z1688a,Z0089a

>  <ref_pdb>  (1819) 
Z1688a

>  <HIPPO Compound ID>  (1819) 
145958

>  <name>  (1819) 
P72594

>  <inspiration_score>  (1819) 
None

$$$$
P72596
     RDKit          3D

 17 18  0  0  0  0  0  0  0  0999 V2000
   -1.8142    4.5132  -20.6669 C   0  0  0  0  0  0  0  0  0  0  0  0
   -1.7778    4.5261  -19.1511 C   0  0  0  0  0  0  0  0  0  0  0  0
   -2.1765    5.8351  -18.4506 C   0  0  1  0  0  0  0  0  0  0  0  0
   -1.2525    7.0184  -18.7520 C   0  0  0  0  0  0  0  0  0  0  0  0
   -1.5607    7.9253  -20.4500 Br  0  0  0  0  0  0  0  0  0  0  0  0
   -3.5544    6.2122  -18.7118 N   0  0  0  0  0  0  0  0  0  0  0  0
   -4.5749    5.6566  -17.9813 C   0  0  0  0  0  0  0  0  0  0  0  0
   -4.7470    5.7822  -16.6122 C   0  0  0  0  0  0  0  0  0  0  0  0
   -5.9657    5.3838  -16.0453 C   0  0  0  0  0  0  0  0  0  0  0  0
   -6.9849    4.8839  -16.8751 C   0  0  0  0  0  0  0  0  0  0  0  0
   -8.3011    4.5672  -16.4620 C   0  0  0  0  0  0  0  0  0  0  0  0
   -9.2283    4.1817  -17.4252 C   0  0  0  0  0  0  0  0  0  0  0  0
  -10.5370    3.9506  -17.1645 O   0  0  0  0  0  0  0  0  0  0  0  0
   -8.8587    4.0327  -18.7451 C   0  0  0  0  0  0  0  0  0  0  0  0
   -7.5591    4.2690  -19.1308 C   0  0  0  0  0  0  0  0  0  0  0  0
   -6.6456    4.7381  -18.2329 C   0  0  0  0  0  0  0  0  0  0  0  0
   -5.4822    5.0881  -18.7583 N   0  0  0  0  0  0  0  0  0  0  0  0
  1  2  1  0
  3  2  1  6
  3  4  1  0
  4  5  1  0
  3  6  1  0
  6  7  1  0
  7  8  2  0
  8  9  1  0
  9 10  2  0
 10 11  1  0
 11 12  2  0
 12 13  1  0
 12 14  1  0
 14 15  2  0
 15 16  1  0
 16 17  2  0
 17  7  1  0
 16 10  1  0
M  END
>  <energy_score>  (1820) 
-13.890862

>  <alias>  (1820) 
None

>  <HIPPO Pose ID>  (1820) 
72596

>  <smiles>  (1820) 
CC[C@@H](CBr)Nc1ccc2cc(O)ccc2n1

>  <inchikey>  (1820) 
BQCHOVGAMVKTTI-JTQLQIEISA-N

>  <distance_score>  (1820) 
0.935707

>  <ref_mols>  (1820) 
Z1688a,Z0089a

>  <ref_pdb>  (1820) 
Z1688a

>  <HIPPO Compound ID>  (1820) 
145959

>  <name>  (1820) 
P72596

>  <inspiration_score>  (1820) 
None

$$$$
P72597
     RDKit          3D

 17 18  0  0  0  0  0  0  0  0999 V2000
   -1.2268    5.5044  -21.3825 C   0  0  0  0  0  0  0  0  0  0  0  0
   -1.8430    4.8855  -20.1334 C   0  0  0  0  0  0  0  0  0  0  0  0
   -2.7307    5.8844  -19.3690 C   0  0  2  0  0  0  0  0  0  0  0  0
   -1.9884    7.1025  -18.8117 C   0  0  0  0  0  0  0  0  0  0  0  0
   -0.6751    6.6420  -17.4447 Br  0  0  0  0  0  0  0  0  0  0  0  0
   -3.4300    5.1742  -18.3031 N   0  0  0  0  0  0  0  0  0  0  0  0
   -4.8042    5.0323  -18.3530 C   0  0  0  0  0  0  0  0  0  0  0  0
   -5.4503    4.6797  -19.5232 C   0  0  0  0  0  0  0  0  0  0  0  0
   -6.7896    4.3603  -19.4875 C   0  0  0  0  0  0  0  0  0  0  0  0
   -7.4822    4.4640  -18.3001 C   0  0  0  0  0  0  0  0  0  0  0  0
   -8.8452    4.1691  -18.2624 C   0  0  0  0  0  0  0  0  0  0  0  0
   -9.5179    4.2148  -17.0549 C   0  0  0  0  0  0  0  0  0  0  0  0
   -8.8350    4.5649  -15.8947 C   0  0  0  0  0  0  0  0  0  0  0  0
   -7.4890    4.8956  -15.9647 C   0  0  0  0  0  0  0  0  0  0  0  0
   -6.8684    5.2846  -14.8053 O   0  0  0  0  0  0  0  0  0  0  0  0
   -6.7713    4.8481  -17.1533 C   0  0  0  0  0  0  0  0  0  0  0  0
   -5.4485    5.1403  -17.1758 N   0  0  0  0  0  0  0  0  0  0  0  0
  1  2  1  0
  3  2  1  1
  3  4  1  0
  4  5  1  0
  3  6  1  0
  6  7  1  0
  7  8  2  0
  8  9  1  0
  9 10  2  0
 10 11  1  0
 11 12  2  0
 12 13  1  0
 13 14  2  0
 14 15  1  0
 14 16  1  0
 16 17  2  0
 17  7  1  0
 16 10  1  0
M  END
>  <energy_score>  (1821) 
-52.525742

>  <alias>  (1821) 
None

>  <HIPPO Pose ID>  (1821) 
72597

>  <smiles>  (1821) 
CC[C@H](CBr)Nc1ccc2cccc(O)c2n1

>  <inchikey>  (1821) 
VISWWJCGSWUBPB-SNVBAGLBSA-N

>  <distance_score>  (1821) 
0.950886

>  <ref_mols>  (1821) 
Z1688a,Z0089a

>  <ref_pdb>  (1821) 
Z1688a

>  <HIPPO Compound ID>  (1821) 
145960

>  <name>  (1821) 
P72597

>  <inspiration_score>  (1821) 
None

$$$$
P72601
     RDKit          3D

 17 19  0  0  0  0  0  0  0  0999 V2000
   -7.8300    5.2082  -13.5136 O   0  0  0  0  0  0  0  0  0  0  0  0
   -6.7189    5.1499  -14.0218 C   0  0  0  0  0  0  0  0  0  0  0  0
   -6.4170    5.0698  -15.4850 C   0  0  0  0  0  0  0  0  0  0  0  0
   -5.0923    5.3519  -15.8737 C   0  0  0  0  0  0  0  0  0  0  0  0
   -4.7425    5.3166  -17.2208 C   0  0  0  0  0  0  0  0  0  0  0  0
   -3.4283    5.6151  -17.6340 N   0  0  0  0  0  0  0  0  0  0  0  0
   -3.0394    5.6300  -19.0281 C   0  0  0  0  0  0  0  0  0  0  0  0
   -2.0460    4.4955  -19.3701 C   0  0  0  0  0  0  0  0  0  0  0  0
   -0.8939    5.4694  -19.0556 C   0  0  0  0  0  0  0  0  0  0  0  0
   -1.8836    6.6232  -19.3021 C   0  0  0  0  0  0  0  0  0  0  0  0
   -5.6304    4.9835  -18.1461 N   0  0  0  0  0  0  0  0  0  0  0  0
   -6.8858    4.7213  -17.7919 C   0  0  0  0  0  0  0  0  0  0  0  0
   -7.7314    4.4412  -18.8333 C   0  0  0  0  0  0  0  0  0  0  0  0
   -9.0834    4.2380  -18.6282 C   0  0  0  0  0  0  0  0  0  0  0  0
   -9.5881    4.2164  -17.3419 C   0  0  0  0  0  0  0  0  0  0  0  0
   -8.7372    4.4449  -16.2607 C   0  0  0  0  0  0  0  0  0  0  0  0
   -7.3703    4.7450  -16.4690 C   0  0  0  0  0  0  0  0  0  0  0  0
  1  2  2  0
  2  3  1  0
  3  4  2  0
  4  5  1  0
  5  6  1  0
  6  7  1  0
  7  8  1  0
  8  9  1  0
  9 10  1  0
  5 11  2  0
 11 12  1  0
 12 13  2  0
 13 14  1  0
 14 15  2  0
 15 16  1  0
 16 17  2  0
 17  3  1  0
 10  7  1  0
 17 12  1  0
M  END
>  <energy_score>  (1822) 
-10.709081

>  <alias>  (1822) 
None

>  <HIPPO Pose ID>  (1822) 
72601

>  <smiles>  (1822) 
O=Cc1cc(NC2CCC2)nc2ccccc12

>  <inchikey>  (1822) 
MVFRAIIPYHNUJP-UHFFFAOYSA-N

>  <distance_score>  (1822) 
1.074524

>  <ref_mols>  (1822) 
Z1688a,Z0089a

>  <ref_pdb>  (1822) 
Z1688a

>  <HIPPO Compound ID>  (1822) 
145965

>  <name>  (1822) 
P72601

>  <inspiration_score>  (1822) 
None

$$$$
P72604
     RDKit          3D

 17 19  0  0  0  0  0  0  0  0999 V2000
   -1.6031    6.9344  -20.6529 C   0  0  0  0  0  0  0  0  0  0  0  0
   -1.7366    6.0920  -19.4311 C   0  0  2  0  0  0  0  0  0  0  0  0
   -2.0654    4.6316  -19.5602 C   0  0  0  0  0  0  0  0  0  0  0  0
   -3.0903    5.5821  -19.0040 C   0  0  1  0  0  0  0  0  0  0  0  0
   -3.4285    5.5711  -17.5702 N   0  0  0  0  0  0  0  0  0  0  0  0
   -4.7582    5.2945  -17.1835 C   0  0  0  0  0  0  0  0  0  0  0  0
   -5.1193    5.3182  -15.8385 C   0  0  0  0  0  0  0  0  0  0  0  0
   -6.4493    5.0468  -15.4634 C   0  0  0  0  0  0  0  0  0  0  0  0
   -6.7613    5.1156  -14.0026 C   0  0  0  0  0  0  0  0  0  0  0  0
   -7.8752    5.2086  -13.5056 O   0  0  0  0  0  0  0  0  0  0  0  0
   -7.3972    4.7378  -16.4573 C   0  0  0  0  0  0  0  0  0  0  0  0
   -8.7657    4.4391  -16.2611 C   0  0  0  0  0  0  0  0  0  0  0  0
   -9.6097    4.2207  -17.3502 C   0  0  0  0  0  0  0  0  0  0  0  0
   -9.0965    4.2521  -18.6330 C   0  0  0  0  0  0  0  0  0  0  0  0
   -7.7428    4.4551  -18.8264 C   0  0  0  0  0  0  0  0  0  0  0  0
   -6.9045    4.7254  -17.7768 C   0  0  0  0  0  0  0  0  0  0  0  0
   -5.6467    4.9869  -18.1198 N   0  0  0  0  0  0  0  0  0  0  0  0
  2  1  1  6
  2  3  1  0
  3  4  1  0
  4  5  1  1
  5  6  1  0
  6  7  2  0
  7  8  1  0
  8  9  1  0
  9 10  2  0
  8 11  2  0
 11 12  1  0
 12 13  2  0
 13 14  1  0
 14 15  2  0
 15 16  1  0
 16 17  2  0
  4  2  1  0
 17  6  1  0
 16 11  1  0
M  END
>  <energy_score>  (1823) 
-12.270037

>  <alias>  (1823) 
None

>  <HIPPO Pose ID>  (1823) 
72604

>  <smiles>  (1823) 
C[C@@H]1C[C@H]1Nc1cc(C=O)c2ccccc2n1

>  <inchikey>  (1823) 
HUTAHOVOURZTQL-NOZJJQNGSA-N

>  <distance_score>  (1823) 
1.09523

>  <ref_mols>  (1823) 
Z1688a,Z0089a

>  <ref_pdb>  (1823) 
Z1688a

>  <HIPPO Compound ID>  (1823) 
145966

>  <name>  (1823) 
P72604

>  <inspiration_score>  (1823) 
None

$$$$
P72610
     RDKit          3D

 17 19  0  0  0  0  0  0  0  0999 V2000
   -2.0626    4.4646  -18.9033 C   0  0  0  0  0  0  0  0  0  0  0  0
   -2.3937    5.7728  -18.2227 C   0  0  0  0  0  0  0  0  0  0  0  0
   -3.7934    6.2125  -18.3711 N   0  0  0  0  0  0  0  0  0  0  0  0
   -4.8343    5.6355  -17.6375 C   0  0  0  0  0  0  0  0  0  0  0  0
   -5.0443    5.7796  -16.2660 C   0  0  0  0  0  0  0  0  0  0  0  0
   -6.2921    5.4132  -15.6926 C   0  0  0  0  0  0  0  0  0  0  0  0
   -6.5990    5.7813  -14.2604 C   0  0  0  0  0  0  0  0  0  0  0  0
   -6.8917    4.2635  -13.0918 Br  0  0  0  0  0  0  0  0  0  0  0  0
   -7.2736    4.8793  -16.5603 C   0  0  0  0  0  0  0  0  0  0  0  0
   -8.5970    4.5435  -16.2004 C   0  0  0  0  0  0  0  0  0  0  0  0
   -9.5166    4.1678  -17.1741 C   0  0  0  0  0  0  0  0  0  0  0  0
   -9.1248    4.0833  -18.4940 C   0  0  0  0  0  0  0  0  0  0  0  0
   -7.8157    4.3192  -18.8482 C   0  0  0  0  0  0  0  0  0  0  0  0
   -6.9097    4.7412  -17.9181 C   0  0  0  0  0  0  0  0  0  0  0  0
   -5.7409    5.0872  -18.4298 N   0  0  0  0  0  0  0  0  0  0  0  0
   -1.3561    6.8636  -18.3800 C   0  0  0  0  0  0  0  0  0  0  0  0
   -1.5637    6.2180  -17.0432 C   0  0  0  0  0  0  0  0  0  0  0  0
  1  2  1  0
  2  3  1  0
  3  4  1  0
  4  5  2  0
  5  6  1  0
  6  7  1  0
  7  8  1  0
  6  9  2  0
  9 10  1  0
 10 11  2  0
 11 12  1  0
 12 13  2  0
 13 14  1  0
 14 15  2  0
  2 16  1  0
 16 17  1  0
 17  2  1  0
 15  4  1  0
 14  9  1  0
M  END
>  <energy_score>  (1824) 
-33.783832

>  <alias>  (1824) 
None

>  <HIPPO Pose ID>  (1824) 
72610

>  <smiles>  (1824) 
CC1(Nc2cc(CBr)c3ccccc3n2)CC1

>  <inchikey>  (1824) 
CDNSOJVBONGZQF-UHFFFAOYSA-N

>  <distance_score>  (1824) 
1.042832

>  <ref_mols>  (1824) 
Z1688a,Z0089a

>  <ref_pdb>  (1824) 
Z1688a

>  <HIPPO Compound ID>  (1824) 
145968

>  <name>  (1824) 
P72610

>  <inspiration_score>  (1824) 
None

$$$$
P72612
     RDKit          3D

 17 19  0  0  0  0  0  0  0  0999 V2000
   -2.0307    4.4295  -18.9476 C   0  0  0  0  0  0  0  0  0  0  0  0
   -2.3871    5.7415  -18.2892 C   0  0  0  0  0  0  0  0  0  0  0  0
   -3.7974    6.1363  -18.4239 N   0  0  0  0  0  0  0  0  0  0  0  0
   -4.8255    5.5832  -17.6616 C   0  0  0  0  0  0  0  0  0  0  0  0
   -4.9366    5.6127  -16.2783 C   0  0  0  0  0  0  0  0  0  0  0  0
   -6.1567    5.2246  -15.6755 C   0  0  0  0  0  0  0  0  0  0  0  0
   -6.2659    5.3520  -14.1851 C   0  0  0  0  0  0  0  0  0  0  0  0
   -7.2776    5.2137  -13.5100 O   0  0  0  0  0  0  0  0  0  0  0  0
   -7.2239    4.7962  -16.4887 C   0  0  0  0  0  0  0  0  0  0  0  0
   -8.5165    4.4189  -16.0664 C   0  0  0  0  0  0  0  0  0  0  0  0
   -9.4948    4.1121  -17.0048 C   0  0  0  0  0  0  0  0  0  0  0  0
   -9.1999    4.1276  -18.3507 C   0  0  0  0  0  0  0  0  0  0  0  0
   -7.9181    4.4006  -18.7684 C   0  0  0  0  0  0  0  0  0  0  0  0
   -6.9548    4.7684  -17.8704 C   0  0  0  0  0  0  0  0  0  0  0  0
   -5.8112    5.1384  -18.4252 N   0  0  0  0  0  0  0  0  0  0  0  0
   -1.3832    6.8561  -18.4935 C   0  0  0  0  0  0  0  0  0  0  0  0
   -1.5461    6.2382  -17.1380 C   0  0  0  0  0  0  0  0  0  0  0  0
  1  2  1  0
  2  3  1  0
  3  4  1  0
  4  5  2  0
  5  6  1  0
  6  7  1  0
  7  8  2  0
  6  9  2  0
  9 10  1  0
 10 11  2  0
 11 12  1  0
 12 13  2  0
 13 14  1  0
 14 15  2  0
  2 16  1  0
 16 17  1  0
 17  2  1  0
 15  4  1  0
 14  9  1  0
M  END
>  <energy_score>  (1825) 
-13.691472

>  <alias>  (1825) 
None

>  <HIPPO Pose ID>  (1825) 
72612

>  <smiles>  (1825) 
CC1(Nc2cc(C=O)c3ccccc3n2)CC1

>  <inchikey>  (1825) 
BDSUIMHVJNNBCV-UHFFFAOYSA-N

>  <distance_score>  (1825) 
1.157409

>  <ref_mols>  (1825) 
Z1688a,Z0089a

>  <ref_pdb>  (1825) 
Z1688a

>  <HIPPO Compound ID>  (1825) 
145970

>  <name>  (1825) 
P72612

>  <inspiration_score>  (1825) 
None

$$$$
P72613
     RDKit          3D

 17 18  0  0  0  0  0  0  0  0999 V2000
   -3.7389    5.3317  -14.9431 C   0  0  0  0  0  0  0  0  0  0  0  0
   -4.8083    5.1486  -15.9801 C   0  0  0  0  0  0  0  0  0  0  0  0
   -6.1416    4.9562  -15.5729 C   0  0  0  0  0  0  0  0  0  0  0  0
   -7.1284    4.7202  -16.5304 C   0  0  0  0  0  0  0  0  0  0  0  0
   -8.4736    4.4675  -16.2063 C   0  0  0  0  0  0  0  0  0  0  0  0
   -9.4010    4.2499  -17.2229 C   0  0  0  0  0  0  0  0  0  0  0  0
   -8.9888    4.2653  -18.5457 C   0  0  0  0  0  0  0  0  0  0  0  0
   -7.6494    4.4632  -18.8512 C   0  0  0  0  0  0  0  0  0  0  0  0
   -6.7184    4.7154  -17.8727 C   0  0  0  0  0  0  0  0  0  0  0  0
   -5.4614    4.9334  -18.2653 N   0  0  0  0  0  0  0  0  0  0  0  0
   -4.5101    5.1437  -17.3539 C   0  0  0  0  0  0  0  0  0  0  0  0
   -3.1895    5.2751  -17.7914 N   0  0  0  0  0  0  0  0  0  0  0  0
   -2.9208    5.3356  -19.2336 C   0  0  2  0  0  0  0  0  0  0  0  0
   -1.7187    4.4153  -19.4863 C   0  0  0  0  0  0  0  0  0  0  0  0
   -2.6279    6.8017  -19.6601 C   0  0  0  0  0  0  0  0  0  0  0  0
   -2.1712    6.8978  -21.1214 C   0  0  0  0  0  0  0  0  0  0  0  0
   -3.8557    7.7044  -19.4747 C   0  0  0  0  0  0  0  0  0  0  0  0
  1  2  1  0
  2  3  2  0
  3  4  1  0
  4  5  2  0
  5  6  1  0
  6  7  2  0
  7  8  1  0
  8  9  2  0
  9 10  1  0
 10 11  2  0
 11 12  1  0
 12 13  1  0
 13 14  1  1
 13 15  1  0
 15 16  1  0
 15 17  1  0
 11  2  1  0
  9  4  1  0
M  END
>  <energy_score>  (1826) 
-24.37789

>  <alias>  (1826) 
None

>  <HIPPO Pose ID>  (1826) 
72613

>  <smiles>  (1826) 
Cc1cc2ccccc2nc1N[C@H](C)C(C)C

>  <inchikey>  (1826) 
ZSAVVVDGOKANRE-GFCCVEGCSA-N

>  <distance_score>  (1826) 
1.044967

>  <ref_mols>  (1826) 
Z1688a,Z0089a

>  <ref_pdb>  (1826) 
Z1688a

>  <HIPPO Compound ID>  (1826) 
145971

>  <name>  (1826) 
P72613

>  <inspiration_score>  (1826) 
None

$$$$
P72615
     RDKit          3D

 17 18  0  0  0  0  0  0  0  0999 V2000
   -5.2811    6.0595  -14.8869 C   0  0  0  0  0  0  0  0  0  0  0  0
   -5.5245    5.6540  -16.3077 C   0  0  0  0  0  0  0  0  0  0  0  0
   -4.5206    5.8395  -17.2530 C   0  0  0  0  0  0  0  0  0  0  0  0
   -4.7148    5.4273  -18.5623 C   0  0  0  0  0  0  0  0  0  0  0  0
   -3.7411    5.5106  -19.5273 N   0  0  0  0  0  0  0  0  0  0  0  0
   -2.3269    5.4996  -19.2053 C   0  0  1  0  0  0  0  0  0  0  0  0
   -1.6112    4.4549  -20.0514 C   0  0  0  0  0  0  0  0  0  0  0  0
   -1.7757    6.9385  -19.3658 C   0  0  0  0  0  0  0  0  0  0  0  0
   -1.7376    7.4168  -20.8213 C   0  0  0  0  0  0  0  0  0  0  0  0
   -0.3862    7.0846  -18.7369 C   0  0  0  0  0  0  0  0  0  0  0  0
   -5.8794    4.9287  -18.9822 N   0  0  0  0  0  0  0  0  0  0  0  0
   -6.8712    4.7749  -18.0993 C   0  0  0  0  0  0  0  0  0  0  0  0
   -8.0760    4.2839  -18.5540 C   0  0  0  0  0  0  0  0  0  0  0  0
   -9.1335    4.0342  -17.6863 C   0  0  0  0  0  0  0  0  0  0  0  0
   -8.9828    4.2603  -16.3328 C   0  0  0  0  0  0  0  0  0  0  0  0
   -7.8028    4.7987  -15.8554 C   0  0  0  0  0  0  0  0  0  0  0  0
   -6.7366    5.0809  -16.7297 C   0  0  0  0  0  0  0  0  0  0  0  0
  1  2  1  0
  2  3  2  0
  3  4  1  0
  4  5  1  0
  5  6  1  0
  6  7  1  6
  6  8  1  0
  8  9  1  0
  8 10  1  0
  4 11  2  0
 11 12  1  0
 12 13  2  0
 13 14  1  0
 14 15  2  0
 15 16  1  0
 16 17  2  0
 17  2  1  0
 17 12  1  0
M  END
>  <energy_score>  (1827) 
-47.982558

>  <alias>  (1827) 
None

>  <HIPPO Pose ID>  (1827) 
72615

>  <smiles>  (1827) 
Cc1cc(N[C@@H](C)C(C)C)nc2ccccc12

>  <inchikey>  (1827) 
MFXCXFZEDLLCCP-LBPRGKRZSA-N

>  <distance_score>  (1827) 
1.769499

>  <ref_mols>  (1827) 
Z1688a,Z0089a

>  <ref_pdb>  (1827) 
Z1688a

>  <HIPPO Compound ID>  (1827) 
145972

>  <name>  (1827) 
P72615

>  <inspiration_score>  (1827) 
None

$$$$
P72617
     RDKit          3D

 17 18  0  0  0  0  0  0  0  0999 V2000
   -1.2363    5.5619  -20.9127 C   0  0  0  0  0  0  0  0  0  0  0  0
   -1.0261    5.2156  -19.4315 C   0  0  0  0  0  0  0  0  0  0  0  0
    0.3484    5.7219  -18.9787 C   0  0  0  0  0  0  0  0  0  0  0  0
   -2.1480    5.7621  -18.5034 C   0  0  1  0  0  0  0  0  0  0  0  0
   -2.4979    7.2259  -18.7677 C   0  0  0  0  0  0  0  0  0  0  0  0
   -3.2999    4.9159  -18.6970 N   0  0  0  0  0  0  0  0  0  0  0  0
   -4.4630    5.0171  -17.9956 C   0  0  0  0  0  0  0  0  0  0  0  0
   -4.6338    5.2504  -16.6430 C   0  0  0  0  0  0  0  0  0  0  0  0
   -5.9252    5.1474  -16.0956 C   0  0  0  0  0  0  0  0  0  0  0  0
   -7.0111    4.7981  -16.9245 C   0  0  0  0  0  0  0  0  0  0  0  0
   -8.3547    4.5913  -16.5193 C   0  0  0  0  0  0  0  0  0  0  0  0
   -9.3083    4.2814  -17.4886 C   0  0  0  0  0  0  0  0  0  0  0  0
  -10.6245    4.0886  -17.2373 O   0  0  0  0  0  0  0  0  0  0  0  0
   -8.9584    4.1587  -18.8150 C   0  0  0  0  0  0  0  0  0  0  0  0
   -7.6442    4.2821  -19.1913 C   0  0  0  0  0  0  0  0  0  0  0  0
   -6.6919    4.6244  -18.2805 C   0  0  0  0  0  0  0  0  0  0  0  0
   -5.4831    4.7492  -18.7930 N   0  0  0  0  0  0  0  0  0  0  0  0
  1  2  1  0
  2  3  1  0
  2  4  1  0
  4  5  1  6
  4  6  1  0
  6  7  1  0
  7  8  2  0
  8  9  1  0
  9 10  2  0
 10 11  1  0
 11 12  2  0
 12 13  1  0
 12 14  1  0
 14 15  2  0
 15 16  1  0
 16 17  2  0
 17  7  1  0
 16 10  1  0
M  END
>  <energy_score>  (1828) 
-24.641887

>  <alias>  (1828) 
None

>  <HIPPO Pose ID>  (1828) 
72617

>  <smiles>  (1828) 
CC(C)[C@@H](C)Nc1ccc2cc(O)ccc2n1

>  <inchikey>  (1828) 
ZKBWJMCPGFPGDG-SNVBAGLBSA-N

>  <distance_score>  (1828) 
0.983051

>  <ref_mols>  (1828) 
Z1688a,Z0089a

>  <ref_pdb>  (1828) 
Z1688a

>  <HIPPO Compound ID>  (1828) 
145973

>  <name>  (1828) 
P72617

>  <inspiration_score>  (1828) 
None

$$$$
P72619
     RDKit          3D

 17 18  0  0  0  0  0  0  0  0999 V2000
   -1.2961    5.6967  -21.1298 C   0  0  0  0  0  0  0  0  0  0  0  0
   -1.4538    5.1239  -19.7126 C   0  0  0  0  0  0  0  0  0  0  0  0
   -0.1748    5.4237  -18.9203 C   0  0  0  0  0  0  0  0  0  0  0  0
   -2.7172    5.6410  -18.9646 C   0  0  1  0  0  0  0  0  0  0  0  0
   -2.6673    7.1416  -18.6699 C   0  0  0  0  0  0  0  0  0  0  0  0
   -3.9053    5.3660  -19.7671 N   0  0  0  0  0  0  0  0  0  0  0  0
   -5.0995    5.0631  -19.1028 C   0  0  0  0  0  0  0  0  0  0  0  0
   -6.1387    4.5657  -19.8772 C   0  0  0  0  0  0  0  0  0  0  0  0
   -7.3607    4.2513  -19.3079 C   0  0  0  0  0  0  0  0  0  0  0  0
   -7.5383    4.4820  -17.9625 C   0  0  0  0  0  0  0  0  0  0  0  0
   -8.7494    4.1725  -17.3515 C   0  0  0  0  0  0  0  0  0  0  0  0
   -8.8697    4.3586  -15.9831 C   0  0  0  0  0  0  0  0  0  0  0  0
   -7.8243    4.8963  -15.2396 C   0  0  0  0  0  0  0  0  0  0  0  0
   -6.6400    5.2273  -15.8823 C   0  0  0  0  0  0  0  0  0  0  0  0
   -5.6109    5.7722  -15.1527 O   0  0  0  0  0  0  0  0  0  0  0  0
   -6.4545    5.0120  -17.2381 C   0  0  0  0  0  0  0  0  0  0  0  0
   -5.2555    5.3060  -17.7899 N   0  0  0  0  0  0  0  0  0  0  0  0
  1  2  1  0
  2  3  1  0
  2  4  1  0
  4  5  1  6
  4  6  1  0
  6  7  1  0
  7  8  2  0
  8  9  1  0
  9 10  2  0
 10 11  1  0
 11 12  2  0
 12 13  1  0
 13 14  2  0
 14 15  1  0
 14 16  1  0
 16 17  2  0
 17  7  1  0
 16 10  1  0
M  END
>  <energy_score>  (1829) 
-37.51505

>  <alias>  (1829) 
None

>  <HIPPO Pose ID>  (1829) 
72619

>  <smiles>  (1829) 
CC(C)[C@@H](C)Nc1ccc2cccc(O)c2n1

>  <inchikey>  (1829) 
HTQJAIVYEWJGRE-SNVBAGLBSA-N

>  <distance_score>  (1829) 
1.17585

>  <ref_mols>  (1829) 
Z1688a,Z0089a

>  <ref_pdb>  (1829) 
Z1688a

>  <HIPPO Compound ID>  (1829) 
145974

>  <name>  (1829) 
P72619

>  <inspiration_score>  (1829) 
None

$$$$
P72620
     RDKit          3D

 17 19  0  0  0  0  0  0  0  0999 V2000
   -1.9438    4.3968  -19.2052 C   0  0  0  0  0  0  0  0  0  0  0  0
   -2.5792    5.7408  -19.4630 C   0  0  0  0  0  0  0  0  0  0  0  0
   -4.0422    5.7524  -19.5630 N   0  0  0  0  0  0  0  0  0  0  0  0
   -4.9691    5.4463  -18.5655 C   0  0  0  0  0  0  0  0  0  0  0  0
   -6.1066    4.9417  -19.0843 N   0  0  0  0  0  0  0  0  0  0  0  0
   -7.1430    4.6678  -18.2786 C   0  0  0  0  0  0  0  0  0  0  0  0
   -8.3395    4.2239  -18.7907 C   0  0  0  0  0  0  0  0  0  0  0  0
   -9.4144    3.9419  -17.9528 C   0  0  0  0  0  0  0  0  0  0  0  0
   -9.2928    4.0532  -16.5836 C   0  0  0  0  0  0  0  0  0  0  0  0
   -8.1239    4.5145  -16.0413 C   0  0  0  0  0  0  0  0  0  0  0  0
   -7.0738    4.8340  -16.8952 C   0  0  0  0  0  0  0  0  0  0  0  0
   -5.9105    5.3440  -16.3682 C   0  0  0  0  0  0  0  0  0  0  0  0
   -4.8314    5.6774  -17.1967 C   0  0  0  0  0  0  0  0  0  0  0  0
   -3.6430    6.3241  -16.5667 C   0  0  0  0  0  0  0  0  0  0  0  0
   -3.7643    6.3762  -15.1419 O   0  0  0  0  0  0  0  0  0  0  0  0
   -1.8482    6.5808  -20.4930 C   0  0  0  0  0  0  0  0  0  0  0  0
   -1.8333    7.0004  -19.0641 C   0  0  0  0  0  0  0  0  0  0  0  0
  1  2  1  0
  2  3  1  0
  3  4  1  0
  4  5  2  0
  5  6  1  0
  6  7  2  0
  7  8  1  0
  8  9  2  0
  9 10  1  0
 10 11  2  0
 11 12  1  0
 12 13  2  0
 13 14  1  0
 14 15  1  0
  2 16  1  0
 16 17  1  0
 17  2  1  0
 13  4  1  0
 11  6  1  0
M  END
>  <energy_score>  (1830) 
-14.194717

>  <alias>  (1830) 
None

>  <HIPPO Pose ID>  (1830) 
72620

>  <smiles>  (1830) 
CC1(Nc2nc3ccccc3cc2CO)CC1

>  <inchikey>  (1830) 
VDPORIBPCPPPIE-UHFFFAOYSA-N

>  <distance_score>  (1830) 
1.924844

>  <ref_mols>  (1830) 
Z1688a,Z0089a

>  <ref_pdb>  (1830) 
Z1688a

>  <HIPPO Compound ID>  (1830) 
145976

>  <name>  (1830) 
P72620

>  <inspiration_score>  (1830) 
None

$$$$
P72628
     RDKit          3D

 17 18  0  0  0  0  0  0  0  0999 V2000
   -1.4144    3.7418  -19.6357 C   0  0  0  0  0  0  0  0  0  0  0  0
   -2.3882    4.8086  -20.0700 C   0  0  0  0  0  0  0  0  0  0  0  0
   -2.5746    5.8767  -18.9877 C   0  0  1  0  0  0  0  0  0  0  0  0
   -1.5145    6.9701  -19.1145 C   0  0  0  0  0  0  0  0  0  0  0  0
   -3.9056    6.5136  -19.0693 N   0  0  0  0  0  0  0  0  0  0  0  0
   -4.4206    6.8351  -20.3824 N   0  0  0  0  0  0  0  0  0  0  0  0
   -4.8530    5.9435  -18.1805 C   0  0  0  0  0  0  0  0  0  0  0  0
   -5.9085    5.3296  -18.7494 N   0  0  0  0  0  0  0  0  0  0  0  0
   -6.9151    4.9033  -17.9873 C   0  0  0  0  0  0  0  0  0  0  0  0
   -8.0208    4.3637  -18.6130 C   0  0  0  0  0  0  0  0  0  0  0  0
   -9.1348    3.9726  -17.8867 C   0  0  0  0  0  0  0  0  0  0  0  0
   -9.1201    4.0774  -16.5060 C   0  0  0  0  0  0  0  0  0  0  0  0
   -8.0113    4.5868  -15.8448 C   0  0  0  0  0  0  0  0  0  0  0  0
   -6.9103    5.0234  -16.5878 C   0  0  0  0  0  0  0  0  0  0  0  0
   -5.7989    5.6213  -15.9912 C   0  0  0  0  0  0  0  0  0  0  0  0
   -4.7700    6.1338  -16.7903 C   0  0  0  0  0  0  0  0  0  0  0  0
   -3.6645    6.9001  -16.1252 C   0  0  0  0  0  0  0  0  0  0  0  0
  1  2  1  0
  2  3  1  0
  3  4  1  6
  3  5  1  0
  5  6  1  0
  5  7  1  0
  7  8  2  0
  8  9  1  0
  9 10  2  0
 10 11  1  0
 11 12  2  0
 12 13  1  0
 13 14  2  0
 14 15  1  0
 15 16  2  0
 16 17  1  0
 16  7  1  0
 14  9  1  0
M  END
>  <energy_score>  (1831) 
-30.86188

>  <alias>  (1831) 
None

>  <HIPPO Pose ID>  (1831) 
72628

>  <smiles>  (1831) 
CC[C@@H](C)N(N)c1nc2ccccc2cc1C

>  <inchikey>  (1831) 
WIGVOCQIGRBQTD-LLVKDONJSA-N

>  <distance_score>  (1831) 
1.0169

>  <ref_mols>  (1831) 
Z1688a,Z0089a

>  <ref_pdb>  (1831) 
Z1688a

>  <HIPPO Compound ID>  (1831) 
145982

>  <name>  (1831) 
P72628

>  <inspiration_score>  (1831) 
None

$$$$
P72633
     RDKit          3D

 17 18  0  0  0  0  0  0  0  0999 V2000
   -1.2964    5.4957  -21.4977 C   0  0  0  0  0  0  0  0  0  0  0  0
   -1.9636    4.4427  -20.6347 C   0  0  0  0  0  0  0  0  0  0  0  0
   -1.7050    4.5339  -19.1325 C   0  0  0  0  0  0  0  0  0  0  0  0
   -2.1706    5.7823  -18.3660 C   0  0  1  0  0  0  0  0  0  0  0  0
   -1.2886    7.0017  -18.6119 C   0  0  0  0  0  0  0  0  0  0  0  0
   -3.5291    6.1685  -18.6873 N   0  0  0  0  0  0  0  0  0  0  0  0
   -4.5714    5.6369  -17.9663 C   0  0  0  0  0  0  0  0  0  0  0  0
   -4.7554    5.7707  -16.5989 C   0  0  0  0  0  0  0  0  0  0  0  0
   -5.9801    5.3815  -16.0393 C   0  0  0  0  0  0  0  0  0  0  0  0
   -6.9952    4.8838  -16.8745 C   0  0  0  0  0  0  0  0  0  0  0  0
   -8.3139    4.5696  -16.4673 C   0  0  0  0  0  0  0  0  0  0  0  0
   -9.2377    4.1864  -17.4346 C   0  0  0  0  0  0  0  0  0  0  0  0
  -10.5482    3.9580  -17.1796 O   0  0  0  0  0  0  0  0  0  0  0  0
   -8.8624    4.0385  -18.7531 C   0  0  0  0  0  0  0  0  0  0  0  0
   -7.5601    4.2712  -19.1326 C   0  0  0  0  0  0  0  0  0  0  0  0
   -6.6488    4.7368  -18.2307 C   0  0  0  0  0  0  0  0  0  0  0  0
   -5.4804    5.0795  -18.7505 N   0  0  0  0  0  0  0  0  0  0  0  0
  1  2  1  0
  2  3  1  0
  3  4  1  0
  4  5  1  6
  4  6  1  0
  6  7  1  0
  7  8  2  0
  8  9  1  0
  9 10  2  0
 10 11  1  0
 11 12  2  0
 12 13  1  0
 12 14  1  0
 14 15  2  0
 15 16  1  0
 16 17  2  0
 17  7  1  0
 16 10  1  0
M  END
>  <energy_score>  (1832) 
-40.552886

>  <alias>  (1832) 
None

>  <HIPPO Pose ID>  (1832) 
72633

>  <smiles>  (1832) 
CCC[C@@H](C)Nc1ccc2cc(O)ccc2n1

>  <inchikey>  (1832) 
BACQTWCBPFRGOU-SNVBAGLBSA-N

>  <distance_score>  (1832) 
0.937296

>  <ref_mols>  (1832) 
Z1688a,Z0089a

>  <ref_pdb>  (1832) 
Z1688a

>  <HIPPO Compound ID>  (1832) 
145985

>  <name>  (1832) 
P72633

>  <inspiration_score>  (1832) 
None

$$$$
P72637
     RDKit          3D

 17 18  0  0  0  0  0  0  0  0999 V2000
    0.5000    5.4023  -18.6962 C   0  0  0  0  0  0  0  0  0  0  0  0
   -0.8884    5.0542  -19.2229 C   0  0  0  0  0  0  0  0  0  0  0  0
   -2.0168    5.7798  -18.4596 C   0  0  1  0  0  0  0  0  0  0  0  0
   -1.8905    7.3018  -18.5273 C   0  0  0  0  0  0  0  0  0  0  0  0
   -3.3057    5.3820  -19.0177 N   0  0  0  0  0  0  0  0  0  0  0  0
   -3.5074    5.5645  -20.4279 N   0  0  0  0  0  0  0  0  0  0  0  0
   -4.4543    5.2281  -18.2450 C   0  0  0  0  0  0  0  0  0  0  0  0
   -4.5727    5.4460  -16.8728 C   0  0  0  0  0  0  0  0  0  0  0  0
   -5.8127    5.2530  -16.2305 C   0  0  0  0  0  0  0  0  0  0  0  0
   -6.9270    4.8353  -16.9781 C   0  0  0  0  0  0  0  0  0  0  0  0
   -8.2382    4.5968  -16.4925 C   0  0  0  0  0  0  0  0  0  0  0  0
   -9.2274    4.2321  -17.4019 C   0  0  0  0  0  0  0  0  0  0  0  0
  -10.5213    4.0036  -17.0899 O   0  0  0  0  0  0  0  0  0  0  0  0
   -8.9421    4.0741  -18.7378 C   0  0  0  0  0  0  0  0  0  0  0  0
   -7.6590    4.2318  -19.1874 C   0  0  0  0  0  0  0  0  0  0  0  0
   -6.6768    4.6415  -18.3434 C   0  0  0  0  0  0  0  0  0  0  0  0
   -5.5198    4.8334  -18.9441 N   0  0  0  0  0  0  0  0  0  0  0  0
  1  2  1  0
  2  3  1  0
  3  4  1  6
  3  5  1  0
  5  6  1  0
  5  7  1  0
  7  8  2  0
  8  9  1  0
  9 10  2  0
 10 11  1  0
 11 12  2  0
 12 13  1  0
 12 14  1  0
 14 15  2  0
 15 16  1  0
 16 17  2  0
 17  7  1  0
 16 10  1  0
M  END
>  <energy_score>  (1833) 
-26.923011

>  <alias>  (1833) 
None

>  <HIPPO Pose ID>  (1833) 
72637

>  <smiles>  (1833) 
CC[C@@H](C)N(N)c1ccc2cc(O)ccc2n1

>  <inchikey>  (1833) 
SCOGFEFOYAUUQK-SECBINFHSA-N

>  <distance_score>  (1833) 
1.01157

>  <ref_mols>  (1833) 
Z1688a,Z0089a

>  <ref_pdb>  (1833) 
Z1688a

>  <HIPPO Compound ID>  (1833) 
145987

>  <name>  (1833) 
P72637

>  <inspiration_score>  (1833) 
None

$$$$
P72639
     RDKit          3D

 17 18  0  0  0  0  0  0  0  0999 V2000
   -1.3744    3.7621  -19.4080 C   0  0  0  0  0  0  0  0  0  0  0  0
   -2.2657    4.8144  -20.0072 C   0  0  0  0  0  0  0  0  0  0  0  0
   -2.8561    5.7441  -18.9326 C   0  0  1  0  0  0  0  0  0  0  0  0
   -1.9055    6.8984  -18.6190 C   0  0  0  0  0  0  0  0  0  0  0  0
   -4.1393    6.2940  -19.3996 N   0  0  0  0  0  0  0  0  0  0  0  0
   -4.2088    6.8981  -20.7001 N   0  0  0  0  0  0  0  0  0  0  0  0
   -5.2434    5.5239  -18.9378 C   0  0  0  0  0  0  0  0  0  0  0  0
   -5.9997    4.8089  -19.8524 C   0  0  0  0  0  0  0  0  0  0  0  0
   -7.1830    4.2241  -19.4655 C   0  0  0  0  0  0  0  0  0  0  0  0
   -7.6130    4.3983  -18.1732 C   0  0  0  0  0  0  0  0  0  0  0  0
   -8.8827    3.9410  -17.8520 C   0  0  0  0  0  0  0  0  0  0  0  0
   -9.3248    4.0496  -16.5536 C   0  0  0  0  0  0  0  0  0  0  0  0
   -8.5094    4.5874  -15.5738 C   0  0  0  0  0  0  0  0  0  0  0  0
   -7.2527    5.0773  -15.9246 C   0  0  0  0  0  0  0  0  0  0  0  0
   -6.5038    5.6475  -14.9269 O   0  0  0  0  0  0  0  0  0  0  0  0
   -6.7682    5.0298  -17.2399 C   0  0  0  0  0  0  0  0  0  0  0  0
   -5.5804    5.5662  -17.6279 N   0  0  0  0  0  0  0  0  0  0  0  0
  1  2  1  0
  2  3  1  0
  3  4  1  6
  3  5  1  0
  5  6  1  0
  5  7  1  0
  7  8  2  0
  8  9  1  0
  9 10  2  0
 10 11  1  0
 11 12  2  0
 12 13  1  0
 13 14  2  0
 14 15  1  0
 14 16  1  0
 16 17  2  0
 17  7  1  0
 16 10  1  0
M  END
>  <energy_score>  (1834) 
-26.602433

>  <alias>  (1834) 
None

>  <HIPPO Pose ID>  (1834) 
72639

>  <smiles>  (1834) 
CC[C@@H](C)N(N)c1ccc2cccc(O)c2n1

>  <inchikey>  (1834) 
IGQVRQOWKOOHPQ-SECBINFHSA-N

>  <distance_score>  (1834) 
0.821295

>  <ref_mols>  (1834) 
Z1688a,Z0089a

>  <ref_pdb>  (1834) 
Z1688a

>  <HIPPO Compound ID>  (1834) 
145988

>  <name>  (1834) 
P72639

>  <inspiration_score>  (1834) 
None

$$$$
P72641
     RDKit          3D

 17 18  0  0  0  0  0  0  0  0999 V2000
   -3.4737    6.6025  -16.0496 C   0  0  0  0  0  0  0  0  0  0  0  0
   -4.5925    5.8931  -16.7503 C   0  0  0  0  0  0  0  0  0  0  0  0
   -5.7103    5.5242  -15.9846 C   0  0  0  0  0  0  0  0  0  0  0  0
   -6.8349    4.9702  -16.6017 C   0  0  0  0  0  0  0  0  0  0  0  0
   -7.9959    4.6251  -15.8973 C   0  0  0  0  0  0  0  0  0  0  0  0
   -9.1002    4.1454  -16.5904 C   0  0  0  0  0  0  0  0  0  0  0  0
   -9.0626    4.0148  -17.9692 C   0  0  0  0  0  0  0  0  0  0  0  0
   -7.8941    4.3174  -18.6540 C   0  0  0  0  0  0  0  0  0  0  0  0
   -6.7767    4.7845  -17.9901 C   0  0  0  0  0  0  0  0  0  0  0  0
   -5.6837    5.0579  -18.7049 N   0  0  0  0  0  0  0  0  0  0  0  0
   -4.6085    5.5887  -18.1125 C   0  0  0  0  0  0  0  0  0  0  0  0
   -3.6323    5.8649  -19.0391 N   0  0  0  0  0  0  0  0  0  0  0  0
   -2.2207    5.5994  -18.8033 C   0  0  1  0  0  0  0  0  0  0  0  0
   -1.7846    4.3251  -19.5222 C   0  0  0  0  0  0  0  0  0  0  0  0
   -1.4409    6.8213  -19.3061 C   0  0  0  0  0  0  0  0  0  0  0  0
   -0.0792    6.8488  -18.7564 C   0  0  0  0  0  0  0  0  0  0  0  0
    0.9874    6.8837  -18.2998 N   0  0  0  0  0  0  0  0  0  0  0  0
  1  2  1  0
  2  3  2  0
  3  4  1  0
  4  5  2  0
  5  6  1  0
  6  7  2  0
  7  8  1  0
  8  9  2  0
  9 10  1  0
 10 11  2  0
 11 12  1  0
 12 13  1  0
 13 14  1  6
 13 15  1  0
 15 16  1  0
 16 17  3  0
 11  2  1  0
  9  4  1  0
M  END
>  <energy_score>  (1835) 
-12.199482

>  <alias>  (1835) 
None

>  <HIPPO Pose ID>  (1835) 
72641

>  <smiles>  (1835) 
Cc1cc2ccccc2nc1N[C@@H](C)CC#N

>  <inchikey>  (1835) 
AZJVNEKQIDTFPP-NSHDSACASA-N

>  <distance_score>  (1835) 
0.925605

>  <ref_mols>  (1835) 
Z1688a,Z0089a

>  <ref_pdb>  (1835) 
Z1688a

>  <HIPPO Compound ID>  (1835) 
145989

>  <name>  (1835) 
P72641

>  <inspiration_score>  (1835) 
None

$$$$
P72643
     RDKit          3D

 17 18  0  0  0  0  0  0  0  0999 V2000
   -1.7033    4.4011  -19.2926 C   0  0  0  0  0  0  0  0  0  0  0  0
   -2.1348    5.6471  -18.5184 C   0  0  1  0  0  0  0  0  0  0  0  0
   -1.2511    6.8383  -18.9081 C   0  0  0  0  0  0  0  0  0  0  0  0
   -1.3920    7.9382  -17.9419 C   0  0  0  0  0  0  0  0  0  0  0  0
   -1.4668    8.7982  -17.1651 N   0  0  0  0  0  0  0  0  0  0  0  0
   -3.5033    5.9847  -18.8605 N   0  0  0  0  0  0  0  0  0  0  0  0
   -4.5427    5.5412  -18.0840 C   0  0  0  0  0  0  0  0  0  0  0  0
   -4.7019    5.7404  -16.7225 C   0  0  0  0  0  0  0  0  0  0  0  0
   -5.9246    5.3937  -16.1270 C   0  0  0  0  0  0  0  0  0  0  0  0
   -6.9655    4.8831  -16.9247 C   0  0  0  0  0  0  0  0  0  0  0  0
   -8.2816    4.5948  -16.4879 C   0  0  0  0  0  0  0  0  0  0  0  0
   -9.2264    4.2020  -17.4316 C   0  0  0  0  0  0  0  0  0  0  0  0
  -10.5347    3.9869  -17.1577 O   0  0  0  0  0  0  0  0  0  0  0  0
   -8.8784    4.0311  -18.7541 C   0  0  0  0  0  0  0  0  0  0  0  0
   -7.5812    4.2324  -19.1607 C   0  0  0  0  0  0  0  0  0  0  0  0
   -6.6468    4.6913  -18.2813 C   0  0  0  0  0  0  0  0  0  0  0  0
   -5.4791    4.9798  -18.8294 N   0  0  0  0  0  0  0  0  0  0  0  0
  2  1  1  6
  2  3  1  0
  3  4  1  0
  4  5  3  0
  2  6  1  0
  6  7  1  0
  7  8  2  0
  8  9  1  0
  9 10  2  0
 10 11  1  0
 11 12  2  0
 12 13  1  0
 12 14  1  0
 14 15  2  0
 15 16  1  0
 16 17  2  0
 17  7  1  0
 16 10  1  0
M  END
>  <energy_score>  (1836) 
-32.347747

>  <alias>  (1836) 
None

>  <HIPPO Pose ID>  (1836) 
72643

>  <smiles>  (1836) 
C[C@@H](CC#N)Nc1ccc2cc(O)ccc2n1

>  <inchikey>  (1836) 
VAZLQIJPVARICV-VIFPVBQESA-N

>  <distance_score>  (1836) 
0.923733

>  <ref_mols>  (1836) 
Z1688a,Z0089a

>  <ref_pdb>  (1836) 
Z1688a

>  <HIPPO Compound ID>  (1836) 
145991

>  <name>  (1836) 
P72643

>  <inspiration_score>  (1836) 
None

$$$$
P72645
     RDKit          3D

 17 18  0  0  0  0  0  0  0  0999 V2000
   -1.4650    4.7393  -19.2503 C   0  0  0  0  0  0  0  0  0  0  0  0
   -2.7085    5.3835  -18.6211 C   0  0  1  0  0  0  0  0  0  0  0  0
   -2.5561    6.9001  -18.4720 C   0  0  0  0  0  0  0  0  0  0  0  0
   -1.5423    7.2493  -17.4699 C   0  0  0  0  0  0  0  0  0  0  0  0
   -0.7272    7.5405  -16.6964 N   0  0  0  0  0  0  0  0  0  0  0  0
   -3.8141    5.0733  -19.5150 N   0  0  0  0  0  0  0  0  0  0  0  0
   -5.1095    4.9714  -19.0041 C   0  0  0  0  0  0  0  0  0  0  0  0
   -6.0630    4.5172  -19.8974 C   0  0  0  0  0  0  0  0  0  0  0  0
   -7.3316    4.2106  -19.4691 C   0  0  0  0  0  0  0  0  0  0  0  0
   -7.6431    4.3995  -18.1493 C   0  0  0  0  0  0  0  0  0  0  0  0
   -8.9266    4.0554  -17.7535 C   0  0  0  0  0  0  0  0  0  0  0  0
   -9.2514    4.1259  -16.4199 C   0  0  0  0  0  0  0  0  0  0  0  0
   -8.3359    4.5923  -15.4943 C   0  0  0  0  0  0  0  0  0  0  0  0
   -7.0653    4.9775  -15.9236 C   0  0  0  0  0  0  0  0  0  0  0  0
   -6.2074    5.4575  -14.9683 O   0  0  0  0  0  0  0  0  0  0  0  0
   -6.6557    4.8783  -17.2619 C   0  0  0  0  0  0  0  0  0  0  0  0
   -5.3941    5.1692  -17.7024 N   0  0  0  0  0  0  0  0  0  0  0  0
  2  1  1  6
  2  3  1  0
  3  4  1  0
  4  5  3  0
  2  6  1  0
  6  7  1  0
  7  8  2  0
  8  9  1  0
  9 10  2  0
 10 11  1  0
 11 12  2  0
 12 13  1  0
 13 14  2  0
 14 15  1  0
 14 16  1  0
 16 17  2  0
 17  7  1  0
 16 10  1  0
M  END
>  <energy_score>  (1837) 
-24.55247

>  <alias>  (1837) 
None

>  <HIPPO Pose ID>  (1837) 
72645

>  <smiles>  (1837) 
C[C@@H](CC#N)Nc1ccc2cccc(O)c2n1

>  <inchikey>  (1837) 
MSXQRAQISAYIDU-VIFPVBQESA-N

>  <distance_score>  (1837) 
0.866624

>  <ref_mols>  (1837) 
Z1688a,Z0089a

>  <ref_pdb>  (1837) 
Z1688a

>  <HIPPO Compound ID>  (1837) 
145992

>  <name>  (1837) 
P72645

>  <inspiration_score>  (1837) 
None

$$$$
P72653
     RDKit          3D

 17 18  0  0  0  0  0  0  0  0999 V2000
   -1.6149    4.5463  -19.5479 C   0  0  0  0  0  0  0  0  0  0  0  0
   -2.8297    5.4418  -19.2871 C   0  0  2  0  0  0  0  0  0  0  0  0
   -2.5188    6.8880  -19.7017 C   0  0  0  0  0  0  0  0  0  0  0  0
   -3.6678    7.8710  -19.4792 C   0  0  0  0  0  0  0  0  0  0  0  0
   -4.8097    7.5600  -20.2625 O   0  0  0  0  0  0  0  0  0  0  0  0
   -3.1353    5.4228  -17.8552 N   0  0  0  0  0  0  0  0  0  0  0  0
   -4.4628    5.2238  -17.4788 C   0  0  0  0  0  0  0  0  0  0  0  0
   -4.8165    5.3234  -16.1380 C   0  0  0  0  0  0  0  0  0  0  0  0
   -6.1445    5.1161  -15.7546 C   0  0  0  0  0  0  0  0  0  0  0  0
   -7.1000    4.7950  -16.7275 C   0  0  0  0  0  0  0  0  0  0  0  0
   -8.4632    4.5356  -16.4562 C   0  0  0  0  0  0  0  0  0  0  0  0
   -9.3219    4.2578  -17.5157 C   0  0  0  0  0  0  0  0  0  0  0  0
  -10.6561    4.0627  -17.3584 O   0  0  0  0  0  0  0  0  0  0  0  0
   -8.8451    4.1907  -18.8095 C   0  0  0  0  0  0  0  0  0  0  0  0
   -7.4996    4.3982  -19.0597 C   0  0  0  0  0  0  0  0  0  0  0  0
   -6.6327    4.7323  -18.0530 C   0  0  0  0  0  0  0  0  0  0  0  0
   -5.3732    4.9742  -18.4162 N   0  0  0  0  0  0  0  0  0  0  0  0
  2  1  1  1
  2  3  1  0
  3  4  1  0
  4  5  1  0
  2  6  1  0
  6  7  1  0
  7  8  2  0
  8  9  1  0
  9 10  2  0
 10 11  1  0
 11 12  2  0
 12 13  1  0
 12 14  1  0
 14 15  2  0
 15 16  1  0
 16 17  2  0
 17  7  1  0
 16 10  1  0
M  END
>  <energy_score>  (1838) 
-28.55857

>  <alias>  (1838) 
None

>  <HIPPO Pose ID>  (1838) 
72653

>  <smiles>  (1838) 
C[C@H](CCO)Nc1ccc2cc(O)ccc2n1

>  <inchikey>  (1838) 
IYILTTGEEMKWMJ-SECBINFHSA-N

>  <distance_score>  (1838) 
0.928147

>  <ref_mols>  (1838) 
Z1688a,Z0089a

>  <ref_pdb>  (1838) 
Z1688a

>  <HIPPO Compound ID>  (1838) 
145999

>  <name>  (1838) 
P72653

>  <inspiration_score>  (1838) 
None

$$$$
P72656
     RDKit          3D

 17 18  0  0  0  0  0  0  0  0999 V2000
   -1.4640    4.6585  -19.5221 C   0  0  0  0  0  0  0  0  0  0  0  0
   -2.6658    5.3835  -18.9190 C   0  0  1  0  0  0  0  0  0  0  0  0
   -2.4989    6.9093  -18.8333 C   0  0  0  0  0  0  0  0  0  0  0  0
   -2.1973    7.6248  -20.1447 C   0  0  0  0  0  0  0  0  0  0  0  0
   -0.8342    7.4495  -20.5024 O   0  0  0  0  0  0  0  0  0  0  0  0
   -3.8361    5.0165  -19.7008 N   0  0  0  0  0  0  0  0  0  0  0  0
   -5.0935    4.9595  -19.1116 C   0  0  0  0  0  0  0  0  0  0  0  0
   -6.1304    4.4681  -19.8932 C   0  0  0  0  0  0  0  0  0  0  0  0
   -7.3762    4.2198  -19.3461 C   0  0  0  0  0  0  0  0  0  0  0  0
   -7.5640    4.4665  -18.0065 C   0  0  0  0  0  0  0  0  0  0  0  0
   -8.7854    4.1748  -17.4045 C   0  0  0  0  0  0  0  0  0  0  0  0
   -8.9117    4.3469  -16.0353 C   0  0  0  0  0  0  0  0  0  0  0  0
   -7.8647    4.8612  -15.2801 C   0  0  0  0  0  0  0  0  0  0  0  0
   -6.6715    5.1750  -15.9134 C   0  0  0  0  0  0  0  0  0  0  0  0
   -5.6353    5.6886  -15.1695 O   0  0  0  0  0  0  0  0  0  0  0  0
   -6.4768    4.9693  -17.2698 C   0  0  0  0  0  0  0  0  0  0  0  0
   -5.2640    5.2302  -17.8064 N   0  0  0  0  0  0  0  0  0  0  0  0
  2  1  1  6
  2  3  1  0
  3  4  1  0
  4  5  1  0
  2  6  1  0
  6  7  1  0
  7  8  2  0
  8  9  1  0
  9 10  2  0
 10 11  1  0
 11 12  2  0
 12 13  1  0
 13 14  2  0
 14 15  1  0
 14 16  1  0
 16 17  2  0
 17  7  1  0
 16 10  1  0
M  END
>  <energy_score>  (1839) 
-34.305662

>  <alias>  (1839) 
None

>  <HIPPO Pose ID>  (1839) 
72656

>  <smiles>  (1839) 
C[C@@H](CCO)Nc1ccc2cccc(O)c2n1

>  <inchikey>  (1839) 
XWZGWXJTBPNWEX-VIFPVBQESA-N

>  <distance_score>  (1839) 
0.908257

>  <ref_mols>  (1839) 
Z1688a,Z0089a

>  <ref_pdb>  (1839) 
Z1688a

>  <HIPPO Compound ID>  (1839) 
146000

>  <name>  (1839) 
P72656

>  <inspiration_score>  (1839) 
None

$$$$
P72658
     RDKit          3D

 17 19  0  0  0  0  0  0  0  0999 V2000
   -5.2017    6.0007  -14.9241 C   0  0  0  0  0  0  0  0  0  0  0  0
   -5.4933    5.6446  -16.3494 C   0  0  0  0  0  0  0  0  0  0  0  0
   -4.5289    5.8828  -17.3250 C   0  0  0  0  0  0  0  0  0  0  0  0
   -4.7764    5.5307  -18.6422 C   0  0  0  0  0  0  0  0  0  0  0  0
   -3.8575    5.7232  -19.6601 N   0  0  0  0  0  0  0  0  0  0  0  0
   -2.4544    5.4393  -19.3815 C   0  0  0  0  0  0  0  0  0  0  0  0
   -1.7275    4.9476  -20.6450 C   0  0  0  0  0  0  0  0  0  0  0  0
   -0.4968    5.7905  -20.7213 C   0  0  0  0  0  0  0  0  0  0  0  0
   -0.4873    6.7577  -19.8031 C   0  0  0  0  0  0  0  0  0  0  0  0
   -1.7133    6.7266  -18.9552 C   0  0  0  0  0  0  0  0  0  0  0  0
   -5.9423    5.0109  -19.0327 N   0  0  0  0  0  0  0  0  0  0  0  0
   -6.8967    4.8074  -18.1183 C   0  0  0  0  0  0  0  0  0  0  0  0
   -8.1111    4.3118  -18.5439 C   0  0  0  0  0  0  0  0  0  0  0  0
   -9.1428    4.0430  -17.6506 C   0  0  0  0  0  0  0  0  0  0  0  0
   -8.9550    4.2506  -16.2988 C   0  0  0  0  0  0  0  0  0  0  0  0
   -7.7586    4.7760  -15.8468 C   0  0  0  0  0  0  0  0  0  0  0  0
   -6.7184    5.0786  -16.7465 C   0  0  0  0  0  0  0  0  0  0  0  0
  1  2  1  0
  2  3  2  0
  3  4  1  0
  4  5  1  0
  5  6  1  0
  6  7  1  0
  7  8  1  0
  8  9  2  0
  9 10  1  0
  4 11  2  0
 11 12  1  0
 12 13  2  0
 13 14  1  0
 14 15  2  0
 15 16  1  0
 16 17  2  0
 17  2  1  0
 10  6  1  0
 17 12  1  0
M  END
>  <energy_score>  (1840) 
-17.285659

>  <alias>  (1840) 
None

>  <HIPPO Pose ID>  (1840) 
72658

>  <smiles>  (1840) 
Cc1cc(NC2CC=CC2)nc2ccccc12

>  <inchikey>  (1840) 
AGWOKZUFDAYTBL-UHFFFAOYSA-N

>  <distance_score>  (1840) 
1.776822

>  <ref_mols>  (1840) 
Z1688a,Z0089a

>  <ref_pdb>  (1840) 
Z1688a

>  <HIPPO Compound ID>  (1840) 
146002

>  <name>  (1840) 
P72658

>  <inspiration_score>  (1840) 
None

$$$$
P72664
     RDKit          3D

 17 19  0  0  0  0  0  0  0  0999 V2000
  -10.6194    4.0444  -17.3421 O   0  0  0  0  0  0  0  0  0  0  0  0
   -9.2892    4.2562  -17.5118 C   0  0  0  0  0  0  0  0  0  0  0  0
   -8.8177    4.1726  -18.8067 C   0  0  0  0  0  0  0  0  0  0  0  0
   -7.4744    4.3857  -19.0682 C   0  0  0  0  0  0  0  0  0  0  0  0
   -6.6021    4.7389  -18.0719 C   0  0  0  0  0  0  0  0  0  0  0  0
   -5.3416    4.9729  -18.4418 N   0  0  0  0  0  0  0  0  0  0  0  0
   -4.4363    5.2639  -17.5134 C   0  0  0  0  0  0  0  0  0  0  0  0
   -3.0977    5.4207  -17.8879 N   0  0  0  0  0  0  0  0  0  0  0  0
   -2.8251    5.4189  -19.3289 C   0  0  2  0  0  0  0  0  0  0  0  0
   -1.3385    5.1375  -19.5532 C   0  0  0  0  0  0  0  0  0  0  0  0
   -1.0433    5.4552  -21.0072 C   0  0  0  0  0  0  0  0  0  0  0  0
   -1.9756    6.9637  -21.3621 S   0  0  0  0  0  0  0  0  0  0  0  0
   -3.0892    6.8021  -19.9311 C   0  0  0  0  0  0  0  0  0  0  0  0
   -4.7871    5.3857  -16.1732 C   0  0  0  0  0  0  0  0  0  0  0  0
   -6.1119    5.1731  -15.7818 C   0  0  0  0  0  0  0  0  0  0  0  0
   -7.0670    4.8253  -16.7457 C   0  0  0  0  0  0  0  0  0  0  0  0
   -8.4276    4.5610  -16.4628 C   0  0  0  0  0  0  0  0  0  0  0  0
  1  2  1  0
  2  3  2  0
  3  4  1  0
  4  5  2  0
  5  6  1  0
  6  7  2  0
  7  8  1  0
  9  8  1  1
  9 10  1  0
 10 11  1  0
 11 12  1  0
 12 13  1  0
  7 14  1  0
 14 15  2  0
 15 16  1  0
 16 17  2  0
 17  2  1  0
 16  5  1  0
 13  9  1  0
M  END
>  <energy_score>  (1841) 
-29.382366

>  <alias>  (1841) 
None

>  <HIPPO Pose ID>  (1841) 
72664

>  <smiles>  (1841) 
Oc1ccc2nc(N[C@@H]3CCSC3)ccc2c1

>  <inchikey>  (1841) 
BGIPYEDBSWFVGV-SNVBAGLBSA-N

>  <distance_score>  (1841) 
0.98594

>  <ref_mols>  (1841) 
Z1688a,Z0089a

>  <ref_pdb>  (1841) 
Z1688a

>  <HIPPO Compound ID>  (1841) 
146007

>  <name>  (1841) 
P72664

>  <inspiration_score>  (1841) 
None

$$$$
P72666
     RDKit          3D

 17 18  0  0  0  0  0  0  0  0999 V2000
   -1.8327    4.0245  -20.9378 C   0  0  0  0  0  0  0  0  0  0  0  0
   -1.3470    4.4913  -19.7932 C   0  0  0  0  0  0  0  0  0  0  0  0
   -1.2597    5.9450  -19.5514 C   0  0  0  0  0  0  0  0  0  0  0  0
   -2.3296    6.4076  -18.5669 C   0  0  1  0  0  0  0  0  0  0  0  0
   -2.1474    7.9085  -18.3614 C   0  0  0  0  0  0  0  0  0  0  0  0
   -3.6774    6.1794  -19.0660 N   0  0  0  0  0  0  0  0  0  0  0  0
   -4.6969    5.8209  -18.2100 C   0  0  0  0  0  0  0  0  0  0  0  0
   -4.6760    6.1119  -16.8556 C   0  0  0  0  0  0  0  0  0  0  0  0
   -5.7350    5.7345  -16.0402 C   0  0  0  0  0  0  0  0  0  0  0  0
   -5.6629    6.0228  -14.5741 C   0  0  0  0  0  0  0  0  0  0  0  0
   -6.8413    5.1094  -16.6348 C   0  0  0  0  0  0  0  0  0  0  0  0
   -7.9802    4.7117  -15.9078 C   0  0  0  0  0  0  0  0  0  0  0  0
   -9.0585    4.1379  -16.5518 C   0  0  0  0  0  0  0  0  0  0  0  0
   -9.0151    3.9555  -17.9186 C   0  0  0  0  0  0  0  0  0  0  0  0
   -7.8828    4.3163  -18.6405 C   0  0  0  0  0  0  0  0  0  0  0  0
   -6.7918    4.8883  -18.0273 C   0  0  0  0  0  0  0  0  0  0  0  0
   -5.7388    5.2179  -18.7860 N   0  0  0  0  0  0  0  0  0  0  0  0
  1  2  2  0
  2  3  1  0
  3  4  1  0
  4  5  1  6
  4  6  1  0
  6  7  1  0
  7  8  2  0
  8  9  1  0
  9 10  1  0
  9 11  2  0
 11 12  1  0
 12 13  2  0
 13 14  1  0
 14 15  2  0
 15 16  1  0
 16 17  2  0
 17  7  1  0
 16 11  1  0
M  END
>  <energy_score>  (1842) 
-19.428312

>  <alias>  (1842) 
None

>  <HIPPO Pose ID>  (1842) 
72666

>  <smiles>  (1842) 
C=CC[C@@H](C)Nc1cc(C)c2ccccc2n1

>  <inchikey>  (1842) 
JJTGZLLXZDFEQC-GFCCVEGCSA-N

>  <distance_score>  (1842) 
1.923921

>  <ref_mols>  (1842) 
Z1688a,Z0089a

>  <ref_pdb>  (1842) 
Z1688a

>  <HIPPO Compound ID>  (1842) 
146008

>  <name>  (1842) 
P72666

>  <inspiration_score>  (1842) 
None

$$$$
P72668
     RDKit          3D

 17 18  0  0  0  0  0  0  0  0999 V2000
   -1.5042    3.1829  -19.6198 C   0  0  0  0  0  0  0  0  0  0  0  0
   -1.8332    4.2115  -18.8450 C   0  0  0  0  0  0  0  0  0  0  0  0
   -1.5422    5.6051  -19.2598 C   0  0  0  0  0  0  0  0  0  0  0  0
   -2.3930    6.6063  -18.4779 C   0  0  1  0  0  0  0  0  0  0  0  0
   -1.9323    8.0157  -18.8236 C   0  0  0  0  0  0  0  0  0  0  0  0
   -3.7829    6.5115  -18.8610 N   0  0  0  0  0  0  0  0  0  0  0  0
   -4.7137    5.9065  -18.0613 C   0  0  0  0  0  0  0  0  0  0  0  0
   -4.8996    6.1213  -16.7048 C   0  0  0  0  0  0  0  0  0  0  0  0
   -6.0651    5.6365  -16.0959 C   0  0  0  0  0  0  0  0  0  0  0  0
   -7.0370    4.9983  -16.8842 C   0  0  0  0  0  0  0  0  0  0  0  0
   -8.3329    4.6373  -16.4516 C   0  0  0  0  0  0  0  0  0  0  0  0
   -9.2375    4.1653  -17.3960 C   0  0  0  0  0  0  0  0  0  0  0  0
  -10.5437    3.9224  -17.1366 O   0  0  0  0  0  0  0  0  0  0  0  0
   -8.8554    3.9545  -18.7035 C   0  0  0  0  0  0  0  0  0  0  0  0
   -7.5687    4.2240  -19.1033 C   0  0  0  0  0  0  0  0  0  0  0  0
   -6.6852    4.7835  -18.2296 C   0  0  0  0  0  0  0  0  0  0  0  0
   -5.5500    5.1744  -18.7789 N   0  0  0  0  0  0  0  0  0  0  0  0
  1  2  2  0
  2  3  1  0
  3  4  1  0
  4  5  1  6
  4  6  1  0
  6  7  1  0
  7  8  2  0
  8  9  1  0
  9 10  2  0
 10 11  1  0
 11 12  2  0
 12 13  1  0
 12 14  1  0
 14 15  2  0
 15 16  1  0
 16 17  2  0
 17  7  1  0
 16 10  1  0
M  END
>  <energy_score>  (1843) 
-38.604991

>  <alias>  (1843) 
None

>  <HIPPO Pose ID>  (1843) 
72668

>  <smiles>  (1843) 
C=CC[C@@H](C)Nc1ccc2cc(O)ccc2n1

>  <inchikey>  (1843) 
ZVJVCFMAITWENX-SNVBAGLBSA-N

>  <distance_score>  (1843) 
1.059444

>  <ref_mols>  (1843) 
Z1688a,Z0089a

>  <ref_pdb>  (1843) 
Z1688a

>  <HIPPO Compound ID>  (1843) 
146009

>  <name>  (1843) 
P72668

>  <inspiration_score>  (1843) 
None

$$$$
P72672
     RDKit          3D

 17 18  0  0  0  0  0  0  0  0999 V2000
   -2.0600    6.0550  -22.2273 C   0  0  0  0  0  0  0  0  0  0  0  0
   -1.3998    5.3988  -21.2659 C   0  0  0  0  0  0  0  0  0  0  0  0
   -2.0459    4.6507  -20.1244 C   0  0  0  0  0  0  0  0  0  0  0  0
   -2.3350    5.4688  -18.8405 C   0  0  1  0  0  0  0  0  0  0  0  0
   -1.2513    6.5170  -18.5879 C   0  0  0  0  0  0  0  0  0  0  0  0
   -3.6258    6.1627  -18.9330 N   0  0  0  0  0  0  0  0  0  0  0  0
   -4.6207    5.7353  -18.0585 C   0  0  0  0  0  0  0  0  0  0  0  0
   -5.6767    5.2176  -18.6947 N   0  0  0  0  0  0  0  0  0  0  0  0
   -6.7581    4.8555  -17.9962 C   0  0  0  0  0  0  0  0  0  0  0  0
   -7.8579    4.3811  -18.6835 C   0  0  0  0  0  0  0  0  0  0  0  0
   -9.0305    4.0364  -18.0235 C   0  0  0  0  0  0  0  0  0  0  0  0
   -9.0910    4.1225  -16.6424 C   0  0  0  0  0  0  0  0  0  0  0  0
   -7.9944    4.5753  -15.9201 C   0  0  0  0  0  0  0  0  0  0  0  0
   -6.8290    4.9607  -16.5980 C   0  0  0  0  0  0  0  0  0  0  0  0
   -5.7112    5.4750  -15.9376 C   0  0  0  0  0  0  0  0  0  0  0  0
   -4.5938    5.8981  -16.6708 C   0  0  0  0  0  0  0  0  0  0  0  0
   -3.4595    6.5424  -15.9373 C   0  0  0  0  0  0  0  0  0  0  0  0
  1  2  2  0
  2  3  1  0
  3  4  1  0
  4  5  1  6
  4  6  1  0
  6  7  1  0
  7  8  2  0
  8  9  1  0
  9 10  2  0
 10 11  1  0
 11 12  2  0
 12 13  1  0
 13 14  2  0
 14 15  1  0
 15 16  2  0
 16 17  1  0
 16  7  1  0
 14  9  1  0
M  END
>  <energy_score>  (1844) 
-24.225284

>  <alias>  (1844) 
None

>  <HIPPO Pose ID>  (1844) 
72672

>  <smiles>  (1844) 
C=CC[C@@H](C)Nc1nc2ccccc2cc1C

>  <inchikey>  (1844) 
VJFNSEPIZDVBHT-GFCCVEGCSA-N

>  <distance_score>  (1844) 
0.965874

>  <ref_mols>  (1844) 
Z1688a,Z0089a

>  <ref_pdb>  (1844) 
Z1688a

>  <HIPPO Compound ID>  (1844) 
146011

>  <name>  (1844) 
P72672

>  <inspiration_score>  (1844) 
None

$$$$
P72674
     RDKit          3D

 17 19  0  0  0  0  0  0  0  0999 V2000
   -6.3101    5.4335  -14.8960 O   0  0  0  0  0  0  0  0  0  0  0  0
   -7.1174    4.9635  -15.9003 C   0  0  0  0  0  0  0  0  0  0  0  0
   -8.4068    4.5644  -15.5405 C   0  0  0  0  0  0  0  0  0  0  0  0
   -9.2760    4.1098  -16.5162 C   0  0  0  0  0  0  0  0  0  0  0  0
   -8.8760    4.0454  -17.8298 C   0  0  0  0  0  0  0  0  0  0  0  0
   -7.5778    4.4109  -18.1586 C   0  0  0  0  0  0  0  0  0  0  0  0
   -7.2053    4.2674  -19.4692 C   0  0  0  0  0  0  0  0  0  0  0  0
   -5.9455    4.6648  -19.8466 C   0  0  0  0  0  0  0  0  0  0  0  0
   -5.0364    5.1019  -18.8997 C   0  0  0  0  0  0  0  0  0  0  0  0
   -3.7588    5.4154  -19.3946 N   0  0  0  0  0  0  0  0  0  0  0  0
   -2.7098    5.6675  -18.4168 C   0  0  1  0  0  0  0  0  0  0  0  0
   -1.3549    5.3973  -19.0814 C   0  0  0  0  0  0  0  0  0  0  0  0
   -0.2863    5.9831  -18.1767 C   0  0  0  0  0  0  0  0  0  0  0  0
   -0.9787    7.5355  -17.5567 S   0  0  0  0  0  0  0  0  0  0  0  0
   -2.6949    7.1440  -18.0196 C   0  0  0  0  0  0  0  0  0  0  0  0
   -5.3768    5.2442  -17.6033 N   0  0  0  0  0  0  0  0  0  0  0  0
   -6.6439    4.8981  -17.2204 C   0  0  0  0  0  0  0  0  0  0  0  0
  1  2  1  0
  2  3  2  0
  3  4  1  0
  4  5  2  0
  5  6  1  0
  6  7  2  0
  7  8  1  0
  8  9  2  0
  9 10  1  0
 11 10  1  6
 11 12  1  0
 12 13  1  0
 13 14  1  0
 14 15  1  0
  9 16  1  0
 16 17  2  0
 17  2  1  0
 17  6  1  0
 15 11  1  0
M  END
>  <energy_score>  (1845) 
-30.666555

>  <alias>  (1845) 
None

>  <HIPPO Pose ID>  (1845) 
72674

>  <smiles>  (1845) 
Oc1cccc2ccc(N[C@H]3CCSC3)nc12

>  <inchikey>  (1845) 
CRRZMFXFETVMLL-JTQLQIEISA-N

>  <distance_score>  (1845) 
0.911646

>  <ref_mols>  (1845) 
Z1688a,Z0089a

>  <ref_pdb>  (1845) 
Z1688a

>  <HIPPO Compound ID>  (1845) 
146012

>  <name>  (1845) 
P72674

>  <inspiration_score>  (1845) 
None

$$$$
P72675
     RDKit          3D

 17 19  0  0  0  0  0  0  0  0999 V2000
   -3.4254    6.4376  -16.0613 C   0  0  0  0  0  0  0  0  0  0  0  0
   -4.6061    5.8195  -16.7455 C   0  0  0  0  0  0  0  0  0  0  0  0
   -5.7246    5.4807  -15.9725 C   0  0  0  0  0  0  0  0  0  0  0  0
   -6.8687    4.9626  -16.5863 C   0  0  0  0  0  0  0  0  0  0  0  0
   -8.0170    4.6098  -15.8685 C   0  0  0  0  0  0  0  0  0  0  0  0
   -9.1319    4.1415  -16.5515 C   0  0  0  0  0  0  0  0  0  0  0  0
   -9.1224    4.0347  -17.9326 C   0  0  0  0  0  0  0  0  0  0  0  0
   -7.9688    4.3514  -18.6336 C   0  0  0  0  0  0  0  0  0  0  0  0
   -6.8402    4.8060  -17.9812 C   0  0  0  0  0  0  0  0  0  0  0  0
   -5.7606    5.0816  -18.7117 N   0  0  0  0  0  0  0  0  0  0  0  0
   -4.6603    5.5508  -18.1147 C   0  0  0  0  0  0  0  0  0  0  0  0
   -3.6231    5.7582  -19.0196 N   0  0  0  0  0  0  0  0  0  0  0  0
   -2.2650    5.4002  -18.8096 C   0  0  1  0  0  0  0  0  0  0  0  0
   -1.6693    4.5150  -19.9207 C   0  0  0  0  0  0  0  0  0  0  0  0
   -0.3944    5.3895  -19.8155 C   0  0  1  0  0  0  0  0  0  0  0  0
    0.2944    5.6500  -21.0493 O   0  0  0  0  0  0  0  0  0  0  0  0
   -1.3088    6.5144  -19.2839 C   0  0  0  0  0  0  0  0  0  0  0  0
  1  2  1  0
  2  3  2  0
  3  4  1  0
  4  5  2  0
  5  6  1  0
  6  7  2  0
  7  8  1  0
  8  9  2  0
  9 10  1  0
 10 11  2  0
 11 12  1  0
 13 12  1  6
 13 14  1  0
 14 15  1  0
 15 16  1  6
 15 17  1  0
 11  2  1  0
 17 13  1  0
  9  4  1  0
M  END
>  <energy_score>  (1846) 
-23.771188

>  <alias>  (1846) 
None

>  <HIPPO Pose ID>  (1846) 
72675

>  <smiles>  (1846) 
Cc1cc2ccccc2nc1N[C@H]1C[C@@H](O)C1

>  <inchikey>  (1846) 
SGBLCURVJQTJSK-TXEJJXNPSA-N

>  <distance_score>  (1846) 
0.944511

>  <ref_mols>  (1846) 
Z1688a,Z0089a

>  <ref_pdb>  (1846) 
Z1688a

>  <HIPPO Compound ID>  (1846) 
146013

>  <name>  (1846) 
P72675

>  <inspiration_score>  (1846) 
None

$$$$
P72677
     RDKit          3D

 17 19  0  0  0  0  0  0  0  0999 V2000
   -5.1296    6.0024  -14.9790 C   0  0  0  0  0  0  0  0  0  0  0  0
   -5.4693    5.6362  -16.3909 C   0  0  0  0  0  0  0  0  0  0  0  0
   -4.5161    5.8053  -17.3897 C   0  0  0  0  0  0  0  0  0  0  0  0
   -4.8170    5.4337  -18.6911 C   0  0  0  0  0  0  0  0  0  0  0  0
   -3.8547    5.4856  -19.7045 N   0  0  0  0  0  0  0  0  0  0  0  0
   -2.4862    5.1735  -19.4691 C   0  0  1  0  0  0  0  0  0  0  0  0
   -1.7122    4.8768  -20.7597 C   0  0  0  0  0  0  0  0  0  0  0  0
   -0.5560    5.7263  -20.1837 C   0  0  2  0  0  0  0  0  0  0  0  0
    0.4657    5.0066  -19.4675 O   0  0  0  0  0  0  0  0  0  0  0  0
   -1.6105    6.4341  -19.3045 C   0  0  0  0  0  0  0  0  0  0  0  0
   -6.0158    4.9753  -19.0552 N   0  0  0  0  0  0  0  0  0  0  0  0
   -6.9471    4.8128  -18.1119 C   0  0  0  0  0  0  0  0  0  0  0  0
   -8.1813    4.3331  -18.4962 C   0  0  0  0  0  0  0  0  0  0  0  0
   -9.1854    4.0821  -17.5676 C   0  0  0  0  0  0  0  0  0  0  0  0
   -8.9495    4.2979  -16.2241 C   0  0  0  0  0  0  0  0  0  0  0  0
   -7.7351    4.8174  -15.8150 C   0  0  0  0  0  0  0  0  0  0  0  0
   -6.7198    5.0965  -16.7485 C   0  0  0  0  0  0  0  0  0  0  0  0
  1  2  1  0
  2  3  2  0
  3  4  1  0
  4  5  1  0
  6  5  1  6
  6  7  1  0
  7  8  1  0
  8  9  1  1
  8 10  1  0
  4 11  2  0
 11 12  1  0
 12 13  2  0
 13 14  1  0
 14 15  2  0
 15 16  1  0
 16 17  2  0
 17  2  1  0
 10  6  1  0
 17 12  1  0
M  END
>  <energy_score>  (1847) 
-30.123558

>  <alias>  (1847) 
None

>  <HIPPO Pose ID>  (1847) 
72677

>  <smiles>  (1847) 
Cc1cc(N[C@H]2C[C@H](O)C2)nc2ccccc12

>  <inchikey>  (1847) 
UKKQNTOMKYFJDG-XYPYZODXSA-N

>  <distance_score>  (1847) 
1.784811

>  <ref_mols>  (1847) 
Z1688a,Z0089a

>  <ref_pdb>  (1847) 
Z1688a

>  <HIPPO Compound ID>  (1847) 
146014

>  <name>  (1847) 
P72677

>  <inspiration_score>  (1847) 
None

$$$$
P72684
     RDKit          3D

 17 19  0  0  0  0  0  0  0  0999 V2000
   -1.5562    3.3665  -19.3581 N   0  0  0  0  0  0  0  0  0  0  0  0
   -2.0358    4.4213  -19.3058 C   0  0  0  0  0  0  0  0  0  0  0  0
   -2.7183    5.6977  -19.3401 C   0  0  0  0  0  0  0  0  0  0  0  0
   -4.0482    5.6471  -19.9837 N   0  0  0  0  0  0  0  0  0  0  0  0
   -5.1523    5.1521  -19.2450 C   0  0  0  0  0  0  0  0  0  0  0  0
   -6.1832    4.5765  -19.9734 C   0  0  0  0  0  0  0  0  0  0  0  0
   -7.3665    4.2041  -19.3612 C   0  0  0  0  0  0  0  0  0  0  0  0
   -7.5113    4.4404  -18.0141 C   0  0  0  0  0  0  0  0  0  0  0  0
   -8.7124    4.1302  -17.3760 C   0  0  0  0  0  0  0  0  0  0  0  0
   -8.8179    4.3281  -16.0086 C   0  0  0  0  0  0  0  0  0  0  0  0
   -7.7548    4.8583  -15.2880 C   0  0  0  0  0  0  0  0  0  0  0  0
   -6.5817    5.1878  -15.9559 C   0  0  0  0  0  0  0  0  0  0  0  0
   -5.5467    5.7422  -15.2401 O   0  0  0  0  0  0  0  0  0  0  0  0
   -6.4172    4.9876  -17.3191 C   0  0  0  0  0  0  0  0  0  0  0  0
   -5.2476    5.3345  -17.9142 N   0  0  0  0  0  0  0  0  0  0  0  0
   -2.4065    6.7274  -18.2819 C   0  0  0  0  0  0  0  0  0  0  0  0
   -1.8498    6.9042  -19.6594 C   0  0  0  0  0  0  0  0  0  0  0  0
  1  2  3  0
  2  3  1  0
  3  4  1  0
  4  5  1  0
  5  6  2  0
  6  7  1  0
  7  8  2  0
  8  9  1  0
  9 10  2  0
 10 11  1  0
 11 12  2  0
 12 13  1  0
 12 14  1  0
 14 15  2  0
  3 16  1  0
 16 17  1  0
 17  3  1  0
 15  5  1  0
 14  8  1  0
M  END
>  <energy_score>  (1848) 
-23.098998

>  <alias>  (1848) 
None

>  <HIPPO Pose ID>  (1848) 
72684

>  <smiles>  (1848) 
N#CC1(Nc2ccc3cccc(O)c3n2)CC1

>  <inchikey>  (1848) 
GVURWAPREGOWRW-UHFFFAOYSA-N

>  <distance_score>  (1848) 
0.960315

>  <ref_mols>  (1848) 
Z1688a,Z0089a

>  <ref_pdb>  (1848) 
Z1688a

>  <HIPPO Compound ID>  (1848) 
146020

>  <name>  (1848) 
P72684

>  <inspiration_score>  (1848) 
None

$$$$
P72686
     RDKit          3D

 17 18  0  0  0  0  0  0  0  0999 V2000
   -0.0109    5.9608  -19.9857 C   0  0  0  0  0  0  0  0  0  0  0  0
   -1.3542    5.2358  -19.9930 C   0  0  0  0  0  0  0  0  0  0  0  0
   -2.3295    5.8001  -18.9447 C   0  0  1  0  0  0  0  0  0  0  0  0
   -2.6948    7.2036  -19.2503 C   0  0  0  0  0  0  0  0  0  0  0  0
   -2.9464    8.3183  -19.4648 N   0  0  0  0  0  0  0  0  0  0  0  0
   -3.4727    4.9078  -18.9106 N   0  0  0  0  0  0  0  0  0  0  0  0
   -4.5148    5.0670  -18.0297 C   0  0  0  0  0  0  0  0  0  0  0  0
   -5.6744    4.8732  -18.6655 N   0  0  0  0  0  0  0  0  0  0  0  0
   -6.8009    4.7344  -17.9684 C   0  0  0  0  0  0  0  0  0  0  0  0
   -7.9538    4.4087  -18.6540 C   0  0  0  0  0  0  0  0  0  0  0  0
   -9.1408    4.1600  -17.9834 C   0  0  0  0  0  0  0  0  0  0  0  0
   -9.1632    4.2205  -16.6001 C   0  0  0  0  0  0  0  0  0  0  0  0
   -8.0313    4.5917  -15.8854 C   0  0  0  0  0  0  0  0  0  0  0  0
   -6.8403    4.8524  -16.5726 C   0  0  0  0  0  0  0  0  0  0  0  0
   -5.6448    5.1698  -15.9222 C   0  0  0  0  0  0  0  0  0  0  0  0
   -4.4461    5.2491  -16.6485 C   0  0  0  0  0  0  0  0  0  0  0  0
   -3.1750    5.4419  -15.8821 C   0  0  0  0  0  0  0  0  0  0  0  0
  1  2  1  0
  3  2  1  6
  3  4  1  0
  4  5  3  0
  3  6  1  0
  6  7  1  0
  7  8  2  0
  8  9  1  0
  9 10  2  0
 10 11  1  0
 11 12  2  0
 12 13  1  0
 13 14  2  0
 14 15  1  0
 15 16  2  0
 16 17  1  0
 16  7  1  0
 14  9  1  0
M  END
>  <energy_score>  (1849) 
-13.642999

>  <alias>  (1849) 
None

>  <HIPPO Pose ID>  (1849) 
72686

>  <smiles>  (1849) 
CC[C@@H](C#N)Nc1nc2ccccc2cc1C

>  <inchikey>  (1849) 
AFGMOHLJDOKRGS-LBPRGKRZSA-N

>  <distance_score>  (1849) 
0.988505

>  <ref_mols>  (1849) 
Z1688a,Z0089a

>  <ref_pdb>  (1849) 
Z1688a

>  <HIPPO Compound ID>  (1849) 
146021

>  <name>  (1849) 
P72686

>  <inspiration_score>  (1849) 
None

$$$$
P72689
     RDKit          3D

 17 18  0  0  0  0  0  0  0  0999 V2000
    0.3574    5.7309  -18.9942 C   0  0  0  0  0  0  0  0  0  0  0  0
   -1.0004    5.1271  -19.3355 C   0  0  0  0  0  0  0  0  0  0  0  0
   -2.1433    5.7387  -18.5029 C   0  0  1  0  0  0  0  0  0  0  0  0
   -2.4056    7.1381  -18.9161 C   0  0  0  0  0  0  0  0  0  0  0  0
   -2.5869    8.2475  -19.2117 N   0  0  0  0  0  0  0  0  0  0  0  0
   -3.2831    4.8694  -18.6934 N   0  0  0  0  0  0  0  0  0  0  0  0
   -4.4500    5.0161  -18.0013 C   0  0  0  0  0  0  0  0  0  0  0  0
   -4.6213    5.2681  -16.6514 C   0  0  0  0  0  0  0  0  0  0  0  0
   -5.9133    5.1730  -16.1042 C   0  0  0  0  0  0  0  0  0  0  0  0
   -6.9983    4.8139  -16.9288 C   0  0  0  0  0  0  0  0  0  0  0  0
   -8.3387    4.6038  -16.5161 C   0  0  0  0  0  0  0  0  0  0  0  0
   -9.2930    4.2766  -17.4778 C   0  0  0  0  0  0  0  0  0  0  0  0
  -10.6023    4.0584  -17.2140 O   0  0  0  0  0  0  0  0  0  0  0  0
   -8.9481    4.1501  -18.8052 C   0  0  0  0  0  0  0  0  0  0  0  0
   -7.6366    4.2813  -19.1894 C   0  0  0  0  0  0  0  0  0  0  0  0
   -6.6808    4.6298  -18.2841 C   0  0  0  0  0  0  0  0  0  0  0  0
   -5.4686    4.7409  -18.7963 N   0  0  0  0  0  0  0  0  0  0  0  0
  1  2  1  0
  3  2  1  6
  3  4  1  0
  4  5  3  0
  3  6  1  0
  6  7  1  0
  7  8  2  0
  8  9  1  0
  9 10  2  0
 10 11  1  0
 11 12  2  0
 12 13  1  0
 12 14  1  0
 14 15  2  0
 15 16  1  0
 16 17  2  0
 17  7  1  0
 16 10  1  0
M  END
>  <energy_score>  (1850) 
-33.827302

>  <alias>  (1850) 
None

>  <HIPPO Pose ID>  (1850) 
72689

>  <smiles>  (1850) 
CC[C@@H](C#N)Nc1ccc2cc(O)ccc2n1

>  <inchikey>  (1850) 
AHMSQFFWHAGTAU-JTQLQIEISA-N

>  <distance_score>  (1850) 
0.975942

>  <ref_mols>  (1850) 
Z1688a,Z0089a

>  <ref_pdb>  (1850) 
Z1688a

>  <HIPPO Compound ID>  (1850) 
146023

>  <name>  (1850) 
P72689

>  <inspiration_score>  (1850) 
None

$$$$
P72694
     RDKit          3D

 17 19  0  0  0  0  0  0  0  0999 V2000
   -5.2287    6.1508  -15.0236 C   0  0  0  0  0  0  0  0  0  0  0  0
   -5.5226    5.7006  -16.4220 C   0  0  0  0  0  0  0  0  0  0  0  0
   -4.5404    5.8251  -17.4008 C   0  0  0  0  0  0  0  0  0  0  0  0
   -4.7762    5.3443  -18.6788 C   0  0  0  0  0  0  0  0  0  0  0  0
   -3.7775    5.2493  -19.6483 N   0  0  0  0  0  0  0  0  0  0  0  0
   -2.6041    6.0482  -19.7526 C   0  0  2  0  0  0  0  0  0  0  0  0
   -1.6178    5.4604  -20.7833 C   0  0  0  0  0  0  0  0  0  0  0  0
   -0.7943    4.8657  -19.6370 C   0  0  0  0  0  0  0  0  0  0  0  0
   -1.5231    5.7973  -18.6606 C   0  0  1  0  0  0  0  0  0  0  0  0
   -0.7877    6.9586  -18.2108 O   0  0  0  0  0  0  0  0  0  0  0  0
   -5.9627    4.8567  -19.0496 N   0  0  0  0  0  0  0  0  0  0  0  0
   -6.9302    4.7576  -18.1333 C   0  0  0  0  0  0  0  0  0  0  0  0
   -8.1523    4.2598  -18.5309 C   0  0  0  0  0  0  0  0  0  0  0  0
   -9.1779    4.0384  -17.6186 C   0  0  0  0  0  0  0  0  0  0  0  0
   -8.9766    4.3038  -16.2785 C   0  0  0  0  0  0  0  0  0  0  0  0
   -7.7832    4.8629  -15.8620 C   0  0  0  0  0  0  0  0  0  0  0  0
   -6.7495    5.1163  -16.7820 C   0  0  0  0  0  0  0  0  0  0  0  0
  1  2  1  0
  2  3  2  0
  3  4  1  0
  4  5  1  0
  6  5  1  1
  6  7  1  0
  7  8  1  0
  8  9  1  0
  9 10  1  6
  4 11  2  0
 11 12  1  0
 12 13  2  0
 13 14  1  0
 14 15  2  0
 15 16  1  0
 16 17  2  0
 17  2  1  0
  9  6  1  0
 17 12  1  0
M  END
>  <energy_score>  (1851) 
-12.244458

>  <alias>  (1851) 
None

>  <HIPPO Pose ID>  (1851) 
72694

>  <smiles>  (1851) 
Cc1cc(N[C@@H]2CC[C@H]2O)nc2ccccc12

>  <inchikey>  (1851) 
ZLGATGPMHGZKPZ-CHWSQXEVSA-N

>  <distance_score>  (1851) 
1.829957

>  <ref_mols>  (1851) 
Z1688a,Z0089a

>  <ref_pdb>  (1851) 
Z1688a

>  <HIPPO Compound ID>  (1851) 
146025

>  <name>  (1851) 
P72694

>  <inspiration_score>  (1851) 
None

$$$$
P72704
     RDKit          3D

 17 18  0  0  0  0  0  0  0  0999 V2000
   -0.3801    5.5846  -18.3163 C   0  0  0  0  0  0  0  0  0  0  0  0
   -1.2843    5.0671  -19.4322 C   0  0  0  0  0  0  0  0  0  0  0  0
   -2.6895    5.6944  -19.4628 C   0  0  2  0  0  0  0  0  0  0  0  0
   -2.6350    7.1743  -19.4632 C   0  0  0  0  0  0  0  0  0  0  0  0
   -2.5867    8.3356  -19.4635 N   0  0  0  0  0  0  0  0  0  0  0  0
   -3.4578    5.1684  -18.3428 N   0  0  0  0  0  0  0  0  0  0  0  0
   -4.8304    5.0432  -18.3950 C   0  0  0  0  0  0  0  0  0  0  0  0
   -5.4972    4.6622  -19.5438 C   0  0  0  0  0  0  0  0  0  0  0  0
   -6.8363    4.3438  -19.4809 C   0  0  0  0  0  0  0  0  0  0  0  0
   -7.5077    4.4656  -18.2857 C   0  0  0  0  0  0  0  0  0  0  0  0
   -8.8655    4.1590  -18.2244 C   0  0  0  0  0  0  0  0  0  0  0  0
   -9.5180    4.2131  -17.0076 C   0  0  0  0  0  0  0  0  0  0  0  0
   -8.8215    4.5845  -15.8625 C   0  0  0  0  0  0  0  0  0  0  0  0
   -7.4803    4.9288  -15.9586 C   0  0  0  0  0  0  0  0  0  0  0  0
   -6.8453    5.3368  -14.8138 O   0  0  0  0  0  0  0  0  0  0  0  0
   -6.7809    4.8738  -17.1585 C   0  0  0  0  0  0  0  0  0  0  0  0
   -5.4600    5.1762  -17.2113 N   0  0  0  0  0  0  0  0  0  0  0  0
  1  2  1  0
  3  2  1  1
  3  4  1  0
  4  5  3  0
  3  6  1  0
  6  7  1  0
  7  8  2  0
  8  9  1  0
  9 10  2  0
 10 11  1  0
 11 12  2  0
 12 13  1  0
 13 14  2  0
 14 15  1  0
 14 16  1  0
 16 17  2  0
 17  7  1  0
 16 10  1  0
M  END
>  <energy_score>  (1852) 
-40.751915

>  <alias>  (1852) 
None

>  <HIPPO Pose ID>  (1852) 
72704

>  <smiles>  (1852) 
CC[C@H](C#N)Nc1ccc2cccc(O)c2n1

>  <inchikey>  (1852) 
SRRXAXLTPVTXOP-SNVBAGLBSA-N

>  <distance_score>  (1852) 
0.955965

>  <ref_mols>  (1852) 
Z1688a,Z0089a

>  <ref_pdb>  (1852) 
Z1688a

>  <HIPPO Compound ID>  (1852) 
146028

>  <name>  (1852) 
P72704

>  <inspiration_score>  (1852) 
None

$$$$
P72707
     RDKit          3D

 17 18  0  0  0  0  0  0  0  0999 V2000
   -1.4728    3.5970  -19.5304 C   0  0  0  0  0  0  0  0  0  0  0  0
   -1.8472    4.6271  -19.0469 C   0  0  0  0  0  0  0  0  0  0  0  0
   -2.2495    5.8935  -18.4252 C   0  0  1  0  0  0  0  0  0  0  0  0
   -1.3421    7.0448  -18.8873 C   0  0  0  0  0  0  0  0  0  0  0  0
   -1.3657    7.3388  -20.3858 C   0  0  0  0  0  0  0  0  0  0  0  0
   -3.6094    6.2324  -18.7663 N   0  0  0  0  0  0  0  0  0  0  0  0
   -4.6282    5.6996  -18.0130 C   0  0  0  0  0  0  0  0  0  0  0  0
   -4.8124    5.8785  -16.6503 C   0  0  0  0  0  0  0  0  0  0  0  0
   -6.0211    5.4679  -16.0713 C   0  0  0  0  0  0  0  0  0  0  0  0
   -7.0259    4.9198  -16.8871 C   0  0  0  0  0  0  0  0  0  0  0  0
   -8.3375    4.5943  -16.4696 C   0  0  0  0  0  0  0  0  0  0  0  0
   -9.2567    4.1814  -17.4285 C   0  0  0  0  0  0  0  0  0  0  0  0
  -10.5660    3.9507  -17.1719 O   0  0  0  0  0  0  0  0  0  0  0  0
   -8.8812    4.0101  -18.7437 C   0  0  0  0  0  0  0  0  0  0  0  0
   -7.5840    4.2465  -19.1315 C   0  0  0  0  0  0  0  0  0  0  0  0
   -6.6806    4.7414  -18.2396 C   0  0  0  0  0  0  0  0  0  0  0  0
   -5.5225    5.0896  -18.7721 N   0  0  0  0  0  0  0  0  0  0  0  0
  1  2  3  0
  3  2  1  6
  3  4  1  0
  4  5  1  0
  3  6  1  0
  6  7  1  0
  7  8  2  0
  8  9  1  0
  9 10  2  0
 10 11  1  0
 11 12  2  0
 12 13  1  0
 12 14  1  0
 14 15  2  0
 15 16  1  0
 16 17  2  0
 17  7  1  0
 16 10  1  0
M  END
>  <energy_score>  (1853) 
-21.30509

>  <alias>  (1853) 
None

>  <HIPPO Pose ID>  (1853) 
72707

>  <smiles>  (1853) 
C#C[C@@H](CC)Nc1ccc2cc(O)ccc2n1

>  <inchikey>  (1853) 
JZVFFDGKOXNQQJ-NSHDSACASA-N

>  <distance_score>  (1853) 
0.926934

>  <ref_mols>  (1853) 
Z1688a,Z0089a

>  <ref_pdb>  (1853) 
Z1688a

>  <HIPPO Compound ID>  (1853) 
146029

>  <name>  (1853) 
P72707

>  <inspiration_score>  (1853) 
None

$$$$
P72712
     RDKit          3D

 17 18  0  0  0  0  0  0  0  0999 V2000
   -1.5158    3.4970  -19.5072 C   0  0  0  0  0  0  0  0  0  0  0  0
   -2.0357    4.5580  -19.7068 C   0  0  0  0  0  0  0  0  0  0  0  0
   -2.6709    5.8336  -20.0465 C   0  0  2  0  0  0  0  0  0  0  0  0
   -1.9858    7.0223  -19.3635 C   0  0  0  0  0  0  0  0  0  0  0  0
   -2.6177    8.3646  -19.7090 C   0  0  0  0  0  0  0  0  0  0  0  0
   -4.1045    5.7894  -19.8920 N   0  0  0  0  0  0  0  0  0  0  0  0
   -4.8460    5.4956  -18.7854 C   0  0  0  0  0  0  0  0  0  0  0  0
   -4.4595    5.7233  -17.4791 C   0  0  0  0  0  0  0  0  0  0  0  0
   -5.3562    5.4912  -16.4340 C   0  0  0  0  0  0  0  0  0  0  0  0
   -4.9348    5.7736  -15.0241 C   0  0  0  0  0  0  0  0  0  0  0  0
   -6.6433    5.0138  -16.7447 C   0  0  0  0  0  0  0  0  0  0  0  0
   -7.6289    4.7371  -15.7765 C   0  0  0  0  0  0  0  0  0  0  0  0
   -8.8846    4.2903  -16.1476 C   0  0  0  0  0  0  0  0  0  0  0  0
   -9.1818    4.1225  -17.4860 C   0  0  0  0  0  0  0  0  0  0  0  0
   -8.2078    4.3722  -18.4475 C   0  0  0  0  0  0  0  0  0  0  0  0
   -6.9444    4.8069  -18.1023 C   0  0  0  0  0  0  0  0  0  0  0  0
   -6.0651    5.0326  -19.0817 N   0  0  0  0  0  0  0  0  0  0  0  0
  1  2  3  0
  3  2  1  1
  3  4  1  0
  4  5  1  0
  3  6  1  0
  6  7  1  0
  7  8  2  0
  8  9  1  0
  9 10  1  0
  9 11  2  0
 11 12  1  0
 12 13  2  0
 13 14  1  0
 14 15  2  0
 15 16  1  0
 16 17  2  0
 17  7  1  0
 16 11  1  0
M  END
>  <energy_score>  (1854) 
-23.830975

>  <alias>  (1854) 
None

>  <HIPPO Pose ID>  (1854) 
72712

>  <smiles>  (1854) 
C#C[C@H](CC)Nc1cc(C)c2ccccc2n1

>  <inchikey>  (1854) 
HATIFYZIBPBKLX-GFCCVEGCSA-N

>  <distance_score>  (1854) 
1.944052

>  <ref_mols>  (1854) 
Z1688a,Z0089a

>  <ref_pdb>  (1854) 
Z1688a

>  <HIPPO Compound ID>  (1854) 
146032

>  <name>  (1854) 
P72712

>  <inspiration_score>  (1854) 
None

$$$$
P72714
     RDKit          3D

 17 18  0  0  0  0  0  0  0  0999 V2000
   -1.3515    2.9756  -19.4943 C   0  0  0  0  0  0  0  0  0  0  0  0
   -1.4567    4.1558  -19.6415 C   0  0  0  0  0  0  0  0  0  0  0  0
   -1.6126    5.5958  -19.7293 C   0  0  0  0  0  0  0  0  0  0  0  0
   -3.0277    6.0052  -19.3081 C   0  0  2  0  0  0  0  0  0  0  0  0
   -3.2019    7.4996  -19.5624 C   0  0  0  0  0  0  0  0  0  0  0  0
   -3.2228    5.7410  -17.8727 N   0  0  0  0  0  0  0  0  0  0  0  0
   -4.5295    5.4647  -17.4712 C   0  0  0  0  0  0  0  0  0  0  0  0
   -4.8643    5.4926  -16.1219 C   0  0  0  0  0  0  0  0  0  0  0  0
   -6.1730    5.1977  -15.7257 C   0  0  0  0  0  0  0  0  0  0  0  0
   -7.1216    4.8382  -16.6925 C   0  0  0  0  0  0  0  0  0  0  0  0
   -8.4768    4.5397  -16.4223 C   0  0  0  0  0  0  0  0  0  0  0  0
   -9.3252    4.2349  -17.4835 C   0  0  0  0  0  0  0  0  0  0  0  0
  -10.6586    4.0307  -17.3336 O   0  0  0  0  0  0  0  0  0  0  0  0
   -8.8414    4.1537  -18.7734 C   0  0  0  0  0  0  0  0  0  0  0  0
   -7.5032    4.3970  -19.0201 C   0  0  0  0  0  0  0  0  0  0  0  0
   -6.6555    4.7826  -18.0169 C   0  0  0  0  0  0  0  0  0  0  0  0
   -5.4188    5.0994  -18.3896 N   0  0  0  0  0  0  0  0  0  0  0  0
  1  2  3  0
  2  3  1  0
  3  4  1  0
  4  5  1  1
  4  6  1  0
  6  7  1  0
  7  8  2  0
  8  9  1  0
  9 10  2  0
 10 11  1  0
 11 12  2  0
 12 13  1  0
 12 14  1  0
 14 15  2  0
 15 16  1  0
 16 17  2  0
 17  7  1  0
 16 10  1  0
M  END
>  <energy_score>  (1855) 
-36.234153

>  <alias>  (1855) 
None

>  <HIPPO Pose ID>  (1855) 
72714

>  <smiles>  (1855) 
C#CC[C@H](C)Nc1ccc2cc(O)ccc2n1

>  <inchikey>  (1855) 
PDJCMYGMDUIKQP-JTQLQIEISA-N

>  <distance_score>  (1855) 
1.022275

>  <ref_mols>  (1855) 
Z1688a,Z0089a

>  <ref_pdb>  (1855) 
Z1688a

>  <HIPPO Compound ID>  (1855) 
146033

>  <name>  (1855) 
P72714

>  <inspiration_score>  (1855) 
None

$$$$
P72716
     RDKit          3D

 17 18  0  0  0  0  0  0  0  0999 V2000
   -1.0729    5.6376  -22.5082 C   0  0  0  0  0  0  0  0  0  0  0  0
   -1.3894    5.2801  -21.4062 C   0  0  0  0  0  0  0  0  0  0  0  0
   -1.7792    4.8409  -20.0522 C   0  0  0  0  0  0  0  0  0  0  0  0
   -2.6908    5.8767  -19.3644 C   0  0  2  0  0  0  0  0  0  0  0  0
   -1.8752    7.0446  -18.8107 C   0  0  0  0  0  0  0  0  0  0  0  0
   -3.4037    5.2379  -18.2646 N   0  0  0  0  0  0  0  0  0  0  0  0
   -4.7731    5.0556  -18.3430 C   0  0  0  0  0  0  0  0  0  0  0  0
   -5.3989    4.7005  -19.5188 C   0  0  0  0  0  0  0  0  0  0  0  0
   -6.7382    4.3845  -19.4970 C   0  0  0  0  0  0  0  0  0  0  0  0
   -7.4491    4.4783  -18.3177 C   0  0  0  0  0  0  0  0  0  0  0  0
   -8.8149    4.1854  -18.3267 C   0  0  0  0  0  0  0  0  0  0  0  0
   -9.5250    4.1934  -17.1424 C   0  0  0  0  0  0  0  0  0  0  0  0
   -8.8665    4.4858  -15.9559 C   0  0  0  0  0  0  0  0  0  0  0  0
   -7.5121    4.8191  -15.9701 C   0  0  0  0  0  0  0  0  0  0  0  0
   -6.9347    5.1231  -14.7623 O   0  0  0  0  0  0  0  0  0  0  0  0
   -6.7588    4.8378  -17.1465 C   0  0  0  0  0  0  0  0  0  0  0  0
   -5.4333    5.1343  -17.1736 N   0  0  0  0  0  0  0  0  0  0  0  0
  1  2  3  0
  2  3  1  0
  3  4  1  0
  4  5  1  1
  4  6  1  0
  6  7  1  0
  7  8  2  0
  8  9  1  0
  9 10  2  0
 10 11  1  0
 11 12  2  0
 12 13  1  0
 13 14  2  0
 14 15  1  0
 14 16  1  0
 16 17  2  0
 17  7  1  0
 16 10  1  0
M  END
>  <energy_score>  (1856) 
-14.651452

>  <alias>  (1856) 
None

>  <HIPPO Pose ID>  (1856) 
72716

>  <smiles>  (1856) 
C#CC[C@H](C)Nc1ccc2cccc(O)c2n1

>  <inchikey>  (1856) 
GJFOUDAQLBVMCI-JTQLQIEISA-N

>  <distance_score>  (1856) 
0.814732

>  <ref_mols>  (1856) 
Z1688a,Z0089a

>  <ref_pdb>  (1856) 
Z1688a

>  <HIPPO Compound ID>  (1856) 
146034

>  <name>  (1856) 
P72716

>  <inspiration_score>  (1856) 
None

$$$$
P72719
     RDKit          3D

 17 18  0  0  0  0  0  0  0  0999 V2000
   -1.8209    4.4417  -19.1713 C   0  0  0  0  0  0  0  0  0  0  0  0
   -2.6887    5.6849  -18.9615 C   0  0  2  0  0  0  0  0  0  0  0  0
   -3.9153    5.5410  -19.7477 N   0  0  0  0  0  0  0  0  0  0  0  0
   -5.0780    5.1109  -19.1079 C   0  0  0  0  0  0  0  0  0  0  0  0
   -6.0966    4.6179  -19.9112 C   0  0  0  0  0  0  0  0  0  0  0  0
   -7.3139    4.2431  -19.3693 C   0  0  0  0  0  0  0  0  0  0  0  0
   -7.5181    4.4315  -18.0226 C   0  0  0  0  0  0  0  0  0  0  0  0
   -8.7463    4.1148  -17.4456 C   0  0  0  0  0  0  0  0  0  0  0  0
   -8.9041    4.2758  -16.0784 C   0  0  0  0  0  0  0  0  0  0  0  0
   -7.8732    4.7861  -15.2977 C   0  0  0  0  0  0  0  0  0  0  0  0
   -6.6722    5.1227  -15.9062 C   0  0  0  0  0  0  0  0  0  0  0  0
   -5.6635    5.6649  -15.1444 O   0  0  0  0  0  0  0  0  0  0  0  0
   -6.4523    4.9417  -17.2624 C   0  0  0  0  0  0  0  0  0  0  0  0
   -5.2488    5.2686  -17.7844 N   0  0  0  0  0  0  0  0  0  0  0  0
   -1.9232    6.9709  -19.3822 C   0  0  1  0  0  0  0  0  0  0  0  0
   -1.6751    7.0943  -20.8849 C   0  0  0  0  0  0  0  0  0  0  0  0
   -2.6179    8.1398  -18.9263 O   0  0  0  0  0  0  0  0  0  0  0  0
  2  1  1  6
  2  3  1  0
  3  4  1  0
  4  5  2  0
  5  6  1  0
  6  7  2  0
  7  8  1  0
  8  9  2  0
  9 10  1  0
 10 11  2  0
 11 12  1  0
 11 13  1  0
 13 14  2  0
  2 15  1  0
 15 16  1  6
 15 17  1  0
 14  4  1  0
 13  7  1  0
M  END
>  <energy_score>  (1857) 
-38.398916

>  <alias>  (1857) 
None

>  <HIPPO Pose ID>  (1857) 
72719

>  <smiles>  (1857) 
C[C@H](Nc1ccc2cccc(O)c2n1)[C@@H](C)O

>  <inchikey>  (1857) 
DMBWYUFQCKQSOI-DTWKUNHWSA-N

>  <distance_score>  (1857) 
0.896942

>  <ref_mols>  (1857) 
Z1688a,Z0089a

>  <ref_pdb>  (1857) 
Z1688a

>  <HIPPO Compound ID>  (1857) 
146035

>  <name>  (1857) 
P72719

>  <inspiration_score>  (1857) 
None

$$$$
P72723
     RDKit          3D

 17 18  0  0  0  0  0  0  0  0999 V2000
   -1.6311    5.5317  -22.3383 C   0  0  0  0  0  0  0  0  0  0  0  0
   -1.6637    5.1027  -21.2170 C   0  0  0  0  0  0  0  0  0  0  0  0
   -1.6775    4.6064  -19.8282 C   0  0  0  0  0  0  0  0  0  0  0  0
   -2.2104    5.6235  -18.8001 C   0  0  1  0  0  0  0  0  0  0  0  0
   -1.3974    6.9182  -18.8482 C   0  0  0  0  0  0  0  0  0  0  0  0
   -3.6115    5.9686  -19.0134 N   0  0  0  0  0  0  0  0  0  0  0  0
   -4.5876    5.6199  -18.1045 C   0  0  0  0  0  0  0  0  0  0  0  0
   -5.6510    5.0818  -18.7135 N   0  0  0  0  0  0  0  0  0  0  0  0
   -6.7482    4.7859  -18.0108 C   0  0  0  0  0  0  0  0  0  0  0  0
   -7.8594    4.3250  -18.6890 C   0  0  0  0  0  0  0  0  0  0  0  0
   -9.0379    4.0204  -18.0204 C   0  0  0  0  0  0  0  0  0  0  0  0
   -9.0938    4.1372  -16.6411 C   0  0  0  0  0  0  0  0  0  0  0  0
   -7.9924    4.5981  -15.9313 C   0  0  0  0  0  0  0  0  0  0  0  0
   -6.8218    4.9466  -16.6199 C   0  0  0  0  0  0  0  0  0  0  0  0
   -5.7025    5.4836  -15.9813 C   0  0  0  0  0  0  0  0  0  0  0  0
   -4.5786    5.8714  -16.7290 C   0  0  0  0  0  0  0  0  0  0  0  0
   -3.4769    6.5873  -16.0087 C   0  0  0  0  0  0  0  0  0  0  0  0
  1  2  3  0
  2  3  1  0
  3  4  1  0
  4  5  1  6
  4  6  1  0
  6  7  1  0
  7  8  2  0
  8  9  1  0
  9 10  2  0
 10 11  1  0
 11 12  2  0
 12 13  1  0
 13 14  2  0
 14 15  1  0
 15 16  2  0
 16 17  1  0
 16  7  1  0
 14  9  1  0
M  END
>  <energy_score>  (1858) 
-17.107957

>  <alias>  (1858) 
None

>  <HIPPO Pose ID>  (1858) 
72723

>  <smiles>  (1858) 
C#CC[C@@H](C)Nc1nc2ccccc2cc1C

>  <inchikey>  (1858) 
GRTWXTHUFBNOEV-GFCCVEGCSA-N

>  <distance_score>  (1858) 
0.940683

>  <ref_mols>  (1858) 
Z1688a,Z0089a

>  <ref_pdb>  (1858) 
Z1688a

>  <HIPPO Compound ID>  (1858) 
146036

>  <name>  (1858) 
P72723

>  <inspiration_score>  (1858) 
None

$$$$
P72724
     RDKit          3D

 17 18  0  0  0  0  0  0  0  0999 V2000
    0.9719    5.7372  -19.1517 C   0  0  0  0  0  0  0  0  0  0  0  0
   -0.1502    5.3093  -19.1549 C   0  0  0  0  0  0  0  0  0  0  0  0
   -1.5255    4.7783  -19.1482 C   0  0  0  0  0  0  0  0  0  0  0  0
   -2.5189    5.6939  -19.8822 C   0  0  2  0  0  0  0  0  0  0  0  0
   -2.4434    7.1715  -19.4933 C   0  0  0  0  0  0  0  0  0  0  0  0
   -3.8740    5.1828  -19.7939 N   0  0  0  0  0  0  0  0  0  0  0  0
   -4.7512    5.2132  -18.7501 C   0  0  0  0  0  0  0  0  0  0  0  0
   -4.4176    5.5314  -17.4449 C   0  0  0  0  0  0  0  0  0  0  0  0
   -5.3763    5.4557  -16.4348 C   0  0  0  0  0  0  0  0  0  0  0  0
   -4.9968    5.8070  -15.0287 C   0  0  0  0  0  0  0  0  0  0  0  0
   -6.6654    5.0092  -16.7724 C   0  0  0  0  0  0  0  0  0  0  0  0
   -7.6818    4.7897  -15.8233 C   0  0  0  0  0  0  0  0  0  0  0  0
   -8.9286    4.3368  -16.2126 C   0  0  0  0  0  0  0  0  0  0  0  0
   -9.1957    4.1385  -17.5530 C   0  0  0  0  0  0  0  0  0  0  0  0
   -8.1928    4.3402  -18.4964 C   0  0  0  0  0  0  0  0  0  0  0  0
   -6.9258    4.7456  -18.1303 C   0  0  0  0  0  0  0  0  0  0  0  0
   -5.9940    4.8531  -19.0835 N   0  0  0  0  0  0  0  0  0  0  0  0
  1  2  3  0
  2  3  1  0
  3  4  1  0
  4  5  1  1
  4  6  1  0
  6  7  1  0
  7  8  2  0
  8  9  1  0
  9 10  1  0
  9 11  2  0
 11 12  1  0
 12 13  2  0
 13 14  1  0
 14 15  2  0
 15 16  1  0
 16 17  2  0
 17  7  1  0
 16 11  1  0
M  END
>  <energy_score>  (1859) 
-14.471291

>  <alias>  (1859) 
None

>  <HIPPO Pose ID>  (1859) 
72724

>  <smiles>  (1859) 
C#CC[C@H](C)Nc1cc(C)c2ccccc2n1

>  <inchikey>  (1859) 
XTVCKAICKKSNPT-LBPRGKRZSA-N

>  <distance_score>  (1859) 
1.86975

>  <ref_mols>  (1859) 
Z1688a,Z0089a

>  <ref_pdb>  (1859) 
Z1688a

>  <HIPPO Compound ID>  (1859) 
146037

>  <name>  (1859) 
P72724

>  <inspiration_score>  (1859) 
None

$$$$
P72727
     RDKit          3D

 17 18  0  0  0  0  0  0  0  0999 V2000
   -3.4655    6.5679  -16.0541 C   0  0  0  0  0  0  0  0  0  0  0  0
   -4.5918    5.8673  -16.7508 C   0  0  0  0  0  0  0  0  0  0  0  0
   -5.7042    5.4936  -15.9798 C   0  0  0  0  0  0  0  0  0  0  0  0
   -6.8360    4.9511  -16.5941 C   0  0  0  0  0  0  0  0  0  0  0  0
   -7.9942    4.6067  -15.8854 C   0  0  0  0  0  0  0  0  0  0  0  0
   -9.1046    4.1376  -16.5760 C   0  0  0  0  0  0  0  0  0  0  0  0
   -9.0765    4.0162  -17.9558 C   0  0  0  0  0  0  0  0  0  0  0  0
   -7.9110    4.3184  -18.6453 C   0  0  0  0  0  0  0  0  0  0  0  0
   -6.7884    4.7764  -17.9841 C   0  0  0  0  0  0  0  0  0  0  0  0
   -5.7001    5.0525  -18.7036 N   0  0  0  0  0  0  0  0  0  0  0  0
   -4.6212    5.5825  -18.1167 C   0  0  0  0  0  0  0  0  0  0  0  0
   -3.6627    5.8823  -19.0490 N   0  0  0  0  0  0  0  0  0  0  0  0
   -2.2432    5.6409  -18.8608 C   0  0  1  0  0  0  0  0  0  0  0  0
   -1.8089    4.3377  -19.5234 C   0  0  0  0  0  0  0  0  0  0  0  0
   -1.4718    6.8801  -19.3840 C   0  0  2  0  0  0  0  0  0  0  0  0
   -1.4353    7.0014  -20.9040 C   0  0  0  0  0  0  0  0  0  0  0  0
   -0.1167    6.8688  -18.9177 O   0  0  0  0  0  0  0  0  0  0  0  0
  1  2  1  0
  2  3  2  0
  3  4  1  0
  4  5  2  0
  5  6  1  0
  6  7  2  0
  7  8  1  0
  8  9  2  0
  9 10  1  0
 10 11  2  0
 11 12  1  0
 12 13  1  0
 13 14  1  6
 13 15  1  0
 15 16  1  6
 15 17  1  0
 11  2  1  0
  9  4  1  0
M  END
>  <energy_score>  (1860) 
-104.834879

>  <alias>  (1860) 
None

>  <HIPPO Pose ID>  (1860) 
72727

>  <smiles>  (1860) 
Cc1cc2ccccc2nc1N[C@@H](C)[C@H](C)O

>  <inchikey>  (1860) 
MFHGMEZDTPEWJC-QWRGUYRKSA-N

>  <distance_score>  (1860) 
0.928533

>  <ref_mols>  (1860) 
Z1688a,Z0089a

>  <ref_pdb>  (1860) 
Z1688a

>  <HIPPO Compound ID>  (1860) 
146038

>  <name>  (1860) 
P72727

>  <inspiration_score>  (1860) 
None

$$$$
P72731
     RDKit          3D

 17 18  0  0  0  0  0  0  0  0999 V2000
   -4.9812    5.8612  -15.0611 C   0  0  0  0  0  0  0  0  0  0  0  0
   -5.3627    5.5005  -16.4647 C   0  0  0  0  0  0  0  0  0  0  0  0
   -4.4213    5.6264  -17.4879 C   0  0  0  0  0  0  0  0  0  0  0  0
   -4.7578    5.2949  -18.7875 C   0  0  0  0  0  0  0  0  0  0  0  0
   -3.9231    5.3847  -19.8609 N   0  0  0  0  0  0  0  0  0  0  0  0
   -2.4799    5.5771  -19.9293 C   0  0  2  0  0  0  0  0  0  0  0  0
   -1.7030    4.4921  -19.2006 C   0  0  0  0  0  0  0  0  0  0  0  0
   -2.0990    7.0230  -19.5235 C   0  0  1  0  0  0  0  0  0  0  0  0
   -0.6872    7.4090  -19.9460 C   0  0  0  0  0  0  0  0  0  0  0  0
   -3.0030    7.9438  -20.1553 O   0  0  0  0  0  0  0  0  0  0  0  0
   -5.9875    4.8795  -19.1043 N   0  0  0  0  0  0  0  0  0  0  0  0
   -6.9091    4.7483  -18.1433 C   0  0  0  0  0  0  0  0  0  0  0  0
   -8.1721    4.3211  -18.5000 C   0  0  0  0  0  0  0  0  0  0  0  0
   -9.1692    4.1134  -17.5513 C   0  0  0  0  0  0  0  0  0  0  0  0
   -8.9002    4.3247  -16.2133 C   0  0  0  0  0  0  0  0  0  0  0  0
   -7.6550    4.7918  -15.8332 C   0  0  0  0  0  0  0  0  0  0  0  0
   -6.6450    5.0216  -16.7888 C   0  0  0  0  0  0  0  0  0  0  0  0
  1  2  1  0
  2  3  2  0
  3  4  1  0
  4  5  1  0
  5  6  1  0
  6  7  1  1
  6  8  1  0
  8  9  1  6
  8 10  1  0
  4 11  2  0
 11 12  1  0
 12 13  2  0
 13 14  1  0
 14 15  2  0
 15 16  1  0
 16 17  2  0
 17  2  1  0
 17 12  1  0
M  END
>  <energy_score>  (1861) 
-30.694828

>  <alias>  (1861) 
None

>  <HIPPO Pose ID>  (1861) 
72731

>  <smiles>  (1861) 
Cc1cc(N[C@H](C)[C@@H](C)O)nc2ccccc12

>  <inchikey>  (1861) 
XFVDRYTYJQBBDA-GHMZBOCLSA-N

>  <distance_score>  (1861) 
1.777924

>  <ref_mols>  (1861) 
Z1688a,Z0089a

>  <ref_pdb>  (1861) 
Z1688a

>  <HIPPO Compound ID>  (1861) 
146039

>  <name>  (1861) 
P72731

>  <inspiration_score>  (1861) 
None

$$$$
P72734
     RDKit          3D

 17 18  0  0  0  0  0  0  0  0999 V2000
   -1.6859    4.4357  -19.2585 C   0  0  0  0  0  0  0  0  0  0  0  0
   -2.1368    5.6878  -18.5021 C   0  0  2  0  0  0  0  0  0  0  0  0
   -3.5123    5.9936  -18.8388 N   0  0  0  0  0  0  0  0  0  0  0  0
   -4.5464    5.5290  -18.0713 C   0  0  0  0  0  0  0  0  0  0  0  0
   -4.7060    5.7086  -16.7067 C   0  0  0  0  0  0  0  0  0  0  0  0
   -5.9304    5.3602  -16.1157 C   0  0  0  0  0  0  0  0  0  0  0  0
   -6.9728    4.8647  -16.9204 C   0  0  0  0  0  0  0  0  0  0  0  0
   -8.2911    4.5784  -16.4888 C   0  0  0  0  0  0  0  0  0  0  0  0
   -9.2359    4.1995  -17.4381 C   0  0  0  0  0  0  0  0  0  0  0  0
  -10.5456    3.9879  -17.1684 O   0  0  0  0  0  0  0  0  0  0  0  0
   -8.8859    4.0392  -18.7615 C   0  0  0  0  0  0  0  0  0  0  0  0
   -7.5866    4.2368  -19.1631 C   0  0  0  0  0  0  0  0  0  0  0  0
   -6.6526    4.6852  -18.2782 C   0  0  0  0  0  0  0  0  0  0  0  0
   -5.4837    4.9760  -18.8220 N   0  0  0  0  0  0  0  0  0  0  0  0
   -1.2605    6.9074  -18.8868 C   0  0  1  0  0  0  0  0  0  0  0  0
   -1.6747    8.1864  -18.1608 C   0  0  0  0  0  0  0  0  0  0  0  0
    0.1171    6.6647  -18.5727 O   0  0  0  0  0  0  0  0  0  0  0  0
  2  1  1  6
  2  3  1  0
  3  4  1  0
  4  5  2  0
  5  6  1  0
  6  7  2  0
  7  8  1  0
  8  9  2  0
  9 10  1  0
  9 11  1  0
 11 12  2  0
 12 13  1  0
 13 14  2  0
  2 15  1  0
 15 16  1  1
 15 17  1  0
 14  4  1  0
 13  7  1  0
M  END
>  <energy_score>  (1862) 
-35.434378

>  <alias>  (1862) 
None

>  <HIPPO Pose ID>  (1862) 
72734

>  <smiles>  (1862) 
C[C@H](Nc1ccc2cc(O)ccc2n1)[C@@H](C)O

>  <inchikey>  (1862) 
RQNBBQGCUQJCQE-DTWKUNHWSA-N

>  <distance_score>  (1862) 
0.926563

>  <ref_mols>  (1862) 
Z1688a,Z0089a

>  <ref_pdb>  (1862) 
Z1688a

>  <HIPPO Compound ID>  (1862) 
146040

>  <name>  (1862) 
P72734

>  <inspiration_score>  (1862) 
None

$$$$
P72737
     RDKit          3D

 17 19  0  0  0  0  0  0  0  0999 V2000
   -0.0124    5.4958  -19.0102 C   0  0  0  0  0  0  0  0  0  0  0  0
   -1.3028    4.8791  -19.5277 C   0  0  0  0  0  0  0  0  0  0  0  0
   -2.4850    5.8365  -19.6187 C   0  0  0  0  0  0  0  0  0  0  0  0
   -3.7715    5.1580  -19.5249 N   0  0  0  0  0  0  0  0  0  0  0  0
   -4.6740    5.1656  -18.4724 C   0  0  0  0  0  0  0  0  0  0  0  0
   -5.9075    4.8836  -18.9192 N   0  0  0  0  0  0  0  0  0  0  0  0
   -6.9183    4.7270  -18.0684 C   0  0  0  0  0  0  0  0  0  0  0  0
   -8.1551    4.3819  -18.5811 C   0  0  0  0  0  0  0  0  0  0  0  0
   -9.2354    4.1395  -17.7462 C   0  0  0  0  0  0  0  0  0  0  0  0
   -9.0608    4.2335  -16.3741 C   0  0  0  0  0  0  0  0  0  0  0  0
   -7.8398    4.6177  -15.8337 C   0  0  0  0  0  0  0  0  0  0  0  0
   -6.7590    4.8701  -16.6850 C   0  0  0  0  0  0  0  0  0  0  0  0
   -5.4880    5.2203  -16.2179 C   0  0  0  0  0  0  0  0  0  0  0  0
   -4.4115    5.3498  -17.1138 C   0  0  0  0  0  0  0  0  0  0  0  0
   -3.0557    5.6228  -16.5423 C   0  0  0  0  0  0  0  0  0  0  0  0
   -2.3774    7.3216  -19.3148 C   0  0  0  0  0  0  0  0  0  0  0  0
   -2.3753    6.8714  -20.7346 C   0  0  0  0  0  0  0  0  0  0  0  0
  1  2  1  0
  2  3  1  0
  3  4  1  0
  4  5  1  0
  5  6  2  0
  6  7  1  0
  7  8  2  0
  8  9  1  0
  9 10  2  0
 10 11  1  0
 11 12  2  0
 12 13  1  0
 13 14  2  0
 14 15  1  0
  3 16  1  0
 16 17  1  0
 17  3  1  0
 14  5  1  0
 12  7  1  0
M  END
>  <energy_score>  (1863) 
-25.592766

>  <alias>  (1863) 
None

>  <HIPPO Pose ID>  (1863) 
72737

>  <smiles>  (1863) 
CCC1(Nc2nc3ccccc3cc2C)CC1

>  <inchikey>  (1863) 
JXVJRTDZOZSMSU-UHFFFAOYSA-N

>  <distance_score>  (1863) 
1.083471

>  <ref_mols>  (1863) 
Z1688a,Z0089a

>  <ref_pdb>  (1863) 
Z1688a

>  <HIPPO Compound ID>  (1863) 
146041

>  <name>  (1863) 
P72737

>  <inspiration_score>  (1863) 
None

$$$$
P72739
     RDKit          3D

 17 19  0  0  0  0  0  0  0  0999 V2000
   -1.4732    3.7583  -19.4610 C   0  0  0  0  0  0  0  0  0  0  0  0
   -2.1124    5.0345  -19.9308 C   0  0  0  0  0  0  0  0  0  0  0  0
   -2.3067    6.0741  -18.8306 C   0  0  0  0  0  0  0  0  0  0  0  0
   -3.6929    6.5857  -18.7314 N   0  0  0  0  0  0  0  0  0  0  0  0
   -4.6394    5.8568  -18.0050 C   0  0  0  0  0  0  0  0  0  0  0  0
   -4.7750    5.9276  -16.6275 C   0  0  0  0  0  0  0  0  0  0  0  0
   -5.9571    5.4501  -16.0459 C   0  0  0  0  0  0  0  0  0  0  0  0
   -6.9688    4.9215  -16.8679 C   0  0  0  0  0  0  0  0  0  0  0  0
   -8.2693    4.5641  -16.4410 C   0  0  0  0  0  0  0  0  0  0  0  0
   -9.1968    4.1611  -17.3964 C   0  0  0  0  0  0  0  0  0  0  0  0
  -10.5031    3.9252  -17.1296 O   0  0  0  0  0  0  0  0  0  0  0  0
   -8.8340    4.0080  -18.7177 C   0  0  0  0  0  0  0  0  0  0  0  0
   -7.5474    4.2871  -19.1179 C   0  0  0  0  0  0  0  0  0  0  0  0
   -6.6459    4.8024  -18.2328 C   0  0  0  0  0  0  0  0  0  0  0  0
   -5.5216    5.2382  -18.7778 N   0  0  0  0  0  0  0  0  0  0  0  0
   -1.2332    7.1479  -18.7788 C   0  0  0  0  0  0  0  0  0  0  0  0
   -1.3625    6.1879  -17.6455 C   0  0  0  0  0  0  0  0  0  0  0  0
  1  2  1  0
  2  3  1  0
  3  4  1  0
  4  5  1  0
  5  6  2  0
  6  7  1  0
  7  8  2  0
  8  9  1  0
  9 10  2  0
 10 11  1  0
 10 12  1  0
 12 13  2  0
 13 14  1  0
 14 15  2  0
  3 16  1  0
 16 17  1  0
 17  3  1  0
 15  5  1  0
 14  8  1  0
M  END
>  <energy_score>  (1864) 
-6.501172

>  <alias>  (1864) 
None

>  <HIPPO Pose ID>  (1864) 
72739

>  <smiles>  (1864) 
CCC1(Nc2ccc3cc(O)ccc3n2)CC1

>  <inchikey>  (1864) 
VLUQRKZROJVJKQ-UHFFFAOYSA-N

>  <distance_score>  (1864) 
0.986217

>  <ref_mols>  (1864) 
Z1688a,Z0089a

>  <ref_pdb>  (1864) 
Z1688a

>  <HIPPO Compound ID>  (1864) 
146043

>  <name>  (1864) 
P72739

>  <inspiration_score>  (1864) 
None

$$$$
P72741
     RDKit          3D

 17 19  0  0  0  0  0  0  0  0999 V2000
   -3.5122    5.8021  -15.2166 C   0  0  0  0  0  0  0  0  0  0  0  0
   -4.6197    5.4419  -16.1636 C   0  0  0  0  0  0  0  0  0  0  0  0
   -5.9073    5.2054  -15.6637 C   0  0  0  0  0  0  0  0  0  0  0  0
   -6.9395    4.8492  -16.5361 C   0  0  0  0  0  0  0  0  0  0  0  0
   -8.2477    4.5616  -16.1058 C   0  0  0  0  0  0  0  0  0  0  0  0
   -9.2289    4.2395  -17.0401 C   0  0  0  0  0  0  0  0  0  0  0  0
   -8.9116    4.1973  -18.3883 C   0  0  0  0  0  0  0  0  0  0  0  0
   -7.6071    4.4395  -18.7994 C   0  0  0  0  0  0  0  0  0  0  0  0
   -6.6184    4.7738  -17.9006 C   0  0  0  0  0  0  0  0  0  0  0  0
   -5.3911    4.9986  -18.3792 N   0  0  0  0  0  0  0  0  0  0  0  0
   -4.3956    5.2956  -17.5390 C   0  0  0  0  0  0  0  0  0  0  0  0
   -3.1028    5.4616  -18.0422 N   0  0  0  0  0  0  0  0  0  0  0  0
   -2.9032    5.3873  -19.4827 C   0  0  2  0  0  0  0  0  0  0  0  0
   -1.6744    4.5203  -19.7711 C   0  0  0  0  0  0  0  0  0  0  0  0
   -2.6667    6.7960  -19.9673 C   0  0  0  0  0  0  0  0  0  0  0  0
   -3.8404    7.6864  -20.2985 C   0  0  0  0  0  0  0  0  0  0  0  0
   -2.9503    7.1808  -21.3988 C   0  0  0  0  0  0  0  0  0  0  0  0
  1  2  1  0
  2  3  2  0
  3  4  1  0
  4  5  2  0
  5  6  1  0
  6  7  2  0
  7  8  1  0
  8  9  2  0
  9 10  1  0
 10 11  2  0
 11 12  1  0
 12 13  1  0
 13 14  1  1
 13 15  1  0
 15 16  1  0
 16 17  1  0
 11  2  1  0
 17 15  1  0
  9  4  1  0
M  END
>  <energy_score>  (1865) 
-20.978649

>  <alias>  (1865) 
None

>  <HIPPO Pose ID>  (1865) 
72741

>  <smiles>  (1865) 
Cc1cc2ccccc2nc1N[C@H](C)C1CC1

>  <inchikey>  (1865) 
IGXBHNNODMOIIP-LLVKDONJSA-N

>  <distance_score>  (1865) 
0.920176

>  <ref_mols>  (1865) 
Z1688a,Z0089a

>  <ref_pdb>  (1865) 
Z1688a

>  <HIPPO Compound ID>  (1865) 
146045

>  <name>  (1865) 
P72741

>  <inspiration_score>  (1865) 
None

$$$$
P72747
     RDKit          3D

 17 19  0  0  0  0  0  0  0  0999 V2000
    0.1551    7.2648  -18.5040 O   0  0  0  0  0  0  0  0  0  0  0  0
   -0.8923    6.6712  -18.6478 C   0  0  0  0  0  0  0  0  0  0  0  0
   -1.2855    5.2852  -19.2068 C   0  0  0  0  0  0  0  0  0  0  0  0
   -2.6400    5.4911  -18.4742 C   0  0  0  0  0  0  0  0  0  0  0  0
   -3.7361    5.1970  -19.3323 N   0  0  0  0  0  0  0  0  0  0  0  0
   -5.0674    5.0386  -18.8884 C   0  0  0  0  0  0  0  0  0  0  0  0
   -5.9625    4.5840  -19.8395 C   0  0  0  0  0  0  0  0  0  0  0  0
   -7.2398    4.2383  -19.4744 C   0  0  0  0  0  0  0  0  0  0  0  0
   -7.6210    4.4054  -18.1690 C   0  0  0  0  0  0  0  0  0  0  0  0
   -8.9226    4.0537  -17.8475 C   0  0  0  0  0  0  0  0  0  0  0  0
   -9.3237    4.1149  -16.5348 C   0  0  0  0  0  0  0  0  0  0  0  0
   -8.4571    4.5627  -15.5535 C   0  0  0  0  0  0  0  0  0  0  0  0
   -7.1644    4.9518  -15.9067 C   0  0  0  0  0  0  0  0  0  0  0  0
   -6.3590    5.4109  -14.8963 O   0  0  0  0  0  0  0  0  0  0  0  0
   -6.6868    4.8793  -17.2235 C   0  0  0  0  0  0  0  0  0  0  0  0
   -5.4114    5.1948  -17.5945 N   0  0  0  0  0  0  0  0  0  0  0  0
   -2.3651    7.0080  -18.3356 C   0  0  0  0  0  0  0  0  0  0  0  0
  1  2  2  0
  2  3  1  0
  3  4  1  0
  4  5  1  0
  5  6  1  0
  6  7  2  0
  7  8  1  0
  8  9  2  0
  9 10  1  0
 10 11  2  0
 11 12  1  0
 12 13  2  0
 13 14  1  0
 13 15  1  0
 15 16  2  0
  4 17  1  0
 17  2  1  0
 16  6  1  0
 15  9  1  0
M  END
>  <energy_score>  (1866) 
-6.276502

>  <alias>  (1866) 
None

>  <HIPPO Pose ID>  (1866) 
72747

>  <smiles>  (1866) 
O=C1CC(Nc2ccc3cccc(O)c3n2)C1

>  <inchikey>  (1866) 
CBULKAIXEBECNZ-UHFFFAOYSA-N

>  <distance_score>  (1866) 
0.858403

>  <ref_mols>  (1866) 
Z1688a,Z0089a

>  <ref_pdb>  (1866) 
Z1688a

>  <HIPPO Compound ID>  (1866) 
146049

>  <name>  (1866) 
P72747

>  <inspiration_score>  (1866) 
None

$$$$
P72753
     RDKit          3D

 17 19  0  0  0  0  0  0  0  0999 V2000
   -0.4138    4.7354  -19.3192 O   0  0  0  0  0  0  0  0  0  0  0  0
   -1.8130    4.4731  -19.3787 C   0  0  0  0  0  0  0  0  0  0  0  0
   -2.6498    5.7272  -19.1160 C   0  0  0  0  0  0  0  0  0  0  0  0
   -3.9877    5.7008  -19.7430 N   0  0  0  0  0  0  0  0  0  0  0  0
   -5.1387    5.1721  -19.1034 C   0  0  0  0  0  0  0  0  0  0  0  0
   -6.0848    4.6101  -19.9518 C   0  0  0  0  0  0  0  0  0  0  0  0
   -7.3030    4.1757  -19.4750 C   0  0  0  0  0  0  0  0  0  0  0  0
   -7.5910    4.3649  -18.1491 C   0  0  0  0  0  0  0  0  0  0  0  0
   -8.8510    4.0004  -17.6859 C   0  0  0  0  0  0  0  0  0  0  0  0
   -9.1344    4.1346  -16.3423 C   0  0  0  0  0  0  0  0  0  0  0  0
   -8.1951    4.6640  -15.4737 C   0  0  0  0  0  0  0  0  0  0  0  0
   -6.9594    5.0547  -15.9747 C   0  0  0  0  0  0  0  0  0  0  0  0
   -6.0803    5.6154  -15.0867 O   0  0  0  0  0  0  0  0  0  0  0  0
   -6.5997    4.9125  -17.3148 C   0  0  0  0  0  0  0  0  0  0  0  0
   -5.3750    5.3002  -17.7784 N   0  0  0  0  0  0  0  0  0  0  0  0
   -2.3992    6.5124  -17.8515 C   0  0  0  0  0  0  0  0  0  0  0  0
   -1.9507    7.0815  -19.1594 C   0  0  0  0  0  0  0  0  0  0  0  0
  1  2  1  0
  2  3  1  0
  3  4  1  0
  4  5  1  0
  5  6  2  0
  6  7  1  0
  7  8  2  0
  8  9  1  0
  9 10  2  0
 10 11  1  0
 11 12  2  0
 12 13  1  0
 12 14  1  0
 14 15  2  0
  3 16  1  0
 16 17  1  0
 17  3  1  0
 15  5  1  0
 14  8  1  0
M  END
>  <energy_score>  (1867) 
-20.832201

>  <alias>  (1867) 
None

>  <HIPPO Pose ID>  (1867) 
72753

>  <smiles>  (1867) 
OCC1(Nc2ccc3cccc(O)c3n2)CC1

>  <inchikey>  (1867) 
XRINZHQDMSBSGH-UHFFFAOYSA-N

>  <distance_score>  (1867) 
1.192579

>  <ref_mols>  (1867) 
Z1688a,Z0089a

>  <ref_pdb>  (1867) 
Z1688a

>  <HIPPO Compound ID>  (1867) 
146056

>  <name>  (1867) 
P72753

>  <inspiration_score>  (1867) 
None

$$$$
P72755
     RDKit          3D

 17 19  0  0  0  0  0  0  0  0999 V2000
   -3.3772    6.4141  -16.1787 C   0  0  0  0  0  0  0  0  0  0  0  0
   -4.5874    5.8056  -16.8181 C   0  0  0  0  0  0  0  0  0  0  0  0
   -5.6916    5.4848  -16.0186 C   0  0  0  0  0  0  0  0  0  0  0  0
   -6.8533    4.9702  -16.6036 C   0  0  0  0  0  0  0  0  0  0  0  0
   -7.9848    4.6235  -15.8575 C   0  0  0  0  0  0  0  0  0  0  0  0
   -9.1161    4.1525  -16.5112 C   0  0  0  0  0  0  0  0  0  0  0  0
   -9.1425    4.0410  -17.8919 C   0  0  0  0  0  0  0  0  0  0  0  0
   -8.0059    4.3537  -18.6219 C   0  0  0  0  0  0  0  0  0  0  0  0
   -6.8599    4.8068  -17.9984 C   0  0  0  0  0  0  0  0  0  0  0  0
   -5.7953    5.0701  -18.7555 N   0  0  0  0  0  0  0  0  0  0  0  0
   -4.6804    5.5361  -18.1840 C   0  0  0  0  0  0  0  0  0  0  0  0
   -3.6521    5.7046  -19.1121 N   0  0  0  0  0  0  0  0  0  0  0  0
   -2.3320    5.1816  -18.9073 C   0  0  1  0  0  0  0  0  0  0  0  0
   -1.7058    4.6267  -20.2100 C   0  0  0  0  0  0  0  0  0  0  0  0
   -0.7583    5.8423  -20.3297 C   0  0  0  0  0  0  0  0  0  0  0  0
   -1.1812    6.2293  -18.9047 C   0  0  0  0  0  0  0  0  0  0  0  0
   -0.7504    7.0295  -18.0991 O   0  0  0  0  0  0  0  0  0  0  0  0
  1  2  1  0
  2  3  2  0
  3  4  1  0
  4  5  2  0
  5  6  1  0
  6  7  2  0
  7  8  1  0
  8  9  2  0
  9 10  1  0
 10 11  2  0
 11 12  1  0
 13 12  1  6
 13 14  1  0
 14 15  1  0
 15 16  1  0
 16 17  2  0
 11  2  1  0
 16 13  1  0
  9  4  1  0
M  END
>  <energy_score>  (1868) 
-23.091867

>  <alias>  (1868) 
None

>  <HIPPO Pose ID>  (1868) 
72755

>  <smiles>  (1868) 
Cc1cc2ccccc2nc1N[C@H]1CCC1=O

>  <inchikey>  (1868) 
GRAGYIHKWCOQPH-LBPRGKRZSA-N

>  <distance_score>  (1868) 
0.986281

>  <ref_mols>  (1868) 
Z1688a,Z0089a

>  <ref_pdb>  (1868) 
Z1688a

>  <HIPPO Compound ID>  (1868) 
146057

>  <name>  (1868) 
P72755

>  <inspiration_score>  (1868) 
None

$$$$
P72757
     RDKit          3D

 17 19  0  0  0  0  0  0  0  0999 V2000
   -5.1252    6.0223  -14.9944 C   0  0  0  0  0  0  0  0  0  0  0  0
   -5.4600    5.6415  -16.4040 C   0  0  0  0  0  0  0  0  0  0  0  0
   -4.5060    5.8124  -17.4028 C   0  0  0  0  0  0  0  0  0  0  0  0
   -4.8025    5.4341  -18.7023 C   0  0  0  0  0  0  0  0  0  0  0  0
   -3.8473    5.4851  -19.7218 N   0  0  0  0  0  0  0  0  0  0  0  0
   -2.4779    5.1375  -19.4984 C   0  0  1  0  0  0  0  0  0  0  0  0
   -1.6946    5.0285  -20.8277 C   0  0  0  0  0  0  0  0  0  0  0  0
   -0.5383    5.8869  -20.2630 C   0  0  0  0  0  0  0  0  0  0  0  0
   -1.4921    6.2894  -19.1248 C   0  0  0  0  0  0  0  0  0  0  0  0
   -1.4476    7.1534  -18.2729 O   0  0  0  0  0  0  0  0  0  0  0  0
   -5.9977    4.9627  -19.0636 N   0  0  0  0  0  0  0  0  0  0  0  0
   -6.9321    4.8047  -18.1213 C   0  0  0  0  0  0  0  0  0  0  0  0
   -8.1660    4.3229  -18.5048 C   0  0  0  0  0  0  0  0  0  0  0  0
   -9.1724    4.0770  -17.5768 C   0  0  0  0  0  0  0  0  0  0  0  0
   -8.9397    4.2998  -16.2339 C   0  0  0  0  0  0  0  0  0  0  0  0
   -7.7258    4.8218  -15.8261 C   0  0  0  0  0  0  0  0  0  0  0  0
   -6.7085    5.0960  -16.7595 C   0  0  0  0  0  0  0  0  0  0  0  0
  1  2  1  0
  2  3  2  0
  3  4  1  0
  4  5  1  0
  6  5  1  6
  6  7  1  0
  7  8  1  0
  8  9  1  0
  9 10  2  0
  4 11  2  0
 11 12  1  0
 12 13  2  0
 13 14  1  0
 14 15  2  0
 15 16  1  0
 16 17  2  0
 17  2  1  0
  9  6  1  0
 17 12  1  0
M  END
>  <energy_score>  (1869) 
-25.2546

>  <alias>  (1869) 
None

>  <HIPPO Pose ID>  (1869) 
72757

>  <smiles>  (1869) 
Cc1cc(N[C@H]2CCC2=O)nc2ccccc12

>  <inchikey>  (1869) 
WQJVIYXYCPNDOP-LBPRGKRZSA-N

>  <distance_score>  (1869) 
1.850571

>  <ref_mols>  (1869) 
Z1688a,Z0089a

>  <ref_pdb>  (1869) 
Z1688a

>  <HIPPO Compound ID>  (1869) 
146058

>  <name>  (1869) 
P72757

>  <inspiration_score>  (1869) 
None

$$$$
P72759
     RDKit          3D

 17 19  0  0  0  0  0  0  0  0999 V2000
   -1.1845    7.8412  -19.3326 O   0  0  0  0  0  0  0  0  0  0  0  0
   -1.5405    6.7127  -19.6068 C   0  0  0  0  0  0  0  0  0  0  0  0
   -0.8538    5.5472  -20.3302 C   0  0  0  0  0  0  0  0  0  0  0  0
   -1.9786    4.6335  -19.7920 C   0  0  0  0  0  0  0  0  0  0  0  0
   -2.8126    5.8618  -19.3372 C   0  0  1  0  0  0  0  0  0  0  0  0
   -3.2093    5.7958  -17.9596 N   0  0  0  0  0  0  0  0  0  0  0  0
   -4.4790    5.3957  -17.5349 C   0  0  0  0  0  0  0  0  0  0  0  0
   -4.8354    5.5352  -16.1977 C   0  0  0  0  0  0  0  0  0  0  0  0
   -6.1404    5.2389  -15.7979 C   0  0  0  0  0  0  0  0  0  0  0  0
   -7.0762    4.8291  -16.7556 C   0  0  0  0  0  0  0  0  0  0  0  0
   -8.4328    4.5521  -16.4702 C   0  0  0  0  0  0  0  0  0  0  0  0
   -9.2902    4.2316  -17.5169 C   0  0  0  0  0  0  0  0  0  0  0  0
  -10.6224    4.0301  -17.3483 O   0  0  0  0  0  0  0  0  0  0  0  0
   -8.8137    4.1310  -18.8092 C   0  0  0  0  0  0  0  0  0  0  0  0
   -7.4702    4.3426  -19.0715 C   0  0  0  0  0  0  0  0  0  0  0  0
   -6.6038    4.7197  -18.0787 C   0  0  0  0  0  0  0  0  0  0  0  0
   -5.3512    4.9875  -18.4523 N   0  0  0  0  0  0  0  0  0  0  0  0
  1  2  2  0
  2  3  1  0
  3  4  1  0
  4  5  1  0
  5  6  1  1
  6  7  1  0
  7  8  2  0
  8  9  1  0
  9 10  2  0
 10 11  1  0
 11 12  2  0
 12 13  1  0
 12 14  1  0
 14 15  2  0
 15 16  1  0
 16 17  2  0
  5  2  1  0
 17  7  1  0
 16 10  1  0
M  END
>  <energy_score>  (1870) 
-17.115758

>  <alias>  (1870) 
None

>  <HIPPO Pose ID>  (1870) 
72759

>  <smiles>  (1870) 
O=C1CC[C@H]1Nc1ccc2cc(O)ccc2n1

>  <inchikey>  (1870) 
IGDCBQXAHNUPGD-LLVKDONJSA-N

>  <distance_score>  (1870) 
0.943792

>  <ref_mols>  (1870) 
Z1688a,Z0089a

>  <ref_pdb>  (1870) 
Z1688a

>  <HIPPO Compound ID>  (1870) 
146059

>  <name>  (1870) 
P72759

>  <inspiration_score>  (1870) 
None

$$$$
P72764
     RDKit          3D

 17 18  0  0  0  0  0  0  0  0999 V2000
   -1.5062    3.7710  -19.1727 C   0  0  0  0  0  0  0  0  0  0  0  0
   -2.0526    4.3569  -20.4301 C   0  0  0  0  0  0  0  0  0  0  0  0
   -1.9928    3.7137  -21.4877 O   0  0  0  0  0  0  0  0  0  0  0  0
   -2.6970    5.7421  -20.3432 C   0  0  2  0  0  0  0  0  0  0  0  0
   -1.9316    6.7478  -19.4974 C   0  0  0  0  0  0  0  0  0  0  0  0
   -4.1203    5.6659  -20.0637 N   0  0  0  0  0  0  0  0  0  0  0  0
   -4.8296    5.4417  -18.9257 C   0  0  0  0  0  0  0  0  0  0  0  0
   -4.4325    5.7643  -17.6427 C   0  0  0  0  0  0  0  0  0  0  0  0
   -5.3026    5.5609  -16.5651 C   0  0  0  0  0  0  0  0  0  0  0  0
   -4.8636    5.9264  -15.1788 C   0  0  0  0  0  0  0  0  0  0  0  0
   -6.5883    5.0462  -16.8214 C   0  0  0  0  0  0  0  0  0  0  0  0
   -7.5549    4.8072  -15.8209 C   0  0  0  0  0  0  0  0  0  0  0  0
   -8.8160    4.3352  -16.1428 C   0  0  0  0  0  0  0  0  0  0  0  0
   -9.1373    4.1103  -17.4673 C   0  0  0  0  0  0  0  0  0  0  0  0
   -8.1813    4.3182  -18.4584 C   0  0  0  0  0  0  0  0  0  0  0  0
   -6.9105    4.7676  -18.1598 C   0  0  0  0  0  0  0  0  0  0  0  0
   -6.0443    4.9375  -19.1647 N   0  0  0  0  0  0  0  0  0  0  0  0
  1  2  1  0
  2  3  2  0
  2  4  1  0
  4  5  1  1
  4  6  1  0
  6  7  1  0
  7  8  2  0
  8  9  1  0
  9 10  1  0
  9 11  2  0
 11 12  1  0
 12 13  2  0
 13 14  1  0
 14 15  2  0
 15 16  1  0
 16 17  2  0
 17  7  1  0
 16 11  1  0
M  END
>  <energy_score>  (1871) 
-34.246808

>  <alias>  (1871) 
None

>  <HIPPO Pose ID>  (1871) 
72764

>  <smiles>  (1871) 
CC(=O)[C@H](C)Nc1cc(C)c2ccccc2n1

>  <inchikey>  (1871) 
UUZCJLRCMGXGHO-JTQLQIEISA-N

>  <distance_score>  (1871) 
1.89878

>  <ref_mols>  (1871) 
Z1688a,Z0089a

>  <ref_pdb>  (1871) 
Z1688a

>  <HIPPO Compound ID>  (1871) 
146062

>  <name>  (1871) 
P72764

>  <inspiration_score>  (1871) 
None

$$$$
P72765
     RDKit          3D

 17 18  0  0  0  0  0  0  0  0999 V2000
   -1.7420    4.5621  -20.8679 C   0  0  0  0  0  0  0  0  0  0  0  0
   -2.0470    4.6889  -19.4039 C   0  0  0  0  0  0  0  0  0  0  0  0
   -2.1039    3.6988  -18.6775 O   0  0  0  0  0  0  0  0  0  0  0  0
   -2.2655    6.1107  -18.9017 C   0  0  2  0  0  0  0  0  0  0  0  0
   -1.5829    6.3658  -17.5793 C   0  0  0  0  0  0  0  0  0  0  0  0
   -3.6697    6.5190  -18.9291 N   0  0  0  0  0  0  0  0  0  0  0  0
   -4.5955    5.8688  -18.1366 C   0  0  0  0  0  0  0  0  0  0  0  0
   -4.7395    6.0297  -16.7674 C   0  0  0  0  0  0  0  0  0  0  0  0
   -5.9087    5.5649  -16.1487 C   0  0  0  0  0  0  0  0  0  0  0  0
   -6.9178    4.9793  -16.9305 C   0  0  0  0  0  0  0  0  0  0  0  0
   -8.2070    4.6251  -16.4666 C   0  0  0  0  0  0  0  0  0  0  0  0
   -9.1447    4.1727  -17.3878 C   0  0  0  0  0  0  0  0  0  0  0  0
  -10.4418    3.9252  -17.0889 O   0  0  0  0  0  0  0  0  0  0  0  0
   -8.8018    3.9777  -18.7088 C   0  0  0  0  0  0  0  0  0  0  0  0
   -7.5242    4.2544  -19.1424 C   0  0  0  0  0  0  0  0  0  0  0  0
   -6.6070    4.8018  -18.2920 C   0  0  0  0  0  0  0  0  0  0  0  0
   -5.4823    5.2082  -18.8659 N   0  0  0  0  0  0  0  0  0  0  0  0
  1  2  1  0
  2  3  2  0
  2  4  1  0
  4  5  1  1
  4  6  1  0
  6  7  1  0
  7  8  2  0
  8  9  1  0
  9 10  2  0
 10 11  1  0
 11 12  2  0
 12 13  1  0
 12 14  1  0
 14 15  2  0
 15 16  1  0
 16 17  2  0
 17  7  1  0
 16 10  1  0
M  END
>  <energy_score>  (1872) 
-20.488596

>  <alias>  (1872) 
None

>  <HIPPO Pose ID>  (1872) 
72765

>  <smiles>  (1872) 
CC(=O)[C@H](C)Nc1ccc2cc(O)ccc2n1

>  <inchikey>  (1872) 
OWTKPNIMWOKBAG-QMMMGPOBSA-N

>  <distance_score>  (1872) 
1.025513

>  <ref_mols>  (1872) 
Z1688a,Z0089a

>  <ref_pdb>  (1872) 
Z1688a

>  <HIPPO Compound ID>  (1872) 
146063

>  <name>  (1872) 
P72765

>  <inspiration_score>  (1872) 
None

$$$$
P72768
     RDKit          3D

 17 18  0  0  0  0  0  0  0  0999 V2000
   -1.3720    3.6670  -19.3671 C   0  0  0  0  0  0  0  0  0  0  0  0
   -2.1844    4.7695  -19.9377 C   0  0  0  0  0  0  0  0  0  0  0  0
   -2.2974    4.8893  -21.1607 O   0  0  0  0  0  0  0  0  0  0  0  0
   -2.8120    5.7386  -18.9289 C   0  0  1  0  0  0  0  0  0  0  0  0
   -1.8893    6.9375  -18.7709 C   0  0  0  0  0  0  0  0  0  0  0  0
   -4.0868    6.2057  -19.4591 N   0  0  0  0  0  0  0  0  0  0  0  0
   -5.1886    5.4854  -18.9737 C   0  0  0  0  0  0  0  0  0  0  0  0
   -5.9663    4.8118  -19.8937 C   0  0  0  0  0  0  0  0  0  0  0  0
   -7.1516    4.2361  -19.4980 C   0  0  0  0  0  0  0  0  0  0  0  0
   -7.5684    4.4010  -18.1988 C   0  0  0  0  0  0  0  0  0  0  0  0
   -8.8449    3.9594  -17.8719 C   0  0  0  0  0  0  0  0  0  0  0  0
   -9.2816    4.0640  -16.5707 C   0  0  0  0  0  0  0  0  0  0  0  0
   -8.4523    4.5865  -15.5944 C   0  0  0  0  0  0  0  0  0  0  0  0
   -7.1881    5.0597  -15.9498 C   0  0  0  0  0  0  0  0  0  0  0  0
   -6.4272    5.6119  -14.9503 O   0  0  0  0  0  0  0  0  0  0  0  0
   -6.7055    5.0126  -17.2678 C   0  0  0  0  0  0  0  0  0  0  0  0
   -5.5053    5.5273  -17.6633 N   0  0  0  0  0  0  0  0  0  0  0  0
  1  2  1  0
  2  3  2  0
  2  4  1  0
  4  5  1  6
  4  6  1  0
  6  7  1  0
  7  8  2  0
  8  9  1  0
  9 10  2  0
 10 11  1  0
 11 12  2  0
 12 13  1  0
 13 14  2  0
 14 15  1  0
 14 16  1  0
 16 17  2  0
 17  7  1  0
 16 10  1  0
M  END
>  <energy_score>  (1873) 
-10.679333

>  <alias>  (1873) 
None

>  <HIPPO Pose ID>  (1873) 
72768

>  <smiles>  (1873) 
CC(=O)[C@@H](C)Nc1ccc2cccc(O)c2n1

>  <inchikey>  (1873) 
BCWQATSMUVYBQT-MRVPVSSYSA-N

>  <distance_score>  (1873) 
0.81758

>  <ref_mols>  (1873) 
Z1688a,Z0089a

>  <ref_pdb>  (1873) 
Z1688a

>  <HIPPO Compound ID>  (1873) 
146064

>  <name>  (1873) 
P72768

>  <inspiration_score>  (1873) 
None

$$$$
P72772
     RDKit          3D

 17 19  0  0  0  0  0  0  0  0999 V2000
   -1.4094    7.4604  -17.3245 C   0  0  0  0  0  0  0  0  0  0  0  0
   -1.8637    6.7993  -18.5999 C   0  0  0  0  0  0  0  0  0  0  0  0
   -2.1723    7.7658  -19.7121 C   0  0  0  0  0  0  0  0  0  0  0  0
   -1.2598    5.4616  -18.9654 C   0  0  0  0  0  0  0  0  0  0  0  0
   -2.6756    5.5298  -18.4575 C   0  0  2  0  0  0  0  0  0  0  0  0
   -3.7539    5.1796  -19.3664 N   0  0  0  0  0  0  0  0  0  0  0  0
   -5.0821    5.0297  -18.8995 C   0  0  0  0  0  0  0  0  0  0  0  0
   -5.9847    4.5726  -19.8451 C   0  0  0  0  0  0  0  0  0  0  0  0
   -7.2618    4.2301  -19.4762 C   0  0  0  0  0  0  0  0  0  0  0  0
   -7.6375    4.3993  -18.1699 C   0  0  0  0  0  0  0  0  0  0  0  0
   -8.9377    4.0494  -17.8432 C   0  0  0  0  0  0  0  0  0  0  0  0
   -9.3323    4.1103  -16.5287 C   0  0  0  0  0  0  0  0  0  0  0  0
   -8.4620    4.5581  -15.5509 C   0  0  0  0  0  0  0  0  0  0  0  0
   -7.1712    4.9458  -15.9098 C   0  0  0  0  0  0  0  0  0  0  0  0
   -6.3631    5.4021  -14.9008 O   0  0  0  0  0  0  0  0  0  0  0  0
   -6.6994    4.8718  -17.2281 C   0  0  0  0  0  0  0  0  0  0  0  0
   -5.4252    5.1819  -17.6026 N   0  0  0  0  0  0  0  0  0  0  0  0
  1  2  1  0
  2  3  1  0
  2  4  1  0
  4  5  1  0
  5  6  1  6
  6  7  1  0
  7  8  2  0
  8  9  1  0
  9 10  2  0
 10 11  1  0
 11 12  2  0
 12 13  1  0
 13 14  2  0
 14 15  1  0
 14 16  1  0
 16 17  2  0
  5  2  1  0
 17  7  1  0
 16 10  1  0
M  END
>  <energy_score>  (1874) 
-12.95577

>  <alias>  (1874) 
None

>  <HIPPO Pose ID>  (1874) 
72772

>  <smiles>  (1874) 
CC1(C)C[C@@H]1Nc1ccc2cccc(O)c2n1

>  <inchikey>  (1874) 
FTJIKTKFVMFGIP-NSHDSACASA-N

>  <distance_score>  (1874) 
0.878792

>  <ref_mols>  (1874) 
Z1688a,Z0089a

>  <ref_pdb>  (1874) 
Z1688a

>  <HIPPO Compound ID>  (1874) 
146067

>  <name>  (1874) 
P72772

>  <inspiration_score>  (1874) 
None

$$$$
P72777
     RDKit          3D

 17 20  0  0  0  0  0  0  0  0999 V2000
   -5.0583    5.9454  -15.0330 C   0  0  0  0  0  0  0  0  0  0  0  0
   -5.4337    5.5797  -16.4361 C   0  0  0  0  0  0  0  0  0  0  0  0
   -4.5024    5.7367  -17.4580 C   0  0  0  0  0  0  0  0  0  0  0  0
   -4.8373    5.3798  -18.7568 C   0  0  0  0  0  0  0  0  0  0  0  0
   -3.9115    5.4628  -19.8022 N   0  0  0  0  0  0  0  0  0  0  0  0
   -2.5099    5.1689  -19.5346 C   0  0  1  0  0  0  0  0  0  0  0  0
   -1.4603    5.4599  -20.6036 C   0  0  0  0  0  0  0  0  0  0  0  0
   -1.5228    6.2331  -19.3703 C   0  0  0  0  0  0  0  0  0  0  0  0
   -1.5119    7.6520  -19.0332 C   0  0  0  0  0  0  0  0  0  0  0  0
   -0.5735    6.6505  -18.3450 C   0  0  0  0  0  0  0  0  0  0  0  0
   -6.0512    4.9315  -19.0883 N   0  0  0  0  0  0  0  0  0  0  0  0
   -6.9628    4.7836  -18.1233 C   0  0  0  0  0  0  0  0  0  0  0  0
   -8.2150    4.3290  -18.4797 C   0  0  0  0  0  0  0  0  0  0  0  0
   -9.2037    4.0987  -17.5290 C   0  0  0  0  0  0  0  0  0  0  0  0
   -8.9339    4.3099  -16.1910 C   0  0  0  0  0  0  0  0  0  0  0  0
   -7.7001    4.8041  -15.8098 C   0  0  0  0  0  0  0  0  0  0  0  0
   -6.7005    5.0626  -16.7656 C   0  0  0  0  0  0  0  0  0  0  0  0
  1  2  1  0
  2  3  2  0
  3  4  1  0
  4  5  1  0
  6  5  1  6
  6  7  1  0
  7  8  1  0
  8  9  1  0
  9 10  1  0
  4 11  2  0
 11 12  1  0
 12 13  2  0
 13 14  1  0
 14 15  2  0
 15 16  1  0
 16 17  2  0
 17  2  1  0
  8  6  1  0
 17 12  1  0
 10  8  1  0
M  END
>  <energy_score>  (1875) 
-22.417078

>  <alias>  (1875) 
None

>  <HIPPO Pose ID>  (1875) 
72777

>  <smiles>  (1875) 
Cc1cc(N[C@H]2CC23CC3)nc2ccccc12

>  <inchikey>  (1875) 
ZVHLTGXYXXUKKD-ZDUSSCGKSA-N

>  <distance_score>  (1875) 
1.980406

>  <ref_mols>  (1875) 
Z1688a,Z0089a

>  <ref_pdb>  (1875) 
Z1688a

>  <HIPPO Compound ID>  (1875) 
146070

>  <name>  (1875) 
P72777

>  <inspiration_score>  (1875) 
None

$$$$
P72780
     RDKit          3D

 17 20  0  0  0  0  0  0  0  0999 V2000
   -6.9492    5.2328  -14.7877 O   0  0  0  0  0  0  0  0  0  0  0  0
   -7.5150    4.8651  -15.9834 C   0  0  0  0  0  0  0  0  0  0  0  0
   -8.8502    4.4639  -15.9561 C   0  0  0  0  0  0  0  0  0  0  0  0
   -9.4969    4.1222  -17.1354 C   0  0  0  0  0  0  0  0  0  0  0  0
   -8.7854    4.1050  -18.3194 C   0  0  0  0  0  0  0  0  0  0  0  0
   -7.4376    4.4722  -18.3252 C   0  0  0  0  0  0  0  0  0  0  0  0
   -6.7274    4.4084  -19.5092 C   0  0  0  0  0  0  0  0  0  0  0  0
   -5.4410    4.8974  -19.5651 C   0  0  0  0  0  0  0  0  0  0  0  0
   -4.8535    5.3614  -18.4078 C   0  0  0  0  0  0  0  0  0  0  0  0
   -3.5731    5.9061  -18.4056 N   0  0  0  0  0  0  0  0  0  0  0  0
   -2.6091    5.7380  -19.4717 C   0  0  2  0  0  0  0  0  0  0  0  0
   -1.7370    4.4822  -19.5580 C   0  0  0  0  0  0  0  0  0  0  0  0
   -1.1784    5.7794  -19.1952 C   0  0  0  0  0  0  0  0  0  0  0  0
   -0.3066    6.2853  -18.1411 C   0  0  0  0  0  0  0  0  0  0  0  0
   -0.0333    6.5740  -19.6234 C   0  0  0  0  0  0  0  0  0  0  0  0
   -5.4904    5.3483  -17.2196 N   0  0  0  0  0  0  0  0  0  0  0  0
   -6.7741    4.9136  -17.1676 C   0  0  0  0  0  0  0  0  0  0  0  0
  1  2  1  0
  2  3  2  0
  3  4  1  0
  4  5  2  0
  5  6  1  0
  6  7  2  0
  7  8  1  0
  8  9  2  0
  9 10  1  0
 11 10  1  1
 11 12  1  0
 12 13  1  0
 13 14  1  0
 14 15  1  0
  9 16  1  0
 16 17  2  0
 17  2  1  0
 17  6  1  0
 13 11  1  0
 15 13  1  0
M  END
>  <energy_score>  (1876) 
-23.876441

>  <alias>  (1876) 
None

>  <HIPPO Pose ID>  (1876) 
72780

>  <smiles>  (1876) 
Oc1cccc2ccc(N[C@@H]3CC34CC4)nc12

>  <inchikey>  (1876) 
NEBGIDAXDJHUKY-LLVKDONJSA-N

>  <distance_score>  (1876) 
0.830857

>  <ref_mols>  (1876) 
Z1688a,Z0089a

>  <ref_pdb>  (1876) 
Z1688a

>  <HIPPO Compound ID>  (1876) 
146072

>  <name>  (1876) 
P72780

>  <inspiration_score>  (1876) 
None

$$$$
P72788
     RDKit          3D

 17 18  0  0  0  0  0  0  0  0999 V2000
   -0.9994    5.7416  -20.5092 C   0  0  0  0  0  0  0  0  0  0  0  0
   -1.4141    5.0140  -19.2346 C   0  0  0  0  0  0  0  0  0  0  0  0
   -2.7328    5.5024  -18.5969 C   0  0  1  0  0  0  0  0  0  0  0  0
   -2.7357    7.0053  -18.3031 C   0  0  0  0  0  0  0  0  0  0  0  0
   -2.7568    7.7234  -19.4623 F   0  0  0  0  0  0  0  0  0  0  0  0
   -3.8130    5.1418  -19.5021 N   0  0  0  0  0  0  0  0  0  0  0  0
   -5.1033    4.9875  -18.9813 C   0  0  0  0  0  0  0  0  0  0  0  0
   -6.0483    4.5411  -19.8871 C   0  0  0  0  0  0  0  0  0  0  0  0
   -7.3154    4.2167  -19.4695 C   0  0  0  0  0  0  0  0  0  0  0  0
   -7.6371    4.3925  -18.1503 C   0  0  0  0  0  0  0  0  0  0  0  0
   -8.9257    4.0503  -17.7707 C   0  0  0  0  0  0  0  0  0  0  0  0
   -9.2662    4.1163  -16.4411 C   0  0  0  0  0  0  0  0  0  0  0  0
   -8.3581    4.5705  -15.5022 C   0  0  0  0  0  0  0  0  0  0  0  0
   -7.0799    4.9506  -15.9141 C   0  0  0  0  0  0  0  0  0  0  0  0
   -6.2299    5.4151  -14.9429 O   0  0  0  0  0  0  0  0  0  0  0  0
   -6.6571    4.8617  -17.2492 C   0  0  0  0  0  0  0  0  0  0  0  0
   -5.3925    5.1581  -17.6751 N   0  0  0  0  0  0  0  0  0  0  0  0
  1  2  1  0
  3  2  1  6
  3  4  1  0
  4  5  1  0
  3  6  1  0
  6  7  1  0
  7  8  2  0
  8  9  1  0
  9 10  2  0
 10 11  1  0
 11 12  2  0
 12 13  1  0
 13 14  2  0
 14 15  1  0
 14 16  1  0
 16 17  2  0
 17  7  1  0
 16 10  1  0
M  END
>  <energy_score>  (1877) 
-33.177649

>  <alias>  (1877) 
None

>  <HIPPO Pose ID>  (1877) 
72788

>  <smiles>  (1877) 
CC[C@@H](CF)Nc1ccc2cccc(O)c2n1

>  <inchikey>  (1877) 
YLSGBFYPJZPWBZ-JTQLQIEISA-N

>  <distance_score>  (1877) 
0.884877

>  <ref_mols>  (1877) 
Z1688a,Z0089a

>  <ref_pdb>  (1877) 
Z1688a

>  <HIPPO Compound ID>  (1877) 
146076

>  <name>  (1877) 
P72788

>  <inspiration_score>  (1877) 
None

$$$$
P72790
     RDKit          3D

 17 19  0  0  0  0  0  0  0  0999 V2000
  -10.5090    3.9687  -17.1712 O   0  0  0  0  0  0  0  0  0  0  0  0
   -9.1981    4.1895  -17.4332 C   0  0  0  0  0  0  0  0  0  0  0  0
   -8.8305    4.0445  -18.7545 C   0  0  0  0  0  0  0  0  0  0  0  0
   -7.5293    4.2815  -19.1409 C   0  0  0  0  0  0  0  0  0  0  0  0
   -6.6102    4.7455  -18.2442 C   0  0  0  0  0  0  0  0  0  0  0  0
   -5.4448    5.1010  -18.7674 N   0  0  0  0  0  0  0  0  0  0  0  0
   -4.5272    5.6514  -17.9834 C   0  0  0  0  0  0  0  0  0  0  0  0
   -3.4847    6.2299  -18.7057 N   0  0  0  0  0  0  0  0  0  0  0  0
   -2.0737    5.8456  -18.4834 C   0  0  0  0  0  0  0  0  0  0  0  0
   -1.6397    4.5571  -19.1545 C   0  0  0  0  0  0  0  0  0  0  0  0
   -1.7898    4.7502  -21.0891 Br  0  0  0  0  0  0  0  0  0  0  0  0
   -1.0787    6.9902  -18.5496 C   0  0  0  0  0  0  0  0  0  0  0  0
   -1.3304    6.3037  -17.2452 C   0  0  0  0  0  0  0  0  0  0  0  0
   -4.7009    5.7558  -16.6123 C   0  0  0  0  0  0  0  0  0  0  0  0
   -5.9243    5.3610  -16.0510 C   0  0  0  0  0  0  0  0  0  0  0  0
   -6.9479    4.8786  -16.8850 C   0  0  0  0  0  0  0  0  0  0  0  0
   -8.2655    4.5650  -16.4709 C   0  0  0  0  0  0  0  0  0  0  0  0
  1  2  1  0
  2  3  2  0
  3  4  1  0
  4  5  2  0
  5  6  1  0
  6  7  2  0
  7  8  1  0
  8  9  1  0
  9 10  1  0
 10 11  1  0
  9 12  1  0
 12 13  1  0
  7 14  1  0
 14 15  2  0
 15 16  1  0
 16 17  2  0
 17  2  1  0
 16  5  1  0
 13  9  1  0
M  END
>  <energy_score>  (1878) 
-26.270038

>  <alias>  (1878) 
None

>  <HIPPO Pose ID>  (1878) 
72790

>  <smiles>  (1878) 
Oc1ccc2nc(NC3(CBr)CC3)ccc2c1

>  <inchikey>  (1878) 
MFACHOOBGXLOSL-UHFFFAOYSA-N

>  <distance_score>  (1878) 
0.973208

>  <ref_mols>  (1878) 
Z1688a,Z0089a

>  <ref_pdb>  (1878) 
Z1688a

>  <HIPPO Compound ID>  (1878) 
146079

>  <name>  (1878) 
P72790

>  <inspiration_score>  (1878) 
None

$$$$
P72791
     RDKit          3D

 17 19  0  0  0  0  0  0  0  0999 V2000
   -6.5830    5.4654  -14.8579 O   0  0  0  0  0  0  0  0  0  0  0  0
   -7.2839    4.9786  -15.9327 C   0  0  0  0  0  0  0  0  0  0  0  0
   -8.5880    4.5422  -15.6891 C   0  0  0  0  0  0  0  0  0  0  0  0
   -9.3640    4.0852  -16.7411 C   0  0  0  0  0  0  0  0  0  0  0  0
   -8.8305    4.0037  -18.0075 C   0  0  0  0  0  0  0  0  0  0  0  0
   -7.5195    4.4138  -18.2244 C   0  0  0  0  0  0  0  0  0  0  0  0
   -7.0152    4.2871  -19.4966 C   0  0  0  0  0  0  0  0  0  0  0  0
   -5.7921    4.8440  -19.7866 C   0  0  0  0  0  0  0  0  0  0  0  0
   -5.0499    5.4379  -18.7815 C   0  0  0  0  0  0  0  0  0  0  0  0
   -3.8737    6.1118  -19.1780 N   0  0  0  0  0  0  0  0  0  0  0  0
   -2.5755    5.8054  -18.5435 C   0  0  0  0  0  0  0  0  0  0  0  0
   -1.8308    4.6200  -19.1202 C   0  0  0  0  0  0  0  0  0  0  0  0
   -1.7162    4.7949  -21.0637 Br  0  0  0  0  0  0  0  0  0  0  0  0
   -1.7343    7.0065  -18.1595 C   0  0  0  0  0  0  0  0  0  0  0  0
   -2.3414    6.1504  -17.0901 C   0  0  0  0  0  0  0  0  0  0  0  0
   -5.4639    5.4407  -17.4968 N   0  0  0  0  0  0  0  0  0  0  0  0
   -6.7074    4.9601  -17.2116 C   0  0  0  0  0  0  0  0  0  0  0  0
  1  2  1  0
  2  3  2  0
  3  4  1  0
  4  5  2  0
  5  6  1  0
  6  7  2  0
  7  8  1  0
  8  9  2  0
  9 10  1  0
 10 11  1  0
 11 12  1  0
 12 13  1  0
 11 14  1  0
 14 15  1  0
  9 16  1  0
 16 17  2  0
 17  2  1  0
 17  6  1  0
 15 11  1  0
M  END
>  <energy_score>  (1879) 
-1.160556

>  <alias>  (1879) 
None

>  <HIPPO Pose ID>  (1879) 
72791

>  <smiles>  (1879) 
Oc1cccc2ccc(NC3(CBr)CC3)nc12

>  <inchikey>  (1879) 
KBLATCRGNQKUNW-UHFFFAOYSA-N

>  <distance_score>  (1879) 
0.853522

>  <ref_mols>  (1879) 
Z1688a,Z0089a

>  <ref_pdb>  (1879) 
Z1688a

>  <HIPPO Compound ID>  (1879) 
146080

>  <name>  (1879) 
P72791

>  <inspiration_score>  (1879) 
None

$$$$
P72794
     RDKit          3D

 17 19  0  0  0  0  0  0  0  0999 V2000
   -5.0786    5.9102  -14.9616 C   0  0  0  0  0  0  0  0  0  0  0  0
   -5.3910    5.5284  -16.3767 C   0  0  0  0  0  0  0  0  0  0  0  0
   -4.3740    5.5490  -17.3304 C   0  0  0  0  0  0  0  0  0  0  0  0
   -4.6439    5.1752  -18.6345 C   0  0  0  0  0  0  0  0  0  0  0  0
   -3.6664    4.9636  -19.5900 N   0  0  0  0  0  0  0  0  0  0  0  0
   -2.7068    5.9996  -19.9318 C   0  0  2  0  0  0  0  0  0  0  0  0
   -1.7296    5.4321  -20.9456 C   0  0  0  0  0  0  0  0  0  0  0  0
   -0.5629    6.3899  -20.8542 C   0  0  0  0  0  0  0  0  0  0  0  0
   -0.5345    6.8913  -19.5122 O   0  0  0  0  0  0  0  0  0  0  0  0
   -1.7297    6.4402  -18.8519 C   0  0  0  0  0  0  0  0  0  0  0  0
   -5.8716    4.8288  -19.0328 N   0  0  0  0  0  0  0  0  0  0  0  0
   -6.8538    4.7614  -18.1264 C   0  0  0  0  0  0  0  0  0  0  0  0
   -8.0981    4.3307  -18.5391 C   0  0  0  0  0  0  0  0  0  0  0  0
   -9.1375    4.1270  -17.6362 C   0  0  0  0  0  0  0  0  0  0  0  0
   -8.9346    4.3581  -16.2901 C   0  0  0  0  0  0  0  0  0  0  0  0
   -7.7176    4.8523  -15.8578 C   0  0  0  0  0  0  0  0  0  0  0  0
   -6.6615    5.0666  -16.7651 C   0  0  0  0  0  0  0  0  0  0  0  0
  1  2  1  0
  2  3  2  0
  3  4  1  0
  4  5  1  0
  6  5  1  1
  6  7  1  0
  7  8  1  0
  8  9  1  0
  9 10  1  0
  4 11  2  0
 11 12  1  0
 12 13  2  0
 13 14  1  0
 14 15  2  0
 15 16  1  0
 16 17  2  0
 17  2  1  0
 10  6  1  0
 17 12  1  0
M  END
>  <energy_score>  (1880) 
-21.277587

>  <alias>  (1880) 
None

>  <HIPPO Pose ID>  (1880) 
72794

>  <smiles>  (1880) 
Cc1cc(N[C@@H]2CCOC2)nc2ccccc12

>  <inchikey>  (1880) 
YHXAIXTZNRFJPY-LLVKDONJSA-N

>  <distance_score>  (1880) 
1.845308

>  <ref_mols>  (1880) 
Z1688a,Z0089a

>  <ref_pdb>  (1880) 
Z1688a

>  <HIPPO Compound ID>  (1880) 
146082

>  <name>  (1880) 
P72794

>  <inspiration_score>  (1880) 
None

$$$$
P72795
     RDKit          3D

 17 19  0  0  0  0  0  0  0  0999 V2000
  -10.6277    4.0752  -17.3522 O   0  0  0  0  0  0  0  0  0  0  0  0
   -9.2940    4.2704  -17.5172 C   0  0  0  0  0  0  0  0  0  0  0  0
   -8.8202    4.1757  -18.8105 C   0  0  0  0  0  0  0  0  0  0  0  0
   -7.4748    4.3776  -19.0697 C   0  0  0  0  0  0  0  0  0  0  0  0
   -6.6028    4.7326  -18.0736 C   0  0  0  0  0  0  0  0  0  0  0  0
   -5.3401    4.9533  -18.4419 N   0  0  0  0  0  0  0  0  0  0  0  0
   -4.4340    5.2606  -17.5179 C   0  0  0  0  0  0  0  0  0  0  0  0
   -3.0911    5.3434  -17.8874 N   0  0  0  0  0  0  0  0  0  0  0  0
   -2.8074    5.2849  -19.3227 C   0  0  2  0  0  0  0  0  0  0  0  0
   -1.3592    4.8730  -19.5249 C   0  0  0  0  0  0  0  0  0  0  0  0
   -0.9383    5.6889  -20.7216 C   0  0  0  0  0  0  0  0  0  0  0  0
   -1.6035    6.9471  -20.5641 O   0  0  0  0  0  0  0  0  0  0  0  0
   -2.8953    6.6562  -19.9977 C   0  0  0  0  0  0  0  0  0  0  0  0
   -4.7881    5.3931  -16.1793 C   0  0  0  0  0  0  0  0  0  0  0  0
   -6.1154    5.1904  -15.7886 C   0  0  0  0  0  0  0  0  0  0  0  0
   -7.0704    4.8359  -16.7503 C   0  0  0  0  0  0  0  0  0  0  0  0
   -8.4324    4.5775  -16.4683 C   0  0  0  0  0  0  0  0  0  0  0  0
  1  2  1  0
  2  3  2  0
  3  4  1  0
  4  5  2  0
  5  6  1  0
  6  7  2  0
  7  8  1  0
  9  8  1  1
  9 10  1  0
 10 11  1  0
 11 12  1  0
 12 13  1  0
  7 14  1  0
 14 15  2  0
 15 16  1  0
 16 17  2  0
 17  2  1  0
 16  5  1  0
 13  9  1  0
M  END
>  <energy_score>  (1881) 
-23.166766

>  <alias>  (1881) 
None

>  <HIPPO Pose ID>  (1881) 
72795

>  <smiles>  (1881) 
Oc1ccc2nc(N[C@@H]3CCOC3)ccc2c1

>  <inchikey>  (1881) 
UPCPNSSUHAFHLE-SNVBAGLBSA-N

>  <distance_score>  (1881) 
0.966

>  <ref_mols>  (1881) 
Z1688a,Z0089a

>  <ref_pdb>  (1881) 
Z1688a

>  <HIPPO Compound ID>  (1881) 
146083

>  <name>  (1881) 
P72795

>  <inspiration_score>  (1881) 
None

$$$$
P72797
     RDKit          3D

 17 19  0  0  0  0  0  0  0  0999 V2000
   -5.6309    5.8309  -15.2448 O   0  0  0  0  0  0  0  0  0  0  0  0
   -6.6619    5.2768  -15.9658 C   0  0  0  0  0  0  0  0  0  0  0  0
   -7.8350    4.9487  -15.2994 C   0  0  0  0  0  0  0  0  0  0  0  0
   -8.8840    4.3887  -16.0164 C   0  0  0  0  0  0  0  0  0  0  0  0
   -8.7764    4.1802  -17.3816 C   0  0  0  0  0  0  0  0  0  0  0  0
   -7.5726    4.4817  -18.0152 C   0  0  0  0  0  0  0  0  0  0  0  0
   -7.4038    4.1761  -19.3440 C   0  0  0  0  0  0  0  0  0  0  0  0
   -6.1685    4.4086  -19.9189 C   0  0  0  0  0  0  0  0  0  0  0  0
   -5.1330    4.9870  -19.1931 C   0  0  0  0  0  0  0  0  0  0  0  0
   -3.8865    5.0288  -19.8228 N   0  0  0  0  0  0  0  0  0  0  0  0
   -2.7827    5.7930  -19.2692 C   0  0  2  0  0  0  0  0  0  0  0  0
   -1.4979    5.3244  -19.9302 C   0  0  0  0  0  0  0  0  0  0  0  0
   -0.4374    5.8120  -18.9725 C   0  0  0  0  0  0  0  0  0  0  0  0
   -1.0153    5.7823  -17.6627 O   0  0  0  0  0  0  0  0  0  0  0  0
   -2.4342    5.5708  -17.8069 C   0  0  0  0  0  0  0  0  0  0  0  0
   -5.2908    5.3243  -17.9023 N   0  0  0  0  0  0  0  0  0  0  0  0
   -6.4842    5.0426  -17.3222 C   0  0  0  0  0  0  0  0  0  0  0  0
  1  2  1  0
  2  3  2  0
  3  4  1  0
  4  5  2  0
  5  6  1  0
  6  7  2  0
  7  8  1  0
  8  9  2  0
  9 10  1  0
 11 10  1  6
 11 12  1  0
 12 13  1  0
 13 14  1  0
 14 15  1  0
  9 16  1  0
 16 17  2  0
 17  2  1  0
 17  6  1  0
 15 11  1  0
M  END
>  <energy_score>  (1882) 
-30.469827

>  <alias>  (1882) 
None

>  <HIPPO Pose ID>  (1882) 
72797

>  <smiles>  (1882) 
Oc1cccc2ccc(N[C@@H]3CCOC3)nc12

>  <inchikey>  (1882) 
DCPWQMJMZPZLDO-SNVBAGLBSA-N

>  <distance_score>  (1882) 
1.05591

>  <ref_mols>  (1882) 
Z1688a,Z0089a

>  <ref_pdb>  (1882) 
Z1688a

>  <HIPPO Compound ID>  (1882) 
146084

>  <name>  (1882) 
P72797

>  <inspiration_score>  (1882) 
None

$$$$
P72800
     RDKit          3D

 17 19  0  0  0  0  0  0  0  0999 V2000
   -3.3479    6.3936  -16.1182 C   0  0  0  0  0  0  0  0  0  0  0  0
   -4.5585    5.8068  -16.7779 C   0  0  0  0  0  0  0  0  0  0  0  0
   -5.6581    5.4525  -15.9850 C   0  0  0  0  0  0  0  0  0  0  0  0
   -6.8226    4.9566  -16.5824 C   0  0  0  0  0  0  0  0  0  0  0  0
   -7.9575    4.5965  -15.8457 C   0  0  0  0  0  0  0  0  0  0  0  0
   -9.0918    4.1457  -16.5101 C   0  0  0  0  0  0  0  0  0  0  0  0
   -9.1135    4.0565  -17.8925 C   0  0  0  0  0  0  0  0  0  0  0  0
   -7.9740    4.3825  -18.6133 C   0  0  0  0  0  0  0  0  0  0  0  0
   -6.8298    4.8292  -17.9809 C   0  0  0  0  0  0  0  0  0  0  0  0
   -5.7713    5.1286  -18.7339 N   0  0  0  0  0  0  0  0  0  0  0  0
   -4.6553    5.5859  -18.1531 C   0  0  0  0  0  0  0  0  0  0  0  0
   -3.6392    5.8595  -19.0765 N   0  0  0  0  0  0  0  0  0  0  0  0
   -2.3369    5.2018  -18.9303 C   0  0  1  0  0  0  0  0  0  0  0  0
   -1.7819    4.3776  -20.0575 C   0  0  0  0  0  0  0  0  0  0  0  0
   -1.1693    5.7132  -19.7325 C   0  0  2  0  0  0  0  0  0  0  0  0
    0.1948    5.7834  -19.1395 C   0  0  0  0  0  0  0  0  0  0  0  0
    1.1614    5.6124  -20.1657 O   0  0  0  0  0  0  0  0  0  0  0  0
  1  2  1  0
  2  3  2  0
  3  4  1  0
  4  5  2  0
  5  6  1  0
  6  7  2  0
  7  8  1  0
  8  9  2  0
  9 10  1  0
 10 11  2  0
 11 12  1  0
 13 12  1  6
 13 14  1  0
 14 15  1  0
 15 16  1  1
 16 17  1  0
 11  2  1  0
 15 13  1  0
  9  4  1  0
M  END
>  <energy_score>  (1883) 
-21.789714

>  <alias>  (1883) 
None

>  <HIPPO Pose ID>  (1883) 
72800

>  <smiles>  (1883) 
Cc1cc2ccccc2nc1N[C@H]1C[C@@H]1CO

>  <inchikey>  (1883) 
YAFIILDVQVMKHQ-YPMHNXCESA-N

>  <distance_score>  (1883) 
1.014232

>  <ref_mols>  (1883) 
Z1688a,Z0089a

>  <ref_pdb>  (1883) 
Z1688a

>  <HIPPO Compound ID>  (1883) 
146085

>  <name>  (1883) 
P72800

>  <inspiration_score>  (1883) 
None

$$$$
P72806
     RDKit          3D

 17 19  0  0  0  0  0  0  0  0999 V2000
    1.0840    4.9203  -19.1257 O   0  0  0  0  0  0  0  0  0  0  0  0
    0.3177    6.1082  -19.2375 C   0  0  0  0  0  0  0  0  0  0  0  0
   -1.0935    5.8214  -19.6343 C   0  0  1  0  0  0  0  0  0  0  0  0
   -1.7063    4.4428  -19.5621 C   0  0  0  0  0  0  0  0  0  0  0  0
   -2.1324    5.4985  -18.5833 C   0  0  2  0  0  0  0  0  0  0  0  0
   -3.4468    6.1330  -18.7087 N   0  0  0  0  0  0  0  0  0  0  0  0
   -4.5213    5.6094  -17.9893 C   0  0  0  0  0  0  0  0  0  0  0  0
   -4.6702    5.7038  -16.6152 C   0  0  0  0  0  0  0  0  0  0  0  0
   -5.8984    5.3346  -16.0467 C   0  0  0  0  0  0  0  0  0  0  0  0
   -6.9406    4.8746  -16.8749 C   0  0  0  0  0  0  0  0  0  0  0  0
   -8.2566    4.5626  -16.4535 C   0  0  0  0  0  0  0  0  0  0  0  0
   -9.1967    4.1916  -17.4112 C   0  0  0  0  0  0  0  0  0  0  0  0
  -10.5035    3.9607  -17.1422 O   0  0  0  0  0  0  0  0  0  0  0  0
   -8.8429    4.0543  -18.7365 C   0  0  0  0  0  0  0  0  0  0  0  0
   -7.5471    4.2951  -19.1324 C   0  0  0  0  0  0  0  0  0  0  0  0
   -6.6213    4.7522  -18.2399 C   0  0  0  0  0  0  0  0  0  0  0  0
   -5.4611    5.0999  -18.7742 N   0  0  0  0  0  0  0  0  0  0  0  0
  1  2  1  0
  3  2  1  1
  3  4  1  0
  4  5  1  0
  5  6  1  6
  6  7  1  0
  7  8  2  0
  8  9  1  0
  9 10  2  0
 10 11  1  0
 11 12  2  0
 12 13  1  0
 12 14  1  0
 14 15  2  0
 15 16  1  0
 16 17  2  0
  5  3  1  0
 17  7  1  0
 16 10  1  0
M  END
>  <energy_score>  (1884) 
-18.182826

>  <alias>  (1884) 
None

>  <HIPPO Pose ID>  (1884) 
72806

>  <smiles>  (1884) 
OC[C@H]1C[C@@H]1Nc1ccc2cc(O)ccc2n1

>  <inchikey>  (1884) 
GODDANRZEDTFTN-SKDRFNHKSA-N

>  <distance_score>  (1884) 
0.967908

>  <ref_mols>  (1884) 
Z1688a,Z0089a

>  <ref_pdb>  (1884) 
Z1688a

>  <HIPPO Compound ID>  (1884) 
146087

>  <name>  (1884) 
P72806

>  <inspiration_score>  (1884) 
None

$$$$
P72811
     RDKit          3D

 17 19  0  0  0  0  0  0  0  0999 V2000
    1.1195    5.5601  -20.0213 O   0  0  0  0  0  0  0  0  0  0  0  0
   -0.1214    6.2418  -20.1274 C   0  0  0  0  0  0  0  0  0  0  0  0
   -1.0974    5.6317  -19.1809 C   0  0  2  0  0  0  0  0  0  0  0  0
   -1.7919    4.3475  -19.5455 C   0  0  0  0  0  0  0  0  0  0  0  0
   -2.5713    5.6303  -19.4854 C   0  0  1  0  0  0  0  0  0  0  0  0
   -3.5364    5.8734  -18.4312 N   0  0  0  0  0  0  0  0  0  0  0  0
   -4.8303    5.3507  -18.4231 C   0  0  0  0  0  0  0  0  0  0  0  0
   -5.4312    4.8951  -19.5768 C   0  0  0  0  0  0  0  0  0  0  0  0
   -6.7199    4.4129  -19.5126 C   0  0  0  0  0  0  0  0  0  0  0  0
   -7.4221    4.4777  -18.3241 C   0  0  0  0  0  0  0  0  0  0  0  0
   -8.7706    4.1116  -18.3109 C   0  0  0  0  0  0  0  0  0  0  0  0
   -9.4762    4.1297  -17.1233 C   0  0  0  0  0  0  0  0  0  0  0  0
   -8.8240    4.4744  -15.9482 C   0  0  0  0  0  0  0  0  0  0  0  0
   -7.4874    4.8733  -15.9833 C   0  0  0  0  0  0  0  0  0  0  0  0
   -6.9151    5.2429  -14.7911 O   0  0  0  0  0  0  0  0  0  0  0  0
   -6.7498    4.9178  -17.1709 C   0  0  0  0  0  0  0  0  0  0  0  0
   -5.4620    5.3451  -17.2316 N   0  0  0  0  0  0  0  0  0  0  0  0
  1  2  1  0
  3  2  1  6
  3  4  1  0
  4  5  1  0
  5  6  1  1
  6  7  1  0
  7  8  2  0
  8  9  1  0
  9 10  2  0
 10 11  1  0
 11 12  2  0
 12 13  1  0
 13 14  2  0
 14 15  1  0
 14 16  1  0
 16 17  2  0
  5  3  1  0
 17  7  1  0
 16 10  1  0
M  END
>  <energy_score>  (1885) 
-21.748118

>  <alias>  (1885) 
None

>  <HIPPO Pose ID>  (1885) 
72811

>  <smiles>  (1885) 
OC[C@@H]1C[C@H]1Nc1ccc2cccc(O)c2n1

>  <inchikey>  (1885) 
BTLOJFKRHAPRHL-VHSXEESVSA-N

>  <distance_score>  (1885) 
0.844231

>  <ref_mols>  (1885) 
Z1688a,Z0089a

>  <ref_pdb>  (1885) 
Z1688a

>  <HIPPO Compound ID>  (1885) 
146088

>  <name>  (1885) 
P72811

>  <inspiration_score>  (1885) 
None

$$$$
P72815
     RDKit          3D

 17 18  0  0  0  0  0  0  0  0999 V2000
   -3.6081    5.9865  -15.1431 C   0  0  0  0  0  0  0  0  0  0  0  0
   -4.6702    5.5597  -16.1143 C   0  0  0  0  0  0  0  0  0  0  0  0
   -5.9576    5.2649  -15.6488 C   0  0  0  0  0  0  0  0  0  0  0  0
   -6.9482    4.8620  -16.5479 C   0  0  0  0  0  0  0  0  0  0  0  0
   -8.2656    4.5626  -16.1533 C   0  0  0  0  0  0  0  0  0  0  0  0
   -9.2166    4.2226  -17.1118 C   0  0  0  0  0  0  0  0  0  0  0  0
   -8.8532    4.1614  -18.4482 C   0  0  0  0  0  0  0  0  0  0  0  0
   -7.5365    4.4064  -18.8226 C   0  0  0  0  0  0  0  0  0  0  0  0
   -6.5783    4.7661  -17.8999 C   0  0  0  0  0  0  0  0  0  0  0  0
   -5.3419    5.0242  -18.3444 N   0  0  0  0  0  0  0  0  0  0  0  0
   -4.4037    5.4291  -17.4843 C   0  0  0  0  0  0  0  0  0  0  0  0
   -3.1280    5.7727  -17.9584 N   0  0  0  0  0  0  0  0  0  0  0  0
   -2.8386    5.5502  -19.3820 C   0  0  2  0  0  0  0  0  0  0  0  0
   -1.8990    4.3479  -19.4923 C   0  0  0  0  0  0  0  0  0  0  0  0
   -2.1573    6.8146  -19.9496 C   0  0  1  0  0  0  0  0  0  0  0  0
   -2.0266    6.7992  -21.4632 C   0  0  0  0  0  0  0  0  0  0  0  0
   -2.9021    7.9125  -19.6093 F   0  0  0  0  0  0  0  0  0  0  0  0
  1  2  1  0
  2  3  2  0
  3  4  1  0
  4  5  2  0
  5  6  1  0
  6  7  2  0
  7  8  1  0
  8  9  2  0
  9 10  1  0
 10 11  2  0
 11 12  1  0
 12 13  1  0
 13 14  1  1
 13 15  1  0
 15 16  1  6
 15 17  1  0
 11  2  1  0
  9  4  1  0
M  END
>  <energy_score>  (1886) 
-22.266908

>  <alias>  (1886) 
None

>  <HIPPO Pose ID>  (1886) 
72815

>  <smiles>  (1886) 
Cc1cc2ccccc2nc1N[C@H](C)[C@@H](C)F

>  <inchikey>  (1886) 
NPTKFIYMIJQEHU-GHMZBOCLSA-N

>  <distance_score>  (1886) 
0.914651

>  <ref_mols>  (1886) 
Z1688a,Z0089a

>  <ref_pdb>  (1886) 
Z1688a

>  <HIPPO Compound ID>  (1886) 
146089

>  <name>  (1886) 
P72815

>  <inspiration_score>  (1886) 
None

$$$$
P72818
     RDKit          3D

 17 18  0  0  0  0  0  0  0  0999 V2000
   -5.2527    5.9558  -14.8399 C   0  0  0  0  0  0  0  0  0  0  0  0
   -5.4939    5.6068  -16.2762 C   0  0  0  0  0  0  0  0  0  0  0  0
   -4.4909    5.8412  -17.2140 C   0  0  0  0  0  0  0  0  0  0  0  0
   -4.6918    5.5067  -18.5428 C   0  0  0  0  0  0  0  0  0  0  0  0
   -3.7557    5.7208  -19.5237 N   0  0  0  0  0  0  0  0  0  0  0  0
   -2.3188    5.6574  -19.2898 C   0  0  1  0  0  0  0  0  0  0  0  0
   -1.8025    4.2480  -19.5503 C   0  0  0  0  0  0  0  0  0  0  0  0
   -1.6377    6.7114  -20.1810 C   0  0  1  0  0  0  0  0  0  0  0  0
   -0.1666    6.9252  -19.8622 C   0  0  0  0  0  0  0  0  0  0  0  0
   -1.7257    6.3320  -21.4909 F   0  0  0  0  0  0  0  0  0  0  0  0
   -5.8521    5.0081  -18.9766 N   0  0  0  0  0  0  0  0  0  0  0  0
   -6.8397    4.7978  -18.0987 C   0  0  0  0  0  0  0  0  0  0  0  0
   -8.0404    4.3101  -18.5700 C   0  0  0  0  0  0  0  0  0  0  0  0
   -9.1037    4.0372  -17.7155 C   0  0  0  0  0  0  0  0  0  0  0  0
   -8.9645    4.2348  -16.3566 C   0  0  0  0  0  0  0  0  0  0  0  0
   -7.7827    4.7517  -15.8588 C   0  0  0  0  0  0  0  0  0  0  0  0
   -6.7090    5.0547  -16.7196 C   0  0  0  0  0  0  0  0  0  0  0  0
  1  2  1  0
  2  3  2  0
  3  4  1  0
  4  5  1  0
  5  6  1  0
  6  7  1  6
  6  8  1  0
  8  9  1  1
  8 10  1  0
  4 11  2  0
 11 12  1  0
 12 13  2  0
 13 14  1  0
 14 15  2  0
 15 16  1  0
 16 17  2  0
 17  2  1  0
 17 12  1  0
M  END
>  <energy_score>  (1887) 
-33.546704

>  <alias>  (1887) 
None

>  <HIPPO Pose ID>  (1887) 
72818

>  <smiles>  (1887) 
Cc1cc(N[C@@H](C)[C@@H](C)F)nc2ccccc12

>  <inchikey>  (1887) 
FHZKUBIVLMOHKW-MNOVXSKESA-N

>  <distance_score>  (1887) 
1.80899

>  <ref_mols>  (1887) 
Z1688a,Z0089a

>  <ref_pdb>  (1887) 
Z1688a

>  <HIPPO Compound ID>  (1887) 
146090

>  <name>  (1887) 
P72818

>  <inspiration_score>  (1887) 
None

$$$$
P72821
     RDKit          3D

 17 18  0  0  0  0  0  0  0  0999 V2000
   -1.0610    5.1146  -19.4499 C   0  0  0  0  0  0  0  0  0  0  0  0
   -2.1671    5.7177  -18.5821 C   0  0  1  0  0  0  0  0  0  0  0  0
   -2.5104    7.1575  -18.9893 C   0  0  0  0  0  0  0  0  0  0  0  0
   -3.1081    7.3143  -20.3847 C   0  0  0  0  0  0  0  0  0  0  0  0
   -3.4342    9.0410  -20.7120 Cl  0  0  0  0  0  0  0  0  0  0  0  0
   -3.2935    4.8268  -18.6853 N   0  0  0  0  0  0  0  0  0  0  0  0
   -4.4585    4.9834  -17.9967 C   0  0  0  0  0  0  0  0  0  0  0  0
   -4.6301    5.2623  -16.6539 C   0  0  0  0  0  0  0  0  0  0  0  0
   -5.9237    5.1774  -16.1087 C   0  0  0  0  0  0  0  0  0  0  0  0
   -7.0094    4.8133  -16.9326 C   0  0  0  0  0  0  0  0  0  0  0  0
   -8.3534    4.6136  -16.5256 C   0  0  0  0  0  0  0  0  0  0  0  0
   -9.3071    4.2931  -17.4914 C   0  0  0  0  0  0  0  0  0  0  0  0
  -10.6229    4.1003  -17.2387 O   0  0  0  0  0  0  0  0  0  0  0  0
   -8.9579    4.1598  -18.8170 C   0  0  0  0  0  0  0  0  0  0  0  0
   -7.6435    4.2738  -19.1945 C   0  0  0  0  0  0  0  0  0  0  0  0
   -6.6895    4.6160  -18.2854 C   0  0  0  0  0  0  0  0  0  0  0  0
   -5.4768    4.7117  -18.7948 N   0  0  0  0  0  0  0  0  0  0  0  0
  2  1  1  6
  2  3  1  0
  3  4  1  0
  4  5  1  0
  2  6  1  0
  6  7  1  0
  7  8  2  0
  8  9  1  0
  9 10  2  0
 10 11  1  0
 11 12  2  0
 12 13  1  0
 12 14  1  0
 14 15  2  0
 15 16  1  0
 16 17  2  0
 17  7  1  0
 16 10  1  0
M  END
>  <energy_score>  (1888) 
-34.798322

>  <alias>  (1888) 
None

>  <HIPPO Pose ID>  (1888) 
72821

>  <smiles>  (1888) 
C[C@@H](CCCl)Nc1ccc2cc(O)ccc2n1

>  <inchikey>  (1888) 
ZJIOZSHXVDRYBW-VIFPVBQESA-N

>  <distance_score>  (1888) 
0.972036

>  <ref_mols>  (1888) 
Z1688a,Z0089a

>  <ref_pdb>  (1888) 
Z1688a

>  <HIPPO Compound ID>  (1888) 
146091

>  <name>  (1888) 
P72821

>  <inspiration_score>  (1888) 
None

$$$$
P72826
     RDKit          3D

 17 18  0  0  0  0  0  0  0  0999 V2000
   -4.9570    5.8352  -15.0610 C   0  0  0  0  0  0  0  0  0  0  0  0
   -5.3479    5.4785  -16.4629 C   0  0  0  0  0  0  0  0  0  0  0  0
   -4.4037    5.5741  -17.4868 C   0  0  0  0  0  0  0  0  0  0  0  0
   -4.7488    5.2489  -18.7860 C   0  0  0  0  0  0  0  0  0  0  0  0
   -3.9050    5.2791  -19.8519 N   0  0  0  0  0  0  0  0  0  0  0  0
   -2.4865    5.5371  -19.9589 C   0  0  2  0  0  0  0  0  0  0  0  0
   -1.6588    4.5129  -19.1923 C   0  0  0  0  0  0  0  0  0  0  0  0
   -2.1224    6.9812  -19.5898 C   0  0  0  0  0  0  0  0  0  0  0  0
   -2.8129    8.0265  -20.4630 C   0  0  0  0  0  0  0  0  0  0  0  0
   -2.1720    8.0313  -22.1260 Cl  0  0  0  0  0  0  0  0  0  0  0  0
   -5.9900    4.8644  -19.0999 N   0  0  0  0  0  0  0  0  0  0  0  0
   -6.9103    4.7488  -18.1362 C   0  0  0  0  0  0  0  0  0  0  0  0
   -8.1785    4.3334  -18.4881 C   0  0  0  0  0  0  0  0  0  0  0  0
   -9.1728    4.1327  -17.5350 C   0  0  0  0  0  0  0  0  0  0  0  0
   -8.8968    4.3434  -16.1982 C   0  0  0  0  0  0  0  0  0  0  0  0
   -7.6467    4.8014  -15.8236 C   0  0  0  0  0  0  0  0  0  0  0  0
   -6.6381    5.0197  -16.7830 C   0  0  0  0  0  0  0  0  0  0  0  0
  1  2  1  0
  2  3  2  0
  3  4  1  0
  4  5  1  0
  5  6  1  0
  6  7  1  1
  6  8  1  0
  8  9  1  0
  9 10  1  0
  4 11  2  0
 11 12  1  0
 12 13  2  0
 13 14  1  0
 14 15  2  0
 15 16  1  0
 16 17  2  0
 17  2  1  0
 17 12  1  0
M  END
>  <energy_score>  (1889) 
-36.369248

>  <alias>  (1889) 
None

>  <HIPPO Pose ID>  (1889) 
72826

>  <smiles>  (1889) 
Cc1cc(N[C@H](C)CCCl)nc2ccccc12

>  <inchikey>  (1889) 
UTEJHZHJEDXXKN-LLVKDONJSA-N

>  <distance_score>  (1889) 
1.968684

>  <ref_mols>  (1889) 
Z1688a,Z0089a

>  <ref_pdb>  (1889) 
Z1688a

>  <HIPPO Compound ID>  (1889) 
146094

>  <name>  (1889) 
P72826

>  <inspiration_score>  (1889) 
None

$$$$
P72828
     RDKit          3D

 17 18  0  0  0  0  0  0  0  0999 V2000
   -1.7961    4.3752  -19.2301 C   0  0  0  0  0  0  0  0  0  0  0  0
   -2.1327    5.6882  -18.5249 C   0  0  2  0  0  0  0  0  0  0  0  0
   -3.5095    6.0567  -18.8309 N   0  0  0  0  0  0  0  0  0  0  0  0
   -4.5418    5.5792  -18.0656 C   0  0  0  0  0  0  0  0  0  0  0  0
   -4.6994    5.7524  -16.7006 C   0  0  0  0  0  0  0  0  0  0  0  0
   -5.9193    5.3903  -16.1091 C   0  0  0  0  0  0  0  0  0  0  0  0
   -6.9578    4.8848  -16.9132 C   0  0  0  0  0  0  0  0  0  0  0  0
   -8.2730    4.5876  -16.4792 C   0  0  0  0  0  0  0  0  0  0  0  0
   -9.2159    4.1967  -17.4256 C   0  0  0  0  0  0  0  0  0  0  0  0
  -10.5239    3.9778  -17.1523 O   0  0  0  0  0  0  0  0  0  0  0  0
   -8.8659    4.0317  -18.7485 C   0  0  0  0  0  0  0  0  0  0  0  0
   -7.5693    4.2452  -19.1531 C   0  0  0  0  0  0  0  0  0  0  0  0
   -6.6380    4.7083  -18.2717 C   0  0  0  0  0  0  0  0  0  0  0  0
   -5.4738    5.0165  -18.8177 N   0  0  0  0  0  0  0  0  0  0  0  0
   -1.2324    6.8544  -18.9864 C   0  0  2  0  0  0  0  0  0  0  0  0
    0.2593    6.5754  -18.8911 C   0  0  0  0  0  0  0  0  0  0  0  0
   -1.4763    7.9346  -18.1771 F   0  0  0  0  0  0  0  0  0  0  0  0
  2  1  1  6
  2  3  1  0
  3  4  1  0
  4  5  2  0
  5  6  1  0
  6  7  2  0
  7  8  1  0
  8  9  2  0
  9 10  1  0
  9 11  1  0
 11 12  2  0
 12 13  1  0
 13 14  2  0
  2 15  1  0
 15 16  1  1
 15 17  1  0
 14  4  1  0
 13  7  1  0
M  END
>  <energy_score>  (1890) 
-21.855977

>  <alias>  (1890) 
None

>  <HIPPO Pose ID>  (1890) 
72828

>  <smiles>  (1890) 
C[C@H](F)[C@H](C)Nc1ccc2cc(O)ccc2n1

>  <inchikey>  (1890) 
JKZOTUBEKQJRRY-IUCAKERBSA-N

>  <distance_score>  (1890) 
0.926

>  <ref_mols>  (1890) 
Z1688a,Z0089a

>  <ref_pdb>  (1890) 
Z1688a

>  <HIPPO Compound ID>  (1890) 
146095

>  <name>  (1890) 
P72828

>  <inspiration_score>  (1890) 
None

$$$$
P72832
     RDKit          3D

 17 18  0  0  0  0  0  0  0  0999 V2000
   -1.4636    4.7362  -19.2546 C   0  0  0  0  0  0  0  0  0  0  0  0
   -2.7069    5.3910  -18.6428 C   0  0  2  0  0  0  0  0  0  0  0  0
   -3.8217    5.0686  -19.5183 N   0  0  0  0  0  0  0  0  0  0  0  0
   -5.1149    4.9755  -19.0059 C   0  0  0  0  0  0  0  0  0  0  0  0
   -6.0672    4.5116  -19.8963 C   0  0  0  0  0  0  0  0  0  0  0  0
   -7.3361    4.2069  -19.4688 C   0  0  0  0  0  0  0  0  0  0  0  0
   -7.6484    4.4021  -18.1505 C   0  0  0  0  0  0  0  0  0  0  0  0
   -8.9308    4.0543  -17.7544 C   0  0  0  0  0  0  0  0  0  0  0  0
   -9.2567    4.1271  -16.4214 C   0  0  0  0  0  0  0  0  0  0  0  0
   -8.3434    4.5995  -15.4972 C   0  0  0  0  0  0  0  0  0  0  0  0
   -7.0740    4.9881  -15.9272 C   0  0  0  0  0  0  0  0  0  0  0  0
   -6.2210    5.4700  -14.9684 O   0  0  0  0  0  0  0  0  0  0  0  0
   -6.6626    4.8879  -17.2650 C   0  0  0  0  0  0  0  0  0  0  0  0
   -5.4018    5.1817  -17.7057 N   0  0  0  0  0  0  0  0  0  0  0  0
   -2.5384    6.9069  -18.4403 C   0  0  2  0  0  0  0  0  0  0  0  0
   -2.2601    7.7102  -19.7019 C   0  0  0  0  0  0  0  0  0  0  0  0
   -1.4907    7.1205  -17.5860 F   0  0  0  0  0  0  0  0  0  0  0  0
  2  1  1  6
  2  3  1  0
  3  4  1  0
  4  5  2  0
  5  6  1  0
  6  7  2  0
  7  8  1  0
  8  9  2  0
  9 10  1  0
 10 11  2  0
 11 12  1  0
 11 13  1  0
 13 14  2  0
  2 15  1  0
 15 16  1  6
 15 17  1  0
 14  4  1  0
 13  7  1  0
M  END
>  <energy_score>  (1891) 
-42.964488

>  <alias>  (1891) 
None

>  <HIPPO Pose ID>  (1891) 
72832

>  <smiles>  (1891) 
C[C@H](F)[C@H](C)Nc1ccc2cccc(O)c2n1

>  <inchikey>  (1891) 
WUZGUDORONTXCE-IUCAKERBSA-N

>  <distance_score>  (1891) 
0.86931

>  <ref_mols>  (1891) 
Z1688a,Z0089a

>  <ref_pdb>  (1891) 
Z1688a

>  <HIPPO Compound ID>  (1891) 
146096

>  <name>  (1891) 
P72832

>  <inspiration_score>  (1891) 
None

$$$$
P72836
     RDKit          3D

 17 19  0  0  0  0  0  0  0  0999 V2000
   -1.4649    3.5022  -19.5822 C   0  0  0  0  0  0  0  0  0  0  0  0
   -1.9914    4.5659  -19.7420 C   0  0  0  0  0  0  0  0  0  0  0  0
   -2.6565    5.8159  -19.9721 C   0  0  0  0  0  0  0  0  0  0  0  0
   -4.1075    5.7280  -20.0073 N   0  0  0  0  0  0  0  0  0  0  0  0
   -4.8975    5.4905  -18.8829 C   0  0  0  0  0  0  0  0  0  0  0  0
   -4.4880    5.7988  -17.5941 C   0  0  0  0  0  0  0  0  0  0  0  0
   -5.3539    5.5842  -16.5212 C   0  0  0  0  0  0  0  0  0  0  0  0
   -4.9076    5.9211  -15.1313 C   0  0  0  0  0  0  0  0  0  0  0  0
   -6.6368    5.0664  -16.7877 C   0  0  0  0  0  0  0  0  0  0  0  0
   -7.5953    4.8058  -15.7881 C   0  0  0  0  0  0  0  0  0  0  0  0
   -8.8525    4.3275  -16.1130 C   0  0  0  0  0  0  0  0  0  0  0  0
   -9.1787    4.1152  -17.4385 C   0  0  0  0  0  0  0  0  0  0  0  0
   -8.2310    4.3439  -18.4314 C   0  0  0  0  0  0  0  0  0  0  0  0
   -6.9651    4.8029  -18.1314 C   0  0  0  0  0  0  0  0  0  0  0  0
   -6.1117    4.9931  -19.1405 N   0  0  0  0  0  0  0  0  0  0  0  0
   -1.9753    7.0805  -19.5085 C   0  0  0  0  0  0  0  0  0  0  0  0
   -1.9861    6.7415  -20.9665 C   0  0  0  0  0  0  0  0  0  0  0  0
  1  2  3  0
  2  3  1  0
  3  4  1  0
  4  5  1  0
  5  6  2  0
  6  7  1  0
  7  8  1  0
  7  9  2  0
  9 10  1  0
 10 11  2  0
 11 12  1  0
 12 13  2  0
 13 14  1  0
 14 15  2  0
  3 16  1  0
 16 17  1  0
 17  3  1  0
 15  5  1  0
 14  9  1  0
M  END
>  <energy_score>  (1892) 
-25.439736

>  <alias>  (1892) 
None

>  <HIPPO Pose ID>  (1892) 
72836

>  <smiles>  (1892) 
C#CC1(Nc2cc(C)c3ccccc3n2)CC1

>  <inchikey>  (1892) 
MEBFFAICWIFRNY-UHFFFAOYSA-N

>  <distance_score>  (1892) 
1.906048

>  <ref_mols>  (1892) 
Z1688a,Z0089a

>  <ref_pdb>  (1892) 
Z1688a

>  <HIPPO Compound ID>  (1892) 
146098

>  <name>  (1892) 
P72836

>  <inspiration_score>  (1892) 
None

$$$$
P72837
     RDKit          3D

 17 19  0  0  0  0  0  0  0  0999 V2000
   -1.4406    3.5644  -19.4667 C   0  0  0  0  0  0  0  0  0  0  0  0
   -1.7773    4.6738  -19.1662 C   0  0  0  0  0  0  0  0  0  0  0  0
   -2.1696    6.0137  -18.8315 C   0  0  0  0  0  0  0  0  0  0  0  0
   -3.5826    6.2945  -19.0564 N   0  0  0  0  0  0  0  0  0  0  0  0
   -4.5657    5.7526  -18.2329 C   0  0  0  0  0  0  0  0  0  0  0  0
   -4.6573    5.9191  -16.8594 C   0  0  0  0  0  0  0  0  0  0  0  0
   -5.8318    5.5143  -16.2050 C   0  0  0  0  0  0  0  0  0  0  0  0
   -6.8885    4.9622  -16.9522 C   0  0  0  0  0  0  0  0  0  0  0  0
   -8.1694    4.6264  -16.4525 C   0  0  0  0  0  0  0  0  0  0  0  0
   -9.1339    4.1741  -17.3466 C   0  0  0  0  0  0  0  0  0  0  0  0
  -10.4170    3.9115  -17.0124 O   0  0  0  0  0  0  0  0  0  0  0  0
   -8.8353    3.9775  -18.6770 C   0  0  0  0  0  0  0  0  0  0  0  0
   -7.5729    4.2447  -19.1482 C   0  0  0  0  0  0  0  0  0  0  0  0
   -6.6279    4.7770  -18.3221 C   0  0  0  0  0  0  0  0  0  0  0  0
   -5.5130    5.1421  -18.9305 N   0  0  0  0  0  0  0  0  0  0  0  0
   -1.3825    6.7695  -17.7982 C   0  0  0  0  0  0  0  0  0  0  0  0
   -1.1812    7.0891  -19.2449 C   0  0  0  0  0  0  0  0  0  0  0  0
  1  2  3  0
  2  3  1  0
  3  4  1  0
  4  5  1  0
  5  6  2  0
  6  7  1  0
  7  8  2  0
  8  9  1  0
  9 10  2  0
 10 11  1  0
 10 12  1  0
 12 13  2  0
 13 14  1  0
 14 15  2  0
  3 16  1  0
 16 17  1  0
 17  3  1  0
 15  5  1  0
 14  8  1  0
M  END
>  <energy_score>  (1893) 
-15.378295

>  <alias>  (1893) 
None

>  <HIPPO Pose ID>  (1893) 
72837

>  <smiles>  (1893) 
C#CC1(Nc2ccc3cc(O)ccc3n2)CC1

>  <inchikey>  (1893) 
OTGIPYCMNYXJFQ-UHFFFAOYSA-N

>  <distance_score>  (1893) 
1.012514

>  <ref_mols>  (1893) 
Z1688a,Z0089a

>  <ref_pdb>  (1893) 
Z1688a

>  <HIPPO Compound ID>  (1893) 
146099

>  <name>  (1893) 
P72837

>  <inspiration_score>  (1893) 
None

$$$$
P72838
     RDKit          3D

 17 19  0  0  0  0  0  0  0  0999 V2000
   -1.4592    3.6489  -19.4658 C   0  0  0  0  0  0  0  0  0  0  0  0
   -2.0420    4.6631  -19.2062 C   0  0  0  0  0  0  0  0  0  0  0  0
   -2.7779    5.8736  -18.9644 C   0  0  0  0  0  0  0  0  0  0  0  0
   -4.0678    5.8979  -19.6546 N   0  0  0  0  0  0  0  0  0  0  0  0
   -5.2029    5.2922  -19.0545 C   0  0  0  0  0  0  0  0  0  0  0  0
   -6.0883    4.6707  -19.9245 C   0  0  0  0  0  0  0  0  0  0  0  0
   -7.2950    4.1820  -19.4728 C   0  0  0  0  0  0  0  0  0  0  0  0
   -7.6266    4.3720  -18.1557 C   0  0  0  0  0  0  0  0  0  0  0  0
   -8.8814    3.9657  -17.7191 C   0  0  0  0  0  0  0  0  0  0  0  0
   -9.2007    4.1026  -16.3838 C   0  0  0  0  0  0  0  0  0  0  0  0
   -8.3015    4.6648  -15.4933 C   0  0  0  0  0  0  0  0  0  0  0  0
   -7.0719    5.0989  -15.9674 C   0  0  0  0  0  0  0  0  0  0  0  0
   -6.2301    5.6933  -15.0652 O   0  0  0  0  0  0  0  0  0  0  0  0
   -6.6843    4.9689  -17.2998 C   0  0  0  0  0  0  0  0  0  0  0  0
   -5.4769    5.4199  -17.7361 N   0  0  0  0  0  0  0  0  0  0  0  0
   -2.5262    6.6513  -17.7052 C   0  0  0  0  0  0  0  0  0  0  0  0
   -1.9564    7.1493  -18.9947 C   0  0  0  0  0  0  0  0  0  0  0  0
  1  2  3  0
  2  3  1  0
  3  4  1  0
  4  5  1  0
  5  6  2  0
  6  7  1  0
  7  8  2  0
  8  9  1  0
  9 10  2  0
 10 11  1  0
 11 12  2  0
 12 13  1  0
 12 14  1  0
 14 15  2  0
  3 16  1  0
 16 17  1  0
 17  3  1  0
 15  5  1  0
 14  8  1  0
M  END
>  <energy_score>  (1894) 
-22.819274

>  <alias>  (1894) 
None

>  <HIPPO Pose ID>  (1894) 
72838

>  <smiles>  (1894) 
C#CC1(Nc2ccc3cccc(O)c3n2)CC1

>  <inchikey>  (1894) 
AZYQCIWDKFGQLD-UHFFFAOYSA-N

>  <distance_score>  (1894) 
1.164766

>  <ref_mols>  (1894) 
Z1688a,Z0089a

>  <ref_pdb>  (1894) 
Z1688a

>  <HIPPO Compound ID>  (1894) 
146100

>  <name>  (1894) 
P72838

>  <inspiration_score>  (1894) 
None

$$$$
P72840
     RDKit          3D

 17 18  0  0  0  0  0  0  0  0999 V2000
   -1.5589    3.9476  -19.1316 C   0  0  0  0  0  0  0  0  0  0  0  0
   -1.8834    4.7402  -20.3739 C   0  0  0  0  0  0  0  0  0  0  0  0
   -2.6639    6.0468  -20.1300 C   0  0  0  0  0  0  0  0  0  0  0  0
   -1.9910    6.9620  -19.1045 C   0  0  0  0  0  0  0  0  0  0  0  0
   -2.6735    6.8366  -21.4665 C   0  0  0  0  0  0  0  0  0  0  0  0
   -4.0566    5.7390  -19.8567 N   0  0  0  0  0  0  0  0  0  0  0  0
   -4.8140    5.5150  -18.7575 C   0  0  0  0  0  0  0  0  0  0  0  0
   -4.4725    5.7940  -17.4506 C   0  0  0  0  0  0  0  0  0  0  0  0
   -5.3857    5.5609  -16.4188 C   0  0  0  0  0  0  0  0  0  0  0  0
   -5.0015    5.8840  -15.0069 C   0  0  0  0  0  0  0  0  0  0  0  0
   -6.6534    5.0458  -16.7448 C   0  0  0  0  0  0  0  0  0  0  0  0
   -7.6541    4.7682  -15.7923 C   0  0  0  0  0  0  0  0  0  0  0  0
   -8.8921    4.2893  -16.1818 C   0  0  0  0  0  0  0  0  0  0  0  0
   -9.1571    4.0945  -17.5231 C   0  0  0  0  0  0  0  0  0  0  0  0
   -8.1667    4.3428  -18.4679 C   0  0  0  0  0  0  0  0  0  0  0  0
   -6.9183    4.8036  -18.1032 C   0  0  0  0  0  0  0  0  0  0  0  0
   -6.0163    5.0148  -19.0656 N   0  0  0  0  0  0  0  0  0  0  0  0
  1  2  1  0
  2  3  1  0
  3  4  1  0
  3  5  1  0
  3  6  1  0
  6  7  1  0
  7  8  2  0
  8  9  1  0
  9 10  1  0
  9 11  2  0
 11 12  1  0
 12 13  2  0
 13 14  1  0
 14 15  2  0
 15 16  1  0
 16 17  2  0
 17  7  1  0
 16 11  1  0
M  END
>  <energy_score>  (1895) 
-26.080508

>  <alias>  (1895) 
None

>  <HIPPO Pose ID>  (1895) 
72840

>  <smiles>  (1895) 
CCC(C)(C)Nc1cc(C)c2ccccc2n1

>  <inchikey>  (1895) 
YSRMLVJVHPXWRK-UHFFFAOYSA-N

>  <distance_score>  (1895) 
1.955272

>  <ref_mols>  (1895) 
Z1688a,Z0089a

>  <ref_pdb>  (1895) 
Z1688a

>  <HIPPO Compound ID>  (1895) 
146102

>  <name>  (1895) 
P72840

>  <inspiration_score>  (1895) 
None

$$$$
P72844
     RDKit          3D

 17 18  0  0  0  0  0  0  0  0999 V2000
   -2.1447    4.3299  -19.1223 C   0  0  0  0  0  0  0  0  0  0  0  0
   -2.1439    5.6872  -18.4295 C   0  0  1  0  0  0  0  0  0  0  0  0
   -1.1478    6.6444  -19.1034 C   0  0  0  0  0  0  0  0  0  0  0  0
    0.3011    6.2273  -18.9146 C   0  0  0  0  0  0  0  0  0  0  0  0
    0.5734    6.1711  -17.5822 F   0  0  0  0  0  0  0  0  0  0  0  0
   -3.4544    6.3245  -18.5229 N   0  0  0  0  0  0  0  0  0  0  0  0
   -4.5237    5.7262  -17.8771 C   0  0  0  0  0  0  0  0  0  0  0  0
   -4.7553    5.8592  -16.5134 C   0  0  0  0  0  0  0  0  0  0  0  0
   -5.9827    5.4394  -15.9848 C   0  0  0  0  0  0  0  0  0  0  0  0
   -6.9640    4.9199  -16.8445 C   0  0  0  0  0  0  0  0  0  0  0  0
   -8.2878    4.5937  -16.4622 C   0  0  0  0  0  0  0  0  0  0  0  0
   -9.1920    4.1986  -17.4434 C   0  0  0  0  0  0  0  0  0  0  0  0
  -10.5091    3.9770  -17.2068 O   0  0  0  0  0  0  0  0  0  0  0  0
   -8.7874    4.0442  -18.7536 C   0  0  0  0  0  0  0  0  0  0  0  0
   -7.4756    4.2920  -19.1074 C   0  0  0  0  0  0  0  0  0  0  0  0
   -6.5796    4.7693  -18.1904 C   0  0  0  0  0  0  0  0  0  0  0  0
   -5.3956    5.1264  -18.6756 N   0  0  0  0  0  0  0  0  0  0  0  0
  2  1  1  6
  2  3  1  0
  3  4  1  0
  4  5  1  0
  2  6  1  0
  6  7  1  0
  7  8  2  0
  8  9  1  0
  9 10  2  0
 10 11  1  0
 11 12  2  0
 12 13  1  0
 12 14  1  0
 14 15  2  0
 15 16  1  0
 16 17  2  0
 17  7  1  0
 16 10  1  0
M  END
>  <energy_score>  (1896) 
-12.192566

>  <alias>  (1896) 
None

>  <HIPPO Pose ID>  (1896) 
72844

>  <smiles>  (1896) 
C[C@@H](CCF)Nc1ccc2cc(O)ccc2n1

>  <inchikey>  (1896) 
GOIRCBQGOHYHJP-VIFPVBQESA-N

>  <distance_score>  (1896) 
0.947727

>  <ref_mols>  (1896) 
Z1688a,Z0089a

>  <ref_pdb>  (1896) 
Z1688a

>  <HIPPO Compound ID>  (1896) 
146105

>  <name>  (1896) 
P72844

>  <inspiration_score>  (1896) 
None

$$$$
P72850
     RDKit          3D

 17 19  0  0  0  0  0  0  0  0999 V2000
   -5.5017    5.7312  -15.2179 O   0  0  0  0  0  0  0  0  0  0  0  0
   -6.5485    5.1977  -15.9309 C   0  0  0  0  0  0  0  0  0  0  0  0
   -7.7292    4.8904  -15.2656 C   0  0  0  0  0  0  0  0  0  0  0  0
   -8.8000    4.3716  -15.9859 C   0  0  0  0  0  0  0  0  0  0  0  0
   -8.7011    4.1753  -17.3548 C   0  0  0  0  0  0  0  0  0  0  0  0
   -7.4948    4.4648  -17.9898 C   0  0  0  0  0  0  0  0  0  0  0  0
   -7.3507    4.2357  -19.3393 C   0  0  0  0  0  0  0  0  0  0  0  0
   -6.1495    4.5678  -19.9433 C   0  0  0  0  0  0  0  0  0  0  0  0
   -5.0912    5.0806  -19.2041 C   0  0  0  0  0  0  0  0  0  0  0  0
   -3.9530    5.5051  -19.9353 N   0  0  0  0  0  0  0  0  0  0  0  0
   -2.6029    5.5214  -19.3207 C   0  0  0  0  0  0  0  0  0  0  0  0
   -1.7991    4.2497  -19.5406 C   0  0  0  0  0  0  0  0  0  0  0  0
   -2.0487    3.7822  -20.8061 F   0  0  0  0  0  0  0  0  0  0  0  0
   -1.8405    6.8293  -19.4357 C   0  0  0  0  0  0  0  0  0  0  0  0
   -2.3047    6.3582  -18.0946 C   0  0  0  0  0  0  0  0  0  0  0  0
   -5.1993    5.2743  -17.8754 N   0  0  0  0  0  0  0  0  0  0  0  0
   -6.3872    4.9808  -17.2909 C   0  0  0  0  0  0  0  0  0  0  0  0
  1  2  1  0
  2  3  2  0
  3  4  1  0
  4  5  2  0
  5  6  1  0
  6  7  2  0
  7  8  1  0
  8  9  2  0
  9 10  1  0
 10 11  1  0
 11 12  1  0
 12 13  1  0
 11 14  1  0
 14 15  1  0
  9 16  1  0
 16 17  2  0
 17  2  1  0
 17  6  1  0
 15 11  1  0
M  END
>  <energy_score>  (1897) 
-21.532365

>  <alias>  (1897) 
None

>  <HIPPO Pose ID>  (1897) 
72850

>  <smiles>  (1897) 
Oc1cccc2ccc(NC3(CF)CC3)nc12

>  <inchikey>  (1897) 
NZMOJIRHKHQVAH-UHFFFAOYSA-N

>  <distance_score>  (1897) 
1.075808

>  <ref_mols>  (1897) 
Z1688a,Z0089a

>  <ref_pdb>  (1897) 
Z1688a

>  <HIPPO Compound ID>  (1897) 
146112

>  <name>  (1897) 
P72850

>  <inspiration_score>  (1897) 
None

$$$$
P72860
     RDKit          3D

 17 19  0  0  0  0  0  0  0  0999 V2000
   -4.9126    5.9207  -15.1474 C   0  0  0  0  0  0  0  0  0  0  0  0
   -5.3246    5.5474  -16.5388 C   0  0  0  0  0  0  0  0  0  0  0  0
   -4.4136    5.6847  -17.5874 C   0  0  0  0  0  0  0  0  0  0  0  0
   -4.7850    5.3345  -18.8770 C   0  0  0  0  0  0  0  0  0  0  0  0
   -3.9209    5.4418  -19.9665 N   0  0  0  0  0  0  0  0  0  0  0  0
   -2.4638    5.5583  -19.8752 C   0  0  2  0  0  0  0  0  0  0  0  0
   -1.7414    4.2954  -19.4741 C   0  0  0  0  0  0  0  0  0  0  0  0
   -1.8530    6.8899  -19.4848 C   0  0  0  0  0  0  0  0  0  0  0  0
   -1.7431    6.4153  -20.9041 C   0  0  2  0  0  0  0  0  0  0  0  0
   -2.4817    7.1219  -21.9902 C   0  0  0  0  0  0  0  0  0  0  0  0
   -6.0141    4.8881  -19.1615 N   0  0  0  0  0  0  0  0  0  0  0  0
   -6.9070    4.7592  -18.1735 C   0  0  0  0  0  0  0  0  0  0  0  0
   -8.1759    4.3186  -18.4923 C   0  0  0  0  0  0  0  0  0  0  0  0
   -9.1500    4.1182  -17.5173 C   0  0  0  0  0  0  0  0  0  0  0  0
   -8.8518    4.3485  -16.1886 C   0  0  0  0  0  0  0  0  0  0  0  0
   -7.5984    4.8251  -15.8457 C   0  0  0  0  0  0  0  0  0  0  0  0
   -6.6111    5.0507  -16.8277 C   0  0  0  0  0  0  0  0  0  0  0  0
  1  2  1  0
  2  3  2  0
  3  4  1  0
  4  5  1  0
  6  5  1  0
  6  7  1  1
  6  8  1  0
  8  9  1  0
  9 10  1  6
  4 11  2  0
 11 12  1  0
 12 13  2  0
 13 14  1  0
 14 15  2  0
 15 16  1  0
 16 17  2  0
 17  2  1  0
  9  6  1  0
 17 12  1  0
M  END
>  <energy_score>  (1898) 
-24.588873

>  <alias>  (1898) 
None

>  <HIPPO Pose ID>  (1898) 
72860

>  <smiles>  (1898) 
Cc1cc(N[C@]2(C)C[C@@H]2C)nc2ccccc12

>  <inchikey>  (1898) 
ULLNDJMPPIBMEP-XHDPSFHLSA-N

>  <distance_score>  (1898) 
1.767792

>  <ref_mols>  (1898) 
Z1688a,Z0089a

>  <ref_pdb>  (1898) 
Z1688a

>  <HIPPO Compound ID>  (1898) 
146117

>  <name>  (1898) 
P72860

>  <inspiration_score>  (1898) 
None

$$$$
P72864
     RDKit          3D

 17 19  0  0  0  0  0  0  0  0999 V2000
   -6.3625    5.5577  -14.8661 O   0  0  0  0  0  0  0  0  0  0  0  0
   -7.1454    5.0688  -15.8859 C   0  0  0  0  0  0  0  0  0  0  0  0
   -8.4549    4.6866  -15.6308 C   0  0  0  0  0  0  0  0  0  0  0  0
   -9.2410    4.2238  -16.6850 C   0  0  0  0  0  0  0  0  0  0  0  0
   -8.7254    4.1435  -17.9695 C   0  0  0  0  0  0  0  0  0  0  0  0
   -7.3954    4.5003  -18.1885 C   0  0  0  0  0  0  0  0  0  0  0  0
   -6.8190    4.3715  -19.4352 C   0  0  0  0  0  0  0  0  0  0  0  0
   -5.4961    4.7359  -19.6094 C   0  0  0  0  0  0  0  0  0  0  0  0
   -4.7550    5.1732  -18.5295 C   0  0  0  0  0  0  0  0  0  0  0  0
   -3.4073    5.3963  -18.5727 N   0  0  0  0  0  0  0  0  0  0  0  0
   -2.6660    5.7936  -19.7478 C   0  0  0  0  0  0  0  0  0  0  0  0
   -1.5182    4.7977  -19.9682 C   0  0  0  0  0  0  0  0  0  0  0  0
   -0.2289    5.5333  -19.5965 C   0  0  0  0  0  0  0  0  0  0  0  0
   -0.6682    6.7654  -18.8251 C   0  0  0  0  0  0  0  0  0  0  0  0
   -1.9823    7.1386  -19.4923 C   0  0  0  0  0  0  0  0  0  0  0  0
   -5.2935    5.3166  -17.3082 N   0  0  0  0  0  0  0  0  0  0  0  0
   -6.5858    4.9729  -17.1476 C   0  0  0  0  0  0  0  0  0  0  0  0
  1  2  1  0
  2  3  2  0
  3  4  1  0
  4  5  2  0
  5  6  1  0
  6  7  2  0
  7  8  1  0
  8  9  2  0
  9 10  1  0
 10 11  1  0
 11 12  1  0
 12 13  1  0
 13 14  1  0
 14 15  1  0
  9 16  1  0
 16 17  2  0
 17  2  1  0
 17  6  1  0
 15 11  1  0
M  END
>  <energy_score>  (1899) 
-33.640818

>  <alias>  (1899) 
None

>  <HIPPO Pose ID>  (1899) 
72864

>  <smiles>  (1899) 
Oc1cccc2ccc(NC3CCCC3)nc12

>  <inchikey>  (1899) 
MYIJIRBGHATDBF-UHFFFAOYSA-N

>  <distance_score>  (1899) 
0.915484

>  <ref_mols>  (1899) 
Z1688a,Z0089a

>  <ref_pdb>  (1899) 
Z1688a

>  <HIPPO Compound ID>  (1899) 
146118

>  <name>  (1899) 
P72864

>  <inspiration_score>  (1899) 
None

$$$$
P72867
     RDKit          3D

 17 19  0  0  0  0  0  0  0  0999 V2000
   -0.6086    7.2118  -16.7290 C   0  0  0  0  0  0  0  0  0  0  0  0
   -1.1872    5.9969  -17.3684 C   0  0  2  0  0  0  0  0  0  0  0  0
   -0.7493    5.5782  -18.7462 C   0  0  0  0  0  0  0  0  0  0  0  0
   -2.1663    6.0658  -18.5245 C   0  0  2  0  0  0  0  0  0  0  0  0
   -2.5253    7.3968  -19.1329 C   0  0  0  0  0  0  0  0  0  0  0  0
   -3.2022    5.0408  -18.6611 N   0  0  0  0  0  0  0  0  0  0  0  0
   -4.4220    5.1098  -18.0023 C   0  0  0  0  0  0  0  0  0  0  0  0
   -4.6188    5.4111  -16.6644 C   0  0  0  0  0  0  0  0  0  0  0  0
   -5.9076    5.2766  -16.1217 C   0  0  0  0  0  0  0  0  0  0  0  0
   -6.9721    4.8568  -16.9434 C   0  0  0  0  0  0  0  0  0  0  0  0
   -8.3126    4.6413  -16.5326 C   0  0  0  0  0  0  0  0  0  0  0  0
   -9.2605    4.2850  -17.4900 C   0  0  0  0  0  0  0  0  0  0  0  0
  -10.5760    4.0909  -17.2316 O   0  0  0  0  0  0  0  0  0  0  0  0
   -8.9034    4.1231  -18.8111 C   0  0  0  0  0  0  0  0  0  0  0  0
   -7.5886    4.2556  -19.1917 C   0  0  0  0  0  0  0  0  0  0  0  0
   -6.6380    4.6340  -18.2906 C   0  0  0  0  0  0  0  0  0  0  0  0
   -5.4222    4.7546  -18.7967 N   0  0  0  0  0  0  0  0  0  0  0  0
  2  1  1  6
  2  3  1  0
  3  4  1  0
  4  5  1  6
  4  6  1  0
  6  7  1  0
  7  8  2  0
  8  9  1  0
  9 10  2  0
 10 11  1  0
 11 12  2  0
 12 13  1  0
 12 14  1  0
 14 15  2  0
 15 16  1  0
 16 17  2  0
  4  2  1  0
 17  7  1  0
 16 10  1  0
M  END
>  <energy_score>  (1900) 
-34.932342

>  <alias>  (1900) 
None

>  <HIPPO Pose ID>  (1900) 
72867

>  <smiles>  (1900) 
C[C@@H]1C[C@@]1(C)Nc1ccc2cc(O)ccc2n1

>  <inchikey>  (1900) 
IUDQVOKUVURUAI-YMTOWFKASA-N

>  <distance_score>  (1900) 
1.058453

>  <ref_mols>  (1900) 
Z1688a,Z0089a

>  <ref_pdb>  (1900) 
Z1688a

>  <HIPPO Compound ID>  (1900) 
146119

>  <name>  (1900) 
P72867

>  <inspiration_score>  (1900) 
None

$$$$
P72871
     RDKit          3D

 17 19  0  0  0  0  0  0  0  0999 V2000
   -1.8877    5.8612  -16.2529 C   0  0  0  0  0  0  0  0  0  0  0  0
   -2.3335    5.1082  -17.4583 C   0  0  2  0  0  0  0  0  0  0  0  0
   -1.4728    5.0152  -18.6895 C   0  0  0  0  0  0  0  0  0  0  0  0
   -2.7627    5.8092  -18.7321 C   0  0  2  0  0  0  0  0  0  0  0  0
   -2.6403    7.3056  -18.8401 C   0  0  0  0  0  0  0  0  0  0  0  0
   -3.8451    5.2371  -19.5407 N   0  0  0  0  0  0  0  0  0  0  0  0
   -5.1530    5.0679  -19.0166 C   0  0  0  0  0  0  0  0  0  0  0  0
   -6.0664    4.5145  -19.8986 C   0  0  0  0  0  0  0  0  0  0  0  0
   -7.3300    4.1792  -19.4775 C   0  0  0  0  0  0  0  0  0  0  0  0
   -7.6672    4.4034  -18.1689 C   0  0  0  0  0  0  0  0  0  0  0  0
   -8.9422    4.0265  -17.7770 C   0  0  0  0  0  0  0  0  0  0  0  0
   -9.2844    4.1189  -16.4489 C   0  0  0  0  0  0  0  0  0  0  0  0
   -8.3927    4.6297  -15.5243 C   0  0  0  0  0  0  0  0  0  0  0  0
   -7.1334    5.0505  -15.9510 C   0  0  0  0  0  0  0  0  0  0  0  0
   -6.3045    5.5675  -14.9894 O   0  0  0  0  0  0  0  0  0  0  0  0
   -6.7114    4.9466  -17.2847 C   0  0  0  0  0  0  0  0  0  0  0  0
   -5.4662    5.2917  -17.7217 N   0  0  0  0  0  0  0  0  0  0  0  0
  2  1  1  1
  2  3  1  0
  3  4  1  0
  4  5  1  1
  4  6  1  0
  6  7  1  0
  7  8  2  0
  8  9  1  0
  9 10  2  0
 10 11  1  0
 11 12  2  0
 12 13  1  0
 13 14  2  0
 14 15  1  0
 14 16  1  0
 16 17  2  0
  4  2  1  0
 17  7  1  0
 16 10  1  0
M  END
>  <energy_score>  (1901) 
-19.085951

>  <alias>  (1901) 
None

>  <HIPPO Pose ID>  (1901) 
72871

>  <smiles>  (1901) 
C[C@@H]1C[C@@]1(C)Nc1ccc2cccc(O)c2n1

>  <inchikey>  (1901) 
PRPNLZWSZLGYCM-YMTOWFKASA-N

>  <distance_score>  (1901) 
0.888887

>  <ref_mols>  (1901) 
Z1688a,Z0089a

>  <ref_pdb>  (1901) 
Z1688a

>  <HIPPO Compound ID>  (1901) 
146120

>  <name>  (1901) 
P72871

>  <inspiration_score>  (1901) 
None

$$$$
P72879
     RDKit          3D

 17 19  0  0  0  0  0  0  0  0999 V2000
   -5.1895    5.9777  -14.9285 C   0  0  0  0  0  0  0  0  0  0  0  0
   -5.4962    5.6191  -16.3498 C   0  0  0  0  0  0  0  0  0  0  0  0
   -4.5193    5.7960  -17.3235 C   0  0  0  0  0  0  0  0  0  0  0  0
   -4.7842    5.4372  -18.6348 C   0  0  0  0  0  0  0  0  0  0  0  0
   -3.8033    5.5076  -19.6267 N   0  0  0  0  0  0  0  0  0  0  0  0
   -2.4215    5.2428  -19.3831 C   0  0  1  0  0  0  0  0  0  0  0  0
   -1.6968    4.7581  -20.6557 C   0  0  0  0  0  0  0  0  0  0  0  0
   -0.5097    5.6488  -20.2341 C   0  0  0  0  0  0  0  0  0  0  0  0
   -1.5340    6.5168  -19.4645 C   0  0  2  0  0  0  0  0  0  0  0  0
   -0.8629    7.0573  -17.8508 S   0  0  0  0  0  0  0  0  0  0  0  0
   -5.9738    4.9810  -19.0319 N   0  0  0  0  0  0  0  0  0  0  0  0
   -6.9281    4.8079  -18.1125 C   0  0  0  0  0  0  0  0  0  0  0  0
   -8.1513    4.3274  -18.5292 C   0  0  0  0  0  0  0  0  0  0  0  0
   -9.1762    4.0664  -17.6265 C   0  0  0  0  0  0  0  0  0  0  0  0
   -8.9736    4.2727  -16.2765 C   0  0  0  0  0  0  0  0  0  0  0  0
   -7.7715    4.7927  -15.8342 C   0  0  0  0  0  0  0  0  0  0  0  0
   -6.7355    5.0808  -16.7416 C   0  0  0  0  0  0  0  0  0  0  0  0
  1  2  1  0
  2  3  2  0
  3  4  1  0
  4  5  1  0
  6  5  1  6
  6  7  1  0
  7  8  1  0
  8  9  1  0
  9 10  1  1
  4 11  2  0
 11 12  1  0
 12 13  2  0
 13 14  1  0
 14 15  2  0
 15 16  1  0
 16 17  2  0
 17  2  1  0
  9  6  1  0
 17 12  1  0
M  END
>  <energy_score>  (1902) 
-22.350344

>  <alias>  (1902) 
None

>  <HIPPO Pose ID>  (1902) 
72879

>  <smiles>  (1902) 
Cc1cc(N[C@H]2CC[C@@H]2S)nc2ccccc12

>  <inchikey>  (1902) 
SNZFEBLDVAWIKA-STQMWFEESA-N

>  <distance_score>  (1902) 
1.811468

>  <ref_mols>  (1902) 
Z1688a,Z0089a

>  <ref_pdb>  (1902) 
Z1688a

>  <HIPPO Compound ID>  (1902) 
146122

>  <name>  (1902) 
P72879

>  <inspiration_score>  (1902) 
None

$$$$
P72880
     RDKit          3D

 17 19  0  0  0  0  0  0  0  0999 V2000
  -10.6548    4.0711  -17.3441 O   0  0  0  0  0  0  0  0  0  0  0  0
   -9.3214    4.2625  -17.5116 C   0  0  0  0  0  0  0  0  0  0  0  0
   -8.8553    4.1600  -18.8067 C   0  0  0  0  0  0  0  0  0  0  0  0
   -7.5126    4.3521  -19.0730 C   0  0  0  0  0  0  0  0  0  0  0  0
   -6.6398    4.7125  -18.0819 C   0  0  0  0  0  0  0  0  0  0  0  0
   -5.3858    4.9307  -18.4643 N   0  0  0  0  0  0  0  0  0  0  0  0
   -4.4769    5.2761  -17.5577 C   0  0  0  0  0  0  0  0  0  0  0  0
   -3.1425    5.3976  -17.9786 N   0  0  0  0  0  0  0  0  0  0  0  0
   -2.7792    5.2924  -19.3663 C   0  0  2  0  0  0  0  0  0  0  0  0
   -1.3732    4.6933  -19.5643 C   0  0  0  0  0  0  0  0  0  0  0  0
   -1.1529    5.7454  -20.6751 C   0  0  0  0  0  0  0  0  0  0  0  0
   -2.2647    6.6028  -20.0190 C   0  0  2  0  0  0  0  0  0  0  0  0
   -1.5612    7.8470  -18.8435 S   0  0  0  0  0  0  0  0  0  0  0  0
   -4.8104    5.4269  -16.2169 C   0  0  0  0  0  0  0  0  0  0  0  0
   -6.1309    5.2086  -15.8087 C   0  0  0  0  0  0  0  0  0  0  0  0
   -7.0951    4.8327  -16.7564 C   0  0  0  0  0  0  0  0  0  0  0  0
   -8.4555    4.5748  -16.4667 C   0  0  0  0  0  0  0  0  0  0  0  0
  1  2  1  0
  2  3  2  0
  3  4  1  0
  4  5  2  0
  5  6  1  0
  6  7  2  0
  7  8  1  0
  9  8  1  1
  9 10  1  0
 10 11  1  0
 11 12  1  0
 12 13  1  1
  7 14  1  0
 14 15  2  0
 15 16  1  0
 16 17  2  0
 17  2  1  0
 16  5  1  0
 12  9  1  0
M  END
>  <energy_score>  (1903) 
-17.419331

>  <alias>  (1903) 
None

>  <HIPPO Pose ID>  (1903) 
72880

>  <smiles>  (1903) 
Oc1ccc2nc(N[C@@H]3CC[C@@H]3S)ccc2c1

>  <inchikey>  (1903) 
ABKPWMXOLOWDHL-NEPJUHHUSA-N

>  <distance_score>  (1903) 
0.934274

>  <ref_mols>  (1903) 
Z1688a,Z0089a

>  <ref_pdb>  (1903) 
Z1688a

>  <HIPPO Compound ID>  (1903) 
146123

>  <name>  (1903) 
P72880

>  <inspiration_score>  (1903) 
None

$$$$
P72884
     RDKit          3D

 17 19  0  0  0  0  0  0  0  0999 V2000
   -6.8488    5.3281  -14.8077 O   0  0  0  0  0  0  0  0  0  0  0  0
   -7.4565    4.9197  -15.9689 C   0  0  0  0  0  0  0  0  0  0  0  0
   -8.7861    4.5061  -15.8760 C   0  0  0  0  0  0  0  0  0  0  0  0
   -9.4720    4.1225  -17.0190 C   0  0  0  0  0  0  0  0  0  0  0  0
   -8.8096    4.0783  -18.2284 C   0  0  0  0  0  0  0  0  0  0  0  0
   -7.4700    4.4598  -18.2970 C   0  0  0  0  0  0  0  0  0  0  0  0
   -6.8193    4.3684  -19.5096 C   0  0  0  0  0  0  0  0  0  0  0  0
   -5.5458    4.8742  -19.6392 C   0  0  0  0  0  0  0  0  0  0  0  0
   -4.9084    5.3766  -18.5264 C   0  0  0  0  0  0  0  0  0  0  0  0
   -3.6315    5.9347  -18.6148 N   0  0  0  0  0  0  0  0  0  0  0  0
   -2.6244    5.6303  -19.5865 C   0  0  2  0  0  0  0  0  0  0  0  0
   -1.7769    4.4098  -19.1754 C   0  0  0  0  0  0  0  0  0  0  0  0
   -0.7318    5.3812  -18.5842 C   0  0  0  0  0  0  0  0  0  0  0  0
   -1.3606    6.5154  -19.4215 C   0  0  1  0  0  0  0  0  0  0  0  0
   -0.4570    6.7597  -21.0136 S   0  0  0  0  0  0  0  0  0  0  0  0
   -5.4842    5.3925  -17.3082 N   0  0  0  0  0  0  0  0  0  0  0  0
   -6.7612    4.9433  -17.1832 C   0  0  0  0  0  0  0  0  0  0  0  0
  1  2  1  0
  2  3  2  0
  3  4  1  0
  4  5  2  0
  5  6  1  0
  6  7  2  0
  7  8  1  0
  8  9  2  0
  9 10  1  0
 11 10  1  1
 11 12  1  0
 12 13  1  0
 13 14  1  0
 14 15  1  6
  9 16  1  0
 16 17  2  0
 17  2  1  0
 17  6  1  0
 14 11  1  0
M  END
>  <energy_score>  (1904) 
-30.729499

>  <alias>  (1904) 
None

>  <HIPPO Pose ID>  (1904) 
72884

>  <smiles>  (1904) 
Oc1cccc2ccc(N[C@@H]3CC[C@H]3S)nc12

>  <inchikey>  (1904) 
MGBHFBHBBILNCH-MWLCHTKSSA-N

>  <distance_score>  (1904) 
0.769742

>  <ref_mols>  (1904) 
Z1688a,Z0089a

>  <ref_pdb>  (1904) 
Z1688a

>  <HIPPO Compound ID>  (1904) 
146124

>  <name>  (1904) 
P72884

>  <inspiration_score>  (1904) 
None

$$$$
P72889
     RDKit          3D

 17 19  0  0  0  0  0  0  0  0999 V2000
   -3.4113    6.4248  -16.0839 C   0  0  0  0  0  0  0  0  0  0  0  0
   -4.5929    5.8086  -16.7680 C   0  0  0  0  0  0  0  0  0  0  0  0
   -5.7175    5.4901  -15.9945 C   0  0  0  0  0  0  0  0  0  0  0  0
   -6.8622    4.9688  -16.6034 C   0  0  0  0  0  0  0  0  0  0  0  0
   -8.0119    4.6263  -15.8824 C   0  0  0  0  0  0  0  0  0  0  0  0
   -9.1276    4.1534  -16.5606 C   0  0  0  0  0  0  0  0  0  0  0  0
   -9.1186    4.0366  -17.9409 C   0  0  0  0  0  0  0  0  0  0  0  0
   -7.9633    4.3431  -18.6446 C   0  0  0  0  0  0  0  0  0  0  0  0
   -6.8317    4.7963  -17.9962 C   0  0  0  0  0  0  0  0  0  0  0  0
   -5.7468    5.0518  -18.7276 N   0  0  0  0  0  0  0  0  0  0  0  0
   -4.6411    5.5133  -18.1324 C   0  0  0  0  0  0  0  0  0  0  0  0
   -3.5935    5.6740  -19.0369 N   0  0  0  0  0  0  0  0  0  0  0  0
   -2.2324    5.3553  -18.7835 C   0  0  1  0  0  0  0  0  0  0  0  0
   -1.5480    4.5519  -19.9055 C   0  0  0  0  0  0  0  0  0  0  0  0
   -0.3111    5.4599  -19.6734 C   0  0  2  0  0  0  0  0  0  0  0  0
    0.5696    5.0300  -18.7367 F   0  0  0  0  0  0  0  0  0  0  0  0
   -1.3059    6.5292  -19.1662 C   0  0  0  0  0  0  0  0  0  0  0  0
  1  2  1  0
  2  3  2  0
  3  4  1  0
  4  5  2  0
  5  6  1  0
  6  7  2  0
  7  8  1  0
  8  9  2  0
  9 10  1  0
 10 11  2  0
 11 12  1  0
 13 12  1  6
 13 14  1  0
 14 15  1  0
 15 16  1  1
 15 17  1  0
 11  2  1  0
 17 13  1  0
  9  4  1  0
M  END
>  <energy_score>  (1905) 
-16.460965

>  <alias>  (1905) 
None

>  <HIPPO Pose ID>  (1905) 
72889

>  <smiles>  (1905) 
Cc1cc2ccccc2nc1N[C@H]1C[C@H](F)C1

>  <inchikey>  (1905) 
PXHAVKOFIVARLN-HAQNSBGRSA-N

>  <distance_score>  (1905) 
0.947555

>  <ref_mols>  (1905) 
Z1688a,Z0089a

>  <ref_pdb>  (1905) 
Z1688a

>  <HIPPO Compound ID>  (1905) 
146125

>  <name>  (1905) 
P72889

>  <inspiration_score>  (1905) 
None

$$$$
P72891
     RDKit          3D

 17 19  0  0  0  0  0  0  0  0999 V2000
  -10.5489    3.9724  -17.1720 O   0  0  0  0  0  0  0  0  0  0  0  0
   -9.2414    4.2026  -17.4380 C   0  0  0  0  0  0  0  0  0  0  0  0
   -8.8834    4.0636  -18.7617 C   0  0  0  0  0  0  0  0  0  0  0  0
   -7.5823    4.2783  -19.1521 C   0  0  0  0  0  0  0  0  0  0  0  0
   -6.6540    4.7183  -18.2559 C   0  0  0  0  0  0  0  0  0  0  0  0
   -5.4790    5.0195  -18.7846 N   0  0  0  0  0  0  0  0  0  0  0  0
   -4.5277    5.4968  -17.9977 C   0  0  0  0  0  0  0  0  0  0  0  0
   -3.4110    5.8940  -18.7177 N   0  0  0  0  0  0  0  0  0  0  0  0
   -2.0712    5.5604  -18.3937 C   0  0  1  0  0  0  0  0  0  0  0  0
   -1.4350    4.5619  -19.3899 C   0  0  0  0  0  0  0  0  0  0  0  0
   -0.1528    5.4283  -19.2935 C   0  0  2  0  0  0  0  0  0  0  0  0
    0.7110    5.0889  -18.3052 F   0  0  0  0  0  0  0  0  0  0  0  0
   -1.0896    6.6123  -18.9523 C   0  0  0  0  0  0  0  0  0  0  0  0
   -4.6960    5.6375  -16.6295 C   0  0  0  0  0  0  0  0  0  0  0  0
   -5.9392    5.3159  -16.0658 C   0  0  0  0  0  0  0  0  0  0  0  0
   -6.9817    4.8622  -16.8949 C   0  0  0  0  0  0  0  0  0  0  0  0
   -8.3030    4.5695  -16.4777 C   0  0  0  0  0  0  0  0  0  0  0  0
  1  2  1  0
  2  3  2  0
  3  4  1  0
  4  5  2  0
  5  6  1  0
  6  7  2  0
  7  8  1  0
  9  8  1  6
  9 10  1  0
 10 11  1  0
 11 12  1  1
 11 13  1  0
  7 14  1  0
 14 15  2  0
 15 16  1  0
 16 17  2  0
 17  2  1  0
 16  5  1  0
 13  9  1  0
M  END
>  <energy_score>  (1906) 
-15.747187

>  <alias>  (1906) 
None

>  <HIPPO Pose ID>  (1906) 
72891

>  <smiles>  (1906) 
Oc1ccc2nc(N[C@H]3C[C@H](F)C3)ccc2c1

>  <inchikey>  (1906) 
RXBFQYYRAOGTJZ-MGCOHNPYSA-N

>  <distance_score>  (1906) 
0.944394

>  <ref_mols>  (1906) 
Z1688a,Z0089a

>  <ref_pdb>  (1906) 
Z1688a

>  <HIPPO Compound ID>  (1906) 
146127

>  <name>  (1906) 
P72891

>  <inspiration_score>  (1906) 
None

$$$$
P72893
     RDKit          3D

 17 19  0  0  0  0  0  0  0  0999 V2000
   -5.7023    5.6795  -15.1345 O   0  0  0  0  0  0  0  0  0  0  0  0
   -6.7195    5.1616  -15.9010 C   0  0  0  0  0  0  0  0  0  0  0  0
   -7.9215    4.8314  -15.2944 C   0  0  0  0  0  0  0  0  0  0  0  0
   -8.9484    4.3144  -16.0755 C   0  0  0  0  0  0  0  0  0  0  0  0
   -8.7950    4.1546  -17.4432 C   0  0  0  0  0  0  0  0  0  0  0  0
   -7.5653    4.4611  -18.0183 C   0  0  0  0  0  0  0  0  0  0  0  0
   -7.3494    4.2263  -19.3569 C   0  0  0  0  0  0  0  0  0  0  0  0
   -6.0985    4.4952  -19.8815 C   0  0  0  0  0  0  0  0  0  0  0  0
   -5.0872    4.9906  -19.0706 C   0  0  0  0  0  0  0  0  0  0  0  0
   -3.7972    5.0793  -19.6275 N   0  0  0  0  0  0  0  0  0  0  0  0
   -2.6319    5.4231  -18.8755 C   0  0  1  0  0  0  0  0  0  0  0  0
   -1.3409    5.0531  -19.6272 C   0  0  0  0  0  0  0  0  0  0  0  0
   -1.2744    6.5046  -20.1491 C   0  0  2  0  0  0  0  0  0  0  0  0
   -0.0590    7.0958  -20.1224 F   0  0  0  0  0  0  0  0  0  0  0  0
   -2.2374    6.9023  -19.0093 C   0  0  0  0  0  0  0  0  0  0  0  0
   -5.2801    5.2456  -17.7651 N   0  0  0  0  0  0  0  0  0  0  0  0
   -6.4986    4.9683  -17.2548 C   0  0  0  0  0  0  0  0  0  0  0  0
  1  2  1  0
  2  3  2  0
  3  4  1  0
  4  5  2  0
  5  6  1  0
  6  7  2  0
  7  8  1  0
  8  9  2  0
  9 10  1  0
 11 10  1  6
 11 12  1  0
 12 13  1  0
 13 14  1  1
 13 15  1  0
  9 16  1  0
 16 17  2  0
 17  2  1  0
 17  6  1  0
 15 11  1  0
M  END
>  <energy_score>  (1907) 
-22.389926

>  <alias>  (1907) 
None

>  <HIPPO Pose ID>  (1907) 
72893

>  <smiles>  (1907) 
Oc1cccc2ccc(N[C@H]3C[C@H](F)C3)nc12

>  <inchikey>  (1907) 
GNYMKNSECRTQRI-MGCOHNPYSA-N

>  <distance_score>  (1907) 
0.906405

>  <ref_mols>  (1907) 
Z1688a,Z0089a

>  <ref_pdb>  (1907) 
Z1688a

>  <HIPPO Compound ID>  (1907) 
146128

>  <name>  (1907) 
P72893

>  <inspiration_score>  (1907) 
None

$$$$
P72897
     RDKit          3D

 17 19  0  0  0  0  0  0  0  0999 V2000
   -3.3755    6.2855  -15.9998 C   0  0  0  0  0  0  0  0  0  0  0  0
   -4.5684    5.7237  -16.7092 C   0  0  0  0  0  0  0  0  0  0  0  0
   -5.6936    5.3818  -15.9455 C   0  0  0  0  0  0  0  0  0  0  0  0
   -6.8509    4.9109  -16.5716 C   0  0  0  0  0  0  0  0  0  0  0  0
   -8.0063    4.5625  -15.8624 C   0  0  0  0  0  0  0  0  0  0  0  0
   -9.1304    4.1334  -16.5562 C   0  0  0  0  0  0  0  0  0  0  0  0
   -9.1216    4.0573  -17.9392 C   0  0  0  0  0  0  0  0  0  0  0  0
   -7.9618    4.3707  -18.6318 C   0  0  0  0  0  0  0  0  0  0  0  0
   -6.8264    4.7940  -17.9695 C   0  0  0  0  0  0  0  0  0  0  0  0
   -5.7447    5.0796  -18.6938 N   0  0  0  0  0  0  0  0  0  0  0  0
   -4.6341    5.5170  -18.0879 C   0  0  0  0  0  0  0  0  0  0  0  0
   -3.6216    5.7797  -19.0031 N   0  0  0  0  0  0  0  0  0  0  0  0
   -2.2385    5.4887  -18.8640 C   0  0  1  0  0  0  0  0  0  0  0  0
   -1.6954    4.5465  -19.9618 C   0  0  0  0  0  0  0  0  0  0  0  0
   -0.4659    5.4772  -20.0449 C   0  0  0  0  0  0  0  0  0  0  0  0
   -1.3702    6.6094  -19.5020 C   0  0  2  0  0  0  0  0  0  0  0  0
   -0.7029    7.5907  -18.5592 C   0  0  0  0  0  0  0  0  0  0  0  0
  1  2  1  0
  2  3  2  0
  3  4  1  0
  4  5  2  0
  5  6  1  0
  6  7  2  0
  7  8  1  0
  8  9  2  0
  9 10  1  0
 10 11  2  0
 11 12  1  0
 13 12  1  6
 13 14  1  0
 14 15  1  0
 15 16  1  0
 16 17  1  1
 11  2  1  0
 16 13  1  0
  9  4  1  0
M  END
>  <energy_score>  (1908) 
-29.190975

>  <alias>  (1908) 
None

>  <HIPPO Pose ID>  (1908) 
72897

>  <smiles>  (1908) 
Cc1cc2ccccc2nc1N[C@H]1CC[C@@H]1C

>  <inchikey>  (1908) 
YNTXUMGPGNJQJE-GWCFXTLKSA-N

>  <distance_score>  (1908) 
0.94947

>  <ref_mols>  (1908) 
Z1688a,Z0089a

>  <ref_pdb>  (1908) 
Z1688a

>  <HIPPO Compound ID>  (1908) 
146129

>  <name>  (1908) 
P72897

>  <inspiration_score>  (1908) 
None

$$$$
P72906
     RDKit          3D

 17 19  0  0  0  0  0  0  0  0999 V2000
   -5.0087    6.0681  -15.1489 C   0  0  0  0  0  0  0  0  0  0  0  0
   -5.3856    5.6184  -16.5280 C   0  0  0  0  0  0  0  0  0  0  0  0
   -4.4497    5.6983  -17.5577 C   0  0  0  0  0  0  0  0  0  0  0  0
   -4.7790    5.2394  -18.8241 C   0  0  0  0  0  0  0  0  0  0  0  0
   -3.8326    5.1553  -19.8569 N   0  0  0  0  0  0  0  0  0  0  0  0
   -2.8640    6.2249  -20.0497 C   0  0  2  0  0  0  0  0  0  0  0  0
   -1.6595    5.9627  -20.9133 C   0  0  0  0  0  0  0  0  0  0  0  0
   -1.4846    6.2540  -19.4509 C   0  0  2  0  0  0  0  0  0  0  0  0
   -0.9583    5.1826  -18.5708 C   0  0  0  0  0  0  0  0  0  0  0  0
    0.3780    5.3871  -18.4066 F   0  0  0  0  0  0  0  0  0  0  0  0
   -5.9966    4.7765  -19.1229 N   0  0  0  0  0  0  0  0  0  0  0  0
   -6.9189    4.7209  -18.1561 C   0  0  0  0  0  0  0  0  0  0  0  0
   -8.1804    4.2691  -18.4839 C   0  0  0  0  0  0  0  0  0  0  0  0
   -9.1692    4.1011  -17.5189 C   0  0  0  0  0  0  0  0  0  0  0  0
   -8.8924    4.3757  -16.1938 C   0  0  0  0  0  0  0  0  0  0  0  0
   -7.6547    4.8867  -15.8475 C   0  0  0  0  0  0  0  0  0  0  0  0
   -6.6554    5.0852  -16.8201 C   0  0  0  0  0  0  0  0  0  0  0  0
  1  2  1  0
  2  3  2  0
  3  4  1  0
  4  5  1  0
  6  5  1  1
  6  7  1  0
  7  8  1  0
  8  9  1  1
  9 10  1  0
  4 11  2  0
 11 12  1  0
 12 13  2  0
 13 14  1  0
 14 15  2  0
 15 16  1  0
 16 17  2  0
 17  2  1  0
  8  6  1  0
 17 12  1  0
M  END
>  <energy_score>  (1909) 
-20.299572

>  <alias>  (1909) 
None

>  <HIPPO Pose ID>  (1909) 
72906

>  <smiles>  (1909) 
Cc1cc(N[C@@H]2C[C@@H]2CF)nc2ccccc12

>  <inchikey>  (1909) 
NFKPBBFTRZVJEM-ZWNOBZJWSA-N

>  <distance_score>  (1909) 
1.845815

>  <ref_mols>  (1909) 
Z1688a,Z0089a

>  <ref_pdb>  (1909) 
Z1688a

>  <HIPPO Compound ID>  (1909) 
146133

>  <name>  (1909) 
P72906

>  <inspiration_score>  (1909) 
None

$$$$
P72908
     RDKit          3D

 17 19  0  0  0  0  0  0  0  0999 V2000
  -10.6317    4.0547  -17.3546 O   0  0  0  0  0  0  0  0  0  0  0  0
   -9.2966    4.2448  -17.5156 C   0  0  0  0  0  0  0  0  0  0  0  0
   -8.8165    4.1430  -18.8064 C   0  0  0  0  0  0  0  0  0  0  0  0
   -7.4712    4.3493  -19.0625 C   0  0  0  0  0  0  0  0  0  0  0  0
   -6.6077    4.7230  -18.0658 C   0  0  0  0  0  0  0  0  0  0  0  0
   -5.3536    4.9816  -18.4349 N   0  0  0  0  0  0  0  0  0  0  0  0
   -4.4802    5.4003  -17.5198 C   0  0  0  0  0  0  0  0  0  0  0  0
   -3.1592    5.7022  -17.9127 N   0  0  0  0  0  0  0  0  0  0  0  0
   -2.8153    5.6222  -19.3358 C   0  0  2  0  0  0  0  0  0  0  0  0
   -1.9581    4.5092  -19.8684 C   0  0  0  0  0  0  0  0  0  0  0  0
   -1.4085    5.9080  -19.7922 C   0  0  2  0  0  0  0  0  0  0  0  0
   -0.3139    6.2206  -18.8360 C   0  0  0  0  0  0  0  0  0  0  0  0
   -0.4733    7.5047  -18.4097 F   0  0  0  0  0  0  0  0  0  0  0  0
   -4.8360    5.5224  -16.1795 C   0  0  0  0  0  0  0  0  0  0  0  0
   -6.1454    5.2369  -15.7840 C   0  0  0  0  0  0  0  0  0  0  0  0
   -7.0829    4.8356  -16.7447 C   0  0  0  0  0  0  0  0  0  0  0  0
   -8.4412    4.5609  -16.4648 C   0  0  0  0  0  0  0  0  0  0  0  0
  1  2  1  0
  2  3  2  0
  3  4  1  0
  4  5  2  0
  5  6  1  0
  6  7  2  0
  7  8  1  0
  9  8  1  1
  9 10  1  0
 10 11  1  0
 11 12  1  1
 12 13  1  0
  7 14  1  0
 14 15  2  0
 15 16  1  0
 16 17  2  0
 17  2  1  0
 16  5  1  0
 11  9  1  0
M  END
>  <energy_score>  (1910) 
-17.765977

>  <alias>  (1910) 
None

>  <HIPPO Pose ID>  (1910) 
72908

>  <smiles>  (1910) 
Oc1ccc2nc(N[C@@H]3C[C@@H]3CF)ccc2c1

>  <inchikey>  (1910) 
ZBKBMGMDFSZSGF-BXKDBHETSA-N

>  <distance_score>  (1910) 
0.972411

>  <ref_mols>  (1910) 
Z1688a,Z0089a

>  <ref_pdb>  (1910) 
Z1688a

>  <HIPPO Compound ID>  (1910) 
146134

>  <name>  (1910) 
P72908

>  <inspiration_score>  (1910) 
None

$$$$
P72912
     RDKit          3D

 17 19  0  0  0  0  0  0  0  0999 V2000
   -7.0093    5.2010  -14.7846 O   0  0  0  0  0  0  0  0  0  0  0  0
   -7.5546    4.8594  -15.9969 C   0  0  0  0  0  0  0  0  0  0  0  0
   -8.8936    4.4746  -15.9990 C   0  0  0  0  0  0  0  0  0  0  0  0
   -9.5239    4.1532  -17.1931 C   0  0  0  0  0  0  0  0  0  0  0  0
   -8.7910    4.1444  -18.3650 C   0  0  0  0  0  0  0  0  0  0  0  0
   -7.4353    4.4844  -18.3401 C   0  0  0  0  0  0  0  0  0  0  0  0
   -6.6917    4.3972  -19.5033 C   0  0  0  0  0  0  0  0  0  0  0  0
   -5.3730    4.7951  -19.5076 C   0  0  0  0  0  0  0  0  0  0  0  0
   -4.8058    5.2381  -18.3314 C   0  0  0  0  0  0  0  0  0  0  0  0
   -3.4654    5.6144  -18.2606 N   0  0  0  0  0  0  0  0  0  0  0  0
   -2.6635    5.9452  -19.4189 C   0  0  2  0  0  0  0  0  0  0  0  0
   -1.7081    4.9237  -19.9780 C   0  0  0  0  0  0  0  0  0  0  0  0
   -1.1810    6.1785  -19.3333 C   0  0  2  0  0  0  0  0  0  0  0  0
   -0.4348    6.1109  -18.0498 C   0  0  0  0  0  0  0  0  0  0  0  0
   -0.3785    7.3661  -17.5258 F   0  0  0  0  0  0  0  0  0  0  0  0
   -5.4902    5.2872  -17.1729 N   0  0  0  0  0  0  0  0  0  0  0  0
   -6.7887    4.9005  -17.1631 C   0  0  0  0  0  0  0  0  0  0  0  0
  1  2  1  0
  2  3  2  0
  3  4  1  0
  4  5  2  0
  5  6  1  0
  6  7  2  0
  7  8  1  0
  8  9  2  0
  9 10  1  0
 11 10  1  1
 11 12  1  0
 12 13  1  0
 13 14  1  1
 14 15  1  0
  9 16  1  0
 16 17  2  0
 17  2  1  0
 17  6  1  0
 13 11  1  0
M  END
>  <energy_score>  (1911) 
-18.065603

>  <alias>  (1911) 
None

>  <HIPPO Pose ID>  (1911) 
72912

>  <smiles>  (1911) 
Oc1cccc2ccc(N[C@@H]3C[C@@H]3CF)nc12

>  <inchikey>  (1911) 
JYHYDNIKNVPWFV-NXEZZACHSA-N

>  <distance_score>  (1911) 
0.861752

>  <ref_mols>  (1911) 
Z1688a,Z0089a

>  <ref_pdb>  (1911) 
Z1688a

>  <HIPPO Compound ID>  (1911) 
146135

>  <name>  (1911) 
P72912

>  <inspiration_score>  (1911) 
None

$$$$
P72928
     RDKit          3D

 17 19  0  0  0  0  0  0  0  0999 V2000
    1.1881    6.3272  -19.7460 C   0  0  0  0  0  0  0  0  0  0  0  0
   -0.2669    6.5623  -20.1191 C   0  0  0  0  0  0  0  0  0  0  0  0
   -1.1949    5.8943  -19.1508 C   0  0  2  0  0  0  0  0  0  0  0  0
   -1.7515    4.5263  -19.4470 C   0  0  0  0  0  0  0  0  0  0  0  0
   -2.6503    5.7265  -19.4970 C   0  0  1  0  0  0  0  0  0  0  0  0
   -3.6410    5.9810  -18.4724 N   0  0  0  0  0  0  0  0  0  0  0  0
   -4.9097    5.4080  -18.4447 C   0  0  0  0  0  0  0  0  0  0  0  0
   -5.5070    4.9005  -19.5783 C   0  0  0  0  0  0  0  0  0  0  0  0
   -6.7888    4.4005  -19.4889 C   0  0  0  0  0  0  0  0  0  0  0  0
   -7.4783    4.4880  -18.2941 C   0  0  0  0  0  0  0  0  0  0  0  0
   -8.8157    4.0984  -18.2595 C   0  0  0  0  0  0  0  0  0  0  0  0
   -9.5013    4.1317  -17.0619 C   0  0  0  0  0  0  0  0  0  0  0  0
   -8.8408    4.5147  -15.9014 C   0  0  0  0  0  0  0  0  0  0  0  0
   -7.5153    4.9436  -15.9610 C   0  0  0  0  0  0  0  0  0  0  0  0
   -6.9336    5.3494  -14.7866 O   0  0  0  0  0  0  0  0  0  0  0  0
   -6.8014    4.9718  -17.1603 C   0  0  0  0  0  0  0  0  0  0  0  0
   -5.5271    5.4234  -17.2464 N   0  0  0  0  0  0  0  0  0  0  0  0
  1  2  1  0
  3  2  1  6
  3  4  1  0
  4  5  1  0
  5  6  1  1
  6  7  1  0
  7  8  2  0
  8  9  1  0
  9 10  2  0
 10 11  1  0
 11 12  2  0
 12 13  1  0
 13 14  2  0
 14 15  1  0
 14 16  1  0
 16 17  2  0
  5  3  1  0
 17  7  1  0
 16 10  1  0
M  END
>  <energy_score>  (1912) 
-17.3696

>  <alias>  (1912) 
None

>  <HIPPO Pose ID>  (1912) 
72928

>  <smiles>  (1912) 
CC[C@@H]1C[C@H]1Nc1ccc2cccc(O)c2n1

>  <inchikey>  (1912) 
QZOWIAVSUPNXIV-MWLCHTKSSA-N

>  <distance_score>  (1912) 
0.86514

>  <ref_mols>  (1912) 
Z1688a,Z0089a

>  <ref_pdb>  (1912) 
Z1688a

>  <HIPPO Compound ID>  (1912) 
146139

>  <name>  (1912) 
P72928

>  <inspiration_score>  (1912) 
None

$$$$
P72936
     RDKit          3D

 17 18  0  0  0  0  0  0  0  0999 V2000
   -1.7639    4.5669  -20.6877 C   0  0  0  0  0  0  0  0  0  0  0  0
   -1.7685    4.5295  -19.1714 C   0  0  0  0  0  0  0  0  0  0  0  0
   -2.1841    5.8189  -18.4463 C   0  0  0  0  0  0  0  0  0  0  0  0
   -1.2780    7.0264  -18.7460 C   0  0  0  0  0  0  0  0  0  0  0  0
   -1.5899    7.8476  -19.9932 C   0  0  0  0  0  0  0  0  0  0  0  0
   -3.5570    6.1884  -18.7272 N   0  0  0  0  0  0  0  0  0  0  0  0
   -4.5797    5.6485  -17.9872 C   0  0  0  0  0  0  0  0  0  0  0  0
   -4.7521    5.7879  -16.6197 C   0  0  0  0  0  0  0  0  0  0  0  0
   -5.9708    5.3939  -16.0494 C   0  0  0  0  0  0  0  0  0  0  0  0
   -6.9907    4.8879  -16.8753 C   0  0  0  0  0  0  0  0  0  0  0  0
   -8.3068    4.5725  -16.4609 C   0  0  0  0  0  0  0  0  0  0  0  0
   -9.2339    4.1834  -17.4230 C   0  0  0  0  0  0  0  0  0  0  0  0
  -10.5427    3.9527  -17.1632 O   0  0  0  0  0  0  0  0  0  0  0  0
   -8.8651    4.0309  -18.7426 C   0  0  0  0  0  0  0  0  0  0  0  0
   -7.5659    4.2644  -19.1292 C   0  0  0  0  0  0  0  0  0  0  0  0
   -6.6524    4.7345  -18.2325 C   0  0  0  0  0  0  0  0  0  0  0  0
   -5.4893    5.0779  -18.7608 N   0  0  0  0  0  0  0  0  0  0  0  0
  1  2  1  0
  2  3  1  0
  3  4  1  0
  4  5  1  0
  3  6  1  0
  6  7  1  0
  7  8  2  0
  8  9  1  0
  9 10  2  0
 10 11  1  0
 11 12  2  0
 12 13  1  0
 12 14  1  0
 14 15  2  0
 15 16  1  0
 16 17  2  0
 17  7  1  0
 16 10  1  0
M  END
>  <energy_score>  (1913) 
-37.813929

>  <alias>  (1913) 
None

>  <HIPPO Pose ID>  (1913) 
72936

>  <smiles>  (1913) 
CCC(CC)Nc1ccc2cc(O)ccc2n1

>  <inchikey>  (1913) 
KGIAUZDBEIPXMC-UHFFFAOYSA-N

>  <distance_score>  (1913) 
0.929972

>  <ref_mols>  (1913) 
Z1688a,Z0089a

>  <ref_pdb>  (1913) 
Z1688a

>  <HIPPO Compound ID>  (1913) 
146143

>  <name>  (1913) 
P72936

>  <inspiration_score>  (1913) 
None

$$$$
P72939
     RDKit          3D

 17 18  0  0  0  0  0  0  0  0999 V2000
   -1.4686    3.6634  -19.6004 C   0  0  0  0  0  0  0  0  0  0  0  0
   -2.2973    4.8401  -20.0544 C   0  0  0  0  0  0  0  0  0  0  0  0
   -2.4959    5.8707  -18.9311 C   0  0  1  0  0  0  0  0  0  0  0  0
   -1.5650    7.0918  -19.0919 C   0  0  0  0  0  0  0  0  0  0  0  0
    0.1956    6.7712  -18.7463 S   0  0  0  0  0  0  0  0  0  0  0  0
   -3.8657    6.3886  -18.9893 N   0  0  0  0  0  0  0  0  0  0  0  0
   -4.7737    5.8833  -18.0731 C   0  0  0  0  0  0  0  0  0  0  0  0
   -5.8176    5.3095  -18.6771 N   0  0  0  0  0  0  0  0  0  0  0  0
   -6.8541    4.8959  -17.9483 C   0  0  0  0  0  0  0  0  0  0  0  0
   -7.9556    4.3911  -18.6101 C   0  0  0  0  0  0  0  0  0  0  0  0
   -9.0948    4.0084  -17.9181 C   0  0  0  0  0  0  0  0  0  0  0  0
   -9.1109    4.0869  -16.5352 C   0  0  0  0  0  0  0  0  0  0  0  0
   -8.0073    4.5638  -15.8394 C   0  0  0  0  0  0  0  0  0  0  0  0
   -6.8783    4.9910  -16.5478 C   0  0  0  0  0  0  0  0  0  0  0  0
   -5.7603    5.5479  -15.9197 C   0  0  0  0  0  0  0  0  0  0  0  0
   -4.6982    6.0415  -16.6882 C   0  0  0  0  0  0  0  0  0  0  0  0
   -3.5700    6.7407  -15.9926 C   0  0  0  0  0  0  0  0  0  0  0  0
  1  2  1  0
  3  2  1  6
  3  4  1  0
  4  5  1  0
  3  6  1  0
  6  7  1  0
  7  8  2  0
  8  9  1  0
  9 10  2  0
 10 11  1  0
 11 12  2  0
 12 13  1  0
 13 14  2  0
 14 15  1  0
 15 16  2  0
 16 17  1  0
 16  7  1  0
 14  9  1  0
M  END
>  <energy_score>  (1914) 
-22.910704

>  <alias>  (1914) 
None

>  <HIPPO Pose ID>  (1914) 
72939

>  <smiles>  (1914) 
CC[C@@H](CS)Nc1nc2ccccc2cc1C

>  <inchikey>  (1914) 
HRJCJFYLLOYEDV-LBPRGKRZSA-N

>  <distance_score>  (1914) 
0.983419

>  <ref_mols>  (1914) 
Z1688a,Z0089a

>  <ref_pdb>  (1914) 
Z1688a

>  <HIPPO Compound ID>  (1914) 
146145

>  <name>  (1914) 
P72939

>  <inspiration_score>  (1914) 
None

$$$$
P72941
     RDKit          3D

 17 18  0  0  0  0  0  0  0  0999 V2000
   -1.4810    5.1972  -21.5604 C   0  0  0  0  0  0  0  0  0  0  0  0
   -1.6245    4.6973  -20.1252 C   0  0  0  0  0  0  0  0  0  0  0  0
   -2.3147    5.6900  -19.1691 C   0  0  1  0  0  0  0  0  0  0  0  0
   -1.7033    7.1010  -19.3148 C   0  0  0  0  0  0  0  0  0  0  0  0
   -2.0055    8.2461  -17.9269 S   0  0  0  0  0  0  0  0  0  0  0  0
   -3.7422    5.7255  -19.4554 N   0  0  0  0  0  0  0  0  0  0  0  0
   -4.6971    5.4940  -18.4926 C   0  0  0  0  0  0  0  0  0  0  0  0
   -4.5110    5.7702  -17.1488 C   0  0  0  0  0  0  0  0  0  0  0  0
   -5.5327    5.5354  -16.2342 C   0  0  0  0  0  0  0  0  0  0  0  0
   -5.3058    5.8488  -14.7876 C   0  0  0  0  0  0  0  0  0  0  0  0
   -6.7455    5.0145  -16.7119 C   0  0  0  0  0  0  0  0  0  0  0  0
   -7.8326    4.7033  -15.8730 C   0  0  0  0  0  0  0  0  0  0  0  0
   -9.0089    4.2057  -16.3996 C   0  0  0  0  0  0  0  0  0  0  0  0
   -9.1286    4.0365  -17.7638 C   0  0  0  0  0  0  0  0  0  0  0  0
   -8.0519    4.3199  -18.5975 C   0  0  0  0  0  0  0  0  0  0  0  0
   -6.8561    4.7918  -18.0995 C   0  0  0  0  0  0  0  0  0  0  0  0
   -5.8541    5.0159  -18.9592 N   0  0  0  0  0  0  0  0  0  0  0  0
  1  2  1  0
  3  2  1  6
  3  4  1  0
  4  5  1  0
  3  6  1  0
  6  7  1  0
  7  8  2  0
  8  9  1  0
  9 10  1  0
  9 11  2  0
 11 12  1  0
 12 13  2  0
 13 14  1  0
 14 15  2  0
 15 16  1  0
 16 17  2  0
 17  7  1  0
 16 11  1  0
M  END
>  <energy_score>  (1915) 
-20.480623

>  <alias>  (1915) 
None

>  <HIPPO Pose ID>  (1915) 
72941

>  <smiles>  (1915) 
CC[C@@H](CS)Nc1cc(C)c2ccccc2n1

>  <inchikey>  (1915) 
PZXLECJFSUCWCO-NSHDSACASA-N

>  <distance_score>  (1915) 
1.850467

>  <ref_mols>  (1915) 
Z1688a,Z0089a

>  <ref_pdb>  (1915) 
Z1688a

>  <HIPPO Compound ID>  (1915) 
146146

>  <name>  (1915) 
P72941

>  <inspiration_score>  (1915) 
None

$$$$
P72945
     RDKit          3D

 17 19  0  0  0  0  0  0  0  0999 V2000
   -3.3794    6.3368  -16.0562 C   0  0  0  0  0  0  0  0  0  0  0  0
   -4.5640    5.7452  -16.7561 C   0  0  0  0  0  0  0  0  0  0  0  0
   -5.6973    5.4419  -15.9860 C   0  0  0  0  0  0  0  0  0  0  0  0
   -6.8508    4.9428  -16.5968 C   0  0  0  0  0  0  0  0  0  0  0  0
   -8.0066    4.6129  -15.8791 C   0  0  0  0  0  0  0  0  0  0  0  0
   -9.1269    4.1565  -16.5613 C   0  0  0  0  0  0  0  0  0  0  0  0
   -9.1174    4.0463  -17.9422 C   0  0  0  0  0  0  0  0  0  0  0  0
   -7.9572    4.3420  -18.6421 C   0  0  0  0  0  0  0  0  0  0  0  0
   -6.8210    4.7768  -17.9889 C   0  0  0  0  0  0  0  0  0  0  0  0
   -5.7305    5.0196  -18.7154 N   0  0  0  0  0  0  0  0  0  0  0  0
   -4.6148    5.4615  -18.1219 C   0  0  0  0  0  0  0  0  0  0  0  0
   -3.5869    5.6098  -19.0403 N   0  0  0  0  0  0  0  0  0  0  0  0
   -2.1892    5.5357  -18.8464 C   0  0  1  0  0  0  0  0  0  0  0  0
   -1.4526    4.6809  -19.8948 C   0  0  0  0  0  0  0  0  0  0  0  0
   -0.3910    5.8104  -19.9759 C   0  0  2  0  0  0  0  0  0  0  0  0
    1.1575    5.6455  -18.8044 Br  0  0  0  0  0  0  0  0  0  0  0  0
   -1.4837    6.7699  -19.4476 C   0  0  0  0  0  0  0  0  0  0  0  0
  1  2  1  0
  2  3  2  0
  3  4  1  0
  4  5  2  0
  5  6  1  0
  6  7  2  0
  7  8  1  0
  8  9  2  0
  9 10  1  0
 10 11  2  0
 11 12  1  0
 13 12  1  6
 13 14  1  0
 14 15  1  0
 15 16  1  1
 15 17  1  0
 11  2  1  0
 17 13  1  0
  9  4  1  0
M  END
>  <energy_score>  (1916) 
-21.918779

>  <alias>  (1916) 
None

>  <HIPPO Pose ID>  (1916) 
72945

>  <smiles>  (1916) 
Cc1cc2ccccc2nc1N[C@H]1C[C@H](Br)C1

>  <inchikey>  (1916) 
XYIWMTAZRULTNM-HAQNSBGRSA-N

>  <distance_score>  (1916) 
0.948274

>  <ref_mols>  (1916) 
Z1688a,Z0089a

>  <ref_pdb>  (1916) 
Z1688a

>  <HIPPO Compound ID>  (1916) 
146148

>  <name>  (1916) 
P72945

>  <inspiration_score>  (1916) 
None

$$$$
P72947
     RDKit          3D

 17 19  0  0  0  0  0  0  0  0999 V2000
  -10.5260    3.9688  -17.1377 O   0  0  0  0  0  0  0  0  0  0  0  0
   -9.2235    4.2031  -17.4203 C   0  0  0  0  0  0  0  0  0  0  0  0
   -8.8869    4.0594  -18.7487 C   0  0  0  0  0  0  0  0  0  0  0  0
   -7.5918    4.2657  -19.1585 C   0  0  0  0  0  0  0  0  0  0  0  0
   -6.6487    4.7012  -18.2764 C   0  0  0  0  0  0  0  0  0  0  0  0
   -5.4803    4.9841  -18.8255 N   0  0  0  0  0  0  0  0  0  0  0  0
   -4.5091    5.4615  -18.0627 C   0  0  0  0  0  0  0  0  0  0  0  0
   -3.4168    5.8380  -18.8201 N   0  0  0  0  0  0  0  0  0  0  0  0
   -2.0472    5.7189  -18.4924 C   0  0  1  0  0  0  0  0  0  0  0  0
   -1.2893    4.7487  -19.4281 C   0  0  0  0  0  0  0  0  0  0  0  0
   -0.1696    5.8142  -19.5303 C   0  0  2  0  0  0  0  0  0  0  0  0
    1.3060    5.6569  -18.2716 Br  0  0  0  0  0  0  0  0  0  0  0  0
   -1.2365    6.8644  -19.1390 C   0  0  0  0  0  0  0  0  0  0  0  0
   -4.6548    5.6200  -16.6947 C   0  0  0  0  0  0  0  0  0  0  0  0
   -5.8923    5.3129  -16.1066 C   0  0  0  0  0  0  0  0  0  0  0  0
   -6.9537    4.8583  -16.9126 C   0  0  0  0  0  0  0  0  0  0  0  0
   -8.2710    4.5738  -16.4751 C   0  0  0  0  0  0  0  0  0  0  0  0
  1  2  1  0
  2  3  2  0
  3  4  1  0
  4  5  2  0
  5  6  1  0
  6  7  2  0
  7  8  1  0
  9  8  1  6
  9 10  1  0
 10 11  1  0
 11 12  1  1
 11 13  1  0
  7 14  1  0
 14 15  2  0
 15 16  1  0
 16 17  2  0
 17  2  1  0
 16  5  1  0
 13  9  1  0
M  END
>  <energy_score>  (1917) 
-18.630877

>  <alias>  (1917) 
None

>  <HIPPO Pose ID>  (1917) 
72947

>  <smiles>  (1917) 
Oc1ccc2nc(N[C@H]3C[C@H](Br)C3)ccc2c1

>  <inchikey>  (1917) 
SYBOXXTVDZVIOF-MGCOHNPYSA-N

>  <distance_score>  (1917) 
0.9496

>  <ref_mols>  (1917) 
Z1688a,Z0089a

>  <ref_pdb>  (1917) 
Z1688a

>  <HIPPO Compound ID>  (1917) 
146150

>  <name>  (1917) 
P72947

>  <inspiration_score>  (1917) 
None

$$$$
P72948
     RDKit          3D

 17 19  0  0  0  0  0  0  0  0999 V2000
   -6.3656    5.3959  -14.8876 O   0  0  0  0  0  0  0  0  0  0  0  0
   -7.1693    4.9425  -15.9019 C   0  0  0  0  0  0  0  0  0  0  0  0
   -8.4628    4.5540  -15.5514 C   0  0  0  0  0  0  0  0  0  0  0  0
   -9.3289    4.1106  -16.5351 C   0  0  0  0  0  0  0  0  0  0  0  0
   -8.9265    4.0528  -17.8474 C   0  0  0  0  0  0  0  0  0  0  0  0
   -7.6247    4.4052  -18.1665 C   0  0  0  0  0  0  0  0  0  0  0  0
   -7.2440    4.2451  -19.4727 C   0  0  0  0  0  0  0  0  0  0  0  0
   -5.9687    4.5985  -19.8369 C   0  0  0  0  0  0  0  0  0  0  0  0
   -5.0728    5.0473  -18.8834 C   0  0  0  0  0  0  0  0  0  0  0  0
   -3.7456    5.2068  -19.3317 N   0  0  0  0  0  0  0  0  0  0  0  0
   -2.6307    5.4415  -18.4905 C   0  0  1  0  0  0  0  0  0  0  0  0
   -1.3059    5.1584  -19.2391 C   0  0  0  0  0  0  0  0  0  0  0  0
   -0.7355    6.4028  -18.5161 C   0  0  1  0  0  0  0  0  0  0  0  0
    0.4884    7.4933  -19.5361 Br  0  0  0  0  0  0  0  0  0  0  0  0
   -2.1949    6.9196  -18.4354 C   0  0  0  0  0  0  0  0  0  0  0  0
   -5.4152    5.1904  -17.5871 N   0  0  0  0  0  0  0  0  0  0  0  0
   -6.6906    4.8745  -17.2185 C   0  0  0  0  0  0  0  0  0  0  0  0
  1  2  1  0
  2  3  2  0
  3  4  1  0
  4  5  2  0
  5  6  1  0
  6  7  2  0
  7  8  1  0
  8  9  2  0
  9 10  1  0
 11 10  1  6
 11 12  1  0
 12 13  1  0
 13 14  1  6
 13 15  1  0
  9 16  1  0
 16 17  2  0
 17  2  1  0
 17  6  1  0
 15 11  1  0
M  END
>  <energy_score>  (1918) 
-14.540776

>  <alias>  (1918) 
None

>  <HIPPO Pose ID>  (1918) 
72948

>  <smiles>  (1918) 
Oc1cccc2ccc(N[C@H]3C[C@@H](Br)C3)nc12

>  <inchikey>  (1918) 
BOFPZDDGISSTAG-AOOOYVTPSA-N

>  <distance_score>  (1918) 
0.840591

>  <ref_mols>  (1918) 
Z1688a,Z0089a

>  <ref_pdb>  (1918) 
Z1688a

>  <HIPPO Compound ID>  (1918) 
146151

>  <name>  (1918) 
P72948

>  <inspiration_score>  (1918) 
None

$$$$
P72951
     RDKit          3D

 17 18  0  0  0  0  0  0  0  0999 V2000
   -1.5997    3.6767  -19.5843 C   0  0  0  0  0  0  0  0  0  0  0  0
   -1.4759    5.1732  -19.4156 C   0  0  0  0  0  0  0  0  0  0  0  0
   -2.7620    5.8191  -18.8636 C   0  0  1  0  0  0  0  0  0  0  0  0
   -2.5982    7.3494  -18.9284 C   0  0  0  0  0  0  0  0  0  0  0  0
   -3.8129    8.2949  -17.9489 S   0  0  0  0  0  0  0  0  0  0  0  0
   -3.8800    5.3554  -19.6814 N   0  0  0  0  0  0  0  0  0  0  0  0
   -5.1162    5.1113  -19.0943 C   0  0  0  0  0  0  0  0  0  0  0  0
   -6.1032    4.5481  -19.8865 C   0  0  0  0  0  0  0  0  0  0  0  0
   -7.3390    4.2273  -19.3523 C   0  0  0  0  0  0  0  0  0  0  0  0
   -7.5652    4.4735  -18.0162 C   0  0  0  0  0  0  0  0  0  0  0  0
   -8.7843    4.1389  -17.4382 C   0  0  0  0  0  0  0  0  0  0  0  0
   -8.9415    4.3173  -16.0729 C   0  0  0  0  0  0  0  0  0  0  0  0
   -7.9284    4.8754  -15.3000 C   0  0  0  0  0  0  0  0  0  0  0  0
   -6.7368    5.2362  -15.9110 C   0  0  0  0  0  0  0  0  0  0  0  0
   -5.7392    5.7970  -15.1510 O   0  0  0  0  0  0  0  0  0  0  0  0
   -6.5160    5.0294  -17.2629 C   0  0  0  0  0  0  0  0  0  0  0  0
   -5.3144    5.3520  -17.7877 N   0  0  0  0  0  0  0  0  0  0  0  0
  1  2  1  0
  3  2  1  6
  3  4  1  0
  4  5  1  0
  3  6  1  0
  6  7  1  0
  7  8  2  0
  8  9  1  0
  9 10  2  0
 10 11  1  0
 11 12  2  0
 12 13  1  0
 13 14  2  0
 14 15  1  0
 14 16  1  0
 16 17  2  0
 17  7  1  0
 16 10  1  0
M  END
>  <energy_score>  (1919) 
-50.270863

>  <alias>  (1919) 
None

>  <HIPPO Pose ID>  (1919) 
72951

>  <smiles>  (1919) 
CC[C@@H](CS)Nc1ccc2cccc(O)c2n1

>  <inchikey>  (1919) 
SVPSDXFRNNUBFP-JTQLQIEISA-N

>  <distance_score>  (1919) 
0.94545

>  <ref_mols>  (1919) 
Z1688a,Z0089a

>  <ref_pdb>  (1919) 
Z1688a

>  <HIPPO Compound ID>  (1919) 
146152

>  <name>  (1919) 
P72951

>  <inspiration_score>  (1919) 
None

$$$$
P72953
     RDKit          3D

 17 19  0  0  0  0  0  0  0  0999 V2000
  -10.0633    3.7881  -16.2709 O   0  0  0  0  0  0  0  0  0  0  0  0
   -8.9530    4.2017  -16.9013 C   0  0  0  0  0  0  0  0  0  0  0  0
   -8.9100    4.0994  -18.2731 C   0  0  0  0  0  0  0  0  0  0  0  0
   -7.7190    4.3641  -18.9140 C   0  0  0  0  0  0  0  0  0  0  0  0
   -6.6114    4.7776  -18.2121 C   0  0  0  0  0  0  0  0  0  0  0  0
   -5.5039    4.9863  -18.9148 N   0  0  0  0  0  0  0  0  0  0  0  0
   -4.3801    5.3388  -18.2694 C   0  0  0  0  0  0  0  0  0  0  0  0
   -3.2408    5.4379  -19.0836 N   0  0  0  0  0  0  0  0  0  0  0  0
   -3.4182    5.4273  -20.4756 O   0  0  0  0  0  0  0  0  0  0  0  0
   -1.8937    5.6892  -18.6668 C   0  0  0  0  0  0  0  0  0  0  0  0
   -0.8266    5.0171  -19.5472 C   0  0  0  0  0  0  0  0  0  0  0  0
   -0.6026    6.3621  -20.2634 C   0  0  0  0  0  0  0  0  0  0  0  0
   -1.3616    7.0607  -19.1187 C   0  0  0  0  0  0  0  0  0  0  0  0
   -4.3625    5.5523  -16.8936 C   0  0  0  0  0  0  0  0  0  0  0  0
   -5.5253    5.3469  -16.1535 C   0  0  0  0  0  0  0  0  0  0  0  0
   -6.6814    4.9277  -16.8143 C   0  0  0  0  0  0  0  0  0  0  0  0
   -7.8694    4.6193  -16.1495 C   0  0  0  0  0  0  0  0  0  0  0  0
  1  2  1  0
  2  3  2  0
  3  4  1  0
  4  5  2  0
  5  6  1  0
  6  7  2  0
  7  8  1  0
  8  9  1  0
  8 10  1  0
 10 11  1  0
 11 12  1  0
 12 13  1  0
  7 14  1  0
 14 15  2  0
 15 16  1  0
 16 17  2  0
 17  2  1  0
 16  5  1  0
 13 10  1  0
M  END
>  <energy_score>  (1920) 
-19.476035

>  <alias>  (1920) 
None

>  <HIPPO Pose ID>  (1920) 
72953

>  <smiles>  (1920) 
Oc1ccc2nc(N(O)C3CCC3)ccc2c1

>  <inchikey>  (1920) 
WHLWWYOXZGRZCK-UHFFFAOYSA-N

>  <distance_score>  (1920) 
1.052744

>  <ref_mols>  (1920) 
Z1688a,Z0089a

>  <ref_pdb>  (1920) 
Z1688a

>  <HIPPO Compound ID>  (1920) 
146155

>  <name>  (1920) 
P72953

>  <inspiration_score>  (1920) 
None

$$$$
P72954
     RDKit          3D

 17 19  0  0  0  0  0  0  0  0999 V2000
   -5.8737    5.6563  -15.0303 O   0  0  0  0  0  0  0  0  0  0  0  0
   -6.8152    5.1139  -15.8730 C   0  0  0  0  0  0  0  0  0  0  0  0
   -8.0444    4.7271  -15.3590 C   0  0  0  0  0  0  0  0  0  0  0  0
   -9.0024    4.2082  -16.2238 C   0  0  0  0  0  0  0  0  0  0  0  0
   -8.7435    4.0817  -17.5789 C   0  0  0  0  0  0  0  0  0  0  0  0
   -7.4892    4.4488  -18.0603 C   0  0  0  0  0  0  0  0  0  0  0  0
   -7.1786    4.2868  -19.3911 C   0  0  0  0  0  0  0  0  0  0  0  0
   -5.9448    4.7208  -19.8459 C   0  0  0  0  0  0  0  0  0  0  0  0
   -5.0137    5.2566  -18.9654 C   0  0  0  0  0  0  0  0  0  0  0  0
   -3.7725    5.7394  -19.4592 N   0  0  0  0  0  0  0  0  0  0  0  0
   -3.5679    5.9165  -20.8339 O   0  0  0  0  0  0  0  0  0  0  0  0
   -2.5481    5.5572  -18.7277 C   0  0  0  0  0  0  0  0  0  0  0  0
   -1.5689    4.5476  -19.3794 C   0  0  0  0  0  0  0  0  0  0  0  0
   -0.4345    5.5165  -18.9770 C   0  0  0  0  0  0  0  0  0  0  0  0
   -1.4865    6.6488  -18.9933 C   0  0  0  0  0  0  0  0  0  0  0  0
   -5.2832    5.3670  -17.6467 N   0  0  0  0  0  0  0  0  0  0  0  0
   -6.5013    4.9784  -17.2155 C   0  0  0  0  0  0  0  0  0  0  0  0
  1  2  1  0
  2  3  2  0
  3  4  1  0
  4  5  2  0
  5  6  1  0
  6  7  2  0
  7  8  1  0
  8  9  2  0
  9 10  1  0
 10 11  1  0
 10 12  1  0
 12 13  1  0
 13 14  1  0
 14 15  1  0
  9 16  1  0
 16 17  2  0
 17  2  1  0
 17  6  1  0
 15 12  1  0
M  END
>  <energy_score>  (1921) 
-40.797

>  <alias>  (1921) 
None

>  <HIPPO Pose ID>  (1921) 
72954

>  <smiles>  (1921) 
Oc1cccc2ccc(N(O)C3CCC3)nc12

>  <inchikey>  (1921) 
BNVDCPIIMZEPQE-UHFFFAOYSA-N

>  <distance_score>  (1921) 
0.874021

>  <ref_mols>  (1921) 
Z1688a,Z0089a

>  <ref_pdb>  (1921) 
Z1688a

>  <HIPPO Compound ID>  (1921) 
146156

>  <name>  (1921) 
P72954

>  <inspiration_score>  (1921) 
None

$$$$
P72955
     RDKit          3D

 17 19  0  0  0  0  0  0  0  0999 V2000
   -3.0521    5.5863  -16.4907 C   0  0  0  0  0  0  0  0  0  0  0  0
   -4.4050    5.3387  -17.0774 C   0  0  0  0  0  0  0  0  0  0  0  0
   -5.4944    5.2184  -16.1972 C   0  0  0  0  0  0  0  0  0  0  0  0
   -6.7595    4.8724  -16.6828 C   0  0  0  0  0  0  0  0  0  0  0  0
   -7.8517    4.6201  -15.8455 C   0  0  0  0  0  0  0  0  0  0  0  0
   -9.0652    4.2346  -16.4014 C   0  0  0  0  0  0  0  0  0  0  0  0
   -9.2210    4.1408  -17.7756 C   0  0  0  0  0  0  0  0  0  0  0  0
   -8.1299    4.3837  -18.5966 C   0  0  0  0  0  0  0  0  0  0  0  0
   -6.8996    4.7295  -18.0688 C   0  0  0  0  0  0  0  0  0  0  0  0
   -5.8759    4.8836  -18.9061 N   0  0  0  0  0  0  0  0  0  0  0  0
   -4.6482    5.1531  -18.4390 C   0  0  0  0  0  0  0  0  0  0  0  0
   -3.7196    5.1200  -19.4721 N   0  0  0  0  0  0  0  0  0  0  0  0
   -2.4720    5.8857  -19.5687 C   0  0  0  0  0  0  0  0  0  0  0  0
   -1.2270    5.0065  -19.4757 C   0  0  0  0  0  0  0  0  0  0  0  0
    0.2205    5.7712  -18.7094 S   0  0  0  0  0  0  0  0  0  0  0  0
   -2.4852    7.3866  -19.2962 C   0  0  0  0  0  0  0  0  0  0  0  0
   -2.4319    6.9096  -20.7046 C   0  0  0  0  0  0  0  0  0  0  0  0
  1  2  1  0
  2  3  2  0
  3  4  1  0
  4  5  2  0
  5  6  1  0
  6  7  2  0
  7  8  1  0
  8  9  2  0
  9 10  1  0
 10 11  2  0
 11 12  1  0
 12 13  1  0
 13 14  1  0
 14 15  1  0
 13 16  1  0
 16 17  1  0
 11  2  1  0
 17 13  1  0
  9  4  1  0
M  END
>  <energy_score>  (1922) 
-13.933948

>  <alias>  (1922) 
None

>  <HIPPO Pose ID>  (1922) 
72955

>  <smiles>  (1922) 
Cc1cc2ccccc2nc1NC1(CS)CC1

>  <inchikey>  (1922) 
HFNLQFJWPTTZBB-UHFFFAOYSA-N

>  <distance_score>  (1922) 
1.082782

>  <ref_mols>  (1922) 
Z1688a,Z0089a

>  <ref_pdb>  (1922) 
Z1688a

>  <HIPPO Compound ID>  (1922) 
146157

>  <name>  (1922) 
P72955

>  <inspiration_score>  (1922) 
None

$$$$
P72957
     RDKit          3D

 17 19  0  0  0  0  0  0  0  0999 V2000
  -10.5829    4.0968  -17.2503 O   0  0  0  0  0  0  0  0  0  0  0  0
   -9.2641    4.2904  -17.4949 C   0  0  0  0  0  0  0  0  0  0  0  0
   -8.8931    4.1522  -18.8152 C   0  0  0  0  0  0  0  0  0  0  0  0
   -7.5719    4.2914  -19.1769 C   0  0  0  0  0  0  0  0  0  0  0  0
   -6.6275    4.6458  -18.2578 C   0  0  0  0  0  0  0  0  0  0  0  0
   -5.4012    4.7679  -18.7427 N   0  0  0  0  0  0  0  0  0  0  0  0
   -4.4016    5.0485  -17.9202 C   0  0  0  0  0  0  0  0  0  0  0  0
   -3.1920    4.9268  -18.5547 N   0  0  0  0  0  0  0  0  0  0  0  0
   -2.1690    5.9180  -18.3832 C   0  0  1  0  0  0  0  0  0  0  0  0
   -0.9897    5.4459  -19.1735 C   0  0  0  0  0  0  0  0  0  0  0  0
   -0.4906    6.4028  -19.9629 C   0  0  0  0  0  0  0  0  0  0  0  0
   -1.2553    7.6746  -19.8303 C   0  0  0  0  0  0  0  0  0  0  0  0
   -2.5095    7.2480  -19.0647 C   0  0  0  0  0  0  0  0  0  0  0  0
   -4.6125    5.3037  -16.5754 C   0  0  0  0  0  0  0  0  0  0  0  0
   -5.9151    5.1986  -16.0596 C   0  0  0  0  0  0  0  0  0  0  0  0
   -6.9763    4.8313  -16.9094 C   0  0  0  0  0  0  0  0  0  0  0  0
   -8.3241    4.6203  -16.5200 C   0  0  0  0  0  0  0  0  0  0  0  0
  1  2  1  0
  2  3  2  0
  3  4  1  0
  4  5  2  0
  5  6  1  0
  6  7  2  0
  7  8  1  0
  9  8  1  6
  9 10  1  0
 10 11  2  0
 11 12  1  0
 12 13  1  0
  7 14  1  0
 14 15  2  0
 15 16  1  0
 16 17  2  0
 17  2  1  0
 16  5  1  0
 13  9  1  0
M  END
>  <energy_score>  (1923) 
-20.894789

>  <alias>  (1923) 
None

>  <HIPPO Pose ID>  (1923) 
72957

>  <smiles>  (1923) 
Oc1ccc2nc(N[C@H]3C=CCC3)ccc2c1

>  <inchikey>  (1923) 
PQWWZOSNETUYEN-NSHDSACASA-N

>  <distance_score>  (1923) 
1.014952

>  <ref_mols>  (1923) 
Z1688a,Z0089a

>  <ref_pdb>  (1923) 
Z1688a

>  <HIPPO Compound ID>  (1923) 
146158

>  <name>  (1923) 
P72957

>  <inspiration_score>  (1923) 
None

$$$$
P72958
     RDKit          3D

 17 19  0  0  0  0  0  0  0  0999 V2000
   -6.8919    5.1204  -14.7586 O   0  0  0  0  0  0  0  0  0  0  0  0
   -7.4889    4.8223  -15.9578 C   0  0  0  0  0  0  0  0  0  0  0  0
   -8.8453    4.4968  -15.9204 C   0  0  0  0  0  0  0  0  0  0  0  0
   -9.5237    4.2048  -17.0957 C   0  0  0  0  0  0  0  0  0  0  0  0
   -8.8356    4.1991  -18.2916 C   0  0  0  0  0  0  0  0  0  0  0  0
   -7.4697    4.4870  -18.3040 C   0  0  0  0  0  0  0  0  0  0  0  0
   -6.7865    4.3957  -19.4972 C   0  0  0  0  0  0  0  0  0  0  0  0
   -5.4456    4.6995  -19.5473 C   0  0  0  0  0  0  0  0  0  0  0  0
   -4.7837    5.0160  -18.3811 C   0  0  0  0  0  0  0  0  0  0  0  0
   -3.4071    5.0944  -18.3273 N   0  0  0  0  0  0  0  0  0  0  0  0
   -2.6511    5.7323  -19.3736 C   0  0  2  0  0  0  0  0  0  0  0  0
   -1.3086    5.0782  -19.4055 C   0  0  0  0  0  0  0  0  0  0  0  0
   -0.3122    5.9699  -19.3997 C   0  0  0  0  0  0  0  0  0  0  0  0
   -0.8270    7.3682  -19.3590 C   0  0  0  0  0  0  0  0  0  0  0  0
   -2.3112    7.1868  -19.0321 C   0  0  0  0  0  0  0  0  0  0  0  0
   -5.4213    5.1051  -17.1982 N   0  0  0  0  0  0  0  0  0  0  0  0
   -6.7530    4.8345  -17.1460 C   0  0  0  0  0  0  0  0  0  0  0  0
  1  2  1  0
  2  3  2  0
  3  4  1  0
  4  5  2  0
  5  6  1  0
  6  7  2  0
  7  8  1  0
  8  9  2  0
  9 10  1  0
 11 10  1  1
 11 12  1  0
 12 13  2  0
 13 14  1  0
 14 15  1  0
  9 16  1  0
 16 17  2  0
 17  2  1  0
 17  6  1  0
 15 11  1  0
M  END
>  <energy_score>  (1924) 
-18.61311

>  <alias>  (1924) 
None

>  <HIPPO Pose ID>  (1924) 
72958

>  <smiles>  (1924) 
Oc1cccc2ccc(N[C@@H]3C=CCC3)nc12

>  <inchikey>  (1924) 
CUTWSINFZJDJJU-LLVKDONJSA-N

>  <distance_score>  (1924) 
0.816274

>  <ref_mols>  (1924) 
Z1688a,Z0089a

>  <ref_pdb>  (1924) 
Z1688a

>  <HIPPO Compound ID>  (1924) 
146159

>  <name>  (1924) 
P72958

>  <inspiration_score>  (1924) 
None

$$$$
P72966
     RDKit          3D

 17 20  0  0  0  0  0  0  0  0999 V2000
   -6.3399    5.4890  -14.9363 O   0  0  0  0  0  0  0  0  0  0  0  0
   -7.1476    4.9819  -15.9218 C   0  0  0  0  0  0  0  0  0  0  0  0
   -8.4195    4.5594  -15.5354 C   0  0  0  0  0  0  0  0  0  0  0  0
   -9.2926    4.0748  -16.4923 C   0  0  0  0  0  0  0  0  0  0  0  0
   -8.9108    3.9907  -17.8104 C   0  0  0  0  0  0  0  0  0  0  0  0
   -7.6282    4.3804  -18.1664 C   0  0  0  0  0  0  0  0  0  0  0  0
   -7.2690    4.2221  -19.4803 C   0  0  0  0  0  0  0  0  0  0  0  0
   -6.0390    4.6797  -19.8896 C   0  0  0  0  0  0  0  0  0  0  0  0
   -5.1542    5.2137  -18.9709 C   0  0  0  0  0  0  0  0  0  0  0  0
   -3.9387    5.7071  -19.4855 N   0  0  0  0  0  0  0  0  0  0  0  0
   -2.7471    5.7212  -18.7964 C   0  0  0  0  0  0  0  0  0  0  0  0
   -1.6043    4.7199  -19.0530 C   0  0  0  0  0  0  0  0  0  0  0  0
   -1.0100    5.7296  -17.9934 C   0  0  0  0  0  0  0  0  0  0  0  0
   -1.6891    6.8344  -18.8934 C   0  0  0  0  0  0  0  0  0  0  0  0
   -2.4300    5.6236  -17.3025 C   0  0  0  0  0  0  0  0  0  0  0  0
   -5.4630    5.3150  -17.6614 N   0  0  0  0  0  0  0  0  0  0  0  0
   -6.6991    4.9132  -17.2496 C   0  0  0  0  0  0  0  0  0  0  0  0
  1  2  1  0
  2  3  2  0
  3  4  1  0
  4  5  2  0
  5  6  1  0
  6  7  2  0
  7  8  1  0
  8  9  2  0
  9 10  1  0
 10 11  1  0
 11 12  1  0
 12 13  1  0
 13 14  1  0
 13 15  1  0
  9 16  1  0
 16 17  2  0
 17  2  1  0
 17  6  1  0
 14 11  1  0
 15 11  1  0
M  END
>  <energy_score>  (1925) 
-23.879224

>  <alias>  (1925) 
None

>  <HIPPO Pose ID>  (1925) 
72966

>  <smiles>  (1925) 
Oc1cccc2ccc(NC34CC(C3)C4)nc12

>  <inchikey>  (1925) 
LTMKFIQJKUOIKJ-KMHCFJFGSA-N

>  <distance_score>  (1925) 
0.919952

>  <ref_mols>  (1925) 
Z1688a,Z0089a

>  <ref_pdb>  (1925) 
Z1688a

>  <HIPPO Compound ID>  (1925) 
146166

>  <name>  (1925) 
P72966

>  <inspiration_score>  (1925) 
None

$$$$
P72968
     RDKit          3D

 17 19  0  0  0  0  0  0  0  0999 V2000
   -3.1130    5.4729  -15.9505 C   0  0  0  0  0  0  0  0  0  0  0  0
   -4.3975    5.2797  -16.6952 C   0  0  0  0  0  0  0  0  0  0  0  0
   -5.5884    5.2056  -15.9554 C   0  0  0  0  0  0  0  0  0  0  0  0
   -6.7902    4.8787  -16.5908 C   0  0  0  0  0  0  0  0  0  0  0  0
   -7.9754    4.6224  -15.8892 C   0  0  0  0  0  0  0  0  0  0  0  0
   -9.1159    4.2425  -16.5867 C   0  0  0  0  0  0  0  0  0  0  0  0
   -9.1060    4.1657  -17.9697 C   0  0  0  0  0  0  0  0  0  0  0  0
   -7.9250    4.4111  -18.6546 C   0  0  0  0  0  0  0  0  0  0  0  0
   -6.7638    4.7472  -17.9861 C   0  0  0  0  0  0  0  0  0  0  0  0
   -5.6451    4.8855  -18.6981 N   0  0  0  0  0  0  0  0  0  0  0  0
   -4.4774    5.0907  -18.0753 C   0  0  0  0  0  0  0  0  0  0  0  0
   -3.4242    4.9320  -18.9463 N   0  0  0  0  0  0  0  0  0  0  0  0
   -2.3630    5.8984  -19.0465 C   0  0  1  0  0  0  0  0  0  0  0  0
   -1.3458    5.2940  -19.9630 C   0  0  0  0  0  0  0  0  0  0  0  0
   -1.3509    5.8606  -21.1753 C   0  0  0  0  0  0  0  0  0  0  0  0
   -2.3891    6.9280  -21.2697 C   0  0  0  0  0  0  0  0  0  0  0  0
   -2.7758    7.1613  -19.8060 C   0  0  0  0  0  0  0  0  0  0  0  0
  1  2  1  0
  2  3  2  0
  3  4  1  0
  4  5  2  0
  5  6  1  0
  6  7  2  0
  7  8  1  0
  8  9  2  0
  9 10  1  0
 10 11  2  0
 11 12  1  0
 13 12  1  6
 13 14  1  0
 14 15  2  0
 15 16  1  0
 16 17  1  0
 11  2  1  0
 17 13  1  0
  9  4  1  0
M  END
>  <energy_score>  (1926) 
-27.89857

>  <alias>  (1926) 
None

>  <HIPPO Pose ID>  (1926) 
72968

>  <smiles>  (1926) 
Cc1cc2ccccc2nc1N[C@H]1C=CCC1

>  <inchikey>  (1926) 
PBTAOKQAYOBKKJ-ZDUSSCGKSA-N

>  <distance_score>  (1926) 
1.021564

>  <ref_mols>  (1926) 
Z1688a,Z0089a

>  <ref_pdb>  (1926) 
Z1688a

>  <HIPPO Compound ID>  (1926) 
146167

>  <name>  (1926) 
P72968

>  <inspiration_score>  (1926) 
None

$$$$
P72970
     RDKit          3D

 17 18  0  0  0  0  0  0  0  0999 V2000
    0.0943    5.8901  -19.4265 C   0  0  0  0  0  0  0  0  0  0  0  0
   -1.1988    5.0946  -19.5440 C   0  0  0  0  0  0  0  0  0  0  0  0
   -2.4209    5.8678  -19.0202 C   0  0  1  0  0  0  0  0  0  0  0  0
   -2.7958    7.0470  -19.9362 C   0  0  0  0  0  0  0  0  0  0  0  0
   -3.9472    7.7461  -19.4571 O   0  0  0  0  0  0  0  0  0  0  0  0
   -3.5093    4.9046  -18.9535 N   0  0  0  0  0  0  0  0  0  0  0  0
   -4.5406    5.0333  -18.0556 C   0  0  0  0  0  0  0  0  0  0  0  0
   -5.7141    4.8996  -18.6825 N   0  0  0  0  0  0  0  0  0  0  0  0
   -6.8268    4.7467  -17.9664 C   0  0  0  0  0  0  0  0  0  0  0  0
   -7.9932    4.4368  -18.6368 C   0  0  0  0  0  0  0  0  0  0  0  0
   -9.1687    4.1780  -17.9502 C   0  0  0  0  0  0  0  0  0  0  0  0
   -9.1656    4.2157  -16.5660 C   0  0  0  0  0  0  0  0  0  0  0  0
   -8.0202    4.5687  -15.8641 C   0  0  0  0  0  0  0  0  0  0  0  0
   -6.8399    4.8323  -16.5665 C   0  0  0  0  0  0  0  0  0  0  0  0
   -5.6292    5.1105  -15.9271 C   0  0  0  0  0  0  0  0  0  0  0  0
   -4.4420    5.1649  -16.6713 C   0  0  0  0  0  0  0  0  0  0  0  0
   -3.1491    5.2851  -15.9259 C   0  0  0  0  0  0  0  0  0  0  0  0
  1  2  1  0
  3  2  1  6
  3  4  1  0
  4  5  1  0
  3  6  1  0
  6  7  1  0
  7  8  2  0
  8  9  1  0
  9 10  2  0
 10 11  1  0
 11 12  2  0
 12 13  1  0
 13 14  2  0
 14 15  1  0
 15 16  2  0
 16 17  1  0
 16  7  1  0
 14  9  1  0
M  END
>  <energy_score>  (1927) 
-20.790044

>  <alias>  (1927) 
None

>  <HIPPO Pose ID>  (1927) 
72970

>  <smiles>  (1927) 
CC[C@@H](CO)Nc1nc2ccccc2cc1C

>  <inchikey>  (1927) 
IZCPXTJIMRCQSF-LBPRGKRZSA-N

>  <distance_score>  (1927) 
1.011114

>  <ref_mols>  (1927) 
Z1688a,Z0089a

>  <ref_pdb>  (1927) 
Z1688a

>  <HIPPO Compound ID>  (1927) 
146169

>  <name>  (1927) 
P72970

>  <inspiration_score>  (1927) 
None

$$$$
P72973
     RDKit          3D

 17 18  0  0  0  0  0  0  0  0999 V2000
    0.4101    5.6105  -19.1078 C   0  0  0  0  0  0  0  0  0  0  0  0
   -0.9459    5.0195  -19.4740 C   0  0  0  0  0  0  0  0  0  0  0  0
   -2.1129    5.8341  -18.8988 C   0  0  1  0  0  0  0  0  0  0  0  0
   -2.2774    7.1897  -19.6118 C   0  0  0  0  0  0  0  0  0  0  0  0
   -3.3775    7.9359  -19.0879 O   0  0  0  0  0  0  0  0  0  0  0  0
   -3.3034    5.0293  -19.0760 N   0  0  0  0  0  0  0  0  0  0  0  0
   -4.3733    5.0955  -18.2306 C   0  0  0  0  0  0  0  0  0  0  0  0
   -4.3246    5.2795  -16.8576 C   0  0  0  0  0  0  0  0  0  0  0  0
   -5.5021    5.1753  -16.1204 C   0  0  0  0  0  0  0  0  0  0  0  0
   -6.6868    4.8542  -16.7880 C   0  0  0  0  0  0  0  0  0  0  0  0
   -7.8847    4.5770  -16.1308 C   0  0  0  0  0  0  0  0  0  0  0  0
   -8.9801    4.2127  -16.8942 C   0  0  0  0  0  0  0  0  0  0  0  0
  -10.0910    3.7937  -16.2694 O   0  0  0  0  0  0  0  0  0  0  0  0
   -8.9490    4.1560  -18.2693 C   0  0  0  0  0  0  0  0  0  0  0  0
   -7.7515    4.3959  -18.9048 C   0  0  0  0  0  0  0  0  0  0  0  0
   -6.6296    4.7388  -18.1889 C   0  0  0  0  0  0  0  0  0  0  0  0
   -5.5118    4.8915  -18.8827 N   0  0  0  0  0  0  0  0  0  0  0  0
  1  2  1  0
  3  2  1  6
  3  4  1  0
  4  5  1  0
  3  6  1  0
  6  7  1  0
  7  8  2  0
  8  9  1  0
  9 10  2  0
 10 11  1  0
 11 12  2  0
 12 13  1  0
 12 14  1  0
 14 15  2  0
 15 16  1  0
 16 17  2  0
 17  7  1  0
 16 10  1  0
M  END
>  <energy_score>  (1928) 
-33.051677

>  <alias>  (1928) 
None

>  <HIPPO Pose ID>  (1928) 
72973

>  <smiles>  (1928) 
CC[C@@H](CO)Nc1ccc2cc(O)ccc2n1

>  <inchikey>  (1928) 
SJVDDALQJAIRSK-JTQLQIEISA-N

>  <distance_score>  (1928) 
1.025529

>  <ref_mols>  (1928) 
Z1688a,Z0089a

>  <ref_pdb>  (1928) 
Z1688a

>  <HIPPO Compound ID>  (1928) 
146171

>  <name>  (1928) 
P72973

>  <inspiration_score>  (1928) 
None

$$$$
P72974
     RDKit          3D

 17 18  0  0  0  0  0  0  0  0999 V2000
   -1.3419    3.9341  -19.3085 C   0  0  0  0  0  0  0  0  0  0  0  0
   -2.1064    4.8512  -20.2327 C   0  0  0  0  0  0  0  0  0  0  0  0
   -2.8110    6.0133  -19.5242 C   0  0  2  0  0  0  0  0  0  0  0  0
   -1.8177    7.0784  -19.0291 C   0  0  0  0  0  0  0  0  0  0  0  0
   -2.5227    8.2146  -18.5184 O   0  0  0  0  0  0  0  0  0  0  0  0
   -3.5794    5.5402  -18.3857 N   0  0  0  0  0  0  0  0  0  0  0  0
   -4.9027    5.2020  -18.4170 C   0  0  0  0  0  0  0  0  0  0  0  0
   -5.5449    4.7981  -19.5655 C   0  0  0  0  0  0  0  0  0  0  0  0
   -6.8525    4.3788  -19.4879 C   0  0  0  0  0  0  0  0  0  0  0  0
   -7.5254    4.4596  -18.2886 C   0  0  0  0  0  0  0  0  0  0  0  0
   -8.8772    4.1250  -18.2587 C   0  0  0  0  0  0  0  0  0  0  0  0
   -9.5556    4.1446  -17.0586 C   0  0  0  0  0  0  0  0  0  0  0  0
   -8.8771    4.4722  -15.8924 C   0  0  0  0  0  0  0  0  0  0  0  0
   -7.5348    4.8424  -15.9464 C   0  0  0  0  0  0  0  0  0  0  0  0
   -6.9345    5.1895  -14.7621 O   0  0  0  0  0  0  0  0  0  0  0  0
   -6.8193    4.8687  -17.1447 C   0  0  0  0  0  0  0  0  0  0  0  0
   -5.5168    5.2363  -17.2213 N   0  0  0  0  0  0  0  0  0  0  0  0
  1  2  1  0
  3  2  1  1
  3  4  1  0
  4  5  1  0
  3  6  1  0
  6  7  1  0
  7  8  2  0
  8  9  1  0
  9 10  2  0
 10 11  1  0
 11 12  2  0
 12 13  1  0
 13 14  2  0
 14 15  1  0
 14 16  1  0
 16 17  2  0
 17  7  1  0
 16 10  1  0
M  END
>  <energy_score>  (1929) 
-43.468922

>  <alias>  (1929) 
None

>  <HIPPO Pose ID>  (1929) 
72974

>  <smiles>  (1929) 
CC[C@H](CO)Nc1ccc2cccc(O)c2n1

>  <inchikey>  (1929) 
BSBRXLMWIZJVAD-SNVBAGLBSA-N

>  <distance_score>  (1929) 
0.79889

>  <ref_mols>  (1929) 
Z1688a,Z0089a

>  <ref_pdb>  (1929) 
Z1688a

>  <HIPPO Compound ID>  (1929) 
146172

>  <name>  (1929) 
P72974

>  <inspiration_score>  (1929) 
None

$$$$
P72980
     RDKit          3D

 17 18  0  0  0  0  0  0  0  0999 V2000
   -4.9461    5.7941  -15.0393 C   0  0  0  0  0  0  0  0  0  0  0  0
   -5.3398    5.4545  -16.4443 C   0  0  0  0  0  0  0  0  0  0  0  0
   -4.3932    5.5460  -17.4661 C   0  0  0  0  0  0  0  0  0  0  0  0
   -4.7448    5.2456  -18.7697 C   0  0  0  0  0  0  0  0  0  0  0  0
   -3.8951    5.2621  -19.8313 N   0  0  0  0  0  0  0  0  0  0  0  0
   -2.4852    5.5887  -19.9338 C   0  0  2  0  0  0  0  0  0  0  0  0
   -1.6425    4.5462  -19.2013 C   0  0  0  0  0  0  0  0  0  0  0  0
   -2.1713    7.0493  -19.5453 C   0  0  1  0  0  0  0  0  0  0  0  0
   -0.6845    7.3889  -19.5441 C   0  0  0  0  0  0  0  0  0  0  0  0
   -3.0346    8.2740  -20.8421 Br  0  0  0  0  0  0  0  0  0  0  0  0
   -5.9902    4.8795  -19.0878 N   0  0  0  0  0  0  0  0  0  0  0  0
   -6.9105    4.7588  -18.1253 C   0  0  0  0  0  0  0  0  0  0  0  0
   -8.1816    4.3549  -18.4804 C   0  0  0  0  0  0  0  0  0  0  0  0
   -9.1767    4.1509  -17.5287 C   0  0  0  0  0  0  0  0  0  0  0  0
   -8.8978    4.3453  -16.1901 C   0  0  0  0  0  0  0  0  0  0  0  0
   -7.6443    4.7906  -15.8115 C   0  0  0  0  0  0  0  0  0  0  0  0
   -6.6349    5.0121  -16.7693 C   0  0  0  0  0  0  0  0  0  0  0  0
  1  2  1  0
  2  3  2  0
  3  4  1  0
  4  5  1  0
  5  6  1  0
  6  7  1  1
  6  8  1  0
  8  9  1  6
  8 10  1  0
  4 11  2  0
 11 12  1  0
 12 13  2  0
 13 14  1  0
 14 15  2  0
 15 16  1  0
 16 17  2  0
 17  2  1  0
 17 12  1  0
M  END
>  <energy_score>  (1930) 
-27.76276

>  <alias>  (1930) 
None

>  <HIPPO Pose ID>  (1930) 
72980

>  <smiles>  (1930) 
Cc1cc(N[C@H](C)[C@@H](C)Br)nc2ccccc12

>  <inchikey>  (1930) 
KAKAWBZZZUBLTN-GHMZBOCLSA-N

>  <distance_score>  (1930) 
1.901434

>  <ref_mols>  (1930) 
Z1688a,Z0089a

>  <ref_pdb>  (1930) 
Z1688a

>  <HIPPO Compound ID>  (1930) 
146174

>  <name>  (1930) 
P72980

>  <inspiration_score>  (1930) 
None

$$$$
P72984
     RDKit          3D

 17 18  0  0  0  0  0  0  0  0999 V2000
   -1.7905    4.3790  -19.2328 C   0  0  0  0  0  0  0  0  0  0  0  0
   -2.1294    5.6937  -18.5268 C   0  0  2  0  0  0  0  0  0  0  0  0
   -3.5066    6.0508  -18.8366 N   0  0  0  0  0  0  0  0  0  0  0  0
   -4.5391    5.5803  -18.0669 C   0  0  0  0  0  0  0  0  0  0  0  0
   -4.6938    5.7573  -16.7020 C   0  0  0  0  0  0  0  0  0  0  0  0
   -5.9131    5.3983  -16.1075 C   0  0  0  0  0  0  0  0  0  0  0  0
   -6.9533    4.8910  -16.9080 C   0  0  0  0  0  0  0  0  0  0  0  0
   -8.2658    4.5911  -16.4691 C   0  0  0  0  0  0  0  0  0  0  0  0
   -9.2092    4.1916  -17.4109 C   0  0  0  0  0  0  0  0  0  0  0  0
  -10.5117    3.9558  -17.1283 O   0  0  0  0  0  0  0  0  0  0  0  0
   -8.8640    4.0262  -18.7349 C   0  0  0  0  0  0  0  0  0  0  0  0
   -7.5706    4.2465  -19.1453 C   0  0  0  0  0  0  0  0  0  0  0  0
   -6.6375    4.7128  -18.2673 C   0  0  0  0  0  0  0  0  0  0  0  0
   -5.4742    5.0196  -18.8163 N   0  0  0  0  0  0  0  0  0  0  0  0
   -1.2335    6.8597  -19.0004 C   0  0  2  0  0  0  0  0  0  0  0  0
    0.2627    6.5663  -18.9875 C   0  0  0  0  0  0  0  0  0  0  0  0
   -1.5130    8.4150  -17.7987 Br  0  0  0  0  0  0  0  0  0  0  0  0
  2  1  1  6
  2  3  1  0
  3  4  1  0
  4  5  2  0
  5  6  1  0
  6  7  2  0
  7  8  1  0
  8  9  2  0
  9 10  1  0
  9 11  1  0
 11 12  2  0
 12 13  1  0
 13 14  2  0
  2 15  1  0
 15 16  1  1
 15 17  1  0
 14  4  1  0
 13  7  1  0
M  END
>  <energy_score>  (1931) 
-25.263527

>  <alias>  (1931) 
None

>  <HIPPO Pose ID>  (1931) 
72984

>  <smiles>  (1931) 
C[C@H](Br)[C@H](C)Nc1ccc2cc(O)ccc2n1

>  <inchikey>  (1931) 
IROMZVHDVHAEAU-IUCAKERBSA-N

>  <distance_score>  (1931) 
0.924625

>  <ref_mols>  (1931) 
Z1688a,Z0089a

>  <ref_pdb>  (1931) 
Z1688a

>  <HIPPO Compound ID>  (1931) 
146175

>  <name>  (1931) 
P72984

>  <inspiration_score>  (1931) 
None

$$$$
P72989
     RDKit          3D

 17 18  0  0  0  0  0  0  0  0999 V2000
   -1.1276    5.8872  -20.7342 C   0  0  0  0  0  0  0  0  0  0  0  0
   -1.3943    5.2742  -19.3602 C   0  0  1  0  0  0  0  0  0  0  0  0
    0.1579    5.7100  -18.2224 Br  0  0  0  0  0  0  0  0  0  0  0  0
   -2.7165    5.7284  -18.6824 C   0  0  1  0  0  0  0  0  0  0  0  0
   -2.7881    7.2417  -18.4569 C   0  0  0  0  0  0  0  0  0  0  0  0
   -3.8357    5.3653  -19.5500 N   0  0  0  0  0  0  0  0  0  0  0  0
   -5.0827    5.0560  -18.9880 C   0  0  0  0  0  0  0  0  0  0  0  0
   -6.0315    4.6044  -19.8899 C   0  0  0  0  0  0  0  0  0  0  0  0
   -7.2832    4.2319  -19.4636 C   0  0  0  0  0  0  0  0  0  0  0  0
   -7.6020    4.3952  -18.1422 C   0  0  0  0  0  0  0  0  0  0  0  0
   -8.8874    4.0381  -17.7597 C   0  0  0  0  0  0  0  0  0  0  0  0
   -9.2325    4.1120  -16.4312 C   0  0  0  0  0  0  0  0  0  0  0  0
   -8.3270    4.5784  -15.4959 C   0  0  0  0  0  0  0  0  0  0  0  0
   -7.0524    4.9715  -15.9106 C   0  0  0  0  0  0  0  0  0  0  0  0
   -6.2090    5.4535  -14.9426 O   0  0  0  0  0  0  0  0  0  0  0  0
   -6.6278    4.8868  -17.2466 C   0  0  0  0  0  0  0  0  0  0  0  0
   -5.3722    5.2177  -17.6822 N   0  0  0  0  0  0  0  0  0  0  0  0
  2  1  1  6
  2  3  1  0
  2  4  1  0
  4  5  1  6
  4  6  1  0
  6  7  1  0
  7  8  2  0
  8  9  1  0
  9 10  2  0
 10 11  1  0
 11 12  2  0
 12 13  1  0
 13 14  2  0
 14 15  1  0
 14 16  1  0
 16 17  2  0
 17  7  1  0
 16 10  1  0
M  END
>  <energy_score>  (1932) 
-30.174643

>  <alias>  (1932) 
None

>  <HIPPO Pose ID>  (1932) 
72989

>  <smiles>  (1932) 
C[C@@H](Br)[C@@H](C)Nc1ccc2cccc(O)c2n1

>  <inchikey>  (1932) 
BFSIQWQZJATJOA-RKDXNWHRSA-N

>  <distance_score>  (1932) 
0.912423

>  <ref_mols>  (1932) 
Z1688a,Z0089a

>  <ref_pdb>  (1932) 
Z1688a

>  <HIPPO Compound ID>  (1932) 
146176

>  <name>  (1932) 
P72989

>  <inspiration_score>  (1932) 
None

$$$$
P72991
     RDKit          3D

 17 18  0  0  0  0  0  0  0  0999 V2000
   -3.3376    6.2870  -16.0208 C   0  0  0  0  0  0  0  0  0  0  0  0
   -4.5646    5.7584  -16.6977 C   0  0  0  0  0  0  0  0  0  0  0  0
   -5.6340    5.3002  -15.9203 C   0  0  0  0  0  0  0  0  0  0  0  0
   -6.8126    4.8691  -16.5401 C   0  0  0  0  0  0  0  0  0  0  0  0
   -7.9444    4.4711  -15.8186 C   0  0  0  0  0  0  0  0  0  0  0  0
   -9.0926    4.0864  -16.5006 C   0  0  0  0  0  0  0  0  0  0  0  0
   -9.1216    4.0699  -17.8852 C   0  0  0  0  0  0  0  0  0  0  0  0
   -7.9856    4.4333  -18.5928 C   0  0  0  0  0  0  0  0  0  0  0  0
   -6.8409    4.8553  -17.9449 C   0  0  0  0  0  0  0  0  0  0  0  0
   -5.8126    5.2669  -18.6876 N   0  0  0  0  0  0  0  0  0  0  0  0
   -4.7142    5.7252  -18.0835 C   0  0  0  0  0  0  0  0  0  0  0  0
   -3.8239    6.3387  -18.9507 N   0  0  0  0  0  0  0  0  0  0  0  0
   -2.7731    5.5386  -19.5977 C   0  0  2  0  0  0  0  0  0  0  0  0
   -2.0556    4.5596  -18.6830 C   0  0  0  0  0  0  0  0  0  0  0  0
   -1.7982    6.5919  -20.1667 C   0  0  0  0  0  0  0  0  0  0  0  0
   -0.5929    6.0607  -20.9341 C   0  0  0  0  0  0  0  0  0  0  0  0
   -1.0457    5.1696  -22.4495 S   0  0  0  0  0  0  0  0  0  0  0  0
  1  2  1  0
  2  3  2  0
  3  4  1  0
  4  5  2  0
  5  6  1  0
  6  7  2  0
  7  8  1  0
  8  9  2  0
  9 10  1  0
 10 11  2  0
 11 12  1  0
 12 13  1  0
 13 14  1  1
 13 15  1  0
 15 16  1  0
 16 17  1  0
 11  2  1  0
  9  4  1  0
M  END
>  <energy_score>  (1933) 
-26.599965

>  <alias>  (1933) 
None

>  <HIPPO Pose ID>  (1933) 
72991

>  <smiles>  (1933) 
Cc1cc2ccccc2nc1N[C@H](C)CCS

>  <inchikey>  (1933) 
QYLCTMJLJZUJMI-LLVKDONJSA-N

>  <distance_score>  (1933) 
1.024845

>  <ref_mols>  (1933) 
Z1688a,Z0089a

>  <ref_pdb>  (1933) 
Z1688a

>  <HIPPO Compound ID>  (1933) 
146177

>  <name>  (1933) 
P72991

>  <inspiration_score>  (1933) 
None

$$$$
P72993
     RDKit          3D

 17 18  0  0  0  0  0  0  0  0999 V2000
   -4.9746    5.8605  -15.0481 C   0  0  0  0  0  0  0  0  0  0  0  0
   -5.3545    5.5102  -16.4546 C   0  0  0  0  0  0  0  0  0  0  0  0
   -4.4104    5.6413  -17.4749 C   0  0  0  0  0  0  0  0  0  0  0  0
   -4.7439    5.3213  -18.7781 C   0  0  0  0  0  0  0  0  0  0  0  0
   -3.9012    5.4050  -19.8451 N   0  0  0  0  0  0  0  0  0  0  0  0
   -2.4649    5.5773  -19.9119 C   0  0  2  0  0  0  0  0  0  0  0  0
   -1.7158    4.4351  -19.2386 C   0  0  0  0  0  0  0  0  0  0  0  0
   -2.0363    6.9721  -19.4269 C   0  0  0  0  0  0  0  0  0  0  0  0
   -0.6891    7.3885  -20.0184 C   0  0  0  0  0  0  0  0  0  0  0  0
   -0.2339    9.0594  -19.4618 S   0  0  0  0  0  0  0  0  0  0  0  0
   -5.9738    4.9057  -19.0989 N   0  0  0  0  0  0  0  0  0  0  0  0
   -6.8962    4.7655  -18.1402 C   0  0  0  0  0  0  0  0  0  0  0  0
   -8.1566    4.3338  -18.5011 C   0  0  0  0  0  0  0  0  0  0  0  0
   -9.1556    4.1185  -17.5557 C   0  0  0  0  0  0  0  0  0  0  0  0
   -8.8916    4.3272  -16.2163 C   0  0  0  0  0  0  0  0  0  0  0  0
   -7.6483    4.7963  -15.8316 C   0  0  0  0  0  0  0  0  0  0  0  0
   -6.6360    5.0324  -16.7838 C   0  0  0  0  0  0  0  0  0  0  0  0
  1  2  1  0
  2  3  2  0
  3  4  1  0
  4  5  1  0
  5  6  1  0
  6  7  1  1
  6  8  1  0
  8  9  1  0
  9 10  1  0
  4 11  2  0
 11 12  1  0
 12 13  2  0
 13 14  1  0
 14 15  2  0
 15 16  1  0
 16 17  2  0
 17  2  1  0
 17 12  1  0
M  END
>  <energy_score>  (1934) 
-35.813265

>  <alias>  (1934) 
None

>  <HIPPO Pose ID>  (1934) 
72993

>  <smiles>  (1934) 
Cc1cc(N[C@H](C)CCS)nc2ccccc12

>  <inchikey>  (1934) 
WQRMYORLZUVIQB-LLVKDONJSA-N

>  <distance_score>  (1934) 
1.876511

>  <ref_mols>  (1934) 
Z1688a,Z0089a

>  <ref_pdb>  (1934) 
Z1688a

>  <HIPPO Compound ID>  (1934) 
146178

>  <name>  (1934) 
P72993

>  <inspiration_score>  (1934) 
None

$$$$
P72997
     RDKit          3D

 17 18  0  0  0  0  0  0  0  0999 V2000
   -1.4599    4.6838  -19.4761 C   0  0  0  0  0  0  0  0  0  0  0  0
   -2.6311    5.6620  -19.4330 C   0  0  2  0  0  0  0  0  0  0  0  0
   -2.1272    7.1019  -19.2598 C   0  0  0  0  0  0  0  0  0  0  0  0
   -3.2631    8.1163  -19.3799 C   0  0  0  0  0  0  0  0  0  0  0  0
   -2.6114    9.8126  -19.3104 S   0  0  0  0  0  0  0  0  0  0  0  0
   -3.4781    5.2999  -18.3181 N   0  0  0  0  0  0  0  0  0  0  0  0
   -4.8286    5.0839  -18.3769 C   0  0  0  0  0  0  0  0  0  0  0  0
   -5.4737    4.6945  -19.5337 C   0  0  0  0  0  0  0  0  0  0  0  0
   -6.8076    4.3494  -19.4871 C   0  0  0  0  0  0  0  0  0  0  0  0
   -7.4978    4.4606  -18.2999 C   0  0  0  0  0  0  0  0  0  0  0  0
   -8.8559    4.1479  -18.2520 C   0  0  0  0  0  0  0  0  0  0  0  0
   -9.5234    4.2019  -17.0422 C   0  0  0  0  0  0  0  0  0  0  0  0
   -8.8395    4.5720  -15.8889 C   0  0  0  0  0  0  0  0  0  0  0  0
   -7.4992    4.9212  -15.9706 C   0  0  0  0  0  0  0  0  0  0  0  0
   -6.8758    5.3321  -14.8202 O   0  0  0  0  0  0  0  0  0  0  0  0
   -6.7890    4.8729  -17.1635 C   0  0  0  0  0  0  0  0  0  0  0  0
   -5.4746    5.1961  -17.1992 N   0  0  0  0  0  0  0  0  0  0  0  0
  2  1  1  1
  2  3  1  0
  3  4  1  0
  4  5  1  0
  2  6  1  0
  6  7  1  0
  7  8  2  0
  8  9  1  0
  9 10  2  0
 10 11  1  0
 11 12  2  0
 12 13  1  0
 13 14  2  0
 14 15  1  0
 14 16  1  0
 16 17  2  0
 17  7  1  0
 16 10  1  0
M  END
>  <energy_score>  (1935) 
-41.927917

>  <alias>  (1935) 
None

>  <HIPPO Pose ID>  (1935) 
72997

>  <smiles>  (1935) 
C[C@H](CCS)Nc1ccc2cccc(O)c2n1

>  <inchikey>  (1935) 
KGTVRUUMYMCAAF-SECBINFHSA-N

>  <distance_score>  (1935) 
0.920005

>  <ref_mols>  (1935) 
Z1688a,Z0089a

>  <ref_pdb>  (1935) 
Z1688a

>  <HIPPO Compound ID>  (1935) 
146180

>  <name>  (1935) 
P72997

>  <inspiration_score>  (1935) 
None

$$$$
P73004
     RDKit          3D

 17 19  0  0  0  0  0  0  0  0999 V2000
    0.7623    5.6537  -18.9554 C   0  0  0  0  0  0  0  0  0  0  0  0
   -0.5304    5.7547  -19.7401 C   0  0  1  0  0  0  0  0  0  0  0  0
   -1.6413    4.7201  -19.4188 C   0  0  0  0  0  0  0  0  0  0  0  0
   -2.6623    5.8675  -19.5400 C   0  0  1  0  0  0  0  0  0  0  0  0
   -3.6175    5.8811  -18.4951 N   0  0  0  0  0  0  0  0  0  0  0  0
   -4.8954    5.3402  -18.4562 C   0  0  0  0  0  0  0  0  0  0  0  0
   -5.5022    4.8394  -19.5900 C   0  0  0  0  0  0  0  0  0  0  0  0
   -6.7882    4.3485  -19.5048 C   0  0  0  0  0  0  0  0  0  0  0  0
   -7.4747    4.4431  -18.3104 C   0  0  0  0  0  0  0  0  0  0  0  0
   -8.8175    4.0704  -18.2420 C   0  0  0  0  0  0  0  0  0  0  0  0
   -9.4858    4.1419  -17.0322 C   0  0  0  0  0  0  0  0  0  0  0  0
   -8.8116    4.5603  -15.8909 C   0  0  0  0  0  0  0  0  0  0  0  0
   -7.4885    4.9647  -15.9909 C   0  0  0  0  0  0  0  0  0  0  0  0
   -6.8816    5.4414  -14.8567 O   0  0  0  0  0  0  0  0  0  0  0  0
   -6.7871    4.9315  -17.1906 C   0  0  0  0  0  0  0  0  0  0  0  0
   -5.5095    5.3720  -17.2547 N   0  0  0  0  0  0  0  0  0  0  0  0
   -1.5082    6.8524  -19.2577 C   0  0  0  0  0  0  0  0  0  0  0  0
  2  1  1  1
  2  3  1  0
  3  4  1  0
  4  5  1  1
  5  6  1  0
  6  7  2  0
  7  8  1  0
  8  9  2  0
  9 10  1  0
 10 11  2  0
 11 12  1  0
 12 13  2  0
 13 14  1  0
 13 15  1  0
 15 16  2  0
  4 17  1  0
 17  2  1  0
 16  6  1  0
 15  9  1  0
M  END
>  <energy_score>  (1936) 
-37.987544

>  <alias>  (1936) 
None

>  <HIPPO Pose ID>  (1936) 
73004

>  <smiles>  (1936) 
C[C@H]1C[C@@H](Nc2ccc3cccc(O)c3n2)C1

>  <inchikey>  (1936) 
AFIKTLZDQRFIQY-JGZJWPJOSA-N

>  <distance_score>  (1936) 
0.938605

>  <ref_mols>  (1936) 
Z1688a,Z0089a

>  <ref_pdb>  (1936) 
Z1688a

>  <HIPPO Compound ID>  (1936) 
146184

>  <name>  (1936) 
P73004

>  <inspiration_score>  (1936) 
None

$$$$
P73009
     RDKit          3D

 17 19  0  0  0  0  0  0  0  0999 V2000
   -3.3730    6.3708  -16.1455 C   0  0  0  0  0  0  0  0  0  0  0  0
   -4.5912    5.7961  -16.8012 C   0  0  0  0  0  0  0  0  0  0  0  0
   -5.7004    5.4777  -16.0076 C   0  0  0  0  0  0  0  0  0  0  0  0
   -6.8618    4.9710  -16.5995 C   0  0  0  0  0  0  0  0  0  0  0  0
   -7.9953    4.6199  -15.8583 C   0  0  0  0  0  0  0  0  0  0  0  0
   -9.1241    4.1512  -16.5178 C   0  0  0  0  0  0  0  0  0  0  0  0
   -9.1457    4.0455  -17.8989 C   0  0  0  0  0  0  0  0  0  0  0  0
   -8.0075    4.3635  -18.6241 C   0  0  0  0  0  0  0  0  0  0  0  0
   -6.8645    4.8161  -17.9954 C   0  0  0  0  0  0  0  0  0  0  0  0
   -5.7988    5.0855  -18.7482 N   0  0  0  0  0  0  0  0  0  0  0  0
   -4.6802    5.5320  -18.1694 C   0  0  0  0  0  0  0  0  0  0  0  0
   -3.6420    5.6938  -19.0891 N   0  0  0  0  0  0  0  0  0  0  0  0
   -2.3215    5.1799  -18.8646 C   0  0  1  0  0  0  0  0  0  0  0  0
   -1.7081    4.5183  -20.1077 C   0  0  0  0  0  0  0  0  0  0  0  0
   -1.0179    5.8503  -20.4408 C   0  0  0  0  0  0  0  0  0  0  0  0
   -1.2339    6.2823  -18.9748 C   0  0  2  0  0  0  0  0  0  0  0  0
   -0.1648    6.1165  -18.1560 F   0  0  0  0  0  0  0  0  0  0  0  0
  1  2  1  0
  2  3  2  0
  3  4  1  0
  4  5  2  0
  5  6  1  0
  6  7  2  0
  7  8  1  0
  8  9  2  0
  9 10  1  0
 10 11  2  0
 11 12  1  0
 13 12  1  6
 13 14  1  0
 14 15  1  0
 15 16  1  0
 16 17  1  1
 11  2  1  0
 16 13  1  0
  9  4  1  0
M  END
>  <energy_score>  (1937) 
-20.551887

>  <alias>  (1937) 
None

>  <HIPPO Pose ID>  (1937) 
73009

>  <smiles>  (1937) 
Cc1cc2ccccc2nc1N[C@H]1CC[C@@H]1F

>  <inchikey>  (1937) 
BOSHEEXPAYWWRP-AAEUAGOBSA-N

>  <distance_score>  (1937) 
0.970212

>  <ref_mols>  (1937) 
Z1688a,Z0089a

>  <ref_pdb>  (1937) 
Z1688a

>  <HIPPO Compound ID>  (1937) 
146185

>  <name>  (1937) 
P73009

>  <inspiration_score>  (1937) 
None

$$$$
P73013
     RDKit          3D

 17 19  0  0  0  0  0  0  0  0999 V2000
   -5.2562    6.0789  -14.9231 C   0  0  0  0  0  0  0  0  0  0  0  0
   -5.5492    5.7047  -16.3430 C   0  0  0  0  0  0  0  0  0  0  0  0
   -4.5719    5.8911  -17.3128 C   0  0  0  0  0  0  0  0  0  0  0  0
   -4.8182    5.4874  -18.6172 C   0  0  0  0  0  0  0  0  0  0  0  0
   -3.8020    5.5057  -19.5802 N   0  0  0  0  0  0  0  0  0  0  0  0
   -2.4538    5.1691  -19.2257 C   0  0  1  0  0  0  0  0  0  0  0  0
   -1.6259    4.6475  -20.3970 C   0  0  0  0  0  0  0  0  0  0  0  0
   -1.0732    6.0655  -20.6077 C   0  0  0  0  0  0  0  0  0  0  0  0
   -1.5218    6.4097  -19.1708 C   0  0  2  0  0  0  0  0  0  0  0  0
   -0.5470    6.3563  -18.2289 F   0  0  0  0  0  0  0  0  0  0  0  0
   -5.9952    5.0085  -19.0206 N   0  0  0  0  0  0  0  0  0  0  0  0
   -6.9514    4.8347  -18.1050 C   0  0  0  0  0  0  0  0  0  0  0  0
   -8.1621    4.3269  -18.5238 C   0  0  0  0  0  0  0  0  0  0  0  0
   -9.1854    4.0543  -17.6236 C   0  0  0  0  0  0  0  0  0  0  0  0
   -8.9914    4.2735  -16.2743 C   0  0  0  0  0  0  0  0  0  0  0  0
   -7.8039    4.8245  -15.8307 C   0  0  0  0  0  0  0  0  0  0  0  0
   -6.7719    5.1293  -16.7359 C   0  0  0  0  0  0  0  0  0  0  0  0
  1  2  1  0
  2  3  2  0
  3  4  1  0
  4  5  1  0
  6  5  1  6
  6  7  1  0
  7  8  1  0
  8  9  1  0
  9 10  1  1
  4 11  2  0
 11 12  1  0
 12 13  2  0
 13 14  1  0
 14 15  2  0
 15 16  1  0
 16 17  2  0
 17  2  1  0
  9  6  1  0
 17 12  1  0
M  END
>  <energy_score>  (1938) 
-14.591192

>  <alias>  (1938) 
None

>  <HIPPO Pose ID>  (1938) 
73013

>  <smiles>  (1938) 
Cc1cc(N[C@H]2CC[C@@H]2F)nc2ccccc12

>  <inchikey>  (1938) 
MMHVEWVILBFODA-AAEUAGOBSA-N

>  <distance_score>  (1938) 
1.77725

>  <ref_mols>  (1938) 
Z1688a,Z0089a

>  <ref_pdb>  (1938) 
Z1688a

>  <HIPPO Compound ID>  (1938) 
146186

>  <name>  (1938) 
P73013

>  <inspiration_score>  (1938) 
None

$$$$
P73023
     RDKit          3D

 17 18  0  0  0  0  0  0  0  0999 V2000
   -1.4900    4.2023  -19.9186 C   0  0  0  0  0  0  0  0  0  0  0  0
   -2.0960    4.6829  -18.6124 C   0  0  0  0  0  0  0  0  0  0  0  0
   -2.8915    5.9949  -18.6789 C   0  0  1  0  0  0  0  0  0  0  0  0
   -2.0734    7.1919  -19.1901 C   0  0  0  0  0  0  0  0  0  0  0  0
   -0.6651    7.5699  -18.1637 Cl  0  0  0  0  0  0  0  0  0  0  0  0
   -4.0421    5.8317  -19.5651 N   0  0  0  0  0  0  0  0  0  0  0  0
   -5.1959    5.2592  -19.0103 C   0  0  0  0  0  0  0  0  0  0  0  0
   -6.0752    4.6836  -19.9080 C   0  0  0  0  0  0  0  0  0  0  0  0
   -7.2904    4.2038  -19.4804 C   0  0  0  0  0  0  0  0  0  0  0  0
   -7.6397    4.3755  -18.1655 C   0  0  0  0  0  0  0  0  0  0  0  0
   -8.9116    3.9705  -17.7891 C   0  0  0  0  0  0  0  0  0  0  0  0
   -9.2802    4.0691  -16.4680 C   0  0  0  0  0  0  0  0  0  0  0  0
   -8.4044    4.5799  -15.5276 C   0  0  0  0  0  0  0  0  0  0  0  0
   -7.1449    5.0190  -15.9350 C   0  0  0  0  0  0  0  0  0  0  0  0
   -6.3332    5.5544  -14.9680 O   0  0  0  0  0  0  0  0  0  0  0  0
   -6.7123    4.9418  -17.2676 C   0  0  0  0  0  0  0  0  0  0  0  0
   -5.4933    5.3732  -17.7005 N   0  0  0  0  0  0  0  0  0  0  0  0
  1  2  1  0
  3  2  1  6
  3  4  1  0
  4  5  1  0
  3  6  1  0
  6  7  1  0
  7  8  2  0
  8  9  1  0
  9 10  2  0
 10 11  1  0
 11 12  2  0
 12 13  1  0
 13 14  2  0
 14 15  1  0
 14 16  1  0
 16 17  2  0
 17  7  1  0
 16 10  1  0
M  END
>  <energy_score>  (1939) 
-19.638805

>  <alias>  (1939) 
None

>  <HIPPO Pose ID>  (1939) 
73023

>  <smiles>  (1939) 
CC[C@@H](CCl)Nc1ccc2cccc(O)c2n1

>  <inchikey>  (1939) 
RJJNZEKBKIHRCV-JTQLQIEISA-N

>  <distance_score>  (1939) 
0.858462

>  <ref_mols>  (1939) 
Z1688a,Z0089a

>  <ref_pdb>  (1939) 
Z1688a

>  <HIPPO Compound ID>  (1939) 
146189

>  <name>  (1939) 
P73023

>  <inspiration_score>  (1939) 
None

$$$$
P73025
     RDKit          3D

 17 19  0  0  0  0  0  0  0  0999 V2000
    1.1399    5.9204  -19.2418 C   0  0  0  0  0  0  0  0  0  0  0  0
   -0.1846    5.8797  -19.0872 C   0  0  0  0  0  0  0  0  0  0  0  0
   -1.2432    4.8316  -19.3897 C   0  0  0  0  0  0  0  0  0  0  0  0
   -2.0639    5.5998  -18.3147 C   0  0  0  0  0  0  0  0  0  0  0  0
   -3.4152    5.8144  -18.7046 N   0  0  0  0  0  0  0  0  0  0  0  0
   -4.5406    5.4511  -17.9895 C   0  0  0  0  0  0  0  0  0  0  0  0
   -4.7215    5.6109  -16.6249 C   0  0  0  0  0  0  0  0  0  0  0  0
   -5.9709    5.3021  -16.0674 C   0  0  0  0  0  0  0  0  0  0  0  0
   -7.0099    4.8489  -16.9009 C   0  0  0  0  0  0  0  0  0  0  0  0
   -8.3370    4.5686  -16.4937 C   0  0  0  0  0  0  0  0  0  0  0  0
   -9.2722    4.2139  -17.4622 C   0  0  0  0  0  0  0  0  0  0  0  0
  -10.5867    4.0062  -17.2107 O   0  0  0  0  0  0  0  0  0  0  0  0
   -8.9053    4.0747  -18.7835 C   0  0  0  0  0  0  0  0  0  0  0  0
   -7.5981    4.2676  -19.1623 C   0  0  0  0  0  0  0  0  0  0  0  0
   -6.6725    4.6943  -18.2579 C   0  0  0  0  0  0  0  0  0  0  0  0
   -5.4895    4.9726  -18.7781 N   0  0  0  0  0  0  0  0  0  0  0  0
   -1.2028    6.8667  -18.5501 C   0  0  0  0  0  0  0  0  0  0  0  0
  1  2  2  0
  2  3  1  0
  3  4  1  0
  4  5  1  0
  5  6  1  0
  6  7  2  0
  7  8  1  0
  8  9  2  0
  9 10  1  0
 10 11  2  0
 11 12  1  0
 11 13  1  0
 13 14  2  0
 14 15  1  0
 15 16  2  0
  4 17  1  0
 17  2  1  0
 16  6  1  0
 15  9  1  0
M  END
>  <energy_score>  (1940) 
-20.236277

>  <alias>  (1940) 
None

>  <HIPPO Pose ID>  (1940) 
73025

>  <smiles>  (1940) 
C=C1CC(Nc2ccc3cc(O)ccc3n2)C1

>  <inchikey>  (1940) 
STIHMCMSSNYWJX-UHFFFAOYSA-N

>  <distance_score>  (1940) 
0.962703

>  <ref_mols>  (1940) 
Z1688a,Z0089a

>  <ref_pdb>  (1940) 
Z1688a

>  <HIPPO Compound ID>  (1940) 
146192

>  <name>  (1940) 
P73025

>  <inspiration_score>  (1940) 
None

$$$$
P73032
     RDKit          3D

 17 18  0  0  0  0  0  0  0  0999 V2000
   -1.4537    5.3465  -21.6250 C   0  0  0  0  0  0  0  0  0  0  0  0
   -1.6861    4.6394  -20.2941 C   0  0  0  0  0  0  0  0  0  0  0  0
   -2.3771    5.4902  -19.2172 C   0  0  1  0  0  0  0  0  0  0  0  0
   -1.7160    6.8647  -19.0026 C   0  0  0  0  0  0  0  0  0  0  0  0
   -0.0546    6.7208  -18.3680 Cl  0  0  0  0  0  0  0  0  0  0  0  0
   -3.7833    5.6924  -19.5623 N   0  0  0  0  0  0  0  0  0  0  0  0
   -4.7416    5.5134  -18.5780 C   0  0  0  0  0  0  0  0  0  0  0  0
   -4.5398    5.8686  -17.2523 C   0  0  0  0  0  0  0  0  0  0  0  0
   -5.5353    5.6365  -16.3085 C   0  0  0  0  0  0  0  0  0  0  0  0
   -5.2874    5.9944  -14.8752 C   0  0  0  0  0  0  0  0  0  0  0  0
   -6.7448    5.0692  -16.7438 C   0  0  0  0  0  0  0  0  0  0  0  0
   -7.8092    4.7636  -15.8747 C   0  0  0  0  0  0  0  0  0  0  0  0
   -8.9875    4.2310  -16.3622 C   0  0  0  0  0  0  0  0  0  0  0  0
   -9.1332    4.0227  -17.7187 C   0  0  0  0  0  0  0  0  0  0  0  0
   -8.0776    4.2966  -18.5819 C   0  0  0  0  0  0  0  0  0  0  0  0
   -6.8787    4.7967  -18.1209 C   0  0  0  0  0  0  0  0  0  0  0  0
   -5.8950    4.9975  -19.0059 N   0  0  0  0  0  0  0  0  0  0  0  0
  1  2  1  0
  3  2  1  6
  3  4  1  0
  4  5  1  0
  3  6  1  0
  6  7  1  0
  7  8  2  0
  8  9  1  0
  9 10  1  0
  9 11  2  0
 11 12  1  0
 12 13  2  0
 13 14  1  0
 14 15  2  0
 15 16  1  0
 16 17  2  0
 17  7  1  0
 16 11  1  0
M  END
>  <energy_score>  (1941) 
-37.247527

>  <alias>  (1941) 
None

>  <HIPPO Pose ID>  (1941) 
73032

>  <smiles>  (1941) 
CC[C@@H](CCl)Nc1cc(C)c2ccccc2n1

>  <inchikey>  (1941) 
UHUPCUMEVIGDOS-NSHDSACASA-N

>  <distance_score>  (1941) 
1.950904

>  <ref_mols>  (1941) 
Z1688a,Z0089a

>  <ref_pdb>  (1941) 
Z1688a

>  <HIPPO Compound ID>  (1941) 
146196

>  <name>  (1941) 
P73032

>  <inspiration_score>  (1941) 
None

$$$$
P73035
     RDKit          3D

 17 19  0  0  0  0  0  0  0  0999 V2000
   -1.2993    7.8226  -19.2853 C   0  0  0  0  0  0  0  0  0  0  0  0
   -1.3346    6.4894  -19.3764 C   0  0  0  0  0  0  0  0  0  0  0  0
   -0.4494    5.4835  -20.0815 C   0  0  0  0  0  0  0  0  0  0  0  0
   -1.6812    4.5558  -19.9737 C   0  0  0  0  0  0  0  0  0  0  0  0
   -2.2488    5.4149  -18.8213 C   0  0  2  0  0  0  0  0  0  0  0  0
   -3.6095    5.7727  -18.9963 N   0  0  0  0  0  0  0  0  0  0  0  0
   -4.6381    5.5305  -18.0922 C   0  0  0  0  0  0  0  0  0  0  0  0
   -5.7477    5.0923  -18.6990 N   0  0  0  0  0  0  0  0  0  0  0  0
   -6.8285    4.8055  -17.9734 C   0  0  0  0  0  0  0  0  0  0  0  0
   -7.9613    4.3730  -18.6340 C   0  0  0  0  0  0  0  0  0  0  0  0
   -9.1197    4.0555  -17.9406 C   0  0  0  0  0  0  0  0  0  0  0  0
   -9.1298    4.1373  -16.5579 C   0  0  0  0  0  0  0  0  0  0  0  0
   -8.0088    4.5767  -15.8656 C   0  0  0  0  0  0  0  0  0  0  0  0
   -6.8551    4.9291  -16.5757 C   0  0  0  0  0  0  0  0  0  0  0  0
   -5.7019    5.4108  -15.9502 C   0  0  0  0  0  0  0  0  0  0  0  0
   -4.5771    5.7510  -16.7143 C   0  0  0  0  0  0  0  0  0  0  0  0
   -3.3845    6.3195  -16.0078 C   0  0  0  0  0  0  0  0  0  0  0  0
  1  2  2  0
  2  3  1  0
  3  4  1  0
  4  5  1  0
  5  6  1  6
  6  7  1  0
  7  8  2  0
  8  9  1  0
  9 10  2  0
 10 11  1  0
 11 12  2  0
 12 13  1  0
 13 14  2  0
 14 15  1  0
 15 16  2  0
 16 17  1  0
  5  2  1  0
 16  7  1  0
 14  9  1  0
M  END
>  <energy_score>  (1942) 
-26.802699

>  <alias>  (1942) 
None

>  <HIPPO Pose ID>  (1942) 
73035

>  <smiles>  (1942) 
C=C1CC[C@@H]1Nc1nc2ccccc2cc1C

>  <inchikey>  (1942) 
AZZCCVSTIPHFMX-ZDUSSCGKSA-N

>  <distance_score>  (1942) 
0.948525

>  <ref_mols>  (1942) 
Z1688a,Z0089a

>  <ref_pdb>  (1942) 
Z1688a

>  <HIPPO Compound ID>  (1942) 
146198

>  <name>  (1942) 
P73035

>  <inspiration_score>  (1942) 
None

$$$$
P73038
     RDKit          3D

 17 19  0  0  0  0  0  0  0  0999 V2000
   -0.9585    7.8277  -18.9246 C   0  0  0  0  0  0  0  0  0  0  0  0
   -1.1013    6.4988  -18.9562 C   0  0  0  0  0  0  0  0  0  0  0  0
   -0.2907    5.3936  -19.5995 C   0  0  0  0  0  0  0  0  0  0  0  0
   -1.5758    4.5537  -19.4321 C   0  0  0  0  0  0  0  0  0  0  0  0
   -2.1065    5.5373  -18.3569 C   0  0  2  0  0  0  0  0  0  0  0  0
   -3.4277    5.9801  -18.6216 N   0  0  0  0  0  0  0  0  0  0  0  0
   -4.5467    5.5342  -17.9343 C   0  0  0  0  0  0  0  0  0  0  0  0
   -4.7279    5.6409  -16.5643 C   0  0  0  0  0  0  0  0  0  0  0  0
   -5.9734    5.2991  -16.0201 C   0  0  0  0  0  0  0  0  0  0  0  0
   -7.0029    4.8543  -16.8691 C   0  0  0  0  0  0  0  0  0  0  0  0
   -8.3274    4.5529  -16.4703 C   0  0  0  0  0  0  0  0  0  0  0  0
   -9.2548    4.1967  -17.4451 C   0  0  0  0  0  0  0  0  0  0  0  0
  -10.5661    3.9691  -17.1936 O   0  0  0  0  0  0  0  0  0  0  0  0
   -8.8808    4.0698  -18.7659 C   0  0  0  0  0  0  0  0  0  0  0  0
   -7.5755    4.2942  -19.1390 C   0  0  0  0  0  0  0  0  0  0  0  0
   -6.6595    4.7325  -18.2287 C   0  0  0  0  0  0  0  0  0  0  0  0
   -5.4825    5.0573  -18.7404 N   0  0  0  0  0  0  0  0  0  0  0  0
  1  2  2  0
  2  3  1  0
  3  4  1  0
  4  5  1  0
  5  6  1  6
  6  7  1  0
  7  8  2  0
  8  9  1  0
  9 10  2  0
 10 11  1  0
 11 12  2  0
 12 13  1  0
 12 14  1  0
 14 15  2  0
 15 16  1  0
 16 17  2  0
  5  2  1  0
 17  7  1  0
 16 10  1  0
M  END
>  <energy_score>  (1943) 
-20.862321

>  <alias>  (1943) 
None

>  <HIPPO Pose ID>  (1943) 
73038

>  <smiles>  (1943) 
C=C1CC[C@@H]1Nc1ccc2cc(O)ccc2n1

>  <inchikey>  (1943) 
MBZAPHGXVQBDCR-LBPRGKRZSA-N

>  <distance_score>  (1943) 
0.937329

>  <ref_mols>  (1943) 
Z1688a,Z0089a

>  <ref_pdb>  (1943) 
Z1688a

>  <HIPPO Compound ID>  (1943) 
146200

>  <name>  (1943) 
P73038

>  <inspiration_score>  (1943) 
None

$$$$
P73043
     RDKit          3D

 17 18  0  0  0  0  0  0  0  0999 V2000
   -1.7927    4.3728  -19.2254 C   0  0  0  0  0  0  0  0  0  0  0  0
   -2.1461    5.6817  -18.5222 C   0  0  1  0  0  0  0  0  0  0  0  0
   -1.2405    6.8099  -19.0330 C   0  0  0  0  0  0  0  0  0  0  0  0
   -1.4866    8.1131  -18.2884 C   0  0  0  0  0  0  0  0  0  0  0  0
   -0.1970    9.4571  -18.8666 Br  0  0  0  0  0  0  0  0  0  0  0  0
   -3.5110    6.0623  -18.8205 N   0  0  0  0  0  0  0  0  0  0  0  0
   -4.5435    5.5755  -18.0577 C   0  0  0  0  0  0  0  0  0  0  0  0
   -4.6982    5.7385  -16.6906 C   0  0  0  0  0  0  0  0  0  0  0  0
   -5.9190    5.3778  -16.1005 C   0  0  0  0  0  0  0  0  0  0  0  0
   -6.9595    4.8805  -16.9065 C   0  0  0  0  0  0  0  0  0  0  0  0
   -8.2733    4.5807  -16.4712 C   0  0  0  0  0  0  0  0  0  0  0  0
   -9.2163    4.1900  -17.4170 C   0  0  0  0  0  0  0  0  0  0  0  0
  -10.5200    3.9567  -17.1377 O   0  0  0  0  0  0  0  0  0  0  0  0
   -8.8691    4.0311  -18.7413 C   0  0  0  0  0  0  0  0  0  0  0  0
   -7.5743    4.2504  -19.1482 C   0  0  0  0  0  0  0  0  0  0  0  0
   -6.6423    4.7118  -18.2667 C   0  0  0  0  0  0  0  0  0  0  0  0
   -5.4789    5.0245  -18.8126 N   0  0  0  0  0  0  0  0  0  0  0  0
  2  1  1  6
  2  3  1  0
  3  4  1  0
  4  5  1  0
  2  6  1  0
  6  7  1  0
  7  8  2  0
  8  9  1  0
  9 10  2  0
 10 11  1  0
 11 12  2  0
 12 13  1  0
 12 14  1  0
 14 15  2  0
 15 16  1  0
 16 17  2  0
 17  7  1  0
 16 10  1  0
M  END
>  <energy_score>  (1944) 
-33.419114

>  <alias>  (1944) 
None

>  <HIPPO Pose ID>  (1944) 
73043

>  <smiles>  (1944) 
C[C@@H](CCBr)Nc1ccc2cc(O)ccc2n1

>  <inchikey>  (1944) 
WBPCEGXSAHMSSZ-VIFPVBQESA-N

>  <distance_score>  (1944) 
0.92279

>  <ref_mols>  (1944) 
Z1688a,Z0089a

>  <ref_pdb>  (1944) 
Z1688a

>  <HIPPO Compound ID>  (1944) 
146202

>  <name>  (1944) 
P73043

>  <inspiration_score>  (1944) 
None

$$$$
P73060
     RDKit          3D

 17 19  0  0  0  0  0  0  0  0999 V2000
   -3.4809    5.8486  -15.1295 C   0  0  0  0  0  0  0  0  0  0  0  0
   -4.5494    5.4873  -16.1208 C   0  0  0  0  0  0  0  0  0  0  0  0
   -5.8431    5.2278  -15.6300 C   0  0  0  0  0  0  0  0  0  0  0  0
   -6.8768    4.8728  -16.5006 C   0  0  0  0  0  0  0  0  0  0  0  0
   -8.1821    4.5660  -16.0703 C   0  0  0  0  0  0  0  0  0  0  0  0
   -9.1630    4.2382  -17.0036 C   0  0  0  0  0  0  0  0  0  0  0  0
   -8.8473    4.2077  -18.3528 C   0  0  0  0  0  0  0  0  0  0  0  0
   -7.5460    4.4776  -18.7625 C   0  0  0  0  0  0  0  0  0  0  0  0
   -6.5580    4.8198  -17.8622 C   0  0  0  0  0  0  0  0  0  0  0  0
   -5.3335    5.0768  -18.3353 N   0  0  0  0  0  0  0  0  0  0  0  0
   -4.3153    5.3731  -17.4993 C   0  0  0  0  0  0  0  0  0  0  0  0
   -3.0638    5.5411  -18.0927 N   0  0  0  0  0  0  0  0  0  0  0  0
   -1.8694    5.5594  -17.4322 N   0  0  0  0  0  0  0  0  0  0  0  0
   -0.9682    5.3019  -18.3239 C   0  0  0  0  0  0  0  0  0  0  0  0
   -1.4761    4.9731  -19.6866 C   0  0  0  0  0  0  0  0  0  0  0  0
   -2.9043    5.4787  -19.5399 C   0  0  2  0  0  0  0  0  0  0  0  0
   -3.0473    6.8852  -20.1119 C   0  0  0  0  0  0  0  0  0  0  0  0
  1  2  1  0
  2  3  2  0
  3  4  1  0
  4  5  2  0
  5  6  1  0
  6  7  2  0
  7  8  1  0
  8  9  2  0
  9 10  1  0
 10 11  2  0
 11 12  1  0
 12 13  1  0
 13 14  2  0
 14 15  1  0
 15 16  1  0
 16 17  1  6
 11  2  1  0
 16 12  1  0
  9  4  1  0
M  END
>  <energy_score>  (1945) 
-47.133506

>  <alias>  (1945) 
None

>  <HIPPO Pose ID>  (1945) 
73060

>  <smiles>  (1945) 
Cc1cc2ccccc2nc1N1N=CC[C@@H]1C

>  <inchikey>  (1945) 
AJWMEJIIMVBQNK-NSHDSACASA-N

>  <distance_score>  (1945) 
0.971831

>  <ref_mols>  (1945) 
Z1688a,Z0089a

>  <ref_pdb>  (1945) 
Z1688a

>  <HIPPO Compound ID>  (1945) 
146209

>  <name>  (1945) 
P73060

>  <inspiration_score>  (1945) 
None

$$$$
P73067
     RDKit          3D

 17 18  0  0  0  0  0  0  0  0999 V2000
   -1.4302    3.7373  -19.7313 C   0  0  0  0  0  0  0  0  0  0  0  0
   -2.3978    4.8914  -19.8163 C   0  0  0  0  0  0  0  0  0  0  0  0
   -2.4299    5.7236  -18.5222 C   0  0  1  0  0  0  0  0  0  0  0  0
   -1.2514    6.7144  -18.5159 C   0  0  0  0  0  0  0  0  0  0  0  0
   -0.9055    7.5314  -16.5415 I   0  0  0  0  0  0  0  0  0  0  0  0
   -3.6689    6.5099  -18.4942 N   0  0  0  0  0  0  0  0  0  0  0  0
   -4.7068    5.8694  -17.8303 C   0  0  0  0  0  0  0  0  0  0  0  0
   -4.8977    5.9205  -16.4597 C   0  0  0  0  0  0  0  0  0  0  0  0
   -6.1036    5.4424  -15.9356 C   0  0  0  0  0  0  0  0  0  0  0  0
   -7.0781    4.9260  -16.8071 C   0  0  0  0  0  0  0  0  0  0  0  0
   -8.3900    4.5551  -16.4355 C   0  0  0  0  0  0  0  0  0  0  0  0
   -9.2804    4.1683  -17.4324 C   0  0  0  0  0  0  0  0  0  0  0  0
  -10.5980    3.9392  -17.2144 O   0  0  0  0  0  0  0  0  0  0  0  0
   -8.8668    4.0361  -18.7414 C   0  0  0  0  0  0  0  0  0  0  0  0
   -7.5662    4.3243  -19.0871 C   0  0  0  0  0  0  0  0  0  0  0  0
   -6.7037    4.8335  -18.1610 C   0  0  0  0  0  0  0  0  0  0  0  0
   -5.5602    5.2817  -18.6529 N   0  0  0  0  0  0  0  0  0  0  0  0
  1  2  1  0
  3  2  1  6
  3  4  1  0
  4  5  1  0
  3  6  1  0
  6  7  1  0
  7  8  2  0
  8  9  1  0
  9 10  2  0
 10 11  1  0
 11 12  2  0
 12 13  1  0
 12 14  1  0
 14 15  2  0
 15 16  1  0
 16 17  2  0
 17  7  1  0
 16 10  1  0
M  END
>  <energy_score>  (1946) 
-21.874002

>  <alias>  (1946) 
None

>  <HIPPO Pose ID>  (1946) 
73067

>  <smiles>  (1946) 
CC[C@@H](CI)Nc1ccc2cc(O)ccc2n1

>  <inchikey>  (1946) 
KOFWLNHLIIAWPR-JTQLQIEISA-N

>  <distance_score>  (1946) 
0.950546

>  <ref_mols>  (1946) 
Z1688a,Z0089a

>  <ref_pdb>  (1946) 
Z1688a

>  <HIPPO Compound ID>  (1946) 
146213

>  <name>  (1946) 
P73067

>  <inspiration_score>  (1946) 
None

$$$$
P73069
     RDKit          3D

 17 18  0  0  0  0  0  0  0  0999 V2000
   -1.3744    3.7549  -19.5845 C   0  0  0  0  0  0  0  0  0  0  0  0
   -2.3319    4.8511  -19.9719 C   0  0  0  0  0  0  0  0  0  0  0  0
   -2.7709    5.6904  -18.7636 C   0  0  1  0  0  0  0  0  0  0  0  0
   -1.7208    6.7227  -18.3161 C   0  0  0  0  0  0  0  0  0  0  0  0
   -1.2999    8.2818  -19.7502 I   0  0  0  0  0  0  0  0  0  0  0  0
   -4.0205    6.3790  -19.0631 N   0  0  0  0  0  0  0  0  0  0  0  0
   -5.1660    5.6462  -18.7461 C   0  0  0  0  0  0  0  0  0  0  0  0
   -5.8163    4.9692  -19.7591 C   0  0  0  0  0  0  0  0  0  0  0  0
   -7.0002    4.3251  -19.4869 C   0  0  0  0  0  0  0  0  0  0  0  0
   -7.5476    4.4428  -18.2295 C   0  0  0  0  0  0  0  0  0  0  0  0
   -8.8429    3.9779  -18.0365 C   0  0  0  0  0  0  0  0  0  0  0  0
   -9.4114    4.0620  -16.7851 C   0  0  0  0  0  0  0  0  0  0  0  0
   -8.6755    4.5481  -15.7167 C   0  0  0  0  0  0  0  0  0  0  0  0
   -7.3888    5.0393  -15.9344 C   0  0  0  0  0  0  0  0  0  0  0  0
   -6.7266    5.5599  -14.8511 O   0  0  0  0  0  0  0  0  0  0  0  0
   -6.7968    5.0491  -17.2044 C   0  0  0  0  0  0  0  0  0  0  0  0
   -5.5928    5.6196  -17.4698 N   0  0  0  0  0  0  0  0  0  0  0  0
  1  2  1  0
  3  2  1  6
  3  4  1  0
  4  5  1  0
  3  6  1  0
  6  7  1  0
  7  8  2  0
  8  9  1  0
  9 10  2  0
 10 11  1  0
 11 12  2  0
 12 13  1  0
 13 14  2  0
 14 15  1  0
 14 16  1  0
 16 17  2  0
 17  7  1  0
 16 10  1  0
M  END
>  <energy_score>  (1947) 
-16.343797

>  <alias>  (1947) 
None

>  <HIPPO Pose ID>  (1947) 
73069

>  <smiles>  (1947) 
CC[C@@H](CI)Nc1ccc2cccc(O)c2n1

>  <inchikey>  (1947) 
NTSBSDMCBGYZRD-JTQLQIEISA-N

>  <distance_score>  (1947) 
0.791827

>  <ref_mols>  (1947) 
Z1688a,Z0089a

>  <ref_pdb>  (1947) 
Z1688a

>  <HIPPO Compound ID>  (1947) 
146214

>  <name>  (1947) 
P73069

>  <inspiration_score>  (1947) 
None

$$$$
P73071
     RDKit          3D

 17 19  0  0  0  0  0  0  0  0999 V2000
   -6.3875    5.4022  -14.8882 O   0  0  0  0  0  0  0  0  0  0  0  0
   -7.1843    4.9462  -15.9064 C   0  0  0  0  0  0  0  0  0  0  0  0
   -8.4801    4.5574  -15.5652 C   0  0  0  0  0  0  0  0  0  0  0  0
   -9.3392    4.1139  -16.5553 C   0  0  0  0  0  0  0  0  0  0  0  0
   -8.9264    4.0542  -17.8645 C   0  0  0  0  0  0  0  0  0  0  0  0
   -7.6218    4.4050  -18.1738 C   0  0  0  0  0  0  0  0  0  0  0  0
   -7.2291    4.2402  -19.4761 C   0  0  0  0  0  0  0  0  0  0  0  0
   -5.9493    4.5887  -19.8295 C   0  0  0  0  0  0  0  0  0  0  0  0
   -5.0623    5.0435  -18.8701 C   0  0  0  0  0  0  0  0  0  0  0  0
   -3.7277    5.2053  -19.3059 N   0  0  0  0  0  0  0  0  0  0  0  0
   -2.6375    5.5336  -18.4458 C   0  0  1  0  0  0  0  0  0  0  0  0
   -1.2809    5.2083  -19.1125 C   0  0  0  0  0  0  0  0  0  0  0  0
   -1.2441    6.6644  -19.6284 C   0  0  2  0  0  0  0  0  0  0  0  0
    0.3201    7.5281  -19.6894 Cl  0  0  0  0  0  0  0  0  0  0  0  0
   -2.2454    7.0228  -18.5067 C   0  0  0  0  0  0  0  0  0  0  0  0
   -5.4186    5.1933  -17.5792 N   0  0  0  0  0  0  0  0  0  0  0  0
   -6.6963    4.8770  -17.2193 C   0  0  0  0  0  0  0  0  0  0  0  0
  1  2  1  0
  2  3  2  0
  3  4  1  0
  4  5  2  0
  5  6  1  0
  6  7  2  0
  7  8  1  0
  8  9  2  0
  9 10  1  0
 11 10  1  6
 11 12  1  0
 12 13  1  0
 13 14  1  1
 13 15  1  0
  9 16  1  0
 16 17  2  0
 17  2  1  0
 17  6  1  0
 15 11  1  0
M  END
>  <energy_score>  (1948) 
-13.039716

>  <alias>  (1948) 
None

>  <HIPPO Pose ID>  (1948) 
73071

>  <smiles>  (1948) 
Oc1cccc2ccc(N[C@H]3C[C@H](Cl)C3)nc12

>  <inchikey>  (1948) 
YFBLQNYUYVVEQF-MGCOHNPYSA-N

>  <distance_score>  (1948) 
0.840252

>  <ref_mols>  (1948) 
Z1688a,Z0089a

>  <ref_pdb>  (1948) 
Z1688a

>  <HIPPO Compound ID>  (1948) 
146215

>  <name>  (1948) 
P73071

>  <inspiration_score>  (1948) 
None

$$$$
P73072
     RDKit          3D

 17 19  0  0  0  0  0  0  0  0999 V2000
   -3.4980    5.7870  -15.2532 C   0  0  0  0  0  0  0  0  0  0  0  0
   -4.6212    5.4405  -16.1853 C   0  0  0  0  0  0  0  0  0  0  0  0
   -5.9044    5.2127  -15.6724 C   0  0  0  0  0  0  0  0  0  0  0  0
   -6.9469    4.8567  -16.5341 C   0  0  0  0  0  0  0  0  0  0  0  0
   -8.2480    4.5651  -16.0877 C   0  0  0  0  0  0  0  0  0  0  0  0
   -9.2381    4.2366  -17.0099 C   0  0  0  0  0  0  0  0  0  0  0  0
   -8.9387    4.1945  -18.3620 C   0  0  0  0  0  0  0  0  0  0  0  0
   -7.6418    4.4422  -18.7901 C   0  0  0  0  0  0  0  0  0  0  0  0
   -6.6443    4.7815  -17.9038 C   0  0  0  0  0  0  0  0  0  0  0  0
   -5.4251    5.0064  -18.3983 N   0  0  0  0  0  0  0  0  0  0  0  0
   -4.4189    5.2877  -17.5632 C   0  0  0  0  0  0  0  0  0  0  0  0
   -3.1143    5.4135  -18.0899 N   0  0  0  0  0  0  0  0  0  0  0  0
   -2.9152    5.3642  -19.5372 C   0  0  2  0  0  0  0  0  0  0  0  0
   -1.5283    5.4576  -20.1277 C   0  0  2  0  0  0  0  0  0  0  0  0
   -0.3067    5.6124  -19.2889 C   0  0  0  0  0  0  0  0  0  0  0  0
   -2.5127    6.5900  -20.3154 C   0  0  2  0  0  0  0  0  0  0  0  0
   -2.3672    7.9171  -19.6542 C   0  0  0  0  0  0  0  0  0  0  0  0
  1  2  1  0
  2  3  2  0
  3  4  1  0
  4  5  2  0
  5  6  1  0
  6  7  2  0
  7  8  1  0
  8  9  2  0
  9 10  1  0
 10 11  2  0
 11 12  1  0
 13 12  1  1
 13 14  1  0
 14 15  1  1
 14 16  1  0
 16 17  1  1
 11  2  1  0
 16 13  1  0
  9  4  1  0
M  END
>  <energy_score>  (1949) 
-22.004084

>  <alias>  (1949) 
None

>  <HIPPO Pose ID>  (1949) 
73072

>  <smiles>  (1949) 
Cc1cc2ccccc2nc1N[C@@H]1[C@H](C)[C@@H]1C

>  <inchikey>  (1949) 
QWFBKZNFXIUQMJ-GNXNZQSNSA-N

>  <distance_score>  (1949) 
0.997832

>  <ref_mols>  (1949) 
Z1688a,Z0089a

>  <ref_pdb>  (1949) 
Z1688a

>  <HIPPO Compound ID>  (1949) 
146216

>  <name>  (1949) 
P73072

>  <inspiration_score>  (1949) 
None

$$$$
P73077
     RDKit          3D

 17 19  0  0  0  0  0  0  0  0999 V2000
   -3.3946    6.3773  -16.0660 C   0  0  0  0  0  0  0  0  0  0  0  0
   -4.5732    5.7697  -16.7629 C   0  0  0  0  0  0  0  0  0  0  0  0
   -5.7038    5.4602  -15.9921 C   0  0  0  0  0  0  0  0  0  0  0  0
   -6.8530    4.9510  -16.6021 C   0  0  0  0  0  0  0  0  0  0  0  0
   -8.0074    4.6180  -15.8837 C   0  0  0  0  0  0  0  0  0  0  0  0
   -9.1260    4.1560  -16.5647 C   0  0  0  0  0  0  0  0  0  0  0  0
   -9.1156    4.0424  -17.9453 C   0  0  0  0  0  0  0  0  0  0  0  0
   -7.9560    4.3398  -18.6458 C   0  0  0  0  0  0  0  0  0  0  0  0
   -6.8211    4.7803  -17.9940 C   0  0  0  0  0  0  0  0  0  0  0  0
   -5.7313    5.0254  -18.7215 N   0  0  0  0  0  0  0  0  0  0  0  0
   -4.6195    5.4764  -18.1272 C   0  0  0  0  0  0  0  0  0  0  0  0
   -3.5859    5.6310  -19.0415 N   0  0  0  0  0  0  0  0  0  0  0  0
   -2.1933    5.4988  -18.8267 C   0  0  1  0  0  0  0  0  0  0  0  0
   -1.4685    4.6242  -19.8672 C   0  0  0  0  0  0  0  0  0  0  0  0
   -0.3469    5.7011  -19.8700 C   0  0  2  0  0  0  0  0  0  0  0  0
    1.0631    5.5062  -18.7565 Cl  0  0  0  0  0  0  0  0  0  0  0  0
   -1.4310    6.7046  -19.4182 C   0  0  0  0  0  0  0  0  0  0  0  0
  1  2  1  0
  2  3  2  0
  3  4  1  0
  4  5  2  0
  5  6  1  0
  6  7  2  0
  7  8  1  0
  8  9  2  0
  9 10  1  0
 10 11  2  0
 11 12  1  0
 13 12  1  6
 13 14  1  0
 14 15  1  0
 15 16  1  1
 15 17  1  0
 11  2  1  0
 17 13  1  0
  9  4  1  0
M  END
>  <energy_score>  (1950) 
-18.123385

>  <alias>  (1950) 
None

>  <HIPPO Pose ID>  (1950) 
73077

>  <smiles>  (1950) 
Cc1cc2ccccc2nc1N[C@H]1C[C@H](Cl)C1

>  <inchikey>  (1950) 
IXLLCGNDYWXYIS-HAQNSBGRSA-N

>  <distance_score>  (1950) 
0.946927

>  <ref_mols>  (1950) 
Z1688a,Z0089a

>  <ref_pdb>  (1950) 
Z1688a

>  <HIPPO Compound ID>  (1950) 
146218

>  <name>  (1950) 
P73077

>  <inspiration_score>  (1950) 
None

$$$$
P73078
     RDKit          3D

 17 19  0  0  0  0  0  0  0  0999 V2000
   -5.0881    5.9743  -14.9944 C   0  0  0  0  0  0  0  0  0  0  0  0
   -5.4315    5.6047  -16.4047 C   0  0  0  0  0  0  0  0  0  0  0  0
   -4.4758    5.7564  -17.4049 C   0  0  0  0  0  0  0  0  0  0  0  0
   -4.7832    5.3907  -18.7063 C   0  0  0  0  0  0  0  0  0  0  0  0
   -3.8270    5.4425  -19.7255 N   0  0  0  0  0  0  0  0  0  0  0  0
   -2.4527    5.1383  -19.5196 C   0  0  1  0  0  0  0  0  0  0  0  0
   -1.6782    4.9721  -20.8391 C   0  0  0  0  0  0  0  0  0  0  0  0
   -0.5184    5.7433  -20.1639 C   0  0  1  0  0  0  0  0  0  0  0  0
    0.5143    6.8034  -21.1647 Cl  0  0  0  0  0  0  0  0  0  0  0  0
   -1.5945    6.4005  -19.2673 C   0  0  0  0  0  0  0  0  0  0  0  0
   -5.9897    4.9474  -19.0666 N   0  0  0  0  0  0  0  0  0  0  0  0
   -6.9221    4.7981  -18.1209 C   0  0  0  0  0  0  0  0  0  0  0  0
   -8.1634    4.3324  -18.5011 C   0  0  0  0  0  0  0  0  0  0  0  0
   -9.1690    4.0939  -17.5700 C   0  0  0  0  0  0  0  0  0  0  0  0
   -8.9297    4.3118  -16.2274 C   0  0  0  0  0  0  0  0  0  0  0  0
   -7.7082    4.8184  -15.8231 C   0  0  0  0  0  0  0  0  0  0  0  0
   -6.6899    5.0815  -16.7588 C   0  0  0  0  0  0  0  0  0  0  0  0
  1  2  1  0
  2  3  2  0
  3  4  1  0
  4  5  1  0
  6  5  1  6
  6  7  1  0
  7  8  1  0
  8  9  1  6
  8 10  1  0
  4 11  2  0
 11 12  1  0
 12 13  2  0
 13 14  1  0
 14 15  2  0
 15 16  1  0
 16 17  2  0
 17  2  1  0
 10  6  1  0
 17 12  1  0
M  END
>  <energy_score>  (1951) 
-17.766452

>  <alias>  (1951) 
None

>  <HIPPO Pose ID>  (1951) 
73078

>  <smiles>  (1951) 
Cc1cc(N[C@H]2C[C@@H](Cl)C2)nc2ccccc12

>  <inchikey>  (1951) 
JHRMYWVSPJIRIX-PHIMTYICSA-N

>  <distance_score>  (1951) 
1.99417

>  <ref_mols>  (1951) 
Z1688a,Z0089a

>  <ref_pdb>  (1951) 
Z1688a

>  <HIPPO Compound ID>  (1951) 
146219

>  <name>  (1951) 
P73078

>  <inspiration_score>  (1951) 
None

$$$$
P73081
     RDKit          3D

 17 19  0  0  0  0  0  0  0  0999 V2000
   -1.0478    7.6580  -19.4049 C   0  0  0  0  0  0  0  0  0  0  0  0
   -0.9335    6.3389  -18.7190 C   0  0  2  0  0  0  0  0  0  0  0  0
   -1.2306    5.0306  -19.4121 C   0  0  2  0  0  0  0  0  0  0  0  0
   -1.6306    4.9711  -20.8465 C   0  0  0  0  0  0  0  0  0  0  0  0
   -2.1495    5.5375  -18.3221 C   0  0  2  0  0  0  0  0  0  0  0  0
   -3.4846    6.0334  -18.6324 N   0  0  0  0  0  0  0  0  0  0  0  0
   -4.5856    5.5645  -17.9263 C   0  0  0  0  0  0  0  0  0  0  0  0
   -4.7730    5.6957  -16.5595 C   0  0  0  0  0  0  0  0  0  0  0  0
   -6.0131    5.3358  -16.0140 C   0  0  0  0  0  0  0  0  0  0  0  0
   -7.0331    4.8631  -16.8611 C   0  0  0  0  0  0  0  0  0  0  0  0
   -8.3587    4.5601  -16.4689 C   0  0  0  0  0  0  0  0  0  0  0  0
   -9.2791    4.1983  -17.4492 C   0  0  0  0  0  0  0  0  0  0  0  0
  -10.5956    3.9860  -17.2114 O   0  0  0  0  0  0  0  0  0  0  0  0
   -8.8960    4.0614  -18.7663 C   0  0  0  0  0  0  0  0  0  0  0  0
   -7.5886    4.2783  -19.1316 C   0  0  0  0  0  0  0  0  0  0  0  0
   -6.6818    4.7233  -18.2166 C   0  0  0  0  0  0  0  0  0  0  0  0
   -5.5062    5.0465  -18.7255 N   0  0  0  0  0  0  0  0  0  0  0  0
  2  1  1  6
  2  3  1  0
  3  4  1  6
  3  5  1  0
  5  6  1  6
  6  7  1  0
  7  8  2  0
  8  9  1  0
  9 10  2  0
 10 11  1  0
 11 12  2  0
 12 13  1  0
 12 14  1  0
 14 15  2  0
 15 16  1  0
 16 17  2  0
  5  2  1  0
 17  7  1  0
 16 10  1  0
M  END
>  <energy_score>  (1952) 
-17.808727

>  <alias>  (1952) 
None

>  <HIPPO Pose ID>  (1952) 
73081

>  <smiles>  (1952) 
C[C@@H]1[C@H](C)[C@@H]1Nc1ccc2cc(O)ccc2n1

>  <inchikey>  (1952) 
WSPUCCOGFRDVOF-ICCCGROCSA-N

>  <distance_score>  (1952) 
0.978978

>  <ref_mols>  (1952) 
Z1688a,Z0089a

>  <ref_pdb>  (1952) 
Z1688a

>  <HIPPO Compound ID>  (1952) 
146221

>  <name>  (1952) 
P73081

>  <inspiration_score>  (1952) 
None

$$$$
P73085
     RDKit          3D

 17 19  0  0  0  0  0  0  0  0999 V2000
   -2.1282    7.9734  -19.0709 C   0  0  0  0  0  0  0  0  0  0  0  0
   -1.8000    6.6833  -18.4009 C   0  0  2  0  0  0  0  0  0  0  0  0
   -1.3016    5.4635  -19.1417 C   0  0  2  0  0  0  0  0  0  0  0  0
   -1.0732    5.4681  -20.6152 C   0  0  0  0  0  0  0  0  0  0  0  0
   -2.6925    5.4775  -18.5439 C   0  0  2  0  0  0  0  0  0  0  0  0
   -3.8500    5.4724  -19.4318 N   0  0  0  0  0  0  0  0  0  0  0  0
   -5.1182    5.1005  -18.9241 C   0  0  0  0  0  0  0  0  0  0  0  0
   -6.0345    4.6625  -19.8644 C   0  0  0  0  0  0  0  0  0  0  0  0
   -7.2835    4.2486  -19.4692 C   0  0  0  0  0  0  0  0  0  0  0  0
   -7.6356    4.3808  -18.1514 C   0  0  0  0  0  0  0  0  0  0  0  0
   -8.9287    4.0194  -17.8088 C   0  0  0  0  0  0  0  0  0  0  0  0
   -9.3085    4.0792  -16.4897 C   0  0  0  0  0  0  0  0  0  0  0  0
   -8.4279    4.5241  -15.5198 C   0  0  0  0  0  0  0  0  0  0  0  0
   -7.1425    4.9179  -15.8915 C   0  0  0  0  0  0  0  0  0  0  0  0
   -6.3194    5.3813  -14.8974 O   0  0  0  0  0  0  0  0  0  0  0  0
   -6.6901    4.8560  -17.2185 C   0  0  0  0  0  0  0  0  0  0  0  0
   -5.4320    5.2010  -17.6142 N   0  0  0  0  0  0  0  0  0  0  0  0
  2  1  1  6
  2  3  1  0
  3  4  1  6
  3  5  1  0
  5  6  1  6
  6  7  1  0
  7  8  2  0
  8  9  1  0
  9 10  2  0
 10 11  1  0
 11 12  2  0
 12 13  1  0
 13 14  2  0
 14 15  1  0
 14 16  1  0
 16 17  2  0
  5  2  1  0
 17  7  1  0
 16 10  1  0
M  END
>  <energy_score>  (1953) 
-17.831524

>  <alias>  (1953) 
None

>  <HIPPO Pose ID>  (1953) 
73085

>  <smiles>  (1953) 
C[C@@H]1[C@H](C)[C@@H]1Nc1ccc2cccc(O)c2n1

>  <inchikey>  (1953) 
CITTZJWKSDSSAV-YFKFIEJBSA-N

>  <distance_score>  (1953) 
0.875557

>  <ref_mols>  (1953) 
Z1688a,Z0089a

>  <ref_pdb>  (1953) 
Z1688a

>  <HIPPO Compound ID>  (1953) 
146222

>  <name>  (1953) 
P73085

>  <inspiration_score>  (1953) 
None

$$$$
P73091
     RDKit          3D

 17 19  0  0  0  0  0  0  0  0999 V2000
   -1.5173    7.3650  -19.6317 C   0  0  0  0  0  0  0  0  0  0  0  0
   -1.4597    5.9244  -19.2520 C   0  0  2  0  0  0  0  0  0  0  0  0
   -1.7048    4.8769  -20.3013 C   0  0  0  0  0  0  0  0  0  0  0  0
   -2.6920    5.0583  -19.1868 C   0  0  2  0  0  0  0  0  0  0  0  0
   -4.0196    5.6070  -19.4622 N   0  0  0  0  0  0  0  0  0  0  0  0
   -5.0418    5.4142  -18.5199 C   0  0  0  0  0  0  0  0  0  0  0  0
   -6.1799    4.9443  -19.0555 N   0  0  0  0  0  0  0  0  0  0  0  0
   -7.2099    4.6786  -18.2431 C   0  0  0  0  0  0  0  0  0  0  0  0
   -8.4120    4.2552  -18.7569 C   0  0  0  0  0  0  0  0  0  0  0  0
   -9.4792    3.9634  -17.9162 C   0  0  0  0  0  0  0  0  0  0  0  0
   -9.3377    4.0385  -16.5462 C   0  0  0  0  0  0  0  0  0  0  0  0
   -8.1640    4.4808  -15.9993 C   0  0  0  0  0  0  0  0  0  0  0  0
   -7.1236    4.8177  -16.8528 C   0  0  0  0  0  0  0  0  0  0  0  0
   -5.9580    5.3162  -16.3189 C   0  0  0  0  0  0  0  0  0  0  0  0
   -4.9047    5.6768  -17.1567 C   0  0  0  0  0  0  0  0  0  0  0  0
   -3.6948    6.3130  -16.5598 C   0  0  0  0  0  0  0  0  0  0  0  0
   -3.9943    6.8193  -15.2570 O   0  0  0  0  0  0  0  0  0  0  0  0
  2  1  1  6
  2  3  1  0
  3  4  1  0
  4  5  1  6
  5  6  1  0
  6  7  2  0
  7  8  1  0
  8  9  2  0
  9 10  1  0
 10 11  2  0
 11 12  1  0
 12 13  2  0
 13 14  1  0
 14 15  2  0
 15 16  1  0
 16 17  1  0
  4  2  1  0
 15  6  1  0
 13  8  1  0
M  END
>  <energy_score>  (1954) 
-22.091704

>  <alias>  (1954) 
None

>  <HIPPO Pose ID>  (1954) 
73091

>  <smiles>  (1954) 
C[C@@H]1C[C@@H]1Nc1nc2ccccc2cc1CO

>  <inchikey>  (1954) 
SNVREEOFJSADHJ-RNCFNFMXSA-N

>  <distance_score>  (1954) 
1.920805

>  <ref_mols>  (1954) 
Z1688a,Z0089a

>  <ref_pdb>  (1954) 
Z1688a

>  <HIPPO Compound ID>  (1954) 
146225

>  <name>  (1954) 
P73091

>  <inspiration_score>  (1954) 
None

$$$$
P73094
     RDKit          3D

 17 19  0  0  0  0  0  0  0  0999 V2000
   -0.4452    6.3247  -18.2763 C   0  0  0  0  0  0  0  0  0  0  0  0
   -1.5741    6.2498  -19.2448 C   0  0  1  0  0  0  0  0  0  0  0  0
   -1.6463    5.1079  -20.2194 C   0  0  0  0  0  0  0  0  0  0  0  0
   -2.6512    5.2062  -19.1073 C   0  0  2  0  0  0  0  0  0  0  0  0
   -4.0330    5.5598  -19.4159 N   0  0  0  0  0  0  0  0  0  0  0  0
   -5.0560    5.3641  -18.4838 C   0  0  0  0  0  0  0  0  0  0  0  0
   -6.1931    4.9037  -19.0325 N   0  0  0  0  0  0  0  0  0  0  0  0
   -7.2423    4.6506  -18.2380 C   0  0  0  0  0  0  0  0  0  0  0  0
   -8.4373    4.2378  -18.7709 C   0  0  0  0  0  0  0  0  0  0  0  0
   -9.5156    3.9556  -17.9431 C   0  0  0  0  0  0  0  0  0  0  0  0
   -9.3926    4.0262  -16.5716 C   0  0  0  0  0  0  0  0  0  0  0  0
   -8.2311    4.4678  -16.0041 C   0  0  0  0  0  0  0  0  0  0  0  0
   -7.1814    4.7979  -16.8442 C   0  0  0  0  0  0  0  0  0  0  0  0
   -6.0294    5.2948  -16.2898 C   0  0  0  0  0  0  0  0  0  0  0  0
   -4.9632    5.6142  -17.1202 C   0  0  0  0  0  0  0  0  0  0  0  0
   -3.8685    6.2222  -16.4629 C   0  0  0  0  0  0  0  0  0  0  0  0
   -3.0964    6.7098  -15.7504 N   0  0  0  0  0  0  0  0  0  0  0  0
  2  1  1  1
  2  3  1  0
  3  4  1  0
  4  5  1  6
  5  6  1  0
  6  7  2  0
  7  8  1  0
  8  9  2  0
  9 10  1  0
 10 11  2  0
 11 12  1  0
 12 13  2  0
 13 14  1  0
 14 15  2  0
 15 16  1  0
 16 17  3  0
  4  2  1  0
 15  6  1  0
 13  8  1  0
M  END
>  <energy_score>  (1955) 
-11.269973

>  <alias>  (1955) 
None

>  <HIPPO Pose ID>  (1955) 
73094

>  <smiles>  (1955) 
C[C@H]1C[C@@H]1Nc1nc2ccccc2cc1C#N

>  <inchikey>  (1955) 
PCBGFZIBWQLRGA-ZANVPECISA-N

>  <distance_score>  (1955) 
1.9617

>  <ref_mols>  (1955) 
Z1688a,Z0089a

>  <ref_pdb>  (1955) 
Z1688a

>  <HIPPO Compound ID>  (1955) 
146226

>  <name>  (1955) 
P73094

>  <inspiration_score>  (1955) 
None

$$$$
P73099
     RDKit          3D

 18 20  0  0  0  0  0  0  0  0999 V2000
   -0.3140    6.3848  -20.4170 C   0  0  0  0  0  0  0  0  0  0  0  0
   -1.2134    5.8247  -19.3693 C   0  0  2  0  0  0  0  0  0  0  0  0
   -1.7857    4.4427  -19.5327 C   0  0  0  0  0  0  0  0  0  0  0  0
   -2.6816    5.6420  -19.6419 C   0  0  1  0  0  0  0  0  0  0  0  0
   -3.6371    5.9717  -18.6026 N   0  0  0  0  0  0  0  0  0  0  0  0
   -4.9035    5.3977  -18.5131 C   0  0  0  0  0  0  0  0  0  0  0  0
   -5.5658    4.8982  -19.6117 C   0  0  0  0  0  0  0  0  0  0  0  0
   -6.8412    4.3987  -19.4507 C   0  0  0  0  0  0  0  0  0  0  0  0
   -7.4583    4.4766  -18.2168 C   0  0  0  0  0  0  0  0  0  0  0  0
   -8.7926    4.0948  -18.1201 C   0  0  0  0  0  0  0  0  0  0  0  0
   -9.4183    4.1350  -16.8923 C   0  0  0  0  0  0  0  0  0  0  0  0
   -8.7041    4.5214  -15.7643 C   0  0  0  0  0  0  0  0  0  0  0  0
   -7.3669    4.9304  -15.8793 C   0  0  0  0  0  0  0  0  0  0  0  0
   -6.6394    5.3369  -14.6594 C   0  0  0  0  0  0  0  0  0  0  0  0
   -5.4807    5.1267  -14.3580 O   0  0  0  0  0  0  0  0  0  0  0  0
   -7.4465    6.0308  -13.8255 O   0  0  0  0  0  0  0  0  0  0  0  0
   -6.7180    4.9475  -17.1147 C   0  0  0  0  0  0  0  0  0  0  0  0
   -5.4576    5.4108  -17.2854 N   0  0  0  0  0  0  0  0  0  0  0  0
  2  1  1  6
  2  3  1  0
  3  4  1  0
  4  5  1  1
  5  6  1  0
  6  7  2  0
  7  8  1  0
  8  9  2  0
  9 10  1  0
 10 11  2  0
 11 12  1  0
 12 13  2  0
 13 14  1  0
 14 15  2  0
 14 16  1  0
 13 17  1  0
 17 18  2  0
  4  2  1  0
 18  6  1  0
 17  9  1  0
M  END
>  <energy_score>  (1956) 
-25.686176

>  <alias>  (1956) 
None

>  <HIPPO Pose ID>  (1956) 
73099

>  <smiles>  (1956) 
C[C@@H]1C[C@H]1Nc1ccc2cccc(C(=O)O)c2n1

>  <inchikey>  (1956) 
FEJFQUNLGSPUGM-LDYMZIIASA-N

>  <distance_score>  (1956) 
1.195373

>  <ref_mols>  (1956) 
Z1688a,Z0089a

>  <ref_pdb>  (1956) 
Z1688a

>  <HIPPO Compound ID>  (1956) 
146229

>  <name>  (1956) 
P73099

>  <inspiration_score>  (1956) 
None

$$$$
P73101
     RDKit          3D

 18 20  0  0  0  0  0  0  0  0999 V2000
   -6.8444    5.3031  -14.8174 O   0  0  0  0  0  0  0  0  0  0  0  0
   -7.4668    4.9094  -15.9746 C   0  0  0  0  0  0  0  0  0  0  0  0
   -8.8118    4.5726  -15.8988 C   0  0  0  0  0  0  0  0  0  0  0  0
   -9.4964    4.2171  -17.0559 C   0  0  0  0  0  0  0  0  0  0  0  0
   -8.8260    4.1724  -18.2652 C   0  0  0  0  0  0  0  0  0  0  0  0
   -7.4638    4.4746  -18.3081 C   0  0  0  0  0  0  0  0  0  0  0  0
   -6.7730    4.3728  -19.4969 C   0  0  0  0  0  0  0  0  0  0  0  0
   -5.4348    4.7004  -19.5400 C   0  0  0  0  0  0  0  0  0  0  0  0
   -4.7847    5.0577  -18.3754 C   0  0  0  0  0  0  0  0  0  0  0  0
   -3.4108    5.1841  -18.3187 N   0  0  0  0  0  0  0  0  0  0  0  0
   -2.6596    5.8418  -19.3781 C   0  0  0  0  0  0  0  0  0  0  0  0
   -1.3408    5.0983  -19.5731 C   0  0  0  0  0  0  0  0  0  0  0  0
   -0.5073    5.7752  -20.6599 C   0  0  0  0  0  0  0  0  0  0  0  0
   -0.8327    7.1568  -20.8417 O   0  0  0  0  0  0  0  0  0  0  0  0
   -1.0962    7.8168  -19.6100 C   0  0  0  0  0  0  0  0  0  0  0  0
   -2.4036    7.3083  -19.0159 C   0  0  0  0  0  0  0  0  0  0  0  0
   -5.4278    5.1617  -17.1946 N   0  0  0  0  0  0  0  0  0  0  0  0
   -6.7508    4.8643  -17.1655 C   0  0  0  0  0  0  0  0  0  0  0  0
  1  2  1  0
  2  3  2  0
  3  4  1  0
  4  5  2  0
  5  6  1  0
  6  7  2  0
  7  8  1  0
  8  9  2  0
  9 10  1  0
 10 11  1  0
 11 12  1  0
 12 13  1  0
 13 14  1  0
 14 15  1  0
 15 16  1  0
  9 17  1  0
 17 18  2  0
 18  2  1  0
 18  6  1  0
 16 11  1  0
M  END
>  <energy_score>  (1957) 
-41.650822

>  <alias>  (1957) 
None

>  <HIPPO Pose ID>  (1957) 
73101

>  <smiles>  (1957) 
Oc1cccc2ccc(NC3CCOCC3)nc12

>  <inchikey>  (1957) 
SMTNHFHSFNAYGU-UHFFFAOYSA-N

>  <distance_score>  (1957) 
0.962591

>  <ref_mols>  (1957) 
Z1688a,Z0089a

>  <ref_pdb>  (1957) 
Z1688a

>  <HIPPO Compound ID>  (1957) 
146230

>  <name>  (1957) 
P73101

>  <inspiration_score>  (1957) 
None

$$$$
P73103
     RDKit          3D

 18 19  0  0  0  0  0  0  0  0999 V2000
   -1.2075    4.1766  -19.6015 C   0  0  0  0  0  0  0  0  0  0  0  0
   -2.5644    4.6096  -19.0935 C   0  0  0  0  0  0  0  0  0  0  0  0
   -2.5738    5.9291  -18.3074 C   0  0  1  0  0  0  0  0  0  0  0  0
   -1.6812    7.0302  -18.9009 C   0  0  0  0  0  0  0  0  0  0  0  0
   -2.2323    7.5910  -20.6904 Br  0  0  0  0  0  0  0  0  0  0  0  0
   -3.9325    6.4717  -18.2084 N   0  0  0  0  0  0  0  0  0  0  0  0
   -4.9020    5.7843  -17.5098 C   0  0  0  0  0  0  0  0  0  0  0  0
   -5.0492    5.7770  -16.1322 C   0  0  0  0  0  0  0  0  0  0  0  0
   -6.2600    5.3047  -15.5788 C   0  0  0  0  0  0  0  0  0  0  0  0
   -6.4209    5.4115  -14.0930 C   0  0  0  0  0  0  0  0  0  0  0  0
   -7.4397    5.1975  -13.4499 O   0  0  0  0  0  0  0  0  0  0  0  0
   -7.2755    4.8346  -16.4366 C   0  0  0  0  0  0  0  0  0  0  0  0
   -8.5736    4.4183  -16.0714 C   0  0  0  0  0  0  0  0  0  0  0  0
   -9.5045    4.0905  -17.0521 C   0  0  0  0  0  0  0  0  0  0  0  0
   -9.1458    4.0993  -18.3838 C   0  0  0  0  0  0  0  0  0  0  0  0
   -7.8564    4.4151  -18.7456 C   0  0  0  0  0  0  0  0  0  0  0  0
   -6.9505    4.8244  -17.8071 C   0  0  0  0  0  0  0  0  0  0  0  0
   -5.8121    5.2678  -18.3150 N   0  0  0  0  0  0  0  0  0  0  0  0
  1  2  1  0
  3  2  1  6
  3  4  1  0
  4  5  1  0
  3  6  1  0
  6  7  1  0
  7  8  2  0
  8  9  1  0
  9 10  1  0
 10 11  2  0
  9 12  2  0
 12 13  1  0
 13 14  2  0
 14 15  1  0
 15 16  2  0
 16 17  1  0
 17 18  2  0
 18  7  1  0
 17 12  1  0
M  END
>  <energy_score>  (1958) 
-17.583199

>  <alias>  (1958) 
None

>  <HIPPO Pose ID>  (1958) 
73103

>  <smiles>  (1958) 
CC[C@@H](CBr)Nc1cc(C=O)c2ccccc2n1

>  <inchikey>  (1958) 
HNEKZEORFWXFFX-NSHDSACASA-N

>  <distance_score>  (1958) 
1.111519

>  <ref_mols>  (1958) 
Z1688a,Z0089a

>  <ref_pdb>  (1958) 
Z1688a

>  <HIPPO Compound ID>  (1958) 
146231

>  <name>  (1958) 
P73103

>  <inspiration_score>  (1958) 
None

$$$$
P73104
     RDKit          3D

 18 19  0  0  0  0  0  0  0  0999 V2000
   -1.7686    4.3760  -20.7338 C   0  0  0  0  0  0  0  0  0  0  0  0
   -1.8410    4.5646  -19.2317 C   0  0  0  0  0  0  0  0  0  0  0  0
   -2.4970    5.8808  -18.7938 C   0  0  1  0  0  0  0  0  0  0  0  0
   -1.8681    7.0882  -19.4933 C   0  0  0  0  0  0  0  0  0  0  0  0
   -2.3952    8.7634  -18.6317 Br  0  0  0  0  0  0  0  0  0  0  0  0
   -3.9290    5.8558  -19.0652 N   0  0  0  0  0  0  0  0  0  0  0  0
   -4.9264    5.4988  -18.1983 C   0  0  0  0  0  0  0  0  0  0  0  0
   -5.9920    5.0021  -18.8502 N   0  0  0  0  0  0  0  0  0  0  0  0
   -7.0956    4.6783  -18.1578 C   0  0  0  0  0  0  0  0  0  0  0  0
   -8.2258    4.2600  -18.8076 C   0  0  0  0  0  0  0  0  0  0  0  0
   -9.3798    3.9720  -18.0921 C   0  0  0  0  0  0  0  0  0  0  0  0
   -9.4039    4.0193  -16.7153 C   0  0  0  0  0  0  0  0  0  0  0  0
   -8.2940    4.4238  -16.0299 C   0  0  0  0  0  0  0  0  0  0  0  0
   -7.1685    4.7748  -16.7611 C   0  0  0  0  0  0  0  0  0  0  0  0
   -6.0760    5.2620  -16.0939 C   0  0  0  0  0  0  0  0  0  0  0  0
   -4.9595    5.6649  -16.8197 C   0  0  0  0  0  0  0  0  0  0  0  0
   -3.9694    6.2953  -16.0327 C   0  0  0  0  0  0  0  0  0  0  0  0
   -3.2616    6.7809  -15.2551 N   0  0  0  0  0  0  0  0  0  0  0  0
  1  2  1  0
  3  2  1  6
  3  4  1  0
  4  5  1  0
  3  6  1  0
  6  7  1  0
  7  8  2  0
  8  9  1  0
  9 10  2  0
 10 11  1  0
 11 12  2  0
 12 13  1  0
 13 14  2  0
 14 15  1  0
 15 16  2  0
 16 17  1  0
 17 18  3  0
 16  7  1  0
 14  9  1  0
M  END
>  <energy_score>  (1959) 
-15.48714

>  <alias>  (1959) 
None

>  <HIPPO Pose ID>  (1959) 
73104

>  <smiles>  (1959) 
CC[C@@H](CBr)Nc1nc2ccccc2cc1C#N

>  <inchikey>  (1959) 
LNTFWDRVVFOJDR-LBPRGKRZSA-N

>  <distance_score>  (1959) 
1.964458

>  <ref_mols>  (1959) 
Z1688a,Z0089a

>  <ref_pdb>  (1959) 
Z1688a

>  <HIPPO Compound ID>  (1959) 
146232

>  <name>  (1959) 
P73104

>  <inspiration_score>  (1959) 
None

$$$$
P73105
     RDKit          3D

 18 19  0  0  0  0  0  0  0  0999 V2000
   -1.3884    3.7518  -19.6841 C   0  0  0  0  0  0  0  0  0  0  0  0
   -2.3805    4.5604  -18.8763 C   0  0  0  0  0  0  0  0  0  0  0  0
   -2.8162    5.8393  -19.5994 C   0  0  2  0  0  0  0  0  0  0  0  0
   -1.9732    7.0658  -19.2360 C   0  0  0  0  0  0  0  0  0  0  0  0
   -0.3463    7.1868  -20.3076 Br  0  0  0  0  0  0  0  0  0  0  0  0
   -4.2393    6.1683  -19.4442 N   0  0  0  0  0  0  0  0  0  0  0  0
   -5.0831    5.7019  -18.4644 C   0  0  0  0  0  0  0  0  0  0  0  0
   -6.1665    5.1189  -19.0012 N   0  0  0  0  0  0  0  0  0  0  0  0
   -7.1694    4.7334  -18.2034 C   0  0  0  0  0  0  0  0  0  0  0  0
   -8.3493    4.2718  -18.7364 C   0  0  0  0  0  0  0  0  0  0  0  0
   -9.4174    3.9385  -17.9123 C   0  0  0  0  0  0  0  0  0  0  0  0
   -9.2943    3.9987  -16.5395 C   0  0  0  0  0  0  0  0  0  0  0  0
   -8.1245    4.4322  -15.9742 C   0  0  0  0  0  0  0  0  0  0  0  0
   -7.0866    4.8198  -16.8121 C   0  0  0  0  0  0  0  0  0  0  0  0
   -5.9403    5.3524  -16.2662 C   0  0  0  0  0  0  0  0  0  0  0  0
   -4.9400    5.8721  -17.0926 C   0  0  0  0  0  0  0  0  0  0  0  0
   -3.8266    6.6338  -16.4603 C   0  0  0  0  0  0  0  0  0  0  0  0
   -4.1600    6.9918  -15.1185 O   0  0  0  0  0  0  0  0  0  0  0  0
  1  2  1  0
  3  2  1  1
  3  4  1  0
  4  5  1  0
  3  6  1  0
  6  7  1  0
  7  8  2  0
  8  9  1  0
  9 10  2  0
 10 11  1  0
 11 12  2  0
 12 13  1  0
 13 14  2  0
 14 15  1  0
 15 16  2  0
 16 17  1  0
 17 18  1  0
 16  7  1  0
 14  9  1  0
M  END
>  <energy_score>  (1960) 
-22.03397

>  <alias>  (1960) 
None

>  <HIPPO Pose ID>  (1960) 
73105

>  <smiles>  (1960) 
CC[C@H](CBr)Nc1nc2ccccc2cc1CO

>  <inchikey>  (1960) 
BUVBCKWHRHSLGO-GFCCVEGCSA-N

>  <distance_score>  (1960) 
1.920504

>  <ref_mols>  (1960) 
Z1688a,Z0089a

>  <ref_pdb>  (1960) 
Z1688a

>  <HIPPO Compound ID>  (1960) 
146233

>  <name>  (1960) 
P73105

>  <inspiration_score>  (1960) 
None

$$$$
P73107
     RDKit          3D

 18 19  0  0  0  0  0  0  0  0999 V2000
   -2.0158    4.6523  -20.4957 C   0  0  0  0  0  0  0  0  0  0  0  0
   -1.9843    4.5534  -18.9813 C   0  0  0  0  0  0  0  0  0  0  0  0
   -2.4165    5.7926  -18.1752 C   0  0  1  0  0  0  0  0  0  0  0  0
   -1.5278    7.0195  -18.4120 C   0  0  0  0  0  0  0  0  0  0  0  0
   -1.9107    8.0480  -20.0233 Br  0  0  0  0  0  0  0  0  0  0  0  0
   -3.8112    6.1465  -18.3862 N   0  0  0  0  0  0  0  0  0  0  0  0
   -4.8294    5.5959  -17.6462 C   0  0  0  0  0  0  0  0  0  0  0  0
   -5.0426    5.7550  -16.2777 C   0  0  0  0  0  0  0  0  0  0  0  0
   -6.2927    5.3973  -15.7028 C   0  0  0  0  0  0  0  0  0  0  0  0
   -6.6024    5.7773  -14.2744 C   0  0  0  0  0  0  0  0  0  0  0  0
   -6.8947    4.2670  -13.0958 Br  0  0  0  0  0  0  0  0  0  0  0  0
   -7.2762    4.8639  -16.5684 C   0  0  0  0  0  0  0  0  0  0  0  0
   -8.6036    4.5408  -16.2108 C   0  0  0  0  0  0  0  0  0  0  0  0
   -9.5253    4.1758  -17.1870 C   0  0  0  0  0  0  0  0  0  0  0  0
   -9.1320    4.0912  -18.5064 C   0  0  0  0  0  0  0  0  0  0  0  0
   -7.8184    4.3067  -18.8566 C   0  0  0  0  0  0  0  0  0  0  0  0
   -6.9092    4.7149  -17.9237 C   0  0  0  0  0  0  0  0  0  0  0  0
   -5.7328    5.0397  -18.4314 N   0  0  0  0  0  0  0  0  0  0  0  0
  1  2  1  0
  3  2  1  6
  3  4  1  0
  4  5  1  0
  3  6  1  0
  6  7  1  0
  7  8  2  0
  8  9  1  0
  9 10  1  0
 10 11  1  0
  9 12  2  0
 12 13  1  0
 13 14  2  0
 14 15  1  0
 15 16  2  0
 16 17  1  0
 17 18  2  0
 18  7  1  0
 17 12  1  0
M  END
>  <energy_score>  (1961) 
-36.308766

>  <alias>  (1961) 
None

>  <HIPPO Pose ID>  (1961) 
73107

>  <smiles>  (1961) 
CC[C@@H](CBr)Nc1cc(CBr)c2ccccc2n1

>  <inchikey>  (1961) 
QYXWSSXIILSTJW-NSHDSACASA-N

>  <distance_score>  (1961) 
1.024004

>  <ref_mols>  (1961) 
Z1688a,Z0089a

>  <ref_pdb>  (1961) 
Z1688a

>  <HIPPO Compound ID>  (1961) 
146234

>  <name>  (1961) 
P73107

>  <inspiration_score>  (1961) 
None

$$$$
P73109
     RDKit          3D

 18 19  0  0  0  0  0  0  0  0999 V2000
   -1.6127    5.2885  -21.4740 C   0  0  0  0  0  0  0  0  0  0  0  0
   -1.8011    4.6808  -20.0887 C   0  0  0  0  0  0  0  0  0  0  0  0
   -2.4332    5.6098  -19.0332 C   0  0  1  0  0  0  0  0  0  0  0  0
   -1.8161    7.0170  -19.0371 C   0  0  0  0  0  0  0  0  0  0  0  0
   -0.0295    7.0005  -18.2505 Br  0  0  0  0  0  0  0  0  0  0  0  0
   -3.8715    5.7466  -19.2439 N   0  0  0  0  0  0  0  0  0  0  0  0
   -4.8466    5.3926  -18.3393 C   0  0  0  0  0  0  0  0  0  0  0  0
   -5.9586    4.9586  -18.9607 N   0  0  0  0  0  0  0  0  0  0  0  0
   -7.0489    4.6412  -18.2386 C   0  0  0  0  0  0  0  0  0  0  0  0
   -8.2369    4.3086  -18.8440 C   0  0  0  0  0  0  0  0  0  0  0  0
   -9.3803    4.0548  -18.0926 C   0  0  0  0  0  0  0  0  0  0  0  0
   -9.3352    4.0312  -16.7159 C   0  0  0  0  0  0  0  0  0  0  0  0
   -8.1619    4.3225  -16.0758 C   0  0  0  0  0  0  0  0  0  0  0  0
   -7.0478    4.6490  -16.8441 C   0  0  0  0  0  0  0  0  0  0  0  0
   -5.8880    5.0232  -16.2135 C   0  0  0  0  0  0  0  0  0  0  0  0
   -4.7964    5.5051  -16.9499 C   0  0  0  0  0  0  0  0  0  0  0  0
   -3.6909    6.1063  -16.1550 C   0  0  0  0  0  0  0  0  0  0  0  0
   -4.4029    7.4213  -14.8879 Br  0  0  0  0  0  0  0  0  0  0  0  0
  1  2  1  0
  3  2  1  6
  3  4  1  0
  4  5  1  0
  3  6  1  0
  6  7  1  0
  7  8  2  0
  8  9  1  0
  9 10  2  0
 10 11  1  0
 11 12  2  0
 12 13  1  0
 13 14  2  0
 14 15  1  0
 15 16  2  0
 16 17  1  0
 17 18  1  0
 16  7  1  0
 14  9  1  0
M  END
>  <energy_score>  (1962) 
-30.346309

>  <alias>  (1962) 
None

>  <HIPPO Pose ID>  (1962) 
73109

>  <smiles>  (1962) 
CC[C@@H](CBr)Nc1nc2ccccc2cc1CBr

>  <inchikey>  (1962) 
YQQPXGBWENIPPV-LBPRGKRZSA-N

>  <distance_score>  (1962) 
1.938748

>  <ref_mols>  (1962) 
Z1688a,Z0089a

>  <ref_pdb>  (1962) 
Z1688a

>  <HIPPO Compound ID>  (1962) 
146235

>  <name>  (1962) 
P73109

>  <inspiration_score>  (1962) 
None

$$$$
P73111
     RDKit          3D

 18 20  0  0  0  0  0  0  0  0999 V2000
   -1.7252    5.7517  -21.4705 C   0  0  0  0  0  0  0  0  0  0  0  0
   -1.4860    5.3377  -20.0601 C   0  0  2  0  0  0  0  0  0  0  0  0
   -2.5798    5.2680  -19.0234 C   0  0  0  0  0  0  0  0  0  0  0  0
   -3.9671    5.5743  -19.3629 N   0  0  0  0  0  0  0  0  0  0  0  0
   -5.0072    5.3740  -18.4490 C   0  0  0  0  0  0  0  0  0  0  0  0
   -6.1330    4.9056  -19.0161 N   0  0  0  0  0  0  0  0  0  0  0  0
   -7.1986    4.6515  -18.2404 C   0  0  0  0  0  0  0  0  0  0  0  0
   -8.3818    4.2278  -18.7904 C   0  0  0  0  0  0  0  0  0  0  0  0
   -9.4746    3.9472  -17.9798 C   0  0  0  0  0  0  0  0  0  0  0  0
   -9.3827    4.0308  -16.6068 C   0  0  0  0  0  0  0  0  0  0  0  0
   -8.2329    4.4804  -16.0228 C   0  0  0  0  0  0  0  0  0  0  0  0
   -7.1680    4.8069  -16.8467 C   0  0  0  0  0  0  0  0  0  0  0  0
   -6.0284    5.3094  -16.2741 C   0  0  0  0  0  0  0  0  0  0  0  0
   -4.9452    5.6273  -17.0844 C   0  0  0  0  0  0  0  0  0  0  0  0
   -3.8692    6.2344  -16.3979 C   0  0  0  0  0  0  0  0  0  0  0  0
   -3.1243    6.7152  -15.6525 N   0  0  0  0  0  0  0  0  0  0  0  0
   -1.5577    6.3800  -18.9779 C   0  0  1  0  0  0  0  0  0  0  0  0
   -0.4813    6.4224  -17.9488 C   0  0  0  0  0  0  0  0  0  0  0  0
  2  1  1  6
  2  3  1  0
  3  4  1  0
  4  5  1  0
  5  6  2  0
  6  7  1  0
  7  8  2  0
  8  9  1  0
  9 10  2  0
 10 11  1  0
 11 12  2  0
 12 13  1  0
 13 14  2  0
 14 15  1  0
 15 16  3  0
  3 17  1  0
 17 18  1  1
 17  2  1  0
 14  5  1  0
 12  7  1  0
M  END
>  <energy_score>  (1963) 
-16.717553

>  <alias>  (1963) 
None

>  <HIPPO Pose ID>  (1963) 
73111

>  <smiles>  (1963) 
C[C@@H]1C(Nc2nc3ccccc3cc2C#N)[C@H]1C

>  <inchikey>  (1963) 
PZZUOLNGCSDROI-UWVGGRQHSA-N

>  <distance_score>  (1963) 
1.964086

>  <ref_mols>  (1963) 
Z1688a,Z0089a

>  <ref_pdb>  (1963) 
Z1688a

>  <HIPPO Compound ID>  (1963) 
146236

>  <name>  (1963) 
P73111

>  <inspiration_score>  (1963) 
None

$$$$
P73113
     RDKit          3D

 18 20  0  0  0  0  0  0  0  0999 V2000
   -0.6199    6.9401  -18.5091 C   0  0  0  0  0  0  0  0  0  0  0  0
   -1.4407    5.8036  -19.0169 C   0  0  2  0  0  0  0  0  0  0  0  0
   -1.6522    5.5858  -20.4890 C   0  0  2  0  0  0  0  0  0  0  0  0
   -1.1004    6.4985  -21.5289 C   0  0  0  0  0  0  0  0  0  0  0  0
   -2.8063    6.0328  -19.6137 C   0  0  1  0  0  0  0  0  0  0  0  0
   -3.9096    5.0976  -19.4801 N   0  0  0  0  0  0  0  0  0  0  0  0
   -4.9570    5.2156  -18.5637 C   0  0  0  0  0  0  0  0  0  0  0  0
   -6.1172    4.7736  -19.0822 N   0  0  0  0  0  0  0  0  0  0  0  0
   -7.1827    4.6370  -18.2848 C   0  0  0  0  0  0  0  0  0  0  0  0
   -8.3724    4.1660  -18.7828 C   0  0  0  0  0  0  0  0  0  0  0  0
   -9.4427    3.9112  -17.9334 C   0  0  0  0  0  0  0  0  0  0  0  0
   -9.3276    4.1056  -16.5728 C   0  0  0  0  0  0  0  0  0  0  0  0
   -8.1865    4.6555  -16.0556 C   0  0  0  0  0  0  0  0  0  0  0  0
   -7.1338    4.9264  -16.9198 C   0  0  0  0  0  0  0  0  0  0  0  0
   -5.9733    5.4650  -16.4161 C   0  0  0  0  0  0  0  0  0  0  0  0
   -4.8466    5.6116  -17.2311 C   0  0  0  0  0  0  0  0  0  0  0  0
   -3.5907    6.1276  -16.6156 C   0  0  0  0  0  0  0  0  0  0  0  0
   -3.7572    6.3831  -15.2182 O   0  0  0  0  0  0  0  0  0  0  0  0
  2  1  1  6
  2  3  1  0
  3  4  1  6
  3  5  1  0
  5  6  1  1
  6  7  1  0
  7  8  2  0
  8  9  1  0
  9 10  2  0
 10 11  1  0
 11 12  2  0
 12 13  1  0
 13 14  2  0
 14 15  1  0
 15 16  2  0
 16 17  1  0
 17 18  1  0
  5  2  1  0
 16  7  1  0
 14  9  1  0
M  END
>  <energy_score>  (1964) 
-25.498136

>  <alias>  (1964) 
None

>  <HIPPO Pose ID>  (1964) 
73113

>  <smiles>  (1964) 
C[C@@H]1[C@H](C)[C@H]1Nc1nc2ccccc2cc1CO

>  <inchikey>  (1964) 
XYSFQBXADNUPBB-MSRIBSCDSA-N

>  <distance_score>  (1964) 
1.9538

>  <ref_mols>  (1964) 
Z1688a,Z0089a

>  <ref_pdb>  (1964) 
Z1688a

>  <HIPPO Compound ID>  (1964) 
146237

>  <name>  (1964) 
P73113

>  <inspiration_score>  (1964) 
None

$$$$
P73115
     RDKit          3D

 18 20  0  0  0  0  0  0  0  0999 V2000
   -1.7126    4.6812  -20.7999 C   0  0  0  0  0  0  0  0  0  0  0  0
   -1.7695    5.2076  -19.4104 C   0  0  2  0  0  0  0  0  0  0  0  0
   -3.0542    5.7689  -18.8579 C   0  0  0  0  0  0  0  0  0  0  0  0
   -3.4267    5.5842  -17.4425 N   0  0  0  0  0  0  0  0  0  0  0  0
   -4.7810    5.3379  -17.1198 C   0  0  0  0  0  0  0  0  0  0  0  0
   -5.2236    5.4682  -15.7984 C   0  0  0  0  0  0  0  0  0  0  0  0
   -6.5774    5.2502  -15.4647 C   0  0  0  0  0  0  0  0  0  0  0  0
   -7.0695    5.5926  -14.0831 C   0  0  0  0  0  0  0  0  0  0  0  0
   -7.2661    4.0474  -12.9428 Br  0  0  0  0  0  0  0  0  0  0  0  0
   -7.4376    4.8165  -16.4960 C   0  0  0  0  0  0  0  0  0  0  0  0
   -8.8080    4.5188  -16.3365 C   0  0  0  0  0  0  0  0  0  0  0  0
   -9.6074    4.2308  -17.4417 C   0  0  0  0  0  0  0  0  0  0  0  0
   -9.0416    4.1985  -18.7032 C   0  0  0  0  0  0  0  0  0  0  0  0
   -7.6802    4.3937  -18.8575 C   0  0  0  0  0  0  0  0  0  0  0  0
   -6.8820    4.7145  -17.7902 C   0  0  0  0  0  0  0  0  0  0  0  0
   -5.6099    4.9601  -18.0859 N   0  0  0  0  0  0  0  0  0  0  0  0
   -1.9096    6.6934  -19.2199 C   0  0  1  0  0  0  0  0  0  0  0  0
   -1.0697    7.3834  -18.2009 C   0  0  0  0  0  0  0  0  0  0  0  0
  2  1  1  6
  2  3  1  0
  3  4  1  0
  4  5  1  0
  5  6  2  0
  6  7  1  0
  7  8  1  0
  8  9  1  0
  7 10  2  0
 10 11  1  0
 11 12  2  0
 12 13  1  0
 13 14  2  0
 14 15  1  0
 15 16  2  0
  3 17  1  0
 17 18  1  1
 17  2  1  0
 16  5  1  0
 15 10  1  0
M  END
>  <energy_score>  (1965) 
-10.429118

>  <alias>  (1965) 
None

>  <HIPPO Pose ID>  (1965) 
73115

>  <smiles>  (1965) 
C[C@@H]1C(Nc2cc(CBr)c3ccccc3n2)[C@H]1C

>  <inchikey>  (1965) 
RBIZKFVBHRSZHW-UWVGGRQHSA-N

>  <distance_score>  (1965) 
1.026512

>  <ref_mols>  (1965) 
Z1688a,Z0089a

>  <ref_pdb>  (1965) 
Z1688a

>  <HIPPO Compound ID>  (1965) 
146238

>  <name>  (1965) 
P73115

>  <inspiration_score>  (1965) 
None

$$$$
P73124
     RDKit          3D

 18 20  0  0  0  0  0  0  0  0999 V2000
   -4.1266    6.9548  -15.1810 O   0  0  0  0  0  0  0  0  0  0  0  0
   -3.7017    6.3096  -16.3839 C   0  0  0  0  0  0  0  0  0  0  0  0
   -4.8624    5.6588  -17.0584 C   0  0  0  0  0  0  0  0  0  0  0  0
   -5.9606    5.3192  -16.2664 C   0  0  0  0  0  0  0  0  0  0  0  0
   -7.1021    4.8158  -16.8418 C   0  0  0  0  0  0  0  0  0  0  0  0
   -8.1824    4.4981  -16.0285 C   0  0  0  0  0  0  0  0  0  0  0  0
   -9.3317    4.0491  -16.6184 C   0  0  0  0  0  0  0  0  0  0  0  0
   -9.4051    3.9526  -17.9918 C   0  0  0  0  0  0  0  0  0  0  0  0
   -8.2999    4.2274  -18.7898 C   0  0  0  0  0  0  0  0  0  0  0  0
   -7.1195    4.6530  -18.2309 C   0  0  0  0  0  0  0  0  0  0  0  0
   -6.0449    4.8925  -18.9971 N   0  0  0  0  0  0  0  0  0  0  0  0
   -4.9232    5.3549  -18.4184 C   0  0  0  0  0  0  0  0  0  0  0  0
   -3.8710    5.4919  -19.3241 N   0  0  0  0  0  0  0  0  0  0  0  0
   -2.4795    5.3944  -19.0718 C   0  0  1  0  0  0  0  0  0  0  0  0
   -1.6755    4.6390  -20.1449 C   0  0  0  0  0  0  0  0  0  0  0  0
   -0.5992    5.7526  -20.0077 C   0  0  2  0  0  0  0  0  0  0  0  0
    0.7631    5.5216  -18.8445 Cl  0  0  0  0  0  0  0  0  0  0  0  0
   -1.7417    6.6738  -19.5278 C   0  0  0  0  0  0  0  0  0  0  0  0
  1  2  1  0
  2  3  1  0
  3  4  2  0
  4  5  1  0
  5  6  2  0
  6  7  1  0
  7  8  2  0
  8  9  1  0
  9 10  2  0
 10 11  1  0
 11 12  2  0
 12 13  1  0
 14 13  1  6
 14 15  1  0
 15 16  1  0
 16 17  1  1
 16 18  1  0
 12  3  1  0
 18 14  1  0
 10  5  1  0
M  END
>  <energy_score>  (1966) 
-27.416948

>  <alias>  (1966) 
None

>  <HIPPO Pose ID>  (1966) 
73124

>  <smiles>  (1966) 
OCc1cc2ccccc2nc1N[C@H]1C[C@H](Cl)C1

>  <inchikey>  (1966) 
BRRVFWURMNZSJI-HAQNSBGRSA-N

>  <distance_score>  (1966) 
1.906828

>  <ref_mols>  (1966) 
Z1688a,Z0089a

>  <ref_pdb>  (1966) 
Z1688a

>  <HIPPO Compound ID>  (1966) 
146242

>  <name>  (1966) 
P73124

>  <inspiration_score>  (1966) 
None

$$$$
P73128
     RDKit          3D

 18 20  0  0  0  0  0  0  0  0999 V2000
    0.7502    5.5138  -18.8826 Cl  0  0  0  0  0  0  0  0  0  0  0  0
   -0.6114    5.7303  -20.0489 C   0  0  1  0  0  0  0  0  0  0  0  0
   -1.6911    4.6162  -20.1604 C   0  0  0  0  0  0  0  0  0  0  0  0
   -2.4834    5.3909  -19.0929 C   0  0  2  0  0  0  0  0  0  0  0  0
   -3.8790    5.4815  -19.3271 N   0  0  0  0  0  0  0  0  0  0  0  0
   -4.9244    5.3123  -18.4206 C   0  0  0  0  0  0  0  0  0  0  0  0
   -6.0521    4.8744  -19.0049 N   0  0  0  0  0  0  0  0  0  0  0  0
   -7.1258    4.6181  -18.2422 C   0  0  0  0  0  0  0  0  0  0  0  0
   -8.3299    4.2690  -18.8054 C   0  0  0  0  0  0  0  0  0  0  0  0
   -9.4416    4.0147  -18.0097 C   0  0  0  0  0  0  0  0  0  0  0  0
   -9.3457    4.0285  -16.6348 C   0  0  0  0  0  0  0  0  0  0  0  0
   -8.1647    4.3738  -16.0376 C   0  0  0  0  0  0  0  0  0  0  0  0
   -7.0818    4.6916  -16.8475 C   0  0  0  0  0  0  0  0  0  0  0  0
   -5.9153    5.1200  -16.2603 C   0  0  0  0  0  0  0  0  0  0  0  0
   -4.8463    5.5521  -17.0488 C   0  0  0  0  0  0  0  0  0  0  0  0
   -3.6990    6.2289  -16.3808 C   0  0  0  0  0  0  0  0  0  0  0  0
   -4.3197    7.4743  -15.0032 Br  0  0  0  0  0  0  0  0  0  0  0  0
   -1.7521    6.6618  -19.5839 C   0  0  0  0  0  0  0  0  0  0  0  0
  2  1  1  1
  2  3  1  0
  3  4  1  0
  4  5  1  6
  5  6  1  0
  6  7  2  0
  7  8  1  0
  8  9  2  0
  9 10  1  0
 10 11  2  0
 11 12  1  0
 12 13  2  0
 13 14  1  0
 14 15  2  0
 15 16  1  0
 16 17  1  0
  4 18  1  0
 18  2  1  0
 15  6  1  0
 13  8  1  0
M  END
>  <energy_score>  (1967) 
-25.128583

>  <alias>  (1967) 
None

>  <HIPPO Pose ID>  (1967) 
73128

>  <smiles>  (1967) 
Cl[C@H]1C[C@H](Nc2nc3ccccc3cc2CBr)C1

>  <inchikey>  (1967) 
NIDCVEUGGSYNLG-HAQNSBGRSA-N

>  <distance_score>  (1967) 
1.928999

>  <ref_mols>  (1967) 
Z1688a,Z0089a

>  <ref_pdb>  (1967) 
Z1688a

>  <HIPPO Compound ID>  (1967) 
146244

>  <name>  (1967) 
P73128

>  <inspiration_score>  (1967) 
None

$$$$
P73131
     RDKit          3D

 18 20  0  0  0  0  0  0  0  0999 V2000
   -0.8301    8.2982  -20.0560 C   0  0  0  0  0  0  0  0  0  0  0  0
   -1.7233    7.5204  -19.4305 C   0  0  0  0  0  0  0  0  0  0  0  0
   -1.5163    6.1171  -19.0587 C   0  0  2  0  0  0  0  0  0  0  0  0
   -1.6103    5.0754  -20.1407 C   0  0  0  0  0  0  0  0  0  0  0  0
   -2.6611    5.1330  -19.0759 C   0  0  2  0  0  0  0  0  0  0  0  0
   -4.0261    5.5422  -19.4098 N   0  0  0  0  0  0  0  0  0  0  0  0
   -5.0602    5.3624  -18.4849 C   0  0  0  0  0  0  0  0  0  0  0  0
   -6.1982    4.9080  -19.0353 N   0  0  0  0  0  0  0  0  0  0  0  0
   -7.2476    4.6563  -18.2404 C   0  0  0  0  0  0  0  0  0  0  0  0
   -8.4422    4.2417  -18.7726 C   0  0  0  0  0  0  0  0  0  0  0  0
   -9.5196    3.9573  -17.9443 C   0  0  0  0  0  0  0  0  0  0  0  0
   -9.3960    4.0278  -16.5728 C   0  0  0  0  0  0  0  0  0  0  0  0
   -8.2356    4.4724  -16.0058 C   0  0  0  0  0  0  0  0  0  0  0  0
   -7.1869    4.8039  -16.8462 C   0  0  0  0  0  0  0  0  0  0  0  0
   -6.0350    5.2998  -16.2908 C   0  0  0  0  0  0  0  0  0  0  0  0
   -4.9672    5.6130  -17.1205 C   0  0  0  0  0  0  0  0  0  0  0  0
   -3.8645    6.2067  -16.4632 C   0  0  0  0  0  0  0  0  0  0  0  0
   -3.0787    6.6812  -15.7571 N   0  0  0  0  0  0  0  0  0  0  0  0
  1  2  2  0
  3  2  1  6
  3  4  1  0
  4  5  1  0
  5  6  1  6
  6  7  1  0
  7  8  2  0
  8  9  1  0
  9 10  2  0
 10 11  1  0
 11 12  2  0
 12 13  1  0
 13 14  2  0
 14 15  1  0
 15 16  2  0
 16 17  1  0
 17 18  3  0
  5  3  1  0
 16  7  1  0
 14  9  1  0
M  END
>  <energy_score>  (1968) 
-12.326946

>  <alias>  (1968) 
None

>  <HIPPO Pose ID>  (1968) 
73131

>  <smiles>  (1968) 
C=C[C@@H]1C[C@@H]1Nc1nc2ccccc2cc1C#N

>  <inchikey>  (1968) 
JDRIPXLVSWHKEJ-YGRLFVJLSA-N

>  <distance_score>  (1968) 
1.963187

>  <ref_mols>  (1968) 
Z1688a,Z0089a

>  <ref_pdb>  (1968) 
Z1688a

>  <HIPPO Compound ID>  (1968) 
146247

>  <name>  (1968) 
P73131

>  <inspiration_score>  (1968) 
None

$$$$
P73135
     RDKit          3D

 18 19  0  0  0  0  0  0  0  0999 V2000
   -1.6227    4.5927  -20.7204 C   0  0  0  0  0  0  0  0  0  0  0  0
   -1.9100    4.6108  -19.2284 C   0  0  0  0  0  0  0  0  0  0  0  0
   -3.0864    5.5370  -18.8909 C   0  0  2  0  0  0  0  0  0  0  0  0
   -2.8593    7.0154  -19.2628 C   0  0  0  0  0  0  0  0  0  0  0  0
   -1.3468    8.0002  -18.0829 I   0  0  0  0  0  0  0  0  0  0  0  0
   -3.4094    5.3989  -17.4600 N   0  0  0  0  0  0  0  0  0  0  0  0
   -4.7612    5.2960  -17.1256 C   0  0  0  0  0  0  0  0  0  0  0  0
   -5.1849    5.4291  -15.8011 C   0  0  0  0  0  0  0  0  0  0  0  0
   -6.5428    5.2528  -15.4521 C   0  0  0  0  0  0  0  0  0  0  0  0
   -7.0081    5.5950  -14.0618 C   0  0  0  0  0  0  0  0  0  0  0  0
   -7.2569    4.0473  -12.9347 Br  0  0  0  0  0  0  0  0  0  0  0  0
   -7.4279    4.8420  -16.4721 C   0  0  0  0  0  0  0  0  0  0  0  0
   -8.7976    4.5470  -16.2970 C   0  0  0  0  0  0  0  0  0  0  0  0
   -9.6100    4.2561  -17.3930 C   0  0  0  0  0  0  0  0  0  0  0  0
   -9.0621    4.2280  -18.6621 C   0  0  0  0  0  0  0  0  0  0  0  0
   -7.7047    4.4317  -18.8321 C   0  0  0  0  0  0  0  0  0  0  0  0
   -6.8940    4.7497  -17.7731 C   0  0  0  0  0  0  0  0  0  0  0  0
   -5.6247    4.9869  -18.0835 N   0  0  0  0  0  0  0  0  0  0  0  0
  1  2  1  0
  3  2  1  1
  3  4  1  0
  4  5  1  0
  3  6  1  0
  6  7  1  0
  7  8  2  0
  8  9  1  0
  9 10  1  0
 10 11  1  0
  9 12  2  0
 12 13  1  0
 13 14  2  0
 14 15  1  0
 15 16  2  0
 16 17  1  0
 17 18  2  0
 18  7  1  0
 17 12  1  0
M  END
>  <energy_score>  (1969) 
-36.460782

>  <alias>  (1969) 
None

>  <HIPPO Pose ID>  (1969) 
73135

>  <smiles>  (1969) 
CC[C@H](CI)Nc1cc(CBr)c2ccccc2n1

>  <inchikey>  (1969) 
YMULNKKWDYMLAV-LLVKDONJSA-N

>  <distance_score>  (1969) 
1.003906

>  <ref_mols>  (1969) 
Z1688a,Z0089a

>  <ref_pdb>  (1969) 
Z1688a

>  <HIPPO Compound ID>  (1969) 
146253

>  <name>  (1969) 
P73135

>  <inspiration_score>  (1969) 
None

$$$$
P73140
     RDKit          3D

 18 20  0  0  0  0  0  0  0  0999 V2000
   -0.4685    8.0893  -19.9469 C   0  0  0  0  0  0  0  0  0  0  0  0
   -1.5145    7.3372  -19.5806 C   0  0  0  0  0  0  0  0  0  0  0  0
   -1.4528    5.9170  -19.2191 C   0  0  2  0  0  0  0  0  0  0  0  0
   -1.6977    4.9095  -20.3087 C   0  0  0  0  0  0  0  0  0  0  0  0
   -2.6934    5.0566  -19.2009 C   0  0  2  0  0  0  0  0  0  0  0  0
   -4.0257    5.6031  -19.4768 N   0  0  0  0  0  0  0  0  0  0  0  0
   -5.0442    5.4133  -18.5305 C   0  0  0  0  0  0  0  0  0  0  0  0
   -6.1833    4.9411  -19.0617 N   0  0  0  0  0  0  0  0  0  0  0  0
   -7.2116    4.6776  -18.2466 C   0  0  0  0  0  0  0  0  0  0  0  0
   -8.4147    4.2526  -18.7567 C   0  0  0  0  0  0  0  0  0  0  0  0
   -9.4797    3.9616  -17.9129 C   0  0  0  0  0  0  0  0  0  0  0  0
   -9.3349    4.0400  -16.5433 C   0  0  0  0  0  0  0  0  0  0  0  0
   -8.1604    4.4850  -16.0003 C   0  0  0  0  0  0  0  0  0  0  0  0
   -7.1222    4.8207  -16.8570 C   0  0  0  0  0  0  0  0  0  0  0  0
   -5.9555    5.3219  -16.3274 C   0  0  0  0  0  0  0  0  0  0  0  0
   -4.9037    5.6802  -17.1684 C   0  0  0  0  0  0  0  0  0  0  0  0
   -3.6931    6.3189  -16.5747 C   0  0  0  0  0  0  0  0  0  0  0  0
   -3.9876    6.8197  -15.2687 O   0  0  0  0  0  0  0  0  0  0  0  0
  1  2  2  0
  3  2  1  6
  3  4  1  0
  4  5  1  0
  5  6  1  6
  6  7  1  0
  7  8  2  0
  8  9  1  0
  9 10  2  0
 10 11  1  0
 11 12  2  0
 12 13  1  0
 13 14  2  0
 14 15  1  0
 15 16  2  0
 16 17  1  0
 17 18  1  0
  5  3  1  0
 16  7  1  0
 14  9  1  0
M  END
>  <energy_score>  (1970) 
-22.387252

>  <alias>  (1970) 
None

>  <HIPPO Pose ID>  (1970) 
73140

>  <smiles>  (1970) 
C=C[C@@H]1C[C@@H]1Nc1nc2ccccc2cc1CO

>  <inchikey>  (1970) 
YTMNUOIGALIESE-YGRLFVJLSA-N

>  <distance_score>  (1970) 
1.921375

>  <ref_mols>  (1970) 
Z1688a,Z0089a

>  <ref_pdb>  (1970) 
Z1688a

>  <HIPPO Compound ID>  (1970) 
146256

>  <name>  (1970) 
P73140

>  <inspiration_score>  (1970) 
None

$$$$
P73146
     RDKit          3D

 18 20  0  0  0  0  0  0  0  0999 V2000
    0.9447    5.6757  -18.5876 C   0  0  0  0  0  0  0  0  0  0  0  0
   -0.3502    5.8825  -18.3154 C   0  0  0  0  0  0  0  0  0  0  0  0
   -1.4327    5.9318  -19.3019 C   0  0  1  0  0  0  0  0  0  0  0  0
   -1.7158    4.7137  -20.1374 C   0  0  0  0  0  0  0  0  0  0  0  0
   -2.6861    5.1206  -19.0700 C   0  0  2  0  0  0  0  0  0  0  0  0
   -3.9934    5.6822  -19.4456 N   0  0  0  0  0  0  0  0  0  0  0  0
   -5.0566    5.5614  -18.5395 C   0  0  0  0  0  0  0  0  0  0  0  0
   -6.1351    4.9625  -19.0660 N   0  0  0  0  0  0  0  0  0  0  0  0
   -7.1877    4.7225  -18.2764 C   0  0  0  0  0  0  0  0  0  0  0  0
   -8.3066    4.1154  -18.7842 C   0  0  0  0  0  0  0  0  0  0  0  0
   -9.3713    3.7925  -17.9520 C   0  0  0  0  0  0  0  0  0  0  0  0
   -9.3266    4.0591  -16.5990 C   0  0  0  0  0  0  0  0  0  0  0  0
   -8.2522    4.7214  -16.0711 C   0  0  0  0  0  0  0  0  0  0  0  0
   -7.2060    5.0610  -16.9189 C   0  0  0  0  0  0  0  0  0  0  0  0
   -6.1315    5.7531  -16.4142 C   0  0  0  0  0  0  0  0  0  0  0  0
   -5.0204    6.0113  -17.2215 C   0  0  0  0  0  0  0  0  0  0  0  0
   -3.9048    6.7903  -16.6234 C   0  0  0  0  0  0  0  0  0  0  0  0
   -3.2601    5.8602  -15.0376 Br  0  0  0  0  0  0  0  0  0  0  0  0
  1  2  2  0
  3  2  1  1
  3  4  1  0
  4  5  1  0
  5  6  1  6
  6  7  1  0
  7  8  2  0
  8  9  1  0
  9 10  2  0
 10 11  1  0
 11 12  2  0
 12 13  1  0
 13 14  2  0
 14 15  1  0
 15 16  2  0
 16 17  1  0
 17 18  1  0
  5  3  1  0
 16  7  1  0
 14  9  1  0
M  END
>  <energy_score>  (1971) 
-61.869374

>  <alias>  (1971) 
None

>  <HIPPO Pose ID>  (1971) 
73146

>  <smiles>  (1971) 
C=C[C@H]1C[C@@H]1Nc1nc2ccccc2cc1CBr

>  <inchikey>  (1971) 
MDRYGWVIISWHDD-HZMBPMFUSA-N

>  <distance_score>  (1971) 
1.938408

>  <ref_mols>  (1971) 
Z1688a,Z0089a

>  <ref_pdb>  (1971) 
Z1688a

>  <HIPPO Compound ID>  (1971) 
146258

>  <name>  (1971) 
P73146

>  <inspiration_score>  (1971) 
None

$$$$
P73150
     RDKit          3D

 18 20  0  0  0  0  0  0  0  0999 V2000
    0.5831    5.8844  -18.4740 C   0  0  0  0  0  0  0  0  0  0  0  0
   -0.6594    6.3845  -18.4559 C   0  0  0  0  0  0  0  0  0  0  0  0
   -1.7140    6.0885  -19.4313 C   0  0  1  0  0  0  0  0  0  0  0  0
   -2.1810    4.6660  -19.5890 C   0  0  0  0  0  0  0  0  0  0  0  0
   -3.0944    5.6834  -18.9706 C   0  0  1  0  0  0  0  0  0  0  0  0
   -3.4401    5.6371  -17.5399 N   0  0  0  0  0  0  0  0  0  0  0  0
   -4.7508    5.2914  -17.1575 C   0  0  0  0  0  0  0  0  0  0  0  0
   -5.1260    5.3403  -15.8175 C   0  0  0  0  0  0  0  0  0  0  0  0
   -6.4571    5.0662  -15.4495 C   0  0  0  0  0  0  0  0  0  0  0  0
   -6.7799    5.1607  -13.9917 C   0  0  0  0  0  0  0  0  0  0  0  0
   -7.8979    5.1896  -13.4965 O   0  0  0  0  0  0  0  0  0  0  0  0
   -7.3960    4.7442  -16.4483 C   0  0  0  0  0  0  0  0  0  0  0  0
   -8.7642    4.4390  -16.2595 C   0  0  0  0  0  0  0  0  0  0  0  0
   -9.6019    4.2157  -17.3524 C   0  0  0  0  0  0  0  0  0  0  0  0
   -9.0827    4.2493  -18.6328 C   0  0  0  0  0  0  0  0  0  0  0  0
   -7.7292    4.4623  -18.8196 C   0  0  0  0  0  0  0  0  0  0  0  0
   -6.8965    4.7358  -17.7657 C   0  0  0  0  0  0  0  0  0  0  0  0
   -5.6378    5.0040  -18.1021 N   0  0  0  0  0  0  0  0  0  0  0  0
  1  2  2  0
  3  2  1  1
  3  4  1  0
  4  5  1  0
  5  6  1  1
  6  7  1  0
  7  8  2  0
  8  9  1  0
  9 10  1  0
 10 11  2  0
  9 12  2  0
 12 13  1  0
 13 14  2  0
 14 15  1  0
 15 16  2  0
 16 17  1  0
 17 18  2  0
  5  3  1  0
 18  7  1  0
 17 12  1  0
M  END
>  <energy_score>  (1972) 
-27.220884

>  <alias>  (1972) 
None

>  <HIPPO Pose ID>  (1972) 
73150

>  <smiles>  (1972) 
C=C[C@H]1C[C@H]1Nc1cc(C=O)c2ccccc2n1

>  <inchikey>  (1972) 
JZNZOIMDPWDMPA-IINYFYTJSA-N

>  <distance_score>  (1972) 
1.087412

>  <ref_mols>  (1972) 
Z1688a,Z0089a

>  <ref_pdb>  (1972) 
Z1688a

>  <HIPPO Compound ID>  (1972) 
146259

>  <name>  (1972) 
P73150

>  <inspiration_score>  (1972) 
None

$$$$
P73152
     RDKit          3D

 18 20  0  0  0  0  0  0  0  0999 V2000
   -1.2019    7.6500  -19.1434 C   0  0  0  0  0  0  0  0  0  0  0  0
   -1.6136    6.4717  -19.6225 C   0  0  0  0  0  0  0  0  0  0  0  0
   -1.3277    5.7609  -20.9280 C   0  0  0  0  0  0  0  0  0  0  0  0
   -1.9014    4.5201  -20.2221 C   0  0  0  0  0  0  0  0  0  0  0  0
   -2.5056    5.3696  -19.0885 C   0  0  2  0  0  0  0  0  0  0  0  0
   -3.8804    5.6955  -19.2806 N   0  0  0  0  0  0  0  0  0  0  0  0
   -4.9173    5.4172  -18.3853 C   0  0  0  0  0  0  0  0  0  0  0  0
   -6.0377    4.9731  -18.9787 N   0  0  0  0  0  0  0  0  0  0  0  0
   -7.1037    4.6741  -18.2185 C   0  0  0  0  0  0  0  0  0  0  0  0
   -8.2910    4.2847  -18.7902 C   0  0  0  0  0  0  0  0  0  0  0  0
   -9.4027    4.0008  -18.0039 C   0  0  0  0  0  0  0  0  0  0  0  0
   -9.3252    4.0334  -16.6278 C   0  0  0  0  0  0  0  0  0  0  0  0
   -8.1590    4.4128  -16.0209 C   0  0  0  0  0  0  0  0  0  0  0  0
   -7.0745    4.7512  -16.8213 C   0  0  0  0  0  0  0  0  0  0  0  0
   -5.9203    5.1984  -16.2242 C   0  0  0  0  0  0  0  0  0  0  0  0
   -4.8416    5.6126  -17.0078 C   0  0  0  0  0  0  0  0  0  0  0  0
   -3.6905    6.2530  -16.3076 C   0  0  0  0  0  0  0  0  0  0  0  0
   -4.1502    6.9524  -15.1479 O   0  0  0  0  0  0  0  0  0  0  0  0
  1  2  2  0
  2  3  1  0
  3  4  1  0
  4  5  1  0
  5  6  1  6
  6  7  1  0
  7  8  2  0
  8  9  1  0
  9 10  2  0
 10 11  1  0
 11 12  2  0
 12 13  1  0
 13 14  2  0
 14 15  1  0
 15 16  2  0
 16 17  1  0
 17 18  1  0
  5  2  1  0
 16  7  1  0
 14  9  1  0
M  END
>  <energy_score>  (1973) 
-24.796143

>  <alias>  (1973) 
None

>  <HIPPO Pose ID>  (1973) 
73152

>  <smiles>  (1973) 
C=C1CC[C@@H]1Nc1nc2ccccc2cc1CO

>  <inchikey>  (1973) 
IFMUEBLWRMBARK-ZDUSSCGKSA-N

>  <distance_score>  (1973) 
1.9177

>  <ref_mols>  (1973) 
Z1688a,Z0089a

>  <ref_pdb>  (1973) 
Z1688a

>  <HIPPO Compound ID>  (1973) 
146261

>  <name>  (1973) 
P73152

>  <inspiration_score>  (1973) 
None

$$$$
P73156
     RDKit          3D

 18 20  0  0  0  0  0  0  0  0999 V2000
   -1.5561    7.7825  -19.4581 C   0  0  0  0  0  0  0  0  0  0  0  0
   -1.5666    6.4457  -19.4789 C   0  0  0  0  0  0  0  0  0  0  0  0
   -0.5943    5.4246  -20.0326 C   0  0  0  0  0  0  0  0  0  0  0  0
   -1.8310    4.4982  -20.0560 C   0  0  0  0  0  0  0  0  0  0  0  0
   -2.5294    5.3755  -18.9911 C   0  0  2  0  0  0  0  0  0  0  0  0
   -3.8750    5.7179  -19.3079 N   0  0  0  0  0  0  0  0  0  0  0  0
   -4.9584    5.5729  -18.4381 C   0  0  0  0  0  0  0  0  0  0  0  0
   -6.0147    4.9757  -19.0107 N   0  0  0  0  0  0  0  0  0  0  0  0
   -7.1023    4.7273  -18.2680 C   0  0  0  0  0  0  0  0  0  0  0  0
   -8.1906    4.1033  -18.8190 C   0  0  0  0  0  0  0  0  0  0  0  0
   -9.2878    3.7725  -18.0314 C   0  0  0  0  0  0  0  0  0  0  0  0
   -9.3194    4.0601  -16.6825 C   0  0  0  0  0  0  0  0  0  0  0  0
   -8.2736    4.7331  -16.1128 C   0  0  0  0  0  0  0  0  0  0  0  0
   -7.1875    5.0684  -16.9143 C   0  0  0  0  0  0  0  0  0  0  0  0
   -6.1352    5.7572  -16.3630 C   0  0  0  0  0  0  0  0  0  0  0  0
   -4.9829    6.0118  -17.1155 C   0  0  0  0  0  0  0  0  0  0  0  0
   -3.9051    6.7870  -16.4454 C   0  0  0  0  0  0  0  0  0  0  0  0
   -3.3493    5.8426  -14.8326 Br  0  0  0  0  0  0  0  0  0  0  0  0
  1  2  2  0
  2  3  1  0
  3  4  1  0
  4  5  1  0
  5  6  1  6
  6  7  1  0
  7  8  2  0
  8  9  1  0
  9 10  2  0
 10 11  1  0
 11 12  2  0
 12 13  1  0
 13 14  2  0
 14 15  1  0
 15 16  2  0
 16 17  1  0
 17 18  1  0
  5  2  1  0
 16  7  1  0
 14  9  1  0
M  END
>  <energy_score>  (1974) 
-33.806011

>  <alias>  (1974) 
None

>  <HIPPO Pose ID>  (1974) 
73156

>  <smiles>  (1974) 
C=C1CC[C@@H]1Nc1nc2ccccc2cc1CBr

>  <inchikey>  (1974) 
RXIKQUZKJMHMFN-ZDUSSCGKSA-N

>  <distance_score>  (1974) 
1.931554

>  <ref_mols>  (1974) 
Z1688a,Z0089a

>  <ref_pdb>  (1974) 
Z1688a

>  <HIPPO Compound ID>  (1974) 
146263

>  <name>  (1974) 
P73156

>  <inspiration_score>  (1974) 
None

$$$$
P73159
     RDKit          3D

 18 20  0  0  0  0  0  0  0  0999 V2000
    0.4678    6.3326  -20.2138 C   0  0  0  0  0  0  0  0  0  0  0  0
   -0.8046    6.0635  -19.9148 C   0  0  0  0  0  0  0  0  0  0  0  0
   -1.7372    4.9180  -20.2579 C   0  0  0  0  0  0  0  0  0  0  0  0
   -2.5556    5.4198  -19.0428 C   0  0  0  0  0  0  0  0  0  0  0  0
   -3.9573    5.5163  -19.3052 N   0  0  0  0  0  0  0  0  0  0  0  0
   -5.0053    5.3474  -18.4054 C   0  0  0  0  0  0  0  0  0  0  0  0
   -6.1298    4.8987  -18.9863 N   0  0  0  0  0  0  0  0  0  0  0  0
   -7.2035    4.6499  -18.2213 C   0  0  0  0  0  0  0  0  0  0  0  0
   -8.3835    4.2374  -18.7853 C   0  0  0  0  0  0  0  0  0  0  0  0
   -9.4839    3.9581  -17.9859 C   0  0  0  0  0  0  0  0  0  0  0  0
   -9.4018    4.0297  -16.6118 C   0  0  0  0  0  0  0  0  0  0  0  0
   -8.2562    4.4703  -16.0136 C   0  0  0  0  0  0  0  0  0  0  0  0
   -7.1833    4.7970  -16.8259 C   0  0  0  0  0  0  0  0  0  0  0  0
   -6.0459    5.2881  -16.2395 C   0  0  0  0  0  0  0  0  0  0  0  0
   -4.9535    5.5961  -17.0392 C   0  0  0  0  0  0  0  0  0  0  0  0
   -3.8747    6.1924  -16.3476 C   0  0  0  0  0  0  0  0  0  0  0  0
   -3.1021    6.6756  -15.6333 N   0  0  0  0  0  0  0  0  0  0  0  0
   -1.8542    6.8013  -19.1116 C   0  0  0  0  0  0  0  0  0  0  0  0
  1  2  2  0
  2  3  1  0
  3  4  1  0
  4  5  1  0
  5  6  1  0
  6  7  2  0
  7  8  1  0
  8  9  2  0
  9 10  1  0
 10 11  2  0
 11 12  1  0
 12 13  2  0
 13 14  1  0
 14 15  2  0
 15 16  1  0
 16 17  3  0
  4 18  1  0
 18  2  1  0
 15  6  1  0
 13  8  1  0
M  END
>  <energy_score>  (1975) 
-16.486022

>  <alias>  (1975) 
None

>  <HIPPO Pose ID>  (1975) 
73159

>  <smiles>  (1975) 
C=C1CC(Nc2nc3ccccc3cc2C#N)C1

>  <inchikey>  (1975) 
ZIZCPMBNDVCNJL-UHFFFAOYSA-N

>  <distance_score>  (1975) 
1.954302

>  <ref_mols>  (1975) 
Z1688a,Z0089a

>  <ref_pdb>  (1975) 
Z1688a

>  <HIPPO Compound ID>  (1975) 
146265

>  <name>  (1975) 
P73159

>  <inspiration_score>  (1975) 
None

$$$$
P73160
     RDKit          3D

 18 20  0  0  0  0  0  0  0  0999 V2000
   -1.9963    4.5350  -19.1381 C   0  0  0  0  0  0  0  0  0  0  0  0
   -2.9816    5.6686  -18.8503 C   0  0  2  0  0  0  0  0  0  0  0  0
   -2.2998    7.0222  -18.9990 C   0  0  0  0  0  0  0  0  0  0  0  0
   -2.0682    7.3472  -17.5619 C   0  0  0  0  0  0  0  0  0  0  0  0
   -2.6928    6.6107  -16.7026 N   0  0  0  0  0  0  0  0  0  0  0  0
   -3.3549    5.6442  -17.4272 N   0  0  0  0  0  0  0  0  0  0  0  0
   -4.6824    5.3430  -17.0751 C   0  0  0  0  0  0  0  0  0  0  0  0
   -5.1080    5.4084  -15.7482 C   0  0  0  0  0  0  0  0  0  0  0  0
   -6.4416    5.1178  -15.4082 C   0  0  0  0  0  0  0  0  0  0  0  0
   -6.7912    5.2192  -13.9576 C   0  0  0  0  0  0  0  0  0  0  0  0
   -7.9172    5.2116  -13.4793 O   0  0  0  0  0  0  0  0  0  0  0  0
   -7.3514    4.7708  -16.4240 C   0  0  0  0  0  0  0  0  0  0  0  0
   -8.7230    4.4623  -16.2594 C   0  0  0  0  0  0  0  0  0  0  0  0
   -9.5376    4.2132  -17.3638 C   0  0  0  0  0  0  0  0  0  0  0  0
   -8.9910    4.2267  -18.6336 C   0  0  0  0  0  0  0  0  0  0  0  0
   -7.6332    4.4512  -18.7960 C   0  0  0  0  0  0  0  0  0  0  0  0
   -6.8178    4.7389  -17.7280 C   0  0  0  0  0  0  0  0  0  0  0  0
   -5.5444    4.9969  -18.0333 N   0  0  0  0  0  0  0  0  0  0  0  0
  2  1  1  1
  2  3  1  0
  3  4  1  0
  4  5  2  0
  5  6  1  0
  6  7  1  0
  7  8  2  0
  8  9  1  0
  9 10  1  0
 10 11  2  0
  9 12  2  0
 12 13  1  0
 13 14  2  0
 14 15  1  0
 15 16  2  0
 16 17  1  0
 17 18  2  0
  6  2  1  0
 18  7  1  0
 17 12  1  0
M  END
>  <energy_score>  (1976) 
-22.770002

>  <alias>  (1976) 
None

>  <HIPPO Pose ID>  (1976) 
73160

>  <smiles>  (1976) 
C[C@@H]1CC=NN1c1cc(C=O)c2ccccc2n1

>  <inchikey>  (1976) 
IMKFMUQEDGKAQY-SNVBAGLBSA-N

>  <distance_score>  (1976) 
1.071497

>  <ref_mols>  (1976) 
Z1688a,Z0089a

>  <ref_pdb>  (1976) 
Z1688a

>  <HIPPO Compound ID>  (1976) 
146267

>  <name>  (1976) 
P73160

>  <inspiration_score>  (1976) 
None

$$$$
P73163
     RDKit          3D

 18 20  0  0  0  0  0  0  0  0999 V2000
    0.3595    6.3392  -20.7037 C   0  0  0  0  0  0  0  0  0  0  0  0
   -0.8690    6.0671  -20.2590 C   0  0  0  0  0  0  0  0  0  0  0  0
   -1.8059    4.8870  -20.4293 C   0  0  0  0  0  0  0  0  0  0  0  0
   -2.5392    5.4736  -19.1993 C   0  0  0  0  0  0  0  0  0  0  0  0
   -3.9544    5.5701  -19.3660 N   0  0  0  0  0  0  0  0  0  0  0  0
   -4.9647    5.3371  -18.4378 C   0  0  0  0  0  0  0  0  0  0  0  0
   -6.1034    4.9149  -19.0133 N   0  0  0  0  0  0  0  0  0  0  0  0
   -7.1623    4.6326  -18.2408 C   0  0  0  0  0  0  0  0  0  0  0  0
   -8.3770    4.3016  -18.7933 C   0  0  0  0  0  0  0  0  0  0  0  0
   -9.4787    4.0370  -17.9879 C   0  0  0  0  0  0  0  0  0  0  0  0
   -9.3588    4.0186  -16.6150 C   0  0  0  0  0  0  0  0  0  0  0  0
   -8.1651    4.3365  -16.0279 C   0  0  0  0  0  0  0  0  0  0  0  0
   -7.0927    4.6654  -16.8463 C   0  0  0  0  0  0  0  0  0  0  0  0
   -5.9109    5.0619  -16.2671 C   0  0  0  0  0  0  0  0  0  0  0  0
   -4.8534    5.5144  -17.0597 C   0  0  0  0  0  0  0  0  0  0  0  0
   -3.6846    6.1458  -16.3875 C   0  0  0  0  0  0  0  0  0  0  0  0
   -4.2599    7.3446  -14.9490 Br  0  0  0  0  0  0  0  0  0  0  0  0
   -1.8475    6.8469  -19.4127 C   0  0  0  0  0  0  0  0  0  0  0  0
  1  2  2  0
  2  3  1  0
  3  4  1  0
  4  5  1  0
  5  6  1  0
  6  7  2  0
  7  8  1  0
  8  9  2  0
  9 10  1  0
 10 11  2  0
 11 12  1  0
 12 13  2  0
 13 14  1  0
 14 15  2  0
 15 16  1  0
 16 17  1  0
  4 18  1  0
 18  2  1  0
 15  6  1  0
 13  8  1  0
M  END
>  <energy_score>  (1977) 
-18.039669

>  <alias>  (1977) 
None

>  <HIPPO Pose ID>  (1977) 
73163

>  <smiles>  (1977) 
C=C1CC(Nc2nc3ccccc3cc2CBr)C1

>  <inchikey>  (1977) 
PWQSWZYHFOBYQQ-UHFFFAOYSA-N

>  <distance_score>  (1977) 
1.935539

>  <ref_mols>  (1977) 
Z1688a,Z0089a

>  <ref_pdb>  (1977) 
Z1688a

>  <HIPPO Compound ID>  (1977) 
146269

>  <name>  (1977) 
P73163

>  <inspiration_score>  (1977) 
None

$$$$
P73165
     RDKit          3D

 18 19  0  0  0  0  0  0  0  0999 V2000
   -1.7749    4.4437  -19.8048 C   0  0  0  0  0  0  0  0  0  0  0  0
   -2.4876    5.5143  -18.9832 C   0  0  1  0  0  0  0  0  0  0  0  0
   -1.9310    6.9209  -19.2499 C   0  0  0  0  0  0  0  0  0  0  0  0
   -2.0640    7.3701  -20.6978 C   0  0  0  0  0  0  0  0  0  0  0  0
   -1.3367    9.1718  -20.8923 Br  0  0  0  0  0  0  0  0  0  0  0  0
   -3.9104    5.5158  -19.2636 N   0  0  0  0  0  0  0  0  0  0  0  0
   -4.9258    5.3348  -18.3627 C   0  0  0  0  0  0  0  0  0  0  0  0
   -6.0379    4.8664  -18.9545 N   0  0  0  0  0  0  0  0  0  0  0  0
   -7.1321    4.6282  -18.2131 C   0  0  0  0  0  0  0  0  0  0  0  0
   -8.2976    4.2072  -18.7998 C   0  0  0  0  0  0  0  0  0  0  0  0
   -9.4191    3.9408  -18.0243 C   0  0  0  0  0  0  0  0  0  0  0  0
   -9.3781    4.0377  -16.6500 C   0  0  0  0  0  0  0  0  0  0  0  0
   -8.2463    4.4868  -16.0313 C   0  0  0  0  0  0  0  0  0  0  0  0
   -7.1506    4.7990  -16.8220 C   0  0  0  0  0  0  0  0  0  0  0  0
   -6.0288    5.3063  -16.2209 C   0  0  0  0  0  0  0  0  0  0  0  0
   -4.9195    5.6143  -17.0016 C   0  0  0  0  0  0  0  0  0  0  0  0
   -3.8813    6.2569  -16.2895 C   0  0  0  0  0  0  0  0  0  0  0  0
   -3.1353    6.7772  -15.5725 N   0  0  0  0  0  0  0  0  0  0  0  0
  2  1  1  6
  2  3  1  0
  3  4  1  0
  4  5  1  0
  2  6  1  0
  6  7  1  0
  7  8  2  0
  8  9  1  0
  9 10  2  0
 10 11  1  0
 11 12  2  0
 12 13  1  0
 13 14  2  0
 14 15  1  0
 15 16  2  0
 16 17  1  0
 17 18  3  0
 16  7  1  0
 14  9  1  0
M  END
>  <energy_score>  (1978) 
-24.219088

>  <alias>  (1978) 
None

>  <HIPPO Pose ID>  (1978) 
73165

>  <smiles>  (1978) 
C[C@@H](CCBr)Nc1nc2ccccc2cc1C#N

>  <inchikey>  (1978) 
KFAFSTIYZFECPE-JTQLQIEISA-N

>  <distance_score>  (1978) 
1.94281

>  <ref_mols>  (1978) 
Z1688a,Z0089a

>  <ref_pdb>  (1978) 
Z1688a

>  <HIPPO Compound ID>  (1978) 
146271

>  <name>  (1978) 
P73165

>  <inspiration_score>  (1978) 
None

$$$$
P73166
     RDKit          3D

 18 19  0  0  0  0  0  0  0  0999 V2000
   -1.9272    4.4275  -19.1125 C   0  0  0  0  0  0  0  0  0  0  0  0
   -2.6252    5.6294  -19.7296 C   0  0  2  0  0  0  0  0  0  0  0  0
   -1.9856    6.9716  -19.3626 C   0  0  0  0  0  0  0  0  0  0  0  0
   -2.7290    8.1529  -19.9670 C   0  0  0  0  0  0  0  0  0  0  0  0
   -1.7682    9.8046  -19.5697 Br  0  0  0  0  0  0  0  0  0  0  0  0
   -4.0673    5.6174  -19.5862 N   0  0  0  0  0  0  0  0  0  0  0  0
   -4.9437    5.3924  -18.5726 C   0  0  0  0  0  0  0  0  0  0  0  0
   -6.0907    4.8990  -19.0797 N   0  0  0  0  0  0  0  0  0  0  0  0
   -7.1369    4.6493  -18.2789 C   0  0  0  0  0  0  0  0  0  0  0  0
   -8.3328    4.2037  -18.7910 C   0  0  0  0  0  0  0  0  0  0  0  0
   -9.4106    3.9323  -17.9534 C   0  0  0  0  0  0  0  0  0  0  0  0
   -9.2939    4.0615  -16.5853 C   0  0  0  0  0  0  0  0  0  0  0  0
   -8.1288    4.5354  -16.0458 C   0  0  0  0  0  0  0  0  0  0  0  0
   -7.0753    4.8404  -16.9013 C   0  0  0  0  0  0  0  0  0  0  0  0
   -5.9134    5.3609  -16.3843 C   0  0  0  0  0  0  0  0  0  0  0  0
   -4.8217    5.6633  -17.2133 C   0  0  0  0  0  0  0  0  0  0  0  0
   -3.6542    6.3372  -16.5754 C   0  0  0  0  0  0  0  0  0  0  0  0
   -3.7677    6.3730  -15.1498 O   0  0  0  0  0  0  0  0  0  0  0  0
  2  1  1  1
  2  3  1  0
  3  4  1  0
  4  5  1  0
  2  6  1  0
  6  7  1  0
  7  8  2  0
  8  9  1  0
  9 10  2  0
 10 11  1  0
 11 12  2  0
 12 13  1  0
 13 14  2  0
 14 15  1  0
 15 16  2  0
 16 17  1  0
 17 18  1  0
 16  7  1  0
 14  9  1  0
M  END
>  <energy_score>  (1979) 
-7.013983

>  <alias>  (1979) 
None

>  <HIPPO Pose ID>  (1979) 
73166

>  <smiles>  (1979) 
C[C@H](CCBr)Nc1nc2ccccc2cc1CO

>  <inchikey>  (1979) 
SJKUWETXNUYKJM-SNVBAGLBSA-N

>  <distance_score>  (1979) 
1.900009

>  <ref_mols>  (1979) 
Z1688a,Z0089a

>  <ref_pdb>  (1979) 
Z1688a

>  <HIPPO Compound ID>  (1979) 
146272

>  <name>  (1979) 
P73166

>  <inspiration_score>  (1979) 
None

$$$$
P73167
     RDKit          3D

 18 19  0  0  0  0  0  0  0  0999 V2000
   -1.7344    4.5339  -19.2200 C   0  0  0  0  0  0  0  0  0  0  0  0
   -3.0204    5.3322  -19.0047 C   0  0  2  0  0  0  0  0  0  0  0  0
   -2.9148    6.7743  -19.5316 C   0  0  0  0  0  0  0  0  0  0  0  0
   -1.7014    7.5474  -19.0424 C   0  0  0  0  0  0  0  0  0  0  0  0
   -1.7998    9.3933  -19.6706 Br  0  0  0  0  0  0  0  0  0  0  0  0
   -3.3510    5.3258  -17.5699 N   0  0  0  0  0  0  0  0  0  0  0  0
   -4.7042    5.2423  -17.2222 C   0  0  0  0  0  0  0  0  0  0  0  0
   -5.1124    5.4023  -15.8931 C   0  0  0  0  0  0  0  0  0  0  0  0
   -6.4685    5.2463  -15.5212 C   0  0  0  0  0  0  0  0  0  0  0  0
   -6.9122    5.6089  -14.1282 C   0  0  0  0  0  0  0  0  0  0  0  0
   -7.2059    4.0779  -12.9876 Br  0  0  0  0  0  0  0  0  0  0  0  0
   -7.3726    4.8375  -16.5243 C   0  0  0  0  0  0  0  0  0  0  0  0
   -8.7447    4.5633  -16.3253 C   0  0  0  0  0  0  0  0  0  0  0  0
   -9.5763    4.2698  -17.4052 C   0  0  0  0  0  0  0  0  0  0  0  0
   -9.0463    4.2234  -18.6812 C   0  0  0  0  0  0  0  0  0  0  0  0
   -7.6883    4.4072  -18.8739 C   0  0  0  0  0  0  0  0  0  0  0  0
   -6.8556    4.7240  -17.8319 C   0  0  0  0  0  0  0  0  0  0  0  0
   -5.5849    4.9356  -18.1638 N   0  0  0  0  0  0  0  0  0  0  0  0
  2  1  1  1
  2  3  1  0
  3  4  1  0
  4  5  1  0
  2  6  1  0
  6  7  1  0
  7  8  2  0
  8  9  1  0
  9 10  1  0
 10 11  1  0
  9 12  2  0
 12 13  1  0
 13 14  2  0
 14 15  1  0
 15 16  2  0
 16 17  1  0
 17 18  2  0
 18  7  1  0
 17 12  1  0
M  END
>  <energy_score>  (1980) 
-27.212622

>  <alias>  (1980) 
None

>  <HIPPO Pose ID>  (1980) 
73167

>  <smiles>  (1980) 
C[C@H](CCBr)Nc1cc(CBr)c2ccccc2n1

>  <inchikey>  (1980) 
HADHIIODTGIRDB-SNVBAGLBSA-N

>  <distance_score>  (1980) 
1.007317

>  <ref_mols>  (1980) 
Z1688a,Z0089a

>  <ref_pdb>  (1980) 
Z1688a

>  <HIPPO Compound ID>  (1980) 
146273

>  <name>  (1980) 
P73167

>  <inspiration_score>  (1980) 
None

$$$$
P73170
     RDKit          3D

 18 19  0  0  0  0  0  0  0  0999 V2000
   -1.7883    4.5907  -19.2409 C   0  0  0  0  0  0  0  0  0  0  0  0
   -3.1073    5.3547  -19.0650 C   0  0  2  0  0  0  0  0  0  0  0  0
   -2.9713    6.7671  -19.6620 C   0  0  0  0  0  0  0  0  0  0  0  0
   -4.3128    7.4211  -19.9811 C   0  0  0  0  0  0  0  0  0  0  0  0
   -4.9193    8.6026  -18.5523 Br  0  0  0  0  0  0  0  0  0  0  0  0
   -3.4113    5.4455  -17.6304 N   0  0  0  0  0  0  0  0  0  0  0  0
   -4.7260    5.2021  -17.2263 C   0  0  0  0  0  0  0  0  0  0  0  0
   -5.0865    5.3089  -15.8861 C   0  0  0  0  0  0  0  0  0  0  0  0
   -6.4196    5.0769  -15.4910 C   0  0  0  0  0  0  0  0  0  0  0  0
   -6.7204    5.2170  -14.0311 C   0  0  0  0  0  0  0  0  0  0  0  0
   -7.8245    5.1725  -13.5066 O   0  0  0  0  0  0  0  0  0  0  0  0
   -7.3792    4.7478  -16.4675 C   0  0  0  0  0  0  0  0  0  0  0  0
   -8.7500    4.4680  -16.2565 C   0  0  0  0  0  0  0  0  0  0  0  0
   -9.6046    4.2407  -17.3355 C   0  0  0  0  0  0  0  0  0  0  0  0
   -9.1037    4.2557  -18.6230 C   0  0  0  0  0  0  0  0  0  0  0  0
   -7.7499    4.4390  -18.8304 C   0  0  0  0  0  0  0  0  0  0  0  0
   -6.8981    4.7038  -17.7900 C   0  0  0  0  0  0  0  0  0  0  0  0
   -5.6353    4.9200  -18.1469 N   0  0  0  0  0  0  0  0  0  0  0  0
  2  1  1  1
  2  3  1  0
  3  4  1  0
  4  5  1  0
  2  6  1  0
  6  7  1  0
  7  8  2  0
  8  9  1  0
  9 10  1  0
 10 11  2  0
  9 12  2  0
 12 13  1  0
 13 14  2  0
 14 15  1  0
 15 16  2  0
 16 17  1  0
 17 18  2  0
 18  7  1  0
 17 12  1  0
M  END
>  <energy_score>  (1981) 
-35.589347

>  <alias>  (1981) 
None

>  <HIPPO Pose ID>  (1981) 
73170

>  <smiles>  (1981) 
C[C@H](CCBr)Nc1cc(C=O)c2ccccc2n1

>  <inchikey>  (1981) 
DUPVQPJNWYEMQK-SNVBAGLBSA-N

>  <distance_score>  (1981) 
1.072411

>  <ref_mols>  (1981) 
Z1688a,Z0089a

>  <ref_pdb>  (1981) 
Z1688a

>  <HIPPO Compound ID>  (1981) 
146275

>  <name>  (1981) 
P73170

>  <inspiration_score>  (1981) 
None

$$$$
P73173
     RDKit          3D

 18 20  0  0  0  0  0  0  0  0999 V2000
   -3.1238    6.6921  -15.5890 N   0  0  0  0  0  0  0  0  0  0  0  0
   -3.8668    6.2064  -16.3325 C   0  0  0  0  0  0  0  0  0  0  0  0
   -4.9367    5.6024  -17.0330 C   0  0  0  0  0  0  0  0  0  0  0  0
   -6.0348    5.2950  -16.2397 C   0  0  0  0  0  0  0  0  0  0  0  0
   -7.1695    4.8023  -16.8300 C   0  0  0  0  0  0  0  0  0  0  0  0
   -8.2466    4.4763  -16.0217 C   0  0  0  0  0  0  0  0  0  0  0  0
   -9.3906    4.0351  -16.6230 C   0  0  0  0  0  0  0  0  0  0  0  0
   -9.4651    3.9605  -17.9972 C   0  0  0  0  0  0  0  0  0  0  0  0
   -8.3606    4.2394  -18.7923 C   0  0  0  0  0  0  0  0  0  0  0  0
   -7.1824    4.6542  -18.2252 C   0  0  0  0  0  0  0  0  0  0  0  0
   -6.1055    4.9048  -18.9868 N   0  0  0  0  0  0  0  0  0  0  0  0
   -4.9813    5.3482  -18.3984 C   0  0  0  0  0  0  0  0  0  0  0  0
   -3.9253    5.5169  -19.2941 N   0  0  0  0  0  0  0  0  0  0  0  0
   -2.5379    5.3112  -19.0221 C   0  0  1  0  0  0  0  0  0  0  0  0
   -1.7955    4.5721  -20.1553 C   0  0  0  0  0  0  0  0  0  0  0  0
   -0.6308    5.5579  -19.9335 C   0  0  0  0  0  0  0  0  0  0  0  0
   -1.6688    6.5551  -19.3691 C   0  0  2  0  0  0  0  0  0  0  0  0
   -1.2528    7.3088  -18.3265 F   0  0  0  0  0  0  0  0  0  0  0  0
  1  2  3  0
  2  3  1  0
  3  4  2  0
  4  5  1  0
  5  6  2  0
  6  7  1  0
  7  8  2  0
  8  9  1  0
  9 10  2  0
 10 11  1  0
 11 12  2  0
 12 13  1  0
 14 13  1  6
 14 15  1  0
 15 16  1  0
 16 17  1  0
 17 18  1  1
 12  3  1  0
 17 14  1  0
 10  5  1  0
M  END
>  <energy_score>  (1982) 
-8.651412

>  <alias>  (1982) 
None

>  <HIPPO Pose ID>  (1982) 
73173

>  <smiles>  (1982) 
N#Cc1cc2ccccc2nc1N[C@H]1CC[C@@H]1F

>  <inchikey>  (1982) 
AJPKCJOURWHADT-AAEUAGOBSA-N

>  <distance_score>  (1982) 
1.949543

>  <ref_mols>  (1982) 
Z1688a,Z0089a

>  <ref_pdb>  (1982) 
Z1688a

>  <HIPPO Compound ID>  (1982) 
146276

>  <name>  (1982) 
P73173

>  <inspiration_score>  (1982) 
None

$$$$
P73174
     RDKit          3D

 18 20  0  0  0  0  0  0  0  0999 V2000
   -4.0398    6.8523  -15.1048 O   0  0  0  0  0  0  0  0  0  0  0  0
   -3.7251    6.4459  -16.4382 C   0  0  0  0  0  0  0  0  0  0  0  0
   -4.8859    5.7486  -17.0643 C   0  0  0  0  0  0  0  0  0  0  0  0
   -5.9763    5.4012  -16.2683 C   0  0  0  0  0  0  0  0  0  0  0  0
   -7.1064    4.8649  -16.8401 C   0  0  0  0  0  0  0  0  0  0  0  0
   -8.1803    4.5320  -16.0240 C   0  0  0  0  0  0  0  0  0  0  0  0
   -9.3183    4.0469  -16.6084 C   0  0  0  0  0  0  0  0  0  0  0  0
   -9.3863    3.9256  -17.9804 C   0  0  0  0  0  0  0  0  0  0  0  0
   -8.2892    4.2211  -18.7824 C   0  0  0  0  0  0  0  0  0  0  0  0
   -7.1215    4.6859  -18.2290 C   0  0  0  0  0  0  0  0  0  0  0  0
   -6.0567    4.9471  -19.0009 N   0  0  0  0  0  0  0  0  0  0  0  0
   -4.9518    5.4436  -18.4234 C   0  0  0  0  0  0  0  0  0  0  0  0
   -3.8782    5.6016  -19.3135 N   0  0  0  0  0  0  0  0  0  0  0  0
   -2.5624    5.0857  -19.0357 C   0  0  1  0  0  0  0  0  0  0  0  0
   -1.8671    4.5032  -20.2793 C   0  0  0  0  0  0  0  0  0  0  0  0
   -1.2295    5.8826  -20.5198 C   0  0  0  0  0  0  0  0  0  0  0  0
   -1.4529    6.1791  -19.0219 C   0  0  1  0  0  0  0  0  0  0  0  0
   -1.8133    7.4451  -18.7085 F   0  0  0  0  0  0  0  0  0  0  0  0
  1  2  1  0
  2  3  1  0
  3  4  2  0
  4  5  1  0
  5  6  2  0
  6  7  1  0
  7  8  2  0
  8  9  1  0
  9 10  2  0
 10 11  1  0
 11 12  2  0
 12 13  1  0
 14 13  1  6
 14 15  1  0
 15 16  1  0
 16 17  1  0
 17 18  1  6
 12  3  1  0
 17 14  1  0
 10  5  1  0
M  END
>  <energy_score>  (1983) 
-18.737535

>  <alias>  (1983) 
None

>  <HIPPO Pose ID>  (1983) 
73174

>  <smiles>  (1983) 
OCc1cc2ccccc2nc1N[C@H]1CC[C@H]1F

>  <inchikey>  (1983) 
QUDGSKOHAICASU-YPMHNXCESA-N

>  <distance_score>  (1983) 
1.913554

>  <ref_mols>  (1983) 
Z1688a,Z0089a

>  <ref_pdb>  (1983) 
Z1688a

>  <HIPPO Compound ID>  (1983) 
146277

>  <name>  (1983) 
P73174

>  <inspiration_score>  (1983) 
None

$$$$
P73180
     RDKit          3D

 18 20  0  0  0  0  0  0  0  0999 V2000
   -1.0920    6.6948  -17.9355 F   0  0  0  0  0  0  0  0  0  0  0  0
   -1.5710    6.3456  -19.1533 C   0  0  1  0  0  0  0  0  0  0  0  0
   -0.6369    5.4486  -19.9918 C   0  0  0  0  0  0  0  0  0  0  0  0
   -1.8926    4.7036  -20.4791 C   0  0  0  0  0  0  0  0  0  0  0  0
   -2.5871    5.1621  -19.1798 C   0  0  2  0  0  0  0  0  0  0  0  0
   -3.9416    5.5866  -19.3873 N   0  0  0  0  0  0  0  0  0  0  0  0
   -4.9786    5.3716  -18.4685 C   0  0  0  0  0  0  0  0  0  0  0  0
   -6.1077    4.9220  -19.0390 N   0  0  0  0  0  0  0  0  0  0  0  0
   -7.1604    4.6411  -18.2562 C   0  0  0  0  0  0  0  0  0  0  0  0
   -8.3730    4.2837  -18.7971 C   0  0  0  0  0  0  0  0  0  0  0  0
   -9.4666    4.0139  -17.9814 C   0  0  0  0  0  0  0  0  0  0  0  0
   -9.3419    4.0207  -16.6087 C   0  0  0  0  0  0  0  0  0  0  0  0
   -8.1506    4.3678  -16.0331 C   0  0  0  0  0  0  0  0  0  0  0  0
   -7.0868    4.7009  -16.8613 C   0  0  0  0  0  0  0  0  0  0  0  0
   -5.9122    5.1327  -16.2913 C   0  0  0  0  0  0  0  0  0  0  0  0
   -4.8673    5.5876  -17.0953 C   0  0  0  0  0  0  0  0  0  0  0  0
   -3.6948    6.2644  -16.4732 C   0  0  0  0  0  0  0  0  0  0  0  0
   -4.2194    7.3555  -14.9349 Br  0  0  0  0  0  0  0  0  0  0  0  0
  2  1  1  1
  2  3  1  0
  3  4  1  0
  4  5  1  0
  5  6  1  6
  6  7  1  0
  7  8  2  0
  8  9  1  0
  9 10  2  0
 10 11  1  0
 11 12  2  0
 12 13  1  0
 13 14  2  0
 14 15  1  0
 15 16  2  0
 16 17  1  0
 17 18  1  0
  5  2  1  0
 16  7  1  0
 14  9  1  0
M  END
>  <energy_score>  (1984) 
-19.547697

>  <alias>  (1984) 
None

>  <HIPPO Pose ID>  (1984) 
73180

>  <smiles>  (1984) 
F[C@H]1CC[C@@H]1Nc1nc2ccccc2cc1CBr

>  <inchikey>  (1984) 
DGAKPCTYYZRCNX-AAEUAGOBSA-N

>  <distance_score>  (1984) 
1.935536

>  <ref_mols>  (1984) 
Z1688a,Z0089a

>  <ref_pdb>  (1984) 
Z1688a

>  <HIPPO Compound ID>  (1984) 
146279

>  <name>  (1984) 
P73180

>  <inspiration_score>  (1984) 
None

$$$$
P73186
     RDKit          3D

 18 20  0  0  0  0  0  0  0  0999 V2000
   -7.8035    5.2002  -13.5030 O   0  0  0  0  0  0  0  0  0  0  0  0
   -6.6988    5.1057  -14.0200 C   0  0  0  0  0  0  0  0  0  0  0  0
   -6.4092    5.0322  -15.4857 C   0  0  0  0  0  0  0  0  0  0  0  0
   -5.0741    5.2563  -15.8822 C   0  0  0  0  0  0  0  0  0  0  0  0
   -4.7376    5.2211  -17.2320 C   0  0  0  0  0  0  0  0  0  0  0  0
   -3.4042    5.3608  -17.6609 N   0  0  0  0  0  0  0  0  0  0  0  0
   -3.0501    5.3822  -19.0637 C   0  0  2  0  0  0  0  0  0  0  0  0
   -1.6795    4.7168  -19.3316 C   0  0  0  0  0  0  0  0  0  0  0  0
   -1.4369    5.8298  -20.3731 C   0  0  0  0  0  0  0  0  0  0  0  0
   -2.3896    6.7152  -19.5329 C   0  0  1  0  0  0  0  0  0  0  0  0
   -3.1690    7.5782  -20.2223 F   0  0  0  0  0  0  0  0  0  0  0  0
   -5.6561    4.9674  -18.1512 N   0  0  0  0  0  0  0  0  0  0  0  0
   -6.9127    4.7310  -17.7892 C   0  0  0  0  0  0  0  0  0  0  0  0
   -7.7684    4.4693  -18.8263 C   0  0  0  0  0  0  0  0  0  0  0  0
   -9.1191    4.2732  -18.6128 C   0  0  0  0  0  0  0  0  0  0  0  0
   -9.6114    4.2418  -17.3223 C   0  0  0  0  0  0  0  0  0  0  0  0
   -8.7505    4.4574  -16.2457 C   0  0  0  0  0  0  0  0  0  0  0  0
   -7.3820    4.7444  -16.4626 C   0  0  0  0  0  0  0  0  0  0  0  0
  1  2  2  0
  2  3  1  0
  3  4  2  0
  4  5  1  0
  5  6  1  0
  7  6  1  1
  7  8  1  0
  8  9  1  0
  9 10  1  0
 10 11  1  6
  5 12  2  0
 12 13  1  0
 13 14  2  0
 14 15  1  0
 15 16  2  0
 16 17  1  0
 17 18  2  0
 18  3  1  0
 10  7  1  0
 18 13  1  0
M  END
>  <energy_score>  (1985) 
-15.610073

>  <alias>  (1985) 
None

>  <HIPPO Pose ID>  (1985) 
73186

>  <smiles>  (1985) 
O=Cc1cc(N[C@@H]2CC[C@H]2F)nc2ccccc12

>  <inchikey>  (1985) 
OPOBCEHMAQPPSH-DGCLKSJQSA-N

>  <distance_score>  (1985) 
1.088336

>  <ref_mols>  (1985) 
Z1688a,Z0089a

>  <ref_pdb>  (1985) 
Z1688a

>  <HIPPO Compound ID>  (1985) 
146280

>  <name>  (1985) 
P73186

>  <inspiration_score>  (1985) 
None

$$$$
P73189
     RDKit          3D

 18 19  0  0  0  0  0  0  0  0999 V2000
   -1.4143    3.7585  -19.6096 C   0  0  0  0  0  0  0  0  0  0  0  0
   -2.4379    4.5721  -18.8379 C   0  0  0  0  0  0  0  0  0  0  0  0
   -2.9913    5.7122  -19.6929 C   0  0  2  0  0  0  0  0  0  0  0  0
   -1.9312    6.7819  -20.0302 C   0  0  0  0  0  0  0  0  0  0  0  0
   -1.1815    7.5526  -18.6044 Cl  0  0  0  0  0  0  0  0  0  0  0  0
   -4.2022    6.3994  -19.2040 N   0  0  0  0  0  0  0  0  0  0  0  0
   -5.0702    5.7614  -18.3293 C   0  0  0  0  0  0  0  0  0  0  0  0
   -6.1401    5.2248  -18.9323 N   0  0  0  0  0  0  0  0  0  0  0  0
   -7.1442    4.7740  -18.1665 C   0  0  0  0  0  0  0  0  0  0  0  0
   -8.3162    4.3368  -18.7361 C   0  0  0  0  0  0  0  0  0  0  0  0
   -9.4033    3.9821  -17.9461 C   0  0  0  0  0  0  0  0  0  0  0  0
   -9.3067    3.9843  -16.5707 C   0  0  0  0  0  0  0  0  0  0  0  0
   -8.1376    4.3641  -15.9671 C   0  0  0  0  0  0  0  0  0  0  0  0
   -7.0800    4.7766  -16.7674 C   0  0  0  0  0  0  0  0  0  0  0  0
   -5.9345    5.2521  -16.1687 C   0  0  0  0  0  0  0  0  0  0  0  0
   -4.9275    5.8174  -16.9477 C   0  0  0  0  0  0  0  0  0  0  0  0
   -3.8006    6.5287  -16.2801 C   0  0  0  0  0  0  0  0  0  0  0  0
   -4.1723    6.8906  -14.9481 O   0  0  0  0  0  0  0  0  0  0  0  0
  1  2  1  0
  3  2  1  1
  3  4  1  0
  4  5  1  0
  3  6  1  0
  6  7  1  0
  7  8  2  0
  8  9  1  0
  9 10  2  0
 10 11  1  0
 11 12  2  0
 12 13  1  0
 13 14  2  0
 14 15  1  0
 15 16  2  0
 16 17  1  0
 17 18  1  0
 16  7  1  0
 14  9  1  0
M  END
>  <energy_score>  (1986) 
-20.117097

>  <alias>  (1986) 
None

>  <HIPPO Pose ID>  (1986) 
73189

>  <smiles>  (1986) 
CC[C@H](CCl)Nc1nc2ccccc2cc1CO

>  <inchikey>  (1986) 
AUQBWALQQQXCDN-GFCCVEGCSA-N

>  <distance_score>  (1986) 
1.94914

>  <ref_mols>  (1986) 
Z1688a,Z0089a

>  <ref_pdb>  (1986) 
Z1688a

>  <HIPPO Compound ID>  (1986) 
146282

>  <name>  (1986) 
P73189

>  <inspiration_score>  (1986) 
None

$$$$
P73193
     RDKit          3D

 18 19  0  0  0  0  0  0  0  0999 V2000
   -0.0463    5.3303  -19.2265 C   0  0  0  0  0  0  0  0  0  0  0  0
   -1.4712    4.8622  -19.5161 C   0  0  0  0  0  0  0  0  0  0  0  0
   -2.5028    5.9047  -19.0394 C   0  0  1  0  0  0  0  0  0  0  0  0
   -2.4616    7.1699  -19.9092 C   0  0  0  0  0  0  0  0  0  0  0  0
   -3.4458    8.5118  -19.2516 Cl  0  0  0  0  0  0  0  0  0  0  0  0
   -3.8083    5.2913  -19.0764 N   0  0  0  0  0  0  0  0  0  0  0  0
   -4.9044    5.4492  -18.2899 C   0  0  0  0  0  0  0  0  0  0  0  0
   -5.9644    4.8944  -18.9022 N   0  0  0  0  0  0  0  0  0  0  0  0
   -7.1030    4.7130  -18.2258 C   0  0  0  0  0  0  0  0  0  0  0  0
   -8.1588    4.0764  -18.8180 C   0  0  0  0  0  0  0  0  0  0  0  0
   -9.2822    3.7485  -18.0711 C   0  0  0  0  0  0  0  0  0  0  0  0
   -9.3805    4.0719  -16.7340 C   0  0  0  0  0  0  0  0  0  0  0  0
   -8.3766    4.7812  -16.1355 C   0  0  0  0  0  0  0  0  0  0  0  0
   -7.2565    5.0994  -16.8948 C   0  0  0  0  0  0  0  0  0  0  0  0
   -6.2240    5.7936  -16.3195 C   0  0  0  0  0  0  0  0  0  0  0  0
   -5.0137    5.9791  -17.0079 C   0  0  0  0  0  0  0  0  0  0  0  0
   -3.9753    6.6664  -16.1990 C   0  0  0  0  0  0  0  0  0  0  0  0
   -3.3199    5.4160  -14.8683 Br  0  0  0  0  0  0  0  0  0  0  0  0
  1  2  1  0
  3  2  1  6
  3  4  1  0
  4  5  1  0
  3  6  1  0
  6  7  1  0
  7  8  2  0
  8  9  1  0
  9 10  2  0
 10 11  1  0
 11 12  2  0
 12 13  1  0
 13 14  2  0
 14 15  1  0
 15 16  2  0
 16 17  1  0
 17 18  1  0
 16  7  1  0
 14  9  1  0
M  END
>  <energy_score>  (1987) 
-16.12848

>  <alias>  (1987) 
None

>  <HIPPO Pose ID>  (1987) 
73193

>  <smiles>  (1987) 
CC[C@@H](CCl)Nc1nc2ccccc2cc1CBr

>  <inchikey>  (1987) 
GWDUYGKAUMIZHX-LBPRGKRZSA-N

>  <distance_score>  (1987) 
1.94872

>  <ref_mols>  (1987) 
Z1688a,Z0089a

>  <ref_pdb>  (1987) 
Z1688a

>  <HIPPO Compound ID>  (1987) 
146284

>  <name>  (1987) 
P73193

>  <inspiration_score>  (1987) 
None

$$$$
P73197
     RDKit          3D

 18 19  0  0  0  0  0  0  0  0999 V2000
   -1.8964    4.4023  -19.5421 C   0  0  0  0  0  0  0  0  0  0  0  0
   -2.5274    5.6925  -19.0227 C   0  0  1  0  0  0  0  0  0  0  0  0
   -1.9267    6.9090  -19.7478 C   0  0  0  0  0  0  0  0  0  0  0  0
   -2.3541    8.2641  -19.1751 C   0  0  0  0  0  0  0  0  0  0  0  0
   -3.9527    8.8624  -19.8096 S   0  0  0  0  0  0  0  0  0  0  0  0
   -3.9601    5.6684  -19.2420 N   0  0  0  0  0  0  0  0  0  0  0  0
   -4.9384    5.3687  -18.3320 C   0  0  0  0  0  0  0  0  0  0  0  0
   -6.0435    4.8991  -18.9348 N   0  0  0  0  0  0  0  0  0  0  0  0
   -7.1338    4.6266  -18.2001 C   0  0  0  0  0  0  0  0  0  0  0  0
   -8.3027    4.2352  -18.8003 C   0  0  0  0  0  0  0  0  0  0  0  0
   -9.4318    3.9708  -18.0360 C   0  0  0  0  0  0  0  0  0  0  0  0
   -9.3910    4.0233  -16.6595 C   0  0  0  0  0  0  0  0  0  0  0  0
   -8.2500    4.4241  -16.0247 C   0  0  0  0  0  0  0  0  0  0  0  0
   -7.1495    4.7468  -16.8040 C   0  0  0  0  0  0  0  0  0  0  0  0
   -6.0237    5.2244  -16.1861 C   0  0  0  0  0  0  0  0  0  0  0  0
   -4.9239    5.5814  -16.9592 C   0  0  0  0  0  0  0  0  0  0  0  0
   -3.9025    6.2291  -16.2284 C   0  0  0  0  0  0  0  0  0  0  0  0
   -3.1677    6.7548  -15.5037 N   0  0  0  0  0  0  0  0  0  0  0  0
  2  1  1  6
  2  3  1  0
  3  4  1  0
  4  5  1  0
  2  6  1  0
  6  7  1  0
  7  8  2  0
  8  9  1  0
  9 10  2  0
 10 11  1  0
 11 12  2  0
 12 13  1  0
 13 14  2  0
 14 15  1  0
 15 16  2  0
 16 17  1  0
 17 18  3  0
 16  7  1  0
 14  9  1  0
M  END
>  <energy_score>  (1988) 
-31.326275

>  <alias>  (1988) 
None

>  <HIPPO Pose ID>  (1988) 
73197

>  <smiles>  (1988) 
C[C@@H](CCS)Nc1nc2ccccc2cc1C#N

>  <inchikey>  (1988) 
IUJLHKOVBJMNMQ-JTQLQIEISA-N

>  <distance_score>  (1988) 
1.951143

>  <ref_mols>  (1988) 
Z1688a,Z0089a

>  <ref_pdb>  (1988) 
Z1688a

>  <HIPPO Compound ID>  (1988) 
146287

>  <name>  (1988) 
P73197

>  <inspiration_score>  (1988) 
None

$$$$
P73200
     RDKit          3D

 18 19  0  0  0  0  0  0  0  0999 V2000
   -1.9362    4.3277  -19.4794 C   0  0  0  0  0  0  0  0  0  0  0  0
   -2.4936    5.6698  -19.0105 C   0  0  2  0  0  0  0  0  0  0  0  0
   -3.9330    5.7400  -19.2307 N   0  0  0  0  0  0  0  0  0  0  0  0
   -4.9189    5.4178  -18.3343 C   0  0  0  0  0  0  0  0  0  0  0  0
   -6.0169    4.9350  -18.9401 N   0  0  0  0  0  0  0  0  0  0  0  0
   -7.1061    4.6446  -18.2077 C   0  0  0  0  0  0  0  0  0  0  0  0
   -8.2691    4.2380  -18.8097 C   0  0  0  0  0  0  0  0  0  0  0  0
   -9.3999    3.9655  -18.0492 C   0  0  0  0  0  0  0  0  0  0  0  0
   -9.3691    4.0260  -16.6726 C   0  0  0  0  0  0  0  0  0  0  0  0
   -8.2313    4.4333  -16.0355 C   0  0  0  0  0  0  0  0  0  0  0  0
   -7.1284    4.7621  -16.8112 C   0  0  0  0  0  0  0  0  0  0  0  0
   -6.0074    5.2460  -16.1893 C   0  0  0  0  0  0  0  0  0  0  0  0
   -4.9098    5.6182  -16.9593 C   0  0  0  0  0  0  0  0  0  0  0  0
   -3.8972    6.2779  -16.2271 C   0  0  0  0  0  0  0  0  0  0  0  0
   -3.1692    6.8113  -15.5011 N   0  0  0  0  0  0  0  0  0  0  0  0
   -1.7841    6.8628  -19.6825 C   0  0  2  0  0  0  0  0  0  0  0  0
   -2.2143    8.2133  -19.1218 C   0  0  0  0  0  0  0  0  0  0  0  0
   -2.0688    6.8943  -21.6289 Br  0  0  0  0  0  0  0  0  0  0  0  0
  2  1  1  6
  2  3  1  0
  3  4  1  0
  4  5  2  0
  5  6  1  0
  6  7  2  0
  7  8  1  0
  8  9  2  0
  9 10  1  0
 10 11  2  0
 11 12  1  0
 12 13  2  0
 13 14  1  0
 14 15  3  0
  2 16  1  0
 16 17  1  1
 16 18  1  0
 13  4  1  0
 11  6  1  0
M  END
>  <energy_score>  (1989) 
-17.845285

>  <alias>  (1989) 
None

>  <HIPPO Pose ID>  (1989) 
73200

>  <smiles>  (1989) 
C[C@H](Br)[C@H](C)Nc1nc2ccccc2cc1C#N

>  <inchikey>  (1989) 
XQJDXFLPPASHGJ-UWVGGRQHSA-N

>  <distance_score>  (1989) 
1.952622

>  <ref_mols>  (1989) 
Z1688a,Z0089a

>  <ref_pdb>  (1989) 
Z1688a

>  <HIPPO Compound ID>  (1989) 
146290

>  <name>  (1989) 
P73200

>  <inspiration_score>  (1989) 
None

$$$$
P73203
     RDKit          3D

 18 19  0  0  0  0  0  0  0  0999 V2000
   -2.4995    4.5997  -19.9985 C   0  0  0  0  0  0  0  0  0  0  0  0
   -2.5747    5.8973  -19.2242 C   0  0  2  0  0  0  0  0  0  0  0  0
   -3.1814    5.7481  -17.8969 N   0  0  0  0  0  0  0  0  0  0  0  0
   -4.5288    5.4797  -17.6442 C   0  0  0  0  0  0  0  0  0  0  0  0
   -5.3420    5.0346  -18.6050 N   0  0  0  0  0  0  0  0  0  0  0  0
   -6.6186    4.7274  -18.2794 C   0  0  0  0  0  0  0  0  0  0  0  0
   -7.4718    4.2889  -19.2476 C   0  0  0  0  0  0  0  0  0  0  0  0
   -8.8232    4.0677  -18.9749 C   0  0  0  0  0  0  0  0  0  0  0  0
   -9.3465    4.1660  -17.6968 C   0  0  0  0  0  0  0  0  0  0  0  0
   -8.4962    4.5333  -16.6818 C   0  0  0  0  0  0  0  0  0  0  0  0
   -7.1619    4.8459  -16.9905 C   0  0  0  0  0  0  0  0  0  0  0  0
   -6.3152    5.3066  -16.0106 C   0  0  0  0  0  0  0  0  0  0  0  0
   -4.9838    5.6096  -16.3223 C   0  0  0  0  0  0  0  0  0  0  0  0
   -4.0670    6.1053  -15.2480 C   0  0  0  0  0  0  0  0  0  0  0  0
   -4.6611    6.0036  -13.9619 O   0  0  0  0  0  0  0  0  0  0  0  0
   -3.1277    7.1301  -19.9650 C   0  0  2  0  0  0  0  0  0  0  0  0
   -4.0580    6.8808  -21.1417 C   0  0  0  0  0  0  0  0  0  0  0  0
   -1.6128    8.2123  -20.6554 Br  0  0  0  0  0  0  0  0  0  0  0  0
  2  1  1  6
  2  3  1  0
  3  4  1  0
  4  5  2  0
  5  6  1  0
  6  7  2  0
  7  8  1  0
  8  9  2  0
  9 10  1  0
 10 11  2  0
 11 12  1  0
 12 13  2  0
 13 14  1  0
 14 15  1  0
  2 16  1  0
 16 17  1  6
 16 18  1  0
 13  4  1  0
 11  6  1  0
M  END
>  <energy_score>  (1990) 
-11.534717

>  <alias>  (1990) 
None

>  <HIPPO Pose ID>  (1990) 
73203

>  <smiles>  (1990) 
C[C@H](Br)[C@H](C)Nc1nc2ccccc2cc1CO

>  <inchikey>  (1990) 
FMGCFLKQHQSCSM-UWVGGRQHSA-N

>  <distance_score>  (1990) 
1.936002

>  <ref_mols>  (1990) 
Z1688a,Z0089a

>  <ref_pdb>  (1990) 
Z1688a

>  <HIPPO Compound ID>  (1990) 
146291

>  <name>  (1990) 
P73203

>  <inspiration_score>  (1990) 
None

$$$$
P73205
     RDKit          3D

 18 19  0  0  0  0  0  0  0  0999 V2000
   -2.1664    4.4214  -18.9699 C   0  0  0  0  0  0  0  0  0  0  0  0
   -2.4263    5.7243  -18.2112 C   0  0  2  0  0  0  0  0  0  0  0  0
   -3.8055    6.1684  -18.3795 N   0  0  0  0  0  0  0  0  0  0  0  0
   -4.8270    5.6103  -17.6443 C   0  0  0  0  0  0  0  0  0  0  0  0
   -5.0379    5.7653  -16.2748 C   0  0  0  0  0  0  0  0  0  0  0  0
   -6.2870    5.4050  -15.6997 C   0  0  0  0  0  0  0  0  0  0  0  0
   -6.5957    5.7821  -14.2704 C   0  0  0  0  0  0  0  0  0  0  0  0
   -6.8887    4.2703  -13.0939 Br  0  0  0  0  0  0  0  0  0  0  0  0
   -7.2703    4.8708  -16.5654 C   0  0  0  0  0  0  0  0  0  0  0  0
   -8.5962    4.5433  -16.2063 C   0  0  0  0  0  0  0  0  0  0  0  0
   -9.5174    4.1726  -17.1807 C   0  0  0  0  0  0  0  0  0  0  0  0
   -9.1249    4.0863  -18.5003 C   0  0  0  0  0  0  0  0  0  0  0  0
   -7.8132    4.3103  -18.8528 C   0  0  0  0  0  0  0  0  0  0  0  0
   -6.9047    4.7247  -17.9215 C   0  0  0  0  0  0  0  0  0  0  0  0
   -5.7307    5.0567  -18.4309 N   0  0  0  0  0  0  0  0  0  0  0  0
   -1.4679    6.8403  -18.6831 C   0  0  2  0  0  0  0  0  0  0  0  0
   -1.5769    8.1081  -17.8423 C   0  0  0  0  0  0  0  0  0  0  0  0
   -1.7483    7.3342  -20.5657 Br  0  0  0  0  0  0  0  0  0  0  0  0
  2  1  1  6
  2  3  1  0
  3  4  1  0
  4  5  2  0
  5  6  1  0
  6  7  1  0
  7  8  1  0
  6  9  2  0
  9 10  1  0
 10 11  2  0
 11 12  1  0
 12 13  2  0
 13 14  1  0
 14 15  2  0
  2 16  1  0
 16 17  1  1
 16 18  1  0
 15  4  1  0
 14  9  1  0
M  END
>  <energy_score>  (1991) 
-20.492539

>  <alias>  (1991) 
None

>  <HIPPO Pose ID>  (1991) 
73205

>  <smiles>  (1991) 
C[C@H](Br)[C@H](C)Nc1cc(CBr)c2ccccc2n1

>  <inchikey>  (1991) 
VFOSIRZUAYEWBX-UWVGGRQHSA-N

>  <distance_score>  (1991) 
1.026368

>  <ref_mols>  (1991) 
Z1688a,Z0089a

>  <ref_pdb>  (1991) 
Z1688a

>  <HIPPO Compound ID>  (1991) 
146292

>  <name>  (1991) 
P73205

>  <inspiration_score>  (1991) 
None

$$$$
P73209
     RDKit          3D

 18 19  0  0  0  0  0  0  0  0999 V2000
   -1.4971    5.3700  -21.3272 C   0  0  0  0  0  0  0  0  0  0  0  0
   -1.4503    5.0925  -19.8303 C   0  0  1  0  0  0  0  0  0  0  0  0
    0.3732    5.5448  -19.1898 Br  0  0  0  0  0  0  0  0  0  0  0  0
   -2.4606    5.9004  -18.9857 C   0  0  1  0  0  0  0  0  0  0  0  0
   -2.5069    7.3839  -19.3589 C   0  0  0  0  0  0  0  0  0  0  0  0
   -3.7892    5.3473  -19.1121 N   0  0  0  0  0  0  0  0  0  0  0  0
   -4.8784    5.4518  -18.3038 C   0  0  0  0  0  0  0  0  0  0  0  0
   -5.9464    4.9172  -18.9205 N   0  0  0  0  0  0  0  0  0  0  0  0
   -7.0811    4.7214  -18.2379 C   0  0  0  0  0  0  0  0  0  0  0  0
   -8.1436    4.0944  -18.8302 C   0  0  0  0  0  0  0  0  0  0  0  0
   -9.2683    3.7671  -18.0832 C   0  0  0  0  0  0  0  0  0  0  0  0
   -9.3625    4.0795  -16.7432 C   0  0  0  0  0  0  0  0  0  0  0  0
   -8.3493    4.7731  -16.1415 C   0  0  0  0  0  0  0  0  0  0  0  0
   -7.2278    5.0899  -16.9008 C   0  0  0  0  0  0  0  0  0  0  0  0
   -6.1861    5.7638  -16.3179 C   0  0  0  0  0  0  0  0  0  0  0  0
   -4.9731    5.9432  -17.0043 C   0  0  0  0  0  0  0  0  0  0  0  0
   -3.9223    6.6090  -16.1909 C   0  0  0  0  0  0  0  0  0  0  0  0
   -3.3707    5.3911  -14.7810 Br  0  0  0  0  0  0  0  0  0  0  0  0
  2  1  1  6
  2  3  1  0
  2  4  1  0
  4  5  1  6
  4  6  1  0
  6  7  1  0
  7  8  2  0
  8  9  1  0
  9 10  2  0
 10 11  1  0
 11 12  2  0
 12 13  1  0
 13 14  2  0
 14 15  1  0
 15 16  2  0
 16 17  1  0
 17 18  1  0
 16  7  1  0
 14  9  1  0
M  END
>  <energy_score>  (1992) 
-15.638621

>  <alias>  (1992) 
None

>  <HIPPO Pose ID>  (1992) 
73209

>  <smiles>  (1992) 
C[C@@H](Br)[C@@H](C)Nc1nc2ccccc2cc1CBr

>  <inchikey>  (1992) 
CEPXBVAAWUJZHO-NXEZZACHSA-N

>  <distance_score>  (1992) 
1.949624

>  <ref_mols>  (1992) 
Z1688a,Z0089a

>  <ref_pdb>  (1992) 
Z1688a

>  <HIPPO Compound ID>  (1992) 
146293

>  <name>  (1992) 
P73209

>  <inspiration_score>  (1992) 
None

$$$$
P73212
     RDKit          3D

 18 19  0  0  0  0  0  0  0  0999 V2000
   -2.1062    4.3955  -19.0095 C   0  0  0  0  0  0  0  0  0  0  0  0
   -2.4090    5.6947  -18.2616 C   0  0  2  0  0  0  0  0  0  0  0  0
   -3.8066    6.0705  -18.4173 N   0  0  0  0  0  0  0  0  0  0  0  0
   -4.8181    5.5419  -17.6584 C   0  0  0  0  0  0  0  0  0  0  0  0
   -4.9435    5.5928  -16.2776 C   0  0  0  0  0  0  0  0  0  0  0  0
   -6.1698    5.2134  -15.6802 C   0  0  0  0  0  0  0  0  0  0  0  0
   -6.2909    5.3552  -14.1920 C   0  0  0  0  0  0  0  0  0  0  0  0
   -7.3065    5.2161  -13.5232 O   0  0  0  0  0  0  0  0  0  0  0  0
   -7.2330    4.7838  -16.4986 C   0  0  0  0  0  0  0  0  0  0  0  0
   -8.5339    4.4207  -16.0873 C   0  0  0  0  0  0  0  0  0  0  0  0
   -9.5076    4.1237  -17.0342 C   0  0  0  0  0  0  0  0  0  0  0  0
   -9.2004    4.1369  -18.3775 C   0  0  0  0  0  0  0  0  0  0  0  0
   -7.9104    4.3879  -18.7831 C   0  0  0  0  0  0  0  0  0  0  0  0
   -6.9502    4.7425  -17.8767 C   0  0  0  0  0  0  0  0  0  0  0  0
   -5.7953    5.0886  -18.4228 N   0  0  0  0  0  0  0  0  0  0  0  0
   -1.5061    6.8466  -18.7568 C   0  0  2  0  0  0  0  0  0  0  0  0
   -1.6615    8.1177  -17.9286 C   0  0  0  0  0  0  0  0  0  0  0  0
   -1.8330    7.3050  -20.6408 Br  0  0  0  0  0  0  0  0  0  0  0  0
  2  1  1  6
  2  3  1  0
  3  4  1  0
  4  5  2  0
  5  6  1  0
  6  7  1  0
  7  8  2  0
  6  9  2  0
  9 10  1  0
 10 11  2  0
 11 12  1  0
 12 13  2  0
 13 14  1  0
 14 15  2  0
  2 16  1  0
 16 17  1  1
 16 18  1  0
 15  4  1  0
 14  9  1  0
M  END
>  <energy_score>  (1993) 
-27.747923

>  <alias>  (1993) 
None

>  <HIPPO Pose ID>  (1993) 
73212

>  <smiles>  (1993) 
C[C@H](Br)[C@H](C)Nc1cc(C=O)c2ccccc2n1

>  <inchikey>  (1993) 
STNHGWIKXJMUHR-UWVGGRQHSA-N

>  <distance_score>  (1993) 
1.135328

>  <ref_mols>  (1993) 
Z1688a,Z0089a

>  <ref_pdb>  (1993) 
Z1688a

>  <HIPPO Compound ID>  (1993) 
146294

>  <name>  (1993) 
P73212

>  <inspiration_score>  (1993) 
None

$$$$
P73215
     RDKit          3D

 18 20  0  0  0  0  0  0  0  0999 V2000
    0.5341    5.6143  -19.0879 C   0  0  0  0  0  0  0  0  0  0  0  0
   -0.6335    5.8963  -20.0225 C   0  0  1  0  0  0  0  0  0  0  0  0
   -1.6934    4.7767  -20.2335 C   0  0  0  0  0  0  0  0  0  0  0  0
   -2.5006    5.4066  -19.0829 C   0  0  2  0  0  0  0  0  0  0  0  0
   -3.8920    5.5249  -19.3332 N   0  0  0  0  0  0  0  0  0  0  0  0
   -4.9395    5.3716  -18.4249 C   0  0  0  0  0  0  0  0  0  0  0  0
   -6.0592    4.9001  -18.9988 N   0  0  0  0  0  0  0  0  0  0  0  0
   -7.1293    4.6545  -18.2296 C   0  0  0  0  0  0  0  0  0  0  0  0
   -8.3094    4.2251  -18.7858 C   0  0  0  0  0  0  0  0  0  0  0  0
   -9.4114    3.9472  -17.9849 C   0  0  0  0  0  0  0  0  0  0  0  0
   -9.3343    4.0443  -16.6116 C   0  0  0  0  0  0  0  0  0  0  0  0
   -8.1846    4.4956  -16.0243 C   0  0  0  0  0  0  0  0  0  0  0  0
   -7.1077    4.8165  -16.8403 C   0  0  0  0  0  0  0  0  0  0  0  0
   -5.9665    5.3241  -16.2678 C   0  0  0  0  0  0  0  0  0  0  0  0
   -4.8739    5.6710  -17.0637 C   0  0  0  0  0  0  0  0  0  0  0  0
   -3.7138    6.3355  -16.4020 C   0  0  0  0  0  0  0  0  0  0  0  0
   -4.1121    6.9131  -15.1561 O   0  0  0  0  0  0  0  0  0  0  0  0
   -1.7638    6.7338  -19.3808 C   0  0  0  0  0  0  0  0  0  0  0  0
  2  1  1  1
  2  3  1  0
  3  4  1  0
  4  5  1  6
  5  6  1  0
  6  7  2  0
  7  8  1  0
  8  9  2  0
  9 10  1  0
 10 11  2  0
 11 12  1  0
 12 13  2  0
 13 14  1  0
 14 15  2  0
 15 16  1  0
 16 17  1  0
  4 18  1  0
 18  2  1  0
 15  6  1  0
 13  8  1  0
M  END
>  <energy_score>  (1994) 
-20.371668

>  <alias>  (1994) 
None

>  <HIPPO Pose ID>  (1994) 
73215

>  <smiles>  (1994) 
C[C@H]1C[C@H](Nc2nc3ccccc3cc2CO)C1

>  <inchikey>  (1994) 
SMQJISCPFZORJL-MJHDQNEOSA-N

>  <distance_score>  (1994) 
1.907737

>  <ref_mols>  (1994) 
Z1688a,Z0089a

>  <ref_pdb>  (1994) 
Z1688a

>  <HIPPO Compound ID>  (1994) 
146296

>  <name>  (1994) 
P73215

>  <inspiration_score>  (1994) 
None

$$$$
P73218
     RDKit          3D

 18 20  0  0  0  0  0  0  0  0999 V2000
   -0.2000    6.6723  -20.4921 C   0  0  0  0  0  0  0  0  0  0  0  0
   -1.4984    5.9071  -20.3463 C   0  0  1  0  0  0  0  0  0  0  0  0
   -1.5532    4.8374  -19.2234 C   0  0  0  0  0  0  0  0  0  0  0  0
   -3.0293    5.2445  -19.0171 C   0  0  1  0  0  0  0  0  0  0  0  0
   -3.3989    5.2857  -17.6289 N   0  0  0  0  0  0  0  0  0  0  0  0
   -4.7378    5.1941  -17.2108 C   0  0  0  0  0  0  0  0  0  0  0  0
   -5.0815    5.2383  -15.8635 C   0  0  0  0  0  0  0  0  0  0  0  0
   -6.4207    5.0287  -15.4750 C   0  0  0  0  0  0  0  0  0  0  0  0
   -6.7172    5.1031  -14.0109 C   0  0  0  0  0  0  0  0  0  0  0  0
   -7.8249    5.2081  -13.5024 O   0  0  0  0  0  0  0  0  0  0  0  0
   -7.3901    4.7471  -16.4574 C   0  0  0  0  0  0  0  0  0  0  0  0
   -8.7600    4.4628  -16.2471 C   0  0  0  0  0  0  0  0  0  0  0  0
   -9.6170    4.2489  -17.3274 C   0  0  0  0  0  0  0  0  0  0  0  0
   -9.1199    4.2820  -18.6160 C   0  0  0  0  0  0  0  0  0  0  0  0
   -7.7679    4.4771  -18.8234 C   0  0  0  0  0  0  0  0  0  0  0  0
   -6.9153    4.7342  -17.7822 C   0  0  0  0  0  0  0  0  0  0  0  0
   -5.6553    4.9601  -18.1383 N   0  0  0  0  0  0  0  0  0  0  0  0
   -2.6509    6.6277  -19.5948 C   0  0  0  0  0  0  0  0  0  0  0  0
  2  1  1  1
  2  3  1  0
  3  4  1  0
  4  5  1  1
  5  6  1  0
  6  7  2  0
  7  8  1  0
  8  9  1  0
  9 10  2  0
  8 11  2  0
 11 12  1  0
 12 13  2  0
 13 14  1  0
 14 15  2  0
 15 16  1  0
 16 17  2  0
  4 18  1  0
 18  2  1  0
 17  6  1  0
 16 11  1  0
M  END
>  <energy_score>  (1995) 
-12.099347

>  <alias>  (1995) 
None

>  <HIPPO Pose ID>  (1995) 
73218

>  <smiles>  (1995) 
C[C@H]1C[C@@H](Nc2cc(C=O)c3ccccc3n2)C1

>  <inchikey>  (1995) 
NFBYVOMVXQTHJW-KLPPZKSPSA-N

>  <distance_score>  (1995) 
1.09909

>  <ref_mols>  (1995) 
Z1688a,Z0089a

>  <ref_pdb>  (1995) 
Z1688a

>  <HIPPO Compound ID>  (1995) 
146299

>  <name>  (1995) 
P73218

>  <inspiration_score>  (1995) 
None

$$$$
P73225
     RDKit          3D

 18 19  0  0  0  0  0  0  0  0999 V2000
   -1.1565    4.2306  -19.5991 C   0  0  0  0  0  0  0  0  0  0  0  0
   -2.5216    4.5944  -19.0637 C   0  0  0  0  0  0  0  0  0  0  0  0
   -2.5766    5.9001  -18.2657 C   0  0  1  0  0  0  0  0  0  0  0  0
   -1.7015    7.0163  -18.8750 C   0  0  0  0  0  0  0  0  0  0  0  0
   -1.9245    8.2363  -18.1593 O   0  0  0  0  0  0  0  0  0  0  0  0
   -3.9442    6.4428  -18.2455 N   0  0  0  0  0  0  0  0  0  0  0  0
   -4.9151    5.7784  -17.5245 C   0  0  0  0  0  0  0  0  0  0  0  0
   -5.0545    5.7854  -16.1463 C   0  0  0  0  0  0  0  0  0  0  0  0
   -6.2611    5.3145  -15.5829 C   0  0  0  0  0  0  0  0  0  0  0  0
   -6.4141    5.4267  -14.0965 C   0  0  0  0  0  0  0  0  0  0  0  0
   -7.4299    5.2125  -13.4488 O   0  0  0  0  0  0  0  0  0  0  0  0
   -7.2805    4.8377  -16.4325 C   0  0  0  0  0  0  0  0  0  0  0  0
   -8.5745    4.4201  -16.0573 C   0  0  0  0  0  0  0  0  0  0  0  0
   -9.5103    4.0873  -17.0310 C   0  0  0  0  0  0  0  0  0  0  0  0
   -9.1623    4.0945  -18.3651 C   0  0  0  0  0  0  0  0  0  0  0  0
   -7.8766    4.4099  -18.7373 C   0  0  0  0  0  0  0  0  0  0  0  0
   -6.9650    4.8208  -17.8054 C   0  0  0  0  0  0  0  0  0  0  0  0
   -5.8291    5.2585  -18.3225 N   0  0  0  0  0  0  0  0  0  0  0  0
  1  2  1  0
  3  2  1  6
  3  4  1  0
  4  5  1  0
  3  6  1  0
  6  7  1  0
  7  8  2  0
  8  9  1  0
  9 10  1  0
 10 11  2  0
  9 12  2  0
 12 13  1  0
 13 14  2  0
 14 15  1  0
 15 16  2  0
 16 17  1  0
 17 18  2  0
 18  7  1  0
 17 12  1  0
M  END
>  <energy_score>  (1996) 
-20.714052

>  <alias>  (1996) 
None

>  <HIPPO Pose ID>  (1996) 
73225

>  <smiles>  (1996) 
CC[C@@H](CO)Nc1cc(C=O)c2ccccc2n1

>  <inchikey>  (1996) 
AJMWHOBTNQLKPA-NSHDSACASA-N

>  <distance_score>  (1996) 
1.109244

>  <ref_mols>  (1996) 
Z1688a,Z0089a

>  <ref_pdb>  (1996) 
Z1688a

>  <HIPPO Compound ID>  (1996) 
146303

>  <name>  (1996) 
P73225

>  <inspiration_score>  (1996) 
None

$$$$
P73226
     RDKit          3D

 18 20  0  0  0  0  0  0  0  0999 V2000
   -3.1089    6.7691  -15.6145 N   0  0  0  0  0  0  0  0  0  0  0  0
   -3.8710    6.2709  -16.3300 C   0  0  0  0  0  0  0  0  0  0  0  0
   -4.9238    5.6425  -17.0338 C   0  0  0  0  0  0  0  0  0  0  0  0
   -6.0128    5.3010  -16.2399 C   0  0  0  0  0  0  0  0  0  0  0  0
   -7.1414    4.7987  -16.8334 C   0  0  0  0  0  0  0  0  0  0  0  0
   -8.2241    4.4712  -16.0306 C   0  0  0  0  0  0  0  0  0  0  0  0
   -9.3660    4.0303  -16.6371 C   0  0  0  0  0  0  0  0  0  0  0  0
   -9.4263    3.9462  -18.0117 C   0  0  0  0  0  0  0  0  0  0  0  0
   -8.3162    4.2257  -18.8001 C   0  0  0  0  0  0  0  0  0  0  0  0
   -7.1445    4.6517  -18.2279 C   0  0  0  0  0  0  0  0  0  0  0  0
   -6.0680    4.9233  -18.9851 N   0  0  0  0  0  0  0  0  0  0  0  0
   -4.9568    5.4054  -18.4040 C   0  0  0  0  0  0  0  0  0  0  0  0
   -3.9525    5.6721  -19.3122 N   0  0  0  0  0  0  0  0  0  0  0  0
   -2.5628    5.4125  -19.0034 C   0  0  1  0  0  0  0  0  0  0  0  0
   -1.9160    4.7364  -20.1696 C   0  0  0  0  0  0  0  0  0  0  0  0
   -1.1763    5.5770  -20.9018 C   0  0  0  0  0  0  0  0  0  0  0  0
   -1.2127    6.9583  -20.3428 C   0  0  0  0  0  0  0  0  0  0  0  0
   -1.7853    6.7346  -18.9420 C   0  0  0  0  0  0  0  0  0  0  0  0
  1  2  3  0
  2  3  1  0
  3  4  2  0
  4  5  1  0
  5  6  2  0
  6  7  1  0
  7  8  2  0
  8  9  1  0
  9 10  2  0
 10 11  1  0
 11 12  2  0
 12 13  1  0
 14 13  1  6
 14 15  1  0
 15 16  2  0
 16 17  1  0
 17 18  1  0
 12  3  1  0
 18 14  1  0
 10  5  1  0
M  END
>  <energy_score>  (1997) 
-25.096364

>  <alias>  (1997) 
None

>  <HIPPO Pose ID>  (1997) 
73226

>  <smiles>  (1997) 
N#Cc1cc2ccccc2nc1N[C@H]1C=CCC1

>  <inchikey>  (1997) 
JVRBIFQCUPOJEV-ZDUSSCGKSA-N

>  <distance_score>  (1997) 
1.951312

>  <ref_mols>  (1997) 
Z1688a,Z0089a

>  <ref_pdb>  (1997) 
Z1688a

>  <HIPPO Compound ID>  (1997) 
146304

>  <name>  (1997) 
P73226

>  <inspiration_score>  (1997) 
None

$$$$
P73229
     RDKit          3D

 18 20  0  0  0  0  0  0  0  0999 V2000
   -7.2003    4.1001  -12.9875 Br  0  0  0  0  0  0  0  0  0  0  0  0
   -6.9083    5.6317  -14.1298 C   0  0  0  0  0  0  0  0  0  0  0  0
   -6.4786    5.2635  -15.5260 C   0  0  0  0  0  0  0  0  0  0  0  0
   -5.1315    5.4432  -15.9193 C   0  0  0  0  0  0  0  0  0  0  0  0
   -4.7426    5.2675  -17.2506 C   0  0  0  0  0  0  0  0  0  0  0  0
   -3.4053    5.4359  -17.6345 N   0  0  0  0  0  0  0  0  0  0  0  0
   -3.1550    5.3412  -19.0681 C   0  0  2  0  0  0  0  0  0  0  0  0
   -1.7412    4.9006  -19.3012 C   0  0  0  0  0  0  0  0  0  0  0  0
   -1.1112    5.6747  -20.1916 C   0  0  0  0  0  0  0  0  0  0  0  0
   -1.9975    6.7644  -20.6912 C   0  0  0  0  0  0  0  0  0  0  0  0
   -3.1639    6.7363  -19.7052 C   0  0  0  0  0  0  0  0  0  0  0  0
   -5.6338    4.9562  -18.1807 N   0  0  0  0  0  0  0  0  0  0  0  0
   -6.8942    4.7320  -17.8298 C   0  0  0  0  0  0  0  0  0  0  0  0
   -7.7327    4.4103  -18.8639 C   0  0  0  0  0  0  0  0  0  0  0  0
   -9.0862    4.2227  -18.6571 C   0  0  0  0  0  0  0  0  0  0  0  0
   -9.6014    4.2623  -17.3752 C   0  0  0  0  0  0  0  0  0  0  0  0
   -8.7605    4.5567  -16.3023 C   0  0  0  0  0  0  0  0  0  0  0  0
   -7.3931    4.8406  -16.5154 C   0  0  0  0  0  0  0  0  0  0  0  0
  1  2  1  0
  2  3  1  0
  3  4  2  0
  4  5  1  0
  5  6  1  0
  7  6  1  1
  7  8  1  0
  8  9  2  0
  9 10  1  0
 10 11  1  0
  5 12  2  0
 12 13  1  0
 13 14  2  0
 14 15  1  0
 15 16  2  0
 16 17  1  0
 17 18  2  0
 18  3  1  0
 11  7  1  0
 18 13  1  0
M  END
>  <energy_score>  (1998) 
-31.845997

>  <alias>  (1998) 
None

>  <HIPPO Pose ID>  (1998) 
73229

>  <smiles>  (1998) 
BrCc1cc(N[C@@H]2C=CCC2)nc2ccccc12

>  <inchikey>  (1998) 
WDEQEIOOXJHFRM-GFCCVEGCSA-N

>  <distance_score>  (1998) 
1.01475

>  <ref_mols>  (1998) 
Z1688a,Z0089a

>  <ref_pdb>  (1998) 
Z1688a

>  <HIPPO Compound ID>  (1998) 
146306

>  <name>  (1998) 
P73229

>  <inspiration_score>  (1998) 
None

$$$$
P73231
     RDKit          3D

 18 20  0  0  0  0  0  0  0  0999 V2000
   -3.6390    5.5008  -14.4787 Br  0  0  0  0  0  0  0  0  0  0  0  0
   -3.6776    6.2966  -16.2610 C   0  0  0  0  0  0  0  0  0  0  0  0
   -4.8823    5.8433  -17.0094 C   0  0  0  0  0  0  0  0  0  0  0  0
   -6.1222    5.8242  -16.3666 C   0  0  0  0  0  0  0  0  0  0  0  0
   -7.1816    5.1620  -16.9467 C   0  0  0  0  0  0  0  0  0  0  0  0
   -8.3127    4.8780  -16.1849 C   0  0  0  0  0  0  0  0  0  0  0  0
   -9.3234    4.1517  -16.7582 C   0  0  0  0  0  0  0  0  0  0  0  0
   -9.2323    3.7952  -18.0875 C   0  0  0  0  0  0  0  0  0  0  0  0
   -8.1051    4.0948  -18.8431 C   0  0  0  0  0  0  0  0  0  0  0  0
   -7.0343    4.7265  -18.2693 C   0  0  0  0  0  0  0  0  0  0  0  0
   -5.8853    4.8414  -18.9469 N   0  0  0  0  0  0  0  0  0  0  0  0
   -4.8194    5.3360  -18.3036 C   0  0  0  0  0  0  0  0  0  0  0  0
   -3.6121    5.0994  -18.9609 N   0  0  0  0  0  0  0  0  0  0  0  0
   -3.1927    6.1145  -19.9170 C   0  0  2  0  0  0  0  0  0  0  0  0
   -2.0096    5.5071  -20.6196 C   0  0  0  0  0  0  0  0  0  0  0  0
   -0.8443    6.0170  -20.2048 C   0  0  0  0  0  0  0  0  0  0  0  0
   -1.0594    7.0563  -19.1587 C   0  0  0  0  0  0  0  0  0  0  0  0
   -2.5514    7.3618  -19.3071 C   0  0  0  0  0  0  0  0  0  0  0  0
  1  2  1  0
  2  3  1  0
  3  4  2  0
  4  5  1  0
  5  6  2  0
  6  7  1  0
  7  8  2  0
  8  9  1  0
  9 10  2  0
 10 11  1  0
 11 12  2  0
 12 13  1  0
 14 13  1  1
 14 15  1  0
 15 16  2  0
 16 17  1  0
 17 18  1  0
 12  3  1  0
 18 14  1  0
 10  5  1  0
M  END
>  <energy_score>  (1999) 
-6.347764

>  <alias>  (1999) 
None

>  <HIPPO Pose ID>  (1999) 
73231

>  <smiles>  (1999) 
BrCc1cc2ccccc2nc1N[C@@H]1C=CCC1

>  <inchikey>  (1999) 
NSEWCFIZYOPVAP-CYBMUJFWSA-N

>  <distance_score>  (1999) 
1.982801

>  <ref_mols>  (1999) 
Z1688a,Z0089a

>  <ref_pdb>  (1999) 
Z1688a

>  <HIPPO Compound ID>  (1999) 
146307

>  <name>  (1999) 
P73231

>  <inspiration_score>  (1999) 
None

$$$$
P73232
     RDKit          3D

 18 20  0  0  0  0  0  0  0  0999 V2000
   -0.4328    5.2170  -19.0413 S   0  0  0  0  0  0  0  0  0  0  0  0
   -2.1526    4.8469  -19.5008 C   0  0  0  0  0  0  0  0  0  0  0  0
   -3.0586    5.9803  -19.0445 C   0  0  0  0  0  0  0  0  0  0  0  0
   -3.4643    5.9431  -17.6106 N   0  0  0  0  0  0  0  0  0  0  0  0
   -4.7262    5.4547  -17.2163 C   0  0  0  0  0  0  0  0  0  0  0  0
   -5.1636    5.6420  -15.8994 C   0  0  0  0  0  0  0  0  0  0  0  0
   -6.4919    5.3394  -15.5221 C   0  0  0  0  0  0  0  0  0  0  0  0
   -6.9760    5.7033  -14.1415 C   0  0  0  0  0  0  0  0  0  0  0  0
   -7.1962    4.1682  -12.9863 Br  0  0  0  0  0  0  0  0  0  0  0  0
   -7.3512    4.8367  -16.5227 C   0  0  0  0  0  0  0  0  0  0  0  0
   -8.7172    4.5270  -16.3361 C   0  0  0  0  0  0  0  0  0  0  0  0
   -9.5275    4.2009  -17.4216 C   0  0  0  0  0  0  0  0  0  0  0  0
   -8.9764    4.1385  -18.6885 C   0  0  0  0  0  0  0  0  0  0  0  0
   -7.6181    4.3427  -18.8668 C   0  0  0  0  0  0  0  0  0  0  0  0
   -6.8066    4.6987  -17.8194 C   0  0  0  0  0  0  0  0  0  0  0  0
   -5.5418    4.9618  -18.1416 N   0  0  0  0  0  0  0  0  0  0  0  0
   -2.7821    7.3656  -19.6203 C   0  0  0  0  0  0  0  0  0  0  0  0
   -3.9823    6.6100  -20.0783 C   0  0  0  0  0  0  0  0  0  0  0  0
  1  2  1  0
  2  3  1  0
  3  4  1  0
  4  5  1  0
  5  6  2  0
  6  7  1  0
  7  8  1  0
  8  9  1  0
  7 10  2  0
 10 11  1  0
 11 12  2  0
 12 13  1  0
 13 14  2  0
 14 15  1  0
 15 16  2  0
  3 17  1  0
 17 18  1  0
 18  3  1  0
 16  5  1  0
 15 10  1  0
M  END
>  <energy_score>  (2000) 
-33.241183

>  <alias>  (2000) 
None

>  <HIPPO Pose ID>  (2000) 
73232

>  <smiles>  (2000) 
SCC1(Nc2cc(CBr)c3ccccc3n2)CC1

>  <inchikey>  (2000) 
QGGTWGDRKFOQBM-UHFFFAOYSA-N

>  <distance_score>  (2000) 
1.028787

>  <ref_mols>  (2000) 
Z1688a,Z0089a

>  <ref_pdb>  (2000) 
Z1688a

>  <HIPPO Compound ID>  (2000) 
146310

>  <name>  (2000) 
P73232

>  <inspiration_score>  (2000) 
None

$$$$
P73233
     RDKit          3D

 18 20  0  0  0  0  0  0  0  0999 V2000
   -0.0098    5.6572  -18.8438 S   0  0  0  0  0  0  0  0  0  0  0  0
   -1.5267    4.8989  -19.4714 C   0  0  0  0  0  0  0  0  0  0  0  0
   -2.6951    5.8537  -19.7345 C   0  0  0  0  0  0  0  0  0  0  0  0
   -4.0053    5.2017  -19.6665 N   0  0  0  0  0  0  0  0  0  0  0  0
   -4.9792    5.2348  -18.6767 C   0  0  0  0  0  0  0  0  0  0  0  0
   -6.1494    4.7707  -19.1560 N   0  0  0  0  0  0  0  0  0  0  0  0
   -7.1992    4.6304  -18.3387 C   0  0  0  0  0  0  0  0  0  0  0  0
   -8.3946    4.1374  -18.8022 C   0  0  0  0  0  0  0  0  0  0  0  0
   -9.4470    3.8902  -17.9271 C   0  0  0  0  0  0  0  0  0  0  0  0
   -9.3096    4.1178  -16.5738 C   0  0  0  0  0  0  0  0  0  0  0  0
   -8.1647    4.6941  -16.0950 C   0  0  0  0  0  0  0  0  0  0  0  0
   -7.1306    4.9543  -16.9868 C   0  0  0  0  0  0  0  0  0  0  0  0
   -5.9665    5.5193  -16.5222 C   0  0  0  0  0  0  0  0  0  0  0  0
   -4.8353    5.6249  -17.3427 C   0  0  0  0  0  0  0  0  0  0  0  0
   -3.5758    6.1757  -16.7694 C   0  0  0  0  0  0  0  0  0  0  0  0
   -3.3925    5.8963  -14.8427 Br  0  0  0  0  0  0  0  0  0  0  0  0
   -2.6123    7.3688  -19.5817 C   0  0  0  0  0  0  0  0  0  0  0  0
   -2.4974    6.7700  -20.9410 C   0  0  0  0  0  0  0  0  0  0  0  0
  1  2  1  0
  2  3  1  0
  3  4  1  0
  4  5  1  0
  5  6  2  0
  6  7  1  0
  7  8  2  0
  8  9  1  0
  9 10  2  0
 10 11  1  0
 11 12  2  0
 12 13  1  0
 13 14  2  0
 14 15  1  0
 15 16  1  0
  3 17  1  0
 17 18  1  0
 18  3  1  0
 14  5  1  0
 12  7  1  0
M  END
>  <energy_score>  (2001) 
-93.727561

>  <alias>  (2001) 
None

>  <HIPPO Pose ID>  (2001) 
73233

>  <smiles>  (2001) 
SCC1(Nc2nc3ccccc3cc2CBr)CC1

>  <inchikey>  (2001) 
VLAIJEXVQWGKFE-UHFFFAOYSA-N

>  <distance_score>  (2001) 
1.930913

>  <ref_mols>  (2001) 
Z1688a,Z0089a

>  <ref_pdb>  (2001) 
Z1688a

>  <HIPPO Compound ID>  (2001) 
146311

>  <name>  (2001) 
P73233

>  <inspiration_score>  (2001) 
None

$$$$
P73236
     RDKit          3D

 18 19  0  0  0  0  0  0  0  0999 V2000
   -1.5818    5.1100  -21.2836 C   0  0  0  0  0  0  0  0  0  0  0  0
   -1.7056    4.7110  -19.8186 C   0  0  0  0  0  0  0  0  0  0  0  0
   -2.4853    5.7052  -18.9447 C   0  0  1  0  0  0  0  0  0  0  0  0
   -2.0039    7.1591  -19.1337 C   0  0  0  0  0  0  0  0  0  0  0  0
   -2.8720    8.0740  -18.4616 O   0  0  0  0  0  0  0  0  0  0  0  0
   -3.9193    5.6556  -19.2235 N   0  0  0  0  0  0  0  0  0  0  0  0
   -4.9164    5.3785  -18.3220 C   0  0  0  0  0  0  0  0  0  0  0  0
   -6.0238    4.9281  -18.9367 N   0  0  0  0  0  0  0  0  0  0  0  0
   -7.1213    4.6506  -18.2112 C   0  0  0  0  0  0  0  0  0  0  0  0
   -8.2837    4.2511  -18.8187 C   0  0  0  0  0  0  0  0  0  0  0  0
   -9.4179    3.9814  -18.0629 C   0  0  0  0  0  0  0  0  0  0  0  0
   -9.3914    4.0352  -16.6864 C   0  0  0  0  0  0  0  0  0  0  0  0
   -8.2568    4.4407  -16.0440 C   0  0  0  0  0  0  0  0  0  0  0  0
   -7.1509    4.7670  -16.8155 C   0  0  0  0  0  0  0  0  0  0  0  0
   -6.0279    5.2342  -16.1868 C   0  0  0  0  0  0  0  0  0  0  0  0
   -4.9107    5.5751  -16.9442 C   0  0  0  0  0  0  0  0  0  0  0  0
   -3.8710    6.1447  -16.1711 C   0  0  0  0  0  0  0  0  0  0  0  0
   -3.1373    6.5690  -15.3817 N   0  0  0  0  0  0  0  0  0  0  0  0
  1  2  1  0
  3  2  1  6
  3  4  1  0
  4  5  1  0
  3  6  1  0
  6  7  1  0
  7  8  2  0
  8  9  1  0
  9 10  2  0
 10 11  1  0
 11 12  2  0
 12 13  1  0
 13 14  2  0
 14 15  1  0
 15 16  2  0
 16 17  1  0
 17 18  3  0
 16  7  1  0
 14  9  1  0
M  END
>  <energy_score>  (2002) 
-18.677189

>  <alias>  (2002) 
None

>  <HIPPO Pose ID>  (2002) 
73236

>  <smiles>  (2002) 
CC[C@@H](CO)Nc1nc2ccccc2cc1C#N

>  <inchikey>  (2002) 
KRBGFBZXSPPPOT-LBPRGKRZSA-N

>  <distance_score>  (2002) 
1.953241

>  <ref_mols>  (2002) 
Z1688a,Z0089a

>  <ref_pdb>  (2002) 
Z1688a

>  <HIPPO Compound ID>  (2002) 
146313

>  <name>  (2002) 
P73236

>  <inspiration_score>  (2002) 
None

$$$$
P73237
     RDKit          3D

 18 19  0  0  0  0  0  0  0  0999 V2000
   -1.6948    4.1588  -20.3998 C   0  0  0  0  0  0  0  0  0  0  0  0
   -2.0419    4.5536  -18.9814 C   0  0  0  0  0  0  0  0  0  0  0  0
   -3.1127    5.6485  -18.9009 C   0  0  2  0  0  0  0  0  0  0  0  0
   -2.6158    7.0040  -19.4430 C   0  0  0  0  0  0  0  0  0  0  0  0
   -2.5489    7.0320  -20.8688 O   0  0  0  0  0  0  0  0  0  0  0  0
   -3.5088    5.8270  -17.4934 N   0  0  0  0  0  0  0  0  0  0  0  0
   -4.8069    5.4561  -17.1374 C   0  0  0  0  0  0  0  0  0  0  0  0
   -5.2504    5.6251  -15.8230 C   0  0  0  0  0  0  0  0  0  0  0  0
   -6.5873    5.3437  -15.4654 C   0  0  0  0  0  0  0  0  0  0  0  0
   -7.0763    5.6856  -14.0829 C   0  0  0  0  0  0  0  0  0  0  0  0
   -7.2471    4.1382  -12.9377 Br  0  0  0  0  0  0  0  0  0  0  0  0
   -7.4415    4.8587  -16.4787 C   0  0  0  0  0  0  0  0  0  0  0  0
   -8.8021    4.5256  -16.3063 C   0  0  0  0  0  0  0  0  0  0  0  0
   -9.6006    4.2067  -17.4038 C   0  0  0  0  0  0  0  0  0  0  0  0
   -9.0417    4.1708  -18.6680 C   0  0  0  0  0  0  0  0  0  0  0  0
   -7.6877    4.3984  -18.8333 C   0  0  0  0  0  0  0  0  0  0  0  0
   -6.8941    4.7561  -17.7748 C   0  0  0  0  0  0  0  0  0  0  0  0
   -5.6354    5.0437  -18.0854 N   0  0  0  0  0  0  0  0  0  0  0  0
  1  2  1  0
  3  2  1  1
  3  4  1  0
  4  5  1  0
  3  6  1  0
  6  7  1  0
  7  8  2  0
  8  9  1  0
  9 10  1  0
 10 11  1  0
  9 12  2  0
 12 13  1  0
 13 14  2  0
 14 15  1  0
 15 16  2  0
 16 17  1  0
 17 18  2  0
 18  7  1  0
 17 12  1  0
M  END
>  <energy_score>  (2003) 
-21.38218

>  <alias>  (2003) 
None

>  <HIPPO Pose ID>  (2003) 
73237

>  <smiles>  (2003) 
CC[C@H](CO)Nc1cc(CBr)c2ccccc2n1

>  <inchikey>  (2003) 
ZNEWNVHABFPWGP-LLVKDONJSA-N

>  <distance_score>  (2003) 
0.997419

>  <ref_mols>  (2003) 
Z1688a,Z0089a

>  <ref_pdb>  (2003) 
Z1688a

>  <HIPPO Compound ID>  (2003) 
146315

>  <name>  (2003) 
P73237

>  <inspiration_score>  (2003) 
None

$$$$
P73240
     RDKit          3D

 18 20  0  0  0  0  0  0  0  0999 V2000
   -4.1181    6.8427  -15.1022 O   0  0  0  0  0  0  0  0  0  0  0  0
   -3.6981    6.2646  -16.3392 C   0  0  0  0  0  0  0  0  0  0  0  0
   -4.8596    5.6203  -17.0214 C   0  0  0  0  0  0  0  0  0  0  0  0
   -5.9404    5.2209  -16.2366 C   0  0  0  0  0  0  0  0  0  0  0  0
   -7.0948    4.7690  -16.8297 C   0  0  0  0  0  0  0  0  0  0  0  0
   -8.1696    4.4232  -16.0210 C   0  0  0  0  0  0  0  0  0  0  0  0
   -9.3370    4.0332  -16.6177 C   0  0  0  0  0  0  0  0  0  0  0  0
   -9.4279    4.0023  -17.9926 C   0  0  0  0  0  0  0  0  0  0  0  0
   -8.3263    4.2974  -18.7887 C   0  0  0  0  0  0  0  0  0  0  0  0
   -7.1362    4.6944  -18.2275 C   0  0  0  0  0  0  0  0  0  0  0  0
   -6.0808    5.0005  -18.9982 N   0  0  0  0  0  0  0  0  0  0  0  0
   -4.9436    5.4313  -18.4046 C   0  0  0  0  0  0  0  0  0  0  0  0
   -3.8643    5.7147  -19.2749 N   0  0  0  0  0  0  0  0  0  0  0  0
   -4.1652    5.9799  -20.6179 O   0  0  0  0  0  0  0  0  0  0  0  0
   -2.4984    5.3324  -19.0485 C   0  0  0  0  0  0  0  0  0  0  0  0
   -1.7672    4.6226  -20.2106 C   0  0  0  0  0  0  0  0  0  0  0  0
   -0.5354    5.4843  -19.8512 C   0  0  0  0  0  0  0  0  0  0  0  0
   -1.5149    6.5090  -19.2442 C   0  0  0  0  0  0  0  0  0  0  0  0
  1  2  1  0
  2  3  1  0
  3  4  2  0
  4  5  1  0
  5  6  2  0
  6  7  1  0
  7  8  2  0
  8  9  1  0
  9 10  2  0
 10 11  1  0
 11 12  2  0
 12 13  1  0
 13 14  1  0
 13 15  1  0
 15 16  1  0
 16 17  1  0
 17 18  1  0
 12  3  1  0
 18 15  1  0
 10  5  1  0
M  END
>  <energy_score>  (2004) 
-21.132767

>  <alias>  (2004) 
None

>  <HIPPO Pose ID>  (2004) 
73240

>  <smiles>  (2004) 
OCc1cc2ccccc2nc1N(O)C1CCC1

>  <inchikey>  (2004) 
WSILNFIWNQCZPE-UHFFFAOYSA-N

>  <distance_score>  (2004) 
1.915681

>  <ref_mols>  (2004) 
Z1688a,Z0089a

>  <ref_pdb>  (2004) 
Z1688a

>  <HIPPO Compound ID>  (2004) 
146317

>  <name>  (2004) 
P73240

>  <inspiration_score>  (2004) 
None

$$$$
P73242
     RDKit          3D

 18 21  0  0  0  0  0  0  0  0999 V2000
   -3.2469    6.8859  -15.5479 N   0  0  0  0  0  0  0  0  0  0  0  0
   -3.9270    6.3238  -16.2989 C   0  0  0  0  0  0  0  0  0  0  0  0
   -4.9313    5.6333  -17.0128 C   0  0  0  0  0  0  0  0  0  0  0  0
   -5.9984    5.2224  -16.2202 C   0  0  0  0  0  0  0  0  0  0  0  0
   -7.1357    4.7453  -16.8191 C   0  0  0  0  0  0  0  0  0  0  0  0
   -8.2134    4.4002  -16.0175 C   0  0  0  0  0  0  0  0  0  0  0  0
   -9.3717    4.0092  -16.6275 C   0  0  0  0  0  0  0  0  0  0  0  0
   -9.4485    3.9732  -18.0033 C   0  0  0  0  0  0  0  0  0  0  0  0
   -8.3406    4.2594  -18.7917 C   0  0  0  0  0  0  0  0  0  0  0  0
   -7.1598    4.6592  -18.2178 C   0  0  0  0  0  0  0  0  0  0  0  0
   -6.0989    4.9808  -18.9766 N   0  0  0  0  0  0  0  0  0  0  0  0
   -4.9907    5.4671  -18.3885 C   0  0  0  0  0  0  0  0  0  0  0  0
   -4.0156    5.8422  -19.3125 N   0  0  0  0  0  0  0  0  0  0  0  0
   -2.6487    5.6362  -19.2731 C   0  0  0  0  0  0  0  0  0  0  0  0
   -1.8893    4.3516  -19.6437 C   0  0  0  0  0  0  0  0  0  0  0  0
   -0.7485    5.4270  -19.4602 C   0  0  0  0  0  0  0  0  0  0  0  0
   -1.7111    6.3711  -20.2664 C   0  0  0  0  0  0  0  0  0  0  0  0
   -1.5802    5.9027  -18.2077 C   0  0  0  0  0  0  0  0  0  0  0  0
  1  2  3  0
  2  3  1  0
  3  4  2  0
  4  5  1  0
  5  6  2  0
  6  7  1  0
  7  8  2  0
  8  9  1  0
  9 10  2  0
 10 11  1  0
 11 12  2  0
 12 13  1  0
 13 14  1  0
 14 15  1  0
 15 16  1  0
 16 17  1  0
 16 18  1  0
 12  3  1  0
 17 14  1  0
 10  5  1  0
 18 14  1  0
M  END
>  <energy_score>  (2005) 
-31.606322

>  <alias>  (2005) 
None

>  <HIPPO Pose ID>  (2005) 
73242

>  <smiles>  (2005) 
N#Cc1cc2ccccc2nc1NC12CC(C1)C2

>  <inchikey>  (2005) 
MGKBRHPSXZPGTJ-LGZQZNNBSA-N

>  <distance_score>  (2005) 
1.963967

>  <ref_mols>  (2005) 
Z1688a,Z0089a

>  <ref_pdb>  (2005) 
Z1688a

>  <HIPPO Compound ID>  (2005) 
146319

>  <name>  (2005) 
P73242

>  <inspiration_score>  (2005) 
None

$$$$
P73243
     RDKit          3D

 18 21  0  0  0  0  0  0  0  0999 V2000
   -3.9261    6.7384  -15.3221 O   0  0  0  0  0  0  0  0  0  0  0  0
   -3.6671    6.3476  -16.6739 C   0  0  0  0  0  0  0  0  0  0  0  0
   -4.8499    5.6687  -17.2707 C   0  0  0  0  0  0  0  0  0  0  0  0
   -5.8773    5.2708  -16.4087 C   0  0  0  0  0  0  0  0  0  0  0  0
   -7.0617    4.7830  -16.9093 C   0  0  0  0  0  0  0  0  0  0  0  0
   -8.0892    4.4578  -16.0314 C   0  0  0  0  0  0  0  0  0  0  0  0
   -9.2868    4.0413  -16.5482 C   0  0  0  0  0  0  0  0  0  0  0  0
   -9.4563    3.9665  -17.9153 C   0  0  0  0  0  0  0  0  0  0  0  0
   -8.4003    4.2441  -18.7783 C   0  0  0  0  0  0  0  0  0  0  0  0
   -7.1803    4.6564  -18.2938 C   0  0  0  0  0  0  0  0  0  0  0  0
   -6.1675    4.9400  -19.1259 N   0  0  0  0  0  0  0  0  0  0  0  0
   -5.0199    5.4411  -18.6332 C   0  0  0  0  0  0  0  0  0  0  0  0
   -4.1153    5.7402  -19.6498 N   0  0  0  0  0  0  0  0  0  0  0  0
   -2.7397    5.6812  -19.7019 C   0  0  0  0  0  0  0  0  0  0  0  0
   -1.7740    4.5694  -19.2946 C   0  0  0  0  0  0  0  0  0  0  0  0
   -0.8449    5.6297  -20.0170 C   0  0  0  0  0  0  0  0  0  0  0  0
   -1.6939    6.7131  -19.2484 C   0  0  0  0  0  0  0  0  0  0  0  0
   -1.9985    5.6943  -21.0750 C   0  0  0  0  0  0  0  0  0  0  0  0
  1  2  1  0
  2  3  1  0
  3  4  2  0
  4  5  1  0
  5  6  2  0
  6  7  1  0
  7  8  2  0
  8  9  1  0
  9 10  2  0
 10 11  1  0
 11 12  2  0
 12 13  1  0
 13 14  1  0
 14 15  1  0
 15 16  1  0
 16 17  1  0
 16 18  1  0
 12  3  1  0
 17 14  1  0
 10  5  1  0
 18 14  1  0
M  END
>  <energy_score>  (2006) 
-25.275567

>  <alias>  (2006) 
None

>  <HIPPO Pose ID>  (2006) 
73243

>  <smiles>  (2006) 
OCc1cc2ccccc2nc1NC12CC(C1)C2

>  <inchikey>  (2006) 
KIDYUHHQLDMPFE-LGZQZNNBSA-N

>  <distance_score>  (2006) 
1.902837

>  <ref_mols>  (2006) 
Z1688a,Z0089a

>  <ref_pdb>  (2006) 
Z1688a

>  <HIPPO Compound ID>  (2006) 
146320

>  <name>  (2006) 
P73243

>  <inspiration_score>  (2006) 
None

$$$$
P73247
     RDKit          3D

 18 19  0  0  0  0  0  0  0  0999 V2000
   -1.4030    3.7372  -19.6786 C   0  0  0  0  0  0  0  0  0  0  0  0
   -2.3761    4.5613  -18.8620 C   0  0  0  0  0  0  0  0  0  0  0  0
   -2.8152    5.8349  -19.5903 C   0  0  2  0  0  0  0  0  0  0  0  0
   -1.9666    7.0780  -19.2518 C   0  0  0  0  0  0  0  0  0  0  0  0
   -0.3432    7.1402  -20.0778 S   0  0  0  0  0  0  0  0  0  0  0  0
   -4.2378    6.1701  -19.4370 N   0  0  0  0  0  0  0  0  0  0  0  0
   -5.0846    5.7045  -18.4585 C   0  0  0  0  0  0  0  0  0  0  0  0
   -6.1708    5.1300  -18.9994 N   0  0  0  0  0  0  0  0  0  0  0  0
   -7.1734    4.7388  -18.2036 C   0  0  0  0  0  0  0  0  0  0  0  0
   -8.3522    4.2771  -18.7387 C   0  0  0  0  0  0  0  0  0  0  0  0
   -9.4211    3.9411  -17.9165 C   0  0  0  0  0  0  0  0  0  0  0  0
   -9.2998    3.9980  -16.5436 C   0  0  0  0  0  0  0  0  0  0  0  0
   -8.1309    4.4300  -15.9760 C   0  0  0  0  0  0  0  0  0  0  0  0
   -7.0926    4.8205  -16.8120 C   0  0  0  0  0  0  0  0  0  0  0  0
   -5.9475    5.3510  -16.2628 C   0  0  0  0  0  0  0  0  0  0  0  0
   -4.9450    5.8710  -17.0858 C   0  0  0  0  0  0  0  0  0  0  0  0
   -3.8318    6.6272  -16.4475 C   0  0  0  0  0  0  0  0  0  0  0  0
   -4.1641    6.9792  -15.1030 O   0  0  0  0  0  0  0  0  0  0  0  0
  1  2  1  0
  3  2  1  1
  3  4  1  0
  4  5  1  0
  3  6  1  0
  6  7  1  0
  7  8  2  0
  8  9  1  0
  9 10  2  0
 10 11  1  0
 11 12  2  0
 12 13  1  0
 13 14  2  0
 14 15  1  0
 15 16  2  0
 16 17  1  0
 17 18  1  0
 16  7  1  0
 14  9  1  0
M  END
>  <energy_score>  (2007) 
-14.746788

>  <alias>  (2007) 
None

>  <HIPPO Pose ID>  (2007) 
73247

>  <smiles>  (2007) 
CC[C@H](CS)Nc1nc2ccccc2cc1CO

>  <inchikey>  (2007) 
WZAXQNGCXYVRIO-GFCCVEGCSA-N

>  <distance_score>  (2007) 
1.921243

>  <ref_mols>  (2007) 
Z1688a,Z0089a

>  <ref_pdb>  (2007) 
Z1688a

>  <HIPPO Compound ID>  (2007) 
146325

>  <name>  (2007) 
P73247

>  <inspiration_score>  (2007) 
None

$$$$
P73248
     RDKit          3D

 18 19  0  0  0  0  0  0  0  0999 V2000
   -0.4676    5.4338  -18.7716 C   0  0  0  0  0  0  0  0  0  0  0  0
   -1.6863    4.6945  -19.3031 C   0  0  0  0  0  0  0  0  0  0  0  0
   -3.0543    5.3552  -19.0359 C   0  0  2  0  0  0  0  0  0  0  0  0
   -3.1921    6.7740  -19.6273 C   0  0  0  0  0  0  0  0  0  0  0  0
   -2.5636    8.1504  -18.5915 S   0  0  0  0  0  0  0  0  0  0  0  0
   -3.3485    5.3351  -17.5889 N   0  0  0  0  0  0  0  0  0  0  0  0
   -4.7015    5.2392  -17.2331 C   0  0  0  0  0  0  0  0  0  0  0  0
   -5.1040    5.4094  -15.9042 C   0  0  0  0  0  0  0  0  0  0  0  0
   -6.4580    5.2511  -15.5263 C   0  0  0  0  0  0  0  0  0  0  0  0
   -6.8956    5.6177  -14.1322 C   0  0  0  0  0  0  0  0  0  0  0  0
   -7.2053    4.0889  -12.9920 Br  0  0  0  0  0  0  0  0  0  0  0  0
   -7.3659    4.8384  -16.5249 C   0  0  0  0  0  0  0  0  0  0  0  0
   -8.7379    4.5675  -16.3208 C   0  0  0  0  0  0  0  0  0  0  0  0
   -9.5735    4.2717  -17.3970 C   0  0  0  0  0  0  0  0  0  0  0  0
   -9.0483    4.2209  -18.6747 C   0  0  0  0  0  0  0  0  0  0  0  0
   -7.6907    4.4008  -18.8726 C   0  0  0  0  0  0  0  0  0  0  0  0
   -6.8538    4.7183  -17.8342 C   0  0  0  0  0  0  0  0  0  0  0  0
   -5.5842    4.9257  -18.1723 N   0  0  0  0  0  0  0  0  0  0  0  0
  1  2  1  0
  3  2  1  1
  3  4  1  0
  4  5  1  0
  3  6  1  0
  6  7  1  0
  7  8  2  0
  8  9  1  0
  9 10  1  0
 10 11  1  0
  9 12  2  0
 12 13  1  0
 13 14  2  0
 14 15  1  0
 15 16  2  0
 16 17  1  0
 17 18  2  0
 18  7  1  0
 17 12  1  0
M  END
>  <energy_score>  (2008) 
-39.26333

>  <alias>  (2008) 
None

>  <HIPPO Pose ID>  (2008) 
73248

>  <smiles>  (2008) 
CC[C@H](CS)Nc1cc(CBr)c2ccccc2n1

>  <inchikey>  (2008) 
QMUFRKFMTSRTRJ-LLVKDONJSA-N

>  <distance_score>  (2008) 
1.020809

>  <ref_mols>  (2008) 
Z1688a,Z0089a

>  <ref_pdb>  (2008) 
Z1688a

>  <HIPPO Compound ID>  (2008) 
146326

>  <name>  (2008) 
P73248

>  <inspiration_score>  (2008) 
None

$$$$
P73250
     RDKit          3D

 18 19  0  0  0  0  0  0  0  0999 V2000
   -0.0647    5.5169  -19.3023 C   0  0  0  0  0  0  0  0  0  0  0  0
   -1.4390    4.9194  -19.5881 C   0  0  0  0  0  0  0  0  0  0  0  0
   -2.5780    5.8904  -19.2120 C   0  0  1  0  0  0  0  0  0  0  0  0
   -2.6956    7.0538  -20.2092 C   0  0  0  0  0  0  0  0  0  0  0  0
   -3.7527    8.4232  -19.6128 S   0  0  0  0  0  0  0  0  0  0  0  0
   -3.7939    5.1039  -19.1653 N   0  0  0  0  0  0  0  0  0  0  0  0
   -4.8613    5.2256  -18.3182 C   0  0  0  0  0  0  0  0  0  0  0  0
   -5.9859    4.8351  -18.9417 N   0  0  0  0  0  0  0  0  0  0  0  0
   -7.1085    4.6754  -18.2333 C   0  0  0  0  0  0  0  0  0  0  0  0
   -8.2453    4.1892  -18.8250 C   0  0  0  0  0  0  0  0  0  0  0  0
   -9.3705    3.9121  -18.0592 C   0  0  0  0  0  0  0  0  0  0  0  0
   -9.3759    4.1061  -16.6953 C   0  0  0  0  0  0  0  0  0  0  0  0
   -8.2864    4.6632  -16.0876 C   0  0  0  0  0  0  0  0  0  0  0  0
   -7.1706    4.9450  -16.8668 C   0  0  0  0  0  0  0  0  0  0  0  0
   -6.0494    5.4600  -16.2630 C   0  0  0  0  0  0  0  0  0  0  0  0
   -4.8432    5.5648  -16.9624 C   0  0  0  0  0  0  0  0  0  0  0  0
   -3.6031    5.9901  -16.2549 C   0  0  0  0  0  0  0  0  0  0  0  0
   -3.7030    6.0143  -14.3107 Br  0  0  0  0  0  0  0  0  0  0  0  0
  1  2  1  0
  3  2  1  6
  3  4  1  0
  4  5  1  0
  3  6  1  0
  6  7  1  0
  7  8  2  0
  8  9  1  0
  9 10  2  0
 10 11  1  0
 11 12  2  0
 12 13  1  0
 13 14  2  0
 14 15  1  0
 15 16  2  0
 16 17  1  0
 17 18  1  0
 16  7  1  0
 14  9  1  0
M  END
>  <energy_score>  (2009) 
-18.712954

>  <alias>  (2009) 
None

>  <HIPPO Pose ID>  (2009) 
73250

>  <smiles>  (2009) 
CC[C@@H](CS)Nc1nc2ccccc2cc1CBr

>  <inchikey>  (2009) 
ZRWDAPAQZFKKNR-LBPRGKRZSA-N

>  <distance_score>  (2009) 
1.95301

>  <ref_mols>  (2009) 
Z1688a,Z0089a

>  <ref_pdb>  (2009) 
Z1688a

>  <HIPPO Compound ID>  (2009) 
146327

>  <name>  (2009) 
P73250

>  <inspiration_score>  (2009) 
None

$$$$
P73253
     RDKit          3D

 18 21  0  0  0  0  0  0  0  0999 V2000
   -7.2854    5.2450  -13.4756 O   0  0  0  0  0  0  0  0  0  0  0  0
   -6.2902    5.4253  -14.1650 C   0  0  0  0  0  0  0  0  0  0  0  0
   -6.1969    5.2974  -15.6559 C   0  0  0  0  0  0  0  0  0  0  0  0
   -4.9999    5.7205  -16.2757 C   0  0  0  0  0  0  0  0  0  0  0  0
   -4.9085    5.6809  -17.6597 C   0  0  0  0  0  0  0  0  0  0  0  0
   -3.8903    6.2225  -18.4342 N   0  0  0  0  0  0  0  0  0  0  0  0
   -2.5566    5.8901  -18.3704 C   0  0  0  0  0  0  0  0  0  0  0  0
   -1.8999    4.6248  -18.9408 C   0  0  0  0  0  0  0  0  0  0  0  0
   -0.6862    5.4930  -18.4161 C   0  0  0  0  0  0  0  0  0  0  0  0
   -1.4530    6.6912  -19.0958 C   0  0  0  0  0  0  0  0  0  0  0  0
   -1.6150    5.8059  -17.1709 C   0  0  0  0  0  0  0  0  0  0  0  0
   -5.8849    5.2053  -18.4120 N   0  0  0  0  0  0  0  0  0  0  0  0
   -7.0079    4.8050  -17.8418 C   0  0  0  0  0  0  0  0  0  0  0  0
   -7.9692    4.4056  -18.7275 C   0  0  0  0  0  0  0  0  0  0  0  0
   -9.2341    4.0968  -18.2893 C   0  0  0  0  0  0  0  0  0  0  0  0
   -9.5086    4.0827  -16.9397 C   0  0  0  0  0  0  0  0  0  0  0  0
   -8.5306    4.4210  -16.0143 C   0  0  0  0  0  0  0  0  0  0  0  0
   -7.2580    4.8321  -16.4556 C   0  0  0  0  0  0  0  0  0  0  0  0
  1  2  2  0
  2  3  1  0
  3  4  2  0
  4  5  1  0
  5  6  1  0
  6  7  1  0
  7  8  1  0
  8  9  1  0
  9 10  1  0
  9 11  1  0
  5 12  2  0
 12 13  1  0
 13 14  2  0
 14 15  1  0
 15 16  2  0
 16 17  1  0
 17 18  2  0
 18  3  1  0
 10  7  1  0
 18 13  1  0
 11  7  1  0
M  END
>  <energy_score>  (2010) 
-29.648939

>  <alias>  (2010) 
None

>  <HIPPO Pose ID>  (2010) 
73253

>  <smiles>  (2010) 
O=Cc1cc(NC23CC(C2)C3)nc2ccccc12

>  <inchikey>  (2010) 
MZKHEFBPZFLZGN-LGZQZNNBSA-N

>  <distance_score>  (2010) 
1.137351

>  <ref_mols>  (2010) 
Z1688a,Z0089a

>  <ref_pdb>  (2010) 
Z1688a

>  <HIPPO Compound ID>  (2010) 
146330

>  <name>  (2010) 
P73253

>  <inspiration_score>  (2010) 
None

$$$$
P73255
     RDKit          3D

 18 20  0  0  0  0  0  0  0  0999 V2000
   -3.1244    6.7654  -15.6413 N   0  0  0  0  0  0  0  0  0  0  0  0
   -3.8774    6.2384  -16.3455 C   0  0  0  0  0  0  0  0  0  0  0  0
   -4.9379    5.6062  -17.0343 C   0  0  0  0  0  0  0  0  0  0  0  0
   -6.0408    5.3151  -16.2421 C   0  0  0  0  0  0  0  0  0  0  0  0
   -7.1700    4.8088  -16.8314 C   0  0  0  0  0  0  0  0  0  0  0  0
   -8.2517    4.4932  -16.0251 C   0  0  0  0  0  0  0  0  0  0  0  0
   -9.3896    4.0380  -16.6272 C   0  0  0  0  0  0  0  0  0  0  0  0
   -9.4551    3.9451  -18.0009 C   0  0  0  0  0  0  0  0  0  0  0  0
   -8.3472    4.2160  -18.7936 C   0  0  0  0  0  0  0  0  0  0  0  0
   -7.1728    4.6365  -18.2240 C   0  0  0  0  0  0  0  0  0  0  0  0
   -6.0882    4.8655  -18.9812 N   0  0  0  0  0  0  0  0  0  0  0  0
   -4.9676    5.3183  -18.3939 C   0  0  0  0  0  0  0  0  0  0  0  0
   -3.9006    5.4432  -19.2791 N   0  0  0  0  0  0  0  0  0  0  0  0
   -2.5098    5.4364  -18.9968 C   0  0  1  0  0  0  0  0  0  0  0  0
   -1.6563    4.7503  -20.0796 C   0  0  0  0  0  0  0  0  0  0  0  0
   -0.6738    5.9454  -19.9824 C   0  0  2  0  0  0  0  0  0  0  0  0
    0.8427    5.7282  -18.7848 Br  0  0  0  0  0  0  0  0  0  0  0  0
   -1.8443    6.7695  -19.3966 C   0  0  0  0  0  0  0  0  0  0  0  0
  1  2  3  0
  2  3  1  0
  3  4  2  0
  4  5  1  0
  5  6  2  0
  6  7  1  0
  7  8  2  0
  8  9  1  0
  9 10  2  0
 10 11  1  0
 11 12  2  0
 12 13  1  0
 14 13  1  6
 14 15  1  0
 15 16  1  0
 16 17  1  1
 16 18  1  0
 12  3  1  0
 18 14  1  0
 10  5  1  0
M  END
>  <energy_score>  (2011) 
-16.502169

>  <alias>  (2011) 
None

>  <HIPPO Pose ID>  (2011) 
73255

>  <smiles>  (2011) 
N#Cc1cc2ccccc2nc1N[C@H]1C[C@H](Br)C1

>  <inchikey>  (2011) 
GXFKXVSZIXEIGP-HAQNSBGRSA-N

>  <distance_score>  (2011) 
1.949452

>  <ref_mols>  (2011) 
Z1688a,Z0089a

>  <ref_pdb>  (2011) 
Z1688a

>  <HIPPO Compound ID>  (2011) 
146331

>  <name>  (2011) 
P73255

>  <inspiration_score>  (2011) 
None

$$$$
P73257
     RDKit          3D

 18 20  0  0  0  0  0  0  0  0999 V2000
   -7.0144    4.1599  -13.0490 Br  0  0  0  0  0  0  0  0  0  0  0  0
   -6.7230    5.6923  -14.1942 C   0  0  0  0  0  0  0  0  0  0  0  0
   -6.3725    5.3372  -15.6185 C   0  0  0  0  0  0  0  0  0  0  0  0
   -5.0920    5.6658  -16.1322 C   0  0  0  0  0  0  0  0  0  0  0  0
   -4.8444    5.5506  -17.4977 C   0  0  0  0  0  0  0  0  0  0  0  0
   -3.7397    6.0825  -18.1613 N   0  0  0  0  0  0  0  0  0  0  0  0
   -2.4156    5.5431  -18.0961 C   0  0  1  0  0  0  0  0  0  0  0  0
   -2.0855    4.6057  -19.2801 C   0  0  0  0  0  0  0  0  0  0  0  0
   -0.8603    5.4803  -19.6112 C   0  0  1  0  0  0  0  0  0  0  0  0
   -0.7028    6.0251  -21.4690 Br  0  0  0  0  0  0  0  0  0  0  0  0
   -1.4158    6.5672  -18.6710 C   0  0  0  0  0  0  0  0  0  0  0  0
   -5.7380    5.0695  -18.3435 N   0  0  0  0  0  0  0  0  0  0  0  0
   -6.9306    4.7357  -17.8816 C   0  0  0  0  0  0  0  0  0  0  0  0
   -7.8122    4.3535  -18.8519 C   0  0  0  0  0  0  0  0  0  0  0  0
   -9.1382    4.1374  -18.5502 C   0  0  0  0  0  0  0  0  0  0  0  0
   -9.5709    4.1904  -17.2406 C   0  0  0  0  0  0  0  0  0  0  0  0
   -8.6752    4.5209  -16.2262 C   0  0  0  0  0  0  0  0  0  0  0  0
   -7.3357    4.8453  -16.5329 C   0  0  0  0  0  0  0  0  0  0  0  0
  1  2  1  0
  2  3  1  0
  3  4  2  0
  4  5  1  0
  5  6  1  0
  7  6  1  6
  7  8  1  0
  8  9  1  0
  9 10  1  6
  9 11  1  0
  5 12  2  0
 12 13  1  0
 13 14  2  0
 14 15  1  0
 15 16  2  0
 16 17  1  0
 17 18  2  0
 18  3  1  0
 11  7  1  0
 18 13  1  0
M  END
>  <energy_score>  (2012) 
-11.893828

>  <alias>  (2012) 
None

>  <HIPPO Pose ID>  (2012) 
73257

>  <smiles>  (2012) 
BrCc1cc(N[C@H]2C[C@@H](Br)C2)nc2ccccc12

>  <inchikey>  (2012) 
DJIVUKKEWVRSAW-PHIMTYICSA-N

>  <distance_score>  (2012) 
1.006969

>  <ref_mols>  (2012) 
Z1688a,Z0089a

>  <ref_pdb>  (2012) 
Z1688a

>  <HIPPO Compound ID>  (2012) 
146333

>  <name>  (2012) 
P73257

>  <inspiration_score>  (2012) 
None

$$$$
P73260
     RDKit          3D

 18 20  0  0  0  0  0  0  0  0999 V2000
   -4.3092    7.4509  -14.9884 Br  0  0  0  0  0  0  0  0  0  0  0  0
   -3.6990    6.2162  -16.3814 C   0  0  0  0  0  0  0  0  0  0  0  0
   -4.8502    5.5483  -17.0508 C   0  0  0  0  0  0  0  0  0  0  0  0
   -5.9188    5.1159  -16.2619 C   0  0  0  0  0  0  0  0  0  0  0  0
   -7.0870    4.6908  -16.8477 C   0  0  0  0  0  0  0  0  0  0  0  0
   -8.1679    4.3705  -16.0364 C   0  0  0  0  0  0  0  0  0  0  0  0
   -9.3504    4.0279  -16.6321 C   0  0  0  0  0  0  0  0  0  0  0  0
   -9.4498    4.0187  -18.0067 C   0  0  0  0  0  0  0  0  0  0  0  0
   -8.3398    4.2751  -18.8039 C   0  0  0  0  0  0  0  0  0  0  0  0
   -7.1343    4.6223  -18.2423 C   0  0  0  0  0  0  0  0  0  0  0  0
   -6.0630    4.8826  -19.0065 N   0  0  0  0  0  0  0  0  0  0  0  0
   -4.9313    5.3124  -18.4231 C   0  0  0  0  0  0  0  0  0  0  0  0
   -3.8897    5.4802  -19.3329 N   0  0  0  0  0  0  0  0  0  0  0  0
   -2.4910    5.4274  -19.1091 C   0  0  1  0  0  0  0  0  0  0  0  0
   -1.6878    4.6605  -20.1733 C   0  0  0  0  0  0  0  0  0  0  0  0
   -0.6586    5.8230  -20.1429 C   0  0  2  0  0  0  0  0  0  0  0  0
    0.8381    5.6453  -18.9081 Br  0  0  0  0  0  0  0  0  0  0  0  0
   -1.8031    6.7170  -19.6120 C   0  0  0  0  0  0  0  0  0  0  0  0
  1  2  1  0
  2  3  1  0
  3  4  2  0
  4  5  1  0
  5  6  2  0
  6  7  1  0
  7  8  2  0
  8  9  1  0
  9 10  2  0
 10 11  1  0
 11 12  2  0
 12 13  1  0
 14 13  1  6
 14 15  1  0
 15 16  1  0
 16 17  1  1
 16 18  1  0
 12  3  1  0
 18 14  1  0
 10  5  1  0
M  END
>  <energy_score>  (2013) 
-12.794547

>  <alias>  (2013) 
None

>  <HIPPO Pose ID>  (2013) 
73260

>  <smiles>  (2013) 
BrCc1cc2ccccc2nc1N[C@H]1C[C@H](Br)C1

>  <inchikey>  (2013) 
DISMAICLXRBDET-HAQNSBGRSA-N

>  <distance_score>  (2013) 
1.929231

>  <ref_mols>  (2013) 
Z1688a,Z0089a

>  <ref_pdb>  (2013) 
Z1688a

>  <HIPPO Compound ID>  (2013) 
146334

>  <name>  (2013) 
P73260

>  <inspiration_score>  (2013) 
None

$$$$
P73261
     RDKit          3D

 18 20  0  0  0  0  0  0  0  0999 V2000
   -7.4328    5.1824  -13.5267 O   0  0  0  0  0  0  0  0  0  0  0  0
   -6.3913    5.2363  -14.1671 C   0  0  0  0  0  0  0  0  0  0  0  0
   -6.2484    5.1140  -15.6538 C   0  0  0  0  0  0  0  0  0  0  0  0
   -4.9856    5.4166  -16.2154 C   0  0  0  0  0  0  0  0  0  0  0  0
   -4.8322    5.3667  -17.5925 C   0  0  0  0  0  0  0  0  0  0  0  0
   -3.7157    5.7289  -18.3259 N   0  0  0  0  0  0  0  0  0  0  0  0
   -2.3569    5.4392  -18.0564 C   0  0  1  0  0  0  0  0  0  0  0  0
   -1.6339    4.7835  -19.2645 C   0  0  0  0  0  0  0  0  0  0  0  0
   -0.4495    5.7384  -18.9782 C   0  0  1  0  0  0  0  0  0  0  0  0
    0.4576    6.4846  -20.5118 Br  0  0  0  0  0  0  0  0  0  0  0  0
   -1.4730    6.6813  -18.3028 C   0  0  0  0  0  0  0  0  0  0  0  0
   -5.8254    5.0197  -18.3906 N   0  0  0  0  0  0  0  0  0  0  0  0
   -7.0049    4.7229  -17.8745 C   0  0  0  0  0  0  0  0  0  0  0  0
   -7.9524    4.4199  -18.8099 C   0  0  0  0  0  0  0  0  0  0  0  0
   -9.2598    4.2130  -18.4423 C   0  0  0  0  0  0  0  0  0  0  0  0
   -9.5967    4.1733  -17.1068 C   0  0  0  0  0  0  0  0  0  0  0  0
   -8.6361    4.4208  -16.1297 C   0  0  0  0  0  0  0  0  0  0  0  0
   -7.3143    4.7495  -16.5023 C   0  0  0  0  0  0  0  0  0  0  0  0
  1  2  2  0
  2  3  1  0
  3  4  2  0
  4  5  1  0
  5  6  1  0
  7  6  1  6
  7  8  1  0
  8  9  1  0
  9 10  1  6
  9 11  1  0
  5 12  2  0
 12 13  1  0
 13 14  2  0
 14 15  1  0
 15 16  2  0
 16 17  1  0
 17 18  2  0
 18  3  1  0
 11  7  1  0
 18 13  1  0
M  END
>  <energy_score>  (2014) 
-17.025196

>  <alias>  (2014) 
None

>  <HIPPO Pose ID>  (2014) 
73261

>  <smiles>  (2014) 
O=Cc1cc(N[C@H]2C[C@@H](Br)C2)nc2ccccc12

>  <inchikey>  (2014) 
SDHZZFFKCWAGCU-PHIMTYICSA-N

>  <distance_score>  (2014) 
1.13943

>  <ref_mols>  (2014) 
Z1688a,Z0089a

>  <ref_pdb>  (2014) 
Z1688a

>  <HIPPO Compound ID>  (2014) 
146335

>  <name>  (2014) 
P73261

>  <inspiration_score>  (2014) 
None

$$$$
P73264
     RDKit          3D

 18 20  0  0  0  0  0  0  0  0999 V2000
   -0.2200    7.5978  -17.9697 C   0  0  0  0  0  0  0  0  0  0  0  0
   -0.2609    6.2387  -18.6482 C   0  0  0  0  0  0  0  0  0  0  0  0
   -1.4892    6.0757  -19.4917 C   0  0  1  0  0  0  0  0  0  0  0  0
   -1.7404    4.7526  -20.1625 C   0  0  0  0  0  0  0  0  0  0  0  0
   -2.6363    5.2047  -19.0464 C   0  0  2  0  0  0  0  0  0  0  0  0
   -4.0064    5.6250  -19.3412 N   0  0  0  0  0  0  0  0  0  0  0  0
   -5.0417    5.3970  -18.4279 C   0  0  0  0  0  0  0  0  0  0  0  0
   -6.1690    4.9393  -18.9996 N   0  0  0  0  0  0  0  0  0  0  0  0
   -7.2257    4.6661  -18.2210 C   0  0  0  0  0  0  0  0  0  0  0  0
   -8.4114    4.2525  -18.7734 C   0  0  0  0  0  0  0  0  0  0  0  0
   -9.5009    3.9622  -17.9632 C   0  0  0  0  0  0  0  0  0  0  0  0
   -9.3989    4.0212  -16.5897 C   0  0  0  0  0  0  0  0  0  0  0  0
   -8.2450    4.4554  -16.0019 C   0  0  0  0  0  0  0  0  0  0  0  0
   -7.1847    4.7960  -16.8243 C   0  0  0  0  0  0  0  0  0  0  0  0
   -6.0425    5.2896  -16.2476 C   0  0  0  0  0  0  0  0  0  0  0  0
   -4.9683    5.6266  -17.0596 C   0  0  0  0  0  0  0  0  0  0  0  0
   -3.8875    6.2372  -16.3823 C   0  0  0  0  0  0  0  0  0  0  0  0
   -3.1267    6.7217  -15.6558 N   0  0  0  0  0  0  0  0  0  0  0  0
  1  2  1  0
  3  2  1  1
  3  4  1  0
  4  5  1  0
  5  6  1  6
  6  7  1  0
  7  8  2  0
  8  9  1  0
  9 10  2  0
 10 11  1  0
 11 12  2  0
 12 13  1  0
 13 14  2  0
 14 15  1  0
 15 16  2  0
 16 17  1  0
 17 18  3  0
  5  3  1  0
 16  7  1  0
 14  9  1  0
M  END
>  <energy_score>  (2015) 
-12.153747

>  <alias>  (2015) 
None

>  <HIPPO Pose ID>  (2015) 
73264

>  <smiles>  (2015) 
CC[C@H]1C[C@@H]1Nc1nc2ccccc2cc1C#N

>  <inchikey>  (2015) 
OXQPAXXSQQCRSR-HZMBPMFUSA-N

>  <distance_score>  (2015) 
1.960977

>  <ref_mols>  (2015) 
Z1688a,Z0089a

>  <ref_pdb>  (2015) 
Z1688a

>  <HIPPO Compound ID>  (2015) 
146336

>  <name>  (2015) 
P73264

>  <inspiration_score>  (2015) 
None

$$$$
P73271
     RDKit          3D

 18 20  0  0  0  0  0  0  0  0999 V2000
    0.0085    7.4964  -20.4166 C   0  0  0  0  0  0  0  0  0  0  0  0
   -1.3606    7.1861  -19.8316 C   0  0  0  0  0  0  0  0  0  0  0  0
   -1.3971    5.8121  -19.2327 C   0  0  2  0  0  0  0  0  0  0  0  0
   -1.7065    4.6276  -20.1053 C   0  0  0  0  0  0  0  0  0  0  0  0
   -2.6894    5.0547  -19.0538 C   0  0  2  0  0  0  0  0  0  0  0  0
   -3.9742    5.6521  -19.4393 N   0  0  0  0  0  0  0  0  0  0  0  0
   -5.0460    5.5495  -18.5399 C   0  0  0  0  0  0  0  0  0  0  0  0
   -6.1282    4.9598  -19.0686 N   0  0  0  0  0  0  0  0  0  0  0  0
   -7.1836    4.7261  -18.2805 C   0  0  0  0  0  0  0  0  0  0  0  0
   -8.3020    4.1174  -18.7878 C   0  0  0  0  0  0  0  0  0  0  0  0
   -9.3668    3.7948  -17.9555 C   0  0  0  0  0  0  0  0  0  0  0  0
   -9.3241    4.0655  -16.6032 C   0  0  0  0  0  0  0  0  0  0  0  0
   -8.2511    4.7316  -16.0766 C   0  0  0  0  0  0  0  0  0  0  0  0
   -7.2031    5.0683  -16.9239 C   0  0  0  0  0  0  0  0  0  0  0  0
   -6.1255    5.7552  -16.4182 C   0  0  0  0  0  0  0  0  0  0  0  0
   -5.0070    5.9968  -17.2206 C   0  0  0  0  0  0  0  0  0  0  0  0
   -3.8767    6.7499  -16.6158 C   0  0  0  0  0  0  0  0  0  0  0  0
   -3.2678    5.8089  -15.0209 Br  0  0  0  0  0  0  0  0  0  0  0  0
  1  2  1  0
  3  2  1  6
  3  4  1  0
  4  5  1  0
  5  6  1  6
  6  7  1  0
  7  8  2  0
  8  9  1  0
  9 10  2  0
 10 11  1  0
 11 12  2  0
 12 13  1  0
 13 14  2  0
 14 15  1  0
 15 16  2  0
 16 17  1  0
 17 18  1  0
  5  3  1  0
 16  7  1  0
 14  9  1  0
M  END
>  <energy_score>  (2016) 
-19.041833

>  <alias>  (2016) 
None

>  <HIPPO Pose ID>  (2016) 
73271

>  <smiles>  (2016) 
CC[C@@H]1C[C@@H]1Nc1nc2ccccc2cc1CBr

>  <inchikey>  (2016) 
QUCCZMMMIDKORJ-YGRLFVJLSA-N

>  <distance_score>  (2016) 
1.939054

>  <ref_mols>  (2016) 
Z1688a,Z0089a

>  <ref_pdb>  (2016) 
Z1688a

>  <HIPPO Compound ID>  (2016) 
146339

>  <name>  (2016) 
P73271

>  <inspiration_score>  (2016) 
None

$$$$
P73277
     RDKit          3D

 18 20  0  0  0  0  0  0  0  0999 V2000
   -7.4463    5.1734  -13.5176 O   0  0  0  0  0  0  0  0  0  0  0  0
   -6.4008    5.2397  -14.1502 C   0  0  0  0  0  0  0  0  0  0  0  0
   -6.2481    5.1222  -15.6363 C   0  0  0  0  0  0  0  0  0  0  0  0
   -4.9871    5.4455  -16.1890 C   0  0  0  0  0  0  0  0  0  0  0  0
   -4.8294    5.4146  -17.5663 C   0  0  0  0  0  0  0  0  0  0  0  0
   -3.7234    5.8441  -18.2842 N   0  0  0  0  0  0  0  0  0  0  0  0
   -2.3689    5.4654  -18.0874 C   0  0  1  0  0  0  0  0  0  0  0  0
   -1.7960    4.6392  -19.2663 C   0  0  0  0  0  0  0  0  0  0  0  0
   -0.5435    5.5434  -19.2138 C   0  0  1  0  0  0  0  0  0  0  0  0
   -0.0250    5.9176  -20.4042 F   0  0  0  0  0  0  0  0  0  0  0  0
   -1.4240    6.6052  -18.5215 C   0  0  0  0  0  0  0  0  0  0  0  0
   -5.8088    5.0470  -18.3729 N   0  0  0  0  0  0  0  0  0  0  0  0
   -6.9875    4.7314  -17.8640 C   0  0  0  0  0  0  0  0  0  0  0  0
   -7.9275    4.4201  -18.8049 C   0  0  0  0  0  0  0  0  0  0  0  0
   -9.2360    4.2018  -18.4454 C   0  0  0  0  0  0  0  0  0  0  0  0
   -9.5825    4.1640  -17.1120 C   0  0  0  0  0  0  0  0  0  0  0  0
   -8.6282    4.4152  -16.1294 C   0  0  0  0  0  0  0  0  0  0  0  0
   -7.3056    4.7515  -16.4932 C   0  0  0  0  0  0  0  0  0  0  0  0
  1  2  2  0
  2  3  1  0
  3  4  2  0
  4  5  1  0
  5  6  1  0
  7  6  1  6
  7  8  1  0
  8  9  1  0
  9 10  1  6
  9 11  1  0
  5 12  2  0
 12 13  1  0
 13 14  2  0
 14 15  1  0
 15 16  2  0
 16 17  1  0
 17 18  2  0
 18  3  1  0
 11  7  1  0
 18 13  1  0
M  END
>  <energy_score>  (2017) 
-13.884936

>  <alias>  (2017) 
None

>  <HIPPO Pose ID>  (2017) 
73277

>  <smiles>  (2017) 
O=Cc1cc(N[C@H]2C[C@@H](F)C2)nc2ccccc12

>  <inchikey>  (2017) 
MFIVPFIEMYUYHD-PHIMTYICSA-N

>  <distance_score>  (2017) 
1.125695

>  <ref_mols>  (2017) 
Z1688a,Z0089a

>  <ref_pdb>  (2017) 
Z1688a

>  <HIPPO Compound ID>  (2017) 
146341

>  <name>  (2017) 
P73277

>  <inspiration_score>  (2017) 
None

$$$$
P73280
     RDKit          3D

 18 19  0  0  0  0  0  0  0  0999 V2000
   -1.8124    4.3071  -20.7206 C   0  0  0  0  0  0  0  0  0  0  0  0
   -1.8620    4.5360  -19.2251 C   0  0  0  0  0  0  0  0  0  0  0  0
   -2.4272    5.8992  -18.8135 C   0  0  0  0  0  0  0  0  0  0  0  0
   -1.7446    7.0598  -19.5563 C   0  0  0  0  0  0  0  0  0  0  0  0
   -2.0583    8.4233  -18.9519 C   0  0  0  0  0  0  0  0  0  0  0  0
   -3.8586    5.9862  -19.0505 N   0  0  0  0  0  0  0  0  0  0  0  0
   -4.8468    5.5804  -18.1871 C   0  0  0  0  0  0  0  0  0  0  0  0
   -5.8876    5.0418  -18.8450 N   0  0  0  0  0  0  0  0  0  0  0  0
   -6.9905    4.6988  -18.1611 C   0  0  0  0  0  0  0  0  0  0  0  0
   -8.1071    4.2509  -18.8182 C   0  0  0  0  0  0  0  0  0  0  0  0
   -9.2695    3.9511  -18.1169 C   0  0  0  0  0  0  0  0  0  0  0  0
   -9.3207    4.0265  -16.7411 C   0  0  0  0  0  0  0  0  0  0  0  0
   -8.2167    4.4465  -16.0506 C   0  0  0  0  0  0  0  0  0  0  0  0
   -7.0787    4.8011  -16.7699 C   0  0  0  0  0  0  0  0  0  0  0  0
   -5.9916    5.3076  -16.1004 C   0  0  0  0  0  0  0  0  0  0  0  0
   -4.8785    5.7739  -16.8078 C   0  0  0  0  0  0  0  0  0  0  0  0
   -3.8254    6.4901  -16.0318 C   0  0  0  0  0  0  0  0  0  0  0  0
   -4.3414    6.9535  -14.7833 O   0  0  0  0  0  0  0  0  0  0  0  0
  1  2  1  0
  2  3  1  0
  3  4  1  0
  4  5  1  0
  3  6  1  0
  6  7  1  0
  7  8  2  0
  8  9  1  0
  9 10  2  0
 10 11  1  0
 11 12  2  0
 12 13  1  0
 13 14  2  0
 14 15  1  0
 15 16  2  0
 16 17  1  0
 17 18  1  0
 16  7  1  0
 14  9  1  0
M  END
>  <energy_score>  (2018) 
-24.218597

>  <alias>  (2018) 
None

>  <HIPPO Pose ID>  (2018) 
73280

>  <smiles>  (2018) 
CCC(CC)Nc1nc2ccccc2cc1CO

>  <inchikey>  (2018) 
SKZJFYSDUCNSJB-UHFFFAOYSA-N

>  <distance_score>  (2018) 
1.934307

>  <ref_mols>  (2018) 
Z1688a,Z0089a

>  <ref_pdb>  (2018) 
Z1688a

>  <HIPPO Compound ID>  (2018) 
146343

>  <name>  (2018) 
P73280

>  <inspiration_score>  (2018) 
None

$$$$
P73281
     RDKit          3D

 18 19  0  0  0  0  0  0  0  0999 V2000
   -0.5047    5.3821  -18.7357 C   0  0  0  0  0  0  0  0  0  0  0  0
   -1.7393    4.6722  -19.2810 C   0  0  0  0  0  0  0  0  0  0  0  0
   -3.0681    5.4293  -19.0666 C   0  0  0  0  0  0  0  0  0  0  0  0
   -2.9820    6.8684  -19.6107 C   0  0  0  0  0  0  0  0  0  0  0  0
   -4.3405    7.5441  -19.7562 C   0  0  0  0  0  0  0  0  0  0  0  0
   -3.3815    5.4368  -17.6259 N   0  0  0  0  0  0  0  0  0  0  0  0
   -4.7188    5.2751  -17.2515 C   0  0  0  0  0  0  0  0  0  0  0  0
   -5.1161    5.4406  -15.9201 C   0  0  0  0  0  0  0  0  0  0  0  0
   -6.4646    5.2567  -15.5314 C   0  0  0  0  0  0  0  0  0  0  0  0
   -6.8993    5.6228  -14.1360 C   0  0  0  0  0  0  0  0  0  0  0  0
   -7.2064    4.0941  -12.9951 Br  0  0  0  0  0  0  0  0  0  0  0  0
   -7.3736    4.8312  -16.5238 C   0  0  0  0  0  0  0  0  0  0  0  0
   -8.7446    4.5585  -16.3167 C   0  0  0  0  0  0  0  0  0  0  0  0
   -9.5819    4.2632  -17.3918 C   0  0  0  0  0  0  0  0  0  0  0  0
   -9.0590    4.2117  -18.6704 C   0  0  0  0  0  0  0  0  0  0  0  0
   -7.7018    4.3870  -18.8704 C   0  0  0  0  0  0  0  0  0  0  0  0
   -6.8646    4.7056  -17.8331 C   0  0  0  0  0  0  0  0  0  0  0  0
   -5.5989    4.9191  -18.1764 N   0  0  0  0  0  0  0  0  0  0  0  0
  1  2  1  0
  2  3  1  0
  3  4  1  0
  4  5  1  0
  3  6  1  0
  6  7  1  0
  7  8  2  0
  8  9  1  0
  9 10  1  0
 10 11  1  0
  9 12  2  0
 12 13  1  0
 13 14  2  0
 14 15  1  0
 15 16  2  0
 16 17  1  0
 17 18  2  0
 18  7  1  0
 17 12  1  0
M  END
>  <energy_score>  (2019) 
-37.555425

>  <alias>  (2019) 
None

>  <HIPPO Pose ID>  (2019) 
73281

>  <smiles>  (2019) 
CCC(CC)Nc1cc(CBr)c2ccccc2n1

>  <inchikey>  (2019) 
OOPPCGURDWBTEZ-UHFFFAOYSA-N

>  <distance_score>  (2019) 
1.00529

>  <ref_mols>  (2019) 
Z1688a,Z0089a

>  <ref_pdb>  (2019) 
Z1688a

>  <HIPPO Compound ID>  (2019) 
146344

>  <name>  (2019) 
P73281

>  <inspiration_score>  (2019) 
None

$$$$
P73282
     RDKit          3D

 18 19  0  0  0  0  0  0  0  0999 V2000
   -1.1536    4.2103  -19.5574 C   0  0  0  0  0  0  0  0  0  0  0  0
   -2.5345    4.6252  -19.1032 C   0  0  0  0  0  0  0  0  0  0  0  0
   -2.5862    5.9397  -18.3119 C   0  0  0  0  0  0  0  0  0  0  0  0
   -1.7143    7.0679  -18.9024 C   0  0  0  0  0  0  0  0  0  0  0  0
   -2.0784    7.5050  -20.3185 C   0  0  0  0  0  0  0  0  0  0  0  0
   -3.9529    6.4526  -18.2562 N   0  0  0  0  0  0  0  0  0  0  0  0
   -4.9138    5.7802  -17.5327 C   0  0  0  0  0  0  0  0  0  0  0  0
   -5.0470    5.7854  -16.1540 C   0  0  0  0  0  0  0  0  0  0  0  0
   -6.2509    5.3139  -15.5852 C   0  0  0  0  0  0  0  0  0  0  0  0
   -6.3984    5.4282  -14.0986 C   0  0  0  0  0  0  0  0  0  0  0  0
   -7.4104    5.2121  -13.4455 O   0  0  0  0  0  0  0  0  0  0  0  0
   -7.2739    4.8363  -16.4298 C   0  0  0  0  0  0  0  0  0  0  0  0
   -8.5658    4.4181  -16.0485 C   0  0  0  0  0  0  0  0  0  0  0  0
   -9.5054    4.0838  -17.0179 C   0  0  0  0  0  0  0  0  0  0  0  0
   -9.1640    4.0908  -18.3537 C   0  0  0  0  0  0  0  0  0  0  0  0
   -7.8805    4.4079  -18.7318 C   0  0  0  0  0  0  0  0  0  0  0  0
   -6.9647    4.8191  -17.8038 C   0  0  0  0  0  0  0  0  0  0  0  0
   -5.8318    5.2574  -18.3257 N   0  0  0  0  0  0  0  0  0  0  0  0
  1  2  1  0
  2  3  1  0
  3  4  1  0
  4  5  1  0
  3  6  1  0
  6  7  1  0
  7  8  2  0
  8  9  1  0
  9 10  1  0
 10 11  2  0
  9 12  2  0
 12 13  1  0
 13 14  2  0
 14 15  1  0
 15 16  2  0
 16 17  1  0
 17 18  2  0
 18  7  1  0
 17 12  1  0
M  END
>  <energy_score>  (2020) 
-33.188976

>  <alias>  (2020) 
None

>  <HIPPO Pose ID>  (2020) 
73282

>  <smiles>  (2020) 
CCC(CC)Nc1cc(C=O)c2ccccc2n1

>  <inchikey>  (2020) 
BMWXGOSSMFPLLV-UHFFFAOYSA-N

>  <distance_score>  (2020) 
1.11388

>  <ref_mols>  (2020) 
Z1688a,Z0089a

>  <ref_pdb>  (2020) 
Z1688a

>  <HIPPO Compound ID>  (2020) 
146346

>  <name>  (2020) 
P73282

>  <inspiration_score>  (2020) 
None

$$$$
P73284
     RDKit          3D

 18 20  0  0  0  0  0  0  0  0999 V2000
   -3.1260    6.7786  -15.6382 N   0  0  0  0  0  0  0  0  0  0  0  0
   -3.8810    6.2604  -16.3468 C   0  0  0  0  0  0  0  0  0  0  0  0
   -4.9458    5.6332  -17.0337 C   0  0  0  0  0  0  0  0  0  0  0  0
   -6.0458    5.3334  -16.2419 C   0  0  0  0  0  0  0  0  0  0  0  0
   -7.1714    4.8210  -16.8329 C   0  0  0  0  0  0  0  0  0  0  0  0
   -8.2513    4.4987  -16.0267 C   0  0  0  0  0  0  0  0  0  0  0  0
   -9.3865    4.0365  -16.6286 C   0  0  0  0  0  0  0  0  0  0  0  0
   -9.4500    3.9403  -18.0021 C   0  0  0  0  0  0  0  0  0  0  0  0
   -8.3439    4.2186  -18.7952 C   0  0  0  0  0  0  0  0  0  0  0  0
   -7.1729    4.6495  -18.2266 C   0  0  0  0  0  0  0  0  0  0  0  0
   -6.0910    4.8893  -18.9850 N   0  0  0  0  0  0  0  0  0  0  0  0
   -4.9762    5.3503  -18.3948 C   0  0  0  0  0  0  0  0  0  0  0  0
   -3.8986    5.4956  -19.2737 N   0  0  0  0  0  0  0  0  0  0  0  0
   -2.5326    5.2480  -18.9507 C   0  0  1  0  0  0  0  0  0  0  0  0
   -1.7230    4.6076  -20.0947 C   0  0  0  0  0  0  0  0  0  0  0  0
   -0.5661    5.5556  -19.6882 C   0  0  2  0  0  0  0  0  0  0  0  0
    0.2811    5.0728  -18.7479 F   0  0  0  0  0  0  0  0  0  0  0  0
   -1.6585    6.5063  -19.1432 C   0  0  0  0  0  0  0  0  0  0  0  0
  1  2  3  0
  2  3  1  0
  3  4  2  0
  4  5  1  0
  5  6  2  0
  6  7  1  0
  7  8  2  0
  8  9  1  0
  9 10  2  0
 10 11  1  0
 11 12  2  0
 12 13  1  0
 14 13  1  6
 14 15  1  0
 15 16  1  0
 16 17  1  1
 16 18  1  0
 12  3  1  0
 18 14  1  0
 10  5  1  0
M  END
>  <energy_score>  (2021) 
-29.805351

>  <alias>  (2021) 
None

>  <HIPPO Pose ID>  (2021) 
73284

>  <smiles>  (2021) 
N#Cc1cc2ccccc2nc1N[C@H]1C[C@H](F)C1

>  <inchikey>  (2021) 
RRQJNTZHCCTCAF-HAQNSBGRSA-N

>  <distance_score>  (2021) 
1.949337

>  <ref_mols>  (2021) 
Z1688a,Z0089a

>  <ref_pdb>  (2021) 
Z1688a

>  <HIPPO Compound ID>  (2021) 
146347

>  <name>  (2021) 
P73284

>  <inspiration_score>  (2021) 
None

$$$$
P73287
     RDKit          3D

 18 20  0  0  0  0  0  0  0  0999 V2000
   -0.1482    5.7500  -17.8808 F   0  0  0  0  0  0  0  0  0  0  0  0
   -0.8192    5.3161  -18.9725 C   0  0  1  0  0  0  0  0  0  0  0  0
   -2.1188    4.5313  -18.6919 C   0  0  0  0  0  0  0  0  0  0  0  0
   -2.8038    5.3404  -19.7938 C   0  0  1  0  0  0  0  0  0  0  0  0
   -4.0819    5.9550  -19.5469 N   0  0  0  0  0  0  0  0  0  0  0  0
   -5.0252    5.5890  -18.5726 C   0  0  0  0  0  0  0  0  0  0  0  0
   -6.1019    4.9806  -19.0941 N   0  0  0  0  0  0  0  0  0  0  0  0
   -7.1377    4.6919  -18.2935 C   0  0  0  0  0  0  0  0  0  0  0  0
   -8.2825    4.1316  -18.8029 C   0  0  0  0  0  0  0  0  0  0  0  0
   -9.3535    3.8229  -17.9698 C   0  0  0  0  0  0  0  0  0  0  0  0
   -9.2876    4.0429  -16.6096 C   0  0  0  0  0  0  0  0  0  0  0  0
   -8.1752    4.6319  -16.0739 C   0  0  0  0  0  0  0  0  0  0  0  0
   -7.1266    4.9670  -16.9237 C   0  0  0  0  0  0  0  0  0  0  0  0
   -6.0296    5.6167  -16.4091 C   0  0  0  0  0  0  0  0  0  0  0  0
   -4.9418    5.9427  -17.2271 C   0  0  0  0  0  0  0  0  0  0  0  0
   -3.8588    6.7893  -16.6538 C   0  0  0  0  0  0  0  0  0  0  0  0
   -3.3349    6.1460  -14.8864 Br  0  0  0  0  0  0  0  0  0  0  0  0
   -1.6683    6.3762  -19.6980 C   0  0  0  0  0  0  0  0  0  0  0  0
  2  1  1  1
  2  3  1  0
  3  4  1  0
  4  5  1  1
  5  6  1  0
  6  7  2  0
  7  8  1  0
  8  9  2  0
  9 10  1  0
 10 11  2  0
 11 12  1  0
 12 13  2  0
 13 14  1  0
 14 15  2  0
 15 16  1  0
 16 17  1  0
  4 18  1  0
 18  2  1  0
 15  6  1  0
 13  8  1  0
M  END
>  <energy_score>  (2022) 
-13.509414

>  <alias>  (2022) 
None

>  <HIPPO Pose ID>  (2022) 
73287

>  <smiles>  (2022) 
F[C@H]1C[C@@H](Nc2nc3ccccc3cc2CBr)C1

>  <inchikey>  (2022) 
TUZAQAVMHLSYCO-TXEJJXNPSA-N

>  <distance_score>  (2022) 
1.944228

>  <ref_mols>  (2022) 
Z1688a,Z0089a

>  <ref_pdb>  (2022) 
Z1688a

>  <HIPPO Compound ID>  (2022) 
146350

>  <name>  (2022) 
P73287

>  <inspiration_score>  (2022) 
None

$$$$
P73288
     RDKit          3D

 18 20  0  0  0  0  0  0  0  0999 V2000
   -1.0622    7.5995  -18.7385 C   0  0  0  0  0  0  0  0  0  0  0  0
   -1.6462    6.5817  -19.6973 C   0  0  1  0  0  0  0  0  0  0  0  0
   -0.6627    5.4909  -20.1867 C   0  0  0  0  0  0  0  0  0  0  0  0
   -1.8512    4.5074  -20.1649 C   0  0  0  0  0  0  0  0  0  0  0  0
   -2.4938    5.4211  -19.0989 C   0  0  2  0  0  0  0  0  0  0  0  0
   -3.8863    5.6429  -19.2940 N   0  0  0  0  0  0  0  0  0  0  0  0
   -4.9216    5.4047  -18.3875 C   0  0  0  0  0  0  0  0  0  0  0  0
   -6.0366    4.9410  -18.9772 N   0  0  0  0  0  0  0  0  0  0  0  0
   -7.1073    4.6658  -18.2171 C   0  0  0  0  0  0  0  0  0  0  0  0
   -8.2862    4.2518  -18.7877 C   0  0  0  0  0  0  0  0  0  0  0  0
   -9.3970    3.9694  -18.0001 C   0  0  0  0  0  0  0  0  0  0  0  0
   -9.3290    4.0385  -16.6248 C   0  0  0  0  0  0  0  0  0  0  0  0
   -8.1756    4.4587  -16.0212 C   0  0  0  0  0  0  0  0  0  0  0  0
   -7.0903    4.7885  -16.8235 C   0  0  0  0  0  0  0  0  0  0  0  0
   -5.9466    5.2701  -16.2327 C   0  0  0  0  0  0  0  0  0  0  0  0
   -4.8557    5.6485  -17.0166 C   0  0  0  0  0  0  0  0  0  0  0  0
   -3.7021    6.3009  -16.3341 C   0  0  0  0  0  0  0  0  0  0  0  0
   -4.1250    6.8929  -15.1036 O   0  0  0  0  0  0  0  0  0  0  0  0
  2  1  1  1
  2  3  1  0
  3  4  1  0
  4  5  1  0
  5  6  1  6
  6  7  1  0
  7  8  2  0
  8  9  1  0
  9 10  2  0
 10 11  1  0
 11 12  2  0
 12 13  1  0
 13 14  2  0
 14 15  1  0
 15 16  2  0
 16 17  1  0
 17 18  1  0
  5  2  1  0
 16  7  1  0
 14  9  1  0
M  END
>  <energy_score>  (2023) 
-46.239151

>  <alias>  (2023) 
None

>  <HIPPO Pose ID>  (2023) 
73288

>  <smiles>  (2023) 
C[C@H]1CC[C@@H]1Nc1nc2ccccc2cc1CO

>  <inchikey>  (2023) 
KPVYZDZDPGJHJL-GWCFXTLKSA-N

>  <distance_score>  (2023) 
1.91313

>  <ref_mols>  (2023) 
Z1688a,Z0089a

>  <ref_pdb>  (2023) 
Z1688a

>  <HIPPO Compound ID>  (2023) 
146351

>  <name>  (2023) 
P73288

>  <inspiration_score>  (2023) 
None

$$$$
P73293
     RDKit          3D

 18 20  0  0  0  0  0  0  0  0999 V2000
   -2.0283    7.6860  -20.0294 C   0  0  0  0  0  0  0  0  0  0  0  0
   -1.5944    6.4367  -19.2725 C   0  0  2  0  0  0  0  0  0  0  0  0
   -0.6392    5.5024  -20.0542 C   0  0  0  0  0  0  0  0  0  0  0  0
   -1.8707    4.6552  -20.4313 C   0  0  0  0  0  0  0  0  0  0  0  0
   -2.5619    5.2158  -19.1717 C   0  0  2  0  0  0  0  0  0  0  0  0
   -3.9307    5.5640  -19.3744 N   0  0  0  0  0  0  0  0  0  0  0  0
   -4.9662    5.3473  -18.4584 C   0  0  0  0  0  0  0  0  0  0  0  0
   -6.1018    4.9163  -19.0315 N   0  0  0  0  0  0  0  0  0  0  0  0
   -7.1577    4.6388  -18.2520 C   0  0  0  0  0  0  0  0  0  0  0  0
   -8.3714    4.2918  -18.7972 C   0  0  0  0  0  0  0  0  0  0  0  0
   -9.4686    4.0249  -17.9857 C   0  0  0  0  0  0  0  0  0  0  0  0
   -9.3467    4.0237  -16.6128 C   0  0  0  0  0  0  0  0  0  0  0  0
   -8.1548    4.3610  -16.0326 C   0  0  0  0  0  0  0  0  0  0  0  0
   -7.0867    4.6903  -16.8569 C   0  0  0  0  0  0  0  0  0  0  0  0
   -5.9084    5.1055  -16.2828 C   0  0  0  0  0  0  0  0  0  0  0  0
   -4.8546    5.5487  -17.0830 C   0  0  0  0  0  0  0  0  0  0  0  0
   -3.6755    6.1922  -16.4407 C   0  0  0  0  0  0  0  0  0  0  0  0
   -4.2201    7.3693  -14.9742 Br  0  0  0  0  0  0  0  0  0  0  0  0
  2  1  1  6
  2  3  1  0
  3  4  1  0
  4  5  1  0
  5  6  1  6
  6  7  1  0
  7  8  2  0
  8  9  1  0
  9 10  2  0
 10 11  1  0
 11 12  2  0
 12 13  1  0
 13 14  2  0
 14 15  1  0
 15 16  2  0
 16 17  1  0
 17 18  1  0
  5  2  1  0
 16  7  1  0
 14  9  1  0
M  END
>  <energy_score>  (2024) 
-38.45794

>  <alias>  (2024) 
None

>  <HIPPO Pose ID>  (2024) 
73293

>  <smiles>  (2024) 
C[C@@H]1CC[C@@H]1Nc1nc2ccccc2cc1CBr

>  <inchikey>  (2024) 
XKZYLWBCTXNPBC-MFKMUULPSA-N

>  <distance_score>  (2024) 
1.934224

>  <ref_mols>  (2024) 
Z1688a,Z0089a

>  <ref_pdb>  (2024) 
Z1688a

>  <HIPPO Compound ID>  (2024) 
146353

>  <name>  (2024) 
P73293

>  <inspiration_score>  (2024) 
None

$$$$
P73296
     RDKit          3D

 18 20  0  0  0  0  0  0  0  0999 V2000
   -3.8242    7.2990  -20.4397 C   0  0  0  0  0  0  0  0  0  0  0  0
   -2.7346    6.6862  -19.5822 C   0  0  2  0  0  0  0  0  0  0  0  0
   -1.5562    6.0134  -20.3367 C   0  0  0  0  0  0  0  0  0  0  0  0
   -1.5412    4.9553  -19.2124 C   0  0  0  0  0  0  0  0  0  0  0  0
   -3.0366    5.2810  -18.9930 C   0  0  1  0  0  0  0  0  0  0  0  0
   -3.4012    5.3409  -17.6016 N   0  0  0  0  0  0  0  0  0  0  0  0
   -4.7384    5.1839  -17.1881 C   0  0  0  0  0  0  0  0  0  0  0  0
   -5.0943    5.2725  -15.8468 C   0  0  0  0  0  0  0  0  0  0  0  0
   -6.4339    5.0598  -15.4636 C   0  0  0  0  0  0  0  0  0  0  0  0
   -6.7401    5.1736  -14.0032 C   0  0  0  0  0  0  0  0  0  0  0  0
   -7.8516    5.1904  -13.4933 O   0  0  0  0  0  0  0  0  0  0  0  0
   -7.3945    4.7549  -16.4490 C   0  0  0  0  0  0  0  0  0  0  0  0
   -8.7648    4.4681  -16.2454 C   0  0  0  0  0  0  0  0  0  0  0  0
   -9.6155    4.2465  -17.3294 C   0  0  0  0  0  0  0  0  0  0  0  0
   -9.1120    4.2759  -18.6157 C   0  0  0  0  0  0  0  0  0  0  0  0
   -7.7595    4.4732  -18.8171 C   0  0  0  0  0  0  0  0  0  0  0  0
   -6.9127    4.7333  -17.7718 C   0  0  0  0  0  0  0  0  0  0  0  0
   -5.6503    4.9549  -18.1215 N   0  0  0  0  0  0  0  0  0  0  0  0
  2  1  1  6
  2  3  1  0
  3  4  1  0
  4  5  1  0
  5  6  1  1
  6  7  1  0
  7  8  2  0
  8  9  1  0
  9 10  1  0
 10 11  2  0
  9 12  2  0
 12 13  1  0
 13 14  2  0
 14 15  1  0
 15 16  2  0
 16 17  1  0
 17 18  2  0
  5  2  1  0
 18  7  1  0
 17 12  1  0
M  END
>  <energy_score>  (2025) 
-18.308568

>  <alias>  (2025) 
None

>  <HIPPO Pose ID>  (2025) 
73296

>  <smiles>  (2025) 
C[C@@H]1CC[C@H]1Nc1cc(C=O)c2ccccc2n1

>  <inchikey>  (2025) 
WLZHOKOUDDYXIS-ZWNOBZJWSA-N

>  <distance_score>  (2025) 
1.084371

>  <ref_mols>  (2025) 
Z1688a,Z0089a

>  <ref_pdb>  (2025) 
Z1688a

>  <HIPPO Compound ID>  (2025) 
146354

>  <name>  (2025) 
P73296

>  <inspiration_score>  (2025) 
None

$$$$
P73298
     RDKit          3D

 18 20  0  0  0  0  0  0  0  0999 V2000
   -3.0732    6.6974  -15.7869 N   0  0  0  0  0  0  0  0  0  0  0  0
   -3.8668    6.2045  -16.4709 C   0  0  0  0  0  0  0  0  0  0  0  0
   -4.9680    5.6033  -17.1226 C   0  0  0  0  0  0  0  0  0  0  0  0
   -6.0334    5.2881  -16.2913 C   0  0  0  0  0  0  0  0  0  0  0  0
   -7.1865    4.7950  -16.8465 C   0  0  0  0  0  0  0  0  0  0  0  0
   -8.2351    4.4651  -16.0056 C   0  0  0  0  0  0  0  0  0  0  0  0
   -9.3978    4.0262  -16.5723 C   0  0  0  0  0  0  0  0  0  0  0  0
   -9.5236    3.9592  -17.9437 C   0  0  0  0  0  0  0  0  0  0  0  0
   -8.4461    4.2407  -18.7728 C   0  0  0  0  0  0  0  0  0  0  0  0
   -7.2495    4.6501  -18.2411 C   0  0  0  0  0  0  0  0  0  0  0  0
   -6.2005    4.9013  -19.0370 N   0  0  0  0  0  0  0  0  0  0  0  0
   -5.0625    5.3548  -18.4873 C   0  0  0  0  0  0  0  0  0  0  0  0
   -4.0317    5.5425  -19.4170 N   0  0  0  0  0  0  0  0  0  0  0  0
   -2.6657    5.1422  -19.0898 C   0  0  1  0  0  0  0  0  0  0  0  0
   -1.6081    5.1242  -20.1546 C   0  0  0  0  0  0  0  0  0  0  0  0
   -1.5493    6.1526  -19.0572 C   0  0  1  0  0  0  0  0  0  0  0  0
   -1.7839    7.5903  -19.3617 C   0  0  0  0  0  0  0  0  0  0  0  0
   -0.5932    8.1510  -19.7111 F   0  0  0  0  0  0  0  0  0  0  0  0
  1  2  3  0
  2  3  1  0
  3  4  2  0
  4  5  1  0
  5  6  2  0
  6  7  1  0
  7  8  2  0
  8  9  1  0
  9 10  2  0
 10 11  1  0
 11 12  2  0
 12 13  1  0
 14 13  1  6
 14 15  1  0
 15 16  1  0
 16 17  1  6
 17 18  1  0
 12  3  1  0
 16 14  1  0
 10  5  1  0
M  END
>  <energy_score>  (2026) 
-12.012994

>  <alias>  (2026) 
None

>  <HIPPO Pose ID>  (2026) 
73298

>  <smiles>  (2026) 
N#Cc1cc2ccccc2nc1N[C@H]1C[C@H]1CF

>  <inchikey>  (2026) 
DPWHZOWUWCHQJP-GWCFXTLKSA-N

>  <distance_score>  (2026) 
1.964583

>  <ref_mols>  (2026) 
Z1688a,Z0089a

>  <ref_pdb>  (2026) 
Z1688a

>  <HIPPO Compound ID>  (2026) 
146355

>  <name>  (2026) 
P73298

>  <inspiration_score>  (2026) 
None

$$$$
P73300
     RDKit          3D

 18 20  0  0  0  0  0  0  0  0999 V2000
   -3.9911    6.8342  -15.2611 O   0  0  0  0  0  0  0  0  0  0  0  0
   -3.7077    6.3660  -16.5815 C   0  0  0  0  0  0  0  0  0  0  0  0
   -4.9089    5.7024  -17.1669 C   0  0  0  0  0  0  0  0  0  0  0  0
   -5.9609    5.3442  -16.3266 C   0  0  0  0  0  0  0  0  0  0  0  0
   -7.1223    4.8310  -16.8566 C   0  0  0  0  0  0  0  0  0  0  0  0
   -8.1612    4.4950  -16.0008 C   0  0  0  0  0  0  0  0  0  0  0  0
   -9.3318    4.0401  -16.5444 C   0  0  0  0  0  0  0  0  0  0  0  0
   -9.4717    3.9525  -17.9139 C   0  0  0  0  0  0  0  0  0  0  0  0
   -8.4060    4.2443  -18.7567 C   0  0  0  0  0  0  0  0  0  0  0  0
   -7.2066    4.6782  -18.2457 C   0  0  0  0  0  0  0  0  0  0  0  0
   -6.1771    4.9410  -19.0599 N   0  0  0  0  0  0  0  0  0  0  0  0
   -5.0434    5.4237  -18.5269 C   0  0  0  0  0  0  0  0  0  0  0  0
   -4.0190    5.6070  -19.4713 N   0  0  0  0  0  0  0  0  0  0  0  0
   -2.7036    5.0291  -19.1897 C   0  0  1  0  0  0  0  0  0  0  0  0
   -1.7043    4.8930  -20.3003 C   0  0  0  0  0  0  0  0  0  0  0  0
   -1.4480    5.8621  -19.1782 C   0  0  1  0  0  0  0  0  0  0  0  0
   -1.4545    7.3258  -19.4404 C   0  0  0  0  0  0  0  0  0  0  0  0
   -1.3605    7.9700  -18.2433 F   0  0  0  0  0  0  0  0  0  0  0  0
  1  2  1  0
  2  3  1  0
  3  4  2  0
  4  5  1  0
  5  6  2  0
  6  7  1  0
  7  8  2  0
  8  9  1  0
  9 10  2  0
 10 11  1  0
 11 12  2  0
 12 13  1  0
 14 13  1  6
 14 15  1  0
 15 16  1  0
 16 17  1  6
 17 18  1  0
 12  3  1  0
 16 14  1  0
 10  5  1  0
M  END
>  <energy_score>  (2027) 
-21.641411

>  <alias>  (2027) 
None

>  <HIPPO Pose ID>  (2027) 
73300

>  <smiles>  (2027) 
OCc1cc2ccccc2nc1N[C@H]1C[C@H]1CF

>  <inchikey>  (2027) 
FZFZAWVIUHUKOR-GWCFXTLKSA-N

>  <distance_score>  (2027) 
1.92171

>  <ref_mols>  (2027) 
Z1688a,Z0089a

>  <ref_pdb>  (2027) 
Z1688a

>  <HIPPO Compound ID>  (2027) 
146356

>  <name>  (2027) 
P73300

>  <inspiration_score>  (2027) 
None

$$$$
P73303
     RDKit          3D

 18 20  0  0  0  0  0  0  0  0999 V2000
   -1.4761    8.1859  -20.2319 F   0  0  0  0  0  0  0  0  0  0  0  0
   -1.4375    6.8740  -20.5936 C   0  0  0  0  0  0  0  0  0  0  0  0
   -1.6702    6.0505  -19.3777 C   0  0  2  0  0  0  0  0  0  0  0  0
   -2.1248    4.6223  -19.5035 C   0  0  0  0  0  0  0  0  0  0  0  0
   -3.0703    5.6654  -18.9749 C   0  0  1  0  0  0  0  0  0  0  0  0
   -3.4395    5.7047  -17.5492 N   0  0  0  0  0  0  0  0  0  0  0  0
   -4.7731    5.4006  -17.1910 C   0  0  0  0  0  0  0  0  0  0  0  0
   -5.1989    5.5545  -15.8665 C   0  0  0  0  0  0  0  0  0  0  0  0
   -6.5401    5.3024  -15.5032 C   0  0  0  0  0  0  0  0  0  0  0  0
   -7.0151    5.6495  -14.1161 C   0  0  0  0  0  0  0  0  0  0  0  0
   -7.2421    4.1069  -12.9760 Br  0  0  0  0  0  0  0  0  0  0  0  0
   -7.4088    4.8383  -16.5145 C   0  0  0  0  0  0  0  0  0  0  0  0
   -8.7753    4.5325  -16.3328 C   0  0  0  0  0  0  0  0  0  0  0  0
   -9.5864    4.2244  -17.4236 C   0  0  0  0  0  0  0  0  0  0  0  0
   -9.0361    4.1778  -18.6913 C   0  0  0  0  0  0  0  0  0  0  0  0
   -7.6782    4.3775  -18.8662 C   0  0  0  0  0  0  0  0  0  0  0  0
   -6.8687    4.7199  -17.8147 C   0  0  0  0  0  0  0  0  0  0  0  0
   -5.6053    4.9778  -18.1357 N   0  0  0  0  0  0  0  0  0  0  0  0
  1  2  1  0
  3  2  1  6
  3  4  1  0
  4  5  1  0
  5  6  1  1
  6  7  1  0
  7  8  2  0
  8  9  1  0
  9 10  1  0
 10 11  1  0
  9 12  2  0
 12 13  1  0
 13 14  2  0
 14 15  1  0
 15 16  2  0
 16 17  1  0
 17 18  2  0
  5  3  1  0
 18  7  1  0
 17 12  1  0
M  END
>  <energy_score>  (2028) 
-18.131419

>  <alias>  (2028) 
None

>  <HIPPO Pose ID>  (2028) 
73303

>  <smiles>  (2028) 
FC[C@@H]1C[C@H]1Nc1cc(CBr)c2ccccc2n1

>  <inchikey>  (2028) 
WCWWSBMMNXMCHD-GXFFZTMASA-N

>  <distance_score>  (2028) 
1.010418

>  <ref_mols>  (2028) 
Z1688a,Z0089a

>  <ref_pdb>  (2028) 
Z1688a

>  <HIPPO Compound ID>  (2028) 
146357

>  <name>  (2028) 
P73303

>  <inspiration_score>  (2028) 
None

$$$$
P73308
     RDKit          3D

 18 20  0  0  0  0  0  0  0  0999 V2000
   -0.7386    5.8715  -21.2378 C   0  0  0  0  0  0  0  0  0  0  0  0
   -1.8380    5.1518  -20.5311 C   0  0  1  0  0  0  0  0  0  0  0  0
   -1.7337    4.7884  -19.0815 C   0  0  0  0  0  0  0  0  0  0  0  0
   -2.7220    5.8545  -19.5024 C   0  0  1  0  0  0  0  0  0  0  0  0
   -2.4016    7.3042  -19.2217 C   0  0  0  0  0  0  0  0  0  0  0  0
   -4.1432    5.5510  -19.6047 N   0  0  0  0  0  0  0  0  0  0  0  0
   -5.0679    5.3097  -18.6002 C   0  0  0  0  0  0  0  0  0  0  0  0
   -6.2513    4.9048  -19.1010 N   0  0  0  0  0  0  0  0  0  0  0  0
   -7.2733    4.6431  -18.2745 C   0  0  0  0  0  0  0  0  0  0  0  0
   -8.5047    4.2871  -18.7692 C   0  0  0  0  0  0  0  0  0  0  0  0
   -9.5616    4.0149  -17.9099 C   0  0  0  0  0  0  0  0  0  0  0  0
   -9.3775    4.0361  -16.5432 C   0  0  0  0  0  0  0  0  0  0  0  0
   -8.1748    4.4118  -16.0126 C   0  0  0  0  0  0  0  0  0  0  0  0
   -7.1462    4.7301  -16.8843 C   0  0  0  0  0  0  0  0  0  0  0  0
   -5.9441    5.1438  -16.3680 C   0  0  0  0  0  0  0  0  0  0  0  0
   -4.8964    5.4564  -17.2308 C   0  0  0  0  0  0  0  0  0  0  0  0
   -3.7489    5.9489  -16.5687 C   0  0  0  0  0  0  0  0  0  0  0  0
   -2.9373    6.3647  -15.8536 N   0  0  0  0  0  0  0  0  0  0  0  0
  2  1  1  1
  2  3  1  0
  3  4  1  0
  4  5  1  1
  4  6  1  0
  6  7  1  0
  7  8  2  0
  8  9  1  0
  9 10  2  0
 10 11  1  0
 11 12  2  0
 12 13  1  0
 13 14  2  0
 14 15  1  0
 15 16  2  0
 16 17  1  0
 17 18  3  0
  4  2  1  0
 16  7  1  0
 14  9  1  0
M  END
>  <energy_score>  (2029) 
-21.83579

>  <alias>  (2029) 
None

>  <HIPPO Pose ID>  (2029) 
73308

>  <smiles>  (2029) 
C[C@H]1C[C@]1(C)Nc1nc2ccccc2cc1C#N

>  <inchikey>  (2029) 
VXTMIEKEYBSRKJ-BONVTDFDSA-N

>  <distance_score>  (2029) 
1.959693

>  <ref_mols>  (2029) 
Z1688a,Z0089a

>  <ref_pdb>  (2029) 
Z1688a

>  <HIPPO Compound ID>  (2029) 
146359

>  <name>  (2029) 
P73308

>  <inspiration_score>  (2029) 
None

$$$$
P73310
     RDKit          3D

 18 20  0  0  0  0  0  0  0  0999 V2000
   -0.3293    5.7661  -18.2485 C   0  0  0  0  0  0  0  0  0  0  0  0
   -1.5087    5.0726  -18.8439 C   0  0  2  0  0  0  0  0  0  0  0  0
   -1.6171    4.9591  -20.3280 C   0  0  0  0  0  0  0  0  0  0  0  0
   -2.6360    5.7934  -19.5635 C   0  0  2  0  0  0  0  0  0  0  0  0
   -2.5752    7.2783  -19.8149 C   0  0  0  0  0  0  0  0  0  0  0  0
   -3.9853    5.2453  -19.5555 N   0  0  0  0  0  0  0  0  0  0  0  0
   -4.9653    5.2496  -18.5727 C   0  0  0  0  0  0  0  0  0  0  0  0
   -6.1490    4.8546  -19.0844 N   0  0  0  0  0  0  0  0  0  0  0  0
   -7.1948    4.6542  -18.2726 C   0  0  0  0  0  0  0  0  0  0  0  0
   -8.4119    4.2561  -18.7738 C   0  0  0  0  0  0  0  0  0  0  0  0
   -9.4797    3.9910  -17.9234 C   0  0  0  0  0  0  0  0  0  0  0  0
   -9.3270    4.0781  -16.5554 C   0  0  0  0  0  0  0  0  0  0  0  0
   -8.1442    4.5168  -16.0250 C   0  0  0  0  0  0  0  0  0  0  0  0
   -7.1006    4.8155  -16.8913 C   0  0  0  0  0  0  0  0  0  0  0  0
   -5.9085    5.2687  -16.3783 C   0  0  0  0  0  0  0  0  0  0  0  0
   -4.8166    5.5295  -17.2161 C   0  0  0  0  0  0  0  0  0  0  0  0
   -3.5671    6.0073  -16.5600 C   0  0  0  0  0  0  0  0  0  0  0  0
   -3.8533    6.5659  -15.2721 O   0  0  0  0  0  0  0  0  0  0  0  0
  2  1  1  6
  2  3  1  0
  3  4  1  0
  4  5  1  6
  4  6  1  0
  6  7  1  0
  7  8  2  0
  8  9  1  0
  9 10  2  0
 10 11  1  0
 11 12  2  0
 12 13  1  0
 13 14  2  0
 14 15  1  0
 15 16  2  0
 16 17  1  0
 17 18  1  0
  4  2  1  0
 16  7  1  0
 14  9  1  0
M  END
>  <energy_score>  (2030) 
-29.785132

>  <alias>  (2030) 
None

>  <HIPPO Pose ID>  (2030) 
73310

>  <smiles>  (2030) 
C[C@@H]1C[C@@]1(C)Nc1nc2ccccc2cc1CO

>  <inchikey>  (2030) 
JMSDBAZQZGOJNV-MEBBXXQBSA-N

>  <distance_score>  (2030) 
1.924063

>  <ref_mols>  (2030) 
Z1688a,Z0089a

>  <ref_pdb>  (2030) 
Z1688a

>  <HIPPO Compound ID>  (2030) 
146360

>  <name>  (2030) 
P73310

>  <inspiration_score>  (2030) 
None

$$$$
P73311
     RDKit          3D

 18 20  0  0  0  0  0  0  0  0999 V2000
   -3.1244    6.7502  -15.6185 N   0  0  0  0  0  0  0  0  0  0  0  0
   -3.8704    6.2366  -16.3396 C   0  0  0  0  0  0  0  0  0  0  0  0
   -4.9388    5.6177  -17.0280 C   0  0  0  0  0  0  0  0  0  0  0  0
   -6.0318    5.2994  -16.2334 C   0  0  0  0  0  0  0  0  0  0  0  0
   -7.1653    4.8048  -16.8258 C   0  0  0  0  0  0  0  0  0  0  0  0
   -8.2418    4.4739  -16.0184 C   0  0  0  0  0  0  0  0  0  0  0  0
   -9.3857    4.0331  -16.6207 C   0  0  0  0  0  0  0  0  0  0  0  0
   -9.4595    3.9598  -17.9952 C   0  0  0  0  0  0  0  0  0  0  0  0
   -8.3559    4.2435  -18.7897 C   0  0  0  0  0  0  0  0  0  0  0  0
   -7.1792    4.6623  -18.2223 C   0  0  0  0  0  0  0  0  0  0  0  0
   -6.1056    4.9238  -18.9851 N   0  0  0  0  0  0  0  0  0  0  0  0
   -4.9853    5.3713  -18.3944 C   0  0  0  0  0  0  0  0  0  0  0  0
   -3.9223    5.5579  -19.2841 N   0  0  0  0  0  0  0  0  0  0  0  0
   -2.5511    5.2174  -19.0078 C   0  0  1  0  0  0  0  0  0  0  0  0
   -1.8671    4.5332  -20.2099 C   0  0  0  0  0  0  0  0  0  0  0  0
   -1.3187    5.9057  -20.6438 C   0  0  0  0  0  0  0  0  0  0  0  0
   -1.6034    6.4317  -19.2192 C   0  0  2  0  0  0  0  0  0  0  0  0
   -0.1002    6.3526  -18.1555 S   0  0  0  0  0  0  0  0  0  0  0  0
  1  2  3  0
  2  3  1  0
  3  4  2  0
  4  5  1  0
  5  6  2  0
  6  7  1  0
  7  8  2  0
  8  9  1  0
  9 10  2  0
 10 11  1  0
 11 12  2  0
 12 13  1  0
 14 13  1  6
 14 15  1  0
 15 16  1  0
 16 17  1  0
 17 18  1  1
 12  3  1  0
 17 14  1  0
 10  5  1  0
M  END
>  <energy_score>  (2031) 
-12.454878

>  <alias>  (2031) 
None

>  <HIPPO Pose ID>  (2031) 
73311

>  <smiles>  (2031) 
N#Cc1cc2ccccc2nc1N[C@H]1CC[C@@H]1S

>  <inchikey>  (2031) 
SOHUSGRNVWGWLO-STQMWFEESA-N

>  <distance_score>  (2031) 
1.952358

>  <ref_mols>  (2031) 
Z1688a,Z0089a

>  <ref_pdb>  (2031) 
Z1688a

>  <HIPPO Compound ID>  (2031) 
146361

>  <name>  (2031) 
P73311

>  <inspiration_score>  (2031) 
None

$$$$
P73312
     RDKit          3D

 18 20  0  0  0  0  0  0  0  0999 V2000
   -3.9475    6.6939  -15.1376 O   0  0  0  0  0  0  0  0  0  0  0  0
   -3.6930    6.3485  -16.5003 C   0  0  0  0  0  0  0  0  0  0  0  0
   -4.8795    5.6920  -17.1233 C   0  0  0  0  0  0  0  0  0  0  0  0
   -5.9727    5.3778  -16.3140 C   0  0  0  0  0  0  0  0  0  0  0  0
   -7.1177    4.8519  -16.8649 C   0  0  0  0  0  0  0  0  0  0  0  0
   -8.1810    4.5325  -16.0305 C   0  0  0  0  0  0  0  0  0  0  0  0
   -9.3299    4.0509  -16.5949 C   0  0  0  0  0  0  0  0  0  0  0  0
   -9.4238    3.9296  -17.9652 C   0  0  0  0  0  0  0  0  0  0  0  0
   -8.3373    4.2132  -18.7851 C   0  0  0  0  0  0  0  0  0  0  0  0
   -7.1557    4.6651  -18.2503 C   0  0  0  0  0  0  0  0  0  0  0  0
   -6.0984    4.9100  -19.0360 N   0  0  0  0  0  0  0  0  0  0  0  0
   -4.9747    5.3917  -18.4825 C   0  0  0  0  0  0  0  0  0  0  0  0
   -3.9454    5.5586  -19.4152 N   0  0  0  0  0  0  0  0  0  0  0  0
   -2.5753    5.2063  -19.2023 C   0  0  1  0  0  0  0  0  0  0  0  0
   -1.8572    4.7391  -20.4853 C   0  0  0  0  0  0  0  0  0  0  0  0
   -0.6342    5.5626  -20.0317 C   0  0  0  0  0  0  0  0  0  0  0  0
   -1.5833    6.4077  -19.1538 C   0  0  1  0  0  0  0  0  0  0  0  0
   -2.1429    7.9285  -20.0306 S   0  0  0  0  0  0  0  0  0  0  0  0
  1  2  1  0
  2  3  1  0
  3  4  2  0
  4  5  1  0
  5  6  2  0
  6  7  1  0
  7  8  2  0
  8  9  1  0
  9 10  2  0
 10 11  1  0
 11 12  2  0
 12 13  1  0
 14 13  1  6
 14 15  1  0
 15 16  1  0
 16 17  1  0
 17 18  1  6
 12  3  1  0
 17 14  1  0
 10  5  1  0
M  END
>  <energy_score>  (2032) 
-25.588847

>  <alias>  (2032) 
None

>  <HIPPO Pose ID>  (2032) 
73312

>  <smiles>  (2032) 
OCc1cc2ccccc2nc1N[C@H]1CC[C@H]1S

>  <inchikey>  (2032) 
PIBIKJNSDZGVEB-QWHCGFSZSA-N

>  <distance_score>  (2032) 
1.91339

>  <ref_mols>  (2032) 
Z1688a,Z0089a

>  <ref_pdb>  (2032) 
Z1688a

>  <HIPPO Compound ID>  (2032) 
146362

>  <name>  (2032) 
P73312

>  <inspiration_score>  (2032) 
None

$$$$
P73315
     RDKit          3D

 18 20  0  0  0  0  0  0  0  0999 V2000
   -2.0918    7.9658  -18.5665 S   0  0  0  0  0  0  0  0  0  0  0  0
   -2.6548    6.6174  -19.7028 C   0  0  1  0  0  0  0  0  0  0  0  0
   -1.4556    5.8710  -20.3401 C   0  0  0  0  0  0  0  0  0  0  0  0
   -1.5519    4.8358  -19.1965 C   0  0  0  0  0  0  0  0  0  0  0  0
   -3.0182    5.2766  -19.0086 C   0  0  1  0  0  0  0  0  0  0  0  0
   -3.4059    5.3807  -17.6222 N   0  0  0  0  0  0  0  0  0  0  0  0
   -4.7543    5.2614  -17.2324 C   0  0  0  0  0  0  0  0  0  0  0  0
   -5.1479    5.4453  -15.9043 C   0  0  0  0  0  0  0  0  0  0  0  0
   -6.4976    5.2676  -15.5215 C   0  0  0  0  0  0  0  0  0  0  0  0
   -6.9365    5.6345  -14.1277 C   0  0  0  0  0  0  0  0  0  0  0  0
   -7.2230    4.1041  -12.9837 Br  0  0  0  0  0  0  0  0  0  0  0  0
   -7.4046    4.8386  -16.5161 C   0  0  0  0  0  0  0  0  0  0  0  0
   -8.7745    4.5621  -16.3114 C   0  0  0  0  0  0  0  0  0  0  0  0
   -9.6098    4.2675  -17.3887 C   0  0  0  0  0  0  0  0  0  0  0  0
   -9.0860    4.2199  -18.6669 C   0  0  0  0  0  0  0  0  0  0  0  0
   -7.7294    4.3938  -18.8649 C   0  0  0  0  0  0  0  0  0  0  0  0
   -6.8956    4.7123  -17.8259 C   0  0  0  0  0  0  0  0  0  0  0  0
   -5.6307    4.9206  -18.1676 N   0  0  0  0  0  0  0  0  0  0  0  0
  2  1  1  1
  2  3  1  0
  3  4  1  0
  4  5  1  0
  5  6  1  1
  6  7  1  0
  7  8  2  0
  8  9  1  0
  9 10  1  0
 10 11  1  0
  9 12  2  0
 12 13  1  0
 13 14  2  0
 14 15  1  0
 15 16  2  0
 16 17  1  0
 17 18  2  0
  5  2  1  0
 18  7  1  0
 17 12  1  0
M  END
>  <energy_score>  (2033) 
-34.648199

>  <alias>  (2033) 
None

>  <HIPPO Pose ID>  (2033) 
73315

>  <smiles>  (2033) 
S[C@H]1CC[C@H]1Nc1cc(CBr)c2ccccc2n1

>  <inchikey>  (2033) 
ZPMFXRJHNCYJPB-OLZOCXBDSA-N

>  <distance_score>  (2033) 
1.001652

>  <ref_mols>  (2033) 
Z1688a,Z0089a

>  <ref_pdb>  (2033) 
Z1688a

>  <HIPPO Compound ID>  (2033) 
146363

>  <name>  (2033) 
P73315

>  <inspiration_score>  (2033) 
None

$$$$
P73317
     RDKit          3D

 18 20  0  0  0  0  0  0  0  0999 V2000
   -1.8810    7.8511  -20.2754 S   0  0  0  0  0  0  0  0  0  0  0  0
   -1.4781    6.4385  -19.1667 C   0  0  2  0  0  0  0  0  0  0  0  0
   -0.5848    5.4009  -19.8776 C   0  0  0  0  0  0  0  0  0  0  0  0
   -1.8549    4.5931  -20.2081 C   0  0  0  0  0  0  0  0  0  0  0  0
   -2.5575    5.3221  -19.0407 C   0  0  2  0  0  0  0  0  0  0  0  0
   -3.9012    5.7226  -19.3418 N   0  0  0  0  0  0  0  0  0  0  0  0
   -4.9830    5.5831  -18.4663 C   0  0  0  0  0  0  0  0  0  0  0  0
   -6.0403    4.9778  -19.0264 N   0  0  0  0  0  0  0  0  0  0  0  0
   -7.1192    4.7276  -18.2721 C   0  0  0  0  0  0  0  0  0  0  0  0
   -8.2134    4.1045  -18.8127 C   0  0  0  0  0  0  0  0  0  0  0  0
   -9.3029    3.7737  -18.0145 C   0  0  0  0  0  0  0  0  0  0  0  0
   -9.3181    4.0570  -16.6644 C   0  0  0  0  0  0  0  0  0  0  0  0
   -8.2661    4.7282  -16.1040 C   0  0  0  0  0  0  0  0  0  0  0  0
   -7.1898    5.0667  -16.9166 C   0  0  0  0  0  0  0  0  0  0  0  0
   -6.1344    5.7593  -16.3762 C   0  0  0  0  0  0  0  0  0  0  0  0
   -4.9972    6.0253  -17.1460 C   0  0  0  0  0  0  0  0  0  0  0  0
   -3.9179    6.8095  -16.4949 C   0  0  0  0  0  0  0  0  0  0  0  0
   -3.2790    5.8308  -14.9380 Br  0  0  0  0  0  0  0  0  0  0  0  0
  2  1  1  6
  2  3  1  0
  3  4  1  0
  4  5  1  0
  5  6  1  6
  6  7  1  0
  7  8  2  0
  8  9  1  0
  9 10  2  0
 10 11  1  0
 11 12  2  0
 12 13  1  0
 13 14  2  0
 14 15  1  0
 15 16  2  0
 16 17  1  0
 17 18  1  0
  5  2  1  0
 16  7  1  0
 14  9  1  0
M  END
>  <energy_score>  (2034) 
-28.284333

>  <alias>  (2034) 
None

>  <HIPPO Pose ID>  (2034) 
73317

>  <smiles>  (2034) 
S[C@@H]1CC[C@@H]1Nc1nc2ccccc2cc1CBr

>  <inchikey>  (2034) 
HOTUGZSALVALCP-QWHCGFSZSA-N

>  <distance_score>  (2034) 
1.935513

>  <ref_mols>  (2034) 
Z1688a,Z0089a

>  <ref_pdb>  (2034) 
Z1688a

>  <HIPPO Compound ID>  (2034) 
146364

>  <name>  (2034) 
P73317

>  <inspiration_score>  (2034) 
None

$$$$
P73321
     RDKit          3D

 18 20  0  0  0  0  0  0  0  0999 V2000
   -7.8322    5.1957  -13.5108 O   0  0  0  0  0  0  0  0  0  0  0  0
   -6.7215    5.1680  -14.0222 C   0  0  0  0  0  0  0  0  0  0  0  0
   -6.4194    5.0723  -15.4847 C   0  0  0  0  0  0  0  0  0  0  0  0
   -5.0923    5.3416  -15.8744 C   0  0  0  0  0  0  0  0  0  0  0  0
   -4.7412    5.2903  -17.2202 C   0  0  0  0  0  0  0  0  0  0  0  0
   -3.4208    5.5525  -17.6334 N   0  0  0  0  0  0  0  0  0  0  0  0
   -3.0429    5.6094  -19.0348 C   0  0  2  0  0  0  0  0  0  0  0  0
   -2.0275    4.4959  -19.3941 C   0  0  0  0  0  0  0  0  0  0  0  0
   -0.8925    5.4960  -19.0888 C   0  0  0  0  0  0  0  0  0  0  0  0
   -1.9095    6.6267  -19.3583 C   0  0  2  0  0  0  0  0  0  0  0  0
   -1.7477    8.0114  -18.1699 S   0  0  0  0  0  0  0  0  0  0  0  0
   -5.6309    4.9595  -18.1448 N   0  0  0  0  0  0  0  0  0  0  0  0
   -6.8889    4.7126  -17.7905 C   0  0  0  0  0  0  0  0  0  0  0  0
   -7.7358    4.4363  -18.8320 C   0  0  0  0  0  0  0  0  0  0  0  0
   -9.0887    4.2407  -18.6268 C   0  0  0  0  0  0  0  0  0  0  0  0
   -9.5933    4.2232  -17.3405 C   0  0  0  0  0  0  0  0  0  0  0  0
   -8.7420    4.4523  -16.2595 C   0  0  0  0  0  0  0  0  0  0  0  0
   -7.3737    4.7455  -16.4677 C   0  0  0  0  0  0  0  0  0  0  0  0
  1  2  2  0
  2  3  1  0
  3  4  2  0
  4  5  1  0
  5  6  1  0
  7  6  1  1
  7  8  1  0
  8  9  1  0
  9 10  1  0
 10 11  1  1
  5 12  2  0
 12 13  1  0
 13 14  2  0
 14 15  1  0
 15 16  2  0
 16 17  1  0
 17 18  2  0
 18  3  1  0
 10  7  1  0
 18 13  1  0
M  END
>  <energy_score>  (2035) 
-18.587122

>  <alias>  (2035) 
None

>  <HIPPO Pose ID>  (2035) 
73321

>  <smiles>  (2035) 
O=Cc1cc(N[C@@H]2CC[C@@H]2S)nc2ccccc12

>  <inchikey>  (2035) 
HHOVTARQYOPPSK-OLZOCXBDSA-N

>  <distance_score>  (2035) 
1.069186

>  <ref_mols>  (2035) 
Z1688a,Z0089a

>  <ref_pdb>  (2035) 
Z1688a

>  <HIPPO Compound ID>  (2035) 
146365

>  <name>  (2035) 
P73321

>  <inspiration_score>  (2035) 
None

$$$$
P73323
     RDKit          3D

 18 20  0  0  0  0  0  0  0  0999 V2000
   -0.2019    7.6453  -20.1989 F   0  0  0  0  0  0  0  0  0  0  0  0
   -1.4745    7.2678  -19.8970 C   0  0  0  0  0  0  0  0  0  0  0  0
   -1.4268    5.9101  -19.2881 C   0  0  2  0  0  0  0  0  0  0  0  0
   -1.6951    4.6919  -20.1294 C   0  0  0  0  0  0  0  0  0  0  0  0
   -2.6817    5.1030  -19.0750 C   0  0  2  0  0  0  0  0  0  0  0  0
   -3.9880    5.6550  -19.4512 N   0  0  0  0  0  0  0  0  0  0  0  0
   -5.0497    5.5453  -18.5407 C   0  0  0  0  0  0  0  0  0  0  0  0
   -6.1322    4.9554  -19.0675 N   0  0  0  0  0  0  0  0  0  0  0  0
   -7.1874    4.7213  -18.2792 C   0  0  0  0  0  0  0  0  0  0  0  0
   -8.3076    4.1162  -18.7866 C   0  0  0  0  0  0  0  0  0  0  0  0
   -9.3724    3.7953  -17.9537 C   0  0  0  0  0  0  0  0  0  0  0  0
   -9.3271    4.0631  -16.6010 C   0  0  0  0  0  0  0  0  0  0  0  0
   -8.2522    4.7255  -16.0742 C   0  0  0  0  0  0  0  0  0  0  0  0
   -7.2049    5.0614  -16.9223 C   0  0  0  0  0  0  0  0  0  0  0  0
   -6.1262    5.7468  -16.4173 C   0  0  0  0  0  0  0  0  0  0  0  0
   -5.0090    5.9916  -17.2211 C   0  0  0  0  0  0  0  0  0  0  0  0
   -3.8827    6.7458  -16.6104 C   0  0  0  0  0  0  0  0  0  0  0  0
   -3.2645    5.7928  -15.0274 Br  0  0  0  0  0  0  0  0  0  0  0  0
  1  2  1  0
  3  2  1  6
  3  4  1  0
  4  5  1  0
  5  6  1  6
  6  7  1  0
  7  8  2  0
  8  9  1  0
  9 10  2  0
 10 11  1  0
 11 12  2  0
 12 13  1  0
 13 14  2  0
 14 15  1  0
 15 16  2  0
 16 17  1  0
 17 18  1  0
  5  3  1  0
 16  7  1  0
 14  9  1  0
M  END
>  <energy_score>  (2036) 
-19.414787

>  <alias>  (2036) 
None

>  <HIPPO Pose ID>  (2036) 
73323

>  <smiles>  (2036) 
FC[C@@H]1C[C@@H]1Nc1nc2ccccc2cc1CBr

>  <inchikey>  (2036) 
VOPCUWAGSGOYGI-AAEUAGOBSA-N

>  <distance_score>  (2036) 
1.937735

>  <ref_mols>  (2036) 
Z1688a,Z0089a

>  <ref_pdb>  (2036) 
Z1688a

>  <HIPPO Compound ID>  (2036) 
146366

>  <name>  (2036) 
P73323

>  <inspiration_score>  (2036) 
None

$$$$
P73327
     RDKit          3D

 18 20  0  0  0  0  0  0  0  0999 V2000
   -7.8707    5.2516  -13.5185 O   0  0  0  0  0  0  0  0  0  0  0  0
   -6.7541    5.2202  -14.0167 C   0  0  0  0  0  0  0  0  0  0  0  0
   -6.4358    5.1261  -15.4759 C   0  0  0  0  0  0  0  0  0  0  0  0
   -5.1044    5.3948  -15.8492 C   0  0  0  0  0  0  0  0  0  0  0  0
   -4.7243    5.3039  -17.1859 C   0  0  0  0  0  0  0  0  0  0  0  0
   -3.3766    5.4825  -17.5523 N   0  0  0  0  0  0  0  0  0  0  0  0
   -2.9119    5.0820  -18.8859 C   0  0  2  0  0  0  0  0  0  0  0  0
   -1.4323    4.8641  -19.0713 C   0  0  0  0  0  0  0  0  0  0  0  0
   -2.1261    5.9811  -19.8001 C   0  0  1  0  0  0  0  0  0  0  0  0
   -2.3125    5.8869  -21.2820 C   0  0  0  0  0  0  0  0  0  0  0  0
   -2.0299    4.6233  -21.7215 F   0  0  0  0  0  0  0  0  0  0  0  0
   -5.6073    4.9852  -18.1239 N   0  0  0  0  0  0  0  0  0  0  0  0
   -6.8720    4.7422  -17.7849 C   0  0  0  0  0  0  0  0  0  0  0  0
   -7.7069    4.4499  -18.8324 C   0  0  0  0  0  0  0  0  0  0  0  0
   -9.0604    4.2392  -18.6395 C   0  0  0  0  0  0  0  0  0  0  0  0
   -9.5792    4.2285  -17.3585 C   0  0  0  0  0  0  0  0  0  0  0  0
   -8.7413    4.4768  -16.2716 C   0  0  0  0  0  0  0  0  0  0  0  0
   -7.3737    4.7825  -16.4682 C   0  0  0  0  0  0  0  0  0  0  0  0
  1  2  2  0
  2  3  1  0
  3  4  2  0
  4  5  1  0
  5  6  1  0
  7  6  1  1
  7  8  1  0
  8  9  1  0
  9 10  1  6
 10 11  1  0
  5 12  2  0
 12 13  1  0
 13 14  2  0
 14 15  1  0
 15 16  2  0
 16 17  1  0
 17 18  2  0
 18  3  1  0
  9  7  1  0
 18 13  1  0
M  END
>  <energy_score>  (2037) 
-13.381683

>  <alias>  (2037) 
None

>  <HIPPO Pose ID>  (2037) 
73327

>  <smiles>  (2037) 
O=Cc1cc(N[C@@H]2C[C@H]2CF)nc2ccccc12

>  <inchikey>  (2037) 
PAPVMAOZZDFLSP-TVQRCGJNSA-N

>  <distance_score>  (2037) 
1.097393

>  <ref_mols>  (2037) 
Z1688a,Z0089a

>  <ref_pdb>  (2037) 
Z1688a

>  <HIPPO Compound ID>  (2037) 
146367

>  <name>  (2037) 
P73327

>  <inspiration_score>  (2037) 
None

$$$$
P73332
     RDKit          3D

 18 20  0  0  0  0  0  0  0  0999 V2000
   -1.9165    5.5226  -15.8844 C   0  0  0  0  0  0  0  0  0  0  0  0
   -1.6003    5.5561  -17.3371 C   0  0  1  0  0  0  0  0  0  0  0  0
   -2.2462    4.5806  -18.2951 C   0  0  0  0  0  0  0  0  0  0  0  0
   -2.5603    6.0468  -18.3970 C   0  0  2  0  0  0  0  0  0  0  0  0
   -1.9188    6.7888  -19.5517 C   0  0  0  0  0  0  0  0  0  0  0  0
   -3.9207    6.5830  -18.1019 N   0  0  0  0  0  0  0  0  0  0  0  0
   -4.9269    5.8446  -17.4534 C   0  0  0  0  0  0  0  0  0  0  0  0
   -5.2427    5.9953  -16.1029 C   0  0  0  0  0  0  0  0  0  0  0  0
   -6.4782    5.5216  -15.6002 C   0  0  0  0  0  0  0  0  0  0  0  0
   -6.8821    5.8528  -14.1849 C   0  0  0  0  0  0  0  0  0  0  0  0
   -7.0647    4.3013  -13.0418 Br  0  0  0  0  0  0  0  0  0  0  0  0
   -7.3608    4.9194  -16.5250 C   0  0  0  0  0  0  0  0  0  0  0  0
   -8.6854    4.5233  -16.2444 C   0  0  0  0  0  0  0  0  0  0  0  0
   -9.5330    4.1224  -17.2729 C   0  0  0  0  0  0  0  0  0  0  0  0
   -9.0517    4.0403  -18.5652 C   0  0  0  0  0  0  0  0  0  0  0  0
   -7.7309    4.3269  -18.8383 C   0  0  0  0  0  0  0  0  0  0  0  0
   -6.9034    4.7958  -17.8578 C   0  0  0  0  0  0  0  0  0  0  0  0
   -5.7275    5.2146  -18.2989 N   0  0  0  0  0  0  0  0  0  0  0  0
  2  1  1  1
  2  3  1  0
  3  4  1  0
  4  5  1  6
  4  6  1  0
  6  7  1  0
  7  8  2  0
  8  9  1  0
  9 10  1  0
 10 11  1  0
  9 12  2  0
 12 13  1  0
 13 14  2  0
 14 15  1  0
 15 16  2  0
 16 17  1  0
 17 18  2  0
  4  2  1  0
 18  7  1  0
 17 12  1  0
M  END
>  <energy_score>  (2038) 
-10.407053

>  <alias>  (2038) 
None

>  <HIPPO Pose ID>  (2038) 
73332

>  <smiles>  (2038) 
C[C@H]1C[C@@]1(C)Nc1cc(CBr)c2ccccc2n1

>  <inchikey>  (2038) 
SHMYVJHEAPVXIB-ZUZCIYMTSA-N

>  <distance_score>  (2038) 
1.041092

>  <ref_mols>  (2038) 
Z1688a,Z0089a

>  <ref_pdb>  (2038) 
Z1688a

>  <HIPPO Compound ID>  (2038) 
146368

>  <name>  (2038) 
P73332

>  <inspiration_score>  (2038) 
None

$$$$
P73334
     RDKit          3D

 18 20  0  0  0  0  0  0  0  0999 V2000
   -0.7795    5.9482  -21.4486 C   0  0  0  0  0  0  0  0  0  0  0  0
   -1.7786    5.1561  -20.6741 C   0  0  1  0  0  0  0  0  0  0  0  0
   -1.5616    4.8424  -19.2277 C   0  0  0  0  0  0  0  0  0  0  0  0
   -2.6802    5.7909  -19.6162 C   0  0  1  0  0  0  0  0  0  0  0  0
   -2.5124    7.2776  -19.4043 C   0  0  0  0  0  0  0  0  0  0  0  0
   -4.0563    5.3217  -19.6190 N   0  0  0  0  0  0  0  0  0  0  0  0
   -4.9813    5.1863  -18.5966 C   0  0  0  0  0  0  0  0  0  0  0  0
   -6.1927    4.8690  -19.0997 N   0  0  0  0  0  0  0  0  0  0  0  0
   -7.2262    4.6304  -18.2815 C   0  0  0  0  0  0  0  0  0  0  0  0
   -8.4780    4.3429  -18.7771 C   0  0  0  0  0  0  0  0  0  0  0  0
   -9.5452    4.0865  -17.9238 C   0  0  0  0  0  0  0  0  0  0  0  0
   -9.3531    4.0526  -16.5589 C   0  0  0  0  0  0  0  0  0  0  0  0
   -8.1266    4.3489  -16.0289 C   0  0  0  0  0  0  0  0  0  0  0  0
   -7.0850    4.6479  -16.8968 C   0  0  0  0  0  0  0  0  0  0  0  0
   -5.8481    4.9563  -16.3832 C   0  0  0  0  0  0  0  0  0  0  0  0
   -4.7735    5.2882  -17.2244 C   0  0  0  0  0  0  0  0  0  0  0  0
   -3.5154    5.6646  -16.5276 C   0  0  0  0  0  0  0  0  0  0  0  0
   -3.8813    7.1565  -15.3056 Br  0  0  0  0  0  0  0  0  0  0  0  0
  2  1  1  1
  2  3  1  0
  3  4  1  0
  4  5  1  1
  4  6  1  0
  6  7  1  0
  7  8  2  0
  8  9  1  0
  9 10  2  0
 10 11  1  0
 11 12  2  0
 12 13  1  0
 13 14  2  0
 14 15  1  0
 15 16  2  0
 16 17  1  0
 17 18  1  0
  4  2  1  0
 16  7  1  0
 14  9  1  0
M  END
>  <energy_score>  (2039) 
-21.904839

>  <alias>  (2039) 
None

>  <HIPPO Pose ID>  (2039) 
73334

>  <smiles>  (2039) 
C[C@H]1C[C@]1(C)Nc1nc2ccccc2cc1CBr

>  <inchikey>  (2039) 
JGAZTDGHAMOATB-BONVTDFDSA-N

>  <distance_score>  (2039) 
1.938581

>  <ref_mols>  (2039) 
Z1688a,Z0089a

>  <ref_pdb>  (2039) 
Z1688a

>  <HIPPO Compound ID>  (2039) 
146369

>  <name>  (2039) 
P73334

>  <inspiration_score>  (2039) 
None

$$$$
P73343
     RDKit          3D

 18 20  0  0  0  0  0  0  0  0999 V2000
   -3.1045    6.7474  -15.5884 N   0  0  0  0  0  0  0  0  0  0  0  0
   -3.8624    6.2671  -16.3208 C   0  0  0  0  0  0  0  0  0  0  0  0
   -4.9189    5.6532  -17.0316 C   0  0  0  0  0  0  0  0  0  0  0  0
   -6.0047    5.2970  -16.2396 C   0  0  0  0  0  0  0  0  0  0  0  0
   -7.1344    4.8007  -16.8363 C   0  0  0  0  0  0  0  0  0  0  0  0
   -8.2155    4.4652  -16.0339 C   0  0  0  0  0  0  0  0  0  0  0  0
   -9.3592    4.0294  -16.6409 C   0  0  0  0  0  0  0  0  0  0  0  0
   -9.4203    3.9523  -18.0159 C   0  0  0  0  0  0  0  0  0  0  0  0
   -8.3115    4.2392  -18.8041 C   0  0  0  0  0  0  0  0  0  0  0  0
   -7.1402    4.6681  -18.2326 C   0  0  0  0  0  0  0  0  0  0  0  0
   -6.0680    4.9578  -18.9908 N   0  0  0  0  0  0  0  0  0  0  0  0
   -4.9597    5.4415  -18.4054 C   0  0  0  0  0  0  0  0  0  0  0  0
   -3.9575    5.7399  -19.3156 N   0  0  0  0  0  0  0  0  0  0  0  0
   -2.5803    5.3512  -19.0323 C   0  0  0  0  0  0  0  0  0  0  0  0
   -1.9383    4.6497  -20.2269 C   0  0  0  0  0  0  0  0  0  0  0  0
   -1.5270    5.7646  -21.1829 C   0  0  0  0  0  0  0  0  0  0  0  0
   -1.3765    7.0186  -20.3285 C   0  0  0  0  0  0  0  0  0  0  0  0
   -1.7092    6.6004  -18.8988 C   0  0  0  0  0  0  0  0  0  0  0  0
  1  2  3  0
  2  3  1  0
  3  4  2  0
  4  5  1  0
  5  6  2  0
  6  7  1  0
  7  8  2  0
  8  9  1  0
  9 10  2  0
 10 11  1  0
 11 12  2  0
 12 13  1  0
 13 14  1  0
 14 15  1  0
 15 16  1  0
 16 17  1  0
 17 18  1  0
 12  3  1  0
 18 14  1  0
 10  5  1  0
M  END
>  <energy_score>  (2040) 
-14.941471

>  <alias>  (2040) 
None

>  <HIPPO Pose ID>  (2040) 
73343

>  <smiles>  (2040) 
N#Cc1cc2ccccc2nc1NC1CCCC1

>  <inchikey>  (2040) 
NREUULUACDZDQM-UHFFFAOYSA-N

>  <distance_score>  (2040) 
1.95353

>  <ref_mols>  (2040) 
Z1688a,Z0089a

>  <ref_pdb>  (2040) 
Z1688a

>  <HIPPO Compound ID>  (2040) 
146374

>  <name>  (2040) 
P73343

>  <inspiration_score>  (2040) 
None

$$$$
P73344
     RDKit          3D

 18 19  0  0  0  0  0  0  0  0999 V2000
   -1.2335    4.1949  -19.6088 C   0  0  0  0  0  0  0  0  0  0  0  0
   -2.5550    4.6078  -18.9921 C   0  0  0  0  0  0  0  0  0  0  0  0
   -2.5499    5.9611  -18.2471 C   0  0  0  0  0  0  0  0  0  0  0  0
   -1.7830    7.0273  -19.0573 C   0  0  0  0  0  0  0  0  0  0  0  0
   -1.8950    5.8498  -16.8628 C   0  0  0  0  0  0  0  0  0  0  0  0
   -3.9186    6.4978  -18.1371 N   0  0  0  0  0  0  0  0  0  0  0  0
   -4.9116    5.8038  -17.4687 C   0  0  0  0  0  0  0  0  0  0  0  0
   -5.1852    5.9194  -16.1078 C   0  0  0  0  0  0  0  0  0  0  0  0
   -6.4286    5.4749  -15.5935 C   0  0  0  0  0  0  0  0  0  0  0  0
   -6.8090    5.8066  -14.1716 C   0  0  0  0  0  0  0  0  0  0  0  0
   -7.0135    4.2536  -13.0333 Br  0  0  0  0  0  0  0  0  0  0  0  0
   -7.3420    4.9036  -16.5099 C   0  0  0  0  0  0  0  0  0  0  0  0
   -8.6672    4.5200  -16.2132 C   0  0  0  0  0  0  0  0  0  0  0  0
   -9.5325    4.1312  -17.2320 C   0  0  0  0  0  0  0  0  0  0  0  0
   -9.0736    4.0564  -18.5323 C   0  0  0  0  0  0  0  0  0  0  0  0
   -7.7565    4.3379  -18.8233 C   0  0  0  0  0  0  0  0  0  0  0  0
   -6.9110    4.7915  -17.8509 C   0  0  0  0  0  0  0  0  0  0  0  0
   -5.7393    5.2038  -18.3059 N   0  0  0  0  0  0  0  0  0  0  0  0
  1  2  1  0
  2  3  1  0
  3  4  1  0
  3  5  1  0
  3  6  1  0
  6  7  1  0
  7  8  2  0
  8  9  1  0
  9 10  1  0
 10 11  1  0
  9 12  2  0
 12 13  1  0
 13 14  2  0
 14 15  1  0
 15 16  2  0
 16 17  1  0
 17 18  2  0
 18  7  1  0
 17 12  1  0
M  END
>  <energy_score>  (2041) 
-29.631745

>  <alias>  (2041) 
None

>  <HIPPO Pose ID>  (2041) 
73344

>  <smiles>  (2041) 
CCC(C)(C)Nc1cc(CBr)c2ccccc2n1

>  <inchikey>  (2041) 
ARNUWZLORROTIY-UHFFFAOYSA-N

>  <distance_score>  (2041) 
1.011934

>  <ref_mols>  (2041) 
Z1688a,Z0089a

>  <ref_pdb>  (2041) 
Z1688a

>  <HIPPO Compound ID>  (2041) 
146378

>  <name>  (2041) 
P73344

>  <inspiration_score>  (2041) 
None

$$$$
P73345
     RDKit          3D

 18 19  0  0  0  0  0  0  0  0999 V2000
   -1.8341    4.4973  -20.0006 C   0  0  0  0  0  0  0  0  0  0  0  0
   -2.4528    5.5126  -19.0442 C   0  0  1  0  0  0  0  0  0  0  0  0
   -1.7604    6.8766  -19.1626 C   0  0  0  0  0  0  0  0  0  0  0  0
   -1.8665    7.5179  -20.5368 C   0  0  0  0  0  0  0  0  0  0  0  0
   -1.1916    8.7027  -20.5052 F   0  0  0  0  0  0  0  0  0  0  0  0
   -3.8705    5.6905  -19.2979 N   0  0  0  0  0  0  0  0  0  0  0  0
   -4.8653    5.4621  -18.3757 C   0  0  0  0  0  0  0  0  0  0  0  0
   -5.9388    4.9019  -18.9595 N   0  0  0  0  0  0  0  0  0  0  0  0
   -7.0365    4.6539  -18.2299 C   0  0  0  0  0  0  0  0  0  0  0  0
   -8.1662    4.1413  -18.8153 C   0  0  0  0  0  0  0  0  0  0  0  0
   -9.2924    3.8552  -18.0504 C   0  0  0  0  0  0  0  0  0  0  0  0
   -9.3039    4.0525  -16.6857 C   0  0  0  0  0  0  0  0  0  0  0  0
   -8.2071    4.5968  -16.0762 C   0  0  0  0  0  0  0  0  0  0  0  0
   -7.0982    4.9061  -16.8583 C   0  0  0  0  0  0  0  0  0  0  0  0
   -6.0077    5.5021  -16.2722 C   0  0  0  0  0  0  0  0  0  0  0  0
   -4.8683    5.8161  -17.0255 C   0  0  0  0  0  0  0  0  0  0  0  0
   -3.8005    6.6160  -16.3501 C   0  0  0  0  0  0  0  0  0  0  0  0
   -4.0067    6.6838  -14.9366 O   0  0  0  0  0  0  0  0  0  0  0  0
  2  1  1  6
  2  3  1  0
  3  4  1  0
  4  5  1  0
  2  6  1  0
  6  7  1  0
  7  8  2  0
  8  9  1  0
  9 10  2  0
 10 11  1  0
 11 12  2  0
 12 13  1  0
 13 14  2  0
 14 15  1  0
 15 16  2  0
 16 17  1  0
 17 18  1  0
 16  7  1  0
 14  9  1  0
M  END
>  <energy_score>  (2042) 
-15.043813

>  <alias>  (2042) 
None

>  <HIPPO Pose ID>  (2042) 
73345

>  <smiles>  (2042) 
C[C@@H](CCF)Nc1nc2ccccc2cc1CO

>  <inchikey>  (2042) 
QMIMCVPATXBTJG-JTQLQIEISA-N

>  <distance_score>  (2042) 
1.904713

>  <ref_mols>  (2042) 
Z1688a,Z0089a

>  <ref_pdb>  (2042) 
Z1688a

>  <HIPPO Compound ID>  (2042) 
146381

>  <name>  (2042) 
P73345

>  <inspiration_score>  (2042) 
None

$$$$
P73347
     RDKit          3D

 18 20  0  0  0  0  0  0  0  0999 V2000
   -3.0068    6.6533  -15.9174 N   0  0  0  0  0  0  0  0  0  0  0  0
   -3.7714    6.1478  -16.6272 C   0  0  0  0  0  0  0  0  0  0  0  0
   -4.8766    5.5526  -17.2776 C   0  0  0  0  0  0  0  0  0  0  0  0
   -5.9095    5.2050  -16.4087 C   0  0  0  0  0  0  0  0  0  0  0  0
   -7.0996    4.7481  -16.9166 C   0  0  0  0  0  0  0  0  0  0  0  0
   -8.1273    4.4343  -16.0385 C   0  0  0  0  0  0  0  0  0  0  0  0
   -9.3287    4.0385  -16.5589 C   0  0  0  0  0  0  0  0  0  0  0  0
   -9.5049    3.9826  -17.9258 C   0  0  0  0  0  0  0  0  0  0  0  0
   -8.4479    4.2478  -18.7904 C   0  0  0  0  0  0  0  0  0  0  0  0
   -7.2200    4.6315  -18.3055 C   0  0  0  0  0  0  0  0  0  0  0  0
   -6.2013    4.9021  -19.1384 N   0  0  0  0  0  0  0  0  0  0  0  0
   -5.0356    5.3663  -18.6446 C   0  0  0  0  0  0  0  0  0  0  0  0
   -4.1256    5.6742  -19.6565 N   0  0  0  0  0  0  0  0  0  0  0  0
   -2.6590    5.7446  -19.5376 C   0  0  0  0  0  0  0  0  0  0  0  0
   -1.9282    4.4428  -19.2636 C   0  0  0  0  0  0  0  0  0  0  0  0
   -2.4984    3.8243  -18.1952 F   0  0  0  0  0  0  0  0  0  0  0  0
   -2.0175    7.0468  -19.1026 C   0  0  0  0  0  0  0  0  0  0  0  0
   -1.9669    6.6539  -20.5428 C   0  0  0  0  0  0  0  0  0  0  0  0
  1  2  3  0
  2  3  1  0
  3  4  2  0
  4  5  1  0
  5  6  2  0
  6  7  1  0
  7  8  2  0
  8  9  1  0
  9 10  2  0
 10 11  1  0
 11 12  2  0
 12 13  1  0
 13 14  1  0
 14 15  1  0
 15 16  1  0
 14 17  1  0
 17 18  1  0
 12  3  1  0
 18 14  1  0
 10  5  1  0
M  END
>  <energy_score>  (2043) 
-18.147067

>  <alias>  (2043) 
None

>  <HIPPO Pose ID>  (2043) 
73347

>  <smiles>  (2043) 
N#Cc1cc2ccccc2nc1NC1(CF)CC1

>  <inchikey>  (2043) 
CIBCWBVHXPHBCY-UHFFFAOYSA-N

>  <distance_score>  (2043) 
1.947324

>  <ref_mols>  (2043) 
Z1688a,Z0089a

>  <ref_pdb>  (2043) 
Z1688a

>  <HIPPO Compound ID>  (2043) 
146383

>  <name>  (2043) 
P73347

>  <inspiration_score>  (2043) 
None

$$$$
P73348
     RDKit          3D

 18 20  0  0  0  0  0  0  0  0999 V2000
   -3.7546    6.4411  -15.2367 O   0  0  0  0  0  0  0  0  0  0  0  0
   -3.5828    6.2636  -16.6453 C   0  0  0  0  0  0  0  0  0  0  0  0
   -4.7750    5.6130  -17.2600 C   0  0  0  0  0  0  0  0  0  0  0  0
   -5.8265    5.2429  -16.4111 C   0  0  0  0  0  0  0  0  0  0  0  0
   -7.0157    4.7752  -16.9215 C   0  0  0  0  0  0  0  0  0  0  0  0
   -8.0582    4.4662  -16.0521 C   0  0  0  0  0  0  0  0  0  0  0  0
   -9.2558    4.0573  -16.5765 C   0  0  0  0  0  0  0  0  0  0  0  0
   -9.4083    3.9754  -17.9450 C   0  0  0  0  0  0  0  0  0  0  0  0
   -8.3398    4.2408  -18.7984 C   0  0  0  0  0  0  0  0  0  0  0  0
   -7.1195    4.6457  -18.3060 C   0  0  0  0  0  0  0  0  0  0  0  0
   -6.0930    4.9187  -19.1285 N   0  0  0  0  0  0  0  0  0  0  0  0
   -4.9403    5.4071  -18.6285 C   0  0  0  0  0  0  0  0  0  0  0  0
   -4.0376    5.7435  -19.6416 N   0  0  0  0  0  0  0  0  0  0  0  0
   -2.5615    5.6821  -19.6036 C   0  0  0  0  0  0  0  0  0  0  0  0
   -1.9370    4.3007  -19.5055 C   0  0  0  0  0  0  0  0  0  0  0  0
   -2.1016    3.6523  -20.6989 F   0  0  0  0  0  0  0  0  0  0  0  0
   -1.8651    6.5893  -20.6066 C   0  0  0  0  0  0  0  0  0  0  0  0
   -1.7556    6.8912  -19.1541 C   0  0  0  0  0  0  0  0  0  0  0  0
  1  2  1  0
  2  3  1  0
  3  4  2  0
  4  5  1  0
  5  6  2  0
  6  7  1  0
  7  8  2  0
  8  9  1  0
  9 10  2  0
 10 11  1  0
 11 12  2  0
 12 13  1  0
 13 14  1  0
 14 15  1  0
 15 16  1  0
 14 17  1  0
 17 18  1  0
 12  3  1  0
 18 14  1  0
 10  5  1  0
M  END
>  <energy_score>  (2044) 
-21.06115

>  <alias>  (2044) 
None

>  <HIPPO Pose ID>  (2044) 
73348

>  <smiles>  (2044) 
OCc1cc2ccccc2nc1NC1(CF)CC1

>  <inchikey>  (2044) 
WQIUPQMAZFCKIO-UHFFFAOYSA-N

>  <distance_score>  (2044) 
1.93066

>  <ref_mols>  (2044) 
Z1688a,Z0089a

>  <ref_pdb>  (2044) 
Z1688a

>  <HIPPO Compound ID>  (2044) 
146384

>  <name>  (2044) 
P73348

>  <inspiration_score>  (2044) 
None

$$$$
P73349
     RDKit          3D

 18 20  0  0  0  0  0  0  0  0999 V2000
   -2.3731    4.4612  -20.2564 F   0  0  0  0  0  0  0  0  0  0  0  0
   -1.9818    4.4200  -18.9520 C   0  0  0  0  0  0  0  0  0  0  0  0
   -2.3569    5.7298  -18.2762 C   0  0  0  0  0  0  0  0  0  0  0  0
   -3.7695    6.1434  -18.4375 N   0  0  0  0  0  0  0  0  0  0  0  0
   -4.8077    5.5886  -17.6844 C   0  0  0  0  0  0  0  0  0  0  0  0
   -5.0108    5.7566  -16.3140 C   0  0  0  0  0  0  0  0  0  0  0  0
   -6.2576    5.4048  -15.7257 C   0  0  0  0  0  0  0  0  0  0  0  0
   -6.5527    5.7892  -14.2948 C   0  0  0  0  0  0  0  0  0  0  0  0
   -6.8559    4.2846  -13.1108 Br  0  0  0  0  0  0  0  0  0  0  0  0
   -7.2508    4.8707  -16.5796 C   0  0  0  0  0  0  0  0  0  0  0  0
   -8.5749    4.5508  -16.2067 C   0  0  0  0  0  0  0  0  0  0  0  0
   -9.5056    4.1769  -17.1703 C   0  0  0  0  0  0  0  0  0  0  0  0
   -9.1258    4.0839  -18.4930 C   0  0  0  0  0  0  0  0  0  0  0  0
   -7.8167    4.3014  -18.8588 C   0  0  0  0  0  0  0  0  0  0  0  0
   -6.8974    4.7149  -17.9378 C   0  0  0  0  0  0  0  0  0  0  0  0
   -5.7249    5.0346  -18.4587 N   0  0  0  0  0  0  0  0  0  0  0  0
   -1.3471    6.8503  -18.4360 C   0  0  0  0  0  0  0  0  0  0  0  0
   -1.5424    6.2104  -17.0954 C   0  0  0  0  0  0  0  0  0  0  0  0
  1  2  1  0
  2  3  1  0
  3  4  1  0
  4  5  1  0
  5  6  2  0
  6  7  1  0
  7  8  1  0
  8  9  1  0
  7 10  2  0
 10 11  1  0
 11 12  2  0
 12 13  1  0
 13 14  2  0
 14 15  1  0
 15 16  2  0
  3 17  1  0
 17 18  1  0
 18  3  1  0
 16  5  1  0
 15 10  1  0
M  END
>  <energy_score>  (2045) 
-20.410936

>  <alias>  (2045) 
None

>  <HIPPO Pose ID>  (2045) 
73349

>  <smiles>  (2045) 
FCC1(Nc2cc(CBr)c3ccccc3n2)CC1

>  <inchikey>  (2045) 
XJNBCFJJOAPVSE-UHFFFAOYSA-N

>  <distance_score>  (2045) 
1.045503

>  <ref_mols>  (2045) 
Z1688a,Z0089a

>  <ref_pdb>  (2045) 
Z1688a

>  <HIPPO Compound ID>  (2045) 
146385

>  <name>  (2045) 
P73349

>  <inspiration_score>  (2045) 
None

$$$$
P73352
     RDKit          3D

 18 19  0  0  0  0  0  0  0  0999 V2000
   -1.9120    4.4304  -19.1809 C   0  0  0  0  0  0  0  0  0  0  0  0
   -2.9656    5.5220  -18.9769 C   0  0  2  0  0  0  0  0  0  0  0  0
   -2.4007    6.9162  -19.3109 C   0  0  0  0  0  0  0  0  0  0  0  0
   -1.9010    7.0629  -20.7372 C   0  0  0  0  0  0  0  0  0  0  0  0
   -2.9347    6.9236  -21.6029 F   0  0  0  0  0  0  0  0  0  0  0  0
   -3.3527    5.5140  -17.5515 N   0  0  0  0  0  0  0  0  0  0  0  0
   -4.6988    5.3322  -17.2218 C   0  0  0  0  0  0  0  0  0  0  0  0
   -5.1255    5.4864  -15.8964 C   0  0  0  0  0  0  0  0  0  0  0  0
   -6.4760    5.2826  -15.5311 C   0  0  0  0  0  0  0  0  0  0  0  0
   -6.9386    5.6386  -14.1425 C   0  0  0  0  0  0  0  0  0  0  0  0
   -7.2050    4.1039  -12.9995 Br  0  0  0  0  0  0  0  0  0  0  0  0
   -7.3586    4.8446  -16.5397 C   0  0  0  0  0  0  0  0  0  0  0  0
   -8.7288    4.5537  -16.3499 C   0  0  0  0  0  0  0  0  0  0  0  0
   -9.5481    4.2451  -17.4341 C   0  0  0  0  0  0  0  0  0  0  0  0
   -9.0041    4.1922  -18.7044 C   0  0  0  0  0  0  0  0  0  0  0  0
   -7.6452    4.3898  -18.8872 C   0  0  0  0  0  0  0  0  0  0  0  0
   -6.8241    4.7265  -17.8416 C   0  0  0  0  0  0  0  0  0  0  0  0
   -5.5532    4.9631  -18.1642 N   0  0  0  0  0  0  0  0  0  0  0  0
  2  1  1  1
  2  3  1  0
  3  4  1  0
  4  5  1  0
  2  6  1  0
  6  7  1  0
  7  8  2  0
  8  9  1  0
  9 10  1  0
 10 11  1  0
  9 12  2  0
 12 13  1  0
 13 14  2  0
 14 15  1  0
 15 16  2  0
 16 17  1  0
 17 18  2  0
 18  7  1  0
 17 12  1  0
M  END
>  <energy_score>  (2046) 
-18.728295

>  <alias>  (2046) 
None

>  <HIPPO Pose ID>  (2046) 
73352

>  <smiles>  (2046) 
C[C@H](CCF)Nc1cc(CBr)c2ccccc2n1

>  <inchikey>  (2046) 
KBFKZTFJKJZZQB-SNVBAGLBSA-N

>  <distance_score>  (2046) 
0.996335

>  <ref_mols>  (2046) 
Z1688a,Z0089a

>  <ref_pdb>  (2046) 
Z1688a

>  <HIPPO Compound ID>  (2046) 
146388

>  <name>  (2046) 
P73352

>  <inspiration_score>  (2046) 
None

$$$$
P73358
     RDKit          3D

 18 19  0  0  0  0  0  0  0  0999 V2000
   -2.0198    4.3066  -19.4304 C   0  0  0  0  0  0  0  0  0  0  0  0
   -2.4717    5.7137  -19.0627 C   0  0  1  0  0  0  0  0  0  0  0  0
   -1.7769    6.7361  -19.9737 C   0  0  0  0  0  0  0  0  0  0  0  0
   -1.9915    8.1867  -19.5559 C   0  0  0  0  0  0  0  0  0  0  0  0
   -1.0739    8.5882  -18.0796 Cl  0  0  0  0  0  0  0  0  0  0  0  0
   -3.9072    5.8684  -19.2398 N   0  0  0  0  0  0  0  0  0  0  0  0
   -4.8706    5.5037  -18.3275 C   0  0  0  0  0  0  0  0  0  0  0  0
   -5.9542    4.9879  -18.9349 N   0  0  0  0  0  0  0  0  0  0  0  0
   -7.0345    4.6740  -18.2008 C   0  0  0  0  0  0  0  0  0  0  0  0
   -8.1934    4.2451  -18.8007 C   0  0  0  0  0  0  0  0  0  0  0  0
   -9.3244    3.9569  -18.0431 C   0  0  0  0  0  0  0  0  0  0  0  0
   -9.2992    4.0303  -16.6664 C   0  0  0  0  0  0  0  0  0  0  0  0
   -8.1592    4.4465  -16.0338 C   0  0  0  0  0  0  0  0  0  0  0  0
   -7.0542    4.7864  -16.8083 C   0  0  0  0  0  0  0  0  0  0  0  0
   -5.9307    5.2833  -16.1927 C   0  0  0  0  0  0  0  0  0  0  0  0
   -4.8409    5.7206  -16.9522 C   0  0  0  0  0  0  0  0  0  0  0  0
   -3.7442    6.4305  -16.2333 C   0  0  0  0  0  0  0  0  0  0  0  0
   -4.1992    6.9223  -14.9711 O   0  0  0  0  0  0  0  0  0  0  0  0
  2  1  1  6
  2  3  1  0
  3  4  1  0
  4  5  1  0
  2  6  1  0
  6  7  1  0
  7  8  2  0
  8  9  1  0
  9 10  2  0
 10 11  1  0
 11 12  2  0
 12 13  1  0
 13 14  2  0
 14 15  1  0
 15 16  2  0
 16 17  1  0
 17 18  1  0
 16  7  1  0
 14  9  1  0
M  END
>  <energy_score>  (2047) 
-20.067147

>  <alias>  (2047) 
None

>  <HIPPO Pose ID>  (2047) 
73358

>  <smiles>  (2047) 
C[C@@H](CCCl)Nc1nc2ccccc2cc1CO

>  <inchikey>  (2047) 
SIOGLJKSOPRLGY-JTQLQIEISA-N

>  <distance_score>  (2047) 
1.918002

>  <ref_mols>  (2047) 
Z1688a,Z0089a

>  <ref_pdb>  (2047) 
Z1688a

>  <HIPPO Compound ID>  (2047) 
146397

>  <name>  (2047) 
P73358

>  <inspiration_score>  (2047) 
None

$$$$
P73359
     RDKit          3D

 18 19  0  0  0  0  0  0  0  0999 V2000
   -1.7402    4.5239  -19.2126 C   0  0  0  0  0  0  0  0  0  0  0  0
   -3.0217    5.3309  -19.0044 C   0  0  2  0  0  0  0  0  0  0  0  0
   -2.9108    6.7689  -19.5416 C   0  0  0  0  0  0  0  0  0  0  0  0
   -1.6826    7.5371  -19.0723 C   0  0  0  0  0  0  0  0  0  0  0  0
   -1.7486    9.2247  -19.6474 Cl  0  0  0  0  0  0  0  0  0  0  0  0
   -3.3555    5.3363  -17.5705 N   0  0  0  0  0  0  0  0  0  0  0  0
   -4.7078    5.2505  -17.2217 C   0  0  0  0  0  0  0  0  0  0  0  0
   -5.1147    5.4072  -15.8918 C   0  0  0  0  0  0  0  0  0  0  0  0
   -6.4701    5.2490  -15.5186 C   0  0  0  0  0  0  0  0  0  0  0  0
   -6.9124    5.6096  -14.1247 C   0  0  0  0  0  0  0  0  0  0  0  0
   -7.2104    4.0780  -12.9862 Br  0  0  0  0  0  0  0  0  0  0  0  0
   -7.3746    4.8403  -16.5213 C   0  0  0  0  0  0  0  0  0  0  0  0
   -8.7460    4.5632  -16.3218 C   0  0  0  0  0  0  0  0  0  0  0  0
   -9.5779    4.2694  -17.4016 C   0  0  0  0  0  0  0  0  0  0  0  0
   -9.0489    4.2254  -18.6780 C   0  0  0  0  0  0  0  0  0  0  0  0
   -7.6915    4.4123  -18.8712 C   0  0  0  0  0  0  0  0  0  0  0  0
   -6.8588    4.7302  -17.8296 C   0  0  0  0  0  0  0  0  0  0  0  0
   -5.5897    4.9469  -18.1633 N   0  0  0  0  0  0  0  0  0  0  0  0
  2  1  1  1
  2  3  1  0
  3  4  1  0
  4  5  1  0
  2  6  1  0
  6  7  1  0
  7  8  2  0
  8  9  1  0
  9 10  1  0
 10 11  1  0
  9 12  2  0
 12 13  1  0
 13 14  2  0
 14 15  1  0
 15 16  2  0
 16 17  1  0
 17 18  2  0
 18  7  1  0
 17 12  1  0
M  END
>  <energy_score>  (2048) 
-14.092412

>  <alias>  (2048) 
None

>  <HIPPO Pose ID>  (2048) 
73359

>  <smiles>  (2048) 
C[C@H](CCCl)Nc1cc(CBr)c2ccccc2n1

>  <inchikey>  (2048) 
DZVFLGJRPJTQBC-SNVBAGLBSA-N

>  <distance_score>  (2048) 
1.005905

>  <ref_mols>  (2048) 
Z1688a,Z0089a

>  <ref_pdb>  (2048) 
Z1688a

>  <HIPPO Compound ID>  (2048) 
146398

>  <name>  (2048) 
P73359

>  <inspiration_score>  (2048) 
None

$$$$
P73361
     RDKit          3D

 18 19  0  0  0  0  0  0  0  0999 V2000
   -1.9575    4.3141  -19.5472 C   0  0  0  0  0  0  0  0  0  0  0  0
   -2.4854    5.6160  -18.9572 C   0  0  1  0  0  0  0  0  0  0  0  0
   -1.6811    6.8313  -19.4471 C   0  0  0  0  0  0  0  0  0  0  0  0
   -1.7001    7.0161  -20.9613 C   0  0  0  0  0  0  0  0  0  0  0  0
   -0.7400    8.4509  -21.4146 Cl  0  0  0  0  0  0  0  0  0  0  0  0
   -3.8854    5.8416  -19.2904 N   0  0  0  0  0  0  0  0  0  0  0  0
   -4.9145    5.6277  -18.3994 C   0  0  0  0  0  0  0  0  0  0  0  0
   -5.9355    4.9717  -18.9721 N   0  0  0  0  0  0  0  0  0  0  0  0
   -7.0384    4.7109  -18.2538 C   0  0  0  0  0  0  0  0  0  0  0  0
   -8.1078    4.0756  -18.8280 C   0  0  0  0  0  0  0  0  0  0  0  0
   -9.2267    3.7479  -18.0687 C   0  0  0  0  0  0  0  0  0  0  0  0
   -9.3013    4.0495  -16.7243 C   0  0  0  0  0  0  0  0  0  0  0  0
   -8.2703    4.7260  -16.1314 C   0  0  0  0  0  0  0  0  0  0  0  0
   -7.1643    5.0622  -16.9074 C   0  0  0  0  0  0  0  0  0  0  0  0
   -6.1394    5.7815  -16.3450 C   0  0  0  0  0  0  0  0  0  0  0  0
   -4.9927    6.0921  -17.0900 C   0  0  0  0  0  0  0  0  0  0  0  0
   -3.9971    6.9604  -16.4098 C   0  0  0  0  0  0  0  0  0  0  0  0
   -3.3111    6.0178  -14.8507 Br  0  0  0  0  0  0  0  0  0  0  0  0
  2  1  1  6
  2  3  1  0
  3  4  1  0
  4  5  1  0
  2  6  1  0
  6  7  1  0
  7  8  2  0
  8  9  1  0
  9 10  2  0
 10 11  1  0
 11 12  2  0
 12 13  1  0
 13 14  2  0
 14 15  1  0
 15 16  2  0
 16 17  1  0
 17 18  1  0
 16  7  1  0
 14  9  1  0
M  END
>  <energy_score>  (2049) 
-28.14812

>  <alias>  (2049) 
None

>  <HIPPO Pose ID>  (2049) 
73361

>  <smiles>  (2049) 
C[C@@H](CCCl)Nc1nc2ccccc2cc1CBr

>  <inchikey>  (2049) 
UMCKDKRFSLIIRN-JTQLQIEISA-N

>  <distance_score>  (2049) 
1.934176

>  <ref_mols>  (2049) 
Z1688a,Z0089a

>  <ref_pdb>  (2049) 
Z1688a

>  <HIPPO Compound ID>  (2049) 
146399

>  <name>  (2049) 
P73361

>  <inspiration_score>  (2049) 
None

$$$$
P73362
     RDKit          3D

 18 19  0  0  0  0  0  0  0  0999 V2000
   -1.7963    4.5505  -19.2336 C   0  0  0  0  0  0  0  0  0  0  0  0
   -3.1059    5.3283  -19.0593 C   0  0  2  0  0  0  0  0  0  0  0  0
   -2.9480    6.7369  -19.6555 C   0  0  0  0  0  0  0  0  0  0  0  0
   -4.2687    7.4851  -19.8397 C   0  0  0  0  0  0  0  0  0  0  0  0
   -4.7151    8.4379  -18.3969 Cl  0  0  0  0  0  0  0  0  0  0  0  0
   -3.4020    5.3773  -17.6217 N   0  0  0  0  0  0  0  0  0  0  0  0
   -4.7308    5.2036  -17.2261 C   0  0  0  0  0  0  0  0  0  0  0  0
   -5.0860    5.2748  -15.8819 C   0  0  0  0  0  0  0  0  0  0  0  0
   -6.4208    5.0482  -15.4900 C   0  0  0  0  0  0  0  0  0  0  0  0
   -6.7189    5.1546  -14.0275 C   0  0  0  0  0  0  0  0  0  0  0  0
   -7.8282    5.1933  -13.5131 O   0  0  0  0  0  0  0  0  0  0  0  0
   -7.3833    4.7402  -16.4700 C   0  0  0  0  0  0  0  0  0  0  0  0
   -8.7549    4.4643  -16.2603 C   0  0  0  0  0  0  0  0  0  0  0  0
   -9.6103    4.2452  -17.3403 C   0  0  0  0  0  0  0  0  0  0  0  0
   -9.1089    4.2634  -18.6276 C   0  0  0  0  0  0  0  0  0  0  0  0
   -7.7542    4.4426  -18.8336 C   0  0  0  0  0  0  0  0  0  0  0  0
   -6.9018    4.7018  -17.7923 C   0  0  0  0  0  0  0  0  0  0  0  0
   -5.6383    4.9168  -18.1480 N   0  0  0  0  0  0  0  0  0  0  0  0
  2  1  1  1
  2  3  1  0
  3  4  1  0
  4  5  1  0
  2  6  1  0
  6  7  1  0
  7  8  2  0
  8  9  1  0
  9 10  1  0
 10 11  2  0
  9 12  2  0
 12 13  1  0
 13 14  2  0
 14 15  1  0
 15 16  2  0
 16 17  1  0
 17 18  2  0
 18  7  1  0
 17 12  1  0
M  END
>  <energy_score>  (2050) 
-27.426911

>  <alias>  (2050) 
None

>  <HIPPO Pose ID>  (2050) 
73362

>  <smiles>  (2050) 
C[C@H](CCCl)Nc1cc(C=O)c2ccccc2n1

>  <inchikey>  (2050) 
RNISERKAWZCMGG-SNVBAGLBSA-N

>  <distance_score>  (2050) 
1.087501

>  <ref_mols>  (2050) 
Z1688a,Z0089a

>  <ref_pdb>  (2050) 
Z1688a

>  <HIPPO Compound ID>  (2050) 
146400

>  <name>  (2050) 
P73362

>  <inspiration_score>  (2050) 
None

$$$$
P73365
     RDKit          3D

 18 20  0  0  0  0  0  0  0  0999 V2000
   -3.0667    6.7620  -15.8425 N   0  0  0  0  0  0  0  0  0  0  0  0
   -3.8766    6.2297  -16.4767 C   0  0  0  0  0  0  0  0  0  0  0  0
   -4.9725    5.6066  -17.1127 C   0  0  0  0  0  0  0  0  0  0  0  0
   -6.0336    5.2826  -16.2812 C   0  0  0  0  0  0  0  0  0  0  0  0
   -7.1848    4.7890  -16.8405 C   0  0  0  0  0  0  0  0  0  0  0  0
   -8.2351    4.4575  -16.0025 C   0  0  0  0  0  0  0  0  0  0  0  0
   -9.3976    4.0227  -16.5727 C   0  0  0  0  0  0  0  0  0  0  0  0
   -9.5211    3.9590  -17.9445 C   0  0  0  0  0  0  0  0  0  0  0  0
   -8.4419    4.2409  -18.7711 C   0  0  0  0  0  0  0  0  0  0  0  0
   -7.2462    4.6488  -18.2366 C   0  0  0  0  0  0  0  0  0  0  0  0
   -6.1977    4.9054  -19.0315 N   0  0  0  0  0  0  0  0  0  0  0  0
   -5.0644    5.3644  -18.4783 C   0  0  0  0  0  0  0  0  0  0  0  0
   -4.0277    5.5689  -19.4000 N   0  0  0  0  0  0  0  0  0  0  0  0
   -2.6761    5.1056  -19.0830 C   0  0  1  0  0  0  0  0  0  0  0  0
   -1.6218    5.1601  -20.1463 C   0  0  0  0  0  0  0  0  0  0  0  0
   -1.5055    6.0480  -18.9347 C   0  0  1  0  0  0  0  0  0  0  0  0
   -1.6307    7.5270  -19.0913 C   0  0  0  0  0  0  0  0  0  0  0  0
   -1.2531    8.1699  -17.8795 O   0  0  0  0  0  0  0  0  0  0  0  0
  1  2  3  0
  2  3  1  0
  3  4  2  0
  4  5  1  0
  5  6  2  0
  6  7  1  0
  7  8  2  0
  8  9  1  0
  9 10  2  0
 10 11  1  0
 11 12  2  0
 12 13  1  0
 14 13  1  6
 14 15  1  0
 15 16  1  0
 16 17  1  6
 17 18  1  0
 12  3  1  0
 16 14  1  0
 10  5  1  0
M  END
>  <energy_score>  (2051) 
-18.932912

>  <alias>  (2051) 
None

>  <HIPPO Pose ID>  (2051) 
73365

>  <smiles>  (2051) 
N#Cc1cc2ccccc2nc1N[C@H]1C[C@H]1CO

>  <inchikey>  (2051) 
UIQTWGVXXISIDP-AAEUAGOBSA-N

>  <distance_score>  (2051) 
1.970714

>  <ref_mols>  (2051) 
Z1688a,Z0089a

>  <ref_pdb>  (2051) 
Z1688a

>  <HIPPO Compound ID>  (2051) 
146401

>  <name>  (2051) 
P73365

>  <inspiration_score>  (2051) 
None

$$$$
P73366
     RDKit          3D

 18 20  0  0  0  0  0  0  0  0999 V2000
   -4.0086    6.8509  -15.2583 O   0  0  0  0  0  0  0  0  0  0  0  0
   -3.6987    6.3266  -16.5507 C   0  0  0  0  0  0  0  0  0  0  0  0
   -4.9067    5.6905  -17.1518 C   0  0  0  0  0  0  0  0  0  0  0  0
   -5.9647    5.3361  -16.3173 C   0  0  0  0  0  0  0  0  0  0  0  0
   -7.1260    4.8298  -16.8534 C   0  0  0  0  0  0  0  0  0  0  0  0
   -8.1681    4.4931  -16.0019 C   0  0  0  0  0  0  0  0  0  0  0  0
   -9.3370    4.0409  -16.5507 C   0  0  0  0  0  0  0  0  0  0  0  0
   -9.4722    3.9575  -17.9209 C   0  0  0  0  0  0  0  0  0  0  0  0
   -8.4035    4.2505  -18.7594 C   0  0  0  0  0  0  0  0  0  0  0  0
   -7.2053    4.6815  -18.2433 C   0  0  0  0  0  0  0  0  0  0  0  0
   -6.1715    4.9433  -19.0527 N   0  0  0  0  0  0  0  0  0  0  0  0
   -5.0366    5.4158  -18.5135 C   0  0  0  0  0  0  0  0  0  0  0  0
   -4.0037    5.5884  -19.4506 N   0  0  0  0  0  0  0  0  0  0  0  0
   -2.6916    5.0137  -19.1522 C   0  0  1  0  0  0  0  0  0  0  0  0
   -1.6957    4.7733  -20.2472 C   0  0  0  0  0  0  0  0  0  0  0  0
   -1.4412    5.8504  -19.2275 C   0  0  1  0  0  0  0  0  0  0  0  0
   -1.4652    7.2799  -19.6471 C   0  0  0  0  0  0  0  0  0  0  0  0
   -0.1609    7.6508  -20.0767 O   0  0  0  0  0  0  0  0  0  0  0  0
  1  2  1  0
  2  3  1  0
  3  4  2  0
  4  5  1  0
  5  6  2  0
  6  7  1  0
  7  8  2  0
  8  9  1  0
  9 10  2  0
 10 11  1  0
 11 12  2  0
 12 13  1  0
 14 13  1  6
 14 15  1  0
 15 16  1  0
 16 17  1  6
 17 18  1  0
 12  3  1  0
 16 14  1  0
 10  5  1  0
M  END
>  <energy_score>  (2052) 
-25.083795

>  <alias>  (2052) 
None

>  <HIPPO Pose ID>  (2052) 
73366

>  <smiles>  (2052) 
OCc1cc2ccccc2nc1N[C@H]1C[C@H]1CO

>  <inchikey>  (2052) 
ITNXJTKDKXVEEE-GWCFXTLKSA-N

>  <distance_score>  (2052) 
1.919818

>  <ref_mols>  (2052) 
Z1688a,Z0089a

>  <ref_pdb>  (2052) 
Z1688a

>  <HIPPO Compound ID>  (2052) 
146402

>  <name>  (2052) 
P73366

>  <inspiration_score>  (2052) 
None

$$$$
P73368
     RDKit          3D

 18 19  0  0  0  0  0  0  0  0999 V2000
   -1.8206    4.3457  -19.7366 C   0  0  0  0  0  0  0  0  0  0  0  0
   -2.4483    5.5632  -19.0671 C   0  0  2  0  0  0  0  0  0  0  0  0
   -3.8834    5.6063  -19.2876 N   0  0  0  0  0  0  0  0  0  0  0  0
   -4.8718    5.3837  -18.3677 C   0  0  0  0  0  0  0  0  0  0  0  0
   -5.9769    4.8920  -18.9553 N   0  0  0  0  0  0  0  0  0  0  0  0
   -7.0646    4.6383  -18.2115 C   0  0  0  0  0  0  0  0  0  0  0  0
   -8.2348    4.2193  -18.7959 C   0  0  0  0  0  0  0  0  0  0  0  0
   -9.3592    3.9510  -18.0222 C   0  0  0  0  0  0  0  0  0  0  0  0
   -9.3162    4.0425  -16.6471 C   0  0  0  0  0  0  0  0  0  0  0  0
   -8.1726    4.4738  -16.0323 C   0  0  0  0  0  0  0  0  0  0  0  0
   -7.0734    4.7895  -16.8231 C   0  0  0  0  0  0  0  0  0  0  0  0
   -5.9407    5.2905  -16.2288 C   0  0  0  0  0  0  0  0  0  0  0  0
   -4.8388    5.6674  -17.0039 C   0  0  0  0  0  0  0  0  0  0  0  0
   -3.7201    6.3577  -16.2964 C   0  0  0  0  0  0  0  0  0  0  0  0
   -4.1923    6.9761  -15.0978 O   0  0  0  0  0  0  0  0  0  0  0  0
   -1.8253    6.8909  -19.5387 C   0  0  2  0  0  0  0  0  0  0  0  0
   -1.7755    7.0791  -21.0470 C   0  0  0  0  0  0  0  0  0  0  0  0
   -0.5454    6.9624  -19.0641 F   0  0  0  0  0  0  0  0  0  0  0  0
  2  1  1  6
  2  3  1  0
  3  4  1  0
  4  5  2  0
  5  6  1  0
  6  7  2  0
  7  8  1  0
  8  9  2  0
  9 10  1  0
 10 11  2  0
 11 12  1  0
 12 13  2  0
 13 14  1  0
 14 15  1  0
  2 16  1  0
 16 17  1  6
 16 18  1  0
 13  4  1  0
 11  6  1  0
M  END
>  <energy_score>  (2053) 
-21.179911

>  <alias>  (2053) 
None

>  <HIPPO Pose ID>  (2053) 
73368

>  <smiles>  (2053) 
C[C@H](F)[C@H](C)Nc1nc2ccccc2cc1CO

>  <inchikey>  (2053) 
SOUCYSDWKUMNQR-UWVGGRQHSA-N

>  <distance_score>  (2053) 
1.902851

>  <ref_mols>  (2053) 
Z1688a,Z0089a

>  <ref_pdb>  (2053) 
Z1688a

>  <HIPPO Compound ID>  (2053) 
146403

>  <name>  (2053) 
P73368

>  <inspiration_score>  (2053) 
None

$$$$
P73375
     RDKit          3D

 18 19  0  0  0  0  0  0  0  0999 V2000
   -1.7777    5.6407  -21.7492 C   0  0  0  0  0  0  0  0  0  0  0  0
   -1.7381    4.8376  -20.4561 C   0  0  2  0  0  0  0  0  0  0  0  0
   -2.2470    3.6042  -20.7298 F   0  0  0  0  0  0  0  0  0  0  0  0
   -2.4487    5.4822  -19.2362 C   0  0  1  0  0  0  0  0  0  0  0  0
   -1.9201    6.9110  -19.0412 C   0  0  0  0  0  0  0  0  0  0  0  0
   -3.8950    5.5529  -19.3681 N   0  0  0  0  0  0  0  0  0  0  0  0
   -4.8426    5.2501  -18.4241 C   0  0  0  0  0  0  0  0  0  0  0  0
   -6.0019    4.8960  -19.0134 N   0  0  0  0  0  0  0  0  0  0  0  0
   -7.0893    4.6201  -18.2699 C   0  0  0  0  0  0  0  0  0  0  0  0
   -8.3005    4.3221  -18.8489 C   0  0  0  0  0  0  0  0  0  0  0  0
   -9.4319    4.0861  -18.0736 C   0  0  0  0  0  0  0  0  0  0  0  0
   -9.3524    4.0531  -16.6989 C   0  0  0  0  0  0  0  0  0  0  0  0
   -8.1623    4.3292  -16.0844 C   0  0  0  0  0  0  0  0  0  0  0  0
   -7.0585    4.6277  -16.8775 C   0  0  0  0  0  0  0  0  0  0  0  0
   -5.8684    4.9450  -16.2752 C   0  0  0  0  0  0  0  0  0  0  0  0
   -4.7471    5.3216  -17.0353 C   0  0  0  0  0  0  0  0  0  0  0  0
   -3.5950    5.7740  -16.2126 C   0  0  0  0  0  0  0  0  0  0  0  0
   -4.1233    7.3698  -15.2123 Br  0  0  0  0  0  0  0  0  0  0  0  0
  2  1  1  6
  2  3  1  0
  2  4  1  0
  4  5  1  6
  4  6  1  0
  6  7  1  0
  7  8  2  0
  8  9  1  0
  9 10  2  0
 10 11  1  0
 11 12  2  0
 12 13  1  0
 13 14  2  0
 14 15  1  0
 15 16  2  0
 16 17  1  0
 17 18  1  0
 16  7  1  0
 14  9  1  0
M  END
>  <energy_score>  (2054) 
-27.938583

>  <alias>  (2054) 
None

>  <HIPPO Pose ID>  (2054) 
73375

>  <smiles>  (2054) 
C[C@H](F)[C@@H](C)Nc1nc2ccccc2cc1CBr

>  <inchikey>  (2054) 
KTYSINRWSQTUMM-VHSXEESVSA-N

>  <distance_score>  (2054) 
1.94969

>  <ref_mols>  (2054) 
Z1688a,Z0089a

>  <ref_pdb>  (2054) 
Z1688a

>  <HIPPO Compound ID>  (2054) 
146405

>  <name>  (2054) 
P73375

>  <inspiration_score>  (2054) 
None

$$$$
P73377
     RDKit          3D

 18 19  0  0  0  0  0  0  0  0999 V2000
   -0.5167    5.3903  -18.8510 C   0  0  0  0  0  0  0  0  0  0  0  0
   -1.7442    4.7024  -19.4288 C   0  0  1  0  0  0  0  0  0  0  0  0
   -1.7621    3.4137  -18.9703 F   0  0  0  0  0  0  0  0  0  0  0  0
   -3.0952    5.3637  -19.0695 C   0  0  2  0  0  0  0  0  0  0  0  0
   -3.1272    6.8292  -19.4975 C   0  0  0  0  0  0  0  0  0  0  0  0
   -3.3521    5.2830  -17.6118 N   0  0  0  0  0  0  0  0  0  0  0  0
   -4.6966    5.1738  -17.2206 C   0  0  0  0  0  0  0  0  0  0  0  0
   -5.0411    5.2080  -15.8720 C   0  0  0  0  0  0  0  0  0  0  0  0
   -6.3821    5.0187  -15.4798 C   0  0  0  0  0  0  0  0  0  0  0  0
   -6.6748    5.1013  -14.0150 C   0  0  0  0  0  0  0  0  0  0  0  0
   -7.7816    5.1847  -13.5004 O   0  0  0  0  0  0  0  0  0  0  0  0
   -7.3554    4.7515  -16.4607 C   0  0  0  0  0  0  0  0  0  0  0  0
   -8.7248    4.4645  -16.2455 C   0  0  0  0  0  0  0  0  0  0  0  0
   -9.5859    4.2507  -17.3221 C   0  0  0  0  0  0  0  0  0  0  0  0
   -9.0938    4.2893  -18.6124 C   0  0  0  0  0  0  0  0  0  0  0  0
   -7.7435    4.4990  -18.8246 C   0  0  0  0  0  0  0  0  0  0  0  0
   -6.8851    4.7568  -17.7875 C   0  0  0  0  0  0  0  0  0  0  0  0
   -5.6249    4.9931  -18.1475 N   0  0  0  0  0  0  0  0  0  0  0  0
  2  1  1  1
  2  3  1  0
  2  4  1  0
  4  5  1  1
  4  6  1  0
  6  7  1  0
  7  8  2  0
  8  9  1  0
  9 10  1  0
 10 11  2  0
  9 12  2  0
 12 13  1  0
 13 14  2  0
 14 15  1  0
 15 16  2  0
 16 17  1  0
 17 18  2  0
 18  7  1  0
 17 12  1  0
M  END
>  <energy_score>  (2055) 
-24.86404

>  <alias>  (2055) 
None

>  <HIPPO Pose ID>  (2055) 
73377

>  <smiles>  (2055) 
C[C@H](Nc1cc(C=O)c2ccccc2n1)[C@@H](C)F

>  <inchikey>  (2055) 
XCBSDQKIKNHPMJ-ZJUUUORDSA-N

>  <distance_score>  (2055) 
1.114185

>  <ref_mols>  (2055) 
Z1688a,Z0089a

>  <ref_pdb>  (2055) 
Z1688a

>  <HIPPO Compound ID>  (2055) 
146406

>  <name>  (2055) 
P73377

>  <inspiration_score>  (2055) 
None

$$$$
P73382
     RDKit          3D

 18 20  0  0  0  0  0  0  0  0999 V2000
    0.3102    7.2070  -17.8844 O   0  0  0  0  0  0  0  0  0  0  0  0
    0.0844    5.9706  -18.5450 C   0  0  0  0  0  0  0  0  0  0  0  0
   -1.3323    5.9206  -19.0005 C   0  0  1  0  0  0  0  0  0  0  0  0
   -1.9880    4.5887  -19.2467 C   0  0  0  0  0  0  0  0  0  0  0  0
   -2.4427    5.4466  -18.0912 C   0  0  2  0  0  0  0  0  0  0  0  0
   -3.7367    6.1406  -18.1617 N   0  0  0  0  0  0  0  0  0  0  0  0
   -4.8434    5.5900  -17.5064 C   0  0  0  0  0  0  0  0  0  0  0  0
   -5.0925    5.7065  -16.1397 C   0  0  0  0  0  0  0  0  0  0  0  0
   -6.3671    5.3628  -15.6216 C   0  0  0  0  0  0  0  0  0  0  0  0
   -6.7159    5.7146  -14.1959 C   0  0  0  0  0  0  0  0  0  0  0  0
   -7.0032    4.1782  -13.0542 Br  0  0  0  0  0  0  0  0  0  0  0  0
   -7.3264    4.8596  -16.5332 C   0  0  0  0  0  0  0  0  0  0  0  0
   -8.6628    4.5260  -16.2227 C   0  0  0  0  0  0  0  0  0  0  0  0
   -9.5576    4.1836  -17.2336 C   0  0  0  0  0  0  0  0  0  0  0  0
   -9.1264    4.1265  -18.5435 C   0  0  0  0  0  0  0  0  0  0  0  0
   -7.8030    4.3543  -18.8490 C   0  0  0  0  0  0  0  0  0  0  0  0
   -6.9223    4.7489  -17.8826 C   0  0  0  0  0  0  0  0  0  0  0  0
   -5.7336    5.0918  -18.3490 N   0  0  0  0  0  0  0  0  0  0  0  0
  1  2  1  0
  3  2  1  1
  3  4  1  0
  4  5  1  0
  5  6  1  6
  6  7  1  0
  7  8  2  0
  8  9  1  0
  9 10  1  0
 10 11  1  0
  9 12  2  0
 12 13  1  0
 13 14  2  0
 14 15  1  0
 15 16  2  0
 16 17  1  0
 17 18  2  0
  5  3  1  0
 18  7  1  0
 17 12  1  0
M  END
>  <energy_score>  (2056) 
-11.549314

>  <alias>  (2056) 
None

>  <HIPPO Pose ID>  (2056) 
73382

>  <smiles>  (2056) 
OC[C@H]1C[C@@H]1Nc1cc(CBr)c2ccccc2n1

>  <inchikey>  (2056) 
JRBLLKDOMXPHND-MFKMUULPSA-N

>  <distance_score>  (2056) 
1.013293

>  <ref_mols>  (2056) 
Z1688a,Z0089a

>  <ref_pdb>  (2056) 
Z1688a

>  <HIPPO Compound ID>  (2056) 
146407

>  <name>  (2056) 
P73382

>  <inspiration_score>  (2056) 
None

$$$$
P73387
     RDKit          3D

 18 20  0  0  0  0  0  0  0  0999 V2000
   -7.8867    5.2115  -13.5050 O   0  0  0  0  0  0  0  0  0  0  0  0
   -6.7724    5.1119  -13.9995 C   0  0  0  0  0  0  0  0  0  0  0  0
   -6.4576    5.0345  -15.4595 C   0  0  0  0  0  0  0  0  0  0  0  0
   -5.1170    5.2575  -15.8297 C   0  0  0  0  0  0  0  0  0  0  0  0
   -4.7492    5.2078  -17.1720 C   0  0  0  0  0  0  0  0  0  0  0  0
   -3.3960    5.3353  -17.5473 N   0  0  0  0  0  0  0  0  0  0  0  0
   -3.0243    5.2468  -18.9687 C   0  0  2  0  0  0  0  0  0  0  0  0
   -1.5934    4.9498  -19.3346 C   0  0  0  0  0  0  0  0  0  0  0  0
   -2.1742    6.3116  -19.6097 C   0  0  1  0  0  0  0  0  0  0  0  0
   -2.4432    6.7414  -21.0111 C   0  0  0  0  0  0  0  0  0  0  0  0
   -1.2339    7.2363  -21.5732 O   0  0  0  0  0  0  0  0  0  0  0  0
   -5.6493    4.9529  -18.1129 N   0  0  0  0  0  0  0  0  0  0  0  0
   -6.9150    4.7264  -17.7741 C   0  0  0  0  0  0  0  0  0  0  0  0
   -7.7549    4.4688  -18.8259 C   0  0  0  0  0  0  0  0  0  0  0  0
   -9.1102    4.2755  -18.6351 C   0  0  0  0  0  0  0  0  0  0  0  0
   -9.6246    4.2445  -17.3530 C   0  0  0  0  0  0  0  0  0  0  0  0
   -8.7809    4.4585  -16.2625 C   0  0  0  0  0  0  0  0  0  0  0  0
   -7.4092    4.7437  -16.4557 C   0  0  0  0  0  0  0  0  0  0  0  0
  1  2  2  0
  2  3  1  0
  3  4  2  0
  4  5  1  0
  5  6  1  0
  7  6  1  1
  7  8  1  0
  8  9  1  0
  9 10  1  6
 10 11  1  0
  5 12  2  0
 12 13  1  0
 13 14  2  0
 14 15  1  0
 15 16  2  0
 16 17  1  0
 17 18  2  0
 18  3  1  0
  9  7  1  0
 18 13  1  0
M  END
>  <energy_score>  (2057) 
-25.029639

>  <alias>  (2057) 
None

>  <HIPPO Pose ID>  (2057) 
73387

>  <smiles>  (2057) 
O=Cc1cc(N[C@@H]2C[C@H]2CO)nc2ccccc12

>  <inchikey>  (2057) 
FKXMABQTDTXSTJ-GXFFZTMASA-N

>  <distance_score>  (2057) 
1.098368

>  <ref_mols>  (2057) 
Z1688a,Z0089a

>  <ref_pdb>  (2057) 
Z1688a

>  <HIPPO Compound ID>  (2057) 
146409

>  <name>  (2057) 
P73387

>  <inspiration_score>  (2057) 
None

$$$$
P73390
     RDKit          3D

 18 20  0  0  0  0  0  0  0  0999 V2000
   -3.9580    6.6646  -14.9693 O   0  0  0  0  0  0  0  0  0  0  0  0
   -3.7538    6.5535  -16.3786 C   0  0  0  0  0  0  0  0  0  0  0  0
   -4.8711    5.8162  -17.0410 C   0  0  0  0  0  0  0  0  0  0  0  0
   -5.9874    5.4724  -16.2721 C   0  0  0  0  0  0  0  0  0  0  0  0
   -7.0912    4.9002  -16.8586 C   0  0  0  0  0  0  0  0  0  0  0  0
   -8.1848    4.5703  -16.0639 C   0  0  0  0  0  0  0  0  0  0  0  0
   -9.2963    4.0469  -16.6654 C   0  0  0  0  0  0  0  0  0  0  0  0
   -9.3118    3.8806  -18.0342 C   0  0  0  0  0  0  0  0  0  0  0  0
   -8.1989    4.1826  -18.8132 C   0  0  0  0  0  0  0  0  0  0  0  0
   -7.0592    4.6896  -18.2405 C   0  0  0  0  0  0  0  0  0  0  0  0
   -5.9821    4.9743  -18.9893 N   0  0  0  0  0  0  0  0  0  0  0  0
   -4.9065    5.5260  -18.4061 C   0  0  0  0  0  0  0  0  0  0  0  0
   -3.9056    5.8251  -19.3213 N   0  0  0  0  0  0  0  0  0  0  0  0
   -2.5537    5.3165  -19.0753 C   0  0  1  0  0  0  0  0  0  0  0  0
   -1.9907    4.6182  -20.2935 C   0  0  0  0  0  0  0  0  0  0  0  0
   -1.4531    5.7612  -21.1247 C   0  0  0  0  0  0  0  0  0  0  0  0
   -0.9568    6.7353  -20.2031 O   0  0  0  0  0  0  0  0  0  0  0  0
   -1.5661    6.4803  -18.9256 C   0  0  0  0  0  0  0  0  0  0  0  0
  1  2  1  0
  2  3  1  0
  3  4  2  0
  4  5  1  0
  5  6  2  0
  6  7  1  0
  7  8  2  0
  8  9  1  0
  9 10  2  0
 10 11  1  0
 11 12  2  0
 12 13  1  0
 14 13  1  6
 14 15  1  0
 15 16  1  0
 16 17  1  0
 17 18  1  0
 12  3  1  0
 18 14  1  0
 10  5  1  0
M  END
>  <energy_score>  (2058) 
-21.425198

>  <alias>  (2058) 
None

>  <HIPPO Pose ID>  (2058) 
73390

>  <smiles>  (2058) 
OCc1cc2ccccc2nc1N[C@H]1CCOC1

>  <inchikey>  (2058) 
JZYUZNDFYVWMMI-LBPRGKRZSA-N

>  <distance_score>  (2058) 
1.915215

>  <ref_mols>  (2058) 
Z1688a,Z0089a

>  <ref_pdb>  (2058) 
Z1688a

>  <HIPPO Compound ID>  (2058) 
146411

>  <name>  (2058) 
P73390

>  <inspiration_score>  (2058) 
None

$$$$
P73393
     RDKit          3D

 18 20  0  0  0  0  0  0  0  0999 V2000
   -3.3265    5.8471  -14.8339 Br  0  0  0  0  0  0  0  0  0  0  0  0
   -3.9825    6.8614  -16.3621 C   0  0  0  0  0  0  0  0  0  0  0  0
   -5.0076    6.0551  -17.0727 C   0  0  0  0  0  0  0  0  0  0  0  0
   -6.1436    5.7274  -16.3187 C   0  0  0  0  0  0  0  0  0  0  0  0
   -7.1850    5.0380  -16.8859 C   0  0  0  0  0  0  0  0  0  0  0  0
   -8.2763    4.6867  -16.0987 C   0  0  0  0  0  0  0  0  0  0  0  0
   -9.3210    4.0338  -16.6918 C   0  0  0  0  0  0  0  0  0  0  0  0
   -9.2732    3.7652  -18.0442 C   0  0  0  0  0  0  0  0  0  0  0  0
   -8.1672    4.1063  -18.8150 C   0  0  0  0  0  0  0  0  0  0  0  0
   -7.0883    4.7287  -18.2443 C   0  0  0  0  0  0  0  0  0  0  0  0
   -6.0051    5.0228  -18.9774 N   0  0  0  0  0  0  0  0  0  0  0  0
   -4.9728    5.6644  -18.4084 C   0  0  0  0  0  0  0  0  0  0  0  0
   -3.9915    5.9406  -19.3307 N   0  0  0  0  0  0  0  0  0  0  0  0
   -2.5753    5.7799  -19.0654 C   0  0  1  0  0  0  0  0  0  0  0  0
   -1.8847    4.8653  -20.0554 C   0  0  0  0  0  0  0  0  0  0  0  0
   -0.4548    5.3770  -20.0405 C   0  0  0  0  0  0  0  0  0  0  0  0
   -0.4783    6.7505  -19.6331 O   0  0  0  0  0  0  0  0  0  0  0  0
   -1.8360    7.0890  -19.3396 C   0  0  0  0  0  0  0  0  0  0  0  0
  1  2  1  0
  2  3  1  0
  3  4  2  0
  4  5  1  0
  5  6  2  0
  6  7  1  0
  7  8  2  0
  8  9  1  0
  9 10  2  0
 10 11  1  0
 11 12  2  0
 12 13  1  0
 14 13  1  6
 14 15  1  0
 15 16  1  0
 16 17  1  0
 17 18  1  0
 12  3  1  0
 18 14  1  0
 10  5  1  0
M  END
>  <energy_score>  (2059) 
-10.431848

>  <alias>  (2059) 
None

>  <HIPPO Pose ID>  (2059) 
73393

>  <smiles>  (2059) 
BrCc1cc2ccccc2nc1N[C@H]1CCOC1

>  <inchikey>  (2059) 
WPSDNJTYAIOASA-LBPRGKRZSA-N

>  <distance_score>  (2059) 
1.942707

>  <ref_mols>  (2059) 
Z1688a,Z0089a

>  <ref_pdb>  (2059) 
Z1688a

>  <HIPPO Compound ID>  (2059) 
146413

>  <name>  (2059) 
P73393

>  <inspiration_score>  (2059) 
None

$$$$
P73394
     RDKit          3D

 18 20  0  0  0  0  0  0  0  0999 V2000
   -7.8399    5.2114  -13.5056 O   0  0  0  0  0  0  0  0  0  0  0  0
   -6.7285    5.1026  -14.0052 C   0  0  0  0  0  0  0  0  0  0  0  0
   -6.4185    5.0333  -15.4665 C   0  0  0  0  0  0  0  0  0  0  0  0
   -5.0754    5.2392  -15.8394 C   0  0  0  0  0  0  0  0  0  0  0  0
   -4.7092    5.1967  -17.1817 C   0  0  0  0  0  0  0  0  0  0  0  0
   -3.3654    5.2819  -17.5541 N   0  0  0  0  0  0  0  0  0  0  0  0
   -3.0814    5.2670  -18.9962 C   0  0  2  0  0  0  0  0  0  0  0  0
   -1.6367    4.8482  -19.2223 C   0  0  0  0  0  0  0  0  0  0  0  0
   -1.2236    5.6832  -20.4083 C   0  0  0  0  0  0  0  0  0  0  0  0
   -1.8669    6.9463  -20.2067 O   0  0  0  0  0  0  0  0  0  0  0  0
   -3.1556    6.6587  -19.6322 C   0  0  0  0  0  0  0  0  0  0  0  0
   -5.6175    4.9805  -18.1221 N   0  0  0  0  0  0  0  0  0  0  0  0
   -6.8842    4.7484  -17.7805 C   0  0  0  0  0  0  0  0  0  0  0  0
   -7.7292    4.4872  -18.8281 C   0  0  0  0  0  0  0  0  0  0  0  0
   -9.0831    4.2817  -18.6325 C   0  0  0  0  0  0  0  0  0  0  0  0
   -9.5934    4.2498  -17.3486 C   0  0  0  0  0  0  0  0  0  0  0  0
   -8.7462    4.4678  -16.2620 C   0  0  0  0  0  0  0  0  0  0  0  0
   -7.3748    4.7554  -16.4606 C   0  0  0  0  0  0  0  0  0  0  0  0
  1  2  2  0
  2  3  1  0
  3  4  2  0
  4  5  1  0
  5  6  1  0
  7  6  1  1
  7  8  1  0
  8  9  1  0
  9 10  1  0
 10 11  1  0
  5 12  2  0
 12 13  1  0
 13 14  2  0
 14 15  1  0
 15 16  2  0
 16 17  1  0
 17 18  2  0
 18  3  1  0
 11  7  1  0
 18 13  1  0
M  END
>  <energy_score>  (2060) 
-22.885026

>  <alias>  (2060) 
None

>  <HIPPO Pose ID>  (2060) 
73394

>  <smiles>  (2060) 
O=Cc1cc(N[C@@H]2CCOC2)nc2ccccc12

>  <inchikey>  (2060) 
XGSAHAAZXDNENC-LLVKDONJSA-N

>  <distance_score>  (2060) 
1.11947

>  <ref_mols>  (2060) 
Z1688a,Z0089a

>  <ref_pdb>  (2060) 
Z1688a

>  <HIPPO Compound ID>  (2060) 
146414

>  <name>  (2060) 
P73394

>  <inspiration_score>  (2060) 
None

$$$$
P73396
     RDKit          3D

 18 19  0  0  0  0  0  0  0  0999 V2000
   -1.6470    4.5450  -19.8673 C   0  0  0  0  0  0  0  0  0  0  0  0
   -2.5009    5.5302  -19.0694 C   0  0  2  0  0  0  0  0  0  0  0  0
   -3.8943    5.1752  -19.2491 N   0  0  0  0  0  0  0  0  0  0  0  0
   -4.9333    5.2254  -18.3710 C   0  0  0  0  0  0  0  0  0  0  0  0
   -6.0762    4.8292  -18.9608 N   0  0  0  0  0  0  0  0  0  0  0  0
   -7.1762    4.6438  -18.2164 C   0  0  0  0  0  0  0  0  0  0  0  0
   -8.3480    4.2248  -18.7922 C   0  0  0  0  0  0  0  0  0  0  0  0
   -9.4598    3.9575  -18.0047 C   0  0  0  0  0  0  0  0  0  0  0  0
   -9.4024    4.0623  -16.6317 C   0  0  0  0  0  0  0  0  0  0  0  0
   -8.2732    4.5359  -16.0272 C   0  0  0  0  0  0  0  0  0  0  0  0
   -7.1845    4.8376  -16.8295 C   0  0  0  0  0  0  0  0  0  0  0  0
   -6.0486    5.3268  -16.2408 C   0  0  0  0  0  0  0  0  0  0  0  0
   -4.9141    5.5399  -17.0182 C   0  0  0  0  0  0  0  0  0  0  0  0
   -3.8247    6.0665  -16.2869 C   0  0  0  0  0  0  0  0  0  0  0  0
   -3.0453    6.4843  -15.5384 N   0  0  0  0  0  0  0  0  0  0  0  0
   -2.2284    6.9944  -19.4638 C   0  0  1  0  0  0  0  0  0  0  0  0
   -2.5967    7.3561  -20.8947 C   0  0  0  0  0  0  0  0  0  0  0  0
   -2.9357    7.8209  -18.6358 F   0  0  0  0  0  0  0  0  0  0  0  0
  2  1  1  6
  2  3  1  0
  3  4  1  0
  4  5  2  0
  5  6  1  0
  6  7  2  0
  7  8  1  0
  8  9  2  0
  9 10  1  0
 10 11  2  0
 11 12  1  0
 12 13  2  0
 13 14  1  0
 14 15  3  0
  2 16  1  0
 16 17  1  6
 16 18  1  0
 13  4  1  0
 11  6  1  0
M  END
>  <energy_score>  (2061) 
-17.396331

>  <alias>  (2061) 
None

>  <HIPPO Pose ID>  (2061) 
73396

>  <smiles>  (2061) 
C[C@H](Nc1nc2ccccc2cc1C#N)[C@@H](C)F

>  <inchikey>  (2061) 
WFMXUZQYDDNEFO-ZJUUUORDSA-N

>  <distance_score>  (2061) 
1.944238

>  <ref_mols>  (2061) 
Z1688a,Z0089a

>  <ref_pdb>  (2061) 
Z1688a

>  <HIPPO Compound ID>  (2061) 
146415

>  <name>  (2061) 
P73396

>  <inspiration_score>  (2061) 
None

$$$$
P73399
     RDKit          3D

 18 21  0  0  0  0  0  0  0  0999 V2000
   -3.2697    6.0805  -14.9409 Br  0  0  0  0  0  0  0  0  0  0  0  0
   -3.8698    6.7780  -16.6598 C   0  0  0  0  0  0  0  0  0  0  0  0
   -4.9648    5.9366  -17.2163 C   0  0  0  0  0  0  0  0  0  0  0  0
   -6.0252    5.5709  -16.3827 C   0  0  0  0  0  0  0  0  0  0  0  0
   -7.1346    4.9427  -16.8993 C   0  0  0  0  0  0  0  0  0  0  0  0
   -8.1677    4.5859  -16.0415 C   0  0  0  0  0  0  0  0  0  0  0  0
   -9.2977    4.0302  -16.5762 C   0  0  0  0  0  0  0  0  0  0  0  0
   -9.3950    3.8543  -17.9410 C   0  0  0  0  0  0  0  0  0  0  0  0
   -8.3361    4.1758  -18.7834 C   0  0  0  0  0  0  0  0  0  0  0  0
   -7.1793    4.7166  -18.2788 C   0  0  0  0  0  0  0  0  0  0  0  0
   -6.1669    5.0407  -19.0936 N   0  0  0  0  0  0  0  0  0  0  0  0
   -5.0842    5.6389  -18.5720 C   0  0  0  0  0  0  0  0  0  0  0  0
   -4.1475    6.0673  -19.5313 N   0  0  0  0  0  0  0  0  0  0  0  0
   -2.9672    5.2188  -19.8018 C   0  0  2  0  0  0  0  0  0  0  0  0
   -2.0116    4.6136  -18.7796 C   0  0  0  0  0  0  0  0  0  0  0  0
   -1.6255    5.7608  -19.5877 C   0  0  0  0  0  0  0  0  0  0  0  0
   -1.0242    7.0679  -19.3515 C   0  0  0  0  0  0  0  0  0  0  0  0
   -0.4925    6.1192  -20.4330 C   0  0  0  0  0  0  0  0  0  0  0  0
  1  2  1  0
  2  3  1  0
  3  4  2  0
  4  5  1  0
  5  6  2  0
  6  7  1  0
  7  8  2  0
  8  9  1  0
  9 10  2  0
 10 11  1  0
 11 12  2  0
 12 13  1  0
 14 13  1  1
 14 15  1  0
 15 16  1  0
 16 17  1  0
 17 18  1  0
 12  3  1  0
 16 14  1  0
 10  5  1  0
 18 16  1  0
M  END
>  <energy_score>  (2062) 
-12.749319

>  <alias>  (2062) 
None

>  <HIPPO Pose ID>  (2062) 
73399

>  <smiles>  (2062) 
BrCc1cc2ccccc2nc1N[C@@H]1CC12CC2

>  <inchikey>  (2062) 
KEVNIRSHYGHXLG-CYBMUJFWSA-N

>  <distance_score>  (2062) 
1.958039

>  <ref_mols>  (2062) 
Z1688a,Z0089a

>  <ref_pdb>  (2062) 
Z1688a

>  <HIPPO Compound ID>  (2062) 
146416

>  <name>  (2062) 
P73399

>  <inspiration_score>  (2062) 
None

$$$$
P73403
     RDKit          3D

 18 21  0  0  0  0  0  0  0  0999 V2000
   -3.1171    6.7201  -15.7124 N   0  0  0  0  0  0  0  0  0  0  0  0
   -3.8818    6.2286  -16.4303 C   0  0  0  0  0  0  0  0  0  0  0  0
   -4.9743    5.6232  -17.0935 C   0  0  0  0  0  0  0  0  0  0  0  0
   -6.0422    5.2946  -16.2701 C   0  0  0  0  0  0  0  0  0  0  0  0
   -7.1905    4.8003  -16.8342 C   0  0  0  0  0  0  0  0  0  0  0  0
   -8.2418    4.4608  -16.0005 C   0  0  0  0  0  0  0  0  0  0  0  0
   -9.4007    4.0229  -16.5757 C   0  0  0  0  0  0  0  0  0  0  0  0
   -9.5189    3.9625  -17.9480 C   0  0  0  0  0  0  0  0  0  0  0  0
   -8.4383    4.2528  -18.7699 C   0  0  0  0  0  0  0  0  0  0  0  0
   -7.2466    4.6661  -18.2301 C   0  0  0  0  0  0  0  0  0  0  0  0
   -6.1971    4.9322  -19.0199 N   0  0  0  0  0  0  0  0  0  0  0  0
   -5.0633    5.3867  -18.4599 C   0  0  0  0  0  0  0  0  0  0  0  0
   -4.0257    5.5841  -19.3784 N   0  0  0  0  0  0  0  0  0  0  0  0
   -2.6827    5.0948  -19.0620 C   0  0  1  0  0  0  0  0  0  0  0  0
   -1.6518    4.9789  -20.1882 C   0  0  0  0  0  0  0  0  0  0  0  0
   -1.5179    5.9712  -19.1299 C   0  0  0  0  0  0  0  0  0  0  0  0
   -1.2520    7.4031  -19.0664 C   0  0  0  0  0  0  0  0  0  0  0  0
   -0.4435    6.3939  -18.2391 C   0  0  0  0  0  0  0  0  0  0  0  0
  1  2  3  0
  2  3  1  0
  3  4  2  0
  4  5  1  0
  5  6  2  0
  6  7  1  0
  7  8  2  0
  8  9  1  0
  9 10  2  0
 10 11  1  0
 11 12  2  0
 12 13  1  0
 14 13  1  6
 14 15  1  0
 15 16  1  0
 16 17  1  0
 17 18  1  0
 12  3  1  0
 16 14  1  0
 10  5  1  0
 18 16  1  0
M  END
>  <energy_score>  (2063) 
-16.880196

>  <alias>  (2063) 
None

>  <HIPPO Pose ID>  (2063) 
73403

>  <smiles>  (2063) 
N#Cc1cc2ccccc2nc1N[C@H]1CC12CC2

>  <inchikey>  (2063) 
LSQXBDPSRWGFAL-ZDUSSCGKSA-N

>  <distance_score>  (2063) 
1.964108

>  <ref_mols>  (2063) 
Z1688a,Z0089a

>  <ref_pdb>  (2063) 
Z1688a

>  <HIPPO Compound ID>  (2063) 
146419

>  <name>  (2063) 
P73403

>  <inspiration_score>  (2063) 
None

$$$$
P73406
     RDKit          3D

 18 21  0  0  0  0  0  0  0  0999 V2000
   -7.2500    4.0993  -12.9675 Br  0  0  0  0  0  0  0  0  0  0  0  0
   -6.9992    5.6342  -14.1130 C   0  0  0  0  0  0  0  0  0  0  0  0
   -6.5358    5.2730  -15.4999 C   0  0  0  0  0  0  0  0  0  0  0  0
   -5.1816    5.4572  -15.8585 C   0  0  0  0  0  0  0  0  0  0  0  0
   -4.7584    5.2733  -17.1791 C   0  0  0  0  0  0  0  0  0  0  0  0
   -3.3947    5.3967  -17.5186 N   0  0  0  0  0  0  0  0  0  0  0  0
   -2.9955    5.2409  -18.9277 C   0  0  2  0  0  0  0  0  0  0  0  0
   -1.5078    5.0866  -19.2753 C   0  0  0  0  0  0  0  0  0  0  0  0
   -2.2554    6.2854  -19.6311 C   0  0  0  0  0  0  0  0  0  0  0  0
   -2.4636    7.0722  -20.8414 C   0  0  0  0  0  0  0  0  0  0  0  0
   -2.0819    7.7276  -19.5069 C   0  0  0  0  0  0  0  0  0  0  0  0
   -5.6174    4.9232  -18.1292 N   0  0  0  0  0  0  0  0  0  0  0  0
   -6.8892    4.7136  -17.8112 C   0  0  0  0  0  0  0  0  0  0  0  0
   -7.7068    4.3937  -18.8633 C   0  0  0  0  0  0  0  0  0  0  0  0
   -9.0666    4.2139  -18.6861 C   0  0  0  0  0  0  0  0  0  0  0  0
   -9.6108    4.2598  -17.4160 C   0  0  0  0  0  0  0  0  0  0  0  0
   -8.7925    4.5558  -16.3263 C   0  0  0  0  0  0  0  0  0  0  0  0
   -7.4214    4.8386  -16.5102 C   0  0  0  0  0  0  0  0  0  0  0  0
  1  2  1  0
  2  3  1  0
  3  4  2  0
  4  5  1  0
  5  6  1  0
  7  6  1  1
  7  8  1  0
  8  9  1  0
  9 10  1  0
 10 11  1  0
  5 12  2  0
 12 13  1  0
 13 14  2  0
 14 15  1  0
 15 16  2  0
 16 17  1  0
 17 18  2  0
 18  3  1  0
  9  7  1  0
 18 13  1  0
 11  9  1  0
M  END
>  <energy_score>  (2064) 
-14.289651

>  <alias>  (2064) 
None

>  <HIPPO Pose ID>  (2064) 
73406

>  <smiles>  (2064) 
BrCc1cc(N[C@@H]2CC23CC3)nc2ccccc12

>  <inchikey>  (2064) 
KAYVOTHMBGHGEH-CYBMUJFWSA-N

>  <distance_score>  (2064) 
1.01731

>  <ref_mols>  (2064) 
Z1688a,Z0089a

>  <ref_pdb>  (2064) 
Z1688a

>  <HIPPO Compound ID>  (2064) 
146421

>  <name>  (2064) 
P73406

>  <inspiration_score>  (2064) 
None

$$$$
P73408
     RDKit          3D

 18 20  0  0  0  0  0  0  0  0999 V2000
   -1.9427    7.6721  -19.7376 C   0  0  0  0  0  0  0  0  0  0  0  0
   -1.5704    6.2914  -19.2627 C   0  0  0  0  0  0  0  0  0  0  0  0
   -0.4311    6.2709  -18.2788 C   0  0  0  0  0  0  0  0  0  0  0  0
   -1.6545    5.1566  -20.2552 C   0  0  0  0  0  0  0  0  0  0  0  0
   -2.6518    5.2359  -19.1360 C   0  0  2  0  0  0  0  0  0  0  0  0
   -4.0451    5.5510  -19.4379 N   0  0  0  0  0  0  0  0  0  0  0  0
   -5.0603    5.3547  -18.4990 C   0  0  0  0  0  0  0  0  0  0  0  0
   -6.2020    4.8974  -19.0422 N   0  0  0  0  0  0  0  0  0  0  0  0
   -7.2476    4.6462  -18.2426 C   0  0  0  0  0  0  0  0  0  0  0  0
   -8.4473    4.2393  -18.7700 C   0  0  0  0  0  0  0  0  0  0  0  0
   -9.5228    3.9598  -17.9375 C   0  0  0  0  0  0  0  0  0  0  0  0
   -9.3915    4.0266  -16.5665 C   0  0  0  0  0  0  0  0  0  0  0  0
   -8.2253    4.4630  -16.0044 C   0  0  0  0  0  0  0  0  0  0  0  0
   -7.1790    4.7913  -16.8493 C   0  0  0  0  0  0  0  0  0  0  0  0
   -6.0230    5.2853  -16.3005 C   0  0  0  0  0  0  0  0  0  0  0  0
   -4.9606    5.6048  -17.1360 C   0  0  0  0  0  0  0  0  0  0  0  0
   -3.8659    6.2176  -16.4832 C   0  0  0  0  0  0  0  0  0  0  0  0
   -3.0978    6.7149  -15.7729 N   0  0  0  0  0  0  0  0  0  0  0  0
  1  2  1  0
  2  3  1  0
  2  4  1  0
  4  5  1  0
  5  6  1  6
  6  7  1  0
  7  8  2  0
  8  9  1  0
  9 10  2  0
 10 11  1  0
 11 12  2  0
 12 13  1  0
 13 14  2  0
 14 15  1  0
 15 16  2  0
 16 17  1  0
 17 18  3  0
  5  2  1  0
 16  7  1  0
 14  9  1  0
M  END
>  <energy_score>  (2065) 
-13.749407

>  <alias>  (2065) 
None

>  <HIPPO Pose ID>  (2065) 
73408

>  <smiles>  (2065) 
CC1(C)C[C@@H]1Nc1nc2ccccc2cc1C#N

>  <inchikey>  (2065) 
QHMMLFSVEAVFJU-ZDUSSCGKSA-N

>  <distance_score>  (2065) 
1.962916

>  <ref_mols>  (2065) 
Z1688a,Z0089a

>  <ref_pdb>  (2065) 
Z1688a

>  <HIPPO Compound ID>  (2065) 
146422

>  <name>  (2065) 
P73408

>  <inspiration_score>  (2065) 
None

$$$$
P73412
     RDKit          3D

 18 20  0  0  0  0  0  0  0  0999 V2000
   -1.8081    7.5304  -19.9794 C   0  0  0  0  0  0  0  0  0  0  0  0
   -1.5310    6.1243  -19.5118 C   0  0  0  0  0  0  0  0  0  0  0  0
   -0.3442    6.0070  -18.5943 C   0  0  0  0  0  0  0  0  0  0  0  0
   -1.7738    5.0032  -20.4921 C   0  0  0  0  0  0  0  0  0  0  0  0
   -2.6881    5.1618  -19.3135 C   0  0  2  0  0  0  0  0  0  0  0  0
   -4.0676    5.6001  -19.5200 N   0  0  0  0  0  0  0  0  0  0  0  0
   -5.0520    5.3569  -18.5554 C   0  0  0  0  0  0  0  0  0  0  0  0
   -6.2080    4.9202  -19.0813 N   0  0  0  0  0  0  0  0  0  0  0  0
   -7.2288    4.6396  -18.2629 C   0  0  0  0  0  0  0  0  0  0  0  0
   -8.4622    4.2976  -18.7660 C   0  0  0  0  0  0  0  0  0  0  0  0
   -9.5266    4.0236  -17.9158 C   0  0  0  0  0  0  0  0  0  0  0  0
   -9.3468    4.0180  -16.5485 C   0  0  0  0  0  0  0  0  0  0  0  0
   -8.1342    4.3550  -16.0110 C   0  0  0  0  0  0  0  0  0  0  0  0
   -7.0987    4.6873  -16.8723 C   0  0  0  0  0  0  0  0  0  0  0  0
   -5.8970    5.1010  -16.3440 C   0  0  0  0  0  0  0  0  0  0  0  0
   -4.8779    5.5489  -17.1852 C   0  0  0  0  0  0  0  0  0  0  0  0
   -3.6655    6.1837  -16.5970 C   0  0  0  0  0  0  0  0  0  0  0  0
   -4.1391    7.3549  -15.1013 Br  0  0  0  0  0  0  0  0  0  0  0  0
  1  2  1  0
  2  3  1  0
  2  4  1  0
  4  5  1  0
  5  6  1  6
  6  7  1  0
  7  8  2  0
  8  9  1  0
  9 10  2  0
 10 11  1  0
 11 12  2  0
 12 13  1  0
 13 14  2  0
 14 15  1  0
 15 16  2  0
 16 17  1  0
 17 18  1  0
  5  2  1  0
 16  7  1  0
 14  9  1  0
M  END
>  <energy_score>  (2066) 
-32.188932

>  <alias>  (2066) 
None

>  <HIPPO Pose ID>  (2066) 
73412

>  <smiles>  (2066) 
CC1(C)C[C@@H]1Nc1nc2ccccc2cc1CBr

>  <inchikey>  (2066) 
HDIBKHIITQFDNQ-ZDUSSCGKSA-N

>  <distance_score>  (2066) 
1.94507

>  <ref_mols>  (2066) 
Z1688a,Z0089a

>  <ref_pdb>  (2066) 
Z1688a

>  <HIPPO Compound ID>  (2066) 
146425

>  <name>  (2066) 
P73412

>  <inspiration_score>  (2066) 
None

$$$$
P73416
     RDKit          3D

 18 20  0  0  0  0  0  0  0  0999 V2000
   -6.8363    4.3065  -13.1213 Br  0  0  0  0  0  0  0  0  0  0  0  0
   -6.5451    5.8150  -14.3040 C   0  0  0  0  0  0  0  0  0  0  0  0
   -6.2475    5.4350  -15.7359 C   0  0  0  0  0  0  0  0  0  0  0  0
   -5.0073    5.8066  -16.3270 C   0  0  0  0  0  0  0  0  0  0  0  0
   -4.8017    5.6429  -17.6981 C   0  0  0  0  0  0  0  0  0  0  0  0
   -3.7798    6.2228  -18.4560 N   0  0  0  0  0  0  0  0  0  0  0  0
   -2.3463    5.9050  -18.2715 C   0  0  0  0  0  0  0  0  0  0  0  0
   -1.8637    4.6239  -18.9266 C   0  0  0  0  0  0  0  0  0  0  0  0
   -1.9310    4.7918  -20.8650 Br  0  0  0  0  0  0  0  0  0  0  0  0
   -1.6080    6.4152  -17.0579 C   0  0  0  0  0  0  0  0  0  0  0  0
   -1.3942    7.0909  -18.3707 C   0  0  0  0  0  0  0  0  0  0  0  0
   -5.7094    5.0671  -18.4690 N   0  0  0  0  0  0  0  0  0  0  0  0
   -6.8778    4.7307  -17.9457 C   0  0  0  0  0  0  0  0  0  0  0  0
   -7.7936    4.2983  -18.8623 C   0  0  0  0  0  0  0  0  0  0  0  0
   -9.0999    4.0640  -18.4932 C   0  0  0  0  0  0  0  0  0  0  0  0
   -9.4820    4.1662  -17.1717 C   0  0  0  0  0  0  0  0  0  0  0  0
   -8.5545    4.5565  -16.2121 C   0  0  0  0  0  0  0  0  0  0  0  0
   -7.2337    4.8873  -16.5880 C   0  0  0  0  0  0  0  0  0  0  0  0
  1  2  1  0
  2  3  1  0
  3  4  2  0
  4  5  1  0
  5  6  1  0
  6  7  1  0
  7  8  1  0
  8  9  1  0
  7 10  1  0
 10 11  1  0
  5 12  2  0
 12 13  1  0
 13 14  2  0
 14 15  1  0
 15 16  2  0
 16 17  1  0
 17 18  2  0
 18  3  1  0
 11  7  1  0
 18 13  1  0
M  END
>  <energy_score>  (2067) 
-13.409419

>  <alias>  (2067) 
None

>  <HIPPO Pose ID>  (2067) 
73416

>  <smiles>  (2067) 
BrCc1cc(NC2(CBr)CC2)nc2ccccc12

>  <inchikey>  (2067) 
UAYRMXNSEFMVIK-UHFFFAOYSA-N

>  <distance_score>  (2067) 
1.126278

>  <ref_mols>  (2067) 
Z1688a,Z0089a

>  <ref_pdb>  (2067) 
Z1688a

>  <HIPPO Compound ID>  (2067) 
146429

>  <name>  (2067) 
P73416

>  <inspiration_score>  (2067) 
None

$$$$
P73417
     RDKit          3D

 18 19  0  0  0  0  0  0  0  0999 V2000
   -1.4187    3.7765  -19.6647 C   0  0  0  0  0  0  0  0  0  0  0  0
   -2.4473    4.5642  -18.8763 C   0  0  0  0  0  0  0  0  0  0  0  0
   -2.8635    5.8316  -19.6213 C   0  0  2  0  0  0  0  0  0  0  0  0
   -1.8569    6.9670  -19.3931 C   0  0  0  0  0  0  0  0  0  0  0  0
   -2.1072    7.9950  -20.2524 F   0  0  0  0  0  0  0  0  0  0  0  0
   -4.2326    6.3084  -19.3633 N   0  0  0  0  0  0  0  0  0  0  0  0
   -5.0802    5.7636  -18.4212 C   0  0  0  0  0  0  0  0  0  0  0  0
   -6.1501    5.1792  -18.9805 N   0  0  0  0  0  0  0  0  0  0  0  0
   -7.1487    4.7598  -18.1925 C   0  0  0  0  0  0  0  0  0  0  0  0
   -8.3202    4.2909  -18.7378 C   0  0  0  0  0  0  0  0  0  0  0  0
   -9.3934    3.9432  -17.9256 C   0  0  0  0  0  0  0  0  0  0  0  0
   -9.2842    3.9934  -16.5514 C   0  0  0  0  0  0  0  0  0  0  0  0
   -8.1185    4.4211  -15.9729 C   0  0  0  0  0  0  0  0  0  0  0  0
   -7.0751    4.8235  -16.7978 C   0  0  0  0  0  0  0  0  0  0  0  0
   -5.9352    5.3524  -16.2336 C   0  0  0  0  0  0  0  0  0  0  0  0
   -4.9383    5.8972  -17.0448 C   0  0  0  0  0  0  0  0  0  0  0  0
   -3.8365    6.6750  -16.4111 C   0  0  0  0  0  0  0  0  0  0  0  0
   -4.1385    6.9525  -15.0432 O   0  0  0  0  0  0  0  0  0  0  0  0
  1  2  1  0
  3  2  1  1
  3  4  1  0
  4  5  1  0
  3  6  1  0
  6  7  1  0
  7  8  2  0
  8  9  1  0
  9 10  2  0
 10 11  1  0
 11 12  2  0
 12 13  1  0
 13 14  2  0
 14 15  1  0
 15 16  2  0
 16 17  1  0
 17 18  1  0
 16  7  1  0
 14  9  1  0
M  END
>  <energy_score>  (2068) 
-6.951449

>  <alias>  (2068) 
None

>  <HIPPO Pose ID>  (2068) 
73417

>  <smiles>  (2068) 
CC[C@H](CF)Nc1nc2ccccc2cc1CO

>  <inchikey>  (2068) 
RRFITNTZTSSMSO-GFCCVEGCSA-N

>  <distance_score>  (2068) 
1.930673

>  <ref_mols>  (2068) 
Z1688a,Z0089a

>  <ref_pdb>  (2068) 
Z1688a

>  <HIPPO Compound ID>  (2068) 
146432

>  <name>  (2068) 
P73417

>  <inspiration_score>  (2068) 
None

$$$$
P73419
     RDKit          3D

 18 19  0  0  0  0  0  0  0  0999 V2000
   -0.5065    5.3627  -18.7874 C   0  0  0  0  0  0  0  0  0  0  0  0
   -1.7810    4.7170  -19.3202 C   0  0  0  0  0  0  0  0  0  0  0  0
   -3.0761    5.5054  -19.0222 C   0  0  2  0  0  0  0  0  0  0  0  0
   -2.9480    6.9729  -19.4648 C   0  0  0  0  0  0  0  0  0  0  0  0
   -4.1458    7.6170  -19.3874 F   0  0  0  0  0  0  0  0  0  0  0  0
   -3.3741    5.4468  -17.5725 N   0  0  0  0  0  0  0  0  0  0  0  0
   -4.7234    5.2876  -17.2199 C   0  0  0  0  0  0  0  0  0  0  0  0
   -5.1301    5.4569  -15.8927 C   0  0  0  0  0  0  0  0  0  0  0  0
   -6.4801    5.2694  -15.5160 C   0  0  0  0  0  0  0  0  0  0  0  0
   -6.9286    5.6369  -14.1260 C   0  0  0  0  0  0  0  0  0  0  0  0
   -7.1954    4.1038  -12.9791 Br  0  0  0  0  0  0  0  0  0  0  0  0
   -7.3794    4.8402  -16.5158 C   0  0  0  0  0  0  0  0  0  0  0  0
   -8.7489    4.5554  -16.3160 C   0  0  0  0  0  0  0  0  0  0  0  0
   -9.5788    4.2558  -17.3957 C   0  0  0  0  0  0  0  0  0  0  0  0
   -9.0489    4.2106  -18.6718 C   0  0  0  0  0  0  0  0  0  0  0  0
   -7.6923    4.4011  -18.8651 C   0  0  0  0  0  0  0  0  0  0  0  0
   -6.8625    4.7258  -17.8236 C   0  0  0  0  0  0  0  0  0  0  0  0
   -5.5944    4.9456  -18.1569 N   0  0  0  0  0  0  0  0  0  0  0  0
  1  2  1  0
  3  2  1  1
  3  4  1  0
  4  5  1  0
  3  6  1  0
  6  7  1  0
  7  8  2  0
  8  9  1  0
  9 10  1  0
 10 11  1  0
  9 12  2  0
 12 13  1  0
 13 14  2  0
 14 15  1  0
 15 16  2  0
 16 17  1  0
 17 18  2  0
 18  7  1  0
 17 12  1  0
M  END
>  <energy_score>  (2069) 
-25.280869

>  <alias>  (2069) 
None

>  <HIPPO Pose ID>  (2069) 
73419

>  <smiles>  (2069) 
CC[C@H](CF)Nc1cc(CBr)c2ccccc2n1

>  <inchikey>  (2069) 
HALAJUQZTQKFMM-LLVKDONJSA-N

>  <distance_score>  (2069) 
1.005798

>  <ref_mols>  (2069) 
Z1688a,Z0089a

>  <ref_pdb>  (2069) 
Z1688a

>  <HIPPO Compound ID>  (2069) 
146433

>  <name>  (2069) 
P73419

>  <inspiration_score>  (2069) 
None

$$$$
P73421
     RDKit          3D

 18 19  0  0  0  0  0  0  0  0999 V2000
   -0.1418    5.8032  -19.3731 C   0  0  0  0  0  0  0  0  0  0  0  0
   -1.4436    5.0321  -19.5352 C   0  0  0  0  0  0  0  0  0  0  0  0
   -2.6945    5.8705  -19.2080 C   0  0  1  0  0  0  0  0  0  0  0  0
   -2.9362    6.9937  -20.2144 C   0  0  0  0  0  0  0  0  0  0  0  0
   -2.0016    7.9708  -20.0561 F   0  0  0  0  0  0  0  0  0  0  0  0
   -3.8122    4.9391  -19.1845 N   0  0  0  0  0  0  0  0  0  0  0  0
   -4.8655    5.0248  -18.3068 C   0  0  0  0  0  0  0  0  0  0  0  0
   -6.0340    4.8199  -18.9372 N   0  0  0  0  0  0  0  0  0  0  0  0
   -7.1485    4.6425  -18.2134 C   0  0  0  0  0  0  0  0  0  0  0  0
   -8.3443    4.3585  -18.8243 C   0  0  0  0  0  0  0  0  0  0  0  0
   -9.4888    4.1267  -18.0744 C   0  0  0  0  0  0  0  0  0  0  0  0
   -9.4351    4.0989  -16.6989 C   0  0  0  0  0  0  0  0  0  0  0  0
   -8.2733    4.4138  -16.0510 C   0  0  0  0  0  0  0  0  0  0  0  0
   -7.1509    4.6940  -16.8174 C   0  0  0  0  0  0  0  0  0  0  0  0
   -5.9666    4.9745  -16.1840 C   0  0  0  0  0  0  0  0  0  0  0  0
   -4.7878    5.1361  -16.9227 C   0  0  0  0  0  0  0  0  0  0  0  0
   -3.5590    5.3151  -16.1089 C   0  0  0  0  0  0  0  0  0  0  0  0
   -3.6642    7.0627  -15.2583 Br  0  0  0  0  0  0  0  0  0  0  0  0
  1  2  1  0
  3  2  1  6
  3  4  1  0
  4  5  1  0
  3  6  1  0
  6  7  1  0
  7  8  2  0
  8  9  1  0
  9 10  2  0
 10 11  1  0
 11 12  2  0
 12 13  1  0
 13 14  2  0
 14 15  1  0
 15 16  2  0
 16 17  1  0
 17 18  1  0
 16  7  1  0
 14  9  1  0
M  END
>  <energy_score>  (2070) 
-33.390248

>  <alias>  (2070) 
None

>  <HIPPO Pose ID>  (2070) 
73421

>  <smiles>  (2070) 
CC[C@@H](CF)Nc1nc2ccccc2cc1CBr

>  <inchikey>  (2070) 
PPHFTVMFPKYGLY-LBPRGKRZSA-N

>  <distance_score>  (2070) 
1.989315

>  <ref_mols>  (2070) 
Z1688a,Z0089a

>  <ref_pdb>  (2070) 
Z1688a

>  <HIPPO Compound ID>  (2070) 
146434

>  <name>  (2070) 
P73421

>  <inspiration_score>  (2070) 
None

$$$$
P73423
     RDKit          3D

 18 19  0  0  0  0  0  0  0  0999 V2000
   -1.1362    4.2399  -19.5819 C   0  0  0  0  0  0  0  0  0  0  0  0
   -2.5054    4.6087  -19.0618 C   0  0  0  0  0  0  0  0  0  0  0  0
   -2.5816    5.9241  -18.2710 C   0  0  1  0  0  0  0  0  0  0  0  0
   -1.6988    7.0325  -18.8638 C   0  0  0  0  0  0  0  0  0  0  0  0
   -0.3904    6.7875  -18.5816 F   0  0  0  0  0  0  0  0  0  0  0  0
   -3.9564    6.4306  -18.2712 N   0  0  0  0  0  0  0  0  0  0  0  0
   -4.9223    5.7737  -17.5407 C   0  0  0  0  0  0  0  0  0  0  0  0
   -5.0528    5.7805  -16.1617 C   0  0  0  0  0  0  0  0  0  0  0  0
   -6.2561    5.3114  -15.5899 C   0  0  0  0  0  0  0  0  0  0  0  0
   -6.3996    5.4235  -14.1027 C   0  0  0  0  0  0  0  0  0  0  0  0
   -7.4125    5.2154  -13.4483 O   0  0  0  0  0  0  0  0  0  0  0  0
   -7.2814    4.8354  -16.4323 C   0  0  0  0  0  0  0  0  0  0  0  0
   -8.5720    4.4171  -16.0479 C   0  0  0  0  0  0  0  0  0  0  0  0
   -9.5135    4.0842  -17.0156 C   0  0  0  0  0  0  0  0  0  0  0  0
   -9.1756    4.0931  -18.3521 C   0  0  0  0  0  0  0  0  0  0  0  0
   -7.8930    4.4086  -18.7333 C   0  0  0  0  0  0  0  0  0  0  0  0
   -6.9756    4.8188  -17.8071 C   0  0  0  0  0  0  0  0  0  0  0  0
   -5.8437    5.2560  -18.3318 N   0  0  0  0  0  0  0  0  0  0  0  0
  1  2  1  0
  3  2  1  6
  3  4  1  0
  4  5  1  0
  3  6  1  0
  6  7  1  0
  7  8  2  0
  8  9  1  0
  9 10  1  0
 10 11  2  0
  9 12  2  0
 12 13  1  0
 13 14  2  0
 14 15  1  0
 15 16  2  0
 16 17  1  0
 17 18  2  0
 18  7  1  0
 17 12  1  0
M  END
>  <energy_score>  (2071) 
-25.175192

>  <alias>  (2071) 
None

>  <HIPPO Pose ID>  (2071) 
73423

>  <smiles>  (2071) 
CC[C@@H](CF)Nc1cc(C=O)c2ccccc2n1

>  <inchikey>  (2071) 
MVWGDOPFOZODQG-NSHDSACASA-N

>  <distance_score>  (2071) 
1.113717

>  <ref_mols>  (2071) 
Z1688a,Z0089a

>  <ref_pdb>  (2071) 
Z1688a

>  <HIPPO Compound ID>  (2071) 
146435

>  <name>  (2071) 
P73423

>  <inspiration_score>  (2071) 
None

$$$$
P73424
     RDKit          3D

 18 19  0  0  0  0  0  0  0  0999 V2000
   -1.5698    3.7933  -19.0774 C   0  0  0  0  0  0  0  0  0  0  0  0
   -2.3530    4.6382  -20.0155 C   0  0  0  0  0  0  0  0  0  0  0  0
   -2.2137    4.4526  -21.2307 O   0  0  0  0  0  0  0  0  0  0  0  0
   -3.1870    5.7846  -19.4185 C   0  0  2  0  0  0  0  0  0  0  0  0
   -2.4217    7.0812  -19.6917 C   0  0  0  0  0  0  0  0  0  0  0  0
   -3.3741    5.6727  -17.9402 N   0  0  0  0  0  0  0  0  0  0  0  0
   -4.6710    5.3831  -17.4866 C   0  0  0  0  0  0  0  0  0  0  0  0
   -5.0160    5.5500  -16.1361 C   0  0  0  0  0  0  0  0  0  0  0  0
   -6.3361    5.3094  -15.6770 C   0  0  0  0  0  0  0  0  0  0  0  0
   -6.7267    5.6850  -14.2683 C   0  0  0  0  0  0  0  0  0  0  0  0
   -7.0459    4.1681  -13.1111 Br  0  0  0  0  0  0  0  0  0  0  0  0
   -7.2720    4.8430  -16.6232 C   0  0  0  0  0  0  0  0  0  0  0  0
   -8.6334    4.5666  -16.3564 C   0  0  0  0  0  0  0  0  0  0  0  0
   -9.5069    4.2414  -17.3908 C   0  0  0  0  0  0  0  0  0  0  0  0
   -9.0265    4.1564  -18.6838 C   0  0  0  0  0  0  0  0  0  0  0  0
   -7.6783    4.3301  -18.9406 C   0  0  0  0  0  0  0  0  0  0  0  0
   -6.8058    4.6891  -17.9484 C   0  0  0  0  0  0  0  0  0  0  0  0
   -5.5590    4.9286  -18.3536 N   0  0  0  0  0  0  0  0  0  0  0  0
  1  2  1  0
  2  3  2  0
  2  4  1  0
  4  5  1  1
  4  6  1  0
  6  7  1  0
  7  8  2  0
  8  9  1  0
  9 10  1  0
 10 11  1  0
  9 12  2  0
 12 13  1  0
 13 14  2  0
 14 15  1  0
 15 16  2  0
 16 17  1  0
 17 18  2  0
 18  7  1  0
 17 12  1  0
M  END
>  <energy_score>  (2072) 
-25.044186

>  <alias>  (2072) 
None

>  <HIPPO Pose ID>  (2072) 
73424

>  <smiles>  (2072) 
CC(=O)[C@H](C)Nc1cc(CBr)c2ccccc2n1

>  <inchikey>  (2072) 
NIYQBHCHRCOHEP-VIFPVBQESA-N

>  <distance_score>  (2072) 
1.03038

>  <ref_mols>  (2072) 
Z1688a,Z0089a

>  <ref_pdb>  (2072) 
Z1688a

>  <HIPPO Compound ID>  (2072) 
146438

>  <name>  (2072) 
P73424

>  <inspiration_score>  (2072) 
None

$$$$
P73426
     RDKit          3D

 18 19  0  0  0  0  0  0  0  0999 V2000
   -1.9296    5.7512  -21.9117 C   0  0  0  0  0  0  0  0  0  0  0  0
   -2.1685    4.7914  -20.7651 C   0  0  0  0  0  0  0  0  0  0  0  0
   -2.0775    3.5778  -20.9805 O   0  0  0  0  0  0  0  0  0  0  0  0
   -2.5691    5.3873  -19.3937 C   0  0  1  0  0  0  0  0  0  0  0  0
   -1.7515    6.6631  -19.1523 C   0  0  0  0  0  0  0  0  0  0  0  0
   -3.9874    5.7391  -19.3805 N   0  0  0  0  0  0  0  0  0  0  0  0
   -4.8912    5.3034  -18.4360 C   0  0  0  0  0  0  0  0  0  0  0  0
   -6.0545    4.9528  -19.0155 N   0  0  0  0  0  0  0  0  0  0  0  0
   -7.1206    4.6385  -18.2569 C   0  0  0  0  0  0  0  0  0  0  0  0
   -8.3430    4.3493  -18.8186 C   0  0  0  0  0  0  0  0  0  0  0  0
   -9.4587    4.0936  -18.0276 C   0  0  0  0  0  0  0  0  0  0  0  0
   -9.3498    4.0367  -16.6555 C   0  0  0  0  0  0  0  0  0  0  0  0
   -8.1463    4.2951  -16.0583 C   0  0  0  0  0  0  0  0  0  0  0  0
   -7.0570    4.6066  -16.8648 C   0  0  0  0  0  0  0  0  0  0  0  0
   -5.8515    4.8984  -16.2773 C   0  0  0  0  0  0  0  0  0  0  0  0
   -4.7506    5.2970  -17.0519 C   0  0  0  0  0  0  0  0  0  0  0  0
   -3.5810    5.7455  -16.2563 C   0  0  0  0  0  0  0  0  0  0  0  0
   -4.0631    7.3913  -15.3303 Br  0  0  0  0  0  0  0  0  0  0  0  0
  1  2  1  0
  2  3  2  0
  2  4  1  0
  4  5  1  6
  4  6  1  0
  6  7  1  0
  7  8  2  0
  8  9  1  0
  9 10  2  0
 10 11  1  0
 11 12  2  0
 12 13  1  0
 13 14  2  0
 14 15  1  0
 15 16  2  0
 16 17  1  0
 17 18  1  0
 16  7  1  0
 14  9  1  0
M  END
>  <energy_score>  (2073) 
-11.199255

>  <alias>  (2073) 
None

>  <HIPPO Pose ID>  (2073) 
73426

>  <smiles>  (2073) 
CC(=O)[C@@H](C)Nc1nc2ccccc2cc1CBr

>  <inchikey>  (2073) 
VMOLVGQHEHXGPJ-SECBINFHSA-N

>  <distance_score>  (2073) 
1.963303

>  <ref_mols>  (2073) 
Z1688a,Z0089a

>  <ref_pdb>  (2073) 
Z1688a

>  <HIPPO Compound ID>  (2073) 
146439

>  <name>  (2073) 
P73426

>  <inspiration_score>  (2073) 
None

$$$$
P73429
     RDKit          3D

 18 20  0  0  0  0  0  0  0  0999 V2000
   -2.9682    6.5492  -15.9131 N   0  0  0  0  0  0  0  0  0  0  0  0
   -3.7316    6.0798  -16.6478 C   0  0  0  0  0  0  0  0  0  0  0  0
   -4.8480    5.5114  -17.3023 C   0  0  0  0  0  0  0  0  0  0  0  0
   -5.8889    5.1919  -16.4296 C   0  0  0  0  0  0  0  0  0  0  0  0
   -7.0865    4.7451  -16.9293 C   0  0  0  0  0  0  0  0  0  0  0  0
   -8.1151    4.4464  -16.0462 C   0  0  0  0  0  0  0  0  0  0  0  0
   -9.3195    4.0503  -16.5601 C   0  0  0  0  0  0  0  0  0  0  0  0
   -9.4994    3.9865  -17.9263 C   0  0  0  0  0  0  0  0  0  0  0  0
   -8.4425    4.2402  -18.7951 C   0  0  0  0  0  0  0  0  0  0  0  0
   -7.2099    4.6165  -18.3158 C   0  0  0  0  0  0  0  0  0  0  0  0
   -6.1857    4.8625  -19.1505 N   0  0  0  0  0  0  0  0  0  0  0  0
   -5.0112    5.3158  -18.6661 C   0  0  0  0  0  0  0  0  0  0  0  0
   -4.1021    5.5784  -19.6849 N   0  0  0  0  0  0  0  0  0  0  0  0
   -2.6433    5.7398  -19.6057 C   0  0  0  0  0  0  0  0  0  0  0  0
   -1.8482    4.4445  -19.4478 C   0  0  0  0  0  0  0  0  0  0  0  0
   -0.4474    4.6855  -19.3463 O   0  0  0  0  0  0  0  0  0  0  0  0
   -2.0635    7.0565  -19.1274 C   0  0  0  0  0  0  0  0  0  0  0  0
   -2.0577    6.7463  -20.5892 C   0  0  0  0  0  0  0  0  0  0  0  0
  1  2  3  0
  2  3  1  0
  3  4  2  0
  4  5  1  0
  5  6  2  0
  6  7  1  0
  7  8  2  0
  8  9  1  0
  9 10  2  0
 10 11  1  0
 11 12  2  0
 12 13  1  0
 13 14  1  0
 14 15  1  0
 15 16  1  0
 14 17  1  0
 17 18  1  0
 12  3  1  0
 18 14  1  0
 10  5  1  0
M  END
>  <energy_score>  (2074) 
-17.384471

>  <alias>  (2074) 
None

>  <HIPPO Pose ID>  (2074) 
73429

>  <smiles>  (2074) 
N#Cc1cc2ccccc2nc1NC1(CO)CC1

>  <inchikey>  (2074) 
MMNZKWCPEFDMBT-UHFFFAOYSA-N

>  <distance_score>  (2074) 
1.947127

>  <ref_mols>  (2074) 
Z1688a,Z0089a

>  <ref_pdb>  (2074) 
Z1688a

>  <HIPPO Compound ID>  (2074) 
146441

>  <name>  (2074) 
P73429

>  <inspiration_score>  (2074) 
None

$$$$
P73430
     RDKit          3D

 18 20  0  0  0  0  0  0  0  0999 V2000
   -2.6671    3.7324  -18.3378 O   0  0  0  0  0  0  0  0  0  0  0  0
   -2.0071    4.8321  -18.9273 C   0  0  0  0  0  0  0  0  0  0  0  0
   -2.4217    6.0962  -18.1870 C   0  0  0  0  0  0  0  0  0  0  0  0
   -3.8502    6.4806  -18.3320 N   0  0  0  0  0  0  0  0  0  0  0  0
   -4.8651    5.8576  -17.5984 C   0  0  0  0  0  0  0  0  0  0  0  0
   -5.0996    6.0045  -16.2332 C   0  0  0  0  0  0  0  0  0  0  0  0
   -6.3233    5.5554  -15.6682 C   0  0  0  0  0  0  0  0  0  0  0  0
   -6.6599    5.9007  -14.2367 C   0  0  0  0  0  0  0  0  0  0  0  0
   -6.8881    4.3615  -13.0806 Br  0  0  0  0  0  0  0  0  0  0  0  0
   -7.2607    4.9565  -16.5419 C   0  0  0  0  0  0  0  0  0  0  0  0
   -8.5739    4.5720  -16.1938 C   0  0  0  0  0  0  0  0  0  0  0  0
   -9.4611    4.1309  -17.1696 C   0  0  0  0  0  0  0  0  0  0  0  0
   -9.0397    4.0146  -18.4787 C   0  0  0  0  0  0  0  0  0  0  0  0
   -7.7382    4.3139  -18.8219 C   0  0  0  0  0  0  0  0  0  0  0  0
   -6.8667    4.8070  -17.8907 C   0  0  0  0  0  0  0  0  0  0  0  0
   -5.7056    5.2073  -18.3886 N   0  0  0  0  0  0  0  0  0  0  0  0
   -1.4308    7.2378  -18.2580 C   0  0  0  0  0  0  0  0  0  0  0  0
   -1.6349    6.5079  -16.9643 C   0  0  0  0  0  0  0  0  0  0  0  0
  1  2  1  0
  2  3  1  0
  3  4  1  0
  4  5  1  0
  5  6  2  0
  6  7  1  0
  7  8  1  0
  8  9  1  0
  7 10  2  0
 10 11  1  0
 11 12  2  0
 12 13  1  0
 13 14  2  0
 14 15  1  0
 15 16  2  0
  3 17  1  0
 17 18  1  0
 18  3  1  0
 16  5  1  0
 15 10  1  0
M  END
>  <energy_score>  (2075) 
-12.362992

>  <alias>  (2075) 
None

>  <HIPPO Pose ID>  (2075) 
73430

>  <smiles>  (2075) 
OCC1(Nc2cc(CBr)c3ccccc3n2)CC1

>  <inchikey>  (2075) 
JINDLVIBUKAXQU-UHFFFAOYSA-N

>  <distance_score>  (2075) 
1.077847

>  <ref_mols>  (2075) 
Z1688a,Z0089a

>  <ref_pdb>  (2075) 
Z1688a

>  <HIPPO Compound ID>  (2075) 
146443

>  <name>  (2075) 
P73430

>  <inspiration_score>  (2075) 
None

$$$$
P73435
     RDKit          3D

 18 20  0  0  0  0  0  0  0  0999 V2000
   -3.0697    6.7142  -15.6982 N   0  0  0  0  0  0  0  0  0  0  0  0
   -3.8638    6.2210  -16.3809 C   0  0  0  0  0  0  0  0  0  0  0  0
   -4.9482    5.6149  -17.0548 C   0  0  0  0  0  0  0  0  0  0  0  0
   -6.0376    5.3126  -16.2499 C   0  0  0  0  0  0  0  0  0  0  0  0
   -7.1746    4.8115  -16.8304 C   0  0  0  0  0  0  0  0  0  0  0  0
   -8.2449    4.4859  -16.0137 C   0  0  0  0  0  0  0  0  0  0  0  0
   -9.3897    4.0338  -16.6057 C   0  0  0  0  0  0  0  0  0  0  0  0
   -9.4744    3.9507  -17.9791 C   0  0  0  0  0  0  0  0  0  0  0  0
   -8.3773    4.2312  -18.7831 C   0  0  0  0  0  0  0  0  0  0  0  0
   -7.1974    4.6525  -18.2251 C   0  0  0  0  0  0  0  0  0  0  0  0
   -6.1259    4.8968  -18.9952 N   0  0  0  0  0  0  0  0  0  0  0  0
   -5.0025    5.3510  -18.4183 C   0  0  0  0  0  0  0  0  0  0  0  0
   -3.9480    5.5107  -19.3195 N   0  0  0  0  0  0  0  0  0  0  0  0
   -2.5576    5.3138  -19.0449 C   0  0  0  0  0  0  0  0  0  0  0  0
   -1.7863    4.7104  -20.2413 C   0  0  0  0  0  0  0  0  0  0  0  0
   -1.2582    6.1286  -20.5225 C   0  0  0  0  0  0  0  0  0  0  0  0
   -0.6892    6.6462  -21.4604 O   0  0  0  0  0  0  0  0  0  0  0  0
   -1.7653    6.6432  -19.1633 C   0  0  0  0  0  0  0  0  0  0  0  0
  1  2  3  0
  2  3  1  0
  3  4  2  0
  4  5  1  0
  5  6  2  0
  6  7  1  0
  7  8  2  0
  8  9  1  0
  9 10  2  0
 10 11  1  0
 11 12  2  0
 12 13  1  0
 13 14  1  0
 14 15  1  0
 15 16  1  0
 16 17  2  0
 16 18  1  0
 12  3  1  0
 18 14  1  0
 10  5  1  0
M  END
>  <energy_score>  (2076) 
-12.675435

>  <alias>  (2076) 
None

>  <HIPPO Pose ID>  (2076) 
73435

>  <smiles>  (2076) 
N#Cc1cc2ccccc2nc1NC1CC(=O)C1

>  <inchikey>  (2076) 
YNESNWWTRMGCRI-UHFFFAOYSA-N

>  <distance_score>  (2076) 
1.952226

>  <ref_mols>  (2076) 
Z1688a,Z0089a

>  <ref_pdb>  (2076) 
Z1688a

>  <HIPPO Compound ID>  (2076) 
146449

>  <name>  (2076) 
P73435

>  <inspiration_score>  (2076) 
None

$$$$
P73437
     RDKit          3D

 18 20  0  0  0  0  0  0  0  0999 V2000
   -3.0539    6.5899  -15.6262 N   0  0  0  0  0  0  0  0  0  0  0  0
   -3.8468    6.1642  -16.3547 C   0  0  0  0  0  0  0  0  0  0  0  0
   -4.9405    5.6002  -17.0510 C   0  0  0  0  0  0  0  0  0  0  0  0
   -6.0414    5.3178  -16.2526 C   0  0  0  0  0  0  0  0  0  0  0  0
   -7.1793    4.8226  -16.8348 C   0  0  0  0  0  0  0  0  0  0  0  0
   -8.2517    4.4991  -16.0198 C   0  0  0  0  0  0  0  0  0  0  0  0
   -9.3934    4.0412  -16.6129 C   0  0  0  0  0  0  0  0  0  0  0  0
   -9.4737    3.9549  -17.9863 C   0  0  0  0  0  0  0  0  0  0  0  0
   -8.3752    4.2364  -18.7883 C   0  0  0  0  0  0  0  0  0  0  0  0
   -7.1970    4.6599  -18.2283 C   0  0  0  0  0  0  0  0  0  0  0  0
   -6.1206    4.8966  -18.9943 N   0  0  0  0  0  0  0  0  0  0  0  0
   -4.9905    5.3332  -18.4140 C   0  0  0  0  0  0  0  0  0  0  0  0
   -3.9336    5.4519  -19.3108 N   0  0  0  0  0  0  0  0  0  0  0  0
   -2.5386    5.3299  -19.0395 C   0  0  1  0  0  0  0  0  0  0  0  0
   -1.7657    4.6382  -20.1960 C   0  0  0  0  0  0  0  0  0  0  0  0
   -0.6500    5.7114  -20.1246 C   0  0  0  0  0  0  0  0  0  0  0  0
   -1.6556    6.5823  -19.3408 C   0  0  0  0  0  0  0  0  0  0  0  0
   -1.7192    7.7669  -19.0888 O   0  0  0  0  0  0  0  0  0  0  0  0
  1  2  3  0
  2  3  1  0
  3  4  2  0
  4  5  1  0
  5  6  2  0
  6  7  1  0
  7  8  2  0
  8  9  1  0
  9 10  2  0
 10 11  1  0
 11 12  2  0
 12 13  1  0
 14 13  1  6
 14 15  1  0
 15 16  1  0
 16 17  1  0
 17 18  2  0
 12  3  1  0
 17 14  1  0
 10  5  1  0
M  END
>  <energy_score>  (2077) 
-12.458008

>  <alias>  (2077) 
None

>  <HIPPO Pose ID>  (2077) 
73437

>  <smiles>  (2077) 
N#Cc1cc2ccccc2nc1N[C@H]1CCC1=O

>  <inchikey>  (2077) 
STPKQKGSMRJLGU-LBPRGKRZSA-N

>  <distance_score>  (2077) 
1.951825

>  <ref_mols>  (2077) 
Z1688a,Z0089a

>  <ref_pdb>  (2077) 
Z1688a

>  <HIPPO Compound ID>  (2077) 
146452

>  <name>  (2077) 
P73437

>  <inspiration_score>  (2077) 
None

$$$$
P73444
     RDKit          3D

 18 20  0  0  0  0  0  0  0  0999 V2000
   -1.8053    4.5817  -19.2888 C   0  0  0  0  0  0  0  0  0  0  0  0
   -3.0844    5.3884  -19.0439 C   0  0  1  0  0  0  0  0  0  0  0  0
   -3.3852    5.4112  -17.6074 N   0  0  0  0  0  0  0  0  0  0  0  0
   -4.7099    5.2038  -17.2160 C   0  0  0  0  0  0  0  0  0  0  0  0
   -5.0699    5.2876  -15.8735 C   0  0  0  0  0  0  0  0  0  0  0  0
   -6.4059    5.0635  -15.4817 C   0  0  0  0  0  0  0  0  0  0  0  0
   -6.7063    5.1842  -14.0204 C   0  0  0  0  0  0  0  0  0  0  0  0
   -7.8145    5.1819  -13.5025 O   0  0  0  0  0  0  0  0  0  0  0  0
   -7.3677    4.7506  -16.4611 C   0  0  0  0  0  0  0  0  0  0  0  0
   -8.7381    4.4662  -16.2513 C   0  0  0  0  0  0  0  0  0  0  0  0
   -9.5925    4.2408  -17.3311 C   0  0  0  0  0  0  0  0  0  0  0  0
   -9.0917    4.2628  -18.6187 C   0  0  0  0  0  0  0  0  0  0  0  0
   -7.7388    4.4578  -18.8252 C   0  0  0  0  0  0  0  0  0  0  0  0
   -6.8873    4.7221  -17.7840 C   0  0  0  0  0  0  0  0  0  0  0  0
   -5.6247    4.9470  -18.1383 N   0  0  0  0  0  0  0  0  0  0  0  0
   -2.8819    6.8160  -19.4866 C   0  0  0  0  0  0  0  0  0  0  0  0
   -3.0942    7.2108  -20.9279 C   0  0  0  0  0  0  0  0  0  0  0  0
   -4.0685    7.6644  -19.8775 C   0  0  0  0  0  0  0  0  0  0  0  0
  2  1  1  1
  2  3  1  0
  3  4  1  0
  4  5  2  0
  5  6  1  0
  6  7  1  0
  7  8  2  0
  6  9  2  0
  9 10  1  0
 10 11  2  0
 11 12  1  0
 12 13  2  0
 13 14  1  0
 14 15  2  0
  2 16  1  0
 16 17  1  0
 17 18  1  0
 15  4  1  0
 18 16  1  0
 14  9  1  0
M  END
>  <energy_score>  (2078) 
-28.582676

>  <alias>  (2078) 
None

>  <HIPPO Pose ID>  (2078) 
73444

>  <smiles>  (2078) 
C[C@@H](Nc1cc(C=O)c2ccccc2n1)C1CC1

>  <inchikey>  (2078) 
JGKFXAYBVOEUPZ-SNVBAGLBSA-N

>  <distance_score>  (2078) 
1.077549

>  <ref_mols>  (2078) 
Z1688a,Z0089a

>  <ref_pdb>  (2078) 
Z1688a

>  <HIPPO Compound ID>  (2078) 
146459

>  <name>  (2078) 
P73444

>  <inspiration_score>  (2078) 
None

$$$$
P73446
     RDKit          3D

 18 20  0  0  0  0  0  0  0  0999 V2000
   -1.9064    4.5206  -19.0520 C   0  0  0  0  0  0  0  0  0  0  0  0
   -2.6544    5.7169  -19.6188 C   0  0  1  0  0  0  0  0  0  0  0  0
   -4.0913    5.5634  -19.5630 N   0  0  0  0  0  0  0  0  0  0  0  0
   -4.9903    5.3407  -18.5704 C   0  0  0  0  0  0  0  0  0  0  0  0
   -6.1539    4.8915  -19.0833 N   0  0  0  0  0  0  0  0  0  0  0  0
   -7.1984    4.6350  -18.2780 C   0  0  0  0  0  0  0  0  0  0  0  0
   -8.4129    4.2478  -18.7916 C   0  0  0  0  0  0  0  0  0  0  0  0
   -9.4885    3.9818  -17.9510 C   0  0  0  0  0  0  0  0  0  0  0  0
   -9.3456    4.0414  -16.5807 C   0  0  0  0  0  0  0  0  0  0  0  0
   -8.1606    4.4478  -16.0332 C   0  0  0  0  0  0  0  0  0  0  0  0
   -7.1142    4.7606  -16.8892 C   0  0  0  0  0  0  0  0  0  0  0  0
   -5.9368    5.2202  -16.3588 C   0  0  0  0  0  0  0  0  0  0  0  0
   -4.8750    5.5450  -17.2042 C   0  0  0  0  0  0  0  0  0  0  0  0
   -3.7852    6.1204  -16.5139 C   0  0  0  0  0  0  0  0  0  0  0  0
   -3.0315    6.5833  -15.7647 N   0  0  0  0  0  0  0  0  0  0  0  0
   -2.1947    7.0317  -19.0412 C   0  0  0  0  0  0  0  0  0  0  0  0
   -2.9723    8.3125  -19.2581 C   0  0  0  0  0  0  0  0  0  0  0  0
   -1.6603    8.1149  -19.9546 C   0  0  0  0  0  0  0  0  0  0  0  0
  2  1  1  1
  2  3  1  0
  3  4  1  0
  4  5  2  0
  5  6  1  0
  6  7  2  0
  7  8  1  0
  8  9  2  0
  9 10  1  0
 10 11  2  0
 11 12  1  0
 12 13  2  0
 13 14  1  0
 14 15  3  0
  2 16  1  0
 16 17  1  0
 17 18  1  0
 13  4  1  0
 18 16  1  0
 11  6  1  0
M  END
>  <energy_score>  (2079) 
-8.537786

>  <alias>  (2079) 
None

>  <HIPPO Pose ID>  (2079) 
73446

>  <smiles>  (2079) 
C[C@@H](Nc1nc2ccccc2cc1C#N)C1CC1

>  <inchikey>  (2079) 
UJYGOICHAPLJPL-SNVBAGLBSA-N

>  <distance_score>  (2079) 
1.944903

>  <ref_mols>  (2079) 
Z1688a,Z0089a

>  <ref_pdb>  (2079) 
Z1688a

>  <HIPPO Compound ID>  (2079) 
146460

>  <name>  (2079) 
P73446

>  <inspiration_score>  (2079) 
None

$$$$
P73447
     RDKit          3D

 18 20  0  0  0  0  0  0  0  0999 V2000
   -0.2615    5.4541  -18.8946 C   0  0  0  0  0  0  0  0  0  0  0  0
   -1.5948    4.8920  -19.3673 C   0  0  0  0  0  0  0  0  0  0  0  0
   -2.6895    5.9319  -19.5992 C   0  0  0  0  0  0  0  0  0  0  0  0
   -4.0321    5.3686  -19.6063 N   0  0  0  0  0  0  0  0  0  0  0  0
   -4.9903    5.2998  -18.6076 C   0  0  0  0  0  0  0  0  0  0  0  0
   -6.1578    4.8436  -19.1014 N   0  0  0  0  0  0  0  0  0  0  0  0
   -7.2003    4.6529  -18.2853 C   0  0  0  0  0  0  0  0  0  0  0  0
   -8.3983    4.1907  -18.7738 C   0  0  0  0  0  0  0  0  0  0  0  0
   -9.4584    3.9246  -17.9147 C   0  0  0  0  0  0  0  0  0  0  0  0
   -9.3209    4.0905  -16.5521 C   0  0  0  0  0  0  0  0  0  0  0  0
   -8.1646    4.6134  -16.0403 C   0  0  0  0  0  0  0  0  0  0  0  0
   -7.1250    4.9005  -16.9154 C   0  0  0  0  0  0  0  0  0  0  0  0
   -5.9542    5.4248  -16.4220 C   0  0  0  0  0  0  0  0  0  0  0  0
   -4.8436    5.6110  -17.2562 C   0  0  0  0  0  0  0  0  0  0  0  0
   -3.6040    6.1524  -16.6246 C   0  0  0  0  0  0  0  0  0  0  0  0
   -3.6385    6.0055  -15.2007 O   0  0  0  0  0  0  0  0  0  0  0  0
   -2.3990    6.9166  -20.7211 C   0  0  0  0  0  0  0  0  0  0  0  0
   -2.4946    7.4176  -19.3238 C   0  0  0  0  0  0  0  0  0  0  0  0
  1  2  1  0
  2  3  1  0
  3  4  1  0
  4  5  1  0
  5  6  2  0
  6  7  1  0
  7  8  2  0
  8  9  1  0
  9 10  2  0
 10 11  1  0
 11 12  2  0
 12 13  1  0
 13 14  2  0
 14 15  1  0
 15 16  1  0
  3 17  1  0
 17 18  1  0
 18  3  1  0
 14  5  1  0
 12  7  1  0
M  END
>  <energy_score>  (2080) 
-23.119853

>  <alias>  (2080) 
None

>  <HIPPO Pose ID>  (2080) 
73447

>  <smiles>  (2080) 
CCC1(Nc2nc3ccccc3cc2CO)CC1

>  <inchikey>  (2080) 
AYPJUKHNKSPZJE-UHFFFAOYSA-N

>  <distance_score>  (2080) 
1.937184

>  <ref_mols>  (2080) 
Z1688a,Z0089a

>  <ref_pdb>  (2080) 
Z1688a

>  <HIPPO Compound ID>  (2080) 
146462

>  <name>  (2080) 
P73447

>  <inspiration_score>  (2080) 
None

$$$$
P73449
     RDKit          3D

 18 20  0  0  0  0  0  0  0  0999 V2000
   -1.7136    4.0430  -20.4153 C   0  0  0  0  0  0  0  0  0  0  0  0
   -1.8285    4.8252  -19.1236 C   0  0  0  0  0  0  0  0  0  0  0  0
   -2.6654    6.0770  -19.3074 C   0  0  0  0  0  0  0  0  0  0  0  0
   -4.1049    5.8589  -19.3913 N   0  0  0  0  0  0  0  0  0  0  0  0
   -4.9997    5.4269  -18.4225 C   0  0  0  0  0  0  0  0  0  0  0  0
   -6.1597    5.0334  -18.9870 N   0  0  0  0  0  0  0  0  0  0  0  0
   -7.1988    4.6816  -18.2171 C   0  0  0  0  0  0  0  0  0  0  0  0
   -8.4200    4.3697  -18.7679 C   0  0  0  0  0  0  0  0  0  0  0  0
   -9.5140    4.0769  -17.9629 C   0  0  0  0  0  0  0  0  0  0  0  0
   -9.3765    4.0099  -16.5936 C   0  0  0  0  0  0  0  0  0  0  0  0
   -8.1715    4.2893  -16.0093 C   0  0  0  0  0  0  0  0  0  0  0  0
   -7.1061    4.6385  -16.8277 C   0  0  0  0  0  0  0  0  0  0  0  0
   -5.9007    4.9637  -16.2560 C   0  0  0  0  0  0  0  0  0  0  0  0
   -4.8301    5.4163  -17.0419 C   0  0  0  0  0  0  0  0  0  0  0  0
   -3.6450    5.8648  -16.2688 C   0  0  0  0  0  0  0  0  0  0  0  0
   -4.1569    7.4161  -15.1972 Br  0  0  0  0  0  0  0  0  0  0  0  0
   -2.0948    7.1180  -20.2571 C   0  0  0  0  0  0  0  0  0  0  0  0
   -2.1389    7.4106  -18.7998 C   0  0  0  0  0  0  0  0  0  0  0  0
  1  2  1  0
  2  3  1  0
  3  4  1  0
  4  5  1  0
  5  6  2  0
  6  7  1  0
  7  8  2  0
  8  9  1  0
  9 10  2  0
 10 11  1  0
 11 12  2  0
 12 13  1  0
 13 14  2  0
 14 15  1  0
 15 16  1  0
  3 17  1  0
 17 18  1  0
 18  3  1  0
 14  5  1  0
 12  7  1  0
M  END
>  <energy_score>  (2081) 
-21.413836

>  <alias>  (2081) 
None

>  <HIPPO Pose ID>  (2081) 
73449

>  <smiles>  (2081) 
CCC1(Nc2nc3ccccc3cc2CBr)CC1

>  <inchikey>  (2081) 
VKVNWAZZJRFGEK-UHFFFAOYSA-N

>  <distance_score>  (2081) 
1.960797

>  <ref_mols>  (2081) 
Z1688a,Z0089a

>  <ref_pdb>  (2081) 
Z1688a

>  <HIPPO Compound ID>  (2081) 
146464

>  <name>  (2081) 
P73449

>  <inspiration_score>  (2081) 
None

$$$$
P73450
     RDKit          3D

 18 20  0  0  0  0  0  0  0  0999 V2000
   -1.4983    3.9035  -19.5625 C   0  0  0  0  0  0  0  0  0  0  0  0
   -2.4844    5.0282  -19.7483 C   0  0  0  0  0  0  0  0  0  0  0  0
   -2.5998    6.0160  -18.5888 C   0  0  0  0  0  0  0  0  0  0  0  0
   -3.9725    6.5535  -18.3973 N   0  0  0  0  0  0  0  0  0  0  0  0
   -4.9192    5.8398  -17.6505 C   0  0  0  0  0  0  0  0  0  0  0  0
   -4.9992    5.8437  -16.2640 C   0  0  0  0  0  0  0  0  0  0  0  0
   -6.1726    5.3597  -15.6447 C   0  0  0  0  0  0  0  0  0  0  0  0
   -6.2671    5.4760  -14.1526 C   0  0  0  0  0  0  0  0  0  0  0  0
   -7.2531    5.2551  -13.4616 O   0  0  0  0  0  0  0  0  0  0  0  0
   -7.2189    4.8640  -16.4455 C   0  0  0  0  0  0  0  0  0  0  0  0
   -8.4804    4.4222  -16.0007 C   0  0  0  0  0  0  0  0  0  0  0  0
   -9.4526    4.0562  -16.9212 C   0  0  0  0  0  0  0  0  0  0  0  0
   -9.1750    4.0559  -18.2709 C   0  0  0  0  0  0  0  0  0  0  0  0
   -7.9207    4.4079  -18.7132 C   0  0  0  0  0  0  0  0  0  0  0  0
   -6.9708    4.8497  -17.8330 C   0  0  0  0  0  0  0  0  0  0  0  0
   -5.8708    5.3137  -18.4057 N   0  0  0  0  0  0  0  0  0  0  0  0
   -1.5978    6.0814  -17.4583 C   0  0  0  0  0  0  0  0  0  0  0  0
   -1.5016    7.0741  -18.5641 C   0  0  0  0  0  0  0  0  0  0  0  0
  1  2  1  0
  2  3  1  0
  3  4  1  0
  4  5  1  0
  5  6  2  0
  6  7  1  0
  7  8  1  0
  8  9  2  0
  7 10  2  0
 10 11  1  0
 11 12  2  0
 12 13  1  0
 13 14  2  0
 14 15  1  0
 15 16  2  0
  3 17  1  0
 17 18  1  0
 18  3  1  0
 16  5  1  0
 15 10  1  0
M  END
>  <energy_score>  (2082) 
-23.66285

>  <alias>  (2082) 
None

>  <HIPPO Pose ID>  (2082) 
73450

>  <smiles>  (2082) 
CCC1(Nc2cc(C=O)c3ccccc3n2)CC1

>  <inchikey>  (2082) 
YHXCCKFRRWNGLM-UHFFFAOYSA-N

>  <distance_score>  (2082) 
1.229197

>  <ref_mols>  (2082) 
Z1688a,Z0089a

>  <ref_pdb>  (2082) 
Z1688a

>  <HIPPO Compound ID>  (2082) 
146465

>  <name>  (2082) 
P73450

>  <inspiration_score>  (2082) 
None

$$$$
P73451
     RDKit          3D

 18 19  0  0  0  0  0  0  0  0999 V2000
   -1.9674    4.2870  -19.4169 C   0  0  0  0  0  0  0  0  0  0  0  0
   -2.4957    5.6572  -19.0039 C   0  0  2  0  0  0  0  0  0  0  0  0
   -3.9337    5.7493  -19.2337 N   0  0  0  0  0  0  0  0  0  0  0  0
   -4.9156    5.4276  -18.3304 C   0  0  0  0  0  0  0  0  0  0  0  0
   -6.0087    4.9298  -18.9365 N   0  0  0  0  0  0  0  0  0  0  0  0
   -7.0983    4.6423  -18.2035 C   0  0  0  0  0  0  0  0  0  0  0  0
   -8.2600    4.2304  -18.8051 C   0  0  0  0  0  0  0  0  0  0  0  0
   -9.3909    3.9573  -18.0446 C   0  0  0  0  0  0  0  0  0  0  0  0
   -9.3616    4.0247  -16.6681 C   0  0  0  0  0  0  0  0  0  0  0  0
   -8.2255    4.4393  -16.0321 C   0  0  0  0  0  0  0  0  0  0  0  0
   -7.1227    4.7684  -16.8079 C   0  0  0  0  0  0  0  0  0  0  0  0
   -6.0051    5.2638  -16.1881 C   0  0  0  0  0  0  0  0  0  0  0  0
   -4.9091    5.6417  -16.9583 C   0  0  0  0  0  0  0  0  0  0  0  0
   -3.9075    6.3212  -16.2280 C   0  0  0  0  0  0  0  0  0  0  0  0
   -3.2089    6.8720  -15.4867 N   0  0  0  0  0  0  0  0  0  0  0  0
   -1.7882    6.8235  -19.7436 C   0  0  2  0  0  0  0  0  0  0  0  0
   -1.8971    6.7697  -21.2662 C   0  0  0  0  0  0  0  0  0  0  0  0
   -0.3998    6.8840  -19.3931 O   0  0  0  0  0  0  0  0  0  0  0  0
  2  1  1  6
  2  3  1  0
  3  4  1  0
  4  5  2  0
  5  6  1  0
  6  7  2  0
  7  8  1  0
  8  9  2  0
  9 10  1  0
 10 11  2  0
 11 12  1  0
 12 13  2  0
 13 14  1  0
 14 15  3  0
  2 16  1  0
 16 17  1  6
 16 18  1  0
 13  4  1  0
 11  6  1  0
M  END
>  <energy_score>  (2083) 
-12.125906

>  <alias>  (2083) 
None

>  <HIPPO Pose ID>  (2083) 
73451

>  <smiles>  (2083) 
C[C@H](O)[C@H](C)Nc1nc2ccccc2cc1C#N

>  <inchikey>  (2083) 
QJJUSUHPTRAQPI-UWVGGRQHSA-N

>  <distance_score>  (2083) 
1.951244

>  <ref_mols>  (2083) 
Z1688a,Z0089a

>  <ref_pdb>  (2083) 
Z1688a

>  <HIPPO Compound ID>  (2083) 
146466

>  <name>  (2083) 
P73451

>  <inspiration_score>  (2083) 
None

$$$$
P73454
     RDKit          3D

 18 19  0  0  0  0  0  0  0  0999 V2000
   -1.9784    4.3189  -19.4694 C   0  0  0  0  0  0  0  0  0  0  0  0
   -2.4692    5.6989  -19.0404 C   0  0  2  0  0  0  0  0  0  0  0  0
   -3.9089    5.8205  -19.2323 N   0  0  0  0  0  0  0  0  0  0  0  0
   -4.8727    5.4653  -18.3227 C   0  0  0  0  0  0  0  0  0  0  0  0
   -5.9670    4.9725  -18.9282 N   0  0  0  0  0  0  0  0  0  0  0  0
   -7.0465    4.6585  -18.1939 C   0  0  0  0  0  0  0  0  0  0  0  0
   -8.2172    4.2631  -18.7939 C   0  0  0  0  0  0  0  0  0  0  0  0
   -9.3488    3.9842  -18.0345 C   0  0  0  0  0  0  0  0  0  0  0  0
   -9.3089    4.0241  -16.6568 C   0  0  0  0  0  0  0  0  0  0  0  0
   -8.1552    4.3997  -16.0233 C   0  0  0  0  0  0  0  0  0  0  0  0
   -7.0513    4.7386  -16.7991 C   0  0  0  0  0  0  0  0  0  0  0  0
   -5.9148    5.2044  -16.1830 C   0  0  0  0  0  0  0  0  0  0  0  0
   -4.8367    5.6662  -16.9462 C   0  0  0  0  0  0  0  0  0  0  0  0
   -3.7484    6.3773  -16.2128 C   0  0  0  0  0  0  0  0  0  0  0  0
   -4.2640    7.0072  -15.0366 O   0  0  0  0  0  0  0  0  0  0  0  0
   -1.7562    6.8100  -19.8511 C   0  0  1  0  0  0  0  0  0  0  0  0
   -2.2104    8.2175  -19.4738 C   0  0  0  0  0  0  0  0  0  0  0  0
   -0.3431    6.7462  -19.6248 O   0  0  0  0  0  0  0  0  0  0  0  0
  2  1  1  6
  2  3  1  0
  3  4  1  0
  4  5  2  0
  5  6  1  0
  6  7  2  0
  7  8  1  0
  8  9  2  0
  9 10  1  0
 10 11  2  0
 11 12  1  0
 12 13  2  0
 13 14  1  0
 14 15  1  0
  2 16  1  0
 16 17  1  1
 16 18  1  0
 13  4  1  0
 11  6  1  0
M  END
>  <energy_score>  (2084) 
-22.408487

>  <alias>  (2084) 
None

>  <HIPPO Pose ID>  (2084) 
73454

>  <smiles>  (2084) 
C[C@H](Nc1nc2ccccc2cc1CO)[C@@H](C)O

>  <inchikey>  (2084) 
JXTSHQVCQOJZNS-VHSXEESVSA-N

>  <distance_score>  (2084) 
1.915981

>  <ref_mols>  (2084) 
Z1688a,Z0089a

>  <ref_pdb>  (2084) 
Z1688a

>  <HIPPO Compound ID>  (2084) 
146467

>  <name>  (2084) 
P73454

>  <inspiration_score>  (2084) 
None

$$$$
P73458
     RDKit          3D

 18 19  0  0  0  0  0  0  0  0999 V2000
   -2.0759    4.4310  -18.9766 C   0  0  0  0  0  0  0  0  0  0  0  0
   -2.4241    5.6978  -18.1943 C   0  0  2  0  0  0  0  0  0  0  0  0
   -3.8074    6.0908  -18.4182 N   0  0  0  0  0  0  0  0  0  0  0  0
   -4.8317    5.5660  -17.6652 C   0  0  0  0  0  0  0  0  0  0  0  0
   -5.0372    5.7358  -16.2969 C   0  0  0  0  0  0  0  0  0  0  0  0
   -6.2871    5.3894  -15.7138 C   0  0  0  0  0  0  0  0  0  0  0  0
   -6.5864    5.7743  -14.2844 C   0  0  0  0  0  0  0  0  0  0  0  0
   -6.8865    4.2692  -13.1010 Br  0  0  0  0  0  0  0  0  0  0  0  0
   -7.2790    4.8598  -16.5723 C   0  0  0  0  0  0  0  0  0  0  0  0
   -8.6055    4.5431  -16.2065 C   0  0  0  0  0  0  0  0  0  0  0  0
   -9.5340    4.1819  -17.1774 C   0  0  0  0  0  0  0  0  0  0  0  0
   -9.1501    4.0981  -18.4993 C   0  0  0  0  0  0  0  0  0  0  0  0
   -7.8378    4.3042  -18.8573 C   0  0  0  0  0  0  0  0  0  0  0  0
   -6.9213    4.7060  -17.9293 C   0  0  0  0  0  0  0  0  0  0  0  0
   -5.7457    5.0193  -18.4445 N   0  0  0  0  0  0  0  0  0  0  0  0
   -1.5211    6.8973  -18.5944 C   0  0  2  0  0  0  0  0  0  0  0  0
   -1.4116    7.1421  -20.0959 C   0  0  0  0  0  0  0  0  0  0  0  0
   -0.1930    6.7195  -18.0851 O   0  0  0  0  0  0  0  0  0  0  0  0
  2  1  1  6
  2  3  1  0
  3  4  1  0
  4  5  2  0
  5  6  1  0
  6  7  1  0
  7  8  1  0
  6  9  2  0
  9 10  1  0
 10 11  2  0
 11 12  1  0
 12 13  2  0
 13 14  1  0
 14 15  2  0
  2 16  1  0
 16 17  1  6
 16 18  1  0
 15  4  1  0
 14  9  1  0
M  END
>  <energy_score>  (2085) 
-43.022198

>  <alias>  (2085) 
None

>  <HIPPO Pose ID>  (2085) 
73458

>  <smiles>  (2085) 
C[C@H](O)[C@H](C)Nc1cc(CBr)c2ccccc2n1

>  <inchikey>  (2085) 
IXSRUUPAPNIOOC-UWVGGRQHSA-N

>  <distance_score>  (2085) 
1.013427

>  <ref_mols>  (2085) 
Z1688a,Z0089a

>  <ref_pdb>  (2085) 
Z1688a

>  <HIPPO Compound ID>  (2085) 
146468

>  <name>  (2085) 
P73458

>  <inspiration_score>  (2085) 
None

$$$$
P73461
     RDKit          3D

 18 19  0  0  0  0  0  0  0  0999 V2000
   -1.9082    4.2832  -19.6386 C   0  0  0  0  0  0  0  0  0  0  0  0
   -2.4375    5.5847  -19.0571 C   0  0  2  0  0  0  0  0  0  0  0  0
   -3.8822    5.7247  -19.2623 N   0  0  0  0  0  0  0  0  0  0  0  0
   -4.8570    5.3996  -18.3509 C   0  0  0  0  0  0  0  0  0  0  0  0
   -5.9551    4.9161  -18.9562 N   0  0  0  0  0  0  0  0  0  0  0  0
   -7.0398    4.6201  -18.2215 C   0  0  0  0  0  0  0  0  0  0  0  0
   -8.2260    4.2625  -18.8164 C   0  0  0  0  0  0  0  0  0  0  0  0
   -9.3606    4.0075  -18.0524 C   0  0  0  0  0  0  0  0  0  0  0  0
   -9.3080    4.0227  -16.6749 C   0  0  0  0  0  0  0  0  0  0  0  0
   -8.1380    4.3547  -16.0470 C   0  0  0  0  0  0  0  0  0  0  0  0
   -7.0317    4.6784  -16.8272 C   0  0  0  0  0  0  0  0  0  0  0  0
   -5.8814    5.1144  -16.2133 C   0  0  0  0  0  0  0  0  0  0  0  0
   -4.8174    5.6112  -16.9746 C   0  0  0  0  0  0  0  0  0  0  0  0
   -3.7339    6.3535  -16.2692 C   0  0  0  0  0  0  0  0  0  0  0  0
   -4.4561    7.5171  -14.8688 Br  0  0  0  0  0  0  0  0  0  0  0  0
   -1.7775    6.8276  -19.7068 C   0  0  2  0  0  0  0  0  0  0  0  0
   -0.3162    7.0125  -19.3249 C   0  0  0  0  0  0  0  0  0  0  0  0
   -2.4866    8.0040  -19.2858 O   0  0  0  0  0  0  0  0  0  0  0  0
  2  1  1  6
  2  3  1  0
  3  4  1  0
  4  5  2  0
  5  6  1  0
  6  7  2  0
  7  8  1  0
  8  9  2  0
  9 10  1  0
 10 11  2  0
 11 12  1  0
 12 13  2  0
 13 14  1  0
 14 15  1  0
  2 16  1  0
 16 17  1  1
 16 18  1  0
 13  4  1  0
 11  6  1  0
M  END
>  <energy_score>  (2086) 
-19.278742

>  <alias>  (2086) 
None

>  <HIPPO Pose ID>  (2086) 
73461

>  <smiles>  (2086) 
C[C@H](O)[C@H](C)Nc1nc2ccccc2cc1CBr

>  <inchikey>  (2086) 
AQWHBWIQQINTFL-UWVGGRQHSA-N

>  <distance_score>  (2086) 
1.928966

>  <ref_mols>  (2086) 
Z1688a,Z0089a

>  <ref_pdb>  (2086) 
Z1688a

>  <HIPPO Compound ID>  (2086) 
146469

>  <name>  (2086) 
P73461

>  <inspiration_score>  (2086) 
None

$$$$
P73465
     RDKit          3D

 18 19  0  0  0  0  0  0  0  0999 V2000
   -2.0355    4.4002  -19.0288 C   0  0  0  0  0  0  0  0  0  0  0  0
   -2.3955    5.6556  -18.2422 C   0  0  2  0  0  0  0  0  0  0  0  0
   -3.8006    6.0093  -18.4485 N   0  0  0  0  0  0  0  0  0  0  0  0
   -4.8151    5.5104  -17.6718 C   0  0  0  0  0  0  0  0  0  0  0  0
   -4.9381    5.5824  -16.2920 C   0  0  0  0  0  0  0  0  0  0  0  0
   -6.1645    5.2137  -15.6876 C   0  0  0  0  0  0  0  0  0  0  0  0
   -6.2800    5.3659  -14.1998 C   0  0  0  0  0  0  0  0  0  0  0  0
   -7.2891    5.2148  -13.5237 O   0  0  0  0  0  0  0  0  0  0  0  0
   -7.2322    4.7821  -16.4994 C   0  0  0  0  0  0  0  0  0  0  0  0
   -8.5321    4.4251  -16.0810 C   0  0  0  0  0  0  0  0  0  0  0  0
   -9.5098    4.1258  -17.0228 C   0  0  0  0  0  0  0  0  0  0  0  0
   -9.2096    4.1351  -18.3675 C   0  0  0  0  0  0  0  0  0  0  0  0
   -7.9210    4.3799  -18.7803 C   0  0  0  0  0  0  0  0  0  0  0  0
   -6.9554    4.7312  -17.8785 C   0  0  0  0  0  0  0  0  0  0  0  0
   -5.7993    5.0637  -18.4302 N   0  0  0  0  0  0  0  0  0  0  0  0
   -1.5749    6.8808  -18.7235 C   0  0  2  0  0  0  0  0  0  0  0  0
   -0.0964    6.7991  -18.3737 C   0  0  0  0  0  0  0  0  0  0  0  0
   -2.1055    8.0571  -18.0893 O   0  0  0  0  0  0  0  0  0  0  0  0
  2  1  1  6
  2  3  1  0
  3  4  1  0
  4  5  2  0
  5  6  1  0
  6  7  1  0
  7  8  2  0
  6  9  2  0
  9 10  1  0
 10 11  2  0
 11 12  1  0
 12 13  2  0
 13 14  1  0
 14 15  2  0
  2 16  1  0
 16 17  1  1
 16 18  1  0
 15  4  1  0
 14  9  1  0
M  END
>  <energy_score>  (2087) 
-32.637181

>  <alias>  (2087) 
None

>  <HIPPO Pose ID>  (2087) 
73465

>  <smiles>  (2087) 
C[C@H](O)[C@H](C)Nc1cc(C=O)c2ccccc2n1

>  <inchikey>  (2087) 
YYHCHLNOPQSJIS-UWVGGRQHSA-N

>  <distance_score>  (2087) 
1.133242

>  <ref_mols>  (2087) 
Z1688a,Z0089a

>  <ref_pdb>  (2087) 
Z1688a

>  <HIPPO Compound ID>  (2087) 
146470

>  <name>  (2087) 
P73465

>  <inspiration_score>  (2087) 
None

$$$$
P73468
     RDKit          3D

 18 19  0  0  0  0  0  0  0  0999 V2000
   -1.3001    5.1855  -22.0473 C   0  0  0  0  0  0  0  0  0  0  0  0
   -1.5402    4.9629  -20.8917 C   0  0  0  0  0  0  0  0  0  0  0  0
   -1.8217    4.7549  -19.4591 C   0  0  0  0  0  0  0  0  0  0  0  0
   -3.0943    5.5076  -19.0105 C   0  0  2  0  0  0  0  0  0  0  0  0
   -2.9218    7.0225  -19.1802 C   0  0  0  0  0  0  0  0  0  0  0  0
   -3.3627    5.2624  -17.5766 N   0  0  0  0  0  0  0  0  0  0  0  0
   -4.7051    5.1483  -17.1934 C   0  0  0  0  0  0  0  0  0  0  0  0
   -5.0574    5.1750  -15.8472 C   0  0  0  0  0  0  0  0  0  0  0  0
   -6.4019    4.9929  -15.4650 C   0  0  0  0  0  0  0  0  0  0  0  0
   -6.7031    5.0773  -14.0024 C   0  0  0  0  0  0  0  0  0  0  0  0
   -7.8124    5.1667  -13.4943 O   0  0  0  0  0  0  0  0  0  0  0  0
   -7.3702    4.7349  -16.4535 C   0  0  0  0  0  0  0  0  0  0  0  0
   -8.7429    4.4573  -16.2490 C   0  0  0  0  0  0  0  0  0  0  0  0
   -9.5982    4.2532  -17.3324 C   0  0  0  0  0  0  0  0  0  0  0  0
   -9.0973    4.2940  -18.6195 C   0  0  0  0  0  0  0  0  0  0  0  0
   -7.7440    4.4943  -18.8216 C   0  0  0  0  0  0  0  0  0  0  0  0
   -6.8909    4.7398  -17.7770 C   0  0  0  0  0  0  0  0  0  0  0  0
   -5.6264    4.9661  -18.1263 N   0  0  0  0  0  0  0  0  0  0  0  0
  1  2  3  0
  2  3  1  0
  3  4  1  0
  4  5  1  1
  4  6  1  0
  6  7  1  0
  7  8  2  0
  8  9  1  0
  9 10  1  0
 10 11  2  0
  9 12  2  0
 12 13  1  0
 13 14  2  0
 14 15  1  0
 15 16  2  0
 16 17  1  0
 17 18  2  0
 18  7  1  0
 17 12  1  0
M  END
>  <energy_score>  (2088) 
-26.021709

>  <alias>  (2088) 
None

>  <HIPPO Pose ID>  (2088) 
73468

>  <smiles>  (2088) 
C#CC[C@H](C)Nc1cc(C=O)c2ccccc2n1

>  <inchikey>  (2088) 
DXAFOZTZPHJEGU-NSHDSACASA-N

>  <distance_score>  (2088) 
1.110235

>  <ref_mols>  (2088) 
Z1688a,Z0089a

>  <ref_pdb>  (2088) 
Z1688a

>  <HIPPO Compound ID>  (2088) 
146471

>  <name>  (2088) 
P73468

>  <inspiration_score>  (2088) 
None

$$$$
P73470
     RDKit          3D

 18 19  0  0  0  0  0  0  0  0999 V2000
   -1.5993    5.5315  -22.4326 C   0  0  0  0  0  0  0  0  0  0  0  0
   -1.6472    5.1152  -21.3071 C   0  0  0  0  0  0  0  0  0  0  0  0
   -1.6747    4.6351  -19.9129 C   0  0  0  0  0  0  0  0  0  0  0  0
   -2.4572    5.5485  -18.9472 C   0  0  1  0  0  0  0  0  0  0  0  0
   -1.9078    6.9766  -18.9605 C   0  0  0  0  0  0  0  0  0  0  0  0
   -3.8818    5.5978  -19.2522 N   0  0  0  0  0  0  0  0  0  0  0  0
   -4.9022    5.3644  -18.3633 C   0  0  0  0  0  0  0  0  0  0  0  0
   -6.0109    4.9008  -18.9664 N   0  0  0  0  0  0  0  0  0  0  0  0
   -7.1078    4.6404  -18.2317 C   0  0  0  0  0  0  0  0  0  0  0  0
   -8.2730    4.2292  -18.8265 C   0  0  0  0  0  0  0  0  0  0  0  0
   -9.4025    3.9639  -18.0605 C   0  0  0  0  0  0  0  0  0  0  0  0
   -9.3712    4.0409  -16.6850 C   0  0  0  0  0  0  0  0  0  0  0  0
   -8.2358    4.4649  -16.0558 C   0  0  0  0  0  0  0  0  0  0  0  0
   -7.1338    4.7824  -16.8376 C   0  0  0  0  0  0  0  0  0  0  0  0
   -6.0119    5.2686  -16.2216 C   0  0  0  0  0  0  0  0  0  0  0  0
   -4.9001    5.5967  -16.9913 C   0  0  0  0  0  0  0  0  0  0  0  0
   -3.8640    6.2096  -16.2502 C   0  0  0  0  0  0  0  0  0  0  0  0
   -3.1218    6.6976  -15.5068 N   0  0  0  0  0  0  0  0  0  0  0  0
  1  2  3  0
  2  3  1  0
  3  4  1  0
  4  5  1  6
  4  6  1  0
  6  7  1  0
  7  8  2  0
  8  9  1  0
  9 10  2  0
 10 11  1  0
 11 12  2  0
 12 13  1  0
 13 14  2  0
 14 15  1  0
 15 16  2  0
 16 17  1  0
 17 18  3  0
 16  7  1  0
 14  9  1  0
M  END
>  <energy_score>  (2089) 
-12.12376

>  <alias>  (2089) 
None

>  <HIPPO Pose ID>  (2089) 
73470

>  <smiles>  (2089) 
C#CC[C@@H](C)Nc1nc2ccccc2cc1C#N

>  <inchikey>  (2089) 
BMEJKLKXGVXJTD-LLVKDONJSA-N

>  <distance_score>  (2089) 
1.95003

>  <ref_mols>  (2089) 
Z1688a,Z0089a

>  <ref_pdb>  (2089) 
Z1688a

>  <HIPPO Compound ID>  (2089) 
146472

>  <name>  (2089) 
P73470

>  <inspiration_score>  (2089) 
None

$$$$
P73472
     RDKit          3D

 18 19  0  0  0  0  0  0  0  0999 V2000
   -1.5603    5.4029  -22.4715 C   0  0  0  0  0  0  0  0  0  0  0  0
   -1.6449    5.0275  -21.3337 C   0  0  0  0  0  0  0  0  0  0  0  0
   -1.7024    4.6164  -19.9185 C   0  0  0  0  0  0  0  0  0  0  0  0
   -2.3987    5.6359  -18.9951 C   0  0  1  0  0  0  0  0  0  0  0  0
   -1.7828    7.0297  -19.1544 C   0  0  0  0  0  0  0  0  0  0  0  0
   -3.8327    5.7385  -19.2342 N   0  0  0  0  0  0  0  0  0  0  0  0
   -4.8253    5.4180  -18.3398 C   0  0  0  0  0  0  0  0  0  0  0  0
   -5.9234    4.9417  -18.9531 N   0  0  0  0  0  0  0  0  0  0  0  0
   -7.0183    4.6467  -18.2284 C   0  0  0  0  0  0  0  0  0  0  0  0
   -8.1899    4.2642  -18.8349 C   0  0  0  0  0  0  0  0  0  0  0  0
   -9.3326    4.0027  -18.0844 C   0  0  0  0  0  0  0  0  0  0  0  0
   -9.3068    4.0400  -16.7067 C   0  0  0  0  0  0  0  0  0  0  0  0
   -8.1532    4.4013  -16.0657 C   0  0  0  0  0  0  0  0  0  0  0  0
   -7.0385    4.7260  -16.8342 C   0  0  0  0  0  0  0  0  0  0  0  0
   -5.9012    5.1712  -16.2081 C   0  0  0  0  0  0  0  0  0  0  0  0
   -4.8033    5.6105  -16.9586 C   0  0  0  0  0  0  0  0  0  0  0  0
   -3.7086    6.2783  -16.1938 C   0  0  0  0  0  0  0  0  0  0  0  0
   -4.2239    6.9103  -15.0190 O   0  0  0  0  0  0  0  0  0  0  0  0
  1  2  3  0
  2  3  1  0
  3  4  1  0
  4  5  1  6
  4  6  1  0
  6  7  1  0
  7  8  2  0
  8  9  1  0
  9 10  2  0
 10 11  1  0
 11 12  2  0
 12 13  1  0
 13 14  2  0
 14 15  1  0
 15 16  2  0
 16 17  1  0
 17 18  1  0
 16  7  1  0
 14  9  1  0
M  END
>  <energy_score>  (2090) 
-95.813891

>  <alias>  (2090) 
None

>  <HIPPO Pose ID>  (2090) 
73472

>  <smiles>  (2090) 
C#CC[C@@H](C)Nc1nc2ccccc2cc1CO

>  <inchikey>  (2090) 
VIGKSPSXKLHTMU-LLVKDONJSA-N

>  <distance_score>  (2090) 
1.916485

>  <ref_mols>  (2090) 
Z1688a,Z0089a

>  <ref_pdb>  (2090) 
Z1688a

>  <HIPPO Compound ID>  (2090) 
146473

>  <name>  (2090) 
P73472

>  <inspiration_score>  (2090) 
None

$$$$
P73473
     RDKit          3D

 18 19  0  0  0  0  0  0  0  0999 V2000
   -1.2777    5.1572  -22.0297 C   0  0  0  0  0  0  0  0  0  0  0  0
   -1.5284    4.9395  -20.8752 C   0  0  0  0  0  0  0  0  0  0  0  0
   -1.8245    4.7391  -19.4433 C   0  0  0  0  0  0  0  0  0  0  0  0
   -3.0815    5.5243  -19.0152 C   0  0  2  0  0  0  0  0  0  0  0  0
   -2.8849    7.0354  -19.2041 C   0  0  0  0  0  0  0  0  0  0  0  0
   -3.3621    5.2760  -17.5846 N   0  0  0  0  0  0  0  0  0  0  0  0
   -4.7128    5.2064  -17.2200 C   0  0  0  0  0  0  0  0  0  0  0  0
   -5.1070    5.3473  -15.8844 C   0  0  0  0  0  0  0  0  0  0  0  0
   -6.4632    5.2095  -15.5049 C   0  0  0  0  0  0  0  0  0  0  0  0
   -6.8938    5.5714  -14.1074 C   0  0  0  0  0  0  0  0  0  0  0  0
   -7.2087    4.0396  -12.9744 Br  0  0  0  0  0  0  0  0  0  0  0  0
   -7.3796    4.8213  -16.5047 C   0  0  0  0  0  0  0  0  0  0  0  0
   -8.7529    4.5581  -16.3011 C   0  0  0  0  0  0  0  0  0  0  0  0
   -9.5917    4.2768  -17.3792 C   0  0  0  0  0  0  0  0  0  0  0  0
   -9.0703    4.2352  -18.6585 C   0  0  0  0  0  0  0  0  0  0  0  0
   -7.7128    4.4106  -18.8552 C   0  0  0  0  0  0  0  0  0  0  0  0
   -6.8730    4.7138  -17.8157 C   0  0  0  0  0  0  0  0  0  0  0  0
   -5.6049    4.9180  -18.1580 N   0  0  0  0  0  0  0  0  0  0  0  0
  1  2  3  0
  2  3  1  0
  3  4  1  0
  4  5  1  1
  4  6  1  0
  6  7  1  0
  7  8  2  0
  8  9  1  0
  9 10  1  0
 10 11  1  0
  9 12  2  0
 12 13  1  0
 13 14  2  0
 14 15  1  0
 15 16  2  0
 16 17  1  0
 17 18  2  0
 18  7  1  0
 17 12  1  0
M  END
>  <energy_score>  (2091) 
-17.335745

>  <alias>  (2091) 
None

>  <HIPPO Pose ID>  (2091) 
73473

>  <smiles>  (2091) 
C#CC[C@H](C)Nc1cc(CBr)c2ccccc2n1

>  <inchikey>  (2091) 
TYADKNNPAJSECS-NSHDSACASA-N

>  <distance_score>  (2091) 
1.008719

>  <ref_mols>  (2091) 
Z1688a,Z0089a

>  <ref_pdb>  (2091) 
Z1688a

>  <HIPPO Compound ID>  (2091) 
146474

>  <name>  (2091) 
P73473

>  <inspiration_score>  (2091) 
None

$$$$
P73475
     RDKit          3D

 18 19  0  0  0  0  0  0  0  0999 V2000
   -1.5333    5.3332  -22.3800 C   0  0  0  0  0  0  0  0  0  0  0  0
   -1.6534    4.9916  -21.2347 C   0  0  0  0  0  0  0  0  0  0  0  0
   -1.7542    4.6289  -19.8084 C   0  0  0  0  0  0  0  0  0  0  0  0
   -2.4216    5.7104  -18.9332 C   0  0  1  0  0  0  0  0  0  0  0  0
   -1.6985    7.0529  -19.1027 C   0  0  0  0  0  0  0  0  0  0  0  0
   -3.8342    5.9183  -19.2473 N   0  0  0  0  0  0  0  0  0  0  0  0
   -4.8602    5.6448  -18.3680 C   0  0  0  0  0  0  0  0  0  0  0  0
   -5.8789    5.0087  -18.9703 N   0  0  0  0  0  0  0  0  0  0  0  0
   -6.9940    4.7270  -18.2744 C   0  0  0  0  0  0  0  0  0  0  0  0
   -8.0534    4.0989  -18.8739 C   0  0  0  0  0  0  0  0  0  0  0  0
   -9.1886    3.7659  -18.1394 C   0  0  0  0  0  0  0  0  0  0  0  0
   -9.2967    4.0554  -16.7950 C   0  0  0  0  0  0  0  0  0  0  0  0
   -8.2703    4.7113  -16.1734 C   0  0  0  0  0  0  0  0  0  0  0  0
   -7.1449    5.0472  -16.9236 C   0  0  0  0  0  0  0  0  0  0  0  0
   -6.1184    5.7294  -16.3237 C   0  0  0  0  0  0  0  0  0  0  0  0
   -4.9449    6.0348  -17.0321 C   0  0  0  0  0  0  0  0  0  0  0  0
   -3.9405    6.8259  -16.2748 C   0  0  0  0  0  0  0  0  0  0  0  0
   -3.3970    5.8169  -14.6955 Br  0  0  0  0  0  0  0  0  0  0  0  0
  1  2  3  0
  2  3  1  0
  3  4  1  0
  4  5  1  6
  4  6  1  0
  6  7  1  0
  7  8  2  0
  8  9  1  0
  9 10  2  0
 10 11  1  0
 11 12  2  0
 12 13  1  0
 13 14  2  0
 14 15  1  0
 15 16  2  0
 16 17  1  0
 17 18  1  0
 16  7  1  0
 14  9  1  0
M  END
>  <energy_score>  (2092) 
-15.535407

>  <alias>  (2092) 
None

>  <HIPPO Pose ID>  (2092) 
73475

>  <smiles>  (2092) 
C#CC[C@@H](C)Nc1nc2ccccc2cc1CBr

>  <inchikey>  (2092) 
PUVOSSYURYGJNP-LLVKDONJSA-N

>  <distance_score>  (2092) 
1.945131

>  <ref_mols>  (2092) 
Z1688a,Z0089a

>  <ref_pdb>  (2092) 
Z1688a

>  <HIPPO Compound ID>  (2092) 
146475

>  <name>  (2092) 
P73475

>  <inspiration_score>  (2092) 
None

$$$$
P73476
     RDKit          3D

 18 19  0  0  0  0  0  0  0  0999 V2000
   -1.5157    3.5423  -19.5907 C   0  0  0  0  0  0  0  0  0  0  0  0
   -2.0379    4.5895  -19.3334 C   0  0  0  0  0  0  0  0  0  0  0  0
   -2.5995    5.8924  -18.9667 C   0  0  1  0  0  0  0  0  0  0  0  0
   -1.9788    7.0206  -19.8013 C   0  0  0  0  0  0  0  0  0  0  0  0
   -0.5017    7.2495  -19.5012 C   0  0  0  0  0  0  0  0  0  0  0  0
   -4.0286    5.9157  -19.1946 N   0  0  0  0  0  0  0  0  0  0  0  0
   -4.9836    5.5143  -18.2947 C   0  0  0  0  0  0  0  0  0  0  0  0
   -6.0634    5.0001  -18.9076 N   0  0  0  0  0  0  0  0  0  0  0  0
   -7.1408    4.6672  -18.1793 C   0  0  0  0  0  0  0  0  0  0  0  0
   -8.2952    4.2503  -18.7896 C   0  0  0  0  0  0  0  0  0  0  0  0
   -9.4230    3.9577  -18.0341 C   0  0  0  0  0  0  0  0  0  0  0  0
   -9.3931    4.0020  -16.6570 C   0  0  0  0  0  0  0  0  0  0  0  0
   -8.2599    4.4064  -16.0111 C   0  0  0  0  0  0  0  0  0  0  0  0
   -7.1630    4.7612  -16.7809 C   0  0  0  0  0  0  0  0  0  0  0  0
   -6.0528    5.2571  -16.1500 C   0  0  0  0  0  0  0  0  0  0  0  0
   -4.9722    5.6823  -16.9147 C   0  0  0  0  0  0  0  0  0  0  0  0
   -3.9788    6.3570  -16.1694 C   0  0  0  0  0  0  0  0  0  0  0  0
   -3.2645    6.9010  -15.4379 N   0  0  0  0  0  0  0  0  0  0  0  0
  1  2  3  0
  3  2  1  6
  3  4  1  0
  4  5  1  0
  3  6  1  0
  6  7  1  0
  7  8  2  0
  8  9  1  0
  9 10  2  0
 10 11  1  0
 11 12  2  0
 12 13  1  0
 13 14  2  0
 14 15  1  0
 15 16  2  0
 16 17  1  0
 17 18  3  0
 16  7  1  0
 14  9  1  0
M  END
>  <energy_score>  (2093) 
-10.80011

>  <alias>  (2093) 
None

>  <HIPPO Pose ID>  (2093) 
73476

>  <smiles>  (2093) 
C#C[C@@H](CC)Nc1nc2ccccc2cc1C#N

>  <inchikey>  (2093) 
KQUYSTQMQLUOJV-ZDUSSCGKSA-N

>  <distance_score>  (2093) 
1.960095

>  <ref_mols>  (2093) 
Z1688a,Z0089a

>  <ref_pdb>  (2093) 
Z1688a

>  <HIPPO Compound ID>  (2093) 
146476

>  <name>  (2093) 
P73476

>  <inspiration_score>  (2093) 
None

$$$$
P73478
     RDKit          3D

 18 19  0  0  0  0  0  0  0  0999 V2000
   -1.5720    3.7475  -19.5464 C   0  0  0  0  0  0  0  0  0  0  0  0
   -2.0106    4.6462  -18.8854 C   0  0  0  0  0  0  0  0  0  0  0  0
   -2.4726    5.7729  -18.0586 C   0  0  1  0  0  0  0  0  0  0  0  0
   -1.6098    7.0041  -18.3872 C   0  0  0  0  0  0  0  0  0  0  0  0
   -1.8814    8.1772  -17.4522 C   0  0  0  0  0  0  0  0  0  0  0  0
   -3.8408    6.1049  -18.3779 N   0  0  0  0  0  0  0  0  0  0  0  0
   -4.8752    5.5862  -17.6363 C   0  0  0  0  0  0  0  0  0  0  0  0
   -5.1010    5.7668  -16.2716 C   0  0  0  0  0  0  0  0  0  0  0  0
   -6.3501    5.4060  -15.6991 C   0  0  0  0  0  0  0  0  0  0  0  0
   -6.6648    5.7875  -14.2728 C   0  0  0  0  0  0  0  0  0  0  0  0
   -6.9384    4.2763  -13.0914 Br  0  0  0  0  0  0  0  0  0  0  0  0
   -7.3262    4.8628  -16.5662 C   0  0  0  0  0  0  0  0  0  0  0  0
   -8.6540    4.5380  -16.2154 C   0  0  0  0  0  0  0  0  0  0  0  0
   -9.5707    4.1807  -17.1992 C   0  0  0  0  0  0  0  0  0  0  0  0
   -9.1707    4.1029  -18.5169 C   0  0  0  0  0  0  0  0  0  0  0  0
   -7.8543    4.3050  -18.8584 C   0  0  0  0  0  0  0  0  0  0  0  0
   -6.9522    4.7080  -17.9186 C   0  0  0  0  0  0  0  0  0  0  0  0
   -5.7744    5.0257  -18.4219 N   0  0  0  0  0  0  0  0  0  0  0  0
  1  2  3  0
  3  2  1  6
  3  4  1  0
  4  5  1  0
  3  6  1  0
  6  7  1  0
  7  8  2  0
  8  9  1  0
  9 10  1  0
 10 11  1  0
  9 12  2  0
 12 13  1  0
 13 14  2  0
 14 15  1  0
 15 16  2  0
 16 17  1  0
 17 18  2  0
 18  7  1  0
 17 12  1  0
M  END
>  <energy_score>  (2094) 
-13.708749

>  <alias>  (2094) 
None

>  <HIPPO Pose ID>  (2094) 
73478

>  <smiles>  (2094) 
C#C[C@@H](CC)Nc1cc(CBr)c2ccccc2n1

>  <inchikey>  (2094) 
BRGZVOCKMOVKNI-LBPRGKRZSA-N

>  <distance_score>  (2094) 
1.016959

>  <ref_mols>  (2094) 
Z1688a,Z0089a

>  <ref_pdb>  (2094) 
Z1688a

>  <HIPPO Compound ID>  (2094) 
146478

>  <name>  (2094) 
P73478

>  <inspiration_score>  (2094) 
None

$$$$
P73479
     RDKit          3D

 18 19  0  0  0  0  0  0  0  0999 V2000
   -1.5233    3.5003  -19.6522 C   0  0  0  0  0  0  0  0  0  0  0  0
   -2.0550    4.5297  -19.3486 C   0  0  0  0  0  0  0  0  0  0  0  0
   -2.5806    5.8076  -18.8658 C   0  0  1  0  0  0  0  0  0  0  0  0
   -1.7358    6.9806  -19.3909 C   0  0  0  0  0  0  0  0  0  0  0  0
   -1.7447    7.1494  -20.9088 C   0  0  0  0  0  0  0  0  0  0  0  0
   -3.9636    6.0306  -19.2386 N   0  0  0  0  0  0  0  0  0  0  0  0
   -4.9903    5.7510  -18.3612 C   0  0  0  0  0  0  0  0  0  0  0  0
   -5.9743    5.0503  -18.9424 N   0  0  0  0  0  0  0  0  0  0  0  0
   -7.0689    4.7433  -18.2329 C   0  0  0  0  0  0  0  0  0  0  0  0
   -8.1076    4.0738  -18.8211 C   0  0  0  0  0  0  0  0  0  0  0  0
   -9.2255    3.7156  -18.0759 C   0  0  0  0  0  0  0  0  0  0  0  0
   -9.3294    4.0201  -16.7340 C   0  0  0  0  0  0  0  0  0  0  0  0
   -8.3236    4.7173  -16.1239 C   0  0  0  0  0  0  0  0  0  0  0  0
   -7.2194    5.0849  -16.8855 C   0  0  0  0  0  0  0  0  0  0  0  0
   -6.2277    5.8366  -16.3087 C   0  0  0  0  0  0  0  0  0  0  0  0
   -5.0970    6.2055  -17.0484 C   0  0  0  0  0  0  0  0  0  0  0  0
   -4.1461    7.1158  -16.3585 C   0  0  0  0  0  0  0  0  0  0  0  0
   -3.3885    6.1784  -14.8307 Br  0  0  0  0  0  0  0  0  0  0  0  0
  1  2  3  0
  3  2  1  6
  3  4  1  0
  4  5  1  0
  3  6  1  0
  6  7  1  0
  7  8  2  0
  8  9  1  0
  9 10  2  0
 10 11  1  0
 11 12  2  0
 12 13  1  0
 13 14  2  0
 14 15  1  0
 15 16  2  0
 16 17  1  0
 17 18  1  0
 16  7  1  0
 14  9  1  0
M  END
>  <energy_score>  (2095) 
-96.044998

>  <alias>  (2095) 
None

>  <HIPPO Pose ID>  (2095) 
73479

>  <smiles>  (2095) 
C#C[C@@H](CC)Nc1nc2ccccc2cc1CBr

>  <inchikey>  (2095) 
VAIXIPKSEFQZNJ-ZDUSSCGKSA-N

>  <distance_score>  (2095) 
1.945233

>  <ref_mols>  (2095) 
Z1688a,Z0089a

>  <ref_pdb>  (2095) 
Z1688a

>  <HIPPO Compound ID>  (2095) 
146479

>  <name>  (2095) 
P73479

>  <inspiration_score>  (2095) 
None

$$$$
P73483
     RDKit          3D

 18 20  0  0  0  0  0  0  0  0999 V2000
   -3.0545    6.6396  -15.6933 N   0  0  0  0  0  0  0  0  0  0  0  0
   -3.8478    6.1787  -16.3995 C   0  0  0  0  0  0  0  0  0  0  0  0
   -4.9440    5.5998  -17.0782 C   0  0  0  0  0  0  0  0  0  0  0  0
   -6.0326    5.3051  -16.2688 C   0  0  0  0  0  0  0  0  0  0  0  0
   -7.1755    4.8110  -16.8428 C   0  0  0  0  0  0  0  0  0  0  0  0
   -8.2410    4.4869  -16.0191 C   0  0  0  0  0  0  0  0  0  0  0  0
   -9.3904    4.0369  -16.6034 C   0  0  0  0  0  0  0  0  0  0  0  0
   -9.4847    3.9558  -17.9763 C   0  0  0  0  0  0  0  0  0  0  0  0
   -8.3923    4.2356  -18.7873 C   0  0  0  0  0  0  0  0  0  0  0  0
   -7.2075    4.6542  -18.2371 C   0  0  0  0  0  0  0  0  0  0  0  0
   -6.1399    4.8979  -19.0134 N   0  0  0  0  0  0  0  0  0  0  0  0
   -5.0087    5.3389  -18.4418 C   0  0  0  0  0  0  0  0  0  0  0  0
   -3.9588    5.4972  -19.3520 N   0  0  0  0  0  0  0  0  0  0  0  0
   -2.5805    5.2099  -19.0773 C   0  0  1  0  0  0  0  0  0  0  0  0
   -1.8153    4.6901  -20.3104 C   0  0  0  0  0  0  0  0  0  0  0  0
   -0.6689    5.6476  -19.9314 C   0  0  0  0  0  0  0  0  0  0  0  0
   -1.7048    6.4988  -19.1649 C   0  0  1  0  0  0  0  0  0  0  0  0
   -2.2785    7.6069  -19.8979 O   0  0  0  0  0  0  0  0  0  0  0  0
  1  2  3  0
  2  3  1  0
  3  4  2  0
  4  5  1  0
  5  6  2  0
  6  7  1  0
  7  8  2  0
  8  9  1  0
  9 10  2  0
 10 11  1  0
 11 12  2  0
 12 13  1  0
 14 13  1  6
 14 15  1  0
 15 16  1  0
 16 17  1  0
 17 18  1  6
 12  3  1  0
 17 14  1  0
 10  5  1  0
M  END
>  <energy_score>  (2096) 
-30.108502

>  <alias>  (2096) 
None

>  <HIPPO Pose ID>  (2096) 
73483

>  <smiles>  (2096) 
N#Cc1cc2ccccc2nc1N[C@H]1CC[C@H]1O

>  <inchikey>  (2096) 
DZWHPMMZMQRDQG-QWHCGFSZSA-N

>  <distance_score>  (2096) 
1.953644

>  <ref_mols>  (2096) 
Z1688a,Z0089a

>  <ref_pdb>  (2096) 
Z1688a

>  <HIPPO Compound ID>  (2096) 
146481

>  <name>  (2096) 
P73483

>  <inspiration_score>  (2096) 
None

$$$$
P73485
     RDKit          3D

 18 20  0  0  0  0  0  0  0  0999 V2000
   -4.0406    6.8351  -15.1528 O   0  0  0  0  0  0  0  0  0  0  0  0
   -3.7035    6.3563  -16.4568 C   0  0  0  0  0  0  0  0  0  0  0  0
   -4.8748    5.6853  -17.0883 C   0  0  0  0  0  0  0  0  0  0  0  0
   -5.9536    5.3252  -16.2816 C   0  0  0  0  0  0  0  0  0  0  0  0
   -7.1000    4.8184  -16.8463 C   0  0  0  0  0  0  0  0  0  0  0  0
   -8.1678    4.4902  -16.0212 C   0  0  0  0  0  0  0  0  0  0  0  0
   -9.3240    4.0416  -16.5984 C   0  0  0  0  0  0  0  0  0  0  0  0
   -9.4158    3.9498  -17.9713 C   0  0  0  0  0  0  0  0  0  0  0  0
   -8.3224    4.2341  -18.7822 C   0  0  0  0  0  0  0  0  0  0  0  0
   -7.1375    4.6663  -18.2372 C   0  0  0  0  0  0  0  0  0  0  0  0
   -6.0787    4.9270  -19.0182 N   0  0  0  0  0  0  0  0  0  0  0  0
   -4.9613    5.4100  -18.4510 C   0  0  0  0  0  0  0  0  0  0  0  0
   -3.9208    5.6071  -19.3688 N   0  0  0  0  0  0  0  0  0  0  0  0
   -2.5703    5.1726  -19.1668 C   0  0  1  0  0  0  0  0  0  0  0  0
   -1.8892    4.7557  -20.4880 C   0  0  0  0  0  0  0  0  0  0  0  0
   -0.6374    5.5191  -20.0275 C   0  0  0  0  0  0  0  0  0  0  0  0
   -1.5493    6.3542  -19.1008 C   0  0  2  0  0  0  0  0  0  0  0  0
   -0.9890    6.6734  -17.8071 O   0  0  0  0  0  0  0  0  0  0  0  0
  1  2  1  0
  2  3  1  0
  3  4  2  0
  4  5  1  0
  5  6  2  0
  6  7  1  0
  7  8  2  0
  8  9  1  0
  9 10  2  0
 10 11  1  0
 11 12  2  0
 12 13  1  0
 14 13  1  6
 14 15  1  0
 15 16  1  0
 16 17  1  0
 17 18  1  1
 12  3  1  0
 17 14  1  0
 10  5  1  0
M  END
>  <energy_score>  (2097) 
-28.502251

>  <alias>  (2097) 
None

>  <HIPPO Pose ID>  (2097) 
73485

>  <smiles>  (2097) 
OCc1cc2ccccc2nc1N[C@H]1CC[C@@H]1O

>  <inchikey>  (2097) 
ZAFDEHNEODDLMV-STQMWFEESA-N

>  <distance_score>  (2097) 
1.916645

>  <ref_mols>  (2097) 
Z1688a,Z0089a

>  <ref_pdb>  (2097) 
Z1688a

>  <HIPPO Compound ID>  (2097) 
146482

>  <name>  (2097) 
P73485

>  <inspiration_score>  (2097) 
None

$$$$
P73488
     RDKit          3D

 18 20  0  0  0  0  0  0  0  0999 V2000
   -1.9143    7.5979  -18.5946 O   0  0  0  0  0  0  0  0  0  0  0  0
   -2.4303    6.6865  -19.6018 C   0  0  1  0  0  0  0  0  0  0  0  0
   -1.3840    5.8140  -20.3395 C   0  0  0  0  0  0  0  0  0  0  0  0
   -1.6436    4.7242  -19.2767 C   0  0  0  0  0  0  0  0  0  0  0  0
   -3.0396    5.3519  -19.0738 C   0  0  1  0  0  0  0  0  0  0  0  0
   -3.4143    5.4496  -17.6799 N   0  0  0  0  0  0  0  0  0  0  0  0
   -4.7523    5.2768  -17.2699 C   0  0  0  0  0  0  0  0  0  0  0  0
   -5.1375    5.4700  -15.9400 C   0  0  0  0  0  0  0  0  0  0  0  0
   -6.4813    5.2754  -15.5417 C   0  0  0  0  0  0  0  0  0  0  0  0
   -6.9117    5.6486  -14.1466 C   0  0  0  0  0  0  0  0  0  0  0  0
   -7.2068    4.1227  -12.9975 Br  0  0  0  0  0  0  0  0  0  0  0  0
   -7.3937    4.8334  -16.5259 C   0  0  0  0  0  0  0  0  0  0  0  0
   -8.7630    4.5611  -16.3116 C   0  0  0  0  0  0  0  0  0  0  0  0
   -9.6048    4.2630  -17.3826 C   0  0  0  0  0  0  0  0  0  0  0  0
   -9.0880    4.2067  -18.6633 C   0  0  0  0  0  0  0  0  0  0  0  0
   -7.7320    4.3723  -18.8700 C   0  0  0  0  0  0  0  0  0  0  0  0
   -6.8920    4.6941  -17.8374 C   0  0  0  0  0  0  0  0  0  0  0  0
   -5.6299    4.9001  -18.1893 N   0  0  0  0  0  0  0  0  0  0  0  0
  2  1  1  1
  2  3  1  0
  3  4  1  0
  4  5  1  0
  5  6  1  1
  6  7  1  0
  7  8  2  0
  8  9  1  0
  9 10  1  0
 10 11  1  0
  9 12  2  0
 12 13  1  0
 13 14  2  0
 14 15  1  0
 15 16  2  0
 16 17  1  0
 17 18  2  0
  5  2  1  0
 18  7  1  0
 17 12  1  0
M  END
>  <energy_score>  (2098) 
-32.948464

>  <alias>  (2098) 
None

>  <HIPPO Pose ID>  (2098) 
73488

>  <smiles>  (2098) 
O[C@H]1CC[C@H]1Nc1cc(CBr)c2ccccc2n1

>  <inchikey>  (2098) 
ZQDHBTKSSGQZJF-OLZOCXBDSA-N

>  <distance_score>  (2098) 
0.987953

>  <ref_mols>  (2098) 
Z1688a,Z0089a

>  <ref_pdb>  (2098) 
Z1688a

>  <HIPPO Compound ID>  (2098) 
146483

>  <name>  (2098) 
P73488

>  <inspiration_score>  (2098) 
None

$$$$
P73490
     RDKit          3D

 18 20  0  0  0  0  0  0  0  0999 V2000
   -2.0482    7.5768  -19.9562 O   0  0  0  0  0  0  0  0  0  0  0  0
   -1.5605    6.4391  -19.2081 C   0  0  2  0  0  0  0  0  0  0  0  0
   -0.6289    5.4730  -19.9598 C   0  0  0  0  0  0  0  0  0  0  0  0
   -1.8426    4.5674  -20.2237 C   0  0  0  0  0  0  0  0  0  0  0  0
   -2.5611    5.2515  -19.0416 C   0  0  2  0  0  0  0  0  0  0  0  0
   -3.9044    5.6610  -19.3680 N   0  0  0  0  0  0  0  0  0  0  0  0
   -4.9845    5.5540  -18.4824 C   0  0  0  0  0  0  0  0  0  0  0  0
   -6.0447    4.9479  -19.0355 N   0  0  0  0  0  0  0  0  0  0  0  0
   -7.1264    4.7161  -18.2789 C   0  0  0  0  0  0  0  0  0  0  0  0
   -8.2243    4.0929  -18.8115 C   0  0  0  0  0  0  0  0  0  0  0  0
   -9.3112    3.7697  -18.0069 C   0  0  0  0  0  0  0  0  0  0  0  0
   -9.3193    4.0621  -16.6586 C   0  0  0  0  0  0  0  0  0  0  0  0
   -8.2669    4.7411  -16.1086 C   0  0  0  0  0  0  0  0  0  0  0  0
   -7.1939    5.0725  -16.9281 C   0  0  0  0  0  0  0  0  0  0  0  0
   -6.1374    5.7725  -16.3993 C   0  0  0  0  0  0  0  0  0  0  0  0
   -4.9976    6.0220  -17.1714 C   0  0  0  0  0  0  0  0  0  0  0  0
   -3.9129    6.8000  -16.5203 C   0  0  0  0  0  0  0  0  0  0  0  0
   -3.2835    5.8161  -14.9632 Br  0  0  0  0  0  0  0  0  0  0  0  0
  2  1  1  6
  2  3  1  0
  3  4  1  0
  4  5  1  0
  5  6  1  6
  6  7  1  0
  7  8  2  0
  8  9  1  0
  9 10  2  0
 10 11  1  0
 11 12  2  0
 12 13  1  0
 13 14  2  0
 14 15  1  0
 15 16  2  0
 16 17  1  0
 17 18  1  0
  5  2  1  0
 16  7  1  0
 14  9  1  0
M  END
>  <energy_score>  (2099) 
-43.454617

>  <alias>  (2099) 
None

>  <HIPPO Pose ID>  (2099) 
73490

>  <smiles>  (2099) 
O[C@@H]1CC[C@@H]1Nc1nc2ccccc2cc1CBr

>  <inchikey>  (2099) 
JLUADLBMQFCQPV-QWHCGFSZSA-N

>  <distance_score>  (2099) 
1.931151

>  <ref_mols>  (2099) 
Z1688a,Z0089a

>  <ref_pdb>  (2099) 
Z1688a

>  <HIPPO Compound ID>  (2099) 
146484

>  <name>  (2099) 
P73490

>  <inspiration_score>  (2099) 
None

$$$$
P73494
     RDKit          3D

 18 20  0  0  0  0  0  0  0  0999 V2000
   -7.8796    5.1681  -13.5057 O   0  0  0  0  0  0  0  0  0  0  0  0
   -6.7627    5.1642  -14.0041 C   0  0  0  0  0  0  0  0  0  0  0  0
   -6.4364    5.0729  -15.4619 C   0  0  0  0  0  0  0  0  0  0  0  0
   -5.1059    5.3541  -15.8249 C   0  0  0  0  0  0  0  0  0  0  0  0
   -4.7294    5.3243  -17.1646 C   0  0  0  0  0  0  0  0  0  0  0  0
   -3.4264    5.6859  -17.5411 N   0  0  0  0  0  0  0  0  0  0  0  0
   -3.0343    5.9452  -18.9001 C   0  0  2  0  0  0  0  0  0  0  0  0
   -2.3454    4.7568  -19.6029 C   0  0  0  0  0  0  0  0  0  0  0  0
   -1.3241    5.7625  -20.1678 C   0  0  0  0  0  0  0  0  0  0  0  0
   -1.6614    6.6842  -18.9759 C   0  0  1  0  0  0  0  0  0  0  0  0
   -1.6964    8.0981  -19.2532 O   0  0  0  0  0  0  0  0  0  0  0  0
   -5.6042    5.0306  -18.1153 N   0  0  0  0  0  0  0  0  0  0  0  0
   -6.8636    4.7481  -17.7822 C   0  0  0  0  0  0  0  0  0  0  0  0
   -7.6943    4.4642  -18.8355 C   0  0  0  0  0  0  0  0  0  0  0  0
   -9.0476    4.2402  -18.6503 C   0  0  0  0  0  0  0  0  0  0  0  0
   -9.5715    4.2100  -17.3714 C   0  0  0  0  0  0  0  0  0  0  0  0
   -8.7368    4.4398  -16.2782 C   0  0  0  0  0  0  0  0  0  0  0  0
   -7.3691    4.7504  -16.4652 C   0  0  0  0  0  0  0  0  0  0  0  0
  1  2  2  0
  2  3  1  0
  3  4  2  0
  4  5  1  0
  5  6  1  0
  7  6  1  1
  7  8  1  0
  8  9  1  0
  9 10  1  0
 10 11  1  6
  5 12  2  0
 12 13  1  0
 13 14  2  0
 14 15  1  0
 15 16  2  0
 16 17  1  0
 17 18  2  0
 18  3  1  0
 10  7  1  0
 18 13  1  0
M  END
>  <energy_score>  (2100) 
-14.192824

>  <alias>  (2100) 
None

>  <HIPPO Pose ID>  (2100) 
73494

>  <smiles>  (2100) 
O=Cc1cc(N[C@@H]2CC[C@H]2O)nc2ccccc12

>  <inchikey>  (2100) 
GISCNCMJCABXJB-CHWSQXEVSA-N

>  <distance_score>  (2100) 
1.090891

>  <ref_mols>  (2100) 
Z1688a,Z0089a

>  <ref_pdb>  (2100) 
Z1688a

>  <HIPPO Compound ID>  (2100) 
146485

>  <name>  (2100) 
P73494

>  <inspiration_score>  (2100) 
None

$$$$
P73499
     RDKit          3D

 18 19  0  0  0  0  0  0  0  0999 V2000
   -0.9763    4.3240  -19.5229 C   0  0  0  0  0  0  0  0  0  0  0  0
   -2.4576    4.6186  -19.5346 C   0  0  0  0  0  0  0  0  0  0  0  0
   -2.7725    6.0602  -19.1613 C   0  0  1  0  0  0  0  0  0  0  0  0
   -2.0864    7.0260  -20.0519 C   0  0  0  0  0  0  0  0  0  0  0  0
   -1.5280    7.7858  -20.7316 N   0  0  0  0  0  0  0  0  0  0  0  0
   -4.2092    6.3085  -19.2020 N   0  0  0  0  0  0  0  0  0  0  0  0
   -5.0751    5.7357  -18.2980 C   0  0  0  0  0  0  0  0  0  0  0  0
   -6.1337    5.1836  -18.9078 N   0  0  0  0  0  0  0  0  0  0  0  0
   -7.1541    4.7354  -18.1646 C   0  0  0  0  0  0  0  0  0  0  0  0
   -8.3347    4.3428  -18.7482 C   0  0  0  0  0  0  0  0  0  0  0  0
   -9.4343    4.0064  -17.9688 C   0  0  0  0  0  0  0  0  0  0  0  0
   -9.3375    3.9644  -16.5946 C   0  0  0  0  0  0  0  0  0  0  0  0
   -8.1572    4.2855  -15.9807 C   0  0  0  0  0  0  0  0  0  0  0  0
   -7.0914    4.6962  -16.7703 C   0  0  0  0  0  0  0  0  0  0  0  0
   -5.9413    5.1412  -16.1606 C   0  0  0  0  0  0  0  0  0  0  0  0
   -4.9596    5.7901  -16.9119 C   0  0  0  0  0  0  0  0  0  0  0  0
   -3.8845    6.5375  -16.2011 C   0  0  0  0  0  0  0  0  0  0  0  0
   -4.5739    7.4818  -14.6363 Br  0  0  0  0  0  0  0  0  0  0  0  0
  1  2  1  0
  3  2  1  6
  3  4  1  0
  4  5  3  0
  3  6  1  0
  6  7  1  0
  7  8  2  0
  8  9  1  0
  9 10  2  0
 10 11  1  0
 11 12  2  0
 12 13  1  0
 13 14  2  0
 14 15  1  0
 15 16  2  0
 16 17  1  0
 17 18  1  0
 16  7  1  0
 14  9  1  0
M  END
>  <energy_score>  (2101) 
-27.556143

>  <alias>  (2101) 
None

>  <HIPPO Pose ID>  (2101) 
73499

>  <smiles>  (2101) 
CC[C@@H](C#N)Nc1nc2ccccc2cc1CBr

>  <inchikey>  (2101) 
RDIYFJUJRUJUQM-LBPRGKRZSA-N

>  <distance_score>  (2101) 
1.962015

>  <ref_mols>  (2101) 
Z1688a,Z0089a

>  <ref_pdb>  (2101) 
Z1688a

>  <HIPPO Compound ID>  (2101) 
146487

>  <name>  (2101) 
P73499

>  <inspiration_score>  (2101) 
None

$$$$
P73502
     RDKit          3D

 18 19  0  0  0  0  0  0  0  0999 V2000
   -0.8248    4.5392  -19.3912 C   0  0  0  0  0  0  0  0  0  0  0  0
   -2.3270    4.6874  -19.4690 C   0  0  0  0  0  0  0  0  0  0  0  0
   -2.7957    6.0983  -19.1277 C   0  0  1  0  0  0  0  0  0  0  0  0
   -2.1886    7.1059  -20.0300 C   0  0  0  0  0  0  0  0  0  0  0  0
   -1.7051    7.8943  -20.7342 N   0  0  0  0  0  0  0  0  0  0  0  0
   -4.2466    6.1745  -19.2293 N   0  0  0  0  0  0  0  0  0  0  0  0
   -5.1196    5.6497  -18.3114 C   0  0  0  0  0  0  0  0  0  0  0  0
   -6.1942    5.1139  -18.9085 N   0  0  0  0  0  0  0  0  0  0  0  0
   -7.2300    4.7133  -18.1590 C   0  0  0  0  0  0  0  0  0  0  0  0
   -8.3982    4.3028  -18.7484 C   0  0  0  0  0  0  0  0  0  0  0  0
   -9.4982    3.9765  -17.9691 C   0  0  0  0  0  0  0  0  0  0  0  0
   -9.4152    3.9714  -16.5934 C   0  0  0  0  0  0  0  0  0  0  0  0
   -8.2609    4.3485  -15.9681 C   0  0  0  0  0  0  0  0  0  0  0  0
   -7.1957    4.7437  -16.7579 C   0  0  0  0  0  0  0  0  0  0  0  0
   -6.0672    5.2224  -16.1438 C   0  0  0  0  0  0  0  0  0  0  0  0
   -5.0350    5.7213  -16.9271 C   0  0  0  0  0  0  0  0  0  0  0  0
   -4.0100    6.3636  -16.1972 C   0  0  0  0  0  0  0  0  0  0  0  0
   -3.2442    6.8598  -15.4854 N   0  0  0  0  0  0  0  0  0  0  0  0
  1  2  1  0
  3  2  1  6
  3  4  1  0
  4  5  3  0
  3  6  1  0
  6  7  1  0
  7  8  2  0
  8  9  1  0
  9 10  2  0
 10 11  1  0
 11 12  2  0
 12 13  1  0
 13 14  2  0
 14 15  1  0
 15 16  2  0
 16 17  1  0
 17 18  3  0
 16  7  1  0
 14  9  1  0
M  END
>  <energy_score>  (2102) 
-6.444021

>  <alias>  (2102) 
None

>  <HIPPO Pose ID>  (2102) 
73502

>  <smiles>  (2102) 
CC[C@@H](C#N)Nc1nc2ccccc2cc1C#N

>  <inchikey>  (2102) 
USIAVAFCPVGEBR-LBPRGKRZSA-N

>  <distance_score>  (2102) 
1.979644

>  <ref_mols>  (2102) 
Z1688a,Z0089a

>  <ref_pdb>  (2102) 
Z1688a

>  <HIPPO Compound ID>  (2102) 
146489

>  <name>  (2102) 
P73502

>  <inspiration_score>  (2102) 
None

$$$$
P73506
     RDKit          3D

 18 20  0  0  0  0  0  0  0  0999 V2000
   -1.7225    3.4969  -19.4402 N   0  0  0  0  0  0  0  0  0  0  0  0
   -2.0289    4.4908  -18.9258 C   0  0  0  0  0  0  0  0  0  0  0  0
   -2.3917    5.7440  -18.2837 C   0  0  0  0  0  0  0  0  0  0  0  0
   -3.8039    6.1484  -18.4183 N   0  0  0  0  0  0  0  0  0  0  0  0
   -4.8261    5.5905  -17.6529 C   0  0  0  0  0  0  0  0  0  0  0  0
   -4.9502    5.6356  -16.2708 C   0  0  0  0  0  0  0  0  0  0  0  0
   -6.1722    5.2401  -15.6743 C   0  0  0  0  0  0  0  0  0  0  0  0
   -6.2948    5.3778  -14.1853 C   0  0  0  0  0  0  0  0  0  0  0  0
   -7.3072    5.2185  -13.5169 O   0  0  0  0  0  0  0  0  0  0  0  0
   -7.2303    4.7993  -16.4935 C   0  0  0  0  0  0  0  0  0  0  0  0
   -8.5273    4.4250  -16.0813 C   0  0  0  0  0  0  0  0  0  0  0  0
   -9.4977    4.1154  -17.0270 C   0  0  0  0  0  0  0  0  0  0  0  0
   -9.1890    4.1226  -18.3701 C   0  0  0  0  0  0  0  0  0  0  0  0
   -7.9025    4.3889  -18.7776 C   0  0  0  0  0  0  0  0  0  0  0  0
   -6.9476    4.7599  -17.8724 C   0  0  0  0  0  0  0  0  0  0  0  0
   -5.7976    5.1247  -18.4188 N   0  0  0  0  0  0  0  0  0  0  0  0
   -1.3785    6.8629  -18.4770 C   0  0  0  0  0  0  0  0  0  0  0  0
   -1.5511    6.2394  -17.1273 C   0  0  0  0  0  0  0  0  0  0  0  0
  1  2  3  0
  2  3  1  0
  3  4  1  0
  4  5  1  0
  5  6  2  0
  6  7  1  0
  7  8  1  0
  8  9  2  0
  7 10  2  0
 10 11  1  0
 11 12  2  0
 12 13  1  0
 13 14  2  0
 14 15  1  0
 15 16  2  0
  3 17  1  0
 17 18  1  0
 18  3  1  0
 16  5  1  0
 15 10  1  0
M  END
>  <energy_score>  (2103) 
-14.253924

>  <alias>  (2103) 
None

>  <HIPPO Pose ID>  (2103) 
73506

>  <smiles>  (2103) 
N#CC1(Nc2cc(C=O)c3ccccc3n2)CC1

>  <inchikey>  (2103) 
IIFLSQWLNNMBJQ-UHFFFAOYSA-N

>  <distance_score>  (2103) 
1.146989

>  <ref_mols>  (2103) 
Z1688a,Z0089a

>  <ref_pdb>  (2103) 
Z1688a

>  <HIPPO Compound ID>  (2103) 
146495

>  <name>  (2103) 
P73506

>  <inspiration_score>  (2103) 
None

$$$$
P73508
     RDKit          3D

 18 20  0  0  0  0  0  0  0  0999 V2000
   -3.0746    6.6864  -15.6959 N   0  0  0  0  0  0  0  0  0  0  0  0
   -3.8410    6.1931  -16.4104 C   0  0  0  0  0  0  0  0  0  0  0  0
   -4.9314    5.5954  -17.0826 C   0  0  0  0  0  0  0  0  0  0  0  0
   -6.0102    5.2780  -16.2676 C   0  0  0  0  0  0  0  0  0  0  0  0
   -7.1603    4.7953  -16.8389 C   0  0  0  0  0  0  0  0  0  0  0  0
   -8.2226    4.4658  -16.0125 C   0  0  0  0  0  0  0  0  0  0  0  0
   -9.3807    4.0332  -16.5942 C   0  0  0  0  0  0  0  0  0  0  0  0
   -9.4847    3.9672  -17.9674 C   0  0  0  0  0  0  0  0  0  0  0  0
   -8.3952    4.2502  -18.7813 C   0  0  0  0  0  0  0  0  0  0  0  0
   -7.2050    4.6603  -18.2348 C   0  0  0  0  0  0  0  0  0  0  0  0
   -6.1461    4.9215  -19.0168 N   0  0  0  0  0  0  0  0  0  0  0  0
   -5.0119    5.3643  -18.4493 C   0  0  0  0  0  0  0  0  0  0  0  0
   -3.9752    5.5598  -19.3673 N   0  0  0  0  0  0  0  0  0  0  0  0
   -2.6094    5.2025  -19.1441 C   0  0  1  0  0  0  0  0  0  0  0  0
   -1.9036    4.7425  -20.4347 C   0  0  0  0  0  0  0  0  0  0  0  0
   -0.7060    5.6269  -20.0355 C   0  0  2  0  0  0  0  0  0  0  0  0
    0.3714    4.9532  -19.3599 O   0  0  0  0  0  0  0  0  0  0  0  0
   -1.6747    6.4298  -19.1409 C   0  0  0  0  0  0  0  0  0  0  0  0
  1  2  3  0
  2  3  1  0
  3  4  2  0
  4  5  1  0
  5  6  2  0
  6  7  1  0
  7  8  2  0
  8  9  1  0
  9 10  2  0
 10 11  1  0
 11 12  2  0
 12 13  1  0
 14 13  1  6
 14 15  1  0
 15 16  1  0
 16 17  1  1
 16 18  1  0
 12  3  1  0
 18 14  1  0
 10  5  1  0
M  END
>  <energy_score>  (2104) 
-14.990444

>  <alias>  (2104) 
None

>  <HIPPO Pose ID>  (2104) 
73508

>  <smiles>  (2104) 
N#Cc1cc2ccccc2nc1N[C@H]1C[C@H](O)C1

>  <inchikey>  (2104) 
GIQWIWBZTLQRHR-HAQNSBGRSA-N

>  <distance_score>  (2104) 
1.957685

>  <ref_mols>  (2104) 
Z1688a,Z0089a

>  <ref_pdb>  (2104) 
Z1688a

>  <HIPPO Compound ID>  (2104) 
146496

>  <name>  (2104) 
P73508

>  <inspiration_score>  (2104) 
None

$$$$
P73509
     RDKit          3D

 18 20  0  0  0  0  0  0  0  0999 V2000
   -3.9733    6.7414  -15.1790 O   0  0  0  0  0  0  0  0  0  0  0  0
   -3.6676    6.2858  -16.4985 C   0  0  0  0  0  0  0  0  0  0  0  0
   -4.8601    5.6469  -17.1241 C   0  0  0  0  0  0  0  0  0  0  0  0
   -5.9340    5.2962  -16.3054 C   0  0  0  0  0  0  0  0  0  0  0  0
   -7.0954    4.8071  -16.8561 C   0  0  0  0  0  0  0  0  0  0  0  0
   -8.1538    4.4816  -16.0180 C   0  0  0  0  0  0  0  0  0  0  0  0
   -9.3225    4.0463  -16.5810 C   0  0  0  0  0  0  0  0  0  0  0  0
   -9.4377    3.9663  -17.9529 C   0  0  0  0  0  0  0  0  0  0  0  0
   -8.3535    4.2480  -18.7770 C   0  0  0  0  0  0  0  0  0  0  0  0
   -7.1563    4.6659  -18.2465 C   0  0  0  0  0  0  0  0  0  0  0  0
   -6.1076    4.9249  -19.0408 N   0  0  0  0  0  0  0  0  0  0  0  0
   -4.9730    5.3846  -18.4879 C   0  0  0  0  0  0  0  0  0  0  0  0
   -3.9517    5.5786  -19.4271 N   0  0  0  0  0  0  0  0  0  0  0  0
   -2.5858    5.2022  -19.2473 C   0  0  1  0  0  0  0  0  0  0  0  0
   -1.8835    4.8759  -20.5806 C   0  0  0  0  0  0  0  0  0  0  0  0
   -0.6944    5.7456  -20.1191 C   0  0  1  0  0  0  0  0  0  0  0  0
   -0.0976    6.6049  -21.1097 O   0  0  0  0  0  0  0  0  0  0  0  0
   -1.6603    6.4328  -19.1327 C   0  0  0  0  0  0  0  0  0  0  0  0
  1  2  1  0
  2  3  1  0
  3  4  2  0
  4  5  1  0
  5  6  2  0
  6  7  1  0
  7  8  2  0
  8  9  1  0
  9 10  2  0
 10 11  1  0
 11 12  2  0
 12 13  1  0
 14 13  1  6
 14 15  1  0
 15 16  1  0
 16 17  1  6
 16 18  1  0
 12  3  1  0
 18 14  1  0
 10  5  1  0
M  END
>  <energy_score>  (2105) 
-27.995165

>  <alias>  (2105) 
None

>  <HIPPO Pose ID>  (2105) 
73509

>  <smiles>  (2105) 
OCc1cc2ccccc2nc1N[C@H]1C[C@@H](O)C1

>  <inchikey>  (2105) 
GXGHNIJKRSQJHY-TXEJJXNPSA-N

>  <distance_score>  (2105) 
1.91751

>  <ref_mols>  (2105) 
Z1688a,Z0089a

>  <ref_pdb>  (2105) 
Z1688a

>  <HIPPO Compound ID>  (2105) 
146497

>  <name>  (2105) 
P73509

>  <inspiration_score>  (2105) 
None

$$$$
P73516
     RDKit          3D

 18 19  0  0  0  0  0  0  0  0999 V2000
    0.7981    5.6740  -19.1286 C   0  0  0  0  0  0  0  0  0  0  0  0
   -0.3842    5.5741  -18.5099 C   0  0  0  0  0  0  0  0  0  0  0  0
   -1.5954    4.8706  -19.0729 C   0  0  0  0  0  0  0  0  0  0  0  0
   -2.6511    5.7979  -19.7095 C   0  0  2  0  0  0  0  0  0  0  0  0
   -2.5327    7.2952  -19.4526 C   0  0  0  0  0  0  0  0  0  0  0  0
   -3.9991    5.3113  -19.5124 N   0  0  0  0  0  0  0  0  0  0  0  0
   -4.9400    5.3102  -18.5430 C   0  0  0  0  0  0  0  0  0  0  0  0
   -6.0946    4.8456  -19.0582 N   0  0  0  0  0  0  0  0  0  0  0  0
   -7.1646    4.6615  -18.2745 C   0  0  0  0  0  0  0  0  0  0  0  0
   -8.3372    4.1656  -18.7886 C   0  0  0  0  0  0  0  0  0  0  0  0
   -9.4150    3.8918  -17.9541 C   0  0  0  0  0  0  0  0  0  0  0  0
   -9.3274    4.0927  -16.5924 C   0  0  0  0  0  0  0  0  0  0  0  0
   -8.2005    4.6558  -16.0593 C   0  0  0  0  0  0  0  0  0  0  0  0
   -7.1406    4.9421  -16.9111 C   0  0  0  0  0  0  0  0  0  0  0  0
   -5.9951    5.4974  -16.3998 C   0  0  0  0  0  0  0  0  0  0  0  0
   -4.8528    5.6604  -17.2002 C   0  0  0  0  0  0  0  0  0  0  0  0
   -3.6647    6.2369  -16.5106 C   0  0  0  0  0  0  0  0  0  0  0  0
   -3.6793    5.9352  -15.1116 O   0  0  0  0  0  0  0  0  0  0  0  0
  1  2  2  0
  2  3  1  0
  3  4  1  0
  4  5  1  1
  4  6  1  0
  6  7  1  0
  7  8  2  0
  8  9  1  0
  9 10  2  0
 10 11  1  0
 11 12  2  0
 12 13  1  0
 13 14  2  0
 14 15  1  0
 15 16  2  0
 16 17  1  0
 17 18  1  0
 16  7  1  0
 14  9  1  0
M  END
>  <energy_score>  (2106) 
-7.69149

>  <alias>  (2106) 
None

>  <HIPPO Pose ID>  (2106) 
73516

>  <smiles>  (2106) 
C=CC[C@H](C)Nc1nc2ccccc2cc1CO

>  <inchikey>  (2106) 
YLYMYAXKSLMOJJ-NSHDSACASA-N

>  <distance_score>  (2106) 
1.801967

>  <ref_mols>  (2106) 
Z1688a,Z0089a

>  <ref_pdb>  (2106) 
Z1688a

>  <HIPPO Compound ID>  (2106) 
146502

>  <name>  (2106) 
P73516

>  <inspiration_score>  (2106) 
None

$$$$
P73520
     RDKit          3D

 18 19  0  0  0  0  0  0  0  0999 V2000
   -0.8539    5.7352  -22.3482 C   0  0  0  0  0  0  0  0  0  0  0  0
   -1.9769    5.5542  -21.6427 C   0  0  0  0  0  0  0  0  0  0  0  0
   -2.0828    4.7282  -20.3810 C   0  0  0  0  0  0  0  0  0  0  0  0
   -2.5434    5.5048  -19.1249 C   0  0  1  0  0  0  0  0  0  0  0  0
   -1.6100    6.7032  -18.9161 C   0  0  0  0  0  0  0  0  0  0  0  0
   -3.9286    5.9833  -19.2605 N   0  0  0  0  0  0  0  0  0  0  0  0
   -4.9031    5.5360  -18.3735 C   0  0  0  0  0  0  0  0  0  0  0  0
   -5.9821    5.0232  -18.9886 N   0  0  0  0  0  0  0  0  0  0  0  0
   -7.0485    4.6671  -18.2487 C   0  0  0  0  0  0  0  0  0  0  0  0
   -8.2332    4.2887  -18.8348 C   0  0  0  0  0  0  0  0  0  0  0  0
   -9.3592    4.0088  -18.0648 C   0  0  0  0  0  0  0  0  0  0  0  0
   -9.2987    4.0091  -16.6881 C   0  0  0  0  0  0  0  0  0  0  0  0
   -8.1244    4.3372  -16.0674 C   0  0  0  0  0  0  0  0  0  0  0  0
   -7.0298    4.6906  -16.8521 C   0  0  0  0  0  0  0  0  0  0  0  0
   -5.8842    5.1291  -16.2331 C   0  0  0  0  0  0  0  0  0  0  0  0
   -4.8468    5.6812  -16.9869 C   0  0  0  0  0  0  0  0  0  0  0  0
   -3.7598    6.4387  -16.3090 C   0  0  0  0  0  0  0  0  0  0  0  0
   -4.3430    7.3032  -14.6551 Br  0  0  0  0  0  0  0  0  0  0  0  0
  1  2  2  0
  2  3  1  0
  3  4  1  0
  4  5  1  6
  4  6  1  0
  6  7  1  0
  7  8  2  0
  8  9  1  0
  9 10  2  0
 10 11  1  0
 11 12  2  0
 12 13  1  0
 13 14  2  0
 14 15  1  0
 15 16  2  0
 16 17  1  0
 17 18  1  0
 16  7  1  0
 14  9  1  0
M  END
>  <energy_score>  (2107) 
-14.67002

>  <alias>  (2107) 
None

>  <HIPPO Pose ID>  (2107) 
73520

>  <smiles>  (2107) 
C=CC[C@@H](C)Nc1nc2ccccc2cc1CBr

>  <inchikey>  (2107) 
ALHBGEZIWQNUEG-LLVKDONJSA-N

>  <distance_score>  (2107) 
1.944674

>  <ref_mols>  (2107) 
Z1688a,Z0089a

>  <ref_pdb>  (2107) 
Z1688a

>  <HIPPO Compound ID>  (2107) 
146504

>  <name>  (2107) 
P73520

>  <inspiration_score>  (2107) 
None

$$$$
P73522
     RDKit          3D

 18 19  0  0  0  0  0  0  0  0999 V2000
   -1.4833    3.2584  -19.5501 C   0  0  0  0  0  0  0  0  0  0  0  0
   -1.7525    4.3767  -20.2233 C   0  0  0  0  0  0  0  0  0  0  0  0
   -2.8952    5.2494  -19.8270 C   0  0  0  0  0  0  0  0  0  0  0  0
   -2.7671    5.8553  -18.4103 C   0  0  1  0  0  0  0  0  0  0  0  0
   -1.5868    6.8271  -18.3620 C   0  0  0  0  0  0  0  0  0  0  0  0
   -3.9661    6.6392  -18.0744 N   0  0  0  0  0  0  0  0  0  0  0  0
   -4.9638    5.9070  -17.4373 C   0  0  0  0  0  0  0  0  0  0  0  0
   -5.1295    5.8642  -16.0613 C   0  0  0  0  0  0  0  0  0  0  0  0
   -6.3336    5.3525  -15.5371 C   0  0  0  0  0  0  0  0  0  0  0  0
   -6.5151    5.4275  -14.0529 C   0  0  0  0  0  0  0  0  0  0  0  0
   -7.5458    5.2050  -13.4323 O   0  0  0  0  0  0  0  0  0  0  0  0
   -7.3201    4.8713  -16.4216 C   0  0  0  0  0  0  0  0  0  0  0  0
   -8.6140    4.4208  -16.0853 C   0  0  0  0  0  0  0  0  0  0  0  0
   -9.5187    4.0813  -17.0866 C   0  0  0  0  0  0  0  0  0  0  0  0
   -9.1293    4.0965  -18.4100 C   0  0  0  0  0  0  0  0  0  0  0  0
   -7.8420    4.4500  -18.7438 C   0  0  0  0  0  0  0  0  0  0  0  0
   -6.9706    4.8893  -17.7872 C   0  0  0  0  0  0  0  0  0  0  0  0
   -5.8439    5.3875  -18.2723 N   0  0  0  0  0  0  0  0  0  0  0  0
  1  2  2  0
  2  3  1  0
  3  4  1  0
  4  5  1  6
  4  6  1  0
  6  7  1  0
  7  8  2  0
  8  9  1  0
  9 10  1  0
 10 11  2  0
  9 12  2  0
 12 13  1  0
 13 14  2  0
 14 15  1  0
 15 16  2  0
 16 17  1  0
 17 18  2  0
 18  7  1  0
 17 12  1  0
M  END
>  <energy_score>  (2108) 
-23.217185

>  <alias>  (2108) 
None

>  <HIPPO Pose ID>  (2108) 
73522

>  <smiles>  (2108) 
C=CC[C@@H](C)Nc1cc(C=O)c2ccccc2n1

>  <inchikey>  (2108) 
ONQMQZJKYMGQTI-LLVKDONJSA-N

>  <distance_score>  (2108) 
1.143105

>  <ref_mols>  (2108) 
Z1688a,Z0089a

>  <ref_pdb>  (2108) 
Z1688a

>  <HIPPO Compound ID>  (2108) 
146505

>  <name>  (2108) 
P73522

>  <inspiration_score>  (2108) 
None

$$$$
P73523
     RDKit          3D

 18 20  0  0  0  0  0  0  0  0999 V2000
   -7.2212    4.0718  -12.9821 Br  0  0  0  0  0  0  0  0  0  0  0  0
   -6.9495    5.6074  -14.1214 C   0  0  0  0  0  0  0  0  0  0  0  0
   -6.4953    5.2504  -15.5124 C   0  0  0  0  0  0  0  0  0  0  0  0
   -5.1389    5.4147  -15.8743 C   0  0  0  0  0  0  0  0  0  0  0  0
   -4.7236    5.2583  -17.2008 C   0  0  0  0  0  0  0  0  0  0  0  0
   -3.3708    5.3562  -17.5429 N   0  0  0  0  0  0  0  0  0  0  0  0
   -3.0643    5.3764  -18.9827 C   0  0  2  0  0  0  0  0  0  0  0  0
   -1.5923    5.0108  -19.1793 C   0  0  0  0  0  0  0  0  0  0  0  0
   -1.2393    5.3480  -20.6152 C   0  0  0  0  0  0  0  0  0  0  0  0
   -2.0512    6.9327  -20.9365 S   0  0  0  0  0  0  0  0  0  0  0  0
   -3.2489    6.7765  -19.5785 C   0  0  0  0  0  0  0  0  0  0  0  0
   -5.5929    4.9492  -18.1523 N   0  0  0  0  0  0  0  0  0  0  0  0
   -6.8641    4.7290  -17.8280 C   0  0  0  0  0  0  0  0  0  0  0  0
   -7.6890    4.4100  -18.8753 C   0  0  0  0  0  0  0  0  0  0  0  0
   -9.0476    4.2218  -18.6906 C   0  0  0  0  0  0  0  0  0  0  0  0
   -9.5855    4.2639  -17.4176 C   0  0  0  0  0  0  0  0  0  0  0  0
   -8.7611    4.5568  -16.3321 C   0  0  0  0  0  0  0  0  0  0  0  0
   -7.3897    4.8378  -16.5227 C   0  0  0  0  0  0  0  0  0  0  0  0
  1  2  1  0
  2  3  1  0
  3  4  2  0
  4  5  1  0
  5  6  1  0
  7  6  1  1
  7  8  1  0
  8  9  1  0
  9 10  1  0
 10 11  1  0
  5 12  2  0
 12 13  1  0
 13 14  2  0
 14 15  1  0
 15 16  2  0
 16 17  1  0
 17 18  2  0
 18  3  1  0
 11  7  1  0
 18 13  1  0
M  END
>  <energy_score>  (2109) 
-24.166049

>  <alias>  (2109) 
None

>  <HIPPO Pose ID>  (2109) 
73523

>  <smiles>  (2109) 
BrCc1cc(N[C@@H]2CCSC2)nc2ccccc12

>  <inchikey>  (2109) 
JNQATMPHTFVLLZ-LLVKDONJSA-N

>  <distance_score>  (2109) 
1.03548

>  <ref_mols>  (2109) 
Z1688a,Z0089a

>  <ref_pdb>  (2109) 
Z1688a

>  <HIPPO Compound ID>  (2109) 
146506

>  <name>  (2109) 
P73523

>  <inspiration_score>  (2109) 
None

$$$$
P73525
     RDKit          3D

 18 20  0  0  0  0  0  0  0  0999 V2000
   -3.3892    5.6156  -14.7752 Br  0  0  0  0  0  0  0  0  0  0  0  0
   -3.8286    6.5901  -16.4093 C   0  0  0  0  0  0  0  0  0  0  0  0
   -4.9263    5.8936  -17.1321 C   0  0  0  0  0  0  0  0  0  0  0  0
   -6.0982    5.6990  -16.3808 C   0  0  0  0  0  0  0  0  0  0  0  0
   -7.1803    5.0459  -16.9147 C   0  0  0  0  0  0  0  0  0  0  0  0
   -8.2629    4.7328  -16.0996 C   0  0  0  0  0  0  0  0  0  0  0  0
   -9.3271    4.0787  -16.6569 C   0  0  0  0  0  0  0  0  0  0  0  0
   -9.3250    3.8035  -18.0085 C   0  0  0  0  0  0  0  0  0  0  0  0
   -8.2304    4.1143  -18.8072 C   0  0  0  0  0  0  0  0  0  0  0  0
   -7.1189    4.7051  -18.2637 C   0  0  0  0  0  0  0  0  0  0  0  0
   -6.0270    4.9196  -19.0082 N   0  0  0  0  0  0  0  0  0  0  0  0
   -4.9269    5.4618  -18.4554 C   0  0  0  0  0  0  0  0  0  0  0  0
   -3.9296    5.4973  -19.3740 N   0  0  0  0  0  0  0  0  0  0  0  0
   -2.5224    5.7747  -19.2620 C   0  0  1  0  0  0  0  0  0  0  0  0
   -1.7312    5.0243  -20.3331 C   0  0  0  0  0  0  0  0  0  0  0  0
   -0.3169    5.5890  -20.2984 C   0  0  0  0  0  0  0  0  0  0  0  0
   -0.4912    7.3588  -19.9393 S   0  0  0  0  0  0  0  0  0  0  0  0
   -2.2531    7.2554  -19.5391 C   0  0  0  0  0  0  0  0  0  0  0  0
  1  2  1  0
  2  3  1  0
  3  4  2  0
  4  5  1  0
  5  6  2  0
  6  7  1  0
  7  8  2  0
  8  9  1  0
  9 10  2  0
 10 11  1  0
 11 12  2  0
 12 13  1  0
 14 13  1  6
 14 15  1  0
 15 16  1  0
 16 17  1  0
 17 18  1  0
 12  3  1  0
 18 14  1  0
 10  5  1  0
M  END
>  <energy_score>  (2110) 
-10.853531

>  <alias>  (2110) 
None

>  <HIPPO Pose ID>  (2110) 
73525

>  <smiles>  (2110) 
BrCc1cc2ccccc2nc1N[C@H]1CCSC1

>  <inchikey>  (2110) 
IBAIEYLALFGHNF-LBPRGKRZSA-N

>  <distance_score>  (2110) 
1.937608

>  <ref_mols>  (2110) 
Z1688a,Z0089a

>  <ref_pdb>  (2110) 
Z1688a

>  <HIPPO Compound ID>  (2110) 
146507

>  <name>  (2110) 
P73525

>  <inspiration_score>  (2110) 
None

$$$$
P73528
     RDKit          3D

 18 20  0  0  0  0  0  0  0  0999 V2000
   -3.8603    6.4671  -15.0739 O   0  0  0  0  0  0  0  0  0  0  0  0
   -3.5628    6.0229  -16.3987 C   0  0  0  0  0  0  0  0  0  0  0  0
   -4.7883    5.5292  -17.0931 C   0  0  0  0  0  0  0  0  0  0  0  0
   -5.9317    5.3299  -16.3097 C   0  0  0  0  0  0  0  0  0  0  0  0
   -7.0950    4.8564  -16.8678 C   0  0  0  0  0  0  0  0  0  0  0  0
   -8.1790    4.5739  -16.0450 C   0  0  0  0  0  0  0  0  0  0  0  0
   -9.3265    4.0986  -16.6187 C   0  0  0  0  0  0  0  0  0  0  0  0
   -9.4059    3.9725  -17.9895 C   0  0  0  0  0  0  0  0  0  0  0  0
   -8.3025    4.2297  -18.7959 C   0  0  0  0  0  0  0  0  0  0  0  0
   -7.1149    4.6496  -18.2470 C   0  0  0  0  0  0  0  0  0  0  0  0
   -6.0238    4.8123  -19.0089 N   0  0  0  0  0  0  0  0  0  0  0  0
   -4.8637    5.1914  -18.4426 C   0  0  0  0  0  0  0  0  0  0  0  0
   -3.8411    5.0653  -19.3400 N   0  0  0  0  0  0  0  0  0  0  0  0
   -2.5514    5.7084  -19.3568 C   0  0  1  0  0  0  0  0  0  0  0  0
   -1.6415    4.9918  -20.3549 C   0  0  0  0  0  0  0  0  0  0  0  0
   -0.3831    5.8373  -20.4721 C   0  0  0  0  0  0  0  0  0  0  0  0
   -0.9475    7.5620  -20.3785 S   0  0  0  0  0  0  0  0  0  0  0  0
   -2.6331    7.1532  -19.8380 C   0  0  0  0  0  0  0  0  0  0  0  0
  1  2  1  0
  2  3  1  0
  3  4  2  0
  4  5  1  0
  5  6  2  0
  6  7  1  0
  7  8  2  0
  8  9  1  0
  9 10  2  0
 10 11  1  0
 11 12  2  0
 12 13  1  0
 14 13  1  6
 14 15  1  0
 15 16  1  0
 16 17  1  0
 17 18  1  0
 12  3  1  0
 18 14  1  0
 10  5  1  0
M  END
>  <energy_score>  (2111) 
-17.633905

>  <alias>  (2111) 
None

>  <HIPPO Pose ID>  (2111) 
73528

>  <smiles>  (2111) 
OCc1cc2ccccc2nc1N[C@H]1CCSC1

>  <inchikey>  (2111) 
FUYWCZGPZUEYFD-LBPRGKRZSA-N

>  <distance_score>  (2111) 
1.925129

>  <ref_mols>  (2111) 
Z1688a,Z0089a

>  <ref_pdb>  (2111) 
Z1688a

>  <HIPPO Compound ID>  (2111) 
146510

>  <name>  (2111) 
P73528

>  <inspiration_score>  (2111) 
None

$$$$
P73529
     RDKit          3D

 18 20  0  0  0  0  0  0  0  0999 V2000
   -7.1862    4.0942  -12.9975 Br  0  0  0  0  0  0  0  0  0  0  0  0
   -6.8803    5.6245  -14.1370 C   0  0  0  0  0  0  0  0  0  0  0  0
   -6.4566    5.2610  -15.5362 C   0  0  0  0  0  0  0  0  0  0  0  0
   -5.1076    5.4285  -15.9319 C   0  0  0  0  0  0  0  0  0  0  0  0
   -4.7229    5.2626  -17.2661 C   0  0  0  0  0  0  0  0  0  0  0  0
   -3.3814    5.3611  -17.6509 N   0  0  0  0  0  0  0  0  0  0  0  0
   -3.1308    5.3524  -19.1111 C   0  0  0  0  0  0  0  0  0  0  0  0
   -1.6705    4.9396  -19.3812 C   0  0  0  0  0  0  0  0  0  0  0  0
   -0.9584    6.2500  -19.5260 C   0  0  0  0  0  0  0  0  0  0  0  0
   -1.8179    7.2601  -19.6941 C   0  0  0  0  0  0  0  0  0  0  0  0
   -3.2371    6.7776  -19.6895 C   0  0  0  0  0  0  0  0  0  0  0  0
   -5.6169    4.9419  -18.1907 N   0  0  0  0  0  0  0  0  0  0  0  0
   -6.8786    4.7256  -17.8376 C   0  0  0  0  0  0  0  0  0  0  0  0
   -7.7211    4.4030  -18.8685 C   0  0  0  0  0  0  0  0  0  0  0  0
   -9.0753    4.2212  -18.6585 C   0  0  0  0  0  0  0  0  0  0  0  0
   -9.5886    4.2701  -17.3762 C   0  0  0  0  0  0  0  0  0  0  0  0
   -8.7447    4.5677  -16.3066 C   0  0  0  0  0  0  0  0  0  0  0  0
   -7.3758    4.8438  -16.5234 C   0  0  0  0  0  0  0  0  0  0  0  0
  1  2  1  0
  2  3  1  0
  3  4  2  0
  4  5  1  0
  5  6  1  0
  6  7  1  0
  7  8  1  0
  8  9  1  0
  9 10  2  0
 10 11  1  0
  5 12  2  0
 12 13  1  0
 13 14  2  0
 14 15  1  0
 15 16  2  0
 16 17  1  0
 17 18  2  0
 18  3  1  0
 11  7  1  0
 18 13  1  0
M  END
>  <energy_score>  (2112) 
-17.850993

>  <alias>  (2112) 
None

>  <HIPPO Pose ID>  (2112) 
73529

>  <smiles>  (2112) 
BrCc1cc(NC2CC=CC2)nc2ccccc12

>  <inchikey>  (2112) 
XIONIDTXXBJXSK-UHFFFAOYSA-N

>  <distance_score>  (2112) 
1.023076

>  <ref_mols>  (2112) 
Z1688a,Z0089a

>  <ref_pdb>  (2112) 
Z1688a

>  <HIPPO Compound ID>  (2112) 
146513

>  <name>  (2112) 
P73529

>  <inspiration_score>  (2112) 
None

$$$$
P73530
     RDKit          3D

 18 20  0  0  0  0  0  0  0  0999 V2000
   -7.7634    5.2000  -13.5041 O   0  0  0  0  0  0  0  0  0  0  0  0
   -6.6632    5.0860  -14.0272 C   0  0  0  0  0  0  0  0  0  0  0  0
   -6.3843    5.0154  -15.4949 C   0  0  0  0  0  0  0  0  0  0  0  0
   -5.0463    5.2063  -15.9006 C   0  0  0  0  0  0  0  0  0  0  0  0
   -4.7154    5.1710  -17.2522 C   0  0  0  0  0  0  0  0  0  0  0  0
   -3.3846    5.2307  -17.6718 N   0  0  0  0  0  0  0  0  0  0  0  0
   -3.1622    5.3158  -19.1346 C   0  0  0  0  0  0  0  0  0  0  0  0
   -1.7599    4.7703  -19.4715 C   0  0  0  0  0  0  0  0  0  0  0  0
   -0.9079    6.0022  -19.4998 C   0  0  0  0  0  0  0  0  0  0  0  0
   -1.6517    7.1116  -19.5636 C   0  0  0  0  0  0  0  0  0  0  0  0
   -3.1159    6.7886  -19.5876 C   0  0  0  0  0  0  0  0  0  0  0  0
   -5.6536    4.9681  -18.1651 N   0  0  0  0  0  0  0  0  0  0  0  0
   -6.9100    4.7417  -17.7942 C   0  0  0  0  0  0  0  0  0  0  0  0
   -7.7750    4.4863  -18.8254 C   0  0  0  0  0  0  0  0  0  0  0  0
   -9.1242    4.2895  -18.6033 C   0  0  0  0  0  0  0  0  0  0  0  0
   -9.6065    4.2543  -17.3094 C   0  0  0  0  0  0  0  0  0  0  0  0
   -8.7373    4.4663  -16.2386 C   0  0  0  0  0  0  0  0  0  0  0  0
   -7.3688    4.7478  -16.4648 C   0  0  0  0  0  0  0  0  0  0  0  0
  1  2  2  0
  2  3  1  0
  3  4  2  0
  4  5  1  0
  5  6  1  0
  6  7  1  0
  7  8  1  0
  8  9  1  0
  9 10  2  0
 10 11  1  0
  5 12  2  0
 12 13  1  0
 13 14  2  0
 14 15  1  0
 15 16  2  0
 16 17  1  0
 17 18  2  0
 18  3  1  0
 11  7  1  0
 18 13  1  0
M  END
>  <energy_score>  (2113) 
-20.846693

>  <alias>  (2113) 
None

>  <HIPPO Pose ID>  (2113) 
73530

>  <smiles>  (2113) 
O=Cc1cc(NC2CC=CC2)nc2ccccc12

>  <inchikey>  (2113) 
TXOMISMZVUONKD-UHFFFAOYSA-N

>  <distance_score>  (2113) 
1.119494

>  <ref_mols>  (2113) 
Z1688a,Z0089a

>  <ref_pdb>  (2113) 
Z1688a

>  <HIPPO Compound ID>  (2113) 
146515

>  <name>  (2113) 
P73530

>  <inspiration_score>  (2113) 
None

$$$$
P73531
     RDKit          3D

 18 19  0  0  0  0  0  0  0  0999 V2000
   -2.0526    4.1669  -19.3714 C   0  0  0  0  0  0  0  0  0  0  0  0
   -2.4017    5.6001  -19.0016 C   0  0  1  0  0  0  0  0  0  0  0  0
   -1.6299    6.6123  -19.8640 C   0  0  0  0  0  0  0  0  0  0  0  0
   -0.2246    6.9225  -19.3516 C   0  0  0  0  0  0  0  0  0  0  0  0
    0.5916    5.7713  -19.2237 O   0  0  0  0  0  0  0  0  0  0  0  0
   -3.8282    5.8582  -19.2069 N   0  0  0  0  0  0  0  0  0  0  0  0
   -4.8172    5.4808  -18.3216 C   0  0  0  0  0  0  0  0  0  0  0  0
   -5.8976    4.9769  -18.9436 N   0  0  0  0  0  0  0  0  0  0  0  0
   -6.9843    4.6521  -18.2207 C   0  0  0  0  0  0  0  0  0  0  0  0
   -8.1558    4.2702  -18.8292 C   0  0  0  0  0  0  0  0  0  0  0  0
   -9.2993    4.0017  -18.0814 C   0  0  0  0  0  0  0  0  0  0  0  0
   -9.2729    4.0276  -16.7032 C   0  0  0  0  0  0  0  0  0  0  0  0
   -8.1130    4.3705  -16.0608 C   0  0  0  0  0  0  0  0  0  0  0  0
   -6.9968    4.7055  -16.8254 C   0  0  0  0  0  0  0  0  0  0  0  0
   -5.8581    5.1507  -16.1953 C   0  0  0  0  0  0  0  0  0  0  0  0
   -4.7936    5.6688  -16.9419 C   0  0  0  0  0  0  0  0  0  0  0  0
   -3.7216    6.4208  -16.2320 C   0  0  0  0  0  0  0  0  0  0  0  0
   -4.4604    7.5585  -14.8204 Br  0  0  0  0  0  0  0  0  0  0  0  0
  2  1  1  6
  2  3  1  0
  3  4  1  0
  4  5  1  0
  2  6  1  0
  6  7  1  0
  7  8  2  0
  8  9  1  0
  9 10  2  0
 10 11  1  0
 11 12  2  0
 12 13  1  0
 13 14  2  0
 14 15  1  0
 15 16  2  0
 16 17  1  0
 17 18  1  0
 16  7  1  0
 14  9  1  0
M  END
>  <energy_score>  (2114) 
-24.164308

>  <alias>  (2114) 
None

>  <HIPPO Pose ID>  (2114) 
73531

>  <smiles>  (2114) 
C[C@@H](CCO)Nc1nc2ccccc2cc1CBr

>  <inchikey>  (2114) 
BYNBVASYLZUFLG-JTQLQIEISA-N

>  <distance_score>  (2114) 
1.941702

>  <ref_mols>  (2114) 
Z1688a,Z0089a

>  <ref_pdb>  (2114) 
Z1688a

>  <HIPPO Compound ID>  (2114) 
146516

>  <name>  (2114) 
P73531

>  <inspiration_score>  (2114) 
None

$$$$
P73534
     RDKit          3D

 18 19  0  0  0  0  0  0  0  0999 V2000
   -1.9062    4.3705  -19.5229 C   0  0  0  0  0  0  0  0  0  0  0  0
   -2.4957    5.6679  -18.9777 C   0  0  1  0  0  0  0  0  0  0  0  0
   -1.8515    6.8737  -19.6708 C   0  0  0  0  0  0  0  0  0  0  0  0
   -2.2752    8.2052  -19.0605 C   0  0  0  0  0  0  0  0  0  0  0  0
   -1.5924    9.2749  -19.7099 O   0  0  0  0  0  0  0  0  0  0  0  0
   -3.9278    5.7118  -19.2117 N   0  0  0  0  0  0  0  0  0  0  0  0
   -4.9188    5.4033  -18.3164 C   0  0  0  0  0  0  0  0  0  0  0  0
   -6.0157    4.9233  -18.9268 N   0  0  0  0  0  0  0  0  0  0  0  0
   -7.1088    4.6400  -18.1986 C   0  0  0  0  0  0  0  0  0  0  0  0
   -8.2696    4.2359  -18.8059 C   0  0  0  0  0  0  0  0  0  0  0  0
   -9.4033    3.9655  -18.0497 C   0  0  0  0  0  0  0  0  0  0  0  0
   -9.3773    4.0261  -16.6731 C   0  0  0  0  0  0  0  0  0  0  0  0
   -8.2427    4.4343  -16.0311 C   0  0  0  0  0  0  0  0  0  0  0  0
   -7.1366    4.7612  -16.8024 C   0  0  0  0  0  0  0  0  0  0  0  0
   -6.0177    5.2454  -16.1768 C   0  0  0  0  0  0  0  0  0  0  0  0
   -4.9153    5.6107  -16.9428 C   0  0  0  0  0  0  0  0  0  0  0  0
   -3.9015    6.2663  -16.2088 C   0  0  0  0  0  0  0  0  0  0  0  0
   -3.1716    6.7983  -15.4838 N   0  0  0  0  0  0  0  0  0  0  0  0
  2  1  1  6
  2  3  1  0
  3  4  1  0
  4  5  1  0
  2  6  1  0
  6  7  1  0
  7  8  2  0
  8  9  1  0
  9 10  2  0
 10 11  1  0
 11 12  2  0
 12 13  1  0
 13 14  2  0
 14 15  1  0
 15 16  2  0
 16 17  1  0
 17 18  3  0
 16  7  1  0
 14  9  1  0
M  END
>  <energy_score>  (2115) 
-15.17647

>  <alias>  (2115) 
None

>  <HIPPO Pose ID>  (2115) 
73534

>  <smiles>  (2115) 
C[C@@H](CCO)Nc1nc2ccccc2cc1C#N

>  <inchikey>  (2115) 
QFJDALGLNGWPKU-JTQLQIEISA-N

>  <distance_score>  (2115) 
1.952027

>  <ref_mols>  (2115) 
Z1688a,Z0089a

>  <ref_pdb>  (2115) 
Z1688a

>  <HIPPO Compound ID>  (2115) 
146518

>  <name>  (2115) 
P73534

>  <inspiration_score>  (2115) 
None

$$$$
P73536
     RDKit          3D

 18 19  0  0  0  0  0  0  0  0999 V2000
   -1.8220    4.3313  -19.7021 C   0  0  0  0  0  0  0  0  0  0  0  0
   -2.4198    5.5514  -19.0083 C   0  0  1  0  0  0  0  0  0  0  0  0
   -1.7964    6.8597  -19.5223 C   0  0  0  0  0  0  0  0  0  0  0  0
   -0.4030    7.1189  -18.9614 C   0  0  0  0  0  0  0  0  0  0  0  0
   -0.4789    7.3910  -17.5654 O   0  0  0  0  0  0  0  0  0  0  0  0
   -3.8487    5.6328  -19.2554 N   0  0  0  0  0  0  0  0  0  0  0  0
   -4.8493    5.3958  -18.3484 C   0  0  0  0  0  0  0  0  0  0  0  0
   -5.9486    4.9011  -18.9458 N   0  0  0  0  0  0  0  0  0  0  0  0
   -7.0413    4.6436  -18.2098 C   0  0  0  0  0  0  0  0  0  0  0  0
   -8.2052    4.2202  -18.8032 C   0  0  0  0  0  0  0  0  0  0  0  0
   -9.3363    3.9510  -18.0394 C   0  0  0  0  0  0  0  0  0  0  0  0
   -9.3083    4.0461  -16.6641 C   0  0  0  0  0  0  0  0  0  0  0  0
   -8.1701    4.4789  -16.0399 C   0  0  0  0  0  0  0  0  0  0  0  0
   -7.0633    4.7950  -16.8211 C   0  0  0  0  0  0  0  0  0  0  0  0
   -5.9362    5.2970  -16.2169 C   0  0  0  0  0  0  0  0  0  0  0  0
   -4.8288    5.6758  -16.9831 C   0  0  0  0  0  0  0  0  0  0  0  0
   -3.7142    6.3659  -16.2690 C   0  0  0  0  0  0  0  0  0  0  0  0
   -4.1938    6.9860  -15.0731 O   0  0  0  0  0  0  0  0  0  0  0  0
  2  1  1  6
  2  3  1  0
  3  4  1  0
  4  5  1  0
  2  6  1  0
  6  7  1  0
  7  8  2  0
  8  9  1  0
  9 10  2  0
 10 11  1  0
 11 12  2  0
 12 13  1  0
 13 14  2  0
 14 15  1  0
 15 16  2  0
 16 17  1  0
 17 18  1  0
 16  7  1  0
 14  9  1  0
M  END
>  <energy_score>  (2116) 
-17.469177

>  <alias>  (2116) 
None

>  <HIPPO Pose ID>  (2116) 
73536

>  <smiles>  (2116) 
C[C@@H](CCO)Nc1nc2ccccc2cc1CO

>  <inchikey>  (2116) 
HNXZSEOPEGGFLO-JTQLQIEISA-N

>  <distance_score>  (2116) 
1.905341

>  <ref_mols>  (2116) 
Z1688a,Z0089a

>  <ref_pdb>  (2116) 
Z1688a

>  <HIPPO Compound ID>  (2116) 
146519

>  <name>  (2116) 
P73536

>  <inspiration_score>  (2116) 
None

$$$$
P73538
     RDKit          3D

 18 19  0  0  0  0  0  0  0  0999 V2000
   -2.1088    4.4397  -18.9736 C   0  0  0  0  0  0  0  0  0  0  0  0
   -2.4264    5.7079  -18.1818 C   0  0  1  0  0  0  0  0  0  0  0  0
   -1.5290    6.8488  -18.6834 C   0  0  0  0  0  0  0  0  0  0  0  0
   -1.6683    8.1110  -17.8384 C   0  0  0  0  0  0  0  0  0  0  0  0
   -0.7525    9.1066  -18.2875 O   0  0  0  0  0  0  0  0  0  0  0  0
   -3.8039    6.1146  -18.3954 N   0  0  0  0  0  0  0  0  0  0  0  0
   -4.8306    5.5806  -17.6503 C   0  0  0  0  0  0  0  0  0  0  0  0
   -5.0385    5.7435  -16.2815 C   0  0  0  0  0  0  0  0  0  0  0  0
   -6.2891    5.3933  -15.7029 C   0  0  0  0  0  0  0  0  0  0  0  0
   -6.5916    5.7747  -14.2733 C   0  0  0  0  0  0  0  0  0  0  0  0
   -6.8949    4.2675  -13.0936 Br  0  0  0  0  0  0  0  0  0  0  0  0
   -7.2781    4.8640  -16.5652 C   0  0  0  0  0  0  0  0  0  0  0  0
   -8.6045    4.5428  -16.2032 C   0  0  0  0  0  0  0  0  0  0  0  0
   -9.5302    4.1797  -17.1764 C   0  0  0  0  0  0  0  0  0  0  0  0
   -9.1433    4.0980  -18.4977 C   0  0  0  0  0  0  0  0  0  0  0  0
   -7.8310    4.3113  -18.8524 C   0  0  0  0  0  0  0  0  0  0  0  0
   -6.9173    4.7156  -17.9221 C   0  0  0  0  0  0  0  0  0  0  0  0
   -5.7423    5.0360  -18.4346 N   0  0  0  0  0  0  0  0  0  0  0  0
  2  1  1  6
  2  3  1  0
  3  4  1  0
  4  5  1  0
  2  6  1  0
  6  7  1  0
  7  8  2  0
  8  9  1  0
  9 10  1  0
 10 11  1  0
  9 12  2  0
 12 13  1  0
 13 14  2  0
 14 15  1  0
 15 16  2  0
 16 17  1  0
 17 18  2  0
 18  7  1  0
 17 12  1  0
M  END
>  <energy_score>  (2117) 
-22.422875

>  <alias>  (2117) 
None

>  <HIPPO Pose ID>  (2117) 
73538

>  <smiles>  (2117) 
C[C@@H](CCO)Nc1cc(CBr)c2ccccc2n1

>  <inchikey>  (2117) 
VHFDMTAQLMYMFD-JTQLQIEISA-N

>  <distance_score>  (2117) 
1.021432

>  <ref_mols>  (2117) 
Z1688a,Z0089a

>  <ref_pdb>  (2117) 
Z1688a

>  <HIPPO Compound ID>  (2117) 
146520

>  <name>  (2117) 
P73538

>  <inspiration_score>  (2117) 
None

$$$$
P73543
     RDKit          3D

 18 19  0  0  0  0  0  0  0  0999 V2000
   -1.9464    4.4346  -19.0861 C   0  0  0  0  0  0  0  0  0  0  0  0
   -2.3931    5.6284  -18.2404 C   0  0  1  0  0  0  0  0  0  0  0  0
   -1.5862    6.8720  -18.6426 C   0  0  0  0  0  0  0  0  0  0  0  0
   -1.7352    7.9354  -17.6376 C   0  0  0  0  0  0  0  0  0  0  0  0
   -1.8247    8.7623  -16.8273 N   0  0  0  0  0  0  0  0  0  0  0  0
   -3.7951    5.9070  -18.4875 N   0  0  0  0  0  0  0  0  0  0  0  0
   -4.8190    5.4687  -17.6938 C   0  0  0  0  0  0  0  0  0  0  0  0
   -4.9399    5.5685  -16.3158 C   0  0  0  0  0  0  0  0  0  0  0  0
   -6.1670    5.2167  -15.7019 C   0  0  0  0  0  0  0  0  0  0  0  0
   -6.2771    5.3891  -14.2156 C   0  0  0  0  0  0  0  0  0  0  0  0
   -7.2745    5.2097  -13.5288 O   0  0  0  0  0  0  0  0  0  0  0  0
   -7.2398    4.7804  -16.5041 C   0  0  0  0  0  0  0  0  0  0  0  0
   -8.5388    4.4316  -16.0774 C   0  0  0  0  0  0  0  0  0  0  0  0
   -9.5214    4.1309  -17.0134 C   0  0  0  0  0  0  0  0  0  0  0  0
   -9.2301    4.1380  -18.3597 C   0  0  0  0  0  0  0  0  0  0  0  0
   -7.9426    4.3709  -18.7802 C   0  0  0  0  0  0  0  0  0  0  0  0
   -6.9700    4.7155  -17.8837 C   0  0  0  0  0  0  0  0  0  0  0  0
   -5.8120    5.0244  -18.4424 N   0  0  0  0  0  0  0  0  0  0  0  0
  2  1  1  6
  2  3  1  0
  3  4  1  0
  4  5  3  0
  2  6  1  0
  6  7  1  0
  7  8  2  0
  8  9  1  0
  9 10  1  0
 10 11  2  0
  9 12  2  0
 12 13  1  0
 13 14  2  0
 14 15  1  0
 15 16  2  0
 16 17  1  0
 17 18  2  0
 18  7  1  0
 17 12  1  0
M  END
>  <energy_score>  (2118) 
-37.379046

>  <alias>  (2118) 
None

>  <HIPPO Pose ID>  (2118) 
73543

>  <smiles>  (2118) 
C[C@@H](CC#N)Nc1cc(C=O)c2ccccc2n1

>  <inchikey>  (2118) 
UECZQVQDQZTZCH-JTQLQIEISA-N

>  <distance_score>  (2118) 
1.129173

>  <ref_mols>  (2118) 
Z1688a,Z0089a

>  <ref_pdb>  (2118) 
Z1688a

>  <HIPPO Compound ID>  (2118) 
146526

>  <name>  (2118) 
P73543

>  <inspiration_score>  (2118) 
None

$$$$
P73544
     RDKit          3D

 18 19  0  0  0  0  0  0  0  0999 V2000
   -1.7814    4.4668  -19.8424 C   0  0  0  0  0  0  0  0  0  0  0  0
   -2.4813    5.5208  -18.9867 C   0  0  1  0  0  0  0  0  0  0  0  0
   -1.8685    6.9180  -19.1622 C   0  0  0  0  0  0  0  0  0  0  0  0
   -1.8564    7.3832  -20.5564 C   0  0  0  0  0  0  0  0  0  0  0  0
   -1.8065    7.7705  -21.6498 N   0  0  0  0  0  0  0  0  0  0  0  0
   -3.9082    5.5656  -19.2716 N   0  0  0  0  0  0  0  0  0  0  0  0
   -4.9229    5.3513  -18.3725 C   0  0  0  0  0  0  0  0  0  0  0  0
   -6.0323    4.8796  -18.9634 N   0  0  0  0  0  0  0  0  0  0  0  0
   -7.1246    4.6307  -18.2208 C   0  0  0  0  0  0  0  0  0  0  0  0
   -8.2915    4.2129  -18.8072 C   0  0  0  0  0  0  0  0  0  0  0  0
   -9.4137    3.9466  -18.0319 C   0  0  0  0  0  0  0  0  0  0  0  0
   -9.3722    4.0365  -16.6571 C   0  0  0  0  0  0  0  0  0  0  0  0
   -8.2370    4.4760  -16.0376 C   0  0  0  0  0  0  0  0  0  0  0  0
   -7.1413    4.7906  -16.8279 C   0  0  0  0  0  0  0  0  0  0  0  0
   -6.0186    5.2929  -16.2243 C   0  0  0  0  0  0  0  0  0  0  0  0
   -4.9150    5.6136  -17.0067 C   0  0  0  0  0  0  0  0  0  0  0  0
   -3.8779    6.2625  -16.2998 C   0  0  0  0  0  0  0  0  0  0  0  0
   -3.1117    6.7929  -15.6126 N   0  0  0  0  0  0  0  0  0  0  0  0
  2  1  1  6
  2  3  1  0
  3  4  1  0
  4  5  3  0
  2  6  1  0
  6  7  1  0
  7  8  2  0
  8  9  1  0
  9 10  2  0
 10 11  1  0
 11 12  2  0
 12 13  1  0
 13 14  2  0
 14 15  1  0
 15 16  2  0
 16 17  1  0
 17 18  3  0
 16  7  1  0
 14  9  1  0
M  END
>  <energy_score>  (2119) 
-10.80004

>  <alias>  (2119) 
None

>  <HIPPO Pose ID>  (2119) 
73544

>  <smiles>  (2119) 
C[C@@H](CC#N)Nc1nc2ccccc2cc1C#N

>  <inchikey>  (2119) 
OVDWLDPIJABPBA-JTQLQIEISA-N

>  <distance_score>  (2119) 
1.946345

>  <ref_mols>  (2119) 
Z1688a,Z0089a

>  <ref_pdb>  (2119) 
Z1688a

>  <HIPPO Compound ID>  (2119) 
146527

>  <name>  (2119) 
P73544

>  <inspiration_score>  (2119) 
None

$$$$
P73548
     RDKit          3D

 18 19  0  0  0  0  0  0  0  0999 V2000
   -1.9196    4.2388  -19.6520 C   0  0  0  0  0  0  0  0  0  0  0  0
   -2.4412    5.5596  -19.1025 C   0  0  1  0  0  0  0  0  0  0  0  0
   -1.7196    6.7753  -19.7014 C   0  0  0  0  0  0  0  0  0  0  0  0
   -1.7302    6.7959  -21.1716 C   0  0  0  0  0  0  0  0  0  0  0  0
   -1.6893    6.8162  -22.3317 N   0  0  0  0  0  0  0  0  0  0  0  0
   -3.8772    5.7155  -19.2950 N   0  0  0  0  0  0  0  0  0  0  0  0
   -4.8538    5.3975  -18.3815 C   0  0  0  0  0  0  0  0  0  0  0  0
   -5.9556    4.9113  -18.9769 N   0  0  0  0  0  0  0  0  0  0  0  0
   -7.0370    4.6186  -18.2347 C   0  0  0  0  0  0  0  0  0  0  0  0
   -8.2276    4.2594  -18.8204 C   0  0  0  0  0  0  0  0  0  0  0  0
   -9.3578    4.0058  -18.0486 C   0  0  0  0  0  0  0  0  0  0  0  0
   -9.2969    4.0256  -16.6714 C   0  0  0  0  0  0  0  0  0  0  0  0
   -8.1226    4.3601  -16.0524 C   0  0  0  0  0  0  0  0  0  0  0  0
   -7.0207    4.6810  -16.8405 C   0  0  0  0  0  0  0  0  0  0  0  0
   -5.8664    5.1182  -16.2351 C   0  0  0  0  0  0  0  0  0  0  0  0
   -4.8073    5.6112  -17.0056 C   0  0  0  0  0  0  0  0  0  0  0  0
   -3.7215    6.3583  -16.3117 C   0  0  0  0  0  0  0  0  0  0  0  0
   -4.4357    7.5432  -14.9274 Br  0  0  0  0  0  0  0  0  0  0  0  0
  2  1  1  6
  2  3  1  0
  3  4  1  0
  4  5  3  0
  2  6  1  0
  6  7  1  0
  7  8  2  0
  8  9  1  0
  9 10  2  0
 10 11  1  0
 11 12  2  0
 12 13  1  0
 13 14  2  0
 14 15  1  0
 15 16  2  0
 16 17  1  0
 17 18  1  0
 16  7  1  0
 14  9  1  0
M  END
>  <energy_score>  (2120) 
-21.34655

>  <alias>  (2120) 
None

>  <HIPPO Pose ID>  (2120) 
73548

>  <smiles>  (2120) 
C[C@@H](CC#N)Nc1nc2ccccc2cc1CBr

>  <inchikey>  (2120) 
JTBBDBMTQBEOKF-JTQLQIEISA-N

>  <distance_score>  (2120) 
1.92832

>  <ref_mols>  (2120) 
Z1688a,Z0089a

>  <ref_pdb>  (2120) 
Z1688a

>  <HIPPO Compound ID>  (2120) 
146530

>  <name>  (2120) 
P73548

>  <inspiration_score>  (2120) 
None

$$$$
P73549
     RDKit          3D

 18 19  0  0  0  0  0  0  0  0999 V2000
   -0.4564    5.2357  -19.1683 C   0  0  0  0  0  0  0  0  0  0  0  0
   -1.9449    4.9163  -19.0915 C   0  0  0  0  0  0  0  0  0  0  0  0
   -2.7841    6.0880  -19.6069 C   0  0  2  0  0  0  0  0  0  0  0  0
   -2.4318    7.4678  -19.0609 C   0  0  0  0  0  0  0  0  0  0  0  0
   -4.2373    5.8504  -19.6121 N   0  0  0  0  0  0  0  0  0  0  0  0
   -4.8969    6.1857  -20.8622 N   0  0  0  0  0  0  0  0  0  0  0  0
   -5.1039    5.4453  -18.6028 C   0  0  0  0  0  0  0  0  0  0  0  0
   -6.3050    5.0049  -19.0801 N   0  0  0  0  0  0  0  0  0  0  0  0
   -7.3043    4.6695  -18.2543 C   0  0  0  0  0  0  0  0  0  0  0  0
   -8.5386    4.3147  -18.7447 C   0  0  0  0  0  0  0  0  0  0  0  0
   -9.5844    4.0189  -17.8811 C   0  0  0  0  0  0  0  0  0  0  0  0
   -9.3821    4.0081  -16.5173 C   0  0  0  0  0  0  0  0  0  0  0  0
   -8.1677    4.3540  -15.9930 C   0  0  0  0  0  0  0  0  0  0  0  0
   -7.1527    4.6999  -16.8696 C   0  0  0  0  0  0  0  0  0  0  0  0
   -5.9452    5.1061  -16.3637 C   0  0  0  0  0  0  0  0  0  0  0  0
   -4.9225    5.5109  -17.2268 C   0  0  0  0  0  0  0  0  0  0  0  0
   -3.8304    6.0605  -16.5202 C   0  0  0  0  0  0  0  0  0  0  0  0
   -3.0658    6.4825  -15.7587 N   0  0  0  0  0  0  0  0  0  0  0  0
  1  2  1  0
  2  3  1  0
  3  4  1  1
  3  5  1  0
  5  6  1  0
  5  7  1  0
  7  8  2  0
  8  9  1  0
  9 10  2  0
 10 11  1  0
 11 12  2  0
 12 13  1  0
 13 14  2  0
 14 15  1  0
 15 16  2  0
 16 17  1  0
 17 18  3  0
 16  7  1  0
 14  9  1  0
M  END
>  <energy_score>  (2121) 
-5.829184

>  <alias>  (2121) 
None

>  <HIPPO Pose ID>  (2121) 
73549

>  <smiles>  (2121) 
CC[C@H](C)N(N)c1nc2ccccc2cc1C#N

>  <inchikey>  (2121) 
CFFLMGIOLFIADX-JTQLQIEISA-N

>  <distance_score>  (2121) 
1.967962

>  <ref_mols>  (2121) 
Z1688a,Z0089a

>  <ref_pdb>  (2121) 
Z1688a

>  <HIPPO Compound ID>  (2121) 
146531

>  <name>  (2121) 
P73549

>  <inspiration_score>  (2121) 
None

$$$$
P73550
     RDKit          3D

 18 19  0  0  0  0  0  0  0  0999 V2000
   -0.4350    5.3326  -19.0766 C   0  0  0  0  0  0  0  0  0  0  0  0
   -1.7704    4.6414  -19.3322 C   0  0  0  0  0  0  0  0  0  0  0  0
   -3.0368    5.4547  -18.9797 C   0  0  2  0  0  0  0  0  0  0  0  0
   -2.9552    6.9149  -19.4259 C   0  0  0  0  0  0  0  0  0  0  0  0
   -3.3562    5.3809  -17.5293 N   0  0  0  0  0  0  0  0  0  0  0  0
   -2.4060    5.8397  -16.5834 N   0  0  0  0  0  0  0  0  0  0  0  0
   -4.7190    5.2446  -17.1654 C   0  0  0  0  0  0  0  0  0  0  0  0
   -5.1741    5.4234  -15.8464 C   0  0  0  0  0  0  0  0  0  0  0  0
   -6.5344    5.2518  -15.4968 C   0  0  0  0  0  0  0  0  0  0  0  0
   -7.0040    5.6159  -14.1123 C   0  0  0  0  0  0  0  0  0  0  0  0
   -7.2513    4.0823  -12.9650 Br  0  0  0  0  0  0  0  0  0  0  0  0
   -7.4134    4.8289  -16.5114 C   0  0  0  0  0  0  0  0  0  0  0  0
   -8.7863    4.5482  -16.3352 C   0  0  0  0  0  0  0  0  0  0  0  0
   -9.5994    4.2582  -17.4296 C   0  0  0  0  0  0  0  0  0  0  0  0
   -9.0477    4.2174  -18.6966 C   0  0  0  0  0  0  0  0  0  0  0  0
   -7.6861    4.4013  -18.8635 C   0  0  0  0  0  0  0  0  0  0  0  0
   -6.8713    4.7150  -17.8067 C   0  0  0  0  0  0  0  0  0  0  0  0
   -5.5949    4.9260  -18.1179 N   0  0  0  0  0  0  0  0  0  0  0  0
  1  2  1  0
  2  3  1  0
  3  4  1  1
  3  5  1  0
  5  6  1  0
  5  7  1  0
  7  8  2  0
  8  9  1  0
  9 10  1  0
 10 11  1  0
  9 12  2  0
 12 13  1  0
 13 14  2  0
 14 15  1  0
 15 16  2  0
 16 17  1  0
 17 18  2  0
 18  7  1  0
 17 12  1  0
M  END
>  <energy_score>  (2122) 
-26.547913

>  <alias>  (2122) 
None

>  <HIPPO Pose ID>  (2122) 
73550

>  <smiles>  (2122) 
CC[C@H](C)N(N)c1cc(CBr)c2ccccc2n1

>  <inchikey>  (2122) 
KATMWKZICHXQDD-JTQLQIEISA-N

>  <distance_score>  (2122) 
1.008692

>  <ref_mols>  (2122) 
Z1688a,Z0089a

>  <ref_pdb>  (2122) 
Z1688a

>  <HIPPO Compound ID>  (2122) 
146533

>  <name>  (2122) 
P73550

>  <inspiration_score>  (2122) 
None

$$$$
P73552
     RDKit          3D

 18 19  0  0  0  0  0  0  0  0999 V2000
   -1.3710    3.7558  -19.6241 C   0  0  0  0  0  0  0  0  0  0  0  0
   -2.4169    4.5662  -18.8817 C   0  0  0  0  0  0  0  0  0  0  0  0
   -2.8943    5.7454  -19.7290 C   0  0  2  0  0  0  0  0  0  0  0  0
   -1.9098    6.9165  -19.6565 C   0  0  0  0  0  0  0  0  0  0  0  0
   -4.2726    6.2539  -19.4841 N   0  0  0  0  0  0  0  0  0  0  0  0
   -4.9659    6.6532  -20.7122 N   0  0  0  0  0  0  0  0  0  0  0  0
   -5.1312    5.6254  -18.5581 C   0  0  0  0  0  0  0  0  0  0  0  0
   -6.2738    5.1059  -19.0730 N   0  0  0  0  0  0  0  0  0  0  0  0
   -7.2445    4.6903  -18.2507 C   0  0  0  0  0  0  0  0  0  0  0  0
   -8.4805    4.3353  -18.7408 C   0  0  0  0  0  0  0  0  0  0  0  0
   -9.5257    4.0212  -17.8809 C   0  0  0  0  0  0  0  0  0  0  0  0
   -9.3193    3.9776  -16.5185 C   0  0  0  0  0  0  0  0  0  0  0  0
   -8.0884    4.2756  -15.9976 C   0  0  0  0  0  0  0  0  0  0  0  0
   -7.0741    4.6534  -16.8665 C   0  0  0  0  0  0  0  0  0  0  0  0
   -5.8686    5.0648  -16.3475 C   0  0  0  0  0  0  0  0  0  0  0  0
   -4.9245    5.6776  -17.1760 C   0  0  0  0  0  0  0  0  0  0  0  0
   -3.8027    6.4128  -16.5286 C   0  0  0  0  0  0  0  0  0  0  0  0
   -4.4767    7.5553  -15.0861 Br  0  0  0  0  0  0  0  0  0  0  0  0
  1  2  1  0
  2  3  1  0
  3  4  1  1
  3  5  1  0
  5  6  1  0
  5  7  1  0
  7  8  2  0
  8  9  1  0
  9 10  2  0
 10 11  1  0
 11 12  2  0
 12 13  1  0
 13 14  2  0
 14 15  1  0
 15 16  2  0
 16 17  1  0
 17 18  1  0
 16  7  1  0
 14  9  1  0
M  END
>  <energy_score>  (2123) 
-15.399086

>  <alias>  (2123) 
None

>  <HIPPO Pose ID>  (2123) 
73552

>  <smiles>  (2123) 
CC[C@H](C)N(N)c1nc2ccccc2cc1CBr

>  <inchikey>  (2123) 
CZYIRXDXVNEKSQ-JTQLQIEISA-N

>  <distance_score>  (2123) 
1.946109

>  <ref_mols>  (2123) 
Z1688a,Z0089a

>  <ref_pdb>  (2123) 
Z1688a

>  <HIPPO Compound ID>  (2123) 
146534

>  <name>  (2123) 
P73552

>  <inspiration_score>  (2123) 
None

$$$$
P73554
     RDKit          3D

 18 19  0  0  0  0  0  0  0  0999 V2000
   -0.9171    4.3866  -19.4151 C   0  0  0  0  0  0  0  0  0  0  0  0
   -2.3779    4.6495  -19.1424 C   0  0  0  0  0  0  0  0  0  0  0  0
   -2.6673    6.0120  -18.4963 C   0  0  1  0  0  0  0  0  0  0  0  0
   -1.8027    7.1508  -19.0468 C   0  0  0  0  0  0  0  0  0  0  0  0
   -4.0847    6.3795  -18.6738 N   0  0  0  0  0  0  0  0  0  0  0  0
   -4.5412    6.6645  -20.0226 N   0  0  0  0  0  0  0  0  0  0  0  0
   -5.0365    5.7496  -17.8513 C   0  0  0  0  0  0  0  0  0  0  0  0
   -5.0175    5.8080  -16.4565 C   0  0  0  0  0  0  0  0  0  0  0  0
   -6.1347    5.3549  -15.7232 C   0  0  0  0  0  0  0  0  0  0  0  0
   -6.1124    5.5152  -14.2311 C   0  0  0  0  0  0  0  0  0  0  0  0
   -7.0423    5.3184  -13.4593 O   0  0  0  0  0  0  0  0  0  0  0  0
   -7.2391    4.8398  -16.4170 C   0  0  0  0  0  0  0  0  0  0  0  0
   -8.4280    4.3822  -15.8387 C   0  0  0  0  0  0  0  0  0  0  0  0
   -9.4742    3.9888  -16.6519 C   0  0  0  0  0  0  0  0  0  0  0  0
   -9.3697    4.0092  -18.0233 C   0  0  0  0  0  0  0  0  0  0  0  0
   -8.1804    4.3806  -18.6008 C   0  0  0  0  0  0  0  0  0  0  0  0
   -7.1363    4.8078  -17.8208 C   0  0  0  0  0  0  0  0  0  0  0  0
   -6.0845    5.2311  -18.4968 N   0  0  0  0  0  0  0  0  0  0  0  0
  1  2  1  0
  2  3  1  0
  3  4  1  6
  3  5  1  0
  5  6  1  0
  5  7  1  0
  7  8  2  0
  8  9  1  0
  9 10  1  0
 10 11  2  0
  9 12  2  0
 12 13  1  0
 13 14  2  0
 14 15  1  0
 15 16  2  0
 16 17  1  0
 17 18  2  0
 18  7  1  0
 17 12  1  0
M  END
>  <energy_score>  (2124) 
-22.7569

>  <alias>  (2124) 
None

>  <HIPPO Pose ID>  (2124) 
73554

>  <smiles>  (2124) 
CC[C@@H](C)N(N)c1cc(C=O)c2ccccc2n1

>  <inchikey>  (2124) 
YDMVXCQFJJOZEW-SNVBAGLBSA-N

>  <distance_score>  (2124) 
1.227888

>  <ref_mols>  (2124) 
Z1688a,Z0089a

>  <ref_pdb>  (2124) 
Z1688a

>  <HIPPO Compound ID>  (2124) 
146535

>  <name>  (2124) 
P73554

>  <inspiration_score>  (2124) 
None

$$$$
P73555
     RDKit          3D

 18 19  0  0  0  0  0  0  0  0999 V2000
    0.2928    6.3914  -21.1001 C   0  0  0  0  0  0  0  0  0  0  0  0
   -0.0505    5.6894  -19.7938 C   0  0  0  0  0  0  0  0  0  0  0  0
   -1.4261    5.0056  -19.8264 C   0  0  0  0  0  0  0  0  0  0  0  0
   -2.5139    5.8186  -19.1005 C   0  0  1  0  0  0  0  0  0  0  0  0
   -2.7750    7.1792  -19.7286 C   0  0  0  0  0  0  0  0  0  0  0  0
   -3.7283    5.0321  -19.0995 N   0  0  0  0  0  0  0  0  0  0  0  0
   -4.8193    5.1919  -18.2840 C   0  0  0  0  0  0  0  0  0  0  0  0
   -5.9406    4.8062  -18.9179 N   0  0  0  0  0  0  0  0  0  0  0  0
   -7.0738    4.6642  -18.2193 C   0  0  0  0  0  0  0  0  0  0  0  0
   -8.2070    4.1858  -18.8236 C   0  0  0  0  0  0  0  0  0  0  0  0
   -9.3437    3.9181  -18.0715 C   0  0  0  0  0  0  0  0  0  0  0  0
   -9.3657    4.1150  -16.7078 C   0  0  0  0  0  0  0  0  0  0  0  0
   -8.2803    4.6673  -16.0870 C   0  0  0  0  0  0  0  0  0  0  0  0
   -7.1527    4.9399  -16.8526 C   0  0  0  0  0  0  0  0  0  0  0  0
   -6.0375    5.4555  -16.2404 C   0  0  0  0  0  0  0  0  0  0  0  0
   -4.8295    5.5619  -16.9388 C   0  0  0  0  0  0  0  0  0  0  0  0
   -3.6288    6.0149  -16.1761 C   0  0  0  0  0  0  0  0  0  0  0  0
   -3.9086    6.1854  -14.7860 O   0  0  0  0  0  0  0  0  0  0  0  0
  1  2  1  0
  2  3  1  0
  3  4  1  0
  4  5  1  6
  4  6  1  0
  6  7  1  0
  7  8  2  0
  8  9  1  0
  9 10  2  0
 10 11  1  0
 11 12  2  0
 12 13  1  0
 13 14  2  0
 14 15  1  0
 15 16  2  0
 16 17  1  0
 17 18  1  0
 16  7  1  0
 14  9  1  0
M  END
>  <energy_score>  (2125) 
-18.299536

>  <alias>  (2125) 
None

>  <HIPPO Pose ID>  (2125) 
73555

>  <smiles>  (2125) 
CCC[C@@H](C)Nc1nc2ccccc2cc1CO

>  <inchikey>  (2125) 
FEYVJYGFIZFGNB-LLVKDONJSA-N

>  <distance_score>  (2125) 
1.928636

>  <ref_mols>  (2125) 
Z1688a,Z0089a

>  <ref_pdb>  (2125) 
Z1688a

>  <HIPPO Compound ID>  (2125) 
146537

>  <name>  (2125) 
P73555

>  <inspiration_score>  (2125) 
None

$$$$
P73559
     RDKit          3D

 18 19  0  0  0  0  0  0  0  0999 V2000
   -1.4541    5.1651  -21.5648 C   0  0  0  0  0  0  0  0  0  0  0  0
   -0.8207    5.6195  -20.2649 C   0  0  0  0  0  0  0  0  0  0  0  0
   -1.5483    5.0859  -19.0294 C   0  0  0  0  0  0  0  0  0  0  0  0
   -3.0075    5.5573  -18.8338 C   0  0  2  0  0  0  0  0  0  0  0  0
   -3.1599    7.0580  -19.0928 C   0  0  0  0  0  0  0  0  0  0  0  0
   -3.3693    5.3037  -17.4294 N   0  0  0  0  0  0  0  0  0  0  0  0
   -4.7224    5.1650  -17.1093 C   0  0  0  0  0  0  0  0  0  0  0  0
   -5.1169    5.1827  -15.7746 C   0  0  0  0  0  0  0  0  0  0  0  0
   -6.4674    4.9896  -15.4347 C   0  0  0  0  0  0  0  0  0  0  0  0
   -6.8068    5.0652  -13.9805 C   0  0  0  0  0  0  0  0  0  0  0  0
   -7.9282    5.1687  -13.5028 O   0  0  0  0  0  0  0  0  0  0  0  0
   -7.4003    4.7323  -16.4550 C   0  0  0  0  0  0  0  0  0  0  0  0
   -8.7762    4.4499  -16.2869 C   0  0  0  0  0  0  0  0  0  0  0  0
   -9.6037    4.2482  -17.3915 C   0  0  0  0  0  0  0  0  0  0  0  0
   -9.0674    4.2919  -18.6648 C   0  0  0  0  0  0  0  0  0  0  0  0
   -7.7085    4.4990  -18.8318 C   0  0  0  0  0  0  0  0  0  0  0  0
   -6.8813    4.7450  -17.7658 C   0  0  0  0  0  0  0  0  0  0  0  0
   -5.6061    4.9799  -18.0783 N   0  0  0  0  0  0  0  0  0  0  0  0
  1  2  1  0
  2  3  1  0
  3  4  1  0
  4  5  1  1
  4  6  1  0
  6  7  1  0
  7  8  2  0
  8  9  1  0
  9 10  1  0
 10 11  2  0
  9 12  2  0
 12 13  1  0
 13 14  2  0
 14 15  1  0
 15 16  2  0
 16 17  1  0
 17 18  2  0
 18  7  1  0
 17 12  1  0
M  END
>  <energy_score>  (2126) 
-25.905372

>  <alias>  (2126) 
None

>  <HIPPO Pose ID>  (2126) 
73559

>  <smiles>  (2126) 
CCC[C@H](C)Nc1cc(C=O)c2ccccc2n1

>  <inchikey>  (2126) 
GPJBRBZMBUOQBJ-NSHDSACASA-N

>  <distance_score>  (2126) 
1.135063

>  <ref_mols>  (2126) 
Z1688a,Z0089a

>  <ref_pdb>  (2126) 
Z1688a

>  <HIPPO Compound ID>  (2126) 
146540

>  <name>  (2126) 
P73559

>  <inspiration_score>  (2126) 
None

$$$$
P73561
     RDKit          3D

 18 20  0  0  0  0  0  0  0  0999 V2000
   -2.4379    5.8468  -16.6555 N   0  0  0  0  0  0  0  0  0  0  0  0
   -3.4033    5.5094  -17.6439 N   0  0  0  0  0  0  0  0  0  0  0  0
   -4.7513    5.3147  -17.2180 C   0  0  0  0  0  0  0  0  0  0  0  0
   -5.1735    5.5102  -15.8931 C   0  0  0  0  0  0  0  0  0  0  0  0
   -6.5191    5.3000  -15.5091 C   0  0  0  0  0  0  0  0  0  0  0  0
   -6.9648    5.6665  -14.1179 C   0  0  0  0  0  0  0  0  0  0  0  0
   -7.2267    4.1328  -12.9705 Br  0  0  0  0  0  0  0  0  0  0  0  0
   -7.4127    4.8482  -16.5017 C   0  0  0  0  0  0  0  0  0  0  0  0
   -8.7798    4.5569  -16.3012 C   0  0  0  0  0  0  0  0  0  0  0  0
   -9.6069    4.2495  -17.3808 C   0  0  0  0  0  0  0  0  0  0  0  0
   -9.0760    4.1990  -18.6559 C   0  0  0  0  0  0  0  0  0  0  0  0
   -7.7206    4.3880  -18.8471 C   0  0  0  0  0  0  0  0  0  0  0  0
   -6.8952    4.7220  -17.8067 C   0  0  0  0  0  0  0  0  0  0  0  0
   -5.6332    4.9485  -18.1486 N   0  0  0  0  0  0  0  0  0  0  0  0
   -3.0146    5.3157  -19.0309 C   0  0  0  0  0  0  0  0  0  0  0  0
   -1.6124    4.7080  -19.2808 C   0  0  0  0  0  0  0  0  0  0  0  0
   -1.4976    5.6860  -20.4720 C   0  0  0  0  0  0  0  0  0  0  0  0
   -2.4961    6.5987  -19.7226 C   0  0  0  0  0  0  0  0  0  0  0  0
  1  2  1  0
  2  3  1  0
  3  4  2  0
  4  5  1  0
  5  6  1  0
  6  7  1  0
  5  8  2  0
  8  9  1  0
  9 10  2  0
 10 11  1  0
 11 12  2  0
 12 13  1  0
 13 14  2  0
  2 15  1  0
 15 16  1  0
 16 17  1  0
 17 18  1  0
 14  3  1  0
 18 15  1  0
 13  8  1  0
M  END
>  <energy_score>  (2127) 
-29.397262

>  <alias>  (2127) 
None

>  <HIPPO Pose ID>  (2127) 
73561

>  <smiles>  (2127) 
NN(c1cc(CBr)c2ccccc2n1)C1CCC1

>  <inchikey>  (2127) 
JSPGRXYYDLHNLP-UHFFFAOYSA-N

>  <distance_score>  (2127) 
0.986201

>  <ref_mols>  (2127) 
Z1688a,Z0089a

>  <ref_pdb>  (2127) 
Z1688a

>  <HIPPO Compound ID>  (2127) 
146543

>  <name>  (2127) 
P73561

>  <inspiration_score>  (2127) 
None

$$$$
P73563
     RDKit          3D

 18 19  0  0  0  0  0  0  0  0999 V2000
   -1.6134    3.7709  -19.5384 C   0  0  0  0  0  0  0  0  0  0  0  0
   -1.6779    5.2818  -19.4020 C   0  0  0  0  0  0  0  0  0  0  0  0
   -0.5836    5.7952  -18.4598 C   0  0  0  0  0  0  0  0  0  0  0  0
   -3.1115    5.7280  -19.0181 C   0  0  2  0  0  0  0  0  0  0  0  0
   -3.2805    7.2263  -19.2777 C   0  0  0  0  0  0  0  0  0  0  0  0
   -3.3730    5.4474  -17.5930 N   0  0  0  0  0  0  0  0  0  0  0  0
   -4.7071    5.2690  -17.2093 C   0  0  0  0  0  0  0  0  0  0  0  0
   -5.0607    5.2622  -15.8617 C   0  0  0  0  0  0  0  0  0  0  0  0
   -6.3971    5.0272  -15.4799 C   0  0  0  0  0  0  0  0  0  0  0  0
   -6.6985    5.0824  -14.0161 C   0  0  0  0  0  0  0  0  0  0  0  0
   -7.8065    5.1887  -13.5084 O   0  0  0  0  0  0  0  0  0  0  0  0
   -7.3571    4.7485  -16.4690 C   0  0  0  0  0  0  0  0  0  0  0  0
   -8.7256    4.4509  -16.2629 C   0  0  0  0  0  0  0  0  0  0  0  0
   -9.5774    4.2325  -17.3454 C   0  0  0  0  0  0  0  0  0  0  0  0
   -9.0729    4.2676  -18.6315 C   0  0  0  0  0  0  0  0  0  0  0  0
   -7.7215    4.4839  -18.8341 C   0  0  0  0  0  0  0  0  0  0  0  0
   -6.8737    4.7548  -17.7915 C   0  0  0  0  0  0  0  0  0  0  0  0
   -5.6150    5.0186  -18.1409 N   0  0  0  0  0  0  0  0  0  0  0  0
  1  2  1  0
  2  3  1  0
  2  4  1  0
  4  5  1  1
  4  6  1  0
  6  7  1  0
  7  8  2  0
  8  9  1  0
  9 10  1  0
 10 11  2  0
  9 12  2  0
 12 13  1  0
 13 14  2  0
 14 15  1  0
 15 16  2  0
 16 17  1  0
 17 18  2  0
 18  7  1  0
 17 12  1  0
M  END
>  <energy_score>  (2128) 
-38.262285

>  <alias>  (2128) 
None

>  <HIPPO Pose ID>  (2128) 
73563

>  <smiles>  (2128) 
CC(C)[C@H](C)Nc1cc(C=O)c2ccccc2n1

>  <inchikey>  (2128) 
MADPZSRHFQVZRE-NSHDSACASA-N

>  <distance_score>  (2128) 
1.146421

>  <ref_mols>  (2128) 
Z1688a,Z0089a

>  <ref_pdb>  (2128) 
Z1688a

>  <HIPPO Compound ID>  (2128) 
146546

>  <name>  (2128) 
P73563

>  <inspiration_score>  (2128) 
None

$$$$
P73565
     RDKit          3D

 18 19  0  0  0  0  0  0  0  0999 V2000
   -1.5233    5.4481  -21.2569 C   0  0  0  0  0  0  0  0  0  0  0  0
   -1.4215    5.1236  -19.7638 C   0  0  0  0  0  0  0  0  0  0  0  0
   -0.0253    5.5128  -19.2518 C   0  0  0  0  0  0  0  0  0  0  0  0
   -2.5070    5.8228  -18.9050 C   0  0  1  0  0  0  0  0  0  0  0  0
   -2.6441    7.3186  -19.1785 C   0  0  0  0  0  0  0  0  0  0  0  0
   -3.7867    5.1714  -19.1017 N   0  0  0  0  0  0  0  0  0  0  0  0
   -4.8734    5.1984  -18.2668 C   0  0  0  0  0  0  0  0  0  0  0  0
   -5.9945    4.8242  -18.9072 N   0  0  0  0  0  0  0  0  0  0  0  0
   -7.1228    4.6309  -18.2057 C   0  0  0  0  0  0  0  0  0  0  0  0
   -8.2767    4.2444  -18.8334 C   0  0  0  0  0  0  0  0  0  0  0  0
   -9.4267    3.9992  -18.0962 C   0  0  0  0  0  0  0  0  0  0  0  0
   -9.4276    4.0722  -16.7208 C   0  0  0  0  0  0  0  0  0  0  0  0
   -8.3109    4.4973  -16.0613 C   0  0  0  0  0  0  0  0  0  0  0  0
   -7.1851    4.7928  -16.8149 C   0  0  0  0  0  0  0  0  0  0  0  0
   -6.0670    5.2501  -16.1719 C   0  0  0  0  0  0  0  0  0  0  0  0
   -4.9046    5.4726  -16.9033 C   0  0  0  0  0  0  0  0  0  0  0  0
   -3.8466    5.9930  -16.1245 C   0  0  0  0  0  0  0  0  0  0  0  0
   -3.0981    6.4488  -15.3670 N   0  0  0  0  0  0  0  0  0  0  0  0
  1  2  1  0
  2  3  1  0
  2  4  1  0
  4  5  1  6
  4  6  1  0
  6  7  1  0
  7  8  2  0
  8  9  1  0
  9 10  2  0
 10 11  1  0
 11 12  2  0
 12 13  1  0
 13 14  2  0
 14 15  1  0
 15 16  2  0
 16 17  1  0
 17 18  3  0
 16  7  1  0
 14  9  1  0
M  END
>  <energy_score>  (2129) 
-110.139215

>  <alias>  (2129) 
None

>  <HIPPO Pose ID>  (2129) 
73565

>  <smiles>  (2129) 
CC(C)[C@@H](C)Nc1nc2ccccc2cc1C#N

>  <inchikey>  (2129) 
QLGFRERVAVVKKF-LLVKDONJSA-N

>  <distance_score>  (2129) 
1.971749

>  <ref_mols>  (2129) 
Z1688a,Z0089a

>  <ref_pdb>  (2129) 
Z1688a

>  <HIPPO Compound ID>  (2129) 
146547

>  <name>  (2129) 
P73565

>  <inspiration_score>  (2129) 
None

$$$$
P73566
     RDKit          3D

 18 19  0  0  0  0  0  0  0  0999 V2000
   -2.1345    5.5693  -21.2009 C   0  0  0  0  0  0  0  0  0  0  0  0
   -2.6511    4.9977  -19.8748 C   0  0  0  0  0  0  0  0  0  0  0  0
   -1.6253    4.0216  -19.3187 C   0  0  0  0  0  0  0  0  0  0  0  0
   -3.0712    6.1058  -18.8800 C   0  0  2  0  0  0  0  0  0  0  0  0
   -2.0003    7.1958  -18.7262 C   0  0  0  0  0  0  0  0  0  0  0  0
   -3.3565    5.5760  -17.5308 N   0  0  0  0  0  0  0  0  0  0  0  0
   -4.7035    5.3591  -17.2095 C   0  0  0  0  0  0  0  0  0  0  0  0
   -5.1334    5.4537  -15.8782 C   0  0  0  0  0  0  0  0  0  0  0  0
   -6.4859    5.2484  -15.5288 C   0  0  0  0  0  0  0  0  0  0  0  0
   -6.9594    5.5875  -14.1391 C   0  0  0  0  0  0  0  0  0  0  0  0
   -7.2152    4.0427  -13.0101 Br  0  0  0  0  0  0  0  0  0  0  0  0
   -7.3585    4.8320  -16.5533 C   0  0  0  0  0  0  0  0  0  0  0  0
   -8.7277    4.5309  -16.3738 C   0  0  0  0  0  0  0  0  0  0  0  0
   -9.5403    4.2331  -17.4653 C   0  0  0  0  0  0  0  0  0  0  0  0
   -8.9883    4.1966  -18.7330 C   0  0  0  0  0  0  0  0  0  0  0  0
   -7.6296    4.4097  -18.9072 C   0  0  0  0  0  0  0  0  0  0  0  0
   -6.8154    4.7463  -17.8562 C   0  0  0  0  0  0  0  0  0  0  0  0
   -5.5470    5.0136  -18.1726 N   0  0  0  0  0  0  0  0  0  0  0  0
  1  2  1  0
  2  3  1  0
  2  4  1  0
  4  5  1  1
  4  6  1  0
  6  7  1  0
  7  8  2  0
  8  9  1  0
  9 10  1  0
 10 11  1  0
  9 12  2  0
 12 13  1  0
 13 14  2  0
 14 15  1  0
 15 16  2  0
 16 17  1  0
 17 18  2  0
 18  7  1  0
 17 12  1  0
M  END
>  <energy_score>  (2130) 
-32.977113

>  <alias>  (2130) 
None

>  <HIPPO Pose ID>  (2130) 
73566

>  <smiles>  (2130) 
CC(C)[C@H](C)Nc1cc(CBr)c2ccccc2n1

>  <inchikey>  (2130) 
AKNIVJALJPUGQS-NSHDSACASA-N

>  <distance_score>  (2130) 
1.058058

>  <ref_mols>  (2130) 
Z1688a,Z0089a

>  <ref_pdb>  (2130) 
Z1688a

>  <HIPPO Compound ID>  (2130) 
146549

>  <name>  (2130) 
P73566

>  <inspiration_score>  (2130) 
None

$$$$
P73568
     RDKit          3D

 18 19  0  0  0  0  0  0  0  0999 V2000
   -0.5825    5.9091  -20.8196 C   0  0  0  0  0  0  0  0  0  0  0  0
   -1.8187    5.1854  -20.2778 C   0  0  0  0  0  0  0  0  0  0  0  0
   -1.4154    3.8637  -19.6337 C   0  0  0  0  0  0  0  0  0  0  0  0
   -2.6289    6.0112  -19.2503 C   0  0  1  0  0  0  0  0  0  0  0  0
   -2.6730    7.5030  -19.5591 C   0  0  0  0  0  0  0  0  0  0  0  0
   -3.9762    5.5042  -19.2611 N   0  0  0  0  0  0  0  0  0  0  0  0
   -4.9847    5.4921  -18.3647 C   0  0  0  0  0  0  0  0  0  0  0  0
   -6.0745    4.9514  -18.9356 N   0  0  0  0  0  0  0  0  0  0  0  0
   -7.1668    4.7194  -18.2035 C   0  0  0  0  0  0  0  0  0  0  0  0
   -8.2668    4.1335  -18.7715 C   0  0  0  0  0  0  0  0  0  0  0  0
   -9.3640    3.8047  -17.9880 C   0  0  0  0  0  0  0  0  0  0  0  0
   -9.3748    4.0528  -16.6313 C   0  0  0  0  0  0  0  0  0  0  0  0
   -8.3201    4.6973  -16.0474 C   0  0  0  0  0  0  0  0  0  0  0  0
   -7.2360    5.0324  -16.8467 C   0  0  0  0  0  0  0  0  0  0  0  0
   -6.1626    5.6802  -16.2906 C   0  0  0  0  0  0  0  0  0  0  0  0
   -4.9993    5.9103  -17.0404 C   0  0  0  0  0  0  0  0  0  0  0  0
   -3.9103    6.5982  -16.3007 C   0  0  0  0  0  0  0  0  0  0  0  0
   -3.3107    5.4523  -14.8486 Br  0  0  0  0  0  0  0  0  0  0  0  0
  1  2  1  0
  2  3  1  0
  2  4  1  0
  4  5  1  6
  4  6  1  0
  6  7  1  0
  7  8  2  0
  8  9  1  0
  9 10  2  0
 10 11  1  0
 11 12  2  0
 12 13  1  0
 13 14  2  0
 14 15  1  0
 15 16  2  0
 16 17  1  0
 17 18  1  0
 16  7  1  0
 14  9  1  0
M  END
>  <energy_score>  (2131) 
-17.720413

>  <alias>  (2131) 
None

>  <HIPPO Pose ID>  (2131) 
73568

>  <smiles>  (2131) 
CC(C)[C@@H](C)Nc1nc2ccccc2cc1CBr

>  <inchikey>  (2131) 
CVPAVUAXBQNTNH-LLVKDONJSA-N

>  <distance_score>  (2131) 
1.893385

>  <ref_mols>  (2131) 
Z1688a,Z0089a

>  <ref_pdb>  (2131) 
Z1688a

>  <HIPPO Compound ID>  (2131) 
146550

>  <name>  (2131) 
P73568

>  <inspiration_score>  (2131) 
None

$$$$
P73569
     RDKit          3D

 18 20  0  0  0  0  0  0  0  0999 V2000
   -1.7792    4.3143  -19.4959 C   0  0  0  0  0  0  0  0  0  0  0  0
   -2.4459    5.6692  -19.4881 C   0  0  0  0  0  0  0  0  0  0  0  0
   -3.4383    5.8861  -18.4373 N   0  0  0  0  0  0  0  0  0  0  0  0
   -4.7220    5.3505  -18.4172 C   0  0  0  0  0  0  0  0  0  0  0  0
   -5.3748    4.9282  -19.5529 C   0  0  0  0  0  0  0  0  0  0  0  0
   -6.6706    4.4642  -19.4424 C   0  0  0  0  0  0  0  0  0  0  0  0
   -7.3145    4.4893  -18.2166 C   0  0  0  0  0  0  0  0  0  0  0  0
   -8.6665    4.1409  -18.1382 C   0  0  0  0  0  0  0  0  0  0  0  0
   -9.3033    4.1297  -16.9097 C   0  0  0  0  0  0  0  0  0  0  0  0
   -8.5836    4.4280  -15.7590 C   0  0  0  0  0  0  0  0  0  0  0  0
   -7.2347    4.8009  -15.8579 C   0  0  0  0  0  0  0  0  0  0  0  0
   -6.5046    5.1337  -14.6188 C   0  0  0  0  0  0  0  0  0  0  0  0
   -5.5278    4.5453  -14.1941 O   0  0  0  0  0  0  0  0  0  0  0  0
   -7.0787    6.1856  -13.9824 O   0  0  0  0  0  0  0  0  0  0  0  0
   -6.5758    4.8745  -17.0839 C   0  0  0  0  0  0  0  0  0  0  0  0
   -5.3066    5.3217  -17.2036 N   0  0  0  0  0  0  0  0  0  0  0  0
   -1.5474    6.8502  -19.8021 C   0  0  0  0  0  0  0  0  0  0  0  0
   -2.5643    6.4129  -20.8033 C   0  0  0  0  0  0  0  0  0  0  0  0
  1  2  1  0
  2  3  1  0
  3  4  1  0
  4  5  2  0
  5  6  1  0
  6  7  2  0
  7  8  1  0
  8  9  2  0
  9 10  1  0
 10 11  2  0
 11 12  1  0
 12 13  2  0
 12 14  1  0
 11 15  1  0
 15 16  2  0
  2 17  1  0
 17 18  1  0
 18  2  1  0
 16  4  1  0
 15  7  1  0
M  END
>  <energy_score>  (2132) 
-22.410658

>  <alias>  (2132) 
None

>  <HIPPO Pose ID>  (2132) 
73569

>  <smiles>  (2132) 
CC1(Nc2ccc3cccc(C(=O)O)c3n2)CC1

>  <inchikey>  (2132) 
FJDWOSQPSPRIKI-UHFFFAOYSA-N

>  <distance_score>  (2132) 
1.239764

>  <ref_mols>  (2132) 
Z1688a,Z0089a

>  <ref_pdb>  (2132) 
Z1688a

>  <HIPPO Compound ID>  (2132) 
146551

>  <name>  (2132) 
P73569

>  <inspiration_score>  (2132) 
None

$$$$
P73570
     RDKit          3D

 18 20  0  0  0  0  0  0  0  0999 V2000
   -5.1255    5.9485  -14.9596 C   0  0  0  0  0  0  0  0  0  0  0  0
   -5.4123    5.5546  -16.3768 C   0  0  0  0  0  0  0  0  0  0  0  0
   -4.3852    5.5996  -17.3195 C   0  0  0  0  0  0  0  0  0  0  0  0
   -4.6242    5.2083  -18.6242 C   0  0  0  0  0  0  0  0  0  0  0  0
   -3.6361    5.0255  -19.5749 N   0  0  0  0  0  0  0  0  0  0  0  0
   -2.5671    5.9976  -19.7893 C   0  0  0  0  0  0  0  0  0  0  0  0
   -1.9073    5.6618  -21.1285 C   0  0  0  0  0  0  0  0  0  0  0  0
   -0.7558    6.6145  -21.4371 C   0  0  0  0  0  0  0  0  0  0  0  0
   -0.1155    7.1270  -20.2696 O   0  0  0  0  0  0  0  0  0  0  0  0
   -0.0866    6.1683  -19.2201 C   0  0  0  0  0  0  0  0  0  0  0  0
   -1.4992    5.9623  -18.6878 C   0  0  0  0  0  0  0  0  0  0  0  0
   -5.8414    4.8350  -19.0354 N   0  0  0  0  0  0  0  0  0  0  0  0
   -6.8366    4.7571  -18.1421 C   0  0  0  0  0  0  0  0  0  0  0  0
   -8.0710    4.3129  -18.5703 C   0  0  0  0  0  0  0  0  0  0  0  0
   -9.1219    4.1030  -17.6818 C   0  0  0  0  0  0  0  0  0  0  0  0
   -8.9410    4.3377  -16.3335 C   0  0  0  0  0  0  0  0  0  0  0  0
   -7.7348    4.8436  -15.8854 C   0  0  0  0  0  0  0  0  0  0  0  0
   -6.6686    5.0685  -16.7792 C   0  0  0  0  0  0  0  0  0  0  0  0
  1  2  1  0
  2  3  2  0
  3  4  1  0
  4  5  1  0
  5  6  1  0
  6  7  1  0
  7  8  1  0
  8  9  1  0
  9 10  1  0
 10 11  1  0
  4 12  2  0
 12 13  1  0
 13 14  2  0
 14 15  1  0
 15 16  2  0
 16 17  1  0
 17 18  2  0
 18  2  1  0
 11  6  1  0
 18 13  1  0
M  END
>  <energy_score>  (2133) 
-25.638001

>  <alias>  (2133) 
None

>  <HIPPO Pose ID>  (2133) 
73570

>  <smiles>  (2133) 
Cc1cc(NC2CCOCC2)nc2ccccc12

>  <inchikey>  (2133) 
SDLNUYPKJYTOKF-UHFFFAOYSA-N

>  <distance_score>  (2133) 
1.857483

>  <ref_mols>  (2133) 
Z1688a,Z0089a

>  <ref_pdb>  (2133) 
Z1688a

>  <HIPPO Compound ID>  (2133) 
146552

>  <name>  (2133) 
P73570

>  <inspiration_score>  (2133) 
None

$$$$
P73571
     RDKit          3D

 18 20  0  0  0  0  0  0  0  0999 V2000
  -10.6248    4.0540  -17.3513 O   0  0  0  0  0  0  0  0  0  0  0  0
   -9.2926    4.2569  -17.5161 C   0  0  0  0  0  0  0  0  0  0  0  0
   -8.8166    4.1679  -18.8092 C   0  0  0  0  0  0  0  0  0  0  0  0
   -7.4700    4.3670  -19.0657 C   0  0  0  0  0  0  0  0  0  0  0  0
   -6.5982    4.7118  -18.0655 C   0  0  0  0  0  0  0  0  0  0  0  0
   -5.3327    4.9291  -18.4285 N   0  0  0  0  0  0  0  0  0  0  0  0
   -4.4344    5.2568  -17.5041 C   0  0  0  0  0  0  0  0  0  0  0  0
   -3.0952    5.3975  -17.8750 N   0  0  0  0  0  0  0  0  0  0  0  0
   -2.7991    5.4343  -19.3141 C   0  0  0  0  0  0  0  0  0  0  0  0
   -1.3179    5.0713  -19.4969 C   0  0  0  0  0  0  0  0  0  0  0  0
   -0.7395    5.7784  -20.7119 C   0  0  0  0  0  0  0  0  0  0  0  0
   -0.7951    7.2020  -20.6072 O   0  0  0  0  0  0  0  0  0  0  0  0
   -1.8967    7.7156  -19.8634 C   0  0  0  0  0  0  0  0  0  0  0  0
   -3.1165    6.8137  -19.9054 C   0  0  0  0  0  0  0  0  0  0  0  0
   -4.7910    5.3734  -16.1642 C   0  0  0  0  0  0  0  0  0  0  0  0
   -6.1174    5.1609  -15.7769 C   0  0  0  0  0  0  0  0  0  0  0  0
   -7.0697    4.8128  -16.7430 C   0  0  0  0  0  0  0  0  0  0  0  0
   -8.4331    4.5588  -16.4647 C   0  0  0  0  0  0  0  0  0  0  0  0
  1  2  1  0
  2  3  2  0
  3  4  1  0
  4  5  2  0
  5  6  1  0
  6  7  2  0
  7  8  1  0
  8  9  1  0
  9 10  1  0
 10 11  1  0
 11 12  1  0
 12 13  1  0
 13 14  1  0
  7 15  1  0
 15 16  2  0
 16 17  1  0
 17 18  2  0
 18  2  1  0
 17  5  1  0
 14  9  1  0
M  END
>  <energy_score>  (2134) 
-30.263844

>  <alias>  (2134) 
None

>  <HIPPO Pose ID>  (2134) 
73571

>  <smiles>  (2134) 
Oc1ccc2nc(NC3CCOCC3)ccc2c1

>  <inchikey>  (2134) 
RIZQJVLAMYMMRD-UHFFFAOYSA-N

>  <distance_score>  (2134) 
0.98656

>  <ref_mols>  (2134) 
Z1688a,Z0089a

>  <ref_pdb>  (2134) 
Z1688a

>  <HIPPO Compound ID>  (2134) 
146553

>  <name>  (2134) 
P73571

>  <inspiration_score>  (2134) 
None

$$$$
P73573
     RDKit          3D

 19 20  0  0  0  0  0  0  0  0999 V2000
   -0.5547    5.5648  -18.1946 C   0  0  0  0  0  0  0  0  0  0  0  0
   -1.8424    5.0264  -18.8390 C   0  0  0  0  0  0  0  0  0  0  0  0
   -1.4833    4.2879  -20.1247 C   0  0  0  0  0  0  0  0  0  0  0  0
   -2.8776    6.1612  -19.0155 C   0  0  1  0  0  0  0  0  0  0  0  0
   -2.3297    7.3832  -19.7549 C   0  0  0  0  0  0  0  0  0  0  0  0
   -4.0382    5.7157  -19.7654 N   0  0  0  0  0  0  0  0  0  0  0  0
   -5.1356    5.1829  -19.1047 C   0  0  0  0  0  0  0  0  0  0  0  0
   -6.1249    4.6239  -19.8920 C   0  0  0  0  0  0  0  0  0  0  0  0
   -7.3221    4.2283  -19.3348 C   0  0  0  0  0  0  0  0  0  0  0  0
   -7.5175    4.4213  -17.9873 C   0  0  0  0  0  0  0  0  0  0  0  0
   -8.7542    4.0821  -17.4474 C   0  0  0  0  0  0  0  0  0  0  0  0
   -8.9550    4.2254  -16.0896 C   0  0  0  0  0  0  0  0  0  0  0  0
   -7.9468    4.7229  -15.2784 C   0  0  0  0  0  0  0  0  0  0  0  0
   -6.7152    5.0723  -15.8450 C   0  0  0  0  0  0  0  0  0  0  0  0
   -5.6994    5.6326  -14.9516 C   0  0  0  0  0  0  0  0  0  0  0  0
   -5.8290    6.6451  -14.2861 O   0  0  0  0  0  0  0  0  0  0  0  0
   -4.6111    4.8482  -14.8589 O   0  0  0  0  0  0  0  0  0  0  0  0
   -6.4625    4.9476  -17.2095 C   0  0  0  0  0  0  0  0  0  0  0  0
   -5.2937    5.3337  -17.7789 N   0  0  0  0  0  0  0  0  0  0  0  0
  1  2  1  0
  2  3  1  0
  2  4  1  0
  4  5  1  6
  4  6  1  0
  6  7  1  0
  7  8  2  0
  8  9  1  0
  9 10  2  0
 10 11  1  0
 11 12  2  0
 12 13  1  0
 13 14  2  0
 14 15  1  0
 15 16  2  0
 15 17  1  0
 14 18  1  0
 18 19  2  0
 19  7  1  0
 18 10  1  0
M  END
>  <energy_score>  (2135) 
-41.74179

>  <alias>  (2135) 
None

>  <HIPPO Pose ID>  (2135) 
73573

>  <smiles>  (2135) 
CC(C)[C@@H](C)Nc1ccc2cccc(C(=O)O)c2n1

>  <inchikey>  (2135) 
PXGUZIKQZVLISY-SNVBAGLBSA-N

>  <distance_score>  (2135) 
1.606378

>  <ref_mols>  (2135) 
Z1688a,Z0089a

>  <ref_pdb>  (2135) 
Z1688a

>  <HIPPO Compound ID>  (2135) 
146554

>  <name>  (2135) 
P73573

>  <inspiration_score>  (2135) 
None

$$$$
P73574
     RDKit          3D

 19 20  0  0  0  0  0  0  0  0999 V2000
   -1.5677    4.1444  -20.0932 C   0  0  0  0  0  0  0  0  0  0  0  0
   -2.0287    4.6665  -18.7471 C   0  0  0  0  0  0  0  0  0  0  0  0
   -2.7940    5.9954  -18.7681 C   0  0  1  0  0  0  0  0  0  0  0  0
   -1.8991    7.1641  -19.1825 C   0  0  0  0  0  0  0  0  0  0  0  0
   -3.9833    5.8979  -19.6229 N   0  0  0  0  0  0  0  0  0  0  0  0
   -3.9462    6.2861  -20.9889 N   0  0  0  0  0  0  0  0  0  0  0  0
   -5.1390    5.3198  -19.0543 C   0  0  0  0  0  0  0  0  0  0  0  0
   -6.0770    4.7114  -19.8731 C   0  0  0  0  0  0  0  0  0  0  0  0
   -7.2722    4.2518  -19.3580 C   0  0  0  0  0  0  0  0  0  0  0  0
   -7.5267    4.4246  -18.0189 C   0  0  0  0  0  0  0  0  0  0  0  0
   -8.7728    4.0455  -17.5321 C   0  0  0  0  0  0  0  0  0  0  0  0
   -9.0299    4.1689  -16.1826 C   0  0  0  0  0  0  0  0  0  0  0  0
   -8.0663    4.6789  -15.3260 C   0  0  0  0  0  0  0  0  0  0  0  0
   -6.8240    5.0670  -15.8405 C   0  0  0  0  0  0  0  0  0  0  0  0
   -5.8595    5.6448  -14.9019 C   0  0  0  0  0  0  0  0  0  0  0  0
   -6.0577    6.6254  -14.2061 O   0  0  0  0  0  0  0  0  0  0  0  0
   -4.7351    4.9138  -14.8066 O   0  0  0  0  0  0  0  0  0  0  0  0
   -6.5201    4.9709  -17.1974 C   0  0  0  0  0  0  0  0  0  0  0  0
   -5.3489    5.4052  -17.7227 N   0  0  0  0  0  0  0  0  0  0  0  0
  1  2  1  0
  2  3  1  0
  3  4  1  6
  3  5  1  0
  5  6  1  0
  5  7  1  0
  7  8  2  0
  8  9  1  0
  9 10  2  0
 10 11  1  0
 11 12  2  0
 12 13  1  0
 13 14  2  0
 14 15  1  0
 15 16  2  0
 15 17  1  0
 14 18  1  0
 18 19  2  0
 19  7  1  0
 18 10  1  0
M  END
>  <energy_score>  (2136) 
-38.053007

>  <alias>  (2136) 
None

>  <HIPPO Pose ID>  (2136) 
73574

>  <smiles>  (2136) 
CC[C@@H](C)N(N)c1ccc2cccc(C(=O)O)c2n1

>  <inchikey>  (2136) 
CSAFXRFEDFLABO-SECBINFHSA-N

>  <distance_score>  (2136) 
1.516375

>  <ref_mols>  (2136) 
Z1688a,Z0089a

>  <ref_pdb>  (2136) 
Z1688a

>  <HIPPO Compound ID>  (2136) 
146555

>  <name>  (2136) 
P73574

>  <inspiration_score>  (2136) 
None

$$$$
P73575
     RDKit          3D

 19 20  0  0  0  0  0  0  0  0999 V2000
   -0.8736    5.8547  -21.9738 C   0  0  0  0  0  0  0  0  0  0  0  0
   -0.3864    5.8803  -20.5334 C   0  0  0  0  0  0  0  0  0  0  0  0
   -1.3245    5.1524  -19.5632 C   0  0  0  0  0  0  0  0  0  0  0  0
   -2.7172    5.7916  -19.4161 C   0  0  2  0  0  0  0  0  0  0  0  0
   -2.6460    7.2589  -18.9973 C   0  0  0  0  0  0  0  0  0  0  0  0
   -3.4273    5.0391  -18.3956 N   0  0  0  0  0  0  0  0  0  0  0  0
   -4.8080    4.9846  -18.4094 C   0  0  0  0  0  0  0  0  0  0  0  0
   -5.5193    4.6696  -19.5448 C   0  0  0  0  0  0  0  0  0  0  0  0
   -6.8623    4.3884  -19.4324 C   0  0  0  0  0  0  0  0  0  0  0  0
   -7.4854    4.4963  -18.2066 C   0  0  0  0  0  0  0  0  0  0  0  0
   -8.8397    4.1937  -18.1364 C   0  0  0  0  0  0  0  0  0  0  0  0
   -9.4669    4.2101  -16.9105 C   0  0  0  0  0  0  0  0  0  0  0  0
   -8.7494    4.5548  -15.7694 C   0  0  0  0  0  0  0  0  0  0  0  0
   -7.3934    4.9062  -15.8605 C   0  0  0  0  0  0  0  0  0  0  0  0
   -6.6816    5.3478  -14.6411 C   0  0  0  0  0  0  0  0  0  0  0  0
   -5.8252    6.2062  -14.5401 O   0  0  0  0  0  0  0  0  0  0  0  0
   -7.1310    4.7029  -13.5454 O   0  0  0  0  0  0  0  0  0  0  0  0
   -6.7202    4.8686  -17.0823 C   0  0  0  0  0  0  0  0  0  0  0  0
   -5.3939    5.1133  -17.2069 N   0  0  0  0  0  0  0  0  0  0  0  0
  1  2  1  0
  2  3  1  0
  3  4  1  0
  4  5  1  1
  4  6  1  0
  6  7  1  0
  7  8  2  0
  8  9  1  0
  9 10  2  0
 10 11  1  0
 11 12  2  0
 12 13  1  0
 13 14  2  0
 14 15  1  0
 15 16  2  0
 15 17  1  0
 14 18  1  0
 18 19  2  0
 19  7  1  0
 18 10  1  0
M  END
>  <energy_score>  (2137) 
-56.577093

>  <alias>  (2137) 
None

>  <HIPPO Pose ID>  (2137) 
73575

>  <smiles>  (2137) 
CCC[C@H](C)Nc1ccc2cccc(C(=O)O)c2n1

>  <inchikey>  (2137) 
KMDJVUHJEUNXJF-JTQLQIEISA-N

>  <distance_score>  (2137) 
1.175081

>  <ref_mols>  (2137) 
Z1688a,Z0089a

>  <ref_pdb>  (2137) 
Z1688a

>  <HIPPO Compound ID>  (2137) 
146556

>  <name>  (2137) 
P73575

>  <inspiration_score>  (2137) 
None

$$$$
P73577
     RDKit          3D

 19 21  0  0  0  0  0  0  0  0999 V2000
   -3.6974    6.0325  -20.8394 N   0  0  0  0  0  0  0  0  0  0  0  0
   -3.7447    5.4422  -19.5404 N   0  0  0  0  0  0  0  0  0  0  0  0
   -5.0229    5.1132  -18.9914 C   0  0  0  0  0  0  0  0  0  0  0  0
   -6.0298    4.6672  -19.8352 C   0  0  0  0  0  0  0  0  0  0  0  0
   -7.2645    4.3164  -19.3278 C   0  0  0  0  0  0  0  0  0  0  0  0
   -7.4933    4.4502  -17.9795 C   0  0  0  0  0  0  0  0  0  0  0  0
   -8.7588    4.1335  -17.4988 C   0  0  0  0  0  0  0  0  0  0  0  0
   -8.9918    4.1981  -16.1417 C   0  0  0  0  0  0  0  0  0  0  0  0
   -7.9859    4.5954  -15.2734 C   0  0  0  0  0  0  0  0  0  0  0  0
   -6.7214    4.9314  -15.7788 C   0  0  0  0  0  0  0  0  0  0  0  0
   -5.6636    5.3092  -14.8262 C   0  0  0  0  0  0  0  0  0  0  0  0
   -4.5283    4.8838  -14.7429 O   0  0  0  0  0  0  0  0  0  0  0  0
   -6.1197    6.2439  -13.9641 O   0  0  0  0  0  0  0  0  0  0  0  0
   -6.4377    4.8732  -17.1429 C   0  0  0  0  0  0  0  0  0  0  0  0
   -5.2304    5.2060  -17.6597 N   0  0  0  0  0  0  0  0  0  0  0  0
   -2.5545    5.4581  -18.7149 C   0  0  0  0  0  0  0  0  0  0  0  0
   -1.2851    4.9895  -19.4560 C   0  0  0  0  0  0  0  0  0  0  0  0
   -0.8528    6.4603  -19.5997 C   0  0  0  0  0  0  0  0  0  0  0  0
   -1.9102    6.8462  -18.5482 C   0  0  0  0  0  0  0  0  0  0  0  0
  1  2  1  0
  2  3  1  0
  3  4  2  0
  4  5  1  0
  5  6  2  0
  6  7  1  0
  7  8  2  0
  8  9  1  0
  9 10  2  0
 10 11  1  0
 11 12  2  0
 11 13  1  0
 10 14  1  0
 14 15  2  0
  2 16  1  0
 16 17  1  0
 17 18  1  0
 18 19  1  0
 15  3  1  0
 19 16  1  0
 14  6  1  0
M  END
>  <energy_score>  (2138) 
-32.338803

>  <alias>  (2138) 
None

>  <HIPPO Pose ID>  (2138) 
73577

>  <smiles>  (2138) 
NN(c1ccc2cccc(C(=O)O)c2n1)C1CCC1

>  <inchikey>  (2138) 
JBEGVEGDLZOHAU-UHFFFAOYSA-N

>  <distance_score>  (2138) 
1.559911

>  <ref_mols>  (2138) 
Z1688a,Z0089a

>  <ref_pdb>  (2138) 
Z1688a

>  <HIPPO Compound ID>  (2138) 
146557

>  <name>  (2138) 
P73577

>  <inspiration_score>  (2138) 
None

$$$$
P73579
     RDKit          3D

 19 20  0  0  0  0  0  0  0  0999 V2000
   -1.8447    4.4083  -18.8550 C   0  0  0  0  0  0  0  0  0  0  0  0
   -2.7894    5.2597  -19.6887 C   0  0  2  0  0  0  0  0  0  0  0  0
   -2.0190    6.2597  -20.5559 C   0  0  0  0  0  0  0  0  0  0  0  0
   -1.5701    5.5799  -21.7851 C   0  0  0  0  0  0  0  0  0  0  0  0
   -1.2874    4.9906  -22.7463 N   0  0  0  0  0  0  0  0  0  0  0  0
   -3.7105    5.9901  -18.8219 N   0  0  0  0  0  0  0  0  0  0  0  0
   -4.9672    5.4345  -18.6201 C   0  0  0  0  0  0  0  0  0  0  0  0
   -5.7406    4.9519  -19.6555 C   0  0  0  0  0  0  0  0  0  0  0  0
   -6.9848    4.4276  -19.3770 C   0  0  0  0  0  0  0  0  0  0  0  0
   -7.4733    4.4918  -18.0899 C   0  0  0  0  0  0  0  0  0  0  0  0
   -8.7794    4.0755  -17.8690 C   0  0  0  0  0  0  0  0  0  0  0  0
   -9.2805    4.1071  -16.5864 C   0  0  0  0  0  0  0  0  0  0  0  0
   -8.4850    4.5366  -15.5322 C   0  0  0  0  0  0  0  0  0  0  0  0
   -7.1748    4.9745  -15.7749 C   0  0  0  0  0  0  0  0  0  0  0  0
   -6.3506    5.4168  -14.6325 C   0  0  0  0  0  0  0  0  0  0  0  0
   -5.1728    5.2083  -14.4157 O   0  0  0  0  0  0  0  0  0  0  0  0
   -7.0880    6.1443  -13.7639 O   0  0  0  0  0  0  0  0  0  0  0  0
   -6.6393    4.9831  -17.0635 C   0  0  0  0  0  0  0  0  0  0  0  0
   -5.4014    5.4542  -17.3495 N   0  0  0  0  0  0  0  0  0  0  0  0
  2  1  1  1
  2  3  1  0
  3  4  1  0
  4  5  3  0
  2  6  1  0
  6  7  1  0
  7  8  2  0
  8  9  1  0
  9 10  2  0
 10 11  1  0
 11 12  2  0
 12 13  1  0
 13 14  2  0
 14 15  1  0
 15 16  2  0
 15 17  1  0
 14 18  1  0
 18 19  2  0
 19  7  1  0
 18 10  1  0
M  END
>  <energy_score>  (2139) 
-40.176132

>  <alias>  (2139) 
None

>  <HIPPO Pose ID>  (2139) 
73579

>  <smiles>  (2139) 
C[C@H](CC#N)Nc1ccc2cccc(C(=O)O)c2n1

>  <inchikey>  (2139) 
ZLCWYHZRHPLEII-SECBINFHSA-N

>  <distance_score>  (2139) 
1.309242

>  <ref_mols>  (2139) 
Z1688a,Z0089a

>  <ref_pdb>  (2139) 
Z1688a

>  <HIPPO Compound ID>  (2139) 
146559

>  <name>  (2139) 
P73579

>  <inspiration_score>  (2139) 
None

$$$$
P73582
     RDKit          3D

 19 21  0  0  0  0  0  0  0  0999 V2000
   -5.4522    4.8688  -14.2986 O   0  0  0  0  0  0  0  0  0  0  0  0
   -6.5921    5.1503  -14.6124 C   0  0  0  0  0  0  0  0  0  0  0  0
   -7.3734    5.8567  -13.7632 O   0  0  0  0  0  0  0  0  0  0  0  0
   -7.3245    4.8380  -15.8585 C   0  0  0  0  0  0  0  0  0  0  0  0
   -8.6884    4.5102  -15.7728 C   0  0  0  0  0  0  0  0  0  0  0  0
   -9.4115    4.2006  -16.9185 C   0  0  0  0  0  0  0  0  0  0  0  0
   -8.7773    4.1886  -18.1421 C   0  0  0  0  0  0  0  0  0  0  0  0
   -7.4182    4.4880  -18.2125 C   0  0  0  0  0  0  0  0  0  0  0  0
   -6.7943    4.4091  -19.4402 C   0  0  0  0  0  0  0  0  0  0  0  0
   -5.4610    4.7320  -19.5548 C   0  0  0  0  0  0  0  0  0  0  0  0
   -4.7555    5.0707  -18.4236 C   0  0  0  0  0  0  0  0  0  0  0  0
   -3.3902    5.2126  -18.4167 N   0  0  0  0  0  0  0  0  0  0  0  0
   -2.6544    5.8151  -19.5094 C   0  0  0  0  0  0  0  0  0  0  0  0
   -1.4186    4.9596  -19.8428 C   0  0  0  0  0  0  0  0  0  0  0  0
   -0.3462    5.9765  -20.0712 C   0  0  0  0  0  0  0  0  0  0  0  0
   -0.7205    7.1987  -19.6821 C   0  0  0  0  0  0  0  0  0  0  0  0
   -2.1083    7.2029  -19.1269 C   0  0  0  0  0  0  0  0  0  0  0  0
   -5.3410    5.1551  -17.2162 N   0  0  0  0  0  0  0  0  0  0  0  0
   -6.6532    4.8423  -17.0835 C   0  0  0  0  0  0  0  0  0  0  0  0
  1  2  2  0
  2  3  1  0
  2  4  1  0
  4  5  2  0
  5  6  1  0
  6  7  2  0
  7  8  1  0
  8  9  2  0
  9 10  1  0
 10 11  2  0
 11 12  1  0
 12 13  1  0
 13 14  1  0
 14 15  1  0
 15 16  2  0
 16 17  1  0
 11 18  1  0
 18 19  2  0
 19  4  1  0
 19  8  1  0
 17 13  1  0
M  END
>  <energy_score>  (2140) 
-34.453188

>  <alias>  (2140) 
None

>  <HIPPO Pose ID>  (2140) 
73582

>  <smiles>  (2140) 
O=C(O)c1cccc2ccc(NC3CC=CC3)nc12

>  <inchikey>  (2140) 
VVYDCWSZYFVZPE-UHFFFAOYSA-N

>  <distance_score>  (2140) 
1.178566

>  <ref_mols>  (2140) 
Z1688a,Z0089a

>  <ref_pdb>  (2140) 
Z1688a

>  <HIPPO Compound ID>  (2140) 
146561

>  <name>  (2140) 
P73582

>  <inspiration_score>  (2140) 
None

$$$$
P73585
     RDKit          3D

 19 20  0  0  0  0  0  0  0  0999 V2000
   -1.4273    4.9383  -21.5653 C   0  0  0  0  0  0  0  0  0  0  0  0
   -1.5264    4.2784  -20.4015 C   0  0  0  0  0  0  0  0  0  0  0  0
   -1.9749    4.8196  -19.0682 C   0  0  0  0  0  0  0  0  0  0  0  0
   -2.7605    6.1367  -19.1197 C   0  0  2  0  0  0  0  0  0  0  0  0
   -2.8063    6.8467  -17.7806 C   0  0  0  0  0  0  0  0  0  0  0  0
   -4.0582    5.9402  -19.7690 N   0  0  0  0  0  0  0  0  0  0  0  0
   -5.1157    5.3052  -19.1127 C   0  0  0  0  0  0  0  0  0  0  0  0
   -6.0806    4.7210  -19.9135 C   0  0  0  0  0  0  0  0  0  0  0  0
   -7.2610    4.2556  -19.3708 C   0  0  0  0  0  0  0  0  0  0  0  0
   -7.4814    4.4261  -18.0248 C   0  0  0  0  0  0  0  0  0  0  0  0
   -8.7225    4.0621  -17.5077 C   0  0  0  0  0  0  0  0  0  0  0  0
   -8.9532    4.1967  -16.1536 C   0  0  0  0  0  0  0  0  0  0  0  0
   -7.9632    4.6985  -15.3228 C   0  0  0  0  0  0  0  0  0  0  0  0
   -6.7266    5.0698  -15.8672 C   0  0  0  0  0  0  0  0  0  0  0  0
   -5.7345    5.6374  -14.9527 C   0  0  0  0  0  0  0  0  0  0  0  0
   -5.8840    6.6488  -14.2899 O   0  0  0  0  0  0  0  0  0  0  0  0
   -4.6439    4.8589  -14.8387 O   0  0  0  0  0  0  0  0  0  0  0  0
   -6.4499    4.9676  -17.2298 C   0  0  0  0  0  0  0  0  0  0  0  0
   -5.2859    5.3965  -17.7843 N   0  0  0  0  0  0  0  0  0  0  0  0
  1  2  2  0
  2  3  1  0
  3  4  1  0
  4  5  1  1
  4  6  1  0
  6  7  1  0
  7  8  2  0
  8  9  1  0
  9 10  2  0
 10 11  1  0
 11 12  2  0
 12 13  1  0
 13 14  2  0
 14 15  1  0
 15 16  2  0
 15 17  1  0
 14 18  1  0
 18 19  2  0
 19  7  1  0
 18 10  1  0
M  END
>  <energy_score>  (2141) 
-27.749304

>  <alias>  (2141) 
None

>  <HIPPO Pose ID>  (2141) 
73585

>  <smiles>  (2141) 
C=CC[C@H](C)Nc1ccc2cccc(C(=O)O)c2n1

>  <inchikey>  (2141) 
BLIPMVQTLXQHHI-JTQLQIEISA-N

>  <distance_score>  (2141) 
1.603793

>  <ref_mols>  (2141) 
Z1688a,Z0089a

>  <ref_pdb>  (2141) 
Z1688a

>  <HIPPO Compound ID>  (2141) 
146563

>  <name>  (2141) 
P73585

>  <inspiration_score>  (2141) 
None

$$$$
P73587
     RDKit          3D

 19 21  0  0  0  0  0  0  0  0999 V2000
   -5.5760    4.6204  -14.2367 O   0  0  0  0  0  0  0  0  0  0  0  0
   -6.5919    5.1718  -14.6186 C   0  0  0  0  0  0  0  0  0  0  0  0
   -7.1891    6.1879  -13.9481 O   0  0  0  0  0  0  0  0  0  0  0  0
   -7.3418    4.8212  -15.8403 C   0  0  0  0  0  0  0  0  0  0  0  0
   -8.6765    4.4169  -15.7203 C   0  0  0  0  0  0  0  0  0  0  0  0
   -9.4035    4.0910  -16.8601 C   0  0  0  0  0  0  0  0  0  0  0  0
   -8.7879    4.0892  -18.0967 C   0  0  0  0  0  0  0  0  0  0  0  0
   -7.4523    4.4695  -18.1927 C   0  0  0  0  0  0  0  0  0  0  0  0
   -6.8287    4.4377  -19.4269 C   0  0  0  0  0  0  0  0  0  0  0  0
   -5.5633    4.9721  -19.5702 C   0  0  0  0  0  0  0  0  0  0  0  0
   -4.9232    5.4578  -18.4529 C   0  0  0  0  0  0  0  0  0  0  0  0
   -3.7122    6.1097  -18.4852 N   0  0  0  0  0  0  0  0  0  0  0  0
   -2.6416    5.6194  -19.3294 C   0  0  2  0  0  0  0  0  0  0  0  0
   -1.3122    5.7819  -18.5995 C   0  0  0  0  0  0  0  0  0  0  0  0
   -0.2269    5.4816  -19.6098 C   0  0  0  0  0  0  0  0  0  0  0  0
   -0.8063    6.2272  -21.1597 S   0  0  0  0  0  0  0  0  0  0  0  0
   -2.5074    6.4845  -20.5813 C   0  0  0  0  0  0  0  0  0  0  0  0
   -5.4712    5.4048  -17.2284 N   0  0  0  0  0  0  0  0  0  0  0  0
   -6.7128    4.9022  -17.0785 C   0  0  0  0  0  0  0  0  0  0  0  0
  1  2  2  0
  2  3  1  0
  2  4  1  0
  4  5  2  0
  5  6  1  0
  6  7  2  0
  7  8  1  0
  8  9  2  0
  9 10  1  0
 10 11  2  0
 11 12  1  0
 13 12  1  1
 13 14  1  0
 14 15  1  0
 15 16  1  0
 16 17  1  0
 11 18  1  0
 18 19  2  0
 19  4  1  0
 19  8  1  0
 17 13  1  0
M  END
>  <energy_score>  (2142) 
-29.837851

>  <alias>  (2142) 
None

>  <HIPPO Pose ID>  (2142) 
73587

>  <smiles>  (2142) 
O=C(O)c1cccc2ccc(N[C@@H]3CCSC3)nc12

>  <inchikey>  (2142) 
RWSHJXBCYCFOMY-SNVBAGLBSA-N

>  <distance_score>  (2142) 
1.312743

>  <ref_mols>  (2142) 
Z1688a,Z0089a

>  <ref_pdb>  (2142) 
Z1688a

>  <HIPPO Compound ID>  (2142) 
146564

>  <name>  (2142) 
P73587

>  <inspiration_score>  (2142) 
None

$$$$
P73589
     RDKit          3D

 19 20  0  0  0  0  0  0  0  0999 V2000
   -0.4552    5.8602  -20.5714 C   0  0  0  0  0  0  0  0  0  0  0  0
   -1.2891    5.2034  -19.4758 C   0  0  0  0  0  0  0  0  0  0  0  0
   -2.7184    5.7685  -19.3984 C   0  0  2  0  0  0  0  0  0  0  0  0
   -2.7033    7.2106  -19.0512 C   0  0  0  0  0  0  0  0  0  0  0  0
   -2.6847    8.3441  -18.7943 N   0  0  0  0  0  0  0  0  0  0  0  0
   -3.4288    4.9818  -18.3992 N   0  0  0  0  0  0  0  0  0  0  0  0
   -4.8103    4.9521  -18.4155 C   0  0  0  0  0  0  0  0  0  0  0  0
   -5.5277    4.6687  -19.5547 C   0  0  0  0  0  0  0  0  0  0  0  0
   -6.8721    4.3962  -19.4404 C   0  0  0  0  0  0  0  0  0  0  0  0
   -7.4895    4.4792  -18.2104 C   0  0  0  0  0  0  0  0  0  0  0  0
   -8.8511    4.2091  -18.1483 C   0  0  0  0  0  0  0  0  0  0  0  0
   -9.4786    4.2103  -16.9229 C   0  0  0  0  0  0  0  0  0  0  0  0
   -8.7487    4.4902  -15.7723 C   0  0  0  0  0  0  0  0  0  0  0  0
   -7.3794    4.7906  -15.8525 C   0  0  0  0  0  0  0  0  0  0  0  0
   -6.6345    5.0559  -14.6029 C   0  0  0  0  0  0  0  0  0  0  0  0
   -5.4966    4.7455  -14.3082 O   0  0  0  0  0  0  0  0  0  0  0  0
   -7.3978    5.7519  -13.7300 O   0  0  0  0  0  0  0  0  0  0  0  0
   -6.7122    4.7954  -17.0780 C   0  0  0  0  0  0  0  0  0  0  0  0
   -5.3882    5.0548  -17.2086 N   0  0  0  0  0  0  0  0  0  0  0  0
  1  2  1  0
  3  2  1  1
  3  4  1  0
  4  5  3  0
  3  6  1  0
  6  7  1  0
  7  8  2  0
  8  9  1  0
  9 10  2  0
 10 11  1  0
 11 12  2  0
 12 13  1  0
 13 14  2  0
 14 15  1  0
 15 16  2  0
 15 17  1  0
 14 18  1  0
 18 19  2  0
 19  7  1  0
 18 10  1  0
M  END
>  <energy_score>  (2143) 
-39.960695

>  <alias>  (2143) 
None

>  <HIPPO Pose ID>  (2143) 
73589

>  <smiles>  (2143) 
CC[C@H](C#N)Nc1ccc2cccc(C(=O)O)c2n1

>  <inchikey>  (2143) 
DPHZTAQSNNORKY-SNVBAGLBSA-N

>  <distance_score>  (2143) 
1.189463

>  <ref_mols>  (2143) 
Z1688a,Z0089a

>  <ref_pdb>  (2143) 
Z1688a

>  <HIPPO Compound ID>  (2143) 
146565

>  <name>  (2143) 
P73589

>  <inspiration_score>  (2143) 
None

$$$$
P73592
     RDKit          3D

 19 20  0  0  0  0  0  0  0  0999 V2000
   -1.4839    3.5086  -19.5613 C   0  0  0  0  0  0  0  0  0  0  0  0
   -2.0185    4.5808  -19.5345 C   0  0  0  0  0  0  0  0  0  0  0  0
   -2.6680    5.8938  -19.5196 C   0  0  2  0  0  0  0  0  0  0  0  0
   -1.6404    7.0281  -19.3743 C   0  0  0  0  0  0  0  0  0  0  0  0
   -0.7934    6.9952  -18.1043 C   0  0  0  0  0  0  0  0  0  0  0  0
   -3.6370    5.9949  -18.4609 N   0  0  0  0  0  0  0  0  0  0  0  0
   -4.8631    5.3933  -18.4488 C   0  0  0  0  0  0  0  0  0  0  0  0
   -5.5098    4.9351  -19.5730 C   0  0  0  0  0  0  0  0  0  0  0  0
   -6.7826    4.4206  -19.4458 C   0  0  0  0  0  0  0  0  0  0  0  0
   -7.4222    4.4631  -18.2221 C   0  0  0  0  0  0  0  0  0  0  0  0
   -8.7652    4.0955  -18.1534 C   0  0  0  0  0  0  0  0  0  0  0  0
   -9.4167    4.1239  -16.9377 C   0  0  0  0  0  0  0  0  0  0  0  0
   -8.7170    4.4772  -15.7905 C   0  0  0  0  0  0  0  0  0  0  0  0
   -7.3707    4.8630  -15.8731 C   0  0  0  0  0  0  0  0  0  0  0  0
   -6.6635    5.2416  -14.6327 C   0  0  0  0  0  0  0  0  0  0  0  0
   -5.5218    4.9949  -14.2962 O   0  0  0  0  0  0  0  0  0  0  0  0
   -7.4711    5.9605  -13.8195 O   0  0  0  0  0  0  0  0  0  0  0  0
   -6.6990    4.8957  -17.0956 C   0  0  0  0  0  0  0  0  0  0  0  0
   -5.4347    5.3543  -17.2314 N   0  0  0  0  0  0  0  0  0  0  0  0
  1  2  3  0
  3  2  1  1
  3  4  1  0
  4  5  1  0
  3  6  1  0
  6  7  1  0
  7  8  2  0
  8  9  1  0
  9 10  2  0
 10 11  1  0
 11 12  2  0
 12 13  1  0
 13 14  2  0
 14 15  1  0
 15 16  2  0
 15 17  1  0
 14 18  1  0
 18 19  2  0
 19  7  1  0
 18 10  1  0
M  END
>  <energy_score>  (2144) 
-43.702396

>  <alias>  (2144) 
None

>  <HIPPO Pose ID>  (2144) 
73592

>  <smiles>  (2144) 
C#C[C@H](CC)Nc1ccc2cccc(C(=O)O)c2n1

>  <inchikey>  (2144) 
LGZOGPNLDUTYDO-LLVKDONJSA-N

>  <distance_score>  (2144) 
1.145198

>  <ref_mols>  (2144) 
Z1688a,Z0089a

>  <ref_pdb>  (2144) 
Z1688a

>  <HIPPO Compound ID>  (2144) 
146567

>  <name>  (2144) 
P73592

>  <inspiration_score>  (2144) 
None

$$$$
P73596
     RDKit          3D

 19 21  0  0  0  0  0  0  0  0999 V2000
   -6.4121    5.8643  -14.2264 O   0  0  0  0  0  0  0  0  0  0  0  0
   -6.8462    4.8068  -14.6477 C   0  0  0  0  0  0  0  0  0  0  0  0
   -6.8543    3.6490  -13.9442 O   0  0  0  0  0  0  0  0  0  0  0  0
   -7.5134    4.6499  -15.9451 C   0  0  0  0  0  0  0  0  0  0  0  0
   -8.8843    4.3646  -15.9302 C   0  0  0  0  0  0  0  0  0  0  0  0
   -9.5650    4.1520  -17.1211 C   0  0  0  0  0  0  0  0  0  0  0  0
   -8.8661    4.1726  -18.3104 C   0  0  0  0  0  0  0  0  0  0  0  0
   -7.4993    4.4502  -18.3013 C   0  0  0  0  0  0  0  0  0  0  0  0
   -6.8105    4.4110  -19.4969 C   0  0  0  0  0  0  0  0  0  0  0  0
   -5.4924    4.8072  -19.5496 C   0  0  0  0  0  0  0  0  0  0  0  0
   -4.8549    5.1382  -18.3767 C   0  0  0  0  0  0  0  0  0  0  0  0
   -3.5304    5.5428  -18.3543 N   0  0  0  0  0  0  0  0  0  0  0  0
   -2.6390    5.7692  -19.4313 C   0  0  2  0  0  0  0  0  0  0  0  0
   -1.7248    4.5694  -19.7442 C   0  0  0  0  0  0  0  0  0  0  0  0
   -0.5739    5.5857  -19.9161 C   0  0  0  0  0  0  0  0  0  0  0  0
   -1.3612    6.5400  -18.9912 C   0  0  1  0  0  0  0  0  0  0  0  0
   -1.3192    7.9406  -19.3244 O   0  0  0  0  0  0  0  0  0  0  0  0
   -5.4723    5.0823  -17.1809 N   0  0  0  0  0  0  0  0  0  0  0  0
   -6.7868    4.7531  -17.1285 C   0  0  0  0  0  0  0  0  0  0  0  0
  1  2  2  0
  2  3  1  0
  2  4  1  0
  4  5  2  0
  5  6  1  0
  6  7  2  0
  7  8  1  0
  8  9  2  0
  9 10  1  0
 10 11  2  0
 11 12  1  0
 13 12  1  1
 13 14  1  0
 14 15  1  0
 15 16  1  0
 16 17  1  6
 11 18  1  0
 18 19  2  0
 19  4  1  0
 19  8  1  0
 16 13  1  0
M  END
>  <energy_score>  (2145) 
-25.219035

>  <alias>  (2145) 
None

>  <HIPPO Pose ID>  (2145) 
73596

>  <smiles>  (2145) 
O=C(O)c1cccc2ccc(N[C@@H]3CC[C@H]3O)nc12

>  <inchikey>  (2145) 
SYVQPWBFFAJGIH-GHMZBOCLSA-N

>  <distance_score>  (2145) 
1.109235

>  <ref_mols>  (2145) 
Z1688a,Z0089a

>  <ref_pdb>  (2145) 
Z1688a

>  <HIPPO Compound ID>  (2145) 
146568

>  <name>  (2145) 
P73596

>  <inspiration_score>  (2145) 
None

$$$$
P73599
     RDKit          3D

 19 20  0  0  0  0  0  0  0  0999 V2000
   -1.9003    4.5776  -18.7329 C   0  0  0  0  0  0  0  0  0  0  0  0
   -2.7566    5.8114  -18.9782 C   0  0  2  0  0  0  0  0  0  0  0  0
   -3.9196    5.4065  -19.7598 N   0  0  0  0  0  0  0  0  0  0  0  0
   -5.1058    5.0679  -19.1050 C   0  0  0  0  0  0  0  0  0  0  0  0
   -6.1265    4.5861  -19.9012 C   0  0  0  0  0  0  0  0  0  0  0  0
   -7.3490    4.2565  -19.3519 C   0  0  0  0  0  0  0  0  0  0  0  0
   -7.5408    4.4365  -18.0015 C   0  0  0  0  0  0  0  0  0  0  0  0
   -8.7844    4.1313  -17.4673 C   0  0  0  0  0  0  0  0  0  0  0  0
   -8.9606    4.2354  -16.1039 C   0  0  0  0  0  0  0  0  0  0  0  0
   -7.9253    4.6717  -15.2876 C   0  0  0  0  0  0  0  0  0  0  0  0
   -6.6801    5.0045  -15.8414 C   0  0  0  0  0  0  0  0  0  0  0  0
   -5.6200    5.4705  -14.9033 C   0  0  0  0  0  0  0  0  0  0  0  0
   -5.8517    5.7384  -13.7333 O   0  0  0  0  0  0  0  0  0  0  0  0
   -4.3776    5.5778  -15.4258 O   0  0  0  0  0  0  0  0  0  0  0  0
   -6.4590    4.8902  -17.2144 C   0  0  0  0  0  0  0  0  0  0  0  0
   -5.2520    5.1883  -17.7712 N   0  0  0  0  0  0  0  0  0  0  0  0
   -1.9679    6.9149  -19.7322 C   0  0  1  0  0  0  0  0  0  0  0  0
   -1.3397    6.4669  -21.0506 C   0  0  0  0  0  0  0  0  0  0  0  0
   -2.8487    8.0157  -20.0116 O   0  0  0  0  0  0  0  0  0  0  0  0
  2  1  1  6
  2  3  1  0
  3  4  1  0
  4  5  2  0
  5  6  1  0
  6  7  2  0
  7  8  1  0
  8  9  2  0
  9 10  1  0
 10 11  2  0
 11 12  1  0
 12 13  2  0
 12 14  1  0
 11 15  1  0
 15 16  2  0
  2 17  1  0
 17 18  1  6
 17 19  1  0
 16  4  1  0
 15  7  1  0
M  END
>  <energy_score>  (2146) 
-47.080359

>  <alias>  (2146) 
None

>  <HIPPO Pose ID>  (2146) 
73599

>  <smiles>  (2146) 
C[C@H](Nc1ccc2cccc(C(=O)O)c2n1)[C@@H](C)O

>  <inchikey>  (2146) 
SEBRYPMKPWSOKP-DTWKUNHWSA-N

>  <distance_score>  (2146) 
1.573552

>  <ref_mols>  (2146) 
Z1688a,Z0089a

>  <ref_pdb>  (2146) 
Z1688a

>  <HIPPO Compound ID>  (2146) 
146569

>  <name>  (2146) 
P73599

>  <inspiration_score>  (2146) 
None

$$$$
P73604
     RDKit          3D

 19 21  0  0  0  0  0  0  0  0999 V2000
   -1.4780    4.6279  -19.4243 C   0  0  0  0  0  0  0  0  0  0  0  0
   -2.6484    5.4243  -18.8396 C   0  0  2  0  0  0  0  0  0  0  0  0
   -3.8176    5.1020  -19.6296 N   0  0  0  0  0  0  0  0  0  0  0  0
   -5.0743    4.9870  -19.0547 C   0  0  0  0  0  0  0  0  0  0  0  0
   -6.0943    4.5281  -19.8673 C   0  0  0  0  0  0  0  0  0  0  0  0
   -7.3417    4.2582  -19.3425 C   0  0  0  0  0  0  0  0  0  0  0  0
   -7.5568    4.4639  -17.9996 C   0  0  0  0  0  0  0  0  0  0  0  0
   -8.8028    4.1494  -17.4793 C   0  0  0  0  0  0  0  0  0  0  0  0
   -8.9952    4.2631  -16.1192 C   0  0  0  0  0  0  0  0  0  0  0  0
   -7.9853    4.7456  -15.2973 C   0  0  0  0  0  0  0  0  0  0  0  0
   -6.7410    5.0984  -15.8395 C   0  0  0  0  0  0  0  0  0  0  0  0
   -5.7158    5.6353  -14.8997 C   0  0  0  0  0  0  0  0  0  0  0  0
   -5.9668    5.8811  -13.7288 O   0  0  0  0  0  0  0  0  0  0  0  0
   -4.4907    5.8589  -15.4253 O   0  0  0  0  0  0  0  0  0  0  0  0
   -6.4918    4.9388  -17.2027 C   0  0  0  0  0  0  0  0  0  0  0  0
   -5.2685    5.2000  -17.7386 N   0  0  0  0  0  0  0  0  0  0  0  0
   -2.3202    6.8981  -18.8313 C   0  0  0  0  0  0  0  0  0  0  0  0
   -2.3245    7.7496  -20.0810 C   0  0  0  0  0  0  0  0  0  0  0  0
   -3.3511    7.9904  -19.0075 C   0  0  0  0  0  0  0  0  0  0  0  0
  2  1  1  6
  2  3  1  0
  3  4  1  0
  4  5  2  0
  5  6  1  0
  6  7  2  0
  7  8  1  0
  8  9  2  0
  9 10  1  0
 10 11  2  0
 11 12  1  0
 12 13  2  0
 12 14  1  0
 11 15  1  0
 15 16  2  0
  2 17  1  0
 17 18  1  0
 18 19  1  0
 16  4  1  0
 19 17  1  0
 15  7  1  0
M  END
>  <energy_score>  (2147) 
-40.417212

>  <alias>  (2147) 
None

>  <HIPPO Pose ID>  (2147) 
73604

>  <smiles>  (2147) 
C[C@H](Nc1ccc2cccc(C(=O)O)c2n1)C1CC1

>  <inchikey>  (2147) 
KYXXCLPKRMTQMF-VIFPVBQESA-N

>  <distance_score>  (2147) 
1.528667

>  <ref_mols>  (2147) 
Z1688a,Z0089a

>  <ref_pdb>  (2147) 
Z1688a

>  <HIPPO Compound ID>  (2147) 
146571

>  <name>  (2147) 
P73604

>  <inspiration_score>  (2147) 
None

$$$$
P73606
     RDKit          3D

 19 21  0  0  0  0  0  0  0  0999 V2000
   -1.4859    4.0696  -19.9591 C   0  0  0  0  0  0  0  0  0  0  0  0
   -2.0174    4.7371  -18.7068 C   0  0  0  0  0  0  0  0  0  0  0  0
   -2.8162    5.9813  -19.0276 C   0  0  0  0  0  0  0  0  0  0  0  0
   -4.0553    5.7397  -19.7845 N   0  0  0  0  0  0  0  0  0  0  0  0
   -5.1852    5.2017  -19.1327 C   0  0  0  0  0  0  0  0  0  0  0  0
   -6.1623    4.6357  -19.9268 C   0  0  0  0  0  0  0  0  0  0  0  0
   -7.3607    4.2316  -19.3736 C   0  0  0  0  0  0  0  0  0  0  0  0
   -7.5735    4.4280  -18.0276 C   0  0  0  0  0  0  0  0  0  0  0  0
   -8.8047    4.0742  -17.4972 C   0  0  0  0  0  0  0  0  0  0  0  0
   -8.9992    4.2029  -16.1385 C   0  0  0  0  0  0  0  0  0  0  0  0
   -7.9942    4.7058  -15.3224 C   0  0  0  0  0  0  0  0  0  0  0  0
   -6.7645    5.0941  -15.8735 C   0  0  0  0  0  0  0  0  0  0  0  0
   -5.7414    5.6446  -14.9399 C   0  0  0  0  0  0  0  0  0  0  0  0
   -5.9800    5.8525  -13.7589 O   0  0  0  0  0  0  0  0  0  0  0  0
   -4.5292    5.9083  -15.4764 O   0  0  0  0  0  0  0  0  0  0  0  0
   -6.5299    4.9629  -17.2418 C   0  0  0  0  0  0  0  0  0  0  0  0
   -5.3498    5.3378  -17.7998 N   0  0  0  0  0  0  0  0  0  0  0  0
   -2.0276    7.2261  -19.3721 C   0  0  0  0  0  0  0  0  0  0  0  0
   -2.7486    7.1461  -18.0631 C   0  0  0  0  0  0  0  0  0  0  0  0
  1  2  1  0
  2  3  1  0
  3  4  1  0
  4  5  1  0
  5  6  2  0
  6  7  1  0
  7  8  2  0
  8  9  1  0
  9 10  2  0
 10 11  1  0
 11 12  2  0
 12 13  1  0
 13 14  2  0
 13 15  1  0
 12 16  1  0
 16 17  2  0
  3 18  1  0
 18 19  1  0
 19  3  1  0
 17  5  1  0
 16  8  1  0
M  END
>  <energy_score>  (2148) 
-39.20057

>  <alias>  (2148) 
None

>  <HIPPO Pose ID>  (2148) 
73606

>  <smiles>  (2148) 
CCC1(Nc2ccc3cccc(C(=O)O)c3n2)CC1

>  <inchikey>  (2148) 
BIEPDLQNEOSLRE-UHFFFAOYSA-N

>  <distance_score>  (2148) 
1.604789

>  <ref_mols>  (2148) 
Z1688a,Z0089a

>  <ref_pdb>  (2148) 
Z1688a

>  <HIPPO Compound ID>  (2148) 
146572

>  <name>  (2148) 
P73606

>  <inspiration_score>  (2148) 
None

$$$$
P73609
     RDKit          3D

 19 22  0  0  0  0  0  0  0  0999 V2000
   -7.1665    6.3948  -13.9947 O   0  0  0  0  0  0  0  0  0  0  0  0
   -6.7301    5.4977  -14.6955 C   0  0  0  0  0  0  0  0  0  0  0  0
   -5.6241    4.8070  -14.3715 O   0  0  0  0  0  0  0  0  0  0  0  0
   -7.3827    4.9820  -15.9019 C   0  0  0  0  0  0  0  0  0  0  0  0
   -8.7146    4.5691  -15.7775 C   0  0  0  0  0  0  0  0  0  0  0  0
   -9.4139    4.1401  -16.8984 C   0  0  0  0  0  0  0  0  0  0  0  0
   -8.7783    4.0778  -18.1220 C   0  0  0  0  0  0  0  0  0  0  0  0
   -7.4479    4.4780  -18.2231 C   0  0  0  0  0  0  0  0  0  0  0  0
   -6.8234    4.3930  -19.4530 C   0  0  0  0  0  0  0  0  0  0  0  0
   -5.5537    4.9087  -19.6129 C   0  0  0  0  0  0  0  0  0  0  0  0
   -4.9038    5.4358  -18.5185 C   0  0  0  0  0  0  0  0  0  0  0  0
   -3.6440    6.0229  -18.6153 N   0  0  0  0  0  0  0  0  0  0  0  0
   -2.6792    5.6742  -19.6414 C   0  0  2  0  0  0  0  0  0  0  0  0
   -1.8105    4.4197  -19.5204 C   0  0  0  0  0  0  0  0  0  0  0  0
   -1.2498    5.7560  -19.3616 C   0  0  0  0  0  0  0  0  0  0  0  0
   -0.0975    6.4713  -19.8960 C   0  0  0  0  0  0  0  0  0  0  0  0
   -0.3851    6.4150  -18.3893 C   0  0  0  0  0  0  0  0  0  0  0  0
   -5.4654    5.4659  -17.2943 N   0  0  0  0  0  0  0  0  0  0  0  0
   -6.7207    4.9829  -17.1283 C   0  0  0  0  0  0  0  0  0  0  0  0
  1  2  2  0
  2  3  1  0
  2  4  1  0
  4  5  2  0
  5  6  1  0
  6  7  2  0
  7  8  1  0
  8  9  2  0
  9 10  1  0
 10 11  2  0
 11 12  1  0
 13 12  1  1
 13 14  1  0
 14 15  1  0
 15 16  1  0
 16 17  1  0
 11 18  1  0
 18 19  2  0
 19  4  1  0
 19  8  1  0
 15 13  1  0
 17 15  1  0
M  END
>  <energy_score>  (2149) 
-40.557691

>  <alias>  (2149) 
None

>  <HIPPO Pose ID>  (2149) 
73609

>  <smiles>  (2149) 
O=C(O)c1cccc2ccc(N[C@@H]3CC34CC4)nc12

>  <inchikey>  (2149) 
HAXAHNMEUZHSMX-LLVKDONJSA-N

>  <distance_score>  (2149) 
1.240544

>  <ref_mols>  (2149) 
Z1688a,Z0089a

>  <ref_pdb>  (2149) 
Z1688a

>  <HIPPO Compound ID>  (2149) 
146575

>  <name>  (2149) 
P73609

>  <inspiration_score>  (2149) 
None

$$$$
P73612
     RDKit          3D

 19 21  0  0  0  0  0  0  0  0999 V2000
   -0.6629    6.2132  -18.0392 C   0  0  0  0  0  0  0  0  0  0  0  0
   -1.1867    5.8290  -19.3983 C   0  0  0  0  0  0  0  0  0  0  0  0
   -0.3645    6.3652  -20.5419 C   0  0  0  0  0  0  0  0  0  0  0  0
   -1.7919    4.4520  -19.5505 C   0  0  0  0  0  0  0  0  0  0  0  0
   -2.6752    5.6618  -19.6264 C   0  0  1  0  0  0  0  0  0  0  0  0
   -3.6350    5.9724  -18.5848 N   0  0  0  0  0  0  0  0  0  0  0  0
   -4.9012    5.3977  -18.5043 C   0  0  0  0  0  0  0  0  0  0  0  0
   -5.5571    4.8967  -19.6059 C   0  0  0  0  0  0  0  0  0  0  0  0
   -6.8339    4.3987  -19.4514 C   0  0  0  0  0  0  0  0  0  0  0  0
   -7.4576    4.4770  -18.2207 C   0  0  0  0  0  0  0  0  0  0  0  0
   -8.7927    4.0958  -18.1301 C   0  0  0  0  0  0  0  0  0  0  0  0
   -9.4242    4.1358  -16.9051 C   0  0  0  0  0  0  0  0  0  0  0  0
   -8.7144    4.5206  -15.7737 C   0  0  0  0  0  0  0  0  0  0  0  0
   -7.3768    4.9297  -15.8824 C   0  0  0  0  0  0  0  0  0  0  0  0
   -6.6546    5.3357  -14.6589 C   0  0  0  0  0  0  0  0  0  0  0  0
   -5.4960    5.1296  -14.3544 O   0  0  0  0  0  0  0  0  0  0  0  0
   -7.4668    6.0244  -13.8256 O   0  0  0  0  0  0  0  0  0  0  0  0
   -6.7227    4.9475  -17.1150 C   0  0  0  0  0  0  0  0  0  0  0  0
   -5.4620    5.4114  -17.2796 N   0  0  0  0  0  0  0  0  0  0  0  0
  1  2  1  0
  2  3  1  0
  2  4  1  0
  4  5  1  0
  5  6  1  1
  6  7  1  0
  7  8  2  0
  8  9  1  0
  9 10  2  0
 10 11  1  0
 11 12  2  0
 12 13  1  0
 13 14  2  0
 14 15  1  0
 15 16  2  0
 15 17  1  0
 14 18  1  0
 18 19  2  0
  5  2  1  0
 19  7  1  0
 18 10  1  0
M  END
>  <energy_score>  (2150) 
-36.084565

>  <alias>  (2150) 
None

>  <HIPPO Pose ID>  (2150) 
73612

>  <smiles>  (2150) 
CC1(C)C[C@H]1Nc1ccc2cccc(C(=O)O)c2n1

>  <inchikey>  (2150) 
YDAVERMSTIOLGS-LLVKDONJSA-N

>  <distance_score>  (2150) 
1.193305

>  <ref_mols>  (2150) 
Z1688a,Z0089a

>  <ref_pdb>  (2150) 
Z1688a

>  <HIPPO Compound ID>  (2150) 
146576

>  <name>  (2150) 
P73612

>  <inspiration_score>  (2150) 
None

$$$$
P73615
     RDKit          3D

 19 21  0  0  0  0  0  0  0  0999 V2000
   -5.4389    5.0773  -14.3728 O   0  0  0  0  0  0  0  0  0  0  0  0
   -6.6025    5.2920  -14.6518 C   0  0  0  0  0  0  0  0  0  0  0  0
   -7.3959    5.9747  -13.7964 O   0  0  0  0  0  0  0  0  0  0  0  0
   -7.3480    4.9035  -15.8669 C   0  0  0  0  0  0  0  0  0  0  0  0
   -8.6879    4.5066  -15.7424 C   0  0  0  0  0  0  0  0  0  0  0  0
   -9.4148    4.1321  -16.8664 C   0  0  0  0  0  0  0  0  0  0  0  0
   -8.8025    4.0965  -18.1006 C   0  0  0  0  0  0  0  0  0  0  0  0
   -7.4671    4.4692  -18.2070 C   0  0  0  0  0  0  0  0  0  0  0  0
   -6.8653    4.3990  -19.4482 C   0  0  0  0  0  0  0  0  0  0  0  0
   -5.5892    4.8927  -19.6202 C   0  0  0  0  0  0  0  0  0  0  0  0
   -4.9078    5.3677  -18.5230 C   0  0  0  0  0  0  0  0  0  0  0  0
   -3.6331    5.9274  -18.6096 N   0  0  0  0  0  0  0  0  0  0  0  0
   -2.7001    5.6173  -19.6771 C   0  0  2  0  0  0  0  0  0  0  0  0
   -1.7384    4.4715  -19.5719 C   0  0  0  0  0  0  0  0  0  0  0  0
   -1.2259    5.8881  -19.5265 C   0  0  2  0  0  0  0  0  0  0  0  0
   -0.6402    6.4444  -18.2759 C   0  0  0  0  0  0  0  0  0  0  0  0
   -0.9548    7.8277  -18.1970 O   0  0  0  0  0  0  0  0  0  0  0  0
   -5.4464    5.3712  -17.2889 N   0  0  0  0  0  0  0  0  0  0  0  0
   -6.7111    4.9229  -17.1086 C   0  0  0  0  0  0  0  0  0  0  0  0
  1  2  2  0
  2  3  1  0
  2  4  1  0
  4  5  2  0
  5  6  1  0
  6  7  2  0
  7  8  1  0
  8  9  2  0
  9 10  1  0
 10 11  2  0
 11 12  1  0
 13 12  1  1
 13 14  1  0
 14 15  1  0
 15 16  1  1
 16 17  1  0
 11 18  1  0
 18 19  2  0
 19  4  1  0
 19  8  1  0
 15 13  1  0
M  END
>  <energy_score>  (2151) 
-37.703954

>  <alias>  (2151) 
None

>  <HIPPO Pose ID>  (2151) 
73615

>  <smiles>  (2151) 
O=C(O)c1cccc2ccc(N[C@@H]3C[C@@H]3CO)nc12

>  <inchikey>  (2151) 
XRXPHVMAFNGARL-MWLCHTKSSA-N

>  <distance_score>  (2151) 
1.20393

>  <ref_mols>  (2151) 
Z1688a,Z0089a

>  <ref_pdb>  (2151) 
Z1688a

>  <HIPPO Compound ID>  (2151) 
146578

>  <name>  (2151) 
P73615

>  <inspiration_score>  (2151) 
None

$$$$
P73619
     RDKit          3D

 19 21  0  0  0  0  0  0  0  0999 V2000
   -5.4143    4.8423  -14.3134 O   0  0  0  0  0  0  0  0  0  0  0  0
   -6.5585    5.1264  -14.6089 C   0  0  0  0  0  0  0  0  0  0  0  0
   -7.3308    5.8207  -13.7423 O   0  0  0  0  0  0  0  0  0  0  0  0
   -7.3033    4.8282  -15.8511 C   0  0  0  0  0  0  0  0  0  0  0  0
   -8.6685    4.5071  -15.7577 C   0  0  0  0  0  0  0  0  0  0  0  0
   -9.4002    4.2050  -16.9000 C   0  0  0  0  0  0  0  0  0  0  0  0
   -8.7754    4.1989  -18.1282 C   0  0  0  0  0  0  0  0  0  0  0  0
   -7.4156    4.4927  -18.2058 C   0  0  0  0  0  0  0  0  0  0  0  0
   -6.8016    4.4222  -19.4385 C   0  0  0  0  0  0  0  0  0  0  0  0
   -5.4666    4.7366  -19.5625 C   0  0  0  0  0  0  0  0  0  0  0  0
   -4.7452    5.0442  -18.4333 C   0  0  0  0  0  0  0  0  0  0  0  0
   -3.3783    5.1416  -18.4206 N   0  0  0  0  0  0  0  0  0  0  0  0
   -2.5829    5.5966  -19.5339 C   0  0  2  0  0  0  0  0  0  0  0  0
   -1.1965    4.9965  -19.4626 C   0  0  0  0  0  0  0  0  0  0  0  0
   -0.3983    5.9669  -20.3032 C   0  0  0  0  0  0  0  0  0  0  0  0
   -0.9792    7.2654  -20.0985 O   0  0  0  0  0  0  0  0  0  0  0  0
   -2.2726    7.0857  -19.4917 C   0  0  0  0  0  0  0  0  0  0  0  0
   -5.3245    5.1306  -17.2230 N   0  0  0  0  0  0  0  0  0  0  0  0
   -6.6400    4.8339  -17.0809 C   0  0  0  0  0  0  0  0  0  0  0  0
  1  2  2  0
  2  3  1  0
  2  4  1  0
  4  5  2  0
  5  6  1  0
  6  7  2  0
  7  8  1  0
  8  9  2  0
  9 10  1  0
 10 11  2  0
 11 12  1  0
 13 12  1  1
 13 14  1  0
 14 15  1  0
 15 16  1  0
 16 17  1  0
 11 18  1  0
 18 19  2  0
 19  4  1  0
 19  8  1  0
 17 13  1  0
M  END
>  <energy_score>  (2152) 
-31.799061

>  <alias>  (2152) 
None

>  <HIPPO Pose ID>  (2152) 
73619

>  <smiles>  (2152) 
O=C(O)c1cccc2ccc(N[C@@H]3CCOC3)nc12

>  <inchikey>  (2152) 
GASMEAJVUJSWRX-SNVBAGLBSA-N

>  <distance_score>  (2152) 
1.193905

>  <ref_mols>  (2152) 
Z1688a,Z0089a

>  <ref_pdb>  (2152) 
Z1688a

>  <HIPPO Compound ID>  (2152) 
146579

>  <name>  (2152) 
P73619

>  <inspiration_score>  (2152) 
None

$$$$
P73622
     RDKit          3D

 19 20  0  0  0  0  0  0  0  0999 V2000
   -1.5215    4.6176  -19.6860 C   0  0  0  0  0  0  0  0  0  0  0  0
   -2.6223    5.3081  -18.8792 C   0  0  1  0  0  0  0  0  0  0  0  0
   -2.2664    6.7522  -18.4846 C   0  0  0  0  0  0  0  0  0  0  0  0
   -1.3426    6.8656  -17.2751 C   0  0  0  0  0  0  0  0  0  0  0  0
    0.3686    6.6216  -17.6877 Cl  0  0  0  0  0  0  0  0  0  0  0  0
   -3.8309    5.3550  -19.7077 N   0  0  0  0  0  0  0  0  0  0  0  0
   -5.0429    5.0313  -19.0885 C   0  0  0  0  0  0  0  0  0  0  0  0
   -6.0851    4.6165  -19.8942 C   0  0  0  0  0  0  0  0  0  0  0  0
   -7.3084    4.2883  -19.3418 C   0  0  0  0  0  0  0  0  0  0  0  0
   -7.4959    4.4524  -17.9886 C   0  0  0  0  0  0  0  0  0  0  0  0
   -8.7392    4.1477  -17.4464 C   0  0  0  0  0  0  0  0  0  0  0  0
   -8.9162    4.2613  -16.0831 C   0  0  0  0  0  0  0  0  0  0  0  0
   -7.8822    4.7133  -15.2736 C   0  0  0  0  0  0  0  0  0  0  0  0
   -6.6394    5.0480  -15.8329 C   0  0  0  0  0  0  0  0  0  0  0  0
   -5.5855    5.5549  -14.9062 C   0  0  0  0  0  0  0  0  0  0  0  0
   -5.7936    5.7504  -13.7180 O   0  0  0  0  0  0  0  0  0  0  0  0
   -4.3802    5.8097  -15.4670 O   0  0  0  0  0  0  0  0  0  0  0  0
   -6.4161    4.9081  -17.2036 C   0  0  0  0  0  0  0  0  0  0  0  0
   -5.2069    5.1932  -17.7602 N   0  0  0  0  0  0  0  0  0  0  0  0
  2  1  1  6
  2  3  1  0
  3  4  1  0
  4  5  1  0
  2  6  1  0
  6  7  1  0
  7  8  2  0
  8  9  1  0
  9 10  2  0
 10 11  1  0
 11 12  2  0
 12 13  1  0
 13 14  2  0
 14 15  1  0
 15 16  2  0
 15 17  1  0
 14 18  1  0
 18 19  2  0
 19  7  1  0
 18 10  1  0
M  END
>  <energy_score>  (2153) 
-42.795062

>  <alias>  (2153) 
None

>  <HIPPO Pose ID>  (2153) 
73622

>  <smiles>  (2153) 
C[C@@H](CCCl)Nc1ccc2cccc(C(=O)O)c2n1

>  <inchikey>  (2153) 
JXNDZMKBUSSRAQ-VIFPVBQESA-N

>  <distance_score>  (2153) 
1.608379

>  <ref_mols>  (2153) 
Z1688a,Z0089a

>  <ref_pdb>  (2153) 
Z1688a

>  <HIPPO Compound ID>  (2153) 
146580

>  <name>  (2153) 
P73622

>  <inspiration_score>  (2153) 
None

$$$$
P73625
     RDKit          3D

 19 21  0  0  0  0  0  0  0  0999 V2000
   -1.4473    3.5362  -19.5912 C   0  0  0  0  0  0  0  0  0  0  0  0
   -1.9280    4.6267  -19.4734 C   0  0  0  0  0  0  0  0  0  0  0  0
   -2.5031    5.9288  -19.3007 C   0  0  0  0  0  0  0  0  0  0  0  0
   -3.5191    6.0081  -18.2691 N   0  0  0  0  0  0  0  0  0  0  0  0
   -4.7801    5.4321  -18.3283 C   0  0  0  0  0  0  0  0  0  0  0  0
   -5.3398    4.9672  -19.4979 C   0  0  0  0  0  0  0  0  0  0  0  0
   -6.6236    4.4590  -19.4655 C   0  0  0  0  0  0  0  0  0  0  0  0
   -7.3606    4.5020  -18.2919 C   0  0  0  0  0  0  0  0  0  0  0  0
   -8.7020    4.1120  -18.2970 C   0  0  0  0  0  0  0  0  0  0  0  0
   -9.4290    4.1421  -17.1215 C   0  0  0  0  0  0  0  0  0  0  0  0
   -8.8088    4.5396  -15.9424 C   0  0  0  0  0  0  0  0  0  0  0  0
   -7.4745    4.9670  -15.9458 C   0  0  0  0  0  0  0  0  0  0  0  0
   -6.9292    5.4866  -14.6600 C   0  0  0  0  0  0  0  0  0  0  0  0
   -7.6439    5.7513  -13.7041 O   0  0  0  0  0  0  0  0  0  0  0  0
   -5.5901    5.6697  -14.6242 O   0  0  0  0  0  0  0  0  0  0  0  0
   -6.7276    4.9625  -17.1243 C   0  0  0  0  0  0  0  0  0  0  0  0
   -5.4456    5.4047  -17.1526 N   0  0  0  0  0  0  0  0  0  0  0  0
   -2.5655    6.8475  -20.4912 C   0  0  0  0  0  0  0  0  0  0  0  0
   -1.5414    7.0938  -19.4299 C   0  0  0  0  0  0  0  0  0  0  0  0
  1  2  3  0
  2  3  1  0
  3  4  1  0
  4  5  1  0
  5  6  2  0
  6  7  1  0
  7  8  2  0
  8  9  1  0
  9 10  2  0
 10 11  1  0
 11 12  2  0
 12 13  1  0
 13 14  2  0
 13 15  1  0
 12 16  1  0
 16 17  2  0
  3 18  1  0
 18 19  1  0
 19  3  1  0
 17  5  1  0
 16  8  1  0
M  END
>  <energy_score>  (2154) 
-28.437281

>  <alias>  (2154) 
None

>  <HIPPO Pose ID>  (2154) 
73625

>  <smiles>  (2154) 
C#CC1(Nc2ccc3cccc(C(=O)O)c3n2)CC1

>  <inchikey>  (2154) 
BHJLWJPYNLPPSK-UHFFFAOYSA-N

>  <distance_score>  (2154) 
1.837976

>  <ref_mols>  (2154) 
Z1688a,Z0089a

>  <ref_pdb>  (2154) 
Z1688a

>  <HIPPO Compound ID>  (2154) 
146583

>  <name>  (2154) 
P73625

>  <inspiration_score>  (2154) 
None

$$$$
P73626
     RDKit          3D

 19 21  0  0  0  0  0  0  0  0999 V2000
   -6.1053    6.5389  -14.5994 O   0  0  0  0  0  0  0  0  0  0  0  0
   -6.7698    5.5246  -14.6958 C   0  0  0  0  0  0  0  0  0  0  0  0
   -7.0290    4.7576  -13.6193 O   0  0  0  0  0  0  0  0  0  0  0  0
   -7.4316    4.9929  -15.9014 C   0  0  0  0  0  0  0  0  0  0  0  0
   -8.7653    4.5728  -15.8065 C   0  0  0  0  0  0  0  0  0  0  0  0
   -9.4531    4.1667  -16.9448 C   0  0  0  0  0  0  0  0  0  0  0  0
   -8.8038    4.1263  -18.1614 C   0  0  0  0  0  0  0  0  0  0  0  0
   -7.4633    4.4945  -18.2312 C   0  0  0  0  0  0  0  0  0  0  0  0
   -6.8082    4.3806  -19.4438 C   0  0  0  0  0  0  0  0  0  0  0  0
   -5.4951    4.7874  -19.5552 C   0  0  0  0  0  0  0  0  0  0  0  0
   -4.8465    5.2529  -18.4345 C   0  0  0  0  0  0  0  0  0  0  0  0
   -3.5128    5.6244  -18.4512 N   0  0  0  0  0  0  0  0  0  0  0  0
   -2.6583    5.8571  -19.5598 C   0  0  2  0  0  0  0  0  0  0  0  0
   -1.7688    4.6207  -19.8732 C   0  0  0  0  0  0  0  0  0  0  0  0
   -0.4984    5.5045  -19.9085 C   0  0  0  0  0  0  0  0  0  0  0  0
   -1.3373    6.6087  -19.2433 C   0  0  0  0  0  0  0  0  0  0  0  0
   -1.0630    7.6467  -18.6777 O   0  0  0  0  0  0  0  0  0  0  0  0
   -5.4495    5.3355  -17.2366 N   0  0  0  0  0  0  0  0  0  0  0  0
   -6.7451    4.9651  -17.1143 C   0  0  0  0  0  0  0  0  0  0  0  0
  1  2  2  0
  2  3  1  0
  2  4  1  0
  4  5  2  0
  5  6  1  0
  6  7  2  0
  7  8  1  0
  8  9  2  0
  9 10  1  0
 10 11  2  0
 11 12  1  0
 13 12  1  1
 13 14  1  0
 14 15  1  0
 15 16  1  0
 16 17  2  0
 11 18  1  0
 18 19  2  0
 19  4  1  0
 19  8  1  0
 16 13  1  0
M  END
>  <energy_score>  (2155) 
-30.091674

>  <alias>  (2155) 
None

>  <HIPPO Pose ID>  (2155) 
73626

>  <smiles>  (2155) 
O=C(O)c1cccc2ccc(N[C@@H]3CCC3=O)nc12

>  <inchikey>  (2155) 
POIDFLFADDFXQY-SNVBAGLBSA-N

>  <distance_score>  (2155) 
1.166156

>  <ref_mols>  (2155) 
Z1688a,Z0089a

>  <ref_pdb>  (2155) 
Z1688a

>  <HIPPO Compound ID>  (2155) 
146584

>  <name>  (2155) 
P73626

>  <inspiration_score>  (2155) 
None

$$$$
P73633
     RDKit          3D

 19 21  0  0  0  0  0  0  0  0999 V2000
   -6.2007    6.1018  -13.8049 O   0  0  0  0  0  0  0  0  0  0  0  0
   -5.8855    5.7719  -14.9390 C   0  0  0  0  0  0  0  0  0  0  0  0
   -4.6330    5.9544  -15.4132 O   0  0  0  0  0  0  0  0  0  0  0  0
   -6.8580    5.1608  -15.8877 C   0  0  0  0  0  0  0  0  0  0  0  0
   -8.0956    4.7572  -15.3681 C   0  0  0  0  0  0  0  0  0  0  0  0
   -9.0606    4.2143  -16.2064 C   0  0  0  0  0  0  0  0  0  0  0  0
   -8.8260    4.0782  -17.5578 C   0  0  0  0  0  0  0  0  0  0  0  0
   -7.5837    4.4400  -18.0542 C   0  0  0  0  0  0  0  0  0  0  0  0
   -7.3200    4.2096  -19.3864 C   0  0  0  0  0  0  0  0  0  0  0  0
   -6.0851    4.5563  -19.8953 C   0  0  0  0  0  0  0  0  0  0  0  0
   -5.1397    5.1372  -19.0751 C   0  0  0  0  0  0  0  0  0  0  0  0
   -3.8868    5.4592  -19.6394 N   0  0  0  0  0  0  0  0  0  0  0  0
   -2.8623    6.1093  -18.8794 C   0  0  1  0  0  0  0  0  0  0  0  0
   -2.0334    5.1088  -18.0624 C   0  0  0  0  0  0  0  0  0  0  0  0
   -0.9661    5.1167  -19.1715 C   0  0  2  0  0  0  0  0  0  0  0  0
    0.3124    5.2383  -18.7467 F   0  0  0  0  0  0  0  0  0  0  0  0
   -1.6085    6.4099  -19.7125 C   0  0  0  0  0  0  0  0  0  0  0  0
   -5.3647    5.3410  -17.7613 N   0  0  0  0  0  0  0  0  0  0  0  0
   -6.5712    4.9955  -17.2424 C   0  0  0  0  0  0  0  0  0  0  0  0
  1  2  2  0
  2  3  1  0
  2  4  1  0
  4  5  2  0
  5  6  1  0
  6  7  2  0
  7  8  1  0
  8  9  2  0
  9 10  1  0
 10 11  2  0
 11 12  1  0
 13 12  1  6
 13 14  1  0
 14 15  1  0
 15 16  1  1
 15 17  1  0
 11 18  1  0
 18 19  2  0
 19  4  1  0
 19  8  1  0
 17 13  1  0
M  END
>  <energy_score>  (2156) 
-28.843966

>  <alias>  (2156) 
None

>  <HIPPO Pose ID>  (2156) 
73633

>  <smiles>  (2156) 
O=C(O)c1cccc2ccc(N[C@H]3C[C@H](F)C3)nc12

>  <inchikey>  (2156) 
ADUZMLBZDAUIRT-MGCOHNPYSA-N

>  <distance_score>  (2156) 
1.546319

>  <ref_mols>  (2156) 
Z1688a,Z0089a

>  <ref_pdb>  (2156) 
Z1688a

>  <HIPPO Compound ID>  (2156) 
146586

>  <name>  (2156) 
P73633

>  <inspiration_score>  (2156) 
None

$$$$
P73637
     RDKit          3D

 19 21  0  0  0  0  0  0  0  0999 V2000
   -1.2043    8.0049  -19.8694 C   0  0  0  0  0  0  0  0  0  0  0  0
   -1.3344    6.6264  -19.2522 C   0  0  2  0  0  0  0  0  0  0  0  0
   -0.5422    5.4892  -19.9414 C   0  0  0  0  0  0  0  0  0  0  0  0
   -1.7424    4.5625  -19.6530 C   0  0  0  0  0  0  0  0  0  0  0  0
   -2.6202    5.8291  -19.6044 C   0  0  1  0  0  0  0  0  0  0  0  0
   -3.5451    5.8421  -18.5356 N   0  0  0  0  0  0  0  0  0  0  0  0
   -4.8297    5.3255  -18.4764 C   0  0  0  0  0  0  0  0  0  0  0  0
   -5.4936    4.8815  -19.5955 C   0  0  0  0  0  0  0  0  0  0  0  0
   -6.7801    4.4080  -19.4579 C   0  0  0  0  0  0  0  0  0  0  0  0
   -7.4074    4.4668  -18.2277 C   0  0  0  0  0  0  0  0  0  0  0  0
   -8.7536    4.1128  -18.1461 C   0  0  0  0  0  0  0  0  0  0  0  0
   -9.3930    4.1428  -16.9240 C   0  0  0  0  0  0  0  0  0  0  0  0
   -8.6806    4.4937  -15.7840 C   0  0  0  0  0  0  0  0  0  0  0  0
   -7.3311    4.8691  -15.8793 C   0  0  0  0  0  0  0  0  0  0  0  0
   -6.6081    5.2365  -14.6441 C   0  0  0  0  0  0  0  0  0  0  0  0
   -5.4614    4.9873  -14.3265 O   0  0  0  0  0  0  0  0  0  0  0  0
   -7.4057    5.9459  -13.8134 O   0  0  0  0  0  0  0  0  0  0  0  0
   -6.6670    4.8916  -17.1074 C   0  0  0  0  0  0  0  0  0  0  0  0
   -5.3922    5.3218  -17.2538 N   0  0  0  0  0  0  0  0  0  0  0  0
  2  1  1  6
  2  3  1  0
  3  4  1  0
  4  5  1  0
  5  6  1  1
  6  7  1  0
  7  8  2  0
  8  9  1  0
  9 10  2  0
 10 11  1  0
 11 12  2  0
 12 13  1  0
 13 14  2  0
 14 15  1  0
 15 16  2  0
 15 17  1  0
 14 18  1  0
 18 19  2  0
  5  2  1  0
 19  7  1  0
 18 10  1  0
M  END
>  <energy_score>  (2157) 
-42.020429

>  <alias>  (2157) 
None

>  <HIPPO Pose ID>  (2157) 
73637

>  <smiles>  (2157) 
C[C@@H]1CC[C@H]1Nc1ccc2cccc(C(=O)O)c2n1

>  <inchikey>  (2157) 
KTWWGBHYCFQPMP-BXKDBHETSA-N

>  <distance_score>  (2157) 
1.167781

>  <ref_mols>  (2157) 
Z1688a,Z0089a

>  <ref_pdb>  (2157) 
Z1688a

>  <HIPPO Compound ID>  (2157) 
146587

>  <name>  (2157) 
P73637

>  <inspiration_score>  (2157) 
None

$$$$
P73645
     RDKit          3D

 19 21  0  0  0  0  0  0  0  0999 V2000
    0.9579    6.0399  -18.1312 C   0  0  0  0  0  0  0  0  0  0  0  0
   -0.5421    6.2332  -17.9730 C   0  0  0  0  0  0  0  0  0  0  0  0
   -1.2393    6.1994  -19.2985 C   0  0  1  0  0  0  0  0  0  0  0  0
   -1.6358    4.8853  -19.9178 C   0  0  0  0  0  0  0  0  0  0  0  0
   -2.6943    5.8346  -19.4271 C   0  0  1  0  0  0  0  0  0  0  0  0
   -3.4997    5.4800  -18.2795 N   0  0  0  0  0  0  0  0  0  0  0  0
   -4.8428    5.1277  -18.3366 C   0  0  0  0  0  0  0  0  0  0  0  0
   -5.4557    4.7674  -19.5161 C   0  0  0  0  0  0  0  0  0  0  0  0
   -6.7842    4.4014  -19.4909 C   0  0  0  0  0  0  0  0  0  0  0  0
   -7.4979    4.4617  -18.3097 C   0  0  0  0  0  0  0  0  0  0  0  0
   -8.8642    4.1796  -18.3341 C   0  0  0  0  0  0  0  0  0  0  0  0
   -9.5780    4.1613  -17.1526 C   0  0  0  0  0  0  0  0  0  0  0  0
   -8.9136    4.3866  -15.9545 C   0  0  0  0  0  0  0  0  0  0  0  0
   -7.5474    4.6882  -15.9549 C   0  0  0  0  0  0  0  0  0  0  0  0
   -6.8970    4.8719  -14.6529 C   0  0  0  0  0  0  0  0  0  0  0  0
   -6.5058    5.9465  -14.2330 O   0  0  0  0  0  0  0  0  0  0  0  0
   -6.8664    3.7162  -13.9482 O   0  0  0  0  0  0  0  0  0  0  0  0
   -6.8069    4.7816  -17.1286 C   0  0  0  0  0  0  0  0  0  0  0  0
   -5.4942    5.1121  -17.1575 N   0  0  0  0  0  0  0  0  0  0  0  0
  1  2  1  0
  3  2  1  1
  3  4  1  0
  4  5  1  0
  5  6  1  1
  6  7  1  0
  7  8  2  0
  8  9  1  0
  9 10  2  0
 10 11  1  0
 11 12  2  0
 12 13  1  0
 13 14  2  0
 14 15  1  0
 15 16  2  0
 15 17  1  0
 14 18  1  0
 18 19  2  0
  5  3  1  0
 19  7  1  0
 18 10  1  0
M  END
>  <energy_score>  (2158) 
-21.116946

>  <alias>  (2158) 
None

>  <HIPPO Pose ID>  (2158) 
73645

>  <smiles>  (2158) 
CC[C@H]1C[C@H]1Nc1ccc2cccc(C(=O)O)c2n1

>  <inchikey>  (2158) 
YSRVWMFAKCLLAV-JOYOIKCWSA-N

>  <distance_score>  (2158) 
1.130763

>  <ref_mols>  (2158) 
Z1688a,Z0089a

>  <ref_pdb>  (2158) 
Z1688a

>  <HIPPO Compound ID>  (2158) 
146590

>  <name>  (2158) 
P73645

>  <inspiration_score>  (2158) 
None

$$$$
P73646
     RDKit          3D

 19 21  0  0  0  0  0  0  0  0999 V2000
   -6.2244    6.5447  -14.1317 O   0  0  0  0  0  0  0  0  0  0  0  0
   -6.0063    5.5615  -14.8177 C   0  0  0  0  0  0  0  0  0  0  0  0
   -4.9151    4.7948  -14.6508 O   0  0  0  0  0  0  0  0  0  0  0  0
   -6.9191    5.0180  -15.8250 C   0  0  0  0  0  0  0  0  0  0  0  0
   -8.1921    4.6263  -15.3942 C   0  0  0  0  0  0  0  0  0  0  0  0
   -9.1076    4.1455  -16.3190 C   0  0  0  0  0  0  0  0  0  0  0  0
   -8.7753    4.0615  -17.6550 C   0  0  0  0  0  0  0  0  0  0  0  0
   -7.5009    4.4434  -18.0561 C   0  0  0  0  0  0  0  0  0  0  0  0
   -7.1722    4.3056  -19.3852 C   0  0  0  0  0  0  0  0  0  0  0  0
   -5.9396    4.7476  -19.8228 C   0  0  0  0  0  0  0  0  0  0  0  0
   -5.0280    5.2750  -18.9243 C   0  0  0  0  0  0  0  0  0  0  0  0
   -3.7851    5.7707  -19.4032 N   0  0  0  0  0  0  0  0  0  0  0  0
   -3.5743    5.9538  -20.7774 O   0  0  0  0  0  0  0  0  0  0  0  0
   -2.5648    5.5772  -18.6689 C   0  0  0  0  0  0  0  0  0  0  0  0
   -1.5881    4.5690  -19.3279 C   0  0  0  0  0  0  0  0  0  0  0  0
   -0.4504    5.5297  -18.9153 C   0  0  0  0  0  0  0  0  0  0  0  0
   -1.4977    6.6663  -18.9239 C   0  0  0  0  0  0  0  0  0  0  0  0
   -5.3184    5.3602  -17.6069 N   0  0  0  0  0  0  0  0  0  0  0  0
   -6.5342    4.9510  -17.1632 C   0  0  0  0  0  0  0  0  0  0  0  0
  1  2  2  0
  2  3  1  0
  2  4  1  0
  4  5  2  0
  5  6  1  0
  6  7  2  0
  7  8  1  0
  8  9  2  0
  9 10  1  0
 10 11  2  0
 11 12  1  0
 12 13  1  0
 12 14  1  0
 14 15  1  0
 15 16  1  0
 16 17  1  0
 11 18  1  0
 18 19  2  0
 19  4  1  0
 19  8  1  0
 17 14  1  0
M  END
>  <energy_score>  (2159) 
-37.296442

>  <alias>  (2159) 
None

>  <HIPPO Pose ID>  (2159) 
73646

>  <smiles>  (2159) 
O=C(O)c1cccc2ccc(N(O)C3CCC3)nc12

>  <inchikey>  (2159) 
YAVJOMVRTRGEDK-UHFFFAOYSA-N

>  <distance_score>  (2159) 
1.414894

>  <ref_mols>  (2159) 
Z1688a,Z0089a

>  <ref_pdb>  (2159) 
Z1688a

>  <HIPPO Compound ID>  (2159) 
146591

>  <name>  (2159) 
P73646

>  <inspiration_score>  (2159) 
None

$$$$
P73647
     RDKit          3D

 19 20  0  0  0  0  0  0  0  0999 V2000
   -1.2738    5.4652  -21.5129 C   0  0  0  0  0  0  0  0  0  0  0  0
   -1.8208    4.9020  -20.2091 C   0  0  0  0  0  0  0  0  0  0  0  0
   -2.7088    5.8949  -19.4300 C   0  0  2  0  0  0  0  0  0  0  0  0
   -1.9171    7.0493  -18.7813 C   0  0  0  0  0  0  0  0  0  0  0  0
   -1.6457    8.4832  -19.8752 S   0  0  0  0  0  0  0  0  0  0  0  0
   -3.3719    5.1261  -18.3772 N   0  0  0  0  0  0  0  0  0  0  0  0
   -4.7492    5.0092  -18.3920 C   0  0  0  0  0  0  0  0  0  0  0  0
   -5.4483    4.7060  -19.5379 C   0  0  0  0  0  0  0  0  0  0  0  0
   -6.7874    4.4071  -19.4396 C   0  0  0  0  0  0  0  0  0  0  0  0
   -7.4205    4.4788  -18.2153 C   0  0  0  0  0  0  0  0  0  0  0  0
   -8.7849    4.2019  -18.1614 C   0  0  0  0  0  0  0  0  0  0  0  0
   -9.4296    4.2067  -16.9434 C   0  0  0  0  0  0  0  0  0  0  0  0
   -8.7118    4.4898  -15.7871 C   0  0  0  0  0  0  0  0  0  0  0  0
   -7.3418    4.7951  -15.8540 C   0  0  0  0  0  0  0  0  0  0  0  0
   -6.6132    5.0751  -14.5966 C   0  0  0  0  0  0  0  0  0  0  0  0
   -5.4659    4.8064  -14.2977 O   0  0  0  0  0  0  0  0  0  0  0  0
   -7.4044    5.7336  -13.7190 O   0  0  0  0  0  0  0  0  0  0  0  0
   -6.6598    4.8026  -17.0731 C   0  0  0  0  0  0  0  0  0  0  0  0
   -5.3398    5.0867  -17.1883 N   0  0  0  0  0  0  0  0  0  0  0  0
  1  2  1  0
  3  2  1  1
  3  4  1  0
  4  5  1  0
  3  6  1  0
  6  7  1  0
  7  8  2  0
  8  9  1  0
  9 10  2  0
 10 11  1  0
 11 12  2  0
 12 13  1  0
 13 14  2  0
 14 15  1  0
 15 16  2  0
 15 17  1  0
 14 18  1  0
 18 19  2  0
 19  7  1  0
 18 10  1  0
M  END
>  <energy_score>  (2160) 
-60.820379

>  <alias>  (2160) 
None

>  <HIPPO Pose ID>  (2160) 
73647

>  <smiles>  (2160) 
CC[C@H](CS)Nc1ccc2cccc(C(=O)O)c2n1

>  <inchikey>  (2160) 
ZTQOAMWHZHBPSK-SNVBAGLBSA-N

>  <distance_score>  (2160) 
1.181524

>  <ref_mols>  (2160) 
Z1688a,Z0089a

>  <ref_pdb>  (2160) 
Z1688a

>  <HIPPO Compound ID>  (2160) 
146592

>  <name>  (2160) 
P73647

>  <inspiration_score>  (2160) 
None

$$$$
P73650
     RDKit          3D

 19 21  0  0  0  0  0  0  0  0999 V2000
   -6.4568    6.1519  -14.3153 O   0  0  0  0  0  0  0  0  0  0  0  0
   -6.8192    5.0510  -14.6892 C   0  0  0  0  0  0  0  0  0  0  0  0
   -6.7212    3.9199  -13.9499 O   0  0  0  0  0  0  0  0  0  0  0  0
   -7.4932    4.7891  -15.9656 C   0  0  0  0  0  0  0  0  0  0  0  0
   -8.8425    4.4178  -15.9161 C   0  0  0  0  0  0  0  0  0  0  0  0
   -9.5196    4.1139  -17.0883 C   0  0  0  0  0  0  0  0  0  0  0  0
   -8.8294    4.0993  -18.2837 C   0  0  0  0  0  0  0  0  0  0  0  0
   -7.4810    4.4559  -18.3071 C   0  0  0  0  0  0  0  0  0  0  0  0
   -6.7970    4.3916  -19.5061 C   0  0  0  0  0  0  0  0  0  0  0  0
   -5.5219    4.9075  -19.5983 C   0  0  0  0  0  0  0  0  0  0  0  0
   -4.9273    5.4013  -18.4615 C   0  0  0  0  0  0  0  0  0  0  0  0
   -3.7133    6.0816  -18.5098 N   0  0  0  0  0  0  0  0  0  0  0  0
   -2.5386    5.2533  -18.7238 C   0  0  1  0  0  0  0  0  0  0  0  0
   -2.1767    5.1902  -20.1712 C   0  0  0  0  0  0  0  0  0  0  0  0
   -0.8889    5.4710  -20.3935 C   0  0  0  0  0  0  0  0  0  0  0  0
   -0.1669    5.7652  -19.1262 C   0  0  0  0  0  0  0  0  0  0  0  0
   -1.3115    5.9764  -18.1390 C   0  0  0  0  0  0  0  0  0  0  0  0
   -5.5171    5.3474  -17.2529 N   0  0  0  0  0  0  0  0  0  0  0  0
   -6.7884    4.8855  -17.1628 C   0  0  0  0  0  0  0  0  0  0  0  0
  1  2  2  0
  2  3  1  0
  2  4  1  0
  4  5  2  0
  5  6  1  0
  6  7  2  0
  7  8  1  0
  8  9  2  0
  9 10  1  0
 10 11  2  0
 11 12  1  0
 13 12  1  6
 13 14  1  0
 14 15  2  0
 15 16  1  0
 16 17  1  0
 11 18  1  0
 18 19  2  0
 19  4  1  0
 19  8  1  0
 17 13  1  0
M  END
>  <energy_score>  (2161) 
-16.861186

>  <alias>  (2161) 
None

>  <HIPPO Pose ID>  (2161) 
73650

>  <smiles>  (2161) 
O=C(O)c1cccc2ccc(N[C@H]3C=CCC3)nc12

>  <inchikey>  (2161) 
BOTFZIGDVXGNIN-NSHDSACASA-N

>  <distance_score>  (2161) 
1.176781

>  <ref_mols>  (2161) 
Z1688a,Z0089a

>  <ref_pdb>  (2161) 
Z1688a

>  <HIPPO Compound ID>  (2161) 
146593

>  <name>  (2161) 
P73650

>  <inspiration_score>  (2161) 
None

$$$$
P73651
     RDKit          3D

 19 21  0  0  0  0  0  0  0  0999 V2000
   -5.0358    5.4290  -14.5665 O   0  0  0  0  0  0  0  0  0  0  0  0
   -6.2037    5.6680  -14.8010 C   0  0  0  0  0  0  0  0  0  0  0  0
   -6.9045    6.5263  -14.0283 O   0  0  0  0  0  0  0  0  0  0  0  0
   -7.0522    5.1171  -15.8706 C   0  0  0  0  0  0  0  0  0  0  0  0
   -8.3277    4.6388  -15.5355 C   0  0  0  0  0  0  0  0  0  0  0  0
   -9.1488    4.1142  -16.5230 C   0  0  0  0  0  0  0  0  0  0  0  0
   -8.6933    4.0170  -17.8226 C   0  0  0  0  0  0  0  0  0  0  0  0
   -7.4126    4.4698  -18.1354 C   0  0  0  0  0  0  0  0  0  0  0  0
   -6.9595    4.3310  -19.4330 C   0  0  0  0  0  0  0  0  0  0  0  0
   -5.7680    4.9221  -19.7993 C   0  0  0  0  0  0  0  0  0  0  0  0
   -5.0378    5.6057  -18.8509 C   0  0  0  0  0  0  0  0  0  0  0  0
   -3.9383    6.3829  -19.2583 N   0  0  0  0  0  0  0  0  0  0  0  0
   -2.6152    5.7406  -19.4749 C   0  0  0  0  0  0  0  0  0  0  0  0
   -2.1118    4.8062  -18.3944 C   0  0  0  0  0  0  0  0  0  0  0  0
   -1.9014    5.7336  -16.8415 S   0  0  0  0  0  0  0  0  0  0  0  0
   -1.5622    6.6172  -20.1299 C   0  0  0  0  0  0  0  0  0  0  0  0
   -2.1595    5.4784  -20.8963 C   0  0  0  0  0  0  0  0  0  0  0  0
   -5.3971    5.6384  -17.5542 N   0  0  0  0  0  0  0  0  0  0  0  0
   -6.5723    5.0782  -17.1807 C   0  0  0  0  0  0  0  0  0  0  0  0
  1  2  2  0
  2  3  1  0
  2  4  1  0
  4  5  2  0
  5  6  1  0
  6  7  2  0
  7  8  1  0
  8  9  2  0
  9 10  1  0
 10 11  2  0
 11 12  1  0
 12 13  1  0
 13 14  1  0
 14 15  1  0
 13 16  1  0
 16 17  1  0
 11 18  1  0
 18 19  2  0
 19  4  1  0
 19  8  1  0
 17 13  1  0
M  END
>  <energy_score>  (2162) 
-25.030769

>  <alias>  (2162) 
None

>  <HIPPO Pose ID>  (2162) 
73651

>  <smiles>  (2162) 
O=C(O)c1cccc2ccc(NC3(CS)CC3)nc12

>  <inchikey>  (2162) 
PFQKKXJUOIFZNJ-UHFFFAOYSA-N

>  <distance_score>  (2162) 
1.400122

>  <ref_mols>  (2162) 
Z1688a,Z0089a

>  <ref_pdb>  (2162) 
Z1688a

>  <HIPPO Compound ID>  (2162) 
146594

>  <name>  (2162) 
P73651

>  <inspiration_score>  (2162) 
None

$$$$
P73656
     RDKit          3D

 19 20  0  0  0  0  0  0  0  0999 V2000
   -1.3725    3.7753  -19.5526 C   0  0  0  0  0  0  0  0  0  0  0  0
   -2.3614    4.8004  -20.0292 C   0  0  2  0  0  0  0  0  0  0  0  0
   -1.8234    5.4854  -21.0773 F   0  0  0  0  0  0  0  0  0  0  0  0
   -2.8006    5.7681  -18.9201 C   0  0  1  0  0  0  0  0  0  0  0  0
   -1.7699    6.8691  -18.6927 C   0  0  0  0  0  0  0  0  0  0  0  0
   -4.0582    6.4119  -19.2997 N   0  0  0  0  0  0  0  0  0  0  0  0
   -5.1831    5.7035  -18.8731 C   0  0  0  0  0  0  0  0  0  0  0  0
   -5.9150    4.9781  -19.7908 C   0  0  0  0  0  0  0  0  0  0  0  0
   -7.0757    4.3506  -19.3867 C   0  0  0  0  0  0  0  0  0  0  0  0
   -7.4979    4.4944  -18.0811 C   0  0  0  0  0  0  0  0  0  0  0  0
   -8.7484    3.9981  -17.7311 C   0  0  0  0  0  0  0  0  0  0  0  0
   -9.1698    4.1058  -16.4212 C   0  0  0  0  0  0  0  0  0  0  0  0
   -8.3523    4.6896  -15.4644 C   0  0  0  0  0  0  0  0  0  0  0  0
   -7.1050    5.1980  -15.8423 C   0  0  0  0  0  0  0  0  0  0  0  0
   -6.3092    5.8620  -14.8074 C   0  0  0  0  0  0  0  0  0  0  0  0
   -6.6841    6.8005  -14.1265 O   0  0  0  0  0  0  0  0  0  0  0  0
   -5.1244    5.2584  -14.6082 O   0  0  0  0  0  0  0  0  0  0  0  0
   -6.6555    5.1513  -17.1608 C   0  0  0  0  0  0  0  0  0  0  0  0
   -5.5030    5.7352  -17.5685 N   0  0  0  0  0  0  0  0  0  0  0  0
  2  1  1  1
  2  3  1  0
  2  4  1  0
  4  5  1  6
  4  6  1  0
  6  7  1  0
  7  8  2  0
  8  9  1  0
  9 10  2  0
 10 11  1  0
 11 12  2  0
 12 13  1  0
 13 14  2  0
 14 15  1  0
 15 16  2  0
 15 17  1  0
 14 18  1  0
 18 19  2  0
 19  7  1  0
 18 10  1  0
M  END
>  <energy_score>  (2163) 
-28.546441

>  <alias>  (2163) 
None

>  <HIPPO Pose ID>  (2163) 
73656

>  <smiles>  (2163) 
C[C@H](F)[C@@H](C)Nc1ccc2cccc(C(=O)O)c2n1

>  <inchikey>  (2163) 
WRTPFGSUUYMCAM-DTWKUNHWSA-N

>  <distance_score>  (2163) 
1.545809

>  <ref_mols>  (2163) 
Z1688a,Z0089a

>  <ref_pdb>  (2163) 
Z1688a

>  <HIPPO Compound ID>  (2163) 
146596

>  <name>  (2163) 
P73656

>  <inspiration_score>  (2163) 
None

$$$$
P73657
     RDKit          3D

 19 21  0  0  0  0  0  0  0  0999 V2000
   -5.5199    4.8584  -14.2888 O   0  0  0  0  0  0  0  0  0  0  0  0
   -6.6503    5.1407  -14.6359 C   0  0  0  0  0  0  0  0  0  0  0  0
   -7.4637    5.8376  -13.8103 O   0  0  0  0  0  0  0  0  0  0  0  0
   -7.3355    4.8261  -15.9068 C   0  0  0  0  0  0  0  0  0  0  0  0
   -8.6941    4.4708  -15.8689 C   0  0  0  0  0  0  0  0  0  0  0  0
   -9.3724    4.1602  -17.0408 C   0  0  0  0  0  0  0  0  0  0  0  0
   -8.6856    4.1520  -18.2398 C   0  0  0  0  0  0  0  0  0  0  0  0
   -7.3283    4.4873  -18.2661 C   0  0  0  0  0  0  0  0  0  0  0  0
   -6.6463    4.4504  -19.4709 C   0  0  0  0  0  0  0  0  0  0  0  0
   -5.3431    4.8972  -19.5449 C   0  0  0  0  0  0  0  0  0  0  0  0
   -4.7147    5.3016  -18.3906 C   0  0  0  0  0  0  0  0  0  0  0  0
   -3.4224    5.8168  -18.3735 N   0  0  0  0  0  0  0  0  0  0  0  0
   -2.4265    5.6861  -19.4443 C   0  0  0  0  0  0  0  0  0  0  0  0
   -1.6694    4.3686  -19.5334 C   0  0  0  0  0  0  0  0  0  0  0  0
   -2.2178    3.4492  -18.6930 F   0  0  0  0  0  0  0  0  0  0  0  0
   -1.5969    6.9330  -19.7102 C   0  0  0  0  0  0  0  0  0  0  0  0
   -2.6001    6.4916  -20.7218 C   0  0  0  0  0  0  0  0  0  0  0  0
   -5.3365    5.2805  -17.1947 N   0  0  0  0  0  0  0  0  0  0  0  0
   -6.6248    4.8701  -17.1088 C   0  0  0  0  0  0  0  0  0  0  0  0
  1  2  2  0
  2  3  1  0
  2  4  1  0
  4  5  2  0
  5  6  1  0
  6  7  2  0
  7  8  1  0
  8  9  2  0
  9 10  1  0
 10 11  2  0
 11 12  1  0
 12 13  1  0
 13 14  1  0
 14 15  1  0
 13 16  1  0
 16 17  1  0
 11 18  1  0
 18 19  2  0
 19  4  1  0
 19  8  1  0
 17 13  1  0
M  END
>  <energy_score>  (2164) 
-24.377819

>  <alias>  (2164) 
None

>  <HIPPO Pose ID>  (2164) 
73657

>  <smiles>  (2164) 
O=C(O)c1cccc2ccc(NC3(CF)CC3)nc12

>  <inchikey>  (2164) 
WHWTZQNTPXKETD-UHFFFAOYSA-N

>  <distance_score>  (2164) 
1.163866

>  <ref_mols>  (2164) 
Z1688a,Z0089a

>  <ref_pdb>  (2164) 
Z1688a

>  <HIPPO Compound ID>  (2164) 
146597

>  <name>  (2164) 
P73657

>  <inspiration_score>  (2164) 
None

$$$$
P73665
     RDKit          3D

 19 21  0  0  0  0  0  0  0  0999 V2000
   -5.4585    4.5227  -14.2006 O   0  0  0  0  0  0  0  0  0  0  0  0
   -6.4215    5.1382  -14.6181 C   0  0  0  0  0  0  0  0  0  0  0  0
   -6.9396    6.2286  -13.9994 O   0  0  0  0  0  0  0  0  0  0  0  0
   -7.2015    4.7942  -15.8217 C   0  0  0  0  0  0  0  0  0  0  0  0
   -8.5441    4.4245  -15.6623 C   0  0  0  0  0  0  0  0  0  0  0  0
   -9.3084    4.1118  -16.7797 C   0  0  0  0  0  0  0  0  0  0  0  0
   -8.7296    4.1133  -18.0344 C   0  0  0  0  0  0  0  0  0  0  0  0
   -7.3862    4.4622  -18.1713 C   0  0  0  0  0  0  0  0  0  0  0  0
   -6.8063    4.4284  -19.4254 C   0  0  0  0  0  0  0  0  0  0  0  0
   -5.5211    4.8981  -19.5996 C   0  0  0  0  0  0  0  0  0  0  0  0
   -4.8154    5.3193  -18.4960 C   0  0  0  0  0  0  0  0  0  0  0  0
   -3.5328    5.8332  -18.5821 N   0  0  0  0  0  0  0  0  0  0  0  0
   -2.6308    5.8270  -19.6751 C   0  0  2  0  0  0  0  0  0  0  0  0
   -1.7287    4.5788  -19.7218 C   0  0  0  0  0  0  0  0  0  0  0  0
   -0.5605    5.5224  -20.0715 C   0  0  0  0  0  0  0  0  0  0  0  0
   -1.3499    6.6632  -19.3948 C   0  0  1  0  0  0  0  0  0  0  0  0
   -1.2805    7.8704  -20.0033 F   0  0  0  0  0  0  0  0  0  0  0  0
   -5.3330    5.2945  -17.2545 N   0  0  0  0  0  0  0  0  0  0  0  0
   -6.5967    4.8546  -17.0750 C   0  0  0  0  0  0  0  0  0  0  0  0
  1  2  2  0
  2  3  1  0
  2  4  1  0
  4  5  2  0
  5  6  1  0
  6  7  2  0
  7  8  1  0
  8  9  2  0
  9 10  1  0
 10 11  2  0
 11 12  1  0
 13 12  1  1
 13 14  1  0
 14 15  1  0
 15 16  1  0
 16 17  1  6
 11 18  1  0
 18 19  2  0
 19  4  1  0
 19  8  1  0
 16 13  1  0
M  END
>  <energy_score>  (2165) 
-18.895104

>  <alias>  (2165) 
None

>  <HIPPO Pose ID>  (2165) 
73665

>  <smiles>  (2165) 
O=C(O)c1cccc2ccc(N[C@@H]3CC[C@H]3F)nc12

>  <inchikey>  (2165) 
KSMMSWDGQMKOOL-GHMZBOCLSA-N

>  <distance_score>  (2165) 
1.262667

>  <ref_mols>  (2165) 
Z1688a,Z0089a

>  <ref_pdb>  (2165) 
Z1688a

>  <HIPPO Compound ID>  (2165) 
146600

>  <name>  (2165) 
P73665

>  <inspiration_score>  (2165) 
None

$$$$
P73668
     RDKit          3D

 19 20  0  0  0  0  0  0  0  0999 V2000
   -1.4536    4.6286  -19.4354 C   0  0  0  0  0  0  0  0  0  0  0  0
   -2.6549    5.3724  -18.8492 C   0  0  1  0  0  0  0  0  0  0  0  0
   -2.4418    6.8934  -18.7676 C   0  0  0  0  0  0  0  0  0  0  0  0
   -2.0761    7.5578  -20.0924 C   0  0  0  0  0  0  0  0  0  0  0  0
   -1.9119    9.3589  -19.8846 S   0  0  0  0  0  0  0  0  0  0  0  0
   -3.8094    5.0392  -19.6666 N   0  0  0  0  0  0  0  0  0  0  0  0
   -5.0690    4.9685  -19.0759 C   0  0  0  0  0  0  0  0  0  0  0  0
   -6.1063    4.5246  -19.8749 C   0  0  0  0  0  0  0  0  0  0  0  0
   -7.3491    4.2749  -19.3312 C   0  0  0  0  0  0  0  0  0  0  0  0
   -7.5355    4.4718  -17.9826 C   0  0  0  0  0  0  0  0  0  0  0  0
   -8.7831    4.1766  -17.4489 C   0  0  0  0  0  0  0  0  0  0  0  0
   -8.9610    4.2758  -16.0850 C   0  0  0  0  0  0  0  0  0  0  0  0
   -7.9269    4.7093  -15.2685 C   0  0  0  0  0  0  0  0  0  0  0  0
   -6.6824    5.0322  -15.8293 C   0  0  0  0  0  0  0  0  0  0  0  0
   -5.5936    5.4506  -14.9279 C   0  0  0  0  0  0  0  0  0  0  0  0
   -4.4449    5.0572  -14.8808 O   0  0  0  0  0  0  0  0  0  0  0  0
   -6.0359    6.3935  -14.0664 O   0  0  0  0  0  0  0  0  0  0  0  0
   -6.4453    4.9138  -17.1977 C   0  0  0  0  0  0  0  0  0  0  0  0
   -5.2414    5.1830  -17.7609 N   0  0  0  0  0  0  0  0  0  0  0  0
  2  1  1  6
  2  3  1  0
  3  4  1  0
  4  5  1  0
  2  6  1  0
  6  7  1  0
  7  8  2  0
  8  9  1  0
  9 10  2  0
 10 11  1  0
 11 12  2  0
 12 13  1  0
 13 14  2  0
 14 15  1  0
 15 16  2  0
 15 17  1  0
 14 18  1  0
 18 19  2  0
 19  7  1  0
 18 10  1  0
M  END
>  <energy_score>  (2166) 
-38.159416

>  <alias>  (2166) 
None

>  <HIPPO Pose ID>  (2166) 
73668

>  <smiles>  (2166) 
C[C@@H](CCS)Nc1ccc2cccc(C(=O)O)c2n1

>  <inchikey>  (2166) 
NSWLRIBAUMYTIR-VIFPVBQESA-N

>  <distance_score>  (2166) 
1.561086

>  <ref_mols>  (2166) 
Z1688a,Z0089a

>  <ref_pdb>  (2166) 
Z1688a

>  <HIPPO Compound ID>  (2166) 
146601

>  <name>  (2166) 
P73668

>  <inspiration_score>  (2166) 
None

$$$$
P73672
     RDKit          3D

 19 21  0  0  0  0  0  0  0  0999 V2000
   -1.0824    7.7066  -18.6472 C   0  0  0  0  0  0  0  0  0  0  0  0
   -1.3431    6.5255  -19.2174 C   0  0  0  0  0  0  0  0  0  0  0  0
   -0.4493    5.4208  -19.7378 C   0  0  0  0  0  0  0  0  0  0  0  0
   -1.7247    4.5537  -19.6865 C   0  0  0  0  0  0  0  0  0  0  0  0
   -2.6183    5.8087  -19.6046 C   0  0  1  0  0  0  0  0  0  0  0  0
   -3.5226    5.7739  -18.5250 N   0  0  0  0  0  0  0  0  0  0  0  0
   -4.8167    5.2881  -18.4682 C   0  0  0  0  0  0  0  0  0  0  0  0
   -5.4903    4.8671  -19.5911 C   0  0  0  0  0  0  0  0  0  0  0  0
   -6.7831    4.4099  -19.4570 C   0  0  0  0  0  0  0  0  0  0  0  0
   -7.4083    4.4631  -18.2258 C   0  0  0  0  0  0  0  0  0  0  0  0
   -8.7585    4.1243  -18.1464 C   0  0  0  0  0  0  0  0  0  0  0  0
   -9.3953    4.1471  -16.9228 C   0  0  0  0  0  0  0  0  0  0  0  0
   -8.6771    4.4763  -15.7799 C   0  0  0  0  0  0  0  0  0  0  0  0
   -7.3227    4.8334  -15.8736 C   0  0  0  0  0  0  0  0  0  0  0  0
   -6.5888    5.1612  -14.6350 C   0  0  0  0  0  0  0  0  0  0  0  0
   -5.4541    4.8585  -14.3208 O   0  0  0  0  0  0  0  0  0  0  0  0
   -7.3594    5.8937  -13.7999 O   0  0  0  0  0  0  0  0  0  0  0  0
   -6.6603    4.8640  -17.1022 C   0  0  0  0  0  0  0  0  0  0  0  0
   -5.3784    5.2750  -17.2453 N   0  0  0  0  0  0  0  0  0  0  0  0
  1  2  2  0
  2  3  1  0
  3  4  1  0
  4  5  1  0
  5  6  1  1
  6  7  1  0
  7  8  2  0
  8  9  1  0
  9 10  2  0
 10 11  1  0
 11 12  2  0
 12 13  1  0
 13 14  2  0
 14 15  1  0
 15 16  2  0
 15 17  1  0
 14 18  1  0
 18 19  2  0
  5  2  1  0
 19  7  1  0
 18 10  1  0
M  END
>  <energy_score>  (2167) 
-34.747524

>  <alias>  (2167) 
None

>  <HIPPO Pose ID>  (2167) 
73672

>  <smiles>  (2167) 
C=C1CC[C@H]1Nc1ccc2cccc(C(=O)O)c2n1

>  <inchikey>  (2167) 
VMXDHXOHFFEWPV-GFCCVEGCSA-N

>  <distance_score>  (2167) 
1.174943

>  <ref_mols>  (2167) 
Z1688a,Z0089a

>  <ref_pdb>  (2167) 
Z1688a

>  <HIPPO Compound ID>  (2167) 
146603

>  <name>  (2167) 
P73672

>  <inspiration_score>  (2167) 
None

$$$$
P73678
     RDKit          3D

 19 21  0  0  0  0  0  0  0  0999 V2000
   -0.7757    7.6026  -17.7270 C   0  0  0  0  0  0  0  0  0  0  0  0
   -0.6761    6.3532  -18.1991 C   0  0  0  0  0  0  0  0  0  0  0  0
   -1.2127    5.8756  -19.4779 C   0  0  1  0  0  0  0  0  0  0  0  0
   -1.7907    4.4848  -19.5312 C   0  0  0  0  0  0  0  0  0  0  0  0
   -2.6930    5.6692  -19.6881 C   0  0  1  0  0  0  0  0  0  0  0  0
   -3.6580    6.0294  -18.6640 N   0  0  0  0  0  0  0  0  0  0  0  0
   -4.9151    5.4446  -18.5422 C   0  0  0  0  0  0  0  0  0  0  0  0
   -5.5823    4.9012  -19.6180 C   0  0  0  0  0  0  0  0  0  0  0  0
   -6.8521    4.3935  -19.4322 C   0  0  0  0  0  0  0  0  0  0  0  0
   -7.4578    4.5012  -18.1945 C   0  0  0  0  0  0  0  0  0  0  0  0
   -8.7767    4.0784  -18.0590 C   0  0  0  0  0  0  0  0  0  0  0  0
   -9.3784    4.1314  -16.8183 C   0  0  0  0  0  0  0  0  0  0  0  0
   -8.6653    4.5908  -15.7178 C   0  0  0  0  0  0  0  0  0  0  0  0
   -7.3552    5.0589  -15.8819 C   0  0  0  0  0  0  0  0  0  0  0  0
   -6.6701    5.6437  -14.7190 C   0  0  0  0  0  0  0  0  0  0  0  0
   -6.1649    6.7471  -14.6359 O   0  0  0  0  0  0  0  0  0  0  0  0
   -6.7100    4.8054  -13.6661 O   0  0  0  0  0  0  0  0  0  0  0  0
   -6.7192    5.0381  -17.1220 C   0  0  0  0  0  0  0  0  0  0  0  0
   -5.4599    5.4946  -17.3114 N   0  0  0  0  0  0  0  0  0  0  0  0
  1  2  2  0
  3  2  1  1
  3  4  1  0
  4  5  1  0
  5  6  1  1
  6  7  1  0
  7  8  2  0
  8  9  1  0
  9 10  2  0
 10 11  1  0
 11 12  2  0
 12 13  1  0
 13 14  2  0
 14 15  1  0
 15 16  2  0
 15 17  1  0
 14 18  1  0
 18 19  2  0
  5  3  1  0
 19  7  1  0
 18 10  1  0
M  END
>  <energy_score>  (2168) 
-30.736384

>  <alias>  (2168) 
None

>  <HIPPO Pose ID>  (2168) 
73678

>  <smiles>  (2168) 
C=C[C@H]1C[C@H]1Nc1ccc2cccc(C(=O)O)c2n1

>  <inchikey>  (2168) 
DZCAZFZEIABHGL-JOYOIKCWSA-N

>  <distance_score>  (2168) 
1.233572

>  <ref_mols>  (2168) 
Z1688a,Z0089a

>  <ref_pdb>  (2168) 
Z1688a

>  <HIPPO Compound ID>  (2168) 
146605

>  <name>  (2168) 
P73678

>  <inspiration_score>  (2168) 
None

$$$$
P73681
     RDKit          3D

 19 21  0  0  0  0  0  0  0  0999 V2000
   -0.5033    6.3784  -17.8976 C   0  0  0  0  0  0  0  0  0  0  0  0
   -0.9957    5.5516  -19.0359 C   0  0  1  0  0  0  0  0  0  0  0  0
   -2.4396    5.1406  -19.1534 C   0  0  0  0  0  0  0  0  0  0  0  0
   -3.4374    5.5364  -18.1764 N   0  0  0  0  0  0  0  0  0  0  0  0
   -4.7768    5.1608  -18.2705 C   0  0  0  0  0  0  0  0  0  0  0  0
   -5.3716    4.8807  -19.4803 C   0  0  0  0  0  0  0  0  0  0  0  0
   -6.6927    4.4852  -19.4888 C   0  0  0  0  0  0  0  0  0  0  0  0
   -7.4320    4.4855  -18.3187 C   0  0  0  0  0  0  0  0  0  0  0  0
   -8.8001    4.2011  -18.3761 C   0  0  0  0  0  0  0  0  0  0  0  0
   -9.5407    4.1551  -17.2100 C   0  0  0  0  0  0  0  0  0  0  0  0
   -8.9003    4.3504  -15.9941 C   0  0  0  0  0  0  0  0  0  0  0  0
   -7.5316    4.6423  -15.9582 C   0  0  0  0  0  0  0  0  0  0  0  0
   -6.9109    4.7941  -14.6371 C   0  0  0  0  0  0  0  0  0  0  0  0
   -6.5181    5.8562  -14.1877 O   0  0  0  0  0  0  0  0  0  0  0  0
   -6.9105    3.6269  -13.9508 O   0  0  0  0  0  0  0  0  0  0  0  0
   -6.7650    4.7647  -17.1136 C   0  0  0  0  0  0  0  0  0  0  0  0
   -5.4500    5.0905  -17.1050 N   0  0  0  0  0  0  0  0  0  0  0  0
   -1.8708    6.1741  -20.0909 C   0  0  2  0  0  0  0  0  0  0  0  0
   -1.6578    5.8473  -21.5278 C   0  0  0  0  0  0  0  0  0  0  0  0
  2  1  1  1
  2  3  1  0
  3  4  1  0
  4  5  1  0
  5  6  2  0
  6  7  1  0
  7  8  2  0
  8  9  1  0
  9 10  2  0
 10 11  1  0
 11 12  2  0
 12 13  1  0
 13 14  2  0
 13 15  1  0
 12 16  1  0
 16 17  2  0
  3 18  1  0
 18 19  1  6
 18  2  1  0
 17  5  1  0
 16  8  1  0
M  END
>  <energy_score>  (2169) 
-28.668986

>  <alias>  (2169) 
None

>  <HIPPO Pose ID>  (2169) 
73681

>  <smiles>  (2169) 
C[C@H]1C(Nc2ccc3cccc(C(=O)O)c3n2)[C@@H]1C

>  <inchikey>  (2169) 
FEMMNFZTBKXLIZ-RKDXNWHRSA-N

>  <distance_score>  (2169) 
1.193463

>  <ref_mols>  (2169) 
Z1688a,Z0089a

>  <ref_pdb>  (2169) 
Z1688a

>  <HIPPO Compound ID>  (2169) 
146606

>  <name>  (2169) 
P73681

>  <inspiration_score>  (2169) 
None

$$$$
P73683
     RDKit          3D

 19 21  0  0  0  0  0  0  0  0999 V2000
   -6.6307    6.7817  -14.1554 O   0  0  0  0  0  0  0  0  0  0  0  0
   -6.2585    5.8381  -14.8302 C   0  0  0  0  0  0  0  0  0  0  0  0
   -5.0842    5.2177  -14.6275 O   0  0  0  0  0  0  0  0  0  0  0  0
   -7.0480    5.1833  -15.8761 C   0  0  0  0  0  0  0  0  0  0  0  0
   -8.3122    4.6956  -15.5215 C   0  0  0  0  0  0  0  0  0  0  0  0
   -9.1232    4.1263  -16.4928 C   0  0  0  0  0  0  0  0  0  0  0  0
   -8.6722    4.0122  -17.7940 C   0  0  0  0  0  0  0  0  0  0  0  0
   -7.4040    4.4883  -18.1216 C   0  0  0  0  0  0  0  0  0  0  0  0
   -6.9552    4.3452  -19.4203 C   0  0  0  0  0  0  0  0  0  0  0  0
   -5.7791    4.9622  -19.8020 C   0  0  0  0  0  0  0  0  0  0  0  0
   -5.0503    5.6719  -18.8691 C   0  0  0  0  0  0  0  0  0  0  0  0
   -4.0243    6.5339  -19.3045 N   0  0  0  0  0  0  0  0  0  0  0  0
   -2.6414    6.2458  -19.5805 C   0  0  2  0  0  0  0  0  0  0  0  0
   -2.3519    4.8729  -20.2107 C   0  0  0  0  0  0  0  0  0  0  0  0
   -1.9598    4.3741  -18.8136 C   0  0  0  0  0  0  0  0  0  0  0  0
   -1.6967    5.8430  -18.4280 C   0  0  2  0  0  0  0  0  0  0  0  0
   -2.1957    6.2660  -16.7342 S   0  0  0  0  0  0  0  0  0  0  0  0
   -5.4051    5.7132  -17.5729 N   0  0  0  0  0  0  0  0  0  0  0  0
   -6.5702    5.1321  -17.1857 C   0  0  0  0  0  0  0  0  0  0  0  0
  1  2  2  0
  2  3  1  0
  2  4  1  0
  4  5  2  0
  5  6  1  0
  6  7  2  0
  7  8  1  0
  8  9  2  0
  9 10  1  0
 10 11  2  0
 11 12  1  0
 13 12  1  1
 13 14  1  0
 14 15  1  0
 15 16  1  0
 16 17  1  1
 11 18  1  0
 18 19  2  0
 19  4  1  0
 19  8  1  0
 16 13  1  0
M  END
>  <energy_score>  (2170) 
-20.542225

>  <alias>  (2170) 
None

>  <HIPPO Pose ID>  (2170) 
73683

>  <smiles>  (2170) 
O=C(O)c1cccc2ccc(N[C@@H]3CC[C@@H]3S)nc12

>  <inchikey>  (2170) 
HMVOUIRFRILGSW-MNOVXSKESA-N

>  <distance_score>  (2170) 
1.464486

>  <ref_mols>  (2170) 
Z1688a,Z0089a

>  <ref_pdb>  (2170) 
Z1688a

>  <HIPPO Compound ID>  (2170) 
146607

>  <name>  (2170) 
P73683

>  <inspiration_score>  (2170) 
None

$$$$
P73691
     RDKit          3D

 19 21  0  0  0  0  0  0  0  0999 V2000
   -1.7698    4.6302  -19.8750 C   0  0  0  0  0  0  0  0  0  0  0  0
   -2.4777    5.8183  -19.2283 C   0  0  2  0  0  0  0  0  0  0  0  0
   -1.4738    6.7511  -18.5601 C   0  0  0  0  0  0  0  0  0  0  0  0
   -1.7174    6.4153  -17.1295 C   0  0  0  0  0  0  0  0  0  0  0  0
   -2.7513    5.6831  -16.8949 N   0  0  0  0  0  0  0  0  0  0  0  0
   -3.3039    5.3740  -18.1110 N   0  0  0  0  0  0  0  0  0  0  0  0
   -4.6725    5.1033  -18.1948 C   0  0  0  0  0  0  0  0  0  0  0  0
   -5.2639    4.8378  -19.4172 C   0  0  0  0  0  0  0  0  0  0  0  0
   -6.6020    4.5006  -19.4725 C   0  0  0  0  0  0  0  0  0  0  0  0
   -7.3774    4.5049  -18.3271 C   0  0  0  0  0  0  0  0  0  0  0  0
   -8.7482    4.2314  -18.4231 C   0  0  0  0  0  0  0  0  0  0  0  0
   -9.5212    4.1764  -17.2778 C   0  0  0  0  0  0  0  0  0  0  0  0
   -8.9111    4.3663  -16.0465 C   0  0  0  0  0  0  0  0  0  0  0  0
   -7.5423    4.6547  -15.9725 C   0  0  0  0  0  0  0  0  0  0  0  0
   -6.9818    4.8198  -14.6266 C   0  0  0  0  0  0  0  0  0  0  0  0
   -6.6974    5.8992  -14.1373 O   0  0  0  0  0  0  0  0  0  0  0  0
   -6.9131    3.6380  -13.9682 O   0  0  0  0  0  0  0  0  0  0  0  0
   -6.7386    4.7644  -17.1046 C   0  0  0  0  0  0  0  0  0  0  0  0
   -5.4159    5.0544  -17.0595 N   0  0  0  0  0  0  0  0  0  0  0  0
  2  1  1  1
  2  3  1  0
  3  4  1  0
  4  5  2  0
  5  6  1  0
  6  7  1  0
  7  8  2  0
  8  9  1  0
  9 10  2  0
 10 11  1  0
 11 12  2  0
 12 13  1  0
 13 14  2  0
 14 15  1  0
 15 16  2  0
 15 17  1  0
 14 18  1  0
 18 19  2  0
  6  2  1  0
 19  7  1  0
 18 10  1  0
M  END
>  <energy_score>  (2171) 
-22.347936

>  <alias>  (2171) 
None

>  <HIPPO Pose ID>  (2171) 
73691

>  <smiles>  (2171) 
C[C@@H]1CC=NN1c1ccc2cccc(C(=O)O)c2n1

>  <inchikey>  (2171) 
ZOWDOJVPFNDKCE-SECBINFHSA-N

>  <distance_score>  (2171) 
1.358985

>  <ref_mols>  (2171) 
Z1688a,Z0089a

>  <ref_pdb>  (2171) 
Z1688a

>  <HIPPO Compound ID>  (2171) 
146609

>  <name>  (2171) 
P73691

>  <inspiration_score>  (2171) 
None

$$$$
P73694
     RDKit          3D

 19 20  0  0  0  0  0  0  0  0999 V2000
   -1.3488    3.8929  -19.3734 C   0  0  0  0  0  0  0  0  0  0  0  0
   -2.1413    4.8570  -20.2266 C   0  0  0  0  0  0  0  0  0  0  0  0
   -2.8221    5.9915  -19.4364 C   0  0  2  0  0  0  0  0  0  0  0  0
   -1.8263    7.0164  -18.8867 C   0  0  0  0  0  0  0  0  0  0  0  0
   -1.0885    8.1389  -20.3017 Br  0  0  0  0  0  0  0  0  0  0  0  0
   -3.5739    5.4238  -18.3266 N   0  0  0  0  0  0  0  0  0  0  0  0
   -4.9071    5.1160  -18.3806 C   0  0  0  0  0  0  0  0  0  0  0  0
   -5.5587    4.7764  -19.5432 C   0  0  0  0  0  0  0  0  0  0  0  0
   -6.8808    4.3982  -19.4808 C   0  0  0  0  0  0  0  0  0  0  0  0
   -7.5568    4.4531  -18.2821 C   0  0  0  0  0  0  0  0  0  0  0  0
   -8.9205    4.1735  -18.2804 C   0  0  0  0  0  0  0  0  0  0  0  0
   -9.6054    4.1538  -17.0850 C   0  0  0  0  0  0  0  0  0  0  0  0
   -8.9147    4.3727  -15.9005 C   0  0  0  0  0  0  0  0  0  0  0  0
   -7.5467    4.6649  -15.9286 C   0  0  0  0  0  0  0  0  0  0  0  0
   -6.8657    4.8196  -14.6384 C   0  0  0  0  0  0  0  0  0  0  0  0
   -6.4509    5.8810  -14.2073 O   0  0  0  0  0  0  0  0  0  0  0  0
   -6.8439    3.6529  -13.9493 O   0  0  0  0  0  0  0  0  0  0  0  0
   -6.8344    4.7649  -17.1188 C   0  0  0  0  0  0  0  0  0  0  0  0
   -5.5220    5.0919  -17.1839 N   0  0  0  0  0  0  0  0  0  0  0  0
  1  2  1  0
  3  2  1  1
  3  4  1  0
  4  5  1  0
  3  6  1  0
  6  7  1  0
  7  8  2  0
  8  9  1  0
  9 10  2  0
 10 11  1  0
 11 12  2  0
 12 13  1  0
 13 14  2  0
 14 15  1  0
 15 16  2  0
 15 17  1  0
 14 18  1  0
 18 19  2  0
 19  7  1  0
 18 10  1  0
M  END
>  <energy_score>  (2172) 
-23.462791

>  <alias>  (2172) 
None

>  <HIPPO Pose ID>  (2172) 
73694

>  <smiles>  (2172) 
CC[C@H](CBr)Nc1ccc2cccc(C(=O)O)c2n1

>  <inchikey>  (2172) 
NWQMUNOQBLDVEB-SNVBAGLBSA-N

>  <distance_score>  (2172) 
1.108988

>  <ref_mols>  (2172) 
Z1688a,Z0089a

>  <ref_pdb>  (2172) 
Z1688a

>  <HIPPO Compound ID>  (2172) 
146611

>  <name>  (2172) 
P73694

>  <inspiration_score>  (2172) 
None

$$$$
P73696
     RDKit          3D

 19 20  0  0  0  0  0  0  0  0999 V2000
   -1.4146    4.6812  -19.6006 C   0  0  0  0  0  0  0  0  0  0  0  0
   -2.5952    5.6407  -19.4717 C   0  0  2  0  0  0  0  0  0  0  0  0
   -2.1583    7.0865  -19.2003 C   0  0  0  0  0  0  0  0  0  0  0  0
   -1.3784    7.6840  -20.3591 C   0  0  0  0  0  0  0  0  0  0  0  0
   -1.0100    9.5658  -20.0050 Br  0  0  0  0  0  0  0  0  0  0  0  0
   -3.4083    5.1857  -18.3673 N   0  0  0  0  0  0  0  0  0  0  0  0
   -4.7698    5.0476  -18.3983 C   0  0  0  0  0  0  0  0  0  0  0  0
   -5.4688    4.7204  -19.5368 C   0  0  0  0  0  0  0  0  0  0  0  0
   -6.8051    4.4058  -19.4341 C   0  0  0  0  0  0  0  0  0  0  0  0
   -7.4378    4.4828  -18.2113 C   0  0  0  0  0  0  0  0  0  0  0  0
   -8.7982    4.1896  -18.1526 C   0  0  0  0  0  0  0  0  0  0  0  0
   -9.4406    4.1993  -16.9337 C   0  0  0  0  0  0  0  0  0  0  0  0
   -8.7241    4.5008  -15.7814 C   0  0  0  0  0  0  0  0  0  0  0  0
   -7.3588    4.8232  -15.8552 C   0  0  0  0  0  0  0  0  0  0  0  0
   -6.6339    5.1266  -14.6024 C   0  0  0  0  0  0  0  0  0  0  0  0
   -5.4965    4.8412  -14.2826 O   0  0  0  0  0  0  0  0  0  0  0  0
   -7.4195    5.8293  -13.7539 O   0  0  0  0  0  0  0  0  0  0  0  0
   -6.6803    4.8290  -17.0753 C   0  0  0  0  0  0  0  0  0  0  0  0
   -5.3667    5.1351  -17.1967 N   0  0  0  0  0  0  0  0  0  0  0  0
  2  1  1  1
  2  3  1  0
  3  4  1  0
  4  5  1  0
  2  6  1  0
  6  7  1  0
  7  8  2  0
  8  9  1  0
  9 10  2  0
 10 11  1  0
 11 12  2  0
 12 13  1  0
 13 14  2  0
 14 15  1  0
 15 16  2  0
 15 17  1  0
 14 18  1  0
 18 19  2  0
 19  7  1  0
 18 10  1  0
M  END
>  <energy_score>  (2173) 
-34.380502

>  <alias>  (2173) 
None

>  <HIPPO Pose ID>  (2173) 
73696

>  <smiles>  (2173) 
C[C@H](CCBr)Nc1ccc2cccc(C(=O)O)c2n1

>  <inchikey>  (2173) 
OOVKMTVGIDERHJ-SECBINFHSA-N

>  <distance_score>  (2173) 
1.146735

>  <ref_mols>  (2173) 
Z1688a,Z0089a

>  <ref_pdb>  (2173) 
Z1688a

>  <HIPPO Compound ID>  (2173) 
146612

>  <name>  (2173) 
P73696

>  <inspiration_score>  (2173) 
None

$$$$
P73698
     RDKit          3D

 19 21  0  0  0  0  0  0  0  0999 V2000
    0.7777    5.6681  -18.9934 C   0  0  0  0  0  0  0  0  0  0  0  0
   -0.5313    5.8013  -19.7464 C   0  0  1  0  0  0  0  0  0  0  0  0
   -1.5947    4.6927  -19.5292 C   0  0  0  0  0  0  0  0  0  0  0  0
   -2.6620    5.8032  -19.4872 C   0  0  1  0  0  0  0  0  0  0  0  0
   -3.5778    5.6504  -18.4209 N   0  0  0  0  0  0  0  0  0  0  0  0
   -4.8823    5.1859  -18.4188 C   0  0  0  0  0  0  0  0  0  0  0  0
   -5.5246    4.8125  -19.5758 C   0  0  0  0  0  0  0  0  0  0  0  0
   -6.8342    4.3919  -19.5014 C   0  0  0  0  0  0  0  0  0  0  0  0
   -7.5099    4.4448  -18.2995 C   0  0  0  0  0  0  0  0  0  0  0  0
   -8.8725    4.1509  -18.2888 C   0  0  0  0  0  0  0  0  0  0  0  0
   -9.5582    4.1440  -17.0920 C   0  0  0  0  0  0  0  0  0  0  0  0
   -8.8684    4.3837  -15.9116 C   0  0  0  0  0  0  0  0  0  0  0  0
   -7.5019    4.6877  -15.9477 C   0  0  0  0  0  0  0  0  0  0  0  0
   -6.8206    4.8745  -14.6618 C   0  0  0  0  0  0  0  0  0  0  0  0
   -6.4131    5.9468  -14.2520 O   0  0  0  0  0  0  0  0  0  0  0  0
   -6.7832    3.7201  -13.9538 O   0  0  0  0  0  0  0  0  0  0  0  0
   -6.7901    4.7805  -17.1407 C   0  0  0  0  0  0  0  0  0  0  0  0
   -5.4842    5.1357  -17.2139 N   0  0  0  0  0  0  0  0  0  0  0  0
   -1.5398    6.7992  -19.1297 C   0  0  0  0  0  0  0  0  0  0  0  0
  2  1  1  1
  2  3  1  0
  3  4  1  0
  4  5  1  1
  5  6  1  0
  6  7  2  0
  7  8  1  0
  8  9  2  0
  9 10  1  0
 10 11  2  0
 11 12  1  0
 12 13  2  0
 13 14  1  0
 14 15  2  0
 14 16  1  0
 13 17  1  0
 17 18  2  0
  4 19  1  0
 19  2  1  0
 18  6  1  0
 17  9  1  0
M  END
>  <energy_score>  (2174) 
-22.626627

>  <alias>  (2174) 
None

>  <HIPPO Pose ID>  (2174) 
73698

>  <smiles>  (2174) 
C[C@H]1C[C@@H](Nc2ccc3cccc(C(=O)O)c3n2)C1

>  <inchikey>  (2174) 
CTFUNMDIBHHMOT-JGZJWPJOSA-N

>  <distance_score>  (2174) 
1.103505

>  <ref_mols>  (2174) 
Z1688a,Z0089a

>  <ref_pdb>  (2174) 
Z1688a

>  <HIPPO Compound ID>  (2174) 
146613

>  <name>  (2174) 
P73698

>  <inspiration_score>  (2174) 
None

$$$$
P73700
     RDKit          3D

 19 20  0  0  0  0  0  0  0  0999 V2000
   -1.2779    3.8579  -19.7085 C   0  0  0  0  0  0  0  0  0  0  0  0
   -2.2328    4.5727  -18.7845 C   0  0  0  0  0  0  0  0  0  0  0  0
   -2.7623    5.8651  -19.4103 C   0  0  2  0  0  0  0  0  0  0  0  0
   -1.6940    6.9652  -19.5502 C   0  0  0  0  0  0  0  0  0  0  0  0
   -0.9802    7.4793  -17.9945 Cl  0  0  0  0  0  0  0  0  0  0  0  0
   -3.8756    6.3924  -18.6330 N   0  0  0  0  0  0  0  0  0  0  0  0
   -5.0387    5.6580  -18.5296 C   0  0  0  0  0  0  0  0  0  0  0  0
   -5.6438    5.0540  -19.6098 C   0  0  0  0  0  0  0  0  0  0  0  0
   -6.8564    4.4267  -19.4224 C   0  0  0  0  0  0  0  0  0  0  0  0
   -7.4708    4.4914  -18.1865 C   0  0  0  0  0  0  0  0  0  0  0  0
   -8.7799    4.0355  -18.0660 C   0  0  0  0  0  0  0  0  0  0  0  0
   -9.4052    4.0911  -16.8380 C   0  0  0  0  0  0  0  0  0  0  0  0
   -8.7089    4.5409  -15.7236 C   0  0  0  0  0  0  0  0  0  0  0  0
   -7.4001    5.0201  -15.8601 C   0  0  0  0  0  0  0  0  0  0  0  0
   -6.6936    5.5106  -14.6606 C   0  0  0  0  0  0  0  0  0  0  0  0
   -5.5328    5.3450  -14.3403 O   0  0  0  0  0  0  0  0  0  0  0  0
   -7.5251    6.2253  -13.8692 O   0  0  0  0  0  0  0  0  0  0  0  0
   -6.7672    5.0495  -17.1019 C   0  0  0  0  0  0  0  0  0  0  0  0
   -5.5652    5.6307  -17.2952 N   0  0  0  0  0  0  0  0  0  0  0  0
  1  2  1  0
  3  2  1  1
  3  4  1  0
  4  5  1  0
  3  6  1  0
  6  7  1  0
  7  8  2  0
  8  9  1  0
  9 10  2  0
 10 11  1  0
 11 12  2  0
 12 13  1  0
 13 14  2  0
 14 15  1  0
 15 16  2  0
 15 17  1  0
 14 18  1  0
 18 19  2  0
 19  7  1  0
 18 10  1  0
M  END
>  <energy_score>  (2175) 
-55.643234

>  <alias>  (2175) 
None

>  <HIPPO Pose ID>  (2175) 
73700

>  <smiles>  (2175) 
CC[C@H](CCl)Nc1ccc2cccc(C(=O)O)c2n1

>  <inchikey>  (2175) 
RLUVGHBCUMFWTN-SNVBAGLBSA-N

>  <distance_score>  (2175) 
1.173647

>  <ref_mols>  (2175) 
Z1688a,Z0089a

>  <ref_pdb>  (2175) 
Z1688a

>  <HIPPO Compound ID>  (2175) 
146614

>  <name>  (2175) 
P73700

>  <inspiration_score>  (2175) 
None

$$$$
P73702
     RDKit          3D

 19 20  0  0  0  0  0  0  0  0999 V2000
   -2.0880    4.0514  -18.5786 C   0  0  0  0  0  0  0  0  0  0  0  0
   -1.8483    5.2117  -19.5010 C   0  0  0  0  0  0  0  0  0  0  0  0
   -2.9127    6.2815  -19.2390 C   0  0  0  0  0  0  0  0  0  0  0  0
   -2.4517    7.6576  -19.7372 C   0  0  0  0  0  0  0  0  0  0  0  0
   -2.0924    7.7266  -21.2179 C   0  0  0  0  0  0  0  0  0  0  0  0
   -4.1405    5.9182  -19.9379 N   0  0  0  0  0  0  0  0  0  0  0  0
   -5.1833    5.3345  -19.2125 C   0  0  0  0  0  0  0  0  0  0  0  0
   -6.1509    4.6728  -19.9436 C   0  0  0  0  0  0  0  0  0  0  0  0
   -7.3113    4.2346  -19.3402 C   0  0  0  0  0  0  0  0  0  0  0  0
   -7.4872    4.4710  -17.9967 C   0  0  0  0  0  0  0  0  0  0  0  0
   -8.6977    4.0993  -17.4164 C   0  0  0  0  0  0  0  0  0  0  0  0
   -8.8751    4.2734  -16.0590 C   0  0  0  0  0  0  0  0  0  0  0  0
   -7.8605    4.8226  -15.2897 C   0  0  0  0  0  0  0  0  0  0  0  0
   -6.6575    5.2201  -15.8963 C   0  0  0  0  0  0  0  0  0  0  0  0
   -5.5961    5.7866  -15.0465 C   0  0  0  0  0  0  0  0  0  0  0  0
   -4.4200    5.4840  -14.9978 O   0  0  0  0  0  0  0  0  0  0  0  0
   -6.0996    6.7442  -14.2373 O   0  0  0  0  0  0  0  0  0  0  0  0
   -6.4391    5.0735  -17.2658 C   0  0  0  0  0  0  0  0  0  0  0  0
   -5.3146    5.5139  -17.8864 N   0  0  0  0  0  0  0  0  0  0  0  0
  1  2  1  0
  2  3  1  0
  3  4  1  0
  4  5  1  0
  3  6  1  0
  6  7  1  0
  7  8  2  0
  8  9  1  0
  9 10  2  0
 10 11  1  0
 11 12  2  0
 12 13  1  0
 13 14  2  0
 14 15  1  0
 15 16  2  0
 15 17  1  0
 14 18  1  0
 18 19  2  0
 19  7  1  0
 18 10  1  0
M  END
>  <energy_score>  (2176) 
-42.127806

>  <alias>  (2176) 
None

>  <HIPPO Pose ID>  (2176) 
73702

>  <smiles>  (2176) 
CCC(CC)Nc1ccc2cccc(C(=O)O)c2n1

>  <inchikey>  (2176) 
ZPMSLERBAIAHIC-UHFFFAOYSA-N

>  <distance_score>  (2176) 
1.683759

>  <ref_mols>  (2176) 
Z1688a,Z0089a

>  <ref_pdb>  (2176) 
Z1688a

>  <HIPPO Compound ID>  (2176) 
146615

>  <name>  (2176) 
P73702

>  <inspiration_score>  (2176) 
None

$$$$
P73706
     RDKit          3D

 19 21  0  0  0  0  0  0  0  0999 V2000
   -7.8417    5.2016  -13.5071 O   0  0  0  0  0  0  0  0  0  0  0  0
   -6.7333    5.0650  -14.0067 C   0  0  0  0  0  0  0  0  0  0  0  0
   -6.4246    5.0056  -15.4683 C   0  0  0  0  0  0  0  0  0  0  0  0
   -5.0818    5.2135  -15.8417 C   0  0  0  0  0  0  0  0  0  0  0  0
   -4.7191    5.1953  -17.1858 C   0  0  0  0  0  0  0  0  0  0  0  0
   -3.3776    5.3112  -17.5615 N   0  0  0  0  0  0  0  0  0  0  0  0
   -3.0919    5.4237  -19.0038 C   0  0  0  0  0  0  0  0  0  0  0  0
   -1.6592    4.9521  -19.2458 C   0  0  0  0  0  0  0  0  0  0  0  0
   -1.2511    5.1407  -20.7027 C   0  0  0  0  0  0  0  0  0  0  0  0
   -1.9454    6.1913  -21.3712 O   0  0  0  0  0  0  0  0  0  0  0  0
   -2.2424    7.2833  -20.5150 C   0  0  0  0  0  0  0  0  0  0  0  0
   -3.2723    6.8744  -19.4721 C   0  0  0  0  0  0  0  0  0  0  0  0
   -5.6282    4.9754  -18.1236 N   0  0  0  0  0  0  0  0  0  0  0  0
   -6.8934    4.7393  -17.7825 C   0  0  0  0  0  0  0  0  0  0  0  0
   -7.7385    4.4852  -18.8313 C   0  0  0  0  0  0  0  0  0  0  0  0
   -9.0930    4.2841  -18.6367 C   0  0  0  0  0  0  0  0  0  0  0  0
   -9.6033    4.2472  -17.3529 C   0  0  0  0  0  0  0  0  0  0  0  0
   -8.7552    4.4553  -16.2650 C   0  0  0  0  0  0  0  0  0  0  0  0
   -7.3831    4.7392  -16.4628 C   0  0  0  0  0  0  0  0  0  0  0  0
  1  2  2  0
  2  3  1  0
  3  4  2  0
  4  5  1  0
  5  6  1  0
  6  7  1  0
  7  8  1  0
  8  9  1  0
  9 10  1  0
 10 11  1  0
 11 12  1  0
  5 13  2  0
 13 14  1  0
 14 15  2  0
 15 16  1  0
 16 17  2  0
 17 18  1  0
 18 19  2  0
 19  3  1  0
 12  7  1  0
 19 14  1  0
M  END
>  <energy_score>  (2177) 
-20.055014

>  <alias>  (2177) 
None

>  <HIPPO Pose ID>  (2177) 
73706

>  <smiles>  (2177) 
O=Cc1cc(NC2CCOCC2)nc2ccccc12

>  <inchikey>  (2177) 
GJYYOOHGFJUPMT-UHFFFAOYSA-N

>  <distance_score>  (2177) 
1.13075

>  <ref_mols>  (2177) 
Z1688a,Z0089a

>  <ref_pdb>  (2177) 
Z1688a

>  <HIPPO Compound ID>  (2177) 
146618

>  <name>  (2177) 
P73706

>  <inspiration_score>  (2177) 
None

$$$$
P73708
     RDKit          3D

 19 21  0  0  0  0  0  0  0  0999 V2000
   -3.8567    6.4244  -15.0302 O   0  0  0  0  0  0  0  0  0  0  0  0
   -3.5682    6.0297  -16.3737 C   0  0  0  0  0  0  0  0  0  0  0  0
   -4.7928    5.5451  -17.0751 C   0  0  0  0  0  0  0  0  0  0  0  0
   -5.9426    5.3509  -16.3004 C   0  0  0  0  0  0  0  0  0  0  0  0
   -7.0996    4.8709  -16.8654 C   0  0  0  0  0  0  0  0  0  0  0  0
   -8.1878    4.5857  -16.0487 C   0  0  0  0  0  0  0  0  0  0  0  0
   -9.3282    4.1003  -16.6280 C   0  0  0  0  0  0  0  0  0  0  0  0
   -9.3957    3.9661  -17.9985 C   0  0  0  0  0  0  0  0  0  0  0  0
   -8.2890    4.2277  -18.7989 C   0  0  0  0  0  0  0  0  0  0  0  0
   -7.1082    4.6582  -18.2442 C   0  0  0  0  0  0  0  0  0  0  0  0
   -6.0141    4.8257  -19.0005 N   0  0  0  0  0  0  0  0  0  0  0  0
   -4.8584    5.2070  -18.4254 C   0  0  0  0  0  0  0  0  0  0  0  0
   -3.8249    5.0832  -19.3141 N   0  0  0  0  0  0  0  0  0  0  0  0
   -2.5701    5.7972  -19.3535 C   0  0  0  0  0  0  0  0  0  0  0  0
   -1.6020    5.0452  -20.2652 C   0  0  0  0  0  0  0  0  0  0  0  0
   -0.2624    5.7788  -20.3287 C   0  0  0  0  0  0  0  0  0  0  0  0
   -0.3704    7.1733  -20.0230 O   0  0  0  0  0  0  0  0  0  0  0  0
   -1.5445    7.7541  -20.5790 C   0  0  0  0  0  0  0  0  0  0  0  0
   -2.7743    7.2286  -19.8512 C   0  0  0  0  0  0  0  0  0  0  0  0
  1  2  1  0
  2  3  1  0
  3  4  2  0
  4  5  1  0
  5  6  2  0
  6  7  1  0
  7  8  2  0
  8  9  1  0
  9 10  2  0
 10 11  1  0
 11 12  2  0
 12 13  1  0
 13 14  1  0
 14 15  1  0
 15 16  1  0
 16 17  1  0
 17 18  1  0
 18 19  1  0
 12  3  1  0
 19 14  1  0
 10  5  1  0
M  END
>  <energy_score>  (2178) 
-29.597478

>  <alias>  (2178) 
None

>  <HIPPO Pose ID>  (2178) 
73708

>  <smiles>  (2178) 
OCc1cc2ccccc2nc1NC1CCOCC1

>  <inchikey>  (2178) 
PGDUPEMRYDZVGO-UHFFFAOYSA-N

>  <distance_score>  (2178) 
1.928653

>  <ref_mols>  (2178) 
Z1688a,Z0089a

>  <ref_pdb>  (2178) 
Z1688a

>  <HIPPO Compound ID>  (2178) 
146621

>  <name>  (2178) 
P73708

>  <inspiration_score>  (2178) 
None

$$$$
P73709
     RDKit          3D

 20 22  0  0  0  0  0  0  0  0999 V2000
   -4.4054    5.0067  -14.8606 O   0  0  0  0  0  0  0  0  0  0  0  0
   -5.5716    5.3493  -14.8677 C   0  0  0  0  0  0  0  0  0  0  0  0
   -6.0431    6.1962  -13.9259 O   0  0  0  0  0  0  0  0  0  0  0  0
   -6.6478    4.9604  -15.8000 C   0  0  0  0  0  0  0  0  0  0  0  0
   -7.9083    4.6328  -15.2739 C   0  0  0  0  0  0  0  0  0  0  0  0
   -8.9314    4.2322  -16.1210 C   0  0  0  0  0  0  0  0  0  0  0  0
   -8.7182    4.1573  -17.4812 C   0  0  0  0  0  0  0  0  0  0  0  0
   -7.4578    4.4647  -17.9852 C   0  0  0  0  0  0  0  0  0  0  0  0
   -7.2543    4.3363  -19.3394 C   0  0  0  0  0  0  0  0  0  0  0  0
   -6.0263    4.6793  -19.8678 C   0  0  0  0  0  0  0  0  0  0  0  0
   -4.9955    5.0693  -19.0342 C   0  0  0  0  0  0  0  0  0  0  0  0
   -3.7622    5.3740  -19.6415 N   0  0  0  0  0  0  0  0  0  0  0  0
   -2.6062    5.3606  -18.7399 C   0  0  0  0  0  0  0  0  0  0  0  0
   -1.3679    4.8737  -19.5126 C   0  0  0  0  0  0  0  0  0  0  0  0
   -0.0933    5.5682  -19.0446 C   0  0  0  0  0  0  0  0  0  0  0  0
   -0.1429    5.8115  -17.6440 O   0  0  0  0  0  0  0  0  0  0  0  0
   -1.1457    6.7621  -17.2768 C   0  0  0  0  0  0  0  0  0  0  0  0
   -2.3611    6.7635  -18.1970 C   0  0  0  0  0  0  0  0  0  0  0  0
   -5.1805    5.1993  -17.7087 N   0  0  0  0  0  0  0  0  0  0  0  0
   -6.3848    4.8858  -17.1686 C   0  0  0  0  0  0  0  0  0  0  0  0
  1  2  2  0
  2  3  1  0
  2  4  1  0
  4  5  2  0
  5  6  1  0
  6  7  2  0
  7  8  1  0
  8  9  2  0
  9 10  1  0
 10 11  2  0
 11 12  1  0
 12 13  1  0
 13 14  1  0
 14 15  1  0
 15 16  1  0
 16 17  1  0
 17 18  1  0
 11 19  1  0
 19 20  2  0
 20  4  1  0
 20  8  1  0
 18 13  1  0
M  END
>  <energy_score>  (2179) 
-45.274499

>  <alias>  (2179) 
None

>  <HIPPO Pose ID>  (2179) 
73709

>  <smiles>  (2179) 
O=C(O)c1cccc2ccc(NC3CCOCC3)nc12

>  <inchikey>  (2179) 
GMZXZIFIKNZIQN-UHFFFAOYSA-N

>  <distance_score>  (2179) 
1.605631

>  <ref_mols>  (2179) 
Z1688a,Z0089a

>  <ref_pdb>  (2179) 
Z1688a

>  <HIPPO Compound ID>  (2179) 
146623

>  <name>  (2179) 
P73709

>  <inspiration_score>  (2179) 
None

$$$$
P73714
     RDKit          3D

 20 22  0  0  0  0  0  0  0  0999 V2000
   -8.3572    3.6921  -19.2893 C   0  0  0  0  0  0  0  0  0  0  0  0
   -7.4261    4.2958  -18.3997 N   0  0  0  0  0  0  0  0  0  0  0  0
   -6.3082    5.0420  -18.7744 C   0  0  0  0  0  0  0  0  0  0  0  0
   -5.9216    5.2748  -19.9106 O   0  0  0  0  0  0  0  0  0  0  0  0
   -5.7254    5.5417  -17.5824 N   0  0  0  0  0  0  0  0  0  0  0  0
   -4.9457    6.7638  -17.5116 C   0  0  0  0  0  0  0  0  0  0  0  0
   -3.5050    6.7018  -18.0308 C   0  0  0  0  0  0  0  0  0  0  0  0
   -2.5757    6.9218  -17.3578 O   0  0  0  0  0  0  0  0  0  0  0  0
   -3.5984    6.4112  -19.5518 N   0  0  0  0  0  0  0  0  0  0  0  0
   -2.6086    6.4252  -20.5430 C   0  0  1  0  0  0  0  0  0  0  0  0
   -1.7145    5.2478  -20.7647 C   0  0  0  0  0  0  0  0  0  0  0  0
   -2.7765    5.5789  -21.7783 C   0  0  1  0  0  0  0  0  0  0  0  0
   -3.8860    4.6102  -21.9719 C   0  0  0  0  0  0  0  0  0  0  0  0
   -5.0385    5.2805  -22.4620 O   0  0  0  0  0  0  0  0  0  0  0  0
   -6.5449    5.1328  -16.5130 C   0  0  0  0  0  0  0  0  0  0  0  0
   -6.4467    5.4054  -15.1665 C   0  0  0  0  0  0  0  0  0  0  0  0
   -7.4775    4.9505  -14.3446 C   0  0  0  0  0  0  0  0  0  0  0  0
   -8.5760    4.2596  -14.8824 C   0  0  0  0  0  0  0  0  0  0  0  0
   -8.6542    3.9735  -16.2439 C   0  0  0  0  0  0  0  0  0  0  0  0
   -7.6108    4.4032  -17.0286 C   0  0  0  0  0  0  0  0  0  0  0  0
  1  2  1  0
  2  3  1  0
  3  4  2  0
  3  5  1  0
  5  6  1  0
  6  7  1  0
  7  8  2  0
  7  9  1  0
 10  9  1  1
 10 11  1  0
 11 12  1  0
 12 13  1  1
 13 14  1  0
  5 15  1  0
 15 16  2  0
 16 17  1  0
 17 18  2  0
 18 19  1  0
 19 20  2  0
 20  2  1  0
 12 10  1  0
 20 15  1  0
M  END
>  <energy_score>  (2180) 
-7.593631

>  <alias>  (2180) 
None

>  <HIPPO Pose ID>  (2180) 
73714

>  <smiles>  (2180) 
Cn1c(=O)n(CC(=O)N[C@H]2C[C@H]2CO)c2ccccc21

>  <inchikey>  (2180) 
WIIFCVKYOKRHRL-UWVGGRQHSA-N

>  <distance_score>  (2180) 
1.249989

>  <ref_mols>  (2180) 
Z0101a,Z4245a

>  <ref_pdb>  (2180) 
Z4245a

>  <HIPPO Compound ID>  (2180) 
146705

>  <name>  (2180) 
P73714

>  <inspiration_score>  (2180) 
None

$$$$
P73716
     RDKit          3D

 21 23  0  0  0  0  0  0  0  0999 V2000
   -8.7048    3.7103  -18.9979 C   0  0  0  0  0  0  0  0  0  0  0  0
   -7.6988    4.3250  -18.1987 N   0  0  0  0  0  0  0  0  0  0  0  0
   -6.3684    4.5198  -18.5755 C   0  0  0  0  0  0  0  0  0  0  0  0
   -5.8947    4.1315  -19.6297 O   0  0  0  0  0  0  0  0  0  0  0  0
   -5.7232    5.1923  -17.5038 N   0  0  0  0  0  0  0  0  0  0  0  0
   -4.2903    5.3613  -17.2756 C   0  0  0  0  0  0  0  0  0  0  0  0
   -3.2665    5.9998  -18.2459 C   0  0  0  0  0  0  0  0  0  0  0  0
   -2.3962    6.6893  -17.8489 O   0  0  0  0  0  0  0  0  0  0  0  0
   -3.5524    5.4973  -19.6319 N   0  0  0  0  0  0  0  0  0  0  0  0
   -4.4777    6.4827  -20.4198 C   0  0  0  0  0  0  0  0  0  0  0  0
   -4.1063    5.6485  -21.6350 C   0  0  0  0  0  0  0  0  0  0  0  0
   -4.7878    4.3739  -21.8068 O   0  0  0  0  0  0  0  0  0  0  0  0
   -4.1654    6.3741  -22.9523 C   0  0  0  0  0  0  0  0  0  0  0  0
   -5.5263    6.4438  -23.3761 O   0  0  0  0  0  0  0  0  0  0  0  0
   -2.7668    5.6355  -20.9094 C   0  0  0  0  0  0  0  0  0  0  0  0
   -6.6053    5.0832  -16.3985 C   0  0  0  0  0  0  0  0  0  0  0  0
   -6.3972    5.3277  -15.0583 C   0  0  0  0  0  0  0  0  0  0  0  0
   -7.4374    5.0235  -14.1770 C   0  0  0  0  0  0  0  0  0  0  0  0
   -8.6553    4.5029  -14.6442 C   0  0  0  0  0  0  0  0  0  0  0  0
   -8.8667    4.2824  -16.0013 C   0  0  0  0  0  0  0  0  0  0  0  0
   -7.8174    4.5648  -16.8431 C   0  0  0  0  0  0  0  0  0  0  0  0
  1  2  1  0
  2  3  1  0
  3  4  2  0
  3  5  1  0
  5  6  1  0
  6  7  1  0
  7  8  2  0
  7  9  1  0
  9 10  1  0
 10 11  1  0
 11 12  1  0
 11 13  1  0
 13 14  1  0
 11 15  1  0
  5 16  1  0
 16 17  2  0
 17 18  1  0
 18 19  2  0
 19 20  1  0
 20 21  2  0
 21  2  1  0
 15  9  1  0
 21 16  1  0
M  END
>  <energy_score>  (2181) 
-3.793044

>  <alias>  (2181) 
None

>  <HIPPO Pose ID>  (2181) 
73716

>  <smiles>  (2181) 
Cn1c(=O)n(CC(=O)N2CC(O)(CO)C2)c2ccccc21

>  <inchikey>  (2181) 
FVXJRKCILVLCFW-UHFFFAOYSA-N

>  <distance_score>  (2181) 
1.434278

>  <ref_mols>  (2181) 
Z0101a,Z4245a

>  <ref_pdb>  (2181) 
Z4245a

>  <HIPPO Compound ID>  (2181) 
146706

>  <name>  (2181) 
P73716

>  <inspiration_score>  (2181) 
None

$$$$
P73719
     RDKit          3D

 21 22  0  0  0  0  0  0  0  0999 V2000
   -2.6286    5.1173  -21.0259 C   0  0  0  0  0  0  0  0  0  0  0  0
   -3.2161    6.4079  -21.6102 C   0  0  2  0  0  0  0  0  0  0  0  0
   -4.0941    7.1870  -20.6257 C   0  0  0  0  0  0  0  0  0  0  0  0
   -5.1531    6.3642  -20.1380 N   0  0  0  0  0  0  0  0  0  0  0  0
   -6.3589    6.7102  -19.2436 C   0  0  0  0  0  0  0  0  0  0  0  0
   -6.6356    7.7027  -18.7017 O   0  0  0  0  0  0  0  0  0  0  0  0
   -7.1730    5.3343  -19.1061 C   0  0  0  0  0  0  0  0  0  0  0  0
   -6.6775    4.5441  -18.0362 N   0  0  0  0  0  0  0  0  0  0  0  0
   -5.2788    4.5054  -17.9893 C   0  0  0  0  0  0  0  0  0  0  0  0
   -4.5540    4.3339  -18.9558 O   0  0  0  0  0  0  0  0  0  0  0  0
   -4.9093    4.8150  -16.6894 N   0  0  0  0  0  0  0  0  0  0  0  0
   -3.5844    5.1492  -16.2957 C   0  0  0  0  0  0  0  0  0  0  0  0
   -6.0607    4.8572  -15.8999 C   0  0  0  0  0  0  0  0  0  0  0  0
   -6.2107    4.9942  -14.5444 C   0  0  0  0  0  0  0  0  0  0  0  0
   -7.5051    4.8521  -14.0387 C   0  0  0  0  0  0  0  0  0  0  0  0
   -8.6012    4.6107  -14.8915 C   0  0  0  0  0  0  0  0  0  0  0  0
   -8.4452    4.5452  -16.2729 C   0  0  0  0  0  0  0  0  0  0  0  0
   -7.1577    4.6701  -16.7383 C   0  0  0  0  0  0  0  0  0  0  0  0
   -3.9093    6.1317  -22.9592 C   0  0  1  0  0  0  0  0  0  0  0  0
   -5.3804    5.7806  -22.9328 C   0  0  0  0  0  0  0  0  0  0  0  0
   -3.8701    7.3174  -23.7471 O   0  0  0  0  0  0  0  0  0  0  0  0
  2  1  1  1
  2  3  1  0
  3  4  1  0
  4  5  1  0
  5  6  2  0
  5  7  1  0
  7  8  1  0
  8  9  1  0
  9 10  2  0
  9 11  1  0
 11 12  1  0
 11 13  1  0
 13 14  2  0
 14 15  1  0
 15 16  2  0
 16 17  1  0
 17 18  2  0
  2 19  1  0
 19 20  1  1
 19 21  1  0
 18  8  1  0
 18 13  1  0
M  END
>  <energy_score>  (2182) 
-1.469803

>  <alias>  (2182) 
None

>  <HIPPO Pose ID>  (2182) 
73719

>  <smiles>  (2182) 
C[C@H](CNC(=O)Cn1c(=O)n(C)c2ccccc21)[C@@H](C)O

>  <inchikey>  (2182) 
CKUDOIOWTDFTHD-GHMZBOCLSA-N

>  <distance_score>  (2182) 
1.625066

>  <ref_mols>  (2182) 
Z0101a,Z4245a

>  <ref_pdb>  (2182) 
Z4245a

>  <HIPPO Compound ID>  (2182) 
146709

>  <name>  (2182) 
P73719

>  <inspiration_score>  (2182) 
None

$$$$
P73720
     RDKit          3D

 21 24  0  0  0  0  0  0  0  0999 V2000
   -8.6255    3.7944  -19.2467 C   0  0  0  0  0  0  0  0  0  0  0  0
   -7.5680    4.3003  -18.4468 N   0  0  0  0  0  0  0  0  0  0  0  0
   -6.2450    4.5105  -18.8677 C   0  0  0  0  0  0  0  0  0  0  0  0
   -5.7876    4.2857  -19.9792 O   0  0  0  0  0  0  0  0  0  0  0  0
   -5.5474    4.9767  -17.7229 N   0  0  0  0  0  0  0  0  0  0  0  0
   -4.1236    5.2038  -17.6393 C   0  0  0  0  0  0  0  0  0  0  0  0
   -3.7015    6.5721  -18.1950 C   0  0  0  0  0  0  0  0  0  0  0  0
   -3.1017    7.3752  -17.5733 O   0  0  0  0  0  0  0  0  0  0  0  0
   -4.1241    6.5748  -19.6512 N   0  0  0  0  0  0  0  0  0  0  0  0
   -3.9936    7.6477  -20.7180 C   0  0  0  0  0  0  0  0  0  0  0  0
   -3.7214    6.5676  -21.6789 C   0  0  0  0  0  0  0  0  0  0  0  0
   -4.8299    5.8746  -22.3915 C   0  0  0  0  0  0  0  0  0  0  0  0
   -4.2068    6.2019  -23.6725 O   0  0  0  0  0  0  0  0  0  0  0  0
   -3.0772    6.8247  -22.9859 C   0  0  0  0  0  0  0  0  0  0  0  0
   -3.0234    5.9157  -20.5738 C   0  0  0  0  0  0  0  0  0  0  0  0
   -6.4185    4.9257  -16.6227 C   0  0  0  0  0  0  0  0  0  0  0  0
   -6.1983    5.1688  -15.2864 C   0  0  0  0  0  0  0  0  0  0  0  0
   -7.2630    4.9381  -14.4080 C   0  0  0  0  0  0  0  0  0  0  0  0
   -8.5131    4.4925  -14.8766 C   0  0  0  0  0  0  0  0  0  0  0  0
   -8.7321    4.2805  -16.2349 C   0  0  0  0  0  0  0  0  0  0  0  0
   -7.6628    4.4973  -17.0763 C   0  0  0  0  0  0  0  0  0  0  0  0
  1  2  1  0
  2  3  1  0
  3  4  2  0
  3  5  1  0
  5  6  1  0
  6  7  1  0
  7  8  2  0
  7  9  1  0
  9 10  1  0
 10 11  1  0
 11 12  1  0
 12 13  1  0
 13 14  1  0
 11 15  1  0
  5 16  1  0
 16 17  2  0
 17 18  1  0
 18 19  2  0
 19 20  1  0
 20 21  2  0
 21  2  1  0
 15  9  1  0
 21 16  1  0
 14 11  1  0
M  END
>  <energy_score>  (2183) 
-6.428368

>  <alias>  (2183) 
None

>  <HIPPO Pose ID>  (2183) 
73720

>  <smiles>  (2183) 
Cn1c(=O)n(CC(=O)N2CC3(COC3)C2)c2ccccc21

>  <inchikey>  (2183) 
QFAPMXSFVOFVLW-UHFFFAOYSA-N

>  <distance_score>  (2183) 
1.152068

>  <ref_mols>  (2183) 
Z0101a,Z4245a

>  <ref_pdb>  (2183) 
Z4245a

>  <HIPPO Compound ID>  (2183) 
146710

>  <name>  (2183) 
P73720

>  <inspiration_score>  (2183) 
None

$$$$
P73728
     RDKit          3D

 21 23  0  0  0  0  0  0  0  0999 V2000
   -9.2472    2.6578  -18.2022 C   0  0  0  0  0  0  0  0  0  0  0  0
   -8.8248    3.9447  -18.8836 C   0  0  0  0  0  0  0  0  0  0  0  0
   -7.5641    4.3939  -18.3835 N   0  0  0  0  0  0  0  0  0  0  0  0
   -6.3423    4.4752  -19.0721 C   0  0  0  0  0  0  0  0  0  0  0  0
   -6.0911    4.2208  -20.2435 O   0  0  0  0  0  0  0  0  0  0  0  0
   -5.3979    4.9316  -18.1249 N   0  0  0  0  0  0  0  0  0  0  0  0
   -4.0205    5.2448  -18.4080 C   0  0  0  0  0  0  0  0  0  0  0  0
   -3.8859    6.7065  -18.8722 C   0  0  0  0  0  0  0  0  0  0  0  0
   -3.2631    7.4988  -18.2804 O   0  0  0  0  0  0  0  0  0  0  0  0
   -4.6452    6.8273  -20.2218 N   0  0  0  0  0  0  0  0  0  0  0  0
   -4.8704    7.9649  -21.0643 C   0  0  0  0  0  0  0  0  0  0  0  0
   -5.2662    7.5251  -22.4353 C   0  0  2  0  0  0  0  0  0  0  0  0
   -4.3408    7.7403  -23.6049 C   0  0  0  0  0  0  0  0  0  0  0  0
   -5.6100    8.5347  -23.4977 C   0  0  2  0  0  0  0  0  0  0  0  0
   -5.4610    9.9129  -23.1350 O   0  0  0  0  0  0  0  0  0  0  0  0
   -6.0320    5.0652  -16.8800 C   0  0  0  0  0  0  0  0  0  0  0  0
   -5.5422    5.4054  -15.6409 C   0  0  0  0  0  0  0  0  0  0  0  0
   -6.4373    5.3820  -14.5602 C   0  0  0  0  0  0  0  0  0  0  0  0
   -7.7945    5.0595  -14.7358 C   0  0  0  0  0  0  0  0  0  0  0  0
   -8.2809    4.7564  -16.0004 C   0  0  0  0  0  0  0  0  0  0  0  0
   -7.3715    4.7413  -17.0447 C   0  0  0  0  0  0  0  0  0  0  0  0
  1  2  1  0
  2  3  1  0
  3  4  1  0
  4  5  2  0
  4  6  1  0
  6  7  1  0
  7  8  1  0
  8  9  2  0
  8 10  1  0
 10 11  1  0
 12 11  1  1
 12 13  1  0
 13 14  1  0
 14 15  1  1
  6 16  1  0
 16 17  2  0
 17 18  1  0
 18 19  2  0
 19 20  1  0
 20 21  2  0
 21  3  1  0
 14 12  1  0
 21 16  1  0
M  END
>  <energy_score>  (2184) 
-8.461847

>  <alias>  (2184) 
None

>  <HIPPO Pose ID>  (2184) 
73728

>  <smiles>  (2184) 
CCn1c(=O)n(CC(=O)NC[C@@H]2C[C@@H]2O)c2ccccc21

>  <inchikey>  (2184) 
HYJVHSKNYGIGIY-GWCFXTLKSA-N

>  <distance_score>  (2184) 
1.859031

>  <ref_mols>  (2184) 
Z0101a,Z4245a

>  <ref_pdb>  (2184) 
Z4245a

>  <HIPPO Compound ID>  (2184) 
146716

>  <name>  (2184) 
P73728

>  <inspiration_score>  (2184) 
None

$$$$
P73730
     RDKit          3D

 21 23  0  0  0  0  0  0  0  0999 V2000
   -9.5431    4.6062  -19.2005 C   0  0  0  0  0  0  0  0  0  0  0  0
   -8.4392    3.5835  -19.1358 C   0  0  0  0  0  0  0  0  0  0  0  0
   -7.3717    4.0705  -18.3290 N   0  0  0  0  0  0  0  0  0  0  0  0
   -6.1073    4.4373  -18.8091 C   0  0  0  0  0  0  0  0  0  0  0  0
   -5.6929    4.2805  -19.9511 O   0  0  0  0  0  0  0  0  0  0  0  0
   -5.4248    5.0129  -17.7077 N   0  0  0  0  0  0  0  0  0  0  0  0
   -3.9992    5.2114  -17.6404 C   0  0  0  0  0  0  0  0  0  0  0  0
   -3.4349    6.5598  -18.1198 C   0  0  0  0  0  0  0  0  0  0  0  0
   -2.9940    7.3778  -17.3922 O   0  0  0  0  0  0  0  0  0  0  0  0
   -3.4877    6.5209  -19.6341 N   0  0  0  0  0  0  0  0  0  0  0  0
   -2.9101    7.4563  -20.6597 C   0  0  0  0  0  0  0  0  0  0  0  0
   -4.1187    7.1166  -21.5281 C   0  0  0  0  0  0  0  0  0  0  0  0
   -4.1091    5.7721  -22.2482 C   0  0  0  0  0  0  0  0  0  0  0  0
   -5.4399    5.4286  -22.6093 O   0  0  0  0  0  0  0  0  0  0  0  0
   -4.7917    7.1726  -20.1757 C   0  0  0  0  0  0  0  0  0  0  0  0
   -6.2656    4.9375  -16.5820 C   0  0  0  0  0  0  0  0  0  0  0  0
   -6.0499    5.2958  -15.2712 C   0  0  0  0  0  0  0  0  0  0  0  0
   -7.0861    5.0573  -14.3590 C   0  0  0  0  0  0  0  0  0  0  0  0
   -8.3037    4.4819  -14.7675 C   0  0  0  0  0  0  0  0  0  0  0  0
   -8.5114    4.1348  -16.0985 C   0  0  0  0  0  0  0  0  0  0  0  0
   -7.4710    4.3645  -16.9747 C   0  0  0  0  0  0  0  0  0  0  0  0
  1  2  1  0
  2  3  1  0
  3  4  1  0
  4  5  2  0
  4  6  1  0
  6  7  1  0
  7  8  1  0
  8  9  2  0
  8 10  1  0
 10 11  1  0
 11 12  1  0
 12 13  1  0
 13 14  1  0
 12 15  1  0
  6 16  1  0
 16 17  2  0
 17 18  1  0
 18 19  2  0
 19 20  1  0
 20 21  2  0
 21  3  1  0
 15 10  1  0
 21 16  1  0
M  END
>  <energy_score>  (2185) 
-7.727955

>  <alias>  (2185) 
None

>  <HIPPO Pose ID>  (2185) 
73730

>  <smiles>  (2185) 
CCn1c(=O)n(CC(=O)N2CC(CO)C2)c2ccccc21

>  <inchikey>  (2185) 
UKUMRWPGOPAFPM-UHFFFAOYSA-N

>  <distance_score>  (2185) 
1.59564

>  <ref_mols>  (2185) 
Z0101a,Z4245a

>  <ref_pdb>  (2185) 
Z4245a

>  <HIPPO Compound ID>  (2185) 
146718

>  <name>  (2185) 
P73730

>  <inspiration_score>  (2185) 
None

$$$$
P73731
     RDKit          3D

 21 22  0  0  0  0  0  0  0  0999 V2000
   -4.5294    6.7707  -24.4629 C   0  0  0  0  0  0  0  0  0  0  0  0
   -4.9281    5.8904  -23.4196 O   0  0  0  0  0  0  0  0  0  0  0  0
   -3.8334    5.3916  -22.6491 C   0  0  0  0  0  0  0  0  0  0  0  0
   -3.3227    6.4092  -21.6266 C   0  0  2  0  0  0  0  0  0  0  0  0
   -2.3782    5.7161  -20.6397 C   0  0  0  0  0  0  0  0  0  0  0  0
   -4.4503    7.2125  -20.9708 C   0  0  0  0  0  0  0  0  0  0  0  0
   -5.4998    6.3784  -20.4837 N   0  0  0  0  0  0  0  0  0  0  0  0
   -6.4506    6.5622  -19.2824 C   0  0  0  0  0  0  0  0  0  0  0  0
   -6.5763    7.4598  -18.5490 O   0  0  0  0  0  0  0  0  0  0  0  0
   -7.2171    5.1818  -19.1299 C   0  0  0  0  0  0  0  0  0  0  0  0
   -6.6405    4.5323  -18.0075 N   0  0  0  0  0  0  0  0  0  0  0  0
   -5.2370    4.5786  -17.9295 C   0  0  0  0  0  0  0  0  0  0  0  0
   -4.4856    4.4991  -18.8878 O   0  0  0  0  0  0  0  0  0  0  0  0
   -4.9199    4.8172  -16.5899 N   0  0  0  0  0  0  0  0  0  0  0  0
   -3.6139    5.0931  -16.0694 C   0  0  0  0  0  0  0  0  0  0  0  0
   -6.1055    4.7945  -15.8458 C   0  0  0  0  0  0  0  0  0  0  0  0
   -6.3032    4.8878  -14.4914 C   0  0  0  0  0  0  0  0  0  0  0  0
   -7.6093    4.7140  -14.0325 C   0  0  0  0  0  0  0  0  0  0  0  0
   -8.6702    4.4835  -14.9293 C   0  0  0  0  0  0  0  0  0  0  0  0
   -8.4690    4.4562  -16.3061 C   0  0  0  0  0  0  0  0  0  0  0  0
   -7.1691    4.6058  -16.7262 C   0  0  0  0  0  0  0  0  0  0  0  0
  1  2  1  0
  2  3  1  0
  3  4  1  0
  4  5  1  1
  4  6  1  0
  6  7  1  0
  7  8  1  0
  8  9  2  0
  8 10  1  0
 10 11  1  0
 11 12  1  0
 12 13  2  0
 12 14  1  0
 14 15  1  0
 14 16  1  0
 16 17  2  0
 17 18  1  0
 18 19  2  0
 19 20  1  0
 20 21  2  0
 21 11  1  0
 21 16  1  0
M  END
>  <energy_score>  (2186) 
-0.519944

>  <alias>  (2186) 
None

>  <HIPPO Pose ID>  (2186) 
73731

>  <smiles>  (2186) 
COC[C@H](C)CNC(=O)Cn1c(=O)n(C)c2ccccc21

>  <inchikey>  (2186) 
ZHUFRYZRAZYYHQ-LLVKDONJSA-N

>  <distance_score>  (2186) 
1.576188

>  <ref_mols>  (2186) 
Z0101a,Z4245a

>  <ref_pdb>  (2186) 
Z4245a

>  <HIPPO Compound ID>  (2186) 
146720

>  <name>  (2186) 
P73731

>  <inspiration_score>  (2186) 
None

$$$$
P73738
     RDKit          3D

 21 24  0  0  0  0  0  0  0  0999 V2000
   -8.5152    3.6393  -19.2471 C   0  0  0  0  0  0  0  0  0  0  0  0
   -7.4969    4.1946  -18.4356 N   0  0  0  0  0  0  0  0  0  0  0  0
   -6.3111    4.7685  -18.9120 C   0  0  0  0  0  0  0  0  0  0  0  0
   -5.9013    4.7510  -20.0613 O   0  0  0  0  0  0  0  0  0  0  0  0
   -5.7055    5.3866  -17.7935 N   0  0  0  0  0  0  0  0  0  0  0  0
   -4.7585    6.4668  -17.8834 C   0  0  0  0  0  0  0  0  0  0  0  0
   -3.3048    6.0212  -17.9855 C   0  0  0  0  0  0  0  0  0  0  0  0
   -2.5248    6.2590  -17.1315 O   0  0  0  0  0  0  0  0  0  0  0  0
   -3.1283    5.2763  -19.2975 N   0  0  0  0  0  0  0  0  0  0  0  0
   -1.9441    4.5377  -19.8521 C   0  0  0  0  0  0  0  0  0  0  0  0
   -2.1904    5.0858  -21.2212 C   0  0  1  0  0  0  0  0  0  0  0  0
   -3.3477    4.6364  -22.0752 C   0  0  0  0  0  0  0  0  0  0  0  0
   -4.0067    5.8364  -22.4656 O   0  0  0  0  0  0  0  0  0  0  0  0
   -3.8620    6.7439  -21.3572 C   0  0  0  0  0  0  0  0  0  0  0  0
   -2.7110    6.2627  -20.4762 C   0  0  1  0  0  0  0  0  0  0  0  0
   -6.4909    5.1208  -16.6606 C   0  0  0  0  0  0  0  0  0  0  0  0
   -6.3123    5.4702  -15.3419 C   0  0  0  0  0  0  0  0  0  0  0  0
   -7.3075    5.0845  -14.4374 C   0  0  0  0  0  0  0  0  0  0  0  0
   -8.4557    4.3933  -14.8679 C   0  0  0  0  0  0  0  0  0  0  0  0
   -8.6265    4.0573  -16.2086 C   0  0  0  0  0  0  0  0  0  0  0  0
   -7.6138    4.4103  -17.0709 C   0  0  0  0  0  0  0  0  0  0  0  0
  1  2  1  0
  2  3  1  0
  3  4  2  0
  3  5  1  0
  5  6  1  0
  6  7  1  0
  7  8  2  0
  7  9  1  0
  9 10  1  0
 11 10  1  1
 11 12  1  0
 12 13  1  0
 13 14  1  0
 15 14  1  6
  5 16  1  0
 16 17  2  0
 17 18  1  0
 18 19  2  0
 19 20  1  0
 20 21  2  0
 21  2  1  0
 15  9  1  0
 21 16  1  0
 15 11  1  0
M  END
>  <energy_score>  (2187) 
-27.883022

>  <alias>  (2187) 
None

>  <HIPPO Pose ID>  (2187) 
73738

>  <smiles>  (2187) 
Cn1c(=O)n(CC(=O)N2C[C@H]3COC[C@H]32)c2ccccc21

>  <inchikey>  (2187) 
HVKASQAZHPYPGI-GXFFZTMASA-N

>  <distance_score>  (2187) 
1.254088

>  <ref_mols>  (2187) 
Z0101a,Z4245a

>  <ref_pdb>  (2187) 
Z4245a

>  <HIPPO Compound ID>  (2187) 
146724

>  <name>  (2187) 
P73738

>  <inspiration_score>  (2187) 
None

$$$$
P73741
     RDKit          3D

 21 23  0  0  0  0  0  0  0  0999 V2000
   -4.2578    9.4268  -19.4774 C   0  0  0  0  0  0  0  0  0  0  0  0
   -4.4827    9.1932  -20.8619 O   0  0  0  0  0  0  0  0  0  0  0  0
   -3.4566    8.3859  -21.4533 C   0  0  0  0  0  0  0  0  0  0  0  0
   -3.7382    6.9519  -21.2266 C   0  0  2  0  0  0  0  0  0  0  0  0
   -3.3414    5.8733  -22.1923 C   0  0  0  0  0  0  0  0  0  0  0  0
   -4.7915    6.2671  -22.0580 C   0  0  1  0  0  0  0  0  0  0  0  0
   -5.7125    5.4904  -21.3416 N   0  0  0  0  0  0  0  0  0  0  0  0
   -5.8253    3.9570  -21.1853 C   0  0  0  0  0  0  0  0  0  0  0  0
   -5.2170    3.0990  -21.6900 O   0  0  0  0  0  0  0  0  0  0  0  0
   -6.8916    3.6865  -20.0817 C   0  0  0  0  0  0  0  0  0  0  0  0
   -6.5897    4.4376  -18.8924 N   0  0  0  0  0  0  0  0  0  0  0  0
   -5.2717    4.7572  -18.5191 C   0  0  0  0  0  0  0  0  0  0  0  0
   -4.2574    4.6291  -19.1812 O   0  0  0  0  0  0  0  0  0  0  0  0
   -5.3132    5.2282  -17.2126 N   0  0  0  0  0  0  0  0  0  0  0  0
   -4.1461    5.5723  -16.4721 C   0  0  0  0  0  0  0  0  0  0  0  0
   -6.5712    4.9444  -16.6877 C   0  0  0  0  0  0  0  0  0  0  0  0
   -7.0040    5.0111  -15.3837 C   0  0  0  0  0  0  0  0  0  0  0  0
   -8.2925    4.5538  -15.1325 C   0  0  0  0  0  0  0  0  0  0  0  0
   -9.0962    4.0659  -16.1821 C   0  0  0  0  0  0  0  0  0  0  0  0
   -8.6467    4.0082  -17.5029 C   0  0  0  0  0  0  0  0  0  0  0  0
   -7.3691    4.4519  -17.7284 C   0  0  0  0  0  0  0  0  0  0  0  0
  1  2  1  0
  2  3  1  0
  4  3  1  6
  4  5  1  0
  5  6  1  0
  6  7  1  1
  7  8  1  0
  8  9  2  0
  8 10  1  0
 10 11  1  0
 11 12  1  0
 12 13  2  0
 12 14  1  0
 14 15  1  0
 14 16  1  0
 16 17  2  0
 17 18  1  0
 18 19  2  0
 19 20  1  0
 20 21  2  0
  6  4  1  0
 21 11  1  0
 21 16  1  0
M  END
>  <energy_score>  (2188) 
-3.390754

>  <alias>  (2188) 
None

>  <HIPPO Pose ID>  (2188) 
73741

>  <smiles>  (2188) 
COC[C@@H]1C[C@H]1NC(=O)Cn1c(=O)n(C)c2ccccc21

>  <inchikey>  (2188) 
IIYIXVZLNZZAJM-WDEREUQCSA-N

>  <distance_score>  (2188) 
1.362442

>  <ref_mols>  (2188) 
Z0101a,Z4245a

>  <ref_pdb>  (2188) 
Z4245a

>  <HIPPO Compound ID>  (2188) 
146725

>  <name>  (2188) 
P73741

>  <inspiration_score>  (2188) 
None

$$$$
P73743
     RDKit          3D

 21 23  0  0  0  0  0  0  0  0999 V2000
   -3.0974    4.4371  -21.9892 C   0  0  0  0  0  0  0  0  0  0  0  0
   -3.8443    5.6659  -22.4760 C   0  0  1  0  0  0  0  0  0  0  0  0
   -5.2478    5.4420  -22.4530 O   0  0  0  0  0  0  0  0  0  0  0  0
   -3.4449    6.9518  -21.7359 C   0  0  0  0  0  0  0  0  0  0  0  0
   -4.4860    7.7491  -20.9556 C   0  0  0  0  0  0  0  0  0  0  0  0
   -4.2836    6.7753  -19.8275 N   0  0  0  0  0  0  0  0  0  0  0  0
   -4.3550    6.9732  -18.3246 C   0  0  0  0  0  0  0  0  0  0  0  0
   -4.5089    7.9564  -17.6910 O   0  0  0  0  0  0  0  0  0  0  0  0
   -4.2876    5.5536  -17.7429 C   0  0  0  0  0  0  0  0  0  0  0  0
   -5.6209    5.0214  -17.7362 N   0  0  0  0  0  0  0  0  0  0  0  0
   -6.3086    4.5379  -18.8761 C   0  0  0  0  0  0  0  0  0  0  0  0
   -5.8639    4.4087  -20.0091 O   0  0  0  0  0  0  0  0  0  0  0  0
   -7.6023    4.2317  -18.4295 N   0  0  0  0  0  0  0  0  0  0  0  0
   -8.6775    3.7774  -19.2325 C   0  0  0  0  0  0  0  0  0  0  0  0
   -7.6919    4.4378  -17.0592 C   0  0  0  0  0  0  0  0  0  0  0  0
   -8.7474    4.2080  -16.2057 C   0  0  0  0  0  0  0  0  0  0  0  0
   -8.5285    4.4668  -14.8551 C   0  0  0  0  0  0  0  0  0  0  0  0
   -7.2947    4.9745  -14.4068 C   0  0  0  0  0  0  0  0  0  0  0  0
   -6.2472    5.2265  -15.2988 C   0  0  0  0  0  0  0  0  0  0  0  0
   -6.4670    4.9344  -16.6245 C   0  0  0  0  0  0  0  0  0  0  0  0
   -2.8343    6.8957  -20.3452 C   0  0  0  0  0  0  0  0  0  0  0  0
  2  1  1  1
  2  3  1  0
  2  4  1  0
  4  5  1  0
  5  6  1  0
  6  7  1  0
  7  8  2  0
  7  9  1  0
  9 10  1  0
 10 11  1  0
 11 12  2  0
 11 13  1  0
 13 14  1  0
 13 15  1  0
 15 16  2  0
 16 17  1  0
 17 18  2  0
 18 19  1  0
 19 20  2  0
  6 21  1  0
 21  4  1  0
 20 10  1  0
 20 15  1  0
M  END
>  <energy_score>  (2189) 
-3.87592

>  <alias>  (2189) 
None

>  <HIPPO Pose ID>  (2189) 
73743

>  <smiles>  (2189) 
C[C@@H](O)C1CN(C(=O)Cn2c(=O)n(C)c3ccccc32)C1

>  <inchikey>  (2189) 
OUCIQAMJMHIHRQ-SNVBAGLBSA-N

>  <distance_score>  (2189) 
1.234012

>  <ref_mols>  (2189) 
Z0101a,Z4245a

>  <ref_pdb>  (2189) 
Z4245a

>  <HIPPO Compound ID>  (2189) 
146731

>  <name>  (2189) 
P73743

>  <inspiration_score>  (2189) 
None

$$$$
P73750
     RDKit          3D

 21 23  0  0  0  0  0  0  0  0999 V2000
   -3.9305    4.0374  -21.8100 C   0  0  0  0  0  0  0  0  0  0  0  0
   -3.8196    5.4154  -22.4227 C   0  0  1  0  0  0  0  0  0  0  0  0
   -5.0450    6.1299  -22.3262 O   0  0  0  0  0  0  0  0  0  0  0  0
   -2.6751    6.2422  -21.9208 C   0  0  2  0  0  0  0  0  0  0  0  0
   -1.6572    5.6985  -20.9377 C   0  0  0  0  0  0  0  0  0  0  0  0
   -2.5436    6.8366  -20.5423 C   0  0  2  0  0  0  0  0  0  0  0  0
   -3.5495    6.6964  -19.5766 N   0  0  0  0  0  0  0  0  0  0  0  0
   -3.4575    6.6269  -18.0266 C   0  0  0  0  0  0  0  0  0  0  0  0
   -2.5237    6.5984  -17.3238 O   0  0  0  0  0  0  0  0  0  0  0  0
   -4.8921    6.7105  -17.5018 C   0  0  0  0  0  0  0  0  0  0  0  0
   -5.6774    5.5009  -17.5861 N   0  0  0  0  0  0  0  0  0  0  0  0
   -6.2442    5.0246  -18.7939 C   0  0  0  0  0  0  0  0  0  0  0  0
   -5.8420    5.2752  -19.9204 O   0  0  0  0  0  0  0  0  0  0  0  0
   -7.3745    4.2825  -18.4432 N   0  0  0  0  0  0  0  0  0  0  0  0
   -8.2874    3.6750  -19.3475 C   0  0  0  0  0  0  0  0  0  0  0  0
   -7.5865    4.3858  -17.0752 C   0  0  0  0  0  0  0  0  0  0  0  0
   -8.6505    3.9647  -16.3134 C   0  0  0  0  0  0  0  0  0  0  0  0
   -8.5979    4.2483  -14.9500 C   0  0  0  0  0  0  0  0  0  0  0  0
   -7.5039    4.9263  -14.3874 C   0  0  0  0  0  0  0  0  0  0  0  0
   -6.4511    5.3707  -15.1865 C   0  0  0  0  0  0  0  0  0  0  0  0
   -6.5240    5.1014  -16.5354 C   0  0  0  0  0  0  0  0  0  0  0  0
  2  1  1  1
  2  3  1  0
  2  4  1  0
  4  5  1  1
  5  6  1  0
  6  7  1  1
  7  8  1  0
  8  9  2  0
  8 10  1  0
 10 11  1  0
 11 12  1  0
 12 13  2  0
 12 14  1  0
 14 15  1  0
 14 16  1  0
 16 17  2  0
 17 18  1  0
 18 19  2  0
 19 20  1  0
 20 21  2  0
  6  4  1  0
 21 11  1  0
 21 16  1  0
M  END
>  <energy_score>  (2190) 
-5.176875

>  <alias>  (2190) 
None

>  <HIPPO Pose ID>  (2190) 
73750

>  <smiles>  (2190) 
C[C@@H](O)[C@@H]1C[C@@H]1NC(=O)Cn1c(=O)n(C)c2ccccc21

>  <inchikey>  (2190) 
KODCJJGYHSGDSJ-VWYCJHECSA-N

>  <distance_score>  (2190) 
1.304218

>  <ref_mols>  (2190) 
Z0101a,Z4245a

>  <ref_pdb>  (2190) 
Z4245a

>  <HIPPO Compound ID>  (2190) 
146737

>  <name>  (2190) 
P73750

>  <inspiration_score>  (2190) 
None

$$$$
P73760
     RDKit          3D

 22 24  0  0  0  0  0  0  0  0999 V2000
   -8.6068    3.7866  -19.2369 C   0  0  0  0  0  0  0  0  0  0  0  0
   -7.6014    4.3088  -18.3810 N   0  0  0  0  0  0  0  0  0  0  0  0
   -6.2791    4.5893  -18.7393 C   0  0  0  0  0  0  0  0  0  0  0  0
   -5.7613    4.4569  -19.8414 O   0  0  0  0  0  0  0  0  0  0  0  0
   -5.6398    5.0414  -17.5597 N   0  0  0  0  0  0  0  0  0  0  0  0
   -4.2297    5.2892  -17.3914 C   0  0  0  0  0  0  0  0  0  0  0  0
   -3.8038    6.6205  -18.0203 C   0  0  0  0  0  0  0  0  0  0  0  0
   -3.3883    7.5292  -17.4163 O   0  0  0  0  0  0  0  0  0  0  0  0
   -3.9549    6.4152  -19.5498 N   0  0  0  0  0  0  0  0  0  0  0  0
   -3.5392    7.2452  -20.6499 C   0  0  1  0  0  0  0  0  0  0  0  0
   -2.2723    8.0522  -20.3622 C   0  0  0  0  0  0  0  0  0  0  0  0
   -1.1238    7.0523  -20.5102 C   0  0  0  0  0  0  0  0  0  0  0  0
   -1.6754    5.8988  -21.3512 C   0  0  0  0  0  0  0  0  0  0  0  0
   -3.0622    6.3639  -21.8123 C   0  0  1  0  0  0  0  0  0  0  0  0
   -3.9274    5.1905  -22.2439 C   0  0  0  0  0  0  0  0  0  0  0  0
   -5.2523    5.5969  -22.5388 O   0  0  0  0  0  0  0  0  0  0  0  0
   -6.5457    4.9273  -16.4968 C   0  0  0  0  0  0  0  0  0  0  0  0
   -6.3760    5.1485  -15.1490 C   0  0  0  0  0  0  0  0  0  0  0  0
   -7.4611    4.8743  -14.3160 C   0  0  0  0  0  0  0  0  0  0  0  0
   -8.6783    4.4098  -14.8434 C   0  0  0  0  0  0  0  0  0  0  0  0
   -8.8465    4.2168  -16.2130 C   0  0  0  0  0  0  0  0  0  0  0  0
   -7.7564    4.4730  -17.0104 C   0  0  0  0  0  0  0  0  0  0  0  0
  1  2  1  0
  2  3  1  0
  3  4  2  0
  3  5  1  0
  5  6  1  0
  6  7  1  0
  7  8  2  0
  7  9  1  0
 10  9  1  1
 10 11  1  0
 11 12  1  0
 12 13  1  0
 13 14  1  0
 14 15  1  1
 15 16  1  0
  5 17  1  0
 17 18  2  0
 18 19  1  0
 19 20  2  0
 20 21  1  0
 21 22  2  0
 22  2  1  0
 14 10  1  0
 22 17  1  0
M  END
>  <energy_score>  (2191) 
-14.056999

>  <alias>  (2191) 
None

>  <HIPPO Pose ID>  (2191) 
73760

>  <smiles>  (2191) 
Cn1c(=O)n(CC(=O)N[C@H]2CCC[C@H]2CO)c2ccccc21

>  <inchikey>  (2191) 
ZCQNWOGTJAFWAR-RYUDHWBXSA-N

>  <distance_score>  (2191) 
1.179094

>  <ref_mols>  (2191) 
Z0101a,Z4245a

>  <ref_pdb>  (2191) 
Z4245a

>  <HIPPO Compound ID>  (2191) 
146745

>  <name>  (2191) 
P73760

>  <inspiration_score>  (2191) 
None

$$$$
P73779
     RDKit          3D

 22 24  0  0  0  0  0  0  0  0999 V2000
   -8.4231    3.7429  -19.2817 C   0  0  0  0  0  0  0  0  0  0  0  0
   -7.4750    4.3114  -18.3870 N   0  0  0  0  0  0  0  0  0  0  0  0
   -6.1391    4.6145  -18.6870 C   0  0  0  0  0  0  0  0  0  0  0  0
   -5.5916    4.4983  -19.7743 O   0  0  0  0  0  0  0  0  0  0  0  0
   -5.5540    5.0515  -17.4716 N   0  0  0  0  0  0  0  0  0  0  0  0
   -4.1513    5.3100  -17.2481 C   0  0  0  0  0  0  0  0  0  0  0  0
   -3.7824    6.5532  -18.0555 C   0  0  0  0  0  0  0  0  0  0  0  0
   -4.0621    7.6394  -17.7294 O   0  0  0  0  0  0  0  0  0  0  0  0
   -3.1034    6.0360  -19.3510 N   0  0  0  0  0  0  0  0  0  0  0  0
   -2.7199    6.7327  -20.5403 C   0  0  0  0  0  0  0  0  0  0  0  0
   -3.9451    6.7478  -21.4631 C   0  0  2  0  0  0  0  0  0  0  0  0
   -4.0981    5.4031  -22.1875 C   0  0  0  0  0  0  0  0  0  0  0  0
   -5.4568    5.2111  -22.5654 O   0  0  0  0  0  0  0  0  0  0  0  0
   -3.8313    7.8798  -22.4551 C   0  0  0  0  0  0  0  0  0  0  0  0
   -5.0689    8.4504  -23.1019 C   0  0  0  0  0  0  0  0  0  0  0  0
   -4.3136    9.2613  -22.0870 C   0  0  0  0  0  0  0  0  0  0  0  0
   -6.5037    4.9154  -16.4514 C   0  0  0  0  0  0  0  0  0  0  0  0
   -6.3912    5.1182  -15.0948 C   0  0  0  0  0  0  0  0  0  0  0  0
   -7.5100    4.8336  -14.3124 C   0  0  0  0  0  0  0  0  0  0  0  0
   -8.7023    4.3745  -14.8976 C   0  0  0  0  0  0  0  0  0  0  0  0
   -8.8120    4.1937  -16.2748 C   0  0  0  0  0  0  0  0  0  0  0  0
   -7.6898    4.4625  -17.0223 C   0  0  0  0  0  0  0  0  0  0  0  0
  1  2  1  0
  2  3  1  0
  3  4  2  0
  3  5  1  0
  5  6  1  0
  6  7  1  0
  7  8  2  0
  7  9  1  0
  9 10  1  0
 11 10  1  6
 11 12  1  0
 12 13  1  0
 11 14  1  0
 14 15  1  0
 15 16  1  0
  5 17  1  0
 17 18  2  0
 18 19  1  0
 19 20  2  0
 20 21  1  0
 21 22  2  0
 22  2  1  0
 16 14  1  0
 22 17  1  0
M  END
>  <energy_score>  (2192) 
-16.838271

>  <alias>  (2192) 
None

>  <HIPPO Pose ID>  (2192) 
73779

>  <smiles>  (2192) 
Cn1c(=O)n(CC(=O)NC[C@H](CO)C2CC2)c2ccccc21

>  <inchikey>  (2192) 
JBCAQCCVRCCMHL-GFCCVEGCSA-N

>  <distance_score>  (2192) 
1.297829

>  <ref_mols>  (2192) 
Z0101a,Z4245a

>  <ref_pdb>  (2192) 
Z4245a

>  <HIPPO Compound ID>  (2192) 
146752

>  <name>  (2192) 
P73779

>  <inspiration_score>  (2192) 
None

$$$$
P73785
     RDKit          3D

 22 25  0  0  0  0  0  0  0  0999 V2000
   -9.4118    4.5319  -19.1854 C   0  0  0  0  0  0  0  0  0  0  0  0
   -8.2656    3.5523  -19.1032 C   0  0  0  0  0  0  0  0  0  0  0  0
   -7.2581    4.0532  -18.2195 N   0  0  0  0  0  0  0  0  0  0  0  0
   -6.1846    4.8468  -18.6428 C   0  0  0  0  0  0  0  0  0  0  0  0
   -5.8190    5.0499  -19.7912 O   0  0  0  0  0  0  0  0  0  0  0  0
   -5.6295    5.4506  -17.4859 N   0  0  0  0  0  0  0  0  0  0  0  0
   -4.9890    6.7504  -17.5176 C   0  0  0  0  0  0  0  0  0  0  0  0
   -3.5341    6.8430  -17.9895 C   0  0  0  0  0  0  0  0  0  0  0  0
   -2.7015    7.3482  -17.3433 O   0  0  0  0  0  0  0  0  0  0  0  0
   -3.4776    6.2639  -19.4265 N   0  0  0  0  0  0  0  0  0  0  0  0
   -2.4410    6.2724  -20.3721 C   0  0  2  0  0  0  0  0  0  0  0  0
   -2.6918    6.8070  -21.7576 C   0  0  2  0  0  0  0  0  0  0  0  0
   -4.0438    6.8928  -22.3765 C   0  0  0  0  0  0  0  0  0  0  0  0
   -4.3879    5.5668  -22.8093 O   0  0  0  0  0  0  0  0  0  0  0  0
   -3.5869    4.6244  -22.0771 C   0  0  0  0  0  0  0  0  0  0  0  0
   -2.4122    5.3629  -21.5598 C   0  0  2  0  0  0  0  0  0  0  0  0
   -6.4371    5.0767  -16.3939 C   0  0  0  0  0  0  0  0  0  0  0  0
   -6.3748    5.4682  -15.0741 C   0  0  0  0  0  0  0  0  0  0  0  0
   -7.3972    5.0406  -14.2264 C   0  0  0  0  0  0  0  0  0  0  0  0
   -8.4541    4.2557  -14.7122 C   0  0  0  0  0  0  0  0  0  0  0  0
   -8.4941    3.8529  -16.0451 C   0  0  0  0  0  0  0  0  0  0  0  0
   -7.4584    4.2577  -16.8565 C   0  0  0  0  0  0  0  0  0  0  0  0
  1  2  1  0
  2  3  1  0
  3  4  1  0
  4  5  2  0
  4  6  1  0
  6  7  1  0
  7  8  1  0
  8  9  2  0
  8 10  1  0
 11 10  1  1
 11 12  1  0
 12 13  1  1
 13 14  1  0
 14 15  1  0
 16 15  1  1
  6 17  1  0
 17 18  2  0
 18 19  1  0
 19 20  2  0
 20 21  1  0
 21 22  2  0
 22  3  1  0
 16 11  1  0
 22 17  1  0
 16 12  1  0
M  END
>  <energy_score>  (2193) 
-9.44277

>  <alias>  (2193) 
None

>  <HIPPO Pose ID>  (2193) 
73785

>  <smiles>  (2193) 
CCn1c(=O)n(CC(=O)N[C@@H]2[C@@H]3COC[C@@H]32)c2ccccc21

>  <inchikey>  (2193) 
MQHNPEAARWNXIG-QHBPRCKVSA-N

>  <distance_score>  (2193) 
1.39474

>  <ref_mols>  (2193) 
Z0101a,Z4245a

>  <ref_pdb>  (2193) 
Z4245a

>  <HIPPO Compound ID>  (2193) 
146759

>  <name>  (2193) 
P73785

>  <inspiration_score>  (2193) 
None

$$$$
P73787
     RDKit          3D

 22 24  0  0  0  0  0  0  0  0999 V2000
   -9.4244    4.5165  -19.1718 C   0  0  0  0  0  0  0  0  0  0  0  0
   -8.2968    3.5121  -19.0985 C   0  0  0  0  0  0  0  0  0  0  0  0
   -7.2527    4.0171  -18.2624 N   0  0  0  0  0  0  0  0  0  0  0  0
   -6.2238    4.8297  -18.7582 C   0  0  0  0  0  0  0  0  0  0  0  0
   -5.9059    4.9677  -19.9300 O   0  0  0  0  0  0  0  0  0  0  0  0
   -5.6805    5.5392  -17.6550 N   0  0  0  0  0  0  0  0  0  0  0  0
   -5.1992    6.9021  -17.8042 C   0  0  0  0  0  0  0  0  0  0  0  0
   -3.8326    7.0755  -18.4769 C   0  0  0  0  0  0  0  0  0  0  0  0
   -2.8868    7.4232  -17.8873 O   0  0  0  0  0  0  0  0  0  0  0  0
   -4.0204    6.7729  -19.9839 N   0  0  0  0  0  0  0  0  0  0  0  0
   -3.0626    6.7438  -21.0576 C   0  0  2  0  0  0  0  0  0  0  0  0
   -3.7057    7.0116  -22.4113 C   0  0  0  0  0  0  0  0  0  0  0  0
   -4.1856    5.7513  -22.9143 O   0  0  0  0  0  0  0  0  0  0  0  0
   -3.5687    4.7018  -22.1506 C   0  0  0  0  0  0  0  0  0  0  0  0
   -2.5257    5.3393  -21.2509 C   0  0  2  0  0  0  0  0  0  0  0  0
   -2.2527    4.5449  -19.9857 C   0  0  0  0  0  0  0  0  0  0  0  0
   -6.4320    5.1698  -16.5177 C   0  0  0  0  0  0  0  0  0  0  0  0
   -6.3539    5.6200  -15.2180 C   0  0  0  0  0  0  0  0  0  0  0  0
   -7.3233    5.1690  -14.3172 C   0  0  0  0  0  0  0  0  0  0  0  0
   -8.3513    4.3065  -14.7315 C   0  0  0  0  0  0  0  0  0  0  0  0
   -8.4118    3.8535  -16.0463 C   0  0  0  0  0  0  0  0  0  0  0  0
   -7.4210    4.2763  -16.9057 C   0  0  0  0  0  0  0  0  0  0  0  0
  1  2  1  0
  2  3  1  0
  3  4  1  0
  4  5  2  0
  4  6  1  0
  6  7  1  0
  7  8  1  0
  8  9  2  0
  8 10  1  0
 11 10  1  1
 11 12  1  0
 12 13  1  0
 13 14  1  0
 14 15  1  0
 15 16  1  1
  6 17  1  0
 17 18  2  0
 18 19  1  0
 19 20  2  0
 20 21  1  0
 21 22  2  0
 22  3  1  0
 15 11  1  0
 22 17  1  0
M  END
>  <energy_score>  (2194) 
-18.263462

>  <alias>  (2194) 
None

>  <HIPPO Pose ID>  (2194) 
73787

>  <smiles>  (2194) 
CCn1c(=O)n(CC(=O)N[C@@H]2COC[C@@H]2C)c2ccccc21

>  <inchikey>  (2194) 
GKKWDBFWRQPYDD-NWDGAFQWSA-N

>  <distance_score>  (2194) 
1.303323

>  <ref_mols>  (2194) 
Z0101a,Z4245a

>  <ref_pdb>  (2194) 
Z4245a

>  <HIPPO Compound ID>  (2194) 
146764

>  <name>  (2194) 
P73787

>  <inspiration_score>  (2194) 
None

$$$$
P73791
     RDKit          3D

 22 24  0  0  0  0  0  0  0  0999 V2000
   -9.4079    4.5244  -19.1942 C   0  0  0  0  0  0  0  0  0  0  0  0
   -8.2404    3.5687  -19.1322 C   0  0  0  0  0  0  0  0  0  0  0  0
   -7.2292    4.0878  -18.2616 N   0  0  0  0  0  0  0  0  0  0  0  0
   -6.1845    4.9163  -18.6952 C   0  0  0  0  0  0  0  0  0  0  0  0
   -5.8769    5.1516  -19.8556 O   0  0  0  0  0  0  0  0  0  0  0  0
   -5.6106    5.5063  -17.5375 N   0  0  0  0  0  0  0  0  0  0  0  0
   -4.9717    6.8111  -17.5395 C   0  0  0  0  0  0  0  0  0  0  0  0
   -3.6687    6.9492  -18.3359 C   0  0  0  0  0  0  0  0  0  0  0  0
   -2.6188    7.0422  -17.8324 O   0  0  0  0  0  0  0  0  0  0  0  0
   -4.0787    7.0371  -19.8315 N   0  0  0  0  0  0  0  0  0  0  0  0
   -3.2644    7.1631  -21.0253 C   0  0  2  0  0  0  0  0  0  0  0  0
   -4.0940    7.3863  -22.3067 C   0  0  0  0  0  0  0  0  0  0  0  0
   -3.9663    5.8832  -22.6241 C   0  0  2  0  0  0  0  0  0  0  0  0
   -5.1365    5.0748  -22.4085 O   0  0  0  0  0  0  0  0  0  0  0  0
   -2.7970    5.8086  -21.6110 C   0  0  2  0  0  0  0  0  0  0  0  0
   -2.6682    4.6101  -20.6926 C   0  0  0  0  0  0  0  0  0  0  0  0
   -6.4035    5.1094  -16.4382 C   0  0  0  0  0  0  0  0  0  0  0  0
   -6.3424    5.4955  -15.1163 C   0  0  0  0  0  0  0  0  0  0  0  0
   -7.3525    5.0465  -14.2633 C   0  0  0  0  0  0  0  0  0  0  0  0
   -8.3989    4.2447  -14.7440 C   0  0  0  0  0  0  0  0  0  0  0  0
   -8.4390    3.8474  -16.0779 C   0  0  0  0  0  0  0  0  0  0  0  0
   -7.4156    4.2758  -16.8948 C   0  0  0  0  0  0  0  0  0  0  0  0
  1  2  1  0
  2  3  1  0
  3  4  1  0
  4  5  2  0
  4  6  1  0
  6  7  1  0
  7  8  1  0
  8  9  2  0
  8 10  1  0
 11 10  1  1
 11 12  1  0
 12 13  1  0
 13 14  1  1
 13 15  1  0
 15 16  1  1
  6 17  1  0
 17 18  2  0
 18 19  1  0
 19 20  2  0
 20 21  1  0
 21 22  2  0
 22  3  1  0
 15 11  1  0
 22 17  1  0
M  END
>  <energy_score>  (2195) 
-17.611145

>  <alias>  (2195) 
None

>  <HIPPO Pose ID>  (2195) 
73791

>  <smiles>  (2195) 
CCn1c(=O)n(CC(=O)N[C@@H]2C[C@H](O)[C@@H]2C)c2ccccc21

>  <inchikey>  (2195) 
LFMUFBBQZRPZCC-GYSYKLTISA-N

>  <distance_score>  (2195) 
1.306111

>  <ref_mols>  (2195) 
Z0101a,Z4245a

>  <ref_pdb>  (2195) 
Z4245a

>  <HIPPO Compound ID>  (2195) 
146767

>  <name>  (2195) 
P73791

>  <inspiration_score>  (2195) 
None

$$$$
P73798
     RDKit          3D

 22 24  0  0  0  0  0  0  0  0999 V2000
   -9.1566    2.6109  -18.2608 C   0  0  0  0  0  0  0  0  0  0  0  0
   -8.6584    3.9175  -18.8482 C   0  0  0  0  0  0  0  0  0  0  0  0
   -7.5456    4.4367  -18.1129 N   0  0  0  0  0  0  0  0  0  0  0  0
   -6.3402    4.9344  -18.6476 C   0  0  0  0  0  0  0  0  0  0  0  0
   -6.0229    4.9977  -19.8260 O   0  0  0  0  0  0  0  0  0  0  0  0
   -5.5850    5.3961  -17.5330 N   0  0  0  0  0  0  0  0  0  0  0  0
   -4.5850    6.4367  -17.6058 C   0  0  0  0  0  0  0  0  0  0  0  0
   -3.1542    6.0097  -17.9357 C   0  0  0  0  0  0  0  0  0  0  0  0
   -2.2429    6.2247  -17.2189 O   0  0  0  0  0  0  0  0  0  0  0  0
   -3.1875    5.4036  -19.3203 N   0  0  0  0  0  0  0  0  0  0  0  0
   -3.0565    6.4902  -20.4189 C   0  0  0  0  0  0  0  0  0  0  0  0
   -2.7596    5.3783  -21.3976 C   0  0  0  0  0  0  0  0  0  0  0  0
   -1.8131    5.8008  -22.5156 C   0  0  0  0  0  0  0  0  0  0  0  0
   -3.9241    4.5407  -21.9165 C   0  0  0  0  0  0  0  0  0  0  0  0
   -4.9601    5.3700  -22.4363 O   0  0  0  0  0  0  0  0  0  0  0  0
   -2.0833    4.8005  -20.1600 C   0  0  0  0  0  0  0  0  0  0  0  0
   -6.3401    5.1795  -16.3690 C   0  0  0  0  0  0  0  0  0  0  0  0
   -6.0430    5.4471  -15.0509 C   0  0  0  0  0  0  0  0  0  0  0  0
   -7.0249    5.1658  -14.0952 C   0  0  0  0  0  0  0  0  0  0  0  0
   -8.2838    4.6735  -14.4716 C   0  0  0  0  0  0  0  0  0  0  0  0
   -8.5746    4.4381  -15.8104 C   0  0  0  0  0  0  0  0  0  0  0  0
   -7.5661    4.6482  -16.7326 C   0  0  0  0  0  0  0  0  0  0  0  0
  1  2  1  0
  2  3  1  0
  3  4  1  0
  4  5  2  0
  4  6  1  0
  6  7  1  0
  7  8  1  0
  8  9  2  0
  8 10  1  0
 10 11  1  0
 11 12  1  0
 12 13  1  0
 12 14  1  0
 14 15  1  0
 12 16  1  0
  6 17  1  0
 17 18  2  0
 18 19  1  0
 19 20  2  0
 20 21  1  0
 21 22  2  0
 22  3  1  0
 16 10  1  0
 22 17  1  0
M  END
>  <energy_score>  (2196) 
-0.050997

>  <alias>  (2196) 
None

>  <HIPPO Pose ID>  (2196) 
73798

>  <smiles>  (2196) 
CCn1c(=O)n(CC(=O)N2CC(C)(CO)C2)c2ccccc21

>  <inchikey>  (2196) 
MZXMPBMIPJYZCN-UHFFFAOYSA-N

>  <distance_score>  (2196) 
1.547011

>  <ref_mols>  (2196) 
Z0101a,Z4245a

>  <ref_pdb>  (2196) 
Z4245a

>  <HIPPO Compound ID>  (2196) 
146769

>  <name>  (2196) 
P73798

>  <inspiration_score>  (2196) 
None

$$$$
P73800
     RDKit          3D

 22 24  0  0  0  0  0  0  0  0999 V2000
   -9.4743    4.5956  -19.1280 C   0  0  0  0  0  0  0  0  0  0  0  0
   -8.4263    3.5236  -18.9753 C   0  0  0  0  0  0  0  0  0  0  0  0
   -7.3882    3.9785  -18.1045 N   0  0  0  0  0  0  0  0  0  0  0  0
   -6.2297    4.6147  -18.5481 C   0  0  0  0  0  0  0  0  0  0  0  0
   -5.8735    4.7378  -19.7105 O   0  0  0  0  0  0  0  0  0  0  0  0
   -5.5647    5.1368  -17.4105 N   0  0  0  0  0  0  0  0  0  0  0  0
   -4.6621    6.2786  -17.4217 C   0  0  0  0  0  0  0  0  0  0  0  0
   -3.2798    6.2465  -18.1127 C   0  0  0  0  0  0  0  0  0  0  0  0
   -2.3271    6.7041  -17.6152 O   0  0  0  0  0  0  0  0  0  0  0  0
   -3.4787    5.6281  -19.5160 N   0  0  0  0  0  0  0  0  0  0  0  0
   -2.5959    5.5326  -20.6046 C   0  0  2  0  0  0  0  0  0  0  0  0
   -2.4089    6.7278  -21.4981 C   0  0  0  0  0  0  0  0  0  0  0  0
   -3.1666    5.5322  -22.0080 C   0  0  2  0  0  0  0  0  0  0  0  0
   -4.6456    5.5997  -22.2400 C   0  0  0  0  0  0  0  0  0  0  0  0
   -4.9167    5.9851  -23.5859 O   0  0  0  0  0  0  0  0  0  0  0  0
   -5.0833    7.3860  -23.7375 C   0  0  0  0  0  0  0  0  0  0  0  0
   -6.4186    4.9083  -16.3072 C   0  0  0  0  0  0  0  0  0  0  0  0
   -6.2995    5.3007  -14.9919 C   0  0  0  0  0  0  0  0  0  0  0  0
   -7.3524    4.9923  -14.1276 C   0  0  0  0  0  0  0  0  0  0  0  0
   -8.4973    4.3252  -14.5910 C   0  0  0  0  0  0  0  0  0  0  0  0
   -8.6076    3.9363  -15.9224 C   0  0  0  0  0  0  0  0  0  0  0  0
   -7.5445    4.2207  -16.7475 C   0  0  0  0  0  0  0  0  0  0  0  0
  1  2  1  0
  2  3  1  0
  3  4  1  0
  4  5  2  0
  4  6  1  0
  6  7  1  0
  7  8  1  0
  8  9  2  0
  8 10  1  0
 11 10  1  1
 11 12  1  0
 12 13  1  0
 13 14  1  1
 14 15  1  0
 15 16  1  0
  6 17  1  0
 17 18  2  0
 18 19  1  0
 19 20  2  0
 20 21  1  0
 21 22  2  0
 22  3  1  0
 13 11  1  0
 22 17  1  0
M  END
>  <energy_score>  (2197) 
-12.275248

>  <alias>  (2197) 
None

>  <HIPPO Pose ID>  (2197) 
73800

>  <smiles>  (2197) 
CCn1c(=O)n(CC(=O)N[C@@H]2C[C@@H]2COC)c2ccccc21

>  <inchikey>  (2197) 
LQZWEZCCYLABGP-VXGBXAGGSA-N

>  <distance_score>  (2197) 
1.336751

>  <ref_mols>  (2197) 
Z0101a,Z4245a

>  <ref_pdb>  (2197) 
Z4245a

>  <HIPPO Compound ID>  (2197) 
146770

>  <name>  (2197) 
P73800

>  <inspiration_score>  (2197) 
None

$$$$
P73804
     RDKit          3D

 22 25  0  0  0  0  0  0  0  0999 V2000
   -9.4974    4.5706  -19.1192 C   0  0  0  0  0  0  0  0  0  0  0  0
   -8.4719    3.4679  -19.0004 C   0  0  0  0  0  0  0  0  0  0  0  0
   -7.3737    3.9153  -18.2097 N   0  0  0  0  0  0  0  0  0  0  0  0
   -6.2606    4.5579  -18.7758 C   0  0  0  0  0  0  0  0  0  0  0  0
   -5.9382    4.5167  -19.9526 O   0  0  0  0  0  0  0  0  0  0  0  0
   -5.6477    5.2874  -17.7300 N   0  0  0  0  0  0  0  0  0  0  0  0
   -4.8095    6.4424  -17.9521 C   0  0  0  0  0  0  0  0  0  0  0  0
   -3.3344    6.1270  -18.2054 C   0  0  0  0  0  0  0  0  0  0  0  0
   -2.4700    6.5552  -17.5255 O   0  0  0  0  0  0  0  0  0  0  0  0
   -3.2668    5.2625  -19.4459 N   0  0  0  0  0  0  0  0  0  0  0  0
   -2.0810    4.6031  -20.1315 C   0  0  0  0  0  0  0  0  0  0  0  0
   -2.9051    4.7838  -21.4000 C   0  0  2  0  0  0  0  0  0  0  0  0
   -2.7510    5.3657  -22.7736 C   0  0  0  0  0  0  0  0  0  0  0  0
   -3.8909    6.2400  -22.9316 O   0  0  0  0  0  0  0  0  0  0  0  0
   -4.3308    6.5523  -21.5840 C   0  0  0  0  0  0  0  0  0  0  0  0
   -3.1841    6.1072  -20.7125 C   0  0  1  0  0  0  0  0  0  0  0  0
   -6.3960    5.0792  -16.5574 C   0  0  0  0  0  0  0  0  0  0  0  0
   -6.2326    5.5773  -15.2854 C   0  0  0  0  0  0  0  0  0  0  0  0
   -7.2012    5.2399  -14.3316 C   0  0  0  0  0  0  0  0  0  0  0  0
   -8.3124    4.4454  -14.6677 C   0  0  0  0  0  0  0  0  0  0  0  0
   -8.4673    3.9572  -15.9606 C   0  0  0  0  0  0  0  0  0  0  0  0
   -7.4782    4.2643  -16.8689 C   0  0  0  0  0  0  0  0  0  0  0  0
  1  2  1  0
  2  3  1  0
  3  4  1  0
  4  5  2  0
  4  6  1  0
  6  7  1  0
  7  8  1  0
  8  9  2  0
  8 10  1  0
 10 11  1  0
 12 11  1  1
 12 13  1  0
 13 14  1  0
 14 15  1  0
 16 15  1  6
  6 17  1  0
 17 18  2  0
 18 19  1  0
 19 20  2  0
 20 21  1  0
 21 22  2  0
 22  3  1  0
 16 10  1  0
 22 17  1  0
 16 12  1  0
M  END
>  <energy_score>  (2198) 
-9.44862

>  <alias>  (2198) 
None

>  <HIPPO Pose ID>  (2198) 
73804

>  <smiles>  (2198) 
CCn1c(=O)n(CC(=O)N2C[C@@H]3COC[C@H]32)c2ccccc21

>  <inchikey>  (2198) 
RLRLTDSWQFSEFH-BXUZGUMPSA-N

>  <distance_score>  (2198) 
1.467574

>  <ref_mols>  (2198) 
Z0101a,Z4245a

>  <ref_pdb>  (2198) 
Z4245a

>  <HIPPO Compound ID>  (2198) 
146771

>  <name>  (2198) 
P73804

>  <inspiration_score>  (2198) 
None

$$$$
P73806
     RDKit          3D

 22 24  0  0  0  0  0  0  0  0999 V2000
   -5.0018    7.9943  -21.1720 C   0  0  0  0  0  0  0  0  0  0  0  0
   -4.0542    6.8426  -21.4591 C   0  0  2  0  0  0  0  0  0  0  0  0
   -3.1196    7.2157  -22.6007 C   0  0  0  0  0  0  0  0  0  0  0  0
   -2.1472    6.2051  -22.8100 O   0  0  0  0  0  0  0  0  0  0  0  0
   -2.7115    4.9505  -23.1487 C   0  0  0  0  0  0  0  0  0  0  0  0
   -3.6726    4.4757  -22.0688 C   0  0  0  0  0  0  0  0  0  0  0  0
   -4.7578    5.5358  -21.8461 C   0  0  1  0  0  0  0  0  0  0  0  0
   -5.6942    5.1399  -20.8342 N   0  0  0  0  0  0  0  0  0  0  0  0
   -6.4649    3.8259  -20.6477 C   0  0  0  0  0  0  0  0  0  0  0  0
   -6.5226    2.8833  -21.3261 O   0  0  0  0  0  0  0  0  0  0  0  0
   -7.2799    3.8776  -19.3558 C   0  0  0  0  0  0  0  0  0  0  0  0
   -6.7163    4.6261  -18.2613 N   0  0  0  0  0  0  0  0  0  0  0  0
   -5.3341    4.7991  -18.0114 C   0  0  0  0  0  0  0  0  0  0  0  0
   -4.4052    4.6279  -18.7816 O   0  0  0  0  0  0  0  0  0  0  0  0
   -5.2059    5.2254  -16.6857 N   0  0  0  0  0  0  0  0  0  0  0  0
   -3.9564    5.4309  -16.0092 C   0  0  0  0  0  0  0  0  0  0  0  0
   -6.4309    5.0320  -16.0525 C   0  0  0  0  0  0  0  0  0  0  0  0
   -6.7310    5.0683  -14.7119 C   0  0  0  0  0  0  0  0  0  0  0  0
   -8.0071    4.6548  -14.3454 C   0  0  0  0  0  0  0  0  0  0  0  0
   -8.9311    4.2395  -15.3204 C   0  0  0  0  0  0  0  0  0  0  0  0
   -8.6300    4.2451  -16.6789 C   0  0  0  0  0  0  0  0  0  0  0  0
   -7.3606    4.6450  -17.0168 C   0  0  0  0  0  0  0  0  0  0  0  0
  2  1  1  6
  2  3  1  0
  3  4  1  0
  4  5  1  0
  5  6  1  0
  6  7  1  0
  7  8  1  1
  8  9  1  0
  9 10  2  0
  9 11  1  0
 11 12  1  0
 12 13  1  0
 13 14  2  0
 13 15  1  0
 15 16  1  0
 15 17  1  0
 17 18  2  0
 18 19  1  0
 19 20  2  0
 20 21  1  0
 21 22  2  0
  7  2  1  0
 22 12  1  0
 22 17  1  0
M  END
>  <energy_score>  (2199) 
-10.514578

>  <alias>  (2199) 
None

>  <HIPPO Pose ID>  (2199) 
73806

>  <smiles>  (2199) 
C[C@@H]1COCC[C@H]1NC(=O)Cn1c(=O)n(C)c2ccccc21

>  <inchikey>  (2199) 
FTOWQCNCKAPAPG-VXGBXAGGSA-N

>  <distance_score>  (2199) 
1.787519

>  <ref_mols>  (2199) 
Z0101a,Z4245a

>  <ref_pdb>  (2199) 
Z4245a

>  <HIPPO Compound ID>  (2199) 
146778

>  <name>  (2199) 
P73806

>  <inspiration_score>  (2199) 
None

$$$$
P73807
     RDKit          3D

 22 23  0  0  0  0  0  0  0  0999 V2000
   -8.5109    3.7774  -19.2530 C   0  0  0  0  0  0  0  0  0  0  0  0
   -7.5301    4.3422  -18.3923 N   0  0  0  0  0  0  0  0  0  0  0  0
   -6.2015    4.6268  -18.7357 C   0  0  0  0  0  0  0  0  0  0  0  0
   -5.6865    4.4787  -19.8343 O   0  0  0  0  0  0  0  0  0  0  0  0
   -5.5745    5.0787  -17.5480 N   0  0  0  0  0  0  0  0  0  0  0  0
   -4.1535    5.2575  -17.3708 C   0  0  0  0  0  0  0  0  0  0  0  0
   -3.6727    6.4535  -18.1980 C   0  0  0  0  0  0  0  0  0  0  0  0
   -3.9432    7.5608  -17.9355 O   0  0  0  0  0  0  0  0  0  0  0  0
   -2.9041    5.8651  -19.4171 N   0  0  0  0  0  0  0  0  0  0  0  0
   -2.3986    6.5078  -20.6012 C   0  0  0  0  0  0  0  0  0  0  0  0
   -3.5084    6.6424  -21.6693 C   0  0  0  0  0  0  0  0  0  0  0  0
   -4.6644    7.5062  -21.1269 C   0  0  0  0  0  0  0  0  0  0  0  0
   -3.9849    5.2466  -22.1295 C   0  0  0  0  0  0  0  0  0  0  0  0
   -5.3234    5.2792  -22.6076 O   0  0  0  0  0  0  0  0  0  0  0  0
   -2.9116    7.3529  -22.9114 C   0  0  0  0  0  0  0  0  0  0  0  0
   -2.3878    8.6410  -22.6077 O   0  0  0  0  0  0  0  0  0  0  0  0
   -6.4896    4.9424  -16.4934 C   0  0  0  0  0  0  0  0  0  0  0  0
   -6.3319    5.1370  -15.1401 C   0  0  0  0  0  0  0  0  0  0  0  0
   -7.4264    4.8527  -14.3210 C   0  0  0  0  0  0  0  0  0  0  0  0
   -8.6411    4.3999  -14.8650 C   0  0  0  0  0  0  0  0  0  0  0  0
   -8.7954    4.2250  -16.2382 C   0  0  0  0  0  0  0  0  0  0  0  0
   -7.6973    4.4948  -17.0221 C   0  0  0  0  0  0  0  0  0  0  0  0
  1  2  1  0
  2  3  1  0
  3  4  2  0
  3  5  1  0
  5  6  1  0
  6  7  1  0
  7  8  2  0
  7  9  1  0
  9 10  1  0
 10 11  1  0
 11 12  1  0
 11 13  1  0
 13 14  1  0
 11 15  1  0
 15 16  1  0
  5 17  1  0
 17 18  2  0
 18 19  1  0
 19 20  2  0
 20 21  1  0
 21 22  2  0
 22  2  1  0
 22 17  1  0
M  END
>  <energy_score>  (2200) 
-6.119718

>  <alias>  (2200) 
None

>  <HIPPO Pose ID>  (2200) 
73807

>  <smiles>  (2200) 
Cn1c(=O)n(CC(=O)NCC(C)(CO)CO)c2ccccc21

>  <inchikey>  (2200) 
WBGQVTLPXILQEW-UHFFFAOYSA-N

>  <distance_score>  (2200) 
1.22258

>  <ref_mols>  (2200) 
Z0101a,Z4245a

>  <ref_pdb>  (2200) 
Z4245a

>  <HIPPO Compound ID>  (2200) 
146782

>  <name>  (2200) 
P73807

>  <inspiration_score>  (2200) 
None

$$$$
P73811
     RDKit          3D

 22 23  0  0  0  0  0  0  0  0999 V2000
   -1.2706    7.3514  -23.2706 C   0  0  0  0  0  0  0  0  0  0  0  0
   -1.6920    5.9775  -22.7612 C   0  0  0  0  0  0  0  0  0  0  0  0
   -3.0751    5.9119  -22.0358 C   0  0  1  0  0  0  0  0  0  0  0  0
   -3.0237    6.8330  -20.8024 C   0  0  0  0  0  0  0  0  0  0  0  0
   -4.1835    6.3701  -23.0157 C   0  0  0  0  0  0  0  0  0  0  0  0
   -5.5085    6.0071  -22.6619 O   0  0  0  0  0  0  0  0  0  0  0  0
   -3.2837    4.4448  -21.6170 C   0  0  0  0  0  0  0  0  0  0  0  0
   -4.5818    4.2408  -21.0558 N   0  0  0  0  0  0  0  0  0  0  0  0
   -5.0571    4.2741  -19.5818 C   0  0  0  0  0  0  0  0  0  0  0  0
   -4.4477    4.3968  -18.5930 O   0  0  0  0  0  0  0  0  0  0  0  0
   -6.6174    4.0909  -19.6159 C   0  0  0  0  0  0  0  0  0  0  0  0
   -7.1936    5.1080  -18.7741 N   0  0  0  0  0  0  0  0  0  0  0  0
   -6.4367    6.3156  -18.8604 C   0  0  0  0  0  0  0  0  0  0  0  0
   -6.0836    6.8607  -19.8989 O   0  0  0  0  0  0  0  0  0  0  0  0
   -6.0216    6.6165  -17.5490 N   0  0  0  0  0  0  0  0  0  0  0  0
   -4.9657    7.5253  -17.2077 C   0  0  0  0  0  0  0  0  0  0  0  0
   -6.5972    5.6903  -16.6673 C   0  0  0  0  0  0  0  0  0  0  0  0
   -6.5386    5.6094  -15.2952 C   0  0  0  0  0  0  0  0  0  0  0  0
   -7.3858    4.6869  -14.6821 C   0  0  0  0  0  0  0  0  0  0  0  0
   -8.2390    3.8708  -15.4495 C   0  0  0  0  0  0  0  0  0  0  0  0
   -8.2255    3.9054  -16.8420 C   0  0  0  0  0  0  0  0  0  0  0  0
   -7.3779    4.8200  -17.4168 C   0  0  0  0  0  0  0  0  0  0  0  0
  1  2  1  0
  3  2  1  0
  3  4  1  1
  3  5  1  0
  5  6  1  0
  3  7  1  0
  7  8  1  0
  8  9  1  0
  9 10  2  0
  9 11  1  0
 11 12  1  0
 12 13  1  0
 13 14  2  0
 13 15  1  0
 15 16  1  0
 15 17  1  0
 17 18  2  0
 18 19  1  0
 19 20  2  0
 20 21  1  0
 21 22  2  0
 22 12  1  0
 22 17  1  0
M  END
>  <energy_score>  (2201) 
-2.098464

>  <alias>  (2201) 
None

>  <HIPPO Pose ID>  (2201) 
73811

>  <smiles>  (2201) 
CC[C@@](C)(CO)CNC(=O)Cn1c(=O)n(C)c2ccccc21

>  <inchikey>  (2201) 
MYDYAQKLKGACHN-MRXNPFEDSA-N

>  <distance_score>  (2201) 
1.584949

>  <ref_mols>  (2201) 
Z0101a,Z4245a

>  <ref_pdb>  (2201) 
Z4245a

>  <HIPPO Compound ID>  (2201) 
146793

>  <name>  (2201) 
P73811

>  <inspiration_score>  (2201) 
None

$$$$
P73813
     RDKit          3D

 22 24  0  0  0  0  0  0  0  0999 V2000
  -10.5613    4.4714  -18.1536 C   0  0  0  0  0  0  0  0  0  0  0  0
   -9.4116    4.5394  -19.1403 C   0  0  0  0  0  0  0  0  0  0  0  0
   -8.3097    3.5199  -18.9186 C   0  0  0  0  0  0  0  0  0  0  0  0
   -7.2769    4.0798  -18.0985 N   0  0  0  0  0  0  0  0  0  0  0  0
   -6.2698    4.9266  -18.5911 C   0  0  0  0  0  0  0  0  0  0  0  0
   -5.9843    5.1371  -19.7623 O   0  0  0  0  0  0  0  0  0  0  0  0
   -5.6898    5.5684  -17.4709 N   0  0  0  0  0  0  0  0  0  0  0  0
   -4.9904    6.8347  -17.5352 C   0  0  0  0  0  0  0  0  0  0  0  0
   -3.5576    6.7493  -18.0630 C   0  0  0  0  0  0  0  0  0  0  0  0
   -2.6146    6.9377  -17.3995 O   0  0  0  0  0  0  0  0  0  0  0  0
   -3.6765    6.4656  -19.5849 N   0  0  0  0  0  0  0  0  0  0  0  0
   -2.6969    6.4505  -20.5869 C   0  0  1  0  0  0  0  0  0  0  0  0
   -1.7920    5.2720  -20.7704 C   0  0  0  0  0  0  0  0  0  0  0  0
   -2.8671    5.5545  -21.7853 C   0  0  1  0  0  0  0  0  0  0  0  0
   -3.9757    4.5765  -21.9251 C   0  0  0  0  0  0  0  0  0  0  0  0
   -5.1438    5.2284  -22.4023 O   0  0  0  0  0  0  0  0  0  0  0  0
   -6.4064    5.1664  -16.3309 C   0  0  0  0  0  0  0  0  0  0  0  0
   -6.2911    5.5748  -15.0203 C   0  0  0  0  0  0  0  0  0  0  0  0
   -7.2236    5.0821  -14.1053 C   0  0  0  0  0  0  0  0  0  0  0  0
   -8.2386    4.2035  -14.5114 C   0  0  0  0  0  0  0  0  0  0  0  0
   -8.3260    3.7823  -15.8357 C   0  0  0  0  0  0  0  0  0  0  0  0
   -7.3955    4.2745  -16.7236 C   0  0  0  0  0  0  0  0  0  0  0  0
  1  2  1  0
  2  3  1  0
  3  4  1  0
  4  5  1  0
  5  6  2  0
  5  7  1  0
  7  8  1  0
  8  9  1  0
  9 10  2  0
  9 11  1  0
 12 11  1  1
 12 13  1  0
 13 14  1  0
 14 15  1  1
 15 16  1  0
  7 17  1  0
 17 18  2  0
 18 19  1  0
 19 20  2  0
 20 21  1  0
 21 22  2  0
 22  4  1  0
 14 12  1  0
 22 17  1  0
M  END
>  <energy_score>  (2202) 
-23.61201

>  <alias>  (2202) 
None

>  <HIPPO Pose ID>  (2202) 
73813

>  <smiles>  (2202) 
CCCn1c(=O)n(CC(=O)N[C@H]2C[C@H]2CO)c2ccccc21

>  <inchikey>  (2202) 
XQCJQAZGKDMVPG-RYUDHWBXSA-N

>  <distance_score>  (2202) 
1.437875

>  <ref_mols>  (2202) 
Z0101a,Z4245a

>  <ref_pdb>  (2202) 
Z4245a

>  <HIPPO Compound ID>  (2202) 
146795

>  <name>  (2202) 
P73813

>  <inspiration_score>  (2202) 
None

$$$$
P73820
     RDKit          3D

 22 23  0  0  0  0  0  0  0  0999 V2000
   -9.4221    4.5548  -19.1866 C   0  0  0  0  0  0  0  0  0  0  0  0
   -8.2879    3.5661  -19.0826 C   0  0  0  0  0  0  0  0  0  0  0  0
   -7.2938    4.0534  -18.1753 N   0  0  0  0  0  0  0  0  0  0  0  0
   -6.1665    4.7904  -18.5617 C   0  0  0  0  0  0  0  0  0  0  0  0
   -5.7793    4.9914  -19.7059 O   0  0  0  0  0  0  0  0  0  0  0  0
   -5.5927    5.3174  -17.3750 N   0  0  0  0  0  0  0  0  0  0  0  0
   -4.7628    6.5041  -17.3133 C   0  0  0  0  0  0  0  0  0  0  0  0
   -3.3194    6.3629  -17.8076 C   0  0  0  0  0  0  0  0  0  0  0  0
   -2.3864    6.5062  -17.1240 O   0  0  0  0  0  0  0  0  0  0  0  0
   -3.4172    6.1149  -19.3264 N   0  0  0  0  0  0  0  0  0  0  0  0
   -2.4019    6.0859  -20.3277 C   0  0  0  0  0  0  0  0  0  0  0  0
   -2.9979    6.4425  -21.6963 C   0  0  2  0  0  0  0  0  0  0  0  0
   -3.6341    7.8366  -21.6564 C   0  0  0  0  0  0  0  0  0  0  0  0
   -3.9417    5.4101  -22.3551 C   0  0  1  0  0  0  0  0  0  0  0  0
   -3.7114    3.9759  -21.9347 C   0  0  0  0  0  0  0  0  0  0  0  0
   -5.3207    5.7324  -22.2381 O   0  0  0  0  0  0  0  0  0  0  0  0
   -6.4491    4.9830  -16.3103 C   0  0  0  0  0  0  0  0  0  0  0  0
   -6.3878    5.3404  -14.9806 C   0  0  0  0  0  0  0  0  0  0  0  0
   -7.4501    4.9599  -14.1625 C   0  0  0  0  0  0  0  0  0  0  0  0
   -8.5412    4.2519  -14.6867 C   0  0  0  0  0  0  0  0  0  0  0  0
   -8.5803    3.8794  -16.0284 C   0  0  0  0  0  0  0  0  0  0  0  0
   -7.5097    4.2411  -16.8124 C   0  0  0  0  0  0  0  0  0  0  0  0
  1  2  1  0
  2  3  1  0
  3  4  1  0
  4  5  2  0
  4  6  1  0
  6  7  1  0
  7  8  1  0
  8  9  2  0
  8 10  1  0
 10 11  1  0
 11 12  1  0
 12 13  1  1
 12 14  1  0
 14 15  1  1
 14 16  1  0
  6 17  1  0
 17 18  2  0
 18 19  1  0
 19 20  2  0
 20 21  1  0
 21 22  2  0
 22  3  1  0
 22 17  1  0
M  END
>  <energy_score>  (2203) 
-16.762137

>  <alias>  (2203) 
None

>  <HIPPO Pose ID>  (2203) 
73820

>  <smiles>  (2203) 
CCn1c(=O)n(CC(=O)NC[C@H](C)[C@@H](C)O)c2ccccc21

>  <inchikey>  (2203) 
HWRPRHJKVKMMPU-NWDGAFQWSA-N

>  <distance_score>  (2203) 
1.332622

>  <ref_mols>  (2203) 
Z0101a,Z4245a

>  <ref_pdb>  (2203) 
Z4245a

>  <HIPPO Compound ID>  (2203) 
146802

>  <name>  (2203) 
P73820

>  <inspiration_score>  (2203) 
None

$$$$
P73821
     RDKit          3D

 22 23  0  0  0  0  0  0  0  0999 V2000
   -9.5396    4.6200  -19.1510 C   0  0  0  0  0  0  0  0  0  0  0  0
   -8.5251    3.5298  -18.9317 C   0  0  0  0  0  0  0  0  0  0  0  0
   -7.5077    4.0007  -18.0503 N   0  0  0  0  0  0  0  0  0  0  0  0
   -6.2474    4.4354  -18.4554 C   0  0  0  0  0  0  0  0  0  0  0  0
   -5.7669    4.3536  -19.5790 O   0  0  0  0  0  0  0  0  0  0  0  0
   -5.6336    5.0144  -17.3231 N   0  0  0  0  0  0  0  0  0  0  0  0
   -4.2479    5.4008  -17.1855 C   0  0  0  0  0  0  0  0  0  0  0  0
   -3.8995    6.7070  -17.9147 C   0  0  0  0  0  0  0  0  0  0  0  0
   -3.4640    7.6549  -17.3943 O   0  0  0  0  0  0  0  0  0  0  0  0
   -4.1556    6.4141  -19.4093 N   0  0  0  0  0  0  0  0  0  0  0  0
   -3.8444    7.1810  -20.5695 C   0  0  0  0  0  0  0  0  0  0  0  0
   -3.1969    6.2653  -21.6221 C   0  0  2  0  0  0  0  0  0  0  0  0
   -1.9221    5.6120  -21.0750 C   0  0  0  0  0  0  0  0  0  0  0  0
   -2.8323    7.0911  -22.7448 O   0  0  0  0  0  0  0  0  0  0  0  0
   -4.1181    5.1544  -22.1520 C   0  0  0  0  0  0  0  0  0  0  0  0
   -5.3541    5.6851  -22.6242 O   0  0  0  0  0  0  0  0  0  0  0  0
   -6.5221    4.9070  -16.2460 C   0  0  0  0  0  0  0  0  0  0  0  0
   -6.3791    5.2822  -14.9303 C   0  0  0  0  0  0  0  0  0  0  0  0
   -7.4495    5.0235  -14.0743 C   0  0  0  0  0  0  0  0  0  0  0  0
   -8.6278    4.4249  -14.5501 C   0  0  0  0  0  0  0  0  0  0  0  0
   -8.7671    4.0717  -15.8895 C   0  0  0  0  0  0  0  0  0  0  0  0
   -7.6881    4.3028  -16.7062 C   0  0  0  0  0  0  0  0  0  0  0  0
  1  2  1  0
  2  3  1  0
  3  4  1  0
  4  5  2  0
  4  6  1  0
  6  7  1  0
  7  8  1  0
  8  9  2  0
  8 10  1  0
 10 11  1  0
 11 12  1  0
 12 13  1  1
 12 14  1  0
 12 15  1  0
 15 16  1  0
  6 17  1  0
 17 18  2  0
 18 19  1  0
 19 20  2  0
 20 21  1  0
 21 22  2  0
 22  3  1  0
 22 17  1  0
M  END
>  <energy_score>  (2204) 
-16.298757

>  <alias>  (2204) 
None

>  <HIPPO Pose ID>  (2204) 
73821

>  <smiles>  (2204) 
CCn1c(=O)n(CC(=O)NC[C@](C)(O)CO)c2ccccc21

>  <inchikey>  (2204) 
DLRGKVTUTQSFLQ-HNNXBMFYSA-N

>  <distance_score>  (2204) 
1.283684

>  <ref_mols>  (2204) 
Z0101a,Z4245a

>  <ref_pdb>  (2204) 
Z4245a

>  <HIPPO Compound ID>  (2204) 
146804

>  <name>  (2204) 
P73821

>  <inspiration_score>  (2204) 
None

$$$$
P73823
     RDKit          3D

 22 24  0  0  0  0  0  0  0  0999 V2000
  -10.2187    4.2703  -18.1894 C   0  0  0  0  0  0  0  0  0  0  0  0
   -8.8659    4.4316  -18.8529 C   0  0  0  0  0  0  0  0  0  0  0  0
   -7.6621    4.3429  -18.0672 N   0  0  0  0  0  0  0  0  0  0  0  0
   -6.4473    4.8973  -18.5775 C   0  0  0  0  0  0  0  0  0  0  0  0
   -6.1766    5.1366  -19.7456 O   0  0  0  0  0  0  0  0  0  0  0  0
   -5.6532    5.2362  -17.4554 N   0  0  0  0  0  0  0  0  0  0  0  0
   -4.6556    6.2872  -17.4610 C   0  0  0  0  0  0  0  0  0  0  0  0
   -3.2249    5.9329  -17.8834 C   0  0  0  0  0  0  0  0  0  0  0  0
   -2.2857    6.1778  -17.2137 O   0  0  0  0  0  0  0  0  0  0  0  0
   -3.3077    5.3524  -19.2756 N   0  0  0  0  0  0  0  0  0  0  0  0
   -2.2221    4.8172  -20.1910 C   0  0  0  0  0  0  0  0  0  0  0  0
   -3.0017    5.3820  -21.3738 C   0  0  0  0  0  0  0  0  0  0  0  0
   -2.2433    5.8222  -22.5305 O   0  0  0  0  0  0  0  0  0  0  0  0
   -4.1671    4.5153  -21.8381 C   0  0  0  0  0  0  0  0  0  0  0  0
   -5.1598    5.3301  -22.4673 O   0  0  0  0  0  0  0  0  0  0  0  0
   -3.2898    6.4606  -20.3526 C   0  0  0  0  0  0  0  0  0  0  0  0
   -6.3730    4.9084  -16.2991 C   0  0  0  0  0  0  0  0  0  0  0  0
   -6.0392    5.1221  -14.9770 C   0  0  0  0  0  0  0  0  0  0  0  0
   -6.9715    4.7597  -14.0066 C   0  0  0  0  0  0  0  0  0  0  0  0
   -8.1947    4.1854  -14.3705 C   0  0  0  0  0  0  0  0  0  0  0  0
   -8.5067    3.9650  -15.7110 C   0  0  0  0  0  0  0  0  0  0  0  0
   -7.5934    4.3537  -16.6683 C   0  0  0  0  0  0  0  0  0  0  0  0
  1  2  1  0
  2  3  1  0
  3  4  1  0
  4  5  2  0
  4  6  1  0
  6  7  1  0
  7  8  1  0
  8  9  2  0
  8 10  1  0
 10 11  1  0
 11 12  1  0
 12 13  1  0
 12 14  1  0
 14 15  1  0
 12 16  1  0
  6 17  1  0
 17 18  2  0
 18 19  1  0
 19 20  2  0
 20 21  1  0
 21 22  2  0
 22  3  1  0
 16 10  1  0
 22 17  1  0
M  END
>  <energy_score>  (2205) 
-0.010387

>  <alias>  (2205) 
None

>  <HIPPO Pose ID>  (2205) 
73823

>  <smiles>  (2205) 
CCn1c(=O)n(CC(=O)N2CC(O)(CO)C2)c2ccccc21

>  <inchikey>  (2205) 
CASWNGXLCKILIF-UHFFFAOYSA-N

>  <distance_score>  (2205) 
1.374741

>  <ref_mols>  (2205) 
Z0101a,Z4245a

>  <ref_pdb>  (2205) 
Z4245a

>  <HIPPO Compound ID>  (2205) 
146805

>  <name>  (2205) 
P73823

>  <inspiration_score>  (2205) 
None

$$$$
P73824
     RDKit          3D

 22 24  0  0  0  0  0  0  0  0999 V2000
  -10.2770    4.3513  -18.2931 C   0  0  0  0  0  0  0  0  0  0  0  0
   -9.0026    3.6548  -18.7685 C   0  0  0  0  0  0  0  0  0  0  0  0
   -7.7783    4.2155  -18.2822 N   0  0  0  0  0  0  0  0  0  0  0  0
   -6.5935    4.4300  -19.0211 C   0  0  0  0  0  0  0  0  0  0  0  0
   -6.3350    4.1561  -20.1874 O   0  0  0  0  0  0  0  0  0  0  0  0
   -5.6760    5.0145  -18.1179 N   0  0  0  0  0  0  0  0  0  0  0  0
   -4.3046    5.3233  -18.4278 C   0  0  0  0  0  0  0  0  0  0  0  0
   -4.1426    6.7026  -19.0931 C   0  0  0  0  0  0  0  0  0  0  0  0
   -3.4944    7.5493  -18.6135 O   0  0  0  0  0  0  0  0  0  0  0  0
   -4.8799    6.6513  -20.4603 N   0  0  0  0  0  0  0  0  0  0  0  0
   -5.0474    7.6608  -21.4676 C   0  0  0  0  0  0  0  0  0  0  0  0
   -4.1275    7.2975  -22.6219 C   0  0  2  0  0  0  0  0  0  0  0  0
   -2.6074    7.5337  -22.4194 C   0  0  0  0  0  0  0  0  0  0  0  0
   -2.7774    8.8981  -23.1098 C   0  0  0  0  0  0  0  0  0  0  0  0
   -4.0593    8.3449  -23.7699 C   0  0  2  0  0  0  0  0  0  0  0  0
   -5.1636    9.2618  -23.8824 O   0  0  0  0  0  0  0  0  0  0  0  0
   -6.2396    4.9918  -16.8327 C   0  0  0  0  0  0  0  0  0  0  0  0
   -5.7187    5.3501  -15.6100 C   0  0  0  0  0  0  0  0  0  0  0  0
   -6.5097    5.1204  -14.4756 C   0  0  0  0  0  0  0  0  0  0  0  0
   -7.7817    4.5324  -14.5772 C   0  0  0  0  0  0  0  0  0  0  0  0
   -8.2941    4.1827  -15.8202 C   0  0  0  0  0  0  0  0  0  0  0  0
   -7.5163    4.4496  -16.9313 C   0  0  0  0  0  0  0  0  0  0  0  0
  1  2  1  0
  2  3  1  0
  3  4  1  0
  4  5  2  0
  4  6  1  0
  6  7  1  0
  7  8  1  0
  8  9  2  0
  8 10  1  0
 10 11  1  0
 12 11  1  1
 12 13  1  0
 13 14  1  0
 14 15  1  0
 15 16  1  1
  6 17  1  0
 17 18  2  0
 18 19  1  0
 19 20  2  0
 20 21  1  0
 21 22  2  0
 22  3  1  0
 15 12  1  0
 22 17  1  0
M  END
>  <energy_score>  (2206) 
-12.962984

>  <alias>  (2206) 
None

>  <HIPPO Pose ID>  (2206) 
73824

>  <smiles>  (2206) 
CCn1c(=O)n(CC(=O)NC[C@@H]2CC[C@@H]2O)c2ccccc21

>  <inchikey>  (2206) 
IIZNYVBOBXUFNH-FZMZJTMJSA-N

>  <distance_score>  (2206) 
1.755132

>  <ref_mols>  (2206) 
Z0101a,Z4245a

>  <ref_pdb>  (2206) 
Z4245a

>  <HIPPO Compound ID>  (2206) 
146807

>  <name>  (2206) 
P73824

>  <inspiration_score>  (2206) 
None

$$$$
P73828
     RDKit          3D

 22 24  0  0  0  0  0  0  0  0999 V2000
   -9.4409    4.5502  -19.2140 C   0  0  0  0  0  0  0  0  0  0  0  0
   -8.2977    3.5780  -19.0713 C   0  0  0  0  0  0  0  0  0  0  0  0
   -7.3238    4.1013  -18.1654 N   0  0  0  0  0  0  0  0  0  0  0  0
   -6.0242    4.4952  -18.5095 C   0  0  0  0  0  0  0  0  0  0  0  0
   -5.4818    4.3481  -19.5957 O   0  0  0  0  0  0  0  0  0  0  0  0
   -5.4562    5.0616  -17.3380 N   0  0  0  0  0  0  0  0  0  0  0  0
   -4.0571    5.3715  -17.1261 C   0  0  0  0  0  0  0  0  0  0  0  0
   -3.6242    6.5972  -17.9366 C   0  0  0  0  0  0  0  0  0  0  0  0
   -3.4476    7.6630  -17.4910 O   0  0  0  0  0  0  0  0  0  0  0  0
   -3.5135    6.0871  -19.3996 N   0  0  0  0  0  0  0  0  0  0  0  0
   -3.2642    6.7818  -20.5869 C   0  0  2  0  0  0  0  0  0  0  0  0
   -3.9842    8.0127  -21.0410 C   0  0  0  0  0  0  0  0  0  0  0  0
   -4.4119    6.6684  -21.5655 C   0  0  1  0  0  0  0  0  0  0  0  0
   -4.1452    6.0767  -22.9018 C   0  0  2  0  0  0  0  0  0  0  0  0
   -3.2052    6.8731  -23.7930 C   0  0  0  0  0  0  0  0  0  0  0  0
   -5.3886    5.9552  -23.5840 O   0  0  0  0  0  0  0  0  0  0  0  0
   -6.3938    4.9414  -16.3002 C   0  0  0  0  0  0  0  0  0  0  0  0
   -6.2986    5.2742  -14.9679 C   0  0  0  0  0  0  0  0  0  0  0  0
   -7.4002    4.9967  -14.1557 C   0  0  0  0  0  0  0  0  0  0  0  0
   -8.5614    4.4114  -14.6857 C   0  0  0  0  0  0  0  0  0  0  0  0
   -8.6506    4.0932  -16.0379 C   0  0  0  0  0  0  0  0  0  0  0  0
   -7.5472    4.3594  -16.8169 C   0  0  0  0  0  0  0  0  0  0  0  0
  1  2  1  0
  2  3  1  0
  3  4  1  0
  4  5  2  0
  4  6  1  0
  6  7  1  0
  7  8  1  0
  8  9  2  0
  8 10  1  0
 11 10  1  1
 11 12  1  0
 13 12  1  6
 13 14  1  0
 14 15  1  6
 14 16  1  0
  6 17  1  0
 17 18  2  0
 18 19  1  0
 19 20  2  0
 20 21  1  0
 21 22  2  0
 22  3  1  0
 13 11  1  0
 22 17  1  0
M  END
>  <energy_score>  (2207) 
-1.797801

>  <alias>  (2207) 
None

>  <HIPPO Pose ID>  (2207) 
73828

>  <smiles>  (2207) 
CCn1c(=O)n(CC(=O)N[C@@H]2C[C@H]2[C@H](C)O)c2ccccc21

>  <inchikey>  (2207) 
BIOYLKGYVFJQGP-SDDRHHMPSA-N

>  <distance_score>  (2207) 
1.397647

>  <ref_mols>  (2207) 
Z0101a,Z4245a

>  <ref_pdb>  (2207) 
Z4245a

>  <HIPPO Compound ID>  (2207) 
146808

>  <name>  (2207) 
P73828

>  <inspiration_score>  (2207) 
None

$$$$
P73836
     RDKit          3D

 22 24  0  0  0  0  0  0  0  0999 V2000
   -9.4368    4.5518  -19.1541 C   0  0  0  0  0  0  0  0  0  0  0  0
   -8.3508    3.5077  -19.0503 C   0  0  0  0  0  0  0  0  0  0  0  0
   -7.3072    3.9740  -18.1926 N   0  0  0  0  0  0  0  0  0  0  0  0
   -6.1928    4.6821  -18.6608 C   0  0  0  0  0  0  0  0  0  0  0  0
   -5.8348    4.7775  -19.8247 O   0  0  0  0  0  0  0  0  0  0  0  0
   -5.6054    5.3234  -17.5402 N   0  0  0  0  0  0  0  0  0  0  0  0
   -4.9167    6.5955  -17.6407 C   0  0  0  0  0  0  0  0  0  0  0  0
   -3.5229    6.6054  -18.2816 C   0  0  0  0  0  0  0  0  0  0  0  0
   -2.5600    6.8965  -17.6876 O   0  0  0  0  0  0  0  0  0  0  0  0
   -3.7149    6.2755  -19.7841 N   0  0  0  0  0  0  0  0  0  0  0  0
   -2.7780    6.3286  -20.8843 C   0  0  1  0  0  0  0  0  0  0  0  0
   -1.8489    5.1002  -20.9685 C   0  0  0  0  0  0  0  0  0  0  0  0
   -2.8736    4.4642  -21.9239 C   0  0  0  0  0  0  0  0  0  0  0  0
   -3.3556    5.8897  -22.2609 C   0  0  1  0  0  0  0  0  0  0  0  0
   -4.8191    5.9684  -22.6365 C   0  0  0  0  0  0  0  0  0  0  0  0
   -5.2891    7.2951  -22.4721 O   0  0  0  0  0  0  0  0  0  0  0  0
   -6.4210    5.0372  -16.4248 C   0  0  0  0  0  0  0  0  0  0  0  0
   -6.3293    5.4738  -15.1214 C   0  0  0  0  0  0  0  0  0  0  0  0
   -7.3484    5.1003  -14.2413 C   0  0  0  0  0  0  0  0  0  0  0  0
   -8.4359    4.3277  -14.6796 C   0  0  0  0  0  0  0  0  0  0  0  0
   -8.5146    3.8933  -15.9996 C   0  0  0  0  0  0  0  0  0  0  0  0
   -7.4798    4.2401  -16.8391 C   0  0  0  0  0  0  0  0  0  0  0  0
  1  2  1  0
  2  3  1  0
  3  4  1  0
  4  5  2  0
  4  6  1  0
  6  7  1  0
  7  8  1  0
  8  9  2  0
  8 10  1  0
 11 10  1  1
 11 12  1  0
 12 13  1  0
 13 14  1  0
 14 15  1  1
 15 16  1  0
  6 17  1  0
 17 18  2  0
 18 19  1  0
 19 20  2  0
 20 21  1  0
 21 22  2  0
 22  3  1  0
 14 11  1  0
 22 17  1  0
M  END
>  <energy_score>  (2208) 
-12.960083

>  <alias>  (2208) 
None

>  <HIPPO Pose ID>  (2208) 
73836

>  <smiles>  (2208) 
CCn1c(=O)n(CC(=O)N[C@H]2CC[C@H]2CO)c2ccccc21

>  <inchikey>  (2208) 
YKXCGXPDRAVKQI-RYUDHWBXSA-N

>  <distance_score>  (2208) 
1.417114

>  <ref_mols>  (2208) 
Z0101a,Z4245a

>  <ref_pdb>  (2208) 
Z4245a

>  <HIPPO Compound ID>  (2208) 
146811

>  <name>  (2208) 
P73836

>  <inspiration_score>  (2208) 
None

$$$$
P73838
     RDKit          3D

 22 24  0  0  0  0  0  0  0  0999 V2000
  -10.0559    4.8518  -19.1125 C   0  0  0  0  0  0  0  0  0  0  0  0
   -9.9948    3.7958  -18.0606 C   0  0  0  0  0  0  0  0  0  0  0  0
   -8.7063    3.0218  -18.2132 C   0  0  0  0  0  0  0  0  0  0  0  0
   -7.5619    3.8502  -17.9550 N   0  0  0  0  0  0  0  0  0  0  0  0
   -6.5448    4.2486  -18.8481 C   0  0  0  0  0  0  0  0  0  0  0  0
   -6.3529    3.9073  -20.0094 O   0  0  0  0  0  0  0  0  0  0  0  0
   -5.7032    5.1177  -18.1079 N   0  0  0  0  0  0  0  0  0  0  0  0
   -4.4104    5.5677  -18.5469 C   0  0  0  0  0  0  0  0  0  0  0  0
   -4.4802    6.7258  -19.5601 C   0  0  0  0  0  0  0  0  0  0  0  0
   -4.1665    7.8189  -19.2894 O   0  0  0  0  0  0  0  0  0  0  0  0
   -4.9189    6.1121  -20.9172 N   0  0  0  0  0  0  0  0  0  0  0  0
   -5.1513    6.7344  -22.1899 C   0  0  0  0  0  0  0  0  0  0  0  0
   -3.7913    7.0616  -22.7722 C   0  0  0  0  0  0  0  0  0  0  0  0
   -3.8080    7.3329  -24.2815 C   0  0  0  0  0  0  0  0  0  0  0  0
   -3.2225    6.0349  -24.5582 O   0  0  0  0  0  0  0  0  0  0  0  0
   -2.8959    5.8752  -23.1549 C   0  0  0  0  0  0  0  0  0  0  0  0
   -6.1740    5.1770  -16.7859 C   0  0  0  0  0  0  0  0  0  0  0  0
   -5.6805    5.8137  -15.6711 C   0  0  0  0  0  0  0  0  0  0  0  0
   -6.3826    5.6559  -14.4665 C   0  0  0  0  0  0  0  0  0  0  0  0
   -7.5428    4.8683  -14.3899 C   0  0  0  0  0  0  0  0  0  0  0  0
   -8.0195    4.2217  -15.5198 C   0  0  0  0  0  0  0  0  0  0  0  0
   -7.3209    4.4017  -16.6993 C   0  0  0  0  0  0  0  0  0  0  0  0
  1  2  1  0
  2  3  1  0
  3  4  1  0
  4  5  1  0
  5  6  2  0
  5  7  1  0
  7  8  1  0
  8  9  1  0
  9 10  2  0
  9 11  1  0
 11 12  1  0
 12 13  1  0
 13 14  1  0
 14 15  1  0
 15 16  1  0
  7 17  1  0
 17 18  2  0
 18 19  1  0
 19 20  2  0
 20 21  1  0
 21 22  2  0
 22  4  1  0
 16 13  1  0
 22 17  1  0
M  END
>  <energy_score>  (2209) 
-17.640167

>  <alias>  (2209) 
None

>  <HIPPO Pose ID>  (2209) 
73838

>  <smiles>  (2209) 
CCCn1c(=O)n(CC(=O)NCC2COC2)c2ccccc21

>  <inchikey>  (2209) 
FYNXLSGLCTYVHQ-UHFFFAOYSA-N

>  <distance_score>  (2209) 
1.790675

>  <ref_mols>  (2209) 
Z0101a,Z4245a

>  <ref_pdb>  (2209) 
Z4245a

>  <HIPPO Compound ID>  (2209) 
146813

>  <name>  (2209) 
P73838

>  <inspiration_score>  (2209) 
None

$$$$
P73839
     RDKit          3D

 22 24  0  0  0  0  0  0  0  0999 V2000
  -10.5735    4.4748  -18.1476 C   0  0  0  0  0  0  0  0  0  0  0  0
   -9.4341    4.5332  -19.1477 C   0  0  0  0  0  0  0  0  0  0  0  0
   -8.3841    3.4453  -18.9924 C   0  0  0  0  0  0  0  0  0  0  0  0
   -7.2363    3.9590  -18.3212 N   0  0  0  0  0  0  0  0  0  0  0  0
   -6.1317    4.5259  -18.9824 C   0  0  0  0  0  0  0  0  0  0  0  0
   -5.7948    4.3786  -20.1508 O   0  0  0  0  0  0  0  0  0  0  0  0
   -5.4712    5.3172  -18.0211 N   0  0  0  0  0  0  0  0  0  0  0  0
   -4.2980    6.1020  -18.2889 C   0  0  0  0  0  0  0  0  0  0  0  0
   -4.6528    7.3275  -19.1659 C   0  0  0  0  0  0  0  0  0  0  0  0
   -4.7990    8.4027  -18.7301 O   0  0  0  0  0  0  0  0  0  0  0  0
   -4.7027    6.8211  -20.6341 N   0  0  0  0  0  0  0  0  0  0  0  0
   -5.0337    7.5111  -21.8452 C   0  0  0  0  0  0  0  0  0  0  0  0
   -4.8445    6.5990  -23.0105 C   0  0  2  0  0  0  0  0  0  0  0  0
   -3.5584    6.6459  -23.7918 C   0  0  0  0  0  0  0  0  0  0  0  0
   -4.8378    7.1296  -24.4182 C   0  0  1  0  0  0  0  0  0  0  0  0
   -5.3573    6.2550  -25.4295 O   0  0  0  0  0  0  0  0  0  0  0  0
   -6.1401    5.1869  -16.7925 C   0  0  0  0  0  0  0  0  0  0  0  0
   -5.8862    5.7247  -15.5525 C   0  0  0  0  0  0  0  0  0  0  0  0
   -6.7693    5.4006  -14.5098 C   0  0  0  0  0  0  0  0  0  0  0  0
   -7.8748    4.5567  -14.7179 C   0  0  0  0  0  0  0  0  0  0  0  0
   -8.1147    4.0182  -15.9755 C   0  0  0  0  0  0  0  0  0  0  0  0
   -7.2357    4.3520  -16.9864 C   0  0  0  0  0  0  0  0  0  0  0  0
  1  2  1  0
  2  3  1  0
  3  4  1  0
  4  5  1  0
  5  6  2  0
  5  7  1  0
  7  8  1  0
  8  9  1  0
  9 10  2  0
  9 11  1  0
 11 12  1  0
 13 12  1  1
 13 14  1  0
 14 15  1  0
 15 16  1  6
  7 17  1  0
 17 18  2  0
 18 19  1  0
 19 20  2  0
 20 21  1  0
 21 22  2  0
 22  4  1  0
 15 13  1  0
 22 17  1  0
M  END
>  <energy_score>  (2210) 
-1.116468

>  <alias>  (2210) 
None

>  <HIPPO Pose ID>  (2210) 
73839

>  <smiles>  (2210) 
CCCn1c(=O)n(CC(=O)NC[C@@H]2C[C@H]2O)c2ccccc21

>  <inchikey>  (2210) 
MGLIKGISAIGQPU-SMDDNHRTSA-N

>  <distance_score>  (2210) 
1.807306

>  <ref_mols>  (2210) 
Z0101a,Z4245a

>  <ref_pdb>  (2210) 
Z4245a

>  <HIPPO Compound ID>  (2210) 
146814

>  <name>  (2210) 
P73839

>  <inspiration_score>  (2210) 
None

$$$$
P73841
     RDKit          3D

 23 24  0  0  0  0  0  0  0  0999 V2000
   -9.4498    4.5346  -19.1601 C   0  0  0  0  0  0  0  0  0  0  0  0
   -8.3067    3.5551  -19.0537 C   0  0  0  0  0  0  0  0  0  0  0  0
   -7.2896    4.0904  -18.2004 N   0  0  0  0  0  0  0  0  0  0  0  0
   -6.2972    4.9633  -18.6612 C   0  0  0  0  0  0  0  0  0  0  0  0
   -6.0400    5.2160  -19.8282 O   0  0  0  0  0  0  0  0  0  0  0  0
   -5.7175    5.5825  -17.5281 N   0  0  0  0  0  0  0  0  0  0  0  0
   -5.1169    6.9032  -17.5846 C   0  0  0  0  0  0  0  0  0  0  0  0
   -3.7759    6.9646  -18.3232 C   0  0  0  0  0  0  0  0  0  0  0  0
   -2.7515    7.0509  -17.7703 O   0  0  0  0  0  0  0  0  0  0  0  0
   -4.0976    6.9095  -19.8381 N   0  0  0  0  0  0  0  0  0  0  0  0
   -3.2240    6.8538  -20.9742 C   0  0  0  0  0  0  0  0  0  0  0  0
   -2.8794    5.4038  -21.3776 C   0  0  1  0  0  0  0  0  0  0  0  0
   -2.2473    4.6385  -20.2024 C   0  0  0  0  0  0  0  0  0  0  0  0
   -4.1071    4.5848  -21.8506 C   0  0  0  0  0  0  0  0  0  0  0  0
   -5.1381    5.3586  -22.4651 O   0  0  0  0  0  0  0  0  0  0  0  0
   -1.9814    5.3824  -22.5210 O   0  0  0  0  0  0  0  0  0  0  0  0
   -0.7462    6.0696  -22.3845 C   0  0  0  0  0  0  0  0  0  0  0  0
   -6.4625    5.1662  -16.4067 C   0  0  0  0  0  0  0  0  0  0  0  0
   -6.3816    5.5668  -15.0915 C   0  0  0  0  0  0  0  0  0  0  0  0
   -7.3564    5.0914  -14.2123 C   0  0  0  0  0  0  0  0  0  0  0  0
   -8.3883    4.2526  -14.6624 C   0  0  0  0  0  0  0  0  0  0  0  0
   -8.4477    3.8421  -15.9918 C   0  0  0  0  0  0  0  0  0  0  0  0
   -7.4551    4.2912  -16.8329 C   0  0  0  0  0  0  0  0  0  0  0  0
  1  2  1  0
  2  3  1  0
  3  4  1  0
  4  5  2  0
  4  6  1  0
  6  7  1  0
  7  8  1  0
  8  9  2  0
  8 10  1  0
 10 11  1  0
 11 12  1  0
 12 13  1  1
 12 14  1  0
 14 15  1  0
 12 16  1  0
 16 17  1  0
  6 18  1  0
 18 19  2  0
 19 20  1  0
 20 21  2  0
 21 22  1  0
 22 23  2  0
 23  3  1  0
 23 18  1  0
M  END
>  <energy_score>  (2211) 
-17.59308

>  <alias>  (2211) 
None

>  <HIPPO Pose ID>  (2211) 
73841

>  <smiles>  (2211) 
CCn1c(=O)n(CC(=O)NC[C@@](C)(CO)OC)c2ccccc21

>  <inchikey>  (2211) 
YPJCVLRBWIJGLU-INIZCTEOSA-N

>  <distance_score>  (2211) 
1.29352

>  <ref_mols>  (2211) 
Z0101a,Z4245a

>  <ref_pdb>  (2211) 
Z4245a

>  <HIPPO Compound ID>  (2211) 
146816

>  <name>  (2211) 
P73841

>  <inspiration_score>  (2211) 
None

$$$$
P73845
     RDKit          3D

 23 25  0  0  0  0  0  0  0  0999 V2000
   -9.5094    4.5867  -19.2284 C   0  0  0  0  0  0  0  0  0  0  0  0
   -8.3830    3.5922  -19.1226 C   0  0  0  0  0  0  0  0  0  0  0  0
   -7.3812    4.0885  -18.2381 N   0  0  0  0  0  0  0  0  0  0  0  0
   -6.1004    4.4995  -18.6187 C   0  0  0  0  0  0  0  0  0  0  0  0
   -5.5704    4.3927  -19.7160 O   0  0  0  0  0  0  0  0  0  0  0  0
   -5.4992    5.0417  -17.4629 N   0  0  0  0  0  0  0  0  0  0  0  0
   -4.0919    5.2849  -17.3024 C   0  0  0  0  0  0  0  0  0  0  0  0
   -3.5934    6.5934  -17.9178 C   0  0  0  0  0  0  0  0  0  0  0  0
   -3.0788    7.4328  -17.2870 O   0  0  0  0  0  0  0  0  0  0  0  0
   -3.8207    6.4824  -19.4519 N   0  0  0  0  0  0  0  0  0  0  0  0
   -3.3746    7.3402  -20.5353 C   0  0  1  0  0  0  0  0  0  0  0  0
   -1.8294    7.5503  -20.4954 C   0  0  0  0  0  0  0  0  0  0  0  0
   -1.7170    6.2526  -21.3321 C   0  0  0  0  0  0  0  0  0  0  0  0
   -3.1180    6.6155  -21.8957 C   0  0  1  0  0  0  0  0  0  0  0  0
   -3.9284    5.4439  -22.4112 C   0  0  0  0  0  0  0  0  0  0  0  0
   -5.2489    5.8356  -22.7874 O   0  0  0  0  0  0  0  0  0  0  0  0
   -5.3125    6.6733  -23.9326 C   0  0  0  0  0  0  0  0  0  0  0  0
   -6.4025    4.9229  -16.3974 C   0  0  0  0  0  0  0  0  0  0  0  0
   -6.2663    5.2536  -15.0685 C   0  0  0  0  0  0  0  0  0  0  0  0
   -7.3473    4.9817  -14.2266 C   0  0  0  0  0  0  0  0  0  0  0  0
   -8.5271    4.4037  -14.7251 C   0  0  0  0  0  0  0  0  0  0  0  0
   -8.6543    4.0851  -16.0747 C   0  0  0  0  0  0  0  0  0  0  0  0
   -7.5706    4.3450  -16.8829 C   0  0  0  0  0  0  0  0  0  0  0  0
  1  2  1  0
  2  3  1  0
  3  4  1  0
  4  5  2  0
  4  6  1  0
  6  7  1  0
  7  8  1  0
  8  9  2  0
  8 10  1  0
 11 10  1  1
 11 12  1  0
 12 13  1  0
 13 14  1  0
 14 15  1  1
 15 16  1  0
 16 17  1  0
  6 18  1  0
 18 19  2  0
 19 20  1  0
 20 21  2  0
 21 22  1  0
 22 23  2  0
 23  3  1  0
 14 11  1  0
 23 18  1  0
M  END
>  <energy_score>  (2212) 
-14.760681

>  <alias>  (2212) 
None

>  <HIPPO Pose ID>  (2212) 
73845

>  <smiles>  (2212) 
CCn1c(=O)n(CC(=O)N[C@H]2CC[C@H]2COC)c2ccccc21

>  <inchikey>  (2212) 
ZCKXYSLZBBRMAL-STQMWFEESA-N

>  <distance_score>  (2212) 
1.325414

>  <ref_mols>  (2212) 
Z0101a,Z4245a

>  <ref_pdb>  (2212) 
Z4245a

>  <HIPPO Compound ID>  (2212) 
146820

>  <name>  (2212) 
P73845

>  <inspiration_score>  (2212) 
None

$$$$
P73850
     RDKit          3D

 23 24  0  0  0  0  0  0  0  0999 V2000
   -9.4561    4.5628  -19.1945 C   0  0  0  0  0  0  0  0  0  0  0  0
   -8.3492    3.5567  -19.0116 C   0  0  0  0  0  0  0  0  0  0  0  0
   -7.3807    4.0701  -18.0947 N   0  0  0  0  0  0  0  0  0  0  0  0
   -6.0972    4.5048  -18.4355 C   0  0  0  0  0  0  0  0  0  0  0  0
   -5.5441    4.3901  -19.5197 O   0  0  0  0  0  0  0  0  0  0  0  0
   -5.5488    5.0926  -17.2731 N   0  0  0  0  0  0  0  0  0  0  0  0
   -4.1730    5.4842  -17.0761 C   0  0  0  0  0  0  0  0  0  0  0  0
   -3.8208    6.7586  -17.8566 C   0  0  0  0  0  0  0  0  0  0  0  0
   -3.6045    7.7959  -17.3682 O   0  0  0  0  0  0  0  0  0  0  0  0
   -3.7437    6.3112  -19.3358 N   0  0  0  0  0  0  0  0  0  0  0  0
   -3.2952    7.0185  -20.5016 C   0  0  1  0  0  0  0  0  0  0  0  0
   -1.8740    7.5454  -20.3057 C   0  0  0  0  0  0  0  0  0  0  0  0
   -3.4174    6.0950  -21.7357 C   0  0  1  0  0  0  0  0  0  0  0  0
   -2.6169    4.7917  -21.5851 C   0  0  0  0  0  0  0  0  0  0  0  0
   -4.8879    5.7700  -22.0646 C   0  0  0  0  0  0  0  0  0  0  0  0
   -5.1517    5.9649  -23.4570 O   0  0  0  0  0  0  0  0  0  0  0  0
   -5.4346    7.3182  -23.7849 C   0  0  0  0  0  0  0  0  0  0  0  0
   -6.4799    4.9570  -16.2360 C   0  0  0  0  0  0  0  0  0  0  0  0
   -6.3926    5.3100  -14.9089 C   0  0  0  0  0  0  0  0  0  0  0  0
   -7.4889    5.0191  -14.0974 C   0  0  0  0  0  0  0  0  0  0  0  0
   -8.6364    4.4068  -14.6264 C   0  0  0  0  0  0  0  0  0  0  0  0
   -8.7186    4.0720  -15.9755 C   0  0  0  0  0  0  0  0  0  0  0  0
   -7.6171    4.3426  -16.7513 C   0  0  0  0  0  0  0  0  0  0  0  0
  1  2  1  0
  2  3  1  0
  3  4  1  0
  4  5  2  0
  4  6  1  0
  6  7  1  0
  7  8  1  0
  8  9  2  0
  8 10  1  0
 10 11  1  0
 11 12  1  1
 11 13  1  0
 13 14  1  1
 13 15  1  0
 15 16  1  0
 16 17  1  0
  6 18  1  0
 18 19  2  0
 19 20  1  0
 20 21  2  0
 21 22  1  0
 22 23  2  0
 23  3  1  0
 23 18  1  0
M  END
>  <energy_score>  (2213) 
-30.403706

>  <alias>  (2213) 
None

>  <HIPPO Pose ID>  (2213) 
73850

>  <smiles>  (2213) 
CCn1c(=O)n(CC(=O)N[C@@H](C)[C@@H](C)COC)c2ccccc21

>  <inchikey>  (2213) 
WSMPBNSEYXHCSN-STQMWFEESA-N

>  <distance_score>  (2213) 
1.316206

>  <ref_mols>  (2213) 
Z0101a,Z4245a

>  <ref_pdb>  (2213) 
Z4245a

>  <HIPPO Compound ID>  (2213) 
146822

>  <name>  (2213) 
P73850

>  <inspiration_score>  (2213) 
None

$$$$
P73851
     RDKit          3D

 23 24  0  0  0  0  0  0  0  0999 V2000
   -9.4718    4.5751  -19.1689 C   0  0  0  0  0  0  0  0  0  0  0  0
   -8.4048    3.5327  -18.9559 C   0  0  0  0  0  0  0  0  0  0  0  0
   -7.4195    4.0374  -18.0532 N   0  0  0  0  0  0  0  0  0  0  0  0
   -6.1408    4.4609  -18.4155 C   0  0  0  0  0  0  0  0  0  0  0  0
   -5.6050    4.3283  -19.5071 O   0  0  0  0  0  0  0  0  0  0  0  0
   -5.5754    5.0753  -17.2763 N   0  0  0  0  0  0  0  0  0  0  0  0
   -4.1945    5.4705  -17.1004 C   0  0  0  0  0  0  0  0  0  0  0  0
   -3.8137    6.7630  -17.8461 C   0  0  0  0  0  0  0  0  0  0  0  0
   -3.4242    7.7326  -17.3282 O   0  0  0  0  0  0  0  0  0  0  0  0
   -3.9685    6.4215  -19.3450 N   0  0  0  0  0  0  0  0  0  0  0  0
   -3.5878    7.1650  -20.5181 C   0  0  2  0  0  0  0  0  0  0  0  0
   -4.5758    8.3021  -20.7696 C   0  0  0  0  0  0  0  0  0  0  0  0
   -3.4189    6.1496  -21.6973 C   0  0  0  0  0  0  0  0  0  0  0  0
   -2.7053    6.8472  -22.8760 C   0  0  0  0  0  0  0  0  0  0  0  0
   -2.4951    4.9875  -21.2382 C   0  0  0  0  0  0  0  0  0  0  0  0
   -4.7773    5.5412  -22.1316 C   0  0  0  0  0  0  0  0  0  0  0  0
   -5.2866    6.1376  -23.3175 O   0  0  0  0  0  0  0  0  0  0  0  0
   -6.4944    4.9610  -16.2250 C   0  0  0  0  0  0  0  0  0  0  0  0
   -6.3912    5.3364  -14.9056 C   0  0  0  0  0  0  0  0  0  0  0  0
   -7.4773    5.0572  -14.0759 C   0  0  0  0  0  0  0  0  0  0  0  0
   -8.6323    4.4372  -14.5802 C   0  0  0  0  0  0  0  0  0  0  0  0
   -8.7334    4.0847  -15.9231 C   0  0  0  0  0  0  0  0  0  0  0  0
   -7.6397    4.3390  -16.7144 C   0  0  0  0  0  0  0  0  0  0  0  0
  1  2  1  0
  2  3  1  0
  3  4  1  0
  4  5  2  0
  4  6  1  0
  6  7  1  0
  7  8  1  0
  8  9  2  0
  8 10  1  0
 10 11  1  0
 11 12  1  6
 11 13  1  0
 13 14  1  0
 13 15  1  0
 13 16  1  0
 16 17  1  0
  6 18  1  0
 18 19  2  0
 19 20  1  0
 20 21  2  0
 21 22  1  0
 22 23  2  0
 23  3  1  0
 23 18  1  0
M  END
>  <energy_score>  (2214) 
-13.699337

>  <alias>  (2214) 
None

>  <HIPPO Pose ID>  (2214) 
73851

>  <smiles>  (2214) 
CCn1c(=O)n(CC(=O)N[C@H](C)C(C)(C)CO)c2ccccc21

>  <inchikey>  (2214) 
PWVKDYOELXDWQY-GFCCVEGCSA-N

>  <distance_score>  (2214) 
1.290992

>  <ref_mols>  (2214) 
Z0101a,Z4245a

>  <ref_pdb>  (2214) 
Z4245a

>  <HIPPO Compound ID>  (2214) 
146825

>  <name>  (2214) 
P73851

>  <inspiration_score>  (2214) 
None

$$$$
P73853
     RDKit          3D

 23 25  0  0  0  0  0  0  0  0999 V2000
   -9.5413    4.6158  -19.1629 C   0  0  0  0  0  0  0  0  0  0  0  0
   -8.5049    3.5440  -18.9561 C   0  0  0  0  0  0  0  0  0  0  0  0
   -7.4903    4.0308  -18.0796 N   0  0  0  0  0  0  0  0  0  0  0  0
   -6.2311    4.4654  -18.4878 C   0  0  0  0  0  0  0  0  0  0  0  0
   -5.7510    4.3640  -19.6101 O   0  0  0  0  0  0  0  0  0  0  0  0
   -5.6158    5.0569  -17.3589 N   0  0  0  0  0  0  0  0  0  0  0  0
   -4.2090    5.3652  -17.1990 C   0  0  0  0  0  0  0  0  0  0  0  0
   -3.6818    6.5879  -17.9696 C   0  0  0  0  0  0  0  0  0  0  0  0
   -3.0504    7.4373  -17.4808 O   0  0  0  0  0  0  0  0  0  0  0  0
   -4.0776    6.3575  -19.4428 N   0  0  0  0  0  0  0  0  0  0  0  0
   -3.7040    7.0641  -20.6239 C   0  0  0  0  0  0  0  0  0  0  0  0
   -3.0002    6.0647  -21.5486 C   0  0  1  0  0  0  0  0  0  0  0  0
   -3.9006    4.9222  -22.0494 C   0  0  0  0  0  0  0  0  0  0  0  0
   -5.1800    5.3724  -22.4797 O   0  0  0  0  0  0  0  0  0  0  0  0
   -2.3973    6.7857  -22.7208 C   0  0  0  0  0  0  0  0  0  0  0  0
   -1.1429    6.2613  -23.3767 C   0  0  0  0  0  0  0  0  0  0  0  0
   -1.0943    7.5316  -22.5751 C   0  0  0  0  0  0  0  0  0  0  0  0
   -6.5023    4.9342  -16.2771 C   0  0  0  0  0  0  0  0  0  0  0  0
   -6.3573    5.2956  -14.9572 C   0  0  0  0  0  0  0  0  0  0  0  0
   -7.4241    5.0247  -14.0988 C   0  0  0  0  0  0  0  0  0  0  0  0
   -8.6019    4.4250  -14.5742 C   0  0  0  0  0  0  0  0  0  0  0  0
   -8.7427    4.0813  -15.9155 C   0  0  0  0  0  0  0  0  0  0  0  0
   -7.6677    4.3271  -16.7349 C   0  0  0  0  0  0  0  0  0  0  0  0
  1  2  1  0
  2  3  1  0
  3  4  1  0
  4  5  2  0
  4  6  1  0
  6  7  1  0
  7  8  1  0
  8  9  2  0
  8 10  1  0
 10 11  1  0
 12 11  1  6
 12 13  1  0
 13 14  1  0
 12 15  1  0
 15 16  1  0
 16 17  1  0
  6 18  1  0
 18 19  2  0
 19 20  1  0
 20 21  2  0
 21 22  1  0
 22 23  2  0
 23  3  1  0
 17 15  1  0
 23 18  1  0
M  END
>  <energy_score>  (2215) 
-24.562381

>  <alias>  (2215) 
None

>  <HIPPO Pose ID>  (2215) 
73853

>  <smiles>  (2215) 
CCn1c(=O)n(CC(=O)NC[C@@H](CO)C2CC2)c2ccccc21

>  <inchikey>  (2215) 
DJNDPHOPDABXRM-ZDUSSCGKSA-N

>  <distance_score>  (2215) 
1.648811

>  <ref_mols>  (2215) 
Z0101a,Z4245a

>  <ref_pdb>  (2215) 
Z4245a

>  <HIPPO Compound ID>  (2215) 
146826

>  <name>  (2215) 
P73853

>  <inspiration_score>  (2215) 
None

$$$$
P73868
     RDKit          3D

 23 26  0  0  0  0  0  0  0  0999 V2000
   -9.5238    4.5951  -19.2249 C   0  0  0  0  0  0  0  0  0  0  0  0
   -8.3789    3.6200  -19.1574 C   0  0  0  0  0  0  0  0  0  0  0  0
   -7.3483    4.1338  -18.3165 N   0  0  0  0  0  0  0  0  0  0  0  0
   -6.0696    4.5142  -18.7433 C   0  0  0  0  0  0  0  0  0  0  0  0
   -5.6073    4.4013  -19.8693 O   0  0  0  0  0  0  0  0  0  0  0  0
   -5.4022    4.9969  -17.6019 N   0  0  0  0  0  0  0  0  0  0  0  0
   -3.9766    5.1593  -17.5051 C   0  0  0  0  0  0  0  0  0  0  0  0
   -3.4470    6.5613  -17.8212 C   0  0  0  0  0  0  0  0  0  0  0  0
   -2.7686    7.1401  -17.0502 O   0  0  0  0  0  0  0  0  0  0  0  0
   -3.8627    6.9306  -19.2365 N   0  0  0  0  0  0  0  0  0  0  0  0
   -3.6209    8.1709  -20.0258 C   0  0  0  0  0  0  0  0  0  0  0  0
   -3.9886    7.9711  -21.4597 C   0  0  2  0  0  0  0  0  0  0  0  0
   -5.3365    7.3077  -21.8144 C   0  0  0  0  0  0  0  0  0  0  0  0
   -4.5313    6.1778  -22.4679 C   0  0  2  0  0  0  0  0  0  0  0  0
   -4.9691    4.8311  -22.2857 O   0  0  0  0  0  0  0  0  0  0  0  0
   -3.2880    6.6740  -21.6846 C   0  0  2  0  0  0  0  0  0  0  0  0
   -2.8730    6.3984  -20.2564 C   0  0  0  0  0  0  0  0  0  0  0  0
   -6.2737    4.9067  -16.5052 C   0  0  0  0  0  0  0  0  0  0  0  0
   -6.0812    5.2140  -15.1784 C   0  0  0  0  0  0  0  0  0  0  0  0
   -7.1434    4.9654  -14.3015 C   0  0  0  0  0  0  0  0  0  0  0  0
   -8.3594    4.4265  -14.7608 C   0  0  0  0  0  0  0  0  0  0  0  0
   -8.5414    4.1279  -16.1081 C   0  0  0  0  0  0  0  0  0  0  0  0
   -7.4793    4.3737  -16.9522 C   0  0  0  0  0  0  0  0  0  0  0  0
  1  2  1  0
  2  3  1  0
  3  4  1  0
  4  5  2  0
  4  6  1  0
  6  7  1  0
  7  8  1  0
  8  9  2  0
  8 10  1  0
 10 11  1  0
 12 11  1  1
 12 13  1  0
 13 14  1  0
 14 15  1  1
 14 16  1  0
 16 17  1  1
  6 18  1  0
 18 19  2  0
 19 20  1  0
 20 21  2  0
 21 22  1  0
 22 23  2  0
 23  3  1  0
 17 10  1  0
 23 18  1  0
 16 12  1  0
M  END
>  <energy_score>  (2216) 
-6.795336

>  <alias>  (2216) 
None

>  <HIPPO Pose ID>  (2216) 
73868

>  <smiles>  (2216) 
CCn1c(=O)n(CC(=O)N2C[C@@H]3C[C@H](O)[C@@H]3C2)c2ccccc21

>  <inchikey>  (2216) 
YCEPJDXDJUIGPG-ZOWXZIJZSA-N

>  <distance_score>  (2216) 
1.479159

>  <ref_mols>  (2216) 
Z0101a,Z4245a

>  <ref_pdb>  (2216) 
Z4245a

>  <HIPPO Compound ID>  (2216) 
146834

>  <name>  (2216) 
P73868

>  <inspiration_score>  (2216) 
None

$$$$
P73869
     RDKit          3D

 23 25  0  0  0  0  0  0  0  0999 V2000
   -9.4022    4.5057  -19.1899 C   0  0  0  0  0  0  0  0  0  0  0  0
   -8.2452    3.5346  -19.1273 C   0  0  0  0  0  0  0  0  0  0  0  0
   -7.2224    4.0525  -18.2718 N   0  0  0  0  0  0  0  0  0  0  0  0
   -6.1974    4.8900  -18.7388 C   0  0  0  0  0  0  0  0  0  0  0  0
   -5.8654    5.0650  -19.9011 O   0  0  0  0  0  0  0  0  0  0  0  0
   -5.6759    5.5765  -17.6118 N   0  0  0  0  0  0  0  0  0  0  0  0
   -5.1792    6.9342  -17.7252 C   0  0  0  0  0  0  0  0  0  0  0  0
   -3.7752    7.0797  -18.3146 C   0  0  0  0  0  0  0  0  0  0  0  0
   -2.8482    7.3543  -17.6597 O   0  0  0  0  0  0  0  0  0  0  0  0
   -3.8960    6.8671  -19.8448 N   0  0  0  0  0  0  0  0  0  0  0  0
   -2.8849    6.8553  -20.8696 C   0  0  2  0  0  0  0  0  0  0  0  0
   -3.3034    7.6902  -22.0829 C   0  0  0  0  0  0  0  0  0  0  0  0
   -3.6484    6.8311  -23.2908 C   0  0  0  0  0  0  0  0  0  0  0  0
   -4.4014    5.6992  -22.8840 O   0  0  0  0  0  0  0  0  0  0  0  0
   -3.6310    4.7680  -22.1205 C   0  0  0  0  0  0  0  0  0  0  0  0
   -2.5501    5.4092  -21.2435 C   0  0  2  0  0  0  0  0  0  0  0  0
   -2.2406    4.5376  -20.0279 C   0  0  0  0  0  0  0  0  0  0  0  0
   -6.4366    5.1800  -16.4931 C   0  0  0  0  0  0  0  0  0  0  0  0
   -6.3782    5.6096  -15.1853 C   0  0  0  0  0  0  0  0  0  0  0  0
   -7.3571    5.1399  -14.3062 C   0  0  0  0  0  0  0  0  0  0  0  0
   -8.3729    4.2783  -14.7500 C   0  0  0  0  0  0  0  0  0  0  0  0
   -8.4105    3.8422  -16.0720 C   0  0  0  0  0  0  0  0  0  0  0  0
   -7.4117    4.2853  -16.9116 C   0  0  0  0  0  0  0  0  0  0  0  0
  1  2  1  0
  2  3  1  0
  3  4  1  0
  4  5  2  0
  4  6  1  0
  6  7  1  0
  7  8  1  0
  8  9  2  0
  8 10  1  0
 11 10  1  1
 11 12  1  0
 12 13  1  0
 13 14  1  0
 14 15  1  0
 15 16  1  0
 16 17  1  1
  6 18  1  0
 18 19  2  0
 19 20  1  0
 20 21  2  0
 21 22  1  0
 22 23  2  0
 23  3  1  0
 16 11  1  0
 23 18  1  0
M  END
>  <energy_score>  (2217) 
-9.448712

>  <alias>  (2217) 
None

>  <HIPPO Pose ID>  (2217) 
73869

>  <smiles>  (2217) 
CCn1c(=O)n(CC(=O)N[C@@H]2CCOC[C@@H]2C)c2ccccc21

>  <inchikey>  (2217) 
VNLXIJBLIIYJEE-QWHCGFSZSA-N

>  <distance_score>  (2217) 
1.305434

>  <ref_mols>  (2217) 
Z0101a,Z4245a

>  <ref_pdb>  (2217) 
Z4245a

>  <HIPPO Compound ID>  (2217) 
146836

>  <name>  (2217) 
P73869

>  <inspiration_score>  (2217) 
None

$$$$
P73874
     RDKit          3D

 23 24  0  0  0  0  0  0  0  0999 V2000
   -9.4935    4.6147  -19.1128 C   0  0  0  0  0  0  0  0  0  0  0  0
   -8.4857    3.5142  -18.9108 C   0  0  0  0  0  0  0  0  0  0  0  0
   -7.4570    3.9560  -18.0230 N   0  0  0  0  0  0  0  0  0  0  0  0
   -6.2644    4.5384  -18.4460 C   0  0  0  0  0  0  0  0  0  0  0  0
   -5.8664    4.6005  -19.5995 O   0  0  0  0  0  0  0  0  0  0  0  0
   -5.6018    5.0457  -17.3008 N   0  0  0  0  0  0  0  0  0  0  0  0
   -4.6763    6.1700  -17.2815 C   0  0  0  0  0  0  0  0  0  0  0  0
   -3.3079    6.1916  -17.9986 C   0  0  0  0  0  0  0  0  0  0  0  0
   -2.4164    6.8096  -17.5699 O   0  0  0  0  0  0  0  0  0  0  0  0
   -3.4295    5.3931  -19.3083 N   0  0  0  0  0  0  0  0  0  0  0  0
   -2.5252    5.2643  -20.4012 C   0  0  0  0  0  0  0  0  0  0  0  0
   -3.0711    6.0479  -21.6138 C   0  0  1  0  0  0  0  0  0  0  0  0
   -4.2934    5.3501  -22.2246 C   0  0  0  0  0  0  0  0  0  0  0  0
   -4.6748    5.9471  -23.4585 O   0  0  0  0  0  0  0  0  0  0  0  0
   -3.2945    7.5634  -21.2930 C   0  0  0  0  0  0  0  0  0  0  0  0
   -2.8573    8.4459  -22.4721 C   0  0  0  0  0  0  0  0  0  0  0  0
   -4.7214    7.9556  -20.8926 C   0  0  0  0  0  0  0  0  0  0  0  0
   -6.4839    4.8532  -16.2131 C   0  0  0  0  0  0  0  0  0  0  0  0
   -6.3658    5.2399  -14.8956 C   0  0  0  0  0  0  0  0  0  0  0  0
   -7.4359    4.9646  -14.0447 C   0  0  0  0  0  0  0  0  0  0  0  0
   -8.5959    4.3394  -14.5256 C   0  0  0  0  0  0  0  0  0  0  0  0
   -8.7082    3.9624  -15.8605 C   0  0  0  0  0  0  0  0  0  0  0  0
   -7.6270    4.2087  -16.6710 C   0  0  0  0  0  0  0  0  0  0  0  0
  1  2  1  0
  2  3  1  0
  3  4  1  0
  4  5  2  0
  4  6  1  0
  6  7  1  0
  7  8  1  0
  8  9  2  0
  8 10  1  0
 10 11  1  0
 12 11  1  1
 12 13  1  0
 13 14  1  0
 12 15  1  0
 15 16  1  0
 15 17  1  0
  6 18  1  0
 18 19  2  0
 19 20  1  0
 20 21  2  0
 21 22  1  0
 22 23  2  0
 23  3  1  0
 23 18  1  0
M  END
>  <energy_score>  (2218) 
-29.107419

>  <alias>  (2218) 
None

>  <HIPPO Pose ID>  (2218) 
73874

>  <smiles>  (2218) 
CCn1c(=O)n(CC(=O)NC[C@@H](CO)C(C)C)c2ccccc21

>  <inchikey>  (2218) 
WPDMEIIBEGURCC-ZDUSSCGKSA-N

>  <distance_score>  (2218) 
1.309182

>  <ref_mols>  (2218) 
Z0101a,Z4245a

>  <ref_pdb>  (2218) 
Z4245a

>  <HIPPO Compound ID>  (2218) 
146843

>  <name>  (2218) 
P73874

>  <inspiration_score>  (2218) 
None

$$$$
P73875
     RDKit          3D

 23 24  0  0  0  0  0  0  0  0999 V2000
   -9.4453    4.5350  -19.1600 C   0  0  0  0  0  0  0  0  0  0  0  0
   -8.3069    3.5494  -19.0557 C   0  0  0  0  0  0  0  0  0  0  0  0
   -7.2880    4.0761  -18.1993 N   0  0  0  0  0  0  0  0  0  0  0  0
   -6.2864    4.9413  -18.6585 C   0  0  0  0  0  0  0  0  0  0  0  0
   -6.0314    5.1857  -19.8282 O   0  0  0  0  0  0  0  0  0  0  0  0
   -5.7054    5.5589  -17.5209 N   0  0  0  0  0  0  0  0  0  0  0  0
   -5.1347    6.8969  -17.5550 C   0  0  0  0  0  0  0  0  0  0  0  0
   -3.8111    7.0715  -18.3077 C   0  0  0  0  0  0  0  0  0  0  0  0
   -2.8133    7.3589  -17.7752 O   0  0  0  0  0  0  0  0  0  0  0  0
   -4.1307    6.8964  -19.8113 N   0  0  0  0  0  0  0  0  0  0  0  0
   -3.2741    6.9454  -20.9539 C   0  0  0  0  0  0  0  0  0  0  0  0
   -2.8705    5.5340  -21.4199 C   0  0  2  0  0  0  0  0  0  0  0  0
   -2.1935    4.7758  -20.2552 C   0  0  0  0  0  0  0  0  0  0  0  0
   -1.8130    5.6771  -22.5591 C   0  0  0  0  0  0  0  0  0  0  0  0
   -2.2968    6.3611  -23.8327 C   0  0  0  0  0  0  0  0  0  0  0  0
   -4.0479    4.6614  -21.9009 C   0  0  0  0  0  0  0  0  0  0  0  0
   -5.1050    5.3990  -22.4995 O   0  0  0  0  0  0  0  0  0  0  0  0
   -6.4577    5.1398  -16.4021 C   0  0  0  0  0  0  0  0  0  0  0  0
   -6.3788    5.5362  -15.0846 C   0  0  0  0  0  0  0  0  0  0  0  0
   -7.3615    5.0699  -14.2098 C   0  0  0  0  0  0  0  0  0  0  0  0
   -8.3995    4.2431  -14.6660 C   0  0  0  0  0  0  0  0  0  0  0  0
   -8.4562    3.8347  -15.9961 C   0  0  0  0  0  0  0  0  0  0  0  0
   -7.4559    4.2754  -16.8329 C   0  0  0  0  0  0  0  0  0  0  0  0
  1  2  1  0
  2  3  1  0
  3  4  1  0
  4  5  2  0
  4  6  1  0
  6  7  1  0
  7  8  1  0
  8  9  2  0
  8 10  1  0
 10 11  1  0
 12 11  1  0
 12 13  1  1
 12 14  1  0
 14 15  1  0
 12 16  1  0
 16 17  1  0
  6 18  1  0
 18 19  2  0
 19 20  1  0
 20 21  2  0
 21 22  1  0
 22 23  2  0
 23  3  1  0
 23 18  1  0
M  END
>  <energy_score>  (2219) 
-36.591337

>  <alias>  (2219) 
None

>  <HIPPO Pose ID>  (2219) 
73875

>  <smiles>  (2219) 
CCn1c(=O)n(CC(=O)NC[C@](C)(CC)CO)c2ccccc21

>  <inchikey>  (2219) 
BDZLETOGULNUAG-KRWDZBQOSA-N

>  <distance_score>  (2219) 
1.285284

>  <ref_mols>  (2219) 
Z0101a,Z4245a

>  <ref_pdb>  (2219) 
Z4245a

>  <HIPPO Compound ID>  (2219) 
146844

>  <name>  (2219) 
P73875

>  <inspiration_score>  (2219) 
None

$$$$
P73882
     RDKit          3D

 23 25  0  0  0  0  0  0  0  0999 V2000
   -9.4645    4.5628  -19.2119 C   0  0  0  0  0  0  0  0  0  0  0  0
   -8.3391    3.5699  -19.0720 C   0  0  0  0  0  0  0  0  0  0  0  0
   -7.3544    4.0797  -18.1723 N   0  0  0  0  0  0  0  0  0  0  0  0
   -6.0698    4.4992  -18.5317 C   0  0  0  0  0  0  0  0  0  0  0  0
   -5.5296    4.3816  -19.6218 O   0  0  0  0  0  0  0  0  0  0  0  0
   -5.4977    5.0693  -17.3743 N   0  0  0  0  0  0  0  0  0  0  0  0
   -4.1106    5.4208  -17.2067 C   0  0  0  0  0  0  0  0  0  0  0  0
   -3.7473    6.7249  -17.9308 C   0  0  0  0  0  0  0  0  0  0  0  0
   -3.4642    7.7142  -17.3791 O   0  0  0  0  0  0  0  0  0  0  0  0
   -3.7471    6.3828  -19.4420 N   0  0  0  0  0  0  0  0  0  0  0  0
   -3.3099    7.1536  -20.5731 C   0  0  1  0  0  0  0  0  0  0  0  0
   -1.7957    7.3543  -20.5374 C   0  0  0  0  0  0  0  0  0  0  0  0
   -1.2203    6.0442  -21.0775 C   0  0  0  0  0  0  0  0  0  0  0  0
   -2.3570    5.3580  -21.8409 C   0  0  0  0  0  0  0  0  0  0  0  0
   -3.4917    6.3930  -21.8906 C   0  0  1  0  0  0  0  0  0  0  0  0
   -4.8626    5.7684  -22.1130 C   0  0  0  0  0  0  0  0  0  0  0  0
   -5.2358    5.9317  -23.4785 O   0  0  0  0  0  0  0  0  0  0  0  0
   -6.4163    4.9457  -16.3234 C   0  0  0  0  0  0  0  0  0  0  0  0
   -6.3086    5.2933  -14.9964 C   0  0  0  0  0  0  0  0  0  0  0  0
   -7.3990    5.0128  -14.1705 C   0  0  0  0  0  0  0  0  0  0  0  0
   -8.5611    4.4124  -14.6834 C   0  0  0  0  0  0  0  0  0  0  0  0
   -8.6620    4.0801  -16.0317 C   0  0  0  0  0  0  0  0  0  0  0  0
   -7.5683    4.3460  -16.8231 C   0  0  0  0  0  0  0  0  0  0  0  0
  1  2  1  0
  2  3  1  0
  3  4  1  0
  4  5  2  0
  4  6  1  0
  6  7  1  0
  7  8  1  0
  8  9  2  0
  8 10  1  0
 11 10  1  1
 11 12  1  0
 12 13  1  0
 13 14  1  0
 14 15  1  0
 15 16  1  1
 16 17  1  0
  6 18  1  0
 18 19  2  0
 19 20  1  0
 20 21  2  0
 21 22  1  0
 22 23  2  0
 23  3  1  0
 15 11  1  0
 23 18  1  0
M  END
>  <energy_score>  (2220) 
-8.295832

>  <alias>  (2220) 
None

>  <HIPPO Pose ID>  (2220) 
73882

>  <smiles>  (2220) 
CCn1c(=O)n(CC(=O)N[C@H]2CCC[C@H]2CO)c2ccccc21

>  <inchikey>  (2220) 
XXWLYYSLOFUXQI-STQMWFEESA-N

>  <distance_score>  (2220) 
1.324289

>  <ref_mols>  (2220) 
Z0101a,Z4245a

>  <ref_pdb>  (2220) 
Z4245a

>  <HIPPO Compound ID>  (2220) 
146847

>  <name>  (2220) 
P73882

>  <inspiration_score>  (2220) 
None

$$$$
P73884
     RDKit          3D

 23 24  0  0  0  0  0  0  0  0999 V2000
   -9.4676    4.5539  -19.2483 C   0  0  0  0  0  0  0  0  0  0  0  0
   -8.2870    3.6154  -19.2353 C   0  0  0  0  0  0  0  0  0  0  0  0
   -7.2477    4.1374  -18.4108 N   0  0  0  0  0  0  0  0  0  0  0  0
   -5.9796    4.5489  -18.8539 C   0  0  0  0  0  0  0  0  0  0  0  0
   -5.5188    4.4433  -19.9836 O   0  0  0  0  0  0  0  0  0  0  0  0
   -5.3236    5.0722  -17.7120 N   0  0  0  0  0  0  0  0  0  0  0  0
   -3.9058    5.3179  -17.6349 C   0  0  0  0  0  0  0  0  0  0  0  0
   -3.5273    6.5487  -18.4720 C   0  0  0  0  0  0  0  0  0  0  0  0
   -3.7227    7.6433  -18.1080 O   0  0  0  0  0  0  0  0  0  0  0  0
   -2.9507    6.0215  -19.8190 N   0  0  0  0  0  0  0  0  0  0  0  0
   -2.5887    6.7277  -21.0215 C   0  0  0  0  0  0  0  0  0  0  0  0
   -3.8116    6.9161  -21.9323 C   0  0  1  0  0  0  0  0  0  0  0  0
   -4.8338    7.8312  -21.2686 C   0  0  0  0  0  0  0  0  0  0  0  0
   -3.3644    7.4840  -23.2646 C   0  0  0  0  0  0  0  0  0  0  0  0
   -2.2548    7.9891  -23.4198 O   0  0  0  0  0  0  0  0  0  0  0  0
   -4.2206    7.4278  -24.3143 O   0  0  0  0  0  0  0  0  0  0  0  0
   -5.5291    6.8340  -24.2929 C   0  0  0  0  0  0  0  0  0  0  0  0
   -6.1822    4.9416  -16.6055 C   0  0  0  0  0  0  0  0  0  0  0  0
   -5.9989    5.2537  -15.2774 C   0  0  0  0  0  0  0  0  0  0  0  0
   -7.0516    4.9768  -14.3950 C   0  0  0  0  0  0  0  0  0  0  0  0
   -8.2532    4.4038  -14.8474 C   0  0  0  0  0  0  0  0  0  0  0  0
   -8.4261    4.0965  -16.1931 C   0  0  0  0  0  0  0  0  0  0  0  0
   -7.3734    4.3725  -17.0437 C   0  0  0  0  0  0  0  0  0  0  0  0
  1  2  1  0
  2  3  1  0
  3  4  1  0
  4  5  2  0
  4  6  1  0
  6  7  1  0
  7  8  1  0
  8  9  2  0
  8 10  1  0
 10 11  1  0
 11 12  1  0
 12 13  1  1
 12 14  1  0
 14 15  2  0
 14 16  1  0
 16 17  1  0
  6 18  1  0
 18 19  2  0
 19 20  1  0
 20 21  2  0
 21 22  1  0
 22 23  2  0
 23  3  1  0
 23 18  1  0
M  END
>  <energy_score>  (2221) 
-6.057348

>  <alias>  (2221) 
None

>  <HIPPO Pose ID>  (2221) 
73884

>  <smiles>  (2221) 
CCn1c(=O)n(CC(=O)NC[C@@H](C)C(=O)OC)c2ccccc21

>  <inchikey>  (2221) 
ZLEJASJQUVHWQC-LLVKDONJSA-N

>  <distance_score>  (2221) 
1.721418

>  <ref_mols>  (2221) 
Z0101a,Z4245a

>  <ref_pdb>  (2221) 
Z4245a

>  <HIPPO Compound ID>  (2221) 
146848

>  <name>  (2221) 
P73884

>  <inspiration_score>  (2221) 
None

$$$$
P73893
     RDKit          3D

 23 25  0  0  0  0  0  0  0  0999 V2000
  -10.6442    4.5348  -18.2086 C   0  0  0  0  0  0  0  0  0  0  0  0
   -9.4611    4.5680  -19.1575 C   0  0  0  0  0  0  0  0  0  0  0  0
   -8.4092    3.5063  -18.9148 C   0  0  0  0  0  0  0  0  0  0  0  0
   -7.3532    4.0307  -18.1081 N   0  0  0  0  0  0  0  0  0  0  0  0
   -6.1265    4.5073  -18.5895 C   0  0  0  0  0  0  0  0  0  0  0  0
   -5.6880    4.4573  -19.7336 O   0  0  0  0  0  0  0  0  0  0  0  0
   -5.4576    5.0720  -17.4790 N   0  0  0  0  0  0  0  0  0  0  0  0
   -4.0469    5.3738  -17.4111 C   0  0  0  0  0  0  0  0  0  0  0  0
   -3.6666    6.7251  -18.0249 C   0  0  0  0  0  0  0  0  0  0  0  0
   -3.0967    7.5614  -17.4400 O   0  0  0  0  0  0  0  0  0  0  0  0
   -4.0964    6.6542  -19.5163 N   0  0  0  0  0  0  0  0  0  0  0  0
   -3.8372    7.5279  -20.5798 C   0  0  2  0  0  0  0  0  0  0  0  0
   -4.9046    7.8799  -21.5669 C   0  0  0  0  0  0  0  0  0  0  0  0
   -3.7394    7.0256  -22.0027 C   0  0  2  0  0  0  0  0  0  0  0  0
   -3.9390    5.6149  -22.4779 C   0  0  1  0  0  0  0  0  0  0  0  0
   -2.9846    4.6112  -21.8565 C   0  0  0  0  0  0  0  0  0  0  0  0
   -5.2855    5.1796  -22.3702 O   0  0  0  0  0  0  0  0  0  0  0  0
   -6.2842    4.9401  -16.3536 C   0  0  0  0  0  0  0  0  0  0  0  0
   -6.0813    5.3177  -15.0454 C   0  0  0  0  0  0  0  0  0  0  0  0
   -7.0880    5.0145  -14.1235 C   0  0  0  0  0  0  0  0  0  0  0  0
   -8.2533    4.3373  -14.5174 C   0  0  0  0  0  0  0  0  0  0  0  0
   -8.4376    3.9590  -15.8437 C   0  0  0  0  0  0  0  0  0  0  0  0
   -7.4484    4.2886  -16.7433 C   0  0  0  0  0  0  0  0  0  0  0  0
  1  2  1  0
  2  3  1  0
  3  4  1  0
  4  5  1  0
  5  6  2  0
  5  7  1  0
  7  8  1  0
  8  9  1  0
  9 10  2  0
  9 11  1  0
 12 11  1  1
 12 13  1  0
 14 13  1  6
 14 15  1  0
 15 16  1  1
 15 17  1  0
  7 18  1  0
 18 19  2  0
 19 20  1  0
 20 21  2  0
 21 22  1  0
 22 23  2  0
 23  4  1  0
 14 12  1  0
 23 18  1  0
M  END
>  <energy_score>  (2222) 
-19.852249

>  <alias>  (2222) 
None

>  <HIPPO Pose ID>  (2222) 
73893

>  <smiles>  (2222) 
CCCn1c(=O)n(CC(=O)N[C@@H]2C[C@@H]2[C@@H](C)O)c2ccccc21

>  <inchikey>  (2222) 
ROJBTBFAWDWMJR-JHJVBQTASA-N

>  <distance_score>  (2222) 
1.532474

>  <ref_mols>  (2222) 
Z0101a,Z4245a

>  <ref_pdb>  (2222) 
Z4245a

>  <HIPPO Compound ID>  (2222) 
146858

>  <name>  (2222) 
P73893

>  <inspiration_score>  (2222) 
None

$$$$
P73897
     RDKit          3D

 23 25  0  0  0  0  0  0  0  0999 V2000
  -10.6616    4.5472  -18.2142 C   0  0  0  0  0  0  0  0  0  0  0  0
   -9.4632    4.5520  -19.1444 C   0  0  0  0  0  0  0  0  0  0  0  0
   -8.4280    3.4863  -18.8519 C   0  0  0  0  0  0  0  0  0  0  0  0
   -7.3978    4.0265  -18.0227 N   0  0  0  0  0  0  0  0  0  0  0  0
   -6.1767    4.5365  -18.4845 C   0  0  0  0  0  0  0  0  0  0  0  0
   -5.7256    4.4814  -19.6224 O   0  0  0  0  0  0  0  0  0  0  0  0
   -5.5496    5.1348  -17.3664 N   0  0  0  0  0  0  0  0  0  0  0  0
   -4.1558    5.4921  -17.2639 C   0  0  0  0  0  0  0  0  0  0  0  0
   -3.8130    6.7996  -17.9828 C   0  0  0  0  0  0  0  0  0  0  0  0
   -3.4552    7.7709  -17.4423 O   0  0  0  0  0  0  0  0  0  0  0  0
   -3.9491    6.4832  -19.4951 N   0  0  0  0  0  0  0  0  0  0  0  0
   -3.5816    7.2666  -20.6567 C   0  0  1  0  0  0  0  0  0  0  0  0
   -2.0786    7.6481  -20.6878 C   0  0  0  0  0  0  0  0  0  0  0  0
   -1.8226    6.3041  -21.4038 C   0  0  0  0  0  0  0  0  0  0  0  0
   -3.2861    6.3880  -21.9120 C   0  0  1  0  0  0  0  0  0  0  0  0
   -3.9345    5.0392  -22.1348 C   0  0  0  0  0  0  0  0  0  0  0  0
   -5.3130    5.2174  -22.4220 O   0  0  0  0  0  0  0  0  0  0  0  0
   -6.3873    4.9742  -16.2544 C   0  0  0  0  0  0  0  0  0  0  0  0
   -6.2153    5.3619  -14.9445 C   0  0  0  0  0  0  0  0  0  0  0  0
   -7.2269    5.0356  -14.0386 C   0  0  0  0  0  0  0  0  0  0  0  0
   -8.3676    4.3307  -14.4515 C   0  0  0  0  0  0  0  0  0  0  0  0
   -8.5218    3.9441  -15.7796 C   0  0  0  0  0  0  0  0  0  0  0  0
   -7.5247    4.2895  -16.6622 C   0  0  0  0  0  0  0  0  0  0  0  0
  1  2  1  0
  2  3  1  0
  3  4  1  0
  4  5  1  0
  5  6  2  0
  5  7  1  0
  7  8  1  0
  8  9  1  0
  9 10  2  0
  9 11  1  0
 12 11  1  1
 12 13  1  0
 13 14  1  0
 14 15  1  0
 15 16  1  1
 16 17  1  0
  7 18  1  0
 18 19  2  0
 19 20  1  0
 20 21  2  0
 21 22  1  0
 22 23  2  0
 23  4  1  0
 15 12  1  0
 23 18  1  0
M  END
>  <energy_score>  (2223) 
-17.213374

>  <alias>  (2223) 
None

>  <HIPPO Pose ID>  (2223) 
73897

>  <smiles>  (2223) 
CCCn1c(=O)n(CC(=O)N[C@H]2CC[C@H]2CO)c2ccccc21

>  <inchikey>  (2223) 
BEXLIRNGMFUVCS-STQMWFEESA-N

>  <distance_score>  (2223) 
1.504196

>  <ref_mols>  (2223) 
Z0101a,Z4245a

>  <ref_pdb>  (2223) 
Z4245a

>  <HIPPO Compound ID>  (2223) 
146861

>  <name>  (2223) 
P73897

>  <inspiration_score>  (2223) 
None

$$$$
P73898
     RDKit          3D

 23 26  0  0  0  0  0  0  0  0999 V2000
  -10.6564    4.5365  -18.1260 C   0  0  0  0  0  0  0  0  0  0  0  0
   -9.4674    4.4762  -19.0628 C   0  0  0  0  0  0  0  0  0  0  0  0
   -8.5140    3.3377  -18.7441 C   0  0  0  0  0  0  0  0  0  0  0  0
   -7.3760    3.8516  -18.0557 N   0  0  0  0  0  0  0  0  0  0  0  0
   -6.3509    4.5221  -18.7393 C   0  0  0  0  0  0  0  0  0  0  0  0
   -6.1542    4.4663  -19.9421 O   0  0  0  0  0  0  0  0  0  0  0  0
   -5.6688    5.3151  -17.7812 N   0  0  0  0  0  0  0  0  0  0  0  0
   -5.0852    6.5811  -18.1634 C   0  0  0  0  0  0  0  0  0  0  0  0
   -3.6513    6.5502  -18.7122 C   0  0  0  0  0  0  0  0  0  0  0  0
   -2.6926    6.5447  -18.0240 O   0  0  0  0  0  0  0  0  0  0  0  0
   -3.7752    6.6317  -20.2282 N   0  0  0  0  0  0  0  0  0  0  0  0
   -3.7730    5.2063  -20.8795 C   0  0  0  0  0  0  0  0  0  0  0  0
   -2.4478    5.3977  -21.4967 C   0  0  1  0  0  0  0  0  0  0  0  0
   -2.4858    5.2236  -22.9919 C   0  0  0  0  0  0  0  0  0  0  0  0
   -3.4260    6.1892  -23.4807 O   0  0  0  0  0  0  0  0  0  0  0  0
   -3.2585    7.3427  -22.6351 C   0  0  0  0  0  0  0  0  0  0  0  0
   -2.7126    6.8322  -21.3017 C   0  0  1  0  0  0  0  0  0  0  0  0
   -6.3285    5.1348  -16.5460 C   0  0  0  0  0  0  0  0  0  0  0  0
   -6.1058    5.7115  -15.3169 C   0  0  0  0  0  0  0  0  0  0  0  0
   -6.9863    5.3819  -14.2766 C   0  0  0  0  0  0  0  0  0  0  0  0
   -8.0672    4.5060  -14.4809 C   0  0  0  0  0  0  0  0  0  0  0  0
   -8.2784    3.9329  -15.7284 C   0  0  0  0  0  0  0  0  0  0  0  0
   -7.3872    4.2540  -16.7295 C   0  0  0  0  0  0  0  0  0  0  0  0
  1  2  1  0
  2  3  1  0
  3  4  1  0
  4  5  1  0
  5  6  2  0
  5  7  1  0
  7  8  1  0
  8  9  1  0
  9 10  2  0
  9 11  1  0
 11 12  1  0
 13 12  1  1
 13 14  1  0
 14 15  1  0
 15 16  1  0
 17 16  1  6
  7 18  1  0
 18 19  2  0
 19 20  1  0
 20 21  2  0
 21 22  1  0
 22 23  2  0
 23  4  1  0
 17 11  1  0
 23 18  1  0
 17 13  1  0
M  END
>  <energy_score>  (2224) 
-18.538364

>  <alias>  (2224) 
None

>  <HIPPO Pose ID>  (2224) 
73898

>  <smiles>  (2224) 
CCCn1c(=O)n(CC(=O)N2C[C@H]3COC[C@H]32)c2ccccc21

>  <inchikey>  (2224) 
PHFSHHHIVRCBOH-SWLSCSKDSA-N

>  <distance_score>  (2224) 
1.619428

>  <ref_mols>  (2224) 
Z0101a,Z4245a

>  <ref_pdb>  (2224) 
Z4245a

>  <HIPPO Compound ID>  (2224) 
146863

>  <name>  (2224) 
P73898

>  <inspiration_score>  (2224) 
None

$$$$
P73899
     RDKit          3D

 23 25  0  0  0  0  0  0  0  0999 V2000
  -10.5644    4.4796  -18.1623 C   0  0  0  0  0  0  0  0  0  0  0  0
   -9.4000    4.5201  -19.1349 C   0  0  0  0  0  0  0  0  0  0  0  0
   -8.3351    3.4600  -18.9088 C   0  0  0  0  0  0  0  0  0  0  0  0
   -7.2865    3.9791  -18.0844 N   0  0  0  0  0  0  0  0  0  0  0  0
   -6.2326    4.7644  -18.5892 C   0  0  0  0  0  0  0  0  0  0  0  0
   -5.8657    4.8687  -19.7504 O   0  0  0  0  0  0  0  0  0  0  0  0
   -5.7033    5.4783  -17.4870 N   0  0  0  0  0  0  0  0  0  0  0  0
   -5.0816    6.7705  -17.6244 C   0  0  0  0  0  0  0  0  0  0  0  0
   -3.6000    6.7183  -17.9636 C   0  0  0  0  0  0  0  0  0  0  0  0
   -2.7632    7.0209  -17.2057 O   0  0  0  0  0  0  0  0  0  0  0  0
   -3.5036    6.3097  -19.4577 N   0  0  0  0  0  0  0  0  0  0  0  0
   -2.3845    6.1042  -20.2735 C   0  0  2  0  0  0  0  0  0  0  0  0
   -2.1747    7.0476  -21.4249 C   0  0  0  0  0  0  0  0  0  0  0  0
   -2.4816    5.5945  -21.6811 C   0  0  2  0  0  0  0  0  0  0  0  0
   -3.7555    5.1107  -22.2907 C   0  0  0  0  0  0  0  0  0  0  0  0
   -4.7525    6.1210  -22.4183 O   0  0  0  0  0  0  0  0  0  0  0  0
   -4.7240    6.7922  -23.6681 C   0  0  0  0  0  0  0  0  0  0  0  0
   -6.4432    5.1318  -16.3472 C   0  0  0  0  0  0  0  0  0  0  0  0
   -6.3426    5.5932  -15.0530 C   0  0  0  0  0  0  0  0  0  0  0  0
   -7.2857    5.1369  -14.1307 C   0  0  0  0  0  0  0  0  0  0  0  0
   -8.2976    4.2454  -14.5167 C   0  0  0  0  0  0  0  0  0  0  0  0
   -8.3726    3.7788  -15.8269 C   0  0  0  0  0  0  0  0  0  0  0  0
   -7.4294    4.2322  -16.7209 C   0  0  0  0  0  0  0  0  0  0  0  0
  1  2  1  0
  2  3  1  0
  3  4  1  0
  4  5  1  0
  5  6  2  0
  5  7  1  0
  7  8  1  0
  8  9  1  0
  9 10  2  0
  9 11  1  0
 12 11  1  6
 12 13  1  0
 13 14  1  0
 14 15  1  6
 15 16  1  0
 16 17  1  0
  7 18  1  0
 18 19  2  0
 19 20  1  0
 20 21  2  0
 21 22  1  0
 22 23  2  0
 23  4  1  0
 14 12  1  0
 23 18  1  0
M  END
>  <energy_score>  (2225) 
-8.166775

>  <alias>  (2225) 
None

>  <HIPPO Pose ID>  (2225) 
73899

>  <smiles>  (2225) 
CCCn1c(=O)n(CC(=O)N[C@@H]2C[C@@H]2COC)c2ccccc21

>  <inchikey>  (2225) 
VQJHGEAJHIGGLR-CHWSQXEVSA-N

>  <distance_score>  (2225) 
1.486411

>  <ref_mols>  (2225) 
Z0101a,Z4245a

>  <ref_pdb>  (2225) 
Z4245a

>  <HIPPO Compound ID>  (2225) 
146864

>  <name>  (2225) 
P73899

>  <inspiration_score>  (2225) 
None

$$$$
P73903
     RDKit          3D

 23 25  0  0  0  0  0  0  0  0999 V2000
  -10.0311    4.8678  -19.1989 C   0  0  0  0  0  0  0  0  0  0  0  0
   -9.8219    3.8058  -18.1825 C   0  0  0  0  0  0  0  0  0  0  0  0
   -8.4356    3.2371  -18.3739 C   0  0  0  0  0  0  0  0  0  0  0  0
   -7.4193    4.0864  -17.8161 N   0  0  0  0  0  0  0  0  0  0  0  0
   -6.2237    4.5313  -18.4289 C   0  0  0  0  0  0  0  0  0  0  0  0
   -5.8254    4.3225  -19.5695 O   0  0  0  0  0  0  0  0  0  0  0  0
   -5.5068    5.2354  -17.4108 N   0  0  0  0  0  0  0  0  0  0  0  0
   -4.0675    5.3733  -17.3870 C   0  0  0  0  0  0  0  0  0  0  0  0
   -3.5210    6.3841  -18.3878 C   0  0  0  0  0  0  0  0  0  0  0  0
   -3.2863    7.4967  -18.1170 O   0  0  0  0  0  0  0  0  0  0  0  0
   -3.2834    5.5968  -19.7075 N   0  0  0  0  0  0  0  0  0  0  0  0
   -2.7948    6.0458  -20.9952 C   0  0  1  0  0  0  0  0  0  0  0  0
   -2.8951    4.9791  -22.1019 C   0  0  0  0  0  0  0  0  0  0  0  0
   -4.1691    5.6718  -22.6165 C   0  0  1  0  0  0  0  0  0  0  0  0
   -5.4124    5.0074  -22.3401 O   0  0  0  0  0  0  0  0  0  0  0  0
   -3.7870    6.9181  -21.7937 C   0  0  1  0  0  0  0  0  0  0  0  0
   -4.8901    7.6717  -21.0821 C   0  0  0  0  0  0  0  0  0  0  0  0
   -6.2397    5.1332  -16.2140 C   0  0  0  0  0  0  0  0  0  0  0  0
   -5.9377    5.5703  -14.9421 C   0  0  0  0  0  0  0  0  0  0  0  0
   -6.8285    5.2531  -13.9108 C   0  0  0  0  0  0  0  0  0  0  0  0
   -7.9799    4.4950  -14.1564 C   0  0  0  0  0  0  0  0  0  0  0  0
   -8.2625    4.0568  -15.4430 C   0  0  0  0  0  0  0  0  0  0  0  0
   -7.3937    4.4126  -16.4591 C   0  0  0  0  0  0  0  0  0  0  0  0
  1  2  1  0
  2  3  1  0
  3  4  1  0
  4  5  1  0
  5  6  2  0
  5  7  1  0
  7  8  1  0
  8  9  1  0
  9 10  2  0
  9 11  1  0
 12 11  1  1
 12 13  1  0
 13 14  1  0
 14 15  1  1
 14 16  1  0
 16 17  1  1
  7 18  1  0
 18 19  2  0
 19 20  1  0
 20 21  2  0
 21 22  1  0
 22 23  2  0
 23  4  1  0
 16 12  1  0
 23 18  1  0
M  END
>  <energy_score>  (2226) 
-8.237438

>  <alias>  (2226) 
None

>  <HIPPO Pose ID>  (2226) 
73903

>  <smiles>  (2226) 
CCCn1c(=O)n(CC(=O)N[C@H]2C[C@@H](O)[C@H]2C)c2ccccc21

>  <inchikey>  (2226) 
XSDFUBGENJATJM-SLEUVZQESA-N

>  <distance_score>  (2226) 
1.642272

>  <ref_mols>  (2226) 
Z0101a,Z4245a

>  <ref_pdb>  (2226) 
Z4245a

>  <HIPPO Compound ID>  (2226) 
146867

>  <name>  (2226) 
P73903

>  <inspiration_score>  (2226) 
None

$$$$
P73909
     RDKit          3D

 23 25  0  0  0  0  0  0  0  0999 V2000
   -7.4236    3.0118  -19.7240 C   0  0  0  0  0  0  0  0  0  0  0  0
   -8.5273    3.1399  -18.7043 C   0  0  0  0  0  0  0  0  0  0  0  0
   -8.8062    4.5906  -18.4643 C   0  0  0  0  0  0  0  0  0  0  0  0
   -7.6740    5.1355  -17.7675 N   0  0  0  0  0  0  0  0  0  0  0  0
   -6.4805    5.6696  -18.3100 C   0  0  0  0  0  0  0  0  0  0  0  0
   -6.2318    5.9730  -19.4674 O   0  0  0  0  0  0  0  0  0  0  0  0
   -5.5998    5.8187  -17.2118 N   0  0  0  0  0  0  0  0  0  0  0  0
   -4.4479    6.6828  -17.1999 C   0  0  0  0  0  0  0  0  0  0  0  0
   -3.1146    6.0864  -17.6659 C   0  0  0  0  0  0  0  0  0  0  0  0
   -2.1662    6.0556  -16.9632 O   0  0  0  0  0  0  0  0  0  0  0  0
   -3.2694    5.6931  -19.1238 N   0  0  0  0  0  0  0  0  0  0  0  0
   -2.9898    6.8920  -20.0681 C   0  0  0  0  0  0  0  0  0  0  0  0
   -2.8545    5.9084  -21.2084 C   0  0  0  0  0  0  0  0  0  0  0  0
   -4.0680    5.4729  -22.0355 C   0  0  1  0  0  0  0  0  0  0  0  0
   -4.6651    4.1580  -21.6093 C   0  0  0  0  0  0  0  0  0  0  0  0
   -5.0858    6.4703  -22.0397 O   0  0  0  0  0  0  0  0  0  0  0  0
   -2.2899    5.0537  -20.0812 C   0  0  0  0  0  0  0  0  0  0  0  0
   -6.2273    5.3225  -16.0599 C   0  0  0  0  0  0  0  0  0  0  0  0
   -5.7933    5.2412  -14.7597 C   0  0  0  0  0  0  0  0  0  0  0  0
   -6.6803    4.7033  -13.8174 C   0  0  0  0  0  0  0  0  0  0  0  0
   -7.9663    4.2637  -14.1814 C   0  0  0  0  0  0  0  0  0  0  0  0
   -8.3902    4.3532  -15.4994 C   0  0  0  0  0  0  0  0  0  0  0  0
   -7.4983    4.8912  -16.4073 C   0  0  0  0  0  0  0  0  0  0  0  0
  1  2  1  0
  2  3  1  0
  3  4  1  0
  4  5  1  0
  5  6  2  0
  5  7  1  0
  7  8  1  0
  8  9  1  0
  9 10  2  0
  9 11  1  0
 11 12  1  0
 12 13  1  0
 13 14  1  0
 14 15  1  1
 14 16  1  0
 13 17  1  0
  7 18  1  0
 18 19  2  0
 19 20  1  0
 20 21  2  0
 21 22  1  0
 22 23  2  0
 23  4  1  0
 17 11  1  0
 23 18  1  0
M  END
>  <energy_score>  (2227) 
-2.378705

>  <alias>  (2227) 
None

>  <HIPPO Pose ID>  (2227) 
73909

>  <smiles>  (2227) 
CCCn1c(=O)n(CC(=O)N2CC([C@@H](C)O)C2)c2ccccc21

>  <inchikey>  (2227) 
QSABBBNXNCIRBS-GFCCVEGCSA-N

>  <distance_score>  (2227) 
1.869813

>  <ref_mols>  (2227) 
Z0101a,Z4245a

>  <ref_pdb>  (2227) 
Z4245a

>  <HIPPO Compound ID>  (2227) 
146871

>  <name>  (2227) 
P73909

>  <inspiration_score>  (2227) 
None

$$$$
P73911
     RDKit          3D

 23 25  0  0  0  0  0  0  0  0999 V2000
  -10.6252    4.5268  -18.2193 C   0  0  0  0  0  0  0  0  0  0  0  0
   -9.4110    4.5345  -19.1302 C   0  0  0  0  0  0  0  0  0  0  0  0
   -8.3610    3.4898  -18.8091 C   0  0  0  0  0  0  0  0  0  0  0  0
   -7.3505    4.0490  -17.9622 N   0  0  0  0  0  0  0  0  0  0  0  0
   -6.0865    4.4933  -18.3847 C   0  0  0  0  0  0  0  0  0  0  0  0
   -5.5856    4.3393  -19.4899 O   0  0  0  0  0  0  0  0  0  0  0  0
   -5.4850    5.1131  -17.2556 N   0  0  0  0  0  0  0  0  0  0  0  0
   -4.0760    5.4121  -17.0937 C   0  0  0  0  0  0  0  0  0  0  0  0
   -3.6345    6.6117  -17.9332 C   0  0  0  0  0  0  0  0  0  0  0  0
   -3.3732    7.6654  -17.5016 O   0  0  0  0  0  0  0  0  0  0  0  0
   -3.5926    6.0841  -19.3920 N   0  0  0  0  0  0  0  0  0  0  0  0
   -3.3194    6.7541  -20.5982 C   0  0  2  0  0  0  0  0  0  0  0  0
   -1.8753    6.7198  -21.0240 C   0  0  0  0  0  0  0  0  0  0  0  0
   -4.1583    7.9132  -21.0757 C   0  0  0  0  0  0  0  0  0  0  0  0
   -4.4373    6.5354  -21.6030 C   0  0  1  0  0  0  0  0  0  0  0  0
   -4.1354    6.0915  -22.9759 C   0  0  0  0  0  0  0  0  0  0  0  0
   -5.3483    6.0144  -23.7056 O   0  0  0  0  0  0  0  0  0  0  0  0
   -6.3665    4.9836  -16.1713 C   0  0  0  0  0  0  0  0  0  0  0  0
   -6.2231    5.3674  -14.8564 C   0  0  0  0  0  0  0  0  0  0  0  0
   -7.2606    5.0547  -13.9753 C   0  0  0  0  0  0  0  0  0  0  0  0
   -8.3995    4.3652  -14.4161 C   0  0  0  0  0  0  0  0  0  0  0  0
   -8.5283    3.9864  -15.7485 C   0  0  0  0  0  0  0  0  0  0  0  0
   -7.5073    4.3221  -16.6079 C   0  0  0  0  0  0  0  0  0  0  0  0
  1  2  1  0
  2  3  1  0
  3  4  1  0
  4  5  1  0
  5  6  2  0
  5  7  1  0
  7  8  1  0
  8  9  1  0
  9 10  2  0
  9 11  1  0
 12 11  1  0
 12 13  1  6
 12 14  1  0
 14 15  1  0
 15 16  1  6
 16 17  1  0
  7 18  1  0
 18 19  2  0
 19 20  1  0
 20 21  2  0
 21 22  1  0
 22 23  2  0
 23  4  1  0
 15 12  1  0
 23 18  1  0
M  END
>  <energy_score>  (2228) 
-15.01591

>  <alias>  (2228) 
None

>  <HIPPO Pose ID>  (2228) 
73911

>  <smiles>  (2228) 
CCCn1c(=O)n(CC(=O)N[C@]2(C)C[C@H]2CO)c2ccccc21

>  <inchikey>  (2228) 
HISIFRMKSMDFQD-YVEFUNNKSA-N

>  <distance_score>  (2228) 
1.522917

>  <ref_mols>  (2228) 
Z0101a,Z4245a

>  <ref_pdb>  (2228) 
Z4245a

>  <HIPPO Compound ID>  (2228) 
146873

>  <name>  (2228) 
P73911

>  <inspiration_score>  (2228) 
None

$$$$
P73912
     RDKit          3D

 23 25  0  0  0  0  0  0  0  0999 V2000
  -10.0555    4.8561  -19.1105 C   0  0  0  0  0  0  0  0  0  0  0  0
   -9.9906    3.7993  -18.0602 C   0  0  0  0  0  0  0  0  0  0  0  0
   -8.7073    3.0196  -18.2236 C   0  0  0  0  0  0  0  0  0  0  0  0
   -7.5524    3.8390  -17.9838 N   0  0  0  0  0  0  0  0  0  0  0  0
   -6.5415    4.2240  -18.8913 C   0  0  0  0  0  0  0  0  0  0  0  0
   -6.3792    3.9053  -20.0631 O   0  0  0  0  0  0  0  0  0  0  0  0
   -5.6638    5.0555  -18.1542 N   0  0  0  0  0  0  0  0  0  0  0  0
   -4.3890    5.5194  -18.6267 C   0  0  0  0  0  0  0  0  0  0  0  0
   -4.5011    6.7838  -19.4962 C   0  0  0  0  0  0  0  0  0  0  0  0
   -4.1346    7.8305  -19.1279 O   0  0  0  0  0  0  0  0  0  0  0  0
   -5.0585    6.3419  -20.8755 N   0  0  0  0  0  0  0  0  0  0  0  0
   -5.1898    7.0736  -22.1089 C   0  0  0  0  0  0  0  0  0  0  0  0
   -3.9085    6.8859  -22.9084 C   0  0  0  0  0  0  0  0  0  0  0  0
   -3.6202    5.5649  -23.0501 F   0  0  0  0  0  0  0  0  0  0  0  0
   -2.7391    7.8062  -22.5205 C   0  0  0  0  0  0  0  0  0  0  0  0
   -2.9943    8.6781  -23.6527 O   0  0  0  0  0  0  0  0  0  0  0  0
   -3.9004    7.6986  -24.2133 C   0  0  0  0  0  0  0  0  0  0  0  0
   -6.1271    5.1426  -16.8326 C   0  0  0  0  0  0  0  0  0  0  0  0
   -5.6158    5.7843  -15.7294 C   0  0  0  0  0  0  0  0  0  0  0  0
   -6.3129    5.6515  -14.5189 C   0  0  0  0  0  0  0  0  0  0  0  0
   -7.4851    4.8830  -14.4259 C   0  0  0  0  0  0  0  0  0  0  0  0
   -7.9811    4.2328  -15.5456 C   0  0  0  0  0  0  0  0  0  0  0  0
   -7.2887    4.3904  -16.7319 C   0  0  0  0  0  0  0  0  0  0  0  0
  1  2  1  0
  2  3  1  0
  3  4  1  0
  4  5  1  0
  5  6  2  0
  5  7  1  0
  7  8  1  0
  8  9  1  0
  9 10  2  0
  9 11  1  0
 11 12  1  0
 12 13  1  0
 13 14  1  0
 13 15  1  0
 15 16  1  0
 16 17  1  0
  7 18  1  0
 18 19  2  0
 19 20  1  0
 20 21  2  0
 21 22  1  0
 22 23  2  0
 23  4  1  0
 17 13  1  0
 23 18  1  0
M  END
>  <energy_score>  (2229) 
-19.871644

>  <alias>  (2229) 
None

>  <HIPPO Pose ID>  (2229) 
73912

>  <smiles>  (2229) 
CCCn1c(=O)n(CC(=O)NCC2(F)COC2)c2ccccc21

>  <inchikey>  (2229) 
XPBPSKMPMVZGQA-UHFFFAOYSA-N

>  <distance_score>  (2229) 
1.824544

>  <ref_mols>  (2229) 
Z0101a,Z4245a

>  <ref_pdb>  (2229) 
Z4245a

>  <HIPPO Compound ID>  (2229) 
146876

>  <name>  (2229) 
P73912

>  <inspiration_score>  (2229) 
None

$$$$
P73916
     RDKit          3D

 23 25  0  0  0  0  0  0  0  0999 V2000
  -10.7169    4.5956  -18.1990 C   0  0  0  0  0  0  0  0  0  0  0  0
   -9.4714    4.4934  -19.0569 C   0  0  0  0  0  0  0  0  0  0  0  0
   -8.5470    3.3777  -18.6182 C   0  0  0  0  0  0  0  0  0  0  0  0
   -7.4923    3.9242  -17.8256 N   0  0  0  0  0  0  0  0  0  0  0  0
   -6.2653    4.3466  -18.3404 C   0  0  0  0  0  0  0  0  0  0  0  0
   -5.8692    4.1263  -19.4736 O   0  0  0  0  0  0  0  0  0  0  0  0
   -5.6054    5.0417  -17.3045 N   0  0  0  0  0  0  0  0  0  0  0  0
   -4.2375    5.5178  -17.3257 C   0  0  0  0  0  0  0  0  0  0  0  0
   -4.0489    6.7849  -18.1818 C   0  0  0  0  0  0  0  0  0  0  0  0
   -3.5423    7.7766  -17.7956 O   0  0  0  0  0  0  0  0  0  0  0  0
   -4.5458    6.4133  -19.5611 N   0  0  0  0  0  0  0  0  0  0  0  0
   -3.4227    5.7278  -20.4097 C   0  0  0  0  0  0  0  0  0  0  0  0
   -4.3531    5.9294  -21.5817 C   0  0  0  0  0  0  0  0  0  0  0  0
   -5.4481    4.9876  -21.7475 O   0  0  0  0  0  0  0  0  0  0  0  0
   -3.7247    6.0995  -22.9383 C   0  0  0  0  0  0  0  0  0  0  0  0
   -4.7759    6.3508  -23.8736 O   0  0  0  0  0  0  0  0  0  0  0  0
   -4.6351    7.2250  -20.8222 C   0  0  0  0  0  0  0  0  0  0  0  0
   -6.4210    4.9894  -16.1652 C   0  0  0  0  0  0  0  0  0  0  0  0
   -6.2138    5.4593  -14.8903 C   0  0  0  0  0  0  0  0  0  0  0  0
   -7.2132    5.2085  -13.9445 C   0  0  0  0  0  0  0  0  0  0  0  0
   -8.3838    4.5098  -14.2862 C   0  0  0  0  0  0  0  0  0  0  0  0
   -8.5852    4.0559  -15.5842 C   0  0  0  0  0  0  0  0  0  0  0  0
   -7.5888    4.3063  -16.4969 C   0  0  0  0  0  0  0  0  0  0  0  0
  1  2  1  0
  2  3  1  0
  3  4  1  0
  4  5  1  0
  5  6  2  0
  5  7  1  0
  7  8  1  0
  8  9  1  0
  9 10  2  0
  9 11  1  0
 11 12  1  0
 12 13  1  0
 13 14  1  0
 13 15  1  0
 15 16  1  0
 13 17  1  0
  7 18  1  0
 18 19  2  0
 19 20  1  0
 20 21  2  0
 21 22  1  0
 22 23  2  0
 23  4  1  0
 17 11  1  0
 23 18  1  0
M  END
>  <energy_score>  (2230) 
-19.938262

>  <alias>  (2230) 
None

>  <HIPPO Pose ID>  (2230) 
73916

>  <smiles>  (2230) 
CCCn1c(=O)n(CC(=O)N2CC(O)(CO)C2)c2ccccc21

>  <inchikey>  (2230) 
OCQYFVYPVUEJPG-UHFFFAOYSA-N

>  <distance_score>  (2230) 
1.609441

>  <ref_mols>  (2230) 
Z0101a,Z4245a

>  <ref_pdb>  (2230) 
Z4245a

>  <HIPPO Compound ID>  (2230) 
146880

>  <name>  (2230) 
P73916

>  <inspiration_score>  (2230) 
None

$$$$
P73920
     RDKit          3D

 24 26  0  0  0  0  0  0  0  0999 V2000
  -10.6025    4.5006  -18.1524 C   0  0  0  0  0  0  0  0  0  0  0  0
   -9.4501    4.5371  -19.1373 C   0  0  0  0  0  0  0  0  0  0  0  0
   -8.4028    3.4574  -18.9325 C   0  0  0  0  0  0  0  0  0  0  0  0
   -7.3164    3.9677  -18.1569 N   0  0  0  0  0  0  0  0  0  0  0  0
   -6.2871    4.7367  -18.7174 C   0  0  0  0  0  0  0  0  0  0  0  0
   -5.9769    4.8226  -19.8964 O   0  0  0  0  0  0  0  0  0  0  0  0
   -5.6548    5.4245  -17.6453 N   0  0  0  0  0  0  0  0  0  0  0  0
   -5.1357    6.7631  -17.8481 C   0  0  0  0  0  0  0  0  0  0  0  0
   -3.9272    6.9532  -18.7711 C   0  0  0  0  0  0  0  0  0  0  0  0
   -3.5952    8.0213  -19.1109 O   0  0  0  0  0  0  0  0  0  0  0  0
   -3.2851    5.5694  -19.0400 N   0  0  0  0  0  0  0  0  0  0  0  0
   -2.1577    5.2042  -19.8599 C   0  0  2  0  0  0  0  0  0  0  0  0
   -1.0004    6.1978  -19.6946 C   0  0  0  0  0  0  0  0  0  0  0  0
   -1.0885    7.1634  -20.8819 C   0  0  0  0  0  0  0  0  0  0  0  0
   -2.2587    6.6907  -21.7420 C   0  0  0  0  0  0  0  0  0  0  0  0
   -2.4302    5.2304  -21.3702 C   0  0  2  0  0  0  0  0  0  0  0  0
   -3.6852    4.5500  -21.9047 C   0  0  0  0  0  0  0  0  0  0  0  0
   -4.7706    5.4156  -22.1932 O   0  0  0  0  0  0  0  0  0  0  0  0
   -6.3767    5.1150  -16.4721 C   0  0  0  0  0  0  0  0  0  0  0  0
   -6.2341    5.5949  -15.1882 C   0  0  0  0  0  0  0  0  0  0  0  0
   -7.1582    5.1678  -14.2290 C   0  0  0  0  0  0  0  0  0  0  0  0
   -8.1979    4.2874  -14.5660 C   0  0  0  0  0  0  0  0  0  0  0  0
   -8.3228    3.8083  -15.8660 C   0  0  0  0  0  0  0  0  0  0  0  0
   -7.3982    4.2340  -16.7946 C   0  0  0  0  0  0  0  0  0  0  0  0
  1  2  1  0
  2  3  1  0
  3  4  1  0
  4  5  1  0
  5  6  2  0
  5  7  1  0
  7  8  1  0
  8  9  1  0
  9 10  2  0
  9 11  1  0
 12 11  1  1
 12 13  1  0
 13 14  1  0
 14 15  1  0
 15 16  1  0
 16 17  1  1
 17 18  1  0
  7 19  1  0
 19 20  2  0
 20 21  1  0
 21 22  2  0
 22 23  1  0
 23 24  2  0
 24  4  1  0
 16 12  1  0
 24 19  1  0
M  END
>  <energy_score>  (2231) 
-7.76707

>  <alias>  (2231) 
None

>  <HIPPO Pose ID>  (2231) 
73920

>  <smiles>  (2231) 
CCCn1c(=O)n(CC(=O)N[C@@H]2CCC[C@@H]2CO)c2ccccc21

>  <inchikey>  (2231) 
HQXFYTKNNAUFIR-ZIAGYGMSSA-N

>  <distance_score>  (2231) 
1.87314

>  <ref_mols>  (2231) 
Z0101a,Z4245a

>  <ref_pdb>  (2231) 
Z4245a

>  <HIPPO Compound ID>  (2231) 
146883

>  <name>  (2231) 
P73920

>  <inspiration_score>  (2231) 
None

$$$$
P73921
     RDKit          3D

 24 26  0  0  0  0  0  0  0  0999 V2000
   -7.1694    0.4804  -20.6913 C   0  0  0  0  0  0  0  0  0  0  0  0
   -7.0389    2.1896  -20.6184 C   0  0  0  0  0  0  0  0  0  0  0  0
   -7.8301    2.9942  -19.5685 C   0  0  0  0  0  0  0  0  0  0  0  0
   -7.0436    3.8940  -18.7804 N   0  0  0  0  0  0  0  0  0  0  0  0
   -5.9993    4.7158  -19.2400 C   0  0  0  0  0  0  0  0  0  0  0  0
   -5.4783    4.7443  -20.3455 O   0  0  0  0  0  0  0  0  0  0  0  0
   -5.6224    5.5190  -18.1512 N   0  0  0  0  0  0  0  0  0  0  0  0
   -4.6427    6.5589  -18.2494 C   0  0  0  0  0  0  0  0  0  0  0  0
   -5.2262    7.7897  -18.9994 C   0  0  0  0  0  0  0  0  0  0  0  0
   -5.9530    8.5502  -18.4840 O   0  0  0  0  0  0  0  0  0  0  0  0
   -4.6376    7.7754  -20.4433 N   0  0  0  0  0  0  0  0  0  0  0  0
   -4.7483    8.7412  -21.5092 C   0  0  0  0  0  0  0  0  0  0  0  0
   -4.5912    8.1157  -22.8855 C   0  0  0  0  0  0  0  0  0  0  0  0
   -4.9293    9.1212  -23.9924 C   0  0  0  0  0  0  0  0  0  0  0  0
   -4.0918   10.2660  -23.8648 O   0  0  0  0  0  0  0  0  0  0  0  0
   -3.2861    7.3535  -23.1867 C   0  0  0  0  0  0  0  0  0  0  0  0
   -4.0319    6.2605  -23.7863 O   0  0  0  0  0  0  0  0  0  0  0  0
   -5.2597    6.7592  -23.1854 C   0  0  0  0  0  0  0  0  0  0  0  0
   -6.4399    5.2159  -17.0559 C   0  0  0  0  0  0  0  0  0  0  0  0
   -6.4324    5.6886  -15.7625 C   0  0  0  0  0  0  0  0  0  0  0  0
   -7.4295    5.2214  -14.8973 C   0  0  0  0  0  0  0  0  0  0  0  0
   -8.4134    4.3219  -15.3439 C   0  0  0  0  0  0  0  0  0  0  0  0
   -8.3953    3.8392  -16.6518 C   0  0  0  0  0  0  0  0  0  0  0  0
   -7.3724    4.2694  -17.4722 C   0  0  0  0  0  0  0  0  0  0  0  0
  1  2  1  0
  2  3  1  0
  3  4  1  0
  4  5  1  0
  5  6  2  0
  5  7  1  0
  7  8  1  0
  8  9  1  0
  9 10  2  0
  9 11  1  0
 11 12  1  0
 12 13  1  0
 13 14  1  0
 14 15  1  0
 13 16  1  0
 16 17  1  0
 17 18  1  0
  7 19  1  0
 19 20  2  0
 20 21  1  0
 21 22  2  0
 22 23  1  0
 23 24  2  0
 24  4  1  0
 18 13  1  0
 24 19  1  0
M  END
>  <energy_score>  (2232) 
-22.016911

>  <alias>  (2232) 
None

>  <HIPPO Pose ID>  (2232) 
73921

>  <smiles>  (2232) 
CCCn1c(=O)n(CC(=O)NCC2(CO)COC2)c2ccccc21

>  <inchikey>  (2232) 
YTYOSWQAPMKYOL-UHFFFAOYSA-N

>  <distance_score>  (2232) 
1.961634

>  <ref_mols>  (2232) 
Z0101a,Z4245a

>  <ref_pdb>  (2232) 
Z4245a

>  <HIPPO Compound ID>  (2232) 
146885

>  <name>  (2232) 
P73921

>  <inspiration_score>  (2232) 
None

$$$$
P73930
     RDKit          3D

 24 25  0  0  0  0  0  0  0  0999 V2000
  -10.6335    4.5328  -18.2126 C   0  0  0  0  0  0  0  0  0  0  0  0
   -9.4198    4.5328  -19.1237 C   0  0  0  0  0  0  0  0  0  0  0  0
   -8.3763    3.4857  -18.7920 C   0  0  0  0  0  0  0  0  0  0  0  0
   -7.3635    4.0526  -17.9556 N   0  0  0  0  0  0  0  0  0  0  0  0
   -6.1063    4.5015  -18.3968 C   0  0  0  0  0  0  0  0  0  0  0  0
   -5.6321    4.3301  -19.5087 O   0  0  0  0  0  0  0  0  0  0  0  0
   -5.4970    5.1356  -17.2811 N   0  0  0  0  0  0  0  0  0  0  0  0
   -4.0849    5.4234  -17.1458 C   0  0  0  0  0  0  0  0  0  0  0  0
   -3.6396    6.5009  -18.1379 C   0  0  0  0  0  0  0  0  0  0  0  0
   -3.7305    7.6472  -17.9304 O   0  0  0  0  0  0  0  0  0  0  0  0
   -3.1834    5.7429  -19.4134 N   0  0  0  0  0  0  0  0  0  0  0  0
   -2.8380    6.2370  -20.7220 C   0  0  1  0  0  0  0  0  0  0  0  0
   -1.6760    5.4260  -21.2727 C   0  0  0  0  0  0  0  0  0  0  0  0
   -4.1266    6.1740  -21.5687 C   0  0  1  0  0  0  0  0  0  0  0  0
   -5.0864    7.2843  -21.1149 C   0  0  0  0  0  0  0  0  0  0  0  0
   -3.8963    6.2772  -23.0707 C   0  0  0  0  0  0  0  0  0  0  0  0
   -5.1545    6.1650  -23.7413 O   0  0  0  0  0  0  0  0  0  0  0  0
   -5.0849    6.6149  -25.0883 C   0  0  0  0  0  0  0  0  0  0  0  0
   -6.3587    4.9930  -16.1815 C   0  0  0  0  0  0  0  0  0  0  0  0
   -6.1960    5.3674  -14.8667 C   0  0  0  0  0  0  0  0  0  0  0  0
   -7.2211    5.0489  -13.9722 C   0  0  0  0  0  0  0  0  0  0  0  0
   -8.3683    4.3637  -14.3994 C   0  0  0  0  0  0  0  0  0  0  0  0
   -8.5161    3.9912  -15.7313 C   0  0  0  0  0  0  0  0  0  0  0  0
   -7.5048    4.3292  -16.6017 C   0  0  0  0  0  0  0  0  0  0  0  0
  1  2  1  0
  2  3  1  0
  3  4  1  0
  4  5  1  0
  5  6  2  0
  5  7  1  0
  7  8  1  0
  8  9  1  0
  9 10  2  0
  9 11  1  0
 11 12  1  0
 12 13  1  6
 12 14  1  0
 14 15  1  1
 14 16  1  0
 16 17  1  0
 17 18  1  0
  7 19  1  0
 19 20  2  0
 20 21  1  0
 21 22  2  0
 22 23  1  0
 23 24  2  0
 24  4  1  0
 24 19  1  0
M  END
>  <energy_score>  (2233) 
-10.240162

>  <alias>  (2233) 
None

>  <HIPPO Pose ID>  (2233) 
73930

>  <smiles>  (2233) 
CCCn1c(=O)n(CC(=O)N[C@@H](C)[C@@H](C)COC)c2ccccc21

>  <inchikey>  (2233) 
NGZNFXJGBXQLGO-KBPBESRZSA-N

>  <distance_score>  (2233) 
1.527102

>  <ref_mols>  (2233) 
Z0101a,Z4245a

>  <ref_pdb>  (2233) 
Z4245a

>  <HIPPO Compound ID>  (2233) 
146897

>  <name>  (2233) 
P73930

>  <inspiration_score>  (2233) 
None

$$$$
P73936
     RDKit          3D

 24 25  0  0  0  0  0  0  0  0999 V2000
  -10.5857    4.4995  -18.1568 C   0  0  0  0  0  0  0  0  0  0  0  0
   -9.4271    4.5533  -19.1332 C   0  0  0  0  0  0  0  0  0  0  0  0
   -8.3430    3.5211  -18.8983 C   0  0  0  0  0  0  0  0  0  0  0  0
   -7.3071    4.0637  -18.0711 N   0  0  0  0  0  0  0  0  0  0  0  0
   -6.2664    4.8693  -18.5551 C   0  0  0  0  0  0  0  0  0  0  0  0
   -5.9862    5.0797  -19.7246 O   0  0  0  0  0  0  0  0  0  0  0  0
   -5.5951    5.4120  -17.4225 N   0  0  0  0  0  0  0  0  0  0  0  0
   -4.9329    6.7068  -17.4460 C   0  0  0  0  0  0  0  0  0  0  0  0
   -3.7088    6.9863  -18.3295 C   0  0  0  0  0  0  0  0  0  0  0  0
   -3.2859    8.0721  -18.4158 O   0  0  0  0  0  0  0  0  0  0  0  0
   -3.2990    5.6906  -19.0647 N   0  0  0  0  0  0  0  0  0  0  0  0
   -2.3427    5.4763  -20.1345 C   0  0  2  0  0  0  0  0  0  0  0  0
   -1.0549    6.2535  -19.8558 C   0  0  0  0  0  0  0  0  0  0  0  0
   -3.0393    5.7975  -21.5090 C   0  0  0  0  0  0  0  0  0  0  0  0
   -3.7438    7.1738  -21.5063 C   0  0  0  0  0  0  0  0  0  0  0  0
   -1.9884    5.8385  -22.6446 C   0  0  0  0  0  0  0  0  0  0  0  0
   -4.0306    4.6527  -21.8483 C   0  0  0  0  0  0  0  0  0  0  0  0
   -5.2449    5.1086  -22.4326 O   0  0  0  0  0  0  0  0  0  0  0  0
   -6.3579    5.0470  -16.2900 C   0  0  0  0  0  0  0  0  0  0  0  0
   -6.2282    5.4366  -14.9736 C   0  0  0  0  0  0  0  0  0  0  0  0
   -7.1958    4.9977  -14.0679 C   0  0  0  0  0  0  0  0  0  0  0  0
   -8.2598    4.1871  -14.4867 C   0  0  0  0  0  0  0  0  0  0  0  0
   -8.3669    3.7864  -15.8154 C   0  0  0  0  0  0  0  0  0  0  0  0
   -7.4070    4.2338  -16.6954 C   0  0  0  0  0  0  0  0  0  0  0  0
  1  2  1  0
  2  3  1  0
  3  4  1  0
  4  5  1  0
  5  6  2  0
  5  7  1  0
  7  8  1  0
  8  9  1  0
  9 10  2  0
  9 11  1  0
 11 12  1  0
 12 13  1  1
 12 14  1  0
 14 15  1  0
 14 16  1  0
 14 17  1  0
 17 18  1  0
  7 19  1  0
 19 20  2  0
 20 21  1  0
 21 22  2  0
 22 23  1  0
 23 24  2  0
 24  4  1  0
 24 19  1  0
M  END
>  <energy_score>  (2234) 
-18.379787

>  <alias>  (2234) 
None

>  <HIPPO Pose ID>  (2234) 
73936

>  <smiles>  (2234) 
CCCn1c(=O)n(CC(=O)N[C@H](C)C(C)(C)CO)c2ccccc21

>  <inchikey>  (2234) 
NRGAZBWOVSCQJR-CYBMUJFWSA-N

>  <distance_score>  (2234) 
1.406616

>  <ref_mols>  (2234) 
Z0101a,Z4245a

>  <ref_pdb>  (2234) 
Z4245a

>  <HIPPO Compound ID>  (2234) 
146909

>  <name>  (2234) 
P73936

>  <inspiration_score>  (2234) 
None

$$$$
P73937
     RDKit          3D

 24 26  0  0  0  0  0  0  0  0999 V2000
  -10.6687    4.5637  -18.1666 C   0  0  0  0  0  0  0  0  0  0  0  0
   -9.4622    4.5125  -19.0826 C   0  0  0  0  0  0  0  0  0  0  0  0
   -8.4891    3.4035  -18.7384 C   0  0  0  0  0  0  0  0  0  0  0  0
   -7.4277    3.9254  -17.9392 N   0  0  0  0  0  0  0  0  0  0  0  0
   -6.3039    4.5537  -18.4721 C   0  0  0  0  0  0  0  0  0  0  0  0
   -5.9833    4.5727  -19.6511 O   0  0  0  0  0  0  0  0  0  0  0  0
   -5.5997    5.1563  -17.4009 N   0  0  0  0  0  0  0  0  0  0  0  0
   -4.7511    6.3343  -17.5158 C   0  0  0  0  0  0  0  0  0  0  0  0
   -3.4437    6.4038  -18.3406 C   0  0  0  0  0  0  0  0  0  0  0  0
   -2.6542    7.2362  -18.1279 O   0  0  0  0  0  0  0  0  0  0  0  0
   -3.4851    5.3251  -19.4372 N   0  0  0  0  0  0  0  0  0  0  0  0
   -2.6186    5.1012  -20.5564 C   0  0  0  0  0  0  0  0  0  0  0  0
   -3.1607    5.8959  -21.7711 C   0  0  1  0  0  0  0  0  0  0  0  0
   -4.6180    5.5008  -22.0651 C   0  0  0  0  0  0  0  0  0  0  0  0
   -5.0294    5.9133  -23.3650 O   0  0  0  0  0  0  0  0  0  0  0  0
   -2.9450    7.3929  -21.5479 C   0  0  0  0  0  0  0  0  0  0  0  0
   -3.1603    8.3745  -22.6757 C   0  0  0  0  0  0  0  0  0  0  0  0
   -4.0430    8.4301  -21.4614 C   0  0  0  0  0  0  0  0  0  0  0  0
   -6.3895    4.9588  -16.2435 C   0  0  0  0  0  0  0  0  0  0  0  0
   -6.2163    5.4146  -14.9550 C   0  0  0  0  0  0  0  0  0  0  0  0
   -7.1976    5.0890  -14.0137 C   0  0  0  0  0  0  0  0  0  0  0  0
   -8.3226    4.3304  -14.3709 C   0  0  0  0  0  0  0  0  0  0  0  0
   -8.4858    3.8803  -15.6759 C   0  0  0  0  0  0  0  0  0  0  0  0
   -7.5070    4.2070  -16.5854 C   0  0  0  0  0  0  0  0  0  0  0  0
  1  2  1  0
  2  3  1  0
  3  4  1  0
  4  5  1  0
  5  6  2  0
  5  7  1  0
  7  8  1  0
  8  9  1  0
  9 10  2  0
  9 11  1  0
 11 12  1  0
 13 12  1  1
 13 14  1  0
 14 15  1  0
 13 16  1  0
 16 17  1  0
 17 18  1  0
  7 19  1  0
 19 20  2  0
 20 21  1  0
 21 22  2  0
 22 23  1  0
 23 24  2  0
 24  4  1  0
 18 16  1  0
 24 19  1  0
M  END
>  <energy_score>  (2235) 
-6.871207

>  <alias>  (2235) 
None

>  <HIPPO Pose ID>  (2235) 
73937

>  <smiles>  (2235) 
CCCn1c(=O)n(CC(=O)NC[C@@H](CO)C2CC2)c2ccccc21

>  <inchikey>  (2235) 
GCOMQJPTUSYMAT-AWEZNQCLSA-N

>  <distance_score>  (2235) 
1.441718

>  <ref_mols>  (2235) 
Z0101a,Z4245a

>  <ref_pdb>  (2235) 
Z4245a

>  <HIPPO Compound ID>  (2235) 
146910

>  <name>  (2235) 
P73937

>  <inspiration_score>  (2235) 
None

$$$$
P73939
     RDKit          3D

 24 27  0  0  0  0  0  0  0  0999 V2000
  -10.6705    4.5607  -18.1622 C   0  0  0  0  0  0  0  0  0  0  0  0
   -9.4863    4.5347  -19.1073 C   0  0  0  0  0  0  0  0  0  0  0  0
   -8.5006    3.4203  -18.8227 C   0  0  0  0  0  0  0  0  0  0  0  0
   -7.4153    3.9213  -18.0471 N   0  0  0  0  0  0  0  0  0  0  0  0
   -6.3131    4.5707  -18.6111 C   0  0  0  0  0  0  0  0  0  0  0  0
   -6.0301    4.6449  -19.7972 O   0  0  0  0  0  0  0  0  0  0  0  0
   -5.6081    5.1742  -17.5489 N   0  0  0  0  0  0  0  0  0  0  0  0
   -4.6459    6.2329  -17.7151 C   0  0  0  0  0  0  0  0  0  0  0  0
   -3.2904    5.8307  -18.3147 C   0  0  0  0  0  0  0  0  0  0  0  0
   -2.2844    5.9429  -17.7298 O   0  0  0  0  0  0  0  0  0  0  0  0
   -3.5589    5.3905  -19.7799 N   0  0  0  0  0  0  0  0  0  0  0  0
   -2.6666    5.0994  -20.8207 C   0  0  2  0  0  0  0  0  0  0  0  0
   -2.3587    6.1710  -21.8284 C   0  0  2  0  0  0  0  0  0  0  0  0
   -2.9932    7.5305  -21.7895 C   0  0  0  0  0  0  0  0  0  0  0  0
   -4.5058    7.5287  -21.9925 C   0  0  0  0  0  0  0  0  0  0  0  0
   -4.9124    6.4532  -22.9835 C   0  0  0  0  0  0  0  0  0  0  0  0
   -4.5835    5.1726  -22.4526 O   0  0  0  0  0  0  0  0  0  0  0  0
   -3.1647    4.9755  -22.2487 C   0  0  2  0  0  0  0  0  0  0  0  0
   -6.3526    4.9738  -16.3733 C   0  0  0  0  0  0  0  0  0  0  0  0
   -6.1484    5.4302  -15.0910 C   0  0  0  0  0  0  0  0  0  0  0  0
   -7.1050    5.0953  -14.1263 C   0  0  0  0  0  0  0  0  0  0  0  0
   -8.2329    4.3254  -14.4553 C   0  0  0  0  0  0  0  0  0  0  0  0
   -8.4220    3.8699  -15.7554 C   0  0  0  0  0  0  0  0  0  0  0  0
   -7.4686    4.2067  -16.6890 C   0  0  0  0  0  0  0  0  0  0  0  0
  1  2  1  0
  2  3  1  0
  3  4  1  0
  4  5  1  0
  5  6  2  0
  5  7  1  0
  7  8  1  0
  8  9  1  0
  9 10  2  0
  9 11  1  0
 12 11  1  1
 12 13  1  0
 13 14  1  1
 14 15  1  0
 15 16  1  0
 16 17  1  0
 18 17  1  1
  7 19  1  0
 19 20  2  0
 20 21  1  0
 21 22  2  0
 22 23  1  0
 23 24  2  0
 24  4  1  0
 18 12  1  0
 24 19  1  0
 18 13  1  0
M  END
>  <energy_score>  (2236) 
-17.934615

>  <alias>  (2236) 
None

>  <HIPPO Pose ID>  (2236) 
73939

>  <smiles>  (2236) 
CCCn1c(=O)n(CC(=O)N[C@@H]2[C@@H]3CCCO[C@@H]32)c2ccccc21

>  <inchikey>  (2236) 
PAZKPNRBVRPPMS-VUCTXSBTSA-N

>  <distance_score>  (2236) 
1.448797

>  <ref_mols>  (2236) 
Z0101a,Z4245a

>  <ref_pdb>  (2236) 
Z4245a

>  <HIPPO Compound ID>  (2236) 
146911

>  <name>  (2236) 
P73939

>  <inspiration_score>  (2236) 
None

$$$$
P73946
     RDKit          3D

 24 27  0  0  0  0  0  0  0  0999 V2000
  -10.6129    4.5104  -18.2243 C   0  0  0  0  0  0  0  0  0  0  0  0
   -9.4150    4.5481  -19.1561 C   0  0  0  0  0  0  0  0  0  0  0  0
   -8.3360    3.5201  -18.8769 C   0  0  0  0  0  0  0  0  0  0  0  0
   -7.3250    4.0815  -18.0315 N   0  0  0  0  0  0  0  0  0  0  0  0
   -6.0718    4.5605  -18.4551 C   0  0  0  0  0  0  0  0  0  0  0  0
   -5.5579    4.4050  -19.5549 O   0  0  0  0  0  0  0  0  0  0  0  0
   -5.4910    5.2041  -17.3261 N   0  0  0  0  0  0  0  0  0  0  0  0
   -4.0773    5.4413  -17.1268 C   0  0  0  0  0  0  0  0  0  0  0  0
   -3.4551    6.5058  -18.0325 C   0  0  0  0  0  0  0  0  0  0  0  0
   -3.1119    7.5568  -17.6571 O   0  0  0  0  0  0  0  0  0  0  0  0
   -3.3124    5.8410  -19.4254 N   0  0  0  0  0  0  0  0  0  0  0  0
   -2.6347    6.2948  -20.6143 C   0  0  1  0  0  0  0  0  0  0  0  0
   -2.6890    5.2533  -21.7452 C   0  0  0  0  0  0  0  0  0  0  0  0
   -3.5608    6.2104  -22.5693 C   0  0  1  0  0  0  0  0  0  0  0  0
   -5.0555    6.0094  -22.6721 C   0  0  0  0  0  0  0  0  0  0  0  0
   -5.6157    7.2709  -22.3192 O   0  0  0  0  0  0  0  0  0  0  0  0
   -4.8432    7.7165  -21.2006 C   0  0  0  0  0  0  0  0  0  0  0  0
   -3.4150    7.2930  -21.4932 C   0  0  1  0  0  0  0  0  0  0  0  0
   -6.3671    5.0328  -16.2381 C   0  0  0  0  0  0  0  0  0  0  0  0
   -6.2311    5.4056  -14.9180 C   0  0  0  0  0  0  0  0  0  0  0  0
   -7.2564    5.0574  -14.0357 C   0  0  0  0  0  0  0  0  0  0  0  0
   -8.3763    4.3410  -14.4791 C   0  0  0  0  0  0  0  0  0  0  0  0
   -8.4946    3.9672  -15.8139 C   0  0  0  0  0  0  0  0  0  0  0  0
   -7.4871    4.3413  -16.6751 C   0  0  0  0  0  0  0  0  0  0  0  0
  1  2  1  0
  2  3  1  0
  3  4  1  0
  4  5  1  0
  5  6  2  0
  5  7  1  0
  7  8  1  0
  8  9  1  0
  9 10  2  0
  9 11  1  0
 12 11  1  1
 12 13  1  0
 14 13  1  1
 14 15  1  0
 15 16  1  0
 16 17  1  0
 18 17  1  1
  7 19  1  0
 19 20  2  0
 20 21  1  0
 21 22  2  0
 22 23  1  0
 23 24  2  0
 24  4  1  0
 18 12  1  0
 24 19  1  0
 18 14  1  0
M  END
>  <energy_score>  (2237) 
-21.651133

>  <alias>  (2237) 
None

>  <HIPPO Pose ID>  (2237) 
73946

>  <smiles>  (2237) 
CCCn1c(=O)n(CC(=O)N[C@H]2C[C@H]3COC[C@H]32)c2ccccc21

>  <inchikey>  (2237) 
XWJUXANWZLIRET-MJBXVCDLSA-N

>  <distance_score>  (2237) 
1.5865

>  <ref_mols>  (2237) 
Z0101a,Z4245a

>  <ref_pdb>  (2237) 
Z4245a

>  <HIPPO Compound ID>  (2237) 
146912

>  <name>  (2237) 
P73946

>  <inspiration_score>  (2237) 
None

$$$$
P73947
     RDKit          3D

 24 26  0  0  0  0  0  0  0  0999 V2000
  -10.0357    4.8530  -19.1409 C   0  0  0  0  0  0  0  0  0  0  0  0
   -9.9698    3.8087  -18.0804 C   0  0  0  0  0  0  0  0  0  0  0  0
   -8.6557    3.0768  -18.2078 C   0  0  0  0  0  0  0  0  0  0  0  0
   -7.5590    3.9034  -17.7883 N   0  0  0  0  0  0  0  0  0  0  0  0
   -6.4760    4.3795  -18.5614 C   0  0  0  0  0  0  0  0  0  0  0  0
   -6.2136    4.1386  -19.7330 O   0  0  0  0  0  0  0  0  0  0  0  0
   -5.7059    5.1853  -17.6710 N   0  0  0  0  0  0  0  0  0  0  0  0
   -4.3784    5.6660  -17.9544 C   0  0  0  0  0  0  0  0  0  0  0  0
   -4.4112    6.5585  -19.1970 C   0  0  0  0  0  0  0  0  0  0  0  0
   -5.3516    7.1893  -19.5366 O   0  0  0  0  0  0  0  0  0  0  0  0
   -3.0590    6.3504  -19.8833 N   0  0  0  0  0  0  0  0  0  0  0  0
   -3.0838    5.1031  -20.8342 C   0  0  0  0  0  0  0  0  0  0  0  0
   -3.2189    5.9796  -22.0414 C   0  0  0  0  0  0  0  0  0  0  0  0
   -2.4357    5.5156  -23.2730 C   0  0  0  0  0  0  0  0  0  0  0  0
   -1.0683    5.2780  -22.9649 O   0  0  0  0  0  0  0  0  0  0  0  0
   -4.6515    6.3225  -22.4458 C   0  0  0  0  0  0  0  0  0  0  0  0
   -5.4464    5.1475  -22.4848 O   0  0  0  0  0  0  0  0  0  0  0  0
   -2.4853    6.9684  -21.1476 C   0  0  0  0  0  0  0  0  0  0  0  0
   -6.2822    5.1273  -16.3970 C   0  0  0  0  0  0  0  0  0  0  0  0
   -5.8834    5.6703  -15.1976 C   0  0  0  0  0  0  0  0  0  0  0  0
   -6.6836    5.4224  -14.0744 C   0  0  0  0  0  0  0  0  0  0  0  0
   -7.8440    4.6376  -14.1620 C   0  0  0  0  0  0  0  0  0  0  0  0
   -8.2208    4.0855  -15.3774 C   0  0  0  0  0  0  0  0  0  0  0  0
   -7.4278    4.3525  -16.4760 C   0  0  0  0  0  0  0  0  0  0  0  0
  1  2  1  0
  2  3  1  0
  3  4  1  0
  4  5  1  0
  5  6  2  0
  5  7  1  0
  7  8  1  0
  8  9  1  0
  9 10  2  0
  9 11  1  0
 11 12  1  0
 12 13  1  0
 13 14  1  0
 14 15  1  0
 13 16  1  0
 16 17  1  0
 13 18  1  0
  7 19  1  0
 19 20  2  0
 20 21  1  0
 21 22  2  0
 22 23  1  0
 23 24  2  0
 24  4  1  0
 18 11  1  0
 24 19  1  0
M  END
>  <energy_score>  (2238) 
-12.354582

>  <alias>  (2238) 
None

>  <HIPPO Pose ID>  (2238) 
73947

>  <smiles>  (2238) 
CCCn1c(=O)n(CC(=O)N2CC(CO)(CO)C2)c2ccccc21

>  <inchikey>  (2238) 
WASQOZZNPYERAU-UHFFFAOYSA-N

>  <distance_score>  (2238) 
1.645234

>  <ref_mols>  (2238) 
Z0101a,Z4245a

>  <ref_pdb>  (2238) 
Z4245a

>  <HIPPO Compound ID>  (2238) 
146914

>  <name>  (2238) 
P73947

>  <inspiration_score>  (2238) 
None

$$$$
P73955
     RDKit          3D

 26 29  0  0  0  0  0  0  0  0999 V2000
   -5.7753    6.2841  -20.7371 O   0  0  0  0  0  0  0  0  0  0  0  0
   -5.6403    5.1206  -20.8180 C   0  0  0  0  0  0  0  0  0  0  0  0
   -6.5305    4.1173  -20.0281 C   0  0  0  0  0  0  0  0  0  0  0  0
   -6.3361    4.4667  -18.6604 N   0  0  0  0  0  0  0  0  0  0  0  0
   -5.0612    4.7229  -18.1500 C   0  0  0  0  0  0  0  0  0  0  0  0
   -4.0521    4.6343  -18.8328 O   0  0  0  0  0  0  0  0  0  0  0  0
   -5.2020    5.0770  -16.7783 N   0  0  0  0  0  0  0  0  0  0  0  0
   -4.1761    5.6047  -15.9870 C   0  0  0  0  0  0  0  0  0  0  0  0
   -2.8845    5.6459  -16.3795 C   0  0  0  0  0  0  0  0  0  0  0  0
   -1.7481    6.2405  -15.5954 C   0  0  0  0  0  0  0  0  0  0  0  0
   -2.1037    6.5676  -14.1515 C   0  0  0  0  0  0  0  0  0  0  0  0
   -3.4858    7.1925  -14.0826 C   0  0  0  0  0  0  0  0  0  0  0  0
   -4.5369    6.2346  -14.6529 C   0  0  0  0  0  0  0  0  0  0  0  0
   -6.5642    4.8063  -16.4547 C   0  0  0  0  0  0  0  0  0  0  0  0
   -7.2176    4.7731  -15.2404 C   0  0  0  0  0  0  0  0  0  0  0  0
   -8.5624    4.4068  -15.2288 C   0  0  0  0  0  0  0  0  0  0  0  0
   -9.2297    4.0887  -16.4212 C   0  0  0  0  0  0  0  0  0  0  0  0
   -8.5748    4.0950  -17.6444 C   0  0  0  0  0  0  0  0  0  0  0  0
   -7.2462    4.4435  -17.6235 C   0  0  0  0  0  0  0  0  0  0  0  0
   -4.5592    4.2736  -21.5787 N   0  0  0  0  0  0  0  0  0  0  0  0
   -3.3684    4.6961  -22.3149 C   0  0  2  0  0  0  0  0  0  0  0  0
   -2.2443    5.3172  -21.4519 C   0  0  0  0  0  0  0  0  0  0  0  0
   -2.8349    6.7066  -21.7674 C   0  0  0  0  0  0  0  0  0  0  0  0
   -3.4678    6.0591  -23.0355 C   0  0  2  0  0  0  0  0  0  0  0  0
   -4.8222    6.4407  -23.5964 C   0  0  0  0  0  0  0  0  0  0  0  0
   -5.3565    7.5762  -22.9455 O   0  0  0  0  0  0  0  0  0  0  0  0
  1  2  2  0
  2  3  1  0
  3  4  1  0
  4  5  1  0
  5  6  2  0
  5  7  1  0
  7  8  1  0
  8  9  2  0
  9 10  1  0
 10 11  1  0
 11 12  1  0
 12 13  1  0
  7 14  1  0
 14 15  2  0
 15 16  1  0
 16 17  2  0
 17 18  1  0
 18 19  2  0
  2 20  1  0
 21 20  1  1
 21 22  1  0
 22 23  1  0
 23 24  1  0
 24 25  1  1
 25 26  1  0
 19  4  1  0
 24 21  1  0
 13  8  1  0
 19 14  1  0
M  END
>  <energy_score>  (2239) 
-17.553362

>  <alias>  (2239) 
None

>  <HIPPO Pose ID>  (2239) 
73955

>  <smiles>  (2239) 
O=C(Cn1c(=O)n(C2=CCCCC2)c2ccccc21)N[C@@H]1CC[C@@H]1CO

>  <inchikey>  (2239) 
KSKAQLDDFGEHBL-GDBMZVCRSA-N

>  <distance_score>  (2239) 
1.73298

>  <ref_mols>  (2239) 
Z0101a,Z4245a

>  <ref_pdb>  (2239) 
Z4245a

>  <HIPPO Compound ID>  (2239) 
146932

>  <name>  (2239) 
P73955

>  <inspiration_score>  (2239) 
None

$$$$
P73960
     RDKit          3D

 26 28  0  0  0  0  0  0  0  0999 V2000
   -2.3570    7.3251  -21.3802 C   0  0  0  0  0  0  0  0  0  0  0  0
   -3.6246    6.5136  -21.2325 C   0  0  1  0  0  0  0  0  0  0  0  0
   -4.8819    7.4026  -21.1550 C   0  0  0  0  0  0  0  0  0  0  0  0
   -5.8842    6.5516  -20.6006 N   0  0  0  0  0  0  0  0  0  0  0  0
   -6.5628    6.5728  -19.2158 C   0  0  0  0  0  0  0  0  0  0  0  0
   -6.4660    7.3350  -18.3388 O   0  0  0  0  0  0  0  0  0  0  0  0
   -7.4119    5.2158  -19.1153 C   0  0  0  0  0  0  0  0  0  0  0  0
   -6.7803    4.4399  -18.0982 N   0  0  0  0  0  0  0  0  0  0  0  0
   -5.3726    4.4830  -18.1919 C   0  0  0  0  0  0  0  0  0  0  0  0
   -4.8041    4.3715  -19.2744 O   0  0  0  0  0  0  0  0  0  0  0  0
   -4.8711    4.8246  -16.8874 N   0  0  0  0  0  0  0  0  0  0  0  0
   -3.5596    5.2608  -16.6407 C   0  0  0  0  0  0  0  0  0  0  0  0
   -2.6094    5.3020  -17.5988 C   0  0  0  0  0  0  0  0  0  0  0  0
   -1.2682    5.9683  -17.4787 C   0  0  0  0  0  0  0  0  0  0  0  0
   -1.1613    6.8692  -16.2562 C   0  0  0  0  0  0  0  0  0  0  0  0
   -1.7341    6.1653  -15.0405 C   0  0  0  0  0  0  0  0  0  0  0  0
   -3.2006    5.7693  -15.2574 C   0  0  0  0  0  0  0  0  0  0  0  0
   -6.0140    4.7957  -16.0167 C   0  0  0  0  0  0  0  0  0  0  0  0
   -6.1632    4.9448  -14.6544 C   0  0  0  0  0  0  0  0  0  0  0  0
   -7.4402    4.7882  -14.0931 C   0  0  0  0  0  0  0  0  0  0  0  0
   -8.5592    4.5122  -14.8895 C   0  0  0  0  0  0  0  0  0  0  0  0
   -8.4328    4.4163  -16.2651 C   0  0  0  0  0  0  0  0  0  0  0  0
   -7.1564    4.5558  -16.7772 C   0  0  0  0  0  0  0  0  0  0  0  0
   -3.7817    5.4339  -22.3267 C   0  0  1  0  0  0  0  0  0  0  0  0
   -2.5625    4.5391  -22.4497 C   0  0  0  0  0  0  0  0  0  0  0  0
   -4.9030    4.5869  -22.0486 O   0  0  0  0  0  0  0  0  0  0  0  0
  2  1  1  6
  2  3  1  0
  3  4  1  0
  4  5  1  0
  5  6  2  0
  5  7  1  0
  7  8  1  0
  8  9  1  0
  9 10  2  0
  9 11  1  0
 11 12  1  0
 12 13  2  0
 13 14  1  0
 14 15  1  0
 15 16  1  0
 16 17  1  0
 11 18  1  0
 18 19  2  0
 19 20  1  0
 20 21  2  0
 21 22  1  0
 22 23  2  0
  2 24  1  0
 24 25  1  1
 24 26  1  0
 23  8  1  0
 17 12  1  0
 23 18  1  0
M  END
>  <energy_score>  (2240) 
-15.023905

>  <alias>  (2240) 
None

>  <HIPPO Pose ID>  (2240) 
73960

>  <smiles>  (2240) 
C[C@@H](O)[C@@H](C)CNC(=O)Cn1c(=O)n(C2=CCCCC2)c2ccccc21

>  <inchikey>  (2240) 
AOHCKWIMMBOCDN-LSDHHAIUSA-N

>  <distance_score>  (2240) 
1.604131

>  <ref_mols>  (2240) 
Z0101a,Z4245a

>  <ref_pdb>  (2240) 
Z4245a

>  <HIPPO Compound ID>  (2240) 
146939

>  <name>  (2240) 
P73960

>  <inspiration_score>  (2240) 
None

$$$$
P73963
     RDKit          3D

 26 28  0  0  0  0  0  0  0  0999 V2000
   -2.9277    6.6751  -20.7987 C   0  0  0  0  0  0  0  0  0  0  0  0
   -3.0553    5.7940  -22.0396 C   0  0  2  0  0  0  0  0  0  0  0  0
   -1.7781    5.8420  -22.7137 O   0  0  0  0  0  0  0  0  0  0  0  0
   -4.1106    6.3512  -23.0209 C   0  0  0  0  0  0  0  0  0  0  0  0
   -5.4691    6.0786  -22.7000 O   0  0  0  0  0  0  0  0  0  0  0  0
   -3.3398    4.3277  -21.7017 C   0  0  0  0  0  0  0  0  0  0  0  0
   -4.6337    4.1625  -21.1219 N   0  0  0  0  0  0  0  0  0  0  0  0
   -5.0911    4.2455  -19.6476 C   0  0  0  0  0  0  0  0  0  0  0  0
   -4.4695    4.3854  -18.6701 O   0  0  0  0  0  0  0  0  0  0  0  0
   -6.6472    4.0801  -19.6512 C   0  0  0  0  0  0  0  0  0  0  0  0
   -7.1934    5.0981  -18.7883 N   0  0  0  0  0  0  0  0  0  0  0  0
   -6.4176    6.2964  -18.8534 C   0  0  0  0  0  0  0  0  0  0  0  0
   -6.0889    6.8431  -19.9023 O   0  0  0  0  0  0  0  0  0  0  0  0
   -5.9373    6.5447  -17.5191 N   0  0  0  0  0  0  0  0  0  0  0  0
   -4.9380    7.4615  -17.2209 C   0  0  0  0  0  0  0  0  0  0  0  0
   -4.0651    7.2827  -16.2102 C   0  0  0  0  0  0  0  0  0  0  0  0
   -2.9737    8.2451  -15.8412 C   0  0  0  0  0  0  0  0  0  0  0  0
   -2.7578    9.3531  -16.8688 C   0  0  0  0  0  0  0  0  0  0  0  0
   -4.0880    9.8581  -17.4094 C   0  0  0  0  0  0  0  0  0  0  0  0
   -4.8663    8.7170  -18.0701 C   0  0  0  0  0  0  0  0  0  0  0  0
   -6.5920    5.6181  -16.6657 C   0  0  0  0  0  0  0  0  0  0  0  0
   -6.6412    5.5409  -15.2877 C   0  0  0  0  0  0  0  0  0  0  0  0
   -7.5453    4.6438  -14.7191 C   0  0  0  0  0  0  0  0  0  0  0  0
   -8.3737    3.8533  -15.5310 C   0  0  0  0  0  0  0  0  0  0  0  0
   -8.2899    3.8963  -16.9173 C   0  0  0  0  0  0  0  0  0  0  0  0
   -7.3835    4.7855  -17.4445 C   0  0  0  0  0  0  0  0  0  0  0  0
  2  1  1  1
  2  3  1  0
  2  4  1  0
  4  5  1  0
  2  6  1  0
  6  7  1  0
  7  8  1  0
  8  9  2  0
  8 10  1  0
 10 11  1  0
 11 12  1  0
 12 13  2  0
 12 14  1  0
 14 15  1  0
 15 16  2  0
 16 17  1  0
 17 18  1  0
 18 19  1  0
 19 20  1  0
 14 21  1  0
 21 22  2  0
 22 23  1  0
 23 24  2  0
 24 25  1  0
 25 26  2  0
 26 11  1  0
 20 15  1  0
 26 21  1  0
M  END
>  <energy_score>  (2241) 
-12.019111

>  <alias>  (2241) 
None

>  <HIPPO Pose ID>  (2241) 
73963

>  <smiles>  (2241) 
C[C@](O)(CO)CNC(=O)Cn1c(=O)n(C2=CCCCC2)c2ccccc21

>  <inchikey>  (2241) 
MQSANKPCDZTREK-LJQANCHMSA-N

>  <distance_score>  (2241) 
1.542696

>  <ref_mols>  (2241) 
Z0101a,Z4245a

>  <ref_pdb>  (2241) 
Z4245a

>  <HIPPO Compound ID>  (2241) 
146941

>  <name>  (2241) 
P73963

>  <inspiration_score>  (2241) 
None

$$$$
P73965
     RDKit          3D

 26 29  0  0  0  0  0  0  0  0999 V2000
   -4.3519    4.4134  -18.6696 O   0  0  0  0  0  0  0  0  0  0  0  0
   -4.9162    4.2828  -19.6835 C   0  0  0  0  0  0  0  0  0  0  0  0
   -6.4743    4.0817  -19.7689 C   0  0  0  0  0  0  0  0  0  0  0  0
   -7.0852    5.0815  -18.9238 N   0  0  0  0  0  0  0  0  0  0  0  0
   -6.3302    6.2912  -18.9514 C   0  0  0  0  0  0  0  0  0  0  0  0
   -5.9672    6.8301  -19.9942 O   0  0  0  0  0  0  0  0  0  0  0  0
   -5.9162    6.5483  -17.5918 N   0  0  0  0  0  0  0  0  0  0  0  0
   -4.8777    7.4159  -17.2535 C   0  0  0  0  0  0  0  0  0  0  0  0
   -4.5082    8.4437  -18.0465 C   0  0  0  0  0  0  0  0  0  0  0  0
   -3.3586    9.3727  -17.7801 C   0  0  0  0  0  0  0  0  0  0  0  0
   -2.7517    9.2236  -16.3892 C   0  0  0  0  0  0  0  0  0  0  0  0
   -2.6839    7.7583  -15.9875 C   0  0  0  0  0  0  0  0  0  0  0  0
   -4.0851    7.1392  -15.9900 C   0  0  0  0  0  0  0  0  0  0  0  0
   -6.6094    5.6100  -16.7729 C   0  0  0  0  0  0  0  0  0  0  0  0
   -6.7207    5.5008  -15.3998 C   0  0  0  0  0  0  0  0  0  0  0  0
   -7.6444    4.5882  -14.8846 C   0  0  0  0  0  0  0  0  0  0  0  0
   -8.4289    3.8032  -15.7423 C   0  0  0  0  0  0  0  0  0  0  0  0
   -8.2720    3.8642  -17.1214 C   0  0  0  0  0  0  0  0  0  0  0  0
   -7.3485    4.7688  -17.5943 C   0  0  0  0  0  0  0  0  0  0  0  0
   -4.3953    4.3667  -21.1395 N   0  0  0  0  0  0  0  0  0  0  0  0
   -3.1031    4.7200  -21.6458 C   0  0  0  0  0  0  0  0  0  0  0  0
   -3.2704    6.2155  -21.7716 C   0  0  1  0  0  0  0  0  0  0  0  0
   -2.2218    7.1538  -22.3955 C   0  0  0  0  0  0  0  0  0  0  0  0
   -3.4233    7.9288  -23.0050 C   0  0  0  0  0  0  0  0  0  0  0  0
   -4.1727    6.5801  -22.9859 C   0  0  2  0  0  0  0  0  0  0  0  0
   -5.5914    6.5657  -22.7687 O   0  0  0  0  0  0  0  0  0  0  0  0
  1  2  2  0
  2  3  1  0
  3  4  1  0
  4  5  1  0
  5  6  2  0
  5  7  1  0
  7  8  1  0
  8  9  2  0
  9 10  1  0
 10 11  1  0
 11 12  1  0
 12 13  1  0
  7 14  1  0
 14 15  2  0
 15 16  1  0
 16 17  2  0
 17 18  1  0
 18 19  2  0
  2 20  1  0
 20 21  1  0
 22 21  1  6
 22 23  1  0
 23 24  1  0
 24 25  1  0
 25 26  1  1
 19  4  1  0
 25 22  1  0
 13  8  1  0
 19 14  1  0
M  END
>  <energy_score>  (2242) 
-13.793484

>  <alias>  (2242) 
None

>  <HIPPO Pose ID>  (2242) 
73965

>  <smiles>  (2242) 
O=C(Cn1c(=O)n(C2=CCCCC2)c2ccccc21)NC[C@H]1CC[C@@H]1O

>  <inchikey>  (2242) 
YGJNZDQXTQPSOS-KDOFPFPSSA-N

>  <distance_score>  (2242) 
1.528069

>  <ref_mols>  (2242) 
Z0101a,Z4245a

>  <ref_pdb>  (2242) 
Z4245a

>  <HIPPO Compound ID>  (2242) 
146944

>  <name>  (2242) 
P73965

>  <inspiration_score>  (2242) 
None

$$$$
P73967
     RDKit          3D

 26 29  0  0  0  0  0  0  0  0999 V2000
   -4.3448   10.6691  -21.4002 C   0  0  0  0  0  0  0  0  0  0  0  0
   -4.5886    9.2943  -21.1341 O   0  0  0  0  0  0  0  0  0  0  0  0
   -3.4899    8.4835  -21.5615 C   0  0  0  0  0  0  0  0  0  0  0  0
   -3.7787    7.0772  -21.2181 C   0  0  2  0  0  0  0  0  0  0  0  0
   -3.2870    5.9305  -22.0540 C   0  0  0  0  0  0  0  0  0  0  0  0
   -4.7549    6.2882  -22.0475 C   0  0  1  0  0  0  0  0  0  0  0  0
   -5.6751    5.5186  -21.3235 N   0  0  0  0  0  0  0  0  0  0  0  0
   -5.8023    3.9876  -21.1723 C   0  0  0  0  0  0  0  0  0  0  0  0
   -5.2098    3.1255  -21.6877 O   0  0  0  0  0  0  0  0  0  0  0  0
   -6.8544    3.7222  -20.0600 C   0  0  0  0  0  0  0  0  0  0  0  0
   -6.5444    4.4505  -18.8499 N   0  0  0  0  0  0  0  0  0  0  0  0
   -5.2270    4.7451  -18.4536 C   0  0  0  0  0  0  0  0  0  0  0  0
   -4.2497    4.6256  -19.1754 O   0  0  0  0  0  0  0  0  0  0  0  0
   -5.2497    5.1500  -17.0833 N   0  0  0  0  0  0  0  0  0  0  0  0
   -4.1150    5.5826  -16.3853 C   0  0  0  0  0  0  0  0  0  0  0  0
   -3.0081    6.0386  -17.0107 C   0  0  0  0  0  0  0  0  0  0  0  0
   -1.7567    6.5285  -16.3402 C   0  0  0  0  0  0  0  0  0  0  0  0
   -1.9097    6.7392  -14.8397 C   0  0  0  0  0  0  0  0  0  0  0  0
   -2.7175    5.6082  -14.2279 C   0  0  0  0  0  0  0  0  0  0  0  0
   -4.1065    5.5254  -14.8702 C   0  0  0  0  0  0  0  0  0  0  0  0
   -6.5686    4.8844  -16.6260 C   0  0  0  0  0  0  0  0  0  0  0  0
   -7.1287    4.9661  -15.3665 C   0  0  0  0  0  0  0  0  0  0  0  0
   -8.4443    4.5387  -15.2024 C   0  0  0  0  0  0  0  0  0  0  0  0
   -9.1842    4.0756  -16.2980 C   0  0  0  0  0  0  0  0  0  0  0  0
   -8.6435    4.0254  -17.5758 C   0  0  0  0  0  0  0  0  0  0  0  0
   -7.3385    4.4383  -17.7080 C   0  0  0  0  0  0  0  0  0  0  0  0
  1  2  1  0
  2  3  1  0
  4  3  1  6
  4  5  1  0
  5  6  1  0
  6  7  1  1
  7  8  1  0
  8  9  2  0
  8 10  1  0
 10 11  1  0
 11 12  1  0
 12 13  2  0
 12 14  1  0
 14 15  1  0
 15 16  2  0
 16 17  1  0
 17 18  1  0
 18 19  1  0
 19 20  1  0
 14 21  1  0
 21 22  2  0
 22 23  1  0
 23 24  2  0
 24 25  1  0
 25 26  2  0
  6  4  1  0
 26 11  1  0
 20 15  1  0
 26 21  1  0
M  END
>  <energy_score>  (2243) 
-13.173967

>  <alias>  (2243) 
None

>  <HIPPO Pose ID>  (2243) 
73967

>  <smiles>  (2243) 
COC[C@@H]1C[C@H]1NC(=O)Cn1c(=O)n(C2=CCCCC2)c2ccccc21

>  <inchikey>  (2243) 
DBGVSPLYANDAHC-GOEBONIOSA-N

>  <distance_score>  (2243) 
1.506725

>  <ref_mols>  (2243) 
Z0101a,Z4245a

>  <ref_pdb>  (2243) 
Z4245a

>  <HIPPO Compound ID>  (2243) 
146946

>  <name>  (2243) 
P73967

>  <inspiration_score>  (2243) 
None

$$$$
P73975
     RDKit          3D

 26 29  0  0  0  0  0  0  0  0999 V2000
   -2.5061    7.8709  -22.2154 C   0  0  0  0  0  0  0  0  0  0  0  0
   -3.8188    7.1093  -22.0815 C   0  0  0  0  0  0  0  0  0  0  0  0
   -4.0602    6.1767  -23.2693 C   0  0  0  0  0  0  0  0  0  0  0  0
   -5.4202    5.7697  -23.3853 O   0  0  0  0  0  0  0  0  0  0  0  0
   -4.9812    7.9329  -21.5535 C   0  0  0  0  0  0  0  0  0  0  0  0
   -5.5227    6.6779  -20.9018 N   0  0  0  0  0  0  0  0  0  0  0  0
   -6.2483    6.4810  -19.5764 C   0  0  0  0  0  0  0  0  0  0  0  0
   -6.4864    7.2528  -18.7140 O   0  0  0  0  0  0  0  0  0  0  0  0
   -6.6448    4.9534  -19.5170 C   0  0  0  0  0  0  0  0  0  0  0  0
   -6.2411    4.4564  -18.2524 N   0  0  0  0  0  0  0  0  0  0  0  0
   -4.9054    4.6592  -17.9154 C   0  0  0  0  0  0  0  0  0  0  0  0
   -4.0182    4.6038  -18.7542 O   0  0  0  0  0  0  0  0  0  0  0  0
   -4.8561    4.9993  -16.5303 N   0  0  0  0  0  0  0  0  0  0  0  0
   -3.7357    5.5426  -15.8938 C   0  0  0  0  0  0  0  0  0  0  0  0
   -2.5162    5.6061  -16.4707 C   0  0  0  0  0  0  0  0  0  0  0  0
   -1.2926    6.2336  -15.8626 C   0  0  0  0  0  0  0  0  0  0  0  0
   -1.4319    6.5172  -14.3737 C   0  0  0  0  0  0  0  0  0  0  0  0
   -2.7939    7.1228  -14.0870 C   0  0  0  0  0  0  0  0  0  0  0  0
   -3.9136    6.1715  -14.5223 C   0  0  0  0  0  0  0  0  0  0  0  0
   -6.1841    4.7998  -16.0369 C   0  0  0  0  0  0  0  0  0  0  0  0
   -6.7055    4.8071  -14.7597 C   0  0  0  0  0  0  0  0  0  0  0  0
   -8.0594    4.4977  -14.5915 C   0  0  0  0  0  0  0  0  0  0  0  0
   -8.8733    4.2034  -15.6945 C   0  0  0  0  0  0  0  0  0  0  0  0
   -8.3653    4.2214  -16.9850 C   0  0  0  0  0  0  0  0  0  0  0  0
   -7.0212    4.5001  -17.1110 C   0  0  0  0  0  0  0  0  0  0  0  0
   -3.9897    6.4222  -20.7574 C   0  0  0  0  0  0  0  0  0  0  0  0
  1  2  1  0
  2  3  1  0
  3  4  1  0
  2  5  1  0
  5  6  1  0
  6  7  1  0
  7  8  2  0
  7  9  1  0
  9 10  1  0
 10 11  1  0
 11 12  2  0
 11 13  1  0
 13 14  1  0
 14 15  2  0
 15 16  1  0
 16 17  1  0
 17 18  1  0
 18 19  1  0
 13 20  1  0
 20 21  2  0
 21 22  1  0
 22 23  2  0
 23 24  1  0
 24 25  2  0
  6 26  1  0
 26  2  1  0
 25 10  1  0
 19 14  1  0
 25 20  1  0
M  END
>  <energy_score>  (2244) 
-7.408821

>  <alias>  (2244) 
None

>  <HIPPO Pose ID>  (2244) 
73975

>  <smiles>  (2244) 
CC1(CO)CN(C(=O)Cn2c(=O)n(C3=CCCCC3)c3ccccc32)C1

>  <inchikey>  (2244) 
WFPNSHNAMHUFAQ-UHFFFAOYSA-N

>  <distance_score>  (2244) 
1.68269

>  <ref_mols>  (2244) 
Z0101a,Z4245a

>  <ref_pdb>  (2244) 
Z4245a

>  <HIPPO Compound ID>  (2244) 
146956

>  <name>  (2244) 
P73975

>  <inspiration_score>  (2244) 
None

$$$$
P73979
     RDKit          3D

 27 30  0  0  0  0  0  0  0  0999 V2000
   -4.6388    4.2299  -18.6142 O   0  0  0  0  0  0  0  0  0  0  0  0
   -5.3230    4.2019  -19.5594 C   0  0  0  0  0  0  0  0  0  0  0  0
   -6.8722    4.0554  -19.4574 C   0  0  0  0  0  0  0  0  0  0  0  0
   -7.3215    5.1318  -18.5978 N   0  0  0  0  0  0  0  0  0  0  0  0
   -6.4761    6.2852  -18.7219 C   0  0  0  0  0  0  0  0  0  0  0  0
   -6.1988    6.8129  -19.7914 O   0  0  0  0  0  0  0  0  0  0  0  0
   -5.8828    6.5084  -17.4242 N   0  0  0  0  0  0  0  0  0  0  0  0
   -4.7461    7.2924  -17.2184 C   0  0  0  0  0  0  0  0  0  0  0  0
   -4.3896    8.2854  -18.0598 C   0  0  0  0  0  0  0  0  0  0  0  0
   -3.1387    9.1090  -17.9509 C   0  0  0  0  0  0  0  0  0  0  0  0
   -2.3754    8.9044  -16.6469 C   0  0  0  0  0  0  0  0  0  0  0  0
   -2.3887    7.4386  -16.2414 C   0  0  0  0  0  0  0  0  0  0  0  0
   -3.8288    6.9484  -16.0601 C   0  0  0  0  0  0  0  0  0  0  0  0
   -6.5466    5.6344  -16.5219 C   0  0  0  0  0  0  0  0  0  0  0  0
   -6.5019    5.5466  -15.1458 C   0  0  0  0  0  0  0  0  0  0  0  0
   -7.4068    4.6929  -14.5149 C   0  0  0  0  0  0  0  0  0  0  0  0
   -8.3284    3.9468  -15.2629 C   0  0  0  0  0  0  0  0  0  0  0  0
   -8.3446    3.9943  -16.6498 C   0  0  0  0  0  0  0  0  0  0  0  0
   -7.4389    4.8461  -17.2389 C   0  0  0  0  0  0  0  0  0  0  0  0
   -4.9757    4.3922  -21.0518 N   0  0  0  0  0  0  0  0  0  0  0  0
   -3.7408    4.7483  -21.6801 C   0  0  0  0  0  0  0  0  0  0  0  0
   -3.6255    6.2701  -21.6650 C   0  0  2  0  0  0  0  0  0  0  0  0
   -4.6906    6.9205  -22.5532 C   0  0  0  0  0  0  0  0  0  0  0  0
   -4.1119    6.8944  -23.9603 C   0  0  0  0  0  0  0  0  0  0  0  0
   -2.6004    6.6893  -23.8018 C   0  0  0  0  0  0  0  0  0  0  0  0
   -2.3311    6.7545  -22.2986 C   0  0  1  0  0  0  0  0  0  0  0  0
   -2.0920    8.1114  -21.9307 O   0  0  0  0  0  0  0  0  0  0  0  0
  1  2  2  0
  2  3  1  0
  3  4  1  0
  4  5  1  0
  5  6  2  0
  5  7  1  0
  7  8  1  0
  8  9  2  0
  9 10  1  0
 10 11  1  0
 11 12  1  0
 12 13  1  0
  7 14  1  0
 14 15  2  0
 15 16  1  0
 16 17  2  0
 17 18  1  0
 18 19  2  0
  2 20  1  0
 20 21  1  0
 22 21  1  6
 22 23  1  0
 23 24  1  0
 24 25  1  0
 25 26  1  0
 26 27  1  1
 19  4  1  0
 26 22  1  0
 13  8  1  0
 19 14  1  0
M  END
>  <energy_score>  (2245) 
-5.5548

>  <alias>  (2245) 
None

>  <HIPPO Pose ID>  (2245) 
73979

>  <smiles>  (2245) 
O=C(Cn1c(=O)n(C2=CCCCC2)c2ccccc21)NC[C@@H]1CCC[C@H]1O

>  <inchikey>  (2245) 
NTSXVOKAVVFULB-HNAYVOBHSA-N

>  <distance_score>  (2245) 
1.717901

>  <ref_mols>  (2245) 
Z0101a,Z4245a

>  <ref_pdb>  (2245) 
Z4245a

>  <HIPPO Compound ID>  (2245) 
146961

>  <name>  (2245) 
P73979

>  <inspiration_score>  (2245) 
None

$$$$
P73985
     RDKit          3D

 27 30  0  0  0  0  0  0  0  0999 V2000
   -2.4046    5.4774  -21.2842 C   0  0  0  0  0  0  0  0  0  0  0  0
   -3.4720    6.5765  -21.3417 C   0  0  1  0  0  0  0  0  0  0  0  0
   -2.8703    7.8913  -21.8211 C   0  0  0  0  0  0  0  0  0  0  0  0
   -3.8040    8.9747  -21.8290 O   0  0  0  0  0  0  0  0  0  0  0  0
   -5.1583    8.6095  -22.0787 C   0  0  0  0  0  0  0  0  0  0  0  0
   -5.2885    7.3708  -22.9468 C   0  0  0  0  0  0  0  0  0  0  0  0
   -4.6595    6.1801  -22.2413 C   0  0  2  0  0  0  0  0  0  0  0  0
   -5.6193    5.4579  -21.4401 N   0  0  0  0  0  0  0  0  0  0  0  0
   -5.7844    3.9484  -21.1986 C   0  0  0  0  0  0  0  0  0  0  0  0
   -5.2217    3.0434  -21.6675 O   0  0  0  0  0  0  0  0  0  0  0  0
   -6.8416    3.7381  -20.0654 C   0  0  0  0  0  0  0  0  0  0  0  0
   -6.5630    4.4903  -18.8681 N   0  0  0  0  0  0  0  0  0  0  0  0
   -5.2545    4.7831  -18.4614 C   0  0  0  0  0  0  0  0  0  0  0  0
   -4.2726    4.6592  -19.1709 O   0  0  0  0  0  0  0  0  0  0  0  0
   -5.2758    5.1625  -17.0944 N   0  0  0  0  0  0  0  0  0  0  0  0
   -4.1410    5.5736  -16.3945 C   0  0  0  0  0  0  0  0  0  0  0  0
   -3.9665    5.3315  -15.0798 C   0  0  0  0  0  0  0  0  0  0  0  0
   -2.8236    5.8458  -14.2556 C   0  0  0  0  0  0  0  0  0  0  0  0
   -2.0909    7.0024  -14.9234 C   0  0  0  0  0  0  0  0  0  0  0  0
   -1.7955    6.6646  -16.3740 C   0  0  0  0  0  0  0  0  0  0  0  0
   -3.0745    6.3499  -17.1601 C   0  0  0  0  0  0  0  0  0  0  0  0
   -6.5896    4.8974  -16.6392 C   0  0  0  0  0  0  0  0  0  0  0  0
   -7.1428    5.0061  -15.3797 C   0  0  0  0  0  0  0  0  0  0  0  0
   -8.4518    4.5675  -15.2077 C   0  0  0  0  0  0  0  0  0  0  0  0
   -9.1884    4.0814  -16.2985 C   0  0  0  0  0  0  0  0  0  0  0  0
   -8.6558    4.0290  -17.5818 C   0  0  0  0  0  0  0  0  0  0  0  0
   -7.3569    4.4530  -17.7229 C   0  0  0  0  0  0  0  0  0  0  0  0
  2  1  1  6
  2  3  1  0
  3  4  1  0
  4  5  1  0
  5  6  1  0
  6  7  1  0
  7  8  1  1
  8  9  1  0
  9 10  2  0
  9 11  1  0
 11 12  1  0
 12 13  1  0
 13 14  2  0
 13 15  1  0
 15 16  1  0
 16 17  2  0
 17 18  1  0
 18 19  1  0
 19 20  1  0
 20 21  1  0
 15 22  1  0
 22 23  2  0
 23 24  1  0
 24 25  2  0
 25 26  1  0
 26 27  2  0
  7  2  1  0
 27 12  1  0
 21 16  1  0
 27 22  1  0
M  END
>  <energy_score>  (2246) 
-34.599944

>  <alias>  (2246) 
None

>  <HIPPO Pose ID>  (2246) 
73985

>  <smiles>  (2246) 
C[C@H]1COCC[C@@H]1NC(=O)Cn1c(=O)n(C2=CCCCC2)c2ccccc21

>  <inchikey>  (2246) 
AXXVOCWDLNOQPT-RDJZCZTQSA-N

>  <distance_score>  (2246) 
1.433934

>  <ref_mols>  (2246) 
Z0101a,Z4245a

>  <ref_pdb>  (2246) 
Z4245a

>  <HIPPO Compound ID>  (2246) 
146963

>  <name>  (2246) 
P73985

>  <inspiration_score>  (2246) 
None

$$$$
P73988
     RDKit          3D

 27 31  0  0  0  0  0  0  0  0999 V2000
   -6.9680    2.4137  -21.0327 O   0  0  0  0  0  0  0  0  0  0  0  0
   -6.6860    3.4393  -20.5648 C   0  0  0  0  0  0  0  0  0  0  0  0
   -7.5377    3.9886  -19.3733 C   0  0  0  0  0  0  0  0  0  0  0  0
   -6.8385    4.4816  -18.2108 N   0  0  0  0  0  0  0  0  0  0  0  0
   -5.7725    5.3761  -18.1557 C   0  0  0  0  0  0  0  0  0  0  0  0
   -5.3029    5.9800  -19.1097 O   0  0  0  0  0  0  0  0  0  0  0  0
   -5.3939    5.5374  -16.7953 N   0  0  0  0  0  0  0  0  0  0  0  0
   -4.2289    6.1819  -16.3904 C   0  0  0  0  0  0  0  0  0  0  0  0
   -3.1245    6.1889  -17.1649 C   0  0  0  0  0  0  0  0  0  0  0  0
   -1.8230    6.8524  -16.8205 C   0  0  0  0  0  0  0  0  0  0  0  0
   -1.7421    7.3271  -15.3734 C   0  0  0  0  0  0  0  0  0  0  0  0
   -3.0693    7.9223  -14.9265 C   0  0  0  0  0  0  0  0  0  0  0  0
   -4.1918    6.8865  -15.0519 C   0  0  0  0  0  0  0  0  0  0  0  0
   -6.4727    5.0221  -16.0446 C   0  0  0  0  0  0  0  0  0  0  0  0
   -6.7304    5.0497  -14.6923 C   0  0  0  0  0  0  0  0  0  0  0  0
   -7.9642    4.5750  -14.2595 C   0  0  0  0  0  0  0  0  0  0  0  0
   -8.8931    4.0718  -15.1779 C   0  0  0  0  0  0  0  0  0  0  0  0
   -8.6047    3.9570  -16.5288 C   0  0  0  0  0  0  0  0  0  0  0  0
   -7.3785    4.4274  -16.9288 C   0  0  0  0  0  0  0  0  0  0  0  0
   -5.5051    4.3691  -20.8521 N   0  0  0  0  0  0  0  0  0  0  0  0
   -4.3768    4.1956  -21.7003 C   0  0  0  0  0  0  0  0  0  0  0  0
   -3.8950    5.5043  -22.2133 C   0  0  1  0  0  0  0  0  0  0  0  0
   -4.8319    6.3309  -23.0444 C   0  0  0  0  0  0  0  0  0  0  0  0
   -4.4853    7.7122  -22.8078 O   0  0  0  0  0  0  0  0  0  0  0  0
   -3.8423    7.7849  -21.5215 C   0  0  0  0  0  0  0  0  0  0  0  0
   -3.2324    6.4531  -21.2813 C   0  0  2  0  0  0  0  0  0  0  0  0
   -2.4002    5.7428  -22.3098 C   0  0  0  0  0  0  0  0  0  0  0  0
  1  2  2  0
  2  3  1  0
  3  4  1  0
  4  5  1  0
  5  6  2  0
  5  7  1  0
  7  8  1  0
  8  9  2  0
  9 10  1  0
 10 11  1  0
 11 12  1  0
 12 13  1  0
  7 14  1  0
 14 15  2  0
 15 16  1  0
 16 17  2  0
 17 18  1  0
 18 19  2  0
  2 20  1  0
 20 21  1  0
 22 21  1  1
 22 23  1  0
 23 24  1  0
 24 25  1  0
 26 25  1  6
 26 27  1  0
 19  4  1  0
 26 22  1  0
 13  8  1  0
 19 14  1  0
 27 22  1  0
M  END
>  <energy_score>  (2247) 
-25.865843

>  <alias>  (2247) 
None

>  <HIPPO Pose ID>  (2247) 
73988

>  <smiles>  (2247) 
O=C(Cn1c(=O)n(C2=CCCCC2)c2ccccc21)NC[C@@]12COC[C@@H]1C2

>  <inchikey>  (2247) 
ODDKRKRPOLAISB-BTYIYWSLSA-N

>  <distance_score>  (2247) 
1.484657

>  <ref_mols>  (2247) 
Z0101a,Z4245a

>  <ref_pdb>  (2247) 
Z4245a

>  <HIPPO Compound ID>  (2247) 
146964

>  <name>  (2247) 
P73988

>  <inspiration_score>  (2247) 
None

$$$$
P73989
     RDKit          3D

 27 30  0  0  0  0  0  0  0  0999 V2000
   -6.6972    3.0481  -21.1213 O   0  0  0  0  0  0  0  0  0  0  0  0
   -6.3377    4.0269  -20.5750 C   0  0  0  0  0  0  0  0  0  0  0  0
   -7.0535    4.6371  -19.3731 C   0  0  0  0  0  0  0  0  0  0  0  0
   -6.4559    4.3374  -18.1082 N   0  0  0  0  0  0  0  0  0  0  0  0
   -5.1541    4.7784  -17.8004 C   0  0  0  0  0  0  0  0  0  0  0  0
   -4.2337    4.8868  -18.5944 O   0  0  0  0  0  0  0  0  0  0  0  0
   -5.1144    5.1176  -16.4144 N   0  0  0  0  0  0  0  0  0  0  0  0
   -4.0182    5.7196  -15.7887 C   0  0  0  0  0  0  0  0  0  0  0  0
   -2.7637    5.6645  -16.2850 C   0  0  0  0  0  0  0  0  0  0  0  0
   -1.5576    6.3399  -15.6948 C   0  0  0  0  0  0  0  0  0  0  0  0
   -1.7916    6.9196  -14.3055 C   0  0  0  0  0  0  0  0  0  0  0  0
   -3.1657    7.5631  -14.2232 C   0  0  0  0  0  0  0  0  0  0  0  0
   -4.2561    6.5307  -14.5274 C   0  0  0  0  0  0  0  0  0  0  0  0
   -6.4022    4.8248  -15.9017 C   0  0  0  0  0  0  0  0  0  0  0  0
   -6.8959    4.8693  -14.6156 C   0  0  0  0  0  0  0  0  0  0  0  0
   -8.2191    4.4879  -14.4072 C   0  0  0  0  0  0  0  0  0  0  0  0
   -9.0188    4.0799  -15.4814 C   0  0  0  0  0  0  0  0  0  0  0  0
   -8.5327    4.0321  -16.7766 C   0  0  0  0  0  0  0  0  0  0  0  0
   -7.2144    4.3849  -16.9454 C   0  0  0  0  0  0  0  0  0  0  0  0
   -5.1089    4.8745  -20.7984 N   0  0  0  0  0  0  0  0  0  0  0  0
   -5.3730    5.9924  -21.8350 C   0  0  0  0  0  0  0  0  0  0  0  0
   -3.8862    6.1547  -21.9619 C   0  0  0  0  0  0  0  0  0  0  0  0
   -3.2619    7.0449  -20.8930 C   0  0  0  0  0  0  0  0  0  0  0  0
   -1.8459    6.8843  -20.9056 O   0  0  0  0  0  0  0  0  0  0  0  0
   -3.4139    6.5179  -23.3495 C   0  0  0  0  0  0  0  0  0  0  0  0
   -4.3540    6.0915  -24.3280 O   0  0  0  0  0  0  0  0  0  0  0  0
   -3.9336    4.6726  -21.7078 C   0  0  0  0  0  0  0  0  0  0  0  0
  1  2  2  0
  2  3  1  0
  3  4  1  0
  4  5  1  0
  5  6  2  0
  5  7  1  0
  7  8  1  0
  8  9  2  0
  9 10  1  0
 10 11  1  0
 11 12  1  0
 12 13  1  0
  7 14  1  0
 14 15  2  0
 15 16  1  0
 16 17  2  0
 17 18  1  0
 18 19  2  0
  2 20  1  0
 20 21  1  0
 21 22  1  0
 22 23  1  0
 23 24  1  0
 22 25  1  0
 25 26  1  0
 22 27  1  0
 19  4  1  0
 27 20  1  0
 13  8  1  0
 19 14  1  0
M  END
>  <energy_score>  (2248) 
-29.075481

>  <alias>  (2248) 
None

>  <HIPPO Pose ID>  (2248) 
73989

>  <smiles>  (2248) 
O=C(Cn1c(=O)n(C2=CCCCC2)c2ccccc21)N1CC(CO)(CO)C1

>  <inchikey>  (2248) 
KJMVZMRPGIOHNA-UHFFFAOYSA-N

>  <distance_score>  (2248) 
1.683592

>  <ref_mols>  (2248) 
Z0101a,Z4245a

>  <ref_pdb>  (2248) 
Z4245a

>  <HIPPO Compound ID>  (2248) 
146966

>  <name>  (2248) 
P73989

>  <inspiration_score>  (2248) 
None

$$$$
P73991
     RDKit          3D

 27 30  0  0  0  0  0  0  0  0999 V2000
   -5.9189    6.4955  -20.2307 O   0  0  0  0  0  0  0  0  0  0  0  0
   -5.7879    5.3506  -20.4529 C   0  0  0  0  0  0  0  0  0  0  0  0
   -6.6422    4.2475  -19.7686 C   0  0  0  0  0  0  0  0  0  0  0  0
   -6.3138    4.4378  -18.3955 N   0  0  0  0  0  0  0  0  0  0  0  0
   -5.0045    4.6983  -17.9744 C   0  0  0  0  0  0  0  0  0  0  0  0
   -4.0278    4.6238  -18.7073 O   0  0  0  0  0  0  0  0  0  0  0  0
   -5.0543    5.0079  -16.5883 N   0  0  0  0  0  0  0  0  0  0  0  0
   -3.9433    5.4113  -15.8504 C   0  0  0  0  0  0  0  0  0  0  0  0
   -3.8332    5.2015  -14.5235 C   0  0  0  0  0  0  0  0  0  0  0  0
   -2.7277    5.7336  -13.6613 C   0  0  0  0  0  0  0  0  0  0  0  0
   -1.9788    6.8856  -14.3192 C   0  0  0  0  0  0  0  0  0  0  0  0
   -1.6016    6.5148  -15.7423 C   0  0  0  0  0  0  0  0  0  0  0  0
   -2.8277    6.1445  -16.5877 C   0  0  0  0  0  0  0  0  0  0  0  0
   -6.4034    4.7912  -16.1849 C   0  0  0  0  0  0  0  0  0  0  0  0
   -7.0126    4.9124  -14.9544 C   0  0  0  0  0  0  0  0  0  0  0  0
   -8.3524    4.5400  -14.8505 C   0  0  0  0  0  0  0  0  0  0  0  0
   -9.0680    4.1137  -15.9799 C   0  0  0  0  0  0  0  0  0  0  0  0
   -8.4866    4.0767  -17.2391 C   0  0  0  0  0  0  0  0  0  0  0  0
   -7.1568    4.4161  -17.3037 C   0  0  0  0  0  0  0  0  0  0  0  0
   -4.7362    4.6038  -21.3408 N   0  0  0  0  0  0  0  0  0  0  0  0
   -3.5916    5.1030  -22.0469 C   0  0  0  0  0  0  0  0  0  0  0  0
   -3.6883    6.5024  -22.6049 C   0  0  2  0  0  0  0  0  0  0  0  0
   -3.4247    7.6456  -21.6472 C   0  0  0  0  0  0  0  0  0  0  0  0
   -3.9377    8.8232  -22.3063 O   0  0  0  0  0  0  0  0  0  0  0  0
   -4.8802    8.4041  -23.3098 C   0  0  0  0  0  0  0  0  0  0  0  0
   -5.0108    6.8885  -23.2130 C   0  0  1  0  0  0  0  0  0  0  0  0
   -5.2238    6.2266  -24.4445 O   0  0  0  0  0  0  0  0  0  0  0  0
  1  2  2  0
  2  3  1  0
  3  4  1  0
  4  5  1  0
  5  6  2  0
  5  7  1  0
  7  8  1  0
  8  9  2  0
  9 10  1  0
 10 11  1  0
 11 12  1  0
 12 13  1  0
  7 14  1  0
 14 15  2  0
 15 16  1  0
 16 17  2  0
 17 18  1  0
 18 19  2  0
  2 20  1  0
 20 21  1  0
 22 21  1  1
 22 23  1  0
 23 24  1  0
 24 25  1  0
 25 26  1  0
 26 27  1  6
 19  4  1  0
 26 22  1  0
 13  8  1  0
 19 14  1  0
M  END
>  <energy_score>  (2249) 
-4.471087

>  <alias>  (2249) 
None

>  <HIPPO Pose ID>  (2249) 
73991

>  <smiles>  (2249) 
O=C(Cn1c(=O)n(C2=CCCCC2)c2ccccc21)NC[C@@H]1COC[C@H]1O

>  <inchikey>  (2249) 
MEAVSBSNSLHPTP-RDTXWAMCSA-N

>  <distance_score>  (2249) 
1.712938

>  <ref_mols>  (2249) 
Z0101a,Z4245a

>  <ref_pdb>  (2249) 
Z4245a

>  <HIPPO Compound ID>  (2249) 
146967

>  <name>  (2249) 
P73991

>  <inspiration_score>  (2249) 
None

$$$$
P73995
     RDKit          3D

 27 31  0  0  0  0  0  0  0  0999 V2000
   -6.0138    6.7433  -20.1711 O   0  0  0  0  0  0  0  0  0  0  0  0
   -5.7914    5.6651  -20.5809 C   0  0  0  0  0  0  0  0  0  0  0  0
   -6.4454    4.3581  -20.0052 C   0  0  0  0  0  0  0  0  0  0  0  0
   -6.1996    4.4460  -18.6142 N   0  0  0  0  0  0  0  0  0  0  0  0
   -4.9076    4.7129  -18.1622 C   0  0  0  0  0  0  0  0  0  0  0  0
   -3.9435    4.6703  -18.9161 O   0  0  0  0  0  0  0  0  0  0  0  0
   -5.0031    5.0467  -16.7771 N   0  0  0  0  0  0  0  0  0  0  0  0
   -3.9539    5.5790  -16.0217 C   0  0  0  0  0  0  0  0  0  0  0  0
   -2.6815    5.6438  -16.4696 C   0  0  0  0  0  0  0  0  0  0  0  0
   -1.5215    6.2459  -15.7270 C   0  0  0  0  0  0  0  0  0  0  0  0
   -1.8138    6.5200  -14.2584 C   0  0  0  0  0  0  0  0  0  0  0  0
   -3.1964    7.1288  -14.1083 C   0  0  0  0  0  0  0  0  0  0  0  0
   -4.2666    6.1832  -14.6640 C   0  0  0  0  0  0  0  0  0  0  0  0
   -6.3658    4.7966  -16.4122 C   0  0  0  0  0  0  0  0  0  0  0  0
   -6.9968    4.7823  -15.1840 C   0  0  0  0  0  0  0  0  0  0  0  0
   -8.3522    4.4452  -15.1370 C   0  0  0  0  0  0  0  0  0  0  0  0
   -9.0582    4.1401  -16.3100 C   0  0  0  0  0  0  0  0  0  0  0  0
   -8.4305    4.1445  -17.5495 C   0  0  0  0  0  0  0  0  0  0  0  0
   -7.0889    4.4553  -17.5607 C   0  0  0  0  0  0  0  0  0  0  0  0
   -4.7718    5.1832  -21.6719 N   0  0  0  0  0  0  0  0  0  0  0  0
   -3.7586    5.9199  -22.4047 C   0  0  2  0  0  0  0  0  0  0  0  0
   -3.3537    7.3367  -21.8771 C   0  0  0  0  0  0  0  0  0  0  0  0
   -4.5016    7.8803  -22.7630 C   0  0  1  0  0  0  0  0  0  0  0  0
   -4.6933    8.8758  -23.8758 C   0  0  0  0  0  0  0  0  0  0  0  0
   -5.5564    8.1907  -24.8171 O   0  0  0  0  0  0  0  0  0  0  0  0
   -5.5032    6.7823  -24.4732 C   0  0  0  0  0  0  0  0  0  0  0  0
   -4.2459    6.6515  -23.6629 C   0  0  2  0  0  0  0  0  0  0  0  0
  1  2  2  0
  2  3  1  0
  3  4  1  0
  4  5  1  0
  5  6  2  0
  5  7  1  0
  7  8  1  0
  8  9  2  0
  9 10  1  0
 10 11  1  0
 11 12  1  0
 12 13  1  0
  7 14  1  0
 14 15  2  0
 15 16  1  0
 16 17  2  0
 17 18  1  0
 18 19  2  0
  2 20  1  0
 21 20  1  1
 21 22  1  0
 23 22  1  1
 23 24  1  0
 24 25  1  0
 25 26  1  0
 27 26  1  1
 19  4  1  0
 27 21  1  0
 13  8  1  0
 19 14  1  0
 27 23  1  0
M  END
>  <energy_score>  (2250) 
-4.607498

>  <alias>  (2250) 
None

>  <HIPPO Pose ID>  (2250) 
73995

>  <smiles>  (2250) 
O=C(Cn1c(=O)n(C2=CCCCC2)c2ccccc21)N[C@@H]1C[C@H]2COC[C@@H]21

>  <inchikey>  (2250) 
GNCGXDGKPJXHMO-BHYGNILZSA-N

>  <distance_score>  (2250) 
1.658765

>  <ref_mols>  (2250) 
Z0101a,Z4245a

>  <ref_pdb>  (2250) 
Z4245a

>  <HIPPO Compound ID>  (2250) 
146969

>  <name>  (2250) 
P73995

>  <inspiration_score>  (2250) 
None

$$$$
P73997
     RDKit          3D

 27 31  0  0  0  0  0  0  0  0999 V2000
   -5.3290    3.1278  -21.6524 O   0  0  0  0  0  0  0  0  0  0  0  0
   -5.8521    4.0231  -21.1157 C   0  0  0  0  0  0  0  0  0  0  0  0
   -6.8643    3.7888  -19.9633 C   0  0  0  0  0  0  0  0  0  0  0  0
   -6.5461    4.5579  -18.7906 N   0  0  0  0  0  0  0  0  0  0  0  0
   -5.2146    4.8386  -18.4285 C   0  0  0  0  0  0  0  0  0  0  0  0
   -4.2594    4.7071  -19.1759 O   0  0  0  0  0  0  0  0  0  0  0  0
   -5.2128    5.2953  -17.0804 N   0  0  0  0  0  0  0  0  0  0  0  0
   -4.0970    5.8349  -16.4349 C   0  0  0  0  0  0  0  0  0  0  0  0
   -4.1928    6.5519  -15.3008 C   0  0  0  0  0  0  0  0  0  0  0  0
   -3.0266    7.0667  -14.5076 C   0  0  0  0  0  0  0  0  0  0  0  0
   -1.7127    6.3975  -14.8908 C   0  0  0  0  0  0  0  0  0  0  0  0
   -1.5647    6.3838  -16.4012 C   0  0  0  0  0  0  0  0  0  0  0  0
   -2.7289    5.6511  -17.0789 C   0  0  0  0  0  0  0  0  0  0  0  0
   -6.5037    4.9908  -16.5729 C   0  0  0  0  0  0  0  0  0  0  0  0
   -6.9637    4.9408  -15.2709 C   0  0  0  0  0  0  0  0  0  0  0  0
   -8.2613    4.4825  -15.0508 C   0  0  0  0  0  0  0  0  0  0  0  0
   -9.0646    4.0750  -16.1256 C   0  0  0  0  0  0  0  0  0  0  0  0
   -8.5956    4.0916  -17.4354 C   0  0  0  0  0  0  0  0  0  0  0  0
   -7.3095    4.5445  -17.6252 C   0  0  0  0  0  0  0  0  0  0  0  0
   -5.6949    5.5495  -21.3262 N   0  0  0  0  0  0  0  0  0  0  0  0
   -4.8150    6.2718  -22.1526 C   0  0  1  0  0  0  0  0  0  0  0  0
   -3.4118    6.6146  -21.6711 C   0  0  1  0  0  0  0  0  0  0  0  0
   -2.1421    6.0497  -21.1289 C   0  0  0  0  0  0  0  0  0  0  0  0
   -1.0666    6.2459  -22.2351 C   0  0  0  0  0  0  0  0  0  0  0  0
   -1.5261    5.7940  -23.6468 C   0  0  0  0  0  0  0  0  0  0  0  0
   -2.9127    6.1144  -23.9166 O   0  0  0  0  0  0  0  0  0  0  0  0
   -3.6847    5.6354  -22.8155 C   0  0  2  0  0  0  0  0  0  0  0  0
  1  2  2  0
  2  3  1  0
  3  4  1  0
  4  5  1  0
  5  6  2  0
  5  7  1  0
  7  8  1  0
  8  9  2  0
  9 10  1  0
 10 11  1  0
 11 12  1  0
 12 13  1  0
  7 14  1  0
 14 15  2  0
 15 16  1  0
 16 17  2  0
 17 18  1  0
 18 19  2  0
  2 20  1  0
 21 20  1  1
 21 22  1  0
 22 23  1  1
 23 24  1  0
 24 25  1  0
 25 26  1  0
 27 26  1  6
 19  4  1  0
 27 21  1  0
 13  8  1  0
 19 14  1  0
 27 22  1  0
M  END
>  <energy_score>  (2251) 
-2.234443

>  <alias>  (2251) 
None

>  <HIPPO Pose ID>  (2251) 
73997

>  <smiles>  (2251) 
O=C(Cn1c(=O)n(C2=CCCCC2)c2ccccc21)N[C@H]1[C@H]2CCCO[C@@H]21

>  <inchikey>  (2251) 
FTSKWFYZLWFLNO-XPGWFJOJSA-N

>  <distance_score>  (2251) 
1.637145

>  <ref_mols>  (2251) 
Z0101a,Z4245a

>  <ref_pdb>  (2251) 
Z4245a

>  <HIPPO Compound ID>  (2251) 
146970

>  <name>  (2251) 
P73997

>  <inspiration_score>  (2251) 
None

$$$$
P74001
     RDKit          3D

 27 30  0  0  0  0  0  0  0  0999 V2000
   -6.4313    7.3829  -18.3891 O   0  0  0  0  0  0  0  0  0  0  0  0
   -6.4708    6.6208  -19.2709 C   0  0  0  0  0  0  0  0  0  0  0  0
   -7.1963    5.2033  -19.1855 C   0  0  0  0  0  0  0  0  0  0  0  0
   -6.5963    4.4884  -18.1162 N   0  0  0  0  0  0  0  0  0  0  0  0
   -5.1895    4.5961  -18.0941 C   0  0  0  0  0  0  0  0  0  0  0  0
   -4.5185    4.5544  -19.1191 O   0  0  0  0  0  0  0  0  0  0  0  0
   -4.8222    4.9132  -16.7406 N   0  0  0  0  0  0  0  0  0  0  0  0
   -3.5763    5.4262  -16.3676 C   0  0  0  0  0  0  0  0  0  0  0  0
   -2.4867    5.3560  -17.1602 C   0  0  0  0  0  0  0  0  0  0  0  0
   -1.1602    6.0023  -16.8748 C   0  0  0  0  0  0  0  0  0  0  0  0
   -0.9964    6.4308  -15.4233 C   0  0  0  0  0  0  0  0  0  0  0  0
   -2.2615    7.1211  -14.9428 C   0  0  0  0  0  0  0  0  0  0  0  0
   -3.4686    6.1841  -15.0557 C   0  0  0  0  0  0  0  0  0  0  0  0
   -6.0241    4.8021  -15.9720 C   0  0  0  0  0  0  0  0  0  0  0  0
   -6.2610    4.8566  -14.6148 C   0  0  0  0  0  0  0  0  0  0  0  0
   -7.5685    4.6506  -14.1556 C   0  0  0  0  0  0  0  0  0  0  0  0
   -8.6204    4.4031  -15.0488 C   0  0  0  0  0  0  0  0  0  0  0  0
   -8.3951    4.3691  -16.4166 C   0  0  0  0  0  0  0  0  0  0  0  0
   -7.0910    4.5575  -16.8297 C   0  0  0  0  0  0  0  0  0  0  0  0
   -5.8032    6.6650  -20.6608 N   0  0  0  0  0  0  0  0  0  0  0  0
   -4.8785    7.6020  -21.2174 C   0  0  0  0  0  0  0  0  0  0  0  0
   -3.6375    6.8658  -21.7649 C   0  0  2  0  0  0  0  0  0  0  0  0
   -3.9845    5.5296  -22.4343 C   0  0  0  0  0  0  0  0  0  0  0  0
   -5.1445    5.6769  -23.2531 O   0  0  0  0  0  0  0  0  0  0  0  0
   -2.5789    6.6872  -20.7107 C   0  0  0  0  0  0  0  0  0  0  0  0
   -1.4810    7.7145  -20.5755 C   0  0  0  0  0  0  0  0  0  0  0  0
   -1.1597    6.3350  -21.0764 C   0  0  0  0  0  0  0  0  0  0  0  0
  1  2  2  0
  2  3  1  0
  3  4  1  0
  4  5  1  0
  5  6  2  0
  5  7  1  0
  7  8  1  0
  8  9  2  0
  9 10  1  0
 10 11  1  0
 11 12  1  0
 12 13  1  0
  7 14  1  0
 14 15  2  0
 15 16  1  0
 16 17  2  0
 17 18  1  0
 18 19  2  0
  2 20  1  0
 20 21  1  0
 22 21  1  1
 22 23  1  0
 23 24  1  0
 22 25  1  0
 25 26  1  0
 26 27  1  0
 19  4  1  0
 27 25  1  0
 13  8  1  0
 19 14  1  0
M  END
>  <energy_score>  (2252) 
-6.801859

>  <alias>  (2252) 
None

>  <HIPPO Pose ID>  (2252) 
74001

>  <smiles>  (2252) 
O=C(Cn1c(=O)n(C2=CCCCC2)c2ccccc21)NC[C@H](CO)C1CC1

>  <inchikey>  (2252) 
SCLBOJDBZFODDD-MRXNPFEDSA-N

>  <distance_score>  (2252) 
1.566714

>  <ref_mols>  (2252) 
Z0101a,Z4245a

>  <ref_pdb>  (2252) 
Z4245a

>  <HIPPO Compound ID>  (2252) 
146971

>  <name>  (2252) 
P74001

>  <inspiration_score>  (2252) 
None

$$$$
P74003
     RDKit          3D

 27 30  0  0  0  0  0  0  0  0999 V2000
   -6.5145    7.4367  -18.7374 O   0  0  0  0  0  0  0  0  0  0  0  0
   -6.4398    6.5222  -19.4609 C   0  0  0  0  0  0  0  0  0  0  0  0
   -7.1855    5.1338  -19.2260 C   0  0  0  0  0  0  0  0  0  0  0  0
   -6.5835    4.5170  -18.1032 N   0  0  0  0  0  0  0  0  0  0  0  0
   -5.1835    4.6290  -18.0371 C   0  0  0  0  0  0  0  0  0  0  0  0
   -4.4780    4.5213  -19.0325 O   0  0  0  0  0  0  0  0  0  0  0  0
   -4.8670    4.9927  -16.6844 N   0  0  0  0  0  0  0  0  0  0  0  0
   -3.6367    5.5263  -16.2886 C   0  0  0  0  0  0  0  0  0  0  0  0
   -3.4491    6.1552  -15.1099 C   0  0  0  0  0  0  0  0  0  0  0  0
   -2.1504    6.7321  -14.6280 C   0  0  0  0  0  0  0  0  0  0  0  0
   -0.9470    6.2300  -15.4099 C   0  0  0  0  0  0  0  0  0  0  0  0
   -1.2303    6.2796  -16.9003 C   0  0  0  0  0  0  0  0  0  0  0  0
   -2.4891    5.4911  -17.2846 C   0  0  0  0  0  0  0  0  0  0  0  0
   -6.0801    4.8313  -15.9453 C   0  0  0  0  0  0  0  0  0  0  0  0
   -6.3422    4.8229  -14.5918 C   0  0  0  0  0  0  0  0  0  0  0  0
   -7.6548    4.5852  -14.1681 C   0  0  0  0  0  0  0  0  0  0  0  0
   -8.6831    4.3583  -15.0933 C   0  0  0  0  0  0  0  0  0  0  0  0
   -8.4295    4.3652  -16.4567 C   0  0  0  0  0  0  0  0  0  0  0  0
   -7.1207    4.5839  -16.8348 C   0  0  0  0  0  0  0  0  0  0  0  0
   -5.5774    6.3158  -20.7338 N   0  0  0  0  0  0  0  0  0  0  0  0
   -4.5663    7.1495  -21.3200 C   0  0  0  0  0  0  0  0  0  0  0  0
   -3.2582    6.3875  -21.5882 C   0  0  2  0  0  0  0  0  0  0  0  0
   -2.6507    6.0331  -20.4357 F   0  0  0  0  0  0  0  0  0  0  0  0
   -2.3074    7.2151  -22.4298 C   0  0  0  0  0  0  0  0  0  0  0  0
   -2.7857    6.9403  -23.8425 C   0  0  0  0  0  0  0  0  0  0  0  0
   -3.4945    5.6887  -23.8184 O   0  0  0  0  0  0  0  0  0  0  0  0
   -3.4255    5.1764  -22.4786 C   0  0  0  0  0  0  0  0  0  0  0  0
  1  2  2  0
  2  3  1  0
  3  4  1  0
  4  5  1  0
  5  6  2  0
  5  7  1  0
  7  8  1  0
  8  9  2  0
  9 10  1  0
 10 11  1  0
 11 12  1  0
 12 13  1  0
  7 14  1  0
 14 15  2  0
 15 16  1  0
 16 17  2  0
 17 18  1  0
 18 19  2  0
  2 20  1  0
 20 21  1  0
 21 22  1  0
 22 23  1  1
 22 24  1  0
 24 25  1  0
 25 26  1  0
 26 27  1  0
 19  4  1  0
 27 22  1  0
 13  8  1  0
 19 14  1  0
M  END
>  <energy_score>  (2253) 
-15.917327

>  <alias>  (2253) 
None

>  <HIPPO Pose ID>  (2253) 
74003

>  <smiles>  (2253) 
O=C(Cn1c(=O)n(C2=CCCCC2)c2ccccc21)NC[C@]1(F)CCOC1

>  <inchikey>  (2253) 
VDHIRVPMAZIOSC-HXUWFJFHSA-N

>  <distance_score>  (2253) 
1.566408

>  <ref_mols>  (2253) 
Z0101a,Z4245a

>  <ref_pdb>  (2253) 
Z4245a

>  <HIPPO Compound ID>  (2253) 
146972

>  <name>  (2253) 
P74003

>  <inspiration_score>  (2253) 
None

$$$$
P74005
     RDKit          3D

 27 29  0  0  0  0  0  0  0  0999 V2000
   -5.3373    8.1002  -21.5153 C   0  0  0  0  0  0  0  0  0  0  0  0
   -4.6037    6.9656  -20.7996 C   0  0  1  0  0  0  0  0  0  0  0  0
   -5.5539    6.0476  -20.2207 N   0  0  0  0  0  0  0  0  0  0  0  0
   -6.0368    4.6476  -20.7100 C   0  0  0  0  0  0  0  0  0  0  0  0
   -5.7941    4.0632  -21.6959 O   0  0  0  0  0  0  0  0  0  0  0  0
   -6.9236    4.0235  -19.5959 C   0  0  0  0  0  0  0  0  0  0  0  0
   -6.5767    4.5302  -18.2972 N   0  0  0  0  0  0  0  0  0  0  0  0
   -5.2486    4.6524  -17.8632 C   0  0  0  0  0  0  0  0  0  0  0  0
   -4.2806    4.4411  -18.5735 O   0  0  0  0  0  0  0  0  0  0  0  0
   -5.2676    5.0604  -16.4980 N   0  0  0  0  0  0  0  0  0  0  0  0
   -4.1327    5.4668  -15.7927 C   0  0  0  0  0  0  0  0  0  0  0  0
   -3.0589    5.9753  -16.4326 C   0  0  0  0  0  0  0  0  0  0  0  0
   -1.7959    6.4485  -15.7727 C   0  0  0  0  0  0  0  0  0  0  0  0
   -1.9027    6.5637  -14.2564 C   0  0  0  0  0  0  0  0  0  0  0  0
   -2.6857    5.3928  -13.6846 C   0  0  0  0  0  0  0  0  0  0  0  0
   -4.0944    5.3395  -14.2855 C   0  0  0  0  0  0  0  0  0  0  0  0
   -6.5964    4.8396  -16.0626 C   0  0  0  0  0  0  0  0  0  0  0  0
   -7.1505    4.8856  -14.8038 C   0  0  0  0  0  0  0  0  0  0  0  0
   -8.4652    4.4601  -14.6650 C   0  0  0  0  0  0  0  0  0  0  0  0
   -9.2016    4.0480  -15.7841 C   0  0  0  0  0  0  0  0  0  0  0  0
   -8.6836    4.0803  -17.0672 C   0  0  0  0  0  0  0  0  0  0  0  0
   -7.3772    4.4772  -17.1701 C   0  0  0  0  0  0  0  0  0  0  0  0
   -3.3847    6.3332  -21.5364 C   0  0  0  0  0  0  0  0  0  0  0  0
   -2.5831    5.3444  -20.6597 C   0  0  0  0  0  0  0  0  0  0  0  0
   -2.4070    7.4877  -21.8424 C   0  0  0  0  0  0  0  0  0  0  0  0
   -3.6913    5.6081  -22.8575 C   0  0  0  0  0  0  0  0  0  0  0  0
   -4.9037    6.0231  -23.4640 O   0  0  0  0  0  0  0  0  0  0  0  0
  2  1  1  6
  2  3  1  0
  3  4  1  0
  4  5  2  0
  4  6  1  0
  6  7  1  0
  7  8  1  0
  8  9  2  0
  8 10  1  0
 10 11  1  0
 11 12  2  0
 12 13  1  0
 13 14  1  0
 14 15  1  0
 15 16  1  0
 10 17  1  0
 17 18  2  0
 18 19  1  0
 19 20  2  0
 20 21  1  0
 21 22  2  0
  2 23  1  0
 23 24  1  0
 23 25  1  0
 23 26  1  0
 26 27  1  0
 22  7  1  0
 16 11  1  0
 22 17  1  0
M  END
>  <energy_score>  (2254) 
-6.444393

>  <alias>  (2254) 
None

>  <HIPPO Pose ID>  (2254) 
74005

>  <smiles>  (2254) 
C[C@@H](NC(=O)Cn1c(=O)n(C2=CCCCC2)c2ccccc21)C(C)(C)CO

>  <inchikey>  (2254) 
XSKKYFRZZUMIDM-OAHLLOKOSA-N

>  <distance_score>  (2254) 
1.514967

>  <ref_mols>  (2254) 
Z0101a,Z4245a

>  <ref_pdb>  (2254) 
Z4245a

>  <HIPPO Compound ID>  (2254) 
146973

>  <name>  (2254) 
P74005

>  <inspiration_score>  (2254) 
None

$$$$
P74007
     RDKit          3D

 27 30  0  0  0  0  0  0  0  0999 V2000
   -2.8508    6.8936  -20.8463 C   0  0  0  0  0  0  0  0  0  0  0  0
   -3.1618    5.6926  -21.7337 C   0  0  1  0  0  0  0  0  0  0  0  0
   -4.3794    5.0741  -21.2543 N   0  0  0  0  0  0  0  0  0  0  0  0
   -4.7369    4.5060  -19.8580 C   0  0  0  0  0  0  0  0  0  0  0  0
   -4.0788    4.3793  -18.9017 O   0  0  0  0  0  0  0  0  0  0  0  0
   -6.2815    4.1912  -19.8799 C   0  0  0  0  0  0  0  0  0  0  0  0
   -6.9447    5.1034  -18.9736 N   0  0  0  0  0  0  0  0  0  0  0  0
   -6.2465    6.3368  -18.8698 C   0  0  0  0  0  0  0  0  0  0  0  0
   -5.9215    7.0140  -19.8383 O   0  0  0  0  0  0  0  0  0  0  0  0
   -5.8690    6.4801  -17.4916 N   0  0  0  0  0  0  0  0  0  0  0  0
   -4.9200    7.3881  -17.0407 C   0  0  0  0  0  0  0  0  0  0  0  0
   -4.1765    7.1758  -15.9367 C   0  0  0  0  0  0  0  0  0  0  0  0
   -3.1320    8.1181  -15.4115 C   0  0  0  0  0  0  0  0  0  0  0  0
   -2.7747    9.2414  -16.3807 C   0  0  0  0  0  0  0  0  0  0  0  0
   -4.0208    9.7774  -17.0700 C   0  0  0  0  0  0  0  0  0  0  0  0
   -4.7296    8.6618  -17.8426 C   0  0  0  0  0  0  0  0  0  0  0  0
   -6.5899    5.4958  -16.7696 C   0  0  0  0  0  0  0  0  0  0  0  0
   -6.8081    5.3600  -15.4114 C   0  0  0  0  0  0  0  0  0  0  0  0
   -7.7741    4.4435  -14.9979 C   0  0  0  0  0  0  0  0  0  0  0  0
   -8.4930    3.6921  -15.9414 C   0  0  0  0  0  0  0  0  0  0  0  0
   -8.2306    3.7892  -17.3053 C   0  0  0  0  0  0  0  0  0  0  0  0
   -7.2641    4.6929  -17.6804 C   0  0  0  0  0  0  0  0  0  0  0  0
   -3.4621    6.1191  -23.1835 C   0  0  0  0  0  0  0  0  0  0  0  0
   -4.9093    6.1814  -23.4163 O   0  0  0  0  0  0  0  0  0  0  0  0
   -2.6455    5.2968  -24.2201 C   0  0  0  0  0  0  0  0  0  0  0  0
   -1.6739    6.3636  -24.3549 O   0  0  0  0  0  0  0  0  0  0  0  0
   -2.6410    7.2923  -23.8030 C   0  0  0  0  0  0  0  0  0  0  0  0
  2  1  1  1
  2  3  1  0
  3  4  1  0
  4  5  2  0
  4  6  1  0
  6  7  1  0
  7  8  1  0
  8  9  2  0
  8 10  1  0
 10 11  1  0
 11 12  2  0
 12 13  1  0
 13 14  1  0
 14 15  1  0
 15 16  1  0
 10 17  1  0
 17 18  2  0
 18 19  1  0
 19 20  2  0
 20 21  1  0
 21 22  2  0
  2 23  1  0
 23 24  1  0
 23 25  1  0
 25 26  1  0
 26 27  1  0
 22  7  1  0
 27 23  1  0
 16 11  1  0
 22 17  1  0
M  END
>  <energy_score>  (2255) 
-19.746328

>  <alias>  (2255) 
None

>  <HIPPO Pose ID>  (2255) 
74007

>  <smiles>  (2255) 
C[C@@H](NC(=O)Cn1c(=O)n(C2=CCCCC2)c2ccccc21)C1(O)COC1

>  <inchikey>  (2255) 
BEFITKOAZJXTEE-CQSZACIVSA-N

>  <distance_score>  (2255) 
1.480081

>  <ref_mols>  (2255) 
Z0101a,Z4245a

>  <ref_pdb>  (2255) 
Z4245a

>  <HIPPO Compound ID>  (2255) 
146975

>  <name>  (2255) 
P74007

>  <inspiration_score>  (2255) 
None

$$$$
P74008
     RDKit          3D

 27 29  0  0  0  0  0  0  0  0999 V2000
   -5.6105    6.6521  -23.6630 C   0  0  0  0  0  0  0  0  0  0  0  0
   -4.2994    6.1499  -23.8372 O   0  0  0  0  0  0  0  0  0  0  0  0
   -3.7516    5.4351  -22.7237 C   0  0  0  0  0  0  0  0  0  0  0  0
   -3.1622    6.3634  -21.6452 C   0  0  1  0  0  0  0  0  0  0  0  0
   -2.2179    5.5452  -20.7608 C   0  0  0  0  0  0  0  0  0  0  0  0
   -2.3456    7.3485  -22.3161 O   0  0  0  0  0  0  0  0  0  0  0  0
   -4.2126    7.1306  -20.8254 C   0  0  0  0  0  0  0  0  0  0  0  0
   -5.3104    6.3153  -20.3948 N   0  0  0  0  0  0  0  0  0  0  0  0
   -6.4081    6.5855  -19.3439 C   0  0  0  0  0  0  0  0  0  0  0  0
   -6.6364    7.5426  -18.7200 O   0  0  0  0  0  0  0  0  0  0  0  0
   -7.1695    5.1944  -19.1655 C   0  0  0  0  0  0  0  0  0  0  0  0
   -6.6100    4.5092  -18.0547 N   0  0  0  0  0  0  0  0  0  0  0  0
   -5.2101    4.5694  -17.9785 C   0  0  0  0  0  0  0  0  0  0  0  0
   -4.5085    4.4231  -18.9707 O   0  0  0  0  0  0  0  0  0  0  0  0
   -4.8774    4.9403  -16.6378 N   0  0  0  0  0  0  0  0  0  0  0  0
   -3.6436    5.4701  -16.2491 C   0  0  0  0  0  0  0  0  0  0  0  0
   -2.5483    5.4297  -17.0349 C   0  0  0  0  0  0  0  0  0  0  0  0
   -1.2322    6.0920  -16.7365 C   0  0  0  0  0  0  0  0  0  0  0  0
   -1.0873    6.5164  -15.2819 C   0  0  0  0  0  0  0  0  0  0  0  0
   -2.3677    7.1801  -14.8051 C   0  0  0  0  0  0  0  0  0  0  0  0
   -3.5585    6.2236  -14.9323 C   0  0  0  0  0  0  0  0  0  0  0  0
   -6.0945    4.8395  -15.8989 C   0  0  0  0  0  0  0  0  0  0  0  0
   -6.3549    4.8865  -14.5470 C   0  0  0  0  0  0  0  0  0  0  0  0
   -7.6671    4.6626  -14.1174 C   0  0  0  0  0  0  0  0  0  0  0  0
   -8.6960    4.4095  -15.0359 C   0  0  0  0  0  0  0  0  0  0  0  0
   -8.4494    4.3946  -16.4005 C   0  0  0  0  0  0  0  0  0  0  0  0
   -7.1410    4.5975  -16.7845 C   0  0  0  0  0  0  0  0  0  0  0  0
  1  2  1  0
  2  3  1  0
  3  4  1  0
  4  5  1  1
  4  6  1  0
  4  7  1  0
  7  8  1  0
  8  9  1  0
  9 10  2  0
  9 11  1  0
 11 12  1  0
 12 13  1  0
 13 14  2  0
 13 15  1  0
 15 16  1  0
 16 17  2  0
 17 18  1  0
 18 19  1  0
 19 20  1  0
 20 21  1  0
 15 22  1  0
 22 23  2  0
 23 24  1  0
 24 25  2  0
 25 26  1  0
 26 27  2  0
 27 12  1  0
 21 16  1  0
 27 22  1  0
M  END
>  <energy_score>  (2256) 
-20.494167

>  <alias>  (2256) 
None

>  <HIPPO Pose ID>  (2256) 
74008

>  <smiles>  (2256) 
COC[C@@](C)(O)CNC(=O)Cn1c(=O)n(C2=CCCCC2)c2ccccc21

>  <inchikey>  (2256) 
ZUHVGMIDMOAHBD-FQEVSTJZSA-N

>  <distance_score>  (2256) 
1.543593

>  <ref_mols>  (2256) 
Z0101a,Z4245a

>  <ref_pdb>  (2256) 
Z4245a

>  <HIPPO Compound ID>  (2256) 
146976

>  <name>  (2256) 
P74008

>  <inspiration_score>  (2256) 
None

$$$$
P74009
     RDKit          3D

 27 29  0  0  0  0  0  0  0  0999 V2000
   -3.0406    8.2197  -23.5584 C   0  0  0  0  0  0  0  0  0  0  0  0
   -2.3515    7.3913  -22.4796 C   0  0  0  0  0  0  0  0  0  0  0  0
   -3.2369    6.3580  -21.7120 C   0  0  2  0  0  0  0  0  0  0  0  0
   -2.2718    5.5173  -20.8439 C   0  0  0  0  0  0  0  0  0  0  0  0
   -3.9282    5.3883  -22.6868 C   0  0  0  0  0  0  0  0  0  0  0  0
   -5.0991    5.9335  -23.2853 O   0  0  0  0  0  0  0  0  0  0  0  0
   -4.2457    7.1231  -20.8352 C   0  0  0  0  0  0  0  0  0  0  0  0
   -5.3317    6.2993  -20.3915 N   0  0  0  0  0  0  0  0  0  0  0  0
   -6.4274    6.5669  -19.3376 C   0  0  0  0  0  0  0  0  0  0  0  0
   -6.6636    7.5272  -18.7220 O   0  0  0  0  0  0  0  0  0  0  0  0
   -7.1807    5.1739  -19.1492 C   0  0  0  0  0  0  0  0  0  0  0  0
   -6.6152    4.5045  -18.0331 N   0  0  0  0  0  0  0  0  0  0  0  0
   -5.2169    4.5664  -17.9627 C   0  0  0  0  0  0  0  0  0  0  0  0
   -4.5188    4.4144  -18.9557 O   0  0  0  0  0  0  0  0  0  0  0  0
   -4.8766    4.9419  -16.6262 N   0  0  0  0  0  0  0  0  0  0  0  0
   -3.6376    5.4670  -16.2453 C   0  0  0  0  0  0  0  0  0  0  0  0
   -2.5532    5.4452  -17.0477 C   0  0  0  0  0  0  0  0  0  0  0  0
   -1.2303    6.0931  -16.7501 C   0  0  0  0  0  0  0  0  0  0  0  0
   -1.0643    6.4792  -15.2871 C   0  0  0  0  0  0  0  0  0  0  0  0
   -2.3348    7.1371  -14.7772 C   0  0  0  0  0  0  0  0  0  0  0  0
   -3.5333    6.1915  -14.9138 C   0  0  0  0  0  0  0  0  0  0  0  0
   -6.0908    4.8417  -15.8810 C   0  0  0  0  0  0  0  0  0  0  0  0
   -6.3464    4.8916  -14.5284 C   0  0  0  0  0  0  0  0  0  0  0  0
   -7.6577    4.6717  -14.0938 C   0  0  0  0  0  0  0  0  0  0  0  0
   -8.6909    4.4207  -15.0079 C   0  0  0  0  0  0  0  0  0  0  0  0
   -8.4496    4.4024  -16.3733 C   0  0  0  0  0  0  0  0  0  0  0  0
   -7.1419    4.5992  -16.7620 C   0  0  0  0  0  0  0  0  0  0  0  0
  1  2  1  0
  3  2  1  0
  3  4  1  1
  3  5  1  0
  5  6  1  0
  3  7  1  0
  7  8  1  0
  8  9  1  0
  9 10  2  0
  9 11  1  0
 11 12  1  0
 12 13  1  0
 13 14  2  0
 13 15  1  0
 15 16  1  0
 16 17  2  0
 17 18  1  0
 18 19  1  0
 19 20  1  0
 20 21  1  0
 15 22  1  0
 22 23  2  0
 23 24  1  0
 24 25  2  0
 25 26  1  0
 26 27  2  0
 27 12  1  0
 21 16  1  0
 27 22  1  0
M  END
>  <energy_score>  (2257) 
-30.644522

>  <alias>  (2257) 
None

>  <HIPPO Pose ID>  (2257) 
74009

>  <smiles>  (2257) 
CC[C@](C)(CO)CNC(=O)Cn1c(=O)n(C2=CCCCC2)c2ccccc21

>  <inchikey>  (2257) 
XEURCDXTPSTZIG-NRFANRHFSA-N

>  <distance_score>  (2257) 
1.505857

>  <ref_mols>  (2257) 
Z0101a,Z4245a

>  <ref_pdb>  (2257) 
Z4245a

>  <HIPPO Compound ID>  (2257) 
146979

>  <name>  (2257) 
P74009

>  <inspiration_score>  (2257) 
None

$$$$
P74011
     RDKit          3D

 27 29  0  0  0  0  0  0  0  0999 V2000
   -2.3848    7.0753  -19.4685 C   0  0  0  0  0  0  0  0  0  0  0  0
   -2.3987    6.3150  -20.7933 C   0  0  0  0  0  0  0  0  0  0  0  0
   -2.1403    4.8221  -20.6252 C   0  0  0  0  0  0  0  0  0  0  0  0
   -3.5942    6.6959  -21.7111 C   0  0  1  0  0  0  0  0  0  0  0  0
   -3.7507    5.7591  -22.9094 C   0  0  0  0  0  0  0  0  0  0  0  0
   -4.9515    6.0359  -23.6216 O   0  0  0  0  0  0  0  0  0  0  0  0
   -4.9222    7.1170  -21.0661 C   0  0  0  0  0  0  0  0  0  0  0  0
   -5.6802    6.1175  -20.3800 N   0  0  0  0  0  0  0  0  0  0  0  0
   -6.0263    4.6532  -20.7868 C   0  0  0  0  0  0  0  0  0  0  0  0
   -5.8085    4.0700  -21.7786 O   0  0  0  0  0  0  0  0  0  0  0  0
   -6.8727    4.0086  -19.6573 C   0  0  0  0  0  0  0  0  0  0  0  0
   -6.5376    4.5294  -18.3682 N   0  0  0  0  0  0  0  0  0  0  0  0
   -5.2101    4.6714  -17.9425 C   0  0  0  0  0  0  0  0  0  0  0  0
   -4.2587    4.5198  -18.6878 O   0  0  0  0  0  0  0  0  0  0  0  0
   -5.2326    5.0851  -16.5832 N   0  0  0  0  0  0  0  0  0  0  0  0
   -4.1473    5.6150  -15.8840 C   0  0  0  0  0  0  0  0  0  0  0  0
   -2.8696    5.5034  -16.3012 C   0  0  0  0  0  0  0  0  0  0  0  0
   -1.6785    6.1423  -15.6407 C   0  0  0  0  0  0  0  0  0  0  0  0
   -1.9746    6.7536  -14.2770 C   0  0  0  0  0  0  0  0  0  0  0  0
   -3.3256    7.4475  -14.2893 C   0  0  0  0  0  0  0  0  0  0  0  0
   -4.4293    6.4471  -14.6435 C   0  0  0  0  0  0  0  0  0  0  0  0
   -6.5637    4.8623  -16.1464 C   0  0  0  0  0  0  0  0  0  0  0  0
   -7.0888    4.8303  -14.8728 C   0  0  0  0  0  0  0  0  0  0  0  0
   -8.4072    4.4148  -14.7278 C   0  0  0  0  0  0  0  0  0  0  0  0
   -9.1660    4.0521  -15.8496 C   0  0  0  0  0  0  0  0  0  0  0  0
   -8.6539    4.1004  -17.1367 C   0  0  0  0  0  0  0  0  0  0  0  0
   -7.3460    4.4962  -17.2467 C   0  0  0  0  0  0  0  0  0  0  0  0
  1  2  1  0
  2  3  1  0
  2  4  1  0
  4  5  1  6
  5  6  1  0
  4  7  1  0
  7  8  1  0
  8  9  1  0
  9 10  2  0
  9 11  1  0
 11 12  1  0
 12 13  1  0
 13 14  2  0
 13 15  1  0
 15 16  1  0
 16 17  2  0
 17 18  1  0
 18 19  1  0
 19 20  1  0
 20 21  1  0
 15 22  1  0
 22 23  2  0
 23 24  1  0
 24 25  2  0
 25 26  1  0
 26 27  2  0
 27 12  1  0
 21 16  1  0
 27 22  1  0
M  END
>  <energy_score>  (2258) 
-7.065731

>  <alias>  (2258) 
None

>  <HIPPO Pose ID>  (2258) 
74011

>  <smiles>  (2258) 
CC(C)[C@@H](CO)CNC(=O)Cn1c(=O)n(C2=CCCCC2)c2ccccc21

>  <inchikey>  (2258) 
ZJPYQOFAJONAOG-MRXNPFEDSA-N

>  <distance_score>  (2258) 
1.494982

>  <ref_mols>  (2258) 
Z0101a,Z4245a

>  <ref_pdb>  (2258) 
Z4245a

>  <HIPPO Compound ID>  (2258) 
146980

>  <name>  (2258) 
P74011

>  <inspiration_score>  (2258) 
None

$$$$
P74012
     RDKit          3D

 27 30  0  0  0  0  0  0  0  0999 V2000
   -6.5529    7.3978  -18.5446 O   0  0  0  0  0  0  0  0  0  0  0  0
   -6.4983    6.5476  -19.3415 C   0  0  0  0  0  0  0  0  0  0  0  0
   -7.2412    5.1427  -19.1933 C   0  0  0  0  0  0  0  0  0  0  0  0
   -6.6097    4.4550  -18.1244 N   0  0  0  0  0  0  0  0  0  0  0  0
   -5.2039    4.5715  -18.1295 C   0  0  0  0  0  0  0  0  0  0  0  0
   -4.5523    4.5221  -19.1695 O   0  0  0  0  0  0  0  0  0  0  0  0
   -4.8117    4.9215  -16.7961 N   0  0  0  0  0  0  0  0  0  0  0  0
   -3.5656    5.4631  -16.4706 C   0  0  0  0  0  0  0  0  0  0  0  0
   -2.4871    5.3519  -17.2734 C   0  0  0  0  0  0  0  0  0  0  0  0
   -1.1624    6.0279  -17.0553 C   0  0  0  0  0  0  0  0  0  0  0  0
   -0.9894    6.5789  -15.6462 C   0  0  0  0  0  0  0  0  0  0  0  0
   -2.2630    7.2751  -15.1957 C   0  0  0  0  0  0  0  0  0  0  0  0
   -3.4486    6.3044  -15.2117 C   0  0  0  0  0  0  0  0  0  0  0  0
   -5.9954    4.8240  -15.9999 C   0  0  0  0  0  0  0  0  0  0  0  0
   -6.2014    4.9111  -14.6401 C   0  0  0  0  0  0  0  0  0  0  0  0
   -7.4987    4.7119  -14.1484 C   0  0  0  0  0  0  0  0  0  0  0  0
   -8.5706    4.4407  -15.0119 C   0  0  0  0  0  0  0  0  0  0  0  0
   -8.3741    4.3732  -16.3833 C   0  0  0  0  0  0  0  0  0  0  0  0
   -7.0791    4.5534  -16.8289 C   0  0  0  0  0  0  0  0  0  0  0  0
   -5.6741    6.4492  -20.6469 N   0  0  0  0  0  0  0  0  0  0  0  0
   -4.6790    7.3315  -21.1908 C   0  0  0  0  0  0  0  0  0  0  0  0
   -3.4439    6.5346  -21.6609 C   0  0  1  0  0  0  0  0  0  0  0  0
   -2.7863    5.8991  -20.5759 O   0  0  0  0  0  0  0  0  0  0  0  0
   -3.7587    5.5137  -22.7346 C   0  0  0  0  0  0  0  0  0  0  0  0
   -3.8957    6.3778  -23.9680 C   0  0  0  0  0  0  0  0  0  0  0  0
   -3.0306    7.5112  -23.7793 O   0  0  0  0  0  0  0  0  0  0  0  0
   -2.5046    7.4500  -22.4382 C   0  0  0  0  0  0  0  0  0  0  0  0
  1  2  2  0
  2  3  1  0
  3  4  1  0
  4  5  1  0
  5  6  2  0
  5  7  1  0
  7  8  1  0
  8  9  2  0
  9 10  1  0
 10 11  1  0
 11 12  1  0
 12 13  1  0
  7 14  1  0
 14 15  2  0
 15 16  1  0
 16 17  2  0
 17 18  1  0
 18 19  2  0
  2 20  1  0
 20 21  1  0
 21 22  1  0
 22 23  1  1
 22 24  1  0
 24 25  1  0
 25 26  1  0
 26 27  1  0
 19  4  1  0
 27 22  1  0
 13  8  1  0
 19 14  1  0
M  END
>  <energy_score>  (2259) 
-15.964768

>  <alias>  (2259) 
None

>  <HIPPO Pose ID>  (2259) 
74012

>  <smiles>  (2259) 
O=C(Cn1c(=O)n(C2=CCCCC2)c2ccccc21)NC[C@@]1(O)CCOC1

>  <inchikey>  (2259) 
RMEPNBVAJHASCW-FQEVSTJZSA-N

>  <distance_score>  (2259) 
1.541853

>  <ref_mols>  (2259) 
Z0101a,Z4245a

>  <ref_pdb>  (2259) 
Z4245a

>  <HIPPO Compound ID>  (2259) 
146981

>  <name>  (2259) 
P74012

>  <inspiration_score>  (2259) 
None

$$$$
P74013
     RDKit          3D

 27 30  0  0  0  0  0  0  0  0999 V2000
   -3.0230    7.1391  -21.3811 C   0  0  0  0  0  0  0  0  0  0  0  0
   -3.5865    6.1192  -22.3722 C   0  0  1  0  0  0  0  0  0  0  0  0
   -4.5879    5.3188  -21.7131 N   0  0  0  0  0  0  0  0  0  0  0  0
   -5.7130    5.7272  -20.7102 C   0  0  0  0  0  0  0  0  0  0  0  0
   -6.0430    6.7856  -20.3299 O   0  0  0  0  0  0  0  0  0  0  0  0
   -6.3199    4.3825  -20.1617 C   0  0  0  0  0  0  0  0  0  0  0  0
   -6.1671    4.4820  -18.7585 N   0  0  0  0  0  0  0  0  0  0  0  0
   -4.9045    4.7359  -18.2384 C   0  0  0  0  0  0  0  0  0  0  0  0
   -3.8999    4.6837  -18.9364 O   0  0  0  0  0  0  0  0  0  0  0  0
   -5.0640    5.0588  -16.8587 N   0  0  0  0  0  0  0  0  0  0  0  0
   -4.0258    5.5565  -16.0670 C   0  0  0  0  0  0  0  0  0  0  0  0
   -4.1925    6.0197  -14.8120 C   0  0  0  0  0  0  0  0  0  0  0  0
   -3.0862    6.4733  -13.9031 C   0  0  0  0  0  0  0  0  0  0  0  0
   -1.7090    6.0326  -14.3794 C   0  0  0  0  0  0  0  0  0  0  0  0
   -1.5578    6.3350  -15.8582 C   0  0  0  0  0  0  0  0  0  0  0  0
   -2.6359    5.6322  -16.6908 C   0  0  0  0  0  0  0  0  0  0  0  0
   -6.4344    4.7785  -16.5554 C   0  0  0  0  0  0  0  0  0  0  0  0
   -7.1104    4.6994  -15.3540 C   0  0  0  0  0  0  0  0  0  0  0  0
   -8.4697    4.3756  -15.3767 C   0  0  0  0  0  0  0  0  0  0  0  0
   -9.1326    4.1348  -16.5898 C   0  0  0  0  0  0  0  0  0  0  0  0
   -8.4494    4.1711  -17.8009 C   0  0  0  0  0  0  0  0  0  0  0  0
   -7.1066    4.4725  -17.7466 C   0  0  0  0  0  0  0  0  0  0  0  0
   -4.1596    6.7082  -23.6567 C   0  0  2  0  0  0  0  0  0  0  0  0
   -3.2870    7.6989  -24.4024 C   0  0  0  0  0  0  0  0  0  0  0  0
   -4.2833    8.3196  -25.3606 C   0  0  0  0  0  0  0  0  0  0  0  0
   -5.5514    8.3245  -24.6906 O   0  0  0  0  0  0  0  0  0  0  0  0
   -5.4486    7.4989  -23.5139 C   0  0  0  0  0  0  0  0  0  0  0  0
  2  1  1  1
  2  3  1  0
  3  4  1  0
  4  5  2  0
  4  6  1  0
  6  7  1  0
  7  8  1  0
  8  9  2  0
  8 10  1  0
 10 11  1  0
 11 12  2  0
 12 13  1  0
 13 14  1  0
 14 15  1  0
 15 16  1  0
 10 17  1  0
 17 18  2  0
 18 19  1  0
 19 20  2  0
 20 21  1  0
 21 22  2  0
  2 23  1  0
 23 24  1  1
 24 25  1  0
 25 26  1  0
 26 27  1  0
 22  7  1  0
 27 23  1  0
 16 11  1  0
 22 17  1  0
M  END
>  <energy_score>  (2260) 
-21.592127

>  <alias>  (2260) 
None

>  <HIPPO Pose ID>  (2260) 
74013

>  <smiles>  (2260) 
C[C@@H](NC(=O)Cn1c(=O)n(C2=CCCCC2)c2ccccc21)[C@@H]1CCOC1

>  <inchikey>  (2260) 
SRBXBKBCTIUWIU-HZPDHXFCSA-N

>  <distance_score>  (2260) 
1.664131

>  <ref_mols>  (2260) 
Z0101a,Z4245a

>  <ref_pdb>  (2260) 
Z4245a

>  <HIPPO Compound ID>  (2260) 
146992

>  <name>  (2260) 
P74013

>  <inspiration_score>  (2260) 
None

$$$$
P74019
     RDKit          3D

 27 30  0  0  0  0  0  0  0  0999 V2000
   -5.4225    7.0510  -23.8011 C   0  0  0  0  0  0  0  0  0  0  0  0
   -4.9643    5.8815  -23.1309 O   0  0  0  0  0  0  0  0  0  0  0  0
   -3.5377    5.7377  -23.1946 C   0  0  0  0  0  0  0  0  0  0  0  0
   -2.8519    6.5853  -22.1275 C   0  0  2  0  0  0  0  0  0  0  0  0
   -1.3593    6.2583  -21.9033 C   0  0  0  0  0  0  0  0  0  0  0  0
   -1.7876    5.3146  -20.7636 C   0  0  0  0  0  0  0  0  0  0  0  0
   -3.0653    6.1549  -20.6636 C   0  0  2  0  0  0  0  0  0  0  0  0
   -4.2902    5.4317  -20.4868 N   0  0  0  0  0  0  0  0  0  0  0  0
   -4.7737    4.5534  -19.3172 C   0  0  0  0  0  0  0  0  0  0  0  0
   -4.2229    4.2173  -18.3491 O   0  0  0  0  0  0  0  0  0  0  0  0
   -6.2922    4.2468  -19.6219 C   0  0  0  0  0  0  0  0  0  0  0  0
   -7.0998    5.1547  -18.8265 N   0  0  0  0  0  0  0  0  0  0  0  0
   -6.4331    6.4177  -18.7572 C   0  0  0  0  0  0  0  0  0  0  0  0
   -6.1897    7.1168  -19.7329 O   0  0  0  0  0  0  0  0  0  0  0  0
   -5.9429    6.5434  -17.4076 N   0  0  0  0  0  0  0  0  0  0  0  0
   -4.9425    7.4295  -17.0286 C   0  0  0  0  0  0  0  0  0  0  0  0
   -4.1195    7.1920  -15.9881 C   0  0  0  0  0  0  0  0  0  0  0  0
   -3.0079    8.1005  -15.5498 C   0  0  0  0  0  0  0  0  0  0  0  0
   -2.6899    9.2063  -16.5523 C   0  0  0  0  0  0  0  0  0  0  0  0
   -3.9681    9.7879  -17.1379 C   0  0  0  0  0  0  0  0  0  0  0  0
   -4.7825    8.6999  -17.8431 C   0  0  0  0  0  0  0  0  0  0  0  0
   -6.6156    5.5586  -16.6417 C   0  0  0  0  0  0  0  0  0  0  0  0
   -6.7442    5.4141  -15.2749 C   0  0  0  0  0  0  0  0  0  0  0  0
   -7.6873    4.4985  -14.8095 C   0  0  0  0  0  0  0  0  0  0  0  0
   -8.4683    3.7570  -15.7114 C   0  0  0  0  0  0  0  0  0  0  0  0
   -8.2947    3.8603  -17.0859 C   0  0  0  0  0  0  0  0  0  0  0  0
   -7.3519    4.7643  -17.5097 C   0  0  0  0  0  0  0  0  0  0  0  0
  1  2  1  0
  2  3  1  0
  4  3  1  6
  4  5  1  0
  5  6  1  0
  6  7  1  0
  7  8  1  6
  8  9  1  0
  9 10  2  0
  9 11  1  0
 11 12  1  0
 12 13  1  0
 13 14  2  0
 13 15  1  0
 15 16  1  0
 16 17  2  0
 17 18  1  0
 18 19  1  0
 19 20  1  0
 20 21  1  0
 15 22  1  0
 22 23  2  0
 23 24  1  0
 24 25  2  0
 25 26  1  0
 26 27  2  0
  7  4  1  0
 27 12  1  0
 21 16  1  0
 27 22  1  0
M  END
>  <energy_score>  (2261) 
-30.709291

>  <alias>  (2261) 
None

>  <HIPPO Pose ID>  (2261) 
74019

>  <smiles>  (2261) 
COC[C@@H]1CC[C@@H]1NC(=O)Cn1c(=O)n(C2=CCCCC2)c2ccccc21

>  <inchikey>  (2261) 
FDLZRROYBVZGSA-RDJZCZTQSA-N

>  <distance_score>  (2261) 
1.671865

>  <ref_mols>  (2261) 
Z0101a,Z4245a

>  <ref_pdb>  (2261) 
Z4245a

>  <HIPPO Compound ID>  (2261) 
146995

>  <name>  (2261) 
P74019

>  <inspiration_score>  (2261) 
None

$$$$
P74030
     RDKit          3D

 20 23  0  0  0  0  0  0  0  0999 V2000
   -8.6663    5.3440  -12.9111 O   0  0  0  0  0  0  0  0  0  0  0  0
   -7.6244    4.8338  -12.7905 C   0  0  0  0  0  0  0  0  0  0  0  0
   -7.1863    3.6542  -11.8991 N   0  0  0  0  0  0  0  0  0  0  0  0
   -7.9303    2.9004  -10.8778 C   0  0  1  0  0  0  0  0  0  0  0  0
   -7.0779    2.3721   -9.7037 C   0  0  0  0  0  0  0  0  0  0  0  0
   -8.1605    2.8591   -8.7242 C   0  0  0  0  0  0  0  0  0  0  0  0
   -8.6744    3.7807   -9.8298 C   0  0  1  0  0  0  0  0  0  0  0  0
   -8.2888    5.1716   -9.7317 O   0  0  0  0  0  0  0  0  0  0  0  0
   -6.4364    5.4444  -13.5313 C   0  0  0  0  0  0  0  0  0  0  0  0
   -6.2140    5.0894  -14.9951 N   0  0  0  0  0  0  0  0  0  0  0  0
   -5.0443    5.3500  -15.6750 C   0  0  0  0  0  0  0  0  0  0  0  0
   -5.1753    5.2185  -16.9741 N   0  0  0  0  0  0  0  0  0  0  0  0
   -6.4798    4.8326  -17.1466 C   0  0  0  0  0  0  0  0  0  0  0  0
   -7.1535    4.5530  -18.3394 C   0  0  0  0  0  0  0  0  0  0  0  0
   -8.5003    4.2000  -18.2777 C   0  0  0  0  0  0  0  0  0  0  0  0
   -9.1665    4.1270  -17.0632 C   0  0  0  0  0  0  0  0  0  0  0  0
   -8.5074    4.3786  -15.8612 C   0  0  0  0  0  0  0  0  0  0  0  0
   -7.1603    4.7427  -15.9263 C   0  0  0  0  0  0  0  0  0  0  0  0
   -6.2122    6.9220  -13.1718 C   0  0  0  0  0  0  0  0  0  0  0  0
   -5.2796    5.8926  -12.6267 C   0  0  0  0  0  0  0  0  0  0  0  0
  1  2  2  0
  2  3  1  0
  4  3  1  6
  4  5  1  0
  5  6  1  0
  6  7  1  0
  7  8  1  1
  2  9  1  0
  9 10  1  0
 10 11  1  0
 11 12  2  0
 12 13  1  0
 13 14  2  0
 14 15  1  0
 15 16  2  0
 16 17  1  0
 17 18  2  0
  9 19  1  0
 19 20  1  0
  7  4  1  0
 20  9  1  0
 18 10  1  0
 18 13  1  0
M  END
>  <energy_score>  (2262) 
-7.437464

>  <alias>  (2262) 
None

>  <HIPPO Pose ID>  (2262) 
74030

>  <smiles>  (2262) 
O=C(N[C@H]1CC[C@H]1O)C1(n2cnc3ccccc32)CC1

>  <inchikey>  (2262) 
MQUBXTQJRGFFOE-WCQYABFASA-N

>  <distance_score>  (2262) 
1.703505

>  <ref_mols>  (2262) 
Z0101a,Z3880a

>  <ref_pdb>  (2262) 
Z3880a

>  <HIPPO Compound ID>  (2262) 
147113

>  <name>  (2262) 
P74030

>  <inspiration_score>  (2262) 
None

$$$$
P74032
     RDKit          3D

 21 24  0  0  0  0  0  0  0  0999 V2000
   -7.6108    5.6768   -9.0054 C   0  0  0  0  0  0  0  0  0  0  0  0
   -7.7933    4.3525   -9.0937 C   0  0  0  0  0  0  0  0  0  0  0  0
   -8.6498    3.5563   -8.1544 C   0  0  0  0  0  0  0  0  0  0  0  0
   -9.1823    2.4734   -8.9271 O   0  0  0  0  0  0  0  0  0  0  0  0
   -8.6972    2.6348  -10.2767 C   0  0  0  0  0  0  0  0  0  0  0  0
   -7.3875    3.4003  -10.1787 C   0  0  1  0  0  0  0  0  0  0  0  0
   -6.8696    4.0720  -11.3562 N   0  0  0  0  0  0  0  0  0  0  0  0
   -7.6054    4.7397  -12.5310 C   0  0  0  0  0  0  0  0  0  0  0  0
   -8.7413    4.7894  -12.7791 O   0  0  0  0  0  0  0  0  0  0  0  0
   -6.6415    5.5343  -13.4304 C   0  0  0  0  0  0  0  0  0  0  0  0
   -6.3165    5.0189  -14.8312 N   0  0  0  0  0  0  0  0  0  0  0  0
   -5.0949    5.2047  -15.4419 C   0  0  0  0  0  0  0  0  0  0  0  0
   -5.1636    5.1070  -16.7510 N   0  0  0  0  0  0  0  0  0  0  0  0
   -6.4746    4.7842  -17.0010 C   0  0  0  0  0  0  0  0  0  0  0  0
   -7.0992    4.5389  -18.2302 C   0  0  0  0  0  0  0  0  0  0  0  0
   -8.4577    4.2223  -18.2389 C   0  0  0  0  0  0  0  0  0  0  0  0
   -9.1870    4.1721  -17.0595 C   0  0  0  0  0  0  0  0  0  0  0  0
   -8.5843    4.4182  -15.8268 C   0  0  0  0  0  0  0  0  0  0  0  0
   -7.2218    4.7200  -15.8199 C   0  0  0  0  0  0  0  0  0  0  0  0
   -6.9094    7.0488  -13.3567 C   0  0  0  0  0  0  0  0  0  0  0  0
   -5.6844    6.4999  -12.7110 C   0  0  0  0  0  0  0  0  0  0  0  0
  1  2  2  0
  2  3  1  0
  3  4  1  0
  4  5  1  0
  5  6  1  0
  6  7  1  6
  7  8  1  0
  8  9  2  0
  8 10  1  0
 10 11  1  0
 11 12  1  0
 12 13  2  0
 13 14  1  0
 14 15  2  0
 15 16  1  0
 16 17  2  0
 17 18  1  0
 18 19  2  0
 10 20  1  0
 20 21  1  0
  6  2  1  0
 21 10  1  0
 19 11  1  0
 19 14  1  0
M  END
>  <energy_score>  (2263) 
-3.004308

>  <alias>  (2263) 
None

>  <HIPPO Pose ID>  (2263) 
74032

>  <smiles>  (2263) 
C=C1COC[C@H]1NC(=O)C1(n2cnc3ccccc32)CC1

>  <inchikey>  (2263) 
VDERDMRYUNEPSX-CYBMUJFWSA-N

>  <distance_score>  (2263) 
1.527422

>  <ref_mols>  (2263) 
Z0101a,Z3880a

>  <ref_pdb>  (2263) 
Z3880a

>  <HIPPO Compound ID>  (2263) 
147115

>  <name>  (2263) 
P74032

>  <inspiration_score>  (2263) 
None

$$$$
P74034
     RDKit          3D

 21 25  0  0  0  0  0  0  0  0999 V2000
   -8.6990    4.8364  -12.7850 O   0  0  0  0  0  0  0  0  0  0  0  0
   -7.5614    4.8514  -12.5324 C   0  0  0  0  0  0  0  0  0  0  0  0
   -6.8027    4.3124  -11.3000 N   0  0  0  0  0  0  0  0  0  0  0  0
   -7.2924    3.7329  -10.0889 C   0  0  2  0  0  0  0  0  0  0  0  0
   -7.6042    2.2546  -10.0117 C   0  0  0  0  0  0  0  0  0  0  0  0
   -8.4226    2.0646   -8.8402 O   0  0  0  0  0  0  0  0  0  0  0  0
   -9.1468    3.2762   -8.6280 C   0  0  0  0  0  0  0  0  0  0  0  0
   -8.3195    4.3656   -9.2229 C   0  0  1  0  0  0  0  0  0  0  0  0
   -6.8868    4.4884   -8.8264 C   0  0  0  0  0  0  0  0  0  0  0  0
   -6.6109    5.5974  -13.4828 C   0  0  0  0  0  0  0  0  0  0  0  0
   -6.2927    5.0252  -14.8591 N   0  0  0  0  0  0  0  0  0  0  0  0
   -5.0737    5.1963  -15.4789 C   0  0  0  0  0  0  0  0  0  0  0  0
   -5.1524    5.0898  -16.7862 N   0  0  0  0  0  0  0  0  0  0  0  0
   -6.4667    4.7722  -17.0250 C   0  0  0  0  0  0  0  0  0  0  0  0
   -7.1017    4.5235  -18.2478 C   0  0  0  0  0  0  0  0  0  0  0  0
   -8.4620    4.2142  -18.2438 C   0  0  0  0  0  0  0  0  0  0  0  0
   -9.1825    4.1722  -17.0583 C   0  0  0  0  0  0  0  0  0  0  0  0
   -8.5693    4.4219  -15.8315 C   0  0  0  0  0  0  0  0  0  0  0  0
   -7.2056    4.7187  -15.8383 C   0  0  0  0  0  0  0  0  0  0  0  0
   -6.8799    7.1140  -13.4793 C   0  0  0  0  0  0  0  0  0  0  0  0
   -5.6558    6.5997  -12.8058 C   0  0  0  0  0  0  0  0  0  0  0  0
  1  2  2  0
  2  3  1  0
  4  3  1  6
  4  5  1  0
  5  6  1  0
  6  7  1  0
  8  7  1  1
  8  9  1  0
  2 10  1  0
 10 11  1  0
 11 12  1  0
 12 13  2  0
 13 14  1  0
 14 15  2  0
 15 16  1  0
 16 17  2  0
 17 18  1  0
 18 19  2  0
 10 20  1  0
 20 21  1  0
  8  4  1  0
 21 10  1  0
  9  4  1  0
 19 11  1  0
 19 14  1  0
M  END
>  <energy_score>  (2264) 
-21.629092

>  <alias>  (2264) 
None

>  <HIPPO Pose ID>  (2264) 
74034

>  <smiles>  (2264) 
O=C(N[C@]12COC[C@H]1C2)C1(n2cnc3ccccc32)CC1

>  <inchikey>  (2264) 
NKKSGBWHYDIUTE-IAQYHMDHSA-N

>  <distance_score>  (2264) 
1.602004

>  <ref_mols>  (2264) 
Z0101a,Z3880a

>  <ref_pdb>  (2264) 
Z3880a

>  <HIPPO Compound ID>  (2264) 
147116

>  <name>  (2264) 
P74034

>  <inspiration_score>  (2264) 
None

$$$$
P74036
     RDKit          3D

 21 24  0  0  0  0  0  0  0  0999 V2000
   -7.9116    3.9926   -7.4010 C   0  0  0  0  0  0  0  0  0  0  0  0
   -8.1172    4.1719   -8.9019 C   0  0  0  0  0  0  0  0  0  0  0  0
   -8.2195    5.6520   -9.2538 C   0  0  0  0  0  0  0  0  0  0  0  0
   -9.3298    3.4678   -9.2578 O   0  0  0  0  0  0  0  0  0  0  0  0
   -8.5850    2.4707   -9.9936 C   0  0  0  0  0  0  0  0  0  0  0  0
   -7.2854    3.2842   -9.9042 C   0  0  1  0  0  0  0  0  0  0  0  0
   -6.7911    3.9983  -11.1240 N   0  0  0  0  0  0  0  0  0  0  0  0
   -7.5455    4.4508  -12.3999 C   0  0  0  0  0  0  0  0  0  0  0  0
   -8.6482    4.2686  -12.7292 O   0  0  0  0  0  0  0  0  0  0  0  0
   -6.6839    5.3698  -13.2963 C   0  0  0  0  0  0  0  0  0  0  0  0
   -6.3404    4.9313  -14.7217 N   0  0  0  0  0  0  0  0  0  0  0  0
   -5.1103    5.1429  -15.3047 C   0  0  0  0  0  0  0  0  0  0  0  0
   -5.1564    5.0849  -16.6174 N   0  0  0  0  0  0  0  0  0  0  0  0
   -6.4643    4.7758  -16.9029 C   0  0  0  0  0  0  0  0  0  0  0  0
   -7.0680    4.5621  -18.1496 C   0  0  0  0  0  0  0  0  0  0  0  0
   -8.4289    4.2562  -18.1911 C   0  0  0  0  0  0  0  0  0  0  0  0
   -9.1824    4.1981  -17.0269 C   0  0  0  0  0  0  0  0  0  0  0  0
   -8.6024    4.4215  -15.7785 C   0  0  0  0  0  0  0  0  0  0  0  0
   -7.2340    4.6910  -15.7379 C   0  0  0  0  0  0  0  0  0  0  0  0
   -5.8274    6.4293  -12.5877 C   0  0  0  0  0  0  0  0  0  0  0  0
   -7.1215    6.8481  -13.1867 C   0  0  0  0  0  0  0  0  0  0  0  0
  1  2  1  0
  2  3  1  0
  2  4  1  0
  4  5  1  0
  5  6  1  0
  6  7  1  6
  7  8  1  0
  8  9  2  0
  8 10  1  0
 10 11  1  0
 11 12  1  0
 12 13  2  0
 13 14  1  0
 14 15  2  0
 15 16  1  0
 16 17  2  0
 17 18  1  0
 18 19  2  0
 10 20  1  0
 20 21  1  0
  6  2  1  0
 21 10  1  0
 19 11  1  0
 19 14  1  0
M  END
>  <energy_score>  (2265) 
-20.235251

>  <alias>  (2265) 
None

>  <HIPPO Pose ID>  (2265) 
74036

>  <smiles>  (2265) 
CC1(C)OC[C@H]1NC(=O)C1(n2cnc3ccccc32)CC1

>  <inchikey>  (2265) 
TWNWZXVYDPVXMF-CYBMUJFWSA-N

>  <distance_score>  (2265) 
1.557112

>  <ref_mols>  (2265) 
Z0101a,Z3880a

>  <ref_pdb>  (2265) 
Z3880a

>  <HIPPO Compound ID>  (2265) 
147117

>  <name>  (2265) 
P74036

>  <inspiration_score>  (2265) 
None

$$$$
P74038
     RDKit          3D

 21 24  0  0  0  0  0  0  0  0999 V2000
   -6.7728    4.2147   -8.6437 C   0  0  0  0  0  0  0  0  0  0  0  0
   -8.1901    4.1982   -9.1759 C   0  0  2  0  0  0  0  0  0  0  0  0
   -8.7767    5.4803   -8.8731 O   0  0  0  0  0  0  0  0  0  0  0  0
   -8.9604    2.9390   -8.6798 C   0  0  0  0  0  0  0  0  0  0  0  0
   -8.6010    2.2734  -10.0265 C   0  0  0  0  0  0  0  0  0  0  0  0
   -8.4870    3.6768  -10.6330 C   0  0  2  0  0  0  0  0  0  0  0  0
   -7.4792    3.9218  -11.6659 N   0  0  0  0  0  0  0  0  0  0  0  0
   -7.3122    5.1112  -12.6481 C   0  0  0  0  0  0  0  0  0  0  0  0
   -7.9960    6.0390  -12.8356 O   0  0  0  0  0  0  0  0  0  0  0  0
   -5.9742    5.0698  -13.3990 C   0  0  0  0  0  0  0  0  0  0  0  0
   -6.0089    5.1457  -14.9313 N   0  0  0  0  0  0  0  0  0  0  0  0
   -4.9355    5.5223  -15.7098 C   0  0  0  0  0  0  0  0  0  0  0  0
   -5.1923    5.4535  -16.9945 N   0  0  0  0  0  0  0  0  0  0  0  0
   -6.4816    4.9923  -17.0581 C   0  0  0  0  0  0  0  0  0  0  0  0
   -7.2499    4.7229  -18.1959 C   0  0  0  0  0  0  0  0  0  0  0  0
   -8.5653    4.2983  -18.0265 C   0  0  0  0  0  0  0  0  0  0  0  0
   -9.0983    4.1342  -16.7530 C   0  0  0  0  0  0  0  0  0  0  0  0
   -8.3388    4.3550  -15.6017 C   0  0  0  0  0  0  0  0  0  0  0  0
   -7.0282    4.8000  -15.7823 C   0  0  0  0  0  0  0  0  0  0  0  0
   -4.7450    4.4410  -12.7432 C   0  0  0  0  0  0  0  0  0  0  0  0
   -4.9230    5.9208  -12.6566 C   0  0  0  0  0  0  0  0  0  0  0  0
  2  1  1  1
  2  3  1  0
  2  4  1  0
  4  5  1  0
  5  6  1  0
  6  7  1  6
  7  8  1  0
  8  9  2  0
  8 10  1  0
 10 11  1  0
 11 12  1  0
 12 13  2  0
 13 14  1  0
 14 15  2  0
 15 16  1  0
 16 17  2  0
 17 18  1  0
 18 19  2  0
 10 20  1  0
 20 21  1  0
  6  2  1  0
 21 10  1  0
 19 11  1  0
 19 14  1  0
M  END
>  <energy_score>  (2266) 
-1.169282

>  <alias>  (2266) 
None

>  <HIPPO Pose ID>  (2266) 
74038

>  <smiles>  (2266) 
C[C@]1(O)CC[C@@H]1NC(=O)C1(n2cnc3ccccc32)CC1

>  <inchikey>  (2266) 
PVFMNSSVNGATLA-ZFWWWQNUSA-N

>  <distance_score>  (2266) 
1.551018

>  <ref_mols>  (2266) 
Z0101a,Z3880a

>  <ref_pdb>  (2266) 
Z3880a

>  <HIPPO Compound ID>  (2266) 
147118

>  <name>  (2266) 
P74038

>  <inspiration_score>  (2266) 
None

$$$$
P74042
     RDKit          3D

 21 24  0  0  0  0  0  0  0  0999 V2000
   -7.3029    5.3578   -8.8143 O   0  0  0  0  0  0  0  0  0  0  0  0
   -7.7213    4.2054   -8.8895 C   0  0  0  0  0  0  0  0  0  0  0  0
   -8.6918    3.6140   -7.9182 C   0  0  0  0  0  0  0  0  0  0  0  0
   -9.4060    2.7182   -8.7732 O   0  0  0  0  0  0  0  0  0  0  0  0
   -8.4659    2.1884   -9.7273 C   0  0  0  0  0  0  0  0  0  0  0  0
   -7.3735    3.2237   -9.9855 C   0  0  1  0  0  0  0  0  0  0  0  0
   -7.3871    3.9504  -11.2490 N   0  0  0  0  0  0  0  0  0  0  0  0
   -6.2393    4.2697  -12.2371 C   0  0  0  0  0  0  0  0  0  0  0  0
   -5.1221    3.9346  -12.2313 O   0  0  0  0  0  0  0  0  0  0  0  0
   -6.6593    5.2680  -13.3242 C   0  0  0  0  0  0  0  0  0  0  0  0
   -6.2750    4.9305  -14.7533 N   0  0  0  0  0  0  0  0  0  0  0  0
   -5.0780    5.2477  -15.3459 C   0  0  0  0  0  0  0  0  0  0  0  0
   -5.1538    5.2045  -16.6607 N   0  0  0  0  0  0  0  0  0  0  0  0
   -6.4495    4.8207  -16.9244 C   0  0  0  0  0  0  0  0  0  0  0  0
   -7.0881    4.6194  -18.1543 C   0  0  0  0  0  0  0  0  0  0  0  0
   -8.4404    4.2667  -18.1533 C   0  0  0  0  0  0  0  0  0  0  0  0
   -9.1470    4.1259  -16.9630 C   0  0  0  0  0  0  0  0  0  0  0  0
   -8.5263    4.2991  -15.7273 C   0  0  0  0  0  0  0  0  0  0  0  0
   -7.1760    4.6481  -15.7451 C   0  0  0  0  0  0  0  0  0  0  0  0
   -7.8155    6.2477  -13.0756 C   0  0  0  0  0  0  0  0  0  0  0  0
   -6.4188    6.7318  -12.9000 C   0  0  0  0  0  0  0  0  0  0  0  0
  1  2  2  0
  2  3  1  0
  3  4  1  0
  4  5  1  0
  5  6  1  0
  6  7  1  6
  7  8  1  0
  8  9  2  0
  8 10  1  0
 10 11  1  0
 11 12  1  0
 12 13  2  0
 13 14  1  0
 14 15  2  0
 15 16  1  0
 16 17  2  0
 17 18  1  0
 18 19  2  0
 10 20  1  0
 20 21  1  0
  6  2  1  0
 21 10  1  0
 19 11  1  0
 19 14  1  0
M  END
>  <energy_score>  (2267) 
-2.261144

>  <alias>  (2267) 
None

>  <HIPPO Pose ID>  (2267) 
74042

>  <smiles>  (2267) 
O=C1COC[C@H]1NC(=O)C1(n2cnc3ccccc32)CC1

>  <inchikey>  (2267) 
ZCJZIMXWOOTTGD-LLVKDONJSA-N

>  <distance_score>  (2267) 
1.570918

>  <ref_mols>  (2267) 
Z0101a,Z3880a

>  <ref_pdb>  (2267) 
Z3880a

>  <HIPPO Compound ID>  (2267) 
147119

>  <name>  (2267) 
P74042

>  <inspiration_score>  (2267) 
None

$$$$
P74047
     RDKit          3D

 21 24  0  0  0  0  0  0  0  0999 V2000
   -7.9392    6.0318   -9.5065 C   0  0  0  0  0  0  0  0  0  0  0  0
   -8.4667    4.6300   -9.3187 C   0  0  2  0  0  0  0  0  0  0  0  0
   -7.5343    3.6791   -8.5524 C   0  0  0  0  0  0  0  0  0  0  0  0
   -8.1560    2.5205   -9.3688 C   0  0  1  0  0  0  0  0  0  0  0  0
   -9.2768    1.8837   -8.7047 O   0  0  0  0  0  0  0  0  0  0  0  0
   -8.4928    3.5802  -10.4849 C   0  0  2  0  0  0  0  0  0  0  0  0
   -7.4947    3.8632  -11.5389 N   0  0  0  0  0  0  0  0  0  0  0  0
   -7.4789    4.9547  -12.6483 C   0  0  0  0  0  0  0  0  0  0  0  0
   -8.2882    5.7450  -12.9446 O   0  0  0  0  0  0  0  0  0  0  0  0
   -6.1243    5.0342  -13.3792 C   0  0  0  0  0  0  0  0  0  0  0  0
   -6.0959    5.0138  -14.9166 N   0  0  0  0  0  0  0  0  0  0  0  0
   -4.9849    5.3568  -15.6617 C   0  0  0  0  0  0  0  0  0  0  0  0
   -5.2041    5.3168  -16.9541 N   0  0  0  0  0  0  0  0  0  0  0  0
   -6.5055    4.9034  -17.0610 C   0  0  0  0  0  0  0  0  0  0  0  0
   -7.2458    4.6784  -18.2264 C   0  0  0  0  0  0  0  0  0  0  0  0
   -8.5784    4.2949  -18.1053 C   0  0  0  0  0  0  0  0  0  0  0  0
   -9.1578    4.1293  -16.8541 C   0  0  0  0  0  0  0  0  0  0  0  0
   -8.4279    4.3086  -15.6775 C   0  0  0  0  0  0  0  0  0  0  0  0
   -7.0980    4.7128  -15.8047 C   0  0  0  0  0  0  0  0  0  0  0  0
   -5.2421    6.1122  -12.7099 C   0  0  0  0  0  0  0  0  0  0  0  0
   -4.8461    4.6786  -12.6096 C   0  0  0  0  0  0  0  0  0  0  0  0
  2  1  1  6
  2  3  1  0
  3  4  1  0
  4  5  1  1
  4  6  1  0
  6  7  1  6
  7  8  1  0
  8  9  2  0
  8 10  1  0
 10 11  1  0
 11 12  1  0
 12 13  2  0
 13 14  1  0
 14 15  2  0
 15 16  1  0
 16 17  2  0
 17 18  1  0
 18 19  2  0
 10 20  1  0
 20 21  1  0
  6  2  1  0
 21 10  1  0
 19 11  1  0
 19 14  1  0
M  END
>  <energy_score>  (2268) 
-11.071825

>  <alias>  (2268) 
None

>  <HIPPO Pose ID>  (2268) 
74047

>  <smiles>  (2268) 
C[C@@H]1C[C@@H](O)[C@@H]1NC(=O)C1(n2cnc3ccccc32)CC1

>  <inchikey>  (2268) 
WJVCVJDLNLDXHH-LERXQTSPSA-N

>  <distance_score>  (2268) 
1.522594

>  <ref_mols>  (2268) 
Z0101a,Z3880a

>  <ref_pdb>  (2268) 
Z3880a

>  <HIPPO Compound ID>  (2268) 
147121

>  <name>  (2268) 
P74047

>  <inspiration_score>  (2268) 
None

$$$$
P74049
     RDKit          3D

 21 25  0  0  0  0  0  0  0  0999 V2000
   -6.1319    6.6236  -13.1572 O   0  0  0  0  0  0  0  0  0  0  0  0
   -6.8894    5.7343  -13.1545 C   0  0  0  0  0  0  0  0  0  0  0  0
   -7.6322    5.0460  -11.9713 N   0  0  0  0  0  0  0  0  0  0  0  0
   -7.6646    5.3759  -10.5651 C   0  0  2  0  0  0  0  0  0  0  0  0
   -6.3252    5.6462   -9.8765 C   0  0  0  0  0  0  0  0  0  0  0  0
   -6.7011    4.7437   -8.8070 O   0  0  0  0  0  0  0  0  0  0  0  0
   -7.6908    4.1890   -9.6764 C   0  0  0  0  0  0  0  0  0  0  0  0
   -8.7940    3.3789   -9.1118 C   0  0  0  0  0  0  0  0  0  0  0  0
   -7.7066    2.7220   -9.9234 C   0  0  0  0  0  0  0  0  0  0  0  0
   -7.3611    5.1523  -14.5200 C   0  0  0  0  0  0  0  0  0  0  0  0
   -6.5578    5.4356  -15.7933 N   0  0  0  0  0  0  0  0  0  0  0  0
   -5.2863    5.9361  -15.8734 C   0  0  0  0  0  0  0  0  0  0  0  0
   -4.8032    5.8703  -17.0954 N   0  0  0  0  0  0  0  0  0  0  0  0
   -5.7736    5.2284  -17.8185 C   0  0  0  0  0  0  0  0  0  0  0  0
   -5.7250    4.7853  -19.1413 C   0  0  0  0  0  0  0  0  0  0  0  0
   -6.7966    4.0444  -19.6278 C   0  0  0  0  0  0  0  0  0  0  0  0
   -7.9556    3.8722  -18.8817 C   0  0  0  0  0  0  0  0  0  0  0  0
   -8.0559    4.3849  -17.6046 C   0  0  0  0  0  0  0  0  0  0  0  0
   -6.9183    4.9991  -17.0587 C   0  0  0  0  0  0  0  0  0  0  0  0
   -8.1229    3.8365  -14.5398 C   0  0  0  0  0  0  0  0  0  0  0  0
   -8.8928    5.1203  -14.5930 C   0  0  0  0  0  0  0  0  0  0  0  0
  1  2  2  0
  2  3  1  0
  4  3  1  6
  4  5  1  0
  5  6  1  0
  6  7  1  0
  7  8  1  0
  8  9  1  0
  2 10  1  0
 10 11  1  0
 11 12  1  0
 12 13  2  0
 13 14  1  0
 14 15  2  0
 15 16  1  0
 16 17  2  0
 17 18  1  0
 18 19  2  0
 10 20  1  0
 20 21  1  0
  7  4  1  0
 21 10  1  0
  9  7  1  0
 19 11  1  0
 19 14  1  0
M  END
>  <energy_score>  (2269) 
-32.945019

>  <alias>  (2269) 
None

>  <HIPPO Pose ID>  (2269) 
74049

>  <smiles>  (2269) 
O=C(N[C@@H]1COC12CC2)C1(n2cnc3ccccc32)CC1

>  <inchikey>  (2269) 
RKIFRYXSLSJHPR-CYBMUJFWSA-N

>  <distance_score>  (2269) 
1.62316

>  <ref_mols>  (2269) 
Z0101a,Z3880a

>  <ref_pdb>  (2269) 
Z3880a

>  <HIPPO Compound ID>  (2269) 
147127

>  <name>  (2269) 
P74049

>  <inspiration_score>  (2269) 
None

$$$$
P74055
     RDKit          3D

 21 24  0  0  0  0  0  0  0  0999 V2000
   -8.6656    4.5173  -12.7387 O   0  0  0  0  0  0  0  0  0  0  0  0
   -7.5428    4.6488  -12.4664 C   0  0  0  0  0  0  0  0  0  0  0  0
   -6.7571    4.1872  -11.2278 N   0  0  0  0  0  0  0  0  0  0  0  0
   -7.2135    3.5411  -10.0035 C   0  0  2  0  0  0  0  0  0  0  0  0
   -8.0482    2.2710  -10.0884 C   0  0  0  0  0  0  0  0  0  0  0  0
   -8.8585    2.2038   -8.8920 O   0  0  0  0  0  0  0  0  0  0  0  0
   -8.7163    3.4392   -8.1920 C   0  0  0  0  0  0  0  0  0  0  0  0
   -8.1579    4.4287   -9.1971 C   0  0  1  0  0  0  0  0  0  0  0  0
   -7.4985    5.5345   -8.5959 O   0  0  0  0  0  0  0  0  0  0  0  0
   -6.6673    5.4983  -13.4068 C   0  0  0  0  0  0  0  0  0  0  0  0
   -6.3197    4.9781  -14.7978 N   0  0  0  0  0  0  0  0  0  0  0  0
   -5.0934    5.1733  -15.3947 C   0  0  0  0  0  0  0  0  0  0  0  0
   -5.1506    5.0865  -16.7058 N   0  0  0  0  0  0  0  0  0  0  0  0
   -6.4612    4.7703  -16.9720 C   0  0  0  0  0  0  0  0  0  0  0  0
   -7.0790    4.5386  -18.2077 C   0  0  0  0  0  0  0  0  0  0  0  0
   -8.4401    4.2298  -18.2282 C   0  0  0  0  0  0  0  0  0  0  0  0
   -9.1797    4.1801  -17.0547 C   0  0  0  0  0  0  0  0  0  0  0  0
   -8.5849    4.4172  -15.8166 C   0  0  0  0  0  0  0  0  0  0  0  0
   -7.2186    4.7003  -15.7987 C   0  0  0  0  0  0  0  0  0  0  0  0
   -7.0819    6.9822  -13.3795 C   0  0  0  0  0  0  0  0  0  0  0  0
   -5.8012    6.5815  -12.7364 C   0  0  0  0  0  0  0  0  0  0  0  0
  1  2  2  0
  2  3  1  0
  4  3  1  6
  4  5  1  0
  5  6  1  0
  6  7  1  0
  7  8  1  0
  8  9  1  1
  2 10  1  0
 10 11  1  0
 11 12  1  0
 12 13  2  0
 13 14  1  0
 14 15  2  0
 15 16  1  0
 16 17  2  0
 17 18  1  0
 18 19  2  0
 10 20  1  0
 20 21  1  0
  8  4  1  0
 21 10  1  0
 19 11  1  0
 19 14  1  0
M  END
>  <energy_score>  (2270) 
-36.374277

>  <alias>  (2270) 
None

>  <HIPPO Pose ID>  (2270) 
74055

>  <smiles>  (2270) 
O=C(N[C@@H]1COC[C@H]1O)C1(n2cnc3ccccc32)CC1

>  <inchikey>  (2270) 
IFYWREHBJWBDLI-DGCLKSJQSA-N

>  <distance_score>  (2270) 
1.539347

>  <ref_mols>  (2270) 
Z0101a,Z3880a

>  <ref_pdb>  (2270) 
Z3880a

>  <HIPPO Compound ID>  (2270) 
147130

>  <name>  (2270) 
P74055

>  <inspiration_score>  (2270) 
None

$$$$
P74056
     RDKit          3D

 21 25  0  0  0  0  0  0  0  0999 V2000
   -2.8587    7.9300  -17.9466 O   0  0  0  0  0  0  0  0  0  0  0  0
   -3.7541    7.6672  -18.6644 C   0  0  0  0  0  0  0  0  0  0  0  0
   -4.6116    8.5625  -19.5209 N   0  0  0  0  0  0  0  0  0  0  0  0
   -4.6504   10.0762  -19.6431 C   0  0  2  0  0  0  0  0  0  0  0  0
   -5.9016   10.5197  -20.3925 C   0  0  0  0  0  0  0  0  0  0  0  0
   -5.8791   10.0951  -21.7621 O   0  0  0  0  0  0  0  0  0  0  0  0
   -5.1354    8.8839  -21.9750 C   0  0  0  0  0  0  0  0  0  0  0  0
   -4.0020    8.7404  -20.9597 C   0  0  1  0  0  0  0  0  0  0  0  0
   -3.3718   10.0240  -20.4566 C   0  0  0  0  0  0  0  0  0  0  0  0
   -4.2133    6.2173  -18.7115 C   0  0  0  0  0  0  0  0  0  0  0  0
   -4.9188    5.7825  -17.4629 N   0  0  0  0  0  0  0  0  0  0  0  0
   -4.3311    5.8258  -16.2329 C   0  0  0  0  0  0  0  0  0  0  0  0
   -5.1571    5.4412  -15.2867 N   0  0  0  0  0  0  0  0  0  0  0  0
   -6.3093    5.0813  -15.9473 C   0  0  0  0  0  0  0  0  0  0  0  0
   -7.5044    4.5651  -15.4214 C   0  0  0  0  0  0  0  0  0  0  0  0
   -8.5471    4.2435  -16.2960 C   0  0  0  0  0  0  0  0  0  0  0  0
   -8.4073    4.4387  -17.6677 C   0  0  0  0  0  0  0  0  0  0  0  0
   -7.2331    4.9786  -18.2056 C   0  0  0  0  0  0  0  0  0  0  0  0
   -6.1915    5.2860  -17.3244 C   0  0  0  0  0  0  0  0  0  0  0  0
   -3.1691    5.2613  -19.3242 C   0  0  0  0  0  0  0  0  0  0  0  0
   -4.4581    5.4995  -20.0232 C   0  0  0  0  0  0  0  0  0  0  0  0
  1  2  2  0
  2  3  1  0
  3  4  1  0
  4  5  1  6
  5  6  1  0
  6  7  1  0
  8  7  1  6
  8  9  1  0
  2 10  1  0
 10 11  1  0
 11 12  1  0
 12 13  2  0
 13 14  1  0
 14 15  2  0
 15 16  1  0
 16 17  2  0
 17 18  1  0
 18 19  2  0
 10 20  1  0
 20 21  1  0
  8  3  1  0
 21 10  1  0
  9  4  1  0
 19 11  1  0
 19 14  1  0
M  END
>  <energy_score>  (2271) 
-17.152243

>  <alias>  (2271) 
None

>  <HIPPO Pose ID>  (2271) 
74056

>  <smiles>  (2271) 
O=C(N1[C@@H]2COC[C@H]1C2)C1(n2cnc3ccccc32)CC1

>  <inchikey>  (2271) 
SNIPUZWUCXIPIU-TXEJJXNPSA-N

>  <distance_score>  (2271) 
1.545134

>  <ref_mols>  (2271) 
Z0101a,Z3880a

>  <ref_pdb>  (2271) 
Z3880a

>  <HIPPO Compound ID>  (2271) 
147131

>  <name>  (2271) 
P74056

>  <inspiration_score>  (2271) 
None

$$$$
P74058
     RDKit          3D

 21 24  0  0  0  0  0  0  0  0999 V2000
   -8.5703    4.0838   -7.8046 C   0  0  0  0  0  0  0  0  0  0  0  0
   -8.3647    4.5812   -9.2298 C   0  0  1  0  0  0  0  0  0  0  0  0
   -7.3802    5.6189   -9.1833 O   0  0  0  0  0  0  0  0  0  0  0  0
   -7.9591    3.5415  -10.2861 C   0  0  0  0  0  0  0  0  0  0  0  0
   -7.1888    4.0635  -11.3980 N   0  0  0  0  0  0  0  0  0  0  0  0
   -7.6030    5.0175  -12.5530 C   0  0  0  0  0  0  0  0  0  0  0  0
   -8.6469    5.4655  -12.8272 O   0  0  0  0  0  0  0  0  0  0  0  0
   -6.3811    5.4878  -13.3689 C   0  0  0  0  0  0  0  0  0  0  0  0
   -6.2047    5.0760  -14.8420 N   0  0  0  0  0  0  0  0  0  0  0  0
   -5.0379    5.3100  -15.5446 C   0  0  0  0  0  0  0  0  0  0  0  0
   -5.1899    5.2014  -16.8426 N   0  0  0  0  0  0  0  0  0  0  0  0
   -6.5018    4.8415  -16.9994 C   0  0  0  0  0  0  0  0  0  0  0  0
   -7.1914    4.5903  -18.1914 C   0  0  0  0  0  0  0  0  0  0  0  0
   -8.5396    4.2515  -18.1231 C   0  0  0  0  0  0  0  0  0  0  0  0
   -9.1857    4.1610  -16.8978 C   0  0  0  0  0  0  0  0  0  0  0  0
   -8.5132    4.3911  -15.6953 C   0  0  0  0  0  0  0  0  0  0  0  0
   -7.1660    4.7474  -15.7674 C   0  0  0  0  0  0  0  0  0  0  0  0
   -5.1664    5.9111  -12.5270 C   0  0  0  0  0  0  0  0  0  0  0  0
   -6.0519    6.9723  -13.0841 C   0  0  0  0  0  0  0  0  0  0  0  0
   -8.9490    2.4326  -10.5457 C   0  0  0  0  0  0  0  0  0  0  0  0
   -7.6678    2.1199   -9.8423 C   0  0  0  0  0  0  0  0  0  0  0  0
  2  1  1  1
  2  3  1  0
  2  4  1  0
  4  5  1  0
  5  6  1  0
  6  7  2  0
  6  8  1  0
  8  9  1  0
  9 10  1  0
 10 11  2  0
 11 12  1  0
 12 13  2  0
 13 14  1  0
 14 15  2  0
 15 16  1  0
 16 17  2  0
  8 18  1  0
 18 19  1  0
  4 20  1  0
 20 21  1  0
 21  4  1  0
 19  8  1  0
 17  9  1  0
 17 12  1  0
M  END
>  <energy_score>  (2272) 
-39.308122

>  <alias>  (2272) 
None

>  <HIPPO Pose ID>  (2272) 
74058

>  <smiles>  (2272) 
C[C@@H](O)C1(NC(=O)C2(n3cnc4ccccc43)CC2)CC1

>  <inchikey>  (2272) 
PCPCXSBLDMKBAI-LLVKDONJSA-N

>  <distance_score>  (2272) 
1.585259

>  <ref_mols>  (2272) 
Z0101a,Z3880a

>  <ref_pdb>  (2272) 
Z3880a

>  <HIPPO Compound ID>  (2272) 
147133

>  <name>  (2272) 
P74058

>  <inspiration_score>  (2272) 
None

$$$$
P74060
     RDKit          3D

 21 24  0  0  0  0  0  0  0  0999 V2000
   -7.8881    5.8586   -9.0886 C   0  0  0  0  0  0  0  0  0  0  0  0
   -7.8043    4.3485   -9.1922 C   0  0  1  0  0  0  0  0  0  0  0  0
   -8.6308    3.6266   -8.1409 C   0  0  0  0  0  0  0  0  0  0  0  0
   -9.0973    2.4089   -8.7270 O   0  0  0  0  0  0  0  0  0  0  0  0
   -8.6255    2.3531  -10.0851 C   0  0  0  0  0  0  0  0  0  0  0  0
   -8.3333    3.7857  -10.5072 C   0  0  2  0  0  0  0  0  0  0  0  0
   -7.3812    3.9964  -11.5847 N   0  0  0  0  0  0  0  0  0  0  0  0
   -7.3290    5.0882  -12.6805 C   0  0  0  0  0  0  0  0  0  0  0  0
   -8.0839    5.9410  -12.9347 O   0  0  0  0  0  0  0  0  0  0  0  0
   -6.0042    5.0577  -13.4635 C   0  0  0  0  0  0  0  0  0  0  0  0
   -6.0392    5.0856  -14.9943 N   0  0  0  0  0  0  0  0  0  0  0  0
   -4.9577    5.4359  -15.7765 C   0  0  0  0  0  0  0  0  0  0  0  0
   -5.2158    5.3704  -17.0603 N   0  0  0  0  0  0  0  0  0  0  0  0
   -6.5136    4.9349  -17.1183 C   0  0  0  0  0  0  0  0  0  0  0  0
   -7.2864    4.6785  -18.2542 C   0  0  0  0  0  0  0  0  0  0  0  0
   -8.6098    4.2832  -18.0821 C   0  0  0  0  0  0  0  0  0  0  0  0
   -9.1462    4.1310  -16.8089 C   0  0  0  0  0  0  0  0  0  0  0  0
   -8.3820    4.3370  -15.6589 C   0  0  0  0  0  0  0  0  0  0  0  0
   -7.0640    4.7565  -15.8420 C   0  0  0  0  0  0  0  0  0  0  0  0
   -5.0044    6.0152  -12.7755 C   0  0  0  0  0  0  0  0  0  0  0  0
   -4.7286    4.5512  -12.7772 C   0  0  0  0  0  0  0  0  0  0  0  0
  2  1  1  6
  2  3  1  0
  3  4  1  0
  4  5  1  0
  5  6  1  0
  6  7  1  6
  7  8  1  0
  8  9  2  0
  8 10  1  0
 10 11  1  0
 11 12  1  0
 12 13  2  0
 13 14  1  0
 14 15  2  0
 15 16  1  0
 16 17  2  0
 17 18  1  0
 18 19  2  0
 10 20  1  0
 20 21  1  0
  6  2  1  0
 21 10  1  0
 19 11  1  0
 19 14  1  0
M  END
>  <energy_score>  (2273) 
-17.184703

>  <alias>  (2273) 
None

>  <HIPPO Pose ID>  (2273) 
74060

>  <smiles>  (2273) 
C[C@H]1COC[C@@H]1NC(=O)C1(n2cnc3ccccc32)CC1

>  <inchikey>  (2273) 
HZYWELZNBANSGZ-AAEUAGOBSA-N

>  <distance_score>  (2273) 
1.505732

>  <ref_mols>  (2273) 
Z0101a,Z3880a

>  <ref_pdb>  (2273) 
Z3880a

>  <HIPPO Compound ID>  (2273) 
147134

>  <name>  (2273) 
P74060

>  <inspiration_score>  (2273) 
None

$$$$
P74063
     RDKit          3D

 21 23  0  0  0  0  0  0  0  0999 V2000
   -4.1793    8.1844  -15.0374 C   0  0  0  0  0  0  0  0  0  0  0  0
   -4.3986    6.7904  -14.4674 C   0  0  0  0  0  0  0  0  0  0  0  0
   -5.4053    6.0210  -15.2608 C   0  0  0  0  0  0  0  0  0  0  0  0
   -5.4610    5.9769  -16.5816 N   0  0  0  0  0  0  0  0  0  0  0  0
   -6.6123    5.3012  -16.8811 C   0  0  0  0  0  0  0  0  0  0  0  0
   -7.1707    4.9856  -18.1247 C   0  0  0  0  0  0  0  0  0  0  0  0
   -8.4251    4.3721  -18.1511 C   0  0  0  0  0  0  0  0  0  0  0  0
   -9.1079    4.0897  -16.9735 C   0  0  0  0  0  0  0  0  0  0  0  0
   -8.5365    4.3308  -15.7260 C   0  0  0  0  0  0  0  0  0  0  0  0
   -7.2800    4.9341  -15.7185 C   0  0  0  0  0  0  0  0  0  0  0  0
   -6.4056    5.2404  -14.6935 N   0  0  0  0  0  0  0  0  0  0  0  0
   -6.3564    4.4460  -13.4478 C   0  0  1  0  0  0  0  0  0  0  0  0
   -4.9377    4.0243  -13.0979 C   0  0  0  0  0  0  0  0  0  0  0  0
   -6.9944    5.0310  -12.1731 C   0  0  0  0  0  0  0  0  0  0  0  0
   -7.2150    6.1720  -12.0115 O   0  0  0  0  0  0  0  0  0  0  0  0
   -7.1538    3.8101  -11.1855 N   0  0  0  0  0  0  0  0  0  0  0  0
   -7.5239    3.7765   -9.7821 C   0  0  2  0  0  0  0  0  0  0  0  0
   -8.4632    2.6404   -9.4232 C   0  0  0  0  0  0  0  0  0  0  0  0
   -8.9946    3.0662   -8.0691 C   0  0  0  0  0  0  0  0  0  0  0  0
   -8.9006    4.5030   -8.0035 O   0  0  0  0  0  0  0  0  0  0  0  0
   -8.2511    4.9684   -9.2007 C   0  0  0  0  0  0  0  0  0  0  0  0
  1  2  1  0
  2  3  1  0
  3  4  2  0
  4  5  1  0
  5  6  2  0
  6  7  1  0
  7  8  2  0
  8  9  1  0
  9 10  2  0
 10 11  1  0
 11 12  1  0
 12 13  1  1
 12 14  1  0
 14 15  2  0
 14 16  1  0
 17 16  1  6
 17 18  1  0
 18 19  1  0
 19 20  1  0
 20 21  1  0
 11  3  1  0
 21 17  1  0
 10  5  1  0
M  END
>  <energy_score>  (2274) 
-5.767883

>  <alias>  (2274) 
None

>  <HIPPO Pose ID>  (2274) 
74063

>  <smiles>  (2274) 
CCc1nc2ccccc2n1[C@@H](C)C(=O)N[C@@H]1CCOC1

>  <inchikey>  (2274) 
OZQMLHLPMUZQJL-NWDGAFQWSA-N

>  <distance_score>  (2274) 
1.568264

>  <ref_mols>  (2274) 
Z0101a,Z3880a

>  <ref_pdb>  (2274) 
Z3880a

>  <HIPPO Compound ID>  (2274) 
147137

>  <name>  (2274) 
P74063

>  <inspiration_score>  (2274) 
None

$$$$
P74069
     RDKit          3D

 21 23  0  0  0  0  0  0  0  0999 V2000
   -6.1033    7.0102  -12.6984 C   0  0  0  0  0  0  0  0  0  0  0  0
   -5.4277    5.6403  -12.7213 C   0  0  0  0  0  0  0  0  0  0  0  0
   -5.0441    5.2159  -11.2998 C   0  0  0  0  0  0  0  0  0  0  0  0
   -6.2494    4.5788  -13.4969 C   0  0  1  0  0  0  0  0  0  0  0  0
   -7.6396    4.4868  -12.7942 C   0  0  0  0  0  0  0  0  0  0  0  0
   -8.5197    5.2220  -13.0452 O   0  0  0  0  0  0  0  0  0  0  0  0
   -7.5360    3.3594  -11.7052 N   0  0  0  0  0  0  0  0  0  0  0  0
   -8.4729    2.9755  -10.6345 C   0  0  1  0  0  0  0  0  0  0  0  0
   -7.8957    2.0936   -9.5041 C   0  0  0  0  0  0  0  0  0  0  0  0
   -7.6698    3.3624   -8.6638 C   0  0  0  0  0  0  0  0  0  0  0  0
   -8.6978    4.0693   -9.5437 C   0  0  1  0  0  0  0  0  0  0  0  0
   -8.3897    5.4361   -9.8792 O   0  0  0  0  0  0  0  0  0  0  0  0
   -6.2274    4.8511  -14.9603 N   0  0  0  0  0  0  0  0  0  0  0  0
   -5.0837    5.2040  -15.6627 C   0  0  0  0  0  0  0  0  0  0  0  0
   -5.2722    5.2853  -16.9561 N   0  0  0  0  0  0  0  0  0  0  0  0
   -6.5669    4.8919  -17.1314 C   0  0  0  0  0  0  0  0  0  0  0  0
   -7.2631    4.7205  -18.3301 C   0  0  0  0  0  0  0  0  0  0  0  0
   -8.5963    4.3232  -18.2746 C   0  0  0  0  0  0  0  0  0  0  0  0
   -9.2250    4.1046  -17.0604 C   0  0  0  0  0  0  0  0  0  0  0  0
   -8.5334    4.2257  -15.8579 C   0  0  0  0  0  0  0  0  0  0  0  0
   -7.1991    4.6340  -15.9098 C   0  0  0  0  0  0  0  0  0  0  0  0
  1  2  1  0
  2  3  1  0
  4  2  1  1
  4  5  1  0
  5  6  2  0
  5  7  1  0
  8  7  1  6
  8  9  1  0
  9 10  1  0
 10 11  1  0
 11 12  1  6
  4 13  1  0
 13 14  1  0
 14 15  2  0
 15 16  1  0
 16 17  2  0
 17 18  1  0
 18 19  2  0
 19 20  1  0
 20 21  2  0
 11  8  1  0
 21 13  1  0
 21 16  1  0
M  END
>  <energy_score>  (2275) 
-8.050607

>  <alias>  (2275) 
None

>  <HIPPO Pose ID>  (2275) 
74069

>  <smiles>  (2275) 
CC(C)[C@@H](C(=O)N[C@H]1CC[C@H]1O)n1cnc2ccccc21

>  <inchikey>  (2275) 
GWJWFXPBLAIHFZ-CFVMTHIKSA-N

>  <distance_score>  (2275) 
1.470449

>  <ref_mols>  (2275) 
Z0101a,Z3880a

>  <ref_pdb>  (2275) 
Z3880a

>  <HIPPO Compound ID>  (2275) 
147140

>  <name>  (2275) 
P74069

>  <inspiration_score>  (2275) 
None

$$$$
P74073
     RDKit          3D

 21 23  0  0  0  0  0  0  0  0999 V2000
   -5.4981    6.2026  -11.4851 C   0  0  0  0  0  0  0  0  0  0  0  0
   -5.6214    6.1936  -13.0019 C   0  0  0  0  0  0  0  0  0  0  0  0
   -6.2436    7.5232  -13.4594 C   0  0  0  0  0  0  0  0  0  0  0  0
   -6.3357    4.9286  -13.5540 C   0  0  1  0  0  0  0  0  0  0  0  0
   -7.7228    4.8786  -12.8416 C   0  0  0  0  0  0  0  0  0  0  0  0
   -8.6406    5.5065  -13.2159 O   0  0  0  0  0  0  0  0  0  0  0  0
   -7.5644    3.9661  -11.5711 N   0  0  0  0  0  0  0  0  0  0  0  0
   -8.4736    3.7262  -10.4647 C   0  0  1  0  0  0  0  0  0  0  0  0
   -8.3934    2.3781   -9.7954 C   0  0  0  0  0  0  0  0  0  0  0  0
   -9.0120    2.6390   -8.4346 C   0  0  0  0  0  0  0  0  0  0  0  0
   -8.7183    4.0041   -8.0933 O   0  0  0  0  0  0  0  0  0  0  0  0
   -8.2470    4.6608   -9.2788 C   0  0  0  0  0  0  0  0  0  0  0  0
   -6.2694    4.9310  -15.0341 N   0  0  0  0  0  0  0  0  0  0  0  0
   -5.1000    5.1829  -15.7383 C   0  0  0  0  0  0  0  0  0  0  0  0
   -5.2726    5.1937  -17.0353 N   0  0  0  0  0  0  0  0  0  0  0  0
   -6.5781    4.8288  -17.1996 C   0  0  0  0  0  0  0  0  0  0  0  0
   -7.2700    4.6181  -18.3925 C   0  0  0  0  0  0  0  0  0  0  0  0
   -8.6119    4.2554  -18.3245 C   0  0  0  0  0  0  0  0  0  0  0  0
   -9.2515    4.0969  -17.1058 C   0  0  0  0  0  0  0  0  0  0  0  0
   -8.5651    4.2586  -15.9056 C   0  0  0  0  0  0  0  0  0  0  0  0
   -7.2275    4.6504  -15.9727 C   0  0  0  0  0  0  0  0  0  0  0  0
  1  2  1  0
  2  3  1  0
  4  2  1  1
  4  5  1  0
  5  6  2  0
  5  7  1  0
  8  7  1  6
  8  9  1  0
  9 10  1  0
 10 11  1  0
 11 12  1  0
  4 13  1  0
 13 14  1  0
 14 15  2  0
 15 16  1  0
 16 17  2  0
 17 18  1  0
 18 19  2  0
 19 20  1  0
 20 21  2  0
 12  8  1  0
 21 13  1  0
 21 16  1  0
M  END
>  <energy_score>  (2276) 
-8.144643

>  <alias>  (2276) 
None

>  <HIPPO Pose ID>  (2276) 
74073

>  <smiles>  (2276) 
CC(C)[C@@H](C(=O)N[C@H]1CCOC1)n1cnc2ccccc21

>  <inchikey>  (2276) 
FJRLSVXRXGRMKR-WFASDCNBSA-N

>  <distance_score>  (2276) 
1.499235

>  <ref_mols>  (2276) 
Z0101a,Z3880a

>  <ref_pdb>  (2276) 
Z3880a

>  <HIPPO Compound ID>  (2276) 
147142

>  <name>  (2276) 
P74073

>  <inspiration_score>  (2276) 
None

$$$$
P74075
     RDKit          3D

 21 24  0  0  0  0  0  0  0  0999 V2000
   -8.6638    4.6469  -12.7337 O   0  0  0  0  0  0  0  0  0  0  0  0
   -7.5316    4.7235  -12.4795 C   0  0  0  0  0  0  0  0  0  0  0  0
   -6.7480    4.2173  -11.2562 N   0  0  0  0  0  0  0  0  0  0  0  0
   -7.2146    3.5856  -10.0272 C   0  0  2  0  0  0  0  0  0  0  0  0
   -8.0024    2.2865  -10.1015 C   0  0  0  0  0  0  0  0  0  0  0  0
   -8.7774    2.1917   -8.8845 O   0  0  0  0  0  0  0  0  0  0  0  0
   -8.7033    3.4564   -8.2181 C   0  0  0  0  0  0  0  0  0  0  0  0
   -8.2016    4.4388   -9.2486 C   0  0  1  0  0  0  0  0  0  0  0  0
   -7.5877    5.4992   -8.6786 F   0  0  0  0  0  0  0  0  0  0  0  0
   -6.6248    5.5345  -13.4246 C   0  0  0  0  0  0  0  0  0  0  0  0
   -6.3061    5.0113  -14.8210 N   0  0  0  0  0  0  0  0  0  0  0  0
   -5.0862    5.1935  -15.4348 C   0  0  0  0  0  0  0  0  0  0  0  0
   -5.1597    5.0944  -16.7430 N   0  0  0  0  0  0  0  0  0  0  0  0
   -6.4728    4.7780  -16.9899 C   0  0  0  0  0  0  0  0  0  0  0  0
   -7.1020    4.5347  -18.2170 C   0  0  0  0  0  0  0  0  0  0  0  0
   -8.4623    4.2262  -18.2210 C   0  0  0  0  0  0  0  0  0  0  0  0
   -9.1887    4.1835  -17.0388 C   0  0  0  0  0  0  0  0  0  0  0  0
   -8.5821    4.4312  -15.8079 C   0  0  0  0  0  0  0  0  0  0  0  0
   -7.2170    4.7202  -15.8066 C   0  0  0  0  0  0  0  0  0  0  0  0
   -5.6867    6.5409  -12.7386 C   0  0  0  0  0  0  0  0  0  0  0  0
   -6.9365    7.0448  -13.3668 C   0  0  0  0  0  0  0  0  0  0  0  0
  1  2  2  0
  2  3  1  0
  4  3  1  6
  4  5  1  0
  5  6  1  0
  6  7  1  0
  7  8  1  0
  8  9  1  1
  2 10  1  0
 10 11  1  0
 11 12  1  0
 12 13  2  0
 13 14  1  0
 14 15  2  0
 15 16  1  0
 16 17  2  0
 17 18  1  0
 18 19  2  0
 10 20  1  0
 20 21  1  0
  8  4  1  0
 21 10  1  0
 19 11  1  0
 19 14  1  0
M  END
>  <energy_score>  (2277) 
-17.944656

>  <alias>  (2277) 
None

>  <HIPPO Pose ID>  (2277) 
74075

>  <smiles>  (2277) 
O=C(N[C@@H]1COC[C@H]1F)C1(n2cnc3ccccc32)CC1

>  <inchikey>  (2277) 
YVRROPLWXWYBPD-ZYHUDNBSSA-N

>  <distance_score>  (2277) 
1.568305

>  <ref_mols>  (2277) 
Z0101a,Z3880a

>  <ref_pdb>  (2277) 
Z3880a

>  <HIPPO Compound ID>  (2277) 
147145

>  <name>  (2277) 
P74075

>  <inspiration_score>  (2277) 
None

$$$$
P74076
     RDKit          3D

 21 24  0  0  0  0  0  0  0  0999 V2000
   -7.9287    5.9221  -12.7684 O   0  0  0  0  0  0  0  0  0  0  0  0
   -7.2517    4.9946  -12.5516 C   0  0  0  0  0  0  0  0  0  0  0  0
   -7.3792    3.8859  -11.4692 N   0  0  0  0  0  0  0  0  0  0  0  0
   -8.3333    3.7438  -10.3492 C   0  0  1  0  0  0  0  0  0  0  0  0
   -8.1158    2.6702   -9.2302 C   0  0  2  0  0  0  0  0  0  0  0  0
   -9.0783    1.6095   -9.1247 O   0  0  0  0  0  0  0  0  0  0  0  0
   -8.3663    3.7934   -8.1879 C   0  0  0  0  0  0  0  0  0  0  0  0
   -7.9547    4.8015   -9.2557 C   0  0  2  0  0  0  0  0  0  0  0  0
   -8.6533    6.0523   -9.3024 O   0  0  0  0  0  0  0  0  0  0  0  0
   -5.9594    4.8658  -13.3823 C   0  0  0  0  0  0  0  0  0  0  0  0
   -6.0274    5.0360  -14.9071 N   0  0  0  0  0  0  0  0  0  0  0  0
   -4.9572    5.4248  -15.6866 C   0  0  0  0  0  0  0  0  0  0  0  0
   -5.2274    5.4032  -16.9701 N   0  0  0  0  0  0  0  0  0  0  0  0
   -6.5222    4.9604  -17.0331 C   0  0  0  0  0  0  0  0  0  0  0  0
   -7.3009    4.7287  -18.1713 C   0  0  0  0  0  0  0  0  0  0  0  0
   -8.6197    4.3180  -18.0009 C   0  0  0  0  0  0  0  0  0  0  0  0
   -9.1456    4.1358  -16.7263 C   0  0  0  0  0  0  0  0  0  0  0  0
   -8.3766    4.3195  -15.5746 C   0  0  0  0  0  0  0  0  0  0  0  0
   -7.0610    4.7425  -15.7577 C   0  0  0  0  0  0  0  0  0  0  0  0
   -4.8490    5.6509  -12.6397 C   0  0  0  0  0  0  0  0  0  0  0  0
   -4.7232    4.1766  -12.7949 C   0  0  0  0  0  0  0  0  0  0  0  0
  1  2  2  0
  2  3  1  0
  4  3  1  6
  4  5  1  0
  5  6  1  6
  5  7  1  0
  7  8  1  0
  8  9  1  6
  2 10  1  0
 10 11  1  0
 11 12  1  0
 12 13  2  0
 13 14  1  0
 14 15  2  0
 15 16  1  0
 16 17  2  0
 17 18  1  0
 18 19  2  0
 10 20  1  0
 20 21  1  0
  8  4  1  0
 21 10  1  0
 19 11  1  0
 19 14  1  0
M  END
>  <energy_score>  (2278) 
-11.962472

>  <alias>  (2278) 
None

>  <HIPPO Pose ID>  (2278) 
74076

>  <smiles>  (2278) 
O=C(N[C@H]1[C@H](O)C[C@@H]1O)C1(n2cnc3ccccc32)CC1

>  <inchikey>  (2278) 
CHGVOAXYDGCRGT-ITGUQSILSA-N

>  <distance_score>  (2278) 
1.530779

>  <ref_mols>  (2278) 
Z0101a,Z3880a

>  <ref_pdb>  (2278) 
Z3880a

>  <HIPPO Compound ID>  (2278) 
147146

>  <name>  (2278) 
P74076

>  <inspiration_score>  (2278) 
None

$$$$
P74081
     RDKit          3D

 21 24  0  0  0  0  0  0  0  0999 V2000
   -8.8523    2.3857  -10.8763 C   0  0  0  0  0  0  0  0  0  0  0  0
   -7.8727    3.4358  -10.4113 C   0  0  2  0  0  0  0  0  0  0  0  0
   -7.1113    4.0186  -11.5418 N   0  0  0  0  0  0  0  0  0  0  0  0
   -7.5345    5.0550  -12.6106 C   0  0  0  0  0  0  0  0  0  0  0  0
   -8.5709    5.5523  -12.8133 O   0  0  0  0  0  0  0  0  0  0  0  0
   -6.3218    5.5258  -13.4308 C   0  0  0  0  0  0  0  0  0  0  0  0
   -6.1720    5.1399  -14.9063 N   0  0  0  0  0  0  0  0  0  0  0  0
   -5.0223    5.3846  -15.6311 C   0  0  0  0  0  0  0  0  0  0  0  0
   -5.1934    5.2440  -16.9235 N   0  0  0  0  0  0  0  0  0  0  0  0
   -6.5026    4.8631  -17.0506 C   0  0  0  0  0  0  0  0  0  0  0  0
   -7.2095    4.5845  -18.2253 C   0  0  0  0  0  0  0  0  0  0  0  0
   -8.5532    4.2358  -18.1270 C   0  0  0  0  0  0  0  0  0  0  0  0
   -9.1770    4.1574  -16.8889 C   0  0  0  0  0  0  0  0  0  0  0  0
   -8.4860    4.4104  -15.7018 C   0  0  0  0  0  0  0  0  0  0  0  0
   -7.1445    4.7808  -15.8064 C   0  0  0  0  0  0  0  0  0  0  0  0
   -5.0835    5.8670  -12.5878 C   0  0  0  0  0  0  0  0  0  0  0  0
   -5.9346    6.9818  -13.0949 C   0  0  0  0  0  0  0  0  0  0  0  0
   -6.9588    2.9340   -9.2720 C   0  0  0  0  0  0  0  0  0  0  0  0
   -7.8792    3.6208   -8.2485 C   0  0  0  0  0  0  0  0  0  0  0  0
   -8.4476    4.4647   -9.3954 C   0  0  1  0  0  0  0  0  0  0  0  0
   -7.9657    5.8209   -9.4924 O   0  0  0  0  0  0  0  0  0  0  0  0
  2  1  1  6
  2  3  1  0
  3  4  1  0
  4  5  2  0
  4  6  1  0
  6  7  1  0
  7  8  1  0
  8  9  2  0
  9 10  1  0
 10 11  2  0
 11 12  1  0
 12 13  2  0
 13 14  1  0
 14 15  2  0
  6 16  1  0
 16 17  1  0
  2 18  1  0
 18 19  1  0
 19 20  1  0
 20 21  1  6
 20  2  1  0
 17  6  1  0
 15  7  1  0
 15 10  1  0
M  END
>  <energy_score>  (2279) 
-45.787671

>  <alias>  (2279) 
None

>  <HIPPO Pose ID>  (2279) 
74081

>  <smiles>  (2279) 
C[C@]1(NC(=O)C2(n3cnc4ccccc43)CC2)CC[C@H]1O

>  <inchikey>  (2279) 
MKHMPPWJZZBQAD-HIFRSBDPSA-N

>  <distance_score>  (2279) 
1.620597

>  <ref_mols>  (2279) 
Z0101a,Z3880a

>  <ref_pdb>  (2279) 
Z3880a

>  <HIPPO Compound ID>  (2279) 
147155

>  <name>  (2279) 
P74081

>  <inspiration_score>  (2279) 
None

$$$$
P74083
     RDKit          3D

 21 25  0  0  0  0  0  0  0  0999 V2000
   -6.1105    8.5152  -18.5004 O   0  0  0  0  0  0  0  0  0  0  0  0
   -5.3484    8.0128  -19.2251 C   0  0  0  0  0  0  0  0  0  0  0  0
   -4.6081    8.5863  -20.4524 N   0  0  0  0  0  0  0  0  0  0  0  0
   -4.7228    9.8653  -21.0982 C   0  0  2  0  0  0  0  0  0  0  0  0
   -5.2586    9.8875  -22.5367 C   0  0  0  0  0  0  0  0  0  0  0  0
   -5.2067   11.3053  -22.7805 O   0  0  0  0  0  0  0  0  0  0  0  0
   -4.6741   11.7956  -21.5178 C   0  0  2  0  0  0  0  0  0  0  0  0
   -3.4994   10.8300  -21.0979 C   0  0  0  0  0  0  0  0  0  0  0  0
   -5.4411   11.0422  -20.3674 C   0  0  0  0  0  0  0  0  0  0  0  0
   -5.0070    6.5292  -18.9802 C   0  0  0  0  0  0  0  0  0  0  0  0
   -5.3782    6.0447  -17.6180 N   0  0  0  0  0  0  0  0  0  0  0  0
   -4.6020    6.2371  -16.5170 C   0  0  0  0  0  0  0  0  0  0  0  0
   -5.1897    5.7785  -15.4341 N   0  0  0  0  0  0  0  0  0  0  0  0
   -6.3863    5.2529  -15.8772 C   0  0  0  0  0  0  0  0  0  0  0  0
   -7.4286    4.6692  -15.1453 C   0  0  0  0  0  0  0  0  0  0  0  0
   -8.5624    4.2195  -15.8317 C   0  0  0  0  0  0  0  0  0  0  0  0
   -8.6497    4.3031  -17.2176 C   0  0  0  0  0  0  0  0  0  0  0  0
   -7.6226    4.8851  -17.9597 C   0  0  0  0  0  0  0  0  0  0  0  0
   -6.5138    5.3718  -17.2602 C   0  0  0  0  0  0  0  0  0  0  0  0
   -3.8260    5.8103  -19.6591 C   0  0  0  0  0  0  0  0  0  0  0  0
   -5.2132    5.6161  -20.1696 C   0  0  0  0  0  0  0  0  0  0  0  0
  1  2  2  0
  2  3  1  0
  4  3  1  1
  4  5  1  0
  5  6  1  0
  6  7  1  0
  7  8  1  6
  7  9  1  0
  2 10  1  0
 10 11  1  0
 11 12  1  0
 12 13  2  0
 13 14  1  0
 14 15  2  0
 15 16  1  0
 16 17  2  0
 17 18  1  0
 18 19  2  0
 10 20  1  0
 20 21  1  0
  8  4  1  0
 21 10  1  0
  9  4  1  0
 19 11  1  0
 19 14  1  0
M  END
>  <energy_score>  (2280) 
-15.003826

>  <alias>  (2280) 
None

>  <HIPPO Pose ID>  (2280) 
74083

>  <smiles>  (2280) 
O=C(N[C@]12CO[C@H](C1)C2)C1(n2cnc3ccccc32)CC1

>  <inchikey>  (2280) 
VYMRLADKLWTWSB-FUKZOUPISA-N

>  <distance_score>  (2280) 
1.121765

>  <ref_mols>  (2280) 
Z0101a,Z3880a

>  <ref_pdb>  (2280) 
Z3880a

>  <HIPPO Compound ID>  (2280) 
147156

>  <name>  (2280) 
P74083

>  <inspiration_score>  (2280) 
None

$$$$
P74084
     RDKit          3D

 21 24  0  0  0  0  0  0  0  0999 V2000
   -7.0843    5.4076   -9.0431 C   0  0  0  0  0  0  0  0  0  0  0  0
   -8.4221    4.7812   -9.3901 C   0  0  2  0  0  0  0  0  0  0  0  0
   -8.8482    4.0361   -8.2300 O   0  0  0  0  0  0  0  0  0  0  0  0
   -8.9556    2.6528   -8.6018 C   0  0  0  0  0  0  0  0  0  0  0  0
   -8.1640    2.4905   -9.8834 C   0  0  0  0  0  0  0  0  0  0  0  0
   -8.3921    3.8101  -10.5823 C   0  0  2  0  0  0  0  0  0  0  0  0
   -7.4443    4.1446  -11.6290 N   0  0  0  0  0  0  0  0  0  0  0  0
   -7.5111    5.2191  -12.7370 C   0  0  0  0  0  0  0  0  0  0  0  0
   -8.3709    5.9509  -13.0292 O   0  0  0  0  0  0  0  0  0  0  0  0
   -6.1667    5.3629  -13.4676 C   0  0  0  0  0  0  0  0  0  0  0  0
   -6.1064    5.1661  -14.9862 N   0  0  0  0  0  0  0  0  0  0  0  0
   -4.9911    5.4647  -15.7425 C   0  0  0  0  0  0  0  0  0  0  0  0
   -5.1998    5.3364  -17.0301 N   0  0  0  0  0  0  0  0  0  0  0  0
   -6.4994    4.9111  -17.1183 C   0  0  0  0  0  0  0  0  0  0  0  0
   -7.2351    4.6218  -18.2713 C   0  0  0  0  0  0  0  0  0  0  0  0
   -8.5663    4.2395  -18.1327 C   0  0  0  0  0  0  0  0  0  0  0  0
   -9.1473    4.1292  -16.8759 C   0  0  0  0  0  0  0  0  0  0  0  0
   -8.4217    4.3732  -15.7087 C   0  0  0  0  0  0  0  0  0  0  0  0
   -7.0968    4.7880  -15.8558 C   0  0  0  0  0  0  0  0  0  0  0  0
   -5.3941    6.5768  -12.9133 C   0  0  0  0  0  0  0  0  0  0  0  0
   -4.8828    5.2030  -12.6389 C   0  0  0  0  0  0  0  0  0  0  0  0
  2  1  1  1
  2  3  1  0
  3  4  1  0
  4  5  1  0
  5  6  1  0
  6  7  1  6
  7  8  1  0
  8  9  2  0
  8 10  1  0
 10 11  1  0
 11 12  1  0
 12 13  2  0
 13 14  1  0
 14 15  2  0
 15 16  1  0
 16 17  2  0
 17 18  1  0
 18 19  2  0
 10 20  1  0
 20 21  1  0
  6  2  1  0
 21 10  1  0
 19 11  1  0
 19 14  1  0
M  END
>  <energy_score>  (2281) 
-19.201032

>  <alias>  (2281) 
None

>  <HIPPO Pose ID>  (2281) 
74084

>  <smiles>  (2281) 
C[C@@H]1OCC[C@@H]1NC(=O)C1(n2cnc3ccccc32)CC1

>  <inchikey>  (2281) 
ZYLJQXMPHRVIHU-RYUDHWBXSA-N

>  <distance_score>  (2281) 
1.528707

>  <ref_mols>  (2281) 
Z0101a,Z3880a

>  <ref_pdb>  (2281) 
Z3880a

>  <HIPPO Compound ID>  (2281) 
147159

>  <name>  (2281) 
P74084

>  <inspiration_score>  (2281) 
None

$$$$
P74089
     RDKit          3D

 21 24  0  0  0  0  0  0  0  0999 V2000
   -6.4436    1.8626  -10.4733 C   0  0  0  0  0  0  0  0  0  0  0  0
   -7.3719    3.0754  -10.3754 C   0  0  1  0  0  0  0  0  0  0  0  0
   -7.2839    3.8822  -11.6025 N   0  0  0  0  0  0  0  0  0  0  0  0
   -6.0509    4.4118  -12.3693 C   0  0  0  0  0  0  0  0  0  0  0  0
   -4.9135    4.2265  -12.1914 O   0  0  0  0  0  0  0  0  0  0  0  0
   -6.4519    5.4019  -13.4529 C   0  0  0  0  0  0  0  0  0  0  0  0
   -6.1370    5.0229  -14.8769 N   0  0  0  0  0  0  0  0  0  0  0  0
   -4.9667    5.3171  -15.5286 C   0  0  0  0  0  0  0  0  0  0  0  0
   -5.1008    5.2331  -16.8362 N   0  0  0  0  0  0  0  0  0  0  0  0
   -6.4076    4.8424  -17.0293 C   0  0  0  0  0  0  0  0  0  0  0  0
   -7.1014    4.6100  -18.2226 C   0  0  0  0  0  0  0  0  0  0  0  0
   -8.4515    4.2554  -18.1508 C   0  0  0  0  0  0  0  0  0  0  0  0
   -9.1007    4.1339  -16.9255 C   0  0  0  0  0  0  0  0  0  0  0  0
   -8.4247    4.3378  -15.7236 C   0  0  0  0  0  0  0  0  0  0  0  0
   -7.0797    4.6992  -15.8145 C   0  0  0  0  0  0  0  0  0  0  0  0
   -6.2031    6.8690  -13.0718 C   0  0  0  0  0  0  0  0  0  0  0  0
   -7.6021    6.3757  -13.1519 C   0  0  0  0  0  0  0  0  0  0  0  0
   -8.8153    2.6638  -10.0824 C   0  0  0  0  0  0  0  0  0  0  0  0
   -8.8955    2.6609   -8.5730 C   0  0  0  0  0  0  0  0  0  0  0  0
   -8.1409    3.8154   -8.1855 O   0  0  0  0  0  0  0  0  0  0  0  0
   -7.0561    3.9369   -9.1283 C   0  0  0  0  0  0  0  0  0  0  0  0
  2  1  1  6
  2  3  1  0
  3  4  1  0
  4  5  2  0
  4  6  1  0
  6  7  1  0
  7  8  1  0
  8  9  2  0
  9 10  1  0
 10 11  2  0
 11 12  1  0
 12 13  2  0
 13 14  1  0
 14 15  2  0
  6 16  1  0
 16 17  1  0
  2 18  1  0
 18 19  1  0
 19 20  1  0
 20 21  1  0
 21  2  1  0
 17  6  1  0
 15  7  1  0
 15 10  1  0
M  END
>  <energy_score>  (2282) 
-15.278781

>  <alias>  (2282) 
None

>  <HIPPO Pose ID>  (2282) 
74089

>  <smiles>  (2282) 
C[C@@]1(NC(=O)C2(n3cnc4ccccc43)CC2)CCOC1

>  <inchikey>  (2282) 
QVZYSRYOSQPZAO-OAHLLOKOSA-N

>  <distance_score>  (2282) 
1.676874

>  <ref_mols>  (2282) 
Z0101a,Z3880a

>  <ref_pdb>  (2282) 
Z3880a

>  <HIPPO Compound ID>  (2282) 
147160

>  <name>  (2282) 
P74089

>  <inspiration_score>  (2282) 
None

$$$$
P74090
     RDKit          3D

 21 24  0  0  0  0  0  0  0  0999 V2000
   -7.9218    5.7078   -9.1679 O   0  0  0  0  0  0  0  0  0  0  0  0
   -8.2871    4.5454   -9.2628 C   0  0  0  0  0  0  0  0  0  0  0  0
   -8.6190    3.7672   -8.1880 O   0  0  0  0  0  0  0  0  0  0  0  0
   -8.9679    2.4623   -8.6545 C   0  0  0  0  0  0  0  0  0  0  0  0
   -8.3734    2.3521  -10.0406 C   0  0  0  0  0  0  0  0  0  0  0  0
   -8.4572    3.7618  -10.5563 C   0  0  2  0  0  0  0  0  0  0  0  0
   -7.5031    4.1342  -11.5850 N   0  0  0  0  0  0  0  0  0  0  0  0
   -7.6113    5.1696  -12.7257 C   0  0  0  0  0  0  0  0  0  0  0  0
   -8.5113    5.8295  -13.0645 O   0  0  0  0  0  0  0  0  0  0  0  0
   -6.2629    5.3988  -13.4290 C   0  0  0  0  0  0  0  0  0  0  0  0
   -6.1444    5.1437  -14.9389 N   0  0  0  0  0  0  0  0  0  0  0  0
   -5.0083    5.4367  -15.6673 C   0  0  0  0  0  0  0  0  0  0  0  0
   -5.1839    5.3107  -16.9610 N   0  0  0  0  0  0  0  0  0  0  0  0
   -6.4834    4.8946  -17.0848 C   0  0  0  0  0  0  0  0  0  0  0  0
   -7.1928    4.6166  -18.2583 C   0  0  0  0  0  0  0  0  0  0  0  0
   -8.5288    4.2376  -18.1568 C   0  0  0  0  0  0  0  0  0  0  0  0
   -9.1415    4.1214  -16.9166 C   0  0  0  0  0  0  0  0  0  0  0  0
   -8.4426    4.3559  -15.7313 C   0  0  0  0  0  0  0  0  0  0  0  0
   -7.1126    4.7687  -15.8381 C   0  0  0  0  0  0  0  0  0  0  0  0
   -5.6212    6.7101  -12.9309 C   0  0  0  0  0  0  0  0  0  0  0  0
   -4.9981    5.4087  -12.5557 C   0  0  0  0  0  0  0  0  0  0  0  0
  1  2  2  0
  2  3  1  0
  3  4  1  0
  4  5  1  0
  5  6  1  0
  6  7  1  6
  7  8  1  0
  8  9  2  0
  8 10  1  0
 10 11  1  0
 11 12  1  0
 12 13  2  0
 13 14  1  0
 14 15  2  0
 15 16  1  0
 16 17  2  0
 17 18  1  0
 18 19  2  0
 10 20  1  0
 20 21  1  0
  6  2  1  0
 21 10  1  0
 19 11  1  0
 19 14  1  0
M  END
>  <energy_score>  (2283) 
-4.736548

>  <alias>  (2283) 
None

>  <HIPPO Pose ID>  (2283) 
74090

>  <smiles>  (2283) 
O=C1OCC[C@@H]1NC(=O)C1(n2cnc3ccccc32)CC1

>  <inchikey>  (2283) 
NPFWBOWWJKAEAU-NSHDSACASA-N

>  <distance_score>  (2283) 
1.5178

>  <ref_mols>  (2283) 
Z0101a,Z3880a

>  <ref_pdb>  (2283) 
Z3880a

>  <HIPPO Compound ID>  (2283) 
147162

>  <name>  (2283) 
P74090

>  <inspiration_score>  (2283) 
None

$$$$
P74094
     RDKit          3D

 22 24  0  0  0  0  0  0  0  0999 V2000
   -5.5910    6.2648  -11.4934 C   0  0  0  0  0  0  0  0  0  0  0  0
   -5.7146    6.2401  -13.0071 C   0  0  0  0  0  0  0  0  0  0  0  0
   -6.3867    7.5383  -13.4788 C   0  0  0  0  0  0  0  0  0  0  0  0
   -6.3808    4.9456  -13.5404 C   0  0  1  0  0  0  0  0  0  0  0  0
   -7.7785    4.8339  -12.8473 C   0  0  0  0  0  0  0  0  0  0  0  0
   -8.7182    5.4109  -13.2474 O   0  0  0  0  0  0  0  0  0  0  0  0
   -7.6005    3.9482  -11.5620 N   0  0  0  0  0  0  0  0  0  0  0  0
   -8.5207    3.6782  -10.4659 C   0  0  1  0  0  0  0  0  0  0  0  0
   -8.4909    2.2794   -9.9133 C   0  0  0  0  0  0  0  0  0  0  0  0
   -9.0308    2.4466   -8.5122 C   0  0  0  0  0  0  0  0  0  0  0  0
   -8.6239    3.7492   -8.0933 O   0  0  0  0  0  0  0  0  0  0  0  0
   -8.3068    4.4918   -9.1969 C   0  0  0  0  0  0  0  0  0  0  0  0
   -7.9372    5.6542   -9.1368 O   0  0  0  0  0  0  0  0  0  0  0  0
   -6.2952    4.9248  -15.0222 N   0  0  0  0  0  0  0  0  0  0  0  0
   -5.1159    5.1784  -15.7105 C   0  0  0  0  0  0  0  0  0  0  0  0
   -5.2690    5.1851  -17.0100 N   0  0  0  0  0  0  0  0  0  0  0  0
   -6.5714    4.8187  -17.1933 C   0  0  0  0  0  0  0  0  0  0  0  0
   -7.2455    4.6068  -18.3967 C   0  0  0  0  0  0  0  0  0  0  0  0
   -8.5870    4.2389  -18.3495 C   0  0  0  0  0  0  0  0  0  0  0  0
   -9.2446    4.0794  -17.1417 C   0  0  0  0  0  0  0  0  0  0  0  0
   -8.5755    4.2417  -15.9324 C   0  0  0  0  0  0  0  0  0  0  0  0
   -7.2381    4.6385  -15.9754 C   0  0  0  0  0  0  0  0  0  0  0  0
  1  2  1  0
  2  3  1  0
  4  2  1  6
  4  5  1  0
  5  6  2  0
  5  7  1  0
  8  7  1  6
  8  9  1  0
  9 10  1  0
 10 11  1  0
 11 12  1  0
 12 13  2  0
  4 14  1  0
 14 15  1  0
 15 16  2  0
 16 17  1  0
 17 18  2  0
 18 19  1  0
 19 20  2  0
 20 21  1  0
 21 22  2  0
 12  8  1  0
 22 14  1  0
 22 17  1  0
M  END
>  <energy_score>  (2284) 
-11.881742

>  <alias>  (2284) 
None

>  <HIPPO Pose ID>  (2284) 
74094

>  <smiles>  (2284) 
CC(C)[C@@H](C(=O)N[C@H]1CCOC1=O)n1cnc2ccccc21

>  <inchikey>  (2284) 
SJZKWYGPTQCJDR-JSGCOSHPSA-N

>  <distance_score>  (2284) 
1.481774

>  <ref_mols>  (2284) 
Z0101a,Z3880a

>  <ref_pdb>  (2284) 
Z3880a

>  <HIPPO Compound ID>  (2284) 
147166

>  <name>  (2284) 
P74094

>  <inspiration_score>  (2284) 
None

$$$$
P74098
     RDKit          3D

 22 24  0  0  0  0  0  0  0  0999 V2000
   -5.8927    7.1574  -12.8391 C   0  0  0  0  0  0  0  0  0  0  0  0
   -5.1467    5.8226  -12.8449 C   0  0  0  0  0  0  0  0  0  0  0  0
   -4.6615    5.4875  -11.4295 C   0  0  0  0  0  0  0  0  0  0  0  0
   -5.9535    4.6869  -13.5255 C   0  0  1  0  0  0  0  0  0  0  0  0
   -7.3077    4.6200  -12.7716 C   0  0  0  0  0  0  0  0  0  0  0  0
   -8.2158    5.2927  -13.0827 O   0  0  0  0  0  0  0  0  0  0  0  0
   -7.1426    3.6333  -11.5651 N   0  0  0  0  0  0  0  0  0  0  0  0
   -8.0323    3.3517  -10.4458 C   0  0  1  0  0  0  0  0  0  0  0  0
   -9.2241    2.6166  -11.0288 C   0  0  0  0  0  0  0  0  0  0  0  0
   -7.4759    2.5605   -9.2774 C   0  0  0  0  0  0  0  0  0  0  0  0
   -8.4528    2.9145   -8.1531 C   0  0  0  0  0  0  0  0  0  0  0  0
   -8.8754    4.2672   -8.3915 O   0  0  0  0  0  0  0  0  0  0  0  0
   -8.4163    4.6324   -9.6993 C   0  0  0  0  0  0  0  0  0  0  0  0
   -6.0005    4.8835  -15.0021 N   0  0  0  0  0  0  0  0  0  0  0  0
   -4.8922    5.2195  -15.7667 C   0  0  0  0  0  0  0  0  0  0  0  0
   -5.1496    5.3014  -17.0485 N   0  0  0  0  0  0  0  0  0  0  0  0
   -6.4557    4.9155  -17.1544 C   0  0  0  0  0  0  0  0  0  0  0  0
   -7.2194    4.7561  -18.3152 C   0  0  0  0  0  0  0  0  0  0  0  0
   -8.5472    4.3530  -18.1948 C   0  0  0  0  0  0  0  0  0  0  0  0
   -9.1017    4.1058  -16.9494 C   0  0  0  0  0  0  0  0  0  0  0  0
   -8.3438    4.2162  -15.7849 C   0  0  0  0  0  0  0  0  0  0  0  0
   -7.0186    4.6479  -15.9009 C   0  0  0  0  0  0  0  0  0  0  0  0
  1  2  1  0
  2  3  1  0
  4  2  1  1
  4  5  1  0
  5  6  2  0
  5  7  1  0
  8  7  1  0
  8  9  1  6
  8 10  1  0
 10 11  1  0
 11 12  1  0
 12 13  1  0
  4 14  1  0
 14 15  1  0
 15 16  2  0
 16 17  1  0
 17 18  2  0
 18 19  1  0
 19 20  2  0
 20 21  1  0
 21 22  2  0
 13  8  1  0
 22 14  1  0
 22 17  1  0
M  END
>  <energy_score>  (2285) 
-9.238138

>  <alias>  (2285) 
None

>  <HIPPO Pose ID>  (2285) 
74098

>  <smiles>  (2285) 
CC(C)[C@@H](C(=O)N[C@@]1(C)CCOC1)n1cnc2ccccc21

>  <inchikey>  (2285) 
GHXNDDKXDQHCKZ-RDJZCZTQSA-N

>  <distance_score>  (2285) 
1.527555

>  <ref_mols>  (2285) 
Z0101a,Z3880a

>  <ref_pdb>  (2285) 
Z3880a

>  <HIPPO Compound ID>  (2285) 
147168

>  <name>  (2285) 
P74098

>  <inspiration_score>  (2285) 
None

$$$$
P74102
     RDKit          3D

 22 24  0  0  0  0  0  0  0  0999 V2000
   -4.9929    6.4320  -12.3212 C   0  0  0  0  0  0  0  0  0  0  0  0
   -6.4400    6.5106  -12.7852 C   0  0  0  0  0  0  0  0  0  0  0  0
   -6.6598    7.7712  -13.6168 C   0  0  0  0  0  0  0  0  0  0  0  0
   -6.9697    5.2238  -13.4527 C   0  0  2  0  0  0  0  0  0  0  0  0
   -6.9439    4.0913  -12.3920 C   0  0  0  0  0  0  0  0  0  0  0  0
   -6.1171    3.2674  -12.3231 O   0  0  0  0  0  0  0  0  0  0  0  0
   -8.1604    4.3896  -11.4488 N   0  0  0  0  0  0  0  0  0  0  0  0
   -8.5371    3.7940  -10.1929 C   0  0  1  0  0  0  0  0  0  0  0  0
   -8.5993    2.3031  -10.0280 C   0  0  0  0  0  0  0  0  0  0  0  0
   -8.8264    2.1956   -8.5204 C   0  0  0  0  0  0  0  0  0  0  0  0
   -8.3082    3.4069   -7.9163 O   0  0  0  0  0  0  0  0  0  0  0  0
   -7.7178    4.1803   -8.9754 C   0  0  2  0  0  0  0  0  0  0  0  0
   -7.7981    5.6539   -8.6388 C   0  0  0  0  0  0  0  0  0  0  0  0
   -6.4694    4.9115  -14.7950 N   0  0  0  0  0  0  0  0  0  0  0  0
   -5.2230    5.1080  -15.3338 C   0  0  0  0  0  0  0  0  0  0  0  0
   -5.2349    5.1087  -16.6507 N   0  0  0  0  0  0  0  0  0  0  0  0
   -6.5185    4.7698  -16.9897 C   0  0  0  0  0  0  0  0  0  0  0  0
   -7.0899    4.5612  -18.2489 C   0  0  0  0  0  0  0  0  0  0  0  0
   -8.4418    4.2120  -18.3150 C   0  0  0  0  0  0  0  0  0  0  0  0
   -9.2181    4.0987  -17.1690 C   0  0  0  0  0  0  0  0  0  0  0  0
   -8.6636    4.2922  -15.9087 C   0  0  0  0  0  0  0  0  0  0  0  0
   -7.3096    4.6289  -15.8533 C   0  0  0  0  0  0  0  0  0  0  0  0
  1  2  1  0
  2  3  1  0
  4  2  1  1
  4  5  1  0
  5  6  2  0
  5  7  1  0
  8  7  1  6
  8  9  1  0
  9 10  1  0
 10 11  1  0
 11 12  1  0
 12 13  1  1
  4 14  1  0
 14 15  1  0
 15 16  2  0
 16 17  1  0
 17 18  2  0
 18 19  1  0
 19 20  2  0
 20 21  1  0
 21 22  2  0
 12  8  1  0
 22 14  1  0
 22 17  1  0
M  END
>  <energy_score>  (2286) 
-9.32025

>  <alias>  (2286) 
None

>  <HIPPO Pose ID>  (2286) 
74102

>  <smiles>  (2286) 
CC(C)[C@H](C(=O)N[C@H]1CCO[C@@H]1C)n1cnc2ccccc21

>  <inchikey>  (2286) 
VYWJPUOYBDKUOF-DVOMOZLQSA-N

>  <distance_score>  (2286) 
1.557779

>  <ref_mols>  (2286) 
Z0101a,Z3880a

>  <ref_pdb>  (2286) 
Z3880a

>  <HIPPO Compound ID>  (2286) 
147169

>  <name>  (2286) 
P74102

>  <inspiration_score>  (2286) 
None

$$$$
P74106
     RDKit          3D

 22 25  0  0  0  0  0  0  0  0999 V2000
   -3.7054    7.2377  -21.0539 C   0  0  0  0  0  0  0  0  0  0  0  0
   -3.6735    6.7321  -19.6034 C   0  0  0  0  0  0  0  0  0  0  0  0
   -3.3046    5.2462  -19.6244 C   0  0  0  0  0  0  0  0  0  0  0  0
   -5.0371    6.9989  -18.9178 C   0  0  2  0  0  0  0  0  0  0  0  0
   -5.3724    8.5105  -18.6474 C   0  0  0  0  0  0  0  0  0  0  0  0
   -6.3603    8.9988  -19.0825 O   0  0  0  0  0  0  0  0  0  0  0  0
   -4.3107    9.0928  -17.7135 N   0  0  0  0  0  0  0  0  0  0  0  0
   -3.1567    9.8002  -18.5211 C   0  0  0  0  0  0  0  0  0  0  0  0
   -3.7500   11.1384  -18.1798 C   0  0  0  0  0  0  0  0  0  0  0  0
   -4.2561   10.3966  -17.0029 C   0  0  0  0  0  0  0  0  0  0  0  0
   -5.4654   10.9739  -16.3071 C   0  0  0  0  0  0  0  0  0  0  0  0
   -4.6296   11.4002  -15.1893 O   0  0  0  0  0  0  0  0  0  0  0  0
   -3.5442   10.5572  -15.6789 C   0  0  0  0  0  0  0  0  0  0  0  0
   -5.2597    6.2373  -17.6867 N   0  0  0  0  0  0  0  0  0  0  0  0
   -4.4844    6.3005  -16.5605 C   0  0  0  0  0  0  0  0  0  0  0  0
   -5.0856    5.7719  -15.5205 N   0  0  0  0  0  0  0  0  0  0  0  0
   -6.2606    5.2555  -16.0115 C   0  0  0  0  0  0  0  0  0  0  0  0
   -7.3040    4.6015  -15.3405 C   0  0  0  0  0  0  0  0  0  0  0  0
   -8.4040    4.1500  -16.0795 C   0  0  0  0  0  0  0  0  0  0  0  0
   -8.4486    4.3058  -17.4618 C   0  0  0  0  0  0  0  0  0  0  0  0
   -7.4197    4.9635  -18.1397 C   0  0  0  0  0  0  0  0  0  0  0  0
   -6.3568    5.4637  -17.3849 C   0  0  0  0  0  0  0  0  0  0  0  0
  1  2  1  0
  2  3  1  0
  4  2  1  1
  4  5  1  0
  5  6  2  0
  5  7  1  0
  7  8  1  0
  8  9  1  0
  9 10  1  0
 10 11  1  0
 11 12  1  0
 12 13  1  0
  4 14  1  0
 14 15  1  0
 15 16  2  0
 16 17  1  0
 17 18  2  0
 18 19  1  0
 19 20  2  0
 20 21  1  0
 21 22  2  0
 10  7  1  0
 22 14  1  0
 13 10  1  0
 22 17  1  0
M  END
>  <energy_score>  (2287) 
-13.42997

>  <alias>  (2287) 
None

>  <HIPPO Pose ID>  (2287) 
74106

>  <smiles>  (2287) 
CC(C)[C@H](C(=O)N1CCC12COC2)n1cnc2ccccc21

>  <inchikey>  (2287) 
PRIXENQZKNKPBE-OAHLLOKOSA-N

>  <distance_score>  (2287) 
1.892401

>  <ref_mols>  (2287) 
Z0101a,Z3880a

>  <ref_pdb>  (2287) 
Z3880a

>  <HIPPO Compound ID>  (2287) 
147177

>  <name>  (2287) 
P74106

>  <inspiration_score>  (2287) 
None

$$$$
P74110
     RDKit          3D

 22 24  0  0  0  0  0  0  0  0999 V2000
   -6.0330    6.9557  -12.6444 C   0  0  0  0  0  0  0  0  0  0  0  0
   -5.4134    5.5588  -12.6648 C   0  0  0  0  0  0  0  0  0  0  0  0
   -5.0188    5.1317  -11.2484 C   0  0  0  0  0  0  0  0  0  0  0  0
   -6.2901    4.5282  -13.4256 C   0  0  1  0  0  0  0  0  0  0  0  0
   -7.6787    4.5029  -12.7016 C   0  0  0  0  0  0  0  0  0  0  0  0
   -8.5465    5.2384  -12.9957 O   0  0  0  0  0  0  0  0  0  0  0  0
   -7.5898    3.4445  -11.5375 N   0  0  0  0  0  0  0  0  0  0  0  0
   -8.5362    3.1488  -10.4277 C   0  0  0  0  0  0  0  0  0  0  0  0
   -8.0248    2.2667   -9.2378 C   0  0  2  0  0  0  0  0  0  0  0  0
   -9.0323    1.5535   -8.4812 O   0  0  0  0  0  0  0  0  0  0  0  0
   -7.5625    3.5723   -8.5485 C   0  0  0  0  0  0  0  0  0  0  0  0
   -8.6210    4.3044   -9.3773 C   0  0  1  0  0  0  0  0  0  0  0  0
   -8.2733    5.6340   -9.8083 O   0  0  0  0  0  0  0  0  0  0  0  0
   -6.2599    4.8069  -14.8933 N   0  0  0  0  0  0  0  0  0  0  0  0
   -5.1095    5.1495  -15.5933 C   0  0  0  0  0  0  0  0  0  0  0  0
   -5.2928    5.2476  -16.8863 N   0  0  0  0  0  0  0  0  0  0  0  0
   -6.5911    4.8732  -17.0688 C   0  0  0  0  0  0  0  0  0  0  0  0
   -7.2836    4.7222  -18.2732 C   0  0  0  0  0  0  0  0  0  0  0  0
   -8.6205    4.3398  -18.2278 C   0  0  0  0  0  0  0  0  0  0  0  0
   -9.2556    4.1193  -17.0166 C   0  0  0  0  0  0  0  0  0  0  0  0
   -8.5698    4.2254  -15.8079 C   0  0  0  0  0  0  0  0  0  0  0  0
   -7.2302    4.6133  -15.8502 C   0  0  0  0  0  0  0  0  0  0  0  0
  1  2  1  0
  2  3  1  0
  4  2  1  1
  4  5  1  0
  5  6  2  0
  5  7  1  0
  7  8  1  0
  8  9  1  0
  9 10  1  1
  9 11  1  0
 11 12  1  0
 12 13  1  6
  4 14  1  0
 14 15  1  0
 15 16  2  0
 16 17  1  0
 17 18  2  0
 18 19  1  0
 19 20  2  0
 20 21  1  0
 21 22  2  0
 12  8  1  0
 22 14  1  0
 22 17  1  0
M  END
>  <energy_score>  (2288) 
-14.156212

>  <alias>  (2288) 
None

>  <HIPPO Pose ID>  (2288) 
74110

>  <smiles>  (2288) 
CC(C)[C@@H](C(=O)NC1[C@H](O)C[C@H]1O)n1cnc2ccccc21

>  <inchikey>  (2288) 
WITMMPWPFCVEMW-NFAWXSAZSA-N

>  <distance_score>  (2288) 
1.413567

>  <ref_mols>  (2288) 
Z0101a,Z3880a

>  <ref_pdb>  (2288) 
Z3880a

>  <HIPPO Compound ID>  (2288) 
147181

>  <name>  (2288) 
P74110

>  <inspiration_score>  (2288) 
None

$$$$
P74112
     RDKit          3D

 22 24  0  0  0  0  0  0  0  0999 V2000
   -6.2512    6.8831  -12.6532 C   0  0  0  0  0  0  0  0  0  0  0  0
   -7.4780    5.9769  -12.7585 C   0  0  0  0  0  0  0  0  0  0  0  0
   -8.5412    6.6424  -13.6042 C   0  0  0  0  0  0  0  0  0  0  0  0
   -7.1444    4.5422  -13.2545 C   0  0  2  0  0  0  0  0  0  0  0  0
   -6.4578    3.8550  -12.0612 C   0  0  0  0  0  0  0  0  0  0  0  0
   -5.3055    3.6566  -11.9704 O   0  0  0  0  0  0  0  0  0  0  0  0
   -7.6229    3.6094  -11.0217 N   0  0  0  0  0  0  0  0  0  0  0  0
   -7.5736    3.1600   -9.6310 C   0  0  2  0  0  0  0  0  0  0  0  0
   -8.5038    2.0013   -9.2563 C   0  0  0  0  0  0  0  0  0  0  0  0
   -9.2412    2.3537   -8.0605 O   0  0  0  0  0  0  0  0  0  0  0  0
   -8.6798    3.5643   -7.5529 C   0  0  0  0  0  0  0  0  0  0  0  0
   -8.1568    4.2754   -8.7674 C   0  0  1  0  0  0  0  0  0  0  0  0
   -7.2467    5.2244   -8.4754 F   0  0  0  0  0  0  0  0  0  0  0  0
   -6.5367    4.5575  -14.5955 N   0  0  0  0  0  0  0  0  0  0  0  0
   -5.2729    4.9133  -14.9936 C   0  0  0  0  0  0  0  0  0  0  0  0
   -5.1779    5.0527  -16.3026 N   0  0  0  0  0  0  0  0  0  0  0  0
   -6.4164    4.7178  -16.7914 C   0  0  0  0  0  0  0  0  0  0  0  0
   -6.8783    4.6170  -18.1102 C   0  0  0  0  0  0  0  0  0  0  0  0
   -8.2108    4.2447  -18.3246 C   0  0  0  0  0  0  0  0  0  0  0  0
   -9.0881    4.0461  -17.2696 C   0  0  0  0  0  0  0  0  0  0  0  0
   -8.6437    4.1413  -15.9592 C   0  0  0  0  0  0  0  0  0  0  0  0
   -7.2949    4.4436  -15.7493 C   0  0  0  0  0  0  0  0  0  0  0  0
  1  2  1  0
  2  3  1  0
  4  2  1  1
  4  5  1  0
  5  6  2  0
  5  7  1  0
  8  7  1  6
  8  9  1  0
  9 10  1  0
 10 11  1  0
 11 12  1  0
 12 13  1  1
  4 14  1  0
 14 15  1  0
 15 16  2  0
 16 17  1  0
 17 18  2  0
 18 19  1  0
 19 20  2  0
 20 21  1  0
 21 22  2  0
 12  8  1  0
 22 14  1  0
 22 17  1  0
M  END
>  <energy_score>  (2289) 
-6.831478

>  <alias>  (2289) 
None

>  <HIPPO Pose ID>  (2289) 
74112

>  <smiles>  (2289) 
CC(C)[C@H](C(=O)N[C@@H]1COC[C@H]1F)n1cnc2ccccc21

>  <inchikey>  (2289) 
HLXRKHFQUKAJPC-UXIGCNINSA-N

>  <distance_score>  (2289) 
1.55751

>  <ref_mols>  (2289) 
Z0101a,Z3880a

>  <ref_pdb>  (2289) 
Z3880a

>  <HIPPO Compound ID>  (2289) 
147182

>  <name>  (2289) 
P74112

>  <inspiration_score>  (2289) 
None

$$$$
P74116
     RDKit          3D

 22 25  0  0  0  0  0  0  0  0999 V2000
   -5.3555    6.3599  -11.6297 C   0  0  0  0  0  0  0  0  0  0  0  0
   -5.5300    6.3029  -13.1395 C   0  0  0  0  0  0  0  0  0  0  0  0
   -6.2389    7.5817  -13.6112 C   0  0  0  0  0  0  0  0  0  0  0  0
   -6.1880    4.9860  -13.6322 C   0  0  1  0  0  0  0  0  0  0  0  0
   -7.5374    4.8643  -12.8680 C   0  0  0  0  0  0  0  0  0  0  0  0
   -8.5144    5.4182  -13.2112 O   0  0  0  0  0  0  0  0  0  0  0  0
   -7.2567    3.9908  -11.5856 N   0  0  0  0  0  0  0  0  0  0  0  0
   -8.0797    3.7174  -10.4565 C   0  0  1  0  0  0  0  0  0  0  0  0
   -9.0829    2.6006  -10.5602 C   0  0  0  0  0  0  0  0  0  0  0  0
   -9.5501    2.3423   -9.2261 O   0  0  0  0  0  0  0  0  0  0  0  0
   -8.4009    2.5236   -8.3908 C   0  0  0  0  0  0  0  0  0  0  0  0
   -7.5944    3.6008   -9.0567 C   0  0  2  0  0  0  0  0  0  0  0  0
   -8.2720    4.8632   -9.4713 C   0  0  0  0  0  0  0  0  0  0  0  0
   -6.1687    4.9500  -15.1110 N   0  0  0  0  0  0  0  0  0  0  0  0
   -5.0180    5.1970  -15.8467 C   0  0  0  0  0  0  0  0  0  0  0  0
   -5.2244    5.1933  -17.1380 N   0  0  0  0  0  0  0  0  0  0  0  0
   -6.5346    4.8276  -17.2636 C   0  0  0  0  0  0  0  0  0  0  0  0
   -7.2579    4.6086  -18.4357 C   0  0  0  0  0  0  0  0  0  0  0  0
   -8.5984    4.2489  -18.3311 C   0  0  0  0  0  0  0  0  0  0  0  0
   -9.2054    4.0944  -17.0956 C   0  0  0  0  0  0  0  0  0  0  0  0
   -8.4868    4.2615  -15.9153 C   0  0  0  0  0  0  0  0  0  0  0  0
   -7.1519    4.6577  -16.0186 C   0  0  0  0  0  0  0  0  0  0  0  0
  1  2  1  0
  2  3  1  0
  4  2  1  6
  4  5  1  0
  5  6  2  0
  5  7  1  0
  8  7  1  6
  8  9  1  0
  9 10  1  0
 10 11  1  0
 12 11  1  1
 12 13  1  0
  4 14  1  0
 14 15  1  0
 15 16  2  0
 16 17  1  0
 17 18  2  0
 18 19  1  0
 19 20  2  0
 20 21  1  0
 21 22  2  0
 12  8  1  0
 22 14  1  0
 13  8  1  0
 22 17  1  0
M  END
>  <energy_score>  (2290) 
-7.180935

>  <alias>  (2290) 
None

>  <HIPPO Pose ID>  (2290) 
74116

>  <smiles>  (2290) 
CC(C)[C@@H](C(=O)N[C@@]12COC[C@@H]1C2)n1cnc2ccccc21

>  <inchikey>  (2290) 
PEMGNADLINHTMB-NUTKFTJISA-N

>  <distance_score>  (2290) 
1.614088

>  <ref_mols>  (2290) 
Z0101a,Z3880a

>  <ref_pdb>  (2290) 
Z3880a

>  <HIPPO Compound ID>  (2290) 
147183

>  <name>  (2290) 
P74116

>  <inspiration_score>  (2290) 
None

$$$$
P74118
     RDKit          3D

 22 24  0  0  0  0  0  0  0  0999 V2000
   -6.0724    7.0618  -12.0968 C   0  0  0  0  0  0  0  0  0  0  0  0
   -6.9542    6.3119  -13.0869 C   0  0  0  0  0  0  0  0  0  0  0  0
   -8.4117    6.3834  -12.6406 C   0  0  0  0  0  0  0  0  0  0  0  0
   -6.3962    4.8918  -13.3454 C   0  0  1  0  0  0  0  0  0  0  0  0
   -7.1680    3.7612  -12.5832 C   0  0  0  0  0  0  0  0  0  0  0  0
   -7.8796    3.0144  -13.1241 O   0  0  0  0  0  0  0  0  0  0  0  0
   -6.8141    3.9016  -11.0745 N   0  0  0  0  0  0  0  0  0  0  0  0
   -7.3437    3.2055   -9.9115 C   0  0  2  0  0  0  0  0  0  0  0  0
   -8.7596    2.6532   -9.9710 C   0  0  0  0  0  0  0  0  0  0  0  0
   -9.2290    2.5380   -8.6106 O   0  0  0  0  0  0  0  0  0  0  0  0
   -8.6548    3.6170   -7.8601 C   0  0  0  0  0  0  0  0  0  0  0  0
   -7.6196    4.1729   -8.7947 C   0  0  0  0  0  0  0  0  0  0  0  0
   -7.0893    5.2740   -8.6765 O   0  0  0  0  0  0  0  0  0  0  0  0
   -6.2080    4.7486  -14.8149 N   0  0  0  0  0  0  0  0  0  0  0  0
   -5.0337    5.0990  -15.4610 C   0  0  0  0  0  0  0  0  0  0  0  0
   -5.1627    5.1406  -16.7665 N   0  0  0  0  0  0  0  0  0  0  0  0
   -6.4703    4.7963  -16.9956 C   0  0  0  0  0  0  0  0  0  0  0  0
   -7.1443    4.6520  -18.2143 C   0  0  0  0  0  0  0  0  0  0  0  0
   -8.5005    4.3238  -18.1925 C   0  0  0  0  0  0  0  0  0  0  0  0
   -9.1800    4.1720  -16.9920 C   0  0  0  0  0  0  0  0  0  0  0  0
   -8.5241    4.3049  -15.7700 C   0  0  0  0  0  0  0  0  0  0  0  0
   -7.1596    4.5963  -15.7963 C   0  0  0  0  0  0  0  0  0  0  0  0
  1  2  1  0
  2  3  1  0
  4  2  1  6
  4  5  1  0
  5  6  2  0
  5  7  1  0
  8  7  1  6
  8  9  1  0
  9 10  1  0
 10 11  1  0
 11 12  1  0
 12 13  2  0
  4 14  1  0
 14 15  1  0
 15 16  2  0
 16 17  1  0
 17 18  2  0
 18 19  1  0
 19 20  2  0
 20 21  1  0
 21 22  2  0
 12  8  1  0
 22 14  1  0
 22 17  1  0
M  END
>  <energy_score>  (2291) 
-14.211575

>  <alias>  (2291) 
None

>  <HIPPO Pose ID>  (2291) 
74118

>  <smiles>  (2291) 
CC(C)[C@@H](C(=O)N[C@@H]1COCC1=O)n1cnc2ccccc21

>  <inchikey>  (2291) 
DSXXMNVLOYBSHB-DOMZBBRYSA-N

>  <distance_score>  (2291) 
1.57497

>  <ref_mols>  (2291) 
Z0101a,Z3880a

>  <ref_pdb>  (2291) 
Z3880a

>  <HIPPO Compound ID>  (2291) 
147185

>  <name>  (2291) 
P74118

>  <inspiration_score>  (2291) 
None

$$$$
P74126
     RDKit          3D

 22 24  0  0  0  0  0  0  0  0999 V2000
   -5.8897    6.9445  -12.6513 C   0  0  0  0  0  0  0  0  0  0  0  0
   -5.3336    5.5207  -12.6809 C   0  0  0  0  0  0  0  0  0  0  0  0
   -4.9303    5.0795  -11.2717 C   0  0  0  0  0  0  0  0  0  0  0  0
   -6.2676    4.5328  -13.4315 C   0  0  1  0  0  0  0  0  0  0  0  0
   -7.6511    4.5815  -12.6980 C   0  0  0  0  0  0  0  0  0  0  0  0
   -8.4870    5.3496  -13.0026 O   0  0  0  0  0  0  0  0  0  0  0  0
   -7.6030    3.5429  -11.5129 N   0  0  0  0  0  0  0  0  0  0  0  0
   -8.5530    3.3125  -10.3953 C   0  0  1  0  0  0  0  0  0  0  0  0
   -8.0761    2.4210   -9.2031 C   0  0  2  0  0  0  0  0  0  0  0  0
   -9.1584    1.7653   -8.3440 C   0  0  0  0  0  0  0  0  0  0  0  0
   -7.5335    3.7077   -8.5337 C   0  0  0  0  0  0  0  0  0  0  0  0
   -8.5529    4.4968   -9.3662 C   0  0  1  0  0  0  0  0  0  0  0  0
   -8.1312    5.7908   -9.8317 O   0  0  0  0  0  0  0  0  0  0  0  0
   -6.2428    4.8136  -14.8999 N   0  0  0  0  0  0  0  0  0  0  0  0
   -5.1007    5.1571  -15.6125 C   0  0  0  0  0  0  0  0  0  0  0  0
   -5.2977    5.2550  -16.9036 N   0  0  0  0  0  0  0  0  0  0  0  0
   -6.5964    4.8783  -17.0724 C   0  0  0  0  0  0  0  0  0  0  0  0
   -7.3006    4.7269  -18.2696 C   0  0  0  0  0  0  0  0  0  0  0  0
   -8.6368    4.3449  -18.2104 C   0  0  0  0  0  0  0  0  0  0  0  0
   -9.2585    4.1231  -16.9918 C   0  0  0  0  0  0  0  0  0  0  0  0
   -8.5608    4.2288  -15.7894 C   0  0  0  0  0  0  0  0  0  0  0  0
   -7.2224    4.6182  -15.8476 C   0  0  0  0  0  0  0  0  0  0  0  0
  1  2  1  0
  2  3  1  0
  4  2  1  1
  4  5  1  0
  5  6  2  0
  5  7  1  0
  8  7  1  6
  8  9  1  0
  9 10  1  1
  9 11  1  0
 11 12  1  0
 12 13  1  6
  4 14  1  0
 14 15  1  0
 15 16  2  0
 16 17  1  0
 17 18  2  0
 18 19  1  0
 19 20  2  0
 20 21  1  0
 21 22  2  0
 12  8  1  0
 22 14  1  0
 22 17  1  0
M  END
>  <energy_score>  (2292) 
-5.664692

>  <alias>  (2292) 
None

>  <HIPPO Pose ID>  (2292) 
74126

>  <smiles>  (2292) 
CC(C)[C@@H](C(=O)N[C@H]1[C@H](C)C[C@H]1O)n1cnc2ccccc21

>  <inchikey>  (2292) 
HAHFBBIETPGFOX-FWYOQMDTSA-N

>  <distance_score>  (2292) 
1.41546

>  <ref_mols>  (2292) 
Z0101a,Z3880a

>  <ref_pdb>  (2292) 
Z3880a

>  <HIPPO Compound ID>  (2292) 
147189

>  <name>  (2292) 
P74126

>  <inspiration_score>  (2292) 
None

$$$$
P74140
     RDKit          3D

 22 24  0  0  0  0  0  0  0  0999 V2000
   -2.2142    7.2090  -13.6355 C   0  0  0  0  0  0  0  0  0  0  0  0
   -3.5437    6.9467  -14.3247 C   0  0  0  0  0  0  0  0  0  0  0  0
   -3.7205    5.4642  -14.6492 C   0  0  0  0  0  0  0  0  0  0  0  0
   -5.0175    5.2040  -15.3457 C   0  0  0  0  0  0  0  0  0  0  0  0
   -5.1569    5.2179  -16.6579 N   0  0  0  0  0  0  0  0  0  0  0  0
   -6.4558    4.8624  -16.8959 C   0  0  0  0  0  0  0  0  0  0  0  0
   -7.1146    4.6826  -18.1195 C   0  0  0  0  0  0  0  0  0  0  0  0
   -8.4650    4.3316  -18.1067 C   0  0  0  0  0  0  0  0  0  0  0  0
   -9.1496    4.1847  -16.9071 C   0  0  0  0  0  0  0  0  0  0  0  0
   -8.5084    4.3562  -15.6801 C   0  0  0  0  0  0  0  0  0  0  0  0
   -7.1509    4.6856  -15.7013 C   0  0  0  0  0  0  0  0  0  0  0  0
   -6.2204    4.9064  -14.7038 N   0  0  0  0  0  0  0  0  0  0  0  0
   -6.5098    5.1000  -13.2623 C   0  0  1  0  0  0  0  0  0  0  0  0
   -7.3927    6.3334  -13.0877 C   0  0  0  0  0  0  0  0  0  0  0  0
   -7.1485    3.9136  -12.4788 C   0  0  0  0  0  0  0  0  0  0  0  0
   -7.7096    3.0338  -13.0022 O   0  0  0  0  0  0  0  0  0  0  0  0
   -6.9604    4.2325  -10.9591 N   0  0  0  0  0  0  0  0  0  0  0  0
   -7.3496    3.4703   -9.7761 C   0  0  2  0  0  0  0  0  0  0  0  0
   -8.7000    2.7916   -9.8579 C   0  0  0  0  0  0  0  0  0  0  0  0
   -9.0745    2.6355   -8.4000 C   0  0  0  0  0  0  0  0  0  0  0  0
   -8.6201    3.8386   -7.7579 O   0  0  0  0  0  0  0  0  0  0  0  0
   -7.5258    4.3464   -8.5333 C   0  0  0  0  0  0  0  0  0  0  0  0
  1  2  1  0
  2  3  1  0
  3  4  1  0
  4  5  2  0
  5  6  1  0
  6  7  2  0
  7  8  1  0
  8  9  2  0
  9 10  1  0
 10 11  2  0
 11 12  1  0
 12 13  1  0
 13 14  1  6
 13 15  1  0
 15 16  2  0
 15 17  1  0
 18 17  1  6
 18 19  1  0
 19 20  1  0
 20 21  1  0
 21 22  1  0
 12  4  1  0
 22 18  1  0
 11  6  1  0
M  END
>  <energy_score>  (2293) 
-9.087419

>  <alias>  (2293) 
None

>  <HIPPO Pose ID>  (2293) 
74140

>  <smiles>  (2293) 
CCCc1nc2ccccc2n1[C@@H](C)C(=O)N[C@@H]1CCOC1

>  <inchikey>  (2293) 
DVEUREJFXMGPLM-QWHCGFSZSA-N

>  <distance_score>  (2293) 
1.634268

>  <ref_mols>  (2293) 
Z0101a,Z3880a

>  <ref_pdb>  (2293) 
Z3880a

>  <HIPPO Compound ID>  (2293) 
147202

>  <name>  (2293) 
P74140

>  <inspiration_score>  (2293) 
None

$$$$
P74145
     RDKit          3D

 22 24  0  0  0  0  0  0  0  0999 V2000
   -3.6792    5.4525  -14.9054 C   0  0  0  0  0  0  0  0  0  0  0  0
   -4.9718    5.1520  -15.5729 C   0  0  0  0  0  0  0  0  0  0  0  0
   -5.1514    5.1802  -16.8774 N   0  0  0  0  0  0  0  0  0  0  0  0
   -6.4562    4.8214  -17.0744 C   0  0  0  0  0  0  0  0  0  0  0  0
   -7.1499    4.6562  -18.2787 C   0  0  0  0  0  0  0  0  0  0  0  0
   -8.5012    4.3134  -18.2309 C   0  0  0  0  0  0  0  0  0  0  0  0
   -9.1565    4.1646  -17.0184 C   0  0  0  0  0  0  0  0  0  0  0  0
   -8.4774    4.3159  -15.8119 C   0  0  0  0  0  0  0  0  0  0  0  0
   -7.1164    4.6291  -15.8611 C   0  0  0  0  0  0  0  0  0  0  0  0
   -6.1470    4.8109  -14.8964 N   0  0  0  0  0  0  0  0  0  0  0  0
   -6.3476    4.9604  -13.4259 C   0  0  2  0  0  0  0  0  0  0  0  0
   -7.0932    3.8164  -12.6641 C   0  0  0  0  0  0  0  0  0  0  0  0
   -7.8428    3.0965  -13.1937 O   0  0  0  0  0  0  0  0  0  0  0  0
   -6.6685    3.9080  -11.1631 N   0  0  0  0  0  0  0  0  0  0  0  0
   -7.1650    3.1792   -9.9835 C   0  0  2  0  0  0  0  0  0  0  0  0
   -8.6530    2.7512   -9.9903 C   0  0  0  0  0  0  0  0  0  0  0  0
   -8.7127    3.1391   -8.4981 C   0  0  0  0  0  0  0  0  0  0  0  0
   -7.5451    4.1070   -8.7821 C   0  0  2  0  0  0  0  0  0  0  0  0
   -7.9144    5.4688   -9.1163 O   0  0  0  0  0  0  0  0  0  0  0  0
   -6.9393    6.3675  -13.1683 C   0  0  0  0  0  0  0  0  0  0  0  0
   -6.1499    7.1024  -12.0916 C   0  0  0  0  0  0  0  0  0  0  0  0
   -8.4269    6.4147  -12.8275 C   0  0  0  0  0  0  0  0  0  0  0  0
  1  2  1  0
  2  3  2  0
  3  4  1  0
  4  5  2  0
  5  6  1  0
  6  7  2  0
  7  8  1  0
  8  9  2  0
  9 10  1  0
 10 11  1  0
 11 12  1  0
 12 13  2  0
 12 14  1  0
 15 14  1  6
 15 16  1  0
 16 17  1  0
 17 18  1  0
 18 19  1  6
 11 20  1  6
 20 21  1  0
 20 22  1  0
 10  2  1  0
 18 15  1  0
  9  4  1  0
M  END
>  <energy_score>  (2294) 
-10.418912

>  <alias>  (2294) 
None

>  <HIPPO Pose ID>  (2294) 
74145

>  <smiles>  (2294) 
Cc1nc2ccccc2n1[C@H](C(=O)N[C@@H]1CC[C@@H]1O)C(C)C

>  <inchikey>  (2294) 
SZFSYAVFSJPXMX-KBMXLJTQSA-N

>  <distance_score>  (2294) 
1.692394

>  <ref_mols>  (2294) 
Z0101a,Z3880a

>  <ref_pdb>  (2294) 
Z3880a

>  <HIPPO Compound ID>  (2294) 
147209

>  <name>  (2294) 
P74145

>  <inspiration_score>  (2294) 
None

$$$$
P74151
     RDKit          3D

 22 24  0  0  0  0  0  0  0  0999 V2000
   -3.1531    6.8534  -15.4646 C   0  0  0  0  0  0  0  0  0  0  0  0
   -3.7284    5.5127  -15.0312 C   0  0  0  0  0  0  0  0  0  0  0  0
   -5.0573    5.2515  -15.6713 C   0  0  0  0  0  0  0  0  0  0  0  0
   -5.2252    5.2105  -16.9761 N   0  0  0  0  0  0  0  0  0  0  0  0
   -6.5222    4.8370  -17.1655 C   0  0  0  0  0  0  0  0  0  0  0  0
   -7.1856    4.5993  -18.3722 C   0  0  0  0  0  0  0  0  0  0  0  0
   -8.5266    4.2278  -18.3333 C   0  0  0  0  0  0  0  0  0  0  0  0
   -9.1955    4.1000  -17.1285 C   0  0  0  0  0  0  0  0  0  0  0  0
   -8.5385    4.3025  -15.9174 C   0  0  0  0  0  0  0  0  0  0  0  0
   -7.1960    4.6882  -15.9517 C   0  0  0  0  0  0  0  0  0  0  0  0
   -6.2581    4.9927  -14.9927 N   0  0  0  0  0  0  0  0  0  0  0  0
   -6.4237    5.1377  -13.5326 C   0  0  1  0  0  0  0  0  0  0  0  0
   -6.3811    6.6215  -13.1718 C   0  0  0  0  0  0  0  0  0  0  0  0
   -7.7066    4.6372  -12.8150 C   0  0  0  0  0  0  0  0  0  0  0  0
   -8.7654    5.0840  -13.0465 O   0  0  0  0  0  0  0  0  0  0  0  0
   -7.2627    3.5858  -11.7443 N   0  0  0  0  0  0  0  0  0  0  0  0
   -8.0359    2.9312  -10.6569 C   0  0  1  0  0  0  0  0  0  0  0  0
   -7.1254    2.0336   -9.7816 C   0  0  0  0  0  0  0  0  0  0  0  0
   -6.8181    3.2021   -8.9431 O   0  0  0  0  0  0  0  0  0  0  0  0
   -8.1239    3.7589   -9.3095 C   0  0  0  0  0  0  0  0  0  0  0  0
   -9.1521    3.3163   -8.2618 C   0  0  0  0  0  0  0  0  0  0  0  0
   -8.0243    5.2747   -9.4098 C   0  0  0  0  0  0  0  0  0  0  0  0
  1  2  1  0
  2  3  1  0
  3  4  2  0
  4  5  1  0
  5  6  2  0
  6  7  1  0
  7  8  2  0
  8  9  1  0
  9 10  2  0
 10 11  1  0
 11 12  1  0
 12 13  1  6
 12 14  1  0
 14 15  2  0
 14 16  1  0
 17 16  1  6
 17 18  1  0
 18 19  1  0
 19 20  1  0
 20 21  1  0
 20 22  1  0
 11  3  1  0
 20 17  1  0
 10  5  1  0
M  END
>  <energy_score>  (2295) 
-10.976641

>  <alias>  (2295) 
None

>  <HIPPO Pose ID>  (2295) 
74151

>  <smiles>  (2295) 
CCc1nc2ccccc2n1[C@@H](C)C(=O)N[C@H]1COC1(C)C

>  <inchikey>  (2295) 
QAMQSBATQNJDDQ-FZMZJTMJSA-N

>  <distance_score>  (2295) 
1.578719

>  <ref_mols>  (2295) 
Z0101a,Z3880a

>  <ref_pdb>  (2295) 
Z3880a

>  <HIPPO Compound ID>  (2295) 
147214

>  <name>  (2295) 
P74151

>  <inspiration_score>  (2295) 
None

$$$$
P74155
     RDKit          3D

 22 24  0  0  0  0  0  0  0  0999 V2000
   -3.0851    4.8764  -14.1811 C   0  0  0  0  0  0  0  0  0  0  0  0
   -4.2982    5.7920  -14.1899 C   0  0  0  0  0  0  0  0  0  0  0  0
   -5.3771    5.2833  -15.0906 C   0  0  0  0  0  0  0  0  0  0  0  0
   -5.2865    5.2854  -16.4126 N   0  0  0  0  0  0  0  0  0  0  0  0
   -6.4864    4.8242  -16.8777 C   0  0  0  0  0  0  0  0  0  0  0  0
   -6.9256    4.6108  -18.1896 C   0  0  0  0  0  0  0  0  0  0  0  0
   -8.2369    4.1686  -18.3903 C   0  0  0  0  0  0  0  0  0  0  0  0
   -9.1123    3.9996  -17.3292 C   0  0  0  0  0  0  0  0  0  0  0  0
   -8.6842    4.1921  -16.0227 C   0  0  0  0  0  0  0  0  0  0  0  0
   -7.3536    4.5750  -15.8236 C   0  0  0  0  0  0  0  0  0  0  0  0
   -6.6090    4.8021  -14.6743 N   0  0  0  0  0  0  0  0  0  0  0  0
   -7.2521    4.7762  -13.3442 C   0  0  2  0  0  0  0  0  0  0  0  0
   -7.6051    6.1865  -12.9002 C   0  0  0  0  0  0  0  0  0  0  0  0
   -6.6013    3.9885  -12.1907 C   0  0  0  0  0  0  0  0  0  0  0  0
   -5.4421    3.8428  -12.0738 O   0  0  0  0  0  0  0  0  0  0  0  0
   -7.7890    3.5641  -11.2326 N   0  0  0  0  0  0  0  0  0  0  0  0
   -7.7627    2.9537   -9.8787 C   0  0  2  0  0  0  0  0  0  0  0  0
   -6.8158    1.7798   -9.8436 C   0  0  0  0  0  0  0  0  0  0  0  0
   -9.1537    2.5821   -9.2957 C   0  0  0  0  0  0  0  0  0  0  0  0
   -8.7671    3.2626   -7.9728 C   0  0  0  0  0  0  0  0  0  0  0  0
   -7.6753    4.0359   -8.7404 C   0  0  2  0  0  0  0  0  0  0  0  0
   -8.0416    5.3918   -9.1153 O   0  0  0  0  0  0  0  0  0  0  0  0
  1  2  1  0
  2  3  1  0
  3  4  2  0
  4  5  1  0
  5  6  2  0
  6  7  1  0
  7  8  2  0
  8  9  1  0
  9 10  2  0
 10 11  1  0
 11 12  1  0
 12 13  1  1
 12 14  1  0
 14 15  2  0
 14 16  1  0
 17 16  1  0
 17 18  1  6
 17 19  1  0
 19 20  1  0
 20 21  1  0
 21 22  1  6
 11  3  1  0
 21 17  1  0
 10  5  1  0
M  END
>  <energy_score>  (2296) 
-15.23435

>  <alias>  (2296) 
None

>  <HIPPO Pose ID>  (2296) 
74155

>  <smiles>  (2296) 
CCc1nc2ccccc2n1[C@H](C)C(=O)N[C@]1(C)CC[C@@H]1O

>  <inchikey>  (2296) 
RIQZFIYZGJGESK-HYSWKAIVSA-N

>  <distance_score>  (2296) 
1.679836

>  <ref_mols>  (2296) 
Z0101a,Z3880a

>  <ref_pdb>  (2296) 
Z3880a

>  <HIPPO Compound ID>  (2296) 
147216

>  <name>  (2296) 
P74155

>  <inspiration_score>  (2296) 
None

$$$$
P74158
     RDKit          3D

 22 25  0  0  0  0  0  0  0  0999 V2000
   -6.1267    6.5887  -12.9391 O   0  0  0  0  0  0  0  0  0  0  0  0
   -6.5113    5.5079  -13.1382 C   0  0  0  0  0  0  0  0  0  0  0  0
   -6.4704    4.2539  -12.2458 N   0  0  0  0  0  0  0  0  0  0  0  0
   -6.0276    4.0866  -10.8656 C   0  0  0  0  0  0  0  0  0  0  0  0
   -4.4978    4.1877  -10.7876 C   0  0  0  0  0  0  0  0  0  0  0  0
   -3.8722    3.1836  -11.5864 O   0  0  0  0  0  0  0  0  0  0  0  0
   -6.5915    2.7572  -10.3274 C   0  0  0  0  0  0  0  0  0  0  0  0
   -8.0421    3.0523   -9.9289 C   0  0  0  0  0  0  0  0  0  0  0  0
   -8.1443    4.5705   -9.7877 C   0  0  0  0  0  0  0  0  0  0  0  0
   -6.7243    5.1007   -9.9451 C   0  0  0  0  0  0  0  0  0  0  0  0
   -7.2769    5.2208  -14.4200 C   0  0  0  0  0  0  0  0  0  0  0  0
   -6.5021    5.2701  -15.7155 N   0  0  0  0  0  0  0  0  0  0  0  0
   -5.2474    5.7963  -15.8719 C   0  0  0  0  0  0  0  0  0  0  0  0
   -4.8186    5.6843  -17.1083 N   0  0  0  0  0  0  0  0  0  0  0  0
   -5.8393    5.0557  -17.7723 C   0  0  0  0  0  0  0  0  0  0  0  0
   -5.8780    4.6400  -19.1025 C   0  0  0  0  0  0  0  0  0  0  0  0
   -6.9971    3.9418  -19.5371 C   0  0  0  0  0  0  0  0  0  0  0  0
   -8.1205    3.7992  -18.7281 C   0  0  0  0  0  0  0  0  0  0  0  0
   -8.1303    4.2735  -17.4281 C   0  0  0  0  0  0  0  0  0  0  0  0
   -6.9412    4.8329  -16.9460 C   0  0  0  0  0  0  0  0  0  0  0  0
   -8.4837    4.3050  -14.2294 C   0  0  0  0  0  0  0  0  0  0  0  0
   -8.7173    5.7520  -14.4505 C   0  0  0  0  0  0  0  0  0  0  0  0
  1  2  2  0
  2  3  1  0
  3  4  1  0
  4  5  1  0
  5  6  1  0
  4  7  1  0
  7  8  1  0
  8  9  1  0
  9 10  1  0
  2 11  1  0
 11 12  1  0
 12 13  1  0
 13 14  2  0
 14 15  1  0
 15 16  2  0
 16 17  1  0
 17 18  2  0
 18 19  1  0
 19 20  2  0
 11 21  1  0
 21 22  1  0
 10  4  1  0
 22 11  1  0
 20 12  1  0
 20 15  1  0
M  END
>  <energy_score>  (2297) 
-4.781701

>  <alias>  (2297) 
None

>  <HIPPO Pose ID>  (2297) 
74158

>  <smiles>  (2297) 
O=C(NC1(CO)CCCC1)C1(n2cnc3ccccc32)CC1

>  <inchikey>  (2297) 
WLHMAMKPTLRJAP-UHFFFAOYSA-N

>  <distance_score>  (2297) 
1.62389

>  <ref_mols>  (2297) 
Z0101a,Z3880a

>  <ref_pdb>  (2297) 
Z3880a

>  <HIPPO Compound ID>  (2297) 
147222

>  <name>  (2297) 
P74158

>  <inspiration_score>  (2297) 
None

$$$$
P74159
     RDKit          3D

 22 24  0  0  0  0  0  0  0  0999 V2000
   -2.5959    5.8671  -15.7261 C   0  0  0  0  0  0  0  0  0  0  0  0
   -3.7865    5.7360  -14.7890 C   0  0  0  0  0  0  0  0  0  0  0  0
   -5.0445    5.3571  -15.5044 C   0  0  0  0  0  0  0  0  0  0  0  0
   -5.1842    5.2857  -16.8144 N   0  0  0  0  0  0  0  0  0  0  0  0
   -6.4714    4.8753  -17.0296 C   0  0  0  0  0  0  0  0  0  0  0  0
   -7.1336    4.6325  -18.2380 C   0  0  0  0  0  0  0  0  0  0  0  0
   -8.4772    4.2568  -18.1974 C   0  0  0  0  0  0  0  0  0  0  0  0
   -9.1479    4.1273  -16.9877 C   0  0  0  0  0  0  0  0  0  0  0  0
   -8.4968    4.3395  -15.7740 C   0  0  0  0  0  0  0  0  0  0  0  0
   -7.1547    4.7225  -15.8267 C   0  0  0  0  0  0  0  0  0  0  0  0
   -6.2380    5.0528  -14.8514 N   0  0  0  0  0  0  0  0  0  0  0  0
   -6.5582    5.3803  -13.4451 C   0  0  1  0  0  0  0  0  0  0  0  0
   -7.5250    6.5612  -13.4078 C   0  0  0  0  0  0  0  0  0  0  0  0
   -7.1013    4.2342  -12.5481 C   0  0  0  0  0  0  0  0  0  0  0  0
   -7.4963    3.2158  -12.9592 O   0  0  0  0  0  0  0  0  0  0  0  0
   -7.0103    4.7662  -11.0805 N   0  0  0  0  0  0  0  0  0  0  0  0
   -7.3033    4.1022   -9.8105 C   0  0  2  0  0  0  0  0  0  0  0  0
   -5.9552    3.7275   -9.1885 C   0  0  0  0  0  0  0  0  0  0  0  0
   -8.2644    2.9190   -9.8758 C   0  0  0  0  0  0  0  0  0  0  0  0
   -8.8929    2.8738   -8.4911 C   0  0  0  0  0  0  0  0  0  0  0  0
   -8.7790    4.1919   -7.9231 O   0  0  0  0  0  0  0  0  0  0  0  0
   -8.0847    5.0185   -8.8625 C   0  0  0  0  0  0  0  0  0  0  0  0
  1  2  1  0
  2  3  1  0
  3  4  2  0
  4  5  1  0
  5  6  2  0
  6  7  1  0
  7  8  2  0
  8  9  1  0
  9 10  2  0
 10 11  1  0
 11 12  1  0
 12 13  1  6
 12 14  1  0
 14 15  2  0
 14 16  1  0
 17 16  1  0
 17 18  1  1
 17 19  1  0
 19 20  1  0
 20 21  1  0
 21 22  1  0
 11  3  1  0
 22 17  1  0
 10  5  1  0
M  END
>  <energy_score>  (2298) 
-20.60364

>  <alias>  (2298) 
None

>  <HIPPO Pose ID>  (2298) 
74159

>  <smiles>  (2298) 
CCc1nc2ccccc2n1[C@@H](C)C(=O)N[C@]1(C)CCOC1

>  <inchikey>  (2298) 
KWMWIYAVIMHASN-YVEFUNNKSA-N

>  <distance_score>  (2298) 
1.693243

>  <ref_mols>  (2298) 
Z0101a,Z3880a

>  <ref_pdb>  (2298) 
Z3880a

>  <HIPPO Compound ID>  (2298) 
147228

>  <name>  (2298) 
P74159

>  <inspiration_score>  (2298) 
None

$$$$
P74164
     RDKit          3D

 22 24  0  0  0  0  0  0  0  0999 V2000
   -3.0743    6.6493  -14.7647 C   0  0  0  0  0  0  0  0  0  0  0  0
   -4.5325    6.9324  -14.4403 C   0  0  0  0  0  0  0  0  0  0  0  0
   -5.4653    6.0801  -15.2388 C   0  0  0  0  0  0  0  0  0  0  0  0
   -5.4998    6.0392  -16.5605 N   0  0  0  0  0  0  0  0  0  0  0  0
   -6.6261    5.3315  -16.8805 C   0  0  0  0  0  0  0  0  0  0  0  0
   -7.1555    5.0007  -18.1326 C   0  0  0  0  0  0  0  0  0  0  0  0
   -8.3957    4.3598  -18.1785 C   0  0  0  0  0  0  0  0  0  0  0  0
   -9.0942    4.0678  -17.0130 C   0  0  0  0  0  0  0  0  0  0  0  0
   -8.5499    4.3235  -15.7570 C   0  0  0  0  0  0  0  0  0  0  0  0
   -7.3056    4.9512  -15.7295 C   0  0  0  0  0  0  0  0  0  0  0  0
   -6.4539    5.2724  -14.6888 N   0  0  0  0  0  0  0  0  0  0  0  0
   -6.3982    4.4494  -13.4628 C   0  0  1  0  0  0  0  0  0  0  0  0
   -4.9759    4.0400  -13.1166 C   0  0  0  0  0  0  0  0  0  0  0  0
   -7.0667    4.9887  -12.1865 C   0  0  0  0  0  0  0  0  0  0  0  0
   -7.3369    6.1176  -12.0137 O   0  0  0  0  0  0  0  0  0  0  0  0
   -7.1792    3.7499  -11.2124 N   0  0  0  0  0  0  0  0  0  0  0  0
   -7.5568    3.6845   -9.8062 C   0  0  2  0  0  0  0  0  0  0  0  0
   -8.4297    2.4796   -9.4972 C   0  0  0  0  0  0  0  0  0  0  0  0
   -9.0576    2.8341   -8.1666 C   0  0  0  0  0  0  0  0  0  0  0  0
   -9.0552    4.2661   -8.0627 O   0  0  0  0  0  0  0  0  0  0  0  0
   -8.3837    4.8118   -9.2170 C   0  0  1  0  0  0  0  0  0  0  0  0
   -7.5677    5.9966   -8.7539 C   0  0  0  0  0  0  0  0  0  0  0  0
  1  2  1  0
  2  3  1  0
  3  4  2  0
  4  5  1  0
  5  6  2  0
  6  7  1  0
  7  8  2  0
  8  9  1  0
  9 10  2  0
 10 11  1  0
 11 12  1  0
 12 13  1  1
 12 14  1  0
 14 15  2  0
 14 16  1  0
 17 16  1  6
 17 18  1  0
 18 19  1  0
 19 20  1  0
 20 21  1  0
 21 22  1  1
 11  3  1  0
 21 17  1  0
 10  5  1  0
M  END
>  <energy_score>  (2299) 
-0.077105

>  <alias>  (2299) 
None

>  <HIPPO Pose ID>  (2299) 
74164

>  <smiles>  (2299) 
CCc1nc2ccccc2n1[C@@H](C)C(=O)N[C@@H]1CCO[C@H]1C

>  <inchikey>  (2299) 
UJLMVNKLDLLNBT-RWMBFGLXSA-N

>  <distance_score>  (2299) 
1.575201

>  <ref_mols>  (2299) 
Z0101a,Z3880a

>  <ref_pdb>  (2299) 
Z3880a

>  <HIPPO Compound ID>  (2299) 
147229

>  <name>  (2299) 
P74164

>  <inspiration_score>  (2299) 
None

$$$$
P74168
     RDKit          3D

 22 24  0  0  0  0  0  0  0  0999 V2000
   -3.1180    4.9654  -14.1267 C   0  0  0  0  0  0  0  0  0  0  0  0
   -4.3033    5.9051  -14.2773 C   0  0  0  0  0  0  0  0  0  0  0  0
   -5.3593    5.3266  -15.1588 C   0  0  0  0  0  0  0  0  0  0  0  0
   -5.2710    5.3176  -16.4815 N   0  0  0  0  0  0  0  0  0  0  0  0
   -6.4602    4.8257  -16.9411 C   0  0  0  0  0  0  0  0  0  0  0  0
   -6.9074    4.6052  -18.2483 C   0  0  0  0  0  0  0  0  0  0  0  0
   -8.2146    4.1428  -18.4357 C   0  0  0  0  0  0  0  0  0  0  0  0
   -9.0799    3.9629  -17.3681 C   0  0  0  0  0  0  0  0  0  0  0  0
   -8.6414    4.1576  -16.0669 C   0  0  0  0  0  0  0  0  0  0  0  0
   -7.3124    4.5561  -15.8823 C   0  0  0  0  0  0  0  0  0  0  0  0
   -6.5610    4.7870  -14.7341 N   0  0  0  0  0  0  0  0  0  0  0  0
   -7.2260    4.7038  -13.4157 C   0  0  2  0  0  0  0  0  0  0  0  0
   -7.8862    6.0469  -13.1162 C   0  0  0  0  0  0  0  0  0  0  0  0
   -6.5050    4.2215  -12.1417 C   0  0  0  0  0  0  0  0  0  0  0  0
   -5.3508    4.3110  -11.9657 O   0  0  0  0  0  0  0  0  0  0  0  0
   -7.6475    3.7235  -11.1775 N   0  0  0  0  0  0  0  0  0  0  0  0
   -7.5957    3.3286   -9.7703 C   0  0  2  0  0  0  0  0  0  0  0  0
   -8.5165    2.1761   -9.3446 C   0  0  0  0  0  0  0  0  0  0  0  0
   -9.2195    2.5687   -8.1428 O   0  0  0  0  0  0  0  0  0  0  0  0
   -8.6194    3.7788   -7.6764 C   0  0  0  0  0  0  0  0  0  0  0  0
   -8.1480    4.4773   -8.9293 C   0  0  1  0  0  0  0  0  0  0  0  0
   -7.2125    5.5128   -8.6937 O   0  0  0  0  0  0  0  0  0  0  0  0
  1  2  1  0
  2  3  1  0
  3  4  2  0
  4  5  1  0
  5  6  2  0
  6  7  1  0
  7  8  2  0
  8  9  1  0
  9 10  2  0
 10 11  1  0
 11 12  1  0
 12 13  1  1
 12 14  1  0
 14 15  2  0
 14 16  1  0
 17 16  1  6
 17 18  1  0
 18 19  1  0
 19 20  1  0
 20 21  1  0
 21 22  1  1
 11  3  1  0
 21 17  1  0
 10  5  1  0
M  END
>  <energy_score>  (2300) 
-0.952093

>  <alias>  (2300) 
None

>  <HIPPO Pose ID>  (2300) 
74168

>  <smiles>  (2300) 
CCc1nc2ccccc2n1[C@H](C)C(=O)N[C@@H]1COC[C@H]1O

>  <inchikey>  (2300) 
DNKICJASVIMYAV-MPKXVKKWSA-N

>  <distance_score>  (2300) 
1.519541

>  <ref_mols>  (2300) 
Z0101a,Z3880a

>  <ref_pdb>  (2300) 
Z3880a

>  <HIPPO Compound ID>  (2300) 
147234

>  <name>  (2300) 
P74168

>  <inspiration_score>  (2300) 
None

$$$$
P74169
     RDKit          3D

 22 24  0  0  0  0  0  0  0  0999 V2000
   -3.1431    6.3924  -14.8635 C   0  0  0  0  0  0  0  0  0  0  0  0
   -4.1803    5.4995  -14.1969 C   0  0  0  0  0  0  0  0  0  0  0  0
   -5.3196    5.1715  -15.1084 C   0  0  0  0  0  0  0  0  0  0  0  0
   -5.2607    5.2028  -16.4319 N   0  0  0  0  0  0  0  0  0  0  0  0
   -6.4880    4.7987  -16.8793 C   0  0  0  0  0  0  0  0  0  0  0  0
   -6.9579    4.6098  -18.1844 C   0  0  0  0  0  0  0  0  0  0  0  0
   -8.2841    4.2031  -18.3633 C   0  0  0  0  0  0  0  0  0  0  0  0
   -9.1437    4.0480  -17.2870 C   0  0  0  0  0  0  0  0  0  0  0  0
   -8.6875    4.2239  -15.9877 C   0  0  0  0  0  0  0  0  0  0  0  0
   -7.3434    4.5694  -15.8116 C   0  0  0  0  0  0  0  0  0  0  0  0
   -6.5712    4.7632  -14.6747 N   0  0  0  0  0  0  0  0  0  0  0  0
   -7.1941    4.7698  -13.3359 C   0  0  2  0  0  0  0  0  0  0  0  0
   -7.5273    6.1964  -12.9280 C   0  0  0  0  0  0  0  0  0  0  0  0
   -6.5414    4.0065  -12.1621 C   0  0  0  0  0  0  0  0  0  0  0  0
   -5.3874    3.8405  -12.0461 O   0  0  0  0  0  0  0  0  0  0  0  0
   -7.7271    3.6326  -11.1948 N   0  0  0  0  0  0  0  0  0  0  0  0
   -7.7087    3.0647   -9.8474 C   0  0  2  0  0  0  0  0  0  0  0  0
   -9.0665    2.4628   -9.4838 C   0  0  0  0  0  0  0  0  0  0  0  0
   -9.0977    2.4413   -7.9692 C   0  0  0  0  0  0  0  0  0  0  0  0
   -8.4355    3.7532   -7.5761 C   0  0  0  0  0  0  0  0  0  0  0  0
   -7.5000    4.1198   -8.7354 C   0  0  2  0  0  0  0  0  0  0  0  0
   -7.8464    5.4330   -9.1937 O   0  0  0  0  0  0  0  0  0  0  0  0
  1  2  1  0
  2  3  1  0
  3  4  2  0
  4  5  1  0
  5  6  2  0
  6  7  1  0
  7  8  2  0
  8  9  1  0
  9 10  2  0
 10 11  1  0
 11 12  1  0
 12 13  1  1
 12 14  1  0
 14 15  2  0
 14 16  1  0
 17 16  1  6
 17 18  1  0
 18 19  1  0
 19 20  1  0
 20 21  1  0
 21 22  1  6
 11  3  1  0
 21 17  1  0
 10  5  1  0
M  END
>  <energy_score>  (2301) 
-17.720174

>  <alias>  (2301) 
None

>  <HIPPO Pose ID>  (2301) 
74169

>  <smiles>  (2301) 
CCc1nc2ccccc2n1[C@H](C)C(=O)N[C@@H]1CCC[C@@H]1O

>  <inchikey>  (2301) 
FBRHBRIRQKHIGD-KYOSRNDESA-N

>  <distance_score>  (2301) 
1.558916

>  <ref_mols>  (2301) 
Z0101a,Z3880a

>  <ref_pdb>  (2301) 
Z3880a

>  <HIPPO Compound ID>  (2301) 
147236

>  <name>  (2301) 
P74169

>  <inspiration_score>  (2301) 
None

$$$$
P74177
     RDKit          3D

 22 24  0  0  0  0  0  0  0  0999 V2000
   -2.7707    5.3111  -14.9951 C   0  0  0  0  0  0  0  0  0  0  0  0
   -4.1064    5.6958  -14.3769 C   0  0  0  0  0  0  0  0  0  0  0  0
   -5.2651    5.3053  -15.2377 C   0  0  0  0  0  0  0  0  0  0  0  0
   -5.2457    5.2767  -16.5604 N   0  0  0  0  0  0  0  0  0  0  0  0
   -6.4832    4.8407  -16.9481 C   0  0  0  0  0  0  0  0  0  0  0  0
   -6.9911    4.5991  -18.2296 C   0  0  0  0  0  0  0  0  0  0  0  0
   -8.3176    4.1752  -18.3517 C   0  0  0  0  0  0  0  0  0  0  0  0
   -9.1321    4.0236  -17.2391 C   0  0  0  0  0  0  0  0  0  0  0  0
   -8.6353    4.2380  -15.9589 C   0  0  0  0  0  0  0  0  0  0  0  0
   -7.3026    4.6450  -15.8441 C   0  0  0  0  0  0  0  0  0  0  0  0
   -6.5193    4.9660  -14.7498 N   0  0  0  0  0  0  0  0  0  0  0  0
   -7.1083    5.1872  -13.4195 C   0  0  2  0  0  0  0  0  0  0  0  0
   -6.8737    6.5954  -12.9029 C   0  0  0  0  0  0  0  0  0  0  0  0
   -6.7883    4.1604  -12.3146 C   0  0  0  0  0  0  0  0  0  0  0  0
   -5.7652    3.5935  -12.2168 O   0  0  0  0  0  0  0  0  0  0  0  0
   -8.0518    4.1589  -11.3675 N   0  0  0  0  0  0  0  0  0  0  0  0
   -8.2556    3.5402  -10.0846 C   0  0  0  0  0  0  0  0  0  0  0  0
   -8.3699    4.5632   -8.9524 C   0  0  1  0  0  0  0  0  0  0  0  0
   -8.5170    4.0544   -7.5278 C   0  0  0  0  0  0  0  0  0  0  0  0
   -7.2316    5.4257   -9.0110 O   0  0  0  0  0  0  0  0  0  0  0  0
   -9.1888    2.3462  -10.0603 C   0  0  0  0  0  0  0  0  0  0  0  0
   -7.7281    2.1595   -9.8004 C   0  0  0  0  0  0  0  0  0  0  0  0
  1  2  1  0
  2  3  1  0
  3  4  2  0
  4  5  1  0
  5  6  2  0
  6  7  1  0
  7  8  2  0
  8  9  1  0
  9 10  2  0
 10 11  1  0
 11 12  1  0
 12 13  1  1
 12 14  1  0
 14 15  2  0
 14 16  1  0
 16 17  1  0
 17 18  1  0
 18 19  1  1
 18 20  1  0
 17 21  1  0
 21 22  1  0
 11  3  1  0
 22 17  1  0
 10  5  1  0
M  END
>  <energy_score>  (2302) 
-18.799989

>  <alias>  (2302) 
None

>  <HIPPO Pose ID>  (2302) 
74177

>  <smiles>  (2302) 
CCc1nc2ccccc2n1[C@H](C)C(=O)NC1([C@@H](C)O)CC1

>  <inchikey>  (2302) 
DTNOWKDRJXVCRN-VXGBXAGGSA-N

>  <distance_score>  (2302) 
1.792292

>  <ref_mols>  (2302) 
Z0101a,Z3880a

>  <ref_pdb>  (2302) 
Z3880a

>  <HIPPO Compound ID>  (2302) 
147238

>  <name>  (2302) 
P74177

>  <inspiration_score>  (2302) 
None

$$$$
P74178
     RDKit          3D

 22 24  0  0  0  0  0  0  0  0999 V2000
   -3.0139    4.9192  -14.2418 C   0  0  0  0  0  0  0  0  0  0  0  0
   -4.2279    5.8334  -14.2694 C   0  0  0  0  0  0  0  0  0  0  0  0
   -5.3123    5.2935  -15.1438 C   0  0  0  0  0  0  0  0  0  0  0  0
   -5.2461    5.2829  -16.4674 N   0  0  0  0  0  0  0  0  0  0  0  0
   -6.4559    4.8205  -16.9063 C   0  0  0  0  0  0  0  0  0  0  0  0
   -6.9267    4.6104  -18.2078 C   0  0  0  0  0  0  0  0  0  0  0  0
   -8.2452    4.1759  -18.3786 C   0  0  0  0  0  0  0  0  0  0  0  0
   -9.0963    4.0078  -17.2973 C   0  0  0  0  0  0  0  0  0  0  0  0
   -8.6362    4.1942  -16.0007 C   0  0  0  0  0  0  0  0  0  0  0  0
   -7.2988    4.5708  -15.8333 C   0  0  0  0  0  0  0  0  0  0  0  0
   -6.5275    4.7968  -14.6998 N   0  0  0  0  0  0  0  0  0  0  0  0
   -7.1543    4.7789  -13.3609 C   0  0  2  0  0  0  0  0  0  0  0  0
   -7.6059    6.1870  -12.9963 C   0  0  0  0  0  0  0  0  0  0  0  0
   -6.4487    4.1086  -12.1614 C   0  0  0  0  0  0  0  0  0  0  0  0
   -5.2904    3.9555  -12.0794 O   0  0  0  0  0  0  0  0  0  0  0  0
   -7.5915    3.8136  -11.1195 N   0  0  0  0  0  0  0  0  0  0  0  0
   -7.5155    3.3606   -9.7343 C   0  0  2  0  0  0  0  0  0  0  0  0
   -8.4051    2.1818   -9.4180 C   0  0  0  0  0  0  0  0  0  0  0  0
   -9.0112    2.4894   -8.0684 C   0  0  0  0  0  0  0  0  0  0  0  0
   -8.8894    3.8955   -7.8659 O   0  0  0  0  0  0  0  0  0  0  0  0
   -8.1150    4.4369   -8.8461 C   0  0  0  0  0  0  0  0  0  0  0  0
   -7.9632    5.6431   -8.9891 O   0  0  0  0  0  0  0  0  0  0  0  0
  1  2  1  0
  2  3  1  0
  3  4  2  0
  4  5  1  0
  5  6  2  0
  6  7  1  0
  7  8  2  0
  8  9  1  0
  9 10  2  0
 10 11  1  0
 11 12  1  0
 12 13  1  1
 12 14  1  0
 14 15  2  0
 14 16  1  0
 17 16  1  6
 17 18  1  0
 18 19  1  0
 19 20  1  0
 20 21  1  0
 21 22  2  0
 11  3  1  0
 21 17  1  0
 10  5  1  0
M  END
>  <energy_score>  (2303) 
-1.368215

>  <alias>  (2303) 
None

>  <HIPPO Pose ID>  (2303) 
74178

>  <smiles>  (2303) 
CCc1nc2ccccc2n1[C@H](C)C(=O)N[C@@H]1CCOC1=O

>  <inchikey>  (2303) 
JRKDZZJLZPBDHQ-ZYHUDNBSSA-N

>  <distance_score>  (2303) 
1.566846

>  <ref_mols>  (2303) 
Z0101a,Z3880a

>  <ref_pdb>  (2303) 
Z3880a

>  <HIPPO Compound ID>  (2303) 
147243

>  <name>  (2303) 
P74178

>  <inspiration_score>  (2303) 
None

$$$$
P74179
     RDKit          3D

 22 25  0  0  0  0  0  0  0  0999 V2000
   -3.7030    7.8156  -15.5781 C   0  0  0  0  0  0  0  0  0  0  0  0
   -4.1519    6.5831  -14.8051 C   0  0  0  0  0  0  0  0  0  0  0  0
   -5.2250    5.8296  -15.5224 C   0  0  0  0  0  0  0  0  0  0  0  0
   -5.3425    5.7518  -16.8368 N   0  0  0  0  0  0  0  0  0  0  0  0
   -6.5474    5.1446  -17.0646 C   0  0  0  0  0  0  0  0  0  0  0  0
   -7.1863    4.8464  -18.2707 C   0  0  0  0  0  0  0  0  0  0  0  0
   -8.4772    4.3145  -18.2218 C   0  0  0  0  0  0  0  0  0  0  0  0
   -9.1171    4.0886  -17.0083 C   0  0  0  0  0  0  0  0  0  0  0  0
   -8.4689    4.3118  -15.7967 C   0  0  0  0  0  0  0  0  0  0  0  0
   -7.1786    4.8378  -15.8660 C   0  0  0  0  0  0  0  0  0  0  0  0
   -6.2443    5.1277  -14.8946 N   0  0  0  0  0  0  0  0  0  0  0  0
   -6.2887    4.5129  -13.5564 C   0  0  1  0  0  0  0  0  0  0  0  0
   -4.9215    4.2094  -12.9761 C   0  0  0  0  0  0  0  0  0  0  0  0
   -7.1505    5.2519  -12.5218 C   0  0  0  0  0  0  0  0  0  0  0  0
   -7.5462    6.3480  -12.6764 O   0  0  0  0  0  0  0  0  0  0  0  0
   -7.2891    4.2785  -11.2814 N   0  0  0  0  0  0  0  0  0  0  0  0
   -8.0103    4.4343  -10.0569 C   0  0  1  0  0  0  0  0  0  0  0  0
   -8.8142    3.2390   -9.5551 C   0  0  0  0  0  0  0  0  0  0  0  0
   -9.0768    3.4528   -8.1543 O   0  0  0  0  0  0  0  0  0  0  0  0
   -8.0143    4.2618   -7.6388 C   0  0  0  0  0  0  0  0  0  0  0  0
   -7.4139    4.9708   -8.8062 C   0  0  2  0  0  0  0  0  0  0  0  0
   -8.2873    5.8637   -9.6121 C   0  0  0  0  0  0  0  0  0  0  0  0
  1  2  1  0
  2  3  1  0
  3  4  2  0
  4  5  1  0
  5  6  2  0
  6  7  1  0
  7  8  2  0
  8  9  1  0
  9 10  2  0
 10 11  1  0
 11 12  1  0
 12 13  1  1
 12 14  1  0
 14 15  2  0
 14 16  1  0
 17 16  1  6
 17 18  1  0
 18 19  1  0
 19 20  1  0
 21 20  1  1
 21 22  1  0
 11  3  1  0
 21 17  1  0
 10  5  1  0
 22 17  1  0
M  END
>  <energy_score>  (2304) 
-0.803294

>  <alias>  (2304) 
None

>  <HIPPO Pose ID>  (2304) 
74179

>  <smiles>  (2304) 
CCc1nc2ccccc2n1[C@@H](C)C(=O)N[C@@]12COC[C@@H]1C2

>  <inchikey>  (2304) 
CVWZDKRFBOIFNO-PRXAMGSTSA-N

>  <distance_score>  (2304) 
1.653602

>  <ref_mols>  (2304) 
Z0101a,Z3880a

>  <ref_pdb>  (2304) 
Z3880a

>  <HIPPO Compound ID>  (2304) 
147250

>  <name>  (2304) 
P74179

>  <inspiration_score>  (2304) 
None

$$$$
P74184
     RDKit          3D

 22 24  0  0  0  0  0  0  0  0999 V2000
   -3.2463    6.7916  -14.7941 C   0  0  0  0  0  0  0  0  0  0  0  0
   -3.8157    5.3893  -14.6534 C   0  0  0  0  0  0  0  0  0  0  0  0
   -5.0900    5.2286  -15.4143 C   0  0  0  0  0  0  0  0  0  0  0  0
   -5.1638    5.2081  -16.7352 N   0  0  0  0  0  0  0  0  0  0  0  0
   -6.4487    4.8400  -17.0324 C   0  0  0  0  0  0  0  0  0  0  0  0
   -7.0542    4.6044  -18.2714 C   0  0  0  0  0  0  0  0  0  0  0  0
   -8.4003    4.2259  -18.2941 C   0  0  0  0  0  0  0  0  0  0  0  0
   -9.1364    4.1021  -17.1228 C   0  0  0  0  0  0  0  0  0  0  0  0
   -8.5460    4.3193  -15.8822 C   0  0  0  0  0  0  0  0  0  0  0  0
   -7.1989    4.6948  -15.8730 C   0  0  0  0  0  0  0  0  0  0  0  0
   -6.3345    5.0210  -14.8439 N   0  0  0  0  0  0  0  0  0  0  0  0
   -6.8326    5.3262  -13.4966 C   0  0  2  0  0  0  0  0  0  0  0  0
   -6.3042    6.6088  -12.8902 C   0  0  0  0  0  0  0  0  0  0  0  0
   -6.7622    4.1859  -12.4571 C   0  0  0  0  0  0  0  0  0  0  0  0
   -5.8634    3.4451  -12.3576 O   0  0  0  0  0  0  0  0  0  0  0  0
   -8.0808    4.2961  -11.6227 N   0  0  0  0  0  0  0  0  0  0  0  0
   -8.5066    3.5789  -10.4453 C   0  0  1  0  0  0  0  0  0  0  0  0
   -7.7176    2.4414   -9.8467 C   0  0  0  0  0  0  0  0  0  0  0  0
   -8.3476    2.2647   -8.5589 O   0  0  0  0  0  0  0  0  0  0  0  0
   -8.4583    3.5768   -7.9772 C   0  0  0  0  0  0  0  0  0  0  0  0
   -8.5125    4.4399   -9.2088 C   0  0  0  0  0  0  0  0  0  0  0  0
   -8.5604    5.6661   -9.2077 O   0  0  0  0  0  0  0  0  0  0  0  0
  1  2  1  0
  2  3  1  0
  3  4  2  0
  4  5  1  0
  5  6  2  0
  6  7  1  0
  7  8  2  0
  8  9  1  0
  9 10  2  0
 10 11  1  0
 11 12  1  0
 12 13  1  1
 12 14  1  0
 14 15  2  0
 14 16  1  0
 17 16  1  6
 17 18  1  0
 18 19  1  0
 19 20  1  0
 20 21  1  0
 21 22  2  0
 11  3  1  0
 21 17  1  0
 10  5  1  0
M  END
>  <energy_score>  (2305) 
-8.62101

>  <alias>  (2305) 
None

>  <HIPPO Pose ID>  (2305) 
74184

>  <smiles>  (2305) 
CCc1nc2ccccc2n1[C@H](C)C(=O)N[C@H]1COCC1=O

>  <inchikey>  (2305) 
VWHGJANQYSWCBO-PWSUYJOCSA-N

>  <distance_score>  (2305) 
1.568999

>  <ref_mols>  (2305) 
Z0101a,Z3880a

>  <ref_pdb>  (2305) 
Z3880a

>  <HIPPO Compound ID>  (2305) 
147252

>  <name>  (2305) 
P74184

>  <inspiration_score>  (2305) 
None

$$$$
P74192
     RDKit          3D

 22 24  0  0  0  0  0  0  0  0999 V2000
   -8.2220    5.8516   -9.0548 C   0  0  0  0  0  0  0  0  0  0  0  0
   -8.4166    4.5299   -9.1530 C   0  0  0  0  0  0  0  0  0  0  0  0
   -8.4695    3.5855   -7.9837 C   0  0  0  0  0  0  0  0  0  0  0  0
   -8.3736    2.2717   -8.5540 O   0  0  0  0  0  0  0  0  0  0  0  0
   -7.7903    2.4450   -9.8605 C   0  0  0  0  0  0  0  0  0  0  0  0
   -8.5036    3.6708  -10.3759 C   0  0  2  0  0  0  0  0  0  0  0  0
   -8.0917    4.3469  -11.5757 N   0  0  0  0  0  0  0  0  0  0  0  0
   -6.7794    4.2080  -12.4223 C   0  0  0  0  0  0  0  0  0  0  0  0
   -5.8792    3.4687  -12.3085 O   0  0  0  0  0  0  0  0  0  0  0  0
   -6.8554    5.3270  -13.4841 C   0  0  1  0  0  0  0  0  0  0  0  0
   -6.3387    6.6273  -12.9049 C   0  0  0  0  0  0  0  0  0  0  0  0
   -6.3470    5.0082  -14.8240 N   0  0  0  0  0  0  0  0  0  0  0  0
   -5.0999    5.2206  -15.3873 C   0  0  0  0  0  0  0  0  0  0  0  0
   -3.8300    5.3835  -14.6194 C   0  0  0  0  0  0  0  0  0  0  0  0
   -3.2528    6.7815  -14.7708 C   0  0  0  0  0  0  0  0  0  0  0  0
   -5.1671    5.2055  -16.7084 N   0  0  0  0  0  0  0  0  0  0  0  0
   -6.4497    4.8369  -17.0145 C   0  0  0  0  0  0  0  0  0  0  0  0
   -7.0482    4.6065  -18.2579 C   0  0  0  0  0  0  0  0  0  0  0  0
   -8.3937    4.2271  -18.2897 C   0  0  0  0  0  0  0  0  0  0  0  0
   -9.1360    4.0985  -17.1229 C   0  0  0  0  0  0  0  0  0  0  0  0
   -8.5527    4.3109  -15.8782 C   0  0  0  0  0  0  0  0  0  0  0  0
   -7.2057    4.6860  -15.8595 C   0  0  0  0  0  0  0  0  0  0  0  0
  1  2  2  0
  2  3  1  0
  3  4  1  0
  4  5  1  0
  5  6  1  0
  6  7  1  6
  7  8  1  0
  8  9  2  0
  8 10  1  0
 10 11  1  1
 10 12  1  0
 12 13  1  0
 13 14  1  0
 14 15  1  0
 13 16  2  0
 16 17  1  0
 17 18  2  0
 18 19  1  0
 19 20  2  0
 20 21  1  0
 21 22  2  0
  6  2  1  0
 22 12  1  0
 22 17  1  0
M  END
>  <energy_score>  (2306) 
-8.972145

>  <alias>  (2306) 
None

>  <HIPPO Pose ID>  (2306) 
74192

>  <smiles>  (2306) 
C=C1COC[C@@H]1NC(=O)[C@@H](C)n1c(CC)nc2ccccc21

>  <inchikey>  (2306) 
FHFVICBOUABSGB-OCCSQVGLSA-N

>  <distance_score>  (2306) 
1.585477

>  <ref_mols>  (2306) 
Z0101a,Z3880a

>  <ref_pdb>  (2306) 
Z3880a

>  <HIPPO Compound ID>  (2306) 
147255

>  <name>  (2306) 
P74192

>  <inspiration_score>  (2306) 
None

$$$$
P74196
     RDKit          3D

 22 24  0  0  0  0  0  0  0  0999 V2000
   -5.4801    6.1336  -11.4810 C   0  0  0  0  0  0  0  0  0  0  0  0
   -5.6408    6.1437  -12.9931 C   0  0  0  0  0  0  0  0  0  0  0  0
   -6.2962    7.4674  -13.4194 C   0  0  0  0  0  0  0  0  0  0  0  0
   -6.3462    4.8727  -13.5459 C   0  0  1  0  0  0  0  0  0  0  0  0
   -7.7258    4.8013  -12.8152 C   0  0  0  0  0  0  0  0  0  0  0  0
   -8.6610    5.4068  -13.1836 O   0  0  0  0  0  0  0  0  0  0  0  0
   -7.5331    3.9038  -11.5380 N   0  0  0  0  0  0  0  0  0  0  0  0
   -8.4262    3.6550  -10.4148 C   0  0  1  0  0  0  0  0  0  0  0  0
   -8.6247    2.2348   -9.9245 C   0  0  0  0  0  0  0  0  0  0  0  0
   -9.1390    2.3408   -8.5831 O   0  0  0  0  0  0  0  0  0  0  0  0
   -8.6781    3.5782   -8.0299 C   0  0  0  0  0  0  0  0  0  0  0  0
   -7.9381    4.3237   -9.1302 C   0  0  2  0  0  0  0  0  0  0  0  0
   -8.1841    5.7248   -9.1002 O   0  0  0  0  0  0  0  0  0  0  0  0
   -6.2858    4.8926  -15.0269 N   0  0  0  0  0  0  0  0  0  0  0  0
   -5.1146    5.1482  -15.7283 C   0  0  0  0  0  0  0  0  0  0  0  0
   -5.2854    5.1746  -17.0250 N   0  0  0  0  0  0  0  0  0  0  0  0
   -6.5921    4.8173  -17.1940 C   0  0  0  0  0  0  0  0  0  0  0  0
   -7.2819    4.6197  -18.3900 C   0  0  0  0  0  0  0  0  0  0  0  0
   -8.6254    4.2628  -18.3279 C   0  0  0  0  0  0  0  0  0  0  0  0
   -9.2691    4.0993  -17.1124 C   0  0  0  0  0  0  0  0  0  0  0  0
   -8.5851    4.2491  -15.9094 C   0  0  0  0  0  0  0  0  0  0  0  0
   -7.2449    4.6313  -15.9694 C   0  0  0  0  0  0  0  0  0  0  0  0
  1  2  1  0
  2  3  1  0
  4  2  1  1
  4  5  1  0
  5  6  2  0
  5  7  1  0
  8  7  1  6
  8  9  1  0
  9 10  1  0
 10 11  1  0
 11 12  1  0
 12 13  1  6
  4 14  1  0
 14 15  1  0
 15 16  2  0
 16 17  1  0
 17 18  2  0
 18 19  1  0
 19 20  2  0
 20 21  1  0
 21 22  2  0
 12  8  1  0
 22 14  1  0
 22 17  1  0
M  END
>  <energy_score>  (2307) 
-4.541193

>  <alias>  (2307) 
None

>  <HIPPO Pose ID>  (2307) 
74196

>  <smiles>  (2307) 
CC(C)[C@@H](C(=O)N[C@H]1COC[C@@H]1O)n1cnc2ccccc21

>  <inchikey>  (2307) 
JOHNRVZWJGOVKS-QEJZJMRPSA-N

>  <distance_score>  (2307) 
1.470401

>  <ref_mols>  (2307) 
Z0101a,Z3880a

>  <ref_pdb>  (2307) 
Z3880a

>  <HIPPO Compound ID>  (2307) 
147262

>  <name>  (2307) 
P74196

>  <inspiration_score>  (2307) 
None

$$$$
P74204
     RDKit          3D

 22 24  0  0  0  0  0  0  0  0999 V2000
   -5.9881    6.9031  -12.2748 C   0  0  0  0  0  0  0  0  0  0  0  0
   -5.3169    5.6178  -12.7526 C   0  0  0  0  0  0  0  0  0  0  0  0
   -4.5471    4.9335  -11.6188 C   0  0  0  0  0  0  0  0  0  0  0  0
   -6.2767    4.6534  -13.5034 C   0  0  1  0  0  0  0  0  0  0  0  0
   -7.6682    4.7318  -12.7820 C   0  0  0  0  0  0  0  0  0  0  0  0
   -8.5256    5.4428  -13.1501 O   0  0  0  0  0  0  0  0  0  0  0  0
   -7.5890    3.8063  -11.5170 N   0  0  0  0  0  0  0  0  0  0  0  0
   -8.5129    3.6473  -10.4049 C   0  0  1  0  0  0  0  0  0  0  0  0
   -8.4763    2.2870   -9.7266 C   0  0  0  0  0  0  0  0  0  0  0  0
   -9.1507    2.5148   -8.3821 C   0  0  0  0  0  0  0  0  0  0  0  0
   -8.6706    3.8881   -7.9432 C   0  0  0  0  0  0  0  0  0  0  0  0
   -8.3263    4.6439   -9.2358 C   0  0  1  0  0  0  0  0  0  0  0  0
   -6.9858    5.1130   -9.1305 O   0  0  0  0  0  0  0  0  0  0  0  0
   -6.2438    4.9058  -14.9736 N   0  0  0  0  0  0  0  0  0  0  0  0
   -5.0934    5.2021  -15.6925 C   0  0  0  0  0  0  0  0  0  0  0  0
   -5.2892    5.2795  -16.9849 N   0  0  0  0  0  0  0  0  0  0  0  0
   -6.5879    4.8980  -17.1465 C   0  0  0  0  0  0  0  0  0  0  0  0
   -7.2891    4.7119  -18.3392 C   0  0  0  0  0  0  0  0  0  0  0  0
   -8.6218    4.3169  -18.2715 C   0  0  0  0  0  0  0  0  0  0  0  0
   -9.2427    4.1080  -17.0510 C   0  0  0  0  0  0  0  0  0  0  0  0
   -8.5455    4.2432  -15.8530 C   0  0  0  0  0  0  0  0  0  0  0  0
   -7.2151    4.6611  -15.9184 C   0  0  0  0  0  0  0  0  0  0  0  0
  1  2  1  0
  2  3  1  0
  4  2  1  1
  4  5  1  0
  5  6  2  0
  5  7  1  0
  8  7  1  6
  8  9  1  0
  9 10  1  0
 10 11  1  0
 11 12  1  0
 12 13  1  1
  4 14  1  0
 14 15  1  0
 15 16  2  0
 16 17  1  0
 17 18  2  0
 18 19  1  0
 19 20  2  0
 20 21  1  0
 21 22  2  0
 12  8  1  0
 22 14  1  0
 22 17  1  0
M  END
>  <energy_score>  (2308) 
-4.224057

>  <alias>  (2308) 
None

>  <HIPPO Pose ID>  (2308) 
74204

>  <smiles>  (2308) 
CC(C)[C@@H](C(=O)N[C@H]1CCC[C@H]1O)n1cnc2ccccc21

>  <inchikey>  (2308) 
PHZQJZKMHRATTC-IMJJTQAJSA-N

>  <distance_score>  (2308) 
1.422614

>  <ref_mols>  (2308) 
Z0101a,Z3880a

>  <ref_pdb>  (2308) 
Z3880a

>  <HIPPO Compound ID>  (2308) 
147264

>  <name>  (2308) 
P74204

>  <inspiration_score>  (2308) 
None

$$$$
P74208
     RDKit          3D

 22 24  0  0  0  0  0  0  0  0999 V2000
   -5.6196    6.2956  -11.4592 C   0  0  0  0  0  0  0  0  0  0  0  0
   -5.7665    6.2990  -12.9735 C   0  0  0  0  0  0  0  0  0  0  0  0
   -6.4559    7.5986  -13.4128 C   0  0  0  0  0  0  0  0  0  0  0  0
   -6.4299    5.0101  -13.5271 C   0  0  1  0  0  0  0  0  0  0  0  0
   -7.8337    4.9109  -12.8528 C   0  0  0  0  0  0  0  0  0  0  0  0
   -8.7836    5.4523  -13.2811 O   0  0  0  0  0  0  0  0  0  0  0  0
   -7.6445    4.0803  -11.5278 N   0  0  0  0  0  0  0  0  0  0  0  0
   -8.5767    3.8339  -10.4121 C   0  0  1  0  0  0  0  0  0  0  0  0
   -9.0928    2.3925  -10.3120 C   0  0  0  0  0  0  0  0  0  0  0  0
   -8.0007    2.0980   -9.2753 C   0  0  0  0  0  0  0  0  0  0  0  0
   -7.9120    3.6224   -9.0054 C   0  0  2  0  0  0  0  0  0  0  0  0
   -8.7061    4.0413   -7.7725 C   0  0  0  0  0  0  0  0  0  0  0  0
   -6.5751    4.1575   -8.8945 O   0  0  0  0  0  0  0  0  0  0  0  0
   -6.3236    4.9887  -15.0072 N   0  0  0  0  0  0  0  0  0  0  0  0
   -5.1381    5.2480  -15.6818 C   0  0  0  0  0  0  0  0  0  0  0  0
   -5.2728    5.2389  -16.9834 N   0  0  0  0  0  0  0  0  0  0  0  0
   -6.5668    4.8494  -17.1812 C   0  0  0  0  0  0  0  0  0  0  0  0
   -7.2214    4.6127  -18.3911 C   0  0  0  0  0  0  0  0  0  0  0  0
   -8.5570    4.2220  -18.3572 C   0  0  0  0  0  0  0  0  0  0  0  0
   -9.2274    4.0645  -17.1562 C   0  0  0  0  0  0  0  0  0  0  0  0
   -8.5764    4.2489  -15.9402 C   0  0  0  0  0  0  0  0  0  0  0  0
   -7.2467    4.6716  -15.9702 C   0  0  0  0  0  0  0  0  0  0  0  0
  1  2  1  0
  2  3  1  0
  4  2  1  6
  4  5  1  0
  5  6  2  0
  5  7  1  0
  8  7  1  6
  8  9  1  0
  9 10  1  0
 10 11  1  0
 11 12  1  1
 11 13  1  0
  4 14  1  0
 14 15  1  0
 15 16  2  0
 16 17  1  0
 17 18  2  0
 18 19  1  0
 19 20  2  0
 20 21  1  0
 21 22  2  0
 11  8  1  0
 22 14  1  0
 22 17  1  0
M  END
>  <energy_score>  (2309) 
-29.639752

>  <alias>  (2309) 
None

>  <HIPPO Pose ID>  (2309) 
74208

>  <smiles>  (2309) 
CC(C)[C@@H](C(=O)N[C@H]1CC[C@@]1(C)O)n1cnc2ccccc21

>  <inchikey>  (2309) 
RMWYBYCGHLVYDO-YQQAZPJKSA-N

>  <distance_score>  (2309) 
1.609944

>  <ref_mols>  (2309) 
Z0101a,Z3880a

>  <ref_pdb>  (2309) 
Z3880a

>  <HIPPO Compound ID>  (2309) 
147266

>  <name>  (2309) 
P74208

>  <inspiration_score>  (2309) 
None

$$$$
P74211
     RDKit          3D

 22 24  0  0  0  0  0  0  0  0999 V2000
   -8.2998    5.6656   -8.8068 C   0  0  0  0  0  0  0  0  0  0  0  0
   -8.5219    4.3637   -9.0270 C   0  0  0  0  0  0  0  0  0  0  0  0
   -8.6382    3.3317   -7.9399 C   0  0  0  0  0  0  0  0  0  0  0  0
   -8.3765    2.0752   -8.5836 O   0  0  0  0  0  0  0  0  0  0  0  0
   -7.7550    2.3867   -9.8460 C   0  0  0  0  0  0  0  0  0  0  0  0
   -8.5353    3.5925  -10.3095 C   0  0  2  0  0  0  0  0  0  0  0  0
   -8.1263    4.3625  -11.4517 N   0  0  0  0  0  0  0  0  0  0  0  0
   -6.9325    4.1548  -12.4417 C   0  0  0  0  0  0  0  0  0  0  0  0
   -6.0636    3.3722  -12.4262 O   0  0  0  0  0  0  0  0  0  0  0  0
   -7.0777    5.2635  -13.5221 C   0  0  1  0  0  0  0  0  0  0  0  0
   -6.6036    6.6562  -13.0734 C   0  0  0  0  0  0  0  0  0  0  0  0
   -5.4574    6.5891  -12.0737 C   0  0  0  0  0  0  0  0  0  0  0  0
   -7.7371    7.5287  -12.5238 C   0  0  0  0  0  0  0  0  0  0  0  0
   -6.5409    4.9221  -14.8536 N   0  0  0  0  0  0  0  0  0  0  0  0
   -5.2886    5.1806  -15.3589 C   0  0  0  0  0  0  0  0  0  0  0  0
   -5.2613    5.1408  -16.6740 N   0  0  0  0  0  0  0  0  0  0  0  0
   -6.5260    4.7565  -17.0413 C   0  0  0  0  0  0  0  0  0  0  0  0
   -7.0599    4.5186  -18.3107 C   0  0  0  0  0  0  0  0  0  0  0  0
   -8.4030    4.1422  -18.4046 C   0  0  0  0  0  0  0  0  0  0  0  0
   -9.2096    4.0336  -17.2800 C   0  0  0  0  0  0  0  0  0  0  0  0
   -8.6908    4.2483  -16.0100 C   0  0  0  0  0  0  0  0  0  0  0  0
   -7.3453    4.6092  -15.9258 C   0  0  0  0  0  0  0  0  0  0  0  0
  1  2  2  0
  2  3  1  0
  3  4  1  0
  4  5  1  0
  5  6  1  0
  6  7  1  6
  7  8  1  0
  8  9  2  0
  8 10  1  0
 10 11  1  1
 11 12  1  0
 11 13  1  0
 10 14  1  0
 14 15  1  0
 15 16  2  0
 16 17  1  0
 17 18  2  0
 18 19  1  0
 19 20  2  0
 20 21  1  0
 21 22  2  0
  6  2  1  0
 22 14  1  0
 22 17  1  0
M  END
>  <energy_score>  (2310) 
-16.825019

>  <alias>  (2310) 
None

>  <HIPPO Pose ID>  (2310) 
74211

>  <smiles>  (2310) 
C=C1COC[C@@H]1NC(=O)[C@@H](C(C)C)n1cnc2ccccc21

>  <inchikey>  (2310) 
CCPFEVWBJMVYSS-GOEBONIOSA-N

>  <distance_score>  (2310) 
1.595127

>  <ref_mols>  (2310) 
Z0101a,Z3880a

>  <ref_pdb>  (2310) 
Z3880a

>  <HIPPO Compound ID>  (2310) 
147267

>  <name>  (2310) 
P74211

>  <inspiration_score>  (2310) 
None

$$$$
P74215
     RDKit          3D

 22 24  0  0  0  0  0  0  0  0999 V2000
   -5.3235    6.7950  -12.7065 C   0  0  0  0  0  0  0  0  0  0  0  0
   -5.2861    5.2759  -12.5603 C   0  0  0  0  0  0  0  0  0  0  0  0
   -3.8645    4.7033  -12.5931 C   0  0  0  0  0  0  0  0  0  0  0  0
   -6.2956    4.5423  -13.4853 C   0  0  1  0  0  0  0  0  0  0  0  0
   -7.6473    4.7236  -12.7224 C   0  0  0  0  0  0  0  0  0  0  0  0
   -8.4656    5.5020  -13.0419 O   0  0  0  0  0  0  0  0  0  0  0  0
   -7.5832    3.7666  -11.4720 N   0  0  0  0  0  0  0  0  0  0  0  0
   -8.4673    3.6541  -10.3266 C   0  0  1  0  0  0  0  0  0  0  0  0
   -8.7620    2.2635   -9.7856 C   0  0  0  0  0  0  0  0  0  0  0  0
   -9.1806    2.4388   -8.4199 O   0  0  0  0  0  0  0  0  0  0  0  0
   -8.6460    3.6785   -7.9468 C   0  0  0  0  0  0  0  0  0  0  0  0
   -7.8556    4.2985   -9.0889 C   0  0  2  0  0  0  0  0  0  0  0  0
   -7.8962    5.8143   -9.0974 C   0  0  0  0  0  0  0  0  0  0  0  0
   -6.2553    4.9192  -14.9146 N   0  0  0  0  0  0  0  0  0  0  0  0
   -5.1450    5.3488  -15.6180 C   0  0  0  0  0  0  0  0  0  0  0  0
   -5.3233    5.3880  -16.9155 N   0  0  0  0  0  0  0  0  0  0  0  0
   -6.5972    4.9393  -17.0925 C   0  0  0  0  0  0  0  0  0  0  0  0
   -7.2861    4.7373  -18.2902 C   0  0  0  0  0  0  0  0  0  0  0  0
   -8.6108    4.3153  -18.2295 C   0  0  0  0  0  0  0  0  0  0  0  0
   -9.2332    4.0961  -17.0101 C   0  0  0  0  0  0  0  0  0  0  0  0
   -8.5434    4.2342  -15.8071 C   0  0  0  0  0  0  0  0  0  0  0  0
   -7.2197    4.6714  -15.8700 C   0  0  0  0  0  0  0  0  0  0  0  0
  1  2  1  0
  2  3  1  0
  4  2  1  1
  4  5  1  0
  5  6  2  0
  5  7  1  0
  8  7  1  6
  8  9  1  0
  9 10  1  0
 10 11  1  0
 11 12  1  0
 12 13  1  6
  4 14  1  0
 14 15  1  0
 15 16  2  0
 16 17  1  0
 17 18  2  0
 18 19  1  0
 19 20  2  0
 20 21  1  0
 21 22  2  0
 12  8  1  0
 22 14  1  0
 22 17  1  0
M  END
>  <energy_score>  (2311) 
-7.269987

>  <alias>  (2311) 
None

>  <HIPPO Pose ID>  (2311) 
74215

>  <smiles>  (2311) 
CC(C)[C@@H](C(=O)N[C@H]1COC[C@@H]1C)n1cnc2ccccc21

>  <inchikey>  (2311) 
MNBJDSGAGPFAQI-NOLJZWGESA-N

>  <distance_score>  (2311) 
1.422314

>  <ref_mols>  (2311) 
Z0101a,Z3880a

>  <ref_pdb>  (2311) 
Z3880a

>  <HIPPO Compound ID>  (2311) 
147269

>  <name>  (2311) 
P74215

>  <inspiration_score>  (2311) 
None

$$$$
P74219
     RDKit          3D

 22 24  0  0  0  0  0  0  0  0999 V2000
   -6.5276    7.2274  -12.8974 C   0  0  0  0  0  0  0  0  0  0  0  0
   -5.5796    6.0351  -12.7829 C   0  0  0  0  0  0  0  0  0  0  0  0
   -5.0470    5.9231  -11.3510 C   0  0  0  0  0  0  0  0  0  0  0  0
   -6.2006    4.7243  -13.3467 C   0  0  1  0  0  0  0  0  0  0  0  0
   -7.5165    4.4874  -12.5328 C   0  0  0  0  0  0  0  0  0  0  0  0
   -8.5539    4.9378  -12.8497 O   0  0  0  0  0  0  0  0  0  0  0  0
   -7.1092    3.6672  -11.2467 N   0  0  0  0  0  0  0  0  0  0  0  0
   -7.8757    3.3303  -10.0673 C   0  0  0  0  0  0  0  0  0  0  0  0
   -7.8985    4.4263   -8.9926 C   0  0  2  0  0  0  0  0  0  0  0  0
   -8.6063    4.1205   -7.6774 C   0  0  0  0  0  0  0  0  0  0  0  0
   -8.4668    5.6129   -9.5480 O   0  0  0  0  0  0  0  0  0  0  0  0
   -9.0631    2.4122  -10.2464 C   0  0  0  0  0  0  0  0  0  0  0  0
   -7.8244    1.9058   -9.5753 C   0  0  0  0  0  0  0  0  0  0  0  0
   -6.2111    4.8153  -14.8396 N   0  0  0  0  0  0  0  0  0  0  0  0
   -5.0487    5.0885  -15.5582 C   0  0  0  0  0  0  0  0  0  0  0  0
   -5.2405    5.1800  -16.8489 N   0  0  0  0  0  0  0  0  0  0  0  0
   -6.5538    4.8472  -17.0129 C   0  0  0  0  0  0  0  0  0  0  0  0
   -7.2589    4.7046  -18.2132 C   0  0  0  0  0  0  0  0  0  0  0  0
   -8.6021    4.3490  -18.1597 C   0  0  0  0  0  0  0  0  0  0  0  0
   -9.2304    4.1492  -16.9410 C   0  0  0  0  0  0  0  0  0  0  0  0
   -8.5381    4.2645  -15.7345 C   0  0  0  0  0  0  0  0  0  0  0  0
   -7.1911    4.6234  -15.7826 C   0  0  0  0  0  0  0  0  0  0  0  0
  1  2  1  0
  2  3  1  0
  4  2  1  1
  4  5  1  0
  5  6  2  0
  5  7  1  0
  7  8  1  0
  8  9  1  0
  9 10  1  1
  9 11  1  0
  8 12  1  0
 12 13  1  0
  4 14  1  0
 14 15  1  0
 15 16  2  0
 16 17  1  0
 17 18  2  0
 18 19  1  0
 19 20  2  0
 20 21  1  0
 21 22  2  0
 13  8  1  0
 22 14  1  0
 22 17  1  0
M  END
>  <energy_score>  (2312) 
-20.918191

>  <alias>  (2312) 
None

>  <HIPPO Pose ID>  (2312) 
74219

>  <smiles>  (2312) 
CC(C)[C@@H](C(=O)NC1([C@H](C)O)CC1)n1cnc2ccccc21

>  <inchikey>  (2312) 
PPZBNFUVCQNGMF-WFASDCNBSA-N

>  <distance_score>  (2312) 
1.487142

>  <ref_mols>  (2312) 
Z0101a,Z3880a

>  <ref_pdb>  (2312) 
Z3880a

>  <HIPPO Compound ID>  (2312) 
147270

>  <name>  (2312) 
P74219

>  <inspiration_score>  (2312) 
None

$$$$
P74240
     RDKit          3D

 23 25  0  0  0  0  0  0  0  0999 V2000
   -5.5747    6.2899  -11.5512 C   0  0  0  0  0  0  0  0  0  0  0  0
   -5.6652    6.2849  -13.0688 C   0  0  0  0  0  0  0  0  0  0  0  0
   -6.2923    7.6054  -13.5399 C   0  0  0  0  0  0  0  0  0  0  0  0
   -6.3542    5.0158  -13.6288 C   0  0  1  0  0  0  0  0  0  0  0  0
   -7.7584    4.9235  -12.9527 C   0  0  0  0  0  0  0  0  0  0  0  0
   -8.6836    5.5330  -13.3353 O   0  0  0  0  0  0  0  0  0  0  0  0
   -7.6026    3.9962  -11.6986 N   0  0  0  0  0  0  0  0  0  0  0  0
   -8.5300    3.7122  -10.6131 C   0  0  1  0  0  0  0  0  0  0  0  0
   -8.6041    2.2648  -10.2202 C   0  0  0  0  0  0  0  0  0  0  0  0
   -8.5345    2.2380   -8.7082 C   0  0  2  0  0  0  0  0  0  0  0  0
   -9.7937    1.7906   -8.0057 C   0  0  0  0  0  0  0  0  0  0  0  0
   -8.2125    3.5564   -8.2657 O   0  0  0  0  0  0  0  0  0  0  0  0
   -8.1891    4.4178   -9.3150 C   0  0  0  0  0  0  0  0  0  0  0  0
   -7.9147    5.6033   -9.1979 O   0  0  0  0  0  0  0  0  0  0  0  0
   -6.2681    4.9975  -15.1058 N   0  0  0  0  0  0  0  0  0  0  0  0
   -5.0963    5.2576  -15.8004 C   0  0  0  0  0  0  0  0  0  0  0  0
   -5.2524    5.2273  -17.0993 N   0  0  0  0  0  0  0  0  0  0  0  0
   -6.5494    4.8338  -17.2690 C   0  0  0  0  0  0  0  0  0  0  0  0
   -7.2249    4.5813  -18.4624 C   0  0  0  0  0  0  0  0  0  0  0  0
   -8.5613    4.1962  -18.3984 C   0  0  0  0  0  0  0  0  0  0  0  0
   -9.2129    4.0549  -17.1849 C   0  0  0  0  0  0  0  0  0  0  0  0
   -8.5397    4.2503  -15.9839 C   0  0  0  0  0  0  0  0  0  0  0  0
   -7.2094    4.6701  -16.0463 C   0  0  0  0  0  0  0  0  0  0  0  0
  1  2  1  0
  2  3  1  0
  4  2  1  6
  4  5  1  0
  5  6  2  0
  5  7  1  0
  8  7  1  6
  8  9  1  0
  9 10  1  0
 10 11  1  1
 10 12  1  0
 12 13  1  0
 13 14  2  0
  4 15  1  0
 15 16  1  0
 16 17  2  0
 17 18  1  0
 18 19  2  0
 19 20  1  0
 20 21  2  0
 21 22  1  0
 22 23  2  0
 13  8  1  0
 23 15  1  0
 23 18  1  0
M  END
>  <energy_score>  (2313) 
-2.682802

>  <alias>  (2313) 
None

>  <HIPPO Pose ID>  (2313) 
74240

>  <smiles>  (2313) 
CC(C)[C@@H](C(=O)N[C@H]1C[C@H](C)OC1=O)n1cnc2ccccc21

>  <inchikey>  (2313) 
KXMVAZCSUMEFAP-WHOFXGATSA-N

>  <distance_score>  (2313) 
1.538025

>  <ref_mols>  (2313) 
Z0101a,Z3880a

>  <ref_pdb>  (2313) 
Z3880a

>  <HIPPO Compound ID>  (2313) 
147301

>  <name>  (2313) 
P74240

>  <inspiration_score>  (2313) 
None

$$$$
P74245
     RDKit          3D

 23 25  0  0  0  0  0  0  0  0999 V2000
   -3.6416    5.1623  -15.1986 C   0  0  0  0  0  0  0  0  0  0  0  0
   -5.0156    5.1111  -15.7664 C   0  0  0  0  0  0  0  0  0  0  0  0
   -5.2478    5.1862  -17.0582 N   0  0  0  0  0  0  0  0  0  0  0  0
   -6.5595    4.8495  -17.2018 C   0  0  0  0  0  0  0  0  0  0  0  0
   -7.2740    4.6617  -18.3857 C   0  0  0  0  0  0  0  0  0  0  0  0
   -8.6140    4.2964  -18.3022 C   0  0  0  0  0  0  0  0  0  0  0  0
   -9.2284    4.1147  -17.0750 C   0  0  0  0  0  0  0  0  0  0  0  0
   -8.5188    4.2626  -15.8861 C   0  0  0  0  0  0  0  0  0  0  0  0
   -7.1823    4.6599  -15.9665 C   0  0  0  0  0  0  0  0  0  0  0  0
   -6.2038    4.9315  -15.0387 N   0  0  0  0  0  0  0  0  0  0  0  0
   -6.3024    5.0009  -13.5581 C   0  0  2  0  0  0  0  0  0  0  0  0
   -7.6882    4.8752  -12.8415 C   0  0  0  0  0  0  0  0  0  0  0  0
   -8.6433    5.4426  -13.2184 O   0  0  0  0  0  0  0  0  0  0  0  0
   -7.4715    3.9864  -11.5644 N   0  0  0  0  0  0  0  0  0  0  0  0
   -8.3618    3.7016  -10.4525 C   0  0  1  0  0  0  0  0  0  0  0  0
   -8.4445    2.2570  -10.0085 C   0  0  0  0  0  0  0  0  0  0  0  0
   -9.0344    2.3236   -8.5987 C   0  0  0  0  0  0  0  0  0  0  0  0
   -8.6008    3.6664   -8.0182 C   0  0  0  0  0  0  0  0  0  0  0  0
   -7.9084    4.4045   -9.1592 C   0  0  2  0  0  0  0  0  0  0  0  0
   -8.2254    5.7885   -9.1435 O   0  0  0  0  0  0  0  0  0  0  0  0
   -5.7244    6.3548  -13.0535 C   0  0  0  0  0  0  0  0  0  0  0  0
   -5.6730    6.4617  -11.5356 C   0  0  0  0  0  0  0  0  0  0  0  0
   -6.4171    7.5999  -13.6250 C   0  0  0  0  0  0  0  0  0  0  0  0
  1  2  1  0
  2  3  2  0
  3  4  1  0
  4  5  2  0
  5  6  1  0
  6  7  2  0
  7  8  1  0
  8  9  2  0
  9 10  1  0
 10 11  1  0
 11 12  1  0
 12 13  2  0
 12 14  1  0
 15 14  1  6
 15 16  1  0
 16 17  1  0
 17 18  1  0
 18 19  1  0
 19 20  1  6
 11 21  1  6
 21 22  1  0
 21 23  1  0
 10  2  1  0
 19 15  1  0
  9  4  1  0
M  END
>  <energy_score>  (2314) 
-22.383769

>  <alias>  (2314) 
None

>  <HIPPO Pose ID>  (2314) 
74245

>  <smiles>  (2314) 
Cc1nc2ccccc2n1[C@H](C(=O)N[C@H]1CCC[C@@H]1O)C(C)C

>  <inchikey>  (2314) 
OGBWGDPMPBMDOE-XIRDDKMYSA-N

>  <distance_score>  (2314) 
1.46468

>  <ref_mols>  (2314) 
Z0101a,Z3880a

>  <ref_pdb>  (2314) 
Z3880a

>  <HIPPO Compound ID>  (2314) 
147307

>  <name>  (2314) 
P74245

>  <inspiration_score>  (2314) 
None

$$$$
P74249
     RDKit          3D

 23 26  0  0  0  0  0  0  0  0999 V2000
   -3.5557    5.2037  -15.2851 C   0  0  0  0  0  0  0  0  0  0  0  0
   -4.9366    5.1201  -15.8319 C   0  0  0  0  0  0  0  0  0  0  0  0
   -5.1911    5.1730  -17.1200 N   0  0  0  0  0  0  0  0  0  0  0  0
   -6.5076    4.8411  -17.2366 C   0  0  0  0  0  0  0  0  0  0  0  0
   -7.2464    4.6513  -18.4057 C   0  0  0  0  0  0  0  0  0  0  0  0
   -8.5862    4.2909  -18.2962 C   0  0  0  0  0  0  0  0  0  0  0  0
   -9.1761    4.1113  -17.0570 C   0  0  0  0  0  0  0  0  0  0  0  0
   -8.4425    4.2610  -15.8829 C   0  0  0  0  0  0  0  0  0  0  0  0
   -7.1071    4.6594  -15.9883 C   0  0  0  0  0  0  0  0  0  0  0  0
   -6.1106    4.9401  -15.0822 N   0  0  0  0  0  0  0  0  0  0  0  0
   -6.1774    5.0482  -13.6033 C   0  0  2  0  0  0  0  0  0  0  0  0
   -7.5306    4.8657  -12.8515 C   0  0  0  0  0  0  0  0  0  0  0  0
   -8.5263    5.3751  -13.2087 O   0  0  0  0  0  0  0  0  0  0  0  0
   -7.2284    4.0085  -11.5635 N   0  0  0  0  0  0  0  0  0  0  0  0
   -8.0534    3.7017  -10.4439 C   0  0  1  0  0  0  0  0  0  0  0  0
   -9.0644    2.5968  -10.5811 C   0  0  0  0  0  0  0  0  0  0  0  0
   -9.5421    2.3103   -9.2561 O   0  0  0  0  0  0  0  0  0  0  0  0
   -8.4009    2.4707   -8.4056 C   0  0  0  0  0  0  0  0  0  0  0  0
   -7.5834    3.5568   -9.0427 C   0  0  2  0  0  0  0  0  0  0  0  0
   -8.2526    4.8296   -9.4381 C   0  0  0  0  0  0  0  0  0  0  0  0
   -5.6506    6.4390  -13.1498 C   0  0  0  0  0  0  0  0  0  0  0  0
   -5.6108    6.6108  -11.6376 C   0  0  0  0  0  0  0  0  0  0  0  0
   -6.3850    7.6343  -13.7704 C   0  0  0  0  0  0  0  0  0  0  0  0
  1  2  1  0
  2  3  2  0
  3  4  1  0
  4  5  2  0
  5  6  1  0
  6  7  2  0
  7  8  1  0
  8  9  2  0
  9 10  1  0
 10 11  1  0
 11 12  1  0
 12 13  2  0
 12 14  1  0
 15 14  1  6
 15 16  1  0
 16 17  1  0
 17 18  1  0
 19 18  1  1
 19 20  1  0
 11 21  1  6
 21 22  1  0
 21 23  1  0
 10  2  1  0
 19 15  1  0
  9  4  1  0
 20 15  1  0
M  END
>  <energy_score>  (2315) 
-14.247802

>  <alias>  (2315) 
None

>  <HIPPO Pose ID>  (2315) 
74249

>  <smiles>  (2315) 
Cc1nc2ccccc2n1[C@H](C(=O)N[C@@]12COC[C@@H]1C2)C(C)C

>  <inchikey>  (2315) 
ZBPASXZGIBBLLU-OWQGQXMQSA-N

>  <distance_score>  (2315) 
1.585997

>  <ref_mols>  (2315) 
Z0101a,Z3880a

>  <ref_pdb>  (2315) 
Z3880a

>  <HIPPO Compound ID>  (2315) 
147309

>  <name>  (2315) 
P74249

>  <inspiration_score>  (2315) 
None

$$$$
P74255
     RDKit          3D

 23 25  0  0  0  0  0  0  0  0999 V2000
   -3.9618    5.3930  -14.6731 C   0  0  0  0  0  0  0  0  0  0  0  0
   -5.1933    5.1695  -15.4661 C   0  0  0  0  0  0  0  0  0  0  0  0
   -5.2274    5.1635  -16.7874 N   0  0  0  0  0  0  0  0  0  0  0  0
   -6.4949    4.7750  -17.1242 C   0  0  0  0  0  0  0  0  0  0  0  0
   -7.0577    4.5398  -18.3809 C   0  0  0  0  0  0  0  0  0  0  0  0
   -8.3972    4.1443  -18.4440 C   0  0  0  0  0  0  0  0  0  0  0  0
   -9.1737    4.0168  -17.3023 C   0  0  0  0  0  0  0  0  0  0  0  0
   -8.6228    4.2263  -16.0461 C   0  0  0  0  0  0  0  0  0  0  0  0
   -7.2777    4.6064  -15.9904 C   0  0  0  0  0  0  0  0  0  0  0  0
   -6.4447    4.9173  -14.9306 N   0  0  0  0  0  0  0  0  0  0  0  0
   -6.9936    5.1939  -13.5893 C   0  0  1  0  0  0  0  0  0  0  0  0
   -6.8111    4.0960  -12.5140 C   0  0  0  0  0  0  0  0  0  0  0  0
   -5.8264    3.4825  -12.3629 O   0  0  0  0  0  0  0  0  0  0  0  0
   -8.1405    4.1025  -11.6826 N   0  0  0  0  0  0  0  0  0  0  0  0
   -8.4794    3.4270  -10.4512 C   0  0  1  0  0  0  0  0  0  0  0  0
   -7.5920    2.3482   -9.8831 C   0  0  0  0  0  0  0  0  0  0  0  0
   -8.2050    2.0906   -8.6054 O   0  0  0  0  0  0  0  0  0  0  0  0
   -8.6329    3.3606   -8.0838 C   0  0  0  0  0  0  0  0  0  0  0  0
   -8.5489    4.3407   -9.2391 C   0  0  1  0  0  0  0  0  0  0  0  0
   -7.4064    5.0761   -9.1415 F   0  0  0  0  0  0  0  0  0  0  0  0
   -6.6922    6.6138  -13.0738 C   0  0  0  0  0  0  0  0  0  0  0  0
   -5.6554    6.6484  -11.9570 C   0  0  0  0  0  0  0  0  0  0  0  0
   -7.9579    7.3301  -12.5728 C   0  0  0  0  0  0  0  0  0  0  0  0
  1  2  1  0
  2  3  2  0
  3  4  1  0
  4  5  2  0
  5  6  1  0
  6  7  2  0
  7  8  1  0
  8  9  2  0
  9 10  1  0
 10 11  1  0
 11 12  1  0
 12 13  2  0
 12 14  1  0
 15 14  1  6
 15 16  1  0
 16 17  1  0
 17 18  1  0
 18 19  1  0
 19 20  1  1
 11 21  1  1
 21 22  1  0
 21 23  1  0
 10  2  1  0
 19 15  1  0
  9  4  1  0
M  END
>  <energy_score>  (2316) 
-24.074359

>  <alias>  (2316) 
None

>  <HIPPO Pose ID>  (2316) 
74255

>  <smiles>  (2316) 
Cc1nc2ccccc2n1[C@@H](C(=O)N[C@H]1COC[C@H]1F)C(C)C

>  <inchikey>  (2316) 
IOYOBMILWSOYTH-IVMMDQJWSA-N

>  <distance_score>  (2316) 
1.577234

>  <ref_mols>  (2316) 
Z0101a,Z3880a

>  <ref_pdb>  (2316) 
Z3880a

>  <HIPPO Compound ID>  (2316) 
147310

>  <name>  (2316) 
P74255

>  <inspiration_score>  (2316) 
None

$$$$
P74257
     RDKit          3D

 23 25  0  0  0  0  0  0  0  0999 V2000
   -3.6458    5.0629  -15.0634 C   0  0  0  0  0  0  0  0  0  0  0  0
   -5.0232    5.0839  -15.6307 C   0  0  0  0  0  0  0  0  0  0  0  0
   -5.2444    5.2389  -16.9184 N   0  0  0  0  0  0  0  0  0  0  0  0
   -6.5488    4.8975  -17.0983 C   0  0  0  0  0  0  0  0  0  0  0  0
   -7.2424    4.7514  -18.3036 C   0  0  0  0  0  0  0  0  0  0  0  0
   -8.5751    4.3527  -18.2634 C   0  0  0  0  0  0  0  0  0  0  0  0
   -9.2046    4.1089  -17.0566 C   0  0  0  0  0  0  0  0  0  0  0  0
   -8.5154    4.2172  -15.8512 C   0  0  0  0  0  0  0  0  0  0  0  0
   -7.1837    4.6404  -15.8809 C   0  0  0  0  0  0  0  0  0  0  0  0
   -6.2194    4.8700  -14.9186 N   0  0  0  0  0  0  0  0  0  0  0  0
   -6.3203    4.7542  -13.4282 C   0  0  2  0  0  0  0  0  0  0  0  0
   -7.7365    4.6684  -12.7558 C   0  0  0  0  0  0  0  0  0  0  0  0
   -8.6632    5.2393  -13.1898 O   0  0  0  0  0  0  0  0  0  0  0  0
   -7.5900    3.8203  -11.4470 N   0  0  0  0  0  0  0  0  0  0  0  0
   -8.5319    3.5870  -10.3636 C   0  0  1  0  0  0  0  0  0  0  0  0
   -8.4928    2.2355   -9.7075 C   0  0  0  0  0  0  0  0  0  0  0  0
   -9.0466    2.5053   -8.3283 C   0  0  0  0  0  0  0  0  0  0  0  0
   -8.6514    3.8385   -8.0053 O   0  0  0  0  0  0  0  0  0  0  0  0
   -8.3380    4.4992   -9.1612 C   0  0  0  0  0  0  0  0  0  0  0  0
   -7.9775    5.6665   -9.1920 O   0  0  0  0  0  0  0  0  0  0  0  0
   -5.6326    5.9752  -12.7503 C   0  0  0  0  0  0  0  0  0  0  0  0
   -6.5191    7.2154  -12.6687 C   0  0  0  0  0  0  0  0  0  0  0  0
   -5.0297    5.6510  -11.3796 C   0  0  0  0  0  0  0  0  0  0  0  0
  1  2  1  0
  2  3  2  0
  3  4  1  0
  4  5  2  0
  5  6  1  0
  6  7  2  0
  7  8  1  0
  8  9  2  0
  9 10  1  0
 10 11  1  0
 11 12  1  0
 12 13  2  0
 12 14  1  0
 15 14  1  6
 15 16  1  0
 16 17  1  0
 17 18  1  0
 18 19  1  0
 19 20  2  0
 11 21  1  1
 21 22  1  0
 21 23  1  0
 10  2  1  0
 19 15  1  0
  9  4  1  0
M  END
>  <energy_score>  (2317) 
-5.899702

>  <alias>  (2317) 
None

>  <HIPPO Pose ID>  (2317) 
74257

>  <smiles>  (2317) 
Cc1nc2ccccc2n1[C@H](C(=O)N[C@H]1CCOC1=O)C(C)C

>  <inchikey>  (2317) 
FTIVQYSEEBSFIW-ZFWWWQNUSA-N

>  <distance_score>  (2317) 
1.398188

>  <ref_mols>  (2317) 
Z0101a,Z3880a

>  <ref_pdb>  (2317) 
Z3880a

>  <HIPPO Compound ID>  (2317) 
147317

>  <name>  (2317) 
P74257

>  <inspiration_score>  (2317) 
None

$$$$
P74262
     RDKit          3D

 23 25  0  0  0  0  0  0  0  0999 V2000
   -3.5658    5.1464  -15.2301 C   0  0  0  0  0  0  0  0  0  0  0  0
   -4.9625    5.1274  -15.7489 C   0  0  0  0  0  0  0  0  0  0  0  0
   -5.2381    5.2559  -17.0277 N   0  0  0  0  0  0  0  0  0  0  0  0
   -6.5488    4.9116  -17.1435 C   0  0  0  0  0  0  0  0  0  0  0  0
   -7.2902    4.7493  -18.3165 C   0  0  0  0  0  0  0  0  0  0  0  0
   -8.6223    4.3631  -18.2165 C   0  0  0  0  0  0  0  0  0  0  0  0
   -9.2021    4.1428  -16.9789 C   0  0  0  0  0  0  0  0  0  0  0  0
   -8.4675    4.2722  -15.8007 C   0  0  0  0  0  0  0  0  0  0  0  0
   -7.1350    4.6813  -15.8959 C   0  0  0  0  0  0  0  0  0  0  0  0
   -6.1272    4.9168  -14.9860 N   0  0  0  0  0  0  0  0  0  0  0  0
   -6.1430    4.8479  -13.4953 C   0  0  2  0  0  0  0  0  0  0  0  0
   -7.4855    4.6188  -12.7195 C   0  0  0  0  0  0  0  0  0  0  0  0
   -8.4925    5.1429  -13.0130 O   0  0  0  0  0  0  0  0  0  0  0  0
   -7.1415    3.6893  -11.5032 N   0  0  0  0  0  0  0  0  0  0  0  0
   -7.9592    3.2935  -10.3375 C   0  0  1  0  0  0  0  0  0  0  0  0
   -9.0380    2.3246  -10.7494 C   0  0  0  0  0  0  0  0  0  0  0  0
   -7.1051    2.7645   -9.1761 C   0  0  0  0  0  0  0  0  0  0  0  0
   -7.9206    3.6215   -8.1938 C   0  0  0  0  0  0  0  0  0  0  0  0
   -8.4446    4.4220   -9.3914 C   0  0  1  0  0  0  0  0  0  0  0  0
   -7.8928    5.7380   -9.5814 O   0  0  0  0  0  0  0  0  0  0  0  0
   -5.5450    6.1526  -12.9025 C   0  0  0  0  0  0  0  0  0  0  0  0
   -6.5297    7.3173  -12.8665 C   0  0  0  0  0  0  0  0  0  0  0  0
   -4.8933    5.9485  -11.5311 C   0  0  0  0  0  0  0  0  0  0  0  0
  1  2  1  0
  2  3  2  0
  3  4  1  0
  4  5  2  0
  5  6  1  0
  6  7  2  0
  7  8  1  0
  8  9  2  0
  9 10  1  0
 10 11  1  0
 11 12  1  0
 12 13  2  0
 12 14  1  0
 15 14  1  0
 15 16  1  6
 15 17  1  0
 17 18  1  0
 18 19  1  0
 19 20  1  6
 11 21  1  1
 21 22  1  0
 21 23  1  0
 10  2  1  0
 19 15  1  0
  9  4  1  0
M  END
>  <energy_score>  (2318) 
-17.421929

>  <alias>  (2318) 
None

>  <HIPPO Pose ID>  (2318) 
74262

>  <smiles>  (2318) 
Cc1nc2ccccc2n1[C@H](C(=O)N[C@@]1(C)CC[C@H]1O)C(C)C

>  <inchikey>  (2318) 
TVKDKIUTIQJLLO-RYRKJORJSA-N

>  <distance_score>  (2318) 
1.550407

>  <ref_mols>  (2318) 
Z0101a,Z3880a

>  <ref_pdb>  (2318) 
Z3880a

>  <HIPPO Compound ID>  (2318) 
147320

>  <name>  (2318) 
P74262

>  <inspiration_score>  (2318) 
None

$$$$
P74264
     RDKit          3D

 23 26  0  0  0  0  0  0  0  0999 V2000
   -4.0535    8.3545  -16.1802 C   0  0  0  0  0  0  0  0  0  0  0  0
   -4.8829    7.1702  -16.5401 C   0  0  0  0  0  0  0  0  0  0  0  0
   -5.7041    6.6218  -15.6712 N   0  0  0  0  0  0  0  0  0  0  0  0
   -6.4382    5.7065  -16.3622 C   0  0  0  0  0  0  0  0  0  0  0  0
   -7.5263    4.9454  -15.9054 C   0  0  0  0  0  0  0  0  0  0  0  0
   -8.2322    4.1673  -16.8202 C   0  0  0  0  0  0  0  0  0  0  0  0
   -7.8113    4.1005  -18.1455 C   0  0  0  0  0  0  0  0  0  0  0  0
   -6.6691    4.7873  -18.5947 C   0  0  0  0  0  0  0  0  0  0  0  0
   -6.0130    5.6300  -17.6885 C   0  0  0  0  0  0  0  0  0  0  0  0
   -4.9515    6.5283  -17.7722 N   0  0  0  0  0  0  0  0  0  0  0  0
   -4.0637    6.7421  -18.9317 C   0  0  2  0  0  0  0  0  0  0  0  0
   -2.6416    7.2642  -18.5255 C   0  0  0  0  0  0  0  0  0  0  0  0
   -2.2495    8.2956  -18.9147 O   0  0  0  0  0  0  0  0  0  0  0  0
   -1.9849    6.2361  -17.5578 N   0  0  0  0  0  0  0  0  0  0  0  0
   -0.7564    6.3133  -16.7998 C   0  0  2  0  0  0  0  0  0  0  0  0
   -0.7687    5.8500  -15.3361 C   0  0  0  0  0  0  0  0  0  0  0  0
    0.6060    6.1158  -14.9980 O   0  0  0  0  0  0  0  0  0  0  0  0
    1.0996    6.7092  -16.2316 C   0  0  2  0  0  0  0  0  0  0  0  0
   -0.0100    7.6944  -16.7453 C   0  0  0  0  0  0  0  0  0  0  0  0
    0.5841    5.8226  -17.4284 C   0  0  0  0  0  0  0  0  0  0  0  0
   -4.6216    7.6914  -20.0610 C   0  0  0  0  0  0  0  0  0  0  0  0
   -5.4552    8.8622  -19.5477 C   0  0  0  0  0  0  0  0  0  0  0  0
   -5.3417    6.9477  -21.1846 C   0  0  0  0  0  0  0  0  0  0  0  0
  1  2  1  0
  2  3  2  0
  3  4  1  0
  4  5  2  0
  5  6  1  0
  6  7  2  0
  7  8  1  0
  8  9  2  0
  9 10  1  0
 10 11  1  0
 11 12  1  0
 12 13  2  0
 12 14  1  0
 15 14  1  6
 15 16  1  0
 16 17  1  0
 17 18  1  0
 18 19  1  6
 18 20  1  0
 11 21  1  6
 21 22  1  0
 21 23  1  0
 10  2  1  0
 19 15  1  0
  9  4  1  0
 20 15  1  0
M  END
>  <energy_score>  (2319) 
-33.018579

>  <alias>  (2319) 
None

>  <HIPPO Pose ID>  (2319) 
74264

>  <smiles>  (2319) 
Cc1nc2ccccc2n1[C@H](C(=O)N[C@]12CO[C@H](C1)C2)C(C)C

>  <inchikey>  (2319) 
CTTLNPLFMWHDCU-OWQGQXMQSA-N

>  <distance_score>  (2319) 
1.883282

>  <ref_mols>  (2319) 
Z0101a,Z3880a

>  <ref_pdb>  (2319) 
Z3880a

>  <HIPPO Compound ID>  (2319) 
147321

>  <name>  (2319) 
P74264

>  <inspiration_score>  (2319) 
None

$$$$
P74271
     RDKit          3D

 23 25  0  0  0  0  0  0  0  0999 V2000
   -3.7686    5.0977  -15.0041 C   0  0  0  0  0  0  0  0  0  0  0  0
   -5.1151    5.0833  -15.6302 C   0  0  0  0  0  0  0  0  0  0  0  0
   -5.2883    5.1929  -16.9290 N   0  0  0  0  0  0  0  0  0  0  0  0
   -6.5891    4.8560  -17.1397 C   0  0  0  0  0  0  0  0  0  0  0  0
   -7.2433    4.6745  -18.3604 C   0  0  0  0  0  0  0  0  0  0  0  0
   -8.5797    4.2882  -18.3476 C   0  0  0  0  0  0  0  0  0  0  0  0
   -9.2529    4.0941  -17.1564 C   0  0  0  0  0  0  0  0  0  0  0  0
   -8.6028    4.2402  -15.9349 C   0  0  0  0  0  0  0  0  0  0  0  0
   -7.2678    4.6491  -15.9361 C   0  0  0  0  0  0  0  0  0  0  0  0
   -6.3360    4.9103  -14.9558 N   0  0  0  0  0  0  0  0  0  0  0  0
   -6.4859    4.9376  -13.4847 C   0  0  2  0  0  0  0  0  0  0  0  0
   -7.8579    4.7103  -12.7820 C   0  0  0  0  0  0  0  0  0  0  0  0
   -8.8707    5.1098  -13.2166 O   0  0  0  0  0  0  0  0  0  0  0  0
   -7.5509    3.9821  -11.4226 N   0  0  0  0  0  0  0  0  0  0  0  0
   -8.4150    3.6916  -10.2956 C   0  0  1  0  0  0  0  0  0  0  0  0
   -8.6589    2.2480   -9.8976 C   0  0  0  0  0  0  0  0  0  0  0  0
   -9.0986    2.2799   -8.5245 O   0  0  0  0  0  0  0  0  0  0  0  0
   -8.6699    3.5166   -7.9444 C   0  0  0  0  0  0  0  0  0  0  0  0
   -7.8452    4.2395   -8.9957 C   0  0  2  0  0  0  0  0  0  0  0  0
   -7.9031    5.7502   -8.8852 C   0  0  0  0  0  0  0  0  0  0  0  0
   -6.1204    6.3212  -12.8439 C   0  0  0  0  0  0  0  0  0  0  0  0
   -4.8600    6.2366  -12.0004 C   0  0  0  0  0  0  0  0  0  0  0  0
   -6.0981    7.5369  -13.7715 C   0  0  0  0  0  0  0  0  0  0  0  0
  1  2  1  0
  2  3  2  0
  3  4  1  0
  4  5  2  0
  5  6  1  0
  6  7  2  0
  7  8  1  0
  8  9  2  0
  9 10  1  0
 10 11  1  0
 11 12  1  0
 12 13  2  0
 12 14  1  0
 15 14  1  6
 15 16  1  0
 16 17  1  0
 17 18  1  0
 18 19  1  0
 19 20  1  6
 11 21  1  6
 21 22  1  0
 21 23  1  0
 10  2  1  0
 19 15  1  0
  9  4  1  0
M  END
>  <energy_score>  (2320) 
-8.401584

>  <alias>  (2320) 
None

>  <HIPPO Pose ID>  (2320) 
74271

>  <smiles>  (2320) 
Cc1nc2ccccc2n1[C@H](C(=O)N[C@H]1COC[C@@H]1C)C(C)C

>  <inchikey>  (2320) 
JDQOCCGMMWKUTK-NUTKFTJISA-N

>  <distance_score>  (2320) 
1.476859

>  <ref_mols>  (2320) 
Z0101a,Z3880a

>  <ref_pdb>  (2320) 
Z3880a

>  <HIPPO Compound ID>  (2320) 
147326

>  <name>  (2320) 
P74271

>  <inspiration_score>  (2320) 
None

$$$$
P74274
     RDKit          3D

 23 25  0  0  0  0  0  0  0  0999 V2000
   -7.7397    5.8053   -8.7763 C   0  0  0  0  0  0  0  0  0  0  0  0
   -7.8337    4.4701   -8.8194 C   0  0  0  0  0  0  0  0  0  0  0  0
   -8.6647    3.6606   -7.8712 C   0  0  0  0  0  0  0  0  0  0  0  0
   -9.1849    2.5728   -8.6378 O   0  0  0  0  0  0  0  0  0  0  0  0
   -8.5691    2.6212   -9.9433 C   0  0  0  0  0  0  0  0  0  0  0  0
   -7.3233    3.4931   -9.8332 C   0  0  1  0  0  0  0  0  0  0  0  0
   -6.8120    4.1353  -11.0302 N   0  0  0  0  0  0  0  0  0  0  0  0
   -7.1372    3.8769  -12.5379 C   0  0  0  0  0  0  0  0  0  0  0  0
   -7.8045    3.0597  -13.0374 O   0  0  0  0  0  0  0  0  0  0  0  0
   -6.3903    4.9852  -13.3608 C   0  0  2  0  0  0  0  0  0  0  0  0
   -7.0015    6.4004  -13.2096 C   0  0  0  0  0  0  0  0  0  0  0  0
   -6.1027    7.2763  -12.3469 C   0  0  0  0  0  0  0  0  0  0  0  0
   -8.4404    6.4617  -12.7068 C   0  0  0  0  0  0  0  0  0  0  0  0
   -6.1589    4.7599  -14.8187 N   0  0  0  0  0  0  0  0  0  0  0  0
   -4.9727    5.0694  -15.4915 C   0  0  0  0  0  0  0  0  0  0  0  0
   -3.6677    5.3078  -14.8227 C   0  0  0  0  0  0  0  0  0  0  0  0
   -5.1517    5.1205  -16.7961 N   0  0  0  0  0  0  0  0  0  0  0  0
   -6.4627    4.7897  -17.0003 C   0  0  0  0  0  0  0  0  0  0  0  0
   -7.1589    4.6541  -18.2074 C   0  0  0  0  0  0  0  0  0  0  0  0
   -8.5151    4.3315  -18.1633 C   0  0  0  0  0  0  0  0  0  0  0  0
   -9.1699    4.1721  -16.9500 C   0  0  0  0  0  0  0  0  0  0  0  0
   -8.4901    4.2978  -15.7395 C   0  0  0  0  0  0  0  0  0  0  0  0
   -7.1261    4.5919  -15.7900 C   0  0  0  0  0  0  0  0  0  0  0  0
  1  2  2  0
  2  3  1  0
  3  4  1  0
  4  5  1  0
  5  6  1  0
  6  7  1  6
  7  8  1  0
  8  9  2  0
  8 10  1  0
 10 11  1  6
 11 12  1  0
 11 13  1  0
 10 14  1  0
 14 15  1  0
 15 16  1  0
 15 17  2  0
 17 18  1  0
 18 19  2  0
 19 20  1  0
 20 21  2  0
 21 22  1  0
 22 23  2  0
  6  2  1  0
 23 14  1  0
 23 18  1  0
M  END
>  <energy_score>  (2321) 
-25.005584

>  <alias>  (2321) 
None

>  <HIPPO Pose ID>  (2321) 
74274

>  <smiles>  (2321) 
C=C1COC[C@H]1NC(=O)[C@H](C(C)C)n1c(C)nc2ccccc21

>  <inchikey>  (2321) 
DGVDOXDCOCBBGI-WBVHZDCISA-N

>  <distance_score>  (2321) 
1.562733

>  <ref_mols>  (2321) 
Z0101a,Z3880a

>  <ref_pdb>  (2321) 
Z3880a

>  <HIPPO Compound ID>  (2321) 
147328

>  <name>  (2321) 
P74274

>  <inspiration_score>  (2321) 
None

$$$$
P74277
     RDKit          3D

 23 25  0  0  0  0  0  0  0  0999 V2000
   -3.8321    5.3823  -14.6989 C   0  0  0  0  0  0  0  0  0  0  0  0
   -5.0832    5.1073  -15.4460 C   0  0  0  0  0  0  0  0  0  0  0  0
   -5.1739    5.1506  -16.7650 N   0  0  0  0  0  0  0  0  0  0  0  0
   -6.4525    4.7740  -17.0692 C   0  0  0  0  0  0  0  0  0  0  0  0
   -7.0683    4.6076  -18.3141 C   0  0  0  0  0  0  0  0  0  0  0  0
   -8.4172    4.2410  -18.3470 C   0  0  0  0  0  0  0  0  0  0  0  0
   -9.1527    4.0827  -17.1825 C   0  0  0  0  0  0  0  0  0  0  0  0
   -8.5501    4.2267  -15.9395 C   0  0  0  0  0  0  0  0  0  0  0  0
   -7.1891    4.5546  -15.9135 C   0  0  0  0  0  0  0  0  0  0  0  0
   -6.2943    4.7543  -14.8700 N   0  0  0  0  0  0  0  0  0  0  0  0
   -6.7866    4.9083  -13.4777 C   0  0  1  0  0  0  0  0  0  0  0  0
   -6.0742    4.1573  -12.3228 C   0  0  0  0  0  0  0  0  0  0  0  0
   -4.9487    3.8273  -12.3407 O   0  0  0  0  0  0  0  0  0  0  0  0
   -7.1486    4.0635  -11.1680 N   0  0  0  0  0  0  0  0  0  0  0  0
   -7.0630    3.4464   -9.8242 C   0  0  2  0  0  0  0  0  0  0  0  0
   -7.9036    2.1634   -9.7073 C   0  0  0  0  0  0  0  0  0  0  0  0
   -8.8896    2.8450   -8.7577 C   0  0  0  0  0  0  0  0  0  0  0  0
   -8.0608    4.1468   -8.8130 C   0  0  1  0  0  0  0  0  0  0  0  0
   -7.5781    4.5571   -7.4326 C   0  0  0  0  0  0  0  0  0  0  0  0
   -8.7300    5.2991   -9.3912 O   0  0  0  0  0  0  0  0  0  0  0  0
   -7.0369    6.4127  -13.2126 C   0  0  0  0  0  0  0  0  0  0  0  0
   -6.1725    7.0010  -12.1044 C   0  0  0  0  0  0  0  0  0  0  0  0
   -8.5080    6.7199  -12.9253 C   0  0  0  0  0  0  0  0  0  0  0  0
  1  2  1  0
  2  3  2  0
  3  4  1  0
  4  5  2  0
  5  6  1  0
  6  7  2  0
  7  8  1  0
  8  9  2  0
  9 10  1  0
 10 11  1  0
 11 12  1  0
 12 13  2  0
 12 14  1  0
 15 14  1  6
 15 16  1  0
 16 17  1  0
 17 18  1  0
 18 19  1  1
 18 20  1  0
 11 21  1  1
 21 22  1  0
 21 23  1  0
 10  2  1  0
 18 15  1  0
  9  4  1  0
M  END
>  <energy_score>  (2322) 
-5.180508

>  <alias>  (2322) 
None

>  <HIPPO Pose ID>  (2322) 
74277

>  <smiles>  (2322) 
Cc1nc2ccccc2n1[C@@H](C(=O)N[C@@H]1CC[C@]1(C)O)C(C)C

>  <inchikey>  (2322) 
YUIDJCFTJDGSSA-NUJGCVRESA-N

>  <distance_score>  (2322) 
1.664243

>  <ref_mols>  (2322) 
Z0101a,Z3880a

>  <ref_pdb>  (2322) 
Z3880a

>  <HIPPO Compound ID>  (2322) 
147329

>  <name>  (2322) 
P74277

>  <inspiration_score>  (2322) 
None

$$$$
P74284
     RDKit          3D

 23 25  0  0  0  0  0  0  0  0999 V2000
   -4.0670    5.1863  -14.4330 C   0  0  0  0  0  0  0  0  0  0  0  0
   -5.2800    5.0210  -15.2691 C   0  0  0  0  0  0  0  0  0  0  0  0
   -5.2780    5.0736  -16.5903 N   0  0  0  0  0  0  0  0  0  0  0  0
   -6.5431    4.7288  -16.9777 C   0  0  0  0  0  0  0  0  0  0  0  0
   -7.0731    4.5532  -18.2598 C   0  0  0  0  0  0  0  0  0  0  0  0
   -8.4180    4.1919  -18.3781 C   0  0  0  0  0  0  0  0  0  0  0  0
   -9.2321    4.0522  -17.2645 C   0  0  0  0  0  0  0  0  0  0  0  0
   -8.7159    4.2112  -15.9855 C   0  0  0  0  0  0  0  0  0  0  0  0
   -7.3624    4.5396  -15.8724 C   0  0  0  0  0  0  0  0  0  0  0  0
   -6.5520    4.7719  -14.7738 N   0  0  0  0  0  0  0  0  0  0  0  0
   -7.1300    5.0608  -13.4380 C   0  0  1  0  0  0  0  0  0  0  0  0
   -6.9811    3.9842  -12.3186 C   0  0  0  0  0  0  0  0  0  0  0  0
   -6.0267    3.3232  -12.1556 O   0  0  0  0  0  0  0  0  0  0  0  0
   -8.3034    4.0934  -11.4680 N   0  0  0  0  0  0  0  0  0  0  0  0
   -8.6692    3.4683  -10.1779 C   0  0  0  0  0  0  0  0  0  0  0  0
   -7.7430    2.5764   -9.3226 C   0  0  2  0  0  0  0  0  0  0  0  0
   -8.4496    1.7445   -8.3644 O   0  0  0  0  0  0  0  0  0  0  0  0
   -7.1928    3.8771   -8.6869 C   0  0  0  0  0  0  0  0  0  0  0  0
   -8.5560    4.5067   -9.0075 C   0  0  1  0  0  0  0  0  0  0  0  0
   -8.5192    5.9054   -9.3596 O   0  0  0  0  0  0  0  0  0  0  0  0
   -6.8191    6.5040  -12.9903 C   0  0  0  0  0  0  0  0  0  0  0  0
   -5.8407    6.5805  -11.8263 C   0  0  0  0  0  0  0  0  0  0  0  0
   -8.0852    7.2964  -12.6343 C   0  0  0  0  0  0  0  0  0  0  0  0
  1  2  1  0
  2  3  2  0
  3  4  1  0
  4  5  2  0
  5  6  1  0
  6  7  2  0
  7  8  1  0
  8  9  2  0
  9 10  1  0
 10 11  1  0
 11 12  1  0
 12 13  2  0
 12 14  1  0
 14 15  1  0
 15 16  1  0
 16 17  1  1
 16 18  1  0
 18 19  1  0
 19 20  1  6
 11 21  1  1
 21 22  1  0
 21 23  1  0
 10  2  1  0
 19 15  1  0
  9  4  1  0
M  END
>  <energy_score>  (2323) 
-12.223821

>  <alias>  (2323) 
None

>  <HIPPO Pose ID>  (2323) 
74284

>  <smiles>  (2323) 
Cc1nc2ccccc2n1[C@@H](C(=O)NC1[C@H](O)C[C@H]1O)C(C)C

>  <inchikey>  (2323) 
FSZJHNRDHROALM-IIAWOOMASA-N

>  <distance_score>  (2323) 
1.577491

>  <ref_mols>  (2323) 
Z0101a,Z3880a

>  <ref_pdb>  (2323) 
Z3880a

>  <HIPPO Compound ID>  (2323) 
147336

>  <name>  (2323) 
P74284

>  <inspiration_score>  (2323) 
None

$$$$
P74285
     RDKit          3D

 23 26  0  0  0  0  0  0  0  0999 V2000
   -2.7566    6.3856  -15.7987 C   0  0  0  0  0  0  0  0  0  0  0  0
   -4.1482    6.0656  -16.2108 C   0  0  0  0  0  0  0  0  0  0  0  0
   -5.0321    5.5728  -15.3661 N   0  0  0  0  0  0  0  0  0  0  0  0
   -6.1259    5.2369  -16.1095 C   0  0  0  0  0  0  0  0  0  0  0  0
   -7.3148    4.6117  -15.6987 C   0  0  0  0  0  0  0  0  0  0  0  0
   -8.2806    4.2973  -16.6566 C   0  0  0  0  0  0  0  0  0  0  0  0
   -8.0576    4.6004  -17.9978 C   0  0  0  0  0  0  0  0  0  0  0  0
   -6.8890    5.2578  -18.4184 C   0  0  0  0  0  0  0  0  0  0  0  0
   -5.9367    5.5836  -17.4445 C   0  0  0  0  0  0  0  0  0  0  0  0
   -4.7064    6.2350  -17.4665 N   0  0  0  0  0  0  0  0  0  0  0  0
   -4.1595    6.9797  -18.6135 C   0  0  1  0  0  0  0  0  0  0  0  0
   -3.8003    8.4492  -18.2528 C   0  0  0  0  0  0  0  0  0  0  0  0
   -3.1311    8.7425  -17.3277 O   0  0  0  0  0  0  0  0  0  0  0  0
   -4.3874    9.3177  -19.3581 N   0  0  0  0  0  0  0  0  0  0  0  0
   -5.8027    9.8501  -18.9747 C   0  0  0  0  0  0  0  0  0  0  0  0
   -5.2098   11.1917  -18.6473 C   0  0  0  0  0  0  0  0  0  0  0  0
   -4.2096   10.7649  -19.6508 C   0  0  0  0  0  0  0  0  0  0  0  0
   -4.2940   11.3044  -21.0580 C   0  0  0  0  0  0  0  0  0  0  0  0
   -3.0864   12.0885  -20.8505 O   0  0  0  0  0  0  0  0  0  0  0  0
   -2.8479   11.4138  -19.5799 C   0  0  0  0  0  0  0  0  0  0  0  0
   -2.9203    6.3443  -19.3106 C   0  0  0  0  0  0  0  0  0  0  0  0
   -3.0349    4.8341  -19.4265 C   0  0  0  0  0  0  0  0  0  0  0  0
   -2.7043    6.9234  -20.7179 C   0  0  0  0  0  0  0  0  0  0  0  0
  1  2  1  0
  2  3  2  0
  3  4  1  0
  4  5  2  0
  5  6  1  0
  6  7  2  0
  7  8  1  0
  8  9  2  0
  9 10  1  0
 10 11  1  0
 11 12  1  0
 12 13  2  0
 12 14  1  0
 14 15  1  0
 15 16  1  0
 16 17  1  0
 17 18  1  0
 18 19  1  0
 19 20  1  0
 11 21  1  1
 21 22  1  0
 21 23  1  0
 10  2  1  0
 17 14  1  0
  9  4  1  0
 20 17  1  0
M  END
>  <energy_score>  (2324) 
-6.752036

>  <alias>  (2324) 
None

>  <HIPPO Pose ID>  (2324) 
74285

>  <smiles>  (2324) 
Cc1nc2ccccc2n1[C@@H](C(=O)N1CCC12COC2)C(C)C

>  <inchikey>  (2324) 
CWWGMHPNESUPRH-MRXNPFEDSA-N

>  <distance_score>  (2324) 
1.986494

>  <ref_mols>  (2324) 
Z0101a,Z3880a

>  <ref_pdb>  (2324) 
Z3880a

>  <HIPPO Compound ID>  (2324) 
147340

>  <name>  (2324) 
P74285

>  <inspiration_score>  (2324) 
None

$$$$
P74290
     RDKit          3D

 23 25  0  0  0  0  0  0  0  0999 V2000
   -3.7769    5.1290  -15.0257 C   0  0  0  0  0  0  0  0  0  0  0  0
   -5.1263    5.0828  -15.6558 C   0  0  0  0  0  0  0  0  0  0  0  0
   -5.3054    5.1892  -16.9540 N   0  0  0  0  0  0  0  0  0  0  0  0
   -6.6056    4.8449  -17.1593 C   0  0  0  0  0  0  0  0  0  0  0  0
   -7.2643    4.6678  -18.3774 C   0  0  0  0  0  0  0  0  0  0  0  0
   -8.6018    4.2857  -18.3600 C   0  0  0  0  0  0  0  0  0  0  0  0
   -9.2721    4.0904  -17.1673 C   0  0  0  0  0  0  0  0  0  0  0  0
   -8.6170    4.2281  -15.9479 C   0  0  0  0  0  0  0  0  0  0  0  0
   -7.2806    4.6308  -15.9551 C   0  0  0  0  0  0  0  0  0  0  0  0
   -6.3445    4.8807  -14.9791 N   0  0  0  0  0  0  0  0  0  0  0  0
   -6.4809    4.8857  -13.4933 C   0  0  2  0  0  0  0  0  0  0  0  0
   -7.8659    4.6523  -12.8062 C   0  0  0  0  0  0  0  0  0  0  0  0
   -8.8537    5.1298  -13.2255 O   0  0  0  0  0  0  0  0  0  0  0  0
   -7.6159    3.8102  -11.4979 N   0  0  0  0  0  0  0  0  0  0  0  0
   -8.5329    3.4696  -10.3842 C   0  0  1  0  0  0  0  0  0  0  0  0
   -8.0243    2.5070   -9.2634 C   0  0  2  0  0  0  0  0  0  0  0  0
   -9.0931    1.7962   -8.4288 C   0  0  0  0  0  0  0  0  0  0  0  0
   -7.4766    3.7544   -8.5279 C   0  0  0  0  0  0  0  0  0  0  0  0
   -8.5373    4.5783   -9.2727 C   0  0  1  0  0  0  0  0  0  0  0  0
   -8.1436    5.9129   -9.6382 O   0  0  0  0  0  0  0  0  0  0  0  0
   -5.9660    6.2514  -12.9539 C   0  0  0  0  0  0  0  0  0  0  0  0
   -5.2862    6.0880  -11.6055 C   0  0  0  0  0  0  0  0  0  0  0  0
   -6.9992    7.3831  -12.9022 C   0  0  0  0  0  0  0  0  0  0  0  0
  1  2  1  0
  2  3  2  0
  3  4  1  0
  4  5  2  0
  5  6  1  0
  6  7  2  0
  7  8  1  0
  8  9  2  0
  9 10  1  0
 10 11  1  0
 11 12  1  0
 12 13  2  0
 12 14  1  0
 15 14  1  6
 15 16  1  0
 16 17  1  1
 16 18  1  0
 18 19  1  0
 19 20  1  6
 11 21  1  6
 21 22  1  0
 21 23  1  0
 10  2  1  0
 19 15  1  0
  9  4  1  0
M  END
>  <energy_score>  (2325) 
-5.660418

>  <alias>  (2325) 
None

>  <HIPPO Pose ID>  (2325) 
74290

>  <smiles>  (2325) 
Cc1nc2ccccc2n1[C@H](C(=O)N[C@H]1[C@H](C)C[C@H]1O)C(C)C

>  <inchikey>  (2325) 
NLKYXJNUYAMFHO-JKEMJCCQSA-N

>  <distance_score>  (2325) 
1.501155

>  <ref_mols>  (2325) 
Z0101a,Z3880a

>  <ref_pdb>  (2325) 
Z3880a

>  <HIPPO Compound ID>  (2325) 
147353

>  <name>  (2325) 
P74290

>  <inspiration_score>  (2325) 
None

$$$$
P74297
     RDKit          3D

 23 25  0  0  0  0  0  0  0  0999 V2000
   -2.6445    7.0940  -16.2394 C   0  0  0  0  0  0  0  0  0  0  0  0
   -2.5949    5.6942  -15.6412 C   0  0  0  0  0  0  0  0  0  0  0  0
   -3.7763    5.3973  -14.7137 C   0  0  0  0  0  0  0  0  0  0  0  0
   -5.0715    5.1580  -15.4345 C   0  0  0  0  0  0  0  0  0  0  0  0
   -5.2122    5.1470  -16.7435 N   0  0  0  0  0  0  0  0  0  0  0  0
   -6.5130    4.8104  -16.9718 C   0  0  0  0  0  0  0  0  0  0  0  0
   -7.1550    4.6182  -18.2017 C   0  0  0  0  0  0  0  0  0  0  0  0
   -8.5061    4.2840  -18.2065 C   0  0  0  0  0  0  0  0  0  0  0  0
   -9.2080    4.1710  -17.0181 C   0  0  0  0  0  0  0  0  0  0  0  0
   -8.5806    4.3565  -15.7855 C   0  0  0  0  0  0  0  0  0  0  0  0
   -7.2191    4.6657  -15.7746 C   0  0  0  0  0  0  0  0  0  0  0  0
   -6.2889    4.8913  -14.7826 N   0  0  0  0  0  0  0  0  0  0  0  0
   -6.4819    5.0979  -13.3259 C   0  0  1  0  0  0  0  0  0  0  0  0
   -6.7857    6.5765  -13.0959 C   0  0  0  0  0  0  0  0  0  0  0  0
   -7.5808    4.3491  -12.5140 C   0  0  0  0  0  0  0  0  0  0  0  0
   -8.7149    4.4133  -12.8008 O   0  0  0  0  0  0  0  0  0  0  0  0
   -6.8801    3.6610  -11.2891 N   0  0  0  0  0  0  0  0  0  0  0  0
   -7.4628    2.9829  -10.0984 C   0  0  2  0  0  0  0  0  0  0  0  0
   -6.7465    1.6690   -9.8668 C   0  0  0  0  0  0  0  0  0  0  0  0
   -8.9949    2.8461   -9.9551 C   0  0  0  0  0  0  0  0  0  0  0  0
   -8.8423    3.2285   -8.4621 C   0  0  0  0  0  0  0  0  0  0  0  0
   -7.5527    3.9672   -8.8662 C   0  0  2  0  0  0  0  0  0  0  0  0
   -7.7172    5.3759   -9.1861 O   0  0  0  0  0  0  0  0  0  0  0  0
  1  2  1  0
  2  3  1  0
  3  4  1  0
  4  5  2  0
  5  6  1  0
  6  7  2  0
  7  8  1  0
  8  9  2  0
  9 10  1  0
 10 11  2  0
 11 12  1  0
 12 13  1  0
 13 14  1  6
 13 15  1  0
 15 16  2  0
 15 17  1  0
 18 17  1  0
 18 19  1  1
 18 20  1  0
 20 21  1  0
 21 22  1  0
 22 23  1  6
 12  4  1  0
 22 18  1  0
 11  6  1  0
M  END
>  <energy_score>  (2326) 
-10.469138

>  <alias>  (2326) 
None

>  <HIPPO Pose ID>  (2326) 
74297

>  <smiles>  (2326) 
CCCc1nc2ccccc2n1[C@@H](C)C(=O)N[C@]1(C)CC[C@@H]1O

>  <inchikey>  (2326) 
XIIXAYPILJDKGA-XLWVJDPXSA-N

>  <distance_score>  (2326) 
1.635507

>  <ref_mols>  (2326) 
Z0101a,Z3880a

>  <ref_pdb>  (2326) 
Z3880a

>  <HIPPO Compound ID>  (2326) 
147360

>  <name>  (2326) 
P74297

>  <inspiration_score>  (2326) 
None

$$$$
P74303
     RDKit          3D

 23 25  0  0  0  0  0  0  0  0999 V2000
   -5.4279    6.2294  -11.4046 C   0  0  0  0  0  0  0  0  0  0  0  0
   -5.5281    6.2395  -12.9230 C   0  0  0  0  0  0  0  0  0  0  0  0
   -6.1356    7.5774  -13.3761 C   0  0  0  0  0  0  0  0  0  0  0  0
   -6.2423    4.9852  -13.4881 C   0  0  1  0  0  0  0  0  0  0  0  0
   -7.6379    4.9369  -12.7902 C   0  0  0  0  0  0  0  0  0  0  0  0
   -8.5425    5.5816  -13.1668 O   0  0  0  0  0  0  0  0  0  0  0  0
   -7.5080    4.0042  -11.5336 N   0  0  0  0  0  0  0  0  0  0  0  0
   -8.4350    3.7583  -10.4431 C   0  0  1  0  0  0  0  0  0  0  0  0
   -8.3694    2.4010   -9.7889 C   0  0  0  0  0  0  0  0  0  0  0  0
   -9.0070    2.6482   -8.4343 C   0  0  0  0  0  0  0  0  0  0  0  0
   -8.7158    4.0090   -8.0740 O   0  0  0  0  0  0  0  0  0  0  0  0
   -8.2205    4.6770   -9.2432 C   0  0  0  0  0  0  0  0  0  0  0  0
   -6.1727    4.9952  -14.9686 N   0  0  0  0  0  0  0  0  0  0  0  0
   -5.0101    5.2514  -15.6794 C   0  0  0  0  0  0  0  0  0  0  0  0
   -5.1878    5.2372  -16.9767 N   0  0  0  0  0  0  0  0  0  0  0  0
   -6.4890    4.8605  -17.1362 C   0  0  0  0  0  0  0  0  0  0  0  0
   -7.1726    4.6104  -18.3262 C   0  0  0  0  0  0  0  0  0  0  0  0
   -8.4961    4.2232  -18.2173 C   0  0  0  0  0  0  0  0  0  0  0  0
   -9.1957    3.9305  -19.3056 F   0  0  0  0  0  0  0  0  0  0  0  0
   -9.1310    4.1098  -17.0037 C   0  0  0  0  0  0  0  0  0  0  0  0
  -10.4303    3.8220  -16.9983 F   0  0  0  0  0  0  0  0  0  0  0  0
   -8.4654    4.3069  -15.8099 C   0  0  0  0  0  0  0  0  0  0  0  0
   -7.1327    4.7014  -15.9000 C   0  0  0  0  0  0  0  0  0  0  0  0
  1  2  1  0
  2  3  1  0
  4  2  1  1
  4  5  1  0
  5  6  2  0
  5  7  1  0
  8  7  1  6
  8  9  1  0
  9 10  1  0
 10 11  1  0
 11 12  1  0
  4 13  1  0
 13 14  1  0
 14 15  2  0
 15 16  1  0
 16 17  2  0
 17 18  1  0
 18 19  1  0
 18 20  2  0
 20 21  1  0
 20 22  1  0
 22 23  2  0
 12  8  1  0
 23 13  1  0
 23 16  1  0
M  END
>  <energy_score>  (2327) 
-3.110096

>  <alias>  (2327) 
None

>  <HIPPO Pose ID>  (2327) 
74303

>  <smiles>  (2327) 
CC(C)[C@@H](C(=O)N[C@H]1CCOC1)n1cnc2cc(F)c(F)cc21

>  <inchikey>  (2327) 
KPZZHYPDUISFJJ-BONVTDFDSA-N

>  <distance_score>  (2327) 
1.485386

>  <ref_mols>  (2327) 
Z0101a,Z3880a

>  <ref_pdb>  (2327) 
Z3880a

>  <HIPPO Compound ID>  (2327) 
147363

>  <name>  (2327) 
P74303

>  <inspiration_score>  (2327) 
None

$$$$
P74304
     RDKit          3D

 23 25  0  0  0  0  0  0  0  0999 V2000
   -4.6681    4.2348  -13.2122 C   0  0  0  0  0  0  0  0  0  0  0  0
   -5.5703    5.3064  -13.7838 C   0  0  2  0  0  0  0  0  0  0  0  0
   -6.8508    5.5681  -12.8890 C   0  0  0  0  0  0  0  0  0  0  0  0
   -7.3758    6.6181  -12.9474 O   0  0  0  0  0  0  0  0  0  0  0  0
   -7.1710    4.3175  -11.9871 N   0  0  0  0  0  0  0  0  0  0  0  0
   -8.1432    4.1500  -10.9100 C   0  0  1  0  0  0  0  0  0  0  0  0
   -8.1937    2.7498  -10.3190 C   0  0  0  0  0  0  0  0  0  0  0  0
   -8.7965    2.9662   -8.9435 C   0  0  0  0  0  0  0  0  0  0  0  0
   -8.4347    4.2937   -8.5293 O   0  0  0  0  0  0  0  0  0  0  0  0
   -7.8747    4.9834   -9.6599 C   0  0  0  0  0  0  0  0  0  0  0  0
   -5.7836    5.1735  -15.2459 N   0  0  0  0  0  0  0  0  0  0  0  0
   -4.8509    5.4058  -16.2735 C   0  0  0  0  0  0  0  0  0  0  0  0
   -3.3983    5.7161  -16.1242 C   0  0  0  0  0  0  0  0  0  0  0  0
   -2.7952    5.9138  -17.3385 F   0  0  0  0  0  0  0  0  0  0  0  0
   -2.7112    4.7083  -15.5269 F   0  0  0  0  0  0  0  0  0  0  0  0
   -3.1855    6.8318  -15.3799 F   0  0  0  0  0  0  0  0  0  0  0  0
   -5.4168    5.2795  -17.4614 N   0  0  0  0  0  0  0  0  0  0  0  0
   -6.6836    4.8671  -17.2318 C   0  0  0  0  0  0  0  0  0  0  0  0
   -7.6546    4.5368  -18.1770 C   0  0  0  0  0  0  0  0  0  0  0  0
   -8.9118    4.1622  -17.7289 C   0  0  0  0  0  0  0  0  0  0  0  0
   -9.1713    4.0910  -16.3680 C   0  0  0  0  0  0  0  0  0  0  0  0
   -8.2049    4.3813  -15.4061 C   0  0  0  0  0  0  0  0  0  0  0  0
   -6.9551    4.7895  -15.8679 C   0  0  0  0  0  0  0  0  0  0  0  0
  2  1  1  1
  2  3  1  0
  3  4  2  0
  3  5  1  0
  6  5  1  6
  6  7  1  0
  7  8  1  0
  8  9  1  0
  9 10  1  0
  2 11  1  0
 11 12  1  0
 12 13  1  0
 13 14  1  0
 13 15  1  0
 13 16  1  0
 12 17  2  0
 17 18  1  0
 18 19  2  0
 19 20  1  0
 20 21  2  0
 21 22  1  0
 22 23  2  0
 10  6  1  0
 23 11  1  0
 23 18  1  0
M  END
>  <energy_score>  (2328) 
-13.518042

>  <alias>  (2328) 
None

>  <HIPPO Pose ID>  (2328) 
74304

>  <smiles>  (2328) 
C[C@H](C(=O)N[C@H]1CCOC1)n1c(C(F)(F)F)nc2ccccc21

>  <inchikey>  (2328) 
GIKXJDWKECCHHQ-ZJUUUORDSA-N

>  <distance_score>  (2328) 
1.82634

>  <ref_mols>  (2328) 
Z0101a,Z3880a

>  <ref_pdb>  (2328) 
Z3880a

>  <HIPPO Compound ID>  (2328) 
147368

>  <name>  (2328) 
P74304

>  <inspiration_score>  (2328) 
None

$$$$
P74306
     RDKit          3D

 23 25  0  0  0  0  0  0  0  0999 V2000
   -2.2809    5.3800  -15.0057 C   0  0  0  0  0  0  0  0  0  0  0  0
   -2.9848    6.7172  -15.1764 C   0  0  0  0  0  0  0  0  0  0  0  0
   -4.4002    6.7412  -14.5940 C   0  0  0  0  0  0  0  0  0  0  0  0
   -5.3678    5.8844  -15.3491 C   0  0  0  0  0  0  0  0  0  0  0  0
   -5.4230    5.8248  -16.6704 N   0  0  0  0  0  0  0  0  0  0  0  0
   -6.5952    5.1870  -16.9663 C   0  0  0  0  0  0  0  0  0  0  0  0
   -7.1655    4.8837  -18.2061 C   0  0  0  0  0  0  0  0  0  0  0  0
   -8.4432    4.3189  -18.2257 C   0  0  0  0  0  0  0  0  0  0  0  0
   -9.1392    4.0751  -17.0479 C   0  0  0  0  0  0  0  0  0  0  0  0
   -8.5584    4.3061  -15.8043 C   0  0  0  0  0  0  0  0  0  0  0  0
   -7.2773    4.8574  -15.8031 C   0  0  0  0  0  0  0  0  0  0  0  0
   -6.3952    5.1444  -14.7780 N   0  0  0  0  0  0  0  0  0  0  0  0
   -6.4627    4.4225  -13.4929 C   0  0  1  0  0  0  0  0  0  0  0  0
   -5.1223    4.1014  -12.8662 C   0  0  0  0  0  0  0  0  0  0  0  0
   -7.4110    4.9904  -12.4209 C   0  0  0  0  0  0  0  0  0  0  0  0
   -7.7571    6.1101  -12.3969 O   0  0  0  0  0  0  0  0  0  0  0  0
   -7.7422    3.8011  -11.4451 N   0  0  0  0  0  0  0  0  0  0  0  0
   -8.4879    3.7853  -10.1963 C   0  0  1  0  0  0  0  0  0  0  0  0
   -8.7900    2.4243   -9.5826 C   0  0  0  0  0  0  0  0  0  0  0  0
   -9.1184    2.6698   -8.2045 O   0  0  0  0  0  0  0  0  0  0  0  0
   -8.5072    3.9118   -7.8235 C   0  0  0  0  0  0  0  0  0  0  0  0
   -7.7763    4.4668   -9.0412 C   0  0  2  0  0  0  0  0  0  0  0  0
   -7.8626    5.8835   -9.1119 O   0  0  0  0  0  0  0  0  0  0  0  0
  1  2  1  0
  2  3  1  0
  3  4  1  0
  4  5  2  0
  5  6  1  0
  6  7  2  0
  7  8  1  0
  8  9  2  0
  9 10  1  0
 10 11  2  0
 11 12  1  0
 12 13  1  0
 13 14  1  1
 13 15  1  0
 15 16  2  0
 15 17  1  0
 18 17  1  6
 18 19  1  0
 19 20  1  0
 20 21  1  0
 21 22  1  0
 22 23  1  6
 12  4  1  0
 22 18  1  0
 11  6  1  0
M  END
>  <energy_score>  (2329) 
-2.188793

>  <alias>  (2329) 
None

>  <HIPPO Pose ID>  (2329) 
74306

>  <smiles>  (2329) 
CCCc1nc2ccccc2n1[C@@H](C)C(=O)N[C@H]1COC[C@@H]1O

>  <inchikey>  (2329) 
XUFLIJUQFODOTI-WHOFXGATSA-N

>  <distance_score>  (2329) 
1.505635

>  <ref_mols>  (2329) 
Z0101a,Z3880a

>  <ref_pdb>  (2329) 
Z3880a

>  <HIPPO Compound ID>  (2329) 
147372

>  <name>  (2329) 
P74306

>  <inspiration_score>  (2329) 
None

$$$$
P74313
     RDKit          3D

 23 25  0  0  0  0  0  0  0  0999 V2000
   -2.0521    5.7428  -16.3656 C   0  0  0  0  0  0  0  0  0  0  0  0
   -2.7949    7.0391  -16.0728 C   0  0  0  0  0  0  0  0  0  0  0  0
   -3.9455    6.8528  -15.0806 C   0  0  0  0  0  0  0  0  0  0  0  0
   -5.1065    6.0868  -15.6436 C   0  0  0  0  0  0  0  0  0  0  0  0
   -5.3406    5.9127  -16.9285 N   0  0  0  0  0  0  0  0  0  0  0  0
   -6.5299    5.2462  -17.0019 C   0  0  0  0  0  0  0  0  0  0  0  0
   -7.2376    4.8502  -18.1426 C   0  0  0  0  0  0  0  0  0  0  0  0
   -8.4947    4.2751  -17.9780 C   0  0  0  0  0  0  0  0  0  0  0  0
   -9.0143    4.0750  -16.7040 C   0  0  0  0  0  0  0  0  0  0  0  0
   -8.2904    4.3870  -15.5508 C   0  0  0  0  0  0  0  0  0  0  0  0
   -7.0501    4.9995  -15.7308 C   0  0  0  0  0  0  0  0  0  0  0  0
   -6.1048    5.4948  -14.8634 N   0  0  0  0  0  0  0  0  0  0  0  0
   -6.0224    5.3022  -13.3938 C   0  0  2  0  0  0  0  0  0  0  0  0
   -5.0806    4.1500  -13.1142 C   0  0  0  0  0  0  0  0  0  0  0  0
   -7.3748    5.3309  -12.5894 C   0  0  0  0  0  0  0  0  0  0  0  0
   -8.1452    6.1926  -12.7981 O   0  0  0  0  0  0  0  0  0  0  0  0
   -7.4007    4.1813  -11.5190 N   0  0  0  0  0  0  0  0  0  0  0  0
   -8.3334    3.9238  -10.4326 C   0  0  1  0  0  0  0  0  0  0  0  0
   -8.4114    2.4709   -9.9838 C   0  0  0  0  0  0  0  0  0  0  0  0
   -9.0299    2.5439   -8.5902 C   0  0  0  0  0  0  0  0  0  0  0  0
   -8.5430    3.8602   -7.9892 C   0  0  0  0  0  0  0  0  0  0  0  0
   -7.9115    4.6413   -9.1414 C   0  0  2  0  0  0  0  0  0  0  0  0
   -8.3269    5.9984   -9.1254 O   0  0  0  0  0  0  0  0  0  0  0  0
  1  2  1  0
  2  3  1  0
  3  4  1  0
  4  5  2  0
  5  6  1  0
  6  7  2  0
  7  8  1  0
  8  9  2  0
  9 10  1  0
 10 11  2  0
 11 12  1  0
 12 13  1  0
 13 14  1  6
 13 15  1  0
 15 16  2  0
 15 17  1  0
 18 17  1  6
 18 19  1  0
 19 20  1  0
 20 21  1  0
 21 22  1  0
 22 23  1  6
 12  4  1  0
 22 18  1  0
 11  6  1  0
M  END
>  <energy_score>  (2330) 
-8.684006

>  <alias>  (2330) 
None

>  <HIPPO Pose ID>  (2330) 
74313

>  <smiles>  (2330) 
CCCc1nc2ccccc2n1[C@H](C)C(=O)N[C@H]1CCC[C@@H]1O

>  <inchikey>  (2330) 
HKXNKPLNTMUIJL-INWMFGNUSA-N

>  <distance_score>  (2330) 
1.562464

>  <ref_mols>  (2330) 
Z0101a,Z3880a

>  <ref_pdb>  (2330) 
Z3880a

>  <HIPPO Compound ID>  (2330) 
147385

>  <name>  (2330) 
P74313

>  <inspiration_score>  (2330) 
None

$$$$
P74318
     RDKit          3D

 23 26  0  0  0  0  0  0  0  0999 V2000
   -2.6006    7.2753  -16.5619 C   0  0  0  0  0  0  0  0  0  0  0  0
   -2.8478    6.6114  -15.2132 C   0  0  0  0  0  0  0  0  0  0  0  0
   -3.4423    5.2065  -15.3293 C   0  0  0  0  0  0  0  0  0  0  0  0
   -4.8712    5.1984  -15.7773 C   0  0  0  0  0  0  0  0  0  0  0  0
   -5.1893    5.3170  -17.0494 N   0  0  0  0  0  0  0  0  0  0  0  0
   -6.4961    4.9513  -17.1333 C   0  0  0  0  0  0  0  0  0  0  0  0
   -7.2725    4.7841  -18.2836 C   0  0  0  0  0  0  0  0  0  0  0  0
   -8.5953    4.3754  -18.1438 C   0  0  0  0  0  0  0  0  0  0  0  0
   -9.1286    4.1323  -16.8878 C   0  0  0  0  0  0  0  0  0  0  0  0
   -8.3564    4.2587  -15.7327 C   0  0  0  0  0  0  0  0  0  0  0  0
   -7.0360    4.6979  -15.8724 C   0  0  0  0  0  0  0  0  0  0  0  0
   -6.0052    4.9480  -14.9842 N   0  0  0  0  0  0  0  0  0  0  0  0
   -6.0243    4.7854  -13.5089 C   0  0  1  0  0  0  0  0  0  0  0  0
   -5.2322    5.9007  -12.8194 C   0  0  0  0  0  0  0  0  0  0  0  0
   -7.3638    4.9049  -12.7370 C   0  0  0  0  0  0  0  0  0  0  0  0
   -8.2703    5.5468  -13.1212 O   0  0  0  0  0  0  0  0  0  0  0  0
   -7.1724    4.1132  -11.3809 N   0  0  0  0  0  0  0  0  0  0  0  0
   -8.0064    4.0435  -10.2244 C   0  0  1  0  0  0  0  0  0  0  0  0
   -8.9087    2.8459  -10.0250 C   0  0  0  0  0  0  0  0  0  0  0  0
   -9.4347    2.9169   -8.6841 O   0  0  0  0  0  0  0  0  0  0  0  0
   -8.4842    3.6255   -7.8821 C   0  0  0  0  0  0  0  0  0  0  0  0
   -7.6240    4.3968   -8.8302 C   0  0  2  0  0  0  0  0  0  0  0  0
   -8.2940    5.4337   -9.6500 C   0  0  0  0  0  0  0  0  0  0  0  0
  1  2  1  0
  2  3  1  0
  3  4  1  0
  4  5  2  0
  5  6  1  0
  6  7  2  0
  7  8  1  0
  8  9  2  0
  9 10  1  0
 10 11  2  0
 11 12  1  0
 12 13  1  0
 13 14  1  1
 13 15  1  0
 15 16  2  0
 15 17  1  0
 18 17  1  6
 18 19  1  0
 19 20  1  0
 20 21  1  0
 22 21  1  1
 22 23  1  0
 12  4  1  0
 22 18  1  0
 11  6  1  0
 23 18  1  0
M  END
>  <energy_score>  (2331) 
-3.656157

>  <alias>  (2331) 
None

>  <HIPPO Pose ID>  (2331) 
74318

>  <smiles>  (2331) 
CCCc1nc2ccccc2n1[C@@H](C)C(=O)N[C@@]12COC[C@@H]1C2

>  <inchikey>  (2331) 
HRJZYISTZOBOMU-LXIYXOSZSA-N

>  <distance_score>  (2331) 
1.492141

>  <ref_mols>  (2331) 
Z0101a,Z3880a

>  <ref_pdb>  (2331) 
Z3880a

>  <HIPPO Compound ID>  (2331) 
147387

>  <name>  (2331) 
P74318

>  <inspiration_score>  (2331) 
None

$$$$
P74330
     RDKit          3D

 23 25  0  0  0  0  0  0  0  0999 V2000
   -4.7219    8.9076  -15.0961 C   0  0  0  0  0  0  0  0  0  0  0  0
   -4.3649    7.7536  -14.1697 C   0  0  0  0  0  0  0  0  0  0  0  0
   -3.9707    6.4872  -14.9315 C   0  0  0  0  0  0  0  0  0  0  0  0
   -5.1400    5.7830  -15.5472 C   0  0  0  0  0  0  0  0  0  0  0  0
   -5.3115    5.7243  -16.8569 N   0  0  0  0  0  0  0  0  0  0  0  0
   -6.5325    5.1469  -17.0517 C   0  0  0  0  0  0  0  0  0  0  0  0
   -7.2005    4.8577  -18.2450 C   0  0  0  0  0  0  0  0  0  0  0  0
   -8.4940    4.3375  -18.1726 C   0  0  0  0  0  0  0  0  0  0  0  0
   -9.1067    4.1129  -16.9456 C   0  0  0  0  0  0  0  0  0  0  0  0
   -8.4321    4.3349  -15.7469 C   0  0  0  0  0  0  0  0  0  0  0  0
   -7.1390    4.8555  -15.8372 C   0  0  0  0  0  0  0  0  0  0  0  0
   -6.1824    5.1450  -14.8772 N   0  0  0  0  0  0  0  0  0  0  0  0
   -6.2397    4.5261  -13.5387 C   0  0  1  0  0  0  0  0  0  0  0  0
   -4.9474    4.4884  -12.7544 C   0  0  0  0  0  0  0  0  0  0  0  0
   -7.3706    5.0067  -12.6021 C   0  0  0  0  0  0  0  0  0  0  0  0
   -7.9022    6.0465  -12.7120 O   0  0  0  0  0  0  0  0  0  0  0  0
   -7.5769    3.8637  -11.5376 N   0  0  0  0  0  0  0  0  0  0  0  0
   -8.4091    3.8232  -10.3499 C   0  0  1  0  0  0  0  0  0  0  0  0
   -8.6664    2.4305   -9.8082 C   0  0  0  0  0  0  0  0  0  0  0  0
   -9.0686    2.6828   -8.3653 C   0  0  0  0  0  0  0  0  0  0  0  0
   -8.5348    3.9645   -7.9851 O   0  0  0  0  0  0  0  0  0  0  0  0
   -7.8090    4.4860   -9.1132 C   0  0  2  0  0  0  0  0  0  0  0  0
   -7.9063    5.9951   -9.1239 C   0  0  0  0  0  0  0  0  0  0  0  0
  1  2  1  0
  2  3  1  0
  3  4  1  0
  4  5  2  0
  5  6  1  0
  6  7  2  0
  7  8  1  0
  8  9  2  0
  9 10  1  0
 10 11  2  0
 11 12  1  0
 12 13  1  0
 13 14  1  1
 13 15  1  0
 15 16  2  0
 15 17  1  0
 18 17  1  6
 18 19  1  0
 19 20  1  0
 20 21  1  0
 21 22  1  0
 22 23  1  6
 12  4  1  0
 22 18  1  0
 11  6  1  0
M  END
>  <energy_score>  (2332) 
-3.507434

>  <alias>  (2332) 
None

>  <HIPPO Pose ID>  (2332) 
74330

>  <smiles>  (2332) 
CCCc1nc2ccccc2n1[C@@H](C)C(=O)N[C@H]1CCO[C@@H]1C

>  <inchikey>  (2332) 
VORPRWCTMKDJFJ-MJBXVCDLSA-N

>  <distance_score>  (2332) 
1.465593

>  <ref_mols>  (2332) 
Z0101a,Z3880a

>  <ref_pdb>  (2332) 
Z3880a

>  <HIPPO Compound ID>  (2332) 
147392

>  <name>  (2332) 
P74330

>  <inspiration_score>  (2332) 
None

$$$$
P74333
     RDKit          3D

 23 25  0  0  0  0  0  0  0  0999 V2000
   -2.3397    5.3151  -14.5674 C   0  0  0  0  0  0  0  0  0  0  0  0
   -2.6222    6.5920  -15.3430 C   0  0  0  0  0  0  0  0  0  0  0  0
   -3.9945    7.1973  -15.0440 C   0  0  0  0  0  0  0  0  0  0  0  0
   -5.1281    6.3652  -15.5579 C   0  0  0  0  0  0  0  0  0  0  0  0
   -5.3484    6.1614  -16.8432 N   0  0  0  0  0  0  0  0  0  0  0  0
   -6.5040    5.4355  -16.9164 C   0  0  0  0  0  0  0  0  0  0  0  0
   -7.1838    4.9724  -18.0516 C   0  0  0  0  0  0  0  0  0  0  0  0
   -8.3996    4.3117  -17.8797 C   0  0  0  0  0  0  0  0  0  0  0  0
   -8.9068    4.0977  -16.6023 C   0  0  0  0  0  0  0  0  0  0  0  0
   -8.2136    4.4935  -15.4558 C   0  0  0  0  0  0  0  0  0  0  0  0
   -7.0170    5.1882  -15.6443 C   0  0  0  0  0  0  0  0  0  0  0  0
   -6.0991    5.7434  -14.7698 N   0  0  0  0  0  0  0  0  0  0  0  0
   -5.9704    5.4235  -13.3238 C   0  0  2  0  0  0  0  0  0  0  0  0
   -5.5916    3.9579  -13.2090 C   0  0  0  0  0  0  0  0  0  0  0  0
   -7.1924    5.7075  -12.4045 C   0  0  0  0  0  0  0  0  0  0  0  0
   -8.1935    6.1846  -12.7904 O   0  0  0  0  0  0  0  0  0  0  0  0
   -6.7965    5.1849  -10.9664 N   0  0  0  0  0  0  0  0  0  0  0  0
   -7.5971    5.0626   -9.7476 C   0  0  1  0  0  0  0  0  0  0  0  0
   -8.3734    6.3564   -9.5028 C   0  0  0  0  0  0  0  0  0  0  0  0
   -8.4557    3.7933   -9.7490 C   0  0  0  0  0  0  0  0  0  0  0  0
   -8.6292    3.4341   -8.2781 C   0  0  0  0  0  0  0  0  0  0  0  0
   -7.6617    4.2015   -7.5422 O   0  0  0  0  0  0  0  0  0  0  0  0
   -6.7575    4.7611   -8.5019 C   0  0  0  0  0  0  0  0  0  0  0  0
  1  2  1  0
  2  3  1  0
  3  4  1  0
  4  5  2  0
  5  6  1  0
  6  7  2  0
  7  8  1  0
  8  9  2  0
  9 10  1  0
 10 11  2  0
 11 12  1  0
 12 13  1  0
 13 14  1  6
 13 15  1  0
 15 16  2  0
 15 17  1  0
 18 17  1  0
 18 19  1  1
 18 20  1  0
 20 21  1  0
 21 22  1  0
 22 23  1  0
 12  4  1  0
 23 18  1  0
 11  6  1  0
M  END
>  <energy_score>  (2333) 
-5.706158

>  <alias>  (2333) 
None

>  <HIPPO Pose ID>  (2333) 
74333

>  <smiles>  (2333) 
CCCc1nc2ccccc2n1[C@H](C)C(=O)N[C@@]1(C)CCOC1

>  <inchikey>  (2333) 
NSJFGRGBMWKVON-ACJLOTCBSA-N

>  <distance_score>  (2333) 
1.847676

>  <ref_mols>  (2333) 
Z0101a,Z3880a

>  <ref_pdb>  (2333) 
Z3880a

>  <HIPPO Compound ID>  (2333) 
147393

>  <name>  (2333) 
P74333

>  <inspiration_score>  (2333) 
None

$$$$
P74343
     RDKit          3D

 23 25  0  0  0  0  0  0  0  0999 V2000
   -2.1231    7.0072  -14.0016 C   0  0  0  0  0  0  0  0  0  0  0  0
   -3.2175    6.5581  -14.9572 C   0  0  0  0  0  0  0  0  0  0  0  0
   -4.2355    5.6548  -14.2562 C   0  0  0  0  0  0  0  0  0  0  0  0
   -5.3351    5.2197  -15.1726 C   0  0  0  0  0  0  0  0  0  0  0  0
   -5.2609    5.2248  -16.4964 N   0  0  0  0  0  0  0  0  0  0  0  0
   -6.4748    4.7881  -16.9502 C   0  0  0  0  0  0  0  0  0  0  0  0
   -6.9370    4.5828  -18.2545 C   0  0  0  0  0  0  0  0  0  0  0  0
   -8.2574    4.1549  -18.4326 C   0  0  0  0  0  0  0  0  0  0  0  0
   -9.1213    3.9988  -17.3600 C   0  0  0  0  0  0  0  0  0  0  0  0
   -8.6707    4.1852  -16.0620 C   0  0  0  0  0  0  0  0  0  0  0  0
   -7.3301    4.5460  -15.8873 C   0  0  0  0  0  0  0  0  0  0  0  0
   -6.5650    4.7485  -14.7462 N   0  0  0  0  0  0  0  0  0  0  0  0
   -7.2138    4.6931  -13.4193 C   0  0  2  0  0  0  0  0  0  0  0  0
   -7.7933    6.0685  -13.1012 C   0  0  0  0  0  0  0  0  0  0  0  0
   -6.4918    4.1527  -12.1712 C   0  0  0  0  0  0  0  0  0  0  0  0
   -5.3286    4.1440  -12.0317 O   0  0  0  0  0  0  0  0  0  0  0  0
   -7.6422    3.7525  -11.1701 N   0  0  0  0  0  0  0  0  0  0  0  0
   -7.5801    3.3555   -9.7700 C   0  0  2  0  0  0  0  0  0  0  0  0
   -8.4627    2.1609   -9.3725 C   0  0  0  0  0  0  0  0  0  0  0  0
   -9.2020    2.5182   -8.1829 O   0  0  0  0  0  0  0  0  0  0  0  0
   -8.6434    3.7328   -7.6845 C   0  0  0  0  0  0  0  0  0  0  0  0
   -8.1864    4.4682   -8.9221 C   0  0  1  0  0  0  0  0  0  0  0  0
   -7.2594    5.6288   -8.6513 C   0  0  0  0  0  0  0  0  0  0  0  0
  1  2  1  0
  2  3  1  0
  3  4  1  0
  4  5  2  0
  5  6  1  0
  6  7  2  0
  7  8  1  0
  8  9  2  0
  9 10  1  0
 10 11  2  0
 11 12  1  0
 12 13  1  0
 13 14  1  1
 13 15  1  0
 15 16  2  0
 15 17  1  0
 18 17  1  6
 18 19  1  0
 19 20  1  0
 20 21  1  0
 21 22  1  0
 22 23  1  1
 12  4  1  0
 22 18  1  0
 11  6  1  0
M  END
>  <energy_score>  (2334) 
-8.295275

>  <alias>  (2334) 
None

>  <HIPPO Pose ID>  (2334) 
74343

>  <smiles>  (2334) 
CCCc1nc2ccccc2n1[C@H](C)C(=O)N[C@@H]1COC[C@H]1C

>  <inchikey>  (2334) 
LNPVPWRQVILELM-UMVBOHGHSA-N

>  <distance_score>  (2334) 
1.572797

>  <ref_mols>  (2334) 
Z0101a,Z3880a

>  <ref_pdb>  (2334) 
Z3880a

>  <HIPPO Compound ID>  (2334) 
147401

>  <name>  (2334) 
P74343

>  <inspiration_score>  (2334) 
None

$$$$
P74345
     RDKit          3D

 23 25  0  0  0  0  0  0  0  0999 V2000
   -8.2991    5.7510   -8.9632 C   0  0  0  0  0  0  0  0  0  0  0  0
   -8.4721    4.4344   -9.1440 C   0  0  0  0  0  0  0  0  0  0  0  0
   -8.5328    3.4201   -8.0374 C   0  0  0  0  0  0  0  0  0  0  0  0
   -8.2892    2.1554   -8.6716 O   0  0  0  0  0  0  0  0  0  0  0  0
   -7.6903    2.4470   -9.9511 C   0  0  0  0  0  0  0  0  0  0  0  0
   -8.4859    3.6423  -10.4161 C   0  0  2  0  0  0  0  0  0  0  0  0
   -8.1070    4.4317  -11.5539 N   0  0  0  0  0  0  0  0  0  0  0  0
   -6.8404    4.3483  -12.4732 C   0  0  0  0  0  0  0  0  0  0  0  0
   -5.8872    3.6757  -12.3895 O   0  0  0  0  0  0  0  0  0  0  0  0
   -7.0338    5.4584  -13.5272 C   0  0  1  0  0  0  0  0  0  0  0  0
   -6.7114    6.8043  -12.9096 C   0  0  0  0  0  0  0  0  0  0  0  0
   -6.4485    5.2194  -14.8539 N   0  0  0  0  0  0  0  0  0  0  0  0
   -5.2436    5.6476  -15.3966 C   0  0  0  0  0  0  0  0  0  0  0  0
   -4.1263    6.2331  -14.5885 C   0  0  0  0  0  0  0  0  0  0  0  0
   -2.8516    6.5114  -15.3852 C   0  0  0  0  0  0  0  0  0  0  0  0
   -2.1003    5.2495  -15.7621 C   0  0  0  0  0  0  0  0  0  0  0  0
   -5.2467    5.5238  -16.7139 N   0  0  0  0  0  0  0  0  0  0  0  0
   -6.4544    4.9715  -17.0414 C   0  0  0  0  0  0  0  0  0  0  0  0
   -6.9809    4.6443  -18.2956 C   0  0  0  0  0  0  0  0  0  0  0  0
   -8.2843    4.1441  -18.3612 C   0  0  0  0  0  0  0  0  0  0  0  0
   -9.0502    3.9768  -17.2159 C   0  0  0  0  0  0  0  0  0  0  0  0
   -8.5267    4.2559  -15.9582 C   0  0  0  0  0  0  0  0  0  0  0  0
   -7.2258    4.7672  -15.9060 C   0  0  0  0  0  0  0  0  0  0  0  0
  1  2  2  0
  2  3  1  0
  3  4  1  0
  4  5  1  0
  5  6  1  0
  6  7  1  6
  7  8  1  0
  8  9  2  0
  8 10  1  0
 10 11  1  1
 10 12  1  0
 12 13  1  0
 13 14  1  0
 14 15  1  0
 15 16  1  0
 13 17  2  0
 17 18  1  0
 18 19  2  0
 19 20  1  0
 20 21  2  0
 21 22  1  0
 22 23  2  0
  6  2  1  0
 23 12  1  0
 23 18  1  0
M  END
>  <energy_score>  (2335) 
-4.56639

>  <alias>  (2335) 
None

>  <HIPPO Pose ID>  (2335) 
74345

>  <smiles>  (2335) 
C=C1COC[C@@H]1NC(=O)[C@@H](C)n1c(CCC)nc2ccccc21

>  <inchikey>  (2335) 
ZCPLNLBXMOCNAQ-HIFRSBDPSA-N

>  <distance_score>  (2335) 
1.615722

>  <ref_mols>  (2335) 
Z0101a,Z3880a

>  <ref_pdb>  (2335) 
Z3880a

>  <HIPPO Compound ID>  (2335) 
147403

>  <name>  (2335) 
P74345

>  <inspiration_score>  (2335) 
None

$$$$
P74346
     RDKit          3D

 23 25  0  0  0  0  0  0  0  0999 V2000
   -2.1982    6.1090  -16.4485 C   0  0  0  0  0  0  0  0  0  0  0  0
   -2.7622    6.0283  -15.0356 C   0  0  0  0  0  0  0  0  0  0  0  0
   -4.1580    6.6411  -14.8952 C   0  0  0  0  0  0  0  0  0  0  0  0
   -5.2372    5.8410  -15.5524 C   0  0  0  0  0  0  0  0  0  0  0  0
   -5.3772    5.7700  -16.8654 N   0  0  0  0  0  0  0  0  0  0  0  0
   -6.5768    5.1565  -17.0816 C   0  0  0  0  0  0  0  0  0  0  0  0
   -7.2150    4.8454  -18.2842 C   0  0  0  0  0  0  0  0  0  0  0  0
   -8.5029    4.3093  -18.2297 C   0  0  0  0  0  0  0  0  0  0  0  0
   -9.1389    4.0907  -17.0136 C   0  0  0  0  0  0  0  0  0  0  0  0
   -8.4899    4.3274  -15.8048 C   0  0  0  0  0  0  0  0  0  0  0  0
   -7.2027    4.8623  -15.8787 C   0  0  0  0  0  0  0  0  0  0  0  0
   -6.2694    5.1705  -14.9055 N   0  0  0  0  0  0  0  0  0  0  0  0
   -6.3434    4.5595  -13.5666 C   0  0  1  0  0  0  0  0  0  0  0  0
   -5.0223    4.3748  -12.8513 C   0  0  0  0  0  0  0  0  0  0  0  0
   -7.3826    5.1629  -12.5971 C   0  0  0  0  0  0  0  0  0  0  0  0
   -7.7900    6.2606  -12.6739 O   0  0  0  0  0  0  0  0  0  0  0  0
   -7.6585    4.0456  -11.5203 N   0  0  0  0  0  0  0  0  0  0  0  0
   -8.5785    4.0348  -10.3657 C   0  0  1  0  0  0  0  0  0  0  0  0
   -9.1369    2.6250  -10.0589 C   0  0  0  0  0  0  0  0  0  0  0  0
   -7.9568    2.4169   -9.0951 C   0  0  0  0  0  0  0  0  0  0  0  0
   -7.8629    3.9633   -8.9656 C   0  0  2  0  0  0  0  0  0  0  0  0
   -8.5950    4.4586   -7.7234 C   0  0  0  0  0  0  0  0  0  0  0  0
   -6.5479    4.5608   -8.9866 O   0  0  0  0  0  0  0  0  0  0  0  0
  1  2  1  0
  2  3  1  0
  3  4  1  0
  4  5  2  0
  5  6  1  0
  6  7  2  0
  7  8  1  0
  8  9  2  0
  9 10  1  0
 10 11  2  0
 11 12  1  0
 12 13  1  0
 13 14  1  1
 13 15  1  0
 15 16  2  0
 15 17  1  0
 18 17  1  6
 18 19  1  0
 19 20  1  0
 20 21  1  0
 21 22  1  1
 21 23  1  0
 12  4  1  0
 21 18  1  0
 11  6  1  0
M  END
>  <energy_score>  (2336) 
-15.842457

>  <alias>  (2336) 
None

>  <HIPPO Pose ID>  (2336) 
74346

>  <smiles>  (2336) 
CCCc1nc2ccccc2n1[C@@H](C)C(=O)N[C@H]1CC[C@@]1(C)O

>  <inchikey>  (2336) 
CHIWVFUMTWIESS-XLWVJDPXSA-N

>  <distance_score>  (2336) 
1.60681

>  <ref_mols>  (2336) 
Z0101a,Z3880a

>  <ref_pdb>  (2336) 
Z3880a

>  <HIPPO Compound ID>  (2336) 
147404

>  <name>  (2336) 
P74346

>  <inspiration_score>  (2336) 
None

$$$$
P74350
     RDKit          3D

 23 25  0  0  0  0  0  0  0  0999 V2000
   -4.5768    8.8641  -15.6020 C   0  0  0  0  0  0  0  0  0  0  0  0
   -4.3089    7.8499  -14.4976 C   0  0  0  0  0  0  0  0  0  0  0  0
   -3.9335    6.4699  -15.0421 C   0  0  0  0  0  0  0  0  0  0  0  0
   -5.1105    5.7311  -15.5997 C   0  0  0  0  0  0  0  0  0  0  0  0
   -5.2955    5.6347  -16.9042 N   0  0  0  0  0  0  0  0  0  0  0  0
   -6.5246    5.0744  -17.0704 C   0  0  0  0  0  0  0  0  0  0  0  0
   -7.2097    4.7899  -18.2551 C   0  0  0  0  0  0  0  0  0  0  0  0
   -8.5114    4.2991  -18.1676 C   0  0  0  0  0  0  0  0  0  0  0  0
   -9.1101    4.0881  -16.9325 C   0  0  0  0  0  0  0  0  0  0  0  0
   -8.4152    4.2978  -15.7420 C   0  0  0  0  0  0  0  0  0  0  0  0
   -7.1170    4.8049  -15.8425 C   0  0  0  0  0  0  0  0  0  0  0  0
   -6.1532    5.1224  -14.8947 N   0  0  0  0  0  0  0  0  0  0  0  0
   -6.2099    4.5892  -13.5146 C   0  0  1  0  0  0  0  0  0  0  0  0
   -5.0006    4.8401  -12.6398 C   0  0  0  0  0  0  0  0  0  0  0  0
   -7.4677    4.9535  -12.6811 C   0  0  0  0  0  0  0  0  0  0  0  0
   -8.1299    5.8954  -12.9066 O   0  0  0  0  0  0  0  0  0  0  0  0
   -7.5510    3.9064  -11.5074 N   0  0  0  0  0  0  0  0  0  0  0  0
   -8.5242    3.7643  -10.4406 C   0  0  1  0  0  0  0  0  0  0  0  0
   -8.6796    2.3934   -9.7911 C   0  0  0  0  0  0  0  0  0  0  0  0
   -9.2346    2.6173   -8.4823 O   0  0  0  0  0  0  0  0  0  0  0  0
   -8.6032    3.7920   -7.9586 C   0  0  0  0  0  0  0  0  0  0  0  0
   -8.1947    4.5472   -9.1947 C   0  0  0  0  0  0  0  0  0  0  0  0
   -7.6746    5.6576   -9.1754 O   0  0  0  0  0  0  0  0  0  0  0  0
  1  2  1  0
  2  3  1  0
  3  4  1  0
  4  5  2  0
  5  6  1  0
  6  7  2  0
  7  8  1  0
  8  9  2  0
  9 10  1  0
 10 11  2  0
 11 12  1  0
 12 13  1  0
 13 14  1  1
 13 15  1  0
 15 16  2  0
 15 17  1  0
 18 17  1  6
 18 19  1  0
 19 20  1  0
 20 21  1  0
 21 22  1  0
 22 23  2  0
 12  4  1  0
 22 18  1  0
 11  6  1  0
M  END
>  <energy_score>  (2337) 
-3.39572

>  <alias>  (2337) 
None

>  <HIPPO Pose ID>  (2337) 
74350

>  <smiles>  (2337) 
CCCc1nc2ccccc2n1[C@@H](C)C(=O)N[C@H]1COCC1=O

>  <inchikey>  (2337) 
VJYFIQZFXTVTCS-AAEUAGOBSA-N

>  <distance_score>  (2337) 
1.640896

>  <ref_mols>  (2337) 
Z0101a,Z3880a

>  <ref_pdb>  (2337) 
Z3880a

>  <HIPPO Compound ID>  (2337) 
147406

>  <name>  (2337) 
P74350

>  <inspiration_score>  (2337) 
None

$$$$
P74352
     RDKit          3D

 24 26  0  0  0  0  0  0  0  0999 V2000
   -2.2924    4.9829  -14.8141 C   0  0  0  0  0  0  0  0  0  0  0  0
   -3.0195    6.3171  -14.8154 C   0  0  0  0  0  0  0  0  0  0  0  0
   -4.4377    6.2191  -14.2527 C   0  0  0  0  0  0  0  0  0  0  0  0
   -5.3940    5.4801  -15.1394 C   0  0  0  0  0  0  0  0  0  0  0  0
   -5.2938    5.4109  -16.4590 N   0  0  0  0  0  0  0  0  0  0  0  0
   -6.4709    4.8732  -16.9009 C   0  0  0  0  0  0  0  0  0  0  0  0
   -6.9148    4.6249  -18.2052 C   0  0  0  0  0  0  0  0  0  0  0  0
   -8.2151    4.1446  -18.3871 C   0  0  0  0  0  0  0  0  0  0  0  0
   -9.0708    3.9569  -17.3126 C   0  0  0  0  0  0  0  0  0  0  0  0
   -8.6327    4.1687  -16.0115 C   0  0  0  0  0  0  0  0  0  0  0  0
   -7.3155    4.6037  -15.8329 C   0  0  0  0  0  0  0  0  0  0  0  0
   -6.5723    4.8904  -14.6972 N   0  0  0  0  0  0  0  0  0  0  0  0
   -7.1894    4.8534  -13.3547 C   0  0  2  0  0  0  0  0  0  0  0  0
   -7.5648    6.2610  -12.9161 C   0  0  0  0  0  0  0  0  0  0  0  0
   -6.4667    4.0940  -12.2190 C   0  0  0  0  0  0  0  0  0  0  0  0
   -5.3152    3.8798  -12.2108 O   0  0  0  0  0  0  0  0  0  0  0  0
   -7.5624    3.8106  -11.1267 N   0  0  0  0  0  0  0  0  0  0  0  0
   -7.4330    3.2934   -9.7685 C   0  0  2  0  0  0  0  0  0  0  0  0
   -8.3357    2.1267   -9.4351 C   0  0  0  0  0  0  0  0  0  0  0  0
   -9.2909    2.6402   -8.3778 C   0  0  1  0  0  0  0  0  0  0  0  0
   -9.5738    1.6814   -7.2396 C   0  0  0  0  0  0  0  0  0  0  0  0
   -8.7552    3.8598   -7.8743 O   0  0  0  0  0  0  0  0  0  0  0  0
   -7.8999    4.3680   -8.8014 C   0  0  0  0  0  0  0  0  0  0  0  0
   -7.6060    5.5543   -8.8629 O   0  0  0  0  0  0  0  0  0  0  0  0
  1  2  1  0
  2  3  1  0
  3  4  1  0
  4  5  2  0
  5  6  1  0
  6  7  2  0
  7  8  1  0
  8  9  2  0
  9 10  1  0
 10 11  2  0
 11 12  1  0
 12 13  1  0
 13 14  1  1
 13 15  1  0
 15 16  2  0
 15 17  1  0
 18 17  1  6
 18 19  1  0
 19 20  1  0
 20 21  1  1
 20 22  1  0
 22 23  1  0
 23 24  2  0
 12  4  1  0
 23 18  1  0
 11  6  1  0
M  END
>  <energy_score>  (2338) 
-10.935754

>  <alias>  (2338) 
None

>  <HIPPO Pose ID>  (2338) 
74352

>  <smiles>  (2338) 
CCCc1nc2ccccc2n1[C@H](C)C(=O)N[C@@H]1C[C@@H](C)OC1=O

>  <inchikey>  (2338) 
DBPYHFZPIDTBQQ-YRGRVCCFSA-N

>  <distance_score>  (2338) 
1.626787

>  <ref_mols>  (2338) 
Z0101a,Z3880a

>  <ref_pdb>  (2338) 
Z3880a

>  <HIPPO Compound ID>  (2338) 
147418

>  <name>  (2338) 
P74352

>  <inspiration_score>  (2338) 
None

$$$$
P74353
     RDKit          3D

 24 26  0  0  0  0  0  0  0  0999 V2000
   -7.6355    6.1454  -12.9467 C   0  0  0  0  0  0  0  0  0  0  0  0
   -7.2208    4.7375  -13.3464 C   0  0  2  0  0  0  0  0  0  0  0  0
   -6.5718    3.9721  -12.1769 C   0  0  0  0  0  0  0  0  0  0  0  0
   -5.4283    3.7313  -12.1073 O   0  0  0  0  0  0  0  0  0  0  0  0
   -7.7399    3.6662  -11.1683 N   0  0  0  0  0  0  0  0  0  0  0  0
   -7.7068    3.0850   -9.8265 C   0  0  2  0  0  0  0  0  0  0  0  0
   -9.0589    2.4683   -9.4635 C   0  0  0  0  0  0  0  0  0  0  0  0
   -9.0923    2.4428   -7.9492 C   0  0  0  0  0  0  0  0  0  0  0  0
   -8.4350    3.7551   -7.5493 C   0  0  0  0  0  0  0  0  0  0  0  0
   -7.5084    4.1376   -8.7105 C   0  0  2  0  0  0  0  0  0  0  0  0
   -7.8760    5.4471   -9.1640 O   0  0  0  0  0  0  0  0  0  0  0  0
   -6.5766    4.7553  -14.6783 N   0  0  0  0  0  0  0  0  0  0  0  0
   -5.3188    5.1617  -15.1043 C   0  0  0  0  0  0  0  0  0  0  0  0
   -4.1909    5.5303  -14.1881 C   0  0  0  0  0  0  0  0  0  0  0  0
   -4.6165    6.1044  -13.0320 F   0  0  0  0  0  0  0  0  0  0  0  0
   -3.3641    6.4513  -14.7618 F   0  0  0  0  0  0  0  0  0  0  0  0
   -3.4080    4.4719  -13.8635 F   0  0  0  0  0  0  0  0  0  0  0  0
   -5.2609    5.1833  -16.4366 N   0  0  0  0  0  0  0  0  0  0  0  0
   -6.4868    4.7840  -16.8867 C   0  0  0  0  0  0  0  0  0  0  0  0
   -6.9525    4.5930  -18.1925 C   0  0  0  0  0  0  0  0  0  0  0  0
   -8.2799    4.1923  -18.3742 C   0  0  0  0  0  0  0  0  0  0  0  0
   -9.1441    4.0465  -17.3007 C   0  0  0  0  0  0  0  0  0  0  0  0
   -8.6908    4.2257  -16.0011 C   0  0  0  0  0  0  0  0  0  0  0  0
   -7.3449    4.5639  -15.8208 C   0  0  0  0  0  0  0  0  0  0  0  0
  2  1  1  1
  2  3  1  0
  3  4  2  0
  3  5  1  0
  6  5  1  6
  6  7  1  0
  7  8  1  0
  8  9  1  0
  9 10  1  0
 10 11  1  6
  2 12  1  0
 12 13  1  0
 13 14  1  0
 14 15  1  0
 14 16  1  0
 14 17  1  0
 13 18  2  0
 18 19  1  0
 19 20  2  0
 20 21  1  0
 21 22  2  0
 22 23  1  0
 23 24  2  0
 10  6  1  0
 24 12  1  0
 24 19  1  0
M  END
>  <energy_score>  (2339) 
-1.365223

>  <alias>  (2339) 
None

>  <HIPPO Pose ID>  (2339) 
74353

>  <smiles>  (2339) 
C[C@H](C(=O)N[C@@H]1CCC[C@@H]1O)n1c(C(F)(F)F)nc2ccccc21

>  <inchikey>  (2339) 
ZAIGDWLPUCWSDB-XWIASGKRSA-N

>  <distance_score>  (2339) 
1.563101

>  <ref_mols>  (2339) 
Z0101a,Z3880a

>  <ref_pdb>  (2339) 
Z3880a

>  <HIPPO Compound ID>  (2339) 
147432

>  <name>  (2339) 
P74353

>  <inspiration_score>  (2339) 
None

$$$$
P74358
     RDKit          3D

 24 26  0  0  0  0  0  0  0  0999 V2000
   -7.0344    6.4833  -13.2867 C   0  0  0  0  0  0  0  0  0  0  0  0
   -6.2803    5.1642  -13.4521 C   0  0  1  0  0  0  0  0  0  0  0  0
   -6.9937    4.1073  -12.5599 C   0  0  0  0  0  0  0  0  0  0  0  0
   -7.7249    3.2916  -12.9668 O   0  0  0  0  0  0  0  0  0  0  0  0
   -6.5932    4.4675  -11.0866 N   0  0  0  0  0  0  0  0  0  0  0  0
   -7.0972    3.9471   -9.8062 C   0  0  2  0  0  0  0  0  0  0  0  0
   -5.9449    4.0435   -8.7931 C   0  0  0  0  0  0  0  0  0  0  0  0
   -7.7409    2.5612   -9.7982 C   0  0  0  0  0  0  0  0  0  0  0  0
   -8.7437    2.6135   -8.6455 C   0  0  0  0  0  0  0  0  0  0  0  0
   -8.9192    3.9976   -8.2855 O   0  0  0  0  0  0  0  0  0  0  0  0
   -8.2787    4.7760   -9.2992 C   0  0  0  0  0  0  0  0  0  0  0  0
   -6.0972    4.9036  -14.9002 N   0  0  0  0  0  0  0  0  0  0  0  0
   -4.9279    5.1798  -15.6198 C   0  0  0  0  0  0  0  0  0  0  0  0
   -3.6229    5.4709  -14.9550 C   0  0  0  0  0  0  0  0  0  0  0  0
   -3.2655    4.4900  -14.0822 F   0  0  0  0  0  0  0  0  0  0  0  0
   -2.5882    5.6217  -15.8193 F   0  0  0  0  0  0  0  0  0  0  0  0
   -3.6891    6.6187  -14.2226 F   0  0  0  0  0  0  0  0  0  0  0  0
   -5.1555    5.1637  -16.9244 N   0  0  0  0  0  0  0  0  0  0  0  0
   -6.4682    4.8190  -17.0683 C   0  0  0  0  0  0  0  0  0  0  0  0
   -7.1987    4.6283  -18.2457 C   0  0  0  0  0  0  0  0  0  0  0  0
   -8.5507    4.3051  -18.1456 C   0  0  0  0  0  0  0  0  0  0  0  0
   -9.1652    4.1927  -16.9053 C   0  0  0  0  0  0  0  0  0  0  0  0
   -8.4515    4.3788  -15.7212 C   0  0  0  0  0  0  0  0  0  0  0  0
   -7.0914    4.6784  -15.8299 C   0  0  0  0  0  0  0  0  0  0  0  0
  2  1  1  6
  2  3  1  0
  3  4  2  0
  3  5  1  0
  6  5  1  0
  6  7  1  1
  6  8  1  0
  8  9  1  0
  9 10  1  0
 10 11  1  0
  2 12  1  0
 12 13  1  0
 13 14  1  0
 14 15  1  0
 14 16  1  0
 14 17  1  0
 13 18  2  0
 18 19  1  0
 19 20  2  0
 20 21  1  0
 21 22  2  0
 22 23  1  0
 23 24  2  0
 11  6  1  0
 24 12  1  0
 24 19  1  0
M  END
>  <energy_score>  (2340) 
-13.258747

>  <alias>  (2340) 
None

>  <HIPPO Pose ID>  (2340) 
74358

>  <smiles>  (2340) 
C[C@@H](C(=O)N[C@]1(C)CCOC1)n1c(C(F)(F)F)nc2ccccc21

>  <inchikey>  (2340) 
YCSDWWWPPGWFPA-ZUZCIYMTSA-N

>  <distance_score>  (2340) 
1.586884

>  <ref_mols>  (2340) 
Z0101a,Z3880a

>  <ref_pdb>  (2340) 
Z3880a

>  <HIPPO Compound ID>  (2340) 
147444

>  <name>  (2340) 
P74358

>  <inspiration_score>  (2340) 
None

$$$$
P74363
     RDKit          3D

 24 26  0  0  0  0  0  0  0  0999 V2000
   -7.6026    6.0058   -8.8583 C   0  0  0  0  0  0  0  0  0  0  0  0
   -8.3765    4.7869   -9.3046 C   0  0  2  0  0  0  0  0  0  0  0  0
   -9.0501    4.2463   -8.1489 O   0  0  0  0  0  0  0  0  0  0  0  0
   -9.0339    2.8129   -8.2397 C   0  0  0  0  0  0  0  0  0  0  0  0
   -8.3681    2.4533   -9.5512 C   0  0  0  0  0  0  0  0  0  0  0  0
   -7.5096    3.6698   -9.8538 C   0  0  1  0  0  0  0  0  0  0  0  0
   -7.0840    3.7231  -11.2471 N   0  0  0  0  0  0  0  0  0  0  0  0
   -7.0416    4.9351  -12.2598 C   0  0  0  0  0  0  0  0  0  0  0  0
   -7.4157    6.0407  -12.1370 O   0  0  0  0  0  0  0  0  0  0  0  0
   -6.2777    4.4221  -13.4968 C   0  0  2  0  0  0  0  0  0  0  0  0
   -4.8540    4.0783  -13.0953 C   0  0  0  0  0  0  0  0  0  0  0  0
   -6.3409    5.2187  -14.7446 N   0  0  0  0  0  0  0  0  0  0  0  0
   -5.3500    5.9958  -15.3411 C   0  0  0  0  0  0  0  0  0  0  0  0
   -4.3371    6.7797  -14.5678 C   0  0  0  0  0  0  0  0  0  0  0  0
   -3.1520    6.1207  -14.4640 F   0  0  0  0  0  0  0  0  0  0  0  0
   -4.0633    7.9818  -15.1414 F   0  0  0  0  0  0  0  0  0  0  0  0
   -4.7419    7.0476  -13.2990 F   0  0  0  0  0  0  0  0  0  0  0  0
   -5.4464    5.9365  -16.6661 N   0  0  0  0  0  0  0  0  0  0  0  0
   -6.6111    5.2726  -16.9273 C   0  0  0  0  0  0  0  0  0  0  0  0
   -7.2065    4.9592  -18.1529 C   0  0  0  0  0  0  0  0  0  0  0  0
   -8.4705    4.3668  -18.1407 C   0  0  0  0  0  0  0  0  0  0  0  0
   -9.1228    4.0993  -16.9423 C   0  0  0  0  0  0  0  0  0  0  0  0
   -8.5124    4.3345  -15.7120 C   0  0  0  0  0  0  0  0  0  0  0  0
   -7.2483    4.9207  -15.7441 C   0  0  0  0  0  0  0  0  0  0  0  0
  2  1  1  1
  2  3  1  0
  3  4  1  0
  4  5  1  0
  5  6  1  0
  6  7  1  6
  7  8  1  0
  8  9  2  0
  8 10  1  0
 10 11  1  1
 10 12  1  0
 12 13  1  0
 13 14  1  0
 14 15  1  0
 14 16  1  0
 14 17  1  0
 13 18  2  0
 18 19  1  0
 19 20  2  0
 20 21  1  0
 21 22  2  0
 22 23  1  0
 23 24  2  0
  6  2  1  0
 24 12  1  0
 24 19  1  0
M  END
>  <energy_score>  (2341) 
-1.781425

>  <alias>  (2341) 
None

>  <HIPPO Pose ID>  (2341) 
74363

>  <smiles>  (2341) 
C[C@@H]1OCC[C@H]1NC(=O)[C@H](C)n1c(C(F)(F)F)nc2ccccc21

>  <inchikey>  (2341) 
BONJOPIDBMZOBJ-GARJFASQSA-N

>  <distance_score>  (2341) 
1.548339

>  <ref_mols>  (2341) 
Z0101a,Z3880a

>  <ref_pdb>  (2341) 
Z3880a

>  <HIPPO Compound ID>  (2341) 
147445

>  <name>  (2341) 
P74363

>  <inspiration_score>  (2341) 
None

$$$$
P74369
     RDKit          3D

 24 26  0  0  0  0  0  0  0  0999 V2000
   -5.0785    4.3554  -12.8021 C   0  0  0  0  0  0  0  0  0  0  0  0
   -6.4154    4.5088  -13.4961 C   0  0  1  0  0  0  0  0  0  0  0  0
   -7.4891    5.0377  -12.5164 C   0  0  0  0  0  0  0  0  0  0  0  0
   -8.0128    6.0793  -12.6436 O   0  0  0  0  0  0  0  0  0  0  0  0
   -7.6835    3.9276  -11.4185 N   0  0  0  0  0  0  0  0  0  0  0  0
   -8.4922    3.9276  -10.2107 C   0  0  1  0  0  0  0  0  0  0  0  0
   -8.8430    2.5548   -9.6382 C   0  0  0  0  0  0  0  0  0  0  0  0
   -9.1504    2.7429   -8.2443 O   0  0  0  0  0  0  0  0  0  0  0  0
   -8.6241    4.0130   -7.8294 C   0  0  0  0  0  0  0  0  0  0  0  0
   -7.8393    4.5843   -9.0039 C   0  0  1  0  0  0  0  0  0  0  0  0
   -6.4691    4.1924   -8.9057 O   0  0  0  0  0  0  0  0  0  0  0  0
   -6.3560    5.1636  -14.8224 N   0  0  0  0  0  0  0  0  0  0  0  0
   -5.3358    5.8901  -15.4307 C   0  0  0  0  0  0  0  0  0  0  0  0
   -4.3295    6.7067  -14.6851 C   0  0  0  0  0  0  0  0  0  0  0  0
   -4.8424    7.2324  -13.5409 F   0  0  0  0  0  0  0  0  0  0  0  0
   -3.8747    7.7634  -15.4112 F   0  0  0  0  0  0  0  0  0  0  0  0
   -3.2350    5.9843  -14.3294 F   0  0  0  0  0  0  0  0  0  0  0  0
   -5.4213    5.7936  -16.7541 N   0  0  0  0  0  0  0  0  0  0  0  0
   -6.6032    5.1614  -17.0078 C   0  0  0  0  0  0  0  0  0  0  0  0
   -7.2032    4.8502  -18.2304 C   0  0  0  0  0  0  0  0  0  0  0  0
   -8.4871    4.3035  -18.2143 C   0  0  0  0  0  0  0  0  0  0  0  0
   -9.1537    4.0745  -17.0165 C   0  0  0  0  0  0  0  0  0  0  0  0
   -8.5392    4.3051  -15.7883 C   0  0  0  0  0  0  0  0  0  0  0  0
   -7.2568    4.8511  -15.8230 C   0  0  0  0  0  0  0  0  0  0  0  0
  2  1  1  1
  2  3  1  0
  3  4  2  0
  3  5  1  0
  6  5  1  6
  6  7  1  0
  7  8  1  0
  8  9  1  0
  9 10  1  0
 10 11  1  1
  2 12  1  0
 12 13  1  0
 13 14  1  0
 14 15  1  0
 14 16  1  0
 14 17  1  0
 13 18  2  0
 18 19  1  0
 19 20  2  0
 20 21  1  0
 21 22  2  0
 22 23  1  0
 23 24  2  0
 10  6  1  0
 24 12  1  0
 24 19  1  0
M  END
>  <energy_score>  (2342) 
-1.976916

>  <alias>  (2342) 
None

>  <HIPPO Pose ID>  (2342) 
74369

>  <smiles>  (2342) 
C[C@@H](C(=O)N[C@H]1COC[C@H]1O)n1c(C(F)(F)F)nc2ccccc21

>  <inchikey>  (2342) 
JDYAKPSCFQQXJC-PTOFAABTSA-N

>  <distance_score>  (2342) 
1.561285

>  <ref_mols>  (2342) 
Z0101a,Z3880a

>  <ref_pdb>  (2342) 
Z3880a

>  <HIPPO Compound ID>  (2342) 
147450

>  <name>  (2342) 
P74369

>  <inspiration_score>  (2342) 
None

$$$$
P74374
     RDKit          3D

 24 26  0  0  0  0  0  0  0  0999 V2000
   -7.4926    6.2892  -13.0424 C   0  0  0  0  0  0  0  0  0  0  0  0
   -6.5939    5.0718  -13.2291 C   0  0  1  0  0  0  0  0  0  0  0  0
   -7.2136    3.8590  -12.4649 C   0  0  0  0  0  0  0  0  0  0  0  0
   -7.7194    2.9609  -13.0075 O   0  0  0  0  0  0  0  0  0  0  0  0
   -6.9836    4.1194  -10.9478 N   0  0  0  0  0  0  0  0  0  0  0  0
   -7.4186    3.3644   -9.7847 C   0  0  2  0  0  0  0  0  0  0  0  0
   -8.7688    2.6682   -9.8172 C   0  0  0  0  0  0  0  0  0  0  0  0
   -9.2148    2.5301   -8.4513 O   0  0  0  0  0  0  0  0  0  0  0  0
   -8.7033    3.6402   -7.7007 C   0  0  0  0  0  0  0  0  0  0  0  0
   -7.7509    4.2943   -8.6573 C   0  0  0  0  0  0  0  0  0  0  0  0
   -7.3086    5.4342   -8.5474 O   0  0  0  0  0  0  0  0  0  0  0  0
   -6.2847    4.8967  -14.6725 N   0  0  0  0  0  0  0  0  0  0  0  0
   -5.0672    5.1901  -15.2935 C   0  0  0  0  0  0  0  0  0  0  0  0
   -3.8165    5.4463  -14.5215 C   0  0  0  0  0  0  0  0  0  0  0  0
   -2.7095    5.5721  -15.2970 F   0  0  0  0  0  0  0  0  0  0  0  0
   -3.5567    4.4482  -13.6324 F   0  0  0  0  0  0  0  0  0  0  0  0
   -3.9124    6.5891  -13.7869 F   0  0  0  0  0  0  0  0  0  0  0  0
   -5.1940    5.2098  -16.6131 N   0  0  0  0  0  0  0  0  0  0  0  0
   -6.4883    4.8543  -16.8690 C   0  0  0  0  0  0  0  0  0  0  0  0
   -7.1281    4.6749  -18.1018 C   0  0  0  0  0  0  0  0  0  0  0  0
   -8.4780    4.3247  -18.1074 C   0  0  0  0  0  0  0  0  0  0  0  0
   -9.1792    4.1783  -16.9174 C   0  0  0  0  0  0  0  0  0  0  0  0
   -8.5554    4.3475  -15.6810 C   0  0  0  0  0  0  0  0  0  0  0  0
   -7.1990    4.6778  -15.6837 C   0  0  0  0  0  0  0  0  0  0  0  0
  2  1  1  6
  2  3  1  0
  3  4  2  0
  3  5  1  0
  6  5  1  6
  6  7  1  0
  7  8  1  0
  8  9  1  0
  9 10  1  0
 10 11  2  0
  2 12  1  0
 12 13  1  0
 13 14  1  0
 14 15  1  0
 14 16  1  0
 14 17  1  0
 13 18  2  0
 18 19  1  0
 19 20  2  0
 20 21  1  0
 21 22  2  0
 22 23  1  0
 23 24  2  0
 10  6  1  0
 24 12  1  0
 24 19  1  0
M  END
>  <energy_score>  (2343) 
-19.45285

>  <alias>  (2343) 
None

>  <HIPPO Pose ID>  (2343) 
74374

>  <smiles>  (2343) 
C[C@@H](C(=O)N[C@@H]1COCC1=O)n1c(C(F)(F)F)nc2ccccc21

>  <inchikey>  (2343) 
MGCPJOQGZGCEFS-WCBMZHEXSA-N

>  <distance_score>  (2343) 
1.552439

>  <ref_mols>  (2343) 
Z0101a,Z3880a

>  <ref_pdb>  (2343) 
Z3880a

>  <HIPPO Compound ID>  (2343) 
147452

>  <name>  (2343) 
P74374

>  <inspiration_score>  (2343) 
None

$$$$
P74380
     RDKit          3D

 24 26  0  0  0  0  0  0  0  0999 V2000
   -7.2799    6.3080  -13.0250 C   0  0  0  0  0  0  0  0  0  0  0  0
   -6.3885    5.0891  -13.2430 C   0  0  1  0  0  0  0  0  0  0  0  0
   -6.9818    3.9016  -12.4292 C   0  0  0  0  0  0  0  0  0  0  0  0
   -7.6497    3.0710  -12.9137 O   0  0  0  0  0  0  0  0  0  0  0  0
   -6.5621    4.1242  -10.9281 N   0  0  0  0  0  0  0  0  0  0  0  0
   -6.9742    3.4022   -9.6933 C   0  0  2  0  0  0  0  0  0  0  0  0
   -7.9469    2.2199   -9.8409 C   0  0  0  0  0  0  0  0  0  0  0  0
   -8.8224    2.7844   -8.7170 C   0  0  0  0  0  0  0  0  0  0  0  0
   -8.0792    4.1353   -8.8528 C   0  0  1  0  0  0  0  0  0  0  0  0
   -7.6954    4.6841   -7.4900 C   0  0  0  0  0  0  0  0  0  0  0  0
   -8.7586    5.1869   -9.5789 O   0  0  0  0  0  0  0  0  0  0  0  0
   -6.1523    4.8987  -14.7006 N   0  0  0  0  0  0  0  0  0  0  0  0
   -4.9627    5.1955  -15.3758 C   0  0  0  0  0  0  0  0  0  0  0  0
   -3.6813    5.4725  -14.6614 C   0  0  0  0  0  0  0  0  0  0  0  0
   -3.7590    6.6215  -13.9339 F   0  0  0  0  0  0  0  0  0  0  0  0
   -2.6138    5.6065  -15.4890 F   0  0  0  0  0  0  0  0  0  0  0  0
   -3.3690    4.4863  -13.7781 F   0  0  0  0  0  0  0  0  0  0  0  0
   -5.1448    5.2044  -16.6891 N   0  0  0  0  0  0  0  0  0  0  0  0
   -6.4498    4.8551  -16.8876 C   0  0  0  0  0  0  0  0  0  0  0  0
   -7.1400    4.6816  -18.0944 C   0  0  0  0  0  0  0  0  0  0  0  0
   -8.4903    4.3386  -18.0478 C   0  0  0  0  0  0  0  0  0  0  0  0
   -9.1408    4.1904  -16.8291 C   0  0  0  0  0  0  0  0  0  0  0  0
   -8.4677    4.3567  -15.6171 C   0  0  0  0  0  0  0  0  0  0  0  0
   -7.1105    4.6815  -15.6725 C   0  0  0  0  0  0  0  0  0  0  0  0
  2  1  1  6
  2  3  1  0
  3  4  2  0
  3  5  1  0
  6  5  1  6
  6  7  1  0
  7  8  1  0
  8  9  1  0
  9 10  1  1
  9 11  1  0
  2 12  1  0
 12 13  1  0
 13 14  1  0
 14 15  1  0
 14 16  1  0
 14 17  1  0
 13 18  2  0
 18 19  1  0
 19 20  2  0
 20 21  1  0
 21 22  2  0
 22 23  1  0
 23 24  2  0
  9  6  1  0
 24 12  1  0
 24 19  1  0
M  END
>  <energy_score>  (2344) 
-29.358013

>  <alias>  (2344) 
None

>  <HIPPO Pose ID>  (2344) 
74380

>  <smiles>  (2344) 
C[C@@H](C(=O)N[C@@H]1CC[C@]1(C)O)n1c(C(F)(F)F)nc2ccccc21

>  <inchikey>  (2344) 
DEIDUYSCPNONAZ-UAKXVISKSA-N

>  <distance_score>  (2344) 
1.588103

>  <ref_mols>  (2344) 
Z0101a,Z3880a

>  <ref_pdb>  (2344) 
Z3880a

>  <HIPPO Compound ID>  (2344) 
147454

>  <name>  (2344) 
P74380

>  <inspiration_score>  (2344) 
None

$$$$
P74384
     RDKit          3D

 24 26  0  0  0  0  0  0  0  0999 V2000
   -8.2356    5.8622   -9.0494 C   0  0  0  0  0  0  0  0  0  0  0  0
   -8.4213    4.5409   -9.1712 C   0  0  0  0  0  0  0  0  0  0  0  0
   -8.4833    3.5783   -8.0174 C   0  0  0  0  0  0  0  0  0  0  0  0
   -8.3754    2.2745   -8.6059 O   0  0  0  0  0  0  0  0  0  0  0  0
   -7.7714    2.4685   -9.9006 C   0  0  0  0  0  0  0  0  0  0  0  0
   -8.4794    3.7023  -10.4110 C   0  0  2  0  0  0  0  0  0  0  0  0
   -8.0342    4.4077  -11.5832 N   0  0  0  0  0  0  0  0  0  0  0  0
   -6.7759    4.1851  -12.4846 C   0  0  0  0  0  0  0  0  0  0  0  0
   -5.9600    3.3495  -12.4515 O   0  0  0  0  0  0  0  0  0  0  0  0
   -6.7712    5.3435  -13.5070 C   0  0  1  0  0  0  0  0  0  0  0  0
   -6.1638    6.5813  -12.8833 C   0  0  0  0  0  0  0  0  0  0  0  0
   -6.2933    5.0213  -14.8627 N   0  0  0  0  0  0  0  0  0  0  0  0
   -5.0593    5.2315  -15.4650 C   0  0  0  0  0  0  0  0  0  0  0  0
   -3.7909    5.4714  -14.7125 C   0  0  0  0  0  0  0  0  0  0  0  0
   -3.6280    6.7928  -14.4268 F   0  0  0  0  0  0  0  0  0  0  0  0
   -2.6857    5.0904  -15.4087 F   0  0  0  0  0  0  0  0  0  0  0  0
   -3.7413    4.8147  -13.5274 F   0  0  0  0  0  0  0  0  0  0  0  0
   -5.1755    5.2008  -16.7898 N   0  0  0  0  0  0  0  0  0  0  0  0
   -6.4644    4.8302  -17.0504 C   0  0  0  0  0  0  0  0  0  0  0  0
   -7.0995    4.5981  -18.2741 C   0  0  0  0  0  0  0  0  0  0  0  0
   -8.4479    4.2325  -18.2638 C   0  0  0  0  0  0  0  0  0  0  0  0
   -9.1531    4.1108  -17.0732 C   0  0  0  0  0  0  0  0  0  0  0  0
   -8.5306    4.3206  -15.8462 C   0  0  0  0  0  0  0  0  0  0  0  0
   -7.1825    4.6904  -15.8708 C   0  0  0  0  0  0  0  0  0  0  0  0
  1  2  2  0
  2  3  1  0
  3  4  1  0
  4  5  1  0
  5  6  1  0
  6  7  1  6
  7  8  1  0
  8  9  2  0
  8 10  1  0
 10 11  1  1
 10 12  1  0
 12 13  1  0
 13 14  1  0
 14 15  1  0
 14 16  1  0
 14 17  1  0
 13 18  2  0
 18 19  1  0
 19 20  2  0
 20 21  1  0
 21 22  2  0
 22 23  1  0
 23 24  2  0
  6  2  1  0
 24 12  1  0
 24 19  1  0
M  END
>  <energy_score>  (2345) 
-4.190283

>  <alias>  (2345) 
None

>  <HIPPO Pose ID>  (2345) 
74384

>  <smiles>  (2345) 
C=C1COC[C@@H]1NC(=O)[C@@H](C)n1c(C(F)(F)F)nc2ccccc21

>  <inchikey>  (2345) 
WROQGCYGHYDSAA-PWSUYJOCSA-N

>  <distance_score>  (2345) 
1.584702

>  <ref_mols>  (2345) 
Z0101a,Z3880a

>  <ref_pdb>  (2345) 
Z3880a

>  <HIPPO Compound ID>  (2345) 
147455

>  <name>  (2345) 
P74384

>  <inspiration_score>  (2345) 
None

$$$$
P74387
     RDKit          3D

 24 26  0  0  0  0  0  0  0  0999 V2000
   -7.1082    6.4290  -13.2276 C   0  0  0  0  0  0  0  0  0  0  0  0
   -6.4446    5.0538  -13.3489 C   0  0  1  0  0  0  0  0  0  0  0  0
   -7.3113    3.9827  -12.6029 C   0  0  0  0  0  0  0  0  0  0  0  0
   -7.8167    3.0902  -13.1549 O   0  0  0  0  0  0  0  0  0  0  0  0
   -7.4070    4.4319  -11.1157 N   0  0  0  0  0  0  0  0  0  0  0  0
   -8.2228    3.9248  -10.0314 C   0  0  1  0  0  0  0  0  0  0  0  0
   -8.3892    2.4268   -9.8258 C   0  0  0  0  0  0  0  0  0  0  0  0
   -8.8943    2.2817   -8.4801 O   0  0  0  0  0  0  0  0  0  0  0  0
   -8.6134    3.4867   -7.7570 C   0  0  0  0  0  0  0  0  0  0  0  0
   -7.7486    4.3530   -8.6587 C   0  0  2  0  0  0  0  0  0  0  0  0
   -7.8911    5.8385   -8.3998 C   0  0  0  0  0  0  0  0  0  0  0  0
   -6.1853    4.8439  -14.8012 N   0  0  0  0  0  0  0  0  0  0  0  0
   -4.9847    5.1348  -15.4569 C   0  0  0  0  0  0  0  0  0  0  0  0
   -3.7174    5.4054  -14.7168 C   0  0  0  0  0  0  0  0  0  0  0  0
   -2.6475    5.6273  -15.5205 F   0  0  0  0  0  0  0  0  0  0  0  0
   -3.3818    4.3762  -13.8914 F   0  0  0  0  0  0  0  0  0  0  0  0
   -3.8384    6.5026  -13.9170 F   0  0  0  0  0  0  0  0  0  0  0  0
   -5.1487    5.1458  -16.7721 N   0  0  0  0  0  0  0  0  0  0  0  0
   -6.4558    4.8120  -16.9888 C   0  0  0  0  0  0  0  0  0  0  0  0
   -7.1318    4.6365  -18.2021 C   0  0  0  0  0  0  0  0  0  0  0  0
   -8.4889    4.3154  -18.1700 C   0  0  0  0  0  0  0  0  0  0  0  0
   -9.1668    4.2076  -16.9637 C   0  0  0  0  0  0  0  0  0  0  0  0
   -8.5101    4.3885  -15.7472 C   0  0  0  0  0  0  0  0  0  0  0  0
   -7.1400    4.6633  -15.7845 C   0  0  0  0  0  0  0  0  0  0  0  0
  2  1  1  6
  2  3  1  0
  3  4  2  0
  3  5  1  0
  6  5  1  6
  6  7  1  0
  7  8  1  0
  8  9  1  0
  9 10  1  0
 10 11  1  1
  2 12  1  0
 12 13  1  0
 13 14  1  0
 14 15  1  0
 14 16  1  0
 14 17  1  0
 13 18  2  0
 18 19  1  0
 19 20  2  0
 20 21  1  0
 21 22  2  0
 22 23  1  0
 23 24  2  0
 10  6  1  0
 24 12  1  0
 24 19  1  0
M  END
>  <energy_score>  (2346) 
-3.432971

>  <alias>  (2346) 
None

>  <HIPPO Pose ID>  (2346) 
74387

>  <smiles>  (2346) 
C[C@H]1COC[C@@H]1NC(=O)[C@H](C)n1c(C(F)(F)F)nc2ccccc21

>  <inchikey>  (2346) 
YFJXFMBGWIKCQN-NHCYSSNCSA-N

>  <distance_score>  (2346) 
1.529235

>  <ref_mols>  (2346) 
Z0101a,Z3880a

>  <ref_pdb>  (2346) 
Z3880a

>  <HIPPO Compound ID>  (2346) 
147457

>  <name>  (2346) 
P74387

>  <inspiration_score>  (2346) 
None

$$$$
P74389
     RDKit          3D

 24 26  0  0  0  0  0  0  0  0999 V2000
   -5.9308    6.3264  -12.8435 C   0  0  0  0  0  0  0  0  0  0  0  0
   -6.2509    4.9244  -13.3616 C   0  0  1  0  0  0  0  0  0  0  0  0
   -7.5468    4.6019  -12.5628 C   0  0  0  0  0  0  0  0  0  0  0  0
   -8.6092    4.9872  -12.8829 O   0  0  0  0  0  0  0  0  0  0  0  0
   -7.0944    3.8007  -11.2785 N   0  0  0  0  0  0  0  0  0  0  0  0
   -7.8438    3.4082  -10.1064 C   0  0  0  0  0  0  0  0  0  0  0  0
   -7.8725    4.4692   -8.9983 C   0  0  2  0  0  0  0  0  0  0  0  0
   -8.5875    4.1223   -7.6976 C   0  0  0  0  0  0  0  0  0  0  0  0
   -8.4438    5.6682   -9.5238 O   0  0  0  0  0  0  0  0  0  0  0  0
   -9.0193    2.4757  -10.3019 C   0  0  0  0  0  0  0  0  0  0  0  0
   -7.7628    1.9661   -9.6685 C   0  0  0  0  0  0  0  0  0  0  0  0
   -6.1807    4.9288  -14.8511 N   0  0  0  0  0  0  0  0  0  0  0  0
   -4.9962    5.1800  -15.5809 C   0  0  0  0  0  0  0  0  0  0  0  0
   -3.6267    5.3191  -14.9854 C   0  0  0  0  0  0  0  0  0  0  0  0
   -3.4894    4.6645  -13.8005 F   0  0  0  0  0  0  0  0  0  0  0  0
   -2.6531    4.8228  -15.7959 F   0  0  0  0  0  0  0  0  0  0  0  0
   -3.3050    6.6179  -14.7458 F   0  0  0  0  0  0  0  0  0  0  0  0
   -5.2440    5.2597  -16.8778 N   0  0  0  0  0  0  0  0  0  0  0  0
   -6.5452    4.9008  -17.0270 C   0  0  0  0  0  0  0  0  0  0  0  0
   -7.2531    4.7287  -18.2214 C   0  0  0  0  0  0  0  0  0  0  0  0
   -8.5875    4.3466  -18.1567 C   0  0  0  0  0  0  0  0  0  0  0  0
   -9.1997    4.1442  -16.9316 C   0  0  0  0  0  0  0  0  0  0  0  0
   -8.4980    4.2861  -15.7329 C   0  0  0  0  0  0  0  0  0  0  0  0
   -7.1608    4.6838  -15.7910 C   0  0  0  0  0  0  0  0  0  0  0  0
  2  1  1  6
  2  3  1  0
  3  4  2  0
  3  5  1  0
  5  6  1  0
  6  7  1  0
  7  8  1  1
  7  9  1  0
  6 10  1  0
 10 11  1  0
  2 12  1  0
 12 13  1  0
 13 14  1  0
 14 15  1  0
 14 16  1  0
 14 17  1  0
 13 18  2  0
 18 19  1  0
 19 20  2  0
 20 21  1  0
 21 22  2  0
 22 23  1  0
 23 24  2  0
 11  6  1  0
 24 12  1  0
 24 19  1  0
M  END
>  <energy_score>  (2347) 
-16.778733

>  <alias>  (2347) 
None

>  <HIPPO Pose ID>  (2347) 
74389

>  <smiles>  (2347) 
C[C@H](O)C1(NC(=O)[C@H](C)n2c(C(F)(F)F)nc3ccccc32)CC1

>  <inchikey>  (2347) 
LRFRKMQDKABJGH-UWVGGRQHSA-N

>  <distance_score>  (2347) 
1.513475

>  <ref_mols>  (2347) 
Z0101a,Z3880a

>  <ref_pdb>  (2347) 
Z3880a

>  <HIPPO Compound ID>  (2347) 
147458

>  <name>  (2347) 
P74389

>  <inspiration_score>  (2347) 
None

$$$$
P74393
     RDKit          3D

 24 26  0  0  0  0  0  0  0  0999 V2000
   -7.6187    6.1288  -13.1151 C   0  0  0  0  0  0  0  0  0  0  0  0
   -6.3573    5.2758  -13.2466 C   0  0  1  0  0  0  0  0  0  0  0  0
   -6.2312    4.0077  -12.3186 C   0  0  0  0  0  0  0  0  0  0  0  0
   -5.4350    3.1856  -12.5704 O   0  0  0  0  0  0  0  0  0  0  0  0
   -7.1979    4.1414  -11.0928 N   0  0  0  0  0  0  0  0  0  0  0  0
   -7.3089    3.3299   -9.8730 C   0  0  2  0  0  0  0  0  0  0  0  0
   -8.5247    2.3979   -9.8068 C   0  0  0  0  0  0  0  0  0  0  0  0
   -9.4250    2.8959   -8.8022 O   0  0  0  0  0  0  0  0  0  0  0  0
   -8.6217    3.5933   -7.8503 C   0  0  0  0  0  0  0  0  0  0  0  0
   -7.5103    4.2264   -8.6540 C   0  0  2  0  0  0  0  0  0  0  0  0
   -7.9462    5.4573   -9.0820 F   0  0  0  0  0  0  0  0  0  0  0  0
   -6.0566    5.0231  -14.6863 N   0  0  0  0  0  0  0  0  0  0  0  0
   -4.8843    5.3658  -15.3619 C   0  0  0  0  0  0  0  0  0  0  0  0
   -3.6304    5.7612  -14.6515 C   0  0  0  0  0  0  0  0  0  0  0  0
   -3.3292    4.9320  -13.6190 F   0  0  0  0  0  0  0  0  0  0  0  0
   -2.5388    5.7889  -15.4591 F   0  0  0  0  0  0  0  0  0  0  0  0
   -3.7465    7.0074  -14.1123 F   0  0  0  0  0  0  0  0  0  0  0  0
   -5.0674    5.3389  -16.6766 N   0  0  0  0  0  0  0  0  0  0  0  0
   -6.3518    4.9158  -16.8721 C   0  0  0  0  0  0  0  0  0  0  0  0
   -7.0463    4.7191  -18.0741 C   0  0  0  0  0  0  0  0  0  0  0  0
   -8.3809    4.3160  -18.0190 C   0  0  0  0  0  0  0  0  0  0  0  0
   -9.0044    4.1016  -16.7958 C   0  0  0  0  0  0  0  0  0  0  0  0
   -8.3174    4.2568  -15.5902 C   0  0  0  0  0  0  0  0  0  0  0  0
   -6.9902    4.6909  -15.6544 C   0  0  0  0  0  0  0  0  0  0  0  0
  2  1  1  6
  2  3  1  0
  3  4  2  0
  3  5  1  0
  6  5  1  6
  6  7  1  0
  7  8  1  0
  8  9  1  0
  9 10  1  0
 10 11  1  6
  2 12  1  0
 12 13  1  0
 13 14  1  0
 14 15  1  0
 14 16  1  0
 14 17  1  0
 13 18  2  0
 18 19  1  0
 19 20  2  0
 20 21  1  0
 21 22  2  0
 22 23  1  0
 23 24  2  0
 10  6  1  0
 24 12  1  0
 24 19  1  0
M  END
>  <energy_score>  (2348) 
-17.034054

>  <alias>  (2348) 
None

>  <HIPPO Pose ID>  (2348) 
74393

>  <smiles>  (2348) 
C[C@@H](C(=O)N[C@@H]1COC[C@@H]1F)n1c(C(F)(F)F)nc2ccccc21

>  <inchikey>  (2348) 
SXQONWKCYGAMIV-ATZCPNFKSA-N

>  <distance_score>  (2348) 
1.644283

>  <ref_mols>  (2348) 
Z0101a,Z3880a

>  <ref_pdb>  (2348) 
Z3880a

>  <HIPPO Compound ID>  (2348) 
147469

>  <name>  (2348) 
P74393

>  <inspiration_score>  (2348) 
None

$$$$
P74394
     RDKit          3D

 24 27  0  0  0  0  0  0  0  0999 V2000
   -4.9213    4.2156  -12.9644 C   0  0  0  0  0  0  0  0  0  0  0  0
   -6.2772    4.5132  -13.5694 C   0  0  1  0  0  0  0  0  0  0  0  0
   -7.1835    5.2326  -12.5576 C   0  0  0  0  0  0  0  0  0  0  0  0
   -7.5976    6.3193  -12.7285 O   0  0  0  0  0  0  0  0  0  0  0  0
   -7.3873    4.2384  -11.3435 N   0  0  0  0  0  0  0  0  0  0  0  0
   -8.0494    4.4287  -10.0906 C   0  0  1  0  0  0  0  0  0  0  0  0
   -8.8281    3.2434   -9.5267 C   0  0  0  0  0  0  0  0  0  0  0  0
   -9.0246    3.4881   -8.1199 O   0  0  0  0  0  0  0  0  0  0  0  0
   -7.9327    4.2992   -7.6731 C   0  0  0  0  0  0  0  0  0  0  0  0
   -7.3912    4.9870   -8.8814 C   0  0  2  0  0  0  0  0  0  0  0  0
   -8.3047    5.8658   -9.6574 C   0  0  0  0  0  0  0  0  0  0  0  0
   -6.2250    5.1243  -14.9123 N   0  0  0  0  0  0  0  0  0  0  0  0
   -5.2096    5.8268  -15.5511 C   0  0  0  0  0  0  0  0  0  0  0  0
   -4.1390    6.5839  -14.8337 C   0  0  0  0  0  0  0  0  0  0  0  0
   -3.6908    7.6557  -15.5402 F   0  0  0  0  0  0  0  0  0  0  0  0
   -3.0514    5.8125  -14.5687 F   0  0  0  0  0  0  0  0  0  0  0  0
   -4.5666    7.0727  -13.6389 F   0  0  0  0  0  0  0  0  0  0  0  0
   -5.3525    5.7484  -16.8704 N   0  0  0  0  0  0  0  0  0  0  0  0
   -6.5572    5.1414  -17.0814 C   0  0  0  0  0  0  0  0  0  0  0  0
   -7.2102    4.8461  -18.2799 C   0  0  0  0  0  0  0  0  0  0  0  0
   -8.5016    4.3189  -18.2159 C   0  0  0  0  0  0  0  0  0  0  0  0
   -9.1260    4.0931  -16.9947 C   0  0  0  0  0  0  0  0  0  0  0  0
   -8.4621    4.3126  -15.7909 C   0  0  0  0  0  0  0  0  0  0  0  0
   -7.1714    4.8359  -15.8751 C   0  0  0  0  0  0  0  0  0  0  0  0
  2  1  1  1
  2  3  1  0
  3  4  2  0
  3  5  1  0
  6  5  1  6
  6  7  1  0
  7  8  1  0
  8  9  1  0
 10  9  1  1
 10 11  1  0
  2 12  1  0
 12 13  1  0
 13 14  1  0
 14 15  1  0
 14 16  1  0
 14 17  1  0
 13 18  2  0
 18 19  1  0
 19 20  2  0
 20 21  1  0
 21 22  2  0
 22 23  1  0
 23 24  2  0
 10  6  1  0
 24 12  1  0
 11  6  1  0
 24 19  1  0
M  END
>  <energy_score>  (2349) 
-19.648485

>  <alias>  (2349) 
None

>  <HIPPO Pose ID>  (2349) 
74394

>  <smiles>  (2349) 
C[C@@H](C(=O)N[C@@]12COC[C@@H]1C2)n1c(C(F)(F)F)nc2ccccc21

>  <inchikey>  (2349) 
YVZSUDXTRBFKJO-YHAQOWFVSA-N

>  <distance_score>  (2349) 
1.592995

>  <ref_mols>  (2349) 
Z0101a,Z3880a

>  <ref_pdb>  (2349) 
Z3880a

>  <HIPPO Compound ID>  (2349) 
147470

>  <name>  (2349) 
P74394

>  <inspiration_score>  (2349) 
None

$$$$
P74403
     RDKit          3D

 24 27  0  0  0  0  0  0  0  0999 V2000
   -2.8451    5.2108  -16.8597 O   0  0  0  0  0  0  0  0  0  0  0  0
   -3.7977    5.8096  -17.1901 C   0  0  0  0  0  0  0  0  0  0  0  0
   -4.2407    7.2712  -16.8566 N   0  0  0  0  0  0  0  0  0  0  0  0
   -3.6456    8.2587  -15.9698 C   0  0  1  0  0  0  0  0  0  0  0  0
   -4.6265    9.0534  -15.0845 C   0  0  0  0  0  0  0  0  0  0  0  0
   -3.5638    8.9602  -13.9641 C   0  0  0  0  0  0  0  0  0  0  0  0
   -3.0699    7.6647  -14.6464 C   0  0  2  0  0  0  0  0  0  0  0  0
   -1.6549    7.4118  -14.6385 O   0  0  0  0  0  0  0  0  0  0  0  0
   -4.8642    5.1828  -18.1232 C   0  0  1  0  0  0  0  0  0  0  0  0
   -6.2140    4.8907  -17.4525 C   0  0  0  0  0  0  0  0  0  0  0  0
   -7.2766    4.3449  -18.2011 C   0  0  0  0  0  0  0  0  0  0  0  0
   -8.5075    4.0529  -17.6126 C   0  0  0  0  0  0  0  0  0  0  0  0
   -8.6895    4.2501  -16.2506 C   0  0  0  0  0  0  0  0  0  0  0  0
   -7.6447    4.7401  -15.4767 C   0  0  0  0  0  0  0  0  0  0  0  0
   -6.4190    5.0551  -16.0702 C   0  0  0  0  0  0  0  0  0  0  0  0
   -4.9273    5.9412  -19.3808 N   0  0  0  0  0  0  0  0  0  0  0  0
   -5.9984    6.6364  -19.8526 C   0  0  0  0  0  0  0  0  0  0  0  0
   -5.7441    7.2308  -20.9939 N   0  0  0  0  0  0  0  0  0  0  0  0
   -4.4738    6.8551  -21.3173 C   0  0  0  0  0  0  0  0  0  0  0  0
   -3.7327    7.1557  -22.4677 C   0  0  0  0  0  0  0  0  0  0  0  0
   -2.3821    6.8050  -22.5023 C   0  0  0  0  0  0  0  0  0  0  0  0
   -1.7951    6.1503  -21.4203 C   0  0  0  0  0  0  0  0  0  0  0  0
   -2.5442    5.7680  -20.2978 C   0  0  0  0  0  0  0  0  0  0  0  0
   -3.8944    6.1272  -20.2802 C   0  0  0  0  0  0  0  0  0  0  0  0
  1  2  2  0
  2  3  1  0
  4  3  1  6
  4  5  1  0
  5  6  1  0
  6  7  1  0
  7  8  1  6
  2  9  1  0
  9 10  1  0
 10 11  2  0
 11 12  1  0
 12 13  2  0
 13 14  1  0
 14 15  2  0
  9 16  1  6
 16 17  1  0
 17 18  2  0
 18 19  1  0
 19 20  2  0
 20 21  1  0
 21 22  2  0
 22 23  1  0
 23 24  2  0
  7  4  1  0
 15 10  1  0
 24 16  1  0
 24 19  1  0
M  END
>  <energy_score>  (2350) 
-8.409898

>  <alias>  (2350) 
None

>  <HIPPO Pose ID>  (2350) 
74403

>  <smiles>  (2350) 
O=C(N[C@H]1CC[C@@H]1O)[C@@H](c1ccccc1)n1cnc2ccccc21

>  <inchikey>  (2350) 
KLWWKAFPWSPOKC-RYQLBKOJSA-N

>  <distance_score>  (2350) 
1.242791

>  <ref_mols>  (2350) 
Z0101a,Z3880a

>  <ref_pdb>  (2350) 
Z3880a

>  <HIPPO Compound ID>  (2350) 
147472

>  <name>  (2350) 
P74403

>  <inspiration_score>  (2350) 
None

$$$$
P74408
     RDKit          3D

 24 26  0  0  0  0  0  0  0  0999 V2000
   -5.1488    4.3592  -12.8462 C   0  0  0  0  0  0  0  0  0  0  0  0
   -6.4717    4.5686  -13.5524 C   0  0  1  0  0  0  0  0  0  0  0  0
   -7.5246    5.1702  -12.5960 C   0  0  0  0  0  0  0  0  0  0  0  0
   -8.0161    6.2237  -12.7505 O   0  0  0  0  0  0  0  0  0  0  0  0
   -7.7625    4.0894  -11.4768 N   0  0  0  0  0  0  0  0  0  0  0  0
   -8.5970    4.1394  -10.2570 C   0  0  1  0  0  0  0  0  0  0  0  0
   -9.1092    2.7341   -9.8421 C   0  0  0  0  0  0  0  0  0  0  0  0
   -7.9829    2.5985   -8.9288 O   0  0  0  0  0  0  0  0  0  0  0  0
   -7.8628    4.0525   -8.8855 C   0  0  0  0  0  0  0  0  0  0  0  0
   -8.5719    4.5689   -7.6326 C   0  0  0  0  0  0  0  0  0  0  0  0
   -6.4235    4.5182   -8.9224 C   0  0  0  0  0  0  0  0  0  0  0  0
   -6.3775    5.1991  -14.8831 N   0  0  0  0  0  0  0  0  0  0  0  0
   -5.3419    5.9054  -15.4841 C   0  0  0  0  0  0  0  0  0  0  0  0
   -4.3267    6.7011  -14.7295 C   0  0  0  0  0  0  0  0  0  0  0  0
   -3.2471    5.9557  -14.3737 F   0  0  0  0  0  0  0  0  0  0  0  0
   -4.8346    7.2249  -13.5821 F   0  0  0  0  0  0  0  0  0  0  0  0
   -3.8493    7.7544  -15.4451 F   0  0  0  0  0  0  0  0  0  0  0  0
   -5.4140    5.7982  -16.8072 N   0  0  0  0  0  0  0  0  0  0  0  0
   -6.5949    5.1641  -17.0684 C   0  0  0  0  0  0  0  0  0  0  0  0
   -7.1783    4.8272  -18.2913 C   0  0  0  0  0  0  0  0  0  0  0  0
   -8.4595    4.2716  -18.2798 C   0  0  0  0  0  0  0  0  0  0  0  0
   -9.1439    4.0628  -17.0889 C   0  0  0  0  0  0  0  0  0  0  0  0
   -8.5474    4.3228  -15.8591 C   0  0  0  0  0  0  0  0  0  0  0  0
   -7.2658    4.8732  -15.8891 C   0  0  0  0  0  0  0  0  0  0  0  0
  2  1  1  1
  2  3  1  0
  3  4  2  0
  3  5  1  0
  6  5  1  6
  6  7  1  0
  7  8  1  0
  8  9  1  0
  9 10  1  0
  9 11  1  0
  2 12  1  0
 12 13  1  0
 13 14  1  0
 14 15  1  0
 14 16  1  0
 14 17  1  0
 13 18  2  0
 18 19  1  0
 19 20  2  0
 20 21  1  0
 21 22  2  0
 22 23  1  0
 23 24  2  0
  9  6  1  0
 24 12  1  0
 24 19  1  0
M  END
>  <energy_score>  (2351) 
-21.763617

>  <alias>  (2351) 
None

>  <HIPPO Pose ID>  (2351) 
74408

>  <smiles>  (2351) 
C[C@@H](C(=O)N[C@H]1COC1(C)C)n1c(C(F)(F)F)nc2ccccc21

>  <inchikey>  (2351) 
WQTROGHRIBOREG-CABZTGNLSA-N

>  <distance_score>  (2351) 
1.641541

>  <ref_mols>  (2351) 
Z0101a,Z3880a

>  <ref_pdb>  (2351) 
Z3880a

>  <HIPPO Compound ID>  (2351) 
147480

>  <name>  (2351) 
P74408

>  <inspiration_score>  (2351) 
None

$$$$
P74413
     RDKit          3D

 24 26  0  0  0  0  0  0  0  0999 V2000
   -5.8375    6.3384  -12.8738 C   0  0  0  0  0  0  0  0  0  0  0  0
   -6.2120    4.9654  -13.4275 C   0  0  1  0  0  0  0  0  0  0  0  0
   -7.5420    4.6927  -12.6738 C   0  0  0  0  0  0  0  0  0  0  0  0
   -8.5566    5.2000  -12.9760 O   0  0  0  0  0  0  0  0  0  0  0  0
   -7.1952    3.7521  -11.4605 N   0  0  0  0  0  0  0  0  0  0  0  0
   -8.0239    3.3234  -10.3093 C   0  0  1  0  0  0  0  0  0  0  0  0
   -9.1310    2.4169  -10.7754 C   0  0  0  0  0  0  0  0  0  0  0  0
   -7.2459    2.6703   -9.1596 C   0  0  0  0  0  0  0  0  0  0  0  0
   -7.2964    3.9971   -8.3863 C   0  0  0  0  0  0  0  0  0  0  0  0
   -8.4253    4.4550   -9.3164 C   0  0  1  0  0  0  0  0  0  0  0  0
   -8.3183    5.8093   -9.7952 O   0  0  0  0  0  0  0  0  0  0  0  0
   -6.1445    4.9783  -14.9137 N   0  0  0  0  0  0  0  0  0  0  0  0
   -4.9704    5.2287  -15.6539 C   0  0  0  0  0  0  0  0  0  0  0  0
   -3.5987    5.3702  -15.0681 C   0  0  0  0  0  0  0  0  0  0  0  0
   -3.2902    6.6665  -14.7996 F   0  0  0  0  0  0  0  0  0  0  0  0
   -2.6263    4.9062  -15.8984 F   0  0  0  0  0  0  0  0  0  0  0  0
   -3.4467    4.6866  -13.9015 F   0  0  0  0  0  0  0  0  0  0  0  0
   -5.2312    5.2987  -16.9490 N   0  0  0  0  0  0  0  0  0  0  0  0
   -6.5303    4.9240  -17.0831 C   0  0  0  0  0  0  0  0  0  0  0  0
   -7.2506    4.7354  -18.2666 C   0  0  0  0  0  0  0  0  0  0  0  0
   -8.5804    4.3388  -18.1823 C   0  0  0  0  0  0  0  0  0  0  0  0
   -9.1753    4.1312  -16.9494 C   0  0  0  0  0  0  0  0  0  0  0  0
   -8.4592    4.2823  -15.7614 C   0  0  0  0  0  0  0  0  0  0  0  0
   -7.1299    4.7054  -15.8407 C   0  0  0  0  0  0  0  0  0  0  0  0
  2  1  1  6
  2  3  1  0
  3  4  2  0
  3  5  1  0
  6  5  1  0
  6  7  1  6
  6  8  1  0
  8  9  1  0
  9 10  1  0
 10 11  1  6
  2 12  1  0
 12 13  1  0
 13 14  1  0
 14 15  1  0
 14 16  1  0
 14 17  1  0
 13 18  2  0
 18 19  1  0
 19 20  2  0
 20 21  1  0
 21 22  2  0
 22 23  1  0
 23 24  2  0
 10  6  1  0
 24 12  1  0
 24 19  1  0
M  END
>  <energy_score>  (2352) 
-16.288776

>  <alias>  (2352) 
None

>  <HIPPO Pose ID>  (2352) 
74413

>  <smiles>  (2352) 
C[C@@H](C(=O)N[C@@]1(C)CC[C@H]1O)n1c(C(F)(F)F)nc2ccccc21

>  <inchikey>  (2352) 
FLWQMGNSDOCOJT-UAKXVISKSA-N

>  <distance_score>  (2352) 
1.558441

>  <ref_mols>  (2352) 
Z0101a,Z3880a

>  <ref_pdb>  (2352) 
Z3880a

>  <HIPPO Compound ID>  (2352) 
147482

>  <name>  (2352) 
P74413

>  <inspiration_score>  (2352) 
None

$$$$
P74417
     RDKit          3D

 24 27  0  0  0  0  0  0  0  0999 V2000
   -2.8955    5.4369  -16.7785 O   0  0  0  0  0  0  0  0  0  0  0  0
   -3.8674    5.9624  -17.1669 C   0  0  0  0  0  0  0  0  0  0  0  0
   -4.3975    7.4090  -16.9279 N   0  0  0  0  0  0  0  0  0  0  0  0
   -3.8893    8.4643  -16.0897 C   0  0  1  0  0  0  0  0  0  0  0  0
   -4.2850    9.8415  -16.5694 C   0  0  0  0  0  0  0  0  0  0  0  0
   -4.1716   10.6529  -15.3008 C   0  0  0  0  0  0  0  0  0  0  0  0
   -4.6261    9.7962  -14.2468 O   0  0  0  0  0  0  0  0  0  0  0  0
   -4.4370    8.4334  -14.6652 C   0  0  0  0  0  0  0  0  0  0  0  0
   -4.8678    5.2277  -18.0995 C   0  0  1  0  0  0  0  0  0  0  0  0
   -6.2203    4.9041  -17.4481 C   0  0  0  0  0  0  0  0  0  0  0  0
   -7.2688    4.3436  -18.2043 C   0  0  0  0  0  0  0  0  0  0  0  0
   -8.5014    4.0386  -17.6254 C   0  0  0  0  0  0  0  0  0  0  0  0
   -8.6970    4.2334  -16.2649 C   0  0  0  0  0  0  0  0  0  0  0  0
   -7.6625    4.7294  -15.4816 C   0  0  0  0  0  0  0  0  0  0  0  0
   -6.4362    5.0573  -16.0658 C   0  0  0  0  0  0  0  0  0  0  0  0
   -4.9318    5.9319  -19.3891 N   0  0  0  0  0  0  0  0  0  0  0  0
   -6.0037    6.6056  -19.8905 C   0  0  0  0  0  0  0  0  0  0  0  0
   -5.7390    7.1857  -21.0369 N   0  0  0  0  0  0  0  0  0  0  0  0
   -4.4575    6.8246  -21.3312 C   0  0  0  0  0  0  0  0  0  0  0  0
   -3.6987    7.1217  -22.4710 C   0  0  0  0  0  0  0  0  0  0  0  0
   -2.3421    6.7918  -22.4739 C   0  0  0  0  0  0  0  0  0  0  0  0
   -1.7663    6.1614  -21.3714 C   0  0  0  0  0  0  0  0  0  0  0  0
   -2.5314    5.7815  -20.2592 C   0  0  0  0  0  0  0  0  0  0  0  0
   -3.8870    6.1185  -20.2742 C   0  0  0  0  0  0  0  0  0  0  0  0
  1  2  2  0
  2  3  1  0
  4  3  1  6
  4  5  1  0
  5  6  1  0
  6  7  1  0
  7  8  1  0
  2  9  1  0
  9 10  1  0
 10 11  2  0
 11 12  1  0
 12 13  2  0
 13 14  1  0
 14 15  2  0
  9 16  1  6
 16 17  1  0
 17 18  2  0
 18 19  1  0
 19 20  2  0
 20 21  1  0
 21 22  2  0
 22 23  1  0
 23 24  2  0
  8  4  1  0
 15 10  1  0
 24 16  1  0
 24 19  1  0
M  END
>  <energy_score>  (2353) 
-6.724779

>  <alias>  (2353) 
None

>  <HIPPO Pose ID>  (2353) 
74417

>  <smiles>  (2353) 
O=C(N[C@H]1CCOC1)[C@@H](c1ccccc1)n1cnc2ccccc21

>  <inchikey>  (2353) 
QEGRLYWAPALVEU-MAUKXSAKSA-N

>  <distance_score>  (2353) 
1.241111

>  <ref_mols>  (2353) 
Z0101a,Z3880a

>  <ref_pdb>  (2353) 
Z3880a

>  <HIPPO Compound ID>  (2353) 
147493

>  <name>  (2353) 
P74417

>  <inspiration_score>  (2353) 
None

$$$$
P74422
     RDKit          3D

 24 26  0  0  0  0  0  0  0  0999 V2000
   -3.8610    7.9678  -15.4236 C   0  0  0  0  0  0  0  0  0  0  0  0
   -3.2186    6.6939  -14.8720 C   0  0  0  0  0  0  0  0  0  0  0  0
   -2.3036    6.0403  -15.9093 C   0  0  0  0  0  0  0  0  0  0  0  0
   -4.2459    5.7168  -14.2659 C   0  0  0  0  0  0  0  0  0  0  0  0
   -5.3315    5.2473  -15.1858 C   0  0  0  0  0  0  0  0  0  0  0  0
   -5.2581    5.2259  -16.5086 N   0  0  0  0  0  0  0  0  0  0  0  0
   -6.4713    4.7851  -16.9576 C   0  0  0  0  0  0  0  0  0  0  0  0
   -6.9351    4.5724  -18.2600 C   0  0  0  0  0  0  0  0  0  0  0  0
   -8.2562    4.1456  -18.4339 C   0  0  0  0  0  0  0  0  0  0  0  0
   -9.1176    3.9935  -17.3586 C   0  0  0  0  0  0  0  0  0  0  0  0
   -8.6642    4.1852  -16.0620 C   0  0  0  0  0  0  0  0  0  0  0  0
   -7.3241    4.5500  -15.8918 C   0  0  0  0  0  0  0  0  0  0  0  0
   -6.5576    4.7662  -14.7538 N   0  0  0  0  0  0  0  0  0  0  0  0
   -7.2063    4.7221  -13.4263 C   0  0  2  0  0  0  0  0  0  0  0  0
   -7.7933    6.0982  -13.1241 C   0  0  0  0  0  0  0  0  0  0  0  0
   -6.4839    4.1969  -12.1715 C   0  0  0  0  0  0  0  0  0  0  0  0
   -5.3219    4.2115  -12.0240 O   0  0  0  0  0  0  0  0  0  0  0  0
   -7.6329    3.7748  -11.1781 N   0  0  0  0  0  0  0  0  0  0  0  0
   -7.5724    3.3787   -9.7711 C   0  0  2  0  0  0  0  0  0  0  0  0
   -8.4355    2.1722   -9.3771 C   0  0  0  0  0  0  0  0  0  0  0  0
   -9.1417    2.4871   -8.1541 O   0  0  0  0  0  0  0  0  0  0  0  0
   -8.6259    3.7287   -7.6725 C   0  0  0  0  0  0  0  0  0  0  0  0
   -8.1907    4.4675   -8.9078 C   0  0  1  0  0  0  0  0  0  0  0  0
   -7.3173    5.4579   -8.6405 F   0  0  0  0  0  0  0  0  0  0  0  0
  1  2  1  0
  2  3  1  0
  2  4  1  0
  4  5  1  0
  5  6  2  0
  6  7  1  0
  7  8  2  0
  8  9  1  0
  9 10  2  0
 10 11  1  0
 11 12  2  0
 12 13  1  0
 13 14  1  0
 14 15  1  1
 14 16  1  0
 16 17  2  0
 16 18  1  0
 19 18  1  6
 19 20  1  0
 20 21  1  0
 21 22  1  0
 22 23  1  0
 23 24  1  1
 13  5  1  0
 23 19  1  0
 12  7  1  0
M  END
>  <energy_score>  (2354) 
-50.451087

>  <alias>  (2354) 
None

>  <HIPPO Pose ID>  (2354) 
74422

>  <smiles>  (2354) 
CC(C)Cc1nc2ccccc2n1[C@H](C)C(=O)N[C@@H]1COC[C@H]1F

>  <inchikey>  (2354) 
GPOZJWDVSGEMKZ-UMVBOHGHSA-N

>  <distance_score>  (2354) 
1.519691

>  <ref_mols>  (2354) 
Z0101a,Z3880a

>  <ref_pdb>  (2354) 
Z3880a

>  <HIPPO Compound ID>  (2354) 
147506

>  <name>  (2354) 
P74422

>  <inspiration_score>  (2354) 
None

$$$$
P74425
     RDKit          3D

 24 26  0  0  0  0  0  0  0  0999 V2000
   -5.9328    7.3335  -12.2627 C   0  0  0  0  0  0  0  0  0  0  0  0
   -6.7617    6.5340  -13.2599 C   0  0  0  0  0  0  0  0  0  0  0  0
   -8.2449    6.6680  -12.9044 C   0  0  0  0  0  0  0  0  0  0  0  0
   -6.2124    5.0865  -13.4103 C   0  0  1  0  0  0  0  0  0  0  0  0
   -7.0116    4.0777  -12.5269 C   0  0  0  0  0  0  0  0  0  0  0  0
   -7.8325    3.3592  -12.9436 O   0  0  0  0  0  0  0  0  0  0  0  0
   -6.5459    4.3386  -11.0557 N   0  0  0  0  0  0  0  0  0  0  0  0
   -7.0747    3.8273   -9.7831 C   0  0  2  0  0  0  0  0  0  0  0  0
   -5.9763    4.0277   -8.7266 C   0  0  0  0  0  0  0  0  0  0  0  0
   -7.6340    2.4069   -9.7662 C   0  0  0  0  0  0  0  0  0  0  0  0
   -8.7097    2.4295   -8.6777 C   0  0  0  0  0  0  0  0  0  0  0  0
   -8.9420    3.8079   -8.3282 O   0  0  0  0  0  0  0  0  0  0  0  0
   -8.3274    4.5938   -9.3510 C   0  0  0  0  0  0  0  0  0  0  0  0
   -6.0605    4.8272  -14.8633 N   0  0  0  0  0  0  0  0  0  0  0  0
   -4.9073    5.1431  -15.5627 C   0  0  0  0  0  0  0  0  0  0  0  0
   -5.0811    5.1277  -16.8634 N   0  0  0  0  0  0  0  0  0  0  0  0
   -6.3920    4.7717  -17.0374 C   0  0  0  0  0  0  0  0  0  0  0  0
   -7.0951    4.5607  -18.2291 C   0  0  0  0  0  0  0  0  0  0  0  0
   -8.4336    4.2139  -18.1209 C   0  0  0  0  0  0  0  0  0  0  0  0
   -9.1498    3.9404  -19.2077 F   0  0  0  0  0  0  0  0  0  0  0  0
   -9.0688    4.1326  -16.9026 C   0  0  0  0  0  0  0  0  0  0  0  0
  -10.3729    3.8683  -16.8881 F   0  0  0  0  0  0  0  0  0  0  0  0
   -8.3983    4.3320  -15.7107 C   0  0  0  0  0  0  0  0  0  0  0  0
   -7.0403    4.6253  -15.8042 C   0  0  0  0  0  0  0  0  0  0  0  0
  1  2  1  0
  2  3  1  0
  4  2  1  6
  4  5  1  0
  5  6  2  0
  5  7  1  0
  8  7  1  0
  8  9  1  1
  8 10  1  0
 10 11  1  0
 11 12  1  0
 12 13  1  0
  4 14  1  0
 14 15  1  0
 15 16  2  0
 16 17  1  0
 17 18  2  0
 18 19  1  0
 19 20  1  0
 19 21  2  0
 21 22  1  0
 21 23  1  0
 23 24  2  0
 13  8  1  0
 24 14  1  0
 24 17  1  0
M  END
>  <energy_score>  (2355) 
-3.850442

>  <alias>  (2355) 
None

>  <HIPPO Pose ID>  (2355) 
74425

>  <smiles>  (2355) 
CC(C)[C@@H](C(=O)N[C@]1(C)CCOC1)n1cnc2cc(F)c(F)cc21

>  <inchikey>  (2355) 
OKCLNAONUJXQEQ-DOTOQJQBSA-N

>  <distance_score>  (2355) 
1.612968

>  <ref_mols>  (2355) 
Z0101a,Z3880a

>  <ref_pdb>  (2355) 
Z3880a

>  <HIPPO Compound ID>  (2355) 
147507

>  <name>  (2355) 
P74425

>  <inspiration_score>  (2355) 
None

$$$$
P74429
     RDKit          3D

 24 26  0  0  0  0  0  0  0  0999 V2000
   -5.4063    6.9239  -12.5879 C   0  0  0  0  0  0  0  0  0  0  0  0
   -5.0123    5.4492  -12.6842 C   0  0  0  0  0  0  0  0  0  0  0  0
   -4.6347    4.9137  -11.2990 C   0  0  0  0  0  0  0  0  0  0  0  0
   -6.0675    4.6126  -13.4444 C   0  0  1  0  0  0  0  0  0  0  0  0
   -7.4252    4.8082  -12.6932 C   0  0  0  0  0  0  0  0  0  0  0  0
   -8.1894    5.6416  -13.0038 O   0  0  0  0  0  0  0  0  0  0  0  0
   -7.4527    3.8034  -11.4893 N   0  0  0  0  0  0  0  0  0  0  0  0
   -8.3801    3.6913  -10.3754 C   0  0  1  0  0  0  0  0  0  0  0  0
   -8.6137    2.2966   -9.8433 C   0  0  0  0  0  0  0  0  0  0  0  0
   -9.1222    2.5362   -8.4294 C   0  0  0  0  0  0  0  0  0  0  0  0
   -8.6802    3.8434   -8.0223 O   0  0  0  0  0  0  0  0  0  0  0  0
   -7.8998    4.3856   -9.0989 C   0  0  2  0  0  0  0  0  0  0  0  0
   -8.0365    5.8918   -9.1282 C   0  0  0  0  0  0  0  0  0  0  0  0
   -6.0618    4.9303  -14.9023 N   0  0  0  0  0  0  0  0  0  0  0  0
   -4.9623    5.3201  -15.6487 C   0  0  0  0  0  0  0  0  0  0  0  0
   -5.1944    5.3546  -16.9391 N   0  0  0  0  0  0  0  0  0  0  0  0
   -6.4826    4.9307  -17.0675 C   0  0  0  0  0  0  0  0  0  0  0  0
   -7.2106    4.7137  -18.2401 C   0  0  0  0  0  0  0  0  0  0  0  0
   -8.5209    4.2938  -18.0953 C   0  0  0  0  0  0  0  0  0  0  0  0
   -9.2742    4.0518  -19.1633 F   0  0  0  0  0  0  0  0  0  0  0  0
   -9.0938    4.1177  -16.8568 C   0  0  0  0  0  0  0  0  0  0  0  0
  -10.3848    3.8104  -16.8041 F   0  0  0  0  0  0  0  0  0  0  0  0
   -8.3834    4.2737  -15.6820 C   0  0  0  0  0  0  0  0  0  0  0  0
   -7.0628    4.6905  -15.8149 C   0  0  0  0  0  0  0  0  0  0  0  0
  1  2  1  0
  2  3  1  0
  4  2  1  1
  4  5  1  0
  5  6  2  0
  5  7  1  0
  8  7  1  6
  8  9  1  0
  9 10  1  0
 10 11  1  0
 11 12  1  0
 12 13  1  6
  4 14  1  0
 14 15  1  0
 15 16  2  0
 16 17  1  0
 17 18  2  0
 18 19  1  0
 19 20  1  0
 19 21  2  0
 21 22  1  0
 21 23  1  0
 23 24  2  0
 12  8  1  0
 24 14  1  0
 24 17  1  0
M  END
>  <energy_score>  (2356) 
-17.519598

>  <alias>  (2356) 
None

>  <HIPPO Pose ID>  (2356) 
74429

>  <smiles>  (2356) 
CC(C)[C@@H](C(=O)N[C@H]1CCO[C@@H]1C)n1cnc2cc(F)c(F)cc21

>  <inchikey>  (2356) 
VLCNHRJKZIBHMQ-HICWGWBUSA-N

>  <distance_score>  (2356) 
1.426806

>  <ref_mols>  (2356) 
Z0101a,Z3880a

>  <ref_pdb>  (2356) 
Z3880a

>  <HIPPO Compound ID>  (2356) 
147508

>  <name>  (2356) 
P74429

>  <inspiration_score>  (2356) 
None

$$$$
P74434
     RDKit          3D

 24 27  0  0  0  0  0  0  0  0999 V2000
   -3.7040    6.6477  -21.4619 C   0  0  0  0  0  0  0  0  0  0  0  0
   -3.6876    6.3152  -19.9595 C   0  0  0  0  0  0  0  0  0  0  0  0
   -3.4043    4.8349  -19.7785 C   0  0  0  0  0  0  0  0  0  0  0  0
   -5.0240    6.7377  -19.2774 C   0  0  2  0  0  0  0  0  0  0  0  0
   -5.3130    8.2815  -19.2127 C   0  0  0  0  0  0  0  0  0  0  0  0
   -6.4258    8.6745  -19.1265 O   0  0  0  0  0  0  0  0  0  0  0  0
   -4.0061    9.0504  -19.3797 N   0  0  0  0  0  0  0  0  0  0  0  0
   -3.3706    9.4181  -17.9872 C   0  0  2  0  0  0  0  0  0  0  0  0
   -4.3308   10.1108  -17.0193 C   0  0  0  0  0  0  0  0  0  0  0  0
   -5.2677   10.9526  -17.6967 O   0  0  0  0  0  0  0  0  0  0  0  0
   -4.8072   11.4405  -18.9600 C   0  0  0  0  0  0  0  0  0  0  0  0
   -3.7490   10.5334  -19.5857 C   0  0  1  0  0  0  0  0  0  0  0  0
   -2.4781   10.3560  -18.7777 C   0  0  0  0  0  0  0  0  0  0  0  0
   -5.2569    6.1395  -17.9592 N   0  0  0  0  0  0  0  0  0  0  0  0
   -4.4431    6.2858  -16.8704 C   0  0  0  0  0  0  0  0  0  0  0  0
   -5.0412    5.9330  -15.7579 N   0  0  0  0  0  0  0  0  0  0  0  0
   -6.2421    5.3994  -16.1536 C   0  0  0  0  0  0  0  0  0  0  0  0
   -7.2889    4.8910  -15.3746 C   0  0  0  0  0  0  0  0  0  0  0  0
   -8.4158    4.3990  -16.0310 C   0  0  0  0  0  0  0  0  0  0  0  0
   -9.4728    4.0398  -15.2961 F   0  0  0  0  0  0  0  0  0  0  0  0
   -8.4794    4.3247  -17.4159 C   0  0  0  0  0  0  0  0  0  0  0  0
   -9.5681    3.8061  -18.0052 F   0  0  0  0  0  0  0  0  0  0  0  0
   -7.4442    4.8291  -18.2043 C   0  0  0  0  0  0  0  0  0  0  0  0
   -6.3589    5.4204  -17.5444 C   0  0  0  0  0  0  0  0  0  0  0  0
  1  2  1  0
  2  3  1  0
  4  2  1  1
  4  5  1  0
  5  6  2  0
  5  7  1  0
  7  8  1  0
  8  9  1  1
  9 10  1  0
 10 11  1  0
 12 11  1  1
 12 13  1  0
  4 14  1  0
 14 15  1  0
 15 16  2  0
 16 17  1  0
 17 18  2  0
 18 19  1  0
 19 20  1  0
 19 21  2  0
 21 22  1  0
 21 23  1  0
 23 24  2  0
 12  7  1  0
 24 14  1  0
 13  8  1  0
 24 17  1  0
M  END
>  <energy_score>  (2357) 
-4.991837

>  <alias>  (2357) 
None

>  <HIPPO Pose ID>  (2357) 
74434

>  <smiles>  (2357) 
CC(C)[C@H](C(=O)N1[C@@H]2COC[C@H]1C2)n1cnc2cc(F)c(F)cc21

>  <inchikey>  (2357) 
UAAZAOFYGPWACZ-OHUAYANFSA-N

>  <distance_score>  (2357) 
1.259805

>  <ref_mols>  (2357) 
Z0101a,Z3880a

>  <ref_pdb>  (2357) 
Z3880a

>  <HIPPO Compound ID>  (2357) 
147512

>  <name>  (2357) 
P74434

>  <inspiration_score>  (2357) 
None

$$$$
P74438
     RDKit          3D

 24 26  0  0  0  0  0  0  0  0999 V2000
   -5.5184    6.9483  -12.5896 C   0  0  0  0  0  0  0  0  0  0  0  0
   -5.0849    5.4805  -12.6160 C   0  0  0  0  0  0  0  0  0  0  0  0
   -4.7347    5.0220  -11.1969 C   0  0  0  0  0  0  0  0  0  0  0  0
   -6.1001    4.5816  -13.3664 C   0  0  1  0  0  0  0  0  0  0  0  0
   -7.4638    4.7485  -12.6126 C   0  0  0  0  0  0  0  0  0  0  0  0
   -8.2293    5.5859  -12.9093 O   0  0  0  0  0  0  0  0  0  0  0  0
   -7.4951    3.7163  -11.4310 N   0  0  0  0  0  0  0  0  0  0  0  0
   -8.4341    3.5753  -10.3196 C   0  0  1  0  0  0  0  0  0  0  0  0
   -8.6717    2.1982   -9.7289 C   0  0  0  0  0  0  0  0  0  0  0  0
   -9.1794    2.4058   -8.3983 O   0  0  0  0  0  0  0  0  0  0  0  0
   -8.6907    3.6679   -7.9306 C   0  0  0  0  0  0  0  0  0  0  0  0
   -7.9520    4.3306   -9.0829 C   0  0  2  0  0  0  0  0  0  0  0  0
   -8.1982    5.7298   -9.1570 O   0  0  0  0  0  0  0  0  0  0  0  0
   -6.0835    4.8833  -14.8294 N   0  0  0  0  0  0  0  0  0  0  0  0
   -4.9676    5.2467  -15.5684 C   0  0  0  0  0  0  0  0  0  0  0  0
   -5.1909    5.3032  -16.8596 N   0  0  0  0  0  0  0  0  0  0  0  0
   -6.4865    4.9063  -17.0006 C   0  0  0  0  0  0  0  0  0  0  0  0
   -7.2073    4.7083  -18.1824 C   0  0  0  0  0  0  0  0  0  0  0  0
   -8.5221    4.2986  -18.0541 C   0  0  0  0  0  0  0  0  0  0  0  0
   -9.2664    4.0639  -19.1310 F   0  0  0  0  0  0  0  0  0  0  0  0
   -9.1072    4.1243  -16.8211 C   0  0  0  0  0  0  0  0  0  0  0  0
  -10.3994    3.8208  -16.7834 F   0  0  0  0  0  0  0  0  0  0  0  0
   -8.4092    4.2749  -15.6367 C   0  0  0  0  0  0  0  0  0  0  0  0
   -7.0809    4.6699  -15.7525 C   0  0  0  0  0  0  0  0  0  0  0  0
  1  2  1  0
  2  3  1  0
  4  2  1  1
  4  5  1  0
  5  6  2  0
  5  7  1  0
  8  7  1  6
  8  9  1  0
  9 10  1  0
 10 11  1  0
 11 12  1  0
 12 13  1  6
  4 14  1  0
 14 15  1  0
 15 16  2  0
 16 17  1  0
 17 18  2  0
 18 19  1  0
 19 20  1  0
 19 21  2  0
 21 22  1  0
 21 23  1  0
 23 24  2  0
 12  8  1  0
 24 14  1  0
 24 17  1  0
M  END
>  <energy_score>  (2358) 
-8.347267

>  <alias>  (2358) 
None

>  <HIPPO Pose ID>  (2358) 
74438

>  <smiles>  (2358) 
CC(C)[C@@H](C(=O)N[C@H]1COC[C@@H]1O)n1cnc2cc(F)c(F)cc21

>  <inchikey>  (2358) 
SGQOHYDEFGHJRJ-QEJZJMRPSA-N

>  <distance_score>  (2358) 
1.406493

>  <ref_mols>  (2358) 
Z0101a,Z3880a

>  <ref_pdb>  (2358) 
Z3880a

>  <HIPPO Compound ID>  (2358) 
147514

>  <name>  (2358) 
P74438

>  <inspiration_score>  (2358) 
None

$$$$
P74444
     RDKit          3D

 24 26  0  0  0  0  0  0  0  0999 V2000
   -6.5211    7.2208  -12.8402 C   0  0  0  0  0  0  0  0  0  0  0  0
   -5.4530    6.1297  -12.8034 C   0  0  0  0  0  0  0  0  0  0  0  0
   -4.8303    6.0388  -11.4065 C   0  0  0  0  0  0  0  0  0  0  0  0
   -5.9610    4.7680  -13.3492 C   0  0  1  0  0  0  0  0  0  0  0  0
   -7.2139    4.3951  -12.4831 C   0  0  0  0  0  0  0  0  0  0  0  0
   -8.2863    4.8123  -12.7030 O   0  0  0  0  0  0  0  0  0  0  0  0
   -6.6941    3.5039  -11.3022 N   0  0  0  0  0  0  0  0  0  0  0  0
   -7.3757    3.0294  -10.1044 C   0  0  2  0  0  0  0  0  0  0  0  0
   -8.8218    2.5817  -10.2415 C   0  0  0  0  0  0  0  0  0  0  0  0
   -9.2530    2.4260   -8.7837 C   0  0  0  0  0  0  0  0  0  0  0  0
   -8.5801    3.5804   -8.0405 C   0  0  0  0  0  0  0  0  0  0  0  0
   -7.4925    4.0958   -8.9868 C   0  0  2  0  0  0  0  0  0  0  0  0
   -7.8977    5.3747   -9.4936 O   0  0  0  0  0  0  0  0  0  0  0  0
   -6.0244    4.8580  -14.8368 N   0  0  0  0  0  0  0  0  0  0  0  0
   -4.8944    5.1509  -15.5954 C   0  0  0  0  0  0  0  0  0  0  0  0
   -5.1317    5.2083  -16.8814 N   0  0  0  0  0  0  0  0  0  0  0  0
   -6.4450    4.8582  -16.9989 C   0  0  0  0  0  0  0  0  0  0  0  0
   -7.1815    4.6705  -18.1745 C   0  0  0  0  0  0  0  0  0  0  0  0
   -8.5032    4.2890  -18.0367 C   0  0  0  0  0  0  0  0  0  0  0  0
   -9.2567    4.0519  -19.1073 F   0  0  0  0  0  0  0  0  0  0  0  0
   -9.0815    4.1386  -16.7983 C   0  0  0  0  0  0  0  0  0  0  0  0
  -10.3736    3.8356  -16.7459 F   0  0  0  0  0  0  0  0  0  0  0  0
   -8.3749    4.3023  -15.6196 C   0  0  0  0  0  0  0  0  0  0  0  0
   -7.0365    4.6589  -15.7382 C   0  0  0  0  0  0  0  0  0  0  0  0
  1  2  1  0
  2  3  1  0
  4  2  1  1
  4  5  1  0
  5  6  2  0
  5  7  1  0
  8  7  1  6
  8  9  1  0
  9 10  1  0
 10 11  1  0
 11 12  1  0
 12 13  1  6
  4 14  1  0
 14 15  1  0
 15 16  2  0
 16 17  1  0
 17 18  2  0
 18 19  1  0
 19 20  1  0
 19 21  2  0
 21 22  1  0
 21 23  1  0
 23 24  2  0
 12  8  1  0
 24 14  1  0
 24 17  1  0
M  END
>  <energy_score>  (2359) 
-13.042926

>  <alias>  (2359) 
None

>  <HIPPO Pose ID>  (2359) 
74444

>  <smiles>  (2359) 
CC(C)[C@@H](C(=O)N[C@@H]1CCC[C@@H]1O)n1cnc2cc(F)c(F)cc21

>  <inchikey>  (2359) 
RIQRZDFAYXISLB-KCXAZCMYSA-N

>  <distance_score>  (2359) 
1.470501

>  <ref_mols>  (2359) 
Z0101a,Z3880a

>  <ref_pdb>  (2359) 
Z3880a

>  <HIPPO Compound ID>  (2359) 
147516

>  <name>  (2359) 
P74444

>  <inspiration_score>  (2359) 
None

$$$$
P74452
     RDKit          3D

 24 26  0  0  0  0  0  0  0  0999 V2000
   -5.3806    6.8997  -12.5621 C   0  0  0  0  0  0  0  0  0  0  0  0
   -4.9919    5.4237  -12.6631 C   0  0  0  0  0  0  0  0  0  0  0  0
   -4.5998    4.8864  -11.2831 C   0  0  0  0  0  0  0  0  0  0  0  0
   -6.0554    4.5899  -13.4163 C   0  0  1  0  0  0  0  0  0  0  0  0
   -7.4097    4.7947  -12.6577 C   0  0  0  0  0  0  0  0  0  0  0  0
   -8.1601    5.6451  -12.9574 O   0  0  0  0  0  0  0  0  0  0  0  0
   -7.4539    3.7743  -11.4658 N   0  0  0  0  0  0  0  0  0  0  0  0
   -8.3849    3.6635  -10.3504 C   0  0  1  0  0  0  0  0  0  0  0  0
   -8.6946    2.2668   -9.8321 C   0  0  0  0  0  0  0  0  0  0  0  0
   -9.1640    2.4225   -8.4819 O   0  0  0  0  0  0  0  0  0  0  0  0
   -8.6555    3.6575   -7.9730 C   0  0  0  0  0  0  0  0  0  0  0  0
   -7.8430    4.3105   -9.0814 C   0  0  2  0  0  0  0  0  0  0  0  0
   -7.9351    5.8241   -9.0698 C   0  0  0  0  0  0  0  0  0  0  0  0
   -6.0508    4.9124  -14.8741 N   0  0  0  0  0  0  0  0  0  0  0  0
   -4.9524    5.3008  -15.6237 C   0  0  0  0  0  0  0  0  0  0  0  0
   -5.1893    5.3447  -16.9131 N   0  0  0  0  0  0  0  0  0  0  0  0
   -6.4795    4.9269  -17.0396 C   0  0  0  0  0  0  0  0  0  0  0  0
   -7.2122    4.7185  -18.2116 C   0  0  0  0  0  0  0  0  0  0  0  0
   -8.5228    4.3003  -18.0655 C   0  0  0  0  0  0  0  0  0  0  0  0
   -9.2808    4.0653  -19.1326 F   0  0  0  0  0  0  0  0  0  0  0  0
   -9.0908    4.1205  -16.8250 C   0  0  0  0  0  0  0  0  0  0  0  0
  -10.3810    3.8119  -16.7687 F   0  0  0  0  0  0  0  0  0  0  0  0
   -8.3779    4.2728  -15.6507 C   0  0  0  0  0  0  0  0  0  0  0  0
   -7.0561    4.6837  -15.7856 C   0  0  0  0  0  0  0  0  0  0  0  0
  1  2  1  0
  2  3  1  0
  4  2  1  1
  4  5  1  0
  5  6  2  0
  5  7  1  0
  8  7  1  6
  8  9  1  0
  9 10  1  0
 10 11  1  0
 11 12  1  0
 12 13  1  6
  4 14  1  0
 14 15  1  0
 15 16  2  0
 16 17  1  0
 17 18  2  0
 18 19  1  0
 19 20  1  0
 19 21  2  0
 21 22  1  0
 21 23  1  0
 23 24  2  0
 12  8  1  0
 24 14  1  0
 24 17  1  0
M  END
>  <energy_score>  (2360) 
-0.231835

>  <alias>  (2360) 
None

>  <HIPPO Pose ID>  (2360) 
74452

>  <smiles>  (2360) 
CC(C)[C@@H](C(=O)N[C@H]1COC[C@@H]1C)n1cnc2cc(F)c(F)cc21

>  <inchikey>  (2360) 
IARVGMNJQIJZIS-FSBGKCOPSA-N

>  <distance_score>  (2360) 
1.439308

>  <ref_mols>  (2360) 
Z0101a,Z3880a

>  <ref_pdb>  (2360) 
Z3880a

>  <HIPPO Compound ID>  (2360) 
147517

>  <name>  (2360) 
P74452

>  <inspiration_score>  (2360) 
None

$$$$
P74457
     RDKit          3D

 24 26  0  0  0  0  0  0  0  0999 V2000
   -5.3706    6.3590  -11.3884 C   0  0  0  0  0  0  0  0  0  0  0  0
   -5.8305    6.3732  -12.8347 C   0  0  0  0  0  0  0  0  0  0  0  0
   -6.8480    7.4973  -13.0572 C   0  0  0  0  0  0  0  0  0  0  0  0
   -6.2995    4.9750  -13.3015 C   0  0  1  0  0  0  0  0  0  0  0  0
   -7.6247    4.6459  -12.5349 C   0  0  0  0  0  0  0  0  0  0  0  0
   -8.6652    5.0660  -12.8826 O   0  0  0  0  0  0  0  0  0  0  0  0
   -7.2397    3.8009  -11.2588 N   0  0  0  0  0  0  0  0  0  0  0  0
   -8.0429    3.3952  -10.1227 C   0  0  0  0  0  0  0  0  0  0  0  0
   -8.4315    4.4582   -9.0910 C   0  0  1  0  0  0  0  0  0  0  0  0
   -7.5797    4.4681   -7.8354 C   0  0  0  0  0  0  0  0  0  0  0  0
   -8.3859    5.7538   -9.6817 O   0  0  0  0  0  0  0  0  0  0  0  0
   -7.8505    1.9819   -9.6068 C   0  0  0  0  0  0  0  0  0  0  0  0
   -9.0890    2.3310  -10.3536 C   0  0  0  0  0  0  0  0  0  0  0  0
   -6.2378    4.9399  -14.7914 N   0  0  0  0  0  0  0  0  0  0  0  0
   -5.0521    5.1829  -15.4782 C   0  0  0  0  0  0  0  0  0  0  0  0
   -5.1974    5.1887  -16.7789 N   0  0  0  0  0  0  0  0  0  0  0  0
   -6.5006    4.8387  -16.9752 C   0  0  0  0  0  0  0  0  0  0  0  0
   -7.1517    4.6069  -18.1912 C   0  0  0  0  0  0  0  0  0  0  0  0
   -8.4804    4.2297  -18.1325 C   0  0  0  0  0  0  0  0  0  0  0  0
   -9.1461    3.9307  -19.2429 F   0  0  0  0  0  0  0  0  0  0  0  0
   -9.1528    4.1299  -16.9387 C   0  0  0  0  0  0  0  0  0  0  0  0
  -10.4520    3.8434  -16.9774 F   0  0  0  0  0  0  0  0  0  0  0  0
   -8.5268    4.3315  -15.7204 C   0  0  0  0  0  0  0  0  0  0  0  0
   -7.1815    4.6883  -15.7536 C   0  0  0  0  0  0  0  0  0  0  0  0
  1  2  1  0
  2  3  1  0
  4  2  1  6
  4  5  1  0
  5  6  2  0
  5  7  1  0
  7  8  1  0
  8  9  1  0
  9 10  1  1
  9 11  1  0
  8 12  1  0
 12 13  1  0
  4 14  1  0
 14 15  1  0
 15 16  2  0
 16 17  1  0
 17 18  2  0
 18 19  1  0
 19 20  1  0
 19 21  2  0
 21 22  1  0
 21 23  1  0
 23 24  2  0
 13  8  1  0
 24 14  1  0
 24 17  1  0
M  END
>  <energy_score>  (2361) 
-24.187145

>  <alias>  (2361) 
None

>  <HIPPO Pose ID>  (2361) 
74457

>  <smiles>  (2361) 
CC(C)[C@@H](C(=O)NC1([C@@H](C)O)CC1)n1cnc2cc(F)c(F)cc21

>  <inchikey>  (2361) 
MHZLWNJTKNSVIF-BMIGLBTASA-N

>  <distance_score>  (2361) 
1.607871

>  <ref_mols>  (2361) 
Z0101a,Z3880a

>  <ref_pdb>  (2361) 
Z3880a

>  <HIPPO Compound ID>  (2361) 
147518

>  <name>  (2361) 
P74457

>  <inspiration_score>  (2361) 
None

$$$$
P74460
     RDKit          3D

 24 26  0  0  0  0  0  0  0  0999 V2000
   -5.5262    6.3380  -11.4190 C   0  0  0  0  0  0  0  0  0  0  0  0
   -5.6176    6.3041  -12.9348 C   0  0  0  0  0  0  0  0  0  0  0  0
   -6.2720    7.6041  -13.4286 C   0  0  0  0  0  0  0  0  0  0  0  0
   -6.2798    5.0097  -13.4645 C   0  0  1  0  0  0  0  0  0  0  0  0
   -7.6857    4.9061  -12.7869 C   0  0  0  0  0  0  0  0  0  0  0  0
   -8.6041    5.5198  -13.1807 O   0  0  0  0  0  0  0  0  0  0  0  0
   -7.5489    3.9771  -11.5299 N   0  0  0  0  0  0  0  0  0  0  0  0
   -8.4917    3.6968  -10.4546 C   0  0  1  0  0  0  0  0  0  0  0  0
   -8.4663    2.2950   -9.9087 C   0  0  0  0  0  0  0  0  0  0  0  0
   -9.0269    2.4551   -8.5146 C   0  0  0  0  0  0  0  0  0  0  0  0
   -8.6276    3.7568   -8.0842 O   0  0  0  0  0  0  0  0  0  0  0  0
   -8.2937    4.5031   -9.1795 C   0  0  0  0  0  0  0  0  0  0  0  0
   -7.9154    5.6624   -9.1121 O   0  0  0  0  0  0  0  0  0  0  0  0
   -6.1907    4.9833  -14.9464 N   0  0  0  0  0  0  0  0  0  0  0  0
   -5.0183    5.2321  -15.6453 C   0  0  0  0  0  0  0  0  0  0  0  0
   -5.1802    5.2151  -16.9451 N   0  0  0  0  0  0  0  0  0  0  0  0
   -6.4823    4.8459  -17.1191 C   0  0  0  0  0  0  0  0  0  0  0  0
   -7.1549    4.5989  -18.3171 C   0  0  0  0  0  0  0  0  0  0  0  0
   -8.4808    4.2141  -18.2244 C   0  0  0  0  0  0  0  0  0  0  0  0
   -9.1671    3.9155  -19.3198 F   0  0  0  0  0  0  0  0  0  0  0  0
   -9.1299    4.1036  -17.0189 C   0  0  0  0  0  0  0  0  0  0  0  0
  -10.4302    3.8180  -17.0277 F   0  0  0  0  0  0  0  0  0  0  0  0
   -8.4758    4.2986  -15.8186 C   0  0  0  0  0  0  0  0  0  0  0  0
   -7.1404    4.6897  -15.8897 C   0  0  0  0  0  0  0  0  0  0  0  0
  1  2  1  0
  2  3  1  0
  4  2  1  6
  4  5  1  0
  5  6  2  0
  5  7  1  0
  8  7  1  6
  8  9  1  0
  9 10  1  0
 10 11  1  0
 11 12  1  0
 12 13  2  0
  4 14  1  0
 14 15  1  0
 15 16  2  0
 16 17  1  0
 17 18  2  0
 18 19  1  0
 19 20  1  0
 19 21  2  0
 21 22  1  0
 21 23  1  0
 23 24  2  0
 12  8  1  0
 24 14  1  0
 24 17  1  0
M  END
>  <energy_score>  (2362) 
-0.925531

>  <alias>  (2362) 
None

>  <HIPPO Pose ID>  (2362) 
74460

>  <smiles>  (2362) 
CC(C)[C@@H](C(=O)N[C@H]1CCOC1=O)n1cnc2cc(F)c(F)cc21

>  <inchikey>  (2362) 
HMCJDRASDCVJKU-FZMZJTMJSA-N

>  <distance_score>  (2362) 
1.488906

>  <ref_mols>  (2362) 
Z0101a,Z3880a

>  <ref_pdb>  (2362) 
Z3880a

>  <HIPPO Compound ID>  (2362) 
147522

>  <name>  (2362) 
P74460

>  <inspiration_score>  (2362) 
None

$$$$
P74474
     RDKit          3D

 24 26  0  0  0  0  0  0  0  0999 V2000
   -6.0278    7.1403  -12.0305 C   0  0  0  0  0  0  0  0  0  0  0  0
   -6.8270    6.4024  -13.0967 C   0  0  0  0  0  0  0  0  0  0  0  0
   -8.3120    6.4483  -12.7345 C   0  0  0  0  0  0  0  0  0  0  0  0
   -6.2263    4.9964  -13.3509 C   0  0  1  0  0  0  0  0  0  0  0  0
   -6.9499    3.8776  -12.5274 C   0  0  0  0  0  0  0  0  0  0  0  0
   -7.7506    3.1656  -12.9902 O   0  0  0  0  0  0  0  0  0  0  0  0
   -6.4566    4.0209  -11.0524 N   0  0  0  0  0  0  0  0  0  0  0  0
   -6.9243    3.3766   -9.8324 C   0  0  2  0  0  0  0  0  0  0  0  0
   -7.7304    2.0911   -9.9188 C   0  0  0  0  0  0  0  0  0  0  0  0
   -8.4748    1.9971   -8.6903 O   0  0  0  0  0  0  0  0  0  0  0  0
   -8.9122    3.3153   -8.3586 C   0  0  0  0  0  0  0  0  0  0  0  0
   -7.9422    4.2028   -9.0874 C   0  0  0  0  0  0  0  0  0  0  0  0
   -7.9596    5.4305   -9.0567 O   0  0  0  0  0  0  0  0  0  0  0  0
   -6.0778    4.8218  -14.8198 N   0  0  0  0  0  0  0  0  0  0  0  0
   -4.9282    5.1661  -15.5103 C   0  0  0  0  0  0  0  0  0  0  0  0
   -5.0964    5.1615  -16.8123 N   0  0  0  0  0  0  0  0  0  0  0  0
   -6.4029    4.7943  -16.9960 C   0  0  0  0  0  0  0  0  0  0  0  0
   -7.1001    4.5882  -18.1928 C   0  0  0  0  0  0  0  0  0  0  0  0
   -8.4362    4.2293  -18.0930 C   0  0  0  0  0  0  0  0  0  0  0  0
   -9.1489    3.9614  -19.1842 F   0  0  0  0  0  0  0  0  0  0  0  0
   -9.0727    4.1299  -16.8766 C   0  0  0  0  0  0  0  0  0  0  0  0
  -10.3751    3.8585  -16.8686 F   0  0  0  0  0  0  0  0  0  0  0  0
   -8.4068    4.3173  -15.6798 C   0  0  0  0  0  0  0  0  0  0  0  0
   -7.0528    4.6269  -15.7662 C   0  0  0  0  0  0  0  0  0  0  0  0
  1  2  1  0
  2  3  1  0
  4  2  1  6
  4  5  1  0
  5  6  2  0
  5  7  1  0
  8  7  1  6
  8  9  1  0
  9 10  1  0
 10 11  1  0
 11 12  1  0
 12 13  2  0
  4 14  1  0
 14 15  1  0
 15 16  2  0
 16 17  1  0
 17 18  2  0
 18 19  1  0
 19 20  1  0
 19 21  2  0
 21 22  1  0
 21 23  1  0
 23 24  2  0
 12  8  1  0
 24 14  1  0
 24 17  1  0
M  END
>  <energy_score>  (2363) 
-11.380617

>  <alias>  (2363) 
None

>  <HIPPO Pose ID>  (2363) 
74474

>  <smiles>  (2363) 
CC(C)[C@@H](C(=O)N[C@@H]1COCC1=O)n1cnc2cc(F)c(F)cc21

>  <inchikey>  (2363) 
HFDGSZMXBPOCTO-DOMZBBRYSA-N

>  <distance_score>  (2363) 
1.588816

>  <ref_mols>  (2363) 
Z0101a,Z3880a

>  <ref_pdb>  (2363) 
Z3880a

>  <HIPPO Compound ID>  (2363) 
147531

>  <name>  (2363) 
P74474

>  <inspiration_score>  (2363) 
None

$$$$
P74478
     RDKit          3D

 24 26  0  0  0  0  0  0  0  0999 V2000
   -5.4876    6.2607  -11.4048 C   0  0  0  0  0  0  0  0  0  0  0  0
   -5.5635    6.2626  -12.9232 C   0  0  0  0  0  0  0  0  0  0  0  0
   -6.2010    7.5798  -13.3935 C   0  0  0  0  0  0  0  0  0  0  0  0
   -6.2316    4.9833  -13.4820 C   0  0  1  0  0  0  0  0  0  0  0  0
   -7.6340    4.8914  -12.8107 C   0  0  0  0  0  0  0  0  0  0  0  0
   -8.5342    5.5455  -13.1863 O   0  0  0  0  0  0  0  0  0  0  0  0
   -7.5288    3.9125  -11.5822 N   0  0  0  0  0  0  0  0  0  0  0  0
   -8.4878    3.6212  -10.5165 C   0  0  1  0  0  0  0  0  0  0  0  0
   -8.5673    2.2230   -9.9046 C   0  0  0  0  0  0  0  0  0  0  0  0
   -8.9601    2.8983   -8.5688 C   0  0  0  0  0  0  0  0  0  0  0  0
   -8.1863    4.1574   -9.0647 C   0  0  1  0  0  0  0  0  0  0  0  0
   -6.7781    4.1723   -8.5111 C   0  0  0  0  0  0  0  0  0  0  0  0
   -8.7641    5.4448   -8.7685 O   0  0  0  0  0  0  0  0  0  0  0  0
   -6.1545    4.9834  -14.9634 N   0  0  0  0  0  0  0  0  0  0  0  0
   -4.9921    5.2488  -15.6704 C   0  0  0  0  0  0  0  0  0  0  0  0
   -5.1663    5.2347  -16.9685 N   0  0  0  0  0  0  0  0  0  0  0  0
   -6.4672    4.8557  -17.1335 C   0  0  0  0  0  0  0  0  0  0  0  0
   -7.1504    4.6084  -18.3257 C   0  0  0  0  0  0  0  0  0  0  0  0
   -8.4746    4.2192  -18.2214 C   0  0  0  0  0  0  0  0  0  0  0  0
   -9.1732    3.9250  -19.3105 F   0  0  0  0  0  0  0  0  0  0  0  0
   -9.1110    4.1020  -17.0096 C   0  0  0  0  0  0  0  0  0  0  0  0
  -10.4106    3.8143  -17.0050 F   0  0  0  0  0  0  0  0  0  0  0  0
   -8.4455    4.2933  -15.8153 C   0  0  0  0  0  0  0  0  0  0  0  0
   -7.1125    4.6906  -15.8989 C   0  0  0  0  0  0  0  0  0  0  0  0
  1  2  1  0
  2  3  1  0
  4  2  1  6
  4  5  1  0
  5  6  2  0
  5  7  1  0
  8  7  1  6
  8  9  1  0
  9 10  1  0
 10 11  1  0
 11 12  1  1
 11 13  1  0
  4 14  1  0
 14 15  1  0
 15 16  2  0
 16 17  1  0
 17 18  2  0
 18 19  1  0
 19 20  1  0
 19 21  2  0
 21 22  1  0
 21 23  1  0
 23 24  2  0
 11  8  1  0
 24 14  1  0
 24 17  1  0
M  END
>  <energy_score>  (2364) 
-10.043671

>  <alias>  (2364) 
None

>  <HIPPO Pose ID>  (2364) 
74478

>  <smiles>  (2364) 
CC(C)[C@@H](C(=O)N[C@H]1CC[C@]1(C)O)n1cnc2cc(F)c(F)cc21

>  <inchikey>  (2364) 
FFQFXSIQLZHRIU-ZOBUZTSGSA-N

>  <distance_score>  (2364) 
1.541098

>  <ref_mols>  (2364) 
Z0101a,Z3880a

>  <ref_pdb>  (2364) 
Z3880a

>  <HIPPO Compound ID>  (2364) 
147533

>  <name>  (2364) 
P74478

>  <inspiration_score>  (2364) 
None

$$$$
P74482
     RDKit          3D

 24 26  0  0  0  0  0  0  0  0999 V2000
   -8.1697    5.8744   -9.3748 C   0  0  0  0  0  0  0  0  0  0  0  0
   -8.3351    4.5486   -9.2774 C   0  0  0  0  0  0  0  0  0  0  0  0
   -8.4553    3.8146   -7.9796 C   0  0  0  0  0  0  0  0  0  0  0  0
   -9.0604    2.5645   -8.3092 O   0  0  0  0  0  0  0  0  0  0  0  0
   -8.6222    2.2553   -9.6442 C   0  0  0  0  0  0  0  0  0  0  0  0
   -8.5779    3.5821  -10.3979 C   0  0  2  0  0  0  0  0  0  0  0  0
   -7.6025    3.7269  -11.4616 N   0  0  0  0  0  0  0  0  0  0  0  0
   -7.5549    4.7266  -12.6698 C   0  0  0  0  0  0  0  0  0  0  0  0
   -8.3363    5.5267  -13.0246 O   0  0  0  0  0  0  0  0  0  0  0  0
   -6.1558    4.5951  -13.3608 C   0  0  2  0  0  0  0  0  0  0  0  0
   -5.1717    5.5056  -12.5911 C   0  0  0  0  0  0  0  0  0  0  0  0
   -5.6365    6.9611  -12.5547 C   0  0  0  0  0  0  0  0  0  0  0  0
   -4.8168    5.0247  -11.1804 C   0  0  0  0  0  0  0  0  0  0  0  0
   -6.1120    4.8812  -14.8293 N   0  0  0  0  0  0  0  0  0  0  0  0
   -4.9860    5.2493  -15.5494 C   0  0  0  0  0  0  0  0  0  0  0  0
   -5.1878    5.3038  -16.8445 N   0  0  0  0  0  0  0  0  0  0  0  0
   -6.4783    4.8992  -17.0089 C   0  0  0  0  0  0  0  0  0  0  0  0
   -7.1786    4.6969  -18.2031 C   0  0  0  0  0  0  0  0  0  0  0  0
   -8.4952    4.2836  -18.0985 C   0  0  0  0  0  0  0  0  0  0  0  0
   -9.2186    4.0371  -19.1866 F   0  0  0  0  0  0  0  0  0  0  0  0
   -9.1037    4.1094  -16.8785 C   0  0  0  0  0  0  0  0  0  0  0  0
  -10.3993    3.8129  -16.8644 F   0  0  0  0  0  0  0  0  0  0  0  0
   -8.4219    4.2530  -15.6847 C   0  0  0  0  0  0  0  0  0  0  0  0
   -7.0923    4.6572  -15.7717 C   0  0  0  0  0  0  0  0  0  0  0  0
  1  2  2  0
  2  3  1  0
  3  4  1  0
  4  5  1  0
  5  6  1  0
  6  7  1  6
  7  8  1  0
  8  9  2  0
  8 10  1  0
 10 11  1  1
 11 12  1  0
 11 13  1  0
 10 14  1  0
 14 15  1  0
 15 16  2  0
 16 17  1  0
 17 18  2  0
 18 19  1  0
 19 20  1  0
 19 21  2  0
 21 22  1  0
 21 23  1  0
 23 24  2  0
  6  2  1  0
 24 14  1  0
 24 17  1  0
M  END
>  <energy_score>  (2365) 
-0.149216

>  <alias>  (2365) 
None

>  <HIPPO Pose ID>  (2365) 
74482

>  <smiles>  (2365) 
C=C1COC[C@@H]1NC(=O)[C@H](C(C)C)n1cnc2cc(F)c(F)cc21

>  <inchikey>  (2365) 
IEPCDVZBOUHNQO-HOCLYGCPSA-N

>  <distance_score>  (2365) 
1.412833

>  <ref_mols>  (2365) 
Z0101a,Z3880a

>  <ref_pdb>  (2365) 
Z3880a

>  <HIPPO Compound ID>  (2365) 
147534

>  <name>  (2365) 
P74482

>  <inspiration_score>  (2365) 
None

$$$$
P74485
     RDKit          3D

 24 26  0  0  0  0  0  0  0  0999 V2000
   -4.9775    6.4929  -12.2937 C   0  0  0  0  0  0  0  0  0  0  0  0
   -4.8600    5.0128  -12.6650 C   0  0  0  0  0  0  0  0  0  0  0  0
   -4.4569    4.1908  -11.4348 C   0  0  0  0  0  0  0  0  0  0  0  0
   -6.1101    4.5113  -13.4215 C   0  0  1  0  0  0  0  0  0  0  0  0
   -7.3675    4.9109  -12.5864 C   0  0  0  0  0  0  0  0  0  0  0  0
   -7.9925    5.8734  -12.8359 O   0  0  0  0  0  0  0  0  0  0  0  0
   -7.5037    3.8870  -11.3967 N   0  0  0  0  0  0  0  0  0  0  0  0
   -8.3875    3.9052  -10.2148 C   0  0  1  0  0  0  0  0  0  0  0  0
   -8.1374    2.9065   -9.0468 C   0  0  2  0  0  0  0  0  0  0  0  0
   -9.2263    1.9365   -8.6336 C   0  0  0  0  0  0  0  0  0  0  0  0
   -8.1446    4.1039   -8.0632 C   0  0  0  0  0  0  0  0  0  0  0  0
   -7.9032    5.0342   -9.2470 C   0  0  2  0  0  0  0  0  0  0  0  0
   -8.6447    6.2590   -9.2828 O   0  0  0  0  0  0  0  0  0  0  0  0
   -6.1049    4.9643  -14.8428 N   0  0  0  0  0  0  0  0  0  0  0  0
   -5.0362    5.4564  -15.5697 C   0  0  0  0  0  0  0  0  0  0  0  0
   -5.2507    5.4677  -16.8646 N   0  0  0  0  0  0  0  0  0  0  0  0
   -6.5175    4.9878  -17.0090 C   0  0  0  0  0  0  0  0  0  0  0  0
   -7.2305    4.7490  -18.1862 C   0  0  0  0  0  0  0  0  0  0  0  0
   -8.5326    4.3027  -18.0462 C   0  0  0  0  0  0  0  0  0  0  0  0
   -9.2770    4.0473  -19.1182 F   0  0  0  0  0  0  0  0  0  0  0  0
   -9.1096    4.1258  -16.8073 C   0  0  0  0  0  0  0  0  0  0  0  0
  -10.3970    3.8061  -16.7621 F   0  0  0  0  0  0  0  0  0  0  0  0
   -8.4124    4.2978  -15.6256 C   0  0  0  0  0  0  0  0  0  0  0  0
   -7.0991    4.7279  -15.7627 C   0  0  0  0  0  0  0  0  0  0  0  0
  1  2  1  0
  2  3  1  0
  4  2  1  1
  4  5  1  0
  5  6  2  0
  5  7  1  0
  8  7  1  6
  8  9  1  0
  9 10  1  1
  9 11  1  0
 11 12  1  0
 12 13  1  1
  4 14  1  0
 14 15  1  0
 15 16  2  0
 16 17  1  0
 17 18  2  0
 18 19  1  0
 19 20  1  0
 19 21  2  0
 21 22  1  0
 21 23  1  0
 23 24  2  0
 12  8  1  0
 24 14  1  0
 24 17  1  0
M  END
>  <energy_score>  (2366) 
-15.714868

>  <alias>  (2366) 
None

>  <HIPPO Pose ID>  (2366) 
74485

>  <smiles>  (2366) 
CC(C)[C@@H](C(=O)N[C@H]1[C@H](C)C[C@@H]1O)n1cnc2cc(F)c(F)cc21

>  <inchikey>  (2366) 
QHBQIMAWPVZPQJ-VVKQEJOYSA-N

>  <distance_score>  (2366) 
1.491268

>  <ref_mols>  (2366) 
Z0101a,Z3880a

>  <ref_pdb>  (2366) 
Z3880a

>  <HIPPO Compound ID>  (2366) 
147536

>  <name>  (2366) 
P74485

>  <inspiration_score>  (2366) 
None

$$$$
P74498
     RDKit          3D

 24 26  0  0  0  0  0  0  0  0999 V2000
   -5.5549    7.0707  -12.6954 C   0  0  0  0  0  0  0  0  0  0  0  0
   -4.8962    5.6949  -12.8176 C   0  0  0  0  0  0  0  0  0  0  0  0
   -4.3307    5.2546  -11.4630 C   0  0  0  0  0  0  0  0  0  0  0  0
   -5.8163    4.6472  -13.4963 C   0  0  1  0  0  0  0  0  0  0  0  0
   -7.1367    4.6615  -12.6652 C   0  0  0  0  0  0  0  0  0  0  0  0
   -8.0094    5.4109  -12.8956 O   0  0  0  0  0  0  0  0  0  0  0  0
   -6.9738    3.6175  -11.5035 N   0  0  0  0  0  0  0  0  0  0  0  0
   -7.8238    3.3557  -10.3252 C   0  0  1  0  0  0  0  0  0  0  0  0
   -9.1202    2.7013  -10.7341 C   0  0  0  0  0  0  0  0  0  0  0  0
   -7.1860    2.5825   -9.1609 C   0  0  0  0  0  0  0  0  0  0  0  0
   -7.8907    3.5827   -8.1926 C   0  0  0  0  0  0  0  0  0  0  0  0
   -7.8072    4.5903   -9.3438 C   0  0  2  0  0  0  0  0  0  0  0  0
   -8.8388    5.5684   -9.4676 O   0  0  0  0  0  0  0  0  0  0  0  0
   -5.9059    4.9101  -14.9595 N   0  0  0  0  0  0  0  0  0  0  0  0
   -4.8303    5.2489  -15.7662 C   0  0  0  0  0  0  0  0  0  0  0  0
   -5.1372    5.3201  -17.0383 N   0  0  0  0  0  0  0  0  0  0  0  0
   -6.4416    4.9296  -17.0975 C   0  0  0  0  0  0  0  0  0  0  0  0
   -7.2370    4.7406  -18.2317 C   0  0  0  0  0  0  0  0  0  0  0  0
   -8.5414    4.3279  -18.0248 C   0  0  0  0  0  0  0  0  0  0  0  0
   -9.3585    4.1233  -19.0546 F   0  0  0  0  0  0  0  0  0  0  0  0
   -9.0392    4.1256  -16.7577 C   0  0  0  0  0  0  0  0  0  0  0  0
  -10.3186    3.8005  -16.6268 F   0  0  0  0  0  0  0  0  0  0  0  0
   -8.2668    4.2663  -15.6213 C   0  0  0  0  0  0  0  0  0  0  0  0
   -6.9555    4.6842  -15.8158 C   0  0  0  0  0  0  0  0  0  0  0  0
  1  2  1  0
  2  3  1  0
  4  2  1  1
  4  5  1  0
  5  6  2  0
  5  7  1  0
  8  7  1  0
  8  9  1  6
  8 10  1  0
 10 11  1  0
 11 12  1  0
 12 13  1  6
  4 14  1  0
 14 15  1  0
 15 16  2  0
 16 17  1  0
 17 18  2  0
 18 19  1  0
 19 20  1  0
 19 21  2  0
 21 22  1  0
 21 23  1  0
 23 24  2  0
 12  8  1  0
 24 14  1  0
 24 17  1  0
M  END
>  <energy_score>  (2367) 
-18.622137

>  <alias>  (2367) 
None

>  <HIPPO Pose ID>  (2367) 
74498

>  <smiles>  (2367) 
CC(C)[C@@H](C(=O)N[C@@]1(C)CC[C@@H]1O)n1cnc2cc(F)c(F)cc21

>  <inchikey>  (2367) 
KYBQYLVXSLMAMN-ZOBUZTSGSA-N

>  <distance_score>  (2367) 
1.586315

>  <ref_mols>  (2367) 
Z0101a,Z3880a

>  <ref_pdb>  (2367) 
Z3880a

>  <HIPPO Compound ID>  (2367) 
147543

>  <name>  (2367) 
P74498

>  <inspiration_score>  (2367) 
None

$$$$
P74509
     RDKit          3D

 24 26  0  0  0  0  0  0  0  0999 V2000
   -7.9327    5.8932   -8.8241 C   0  0  0  0  0  0  0  0  0  0  0  0
   -7.9052    4.5537   -8.8011 C   0  0  0  0  0  0  0  0  0  0  0  0
   -8.6572    3.7060   -7.8238 C   0  0  0  0  0  0  0  0  0  0  0  0
   -9.1013    2.5665   -8.5610 O   0  0  0  0  0  0  0  0  0  0  0  0
   -8.4318    2.5739   -9.8432 C   0  0  0  0  0  0  0  0  0  0  0  0
   -7.2943    3.5886   -9.7683 C   0  0  1  0  0  0  0  0  0  0  0  0
   -6.8416    4.2521  -10.9747 N   0  0  0  0  0  0  0  0  0  0  0  0
   -7.1369    3.9368  -12.4781 C   0  0  0  0  0  0  0  0  0  0  0  0
   -7.7240    3.0521  -12.9632 O   0  0  0  0  0  0  0  0  0  0  0  0
   -6.5129    5.1105  -13.2948 C   0  0  2  0  0  0  0  0  0  0  0  0
   -7.3899    6.3467  -13.1189 C   0  0  0  0  0  0  0  0  0  0  0  0
   -6.2379    4.9087  -14.7378 N   0  0  0  0  0  0  0  0  0  0  0  0
   -5.0431    5.2351  -15.3861 C   0  0  0  0  0  0  0  0  0  0  0  0
   -3.7702    5.5566  -14.6587 C   0  0  0  0  0  0  0  0  0  0  0  0
   -2.5771    5.8594  -15.5846 C   0  0  0  0  0  0  0  0  0  0  0  0
   -1.2719    5.7986  -14.7859 C   0  0  0  0  0  0  0  0  0  0  0  0
   -2.7023    7.2359  -16.2456 C   0  0  0  0  0  0  0  0  0  0  0  0
   -5.1877    5.2123  -16.6968 N   0  0  0  0  0  0  0  0  0  0  0  0
   -6.4838    4.8448  -16.9247 C   0  0  0  0  0  0  0  0  0  0  0  0
   -7.1465    4.6560  -18.1436 C   0  0  0  0  0  0  0  0  0  0  0  0
   -8.4972    4.3089  -18.1212 C   0  0  0  0  0  0  0  0  0  0  0  0
   -9.1753    4.1685  -16.9168 C   0  0  0  0  0  0  0  0  0  0  0  0
   -8.5273    4.3408  -15.6934 C   0  0  0  0  0  0  0  0  0  0  0  0
   -7.1717    4.6733  -15.7257 C   0  0  0  0  0  0  0  0  0  0  0  0
  1  2  2  0
  2  3  1  0
  3  4  1  0
  4  5  1  0
  5  6  1  0
  6  7  1  6
  7  8  1  0
  8  9  2  0
  8 10  1  0
 10 11  1  6
 10 12  1  0
 12 13  1  0
 13 14  1  0
 14 15  1  0
 15 16  1  0
 15 17  1  0
 13 18  2  0
 18 19  1  0
 19 20  2  0
 20 21  1  0
 21 22  2  0
 22 23  1  0
 23 24  2  0
  6  2  1  0
 24 12  1  0
 24 19  1  0
M  END
>  <energy_score>  (2368) 
-2.530835

>  <alias>  (2368) 
None

>  <HIPPO Pose ID>  (2368) 
74509

>  <smiles>  (2368) 
C=C1COC[C@H]1NC(=O)[C@H](C)n1c(CC(C)C)nc2ccccc21

>  <inchikey>  (2368) 
IAROONJRZLAJHS-GOEBONIOSA-N

>  <distance_score>  (2368) 
1.700704

>  <ref_mols>  (2368) 
Z0101a,Z3880a

>  <ref_pdb>  (2368) 
Z3880a

>  <HIPPO Compound ID>  (2368) 
147551

>  <name>  (2368) 
P74509

>  <inspiration_score>  (2368) 
None

$$$$
P74512
     RDKit          3D

 24 26  0  0  0  0  0  0  0  0999 V2000
   -3.9604    7.7396  -14.2057 C   0  0  0  0  0  0  0  0  0  0  0  0
   -3.3244    6.3466  -14.2103 C   0  0  0  0  0  0  0  0  0  0  0  0
   -2.1162    6.3273  -13.2710 C   0  0  0  0  0  0  0  0  0  0  0  0
   -4.3307    5.2573  -13.7923 C   0  0  0  0  0  0  0  0  0  0  0  0
   -5.4231    5.0544  -14.7983 C   0  0  0  0  0  0  0  0  0  0  0  0
   -5.2537    5.1099  -16.1134 N   0  0  0  0  0  0  0  0  0  0  0  0
   -6.4549    4.7631  -16.6710 C   0  0  0  0  0  0  0  0  0  0  0  0
   -6.8196    4.6047  -18.0146 C   0  0  0  0  0  0  0  0  0  0  0  0
   -8.1303    4.2160  -18.3108 C   0  0  0  0  0  0  0  0  0  0  0  0
   -9.0753    4.0465  -17.3102 C   0  0  0  0  0  0  0  0  0  0  0  0
   -8.7273    4.2082  -15.9752 C   0  0  0  0  0  0  0  0  0  0  0  0
   -7.4024    4.5448  -15.6816 C   0  0  0  0  0  0  0  0  0  0  0  0
   -6.7347    4.7506  -14.4841 N   0  0  0  0  0  0  0  0  0  0  0  0
   -7.4667    4.9493  -13.2254 C   0  0  2  0  0  0  0  0  0  0  0  0
   -7.4800    6.4241  -12.8481 C   0  0  0  0  0  0  0  0  0  0  0  0
   -7.1360    4.0816  -11.9899 C   0  0  0  0  0  0  0  0  0  0  0  0
   -6.0919    3.6089  -11.7530 O   0  0  0  0  0  0  0  0  0  0  0  0
   -8.4604    4.0988  -11.1434 N   0  0  0  0  0  0  0  0  0  0  0  0
   -8.7231    3.6230   -9.8105 C   0  0  1  0  0  0  0  0  0  0  0  0
   -8.2861    2.2747   -9.3028 C   0  0  0  0  0  0  0  0  0  0  0  0
   -8.6833    2.3195   -7.9156 O   0  0  0  0  0  0  0  0  0  0  0  0
   -8.5581    3.6749   -7.4598 C   0  0  0  0  0  0  0  0  0  0  0  0
   -8.3422    4.5622   -8.6838 C   0  0  1  0  0  0  0  0  0  0  0  0
   -6.9224    5.0928   -8.7707 C   0  0  0  0  0  0  0  0  0  0  0  0
  1  2  1  0
  2  3  1  0
  2  4  1  0
  4  5  1  0
  5  6  2  0
  6  7  1  0
  7  8  2  0
  8  9  1  0
  9 10  2  0
 10 11  1  0
 11 12  2  0
 12 13  1  0
 13 14  1  0
 14 15  1  1
 14 16  1  0
 16 17  2  0
 16 18  1  0
 19 18  1  6
 19 20  1  0
 20 21  1  0
 21 22  1  0
 22 23  1  0
 23 24  1  6
 13  5  1  0
 23 19  1  0
 12  7  1  0
M  END
>  <energy_score>  (2369) 
-5.991604

>  <alias>  (2369) 
None

>  <HIPPO Pose ID>  (2369) 
74512

>  <smiles>  (2369) 
CC(C)Cc1nc2ccccc2n1[C@H](C)C(=O)N[C@H]1COC[C@H]1C

>  <inchikey>  (2369) 
PTTGLHQVPIRGHE-FMKPAKJESA-N

>  <distance_score>  (2369) 
1.376858

>  <ref_mols>  (2369) 
Z0101a,Z3880a

>  <ref_pdb>  (2369) 
Z3880a

>  <HIPPO Compound ID>  (2369) 
147553

>  <name>  (2369) 
P74512

>  <inspiration_score>  (2369) 
None

$$$$
P74513
     RDKit          3D

 24 26  0  0  0  0  0  0  0  0999 V2000
   -2.9701    7.6858  -13.3251 C   0  0  0  0  0  0  0  0  0  0  0  0
   -3.8629    7.2220  -14.4801 C   0  0  0  0  0  0  0  0  0  0  0  0
   -3.2020    7.5926  -15.8109 C   0  0  0  0  0  0  0  0  0  0  0  0
   -4.1295    5.7079  -14.3570 C   0  0  0  0  0  0  0  0  0  0  0  0
   -5.2783    5.2528  -15.2037 C   0  0  0  0  0  0  0  0  0  0  0  0
   -5.2441    5.2093  -16.5261 N   0  0  0  0  0  0  0  0  0  0  0  0
   -6.4829    4.7925  -16.9262 C   0  0  0  0  0  0  0  0  0  0  0  0
   -6.9882    4.5814  -18.2143 C   0  0  0  0  0  0  0  0  0  0  0  0
   -8.3213    4.1842  -18.3510 C   0  0  0  0  0  0  0  0  0  0  0  0
   -9.1478    4.0414  -17.2469 C   0  0  0  0  0  0  0  0  0  0  0  0
   -8.6538    4.2281  -15.9615 C   0  0  0  0  0  0  0  0  0  0  0  0
   -7.3082    4.5870  -15.8287 C   0  0  0  0  0  0  0  0  0  0  0  0
   -6.5095    4.8283  -14.7206 N   0  0  0  0  0  0  0  0  0  0  0  0
   -7.0889    4.9000  -13.3629 C   0  0  2  0  0  0  0  0  0  0  0  0
   -7.2079    6.3520  -12.9237 C   0  0  0  0  0  0  0  0  0  0  0  0
   -6.4863    4.0267  -12.2335 C   0  0  0  0  0  0  0  0  0  0  0  0
   -5.3886    3.6176  -12.2362 O   0  0  0  0  0  0  0  0  0  0  0  0
   -7.6029    3.9377  -11.1294 N   0  0  0  0  0  0  0  0  0  0  0  0
   -7.5503    3.4078   -9.7699 C   0  0  2  0  0  0  0  0  0  0  0  0
   -8.4573    2.2314   -9.5116 C   0  0  0  0  0  0  0  0  0  0  0  0
   -9.0342    2.4735   -8.1351 C   0  0  0  0  0  0  0  0  0  0  0  0
   -8.8995    3.8678   -7.8661 O   0  0  0  0  0  0  0  0  0  0  0  0
   -8.1363    4.4464   -8.8319 C   0  0  0  0  0  0  0  0  0  0  0  0
   -7.9823    5.6564   -8.9364 O   0  0  0  0  0  0  0  0  0  0  0  0
  1  2  1  0
  2  3  1  0
  2  4  1  0
  4  5  1  0
  5  6  2  0
  6  7  1  0
  7  8  2  0
  8  9  1  0
  9 10  2  0
 10 11  1  0
 11 12  2  0
 12 13  1  0
 13 14  1  0
 14 15  1  1
 14 16  1  0
 16 17  2  0
 16 18  1  0
 19 18  1  6
 19 20  1  0
 20 21  1  0
 21 22  1  0
 22 23  1  0
 23 24  2  0
 13  5  1  0
 23 19  1  0
 12  7  1  0
M  END
>  <energy_score>  (2370) 
-16.727324

>  <alias>  (2370) 
None

>  <HIPPO Pose ID>  (2370) 
74513

>  <smiles>  (2370) 
CC(C)Cc1nc2ccccc2n1[C@H](C)C(=O)N[C@@H]1CCOC1=O

>  <inchikey>  (2370) 
UORRXUXWYPCVMX-TZMCWYRMSA-N

>  <distance_score>  (2370) 
1.561617

>  <ref_mols>  (2370) 
Z0101a,Z3880a

>  <ref_pdb>  (2370) 
Z3880a

>  <HIPPO Compound ID>  (2370) 
147559

>  <name>  (2370) 
P74513

>  <inspiration_score>  (2370) 
None

$$$$
P74516
     RDKit          3D

 24 26  0  0  0  0  0  0  0  0999 V2000
   -2.4708    6.7532  -12.9227 C   0  0  0  0  0  0  0  0  0  0  0  0
   -3.1980    6.1196  -14.1128 C   0  0  0  0  0  0  0  0  0  0  0  0
   -2.2222    5.2216  -14.8781 C   0  0  0  0  0  0  0  0  0  0  0  0
   -4.4305    5.3364  -13.6187 C   0  0  0  0  0  0  0  0  0  0  0  0
   -5.4466    5.0703  -14.6902 C   0  0  0  0  0  0  0  0  0  0  0  0
   -5.2321    5.1639  -15.9970 N   0  0  0  0  0  0  0  0  0  0  0  0
   -6.3959    4.7860  -16.6112 C   0  0  0  0  0  0  0  0  0  0  0  0
   -6.7046    4.6472  -17.9707 C   0  0  0  0  0  0  0  0  0  0  0  0
   -7.9931    4.2332  -18.3258 C   0  0  0  0  0  0  0  0  0  0  0  0
   -8.9756    4.0302  -17.3686 C   0  0  0  0  0  0  0  0  0  0  0  0
   -8.6835    4.1748  -16.0191 C   0  0  0  0  0  0  0  0  0  0  0  0
   -7.3735    4.5175  -15.6662 C   0  0  0  0  0  0  0  0  0  0  0  0
   -6.7504    4.6867  -14.4360 N   0  0  0  0  0  0  0  0  0  0  0  0
   -7.5506    4.7945  -13.2057 C   0  0  2  0  0  0  0  0  0  0  0  0
   -7.8560    6.2659  -12.9454 C   0  0  0  0  0  0  0  0  0  0  0  0
   -7.1371    4.1102  -11.8842 C   0  0  0  0  0  0  0  0  0  0  0  0
   -6.0440    3.8452  -11.5592 O   0  0  0  0  0  0  0  0  0  0  0  0
   -8.4947    3.9767  -11.0977 N   0  0  0  0  0  0  0  0  0  0  0  0
   -8.7506    3.5839   -9.7379 C   0  0  1  0  0  0  0  0  0  0  0  0
   -8.3682    2.2453   -9.1796 C   0  0  0  0  0  0  0  0  0  0  0  0
   -8.8624    2.4434   -7.7504 C   0  0  0  0  0  0  0  0  0  0  0  0
   -8.5583    3.8121   -7.3941 O   0  0  0  0  0  0  0  0  0  0  0  0
   -8.3763    4.5505   -8.6220 C   0  0  1  0  0  0  0  0  0  0  0  0
   -6.9610    5.0813   -8.6787 C   0  0  0  0  0  0  0  0  0  0  0  0
  1  2  1  0
  2  3  1  0
  2  4  1  0
  4  5  1  0
  5  6  2  0
  6  7  1  0
  7  8  2  0
  8  9  1  0
  9 10  2  0
 10 11  1  0
 11 12  2  0
 12 13  1  0
 13 14  1  0
 14 15  1  1
 14 16  1  0
 16 17  2  0
 16 18  1  0
 19 18  1  6
 19 20  1  0
 20 21  1  0
 21 22  1  0
 22 23  1  0
 23 24  1  6
 13  5  1  0
 23 19  1  0
 12  7  1  0
M  END
>  <energy_score>  (2371) 
-2.418306

>  <alias>  (2371) 
None

>  <HIPPO Pose ID>  (2371) 
74516

>  <smiles>  (2371) 
CC(C)Cc1nc2ccccc2n1[C@H](C)C(=O)N[C@H]1CCO[C@H]1C

>  <inchikey>  (2371) 
NVWRHNPQWCFJNF-ILXRZTDVSA-N

>  <distance_score>  (2371) 
1.438928

>  <ref_mols>  (2371) 
Z0101a,Z3880a

>  <ref_pdb>  (2371) 
Z3880a

>  <HIPPO Compound ID>  (2371) 
147562

>  <name>  (2371) 
P74516

>  <inspiration_score>  (2371) 
None

$$$$
P74519
     RDKit          3D

 24 27  0  0  0  0  0  0  0  0999 V2000
   -2.5444    4.5256  -13.6869 C   0  0  0  0  0  0  0  0  0  0  0  0
   -2.5046    5.4812  -14.8784 C   0  0  0  0  0  0  0  0  0  0  0  0
   -1.2424    6.3438  -14.7937 C   0  0  0  0  0  0  0  0  0  0  0  0
   -3.7537    6.3767  -14.9259 C   0  0  0  0  0  0  0  0  0  0  0  0
   -4.9504    5.6868  -15.5131 C   0  0  0  0  0  0  0  0  0  0  0  0
   -5.1069    5.5272  -16.8157 N   0  0  0  0  0  0  0  0  0  0  0  0
   -6.3505    4.9874  -16.9852 C   0  0  0  0  0  0  0  0  0  0  0  0
   -7.0362    4.6979  -18.1725 C   0  0  0  0  0  0  0  0  0  0  0  0
   -8.3496    4.2336  -18.0904 C   0  0  0  0  0  0  0  0  0  0  0  0
   -8.9525    4.0292  -16.8550 C   0  0  0  0  0  0  0  0  0  0  0  0
   -8.2631    4.2501  -15.6621 C   0  0  0  0  0  0  0  0  0  0  0  0
   -6.9683    4.7689  -15.7574 C   0  0  0  0  0  0  0  0  0  0  0  0
   -6.0690    5.2349  -14.8109 N   0  0  0  0  0  0  0  0  0  0  0  0
   -6.4355    5.5552  -13.4057 C   0  0  1  0  0  0  0  0  0  0  0  0
   -7.7026    6.4038  -13.3780 C   0  0  0  0  0  0  0  0  0  0  0  0
   -6.3483    4.3570  -12.4056 C   0  0  0  0  0  0  0  0  0  0  0  0
   -5.5846    3.4873  -12.5948 O   0  0  0  0  0  0  0  0  0  0  0  0
   -7.3128    4.6185  -11.1902 N   0  0  0  0  0  0  0  0  0  0  0  0
   -7.4507    3.9233   -9.9522 C   0  0  2  0  0  0  0  0  0  0  0  0
   -8.1059    2.5537   -9.8979 C   0  0  0  0  0  0  0  0  0  0  0  0
   -9.1264    2.6225   -8.8735 O   0  0  0  0  0  0  0  0  0  0  0  0
   -8.7309    3.6191   -7.9312 C   0  0  0  0  0  0  0  0  0  0  0  0
   -7.9137    4.5965   -8.7022 C   0  0  1  0  0  0  0  0  0  0  0  0
   -6.4565    4.3464   -8.8876 C   0  0  0  0  0  0  0  0  0  0  0  0
  1  2  1  0
  2  3  1  0
  2  4  1  0
  4  5  1  0
  5  6  2  0
  6  7  1  0
  7  8  2  0
  8  9  1  0
  9 10  2  0
 10 11  1  0
 11 12  2  0
 12 13  1  0
 13 14  1  0
 14 15  1  6
 14 16  1  0
 16 17  2  0
 16 18  1  0
 19 18  1  6
 19 20  1  0
 20 21  1  0
 21 22  1  0
 23 22  1  1
 23 24  1  0
 13  5  1  0
 23 19  1  0
 12  7  1  0
 24 19  1  0
M  END
>  <energy_score>  (2372) 
-14.312408

>  <alias>  (2372) 
None

>  <HIPPO Pose ID>  (2372) 
74519

>  <smiles>  (2372) 
CC(C)Cc1nc2ccccc2n1[C@@H](C)C(=O)N[C@]12COC[C@H]1C2

>  <inchikey>  (2372) 
GCEAKXUVUQRQSI-IQUTYRLHSA-N

>  <distance_score>  (2372) 
1.737863

>  <ref_mols>  (2372) 
Z0101a,Z3880a

>  <ref_pdb>  (2372) 
Z3880a

>  <HIPPO Compound ID>  (2372) 
147566

>  <name>  (2372) 
P74519

>  <inspiration_score>  (2372) 
None

$$$$
P74521
     RDKit          3D

 24 26  0  0  0  0  0  0  0  0999 V2000
   -2.7717    7.3175  -16.2668 C   0  0  0  0  0  0  0  0  0  0  0  0
   -3.0824    6.6822  -14.9079 C   0  0  0  0  0  0  0  0  0  0  0  0
   -1.8128    6.6666  -14.0522 C   0  0  0  0  0  0  0  0  0  0  0  0
   -3.6326    5.2504  -15.0455 C   0  0  0  0  0  0  0  0  0  0  0  0
   -5.0199    5.1981  -15.6116 C   0  0  0  0  0  0  0  0  0  0  0  0
   -5.2421    5.2948  -16.9062 N   0  0  0  0  0  0  0  0  0  0  0  0
   -6.5382    4.9249  -17.0830 C   0  0  0  0  0  0  0  0  0  0  0  0
   -7.2309    4.7514  -18.2853 C   0  0  0  0  0  0  0  0  0  0  0  0
   -8.5598    4.3406  -18.2371 C   0  0  0  0  0  0  0  0  0  0  0  0
   -9.1841    4.1080  -17.0241 C   0  0  0  0  0  0  0  0  0  0  0  0
   -8.4940    4.2388  -15.8205 C   0  0  0  0  0  0  0  0  0  0  0  0
   -7.1667    4.6759  -15.8624 C   0  0  0  0  0  0  0  0  0  0  0  0
   -6.2044    4.9315  -14.9022 N   0  0  0  0  0  0  0  0  0  0  0  0
   -6.3185    4.7738  -13.4291 C   0  0  1  0  0  0  0  0  0  0  0  0
   -5.6781    5.9491  -12.6887 C   0  0  0  0  0  0  0  0  0  0  0  0
   -7.7221    4.7502  -12.7588 C   0  0  0  0  0  0  0  0  0  0  0  0
   -8.6211    5.3869  -13.1610 O   0  0  0  0  0  0  0  0  0  0  0  0
   -7.6090    3.8451  -11.4795 N   0  0  0  0  0  0  0  0  0  0  0  0
   -8.5492    3.6246  -10.3968 C   0  0  1  0  0  0  0  0  0  0  0  0
   -8.6063    2.2731   -9.7067 C   0  0  0  0  0  0  0  0  0  0  0  0
   -9.1562    2.5058   -8.3947 O   0  0  0  0  0  0  0  0  0  0  0  0
   -8.6069    3.7398   -7.9189 C   0  0  0  0  0  0  0  0  0  0  0  0
   -8.2544    4.4711   -9.1848 C   0  0  0  0  0  0  0  0  0  0  0  0
   -7.7896    5.6063   -9.2150 O   0  0  0  0  0  0  0  0  0  0  0  0
  1  2  1  0
  2  3  1  0
  2  4  1  0
  4  5  1  0
  5  6  2  0
  6  7  1  0
  7  8  2  0
  8  9  1  0
  9 10  2  0
 10 11  1  0
 11 12  2  0
 12 13  1  0
 13 14  1  0
 14 15  1  1
 14 16  1  0
 16 17  2  0
 16 18  1  0
 19 18  1  6
 19 20  1  0
 20 21  1  0
 21 22  1  0
 22 23  1  0
 23 24  2  0
 13  5  1  0
 23 19  1  0
 12  7  1  0
M  END
>  <energy_score>  (2373) 
-13.891077

>  <alias>  (2373) 
None

>  <HIPPO Pose ID>  (2373) 
74521

>  <smiles>  (2373) 
CC(C)Cc1nc2ccccc2n1[C@@H](C)C(=O)N[C@H]1COCC1=O

>  <inchikey>  (2373) 
COTQJQLNJRPYHJ-JSGCOSHPSA-N

>  <distance_score>  (2373) 
1.56852

>  <ref_mols>  (2373) 
Z0101a,Z3880a

>  <ref_pdb>  (2373) 
Z3880a

>  <HIPPO Compound ID>  (2373) 
147568

>  <name>  (2373) 
P74521

>  <inspiration_score>  (2373) 
None

$$$$
P74524
     RDKit          3D

 24 26  0  0  0  0  0  0  0  0999 V2000
   -2.1319    6.0878  -16.4928 C   0  0  0  0  0  0  0  0  0  0  0  0
   -2.6716    5.8738  -15.0748 C   0  0  0  0  0  0  0  0  0  0  0  0
   -1.6672    6.4250  -14.0597 C   0  0  0  0  0  0  0  0  0  0  0  0
   -4.0443    6.5441  -14.8688 C   0  0  0  0  0  0  0  0  0  0  0  0
   -5.1707    5.7891  -15.5041 C   0  0  0  0  0  0  0  0  0  0  0  0
   -5.3430    5.7445  -16.8142 N   0  0  0  0  0  0  0  0  0  0  0  0
   -6.5548    5.1530  -17.0150 C   0  0  0  0  0  0  0  0  0  0  0  0
   -7.2196    4.8719  -18.2120 C   0  0  0  0  0  0  0  0  0  0  0  0
   -8.5107    4.3470  -18.1455 C   0  0  0  0  0  0  0  0  0  0  0  0
   -9.1225    4.1107  -16.9199 C   0  0  0  0  0  0  0  0  0  0  0  0
   -8.4494    4.3223  -15.7178 C   0  0  0  0  0  0  0  0  0  0  0  0
   -7.1583    4.8465  -15.8027 C   0  0  0  0  0  0  0  0  0  0  0  0
   -6.2025    5.1306  -14.8395 N   0  0  0  0  0  0  0  0  0  0  0  0
   -6.2533    4.4945  -13.5074 C   0  0  1  0  0  0  0  0  0  0  0  0
   -4.9411    4.3835  -12.7637 C   0  0  0  0  0  0  0  0  0  0  0  0
   -7.3372    5.0164  -12.5372 C   0  0  0  0  0  0  0  0  0  0  0  0
   -7.7905    6.0955  -12.6064 O   0  0  0  0  0  0  0  0  0  0  0  0
   -7.5879    3.8722  -11.4865 N   0  0  0  0  0  0  0  0  0  0  0  0
   -8.5200    3.8029  -10.3702 C   0  0  1  0  0  0  0  0  0  0  0  0
   -8.5845    2.4780   -9.6070 C   0  0  0  0  0  0  0  0  0  0  0  0
   -9.0664    2.8008   -8.2943 O   0  0  0  0  0  0  0  0  0  0  0  0
   -8.4669    4.0540   -7.9584 C   0  0  0  0  0  0  0  0  0  0  0  0
   -8.3189    4.8357   -9.2597 C   0  0  1  0  0  0  0  0  0  0  0  0
   -7.0630    5.4992   -9.3252 O   0  0  0  0  0  0  0  0  0  0  0  0
  1  2  1  0
  2  3  1  0
  2  4  1  0
  4  5  1  0
  5  6  2  0
  6  7  1  0
  7  8  2  0
  8  9  1  0
  9 10  2  0
 10 11  1  0
 11 12  2  0
 12 13  1  0
 13 14  1  0
 14 15  1  1
 14 16  1  0
 16 17  2  0
 16 18  1  0
 19 18  1  6
 19 20  1  0
 20 21  1  0
 21 22  1  0
 22 23  1  0
 23 24  1  6
 13  5  1  0
 23 19  1  0
 12  7  1  0
M  END
>  <energy_score>  (2374) 
-7.9877

>  <alias>  (2374) 
None

>  <HIPPO Pose ID>  (2374) 
74524

>  <smiles>  (2374) 
CC(C)Cc1nc2ccccc2n1[C@@H](C)C(=O)N[C@H]1COC[C@H]1O

>  <inchikey>  (2374) 
PEGSBXZCBLKPSJ-DUVNUKRYSA-N

>  <distance_score>  (2374) 
1.493582

>  <ref_mols>  (2374) 
Z0101a,Z3880a

>  <ref_pdb>  (2374) 
Z3880a

>  <HIPPO Compound ID>  (2374) 
147571

>  <name>  (2374) 
P74524

>  <inspiration_score>  (2374) 
None

$$$$
P74526
     RDKit          3D

 24 26  0  0  0  0  0  0  0  0999 V2000
   -4.2958    7.9969  -14.3468 C   0  0  0  0  0  0  0  0  0  0  0  0
   -3.4949    6.6917  -14.3075 C   0  0  0  0  0  0  0  0  0  0  0  0
   -2.2857    6.8555  -13.3835 C   0  0  0  0  0  0  0  0  0  0  0  0
   -4.3595    5.5067  -13.8337 C   0  0  0  0  0  0  0  0  0  0  0  0
   -5.4332    5.1400  -14.8124 C   0  0  0  0  0  0  0  0  0  0  0  0
   -5.2858    5.1888  -16.1302 N   0  0  0  0  0  0  0  0  0  0  0  0
   -6.4815    4.7979  -16.6674 C   0  0  0  0  0  0  0  0  0  0  0  0
   -6.8692    4.6434  -18.0048 C   0  0  0  0  0  0  0  0  0  0  0  0
   -8.1818    4.2451  -18.2781 C   0  0  0  0  0  0  0  0  0  0  0  0
   -9.1062    4.0656  -17.2600 C   0  0  0  0  0  0  0  0  0  0  0  0
   -8.7318    4.2124  -15.9300 C   0  0  0  0  0  0  0  0  0  0  0  0
   -7.4012    4.5443  -15.6604 C   0  0  0  0  0  0  0  0  0  0  0  0
   -6.6989    4.6971  -14.4741 N   0  0  0  0  0  0  0  0  0  0  0  0
   -7.3800    4.6398  -13.1676 C   0  0  2  0  0  0  0  0  0  0  0  0
   -7.7344    6.0534  -12.7298 C   0  0  0  0  0  0  0  0  0  0  0  0
   -6.7326    3.8322  -12.0161 C   0  0  0  0  0  0  0  0  0  0  0  0
   -5.5946    3.5615  -11.9639 O   0  0  0  0  0  0  0  0  0  0  0  0
   -7.8897    3.5657  -10.9863 N   0  0  0  0  0  0  0  0  0  0  0  0
   -7.8491    2.9952   -9.6423 C   0  0  2  0  0  0  0  0  0  0  0  0
   -9.1867    2.3762   -9.2433 C   0  0  0  0  0  0  0  0  0  0  0  0
   -9.1875    2.3830   -7.7274 C   0  0  0  0  0  0  0  0  0  0  0  0
   -8.5268    3.7045   -7.3646 C   0  0  0  0  0  0  0  0  0  0  0  0
   -7.6222    4.0648   -8.5478 C   0  0  2  0  0  0  0  0  0  0  0  0
   -7.9874    5.3705   -9.0129 O   0  0  0  0  0  0  0  0  0  0  0  0
  1  2  1  0
  2  3  1  0
  2  4  1  0
  4  5  1  0
  5  6  2  0
  6  7  1  0
  7  8  2  0
  8  9  1  0
  9 10  2  0
 10 11  1  0
 11 12  2  0
 12 13  1  0
 13 14  1  0
 14 15  1  1
 14 16  1  0
 16 17  2  0
 16 18  1  0
 19 18  1  6
 19 20  1  0
 20 21  1  0
 21 22  1  0
 22 23  1  0
 23 24  1  6
 13  5  1  0
 23 19  1  0
 12  7  1  0
M  END
>  <energy_score>  (2375) 
-16.857419

>  <alias>  (2375) 
None

>  <HIPPO Pose ID>  (2375) 
74526

>  <smiles>  (2375) 
CC(C)Cc1nc2ccccc2n1[C@H](C)C(=O)N[C@@H]1CCC[C@@H]1O

>  <inchikey>  (2375) 
DETJZEYYGQHVEC-UNEWFSDZSA-N

>  <distance_score>  (2375) 
1.397444

>  <ref_mols>  (2375) 
Z0101a,Z3880a

>  <ref_pdb>  (2375) 
Z3880a

>  <HIPPO Compound ID>  (2375) 
147573

>  <name>  (2375) 
P74526

>  <inspiration_score>  (2375) 
None

$$$$
P74529
     RDKit          3D

 24 26  0  0  0  0  0  0  0  0999 V2000
   -3.6520    5.0657  -15.0084 C   0  0  0  0  0  0  0  0  0  0  0  0
   -5.0221    5.0653  -15.5938 C   0  0  0  0  0  0  0  0  0  0  0  0
   -5.2326    5.2209  -16.8831 N   0  0  0  0  0  0  0  0  0  0  0  0
   -6.5373    4.8845  -17.0734 C   0  0  0  0  0  0  0  0  0  0  0  0
   -7.2233    4.7488  -18.2854 C   0  0  0  0  0  0  0  0  0  0  0  0
   -8.5579    4.3557  -18.2586 C   0  0  0  0  0  0  0  0  0  0  0  0
   -9.1977    4.1107  -17.0581 C   0  0  0  0  0  0  0  0  0  0  0  0
   -8.5171    4.2118  -15.8471 C   0  0  0  0  0  0  0  0  0  0  0  0
   -7.1821    4.6243  -15.8608 C   0  0  0  0  0  0  0  0  0  0  0  0
   -6.2225    4.8389  -14.8910 N   0  0  0  0  0  0  0  0  0  0  0  0
   -6.3215    4.7455  -13.3981 C   0  0  2  0  0  0  0  0  0  0  0  0
   -7.7198    4.5698  -12.7071 C   0  0  0  0  0  0  0  0  0  0  0  0
   -8.6915    5.0648  -13.1347 O   0  0  0  0  0  0  0  0  0  0  0  0
   -7.4931    3.7538  -11.3885 N   0  0  0  0  0  0  0  0  0  0  0  0
   -8.4027    3.4678  -10.2847 C   0  0  1  0  0  0  0  0  0  0  0  0
   -7.9151    2.4497   -9.2779 C   0  0  0  0  0  0  0  0  0  0  0  0
   -8.6494    2.8383   -8.0039 C   0  0  2  0  0  0  0  0  0  0  0  0
  -10.0044    2.1878   -7.8660 C   0  0  0  0  0  0  0  0  0  0  0  0
   -8.7909    4.2581   -8.0736 O   0  0  0  0  0  0  0  0  0  0  0  0
   -8.5381    4.6700   -9.3530 C   0  0  0  0  0  0  0  0  0  0  0  0
   -8.4262    5.8483   -9.6556 O   0  0  0  0  0  0  0  0  0  0  0  0
   -5.7161    6.0298  -12.7595 C   0  0  0  0  0  0  0  0  0  0  0  0
   -6.6630    7.2263  -12.7872 C   0  0  0  0  0  0  0  0  0  0  0  0
   -5.1590    5.8146  -11.3484 C   0  0  0  0  0  0  0  0  0  0  0  0
  1  2  1  0
  2  3  2  0
  3  4  1  0
  4  5  2  0
  5  6  1  0
  6  7  2  0
  7  8  1  0
  8  9  2  0
  9 10  1  0
 10 11  1  0
 11 12  1  0
 12 13  2  0
 12 14  1  0
 15 14  1  6
 15 16  1  0
 16 17  1  0
 17 18  1  6
 17 19  1  0
 19 20  1  0
 20 21  2  0
 11 22  1  1
 22 23  1  0
 22 24  1  0
 10  2  1  0
 20 15  1  0
  9  4  1  0
M  END
>  <energy_score>  (2376) 
-11.506026

>  <alias>  (2376) 
None

>  <HIPPO Pose ID>  (2376) 
74529

>  <smiles>  (2376) 
Cc1nc2ccccc2n1[C@H](C(=O)N[C@H]1C[C@H](C)OC1=O)C(C)C

>  <inchikey>  (2376) 
NVTZQFOOCVUTIE-PJODQICGSA-N

>  <distance_score>  (2376) 
1.430847

>  <ref_mols>  (2376) 
Z0101a,Z3880a

>  <ref_pdb>  (2376) 
Z3880a

>  <HIPPO Compound ID>  (2376) 
147581

>  <name>  (2376) 
P74529

>  <inspiration_score>  (2376) 
None

$$$$
P74531
     RDKit          3D

 25 27  0  0  0  0  0  0  0  0999 V2000
   -5.6435    6.7081  -11.4438 C   0  0  0  0  0  0  0  0  0  0  0  0
   -5.7377    6.5080  -12.9425 C   0  0  0  0  0  0  0  0  0  0  0  0
   -6.4560    7.7125  -13.5672 C   0  0  0  0  0  0  0  0  0  0  0  0
   -6.3232    5.1242  -13.3214 C   0  0  1  0  0  0  0  0  0  0  0  0
   -7.7041    4.9846  -12.5919 C   0  0  0  0  0  0  0  0  0  0  0  0
   -8.6480    5.6211  -12.9125 O   0  0  0  0  0  0  0  0  0  0  0  0
   -7.5141    4.0022  -11.4099 N   0  0  0  0  0  0  0  0  0  0  0  0
   -7.8767    2.6187  -11.8001 C   0  0  0  0  0  0  0  0  0  0  0  0
   -8.4841    3.6318  -10.2121 C   0  0  1  0  0  0  0  0  0  0  0  0
   -8.3233    2.4180   -9.2525 C   0  0  0  0  0  0  0  0  0  0  0  0
   -8.9872    2.7700   -8.0337 O   0  0  0  0  0  0  0  0  0  0  0  0
   -8.6959    4.1449   -7.8020 C   0  0  0  0  0  0  0  0  0  0  0  0
   -8.3197    4.7567   -9.1475 C   0  0  1  0  0  0  0  0  0  0  0  0
   -6.9572    5.1837   -9.0640 O   0  0  0  0  0  0  0  0  0  0  0  0
   -6.2268    4.9750  -14.7979 N   0  0  0  0  0  0  0  0  0  0  0  0
   -5.0365    5.1636  -15.4892 C   0  0  0  0  0  0  0  0  0  0  0  0
   -5.1868    5.1422  -16.7898 N   0  0  0  0  0  0  0  0  0  0  0  0
   -6.4986    4.8166  -16.9732 C   0  0  0  0  0  0  0  0  0  0  0  0
   -7.1624    4.5772  -18.1792 C   0  0  0  0  0  0  0  0  0  0  0  0
   -8.4951    4.2204  -18.1004 C   0  0  0  0  0  0  0  0  0  0  0  0
   -9.1748    3.9213  -19.2028 F   0  0  0  0  0  0  0  0  0  0  0  0
   -9.1576    4.1446  -16.8964 C   0  0  0  0  0  0  0  0  0  0  0  0
  -10.4568    3.8604  -16.9204 F   0  0  0  0  0  0  0  0  0  0  0  0
   -8.5245    4.3687  -15.6850 C   0  0  0  0  0  0  0  0  0  0  0  0
   -7.1759    4.7048  -15.7468 C   0  0  0  0  0  0  0  0  0  0  0  0
  1  2  1  0
  2  3  1  0
  4  2  1  6
  4  5  1  0
  5  6  2  0
  5  7  1  0
  7  8  1  0
  9  7  1  6
  9 10  1  0
 10 11  1  0
 11 12  1  0
 12 13  1  0
 13 14  1  1
  4 15  1  0
 15 16  1  0
 16 17  2  0
 17 18  1  0
 18 19  2  0
 19 20  1  0
 20 21  1  0
 20 22  2  0
 22 23  1  0
 22 24  1  0
 24 25  2  0
 13  9  1  0
 25 15  1  0
 25 18  1  0
M  END
>  <energy_score>  (2377) 
-30.316377

>  <alias>  (2377) 
None

>  <HIPPO Pose ID>  (2377) 
74531

>  <smiles>  (2377) 
CC(C)[C@@H](C(=O)N(C)[C@H]1COC[C@H]1O)n1cnc2cc(F)c(F)cc21

>  <inchikey>  (2377) 
OZOYTYNUKUHREQ-XHSDSOJGSA-N

>  <distance_score>  (2377) 
1.45283

>  <ref_mols>  (2377) 
Z0101a,Z3880a

>  <ref_pdb>  (2377) 
Z3880a

>  <HIPPO Compound ID>  (2377) 
147588

>  <name>  (2377) 
P74531

>  <inspiration_score>  (2377) 
None

$$$$
P74536
     RDKit          3D

 25 27  0  0  0  0  0  0  0  0999 V2000
   -5.7273    7.0124  -12.5606 C   0  0  0  0  0  0  0  0  0  0  0  0
   -5.2005    5.5789  -12.6192 C   0  0  0  0  0  0  0  0  0  0  0  0
   -4.8114    5.1014  -11.2162 C   0  0  0  0  0  0  0  0  0  0  0  0
   -6.1572    4.6331  -13.3835 C   0  0  1  0  0  0  0  0  0  0  0  0
   -7.5573    4.7442  -12.6928 C   0  0  0  0  0  0  0  0  0  0  0  0
   -8.3575    5.5179  -13.0608 O   0  0  0  0  0  0  0  0  0  0  0  0
   -7.5790    3.7680  -11.4673 N   0  0  0  0  0  0  0  0  0  0  0  0
   -8.5496    3.6204  -10.3984 C   0  0  1  0  0  0  0  0  0  0  0  0
   -8.7014    2.2558   -9.7701 C   0  0  0  0  0  0  0  0  0  0  0  0
   -9.4391    2.6187   -8.4980 C   0  0  1  0  0  0  0  0  0  0  0  0
   -9.4740    1.5677   -7.4163 C   0  0  0  0  0  0  0  0  0  0  0  0
   -8.8163    3.8234   -8.0487 O   0  0  0  0  0  0  0  0  0  0  0  0
   -8.3123    4.4669   -9.1516 C   0  0  0  0  0  0  0  0  0  0  0  0
   -7.7865    5.5684   -9.1147 O   0  0  0  0  0  0  0  0  0  0  0  0
   -6.1165    4.9022  -14.8547 N   0  0  0  0  0  0  0  0  0  0  0  0
   -4.9889    5.2622  -15.5761 C   0  0  0  0  0  0  0  0  0  0  0  0
   -5.1892    5.3048  -16.8716 N   0  0  0  0  0  0  0  0  0  0  0  0
   -6.4799    4.9002  -17.0335 C   0  0  0  0  0  0  0  0  0  0  0  0
   -7.1791    4.6904  -18.2264 C   0  0  0  0  0  0  0  0  0  0  0  0
   -8.4955    4.2772  -18.1198 C   0  0  0  0  0  0  0  0  0  0  0  0
   -9.2172    4.0240  -19.2067 F   0  0  0  0  0  0  0  0  0  0  0  0
   -9.1047    4.1073  -16.8998 C   0  0  0  0  0  0  0  0  0  0  0  0
  -10.4003    3.8101  -16.8843 F   0  0  0  0  0  0  0  0  0  0  0  0
   -8.4227    4.2557  -15.7073 C   0  0  0  0  0  0  0  0  0  0  0  0
   -7.0945    4.6648  -15.7953 C   0  0  0  0  0  0  0  0  0  0  0  0
  1  2  1  0
  2  3  1  0
  4  2  1  1
  4  5  1  0
  5  6  2  0
  5  7  1  0
  8  7  1  6
  8  9  1  0
  9 10  1  0
 10 11  1  1
 10 12  1  0
 12 13  1  0
 13 14  2  0
  4 15  1  0
 15 16  1  0
 16 17  2  0
 17 18  1  0
 18 19  2  0
 19 20  1  0
 20 21  1  0
 20 22  2  0
 22 23  1  0
 22 24  1  0
 24 25  2  0
 13  8  1  0
 25 15  1  0
 25 18  1  0
M  END
>  <energy_score>  (2378) 
-12.217981

>  <alias>  (2378) 
None

>  <HIPPO Pose ID>  (2378) 
74536

>  <smiles>  (2378) 
CC(C)[C@@H](C(=O)N[C@H]1C[C@@H](C)OC1=O)n1cnc2cc(F)c(F)cc21

>  <inchikey>  (2378) 
JWJXRQCNSAFKRN-DVJZZOLTSA-N

>  <distance_score>  (2378) 
1.411466

>  <ref_mols>  (2378) 
Z0101a,Z3880a

>  <ref_pdb>  (2378) 
Z3880a

>  <HIPPO Compound ID>  (2378) 
147591

>  <name>  (2378) 
P74536

>  <inspiration_score>  (2378) 
None

$$$$
P74541
     RDKit          3D

 25 27  0  0  0  0  0  0  0  0999 V2000
   -2.0975    6.0253  -17.0137 C   0  0  0  0  0  0  0  0  0  0  0  0
   -2.5064    5.7704  -15.5593 C   0  0  0  0  0  0  0  0  0  0  0  0
   -1.3459    6.1491  -14.6346 C   0  0  0  0  0  0  0  0  0  0  0  0
   -3.7731    6.5579  -15.1615 C   0  0  0  0  0  0  0  0  0  0  0  0
   -5.0310    5.9373  -15.6985 C   0  0  0  0  0  0  0  0  0  0  0  0
   -5.2868    5.8221  -16.9856 N   0  0  0  0  0  0  0  0  0  0  0  0
   -6.4969    5.1998  -17.0711 C   0  0  0  0  0  0  0  0  0  0  0  0
   -7.2110    4.8438  -18.2205 C   0  0  0  0  0  0  0  0  0  0  0  0
   -8.4778    4.2858  -18.0729 C   0  0  0  0  0  0  0  0  0  0  0  0
   -9.0036    4.0622  -16.8076 C   0  0  0  0  0  0  0  0  0  0  0  0
   -8.2748    4.3382  -15.6491 C   0  0  0  0  0  0  0  0  0  0  0  0
   -7.0240    4.9407  -15.8061 C   0  0  0  0  0  0  0  0  0  0  0  0
   -6.0751    5.4136  -14.9241 N   0  0  0  0  0  0  0  0  0  0  0  0
   -6.0522    5.2683  -13.4413 C   0  0  2  0  0  0  0  0  0  0  0  0
   -5.1289    4.1187  -13.0955 C   0  0  0  0  0  0  0  0  0  0  0  0
   -7.4452    5.2855  -12.7060 C   0  0  0  0  0  0  0  0  0  0  0  0
   -8.2864    6.0124  -13.0843 O   0  0  0  0  0  0  0  0  0  0  0  0
   -7.4121    4.3304  -11.4590 N   0  0  0  0  0  0  0  0  0  0  0  0
   -8.4417    4.0132  -10.4903 C   0  0  1  0  0  0  0  0  0  0  0  0
   -8.5739    2.5571  -10.0993 C   0  0  0  0  0  0  0  0  0  0  0  0
   -9.3169    2.6851   -8.7841 C   0  0  1  0  0  0  0  0  0  0  0  0
   -9.2640    1.4623   -7.9067 C   0  0  0  0  0  0  0  0  0  0  0  0
   -8.7324    3.8218   -8.1442 O   0  0  0  0  0  0  0  0  0  0  0  0
   -8.2431    4.6485   -9.1218 C   0  0  0  0  0  0  0  0  0  0  0  0
   -7.7428    5.7407   -8.9034 O   0  0  0  0  0  0  0  0  0  0  0  0
  1  2  1  0
  2  3  1  0
  2  4  1  0
  4  5  1  0
  5  6  2  0
  6  7  1  0
  7  8  2  0
  8  9  1  0
  9 10  2  0
 10 11  1  0
 11 12  2  0
 12 13  1  0
 13 14  1  0
 14 15  1  6
 14 16  1  0
 16 17  2  0
 16 18  1  0
 19 18  1  6
 19 20  1  0
 20 21  1  0
 21 22  1  1
 21 23  1  0
 23 24  1  0
 24 25  2  0
 13  5  1  0
 24 19  1  0
 12  7  1  0
M  END
>  <energy_score>  (2379) 
-13.059428

>  <alias>  (2379) 
None

>  <HIPPO Pose ID>  (2379) 
74541

>  <smiles>  (2379) 
CC(C)Cc1nc2ccccc2n1[C@H](C)C(=O)N[C@H]1C[C@@H](C)OC1=O

>  <inchikey>  (2379) 
QANTXRJTHQTLDL-NFAWXSAZSA-N

>  <distance_score>  (2379) 
1.574137

>  <ref_mols>  (2379) 
Z0101a,Z3880a

>  <ref_pdb>  (2379) 
Z3880a

>  <HIPPO Compound ID>  (2379) 
147610

>  <name>  (2379) 
P74541

>  <inspiration_score>  (2379) 
None

$$$$
P74549
     RDKit          3D

 25 28  0  0  0  0  0  0  0  0999 V2000
   -6.7441   10.0993  -18.3190 O   0  0  0  0  0  0  0  0  0  0  0  0
   -5.9498   10.2378  -17.3971 C   0  0  0  0  0  0  0  0  0  0  0  0
   -6.0267   11.2256  -16.4548 O   0  0  0  0  0  0  0  0  0  0  0  0
   -5.0111   11.0058  -15.4703 C   0  0  0  0  0  0  0  0  0  0  0  0
   -4.6341    9.5490  -15.5934 C   0  0  0  0  0  0  0  0  0  0  0  0
   -4.7764    9.3277  -17.0776 C   0  0  1  0  0  0  0  0  0  0  0  0
   -5.0454    7.9633  -17.4451 N   0  0  0  0  0  0  0  0  0  0  0  0
   -4.1773    6.6810  -17.2773 C   0  0  0  0  0  0  0  0  0  0  0  0
   -3.1459    6.5281  -16.7455 O   0  0  0  0  0  0  0  0  0  0  0  0
   -4.8802    5.5230  -18.0564 C   0  0  1  0  0  0  0  0  0  0  0  0
   -6.2099    5.0789  -17.4315 C   0  0  0  0  0  0  0  0  0  0  0  0
   -7.2037    4.4086  -18.1692 C   0  0  0  0  0  0  0  0  0  0  0  0
   -8.4131    4.0275  -17.5834 C   0  0  0  0  0  0  0  0  0  0  0  0
   -8.6283    4.2426  -16.2288 C   0  0  0  0  0  0  0  0  0  0  0  0
   -7.6340    4.8313  -15.4573 C   0  0  0  0  0  0  0  0  0  0  0  0
   -6.4372    5.2421  -16.0510 C   0  0  0  0  0  0  0  0  0  0  0  0
   -4.9180    5.9227  -19.4733 N   0  0  0  0  0  0  0  0  0  0  0  0
   -5.9839    6.4716  -20.1228 C   0  0  0  0  0  0  0  0  0  0  0  0
   -5.6639    6.9720  -21.2916 N   0  0  0  0  0  0  0  0  0  0  0  0
   -4.3386    6.6930  -21.4434 C   0  0  0  0  0  0  0  0  0  0  0  0
   -3.5006    6.9701  -22.5314 C   0  0  0  0  0  0  0  0  0  0  0  0
   -2.1298    6.7388  -22.3930 C   0  0  0  0  0  0  0  0  0  0  0  0
   -1.6153    6.2266  -21.2016 C   0  0  0  0  0  0  0  0  0  0  0  0
   -2.4513    5.8689  -20.1351 C   0  0  0  0  0  0  0  0  0  0  0  0
   -3.8191    6.1003  -20.2934 C   0  0  0  0  0  0  0  0  0  0  0  0
  1  2  2  0
  2  3  1  0
  3  4  1  0
  4  5  1  0
  5  6  1  0
  6  7  1  1
  7  8  1  0
  8  9  2  0
  8 10  1  0
 10 11  1  0
 11 12  2  0
 12 13  1  0
 13 14  2  0
 14 15  1  0
 15 16  2  0
 10 17  1  6
 17 18  1  0
 18 19  2  0
 19 20  1  0
 20 21  2  0
 21 22  1  0
 22 23  2  0
 23 24  1  0
 24 25  2  0
  6  2  1  0
 16 11  1  0
 25 17  1  0
 25 20  1  0
M  END
>  <energy_score>  (2380) 
-3.924494

>  <alias>  (2380) 
None

>  <HIPPO Pose ID>  (2380) 
74549

>  <smiles>  (2380) 
O=C1OCC[C@H]1NC(=O)[C@@H](c1ccccc1)n1cnc2ccccc21

>  <inchikey>  (2380) 
MUUVFNSRISBMJB-NVXWUHKLSA-N

>  <distance_score>  (2380) 
1.270483

>  <ref_mols>  (2380) 
Z0101a,Z3880a

>  <ref_pdb>  (2380) 
Z3880a

>  <HIPPO Compound ID>  (2380) 
147613

>  <name>  (2380) 
P74549

>  <inspiration_score>  (2380) 
None

$$$$
P74570
     RDKit          3D

 25 28  0  0  0  0  0  0  0  0999 V2000
   -2.8665    5.3937  -16.8224 O   0  0  0  0  0  0  0  0  0  0  0  0
   -3.8475    5.9263  -17.1760 C   0  0  0  0  0  0  0  0  0  0  0  0
   -4.3632    7.3713  -16.9087 N   0  0  0  0  0  0  0  0  0  0  0  0
   -3.8240    8.4193  -16.0763 C   0  0  2  0  0  0  0  0  0  0  0  0
   -3.9406    8.0699  -14.5807 C   0  0  0  0  0  0  0  0  0  0  0  0
   -3.2380    9.0037  -13.7650 O   0  0  0  0  0  0  0  0  0  0  0  0
   -4.5449    9.6989  -16.4127 C   0  0  0  0  0  0  0  0  0  0  0  0
   -3.7800   10.9875  -16.5864 C   0  0  0  0  0  0  0  0  0  0  0  0
   -4.3973   10.3195  -17.7824 C   0  0  0  0  0  0  0  0  0  0  0  0
   -4.8670    5.2158  -18.1051 C   0  0  1  0  0  0  0  0  0  0  0  0
   -6.2182    4.9008  -17.4472 C   0  0  0  0  0  0  0  0  0  0  0  0
   -7.2711    4.3448  -18.2012 C   0  0  0  0  0  0  0  0  0  0  0  0
   -8.5028    4.0430  -17.6191 C   0  0  0  0  0  0  0  0  0  0  0  0
   -8.6938    4.2376  -16.2579 C   0  0  0  0  0  0  0  0  0  0  0  0
   -7.6561    4.7317  -15.4775 C   0  0  0  0  0  0  0  0  0  0  0  0
   -6.4303    5.0566  -16.0647 C   0  0  0  0  0  0  0  0  0  0  0  0
   -4.9319    5.9334  -19.3873 N   0  0  0  0  0  0  0  0  0  0  0  0
   -6.0028    6.6163  -19.8782 C   0  0  0  0  0  0  0  0  0  0  0  0
   -5.7426    7.1981  -21.0248 N   0  0  0  0  0  0  0  0  0  0  0  0
   -4.4645    6.8328  -21.3279 C   0  0  0  0  0  0  0  0  0  0  0  0
   -3.7113    7.1316  -22.4709 C   0  0  0  0  0  0  0  0  0  0  0  0
   -2.3564    6.7959  -22.4839 C   0  0  0  0  0  0  0  0  0  0  0  0
   -1.7766    6.1578  -21.3880 C   0  0  0  0  0  0  0  0  0  0  0  0
   -2.5367    5.7766  -20.2727 C   0  0  0  0  0  0  0  0  0  0  0  0
   -3.8909    6.1197  -20.2773 C   0  0  0  0  0  0  0  0  0  0  0  0
  1  2  2  0
  2  3  1  0
  3  4  1  0
  4  5  1  1
  5  6  1  0
  4  7  1  0
  7  8  1  0
  8  9  1  0
  2 10  1  0
 10 11  1  0
 11 12  2  0
 12 13  1  0
 13 14  2  0
 14 15  1  0
 15 16  2  0
 10 17  1  6
 17 18  1  0
 18 19  2  0
 19 20  1  0
 20 21  2  0
 21 22  1  0
 22 23  2  0
 23 24  1  0
 24 25  2  0
  9  7  1  0
 16 11  1  0
 25 17  1  0
 25 20  1  0
M  END
>  <energy_score>  (2381) 
-8.119774

>  <alias>  (2381) 
None

>  <HIPPO Pose ID>  (2381) 
74570

>  <smiles>  (2381) 
O=C(N[C@H](CO)C1CC1)[C@@H](c1ccccc1)n1cnc2ccccc21

>  <inchikey>  (2381) 
NLMIWGKHIALCMA-IEBWSBKVSA-N

>  <distance_score>  (2381) 
1.240748

>  <ref_mols>  (2381) 
Z0101a,Z3880a

>  <ref_pdb>  (2381) 
Z3880a

>  <HIPPO Compound ID>  (2381) 
147621

>  <name>  (2381) 
P74570

>  <inspiration_score>  (2381) 
None

$$$$
P74586
     RDKit          3D

 25 27  0  0  0  0  0  0  0  0999 V2000
   -9.7343    2.8268   -6.9569 C   0  0  0  0  0  0  0  0  0  0  0  0
   -8.5748    2.5973   -7.7141 O   0  0  0  0  0  0  0  0  0  0  0  0
   -8.6872    2.7933   -9.1215 C   0  0  0  0  0  0  0  0  0  0  0  0
   -7.8841    4.0320   -9.5562 C   0  0  0  0  0  0  0  0  0  0  0  0
   -7.9059    4.2163  -11.0311 N   0  0  0  0  0  0  0  0  0  0  0  0
   -6.7220    4.4474  -12.0524 C   0  0  0  0  0  0  0  0  0  0  0  0
   -5.5624    4.4465  -11.8817 O   0  0  0  0  0  0  0  0  0  0  0  0
   -7.4030    4.7985  -13.3792 C   0  0  1  0  0  0  0  0  0  0  0  0
   -8.0440    6.1813  -13.2484 C   0  0  0  0  0  0  0  0  0  0  0  0
   -6.6737    4.7739  -14.6625 N   0  0  0  0  0  0  0  0  0  0  0  0
   -5.4324    5.2601  -15.0378 C   0  0  0  0  0  0  0  0  0  0  0  0
   -4.3800    5.7515  -14.0892 C   0  0  0  0  0  0  0  0  0  0  0  0
   -3.2518    6.5538  -14.7712 C   0  0  0  0  0  0  0  0  0  0  0  0
   -2.2549    5.6376  -15.4895 C   0  0  0  0  0  0  0  0  0  0  0  0
   -2.5044    7.3904  -13.7282 C   0  0  0  0  0  0  0  0  0  0  0  0
   -5.3062    5.2570  -16.3589 N   0  0  0  0  0  0  0  0  0  0  0  0
   -6.4868    4.7916  -16.8632 C   0  0  0  0  0  0  0  0  0  0  0  0
   -6.8902    4.5832  -18.1867 C   0  0  0  0  0  0  0  0  0  0  0  0
   -8.1936    4.1331  -18.4216 C   0  0  0  0  0  0  0  0  0  0  0  0
   -9.0951    3.9529  -17.3842 C   0  0  0  0  0  0  0  0  0  0  0  0
   -8.7005    4.1403  -16.0676 C   0  0  0  0  0  0  0  0  0  0  0  0
   -7.3776    4.5300  -15.8359 C   0  0  0  0  0  0  0  0  0  0  0  0
   -6.5038    4.2649   -8.8807 C   0  0  0  0  0  0  0  0  0  0  0  0
   -6.8079    5.7743   -8.8830 C   0  0  0  0  0  0  0  0  0  0  0  0
   -8.2974    5.4024   -8.9107 C   0  0  0  0  0  0  0  0  0  0  0  0
  1  2  1  0
  2  3  1  0
  3  4  1  0
  4  5  1  0
  5  6  1  0
  6  7  2  0
  6  8  1  0
  8  9  1  1
  8 10  1  0
 10 11  1  0
 11 12  1  0
 12 13  1  0
 13 14  1  0
 13 15  1  0
 11 16  2  0
 16 17  1  0
 17 18  2  0
 18 19  1  0
 19 20  2  0
 20 21  1  0
 21 22  2  0
  4 23  1  0
 23 24  1  0
 24 25  1  0
 25  4  1  0
 22 10  1  0
 22 17  1  0
M  END
>  <energy_score>  (2382) 
-19.986

>  <alias>  (2382) 
None

>  <HIPPO Pose ID>  (2382) 
74586

>  <smiles>  (2382) 
COCC1(NC(=O)[C@@H](C)n2c(CC(C)C)nc3ccccc32)CCC1

>  <inchikey>  (2382) 
DTLHROBIAMUQCE-OAHLLOKOSA-N

>  <distance_score>  (2382) 
1.657626

>  <ref_mols>  (2382) 
Z0101a,Z3880a

>  <ref_pdb>  (2382) 
Z3880a

>  <HIPPO Compound ID>  (2382) 
147630

>  <name>  (2382) 
P74586

>  <inspiration_score>  (2382) 
None

$$$$
P74598
     RDKit          3D

 25 28  0  0  0  0  0  0  0  0999 V2000
   -1.5708    8.7700  -17.3795 C   0  0  0  0  0  0  0  0  0  0  0  0
   -1.8994    8.3695  -15.9475 C   0  0  0  0  0  0  0  0  0  0  0  0
   -1.8693    6.8581  -15.7520 C   0  0  0  0  0  0  0  0  0  0  0  0
   -2.9110    6.1458  -16.5266 N   0  0  0  0  0  0  0  0  0  0  0  0
   -4.3079    6.6349  -17.0417 C   0  0  0  0  0  0  0  0  0  0  0  0
   -4.8713    7.6481  -16.8621 O   0  0  0  0  0  0  0  0  0  0  0  0
   -4.9177    5.4844  -17.9067 C   0  0  1  0  0  0  0  0  0  0  0  0
   -6.2751    5.0091  -17.3686 C   0  0  0  0  0  0  0  0  0  0  0  0
   -7.2445    4.4113  -18.1942 C   0  0  0  0  0  0  0  0  0  0  0  0
   -8.4825    4.0165  -17.6849 C   0  0  0  0  0  0  0  0  0  0  0  0
   -8.7546    4.1529  -16.3300 C   0  0  0  0  0  0  0  0  0  0  0  0
   -7.7878    4.6691  -15.4778 C   0  0  0  0  0  0  0  0  0  0  0  0
   -6.5599    5.0895  -15.9911 C   0  0  0  0  0  0  0  0  0  0  0  0
   -4.9269    5.9704  -19.2928 N   0  0  0  0  0  0  0  0  0  0  0  0
   -5.9393    6.6780  -19.8721 C   0  0  0  0  0  0  0  0  0  0  0  0
   -5.6134    7.1484  -21.0531 N   0  0  0  0  0  0  0  0  0  0  0  0
   -4.3350    6.7153  -21.2651 C   0  0  0  0  0  0  0  0  0  0  0  0
   -3.5050    6.9284  -22.3761 C   0  0  0  0  0  0  0  0  0  0  0  0
   -2.1735    6.5064  -22.3112 C   0  0  0  0  0  0  0  0  0  0  0  0
   -1.6918    5.8585  -21.1740 C   0  0  0  0  0  0  0  0  0  0  0  0
   -2.5271    5.5806  -20.0832 C   0  0  0  0  0  0  0  0  0  0  0  0
   -3.8511    6.0192  -20.1570 C   0  0  0  0  0  0  0  0  0  0  0  0
   -1.7990    6.3618  -14.2864 C   0  0  0  0  0  0  0  0  0  0  0  0
   -0.7202    5.4445  -14.6296 O   0  0  0  0  0  0  0  0  0  0  0  0
   -0.4695    6.2039  -15.8420 C   0  0  0  0  0  0  0  0  0  0  0  0
  1  2  1  0
  2  3  1  0
  3  4  1  0
  4  5  1  0
  5  6  2  0
  5  7  1  0
  7  8  1  0
  8  9  2  0
  9 10  1  0
 10 11  2  0
 11 12  1  0
 12 13  2  0
  7 14  1  6
 14 15  1  0
 15 16  2  0
 16 17  1  0
 17 18  2  0
 18 19  1  0
 19 20  2  0
 20 21  1  0
 21 22  2  0
  3 23  1  0
 23 24  1  0
 24 25  1  0
 25  3  1  0
 13  8  1  0
 22 14  1  0
 22 17  1  0
M  END
>  <energy_score>  (2383) 
-24.401285

>  <alias>  (2383) 
None

>  <HIPPO Pose ID>  (2383) 
74598

>  <smiles>  (2383) 
CCC1(NC(=O)[C@@H](c2ccccc2)n2cnc3ccccc32)COC1

>  <inchikey>  (2383) 
VIAXJKGTHKNKNB-GOSISDBHSA-N

>  <distance_score>  (2383) 
1.306556

>  <ref_mols>  (2383) 
Z0101a,Z3880a

>  <ref_pdb>  (2383) 
Z3880a

>  <HIPPO Compound ID>  (2383) 
147636

>  <name>  (2383) 
P74598

>  <inspiration_score>  (2383) 
None

$$$$
P74609
     RDKit          3D

 25 28  0  0  0  0  0  0  0  0999 V2000
   -3.2519    7.0067  -13.9570 C   0  0  0  0  0  0  0  0  0  0  0  0
   -2.5150    7.8030  -15.0244 C   0  0  1  0  0  0  0  0  0  0  0  0
   -1.4103    7.0494  -15.5203 O   0  0  0  0  0  0  0  0  0  0  0  0
   -3.4207    8.2389  -16.1845 C   0  0  0  0  0  0  0  0  0  0  0  0
   -4.1541    7.2216  -16.8783 N   0  0  0  0  0  0  0  0  0  0  0  0
   -3.7680    5.7431  -17.2170 C   0  0  0  0  0  0  0  0  0  0  0  0
   -2.8250    5.1148  -16.9112 O   0  0  0  0  0  0  0  0  0  0  0  0
   -4.8690    5.1580  -18.1364 C   0  0  1  0  0  0  0  0  0  0  0  0
   -6.2176    4.8902  -17.4564 C   0  0  0  0  0  0  0  0  0  0  0  0
   -7.2801    4.3286  -18.1945 C   0  0  0  0  0  0  0  0  0  0  0  0
   -8.5098    4.0435  -17.6004 C   0  0  0  0  0  0  0  0  0  0  0  0
   -8.6917    4.2669  -16.2426 C   0  0  0  0  0  0  0  0  0  0  0  0
   -7.6504    4.7827  -15.4808 C   0  0  0  0  0  0  0  0  0  0  0  0
   -6.4263    5.0919  -16.0810 C   0  0  0  0  0  0  0  0  0  0  0  0
   -4.9313    5.9291  -19.3876 N   0  0  0  0  0  0  0  0  0  0  0  0
   -6.0029    6.6294  -19.8512 C   0  0  0  0  0  0  0  0  0  0  0  0
   -5.7460    7.2435  -20.9815 N   0  0  0  0  0  0  0  0  0  0  0  0
   -4.4778    6.8672  -21.3123 C   0  0  0  0  0  0  0  0  0  0  0  0
   -3.7385    7.1797  -22.4606 C   0  0  0  0  0  0  0  0  0  0  0  0
   -2.3892    6.8252  -22.5030 C   0  0  0  0  0  0  0  0  0  0  0  0
   -1.8018    6.1553  -21.4308 C   0  0  0  0  0  0  0  0  0  0  0  0
   -2.5495    5.7625  -20.3110 C   0  0  0  0  0  0  0  0  0  0  0  0
   -3.8987    6.1252  -20.2853 C   0  0  0  0  0  0  0  0  0  0  0  0
   -2.9236    9.4019  -17.0226 C   0  0  0  0  0  0  0  0  0  0  0  0
   -4.0628    9.6100  -16.0726 C   0  0  0  0  0  0  0  0  0  0  0  0
  2  1  1  1
  2  3  1  0
  2  4  1  0
  4  5  1  0
  5  6  1  0
  6  7  2  0
  6  8  1  0
  8  9  1  0
  9 10  2  0
 10 11  1  0
 11 12  2  0
 12 13  1  0
 13 14  2  0
  8 15  1  6
 15 16  1  0
 16 17  2  0
 17 18  1  0
 18 19  2  0
 19 20  1  0
 20 21  2  0
 21 22  1  0
 22 23  2  0
  4 24  1  0
 24 25  1  0
 25  4  1  0
 14  9  1  0
 23 15  1  0
 23 18  1  0
M  END
>  <energy_score>  (2384) 
-21.557447

>  <alias>  (2384) 
None

>  <HIPPO Pose ID>  (2384) 
74609

>  <smiles>  (2384) 
C[C@@H](O)C1(NC(=O)[C@@H](c2ccccc2)n2cnc3ccccc32)CC1

>  <inchikey>  (2384) 
QTFSKBSJGGFHAE-RDTXWAMCSA-N

>  <distance_score>  (2384) 
1.244352

>  <ref_mols>  (2384) 
Z0101a,Z3880a

>  <ref_pdb>  (2384) 
Z3880a

>  <HIPPO Compound ID>  (2384) 
147638

>  <name>  (2384) 
P74609

>  <inspiration_score>  (2384) 
None

$$$$
P74644
     RDKit          3D

 25 27  0  0  0  0  0  0  0  0999 V2000
   -4.8681    7.7194  -16.9653 O   0  0  0  0  0  0  0  0  0  0  0  0
   -4.3615    6.6646  -17.0107 C   0  0  0  0  0  0  0  0  0  0  0  0
   -3.0717    6.1326  -16.3126 N   0  0  0  0  0  0  0  0  0  0  0  0
   -2.1979    6.7639  -15.3420 C   0  0  2  0  0  0  0  0  0  0  0  0
   -0.8587    6.0198  -15.2394 C   0  0  0  0  0  0  0  0  0  0  0  0
   -0.2672    5.8763  -16.5304 O   0  0  0  0  0  0  0  0  0  0  0  0
   -2.8903    6.9599  -13.9913 C   0  0  0  0  0  0  0  0  0  0  0  0
   -3.2441    5.6739  -13.2650 C   0  0  0  0  0  0  0  0  0  0  0  0
   -3.8748    6.0035  -12.1051 F   0  0  0  0  0  0  0  0  0  0  0  0
   -4.9445    5.5030  -17.8817 C   0  0  1  0  0  0  0  0  0  0  0  0
   -6.3038    5.0196  -17.3561 C   0  0  0  0  0  0  0  0  0  0  0  0
   -7.2481    4.3894  -18.1860 C   0  0  0  0  0  0  0  0  0  0  0  0
   -8.4892    3.9870  -17.6909 C   0  0  0  0  0  0  0  0  0  0  0  0
   -8.7883    4.1479  -16.3444 C   0  0  0  0  0  0  0  0  0  0  0  0
   -7.8471    4.6994  -15.4863 C   0  0  0  0  0  0  0  0  0  0  0  0
   -6.6184    5.1307  -15.9872 C   0  0  0  0  0  0  0  0  0  0  0  0
   -4.9402    5.9750  -19.2728 N   0  0  0  0  0  0  0  0  0  0  0  0
   -5.9546    6.6524  -19.8825 C   0  0  0  0  0  0  0  0  0  0  0  0
   -5.6164    7.1083  -21.0659 N   0  0  0  0  0  0  0  0  0  0  0  0
   -4.3278    6.6915  -21.2490 C   0  0  0  0  0  0  0  0  0  0  0  0
   -3.4825    6.8934  -22.3506 C   0  0  0  0  0  0  0  0  0  0  0  0
   -2.1473    6.4880  -22.2555 C   0  0  0  0  0  0  0  0  0  0  0  0
   -1.6757    5.8717  -21.0961 C   0  0  0  0  0  0  0  0  0  0  0  0
   -2.5230    5.6107  -20.0108 C   0  0  0  0  0  0  0  0  0  0  0  0
   -3.8517    6.0256  -20.1196 C   0  0  0  0  0  0  0  0  0  0  0  0
  1  2  2  0
  2  3  1  0
  3  4  1  0
  4  5  1  1
  5  6  1  0
  4  7  1  0
  7  8  1  0
  8  9  1  0
  2 10  1  0
 10 11  1  0
 11 12  2  0
 12 13  1  0
 13 14  2  0
 14 15  1  0
 15 16  2  0
 10 17  1  6
 17 18  1  0
 18 19  2  0
 19 20  1  0
 20 21  2  0
 21 22  1  0
 22 23  2  0
 23 24  1  0
 24 25  2  0
 16 11  1  0
 25 17  1  0
 25 20  1  0
M  END
>  <energy_score>  (2385) 
-14.970102

>  <alias>  (2385) 
None

>  <HIPPO Pose ID>  (2385) 
74644

>  <smiles>  (2385) 
O=C(N[C@H](CO)CCF)[C@@H](c1ccccc1)n1cnc2ccccc21

>  <inchikey>  (2385) 
UOBMTSUWEVDRMT-MAUKXSAKSA-N

>  <distance_score>  (2385) 
1.314147

>  <ref_mols>  (2385) 
Z0101a,Z3880a

>  <ref_pdb>  (2385) 
Z3880a

>  <HIPPO Compound ID>  (2385) 
147645

>  <name>  (2385) 
P74644

>  <inspiration_score>  (2385) 
None

$$$$
P74652
     RDKit          3D

 25 28  0  0  0  0  0  0  0  0999 V2000
   -5.0705   10.2936  -18.5679 C   0  0  0  0  0  0  0  0  0  0  0  0
   -5.5529    9.8808  -17.2924 O   0  0  0  0  0  0  0  0  0  0  0  0
   -4.5466    9.7778  -16.2503 C   0  0  1  0  0  0  0  0  0  0  0  0
   -5.0703    9.3155  -14.8691 C   0  0  0  0  0  0  0  0  0  0  0  0
   -3.8394    8.4033  -14.7447 C   0  0  0  0  0  0  0  0  0  0  0  0
   -3.6609    8.4931  -16.2695 C   0  0  1  0  0  0  0  0  0  0  0  0
   -4.2643    7.4058  -17.0332 N   0  0  0  0  0  0  0  0  0  0  0  0
   -3.8068    5.9248  -17.2231 C   0  0  0  0  0  0  0  0  0  0  0  0
   -2.8367    5.3773  -16.8582 O   0  0  0  0  0  0  0  0  0  0  0  0
   -4.8507    5.2210  -18.1276 C   0  0  1  0  0  0  0  0  0  0  0  0
   -6.1959    4.9254  -17.4521 C   0  0  0  0  0  0  0  0  0  0  0  0
   -7.2529    4.3482  -18.1857 C   0  0  0  0  0  0  0  0  0  0  0  0
   -8.4774    4.0492  -17.5870 C   0  0  0  0  0  0  0  0  0  0  0  0
   -8.6571    4.2707  -16.2282 C   0  0  0  0  0  0  0  0  0  0  0  0
   -7.6177    4.7962  -15.4696 C   0  0  0  0  0  0  0  0  0  0  0  0
   -6.3995    5.1201  -16.0741 C   0  0  0  0  0  0  0  0  0  0  0  0
   -4.9260    5.9280  -19.4164 N   0  0  0  0  0  0  0  0  0  0  0  0
   -5.9988    6.6136  -19.9005 C   0  0  0  0  0  0  0  0  0  0  0  0
   -5.7409    7.2038  -21.0439 N   0  0  0  0  0  0  0  0  0  0  0  0
   -4.4651    6.8370  -21.3543 C   0  0  0  0  0  0  0  0  0  0  0  0
   -3.7163    7.1403  -22.4990 C   0  0  0  0  0  0  0  0  0  0  0  0
   -2.3618    6.8031  -22.5196 C   0  0  0  0  0  0  0  0  0  0  0  0
   -1.7778    6.1601  -21.4288 C   0  0  0  0  0  0  0  0  0  0  0  0
   -2.5335    5.7760  -20.3114 C   0  0  0  0  0  0  0  0  0  0  0  0
   -3.8880    6.1186  -20.3095 C   0  0  0  0  0  0  0  0  0  0  0  0
  1  2  1  0
  3  2  1  6
  3  4  1  0
  4  5  1  0
  5  6  1  0
  6  7  1  6
  7  8  1  0
  8  9  2  0
  8 10  1  0
 10 11  1  0
 11 12  2  0
 12 13  1  0
 13 14  2  0
 14 15  1  0
 15 16  2  0
 10 17  1  6
 17 18  1  0
 18 19  2  0
 19 20  1  0
 20 21  2  0
 21 22  1  0
 22 23  2  0
 23 24  1  0
 24 25  2  0
  6  3  1  0
 16 11  1  0
 25 17  1  0
 25 20  1  0
M  END
>  <energy_score>  (2386) 
-22.025884

>  <alias>  (2386) 
None

>  <HIPPO Pose ID>  (2386) 
74652

>  <smiles>  (2386) 
CO[C@H]1CC[C@H]1NC(=O)[C@@H](c1ccccc1)n1cnc2ccccc21

>  <inchikey>  (2386) 
GMNBFQPXBAANTH-NZSAHSFTSA-N

>  <distance_score>  (2386) 
1.242906

>  <ref_mols>  (2386) 
Z0101a,Z3880a

>  <ref_pdb>  (2386) 
Z3880a

>  <HIPPO Compound ID>  (2386) 
147647

>  <name>  (2386) 
P74652

>  <inspiration_score>  (2386) 
None

$$$$
P74658
     RDKit          3D

 25 28  0  0  0  0  0  0  0  0999 V2000
   -5.4867    8.4937  -14.5411 O   0  0  0  0  0  0  0  0  0  0  0  0
   -4.2942    8.2755  -14.7329 C   0  0  0  0  0  0  0  0  0  0  0  0
   -3.3146    7.8698  -13.6697 C   0  0  0  0  0  0  0  0  0  0  0  0
   -2.1739    7.4309  -14.4235 O   0  0  0  0  0  0  0  0  0  0  0  0
   -2.1818    8.1331  -15.6762 C   0  0  0  0  0  0  0  0  0  0  0  0
   -3.6346    8.3333  -16.0805 C   0  0  1  0  0  0  0  0  0  0  0  0
   -4.2329    7.3245  -16.9266 N   0  0  0  0  0  0  0  0  0  0  0  0
   -3.8072    5.8493  -17.1991 C   0  0  0  0  0  0  0  0  0  0  0  0
   -2.8653    5.2531  -16.8401 O   0  0  0  0  0  0  0  0  0  0  0  0
   -4.8656    5.1980  -18.1272 C   0  0  1  0  0  0  0  0  0  0  0  0
   -6.2156    4.9047  -17.4609 C   0  0  0  0  0  0  0  0  0  0  0  0
   -7.2679    4.3342  -18.2058 C   0  0  0  0  0  0  0  0  0  0  0  0
   -8.4984    4.0371  -17.6188 C   0  0  0  0  0  0  0  0  0  0  0  0
   -8.6903    4.2561  -16.2615 C   0  0  0  0  0  0  0  0  0  0  0  0
   -7.6568    4.7764  -15.4921 C   0  0  0  0  0  0  0  0  0  0  0  0
   -6.4318    5.0959  -16.0844 C   0  0  0  0  0  0  0  0  0  0  0  0
   -4.9280    5.9380  -19.3961 N   0  0  0  0  0  0  0  0  0  0  0  0
   -5.9995    6.6256  -19.8783 C   0  0  0  0  0  0  0  0  0  0  0  0
   -5.7386    7.2203  -21.0184 N   0  0  0  0  0  0  0  0  0  0  0  0
   -4.4643    6.8495  -21.3311 C   0  0  0  0  0  0  0  0  0  0  0  0
   -3.7154    7.1512  -22.4762 C   0  0  0  0  0  0  0  0  0  0  0  0
   -2.3629    6.8063  -22.4993 C   0  0  0  0  0  0  0  0  0  0  0  0
   -1.7813    6.1565  -21.4112 C   0  0  0  0  0  0  0  0  0  0  0  0
   -2.5375    5.7736  -20.2938 C   0  0  0  0  0  0  0  0  0  0  0  0
   -3.8894    6.1266  -20.2882 C   0  0  0  0  0  0  0  0  0  0  0  0
  1  2  2  0
  2  3  1  0
  3  4  1  0
  4  5  1  0
  5  6  1  0
  6  7  1  6
  7  8  1  0
  8  9  2  0
  8 10  1  0
 10 11  1  0
 11 12  2  0
 12 13  1  0
 13 14  2  0
 14 15  1  0
 15 16  2  0
 10 17  1  6
 17 18  1  0
 18 19  2  0
 19 20  1  0
 20 21  2  0
 21 22  1  0
 22 23  2  0
 23 24  1  0
 24 25  2  0
  6  2  1  0
 16 11  1  0
 25 17  1  0
 25 20  1  0
M  END
>  <energy_score>  (2387) 
-8.323589

>  <alias>  (2387) 
None

>  <HIPPO Pose ID>  (2387) 
74658

>  <smiles>  (2387) 
O=C1COC[C@H]1NC(=O)[C@@H](c1ccccc1)n1cnc2ccccc21

>  <inchikey>  (2387) 
UZFWWZYKKDYIIZ-CRAIPNDOSA-N

>  <distance_score>  (2387) 
1.246314

>  <ref_mols>  (2387) 
Z0101a,Z3880a

>  <ref_pdb>  (2387) 
Z3880a

>  <HIPPO Compound ID>  (2387) 
147649

>  <name>  (2387) 
P74658

>  <inspiration_score>  (2387) 
None

$$$$
P74660
     RDKit          3D

 25 27  0  0  0  0  0  0  0  0999 V2000
   -4.2432   10.3509  -14.5776 C   0  0  0  0  0  0  0  0  0  0  0  0
   -4.7110    9.3234  -15.5954 C   0  0  0  0  0  0  0  0  0  0  0  0
   -3.6335    8.3227  -16.0431 C   0  0  2  0  0  0  0  0  0  0  0  0
   -2.4453    8.9693  -16.7814 C   0  0  0  0  0  0  0  0  0  0  0  0
   -1.6185    9.6881  -15.8669 O   0  0  0  0  0  0  0  0  0  0  0  0
   -0.5016   10.2770  -16.5200 C   0  0  0  0  0  0  0  0  0  0  0  0
   -4.2443    7.3047  -16.8828 N   0  0  0  0  0  0  0  0  0  0  0  0
   -3.7868    5.8490  -17.2035 C   0  0  0  0  0  0  0  0  0  0  0  0
   -2.8102    5.2770  -16.9019 O   0  0  0  0  0  0  0  0  0  0  0  0
   -4.8536    5.1941  -18.1203 C   0  0  1  0  0  0  0  0  0  0  0  0
   -6.2024    4.9064  -17.4460 C   0  0  0  0  0  0  0  0  0  0  0  0
   -7.2627    4.3424  -18.1853 C   0  0  0  0  0  0  0  0  0  0  0  0
   -8.4908    4.0495  -17.5912 C   0  0  0  0  0  0  0  0  0  0  0  0
   -8.6721    4.2645  -16.2317 C   0  0  0  0  0  0  0  0  0  0  0  0
   -7.6303    4.7764  -15.4673 C   0  0  0  0  0  0  0  0  0  0  0  0
   -6.4079    5.0930  -16.0670 C   0  0  0  0  0  0  0  0  0  0  0  0
   -4.9228    5.9320  -19.3914 N   0  0  0  0  0  0  0  0  0  0  0  0
   -5.9968    6.6204  -19.8685 C   0  0  0  0  0  0  0  0  0  0  0  0
   -5.7412    7.2176  -21.0084 N   0  0  0  0  0  0  0  0  0  0  0  0
   -4.4675    6.8497  -21.3264 C   0  0  0  0  0  0  0  0  0  0  0  0
   -3.7229    7.1575  -22.4728 C   0  0  0  0  0  0  0  0  0  0  0  0
   -2.3701    6.8145  -22.5026 C   0  0  0  0  0  0  0  0  0  0  0  0
   -1.7844    6.1589  -21.4204 C   0  0  0  0  0  0  0  0  0  0  0  0
   -2.5367    5.7699  -20.3023 C   0  0  0  0  0  0  0  0  0  0  0  0
   -3.8886    6.1229  -20.2886 C   0  0  0  0  0  0  0  0  0  0  0  0
  1  2  1  0
  3  2  1  6
  3  4  1  0
  4  5  1  0
  5  6  1  0
  3  7  1  0
  7  8  1  0
  8  9  2  0
  8 10  1  0
 10 11  1  0
 11 12  2  0
 12 13  1  0
 13 14  2  0
 14 15  1  0
 15 16  2  0
 10 17  1  6
 17 18  1  0
 18 19  2  0
 19 20  1  0
 20 21  2  0
 21 22  1  0
 22 23  2  0
 23 24  1  0
 24 25  2  0
 16 11  1  0
 25 17  1  0
 25 20  1  0
M  END
>  <energy_score>  (2388) 
-11.477261

>  <alias>  (2388) 
None

>  <HIPPO Pose ID>  (2388) 
74660

>  <smiles>  (2388) 
CC[C@H](COC)NC(=O)[C@@H](c1ccccc1)n1cnc2ccccc21

>  <inchikey>  (2388) 
MRECTYQXJWDFCC-VQIMIIECSA-N

>  <distance_score>  (2388) 
1.2449

>  <ref_mols>  (2388) 
Z0101a,Z3880a

>  <ref_pdb>  (2388) 
Z3880a

>  <HIPPO Compound ID>  (2388) 
147650

>  <name>  (2388) 
P74660

>  <inspiration_score>  (2388) 
None

$$$$
P74662
     RDKit          3D

 25 29  0  0  0  0  0  0  0  0999 V2000
   -3.5787    4.8663  -16.1173 O   0  0  0  0  0  0  0  0  0  0  0  0
   -3.6750    5.4791  -17.1243 C   0  0  0  0  0  0  0  0  0  0  0  0
   -4.9929    5.3366  -17.9818 C   0  0  1  0  0  0  0  0  0  0  0  0
   -6.2975    5.1457  -17.1886 C   0  0  0  0  0  0  0  0  0  0  0  0
   -7.3929    4.4658  -17.7674 C   0  0  0  0  0  0  0  0  0  0  0  0
   -8.5454    4.1756  -17.0385 C   0  0  0  0  0  0  0  0  0  0  0  0
   -8.6209    4.5403  -15.7033 C   0  0  0  0  0  0  0  0  0  0  0  0
   -7.5719    5.2384  -15.1151 C   0  0  0  0  0  0  0  0  0  0  0  0
   -6.4299    5.5581  -15.8559 C   0  0  0  0  0  0  0  0  0  0  0  0
   -5.2066    6.2005  -19.1534 N   0  0  0  0  0  0  0  0  0  0  0  0
   -5.7399    5.7053  -20.3102 C   0  0  0  0  0  0  0  0  0  0  0  0
   -5.5969    6.5240  -21.3232 N   0  0  0  0  0  0  0  0  0  0  0  0
   -5.0474    7.6311  -20.7988 C   0  0  0  0  0  0  0  0  0  0  0  0
   -4.6815    8.8025  -21.4644 C   0  0  0  0  0  0  0  0  0  0  0  0
   -4.2447    9.8856  -20.6958 C   0  0  0  0  0  0  0  0  0  0  0  0
   -4.1800    9.7911  -19.3045 C   0  0  0  0  0  0  0  0  0  0  0  0
   -4.5124    8.6037  -18.6377 C   0  0  0  0  0  0  0  0  0  0  0  0
   -4.9107    7.5154  -19.4140 C   0  0  0  0  0  0  0  0  0  0  0  0
   -2.7302    6.4836  -17.7540 N   0  0  0  0  0  0  0  0  0  0  0  0
   -1.4216    7.0844  -17.2356 C   0  0  0  0  0  0  0  0  0  0  0  0
   -1.0148    7.1472  -18.6934 C   0  0  1  0  0  0  0  0  0  0  0  0
    0.1047    6.7042  -19.5922 C   0  0  0  0  0  0  0  0  0  0  0  0
   -0.5730    6.0447  -20.6837 O   0  0  0  0  0  0  0  0  0  0  0  0
   -1.8738    5.6679  -20.1726 C   0  0  0  0  0  0  0  0  0  0  0  0
   -1.7360    5.8074  -18.6852 C   0  0  2  0  0  0  0  0  0  0  0  0
  1  2  2  0
  2  3  1  0
  3  4  1  0
  4  5  2  0
  5  6  1  0
  6  7  2  0
  7  8  1  0
  8  9  2  0
  3 10  1  1
 10 11  1  0
 11 12  2  0
 12 13  1  0
 13 14  2  0
 14 15  1  0
 15 16  2  0
 16 17  1  0
 17 18  2  0
  2 19  1  0
 19 20  1  0
 21 20  1  1
 21 22  1  0
 22 23  1  0
 23 24  1  0
 25 24  1  6
  9  4  1  0
 18 10  1  0
 25 19  1  0
 18 13  1  0
 25 21  1  0
M  END
>  <energy_score>  (2389) 
-4.460506

>  <alias>  (2389) 
None

>  <HIPPO Pose ID>  (2389) 
74662

>  <smiles>  (2389) 
O=C([C@@H](c1ccccc1)n1cnc2ccccc21)N1C[C@H]2COC[C@@H]21

>  <inchikey>  (2389) 
SAISCQJNUYBBEQ-ZYSHUDEJSA-N

>  <distance_score>  (2389) 
1.73905

>  <ref_mols>  (2389) 
Z0101a,Z3880a

>  <ref_pdb>  (2389) 
Z3880a

>  <HIPPO Compound ID>  (2389) 
147651

>  <name>  (2389) 
P74662

>  <inspiration_score>  (2389) 
None

$$$$
P74672
     RDKit          3D

 25 28  0  0  0  0  0  0  0  0999 V2000
   -2.8358    5.4243  -16.8606 O   0  0  0  0  0  0  0  0  0  0  0  0
   -3.8384    5.9388  -17.1803 C   0  0  0  0  0  0  0  0  0  0  0  0
   -4.3889    7.3634  -16.8624 N   0  0  0  0  0  0  0  0  0  0  0  0
   -3.8610    8.4045  -16.0103 C   0  0  2  0  0  0  0  0  0  0  0  0
   -2.8825    7.9481  -14.9386 C   0  0  0  0  0  0  0  0  0  0  0  0
   -2.9068    8.9510  -13.9064 O   0  0  0  0  0  0  0  0  0  0  0  0
   -4.0915    9.7452  -14.0846 C   0  0  0  0  0  0  0  0  0  0  0  0
   -4.9194    9.0804  -15.1624 C   0  0  1  0  0  0  0  0  0  0  0  0
   -5.6139    9.9840  -15.8938 F   0  0  0  0  0  0  0  0  0  0  0  0
   -4.8586    5.2182  -18.1053 C   0  0  1  0  0  0  0  0  0  0  0  0
   -6.2095    4.9030  -17.4449 C   0  0  0  0  0  0  0  0  0  0  0  0
   -7.2649    4.3497  -18.1977 C   0  0  0  0  0  0  0  0  0  0  0  0
   -8.4964    4.0489  -17.6144 C   0  0  0  0  0  0  0  0  0  0  0  0
   -8.6847    4.2402  -16.2524 C   0  0  0  0  0  0  0  0  0  0  0  0
   -7.6438    4.7284  -15.4724 C   0  0  0  0  0  0  0  0  0  0  0  0
   -6.4181    5.0523  -16.0611 C   0  0  0  0  0  0  0  0  0  0  0  0
   -4.9271    5.9314  -19.3899 N   0  0  0  0  0  0  0  0  0  0  0  0
   -5.9997    6.6127  -19.8801 C   0  0  0  0  0  0  0  0  0  0  0  0
   -5.7404    7.1977  -21.0252 N   0  0  0  0  0  0  0  0  0  0  0  0
   -4.4630    6.8324  -21.3308 C   0  0  0  0  0  0  0  0  0  0  0  0
   -3.7119    7.1326  -22.4749 C   0  0  0  0  0  0  0  0  0  0  0  0
   -2.3573    6.7958  -22.4913 C   0  0  0  0  0  0  0  0  0  0  0  0
   -1.7762    6.1548  -21.3979 C   0  0  0  0  0  0  0  0  0  0  0  0
   -2.5343    5.7725  -20.2816 C   0  0  0  0  0  0  0  0  0  0  0  0
   -3.8880    6.1179  -20.2820 C   0  0  0  0  0  0  0  0  0  0  0  0
  1  2  2  0
  2  3  1  0
  4  3  1  1
  4  5  1  0
  5  6  1  0
  6  7  1  0
  7  8  1  0
  8  9  1  6
  2 10  1  0
 10 11  1  0
 11 12  2  0
 12 13  1  0
 13 14  2  0
 14 15  1  0
 15 16  2  0
 10 17  1  6
 17 18  1  0
 18 19  2  0
 19 20  1  0
 20 21  2  0
 21 22  1  0
 22 23  2  0
 23 24  1  0
 24 25  2  0
  8  4  1  0
 16 11  1  0
 25 17  1  0
 25 20  1  0
M  END
>  <energy_score>  (2390) 
-2.306877

>  <alias>  (2390) 
None

>  <HIPPO Pose ID>  (2390) 
74672

>  <smiles>  (2390) 
O=C(N[C@@H]1COC[C@H]1F)[C@@H](c1ccccc1)n1cnc2ccccc21

>  <inchikey>  (2390) 
PFCXATHEYXAAID-QGPMSJSTSA-N

>  <distance_score>  (2390) 
1.241002

>  <ref_mols>  (2390) 
Z0101a,Z3880a

>  <ref_pdb>  (2390) 
Z3880a

>  <HIPPO Compound ID>  (2390) 
147653

>  <name>  (2390) 
P74672

>  <inspiration_score>  (2390) 
None

$$$$
P74682
     RDKit          3D

 25 29  0  0  0  0  0  0  0  0999 V2000
   -2.9193    4.4389  -17.9957 O   0  0  0  0  0  0  0  0  0  0  0  0
   -3.4963    5.3285  -17.4739 C   0  0  0  0  0  0  0  0  0  0  0  0
   -4.8082    5.9338  -18.0031 C   0  0  2  0  0  0  0  0  0  0  0  0
   -6.0632    5.2317  -17.4457 C   0  0  0  0  0  0  0  0  0  0  0  0
   -6.9368    4.4479  -18.2195 C   0  0  0  0  0  0  0  0  0  0  0  0
   -8.1443    3.9745  -17.6935 C   0  0  0  0  0  0  0  0  0  0  0  0
   -8.4662    4.2030  -16.3609 C   0  0  0  0  0  0  0  0  0  0  0  0
   -7.5847    4.9111  -15.5532 C   0  0  0  0  0  0  0  0  0  0  0  0
   -6.4043    5.4314  -16.0927 C   0  0  0  0  0  0  0  0  0  0  0  0
   -4.8188    6.1959  -19.4629 N   0  0  0  0  0  0  0  0  0  0  0  0
   -5.9498    6.6500  -20.0933 C   0  0  0  0  0  0  0  0  0  0  0  0
   -5.7318    7.0513  -21.3193 N   0  0  0  0  0  0  0  0  0  0  0  0
   -4.4133    6.7992  -21.5373 C   0  0  0  0  0  0  0  0  0  0  0  0
   -3.6820    6.9864  -22.7205 C   0  0  0  0  0  0  0  0  0  0  0  0
   -2.2996    6.8040  -22.6968 C   0  0  0  0  0  0  0  0  0  0  0  0
   -1.6636    6.4452  -21.5130 C   0  0  0  0  0  0  0  0  0  0  0  0
   -2.3894    6.2129  -20.3346 C   0  0  0  0  0  0  0  0  0  0  0  0
   -3.7824    6.3586  -20.3684 C   0  0  0  0  0  0  0  0  0  0  0  0
   -3.1540    6.1226  -16.2230 N   0  0  0  0  0  0  0  0  0  0  0  0
   -2.3805    7.2835  -16.3131 C   0  0  1  0  0  0  0  0  0  0  0  0
   -2.1029    8.4694  -15.4723 C   0  0  0  0  0  0  0  0  0  0  0  0
   -0.7215    8.2559  -14.7925 C   0  0  0  0  0  0  0  0  0  0  0  0
    0.0657    7.2525  -15.4776 O   0  0  0  0  0  0  0  0  0  0  0  0
   -0.5673    5.9418  -15.5379 C   0  0  0  0  0  0  0  0  0  0  0  0
   -2.0340    6.0853  -15.4064 C   0  0  2  0  0  0  0  0  0  0  0  0
  1  2  2  0
  2  3  1  0
  3  4  1  0
  4  5  2  0
  5  6  1  0
  6  7  2  0
  7  8  1  0
  8  9  2  0
  3 10  1  6
 10 11  1  0
 11 12  2  0
 12 13  1  0
 13 14  2  0
 14 15  1  0
 15 16  2  0
 16 17  1  0
 17 18  2  0
  2 19  1  0
 19 20  1  0
 20 21  1  1
 21 22  1  0
 22 23  1  0
 23 24  1  0
 25 24  1  6
  9  4  1  0
 18 10  1  0
 25 19  1  0
 18 13  1  0
 25 20  1  0
M  END
>  <energy_score>  (2391) 
-29.426396

>  <alias>  (2391) 
None

>  <HIPPO Pose ID>  (2391) 
74682

>  <smiles>  (2391) 
O=C([C@H](c1ccccc1)n1cnc2ccccc21)N1[C@H]2CCOC[C@@H]21

>  <inchikey>  (2391) 
MVPMDXZORXQXEN-KEXUJGGDSA-N

>  <distance_score>  (2391) 
1.35531

>  <ref_mols>  (2391) 
Z0101a,Z3880a

>  <ref_pdb>  (2391) 
Z3880a

>  <HIPPO Compound ID>  (2391) 
147655

>  <name>  (2391) 
P74682

>  <inspiration_score>  (2391) 
None

$$$$
P74687
     RDKit          3D

 25 28  0  0  0  0  0  0  0  0999 V2000
   -6.1957   10.9599  -16.9404 O   0  0  0  0  0  0  0  0  0  0  0  0
   -5.3755   10.2164  -16.4274 C   0  0  0  0  0  0  0  0  0  0  0  0
   -4.0266    9.8875  -16.9875 C   0  0  0  0  0  0  0  0  0  0  0  0
   -3.7448    8.5661  -16.3129 C   0  0  2  0  0  0  0  0  0  0  0  0
   -4.3075    7.4620  -17.0729 N   0  0  0  0  0  0  0  0  0  0  0  0
   -3.8348    5.9824  -17.2091 C   0  0  0  0  0  0  0  0  0  0  0  0
   -2.8785    5.4503  -16.7920 O   0  0  0  0  0  0  0  0  0  0  0  0
   -4.8506    5.2344  -18.1183 C   0  0  1  0  0  0  0  0  0  0  0  0
   -6.1974    4.9280  -17.4505 C   0  0  0  0  0  0  0  0  0  0  0  0
   -7.2487    4.3449  -18.1870 C   0  0  0  0  0  0  0  0  0  0  0  0
   -8.4750    4.0430  -17.5931 C   0  0  0  0  0  0  0  0  0  0  0  0
   -8.6613    4.2645  -16.2355 C   0  0  0  0  0  0  0  0  0  0  0  0
   -7.6257    4.7904  -15.4723 C   0  0  0  0  0  0  0  0  0  0  0  0
   -6.4061    5.1173  -16.0723 C   0  0  0  0  0  0  0  0  0  0  0  0
   -4.9232    5.9159  -19.4205 N   0  0  0  0  0  0  0  0  0  0  0  0
   -5.9987    6.5809  -19.9267 C   0  0  0  0  0  0  0  0  0  0  0  0
   -5.7321    7.1645  -21.0708 N   0  0  0  0  0  0  0  0  0  0  0  0
   -4.4470    6.8141  -21.3598 C   0  0  0  0  0  0  0  0  0  0  0  0
   -3.6858    7.1192  -22.4956 C   0  0  0  0  0  0  0  0  0  0  0  0
   -2.3272    6.7979  -22.4944 C   0  0  0  0  0  0  0  0  0  0  0  0
   -1.7512    6.1684  -21.3914 C   0  0  0  0  0  0  0  0  0  0  0  0
   -2.5179    5.7822  -20.2824 C   0  0  0  0  0  0  0  0  0  0  0  0
   -3.8760    6.1098  -20.3019 C   0  0  0  0  0  0  0  0  0  0  0  0
   -4.4317    8.7381  -14.9730 C   0  0  0  0  0  0  0  0  0  0  0  0
   -5.5747    9.5552  -15.2488 O   0  0  0  0  0  0  0  0  0  0  0  0
  1  2  2  0
  2  3  1  0
  3  4  1  0
  4  5  1  6
  5  6  1  0
  6  7  2  0
  6  8  1  0
  8  9  1  0
  9 10  2  0
 10 11  1  0
 11 12  2  0
 12 13  1  0
 13 14  2  0
  8 15  1  6
 15 16  1  0
 16 17  2  0
 17 18  1  0
 18 19  2  0
 19 20  1  0
 20 21  2  0
 21 22  1  0
 22 23  2  0
  4 24  1  0
 24 25  1  0
 25  2  1  0
 14  9  1  0
 23 15  1  0
 23 18  1  0
M  END
>  <energy_score>  (2392) 
-3.857689

>  <alias>  (2392) 
None

>  <HIPPO Pose ID>  (2392) 
74687

>  <smiles>  (2392) 
O=C1C[C@H](NC(=O)[C@@H](c2ccccc2)n2cnc3ccccc32)CO1

>  <inchikey>  (2392) 
WDUBMNMVIIRQLB-KBXCAEBGSA-N

>  <distance_score>  (2392) 
1.24176

>  <ref_mols>  (2392) 
Z0101a,Z3880a

>  <ref_pdb>  (2392) 
Z3880a

>  <HIPPO Compound ID>  (2392) 
147657

>  <name>  (2392) 
P74687

>  <inspiration_score>  (2392) 
None

$$$$
P74689
     RDKit          3D

 25 29  0  0  0  0  0  0  0  0999 V2000
   -6.2548    8.5798  -18.3253 O   0  0  0  0  0  0  0  0  0  0  0  0
   -5.2975    8.0329  -17.8975 C   0  0  0  0  0  0  0  0  0  0  0  0
   -5.0348    6.5142  -18.0279 C   0  0  1  0  0  0  0  0  0  0  0  0
   -6.2048    5.6595  -17.5486 C   0  0  0  0  0  0  0  0  0  0  0  0
   -7.0896    5.0162  -18.4179 C   0  0  0  0  0  0  0  0  0  0  0  0
   -8.1867    4.2987  -17.9290 C   0  0  0  0  0  0  0  0  0  0  0  0
   -8.4057    4.1957  -16.5587 C   0  0  0  0  0  0  0  0  0  0  0  0
   -7.5185    4.7974  -15.6735 C   0  0  0  0  0  0  0  0  0  0  0  0
   -6.4314    5.5262  -16.1637 C   0  0  0  0  0  0  0  0  0  0  0  0
   -4.4567    6.1168  -19.3273 N   0  0  0  0  0  0  0  0  0  0  0  0
   -3.6328    5.0219  -19.4279 C   0  0  0  0  0  0  0  0  0  0  0  0
   -2.9591    4.9849  -20.5583 N   0  0  0  0  0  0  0  0  0  0  0  0
   -3.4109    6.0815  -21.2562 C   0  0  0  0  0  0  0  0  0  0  0  0
   -3.0459    6.5128  -22.5456 C   0  0  0  0  0  0  0  0  0  0  0  0
   -3.6366    7.6594  -23.0778 C   0  0  0  0  0  0  0  0  0  0  0  0
   -4.5752    8.3665  -22.3380 C   0  0  0  0  0  0  0  0  0  0  0  0
   -4.9445    7.9520  -21.0524 C   0  0  0  0  0  0  0  0  0  0  0  0
   -4.3545    6.7997  -20.5201 C   0  0  0  0  0  0  0  0  0  0  0  0
   -4.1162    8.5875  -17.0989 N   0  0  0  0  0  0  0  0  0  0  0  0
   -2.9596    9.0681  -18.0438 C   0  0  0  0  0  0  0  0  0  0  0  0
   -2.4366    9.9106  -16.9098 C   0  0  0  0  0  0  0  0  0  0  0  0
   -3.8743    9.9447  -16.5447 C   0  0  0  0  0  0  0  0  0  0  0  0
   -4.2076   10.2653  -15.1092 C   0  0  0  0  0  0  0  0  0  0  0  0
   -4.7996   11.5342  -15.5103 O   0  0  0  0  0  0  0  0  0  0  0  0
   -4.6991   11.1563  -16.9134 C   0  0  0  0  0  0  0  0  0  0  0  0
  1  2  2  0
  2  3  1  0
  3  4  1  0
  4  5  2  0
  5  6  1  0
  6  7  2  0
  7  8  1  0
  8  9  2  0
  3 10  1  6
 10 11  1  0
 11 12  2  0
 12 13  1  0
 13 14  2  0
 14 15  1  0
 15 16  2  0
 16 17  1  0
 17 18  2  0
  2 19  1  0
 19 20  1  0
 20 21  1  0
 21 22  1  0
 22 23  1  0
 23 24  1  0
 24 25  1  0
  9  4  1  0
 18 10  1  0
 22 19  1  0
 18 13  1  0
 25 22  1  0
M  END
>  <energy_score>  (2393) 
-10.822391

>  <alias>  (2393) 
None

>  <HIPPO Pose ID>  (2393) 
74689

>  <smiles>  (2393) 
O=C([C@@H](c1ccccc1)n1cnc2ccccc21)N1CCC12COC2

>  <inchikey>  (2393) 
IBRSVMKCQMXMOI-GOSISDBHSA-N

>  <distance_score>  (2393) 
1.856125

>  <ref_mols>  (2393) 
Z0101a,Z3880a

>  <ref_pdb>  (2393) 
Z3880a

>  <HIPPO Compound ID>  (2393) 
147659

>  <name>  (2393) 
P74689

>  <inspiration_score>  (2393) 
None

$$$$
P74691
     RDKit          3D

 25 28  0  0  0  0  0  0  0  0999 V2000
   -0.6448    7.1881  -16.9663 C   0  0  0  0  0  0  0  0  0  0  0  0
   -1.7770    7.0195  -15.9411 C   0  0  2  0  0  0  0  0  0  0  0  0
   -2.1977    8.3976  -15.3953 C   0  0  0  0  0  0  0  0  0  0  0  0
   -3.3665    8.3352  -14.5832 O   0  0  0  0  0  0  0  0  0  0  0  0
   -1.4871    5.8871  -14.9975 C   0  0  0  0  0  0  0  0  0  0  0  0
   -2.9131    5.5372  -15.2183 C   0  0  0  0  0  0  0  0  0  0  0  0
   -2.9118    6.2329  -16.6298 N   0  0  0  0  0  0  0  0  0  0  0  0
   -4.3195    6.6681  -17.0394 C   0  0  0  0  0  0  0  0  0  0  0  0
   -4.8905    7.6874  -16.8504 O   0  0  0  0  0  0  0  0  0  0  0  0
   -4.9154    5.5042  -17.8815 C   0  0  1  0  0  0  0  0  0  0  0  0
   -6.2772    5.0232  -17.3537 C   0  0  0  0  0  0  0  0  0  0  0  0
   -7.2196    4.3904  -18.1855 C   0  0  0  0  0  0  0  0  0  0  0  0
   -8.4644    3.9906  -17.6965 C   0  0  0  0  0  0  0  0  0  0  0  0
   -8.7706    4.1556  -16.3524 C   0  0  0  0  0  0  0  0  0  0  0  0
   -7.8329    4.7099  -15.4922 C   0  0  0  0  0  0  0  0  0  0  0  0
   -6.6005    5.1392  -15.9879 C   0  0  0  0  0  0  0  0  0  0  0  0
   -4.9265    5.9709  -19.2754 N   0  0  0  0  0  0  0  0  0  0  0  0
   -5.9426    6.6642  -19.8670 C   0  0  0  0  0  0  0  0  0  0  0  0
   -5.6134    7.1318  -21.0484 N   0  0  0  0  0  0  0  0  0  0  0  0
   -4.3318    6.7031  -21.2525 C   0  0  0  0  0  0  0  0  0  0  0  0
   -3.4965    6.9114  -22.3605 C   0  0  0  0  0  0  0  0  0  0  0  0
   -2.1632    6.4953  -22.2841 C   0  0  0  0  0  0  0  0  0  0  0  0
   -1.6849    5.8593  -21.1383 C   0  0  0  0  0  0  0  0  0  0  0  0
   -2.5250    5.5872  -20.0504 C   0  0  0  0  0  0  0  0  0  0  0  0
   -3.8499    6.0184  -20.1375 C   0  0  0  0  0  0  0  0  0  0  0  0
  2  1  1  6
  2  3  1  0
  3  4  1  0
  2  5  1  0
  5  6  1  0
  6  7  1  0
  7  8  1  0
  8  9  2  0
  8 10  1  0
 10 11  1  0
 11 12  2  0
 12 13  1  0
 13 14  2  0
 14 15  1  0
 15 16  2  0
 10 17  1  6
 17 18  1  0
 18 19  2  0
 19 20  1  0
 20 21  2  0
 21 22  1  0
 22 23  2  0
 23 24  1  0
 24 25  2  0
  7  2  1  0
 16 11  1  0
 25 17  1  0
 25 20  1  0
M  END
>  <energy_score>  (2394) 
-11.696525

>  <alias>  (2394) 
None

>  <HIPPO Pose ID>  (2394) 
74691

>  <smiles>  (2394) 
C[C@]1(CO)CCN1C(=O)[C@@H](c1ccccc1)n1cnc2ccccc21

>  <inchikey>  (2394) 
SWQLPCWWJZNZTD-UYAOXDASSA-N

>  <distance_score>  (2394) 
1.318087

>  <ref_mols>  (2394) 
Z0101a,Z3880a

>  <ref_pdb>  (2394) 
Z3880a

>  <HIPPO Compound ID>  (2394) 
147660

>  <name>  (2394) 
P74691

>  <inspiration_score>  (2394) 
None

$$$$
P74700
     RDKit          3D

 25 28  0  0  0  0  0  0  0  0999 V2000
   -4.9047   10.2134  -16.8538 C   0  0  0  0  0  0  0  0  0  0  0  0
   -3.6225    9.4057  -16.7305 C   0  0  2  0  0  0  0  0  0  0  0  0
   -3.4273    8.2997  -17.7227 C   0  0  0  0  0  0  0  0  0  0  0  0
   -4.1791    7.2983  -16.7678 N   0  0  0  0  0  0  0  0  0  0  0  0
   -3.8113    5.8457  -17.0786 C   0  0  0  0  0  0  0  0  0  0  0  0
   -2.9430    5.1655  -16.6445 O   0  0  0  0  0  0  0  0  0  0  0  0
   -4.8617    5.2463  -18.0479 C   0  0  1  0  0  0  0  0  0  0  0  0
   -6.2306    4.9510  -17.4195 C   0  0  0  0  0  0  0  0  0  0  0  0
   -7.2627    4.3848  -18.1951 C   0  0  0  0  0  0  0  0  0  0  0  0
   -8.5001    4.0637  -17.6363 C   0  0  0  0  0  0  0  0  0  0  0  0
   -8.7193    4.2561  -16.2789 C   0  0  0  0  0  0  0  0  0  0  0  0
   -7.7080    4.7776  -15.4814 C   0  0  0  0  0  0  0  0  0  0  0  0
   -6.4769    5.1234  -16.0453 C   0  0  0  0  0  0  0  0  0  0  0  0
   -4.8863    5.9565  -19.3304 N   0  0  0  0  0  0  0  0  0  0  0  0
   -5.9196    6.6831  -19.8398 C   0  0  0  0  0  0  0  0  0  0  0  0
   -5.6165    7.2388  -20.9911 N   0  0  0  0  0  0  0  0  0  0  0  0
   -4.3559    6.7936  -21.2816 C   0  0  0  0  0  0  0  0  0  0  0  0
   -3.5659    7.0376  -22.4142 C   0  0  0  0  0  0  0  0  0  0  0  0
   -2.2377    6.5967  -22.4149 C   0  0  0  0  0  0  0  0  0  0  0  0
   -1.7184    5.9067  -21.3192 C   0  0  0  0  0  0  0  0  0  0  0  0
   -2.5162    5.5967  -20.2100 C   0  0  0  0  0  0  0  0  0  0  0  0
   -3.8383    6.0479  -20.2252 C   0  0  0  0  0  0  0  0  0  0  0  0
   -3.6046    8.2762  -15.7329 C   0  0  1  0  0  0  0  0  0  0  0  0
   -2.2699    7.8410  -15.1170 C   0  0  0  0  0  0  0  0  0  0  0  0
   -2.4527    6.6708  -14.3262 O   0  0  0  0  0  0  0  0  0  0  0  0
  2  1  1  6
  2  3  1  0
  3  4  1  0
  4  5  1  0
  5  6  2  0
  5  7  1  0
  7  8  1  0
  8  9  2  0
  9 10  1  0
 10 11  2  0
 11 12  1  0
 12 13  2  0
  7 14  1  6
 14 15  1  0
 15 16  2  0
 16 17  1  0
 17 18  2  0
 18 19  1  0
 19 20  2  0
 20 21  1  0
 21 22  2  0
  4 23  1  0
 23 24  1  6
 24 25  1  0
 23  2  1  0
 13  8  1  0
 22 14  1  0
 22 17  1  0
M  END
>  <energy_score>  (2395) 
-6.676019

>  <alias>  (2395) 
None

>  <HIPPO Pose ID>  (2395) 
74700

>  <smiles>  (2395) 
C[C@@H]1CN(C(=O)[C@@H](c2ccccc2)n2cnc3ccccc32)[C@H]1CO

>  <inchikey>  (2395) 
CHWLBIDDMNNTOI-MDASCCDHSA-N

>  <distance_score>  (2395) 
1.281524

>  <ref_mols>  (2395) 
Z0101a,Z3880a

>  <ref_pdb>  (2395) 
Z3880a

>  <HIPPO Compound ID>  (2395) 
147662

>  <name>  (2395) 
P74700

>  <inspiration_score>  (2395) 
None

$$$$
P74703
     RDKit          3D

 25 27  0  0  0  0  0  0  0  0999 V2000
   -9.9388    2.0341   -8.1190 C   0  0  0  0  0  0  0  0  0  0  0  0
   -8.6561    2.7873   -8.3090 C   0  0  1  0  0  0  0  0  0  0  0  0
   -8.0226    2.6080   -9.6824 C   0  0  0  0  0  0  0  0  0  0  0  0
   -7.1261    3.8221   -9.7255 C   0  0  1  0  0  0  0  0  0  0  0  0
   -6.6665    4.3885  -10.9875 N   0  0  0  0  0  0  0  0  0  0  0  0
   -7.0294    4.0102  -12.4628 C   0  0  0  0  0  0  0  0  0  0  0  0
   -7.6887    3.1408  -12.8800 O   0  0  0  0  0  0  0  0  0  0  0  0
   -6.4011    5.1336  -13.3468 C   0  0  2  0  0  0  0  0  0  0  0  0
   -7.2615    6.3887  -13.2015 C   0  0  0  0  0  0  0  0  0  0  0  0
   -6.1603    4.8756  -14.7892 N   0  0  0  0  0  0  0  0  0  0  0  0
   -4.9723    5.1592  -15.4727 C   0  0  0  0  0  0  0  0  0  0  0  0
   -3.6852    5.4343  -14.7685 C   0  0  0  0  0  0  0  0  0  0  0  0
   -2.6163    5.5181  -15.6020 F   0  0  0  0  0  0  0  0  0  0  0  0
   -3.7375    6.6082  -14.0802 F   0  0  0  0  0  0  0  0  0  0  0  0
   -3.3896    4.4720  -13.8534 F   0  0  0  0  0  0  0  0  0  0  0  0
   -5.1625    5.1602  -16.7845 N   0  0  0  0  0  0  0  0  0  0  0  0
   -6.4712    4.8165  -16.9709 C   0  0  0  0  0  0  0  0  0  0  0  0
   -7.1725    4.6437  -18.1698 C   0  0  0  0  0  0  0  0  0  0  0  0
   -8.5255    4.3137  -18.1078 C   0  0  0  0  0  0  0  0  0  0  0  0
   -9.1677    4.1739  -16.8839 C   0  0  0  0  0  0  0  0  0  0  0  0
   -8.4823    4.3350  -15.6793 C   0  0  0  0  0  0  0  0  0  0  0  0
   -7.1242    4.6506  -15.7512 C   0  0  0  0  0  0  0  0  0  0  0  0
   -8.0247    4.8281   -9.0217 C   0  0  0  0  0  0  0  0  0  0  0  0
   -7.9618    6.0429   -9.1491 O   0  0  0  0  0  0  0  0  0  0  0  0
   -8.8895    4.1928   -8.1828 O   0  0  0  0  0  0  0  0  0  0  0  0
  2  1  1  6
  2  3  1  0
  3  4  1  0
  4  5  1  6
  5  6  1  0
  6  7  2  0
  6  8  1  0
  8  9  1  6
  8 10  1  0
 10 11  1  0
 11 12  1  0
 12 13  1  0
 12 14  1  0
 12 15  1  0
 11 16  2  0
 16 17  1  0
 17 18  2  0
 18 19  1  0
 19 20  2  0
 20 21  1  0
 21 22  2  0
  4 23  1  0
 23 24  2  0
 23 25  1  0
 25  2  1  0
 22 10  1  0
 22 17  1  0
M  END
>  <energy_score>  (2396) 
-22.963491

>  <alias>  (2396) 
None

>  <HIPPO Pose ID>  (2396) 
74703

>  <smiles>  (2396) 
C[C@H]1C[C@@H](NC(=O)[C@H](C)n2c(C(F)(F)F)nc3ccccc32)C(=O)O1

>  <inchikey>  (2396) 
ZWHQDTMPPWASFW-ATZCPNFKSA-N

>  <distance_score>  (2396) 
1.554884

>  <ref_mols>  (2396) 
Z0101a,Z3880a

>  <ref_pdb>  (2396) 
Z3880a

>  <HIPPO Compound ID>  (2396) 
147664

>  <name>  (2396) 
P74703

>  <inspiration_score>  (2396) 
None

$$$$
P74726
     RDKit          3D

 25 28  0  0  0  0  0  0  0  0999 V2000
   -0.0234    6.2307  -14.2505 C   0  0  0  0  0  0  0  0  0  0  0  0
   -1.0808    5.9938  -15.3182 C   0  0  0  0  0  0  0  0  0  0  0  0
   -2.1232    7.1143  -15.3128 C   0  0  1  0  0  0  0  0  0  0  0  0
   -1.8824    8.5017  -15.8773 C   0  0  1  0  0  0  0  0  0  0  0  0
   -0.5448    9.0332  -15.8308 O   0  0  0  0  0  0  0  0  0  0  0  0
   -2.3208    7.8486  -17.1549 C   0  0  0  0  0  0  0  0  0  0  0  0
   -3.2522    6.8975  -16.3372 N   0  0  0  0  0  0  0  0  0  0  0  0
   -3.6381    5.6551  -17.1506 C   0  0  0  0  0  0  0  0  0  0  0  0
   -3.1080    4.6037  -17.2351 O   0  0  0  0  0  0  0  0  0  0  0  0
   -4.9577    6.0071  -17.8553 C   0  0  2  0  0  0  0  0  0  0  0  0
   -6.1719    5.2237  -17.3302 C   0  0  0  0  0  0  0  0  0  0  0  0
   -7.0591    4.4993  -18.1452 C   0  0  0  0  0  0  0  0  0  0  0  0
   -8.2569    3.9917  -17.6339 C   0  0  0  0  0  0  0  0  0  0  0  0
   -8.5611    4.1414  -16.2862 C   0  0  0  0  0  0  0  0  0  0  0  0
   -7.6660    4.7882  -15.4428 C   0  0  0  0  0  0  0  0  0  0  0  0
   -6.4898    5.3334  -15.9612 C   0  0  0  0  0  0  0  0  0  0  0  0
   -4.8688    6.1428  -19.3254 N   0  0  0  0  0  0  0  0  0  0  0  0
   -5.9146    6.6992  -20.0216 C   0  0  0  0  0  0  0  0  0  0  0  0
   -5.5747    7.1253  -21.2103 N   0  0  0  0  0  0  0  0  0  0  0  0
   -4.2811    6.7213  -21.3601 C   0  0  0  0  0  0  0  0  0  0  0  0
   -3.4519    6.8730  -22.4833 C   0  0  0  0  0  0  0  0  0  0  0  0
   -2.1157    6.4791  -22.3962 C   0  0  0  0  0  0  0  0  0  0  0  0
   -1.6277    5.9189  -21.2198 C   0  0  0  0  0  0  0  0  0  0  0  0
   -2.4571    5.7186  -20.1067 C   0  0  0  0  0  0  0  0  0  0  0  0
   -3.7906    6.1320  -20.1878 C   0  0  0  0  0  0  0  0  0  0  0  0
  1  2  1  0
  3  2  1  6
  3  4  1  0
  4  5  1  6
  4  6  1  0
  6  7  1  0
  7  8  1  0
  8  9  2  0
  8 10  1  0
 10 11  1  0
 11 12  2  0
 12 13  1  0
 13 14  2  0
 14 15  1  0
 15 16  2  0
 10 17  1  6
 17 18  1  0
 18 19  2  0
 19 20  1  0
 20 21  2  0
 21 22  1  0
 22 23  2  0
 23 24  1  0
 24 25  2  0
  7  3  1  0
 16 11  1  0
 25 17  1  0
 25 20  1  0
M  END
>  <energy_score>  (2397) 
-3.249736

>  <alias>  (2397) 
None

>  <HIPPO Pose ID>  (2397) 
74726

>  <smiles>  (2397) 
CC[C@H]1[C@@H](O)CN1C(=O)[C@H](c1ccccc1)n1cnc2ccccc21

>  <inchikey>  (2397) 
JOGZYXJWRMAZBC-WDSOQIARSA-N

>  <distance_score>  (2397) 
1.358639

>  <ref_mols>  (2397) 
Z0101a,Z3880a

>  <ref_pdb>  (2397) 
Z3880a

>  <HIPPO Compound ID>  (2397) 
147672

>  <name>  (2397) 
P74726

>  <inspiration_score>  (2397) 
None

$$$$
P74738
     RDKit          3D

 25 28  0  0  0  0  0  0  0  0999 V2000
   -1.5798    8.4481  -17.4367 C   0  0  0  0  0  0  0  0  0  0  0  0
   -2.5377    9.1451  -16.4814 C   0  0  2  0  0  0  0  0  0  0  0  0
   -2.0874    9.1575  -14.9968 C   0  0  0  0  0  0  0  0  0  0  0  0
   -3.0320    7.9581  -14.7444 C   0  0  1  0  0  0  0  0  0  0  0  0
   -3.7702    7.9813  -13.5067 O   0  0  0  0  0  0  0  0  0  0  0  0
   -3.8208    8.4150  -16.0031 C   0  0  2  0  0  0  0  0  0  0  0  0
   -4.3517    7.3724  -16.8764 N   0  0  0  0  0  0  0  0  0  0  0  0
   -3.8814    5.8942  -17.0971 C   0  0  0  0  0  0  0  0  0  0  0  0
   -2.9520    5.3205  -16.6681 O   0  0  0  0  0  0  0  0  0  0  0  0
   -4.8912    5.2052  -18.0486 C   0  0  1  0  0  0  0  0  0  0  0  0
   -6.2583    4.9131  -17.4202 C   0  0  0  0  0  0  0  0  0  0  0  0
   -7.2951    4.3516  -18.1909 C   0  0  0  0  0  0  0  0  0  0  0  0
   -8.5333    4.0442  -17.6272 C   0  0  0  0  0  0  0  0  0  0  0  0
   -8.7471    4.2440  -16.2700 C   0  0  0  0  0  0  0  0  0  0  0  0
   -7.7289    4.7558  -15.4756 C   0  0  0  0  0  0  0  0  0  0  0  0
   -6.4967    5.0868  -16.0439 C   0  0  0  0  0  0  0  0  0  0  0  0
   -4.9144    5.9082  -19.3387 N   0  0  0  0  0  0  0  0  0  0  0  0
   -5.9507    6.6192  -19.8638 C   0  0  0  0  0  0  0  0  0  0  0  0
   -5.6341    7.1990  -20.9985 N   0  0  0  0  0  0  0  0  0  0  0  0
   -4.3596    6.7815  -21.2674 C   0  0  0  0  0  0  0  0  0  0  0  0
   -3.5550    7.0447  -22.3855 C   0  0  0  0  0  0  0  0  0  0  0  0
   -2.2223    6.6180  -22.3700 C   0  0  0  0  0  0  0  0  0  0  0  0
   -1.7114    5.9271  -21.2711 C   0  0  0  0  0  0  0  0  0  0  0  0
   -2.5213    5.6040  -20.1747 C   0  0  0  0  0  0  0  0  0  0  0  0
   -3.8496    6.0353  -20.2081 C   0  0  0  0  0  0  0  0  0  0  0  0
  2  1  1  6
  2  3  1  0
  3  4  1  0
  4  5  1  1
  4  6  1  0
  6  7  1  6
  7  8  1  0
  8  9  2  0
  8 10  1  0
 10 11  1  0
 11 12  2  0
 12 13  1  0
 13 14  2  0
 14 15  1  0
 15 16  2  0
 10 17  1  6
 17 18  1  0
 18 19  2  0
 19 20  1  0
 20 21  2  0
 21 22  1  0
 22 23  2  0
 23 24  1  0
 24 25  2  0
  6  2  1  0
 16 11  1  0
 25 17  1  0
 25 20  1  0
M  END
>  <energy_score>  (2398) 
-9.881181

>  <alias>  (2398) 
None

>  <HIPPO Pose ID>  (2398) 
74738

>  <smiles>  (2398) 
C[C@@H]1C[C@@H](O)[C@@H]1NC(=O)[C@@H](c1ccccc1)n1cnc2ccccc21

>  <inchikey>  (2398) 
ZUTZUJLASWSIAN-BYNBJNPRSA-N

>  <distance_score>  (2398) 
1.265746

>  <ref_mols>  (2398) 
Z0101a,Z3880a

>  <ref_pdb>  (2398) 
Z3880a

>  <HIPPO Compound ID>  (2398) 
147674

>  <name>  (2398) 
P74738

>  <inspiration_score>  (2398) 
None

$$$$
P74746
     RDKit          3D

 25 28  0  0  0  0  0  0  0  0999 V2000
   -2.9158    4.7585  -16.7315 O   0  0  0  0  0  0  0  0  0  0  0  0
   -3.4508    5.6401  -17.3152 C   0  0  0  0  0  0  0  0  0  0  0  0
   -4.7041    5.3020  -18.1806 C   0  0  1  0  0  0  0  0  0  0  0  0
   -6.0218    4.9971  -17.4512 C   0  0  0  0  0  0  0  0  0  0  0  0
   -7.1357    4.5100  -18.1720 C   0  0  0  0  0  0  0  0  0  0  0  0
   -8.3424    4.1957  -17.5423 C   0  0  0  0  0  0  0  0  0  0  0  0
   -8.4530    4.3138  -16.1640 C   0  0  0  0  0  0  0  0  0  0  0  0
   -7.3560    4.7374  -15.4202 C   0  0  0  0  0  0  0  0  0  0  0  0
   -6.1512    5.0666  -16.0553 C   0  0  0  0  0  0  0  0  0  0  0  0
   -4.7955    6.0904  -19.4244 N   0  0  0  0  0  0  0  0  0  0  0  0
   -5.8846    6.7767  -19.8705 C   0  0  0  0  0  0  0  0  0  0  0  0
   -5.7030    7.2841  -21.0681 N   0  0  0  0  0  0  0  0  0  0  0  0
   -4.4526    6.8880  -21.4370 C   0  0  0  0  0  0  0  0  0  0  0  0
   -3.7763    7.1242  -22.6420 C   0  0  0  0  0  0  0  0  0  0  0  0
   -2.4367    6.7458  -22.7454 C   0  0  0  0  0  0  0  0  0  0  0  0
   -1.7954    6.1225  -21.6761 C   0  0  0  0  0  0  0  0  0  0  0  0
   -2.4807    5.8084  -20.4925 C   0  0  0  0  0  0  0  0  0  0  0  0
   -3.8199    6.2029  -20.4019 C   0  0  0  0  0  0  0  0  0  0  0  0
   -3.0592    7.1091  -17.4587 N   0  0  0  0  0  0  0  0  0  0  0  0
   -1.8301    7.8509  -16.9882 C   0  0  0  0  0  0  0  0  0  0  0  0
   -2.6509    9.0520  -16.6127 C   0  0  1  0  0  0  0  0  0  0  0  0
   -2.9435   10.0165  -17.6530 O   0  0  0  0  0  0  0  0  0  0  0  0
   -3.6913    7.9931  -16.3073 C   0  0  1  0  0  0  0  0  0  0  0  0
   -5.1233    8.4513  -16.5109 C   0  0  0  0  0  0  0  0  0  0  0  0
   -5.3920    8.9031  -17.8311 O   0  0  0  0  0  0  0  0  0  0  0  0
  1  2  2  0
  2  3  1  0
  3  4  1  0
  4  5  2  0
  5  6  1  0
  6  7  2  0
  7  8  1  0
  8  9  2  0
  3 10  1  6
 10 11  1  0
 11 12  2  0
 12 13  1  0
 13 14  2  0
 14 15  1  0
 15 16  2  0
 16 17  1  0
 17 18  2  0
  2 19  1  0
 19 20  1  0
 20 21  1  0
 21 22  1  6
 21 23  1  0
 23 24  1  6
 24 25  1  0
  9  4  1  0
 18 10  1  0
 23 19  1  0
 18 13  1  0
M  END
>  <energy_score>  (2399) 
-0.940567

>  <alias>  (2399) 
None

>  <HIPPO Pose ID>  (2399) 
74746

>  <smiles>  (2399) 
O=C([C@@H](c1ccccc1)n1cnc2ccccc21)N1C[C@@H](O)[C@H]1CO

>  <inchikey>  (2399) 
PGGFOEPSYMTCPS-KZNAEPCWSA-N

>  <distance_score>  (2399) 
1.299338

>  <ref_mols>  (2399) 
Z0101a,Z3880a

>  <ref_pdb>  (2399) 
Z3880a

>  <HIPPO Compound ID>  (2399) 
147675

>  <name>  (2399) 
P74746

>  <inspiration_score>  (2399) 
None

$$$$
P74749
     RDKit          3D

 25 29  0  0  0  0  0  0  0  0999 V2000
   -2.7896    5.2055  -16.9310 O   0  0  0  0  0  0  0  0  0  0  0  0
   -3.7655    5.8364  -17.1635 C   0  0  0  0  0  0  0  0  0  0  0  0
   -4.8550    5.2522  -18.0966 C   0  0  1  0  0  0  0  0  0  0  0  0
   -6.2084    4.9308  -17.4387 C   0  0  0  0  0  0  0  0  0  0  0  0
   -7.2541    4.3691  -18.2013 C   0  0  0  0  0  0  0  0  0  0  0  0
   -8.4877    4.0519  -17.6305 C   0  0  0  0  0  0  0  0  0  0  0  0
   -8.6897    4.2355  -16.2699 C   0  0  0  0  0  0  0  0  0  0  0  0
   -7.6604    4.7327  -15.4806 C   0  0  0  0  0  0  0  0  0  0  0  0
   -6.4329    5.0727  -16.0577 C   0  0  0  0  0  0  0  0  0  0  0  0
   -4.9136    5.9872  -19.3665 N   0  0  0  0  0  0  0  0  0  0  0  0
   -5.9970    6.6394  -19.8701 C   0  0  0  0  0  0  0  0  0  0  0  0
   -5.7491    7.1968  -21.0322 N   0  0  0  0  0  0  0  0  0  0  0  0
   -4.4739    6.8268  -21.3412 C   0  0  0  0  0  0  0  0  0  0  0  0
   -3.7349    7.1023  -22.4995 C   0  0  0  0  0  0  0  0  0  0  0  0
   -2.3796    6.7696  -22.5213 C   0  0  0  0  0  0  0  0  0  0  0  0
   -1.7862    6.1545  -21.4198 C   0  0  0  0  0  0  0  0  0  0  0  0
   -2.5319    5.7978  -20.2867 C   0  0  0  0  0  0  0  0  0  0  0  0
   -3.8854    6.1442  -20.2780 C   0  0  0  0  0  0  0  0  0  0  0  0
   -4.2309    7.1783  -16.6014 N   0  0  0  0  0  0  0  0  0  0  0  0
   -3.6281    8.0696  -15.4892 C   0  0  0  0  0  0  0  0  0  0  0  0
   -4.2394    9.1910  -16.2605 C   0  0  1  0  0  0  0  0  0  0  0  0
   -3.7885   10.5185  -16.5488 O   0  0  0  0  0  0  0  0  0  0  0  0
   -3.9502   10.6374  -17.9859 C   0  0  0  0  0  0  0  0  0  0  0  0
   -4.4353    9.2244  -18.4340 C   0  0  0  0  0  0  0  0  0  0  0  0
   -3.7188    8.3413  -17.4370 C   0  0  2  0  0  0  0  0  0  0  0  0
  1  2  2  0
  2  3  1  0
  3  4  1  0
  4  5  2  0
  5  6  1  0
  6  7  2  0
  7  8  1  0
  8  9  2  0
  3 10  1  6
 10 11  1  0
 11 12  2  0
 12 13  1  0
 13 14  2  0
 14 15  1  0
 15 16  2  0
 16 17  1  0
 17 18  2  0
  2 19  1  0
 19 20  1  0
 21 20  1  1
 21 22  1  0
 22 23  1  0
 23 24  1  0
 25 24  1  6
  9  4  1  0
 18 10  1  0
 25 19  1  0
 18 13  1  0
 25 21  1  0
M  END
>  <energy_score>  (2400) 
-20.861117

>  <alias>  (2400) 
None

>  <HIPPO Pose ID>  (2400) 
74749

>  <smiles>  (2400) 
O=C([C@@H](c1ccccc1)n1cnc2ccccc21)N1C[C@H]2OCC[C@@H]21

>  <inchikey>  (2400) 
ATYVJTMURXKTRX-IPMKNSEASA-N

>  <distance_score>  (2400) 
1.245062

>  <ref_mols>  (2400) 
Z0101a,Z3880a

>  <ref_pdb>  (2400) 
Z3880a

>  <HIPPO Compound ID>  (2400) 
147676

>  <name>  (2400) 
P74749

>  <inspiration_score>  (2400) 
None

$$$$
P74801
     RDKit          3D

 26 29  0  0  0  0  0  0  0  0999 V2000
   -2.8657    5.0302  -16.8496 O   0  0  0  0  0  0  0  0  0  0  0  0
   -3.7192    5.7260  -17.2464 C   0  0  0  0  0  0  0  0  0  0  0  0
   -3.9591    7.2482  -17.0327 N   0  0  0  0  0  0  0  0  0  0  0  0
   -3.2456    8.2114  -16.2035 C   0  0  2  0  0  0  0  0  0  0  0  0
   -3.4643    7.9215  -14.7080 C   0  0  0  0  0  0  0  0  0  0  0  0
   -2.7595    6.7525  -14.2893 O   0  0  0  0  0  0  0  0  0  0  0  0
   -3.5809    9.6611  -16.5898 C   0  0  0  0  0  0  0  0  0  0  0  0
   -5.0187   10.0467  -16.3715 C   0  0  0  0  0  0  0  0  0  0  0  0
   -5.3811   11.5046  -16.2458 C   0  0  0  0  0  0  0  0  0  0  0  0
   -5.4859   10.6007  -15.0501 C   0  0  0  0  0  0  0  0  0  0  0  0
   -4.8409    5.1727  -18.1662 C   0  0  1  0  0  0  0  0  0  0  0  0
   -6.1817    4.9205  -17.4662 C   0  0  0  0  0  0  0  0  0  0  0  0
   -7.2559    4.3523  -18.1832 C   0  0  0  0  0  0  0  0  0  0  0  0
   -8.4759    4.0703  -17.5676 C   0  0  0  0  0  0  0  0  0  0  0  0
   -8.6361    4.3052  -16.2086 C   0  0  0  0  0  0  0  0  0  0  0  0
   -7.5840    4.8339  -15.4692 C   0  0  0  0  0  0  0  0  0  0  0  0
   -6.3696    5.1416  -16.0907 C   0  0  0  0  0  0  0  0  0  0  0  0
   -4.9101    5.9454  -19.4149 N   0  0  0  0  0  0  0  0  0  0  0  0
   -5.9856    6.6409  -19.8762 C   0  0  0  0  0  0  0  0  0  0  0  0
   -5.7355    7.2485  -21.0118 N   0  0  0  0  0  0  0  0  0  0  0  0
   -4.4678    6.8729  -21.3464 C   0  0  0  0  0  0  0  0  0  0  0  0
   -3.7341    7.1787  -22.5001 C   0  0  0  0  0  0  0  0  0  0  0  0
   -2.3852    6.8227  -22.5478 C   0  0  0  0  0  0  0  0  0  0  0  0
   -1.7916    6.1591  -21.4748 C   0  0  0  0  0  0  0  0  0  0  0  0
   -2.5330    5.7747  -20.3478 C   0  0  0  0  0  0  0  0  0  0  0  0
   -3.8823    6.1374  -20.3186 C   0  0  0  0  0  0  0  0  0  0  0  0
  1  2  2  0
  2  3  1  0
  3  4  1  0
  4  5  1  1
  5  6  1  0
  4  7  1  0
  7  8  1  0
  8  9  1  0
  9 10  1  0
  2 11  1  0
 11 12  1  0
 12 13  2  0
 13 14  1  0
 14 15  2  0
 15 16  1  0
 16 17  2  0
 11 18  1  6
 18 19  1  0
 19 20  2  0
 20 21  1  0
 21 22  2  0
 22 23  1  0
 23 24  2  0
 24 25  1  0
 25 26  2  0
 10  8  1  0
 17 12  1  0
 26 18  1  0
 26 21  1  0
M  END
>  <energy_score>  (2401) 
-12.82747

>  <alias>  (2401) 
None

>  <HIPPO Pose ID>  (2401) 
74801

>  <smiles>  (2401) 
O=C(N[C@H](CO)CC1CC1)[C@@H](c1ccccc1)n1cnc2ccccc21

>  <inchikey>  (2401) 
PYVVTMOALYIKDX-FXAWDEMLSA-N

>  <distance_score>  (2401) 
1.251701

>  <ref_mols>  (2401) 
Z0101a,Z3880a

>  <ref_pdb>  (2401) 
Z3880a

>  <HIPPO Compound ID>  (2401) 
147692

>  <name>  (2401) 
P74801

>  <inspiration_score>  (2401) 
None

$$$$
P74826
     RDKit          3D

 26 29  0  0  0  0  0  0  0  0999 V2000
   -4.3269    8.4454  -13.7450 N   0  0  0  0  0  0  0  0  0  0  0  0
   -3.9665    8.4345  -14.8489 C   0  0  0  0  0  0  0  0  0  0  0  0
   -3.5701    8.4425  -16.2761 C   0  0  1  0  0  0  0  0  0  0  0  0
   -4.2416    7.3626  -16.9768 N   0  0  0  0  0  0  0  0  0  0  0  0
   -3.8601    5.8609  -17.1210 C   0  0  0  0  0  0  0  0  0  0  0  0
   -2.9894    5.2503  -16.6338 O   0  0  0  0  0  0  0  0  0  0  0  0
   -4.8920    5.1816  -18.0635 C   0  0  1  0  0  0  0  0  0  0  0  0
   -6.2547    4.9122  -17.4201 C   0  0  0  0  0  0  0  0  0  0  0  0
   -7.3017    4.3475  -18.1757 C   0  0  0  0  0  0  0  0  0  0  0  0
   -8.5358    4.0504  -17.5979 C   0  0  0  0  0  0  0  0  0  0  0  0
   -8.7355    4.2648  -16.2408 C   0  0  0  0  0  0  0  0  0  0  0  0
   -7.7087    4.7837  -15.4620 C   0  0  0  0  0  0  0  0  0  0  0  0
   -6.4804    5.1048  -16.0447 C   0  0  0  0  0  0  0  0  0  0  0  0
   -4.9202    5.8854  -19.3535 N   0  0  0  0  0  0  0  0  0  0  0  0
   -5.9567    6.6004  -19.8726 C   0  0  0  0  0  0  0  0  0  0  0  0
   -5.6315    7.2084  -20.9898 N   0  0  0  0  0  0  0  0  0  0  0  0
   -4.3584    6.7909  -21.2648 C   0  0  0  0  0  0  0  0  0  0  0  0
   -3.5515    7.0695  -22.3772 C   0  0  0  0  0  0  0  0  0  0  0  0
   -2.2193    6.6416  -22.3646 C   0  0  0  0  0  0  0  0  0  0  0  0
   -1.7107    5.9359  -21.2740 C   0  0  0  0  0  0  0  0  0  0  0  0
   -2.5227    5.5984  -20.1835 C   0  0  0  0  0  0  0  0  0  0  0  0
   -3.8513    6.0289  -20.2154 C   0  0  0  0  0  0  0  0  0  0  0  0
   -3.8871    9.7877  -16.9127 C   0  0  0  0  0  0  0  0  0  0  0  0
   -2.6934   10.6348  -16.5258 C   0  0  0  0  0  0  0  0  0  0  0  0
   -1.5655    9.7559  -16.4837 O   0  0  0  0  0  0  0  0  0  0  0  0
   -2.0439    8.3975  -16.4104 C   0  0  0  0  0  0  0  0  0  0  0  0
  1  2  3  0
  3  2  1  1
  3  4  1  0
  4  5  1  0
  5  6  2  0
  5  7  1  0
  7  8  1  0
  8  9  2  0
  9 10  1  0
 10 11  2  0
 11 12  1  0
 12 13  2  0
  7 14  1  6
 14 15  1  0
 15 16  2  0
 16 17  1  0
 17 18  2  0
 18 19  1  0
 19 20  2  0
 20 21  1  0
 21 22  2  0
  3 23  1  0
 23 24  1  0
 24 25  1  0
 25 26  1  0
 26  3  1  0
 13  8  1  0
 22 14  1  0
 22 17  1  0
M  END
>  <energy_score>  (2402) 
-8.660396

>  <alias>  (2402) 
None

>  <HIPPO Pose ID>  (2402) 
74826

>  <smiles>  (2402) 
N#C[C@@]1(NC(=O)[C@@H](c2ccccc2)n2cnc3ccccc32)CCOC1

>  <inchikey>  (2402) 
QHIDWOKPCJYXMQ-QUCCMNQESA-N

>  <distance_score>  (2402) 
1.262866

>  <ref_mols>  (2402) 
Z0101a,Z3880a

>  <ref_pdb>  (2402) 
Z3880a

>  <HIPPO Compound ID>  (2402) 
147701

>  <name>  (2402) 
P74826

>  <inspiration_score>  (2402) 
None

$$$$
P74846
     RDKit          3D

 26 29  0  0  0  0  0  0  0  0999 V2000
   -4.8597    7.7216  -16.9888 O   0  0  0  0  0  0  0  0  0  0  0  0
   -4.3439    6.6721  -17.0468 C   0  0  0  0  0  0  0  0  0  0  0  0
   -3.0591    6.1389  -16.3437 N   0  0  0  0  0  0  0  0  0  0  0  0
   -2.0876    6.8258  -15.4938 C   0  0  1  0  0  0  0  0  0  0  0  0
   -0.9048    5.8829  -15.2442 C   0  0  0  0  0  0  0  0  0  0  0  0
    0.2211    6.5386  -14.4576 C   0  0  0  0  0  0  0  0  0  0  0  0
    0.6982    7.8078  -15.1492 C   0  0  0  0  0  0  0  0  0  0  0  0
   -0.4504    8.7875  -15.3291 C   0  0  0  0  0  0  0  0  0  0  0  0
   -1.6360    8.1854  -16.0879 C   0  0  2  0  0  0  0  0  0  0  0  0
   -2.6807    9.1591  -16.0109 O   0  0  0  0  0  0  0  0  0  0  0  0
   -4.9362    5.5034  -17.9032 C   0  0  1  0  0  0  0  0  0  0  0  0
   -6.2903    5.0243  -17.3637 C   0  0  0  0  0  0  0  0  0  0  0  0
   -7.2476    4.4001  -18.1834 C   0  0  0  0  0  0  0  0  0  0  0  0
   -8.4831    3.9991  -17.6734 C   0  0  0  0  0  0  0  0  0  0  0  0
   -8.7641    4.1569  -16.3227 C   0  0  0  0  0  0  0  0  0  0  0  0
   -7.8098    4.7028  -15.4751 C   0  0  0  0  0  0  0  0  0  0  0  0
   -6.5848    5.1297  -15.9896 C   0  0  0  0  0  0  0  0  0  0  0  0
   -4.9390    5.9690  -19.2960 N   0  0  0  0  0  0  0  0  0  0  0  0
   -5.9541    6.6494  -19.9005 C   0  0  0  0  0  0  0  0  0  0  0  0
   -5.6166    7.1121  -21.0813 N   0  0  0  0  0  0  0  0  0  0  0  0
   -4.3289    6.6959  -21.2691 C   0  0  0  0  0  0  0  0  0  0  0  0
   -3.4856    6.9033  -22.3709 C   0  0  0  0  0  0  0  0  0  0  0  0
   -2.1508    6.4957  -22.2811 C   0  0  0  0  0  0  0  0  0  0  0  0
   -1.6774    5.8715  -21.1268 C   0  0  0  0  0  0  0  0  0  0  0  0
   -2.5231    5.6048  -20.0414 C   0  0  0  0  0  0  0  0  0  0  0  0
   -3.8515    6.0227  -20.1445 C   0  0  0  0  0  0  0  0  0  0  0  0
  1  2  2  0
  2  3  1  0
  4  3  1  6
  4  5  1  0
  5  6  1  0
  6  7  1  0
  7  8  1  0
  8  9  1  0
  9 10  1  1
  2 11  1  0
 11 12  1  0
 12 13  2  0
 13 14  1  0
 14 15  2  0
 15 16  1  0
 16 17  2  0
 11 18  1  6
 18 19  1  0
 19 20  2  0
 20 21  1  0
 21 22  2  0
 22 23  1  0
 23 24  2  0
 24 25  1  0
 25 26  2  0
  9  4  1  0
 17 12  1  0
 26 18  1  0
 26 21  1  0
M  END
>  <energy_score>  (2403) 
-13.265133

>  <alias>  (2403) 
None

>  <HIPPO Pose ID>  (2403) 
74846

>  <smiles>  (2403) 
O=C(N[C@H]1CCCC[C@@H]1O)[C@@H](c1ccccc1)n1cnc2ccccc21

>  <inchikey>  (2403) 
OPLNBCAZXJJEEI-YSIASYRMSA-N

>  <distance_score>  (2403) 
1.307166

>  <ref_mols>  (2403) 
Z0101a,Z3880a

>  <ref_pdb>  (2403) 
Z3880a

>  <HIPPO Compound ID>  (2403) 
147708

>  <name>  (2403) 
P74846

>  <inspiration_score>  (2403) 
None

$$$$
P74856
     RDKit          3D

 25 27  0  0  0  0  0  0  0  0999 V2000
   -5.6034    6.7188  -25.1842 C   0  0  0  0  0  0  0  0  0  0  0  0
   -6.2669    7.7925  -24.7310 C   0  0  0  0  0  0  0  0  0  0  0  0
   -5.9192    8.6869  -23.5824 C   0  0  0  0  0  0  0  0  0  0  0  0
   -4.6530    8.3571  -23.0186 N   0  0  0  0  0  0  0  0  0  0  0  0
   -3.3618    9.2002  -22.8858 C   0  0  0  0  0  0  0  0  0  0  0  0
   -3.1112   10.2676  -23.2859 O   0  0  0  0  0  0  0  0  0  0  0  0
   -2.3256    8.2897  -22.1650 C   0  0  1  0  0  0  0  0  0  0  0  0
   -0.9688    8.9665  -22.1506 C   0  0  0  0  0  0  0  0  0  0  0  0
   -2.8309    7.8192  -20.8577 N   0  0  0  0  0  0  0  0  0  0  0  0
   -3.0737    8.8385  -19.8185 C   0  0  0  0  0  0  0  0  0  0  0  0
   -3.9030    8.2651  -18.6187 C   0  0  0  0  0  0  0  0  0  0  0  0
   -4.0137    6.7593  -18.7810 C   0  0  0  0  0  0  0  0  0  0  0  0
   -4.9974    5.9364  -18.0081 C   0  0  0  0  0  0  0  0  0  0  0  0
   -5.4076    5.9579  -16.6948 N   0  0  0  0  0  0  0  0  0  0  0  0
   -6.6178    5.2756  -16.5836 C   0  0  0  0  0  0  0  0  0  0  0  0
   -7.5183    5.0995  -15.5249 C   0  0  0  0  0  0  0  0  0  0  0  0
   -8.7797    4.5507  -15.8354 C   0  0  0  0  0  0  0  0  0  0  0  0
   -9.1202    4.1846  -17.1421 C   0  0  0  0  0  0  0  0  0  0  0  0
  -10.5170    3.9211  -17.5904 C   0  0  0  0  0  0  0  0  0  0  0  0
   -8.1556    4.2237  -18.1350 C   0  0  0  0  0  0  0  0  0  0  0  0
   -6.9063    4.7721  -17.8456 C   0  0  0  0  0  0  0  0  0  0  0  0
   -5.7984    5.0154  -18.6555 C   0  0  0  0  0  0  0  0  0  0  0  0
   -5.6274    4.5715  -20.0422 C   0  0  0  0  0  0  0  0  0  0  0  0
   -2.6407    6.1417  -18.9963 C   0  0  0  0  0  0  0  0  0  0  0  0
   -2.0621    6.6782  -20.3229 C   0  0  0  0  0  0  0  0  0  0  0  0
  1  2  2  0
  2  3  1  0
  3  4  1  0
  4  5  1  0
  5  6  2  0
  5  7  1  0
  7  8  1  1
  7  9  1  0
  9 10  1  0
 10 11  1  0
 11 12  1  0
 12 13  1  0
 13 14  1  0
 14 15  1  0
 15 16  2  0
 16 17  1  0
 17 18  2  0
 18 19  1  0
 18 20  1  0
 20 21  2  0
 21 22  1  0
 22 23  1  0
 12 24  1  0
 24 25  1  0
 25  9  1  0
 22 13  2  0
 21 15  1  0
M  END
>  <energy_score>  (2404) 
-2.592177

>  <alias>  (2404) 
None

>  <HIPPO Pose ID>  (2404) 
74856

>  <smiles>  (2404) 
C=CCNC(=O)[C@@H](C)N1CCC(c2[nH]c3ccc(C)cc3c2C)CC1

>  <inchikey>  (2404) 
OKEFTBHNOJIOET-MRXNPFEDSA-N

>  <distance_score>  (2404) 
1.761423

>  <ref_mols>  (2404) 
Z1729a,Z2971a

>  <ref_pdb>  (2404) 
Z1729a

>  <HIPPO Compound ID>  (2404) 
147739

>  <name>  (2404) 
P74856

>  <inspiration_score>  (2404) 
None

$$$$
P74857
     RDKit          3D

 27 30  0  0  0  0  0  0  0  0999 V2000
   -4.9984   11.1416  -26.3016 C   0  0  0  0  0  0  0  0  0  0  0  0
   -5.1120   10.0854  -25.4853 C   0  0  0  0  0  0  0  0  0  0  0  0
   -4.3589    8.7923  -25.6525 C   0  0  0  0  0  0  0  0  0  0  0  0
   -3.3381    8.7002  -24.6369 N   0  0  0  0  0  0  0  0  0  0  0  0
   -2.0797    9.2087  -24.9620 C   0  0  0  0  0  0  0  0  0  0  0  0
   -1.7806    9.6253  -26.0827 O   0  0  0  0  0  0  0  0  0  0  0  0
   -1.0212    9.1865  -23.8840 C   0  0  0  0  0  0  0  0  0  0  0  0
   -1.5983    9.0695  -22.4901 C   0  0  0  0  0  0  0  0  0  0  0  0
   -2.5352    7.8774  -22.4603 C   0  0  1  0  0  0  0  0  0  0  0  0
   -2.9501    7.4948  -21.1179 N   0  0  0  0  0  0  0  0  0  0  0  0
   -3.5967    8.4789  -20.2589 C   0  0  0  0  0  0  0  0  0  0  0  0
   -4.4720    7.7540  -19.2147 C   0  0  0  0  0  0  0  0  0  0  0  0
   -4.2188    6.2422  -19.2807 C   0  0  0  0  0  0  0  0  0  0  0  0
   -5.1787    5.4097  -18.5140 C   0  0  0  0  0  0  0  0  0  0  0  0
   -6.1190    4.6436  -19.1618 C   0  0  0  0  0  0  0  0  0  0  0  0
   -7.1740    4.4555  -18.2736 C   0  0  0  0  0  0  0  0  0  0  0  0
   -8.4893    4.0669  -18.4987 C   0  0  0  0  0  0  0  0  0  0  0  0
   -9.3512    4.0690  -17.4236 C   0  0  0  0  0  0  0  0  0  0  0  0
  -11.0038    3.9198  -17.8075 Cl  0  0  0  0  0  0  0  0  0  0  0  0
   -8.9002    4.3151  -16.1265 C   0  0  0  0  0  0  0  0  0  0  0  0
   -7.5713    4.7051  -15.8854 C   0  0  0  0  0  0  0  0  0  0  0  0
   -6.7399    4.8355  -17.0051 C   0  0  0  0  0  0  0  0  0  0  0  0
   -5.4659    5.3658  -17.1700 N   0  0  0  0  0  0  0  0  0  0  0  0
   -2.7363    5.9515  -19.1691 C   0  0  0  0  0  0  0  0  0  0  0  0
   -2.0419    6.5965  -20.3934 C   0  0  0  0  0  0  0  0  0  0  0  0
   -3.7313    8.1698  -23.3944 C   0  0  0  0  0  0  0  0  0  0  0  0
   -4.9107    7.9465  -23.1138 O   0  0  0  0  0  0  0  0  0  0  0  0
  1  2  2  0
  2  3  1  0
  3  4  1  0
  4  5  1  0
  5  6  2  0
  5  7  1  0
  7  8  1  0
  8  9  1  0
  9 10  1  1
 10 11  1  0
 11 12  1  0
 12 13  1  0
 13 14  1  0
 14 15  2  0
 15 16  1  0
 16 17  2  0
 17 18  1  0
 18 19  1  0
 18 20  2  0
 20 21  1  0
 21 22  2  0
 22 23  1  0
 13 24  1  0
 24 25  1  0
  9 26  1  0
 26 27  2  0
 26  4  1  0
 25 10  1  0
 23 14  1  0
 22 16  1  0
M  END
>  <energy_score>  (2405) 
-3.534074

>  <alias>  (2405) 
None

>  <HIPPO Pose ID>  (2405) 
74857

>  <smiles>  (2405) 
C=CCN1C(=O)CC[C@@H](N2CCC(c3cc4cc(Cl)ccc4[nH]3)CC2)C1=O

>  <inchikey>  (2405) 
VFADSAIEZOKEQK-LJQANCHMSA-N

>  <distance_score>  (2405) 
1.31555

>  <ref_mols>  (2405) 
Z1729a,Z2971a

>  <ref_pdb>  (2405) 
Z1729a

>  <HIPPO Compound ID>  (2405) 
147740

>  <name>  (2405) 
P74857

>  <inspiration_score>  (2405) 
None

$$$$
P74859
     RDKit          3D

 27 30  0  0  0  0  0  0  0  0999 V2000
   -3.2019   12.3419  -24.3427 C   0  0  0  0  0  0  0  0  0  0  0  0
   -3.9850   11.2759  -24.1299 C   0  0  0  0  0  0  0  0  0  0  0  0
   -3.8830    9.9792  -24.8870 C   0  0  0  0  0  0  0  0  0  0  0  0
   -3.3422    8.9625  -24.0174 N   0  0  0  0  0  0  0  0  0  0  0  0
   -1.9627    8.7534  -24.0967 C   0  0  0  0  0  0  0  0  0  0  0  0
   -1.2008    9.4367  -24.7822 O   0  0  0  0  0  0  0  0  0  0  0  0
   -1.4102    7.6191  -23.2792 C   0  0  0  0  0  0  0  0  0  0  0  0
   -2.4759    6.5627  -23.1022 C   0  0  0  0  0  0  0  0  0  0  0  0
   -3.6587    7.1545  -22.3271 C   0  0  1  0  0  0  0  0  0  0  0  0
   -3.3212    7.5675  -20.9158 N   0  0  0  0  0  0  0  0  0  0  0  0
   -4.5102    8.1217  -20.2399 C   0  0  0  0  0  0  0  0  0  0  0  0
   -4.3751    8.2868  -18.7221 C   0  0  0  0  0  0  0  0  0  0  0  0
   -3.9339    7.0222  -17.9744 C   0  0  0  0  0  0  0  0  0  0  0  0
   -5.0794    6.0755  -17.6495 C   0  0  0  0  0  0  0  0  0  0  0  0
   -5.5610    5.9587  -16.3553 N   0  0  0  0  0  0  0  0  0  0  0  0
   -6.7517    5.2691  -16.3300 C   0  0  0  0  0  0  0  0  0  0  0  0
   -7.6255    4.9852  -15.2759 C   0  0  0  0  0  0  0  0  0  0  0  0
   -8.8251    4.3393  -15.5913 C   0  0  0  0  0  0  0  0  0  0  0  0
   -9.1413    3.9969  -16.9022 C   0  0  0  0  0  0  0  0  0  0  0  0
   -8.2280    4.2280  -17.9287 C   0  0  0  0  0  0  0  0  0  0  0  0
   -7.0071    4.8672  -17.6328 C   0  0  0  0  0  0  0  0  0  0  0  0
   -5.8643    5.2183  -18.4083 C   0  0  0  0  0  0  0  0  0  0  0  0
   -5.6464    4.7435  -19.7779 C   0  0  0  0  0  0  0  0  0  0  0  0
   -2.7245    6.4162  -18.6734 C   0  0  0  0  0  0  0  0  0  0  0  0
   -2.7761    6.3914  -20.2017 C   0  0  0  0  0  0  0  0  0  0  0  0
   -4.2459    8.2760  -23.1936 C   0  0  0  0  0  0  0  0  0  0  0  0
   -5.4568    8.5242  -23.1654 O   0  0  0  0  0  0  0  0  0  0  0  0
  1  2  2  0
  2  3  1  0
  3  4  1  0
  4  5  1  0
  5  6  2  0
  5  7  1  0
  7  8  1  0
  8  9  1  0
  9 10  1  1
 10 11  1  0
 11 12  1  0
 12 13  1  0
 13 14  1  0
 14 15  1  0
 15 16  1  0
 16 17  2  0
 17 18  1  0
 18 19  2  0
 19 20  1  0
 20 21  2  0
 21 22  1  0
 22 23  1  0
 13 24  1  0
 24 25  1  0
  9 26  1  0
 26 27  2  0
 26  4  1  0
 25 10  1  0
 22 14  2  0
 21 16  1  0
M  END
>  <energy_score>  (2406) 
-43.825661

>  <alias>  (2406) 
None

>  <HIPPO Pose ID>  (2406) 
74859

>  <smiles>  (2406) 
C=CCN1C(=O)CC[C@@H](N2CCC(c3[nH]c4ccccc4c3C)CC2)C1=O

>  <inchikey>  (2406) 
BRECZVRDTSNWFJ-LJQANCHMSA-N

>  <distance_score>  (2406) 
1.219818

>  <ref_mols>  (2406) 
Z1729a,Z2971a

>  <ref_pdb>  (2406) 
Z1729a

>  <HIPPO Compound ID>  (2406) 
147741

>  <name>  (2406) 
P74859

>  <inspiration_score>  (2406) 
None

$$$$
P74860
     RDKit          3D

 28 31  0  0  0  0  0  0  0  0999 V2000
   -4.4411   11.1754  -24.4662 C   0  0  0  0  0  0  0  0  0  0  0  0
   -4.8805   10.2299  -25.3098 C   0  0  0  0  0  0  0  0  0  0  0  0
   -4.5550    8.7551  -25.3334 C   0  0  0  0  0  0  0  0  0  0  0  0
   -3.5518    8.3864  -24.3629 N   0  0  0  0  0  0  0  0  0  0  0  0
   -2.2246    8.4693  -24.7894 C   0  0  0  0  0  0  0  0  0  0  0  0
   -1.8902    8.7130  -25.9497 O   0  0  0  0  0  0  0  0  0  0  0  0
   -1.1575    8.1883  -23.7647 C   0  0  0  0  0  0  0  0  0  0  0  0
   -1.6702    8.3561  -22.3530 C   0  0  0  0  0  0  0  0  0  0  0  0
   -2.8843    7.4483  -22.1725 C   0  0  1  0  0  0  0  0  0  0  0  0
   -3.2855    7.2674  -20.7599 N   0  0  0  0  0  0  0  0  0  0  0  0
   -3.4820    8.4702  -19.9679 C   0  0  0  0  0  0  0  0  0  0  0  0
   -4.2814    8.1362  -18.7004 C   0  0  0  0  0  0  0  0  0  0  0  0
   -3.7716    6.9086  -17.9023 C   0  0  0  0  0  0  0  0  0  0  0  0
   -4.9034    5.9404  -17.6144 C   0  0  0  0  0  0  0  0  0  0  0  0
   -5.4263    5.7152  -16.3538 N   0  0  0  0  0  0  0  0  0  0  0  0
   -6.6567    5.0969  -16.4501 C   0  0  0  0  0  0  0  0  0  0  0  0
   -7.6218    4.7853  -15.4857 C   0  0  0  0  0  0  0  0  0  0  0  0
   -8.8593    4.3075  -15.9446 C   0  0  0  0  0  0  0  0  0  0  0  0
   -9.1161    4.1390  -17.3068 C   0  0  0  0  0  0  0  0  0  0  0  0
  -10.4714    3.8387  -17.8507 C   0  0  0  0  0  0  0  0  0  0  0  0
   -8.0928    4.3350  -18.2309 C   0  0  0  0  0  0  0  0  0  0  0  0
   -6.8572    4.8317  -17.7973 C   0  0  0  0  0  0  0  0  0  0  0  0
   -5.6841    5.2092  -18.4904 C   0  0  0  0  0  0  0  0  0  0  0  0
   -5.4601    4.9870  -19.9225 C   0  0  0  0  0  0  0  0  0  0  0  0
   -2.5415    6.2514  -18.5392 C   0  0  0  0  0  0  0  0  0  0  0  0
   -2.4285    6.2963  -20.0720 C   0  0  0  0  0  0  0  0  0  0  0  0
   -4.0132    7.9748  -23.0910 C   0  0  0  0  0  0  0  0  0  0  0  0
   -5.2051    8.0023  -22.7816 O   0  0  0  0  0  0  0  0  0  0  0  0
  1  2  2  0
  2  3  1  0
  3  4  1  0
  4  5  1  0
  5  6  2  0
  5  7  1  0
  7  8  1  0
  8  9  1  0
  9 10  1  1
 10 11  1  0
 11 12  1  0
 12 13  1  0
 13 14  1  0
 14 15  1  0
 15 16  1  0
 16 17  2  0
 17 18  1  0
 18 19  2  0
 19 20  1  0
 19 21  1  0
 21 22  2  0
 22 23  1  0
 23 24  1  0
 13 25  1  0
 25 26  1  0
  9 27  1  0
 27 28  2  0
 27  4  1  0
 26 10  1  0
 23 14  2  0
 22 16  1  0
M  END
>  <energy_score>  (2407) 
-19.463866

>  <alias>  (2407) 
None

>  <HIPPO Pose ID>  (2407) 
74860

>  <smiles>  (2407) 
C=CCN1C(=O)CC[C@@H](N2CCC(c3[nH]c4ccc(C)cc4c3C)CC2)C1=O

>  <inchikey>  (2407) 
BHLDYMTUAPBGFJ-HXUWFJFHSA-N

>  <distance_score>  (2407) 
1.220308

>  <ref_mols>  (2407) 
Z1729a,Z2971a

>  <ref_pdb>  (2407) 
Z1729a

>  <HIPPO Compound ID>  (2407) 
147742

>  <name>  (2407) 
P74860

>  <inspiration_score>  (2407) 
None

$$$$
P74861
     RDKit          3D

 28 31  0  0  0  0  0  0  0  0999 V2000
   -2.8055    6.9130  -22.1328 C   0  0  0  0  0  0  0  0  0  0  0  0
   -2.5017    6.4876  -20.7477 C   0  0  0  0  0  0  0  0  0  0  0  0
   -3.3736    6.0497  -19.7589 C   0  0  0  0  0  0  0  0  0  0  0  0
   -2.6128    5.9739  -18.6272 N   0  0  0  0  0  0  0  0  0  0  0  0
   -2.7810    5.7782  -17.2643 C   0  0  0  0  0  0  0  0  0  0  0  0
   -4.0743    5.5127  -16.5946 C   0  0  0  0  0  0  0  0  0  0  0  0
   -5.2560    6.2326  -17.2512 C   0  0  0  0  0  0  0  0  0  0  0  0
   -5.3639    7.3946  -17.2740 O   0  0  0  0  0  0  0  0  0  0  0  0
   -6.1754    5.1262  -17.8321 N   0  0  0  0  0  0  0  0  0  0  0  0
   -7.3573    5.2261  -18.6360 C   0  0  0  0  0  0  0  0  0  0  0  0
   -8.3655    4.1271  -18.3720 C   0  0  0  0  0  0  0  0  0  0  0  0
   -9.2727    4.1873  -17.1318 C   0  0  0  0  0  0  0  0  0  0  0  0
   -8.8049    4.4246  -15.7637 N   0  0  0  0  0  0  0  0  0  0  0  0
   -8.7239    5.8073  -15.3709 C   0  0  0  0  0  0  0  0  0  0  0  0
   -8.4088    6.0740  -13.8890 C   0  0  0  0  0  0  0  0  0  0  0  0
   -7.2415    5.3252  -13.4230 N   0  0  0  0  0  0  0  0  0  0  0  0
   -7.5259    4.7517  -12.1905 C   0  0  0  0  0  0  0  0  0  0  0  0
   -7.3479    3.4370  -12.0093 N   0  0  0  0  0  0  0  0  0  0  0  0
   -7.7194    2.9305  -10.8223 C   0  0  0  0  0  0  0  0  0  0  0  0
   -8.2427    3.6819   -9.8037 C   0  0  0  0  0  0  0  0  0  0  0  0
   -8.3395    5.0217  -10.0632 C   0  0  0  0  0  0  0  0  0  0  0  0
   -7.9893    5.5755  -11.2336 N   0  0  0  0  0  0  0  0  0  0  0  0
   -6.6350    4.4382  -14.3976 C   0  0  0  0  0  0  0  0  0  0  0  0
   -7.6637    3.6795  -15.2615 C   0  0  0  0  0  0  0  0  0  0  0  0
   -1.6115    5.9115  -16.6058 C   0  0  0  0  0  0  0  0  0  0  0  0
   -0.2416    6.2338  -17.6660 S   0  0  0  0  0  0  0  0  0  0  0  0
   -1.3320    6.2396  -19.0138 C   0  0  0  0  0  0  0  0  0  0  0  0
   -1.2078    6.5532  -20.2732 N   0  0  0  0  0  0  0  0  0  0  0  0
  1  2  1  0
  2  3  2  0
  3  4  1  0
  4  5  1  0
  5  6  1  0
  6  7  1  0
  7  8  2  0
  7  9  1  0
  9 10  1  0
 10 11  1  0
 11 12  1  0
 12 13  1  0
 13 14  1  0
 14 15  1  0
 15 16  1  0
 16 17  1  0
 17 18  2  0
 18 19  1  0
 19 20  2  0
 20 21  1  0
 21 22  2  0
 16 23  1  0
 23 24  1  0
  5 25  2  0
 25 26  1  0
 26 27  1  0
 27 28  2  0
 28  2  1  0
 27  4  1  0
 24 13  1  0
 22 17  1  0
M  END
>  <energy_score>  (2408) 
-14.087144

>  <alias>  (2408) 
None

>  <HIPPO Pose ID>  (2408) 
74861

>  <smiles>  (2408) 
Cc1cn2c(CC(=O)NCCCN3CCN(c4ncccn4)CC3)csc2n1

>  <inchikey>  (2408) 
PSBUOTPORSOHFX-UHFFFAOYSA-N

>  <distance_score>  (2408) 
1.321962

>  <ref_mols>  (2408) 
Z0673a,Z1719a

>  <ref_pdb>  (2408) 
Z1719a

>  <HIPPO Compound ID>  (2408) 
147812

>  <name>  (2408) 
P74861

>  <inspiration_score>  (2408) 
None

$$$$
P74862
     RDKit          3D

 28 31  0  0  0  0  0  0  0  0999 V2000
   -0.7941    6.0360  -21.3689 C   0  0  0  0  0  0  0  0  0  0  0  0
   -1.4033    6.1874  -20.0297 C   0  0  0  0  0  0  0  0  0  0  0  0
   -2.4892    6.9671  -19.6521 C   0  0  0  0  0  0  0  0  0  0  0  0
   -2.5573    6.8215  -18.2994 N   0  0  0  0  0  0  0  0  0  0  0  0
   -3.2873    7.3570  -17.2522 C   0  0  0  0  0  0  0  0  0  0  0  0
   -4.3634    8.3689  -17.4669 C   0  0  0  0  0  0  0  0  0  0  0  0
   -5.5760    7.9383  -18.3185 C   0  0  0  0  0  0  0  0  0  0  0  0
   -6.1831    8.7190  -18.9430 O   0  0  0  0  0  0  0  0  0  0  0  0
   -5.8059    6.4171  -18.1128 N   0  0  0  0  0  0  0  0  0  0  0  0
   -6.8833    5.5630  -18.5558 C   0  0  1  0  0  0  0  0  0  0  0  0
   -6.3309    4.6831  -19.6702 C   0  0  0  0  0  0  0  0  0  0  0  0
   -7.4305    4.6690  -17.4184 C   0  0  0  0  0  0  0  0  0  0  0  0
   -8.0073    5.3399  -16.2241 N   0  0  0  0  0  0  0  0  0  0  0  0
   -8.6830    4.3313  -15.3667 C   0  0  0  0  0  0  0  0  0  0  0  0
   -7.6850    3.4603  -14.5814 C   0  0  0  0  0  0  0  0  0  0  0  0
   -6.7900    4.2404  -13.7328 N   0  0  0  0  0  0  0  0  0  0  0  0
   -7.3501    4.5105  -12.4981 C   0  0  0  0  0  0  0  0  0  0  0  0
   -8.0294    3.5114  -11.9086 N   0  0  0  0  0  0  0  0  0  0  0  0
   -8.5308    3.7082  -10.6826 C   0  0  0  0  0  0  0  0  0  0  0  0
   -8.3757    4.8858  -10.0063 C   0  0  0  0  0  0  0  0  0  0  0  0
   -7.6862    5.8620  -10.6822 C   0  0  0  0  0  0  0  0  0  0  0  0
   -7.1632    5.7027  -11.9143 N   0  0  0  0  0  0  0  0  0  0  0  0
   -6.0874    5.2798  -14.4590 C   0  0  0  0  0  0  0  0  0  0  0  0
   -7.0611    6.0822  -15.3410 C   0  0  0  0  0  0  0  0  0  0  0  0
   -2.8601    6.8751  -16.0674 C   0  0  0  0  0  0  0  0  0  0  0  0
   -1.5160    5.7496  -16.2214 S   0  0  0  0  0  0  0  0  0  0  0  0
   -1.5801    5.9465  -17.9419 C   0  0  0  0  0  0  0  0  0  0  0  0
   -0.8603    5.5265  -18.9407 N   0  0  0  0  0  0  0  0  0  0  0  0
  1  2  1  0
  2  3  2  0
  3  4  1  0
  4  5  1  0
  5  6  1  0
  6  7  1  0
  7  8  2  0
  7  9  1  0
  9 10  1  0
 10 11  1  6
 10 12  1  0
 12 13  1  0
 13 14  1  0
 14 15  1  0
 15 16  1  0
 16 17  1  0
 17 18  2  0
 18 19  1  0
 19 20  2  0
 20 21  1  0
 21 22  2  0
 16 23  1  0
 23 24  1  0
  5 25  2  0
 25 26  1  0
 26 27  1  0
 27 28  2  0
 28  2  1  0
 27  4  1  0
 24 13  1  0
 22 17  1  0
M  END
>  <energy_score>  (2409) 
-66.573845

>  <alias>  (2409) 
None

>  <HIPPO Pose ID>  (2409) 
74862

>  <smiles>  (2409) 
Cc1cn2c(CC(=O)N[C@@H](C)CN3CCN(c4ncccn4)CC3)csc2n1

>  <inchikey>  (2409) 
JPJQDPBUDURITC-AWEZNQCLSA-N

>  <distance_score>  (2409) 
1.805222

>  <ref_mols>  (2409) 
Z0673a,Z1719a

>  <ref_pdb>  (2409) 
Z1719a

>  <HIPPO Compound ID>  (2409) 
147816

>  <name>  (2409) 
P74862

>  <inspiration_score>  (2409) 
None

$$$$
P74863
     RDKit          3D

 29 33  0  0  0  0  0  0  0  0999 V2000
   -3.3745    7.2226  -22.5508 C   0  0  0  0  0  0  0  0  0  0  0  0
   -2.8987    6.9165  -21.1823 C   0  0  0  0  0  0  0  0  0  0  0  0
   -3.3359    7.4707  -19.9869 C   0  0  0  0  0  0  0  0  0  0  0  0
   -2.5894    6.8627  -19.0212 N   0  0  0  0  0  0  0  0  0  0  0  0
   -2.4769    6.8851  -17.6346 C   0  0  0  0  0  0  0  0  0  0  0  0
   -3.3872    7.6668  -16.7482 C   0  0  0  0  0  0  0  0  0  0  0  0
   -4.8301    7.6018  -17.2360 C   0  0  0  0  0  0  0  0  0  0  0  0
   -5.4443    8.5610  -17.5098 O   0  0  0  0  0  0  0  0  0  0  0  0
   -5.2010    6.0895  -17.3709 N   0  0  0  0  0  0  0  0  0  0  0  0
   -6.3417    5.4674  -17.9474 C   0  0  0  0  0  0  0  0  0  0  0  0
   -7.1777    4.5807  -17.0561 C   0  0  0  0  0  0  0  0  0  0  0  0
   -7.9645    5.2523  -16.0039 N   0  0  0  0  0  0  0  0  0  0  0  0
   -8.6303    4.1984  -15.1960 C   0  0  0  0  0  0  0  0  0  0  0  0
   -7.6472    3.3920  -14.3143 C   0  0  0  0  0  0  0  0  0  0  0  0
   -6.8332    4.2435  -13.4493 N   0  0  0  0  0  0  0  0  0  0  0  0
   -7.4351    4.4795  -12.2281 C   0  0  0  0  0  0  0  0  0  0  0  0
   -7.2885    5.6665  -11.6228 N   0  0  0  0  0  0  0  0  0  0  0  0
   -7.8197    5.7892  -10.3924 C   0  0  0  0  0  0  0  0  0  0  0  0
   -8.4798    4.7790   -9.7388 C   0  0  0  0  0  0  0  0  0  0  0  0
   -8.6052    3.6127  -10.4406 C   0  0  0  0  0  0  0  0  0  0  0  0
   -8.0928    3.4523  -11.6661 N   0  0  0  0  0  0  0  0  0  0  0  0
   -6.1831    5.3435  -14.1403 C   0  0  0  0  0  0  0  0  0  0  0  0
   -7.1860    6.0795  -15.0434 C   0  0  0  0  0  0  0  0  0  0  0  0
   -7.0481    6.1439  -19.0642 C   0  0  0  0  0  0  0  0  0  0  0  0
   -6.1691    4.9736  -19.3732 C   0  0  0  0  0  0  0  0  0  0  0  0
   -1.4735    6.0876  -17.2214 C   0  0  0  0  0  0  0  0  0  0  0  0
   -0.6055    5.3287  -18.5604 S   0  0  0  0  0  0  0  0  0  0  0  0
   -1.7183    6.0417  -19.6701 C   0  0  0  0  0  0  0  0  0  0  0  0
   -1.8861    5.9970  -20.9645 N   0  0  0  0  0  0  0  0  0  0  0  0
  1  2  1  0
  2  3  2  0
  3  4  1  0
  4  5  1  0
  5  6  1  0
  6  7  1  0
  7  8  2  0
  7  9  1  0
  9 10  1  0
 10 11  1  0
 11 12  1  0
 12 13  1  0
 13 14  1  0
 14 15  1  0
 15 16  1  0
 16 17  2  0
 17 18  1  0
 18 19  2  0
 19 20  1  0
 20 21  2  0
 15 22  1  0
 22 23  1  0
 10 24  1  0
 24 25  1  0
  5 26  2  0
 26 27  1  0
 27 28  1  0
 28 29  2  0
 29  2  1  0
 28  4  1  0
 25 10  1  0
 23 12  1  0
 21 16  1  0
M  END
>  <energy_score>  (2410) 
-35.260901

>  <alias>  (2410) 
None

>  <HIPPO Pose ID>  (2410) 
74863

>  <smiles>  (2410) 
Cc1cn2c(CC(=O)NC3(CN4CCN(c5ncccn5)CC4)CC3)csc2n1

>  <inchikey>  (2410) 
RFXJNMOXFSBLNS-UHFFFAOYSA-N

>  <distance_score>  (2410) 
1.88031

>  <ref_mols>  (2410) 
Z0673a,Z1719a

>  <ref_pdb>  (2410) 
Z1719a

>  <HIPPO Compound ID>  (2410) 
147824

>  <name>  (2410) 
P74863

>  <inspiration_score>  (2410) 
None

$$$$
P74864
     RDKit          3D

 29 32  0  0  0  0  0  0  0  0999 V2000
   -2.3136    6.7857  -22.0620 C   0  0  0  0  0  0  0  0  0  0  0  0
   -2.1907    6.4128  -20.6354 C   0  0  0  0  0  0  0  0  0  0  0  0
   -3.1408    5.8477  -19.7931 C   0  0  0  0  0  0  0  0  0  0  0  0
   -2.5577    5.8552  -18.5579 N   0  0  0  0  0  0  0  0  0  0  0  0
   -2.9037    5.5820  -17.2448 C   0  0  0  0  0  0  0  0  0  0  0  0
   -4.2380    5.0784  -16.8413 C   0  0  0  0  0  0  0  0  0  0  0  0
   -5.3705    5.8931  -17.4709 C   0  0  0  0  0  0  0  0  0  0  0  0
   -5.3964    7.0607  -17.4563 O   0  0  0  0  0  0  0  0  0  0  0  0
   -6.3176    4.8750  -18.1592 N   0  0  0  0  0  0  0  0  0  0  0  0
   -7.4192    5.0844  -19.0363 C   0  0  0  0  0  0  0  0  0  0  0  0
   -8.5625    4.0871  -18.9679 C   0  0  0  0  0  0  0  0  0  0  0  0
   -9.5363    4.1650  -17.7947 C   0  0  0  0  0  0  0  0  0  0  0  0
   -8.9759    3.8175  -16.4182 C   0  0  0  0  0  0  0  0  0  0  0  0
   -7.9673    4.6948  -15.8379 N   0  0  0  0  0  0  0  0  0  0  0  0
   -8.5592    5.8327  -15.1326 C   0  0  0  0  0  0  0  0  0  0  0  0
   -8.6657    5.7144  -13.6122 C   0  0  0  0  0  0  0  0  0  0  0  0
   -7.3347    5.5384  -13.0171 N   0  0  0  0  0  0  0  0  0  0  0  0
   -7.5464    4.8602  -11.8206 C   0  0  0  0  0  0  0  0  0  0  0  0
   -7.3278    3.5387  -11.7596 N   0  0  0  0  0  0  0  0  0  0  0  0
   -7.6845    2.9182  -10.6253 C   0  0  0  0  0  0  0  0  0  0  0  0
   -8.2422    3.5640   -9.5541 C   0  0  0  0  0  0  0  0  0  0  0  0
   -8.3946    4.9168   -9.7029 C   0  0  0  0  0  0  0  0  0  0  0  0
   -8.0668    5.5819  -10.8190 N   0  0  0  0  0  0  0  0  0  0  0  0
   -6.3653    4.8851  -13.8922 C   0  0  0  0  0  0  0  0  0  0  0  0
   -7.0648    3.9714  -14.9165 C   0  0  0  0  0  0  0  0  0  0  0  0
   -1.8836    5.8499  -16.4049 C   0  0  0  0  0  0  0  0  0  0  0  0
   -0.4286    6.4100  -17.2313 S   0  0  0  0  0  0  0  0  0  0  0  0
   -1.2877    6.3141  -18.7344 C   0  0  0  0  0  0  0  0  0  0  0  0
   -1.0128    6.6659  -19.9589 N   0  0  0  0  0  0  0  0  0  0  0  0
  1  2  1  0
  2  3  2  0
  3  4  1  0
  4  5  1  0
  5  6  1  0
  6  7  1  0
  7  8  2  0
  7  9  1  0
  9 10  1  0
 10 11  1  0
 11 12  1  0
 12 13  1  0
 13 14  1  0
 14 15  1  0
 15 16  1  0
 16 17  1  0
 17 18  1  0
 18 19  2  0
 19 20  1  0
 20 21  2  0
 21 22  1  0
 22 23  2  0
 17 24  1  0
 24 25  1  0
  5 26  2  0
 26 27  1  0
 27 28  1  0
 28 29  2  0
 29  2  1  0
 28  4  1  0
 25 14  1  0
 23 18  1  0
M  END
>  <energy_score>  (2411) 
-31.143821

>  <alias>  (2411) 
None

>  <HIPPO Pose ID>  (2411) 
74864

>  <smiles>  (2411) 
Cc1cn2c(CC(=O)NCCCCN3CCN(c4ncccn4)CC3)csc2n1

>  <inchikey>  (2411) 
HQRRRKQNCVCKRF-UHFFFAOYSA-N

>  <distance_score>  (2411) 
1.235105

>  <ref_mols>  (2411) 
Z0673a,Z1719a

>  <ref_pdb>  (2411) 
Z1719a

>  <HIPPO Compound ID>  (2411) 
147828

>  <name>  (2411) 
P74864

>  <inspiration_score>  (2411) 
None

$$$$
P74865
     RDKit          3D

 26 28  0  0  0  0  0  0  0  0999 V2000
   -6.0754    7.1808  -11.6349 O   0  0  0  0  0  0  0  0  0  0  0  0
   -6.3788    6.0664  -11.5047 C   0  0  0  0  0  0  0  0  0  0  0  0
   -5.9950    4.8375  -12.3163 N   0  0  0  0  0  0  0  0  0  0  0  0
   -5.2358    4.7199  -13.5138 C   0  0  0  0  0  0  0  0  0  0  0  0
   -6.1981    4.7463  -14.6458 C   0  0  0  0  0  0  0  0  0  0  0  0
   -7.5009    4.5226  -14.5783 N   0  0  0  0  0  0  0  0  0  0  0  0
   -7.9125    4.4340  -15.8747 C   0  0  0  0  0  0  0  0  0  0  0  0
   -9.1431    4.0875  -16.4211 C   0  0  0  0  0  0  0  0  0  0  0  0
   -9.2376    4.0427  -17.8083 C   0  0  0  0  0  0  0  0  0  0  0  0
   -8.1113    4.3389  -18.5691 C   0  0  0  0  0  0  0  0  0  0  0  0
   -6.8920    4.7018  -18.0891 N   0  0  0  0  0  0  0  0  0  0  0  0
   -6.8746    4.7138  -16.7467 C   0  0  0  0  0  0  0  0  0  0  0  0
   -5.8007    4.9555  -15.9449 N   0  0  0  0  0  0  0  0  0  0  0  0
   -7.2858    5.6698  -10.4380 C   0  0  0  0  0  0  0  0  0  0  0  0
   -7.9389    6.4783   -9.5364 C   0  0  0  0  0  0  0  0  0  0  0  0
   -8.5912    5.6268   -8.6376 C   0  0  0  0  0  0  0  0  0  0  0  0
   -8.3721    4.3310   -9.0634 C   0  0  0  0  0  0  0  0  0  0  0  0
   -8.7731    3.0237   -8.4720 C   0  0  0  0  0  0  0  0  0  0  0  0
   -8.4754    3.1259   -7.0630 N   0  0  0  0  0  0  0  0  0  0  0  0
   -9.2764    3.8066   -5.9014 C   0  0  0  0  0  0  0  0  0  0  0  0
  -10.3341    4.3174   -5.9043 O   0  0  0  0  0  0  0  0  0  0  0  0
   -8.3733    3.8216   -4.6353 C   0  0  0  0  0  0  0  0  0  0  0  0
   -8.9715    3.3382   -3.5143 F   0  0  0  0  0  0  0  0  0  0  0  0
   -7.1858    3.1608   -4.7912 F   0  0  0  0  0  0  0  0  0  0  0  0
   -8.0073    5.1052   -4.3242 F   0  0  0  0  0  0  0  0  0  0  0  0
   -7.5849    4.3455  -10.1858 O   0  0  0  0  0  0  0  0  0  0  0  0
  1  2  2  0
  2  3  1  0
  3  4  1  0
  4  5  1  0
  5  6  2  0
  6  7  1  0
  7  8  2  0
  8  9  1  0
  9 10  2  0
 10 11  1  0
 11 12  2  0
 12 13  1  0
  2 14  1  0
 14 15  2  0
 15 16  1  0
 16 17  2  0
 17 18  1  0
 18 19  1  0
 19 20  1  0
 20 21  2  0
 20 22  1  0
 22 23  1  0
 22 24  1  0
 22 25  1  0
 17 26  1  0
 13  5  1  0
 26 14  1  0
 12  7  1  0
M  END
>  <energy_score>  (2412) 
-3.895504

>  <alias>  (2412) 
None

>  <HIPPO Pose ID>  (2412) 
74865

>  <smiles>  (2412) 
O=C(NCc1nc2cccnc2[nH]1)c1ccc(CNC(=O)C(F)(F)F)o1

>  <inchikey>  (2412) 
WJZGXNRJAVPIGE-UHFFFAOYSA-N

>  <distance_score>  (2412) 
1.72694

>  <ref_mols>  (2412) 
Z0852a,Z4245a

>  <ref_pdb>  (2412) 
Z4245a

>  <HIPPO Compound ID>  (2412) 
147979

>  <name>  (2412) 
P74865

>  <inspiration_score>  (2412) 
None

$$$$
P74866
     RDKit          3D

 28 30  0  0  0  0  0  0  0  0999 V2000
   -5.3600    5.2725  -19.3156 C   0  0  0  0  0  0  0  0  0  0  0  0
   -6.6589    4.7226  -19.4776 O   0  0  0  0  0  0  0  0  0  0  0  0
   -7.3895    4.6066  -18.3103 C   0  0  0  0  0  0  0  0  0  0  0  0
   -8.7237    4.2177  -18.5162 C   0  0  0  0  0  0  0  0  0  0  0  0
   -9.5812    3.9798  -17.4514 C   0  0  0  0  0  0  0  0  0  0  0  0
   -9.1143    4.0490  -16.1464 C   0  0  0  0  0  0  0  0  0  0  0  0
   -7.8012    4.4548  -15.9673 C   0  0  0  0  0  0  0  0  0  0  0  0
   -7.0618    4.5491  -14.8364 N   0  0  0  0  0  0  0  0  0  0  0  0
   -5.8538    5.1199  -15.1291 C   0  0  0  0  0  0  0  0  0  0  0  0
   -4.9066    5.4529  -14.0182 C   0  0  0  0  0  0  0  0  0  0  0  0
   -5.6126    5.2335  -12.7730 N   0  0  0  0  0  0  0  0  0  0  0  0
   -5.5410    4.0610  -11.7745 C   0  0  0  0  0  0  0  0  0  0  0  0
   -4.8475    3.1256  -11.7577 O   0  0  0  0  0  0  0  0  0  0  0  0
   -6.6199    4.2015  -10.7859 C   0  0  0  0  0  0  0  0  0  0  0  0
   -7.3050    5.2748  -10.2414 C   0  0  0  0  0  0  0  0  0  0  0  0
   -8.2460    4.7419   -9.3200 C   0  0  0  0  0  0  0  0  0  0  0  0
   -8.1148    3.3695   -9.3652 C   0  0  0  0  0  0  0  0  0  0  0  0
   -8.7346    2.2119   -8.6711 C   0  0  0  0  0  0  0  0  0  0  0  0
   -9.3862    2.5919   -7.4401 N   0  0  0  0  0  0  0  0  0  0  0  0
   -8.8133    3.3047   -6.1597 C   0  0  0  0  0  0  0  0  0  0  0  0
   -7.7116    3.6162   -5.8901 O   0  0  0  0  0  0  0  0  0  0  0  0
  -10.0291    3.6394   -5.2658 C   0  0  0  0  0  0  0  0  0  0  0  0
   -9.7363    3.7762   -3.9445 F   0  0  0  0  0  0  0  0  0  0  0  0
  -10.5865    4.8293   -5.6551 F   0  0  0  0  0  0  0  0  0  0  0  0
  -11.0363    2.7261   -5.3637 F   0  0  0  0  0  0  0  0  0  0  0  0
   -7.1583    3.0455  -10.2820 O   0  0  0  0  0  0  0  0  0  0  0  0
   -5.7306    5.2647  -16.4384 N   0  0  0  0  0  0  0  0  0  0  0  0
   -6.9277    4.7936  -16.9882 C   0  0  0  0  0  0  0  0  0  0  0  0
  1  2  1  0
  2  3  1  0
  3  4  2  0
  4  5  1  0
  5  6  2  0
  6  7  1  0
  7  8  1  0
  8  9  1  0
  9 10  1  0
 10 11  1  0
 11 12  1  0
 12 13  2  0
 12 14  1  0
 14 15  2  0
 15 16  1  0
 16 17  2  0
 17 18  1  0
 18 19  1  0
 19 20  1  0
 20 21  2  0
 20 22  1  0
 22 23  1  0
 22 24  1  0
 22 25  1  0
 17 26  1  0
  9 27  2  0
 27 28  1  0
 28  3  1  0
 28  7  2  0
 26 14  1  0
M  END
>  <energy_score>  (2413) 
-4.138465

>  <alias>  (2413) 
None

>  <HIPPO Pose ID>  (2413) 
74866

>  <smiles>  (2413) 
COc1cccc2[nH]c(CNC(=O)c3ccc(CNC(=O)C(F)(F)F)o3)nc12

>  <inchikey>  (2413) 
HEUFGDLOZXSHQB-UHFFFAOYSA-N

>  <distance_score>  (2413) 
1.768796

>  <ref_mols>  (2413) 
Z0852a,Z4245a

>  <ref_pdb>  (2413) 
Z4245a

>  <HIPPO Compound ID>  (2413) 
147997

>  <name>  (2413) 
P74866

>  <inspiration_score>  (2413) 
None

$$$$
P74867
     RDKit          3D

 26 28  0  0  0  0  0  0  0  0999 V2000
   -3.0251    9.3012  -20.3083 C   0  0  0  0  0  0  0  0  0  0  0  0
   -3.9299    8.1702  -20.1780 N   0  0  0  0  0  0  0  0  0  0  0  0
   -4.7814    8.1237  -19.0929 C   0  0  0  0  0  0  0  0  0  0  0  0
   -5.6386    7.1114  -18.9416 C   0  0  0  0  0  0  0  0  0  0  0  0
   -5.6263    6.0168  -19.8823 C   0  0  0  0  0  0  0  0  0  0  0  0
   -6.1643    4.6654  -19.5662 C   0  0  0  0  0  0  0  0  0  0  0  0
   -5.8438    3.6963  -20.2470 O   0  0  0  0  0  0  0  0  0  0  0  0
   -6.9360    4.5493  -18.4393 N   0  0  0  0  0  0  0  0  0  0  0  0
   -8.3611    4.6368  -18.5754 C   0  0  0  0  0  0  0  0  0  0  0  0
   -9.0767    3.9722  -17.4125 C   0  0  0  0  0  0  0  0  0  0  0  0
   -8.5821    4.3525  -16.0120 C   0  0  0  0  0  0  0  0  0  0  0  0
   -7.1662    4.9179  -15.9571 C   0  0  1  0  0  0  0  0  0  0  0  0
   -6.3635    4.7507  -14.6264 C   0  0  0  0  0  0  0  0  0  0  0  0
   -5.1942    4.7373  -14.6620 O   0  0  0  0  0  0  0  0  0  0  0  0
   -7.3357    4.7278  -13.4100 N   0  0  0  0  0  0  0  0  0  0  0  0
   -7.0639    4.5861  -11.9808 C   0  0  1  0  0  0  0  0  0  0  0  0
   -7.8850    5.5429  -11.1240 C   0  0  0  0  0  0  0  0  0  0  0  0
   -8.2649    4.8422   -9.9378 O   0  0  0  0  0  0  0  0  0  0  0  0
   -8.3937    3.4589  -10.2939 C   0  0  0  0  0  0  0  0  0  0  0  0
   -7.3959    3.1992  -11.4165 C   0  0  2  0  0  0  0  0  0  0  0  0
   -6.1503    2.4975  -10.8622 C   0  0  0  0  0  0  0  0  0  0  0  0
   -5.1360    2.3871  -11.8528 O   0  0  0  0  0  0  0  0  0  0  0  0
   -6.3522    4.3419  -17.1260 C   0  0  0  0  0  0  0  0  0  0  0  0
   -4.8514    6.0651  -20.9756 C   0  0  0  0  0  0  0  0  0  0  0  0
   -3.9612    7.2164  -21.1912 C   0  0  0  0  0  0  0  0  0  0  0  0
   -3.3017    7.2749  -22.2263 O   0  0  0  0  0  0  0  0  0  0  0  0
  1  2  1  0
  2  3  1  0
  3  4  2  0
  4  5  1  0
  5  6  1  0
  6  7  2  0
  6  8  1  0
  8  9  1  0
  9 10  1  0
 10 11  1  0
 11 12  1  0
 12 13  1  1
 13 14  2  0
 13 15  1  0
 16 15  1  6
 16 17  1  0
 17 18  1  0
 18 19  1  0
 19 20  1  0
 20 21  1  1
 21 22  1  0
 12 23  1  0
  5 24  2  0
 24 25  1  0
 25 26  2  0
 25  2  1  0
 23  8  1  0
 20 16  1  0
M  END
>  <energy_score>  (2414) 
-1.992387

>  <alias>  (2414) 
None

>  <HIPPO Pose ID>  (2414) 
74867

>  <smiles>  (2414) 
Cn1ccc(C(=O)N2CCC[C@@H](C(=O)N[C@H]3COC[C@@H]3CO)C2)cc1=O

>  <inchikey>  (2414) 
QJVBAUAGPXKMME-ILXRZTDVSA-N

>  <distance_score>  (2414) 
1.846261

>  <ref_mols>  (2414) 
Z4245a,Z0819a

>  <ref_pdb>  (2414) 
Z4245a

>  <HIPPO Compound ID>  (2414) 
148204

>  <name>  (2414) 
P74867

>  <inspiration_score>  (2414) 
None

$$$$
P74868
     RDKit          3D

 35 38  0  0  0  0  0  0  0  0999 V2000
   -3.1797    8.8676  -20.4080 C   0  0  0  0  0  0  0  0  0  0  0  0
   -4.0996    7.7613  -20.2076 N   0  0  0  0  0  0  0  0  0  0  0  0
   -3.7963    6.5381  -20.7764 C   0  0  0  0  0  0  0  0  0  0  0  0
   -4.6391    5.5078  -20.6837 C   0  0  0  0  0  0  0  0  0  0  0  0
   -5.8342    5.6227  -19.8728 C   0  0  0  0  0  0  0  0  0  0  0  0
   -6.5245    4.3642  -19.4556 C   0  0  0  0  0  0  0  0  0  0  0  0
   -6.2146    3.3127  -19.9961 O   0  0  0  0  0  0  0  0  0  0  0  0
   -7.4080    4.4265  -18.4102 N   0  0  0  0  0  0  0  0  0  0  0  0
   -8.8054    4.5949  -18.7025 C   0  0  0  0  0  0  0  0  0  0  0  0
   -9.7026    4.0310  -17.6204 C   0  0  0  0  0  0  0  0  0  0  0  0
   -9.2739    4.4031  -16.2067 C   0  0  0  0  0  0  0  0  0  0  0  0
   -7.8567    3.9638  -15.9136 C   0  0  2  0  0  0  0  0  0  0  0  0
   -7.2996    4.5826  -14.6098 C   0  0  0  0  0  0  0  0  0  0  0  0
   -6.4047    5.3341  -14.6387 O   0  0  0  0  0  0  0  0  0  0  0  0
   -8.1813    4.1109  -13.4174 N   0  0  0  0  0  0  0  0  0  0  0  0
   -8.2010    4.5471  -12.0176 C   0  0  2  0  0  0  0  0  0  0  0  0
   -8.0314    6.0879  -12.0002 C   0  0  0  0  0  0  0  0  0  0  0  0
   -6.8727    6.6081  -11.1551 C   0  0  0  0  0  0  0  0  0  0  0  0
   -6.8522    5.9767   -9.7846 C   0  0  1  0  0  0  0  0  0  0  0  0
   -8.1601    5.8717   -9.1198 C   0  0  0  0  0  0  0  0  0  0  0  0
   -7.9560    4.3966   -8.6901 N   0  0  0  0  0  0  0  0  0  0  0  0
   -7.8114    4.2765   -7.2140 C   0  0  0  0  0  0  0  0  0  0  0  0
   -6.8519    4.3130   -6.5386 O   0  0  0  0  0  0  0  0  0  0  0  0
   -9.0858    4.2021   -6.7676 O   0  0  0  0  0  0  0  0  0  0  0  0
   -9.3937    3.2553   -5.7348 C   0  0  0  0  0  0  0  0  0  0  0  0
  -10.8477    3.5224   -5.4189 C   0  0  0  0  0  0  0  0  0  0  0  0
   -8.5859    3.5294   -4.4648 C   0  0  0  0  0  0  0  0  0  0  0  0
   -9.3183    1.8598   -6.3489 C   0  0  0  0  0  0  0  0  0  0  0  0
   -6.8961    4.5017   -9.7953 C   0  0  1  0  0  0  0  0  0  0  0  0
   -7.2160    3.7687  -11.1137 C   0  0  2  0  0  0  0  0  0  0  0  0
   -5.9654    3.6066  -11.8070 O   0  0  0  0  0  0  0  0  0  0  0  0
   -6.9043    4.3211  -17.0562 C   0  0  0  0  0  0  0  0  0  0  0  0
   -6.1286    6.7940  -19.2963 C   0  0  0  0  0  0  0  0  0  0  0  0
   -5.3023    7.9879  -19.5464 C   0  0  0  0  0  0  0  0  0  0  0  0
   -5.7244    9.0776  -19.1614 O   0  0  0  0  0  0  0  0  0  0  0  0
  1  2  1  0
  2  3  1  0
  3  4  2  0
  4  5  1  0
  5  6  1  0
  6  7  2  0
  6  8  1  0
  8  9  1  0
  9 10  1  0
 10 11  1  0
 11 12  1  0
 12 13  1  1
 13 14  2  0
 13 15  1  0
 16 15  1  6
 16 17  1  0
 17 18  1  0
 19 18  1  6
 19 20  1  0
 20 21  1  0
 21 22  1  0
 22 23  2  0
 22 24  1  0
 24 25  1  0
 25 26  1  0
 25 27  1  0
 25 28  1  0
 29 21  1  1
 29 30  1  0
 30 31  1  6
 12 32  1  0
  5 33  2  0
 33 34  1  0
 34 35  2  0
 34  2  1  0
 32  8  1  0
 30 16  1  0
 29 19  1  0
M  END
>  <energy_score>  (2415) 
-4.320068

>  <alias>  (2415) 
None

>  <HIPPO Pose ID>  (2415) 
74868

>  <smiles>  (2415) 
Cn1ccc(C(=O)N2CCC[C@H](C(=O)N[C@@H]3CC[C@H]4CN(C(=O)OC(C)(C)C)[C@H]4[C@@H]3O)C2)cc1=O

>  <inchikey>  (2415) 
UASXKRMYIMIGIW-FSAOVCISSA-N

>  <distance_score>  (2415) 
1.940269

>  <ref_mols>  (2415) 
Z4245a,Z0819a

>  <ref_pdb>  (2415) 
Z4245a

>  <HIPPO Compound ID>  (2415) 
148408

>  <name>  (2415) 
P74868

>  <inspiration_score>  (2415) 
None

$$$$
P74869
     RDKit          3D

 26 29  0  0  0  0  0  0  0  0999 V2000
   -3.5560    5.1648  -15.3624 C   0  0  0  0  0  0  0  0  0  0  0  0
   -4.7759    5.9769  -15.0572 C   0  0  0  0  0  0  0  0  0  0  0  0
   -4.7273    7.0627  -14.4878 O   0  0  0  0  0  0  0  0  0  0  0  0
   -6.0637    5.4276  -15.4553 C   0  0  0  0  0  0  0  0  0  0  0  0
   -6.9454    4.9644  -14.4829 C   0  0  0  0  0  0  0  0  0  0  0  0
   -6.6457    5.0063  -13.0199 C   0  0  0  0  0  0  0  0  0  0  0  0
   -8.1283    4.4178  -14.8001 N   0  0  0  0  0  0  0  0  0  0  0  0
   -8.4636    4.3649  -16.0802 C   0  0  0  0  0  0  0  0  0  0  0  0
   -9.7334    3.9387  -16.3272 C   0  0  0  0  0  0  0  0  0  0  0  0
  -10.3073    4.0189  -17.5813 C   0  0  0  0  0  0  0  0  0  0  0  0
   -9.5363    4.4825  -18.6107 C   0  0  0  0  0  0  0  0  0  0  0  0
   -8.2279    4.8501  -18.3779 C   0  0  0  0  0  0  0  0  0  0  0  0
   -7.6509    4.8069  -17.1189 C   0  0  0  0  0  0  0  0  0  0  0  0
   -6.3798    5.3115  -16.8026 C   0  0  0  0  0  0  0  0  0  0  0  0
   -5.4432    5.6735  -17.7888 N   0  0  0  0  0  0  0  0  0  0  0  0
   -5.2748    5.1783  -19.2408 C   0  0  0  0  0  0  0  0  0  0  0  0
   -5.8356    4.3396  -19.8214 O   0  0  0  0  0  0  0  0  0  0  0  0
   -4.1652    5.8730  -19.9523 C   0  0  0  0  0  0  0  0  0  0  0  0
   -4.4265    6.4320  -21.1682 N   0  0  0  0  0  0  0  0  0  0  0  0
   -3.3806    6.9072  -21.8864 C   0  0  0  0  0  0  0  0  0  0  0  0
   -2.0660    6.8752  -21.4508 C   0  0  0  0  0  0  0  0  0  0  0  0
   -1.8455    6.3336  -20.2012 C   0  0  0  0  0  0  0  0  0  0  0  0
   -2.8897    5.8182  -19.4525 C   0  0  0  0  0  0  0  0  0  0  0  0
   -2.4971    5.3228  -18.2431 O   0  0  0  0  0  0  0  0  0  0  0  0
   -1.0547    5.2785  -18.3523 C   0  0  0  0  0  0  0  0  0  0  0  0
   -0.6026    6.2887  -19.4008 C   0  0  0  0  0  0  0  0  0  0  0  0
  1  2  1  0
  2  3  2  0
  2  4  1  0
  4  5  2  0
  5  6  1  0
  5  7  1  0
  7  8  2  0
  8  9  1  0
  9 10  2  0
 10 11  1  0
 11 12  2  0
 12 13  1  0
 13 14  2  0
 14 15  1  0
 15 16  1  0
 16 17  2  0
 16 18  1  0
 18 19  2  0
 19 20  1  0
 20 21  2  0
 21 22  1  0
 22 23  2  0
 23 24  1  0
 24 25  1  0
 25 26  1  0
 14  4  1  0
 23 18  1  0
 13  8  1  0
 26 22  1  0
M  END
>  <energy_score>  (2416) 
-24.936374

>  <alias>  (2416) 
None

>  <HIPPO Pose ID>  (2416) 
74869

>  <smiles>  (2416) 
CC(=O)c1c(C)nc2ccccc2c1NC(=O)c1nccc2c1OCC2

>  <inchikey>  (2416) 
RKNHTSMDJUETSH-UHFFFAOYSA-N

>  <distance_score>  (2416) 
1.878156

>  <ref_mols>  (2416) 
Z3476a,Z0852a

>  <ref_pdb>  (2416) 
Z3476a

>  <HIPPO Compound ID>  (2416) 
148507

>  <name>  (2416) 
P74869

>  <inspiration_score>  (2416) 
None

$$$$
P74870
     RDKit          3D

 26 29  0  0  0  0  0  0  0  0999 V2000
   -6.7068    4.9160  -12.9983 C   0  0  0  0  0  0  0  0  0  0  0  0
   -6.9443    4.9315  -14.4761 C   0  0  0  0  0  0  0  0  0  0  0  0
   -8.1225    4.3911  -14.8144 N   0  0  0  0  0  0  0  0  0  0  0  0
   -8.4507    4.3599  -16.0905 C   0  0  0  0  0  0  0  0  0  0  0  0
   -9.7216    3.9367  -16.3433 C   0  0  0  0  0  0  0  0  0  0  0  0
  -10.2908    4.0211  -17.5978 C   0  0  0  0  0  0  0  0  0  0  0  0
   -9.5164    4.4974  -18.6184 C   0  0  0  0  0  0  0  0  0  0  0  0
   -8.2137    4.8825  -18.3701 C   0  0  0  0  0  0  0  0  0  0  0  0
   -7.6342    4.8202  -17.1104 C   0  0  0  0  0  0  0  0  0  0  0  0
   -6.3595    5.3196  -16.7720 C   0  0  0  0  0  0  0  0  0  0  0  0
   -5.4447    5.6934  -17.7799 N   0  0  0  0  0  0  0  0  0  0  0  0
   -5.2493    5.1445  -19.2120 C   0  0  0  0  0  0  0  0  0  0  0  0
   -5.8628    4.3526  -19.8071 O   0  0  0  0  0  0  0  0  0  0  0  0
   -4.1310    5.8265  -19.9333 C   0  0  0  0  0  0  0  0  0  0  0  0
   -4.4072    6.3823  -21.1495 N   0  0  0  0  0  0  0  0  0  0  0  0
   -3.3796    6.8764  -21.8797 C   0  0  0  0  0  0  0  0  0  0  0  0
   -2.0624    6.8704  -21.4563 C   0  0  0  0  0  0  0  0  0  0  0  0
   -1.8235    6.3405  -20.2053 C   0  0  0  0  0  0  0  0  0  0  0  0
   -2.8512    5.8075  -19.4434 C   0  0  0  0  0  0  0  0  0  0  0  0
   -2.4348    5.3462  -18.2308 O   0  0  0  0  0  0  0  0  0  0  0  0
   -0.9931    5.3442  -18.3383 C   0  0  0  0  0  0  0  0  0  0  0  0
   -0.5718    6.3350  -19.4164 C   0  0  0  0  0  0  0  0  0  0  0  0
   -6.0265    5.4420  -15.4126 C   0  0  0  0  0  0  0  0  0  0  0  0
   -4.7162    6.0213  -14.9393 C   0  0  0  0  0  0  0  0  0  0  0  0
   -3.5342    5.1600  -15.3700 C   0  0  0  0  0  0  0  0  0  0  0  0
   -4.5442    7.5121  -15.2583 C   0  0  0  0  0  0  0  0  0  0  0  0
  1  2  1  0
  2  3  2  0
  3  4  1  0
  4  5  2  0
  5  6  1  0
  6  7  2  0
  7  8  1  0
  8  9  2  0
  9 10  1  0
 10 11  1  0
 11 12  1  0
 12 13  2  0
 12 14  1  0
 14 15  2  0
 15 16  1  0
 16 17  2  0
 17 18  1  0
 18 19  2  0
 19 20  1  0
 20 21  1  0
 21 22  1  0
 10 23  2  0
 23 24  1  0
 24 25  1  0
 24 26  1  0
 23  2  1  0
  9  4  1  0
 19 14  1  0
 22 18  1  0
M  END
>  <energy_score>  (2417) 
-9.792244

>  <alias>  (2417) 
None

>  <HIPPO Pose ID>  (2417) 
74870

>  <smiles>  (2417) 
Cc1nc2ccccc2c(NC(=O)c2nccc3c2OCC3)c1C(C)C

>  <inchikey>  (2417) 
KKICTLXSVJCMSM-UHFFFAOYSA-N

>  <distance_score>  (2417) 
1.914744

>  <ref_mols>  (2417) 
Z3476a,Z0852a

>  <ref_pdb>  (2417) 
Z3476a

>  <HIPPO Compound ID>  (2417) 
148510

>  <name>  (2417) 
P74870

>  <inspiration_score>  (2417) 
None

$$$$
P74871
     RDKit          3D

 27 29  0  0  0  0  0  0  0  0999 V2000
   -8.4365    3.6883  -19.4449 C   0  0  0  0  0  0  0  0  0  0  0  0
   -9.1680    4.6293  -18.6855 O   0  0  0  0  0  0  0  0  0  0  0  0
   -8.6768    4.6015  -17.4234 C   0  0  0  0  0  0  0  0  0  0  0  0
   -9.4992    4.1407  -16.4290 C   0  0  0  0  0  0  0  0  0  0  0  0
   -9.0355    4.1522  -15.1315 C   0  0  0  0  0  0  0  0  0  0  0  0
   -7.7321    4.5492  -14.8717 C   0  0  0  0  0  0  0  0  0  0  0  0
   -7.3202    4.5681  -13.5520 N   0  0  0  0  0  0  0  0  0  0  0  0
   -6.1181    5.0507  -13.1680 C   0  0  0  0  0  0  0  0  0  0  0  0
   -5.8557    5.1387  -11.9734 O   0  0  0  0  0  0  0  0  0  0  0  0
   -5.1587    5.4589  -14.2577 C   0  0  0  0  0  0  0  0  0  0  0  0
   -5.4830    5.3747  -15.5647 C   0  0  0  0  0  0  0  0  0  0  0  0
   -4.5699    5.6076  -16.5874 N   0  0  0  0  0  0  0  0  0  0  0  0
   -4.5762    5.1359  -18.0873 C   0  0  0  0  0  0  0  0  0  0  0  0
   -5.3116    4.4200  -18.6549 O   0  0  0  0  0  0  0  0  0  0  0  0
   -3.5343    5.7176  -18.9609 C   0  0  0  0  0  0  0  0  0  0  0  0
   -3.9304    6.2285  -20.1657 N   0  0  0  0  0  0  0  0  0  0  0  0
   -2.9641    6.6239  -21.0145 C   0  0  0  0  0  0  0  0  0  0  0  0
   -1.6149    6.5457  -20.7100 C   0  0  0  0  0  0  0  0  0  0  0  0
   -1.2300    6.0285  -19.4642 C   0  0  0  0  0  0  0  0  0  0  0  0
    0.2192    6.0314  -19.0440 C   0  0  0  0  0  0  0  0  0  0  0  0
    0.6680    7.3423  -18.3662 C   0  0  0  0  0  0  0  0  0  0  0  0
    0.0369    7.5356  -16.9852 C   0  0  0  0  0  0  0  0  0  0  0  0
    2.1939    7.3560  -18.2355 C   0  0  0  0  0  0  0  0  0  0  0  0
   -2.2216    5.5638  -18.6029 C   0  0  0  0  0  0  0  0  0  0  0  0
   -1.9200    4.9749  -17.4433 F   0  0  0  0  0  0  0  0  0  0  0  0
   -6.8749    4.9972  -15.8787 C   0  0  0  0  0  0  0  0  0  0  0  0
   -7.4307    5.1348  -17.1356 C   0  0  0  0  0  0  0  0  0  0  0  0
  1  2  1  0
  2  3  1  0
  3  4  2  0
  4  5  1  0
  5  6  2  0
  6  7  1  0
  7  8  1  0
  8  9  2  0
  8 10  1  0
 10 11  2  0
 11 12  1  0
 12 13  1  0
 13 14  2  0
 13 15  1  0
 15 16  2  0
 16 17  1  0
 17 18  2  0
 18 19  1  0
 19 20  1  0
 20 21  1  0
 21 22  1  0
 21 23  1  0
 19 24  2  0
 24 25  1  0
 11 26  1  0
 26 27  2  0
 27  3  1  0
 26  6  1  0
 24 15  1  0
M  END
>  <energy_score>  (2418) 
-17.160414

>  <alias>  (2418) 
None

>  <HIPPO Pose ID>  (2418) 
74871

>  <smiles>  (2418) 
COc1ccc2[nH]c(=O)cc(NC(=O)c3nccc(CC(C)C)c3F)c2c1

>  <inchikey>  (2418) 
PIJNFELUIWTFOA-UHFFFAOYSA-N

>  <distance_score>  (2418) 
1.900098

>  <ref_mols>  (2418) 
Z3476a,Z0852a

>  <ref_pdb>  (2418) 
Z3476a

>  <HIPPO Compound ID>  (2418) 
148537

>  <name>  (2418) 
P74871

>  <inspiration_score>  (2418) 
None

$$$$
P74872
     RDKit          3D

 27 30  0  0  0  0  0  0  0  0999 V2000
   -9.2994    1.1306   -8.4715 C   0  0  0  0  0  0  0  0  0  0  0  0
   -8.9694    2.4929   -8.9358 C   0  0  0  0  0  0  0  0  0  0  0  0
   -8.5597    2.7453  -10.2367 C   0  0  0  0  0  0  0  0  0  0  0  0
   -8.2051    4.0434  -10.5806 C   0  0  0  0  0  0  0  0  0  0  0  0
   -7.8449    4.2465  -11.9207 N   0  0  0  0  0  0  0  0  0  0  0  0
   -8.0625    5.4675  -12.8460 C   0  0  0  0  0  0  0  0  0  0  0  0
   -8.5068    6.5231  -12.6150 O   0  0  0  0  0  0  0  0  0  0  0  0
   -7.6042    5.1586  -14.2278 C   0  0  0  0  0  0  0  0  0  0  0  0
   -8.5004    4.5964  -15.1205 C   0  0  0  0  0  0  0  0  0  0  0  0
   -8.0880    4.4642  -16.4423 C   0  0  0  0  0  0  0  0  0  0  0  0
   -6.7952    4.8720  -16.8143 C   0  0  0  0  0  0  0  0  0  0  0  0
   -5.9660    5.3769  -15.8274 C   0  0  0  0  0  0  0  0  0  0  0  0
   -6.3369    5.5287  -14.5399 N   0  0  0  0  0  0  0  0  0  0  0  0
   -6.3322    4.8431  -18.2462 C   0  0  0  0  0  0  0  0  0  0  0  0
   -7.1313    3.9616  -19.0188 O   0  0  0  0  0  0  0  0  0  0  0  0
   -8.5135    4.2785  -18.8541 C   0  0  0  0  0  0  0  0  0  0  0  0
   -8.9958    3.8761  -17.4752 C   0  0  0  0  0  0  0  0  0  0  0  0
   -8.1832    5.0311   -9.5673 C   0  0  0  0  0  0  0  0  0  0  0  0
   -7.7029    6.3459   -9.6909 C   0  0  0  0  0  0  0  0  0  0  0  0
   -7.6721    7.1880   -8.5740 C   0  0  0  0  0  0  0  0  0  0  0  0
   -7.1271    8.5495   -8.7035 N   0  0  0  0  0  0  0  0  0  0  0  0
   -6.9760    9.2086   -7.6629 O   0  0  0  0  0  0  0  0  0  0  0  0
   -6.8173    8.9519   -9.8335 O   0  0  0  0  0  0  0  0  0  0  0  0
   -8.1005    6.7474   -7.3186 C   0  0  0  0  0  0  0  0  0  0  0  0
   -8.5577    5.4521   -7.1828 C   0  0  0  0  0  0  0  0  0  0  0  0
   -8.5970    4.6221   -8.2732 C   0  0  0  0  0  0  0  0  0  0  0  0
   -9.0234    3.4212   -7.9766 N   0  0  0  0  0  0  0  0  0  0  0  0
  1  2  1  0
  2  3  2  0
  3  4  1  0
  4  5  1  0
  5  6  1  0
  6  7  2  0
  6  8  1  0
  8  9  2  0
  9 10  1  0
 10 11  2  0
 11 12  1  0
 12 13  2  0
 11 14  1  0
 14 15  1  0
 15 16  1  0
 16 17  1  0
  4 18  2  0
 18 19  1  0
 19 20  2  0
 20 21  1  0
 21 22  2  0
 21 23  1  0
 20 24  1  0
 24 25  2  0
 25 26  1  0
 26 27  2  0
 27  2  1  0
 13  8  1  0
 26 18  1  0
 17 10  1  0
M  CHG  2  21   1  23  -1
M  END
>  <energy_score>  (2419) 
-8.166701

>  <alias>  (2419) 
None

>  <HIPPO Pose ID>  (2419) 
74872

>  <smiles>  (2419) 
Cc1cc(NC(=O)c2cc3c(cn2)COCC3)c2cc([N+](=O)[O-])ccc2n1

>  <inchikey>  (2419) 
DCGJGMHCUAECSN-UHFFFAOYSA-N

>  <distance_score>  (2419) 
1.824492

>  <ref_mols>  (2419) 
Z3476a,Z0852a

>  <ref_pdb>  (2419) 
Z3476a

>  <HIPPO Compound ID>  (2419) 
148543

>  <name>  (2419) 
P74872

>  <inspiration_score>  (2419) 
None

$$$$
P74873
     RDKit          3D

 27 30  0  0  0  0  0  0  0  0999 V2000
   -6.2455    1.2864  -10.6512 C   0  0  0  0  0  0  0  0  0  0  0  0
   -7.5535    1.9248  -11.0500 C   0  0  0  0  0  0  0  0  0  0  0  0
   -8.0118    1.8411  -12.1890 O   0  0  0  0  0  0  0  0  0  0  0  0
   -8.1466    2.9095  -10.1291 C   0  0  0  0  0  0  0  0  0  0  0  0
   -8.6109    2.5551   -8.8756 C   0  0  0  0  0  0  0  0  0  0  0  0
   -8.9898    1.1811   -8.4867 C   0  0  0  0  0  0  0  0  0  0  0  0
   -8.7728    3.4514   -7.8973 N   0  0  0  0  0  0  0  0  0  0  0  0
   -8.5046    4.7086   -8.1601 C   0  0  0  0  0  0  0  0  0  0  0  0
   -8.5910    5.5023   -7.0478 C   0  0  0  0  0  0  0  0  0  0  0  0
   -8.4323    6.8650   -7.1689 C   0  0  0  0  0  0  0  0  0  0  0  0
   -8.2423    7.4179   -8.4291 C   0  0  0  0  0  0  0  0  0  0  0  0
   -8.1362    6.6117   -9.5614 C   0  0  0  0  0  0  0  0  0  0  0  0
   -8.1949    5.2167   -9.4517 C   0  0  0  0  0  0  0  0  0  0  0  0
   -8.0127    4.2634  -10.4767 C   0  0  0  0  0  0  0  0  0  0  0  0
   -7.7251    4.4751  -11.8435 N   0  0  0  0  0  0  0  0  0  0  0  0
   -7.0049    5.6471  -12.5488 C   0  0  0  0  0  0  0  0  0  0  0  0
   -6.6047    6.6573  -12.1207 O   0  0  0  0  0  0  0  0  0  0  0  0
   -6.8593    5.3381  -14.0224 C   0  0  0  0  0  0  0  0  0  0  0  0
   -7.9183    4.8002  -14.7549 C   0  0  0  0  0  0  0  0  0  0  0  0
   -7.7546    4.6530  -16.1312 C   0  0  0  0  0  0  0  0  0  0  0  0
   -6.5471    5.0550  -16.7207 C   0  0  0  0  0  0  0  0  0  0  0  0
   -5.5356    5.5170  -15.9013 C   0  0  0  0  0  0  0  0  0  0  0  0
   -5.6653    5.6768  -14.5722 N   0  0  0  0  0  0  0  0  0  0  0  0
   -6.3740    5.0509  -18.2023 C   0  0  0  0  0  0  0  0  0  0  0  0
   -7.6492    5.3300  -18.7386 O   0  0  0  0  0  0  0  0  0  0  0  0
   -8.5569    4.2609  -18.4840 C   0  0  0  0  0  0  0  0  0  0  0  0
   -8.8794    4.1661  -16.9942 C   0  0  0  0  0  0  0  0  0  0  0  0
  1  2  1  0
  2  3  2  0
  2  4  1  0
  4  5  2  0
  5  6  1  0
  5  7  1  0
  7  8  2  0
  8  9  1  0
  9 10  2  0
 10 11  1  0
 11 12  2  0
 12 13  1  0
 13 14  2  0
 14 15  1  0
 15 16  1  0
 16 17  2  0
 16 18  1  0
 18 19  2  0
 19 20  1  0
 20 21  2  0
 21 22  1  0
 22 23  2  0
 21 24  1  0
 24 25  1  0
 25 26  1  0
 26 27  1  0
 14  4  1  0
 23 18  1  0
 13  8  1  0
 27 20  1  0
M  END
>  <energy_score>  (2420) 
-13.916897

>  <alias>  (2420) 
None

>  <HIPPO Pose ID>  (2420) 
74873

>  <smiles>  (2420) 
CC(=O)c1c(C)nc2ccccc2c1NC(=O)c1cc2c(cn1)COCC2

>  <inchikey>  (2420) 
YTWGOAUUGAUYPE-UHFFFAOYSA-N

>  <distance_score>  (2420) 
1.892348

>  <ref_mols>  (2420) 
Z3476a,Z0852a

>  <ref_pdb>  (2420) 
Z3476a

>  <HIPPO Compound ID>  (2420) 
148550

>  <name>  (2420) 
P74873

>  <inspiration_score>  (2420) 
None

$$$$
P74874
     RDKit          3D

 28 30  0  0  0  0  0  0  0  0999 V2000
   -6.7499    4.9422  -12.9955 C   0  0  0  0  0  0  0  0  0  0  0  0
   -6.9756    4.9284  -14.4754 C   0  0  0  0  0  0  0  0  0  0  0  0
   -8.1482    4.3742  -14.8114 N   0  0  0  0  0  0  0  0  0  0  0  0
   -8.4779    4.3434  -16.0881 C   0  0  0  0  0  0  0  0  0  0  0  0
   -9.7487    3.9261  -16.3440 C   0  0  0  0  0  0  0  0  0  0  0  0
  -10.3186    4.0194  -17.5982 C   0  0  0  0  0  0  0  0  0  0  0  0
   -9.5433    4.4958  -18.6180 C   0  0  0  0  0  0  0  0  0  0  0  0
   -8.2390    4.8700  -18.3699 C   0  0  0  0  0  0  0  0  0  0  0  0
   -7.6647    4.8041  -17.1083 C   0  0  0  0  0  0  0  0  0  0  0  0
   -6.3949    5.3068  -16.7701 C   0  0  0  0  0  0  0  0  0  0  0  0
   -5.4837    5.6689  -17.7755 N   0  0  0  0  0  0  0  0  0  0  0  0
   -5.2751    5.0930  -19.1991 C   0  0  0  0  0  0  0  0  0  0  0  0
   -5.8777    4.2831  -19.7816 O   0  0  0  0  0  0  0  0  0  0  0  0
   -4.0517    5.6428  -19.8343 C   0  0  0  0  0  0  0  0  0  0  0  0
   -4.1687    6.3646  -20.9804 N   0  0  0  0  0  0  0  0  0  0  0  0
   -3.0207    6.8049  -21.5295 C   0  0  0  0  0  0  0  0  0  0  0  0
   -1.7690    6.6142  -20.9545 C   0  0  0  0  0  0  0  0  0  0  0  0
   -1.6749    5.9342  -19.7366 C   0  0  0  0  0  0  0  0  0  0  0  0
   -0.4214    5.8258  -18.8956 C   0  0  0  0  0  0  0  0  0  0  0  0
    0.8603    6.5390  -19.3752 C   0  0  0  0  0  0  0  0  0  0  0  0
    2.0698    6.0071  -18.5974 C   0  0  0  0  0  0  0  0  0  0  0  0
    0.7758    8.0568  -19.1798 C   0  0  0  0  0  0  0  0  0  0  0  0
   -2.8427    5.3676  -19.2274 C   0  0  0  0  0  0  0  0  0  0  0  0
   -2.7884    4.5856  -18.1425 F   0  0  0  0  0  0  0  0  0  0  0  0
   -6.0553    5.4330  -15.4140 C   0  0  0  0  0  0  0  0  0  0  0  0
   -4.7714    6.0635  -14.9266 C   0  0  0  0  0  0  0  0  0  0  0  0
   -3.4972    5.5045  -15.5521 C   0  0  0  0  0  0  0  0  0  0  0  0
   -4.8263    7.5914  -15.0350 C   0  0  0  0  0  0  0  0  0  0  0  0
  1  2  1  0
  2  3  2  0
  3  4  1  0
  4  5  2  0
  5  6  1  0
  6  7  2  0
  7  8  1  0
  8  9  2  0
  9 10  1  0
 10 11  1  0
 11 12  1  0
 12 13  2  0
 12 14  1  0
 14 15  2  0
 15 16  1  0
 16 17  2  0
 17 18  1  0
 18 19  1  0
 19 20  1  0
 20 21  1  0
 20 22  1  0
 18 23  2  0
 23 24  1  0
 10 25  2  0
 25 26  1  0
 26 27  1  0
 26 28  1  0
 25  2  1  0
  9  4  1  0
 23 14  1  0
M  END
>  <energy_score>  (2421) 
-5.02803

>  <alias>  (2421) 
None

>  <HIPPO Pose ID>  (2421) 
74874

>  <smiles>  (2421) 
Cc1nc2ccccc2c(NC(=O)c2nccc(CC(C)C)c2F)c1C(C)C

>  <inchikey>  (2421) 
UVLOJLJOIVYBNT-UHFFFAOYSA-N

>  <distance_score>  (2421) 
1.682299

>  <ref_mols>  (2421) 
Z3476a,Z0852a

>  <ref_pdb>  (2421) 
Z3476a

>  <HIPPO Compound ID>  (2421) 
148556

>  <name>  (2421) 
P74874

>  <inspiration_score>  (2421) 
None

$$$$
P74875
     RDKit          3D

 28 30  0  0  0  0  0  0  0  0999 V2000
    0.4192    5.9460  -17.3510 C   0  0  0  0  0  0  0  0  0  0  0  0
   -0.3975    5.8217  -18.6423 C   0  0  0  0  0  0  0  0  0  0  0  0
    0.4107    6.4213  -19.7954 C   0  0  0  0  0  0  0  0  0  0  0  0
   -1.7590    6.5021  -18.4572 C   0  0  0  0  0  0  0  0  0  0  0  0
   -2.7980    6.2604  -19.5292 C   0  0  0  0  0  0  0  0  0  0  0  0
   -2.7815    6.9905  -20.7218 C   0  0  0  0  0  0  0  0  0  0  0  0
   -3.9034    6.9701  -21.5360 C   0  0  0  0  0  0  0  0  0  0  0  0
   -5.0281    6.2923  -21.2385 N   0  0  0  0  0  0  0  0  0  0  0  0
   -4.9901    5.4800  -20.1421 C   0  0  0  0  0  0  0  0  0  0  0  0
   -6.2139    4.6372  -19.8124 C   0  0  0  0  0  0  0  0  0  0  0  0
   -6.4197    3.6178  -20.3168 O   0  0  0  0  0  0  0  0  0  0  0  0
   -6.9499    5.3462  -18.6997 N   0  0  0  0  0  0  0  0  0  0  0  0
   -8.0035    4.9362  -17.9260 C   0  0  0  0  0  0  0  0  0  0  0  0
   -9.1527    4.4111  -18.4660 C   0  0  0  0  0  0  0  0  0  0  0  0
  -10.1113    3.9984  -17.5743 C   0  0  0  0  0  0  0  0  0  0  0  0
   -9.9269    3.9504  -16.2356 N   0  0  0  0  0  0  0  0  0  0  0  0
   -8.7818    4.3985  -15.7387 C   0  0  0  0  0  0  0  0  0  0  0  0
   -8.5248    4.3446  -14.3801 C   0  0  0  0  0  0  0  0  0  0  0  0
   -7.2749    4.6955  -13.8611 C   0  0  0  0  0  0  0  0  0  0  0  0
   -6.2662    5.1262  -14.7162 C   0  0  0  0  0  0  0  0  0  0  0  0
   -4.8593    5.4103  -14.2977 C   0  0  0  0  0  0  0  0  0  0  0  0
   -3.9994    5.4608  -15.3630 F   0  0  0  0  0  0  0  0  0  0  0  0
   -4.3420    4.4904  -13.4401 F   0  0  0  0  0  0  0  0  0  0  0  0
   -4.7386    6.6168  -13.6755 F   0  0  0  0  0  0  0  0  0  0  0  0
   -6.5563    5.2753  -16.0572 C   0  0  0  0  0  0  0  0  0  0  0  0
   -7.7911    4.9101  -16.5652 C   0  0  0  0  0  0  0  0  0  0  0  0
   -3.8989    5.4344  -19.2805 C   0  0  0  0  0  0  0  0  0  0  0  0
   -3.9202    4.6845  -18.1712 F   0  0  0  0  0  0  0  0  0  0  0  0
  1  2  1  0
  2  3  1  0
  2  4  1  0
  4  5  1  0
  5  6  2  0
  6  7  1  0
  7  8  2  0
  8  9  1  0
  9 10  1  0
 10 11  2  0
 10 12  1  0
 12 13  1  0
 13 14  2  0
 14 15  1  0
 15 16  2  0
 16 17  1  0
 17 18  2  0
 18 19  1  0
 19 20  2  0
 20 21  1  0
 21 22  1  0
 21 23  1  0
 21 24  1  0
 20 25  1  0
 25 26  2  0
  9 27  2  0
 27 28  1  0
 27  5  1  0
 26 13  1  0
 26 17  1  0
M  END
>  <energy_score>  (2422) 
-10.221902

>  <alias>  (2422) 
None

>  <HIPPO Pose ID>  (2422) 
74875

>  <smiles>  (2422) 
CC(C)Cc1ccnc(C(=O)Nc2ccnc3ccc(C(F)(F)F)cc23)c1F

>  <inchikey>  (2422) 
VVYCCCMMZLZNDK-UHFFFAOYSA-N

>  <distance_score>  (2422) 
1.82366

>  <ref_mols>  (2422) 
Z3476a,Z0852a

>  <ref_pdb>  (2422) 
Z3476a

>  <HIPPO Compound ID>  (2422) 
148577

>  <name>  (2422) 
P74875

>  <inspiration_score>  (2422) 
None

$$$$
P74876
     RDKit          3D

 21 23  0  0  0  0  0  0  0  0999 V2000
   -6.3633    8.4375  -13.9724 C   0  0  0  0  0  0  0  0  0  0  0  0
   -6.5645    7.0867  -13.2999 C   0  0  1  0  0  0  0  0  0  0  0  0
   -7.9659    6.9720  -12.6769 C   0  0  0  0  0  0  0  0  0  0  0  0
   -7.9968    5.9384  -11.5822 C   0  0  0  0  0  0  0  0  0  0  0  0
   -8.1663    4.5723  -11.8278 C   0  0  0  0  0  0  0  0  0  0  0  0
   -8.1596    3.7041  -10.7456 C   0  0  0  0  0  0  0  0  0  0  0  0
   -7.9864    4.1053   -9.4663 N   0  0  0  0  0  0  0  0  0  0  0  0
   -7.8352    5.4247   -9.2569 C   0  0  0  0  0  0  0  0  0  0  0  0
   -7.8278    6.3665  -10.2653 C   0  0  0  0  0  0  0  0  0  0  0  0
   -6.3991    6.0317  -14.2597 N   0  0  0  0  0  0  0  0  0  0  0  0
   -7.3893    5.4558  -15.3000 C   0  0  0  0  0  0  0  0  0  0  0  0
   -8.4651    5.7998  -15.5903 O   0  0  0  0  0  0  0  0  0  0  0  0
   -6.7015    4.2631  -15.9396 C   0  0  0  0  0  0  0  0  0  0  0  0
   -6.0918    4.7026  -17.2097 C   0  0  0  0  0  0  0  0  0  0  0  0
   -4.7801    4.9959  -17.5141 C   0  0  0  0  0  0  0  0  0  0  0  0
   -4.6600    5.4588  -18.7905 N   0  0  0  0  0  0  0  0  0  0  0  0
   -5.8813    5.4097  -19.2848 C   0  0  0  0  0  0  0  0  0  0  0  0
   -6.7778    4.9492  -18.3659 N   0  0  0  0  0  0  0  0  0  0  0  0
   -8.2423    5.0343  -18.5301 C   0  0  0  0  0  0  0  0  0  0  0  0
   -9.0060    4.1241  -19.4458 C   0  0  0  0  0  0  0  0  0  0  0  0
   -9.2582    4.0584  -17.9812 C   0  0  0  0  0  0  0  0  0  0  0  0
  2  1  1  6
  2  3  1  0
  3  4  1  0
  4  5  2  0
  5  6  1  0
  6  7  2  0
  7  8  1  0
  8  9  2  0
  2 10  1  0
 10 11  1  0
 11 12  2  0
 11 13  1  0
 13 14  1  0
 14 15  2  0
 15 16  1  0
 16 17  2  0
 17 18  1  0
 18 19  1  0
 19 20  1  0
 20 21  1  0
  9  4  1  0
 18 14  1  0
 21 19  1  0
M  END
>  <energy_score>  (2423) 
-12.151388

>  <alias>  (2423) 
None

>  <HIPPO Pose ID>  (2423) 
74876

>  <smiles>  (2423) 
C[C@@H](Cc1ccncc1)NC(=O)Cc1cncn1C1CC1

>  <inchikey>  (2423) 
ZWRGMYFXPDLOAF-LBPRGKRZSA-N

>  <distance_score>  (2423) 
1.830693

>  <ref_mols>  (2423) 
Z1495a,Z0800a

>  <ref_pdb>  (2423) 
Z0800a

>  <HIPPO Compound ID>  (2423) 
148797

>  <name>  (2423) 
P74876

>  <inspiration_score>  (2423) 
None

$$$$
P74877
     RDKit          3D

 21 23  0  0  0  0  0  0  0  0999 V2000
   -8.5827    5.4627  -17.9988 O   0  0  0  0  0  0  0  0  0  0  0  0
   -7.6425    4.8970  -17.6063 C   0  0  0  0  0  0  0  0  0  0  0  0
   -6.4191    4.6339  -18.4960 C   0  0  0  0  0  0  0  0  0  0  0  0
   -5.1442    5.1682  -17.9258 C   0  0  0  0  0  0  0  0  0  0  0  0
   -4.2757    4.6934  -16.9629 C   0  0  0  0  0  0  0  0  0  0  0  0
   -3.2276    5.5483  -16.7500 N   0  0  0  0  0  0  0  0  0  0  0  0
   -3.4171    6.5345  -17.5952 C   0  0  0  0  0  0  0  0  0  0  0  0
   -4.5498    6.3350  -18.3144 N   0  0  0  0  0  0  0  0  0  0  0  0
   -5.0681    7.2455  -19.3289 C   0  0  0  0  0  0  0  0  0  0  0  0
   -5.2855    8.7232  -19.1303 C   0  0  0  0  0  0  0  0  0  0  0  0
   -6.4545    7.7854  -19.1378 C   0  0  0  0  0  0  0  0  0  0  0  0
   -7.3580    4.2659  -16.2236 N   0  0  0  0  0  0  0  0  0  0  0  0
   -8.2048    4.1185  -15.0745 C   0  0  0  0  0  0  0  0  0  0  0  0
   -8.1431    5.3274  -14.1467 C   0  0  0  0  0  0  0  0  0  0  0  0
   -8.2013    6.4841  -14.5697 O   0  0  0  0  0  0  0  0  0  0  0  0
   -8.0485    5.1207  -12.6667 C   0  0  0  0  0  0  0  0  0  0  0  0
   -8.1963    3.8789  -12.0478 C   0  0  0  0  0  0  0  0  0  0  0  0
   -8.1142    3.8180  -10.6644 C   0  0  0  0  0  0  0  0  0  0  0  0
   -7.8929    4.8938   -9.8777 N   0  0  0  0  0  0  0  0  0  0  0  0
   -7.7623    6.0838  -10.4966 C   0  0  0  0  0  0  0  0  0  0  0  0
   -7.8295    6.2472  -11.8682 C   0  0  0  0  0  0  0  0  0  0  0  0
  1  2  2  0
  2  3  1  0
  3  4  1  0
  4  5  2  0
  5  6  1  0
  6  7  2  0
  7  8  1  0
  8  9  1  0
  9 10  1  0
 10 11  1  0
  2 12  1  0
 12 13  1  0
 13 14  1  0
 14 15  2  0
 14 16  1  0
 16 17  2  0
 17 18  1  0
 18 19  2  0
 19 20  1  0
 20 21  2  0
  8  4  1  0
 11  9  1  0
 21 16  1  0
M  END
>  <energy_score>  (2424) 
-6.108569

>  <alias>  (2424) 
None

>  <HIPPO Pose ID>  (2424) 
74877

>  <smiles>  (2424) 
O=C(Cc1cncn1C1CC1)NCC(=O)c1ccncc1

>  <inchikey>  (2424) 
QPGCYWLUVWLMPR-UHFFFAOYSA-N

>  <distance_score>  (2424) 
1.673772

>  <ref_mols>  (2424) 
Z0800a,Z1495a

>  <ref_pdb>  (2424) 
Z0800a

>  <HIPPO Compound ID>  (2424) 
148802

>  <name>  (2424) 
P74877

>  <inspiration_score>  (2424) 
None

$$$$
P74878
     RDKit          3D

 21 23  0  0  0  0  0  0  0  0999 V2000
   -8.5420    4.8253  -15.3845 O   0  0  0  0  0  0  0  0  0  0  0  0
   -7.4103    5.0978  -15.3933 C   0  0  0  0  0  0  0  0  0  0  0  0
   -6.3884    4.2427  -16.0863 C   0  0  0  0  0  0  0  0  0  0  0  0
   -5.9001    4.8745  -17.3255 C   0  0  0  0  0  0  0  0  0  0  0  0
   -4.6271    5.2984  -17.6417 C   0  0  0  0  0  0  0  0  0  0  0  0
   -4.5831    5.8522  -18.8840 N   0  0  0  0  0  0  0  0  0  0  0  0
   -5.8038    5.7135  -19.3599 C   0  0  0  0  0  0  0  0  0  0  0  0
   -6.6402    5.1359  -18.4474 N   0  0  0  0  0  0  0  0  0  0  0  0
   -8.1084    5.0799  -18.6212 C   0  0  0  0  0  0  0  0  0  0  0  0
   -8.7420    4.0519  -19.5252 C   0  0  0  0  0  0  0  0  0  0  0  0
   -9.0691    4.0553  -18.0747 C   0  0  0  0  0  0  0  0  0  0  0  0
   -6.6558    6.2467  -14.7012 N   0  0  0  0  0  0  0  0  0  0  0  0
   -7.1468    7.3539  -13.9318 C   0  0  0  0  0  0  0  0  0  0  0  0
   -8.4017    7.0057  -13.1028 C   0  0  1  0  0  0  0  0  0  0  0  0
   -9.5432    6.6580  -13.8825 O   0  0  0  0  0  0  0  0  0  0  0  0
   -8.1423    6.0327  -11.9732 C   0  0  0  0  0  0  0  0  0  0  0  0
   -8.2874    4.6447  -12.0769 C   0  0  0  0  0  0  0  0  0  0  0  0
   -8.0634    3.8614  -10.9515 C   0  0  0  0  0  0  0  0  0  0  0  0
   -7.6871    4.3605   -9.7533 N   0  0  0  0  0  0  0  0  0  0  0  0
   -7.5513    5.6952   -9.6723 C   0  0  0  0  0  0  0  0  0  0  0  0
   -7.7550    6.5563  -10.7346 C   0  0  0  0  0  0  0  0  0  0  0  0
  1  2  2  0
  2  3  1  0
  3  4  1  0
  4  5  2  0
  5  6  1  0
  6  7  2  0
  7  8  1  0
  8  9  1  0
  9 10  1  0
 10 11  1  0
  2 12  1  0
 12 13  1  0
 13 14  1  0
 14 15  1  6
 14 16  1  0
 16 17  2  0
 17 18  1  0
 18 19  2  0
 19 20  1  0
 20 21  2  0
  8  4  1  0
 11  9  1  0
 21 16  1  0
M  END
>  <energy_score>  (2425) 
-5.159251

>  <alias>  (2425) 
None

>  <HIPPO Pose ID>  (2425) 
74878

>  <smiles>  (2425) 
O=C(Cc1cncn1C1CC1)NC[C@@H](O)c1ccncc1

>  <inchikey>  (2425) 
QGFODQAAJSISHU-CQSZACIVSA-N

>  <distance_score>  (2425) 
1.796385

>  <ref_mols>  (2425) 
Z1495a,Z0800a

>  <ref_pdb>  (2425) 
Z0800a

>  <HIPPO Compound ID>  (2425) 
148806

>  <name>  (2425) 
P74878

>  <inspiration_score>  (2425) 
None

$$$$
P74879
     RDKit          3D

 23 25  0  0  0  0  0  0  0  0999 V2000
   -9.9230    4.5918  -17.5545 C   0  0  0  0  0  0  0  0  0  0  0  0
   -8.4559    4.6660  -17.7762 C   0  0  0  0  0  0  0  0  0  0  0  0
   -7.5840    5.2053  -16.8315 C   0  0  0  0  0  0  0  0  0  0  0  0
   -6.2128    5.2683  -17.1190 C   0  0  0  0  0  0  0  0  0  0  0  0
   -5.2088    5.7464  -16.1022 C   0  0  0  0  0  0  0  0  0  0  0  0
   -4.6967    4.6273  -15.1825 C   0  0  0  0  0  0  0  0  0  0  0  0
   -5.7181    4.2093  -14.2568 N   0  0  0  0  0  0  0  0  0  0  0  0
   -5.7425    4.2346  -12.6955 C   0  0  0  0  0  0  0  0  0  0  0  0
   -4.9085    4.5260  -11.9304 O   0  0  0  0  0  0  0  0  0  0  0  0
   -7.1896    3.8820  -12.3146 C   0  0  2  0  0  0  0  0  0  0  0  0
   -8.0527    5.1175  -12.6552 C   0  0  0  0  0  0  0  0  0  0  0  0
   -8.2633    6.1149  -11.5166 C   0  0  0  0  0  0  0  0  0  0  0  0
   -8.4557    7.3077  -11.7606 O   0  0  0  0  0  0  0  0  0  0  0  0
   -8.3674    5.6165  -10.2512 N   0  0  0  0  0  0  0  0  0  0  0  0
   -8.0067    4.3404   -9.9705 C   0  0  0  0  0  0  0  0  0  0  0  0
   -8.1428    3.7539   -8.7631 N   0  0  0  0  0  0  0  0  0  0  0  0
   -7.5493    2.5862   -8.9079 C   0  0  0  0  0  0  0  0  0  0  0  0
   -7.0085    2.4481  -10.1607 N   0  0  0  0  0  0  0  0  0  0  0  0
   -6.0645    1.4360  -10.5636 C   0  0  0  0  0  0  0  0  0  0  0  0
   -7.3966    3.5396  -10.8913 C   0  0  0  0  0  0  0  0  0  0  0  0
   -5.7860    4.8386  -18.3690 C   0  0  0  0  0  0  0  0  0  0  0  0
   -6.7291    4.3199  -19.2311 C   0  0  0  0  0  0  0  0  0  0  0  0
   -8.0328    4.1830  -18.9505 N   0  0  0  0  0  0  0  0  0  0  0  0
  1  2  1  0
  2  3  2  0
  3  4  1  0
  4  5  1  0
  5  6  1  0
  6  7  1  0
  7  8  1  0
  8  9  2  0
 10  8  1  1
 10 11  1  0
 11 12  1  0
 12 13  2  0
 12 14  1  0
 14 15  1  0
 15 16  1  0
 16 17  2  0
 17 18  1  0
 18 19  1  0
 18 20  1  0
  4 21  2  0
 21 22  1  0
 22 23  2  0
 23  2  1  0
 20 10  1  0
 20 15  2  0
M  END
>  <energy_score>  (2426) 
-11.192768

>  <alias>  (2426) 
None

>  <HIPPO Pose ID>  (2426) 
74879

>  <smiles>  (2426) 
Cc1cc(CCNC(=O)[C@@H]2CC(=O)Nc3ncn(C)c32)ccn1

>  <inchikey>  (2426) 
QWJVECCIWJTMHU-GFCCVEGCSA-N

>  <distance_score>  (2426) 
1.989632

>  <ref_mols>  (2426) 
Z1495a,Z0800a

>  <ref_pdb>  (2426) 
Z0800a

>  <HIPPO Compound ID>  (2426) 
148841

>  <name>  (2426) 
P74879

>  <inspiration_score>  (2426) 
None

$$$$
P74881
     RDKit          3D

 23 25  0  0  0  0  0  0  0  0999 V2000
   -7.0028    2.3484  -11.9032 C   0  0  0  0  0  0  0  0  0  0  0  0
   -7.6367    3.2073  -10.9372 N   0  0  0  0  0  0  0  0  0  0  0  0
   -8.2530    2.7927   -9.7825 C   0  0  0  0  0  0  0  0  0  0  0  0
   -8.6168    3.8094   -9.0326 N   0  0  0  0  0  0  0  0  0  0  0  0
   -8.1808    4.8830   -9.7167 C   0  0  0  0  0  0  0  0  0  0  0  0
   -7.6442    4.5716  -10.9324 C   0  0  0  0  0  0  0  0  0  0  0  0
   -7.0797    5.5773  -11.8595 C   0  0  1  0  0  0  0  0  0  0  0  0
   -8.1485    6.1286  -12.8292 C   0  0  0  0  0  0  0  0  0  0  0  0
   -8.8119    7.0533  -12.5771 O   0  0  0  0  0  0  0  0  0  0  0  0
   -8.0438    5.2954  -14.1269 N   0  0  0  0  0  0  0  0  0  0  0  0
   -8.6649    5.4860  -15.4153 C   0  0  0  0  0  0  0  0  0  0  0  0
   -8.4524    4.3190  -16.3977 C   0  0  1  0  0  0  0  0  0  0  0  0
   -9.6002    4.0604  -17.2007 O   0  0  0  0  0  0  0  0  0  0  0  0
   -7.2583    4.6536  -17.2557 C   0  0  0  0  0  0  0  0  0  0  0  0
   -5.9669    4.5358  -16.7261 C   0  0  0  0  0  0  0  0  0  0  0  0
   -4.8884    5.0240  -17.4353 C   0  0  0  0  0  0  0  0  0  0  0  0
   -5.0094    5.6188  -18.6259 N   0  0  0  0  0  0  0  0  0  0  0  0
   -6.2619    5.6832  -19.1410 C   0  0  0  0  0  0  0  0  0  0  0  0
   -7.4060    5.2284  -18.5096 C   0  0  0  0  0  0  0  0  0  0  0  0
   -6.5740    6.7633  -11.0230 C   0  0  0  0  0  0  0  0  0  0  0  0
   -7.4790    7.1490   -9.8519 C   0  0  0  0  0  0  0  0  0  0  0  0
   -7.4581    8.2911   -9.3906 O   0  0  0  0  0  0  0  0  0  0  0  0
   -8.1871    6.1519   -9.2402 N   0  0  0  0  0  0  0  0  0  0  0  0
  1  2  1  0
  2  3  1  0
  3  4  2  0
  4  5  1  0
  5  6  2  0
  6  7  1  0
  7  8  1  6
  8  9  2  0
  8 10  1  0
 10 11  1  0
 11 12  1  0
 12 13  1  6
 12 14  1  0
 14 15  2  0
 15 16  1  0
 16 17  2  0
 17 18  1  0
 18 19  2  0
  7 20  1  0
 20 21  1  0
 21 22  2  0
 21 23  1  0
  6  2  1  0
 19 14  1  0
 23  5  1  0
M  END
>  <energy_score>  (2427) 
-1.641621

>  <alias>  (2427) 
None

>  <HIPPO Pose ID>  (2427) 
74881

>  <smiles>  (2427) 
Cn1cnc2c1[C@@H](C(=O)NC[C@@H](O)c1ccncc1)CC(=O)N2

>  <inchikey>  (2427) 
AUWGRYJQWSZWGO-WDEREUQCSA-N

>  <distance_score>  (2427) 
1.742474

>  <ref_mols>  (2427) 
Z1495a,Z0800a

>  <ref_pdb>  (2427) 
Z0800a

>  <HIPPO Compound ID>  (2427) 
148849

>  <name>  (2427) 
P74881

>  <inspiration_score>  (2427) 
None

$$$$
P74882
     RDKit          3D

 23 25  0  0  0  0  0  0  0  0999 V2000
   -9.1601    3.7767  -18.0232 C   0  0  0  0  0  0  0  0  0  0  0  0
   -8.1548    4.1483  -16.9333 C   0  0  2  0  0  0  0  0  0  0  0  0
   -8.8827    4.7479  -15.7360 C   0  0  0  0  0  0  0  0  0  0  0  0
   -8.1048    4.8641  -14.5283 N   0  0  0  0  0  0  0  0  0  0  0  0
   -8.2850    5.7922  -13.3017 C   0  0  0  0  0  0  0  0  0  0  0  0
   -9.0446    6.6578  -13.1141 O   0  0  0  0  0  0  0  0  0  0  0  0
   -7.1595    5.4501  -12.2951 C   0  0  1  0  0  0  0  0  0  0  0  0
   -6.7392    6.7651  -11.6144 C   0  0  0  0  0  0  0  0  0  0  0  0
   -7.6479    7.2159  -10.4678 C   0  0  0  0  0  0  0  0  0  0  0  0
   -7.7197    8.4051  -10.1546 O   0  0  0  0  0  0  0  0  0  0  0  0
   -8.2516    6.2475   -9.7145 N   0  0  0  0  0  0  0  0  0  0  0  0
   -8.1655    4.9357  -10.0452 C   0  0  0  0  0  0  0  0  0  0  0  0
   -8.5130    3.9169   -9.2338 N   0  0  0  0  0  0  0  0  0  0  0  0
   -8.0998    2.8470   -9.8766 C   0  0  0  0  0  0  0  0  0  0  0  0
   -7.5286    3.1731  -11.0815 N   0  0  0  0  0  0  0  0  0  0  0  0
   -6.8376    2.2643  -11.9559 C   0  0  0  0  0  0  0  0  0  0  0  0
   -7.6328    4.5254  -11.2341 C   0  0  0  0  0  0  0  0  0  0  0  0
   -7.0479    5.0184  -17.4546 C   0  0  0  0  0  0  0  0  0  0  0  0
   -5.7468    4.8629  -16.9700 C   0  0  0  0  0  0  0  0  0  0  0  0
   -4.7471    5.6896  -17.4407 C   0  0  0  0  0  0  0  0  0  0  0  0
   -4.9562    6.6492  -18.3534 N   0  0  0  0  0  0  0  0  0  0  0  0
   -6.2148    6.7551  -18.8357 C   0  0  0  0  0  0  0  0  0  0  0  0
   -7.2806    5.9845  -18.4204 C   0  0  0  0  0  0  0  0  0  0  0  0
  2  1  1  6
  2  3  1  0
  3  4  1  0
  4  5  1  0
  5  6  2  0
  7  5  1  6
  7  8  1  0
  8  9  1  0
  9 10  2  0
  9 11  1  0
 11 12  1  0
 12 13  1  0
 13 14  2  0
 14 15  1  0
 15 16  1  0
 15 17  1  0
  2 18  1  0
 18 19  2  0
 19 20  1  0
 20 21  2  0
 21 22  1  0
 22 23  2  0
 17  7  1  0
 23 18  1  0
 17 12  2  0
M  END
>  <energy_score>  (2428) 
-20.233511

>  <alias>  (2428) 
None

>  <HIPPO Pose ID>  (2428) 
74882

>  <smiles>  (2428) 
C[C@H](CNC(=O)[C@H]1CC(=O)Nc2ncn(C)c21)c1ccncc1

>  <inchikey>  (2428) 
XOCUTHCQRGHVCR-PWSUYJOCSA-N

>  <distance_score>  (2428) 
1.673258

>  <ref_mols>  (2428) 
Z0800a,Z1495a

>  <ref_pdb>  (2428) 
Z0800a

>  <HIPPO Compound ID>  (2428) 
148853

>  <name>  (2428) 
P74882

>  <inspiration_score>  (2428) 
None

$$$$
P74885
     RDKit          3D

 23 25  0  0  0  0  0  0  0  0999 V2000
   -6.7058    2.0302  -11.9082 C   0  0  0  0  0  0  0  0  0  0  0  0
   -7.4884    2.9794  -11.1571 N   0  0  0  0  0  0  0  0  0  0  0  0
   -8.0414    2.7589   -9.9188 C   0  0  0  0  0  0  0  0  0  0  0  0
   -8.4866    3.8744   -9.3822 N   0  0  0  0  0  0  0  0  0  0  0  0
   -8.1765    4.8149  -10.2960 C   0  0  0  0  0  0  0  0  0  0  0  0
   -7.6703    4.3006  -11.4576 C   0  0  0  0  0  0  0  0  0  0  0  0
   -7.2330    5.1284  -12.6101 C   0  0  1  0  0  0  0  0  0  0  0  0
   -8.4024    5.4708  -13.5747 C   0  0  0  0  0  0  0  0  0  0  0  0
   -9.0854    6.4002  -13.3963 O   0  0  0  0  0  0  0  0  0  0  0  0
   -8.3829    4.4493  -14.7382 N   0  0  0  0  0  0  0  0  0  0  0  0
   -9.1385    4.4157  -15.9715 C   0  0  0  0  0  0  0  0  0  0  0  0
   -8.4345    4.2133  -17.2925 C   0  0  0  0  0  0  0  0  0  0  0  0
   -8.8941    3.4373  -18.1277 O   0  0  0  0  0  0  0  0  0  0  0  0
   -7.2533    5.0373  -17.6075 C   0  0  0  0  0  0  0  0  0  0  0  0
   -6.4274    4.6862  -18.6670 C   0  0  0  0  0  0  0  0  0  0  0  0
   -5.2675    5.4092  -18.8417 C   0  0  0  0  0  0  0  0  0  0  0  0
   -4.9010    6.4387  -18.0492 N   0  0  0  0  0  0  0  0  0  0  0  0
   -5.7684    6.8055  -17.0875 C   0  0  0  0  0  0  0  0  0  0  0  0
   -6.9558    6.1560  -16.8419 C   0  0  0  0  0  0  0  0  0  0  0  0
   -6.7350    6.4672  -12.0233 C   0  0  0  0  0  0  0  0  0  0  0  0
   -7.6239    7.0406  -10.9103 C   0  0  0  0  0  0  0  0  0  0  0  0
   -7.6675    8.2546  -10.7053 O   0  0  0  0  0  0  0  0  0  0  0  0
   -8.2484    6.1521  -10.0773 N   0  0  0  0  0  0  0  0  0  0  0  0
  1  2  1  0
  2  3  1  0
  3  4  2  0
  4  5  1  0
  5  6  2  0
  6  7  1  0
  7  8  1  6
  8  9  2  0
  8 10  1  0
 10 11  1  0
 11 12  1  0
 12 13  2  0
 12 14  1  0
 14 15  2  0
 15 16  1  0
 16 17  2  0
 17 18  1  0
 18 19  2  0
  7 20  1  0
 20 21  1  0
 21 22  2  0
 21 23  1  0
  6  2  1  0
 19 14  1  0
 23  5  1  0
M  END
>  <energy_score>  (2429) 
-10.290133

>  <alias>  (2429) 
None

>  <HIPPO Pose ID>  (2429) 
74885

>  <smiles>  (2429) 
Cn1cnc2c1[C@@H](C(=O)NCC(=O)c1ccncc1)CC(=O)N2

>  <inchikey>  (2429) 
VYHNEHJTGRJDRU-JTQLQIEISA-N

>  <distance_score>  (2429) 
1.816209

>  <ref_mols>  (2429) 
Z1495a,Z0800a

>  <ref_pdb>  (2429) 
Z0800a

>  <HIPPO Compound ID>  (2429) 
148854

>  <name>  (2429) 
P74885

>  <inspiration_score>  (2429) 
None

$$$$
P74886
     RDKit          3D

 23 25  0  0  0  0  0  0  0  0999 V2000
   -7.0409    3.5923  -15.0403 O   0  0  0  0  0  0  0  0  0  0  0  0
   -6.2482    4.3590  -15.4121 C   0  0  0  0  0  0  0  0  0  0  0  0
   -5.6385    4.2955  -16.8050 C   0  0  0  0  0  0  0  0  0  0  0  0
   -5.8470    5.5235  -17.5811 C   0  0  0  0  0  0  0  0  0  0  0  0
   -5.0545    6.6427  -17.7052 C   0  0  0  0  0  0  0  0  0  0  0  0
   -5.6371    7.5629  -18.5130 N   0  0  0  0  0  0  0  0  0  0  0  0
   -6.6981    6.9521  -18.9912 C   0  0  0  0  0  0  0  0  0  0  0  0
   -6.9112    5.7394  -18.4123 N   0  0  0  0  0  0  0  0  0  0  0  0
   -7.9261    4.7421  -18.8474 C   0  0  0  0  0  0  0  0  0  0  0  0
   -9.4170    4.9860  -18.8156 C   0  0  0  0  0  0  0  0  0  0  0  0
   -8.8251    3.9477  -17.9290 C   0  0  0  0  0  0  0  0  0  0  0  0
   -5.6014    5.5577  -14.6890 N   0  0  0  0  0  0  0  0  0  0  0  0
   -5.7241    6.0003  -13.3417 C   0  0  0  0  0  0  0  0  0  0  0  0
   -7.1129    6.5370  -12.9383 C   0  0  1  0  0  0  0  0  0  0  0  0
   -8.0772    7.0429  -14.0235 C   0  0  0  0  0  0  0  0  0  0  0  0
   -9.0501    6.0625  -14.6416 C   0  0  0  0  0  0  0  0  0  0  0  0
  -10.3726    6.5633  -14.4316 O   0  0  0  0  0  0  0  0  0  0  0  0
   -7.6952    5.7499  -11.7829 C   0  0  0  0  0  0  0  0  0  0  0  0
   -7.8904    4.3646  -11.8131 C   0  0  0  0  0  0  0  0  0  0  0  0
   -8.2209    3.7110  -10.6339 C   0  0  0  0  0  0  0  0  0  0  0  0
   -8.3560    4.3374   -9.4441 N   0  0  0  0  0  0  0  0  0  0  0  0
   -8.2179    5.6750   -9.4485 C   0  0  0  0  0  0  0  0  0  0  0  0
   -7.9101    6.4160  -10.5727 C   0  0  0  0  0  0  0  0  0  0  0  0
  1  2  2  0
  2  3  1  0
  3  4  1  0
  4  5  2  0
  5  6  1  0
  6  7  2  0
  7  8  1  0
  8  9  1  0
  9 10  1  0
 10 11  1  0
  2 12  1  0
 12 13  1  0
 14 13  1  6
 14 15  1  0
 15 16  1  0
 16 17  1  0
 14 18  1  0
 18 19  2  0
 19 20  1  0
 20 21  2  0
 21 22  1  0
 22 23  2  0
  8  4  1  0
 11  9  1  0
 23 18  1  0
M  END
>  <energy_score>  (2430) 
-0.671731

>  <alias>  (2430) 
None

>  <HIPPO Pose ID>  (2430) 
74886

>  <smiles>  (2430) 
O=C(Cc1cncn1C1CC1)NC[C@@H](CCO)c1ccncc1

>  <inchikey>  (2430) 
DGOQSYXJJHONLS-CQSZACIVSA-N

>  <distance_score>  (2430) 
1.940482

>  <ref_mols>  (2430) 
Z1495a,Z0800a

>  <ref_pdb>  (2430) 
Z0800a

>  <HIPPO Compound ID>  (2430) 
148864

>  <name>  (2430) 
P74886

>  <inspiration_score>  (2430) 
None

$$$$
P74887
     RDKit          3D

 23 25  0  0  0  0  0  0  0  0999 V2000
   -9.6357    7.1737  -14.0687 C   0  0  0  0  0  0  0  0  0  0  0  0
   -8.2666    6.5910  -14.3772 C   0  0  0  0  0  0  0  0  0  0  0  0
   -7.2418    6.7765  -13.2148 C   0  0  2  0  0  0  0  0  0  0  0  0
   -7.1537    8.3061  -12.9181 C   0  0  0  0  0  0  0  0  0  0  0  0
   -5.7770    6.3602  -13.5860 C   0  0  0  0  0  0  0  0  0  0  0  0
   -5.6418    5.8306  -14.9068 N   0  0  0  0  0  0  0  0  0  0  0  0
   -5.9378    4.4210  -15.4551 C   0  0  0  0  0  0  0  0  0  0  0  0
   -6.4103    3.4921  -14.9341 O   0  0  0  0  0  0  0  0  0  0  0  0
   -5.4737    4.3383  -16.9061 C   0  0  0  0  0  0  0  0  0  0  0  0
   -5.5774    5.5596  -17.7190 C   0  0  0  0  0  0  0  0  0  0  0  0
   -4.5845    6.4709  -18.0114 C   0  0  0  0  0  0  0  0  0  0  0  0
   -5.0485    7.4654  -18.8100 N   0  0  0  0  0  0  0  0  0  0  0  0
   -6.2744    7.1033  -19.1110 C   0  0  0  0  0  0  0  0  0  0  0  0
   -6.6682    5.9875  -18.4270 N   0  0  0  0  0  0  0  0  0  0  0  0
   -8.0487    5.4537  -18.5199 C   0  0  0  0  0  0  0  0  0  0  0  0
   -8.7284    4.4194  -17.6697 C   0  0  0  0  0  0  0  0  0  0  0  0
   -8.3465    4.0964  -19.0856 C   0  0  0  0  0  0  0  0  0  0  0  0
   -7.6543    5.9539  -11.9775 C   0  0  0  0  0  0  0  0  0  0  0  0
   -7.8825    4.5683  -12.0600 C   0  0  0  0  0  0  0  0  0  0  0  0
   -8.1524    3.8473  -10.9026 C   0  0  0  0  0  0  0  0  0  0  0  0
   -8.2138    4.4030   -9.6746 N   0  0  0  0  0  0  0  0  0  0  0  0
   -8.0306    5.7320   -9.6113 C   0  0  0  0  0  0  0  0  0  0  0  0
   -7.7542    6.5329  -10.7078 C   0  0  0  0  0  0  0  0  0  0  0  0
  1  2  1  0
  3  2  1  0
  3  4  1  1
  3  5  1  0
  5  6  1  0
  6  7  1  0
  7  8  2  0
  7  9  1  0
  9 10  1  0
 10 11  2  0
 11 12  1  0
 12 13  2  0
 13 14  1  0
 14 15  1  0
 15 16  1  0
 16 17  1  0
  3 18  1  0
 18 19  2  0
 19 20  1  0
 20 21  2  0
 21 22  1  0
 22 23  2  0
 14 10  1  0
 17 15  1  0
 23 18  1  0
M  END
>  <energy_score>  (2431) 
-28.222183

>  <alias>  (2431) 
None

>  <HIPPO Pose ID>  (2431) 
74887

>  <smiles>  (2431) 
CC[C@](C)(CNC(=O)Cc1cncn1C1CC1)c1ccncc1

>  <inchikey>  (2431) 
PHUGTAVBKBWLOP-GOSISDBHSA-N

>  <distance_score>  (2431) 
1.929854

>  <ref_mols>  (2431) 
Z1495a,Z0800a

>  <ref_pdb>  (2431) 
Z0800a

>  <HIPPO Compound ID>  (2431) 
148868

>  <name>  (2431) 
P74887

>  <inspiration_score>  (2431) 
None

$$$$
P74888
     RDKit          3D

 23 25  0  0  0  0  0  0  0  0999 V2000
   -6.5336    6.2124  -14.3590 C   0  0  0  0  0  0  0  0  0  0  0  0
   -7.8987    5.5533  -14.0890 C   0  0  0  0  0  0  0  0  0  0  0  0
   -8.9662    6.5878  -14.4876 C   0  0  0  0  0  0  0  0  0  0  0  0
   -8.0597    4.2853  -15.0087 C   0  0  0  0  0  0  0  0  0  0  0  0
   -7.2894    4.3274  -16.2290 N   0  0  0  0  0  0  0  0  0  0  0  0
   -7.6036    4.9848  -17.5921 C   0  0  0  0  0  0  0  0  0  0  0  0
   -8.4960    5.6579  -17.9167 O   0  0  0  0  0  0  0  0  0  0  0  0
   -6.4252    4.6986  -18.5360 C   0  0  0  0  0  0  0  0  0  0  0  0
   -5.1379    5.2474  -18.0029 C   0  0  0  0  0  0  0  0  0  0  0  0
   -4.2790    4.6921  -17.0690 C   0  0  0  0  0  0  0  0  0  0  0  0
   -3.2268    5.5040  -16.7749 N   0  0  0  0  0  0  0  0  0  0  0  0
   -3.3926    6.5463  -17.5480 C   0  0  0  0  0  0  0  0  0  0  0  0
   -4.5222    6.4364  -18.3096 N   0  0  0  0  0  0  0  0  0  0  0  0
   -4.9040    7.5210  -19.2275 C   0  0  0  0  0  0  0  0  0  0  0  0
   -5.4211    7.3288  -20.6229 C   0  0  0  0  0  0  0  0  0  0  0  0
   -6.3174    7.8820  -19.5489 C   0  0  0  0  0  0  0  0  0  0  0  0
   -8.0268    5.2505  -12.5718 C   0  0  0  0  0  0  0  0  0  0  0  0
   -7.8712    6.3699  -11.6355 C   0  0  0  0  0  0  0  0  0  0  0  0
   -7.9331    6.1873  -10.3115 C   0  0  0  0  0  0  0  0  0  0  0  0
   -8.1608    4.9438   -9.7989 N   0  0  0  0  0  0  0  0  0  0  0  0
   -8.3664    3.8309  -10.5702 C   0  0  0  0  0  0  0  0  0  0  0  0
   -8.6096    2.7361  -10.0835 O   0  0  0  0  0  0  0  0  0  0  0  0
   -8.2703    4.0330  -12.0408 C   0  0  0  0  0  0  0  0  0  0  0  0
  1  2  1  0
  2  3  1  0
  2  4  1  0
  4  5  1  0
  5  6  1  0
  6  7  2  0
  6  8  1  0
  8  9  1  0
  9 10  2  0
 10 11  1  0
 11 12  2  0
 12 13  1  0
 13 14  1  0
 14 15  1  0
 15 16  1  0
  2 17  1  0
 17 18  1  0
 18 19  2  0
 19 20  1  0
 20 21  1  0
 21 22  2  0
 21 23  1  0
 13  9  1  0
 16 14  1  0
 23 17  2  0
M  END
>  <energy_score>  (2432) 
-19.191725

>  <alias>  (2432) 
None

>  <HIPPO Pose ID>  (2432) 
74888

>  <smiles>  (2432) 
CC(C)(CNC(=O)Cc1cncn1C1CC1)c1cc[nH]c(=O)c1

>  <inchikey>  (2432) 
YQJOYGVJPGCYFL-UHFFFAOYSA-N

>  <distance_score>  (2432) 
1.968706

>  <ref_mols>  (2432) 
Z1495a,Z0800a

>  <ref_pdb>  (2432) 
Z0800a

>  <HIPPO Compound ID>  (2432) 
148871

>  <name>  (2432) 
P74888

>  <inspiration_score>  (2432) 
None

$$$$
P74889
     RDKit          3D

 23 25  0  0  0  0  0  0  0  0999 V2000
   -7.3771    6.4909  -16.2115 O   0  0  0  0  0  0  0  0  0  0  0  0
   -6.7178    5.7257  -15.6316 C   0  0  0  0  0  0  0  0  0  0  0  0
   -6.1675    4.4448  -16.2682 C   0  0  0  0  0  0  0  0  0  0  0  0
   -5.7449    4.8443  -17.6179 C   0  0  0  0  0  0  0  0  0  0  0  0
   -4.5568    5.4325  -17.9930 C   0  0  0  0  0  0  0  0  0  0  0  0
   -4.6373    5.9310  -19.2517 N   0  0  0  0  0  0  0  0  0  0  0  0
   -5.8485    5.6097  -19.6625 C   0  0  0  0  0  0  0  0  0  0  0  0
   -6.5494    4.9129  -18.7213 N   0  0  0  0  0  0  0  0  0  0  0  0
   -7.8537    4.2347  -18.9627 C   0  0  0  0  0  0  0  0  0  0  0  0
   -8.9224    3.9369  -17.9295 C   0  0  0  0  0  0  0  0  0  0  0  0
   -9.1739    4.9540  -18.9831 C   0  0  0  0  0  0  0  0  0  0  0  0
   -6.2145    5.7443  -14.1804 N   0  0  0  0  0  0  0  0  0  0  0  0
   -6.4934    6.6607  -13.1053 C   0  0  1  0  0  0  0  0  0  0  0  0
   -6.0648    8.0926  -13.4694 C   0  0  0  0  0  0  0  0  0  0  0  0
   -6.8935    8.6782  -14.4632 O   0  0  0  0  0  0  0  0  0  0  0  0
   -8.0097    6.5881  -12.7499 C   0  0  1  0  0  0  0  0  0  0  0  0
   -8.8835    6.1824  -13.8073 O   0  0  0  0  0  0  0  0  0  0  0  0
   -8.1358    5.6432  -11.5829 C   0  0  0  0  0  0  0  0  0  0  0  0
   -8.2366    4.2568  -11.7299 C   0  0  0  0  0  0  0  0  0  0  0  0
   -8.2283    3.4776  -10.5843 C   0  0  0  0  0  0  0  0  0  0  0  0
   -8.1051    3.9829   -9.3349 N   0  0  0  0  0  0  0  0  0  0  0  0
   -8.0301    5.3198   -9.2196 C   0  0  0  0  0  0  0  0  0  0  0  0
   -8.0388    6.1811  -10.2957 C   0  0  0  0  0  0  0  0  0  0  0  0
  1  2  2  0
  2  3  1  0
  3  4  1  0
  4  5  2  0
  5  6  1  0
  6  7  2  0
  7  8  1  0
  8  9  1  0
  9 10  1  0
 10 11  1  0
  2 12  1  0
 12 13  1  0
 13 14  1  6
 14 15  1  0
 13 16  1  0
 16 17  1  6
 16 18  1  0
 18 19  2  0
 19 20  1  0
 20 21  2  0
 21 22  1  0
 22 23  2  0
  8  4  1  0
 11  9  1  0
 23 18  1  0
M  END
>  <energy_score>  (2433) 
-17.078681

>  <alias>  (2433) 
None

>  <HIPPO Pose ID>  (2433) 
74889

>  <smiles>  (2433) 
O=C(Cc1cncn1C1CC1)N[C@@H](CO)[C@@H](O)c1ccncc1

>  <inchikey>  (2433) 
FZBWCOLHLCGAIR-HOCLYGCPSA-N

>  <distance_score>  (2433) 
1.977366

>  <ref_mols>  (2433) 
Z1495a,Z0800a

>  <ref_pdb>  (2433) 
Z0800a

>  <HIPPO Compound ID>  (2433) 
148872

>  <name>  (2433) 
P74889

>  <inspiration_score>  (2433) 
None

$$$$
P74890
     RDKit          3D

 23 26  0  0  0  0  0  0  0  0999 V2000
   -8.9454    5.3681  -15.4878 O   0  0  0  0  0  0  0  0  0  0  0  0
   -7.7859    5.3060  -15.3802 C   0  0  0  0  0  0  0  0  0  0  0  0
   -6.9501    4.2147  -16.0292 C   0  0  0  0  0  0  0  0  0  0  0  0
   -6.3522    4.7646  -17.2634 C   0  0  0  0  0  0  0  0  0  0  0  0
   -5.1180    5.3606  -17.4323 C   0  0  0  0  0  0  0  0  0  0  0  0
   -4.9706    5.8557  -18.6882 N   0  0  0  0  0  0  0  0  0  0  0  0
   -6.0770    5.5078  -19.3128 C   0  0  0  0  0  0  0  0  0  0  0  0
   -6.9477    4.8406  -18.4943 N   0  0  0  0  0  0  0  0  0  0  0  0
   -8.1942    4.2064  -18.9939 C   0  0  0  0  0  0  0  0  0  0  0  0
   -9.3251    3.6039  -18.1996 C   0  0  0  0  0  0  0  0  0  0  0  0
   -9.5391    4.8836  -18.9310 C   0  0  0  0  0  0  0  0  0  0  0  0
   -6.7969    6.2318  -14.6289 N   0  0  0  0  0  0  0  0  0  0  0  0
   -7.0403    7.3595  -13.7850 C   0  0  0  0  0  0  0  0  0  0  0  0
   -8.2989    7.1344  -12.9562 C   0  0  0  0  0  0  0  0  0  0  0  0
   -8.0925    6.1634  -11.8231 C   0  0  0  0  0  0  0  0  0  0  0  0
   -7.7574    6.7664  -10.5339 C   0  0  0  0  0  0  0  0  0  0  0  0
   -7.7149    5.9941   -9.4384 C   0  0  0  0  0  0  0  0  0  0  0  0
   -7.9596    4.6329   -9.5605 N   0  0  0  0  0  0  0  0  0  0  0  0
   -7.9873    3.6682   -8.5922 C   0  0  0  0  0  0  0  0  0  0  0  0
   -8.2595    2.4970   -9.2589 C   0  0  0  0  0  0  0  0  0  0  0  0
   -8.4045    2.7173  -10.6074 N   0  0  0  0  0  0  0  0  0  0  0  0
   -8.2235    4.0070  -10.7698 C   0  0  0  0  0  0  0  0  0  0  0  0
   -8.2913    4.8290  -11.9288 C   0  0  0  0  0  0  0  0  0  0  0  0
  1  2  2  0
  2  3  1  0
  3  4  1  0
  4  5  2  0
  5  6  1  0
  6  7  2  0
  7  8  1  0
  8  9  1  0
  9 10  1  0
 10 11  1  0
  2 12  1  0
 12 13  1  0
 13 14  1  0
 14 15  1  0
 15 16  1  0
 16 17  2  0
 17 18  1  0
 18 19  1  0
 19 20  2  0
 20 21  1  0
 21 22  2  0
 22 23  1  0
  8  4  1  0
 11  9  1  0
 23 15  2  0
 22 18  1  0
M  END
>  <energy_score>  (2434) 
-10.206595

>  <alias>  (2434) 
None

>  <HIPPO Pose ID>  (2434) 
74890

>  <smiles>  (2434) 
O=C(Cc1cncn1C1CC1)NCCc1ccn2ccnc2c1

>  <inchikey>  (2434) 
KLBIVXGXZAMXKZ-UHFFFAOYSA-N

>  <distance_score>  (2434) 
1.749561

>  <ref_mols>  (2434) 
Z1495a,Z0800a

>  <ref_pdb>  (2434) 
Z0800a

>  <HIPPO Compound ID>  (2434) 
148873

>  <name>  (2434) 
P74890

>  <inspiration_score>  (2434) 
None

$$$$
P74891
     RDKit          3D

 23 25  0  0  0  0  0  0  0  0999 V2000
   -8.8530    4.0474  -19.5499 C   0  0  0  0  0  0  0  0  0  0  0  0
   -8.6452    5.1757  -18.5642 C   0  0  1  0  0  0  0  0  0  0  0  0
   -9.4247    4.8906  -17.2841 C   0  0  0  0  0  0  0  0  0  0  0  0
   -8.7029    3.8883  -16.4118 C   0  0  0  0  0  0  0  0  0  0  0  0
   -7.2628    4.2944  -16.1392 C   0  0  0  0  0  0  0  0  0  0  0  0
   -6.5341    4.8351  -17.2593 N   0  0  0  0  0  0  0  0  0  0  0  0
   -5.2142    5.2289  -17.3010 C   0  0  0  0  0  0  0  0  0  0  0  0
   -4.1279    4.8534  -16.3539 C   0  0  0  0  0  0  0  0  0  0  0  0
   -4.3234    5.6201  -15.0431 C   0  0  0  0  0  0  0  0  0  0  0  0
   -4.0644    6.7511  -14.9176 O   0  0  0  0  0  0  0  0  0  0  0  0
   -4.9934    4.6277  -14.0580 N   0  0  0  0  0  0  0  0  0  0  0  0
   -5.5633    4.8459  -12.7627 C   0  0  0  0  0  0  0  0  0  0  0  0
   -7.0827    5.0408  -12.8850 C   0  0  0  0  0  0  0  0  0  0  0  0
   -7.6917    5.0141  -11.5202 C   0  0  0  0  0  0  0  0  0  0  0  0
   -8.0899    3.7744  -10.9975 C   0  0  0  0  0  0  0  0  0  0  0  0
   -8.4602    3.7030   -9.6683 C   0  0  0  0  0  0  0  0  0  0  0  0
   -8.4592    4.7705   -8.8403 N   0  0  0  0  0  0  0  0  0  0  0  0
   -8.1249    5.9652   -9.3837 C   0  0  0  0  0  0  0  0  0  0  0  0
   -7.7445    6.1427  -10.7017 C   0  0  0  0  0  0  0  0  0  0  0  0
   -7.3062    7.7177  -11.2384 Cl  0  0  0  0  0  0  0  0  0  0  0  0
   -5.1720    6.1128  -18.3533 C   0  0  0  0  0  0  0  0  0  0  0  0
   -6.3985    6.2602  -18.9255 N   0  0  0  0  0  0  0  0  0  0  0  0
   -7.1945    5.4227  -18.3023 C   0  0  0  0  0  0  0  0  0  0  0  0
  2  1  1  6
  2  3  1  0
  3  4  1  0
  4  5  1  0
  5  6  1  0
  6  7  1  0
  7  8  1  0
  8  9  1  0
  9 10  2  0
  9 11  1  0
 11 12  1  0
 12 13  1  0
 13 14  1  0
 14 15  2  0
 15 16  1  0
 16 17  2  0
 17 18  1  0
 18 19  2  0
 19 20  1  0
  7 21  2  0
 21 22  1  0
 22 23  2  0
 23  2  1  0
 23  6  1  0
 19 14  1  0
M  END
>  <energy_score>  (2435) 
-11.891898

>  <alias>  (2435) 
None

>  <HIPPO Pose ID>  (2435) 
74891

>  <smiles>  (2435) 
C[C@H]1CCCn2c(CC(=O)NCCc3ccncc3Cl)cnc21

>  <inchikey>  (2435) 
SEANHBUFVVUJRV-LBPRGKRZSA-N

>  <distance_score>  (2435) 
1.881623

>  <ref_mols>  (2435) 
Z1495a,Z0800a

>  <ref_pdb>  (2435) 
Z0800a

>  <HIPPO Compound ID>  (2435) 
148879

>  <name>  (2435) 
P74891

>  <inspiration_score>  (2435) 
None

$$$$
P74893
     RDKit          3D

 23 25  0  0  0  0  0  0  0  0999 V2000
   -9.6175    4.8878  -17.2558 C   0  0  0  0  0  0  0  0  0  0  0  0
   -8.6466    5.2643  -18.3604 C   0  0  2  0  0  0  0  0  0  0  0  0
   -8.4485    4.0399  -19.2410 C   0  0  0  0  0  0  0  0  0  0  0  0
   -7.1090    4.0496  -19.9487 C   0  0  0  0  0  0  0  0  0  0  0  0
   -5.9642    4.2167  -18.9856 C   0  0  0  0  0  0  0  0  0  0  0  0
   -6.1339    5.3779  -18.1619 N   0  0  0  0  0  0  0  0  0  0  0  0
   -5.2103    5.9440  -17.3299 C   0  0  0  0  0  0  0  0  0  0  0  0
   -3.9186    5.3194  -16.9183 C   0  0  0  0  0  0  0  0  0  0  0  0
   -3.9231    5.1724  -15.3763 C   0  0  0  0  0  0  0  0  0  0  0  0
   -3.0034    5.4873  -14.7247 O   0  0  0  0  0  0  0  0  0  0  0  0
   -5.3368    4.6665  -14.9516 N   0  0  0  0  0  0  0  0  0  0  0  0
   -5.9285    4.5391  -13.6496 C   0  0  0  0  0  0  0  0  0  0  0  0
   -7.4557    4.8375  -13.6293 C   0  0  2  0  0  0  0  0  0  0  0  0
   -7.8019    6.1083  -14.1852 O   0  0  0  0  0  0  0  0  0  0  0  0
   -7.8777    4.8228  -12.1793 C   0  0  0  0  0  0  0  0  0  0  0  0
   -8.1936    3.6154  -11.5517 C   0  0  0  0  0  0  0  0  0  0  0  0
   -8.3972    3.6147  -10.1810 C   0  0  0  0  0  0  0  0  0  0  0  0
   -8.3073    4.7198   -9.4047 N   0  0  0  0  0  0  0  0  0  0  0  0
   -8.0391    5.8806  -10.0369 C   0  0  0  0  0  0  0  0  0  0  0  0
   -7.8180    5.9830  -11.3982 C   0  0  0  0  0  0  0  0  0  0  0  0
   -5.8849    7.0027  -16.7663 C   0  0  0  0  0  0  0  0  0  0  0  0
   -7.2292    6.8492  -16.9701 N   0  0  0  0  0  0  0  0  0  0  0  0
   -7.3696    5.8453  -17.8127 C   0  0  0  0  0  0  0  0  0  0  0  0
  2  1  1  1
  2  3  1  0
  3  4  1  0
  4  5  1  0
  5  6  1  0
  6  7  1  0
  7  8  1  0
  8  9  1  0
  9 10  2  0
  9 11  1  0
 11 12  1  0
 12 13  1  0
 13 14  1  1
 13 15  1  0
 15 16  2  0
 16 17  1  0
 17 18  2  0
 18 19  1  0
 19 20  2  0
  7 21  2  0
 21 22  1  0
 22 23  2  0
 23  2  1  0
 23  6  1  0
 20 15  1  0
M  END
>  <energy_score>  (2436) 
-17.016112

>  <alias>  (2436) 
None

>  <HIPPO Pose ID>  (2436) 
74893

>  <smiles>  (2436) 
C[C@@H]1CCCn2c(CC(=O)NC[C@H](O)c3ccncc3)cnc21

>  <inchikey>  (2436) 
QEYCZQQNMKTATB-DOMZBBRYSA-N

>  <distance_score>  (2436) 
1.511584

>  <ref_mols>  (2436) 
Z1495a,Z0800a

>  <ref_pdb>  (2436) 
Z0800a

>  <HIPPO Compound ID>  (2436) 
148880

>  <name>  (2436) 
P74893

>  <inspiration_score>  (2436) 
None

$$$$
P74894
     RDKit          3D

 23 25  0  0  0  0  0  0  0  0999 V2000
   -9.9083    5.0393  -17.5970 C   0  0  0  0  0  0  0  0  0  0  0  0
   -8.8019    4.0200  -17.7654 C   0  0  1  0  0  0  0  0  0  0  0  0
   -8.5327    3.8579  -19.2562 C   0  0  0  0  0  0  0  0  0  0  0  0
   -7.1492    4.3348  -19.6819 C   0  0  0  0  0  0  0  0  0  0  0  0
   -6.6816    5.5876  -18.9597 C   0  0  0  0  0  0  0  0  0  0  0  0
   -6.6071    5.2154  -17.5634 N   0  0  0  0  0  0  0  0  0  0  0  0
   -5.5918    5.3568  -16.6608 C   0  0  0  0  0  0  0  0  0  0  0  0
   -4.6183    6.4864  -16.6177 C   0  0  0  0  0  0  0  0  0  0  0  0
   -5.4068    7.7017  -16.0799 C   0  0  0  0  0  0  0  0  0  0  0  0
   -5.5789    8.6733  -16.7094 O   0  0  0  0  0  0  0  0  0  0  0  0
   -5.9528    7.2978  -14.6750 N   0  0  0  0  0  0  0  0  0  0  0  0
   -6.8879    7.9617  -13.8134 C   0  0  0  0  0  0  0  0  0  0  0  0
   -8.1267    7.0572  -13.5904 C   0  0  0  0  0  0  0  0  0  0  0  0
   -8.0298    6.1455  -12.3838 C   0  0  0  0  0  0  0  0  0  0  0  0
   -7.9982    4.7508  -12.5521 C   0  0  0  0  0  0  0  0  0  0  0  0
   -7.9246    3.9282  -11.4326 C   0  0  0  0  0  0  0  0  0  0  0  0
   -7.8640    4.3938  -10.1673 N   0  0  0  0  0  0  0  0  0  0  0  0
   -7.9347    5.7317  -10.0167 C   0  0  0  0  0  0  0  0  0  0  0  0
   -8.0264    6.6345  -11.0692 C   0  0  0  0  0  0  0  0  0  0  0  0
   -8.2179    8.4703  -10.6254 Br  0  0  0  0  0  0  0  0  0  0  0  0
   -5.8671    4.3947  -15.7114 C   0  0  0  0  0  0  0  0  0  0  0  0
   -7.1291    3.9003  -15.8760 N   0  0  0  0  0  0  0  0  0  0  0  0
   -7.5577    4.3892  -17.0166 C   0  0  0  0  0  0  0  0  0  0  0  0
  2  1  1  6
  2  3  1  0
  3  4  1  0
  4  5  1  0
  5  6  1  0
  6  7  1  0
  7  8  1  0
  8  9  1  0
  9 10  2  0
  9 11  1  0
 11 12  1  0
 12 13  1  0
 13 14  1  0
 14 15  2  0
 15 16  1  0
 16 17  2  0
 17 18  1  0
 18 19  2  0
 19 20  1  0
  7 21  2  0
 21 22  1  0
 22 23  2  0
 23  2  1  0
 23  6  1  0
 19 14  1  0
M  END
>  <energy_score>  (2437) 
-3.759498

>  <alias>  (2437) 
None

>  <HIPPO Pose ID>  (2437) 
74894

>  <smiles>  (2437) 
C[C@H]1CCCn2c(CC(=O)NCCc3ccncc3Br)cnc21

>  <inchikey>  (2437) 
FZVVNQZKESBIDX-LBPRGKRZSA-N

>  <distance_score>  (2437) 
1.946572

>  <ref_mols>  (2437) 
Z1495a,Z0800a

>  <ref_pdb>  (2437) 
Z0800a

>  <HIPPO Compound ID>  (2437) 
148889

>  <name>  (2437) 
P74894

>  <inspiration_score>  (2437) 
None

$$$$
P74895
     RDKit          3D

 23 25  0  0  0  0  0  0  0  0999 V2000
   -8.4324    2.1196   -8.6089 C   0  0  0  0  0  0  0  0  0  0  0  0
   -8.2080    3.3940   -9.3461 C   0  0  0  0  0  0  0  0  0  0  0  0
   -8.4466    4.5914   -8.8532 N   0  0  0  0  0  0  0  0  0  0  0  0
   -8.1421    5.4650   -9.8500 C   0  0  0  0  0  0  0  0  0  0  0  0
   -7.6922    4.8273  -10.9799 C   0  0  0  0  0  0  0  0  0  0  0  0
   -7.7121    3.4991  -10.6333 N   0  0  0  0  0  0  0  0  0  0  0  0
   -7.2584    2.4092  -11.4551 C   0  0  0  0  0  0  0  0  0  0  0  0
   -7.2033    5.5124  -12.2246 C   0  0  1  0  0  0  0  0  0  0  0  0
   -8.1104    5.2088  -13.4532 C   0  0  0  0  0  0  0  0  0  0  0  0
   -9.2328    5.5177  -13.5338 O   0  0  0  0  0  0  0  0  0  0  0  0
   -7.2299    4.3632  -14.4098 N   0  0  0  0  0  0  0  0  0  0  0  0
   -7.5733    3.6508  -15.6037 C   0  0  0  0  0  0  0  0  0  0  0  0
   -7.9918    4.2935  -16.9344 C   0  0  1  0  0  0  0  0  0  0  0  0
   -9.4144    4.8014  -16.9400 C   0  0  0  0  0  0  0  0  0  0  0  0
   -6.9940    5.2986  -17.4125 C   0  0  0  0  0  0  0  0  0  0  0  0
   -6.1610    5.0247  -18.4974 C   0  0  0  0  0  0  0  0  0  0  0  0
   -5.1632    5.9274  -18.7976 C   0  0  0  0  0  0  0  0  0  0  0  0
   -4.9414    7.0559  -18.0929 N   0  0  0  0  0  0  0  0  0  0  0  0
   -5.7994    7.3191  -17.0869 C   0  0  0  0  0  0  0  0  0  0  0  0
   -6.8406    6.4950  -16.7263 C   0  0  0  0  0  0  0  0  0  0  0  0
   -7.1029    7.0382  -12.0018 C   0  0  0  0  0  0  0  0  0  0  0  0
   -8.1791    7.6150  -11.0701 C   0  0  0  0  0  0  0  0  0  0  0  0
   -8.2025    6.9300   -9.6981 C   0  0  0  0  0  0  0  0  0  0  0  0
  1  2  1  0
  2  3  2  0
  3  4  1  0
  4  5  2  0
  5  6  1  0
  6  7  1  0
  5  8  1  0
  8  9  1  6
  9 10  2  0
  9 11  1  0
 11 12  1  0
 12 13  1  0
 13 14  1  1
 13 15  1  0
 15 16  2  0
 16 17  1  0
 17 18  2  0
 18 19  1  0
 19 20  2  0
  8 21  1  0
 21 22  1  0
 22 23  1  0
  6  2  1  0
 20 15  1  0
 23  4  1  0
M  END
>  <energy_score>  (2438) 
-30.63853

>  <alias>  (2438) 
None

>  <HIPPO Pose ID>  (2438) 
74895

>  <smiles>  (2438) 
Cc1nc2c(n1C)[C@@H](C(=O)NC[C@@H](C)c1ccncc1)CCC2

>  <inchikey>  (2438) 
QCGWRXQCRDMEBD-DOMZBBRYSA-N

>  <distance_score>  (2438) 
1.953056

>  <ref_mols>  (2438) 
Z1495a,Z0800a

>  <ref_pdb>  (2438) 
Z0800a

>  <HIPPO Compound ID>  (2438) 
148890

>  <name>  (2438) 
P74895

>  <inspiration_score>  (2438) 
None

$$$$
P74896
     RDKit          3D

 23 25  0  0  0  0  0  0  0  0999 V2000
   -8.8492    2.7588   -7.7457 C   0  0  0  0  0  0  0  0  0  0  0  0
   -8.5318    3.3224   -9.0848 C   0  0  0  0  0  0  0  0  0  0  0  0
   -8.2448    2.5802  -10.1291 N   0  0  0  0  0  0  0  0  0  0  0  0
   -7.8068    3.4346  -11.0760 C   0  0  0  0  0  0  0  0  0  0  0  0
   -7.9975    4.7476  -10.7235 C   0  0  0  0  0  0  0  0  0  0  0  0
   -8.3537    4.6621   -9.3893 N   0  0  0  0  0  0  0  0  0  0  0  0
   -8.2731    5.7393   -8.4331 C   0  0  0  0  0  0  0  0  0  0  0  0
   -7.4596    5.9165  -11.4823 C   0  0  2  0  0  0  0  0  0  0  0  0
   -8.3982    6.4804  -12.6025 C   0  0  0  0  0  0  0  0  0  0  0  0
   -8.9845    7.4791  -12.4330 O   0  0  0  0  0  0  0  0  0  0  0  0
   -8.2884    5.5780  -13.8660 N   0  0  0  0  0  0  0  0  0  0  0  0
   -8.8020    5.7718  -15.2107 C   0  0  0  0  0  0  0  0  0  0  0  0
   -8.5729    4.5565  -16.1624 C   0  0  1  0  0  0  0  0  0  0  0  0
   -9.6956    4.2740  -16.9949 O   0  0  0  0  0  0  0  0  0  0  0  0
   -7.3643    4.8048  -17.0313 C   0  0  0  0  0  0  0  0  0  0  0  0
   -6.0823    4.6779  -16.4854 C   0  0  0  0  0  0  0  0  0  0  0  0
   -4.9807    5.0321  -17.2386 C   0  0  0  0  0  0  0  0  0  0  0  0
   -5.0689    5.4981  -18.4898 N   0  0  0  0  0  0  0  0  0  0  0  0
   -6.3156    5.5685  -19.0172 C   0  0  0  0  0  0  0  0  0  0  0  0
   -7.4810    5.2476  -18.3440 C   0  0  0  0  0  0  0  0  0  0  0  0
   -6.0685    5.5574  -12.0491 C   0  0  0  0  0  0  0  0  0  0  0  0
   -5.7409    4.0474  -12.2141 C   0  0  0  0  0  0  0  0  0  0  0  0
   -6.9027    3.0298  -12.1546 C   0  0  0  0  0  0  0  0  0  0  0  0
  1  2  1  0
  2  3  2  0
  3  4  1  0
  4  5  2  0
  5  6  1  0
  6  7  1  0
  5  8  1  0
  8  9  1  6
  9 10  2  0
  9 11  1  0
 11 12  1  0
 12 13  1  0
 13 14  1  6
 13 15  1  0
 15 16  2  0
 16 17  1  0
 17 18  2  0
 18 19  1  0
 19 20  2  0
  8 21  1  0
 21 22  1  0
 22 23  1  0
  6  2  1  0
 20 15  1  0
 23  4  1  0
M  END
>  <energy_score>  (2439) 
-1.128428

>  <alias>  (2439) 
None

>  <HIPPO Pose ID>  (2439) 
74896

>  <smiles>  (2439) 
Cc1nc2c(n1C)[C@H](C(=O)NC[C@@H](O)c1ccncc1)CCC2

>  <inchikey>  (2439) 
QNJRDWJNYRIQOM-UKRRQHHQSA-N

>  <distance_score>  (2439) 
1.914654

>  <ref_mols>  (2439) 
Z0800a,Z1495a

>  <ref_pdb>  (2439) 
Z0800a

>  <HIPPO Compound ID>  (2439) 
148894

>  <name>  (2439) 
P74896

>  <inspiration_score>  (2439) 
None

$$$$
P74897
     RDKit          3D

 23 25  0  0  0  0  0  0  0  0999 V2000
   -9.9683    5.3049  -18.0431 C   0  0  0  0  0  0  0  0  0  0  0  0
   -8.5677    4.8661  -18.4081 C   0  0  2  0  0  0  0  0  0  0  0  0
   -8.3379    3.5978  -17.6210 C   0  0  0  0  0  0  0  0  0  0  0  0
   -7.7994    3.8874  -16.2267 C   0  0  0  0  0  0  0  0  0  0  0  0
   -6.3845    4.4107  -16.3998 C   0  0  0  0  0  0  0  0  0  0  0  0
   -6.3912    5.5638  -17.2666 N   0  0  0  0  0  0  0  0  0  0  0  0
   -5.4399    6.5478  -17.3582 C   0  0  0  0  0  0  0  0  0  0  0  0
   -4.1652    6.6493  -16.5837 C   0  0  0  0  0  0  0  0  0  0  0  0
   -4.3269    6.4880  -15.0671 C   0  0  0  0  0  0  0  0  0  0  0  0
   -3.5602    5.8648  -14.4434 O   0  0  0  0  0  0  0  0  0  0  0  0
   -5.6420    7.1905  -14.6331 N   0  0  0  0  0  0  0  0  0  0  0  0
   -6.3287    7.1892  -13.3673 C   0  0  0  0  0  0  0  0  0  0  0  0
   -7.4867    6.1609  -13.3712 C   0  0  2  0  0  0  0  0  0  0  0  0
   -8.7175    6.7238  -14.0791 C   0  0  0  0  0  0  0  0  0  0  0  0
   -7.8189    5.6572  -11.9861 C   0  0  0  0  0  0  0  0  0  0  0  0
   -7.8981    6.5238  -10.8957 C   0  0  0  0  0  0  0  0  0  0  0  0
   -8.0984    5.9853   -9.6371 C   0  0  0  0  0  0  0  0  0  0  0  0
   -8.2447    4.6684   -9.3925 N   0  0  0  0  0  0  0  0  0  0  0  0
   -8.2160    3.8446  -10.4638 C   0  0  0  0  0  0  0  0  0  0  0  0
   -8.0097    4.2860  -11.7620 C   0  0  0  0  0  0  0  0  0  0  0  0
   -5.9478    7.3940  -18.3104 C   0  0  0  0  0  0  0  0  0  0  0  0
   -7.1700    6.9772  -18.7468 N   0  0  0  0  0  0  0  0  0  0  0  0
   -7.4178    5.8309  -18.1544 C   0  0  0  0  0  0  0  0  0  0  0  0
  2  1  1  1
  2  3  1  0
  3  4  1  0
  4  5  1  0
  5  6  1  0
  6  7  1  0
  7  8  1  0
  8  9  1  0
  9 10  2  0
  9 11  1  0
 11 12  1  0
 12 13  1  0
 13 14  1  1
 13 15  1  0
 15 16  2  0
 16 17  1  0
 17 18  2  0
 18 19  1  0
 19 20  2  0
  7 21  2  0
 21 22  1  0
 22 23  2  0
 23  2  1  0
 23  6  1  0
 20 15  1  0
M  END
>  <energy_score>  (2440) 
-13.636169

>  <alias>  (2440) 
None

>  <HIPPO Pose ID>  (2440) 
74897

>  <smiles>  (2440) 
C[C@@H]1CCCn2c(CC(=O)NC[C@H](C)c3ccncc3)cnc21

>  <inchikey>  (2440) 
UAUMOWGJIOREGF-KGLIPLIRSA-N

>  <distance_score>  (2440) 
1.825447

>  <ref_mols>  (2440) 
Z1495a,Z0800a

>  <ref_pdb>  (2440) 
Z0800a

>  <HIPPO Compound ID>  (2440) 
148895

>  <name>  (2440) 
P74897

>  <inspiration_score>  (2440) 
None

$$$$
P74898
     RDKit          3D

 23 25  0  0  0  0  0  0  0  0999 V2000
   -9.6097    4.9455  -17.2924 C   0  0  0  0  0  0  0  0  0  0  0  0
   -8.5689    5.3351  -18.3301 C   0  0  2  0  0  0  0  0  0  0  0  0
   -8.3033    4.1066  -19.1848 C   0  0  0  0  0  0  0  0  0  0  0  0
   -6.9401    4.1748  -19.8417 C   0  0  0  0  0  0  0  0  0  0  0  0
   -5.8359    4.3114  -18.8253 C   0  0  0  0  0  0  0  0  0  0  0  0
   -6.0749    5.4058  -17.9291 N   0  0  0  0  0  0  0  0  0  0  0  0
   -5.2736    5.8237  -16.8996 C   0  0  0  0  0  0  0  0  0  0  0  0
   -4.1280    5.0574  -16.3387 C   0  0  0  0  0  0  0  0  0  0  0  0
   -4.4925    4.4835  -14.9394 C   0  0  0  0  0  0  0  0  0  0  0  0
   -3.7036    4.4734  -14.0750 O   0  0  0  0  0  0  0  0  0  0  0  0
   -5.9747    4.0052  -14.9580 N   0  0  0  0  0  0  0  0  0  0  0  0
   -6.8053    3.5113  -13.9017 C   0  0  0  0  0  0  0  0  0  0  0  0
   -7.7488    4.6372  -13.4699 C   0  0  0  0  0  0  0  0  0  0  0  0
   -8.3137    5.4314  -14.2179 O   0  0  0  0  0  0  0  0  0  0  0  0
   -7.9564    4.7708  -12.0205 C   0  0  0  0  0  0  0  0  0  0  0  0
   -7.9103    6.0408  -11.4542 C   0  0  0  0  0  0  0  0  0  0  0  0
   -8.0264    6.1232  -10.0825 C   0  0  0  0  0  0  0  0  0  0  0  0
   -8.1894    5.0500   -9.2767 N   0  0  0  0  0  0  0  0  0  0  0  0
   -8.2697    3.8360   -9.8705 C   0  0  0  0  0  0  0  0  0  0  0  0
   -8.1557    3.6423  -11.2313 C   0  0  0  0  0  0  0  0  0  0  0  0
   -5.9512    6.9018  -16.3809 C   0  0  0  0  0  0  0  0  0  0  0  0
   -7.2198    6.9397  -16.8859 N   0  0  0  0  0  0  0  0  0  0  0  0
   -7.3248    5.9131  -17.7045 C   0  0  0  0  0  0  0  0  0  0  0  0
  2  1  1  1
  2  3  1  0
  3  4  1  0
  4  5  1  0
  5  6  1  0
  6  7  1  0
  7  8  1  0
  8  9  1  0
  9 10  2  0
  9 11  1  0
 11 12  1  0
 12 13  1  0
 13 14  2  0
 13 15  1  0
 15 16  2  0
 16 17  1  0
 17 18  2  0
 18 19  1  0
 19 20  2  0
  7 21  2  0
 21 22  1  0
 22 23  2  0
 23  2  1  0
 23  6  1  0
 20 15  1  0
M  END
>  <energy_score>  (2441) 
-12.271019

>  <alias>  (2441) 
None

>  <HIPPO Pose ID>  (2441) 
74898

>  <smiles>  (2441) 
C[C@@H]1CCCn2c(CC(=O)NCC(=O)c3ccncc3)cnc21

>  <inchikey>  (2441) 
HJTKJXOMEYHKLN-GFCCVEGCSA-N

>  <distance_score>  (2441) 
1.663502

>  <ref_mols>  (2441) 
Z1495a,Z0800a

>  <ref_pdb>  (2441) 
Z0800a

>  <HIPPO Compound ID>  (2441) 
148896

>  <name>  (2441) 
P74898

>  <inspiration_score>  (2441) 
None

$$$$
P74900
     RDKit          3D

 24 26  0  0  0  0  0  0  0  0999 V2000
   -9.5225    4.8936  -17.1832 C   0  0  0  0  0  0  0  0  0  0  0  0
   -8.5578    5.2917  -18.2859 C   0  0  2  0  0  0  0  0  0  0  0  0
   -8.2966    4.0703  -19.1505 C   0  0  0  0  0  0  0  0  0  0  0  0
   -6.9341    4.1357  -19.8141 C   0  0  0  0  0  0  0  0  0  0  0  0
   -5.8261    4.2910  -18.7978 C   0  0  0  0  0  0  0  0  0  0  0  0
   -6.0493    5.4686  -18.0094 N   0  0  0  0  0  0  0  0  0  0  0  0
   -5.1535    6.1812  -17.2652 C   0  0  0  0  0  0  0  0  0  0  0  0
   -3.8116    5.7042  -16.8275 C   0  0  0  0  0  0  0  0  0  0  0  0
   -4.0255    4.6571  -15.7089 C   0  0  0  0  0  0  0  0  0  0  0  0
   -3.6133    3.5645  -15.7885 O   0  0  0  0  0  0  0  0  0  0  0  0
   -4.9275    5.3208  -14.6209 N   0  0  0  0  0  0  0  0  0  0  0  0
   -5.5812    4.7463  -13.4625 C   0  0  2  0  0  0  0  0  0  0  0  0
   -5.1186    3.3237  -13.1582 C   0  0  0  0  0  0  0  0  0  0  0  0
   -7.1519    4.8696  -13.5825 C   0  0  2  0  0  0  0  0  0  0  0  0
   -7.5527    6.1198  -14.1686 O   0  0  0  0  0  0  0  0  0  0  0  0
   -7.7338    4.8333  -12.1866 C   0  0  0  0  0  0  0  0  0  0  0  0
   -8.1468    3.6263  -11.6193 C   0  0  0  0  0  0  0  0  0  0  0  0
   -8.4541    3.6018  -10.2681 C   0  0  0  0  0  0  0  0  0  0  0  0
   -8.3930    4.6869   -9.4607 N   0  0  0  0  0  0  0  0  0  0  0  0
   -8.0581    5.8549  -10.0436 C   0  0  0  0  0  0  0  0  0  0  0  0
   -7.7250    5.9784  -11.3793 C   0  0  0  0  0  0  0  0  0  0  0  0
   -5.8797    7.2699  -16.8475 C   0  0  0  0  0  0  0  0  0  0  0  0
   -7.2107    7.0271  -17.0175 N   0  0  0  0  0  0  0  0  0  0  0  0
   -7.3063    5.9338  -17.7435 C   0  0  0  0  0  0  0  0  0  0  0  0
  2  1  1  1
  2  3  1  0
  3  4  1  0
  4  5  1  0
  5  6  1  0
  6  7  1  0
  7  8  1  0
  8  9  1  0
  9 10  2  0
  9 11  1  0
 11 12  1  0
 12 13  1  6
 12 14  1  0
 14 15  1  1
 14 16  1  0
 16 17  2  0
 17 18  1  0
 18 19  2  0
 19 20  1  0
 20 21  2  0
  7 22  2  0
 22 23  1  0
 23 24  2  0
 24  2  1  0
 24  6  1  0
 21 16  1  0
M  END
>  <energy_score>  (2442) 
-20.231518

>  <alias>  (2442) 
None

>  <HIPPO Pose ID>  (2442) 
74900

>  <smiles>  (2442) 
C[C@@H]1CCCn2c(CC(=O)N[C@H](C)[C@H](O)c3ccncc3)cnc21

>  <inchikey>  (2442) 
AGGZLWQMOYWGJX-XNJGSVPQSA-N

>  <distance_score>  (2442) 
1.481781

>  <ref_mols>  (2442) 
Z1495a,Z0800a

>  <ref_pdb>  (2442) 
Z0800a

>  <HIPPO Compound ID>  (2442) 
148900

>  <name>  (2442) 
P74900

>  <inspiration_score>  (2442) 
None

$$$$
P74903
     RDKit          3D

 24 26  0  0  0  0  0  0  0  0999 V2000
   -9.6235    4.9658  -17.3046 C   0  0  0  0  0  0  0  0  0  0  0  0
   -8.5583    5.3149  -18.3276 C   0  0  2  0  0  0  0  0  0  0  0  0
   -8.2887    4.0785  -19.1667 C   0  0  0  0  0  0  0  0  0  0  0  0
   -6.9211    4.1432  -19.8178 C   0  0  0  0  0  0  0  0  0  0  0  0
   -5.8222    4.2923  -18.7906 C   0  0  0  0  0  0  0  0  0  0  0  0
   -6.0527    5.4584  -17.9884 N   0  0  0  0  0  0  0  0  0  0  0  0
   -5.1564    6.1648  -17.2378 C   0  0  0  0  0  0  0  0  0  0  0  0
   -3.8083    5.6848  -16.8032 C   0  0  0  0  0  0  0  0  0  0  0  0
   -4.0281    4.6883  -15.6373 C   0  0  0  0  0  0  0  0  0  0  0  0
   -3.6414    3.5859  -15.6638 O   0  0  0  0  0  0  0  0  0  0  0  0
   -4.9026    5.4245  -14.5819 N   0  0  0  0  0  0  0  0  0  0  0  0
   -5.5534    4.9292  -13.4007 C   0  0  0  0  0  0  0  0  0  0  0  0
   -7.1158    4.9790  -13.5434 C   0  0  2  0  0  0  0  0  0  0  0  0
   -7.5943    3.8834  -14.4952 C   0  0  0  0  0  0  0  0  0  0  0  0
   -7.5513    6.2451  -14.0852 O   0  0  0  0  0  0  0  0  0  0  0  0
   -7.6806    4.8808  -12.1330 C   0  0  0  0  0  0  0  0  0  0  0  0
   -8.0077    3.6592  -11.5353 C   0  0  0  0  0  0  0  0  0  0  0  0
   -8.3385    3.6387  -10.1882 C   0  0  0  0  0  0  0  0  0  0  0  0
   -8.3619    4.7369   -9.3996 N   0  0  0  0  0  0  0  0  0  0  0  0
   -8.0923    5.9120   -9.9997 C   0  0  0  0  0  0  0  0  0  0  0  0
   -7.7552    6.0338  -11.3355 C   0  0  0  0  0  0  0  0  0  0  0  0
   -5.8873    7.2488  -16.8142 C   0  0  0  0  0  0  0  0  0  0  0  0
   -7.2200    7.0074  -16.9863 N   0  0  0  0  0  0  0  0  0  0  0  0
   -7.3133    5.9230  -17.7272 C   0  0  0  0  0  0  0  0  0  0  0  0
  2  1  1  1
  2  3  1  0
  3  4  1  0
  4  5  1  0
  5  6  1  0
  6  7  1  0
  7  8  1  0
  8  9  1  0
  9 10  2  0
  9 11  1  0
 11 12  1  0
 12 13  1  0
 13 14  1  6
 13 15  1  0
 13 16  1  0
 16 17  2  0
 17 18  1  0
 18 19  2  0
 19 20  1  0
 20 21  2  0
  7 22  2  0
 22 23  1  0
 23 24  2  0
 24  2  1  0
 24  6  1  0
 21 16  1  0
M  END
>  <energy_score>  (2443) 
-35.699542

>  <alias>  (2443) 
None

>  <HIPPO Pose ID>  (2443) 
74903

>  <smiles>  (2443) 
C[C@@H]1CCCn2c(CC(=O)NC[C@](C)(O)c3ccncc3)cnc21

>  <inchikey>  (2443) 
DRIUDYKEDVAVSP-ACJLOTCBSA-N

>  <distance_score>  (2443) 
1.686367

>  <ref_mols>  (2443) 
Z1495a,Z0800a

>  <ref_pdb>  (2443) 
Z0800a

>  <HIPPO Compound ID>  (2443) 
148903

>  <name>  (2443) 
P74903

>  <inspiration_score>  (2443) 
None

$$$$
P74905
     RDKit          3D

 24 26  0  0  0  0  0  0  0  0999 V2000
   -9.5056    4.9611  -17.2453 C   0  0  0  0  0  0  0  0  0  0  0  0
   -8.5741    5.3441  -18.3824 C   0  0  2  0  0  0  0  0  0  0  0  0
   -8.3582    4.1003  -19.2360 C   0  0  0  0  0  0  0  0  0  0  0  0
   -6.9727    4.0905  -19.8492 C   0  0  0  0  0  0  0  0  0  0  0  0
   -5.9097    4.1855  -18.7752 C   0  0  0  0  0  0  0  0  0  0  0  0
   -6.0676    5.4148  -18.0588 N   0  0  0  0  0  0  0  0  0  0  0  0
   -5.1367    6.1454  -17.3829 C   0  0  0  0  0  0  0  0  0  0  0  0
   -3.8317    5.6382  -16.8746 C   0  0  0  0  0  0  0  0  0  0  0  0
   -4.0759    4.7980  -15.5990 C   0  0  0  0  0  0  0  0  0  0  0  0
   -3.6690    3.7075  -15.4818 O   0  0  0  0  0  0  0  0  0  0  0  0
   -4.9468    5.6595  -14.6354 N   0  0  0  0  0  0  0  0  0  0  0  0
   -5.5680    5.3202  -13.3834 C   0  0  0  0  0  0  0  0  0  0  0  0
   -7.1125    5.0862  -13.4945 C   0  0  0  0  0  0  0  0  0  0  0  0
   -7.8594    6.2796  -14.1338 C   0  0  0  0  0  0  0  0  0  0  0  0
   -7.3428    3.8618  -14.4014 C   0  0  0  0  0  0  0  0  0  0  0  0
   -7.6272    4.8966  -12.0603 C   0  0  0  0  0  0  0  0  0  0  0  0
   -7.6514    5.9857  -11.1724 C   0  0  0  0  0  0  0  0  0  0  0  0
   -8.0091    5.7812   -9.8507 C   0  0  0  0  0  0  0  0  0  0  0  0
   -8.3414    4.5819   -9.3426 N   0  0  0  0  0  0  0  0  0  0  0  0
   -8.3511    3.5445  -10.2095 C   0  0  0  0  0  0  0  0  0  0  0  0
   -8.0112    3.6514  -11.5514 C   0  0  0  0  0  0  0  0  0  0  0  0
   -5.7763    7.3435  -17.1804 C   0  0  0  0  0  0  0  0  0  0  0  0
   -7.1063    7.2262  -17.4655 N   0  0  0  0  0  0  0  0  0  0  0  0
   -7.2906    6.0052  -17.9240 C   0  0  0  0  0  0  0  0  0  0  0  0
  2  1  1  1
  2  3  1  0
  3  4  1  0
  4  5  1  0
  5  6  1  0
  6  7  1  0
  7  8  1  0
  8  9  1  0
  9 10  2  0
  9 11  1  0
 11 12  1  0
 12 13  1  0
 13 14  1  0
 13 15  1  0
 13 16  1  0
 16 17  2  0
 17 18  1  0
 18 19  2  0
 19 20  1  0
 20 21  2  0
  7 22  2  0
 22 23  1  0
 23 24  2  0
 24  2  1  0
 24  6  1  0
 21 16  1  0
M  END
>  <energy_score>  (2444) 
-6.234642

>  <alias>  (2444) 
None

>  <HIPPO Pose ID>  (2444) 
74905

>  <smiles>  (2444) 
C[C@@H]1CCCn2c(CC(=O)NCC(C)(C)c3ccncc3)cnc21

>  <inchikey>  (2444) 
PLCZANLHNVRPOY-CQSZACIVSA-N

>  <distance_score>  (2444) 
1.732302

>  <ref_mols>  (2444) 
Z1495a,Z0800a

>  <ref_pdb>  (2444) 
Z0800a

>  <HIPPO Compound ID>  (2444) 
148904

>  <name>  (2444) 
P74905

>  <inspiration_score>  (2444) 
None

$$$$
P74906
     RDKit          3D

 24 26  0  0  0  0  0  0  0  0999 V2000
   -9.6886    4.7254  -19.3348 C   0  0  0  0  0  0  0  0  0  0  0  0
   -8.7999    4.0904  -18.2969 C   0  0  2  0  0  0  0  0  0  0  0  0
   -9.4322    4.4168  -16.9551 C   0  0  0  0  0  0  0  0  0  0  0  0
   -8.5418    4.0375  -15.8036 C   0  0  0  0  0  0  0  0  0  0  0  0
   -7.1896    4.7001  -15.9171 C   0  0  0  0  0  0  0  0  0  0  0  0
   -6.6419    4.8032  -17.2364 N   0  0  0  0  0  0  0  0  0  0  0  0
   -5.4027    5.2855  -17.5837 C   0  0  0  0  0  0  0  0  0  0  0  0
   -4.3188    5.7426  -16.6615 C   0  0  0  0  0  0  0  0  0  0  0  0
   -4.8538    6.6487  -15.5369 C   0  0  0  0  0  0  0  0  0  0  0  0
   -5.2642    7.7253  -15.7339 O   0  0  0  0  0  0  0  0  0  0  0  0
   -4.8143    5.8083  -14.2253 N   0  0  0  0  0  0  0  0  0  0  0  0
   -5.3649    6.0911  -12.8989 C   0  0  1  0  0  0  0  0  0  0  0  0
   -4.9015    7.4679  -12.3951 C   0  0  0  0  0  0  0  0  0  0  0  0
   -3.4751    7.5433  -12.4030 O   0  0  0  0  0  0  0  0  0  0  0  0
   -6.9075    5.9606  -12.9190 C   0  0  0  0  0  0  0  0  0  0  0  0
   -7.4901    5.5480  -11.6012 C   0  0  0  0  0  0  0  0  0  0  0  0
   -7.7198    6.4897  -10.6044 C   0  0  0  0  0  0  0  0  0  0  0  0
   -8.1365    6.0373   -9.3679 C   0  0  0  0  0  0  0  0  0  0  0  0
   -8.3612    4.7403   -9.0734 N   0  0  0  0  0  0  0  0  0  0  0  0
   -8.1990    3.8470  -10.0732 C   0  0  0  0  0  0  0  0  0  0  0  0
   -7.7639    4.1984  -11.3384 C   0  0  0  0  0  0  0  0  0  0  0  0
   -5.4268    5.2152  -18.9564 C   0  0  0  0  0  0  0  0  0  0  0  0
   -6.6231    4.7359  -19.4133 N   0  0  0  0  0  0  0  0  0  0  0  0
   -7.3757    4.5504  -18.3606 C   0  0  0  0  0  0  0  0  0  0  0  0
  2  1  1  6
  2  3  1  0
  3  4  1  0
  4  5  1  0
  5  6  1  0
  6  7  1  0
  7  8  1  0
  8  9  1  0
  9 10  2  0
  9 11  1  0
 11 12  1  0
 12 13  1  6
 13 14  1  0
 12 15  1  0
 15 16  1  0
 16 17  2  0
 17 18  1  0
 18 19  2  0
 19 20  1  0
 20 21  2  0
  7 22  2  0
 22 23  1  0
 23 24  2  0
 24  2  1  0
 24  6  1  0
 21 16  1  0
M  END
>  <energy_score>  (2445) 
-1.773194

>  <alias>  (2445) 
None

>  <HIPPO Pose ID>  (2445) 
74906

>  <smiles>  (2445) 
C[C@@H]1CCCn2c(CC(=O)N[C@@H](CO)Cc3ccncc3)cnc21

>  <inchikey>  (2445) 
CYZRHIUSNQWXER-UKRRQHHQSA-N

>  <distance_score>  (2445) 
1.776067

>  <ref_mols>  (2445) 
Z1495a,Z0800a

>  <ref_pdb>  (2445) 
Z0800a

>  <HIPPO Compound ID>  (2445) 
148906

>  <name>  (2445) 
P74906

>  <inspiration_score>  (2445) 
None

$$$$
P74908
     RDKit          3D

 24 26  0  0  0  0  0  0  0  0999 V2000
   -9.6313    4.7025  -19.3195 C   0  0  0  0  0  0  0  0  0  0  0  0
   -8.7532    4.1084  -18.2486 C   0  0  2  0  0  0  0  0  0  0  0  0
   -9.4296    4.4290  -16.9263 C   0  0  0  0  0  0  0  0  0  0  0  0
   -8.5418    4.1282  -15.7485 C   0  0  0  0  0  0  0  0  0  0  0  0
   -7.2473    4.9016  -15.8521 C   0  0  0  0  0  0  0  0  0  0  0  0
   -6.6619    4.9668  -17.1585 N   0  0  0  0  0  0  0  0  0  0  0  0
   -5.4156    5.4413  -17.4899 C   0  0  0  0  0  0  0  0  0  0  0  0
   -4.3767    5.9983  -16.5680 C   0  0  0  0  0  0  0  0  0  0  0  0
   -4.9700    6.8958  -15.4661 C   0  0  0  0  0  0  0  0  0  0  0  0
   -5.4046    7.9598  -15.6814 O   0  0  0  0  0  0  0  0  0  0  0  0
   -4.9359    6.0677  -14.1466 N   0  0  0  0  0  0  0  0  0  0  0  0
   -5.5138    6.3431  -12.8520 C   0  0  0  0  0  0  0  0  0  0  0  0
   -7.0277    6.0765  -12.8349 C   0  0  0  0  0  0  0  0  0  0  0  0
   -7.5086    5.5612  -11.5080 C   0  0  0  0  0  0  0  0  0  0  0  0
   -7.8495    6.4446  -10.4784 C   0  0  0  0  0  0  0  0  0  0  0  0
   -7.8139    8.3319  -10.6515 Br  0  0  0  0  0  0  0  0  0  0  0  0
   -8.2055    5.9212   -9.2450 C   0  0  0  0  0  0  0  0  0  0  0  0
   -8.2786    4.6020   -8.9665 N   0  0  0  0  0  0  0  0  0  0  0  0
   -7.9818    3.7536   -9.9758 C   0  0  0  0  0  0  0  0  0  0  0  0
   -7.5716    4.1762  -11.2338 C   0  0  0  0  0  0  0  0  0  0  0  0
   -7.0112    2.8334  -12.4533 Br  0  0  0  0  0  0  0  0  0  0  0  0
   -5.3719    5.2397  -18.8499 C   0  0  0  0  0  0  0  0  0  0  0  0
   -6.5358    4.6934  -19.3136 N   0  0  0  0  0  0  0  0  0  0  0  0
   -7.3390    4.6007  -18.2867 C   0  0  0  0  0  0  0  0  0  0  0  0
  2  1  1  6
  2  3  1  0
  3  4  1  0
  4  5  1  0
  5  6  1  0
  6  7  1  0
  7  8  1  0
  8  9  1  0
  9 10  2  0
  9 11  1  0
 11 12  1  0
 12 13  1  0
 13 14  1  0
 14 15  2  0
 15 16  1  0
 15 17  1  0
 17 18  2  0
 18 19  1  0
 19 20  2  0
 20 21  1  0
  7 22  2  0
 22 23  1  0
 23 24  2  0
 24  2  1  0
 24  6  1  0
 20 14  1  0
M  END
>  <energy_score>  (2446) 
-9.517809

>  <alias>  (2446) 
None

>  <HIPPO Pose ID>  (2446) 
74908

>  <smiles>  (2446) 
C[C@@H]1CCCn2c(CC(=O)NCCc3c(Br)cncc3Br)cnc21

>  <inchikey>  (2446) 
BGNSMUDBWMECNA-LLVKDONJSA-N

>  <distance_score>  (2446) 
1.934556

>  <ref_mols>  (2446) 
Z1495a,Z0800a

>  <ref_pdb>  (2446) 
Z0800a

>  <HIPPO Compound ID>  (2446) 
148910

>  <name>  (2446) 
P74908

>  <inspiration_score>  (2446) 
None

$$$$
P74909
     RDKit          3D

 24 26  0  0  0  0  0  0  0  0999 V2000
   -8.6994    4.1143  -19.4810 C   0  0  0  0  0  0  0  0  0  0  0  0
   -8.7558    5.2834  -18.5161 C   0  0  1  0  0  0  0  0  0  0  0  0
   -9.4512    4.8419  -17.2331 C   0  0  0  0  0  0  0  0  0  0  0  0
   -8.5551    4.0211  -16.3096 C   0  0  0  0  0  0  0  0  0  0  0  0
   -7.0680    4.0045  -16.6819 C   0  0  0  0  0  0  0  0  0  0  0  0
   -6.5883    5.1995  -17.3150 N   0  0  0  0  0  0  0  0  0  0  0  0
   -5.3520    5.7841  -17.3442 C   0  0  0  0  0  0  0  0  0  0  0  0
   -4.0966    5.2716  -16.7189 C   0  0  0  0  0  0  0  0  0  0  0  0
   -4.2601    4.9266  -15.2410 C   0  0  0  0  0  0  0  0  0  0  0  0
   -3.8887    3.9122  -14.7970 O   0  0  0  0  0  0  0  0  0  0  0  0
   -5.0433    6.0889  -14.5747 N   0  0  0  0  0  0  0  0  0  0  0  0
   -5.6080    6.1981  -13.2618 C   0  0  0  0  0  0  0  0  0  0  0  0
   -7.0844    5.7850  -13.3137 C   0  0  0  0  0  0  0  0  0  0  0  0
   -7.5779    5.3449  -11.9628 C   0  0  0  0  0  0  0  0  0  0  0  0
   -7.6237    3.9831  -11.6043 C   0  0  0  0  0  0  0  0  0  0  0  0
   -7.1560    2.7177  -12.6804 Cl  0  0  0  0  0  0  0  0  0  0  0  0
   -7.9868    3.6386  -10.3066 C   0  0  0  0  0  0  0  0  0  0  0  0
   -8.2656    4.5448   -9.3387 N   0  0  0  0  0  0  0  0  0  0  0  0
   -8.2244    5.8443   -9.7050 C   0  0  0  0  0  0  0  0  0  0  0  0
   -7.9090    6.2882  -10.9813 C   0  0  0  0  0  0  0  0  0  0  0  0
   -7.9114    7.9882  -11.2758 Cl  0  0  0  0  0  0  0  0  0  0  0  0
   -5.5661    6.9280  -18.0805 C   0  0  0  0  0  0  0  0  0  0  0  0
   -6.8535    6.9963  -18.5372 N   0  0  0  0  0  0  0  0  0  0  0  0
   -7.4070    5.8571  -18.1866 C   0  0  0  0  0  0  0  0  0  0  0  0
  2  1  1  6
  2  3  1  0
  3  4  1  0
  4  5  1  0
  5  6  1  0
  6  7  1  0
  7  8  1  0
  8  9  1  0
  9 10  2  0
  9 11  1  0
 11 12  1  0
 12 13  1  0
 13 14  1  0
 14 15  2  0
 15 16  1  0
 15 17  1  0
 17 18  2  0
 18 19  1  0
 19 20  2  0
 20 21  1  0
  7 22  2  0
 22 23  1  0
 23 24  2  0
 24  2  1  0
 24  6  1  0
 20 14  1  0
M  END
>  <energy_score>  (2447) 
-14.283064

>  <alias>  (2447) 
None

>  <HIPPO Pose ID>  (2447) 
74909

>  <smiles>  (2447) 
C[C@H]1CCCn2c(CC(=O)NCCc3c(Cl)cncc3Cl)cnc21

>  <inchikey>  (2447) 
FTASFXOJSCMREU-NSHDSACASA-N

>  <distance_score>  (2447) 
1.727831

>  <ref_mols>  (2447) 
Z1495a,Z0800a

>  <ref_pdb>  (2447) 
Z0800a

>  <HIPPO Compound ID>  (2447) 
148913

>  <name>  (2447) 
P74909

>  <inspiration_score>  (2447) 
None

$$$$
P74910
     RDKit          3D

 24 26  0  0  0  0  0  0  0  0999 V2000
   -9.8052    4.9847  -19.1784 C   0  0  0  0  0  0  0  0  0  0  0  0
   -8.8507    4.0010  -18.5386 C   0  0  2  0  0  0  0  0  0  0  0  0
   -9.3618    3.7183  -17.1363 C   0  0  0  0  0  0  0  0  0  0  0  0
   -8.8978    4.7315  -16.1216 C   0  0  0  0  0  0  0  0  0  0  0  0
   -7.3901    4.8266  -16.1092 C   0  0  0  0  0  0  0  0  0  0  0  0
   -6.7693    4.8751  -17.3981 N   0  0  0  0  0  0  0  0  0  0  0  0
   -5.4700    5.2119  -17.7003 C   0  0  0  0  0  0  0  0  0  0  0  0
   -4.3468    5.5814  -16.7834 C   0  0  0  0  0  0  0  0  0  0  0  0
   -4.7762    6.3670  -15.5429 C   0  0  0  0  0  0  0  0  0  0  0  0
   -4.9925    7.5155  -15.5615 O   0  0  0  0  0  0  0  0  0  0  0  0
   -4.9160    5.3334  -14.3870 N   0  0  0  0  0  0  0  0  0  0  0  0
   -5.4389    5.4870  -13.0530 C   0  0  0  0  0  0  0  0  0  0  0  0
   -6.9730    5.5066  -13.0609 C   0  0  0  0  0  0  0  0  0  0  0  0
   -7.5373    5.3633  -11.6886 C   0  0  0  0  0  0  0  0  0  0  0  0
   -7.6449    6.4670  -10.8438 C   0  0  0  0  0  0  0  0  0  0  0  0
   -8.0665    6.2531   -9.5444 C   0  0  0  0  0  0  0  0  0  0  0  0
   -8.3854    5.0404   -9.0468 N   0  0  0  0  0  0  0  0  0  0  0  0
   -8.3169    3.9927   -9.9047 C   0  0  0  0  0  0  0  0  0  0  0  0
   -8.7538    2.4929   -9.2207 Cl  0  0  0  0  0  0  0  0  0  0  0  0
   -7.8978    4.1010  -11.2141 C   0  0  0  0  0  0  0  0  0  0  0  0
   -7.7857    3.0279  -12.0107 F   0  0  0  0  0  0  0  0  0  0  0  0
   -5.4331    5.0527  -19.0654 C   0  0  0  0  0  0  0  0  0  0  0  0
   -6.6164    4.5765  -19.5523 N   0  0  0  0  0  0  0  0  0  0  0  0
   -7.4279    4.4842  -18.5332 C   0  0  0  0  0  0  0  0  0  0  0  0
  2  1  1  1
  2  3  1  0
  3  4  1  0
  4  5  1  0
  5  6  1  0
  6  7  1  0
  7  8  1  0
  8  9  1  0
  9 10  2  0
  9 11  1  0
 11 12  1  0
 12 13  1  0
 13 14  1  0
 14 15  2  0
 15 16  1  0
 16 17  2  0
 17 18  1  0
 18 19  1  0
 18 20  2  0
 20 21  1  0
  7 22  2  0
 22 23  1  0
 23 24  2  0
 24  2  1  0
 24  6  1  0
 20 14  1  0
M  END
>  <energy_score>  (2448) 
-13.246327

>  <alias>  (2448) 
None

>  <HIPPO Pose ID>  (2448) 
74910

>  <smiles>  (2448) 
C[C@@H]1CCCn2c(CC(=O)NCCc3ccnc(Cl)c3F)cnc21

>  <inchikey>  (2448) 
GJDVNLLXIKPXNQ-LLVKDONJSA-N

>  <distance_score>  (2448) 
1.754717

>  <ref_mols>  (2448) 
Z1495a,Z0800a

>  <ref_pdb>  (2448) 
Z0800a

>  <HIPPO Compound ID>  (2448) 
148920

>  <name>  (2448) 
P74910

>  <inspiration_score>  (2448) 
None

$$$$
P74912
     RDKit          3D

 24 26  0  0  0  0  0  0  0  0999 V2000
   -4.3317    1.7959  -12.5907 C   0  0  0  0  0  0  0  0  0  0  0  0
   -5.2529    2.8827  -12.6796 O   0  0  0  0  0  0  0  0  0  0  0  0
   -5.0955    3.6756  -13.7714 C   0  0  0  0  0  0  0  0  0  0  0  0
   -4.2368    3.5190  -14.6344 O   0  0  0  0  0  0  0  0  0  0  0  0
   -6.0618    4.8603  -13.7386 C   0  0  2  0  0  0  0  0  0  0  0  0
   -7.5292    4.4588  -13.5140 C   0  0  0  0  0  0  0  0  0  0  0  0
   -7.8877    4.6120  -12.0607 C   0  0  0  0  0  0  0  0  0  0  0  0
   -8.1155    3.4895  -11.2676 C   0  0  0  0  0  0  0  0  0  0  0  0
   -8.3122    3.6731   -9.9104 C   0  0  0  0  0  0  0  0  0  0  0  0
   -8.2900    4.8820   -9.3012 N   0  0  0  0  0  0  0  0  0  0  0  0
   -8.1159    5.9566  -10.0986 C   0  0  0  0  0  0  0  0  0  0  0  0
   -7.9222    5.8776  -11.4662 C   0  0  0  0  0  0  0  0  0  0  0  0
   -5.9529    5.6029  -14.9708 N   0  0  0  0  0  0  0  0  0  0  0  0
   -6.7131    6.8532  -15.4572 C   0  0  0  0  0  0  0  0  0  0  0  0
   -7.4919    7.5253  -14.9080 O   0  0  0  0  0  0  0  0  0  0  0  0
   -6.2576    7.2027  -16.8635 C   0  0  0  0  0  0  0  0  0  0  0  0
   -5.8979    6.0726  -17.7339 C   0  0  0  0  0  0  0  0  0  0  0  0
   -4.6662    5.7887  -18.2825 C   0  0  0  0  0  0  0  0  0  0  0  0
   -4.7431    4.7247  -19.1139 N   0  0  0  0  0  0  0  0  0  0  0  0
   -6.0158    4.3880  -19.1137 C   0  0  0  0  0  0  0  0  0  0  0  0
   -6.7358    5.0996  -18.2154 N   0  0  0  0  0  0  0  0  0  0  0  0
   -8.0623    4.6830  -17.6982 C   0  0  0  0  0  0  0  0  0  0  0  0
   -9.3810    5.1824  -18.2194 C   0  0  0  0  0  0  0  0  0  0  0  0
   -8.9942    3.7751  -18.4795 C   0  0  0  0  0  0  0  0  0  0  0  0
  1  2  1  0
  2  3  1  0
  3  4  2  0
  3  5  1  0
  5  6  1  6
  6  7  1  0
  7  8  2  0
  8  9  1  0
  9 10  2  0
 10 11  1  0
 11 12  2  0
  5 13  1  0
 13 14  1  0
 14 15  2  0
 14 16  1  0
 16 17  1  0
 17 18  2  0
 18 19  1  0
 19 20  2  0
 20 21  1  0
 21 22  1  0
 22 23  1  0
 23 24  1  0
 12  7  1  0
 21 17  1  0
 24 22  1  0
M  END
>  <energy_score>  (2449) 
-6.256451

>  <alias>  (2449) 
None

>  <HIPPO Pose ID>  (2449) 
74912

>  <smiles>  (2449) 
COC(=O)[C@H](Cc1ccncc1)NC(=O)Cc1cncn1C1CC1

>  <inchikey>  (2449) 
JPAQPLWRRWWQKM-HNNXBMFYSA-N

>  <distance_score>  (2449) 
1.756146

>  <ref_mols>  (2449) 
Z1495a,Z0800a

>  <ref_pdb>  (2449) 
Z0800a

>  <HIPPO Compound ID>  (2449) 
148926

>  <name>  (2449) 
P74912

>  <inspiration_score>  (2449) 
None

$$$$
P74913
     RDKit          3D

 24 25  0  0  0  0  0  0  0  0999 V2000
   -4.6359    9.4061  -10.7025 C   0  0  0  0  0  0  0  0  0  0  0  0
   -5.7798    9.4133  -11.6973 C   0  0  0  0  0  0  0  0  0  0  0  0
   -5.8195    8.1350  -12.3403 O   0  0  0  0  0  0  0  0  0  0  0  0
   -6.8174    7.9965  -13.2585 C   0  0  0  0  0  0  0  0  0  0  0  0
   -7.6636    8.8489  -13.5079 O   0  0  0  0  0  0  0  0  0  0  0  0
   -6.7366    6.6248  -13.9355 C   0  0  1  0  0  0  0  0  0  0  0  0
   -7.9605    5.7619  -13.5970 C   0  0  0  0  0  0  0  0  0  0  0  0
   -7.9822    5.2477  -12.1831 C   0  0  0  0  0  0  0  0  0  0  0  0
   -7.9247    3.8761  -11.9201 C   0  0  0  0  0  0  0  0  0  0  0  0
   -7.9528    3.4504  -10.5997 C   0  0  0  0  0  0  0  0  0  0  0  0
   -8.0180    4.2904   -9.5436 N   0  0  0  0  0  0  0  0  0  0  0  0
   -8.0959    5.6039   -9.8168 C   0  0  0  0  0  0  0  0  0  0  0  0
   -8.0991    6.1223  -11.0988 C   0  0  0  0  0  0  0  0  0  0  0  0
   -6.7095    6.8927  -15.3593 N   0  0  0  0  0  0  0  0  0  0  0  0
   -5.7291    7.7481  -16.2051 C   0  0  0  0  0  0  0  0  0  0  0  0
   -4.8397    8.4293  -15.8738 O   0  0  0  0  0  0  0  0  0  0  0  0
   -6.1807    7.5987  -17.6818 C   0  0  1  0  0  0  0  0  0  0  0  0
   -5.7281    8.6402  -18.5290 O   0  0  0  0  0  0  0  0  0  0  0  0
   -5.6645    6.3269  -18.2023 C   0  0  0  0  0  0  0  0  0  0  0  0
   -4.3638    5.8705  -18.2478 C   0  0  0  0  0  0  0  0  0  0  0  0
   -4.2988    4.6572  -18.8441 N   0  0  0  0  0  0  0  0  0  0  0  0
   -5.5386    4.3919  -19.1806 C   0  0  0  0  0  0  0  0  0  0  0  0
   -6.4208    5.3015  -18.7040 N   0  0  0  0  0  0  0  0  0  0  0  0
   -7.8491    5.1001  -18.7368 C   0  0  0  0  0  0  0  0  0  0  0  0
  1  2  1  0
  2  3  1  0
  3  4  1  0
  4  5  2  0
  4  6  1  0
  6  7  1  6
  7  8  1  0
  8  9  2  0
  9 10  1  0
 10 11  2  0
 11 12  1  0
 12 13  2  0
  6 14  1  0
 14 15  1  0
 15 16  2  0
 15 17  1  0
 17 18  1  6
 17 19  1  0
 19 20  2  0
 20 21  1  0
 21 22  2  0
 22 23  1  0
 23 24  1  0
 13  8  1  0
 23 19  1  0
M  END
>  <energy_score>  (2450) 
-4.197904

>  <alias>  (2450) 
None

>  <HIPPO Pose ID>  (2450) 
74913

>  <smiles>  (2450) 
CCOC(=O)[C@@H](Cc1ccncc1)NC(=O)[C@@H](O)c1cncn1C

>  <inchikey>  (2450) 
MHTXAFBMXIRLBO-OCCSQVGLSA-N

>  <distance_score>  (2450) 
1.65132

>  <ref_mols>  (2450) 
Z1495a,Z0800a

>  <ref_pdb>  (2450) 
Z0800a

>  <HIPPO Compound ID>  (2450) 
148930

>  <name>  (2450) 
P74913

>  <inspiration_score>  (2450) 
None

$$$$
P74914
     RDKit          3D

 24 25  0  0  0  0  0  0  0  0999 V2000
   -5.2540    1.3235  -11.0638 C   0  0  0  0  0  0  0  0  0  0  0  0
   -5.3517    2.6431  -11.6131 O   0  0  0  0  0  0  0  0  0  0  0  0
   -5.8647    2.7110  -12.8781 C   0  0  0  0  0  0  0  0  0  0  0  0
   -6.1657    1.7399  -13.5606 O   0  0  0  0  0  0  0  0  0  0  0  0
   -5.9854    4.1857  -13.3056 C   0  0  2  0  0  0  0  0  0  0  0  0
   -7.4526    4.6639  -13.3117 C   0  0  0  0  0  0  0  0  0  0  0  0
   -7.9025    4.8785  -11.9001 C   0  0  0  0  0  0  0  0  0  0  0  0
   -7.7771    6.1242  -11.2872 C   0  0  0  0  0  0  0  0  0  0  0  0
   -7.9934    6.2003   -9.9244 C   0  0  0  0  0  0  0  0  0  0  0  0
   -8.2951    5.1369   -9.1520 N   0  0  0  0  0  0  0  0  0  0  0  0
   -8.4520    3.9490   -9.7815 C   0  0  0  0  0  0  0  0  0  0  0  0
   -8.8119    2.4250   -8.7315 Br  0  0  0  0  0  0  0  0  0  0  0  0
   -8.2978    3.7783  -11.1413 C   0  0  0  0  0  0  0  0  0  0  0  0
   -5.4255    4.3623  -14.6176 N   0  0  0  0  0  0  0  0  0  0  0  0
   -6.0853    4.2774  -16.0060 C   0  0  0  0  0  0  0  0  0  0  0  0
   -7.2012    4.1271  -16.3035 O   0  0  0  0  0  0  0  0  0  0  0  0
   -4.9403    4.5491  -17.0210 C   0  0  2  0  0  0  0  0  0  0  0  0
   -3.6512    4.7476  -16.4407 O   0  0  0  0  0  0  0  0  0  0  0  0
   -5.3083    5.7642  -17.7603 C   0  0  0  0  0  0  0  0  0  0  0  0
   -4.9231    7.0717  -17.5906 C   0  0  0  0  0  0  0  0  0  0  0  0
   -5.5829    7.8845  -18.4558 N   0  0  0  0  0  0  0  0  0  0  0  0
   -6.3587    7.0833  -19.1490 C   0  0  0  0  0  0  0  0  0  0  0  0
   -6.2685    5.7912  -18.7391 N   0  0  0  0  0  0  0  0  0  0  0  0
   -7.1065    4.7189  -19.2158 C   0  0  0  0  0  0  0  0  0  0  0  0
  1  2  1  0
  2  3  1  0
  3  4  2  0
  3  5  1  0
  5  6  1  6
  6  7  1  0
  7  8  2  0
  8  9  1  0
  9 10  2  0
 10 11  1  0
 11 12  1  0
 11 13  2  0
  5 14  1  0
 14 15  1  0
 15 16  2  0
 15 17  1  0
 17 18  1  1
 17 19  1  0
 19 20  2  0
 20 21  1  0
 21 22  2  0
 22 23  1  0
 23 24  1  0
 13  7  1  0
 23 19  1  0
M  END
>  <energy_score>  (2451) 
-19.709887

>  <alias>  (2451) 
None

>  <HIPPO Pose ID>  (2451) 
74914

>  <smiles>  (2451) 
COC(=O)[C@H](Cc1ccnc(Br)c1)NC(=O)[C@H](O)c1cncn1C

>  <inchikey>  (2451) 
GAJWTJWVTKHXKA-GXFFZTMASA-N

>  <distance_score>  (2451) 
1.939873

>  <ref_mols>  (2451) 
Z1495a,Z0800a

>  <ref_pdb>  (2451) 
Z0800a

>  <HIPPO Compound ID>  (2451) 
148932

>  <name>  (2451) 
P74914

>  <inspiration_score>  (2451) 
None

$$$$
P74915
     RDKit          3D

 24 25  0  0  0  0  0  0  0  0999 V2000
   -3.4702    5.4811  -12.5694 C   0  0  0  0  0  0  0  0  0  0  0  0
   -4.5189    4.6124  -12.9927 O   0  0  0  0  0  0  0  0  0  0  0  0
   -5.6188    5.2455  -13.4864 C   0  0  0  0  0  0  0  0  0  0  0  0
   -5.7258    6.4689  -13.5539 O   0  0  0  0  0  0  0  0  0  0  0  0
   -6.7060    4.2489  -13.9733 C   0  0  1  0  0  0  0  0  0  0  0  0
   -6.3824    2.8028  -13.5867 C   0  0  0  0  0  0  0  0  0  0  0  0
   -8.0544    4.7353  -13.3851 C   0  0  0  0  0  0  0  0  0  0  0  0
   -8.1064    4.7973  -11.8861 C   0  0  0  0  0  0  0  0  0  0  0  0
   -8.3650    3.6474  -11.1398 C   0  0  0  0  0  0  0  0  0  0  0  0
   -8.3472    3.7371   -9.7601 C   0  0  0  0  0  0  0  0  0  0  0  0
   -8.1018    4.8836   -9.0856 N   0  0  0  0  0  0  0  0  0  0  0  0
   -7.8792    5.9872   -9.8287 C   0  0  0  0  0  0  0  0  0  0  0  0
   -7.8706    5.9971  -11.2117 C   0  0  0  0  0  0  0  0  0  0  0  0
   -6.8548    4.3377  -15.4278 N   0  0  0  0  0  0  0  0  0  0  0  0
   -5.7875    4.3232  -16.5512 C   0  0  0  0  0  0  0  0  0  0  0  0
   -4.6326    4.1611  -16.4953 O   0  0  0  0  0  0  0  0  0  0  0  0
   -6.5927    4.6951  -17.8522 C   0  0  1  0  0  0  0  0  0  0  0  0
   -7.9874    4.9265  -17.6209 O   0  0  0  0  0  0  0  0  0  0  0  0
   -6.0848    5.9710  -18.4062 C   0  0  0  0  0  0  0  0  0  0  0  0
   -5.8340    6.3452  -19.7071 C   0  0  0  0  0  0  0  0  0  0  0  0
   -5.4128    7.6465  -19.7921 N   0  0  0  0  0  0  0  0  0  0  0  0
   -5.3982    8.0606  -18.5519 C   0  0  0  0  0  0  0  0  0  0  0  0
   -5.8029    7.0955  -17.6827 N   0  0  0  0  0  0  0  0  0  0  0  0
   -5.8493    7.2782  -16.2615 C   0  0  0  0  0  0  0  0  0  0  0  0
  1  2  1  0
  2  3  1  0
  3  4  2  0
  3  5  1  0
  5  6  1  6
  5  7  1  0
  7  8  1  0
  8  9  2  0
  9 10  1  0
 10 11  2  0
 11 12  1  0
 12 13  2  0
  5 14  1  0
 14 15  1  0
 15 16  2  0
 15 17  1  0
 17 18  1  1
 17 19  1  0
 19 20  2  0
 20 21  1  0
 21 22  2  0
 22 23  1  0
 23 24  1  0
 13  8  1  0
 23 19  1  0
M  END
>  <energy_score>  (2452) 
-29.880018

>  <alias>  (2452) 
None

>  <HIPPO Pose ID>  (2452) 
74915

>  <smiles>  (2452) 
COC(=O)[C@@](C)(Cc1ccncc1)NC(=O)[C@@H](O)c1cncn1C

>  <inchikey>  (2452) 
FIHJQGDBPDQNBP-XJKSGUPXSA-N

>  <distance_score>  (2452) 
1.930348

>  <ref_mols>  (2452) 
Z0800a,Z1495a

>  <ref_pdb>  (2452) 
Z0800a

>  <HIPPO Compound ID>  (2452) 
148934

>  <name>  (2452) 
P74915

>  <inspiration_score>  (2452) 
None

$$$$
P74916
     RDKit          3D

 24 26  0  0  0  0  0  0  0  0999 V2000
   -9.1145    4.4229  -16.5569 C   0  0  0  0  0  0  0  0  0  0  0  0
   -7.7978    4.3843  -16.3041 C   0  0  0  0  0  0  0  0  0  0  0  0
   -7.2966    3.5929  -15.1317 C   0  0  0  0  0  0  0  0  0  0  0  0
   -7.0758    4.3434  -13.9349 N   0  0  0  0  0  0  0  0  0  0  0  0
   -8.0205    5.3048  -13.1564 C   0  0  0  0  0  0  0  0  0  0  0  0
   -9.0931    5.6880  -13.4178 O   0  0  0  0  0  0  0  0  0  0  0  0
   -7.2853    5.6056  -11.8373 C   0  0  1  0  0  0  0  0  0  0  0  0
   -7.2374    7.1345  -11.5878 C   0  0  0  0  0  0  0  0  0  0  0  0
   -8.1380    7.6507  -10.4560 C   0  0  0  0  0  0  0  0  0  0  0  0
   -7.9412    6.8723   -9.1509 C   0  0  0  0  0  0  0  0  0  0  0  0
   -8.0557    5.4304   -9.4202 C   0  0  0  0  0  0  0  0  0  0  0  0
   -8.3592    4.5112   -8.4688 N   0  0  0  0  0  0  0  0  0  0  0  0
   -8.3863    3.3576   -9.0982 C   0  0  0  0  0  0  0  0  0  0  0  0
   -8.6105    2.0402   -8.4445 C   0  0  0  0  0  0  0  0  0  0  0  0
   -8.1764    3.5490  -10.4525 N   0  0  0  0  0  0  0  0  0  0  0  0
   -8.3870    2.5461  -11.4572 C   0  0  0  0  0  0  0  0  0  0  0  0
   -7.8295    4.8616  -10.6506 C   0  0  0  0  0  0  0  0  0  0  0  0
   -6.8222    4.9943  -17.2273 C   0  0  0  0  0  0  0  0  0  0  0  0
   -5.5783    5.4218  -16.7496 C   0  0  0  0  0  0  0  0  0  0  0  0
   -4.6452    5.9484  -17.6220 C   0  0  0  0  0  0  0  0  0  0  0  0
   -4.8609    6.0838  -18.9360 N   0  0  0  0  0  0  0  0  0  0  0  0
   -6.0686    5.6621  -19.3911 C   0  0  0  0  0  0  0  0  0  0  0  0
   -7.0619    5.1197  -18.5929 C   0  0  0  0  0  0  0  0  0  0  0  0
   -8.2239    4.7132  -19.1330 F   0  0  0  0  0  0  0  0  0  0  0  0
  1  2  2  0
  2  3  1  0
  3  4  1  0
  4  5  1  0
  5  6  2  0
  7  5  1  6
  7  8  1  0
  8  9  1  0
  9 10  1  0
 10 11  1  0
 11 12  1  0
 12 13  2  0
 13 14  1  0
 13 15  1  0
 15 16  1  0
 15 17  1  0
  2 18  1  0
 18 19  2  0
 19 20  1  0
 20 21  2  0
 21 22  1  0
 22 23  2  0
 23 24  1  0
 17  7  1  0
 23 18  1  0
 17 11  2  0
M  END
>  <energy_score>  (2453) 
-8.753965

>  <alias>  (2453) 
None

>  <HIPPO Pose ID>  (2453) 
74916

>  <smiles>  (2453) 
C=C(CNC(=O)[C@H]1CCCc2nc(C)n(C)c21)c1ccncc1F

>  <inchikey>  (2453) 
RYNKKDWTGFAQLM-AWEZNQCLSA-N

>  <distance_score>  (2453) 
1.715181

>  <ref_mols>  (2453) 
Z1495a,Z0800a

>  <ref_pdb>  (2453) 
Z0800a

>  <HIPPO Compound ID>  (2453) 
148936

>  <name>  (2453) 
P74916

>  <inspiration_score>  (2453) 
None

$$$$
P74917
     RDKit          3D

 24 26  0  0  0  0  0  0  0  0999 V2000
   -9.2696    4.3828  -17.3790 C   0  0  0  0  0  0  0  0  0  0  0  0
   -8.0748    4.4275  -16.7732 C   0  0  0  0  0  0  0  0  0  0  0  0
   -7.6962    3.6448  -15.5548 C   0  0  0  0  0  0  0  0  0  0  0  0
   -7.5540    4.3675  -14.3291 N   0  0  0  0  0  0  0  0  0  0  0  0
   -6.2842    4.7781  -13.5463 C   0  0  0  0  0  0  0  0  0  0  0  0
   -5.1546    4.6577  -13.8193 O   0  0  0  0  0  0  0  0  0  0  0  0
   -6.6797    5.3611  -12.1874 C   0  0  1  0  0  0  0  0  0  0  0  0
   -7.5108    6.6429  -12.2999 C   0  0  0  0  0  0  0  0  0  0  0  0
   -8.0187    7.1321  -10.9474 C   0  0  0  0  0  0  0  0  0  0  0  0
   -8.1676    8.3341  -10.7285 O   0  0  0  0  0  0  0  0  0  0  0  0
   -8.3973    6.1875  -10.0338 N   0  0  0  0  0  0  0  0  0  0  0  0
   -8.1458    4.8653  -10.2209 C   0  0  0  0  0  0  0  0  0  0  0  0
   -8.5156    3.8913   -9.3664 N   0  0  0  0  0  0  0  0  0  0  0  0
   -7.9469    2.8108   -9.8541 C   0  0  0  0  0  0  0  0  0  0  0  0
   -7.2235    3.0851  -10.9912 N   0  0  0  0  0  0  0  0  0  0  0  0
   -6.4038    2.1288  -11.6938 C   0  0  0  0  0  0  0  0  0  0  0  0
   -7.3657    4.4209  -11.2526 C   0  0  0  0  0  0  0  0  0  0  0  0
   -7.0203    5.2415  -17.3660 C   0  0  0  0  0  0  0  0  0  0  0  0
   -6.1770    4.7964  -18.3739 C   0  0  0  0  0  0  0  0  0  0  0  0
   -5.1276    5.6162  -18.7461 C   0  0  0  0  0  0  0  0  0  0  0  0
   -4.8770    6.8256  -18.1909 N   0  0  0  0  0  0  0  0  0  0  0  0
   -5.7570    7.2560  -17.2598 C   0  0  0  0  0  0  0  0  0  0  0  0
   -6.8380    6.5087  -16.8469 C   0  0  0  0  0  0  0  0  0  0  0  0
   -7.7533    6.9860  -15.9960 F   0  0  0  0  0  0  0  0  0  0  0  0
  1  2  2  0
  2  3  1  0
  3  4  1  0
  4  5  1  0
  5  6  2  0
  7  5  1  6
  7  8  1  0
  8  9  1  0
  9 10  2  0
  9 11  1  0
 11 12  1  0
 12 13  1  0
 13 14  2  0
 14 15  1  0
 15 16  1  0
 15 17  1  0
  2 18  1  0
 18 19  2  0
 19 20  1  0
 20 21  2  0
 21 22  1  0
 22 23  2  0
 23 24  1  0
 17  7  1  0
 23 18  1  0
 17 12  2  0
M  END
>  <energy_score>  (2454) 
-7.843795

>  <alias>  (2454) 
None

>  <HIPPO Pose ID>  (2454) 
74917

>  <smiles>  (2454) 
C=C(CNC(=O)[C@H]1CC(=O)Nc2ncn(C)c21)c1ccncc1F

>  <inchikey>  (2454) 
ZILAONRWBDHNJU-NSHDSACASA-N

>  <distance_score>  (2454) 
1.853831

>  <ref_mols>  (2454) 
Z1495a,Z0800a

>  <ref_pdb>  (2454) 
Z0800a

>  <HIPPO Compound ID>  (2454) 
148942

>  <name>  (2454) 
P74917

>  <inspiration_score>  (2454) 
None

$$$$
P74918
     RDKit          3D

 24 26  0  0  0  0  0  0  0  0999 V2000
   -8.5790    1.9769   -8.4961 C   0  0  0  0  0  0  0  0  0  0  0  0
   -8.4003    3.3078   -9.1344 C   0  0  0  0  0  0  0  0  0  0  0  0
   -8.4015    4.4503   -8.4850 N   0  0  0  0  0  0  0  0  0  0  0  0
   -8.1435    5.3969   -9.4230 C   0  0  0  0  0  0  0  0  0  0  0  0
   -7.9717    4.8579  -10.6787 C   0  0  0  0  0  0  0  0  0  0  0  0
   -8.1929    3.5213  -10.4870 N   0  0  0  0  0  0  0  0  0  0  0  0
   -8.2282    2.4873  -11.4814 C   0  0  0  0  0  0  0  0  0  0  0  0
   -7.5151    5.6586  -11.8575 C   0  0  1  0  0  0  0  0  0  0  0  0
   -8.0987    5.2494  -13.2174 C   0  0  0  0  0  0  0  0  0  0  0  0
   -9.2004    5.4481  -13.5516 O   0  0  0  0  0  0  0  0  0  0  0  0
   -6.9150    4.5989  -13.9871 N   0  0  0  0  0  0  0  0  0  0  0  0
   -6.8208    4.1445  -15.3655 C   0  0  2  0  0  0  0  0  0  0  0  0
   -5.3308    4.2257  -15.7409 C   0  0  0  0  0  0  0  0  0  0  0  0
   -7.7965    4.8623  -16.3591 C   0  0  2  0  0  0  0  0  0  0  0  0
   -8.6476    3.9137  -17.0081 O   0  0  0  0  0  0  0  0  0  0  0  0
   -7.0614    5.7345  -17.3437 C   0  0  0  0  0  0  0  0  0  0  0  0
   -6.7752    5.3259  -18.6407 C   0  0  0  0  0  0  0  0  0  0  0  0
   -5.9548    6.1342  -19.3998 C   0  0  0  0  0  0  0  0  0  0  0  0
   -5.4063    7.2909  -18.9632 N   0  0  0  0  0  0  0  0  0  0  0  0
   -5.7079    7.6778  -17.7156 C   0  0  0  0  0  0  0  0  0  0  0  0
   -6.5293    6.9500  -16.8825 C   0  0  0  0  0  0  0  0  0  0  0  0
   -7.8309    7.1531  -11.6221 C   0  0  0  0  0  0  0  0  0  0  0  0
   -7.3554    7.6074  -10.2347 C   0  0  0  0  0  0  0  0  0  0  0  0
   -8.0424    6.8353   -9.1027 C   0  0  0  0  0  0  0  0  0  0  0  0
  1  2  1  0
  2  3  2  0
  3  4  1  0
  4  5  2  0
  5  6  1  0
  6  7  1  0
  5  8  1  0
  8  9  1  6
  9 10  2  0
  9 11  1  0
 11 12  1  0
 12 13  1  6
 12 14  1  0
 14 15  1  6
 14 16  1  0
 16 17  2  0
 17 18  1  0
 18 19  2  0
 19 20  1  0
 20 21  2  0
  8 22  1  0
 22 23  1  0
 23 24  1  0
  6  2  1  0
 21 16  1  0
 24  4  1  0
M  END
>  <energy_score>  (2455) 
-2.817278

>  <alias>  (2455) 
None

>  <HIPPO Pose ID>  (2455) 
74918

>  <smiles>  (2455) 
Cc1nc2c(n1C)[C@@H](C(=O)N[C@H](C)[C@H](O)c1ccncc1)CCC2

>  <inchikey>  (2455) 
HILZKQABZDGIHS-WHCBVINPSA-N

>  <distance_score>  (2455) 
1.891991

>  <ref_mols>  (2455) 
Z1495a,Z0800a

>  <ref_pdb>  (2455) 
Z0800a

>  <HIPPO Compound ID>  (2455) 
148965

>  <name>  (2455) 
P74918

>  <inspiration_score>  (2455) 
None

$$$$
P74919
     RDKit          3D

 24 26  0  0  0  0  0  0  0  0999 V2000
   -8.4251    6.4090  -14.3412 C   0  0  0  0  0  0  0  0  0  0  0  0
   -7.5131    6.2758  -13.3651 C   0  0  0  0  0  0  0  0  0  0  0  0
   -6.1322    6.8904  -13.3918 C   0  0  0  0  0  0  0  0  0  0  0  0
   -5.5048    6.5149  -14.6164 N   0  0  0  0  0  0  0  0  0  0  0  0
   -4.6466    5.2729  -14.9681 C   0  0  0  0  0  0  0  0  0  0  0  0
   -4.2570    4.4057  -14.2898 O   0  0  0  0  0  0  0  0  0  0  0  0
   -4.3443    5.3102  -16.4704 C   0  0  0  0  0  0  0  0  0  0  0  0
   -5.4897    5.8073  -17.2864 C   0  0  0  0  0  0  0  0  0  0  0  0
   -5.6235    6.9446  -18.0593 C   0  0  0  0  0  0  0  0  0  0  0  0
   -4.6415    8.0216  -18.3161 C   0  0  0  0  0  0  0  0  0  0  0  0
   -6.8678    6.9952  -18.6366 N   0  0  0  0  0  0  0  0  0  0  0  0
   -7.4539    5.8646  -18.3171 C   0  0  0  0  0  0  0  0  0  0  0  0
   -6.7127    5.2059  -17.3867 N   0  0  0  0  0  0  0  0  0  0  0  0
   -7.1978    3.9685  -16.8449 C   0  0  0  0  0  0  0  0  0  0  0  0
   -8.7199    3.8597  -16.6843 C   0  0  0  0  0  0  0  0  0  0  0  0
   -9.5424    4.7403  -17.6091 C   0  0  0  0  0  0  0  0  0  0  0  0
   -8.7313    5.2486  -18.7819 C   0  0  0  0  0  0  0  0  0  0  0  0
   -7.8418    5.5761  -12.1150 C   0  0  0  0  0  0  0  0  0  0  0  0
   -8.0721    4.1988  -12.0713 C   0  0  0  0  0  0  0  0  0  0  0  0
   -8.2595    3.6040  -10.8289 C   0  0  0  0  0  0  0  0  0  0  0  0
   -8.2398    4.2839   -9.6561 N   0  0  0  0  0  0  0  0  0  0  0  0
   -8.0390    5.6155   -9.7316 C   0  0  0  0  0  0  0  0  0  0  0  0
   -7.8378    6.2906  -10.9168 C   0  0  0  0  0  0  0  0  0  0  0  0
   -7.6157    7.6142  -10.8976 F   0  0  0  0  0  0  0  0  0  0  0  0
  1  2  2  0
  2  3  1  0
  3  4  1  0
  4  5  1  0
  5  6  2  0
  5  7  1  0
  7  8  1  0
  8  9  2  0
  9 10  1  0
  9 11  1  0
 11 12  2  0
 12 13  1  0
 13 14  1  0
 14 15  1  0
 15 16  1  0
 16 17  1  0
  2 18  1  0
 18 19  2  0
 19 20  1  0
 20 21  2  0
 21 22  1  0
 22 23  2  0
 23 24  1  0
 13  8  1  0
 23 18  1  0
 17 12  1  0
M  END
>  <energy_score>  (2456) 
-12.40923

>  <alias>  (2456) 
None

>  <HIPPO Pose ID>  (2456) 
74919

>  <smiles>  (2456) 
C=C(CNC(=O)Cc1c(C)nc2n1CCCC2)c1ccncc1F

>  <inchikey>  (2456) 
LZDZLBVOUPYTCG-UHFFFAOYSA-N

>  <distance_score>  (2456) 
1.815879

>  <ref_mols>  (2456) 
Z1495a,Z0800a

>  <ref_pdb>  (2456) 
Z0800a

>  <HIPPO Compound ID>  (2456) 
148975

>  <name>  (2456) 
P74919

>  <inspiration_score>  (2456) 
None

$$$$
P74920
     RDKit          3D

 25 27  0  0  0  0  0  0  0  0999 V2000
   -4.5458    1.8344  -12.5651 C   0  0  0  0  0  0  0  0  0  0  0  0
   -5.3791    2.9851  -12.7063 O   0  0  0  0  0  0  0  0  0  0  0  0
   -5.1405    3.7365  -13.8130 C   0  0  0  0  0  0  0  0  0  0  0  0
   -4.2748    3.4977  -14.6490 O   0  0  0  0  0  0  0  0  0  0  0  0
   -6.0339    4.9790  -13.8382 C   0  0  2  0  0  0  0  0  0  0  0  0
   -7.5278    4.6671  -13.6478 C   0  0  0  0  0  0  0  0  0  0  0  0
   -7.9061    4.8583  -12.2057 C   0  0  0  0  0  0  0  0  0  0  0  0
   -7.9212    6.1373  -11.6406 C   0  0  0  0  0  0  0  0  0  0  0  0
   -8.1217    6.2517  -10.2778 C   0  0  0  0  0  0  0  0  0  0  0  0
   -8.3185    5.1991   -9.4618 N   0  0  0  0  0  0  0  0  0  0  0  0
   -8.3476    3.9747  -10.0386 C   0  0  0  0  0  0  0  0  0  0  0  0
   -8.6516    2.4859   -8.9209 Br  0  0  0  0  0  0  0  0  0  0  0  0
   -8.1513    3.7559  -11.3906 C   0  0  0  0  0  0  0  0  0  0  0  0
   -5.8501    5.6855  -15.0824 N   0  0  0  0  0  0  0  0  0  0  0  0
   -6.4915    6.9920  -15.5980 C   0  0  0  0  0  0  0  0  0  0  0  0
   -7.2101    7.7421  -15.0670 O   0  0  0  0  0  0  0  0  0  0  0  0
   -5.9977    7.2857  -17.0139 C   0  0  0  0  0  0  0  0  0  0  0  0
   -5.7203    6.0962  -17.8384 C   0  0  0  0  0  0  0  0  0  0  0  0
   -4.4989    5.5707  -18.2010 C   0  0  0  0  0  0  0  0  0  0  0  0
   -4.6594    4.4964  -19.0090 N   0  0  0  0  0  0  0  0  0  0  0  0
   -5.9608    4.3892  -19.1817 C   0  0  0  0  0  0  0  0  0  0  0  0
   -6.6438    5.2678  -18.4184 N   0  0  0  0  0  0  0  0  0  0  0  0
   -8.1102    5.3647  -18.3707 C   0  0  0  0  0  0  0  0  0  0  0  0
   -9.0608    4.2163  -18.6191 C   0  0  0  0  0  0  0  0  0  0  0  0
   -8.9238    4.7802  -17.2436 C   0  0  0  0  0  0  0  0  0  0  0  0
  1  2  1  0
  2  3  1  0
  3  4  2  0
  3  5  1  0
  5  6  1  6
  6  7  1  0
  7  8  2  0
  8  9  1  0
  9 10  2  0
 10 11  1  0
 11 12  1  0
 11 13  2  0
  5 14  1  0
 14 15  1  0
 15 16  2  0
 15 17  1  0
 17 18  1  0
 18 19  2  0
 19 20  1  0
 20 21  2  0
 21 22  1  0
 22 23  1  0
 23 24  1  0
 24 25  1  0
 13  7  1  0
 22 18  1  0
 25 23  1  0
M  END
>  <energy_score>  (2457) 
-28.307371

>  <alias>  (2457) 
None

>  <HIPPO Pose ID>  (2457) 
74920

>  <smiles>  (2457) 
COC(=O)[C@H](Cc1ccnc(Br)c1)NC(=O)Cc1cncn1C1CC1

>  <inchikey>  (2457) 
XWBQROPQPZYLQX-AWEZNQCLSA-N

>  <distance_score>  (2457) 
1.482555

>  <ref_mols>  (2457) 
Z0800a,Z1495a

>  <ref_pdb>  (2457) 
Z0800a

>  <HIPPO Compound ID>  (2457) 
148984

>  <name>  (2457) 
P74920

>  <inspiration_score>  (2457) 
None

$$$$
P74922
     RDKit          3D

 25 27  0  0  0  0  0  0  0  0999 V2000
   -4.5857    1.8547  -12.6543 C   0  0  0  0  0  0  0  0  0  0  0  0
   -5.3097    3.0844  -12.6961 O   0  0  0  0  0  0  0  0  0  0  0  0
   -5.0873    3.8490  -13.7969 C   0  0  0  0  0  0  0  0  0  0  0  0
   -4.3139    3.5540  -14.7041 O   0  0  0  0  0  0  0  0  0  0  0  0
   -5.8535    5.1869  -13.7229 C   0  0  2  0  0  0  0  0  0  0  0  0
   -5.1352    6.0609  -12.6843 C   0  0  0  0  0  0  0  0  0  0  0  0
   -7.3826    4.9730  -13.5096 C   0  0  0  0  0  0  0  0  0  0  0  0
   -7.8206    4.8774  -12.0735 C   0  0  0  0  0  0  0  0  0  0  0  0
   -8.0430    3.6392  -11.4717 C   0  0  0  0  0  0  0  0  0  0  0  0
   -8.2955    3.6029  -10.1106 C   0  0  0  0  0  0  0  0  0  0  0  0
   -8.3416    4.7038   -9.3248 N   0  0  0  0  0  0  0  0  0  0  0  0
   -8.1863    5.8928   -9.9413 C   0  0  0  0  0  0  0  0  0  0  0  0
   -7.9453    6.0321  -11.2958 C   0  0  0  0  0  0  0  0  0  0  0  0
   -5.6944    5.8402  -15.0186 N   0  0  0  0  0  0  0  0  0  0  0  0
   -6.2573    7.1811  -15.5428 C   0  0  0  0  0  0  0  0  0  0  0  0
   -6.8720    8.0088  -14.9955 O   0  0  0  0  0  0  0  0  0  0  0  0
   -5.8559    7.3629  -17.0011 C   0  0  0  0  0  0  0  0  0  0  0  0
   -5.7920    6.1236  -17.8015 C   0  0  0  0  0  0  0  0  0  0  0  0
   -4.6768    5.5591  -18.3802 C   0  0  0  0  0  0  0  0  0  0  0  0
   -5.0109    4.4661  -19.1007 N   0  0  0  0  0  0  0  0  0  0  0  0
   -6.3227    4.3846  -19.0212 C   0  0  0  0  0  0  0  0  0  0  0  0
   -6.8284    5.2901  -18.1507 N   0  0  0  0  0  0  0  0  0  0  0  0
   -8.2079    5.2645  -17.6071 C   0  0  0  0  0  0  0  0  0  0  0  0
   -9.0264    4.0011  -17.4760 C   0  0  0  0  0  0  0  0  0  0  0  0
   -9.4446    5.0506  -18.4519 C   0  0  0  0  0  0  0  0  0  0  0  0
  1  2  1  0
  2  3  1  0
  3  4  2  0
  3  5  1  0
  5  6  1  1
  5  7  1  0
  7  8  1  0
  8  9  2  0
  9 10  1  0
 10 11  2  0
 11 12  1  0
 12 13  2  0
  5 14  1  0
 14 15  1  0
 15 16  2  0
 15 17  1  0
 17 18  1  0
 18 19  2  0
 19 20  1  0
 20 21  2  0
 21 22  1  0
 22 23  1  0
 23 24  1  0
 24 25  1  0
 13  8  1  0
 22 18  1  0
 25 23  1  0
M  END
>  <energy_score>  (2458) 
-24.029351

>  <alias>  (2458) 
None

>  <HIPPO Pose ID>  (2458) 
74922

>  <smiles>  (2458) 
COC(=O)[C@](C)(Cc1ccncc1)NC(=O)Cc1cncn1C1CC1

>  <inchikey>  (2458) 
OWIHPCZPSSVYPY-SFHVURJKSA-N

>  <distance_score>  (2458) 
1.398814

>  <ref_mols>  (2458) 
Z1495a,Z0800a

>  <ref_pdb>  (2458) 
Z0800a

>  <HIPPO Compound ID>  (2458) 
148986

>  <name>  (2458) 
P74922

>  <inspiration_score>  (2458) 
None

$$$$
P74924
     RDKit          3D

 25 26  0  0  0  0  0  0  0  0999 V2000
   -3.5990    1.6995  -12.8107 C   0  0  0  0  0  0  0  0  0  0  0  0
   -4.8820    1.9737  -12.0446 C   0  0  0  0  0  0  0  0  0  0  0  0
   -5.9153    2.4606  -12.9145 O   0  0  0  0  0  0  0  0  0  0  0  0
   -5.7997    3.7575  -13.3094 C   0  0  0  0  0  0  0  0  0  0  0  0
   -4.8542    4.5005  -13.0611 O   0  0  0  0  0  0  0  0  0  0  0  0
   -6.9957    4.1689  -14.1541 C   0  0  2  0  0  0  0  0  0  0  0  0
   -6.6278    5.2790  -14.9999 N   0  0  0  0  0  0  0  0  0  0  0  0
   -7.4207    6.0017  -16.0976 C   0  0  0  0  0  0  0  0  0  0  0  0
   -8.5234    5.8682  -16.4429 O   0  0  0  0  0  0  0  0  0  0  0  0
   -6.4570    6.9608  -16.8443 C   0  0  1  0  0  0  0  0  0  0  0  0
   -5.7088    7.8461  -16.0301 O   0  0  0  0  0  0  0  0  0  0  0  0
   -5.5414    6.1342  -17.6633 C   0  0  0  0  0  0  0  0  0  0  0  0
   -4.1658    6.0679  -17.7076 C   0  0  0  0  0  0  0  0  0  0  0  0
   -3.7485    5.1138  -18.5779 N   0  0  0  0  0  0  0  0  0  0  0  0
   -4.8513    4.6379  -19.1006 C   0  0  0  0  0  0  0  0  0  0  0  0
   -5.9681    5.1971  -18.5746 N   0  0  0  0  0  0  0  0  0  0  0  0
   -7.3078    4.7959  -18.9328 C   0  0  0  0  0  0  0  0  0  0  0  0
   -8.2866    4.4336  -13.3549 C   0  0  2  0  0  0  0  0  0  0  0  0
   -9.2197    5.3396  -13.9737 O   0  0  0  0  0  0  0  0  0  0  0  0
   -8.0923    4.8738  -11.9326 C   0  0  0  0  0  0  0  0  0  0  0  0
   -8.1673    3.9135  -10.9155 C   0  0  0  0  0  0  0  0  0  0  0  0
   -8.0241    4.3227   -9.6058 C   0  0  0  0  0  0  0  0  0  0  0  0
   -7.8106    5.6059   -9.2462 N   0  0  0  0  0  0  0  0  0  0  0  0
   -7.7388    6.5138  -10.2443 C   0  0  0  0  0  0  0  0  0  0  0  0
   -7.8630    6.2037  -11.5868 C   0  0  0  0  0  0  0  0  0  0  0  0
  1  2  1  0
  2  3  1  0
  3  4  1  0
  4  5  2  0
  4  6  1  0
  6  7  1  1
  7  8  1  0
  8  9  2  0
  8 10  1  0
 10 11  1  1
 10 12  1  0
 12 13  2  0
 13 14  1  0
 14 15  2  0
 15 16  1  0
 16 17  1  0
  6 18  1  0
 18 19  1  6
 18 20  1  0
 20 21  2  0
 21 22  1  0
 22 23  2  0
 23 24  1  0
 24 25  2  0
 16 12  1  0
 25 20  1  0
M  END
>  <energy_score>  (2459) 
-13.312616

>  <alias>  (2459) 
None

>  <HIPPO Pose ID>  (2459) 
74924

>  <smiles>  (2459) 
CCOC(=O)[C@H](NC(=O)[C@@H](O)c1cncn1C)[C@H](O)c1ccncc1

>  <inchikey>  (2459) 
HSAYKBBRDXBZPS-MCIONIFRSA-N

>  <distance_score>  (2459) 
1.834008

>  <ref_mols>  (2459) 
Z1495a,Z0800a

>  <ref_pdb>  (2459) 
Z0800a

>  <HIPPO Compound ID>  (2459) 
148990

>  <name>  (2459) 
P74924

>  <inspiration_score>  (2459) 
None

$$$$
P74927
     RDKit          3D

 25 27  0  0  0  0  0  0  0  0999 V2000
   -4.8861    4.8430  -19.3534 C   0  0  0  0  0  0  0  0  0  0  0  0
   -5.1197    6.2521  -19.1964 N   0  0  0  0  0  0  0  0  0  0  0  0
   -5.6145    7.0602  -20.1869 C   0  0  0  0  0  0  0  0  0  0  0  0
   -5.6879    8.3182  -19.8117 N   0  0  0  0  0  0  0  0  0  0  0  0
   -5.1992    8.3232  -18.5380 C   0  0  0  0  0  0  0  0  0  0  0  0
   -4.8309    7.0539  -18.1224 C   0  0  0  0  0  0  0  0  0  0  0  0
   -4.2706    6.6636  -16.7975 C   0  0  2  0  0  0  0  0  0  0  0  0
   -3.6696    5.3810  -16.8888 O   0  0  0  0  0  0  0  0  0  0  0  0
   -5.4042    6.8079  -15.7316 C   0  0  0  0  0  0  0  0  0  0  0  0
   -5.6882    7.8335  -15.2449 O   0  0  0  0  0  0  0  0  0  0  0  0
   -5.9955    5.3854  -15.5040 N   0  0  0  0  0  0  0  0  0  0  0  0
   -7.1289    4.9491  -14.6953 C   0  0  1  0  0  0  0  0  0  0  0  0
   -7.1320    5.7836  -13.4039 C   0  0  0  0  0  0  0  0  0  0  0  0
   -7.6874    5.2296  -12.1221 C   0  0  0  0  0  0  0  0  0  0  0  0
   -8.0286    3.8964  -11.9032 C   0  0  0  0  0  0  0  0  0  0  0  0
   -8.3551    3.5040  -10.6105 C   0  0  0  0  0  0  0  0  0  0  0  0
   -8.3623    4.3378   -9.5450 N   0  0  0  0  0  0  0  0  0  0  0  0
   -8.0742    5.6287   -9.7865 C   0  0  0  0  0  0  0  0  0  0  0  0
   -7.7389    6.1140  -11.0351 C   0  0  0  0  0  0  0  0  0  0  0  0
   -8.4803    5.1361  -15.4214 C   0  0  0  0  0  0  0  0  0  0  0  0
   -8.6810    4.2724  -16.6732 C   0  0  0  0  0  0  0  0  0  0  0  0
  -10.0151    4.5016  -17.3726 C   0  0  0  0  0  0  0  0  0  0  0  0
   -9.7704    4.1278  -18.8045 C   0  0  0  0  0  0  0  0  0  0  0  0
   -8.4256    4.7224  -19.0483 C   0  0  0  0  0  0  0  0  0  0  0  0
   -7.6621    4.5477  -17.7641 C   0  0  0  0  0  0  0  0  0  0  0  0
  1  2  1  0
  2  3  1  0
  3  4  2  0
  4  5  1  0
  5  6  2  0
  6  7  1  0
  7  8  1  6
  7  9  1  0
  9 10  2  0
  9 11  1  0
 11 12  1  0
 12 13  1  1
 13 14  1  0
 14 15  2  0
 15 16  1  0
 16 17  2  0
 17 18  1  0
 18 19  2  0
 12 20  1  0
 20 21  1  0
 21 22  1  0
 22 23  1  0
 23 24  1  0
 24 25  1  0
  6  2  1  0
 19 14  1  0
 25 21  1  0
M  END
>  <energy_score>  (2460) 
-12.43271

>  <alias>  (2460) 
None

>  <HIPPO Pose ID>  (2460) 
74927

>  <smiles>  (2460) 
Cn1cncc1[C@H](O)C(=O)N[C@@H](Cc1ccncc1)CC1CCCC1

>  <inchikey>  (2460) 
XCPNJYCQXUURLU-AEFFLSMTSA-N

>  <distance_score>  (2460) 
1.825254

>  <ref_mols>  (2460) 
Z1495a,Z0800a

>  <ref_pdb>  (2460) 
Z0800a

>  <HIPPO Compound ID>  (2460) 
148991

>  <name>  (2460) 
P74927

>  <inspiration_score>  (2460) 
None

$$$$
P74928
     RDKit          3D

 25 27  0  0  0  0  0  0  0  0999 V2000
   -8.5083    1.8006   -8.3560 C   0  0  0  0  0  0  0  0  0  0  0  0
   -8.2068    2.9598   -9.2347 C   0  0  0  0  0  0  0  0  0  0  0  0
   -8.7677    4.1404   -9.0884 N   0  0  0  0  0  0  0  0  0  0  0  0
   -8.1206    4.9704   -9.9437 C   0  0  0  0  0  0  0  0  0  0  0  0
   -7.2007    4.2912  -10.7116 C   0  0  0  0  0  0  0  0  0  0  0  0
   -7.2565    2.9971  -10.2384 N   0  0  0  0  0  0  0  0  0  0  0  0
   -6.3669    1.9282  -10.6306 C   0  0  0  0  0  0  0  0  0  0  0  0
   -6.1464    4.9488  -11.5531 C   0  0  1  0  0  0  0  0  0  0  0  0
   -6.4714    5.2905  -13.0342 C   0  0  0  0  0  0  0  0  0  0  0  0
   -5.7543    6.0156  -13.6042 O   0  0  0  0  0  0  0  0  0  0  0  0
   -7.8036    4.6525  -13.4748 N   0  0  0  0  0  0  0  0  0  0  0  0
   -8.5945    4.8478  -14.6879 C   0  0  1  0  0  0  0  0  0  0  0  0
   -8.8797    6.3441  -14.8895 C   0  0  0  0  0  0  0  0  0  0  0  0
   -7.7615    7.1070  -15.3189 O   0  0  0  0  0  0  0  0  0  0  0  0
   -8.1672    4.0773  -15.9802 C   0  0  1  0  0  0  0  0  0  0  0  0
   -9.3114    3.7547  -16.7901 O   0  0  0  0  0  0  0  0  0  0  0  0
   -7.0598    4.6208  -16.8455 C   0  0  0  0  0  0  0  0  0  0  0  0
   -7.2475    5.0874  -18.1486 C   0  0  0  0  0  0  0  0  0  0  0  0
   -6.1531    5.5684  -18.8481 C   0  0  0  0  0  0  0  0  0  0  0  0
   -4.9058    5.6363  -18.3420 N   0  0  0  0  0  0  0  0  0  0  0  0
   -4.7395    5.1635  -17.0956 C   0  0  0  0  0  0  0  0  0  0  0  0
   -5.7624    4.6335  -16.3357 C   0  0  0  0  0  0  0  0  0  0  0  0
   -5.8651    6.3242  -10.8637 C   0  0  0  0  0  0  0  0  0  0  0  0
   -7.1583    7.1477  -10.6871 C   0  0  0  0  0  0  0  0  0  0  0  0
   -8.1884    6.4422   -9.8010 C   0  0  0  0  0  0  0  0  0  0  0  0
  1  2  1  0
  2  3  2  0
  3  4  1  0
  4  5  2  0
  5  6  1  0
  6  7  1  0
  5  8  1  0
  8  9  1  6
  9 10  2  0
  9 11  1  0
 11 12  1  0
 12 13  1  6
 13 14  1  0
 12 15  1  0
 15 16  1  6
 15 17  1  0
 17 18  2  0
 18 19  1  0
 19 20  2  0
 20 21  1  0
 21 22  2  0
  8 23  1  0
 23 24  1  0
 24 25  1  0
  6  2  1  0
 22 17  1  0
 25  4  1  0
M  END
>  <energy_score>  (2461) 
-5.14746

>  <alias>  (2461) 
None

>  <HIPPO Pose ID>  (2461) 
74928

>  <smiles>  (2461) 
Cc1nc2c(n1C)[C@@H](C(=O)N[C@@H](CO)[C@@H](O)c1ccncc1)CCC2

>  <inchikey>  (2461) 
IDCFOQCNEGHIIH-QRTARXTBSA-N

>  <distance_score>  (2461) 
1.969199

>  <ref_mols>  (2461) 
Z1495a,Z0800a

>  <ref_pdb>  (2461) 
Z0800a

>  <HIPPO Compound ID>  (2461) 
148992

>  <name>  (2461) 
P74928

>  <inspiration_score>  (2461) 
None

$$$$
P74929
     RDKit          3D

 25 28  0  0  0  0  0  0  0  0999 V2000
   -8.5226    1.9778   -8.5063 C   0  0  0  0  0  0  0  0  0  0  0  0
   -8.2960    3.3065   -9.1335 C   0  0  0  0  0  0  0  0  0  0  0  0
   -8.1295    4.4289   -8.4655 N   0  0  0  0  0  0  0  0  0  0  0  0
   -7.9389    5.3689   -9.4171 C   0  0  0  0  0  0  0  0  0  0  0  0
   -8.0899    4.8809  -10.6918 C   0  0  0  0  0  0  0  0  0  0  0  0
   -8.1579    3.5308  -10.4957 N   0  0  0  0  0  0  0  0  0  0  0  0
   -7.9385    2.4998  -11.4725 C   0  0  0  0  0  0  0  0  0  0  0  0
   -7.9343    5.8071  -11.8670 C   0  0  2  0  0  0  0  0  0  0  0  0
   -8.4095    5.2832  -13.2397 C   0  0  0  0  0  0  0  0  0  0  0  0
   -9.0838    4.3389  -13.3124 O   0  0  0  0  0  0  0  0  0  0  0  0
   -7.9304    6.2562  -14.3381 N   0  0  0  0  0  0  0  0  0  0  0  0
   -8.2611    6.3216  -15.7407 C   0  0  0  0  0  0  0  0  0  0  0  0
   -7.8998    5.1047  -16.5854 C   0  0  0  0  0  0  0  0  0  0  0  0
   -6.3191    5.0385  -16.8350 C   0  0  0  0  0  0  0  0  0  0  0  0
   -5.7354    5.3151  -18.0840 C   0  0  0  0  0  0  0  0  0  0  0  0
   -4.3623    5.2531  -18.2313 C   0  0  0  0  0  0  0  0  0  0  0  0
   -3.5129    4.9504  -17.2311 N   0  0  0  0  0  0  0  0  0  0  0  0
   -4.0642    4.6647  -16.0383 C   0  0  0  0  0  0  0  0  0  0  0  0
   -5.4277    4.6924  -15.8027 C   0  0  0  0  0  0  0  0  0  0  0  0
   -8.8319    4.9330  -17.8455 C   0  0  0  0  0  0  0  0  0  0  0  0
   -8.9067    3.5031  -17.5918 O   0  0  0  0  0  0  0  0  0  0  0  0
   -8.6112    3.8053  -16.1969 C   0  0  0  0  0  0  0  0  0  0  0  0
   -6.5778    6.4913  -11.6569 C   0  0  0  0  0  0  0  0  0  0  0  0
   -6.4846    7.1859  -10.2571 C   0  0  0  0  0  0  0  0  0  0  0  0
   -7.5111    6.7541   -9.1766 C   0  0  0  0  0  0  0  0  0  0  0  0
  1  2  1  0
  2  3  2  0
  3  4  1  0
  4  5  2  0
  5  6  1  0
  6  7  1  0
  5  8  1  0
  8  9  1  6
  9 10  2  0
  9 11  1  0
 11 12  1  0
 12 13  1  0
 13 14  1  0
 14 15  2  0
 15 16  1  0
 16 17  2  0
 17 18  1  0
 18 19  2  0
 13 20  1  0
 20 21  1  0
 21 22  1  0
  8 23  1  0
 23 24  1  0
 24 25  1  0
  6  2  1  0
 22 13  1  0
 25  4  1  0
 19 14  1  0
M  END
>  <energy_score>  (2462) 
-5.225452

>  <alias>  (2462) 
None

>  <HIPPO Pose ID>  (2462) 
74929

>  <smiles>  (2462) 
Cc1nc2c(n1C)[C@H](C(=O)NCC1(c3ccncc3)COC1)CCC2

>  <inchikey>  (2462) 
VYZSDTRINYVQNU-OAHLLOKOSA-N

>  <distance_score>  (2462) 
1.778013

>  <ref_mols>  (2462) 
Z0800a,Z1495a

>  <ref_pdb>  (2462) 
Z0800a

>  <HIPPO Compound ID>  (2462) 
148995

>  <name>  (2462) 
P74929

>  <inspiration_score>  (2462) 
None

$$$$
P74931
     RDKit          3D

 25 27  0  0  0  0  0  0  0  0999 V2000
   -8.4310    2.0431   -8.5349 C   0  0  0  0  0  0  0  0  0  0  0  0
   -8.0902    3.3105   -9.2384 C   0  0  0  0  0  0  0  0  0  0  0  0
   -7.4278    4.3013   -8.6872 N   0  0  0  0  0  0  0  0  0  0  0  0
   -7.3362    5.2556   -9.6443 C   0  0  0  0  0  0  0  0  0  0  0  0
   -7.9730    4.8953  -10.8125 C   0  0  0  0  0  0  0  0  0  0  0  0
   -8.3681    3.6050  -10.5625 N   0  0  0  0  0  0  0  0  0  0  0  0
   -8.8329    2.6456  -11.5187 C   0  0  0  0  0  0  0  0  0  0  0  0
   -8.1929    5.8859  -11.9244 C   0  0  2  0  0  0  0  0  0  0  0  0
   -8.5735    5.4087  -13.3253 C   0  0  0  0  0  0  0  0  0  0  0  0
   -9.5936    5.7145  -13.8021 O   0  0  0  0  0  0  0  0  0  0  0  0
   -7.4237    4.5580  -13.8912 N   0  0  0  0  0  0  0  0  0  0  0  0
   -7.3231    3.8234  -15.1267 C   0  0  0  0  0  0  0  0  0  0  0  0
   -7.8087    4.6321  -16.3841 C   0  0  2  0  0  0  0  0  0  0  0  0
   -9.0195    3.8879  -16.9927 C   0  0  0  0  0  0  0  0  0  0  0  0
   -9.8639    4.5961  -18.0400 C   0  0  0  0  0  0  0  0  0  0  0  0
  -11.1536    4.0005  -18.0635 O   0  0  0  0  0  0  0  0  0  0  0  0
   -6.7183    5.0405  -17.3613 C   0  0  0  0  0  0  0  0  0  0  0  0
   -5.3596    4.7754  -17.1544 C   0  0  0  0  0  0  0  0  0  0  0  0
   -4.4035    5.3021  -18.0039 C   0  0  0  0  0  0  0  0  0  0  0  0
   -4.6958    6.0839  -19.0460 N   0  0  0  0  0  0  0  0  0  0  0  0
   -6.0065    6.3127  -19.2607 C   0  0  0  0  0  0  0  0  0  0  0  0
   -7.0297    5.8391  -18.4598 C   0  0  0  0  0  0  0  0  0  0  0  0
   -7.0307    6.8928  -11.9351 C   0  0  0  0  0  0  0  0  0  0  0  0
   -6.9084    7.5470  -10.5447 C   0  0  0  0  0  0  0  0  0  0  0  0
   -6.6278    6.5325   -9.4249 C   0  0  0  0  0  0  0  0  0  0  0  0
  1  2  1  0
  2  3  2  0
  3  4  1  0
  4  5  2  0
  5  6  1  0
  6  7  1  0
  5  8  1  0
  8  9  1  6
  9 10  2  0
  9 11  1  0
 11 12  1  0
 13 12  1  1
 13 14  1  0
 14 15  1  0
 15 16  1  0
 13 17  1  0
 17 18  2  0
 18 19  1  0
 19 20  2  0
 20 21  1  0
 21 22  2  0
  8 23  1  0
 23 24  1  0
 24 25  1  0
  6  2  1  0
 22 17  1  0
 25  4  1  0
M  END
>  <energy_score>  (2463) 
-4.200303

>  <alias>  (2463) 
None

>  <HIPPO Pose ID>  (2463) 
74931

>  <smiles>  (2463) 
Cc1nc2c(n1C)[C@H](C(=O)NC[C@H](CCO)c1ccncc1)CCC2

>  <inchikey>  (2463) 
RUCMHPZYVSSGCG-JKSUJKDBSA-N

>  <distance_score>  (2463) 
1.792955

>  <ref_mols>  (2463) 
Z1495a,Z0800a

>  <ref_pdb>  (2463) 
Z0800a

>  <HIPPO Compound ID>  (2463) 
148999

>  <name>  (2463) 
P74931

>  <inspiration_score>  (2463) 
None

$$$$
P74933
     RDKit          3D

 25 26  0  0  0  0  0  0  0  0999 V2000
   -5.4132    2.0248  -12.7569 C   0  0  0  0  0  0  0  0  0  0  0  0
   -6.5106    2.5843  -13.4830 O   0  0  0  0  0  0  0  0  0  0  0  0
   -6.3348    3.8729  -13.8888 C   0  0  0  0  0  0  0  0  0  0  0  0
   -5.2914    4.5080  -13.7622 O   0  0  0  0  0  0  0  0  0  0  0  0
   -7.6324    4.4530  -14.4725 C   0  0  1  0  0  0  0  0  0  0  0  0
   -8.2333    5.4832  -13.5170 C   0  0  0  0  0  0  0  0  0  0  0  0
   -8.1828    5.1667  -12.0492 C   0  0  0  0  0  0  0  0  0  0  0  0
   -8.4706    3.9007  -11.5395 C   0  0  0  0  0  0  0  0  0  0  0  0
   -8.3969    3.7003  -10.1706 C   0  0  0  0  0  0  0  0  0  0  0  0
   -8.6766    2.4818   -9.6957 F   0  0  0  0  0  0  0  0  0  0  0  0
   -8.0700    4.6551   -9.2783 N   0  0  0  0  0  0  0  0  0  0  0  0
   -7.8217    5.8709   -9.7895 C   0  0  0  0  0  0  0  0  0  0  0  0
   -7.5028    6.8477   -8.9280 F   0  0  0  0  0  0  0  0  0  0  0  0
   -7.8640    6.1770  -11.1390 C   0  0  0  0  0  0  0  0  0  0  0  0
   -7.3413    5.1380  -15.7147 N   0  0  0  0  0  0  0  0  0  0  0  0
   -7.7109    4.7735  -17.1758 C   0  0  0  0  0  0  0  0  0  0  0  0
   -8.2387    3.8283  -17.6077 O   0  0  0  0  0  0  0  0  0  0  0  0
   -7.1132    5.9370  -18.0244 C   0  0  1  0  0  0  0  0  0  0  0  0
   -6.8683    7.1131  -17.2317 O   0  0  0  0  0  0  0  0  0  0  0  0
   -5.7801    5.6257  -18.6015 C   0  0  0  0  0  0  0  0  0  0  0  0
   -5.2995    5.9168  -19.8620 C   0  0  0  0  0  0  0  0  0  0  0  0
   -3.9643    5.6239  -19.9855 N   0  0  0  0  0  0  0  0  0  0  0  0
   -3.6553    5.0753  -18.8390 C   0  0  0  0  0  0  0  0  0  0  0  0
   -4.6934    5.1009  -17.9554 N   0  0  0  0  0  0  0  0  0  0  0  0
   -4.5356    4.7446  -16.5759 C   0  0  0  0  0  0  0  0  0  0  0  0
  1  2  1  0
  2  3  1  0
  3  4  2  0
  3  5  1  0
  5  6  1  1
  6  7  1  0
  7  8  2  0
  8  9  1  0
  9 10  1  0
  9 11  2  0
 11 12  1  0
 12 13  1  0
 12 14  2  0
  5 15  1  0
 15 16  1  0
 16 17  2  0
 16 18  1  0
 18 19  1  1
 18 20  1  0
 20 21  2  0
 21 22  1  0
 22 23  2  0
 23 24  1  0
 24 25  1  0
 14  7  1  0
 24 20  1  0
M  END
>  <energy_score>  (2464) 
-7.000907

>  <alias>  (2464) 
None

>  <HIPPO Pose ID>  (2464) 
74933

>  <smiles>  (2464) 
COC(=O)[C@@H](Cc1cc(F)nc(F)c1)NC(=O)[C@@H](O)c1cncn1C

>  <inchikey>  (2464) 
LCGXBWYFJXYOFB-RNCFNFMXSA-N

>  <distance_score>  (2464) 
1.543958

>  <ref_mols>  (2464) 
Z1495a,Z0800a

>  <ref_pdb>  (2464) 
Z0800a

>  <HIPPO Compound ID>  (2464) 
149000

>  <name>  (2464) 
P74933

>  <inspiration_score>  (2464) 
None

$$$$
P74934
     RDKit          3D

 25 27  0  0  0  0  0  0  0  0999 V2000
   -8.6173    2.4179   -8.5773 C   0  0  0  0  0  0  0  0  0  0  0  0
   -8.5269    2.6268   -9.9796 O   0  0  0  0  0  0  0  0  0  0  0  0
   -8.2803    3.9369  -10.3158 C   0  0  0  0  0  0  0  0  0  0  0  0
   -7.9377    4.1699  -11.6350 C   0  0  0  0  0  0  0  0  0  0  0  0
   -7.6749    5.4831  -12.0289 C   0  0  0  0  0  0  0  0  0  0  0  0
   -7.1333    5.7644  -13.3958 C   0  0  0  0  0  0  0  0  0  0  0  0
   -5.5903    5.7454  -13.4206 C   0  0  2  0  0  0  0  0  0  0  0  0
   -4.9371    6.9412  -12.7346 C   0  0  0  0  0  0  0  0  0  0  0  0
   -5.1704    5.7007  -14.7973 N   0  0  0  0  0  0  0  0  0  0  0  0
   -4.2083    4.7274  -15.5248 C   0  0  0  0  0  0  0  0  0  0  0  0
   -3.6684    3.7668  -15.1379 O   0  0  0  0  0  0  0  0  0  0  0  0
   -4.1054    5.1723  -16.9837 C   0  0  0  0  0  0  0  0  0  0  0  0
   -5.3600    5.7540  -17.5496 C   0  0  0  0  0  0  0  0  0  0  0  0
   -5.5886    6.9775  -18.1530 C   0  0  0  0  0  0  0  0  0  0  0  0
   -4.6478    8.0980  -18.3764 C   0  0  0  0  0  0  0  0  0  0  0  0
   -6.8788    7.0601  -18.6197 N   0  0  0  0  0  0  0  0  0  0  0  0
   -7.4143    5.8849  -18.3829 C   0  0  0  0  0  0  0  0  0  0  0  0
   -6.5914    5.1649  -17.5729 N   0  0  0  0  0  0  0  0  0  0  0  0
   -7.1206    3.9733  -16.9658 C   0  0  0  0  0  0  0  0  0  0  0  0
   -8.5887    4.1419  -16.5714 C   0  0  0  0  0  0  0  0  0  0  0  0
   -9.4655    4.5514  -17.7441 C   0  0  0  0  0  0  0  0  0  0  0  0
   -8.6922    5.2572  -18.8435 C   0  0  0  0  0  0  0  0  0  0  0  0
   -7.8293    6.5098  -11.0991 C   0  0  0  0  0  0  0  0  0  0  0  0
   -8.1674    6.1728   -9.8021 C   0  0  0  0  0  0  0  0  0  0  0  0
   -8.3811    4.9110   -9.3843 N   0  0  0  0  0  0  0  0  0  0  0  0
  1  2  1  0
  2  3  1  0
  3  4  2  0
  4  5  1  0
  5  6  1  0
  6  7  1  0
  7  8  1  6
  7  9  1  0
  9 10  1  0
 10 11  2  0
 10 12  1  0
 12 13  1  0
 13 14  2  0
 14 15  1  0
 14 16  1  0
 16 17  2  0
 17 18  1  0
 18 19  1  0
 19 20  1  0
 20 21  1  0
 21 22  1  0
  5 23  2  0
 23 24  1  0
 24 25  2  0
 25  3  1  0
 18 13  1  0
 22 17  1  0
M  END
>  <energy_score>  (2465) 
-72.673422

>  <alias>  (2465) 
None

>  <HIPPO Pose ID>  (2465) 
74934

>  <smiles>  (2465) 
COc1cc(C[C@H](C)NC(=O)Cc2c(C)nc3n2CCCC3)ccn1

>  <inchikey>  (2465) 
OPQDDJQZRNNOHV-ZDUSSCGKSA-N

>  <distance_score>  (2465) 
1.444339

>  <ref_mols>  (2465) 
Z0800a,Z1495a

>  <ref_pdb>  (2465) 
Z0800a

>  <HIPPO Compound ID>  (2465) 
149002

>  <name>  (2465) 
P74934

>  <inspiration_score>  (2465) 
None

$$$$
P74936
     RDKit          3D

 25 27  0  0  0  0  0  0  0  0999 V2000
   -9.2403    6.6923  -14.1957 C   0  0  0  0  0  0  0  0  0  0  0  0
   -8.4603    5.4019  -14.4215 C   0  0  0  0  0  0  0  0  0  0  0  0
   -7.1848    5.2588  -13.5484 C   0  0  2  0  0  0  0  0  0  0  0  0
   -6.3085    6.5082  -13.7581 C   0  0  0  0  0  0  0  0  0  0  0  0
   -6.3097    4.0334  -13.9991 C   0  0  0  0  0  0  0  0  0  0  0  0
   -5.7643    4.1912  -15.3243 N   0  0  0  0  0  0  0  0  0  0  0  0
   -4.4191    4.8144  -15.7950 C   0  0  0  0  0  0  0  0  0  0  0  0
   -3.5159    5.2238  -15.1752 O   0  0  0  0  0  0  0  0  0  0  0  0
   -4.4601    4.8973  -17.3323 C   0  0  0  0  0  0  0  0  0  0  0  0
   -5.6661    5.6393  -17.7978 C   0  0  0  0  0  0  0  0  0  0  0  0
   -5.9257    6.9938  -17.8090 C   0  0  0  0  0  0  0  0  0  0  0  0
   -5.0407    8.1194  -17.4342 C   0  0  0  0  0  0  0  0  0  0  0  0
   -7.2243    7.2259  -18.1944 N   0  0  0  0  0  0  0  0  0  0  0  0
   -7.7629    6.0531  -18.4445 C   0  0  0  0  0  0  0  0  0  0  0  0
   -6.8259    5.0980  -18.2723 N   0  0  0  0  0  0  0  0  0  0  0  0
   -7.2864    3.7544  -18.4173 C   0  0  0  0  0  0  0  0  0  0  0  0
   -8.5955    3.4759  -17.6358 C   0  0  0  0  0  0  0  0  0  0  0  0
   -9.6303    4.5644  -17.7554 C   0  0  0  0  0  0  0  0  0  0  0  0
   -9.1631    5.5750  -18.7625 C   0  0  0  0  0  0  0  0  0  0  0  0
   -7.5962    5.0566  -12.0804 C   0  0  0  0  0  0  0  0  0  0  0  0
   -8.1043    3.8245  -11.6384 C   0  0  0  0  0  0  0  0  0  0  0  0
   -8.4060    3.6510  -10.2943 C   0  0  0  0  0  0  0  0  0  0  0  0
   -8.2682    4.6188   -9.3636 N   0  0  0  0  0  0  0  0  0  0  0  0
   -7.8292    5.8106   -9.8050 C   0  0  0  0  0  0  0  0  0  0  0  0
   -7.4860    6.0728  -11.1223 C   0  0  0  0  0  0  0  0  0  0  0  0
  1  2  1  0
  3  2  1  0
  3  4  1  1
  3  5  1  0
  5  6  1  0
  6  7  1  0
  7  8  2  0
  7  9  1  0
  9 10  1  0
 10 11  2  0
 11 12  1  0
 11 13  1  0
 13 14  2  0
 14 15  1  0
 15 16  1  0
 16 17  1  0
 17 18  1  0
 18 19  1  0
  3 20  1  0
 20 21  2  0
 21 22  1  0
 22 23  2  0
 23 24  1  0
 24 25  2  0
 15 10  1  0
 25 20  1  0
 19 14  1  0
M  END
>  <energy_score>  (2466) 
-27.448088

>  <alias>  (2466) 
None

>  <HIPPO Pose ID>  (2466) 
74936

>  <smiles>  (2466) 
CC[C@](C)(CNC(=O)Cc1c(C)nc2n1CCCC2)c1ccncc1

>  <inchikey>  (2466) 
HCXOVPJKKWEMSZ-HXUWFJFHSA-N

>  <distance_score>  (2466) 
1.673328

>  <ref_mols>  (2466) 
Z1495a,Z0800a

>  <ref_pdb>  (2466) 
Z0800a

>  <HIPPO Compound ID>  (2466) 
149011

>  <name>  (2466) 
P74936

>  <inspiration_score>  (2466) 
None

$$$$
P74937
     RDKit          3D

 25 26  0  0  0  0  0  0  0  0999 V2000
   -3.8285    6.0000  -13.3993 C   0  0  0  0  0  0  0  0  0  0  0  0
   -5.0920    6.0451  -14.0596 O   0  0  0  0  0  0  0  0  0  0  0  0
   -5.9416    6.9980  -13.5905 C   0  0  0  0  0  0  0  0  0  0  0  0
   -5.6638    7.8132  -12.7153 O   0  0  0  0  0  0  0  0  0  0  0  0
   -7.3118    6.9450  -14.2801 C   0  0  2  0  0  0  0  0  0  0  0  0
   -8.4664    6.4724  -13.3839 C   0  0  0  0  0  0  0  0  0  0  0  0
   -8.1428    5.7530  -12.1016 C   0  0  0  0  0  0  0  0  0  0  0  0
   -8.1830    4.3609  -11.9908 C   0  0  0  0  0  0  0  0  0  0  0  0
   -7.9532    3.7819  -10.7501 C   0  0  0  0  0  0  0  0  0  0  0  0
   -7.6765    4.4901   -9.6317 N   0  0  0  0  0  0  0  0  0  0  0  0
   -7.6362    5.8294   -9.7623 C   0  0  0  0  0  0  0  0  0  0  0  0
   -7.8595    6.4965  -10.9533 C   0  0  0  0  0  0  0  0  0  0  0  0
   -7.3214    6.2034  -15.5231 N   0  0  0  0  0  0  0  0  0  0  0  0
   -7.4091    4.6811  -15.7837 C   0  0  0  0  0  0  0  0  0  0  0  0
   -7.5643    3.7952  -15.0413 O   0  0  0  0  0  0  0  0  0  0  0  0
   -7.2867    4.4605  -17.3221 C   0  0  2  0  0  0  0  0  0  0  0  0
   -5.9254    4.9493  -17.7288 C   0  0  0  0  0  0  0  0  0  0  0  0
   -4.7267    4.5815  -17.1370 C   0  0  0  0  0  0  0  0  0  0  0  0
   -3.6578    5.1638  -17.7360 N   0  0  0  0  0  0  0  0  0  0  0  0
   -4.1826    5.9050  -18.6765 C   0  0  0  0  0  0  0  0  0  0  0  0
   -5.5487    5.8650  -18.6714 N   0  0  0  0  0  0  0  0  0  0  0  0
   -6.3044    6.7703  -19.4886 C   0  0  0  0  0  0  0  0  0  0  0  0
   -8.4335    4.9972  -18.0889 N   0  0  0  0  0  0  0  0  0  0  0  0
   -8.5955    4.1853  -19.3105 C   0  0  0  0  0  0  0  0  0  0  0  0
   -9.7013    4.8795  -17.3583 C   0  0  0  0  0  0  0  0  0  0  0  0
  1  2  1  0
  2  3  1  0
  3  4  2  0
  3  5  1  0
  5  6  1  1
  6  7  1  0
  7  8  2  0
  8  9  1  0
  9 10  2  0
 10 11  1  0
 11 12  2  0
  5 13  1  0
 13 14  1  0
 14 15  2  0
 14 16  1  0
 16 17  1  0
 17 18  2  0
 18 19  1  0
 19 20  2  0
 20 21  1  0
 21 22  1  0
 16 23  1  6
 23 24  1  0
 23 25  1  0
 12  7  1  0
 21 17  1  0
M  END
>  <energy_score>  (2467) 
-27.793394

>  <alias>  (2467) 
None

>  <HIPPO Pose ID>  (2467) 
74937

>  <smiles>  (2467) 
COC(=O)[C@H](Cc1ccncc1)NC(=O)[C@H](c1cncn1C)N(C)C

>  <inchikey>  (2467) 
QMYUNCGNGJOMBB-ZFWWWQNUSA-N

>  <distance_score>  (2467) 
1.854837

>  <ref_mols>  (2467) 
Z1495a,Z0800a

>  <ref_pdb>  (2467) 
Z0800a

>  <HIPPO Compound ID>  (2467) 
149013

>  <name>  (2467) 
P74937

>  <inspiration_score>  (2467) 
None

$$$$
P74939
     RDKit          3D

 25 28  0  0  0  0  0  0  0  0999 V2000
   -9.1651    5.8477  -13.6901 O   0  0  0  0  0  0  0  0  0  0  0  0
   -8.1282    5.3852  -13.4072 C   0  0  0  0  0  0  0  0  0  0  0  0
   -7.1714    4.4722  -14.2314 N   0  0  0  0  0  0  0  0  0  0  0  0
   -7.3415    3.8681  -15.5302 C   0  0  0  0  0  0  0  0  0  0  0  0
   -7.8611    4.6661  -16.7775 C   0  0  0  0  0  0  0  0  0  0  0  0
   -6.8269    5.7437  -17.0995 C   0  0  0  0  0  0  0  0  0  0  0  0
   -5.9029    5.6400  -18.1520 C   0  0  0  0  0  0  0  0  0  0  0  0
   -4.8826    6.5656  -18.2577 C   0  0  0  0  0  0  0  0  0  0  0  0
   -4.7039    7.5838  -17.3971 N   0  0  0  0  0  0  0  0  0  0  0  0
   -5.6044    7.6946  -16.4049 C   0  0  0  0  0  0  0  0  0  0  0  0
   -6.6664    6.8231  -16.2286 C   0  0  0  0  0  0  0  0  0  0  0  0
   -9.3082    5.1103  -16.5186 C   0  0  0  0  0  0  0  0  0  0  0  0
  -10.2795    5.0041  -17.7085 C   0  0  0  0  0  0  0  0  0  0  0  0
   -9.5906    5.1704  -19.0290 C   0  0  0  0  0  0  0  0  0  0  0  0
   -8.5893    4.0778  -19.2244 C   0  0  0  0  0  0  0  0  0  0  0  0
   -7.9771    3.6470  -17.9133 C   0  0  0  0  0  0  0  0  0  0  0  0
   -7.4649    5.5311  -12.0271 C   0  0  1  0  0  0  0  0  0  0  0  0
   -7.7846    6.8880  -11.3909 C   0  0  0  0  0  0  0  0  0  0  0  0
   -7.2154    6.9349   -9.9714 C   0  0  0  0  0  0  0  0  0  0  0  0
   -7.7832    5.8303   -9.0785 C   0  0  0  0  0  0  0  0  0  0  0  0
   -8.0210    4.5924   -9.7777 N   0  0  0  0  0  0  0  0  0  0  0  0
   -8.4633    3.4314   -9.2273 C   0  0  0  0  0  0  0  0  0  0  0  0
   -8.6941    2.5398  -10.1575 N   0  0  0  0  0  0  0  0  0  0  0  0
   -8.3375    3.1284  -11.3402 C   0  0  0  0  0  0  0  0  0  0  0  0
   -7.9250    4.4254  -11.1355 C   0  0  0  0  0  0  0  0  0  0  0  0
  1  2  2  0
  2  3  1  0
  3  4  1  0
  4  5  1  0
  5  6  1  0
  6  7  2  0
  7  8  1  0
  8  9  2  0
  9 10  1  0
 10 11  2  0
  5 12  1  0
 12 13  1  0
 13 14  1  0
 14 15  1  0
 15 16  1  0
 17  2  1  6
 17 18  1  0
 18 19  1  0
 19 20  1  0
 20 21  1  0
 21 22  1  0
 22 23  2  0
 23 24  1  0
 24 25  2  0
 16  5  1  0
 25 17  1  0
 11  6  1  0
 25 21  1  0
M  END
>  <energy_score>  (2468) 
-17.108293

>  <alias>  (2468) 
None

>  <HIPPO Pose ID>  (2468) 
74939

>  <smiles>  (2468) 
O=C(NCC1(c2ccncc2)CCCCC1)[C@H]1CCCn2cncc21

>  <inchikey>  (2468) 
IBQFEVLFPDPLLS-KRWDZBQOSA-N

>  <distance_score>  (2468) 
1.431846

>  <ref_mols>  (2468) 
Z0800a,Z1495a

>  <ref_pdb>  (2468) 
Z0800a

>  <HIPPO Compound ID>  (2468) 
149021

>  <name>  (2468) 
P74939

>  <inspiration_score>  (2468) 
None

$$$$
P74941
     RDKit          3D

 25 27  0  0  0  0  0  0  0  0999 V2000
   -9.6825    5.0661  -17.4538 C   0  0  0  0  0  0  0  0  0  0  0  0
   -8.4855    5.3506  -18.3496 C   0  0  2  0  0  0  0  0  0  0  0  0
   -8.1490    4.0828  -19.1046 C   0  0  0  0  0  0  0  0  0  0  0  0
   -6.7958    4.2091  -19.7750 C   0  0  0  0  0  0  0  0  0  0  0  0
   -5.6749    4.4465  -18.7874 C   0  0  0  0  0  0  0  0  0  0  0  0
   -5.9915    5.5306  -17.9005 N   0  0  0  0  0  0  0  0  0  0  0  0
   -5.1461    6.2036  -17.0605 C   0  0  0  0  0  0  0  0  0  0  0  0
   -3.7409    5.8265  -16.6850 C   0  0  0  0  0  0  0  0  0  0  0  0
   -3.6705    5.8620  -15.1368 C   0  0  0  0  0  0  0  0  0  0  0  0
   -2.9585    6.5581  -14.5271 O   0  0  0  0  0  0  0  0  0  0  0  0
   -4.7817    4.8897  -14.6557 N   0  0  0  0  0  0  0  0  0  0  0  0
   -5.3066    4.6477  -13.3341 C   0  0  0  0  0  0  0  0  0  0  0  0
   -6.7244    5.2776  -13.2033 C   0  0  1  0  0  0  0  0  0  0  0  0
   -7.7984    4.8246  -14.2119 C   0  0  0  0  0  0  0  0  0  0  0  0
   -7.6152    3.4695  -14.8518 C   0  0  0  0  0  0  0  0  0  0  0  0
   -7.5528    2.4538  -13.8704 O   0  0  0  0  0  0  0  0  0  0  0  0
   -7.2689    5.1690  -11.7922 C   0  0  0  0  0  0  0  0  0  0  0  0
   -7.4574    3.9386  -11.1559 C   0  0  0  0  0  0  0  0  0  0  0  0
   -7.9766    3.9193   -9.8728 C   0  0  0  0  0  0  0  0  0  0  0  0
   -8.2863    5.0334   -9.1756 N   0  0  0  0  0  0  0  0  0  0  0  0
   -8.1112    6.2101   -9.8111 C   0  0  0  0  0  0  0  0  0  0  0  0
   -7.6240    6.3297  -11.1005 C   0  0  0  0  0  0  0  0  0  0  0  0
   -5.9519    7.1716  -16.5036 C   0  0  0  0  0  0  0  0  0  0  0  0
   -7.2553    6.9742  -16.8456 N   0  0  0  0  0  0  0  0  0  0  0  0
   -7.2802    5.9378  -17.6548 C   0  0  0  0  0  0  0  0  0  0  0  0
  2  1  1  1
  2  3  1  0
  3  4  1  0
  4  5  1  0
  5  6  1  0
  6  7  1  0
  7  8  1  0
  8  9  1  0
  9 10  2  0
  9 11  1  0
 11 12  1  0
 13 12  1  1
 13 14  1  0
 14 15  1  0
 15 16  1  0
 13 17  1  0
 17 18  2  0
 18 19  1  0
 19 20  2  0
 20 21  1  0
 21 22  2  0
  7 23  2  0
 23 24  1  0
 24 25  2  0
 25  2  1  0
 25  6  1  0
 22 17  1  0
M  END
>  <energy_score>  (2469) 
-33.182972

>  <alias>  (2469) 
None

>  <HIPPO Pose ID>  (2469) 
74941

>  <smiles>  (2469) 
C[C@@H]1CCCn2c(CC(=O)NC[C@@H](CCO)c3ccncc3)cnc21

>  <inchikey>  (2469) 
KFCPOSMZIOMBBR-GDBMZVCRSA-N

>  <distance_score>  (2469) 
1.55399

>  <ref_mols>  (2469) 
Z1495a,Z0800a

>  <ref_pdb>  (2469) 
Z0800a

>  <HIPPO Compound ID>  (2469) 
149023

>  <name>  (2469) 
P74941

>  <inspiration_score>  (2469) 
None

$$$$
P74943
     RDKit          3D

 25 27  0  0  0  0  0  0  0  0999 V2000
   -8.6404    2.5316   -8.3234 C   0  0  0  0  0  0  0  0  0  0  0  0
   -8.8844    2.5792   -9.7210 O   0  0  0  0  0  0  0  0  0  0  0  0
   -8.4516    3.7550  -10.2895 C   0  0  0  0  0  0  0  0  0  0  0  0
   -8.1835    3.6983  -11.6426 C   0  0  0  0  0  0  0  0  0  0  0  0
   -7.6664    4.8324  -12.2617 C   0  0  0  0  0  0  0  0  0  0  0  0
   -7.1278    4.7379  -13.6571 C   0  0  0  0  0  0  0  0  0  0  0  0
   -5.6479    4.2621  -13.6546 C   0  0  1  0  0  0  0  0  0  0  0  0
   -5.4695    2.7890  -13.3027 C   0  0  0  0  0  0  0  0  0  0  0  0
   -5.1011    4.5300  -14.9587 N   0  0  0  0  0  0  0  0  0  0  0  0
   -3.7452    5.1740  -15.3735 C   0  0  0  0  0  0  0  0  0  0  0  0
   -2.8364    5.5127  -14.7204 O   0  0  0  0  0  0  0  0  0  0  0  0
   -3.8091    5.4234  -16.8999 C   0  0  0  0  0  0  0  0  0  0  0  0
   -5.1548    5.9887  -17.2363 C   0  0  0  0  0  0  0  0  0  0  0  0
   -5.8656    7.0012  -16.6296 C   0  0  0  0  0  0  0  0  0  0  0  0
   -7.2014    6.8713  -16.8933 N   0  0  0  0  0  0  0  0  0  0  0  0
   -7.3186    5.8537  -17.7211 C   0  0  0  0  0  0  0  0  0  0  0  0
   -6.0729    5.4068  -18.0634 N   0  0  0  0  0  0  0  0  0  0  0  0
   -5.8860    4.2622  -18.9045 C   0  0  0  0  0  0  0  0  0  0  0  0
   -7.0078    4.1390  -19.8997 C   0  0  0  0  0  0  0  0  0  0  0  0
   -8.3712    4.0991  -19.2398 C   0  0  0  0  0  0  0  0  0  0  0  0
   -8.5857    5.2240  -18.2412 C   0  0  1  0  0  0  0  0  0  0  0  0
   -9.4294    4.6758  -17.0991 C   0  0  0  0  0  0  0  0  0  0  0  0
   -7.5408    6.0068  -11.5183 C   0  0  0  0  0  0  0  0  0  0  0  0
   -7.8817    5.9745  -10.1763 C   0  0  0  0  0  0  0  0  0  0  0  0
   -8.3112    4.8685   -9.5361 N   0  0  0  0  0  0  0  0  0  0  0  0
  1  2  1  0
  2  3  1  0
  3  4  2  0
  4  5  1  0
  5  6  1  0
  6  7  1  0
  7  8  1  6
  7  9  1  0
  9 10  1  0
 10 11  2  0
 10 12  1  0
 12 13  1  0
 13 14  2  0
 14 15  1  0
 15 16  2  0
 16 17  1  0
 17 18  1  0
 18 19  1  0
 19 20  1  0
 20 21  1  0
 21 22  1  1
  5 23  2  0
 23 24  1  0
 24 25  2  0
 25  3  1  0
 17 13  1  0
 21 16  1  0
M  END
>  <energy_score>  (2470) 
-11.464986

>  <alias>  (2470) 
None

>  <HIPPO Pose ID>  (2470) 
74943

>  <smiles>  (2470) 
COc1cc(C[C@@H](C)NC(=O)Cc2cnc3n2CCC[C@H]3C)ccn1

>  <inchikey>  (2470) 
BORNHGIQTDDULX-ZIAGYGMSSA-N

>  <distance_score>  (2470) 
1.721066

>  <ref_mols>  (2470) 
Z0800a,Z1495a

>  <ref_pdb>  (2470) 
Z0800a

>  <HIPPO Compound ID>  (2470) 
149024

>  <name>  (2470) 
P74943

>  <inspiration_score>  (2470) 
None

$$$$
P74946
     RDKit          3D

 25 27  0  0  0  0  0  0  0  0999 V2000
   -8.5549    2.4888  -11.6938 C   0  0  0  0  0  0  0  0  0  0  0  0
   -8.3181    3.4091  -10.6311 N   0  0  0  0  0  0  0  0  0  0  0  0
   -8.4879    3.0979   -9.3077 C   0  0  0  0  0  0  0  0  0  0  0  0
   -8.3032    4.1506   -8.5474 N   0  0  0  0  0  0  0  0  0  0  0  0
   -7.9995    5.1324   -9.4218 C   0  0  0  0  0  0  0  0  0  0  0  0
   -7.9637    4.7250  -10.7275 C   0  0  0  0  0  0  0  0  0  0  0  0
   -7.5066    5.6139  -11.8435 C   0  0  1  0  0  0  0  0  0  0  0  0
   -8.2109    5.3798  -13.1928 C   0  0  0  0  0  0  0  0  0  0  0  0
   -9.2559    5.8275  -13.4576 O   0  0  0  0  0  0  0  0  0  0  0  0
   -7.2737    4.4605  -14.0182 N   0  0  0  0  0  0  0  0  0  0  0  0
   -7.4730    3.8277  -15.2986 C   0  0  0  0  0  0  0  0  0  0  0  0
   -7.9566    4.7526  -16.4445 C   0  0  2  0  0  0  0  0  0  0  0  0
   -8.9863    4.0020  -17.3008 C   0  0  0  0  0  0  0  0  0  0  0  0
   -9.5276    4.7667  -18.4980 C   0  0  0  0  0  0  0  0  0  0  0  0
  -10.9324    4.6018  -18.5439 O   0  0  0  0  0  0  0  0  0  0  0  0
   -6.7355    5.3040  -17.1453 C   0  0  0  0  0  0  0  0  0  0  0  0
   -6.2561    4.8453  -18.3690 C   0  0  0  0  0  0  0  0  0  0  0  0
   -5.0618    5.3593  -18.8409 C   0  0  0  0  0  0  0  0  0  0  0  0
   -4.3158    6.2745  -18.1860 N   0  0  0  0  0  0  0  0  0  0  0  0
   -4.8047    6.7271  -17.0195 C   0  0  0  0  0  0  0  0  0  0  0  0
   -5.9922    6.2806  -16.4709 C   0  0  0  0  0  0  0  0  0  0  0  0
   -7.7533    7.0729  -11.4264 C   0  0  0  0  0  0  0  0  0  0  0  0
   -7.3990    7.3626   -9.9758 C   0  0  0  0  0  0  0  0  0  0  0  0
   -6.9396    8.4541   -9.6390 O   0  0  0  0  0  0  0  0  0  0  0  0
   -7.6824    6.3970   -9.0519 N   0  0  0  0  0  0  0  0  0  0  0  0
  1  2  1  0
  2  3  1  0
  3  4  2  0
  4  5  1  0
  5  6  2  0
  6  7  1  0
  7  8  1  6
  8  9  2  0
  8 10  1  0
 10 11  1  0
 12 11  1  1
 12 13  1  0
 13 14  1  0
 14 15  1  0
 12 16  1  0
 16 17  2  0
 17 18  1  0
 18 19  2  0
 19 20  1  0
 20 21  2  0
  7 22  1  0
 22 23  1  0
 23 24  2  0
 23 25  1  0
  6  2  1  0
 21 16  1  0
 25  5  1  0
M  END
>  <energy_score>  (2471) 
-15.94804

>  <alias>  (2471) 
None

>  <HIPPO Pose ID>  (2471) 
74946

>  <smiles>  (2471) 
Cn1cnc2c1[C@@H](C(=O)NC[C@H](CCO)c1ccncc1)CC(=O)N2

>  <inchikey>  (2471) 
NNORNOBRCBQTCA-STQMWFEESA-N

>  <distance_score>  (2471) 
1.724018

>  <ref_mols>  (2471) 
Z1495a,Z0800a

>  <ref_pdb>  (2471) 
Z0800a

>  <HIPPO Compound ID>  (2471) 
149026

>  <name>  (2471) 
P74946

>  <inspiration_score>  (2471) 
None

$$$$
P74947
     RDKit          3D

 25 27  0  0  0  0  0  0  0  0999 V2000
   -4.7733    1.6987  -11.5839 C   0  0  0  0  0  0  0  0  0  0  0  0
   -4.9206    2.9555  -12.2520 O   0  0  0  0  0  0  0  0  0  0  0  0
   -5.6823    2.9089  -13.3853 C   0  0  0  0  0  0  0  0  0  0  0  0
   -6.1837    1.8896  -13.8404 O   0  0  0  0  0  0  0  0  0  0  0  0
   -5.8648    4.3264  -13.9515 C   0  0  2  0  0  0  0  0  0  0  0  0
   -7.3564    4.7343  -13.8552 C   0  0  0  0  0  0  0  0  0  0  0  0
   -7.7676    4.9541  -12.4228 C   0  0  0  0  0  0  0  0  0  0  0  0
   -7.6650    6.2161  -11.8352 C   0  0  0  0  0  0  0  0  0  0  0  0
   -7.8959    6.3310  -10.4746 C   0  0  0  0  0  0  0  0  0  0  0  0
   -8.1981    5.2908   -9.6739 N   0  0  0  0  0  0  0  0  0  0  0  0
   -8.3242    4.0818  -10.2676 C   0  0  0  0  0  0  0  0  0  0  0  0
   -8.6983    2.6005   -9.1593 Br  0  0  0  0  0  0  0  0  0  0  0  0
   -8.1420    3.8703  -11.6242 C   0  0  0  0  0  0  0  0  0  0  0  0
   -5.3900    4.5229  -15.3130 N   0  0  0  0  0  0  0  0  0  0  0  0
   -3.9564    4.5513  -15.8794 C   0  0  0  0  0  0  0  0  0  0  0  0
   -2.9344    4.3451  -15.3586 O   0  0  0  0  0  0  0  0  0  0  0  0
   -3.9277    5.0338  -17.3525 C   0  0  0  0  0  0  0  0  0  0  0  0
   -5.1831    5.8372  -17.8049 C   0  0  0  0  0  0  0  0  0  0  0  0
   -5.4547    7.1104  -17.3740 C   0  0  0  0  0  0  0  0  0  0  0  0
   -6.7087    7.4734  -17.7520 N   0  0  0  0  0  0  0  0  0  0  0  0
   -7.1730    6.4587  -18.4458 C   0  0  0  0  0  0  0  0  0  0  0  0
   -6.2657    5.4567  -18.5353 N   0  0  0  0  0  0  0  0  0  0  0  0
   -6.5333    4.2098  -19.1787 C   0  0  0  0  0  0  0  0  0  0  0  0
   -2.6019    5.6731  -17.8077 C   0  0  0  0  0  0  0  0  0  0  0  0
   -3.0782    4.4045  -18.4265 C   0  0  0  0  0  0  0  0  0  0  0  0
  1  2  1  0
  2  3  1  0
  3  4  2  0
  3  5  1  0
  5  6  1  6
  6  7  1  0
  7  8  2  0
  8  9  1  0
  9 10  2  0
 10 11  1  0
 11 12  1  0
 11 13  2  0
  5 14  1  0
 14 15  1  0
 15 16  2  0
 15 17  1  0
 17 18  1  0
 18 19  2  0
 19 20  1  0
 20 21  2  0
 21 22  1  0
 22 23  1  0
 17 24  1  0
 24 25  1  0
 13  7  1  0
 25 17  1  0
 22 18  1  0
M  END
>  <energy_score>  (2472) 
-9.905664

>  <alias>  (2472) 
None

>  <HIPPO Pose ID>  (2472) 
74947

>  <smiles>  (2472) 
COC(=O)[C@H](Cc1ccnc(Br)c1)NC(=O)C1(c2cncn2C)CC1

>  <inchikey>  (2472) 
TVEOFIIGMURWSG-LBPRGKRZSA-N

>  <distance_score>  (2472) 
1.927963

>  <ref_mols>  (2472) 
Z0800a,Z1495a

>  <ref_pdb>  (2472) 
Z0800a

>  <HIPPO Compound ID>  (2472) 
149034

>  <name>  (2472) 
P74947

>  <inspiration_score>  (2472) 
None

$$$$
P74948
     RDKit          3D

 25 27  0  0  0  0  0  0  0  0999 V2000
  -10.2151    5.2611  -19.0874 C   0  0  0  0  0  0  0  0  0  0  0  0
   -8.9118    4.8313  -18.4960 C   0  0  2  0  0  0  0  0  0  0  0  0
   -9.2723    4.4863  -17.0553 C   0  0  0  0  0  0  0  0  0  0  0  0
   -8.1826    3.5880  -16.5785 C   0  0  0  0  0  0  0  0  0  0  0  0
   -6.7554    4.0208  -16.9456 C   0  0  0  0  0  0  0  0  0  0  0  0
   -6.6635    5.3009  -17.5822 N   0  0  0  0  0  0  0  0  0  0  0  0
   -5.6581    6.2240  -17.5622 C   0  0  0  0  0  0  0  0  0  0  0  0
   -4.4037    6.1859  -16.7577 C   0  0  0  0  0  0  0  0  0  0  0  0
   -4.6618    6.9573  -15.4509 C   0  0  0  0  0  0  0  0  0  0  0  0
   -4.6377    8.1227  -15.3827 O   0  0  0  0  0  0  0  0  0  0  0  0
   -5.0346    5.8956  -14.3831 N   0  0  0  0  0  0  0  0  0  0  0  0
   -5.5446    6.0537  -13.0453 C   0  0  0  0  0  0  0  0  0  0  0  0
   -7.1068    6.1668  -13.0072 C   0  0  0  0  0  0  0  0  0  0  0  0
   -7.5121    7.6382  -13.2521 C   0  0  0  0  0  0  0  0  0  0  0  0
   -7.7593    5.3840  -14.1403 C   0  0  0  0  0  0  0  0  0  0  0  0
   -7.5813    5.6021  -11.6588 C   0  0  0  0  0  0  0  0  0  0  0  0
   -7.7632    4.1531  -11.5183 C   0  0  0  0  0  0  0  0  0  0  0  0
   -8.1248    3.6138  -10.3500 C   0  0  0  0  0  0  0  0  0  0  0  0
   -8.3121    4.4104   -9.2568 N   0  0  0  0  0  0  0  0  0  0  0  0
   -8.1663    5.7719   -9.2711 C   0  0  0  0  0  0  0  0  0  0  0  0
   -8.3109    6.4621   -8.2679 O   0  0  0  0  0  0  0  0  0  0  0  0
   -7.7995    6.3753  -10.5775 C   0  0  0  0  0  0  0  0  0  0  0  0
   -6.1327    7.2061  -18.3964 C   0  0  0  0  0  0  0  0  0  0  0  0
   -7.3782    6.8994  -18.8751 N   0  0  0  0  0  0  0  0  0  0  0  0
   -7.6882    5.7194  -18.3988 C   0  0  0  0  0  0  0  0  0  0  0  0
  2  1  1  1
  2  3  1  0
  3  4  1  0
  4  5  1  0
  5  6  1  0
  6  7  1  0
  7  8  1  0
  8  9  1  0
  9 10  2  0
  9 11  1  0
 11 12  1  0
 12 13  1  0
 13 14  1  0
 13 15  1  0
 13 16  1  0
 16 17  1  0
 17 18  2  0
 18 19  1  0
 19 20  1  0
 20 21  2  0
 20 22  1  0
  7 23  2  0
 23 24  1  0
 24 25  2  0
 25  2  1  0
 25  6  1  0
 22 16  2  0
M  END
>  <energy_score>  (2473) 
-4.292698

>  <alias>  (2473) 
None

>  <HIPPO Pose ID>  (2473) 
74948

>  <smiles>  (2473) 
C[C@@H]1CCCn2c(CC(=O)NCC(C)(C)c3cc[nH]c(=O)c3)cnc21

>  <inchikey>  (2473) 
OXNAKRGOUDXBIJ-CYBMUJFWSA-N

>  <distance_score>  (2473) 
1.732839

>  <ref_mols>  (2473) 
Z0800a,Z1495a

>  <ref_pdb>  (2473) 
Z0800a

>  <HIPPO Compound ID>  (2473) 
149041

>  <name>  (2473) 
P74948

>  <inspiration_score>  (2473) 
None

$$$$
P74950
     RDKit          3D

 25 27  0  0  0  0  0  0  0  0999 V2000
   -9.5358    4.8963  -17.1893 C   0  0  0  0  0  0  0  0  0  0  0  0
   -8.5891    5.2890  -18.3089 C   0  0  2  0  0  0  0  0  0  0  0  0
   -8.3608    4.0651  -19.1828 C   0  0  0  0  0  0  0  0  0  0  0  0
   -7.0035    4.0985  -19.8578 C   0  0  0  0  0  0  0  0  0  0  0  0
   -5.8879    4.2440  -18.8519 C   0  0  0  0  0  0  0  0  0  0  0  0
   -6.0781    5.4348  -18.0766 N   0  0  0  0  0  0  0  0  0  0  0  0
   -5.1600    6.1198  -17.3355 C   0  0  0  0  0  0  0  0  0  0  0  0
   -3.8392    5.5876  -16.8989 C   0  0  0  0  0  0  0  0  0  0  0  0
   -4.0348    4.5163  -15.7876 C   0  0  0  0  0  0  0  0  0  0  0  0
   -3.3626    3.5611  -15.7347 O   0  0  0  0  0  0  0  0  0  0  0  0
   -5.1918    4.9869  -14.8600 N   0  0  0  0  0  0  0  0  0  0  0  0
   -5.8214    4.3282  -13.7307 C   0  0  1  0  0  0  0  0  0  0  0  0
   -4.9094    4.5463  -12.5014 C   0  0  0  0  0  0  0  0  0  0  0  0
   -4.6836    5.9327  -12.2362 O   0  0  0  0  0  0  0  0  0  0  0  0
   -7.3192    4.8204  -13.6178 C   0  0  2  0  0  0  0  0  0  0  0  0
   -7.5092    6.1403  -14.1642 O   0  0  0  0  0  0  0  0  0  0  0  0
   -7.8179    4.7983  -12.1955 C   0  0  0  0  0  0  0  0  0  0  0  0
   -8.1856    3.5888  -11.6000 C   0  0  0  0  0  0  0  0  0  0  0  0
   -8.4457    3.5724  -10.2385 C   0  0  0  0  0  0  0  0  0  0  0  0
   -8.3698    4.6645   -9.4436 N   0  0  0  0  0  0  0  0  0  0  0  0
   -8.0582    5.8294  -10.0473 C   0  0  0  0  0  0  0  0  0  0  0  0
   -7.7848    5.9476  -11.3975 C   0  0  0  0  0  0  0  0  0  0  0  0
   -5.8533    7.2296  -16.9138 C   0  0  0  0  0  0  0  0  0  0  0  0
   -7.1944    7.0109  -17.0625 N   0  0  0  0  0  0  0  0  0  0  0  0
   -7.3217    5.9196  -17.7888 C   0  0  0  0  0  0  0  0  0  0  0  0
  2  1  1  1
  2  3  1  0
  3  4  1  0
  4  5  1  0
  5  6  1  0
  6  7  1  0
  7  8  1  0
  8  9  1  0
  9 10  2  0
  9 11  1  0
 11 12  1  0
 12 13  1  1
 13 14  1  0
 12 15  1  0
 15 16  1  1
 15 17  1  0
 17 18  2  0
 18 19  1  0
 19 20  2  0
 20 21  1  0
 21 22  2  0
  7 23  2  0
 23 24  1  0
 24 25  2  0
 25  2  1  0
 25  6  1  0
 22 17  1  0
M  END
>  <energy_score>  (2474) 
-11.295275

>  <alias>  (2474) 
None

>  <HIPPO Pose ID>  (2474) 
74950

>  <smiles>  (2474) 
C[C@@H]1CCCn2c(CC(=O)N[C@@H](CO)[C@H](O)c3ccncc3)cnc21

>  <inchikey>  (2474) 
RASFTJMPQPYOJR-ISTRZQFTSA-N

>  <distance_score>  (2474) 
1.583453

>  <ref_mols>  (2474) 
Z1495a,Z0800a

>  <ref_pdb>  (2474) 
Z0800a

>  <HIPPO Compound ID>  (2474) 
149042

>  <name>  (2474) 
P74950

>  <inspiration_score>  (2474) 
None

$$$$
P74954
     RDKit          3D

 25 27  0  0  0  0  0  0  0  0999 V2000
   -4.8677    1.2320  -10.8987 C   0  0  0  0  0  0  0  0  0  0  0  0
   -4.6947    2.0481  -12.1659 C   0  0  0  0  0  0  0  0  0  0  0  0
   -5.9931    2.4503  -12.6171 O   0  0  0  0  0  0  0  0  0  0  0  0
   -6.0133    3.4336  -13.5624 C   0  0  0  0  0  0  0  0  0  0  0  0
   -5.0197    3.9245  -14.0821 O   0  0  0  0  0  0  0  0  0  0  0  0
   -7.4650    3.8081  -13.8775 C   0  0  1  0  0  0  0  0  0  0  0  0
   -7.8785    5.0778  -13.1398 C   0  0  0  0  0  0  0  0  0  0  0  0
   -7.9521    4.9954  -11.6453 C   0  0  0  0  0  0  0  0  0  0  0  0
   -8.2746    3.8214  -10.9635 C   0  0  0  0  0  0  0  0  0  0  0  0
   -8.3381    3.8558   -9.5825 C   0  0  0  0  0  0  0  0  0  0  0  0
   -8.1329    4.9720   -8.8493 N   0  0  0  0  0  0  0  0  0  0  0  0
   -7.8497    6.0999   -9.5297 C   0  0  0  0  0  0  0  0  0  0  0  0
   -7.7528    6.1640  -10.9063 C   0  0  0  0  0  0  0  0  0  0  0  0
   -7.6444    3.9986  -15.2979 N   0  0  0  0  0  0  0  0  0  0  0  0
   -7.8835    5.2757  -16.1083 C   0  0  0  0  0  0  0  0  0  0  0  0
   -8.0515    6.3723  -15.7569 O   0  0  0  0  0  0  0  0  0  0  0  0
   -7.8158    4.9735  -17.5690 C   0  0  0  0  0  0  0  0  0  0  0  0
   -6.3573    5.1566  -18.1015 C   0  0  0  0  0  0  0  0  0  0  0  0
   -5.2529    4.5433  -17.5458 C   0  0  0  0  0  0  0  0  0  0  0  0
   -4.1017    4.8855  -18.1919 N   0  0  0  0  0  0  0  0  0  0  0  0
   -4.4888    5.7513  -19.0932 C   0  0  0  0  0  0  0  0  0  0  0  0
   -5.8226    6.0204  -19.0035 N   0  0  0  0  0  0  0  0  0  0  0  0
   -6.3980    7.1970  -19.5779 C   0  0  0  0  0  0  0  0  0  0  0  0
   -9.0815    5.1977  -18.3642 C   0  0  0  0  0  0  0  0  0  0  0  0
   -8.5934    3.8133  -18.1728 C   0  0  0  0  0  0  0  0  0  0  0  0
  1  2  1  0
  2  3  1  0
  3  4  1  0
  4  5  2  0
  4  6  1  0
  6  7  1  1
  7  8  1  0
  8  9  2  0
  9 10  1  0
 10 11  2  0
 11 12  1  0
 12 13  2  0
  6 14  1  0
 14 15  1  0
 15 16  2  0
 15 17  1  0
 17 18  1  0
 18 19  2  0
 19 20  1  0
 20 21  2  0
 21 22  1  0
 22 23  1  0
 17 24  1  0
 24 25  1  0
 13  8  1  0
 25 17  1  0
 22 18  1  0
M  END
>  <energy_score>  (2475) 
-15.778377

>  <alias>  (2475) 
None

>  <HIPPO Pose ID>  (2475) 
74954

>  <smiles>  (2475) 
CCOC(=O)[C@@H](Cc1ccncc1)NC(=O)C1(c2cncn2C)CC1

>  <inchikey>  (2475) 
XTBFNQMMXQXRTA-CQSZACIVSA-N

>  <distance_score>  (2475) 
1.845334

>  <ref_mols>  (2475) 
Z1495a,Z0800a

>  <ref_pdb>  (2475) 
Z0800a

>  <HIPPO Compound ID>  (2475) 
149043

>  <name>  (2475) 
P74954

>  <inspiration_score>  (2475) 
None

$$$$
P74955
     RDKit          3D

 25 27  0  0  0  0  0  0  0  0999 V2000
   -7.4238    8.6501  -13.4612 C   0  0  0  0  0  0  0  0  0  0  0  0
   -8.0649    7.2957  -13.7672 C   0  0  0  0  0  0  0  0  0  0  0  0
   -7.2903    6.0057  -13.3362 C   0  0  1  0  0  0  0  0  0  0  0  0
   -7.6345    4.9327  -14.3992 C   0  0  0  0  0  0  0  0  0  0  0  0
   -5.7449    6.2485  -13.2640 C   0  0  0  0  0  0  0  0  0  0  0  0
   -5.1128    6.4379  -14.5425 N   0  0  0  0  0  0  0  0  0  0  0  0
   -3.6076    6.6090  -14.9119 C   0  0  0  0  0  0  0  0  0  0  0  0
   -2.6646    6.6991  -14.2255 O   0  0  0  0  0  0  0  0  0  0  0  0
   -3.4965    6.5342  -16.4618 C   0  0  0  0  0  0  0  0  0  0  0  0
   -4.3570    5.4218  -16.9781 C   0  0  0  0  0  0  0  0  0  0  0  0
   -4.7650    4.2759  -16.3284 C   0  0  0  0  0  0  0  0  0  0  0  0
   -5.9857    3.8920  -16.7973 N   0  0  0  0  0  0  0  0  0  0  0  0
   -6.1829    4.5695  -17.8947 C   0  0  0  0  0  0  0  0  0  0  0  0
   -5.1222    5.4276  -18.1102 N   0  0  0  0  0  0  0  0  0  0  0  0
   -5.1628    6.3912  -19.1834 C   0  0  0  0  0  0  0  0  0  0  0  0
   -6.4978    7.1183  -19.1658 C   0  0  0  0  0  0  0  0  0  0  0  0
   -7.6561    6.2518  -18.6197 C   0  0  0  0  0  0  0  0  0  0  0  0
   -7.4386    4.7434  -18.6787 C   0  0  2  0  0  0  0  0  0  0  0  0
   -8.6875    4.0730  -18.0941 C   0  0  0  0  0  0  0  0  0  0  0  0
   -7.7137    5.5096  -11.9366 C   0  0  0  0  0  0  0  0  0  0  0  0
   -7.9749    4.1552  -11.6584 C   0  0  0  0  0  0  0  0  0  0  0  0
   -8.2447    3.7586  -10.3544 C   0  0  0  0  0  0  0  0  0  0  0  0
   -8.2664    4.6063   -9.3054 N   0  0  0  0  0  0  0  0  0  0  0  0
   -8.0366    5.9009   -9.5823 C   0  0  0  0  0  0  0  0  0  0  0  0
   -7.7639    6.3898  -10.8502 C   0  0  0  0  0  0  0  0  0  0  0  0
  1  2  1  0
  3  2  1  0
  3  4  1  6
  3  5  1  0
  5  6  1  0
  6  7  1  0
  7  8  2  0
  7  9  1  0
  9 10  1  0
 10 11  2  0
 11 12  1  0
 12 13  2  0
 13 14  1  0
 14 15  1  0
 15 16  1  0
 16 17  1  0
 17 18  1  0
 18 19  1  1
  3 20  1  0
 20 21  2  0
 21 22  1  0
 22 23  2  0
 23 24  1  0
 24 25  2  0
 14 10  1  0
 25 20  1  0
 18 13  1  0
M  END
>  <energy_score>  (2476) 
-6.519383

>  <alias>  (2476) 
None

>  <HIPPO Pose ID>  (2476) 
74955

>  <smiles>  (2476) 
CC[C@@](C)(CNC(=O)Cc1cnc2n1CCC[C@@H]2C)c1ccncc1

>  <inchikey>  (2476) 
VEPUZWYMIDGISP-YWZLYKJASA-N

>  <distance_score>  (2476) 
1.504333

>  <ref_mols>  (2476) 
Z1495a,Z0800a

>  <ref_pdb>  (2476) 
Z0800a

>  <HIPPO Compound ID>  (2476) 
149044

>  <name>  (2476) 
P74955

>  <inspiration_score>  (2476) 
None

$$$$
P74957
     RDKit          3D

 25 27  0  0  0  0  0  0  0  0999 V2000
   -9.8020    5.0961  -19.2815 C   0  0  0  0  0  0  0  0  0  0  0  0
   -8.8198    4.0482  -18.8037 C   0  0  2  0  0  0  0  0  0  0  0  0
   -9.3825    3.5640  -17.4796 C   0  0  0  0  0  0  0  0  0  0  0  0
   -8.9438    4.4324  -16.3254 C   0  0  0  0  0  0  0  0  0  0  0  0
   -7.4358    4.4535  -16.2652 C   0  0  0  0  0  0  0  0  0  0  0  0
   -6.8209    4.8687  -17.4871 N   0  0  0  0  0  0  0  0  0  0  0  0
   -5.6303    5.5285  -17.6878 C   0  0  0  0  0  0  0  0  0  0  0  0
   -4.6974    6.1159  -16.6717 C   0  0  0  0  0  0  0  0  0  0  0  0
   -5.4391    6.8969  -15.5723 C   0  0  0  0  0  0  0  0  0  0  0  0
   -6.0732    7.8549  -15.7876 O   0  0  0  0  0  0  0  0  0  0  0  0
   -5.2381    6.0963  -14.2520 N   0  0  0  0  0  0  0  0  0  0  0  0
   -5.8543    6.2588  -12.9501 C   0  0  0  0  0  0  0  0  0  0  0  0
   -7.1652    5.3997  -12.7928 C   0  0  0  0  0  0  0  0  0  0  0  0
   -8.3374    6.1019  -13.5225 C   0  0  0  0  0  0  0  0  0  0  0  0
   -6.8442    3.9545  -13.2751 C   0  0  0  0  0  0  0  0  0  0  0  0
   -7.6166    5.2976  -11.3289 C   0  0  0  0  0  0  0  0  0  0  0  0
   -7.4361    6.3745  -10.4518 C   0  0  0  0  0  0  0  0  0  0  0  0
   -7.7774    6.2222   -9.1174 C   0  0  0  0  0  0  0  0  0  0  0  0
   -8.2813    5.0892   -8.5899 N   0  0  0  0  0  0  0  0  0  0  0  0
   -8.5118    4.0756   -9.4547 C   0  0  0  0  0  0  0  0  0  0  0  0
   -8.2303    4.1470  -10.8038 C   0  0  0  0  0  0  0  0  0  0  0  0
   -8.5637    3.1006  -11.5679 F   0  0  0  0  0  0  0  0  0  0  0  0
   -5.4968    5.4799  -19.0551 C   0  0  0  0  0  0  0  0  0  0  0  0
   -6.5686    4.8704  -19.6427 N   0  0  0  0  0  0  0  0  0  0  0  0
   -7.4123    4.5851  -18.6867 C   0  0  0  0  0  0  0  0  0  0  0  0
  2  1  1  1
  2  3  1  0
  3  4  1  0
  4  5  1  0
  5  6  1  0
  6  7  1  0
  7  8  1  0
  8  9  1  0
  9 10  2  0
  9 11  1  0
 11 12  1  0
 12 13  1  0
 13 14  1  0
 13 15  1  0
 13 16  1  0
 16 17  2  0
 17 18  1  0
 18 19  2  0
 19 20  1  0
 20 21  2  0
 21 22  1  0
  7 23  2  0
 23 24  1  0
 24 25  2  0
 25  2  1  0
 25  6  1  0
 21 16  1  0
M  END
>  <energy_score>  (2477) 
-7.057633

>  <alias>  (2477) 
None

>  <HIPPO Pose ID>  (2477) 
74957

>  <smiles>  (2477) 
C[C@@H]1CCCn2c(CC(=O)NCC(C)(C)c3ccncc3F)cnc21

>  <inchikey>  (2477) 
ASOHDZNCFIEVOG-CYBMUJFWSA-N

>  <distance_score>  (2477) 
1.918568

>  <ref_mols>  (2477) 
Z0800a,Z1495a

>  <ref_pdb>  (2477) 
Z0800a

>  <HIPPO Compound ID>  (2477) 
149047

>  <name>  (2477) 
P74957

>  <inspiration_score>  (2477) 
None

$$$$
P74958
     RDKit          3D

 25 27  0  0  0  0  0  0  0  0999 V2000
   -5.3735    0.6883  -10.2784 C   0  0  0  0  0  0  0  0  0  0  0  0
   -4.7648    1.7597  -11.1574 C   0  0  0  0  0  0  0  0  0  0  0  0
   -5.7290    2.1809  -12.1344 O   0  0  0  0  0  0  0  0  0  0  0  0
   -5.3994    3.3497  -12.7644 C   0  0  0  0  0  0  0  0  0  0  0  0
   -4.3669    3.9727  -12.5533 O   0  0  0  0  0  0  0  0  0  0  0  0
   -6.4865    3.7278  -13.7927 C   0  0  1  0  0  0  0  0  0  0  0  0
   -7.3098    4.9650  -13.4135 C   0  0  0  0  0  0  0  0  0  0  0  0
   -7.7553    4.9730  -11.9782 C   0  0  0  0  0  0  0  0  0  0  0  0
   -8.2915    3.8361  -11.3689 C   0  0  0  0  0  0  0  0  0  0  0  0
   -8.5286    3.8667  -10.0056 C   0  0  0  0  0  0  0  0  0  0  0  0
   -8.3151    4.9537   -9.2309 N   0  0  0  0  0  0  0  0  0  0  0  0
   -7.8626    6.0605   -9.8544 C   0  0  0  0  0  0  0  0  0  0  0  0
   -7.5730    6.1212  -11.2058 C   0  0  0  0  0  0  0  0  0  0  0  0
   -5.8654    3.9169  -15.0851 N   0  0  0  0  0  0  0  0  0  0  0  0
   -4.7418    4.8878  -15.5292 C   0  0  0  0  0  0  0  0  0  0  0  0
   -4.0924    5.6291  -14.9043 O   0  0  0  0  0  0  0  0  0  0  0  0
   -4.5709    4.7094  -17.0287 C   0  0  0  0  0  0  0  0  0  0  0  0
   -5.3585    5.7465  -17.6993 C   0  0  0  0  0  0  0  0  0  0  0  0
   -5.0301    7.0725  -17.8800 C   0  0  0  0  0  0  0  0  0  0  0  0
   -6.0335    7.7433  -18.5050 N   0  0  0  0  0  0  0  0  0  0  0  0
   -6.9373    6.8229  -18.7409 C   0  0  0  0  0  0  0  0  0  0  0  0
   -6.6165    5.6223  -18.2158 N   0  0  0  0  0  0  0  0  0  0  0  0
   -7.5087    4.4471  -18.2334 C   0  0  0  0  0  0  0  0  0  0  0  0
   -8.5826    4.2467  -17.1862 C   0  0  0  0  0  0  0  0  0  0  0  0
   -8.9794    4.4892  -18.6049 C   0  0  0  0  0  0  0  0  0  0  0  0
  1  2  1  0
  2  3  1  0
  3  4  1  0
  4  5  2  0
  4  6  1  0
  6  7  1  1
  7  8  1  0
  8  9  2  0
  9 10  1  0
 10 11  2  0
 11 12  1  0
 12 13  2  0
  6 14  1  0
 14 15  1  0
 15 16  2  0
 15 17  1  0
 17 18  1  0
 18 19  2  0
 19 20  1  0
 20 21  2  0
 21 22  1  0
 22 23  1  0
 23 24  1  0
 24 25  1  0
 13  8  1  0
 22 18  1  0
 25 23  1  0
M  END
>  <energy_score>  (2478) 
-16.85017

>  <alias>  (2478) 
None

>  <HIPPO Pose ID>  (2478) 
74958

>  <smiles>  (2478) 
CCOC(=O)[C@@H](Cc1ccncc1)NC(=O)Cc1cncn1C1CC1

>  <inchikey>  (2478) 
AXEHENXUSMRDDR-MRXNPFEDSA-N

>  <distance_score>  (2478) 
1.740863

>  <ref_mols>  (2478) 
Z1495a,Z0800a

>  <ref_pdb>  (2478) 
Z0800a

>  <HIPPO Compound ID>  (2478) 
149048

>  <name>  (2478) 
P74958

>  <inspiration_score>  (2478) 
None

$$$$
P74959
     RDKit          3D

 25 27  0  0  0  0  0  0  0  0999 V2000
  -10.1592    4.3001  -18.0473 C   0  0  0  0  0  0  0  0  0  0  0  0
   -9.2528    3.7813  -17.0899 O   0  0  0  0  0  0  0  0  0  0  0  0
   -8.0137    4.3717  -17.2045 C   0  0  0  0  0  0  0  0  0  0  0  0
   -7.1119    4.1296  -16.1956 C   0  0  0  0  0  0  0  0  0  0  0  0
   -5.8350    4.6806  -16.2595 C   0  0  0  0  0  0  0  0  0  0  0  0
   -4.7854    4.4671  -15.2097 C   0  0  0  0  0  0  0  0  0  0  0  0
   -5.1372    3.6302  -13.9665 C   0  0  0  0  0  0  0  0  0  0  0  0
   -5.7323    4.3859  -12.8905 N   0  0  0  0  0  0  0  0  0  0  0  0
   -7.0320    5.2422  -12.8553 C   0  0  0  0  0  0  0  0  0  0  0  0
   -7.7741    5.5269  -13.7117 O   0  0  0  0  0  0  0  0  0  0  0  0
   -7.1455    5.7767  -11.4373 C   0  0  1  0  0  0  0  0  0  0  0  0
   -7.9746    7.0770  -11.4046 C   0  0  0  0  0  0  0  0  0  0  0  0
   -8.2491    7.6412   -9.9902 C   0  0  0  0  0  0  0  0  0  0  0  0
   -7.9273    6.7243   -8.7968 C   0  0  0  0  0  0  0  0  0  0  0  0
   -8.0349    5.3056   -9.1700 C   0  0  0  0  0  0  0  0  0  0  0  0
   -8.4138    4.3174   -8.3305 N   0  0  0  0  0  0  0  0  0  0  0  0
   -8.3756    3.2224   -9.0579 C   0  0  0  0  0  0  0  0  0  0  0  0
   -8.6186    1.8621   -8.5183 C   0  0  0  0  0  0  0  0  0  0  0  0
   -8.0700    3.5231  -10.3778 N   0  0  0  0  0  0  0  0  0  0  0  0
   -8.2108    2.6127  -11.4830 C   0  0  0  0  0  0  0  0  0  0  0  0
   -7.7122    4.8422  -10.4211 C   0  0  0  0  0  0  0  0  0  0  0  0
   -5.5139    5.4358  -17.3785 C   0  0  0  0  0  0  0  0  0  0  0  0
   -6.4809    5.6187  -18.3534 C   0  0  0  0  0  0  0  0  0  0  0  0
   -6.1719    6.3928  -19.5752 C   0  0  0  0  0  0  0  0  0  0  0  0
   -7.7248    5.1187  -18.2728 N   0  0  0  0  0  0  0  0  0  0  0  0
  1  2  1  0
  2  3  1  0
  3  4  2  0
  4  5  1  0
  5  6  1  0
  6  7  1  0
  7  8  1  0
  8  9  1  0
  9 10  2  0
 11  9  1  6
 11 12  1  0
 12 13  1  0
 13 14  1  0
 14 15  1  0
 15 16  1  0
 16 17  2  0
 17 18  1  0
 17 19  1  0
 19 20  1  0
 19 21  1  0
  5 22  2  0
 22 23  1  0
 23 24  1  0
 23 25  2  0
 25  3  1  0
 21 11  1  0
 21 15  2  0
M  END
>  <energy_score>  (2479) 
-16.213522

>  <alias>  (2479) 
None

>  <HIPPO Pose ID>  (2479) 
74959

>  <smiles>  (2479) 
COc1cc(CCNC(=O)[C@H]2CCCc3nc(C)n(C)c32)cc(C)n1

>  <inchikey>  (2479) 
PIAMTRFIPDFWKC-HNNXBMFYSA-N

>  <distance_score>  (2479) 
1.921425

>  <ref_mols>  (2479) 
Z1495a,Z0800a

>  <ref_pdb>  (2479) 
Z0800a

>  <HIPPO Compound ID>  (2479) 
149051

>  <name>  (2479) 
P74959

>  <inspiration_score>  (2479) 
None

$$$$
P74960
     RDKit          3D

 25 27  0  0  0  0  0  0  0  0999 V2000
   -8.8364    6.3522  -14.2143 C   0  0  0  0  0  0  0  0  0  0  0  0
   -7.6348    6.5111  -13.2891 C   0  0  2  0  0  0  0  0  0  0  0  0
   -6.2875    6.0403  -13.8483 C   0  0  0  0  0  0  0  0  0  0  0  0
   -6.0286    6.5013  -15.1782 N   0  0  0  0  0  0  0  0  0  0  0  0
   -5.7328    7.9252  -15.7090 C   0  0  0  0  0  0  0  0  0  0  0  0
   -5.5784    8.9297  -15.1346 O   0  0  0  0  0  0  0  0  0  0  0  0
   -5.7345    7.8383  -17.2486 C   0  0  0  0  0  0  0  0  0  0  0  0
   -4.9030    6.7146  -17.7592 C   0  0  0  0  0  0  0  0  0  0  0  0
   -3.6054    6.3648  -17.4488 C   0  0  0  0  0  0  0  0  0  0  0  0
   -3.2355    5.2181  -18.0839 N   0  0  0  0  0  0  0  0  0  0  0  0
   -4.2772    4.8849  -18.8029 C   0  0  0  0  0  0  0  0  0  0  0  0
   -5.3261    5.7338  -18.6197 N   0  0  0  0  0  0  0  0  0  0  0  0
   -6.6290    5.5396  -19.2369 C   0  0  0  0  0  0  0  0  0  0  0  0
   -7.6099    4.8838  -18.3188 C   0  0  0  0  0  0  0  0  0  0  0  0
   -7.1912    4.2088  -17.1703 C   0  0  0  0  0  0  0  0  0  0  0  0
   -8.1112    3.7650  -16.2558 C   0  0  0  0  0  0  0  0  0  0  0  0
   -9.4488    3.8968  -16.5555 C   0  0  0  0  0  0  0  0  0  0  0  0
   -9.9011    4.4446  -17.7406 C   0  0  0  0  0  0  0  0  0  0  0  0
   -8.9750    4.9538  -18.6167 C   0  0  0  0  0  0  0  0  0  0  0  0
   -7.8705    5.8343  -11.9533 C   0  0  0  0  0  0  0  0  0  0  0  0
   -8.0844    4.4530  -11.8306 C   0  0  0  0  0  0  0  0  0  0  0  0
   -8.2172    3.9085  -10.5611 C   0  0  0  0  0  0  0  0  0  0  0  0
   -8.1468    4.6380   -9.4256 N   0  0  0  0  0  0  0  0  0  0  0  0
   -7.9576    5.9643   -9.5686 C   0  0  0  0  0  0  0  0  0  0  0  0
   -7.8165    6.6003  -10.7887 C   0  0  0  0  0  0  0  0  0  0  0  0
  2  1  1  6
  2  3  1  0
  3  4  1  0
  4  5  1  0
  5  6  2  0
  5  7  1  0
  7  8  1  0
  8  9  2  0
  9 10  1  0
 10 11  2  0
 11 12  1  0
 12 13  1  0
 13 14  1  0
 14 15  2  0
 15 16  1  0
 16 17  2  0
 17 18  1  0
 18 19  2  0
  2 20  1  0
 20 21  2  0
 21 22  1  0
 22 23  2  0
 23 24  1  0
 24 25  2  0
 12  8  1  0
 19 14  1  0
 25 20  1  0
M  END
>  <energy_score>  (2480) 
-12.091654

>  <alias>  (2480) 
None

>  <HIPPO Pose ID>  (2480) 
74960

>  <smiles>  (2480) 
C[C@H](CNC(=O)Cc1cncn1Cc1ccccc1)c1ccncc1

>  <inchikey>  (2480) 
GBGGYPXAEFRQKB-MRXNPFEDSA-N

>  <distance_score>  (2480) 
1.748747

>  <ref_mols>  (2480) 
Z1495a,Z0800a

>  <ref_pdb>  (2480) 
Z0800a

>  <HIPPO Compound ID>  (2480) 
149052

>  <name>  (2480) 
P74960

>  <inspiration_score>  (2480) 
None

$$$$
P74962
     RDKit          3D

 25 27  0  0  0  0  0  0  0  0999 V2000
   -7.0250    7.6830  -17.8112 O   0  0  0  0  0  0  0  0  0  0  0  0
   -6.3084    7.5135  -16.9038 C   0  0  0  0  0  0  0  0  0  0  0  0
   -4.8169    7.6491  -17.0975 C   0  0  0  0  0  0  0  0  0  0  0  0
   -4.2221    6.3331  -16.8097 C   0  0  0  0  0  0  0  0  0  0  0  0
   -3.1412    6.0559  -16.0087 C   0  0  0  0  0  0  0  0  0  0  0  0
   -3.0934    4.7384  -15.7014 N   0  0  0  0  0  0  0  0  0  0  0  0
   -4.1142    4.2203  -16.3404 C   0  0  0  0  0  0  0  0  0  0  0  0
   -4.7566    5.1084  -17.1500 N   0  0  0  0  0  0  0  0  0  0  0  0
   -5.6121    4.7745  -18.2978 C   0  0  0  0  0  0  0  0  0  0  0  0
   -7.0485    4.4334  -18.0333 C   0  0  0  0  0  0  0  0  0  0  0  0
   -7.9152    4.4519  -19.1262 C   0  0  0  0  0  0  0  0  0  0  0  0
   -9.2894    4.3229  -18.9810 C   0  0  0  0  0  0  0  0  0  0  0  0
   -9.8233    4.0968  -17.7322 C   0  0  0  0  0  0  0  0  0  0  0  0
   -8.9651    3.9401  -16.6521 C   0  0  0  0  0  0  0  0  0  0  0  0
   -7.5837    4.0855  -16.8038 C   0  0  0  0  0  0  0  0  0  0  0  0
   -6.6155    7.0467  -15.4467 N   0  0  0  0  0  0  0  0  0  0  0  0
   -7.8544    6.6037  -14.8443 C   0  0  0  0  0  0  0  0  0  0  0  0
   -8.1357    7.0789  -13.4306 C   0  0  0  0  0  0  0  0  0  0  0  0
   -7.9373    6.1114  -12.2794 C   0  0  0  0  0  0  0  0  0  0  0  0
   -7.6395    6.6514  -11.0222 C   0  0  0  0  0  0  0  0  0  0  0  0
   -7.5788    5.8151   -9.9150 C   0  0  0  0  0  0  0  0  0  0  0  0
   -7.7945    4.4869   -9.9576 N   0  0  0  0  0  0  0  0  0  0  0  0
   -8.0935    3.9941  -11.1681 C   0  0  0  0  0  0  0  0  0  0  0  0
   -8.3500    2.6626  -11.1906 O   0  0  0  0  0  0  0  0  0  0  0  0
   -8.1753    4.7326  -12.3408 C   0  0  0  0  0  0  0  0  0  0  0  0
  1  2  2  0
  2  3  1  0
  3  4  1  0
  4  5  2  0
  5  6  1  0
  6  7  2  0
  7  8  1  0
  8  9  1  0
  9 10  1  0
 10 11  2  0
 11 12  1  0
 12 13  2  0
 13 14  1  0
 14 15  2  0
  2 16  1  0
 16 17  1  0
 17 18  1  0
 18 19  1  0
 19 20  2  0
 20 21  1  0
 21 22  2  0
 22 23  1  0
 23 24  1  0
 23 25  2  0
  8  4  1  0
 15 10  1  0
 25 19  1  0
M  END
>  <energy_score>  (2481) 
-4.001515

>  <alias>  (2481) 
None

>  <HIPPO Pose ID>  (2481) 
74962

>  <smiles>  (2481) 
O=C(Cc1cncn1Cc1ccccc1)NCCc1ccnc(O)c1

>  <inchikey>  (2481) 
XRQDHFCDXBRVGB-UHFFFAOYSA-N

>  <distance_score>  (2481) 
1.949806

>  <ref_mols>  (2481) 
Z0800a,Z1495a

>  <ref_pdb>  (2481) 
Z0800a

>  <HIPPO Compound ID>  (2481) 
149054

>  <name>  (2481) 
P74962

>  <inspiration_score>  (2481) 
None

$$$$
P74963
     RDKit          3D

 25 27  0  0  0  0  0  0  0  0999 V2000
   -3.5494    3.2479  -15.4089 O   0  0  0  0  0  0  0  0  0  0  0  0
   -3.9649    4.3146  -15.6476 C   0  0  0  0  0  0  0  0  0  0  0  0
   -3.5106    5.0396  -16.9303 C   0  0  0  0  0  0  0  0  0  0  0  0
   -4.4897    6.0147  -17.4827 C   0  0  0  0  0  0  0  0  0  0  0  0
   -4.4823    7.3899  -17.4130 C   0  0  0  0  0  0  0  0  0  0  0  0
   -5.6145    7.9175  -17.9529 N   0  0  0  0  0  0  0  0  0  0  0  0
   -6.2770    6.8893  -18.4277 C   0  0  0  0  0  0  0  0  0  0  0  0
   -5.6427    5.7126  -18.1618 N   0  0  0  0  0  0  0  0  0  0  0  0
   -6.0939    4.4008  -18.5851 C   0  0  0  0  0  0  0  0  0  0  0  0
   -7.5532    4.2275  -18.3649 C   0  0  0  0  0  0  0  0  0  0  0  0
   -8.0616    4.1394  -17.0799 C   0  0  0  0  0  0  0  0  0  0  0  0
   -9.4220    4.1671  -16.8718 C   0  0  0  0  0  0  0  0  0  0  0  0
  -10.2827    4.3757  -17.9386 C   0  0  0  0  0  0  0  0  0  0  0  0
   -9.7719    4.4468  -19.2186 C   0  0  0  0  0  0  0  0  0  0  0  0
   -8.4218    4.2559  -19.4380 C   0  0  0  0  0  0  0  0  0  0  0  0
   -4.8808    5.2479  -14.8102 N   0  0  0  0  0  0  0  0  0  0  0  0
   -5.5466    5.0222  -13.5563 C   0  0  0  0  0  0  0  0  0  0  0  0
   -7.0756    5.1211  -13.6496 C   0  0  0  0  0  0  0  0  0  0  0  0
   -7.6476    5.1483  -12.2599 C   0  0  0  0  0  0  0  0  0  0  0  0
   -7.7182    6.3488  -11.5484 C   0  0  0  0  0  0  0  0  0  0  0  0
   -8.0685    6.3033  -10.2100 C   0  0  0  0  0  0  0  0  0  0  0  0
   -8.3505    5.1657   -9.5477 N   0  0  0  0  0  0  0  0  0  0  0  0
   -8.3229    4.0255  -10.2730 C   0  0  0  0  0  0  0  0  0  0  0  0
   -8.7020    2.6154   -9.3878 Cl  0  0  0  0  0  0  0  0  0  0  0  0
   -7.9840    3.9578  -11.6115 C   0  0  0  0  0  0  0  0  0  0  0  0
  1  2  2  0
  2  3  1  0
  3  4  1  0
  4  5  2  0
  5  6  1  0
  6  7  2  0
  7  8  1  0
  8  9  1  0
  9 10  1  0
 10 11  2  0
 11 12  1  0
 12 13  2  0
 13 14  1  0
 14 15  2  0
  2 16  1  0
 16 17  1  0
 17 18  1  0
 18 19  1  0
 19 20  2  0
 20 21  1  0
 21 22  2  0
 22 23  1  0
 23 24  1  0
 23 25  2  0
  8  4  1  0
 15 10  1  0
 25 19  1  0
M  END
>  <energy_score>  (2482) 
-6.996616

>  <alias>  (2482) 
None

>  <HIPPO Pose ID>  (2482) 
74963

>  <smiles>  (2482) 
O=C(Cc1cncn1Cc1ccccc1)NCCc1ccnc(Cl)c1

>  <inchikey>  (2482) 
VBYZCBBGXSJOBC-UHFFFAOYSA-N

>  <distance_score>  (2482) 
1.801016

>  <ref_mols>  (2482) 
Z1495a,Z0800a

>  <ref_pdb>  (2482) 
Z0800a

>  <HIPPO Compound ID>  (2482) 
149058

>  <name>  (2482) 
P74963

>  <inspiration_score>  (2482) 
None

$$$$
P74965
     RDKit          3D

 25 26  0  0  0  0  0  0  0  0999 V2000
   -7.3255   11.4555  -13.5045 C   0  0  0  0  0  0  0  0  0  0  0  0
   -6.0506   10.6892  -13.2129 C   0  0  0  0  0  0  0  0  0  0  0  0
   -6.3651    9.3330  -12.8646 O   0  0  0  0  0  0  0  0  0  0  0  0
   -6.3732    8.4300  -13.8936 C   0  0  0  0  0  0  0  0  0  0  0  0
   -6.1602    8.7096  -15.0648 O   0  0  0  0  0  0  0  0  0  0  0  0
   -6.6414    7.0310  -13.3336 C   0  0  1  0  0  0  0  0  0  0  0  0
   -8.0776    6.8874  -12.8313 C   0  0  0  0  0  0  0  0  0  0  0  0
   -8.1106    5.9497  -11.6546 C   0  0  0  0  0  0  0  0  0  0  0  0
   -7.9320    6.4784  -10.3751 C   0  0  0  0  0  0  0  0  0  0  0  0
   -7.9437    5.6171   -9.2957 C   0  0  0  0  0  0  0  0  0  0  0  0
   -8.1274    4.2909   -9.4009 N   0  0  0  0  0  0  0  0  0  0  0  0
   -8.2949    3.7966  -10.6449 C   0  0  0  0  0  0  0  0  0  0  0  0
   -8.5081    2.4817  -10.7602 F   0  0  0  0  0  0  0  0  0  0  0  0
   -8.2744    4.5694  -11.7948 C   0  0  0  0  0  0  0  0  0  0  0  0
   -6.3606    5.9892  -14.2834 N   0  0  0  0  0  0  0  0  0  0  0  0
   -7.2002    5.4570  -15.4667 C   0  0  0  0  0  0  0  0  0  0  0  0
   -8.2823    5.7280  -15.8081 O   0  0  0  0  0  0  0  0  0  0  0  0
   -6.3051    4.4089  -16.1593 C   0  0  2  0  0  0  0  0  0  0  0  0
   -5.1311    4.0924  -15.4036 O   0  0  0  0  0  0  0  0  0  0  0  0
   -5.8399    4.9882  -17.4350 C   0  0  0  0  0  0  0  0  0  0  0  0
   -4.6780    5.6711  -17.7236 C   0  0  0  0  0  0  0  0  0  0  0  0
   -4.6712    6.1030  -19.0089 N   0  0  0  0  0  0  0  0  0  0  0  0
   -5.8273    5.7171  -19.5009 C   0  0  0  0  0  0  0  0  0  0  0  0
   -6.5723    5.0274  -18.5925 N   0  0  0  0  0  0  0  0  0  0  0  0
   -7.9024    4.5251  -18.8346 C   0  0  0  0  0  0  0  0  0  0  0  0
  1  2  1  0
  2  3  1  0
  3  4  1  0
  4  5  2  0
  4  6  1  0
  6  7  1  6
  7  8  1  0
  8  9  2  0
  9 10  1  0
 10 11  2  0
 11 12  1  0
 12 13  1  0
 12 14  2  0
  6 15  1  0
 15 16  1  0
 16 17  2  0
 16 18  1  0
 18 19  1  1
 18 20  1  0
 20 21  2  0
 21 22  1  0
 22 23  2  0
 23 24  1  0
 24 25  1  0
 14  8  1  0
 24 20  1  0
M  END
>  <energy_score>  (2483) 
-8.006406

>  <alias>  (2483) 
None

>  <HIPPO Pose ID>  (2483) 
74965

>  <smiles>  (2483) 
CCOC(=O)[C@@H](Cc1ccnc(F)c1)NC(=O)[C@H](O)c1cncn1C

>  <inchikey>  (2483) 
DPQNFIYBWPEULL-BXUZGUMPSA-N

>  <distance_score>  (2483) 
1.630353

>  <ref_mols>  (2483) 
Z0800a,Z1495a

>  <ref_pdb>  (2483) 
Z0800a

>  <HIPPO Compound ID>  (2483) 
149062

>  <name>  (2483) 
P74965

>  <inspiration_score>  (2483) 
None

$$$$
P74968
     RDKit          3D

 26 29  0  0  0  0  0  0  0  0999 V2000
   -6.5293    1.9367  -11.5729 C   0  0  0  0  0  0  0  0  0  0  0  0
   -7.3264    2.8946  -10.8538 N   0  0  0  0  0  0  0  0  0  0  0  0
   -7.9245    2.6940   -9.6347 C   0  0  0  0  0  0  0  0  0  0  0  0
   -8.4287    3.8107   -9.1534 N   0  0  0  0  0  0  0  0  0  0  0  0
   -8.1323    4.7314  -10.0950 C   0  0  0  0  0  0  0  0  0  0  0  0
   -7.5240    4.2052  -11.1987 C   0  0  0  0  0  0  0  0  0  0  0  0
   -7.1083    5.0060  -12.3889 C   0  0  1  0  0  0  0  0  0  0  0  0
   -8.1924    5.0499  -13.5032 C   0  0  0  0  0  0  0  0  0  0  0  0
   -9.2627    4.6180  -13.3566 O   0  0  0  0  0  0  0  0  0  0  0  0
   -7.5495    5.7419  -14.7313 N   0  0  0  0  0  0  0  0  0  0  0  0
   -8.1273    6.1288  -16.0012 C   0  0  0  0  0  0  0  0  0  0  0  0
   -7.9242    5.0246  -17.0738 C   0  0  0  0  0  0  0  0  0  0  0  0
   -6.3544    4.8156  -17.2693 C   0  0  0  0  0  0  0  0  0  0  0  0
   -5.6712    5.2995  -18.4007 C   0  0  0  0  0  0  0  0  0  0  0  0
   -4.2874    5.2847  -18.4335 C   0  0  0  0  0  0  0  0  0  0  0  0
   -3.5159    4.8385  -17.4234 N   0  0  0  0  0  0  0  0  0  0  0  0
   -4.1785    4.3363  -16.3794 C   0  0  0  0  0  0  0  0  0  0  0  0
   -3.3814    3.8827  -15.3812 O   0  0  0  0  0  0  0  0  0  0  0  0
   -5.5487    4.2715  -16.2617 C   0  0  0  0  0  0  0  0  0  0  0  0
   -8.9205    3.8509  -16.8598 C   0  0  0  0  0  0  0  0  0  0  0  0
   -9.9045    4.5548  -17.8189 C   0  0  0  0  0  0  0  0  0  0  0  0
   -8.6774    5.1771  -18.4626 C   0  0  0  0  0  0  0  0  0  0  0  0
   -6.8550    6.4445  -11.9026 C   0  0  0  0  0  0  0  0  0  0  0  0
   -7.8812    6.9540  -10.8912 C   0  0  0  0  0  0  0  0  0  0  0  0
   -8.1779    8.1483  -10.8480 O   0  0  0  0  0  0  0  0  0  0  0  0
   -8.3527    6.0643   -9.9692 N   0  0  0  0  0  0  0  0  0  0  0  0
  1  2  1  0
  2  3  1  0
  3  4  2  0
  4  5  1  0
  5  6  2  0
  6  7  1  0
  7  8  1  6
  8  9  2  0
  8 10  1  0
 10 11  1  0
 11 12  1  0
 12 13  1  0
 13 14  2  0
 14 15  1  0
 15 16  2  0
 16 17  1  0
 17 18  1  0
 17 19  2  0
 12 20  1  0
 20 21  1  0
 21 22  1  0
  7 23  1  0
 23 24  1  0
 24 25  2  0
 24 26  1  0
  6  2  1  0
 22 12  1  0
 26  5  1  0
 19 13  1  0
M  END
>  <energy_score>  (2484) 
-78.460836

>  <alias>  (2484) 
None

>  <HIPPO Pose ID>  (2484) 
74968

>  <smiles>  (2484) 
Cn1cnc2c1[C@@H](C(=O)NCC1(c3ccnc(O)c3)CCC1)CC(=O)N2

>  <inchikey>  (2484) 
RPQRBWQWDPYNGF-LBPRGKRZSA-N

>  <distance_score>  (2484) 
1.661395

>  <ref_mols>  (2484) 
Z1495a,Z0800a

>  <ref_pdb>  (2484) 
Z0800a

>  <HIPPO Compound ID>  (2484) 
149063

>  <name>  (2484) 
P74968

>  <inspiration_score>  (2484) 
None

$$$$
P74969
     RDKit          3D

 26 28  0  0  0  0  0  0  0  0999 V2000
   -8.6711    2.3275   -8.4715 C   0  0  0  0  0  0  0  0  0  0  0  0
   -8.7144    2.4916   -9.8799 O   0  0  0  0  0  0  0  0  0  0  0  0
   -8.3532    3.7547  -10.2812 C   0  0  0  0  0  0  0  0  0  0  0  0
   -8.0038    3.8858  -11.6128 C   0  0  0  0  0  0  0  0  0  0  0  0
   -7.6440    5.1480  -12.0708 C   0  0  0  0  0  0  0  0  0  0  0  0
   -7.1277    5.3440  -13.4614 C   0  0  0  0  0  0  0  0  0  0  0  0
   -5.6226    5.6813  -13.4359 C   0  0  0  0  0  0  0  0  0  0  0  0
   -5.2133    6.3088  -14.6625 N   0  0  0  0  0  0  0  0  0  0  0  0
   -5.8986    7.4072  -15.5040 C   0  0  0  0  0  0  0  0  0  0  0  0
   -6.9368    7.9191  -15.3749 O   0  0  0  0  0  0  0  0  0  0  0  0
   -5.0015    7.7398  -16.6725 C   0  0  0  0  0  0  0  0  0  0  0  0
   -4.6767    6.6402  -17.6310 C   0  0  0  0  0  0  0  0  0  0  0  0
   -3.5903    6.6531  -18.4893 C   0  0  0  0  0  0  0  0  0  0  0  0
   -3.5401    5.5534  -19.2784 N   0  0  0  0  0  0  0  0  0  0  0  0
   -4.6177    4.8855  -18.9507 C   0  0  0  0  0  0  0  0  0  0  0  0
   -5.3287    5.4631  -17.9288 N   0  0  0  0  0  0  0  0  0  0  0  0
   -6.3535    4.7196  -17.2205 C   0  0  0  0  0  0  0  0  0  0  0  0
   -7.6972    4.6870  -17.8494 C   0  0  0  0  0  0  0  0  0  0  0  0
   -7.9037    4.2061  -19.1347 C   0  0  0  0  0  0  0  0  0  0  0  0
   -9.1815    4.1888  -19.6631 C   0  0  0  0  0  0  0  0  0  0  0  0
  -10.2555    4.6610  -18.9419 C   0  0  0  0  0  0  0  0  0  0  0  0
  -10.0537    5.1104  -17.6657 C   0  0  0  0  0  0  0  0  0  0  0  0
   -8.7957    5.1023  -17.0997 C   0  0  0  0  0  0  0  0  0  0  0  0
   -7.7214    6.2342  -11.1940 C   0  0  0  0  0  0  0  0  0  0  0  0
   -8.0822    5.9984   -9.8814 C   0  0  0  0  0  0  0  0  0  0  0  0
   -8.3822    4.7794   -9.3973 N   0  0  0  0  0  0  0  0  0  0  0  0
  1  2  1  0
  2  3  1  0
  3  4  2  0
  4  5  1  0
  5  6  1  0
  6  7  1  0
  7  8  1  0
  8  9  1  0
  9 10  2  0
  9 11  1  0
 11 12  1  0
 12 13  2  0
 13 14  1  0
 14 15  2  0
 15 16  1  0
 16 17  1  0
 17 18  1  0
 18 19  2  0
 19 20  1  0
 20 21  2  0
 21 22  1  0
 22 23  2  0
  5 24  2  0
 24 25  1  0
 25 26  2  0
 26  3  1  0
 16 12  1  0
 23 18  1  0
M  END
>  <energy_score>  (2485) 
-2.196417

>  <alias>  (2485) 
None

>  <HIPPO Pose ID>  (2485) 
74969

>  <smiles>  (2485) 
COc1cc(CCNC(=O)Cc2cncn2Cc2ccccc2)ccn1

>  <inchikey>  (2485) 
OQOVZIZOZOYVCF-UHFFFAOYSA-N

>  <distance_score>  (2485) 
1.652593

>  <ref_mols>  (2485) 
Z1495a,Z0800a

>  <ref_pdb>  (2485) 
Z0800a

>  <HIPPO Compound ID>  (2485) 
149065

>  <name>  (2485) 
P74969

>  <inspiration_score>  (2485) 
None

$$$$
P74970
     RDKit          3D

 26 28  0  0  0  0  0  0  0  0999 V2000
   -6.0139    8.6682  -15.3326 O   0  0  0  0  0  0  0  0  0  0  0  0
   -5.3581    7.7438  -15.6172 C   0  0  0  0  0  0  0  0  0  0  0  0
   -4.5324    7.7713  -16.9142 C   0  0  0  0  0  0  0  0  0  0  0  0
   -4.2564    6.4481  -17.5362 C   0  0  0  0  0  0  0  0  0  0  0  0
   -3.1118    5.6770  -17.4665 C   0  0  0  0  0  0  0  0  0  0  0  0
   -3.2306    4.5316  -18.1911 N   0  0  0  0  0  0  0  0  0  0  0  0
   -4.4300    4.6044  -18.7139 C   0  0  0  0  0  0  0  0  0  0  0  0
   -5.0953    5.7340  -18.3448 N   0  0  0  0  0  0  0  0  0  0  0  0
   -6.3562    6.1086  -18.9373 C   0  0  0  0  0  0  0  0  0  0  0  0
   -7.4652    5.2817  -18.3968 C   0  0  0  0  0  0  0  0  0  0  0  0
   -7.9797    5.5471  -17.1331 C   0  0  0  0  0  0  0  0  0  0  0  0
   -9.1480    4.9439  -16.7174 C   0  0  0  0  0  0  0  0  0  0  0  0
   -9.8066    4.0837  -17.5688 C   0  0  0  0  0  0  0  0  0  0  0  0
   -9.2121    3.7061  -18.7555 C   0  0  0  0  0  0  0  0  0  0  0  0
   -8.0383    4.2908  -19.1779 C   0  0  0  0  0  0  0  0  0  0  0  0
   -5.0672    6.4396  -14.8326 N   0  0  0  0  0  0  0  0  0  0  0  0
   -5.5955    5.9647  -13.5856 C   0  0  0  0  0  0  0  0  0  0  0  0
   -7.0800    5.5908  -13.6603 C   0  0  0  0  0  0  0  0  0  0  0  0
   -7.5647    5.2002  -12.2836 C   0  0  0  0  0  0  0  0  0  0  0  0
   -7.5050    3.8674  -11.8334 C   0  0  0  0  0  0  0  0  0  0  0  0
   -6.8208    2.4497  -12.8931 Br  0  0  0  0  0  0  0  0  0  0  0  0
   -7.8585    3.5763  -10.5181 C   0  0  0  0  0  0  0  0  0  0  0  0
   -8.2087    4.5151   -9.6081 N   0  0  0  0  0  0  0  0  0  0  0  0
   -8.2540    5.7888  -10.0516 C   0  0  0  0  0  0  0  0  0  0  0  0
   -7.9662    6.1758  -11.3550 C   0  0  0  0  0  0  0  0  0  0  0  0
   -8.1037    8.0252  -11.7628 Br  0  0  0  0  0  0  0  0  0  0  0  0
  1  2  2  0
  2  3  1  0
  3  4  1  0
  4  5  2  0
  5  6  1  0
  6  7  2  0
  7  8  1  0
  8  9  1  0
  9 10  1  0
 10 11  2  0
 11 12  1  0
 12 13  2  0
 13 14  1  0
 14 15  2  0
  2 16  1  0
 16 17  1  0
 17 18  1  0
 18 19  1  0
 19 20  2  0
 20 21  1  0
 20 22  1  0
 22 23  2  0
 23 24  1  0
 24 25  2  0
 25 26  1  0
  8  4  1  0
 15 10  1  0
 25 19  1  0
M  END
>  <energy_score>  (2486) 
-9.621065

>  <alias>  (2486) 
None

>  <HIPPO Pose ID>  (2486) 
74970

>  <smiles>  (2486) 
O=C(Cc1cncn1Cc1ccccc1)NCCc1c(Br)cncc1Br

>  <inchikey>  (2486) 
WGDYLJMVYPYKDA-UHFFFAOYSA-N

>  <distance_score>  (2486) 
1.757736

>  <ref_mols>  (2486) 
Z0800a,Z1495a

>  <ref_pdb>  (2486) 
Z0800a

>  <HIPPO Compound ID>  (2486) 
149066

>  <name>  (2486) 
P74970

>  <inspiration_score>  (2486) 
None

$$$$
P74971
     RDKit          3D

 26 28  0  0  0  0  0  0  0  0999 V2000
   -8.3667    6.3443  -14.3688 C   0  0  0  0  0  0  0  0  0  0  0  0
   -7.5269    5.3303  -13.5842 C   0  0  1  0  0  0  0  0  0  0  0  0
   -6.0113    5.5891  -13.6613 C   0  0  0  0  0  0  0  0  0  0  0  0
   -5.4718    5.2859  -14.9524 N   0  0  0  0  0  0  0  0  0  0  0  0
   -4.0597    4.7840  -15.3631 C   0  0  0  0  0  0  0  0  0  0  0  0
   -3.1475    4.4682  -14.7046 O   0  0  0  0  0  0  0  0  0  0  0  0
   -4.0324    4.6892  -16.8929 C   0  0  0  0  0  0  0  0  0  0  0  0
   -4.5857    5.9139  -17.5225 C   0  0  0  0  0  0  0  0  0  0  0  0
   -4.2193    7.2276  -17.3328 C   0  0  0  0  0  0  0  0  0  0  0  0
   -5.0645    8.0720  -17.9861 N   0  0  0  0  0  0  0  0  0  0  0  0
   -5.9035    7.2906  -18.6183 C   0  0  0  0  0  0  0  0  0  0  0  0
   -5.6696    5.9745  -18.3560 N   0  0  0  0  0  0  0  0  0  0  0  0
   -6.4146    4.9007  -18.9654 C   0  0  0  0  0  0  0  0  0  0  0  0
   -7.7419    4.7237  -18.3148 C   0  0  0  0  0  0  0  0  0  0  0  0
   -8.8638    5.3684  -18.8076 C   0  0  0  0  0  0  0  0  0  0  0  0
  -10.1475    5.0098  -18.4893 C   0  0  0  0  0  0  0  0  0  0  0  0
  -10.3020    4.0764  -17.5149 C   0  0  0  0  0  0  0  0  0  0  0  0
   -9.1964    3.6391  -16.7977 C   0  0  0  0  0  0  0  0  0  0  0  0
   -7.9164    3.9395  -17.2067 C   0  0  0  0  0  0  0  0  0  0  0  0
   -7.9039    5.1642  -12.1219 C   0  0  0  0  0  0  0  0  0  0  0  0
   -8.1652    3.8497  -11.6834 C   0  0  0  0  0  0  0  0  0  0  0  0
   -8.3565    3.5958  -10.3332 C   0  0  0  0  0  0  0  0  0  0  0  0
   -8.3092    4.5531   -9.3857 N   0  0  0  0  0  0  0  0  0  0  0  0
   -8.0866    5.8129   -9.8186 C   0  0  0  0  0  0  0  0  0  0  0  0
   -7.8809    6.1721  -11.1477 C   0  0  0  0  0  0  0  0  0  0  0  0
   -7.5327    8.0051  -11.4699 Br  0  0  0  0  0  0  0  0  0  0  0  0
  2  1  1  1
  2  3  1  0
  3  4  1  0
  4  5  1  0
  5  6  2  0
  5  7  1  0
  7  8  1  0
  8  9  2  0
  9 10  1  0
 10 11  2  0
 11 12  1  0
 12 13  1  0
 13 14  1  0
 14 15  2  0
 15 16  1  0
 16 17  2  0
 17 18  1  0
 18 19  2  0
  2 20  1  0
 20 21  2  0
 21 22  1  0
 22 23  2  0
 23 24  1  0
 24 25  2  0
 25 26  1  0
 12  8  1  0
 19 14  1  0
 25 20  1  0
M  END
>  <energy_score>  (2487) 
-8.473775

>  <alias>  (2487) 
None

>  <HIPPO Pose ID>  (2487) 
74971

>  <smiles>  (2487) 
C[C@@H](CNC(=O)Cc1cncn1Cc1ccccc1)c1ccncc1Br

>  <inchikey>  (2487) 
ZDUWYTSHDJOSFY-HNNXBMFYSA-N

>  <distance_score>  (2487) 
1.650237

>  <ref_mols>  (2487) 
Z0800a,Z1495a

>  <ref_pdb>  (2487) 
Z0800a

>  <HIPPO Compound ID>  (2487) 
149067

>  <name>  (2487) 
P74971

>  <inspiration_score>  (2487) 
None

$$$$
P74972
     RDKit          3D

 26 28  0  0  0  0  0  0  0  0999 V2000
   -5.6920    8.9684  -15.5017 O   0  0  0  0  0  0  0  0  0  0  0  0
   -6.1944    7.9858  -15.8785 C   0  0  0  0  0  0  0  0  0  0  0  0
   -6.0585    7.4654  -17.3192 C   0  0  0  0  0  0  0  0  0  0  0  0
   -5.0484    6.3815  -17.3290 C   0  0  0  0  0  0  0  0  0  0  0  0
   -3.8324    6.3307  -16.6751 C   0  0  0  0  0  0  0  0  0  0  0  0
   -3.1397    5.2058  -16.9904 N   0  0  0  0  0  0  0  0  0  0  0  0
   -3.9167    4.5809  -17.8370 C   0  0  0  0  0  0  0  0  0  0  0  0
   -5.1246    5.1952  -18.0102 N   0  0  0  0  0  0  0  0  0  0  0  0
   -6.1034    4.7577  -18.9920 C   0  0  0  0  0  0  0  0  0  0  0  0
   -7.4606    4.4222  -18.4624 C   0  0  0  0  0  0  0  0  0  0  0  0
   -7.8067    4.2318  -17.1323 C   0  0  0  0  0  0  0  0  0  0  0  0
   -9.1447    4.1224  -16.7732 C   0  0  0  0  0  0  0  0  0  0  0  0
  -10.1357    4.2676  -17.7337 C   0  0  0  0  0  0  0  0  0  0  0  0
   -9.7884    4.3983  -19.0552 C   0  0  0  0  0  0  0  0  0  0  0  0
   -8.4630    4.3250  -19.4155 C   0  0  0  0  0  0  0  0  0  0  0  0
   -7.0644    6.9540  -15.1260 N   0  0  0  0  0  0  0  0  0  0  0  0
   -7.4206    6.8667  -13.7214 C   0  0  1  0  0  0  0  0  0  0  0  0
   -8.5110    7.8983  -13.3797 C   0  0  0  0  0  0  0  0  0  0  0  0
   -7.9871    9.2272  -13.3792 O   0  0  0  0  0  0  0  0  0  0  0  0
   -7.8476    5.4307  -13.3947 C   0  0  0  0  0  0  0  0  0  0  0  0
   -7.8878    5.0550  -11.9357 C   0  0  0  0  0  0  0  0  0  0  0  0
   -8.2369    3.7436  -11.5952 C   0  0  0  0  0  0  0  0  0  0  0  0
   -8.2994    3.3912  -10.2552 C   0  0  0  0  0  0  0  0  0  0  0  0
   -8.0432    4.2483   -9.2422 N   0  0  0  0  0  0  0  0  0  0  0  0
   -7.6950    5.5000   -9.5876 C   0  0  0  0  0  0  0  0  0  0  0  0
   -7.5914    5.9401  -10.8956 C   0  0  0  0  0  0  0  0  0  0  0  0
  1  2  2  0
  2  3  1  0
  3  4  1  0
  4  5  2  0
  5  6  1  0
  6  7  2  0
  7  8  1  0
  8  9  1  0
  9 10  1  0
 10 11  2  0
 11 12  1  0
 12 13  2  0
 13 14  1  0
 14 15  2  0
  2 16  1  0
 16 17  1  0
 17 18  1  6
 18 19  1  0
 17 20  1  0
 20 21  1  0
 21 22  2  0
 22 23  1  0
 23 24  2  0
 24 25  1  0
 25 26  2  0
  8  4  1  0
 15 10  1  0
 26 21  1  0
M  END
>  <energy_score>  (2488) 
-7.669246

>  <alias>  (2488) 
None

>  <HIPPO Pose ID>  (2488) 
74972

>  <smiles>  (2488) 
O=C(Cc1cncn1Cc1ccccc1)N[C@@H](CO)Cc1ccncc1

>  <inchikey>  (2488) 
YJRQCYXEGJCUEM-GOSISDBHSA-N

>  <distance_score>  (2488) 
1.784823

>  <ref_mols>  (2488) 
Z1495a,Z0800a

>  <ref_pdb>  (2488) 
Z0800a

>  <HIPPO Compound ID>  (2488) 
149070

>  <name>  (2488) 
P74972

>  <inspiration_score>  (2488) 
None

$$$$
P74974
     RDKit          3D

 26 28  0  0  0  0  0  0  0  0999 V2000
   -8.9352    6.5927  -13.9823 C   0  0  0  0  0  0  0  0  0  0  0  0
   -7.9186    6.8984  -12.8759 C   0  0  0  0  0  0  0  0  0  0  0  0
   -8.2636    8.3440  -12.4070 C   0  0  0  0  0  0  0  0  0  0  0  0
   -6.4700    6.9680  -13.4060 C   0  0  0  0  0  0  0  0  0  0  0  0
   -6.0858    5.8998  -14.2807 N   0  0  0  0  0  0  0  0  0  0  0  0
   -4.6830    5.3862  -14.6828 C   0  0  0  0  0  0  0  0  0  0  0  0
   -3.6256    5.7022  -14.3054 O   0  0  0  0  0  0  0  0  0  0  0  0
   -4.9052    4.3877  -15.8195 C   0  0  0  0  0  0  0  0  0  0  0  0
   -4.5205    5.0445  -17.0993 C   0  0  0  0  0  0  0  0  0  0  0  0
   -3.3214    4.9661  -17.7707 C   0  0  0  0  0  0  0  0  0  0  0  0
   -3.3098    5.7544  -18.8784 N   0  0  0  0  0  0  0  0  0  0  0  0
   -4.4922    6.3137  -18.9018 C   0  0  0  0  0  0  0  0  0  0  0  0
   -5.2621    5.9241  -17.8433 N   0  0  0  0  0  0  0  0  0  0  0  0
   -6.6192    6.3851  -17.6638 C   0  0  0  0  0  0  0  0  0  0  0  0
   -7.6006    5.3235  -18.0012 C   0  0  0  0  0  0  0  0  0  0  0  0
   -7.4351    4.5689  -19.1494 C   0  0  0  0  0  0  0  0  0  0  0  0
   -8.3604    3.6043  -19.4535 C   0  0  0  0  0  0  0  0  0  0  0  0
   -9.4282    3.3575  -18.6108 C   0  0  0  0  0  0  0  0  0  0  0  0
   -9.6404    4.1485  -17.5149 C   0  0  0  0  0  0  0  0  0  0  0  0
   -8.7245    5.1208  -17.2078 C   0  0  0  0  0  0  0  0  0  0  0  0
   -7.9841    5.8774  -11.7364 C   0  0  0  0  0  0  0  0  0  0  0  0
   -8.0441    4.4911  -11.9601 C   0  0  0  0  0  0  0  0  0  0  0  0
   -8.0740    3.6257  -10.8718 C   0  0  0  0  0  0  0  0  0  0  0  0
   -8.0293    4.0369   -9.5891 N   0  0  0  0  0  0  0  0  0  0  0  0
   -7.9597    5.3601   -9.3844 C   0  0  0  0  0  0  0  0  0  0  0  0
   -7.9305    6.2974  -10.4012 C   0  0  0  0  0  0  0  0  0  0  0  0
  1  2  1  0
  2  3  1  0
  2  4  1  0
  4  5  1  0
  5  6  1  0
  6  7  2  0
  6  8  1  0
  8  9  1  0
  9 10  2  0
 10 11  1  0
 11 12  2  0
 12 13  1  0
 13 14  1  0
 14 15  1  0
 15 16  2  0
 16 17  1  0
 17 18  2  0
 18 19  1  0
 19 20  2  0
  2 21  1  0
 21 22  2  0
 22 23  1  0
 23 24  2  0
 24 25  1  0
 25 26  2  0
 13  9  1  0
 20 15  1  0
 26 21  1  0
M  END
>  <energy_score>  (2489) 
-5.509066

>  <alias>  (2489) 
None

>  <HIPPO Pose ID>  (2489) 
74974

>  <smiles>  (2489) 
CC(C)(CNC(=O)Cc1cncn1Cc1ccccc1)c1ccncc1

>  <inchikey>  (2489) 
NEXVIGWCARZVJQ-UHFFFAOYSA-N

>  <distance_score>  (2489) 
1.946805

>  <ref_mols>  (2489) 
Z1495a,Z0800a

>  <ref_pdb>  (2489) 
Z0800a

>  <HIPPO Compound ID>  (2489) 
149071

>  <name>  (2489) 
P74974

>  <inspiration_score>  (2489) 
None

$$$$
P74975
     RDKit          3D

 26 28  0  0  0  0  0  0  0  0999 V2000
   -8.4233    1.8935   -8.4864 C   0  0  0  0  0  0  0  0  0  0  0  0
   -8.1474    3.2106   -9.1156 C   0  0  0  0  0  0  0  0  0  0  0  0
   -7.7200    4.2635   -8.4551 N   0  0  0  0  0  0  0  0  0  0  0  0
   -7.6150    5.2511   -9.3758 C   0  0  0  0  0  0  0  0  0  0  0  0
   -7.9551    4.8261  -10.6386 C   0  0  0  0  0  0  0  0  0  0  0  0
   -8.2862    3.5092  -10.4586 N   0  0  0  0  0  0  0  0  0  0  0  0
   -8.6952    2.5881  -11.4801 C   0  0  0  0  0  0  0  0  0  0  0  0
   -8.0963    5.7553  -11.8015 C   0  0  2  0  0  0  0  0  0  0  0  0
   -7.8322    5.2097  -13.1948 C   0  0  0  0  0  0  0  0  0  0  0  0
   -8.6392    5.3100  -14.0337 O   0  0  0  0  0  0  0  0  0  0  0  0
   -6.3855    4.6655  -13.2554 N   0  0  0  0  0  0  0  0  0  0  0  0
   -5.6628    4.0442  -14.3384 C   0  0  0  0  0  0  0  0  0  0  0  0
   -5.2589    5.0635  -15.4218 C   0  0  0  0  0  0  0  0  0  0  0  0
   -5.9130    4.9252  -16.7709 C   0  0  0  0  0  0  0  0  0  0  0  0
   -5.1757    5.2193  -17.9157 C   0  0  0  0  0  0  0  0  0  0  0  0
   -5.7811    5.0837  -19.1440 C   0  0  0  0  0  0  0  0  0  0  0  0
   -7.0439    4.6745  -19.3112 N   0  0  0  0  0  0  0  0  0  0  0  0
   -7.7952    4.4614  -18.2043 C   0  0  0  0  0  0  0  0  0  0  0  0
   -9.2470    4.0799  -18.3833 C   0  0  0  0  0  0  0  0  0  0  0  0
   -9.6981    4.2673  -19.6491 F   0  0  0  0  0  0  0  0  0  0  0  0
   -9.4805    2.7613  -18.1030 F   0  0  0  0  0  0  0  0  0  0  0  0
  -10.0864    4.7659  -17.5748 F   0  0  0  0  0  0  0  0  0  0  0  0
   -7.2552    4.5683  -16.9263 C   0  0  0  0  0  0  0  0  0  0  0  0
   -7.2932    7.0465  -11.5451 C   0  0  0  0  0  0  0  0  0  0  0  0
   -7.6074    7.6103  -10.1487 C   0  0  0  0  0  0  0  0  0  0  0  0
   -7.2217    6.6310   -9.0306 C   0  0  0  0  0  0  0  0  0  0  0  0
  1  2  1  0
  2  3  2  0
  3  4  1  0
  4  5  2  0
  5  6  1  0
  6  7  1  0
  5  8  1  0
  8  9  1  6
  9 10  2  0
  9 11  1  0
 11 12  1  0
 12 13  1  0
 13 14  1  0
 14 15  2  0
 15 16  1  0
 16 17  2  0
 17 18  1  0
 18 19  1  0
 19 20  1  0
 19 21  1  0
 19 22  1  0
 18 23  2  0
  8 24  1  0
 24 25  1  0
 25 26  1  0
  6  2  1  0
 23 14  1  0
 26  4  1  0
M  END
>  <energy_score>  (2490) 
-31.868415

>  <alias>  (2490) 
None

>  <HIPPO Pose ID>  (2490) 
74975

>  <smiles>  (2490) 
Cc1nc2c(n1C)[C@H](C(=O)NCCc1ccnc(C(F)(F)F)c1)CCC2

>  <inchikey>  (2490) 
VLKQSLSWJAJQMB-CYBMUJFWSA-N

>  <distance_score>  (2490) 
1.61292

>  <ref_mols>  (2490) 
Z0800a,Z1495a

>  <ref_pdb>  (2490) 
Z0800a

>  <HIPPO Compound ID>  (2490) 
149075

>  <name>  (2490) 
P74975

>  <inspiration_score>  (2490) 
None

$$$$
P74976
     RDKit          3D

 26 28  0  0  0  0  0  0  0  0999 V2000
   -4.7084    1.9457  -12.1813 C   0  0  0  0  0  0  0  0  0  0  0  0
   -5.4502    2.9184  -12.9200 O   0  0  0  0  0  0  0  0  0  0  0  0
   -4.9010    4.1642  -12.9437 C   0  0  0  0  0  0  0  0  0  0  0  0
   -3.8288    4.4733  -12.4328 O   0  0  0  0  0  0  0  0  0  0  0  0
   -5.7561    5.1423  -13.7713 C   0  0  2  0  0  0  0  0  0  0  0  0
   -7.2764    4.8949  -13.7193 C   0  0  0  0  0  0  0  0  0  0  0  0
   -7.7832    4.9122  -12.2998 C   0  0  0  0  0  0  0  0  0  0  0  0
   -8.1598    3.7238  -11.6721 C   0  0  0  0  0  0  0  0  0  0  0  0
   -8.4362    3.7463  -10.3156 C   0  0  0  0  0  0  0  0  0  0  0  0
   -8.7583    2.5936   -9.7173 F   0  0  0  0  0  0  0  0  0  0  0  0
   -8.3781    4.8527   -9.5478 N   0  0  0  0  0  0  0  0  0  0  0  0
   -8.0695    5.9931  -10.1863 C   0  0  0  0  0  0  0  0  0  0  0  0
   -8.0242    7.1164   -9.4558 F   0  0  0  0  0  0  0  0  0  0  0  0
   -7.7723    6.0814  -11.5377 C   0  0  0  0  0  0  0  0  0  0  0  0
   -5.2795    5.2189  -15.1355 N   0  0  0  0  0  0  0  0  0  0  0  0
   -4.3478    4.2685  -15.9318 C   0  0  0  0  0  0  0  0  0  0  0  0
   -3.7600    3.3189  -15.5857 O   0  0  0  0  0  0  0  0  0  0  0  0
   -4.2224    4.7296  -17.3922 C   0  0  0  0  0  0  0  0  0  0  0  0
   -5.1816    5.7529  -17.8525 C   0  0  0  0  0  0  0  0  0  0  0  0
   -4.9645    7.1099  -17.9773 C   0  0  0  0  0  0  0  0  0  0  0  0
   -6.0888    7.7523  -18.3895 N   0  0  0  0  0  0  0  0  0  0  0  0
   -6.9437    6.7867  -18.6286 C   0  0  0  0  0  0  0  0  0  0  0  0
   -6.4848    5.5760  -18.2430 N   0  0  0  0  0  0  0  0  0  0  0  0
   -7.3319    4.3738  -18.1781 C   0  0  0  0  0  0  0  0  0  0  0  0
   -8.4726    4.2555  -17.1876 C   0  0  0  0  0  0  0  0  0  0  0  0
   -8.7730    4.2955  -18.6502 C   0  0  0  0  0  0  0  0  0  0  0  0
  1  2  1  0
  2  3  1  0
  3  4  2  0
  3  5  1  0
  5  6  1  6
  6  7  1  0
  7  8  2  0
  8  9  1  0
  9 10  1  0
  9 11  2  0
 11 12  1  0
 12 13  1  0
 12 14  2  0
  5 15  1  0
 15 16  1  0
 16 17  2  0
 16 18  1  0
 18 19  1  0
 19 20  2  0
 20 21  1  0
 21 22  2  0
 22 23  1  0
 23 24  1  0
 24 25  1  0
 25 26  1  0
 14  7  1  0
 23 19  1  0
 26 24  1  0
M  END
>  <energy_score>  (2491) 
-5.858367

>  <alias>  (2491) 
None

>  <HIPPO Pose ID>  (2491) 
74976

>  <smiles>  (2491) 
COC(=O)[C@H](Cc1cc(F)nc(F)c1)NC(=O)Cc1cncn1C1CC1

>  <inchikey>  (2491) 
WSBJZCNDPSANHT-ZDUSSCGKSA-N

>  <distance_score>  (2491) 
1.660341

>  <ref_mols>  (2491) 
Z0800a,Z1495a

>  <ref_pdb>  (2491) 
Z0800a

>  <HIPPO Compound ID>  (2491) 
149079

>  <name>  (2491) 
P74976

>  <inspiration_score>  (2491) 
None

$$$$
P74977
     RDKit          3D

 26 29  0  0  0  0  0  0  0  0999 V2000
   -8.4510    2.1117   -8.6893 C   0  0  0  0  0  0  0  0  0  0  0  0
   -8.2445    3.3922   -9.4200 C   0  0  0  0  0  0  0  0  0  0  0  0
   -8.4080    4.5857   -8.8931 N   0  0  0  0  0  0  0  0  0  0  0  0
   -8.1079    5.4635   -9.8868 C   0  0  0  0  0  0  0  0  0  0  0  0
   -7.7289    4.8331  -11.0507 C   0  0  0  0  0  0  0  0  0  0  0  0
   -7.8470    3.5061  -10.7400 N   0  0  0  0  0  0  0  0  0  0  0  0
   -7.6402    2.4114  -11.6434 C   0  0  0  0  0  0  0  0  0  0  0  0
   -7.2090    5.5118  -12.2936 C   0  0  1  0  0  0  0  0  0  0  0  0
   -8.2038    5.5012  -13.4967 C   0  0  0  0  0  0  0  0  0  0  0  0
   -9.3141    5.1626  -13.3986 O   0  0  0  0  0  0  0  0  0  0  0  0
   -7.4342    6.0826  -14.7133 N   0  0  0  0  0  0  0  0  0  0  0  0
   -7.8544    6.2764  -16.0869 C   0  0  0  0  0  0  0  0  0  0  0  0
   -7.6351    5.0807  -17.0732 C   0  0  0  0  0  0  0  0  0  0  0  0
   -6.1531    4.7607  -16.9667 C   0  0  0  0  0  0  0  0  0  0  0  0
   -5.2157    5.2907  -17.8654 C   0  0  0  0  0  0  0  0  0  0  0  0
   -3.8706    5.1497  -17.5906 C   0  0  0  0  0  0  0  0  0  0  0  0
   -3.3910    4.5509  -16.4844 N   0  0  0  0  0  0  0  0  0  0  0  0
   -4.2950    4.0347  -15.6319 C   0  0  0  0  0  0  0  0  0  0  0  0
   -5.6629    4.0988  -15.8373 C   0  0  0  0  0  0  0  0  0  0  0  0
   -8.6627    3.9810  -16.7565 C   0  0  0  0  0  0  0  0  0  0  0  0
   -9.9060    4.4087  -17.5253 C   0  0  0  0  0  0  0  0  0  0  0  0
   -9.3589    4.7761  -18.8695 C   0  0  0  0  0  0  0  0  0  0  0  0
   -8.0151    5.4096  -18.5517 C   0  0  0  0  0  0  0  0  0  0  0  0
   -6.8546    6.9785  -11.9104 C   0  0  0  0  0  0  0  0  0  0  0  0
   -7.9246    7.6435  -11.0231 C   0  0  0  0  0  0  0  0  0  0  0  0
   -8.0906    6.9215   -9.6823 C   0  0  0  0  0  0  0  0  0  0  0  0
  1  2  1  0
  2  3  2  0
  3  4  1  0
  4  5  2  0
  5  6  1  0
  6  7  1  0
  5  8  1  0
  8  9  1  6
  9 10  2  0
  9 11  1  0
 11 12  1  0
 12 13  1  0
 13 14  1  0
 14 15  2  0
 15 16  1  0
 16 17  2  0
 17 18  1  0
 18 19  2  0
 13 20  1  0
 20 21  1  0
 21 22  1  0
 22 23  1  0
  8 24  1  0
 24 25  1  0
 25 26  1  0
  6  2  1  0
 23 13  1  0
 26  4  1  0
 19 14  1  0
M  END
>  <energy_score>  (2492) 
-52.928024

>  <alias>  (2492) 
None

>  <HIPPO Pose ID>  (2492) 
74977

>  <smiles>  (2492) 
Cc1nc2c(n1C)[C@@H](C(=O)NCC1(c3ccncc3)CCCC1)CCC2

>  <inchikey>  (2492) 
QOEQEJRJXFWDFF-KRWDZBQOSA-N

>  <distance_score>  (2492) 
1.669024

>  <ref_mols>  (2492) 
Z1495a,Z0800a

>  <ref_pdb>  (2492) 
Z0800a

>  <HIPPO Compound ID>  (2492) 
149083

>  <name>  (2492) 
P74977

>  <inspiration_score>  (2492) 
None

$$$$
P74978
     RDKit          3D

 26 29  0  0  0  0  0  0  0  0999 V2000
   -5.9495    7.1324  -19.0915 C   0  0  0  0  0  0  0  0  0  0  0  0
   -4.7321    6.4533  -19.4341 N   0  0  0  0  0  0  0  0  0  0  0  0
   -4.2698    6.3058  -20.7148 C   0  0  0  0  0  0  0  0  0  0  0  0
   -3.1220    5.6564  -20.7644 N   0  0  0  0  0  0  0  0  0  0  0  0
   -2.8100    5.4266  -19.4477 C   0  0  0  0  0  0  0  0  0  0  0  0
   -3.7456    5.9997  -18.6111 C   0  0  0  0  0  0  0  0  0  0  0  0
   -3.5596    6.1896  -17.0686 C   0  0  0  0  0  0  0  0  0  0  0  0
   -4.1872    5.1254  -16.2141 C   0  0  0  0  0  0  0  0  0  0  0  0
   -3.6633    4.0907  -16.1189 O   0  0  0  0  0  0  0  0  0  0  0  0
   -5.5152    5.6274  -15.6267 N   0  0  0  0  0  0  0  0  0  0  0  0
   -6.5366    4.9258  -14.8683 C   0  0  1  0  0  0  0  0  0  0  0  0
   -7.4365    5.8614  -14.0392 C   0  0  0  0  0  0  0  0  0  0  0  0
   -7.6779    5.4277  -12.6091 C   0  0  0  0  0  0  0  0  0  0  0  0
   -8.0054    4.1146  -12.2564 C   0  0  0  0  0  0  0  0  0  0  0  0
   -8.1958    3.8074  -10.9139 C   0  0  0  0  0  0  0  0  0  0  0  0
   -8.0950    4.7120   -9.9144 N   0  0  0  0  0  0  0  0  0  0  0  0
   -7.8234    5.9797  -10.2763 C   0  0  0  0  0  0  0  0  0  0  0  0
   -7.6142    6.3809  -11.5865 C   0  0  0  0  0  0  0  0  0  0  0  0
   -7.2884    4.0424  -15.8704 C   0  0  0  0  0  0  0  0  0  0  0  0
   -8.0814    4.7791  -16.9541 C   0  0  0  0  0  0  0  0  0  0  0  0
   -9.5588    4.8819  -16.6322 C   0  0  0  0  0  0  0  0  0  0  0  0
  -10.3266    4.7996  -17.9540 C   0  0  0  0  0  0  0  0  0  0  0  0
   -9.2505    4.7508  -19.0064 C   0  0  0  0  0  0  0  0  0  0  0  0
   -8.1210    4.0546  -18.2926 C   0  0  0  0  0  0  0  0  0  0  0  0
   -3.3829    7.6023  -16.5396 C   0  0  0  0  0  0  0  0  0  0  0  0
   -2.1967    6.6955  -16.6375 C   0  0  0  0  0  0  0  0  0  0  0  0
  1  2  1  0
  2  3  1  0
  3  4  2  0
  4  5  1  0
  5  6  2  0
  6  7  1  0
  7  8  1  0
  8  9  2  0
  8 10  1  0
 10 11  1  0
 11 12  1  6
 12 13  1  0
 13 14  2  0
 14 15  1  0
 15 16  2  0
 16 17  1  0
 17 18  2  0
 11 19  1  0
 19 20  1  0
 20 21  1  0
 21 22  1  0
 22 23  1  0
 23 24  1  0
  7 25  1  0
 25 26  1  0
  6  2  1  0
 26  7  1  0
 18 13  1  0
 24 20  1  0
M  END
>  <energy_score>  (2493) 
-24.881109

>  <alias>  (2493) 
None

>  <HIPPO Pose ID>  (2493) 
74978

>  <smiles>  (2493) 
Cn1cncc1C1(C(=O)N[C@@H](Cc2ccncc2)CC2CCCC2)CC1

>  <inchikey>  (2493) 
JXBGJXIAQWMMMR-GOSISDBHSA-N

>  <distance_score>  (2493) 
1.697369

>  <ref_mols>  (2493) 
Z1495a,Z0800a

>  <ref_pdb>  (2493) 
Z0800a

>  <HIPPO Compound ID>  (2493) 
149084

>  <name>  (2493) 
P74978

>  <inspiration_score>  (2493) 
None

$$$$
P74980
     RDKit          3D

 26 28  0  0  0  0  0  0  0  0999 V2000
  -10.2367    4.7943  -17.9948 C   0  0  0  0  0  0  0  0  0  0  0  0
   -8.7845    4.9666  -18.3564 C   0  0  2  0  0  0  0  0  0  0  0  0
   -8.3857    4.0266  -19.4665 C   0  0  0  0  0  0  0  0  0  0  0  0
   -6.9199    4.2630  -19.8579 C   0  0  0  0  0  0  0  0  0  0  0  0
   -5.9953    4.9393  -18.8475 C   0  0  0  0  0  0  0  0  0  0  0  0
   -6.4852    4.7696  -17.5090 N   0  0  0  0  0  0  0  0  0  0  0  0
   -5.8186    4.6421  -16.3318 C   0  0  0  0  0  0  0  0  0  0  0  0
   -4.4499    5.1398  -16.0195 C   0  0  0  0  0  0  0  0  0  0  0  0
   -4.5330    6.0658  -14.7697 C   0  0  0  0  0  0  0  0  0  0  0  0
   -3.7613    6.0082  -13.8920 O   0  0  0  0  0  0  0  0  0  0  0  0
   -5.8239    6.9293  -14.9255 N   0  0  0  0  0  0  0  0  0  0  0  0
   -6.4732    7.8219  -13.9934 C   0  0  2  0  0  0  0  0  0  0  0  0
   -5.5179    8.3858  -12.9352 C   0  0  0  0  0  0  0  0  0  0  0  0
   -6.0749    9.5512  -12.3292 O   0  0  0  0  0  0  0  0  0  0  0  0
   -7.8197    7.1904  -13.5064 C   0  0  0  0  0  0  0  0  0  0  0  0
   -7.8650    6.4816  -12.1754 C   0  0  0  0  0  0  0  0  0  0  0  0
   -7.8296    7.2373  -10.9987 C   0  0  0  0  0  0  0  0  0  0  0  0
   -7.8769    6.5987   -9.7712 C   0  0  0  0  0  0  0  0  0  0  0  0
   -7.7506    7.6379   -8.1903 Br  0  0  0  0  0  0  0  0  0  0  0  0
   -7.9977    5.2733   -9.6317 N   0  0  0  0  0  0  0  0  0  0  0  0
   -8.0939    4.5577  -10.7708 C   0  0  0  0  0  0  0  0  0  0  0  0
   -8.3722    2.7149  -10.5627 Br  0  0  0  0  0  0  0  0  0  0  0  0
   -8.0277    5.1018  -12.0501 C   0  0  0  0  0  0  0  0  0  0  0  0
   -6.7857    4.1487  -15.4779 C   0  0  0  0  0  0  0  0  0  0  0  0
   -8.0357    4.3094  -16.0129 N   0  0  0  0  0  0  0  0  0  0  0  0
   -7.8296    4.7114  -17.2427 C   0  0  0  0  0  0  0  0  0  0  0  0
  2  1  1  1
  2  3  1  0
  3  4  1  0
  4  5  1  0
  5  6  1  0
  6  7  1  0
  7  8  1  0
  8  9  1  0
  9 10  2  0
  9 11  1  0
 11 12  1  0
 12 13  1  1
 13 14  1  0
 12 15  1  0
 15 16  1  0
 16 17  2  0
 17 18  1  0
 18 19  1  0
 18 20  2  0
 20 21  1  0
 21 22  1  0
 21 23  2  0
  7 24  2  0
 24 25  1  0
 25 26  2  0
 26  2  1  0
 26  6  1  0
 23 16  1  0
M  END
>  <energy_score>  (2494) 
-12.227754

>  <alias>  (2494) 
None

>  <HIPPO Pose ID>  (2494) 
74980

>  <smiles>  (2494) 
C[C@@H]1CCCn2c(CC(=O)N[C@H](CO)Cc3cc(Br)nc(Br)c3)cnc21

>  <inchikey>  (2494) 
SJXLNIUWYOXISE-YPMHNXCESA-N

>  <distance_score>  (2494) 
1.82782

>  <ref_mols>  (2494) 
Z0800a,Z1495a

>  <ref_pdb>  (2494) 
Z0800a

>  <HIPPO Compound ID>  (2494) 
149090

>  <name>  (2494) 
P74980

>  <inspiration_score>  (2494) 
None

$$$$
P74982
     RDKit          3D

 26 29  0  0  0  0  0  0  0  0999 V2000
   -9.7983    4.9970  -18.6879 C   0  0  0  0  0  0  0  0  0  0  0  0
   -8.4427    4.5990  -18.1318 C   0  0  2  0  0  0  0  0  0  0  0  0
   -8.6720    4.0182  -16.7227 C   0  0  0  0  0  0  0  0  0  0  0  0
   -7.4132    3.9408  -15.8520 C   0  0  0  0  0  0  0  0  0  0  0  0
   -6.1324    4.1762  -16.6341 C   0  0  0  0  0  0  0  0  0  0  0  0
   -6.2312    5.4214  -17.3450 N   0  0  0  0  0  0  0  0  0  0  0  0
   -5.4037    6.5049  -17.3896 C   0  0  0  0  0  0  0  0  0  0  0  0
   -4.0800    6.6939  -16.7226 C   0  0  0  0  0  0  0  0  0  0  0  0
   -3.9574    6.1390  -15.3010 C   0  0  0  0  0  0  0  0  0  0  0  0
   -3.0018    5.5548  -14.9679 O   0  0  0  0  0  0  0  0  0  0  0  0
   -5.2722    6.4362  -14.5332 N   0  0  0  0  0  0  0  0  0  0  0  0
   -5.7165    5.9967  -13.2397 C   0  0  0  0  0  0  0  0  0  0  0  0
   -7.0419    6.6413  -12.7923 C   0  0  0  0  0  0  0  0  0  0  0  0
   -7.5851    5.7370  -11.5655 C   0  0  0  0  0  0  0  0  0  0  0  0
   -7.5225    6.1812  -10.2342 C   0  0  0  0  0  0  0  0  0  0  0  0
   -7.9195    5.3549   -9.1958 C   0  0  0  0  0  0  0  0  0  0  0  0
   -8.3626    4.1001   -9.3683 N   0  0  0  0  0  0  0  0  0  0  0  0
   -8.4379    3.6595  -10.6438 C   0  0  0  0  0  0  0  0  0  0  0  0
   -8.0820    4.4338  -11.7380 C   0  0  0  0  0  0  0  0  0  0  0  0
   -8.1855    3.9250  -12.9705 F   0  0  0  0  0  0  0  0  0  0  0  0
   -8.1493    7.1086  -13.8158 C   0  0  0  0  0  0  0  0  0  0  0  0
   -7.5478    8.5256  -13.7734 C   0  0  0  0  0  0  0  0  0  0  0  0
   -6.8452    8.1724  -12.4707 C   0  0  0  0  0  0  0  0  0  0  0  0
   -6.0857    7.3708  -18.2114 C   0  0  0  0  0  0  0  0  0  0  0  0
   -7.2990    6.8660  -18.5867 N   0  0  0  0  0  0  0  0  0  0  0  0
   -7.3751    5.6659  -18.0703 C   0  0  0  0  0  0  0  0  0  0  0  0
  2  1  1  1
  2  3  1  0
  3  4  1  0
  4  5  1  0
  5  6  1  0
  6  7  1  0
  7  8  1  0
  8  9  1  0
  9 10  2  0
  9 11  1  0
 11 12  1  0
 12 13  1  0
 13 14  1  0
 14 15  2  0
 15 16  1  0
 16 17  2  0
 17 18  1  0
 18 19  2  0
 19 20  1  0
 13 21  1  0
 21 22  1  0
 22 23  1  0
  7 24  2  0
 24 25  1  0
 25 26  2  0
 26  2  1  0
 26  6  1  0
 23 13  1  0
 19 14  1  0
M  END
>  <energy_score>  (2495) 
-31.587804

>  <alias>  (2495) 
None

>  <HIPPO Pose ID>  (2495) 
74982

>  <smiles>  (2495) 
C[C@@H]1CCCn2c(CC(=O)NCC3(c4ccncc4F)CCC3)cnc21

>  <inchikey>  (2495) 
JKXBBDZLBSEWGG-CQSZACIVSA-N

>  <distance_score>  (2495) 
1.824088

>  <ref_mols>  (2495) 
Z1495a,Z0800a

>  <ref_pdb>  (2495) 
Z0800a

>  <HIPPO Compound ID>  (2495) 
149091

>  <name>  (2495) 
P74982

>  <inspiration_score>  (2495) 
None

$$$$
P74983
     RDKit          3D

 26 28  0  0  0  0  0  0  0  0999 V2000
   -8.6684    2.3947   -8.4727 C   0  0  0  0  0  0  0  0  0  0  0  0
   -8.5830    2.7058   -9.8559 O   0  0  0  0  0  0  0  0  0  0  0  0
   -8.2956    4.0315  -10.0892 C   0  0  0  0  0  0  0  0  0  0  0  0
   -7.9469    4.3518  -11.3869 C   0  0  0  0  0  0  0  0  0  0  0  0
   -7.6214    5.6820  -11.7093 C   0  0  0  0  0  0  0  0  0  0  0  0
   -7.0828    6.0289  -13.0933 C   0  0  0  0  0  0  0  0  0  0  0  0
   -7.8935    5.2673  -14.1378 C   0  0  0  0  0  0  0  0  0  0  0  0
   -7.2072    7.5188  -13.4815 C   0  0  0  0  0  0  0  0  0  0  0  0
   -5.5754    5.6149  -13.0849 C   0  0  0  0  0  0  0  0  0  0  0  0
   -5.1002    5.3084  -14.4010 N   0  0  0  0  0  0  0  0  0  0  0  0
   -4.2330    6.1410  -15.3757 C   0  0  0  0  0  0  0  0  0  0  0  0
   -3.7077    7.1721  -15.2279 O   0  0  0  0  0  0  0  0  0  0  0  0
   -4.2639    5.3769  -16.7045 C   0  0  0  0  0  0  0  0  0  0  0  0
   -5.4870    5.8109  -17.4339 C   0  0  0  0  0  0  0  0  0  0  0  0
   -5.7201    6.9854  -18.1143 C   0  0  0  0  0  0  0  0  0  0  0  0
   -6.9762    7.0114  -18.6526 N   0  0  0  0  0  0  0  0  0  0  0  0
   -7.5049    5.8423  -18.3700 C   0  0  0  0  0  0  0  0  0  0  0  0
   -6.6844    5.1588  -17.5245 N   0  0  0  0  0  0  0  0  0  0  0  0
   -7.1296    3.8962  -17.0116 C   0  0  0  0  0  0  0  0  0  0  0  0
   -8.6503    3.7325  -16.7716 C   0  0  0  0  0  0  0  0  0  0  0  0
   -9.5145    4.7921  -17.4332 C   0  0  0  0  0  0  0  0  0  0  0  0
   -8.8472    5.2563  -18.7162 C   0  0  2  0  0  0  0  0  0  0  0  0
   -8.7650    4.0855  -19.6905 C   0  0  0  0  0  0  0  0  0  0  0  0
   -7.7061    6.6289  -10.6899 C   0  0  0  0  0  0  0  0  0  0  0  0
   -8.0695    6.2100   -9.4208 C   0  0  0  0  0  0  0  0  0  0  0  0
   -8.3556    4.9356   -9.0929 N   0  0  0  0  0  0  0  0  0  0  0  0
  1  2  1  0
  2  3  1  0
  3  4  2  0
  4  5  1  0
  5  6  1  0
  6  7  1  0
  6  8  1  0
  6  9  1  0
  9 10  1  0
 10 11  1  0
 11 12  2  0
 11 13  1  0
 13 14  1  0
 14 15  2  0
 15 16  1  0
 16 17  2  0
 17 18  1  0
 18 19  1  0
 19 20  1  0
 20 21  1  0
 21 22  1  0
 22 23  1  6
  5 24  2  0
 24 25  1  0
 25 26  2  0
 26  3  1  0
 18 14  1  0
 22 17  1  0
M  END
>  <energy_score>  (2496) 
-16.876464

>  <alias>  (2496) 
None

>  <HIPPO Pose ID>  (2496) 
74983

>  <smiles>  (2496) 
COc1cc(C(C)(C)CNC(=O)Cc2cnc3n2CCC[C@@H]3C)ccn1

>  <inchikey>  (2496) 
HCBBLPUOPCMYRH-AWEZNQCLSA-N

>  <distance_score>  (2496) 
1.661279

>  <ref_mols>  (2496) 
Z1495a,Z0800a

>  <ref_pdb>  (2496) 
Z0800a

>  <HIPPO Compound ID>  (2496) 
149092

>  <name>  (2496) 
P74983

>  <inspiration_score>  (2496) 
None

$$$$
P74984
     RDKit          3D

 26 29  0  0  0  0  0  0  0  0999 V2000
   -9.9272    5.1887  -17.8520 C   0  0  0  0  0  0  0  0  0  0  0  0
   -8.5007    4.7184  -18.0203 C   0  0  1  0  0  0  0  0  0  0  0  0
   -8.3919    3.9874  -19.3466 C   0  0  0  0  0  0  0  0  0  0  0  0
   -6.9963    4.0418  -19.9483 C   0  0  0  0  0  0  0  0  0  0  0  0
   -5.8722    4.2264  -18.9503 C   0  0  0  0  0  0  0  0  0  0  0  0
   -6.1142    5.4044  -18.1693 N   0  0  0  0  0  0  0  0  0  0  0  0
   -5.2492    6.1574  -17.4304 C   0  0  0  0  0  0  0  0  0  0  0  0
   -3.8572    5.7870  -17.0452 C   0  0  0  0  0  0  0  0  0  0  0  0
   -3.6854    5.8157  -15.4974 C   0  0  0  0  0  0  0  0  0  0  0  0
   -2.7252    6.2525  -14.9921 O   0  0  0  0  0  0  0  0  0  0  0  0
   -4.9515    5.1678  -14.8651 N   0  0  0  0  0  0  0  0  0  0  0  0
   -5.3341    5.0128  -13.4793 C   0  0  0  0  0  0  0  0  0  0  0  0
   -6.8565    4.7896  -13.3647 C   0  0  0  0  0  0  0  0  0  0  0  0
   -7.2638    4.6552  -11.8036 C   0  0  0  0  0  0  0  0  0  0  0  0
   -7.3782    5.7947  -10.9873 C   0  0  0  0  0  0  0  0  0  0  0  0
   -7.8305    5.6688   -9.6862 C   0  0  0  0  0  0  0  0  0  0  0  0
   -8.1716    4.4957   -9.1259 N   0  0  0  0  0  0  0  0  0  0  0  0
   -8.0686    3.4052   -9.9049 C   0  0  0  0  0  0  0  0  0  0  0  0
   -8.4469    2.2391   -9.3129 O   0  0  0  0  0  0  0  0  0  0  0  0
   -7.6180    3.4301  -11.2114 C   0  0  0  0  0  0  0  0  0  0  0  0
   -7.4465    3.6858  -14.3261 C   0  0  0  0  0  0  0  0  0  0  0  0
   -8.7172    4.5415  -14.3864 C   0  0  0  0  0  0  0  0  0  0  0  0
   -7.8432    5.7684  -14.1134 C   0  0  0  0  0  0  0  0  0  0  0  0
   -6.0428    7.1928  -16.9990 C   0  0  0  0  0  0  0  0  0  0  0  0
   -7.3647    6.8838  -17.1880 N   0  0  0  0  0  0  0  0  0  0  0  0
   -7.3979    5.7322  -17.8180 C   0  0  0  0  0  0  0  0  0  0  0  0
  2  1  1  6
  2  3  1  0
  3  4  1  0
  4  5  1  0
  5  6  1  0
  6  7  1  0
  7  8  1  0
  8  9  1  0
  9 10  2  0
  9 11  1  0
 11 12  1  0
 12 13  1  0
 13 14  1  0
 14 15  2  0
 15 16  1  0
 16 17  2  0
 17 18  1  0
 18 19  1  0
 18 20  2  0
 13 21  1  0
 21 22  1  0
 22 23  1  0
  7 24  2  0
 24 25  1  0
 25 26  2  0
 26  2  1  0
 26  6  1  0
 23 13  1  0
 20 14  1  0
M  END
>  <energy_score>  (2497) 
-34.364494

>  <alias>  (2497) 
None

>  <HIPPO Pose ID>  (2497) 
74984

>  <smiles>  (2497) 
C[C@H]1CCCn2c(CC(=O)NCC3(c4ccnc(O)c4)CCC3)cnc21

>  <inchikey>  (2497) 
YZPCHDFUPTUGFO-AWEZNQCLSA-N

>  <distance_score>  (2497) 
1.424155

>  <ref_mols>  (2497) 
Z0800a,Z1495a

>  <ref_pdb>  (2497) 
Z0800a

>  <HIPPO Compound ID>  (2497) 
149100

>  <name>  (2497) 
P74984

>  <inspiration_score>  (2497) 
None

$$$$
P74985
     RDKit          3D

 26 28  0  0  0  0  0  0  0  0999 V2000
   -5.1331    9.1827  -10.4744 C   0  0  0  0  0  0  0  0  0  0  0  0
   -5.9728    8.8449  -11.5795 O   0  0  0  0  0  0  0  0  0  0  0  0
   -5.5675    7.7330  -12.2606 C   0  0  0  0  0  0  0  0  0  0  0  0
   -4.5935    7.0484  -11.9694 O   0  0  0  0  0  0  0  0  0  0  0  0
   -6.5059    7.4665  -13.4384 C   0  0  2  0  0  0  0  0  0  0  0  0
   -7.8993    6.9336  -13.0598 C   0  0  0  0  0  0  0  0  0  0  0  0
   -7.9353    5.8859  -11.9794 C   0  0  0  0  0  0  0  0  0  0  0  0
   -7.9779    4.5148  -12.2420 C   0  0  0  0  0  0  0  0  0  0  0  0
   -8.0144    3.6390  -11.1637 C   0  0  0  0  0  0  0  0  0  0  0  0
   -7.9905    4.0350   -9.8724 N   0  0  0  0  0  0  0  0  0  0  0  0
   -7.9740    5.3586   -9.6428 C   0  0  0  0  0  0  0  0  0  0  0  0
   -7.9518    6.3071  -10.6458 C   0  0  0  0  0  0  0  0  0  0  0  0
   -5.8646    6.6043  -14.4065 N   0  0  0  0  0  0  0  0  0  0  0  0
   -5.1706    6.9423  -15.7532 C   0  0  0  0  0  0  0  0  0  0  0  0
   -5.0785    7.9575  -16.3227 O   0  0  0  0  0  0  0  0  0  0  0  0
   -4.6657    5.6177  -16.3309 C   0  0  0  0  0  0  0  0  0  0  0  0
   -5.5822    5.1186  -17.4033 C   0  0  0  0  0  0  0  0  0  0  0  0
   -5.2758    4.6598  -18.6618 C   0  0  0  0  0  0  0  0  0  0  0  0
   -6.3927    4.2433  -19.3316 N   0  0  0  0  0  0  0  0  0  0  0  0
   -7.4061    4.4598  -18.5334 C   0  0  0  0  0  0  0  0  0  0  0  0
   -6.9546    5.0047  -17.3585 N   0  0  0  0  0  0  0  0  0  0  0  0
   -7.8446    5.4978  -16.3420 C   0  0  0  0  0  0  0  0  0  0  0  0
   -9.3239    5.3077  -16.6162 C   0  0  0  0  0  0  0  0  0  0  0  0
   -9.6569    5.3478  -18.1116 C   0  0  0  0  0  0  0  0  0  0  0  0
   -8.8669    4.2924  -18.8356 C   0  0  2  0  0  0  0  0  0  0  0  0
   -9.4626    2.9977  -18.3831 C   0  0  0  0  0  0  0  0  0  0  0  0
  1  2  1  0
  2  3  1  0
  3  4  2  0
  3  5  1  0
  5  6  1  1
  6  7  1  0
  7  8  2  0
  8  9  1  0
  9 10  2  0
 10 11  1  0
 11 12  2  0
  5 13  1  0
 13 14  1  0
 14 15  2  0
 14 16  1  0
 16 17  1  0
 17 18  2  0
 18 19  1  0
 19 20  2  0
 20 21  1  0
 21 22  1  0
 22 23  1  0
 23 24  1  0
 24 25  1  0
 25 26  1  1
 12  7  1  0
 21 17  1  0
 25 20  1  0
M  END
>  <energy_score>  (2498) 
-0.201258

>  <alias>  (2498) 
None

>  <HIPPO Pose ID>  (2498) 
74985

>  <smiles>  (2498) 
COC(=O)[C@H](Cc1ccncc1)NC(=O)Cc1cnc2n1CCC[C@@H]2C

>  <inchikey>  (2498) 
HXLQRHZEVUGAFD-BBRMVZONSA-N

>  <distance_score>  (2498) 
1.875685

>  <ref_mols>  (2498) 
Z0800a,Z1495a

>  <ref_pdb>  (2498) 
Z0800a

>  <HIPPO Compound ID>  (2498) 
149102

>  <name>  (2498) 
P74985

>  <inspiration_score>  (2498) 
None

$$$$
P74987
     RDKit          3D

 26 27  0  0  0  0  0  0  0  0999 V2000
   -2.4966    7.3260  -15.9471 C   0  0  0  0  0  0  0  0  0  0  0  0
   -3.1441    6.7340  -17.0946 N   0  0  0  0  0  0  0  0  0  0  0  0
   -2.7269    5.5851  -17.6977 C   0  0  0  0  0  0  0  0  0  0  0  0
   -3.4743    5.2861  -18.7301 N   0  0  0  0  0  0  0  0  0  0  0  0
   -4.3976    6.2901  -18.8162 C   0  0  0  0  0  0  0  0  0  0  0  0
   -4.2731    7.1703  -17.7583 C   0  0  0  0  0  0  0  0  0  0  0  0
   -5.1102    8.3281  -17.2871 C   0  0  1  0  0  0  0  0  0  0  0  0
   -6.1358    8.5455  -18.2445 O   0  0  0  0  0  0  0  0  0  0  0  0
   -5.6102    8.0078  -15.8180 C   0  0  0  0  0  0  0  0  0  0  0  0
   -5.3348    8.6494  -14.8831 O   0  0  0  0  0  0  0  0  0  0  0  0
   -6.3955    6.6797  -15.9261 N   0  0  0  0  0  0  0  0  0  0  0  0
   -6.9288    5.8060  -14.8855 C   0  0  1  0  0  0  0  0  0  0  0  0
   -7.9811    6.4164  -13.9671 C   0  0  0  0  0  0  0  0  0  0  0  0
   -7.9649    5.8362  -12.5668 C   0  0  0  0  0  0  0  0  0  0  0  0
   -8.1762    4.4769  -12.3033 C   0  0  0  0  0  0  0  0  0  0  0  0
   -8.1510    4.0340  -10.9852 C   0  0  0  0  0  0  0  0  0  0  0  0
   -7.9357    4.8453   -9.9256 N   0  0  0  0  0  0  0  0  0  0  0  0
   -7.7511    6.1512  -10.1978 C   0  0  0  0  0  0  0  0  0  0  0  0
   -7.7552    6.6856  -11.4771 C   0  0  0  0  0  0  0  0  0  0  0  0
   -7.5798    4.6998  -15.7061 C   0  0  0  0  0  0  0  0  0  0  0  0
   -7.5600    3.5233  -15.3979 O   0  0  0  0  0  0  0  0  0  0  0  0
   -8.1779    5.2645  -16.7981 O   0  0  0  0  0  0  0  0  0  0  0  0
   -8.5356    4.4998  -17.9605 C   0  0  0  0  0  0  0  0  0  0  0  0
   -9.5039    3.3958  -17.6666 C   0  0  0  0  0  0  0  0  0  0  0  0
   -9.3028    5.4394  -18.8435 C   0  0  0  0  0  0  0  0  0  0  0  0
   -7.2785    4.1153  -18.7158 C   0  0  0  0  0  0  0  0  0  0  0  0
  1  2  1  0
  2  3  1  0
  3  4  2  0
  4  5  1  0
  5  6  2  0
  6  7  1  0
  7  8  1  6
  7  9  1  0
  9 10  2  0
  9 11  1  0
 11 12  1  0
 12 13  1  6
 13 14  1  0
 14 15  2  0
 15 16  1  0
 16 17  2  0
 17 18  1  0
 18 19  2  0
 12 20  1  0
 20 21  2  0
 20 22  1  0
 22 23  1  0
 23 24  1  0
 23 25  1  0
 23 26  1  0
  6  2  1  0
 19 14  1  0
M  END
>  <energy_score>  (2499) 
-26.894743

>  <alias>  (2499) 
None

>  <HIPPO Pose ID>  (2499) 
74987

>  <smiles>  (2499) 
Cn1cncc1[C@@H](O)C(=O)N[C@@H](Cc1ccncc1)C(=O)OC(C)(C)C

>  <inchikey>  (2499) 
YIOPVJDHOVYYGW-DZGCQCFKSA-N

>  <distance_score>  (2499) 
1.862267

>  <ref_mols>  (2499) 
Z1495a,Z0800a

>  <ref_pdb>  (2499) 
Z0800a

>  <HIPPO Compound ID>  (2499) 
149106

>  <name>  (2499) 
P74987

>  <inspiration_score>  (2499) 
None

$$$$
P74988
     RDKit          3D

 26 28  0  0  0  0  0  0  0  0999 V2000
   -8.6487    2.3672   -8.6117 C   0  0  0  0  0  0  0  0  0  0  0  0
   -8.6358    2.6841   -9.9982 O   0  0  0  0  0  0  0  0  0  0  0  0
   -8.3623    4.0111  -10.2386 C   0  0  0  0  0  0  0  0  0  0  0  0
   -8.1372    4.3605  -11.5590 C   0  0  0  0  0  0  0  0  0  0  0  0
   -7.8270    5.6956  -11.8757 C   0  0  0  0  0  0  0  0  0  0  0  0
   -7.3924    6.0707  -13.2950 C   0  0  0  0  0  0  0  0  0  0  0  0
   -8.4788    5.6447  -14.2965 C   0  0  0  0  0  0  0  0  0  0  0  0
   -7.1817    7.5929  -13.4944 C   0  0  0  0  0  0  0  0  0  0  0  0
   -6.0328    5.3399  -13.4955 C   0  0  0  0  0  0  0  0  0  0  0  0
   -5.4317    5.5066  -14.7830 N   0  0  0  0  0  0  0  0  0  0  0  0
   -4.4288    4.6058  -15.5503 C   0  0  0  0  0  0  0  0  0  0  0  0
   -3.8804    3.6294  -15.2174 O   0  0  0  0  0  0  0  0  0  0  0  0
   -4.2560    5.1732  -16.9583 C   0  0  0  0  0  0  0  0  0  0  0  0
   -5.4953    5.7654  -17.5433 C   0  0  0  0  0  0  0  0  0  0  0  0
   -5.7116    7.0166  -18.0866 C   0  0  0  0  0  0  0  0  0  0  0  0
   -4.7746    8.1543  -18.2175 C   0  0  0  0  0  0  0  0  0  0  0  0
   -6.9872    7.1141  -18.5810 N   0  0  0  0  0  0  0  0  0  0  0  0
   -7.5292    5.9303  -18.4095 C   0  0  0  0  0  0  0  0  0  0  0  0
   -6.7215    5.1624  -17.6388 N   0  0  0  0  0  0  0  0  0  0  0  0
   -7.1832    3.8772  -17.2001 C   0  0  0  0  0  0  0  0  0  0  0  0
   -8.7107    3.6512  -17.1079 C   0  0  0  0  0  0  0  0  0  0  0  0
   -9.5662    4.7506  -17.6883 C   0  0  0  0  0  0  0  0  0  0  0  0
   -8.8309    5.3536  -18.8561 C   0  0  0  0  0  0  0  0  0  0  0  0
   -7.8152    6.6163  -10.8253 C   0  0  0  0  0  0  0  0  0  0  0  0
   -8.0636    6.1710   -9.5384 C   0  0  0  0  0  0  0  0  0  0  0  0
   -8.3249    4.8922   -9.2192 N   0  0  0  0  0  0  0  0  0  0  0  0
  1  2  1  0
  2  3  1  0
  3  4  2  0
  4  5  1  0
  5  6  1  0
  6  7  1  0
  6  8  1  0
  6  9  1  0
  9 10  1  0
 10 11  1  0
 11 12  2  0
 11 13  1  0
 13 14  1  0
 14 15  2  0
 15 16  1  0
 15 17  1  0
 17 18  2  0
 18 19  1  0
 19 20  1  0
 20 21  1  0
 21 22  1  0
 22 23  1  0
  5 24  2  0
 24 25  1  0
 25 26  2  0
 26  3  1  0
 19 14  1  0
 23 18  1  0
M  END
>  <energy_score>  (2500) 
-25.049157

>  <alias>  (2500) 
None

>  <HIPPO Pose ID>  (2500) 
74988

>  <smiles>  (2500) 
COc1cc(C(C)(C)CNC(=O)Cc2c(C)nc3n2CCCC3)ccn1

>  <inchikey>  (2500) 
MJFVDAGGTOXGHJ-UHFFFAOYSA-N

>  <distance_score>  (2500) 
1.449402

>  <ref_mols>  (2500) 
Z1495a,Z0800a

>  <ref_pdb>  (2500) 
Z0800a

>  <HIPPO Compound ID>  (2500) 
149111

>  <name>  (2500) 
P74988

>  <inspiration_score>  (2500) 
None

$$$$
P74990
     RDKit          3D

 26 27  0  0  0  0  0  0  0  0999 V2000
   -5.1927    9.6605  -15.5806 C   0  0  0  0  0  0  0  0  0  0  0  0
   -5.8510    8.3957  -15.4925 O   0  0  0  0  0  0  0  0  0  0  0  0
   -6.3624    8.1217  -14.2530 C   0  0  0  0  0  0  0  0  0  0  0  0
   -6.3621    8.9172  -13.3214 O   0  0  0  0  0  0  0  0  0  0  0  0
   -6.8724    6.6794  -14.1691 C   0  0  1  0  0  0  0  0  0  0  0  0
   -8.2360    6.5716  -13.4865 C   0  0  0  0  0  0  0  0  0  0  0  0
   -8.1162    6.1255  -12.0568 C   0  0  0  0  0  0  0  0  0  0  0  0
   -7.9263    7.0756  -11.0543 C   0  0  0  0  0  0  0  0  0  0  0  0
   -7.8561    6.6487   -9.7433 C   0  0  0  0  0  0  0  0  0  0  0  0
   -7.9725    5.3643   -9.3702 N   0  0  0  0  0  0  0  0  0  0  0  0
   -8.1485    4.4524  -10.3524 C   0  0  0  0  0  0  0  0  0  0  0  0
   -8.3912    2.6693   -9.8056 Br  0  0  0  0  0  0  0  0  0  0  0  0
   -8.2018    4.7744  -11.7011 C   0  0  0  0  0  0  0  0  0  0  0  0
   -6.9789    6.0351  -15.4509 N   0  0  0  0  0  0  0  0  0  0  0  0
   -7.2217    4.5541  -15.8111 C   0  0  0  0  0  0  0  0  0  0  0  0
   -7.4497    3.6383  -15.1272 O   0  0  0  0  0  0  0  0  0  0  0  0
   -7.2018    4.4419  -17.3675 C   0  0  2  0  0  0  0  0  0  0  0  0
   -5.8883    4.9869  -17.8529 C   0  0  0  0  0  0  0  0  0  0  0  0
   -4.6348    4.6048  -17.4021 C   0  0  0  0  0  0  0  0  0  0  0  0
   -3.6360    5.2494  -18.0550 N   0  0  0  0  0  0  0  0  0  0  0  0
   -4.2579    6.0473  -18.8837 C   0  0  0  0  0  0  0  0  0  0  0  0
   -5.6163    5.9881  -18.7442 N   0  0  0  0  0  0  0  0  0  0  0  0
   -6.4482    6.9885  -19.3487 C   0  0  0  0  0  0  0  0  0  0  0  0
   -8.4092    4.9976  -18.0137 N   0  0  0  0  0  0  0  0  0  0  0  0
   -9.6135    4.8659  -17.1908 C   0  0  0  0  0  0  0  0  0  0  0  0
   -8.6682    4.2350  -19.2504 C   0  0  0  0  0  0  0  0  0  0  0  0
  1  2  1  0
  2  3  1  0
  3  4  2  0
  3  5  1  0
  5  6  1  6
  6  7  1  0
  7  8  2  0
  8  9  1  0
  9 10  2  0
 10 11  1  0
 11 12  1  0
 11 13  2  0
  5 14  1  0
 14 15  1  0
 15 16  2  0
 15 17  1  0
 17 18  1  0
 18 19  2  0
 19 20  1  0
 20 21  2  0
 21 22  1  0
 22 23  1  0
 17 24  1  6
 24 25  1  0
 24 26  1  0
 13  7  1  0
 22 18  1  0
M  END
>  <energy_score>  (2501) 
-36.831543

>  <alias>  (2501) 
None

>  <HIPPO Pose ID>  (2501) 
74990

>  <smiles>  (2501) 
COC(=O)[C@@H](Cc1ccnc(Br)c1)NC(=O)[C@H](c1cncn1C)N(C)C

>  <inchikey>  (2501) 
IUQDFMGDLQEMLI-DOMZBBRYSA-N

>  <distance_score>  (2501) 
1.794226

>  <ref_mols>  (2501) 
Z1495a,Z0800a

>  <ref_pdb>  (2501) 
Z0800a

>  <HIPPO Compound ID>  (2501) 
149114

>  <name>  (2501) 
P74990

>  <inspiration_score>  (2501) 
None

$$$$
P74992
     RDKit          3D

 26 29  0  0  0  0  0  0  0  0999 V2000
   -5.6403    6.8388  -13.0893 O   0  0  0  0  0  0  0  0  0  0  0  0
   -6.6154    6.2341  -13.3108 C   0  0  0  0  0  0  0  0  0  0  0  0
   -7.0782    5.5083  -14.6064 N   0  0  0  0  0  0  0  0  0  0  0  0
   -6.4730    5.4599  -15.9325 C   0  0  1  0  0  0  0  0  0  0  0  0
   -4.9446    5.3394  -15.9800 C   0  0  0  0  0  0  0  0  0  0  0  0
   -4.3348    5.3938  -17.3751 C   0  0  0  0  0  0  0  0  0  0  0  0
   -5.0064    5.8955  -18.4934 C   0  0  0  0  0  0  0  0  0  0  0  0
   -4.4038    5.8271  -19.7368 C   0  0  0  0  0  0  0  0  0  0  0  0
   -3.1471    5.3683  -19.9485 N   0  0  0  0  0  0  0  0  0  0  0  0
   -2.4906    4.9394  -18.8486 C   0  0  0  0  0  0  0  0  0  0  0  0
   -3.0318    4.9280  -17.5678 C   0  0  0  0  0  0  0  0  0  0  0  0
   -7.1507    4.3012  -16.6879 C   0  0  0  0  0  0  0  0  0  0  0  0
   -8.4632    4.7771  -17.2818 C   0  0  0  0  0  0  0  0  0  0  0  0
   -8.3889    5.1210  -18.7642 C   0  0  0  0  0  0  0  0  0  0  0  0
   -9.7047    4.6338  -19.3590 C   0  0  0  0  0  0  0  0  0  0  0  0
  -10.5740    4.3255  -18.1666 C   0  0  0  0  0  0  0  0  0  0  0  0
   -9.5573    3.7535  -17.2089 C   0  0  0  0  0  0  0  0  0  0  0  0
   -7.8036    6.0990  -12.3130 C   0  0  2  0  0  0  0  0  0  0  0  0
   -7.7756    7.2042  -11.2420 C   0  0  0  0  0  0  0  0  0  0  0  0
   -6.9955    6.7975   -9.9920 C   0  0  0  0  0  0  0  0  0  0  0  0
   -7.5956    5.5503   -9.3547 C   0  0  0  0  0  0  0  0  0  0  0  0
   -7.8403    4.5263  -10.3389 N   0  0  0  0  0  0  0  0  0  0  0  0
   -8.0920    3.2166  -10.0792 C   0  0  0  0  0  0  0  0  0  0  0  0
   -8.2902    2.5637  -11.1972 N   0  0  0  0  0  0  0  0  0  0  0  0
   -8.1337    3.4742  -12.2016 C   0  0  0  0  0  0  0  0  0  0  0  0
   -7.9075    4.7350  -11.6984 C   0  0  0  0  0  0  0  0  0  0  0  0
  1  2  2  0
  2  3  1  0
  3  4  1  0
  4  5  1  1
  5  6  1  0
  6  7  2  0
  7  8  1  0
  8  9  2  0
  9 10  1  0
 10 11  2  0
  4 12  1  0
 12 13  1  0
 13 14  1  0
 14 15  1  0
 15 16  1  0
 16 17  1  0
 18  2  1  1
 18 19  1  0
 19 20  1  0
 20 21  1  0
 21 22  1  0
 22 23  1  0
 23 24  2  0
 24 25  1  0
 25 26  2  0
 11  6  1  0
 17 13  1  0
 26 18  1  0
 26 22  1  0
M  END
>  <energy_score>  (2502) 
-7.991862

>  <alias>  (2502) 
None

>  <HIPPO Pose ID>  (2502) 
74992

>  <smiles>  (2502) 
O=C(N[C@@H](Cc1ccncc1)CC1CCCC1)[C@@H]1CCCn2cncc21

>  <inchikey>  (2502) 
LRFPDMCTDVDCKL-RTBURBONSA-N

>  <distance_score>  (2502) 
1.671714

>  <ref_mols>  (2502) 
Z1495a,Z0800a

>  <ref_pdb>  (2502) 
Z0800a

>  <HIPPO Compound ID>  (2502) 
149119

>  <name>  (2502) 
P74992

>  <inspiration_score>  (2502) 
None

$$$$
P74993
     RDKit          3D

 26 28  0  0  0  0  0  0  0  0999 V2000
   -8.7078    4.2544  -19.2264 C   0  0  0  0  0  0  0  0  0  0  0  0
   -8.4756    5.0254  -17.9880 N   0  0  0  0  0  0  0  0  0  0  0  0
   -9.6896    4.8845  -17.1883 C   0  0  0  0  0  0  0  0  0  0  0  0
   -7.2768    4.4857  -17.3166 C   0  0  2  0  0  0  0  0  0  0  0  0
   -7.3175    4.5637  -15.7442 C   0  0  0  0  0  0  0  0  0  0  0  0
   -7.7366    3.6678  -15.1237 O   0  0  0  0  0  0  0  0  0  0  0  0
   -6.6657    5.8900  -15.2777 N   0  0  0  0  0  0  0  0  0  0  0  0
   -6.3124    6.3404  -13.9669 C   0  0  0  0  0  0  0  0  0  0  0  0
   -7.5737    6.7529  -13.2024 C   0  0  0  0  0  0  0  0  0  0  0  0
   -7.7104    5.8583  -11.8577 C   0  0  0  0  0  0  0  0  0  0  0  0
   -8.0398    4.4882  -11.8869 C   0  0  0  0  0  0  0  0  0  0  0  0
   -8.1658    3.7670  -10.7053 C   0  0  0  0  0  0  0  0  0  0  0  0
   -7.9968    4.3095   -9.4834 N   0  0  0  0  0  0  0  0  0  0  0  0
   -7.6996    5.6171   -9.4484 C   0  0  0  0  0  0  0  0  0  0  0  0
   -7.5396    6.4046  -10.5767 C   0  0  0  0  0  0  0  0  0  0  0  0
   -7.5304    8.3197  -13.0664 C   0  0  0  0  0  0  0  0  0  0  0  0
   -9.0635    8.3138  -13.0438 C   0  0  0  0  0  0  0  0  0  0  0  0
   -9.6051    8.1916  -11.8165 F   0  0  0  0  0  0  0  0  0  0  0  0
   -9.6652    9.3830  -13.6048 F   0  0  0  0  0  0  0  0  0  0  0  0
   -8.9548    7.0327  -13.9106 C   0  0  0  0  0  0  0  0  0  0  0  0
   -5.9572    5.0000  -17.8268 C   0  0  0  0  0  0  0  0  0  0  0  0
   -4.7025    4.5881  -17.4057 C   0  0  0  0  0  0  0  0  0  0  0  0
   -3.7048    5.2330  -18.0596 N   0  0  0  0  0  0  0  0  0  0  0  0
   -4.3253    6.0365  -18.8830 C   0  0  0  0  0  0  0  0  0  0  0  0
   -5.6818    5.9969  -18.7232 N   0  0  0  0  0  0  0  0  0  0  0  0
   -6.5065    7.0164  -19.3042 C   0  0  0  0  0  0  0  0  0  0  0  0
  1  2  1  0
  2  3  1  0
  4  2  1  6
  4  5  1  0
  5  6  2  0
  5  7  1  0
  7  8  1  0
  8  9  1  0
  9 10  1  0
 10 11  2  0
 11 12  1  0
 12 13  2  0
 13 14  1  0
 14 15  2  0
  9 16  1  0
 16 17  1  0
 17 18  1  0
 17 19  1  0
 17 20  1  0
  4 21  1  0
 21 22  2  0
 22 23  1  0
 23 24  2  0
 24 25  1  0
 25 26  1  0
 20  9  1  0
 25 21  1  0
 15 10  1  0
M  END
>  <energy_score>  (2503) 
-32.303053

>  <alias>  (2503) 
None

>  <HIPPO Pose ID>  (2503) 
74993

>  <smiles>  (2503) 
CN(C)[C@H](C(=O)NCC1(c2ccncc2)CC(F)(F)C1)c1cncn1C

>  <inchikey>  (2503) 
ANMPOQCGXCNGCK-HNNXBMFYSA-N

>  <distance_score>  (2503) 
1.96213

>  <ref_mols>  (2503) 
Z1495a,Z0800a

>  <ref_pdb>  (2503) 
Z0800a

>  <HIPPO Compound ID>  (2503) 
149120

>  <name>  (2503) 
P74993

>  <inspiration_score>  (2503) 
None

$$$$
P74994
     RDKit          3D

 26 29  0  0  0  0  0  0  0  0999 V2000
   -9.1078    2.5980  -10.3608 C   0  0  0  0  0  0  0  0  0  0  0  0
   -7.7980    3.0198  -10.7600 N   0  0  0  0  0  0  0  0  0  0  0  0
   -6.6490    2.4356  -10.2981 C   0  0  0  0  0  0  0  0  0  0  0  0
   -5.6011    3.1920  -10.5403 N   0  0  0  0  0  0  0  0  0  0  0  0
   -6.1211    4.2904  -11.1181 C   0  0  0  0  0  0  0  0  0  0  0  0
   -7.4373    4.1637  -11.4404 C   0  0  0  0  0  0  0  0  0  0  0  0
   -8.2265    5.2826  -12.0062 C   0  0  2  0  0  0  0  0  0  0  0  0
   -8.6297    5.2323  -13.5177 C   0  0  0  0  0  0  0  0  0  0  0  0
   -9.6677    4.7717  -13.7841 O   0  0  0  0  0  0  0  0  0  0  0  0
   -7.5790    5.9196  -14.4187 N   0  0  0  0  0  0  0  0  0  0  0  0
   -7.6294    6.2719  -15.8337 C   0  0  0  0  0  0  0  0  0  0  0  0
   -7.3896    5.1463  -16.8967 C   0  0  0  0  0  0  0  0  0  0  0  0
   -5.9135    4.8165  -16.8058 C   0  0  0  0  0  0  0  0  0  0  0  0
   -4.9838    5.2809  -17.7450 C   0  0  0  0  0  0  0  0  0  0  0  0
   -3.6411    5.0770  -17.5073 C   0  0  0  0  0  0  0  0  0  0  0  0
   -3.1588    4.4710  -16.4064 N   0  0  0  0  0  0  0  0  0  0  0  0
   -4.0576    4.0238  -15.5100 C   0  0  0  0  0  0  0  0  0  0  0  0
   -5.4241    4.1610  -15.6710 C   0  0  0  0  0  0  0  0  0  0  0  0
   -8.3486    3.9650  -16.7095 C   0  0  0  0  0  0  0  0  0  0  0  0
   -9.6413    4.4278  -17.3447 C   0  0  0  0  0  0  0  0  0  0  0  0
   -9.1846    5.0370  -18.6386 C   0  0  0  0  0  0  0  0  0  0  0  0
   -7.7850    5.5770  -18.3466 C   0  0  0  0  0  0  0  0  0  0  0  0
   -7.6306    6.6247  -11.5763 C   0  0  0  0  0  0  0  0  0  0  0  0
   -6.1106    6.6343  -11.5494 C   0  0  0  0  0  0  0  0  0  0  0  0
   -5.4845    7.6776  -11.7371 O   0  0  0  0  0  0  0  0  0  0  0  0
   -5.4605    5.4654  -11.2667 N   0  0  0  0  0  0  0  0  0  0  0  0
  1  2  1  0
  2  3  1  0
  3  4  2  0
  4  5  1  0
  5  6  2  0
  6  7  1  0
  7  8  1  6
  8  9  2  0
  8 10  1  0
 10 11  1  0
 11 12  1  0
 12 13  1  0
 13 14  2  0
 14 15  1  0
 15 16  2  0
 16 17  1  0
 17 18  2  0
 12 19  1  0
 19 20  1  0
 20 21  1  0
 21 22  1  0
  7 23  1  0
 23 24  1  0
 24 25  2  0
 24 26  1  0
  6  2  1  0
 22 12  1  0
 26  5  1  0
 18 13  1  0
M  END
>  <energy_score>  (2504) 
-34.078055

>  <alias>  (2504) 
None

>  <HIPPO Pose ID>  (2504) 
74994

>  <smiles>  (2504) 
Cn1cnc2c1[C@H](C(=O)NCC1(c3ccncc3)CCCC1)CC(=O)N2

>  <inchikey>  (2504) 
XLCUCIHNGHIYNO-CQSZACIVSA-N

>  <distance_score>  (2504) 
1.999095

>  <ref_mols>  (2504) 
Z0800a,Z1495a

>  <ref_pdb>  (2504) 
Z0800a

>  <HIPPO Compound ID>  (2504) 
149121

>  <name>  (2504) 
P74994

>  <inspiration_score>  (2504) 
None

$$$$
P74995
     RDKit          3D

 26 29  0  0  0  0  0  0  0  0999 V2000
   -6.5222    2.0191  -11.3584 C   0  0  0  0  0  0  0  0  0  0  0  0
   -7.2678    2.9713  -10.5790 N   0  0  0  0  0  0  0  0  0  0  0  0
   -7.9227    2.7060   -9.4033 C   0  0  0  0  0  0  0  0  0  0  0  0
   -8.4302    3.8005   -8.8774 N   0  0  0  0  0  0  0  0  0  0  0  0
   -8.0893    4.7739   -9.7499 C   0  0  0  0  0  0  0  0  0  0  0  0
   -7.4060    4.3107  -10.8330 C   0  0  0  0  0  0  0  0  0  0  0  0
   -6.9401    5.1640  -11.9579 C   0  0  1  0  0  0  0  0  0  0  0  0
   -7.8566    4.9540  -13.1754 C   0  0  0  0  0  0  0  0  0  0  0  0
   -8.9840    5.2524  -13.1842 O   0  0  0  0  0  0  0  0  0  0  0  0
   -7.0058    4.2157  -14.2381 N   0  0  0  0  0  0  0  0  0  0  0  0
   -7.3872    3.6133  -15.4798 C   0  0  0  0  0  0  0  0  0  0  0  0
   -7.8110    4.5463  -16.6115 C   0  0  0  0  0  0  0  0  0  0  0  0
   -6.5535    5.3221  -17.1920 C   0  0  0  0  0  0  0  0  0  0  0  0
   -5.9598    5.0125  -18.4282 C   0  0  0  0  0  0  0  0  0  0  0  0
   -4.8172    5.6770  -18.8394 C   0  0  0  0  0  0  0  0  0  0  0  0
   -4.1999    6.6292  -18.1133 N   0  0  0  0  0  0  0  0  0  0  0  0
   -4.7854    6.9566  -16.9458 C   0  0  0  0  0  0  0  0  0  0  0  0
   -5.9324    6.3474  -16.4676 C   0  0  0  0  0  0  0  0  0  0  0  0
   -6.4284    6.7526  -15.2899 F   0  0  0  0  0  0  0  0  0  0  0  0
   -9.0777    5.3539  -16.2720 C   0  0  0  0  0  0  0  0  0  0  0  0
   -9.5983    5.0700  -17.7012 C   0  0  0  0  0  0  0  0  0  0  0  0
   -8.7453    3.8053  -17.6637 C   0  0  0  0  0  0  0  0  0  0  0  0
   -6.9870    6.6457  -11.5730 C   0  0  0  0  0  0  0  0  0  0  0  0
   -7.9800    7.0352  -10.4872 C   0  0  0  0  0  0  0  0  0  0  0  0
   -8.3330    8.2093  -10.3613 O   0  0  0  0  0  0  0  0  0  0  0  0
   -8.3627    6.0898   -9.5832 N   0  0  0  0  0  0  0  0  0  0  0  0
  1  2  1  0
  2  3  1  0
  3  4  2  0
  4  5  1  0
  5  6  2  0
  6  7  1  0
  7  8  1  6
  8  9  2  0
  8 10  1  0
 10 11  1  0
 11 12  1  0
 12 13  1  0
 13 14  2  0
 14 15  1  0
 15 16  2  0
 16 17  1  0
 17 18  2  0
 18 19  1  0
 12 20  1  0
 20 21  1  0
 21 22  1  0
  7 23  1  0
 23 24  1  0
 24 25  2  0
 24 26  1  0
  6  2  1  0
 22 12  1  0
 26  5  1  0
 18 13  1  0
M  END
>  <energy_score>  (2505) 
-38.362128

>  <alias>  (2505) 
None

>  <HIPPO Pose ID>  (2505) 
74995

>  <smiles>  (2505) 
Cn1cnc2c1[C@@H](C(=O)NCC1(c3ccncc3F)CCC1)CC(=O)N2

>  <inchikey>  (2505) 
INZAQRHZSSKEQH-NSHDSACASA-N

>  <distance_score>  (2505) 
1.654147

>  <ref_mols>  (2505) 
Z1495a,Z0800a

>  <ref_pdb>  (2505) 
Z0800a

>  <HIPPO Compound ID>  (2505) 
149122

>  <name>  (2505) 
P74995

>  <inspiration_score>  (2505) 
None

$$$$
P74998
     RDKit          3D

 26 28  0  0  0  0  0  0  0  0999 V2000
   -5.1436    6.3751  -12.9147 C   0  0  0  0  0  0  0  0  0  0  0  0
   -6.2807    5.9171  -13.8301 C   0  0  2  0  0  0  0  0  0  0  0  0
   -6.0412    6.4065  -15.1701 N   0  0  0  0  0  0  0  0  0  0  0  0
   -5.9182    7.8543  -15.7048 C   0  0  0  0  0  0  0  0  0  0  0  0
   -5.9144    8.8731  -15.1351 O   0  0  0  0  0  0  0  0  0  0  0  0
   -5.8535    7.7795  -17.2430 C   0  0  0  0  0  0  0  0  0  0  0  0
   -4.9861    6.6808  -17.7412 C   0  0  0  0  0  0  0  0  0  0  0  0
   -3.6850    6.3619  -17.4137 C   0  0  0  0  0  0  0  0  0  0  0  0
   -3.2793    5.2295  -18.0514 N   0  0  0  0  0  0  0  0  0  0  0  0
   -4.3005    4.8774  -18.7902 C   0  0  0  0  0  0  0  0  0  0  0  0
   -5.3718    5.6983  -18.6167 N   0  0  0  0  0  0  0  0  0  0  0  0
   -6.6602    5.4919  -19.2613 C   0  0  0  0  0  0  0  0  0  0  0  0
   -7.6681    4.8701  -18.3475 C   0  0  0  0  0  0  0  0  0  0  0  0
   -9.0319    4.9967  -18.6212 C   0  0  0  0  0  0  0  0  0  0  0  0
   -9.9607    4.5226  -17.7265 C   0  0  0  0  0  0  0  0  0  0  0  0
   -9.5092    3.9428  -16.5539 C   0  0  0  0  0  0  0  0  0  0  0  0
   -8.1777    3.7549  -16.2805 C   0  0  0  0  0  0  0  0  0  0  0  0
   -7.2654    4.1646  -17.2148 C   0  0  0  0  0  0  0  0  0  0  0  0
   -7.6847    6.3289  -13.3151 C   0  0  1  0  0  0  0  0  0  0  0  0
   -8.7371    5.9666  -14.2093 O   0  0  0  0  0  0  0  0  0  0  0  0
   -7.9606    5.6861  -11.9806 C   0  0  0  0  0  0  0  0  0  0  0  0
   -8.1655    4.3069  -11.8440 C   0  0  0  0  0  0  0  0  0  0  0  0
   -8.2792    3.7773  -10.5676 C   0  0  0  0  0  0  0  0  0  0  0  0
   -8.1980    4.5204   -9.4404 N   0  0  0  0  0  0  0  0  0  0  0  0
   -8.0347    5.8482   -9.5982 C   0  0  0  0  0  0  0  0  0  0  0  0
   -7.9155    6.4709  -10.8262 C   0  0  0  0  0  0  0  0  0  0  0  0
  2  1  1  1
  2  3  1  0
  3  4  1  0
  4  5  2  0
  4  6  1  0
  6  7  1  0
  7  8  2  0
  8  9  1  0
  9 10  2  0
 10 11  1  0
 11 12  1  0
 12 13  1  0
 13 14  2  0
 14 15  1  0
 15 16  2  0
 16 17  1  0
 17 18  2  0
  2 19  1  0
 19 20  1  6
 19 21  1  0
 21 22  2  0
 22 23  1  0
 23 24  2  0
 24 25  1  0
 25 26  2  0
 11  7  1  0
 18 13  1  0
 26 21  1  0
M  END
>  <energy_score>  (2506) 
-27.550762

>  <alias>  (2506) 
None

>  <HIPPO Pose ID>  (2506) 
74998

>  <smiles>  (2506) 
C[C@H](NC(=O)Cc1cncn1Cc1ccccc1)[C@@H](O)c1ccncc1

>  <inchikey>  (2506) 
QJEXKGUAIPWTQR-MGPUTAFESA-N

>  <distance_score>  (2506) 
1.744791

>  <ref_mols>  (2506) 
Z0800a,Z1495a

>  <ref_pdb>  (2506) 
Z0800a

>  <HIPPO Compound ID>  (2506) 
149127

>  <name>  (2506) 
P74998

>  <inspiration_score>  (2506) 
None

$$$$
P74999
     RDKit          3D

 26 28  0  0  0  0  0  0  0  0999 V2000
   -5.1846    7.1248  -12.7570 C   0  0  0  0  0  0  0  0  0  0  0  0
   -5.9130    6.1263  -13.6718 C   0  0  0  0  0  0  0  0  0  0  0  0
   -5.2340    4.7519  -13.5205 C   0  0  0  0  0  0  0  0  0  0  0  0
   -7.4406    6.0576  -13.3771 C   0  0  0  0  0  0  0  0  0  0  0  0
   -7.8011    5.5330  -12.0141 C   0  0  0  0  0  0  0  0  0  0  0  0
   -8.0354    4.1722  -11.7906 C   0  0  0  0  0  0  0  0  0  0  0  0
   -8.2526    3.7436  -10.4896 C   0  0  0  0  0  0  0  0  0  0  0  0
   -8.2541    4.5714   -9.4198 N   0  0  0  0  0  0  0  0  0  0  0  0
   -8.0674    5.8827   -9.6675 C   0  0  0  0  0  0  0  0  0  0  0  0
   -7.8484    6.4066  -10.9276 C   0  0  0  0  0  0  0  0  0  0  0  0
   -5.7582    6.5356  -15.0626 N   0  0  0  0  0  0  0  0  0  0  0  0
   -5.7937    7.9469  -15.7080 C   0  0  0  0  0  0  0  0  0  0  0  0
   -5.8755    9.0037  -15.2144 O   0  0  0  0  0  0  0  0  0  0  0  0
   -5.8076    7.7809  -17.2400 C   0  0  0  0  0  0  0  0  0  0  0  0
   -4.9209    6.7019  -17.7461 C   0  0  0  0  0  0  0  0  0  0  0  0
   -3.6028    6.4194  -17.4558 C   0  0  0  0  0  0  0  0  0  0  0  0
   -3.1969    5.2739  -18.0708 N   0  0  0  0  0  0  0  0  0  0  0  0
   -4.2316    4.8874  -18.7735 C   0  0  0  0  0  0  0  0  0  0  0  0
   -5.3080    5.7007  -18.5991 N   0  0  0  0  0  0  0  0  0  0  0  0
   -6.6045    5.4697  -19.2155 C   0  0  0  0  0  0  0  0  0  0  0  0
   -7.5886    4.8682  -18.2660 C   0  0  0  0  0  0  0  0  0  0  0  0
   -7.1730    4.2478  -17.0840 C   0  0  0  0  0  0  0  0  0  0  0  0
   -8.0980    3.8134  -16.1699 C   0  0  0  0  0  0  0  0  0  0  0  0
   -9.4328    3.9412  -16.4772 C   0  0  0  0  0  0  0  0  0  0  0  0
   -9.8794    4.4534  -17.6825 C   0  0  0  0  0  0  0  0  0  0  0  0
   -8.9511    4.9273  -18.5758 C   0  0  0  0  0  0  0  0  0  0  0  0
  1  2  1  0
  2  3  1  0
  2  4  1  0
  4  5  1  0
  5  6  2  0
  6  7  1  0
  7  8  2  0
  8  9  1  0
  9 10  2  0
  2 11  1  0
 11 12  1  0
 12 13  2  0
 12 14  1  0
 14 15  1  0
 15 16  2  0
 16 17  1  0
 17 18  2  0
 18 19  1  0
 19 20  1  0
 20 21  1  0
 21 22  2  0
 22 23  1  0
 23 24  2  0
 24 25  1  0
 25 26  2  0
 10  5  1  0
 19 15  1  0
 26 21  1  0
M  END
>  <energy_score>  (2507) 
-10.514439

>  <alias>  (2507) 
None

>  <HIPPO Pose ID>  (2507) 
74999

>  <smiles>  (2507) 
CC(C)(Cc1ccncc1)NC(=O)Cc1cncn1Cc1ccccc1

>  <inchikey>  (2507) 
AMHNTTMOBYHKAW-UHFFFAOYSA-N

>  <distance_score>  (2507) 
1.808316

>  <ref_mols>  (2507) 
Z1495a,Z0800a

>  <ref_pdb>  (2507) 
Z0800a

>  <HIPPO Compound ID>  (2507) 
149128

>  <name>  (2507) 
P74999

>  <inspiration_score>  (2507) 
None

$$$$
P75000
     RDKit          3D

 26 28  0  0  0  0  0  0  0  0999 V2000
   -7.5084    7.3804  -15.8210 O   0  0  0  0  0  0  0  0  0  0  0  0
   -6.3795    7.0942  -15.8149 C   0  0  0  0  0  0  0  0  0  0  0  0
   -5.4367    7.6116  -16.9014 C   0  0  0  0  0  0  0  0  0  0  0  0
   -4.7577    6.5043  -17.6159 C   0  0  0  0  0  0  0  0  0  0  0  0
   -3.4592    6.0573  -17.4900 C   0  0  0  0  0  0  0  0  0  0  0  0
   -3.2276    4.9744  -18.2765 N   0  0  0  0  0  0  0  0  0  0  0  0
   -4.3554    4.7821  -18.9120 C   0  0  0  0  0  0  0  0  0  0  0  0
   -5.3206    5.6713  -18.5472 N   0  0  0  0  0  0  0  0  0  0  0  0
   -6.6606    5.6459  -19.1121 C   0  0  0  0  0  0  0  0  0  0  0  0
   -7.6507    4.9321  -18.2506 C   0  0  0  0  0  0  0  0  0  0  0  0
   -9.0066    4.9832  -18.5901 C   0  0  0  0  0  0  0  0  0  0  0  0
   -9.9500    4.4667  -17.7369 C   0  0  0  0  0  0  0  0  0  0  0  0
   -9.5199    3.9118  -16.5450 C   0  0  0  0  0  0  0  0  0  0  0  0
   -8.1939    3.7839  -16.2121 C   0  0  0  0  0  0  0  0  0  0  0  0
   -7.2595    4.2639  -17.0885 C   0  0  0  0  0  0  0  0  0  0  0  0
   -5.5629    6.2652  -14.7992 N   0  0  0  0  0  0  0  0  0  0  0  0
   -5.9860    5.5380  -13.6316 C   0  0  0  0  0  0  0  0  0  0  0  0
   -7.4612    5.7730  -13.2924 C   0  0  0  0  0  0  0  0  0  0  0  0
   -7.7822    5.2527  -11.9281 C   0  0  0  0  0  0  0  0  0  0  0  0
   -7.9487    3.8922  -11.6790 C   0  0  0  0  0  0  0  0  0  0  0  0
   -7.8420    3.0034  -12.6748 F   0  0  0  0  0  0  0  0  0  0  0  0
   -8.1748    3.4629  -10.3796 C   0  0  0  0  0  0  0  0  0  0  0  0
   -8.2298    4.3025   -9.3129 N   0  0  0  0  0  0  0  0  0  0  0  0
   -8.0756    5.6191   -9.5793 C   0  0  0  0  0  0  0  0  0  0  0  0
   -7.8554    6.1254  -10.8468 C   0  0  0  0  0  0  0  0  0  0  0  0
   -7.6831    7.4440  -11.0129 F   0  0  0  0  0  0  0  0  0  0  0  0
  1  2  2  0
  2  3  1  0
  3  4  1  0
  4  5  2  0
  5  6  1  0
  6  7  2  0
  7  8  1  0
  8  9  1  0
  9 10  1  0
 10 11  2  0
 11 12  1  0
 12 13  2  0
 13 14  1  0
 14 15  2  0
  2 16  1  0
 16 17  1  0
 17 18  1  0
 18 19  1  0
 19 20  2  0
 20 21  1  0
 20 22  1  0
 22 23  2  0
 23 24  1  0
 24 25  2  0
 25 26  1  0
  8  4  1  0
 15 10  1  0
 25 19  1  0
M  END
>  <energy_score>  (2508) 
-1.979888

>  <alias>  (2508) 
None

>  <HIPPO Pose ID>  (2508) 
75000

>  <smiles>  (2508) 
O=C(Cc1cncn1Cc1ccccc1)NCCc1c(F)cncc1F

>  <inchikey>  (2508) 
ZTEMKBMIGVJXHQ-UHFFFAOYSA-N

>  <distance_score>  (2508) 
1.635925

>  <ref_mols>  (2508) 
Z1495a,Z0800a

>  <ref_pdb>  (2508) 
Z0800a

>  <HIPPO Compound ID>  (2508) 
149131

>  <name>  (2508) 
P75000

>  <inspiration_score>  (2508) 
None

$$$$
P75001
     RDKit          3D

 26 28  0  0  0  0  0  0  0  0999 V2000
   -7.3942    7.4067  -15.8484 O   0  0  0  0  0  0  0  0  0  0  0  0
   -6.2539    7.1683  -15.8415 C   0  0  0  0  0  0  0  0  0  0  0  0
   -5.3488    7.6271  -16.9833 C   0  0  0  0  0  0  0  0  0  0  0  0
   -4.7037    6.4870  -17.6769 C   0  0  0  0  0  0  0  0  0  0  0  0
   -3.4062    6.0248  -17.5855 C   0  0  0  0  0  0  0  0  0  0  0  0
   -3.1921    4.9574  -18.4037 N   0  0  0  0  0  0  0  0  0  0  0  0
   -4.3490    4.7635  -18.9858 C   0  0  0  0  0  0  0  0  0  0  0  0
   -5.3004    5.6537  -18.5860 N   0  0  0  0  0  0  0  0  0  0  0  0
   -6.6483    5.6576  -19.1342 C   0  0  0  0  0  0  0  0  0  0  0  0
   -7.6485    4.9615  -18.2708 C   0  0  0  0  0  0  0  0  0  0  0  0
   -9.0058    5.0284  -18.6087 C   0  0  0  0  0  0  0  0  0  0  0  0
   -9.9596    4.5068  -17.7697 C   0  0  0  0  0  0  0  0  0  0  0  0
   -9.5381    3.9199  -16.5935 C   0  0  0  0  0  0  0  0  0  0  0  0
   -8.2127    3.7751  -16.2678 C   0  0  0  0  0  0  0  0  0  0  0  0
   -7.2664    4.2783  -17.1183 C   0  0  0  0  0  0  0  0  0  0  0  0
   -5.3779    6.4968  -14.7595 N   0  0  0  0  0  0  0  0  0  0  0  0
   -5.7419    5.8946  -13.5019 C   0  0  0  0  0  0  0  0  0  0  0  0
   -7.2534    5.6957  -13.3390 C   0  0  0  0  0  0  0  0  0  0  0  0
   -7.6058    5.2374  -11.9478 C   0  0  0  0  0  0  0  0  0  0  0  0
   -7.5979    3.8773  -11.5907 C   0  0  0  0  0  0  0  0  0  0  0  0
   -7.1086    2.6322  -12.6773 Cl  0  0  0  0  0  0  0  0  0  0  0  0
   -7.9080    3.5193  -10.2821 C   0  0  0  0  0  0  0  0  0  0  0  0
   -8.1751    4.4126   -9.2995 N   0  0  0  0  0  0  0  0  0  0  0  0
   -8.1600    5.7145   -9.6567 C   0  0  0  0  0  0  0  0  0  0  0  0
   -7.8938    6.1711  -10.9403 C   0  0  0  0  0  0  0  0  0  0  0  0
   -7.8909    7.8780  -11.1997 Cl  0  0  0  0  0  0  0  0  0  0  0  0
  1  2  2  0
  2  3  1  0
  3  4  1  0
  4  5  2  0
  5  6  1  0
  6  7  2  0
  7  8  1  0
  8  9  1  0
  9 10  1  0
 10 11  2  0
 11 12  1  0
 12 13  2  0
 13 14  1  0
 14 15  2  0
  2 16  1  0
 16 17  1  0
 17 18  1  0
 18 19  1  0
 19 20  2  0
 20 21  1  0
 20 22  1  0
 22 23  2  0
 23 24  1  0
 24 25  2  0
 25 26  1  0
  8  4  1  0
 15 10  1  0
 25 19  1  0
M  END
>  <energy_score>  (2509) 
-6.346046

>  <alias>  (2509) 
None

>  <HIPPO Pose ID>  (2509) 
75001

>  <smiles>  (2509) 
O=C(Cc1cncn1Cc1ccccc1)NCCc1c(Cl)cncc1Cl

>  <inchikey>  (2509) 
TTXHTENLEHYCLO-UHFFFAOYSA-N

>  <distance_score>  (2509) 
1.954498

>  <ref_mols>  (2509) 
Z1495a,Z0800a

>  <ref_pdb>  (2509) 
Z0800a

>  <HIPPO Compound ID>  (2509) 
149134

>  <name>  (2509) 
P75001

>  <inspiration_score>  (2509) 
None

$$$$
P75002
     RDKit          3D

 27 29  0  0  0  0  0  0  0  0999 V2000
   -9.1329    6.3432  -14.5477 C   0  0  0  0  0  0  0  0  0  0  0  0
   -8.0512    7.1478  -13.8742 C   0  0  0  0  0  0  0  0  0  0  0  0
   -6.9856    6.3481  -13.0915 C   0  0  2  0  0  0  0  0  0  0  0  0
   -5.9133    7.4065  -12.7290 C   0  0  0  0  0  0  0  0  0  0  0  0
   -6.2497    5.2372  -13.8774 C   0  0  0  0  0  0  0  0  0  0  0  0
   -5.3624    5.6791  -14.9184 N   0  0  0  0  0  0  0  0  0  0  0  0
   -4.1138    4.9939  -15.5369 C   0  0  0  0  0  0  0  0  0  0  0  0
   -3.5706    4.0011  -15.2423 O   0  0  0  0  0  0  0  0  0  0  0  0
   -3.5408    5.8900  -16.6439 C   0  0  0  0  0  0  0  0  0  0  0  0
   -4.5592    6.6229  -17.4483 C   0  0  0  0  0  0  0  0  0  0  0  0
   -4.7019    7.9823  -17.6487 C   0  0  0  0  0  0  0  0  0  0  0  0
   -5.7819    8.2556  -18.4361 N   0  0  0  0  0  0  0  0  0  0  0  0
   -6.2769    7.0777  -18.7451 C   0  0  0  0  0  0  0  0  0  0  0  0
   -5.5922    6.0502  -18.1491 N   0  0  0  0  0  0  0  0  0  0  0  0
   -5.8605    4.6269  -18.3227 C   0  0  0  0  0  0  0  0  0  0  0  0
   -7.3083    4.3034  -18.1918 C   0  0  0  0  0  0  0  0  0  0  0  0
   -7.8895    4.0241  -16.9690 C   0  0  0  0  0  0  0  0  0  0  0  0
   -9.2678    3.9243  -16.8566 C   0  0  0  0  0  0  0  0  0  0  0  0
  -10.0822    4.1396  -17.9576 C   0  0  0  0  0  0  0  0  0  0  0  0
   -9.5011    4.3497  -19.1903 C   0  0  0  0  0  0  0  0  0  0  0  0
   -8.1211    4.3415  -19.3114 C   0  0  0  0  0  0  0  0  0  0  0  0
   -7.5942    5.7384  -11.8099 C   0  0  0  0  0  0  0  0  0  0  0  0
   -7.9084    4.3714  -11.6865 C   0  0  0  0  0  0  0  0  0  0  0  0
   -8.2834    3.8640  -10.4489 C   0  0  0  0  0  0  0  0  0  0  0  0
   -8.3848    4.6174   -9.3359 N   0  0  0  0  0  0  0  0  0  0  0  0
   -8.1666    5.9356   -9.4836 C   0  0  0  0  0  0  0  0  0  0  0  0
   -7.7968    6.5331  -10.6760 C   0  0  0  0  0  0  0  0  0  0  0  0
  1  2  1  0
  3  2  1  0
  3  4  1  1
  3  5  1  0
  5  6  1  0
  6  7  1  0
  7  8  2  0
  7  9  1  0
  9 10  1  0
 10 11  2  0
 11 12  1  0
 12 13  2  0
 13 14  1  0
 14 15  1  0
 15 16  1  0
 16 17  2  0
 17 18  1  0
 18 19  2  0
 19 20  1  0
 20 21  2  0
  3 22  1  0
 22 23  2  0
 23 24  1  0
 24 25  2  0
 25 26  1  0
 26 27  2  0
 14 10  1  0
 21 16  1  0
 27 22  1  0
M  END
>  <energy_score>  (2510) 
-6.967239

>  <alias>  (2510) 
None

>  <HIPPO Pose ID>  (2510) 
75002

>  <smiles>  (2510) 
CC[C@](C)(CNC(=O)Cc1cncn1Cc1ccccc1)c1ccncc1

>  <inchikey>  (2510) 
QUHSDEHAQCTBCP-JOCHJYFZSA-N

>  <distance_score>  (2510) 
1.827978

>  <ref_mols>  (2510) 
Z1495a,Z0800a

>  <ref_pdb>  (2510) 
Z0800a

>  <HIPPO Compound ID>  (2510) 
149135

>  <name>  (2510) 
P75002

>  <inspiration_score>  (2510) 
None

$$$$
P75004
     RDKit          3D

 27 29  0  0  0  0  0  0  0  0999 V2000
   -6.6019    3.6481  -14.4250 O   0  0  0  0  0  0  0  0  0  0  0  0
   -5.9671    4.4962  -14.9108 C   0  0  0  0  0  0  0  0  0  0  0  0
   -5.2225    4.2127  -16.2060 C   0  0  0  0  0  0  0  0  0  0  0  0
   -4.6841    5.3341  -17.0047 C   0  0  0  0  0  0  0  0  0  0  0  0
   -3.3784    5.5961  -17.3477 C   0  0  0  0  0  0  0  0  0  0  0  0
   -3.2853    6.7265  -18.0973 N   0  0  0  0  0  0  0  0  0  0  0  0
   -4.5230    7.1200  -18.2722 C   0  0  0  0  0  0  0  0  0  0  0  0
   -5.4129    6.3114  -17.6280 N   0  0  0  0  0  0  0  0  0  0  0  0
   -6.8338    6.5860  -17.5880 C   0  0  0  0  0  0  0  0  0  0  0  0
   -7.6830    5.4374  -17.9770 C   0  0  0  0  0  0  0  0  0  0  0  0
   -8.8255    5.1466  -17.2295 C   0  0  0  0  0  0  0  0  0  0  0  0
   -9.6446    4.1086  -17.5892 C   0  0  0  0  0  0  0  0  0  0  0  0
   -9.3234    3.3631  -18.6953 C   0  0  0  0  0  0  0  0  0  0  0  0
   -8.2411    3.6960  -19.4964 C   0  0  0  0  0  0  0  0  0  0  0  0
   -7.3979    4.7147  -19.1254 C   0  0  0  0  0  0  0  0  0  0  0  0
   -5.7835    5.9664  -14.4961 N   0  0  0  0  0  0  0  0  0  0  0  0
   -6.2679    6.6824  -13.3390 C   0  0  1  0  0  0  0  0  0  0  0  0
   -5.8735    8.1692  -13.4022 C   0  0  0  0  0  0  0  0  0  0  0  0
   -6.4255    8.8183  -14.5441 O   0  0  0  0  0  0  0  0  0  0  0  0
   -7.8035    6.4878  -13.0805 C   0  0  1  0  0  0  0  0  0  0  0  0
   -8.5448    5.8928  -14.1361 O   0  0  0  0  0  0  0  0  0  0  0  0
   -8.0017    5.7334  -11.7812 C   0  0  0  0  0  0  0  0  0  0  0  0
   -8.1431    4.3430  -11.6980 C   0  0  0  0  0  0  0  0  0  0  0  0
   -8.2075    3.7532  -10.4441 C   0  0  0  0  0  0  0  0  0  0  0  0
   -8.1332    4.4470   -9.2854 N   0  0  0  0  0  0  0  0  0  0  0  0
   -8.0238    5.7835   -9.3866 C   0  0  0  0  0  0  0  0  0  0  0  0
   -7.9558    6.4629  -10.5879 C   0  0  0  0  0  0  0  0  0  0  0  0
  1  2  2  0
  2  3  1  0
  3  4  1  0
  4  5  2  0
  5  6  1  0
  6  7  2  0
  7  8  1  0
  8  9  1  0
  9 10  1  0
 10 11  2  0
 11 12  1  0
 12 13  2  0
 13 14  1  0
 14 15  2  0
  2 16  1  0
 16 17  1  0
 17 18  1  6
 18 19  1  0
 17 20  1  0
 20 21  1  6
 20 22  1  0
 22 23  2  0
 23 24  1  0
 24 25  2  0
 25 26  1  0
 26 27  2  0
  8  4  1  0
 15 10  1  0
 27 22  1  0
M  END
>  <energy_score>  (2511) 
-24.962144

>  <alias>  (2511) 
None

>  <HIPPO Pose ID>  (2511) 
75004

>  <smiles>  (2511) 
O=C(Cc1cncn1Cc1ccccc1)N[C@@H](CO)[C@@H](O)c1ccncc1

>  <inchikey>  (2511) 
ZGUPUACZYKMXJT-ICSRJNTNSA-N

>  <distance_score>  (2511) 
1.759639

>  <ref_mols>  (2511) 
Z1495a,Z0800a

>  <ref_pdb>  (2511) 
Z0800a

>  <HIPPO Compound ID>  (2511) 
149136

>  <name>  (2511) 
P75004

>  <inspiration_score>  (2511) 
None

$$$$
P75005
     RDKit          3D

 27 29  0  0  0  0  0  0  0  0999 V2000
   -1.7899    3.9664  -11.6813 C   0  0  0  0  0  0  0  0  0  0  0  0
   -2.2701    5.4010  -11.5119 C   0  0  0  0  0  0  0  0  0  0  0  0
   -3.7230    5.4777  -11.0501 C   0  0  0  0  0  0  0  0  0  0  0  0
   -4.5926    4.8160  -11.9770 O   0  0  0  0  0  0  0  0  0  0  0  0
   -5.0068    5.5477  -13.0488 C   0  0  0  0  0  0  0  0  0  0  0  0
   -4.7073    6.7172  -13.2683 O   0  0  0  0  0  0  0  0  0  0  0  0
   -5.9235    4.6992  -13.9385 C   0  0  1  0  0  0  0  0  0  0  0  0
   -7.3928    5.1292  -13.8014 C   0  0  0  0  0  0  0  0  0  0  0  0
   -7.8235    5.1950  -12.3623 C   0  0  0  0  0  0  0  0  0  0  0  0
   -7.8430    6.4228  -11.6942 C   0  0  0  0  0  0  0  0  0  0  0  0
   -8.0755    6.4304  -10.3315 C   0  0  0  0  0  0  0  0  0  0  0  0
   -8.2932    5.3192   -9.6061 N   0  0  0  0  0  0  0  0  0  0  0  0
   -8.3017    4.1421  -10.2734 C   0  0  0  0  0  0  0  0  0  0  0  0
   -8.6149    2.5818   -9.2607 Br  0  0  0  0  0  0  0  0  0  0  0  0
   -8.0781    4.0290  -11.6374 C   0  0  0  0  0  0  0  0  0  0  0  0
   -5.4558    4.8835  -15.2933 N   0  0  0  0  0  0  0  0  0  0  0  0
   -4.2897    4.2108  -16.0534 C   0  0  0  0  0  0  0  0  0  0  0  0
   -3.4767    3.4590  -15.6805 O   0  0  0  0  0  0  0  0  0  0  0  0
   -4.2541    4.6762  -17.5210 C   0  0  0  0  0  0  0  0  0  0  0  0
   -5.2172    5.7185  -17.9235 C   0  0  0  0  0  0  0  0  0  0  0  0
   -5.0241    7.0833  -17.9630 C   0  0  0  0  0  0  0  0  0  0  0  0
   -6.1519    7.7274  -18.3688 N   0  0  0  0  0  0  0  0  0  0  0  0
   -6.9944    6.7624  -18.6496 C   0  0  0  0  0  0  0  0  0  0  0  0
   -6.5166    5.5420  -18.3274 N   0  0  0  0  0  0  0  0  0  0  0  0
   -7.3670    4.3444  -18.2148 C   0  0  0  0  0  0  0  0  0  0  0  0
   -8.7770    4.2018  -18.7487 C   0  0  0  0  0  0  0  0  0  0  0  0
   -8.5586    4.3092  -17.2760 C   0  0  0  0  0  0  0  0  0  0  0  0
  1  2  1  0
  2  3  1  0
  3  4  1  0
  4  5  1  0
  5  6  2  0
  5  7  1  0
  7  8  1  6
  8  9  1  0
  9 10  2  0
 10 11  1  0
 11 12  2  0
 12 13  1  0
 13 14  1  0
 13 15  2  0
  7 16  1  0
 16 17  1  0
 17 18  2  0
 17 19  1  0
 19 20  1  0
 20 21  2  0
 21 22  1  0
 22 23  2  0
 23 24  1  0
 24 25  1  0
 25 26  1  0
 26 27  1  0
 15  9  1  0
 24 20  1  0
 27 25  1  0
M  END
>  <energy_score>  (2512) 
-16.507723

>  <alias>  (2512) 
None

>  <HIPPO Pose ID>  (2512) 
75005

>  <smiles>  (2512) 
CCCOC(=O)[C@@H](Cc1ccnc(Br)c1)NC(=O)Cc1cncn1C1CC1

>  <inchikey>  (2512) 
LQFOEDMLTUSBAB-MRXNPFEDSA-N

>  <distance_score>  (2512) 
1.71393

>  <ref_mols>  (2512) 
Z1495a,Z0800a

>  <ref_pdb>  (2512) 
Z0800a

>  <HIPPO Compound ID>  (2512) 
149138

>  <name>  (2512) 
P75005

>  <inspiration_score>  (2512) 
None

$$$$
P75006
     RDKit          3D

 27 30  0  0  0  0  0  0  0  0999 V2000
   -7.0227    7.7785  -15.0830 O   0  0  0  0  0  0  0  0  0  0  0  0
   -6.4261    6.9844  -15.6997 C   0  0  0  0  0  0  0  0  0  0  0  0
   -5.9858    7.3197  -17.1280 C   0  0  0  0  0  0  0  0  0  0  0  0
   -5.7021    6.1536  -17.9809 C   0  0  0  0  0  0  0  0  0  0  0  0
   -4.4774    5.6428  -18.3500 C   0  0  0  0  0  0  0  0  0  0  0  0
   -4.6325    4.5154  -19.0831 N   0  0  0  0  0  0  0  0  0  0  0  0
   -5.9348    4.3769  -19.2268 C   0  0  0  0  0  0  0  0  0  0  0  0
   -6.6242    5.2957  -18.5204 N   0  0  0  0  0  0  0  0  0  0  0  0
   -8.0918    5.3724  -18.4479 C   0  0  0  0  0  0  0  0  0  0  0  0
   -9.0412    4.2370  -18.7578 C   0  0  0  0  0  0  0  0  0  0  0  0
   -8.8897    4.7141  -17.3516 C   0  0  0  0  0  0  0  0  0  0  0  0
   -5.9580    5.5569  -15.3135 N   0  0  0  0  0  0  0  0  0  0  0  0
   -6.2070    4.7856  -14.1373 C   0  0  0  0  0  0  0  0  0  0  0  0
   -7.7118    4.6694  -13.8959 C   0  0  0  0  0  0  0  0  0  0  0  0
   -7.9854    4.8838  -12.4431 C   0  0  0  0  0  0  0  0  0  0  0  0
   -8.0584    6.1811  -11.9289 C   0  0  0  0  0  0  0  0  0  0  0  0
   -8.1863    6.3346  -10.5651 C   0  0  0  0  0  0  0  0  0  0  0  0
   -8.2416    5.2997   -9.7090 N   0  0  0  0  0  0  0  0  0  0  0  0
   -8.1706    4.0489  -10.2256 C   0  0  0  0  0  0  0  0  0  0  0  0
   -8.1461    2.9228   -9.4118 O   0  0  0  0  0  0  0  0  0  0  0  0
   -8.5495    3.0370   -8.1060 C   0  0  0  0  0  0  0  0  0  0  0  0
   -9.3624    2.0112   -7.6317 C   0  0  0  0  0  0  0  0  0  0  0  0
   -9.8784    2.0667   -6.3372 C   0  0  0  0  0  0  0  0  0  0  0  0
   -9.5487    3.1296   -5.4984 C   0  0  0  0  0  0  0  0  0  0  0  0
   -8.6683    4.1126   -5.9377 C   0  0  0  0  0  0  0  0  0  0  0  0
   -8.1558    4.0539   -7.2346 C   0  0  0  0  0  0  0  0  0  0  0  0
   -8.0464    3.7960  -11.5770 C   0  0  0  0  0  0  0  0  0  0  0  0
  1  2  2  0
  2  3  1  0
  3  4  1  0
  4  5  2  0
  5  6  1  0
  6  7  2  0
  7  8  1  0
  8  9  1  0
  9 10  1  0
 10 11  1  0
  2 12  1  0
 12 13  1  0
 13 14  1  0
 14 15  1  0
 15 16  2  0
 16 17  1  0
 17 18  2  0
 18 19  1  0
 19 20  1  0
 20 21  1  0
 21 22  2  0
 22 23  1  0
 23 24  2  0
 24 25  1  0
 25 26  2  0
 19 27  2  0
  8  4  1  0
 11  9  1  0
 27 15  1  0
 26 21  1  0
M  END
>  <energy_score>  (2513) 
-2.511971

>  <alias>  (2513) 
None

>  <HIPPO Pose ID>  (2513) 
75006

>  <smiles>  (2513) 
O=C(Cc1cncn1C1CC1)NCCc1ccnc(Oc2ccccc2)c1

>  <inchikey>  (2513) 
HYYGNCVHVHOBDH-UHFFFAOYSA-N

>  <distance_score>  (2513) 
1.54197

>  <ref_mols>  (2513) 
Z1495a,Z0800a

>  <ref_pdb>  (2513) 
Z0800a

>  <HIPPO Compound ID>  (2513) 
149139

>  <name>  (2513) 
P75006

>  <inspiration_score>  (2513) 
None

$$$$
P75008
     RDKit          3D

 27 29  0  0  0  0  0  0  0  0999 V2000
   -3.3666    8.2732  -12.9215 C   0  0  0  0  0  0  0  0  0  0  0  0
   -3.6745    6.8780  -12.3563 C   0  0  0  0  0  0  0  0  0  0  0  0
   -4.2028    7.0353  -10.9269 C   0  0  0  0  0  0  0  0  0  0  0  0
   -2.3942    6.0372  -12.4062 C   0  0  0  0  0  0  0  0  0  0  0  0
   -4.6898    6.3439  -13.2410 O   0  0  0  0  0  0  0  0  0  0  0  0
   -5.2073    5.0981  -13.0520 C   0  0  0  0  0  0  0  0  0  0  0  0
   -4.8799    4.3381  -12.1493 O   0  0  0  0  0  0  0  0  0  0  0  0
   -6.2860    4.7577  -14.1017 C   0  0  1  0  0  0  0  0  0  0  0  0
   -7.7404    4.9750  -13.6468 C   0  0  0  0  0  0  0  0  0  0  0  0
   -7.9580    4.8834  -12.1672 C   0  0  0  0  0  0  0  0  0  0  0  0
   -8.1438    3.6511  -11.5427 C   0  0  0  0  0  0  0  0  0  0  0  0
   -8.2552    3.6245  -10.1619 C   0  0  0  0  0  0  0  0  0  0  0  0
   -8.1912    4.7272   -9.3780 N   0  0  0  0  0  0  0  0  0  0  0  0
   -8.0251    5.9072  -10.0093 C   0  0  0  0  0  0  0  0  0  0  0  0
   -7.9071    6.0383  -11.3816 C   0  0  0  0  0  0  0  0  0  0  0  0
   -6.0358    5.4921  -15.3314 N   0  0  0  0  0  0  0  0  0  0  0  0
   -6.4046    6.9447  -15.7295 C   0  0  0  0  0  0  0  0  0  0  0  0
   -6.8979    7.8000  -15.1027 O   0  0  0  0  0  0  0  0  0  0  0  0
   -5.9480    7.2499  -17.1585 C   0  0  0  0  0  0  0  0  0  0  0  0
   -5.6408    6.0910  -18.0170 C   0  0  0  0  0  0  0  0  0  0  0  0
   -4.4157    5.6162  -18.4371 C   0  0  0  0  0  0  0  0  0  0  0  0
   -4.5680    4.5386  -19.2518 N   0  0  0  0  0  0  0  0  0  0  0  0
   -5.8737    4.3790  -19.3589 C   0  0  0  0  0  0  0  0  0  0  0  0
   -6.5604    5.2491  -18.5838 N   0  0  0  0  0  0  0  0  0  0  0  0
   -8.0283    5.3276  -18.4721 C   0  0  0  0  0  0  0  0  0  0  0  0
   -8.9880    4.1976  -18.7567 C   0  0  0  0  0  0  0  0  0  0  0  0
   -8.7978    4.6712  -17.3527 C   0  0  0  0  0  0  0  0  0  0  0  0
  1  2  1  0
  2  3  1  0
  2  4  1  0
  2  5  1  0
  5  6  1  0
  6  7  2  0
  6  8  1  0
  8  9  1  1
  9 10  1  0
 10 11  2  0
 11 12  1  0
 12 13  2  0
 13 14  1  0
 14 15  2  0
  8 16  1  0
 16 17  1  0
 17 18  2  0
 17 19  1  0
 19 20  1  0
 20 21  2  0
 21 22  1  0
 22 23  2  0
 23 24  1  0
 24 25  1  0
 25 26  1  0
 26 27  1  0
 15 10  1  0
 24 20  1  0
 27 25  1  0
M  END
>  <energy_score>  (2514) 
-25.830495

>  <alias>  (2514) 
None

>  <HIPPO Pose ID>  (2514) 
75008

>  <smiles>  (2514) 
CC(C)(C)OC(=O)[C@@H](Cc1ccncc1)NC(=O)Cc1cncn1C1CC1

>  <inchikey>  (2514) 
QYIKBJFCRJVCTP-QGZVFWFLSA-N

>  <distance_score>  (2514) 
1.716921

>  <ref_mols>  (2514) 
Z1495a,Z0800a

>  <ref_pdb>  (2514) 
Z0800a

>  <HIPPO Compound ID>  (2514) 
149140

>  <name>  (2514) 
P75008

>  <inspiration_score>  (2514) 
None

$$$$
P75009
     RDKit          3D

 27 28  0  0  0  0  0  0  0  0999 V2000
   -5.3150    1.2834  -11.2217 C   0  0  0  0  0  0  0  0  0  0  0  0
   -5.5616    2.5281  -11.8888 O   0  0  0  0  0  0  0  0  0  0  0  0
   -6.2717    2.4540  -13.0546 C   0  0  0  0  0  0  0  0  0  0  0  0
   -6.6296    1.4148  -13.5885 O   0  0  0  0  0  0  0  0  0  0  0  0
   -6.5256    3.8701  -13.5827 C   0  0  2  0  0  0  0  0  0  0  0  0
   -7.8484    4.4951  -13.1165 C   0  0  0  0  0  0  0  0  0  0  0  0
   -7.9866    4.6080  -11.6395 C   0  0  0  0  0  0  0  0  0  0  0  0
   -8.4015    3.4962  -10.9140 C   0  0  0  0  0  0  0  0  0  0  0  0
   -8.4740    3.6019   -9.5449 C   0  0  0  0  0  0  0  0  0  0  0  0
   -8.8400    2.5145   -8.8602 F   0  0  0  0  0  0  0  0  0  0  0  0
   -8.1851    4.7220   -8.8519 N   0  0  0  0  0  0  0  0  0  0  0  0
   -7.8233    5.7902   -9.5846 C   0  0  0  0  0  0  0  0  0  0  0  0
   -7.5346    6.9208   -8.9242 F   0  0  0  0  0  0  0  0  0  0  0  0
   -7.7012    5.7897  -10.9619 C   0  0  0  0  0  0  0  0  0  0  0  0
   -6.4871    3.9694  -15.0237 N   0  0  0  0  0  0  0  0  0  0  0  0
   -7.5657    4.4648  -16.0320 C   0  0  0  0  0  0  0  0  0  0  0  0
   -8.6755    4.7942  -15.8542 O   0  0  0  0  0  0  0  0  0  0  0  0
   -6.9045    4.5937  -17.4727 C   0  0  2  0  0  0  0  0  0  0  0  0
   -5.4740    5.0402  -17.3716 C   0  0  0  0  0  0  0  0  0  0  0  0
   -4.3719    4.6670  -18.1112 C   0  0  0  0  0  0  0  0  0  0  0  0
   -3.2487    5.3253  -17.7040 N   0  0  0  0  0  0  0  0  0  0  0  0
   -3.6751    6.1667  -16.7945 C   0  0  0  0  0  0  0  0  0  0  0  0
   -5.0157    6.0623  -16.5817 N   0  0  0  0  0  0  0  0  0  0  0  0
   -5.7675    6.9588  -15.7489 C   0  0  0  0  0  0  0  0  0  0  0  0
   -7.6951    5.6099  -18.2049 N   0  0  0  0  0  0  0  0  0  0  0  0
   -6.9174    6.3683  -19.1812 C   0  0  0  0  0  0  0  0  0  0  0  0
   -8.8640    4.9537  -18.8307 C   0  0  0  0  0  0  0  0  0  0  0  0
  1  2  1  0
  2  3  1  0
  3  4  2  0
  3  5  1  0
  5  6  1  6
  6  7  1  0
  7  8  2  0
  8  9  1  0
  9 10  1  0
  9 11  2  0
 11 12  1  0
 12 13  1  0
 12 14  2  0
  5 15  1  0
 15 16  1  0
 16 17  2  0
 16 18  1  0
 18 19  1  0
 19 20  2  0
 20 21  1  0
 21 22  2  0
 22 23  1  0
 23 24  1  0
 18 25  1  6
 25 26  1  0
 25 27  1  0
 14  7  1  0
 23 19  1  0
M  END
>  <energy_score>  (2515) 
-1.996302

>  <alias>  (2515) 
None

>  <HIPPO Pose ID>  (2515) 
75009

>  <smiles>  (2515) 
COC(=O)[C@H](Cc1cc(F)nc(F)c1)NC(=O)[C@H](c1cncn1C)N(C)C

>  <inchikey>  (2515) 
URZIZKXCEWZEGU-NHYWBVRUSA-N

>  <distance_score>  (2515) 
1.835421

>  <ref_mols>  (2515) 
Z1495a,Z0800a

>  <ref_pdb>  (2515) 
Z0800a

>  <HIPPO Compound ID>  (2515) 
149141

>  <name>  (2515) 
P75009

>  <inspiration_score>  (2515) 
None

$$$$
P75012
     RDKit          3D

 27 29  0  0  0  0  0  0  0  0999 V2000
   -2.8566    8.9073  -16.6413 C   0  0  0  0  0  0  0  0  0  0  0  0
   -3.1381    7.6387  -17.3126 N   0  0  0  0  0  0  0  0  0  0  0  0
   -2.2159    7.4361  -18.4254 C   0  0  0  0  0  0  0  0  0  0  0  0
   -4.5568    7.4604  -17.7076 C   0  0  1  0  0  0  0  0  0  0  0  0
   -5.4827    7.4422  -16.4222 C   0  0  0  0  0  0  0  0  0  0  0  0
   -6.0240    8.3809  -15.9850 O   0  0  0  0  0  0  0  0  0  0  0  0
   -5.5598    5.9487  -16.0006 N   0  0  0  0  0  0  0  0  0  0  0  0
   -6.3952    5.2895  -15.0121 C   0  0  1  0  0  0  0  0  0  0  0  0
   -7.4106    6.1359  -14.2178 C   0  0  0  0  0  0  0  0  0  0  0  0
   -7.6619    5.6785  -12.7869 C   0  0  0  0  0  0  0  0  0  0  0  0
   -8.0844    4.3913  -12.4402 C   0  0  0  0  0  0  0  0  0  0  0  0
   -8.2447    4.0677  -11.0953 C   0  0  0  0  0  0  0  0  0  0  0  0
   -8.0401    4.9375  -10.0821 N   0  0  0  0  0  0  0  0  0  0  0  0
   -7.6818    6.1862  -10.4330 C   0  0  0  0  0  0  0  0  0  0  0  0
   -7.4839    6.5959  -11.7437 C   0  0  0  0  0  0  0  0  0  0  0  0
   -6.9693    4.0684  -15.7328 C   0  0  0  0  0  0  0  0  0  0  0  0
   -7.9481    4.1516  -16.8989 C   0  0  0  0  0  0  0  0  0  0  0  0
   -7.6660    4.9731  -18.1363 C   0  0  0  0  0  0  0  0  0  0  0  0
   -8.9914    4.8947  -18.9016 C   0  0  0  0  0  0  0  0  0  0  0  0
  -10.0457    4.3960  -17.9292 C   0  0  0  0  0  0  0  0  0  0  0  0
   -9.3731    4.5181  -16.5733 C   0  0  0  0  0  0  0  0  0  0  0  0
   -5.0860    8.4160  -18.7357 C   0  0  0  0  0  0  0  0  0  0  0  0
   -5.4777    9.7404  -18.6330 C   0  0  0  0  0  0  0  0  0  0  0  0
   -5.8671   10.2498  -19.8436 N   0  0  0  0  0  0  0  0  0  0  0  0
   -5.6716    9.2715  -20.6953 C   0  0  0  0  0  0  0  0  0  0  0  0
   -5.2917    8.1211  -20.0647 N   0  0  0  0  0  0  0  0  0  0  0  0
   -5.1641    6.8421  -20.7176 C   0  0  0  0  0  0  0  0  0  0  0  0
  1  2  1  0
  2  3  1  0
  4  2  1  1
  4  5  1  0
  5  6  2  0
  5  7  1  0
  7  8  1  0
  8  9  1  6
  9 10  1  0
 10 11  2  0
 11 12  1  0
 12 13  2  0
 13 14  1  0
 14 15  2  0
  8 16  1  0
 16 17  1  0
 17 18  1  0
 18 19  1  0
 19 20  1  0
 20 21  1  0
  4 22  1  0
 22 23  2  0
 23 24  1  0
 24 25  2  0
 25 26  1  0
 26 27  1  0
 15 10  1  0
 21 17  1  0
 26 22  1  0
M  END
>  <energy_score>  (2516) 
-11.817822

>  <alias>  (2516) 
None

>  <HIPPO Pose ID>  (2516) 
75012

>  <smiles>  (2516) 
CN(C)[C@@H](C(=O)N[C@@H](Cc1ccncc1)CC1CCCC1)c1cncn1C

>  <inchikey>  (2516) 
UQQCXKYTTCPAQJ-UYAOXDASSA-N

>  <distance_score>  (2516) 
1.497509

>  <ref_mols>  (2516) 
Z0800a,Z1495a

>  <ref_pdb>  (2516) 
Z0800a

>  <HIPPO Compound ID>  (2516) 
149142

>  <name>  (2516) 
P75012

>  <inspiration_score>  (2516) 
None

$$$$
P75014
     RDKit          3D

 27 30  0  0  0  0  0  0  0  0999 V2000
   -2.1318    6.7190  -17.5796 C   0  0  0  0  0  0  0  0  0  0  0  0
   -3.1750    6.2092  -16.7564 O   0  0  0  0  0  0  0  0  0  0  0  0
   -4.3205    5.9142  -17.4550 C   0  0  0  0  0  0  0  0  0  0  0  0
   -5.3686    5.4229  -16.7051 C   0  0  0  0  0  0  0  0  0  0  0  0
   -6.5664    5.0463  -17.3115 C   0  0  0  0  0  0  0  0  0  0  0  0
   -7.8132    4.4855  -16.4753 C   0  0  0  0  0  0  0  0  0  0  0  0
   -7.3929    3.6209  -15.2802 C   0  0  0  0  0  0  0  0  0  0  0  0
   -7.0050    4.3076  -14.0762 N   0  0  0  0  0  0  0  0  0  0  0  0
   -7.8479    5.1445  -13.0775 C   0  0  0  0  0  0  0  0  0  0  0  0
   -8.9681    5.4687  -13.1202 O   0  0  0  0  0  0  0  0  0  0  0  0
   -6.9374    5.4246  -11.8632 C   0  0  1  0  0  0  0  0  0  0  0  0
   -6.8594    6.9498  -11.6245 C   0  0  0  0  0  0  0  0  0  0  0  0
   -8.0127    7.5152  -10.7775 C   0  0  0  0  0  0  0  0  0  0  0  0
   -8.1284    6.8231   -9.4144 C   0  0  0  0  0  0  0  0  0  0  0  0
   -8.0495    5.3586   -9.5692 C   0  0  0  0  0  0  0  0  0  0  0  0
   -8.4517    4.4709   -8.6219 N   0  0  0  0  0  0  0  0  0  0  0  0
   -8.1574    3.2805   -9.1029 C   0  0  0  0  0  0  0  0  0  0  0  0
   -8.4417    1.9976   -8.4064 C   0  0  0  0  0  0  0  0  0  0  0  0
   -7.5397    3.4009  -10.3332 N   0  0  0  0  0  0  0  0  0  0  0  0
   -7.0044    2.3282  -11.1280 C   0  0  0  0  0  0  0  0  0  0  0  0
   -7.4899    4.7326  -10.6542 C   0  0  0  0  0  0  0  0  0  0  0  0
   -8.9005    3.7463  -17.3484 C   0  0  0  0  0  0  0  0  0  0  0  0
   -9.6238    5.0872  -17.4918 C   0  0  0  0  0  0  0  0  0  0  0  0
   -8.9500    5.4868  -16.1585 C   0  0  0  0  0  0  0  0  0  0  0  0
   -6.5992    5.2258  -18.7018 C   0  0  0  0  0  0  0  0  0  0  0  0
   -5.5216    5.7705  -19.3674 C   0  0  0  0  0  0  0  0  0  0  0  0
   -4.3714    6.1109  -18.7748 N   0  0  0  0  0  0  0  0  0  0  0  0
  1  2  1  0
  2  3  1  0
  3  4  2  0
  4  5  1  0
  5  6  1  0
  6  7  1  0
  7  8  1  0
  8  9  1  0
  9 10  2  0
 11  9  1  6
 11 12  1  0
 12 13  1  0
 13 14  1  0
 14 15  1  0
 15 16  1  0
 16 17  2  0
 17 18  1  0
 17 19  1  0
 19 20  1  0
 19 21  1  0
  6 22  1  0
 22 23  1  0
 23 24  1  0
  5 25  2  0
 25 26  1  0
 26 27  2  0
 27  3  1  0
 24  6  1  0
 21 11  1  0
 21 15  2  0
M  END
>  <energy_score>  (2517) 
-29.885227

>  <alias>  (2517) 
None

>  <HIPPO Pose ID>  (2517) 
75014

>  <smiles>  (2517) 
COc1cc(C2(CNC(=O)[C@H]3CCCc4nc(C)n(C)c43)CCC2)ccn1

>  <inchikey>  (2517) 
DXNAPVPSNGCZOH-INIZCTEOSA-N

>  <distance_score>  (2517) 
1.9344

>  <ref_mols>  (2517) 
Z1495a,Z0800a

>  <ref_pdb>  (2517) 
Z0800a

>  <HIPPO Compound ID>  (2517) 
149144

>  <name>  (2517) 
P75014

>  <inspiration_score>  (2517) 
None

$$$$
P75015
     RDKit          3D

 27 30  0  0  0  0  0  0  0  0999 V2000
   -5.4330    9.5243  -15.3978 O   0  0  0  0  0  0  0  0  0  0  0  0
   -5.4644    8.4283  -15.8045 C   0  0  0  0  0  0  0  0  0  0  0  0
   -5.1486    8.1429  -17.2909 C   0  0  0  0  0  0  0  0  0  0  0  0
   -4.6030    6.7836  -17.5481 C   0  0  0  0  0  0  0  0  0  0  0  0
   -3.4579    6.1959  -17.0480 C   0  0  0  0  0  0  0  0  0  0  0  0
   -3.3524    4.8989  -17.4417 N   0  0  0  0  0  0  0  0  0  0  0  0
   -4.3914    4.7028  -18.2119 C   0  0  0  0  0  0  0  0  0  0  0  0
   -5.1879    5.8027  -18.3034 N   0  0  0  0  0  0  0  0  0  0  0  0
   -6.3534    5.8537  -19.1590 C   0  0  0  0  0  0  0  0  0  0  0  0
   -7.5038    5.1376  -18.5450 C   0  0  0  0  0  0  0  0  0  0  0  0
   -8.0505    5.5736  -17.3445 C   0  0  0  0  0  0  0  0  0  0  0  0
   -9.2409    5.0562  -16.8770 C   0  0  0  0  0  0  0  0  0  0  0  0
   -9.8880    4.0883  -17.6050 C   0  0  0  0  0  0  0  0  0  0  0  0
   -9.2744    3.5543  -18.7175 C   0  0  0  0  0  0  0  0  0  0  0  0
   -8.1012    4.0847  -19.2152 C   0  0  0  0  0  0  0  0  0  0  0  0
   -5.8879    7.1081  -15.1060 N   0  0  0  0  0  0  0  0  0  0  0  0
   -6.2659    6.8537  -13.7461 C   0  0  0  0  0  0  0  0  0  0  0  0
   -7.6067    6.1127  -13.6877 C   0  0  0  0  0  0  0  0  0  0  0  0
   -7.8815    5.5705  -12.3155 C   0  0  0  0  0  0  0  0  0  0  0  0
   -7.9532    6.5243  -11.2063 C   0  0  0  0  0  0  0  0  0  0  0  0
   -8.0769    6.0629   -9.9509 C   0  0  0  0  0  0  0  0  0  0  0  0
   -8.1758    4.6918   -9.7408 N   0  0  0  0  0  0  0  0  0  0  0  0
   -8.2882    3.9905   -8.5688 C   0  0  0  0  0  0  0  0  0  0  0  0
   -8.3554    2.6676   -8.9424 C   0  0  0  0  0  0  0  0  0  0  0  0
   -8.2874    2.5412  -10.3057 N   0  0  0  0  0  0  0  0  0  0  0  0
   -8.1721    3.7611  -10.7686 C   0  0  0  0  0  0  0  0  0  0  0  0
   -8.0181    4.2447  -12.0943 C   0  0  0  0  0  0  0  0  0  0  0  0
  1  2  2  0
  2  3  1  0
  3  4  1  0
  4  5  2  0
  5  6  1  0
  6  7  2  0
  7  8  1  0
  8  9  1  0
  9 10  1  0
 10 11  2  0
 11 12  1  0
 12 13  2  0
 13 14  1  0
 14 15  2  0
  2 16  1  0
 16 17  1  0
 17 18  1  0
 18 19  1  0
 19 20  1  0
 20 21  2  0
 21 22  1  0
 22 23  1  0
 23 24  2  0
 24 25  1  0
 25 26  2  0
 26 27  1  0
  8  4  1  0
 15 10  1  0
 27 19  2  0
 26 22  1  0
M  END
>  <energy_score>  (2518) 
-9.49135

>  <alias>  (2518) 
None

>  <HIPPO Pose ID>  (2518) 
75015

>  <smiles>  (2518) 
O=C(Cc1cncn1Cc1ccccc1)NCCc1ccn2ccnc2c1

>  <inchikey>  (2518) 
WXOPTNFPZLGIAH-UHFFFAOYSA-N

>  <distance_score>  (2518) 
1.4874

>  <ref_mols>  (2518) 
Z1495a,Z0800a

>  <ref_pdb>  (2518) 
Z0800a

>  <HIPPO Compound ID>  (2518) 
149145

>  <name>  (2518) 
P75015

>  <inspiration_score>  (2518) 
None

$$$$
P75016
     RDKit          3D

 27 29  0  0  0  0  0  0  0  0999 V2000
   -9.0915    6.4114  -14.2091 C   0  0  0  0  0  0  0  0  0  0  0  0
   -7.8420    6.6681  -13.3385 C   0  0  0  0  0  0  0  0  0  0  0  0
   -7.8476    8.1869  -13.0095 C   0  0  0  0  0  0  0  0  0  0  0  0
   -6.5084    6.3863  -14.0779 C   0  0  0  0  0  0  0  0  0  0  0  0
   -6.4701    6.8908  -15.4306 N   0  0  0  0  0  0  0  0  0  0  0  0
   -5.4455    7.8239  -16.1295 C   0  0  0  0  0  0  0  0  0  0  0  0
   -4.5196    8.3883  -15.6975 O   0  0  0  0  0  0  0  0  0  0  0  0
   -5.8436    7.8734  -17.6121 C   0  0  0  0  0  0  0  0  0  0  0  0
   -4.9612    7.0200  -18.4464 C   0  0  0  0  0  0  0  0  0  0  0  0
   -4.0383    7.3888  -19.4084 C   0  0  0  0  0  0  0  0  0  0  0  0
   -3.4203    6.2989  -19.9566 N   0  0  0  0  0  0  0  0  0  0  0  0
   -3.9592    5.2761  -19.3391 C   0  0  0  0  0  0  0  0  0  0  0  0
   -4.9071    5.6505  -18.4218 N   0  0  0  0  0  0  0  0  0  0  0  0
   -5.5634    4.7106  -17.5263 C   0  0  0  0  0  0  0  0  0  0  0  0
   -7.0340    4.5211  -17.7354 C   0  0  0  0  0  0  0  0  0  0  0  0
   -7.6473    4.5687  -18.9854 C   0  0  0  0  0  0  0  0  0  0  0  0
   -9.0265    4.3802  -19.1140 C   0  0  0  0  0  0  0  0  0  0  0  0
   -9.8105    4.1390  -18.0040 C   0  0  0  0  0  0  0  0  0  0  0  0
   -9.1933    3.9976  -16.7741 C   0  0  0  0  0  0  0  0  0  0  0  0
   -7.8214    4.1655  -16.6397 C   0  0  0  0  0  0  0  0  0  0  0  0
   -7.9217    5.7850  -12.0739 C   0  0  0  0  0  0  0  0  0  0  0  0
   -8.0100    4.3303  -12.2331 C   0  0  0  0  0  0  0  0  0  0  0  0
   -8.1109    3.5250  -11.1687 C   0  0  0  0  0  0  0  0  0  0  0  0
   -8.1208    4.0465   -9.9053 N   0  0  0  0  0  0  0  0  0  0  0  0
   -8.0363    5.3850   -9.6343 C   0  0  0  0  0  0  0  0  0  0  0  0
   -8.0440    5.8392   -8.4955 O   0  0  0  0  0  0  0  0  0  0  0  0
   -7.9307    6.2776  -10.8181 C   0  0  0  0  0  0  0  0  0  0  0  0
  1  2  1  0
  2  3  1  0
  2  4  1  0
  4  5  1  0
  5  6  1  0
  6  7  2  0
  6  8  1  0
  8  9  1  0
  9 10  2  0
 10 11  1  0
 11 12  2  0
 12 13  1  0
 13 14  1  0
 14 15  1  0
 15 16  2  0
 16 17  1  0
 17 18  2  0
 18 19  1  0
 19 20  2  0
  2 21  1  0
 21 22  1  0
 22 23  2  0
 23 24  1  0
 24 25  1  0
 25 26  2  0
 25 27  1  0
 13  9  1  0
 20 15  1  0
 27 21  2  0
M  END
>  <energy_score>  (2519) 
-31.26317

>  <alias>  (2519) 
None

>  <HIPPO Pose ID>  (2519) 
75016

>  <smiles>  (2519) 
CC(C)(CNC(=O)Cc1cncn1Cc1ccccc1)c1cc[nH]c(=O)c1

>  <inchikey>  (2519) 
VDGOHPKYJJDIFN-UHFFFAOYSA-N

>  <distance_score>  (2519) 
1.719358

>  <ref_mols>  (2519) 
Z1495a,Z0800a

>  <ref_pdb>  (2519) 
Z0800a

>  <HIPPO Compound ID>  (2519) 
149146

>  <name>  (2519) 
P75016

>  <inspiration_score>  (2519) 
None

$$$$
P75017
     RDKit          3D

 27 29  0  0  0  0  0  0  0  0999 V2000
   -9.6211    3.5081  -18.3701 C   0  0  0  0  0  0  0  0  0  0  0  0
   -9.7142    4.9711  -18.0337 C   0  0  0  0  0  0  0  0  0  0  0  0
   -8.5054    5.4100  -17.4181 O   0  0  0  0  0  0  0  0  0  0  0  0
   -8.3006    4.9784  -16.1431 C   0  0  0  0  0  0  0  0  0  0  0  0
   -9.0390    4.2372  -15.5146 O   0  0  0  0  0  0  0  0  0  0  0  0
   -6.9855    5.5541  -15.6337 C   0  0  2  0  0  0  0  0  0  0  0  0
   -5.8187    4.8939  -16.3840 C   0  0  0  0  0  0  0  0  0  0  0  0
   -5.4262    5.6873  -17.6022 C   0  0  0  0  0  0  0  0  0  0  0  0
   -4.6615    6.8345  -17.4442 C   0  0  0  0  0  0  0  0  0  0  0  0
   -4.4186    7.6307  -18.5464 C   0  0  0  0  0  0  0  0  0  0  0  0
   -4.8693    7.3796  -19.7842 N   0  0  0  0  0  0  0  0  0  0  0  0
   -5.6042    6.2569  -19.9166 C   0  0  0  0  0  0  0  0  0  0  0  0
   -5.8885    5.3789  -18.8798 C   0  0  0  0  0  0  0  0  0  0  0  0
   -6.8860    5.4035  -14.1921 N   0  0  0  0  0  0  0  0  0  0  0  0
   -7.9035    5.7530  -13.0675 C   0  0  0  0  0  0  0  0  0  0  0  0
   -9.0028    6.1421  -13.1362 O   0  0  0  0  0  0  0  0  0  0  0  0
   -7.1471    5.5933  -11.7368 C   0  0  1  0  0  0  0  0  0  0  0  0
   -6.8445    7.0602  -11.3060 C   0  0  0  0  0  0  0  0  0  0  0  0
   -6.6365    7.2571   -9.7994 C   0  0  0  0  0  0  0  0  0  0  0  0
   -7.8387    6.7564   -8.9952 C   0  0  0  0  0  0  0  0  0  0  0  0
   -8.1264    5.3719   -9.3967 C   0  0  0  0  0  0  0  0  0  0  0  0
   -8.5101    4.4147   -8.5166 N   0  0  0  0  0  0  0  0  0  0  0  0
   -8.5016    3.2933   -9.2018 C   0  0  0  0  0  0  0  0  0  0  0  0
   -8.7340    1.9534   -8.6068 C   0  0  0  0  0  0  0  0  0  0  0  0
   -8.1991    3.5428  -10.5282 N   0  0  0  0  0  0  0  0  0  0  0  0
   -8.1952    2.5692  -11.5832 C   0  0  0  0  0  0  0  0  0  0  0  0
   -7.8709    4.8657  -10.6492 C   0  0  0  0  0  0  0  0  0  0  0  0
  1  2  1  0
  2  3  1  0
  3  4  1  0
  4  5  2  0
  4  6  1  0
  6  7  1  6
  7  8  1  0
  8  9  2  0
  9 10  1  0
 10 11  2  0
 11 12  1  0
 12 13  2  0
  6 14  1  0
 14 15  1  0
 15 16  2  0
 17 15  1  6
 17 18  1  0
 18 19  1  0
 19 20  1  0
 20 21  1  0
 21 22  1  0
 22 23  2  0
 23 24  1  0
 23 25  1  0
 25 26  1  0
 25 27  1  0
 13  8  1  0
 27 17  1  0
 27 21  2  0
M  END
>  <energy_score>  (2520) 
-2.622394

>  <alias>  (2520) 
None

>  <HIPPO Pose ID>  (2520) 
75017

>  <smiles>  (2520) 
CCOC(=O)[C@H](Cc1ccncc1)NC(=O)[C@H]1CCCc2nc(C)n(C)c21

>  <inchikey>  (2520) 
DEQIRYNJONWEQJ-RDJZCZTQSA-N

>  <distance_score>  (2520) 
1.867

>  <ref_mols>  (2520) 
Z0800a,Z1495a

>  <ref_pdb>  (2520) 
Z0800a

>  <HIPPO Compound ID>  (2520) 
149150

>  <name>  (2520) 
P75017

>  <inspiration_score>  (2520) 
None

$$$$
P75018
     RDKit          3D

 27 29  0  0  0  0  0  0  0  0999 V2000
   -9.0736    3.8629  -19.0278 C   0  0  0  0  0  0  0  0  0  0  0  0
   -9.9708    4.6486  -18.1052 C   0  0  0  0  0  0  0  0  0  0  0  0
   -9.1883    5.1969  -16.9335 C   0  0  0  0  0  0  0  0  0  0  0  0
   -8.5231    4.1931  -16.1729 O   0  0  0  0  0  0  0  0  0  0  0  0
   -8.6142    4.4367  -14.8361 C   0  0  0  0  0  0  0  0  0  0  0  0
   -9.6473    4.7656  -14.2579 O   0  0  0  0  0  0  0  0  0  0  0  0
   -7.2495    4.3587  -14.1528 C   0  0  2  0  0  0  0  0  0  0  0  0
   -7.2156    5.5692  -13.2081 C   0  0  0  0  0  0  0  0  0  0  0  0
   -7.7075    5.3878  -11.8001 C   0  0  0  0  0  0  0  0  0  0  0  0
   -7.7362    6.5266  -10.9878 C   0  0  0  0  0  0  0  0  0  0  0  0
   -8.0404    6.3849   -9.6492 C   0  0  0  0  0  0  0  0  0  0  0  0
   -8.3144    5.2046   -9.0691 N   0  0  0  0  0  0  0  0  0  0  0  0
   -8.3254    4.1192   -9.8757 C   0  0  0  0  0  0  0  0  0  0  0  0
   -8.7185    2.4598   -9.0714 Br  0  0  0  0  0  0  0  0  0  0  0  0
   -8.0364    4.1578  -11.2307 C   0  0  0  0  0  0  0  0  0  0  0  0
   -6.1679    4.5026  -15.1145 N   0  0  0  0  0  0  0  0  0  0  0  0
   -4.6937    4.8842  -14.9092 C   0  0  0  0  0  0  0  0  0  0  0  0
   -4.0913    5.0692  -13.9306 O   0  0  0  0  0  0  0  0  0  0  0  0
   -4.0171    5.1328  -16.2437 C   0  0  0  0  0  0  0  0  0  0  0  0
   -4.8733    6.0273  -17.1964 C   0  0  0  0  0  0  0  0  0  0  0  0
   -5.6238    7.0895  -16.7454 C   0  0  0  0  0  0  0  0  0  0  0  0
   -6.4414    7.5556  -17.7269 N   0  0  0  0  0  0  0  0  0  0  0  0
   -6.1581    6.8248  -18.7783 C   0  0  0  0  0  0  0  0  0  0  0  0
   -5.1348    5.9597  -18.5270 N   0  0  0  0  0  0  0  0  0  0  0  0
   -4.4525    5.2140  -19.5401 C   0  0  0  0  0  0  0  0  0  0  0  0
   -3.0716    4.0822  -16.7288 C   0  0  0  0  0  0  0  0  0  0  0  0
   -2.5176    5.3952  -16.2751 C   0  0  0  0  0  0  0  0  0  0  0  0
  1  2  1  0
  2  3  1  0
  3  4  1  0
  4  5  1  0
  5  6  2  0
  5  7  1  0
  7  8  1  1
  8  9  1  0
  9 10  2  0
 10 11  1  0
 11 12  2  0
 12 13  1  0
 13 14  1  0
 13 15  2  0
  7 16  1  0
 16 17  1  0
 17 18  2  0
 17 19  1  0
 19 20  1  0
 20 21  2  0
 21 22  1  0
 22 23  2  0
 23 24  1  0
 24 25  1  0
 19 26  1  0
 26 27  1  0
 15  9  1  0
 27 19  1  0
 24 20  1  0
M  END
>  <energy_score>  (2521) 
-22.905553

>  <alias>  (2521) 
None

>  <HIPPO Pose ID>  (2521) 
75018

>  <smiles>  (2521) 
CCCOC(=O)[C@H](Cc1ccnc(Br)c1)NC(=O)C1(c2cncn2C)CC1

>  <inchikey>  (2521) 
XNVMPWMCROZMAZ-AWEZNQCLSA-N

>  <distance_score>  (2521) 
1.882869

>  <ref_mols>  (2521) 
Z1495a,Z0800a

>  <ref_pdb>  (2521) 
Z0800a

>  <HIPPO Compound ID>  (2521) 
149159

>  <name>  (2521) 
P75018

>  <inspiration_score>  (2521) 
None

$$$$
P75020
     RDKit          3D

 27 30  0  0  0  0  0  0  0  0999 V2000
   -8.8115    2.1561   -8.3407 C   0  0  0  0  0  0  0  0  0  0  0  0
   -8.9765    2.4345   -9.7236 O   0  0  0  0  0  0  0  0  0  0  0  0
   -8.4324    3.6474  -10.0678 C   0  0  0  0  0  0  0  0  0  0  0  0
   -8.0758    3.7987  -11.3941 C   0  0  0  0  0  0  0  0  0  0  0  0
   -7.4967    4.9996  -11.8218 C   0  0  0  0  0  0  0  0  0  0  0  0
   -7.0196    5.1966  -13.3410 C   0  0  0  0  0  0  0  0  0  0  0  0
   -5.6976    4.4121  -13.5192 C   0  0  0  0  0  0  0  0  0  0  0  0
   -5.1706    4.5973  -14.8494 N   0  0  0  0  0  0  0  0  0  0  0  0
   -3.9092    5.3701  -15.3390 C   0  0  0  0  0  0  0  0  0  0  0  0
   -3.0662    5.9069  -14.7310 O   0  0  0  0  0  0  0  0  0  0  0  0
   -3.9347    5.3727  -16.8838 C   0  0  0  0  0  0  0  0  0  0  0  0
   -5.2253    5.9494  -17.3484 C   0  0  0  0  0  0  0  0  0  0  0  0
   -5.8476    7.1312  -17.0362 C   0  0  0  0  0  0  0  0  0  0  0  0
   -7.1827    7.0533  -17.3284 N   0  0  0  0  0  0  0  0  0  0  0  0
   -7.3785    5.8906  -17.9153 C   0  0  0  0  0  0  0  0  0  0  0  0
   -6.1576    5.3133  -18.1108 N   0  0  0  0  0  0  0  0  0  0  0  0
   -5.9993    4.1291  -18.8923 C   0  0  0  0  0  0  0  0  0  0  0  0
   -7.0718    4.0425  -19.9468 C   0  0  0  0  0  0  0  0  0  0  0  0
   -8.4500    4.0595  -19.3235 C   0  0  0  0  0  0  0  0  0  0  0  0
   -8.6614    5.2998  -18.4655 C   0  0  1  0  0  0  0  0  0  0  0  0
   -9.7063    4.9371  -17.4274 C   0  0  0  0  0  0  0  0  0  0  0  0
   -7.0425    6.6792  -13.8493 C   0  0  0  0  0  0  0  0  0  0  0  0
   -8.4955    6.4490  -14.2880 C   0  0  0  0  0  0  0  0  0  0  0  0
   -8.1575    4.9518  -14.4019 C   0  0  0  0  0  0  0  0  0  0  0  0
   -7.3523    5.9989  -10.8441 C   0  0  0  0  0  0  0  0  0  0  0  0
   -7.7722    5.7706   -9.5468 C   0  0  0  0  0  0  0  0  0  0  0  0
   -8.3071    4.6134   -9.1342 N   0  0  0  0  0  0  0  0  0  0  0  0
  1  2  1  0
  2  3  1  0
  3  4  2  0
  4  5  1  0
  5  6  1  0
  6  7  1  0
  7  8  1  0
  8  9  1  0
  9 10  2  0
  9 11  1  0
 11 12  1  0
 12 13  2  0
 13 14  1  0
 14 15  2  0
 15 16  1  0
 16 17  1  0
 17 18  1  0
 18 19  1  0
 19 20  1  0
 20 21  1  1
  6 22  1  0
 22 23  1  0
 23 24  1  0
  5 25  2  0
 25 26  1  0
 26 27  2  0
 27  3  1  0
 24  6  1  0
 16 12  1  0
 20 15  1  0
M  END
>  <energy_score>  (2522) 
-52.757307

>  <alias>  (2522) 
None

>  <HIPPO Pose ID>  (2522) 
75020

>  <smiles>  (2522) 
COc1cc(C2(CNC(=O)Cc3cnc4n3CCC[C@H]4C)CCC2)ccn1

>  <inchikey>  (2522) 
PYXYTRLAFUGKIB-OAHLLOKOSA-N

>  <distance_score>  (2522) 
1.695821

>  <ref_mols>  (2522) 
Z1495a,Z0800a

>  <ref_pdb>  (2522) 
Z0800a

>  <HIPPO Compound ID>  (2522) 
149165

>  <name>  (2522) 
P75020

>  <inspiration_score>  (2522) 
None

$$$$
P75021
     RDKit          3D

 27 28  0  0  0  0  0  0  0  0999 V2000
   -3.7732    1.9353  -13.3437 C   0  0  0  0  0  0  0  0  0  0  0  0
   -5.0161    2.2541  -12.5330 C   0  0  0  0  0  0  0  0  0  0  0  0
   -6.1338    2.5962  -13.3686 O   0  0  0  0  0  0  0  0  0  0  0  0
   -6.1577    3.8795  -13.8369 C   0  0  0  0  0  0  0  0  0  0  0  0
   -5.2081    4.6518  -13.7791 O   0  0  0  0  0  0  0  0  0  0  0  0
   -7.5483    4.2230  -14.3972 C   0  0  1  0  0  0  0  0  0  0  0  0
   -8.0953    5.4362  -13.6377 C   0  0  0  0  0  0  0  0  0  0  0  0
   -8.0698    5.3202  -12.1380 C   0  0  0  0  0  0  0  0  0  0  0  0
   -7.7300    6.4360  -11.3714 C   0  0  0  0  0  0  0  0  0  0  0  0
   -7.7115    6.3185   -9.9953 C   0  0  0  0  0  0  0  0  0  0  0  0
   -8.0236    5.1870   -9.3389 N   0  0  0  0  0  0  0  0  0  0  0  0
   -8.3823    4.1009  -10.0869 C   0  0  0  0  0  0  0  0  0  0  0  0
   -8.8486    2.8500   -9.4518 N   0  0  0  0  0  0  0  0  0  0  0  0
   -8.6232    2.7116   -8.2416 O   0  0  0  0  0  0  0  0  0  0  0  0
   -9.4789    2.0548  -10.1585 O   0  0  0  0  0  0  0  0  0  0  0  0
   -8.4028    4.1336  -11.4819 C   0  0  0  0  0  0  0  0  0  0  0  0
   -7.5614    4.4734  -15.8228 N   0  0  0  0  0  0  0  0  0  0  0  0
   -7.4000    5.8015  -16.6163 C   0  0  0  0  0  0  0  0  0  0  0  0
   -7.3093    6.9042  -16.2372 O   0  0  0  0  0  0  0  0  0  0  0  0
   -7.3119    5.3868  -18.1124 C   0  0  2  0  0  0  0  0  0  0  0  0
   -7.6462    4.0190  -18.3052 O   0  0  0  0  0  0  0  0  0  0  0  0
   -5.9256    5.5785  -18.6187 C   0  0  0  0  0  0  0  0  0  0  0  0
   -5.4894    6.0960  -19.8223 C   0  0  0  0  0  0  0  0  0  0  0  0
   -4.1213    6.1149  -19.9139 N   0  0  0  0  0  0  0  0  0  0  0  0
   -3.7220    5.5982  -18.7811 C   0  0  0  0  0  0  0  0  0  0  0  0
   -4.7620    5.2862  -17.9579 N   0  0  0  0  0  0  0  0  0  0  0  0
   -4.5672    4.8166  -16.6171 C   0  0  0  0  0  0  0  0  0  0  0  0
  1  2  1  0
  2  3  1  0
  3  4  1  0
  4  5  2  0
  4  6  1  0
  6  7  1  1
  7  8  1  0
  8  9  2  0
  9 10  1  0
 10 11  2  0
 11 12  1  0
 12 13  1  0
 13 14  2  0
 13 15  1  0
 12 16  2  0
  6 17  1  0
 17 18  1  0
 18 19  2  0
 18 20  1  0
 20 21  1  1
 20 22  1  0
 22 23  2  0
 23 24  1  0
 24 25  2  0
 25 26  1  0
 26 27  1  0
 16  8  1  0
 26 22  1  0
M  CHG  2  13   1  15  -1
M  END
>  <energy_score>  (2523) 
-20.664904

>  <alias>  (2523) 
None

>  <HIPPO Pose ID>  (2523) 
75021

>  <smiles>  (2523) 
CCOC(=O)[C@@H](Cc1ccnc([N+](=O)[O-])c1)NC(=O)[C@H](O)c1cncn1C

>  <inchikey>  (2523) 
HPGFAHCAXRQNNV-BXUZGUMPSA-N

>  <distance_score>  (2523) 
1.953734

>  <ref_mols>  (2523) 
Z1495a,Z0800a

>  <ref_pdb>  (2523) 
Z0800a

>  <HIPPO Compound ID>  (2523) 
149168

>  <name>  (2523) 
P75021

>  <inspiration_score>  (2523) 
None

$$$$
P75023
     RDKit          3D

 27 29  0  0  0  0  0  0  0  0999 V2000
   -8.3702    2.5683   -9.0578 C   0  0  0  0  0  0  0  0  0  0  0  0
   -8.2199    2.8512  -10.4497 O   0  0  0  0  0  0  0  0  0  0  0  0
   -8.1330    4.2027  -10.7072 C   0  0  0  0  0  0  0  0  0  0  0  0
   -8.0670    4.5934  -12.0421 C   0  0  0  0  0  0  0  0  0  0  0  0
   -8.0440    5.9630  -12.3408 C   0  0  0  0  0  0  0  0  0  0  0  0
   -8.0134    6.4792  -13.7587 C   0  0  0  0  0  0  0  0  0  0  0  0
   -6.6607    7.0785  -14.2210 C   0  0  2  0  0  0  0  0  0  0  0  0
   -6.3172    8.3976  -13.5249 C   0  0  0  0  0  0  0  0  0  0  0  0
   -6.6456    7.2741  -15.6681 N   0  0  0  0  0  0  0  0  0  0  0  0
   -5.5873    7.9612  -16.5860 C   0  0  0  0  0  0  0  0  0  0  0  0
   -4.6084    8.5403  -16.3118 O   0  0  0  0  0  0  0  0  0  0  0  0
   -6.0026    7.7123  -18.0476 C   0  0  0  0  0  0  0  0  0  0  0  0
   -5.0262    6.7996  -18.7015 C   0  0  0  0  0  0  0  0  0  0  0  0
   -4.1105    7.0302  -19.7108 C   0  0  0  0  0  0  0  0  0  0  0  0
   -3.3343    5.9244  -19.9475 N   0  0  0  0  0  0  0  0  0  0  0  0
   -3.7724    5.0295  -19.0925 C   0  0  0  0  0  0  0  0  0  0  0  0
   -4.8401    5.4831  -18.3650 N   0  0  0  0  0  0  0  0  0  0  0  0
   -5.5348    4.7043  -17.3546 C   0  0  0  0  0  0  0  0  0  0  0  0
   -6.9947    4.4754  -17.6130 C   0  0  0  0  0  0  0  0  0  0  0  0
   -7.6003    4.5419  -18.8715 C   0  0  0  0  0  0  0  0  0  0  0  0
   -8.9805    4.3760  -19.0103 C   0  0  0  0  0  0  0  0  0  0  0  0
   -9.7666    4.1115  -17.9050 C   0  0  0  0  0  0  0  0  0  0  0  0
   -9.1604    3.9676  -16.6676 C   0  0  0  0  0  0  0  0  0  0  0  0
   -7.7897    4.1280  -16.5209 C   0  0  0  0  0  0  0  0  0  0  0  0
   -8.0998    6.8645  -11.2749 C   0  0  0  0  0  0  0  0  0  0  0  0
   -8.1205    6.3794   -9.9803 C   0  0  0  0  0  0  0  0  0  0  0  0
   -8.1324    5.0730   -9.6744 N   0  0  0  0  0  0  0  0  0  0  0  0
  1  2  1  0
  2  3  1  0
  3  4  2  0
  4  5  1  0
  5  6  1  0
  6  7  1  0
  7  8  1  1
  7  9  1  0
  9 10  1  0
 10 11  2  0
 10 12  1  0
 12 13  1  0
 13 14  2  0
 14 15  1  0
 15 16  2  0
 16 17  1  0
 17 18  1  0
 18 19  1  0
 19 20  2  0
 20 21  1  0
 21 22  2  0
 22 23  1  0
 23 24  2  0
  5 25  2  0
 25 26  1  0
 26 27  2  0
 27  3  1  0
 17 13  1  0
 24 19  1  0
M  END
>  <energy_score>  (2524) 
-8.674481

>  <alias>  (2524) 
None

>  <HIPPO Pose ID>  (2524) 
75023

>  <smiles>  (2524) 
COc1cc(C[C@H](C)NC(=O)Cc2cncn2Cc2ccccc2)ccn1

>  <inchikey>  (2524) 
GOGYLDFLKRBRDU-INIZCTEOSA-N

>  <distance_score>  (2524) 
1.651911

>  <ref_mols>  (2524) 
Z1495a,Z0800a

>  <ref_pdb>  (2524) 
Z0800a

>  <HIPPO Compound ID>  (2524) 
149169

>  <name>  (2524) 
P75023

>  <inspiration_score>  (2524) 
None

$$$$
P75025
     RDKit          3D

 27 29  0  0  0  0  0  0  0  0999 V2000
   -5.7409   10.0084  -14.6521 C   0  0  0  0  0  0  0  0  0  0  0  0
   -5.6596    8.5864  -14.5467 O   0  0  0  0  0  0  0  0  0  0  0  0
   -6.0863    8.0904  -13.3428 C   0  0  0  0  0  0  0  0  0  0  0  0
   -6.5464    8.7891  -12.4475 O   0  0  0  0  0  0  0  0  0  0  0  0
   -5.9056    6.5537  -13.2643 C   0  0  1  0  0  0  0  0  0  0  0  0
   -4.9237    6.2535  -12.1230 C   0  0  0  0  0  0  0  0  0  0  0  0
   -7.3077    5.8826  -13.1413 C   0  0  0  0  0  0  0  0  0  0  0  0
   -7.7320    5.4520  -11.7663 C   0  0  0  0  0  0  0  0  0  0  0  0
   -7.8482    4.0899  -11.4594 C   0  0  0  0  0  0  0  0  0  0  0  0
   -8.1319    3.7256  -10.1544 C   0  0  0  0  0  0  0  0  0  0  0  0
   -8.2900    4.6182   -9.1520 N   0  0  0  0  0  0  0  0  0  0  0  0
   -8.2149    5.9230   -9.4834 C   0  0  0  0  0  0  0  0  0  0  0  0
   -7.9664    6.3862  -10.7613 C   0  0  0  0  0  0  0  0  0  0  0  0
   -5.2973    6.0752  -14.5068 N   0  0  0  0  0  0  0  0  0  0  0  0
   -4.8307    4.6566  -14.9166 C   0  0  0  0  0  0  0  0  0  0  0  0
   -4.7883    3.6674  -14.2998 O   0  0  0  0  0  0  0  0  0  0  0  0
   -4.4036    4.7286  -16.3731 C   0  0  0  0  0  0  0  0  0  0  0  0
   -5.4685    5.2672  -17.2697 C   0  0  0  0  0  0  0  0  0  0  0  0
   -5.3995    6.3153  -18.1673 C   0  0  0  0  0  0  0  0  0  0  0  0
   -4.2551    7.1954  -18.4926 C   0  0  0  0  0  0  0  0  0  0  0  0
   -6.6017    6.5001  -18.7911 N   0  0  0  0  0  0  0  0  0  0  0  0
   -7.3751    5.5203  -18.3844 C   0  0  0  0  0  0  0  0  0  0  0  0
   -6.7723    4.8339  -17.3662 N   0  0  0  0  0  0  0  0  0  0  0  0
   -7.5832    4.1329  -16.3949 C   0  0  0  0  0  0  0  0  0  0  0  0
   -8.9354    3.6536  -16.9160 C   0  0  0  0  0  0  0  0  0  0  0  0
   -9.6451    4.7263  -17.7055 C   0  0  0  0  0  0  0  0  0  0  0  0
   -8.7488    5.1637  -18.8413 C   0  0  0  0  0  0  0  0  0  0  0  0
  1  2  1  0
  2  3  1  0
  3  4  2  0
  3  5  1  0
  5  6  1  1
  5  7  1  0
  7  8  1  0
  8  9  2  0
  9 10  1  0
 10 11  2  0
 11 12  1  0
 12 13  2  0
  5 14  1  0
 14 15  1  0
 15 16  2  0
 15 17  1  0
 17 18  1  0
 18 19  2  0
 19 20  1  0
 19 21  1  0
 21 22  2  0
 22 23  1  0
 23 24  1  0
 24 25  1  0
 25 26  1  0
 26 27  1  0
 13  8  1  0
 23 18  1  0
 27 22  1  0
M  END
>  <energy_score>  (2525) 
-16.858425

>  <alias>  (2525) 
None

>  <HIPPO Pose ID>  (2525) 
75025

>  <smiles>  (2525) 
COC(=O)[C@@](C)(Cc1ccncc1)NC(=O)Cc1c(C)nc2n1CCCC2

>  <inchikey>  (2525) 
MZPCCBWFMHYIQN-HXUWFJFHSA-N

>  <distance_score>  (2525) 
1.577462

>  <ref_mols>  (2525) 
Z1495a,Z0800a

>  <ref_pdb>  (2525) 
Z0800a

>  <HIPPO Compound ID>  (2525) 
149172

>  <name>  (2525) 
P75025

>  <inspiration_score>  (2525) 
None

$$$$
P75026
     RDKit          3D

 27 30  0  0  0  0  0  0  0  0999 V2000
   -8.6211    2.5062   -8.0515 C   0  0  0  0  0  0  0  0  0  0  0  0
   -8.5344    2.6317   -9.4592 O   0  0  0  0  0  0  0  0  0  0  0  0
   -8.1543    3.8920   -9.8589 C   0  0  0  0  0  0  0  0  0  0  0  0
   -7.6977    3.9818  -11.1562 C   0  0  0  0  0  0  0  0  0  0  0  0
   -7.3773    5.2304  -11.7122 C   0  0  0  0  0  0  0  0  0  0  0  0
   -6.9566    5.3819  -13.2619 C   0  0  0  0  0  0  0  0  0  0  0  0
   -5.4877    5.8222  -13.3373 C   0  0  0  0  0  0  0  0  0  0  0  0
   -5.0549    5.8349  -14.7109 N   0  0  0  0  0  0  0  0  0  0  0  0
   -4.2935    4.7623  -15.5388 C   0  0  0  0  0  0  0  0  0  0  0  0
   -3.8340    3.7381  -15.2113 O   0  0  0  0  0  0  0  0  0  0  0  0
   -4.1673    5.2547  -16.9852 C   0  0  0  0  0  0  0  0  0  0  0  0
   -5.4053    5.8765  -17.5373 C   0  0  0  0  0  0  0  0  0  0  0  0
   -5.6744    7.1868  -17.8866 C   0  0  0  0  0  0  0  0  0  0  0  0
   -4.7993    8.3771  -17.7910 C   0  0  0  0  0  0  0  0  0  0  0  0
   -6.9430    7.3031  -18.4020 N   0  0  0  0  0  0  0  0  0  0  0  0
   -7.4326    6.0856  -18.4251 C   0  0  0  0  0  0  0  0  0  0  0  0
   -6.5677    5.2288  -17.8376 N   0  0  0  0  0  0  0  0  0  0  0  0
   -6.9686    3.8607  -17.7075 C   0  0  0  0  0  0  0  0  0  0  0  0
   -8.4839    3.6034  -17.4578 C   0  0  0  0  0  0  0  0  0  0  0  0
   -9.3921    4.7682  -17.7676 C   0  0  0  0  0  0  0  0  0  0  0  0
   -8.7340    5.5150  -18.8865 C   0  0  0  0  0  0  0  0  0  0  0  0
   -8.0369    6.1743  -14.1139 C   0  0  0  0  0  0  0  0  0  0  0  0
   -8.7597    4.8218  -14.2244 C   0  0  0  0  0  0  0  0  0  0  0  0
   -7.3718    4.1676  -14.1732 C   0  0  0  0  0  0  0  0  0  0  0  0
   -7.5325    6.3372  -10.8669 C   0  0  0  0  0  0  0  0  0  0  0  0
   -7.9740    6.1505   -9.5661 C   0  0  0  0  0  0  0  0  0  0  0  0
   -8.2923    4.9526   -9.0402 N   0  0  0  0  0  0  0  0  0  0  0  0
  1  2  1  0
  2  3  1  0
  3  4  2  0
  4  5  1  0
  5  6  1  0
  6  7  1  0
  7  8  1  0
  8  9  1  0
  9 10  2  0
  9 11  1  0
 11 12  1  0
 12 13  2  0
 13 14  1  0
 13 15  1  0
 15 16  2  0
 16 17  1  0
 17 18  1  0
 18 19  1  0
 19 20  1  0
 20 21  1  0
  6 22  1  0
 22 23  1  0
 23 24  1  0
  5 25  2  0
 25 26  1  0
 26 27  2  0
 27  3  1  0
 24  6  1  0
 17 12  1  0
 21 16  1  0
M  END
>  <energy_score>  (2526) 
-22.729088

>  <alias>  (2526) 
None

>  <HIPPO Pose ID>  (2526) 
75026

>  <smiles>  (2526) 
COc1cc(C2(CNC(=O)Cc3c(C)nc4n3CCCC4)CCC2)ccn1

>  <inchikey>  (2526) 
JHBPLTPPEDUYLZ-UHFFFAOYSA-N

>  <distance_score>  (2526) 
1.377893

>  <ref_mols>  (2526) 
Z1495a,Z0800a

>  <ref_pdb>  (2526) 
Z0800a

>  <HIPPO Compound ID>  (2526) 
149174

>  <name>  (2526) 
P75026

>  <inspiration_score>  (2526) 
None

$$$$
P75028
     RDKit          3D

 28 30  0  0  0  0  0  0  0  0999 V2000
   -6.2712   10.4063  -11.8007 C   0  0  0  0  0  0  0  0  0  0  0  0
   -5.0421    9.6825  -12.3167 C   0  0  0  0  0  0  0  0  0  0  0  0
   -5.3116    8.2797  -12.4613 O   0  0  0  0  0  0  0  0  0  0  0  0
   -5.8451    7.8949  -13.6545 C   0  0  0  0  0  0  0  0  0  0  0  0
   -6.1566    8.6580  -14.5626 O   0  0  0  0  0  0  0  0  0  0  0  0
   -5.9841    6.3750  -13.7281 C   0  0  1  0  0  0  0  0  0  0  0  0
   -7.4552    5.9332  -13.6346 C   0  0  0  0  0  0  0  0  0  0  0  0
   -7.8384    5.6632  -12.2023 C   0  0  0  0  0  0  0  0  0  0  0  0
   -7.8821    6.7034  -11.2726 C   0  0  0  0  0  0  0  0  0  0  0  0
   -8.1028    6.4055   -9.9424 C   0  0  0  0  0  0  0  0  0  0  0  0
   -8.3402    5.1654   -9.4888 N   0  0  0  0  0  0  0  0  0  0  0  0
   -8.3919    4.1547  -10.4091 C   0  0  0  0  0  0  0  0  0  0  0  0
   -8.8609    2.8069  -10.0266 N   0  0  0  0  0  0  0  0  0  0  0  0
   -8.7624    2.4929   -8.8315 O   0  0  0  0  0  0  0  0  0  0  0  0
   -9.3804    2.1219  -10.9208 O   0  0  0  0  0  0  0  0  0  0  0  0
   -8.1126    4.3634  -11.7643 C   0  0  0  0  0  0  0  0  0  0  0  0
   -5.4239    5.9756  -14.9954 N   0  0  0  0  0  0  0  0  0  0  0  0
   -4.8875    4.6040  -15.4691 C   0  0  0  0  0  0  0  0  0  0  0  0
   -4.7447    3.6051  -14.8835 O   0  0  0  0  0  0  0  0  0  0  0  0
   -4.4524    4.7295  -16.9317 C   0  0  0  0  0  0  0  0  0  0  0  0
   -5.3263    5.5971  -17.7515 C   0  0  0  0  0  0  0  0  0  0  0  0
   -5.0086    6.8242  -18.2964 C   0  0  0  0  0  0  0  0  0  0  0  0
   -6.1115    7.4353  -18.7995 N   0  0  0  0  0  0  0  0  0  0  0  0
   -7.0612    6.5347  -18.7004 C   0  0  0  0  0  0  0  0  0  0  0  0
   -6.6520    5.4142  -18.0613 N   0  0  0  0  0  0  0  0  0  0  0  0
   -7.5633    4.3217  -17.6649 C   0  0  0  0  0  0  0  0  0  0  0  0
   -8.9172    4.5524  -17.0318 C   0  0  0  0  0  0  0  0  0  0  0  0
   -8.8397    3.9821  -18.4112 C   0  0  0  0  0  0  0  0  0  0  0  0
  1  2  1  0
  2  3  1  0
  3  4  1  0
  4  5  2  0
  4  6  1  0
  6  7  1  6
  7  8  1  0
  8  9  2  0
  9 10  1  0
 10 11  2  0
 11 12  1  0
 12 13  1  0
 13 14  2  0
 13 15  1  0
 12 16  2  0
  6 17  1  0
 17 18  1  0
 18 19  2  0
 18 20  1  0
 20 21  1  0
 21 22  2  0
 22 23  1  0
 23 24  2  0
 24 25  1  0
 25 26  1  0
 26 27  1  0
 27 28  1  0
 16  8  1  0
 25 21  1  0
 28 26  1  0
M  CHG  2  13   1  15  -1
M  END
>  <energy_score>  (2527) 
-28.185995

>  <alias>  (2527) 
None

>  <HIPPO Pose ID>  (2527) 
75028

>  <smiles>  (2527) 
CCOC(=O)[C@@H](Cc1ccnc([N+](=O)[O-])c1)NC(=O)Cc1cncn1C1CC1

>  <inchikey>  (2527) 
BDPRMEPYTKNOBG-OAHLLOKOSA-N

>  <distance_score>  (2527) 
1.517516

>  <ref_mols>  (2527) 
Z1495a,Z0800a

>  <ref_pdb>  (2527) 
Z0800a

>  <HIPPO Compound ID>  (2527) 
149184

>  <name>  (2527) 
P75028

>  <inspiration_score>  (2527) 
None

$$$$
P75029
     RDKit          3D

 28 31  0  0  0  0  0  0  0  0999 V2000
   -4.0970    3.4526  -15.2805 O   0  0  0  0  0  0  0  0  0  0  0  0
   -4.5553    4.4170  -15.7543 C   0  0  0  0  0  0  0  0  0  0  0  0
   -4.3025    4.7349  -17.2374 C   0  0  0  0  0  0  0  0  0  0  0  0
   -5.2291    5.7060  -17.8569 C   0  0  0  0  0  0  0  0  0  0  0  0
   -4.9779    7.0288  -18.1583 C   0  0  0  0  0  0  0  0  0  0  0  0
   -6.1064    7.6569  -18.5813 N   0  0  0  0  0  0  0  0  0  0  0  0
   -6.9975    6.6984  -18.6758 C   0  0  0  0  0  0  0  0  0  0  0  0
   -6.5434    5.5165  -18.2039 N   0  0  0  0  0  0  0  0  0  0  0  0
   -7.4071    4.3457  -17.9776 C   0  0  0  0  0  0  0  0  0  0  0  0
   -8.6573    4.4131  -17.1257 C   0  0  0  0  0  0  0  0  0  0  0  0
   -8.7780    4.1415  -18.5906 C   0  0  0  0  0  0  0  0  0  0  0  0
   -5.3660    5.5657  -15.1054 N   0  0  0  0  0  0  0  0  0  0  0  0
   -5.8600    5.7179  -13.7637 C   0  0  2  0  0  0  0  0  0  0  0  0
   -7.3813    5.4282  -13.6997 C   0  0  0  0  0  0  0  0  0  0  0  0
   -7.8139    5.1785  -12.2766 C   0  0  0  0  0  0  0  0  0  0  0  0
   -7.9458    3.8735  -11.7935 C   0  0  0  0  0  0  0  0  0  0  0  0
   -8.1917    3.6890  -10.4416 C   0  0  0  0  0  0  0  0  0  0  0  0
   -8.3030    4.7051   -9.5564 N   0  0  0  0  0  0  0  0  0  0  0  0
   -8.2046    5.9544  -10.0497 C   0  0  0  0  0  0  0  0  0  0  0  0
   -7.9812    6.2405  -11.3847 C   0  0  0  0  0  0  0  0  0  0  0  0
   -5.4652    7.0998  -13.2629 C   0  0  0  0  0  0  0  0  0  0  0  0
   -4.6073    7.2243  -12.1600 C   0  0  0  0  0  0  0  0  0  0  0  0
   -4.2354    8.4846  -11.6850 C   0  0  0  0  0  0  0  0  0  0  0  0
   -4.7110    9.6406  -12.3081 C   0  0  0  0  0  0  0  0  0  0  0  0
   -4.2124   11.1653  -11.6672 Cl  0  0  0  0  0  0  0  0  0  0  0  0
   -5.5623    9.5331  -13.4119 C   0  0  0  0  0  0  0  0  0  0  0  0
   -6.1941   10.9155  -14.2348 Cl  0  0  0  0  0  0  0  0  0  0  0  0
   -5.9350    8.2702  -13.8857 C   0  0  0  0  0  0  0  0  0  0  0  0
  1  2  2  0
  2  3  1  0
  3  4  1  0
  4  5  2  0
  5  6  1  0
  6  7  2  0
  7  8  1  0
  8  9  1  0
  9 10  1  0
 10 11  1  0
  2 12  1  0
 12 13  1  0
 13 14  1  6
 14 15  1  0
 15 16  2  0
 16 17  1  0
 17 18  2  0
 18 19  1  0
 19 20  2  0
 13 21  1  0
 21 22  2  0
 22 23  1  0
 23 24  2  0
 24 25  1  0
 24 26  1  0
 26 27  1  0
 26 28  2  0
  8  4  1  0
 11  9  1  0
 20 15  1  0
 28 21  1  0
M  END
>  <energy_score>  (2528) 
-8.205927

>  <alias>  (2528) 
None

>  <HIPPO Pose ID>  (2528) 
75029

>  <smiles>  (2528) 
O=C(Cc1cncn1C1CC1)N[C@H](Cc1ccncc1)c1ccc(Cl)c(Cl)c1

>  <inchikey>  (2528) 
PTJFTSSGVXUCFO-HXUWFJFHSA-N

>  <distance_score>  (2528) 
1.587268

>  <ref_mols>  (2528) 
Z1495a,Z0800a

>  <ref_pdb>  (2528) 
Z0800a

>  <HIPPO Compound ID>  (2528) 
149185

>  <name>  (2528) 
P75029

>  <inspiration_score>  (2528) 
None

$$$$
P75030
     RDKit          3D

 28 30  0  0  0  0  0  0  0  0999 V2000
   -8.6629    2.3828   -8.3045 C   0  0  0  0  0  0  0  0  0  0  0  0
   -8.8077    2.6047   -9.6982 O   0  0  0  0  0  0  0  0  0  0  0  0
   -8.4279    3.8723  -10.0747 C   0  0  0  0  0  0  0  0  0  0  0  0
   -8.1500    4.0363  -11.4191 C   0  0  0  0  0  0  0  0  0  0  0  0
   -7.7348    5.2883  -11.8897 C   0  0  0  0  0  0  0  0  0  0  0  0
   -7.2162    5.4841  -13.3183 C   0  0  0  0  0  0  0  0  0  0  0  0
   -7.6901    4.3495  -14.2404 C   0  0  0  0  0  0  0  0  0  0  0  0
   -7.7020    6.8301  -13.9022 C   0  0  0  0  0  0  0  0  0  0  0  0
   -5.6576    5.4692  -13.2161 C   0  0  0  0  0  0  0  0  0  0  0  0
   -4.9598    5.7266  -14.4538 N   0  0  0  0  0  0  0  0  0  0  0  0
   -4.0427    4.8072  -15.3033 C   0  0  0  0  0  0  0  0  0  0  0  0
   -3.7732    3.6776  -15.1728 O   0  0  0  0  0  0  0  0  0  0  0  0
   -3.4626    5.6337  -16.4555 C   0  0  0  0  0  0  0  0  0  0  0  0
   -4.4621    6.4551  -17.2044 C   0  0  0  0  0  0  0  0  0  0  0  0
   -4.4735    7.8157  -17.4475 C   0  0  0  0  0  0  0  0  0  0  0  0
   -5.5325    8.1722  -18.2340 N   0  0  0  0  0  0  0  0  0  0  0  0
   -6.1403    7.0397  -18.5131 C   0  0  0  0  0  0  0  0  0  0  0  0
   -5.5792    5.9838  -17.8470 N   0  0  0  0  0  0  0  0  0  0  0  0
   -6.0670    4.6165  -17.8937 C   0  0  0  0  0  0  0  0  0  0  0  0
   -7.5365    4.5629  -18.1405 C   0  0  0  0  0  0  0  0  0  0  0  0
   -8.4427    5.1401  -17.2564 C   0  0  0  0  0  0  0  0  0  0  0  0
   -9.7993    5.1556  -17.5142 C   0  0  0  0  0  0  0  0  0  0  0  0
  -10.2781    4.6531  -18.6937 C   0  0  0  0  0  0  0  0  0  0  0  0
   -9.3711    4.1400  -19.6007 C   0  0  0  0  0  0  0  0  0  0  0  0
   -8.0176    4.0557  -19.3287 C   0  0  0  0  0  0  0  0  0  0  0  0
   -7.6850    6.3316  -10.9552 C   0  0  0  0  0  0  0  0  0  0  0  0
   -8.0060    6.0743   -9.6321 C   0  0  0  0  0  0  0  0  0  0  0  0
   -8.3637    4.8658   -9.1656 N   0  0  0  0  0  0  0  0  0  0  0  0
  1  2  1  0
  2  3  1  0
  3  4  2  0
  4  5  1  0
  5  6  1  0
  6  7  1  0
  6  8  1  0
  6  9  1  0
  9 10  1  0
 10 11  1  0
 11 12  2  0
 11 13  1  0
 13 14  1  0
 14 15  2  0
 15 16  1  0
 16 17  2  0
 17 18  1  0
 18 19  1  0
 19 20  1  0
 20 21  2  0
 21 22  1  0
 22 23  2  0
 23 24  1  0
 24 25  2  0
  5 26  2  0
 26 27  1  0
 27 28  2  0
 28  3  1  0
 18 14  1  0
 25 20  1  0
M  END
>  <energy_score>  (2529) 
-25.790963

>  <alias>  (2529) 
None

>  <HIPPO Pose ID>  (2529) 
75030

>  <smiles>  (2529) 
COc1cc(C(C)(C)CNC(=O)Cc2cncn2Cc2ccccc2)ccn1

>  <inchikey>  (2529) 
XHSGGFGPTACUIK-UHFFFAOYSA-N

>  <distance_score>  (2529) 
1.844027

>  <ref_mols>  (2529) 
Z1495a,Z0800a

>  <ref_pdb>  (2529) 
Z0800a

>  <HIPPO Compound ID>  (2529) 
149186

>  <name>  (2529) 
P75030

>  <inspiration_score>  (2529) 
None

$$$$
P75031
     RDKit          3D

 28 30  0  0  0  0  0  0  0  0999 V2000
   -7.4874   11.5868  -11.9057 C   0  0  0  0  0  0  0  0  0  0  0  0
   -6.9035   10.8781  -13.1121 C   0  0  0  0  0  0  0  0  0  0  0  0
   -6.8816    9.4728  -12.8351 O   0  0  0  0  0  0  0  0  0  0  0  0
   -6.4016    8.7043  -13.8550 C   0  0  0  0  0  0  0  0  0  0  0  0
   -6.0095    9.1379  -14.9326 O   0  0  0  0  0  0  0  0  0  0  0  0
   -6.4053    7.2286  -13.4580 C   0  0  1  0  0  0  0  0  0  0  0  0
   -7.8436    6.7123  -13.2674 C   0  0  0  0  0  0  0  0  0  0  0  0
   -7.9812    5.9108  -11.9996 C   0  0  0  0  0  0  0  0  0  0  0  0
   -7.9395    6.5822  -10.7736 C   0  0  0  0  0  0  0  0  0  0  0  0
   -8.0415    5.8487   -9.6060 C   0  0  0  0  0  0  0  0  0  0  0  0
   -8.2033    4.5165   -9.5730 N   0  0  0  0  0  0  0  0  0  0  0  0
   -8.2472    3.8816  -10.7634 C   0  0  0  0  0  0  0  0  0  0  0  0
   -8.4466    2.5585  -10.7458 F   0  0  0  0  0  0  0  0  0  0  0  0
   -8.1315    4.5220  -11.9900 C   0  0  0  0  0  0  0  0  0  0  0  0
   -5.6979    6.4614  -14.4602 N   0  0  0  0  0  0  0  0  0  0  0  0
   -5.1857    5.0014  -14.4316 C   0  0  0  0  0  0  0  0  0  0  0  0
   -5.1867    4.2173  -13.5686 O   0  0  0  0  0  0  0  0  0  0  0  0
   -4.5856    4.6825  -15.8018 C   0  0  0  0  0  0  0  0  0  0  0  0
   -5.4547    5.1161  -16.9352 C   0  0  0  0  0  0  0  0  0  0  0  0
   -5.1923    6.0007  -17.9618 C   0  0  0  0  0  0  0  0  0  0  0  0
   -3.9489    6.7436  -18.2635 C   0  0  0  0  0  0  0  0  0  0  0  0
   -6.3063    6.1858  -18.7330 N   0  0  0  0  0  0  0  0  0  0  0  0
   -7.2200    5.3702  -18.2610 C   0  0  0  0  0  0  0  0  0  0  0  0
   -6.7600    4.7357  -17.1416 N   0  0  0  0  0  0  0  0  0  0  0  0
   -7.6490    4.0414  -16.2393 C   0  0  0  0  0  0  0  0  0  0  0  0
   -8.9899    3.6508  -16.8529 C   0  0  0  0  0  0  0  0  0  0  0  0
   -9.5790    4.7552  -17.6955 C   0  0  0  0  0  0  0  0  0  0  0  0
   -8.5954    5.1380  -18.7803 C   0  0  0  0  0  0  0  0  0  0  0  0
  1  2  1  0
  2  3  1  0
  3  4  1  0
  4  5  2  0
  4  6  1  0
  6  7  1  6
  7  8  1  0
  8  9  2  0
  9 10  1  0
 10 11  2  0
 11 12  1  0
 12 13  1  0
 12 14  2  0
  6 15  1  0
 15 16  1  0
 16 17  2  0
 16 18  1  0
 18 19  1  0
 19 20  2  0
 20 21  1  0
 20 22  1  0
 22 23  2  0
 23 24  1  0
 24 25  1  0
 25 26  1  0
 26 27  1  0
 27 28  1  0
 14  8  1  0
 24 19  1  0
 28 23  1  0
M  END
>  <energy_score>  (2530) 
-27.110399

>  <alias>  (2530) 
None

>  <HIPPO Pose ID>  (2530) 
75031

>  <smiles>  (2530) 
CCOC(=O)[C@@H](Cc1ccnc(F)c1)NC(=O)Cc1c(C)nc2n1CCCC2

>  <inchikey>  (2530) 
GPSQAMHDYGRMHD-OAHLLOKOSA-N

>  <distance_score>  (2530) 
1.64586

>  <ref_mols>  (2530) 
Z0800a,Z1495a

>  <ref_pdb>  (2530) 
Z0800a

>  <HIPPO Compound ID>  (2530) 
149187

>  <name>  (2530) 
P75031

>  <inspiration_score>  (2530) 
None

$$$$
P75032
     RDKit          3D

 28 30  0  0  0  0  0  0  0  0999 V2000
   -6.3089   10.5891  -13.8045 C   0  0  0  0  0  0  0  0  0  0  0  0
   -5.0380    9.7623  -13.8480 C   0  0  0  0  0  0  0  0  0  0  0  0
   -5.3433    8.3748  -14.0564 O   0  0  0  0  0  0  0  0  0  0  0  0
   -5.6487    7.6623  -12.9239 C   0  0  0  0  0  0  0  0  0  0  0  0
   -5.7134    8.1557  -11.8052 O   0  0  0  0  0  0  0  0  0  0  0  0
   -5.9033    6.1858  -13.2518 C   0  0  2  0  0  0  0  0  0  0  0  0
   -5.4044    5.8574  -14.5779 N   0  0  0  0  0  0  0  0  0  0  0  0
   -4.7382    4.5683  -15.1083 C   0  0  0  0  0  0  0  0  0  0  0  0
   -4.5555    3.5428  -14.5857 O   0  0  0  0  0  0  0  0  0  0  0  0
   -4.3663    4.8152  -16.5632 C   0  0  0  0  0  0  0  0  0  0  0  0
   -5.4884    5.3678  -17.3783 C   0  0  0  0  0  0  0  0  0  0  0  0
   -5.5088    6.4940  -18.1786 C   0  0  0  0  0  0  0  0  0  0  0  0
   -4.4291    7.4686  -18.4524 C   0  0  0  0  0  0  0  0  0  0  0  0
   -6.7389    6.6589  -18.7523 N   0  0  0  0  0  0  0  0  0  0  0  0
   -7.4359    5.5951  -18.4257 C   0  0  0  0  0  0  0  0  0  0  0  0
   -6.7679    4.8666  -17.4812 N   0  0  0  0  0  0  0  0  0  0  0  0
   -7.5261    4.0954  -16.5236 C   0  0  0  0  0  0  0  0  0  0  0  0
   -8.8984    3.6211  -16.9941 C   0  0  0  0  0  0  0  0  0  0  0  0
   -9.6532    4.7151  -17.7090 C   0  0  0  0  0  0  0  0  0  0  0  0
   -8.8029    5.1900  -18.8644 C   0  0  0  0  0  0  0  0  0  0  0  0
   -7.3942    5.7767  -13.1678 C   0  0  2  0  0  0  0  0  0  0  0  0
   -8.2706    6.7625  -13.7169 O   0  0  0  0  0  0  0  0  0  0  0  0
   -7.8076    5.4069  -11.7719 C   0  0  0  0  0  0  0  0  0  0  0  0
   -7.9921    6.3762  -10.7898 C   0  0  0  0  0  0  0  0  0  0  0  0
   -8.2026    5.9604   -9.4898 C   0  0  0  0  0  0  0  0  0  0  0  0
   -8.2817    4.6676   -9.1119 N   0  0  0  0  0  0  0  0  0  0  0  0
   -8.1721    3.7403  -10.0883 C   0  0  0  0  0  0  0  0  0  0  0  0
   -7.9278    4.0564  -11.4134 C   0  0  0  0  0  0  0  0  0  0  0  0
  1  2  1  0
  2  3  1  0
  3  4  1  0
  4  5  2  0
  4  6  1  0
  6  7  1  6
  7  8  1  0
  8  9  2  0
  8 10  1  0
 10 11  1  0
 11 12  2  0
 12 13  1  0
 12 14  1  0
 14 15  2  0
 15 16  1  0
 16 17  1  0
 17 18  1  0
 18 19  1  0
 19 20  1  0
  6 21  1  0
 21 22  1  1
 21 23  1  0
 23 24  2  0
 24 25  1  0
 25 26  2  0
 26 27  1  0
 27 28  2  0
 16 11  1  0
 28 23  1  0
 20 15  1  0
M  END
>  <energy_score>  (2531) 
-25.188934

>  <alias>  (2531) 
None

>  <HIPPO Pose ID>  (2531) 
75032

>  <smiles>  (2531) 
CCOC(=O)[C@H](NC(=O)Cc1c(C)nc2n1CCCC2)[C@H](O)c1ccncc1

>  <inchikey>  (2531) 
JUBWGCRCDXRYLY-RTBURBONSA-N

>  <distance_score>  (2531) 
1.525958

>  <ref_mols>  (2531) 
Z1495a,Z0800a

>  <ref_pdb>  (2531) 
Z0800a

>  <HIPPO Compound ID>  (2531) 
149188

>  <name>  (2531) 
P75032

>  <inspiration_score>  (2531) 
None

$$$$
P75037
     RDKit          3D

 28 29  0  0  0  0  0  0  0  0999 V2000
   -2.8684    8.7080  -16.5294 C   0  0  0  0  0  0  0  0  0  0  0  0
   -3.1184    7.3974  -17.1353 N   0  0  0  0  0  0  0  0  0  0  0  0
   -2.5630    6.3458  -16.2827 C   0  0  0  0  0  0  0  0  0  0  0  0
   -4.5466    7.1519  -17.4563 C   0  0  1  0  0  0  0  0  0  0  0  0
   -5.5022    7.2286  -16.1969 C   0  0  0  0  0  0  0  0  0  0  0  0
   -5.9066    8.2283  -15.7440 O   0  0  0  0  0  0  0  0  0  0  0  0
   -5.8091    5.7510  -15.8135 N   0  0  0  0  0  0  0  0  0  0  0  0
   -6.7551    5.2001  -14.8518 C   0  0  1  0  0  0  0  0  0  0  0  0
   -7.4451    6.1717  -13.8946 C   0  0  0  0  0  0  0  0  0  0  0  0
   -7.7124    5.6441  -12.4955 C   0  0  0  0  0  0  0  0  0  0  0  0
   -8.0108    4.3108  -12.1933 C   0  0  0  0  0  0  0  0  0  0  0  0
   -8.1983    3.9465  -10.8637 C   0  0  0  0  0  0  0  0  0  0  0  0
   -8.1213    4.8121   -9.8283 N   0  0  0  0  0  0  0  0  0  0  0  0
   -7.8854    6.0995  -10.1407 C   0  0  0  0  0  0  0  0  0  0  0  0
   -7.6830    6.5562  -11.4333 C   0  0  0  0  0  0  0  0  0  0  0  0
   -7.8114    4.5005  -15.6891 C   0  0  0  0  0  0  0  0  0  0  0  0
   -8.2434    3.4066  -15.3756 O   0  0  0  0  0  0  0  0  0  0  0  0
   -8.1946    5.2240  -16.7740 O   0  0  0  0  0  0  0  0  0  0  0  0
   -8.6040    4.5444  -17.9848 C   0  0  0  0  0  0  0  0  0  0  0  0
   -9.5158    3.3568  -17.8175 C   0  0  0  0  0  0  0  0  0  0  0  0
   -9.4555    5.4967  -18.7847 C   0  0  0  0  0  0  0  0  0  0  0  0
   -7.3284    4.2605  -18.7673 C   0  0  0  0  0  0  0  0  0  0  0  0
   -5.0524    8.0347  -18.5626 C   0  0  0  0  0  0  0  0  0  0  0  0
   -5.6402    9.2877  -18.5463 C   0  0  0  0  0  0  0  0  0  0  0  0
   -6.0024    9.7000  -19.8017 N   0  0  0  0  0  0  0  0  0  0  0  0
   -5.5551    8.7567  -20.5989 C   0  0  0  0  0  0  0  0  0  0  0  0
   -4.9682    7.7401  -19.9019 N   0  0  0  0  0  0  0  0  0  0  0  0
   -4.3313    6.5961  -20.4977 C   0  0  0  0  0  0  0  0  0  0  0  0
  1  2  1  0
  2  3  1  0
  4  2  1  1
  4  5  1  0
  5  6  2  0
  5  7  1  0
  7  8  1  0
  8  9  1  6
  9 10  1  0
 10 11  2  0
 11 12  1  0
 12 13  2  0
 13 14  1  0
 14 15  2  0
  8 16  1  0
 16 17  2  0
 16 18  1  0
 18 19  1  0
 19 20  1  0
 19 21  1  0
 19 22  1  0
  4 23  1  0
 23 24  2  0
 24 25  1  0
 25 26  2  0
 26 27  1  0
 27 28  1  0
 15 10  1  0
 27 23  1  0
M  END
>  <energy_score>  (2532) 
-19.656747

>  <alias>  (2532) 
None

>  <HIPPO Pose ID>  (2532) 
75037

>  <smiles>  (2532) 
CN(C)[C@@H](C(=O)N[C@@H](Cc1ccncc1)C(=O)OC(C)(C)C)c1cncn1C

>  <inchikey>  (2532) 
CBLLTFBNJZKNKX-DOTOQJQBSA-N

>  <distance_score>  (2532) 
1.59349

>  <ref_mols>  (2532) 
Z1495a,Z0800a

>  <ref_pdb>  (2532) 
Z0800a

>  <HIPPO Compound ID>  (2532) 
149190

>  <name>  (2532) 
P75037

>  <inspiration_score>  (2532) 
None

$$$$
P75039
     RDKit          3D

 28 31  0  0  0  0  0  0  0  0999 V2000
   -9.8739    5.0129  -17.5877 C   0  0  0  0  0  0  0  0  0  0  0  0
   -8.4509    4.5455  -17.8180 C   0  0  1  0  0  0  0  0  0  0  0  0
   -8.3535    3.9990  -19.2326 C   0  0  0  0  0  0  0  0  0  0  0  0
   -6.9734    4.1080  -19.8715 C   0  0  0  0  0  0  0  0  0  0  0  0
   -5.8194    4.4750  -18.9670 C   0  0  0  0  0  0  0  0  0  0  0  0
   -6.1949    5.5773  -18.1237 N   0  0  0  0  0  0  0  0  0  0  0  0
   -5.4396    6.6103  -17.6459 C   0  0  0  0  0  0  0  0  0  0  0  0
   -4.0349    6.9344  -18.0394 C   0  0  0  0  0  0  0  0  0  0  0  0
   -3.0372    6.0439  -17.2867 C   0  0  0  0  0  0  0  0  0  0  0  0
   -2.3065    5.3084  -17.8282 O   0  0  0  0  0  0  0  0  0  0  0  0
   -3.3011    6.2676  -15.7706 N   0  0  0  0  0  0  0  0  0  0  0  0
   -2.7886    5.5642  -14.6133 C   0  0  0  0  0  0  0  0  0  0  0  0
   -3.4899    6.0428  -13.3283 C   0  0  0  0  0  0  0  0  0  0  0  0
   -4.8172    5.2997  -13.0339 C   0  0  0  0  0  0  0  0  0  0  0  0
   -5.4150    4.8118  -14.2677 N   0  0  0  0  0  0  0  0  0  0  0  0
   -6.7856    4.2710  -14.1945 C   0  0  0  0  0  0  0  0  0  0  0  0
   -7.8801    5.2087  -13.6620 C   0  0  0  0  0  0  0  0  0  0  0  0
   -8.0220    5.1446  -12.1620 C   0  0  0  0  0  0  0  0  0  0  0  0
   -7.9188    6.3013  -11.3886 C   0  0  0  0  0  0  0  0  0  0  0  0
   -7.9849    6.1826  -10.0103 C   0  0  0  0  0  0  0  0  0  0  0  0
   -8.1547    5.0134   -9.3577 N   0  0  0  0  0  0  0  0  0  0  0  0
   -8.3010    3.9106  -10.1270 C   0  0  0  0  0  0  0  0  0  0  0  0
   -8.2490    3.9275  -11.5106 C   0  0  0  0  0  0  0  0  0  0  0  0
   -4.5578    3.8016  -14.9001 C   0  0  0  0  0  0  0  0  0  0  0  0
   -3.0556    4.0764  -14.7731 C   0  0  0  0  0  0  0  0  0  0  0  0
   -6.2608    7.1864  -16.7003 C   0  0  0  0  0  0  0  0  0  0  0  0
   -7.4698    6.5569  -16.6232 N   0  0  0  0  0  0  0  0  0  0  0  0
   -7.4288    5.6026  -17.5263 C   0  0  0  0  0  0  0  0  0  0  0  0
  2  1  1  6
  2  3  1  0
  3  4  1  0
  4  5  1  0
  5  6  1  0
  6  7  1  0
  7  8  1  0
  8  9  1  0
  9 10  2  0
  9 11  1  0
 11 12  1  0
 12 13  1  0
 13 14  1  0
 14 15  1  0
 15 16  1  0
 16 17  1  0
 17 18  1  0
 18 19  2  0
 19 20  1  0
 20 21  2  0
 21 22  1  0
 22 23  2  0
 15 24  1  0
 24 25  1  0
  7 26  2  0
 26 27  1  0
 27 28  2  0
 28  2  1  0
 28  6  1  0
 25 12  1  0
 23 18  1  0
M  END
>  <energy_score>  (2533) 
-28.225755

>  <alias>  (2533) 
None

>  <HIPPO Pose ID>  (2533) 
75039

>  <smiles>  (2533) 
C[C@H]1CCCn2c(CC(=O)NC3CCN(CCc4ccncc4)CC3)cnc21

>  <inchikey>  (2533) 
IMHYJBILZXXQPY-KRWDZBQOSA-N

>  <distance_score>  (2533) 
1.565506

>  <ref_mols>  (2533) 
Z1495a,Z0800a

>  <ref_pdb>  (2533) 
Z0800a

>  <HIPPO Compound ID>  (2533) 
149191

>  <name>  (2533) 
P75039

>  <inspiration_score>  (2533) 
None

$$$$
P75040
     RDKit          3D

 28 30  0  0  0  0  0  0  0  0999 V2000
   -3.5378    3.2197  -15.5190 O   0  0  0  0  0  0  0  0  0  0  0  0
   -3.8887    4.3199  -15.7010 C   0  0  0  0  0  0  0  0  0  0  0  0
   -3.4693    5.0623  -16.9831 C   0  0  0  0  0  0  0  0  0  0  0  0
   -4.4840    6.0257  -17.4925 C   0  0  0  0  0  0  0  0  0  0  0  0
   -4.4850    7.4017  -17.4315 C   0  0  0  0  0  0  0  0  0  0  0  0
   -5.6376    7.9184  -17.9362 N   0  0  0  0  0  0  0  0  0  0  0  0
   -6.3059    6.8832  -18.3856 C   0  0  0  0  0  0  0  0  0  0  0  0
   -5.6590    5.7117  -18.1280 N   0  0  0  0  0  0  0  0  0  0  0  0
   -6.1140    4.3959  -18.5351 C   0  0  0  0  0  0  0  0  0  0  0  0
   -7.5744    4.2237  -18.3033 C   0  0  0  0  0  0  0  0  0  0  0  0
   -8.0705    4.1045  -17.0159 C   0  0  0  0  0  0  0  0  0  0  0  0
   -9.4285    4.1490  -16.7995 C   0  0  0  0  0  0  0  0  0  0  0  0
  -10.2974    4.3700  -17.8631 C   0  0  0  0  0  0  0  0  0  0  0  0
   -9.8039    4.4664  -19.1469 C   0  0  0  0  0  0  0  0  0  0  0  0
   -8.4550    4.2904  -19.3689 C   0  0  0  0  0  0  0  0  0  0  0  0
   -4.6826    5.2878  -14.7817 N   0  0  0  0  0  0  0  0  0  0  0  0
   -5.2928    5.0664  -13.4806 C   0  0  2  0  0  0  0  0  0  0  0  0
   -4.6524    3.8666  -12.7456 C   0  0  0  0  0  0  0  0  0  0  0  0
   -4.8274    3.9737  -11.3364 O   0  0  0  0  0  0  0  0  0  0  0  0
   -6.8374    4.9456  -13.6161 C   0  0  0  0  0  0  0  0  0  0  0  0
   -7.5291    5.0848  -12.2868 C   0  0  0  0  0  0  0  0  0  0  0  0
   -7.9308    3.9511  -11.5781 C   0  0  0  0  0  0  0  0  0  0  0  0
   -8.3206    4.1086  -10.2579 C   0  0  0  0  0  0  0  0  0  0  0  0
   -8.7236    2.5738   -9.2362 Br  0  0  0  0  0  0  0  0  0  0  0  0
   -8.3780    5.2999   -9.6247 N   0  0  0  0  0  0  0  0  0  0  0  0
   -8.0494    6.3846  -10.3488 C   0  0  0  0  0  0  0  0  0  0  0  0
   -8.1258    8.0721   -9.4880 Br  0  0  0  0  0  0  0  0  0  0  0  0
   -7.6287    6.3328  -11.6682 C   0  0  0  0  0  0  0  0  0  0  0  0
  1  2  2  0
  2  3  1  0
  3  4  1  0
  4  5  2  0
  5  6  1  0
  6  7  2  0
  7  8  1  0
  8  9  1  0
  9 10  1  0
 10 11  2  0
 11 12  1  0
 12 13  2  0
 13 14  1  0
 14 15  2  0
  2 16  1  0
 16 17  1  0
 17 18  1  6
 18 19  1  0
 17 20  1  0
 20 21  1  0
 21 22  2  0
 22 23  1  0
 23 24  1  0
 23 25  2  0
 25 26  1  0
 26 27  1  0
 26 28  2  0
  8  4  1  0
 15 10  1  0
 28 21  1  0
M  END
>  <energy_score>  (2534) 
-11.251908

>  <alias>  (2534) 
None

>  <HIPPO Pose ID>  (2534) 
75040

>  <smiles>  (2534) 
O=C(Cc1cncn1Cc1ccccc1)N[C@H](CO)Cc1cc(Br)nc(Br)c1

>  <inchikey>  (2534) 
CFMARCLMJPZFID-INIZCTEOSA-N

>  <distance_score>  (2534) 
1.922379

>  <ref_mols>  (2534) 
Z1495a,Z0800a

>  <ref_pdb>  (2534) 
Z0800a

>  <HIPPO Compound ID>  (2534) 
149194

>  <name>  (2534) 
P75040

>  <inspiration_score>  (2534) 
None

$$$$
P75041
     RDKit          3D

 28 30  0  0  0  0  0  0  0  0999 V2000
   -4.8303    2.8182  -13.8849 C   0  0  0  0  0  0  0  0  0  0  0  0
   -6.3073    3.0364  -13.5960 C   0  0  0  0  0  0  0  0  0  0  0  0
   -6.8797    4.2738  -14.0485 O   0  0  0  0  0  0  0  0  0  0  0  0
   -6.7087    5.4522  -13.2223 C   0  0  0  0  0  0  0  0  0  0  0  0
   -5.1824    5.8724  -13.2722 C   0  0  0  0  0  0  0  0  0  0  0  0
   -4.7509    5.8039  -14.6562 N   0  0  0  0  0  0  0  0  0  0  0  0
   -3.5489    6.4764  -15.3720 C   0  0  0  0  0  0  0  0  0  0  0  0
   -2.6783    7.1259  -14.9414 O   0  0  0  0  0  0  0  0  0  0  0  0
   -3.7435    6.2244  -16.9031 C   0  0  0  0  0  0  0  0  0  0  0  0
   -5.1871    6.3996  -17.2645 C   0  0  0  0  0  0  0  0  0  0  0  0
   -6.1015    7.3112  -16.7804 C   0  0  0  0  0  0  0  0  0  0  0  0
   -7.3757    6.8352  -16.9140 N   0  0  0  0  0  0  0  0  0  0  0  0
   -7.2722    5.6904  -17.5384 C   0  0  0  0  0  0  0  0  0  0  0  0
   -5.9749    5.5266  -17.9516 N   0  0  0  0  0  0  0  0  0  0  0  0
   -5.6360    4.4300  -18.8128 C   0  0  0  0  0  0  0  0  0  0  0  0
   -6.7817    4.1986  -19.7879 C   0  0  0  0  0  0  0  0  0  0  0  0
   -8.1818    4.0804  -19.1874 C   0  0  0  0  0  0  0  0  0  0  0  0
   -8.2588    4.5842  -17.7619 C   0  0  2  0  0  0  0  0  0  0  0  0
   -9.6994    4.8921  -17.4415 C   0  0  0  0  0  0  0  0  0  0  0  0
   -7.3438    6.6041  -13.8234 O   0  0  0  0  0  0  0  0  0  0  0  0
   -8.7469    6.5571  -13.9950 C   0  0  0  0  0  0  0  0  0  0  0  0
   -9.3566    7.7112  -13.2214 C   0  0  0  0  0  0  0  0  0  0  0  0
   -7.2544    5.3119  -11.8030 C   0  0  0  0  0  0  0  0  0  0  0  0
   -8.1238    4.2758  -11.4289 C   0  0  0  0  0  0  0  0  0  0  0  0
   -8.5018    4.1521  -10.1035 C   0  0  0  0  0  0  0  0  0  0  0  0
   -8.1592    5.0378   -9.1458 N   0  0  0  0  0  0  0  0  0  0  0  0
   -7.4138    6.0875   -9.5376 C   0  0  0  0  0  0  0  0  0  0  0  0
   -6.9383    6.2616  -10.8259 C   0  0  0  0  0  0  0  0  0  0  0  0
  1  2  1  0
  2  3  1  0
  3  4  1  0
  4  5  1  0
  5  6  1  0
  6  7  1  0
  7  8  2  0
  7  9  1  0
  9 10  1  0
 10 11  2  0
 11 12  1  0
 12 13  2  0
 13 14  1  0
 14 15  1  0
 15 16  1  0
 16 17  1  0
 17 18  1  0
 18 19  1  6
  4 20  1  0
 20 21  1  0
 21 22  1  0
  4 23  1  0
 23 24  2  0
 24 25  1  0
 25 26  2  0
 26 27  1  0
 27 28  2  0
 14 10  1  0
 28 23  1  0
 18 13  1  0
M  END
>  <energy_score>  (2535) 
-22.898702

>  <alias>  (2535) 
None

>  <HIPPO Pose ID>  (2535) 
75041

>  <smiles>  (2535) 
CCOC(CNC(=O)Cc1cnc2n1CCC[C@@H]2C)(OCC)c1ccncc1

>  <inchikey>  (2535) 
VIOHOVDXFCJDNI-INIZCTEOSA-N

>  <distance_score>  (2535) 
1.590041

>  <ref_mols>  (2535) 
Z1495a,Z0800a

>  <ref_pdb>  (2535) 
Z0800a

>  <HIPPO Compound ID>  (2535) 
149201

>  <name>  (2535) 
P75041

>  <inspiration_score>  (2535) 
None

$$$$
P75043
     RDKit          3D

 28 30  0  0  0  0  0  0  0  0999 V2000
   -7.5025   10.8697  -12.7207 C   0  0  0  0  0  0  0  0  0  0  0  0
   -7.1937    9.4792  -12.6123 O   0  0  0  0  0  0  0  0  0  0  0  0
   -6.6319    8.9365  -13.7300 C   0  0  0  0  0  0  0  0  0  0  0  0
   -6.4064    9.5519  -14.7661 O   0  0  0  0  0  0  0  0  0  0  0  0
   -6.3508    7.4492  -13.5097 C   0  0  1  0  0  0  0  0  0  0  0  0
   -7.6665    6.6222  -13.4866 C   0  0  0  0  0  0  0  0  0  0  0  0
   -7.8594    5.8639  -12.1931 C   0  0  0  0  0  0  0  0  0  0  0  0
   -7.8949    6.5506  -10.9766 C   0  0  0  0  0  0  0  0  0  0  0  0
   -8.0451    5.8342   -9.8014 C   0  0  0  0  0  0  0  0  0  0  0  0
   -8.0534    6.5110   -8.6435 F   0  0  0  0  0  0  0  0  0  0  0  0
   -8.1817    4.5036   -9.7383 N   0  0  0  0  0  0  0  0  0  0  0  0
   -8.1972    3.8594  -10.9213 C   0  0  0  0  0  0  0  0  0  0  0  0
   -8.3816    2.5346  -10.8859 F   0  0  0  0  0  0  0  0  0  0  0  0
   -8.0331    4.4771  -12.1580 C   0  0  0  0  0  0  0  0  0  0  0  0
   -5.4842    6.9688  -14.5651 N   0  0  0  0  0  0  0  0  0  0  0  0
   -3.9934    6.5261  -14.5246 C   0  0  0  0  0  0  0  0  0  0  0  0
   -3.2186    6.5555  -13.6503 O   0  0  0  0  0  0  0  0  0  0  0  0
   -3.6722    5.8850  -15.9017 C   0  0  0  0  0  0  0  0  0  0  0  0
   -4.7901    4.9655  -16.2832 C   0  0  0  0  0  0  0  0  0  0  0  0
   -5.5637    4.1654  -15.4616 C   0  0  0  0  0  0  0  0  0  0  0  0
   -6.7673    3.8945  -16.0419 N   0  0  0  0  0  0  0  0  0  0  0  0
   -6.6572    4.3190  -17.2773 C   0  0  0  0  0  0  0  0  0  0  0  0
   -5.4223    4.8980  -17.4907 N   0  0  0  0  0  0  0  0  0  0  0  0
   -5.1355    5.5754  -18.7356 C   0  0  0  0  0  0  0  0  0  0  0  0
   -6.3002    6.4865  -19.1279 C   0  0  0  0  0  0  0  0  0  0  0  0
   -7.6595    6.0132  -18.5591 C   0  0  0  0  0  0  0  0  0  0  0  0
   -7.7209    4.5074  -18.3059 C   0  0  2  0  0  0  0  0  0  0  0  0
   -9.1084    4.0891  -17.8265 C   0  0  0  0  0  0  0  0  0  0  0  0
  1  2  1  0
  2  3  1  0
  3  4  2  0
  3  5  1  0
  5  6  1  6
  6  7  1  0
  7  8  2  0
  8  9  1  0
  9 10  1  0
  9 11  2  0
 11 12  1  0
 12 13  1  0
 12 14  2  0
  5 15  1  0
 15 16  1  0
 16 17  2  0
 16 18  1  0
 18 19  1  0
 19 20  2  0
 20 21  1  0
 21 22  2  0
 22 23  1  0
 23 24  1  0
 24 25  1  0
 25 26  1  0
 26 27  1  0
 27 28  1  1
 14  7  1  0
 23 19  1  0
 27 22  1  0
M  END
>  <energy_score>  (2536) 
-22.79118

>  <alias>  (2536) 
None

>  <HIPPO Pose ID>  (2536) 
75043

>  <smiles>  (2536) 
COC(=O)[C@@H](Cc1cc(F)nc(F)c1)NC(=O)Cc1cnc2n1CCC[C@@H]2C

>  <inchikey>  (2536) 
JOXBJLQSPMWBQR-SMDDNHRTSA-N

>  <distance_score>  (2536) 
1.927253

>  <ref_mols>  (2536) 
Z1495a,Z0800a

>  <ref_pdb>  (2536) 
Z0800a

>  <HIPPO Compound ID>  (2536) 
149202

>  <name>  (2536) 
P75043

>  <inspiration_score>  (2536) 
None

$$$$
P75045
     RDKit          3D

 28 31  0  0  0  0  0  0  0  0999 V2000
   -9.6580    4.8939  -17.2843 C   0  0  0  0  0  0  0  0  0  0  0  0
   -8.5975    5.2697  -18.3022 C   0  0  2  0  0  0  0  0  0  0  0  0
   -8.3237    4.0516  -19.1640 C   0  0  0  0  0  0  0  0  0  0  0  0
   -6.9734    4.1412  -19.8473 C   0  0  0  0  0  0  0  0  0  0  0  0
   -5.8431    4.3285  -18.8688 C   0  0  0  0  0  0  0  0  0  0  0  0
   -6.0993    5.4147  -17.9690 N   0  0  0  0  0  0  0  0  0  0  0  0
   -5.2200    5.9875  -17.0970 C   0  0  0  0  0  0  0  0  0  0  0  0
   -3.8558    5.4744  -16.7563 C   0  0  0  0  0  0  0  0  0  0  0  0
   -3.8226    5.3871  -15.2217 C   0  0  0  0  0  0  0  0  0  0  0  0
   -3.1034    6.0329  -14.5612 O   0  0  0  0  0  0  0  0  0  0  0  0
   -4.9605    4.3973  -14.8095 N   0  0  0  0  0  0  0  0  0  0  0  0
   -5.5046    4.0779  -13.4998 C   0  0  2  0  0  0  0  0  0  0  0  0
   -6.8442    4.8908  -13.4173 C   0  0  0  0  0  0  0  0  0  0  0  0
   -7.5164    4.8451  -12.0760 C   0  0  0  0  0  0  0  0  0  0  0  0
   -7.9844    3.6425  -11.5457 C   0  0  0  0  0  0  0  0  0  0  0  0
   -8.4185    3.6314  -10.2307 C   0  0  0  0  0  0  0  0  0  0  0  0
   -8.4298    4.7247   -9.4321 N   0  0  0  0  0  0  0  0  0  0  0  0
   -8.0374    5.8869   -9.9911 C   0  0  0  0  0  0  0  0  0  0  0  0
   -7.5832    6.0000  -11.2919 C   0  0  0  0  0  0  0  0  0  0  0  0
   -4.5325    4.3653  -12.3361 C   0  0  0  0  0  0  0  0  0  0  0  0
   -3.3783    3.3804  -12.1008 C   0  0  0  0  0  0  0  0  0  0  0  0
   -2.5141    2.9754  -13.2885 C   0  0  0  0  0  0  0  0  0  0  0  0
   -1.6952    1.8041  -12.7497 C   0  0  0  0  0  0  0  0  0  0  0  0
   -2.5394    1.1784  -11.6385 C   0  0  0  0  0  0  0  0  0  0  0  0
   -3.8115    2.0191  -11.5543 C   0  0  0  0  0  0  0  0  0  0  0  0
   -5.9748    6.9496  -16.4608 C   0  0  0  0  0  0  0  0  0  0  0  0
   -7.2951    6.8045  -16.7677 N   0  0  0  0  0  0  0  0  0  0  0  0
   -7.3630    5.8326  -17.6526 C   0  0  0  0  0  0  0  0  0  0  0  0
  2  1  1  1
  2  3  1  0
  3  4  1  0
  4  5  1  0
  5  6  1  0
  6  7  1  0
  7  8  1  0
  8  9  1  0
  9 10  2  0
  9 11  1  0
 11 12  1  0
 12 13  1  1
 13 14  1  0
 14 15  2  0
 15 16  1  0
 16 17  2  0
 17 18  1  0
 18 19  2  0
 12 20  1  0
 20 21  1  0
 21 22  1  0
 22 23  1  0
 23 24  1  0
 24 25  1  0
  7 26  2  0
 26 27  1  0
 27 28  2  0
 28  2  1  0
 28  6  1  0
 19 14  1  0
 25 21  1  0
M  END
>  <energy_score>  (2537) 
-19.880825

>  <alias>  (2537) 
None

>  <HIPPO Pose ID>  (2537) 
75045

>  <smiles>  (2537) 
C[C@@H]1CCCn2c(CC(=O)N[C@H](Cc3ccncc3)CC3CCCC3)cnc21

>  <inchikey>  (2537) 
FGEQDFAFPQYYDR-XLIONFOSSA-N

>  <distance_score>  (2537) 
1.540982

>  <ref_mols>  (2537) 
Z1495a,Z0800a

>  <ref_pdb>  (2537) 
Z0800a

>  <HIPPO Compound ID>  (2537) 
149204

>  <name>  (2537) 
P75045

>  <inspiration_score>  (2537) 
None

$$$$
P75046
     RDKit          3D

 28 31  0  0  0  0  0  0  0  0999 V2000
   -8.7158    3.9878  -19.7001 C   0  0  0  0  0  0  0  0  0  0  0  0
   -8.5416    5.0514  -18.6457 C   0  0  1  0  0  0  0  0  0  0  0  0
   -9.5592    4.8025  -17.5368 C   0  0  0  0  0  0  0  0  0  0  0  0
   -9.0516    3.7506  -16.5791 C   0  0  0  0  0  0  0  0  0  0  0  0
   -7.7378    4.1775  -15.9603 C   0  0  0  0  0  0  0  0  0  0  0  0
   -6.7677    4.6714  -16.9085 N   0  0  0  0  0  0  0  0  0  0  0  0
   -5.4616    5.0492  -16.6858 C   0  0  0  0  0  0  0  0  0  0  0  0
   -4.7673    5.1008  -15.3643 C   0  0  0  0  0  0  0  0  0  0  0  0
   -5.3729    6.3215  -14.6522 C   0  0  0  0  0  0  0  0  0  0  0  0
   -5.0568    7.4219  -14.8821 O   0  0  0  0  0  0  0  0  0  0  0  0
   -6.4847    5.7681  -13.7203 N   0  0  0  0  0  0  0  0  0  0  0  0
   -7.4981    6.4596  -12.9538 C   0  0  2  0  0  0  0  0  0  0  0  0
   -7.4207    8.0013  -13.0211 C   0  0  0  0  0  0  0  0  0  0  0  0
   -6.3430    8.7609  -12.2691 C   0  0  0  0  0  0  0  0  0  0  0  0
   -5.1888    8.1736  -11.7460 C   0  0  0  0  0  0  0  0  0  0  0  0
   -4.2740    8.9700  -11.0705 C   0  0  0  0  0  0  0  0  0  0  0  0
   -4.4242   10.2969  -10.8777 N   0  0  0  0  0  0  0  0  0  0  0  0
   -5.5300   10.8556  -11.4085 C   0  0  0  0  0  0  0  0  0  0  0  0
   -6.4988   10.1436  -12.1007 C   0  0  0  0  0  0  0  0  0  0  0  0
   -7.7592    5.7507  -11.6432 C   0  0  0  0  0  0  0  0  0  0  0  0
   -8.0222    4.3665  -11.6199 C   0  0  0  0  0  0  0  0  0  0  0  0
   -8.2237    3.7346  -10.4018 C   0  0  0  0  0  0  0  0  0  0  0  0
   -8.1898    4.3813   -9.2197 N   0  0  0  0  0  0  0  0  0  0  0  0
   -7.9877    5.7103   -9.2608 C   0  0  0  0  0  0  0  0  0  0  0  0
   -7.7845    6.4280  -10.4254 C   0  0  0  0  0  0  0  0  0  0  0  0
   -5.0477    5.5454  -17.8991 C   0  0  0  0  0  0  0  0  0  0  0  0
   -6.0852    5.5999  -18.7796 N   0  0  0  0  0  0  0  0  0  0  0  0
   -7.1279    5.1025  -18.1551 C   0  0  0  0  0  0  0  0  0  0  0  0
  2  1  1  6
  2  3  1  0
  3  4  1  0
  4  5  1  0
  5  6  1  0
  6  7  1  0
  7  8  1  0
  8  9  1  0
  9 10  2  0
  9 11  1  0
 11 12  1  0
 12 13  1  1
 13 14  1  0
 14 15  2  0
 15 16  1  0
 16 17  2  0
 17 18  1  0
 18 19  2  0
 12 20  1  0
 20 21  2  0
 21 22  1  0
 22 23  2  0
 23 24  1  0
 24 25  2  0
  7 26  2  0
 26 27  1  0
 27 28  2  0
 28  2  1  0
 28  6  1  0
 19 14  1  0
 25 20  1  0
M  END
>  <energy_score>  (2538) 
-3.859834

>  <alias>  (2538) 
None

>  <HIPPO Pose ID>  (2538) 
75046

>  <smiles>  (2538) 
C[C@H]1CCCn2c(CC(=O)N[C@H](Cc3ccncc3)c3ccncc3)cnc21

>  <inchikey>  (2538) 
VRKXEPNJPGIDNF-OXJNMPFZSA-N

>  <distance_score>  (2538) 
1.815305

>  <ref_mols>  (2538) 
Z1495a,Z0800a

>  <ref_pdb>  (2538) 
Z0800a

>  <HIPPO Compound ID>  (2538) 
149206

>  <name>  (2538) 
P75046

>  <inspiration_score>  (2538) 
None

$$$$
P75048
     RDKit          3D

 28 30  0  0  0  0  0  0  0  0999 V2000
   -3.0250    8.2007  -12.0432 C   0  0  0  0  0  0  0  0  0  0  0  0
   -3.5143    6.8321  -11.6116 C   0  0  0  0  0  0  0  0  0  0  0  0
   -4.2313    6.2519  -12.7073 O   0  0  0  0  0  0  0  0  0  0  0  0
   -4.7246    4.9992  -12.4485 C   0  0  0  0  0  0  0  0  0  0  0  0
   -4.6080    4.4309  -11.3702 O   0  0  0  0  0  0  0  0  0  0  0  0
   -5.5233    4.4499  -13.6445 C   0  0  1  0  0  0  0  0  0  0  0  0
   -7.0355    4.7966  -13.5895 C   0  0  0  0  0  0  0  0  0  0  0  0
   -7.6209    4.8092  -12.2089 C   0  0  0  0  0  0  0  0  0  0  0  0
   -7.6942    6.0043  -11.4856 C   0  0  0  0  0  0  0  0  0  0  0  0
   -8.0807    5.9508  -10.1574 C   0  0  0  0  0  0  0  0  0  0  0  0
   -8.4085    4.8130   -9.5177 N   0  0  0  0  0  0  0  0  0  0  0  0
   -8.3796    3.6782  -10.2536 C   0  0  0  0  0  0  0  0  0  0  0  0
   -8.7331    2.5387   -9.6480 F   0  0  0  0  0  0  0  0  0  0  0  0
   -7.9972    3.6232  -11.5820 C   0  0  0  0  0  0  0  0  0  0  0  0
   -4.9991    5.0450  -14.8583 N   0  0  0  0  0  0  0  0  0  0  0  0
   -3.9341    4.5233  -15.8571 C   0  0  0  0  0  0  0  0  0  0  0  0
   -3.3717    3.5008  -15.8976 O   0  0  0  0  0  0  0  0  0  0  0  0
   -3.7674    5.6108  -16.9549 C   0  0  0  0  0  0  0  0  0  0  0  0
   -5.1120    6.1288  -17.3492 C   0  0  0  0  0  0  0  0  0  0  0  0
   -5.8008    7.2446  -16.9326 C   0  0  0  0  0  0  0  0  0  0  0  0
   -7.1448    7.0582  -17.1006 N   0  0  0  0  0  0  0  0  0  0  0  0
   -7.2865    5.9288  -17.7632 C   0  0  0  0  0  0  0  0  0  0  0  0
   -6.0488    5.4296  -18.0507 N   0  0  0  0  0  0  0  0  0  0  0  0
   -5.8900    4.2282  -18.8136 C   0  0  0  0  0  0  0  0  0  0  0  0
   -6.9839    4.1407  -19.8502 C   0  0  0  0  0  0  0  0  0  0  0  0
   -8.3637    4.1285  -19.2189 C   0  0  0  0  0  0  0  0  0  0  0  0
   -8.5596    5.2371  -18.1927 C   0  0  1  0  0  0  0  0  0  0  0  0
   -9.2914    4.6481  -16.9944 C   0  0  0  0  0  0  0  0  0  0  0  0
  1  2  1  0
  2  3  1  0
  3  4  1  0
  4  5  2  0
  4  6  1  0
  6  7  1  1
  7  8  1  0
  8  9  2  0
  9 10  1  0
 10 11  2  0
 11 12  1  0
 12 13  1  0
 12 14  2  0
  6 15  1  0
 15 16  1  0
 16 17  2  0
 16 18  1  0
 18 19  1  0
 19 20  2  0
 20 21  1  0
 21 22  2  0
 22 23  1  0
 23 24  1  0
 24 25  1  0
 25 26  1  0
 26 27  1  0
 27 28  1  1
 14  8  1  0
 23 19  1  0
 27 22  1  0
M  END
>  <energy_score>  (2539) 
-18.731826

>  <alias>  (2539) 
None

>  <HIPPO Pose ID>  (2539) 
75048

>  <smiles>  (2539) 
CCOC(=O)[C@@H](Cc1ccnc(F)c1)NC(=O)Cc1cnc2n1CCC[C@H]2C

>  <inchikey>  (2539) 
TWEIVOHXZHTGNB-CZUORRHYSA-N

>  <distance_score>  (2539) 
1.737056

>  <ref_mols>  (2539) 
Z1495a,Z0800a

>  <ref_pdb>  (2539) 
Z0800a

>  <HIPPO Compound ID>  (2539) 
149207

>  <name>  (2539) 
P75048

>  <inspiration_score>  (2539) 
None

$$$$
P75051
     RDKit          3D

 28 30  0  0  0  0  0  0  0  0999 V2000
   -2.3473    1.8414  -12.4882 C   0  0  0  0  0  0  0  0  0  0  0  0
   -3.7829    1.7003  -12.9572 C   0  0  0  0  0  0  0  0  0  0  0  0
   -4.2488    2.9223  -13.5394 O   0  0  0  0  0  0  0  0  0  0  0  0
   -4.7234    3.8522  -12.6603 C   0  0  0  0  0  0  0  0  0  0  0  0
   -4.7319    3.7134  -11.4427 O   0  0  0  0  0  0  0  0  0  0  0  0
   -5.2213    5.1067  -13.3774 C   0  0  1  0  0  0  0  0  0  0  0  0
   -4.7823    5.1503  -14.7601 N   0  0  0  0  0  0  0  0  0  0  0  0
   -3.6416    5.9626  -15.4305 C   0  0  0  0  0  0  0  0  0  0  0  0
   -2.8328    6.6607  -14.9599 O   0  0  0  0  0  0  0  0  0  0  0  0
   -3.8218    5.7683  -16.9554 C   0  0  0  0  0  0  0  0  0  0  0  0
   -5.2449    6.1432  -17.2593 C   0  0  0  0  0  0  0  0  0  0  0  0
   -6.0407    7.0833  -16.6379 C   0  0  0  0  0  0  0  0  0  0  0  0
   -7.3567    6.7684  -16.7918 N   0  0  0  0  0  0  0  0  0  0  0  0
   -7.3994    5.7986  -17.6812 C   0  0  0  0  0  0  0  0  0  0  0  0
   -6.1251    5.4419  -18.0309 N   0  0  0  0  0  0  0  0  0  0  0  0
   -5.8615    4.3188  -18.8821 C   0  0  0  0  0  0  0  0  0  0  0  0
   -6.9668    4.1489  -19.8936 C   0  0  0  0  0  0  0  0  0  0  0  0
   -8.3446    4.0578  -19.2685 C   0  0  0  0  0  0  0  0  0  0  0  0
   -8.6285    5.1675  -18.2774 C   0  0  1  0  0  0  0  0  0  0  0  0
   -9.5452    4.6160  -17.1984 C   0  0  0  0  0  0  0  0  0  0  0  0
   -6.7749    5.2701  -13.3959 C   0  0  1  0  0  0  0  0  0  0  0  0
   -7.3625    4.3966  -14.3681 O   0  0  0  0  0  0  0  0  0  0  0  0
   -7.4389    5.0957  -12.0593 C   0  0  0  0  0  0  0  0  0  0  0  0
   -7.4838    6.1713  -11.1675 C   0  0  0  0  0  0  0  0  0  0  0  0
   -7.9695    5.9531   -9.8908 C   0  0  0  0  0  0  0  0  0  0  0  0
   -8.4059    4.7589   -9.4470 N   0  0  0  0  0  0  0  0  0  0  0  0
   -8.3906    3.7376  -10.3355 C   0  0  0  0  0  0  0  0  0  0  0  0
   -7.9359    3.8587  -11.6380 C   0  0  0  0  0  0  0  0  0  0  0  0
  1  2  1  0
  2  3  1  0
  3  4  1  0
  4  5  2  0
  4  6  1  0
  6  7  1  6
  7  8  1  0
  8  9  2  0
  8 10  1  0
 10 11  1  0
 11 12  2  0
 12 13  1  0
 13 14  2  0
 14 15  1  0
 15 16  1  0
 16 17  1  0
 17 18  1  0
 18 19  1  0
 19 20  1  1
  6 21  1  0
 21 22  1  6
 21 23  1  0
 23 24  2  0
 24 25  1  0
 25 26  2  0
 26 27  1  0
 27 28  2  0
 15 11  1  0
 28 23  1  0
 19 14  1  0
M  END
>  <energy_score>  (2540) 
-17.36816

>  <alias>  (2540) 
None

>  <HIPPO Pose ID>  (2540) 
75051

>  <smiles>  (2540) 
CCOC(=O)[C@@H](NC(=O)Cc1cnc2n1CCC[C@H]2C)[C@@H](O)c1ccncc1

>  <inchikey>  (2540) 
YUYXPXOTIIYTEY-BVGQSLNGSA-N

>  <distance_score>  (2540) 
1.535913

>  <ref_mols>  (2540) 
Z1495a,Z0800a

>  <ref_pdb>  (2540) 
Z0800a

>  <HIPPO Compound ID>  (2540) 
149208

>  <name>  (2540) 
P75051

>  <inspiration_score>  (2540) 
None

$$$$
P75052
     RDKit          3D

 28 31  0  0  0  0  0  0  0  0999 V2000
   -9.9569    5.0500  -18.8869 C   0  0  0  0  0  0  0  0  0  0  0  0
   -8.6360    4.5366  -18.3445 C   0  0  2  0  0  0  0  0  0  0  0  0
   -8.9904    3.7945  -17.0436 C   0  0  0  0  0  0  0  0  0  0  0  0
   -8.0137    3.9645  -15.8907 C   0  0  0  0  0  0  0  0  0  0  0  0
   -6.6006    4.1815  -16.3814 C   0  0  0  0  0  0  0  0  0  0  0  0
   -6.5710    5.3611  -17.1965 N   0  0  0  0  0  0  0  0  0  0  0  0
   -5.7119    6.4153  -17.1713 C   0  0  0  0  0  0  0  0  0  0  0  0
   -4.6097    6.6324  -16.2022 C   0  0  0  0  0  0  0  0  0  0  0  0
   -5.0658    7.5663  -15.0803 C   0  0  0  0  0  0  0  0  0  0  0  0
   -5.7815    8.5518  -15.2403 O   0  0  0  0  0  0  0  0  0  0  0  0
   -4.5177    7.2706  -13.8479 N   0  0  0  0  0  0  0  0  0  0  0  0
   -3.2111    7.8264  -13.5242 C   0  0  0  0  0  0  0  0  0  0  0  0
   -2.5408    7.1103  -12.3558 C   0  0  0  0  0  0  0  0  0  0  0  0
   -2.7623    5.6048  -12.4527 C   0  0  0  0  0  0  0  0  0  0  0  0
   -4.2508    5.2320  -12.5260 C   0  0  0  0  0  0  0  0  0  0  0  0
   -5.1758    6.4276  -12.8429 C   0  0  2  0  0  0  0  0  0  0  0  0
   -6.6313    5.9784  -13.1736 C   0  0  0  0  0  0  0  0  0  0  0  0
   -7.3362    5.4325  -11.9554 C   0  0  0  0  0  0  0  0  0  0  0  0
   -7.7676    6.3512  -10.9964 C   0  0  0  0  0  0  0  0  0  0  0  0
   -7.6436    7.6683  -11.2109 F   0  0  0  0  0  0  0  0  0  0  0  0
   -8.2563    5.9047   -9.7849 C   0  0  0  0  0  0  0  0  0  0  0  0
   -8.3826    4.6002   -9.4648 N   0  0  0  0  0  0  0  0  0  0  0  0
   -8.0246    3.7088  -10.4233 C   0  0  0  0  0  0  0  0  0  0  0  0
   -7.4852    4.0693  -11.6568 C   0  0  0  0  0  0  0  0  0  0  0  0
   -6.9149    2.8147  -12.6880 Cl  0  0  0  0  0  0  0  0  0  0  0  0
   -6.1656    7.2077  -18.1960 C   0  0  0  0  0  0  0  0  0  0  0  0
   -7.2950    6.6880  -18.7662 N   0  0  0  0  0  0  0  0  0  0  0  0
   -7.5452    5.5617  -18.1420 C   0  0  0  0  0  0  0  0  0  0  0  0
  2  1  1  1
  2  3  1  0
  3  4  1  0
  4  5  1  0
  5  6  1  0
  6  7  1  0
  7  8  1  0
  8  9  1  0
  9 10  2  0
  9 11  1  0
 11 12  1  0
 12 13  1  0
 13 14  1  0
 14 15  1  0
 15 16  1  0
 16 17  1  6
 17 18  1  0
 18 19  2  0
 19 20  1  0
 19 21  1  0
 21 22  2  0
 22 23  1  0
 23 24  2  0
 24 25  1  0
  7 26  2  0
 26 27  1  0
 27 28  2  0
 28  2  1  0
 28  6  1  0
 16 11  1  0
 24 18  1  0
M  END
>  <energy_score>  (2541) 
-4.576966

>  <alias>  (2541) 
None

>  <HIPPO Pose ID>  (2541) 
75052

>  <smiles>  (2541) 
C[C@@H]1CCCn2c(CC(=O)N3CCCC[C@@H]3Cc3c(F)cncc3Cl)cnc21

>  <inchikey>  (2541) 
JUSAHAOWARVUQK-HUUCEWRRSA-N

>  <distance_score>  (2541) 
1.94377

>  <ref_mols>  (2541) 
Z1495a,Z0800a

>  <ref_pdb>  (2541) 
Z0800a

>  <HIPPO Compound ID>  (2541) 
149211

>  <name>  (2541) 
P75052

>  <inspiration_score>  (2541) 
None

$$$$
P75053
     RDKit          3D

 28 30  0  0  0  0  0  0  0  0999 V2000
   -9.4912    4.4889  -18.3507 C   0  0  0  0  0  0  0  0  0  0  0  0
   -9.0910    3.7029  -17.1157 C   0  0  0  0  0  0  0  0  0  0  0  0
   -7.7262    3.9762  -16.7940 O   0  0  0  0  0  0  0  0  0  0  0  0
   -7.3671    3.7525  -15.5045 C   0  0  0  0  0  0  0  0  0  0  0  0
   -7.8439    2.9017  -14.7671 O   0  0  0  0  0  0  0  0  0  0  0  0
   -6.3505    4.7491  -14.9807 C   0  0  2  0  0  0  0  0  0  0  0  0
   -6.8477    5.0720  -13.6386 N   0  0  0  0  0  0  0  0  0  0  0  0
   -8.1976    5.6655  -13.1863 C   0  0  0  0  0  0  0  0  0  0  0  0
   -9.1567    5.9199  -13.8021 O   0  0  0  0  0  0  0  0  0  0  0  0
   -8.1174    6.0229  -11.7099 C   0  0  2  0  0  0  0  0  0  0  0  0
   -7.1416    7.1927  -11.4765 C   0  0  0  0  0  0  0  0  0  0  0  0
   -7.2461    7.6796  -10.0219 C   0  0  0  0  0  0  0  0  0  0  0  0
   -6.8719    6.5835   -9.0161 C   0  0  0  0  0  0  0  0  0  0  0  0
   -7.4112    5.2704   -9.4204 C   0  0  0  0  0  0  0  0  0  0  0  0
   -7.5258    4.2423   -8.5512 N   0  0  0  0  0  0  0  0  0  0  0  0
   -8.0818    3.2666   -9.2318 C   0  0  0  0  0  0  0  0  0  0  0  0
   -8.4342    1.9522   -8.6336 C   0  0  0  0  0  0  0  0  0  0  0  0
   -8.2610    3.6423  -10.5543 N   0  0  0  0  0  0  0  0  0  0  0  0
   -8.6831    2.7612  -11.6083 C   0  0  0  0  0  0  0  0  0  0  0  0
   -7.8990    4.9629  -10.6724 C   0  0  0  0  0  0  0  0  0  0  0  0
   -6.2650    6.0025  -15.8721 C   0  0  2  0  0  0  0  0  0  0  0  0
   -7.5547    6.4946  -16.2623 O   0  0  0  0  0  0  0  0  0  0  0  0
   -5.3504    5.7993  -17.0667 C   0  0  0  0  0  0  0  0  0  0  0  0
   -5.8304    5.8632  -18.3735 C   0  0  0  0  0  0  0  0  0  0  0  0
   -4.9487    5.6439  -19.4148 C   0  0  0  0  0  0  0  0  0  0  0  0
   -3.6355    5.3420  -19.2691 N   0  0  0  0  0  0  0  0  0  0  0  0
   -3.1889    5.2922  -17.9990 C   0  0  0  0  0  0  0  0  0  0  0  0
   -3.9875    5.5204  -16.8857 C   0  0  0  0  0  0  0  0  0  0  0  0
  1  2  1  0
  2  3  1  0
  3  4  1  0
  4  5  2  0
  4  6  1  0
  6  7  1  1
  7  8  1  0
  8  9  2  0
 10  8  1  6
 10 11  1  0
 11 12  1  0
 12 13  1  0
 13 14  1  0
 14 15  1  0
 15 16  2  0
 16 17  1  0
 16 18  1  0
 18 19  1  0
 18 20  1  0
  6 21  1  0
 21 22  1  6
 21 23  1  0
 23 24  2  0
 24 25  1  0
 25 26  2  0
 26 27  1  0
 27 28  2  0
 20 10  1  0
 28 23  1  0
 20 14  2  0
M  END
>  <energy_score>  (2542) 
-18.828153

>  <alias>  (2542) 
None

>  <HIPPO Pose ID>  (2542) 
75053

>  <smiles>  (2542) 
CCOC(=O)[C@H](NC(=O)[C@@H]1CCCc2nc(C)n(C)c21)[C@H](O)c1ccncc1

>  <inchikey>  (2542) 
XNZKLADLTPDVPO-QGPMSJSTSA-N

>  <distance_score>  (2542) 
1.934558

>  <ref_mols>  (2542) 
Z1495a,Z0800a

>  <ref_pdb>  (2542) 
Z0800a

>  <HIPPO Compound ID>  (2542) 
149217

>  <name>  (2542) 
P75053

>  <inspiration_score>  (2542) 
None

$$$$
P75054
     RDKit          3D

 28 29  0  0  0  0  0  0  0  0999 V2000
   -3.7234    8.7369  -10.8733 C   0  0  0  0  0  0  0  0  0  0  0  0
   -3.8338    7.7545  -12.0229 C   0  0  0  0  0  0  0  0  0  0  0  0
   -5.1280    7.9094  -12.6167 O   0  0  0  0  0  0  0  0  0  0  0  0
   -5.3764    7.0379  -13.6413 C   0  0  0  0  0  0  0  0  0  0  0  0
   -4.5813    6.1992  -14.0457 O   0  0  0  0  0  0  0  0  0  0  0  0
   -6.7976    7.2661  -14.1763 C   0  0  2  0  0  0  0  0  0  0  0  0
   -7.7596    6.1843  -13.6183 C   0  0  0  0  0  0  0  0  0  0  0  0
   -7.8494    5.8952  -12.1491 C   0  0  0  0  0  0  0  0  0  0  0  0
   -7.7417    6.8849  -11.1804 C   0  0  0  0  0  0  0  0  0  0  0  0
   -7.8749    6.5240   -9.8511 C   0  0  0  0  0  0  0  0  0  0  0  0
   -8.1515    5.2754   -9.4294 N   0  0  0  0  0  0  0  0  0  0  0  0
   -8.3110    4.3056  -10.3785 C   0  0  0  0  0  0  0  0  0  0  0  0
   -8.7812    2.9435  -10.0202 N   0  0  0  0  0  0  0  0  0  0  0  0
   -9.2465    2.2454  -10.9344 O   0  0  0  0  0  0  0  0  0  0  0  0
   -8.7331    2.6283   -8.8221 O   0  0  0  0  0  0  0  0  0  0  0  0
   -8.1419    4.5812  -11.7377 C   0  0  0  0  0  0  0  0  0  0  0  0
   -6.8011    7.0302  -15.6072 N   0  0  0  0  0  0  0  0  0  0  0  0
   -5.9586    7.6837  -16.7421 C   0  0  0  0  0  0  0  0  0  0  0  0
   -5.1904    8.5650  -16.7037 O   0  0  0  0  0  0  0  0  0  0  0  0
   -6.2215    6.8538  -18.0658 C   0  0  0  0  0  0  0  0  0  0  0  0
   -6.5293    5.4271  -17.7177 C   0  0  0  0  0  0  0  0  0  0  0  0
   -5.7893    4.5935  -16.9052 C   0  0  0  0  0  0  0  0  0  0  0  0
   -6.6394    3.8100  -16.1749 N   0  0  0  0  0  0  0  0  0  0  0  0
   -7.8144    3.9246  -16.7351 C   0  0  0  0  0  0  0  0  0  0  0  0
   -7.7632    4.8132  -17.7638 N   0  0  0  0  0  0  0  0  0  0  0  0
   -8.8258    5.0016  -18.7228 C   0  0  0  0  0  0  0  0  0  0  0  0
   -8.6939    3.9336  -19.7806 C   0  0  0  0  0  0  0  0  0  0  0  0
  -10.2166    4.9276  -18.1274 C   0  0  0  0  0  0  0  0  0  0  0  0
  1  2  1  0
  2  3  1  0
  3  4  1  0
  4  5  2  0
  4  6  1  0
  6  7  1  1
  7  8  1  0
  8  9  2  0
  9 10  1  0
 10 11  2  0
 11 12  1  0
 12 13  1  0
 13 14  2  0
 13 15  1  0
 12 16  2  0
  6 17  1  0
 17 18  1  0
 18 19  2  0
 18 20  1  0
 20 21  1  0
 21 22  2  0
 22 23  1  0
 23 24  2  0
 24 25  1  0
 25 26  1  0
 26 27  1  0
 26 28  1  0
 16  8  1  0
 25 21  1  0
M  CHG  2  13   1  15  -1
M  END
>  <energy_score>  (2543) 
-12.530004

>  <alias>  (2543) 
None

>  <HIPPO Pose ID>  (2543) 
75054

>  <smiles>  (2543) 
CCOC(=O)[C@H](Cc1ccnc([N+](=O)[O-])c1)NC(=O)Cc1cncn1C(C)C

>  <inchikey>  (2543) 
FPSGSWLOIIHSQH-HNNXBMFYSA-N

>  <distance_score>  (2543) 
1.786999

>  <ref_mols>  (2543) 
Z1495a,Z0800a

>  <ref_pdb>  (2543) 
Z0800a

>  <HIPPO Compound ID>  (2543) 
149220

>  <name>  (2543) 
P75054

>  <inspiration_score>  (2543) 
None

$$$$
P75055
     RDKit          3D

 28 30  0  0  0  0  0  0  0  0999 V2000
   -8.8595    2.1475   -8.2055 C   0  0  0  0  0  0  0  0  0  0  0  0
   -8.3809    2.5769   -9.5783 C   0  0  0  0  0  0  0  0  0  0  0  0
   -8.1868    4.0041   -9.7477 N   0  0  0  0  0  0  0  0  0  0  0  0
   -8.1305    4.9568   -8.7729 C   0  0  0  0  0  0  0  0  0  0  0  0
   -8.0196    6.1677   -9.2709 N   0  0  0  0  0  0  0  0  0  0  0  0
   -7.9622    5.9907  -10.6227 C   0  0  0  0  0  0  0  0  0  0  0  0
   -8.0141    4.6485  -10.9449 C   0  0  0  0  0  0  0  0  0  0  0  0
   -7.9328    3.9567  -12.2450 C   0  0  0  0  0  0  0  0  0  0  0  0
   -7.0561    4.7873  -13.1569 C   0  0  0  0  0  0  0  0  0  0  0  0
   -7.4977    5.6153  -13.8608 O   0  0  0  0  0  0  0  0  0  0  0  0
   -5.5882    4.2669  -13.0001 N   0  0  0  0  0  0  0  0  0  0  0  0
   -4.4391    4.5810  -13.7143 C   0  0  0  0  0  0  0  0  0  0  0  0
   -3.3067    4.1965  -13.0829 N   0  0  0  0  0  0  0  0  0  0  0  0
   -2.1263    4.4283  -13.6976 C   0  0  0  0  0  0  0  0  0  0  0  0
   -2.0071    4.9666  -14.9647 C   0  0  0  0  0  0  0  0  0  0  0  0
   -3.1767    5.2770  -15.6468 C   0  0  0  0  0  0  0  0  0  0  0  0
   -4.4171    5.1214  -14.9989 C   0  0  0  0  0  0  0  0  0  0  0  0
   -5.6559    5.4934  -15.7400 C   0  0  0  0  0  0  0  0  0  0  0  0
   -5.5818    5.4225  -17.1676 N   0  0  0  0  0  0  0  0  0  0  0  0
   -6.7665    5.6304  -17.8075 C   0  0  0  0  0  0  0  0  0  0  0  0
   -7.1264    6.7454  -18.1504 O   0  0  0  0  0  0  0  0  0  0  0  0
   -7.4332    4.4586  -17.8818 O   0  0  0  0  0  0  0  0  0  0  0  0
   -8.7260    4.3079  -18.4927 C   0  0  0  0  0  0  0  0  0  0  0  0
   -9.5261    3.3097  -17.6909 C   0  0  0  0  0  0  0  0  0  0  0  0
   -8.4522    3.8385  -19.8904 C   0  0  0  0  0  0  0  0  0  0  0  0
   -9.6462    5.4913  -18.5094 C   0  0  0  0  0  0  0  0  0  0  0  0
   -4.3424    5.1516  -17.8482 C   0  0  0  0  0  0  0  0  0  0  0  0
   -3.1685    5.7554  -17.0792 C   0  0  0  0  0  0  0  0  0  0  0  0
  1  2  1  0
  2  3  1  0
  3  4  1  0
  4  5  2  0
  5  6  1  0
  6  7  2  0
  7  8  1  0
  8  9  1  0
  9 10  2  0
  9 11  1  0
 11 12  1  0
 12 13  2  0
 13 14  1  0
 14 15  2  0
 15 16  1  0
 16 17  2  0
 17 18  1  0
 18 19  1  0
 19 20  1  0
 20 21  2  0
 20 22  1  0
 22 23  1  0
 23 24  1  0
 23 25  1  0
 23 26  1  0
 19 27  1  0
 27 28  1  0
  7  3  1  0
 17 12  1  0
 28 16  1  0
M  END
>  <energy_score>  (2544) 
-1.373083

>  <alias>  (2544) 
None

>  <HIPPO Pose ID>  (2544) 
75055

>  <smiles>  (2544) 
CCn1cncc1CC(=O)Nc1nccc2c1CN(C(=O)OC(C)(C)C)CC2

>  <inchikey>  (2544) 
BHSQDNRLHJYLCK-UHFFFAOYSA-N

>  <distance_score>  (2544) 
1.705779

>  <ref_mols>  (2544) 
Z0800a,Z1495a

>  <ref_pdb>  (2544) 
Z0800a

>  <HIPPO Compound ID>  (2544) 
149222

>  <name>  (2544) 
P75055

>  <inspiration_score>  (2544) 
None

$$$$
P75056
     RDKit          3D

 29 31  0  0  0  0  0  0  0  0999 V2000
   -9.9546    4.9744  -19.0606 C   0  0  0  0  0  0  0  0  0  0  0  0
   -9.1595    3.8101  -18.5260 C   0  0  0  0  0  0  0  0  0  0  0  0
   -9.0982    3.8810  -17.0178 C   0  0  0  0  0  0  0  0  0  0  0  0
   -8.2175    4.9232  -16.6239 O   0  0  0  0  0  0  0  0  0  0  0  0
   -7.3161    4.5879  -15.6705 C   0  0  0  0  0  0  0  0  0  0  0  0
   -7.1207    3.4786  -15.1905 O   0  0  0  0  0  0  0  0  0  0  0  0
   -6.5694    5.8281  -15.2215 C   0  0  2  0  0  0  0  0  0  0  0  0
   -5.1262    5.7084  -15.7038 C   0  0  0  0  0  0  0  0  0  0  0  0
   -5.0410    6.2158  -17.1319 C   0  0  0  0  0  0  0  0  0  0  0  0
   -5.5472    5.4685  -18.2009 C   0  0  0  0  0  0  0  0  0  0  0  0
   -5.6567    6.0781  -19.4370 C   0  0  0  0  0  0  0  0  0  0  0  0
   -5.2280    7.3367  -19.6966 N   0  0  0  0  0  0  0  0  0  0  0  0
   -4.6954    8.0229  -18.6683 C   0  0  0  0  0  0  0  0  0  0  0  0
   -4.1265    9.8009  -19.0020 Br  0  0  0  0  0  0  0  0  0  0  0  0
   -4.5901    7.5171  -17.3812 C   0  0  0  0  0  0  0  0  0  0  0  0
   -6.8576    5.8374  -13.8027 N   0  0  0  0  0  0  0  0  0  0  0  0
   -8.2048    5.9314  -13.0542 C   0  0  0  0  0  0  0  0  0  0  0  0
   -9.2981    5.9384  -13.4630 O   0  0  0  0  0  0  0  0  0  0  0  0
   -7.9880    6.0397  -11.5519 C   0  0  2  0  0  0  0  0  0  0  0  0
   -6.9427    7.0024  -11.0185 C   0  0  0  0  0  0  0  0  0  0  0  0
   -7.1360    7.1846   -9.5048 C   0  0  0  0  0  0  0  0  0  0  0  0
   -6.8337    8.2437   -8.9545 O   0  0  0  0  0  0  0  0  0  0  0  0
   -7.5482    6.0926   -8.7753 N   0  0  0  0  0  0  0  0  0  0  0  0
   -7.8247    4.9025   -9.3734 C   0  0  0  0  0  0  0  0  0  0  0  0
   -7.9994    3.7339   -8.7355 N   0  0  0  0  0  0  0  0  0  0  0  0
   -8.0741    2.8569   -9.7134 C   0  0  0  0  0  0  0  0  0  0  0  0
   -7.9722    3.4597  -10.9421 N   0  0  0  0  0  0  0  0  0  0  0  0
   -7.7387    2.7945  -12.1922 C   0  0  0  0  0  0  0  0  0  0  0  0
   -7.9392    4.8051  -10.7312 C   0  0  0  0  0  0  0  0  0  0  0  0
  1  2  1  0
  2  3  1  0
  3  4  1  0
  4  5  1  0
  5  6  2  0
  5  7  1  0
  7  8  1  1
  8  9  1  0
  9 10  2  0
 10 11  1  0
 11 12  2  0
 12 13  1  0
 13 14  1  0
 13 15  2  0
  7 16  1  0
 16 17  1  0
 17 18  2  0
 19 17  1  6
 19 20  1  0
 20 21  1  0
 21 22  2  0
 21 23  1  0
 23 24  1  0
 24 25  1  0
 25 26  2  0
 26 27  1  0
 27 28  1  0
 27 29  1  0
 15  9  1  0
 29 19  1  0
 29 24  2  0
M  END
>  <energy_score>  (2545) 
-12.95591

>  <alias>  (2545) 
None

>  <HIPPO Pose ID>  (2545) 
75056

>  <smiles>  (2545) 
CCCOC(=O)[C@H](Cc1ccnc(Br)c1)NC(=O)[C@@H]1CC(=O)Nc2ncn(C)c21

>  <inchikey>  (2545) 
CJAKCNGOONXRJF-OLZOCXBDSA-N

>  <distance_score>  (2545) 
1.948659

>  <ref_mols>  (2545) 
Z1495a,Z0800a

>  <ref_pdb>  (2545) 
Z0800a

>  <HIPPO Compound ID>  (2545) 
149232

>  <name>  (2545) 
P75056

>  <inspiration_score>  (2545) 
None

$$$$
P75058
     RDKit          3D

 29 31  0  0  0  0  0  0  0  0999 V2000
   -9.8912    5.0175  -17.6651 C   0  0  0  0  0  0  0  0  0  0  0  0
   -8.7694    4.0140  -17.8433 C   0  0  1  0  0  0  0  0  0  0  0  0
   -8.4756    3.8715  -19.3317 C   0  0  0  0  0  0  0  0  0  0  0  0
   -7.0908    4.3645  -19.7511 C   0  0  0  0  0  0  0  0  0  0  0  0
   -6.6236    5.5940  -18.9902 C   0  0  0  0  0  0  0  0  0  0  0  0
   -6.5737    5.2008  -17.5985 N   0  0  0  0  0  0  0  0  0  0  0  0
   -5.5872    5.3495  -16.6650 C   0  0  0  0  0  0  0  0  0  0  0  0
   -4.6015    6.4655  -16.6043 C   0  0  0  0  0  0  0  0  0  0  0  0
   -5.3848    7.6946  -16.0925 C   0  0  0  0  0  0  0  0  0  0  0  0
   -5.5312    8.6598  -16.7371 O   0  0  0  0  0  0  0  0  0  0  0  0
   -5.9629    7.3166  -14.6960 N   0  0  0  0  0  0  0  0  0  0  0  0
   -6.9119    8.0083  -13.8560 C   0  0  1  0  0  0  0  0  0  0  0  0
   -8.1215    7.0917  -13.5357 C   0  0  0  0  0  0  0  0  0  0  0  0
   -7.9931    6.1117  -12.3919 C   0  0  0  0  0  0  0  0  0  0  0  0
   -7.9812    4.7271  -12.5864 C   0  0  0  0  0  0  0  0  0  0  0  0
   -7.9168    3.8930  -11.4748 C   0  0  0  0  0  0  0  0  0  0  0  0
   -7.8521    4.3415  -10.2015 N   0  0  0  0  0  0  0  0  0  0  0  0
   -7.8999    5.6733  -10.0317 C   0  0  0  0  0  0  0  0  0  0  0  0
   -7.9806    6.5796  -11.0752 C   0  0  0  0  0  0  0  0  0  0  0  0
   -6.2116    8.6558  -12.6600 C   0  0  0  0  0  0  0  0  0  0  0  0
   -5.1259    8.3151  -12.2097 O   0  0  0  0  0  0  0  0  0  0  0  0
   -6.9702    9.6914  -12.1951 O   0  0  0  0  0  0  0  0  0  0  0  0
   -6.4594   10.5866  -11.1720 C   0  0  0  0  0  0  0  0  0  0  0  0
   -5.1969   11.3102  -11.6552 C   0  0  0  0  0  0  0  0  0  0  0  0
   -6.2257    9.8644   -9.8410 C   0  0  0  0  0  0  0  0  0  0  0  0
   -7.5739   11.6257  -10.9744 C   0  0  0  0  0  0  0  0  0  0  0  0
   -5.8965    4.4017  -15.7121 C   0  0  0  0  0  0  0  0  0  0  0  0
   -7.1570    3.9176  -15.9059 N   0  0  0  0  0  0  0  0  0  0  0  0
   -7.5428    4.3848  -17.0705 C   0  0  0  0  0  0  0  0  0  0  0  0
  2  1  1  6
  2  3  1  0
  3  4  1  0
  4  5  1  0
  5  6  1  0
  6  7  1  0
  7  8  1  0
  8  9  1  0
  9 10  2  0
  9 11  1  0
 11 12  1  0
 12 13  1  1
 13 14  1  0
 14 15  2  0
 15 16  1  0
 16 17  2  0
 17 18  1  0
 18 19  2  0
 12 20  1  0
 20 21  2  0
 20 22  1  0
 22 23  1  0
 23 24  1  0
 23 25  1  0
 23 26  1  0
  7 27  2  0
 27 28  1  0
 28 29  2  0
 29  2  1  0
 29  6  1  0
 19 14  1  0
M  END
>  <energy_score>  (2546) 
-11.118248

>  <alias>  (2546) 
None

>  <HIPPO Pose ID>  (2546) 
75058

>  <smiles>  (2546) 
C[C@H]1CCCn2c(CC(=O)N[C@@H](Cc3ccncc3)C(=O)OC(C)(C)C)cnc21

>  <inchikey>  (2546) 
NRBKXDMFNFQKSE-YJBOKZPZSA-N

>  <distance_score>  (2546) 
1.843296

>  <ref_mols>  (2546) 
Z1495a,Z0800a

>  <ref_pdb>  (2546) 
Z0800a

>  <HIPPO Compound ID>  (2546) 
149233

>  <name>  (2546) 
P75058

>  <inspiration_score>  (2546) 
None

$$$$
P75059
     RDKit          3D

 29 32  0  0  0  0  0  0  0  0999 V2000
   -9.5493    4.9266  -17.2129 C   0  0  0  0  0  0  0  0  0  0  0  0
   -8.5636    5.2994  -18.3077 C   0  0  2  0  0  0  0  0  0  0  0  0
   -8.3477    4.0664  -19.1703 C   0  0  0  0  0  0  0  0  0  0  0  0
   -7.0174    4.1067  -19.8934 C   0  0  0  0  0  0  0  0  0  0  0  0
   -5.8605    4.2879  -18.9477 C   0  0  0  0  0  0  0  0  0  0  0  0
   -6.0483    5.4322  -18.1040 N   0  0  0  0  0  0  0  0  0  0  0  0
   -5.1261    5.9931  -17.2643 C   0  0  0  0  0  0  0  0  0  0  0  0
   -3.7992    5.3918  -16.9011 C   0  0  0  0  0  0  0  0  0  0  0  0
   -3.8458    5.1184  -15.3817 C   0  0  0  0  0  0  0  0  0  0  0  0
   -3.0655    5.5596  -14.6313 O   0  0  0  0  0  0  0  0  0  0  0  0
   -5.1341    4.2823  -15.1222 N   0  0  0  0  0  0  0  0  0  0  0  0
   -5.7667    3.9061  -13.8931 C   0  0  0  0  0  0  0  0  0  0  0  0
   -7.1864    4.5146  -13.8957 C   0  0  0  0  0  0  0  0  0  0  0  0
   -7.6619    4.7810  -12.5042 C   0  0  0  0  0  0  0  0  0  0  0  0
   -7.8081    6.0893  -12.0393 C   0  0  0  0  0  0  0  0  0  0  0  0
   -8.1406    6.2781  -10.7132 C   0  0  0  0  0  0  0  0  0  0  0  0
   -8.3252    5.2682   -9.8448 N   0  0  0  0  0  0  0  0  0  0  0  0
   -8.1812    4.0059  -10.3139 C   0  0  0  0  0  0  0  0  0  0  0  0
   -8.2792    2.8965   -9.4842 O   0  0  0  0  0  0  0  0  0  0  0  0
   -8.5849    3.0601   -8.1579 C   0  0  0  0  0  0  0  0  0  0  0  0
   -9.3881    2.0660   -7.6043 C   0  0  0  0  0  0  0  0  0  0  0  0
   -9.8188    2.1630   -6.2815 C   0  0  0  0  0  0  0  0  0  0  0  0
   -9.4056    3.2335   -5.4908 C   0  0  0  0  0  0  0  0  0  0  0  0
   -8.5340    4.1845   -6.0124 C   0  0  0  0  0  0  0  0  0  0  0  0
   -8.1117    4.0868   -7.3399 C   0  0  0  0  0  0  0  0  0  0  0  0
   -7.8783    3.7187  -11.6299 C   0  0  0  0  0  0  0  0  0  0  0  0
   -5.8276    7.0062  -16.6468 C   0  0  0  0  0  0  0  0  0  0  0  0
   -7.1630    6.9022  -16.9243 N   0  0  0  0  0  0  0  0  0  0  0  0
   -7.2909    5.8884  -17.7553 C   0  0  0  0  0  0  0  0  0  0  0  0
  2  1  1  1
  2  3  1  0
  3  4  1  0
  4  5  1  0
  5  6  1  0
  6  7  1  0
  7  8  1  0
  8  9  1  0
  9 10  2  0
  9 11  1  0
 11 12  1  0
 12 13  1  0
 13 14  1  0
 14 15  2  0
 15 16  1  0
 16 17  2  0
 17 18  1  0
 18 19  1  0
 19 20  1  0
 20 21  2  0
 21 22  1  0
 22 23  2  0
 23 24  1  0
 24 25  2  0
 18 26  2  0
  7 27  2  0
 27 28  1  0
 28 29  2  0
 29  2  1  0
 29  6  1  0
 26 14  1  0
 25 20  1  0
M  END
>  <energy_score>  (2547) 
-9.38086

>  <alias>  (2547) 
None

>  <HIPPO Pose ID>  (2547) 
75059

>  <smiles>  (2547) 
C[C@@H]1CCCn2c(CC(=O)NCCc3ccnc(Oc4ccccc4)c3)cnc21

>  <inchikey>  (2547) 
SWFIDUVFGCFQNX-QGZVFWFLSA-N

>  <distance_score>  (2547) 
1.443046

>  <ref_mols>  (2547) 
Z1495a,Z0800a

>  <ref_pdb>  (2547) 
Z0800a

>  <HIPPO Compound ID>  (2547) 
149234

>  <name>  (2547) 
P75059

>  <inspiration_score>  (2547) 
None

$$$$
P75060
     RDKit          3D

 29 31  0  0  0  0  0  0  0  0999 V2000
   -1.3061    1.4387  -12.9126 C   0  0  0  0  0  0  0  0  0  0  0  0
   -1.1100    2.8987  -12.5357 C   0  0  0  0  0  0  0  0  0  0  0  0
   -2.3715    3.5151  -11.9424 C   0  0  0  0  0  0  0  0  0  0  0  0
   -3.4102    3.5129  -12.9292 O   0  0  0  0  0  0  0  0  0  0  0  0
   -4.5641    4.1243  -12.5121 C   0  0  0  0  0  0  0  0  0  0  0  0
   -4.7282    4.5483  -11.3753 O   0  0  0  0  0  0  0  0  0  0  0  0
   -5.6313    4.0963  -13.6294 C   0  0  1  0  0  0  0  0  0  0  0  0
   -6.8208    5.0806  -13.4758 C   0  0  0  0  0  0  0  0  0  0  0  0
   -7.4815    5.1249  -12.1290 C   0  0  0  0  0  0  0  0  0  0  0  0
   -7.6014    6.3509  -11.4677 C   0  0  0  0  0  0  0  0  0  0  0  0
   -8.0474    6.3592  -10.1600 C   0  0  0  0  0  0  0  0  0  0  0  0
   -8.3851    5.2496   -9.4805 N   0  0  0  0  0  0  0  0  0  0  0  0
   -8.3153    4.0791  -10.1556 C   0  0  0  0  0  0  0  0  0  0  0  0
   -8.7506    2.5150   -9.1953 Br  0  0  0  0  0  0  0  0  0  0  0  0
   -7.9009    3.9665  -11.4744 C   0  0  0  0  0  0  0  0  0  0  0  0
   -5.0446    4.3739  -14.9312 N   0  0  0  0  0  0  0  0  0  0  0  0
   -3.8918    5.3431  -15.3359 C   0  0  0  0  0  0  0  0  0  0  0  0
   -3.1907    6.0043  -14.6735 O   0  0  0  0  0  0  0  0  0  0  0  0
   -3.8748    5.3868  -16.8739 C   0  0  0  0  0  0  0  0  0  0  0  0
   -5.2139    5.9461  -17.2452 C   0  0  0  0  0  0  0  0  0  0  0  0
   -5.9263    6.9675  -16.6531 C   0  0  0  0  0  0  0  0  0  0  0  0
   -7.2591    6.8305  -16.9109 N   0  0  0  0  0  0  0  0  0  0  0  0
   -7.3707    5.8165  -17.7435 C   0  0  0  0  0  0  0  0  0  0  0  0
   -6.1248    5.3663  -18.0776 N   0  0  0  0  0  0  0  0  0  0  0  0
   -5.9364    4.2302  -18.9279 C   0  0  0  0  0  0  0  0  0  0  0  0
   -7.0498    4.1151  -19.9343 C   0  0  0  0  0  0  0  0  0  0  0  0
   -8.4204    4.0823  -19.2875 C   0  0  0  0  0  0  0  0  0  0  0  0
   -8.6350    5.1918  -18.2715 C   0  0  1  0  0  0  0  0  0  0  0  0
   -9.4687    4.6272  -17.1304 C   0  0  0  0  0  0  0  0  0  0  0  0
  1  2  1  0
  2  3  1  0
  3  4  1  0
  4  5  1  0
  5  6  2  0
  5  7  1  0
  7  8  1  1
  8  9  1  0
  9 10  2  0
 10 11  1  0
 11 12  2  0
 12 13  1  0
 13 14  1  0
 13 15  2  0
  7 16  1  0
 16 17  1  0
 17 18  2  0
 17 19  1  0
 19 20  1  0
 20 21  2  0
 21 22  1  0
 22 23  2  0
 23 24  1  0
 24 25  1  0
 25 26  1  0
 26 27  1  0
 27 28  1  0
 28 29  1  1
 15  9  1  0
 24 20  1  0
 28 23  1  0
M  END
>  <energy_score>  (2548) 
-7.523665

>  <alias>  (2548) 
None

>  <HIPPO Pose ID>  (2548) 
75060

>  <smiles>  (2548) 
CCCOC(=O)[C@@H](Cc1ccnc(Br)c1)NC(=O)Cc1cnc2n1CCC[C@H]2C

>  <inchikey>  (2548) 
VWXXUJBYGDMHOO-RHSMWYFYSA-N

>  <distance_score>  (2548) 
1.495001

>  <ref_mols>  (2548) 
Z1495a,Z0800a

>  <ref_pdb>  (2548) 
Z0800a

>  <HIPPO Compound ID>  (2548) 
149235

>  <name>  (2548) 
P75060

>  <inspiration_score>  (2548) 
None

$$$$
P75061
     RDKit          3D

 29 31  0  0  0  0  0  0  0  0999 V2000
   -2.6031    7.9042  -11.4471 C   0  0  0  0  0  0  0  0  0  0  0  0
   -3.4207    6.7923  -10.8176 C   0  0  0  0  0  0  0  0  0  0  0  0
   -4.3725    6.2812  -11.7601 O   0  0  0  0  0  0  0  0  0  0  0  0
   -3.9229    5.2992  -12.5865 C   0  0  0  0  0  0  0  0  0  0  0  0
   -2.7791    4.8520  -12.5748 O   0  0  0  0  0  0  0  0  0  0  0  0
   -4.9937    4.8386  -13.5840 C   0  0  1  0  0  0  0  0  0  0  0  0
   -6.4402    5.4023  -13.4589 C   0  0  0  0  0  0  0  0  0  0  0  0
   -7.1508    5.2866  -12.1316 C   0  0  0  0  0  0  0  0  0  0  0  0
   -7.4761    6.4841  -11.4742 C   0  0  0  0  0  0  0  0  0  0  0  0
   -8.0552    6.4359  -10.2234 C   0  0  0  0  0  0  0  0  0  0  0  0
   -8.3513    5.2905   -9.5926 N   0  0  0  0  0  0  0  0  0  0  0  0
   -8.1010    4.1300  -10.2550 C   0  0  0  0  0  0  0  0  0  0  0  0
   -8.6100    2.5808   -9.2851 Br  0  0  0  0  0  0  0  0  0  0  0  0
   -7.4997    4.0736  -11.5165 C   0  0  0  0  0  0  0  0  0  0  0  0
   -7.1144    2.4245  -12.3694 Br  0  0  0  0  0  0  0  0  0  0  0  0
   -4.5702    5.1251  -14.9418 N   0  0  0  0  0  0  0  0  0  0  0  0
   -3.7185    6.3006  -15.5088 C   0  0  0  0  0  0  0  0  0  0  0  0
   -3.1660    7.1703  -14.9569 O   0  0  0  0  0  0  0  0  0  0  0  0
   -3.8096    6.1884  -17.0466 C   0  0  0  0  0  0  0  0  0  0  0  0
   -5.2761    6.3620  -17.3197 C   0  0  0  0  0  0  0  0  0  0  0  0
   -6.1753    7.1890  -16.6728 C   0  0  0  0  0  0  0  0  0  0  0  0
   -7.4301    6.6492  -16.6959 N   0  0  0  0  0  0  0  0  0  0  0  0
   -7.3463    5.6018  -17.4814 C   0  0  0  0  0  0  0  0  0  0  0  0
   -6.0828    5.5092  -18.0053 N   0  0  0  0  0  0  0  0  0  0  0  0
   -5.7436    4.4331  -18.8940 C   0  0  0  0  0  0  0  0  0  0  0  0
   -6.9103    4.1617  -19.8251 C   0  0  0  0  0  0  0  0  0  0  0  0
   -8.2988    4.0703  -19.1888 C   0  0  0  0  0  0  0  0  0  0  0  0
   -8.3259    4.5028  -17.7365 C   0  0  2  0  0  0  0  0  0  0  0  0
   -9.7409    4.8283  -17.3397 C   0  0  0  0  0  0  0  0  0  0  0  0
  1  2  1  0
  2  3  1  0
  3  4  1  0
  4  5  2  0
  4  6  1  0
  6  7  1  1
  7  8  1  0
  8  9  2  0
  9 10  1  0
 10 11  2  0
 11 12  1  0
 12 13  1  0
 12 14  2  0
 14 15  1  0
  6 16  1  0
 16 17  1  0
 17 18  2  0
 17 19  1  0
 19 20  1  0
 20 21  2  0
 21 22  1  0
 22 23  2  0
 23 24  1  0
 24 25  1  0
 25 26  1  0
 26 27  1  0
 27 28  1  0
 28 29  1  6
 14  8  1  0
 24 20  1  0
 28 23  1  0
M  END
>  <energy_score>  (2549) 
-20.748957

>  <alias>  (2549) 
None

>  <HIPPO Pose ID>  (2549) 
75061

>  <smiles>  (2549) 
CCOC(=O)[C@@H](Cc1ccnc(Br)c1Br)NC(=O)Cc1cnc2n1CCC[C@@H]2C

>  <inchikey>  (2549) 
KJSDDJNWVIYEQN-SWLSCSKDSA-N

>  <distance_score>  (2549) 
1.608493

>  <ref_mols>  (2549) 
Z1495a,Z0800a

>  <ref_pdb>  (2549) 
Z0800a

>  <HIPPO Compound ID>  (2549) 
149236

>  <name>  (2549) 
P75061

>  <inspiration_score>  (2549) 
None

$$$$
P75063
     RDKit          3D

 29 31  0  0  0  0  0  0  0  0999 V2000
  -10.2805    4.6418  -18.9235 C   0  0  0  0  0  0  0  0  0  0  0  0
   -8.9493    4.8195  -18.2508 C   0  0  0  0  0  0  0  0  0  0  0  0
   -9.1686    5.0041  -16.7630 C   0  0  0  0  0  0  0  0  0  0  0  0
   -8.0321    5.6566  -16.2135 O   0  0  0  0  0  0  0  0  0  0  0  0
   -7.1050    4.8260  -15.6848 C   0  0  0  0  0  0  0  0  0  0  0  0
   -7.1529    3.6069  -15.6474 O   0  0  0  0  0  0  0  0  0  0  0  0
   -5.9678    5.6531  -15.1266 C   0  0  2  0  0  0  0  0  0  0  0  0
   -4.7128    5.3501  -15.9430 C   0  0  0  0  0  0  0  0  0  0  0  0
   -4.8029    6.0063  -17.3024 C   0  0  0  0  0  0  0  0  0  0  0  0
   -5.4344    5.3644  -18.3696 C   0  0  0  0  0  0  0  0  0  0  0  0
   -5.6528    6.0840  -19.5295 C   0  0  0  0  0  0  0  0  0  0  0  0
   -5.2471    7.3636  -19.7144 N   0  0  0  0  0  0  0  0  0  0  0  0
   -4.6088    7.9530  -18.6867 C   0  0  0  0  0  0  0  0  0  0  0  0
   -4.0652    9.7558  -18.9096 Br  0  0  0  0  0  0  0  0  0  0  0  0
   -4.3703    7.3266  -17.4729 C   0  0  0  0  0  0  0  0  0  0  0  0
   -5.9235    5.3076  -13.7276 N   0  0  0  0  0  0  0  0  0  0  0  0
   -7.0741    5.1382  -12.6920 C   0  0  0  0  0  0  0  0  0  0  0  0
   -8.2326    5.1775  -12.8355 O   0  0  0  0  0  0  0  0  0  0  0  0
   -6.3930    5.0009  -11.3195 C   0  0  1  0  0  0  0  0  0  0  0  0
   -6.0697    6.4457  -10.8549 C   0  0  0  0  0  0  0  0  0  0  0  0
   -7.3391    7.2408  -10.4860 C   0  0  0  0  0  0  0  0  0  0  0  0
   -8.1761    6.5702   -9.3889 C   0  0  0  0  0  0  0  0  0  0  0  0
   -8.1191    5.0940   -9.4646 C   0  0  0  0  0  0  0  0  0  0  0  0
   -8.7250    4.2740   -8.5646 N   0  0  0  0  0  0  0  0  0  0  0  0
   -8.2802    3.0623   -8.8283 C   0  0  0  0  0  0  0  0  0  0  0  0
   -8.6499    1.8481   -8.0611 C   0  0  0  0  0  0  0  0  0  0  0  0
   -7.3765    3.0949   -9.8699 N   0  0  0  0  0  0  0  0  0  0  0  0
   -6.5538    2.0079  -10.3370 C   0  0  0  0  0  0  0  0  0  0  0  0
   -7.2963    4.3900  -10.3077 C   0  0  0  0  0  0  0  0  0  0  0  0
  1  2  1  0
  2  3  1  0
  3  4  1  0
  4  5  1  0
  5  6  2  0
  5  7  1  0
  7  8  1  6
  8  9  1  0
  9 10  2  0
 10 11  1  0
 11 12  2  0
 12 13  1  0
 13 14  1  0
 13 15  2  0
  7 16  1  0
 16 17  1  0
 17 18  2  0
 19 17  1  6
 19 20  1  0
 20 21  1  0
 21 22  1  0
 22 23  1  0
 23 24  1  0
 24 25  2  0
 25 26  1  0
 25 27  1  0
 27 28  1  0
 27 29  1  0
 15  9  1  0
 29 19  1  0
 29 23  2  0
M  END
>  <energy_score>  (2550) 
-7.904331

>  <alias>  (2550) 
None

>  <HIPPO Pose ID>  (2550) 
75063

>  <smiles>  (2550) 
CCCOC(=O)[C@H](Cc1ccnc(Br)c1)NC(=O)[C@H]1CCCc2nc(C)n(C)c21

>  <inchikey>  (2550) 
HGESCNPWZZHSRO-RDJZCZTQSA-N

>  <distance_score>  (2550) 
1.933681

>  <ref_mols>  (2550) 
Z1495a,Z0800a

>  <ref_pdb>  (2550) 
Z0800a

>  <HIPPO Compound ID>  (2550) 
149240

>  <name>  (2550) 
P75063

>  <inspiration_score>  (2550) 
None

$$$$
P75064
     RDKit          3D

 29 31  0  0  0  0  0  0  0  0999 V2000
  -10.0747   10.3246  -11.3255 C   0  0  0  0  0  0  0  0  0  0  0  0
   -9.0598    9.2242  -11.5799 C   0  0  0  0  0  0  0  0  0  0  0  0
   -8.8779    8.9532  -13.0671 C   0  0  0  0  0  0  0  0  0  0  0  0
   -7.9022    7.9129  -13.2675 O   0  0  0  0  0  0  0  0  0  0  0  0
   -8.3752    6.6893  -13.6507 C   0  0  0  0  0  0  0  0  0  0  0  0
   -9.5468    6.4419  -13.9161 O   0  0  0  0  0  0  0  0  0  0  0  0
   -7.2515    5.6444  -13.7155 C   0  0  2  0  0  0  0  0  0  0  0  0
   -6.4357    5.5948  -12.4496 C   0  0  0  0  0  0  0  0  0  0  0  0
   -7.2239    5.3921  -11.2010 C   0  0  0  0  0  0  0  0  0  0  0  0
   -7.3436    6.4484  -10.3008 C   0  0  0  0  0  0  0  0  0  0  0  0
   -7.9620    6.2151   -9.0948 C   0  0  0  0  0  0  0  0  0  0  0  0
   -8.4357    5.0145   -8.7297 N   0  0  0  0  0  0  0  0  0  0  0  0
   -8.3300    4.0070   -9.6267 C   0  0  0  0  0  0  0  0  0  0  0  0
   -8.9152    2.3138   -9.0621 Br  0  0  0  0  0  0  0  0  0  0  0  0
   -7.7565    4.1461  -10.8761 C   0  0  0  0  0  0  0  0  0  0  0  0
   -6.3339    5.8236  -14.8193 N   0  0  0  0  0  0  0  0  0  0  0  0
   -5.0232    5.0608  -15.1791 C   0  0  0  0  0  0  0  0  0  0  0  0
   -4.4481    4.2254  -14.5955 O   0  0  0  0  0  0  0  0  0  0  0  0
   -4.5341    5.5140  -16.5548 C   0  0  0  0  0  0  0  0  0  0  0  0
   -5.6395    5.8994  -17.4655 C   0  0  0  0  0  0  0  0  0  0  0  0
   -5.8422    7.0623  -18.1777 C   0  0  0  0  0  0  0  0  0  0  0  0
   -4.9659    8.2471  -18.3079 C   0  0  0  0  0  0  0  0  0  0  0  0
   -7.0726    7.0456  -18.7812 N   0  0  0  0  0  0  0  0  0  0  0  0
   -7.5891    5.8640  -18.5317 C   0  0  0  0  0  0  0  0  0  0  0  0
   -6.7682    5.1709  -17.7027 N   0  0  0  0  0  0  0  0  0  0  0  0
   -7.2463    3.9148  -17.1955 C   0  0  0  0  0  0  0  0  0  0  0  0
   -8.7099    3.9752  -16.7543 C   0  0  0  0  0  0  0  0  0  0  0  0
   -9.6281    4.6293  -17.7757 C   0  0  0  0  0  0  0  0  0  0  0  0
   -8.8691    5.2076  -18.9535 C   0  0  0  0  0  0  0  0  0  0  0  0
  1  2  1  0
  2  3  1  0
  3  4  1  0
  4  5  1  0
  5  6  2  0
  5  7  1  0
  7  8  1  1
  8  9  1  0
  9 10  2  0
 10 11  1  0
 11 12  2  0
 12 13  1  0
 13 14  1  0
 13 15  2  0
  7 16  1  0
 16 17  1  0
 17 18  2  0
 17 19  1  0
 19 20  1  0
 20 21  2  0
 21 22  1  0
 21 23  1  0
 23 24  2  0
 24 25  1  0
 25 26  1  0
 26 27  1  0
 27 28  1  0
 28 29  1  0
 15  9  1  0
 25 20  1  0
 29 24  1  0
M  END
>  <energy_score>  (2551) 
-9.814531

>  <alias>  (2551) 
None

>  <HIPPO Pose ID>  (2551) 
75064

>  <smiles>  (2551) 
CCCOC(=O)[C@H](Cc1ccnc(Br)c1)NC(=O)Cc1c(C)nc2n1CCCC2

>  <inchikey>  (2551) 
ANFVTGKMSIFFOZ-INIZCTEOSA-N

>  <distance_score>  (2551) 
1.88465

>  <ref_mols>  (2551) 
Z0800a,Z1495a

>  <ref_pdb>  (2551) 
Z0800a

>  <HIPPO Compound ID>  (2551) 
149241

>  <name>  (2551) 
P75064

>  <inspiration_score>  (2551) 
None

$$$$
P75065
     RDKit          3D

 29 31  0  0  0  0  0  0  0  0999 V2000
   -3.6407    1.2584  -10.7690 C   0  0  0  0  0  0  0  0  0  0  0  0
   -5.0647    1.7741  -10.6760 C   0  0  0  0  0  0  0  0  0  0  0  0
   -5.5522    2.2034  -11.9589 O   0  0  0  0  0  0  0  0  0  0  0  0
   -5.1756    3.4505  -12.3665 C   0  0  0  0  0  0  0  0  0  0  0  0
   -4.3599    4.1672  -11.7989 O   0  0  0  0  0  0  0  0  0  0  0  0
   -5.9089    3.8024  -13.6717 C   0  0  1  0  0  0  0  0  0  0  0  0
   -7.2918    4.4840  -13.5105 C   0  0  0  0  0  0  0  0  0  0  0  0
   -7.7109    4.7421  -12.0939 C   0  0  0  0  0  0  0  0  0  0  0  0
   -8.2508    3.7069  -11.3273 C   0  0  0  0  0  0  0  0  0  0  0  0
   -8.4890    3.9356   -9.9846 C   0  0  0  0  0  0  0  0  0  0  0  0
   -8.2515    5.1167   -9.3708 N   0  0  0  0  0  0  0  0  0  0  0  0
   -7.7654    6.1120  -10.1430 C   0  0  0  0  0  0  0  0  0  0  0  0
   -7.4796    5.9774  -11.4908 C   0  0  0  0  0  0  0  0  0  0  0  0
   -5.0028    4.5570  -14.5333 N   0  0  0  0  0  0  0  0  0  0  0  0
   -4.7149    6.0766  -14.6037 C   0  0  0  0  0  0  0  0  0  0  0  0
   -5.2133    6.9681  -14.0376 O   0  0  0  0  0  0  0  0  0  0  0  0
   -3.6148    6.3044  -15.6405 C   0  0  0  0  0  0  0  0  0  0  0  0
   -3.8212    5.6359  -16.9687 C   0  0  0  0  0  0  0  0  0  0  0  0
   -2.8564    5.1014  -17.8000 C   0  0  0  0  0  0  0  0  0  0  0  0
   -3.3939    4.6356  -18.9618 N   0  0  0  0  0  0  0  0  0  0  0  0
   -4.6798    4.8913  -18.8640 C   0  0  0  0  0  0  0  0  0  0  0  0
   -4.9914    5.5140  -17.6814 N   0  0  0  0  0  0  0  0  0  0  0  0
   -6.2611    6.1561  -17.4106 C   0  0  0  0  0  0  0  0  0  0  0  0
   -7.4550    5.3080  -17.6760 C   0  0  0  0  0  0  0  0  0  0  0  0
   -8.3357    5.6713  -18.6772 C   0  0  0  0  0  0  0  0  0  0  0  0
   -9.5552    5.0297  -18.8738 C   0  0  0  0  0  0  0  0  0  0  0  0
   -9.9315    4.0302  -18.0128 C   0  0  0  0  0  0  0  0  0  0  0  0
   -9.0423    3.6380  -17.0272 C   0  0  0  0  0  0  0  0  0  0  0  0
   -7.7962    4.2330  -16.8912 C   0  0  0  0  0  0  0  0  0  0  0  0
  1  2  1  0
  2  3  1  0
  3  4  1  0
  4  5  2  0
  4  6  1  0
  6  7  1  1
  7  8  1  0
  8  9  2  0
  9 10  1  0
 10 11  2  0
 11 12  1  0
 12 13  2  0
  6 14  1  0
 14 15  1  0
 15 16  2  0
 15 17  1  0
 17 18  1  0
 18 19  2  0
 19 20  1  0
 20 21  2  0
 21 22  1  0
 22 23  1  0
 23 24  1  0
 24 25  2  0
 25 26  1  0
 26 27  2  0
 27 28  1  0
 28 29  2  0
 13  8  1  0
 22 18  1  0
 29 24  1  0
M  END
>  <energy_score>  (2552) 
-12.229329

>  <alias>  (2552) 
None

>  <HIPPO Pose ID>  (2552) 
75065

>  <smiles>  (2552) 
CCOC(=O)[C@@H](Cc1ccncc1)NC(=O)Cc1cncn1Cc1ccccc1

>  <inchikey>  (2552) 
YPMWHJJBIRJWEI-HXUWFJFHSA-N

>  <distance_score>  (2552) 
1.717675

>  <ref_mols>  (2552) 
Z1495a,Z0800a

>  <ref_pdb>  (2552) 
Z0800a

>  <HIPPO Compound ID>  (2552) 
149243

>  <name>  (2552) 
P75065

>  <inspiration_score>  (2552) 
None

$$$$
P75066
     RDKit          3D

 30 32  0  0  0  0  0  0  0  0999 V2000
   -5.8426   11.7483  -15.3430 C   0  0  0  0  0  0  0  0  0  0  0  0
   -6.6799   11.1293  -14.2408 C   0  0  0  0  0  0  0  0  0  0  0  0
   -6.4840    9.7093  -14.2771 O   0  0  0  0  0  0  0  0  0  0  0  0
   -7.1612    9.0213  -13.3074 C   0  0  0  0  0  0  0  0  0  0  0  0
   -7.9027    9.5438  -12.4842 O   0  0  0  0  0  0  0  0  0  0  0  0
   -6.8298    7.5222  -13.3470 C   0  0  2  0  0  0  0  0  0  0  0  0
   -5.9144    7.2095  -14.4334 N   0  0  0  0  0  0  0  0  0  0  0  0
   -5.1375    5.9081  -14.7505 C   0  0  0  0  0  0  0  0  0  0  0  0
   -5.1712    4.8630  -14.2339 O   0  0  0  0  0  0  0  0  0  0  0  0
   -4.1427    6.2206  -15.8764 C   0  0  0  0  0  0  0  0  0  0  0  0
   -4.7915    6.8103  -17.0797 C   0  0  0  0  0  0  0  0  0  0  0  0
   -4.7819    8.1134  -17.5399 C   0  0  0  0  0  0  0  0  0  0  0  0
   -5.5179    8.2415  -18.6803 N   0  0  0  0  0  0  0  0  0  0  0  0
   -5.9222    7.0213  -18.9574 C   0  0  0  0  0  0  0  0  0  0  0  0
   -5.5303    6.1169  -18.0020 N   0  0  0  0  0  0  0  0  0  0  0  0
   -5.7705    4.6819  -18.0506 C   0  0  0  0  0  0  0  0  0  0  0  0
   -7.2245    4.3777  -17.9726 C   0  0  0  0  0  0  0  0  0  0  0  0
   -7.9936    4.3847  -19.1335 C   0  0  0  0  0  0  0  0  0  0  0  0
   -9.3763    4.3221  -19.0713 C   0  0  0  0  0  0  0  0  0  0  0  0
   -9.9957    4.1302  -17.8535 C   0  0  0  0  0  0  0  0  0  0  0  0
   -9.2221    4.0023  -16.7058 C   0  0  0  0  0  0  0  0  0  0  0  0
   -7.8436    4.1406  -16.7542 C   0  0  0  0  0  0  0  0  0  0  0  0
   -8.1435    6.6933  -13.2721 C   0  0  1  0  0  0  0  0  0  0  0  0
   -8.5408    6.0578  -14.4767 O   0  0  0  0  0  0  0  0  0  0  0  0
   -8.0967    5.7277  -12.1075 C   0  0  0  0  0  0  0  0  0  0  0  0
   -8.0407    4.3399  -12.2455 C   0  0  0  0  0  0  0  0  0  0  0  0
   -7.9763    3.5652  -11.0945 C   0  0  0  0  0  0  0  0  0  0  0  0
   -7.9467    4.0754   -9.8409 N   0  0  0  0  0  0  0  0  0  0  0  0
   -8.0203    5.4113   -9.7285 C   0  0  0  0  0  0  0  0  0  0  0  0
   -8.0977    6.2649  -10.8109 C   0  0  0  0  0  0  0  0  0  0  0  0
  1  2  1  0
  2  3  1  0
  3  4  1  0
  4  5  2  0
  4  6  1  0
  6  7  1  6
  7  8  1  0
  8  9  2  0
  8 10  1  0
 10 11  1  0
 11 12  2  0
 12 13  1  0
 13 14  2  0
 14 15  1  0
 15 16  1  0
 16 17  1  0
 17 18  2  0
 18 19  1  0
 19 20  2  0
 20 21  1  0
 21 22  2  0
  6 23  1  0
 23 24  1  6
 23 25  1  0
 25 26  2  0
 26 27  1  0
 27 28  2  0
 28 29  1  0
 29 30  2  0
 15 11  1  0
 22 17  1  0
 30 25  1  0
M  END
>  <energy_score>  (2553) 
-32.303537

>  <alias>  (2553) 
None

>  <HIPPO Pose ID>  (2553) 
75066

>  <smiles>  (2553) 
CCOC(=O)[C@H](NC(=O)Cc1cncn1Cc1ccccc1)[C@@H](O)c1ccncc1

>  <inchikey>  (2553) 
WBOYXAQGZSGEDL-RTWAWAEBSA-N

>  <distance_score>  (2553) 
1.633861

>  <ref_mols>  (2553) 
Z1495a,Z0800a

>  <ref_pdb>  (2553) 
Z0800a

>  <HIPPO Compound ID>  (2553) 
149244

>  <name>  (2553) 
P75066

>  <inspiration_score>  (2553) 
None

$$$$
P75067
     RDKit          3D

 30 33  0  0  0  0  0  0  0  0999 V2000
   -8.4867    3.9700  -16.9551 C   0  0  0  0  0  0  0  0  0  0  0  0
   -8.7956    4.6588  -18.2806 C   0  0  0  0  0  0  0  0  0  0  0  0
  -10.2596    5.0902  -18.2107 C   0  0  0  0  0  0  0  0  0  0  0  0
   -8.7064    3.6979  -19.4396 C   0  0  0  0  0  0  0  0  0  0  0  0
   -7.9460    5.8178  -18.4508 O   0  0  0  0  0  0  0  0  0  0  0  0
   -6.6170    5.5945  -18.2831 C   0  0  0  0  0  0  0  0  0  0  0  0
   -5.9785    4.6228  -18.6606 O   0  0  0  0  0  0  0  0  0  0  0  0
   -6.0464    6.5720  -17.5250 N   0  0  0  0  0  0  0  0  0  0  0  0
   -5.3934    7.7470  -18.0198 C   0  0  0  0  0  0  0  0  0  0  0  0
   -3.9431    7.7224  -17.5192 C   0  0  0  0  0  0  0  0  0  0  0  0
   -3.7768    7.2845  -16.0741 C   0  0  0  0  0  0  0  0  0  0  0  0
   -2.5451    7.4179  -15.4379 C   0  0  0  0  0  0  0  0  0  0  0  0
   -2.3895    6.8422  -14.1889 C   0  0  0  0  0  0  0  0  0  0  0  0
   -3.3557    6.1500  -13.5451 N   0  0  0  0  0  0  0  0  0  0  0  0
   -4.5652    6.0586  -14.1390 C   0  0  0  0  0  0  0  0  0  0  0  0
   -5.4620    5.2533  -13.4426 N   0  0  0  0  0  0  0  0  0  0  0  0
   -7.0269    5.2421  -13.4403 C   0  0  0  0  0  0  0  0  0  0  0  0
   -7.7917    5.8569  -14.0821 O   0  0  0  0  0  0  0  0  0  0  0  0
   -7.4783    4.1551  -12.4787 C   0  0  0  0  0  0  0  0  0  0  0  0
   -7.7312    4.7321  -11.1440 C   0  0  0  0  0  0  0  0  0  0  0  0
   -7.7345    6.0309  -10.6739 C   0  0  0  0  0  0  0  0  0  0  0  0
   -7.9758    6.0668   -9.3262 N   0  0  0  0  0  0  0  0  0  0  0  0
   -8.1594    4.8107   -8.9705 C   0  0  0  0  0  0  0  0  0  0  0  0
   -8.0633    3.9801  -10.0527 N   0  0  0  0  0  0  0  0  0  0  0  0
   -8.3274    2.5583   -9.9779 C   0  0  0  0  0  0  0  0  0  0  0  0
   -8.3526    2.0799   -8.5311 C   0  0  0  0  0  0  0  0  0  0  0  0
   -9.0865    2.9948   -7.7105 O   0  0  0  0  0  0  0  0  0  0  0  0
   -8.4090    4.2586   -7.6096 C   0  0  0  0  0  0  0  0  0  0  0  0
   -4.8133    6.6003  -15.4052 C   0  0  0  0  0  0  0  0  0  0  0  0
   -6.1141    6.3931  -16.1048 C   0  0  0  0  0  0  0  0  0  0  0  0
  1  2  1  0
  2  3  1  0
  2  4  1  0
  2  5  1  0
  5  6  1  0
  6  7  2  0
  6  8  1  0
  8  9  1  0
  9 10  1  0
 10 11  1  0
 11 12  2  0
 12 13  1  0
 13 14  2  0
 14 15  1  0
 15 16  1  0
 16 17  1  0
 17 18  2  0
 17 19  1  0
 19 20  1  0
 20 21  2  0
 21 22  1  0
 22 23  2  0
 23 24  1  0
 24 25  1  0
 25 26  1  0
 26 27  1  0
 27 28  1  0
 15 29  2  0
 29 30  1  0
 30  8  1  0
 29 11  1  0
 24 20  1  0
 28 23  1  0
M  END
>  <energy_score>  (2554) 
-18.211291

>  <alias>  (2554) 
None

>  <HIPPO Pose ID>  (2554) 
75067

>  <smiles>  (2554) 
CC(C)(C)OC(=O)N1CCc2ccnc(NC(=O)Cc3cnc4n3CCOC4)c2C1

>  <inchikey>  (2554) 
VQHHRFIDSUUYEV-UHFFFAOYSA-N

>  <distance_score>  (2554) 
1.930217

>  <ref_mols>  (2554) 
Z1495a,Z0800a

>  <ref_pdb>  (2554) 
Z0800a

>  <HIPPO Compound ID>  (2554) 
149246

>  <name>  (2554) 
P75067

>  <inspiration_score>  (2554) 
None

$$$$
P75068
     RDKit          3D

 30 33  0  0  0  0  0  0  0  0999 V2000
   -9.6534    4.8897  -17.3493 C   0  0  0  0  0  0  0  0  0  0  0  0
   -8.4608    5.3005  -18.1941 C   0  0  2  0  0  0  0  0  0  0  0  0
   -8.0027    4.0953  -18.9833 C   0  0  0  0  0  0  0  0  0  0  0  0
   -6.6416    4.3471  -19.6049 C   0  0  0  0  0  0  0  0  0  0  0  0
   -5.5689    4.6369  -18.5779 C   0  0  0  0  0  0  0  0  0  0  0  0
   -6.0222    5.5879  -17.5969 N   0  0  0  0  0  0  0  0  0  0  0  0
   -5.2747    6.2096  -16.6321 C   0  0  0  0  0  0  0  0  0  0  0  0
   -3.8870    5.8331  -16.2320 C   0  0  0  0  0  0  0  0  0  0  0  0
   -3.9396    4.4650  -15.5211 C   0  0  0  0  0  0  0  0  0  0  0  0
   -3.2784    3.5627  -15.8582 O   0  0  0  0  0  0  0  0  0  0  0  0
   -5.0513    4.5492  -14.4389 N   0  0  0  0  0  0  0  0  0  0  0  0
   -5.6400    3.5193  -13.6195 C   0  0  2  0  0  0  0  0  0  0  0  0
   -7.1772    3.7510  -13.5046 C   0  0  0  0  0  0  0  0  0  0  0  0
   -7.6328    4.4548  -12.2562 C   0  0  0  0  0  0  0  0  0  0  0  0
   -7.6761    5.8443  -12.1551 C   0  0  0  0  0  0  0  0  0  0  0  0
   -7.9879    6.4003  -10.9234 C   0  0  0  0  0  0  0  0  0  0  0  0
   -8.2604    5.6811   -9.8141 N   0  0  0  0  0  0  0  0  0  0  0  0
   -8.2524    4.3371   -9.9489 C   0  0  0  0  0  0  0  0  0  0  0  0
   -7.9561    3.6888  -11.1320 C   0  0  0  0  0  0  0  0  0  0  0  0
   -4.8401    3.3184  -12.3453 C   0  0  0  0  0  0  0  0  0  0  0  0
   -4.5997    2.0256  -11.8576 C   0  0  0  0  0  0  0  0  0  0  0  0
   -3.8014    1.8201  -10.7265 C   0  0  0  0  0  0  0  0  0  0  0  0
   -3.2348    2.9081  -10.0596 C   0  0  0  0  0  0  0  0  0  0  0  0
   -2.1874    2.5956   -8.7202 Cl  0  0  0  0  0  0  0  0  0  0  0  0
   -3.4964    4.2052  -10.5087 C   0  0  0  0  0  0  0  0  0  0  0  0
   -2.8363    5.6072   -9.7392 Cl  0  0  0  0  0  0  0  0  0  0  0  0
   -4.2958    4.4055  -11.6393 C   0  0  0  0  0  0  0  0  0  0  0  0
   -6.1637    7.0617  -16.0210 C   0  0  0  0  0  0  0  0  0  0  0  0
   -7.4365    6.7976  -16.4267 N   0  0  0  0  0  0  0  0  0  0  0  0
   -7.3422    5.8873  -17.3747 C   0  0  0  0  0  0  0  0  0  0  0  0
  2  1  1  1
  2  3  1  0
  3  4  1  0
  4  5  1  0
  5  6  1  0
  6  7  1  0
  7  8  1  0
  8  9  1  0
  9 10  2  0
  9 11  1  0
 11 12  1  0
 12 13  1  1
 13 14  1  0
 14 15  2  0
 15 16  1  0
 16 17  2  0
 17 18  1  0
 18 19  2  0
 12 20  1  0
 20 21  2  0
 21 22  1  0
 22 23  2  0
 23 24  1  0
 23 25  1  0
 25 26  1  0
 25 27  2  0
  7 28  2  0
 28 29  1  0
 29 30  2  0
 30  2  1  0
 30  6  1  0
 19 14  1  0
 27 20  1  0
M  END
>  <energy_score>  (2555) 
-16.997056

>  <alias>  (2555) 
None

>  <HIPPO Pose ID>  (2555) 
75068

>  <smiles>  (2555) 
C[C@@H]1CCCn2c(CC(=O)N[C@H](Cc3ccncc3)c3ccc(Cl)c(Cl)c3)cnc21

>  <inchikey>  (2555) 
XSVIYYJAVXUIIU-QVKFZJNVSA-N

>  <distance_score>  (2555) 
1.767998

>  <ref_mols>  (2555) 
Z1495a,Z0800a

>  <ref_pdb>  (2555) 
Z0800a

>  <HIPPO Compound ID>  (2555) 
149249

>  <name>  (2555) 
P75068

>  <inspiration_score>  (2555) 
None

$$$$
P75070
     RDKit          3D

 30 32  0  0  0  0  0  0  0  0999 V2000
   -4.3735    3.1596  -12.0116 C   0  0  0  0  0  0  0  0  0  0  0  0
   -4.9352    4.4485  -12.2717 O   0  0  0  0  0  0  0  0  0  0  0  0
   -5.3664    4.6162  -13.5534 C   0  0  0  0  0  0  0  0  0  0  0  0
   -5.2413    3.7880  -14.4480 O   0  0  0  0  0  0  0  0  0  0  0  0
   -6.0655    5.9688  -13.7205 C   0  0  2  0  0  0  0  0  0  0  0  0
   -7.5713    5.8601  -13.4426 C   0  0  0  0  0  0  0  0  0  0  0  0
   -7.8761    5.4595  -12.0291 C   0  0  0  0  0  0  0  0  0  0  0  0
   -8.1836    4.1369  -11.6989 C   0  0  0  0  0  0  0  0  0  0  0  0
   -8.3684    3.8170  -10.3627 C   0  0  0  0  0  0  0  0  0  0  0  0
   -8.6655    2.5511  -10.0479 F   0  0  0  0  0  0  0  0  0  0  0  0
   -8.2637    4.6997   -9.3502 N   0  0  0  0  0  0  0  0  0  0  0  0
   -7.9886    5.9668   -9.7000 C   0  0  0  0  0  0  0  0  0  0  0  0
   -7.8876    6.8688   -8.7130 F   0  0  0  0  0  0  0  0  0  0  0  0
   -7.7897    6.3959  -11.0006 C   0  0  0  0  0  0  0  0  0  0  0  0
   -5.8648    6.4149  -15.0833 N   0  0  0  0  0  0  0  0  0  0  0  0
   -5.7652    7.8416  -15.6678 C   0  0  0  0  0  0  0  0  0  0  0  0
   -5.7523    8.8787  -15.1330 O   0  0  0  0  0  0  0  0  0  0  0  0
   -5.7900    7.7353  -17.2025 C   0  0  0  0  0  0  0  0  0  0  0  0
   -4.9209    6.6674  -17.7581 C   0  0  0  0  0  0  0  0  0  0  0  0
   -3.5848    6.3985  -17.5446 C   0  0  0  0  0  0  0  0  0  0  0  0
   -3.1734    5.3137  -18.2619 N   0  0  0  0  0  0  0  0  0  0  0  0
   -4.2463    4.9154  -18.8996 C   0  0  0  0  0  0  0  0  0  0  0  0
   -5.3315    5.6932  -18.6325 N   0  0  0  0  0  0  0  0  0  0  0  0
   -6.6362    5.5023  -19.2511 C   0  0  0  0  0  0  0  0  0  0  0  0
   -7.6442    4.9002  -18.3275 C   0  0  0  0  0  0  0  0  0  0  0  0
   -7.2430    4.1977  -17.1954 C   0  0  0  0  0  0  0  0  0  0  0  0
   -8.1618    3.7636  -16.2777 C   0  0  0  0  0  0  0  0  0  0  0  0
   -9.4942    3.9581  -16.5444 C   0  0  0  0  0  0  0  0  0  0  0  0
   -9.9413    4.5530  -17.7104 C   0  0  0  0  0  0  0  0  0  0  0  0
   -9.0087    5.0289  -18.6010 C   0  0  0  0  0  0  0  0  0  0  0  0
  1  2  1  0
  2  3  1  0
  3  4  2  0
  3  5  1  0
  5  6  1  6
  6  7  1  0
  7  8  2  0
  8  9  1  0
  9 10  1  0
  9 11  2  0
 11 12  1  0
 12 13  1  0
 12 14  2  0
  5 15  1  0
 15 16  1  0
 16 17  2  0
 16 18  1  0
 18 19  1  0
 19 20  2  0
 20 21  1  0
 21 22  2  0
 22 23  1  0
 23 24  1  0
 24 25  1  0
 25 26  2  0
 26 27  1  0
 27 28  2  0
 28 29  1  0
 29 30  2  0
 14  7  1  0
 23 19  1  0
 30 25  1  0
M  END
>  <energy_score>  (2556) 
-17.219346

>  <alias>  (2556) 
None

>  <HIPPO Pose ID>  (2556) 
75070

>  <smiles>  (2556) 
COC(=O)[C@H](Cc1cc(F)nc(F)c1)NC(=O)Cc1cncn1Cc1ccccc1

>  <inchikey>  (2556) 
JPWXAKMKXVPGNV-KRWDZBQOSA-N

>  <distance_score>  (2556) 
1.616876

>  <ref_mols>  (2556) 
Z1495a,Z0800a

>  <ref_pdb>  (2556) 
Z0800a

>  <HIPPO Compound ID>  (2556) 
149250

>  <name>  (2556) 
P75070

>  <inspiration_score>  (2556) 
None

$$$$
P75071
     RDKit          3D

 30 32  0  0  0  0  0  0  0  0999 V2000
   -4.5993    8.1615   -9.0506 C   0  0  0  0  0  0  0  0  0  0  0  0
   -3.5344    7.6623  -10.0076 C   0  0  0  0  0  0  0  0  0  0  0  0
   -4.0737    6.6622  -10.8841 O   0  0  0  0  0  0  0  0  0  0  0  0
   -4.6438    7.1108  -12.0346 C   0  0  0  0  0  0  0  0  0  0  0  0
   -4.7987    8.2899  -12.3395 O   0  0  0  0  0  0  0  0  0  0  0  0
   -5.0684    5.9455  -12.9206 C   0  0  1  0  0  0  0  0  0  0  0  0
   -6.5968    5.7469  -12.9939 C   0  0  0  0  0  0  0  0  0  0  0  0
   -7.2922    5.4968  -11.6961 C   0  0  0  0  0  0  0  0  0  0  0  0
   -7.5038    6.5506  -10.8064 C   0  0  0  0  0  0  0  0  0  0  0  0
   -8.0591    6.2775   -9.5755 C   0  0  0  0  0  0  0  0  0  0  0  0
   -8.4593    5.0534   -9.2011 N   0  0  0  0  0  0  0  0  0  0  0  0
   -8.3490    4.0421  -10.1148 C   0  0  0  0  0  0  0  0  0  0  0  0
   -8.9375    2.7184   -9.8574 N   0  0  0  0  0  0  0  0  0  0  0  0
   -9.4082    2.1197  -10.8367 O   0  0  0  0  0  0  0  0  0  0  0  0
   -8.9689    2.3375   -8.6791 O   0  0  0  0  0  0  0  0  0  0  0  0
   -7.7504    4.2223  -11.3608 C   0  0  0  0  0  0  0  0  0  0  0  0
   -4.6449    6.2801  -14.2665 N   0  0  0  0  0  0  0  0  0  0  0  0
   -3.8751    5.4431  -15.3142 C   0  0  0  0  0  0  0  0  0  0  0  0
   -3.3952    4.3841  -15.2302 O   0  0  0  0  0  0  0  0  0  0  0  0
   -3.9346    6.2505  -16.6241 C   0  0  0  0  0  0  0  0  0  0  0  0
   -4.9736    5.6216  -17.4919 C   0  0  0  0  0  0  0  0  0  0  0  0
   -4.8043    4.8460  -18.6137 C   0  0  0  0  0  0  0  0  0  0  0  0
   -5.9811    4.2919  -19.0165 N   0  0  0  0  0  0  0  0  0  0  0  0
   -6.8874    4.6947  -18.1639 C   0  0  0  0  0  0  0  0  0  0  0  0
   -6.3345    5.6046  -17.3045 N   0  0  0  0  0  0  0  0  0  0  0  0
   -7.1657    6.3858  -16.4282 C   0  0  0  0  0  0  0  0  0  0  0  0
   -8.4013    5.6277  -15.9432 C   0  0  0  0  0  0  0  0  0  0  0  0
   -9.1640    4.9874  -17.0942 C   0  0  0  0  0  0  0  0  0  0  0  0
   -8.2552    4.1359  -17.9599 C   0  0  1  0  0  0  0  0  0  0  0  0
   -8.9801    3.7926  -19.2331 C   0  0  0  0  0  0  0  0  0  0  0  0
  1  2  1  0
  2  3  1  0
  3  4  1  0
  4  5  2  0
  4  6  1  0
  6  7  1  6
  7  8  1  0
  8  9  2  0
  9 10  1  0
 10 11  2  0
 11 12  1  0
 12 13  1  0
 13 14  2  0
 13 15  1  0
 12 16  2  0
  6 17  1  0
 17 18  1  0
 18 19  2  0
 18 20  1  0
 20 21  1  0
 21 22  2  0
 22 23  1  0
 23 24  2  0
 24 25  1  0
 25 26  1  0
 26 27  1  0
 27 28  1  0
 28 29  1  0
 29 30  1  6
 16  8  1  0
 25 21  1  0
 29 24  1  0
M  CHG  2  13   1  15  -1
M  END
>  <energy_score>  (2557) 
-19.65079

>  <alias>  (2557) 
None

>  <HIPPO Pose ID>  (2557) 
75071

>  <smiles>  (2557) 
CCOC(=O)[C@@H](Cc1ccnc([N+](=O)[O-])c1)NC(=O)Cc1cnc2n1CCC[C@H]2C

>  <inchikey>  (2557) 
PFCXVLISRCCTNY-CZUORRHYSA-N

>  <distance_score>  (2557) 
1.740936

>  <ref_mols>  (2557) 
Z1495a,Z0800a

>  <ref_pdb>  (2557) 
Z0800a

>  <HIPPO Compound ID>  (2557) 
149254

>  <name>  (2557) 
P75071

>  <inspiration_score>  (2557) 
None

$$$$
P75073
     RDKit          3D

 30 32  0  0  0  0  0  0  0  0999 V2000
   -2.8480    7.0757  -11.5468 C   0  0  0  0  0  0  0  0  0  0  0  0
   -4.2368    7.4020  -11.0314 C   0  0  0  0  0  0  0  0  0  0  0  0
   -4.9435    8.2366  -11.9723 O   0  0  0  0  0  0  0  0  0  0  0  0
   -5.4901    7.7958  -13.1303 C   0  0  0  0  0  0  0  0  0  0  0  0
   -5.8223    8.6040  -13.9993 O   0  0  0  0  0  0  0  0  0  0  0  0
   -5.7139    6.2984  -13.3222 C   0  0  1  0  0  0  0  0  0  0  0  0
   -7.2106    5.9445  -13.2738 C   0  0  0  0  0  0  0  0  0  0  0  0
   -7.6920    5.6891  -11.8770 C   0  0  0  0  0  0  0  0  0  0  0  0
   -7.7905    6.7251  -10.9519 C   0  0  0  0  0  0  0  0  0  0  0  0
   -8.1147    6.4114   -9.6479 C   0  0  0  0  0  0  0  0  0  0  0  0
   -8.3935    5.1656   -9.2259 N   0  0  0  0  0  0  0  0  0  0  0  0
   -8.3935    4.1636  -10.1560 C   0  0  0  0  0  0  0  0  0  0  0  0
   -8.8856    2.8097   -9.8304 N   0  0  0  0  0  0  0  0  0  0  0  0
   -9.3676    2.1503  -10.7640 O   0  0  0  0  0  0  0  0  0  0  0  0
   -8.8365    2.4641   -8.6417 O   0  0  0  0  0  0  0  0  0  0  0  0
   -8.0182    4.3869  -11.4794 C   0  0  0  0  0  0  0  0  0  0  0  0
   -5.1873    5.9472  -14.6225 N   0  0  0  0  0  0  0  0  0  0  0  0
   -4.6300    4.6063  -15.1504 C   0  0  0  0  0  0  0  0  0  0  0  0
   -4.4375    3.5985  -14.5975 O   0  0  0  0  0  0  0  0  0  0  0  0
   -4.3219    4.7912  -16.6273 C   0  0  0  0  0  0  0  0  0  0  0  0
   -5.4609    5.3363  -17.4219 C   0  0  0  0  0  0  0  0  0  0  0  0
   -5.4793    6.4334  -18.2624 C   0  0  0  0  0  0  0  0  0  0  0  0
   -4.3904    7.3802  -18.5919 C   0  0  0  0  0  0  0  0  0  0  0  0
   -6.7129    6.5914  -18.8278 N   0  0  0  0  0  0  0  0  0  0  0  0
   -7.4228    5.5568  -18.4431 C   0  0  0  0  0  0  0  0  0  0  0  0
   -6.7523    4.8586  -17.4757 N   0  0  0  0  0  0  0  0  0  0  0  0
   -7.5105    4.1438  -16.4725 C   0  0  0  0  0  0  0  0  0  0  0  0
   -8.8813    3.6476  -16.9295 C   0  0  0  0  0  0  0  0  0  0  0  0
   -9.6417    4.7125  -17.6828 C   0  0  0  0  0  0  0  0  0  0  0  0
   -8.7996    5.1586  -18.8559 C   0  0  0  0  0  0  0  0  0  0  0  0
  1  2  1  0
  2  3  1  0
  3  4  1  0
  4  5  2  0
  4  6  1  0
  6  7  1  6
  7  8  1  0
  8  9  2  0
  9 10  1  0
 10 11  2  0
 11 12  1  0
 12 13  1  0
 13 14  2  0
 13 15  1  0
 12 16  2  0
  6 17  1  0
 17 18  1  0
 18 19  2  0
 18 20  1  0
 20 21  1  0
 21 22  2  0
 22 23  1  0
 22 24  1  0
 24 25  2  0
 25 26  1  0
 26 27  1  0
 27 28  1  0
 28 29  1  0
 29 30  1  0
 16  8  1  0
 26 21  1  0
 30 25  1  0
M  CHG  2  13   1  15  -1
M  END
>  <energy_score>  (2558) 
-18.682849

>  <alias>  (2558) 
None

>  <HIPPO Pose ID>  (2558) 
75073

>  <smiles>  (2558) 
CCOC(=O)[C@@H](Cc1ccnc([N+](=O)[O-])c1)NC(=O)Cc1c(C)nc2n1CCCC2

>  <inchikey>  (2558) 
NPZSQAYTJBCAEI-OAHLLOKOSA-N

>  <distance_score>  (2558) 
1.456287

>  <ref_mols>  (2558) 
Z0800a,Z1495a

>  <ref_pdb>  (2558) 
Z0800a

>  <HIPPO Compound ID>  (2558) 
149255

>  <name>  (2558) 
P75073

>  <inspiration_score>  (2558) 
None

$$$$
P75074
     RDKit          3D

 31 33  0  0  0  0  0  0  0  0999 V2000
   -2.8785    7.4672  -10.6108 C   0  0  0  0  0  0  0  0  0  0  0  0
   -3.4916    6.0761  -10.5375 C   0  0  0  0  0  0  0  0  0  0  0  0
   -3.8769    5.5376  -11.9113 C   0  0  0  0  0  0  0  0  0  0  0  0
   -4.8863    6.3838  -12.4761 O   0  0  0  0  0  0  0  0  0  0  0  0
   -5.4173    5.9243  -13.6455 C   0  0  0  0  0  0  0  0  0  0  0  0
   -5.0596    4.9049  -14.2237 O   0  0  0  0  0  0  0  0  0  0  0  0
   -6.5736    6.8329  -14.0932 C   0  0  2  0  0  0  0  0  0  0  0  0
   -7.9095    6.1913  -13.6831 C   0  0  0  0  0  0  0  0  0  0  0  0
   -8.0186    5.9120  -12.2089 C   0  0  0  0  0  0  0  0  0  0  0  0
   -7.9762    6.9627  -11.2918 C   0  0  0  0  0  0  0  0  0  0  0  0
   -8.0200    6.6661   -9.9423 C   0  0  0  0  0  0  0  0  0  0  0  0
   -8.1201    5.4182   -9.4529 N   0  0  0  0  0  0  0  0  0  0  0  0
   -8.1939    4.4120  -10.3523 C   0  0  0  0  0  0  0  0  0  0  0  0
   -8.4079    2.6743   -9.6586 Br  0  0  0  0  0  0  0  0  0  0  0  0
   -8.1352    4.6025  -11.7260 C   0  0  0  0  0  0  0  0  0  0  0  0
   -6.5017    7.0308  -15.5340 N   0  0  0  0  0  0  0  0  0  0  0  0
   -5.5895    7.9594  -16.3791 C   0  0  0  0  0  0  0  0  0  0  0  0
   -4.7052    8.6494  -16.0551 O   0  0  0  0  0  0  0  0  0  0  0  0
   -6.0124    7.7976  -17.8509 C   0  0  0  0  0  0  0  0  0  0  0  0
   -5.0405    6.9746  -18.6136 C   0  0  0  0  0  0  0  0  0  0  0  0
   -4.1223    7.3462  -19.5784 C   0  0  0  0  0  0  0  0  0  0  0  0
   -3.3888    6.2752  -20.0153 N   0  0  0  0  0  0  0  0  0  0  0  0
   -3.8524    5.2607  -19.3250 C   0  0  0  0  0  0  0  0  0  0  0  0
   -4.8816    5.6184  -18.4935 N   0  0  0  0  0  0  0  0  0  0  0  0
   -5.5171    4.7022  -17.5604 C   0  0  0  0  0  0  0  0  0  0  0  0
   -6.9928    4.5106  -17.7253 C   0  0  0  0  0  0  0  0  0  0  0  0
   -7.6656    4.6105  -18.9410 C   0  0  0  0  0  0  0  0  0  0  0  0
   -9.0549    4.4725  -19.0016 C   0  0  0  0  0  0  0  0  0  0  0  0
   -9.7821    4.2039  -17.8563 C   0  0  0  0  0  0  0  0  0  0  0  0
   -9.1101    4.0236  -16.6580 C   0  0  0  0  0  0  0  0  0  0  0  0
   -7.7283    4.1401  -16.5993 C   0  0  0  0  0  0  0  0  0  0  0  0
  1  2  1  0
  2  3  1  0
  3  4  1  0
  4  5  1  0
  5  6  2  0
  5  7  1  0
  7  8  1  6
  8  9  1  0
  9 10  2  0
 10 11  1  0
 11 12  2  0
 12 13  1  0
 13 14  1  0
 13 15  2  0
  7 16  1  0
 16 17  1  0
 17 18  2  0
 17 19  1  0
 19 20  1  0
 20 21  2  0
 21 22  1  0
 22 23  2  0
 23 24  1  0
 24 25  1  0
 25 26  1  0
 26 27  2  0
 27 28  1  0
 28 29  2  0
 29 30  1  0
 30 31  2  0
 15  9  1  0
 24 20  1  0
 31 26  1  0
M  END
>  <energy_score>  (2559) 
-9.143799

>  <alias>  (2559) 
None

>  <HIPPO Pose ID>  (2559) 
75074

>  <smiles>  (2559) 
CCCOC(=O)[C@H](Cc1ccnc(Br)c1)NC(=O)Cc1cncn1Cc1ccccc1

>  <inchikey>  (2559) 
LGZNSHYEXNLVGG-FQEVSTJZSA-N

>  <distance_score>  (2559) 
1.928464

>  <ref_mols>  (2559) 
Z0800a,Z1495a

>  <ref_pdb>  (2559) 
Z0800a

>  <HIPPO Compound ID>  (2559) 
149256

>  <name>  (2559) 
P75074

>  <inspiration_score>  (2559) 
None

$$$$
P75075
     RDKit          3D

 31 33  0  0  0  0  0  0  0  0999 V2000
   -2.6042    4.8262  -11.3565 C   0  0  0  0  0  0  0  0  0  0  0  0
   -3.9538    5.2895  -10.8431 C   0  0  0  0  0  0  0  0  0  0  0  0
   -4.2434    6.6187  -11.3203 O   0  0  0  0  0  0  0  0  0  0  0  0
   -4.7142    6.9154  -12.5534 C   0  0  0  0  0  0  0  0  0  0  0  0
   -4.7658    8.0915  -12.9224 O   0  0  0  0  0  0  0  0  0  0  0  0
   -5.2083    5.7880  -13.4647 C   0  0  1  0  0  0  0  0  0  0  0  0
   -6.7461    5.8264  -13.6015 C   0  0  0  0  0  0  0  0  0  0  0  0
   -7.4380    5.5929  -12.2778 C   0  0  0  0  0  0  0  0  0  0  0  0
   -7.7763    6.7278  -11.5263 C   0  0  0  0  0  0  0  0  0  0  0  0
   -8.2279    6.5666  -10.2338 C   0  0  0  0  0  0  0  0  0  0  0  0
   -8.3935    5.3676   -9.6553 N   0  0  0  0  0  0  0  0  0  0  0  0
   -8.1409    4.2634  -10.4057 C   0  0  0  0  0  0  0  0  0  0  0  0
   -8.4663    2.6379   -9.4891 Br  0  0  0  0  0  0  0  0  0  0  0  0
   -7.6425    4.3203  -11.7103 C   0  0  0  0  0  0  0  0  0  0  0  0
   -7.1249    2.7567  -12.6626 Br  0  0  0  0  0  0  0  0  0  0  0  0
   -4.5639    6.0225  -14.7448 N   0  0  0  0  0  0  0  0  0  0  0  0
   -3.6997    5.0840  -15.6223 C   0  0  0  0  0  0  0  0  0  0  0  0
   -3.3084    4.0036  -15.4161 O   0  0  0  0  0  0  0  0  0  0  0  0
   -3.3176    5.8394  -16.9043 C   0  0  0  0  0  0  0  0  0  0  0  0
   -4.4677    6.5593  -17.5264 C   0  0  0  0  0  0  0  0  0  0  0  0
   -4.6564    7.9118  -17.7349 C   0  0  0  0  0  0  0  0  0  0  0  0
   -5.8690    8.1580  -18.3118 N   0  0  0  0  0  0  0  0  0  0  0  0
   -6.4041    6.9693  -18.4926 C   0  0  0  0  0  0  0  0  0  0  0  0
   -5.6078    5.9678  -18.0119 N   0  0  0  0  0  0  0  0  0  0  0  0
   -5.8802    4.5407  -18.1010 C   0  0  0  0  0  0  0  0  0  0  0  0
   -7.3406    4.2574  -18.1155 C   0  0  0  0  0  0  0  0  0  0  0  0
   -8.0423    4.2653  -19.3130 C   0  0  0  0  0  0  0  0  0  0  0  0
   -9.4288    4.3035  -19.3072 C   0  0  0  0  0  0  0  0  0  0  0  0
  -10.1231    4.2064  -18.1151 C   0  0  0  0  0  0  0  0  0  0  0  0
   -9.4136    4.0478  -16.9353 C   0  0  0  0  0  0  0  0  0  0  0  0
   -8.0342    4.0931  -16.9297 C   0  0  0  0  0  0  0  0  0  0  0  0
  1  2  1  0
  2  3  1  0
  3  4  1  0
  4  5  2  0
  4  6  1  0
  6  7  1  6
  7  8  1  0
  8  9  2  0
  9 10  1  0
 10 11  2  0
 11 12  1  0
 12 13  1  0
 12 14  2  0
 14 15  1  0
  6 16  1  0
 16 17  1  0
 17 18  2  0
 17 19  1  0
 19 20  1  0
 20 21  2  0
 21 22  1  0
 22 23  2  0
 23 24  1  0
 24 25  1  0
 25 26  1  0
 26 27  2  0
 27 28  1  0
 28 29  2  0
 29 30  1  0
 30 31  2  0
 14  8  1  0
 24 20  1  0
 31 26  1  0
M  END
>  <energy_score>  (2560) 
-11.166045

>  <alias>  (2560) 
None

>  <HIPPO Pose ID>  (2560) 
75075

>  <smiles>  (2560) 
CCOC(=O)[C@@H](Cc1ccnc(Br)c1Br)NC(=O)Cc1cncn1Cc1ccccc1

>  <inchikey>  (2560) 
GWOQBPAAJQNJCT-GOSISDBHSA-N

>  <distance_score>  (2560) 
1.942063

>  <ref_mols>  (2560) 
Z1495a,Z0800a

>  <ref_pdb>  (2560) 
Z0800a

>  <HIPPO Compound ID>  (2560) 
149257

>  <name>  (2560) 
P75075

>  <inspiration_score>  (2560) 
None

$$$$
P75077
     RDKit          3D

 12 12  0  0  0  0  0  0  0  0999 V2000
   -8.6077    4.0047  -15.5729 C   0  0  0  0  0  0  0  0  0  0  0  0
   -7.7363    4.8742  -16.3003 N   0  0  0  0  0  0  0  0  0  0  0  0
   -7.1015    5.9313  -15.7340 C   0  0  0  0  0  0  0  0  0  0  0  0
   -6.3024    6.5144  -16.5923 N   0  0  0  0  0  0  0  0  0  0  0  0
   -6.4353    5.8033  -17.7473 C   0  0  0  0  0  0  0  0  0  0  0  0
   -5.6660    6.0638  -18.8310 N   0  0  0  0  0  0  0  0  0  0  0  0
   -4.5673    7.1395  -19.0526 C   0  0  0  0  0  0  0  0  0  0  0  0
   -4.2124    8.0137  -18.3620 O   0  0  0  0  0  0  0  0  0  0  0  0
   -3.8978    6.8556  -20.3761 C   0  0  0  0  0  0  0  0  0  0  0  0
   -4.6918    7.4866  -21.4921 C   0  0  0  0  0  0  0  0  0  0  0  0
   -3.7765    7.4075  -23.0191 Cl  0  0  0  0  0  0  0  0  0  0  0  0
   -7.3675    4.8028  -17.6130 C   0  0  0  0  0  0  0  0  0  0  0  0
  1  2  1  0
  2  3  1  0
  3  4  2  0
  4  5  1  0
  5  6  1  0
  6  7  1  0
  7  8  2  0
  7  9  1  0
  9 10  1  0
 10 11  1  0
  5 12  2  0
 12  2  1  0
M  END
>  <energy_score>  (2561) 
-5.213991

>  <alias>  (2561) 
None

>  <HIPPO Pose ID>  (2561) 
75077

>  <smiles>  (2561) 
Cn1cnc(NC(=O)CCCl)c1

>  <inchikey>  (2561) 
JSWJNUCGQIITRK-UHFFFAOYSA-N

>  <distance_score>  (2561) 
1.852297

>  <ref_mols>  (2561) 
Z0719a,Z1597a

>  <ref_pdb>  (2561) 
Z0719a

>  <HIPPO Compound ID>  (2561) 
149382

>  <name>  (2561) 
P75077

>  <inspiration_score>  (2561) 
None

$$$$
P75080
     RDKit          3D

 12 12  0  0  0  0  0  0  0  0999 V2000
   -4.6610    7.6859  -20.9160 C   0  0  0  0  0  0  0  0  0  0  0  0
   -4.3677    6.7792  -20.1851 C   0  0  0  0  0  0  0  0  0  0  0  0
   -4.0093    5.6573  -19.3047 C   0  0  0  0  0  0  0  0  0  0  0  0
   -4.9186    5.4951  -18.0889 C   0  0  0  0  0  0  0  0  0  0  0  0
   -4.5099    5.5729  -16.9937 O   0  0  0  0  0  0  0  0  0  0  0  0
   -6.3412    5.1289  -18.6127 N   0  0  0  0  0  0  0  0  0  0  0  0
   -7.4594    4.7150  -17.9363 C   0  0  0  0  0  0  0  0  0  0  0  0
   -8.6461    4.2911  -18.5064 C   0  0  0  0  0  0  0  0  0  0  0  0
   -9.5581    3.9141  -17.5627 N   0  0  0  0  0  0  0  0  0  0  0  0
   -8.9659    4.1577  -16.4205 C   0  0  0  0  0  0  0  0  0  0  0  0
   -7.6780    4.5931  -16.5860 N   0  0  0  0  0  0  0  0  0  0  0  0
   -6.7954    4.8209  -15.4726 C   0  0  0  0  0  0  0  0  0  0  0  0
  1  2  3  0
  2  3  1  0
  3  4  1  0
  4  5  2  0
  4  6  1  0
  6  7  1  0
  7  8  2  0
  8  9  1  0
  9 10  2  0
 10 11  1  0
 11 12  1  0
 11  7  1  0
M  END
>  <energy_score>  (2562) 
-18.859677

>  <alias>  (2562) 
None

>  <HIPPO Pose ID>  (2562) 
75080

>  <smiles>  (2562) 
C#CCC(=O)Nc1cncn1C

>  <inchikey>  (2562) 
HDMNUSQOXLVVMK-UHFFFAOYSA-N

>  <distance_score>  (2562) 
0.90467

>  <ref_mols>  (2562) 
Z0719a,Z1597a

>  <ref_pdb>  (2562) 
Z0719a

>  <HIPPO Compound ID>  (2562) 
149385

>  <name>  (2562) 
P75080

>  <inspiration_score>  (2562) 
None

$$$$
P75081
     RDKit          3D

 12 12  0  0  0  0  0  0  0  0999 V2000
   -3.1574    8.0466  -21.4286 C   0  0  0  0  0  0  0  0  0  0  0  0
   -3.9299    7.0591  -20.9571 C   0  0  0  0  0  0  0  0  0  0  0  0
   -3.4991    6.0825  -19.9042 C   0  0  0  0  0  0  0  0  0  0  0  0
   -4.4036    6.1210  -18.6777 C   0  0  0  0  0  0  0  0  0  0  0  0
   -4.0706    6.6146  -17.6700 O   0  0  0  0  0  0  0  0  0  0  0  0
   -5.7082    5.3566  -19.0429 N   0  0  0  0  0  0  0  0  0  0  0  0
   -6.7519    4.9877  -18.2723 C   0  0  0  0  0  0  0  0  0  0  0  0
   -6.8743    5.1515  -16.9221 C   0  0  0  0  0  0  0  0  0  0  0  0
   -8.0747    4.5884  -16.6187 N   0  0  0  0  0  0  0  0  0  0  0  0
   -8.6031    4.4531  -15.2973 C   0  0  0  0  0  0  0  0  0  0  0  0
   -8.6534    4.1774  -17.7748 C   0  0  0  0  0  0  0  0  0  0  0  0
   -7.8379    4.3604  -18.7897 N   0  0  0  0  0  0  0  0  0  0  0  0
  1  2  2  0
  2  3  1  0
  3  4  1  0
  4  5  2  0
  4  6  1  0
  6  7  1  0
  7  8  2  0
  8  9  1  0
  9 10  1  0
  9 11  1  0
 11 12  2  0
 12  7  1  0
M  END
>  <energy_score>  (2563) 
-8.634603

>  <alias>  (2563) 
None

>  <HIPPO Pose ID>  (2563) 
75081

>  <smiles>  (2563) 
C=CCC(=O)Nc1cn(C)cn1

>  <inchikey>  (2563) 
HRJREPSDBQWTOQ-UHFFFAOYSA-N

>  <distance_score>  (2563) 
1.416399

>  <ref_mols>  (2563) 
Z0719a,Z1597a

>  <ref_pdb>  (2563) 
Z0719a

>  <HIPPO Compound ID>  (2563) 
149386

>  <name>  (2563) 
P75081

>  <inspiration_score>  (2563) 
None

$$$$
P75082
     RDKit          3D

 12 12  0  0  0  0  0  0  0  0999 V2000
   -4.7163    9.3540  -20.4161 C   0  0  0  0  0  0  0  0  0  0  0  0
   -3.9378    8.0678  -20.6571 C   0  0  0  0  0  0  0  0  0  0  0  0
   -4.8121    6.8361  -20.5163 C   0  0  0  0  0  0  0  0  0  0  0  0
   -5.2044    6.5158  -19.0824 C   0  0  0  0  0  0  0  0  0  0  0  0
   -4.5492    6.8294  -18.1654 O   0  0  0  0  0  0  0  0  0  0  0  0
   -6.4997    5.6599  -19.1488 N   0  0  0  0  0  0  0  0  0  0  0  0
   -7.2520    5.1328  -18.1620 C   0  0  0  0  0  0  0  0  0  0  0  0
   -6.9385    5.0730  -16.8352 C   0  0  0  0  0  0  0  0  0  0  0  0
   -8.0351    4.5187  -16.2509 N   0  0  0  0  0  0  0  0  0  0  0  0
   -8.1898    4.2892  -14.8473 C   0  0  0  0  0  0  0  0  0  0  0  0
   -8.9602    4.2912  -17.2181 C   0  0  0  0  0  0  0  0  0  0  0  0
   -8.4832    4.6103  -18.3995 N   0  0  0  0  0  0  0  0  0  0  0  0
  1  2  1  0
  2  3  1  0
  3  4  1  0
  4  5  2  0
  4  6  1  0
  6  7  1  0
  7  8  2  0
  8  9  1  0
  9 10  1  0
  9 11  1  0
 11 12  2  0
 12  7  1  0
M  END
>  <energy_score>  (2564) 
-3.974181

>  <alias>  (2564) 
None

>  <HIPPO Pose ID>  (2564) 
75082

>  <smiles>  (2564) 
CCCC(=O)Nc1cn(C)cn1

>  <inchikey>  (2564) 
XYPFSXBTBJIYRX-UHFFFAOYSA-N

>  <distance_score>  (2564) 
1.551146

>  <ref_mols>  (2564) 
Z0719a,Z1597a

>  <ref_pdb>  (2564) 
Z0719a

>  <HIPPO Compound ID>  (2564) 
149388

>  <name>  (2564) 
P75082

>  <inspiration_score>  (2564) 
None

$$$$
P75084
     RDKit          3D

 12 12  0  0  0  0  0  0  0  0999 V2000
   -3.8082    7.2792  -20.7162 C   0  0  0  0  0  0  0  0  0  0  0  0
   -3.0947    6.7202  -19.4890 C   0  0  0  0  0  0  0  0  0  0  0  0
   -2.4231    5.3782  -19.7552 C   0  0  0  0  0  0  0  0  0  0  0  0
   -3.9838    6.6226  -18.2420 C   0  0  0  0  0  0  0  0  0  0  0  0
   -3.6406    7.0805  -17.2218 O   0  0  0  0  0  0  0  0  0  0  0  0
   -5.2377    5.7751  -18.5943 N   0  0  0  0  0  0  0  0  0  0  0  0
   -6.3013    5.4223  -17.8356 C   0  0  0  0  0  0  0  0  0  0  0  0
   -7.4011    4.7435  -18.2948 C   0  0  0  0  0  0  0  0  0  0  0  0
   -8.2034    4.6332  -17.2019 N   0  0  0  0  0  0  0  0  0  0  0  0
   -9.5209    4.0888  -17.1763 C   0  0  0  0  0  0  0  0  0  0  0  0
   -7.5565    5.1793  -16.1380 C   0  0  0  0  0  0  0  0  0  0  0  0
   -6.4069    5.7001  -16.5052 N   0  0  0  0  0  0  0  0  0  0  0  0
  1  2  1  0
  2  3  1  0
  2  4  1  0
  4  5  2  0
  4  6  1  0
  6  7  1  0
  7  8  2  0
  8  9  1  0
  9 10  1  0
  9 11  1  0
 11 12  2  0
 12  7  1  0
M  END
>  <energy_score>  (2565) 
-1.866802

>  <alias>  (2565) 
None

>  <HIPPO Pose ID>  (2565) 
75084

>  <smiles>  (2565) 
CC(C)C(=O)Nc1cn(C)cn1

>  <inchikey>  (2565) 
LCZISZBWCZTIKM-UHFFFAOYSA-N

>  <distance_score>  (2565) 
1.860294

>  <ref_mols>  (2565) 
Z0719a,Z1597a

>  <ref_pdb>  (2565) 
Z0719a

>  <HIPPO Compound ID>  (2565) 
149391

>  <name>  (2565) 
P75084

>  <inspiration_score>  (2565) 
None

$$$$
P75087
     RDKit          3D

 12 12  0  0  0  0  0  0  0  0999 V2000
   -4.4844    7.4066  -21.5294 C   0  0  0  0  0  0  0  0  0  0  0  0
   -3.7474    6.4564  -20.6435 C   0  0  0  0  0  0  0  0  0  0  0  0
   -2.8462    5.7152  -21.0278 O   0  0  0  0  0  0  0  0  0  0  0  0
   -4.1761    6.4746  -19.1899 C   0  0  0  0  0  0  0  0  0  0  0  0
   -3.5189    7.0495  -18.4182 O   0  0  0  0  0  0  0  0  0  0  0  0
   -5.4771    5.6709  -18.9930 N   0  0  0  0  0  0  0  0  0  0  0  0
   -6.2454    5.4962  -17.8901 C   0  0  0  0  0  0  0  0  0  0  0  0
   -7.3685    4.7135  -17.7628 C   0  0  0  0  0  0  0  0  0  0  0  0
   -7.6789    4.7990  -16.4345 N   0  0  0  0  0  0  0  0  0  0  0  0
   -8.6829    4.0905  -15.7006 C   0  0  0  0  0  0  0  0  0  0  0  0
   -6.8177    5.6690  -15.8494 C   0  0  0  0  0  0  0  0  0  0  0  0
   -5.9432    6.1161  -16.7150 N   0  0  0  0  0  0  0  0  0  0  0  0
  1  2  1  0
  2  3  2  0
  2  4  1  0
  4  5  2  0
  4  6  1  0
  6  7  1  0
  7  8  2  0
  8  9  1  0
  9 10  1  0
  9 11  1  0
 11 12  2  0
 12  7  1  0
M  END
>  <energy_score>  (2566) 
-14.932565

>  <alias>  (2566) 
None

>  <HIPPO Pose ID>  (2566) 
75087

>  <smiles>  (2566) 
CC(=O)C(=O)Nc1cn(C)cn1

>  <inchikey>  (2566) 
LXFJHIKUBDIJTF-UHFFFAOYSA-N

>  <distance_score>  (2566) 
1.657055

>  <ref_mols>  (2566) 
Z0719a,Z1597a

>  <ref_pdb>  (2566) 
Z0719a

>  <HIPPO Compound ID>  (2566) 
149396

>  <name>  (2566) 
P75087

>  <inspiration_score>  (2566) 
None

$$$$
P75094
     RDKit          3D

 13 13  0  0  0  0  0  0  0  0999 V2000
   -4.2717    6.7492  -20.2075 C   0  0  0  0  0  0  0  0  0  0  0  0
   -4.0142    5.4802  -19.4133 C   0  0  1  0  0  0  0  0  0  0  0  0
   -2.1032    5.3724  -19.0093 Br  0  0  0  0  0  0  0  0  0  0  0  0
   -4.8369    5.3703  -18.1220 C   0  0  0  0  0  0  0  0  0  0  0  0
   -4.3868    5.4511  -17.0464 O   0  0  0  0  0  0  0  0  0  0  0  0
   -6.3024    5.0975  -18.5869 N   0  0  0  0  0  0  0  0  0  0  0  0
   -7.4188    4.7939  -17.8633 C   0  0  0  0  0  0  0  0  0  0  0  0
   -8.6423    4.7688  -18.4843 N   0  0  0  0  0  0  0  0  0  0  0  0
   -9.5814    4.4199  -17.5603 C   0  0  0  0  0  0  0  0  0  0  0  0
   -9.0392    4.1979  -16.3900 N   0  0  0  0  0  0  0  0  0  0  0  0
   -7.6917    4.4539  -16.5497 C   0  0  0  0  0  0  0  0  0  0  0  0
   -6.8095    4.2851  -15.4325 C   0  0  0  0  0  0  0  0  0  0  0  0
   -6.1024    4.1288  -14.5226 N   0  0  0  0  0  0  0  0  0  0  0  0
  2  1  1  1
  2  3  1  0
  2  4  1  0
  4  5  2  0
  4  6  1  0
  6  7  1  0
  7  8  1  0
  8  9  1  0
  9 10  2  0
 10 11  1  0
 11 12  1  0
 12 13  3  0
 11  7  2  0
M  END
>  <energy_score>  (2567) 
-19.484482

>  <alias>  (2567) 
None

>  <HIPPO Pose ID>  (2567) 
75094

>  <smiles>  (2567) 
C[C@@H](Br)C(=O)Nc1[nH]cnc1C#N

>  <inchikey>  (2567) 
XQEUBUUKXHPNMH-SCSAIBSYSA-N

>  <distance_score>  (2567) 
1.264761

>  <ref_mols>  (2567) 
Z0719a,Z1597a

>  <ref_pdb>  (2567) 
Z0719a

>  <HIPPO Compound ID>  (2567) 
149406

>  <name>  (2567) 
P75094

>  <inspiration_score>  (2567) 
None

$$$$
P75096
     RDKit          3D

 13 13  0  0  0  0  0  0  0  0999 V2000
   -8.5491    4.4421  -14.7410 C   0  0  0  0  0  0  0  0  0  0  0  0
   -8.2336    4.4780  -16.1871 C   0  0  0  0  0  0  0  0  0  0  0  0
   -9.0213    4.1523  -17.1898 N   0  0  0  0  0  0  0  0  0  0  0  0
   -8.2933    4.4234  -18.3208 C   0  0  0  0  0  0  0  0  0  0  0  0
   -7.0370    4.9070  -18.0105 C   0  0  0  0  0  0  0  0  0  0  0  0
   -6.0410    5.3033  -18.8636 N   0  0  0  0  0  0  0  0  0  0  0  0
   -4.6970    6.0600  -18.5773 C   0  0  0  0  0  0  0  0  0  0  0  0
   -4.2107    6.3855  -17.5614 O   0  0  0  0  0  0  0  0  0  0  0  0
   -4.0101    6.2343  -19.9329 C   0  0  1  0  0  0  0  0  0  0  0  0
   -4.6915    7.2281  -20.8468 C   0  0  0  0  0  0  0  0  0  0  0  0
   -2.1492    6.8007  -19.6797 Br  0  0  0  0  0  0  0  0  0  0  0  0
   -6.9942    4.8618  -16.6414 N   0  0  0  0  0  0  0  0  0  0  0  0
   -5.8625    5.0245  -15.7749 C   0  0  0  0  0  0  0  0  0  0  0  0
  1  2  1  0
  2  3  2  0
  3  4  1  0
  4  5  2  0
  5  6  1  0
  6  7  1  0
  7  8  2  0
  7  9  1  0
  9 10  1  6
  9 11  1  0
  5 12  1  0
 12 13  1  0
 12  2  1  0
M  END
>  <energy_score>  (2568) 
-17.232859

>  <alias>  (2568) 
None

>  <HIPPO Pose ID>  (2568) 
75096

>  <smiles>  (2568) 
Cc1ncc(NC(=O)[C@@H](C)Br)n1C

>  <inchikey>  (2568) 
MXLJTICGPHAATQ-RXMQYKEDSA-N

>  <distance_score>  (2568) 
0.992417

>  <ref_mols>  (2568) 
Z0719a,Z1597a

>  <ref_pdb>  (2568) 
Z0719a

>  <HIPPO Compound ID>  (2568) 
149408

>  <name>  (2568) 
P75096

>  <inspiration_score>  (2568) 
None

$$$$
P75098
     RDKit          3D

 13 13  0  0  0  0  0  0  0  0999 V2000
   -4.2358    6.6981  -20.1797 C   0  0  0  0  0  0  0  0  0  0  0  0
   -3.9962    5.4055  -19.4123 C   0  0  1  0  0  0  0  0  0  0  0  0
   -2.2489    5.2349  -19.0719 Cl  0  0  0  0  0  0  0  0  0  0  0  0
   -4.8247    5.3036  -18.1194 C   0  0  0  0  0  0  0  0  0  0  0  0
   -4.3669    5.3646  -17.0451 O   0  0  0  0  0  0  0  0  0  0  0  0
   -6.2992    5.0679  -18.5788 N   0  0  0  0  0  0  0  0  0  0  0  0
   -7.4183    4.7830  -17.8518 C   0  0  0  0  0  0  0  0  0  0  0  0
   -8.6439    4.7759  -18.4692 N   0  0  0  0  0  0  0  0  0  0  0  0
   -9.5841    4.4335  -17.5437 C   0  0  0  0  0  0  0  0  0  0  0  0
   -9.0410    4.2025  -16.3754 N   0  0  0  0  0  0  0  0  0  0  0  0
   -7.6920    4.4464  -16.5375 C   0  0  0  0  0  0  0  0  0  0  0  0
   -6.8093    4.2706  -15.4219 C   0  0  0  0  0  0  0  0  0  0  0  0
   -6.1008    4.1096  -14.5139 N   0  0  0  0  0  0  0  0  0  0  0  0
  2  1  1  1
  2  3  1  0
  2  4  1  0
  4  5  2  0
  4  6  1  0
  6  7  1  0
  7  8  1  0
  8  9  1  0
  9 10  2  0
 10 11  1  0
 11 12  1  0
 12 13  3  0
 11  7  2  0
M  END
>  <energy_score>  (2569) 
-9.548428

>  <alias>  (2569) 
None

>  <HIPPO Pose ID>  (2569) 
75098

>  <smiles>  (2569) 
C[C@@H](Cl)C(=O)Nc1[nH]cnc1C#N

>  <inchikey>  (2569) 
ADEOCPYMDWQYCQ-SCSAIBSYSA-N

>  <distance_score>  (2569) 
1.26238

>  <ref_mols>  (2569) 
Z0719a,Z1597a

>  <ref_pdb>  (2569) 
Z0719a

>  <HIPPO Compound ID>  (2569) 
149410

>  <name>  (2569) 
P75098

>  <inspiration_score>  (2569) 
None

$$$$
P75100
     RDKit          3D

 13 13  0  0  0  0  0  0  0  0999 V2000
   -4.9280    7.9018  -21.8610 C   0  0  0  0  0  0  0  0  0  0  0  0
   -4.0825    7.8522  -20.8219 C   0  0  0  0  0  0  0  0  0  0  0  0
   -3.5228    6.6122  -20.1988 C   0  0  1  0  0  0  0  0  0  0  0  0
   -1.7425    6.6995  -20.1969 Cl  0  0  0  0  0  0  0  0  0  0  0  0
   -4.0726    6.4111  -18.7780 C   0  0  0  0  0  0  0  0  0  0  0  0
   -3.5182    6.7436  -17.8012 O   0  0  0  0  0  0  0  0  0  0  0  0
   -5.4419    5.6798  -18.9666 N   0  0  0  0  0  0  0  0  0  0  0  0
   -6.3773    5.3236  -18.0601 C   0  0  0  0  0  0  0  0  0  0  0  0
   -7.5620    4.7135  -18.3759 C   0  0  0  0  0  0  0  0  0  0  0  0
   -8.2021    4.5986  -17.1835 N   0  0  0  0  0  0  0  0  0  0  0  0
   -9.5346    4.1276  -17.0040 C   0  0  0  0  0  0  0  0  0  0  0  0
   -7.3809    5.0637  -16.2065 C   0  0  0  0  0  0  0  0  0  0  0  0
   -6.2685    5.5423  -16.7196 N   0  0  0  0  0  0  0  0  0  0  0  0
  1  2  2  0
  2  3  1  0
  3  4  1  1
  3  5  1  0
  5  6  2  0
  5  7  1  0
  7  8  1  0
  8  9  2  0
  9 10  1  0
 10 11  1  0
 10 12  1  0
 12 13  2  0
 13  8  1  0
M  END
>  <energy_score>  (2570) 
-5.894603

>  <alias>  (2570) 
None

>  <HIPPO Pose ID>  (2570) 
75100

>  <smiles>  (2570) 
C=C[C@@H](Cl)C(=O)Nc1cn(C)cn1

>  <inchikey>  (2570) 
WSIKKEOOWKKLSI-ZCFIWIBFSA-N

>  <distance_score>  (2570) 
1.525161

>  <ref_mols>  (2570) 
Z0719a,Z1597a

>  <ref_pdb>  (2570) 
Z0719a

>  <HIPPO Compound ID>  (2570) 
149412

>  <name>  (2570) 
P75100

>  <inspiration_score>  (2570) 
None

$$$$
P75102
     RDKit          3D

 13 14  0  0  0  0  0  0  0  0999 V2000
   -8.1477    6.9624  -12.0300 C   0  0  0  0  0  0  0  0  0  0  0  0
   -8.1216    5.6228  -11.5058 N   0  0  0  0  0  0  0  0  0  0  0  0
   -8.1069    5.3351  -10.1632 C   0  0  0  0  0  0  0  0  0  0  0  0
   -8.1997    4.0488   -9.9353 N   0  0  0  0  0  0  0  0  0  0  0  0
   -8.2892    3.4828  -11.1769 C   0  0  0  0  0  0  0  0  0  0  0  0
   -8.1936    4.4323  -12.1805 C   0  0  0  0  0  0  0  0  0  0  0  0
   -8.1568    4.1840  -13.5283 N   0  0  0  0  0  0  0  0  0  0  0  0
   -7.7593    5.1044  -14.7113 C   0  0  0  0  0  0  0  0  0  0  0  0
   -7.4766    6.2370  -14.7269 O   0  0  0  0  0  0  0  0  0  0  0  0
   -7.6771    4.2592  -15.9401 C   0  0  1  0  0  0  0  0  0  0  0  0
   -8.7167    4.3861  -17.0243 C   0  0  0  0  0  0  0  0  0  0  0  0
   -7.2754    4.6357  -17.3363 C   0  0  1  0  0  0  0  0  0  0  0  0
   -6.7310    6.3416  -17.8899 Br  0  0  0  0  0  0  0  0  0  0  0  0
  1  2  1  0
  2  3  1  0
  3  4  2  0
  4  5  1  0
  5  6  2  0
  6  7  1  0
  7  8  1  0
  8  9  2  0
 10  8  1  1
 10 11  1  0
 11 12  1  0
 12 13  1  1
  6  2  1  0
 12 10  1  0
M  END
>  <energy_score>  (2571) 
-14.687628

>  <alias>  (2571) 
None

>  <HIPPO Pose ID>  (2571) 
75102

>  <smiles>  (2571) 
Cn1cncc1NC(=O)[C@H]1C[C@H]1Br

>  <inchikey>  (2571) 
ORCYEISIFGDKNX-NTSWFWBYSA-N

>  <distance_score>  (2571) 
1.253683

>  <ref_mols>  (2571) 
Z0719a,Z1597a

>  <ref_pdb>  (2571) 
Z0719a

>  <HIPPO Compound ID>  (2571) 
149413

>  <name>  (2571) 
P75102

>  <inspiration_score>  (2571) 
None

$$$$
P75107
     RDKit          3D

 13 14  0  0  0  0  0  0  0  0999 V2000
   -5.5267    3.8257  -15.0562 C   0  0  0  0  0  0  0  0  0  0  0  0
   -6.5199    4.3933  -15.7111 C   0  0  0  0  0  0  0  0  0  0  0  0
   -6.9216    5.2147  -16.7776 C   0  0  0  0  0  0  0  0  0  0  0  0
   -7.9189    4.6538  -15.6971 C   0  0  2  0  0  0  0  0  0  0  0  0
   -8.2729    5.3712  -14.4441 C   0  0  0  0  0  0  0  0  0  0  0  0
   -8.4335    6.5254  -14.4262 O   0  0  0  0  0  0  0  0  0  0  0  0
   -8.2634    4.3476  -13.2969 N   0  0  0  0  0  0  0  0  0  0  0  0
   -8.3490    4.5259  -11.9611 C   0  0  0  0  0  0  0  0  0  0  0  0
   -8.3057    3.4926  -11.0591 C   0  0  0  0  0  0  0  0  0  0  0  0
   -8.2880    4.1058   -9.8447 N   0  0  0  0  0  0  0  0  0  0  0  0
   -8.2053    3.4550   -8.5687 C   0  0  0  0  0  0  0  0  0  0  0  0
   -8.3279    5.4535  -10.0565 C   0  0  0  0  0  0  0  0  0  0  0  0
   -8.3607    5.7377  -11.3403 N   0  0  0  0  0  0  0  0  0  0  0  0
  1  2  2  0
  2  3  1  0
  3  4  1  0
  4  5  1  1
  5  6  2  0
  5  7  1  0
  7  8  1  0
  8  9  2  0
  9 10  1  0
 10 11  1  0
 10 12  1  0
 12 13  2  0
  4  2  1  0
 13  8  1  0
M  END
>  <energy_score>  (2572) 
-22.621649

>  <alias>  (2572) 
None

>  <HIPPO Pose ID>  (2572) 
75107

>  <smiles>  (2572) 
C=C1C[C@@H]1C(=O)Nc1cn(C)cn1

>  <inchikey>  (2572) 
JIQBTTNSGIVVGC-ZETCQYMHSA-N

>  <distance_score>  (2572) 
1.334189

>  <ref_mols>  (2572) 
Z0719a,Z1597a

>  <ref_pdb>  (2572) 
Z0719a

>  <HIPPO Compound ID>  (2572) 
149420

>  <name>  (2572) 
P75107

>  <inspiration_score>  (2572) 
None

$$$$
P75112
     RDKit          3D

 13 13  0  0  0  0  0  0  0  0999 V2000
   -8.5680    4.0030  -15.4720 C   0  0  0  0  0  0  0  0  0  0  0  0
   -7.7353    4.8879  -16.2253 N   0  0  0  0  0  0  0  0  0  0  0  0
   -7.0729    5.9355  -15.6734 C   0  0  0  0  0  0  0  0  0  0  0  0
   -6.3338    6.5467  -16.5653 N   0  0  0  0  0  0  0  0  0  0  0  0
   -6.5366    5.8658  -17.7260 C   0  0  0  0  0  0  0  0  0  0  0  0
   -5.8491    6.1618  -18.8529 N   0  0  0  0  0  0  0  0  0  0  0  0
   -4.7725    7.2626  -19.1248 C   0  0  0  0  0  0  0  0  0  0  0  0
   -4.3782    8.1246  -18.4366 O   0  0  0  0  0  0  0  0  0  0  0  0
   -4.1961    6.9537  -20.5002 C   0  0  2  0  0  0  0  0  0  0  0  0
   -2.3960    7.7156  -20.6684 Br  0  0  0  0  0  0  0  0  0  0  0  0
   -5.0635    7.4664  -21.6302 C   0  0  0  0  0  0  0  0  0  0  0  0
   -5.2658    8.8820  -21.5852 O   0  0  0  0  0  0  0  0  0  0  0  0
   -7.4442    4.8477  -17.5586 C   0  0  0  0  0  0  0  0  0  0  0  0
  1  2  1  0
  2  3  1  0
  3  4  2  0
  4  5  1  0
  5  6  1  0
  6  7  1  0
  7  8  2  0
  7  9  1  0
  9 10  1  1
  9 11  1  0
 11 12  1  0
  5 13  2  0
 13  2  1  0
M  END
>  <energy_score>  (2573) 
-20.036173

>  <alias>  (2573) 
None

>  <HIPPO Pose ID>  (2573) 
75112

>  <smiles>  (2573) 
Cn1cnc(NC(=O)[C@H](Br)CO)c1

>  <inchikey>  (2573) 
WXTPRYLLIKCKER-RXMQYKEDSA-N

>  <distance_score>  (2573) 
1.858071

>  <ref_mols>  (2573) 
Z0719a,Z1597a

>  <ref_pdb>  (2573) 
Z0719a

>  <HIPPO Compound ID>  (2573) 
149426

>  <name>  (2573) 
P75112

>  <inspiration_score>  (2573) 
None

$$$$
P75117
     RDKit          3D

 13 13  0  0  0  0  0  0  0  0999 V2000
   -5.3401    3.1960  -13.4438 C   0  0  0  0  0  0  0  0  0  0  0  0
   -6.7226    3.4453  -14.0457 C   0  0  0  0  0  0  0  0  0  0  0  0
   -6.7699    4.0782  -15.3549 N   0  0  0  0  0  0  0  0  0  0  0  0
   -7.9146    4.3854  -16.0495 C   0  0  0  0  0  0  0  0  0  0  0  0
   -7.6400    4.8876  -17.2386 N   0  0  0  0  0  0  0  0  0  0  0  0
   -6.2831    4.8751  -17.3242 C   0  0  0  0  0  0  0  0  0  0  0  0
   -5.6172    5.2420  -18.4463 N   0  0  0  0  0  0  0  0  0  0  0  0
   -4.0990    5.3666  -18.7185 C   0  0  0  0  0  0  0  0  0  0  0  0
   -3.1844    5.0989  -18.0432 O   0  0  0  0  0  0  0  0  0  0  0  0
   -3.7983    5.9404  -20.1107 C   0  0  0  0  0  0  0  0  0  0  0  0
   -4.6041    7.1211  -20.5593 C   0  0  0  0  0  0  0  0  0  0  0  0
   -2.8945    5.4586  -20.7947 O   0  0  0  0  0  0  0  0  0  0  0  0
   -5.7237    4.4404  -16.1535 C   0  0  0  0  0  0  0  0  0  0  0  0
  1  2  1  0
  2  3  1  0
  3  4  1  0
  4  5  2  0
  5  6  1  0
  6  7  1  0
  7  8  1  0
  8  9  2  0
  8 10  1  0
 10 11  1  0
 10 12  2  0
  6 13  2  0
 13  3  1  0
M  END
>  <energy_score>  (2574) 
-4.459541

>  <alias>  (2574) 
None

>  <HIPPO Pose ID>  (2574) 
75117

>  <smiles>  (2574) 
CCn1cnc(NC(=O)C(C)=O)c1

>  <inchikey>  (2574) 
WUHSXKSTQIPIPR-UHFFFAOYSA-N

>  <distance_score>  (2574) 
1.860116

>  <ref_mols>  (2574) 
Z0719a,Z1597a

>  <ref_pdb>  (2574) 
Z0719a

>  <HIPPO Compound ID>  (2574) 
149434

>  <name>  (2574) 
P75117

>  <inspiration_score>  (2574) 
None

$$$$
P75118
     RDKit          3D

 13 13  0  0  0  0  0  0  0  0999 V2000
   -5.3894    2.8328  -13.5892 C   0  0  0  0  0  0  0  0  0  0  0  0
   -6.5814    3.7526  -13.8192 C   0  0  0  0  0  0  0  0  0  0  0  0
   -6.9254    4.1011  -15.1873 N   0  0  0  0  0  0  0  0  0  0  0  0
   -8.2046    4.2775  -15.6505 C   0  0  0  0  0  0  0  0  0  0  0  0
   -8.2210    4.8084  -16.8523 N   0  0  0  0  0  0  0  0  0  0  0  0
   -6.9162    4.9865  -17.1774 C   0  0  0  0  0  0  0  0  0  0  0  0
   -6.5793    5.5857  -18.3412 N   0  0  0  0  0  0  0  0  0  0  0  0
   -5.1841    5.9785  -18.9085 C   0  0  0  0  0  0  0  0  0  0  0  0
   -4.1108    5.7738  -18.4903 O   0  0  0  0  0  0  0  0  0  0  0  0
   -5.4715    6.8170  -20.1413 C   0  0  0  0  0  0  0  0  0  0  0  0
   -4.2081    7.1463  -20.9005 C   0  0  0  0  0  0  0  0  0  0  0  0
   -3.6378    8.2583  -20.3571 F   0  0  0  0  0  0  0  0  0  0  0  0
   -6.0906    4.5631  -16.1693 C   0  0  0  0  0  0  0  0  0  0  0  0
  1  2  1  0
  2  3  1  0
  3  4  1  0
  4  5  2  0
  5  6  1  0
  6  7  1  0
  7  8  1  0
  8  9  2  0
  8 10  1  0
 10 11  1  0
 11 12  1  0
  6 13  2  0
 13  3  1  0
M  END
>  <energy_score>  (2575) 
-1.012164

>  <alias>  (2575) 
None

>  <HIPPO Pose ID>  (2575) 
75118

>  <smiles>  (2575) 
CCn1cnc(NC(=O)CCF)c1

>  <inchikey>  (2575) 
KIIYWHOIHFNFIO-UHFFFAOYSA-N

>  <distance_score>  (2575) 
1.834485

>  <ref_mols>  (2575) 
Z0719a,Z1597a

>  <ref_pdb>  (2575) 
Z0719a

>  <HIPPO Compound ID>  (2575) 
149436

>  <name>  (2575) 
P75118

>  <inspiration_score>  (2575) 
None

$$$$
P75119
     RDKit          3D

 13 13  0  0  0  0  0  0  0  0999 V2000
   -4.9398    8.7792  -20.2793 C   0  0  0  0  0  0  0  0  0  0  0  0
   -4.6076    7.4651  -20.9935 C   0  0  0  0  0  0  0  0  0  0  0  0
   -3.8225    7.7645  -22.2722 C   0  0  0  0  0  0  0  0  0  0  0  0
   -3.8094    6.5208  -20.0890 C   0  0  0  0  0  0  0  0  0  0  0  0
   -4.4864    6.1696  -18.7726 C   0  0  0  0  0  0  0  0  0  0  0  0
   -3.9935    6.4373  -17.7463 O   0  0  0  0  0  0  0  0  0  0  0  0
   -5.8163    5.4351  -19.0884 N   0  0  0  0  0  0  0  0  0  0  0  0
   -6.7913    4.9940  -18.2649 C   0  0  0  0  0  0  0  0  0  0  0  0
   -6.8068    5.0709  -16.9013 C   0  0  0  0  0  0  0  0  0  0  0  0
   -8.0065    4.5404  -16.5405 N   0  0  0  0  0  0  0  0  0  0  0  0
   -8.4633    4.3968  -15.1930 C   0  0  0  0  0  0  0  0  0  0  0  0
   -8.6762    4.2038  -17.6716 C   0  0  0  0  0  0  0  0  0  0  0  0
   -7.9314    4.4245  -18.7323 N   0  0  0  0  0  0  0  0  0  0  0  0
  1  2  1  0
  2  3  1  0
  2  4  1  0
  4  5  1  0
  5  6  2  0
  5  7  1  0
  7  8  1  0
  8  9  2  0
  9 10  1  0
 10 11  1  0
 10 12  1  0
 12 13  2  0
 13  8  1  0
M  END
>  <energy_score>  (2576) 
-7.978641

>  <alias>  (2576) 
None

>  <HIPPO Pose ID>  (2576) 
75119

>  <smiles>  (2576) 
CC(C)CC(=O)Nc1cn(C)cn1

>  <inchikey>  (2576) 
OGRVPRVETIHTIQ-UHFFFAOYSA-N

>  <distance_score>  (2576) 
1.419991

>  <ref_mols>  (2576) 
Z0719a,Z1597a

>  <ref_pdb>  (2576) 
Z0719a

>  <HIPPO Compound ID>  (2576) 
149437

>  <name>  (2576) 
P75119

>  <inspiration_score>  (2576) 
None

$$$$
P75129
     RDKit          3D

 13 13  0  0  0  0  0  0  0  0999 V2000
   -2.7784    8.1690  -21.1579 C   0  0  0  0  0  0  0  0  0  0  0  0
   -3.8146    7.3889  -20.8024 C   0  0  0  0  0  0  0  0  0  0  0  0
   -5.2108    7.7161  -21.2601 C   0  0  0  0  0  0  0  0  0  0  0  0
   -3.6115    6.1805  -19.9236 C   0  0  0  0  0  0  0  0  0  0  0  0
   -4.4692    6.1786  -18.6613 C   0  0  0  0  0  0  0  0  0  0  0  0
   -4.1086    6.6580  -17.6561 O   0  0  0  0  0  0  0  0  0  0  0  0
   -5.7796    5.4096  -18.9989 N   0  0  0  0  0  0  0  0  0  0  0  0
   -6.7957    5.0201  -18.2029 C   0  0  0  0  0  0  0  0  0  0  0  0
   -6.8712    5.1594  -16.8472 C   0  0  0  0  0  0  0  0  0  0  0  0
   -8.0619    4.5943  -16.5126 N   0  0  0  0  0  0  0  0  0  0  0  0
   -8.5464    4.4490  -15.1758 C   0  0  0  0  0  0  0  0  0  0  0  0
   -8.6802    4.2022  -17.6549 C   0  0  0  0  0  0  0  0  0  0  0  0
   -7.8995    4.4020  -18.6938 N   0  0  0  0  0  0  0  0  0  0  0  0
  1  2  2  0
  2  3  1  0
  2  4  1  0
  4  5  1  0
  5  6  2  0
  5  7  1  0
  7  8  1  0
  8  9  2  0
  9 10  1  0
 10 11  1  0
 10 12  1  0
 12 13  2  0
 13  8  1  0
M  END
>  <energy_score>  (2577) 
-17.024615

>  <alias>  (2577) 
None

>  <HIPPO Pose ID>  (2577) 
75129

>  <smiles>  (2577) 
C=C(C)CC(=O)Nc1cn(C)cn1

>  <inchikey>  (2577) 
WKXDMDOZOSXDOS-UHFFFAOYSA-N

>  <distance_score>  (2577) 
1.430946

>  <ref_mols>  (2577) 
Z0719a,Z1597a

>  <ref_pdb>  (2577) 
Z0719a

>  <HIPPO Compound ID>  (2577) 
149456

>  <name>  (2577) 
P75129

>  <inspiration_score>  (2577) 
None

$$$$
P75132
     RDKit          3D

 13 13  0  0  0  0  0  0  0  0999 V2000
   -3.9440    7.6882  -22.4090 C   0  0  0  0  0  0  0  0  0  0  0  0
   -4.5460    7.5420  -21.0176 C   0  0  0  0  0  0  0  0  0  0  0  0
   -3.8730    6.5095  -20.1226 C   0  0  1  0  0  0  0  0  0  0  0  0
   -2.0088    7.0058  -19.7647 Br  0  0  0  0  0  0  0  0  0  0  0  0
   -4.6108    6.3591  -18.7870 C   0  0  0  0  0  0  0  0  0  0  0  0
   -4.2342    6.8328  -17.7847 O   0  0  0  0  0  0  0  0  0  0  0  0
   -5.8921    5.5212  -19.0904 N   0  0  0  0  0  0  0  0  0  0  0  0
   -6.8479    5.0522  -18.2620 C   0  0  0  0  0  0  0  0  0  0  0  0
   -6.8737    5.1647  -16.9016 C   0  0  0  0  0  0  0  0  0  0  0  0
   -8.0373    4.5663  -16.5308 N   0  0  0  0  0  0  0  0  0  0  0  0
   -8.4800    4.4085  -15.1802 C   0  0  0  0  0  0  0  0  0  0  0  0
   -8.6842    4.1697  -17.6559 C   0  0  0  0  0  0  0  0  0  0  0  0
   -7.9469    4.4014  -18.7199 N   0  0  0  0  0  0  0  0  0  0  0  0
  1  2  1  0
  2  3  1  0
  3  4  1  1
  3  5  1  0
  5  6  2  0
  5  7  1  0
  7  8  1  0
  8  9  2  0
  9 10  1  0
 10 11  1  0
 10 12  1  0
 12 13  2  0
 13  8  1  0
M  END
>  <energy_score>  (2578) 
-21.867481

>  <alias>  (2578) 
None

>  <HIPPO Pose ID>  (2578) 
75132

>  <smiles>  (2578) 
CC[C@@H](Br)C(=O)Nc1cn(C)cn1

>  <inchikey>  (2578) 
HYNFZGMQEMXNIU-ZCFIWIBFSA-N

>  <distance_score>  (2578) 
1.45277

>  <ref_mols>  (2578) 
Z0719a,Z1597a

>  <ref_pdb>  (2578) 
Z0719a

>  <HIPPO Compound ID>  (2578) 
149460

>  <name>  (2578) 
P75132

>  <inspiration_score>  (2578) 
None

$$$$
P75134
     RDKit          3D

 13 13  0  0  0  0  0  0  0  0999 V2000
   -2.7238    5.2412  -19.1902 C   0  0  0  0  0  0  0  0  0  0  0  0
   -3.9013    5.8820  -19.1009 C   0  0  0  0  0  0  0  0  0  0  0  0
   -4.4169    6.8238  -20.1446 C   0  0  0  0  0  0  0  0  0  0  0  0
   -4.6523    5.7088  -17.8076 C   0  0  0  0  0  0  0  0  0  0  0  0
   -4.1229    5.8390  -16.7753 O   0  0  0  0  0  0  0  0  0  0  0  0
   -6.1085    5.3103  -18.1444 N   0  0  0  0  0  0  0  0  0  0  0  0
   -7.1375    4.9169  -17.3253 C   0  0  0  0  0  0  0  0  0  0  0  0
   -8.3628    4.4165  -17.7222 C   0  0  0  0  0  0  0  0  0  0  0  0
   -8.8781    4.1864  -19.0654 C   0  0  0  0  0  0  0  0  0  0  0  0
   -9.1370    4.0423  -16.6601 N   0  0  0  0  0  0  0  0  0  0  0  0
   -8.4184    4.3406  -15.6107 C   0  0  0  0  0  0  0  0  0  0  0  0
   -7.2111    4.8846  -15.9593 N   0  0  0  0  0  0  0  0  0  0  0  0
   -6.2619    5.3199  -14.9837 C   0  0  0  0  0  0  0  0  0  0  0  0
  1  2  2  0
  2  3  1  0
  2  4  1  0
  4  5  2  0
  4  6  1  0
  6  7  1  0
  7  8  2  0
  8  9  1  0
  8 10  1  0
 10 11  2  0
 11 12  1  0
 12 13  1  0
 12  7  1  0
M  END
>  <energy_score>  (2579) 
-22.616302

>  <alias>  (2579) 
None

>  <HIPPO Pose ID>  (2579) 
75134

>  <smiles>  (2579) 
C=C(C)C(=O)Nc1c(C)ncn1C

>  <inchikey>  (2579) 
AHAJHWFFTOBUTQ-UHFFFAOYSA-N

>  <distance_score>  (2579) 
1.284971

>  <ref_mols>  (2579) 
Z0719a,Z1597a

>  <ref_pdb>  (2579) 
Z0719a

>  <HIPPO Compound ID>  (2579) 
149462

>  <name>  (2579) 
P75134

>  <inspiration_score>  (2579) 
None

$$$$
P75135
     RDKit          3D

 13 13  0  0  0  0  0  0  0  0999 V2000
   -2.7802    6.1554  -20.0370 C   0  0  0  0  0  0  0  0  0  0  0  0
   -4.0736    6.5117  -19.9630 C   0  0  0  0  0  0  0  0  0  0  0  0
   -4.7779    7.3172  -21.0002 C   0  0  0  0  0  0  0  0  0  0  0  0
   -4.7743    6.2153  -18.6736 C   0  0  0  0  0  0  0  0  0  0  0  0
   -4.3196    6.5797  -17.6604 O   0  0  0  0  0  0  0  0  0  0  0  0
   -6.0479    5.3792  -18.9605 N   0  0  0  0  0  0  0  0  0  0  0  0
   -7.0253    4.9236  -18.1108 C   0  0  0  0  0  0  0  0  0  0  0  0
   -8.2755    4.4201  -18.4150 C   0  0  0  0  0  0  0  0  0  0  0  0
   -8.9914    4.1251  -17.2806 N   0  0  0  0  0  0  0  0  0  0  0  0
   -8.2006    4.4528  -16.2812 C   0  0  0  0  0  0  0  0  0  0  0  0
   -8.5091    4.4080  -14.8333 C   0  0  0  0  0  0  0  0  0  0  0  0
   -6.9676    4.8491  -16.7430 N   0  0  0  0  0  0  0  0  0  0  0  0
   -5.8310    5.0159  -15.8840 C   0  0  0  0  0  0  0  0  0  0  0  0
  1  2  2  0
  2  3  1  0
  2  4  1  0
  4  5  2  0
  4  6  1  0
  6  7  1  0
  7  8  2  0
  8  9  1  0
  9 10  2  0
 10 11  1  0
 10 12  1  0
 12 13  1  0
 12  7  1  0
M  END
>  <energy_score>  (2580) 
-18.738882

>  <alias>  (2580) 
None

>  <HIPPO Pose ID>  (2580) 
75135

>  <smiles>  (2580) 
C=C(C)C(=O)Nc1cnc(C)n1C

>  <inchikey>  (2580) 
VFVKTNRBASZHIM-UHFFFAOYSA-N

>  <distance_score>  (2580) 
1.248021

>  <ref_mols>  (2580) 
Z0719a,Z1597a

>  <ref_pdb>  (2580) 
Z0719a

>  <HIPPO Compound ID>  (2580) 
149463

>  <name>  (2580) 
P75135

>  <inspiration_score>  (2580) 
None

$$$$
P75137
     RDKit          3D

 13 14  0  0  0  0  0  0  0  0999 V2000
   -8.1803    6.7226  -11.6975 C   0  0  0  0  0  0  0  0  0  0  0  0
   -8.0479    5.3382  -11.3232 N   0  0  0  0  0  0  0  0  0  0  0  0
   -8.1415    4.8978  -10.0272 C   0  0  0  0  0  0  0  0  0  0  0  0
   -8.1162    3.5909   -9.9535 N   0  0  0  0  0  0  0  0  0  0  0  0
   -8.0176    3.1684  -11.2507 C   0  0  0  0  0  0  0  0  0  0  0  0
   -7.9247    4.2313  -12.1282 C   0  0  0  0  0  0  0  0  0  0  0  0
   -7.7513    4.1806  -13.4874 N   0  0  0  0  0  0  0  0  0  0  0  0
   -7.2982    5.2680  -14.4796 C   0  0  0  0  0  0  0  0  0  0  0  0
   -7.0746    6.3998  -14.3106 O   0  0  0  0  0  0  0  0  0  0  0  0
   -7.1603    4.6973  -15.8586 C   0  0  2  0  0  0  0  0  0  0  0  0
   -6.8645    5.6258  -17.0209 C   0  0  0  0  0  0  0  0  0  0  0  0
   -8.2299    5.0396  -16.8478 C   0  0  1  0  0  0  0  0  0  0  0  0
   -8.7888    3.9937  -18.1007 Cl  0  0  0  0  0  0  0  0  0  0  0  0
  1  2  1  0
  2  3  1  0
  3  4  2  0
  4  5  1  0
  5  6  2  0
  6  7  1  0
  7  8  1  0
  8  9  2  0
 10  8  1  1
 10 11  1  0
 11 12  1  0
 12 13  1  6
  6  2  1  0
 12 10  1  0
M  END
>  <energy_score>  (2581) 
-10.631113

>  <alias>  (2581) 
None

>  <HIPPO Pose ID>  (2581) 
75137

>  <smiles>  (2581) 
Cn1cncc1NC(=O)[C@@H]1C[C@H]1Cl

>  <inchikey>  (2581) 
HBBPDPYQTIFTQX-PHDIDXHHSA-N

>  <distance_score>  (2581) 
1.389737

>  <ref_mols>  (2581) 
Z0719a,Z1597a

>  <ref_pdb>  (2581) 
Z0719a

>  <HIPPO Compound ID>  (2581) 
149465

>  <name>  (2581) 
P75137

>  <inspiration_score>  (2581) 
None

$$$$
P75139
     RDKit          3D

 13 14  0  0  0  0  0  0  0  0999 V2000
   -8.3842    3.4213   -9.0035 C   0  0  0  0  0  0  0  0  0  0  0  0
   -8.2676    4.0611  -10.2846 N   0  0  0  0  0  0  0  0  0  0  0  0
   -8.1367    5.3994  -10.5120 C   0  0  0  0  0  0  0  0  0  0  0  0
   -8.0460    5.6604  -11.7987 N   0  0  0  0  0  0  0  0  0  0  0  0
   -8.1330    4.4454  -12.4131 C   0  0  0  0  0  0  0  0  0  0  0  0
   -8.0601    4.2603  -13.7546 N   0  0  0  0  0  0  0  0  0  0  0  0
   -7.8342    5.2703  -14.8916 C   0  0  0  0  0  0  0  0  0  0  0  0
   -7.7512    6.4325  -14.8649 O   0  0  0  0  0  0  0  0  0  0  0  0
   -7.6668    4.5354  -16.1767 C   0  0  1  0  0  0  0  0  0  0  0  0
   -8.7851    4.5185  -17.1892 C   0  0  0  0  0  0  0  0  0  0  0  0
   -7.5334    5.2883  -17.4675 C   0  0  2  0  0  0  0  0  0  0  0  0
   -6.4825    4.7109  -18.7162 Cl  0  0  0  0  0  0  0  0  0  0  0  0
   -8.2703    3.4335  -11.4953 C   0  0  0  0  0  0  0  0  0  0  0  0
  1  2  1  0
  2  3  1  0
  3  4  2  0
  4  5  1  0
  5  6  1  0
  6  7  1  0
  7  8  2  0
  9  7  1  1
  9 10  1  0
 10 11  1  0
 11 12  1  6
  5 13  2  0
 13  2  1  0
 11  9  1  0
M  END
>  <energy_score>  (2582) 
-23.061394

>  <alias>  (2582) 
None

>  <HIPPO Pose ID>  (2582) 
75139

>  <smiles>  (2582) 
Cn1cnc(NC(=O)[C@H]2C[C@@H]2Cl)c1

>  <inchikey>  (2582) 
BSNPITYYYKHLGZ-WDSKDSINSA-N

>  <distance_score>  (2582) 
1.200472

>  <ref_mols>  (2582) 
Z0719a,Z1597a

>  <ref_pdb>  (2582) 
Z0719a

>  <HIPPO Compound ID>  (2582) 
149466

>  <name>  (2582) 
P75139

>  <inspiration_score>  (2582) 
None

$$$$
P75141
     RDKit          3D

 13 13  0  0  0  0  0  0  0  0999 V2000
   -8.7364    4.4902  -15.5580 C   0  0  0  0  0  0  0  0  0  0  0  0
   -8.0538    4.6626  -16.8034 N   0  0  0  0  0  0  0  0  0  0  0  0
   -8.4037    4.1226  -17.9969 C   0  0  0  0  0  0  0  0  0  0  0  0
   -7.4813    4.3620  -18.9025 N   0  0  0  0  0  0  0  0  0  0  0  0
   -6.5896    5.1872  -18.3003 C   0  0  0  0  0  0  0  0  0  0  0  0
   -5.5455    5.7074  -18.9822 N   0  0  0  0  0  0  0  0  0  0  0  0
   -4.3969    6.6471  -18.5100 C   0  0  0  0  0  0  0  0  0  0  0  0
   -4.2238    7.1751  -17.4785 O   0  0  0  0  0  0  0  0  0  0  0  0
   -3.4091    6.8544  -19.6975 C   0  0  0  0  0  0  0  0  0  0  0  0
   -4.1007    7.4008  -20.9488 C   0  0  0  0  0  0  0  0  0  0  0  0
   -2.2975    7.8362  -19.2852 C   0  0  0  0  0  0  0  0  0  0  0  0
   -2.5791    5.2557  -20.0677 S   0  0  0  0  0  0  0  0  0  0  0  0
   -6.9187    5.3917  -16.9888 C   0  0  0  0  0  0  0  0  0  0  0  0
  1  2  1  0
  2  3  1  0
  3  4  2  0
  4  5  1  0
  5  6  1  0
  6  7  1  0
  7  8  2  0
  7  9  1  0
  9 10  1  0
  9 11  1  0
  9 12  1  0
  5 13  2  0
 13  2  1  0
M  END
>  <energy_score>  (2583) 
-8.788462

>  <alias>  (2583) 
None

>  <HIPPO Pose ID>  (2583) 
75141

>  <smiles>  (2583) 
Cn1cnc(NC(=O)C(C)(C)S)c1

>  <inchikey>  (2583) 
USWQSIMFLZFJRJ-UHFFFAOYSA-N

>  <distance_score>  (2583) 
1.48415

>  <ref_mols>  (2583) 
Z0719a,Z1597a

>  <ref_pdb>  (2583) 
Z0719a

>  <HIPPO Compound ID>  (2583) 
149467

>  <name>  (2583) 
P75141

>  <inspiration_score>  (2583) 
None

$$$$
P75142
     RDKit          3D

 13 13  0  0  0  0  0  0  0  0999 V2000
   -2.8981    7.6300  -21.1037 C   0  0  0  0  0  0  0  0  0  0  0  0
   -3.4514    7.2534  -19.7394 C   0  0  0  0  0  0  0  0  0  0  0  0
   -4.5219    6.1827  -19.8334 C   0  0  0  0  0  0  0  0  0  0  0  0
   -5.1230    5.8101  -18.4806 C   0  0  0  0  0  0  0  0  0  0  0  0
   -4.5101    5.7744  -17.4878 O   0  0  0  0  0  0  0  0  0  0  0  0
   -6.6130    5.4687  -18.7562 N   0  0  0  0  0  0  0  0  0  0  0  0
   -7.5702    4.9536  -17.9325 C   0  0  0  0  0  0  0  0  0  0  0  0
   -8.8347    4.8046  -18.4412 N   0  0  0  0  0  0  0  0  0  0  0  0
   -9.6401    4.3216  -17.4578 C   0  0  0  0  0  0  0  0  0  0  0  0
   -8.9642    4.0958  -16.3607 N   0  0  0  0  0  0  0  0  0  0  0  0
   -7.6701    4.5057  -16.6275 C   0  0  0  0  0  0  0  0  0  0  0  0
   -6.6823    4.3857  -15.5968 C   0  0  0  0  0  0  0  0  0  0  0  0
   -5.8978    4.2583  -14.7473 N   0  0  0  0  0  0  0  0  0  0  0  0
  1  2  1  0
  2  3  1  0
  3  4  1  0
  4  5  2  0
  4  6  1  0
  6  7  1  0
  7  8  1  0
  8  9  1  0
  9 10  2  0
 10 11  1  0
 11 12  1  0
 12 13  3  0
 11  7  2  0
M  END
>  <energy_score>  (2584) 
-13.746484

>  <alias>  (2584) 
None

>  <HIPPO Pose ID>  (2584) 
75142

>  <smiles>  (2584) 
CCCC(=O)Nc1[nH]cnc1C#N

>  <inchikey>  (2584) 
XLKYJPODPDIPCC-UHFFFAOYSA-N

>  <distance_score>  (2584) 
1.987028

>  <ref_mols>  (2584) 
Z0719a,Z1597a

>  <ref_pdb>  (2584) 
Z0719a

>  <HIPPO Compound ID>  (2584) 
149468

>  <name>  (2584) 
P75142

>  <inspiration_score>  (2584) 
None

$$$$
P75143
     RDKit          3D

 13 13  0  0  0  0  0  0  0  0999 V2000
   -3.7341    7.5621  -21.2499 C   0  0  0  0  0  0  0  0  0  0  0  0
   -4.6447    7.0742  -20.1358 C   0  0  0  0  0  0  0  0  0  0  0  0
   -4.0045    5.9646  -19.3064 C   0  0  0  0  0  0  0  0  0  0  0  0
   -4.6855    5.7481  -17.9542 C   0  0  0  0  0  0  0  0  0  0  0  0
   -4.1241    5.9088  -16.9405 O   0  0  0  0  0  0  0  0  0  0  0  0
   -6.1202    5.2197  -18.2390 N   0  0  0  0  0  0  0  0  0  0  0  0
   -7.1353    4.8891  -17.3770 C   0  0  0  0  0  0  0  0  0  0  0  0
   -8.3902    4.4317  -17.7308 C   0  0  0  0  0  0  0  0  0  0  0  0
   -8.9409    4.1770  -19.0556 C   0  0  0  0  0  0  0  0  0  0  0  0
   -9.1593    4.1342  -16.6416 N   0  0  0  0  0  0  0  0  0  0  0  0
   -8.3926    4.3974  -15.6179 C   0  0  0  0  0  0  0  0  0  0  0  0
   -7.1681    4.8705  -16.0090 N   0  0  0  0  0  0  0  0  0  0  0  0
   -6.1448    5.2000  -15.0684 C   0  0  0  0  0  0  0  0  0  0  0  0
  1  2  1  0
  2  3  1  0
  3  4  1  0
  4  5  2  0
  4  6  1  0
  6  7  1  0
  7  8  2  0
  8  9  1  0
  8 10  1  0
 10 11  2  0
 11 12  1  0
 12 13  1  0
 12  7  1  0
M  END
>  <energy_score>  (2585) 
-24.043554

>  <alias>  (2585) 
None

>  <HIPPO Pose ID>  (2585) 
75143

>  <smiles>  (2585) 
CCCC(=O)Nc1c(C)ncn1C

>  <inchikey>  (2585) 
NSTLUPRVMZCXBS-UHFFFAOYSA-N

>  <distance_score>  (2585) 
1.315272

>  <ref_mols>  (2585) 
Z0719a,Z1597a

>  <ref_pdb>  (2585) 
Z0719a

>  <HIPPO Compound ID>  (2585) 
149469

>  <name>  (2585) 
P75143

>  <inspiration_score>  (2585) 
None

$$$$
P75146
     RDKit          3D

 13 13  0  0  0  0  0  0  0  0999 V2000
   -8.3802    4.2117  -14.7588 C   0  0  0  0  0  0  0  0  0  0  0  0
   -8.1752    4.4636  -16.2052 C   0  0  0  0  0  0  0  0  0  0  0  0
   -8.8961    4.0018  -17.2076 N   0  0  0  0  0  0  0  0  0  0  0  0
   -8.2105    4.3662  -18.3422 C   0  0  0  0  0  0  0  0  0  0  0  0
   -7.0362    5.0199  -18.0263 C   0  0  0  0  0  0  0  0  0  0  0  0
   -5.9892    5.3628  -18.8405 N   0  0  0  0  0  0  0  0  0  0  0  0
   -4.5556    5.8625  -18.4884 C   0  0  0  0  0  0  0  0  0  0  0  0
   -4.0783    6.1303  -17.4533 O   0  0  0  0  0  0  0  0  0  0  0  0
   -3.7389    5.9245  -19.7602 C   0  0  0  0  0  0  0  0  0  0  0  0
   -4.1893    7.0551  -20.6657 C   0  0  0  0  0  0  0  0  0  0  0  0
   -2.9688    7.3026  -21.9944 S   0  0  0  0  0  0  0  0  0  0  0  0
   -7.1319    5.2230  -16.6756 N   0  0  0  0  0  0  0  0  0  0  0  0
   -6.3863    6.1310  -15.8553 C   0  0  0  0  0  0  0  0  0  0  0  0
  1  2  1  0
  2  3  2  0
  3  4  1  0
  4  5  2  0
  5  6  1  0
  6  7  1  0
  7  8  2  0
  7  9  1  0
  9 10  1  0
 10 11  1  0
  5 12  1  0
 12 13  1  0
 12  2  1  0
M  END
>  <energy_score>  (2586) 
-2.422955

>  <alias>  (2586) 
None

>  <HIPPO Pose ID>  (2586) 
75146

>  <smiles>  (2586) 
Cc1ncc(NC(=O)CCS)n1C

>  <inchikey>  (2586) 
NJNBQWMTIGFJCS-UHFFFAOYSA-N

>  <distance_score>  (2586) 
1.350765

>  <ref_mols>  (2586) 
Z0719a,Z1597a

>  <ref_pdb>  (2586) 
Z0719a

>  <HIPPO Compound ID>  (2586) 
149474

>  <name>  (2586) 
P75146

>  <inspiration_score>  (2586) 
None

$$$$
P75147
     RDKit          3D

 13 13  0  0  0  0  0  0  0  0999 V2000
   -2.3330    5.9577  -20.0994 C   0  0  0  0  0  0  0  0  0  0  0  0
   -3.6105    6.3676  -20.0231 C   0  0  0  0  0  0  0  0  0  0  0  0
   -4.2801    7.2443  -21.0415 C   0  0  0  0  0  0  0  0  0  0  0  0
   -4.4258    8.6787  -20.5488 C   0  0  0  0  0  0  0  0  0  0  0  0
   -4.3417    6.0303  -18.7590 C   0  0  0  0  0  0  0  0  0  0  0  0
   -3.9130    6.3570  -17.7238 O   0  0  0  0  0  0  0  0  0  0  0  0
   -5.6464    5.2857  -19.1118 N   0  0  0  0  0  0  0  0  0  0  0  0
   -6.6754    4.8963  -18.3258 C   0  0  0  0  0  0  0  0  0  0  0  0
   -6.7469    4.9785  -16.9635 C   0  0  0  0  0  0  0  0  0  0  0  0
   -7.9897    4.5179  -16.6543 N   0  0  0  0  0  0  0  0  0  0  0  0
   -8.5173    4.4119  -15.3288 C   0  0  0  0  0  0  0  0  0  0  0  0
   -8.6241    4.2068  -17.8127 C   0  0  0  0  0  0  0  0  0  0  0  0
   -7.8234    4.3854  -18.8404 N   0  0  0  0  0  0  0  0  0  0  0  0
  1  2  2  0
  2  3  1  0
  3  4  1  0
  2  5  1  0
  5  6  2  0
  5  7  1  0
  7  8  1  0
  8  9  2  0
  9 10  1  0
 10 11  1  0
 10 12  1  0
 12 13  2  0
 13  8  1  0
M  END
>  <energy_score>  (2587) 
-5.947825

>  <alias>  (2587) 
None

>  <HIPPO Pose ID>  (2587) 
75147

>  <smiles>  (2587) 
C=C(CC)C(=O)Nc1cn(C)cn1

>  <inchikey>  (2587) 
ZNACXTVBCLWDAB-UHFFFAOYSA-N

>  <distance_score>  (2587) 
1.416411

>  <ref_mols>  (2587) 
Z0719a,Z1597a

>  <ref_pdb>  (2587) 
Z0719a

>  <HIPPO Compound ID>  (2587) 
149478

>  <name>  (2587) 
P75147

>  <inspiration_score>  (2587) 
None

$$$$
P75148
     RDKit          3D

 13 13  0  0  0  0  0  0  0  0999 V2000
   -4.5080    8.6821  -20.4196 C   0  0  0  0  0  0  0  0  0  0  0  0
   -4.2085    7.3172  -21.0223 C   0  0  0  0  0  0  0  0  0  0  0  0
   -3.4402    6.4073  -20.0686 C   0  0  2  0  0  0  0  0  0  0  0  0
   -3.0368    5.2945  -20.7592 F   0  0  0  0  0  0  0  0  0  0  0  0
   -4.2099    6.0524  -18.7886 C   0  0  0  0  0  0  0  0  0  0  0  0
   -3.8178    6.3907  -17.7379 O   0  0  0  0  0  0  0  0  0  0  0  0
   -5.5076    5.2916  -19.1827 N   0  0  0  0  0  0  0  0  0  0  0  0
   -6.5613    4.9021  -18.4282 C   0  0  0  0  0  0  0  0  0  0  0  0
   -6.7277    5.0646  -17.0798 C   0  0  0  0  0  0  0  0  0  0  0  0
   -7.9628    4.5510  -16.8182 N   0  0  0  0  0  0  0  0  0  0  0  0
   -8.5632    4.4544  -15.5220 C   0  0  0  0  0  0  0  0  0  0  0  0
   -8.5082    4.1536  -17.9950 C   0  0  0  0  0  0  0  0  0  0  0  0
   -7.6486    4.3054  -18.9785 N   0  0  0  0  0  0  0  0  0  0  0  0
  1  2  1  0
  2  3  1  0
  3  4  1  6
  3  5  1  0
  5  6  2  0
  5  7  1  0
  7  8  1  0
  8  9  2  0
  9 10  1  0
 10 11  1  0
 10 12  1  0
 12 13  2  0
 13  8  1  0
M  END
>  <energy_score>  (2588) 
-30.178163

>  <alias>  (2588) 
None

>  <HIPPO Pose ID>  (2588) 
75148

>  <smiles>  (2588) 
CC[C@H](F)C(=O)Nc1cn(C)cn1

>  <inchikey>  (2588) 
HZPXGAKJUJTDKT-LURJTMIESA-N

>  <distance_score>  (2588) 
1.47319

>  <ref_mols>  (2588) 
Z0719a,Z1597a

>  <ref_pdb>  (2588) 
Z0719a

>  <HIPPO Compound ID>  (2588) 
149479

>  <name>  (2588) 
P75148

>  <inspiration_score>  (2588) 
None

$$$$
P75155
     RDKit          3D

 13 14  0  0  0  0  0  0  0  0999 V2000
   -8.4028    3.1622   -9.2199 C   0  0  0  0  0  0  0  0  0  0  0  0
   -8.1872    3.9483  -10.4034 N   0  0  0  0  0  0  0  0  0  0  0  0
   -7.8704    5.2738  -10.4364 C   0  0  0  0  0  0  0  0  0  0  0  0
   -7.7434    5.7031  -11.6723 N   0  0  0  0  0  0  0  0  0  0  0  0
   -8.0021    4.6172  -12.4593 C   0  0  0  0  0  0  0  0  0  0  0  0
   -7.9975    4.6707  -13.8173 N   0  0  0  0  0  0  0  0  0  0  0  0
   -7.7308    5.8482  -14.7697 C   0  0  0  0  0  0  0  0  0  0  0  0
   -7.3971    6.9416  -14.5445 O   0  0  0  0  0  0  0  0  0  0  0  0
   -8.0271    5.4791  -16.1780 C   0  0  1  0  0  0  0  0  0  0  0  0
   -7.0950    6.0059  -17.2690 C   0  0  0  0  0  0  0  0  0  0  0  0
   -7.1827    4.5551  -16.9835 C   0  0  2  0  0  0  0  0  0  0  0  0
   -7.8381    3.8240  -17.9552 F   0  0  0  0  0  0  0  0  0  0  0  0
   -8.2786    3.5111  -11.6946 C   0  0  0  0  0  0  0  0  0  0  0  0
  1  2  1  0
  2  3  1  0
  3  4  2  0
  4  5  1  0
  5  6  1  0
  6  7  1  0
  7  8  2  0
  9  7  1  1
  9 10  1  0
 10 11  1  0
 11 12  1  6
  5 13  2  0
 13  2  1  0
 11  9  1  0
M  END
>  <energy_score>  (2589) 
-8.920189

>  <alias>  (2589) 
None

>  <HIPPO Pose ID>  (2589) 
75155

>  <smiles>  (2589) 
Cn1cnc(NC(=O)[C@H]2C[C@@H]2F)c1

>  <inchikey>  (2589) 
IHRBTQSIXNMAIZ-WDSKDSINSA-N

>  <distance_score>  (2589) 
1.203381

>  <ref_mols>  (2589) 
Z0719a,Z1597a

>  <ref_pdb>  (2589) 
Z0719a

>  <HIPPO Compound ID>  (2589) 
149482

>  <name>  (2589) 
P75155

>  <inspiration_score>  (2589) 
None

$$$$
P75157
     RDKit          3D

 13 14  0  0  0  0  0  0  0  0999 V2000
   -5.1235    3.7856  -14.8600 C   0  0  0  0  0  0  0  0  0  0  0  0
   -6.1249    4.8526  -15.1045 C   0  0  1  0  0  0  0  0  0  0  0  0
   -6.9942    5.0572  -16.3143 C   0  0  0  0  0  0  0  0  0  0  0  0
   -7.6002    4.4366  -15.0890 C   0  0  2  0  0  0  0  0  0  0  0  0
   -8.2618    5.0671  -13.9201 C   0  0  0  0  0  0  0  0  0  0  0  0
   -8.8107    6.0939  -13.9872 O   0  0  0  0  0  0  0  0  0  0  0  0
   -7.9707    4.1665  -12.7029 N   0  0  0  0  0  0  0  0  0  0  0  0
   -8.1964    4.3722  -11.3767 C   0  0  0  0  0  0  0  0  0  0  0  0
   -8.1407    3.4294  -10.3704 C   0  0  0  0  0  0  0  0  0  0  0  0
   -8.2805    4.0098   -9.1407 N   0  0  0  0  0  0  0  0  0  0  0  0
   -8.4244    5.2888   -9.3885 C   0  0  0  0  0  0  0  0  0  0  0  0
   -8.3883    5.5640  -10.7316 N   0  0  0  0  0  0  0  0  0  0  0  0
   -8.3594    6.8983  -11.2746 C   0  0  0  0  0  0  0  0  0  0  0  0
  2  1  1  6
  2  3  1  0
  3  4  1  0
  4  5  1  1
  5  6  2  0
  5  7  1  0
  7  8  1  0
  8  9  2  0
  9 10  1  0
 10 11  2  0
 11 12  1  0
 12 13  1  0
  4  2  1  0
 12  8  1  0
M  END
>  <energy_score>  (2590) 
-12.479968

>  <alias>  (2590) 
None

>  <HIPPO Pose ID>  (2590) 
75157

>  <smiles>  (2590) 
C[C@H]1C[C@@H]1C(=O)Nc1cncn1C

>  <inchikey>  (2590) 
TXVHIIMCCBFBLS-BQBZGAKWSA-N

>  <distance_score>  (2590) 
1.583974

>  <ref_mols>  (2590) 
Z0719a,Z1597a

>  <ref_pdb>  (2590) 
Z0719a

>  <HIPPO Compound ID>  (2590) 
149484

>  <name>  (2590) 
P75157

>  <inspiration_score>  (2590) 
None

$$$$
P75159
     RDKit          3D

 13 14  0  0  0  0  0  0  0  0999 V2000
   -5.1833    3.7964  -14.7286 C   0  0  0  0  0  0  0  0  0  0  0  0
   -5.6859    4.7537  -15.7744 C   0  0  1  0  0  0  0  0  0  0  0  0
   -7.0799    4.6404  -16.3339 C   0  0  0  0  0  0  0  0  0  0  0  0
   -6.7445    5.8009  -15.4298 C   0  0  1  0  0  0  0  0  0  0  0  0
   -7.0505    5.9838  -13.9689 C   0  0  0  0  0  0  0  0  0  0  0  0
   -6.6472    6.9495  -13.4577 O   0  0  0  0  0  0  0  0  0  0  0  0
   -7.7813    4.7744  -13.3735 N   0  0  0  0  0  0  0  0  0  0  0  0
   -8.0701    4.4689  -12.0938 C   0  0  0  0  0  0  0  0  0  0  0  0
   -7.6932    5.1010  -10.9403 C   0  0  0  0  0  0  0  0  0  0  0  0
   -8.1329    4.2780   -9.9440 N   0  0  0  0  0  0  0  0  0  0  0  0
   -7.9383    4.4593   -8.5354 C   0  0  0  0  0  0  0  0  0  0  0  0
   -8.7794    3.2354  -10.5224 C   0  0  0  0  0  0  0  0  0  0  0  0
   -8.7386    3.3224  -11.8313 N   0  0  0  0  0  0  0  0  0  0  0  0
  2  1  1  1
  2  3  1  0
  3  4  1  0
  4  5  1  1
  5  6  2  0
  5  7  1  0
  7  8  1  0
  8  9  2  0
  9 10  1  0
 10 11  1  0
 10 12  1  0
 12 13  2  0
  4  2  1  0
 13  8  1  0
M  END
>  <energy_score>  (2591) 
-4.370557

>  <alias>  (2591) 
None

>  <HIPPO Pose ID>  (2591) 
75159

>  <smiles>  (2591) 
C[C@H]1C[C@H]1C(=O)Nc1cn(C)cn1

>  <inchikey>  (2591) 
TVTLFVYRPDYFSV-NKWVEPMBSA-N

>  <distance_score>  (2591) 
1.85703

>  <ref_mols>  (2591) 
Z0719a,Z1597a

>  <ref_pdb>  (2591) 
Z0719a

>  <HIPPO Compound ID>  (2591) 
149485

>  <name>  (2591) 
P75159

>  <inspiration_score>  (2591) 
None

$$$$
P75160
     RDKit          3D

 13 13  0  0  0  0  0  0  0  0999 V2000
   -5.5765    7.4652  -16.9472 C   0  0  0  0  0  0  0  0  0  0  0  0
   -4.5049    7.4753  -17.7638 C   0  0  0  0  0  0  0  0  0  0  0  0
   -4.4456    6.7998  -19.1253 C   0  0  0  0  0  0  0  0  0  0  0  0
   -4.0812    5.3149  -18.9826 C   0  0  0  0  0  0  0  0  0  0  0  0
   -4.9839    4.6710  -17.9443 C   0  0  0  0  0  0  0  0  0  0  0  0
   -4.5995    4.3303  -16.8921 O   0  0  0  0  0  0  0  0  0  0  0  0
   -6.4249    4.6841  -18.5373 N   0  0  0  0  0  0  0  0  0  0  0  0
   -7.6210    4.3890  -17.9589 C   0  0  0  0  0  0  0  0  0  0  0  0
   -8.8283    4.2104  -18.6003 C   0  0  0  0  0  0  0  0  0  0  0  0
   -9.8332    3.9639  -17.7139 N   0  0  0  0  0  0  0  0  0  0  0  0
   -9.2662    4.0732  -16.5397 C   0  0  0  0  0  0  0  0  0  0  0  0
   -7.9199    4.2874  -16.6274 N   0  0  0  0  0  0  0  0  0  0  0  0
   -7.0963    4.4361  -15.4623 C   0  0  0  0  0  0  0  0  0  0  0  0
  1  2  2  0
  2  3  1  0
  3  4  1  0
  4  5  1  0
  5  6  2  0
  5  7  1  0
  7  8  1  0
  8  9  2  0
  9 10  1  0
 10 11  2  0
 11 12  1  0
 12 13  1  0
 12  8  1  0
M  END
>  <energy_score>  (2592) 
-10.908371

>  <alias>  (2592) 
None

>  <HIPPO Pose ID>  (2592) 
75160

>  <smiles>  (2592) 
C=CCCC(=O)Nc1cncn1C

>  <inchikey>  (2592) 
IKLNISMIOAOYRQ-UHFFFAOYSA-N

>  <distance_score>  (2592) 
1.938261

>  <ref_mols>  (2592) 
Z0719a,Z1597a

>  <ref_pdb>  (2592) 
Z0719a

>  <HIPPO Compound ID>  (2592) 
149487

>  <name>  (2592) 
P75160

>  <inspiration_score>  (2592) 
None

$$$$
P75161
     RDKit          3D

 13 13  0  0  0  0  0  0  0  0999 V2000
   -8.5471    3.9924  -15.5273 C   0  0  0  0  0  0  0  0  0  0  0  0
   -7.7169    4.8793  -16.2825 N   0  0  0  0  0  0  0  0  0  0  0  0
   -7.1201    5.9736  -15.7465 C   0  0  0  0  0  0  0  0  0  0  0  0
   -6.3626    6.5754  -16.6294 N   0  0  0  0  0  0  0  0  0  0  0  0
   -6.4724    5.8317  -17.7647 C   0  0  0  0  0  0  0  0  0  0  0  0
   -5.7274    6.1085  -18.8619 N   0  0  0  0  0  0  0  0  0  0  0  0
   -4.5919    7.1591  -19.0772 C   0  0  0  0  0  0  0  0  0  0  0  0
   -4.1848    7.9929  -18.3630 O   0  0  0  0  0  0  0  0  0  0  0  0
   -4.0345    6.9213  -20.4791 C   0  0  2  0  0  0  0  0  0  0  0  0
   -2.1487    7.4712  -20.4947 Br  0  0  0  0  0  0  0  0  0  0  0  0
   -4.8543    7.7125  -21.4636 C   0  0  0  0  0  0  0  0  0  0  0  0
   -4.3081    7.4732  -23.3196 Br  0  0  0  0  0  0  0  0  0  0  0  0
   -7.3613    4.7971  -17.5992 C   0  0  0  0  0  0  0  0  0  0  0  0
  1  2  1  0
  2  3  1  0
  3  4  2  0
  4  5  1  0
  5  6  1  0
  6  7  1  0
  7  8  2  0
  7  9  1  0
  9 10  1  1
  9 11  1  0
 11 12  1  0
  5 13  2  0
 13  2  1  0
M  END
>  <energy_score>  (2593) 
-24.557723

>  <alias>  (2593) 
None

>  <HIPPO Pose ID>  (2593) 
75161

>  <smiles>  (2593) 
Cn1cnc(NC(=O)[C@H](Br)CBr)c1

>  <inchikey>  (2593) 
IEZURWAKKJAXHW-RXMQYKEDSA-N

>  <distance_score>  (2593) 
1.975183

>  <ref_mols>  (2593) 
Z0719a,Z1597a

>  <ref_pdb>  (2593) 
Z0719a

>  <HIPPO Compound ID>  (2593) 
149488

>  <name>  (2593) 
P75161

>  <inspiration_score>  (2593) 
None

$$$$
P75163
     RDKit          3D

 13 13  0  0  0  0  0  0  0  0999 V2000
   -3.2271    7.6989  -20.3416 C   0  0  0  0  0  0  0  0  0  0  0  0
   -4.1043    6.6956  -20.2068 C   0  0  0  0  0  0  0  0  0  0  0  0
   -3.8672    5.4808  -19.3524 C   0  0  0  0  0  0  0  0  0  0  0  0
   -4.7612    5.4022  -18.1077 C   0  0  0  0  0  0  0  0  0  0  0  0
   -4.3329    5.5002  -17.0249 O   0  0  0  0  0  0  0  0  0  0  0  0
   -6.2088    5.1117  -18.5961 N   0  0  0  0  0  0  0  0  0  0  0  0
   -7.3384    4.8063  -17.8904 C   0  0  0  0  0  0  0  0  0  0  0  0
   -8.5536    4.7772  -18.5279 N   0  0  0  0  0  0  0  0  0  0  0  0
   -9.5068    4.4333  -17.6151 C   0  0  0  0  0  0  0  0  0  0  0  0
   -8.9818    4.2160  -16.4361 N   0  0  0  0  0  0  0  0  0  0  0  0
   -7.6316    4.4699  -16.5796 C   0  0  0  0  0  0  0  0  0  0  0  0
   -6.7640    4.2985  -15.4515 C   0  0  0  0  0  0  0  0  0  0  0  0
   -6.0655    4.1353  -14.5359 N   0  0  0  0  0  0  0  0  0  0  0  0
  1  2  2  0
  2  3  1  0
  3  4  1  0
  4  5  2  0
  4  6  1  0
  6  7  1  0
  7  8  1  0
  8  9  1  0
  9 10  2  0
 10 11  1  0
 11 12  1  0
 12 13  3  0
 11  7  2  0
M  END
>  <energy_score>  (2594) 
-3.293224

>  <alias>  (2594) 
None

>  <HIPPO Pose ID>  (2594) 
75163

>  <smiles>  (2594) 
C=CCC(=O)Nc1[nH]cnc1C#N

>  <inchikey>  (2594) 
QIMXETVHCKDPCT-UHFFFAOYSA-N

>  <distance_score>  (2594) 
1.266157

>  <ref_mols>  (2594) 
Z0719a,Z1597a

>  <ref_pdb>  (2594) 
Z0719a

>  <HIPPO Compound ID>  (2594) 
149490

>  <name>  (2594) 
P75163

>  <inspiration_score>  (2594) 
None

$$$$
P75164
     RDKit          3D

 13 13  0  0  0  0  0  0  0  0999 V2000
   -4.9872    7.5058  -20.9206 C   0  0  0  0  0  0  0  0  0  0  0  0
   -4.1347    7.1905  -19.9379 C   0  0  0  0  0  0  0  0  0  0  0  0
   -4.0261    5.8502  -19.2759 C   0  0  0  0  0  0  0  0  0  0  0  0
   -4.7447    5.8163  -17.9211 C   0  0  0  0  0  0  0  0  0  0  0  0
   -4.2251    6.1019  -16.9115 O   0  0  0  0  0  0  0  0  0  0  0  0
   -6.1838    5.2873  -18.2019 N   0  0  0  0  0  0  0  0  0  0  0  0
   -7.1857    4.9326  -17.3372 C   0  0  0  0  0  0  0  0  0  0  0  0
   -8.4301    4.4502  -17.6935 C   0  0  0  0  0  0  0  0  0  0  0  0
   -8.9738    4.1940  -19.0219 C   0  0  0  0  0  0  0  0  0  0  0  0
   -9.1871    4.1230  -16.6048 N   0  0  0  0  0  0  0  0  0  0  0  0
   -8.4225    4.3936  -15.5808 C   0  0  0  0  0  0  0  0  0  0  0  0
   -7.2086    4.8935  -15.9708 N   0  0  0  0  0  0  0  0  0  0  0  0
   -6.1841    5.2275  -15.0333 C   0  0  0  0  0  0  0  0  0  0  0  0
  1  2  2  0
  2  3  1  0
  3  4  1  0
  4  5  2  0
  4  6  1  0
  6  7  1  0
  7  8  2  0
  8  9  1  0
  8 10  1  0
 10 11  2  0
 11 12  1  0
 12 13  1  0
 12  7  1  0
M  END
>  <energy_score>  (2595) 
-20.053634

>  <alias>  (2595) 
None

>  <HIPPO Pose ID>  (2595) 
75164

>  <smiles>  (2595) 
C=CCC(=O)Nc1c(C)ncn1C

>  <inchikey>  (2595) 
VXLYQBZNTUVUTA-UHFFFAOYSA-N

>  <distance_score>  (2595) 
1.380792

>  <ref_mols>  (2595) 
Z0719a,Z1597a

>  <ref_pdb>  (2595) 
Z0719a

>  <HIPPO Compound ID>  (2595) 
149491

>  <name>  (2595) 
P75164

>  <inspiration_score>  (2595) 
None

$$$$
P75165
     RDKit          3D

 13 13  0  0  0  0  0  0  0  0999 V2000
   -3.8112    8.2892  -21.2646 C   0  0  0  0  0  0  0  0  0  0  0  0
   -4.4440    7.1827  -20.8527 C   0  0  0  0  0  0  0  0  0  0  0  0
   -3.8810    6.2055  -19.8671 C   0  0  0  0  0  0  0  0  0  0  0  0
   -4.6793    6.1316  -18.5671 C   0  0  0  0  0  0  0  0  0  0  0  0
   -4.2278    6.4978  -17.5490 O   0  0  0  0  0  0  0  0  0  0  0  0
   -6.0390    5.4257  -18.8760 N   0  0  0  0  0  0  0  0  0  0  0  0
   -7.0181    4.9691  -18.0296 C   0  0  0  0  0  0  0  0  0  0  0  0
   -8.2497    4.4331  -18.3557 C   0  0  0  0  0  0  0  0  0  0  0  0
   -8.9819    4.1309  -17.2350 N   0  0  0  0  0  0  0  0  0  0  0  0
   -8.2195    4.4831  -16.2222 C   0  0  0  0  0  0  0  0  0  0  0  0
   -8.5541    4.4295  -14.7812 C   0  0  0  0  0  0  0  0  0  0  0  0
   -6.9906    4.9176  -16.6600 N   0  0  0  0  0  0  0  0  0  0  0  0
   -5.8813    5.1325  -15.7771 C   0  0  0  0  0  0  0  0  0  0  0  0
  1  2  2  0
  2  3  1  0
  3  4  1  0
  4  5  2  0
  4  6  1  0
  6  7  1  0
  7  8  2  0
  8  9  1  0
  9 10  2  0
 10 11  1  0
 10 12  1  0
 12 13  1  0
 12  7  1  0
M  END
>  <energy_score>  (2596) 
-16.657052

>  <alias>  (2596) 
None

>  <HIPPO Pose ID>  (2596) 
75165

>  <smiles>  (2596) 
C=CCC(=O)Nc1cnc(C)n1C

>  <inchikey>  (2596) 
KUCRPAGXQPZFMR-UHFFFAOYSA-N

>  <distance_score>  (2596) 
1.452293

>  <ref_mols>  (2596) 
Z0719a,Z1597a

>  <ref_pdb>  (2596) 
Z0719a

>  <HIPPO Compound ID>  (2596) 
149492

>  <name>  (2596) 
P75165

>  <inspiration_score>  (2596) 
None

$$$$
P75166
     RDKit          3D

 13 13  0  0  0  0  0  0  0  0999 V2000
   -4.7216    8.4854  -20.3710 C   0  0  0  0  0  0  0  0  0  0  0  0
   -4.8468    7.1517  -20.3668 C   0  0  0  0  0  0  0  0  0  0  0  0
   -3.8579    6.2130  -19.7489 C   0  0  0  0  0  0  0  0  0  0  0  0
   -4.1257    5.6102  -18.3571 C   0  0  0  0  0  0  0  0  0  0  0  0
   -3.2176    5.2779  -17.6942 O   0  0  0  0  0  0  0  0  0  0  0  0
   -5.6547    5.4593  -18.1199 N   0  0  0  0  0  0  0  0  0  0  0  0
   -6.3354    4.9875  -17.0501 C   0  0  0  0  0  0  0  0  0  0  0  0
   -5.7829    4.4319  -15.9297 C   0  0  0  0  0  0  0  0  0  0  0  0
   -6.8337    4.0166  -15.1677 N   0  0  0  0  0  0  0  0  0  0  0  0
   -6.7893    3.3003  -13.9039 C   0  0  0  0  0  0  0  0  0  0  0  0
   -5.4072    3.0464  -13.3025 C   0  0  0  0  0  0  0  0  0  0  0  0
   -7.9736    4.3849  -15.8392 C   0  0  0  0  0  0  0  0  0  0  0  0
   -7.6924    4.9955  -16.9742 N   0  0  0  0  0  0  0  0  0  0  0  0
  1  2  2  0
  2  3  1  0
  3  4  1  0
  4  5  2  0
  4  6  1  0
  6  7  1  0
  7  8  2  0
  8  9  1  0
  9 10  1  0
 10 11  1  0
  9 12  1  0
 12 13  2  0
 13  7  1  0
M  END
>  <energy_score>  (2597) 
-24.223819

>  <alias>  (2597) 
None

>  <HIPPO Pose ID>  (2597) 
75166

>  <smiles>  (2597) 
C=CCC(=O)Nc1cn(CC)cn1

>  <inchikey>  (2597) 
CVSVKMKOWLLJJV-UHFFFAOYSA-N

>  <distance_score>  (2597) 
1.879443

>  <ref_mols>  (2597) 
Z0719a,Z1597a

>  <ref_pdb>  (2597) 
Z0719a

>  <HIPPO Compound ID>  (2597) 
149493

>  <name>  (2597) 
P75166

>  <inspiration_score>  (2597) 
None

$$$$
P75167
     RDKit          3D

 13 13  0  0  0  0  0  0  0  0999 V2000
   -5.3416    7.7698  -21.9942 C   0  0  0  0  0  0  0  0  0  0  0  0
   -4.7511    7.8495  -20.7917 C   0  0  0  0  0  0  0  0  0  0  0  0
   -4.8227    9.6791  -19.7755 I   0  0  0  0  0  0  0  0  0  0  0  0
   -4.0019    6.7228  -20.1417 C   0  0  0  0  0  0  0  0  0  0  0  0
   -4.5975    6.2820  -18.8062 C   0  0  0  0  0  0  0  0  0  0  0  0
   -4.0440    6.4938  -17.7963 O   0  0  0  0  0  0  0  0  0  0  0  0
   -5.9439    5.5547  -19.0843 N   0  0  0  0  0  0  0  0  0  0  0  0
   -6.8657    5.0584  -18.2298 C   0  0  0  0  0  0  0  0  0  0  0  0
   -6.7638    4.9933  -16.8696 C   0  0  0  0  0  0  0  0  0  0  0  0
   -7.9659    4.5069  -16.4560 N   0  0  0  0  0  0  0  0  0  0  0  0
   -8.3448    4.3242  -15.0888 C   0  0  0  0  0  0  0  0  0  0  0  0
   -8.7357    4.2954  -17.5535 C   0  0  0  0  0  0  0  0  0  0  0  0
   -8.0693    4.5898  -18.6480 N   0  0  0  0  0  0  0  0  0  0  0  0
  1  2  2  0
  2  3  1  0
  2  4  1  0
  4  5  1  0
  5  6  2  0
  5  7  1  0
  7  8  1  0
  8  9  2  0
  9 10  1  0
 10 11  1  0
 10 12  1  0
 12 13  2  0
 13  8  1  0
M  END
>  <energy_score>  (2598) 
-17.17199

>  <alias>  (2598) 
None

>  <HIPPO Pose ID>  (2598) 
75167

>  <smiles>  (2598) 
C=C(I)CC(=O)Nc1cn(C)cn1

>  <inchikey>  (2598) 
XDMPYNATRGKXKR-UHFFFAOYSA-N

>  <distance_score>  (2598) 
1.348552

>  <ref_mols>  (2598) 
Z0719a,Z1597a

>  <ref_pdb>  (2598) 
Z0719a

>  <HIPPO Compound ID>  (2598) 
149494

>  <name>  (2598) 
P75167

>  <inspiration_score>  (2598) 
None

$$$$
P75168
     RDKit          3D

 13 13  0  0  0  0  0  0  0  0999 V2000
   -8.6782    4.0590  -15.4915 C   0  0  0  0  0  0  0  0  0  0  0  0
   -7.7697    4.8881  -16.2189 N   0  0  0  0  0  0  0  0  0  0  0  0
   -7.0582    5.8927  -15.6481 C   0  0  0  0  0  0  0  0  0  0  0  0
   -6.1875    6.3887  -16.4918 N   0  0  0  0  0  0  0  0  0  0  0  0
   -6.3550    5.6707  -17.6355 C   0  0  0  0  0  0  0  0  0  0  0  0
   -5.5075    5.7952  -18.6813 N   0  0  0  0  0  0  0  0  0  0  0  0
   -4.1612    6.5635  -18.8035 C   0  0  0  0  0  0  0  0  0  0  0  0
   -3.6182    7.2691  -18.0430 O   0  0  0  0  0  0  0  0  0  0  0  0
   -3.5107    6.1733  -20.1254 C   0  0  2  0  0  0  0  0  0  0  0  0
   -2.0814    6.2675  -20.0341 O   0  0  0  0  0  0  0  0  0  0  0  0
   -4.0212    7.0931  -21.2170 C   0  0  0  0  0  0  0  0  0  0  0  0
   -3.4795    6.6961  -22.4059 F   0  0  0  0  0  0  0  0  0  0  0  0
   -7.3977    4.7839  -17.5276 C   0  0  0  0  0  0  0  0  0  0  0  0
  1  2  1  0
  2  3  1  0
  3  4  2  0
  4  5  1  0
  5  6  1  0
  6  7  1  0
  7  8  2  0
  7  9  1  0
  9 10  1  1
  9 11  1  0
 11 12  1  0
  5 13  2  0
 13  2  1  0
M  END
>  <energy_score>  (2599) 
-15.602367

>  <alias>  (2599) 
None

>  <HIPPO Pose ID>  (2599) 
75168

>  <smiles>  (2599) 
Cn1cnc(NC(=O)[C@H](O)CF)c1

>  <inchikey>  (2599) 
OUFQKDNJWBJYGU-RXMQYKEDSA-N

>  <distance_score>  (2599) 
1.791269

>  <ref_mols>  (2599) 
Z0719a,Z1597a

>  <ref_pdb>  (2599) 
Z0719a

>  <HIPPO Compound ID>  (2599) 
149495

>  <name>  (2599) 
P75168

>  <inspiration_score>  (2599) 
None

$$$$
P75173
     RDKit          3D

 13 13  0  0  0  0  0  0  0  0999 V2000
   -4.6950    7.6830  -20.9517 C   0  0  0  0  0  0  0  0  0  0  0  0
   -4.3533    6.8366  -20.1713 C   0  0  0  0  0  0  0  0  0  0  0  0
   -3.9400    5.7859  -19.2302 C   0  0  0  0  0  0  0  0  0  0  0  0
   -4.7074    5.8059  -17.9086 C   0  0  0  0  0  0  0  0  0  0  0  0
   -4.2082    6.1078  -16.8930 O   0  0  0  0  0  0  0  0  0  0  0  0
   -6.1402    5.2697  -18.2099 N   0  0  0  0  0  0  0  0  0  0  0  0
   -7.1596    4.9256  -17.3588 C   0  0  0  0  0  0  0  0  0  0  0  0
   -8.3989    4.4366  -17.7243 C   0  0  0  0  0  0  0  0  0  0  0  0
   -8.9318    4.1735  -19.0553 C   0  0  0  0  0  0  0  0  0  0  0  0
   -9.1645    4.1070  -16.6413 N   0  0  0  0  0  0  0  0  0  0  0  0
   -8.4191    4.4030  -15.6107 C   0  0  0  0  0  0  0  0  0  0  0  0
   -7.2050    4.9102  -15.9911 N   0  0  0  0  0  0  0  0  0  0  0  0
   -6.2045    5.2815  -15.0412 C   0  0  0  0  0  0  0  0  0  0  0  0
  1  2  3  0
  2  3  1  0
  3  4  1  0
  4  5  2  0
  4  6  1  0
  6  7  1  0
  7  8  2  0
  8  9  1  0
  8 10  1  0
 10 11  2  0
 11 12  1  0
 12 13  1  0
 12  7  1  0
M  END
>  <energy_score>  (2600) 
-17.918242

>  <alias>  (2600) 
None

>  <HIPPO Pose ID>  (2600) 
75173

>  <smiles>  (2600) 
C#CCC(=O)Nc1c(C)ncn1C

>  <inchikey>  (2600) 
OEAKBILCHIHDNV-UHFFFAOYSA-N

>  <distance_score>  (2600) 
1.299671

>  <ref_mols>  (2600) 
Z0719a,Z1597a

>  <ref_pdb>  (2600) 
Z0719a

>  <HIPPO Compound ID>  (2600) 
149502

>  <name>  (2600) 
P75173

>  <inspiration_score>  (2600) 
None

$$$$
P75174
     RDKit          3D

 13 13  0  0  0  0  0  0  0  0999 V2000
   -5.0747    7.9361  -21.6726 C   0  0  0  0  0  0  0  0  0  0  0  0
   -4.5707    7.2079  -20.8614 C   0  0  0  0  0  0  0  0  0  0  0  0
   -3.9505    6.3008  -19.8919 C   0  0  0  0  0  0  0  0  0  0  0  0
   -4.7093    6.1640  -18.5821 C   0  0  0  0  0  0  0  0  0  0  0  0
   -4.1916    6.4067  -17.5579 O   0  0  0  0  0  0  0  0  0  0  0  0
   -6.1286    5.5843  -18.8870 N   0  0  0  0  0  0  0  0  0  0  0  0
   -7.1027    5.1244  -18.0391 C   0  0  0  0  0  0  0  0  0  0  0  0
   -8.2372    4.3923  -18.3284 C   0  0  0  0  0  0  0  0  0  0  0  0
   -8.8461    3.9429  -17.1795 N   0  0  0  0  0  0  0  0  0  0  0  0
   -8.1224    4.4310  -16.1914 C   0  0  0  0  0  0  0  0  0  0  0  0
   -8.2648    4.1412  -14.7432 C   0  0  0  0  0  0  0  0  0  0  0  0
   -7.1509    5.2723  -16.6786 N   0  0  0  0  0  0  0  0  0  0  0  0
   -6.4375    6.2077  -15.8599 C   0  0  0  0  0  0  0  0  0  0  0  0
  1  2  3  0
  2  3  1  0
  3  4  1  0
  4  5  2  0
  4  6  1  0
  6  7  1  0
  7  8  2  0
  8  9  1  0
  9 10  2  0
 10 11  1  0
 10 12  1  0
 12 13  1  0
 12  7  1  0
M  END
>  <energy_score>  (2601) 
-15.73972

>  <alias>  (2601) 
None

>  <HIPPO Pose ID>  (2601) 
75174

>  <smiles>  (2601) 
C#CCC(=O)Nc1cnc(C)n1C

>  <inchikey>  (2601) 
QKOJTQICMJJGLX-UHFFFAOYSA-N

>  <distance_score>  (2601) 
1.529004

>  <ref_mols>  (2601) 
Z0719a,Z1597a

>  <ref_pdb>  (2601) 
Z0719a

>  <HIPPO Compound ID>  (2601) 
149503

>  <name>  (2601) 
P75174

>  <inspiration_score>  (2601) 
None

$$$$
P75176
     RDKit          3D

 13 13  0  0  0  0  0  0  0  0999 V2000
   -4.1206    7.7508  -22.4225 C   0  0  0  0  0  0  0  0  0  0  0  0
   -4.8439    7.4901  -21.1057 C   0  0  2  0  0  0  0  0  0  0  0  0
   -5.2167    9.0799  -20.3517 Cl  0  0  0  0  0  0  0  0  0  0  0  0
   -4.0006    6.6373  -20.1680 C   0  0  0  0  0  0  0  0  0  0  0  0
   -4.6626    6.3286  -18.8365 C   0  0  0  0  0  0  0  0  0  0  0  0
   -4.1997    6.7115  -17.8326 O   0  0  0  0  0  0  0  0  0  0  0  0
   -5.9242    5.4611  -19.0969 N   0  0  0  0  0  0  0  0  0  0  0  0
   -6.8617    4.9993  -18.2427 C   0  0  0  0  0  0  0  0  0  0  0  0
   -6.8300    5.0714  -16.8799 C   0  0  0  0  0  0  0  0  0  0  0  0
   -8.0136    4.5328  -16.4808 N   0  0  0  0  0  0  0  0  0  0  0  0
   -8.4257    4.3889  -15.1189 C   0  0  0  0  0  0  0  0  0  0  0  0
   -8.7191    4.1956  -17.5901 C   0  0  0  0  0  0  0  0  0  0  0  0
   -8.0108    4.4206  -18.6749 N   0  0  0  0  0  0  0  0  0  0  0  0
  2  1  1  6
  2  3  1  0
  2  4  1  0
  4  5  1  0
  5  6  2  0
  5  7  1  0
  7  8  1  0
  8  9  2  0
  9 10  1  0
 10 11  1  0
 10 12  1  0
 12 13  2  0
 13  8  1  0
M  END
>  <energy_score>  (2602) 
-13.364019

>  <alias>  (2602) 
None

>  <HIPPO Pose ID>  (2602) 
75176

>  <smiles>  (2602) 
C[C@H](Cl)CC(=O)Nc1cn(C)cn1

>  <inchikey>  (2602) 
HZZCRMYCHIEKAC-LURJTMIESA-N

>  <distance_score>  (2602) 
1.444766

>  <ref_mols>  (2602) 
Z0719a,Z1597a

>  <ref_pdb>  (2602) 
Z0719a

>  <HIPPO Compound ID>  (2602) 
149505

>  <name>  (2602) 
P75176

>  <inspiration_score>  (2602) 
None

$$$$
P75177
     RDKit          3D

 13 13  0  0  0  0  0  0  0  0999 V2000
   -4.7758    8.7746  -20.6119 C   0  0  0  0  0  0  0  0  0  0  0  0
   -4.6065    7.3355  -21.0881 C   0  0  0  0  0  0  0  0  0  0  0  0
   -3.8792    6.4237  -20.1016 C   0  0  1  0  0  0  0  0  0  0  0  0
   -2.1850    6.9584  -19.8662 Cl  0  0  0  0  0  0  0  0  0  0  0  0
   -4.6001    6.2706  -18.7574 C   0  0  0  0  0  0  0  0  0  0  0  0
   -4.1910    6.7152  -17.7541 O   0  0  0  0  0  0  0  0  0  0  0  0
   -5.8621    5.3938  -19.0348 N   0  0  0  0  0  0  0  0  0  0  0  0
   -6.8512    4.9979  -18.2087 C   0  0  0  0  0  0  0  0  0  0  0  0
   -6.8743    5.1265  -16.8505 C   0  0  0  0  0  0  0  0  0  0  0  0
   -8.0591    4.5746  -16.4764 N   0  0  0  0  0  0  0  0  0  0  0  0
   -8.4965    4.4306  -15.1230 C   0  0  0  0  0  0  0  0  0  0  0  0
   -8.7238    4.1999  -17.5988 C   0  0  0  0  0  0  0  0  0  0  0  0
   -7.9793    4.3982  -18.6649 N   0  0  0  0  0  0  0  0  0  0  0  0
  1  2  1  0
  2  3  1  0
  3  4  1  1
  3  5  1  0
  5  6  2  0
  5  7  1  0
  7  8  1  0
  8  9  2  0
  9 10  1  0
 10 11  1  0
 10 12  1  0
 12 13  2  0
 13  8  1  0
M  END
>  <energy_score>  (2603) 
-22.41211

>  <alias>  (2603) 
None

>  <HIPPO Pose ID>  (2603) 
75177

>  <smiles>  (2603) 
CC[C@@H](Cl)C(=O)Nc1cn(C)cn1

>  <inchikey>  (2603) 
DXLMBCIRBTUBGU-ZCFIWIBFSA-N

>  <distance_score>  (2603) 
1.325365

>  <ref_mols>  (2603) 
Z0719a,Z1597a

>  <ref_pdb>  (2603) 
Z0719a

>  <HIPPO Compound ID>  (2603) 
149507

>  <name>  (2603) 
P75177

>  <inspiration_score>  (2603) 
None

$$$$
P75178
     RDKit          3D

 13 13  0  0  0  0  0  0  0  0999 V2000
   -6.0955    4.1318  -14.5323 N   0  0  0  0  0  0  0  0  0  0  0  0
   -6.7945    4.2883  -15.4486 C   0  0  0  0  0  0  0  0  0  0  0  0
   -7.6587    4.4576  -16.5800 C   0  0  0  0  0  0  0  0  0  0  0  0
   -9.0118    4.2266  -16.4358 N   0  0  0  0  0  0  0  0  0  0  0  0
   -9.5320    4.4365  -17.6184 C   0  0  0  0  0  0  0  0  0  0  0  0
   -8.5727    4.7540  -18.5345 N   0  0  0  0  0  0  0  0  0  0  0  0
   -7.3583    4.7702  -17.8953 C   0  0  0  0  0  0  0  0  0  0  0  0
   -6.2189    5.0419  -18.5983 N   0  0  0  0  0  0  0  0  0  0  0  0
   -4.7732    5.3178  -18.1061 C   0  0  0  0  0  0  0  0  0  0  0  0
   -4.3516    5.4310  -17.0237 O   0  0  0  0  0  0  0  0  0  0  0  0
   -3.8735    5.3962  -19.3251 C   0  0  0  0  0  0  0  0  0  0  0  0
   -4.0729    6.6813  -20.1038 C   0  0  0  0  0  0  0  0  0  0  0  0
   -2.8293    6.8151  -21.3757 Cl  0  0  0  0  0  0  0  0  0  0  0  0
  1  2  3  0
  2  3  1  0
  3  4  1  0
  4  5  2  0
  5  6  1  0
  6  7  1  0
  7  8  1  0
  8  9  1  0
  9 10  2  0
  9 11  1  0
 11 12  1  0
 12 13  1  0
  7  3  2  0
M  END
>  <energy_score>  (2604) 
-13.54321

>  <alias>  (2604) 
None

>  <HIPPO Pose ID>  (2604) 
75178

>  <smiles>  (2604) 
N#Cc1nc[nH]c1NC(=O)CCCl

>  <inchikey>  (2604) 
RWGYUXLSWVKROS-UHFFFAOYSA-N

>  <distance_score>  (2604) 
1.521468

>  <ref_mols>  (2604) 
Z0719a,Z1597a

>  <ref_pdb>  (2604) 
Z0719a

>  <HIPPO Compound ID>  (2604) 
149508

>  <name>  (2604) 
P75178

>  <inspiration_score>  (2604) 
None

$$$$
P75179
     RDKit          3D

 13 13  0  0  0  0  0  0  0  0999 V2000
   -6.0512    4.1630  -14.5910 N   0  0  0  0  0  0  0  0  0  0  0  0
   -6.7745    4.3056  -15.4908 C   0  0  0  0  0  0  0  0  0  0  0  0
   -7.6782    4.4524  -16.5940 C   0  0  0  0  0  0  0  0  0  0  0  0
   -9.0161    4.1617  -16.4100 N   0  0  0  0  0  0  0  0  0  0  0  0
   -9.5864    4.3805  -17.5673 C   0  0  0  0  0  0  0  0  0  0  0  0
   -8.6727    4.7490  -18.5083 N   0  0  0  0  0  0  0  0  0  0  0  0
   -7.4388    4.8068  -17.9105 C   0  0  0  0  0  0  0  0  0  0  0  0
   -6.3522    5.1659  -18.6546 N   0  0  0  0  0  0  0  0  0  0  0  0
   -4.9025    5.5072  -18.2204 C   0  0  0  0  0  0  0  0  0  0  0  0
   -4.3962    5.4588  -17.1692 O   0  0  0  0  0  0  0  0  0  0  0  0
   -4.0924    5.8578  -19.4675 C   0  0  0  0  0  0  0  0  0  0  0  0
   -4.6501    6.9352  -20.3760 C   0  0  0  0  0  0  0  0  0  0  0  0
   -4.7820    8.6453  -19.4517 Br  0  0  0  0  0  0  0  0  0  0  0  0
  1  2  3  0
  2  3  1  0
  3  4  1  0
  4  5  2  0
  5  6  1  0
  6  7  1  0
  7  8  1  0
  8  9  1  0
  9 10  2  0
  9 11  1  0
 11 12  1  0
 12 13  1  0
  7  3  2  0
M  END
>  <energy_score>  (2605) 
-5.836058

>  <alias>  (2605) 
None

>  <HIPPO Pose ID>  (2605) 
75179

>  <smiles>  (2605) 
N#Cc1nc[nH]c1NC(=O)CCBr

>  <inchikey>  (2605) 
LJAVRMCZHYPCMP-UHFFFAOYSA-N

>  <distance_score>  (2605) 
1.524229

>  <ref_mols>  (2605) 
Z0719a,Z1597a

>  <ref_pdb>  (2605) 
Z0719a

>  <HIPPO Compound ID>  (2605) 
149512

>  <name>  (2605) 
P75179

>  <inspiration_score>  (2605) 
None

$$$$
P75181
     RDKit          3D

 13 14  0  0  0  0  0  0  0  0999 V2000
   -7.8966    3.0913   -9.0992 C   0  0  0  0  0  0  0  0  0  0  0  0
   -7.9882    4.0328  -10.1803 N   0  0  0  0  0  0  0  0  0  0  0  0
   -8.3741    5.3383  -10.0690 C   0  0  0  0  0  0  0  0  0  0  0  0
   -8.4208    5.9308  -11.2431 N   0  0  0  0  0  0  0  0  0  0  0  0
   -8.0301    4.9674  -12.1255 C   0  0  0  0  0  0  0  0  0  0  0  0
   -8.0153    5.2259  -13.4508 N   0  0  0  0  0  0  0  0  0  0  0  0
   -7.3445    4.4715  -14.6062 C   0  0  0  0  0  0  0  0  0  0  0  0
   -6.7614    3.4646  -14.6122 O   0  0  0  0  0  0  0  0  0  0  0  0
   -7.6197    5.1877  -15.8946 C   0  0  2  0  0  0  0  0  0  0  0  0
   -8.4768    4.4909  -16.9300 C   0  0  0  0  0  0  0  0  0  0  0  0
   -7.0170    4.6992  -17.1856 C   0  0  1  0  0  0  0  0  0  0  0  0
   -6.5523    5.9686  -18.5145 Br  0  0  0  0  0  0  0  0  0  0  0  0
   -7.7260    3.7881  -11.4954 C   0  0  0  0  0  0  0  0  0  0  0  0
  1  2  1  0
  2  3  1  0
  3  4  2  0
  4  5  1  0
  5  6  1  0
  6  7  1  0
  7  8  2  0
  9  7  1  1
  9 10  1  0
 10 11  1  0
 11 12  1  6
  5 13  2  0
 13  2  1  0
 11  9  1  0
M  END
>  <energy_score>  (2606) 
-2.118484

>  <alias>  (2606) 
None

>  <HIPPO Pose ID>  (2606) 
75181

>  <smiles>  (2606) 
Cn1cnc(NC(=O)[C@@H]2C[C@H]2Br)c1

>  <inchikey>  (2606) 
VHKLOQBKOIMAJS-PHDIDXHHSA-N

>  <distance_score>  (2606) 
1.434934

>  <ref_mols>  (2606) 
Z0719a,Z1597a

>  <ref_pdb>  (2606) 
Z0719a

>  <HIPPO Compound ID>  (2606) 
149513

>  <name>  (2606) 
P75181

>  <inspiration_score>  (2606) 
None

$$$$
P75184
     RDKit          3D

 14 14  0  0  0  0  0  0  0  0999 V2000
   -8.6994    4.5273  -14.4344 C   0  0  0  0  0  0  0  0  0  0  0  0
   -8.2325    4.5235  -15.7960 N   0  0  0  0  0  0  0  0  0  0  0  0
   -8.9717    4.5759  -16.9322 C   0  0  0  0  0  0  0  0  0  0  0  0
   -8.1943    4.7257  -17.9819 N   0  0  0  0  0  0  0  0  0  0  0  0
   -6.9160    4.7460  -17.5058 C   0  0  0  0  0  0  0  0  0  0  0  0
   -5.9066    4.9460  -18.3901 N   0  0  0  0  0  0  0  0  0  0  0  0
   -4.3915    5.1717  -18.1540 C   0  0  0  0  0  0  0  0  0  0  0  0
   -3.7669    5.1438  -17.1677 O   0  0  0  0  0  0  0  0  0  0  0  0
   -3.7318    5.4266  -19.4950 C   0  0  0  0  0  0  0  0  0  0  0  0
   -4.1906    6.7211  -20.1333 C   0  0  0  0  0  0  0  0  0  0  0  0
   -2.9819    7.1977  -21.5886 Br  0  0  0  0  0  0  0  0  0  0  0  0
   -6.9104    4.5559  -16.1475 C   0  0  0  0  0  0  0  0  0  0  0  0
   -5.8758    4.3739  -15.2059 C   0  0  0  0  0  0  0  0  0  0  0  0
   -5.1295    4.1680  -14.3431 N   0  0  0  0  0  0  0  0  0  0  0  0
  1  2  1  0
  2  3  1  0
  3  4  2  0
  4  5  1  0
  5  6  1  0
  6  7  1  0
  7  8  2  0
  7  9  1  0
  9 10  1  0
 10 11  1  0
  5 12  2  0
 12 13  1  0
 13 14  3  0
 12  2  1  0
M  END
>  <energy_score>  (2607) 
-21.636243

>  <alias>  (2607) 
None

>  <HIPPO Pose ID>  (2607) 
75184

>  <smiles>  (2607) 
Cn1cnc(NC(=O)CCBr)c1C#N

>  <inchikey>  (2607) 
SYUAFQAQILWGHD-UHFFFAOYSA-N

>  <distance_score>  (2607) 
1.224415

>  <ref_mols>  (2607) 
Z0719a,Z1597a

>  <ref_pdb>  (2607) 
Z0719a

>  <HIPPO Compound ID>  (2607) 
149514

>  <name>  (2607) 
P75184

>  <inspiration_score>  (2607) 
None

$$$$
P75186
     RDKit          3D

 14 14  0  0  0  0  0  0  0  0999 V2000
   -4.1963    6.4647  -19.5129 C   0  0  0  0  0  0  0  0  0  0  0  0
   -3.9225    5.0452  -19.0263 C   0  0  1  0  0  0  0  0  0  0  0  0
   -2.1681    4.7226  -19.2101 Cl  0  0  0  0  0  0  0  0  0  0  0  0
   -4.3834    4.7066  -17.5747 C   0  0  0  0  0  0  0  0  0  0  0  0
   -3.6780    4.3061  -16.7336 O   0  0  0  0  0  0  0  0  0  0  0  0
   -5.9244    4.9219  -17.5799 N   0  0  0  0  0  0  0  0  0  0  0  0
   -6.8618    4.6174  -16.6434 C   0  0  0  0  0  0  0  0  0  0  0  0
   -8.1127    4.9406  -17.1206 N   0  0  0  0  0  0  0  0  0  0  0  0
   -8.9743    4.4181  -16.2911 C   0  0  0  0  0  0  0  0  0  0  0  0
   -8.3419    3.8641  -15.2280 N   0  0  0  0  0  0  0  0  0  0  0  0
   -6.9827    4.0010  -15.4172 C   0  0  0  0  0  0  0  0  0  0  0  0
   -6.1423    3.3923  -14.4364 N   0  0  0  0  0  0  0  0  0  0  0  0
   -6.6692    2.4968  -13.7531 O   0  0  0  0  0  0  0  0  0  0  0  0
   -4.9931    3.8076  -14.2881 O   0  0  0  0  0  0  0  0  0  0  0  0
  2  1  1  1
  2  3  1  0
  2  4  1  0
  4  5  2  0
  4  6  1  0
  6  7  1  0
  7  8  1  0
  8  9  2  0
  9 10  1  0
 10 11  1  0
 11 12  1  0
 12 13  2  0
 12 14  1  0
 11  7  2  0
M  CHG  2  12   1  14  -1
M  END
>  <energy_score>  (2608) 
-3.749057

>  <alias>  (2608) 
None

>  <HIPPO Pose ID>  (2608) 
75186

>  <smiles>  (2608) 
C[C@@H](Cl)C(=O)Nc1nc[nH]c1[N+](=O)[O-]

>  <inchikey>  (2608) 
IIMMZEQFGDYBJJ-GSVOUGTGSA-N

>  <distance_score>  (2608) 
1.814354

>  <ref_mols>  (2608) 
Z0719a,Z1597a

>  <ref_pdb>  (2608) 
Z0719a

>  <HIPPO Compound ID>  (2608) 
149517

>  <name>  (2608) 
P75186

>  <inspiration_score>  (2608) 
None

$$$$
P75188
     RDKit          3D

 14 14  0  0  0  0  0  0  0  0999 V2000
   -9.0452    4.1157  -18.9441 C   0  0  0  0  0  0  0  0  0  0  0  0
   -8.3396    4.4706  -17.7096 C   0  0  0  0  0  0  0  0  0  0  0  0
   -8.8720    4.0702  -16.5115 N   0  0  0  0  0  0  0  0  0  0  0  0
   -8.0053    4.4506  -15.6008 C   0  0  0  0  0  0  0  0  0  0  0  0
   -8.0276    4.0857  -14.1646 C   0  0  0  0  0  0  0  0  0  0  0  0
   -7.0278    5.2316  -16.1706 N   0  0  0  0  0  0  0  0  0  0  0  0
   -6.1593    6.0859  -15.4212 C   0  0  0  0  0  0  0  0  0  0  0  0
   -7.1217    5.0985  -17.5298 C   0  0  0  0  0  0  0  0  0  0  0  0
   -6.1986    5.4405  -18.4824 N   0  0  0  0  0  0  0  0  0  0  0  0
   -4.7653    6.0615  -18.3345 C   0  0  0  0  0  0  0  0  0  0  0  0
   -4.1974    6.4421  -17.3818 O   0  0  0  0  0  0  0  0  0  0  0  0
   -4.1314    5.9983  -19.7298 C   0  0  1  0  0  0  0  0  0  0  0  0
   -4.6612    7.0737  -20.6587 C   0  0  0  0  0  0  0  0  0  0  0  0
   -2.3486    6.1326  -19.6318 Cl  0  0  0  0  0  0  0  0  0  0  0  0
  1  2  1  0
  2  3  1  0
  3  4  2  0
  4  5  1  0
  4  6  1  0
  6  7  1  0
  6  8  1  0
  8  9  1  0
  9 10  1  0
 10 11  2  0
 10 12  1  0
 12 13  1  6
 12 14  1  0
  8  2  2  0
M  END
>  <energy_score>  (2609) 
-14.611124

>  <alias>  (2609) 
None

>  <HIPPO Pose ID>  (2609) 
75188

>  <smiles>  (2609) 
Cc1nc(C)n(C)c1NC(=O)[C@@H](C)Cl

>  <inchikey>  (2609) 
YFLVPVMGKBTAMC-RXMQYKEDSA-N

>  <distance_score>  (2609) 
1.394065

>  <ref_mols>  (2609) 
Z0719a,Z1597a

>  <ref_pdb>  (2609) 
Z0719a

>  <HIPPO Compound ID>  (2609) 
149518

>  <name>  (2609) 
P75188

>  <inspiration_score>  (2609) 
None

$$$$
P75189
     RDKit          3D

 14 15  0  0  0  0  0  0  0  0999 V2000
   -4.7318    4.6905  -12.7771 N   0  0  0  0  0  0  0  0  0  0  0  0
   -5.6397    4.5654  -12.0599 C   0  0  0  0  0  0  0  0  0  0  0  0
   -6.8685    4.2451  -11.3911 C   0  0  0  0  0  0  0  0  0  0  0  0
   -6.9390    3.8034  -10.0943 N   0  0  0  0  0  0  0  0  0  0  0  0
   -8.0952    3.1782  -10.0249 C   0  0  0  0  0  0  0  0  0  0  0  0
   -8.7711    3.2209  -11.2191 N   0  0  0  0  0  0  0  0  0  0  0  0
   -8.0439    4.0022  -12.0698 C   0  0  0  0  0  0  0  0  0  0  0  0
   -8.3503    4.3480  -13.3503 N   0  0  0  0  0  0  0  0  0  0  0  0
   -7.8489    5.5362  -14.2243 C   0  0  0  0  0  0  0  0  0  0  0  0
   -7.1552    6.4427  -13.9495 O   0  0  0  0  0  0  0  0  0  0  0  0
   -8.2880    5.3821  -15.6888 C   0  0  0  0  0  0  0  0  0  0  0  0
   -7.1695    5.8259  -16.7139 C   0  0  0  0  0  0  0  0  0  0  0  0
   -7.8407    4.6621  -17.9255 S   0  0  0  0  0  0  0  0  0  0  0  0
   -8.2889    3.9747  -16.3115 C   0  0  0  0  0  0  0  0  0  0  0  0
  1  2  3  0
  2  3  1  0
  3  4  1  0
  4  5  2  0
  5  6  1  0
  6  7  1  0
  7  8  1  0
  8  9  1  0
  9 10  2  0
  9 11  1  0
 11 12  1  0
 12 13  1  0
 13 14  1  0
  7  3  2  0
 14 11  1  0
M  END
>  <energy_score>  (2610) 
-1.381758

>  <alias>  (2610) 
None

>  <HIPPO Pose ID>  (2610) 
75189

>  <smiles>  (2610) 
N#Cc1nc[nH]c1NC(=O)C1CSC1

>  <inchikey>  (2610) 
LGSBNWRVJIMNQY-UHFFFAOYSA-N

>  <distance_score>  (2610) 
1.322263

>  <ref_mols>  (2610) 
Z0719a,Z1597a

>  <ref_pdb>  (2610) 
Z0719a

>  <HIPPO Compound ID>  (2610) 
149519

>  <name>  (2610) 
P75189

>  <inspiration_score>  (2610) 
None

$$$$
P75192
     RDKit          3D

 14 15  0  0  0  0  0  0  0  0999 V2000
   -4.5722    4.6984  -12.3389 N   0  0  0  0  0  0  0  0  0  0  0  0
   -5.5862    4.5535  -11.7881 C   0  0  0  0  0  0  0  0  0  0  0  0
   -6.8901    4.2041  -11.3062 C   0  0  0  0  0  0  0  0  0  0  0  0
   -7.1758    3.9588   -9.9850 N   0  0  0  0  0  0  0  0  0  0  0  0
   -8.3081    3.2884  -10.0164 C   0  0  0  0  0  0  0  0  0  0  0  0
   -8.7666    3.1185  -11.2984 N   0  0  0  0  0  0  0  0  0  0  0  0
   -7.9126    3.7827  -12.1298 C   0  0  0  0  0  0  0  0  0  0  0  0
   -8.0213    3.8951  -13.4833 N   0  0  0  0  0  0  0  0  0  0  0  0
   -7.3317    4.8611  -14.4652 C   0  0  0  0  0  0  0  0  0  0  0  0
   -6.6220    5.7619  -14.2646 O   0  0  0  0  0  0  0  0  0  0  0  0
   -7.5744    4.4700  -15.8693 C   0  0  2  0  0  0  0  0  0  0  0  0
   -7.3682    5.5084  -16.9500 C   0  0  0  0  0  0  0  0  0  0  0  0
   -8.7471    5.0172  -16.6084 C   0  0  1  0  0  0  0  0  0  0  0  0
   -9.5943    3.9794  -17.9409 Br  0  0  0  0  0  0  0  0  0  0  0  0
  1  2  3  0
  2  3  1  0
  3  4  1  0
  4  5  2  0
  5  6  1  0
  6  7  1  0
  7  8  1  0
  8  9  1  0
  9 10  2  0
 11  9  1  1
 11 12  1  0
 12 13  1  0
 13 14  1  6
  7  3  2  0
 13 11  1  0
M  END
>  <energy_score>  (2611) 
-8.593811

>  <alias>  (2611) 
None

>  <HIPPO Pose ID>  (2611) 
75192

>  <smiles>  (2611) 
N#Cc1nc[nH]c1NC(=O)[C@@H]1C[C@H]1Br

>  <inchikey>  (2611) 
HKHMBPOWSXUDOM-RFZPGFLSSA-N

>  <distance_score>  (2611) 
1.384572

>  <ref_mols>  (2611) 
Z0719a,Z1597a

>  <ref_pdb>  (2611) 
Z0719a

>  <HIPPO Compound ID>  (2611) 
149522

>  <name>  (2611) 
P75192

>  <inspiration_score>  (2611) 
None

$$$$
P75195
     RDKit          3D

 14 15  0  0  0  0  0  0  0  0999 V2000
   -7.9672    5.9105   -8.9772 C   0  0  0  0  0  0  0  0  0  0  0  0
   -8.0629    4.9890  -10.1272 C   0  0  0  0  0  0  0  0  0  0  0  0
   -8.1252    3.6805  -10.0375 N   0  0  0  0  0  0  0  0  0  0  0  0
   -8.1914    3.2324  -11.3231 C   0  0  0  0  0  0  0  0  0  0  0  0
   -8.1171    4.2714  -12.2277 C   0  0  0  0  0  0  0  0  0  0  0  0
   -8.0552    4.1677  -13.5919 N   0  0  0  0  0  0  0  0  0  0  0  0
   -7.6408    5.2012  -14.6562 C   0  0  0  0  0  0  0  0  0  0  0  0
   -7.3602    6.3276  -14.5474 O   0  0  0  0  0  0  0  0  0  0  0  0
   -7.5454    4.5358  -15.9857 C   0  0  1  0  0  0  0  0  0  0  0  0
   -8.7221    4.5713  -16.9268 C   0  0  0  0  0  0  0  0  0  0  0  0
   -7.4911    5.3678  -17.2385 C   0  0  2  0  0  0  0  0  0  0  0  0
   -6.4597    4.7912  -18.7165 Br  0  0  0  0  0  0  0  0  0  0  0  0
   -8.1026    5.4011  -11.4455 N   0  0  0  0  0  0  0  0  0  0  0  0
   -8.2043    6.7743  -11.8733 C   0  0  0  0  0  0  0  0  0  0  0  0
  1  2  1  0
  2  3  2  0
  3  4  1  0
  4  5  2  0
  5  6  1  0
  6  7  1  0
  7  8  2  0
  9  7  1  1
  9 10  1  0
 10 11  1  0
 11 12  1  6
  5 13  1  0
 13 14  1  0
 13  2  1  0
 11  9  1  0
M  END
>  <energy_score>  (2612) 
-37.316922

>  <alias>  (2612) 
None

>  <HIPPO Pose ID>  (2612) 
75195

>  <smiles>  (2612) 
Cc1ncc(NC(=O)[C@H]2C[C@@H]2Br)n1C

>  <inchikey>  (2612) 
SLIYUPBJKQAKMF-BQBZGAKWSA-N

>  <distance_score>  (2612) 
1.18843

>  <ref_mols>  (2612) 
Z0719a,Z1597a

>  <ref_pdb>  (2612) 
Z0719a

>  <HIPPO Compound ID>  (2612) 
149523

>  <name>  (2612) 
P75195

>  <inspiration_score>  (2612) 
None

$$$$
P75196
     RDKit          3D

 14 14  0  0  0  0  0  0  0  0999 V2000
   -5.0729    2.9010  -13.3854 C   0  0  0  0  0  0  0  0  0  0  0  0
   -6.5199    3.0432  -13.8925 C   0  0  0  0  0  0  0  0  0  0  0  0
   -7.4081    3.4362  -12.7219 C   0  0  0  0  0  0  0  0  0  0  0  0
   -6.6881    3.9199  -15.0545 N   0  0  0  0  0  0  0  0  0  0  0  0
   -7.8673    4.2019  -15.7061 C   0  0  0  0  0  0  0  0  0  0  0  0
   -7.6616    4.8215  -16.8522 N   0  0  0  0  0  0  0  0  0  0  0  0
   -6.3133    4.9275  -16.9519 C   0  0  0  0  0  0  0  0  0  0  0  0
   -5.6943    5.3727  -18.0694 N   0  0  0  0  0  0  0  0  0  0  0  0
   -4.2144    5.7764  -18.3095 C   0  0  0  0  0  0  0  0  0  0  0  0
   -3.2856    5.7132  -17.5987 O   0  0  0  0  0  0  0  0  0  0  0  0
   -4.0092    6.2247  -19.7555 C   0  0  0  0  0  0  0  0  0  0  0  0
   -5.0315    7.0927  -20.4452 C   0  0  0  0  0  0  0  0  0  0  0  0
   -5.2670    8.7843  -19.5057 Br  0  0  0  0  0  0  0  0  0  0  0  0
   -5.6958    4.4604  -15.8257 C   0  0  0  0  0  0  0  0  0  0  0  0
  1  2  1  0
  2  3  1  0
  2  4  1  0
  4  5  1  0
  5  6  2  0
  6  7  1  0
  7  8  1  0
  8  9  1  0
  9 10  2  0
  9 11  1  0
 11 12  1  0
 12 13  1  0
  7 14  2  0
 14  4  1  0
M  END
>  <energy_score>  (2613) 
-14.064395

>  <alias>  (2613) 
None

>  <HIPPO Pose ID>  (2613) 
75196

>  <smiles>  (2613) 
CC(C)n1cnc(NC(=O)CCBr)c1

>  <inchikey>  (2613) 
LQVPFFVCGKTZMC-UHFFFAOYSA-N

>  <distance_score>  (2613) 
1.637339

>  <ref_mols>  (2613) 
Z0719a,Z1597a

>  <ref_pdb>  (2613) 
Z0719a

>  <HIPPO Compound ID>  (2613) 
149524

>  <name>  (2613) 
P75196

>  <inspiration_score>  (2613) 
None

$$$$
P75199
     RDKit          3D

 14 14  0  0  0  0  0  0  0  0999 V2000
   -5.2408    7.5299  -20.2946 C   0  0  0  0  0  0  0  0  0  0  0  0
   -3.8853    6.9316  -19.9308 C   0  0  2  0  0  0  0  0  0  0  0  0
   -2.8159    6.9289  -21.4217 S   0  0  0  0  0  0  0  0  0  0  0  0
   -3.9176    5.5207  -19.3407 C   0  0  0  0  0  0  0  0  0  0  0  0
   -4.7745    5.4043  -18.0890 C   0  0  0  0  0  0  0  0  0  0  0  0
   -4.3381    5.5383  -17.0148 O   0  0  0  0  0  0  0  0  0  0  0  0
   -6.2217    5.0865  -18.5548 N   0  0  0  0  0  0  0  0  0  0  0  0
   -7.3402    4.7927  -17.8315 C   0  0  0  0  0  0  0  0  0  0  0  0
   -8.5596    4.7672  -18.4587 N   0  0  0  0  0  0  0  0  0  0  0  0
   -9.5069    4.4373  -17.5350 C   0  0  0  0  0  0  0  0  0  0  0  0
   -8.9724    4.2298  -16.3583 N   0  0  0  0  0  0  0  0  0  0  0  0
   -7.6218    4.4706  -16.5158 C   0  0  0  0  0  0  0  0  0  0  0  0
   -6.7421    4.2960  -15.3988 C   0  0  0  0  0  0  0  0  0  0  0  0
   -6.0292    4.1305  -14.4950 N   0  0  0  0  0  0  0  0  0  0  0  0
  2  1  1  6
  2  3  1  0
  2  4  1  0
  4  5  1  0
  5  6  2  0
  5  7  1  0
  7  8  1  0
  8  9  1  0
  9 10  1  0
 10 11  2  0
 11 12  1  0
 12 13  1  0
 13 14  3  0
 12  8  2  0
M  END
>  <energy_score>  (2614) 
-1.681203

>  <alias>  (2614) 
None

>  <HIPPO Pose ID>  (2614) 
75199

>  <smiles>  (2614) 
C[C@H](S)CC(=O)Nc1[nH]cnc1C#N

>  <inchikey>  (2614) 
VVSGSQYZMUCOKA-YFKPBYRVSA-N

>  <distance_score>  (2614) 
1.919558

>  <ref_mols>  (2614) 
Z0719a,Z1597a

>  <ref_pdb>  (2614) 
Z0719a

>  <HIPPO Compound ID>  (2614) 
149533

>  <name>  (2614) 
P75199

>  <inspiration_score>  (2614) 
None

$$$$
P75207
     RDKit          3D

 14 14  0  0  0  0  0  0  0  0999 V2000
   -8.8040    4.1292  -19.0844 C   0  0  0  0  0  0  0  0  0  0  0  0
   -8.3855    4.4214  -17.7183 C   0  0  0  0  0  0  0  0  0  0  0  0
   -9.2129    4.0596  -16.6929 N   0  0  0  0  0  0  0  0  0  0  0  0
   -8.5829    4.4395  -15.6131 C   0  0  0  0  0  0  0  0  0  0  0  0
   -7.3824    5.0291  -15.9047 N   0  0  0  0  0  0  0  0  0  0  0  0
   -6.4692    5.4438  -14.8857 C   0  0  0  0  0  0  0  0  0  0  0  0
   -7.2243    5.0150  -17.2633 C   0  0  0  0  0  0  0  0  0  0  0  0
   -6.1622    5.4235  -18.0246 N   0  0  0  0  0  0  0  0  0  0  0  0
   -4.8947    6.2545  -17.6366 C   0  0  0  0  0  0  0  0  0  0  0  0
   -4.5342    6.6460  -16.5922 O   0  0  0  0  0  0  0  0  0  0  0  0
   -4.0306    6.4236  -18.9385 C   0  0  0  0  0  0  0  0  0  0  0  0
   -4.7717    7.0482  -20.1226 C   0  0  0  0  0  0  0  0  0  0  0  0
   -3.4231    5.0706  -19.3098 C   0  0  0  0  0  0  0  0  0  0  0  0
   -2.6483    7.5373  -18.5559 Cl  0  0  0  0  0  0  0  0  0  0  0  0
  1  2  1  0
  2  3  1  0
  3  4  2  0
  4  5  1  0
  5  6  1  0
  5  7  1  0
  7  8  1  0
  8  9  1  0
  9 10  2  0
  9 11  1  0
 11 12  1  0
 11 13  1  0
 11 14  1  0
  7  2  2  0
M  END
>  <energy_score>  (2615) 
-17.147816

>  <alias>  (2615) 
None

>  <HIPPO Pose ID>  (2615) 
75207

>  <smiles>  (2615) 
Cc1ncn(C)c1NC(=O)C(C)(C)Cl

>  <inchikey>  (2615) 
LXRJJIKSRWDVSG-UHFFFAOYSA-N

>  <distance_score>  (2615) 
1.482334

>  <ref_mols>  (2615) 
Z0719a,Z1597a

>  <ref_pdb>  (2615) 
Z0719a

>  <HIPPO Compound ID>  (2615) 
149541

>  <name>  (2615) 
P75207

>  <inspiration_score>  (2615) 
None

$$$$
P75208
     RDKit          3D

 14 14  0  0  0  0  0  0  0  0999 V2000
   -6.3669    2.9597  -13.8325 N   0  0  0  0  0  0  0  0  0  0  0  0
   -6.9356    3.4709  -14.7099 C   0  0  0  0  0  0  0  0  0  0  0  0
   -7.6027    4.0688  -15.8397 C   0  0  0  0  0  0  0  0  0  0  0  0
   -8.9582    3.8825  -16.0311 N   0  0  0  0  0  0  0  0  0  0  0  0
   -9.2523    4.5004  -17.1485 C   0  0  0  0  0  0  0  0  0  0  0  0
   -8.1495    5.0872  -17.6941 N   0  0  0  0  0  0  0  0  0  0  0  0
   -7.0812    4.8240  -16.8726 C   0  0  0  0  0  0  0  0  0  0  0  0
   -5.8439    5.2548  -17.2396 N   0  0  0  0  0  0  0  0  0  0  0  0
   -5.4073    6.2163  -18.3835 C   0  0  0  0  0  0  0  0  0  0  0  0
   -6.0496    6.8423  -19.1324 O   0  0  0  0  0  0  0  0  0  0  0  0
   -3.8866    6.1661  -18.4449 C   0  0  0  0  0  0  0  0  0  0  0  0
   -3.3833    6.6302  -19.8191 C   0  0  0  0  0  0  0  0  0  0  0  0
   -1.8592    6.5596  -19.8767 C   0  0  0  0  0  0  0  0  0  0  0  0
   -1.1488    6.9814  -21.8412 I   0  0  0  0  0  0  0  0  0  0  0  0
  1  2  3  0
  2  3  1  0
  3  4  1  0
  4  5  2  0
  5  6  1  0
  6  7  1  0
  7  8  1  0
  8  9  1  0
  9 10  2  0
  9 11  1  0
 11 12  1  0
 12 13  1  0
 13 14  1  0
  7  3  2  0
M  END
>  <energy_score>  (2616) 
-22.735949

>  <alias>  (2616) 
None

>  <HIPPO Pose ID>  (2616) 
75208

>  <smiles>  (2616) 
N#Cc1nc[nH]c1NC(=O)CCCI

>  <inchikey>  (2616) 
CQCNSLABGOOGDC-UHFFFAOYSA-N

>  <distance_score>  (2616) 
1.900895

>  <ref_mols>  (2616) 
Z0719a,Z1597a

>  <ref_pdb>  (2616) 
Z0719a

>  <HIPPO Compound ID>  (2616) 
149542

>  <name>  (2616) 
P75208

>  <inspiration_score>  (2616) 
None

$$$$
P75209
     RDKit          3D

 14 14  0  0  0  0  0  0  0  0999 V2000
   -4.4722    7.6411  -20.8427 C   0  0  0  0  0  0  0  0  0  0  0  0
   -4.1319    6.6696  -20.2241 C   0  0  0  0  0  0  0  0  0  0  0  0
   -3.7182    5.4696  -19.4829 C   0  0  0  0  0  0  0  0  0  0  0  0
   -4.3940    5.3168  -18.1287 C   0  0  0  0  0  0  0  0  0  0  0  0
   -3.7884    5.3681  -17.1293 O   0  0  0  0  0  0  0  0  0  0  0  0
   -5.8950    5.0016  -18.3818 N   0  0  0  0  0  0  0  0  0  0  0  0
   -6.9111    4.7924  -17.5070 C   0  0  0  0  0  0  0  0  0  0  0  0
   -8.1888    4.7827  -17.9856 N   0  0  0  0  0  0  0  0  0  0  0  0
   -8.9682    4.6097  -16.9411 C   0  0  0  0  0  0  0  0  0  0  0  0
   -8.2312    4.5394  -15.8047 N   0  0  0  0  0  0  0  0  0  0  0  0
   -8.7025    4.5311  -14.4452 C   0  0  0  0  0  0  0  0  0  0  0  0
   -6.9086    4.5695  -16.1535 C   0  0  0  0  0  0  0  0  0  0  0  0
   -5.8765    4.3525  -15.2168 C   0  0  0  0  0  0  0  0  0  0  0  0
   -5.1373    4.1027  -14.3590 N   0  0  0  0  0  0  0  0  0  0  0  0
  1  2  3  0
  2  3  1  0
  3  4  1  0
  4  5  2  0
  4  6  1  0
  6  7  1  0
  7  8  1  0
  8  9  2  0
  9 10  1  0
 10 11  1  0
 10 12  1  0
 12 13  1  0
 13 14  3  0
 12  7  2  0
M  END
>  <energy_score>  (2617) 
-10.504723

>  <alias>  (2617) 
None

>  <HIPPO Pose ID>  (2617) 
75209

>  <smiles>  (2617) 
C#CCC(=O)Nc1ncn(C)c1C#N

>  <inchikey>  (2617) 
RGJFIMVGTYJJOK-UHFFFAOYSA-N

>  <distance_score>  (2617) 
1.672885

>  <ref_mols>  (2617) 
Z0719a,Z1597a

>  <ref_pdb>  (2617) 
Z0719a

>  <HIPPO Compound ID>  (2617) 
149545

>  <name>  (2617) 
P75209

>  <inspiration_score>  (2617) 
None

$$$$
P75211
     RDKit          3D

 14 14  0  0  0  0  0  0  0  0999 V2000
   -8.9923    4.2058  -19.0006 C   0  0  0  0  0  0  0  0  0  0  0  0
   -8.4392    4.4427  -17.6718 C   0  0  0  0  0  0  0  0  0  0  0  0
   -9.1799    4.0886  -16.5800 N   0  0  0  0  0  0  0  0  0  0  0  0
   -8.4110    4.3623  -15.5597 C   0  0  0  0  0  0  0  0  0  0  0  0
   -7.2048    4.8762  -15.9552 N   0  0  0  0  0  0  0  0  0  0  0  0
   -6.1883    5.2453  -15.0223 C   0  0  0  0  0  0  0  0  0  0  0  0
   -7.1939    4.9261  -17.3207 C   0  0  0  0  0  0  0  0  0  0  0  0
   -6.2055    5.2971  -18.1926 N   0  0  0  0  0  0  0  0  0  0  0  0
   -4.7481    5.7720  -17.9250 C   0  0  0  0  0  0  0  0  0  0  0  0
   -4.1955    5.9923  -16.9176 O   0  0  0  0  0  0  0  0  0  0  0  0
   -4.0528    5.8546  -19.2766 C   0  0  0  0  0  0  0  0  0  0  0  0
   -3.9726    7.2785  -19.8070 C   0  0  1  0  0  0  0  0  0  0  0  0
   -3.1337    7.3643  -21.0750 C   0  0  0  0  0  0  0  0  0  0  0  0
   -5.5876    7.9647  -20.1332 Cl  0  0  0  0  0  0  0  0  0  0  0  0
  1  2  1  0
  2  3  1  0
  3  4  2  0
  4  5  1  0
  5  6  1  0
  5  7  1  0
  7  8  1  0
  8  9  1  0
  9 10  2  0
  9 11  1  0
 11 12  1  0
 12 13  1  6
 12 14  1  0
  7  2  2  0
M  END
>  <energy_score>  (2618) 
-21.399571

>  <alias>  (2618) 
None

>  <HIPPO Pose ID>  (2618) 
75211

>  <smiles>  (2618) 
Cc1ncn(C)c1NC(=O)C[C@@H](C)Cl

>  <inchikey>  (2618) 
LTHKCAVUTQLDJW-ZCFIWIBFSA-N

>  <distance_score>  (2618) 
1.340122

>  <ref_mols>  (2618) 
Z0719a,Z1597a

>  <ref_pdb>  (2618) 
Z0719a

>  <HIPPO Compound ID>  (2618) 
149548

>  <name>  (2618) 
P75211

>  <inspiration_score>  (2618) 
None

$$$$
P75214
     RDKit          3D

 14 14  0  0  0  0  0  0  0  0999 V2000
   -5.2345    3.2208  -13.4886 C   0  0  0  0  0  0  0  0  0  0  0  0
   -6.6747    3.3346  -13.9824 C   0  0  0  0  0  0  0  0  0  0  0  0
   -6.8894    4.0378  -15.2371 N   0  0  0  0  0  0  0  0  0  0  0  0
   -8.1186    4.3795  -15.7444 C   0  0  0  0  0  0  0  0  0  0  0  0
   -8.0129    4.9804  -16.9110 N   0  0  0  0  0  0  0  0  0  0  0  0
   -6.6831    4.9909  -17.1827 C   0  0  0  0  0  0  0  0  0  0  0  0
   -6.2004    5.4866  -18.3448 N   0  0  0  0  0  0  0  0  0  0  0  0
   -4.7360    5.6888  -18.8247 C   0  0  0  0  0  0  0  0  0  0  0  0
   -3.7236    5.3864  -18.3203 O   0  0  0  0  0  0  0  0  0  0  0  0
   -4.7661    6.4519  -20.1344 C   0  0  0  0  0  0  0  0  0  0  0  0
   -4.2510    7.8640  -19.9550 C   0  0  2  0  0  0  0  0  0  0  0  0
   -5.1900    8.7327  -19.1246 C   0  0  0  0  0  0  0  0  0  0  0  0
   -4.0399    8.6290  -21.5644 Cl  0  0  0  0  0  0  0  0  0  0  0  0
   -5.9629    4.4562  -16.1490 C   0  0  0  0  0  0  0  0  0  0  0  0
  1  2  1  0
  2  3  1  0
  3  4  1  0
  4  5  2  0
  5  6  1  0
  6  7  1  0
  7  8  1  0
  8  9  2  0
  8 10  1  0
 10 11  1  0
 11 12  1  1
 11 13  1  0
  6 14  2  0
 14  3  1  0
M  END
>  <energy_score>  (2619) 
-3.916055

>  <alias>  (2619) 
None

>  <HIPPO Pose ID>  (2619) 
75214

>  <smiles>  (2619) 
CCn1cnc(NC(=O)C[C@H](C)Cl)c1

>  <inchikey>  (2619) 
NCXCXISDPPJGHI-ZETCQYMHSA-N

>  <distance_score>  (2619) 
1.923615

>  <ref_mols>  (2619) 
Z0719a,Z1597a

>  <ref_pdb>  (2619) 
Z0719a

>  <HIPPO Compound ID>  (2619) 
149550

>  <name>  (2619) 
P75214

>  <inspiration_score>  (2619) 
None

$$$$
P75216
     RDKit          3D

 14 14  0  0  0  0  0  0  0  0999 V2000
   -4.7205    7.4704  -20.8696 C   0  0  0  0  0  0  0  0  0  0  0  0
   -3.9920    6.9921  -19.8518 C   0  0  0  0  0  0  0  0  0  0  0  0
   -3.8821    5.5619  -19.4144 C   0  0  1  0  0  0  0  0  0  0  0  0
   -2.4958    5.2860  -19.2484 O   0  0  0  0  0  0  0  0  0  0  0  0
   -4.7077    5.2730  -18.1273 C   0  0  0  0  0  0  0  0  0  0  0  0
   -4.2026    5.0681  -17.0917 O   0  0  0  0  0  0  0  0  0  0  0  0
   -6.2093    5.2413  -18.5420 N   0  0  0  0  0  0  0  0  0  0  0  0
   -7.3183    4.8792  -17.8307 C   0  0  0  0  0  0  0  0  0  0  0  0
   -8.5406    4.8784  -18.4555 N   0  0  0  0  0  0  0  0  0  0  0  0
   -9.4784    4.4518  -17.5623 C   0  0  0  0  0  0  0  0  0  0  0  0
   -8.9389    4.1741  -16.4029 N   0  0  0  0  0  0  0  0  0  0  0  0
   -7.5937    4.4595  -16.5407 C   0  0  0  0  0  0  0  0  0  0  0  0
   -6.7229    4.2754  -15.4182 C   0  0  0  0  0  0  0  0  0  0  0  0
   -6.0243    4.1222  -14.5013 N   0  0  0  0  0  0  0  0  0  0  0  0
  1  2  2  0
  2  3  1  0
  3  4  1  1
  3  5  1  0
  5  6  2  0
  5  7  1  0
  7  8  1  0
  8  9  1  0
  9 10  1  0
 10 11  2  0
 11 12  1  0
 12 13  1  0
 13 14  3  0
 12  8  2  0
M  END
>  <energy_score>  (2620) 
-20.579358

>  <alias>  (2620) 
None

>  <HIPPO Pose ID>  (2620) 
75216

>  <smiles>  (2620) 
C=C[C@@H](O)C(=O)Nc1[nH]cnc1C#N

>  <inchikey>  (2620) 
GVOXPYNXJDXSJD-ZCFIWIBFSA-N

>  <distance_score>  (2620) 
1.91012

>  <ref_mols>  (2620) 
Z0719a,Z1597a

>  <ref_pdb>  (2620) 
Z0719a

>  <HIPPO Compound ID>  (2620) 
149551

>  <name>  (2620) 
P75216

>  <inspiration_score>  (2620) 
None

$$$$
P75218
     RDKit          3D

 14 14  0  0  0  0  0  0  0  0999 V2000
   -3.3763    7.6312  -20.5835 C   0  0  0  0  0  0  0  0  0  0  0  0
   -4.2373    6.6764  -20.2011 C   0  0  0  0  0  0  0  0  0  0  0  0
   -3.9214    5.4495  -19.3840 C   0  0  1  0  0  0  0  0  0  0  0  0
   -2.5079    5.3177  -19.2457 O   0  0  0  0  0  0  0  0  0  0  0  0
   -4.6326    5.4621  -17.9931 C   0  0  0  0  0  0  0  0  0  0  0  0
   -4.0474    5.6169  -16.9886 O   0  0  0  0  0  0  0  0  0  0  0  0
   -6.1387    5.1382  -18.2468 N   0  0  0  0  0  0  0  0  0  0  0  0
   -7.1505    4.8609  -17.3641 C   0  0  0  0  0  0  0  0  0  0  0  0
   -8.4256    4.4471  -17.6977 C   0  0  0  0  0  0  0  0  0  0  0  0
   -9.0022    4.2013  -19.0139 C   0  0  0  0  0  0  0  0  0  0  0  0
   -9.1833    4.1731  -16.5952 N   0  0  0  0  0  0  0  0  0  0  0  0
   -8.3912    4.4117  -15.5845 C   0  0  0  0  0  0  0  0  0  0  0  0
   -7.1615    4.8525  -15.9965 N   0  0  0  0  0  0  0  0  0  0  0  0
   -6.1202    5.1786  -15.0748 C   0  0  0  0  0  0  0  0  0  0  0  0
  1  2  2  0
  2  3  1  0
  3  4  1  1
  3  5  1  0
  5  6  2  0
  5  7  1  0
  7  8  1  0
  8  9  2  0
  9 10  1  0
  9 11  1  0
 11 12  2  0
 12 13  1  0
 13 14  1  0
 13  8  1  0
M  END
>  <energy_score>  (2621) 
-3.674764

>  <alias>  (2621) 
None

>  <HIPPO Pose ID>  (2621) 
75218

>  <smiles>  (2621) 
C=C[C@@H](O)C(=O)Nc1c(C)ncn1C

>  <inchikey>  (2621) 
UZNULSRMPYFAOI-SSDOTTSWSA-N

>  <distance_score>  (2621) 
1.265818

>  <ref_mols>  (2621) 
Z0719a,Z1597a

>  <ref_pdb>  (2621) 
Z0719a

>  <HIPPO Compound ID>  (2621) 
149552

>  <name>  (2621) 
P75218

>  <inspiration_score>  (2621) 
None

$$$$
P75220
     RDKit          3D

 14 14  0  0  0  0  0  0  0  0999 V2000
   -6.0437    4.1500  -14.5387 N   0  0  0  0  0  0  0  0  0  0  0  0
   -6.7677    4.2945  -15.4372 C   0  0  0  0  0  0  0  0  0  0  0  0
   -7.6679    4.4552  -16.5406 C   0  0  0  0  0  0  0  0  0  0  0  0
   -9.0168    4.2362  -16.3459 N   0  0  0  0  0  0  0  0  0  0  0  0
   -9.5794    4.4371  -17.5102 C   0  0  0  0  0  0  0  0  0  0  0  0
   -8.6533    4.7435  -18.4615 N   0  0  0  0  0  0  0  0  0  0  0  0
   -7.4150    4.7512  -17.8688 C   0  0  0  0  0  0  0  0  0  0  0  0
   -6.3100    5.0023  -18.6296 N   0  0  0  0  0  0  0  0  0  0  0  0
   -4.8315    5.2572  -18.2116 C   0  0  0  0  0  0  0  0  0  0  0  0
   -4.3234    5.2141  -17.1587 O   0  0  0  0  0  0  0  0  0  0  0  0
   -4.0101    5.4983  -19.4960 C   0  0  2  0  0  0  0  0  0  0  0  0
   -2.6003    5.5403  -19.2487 O   0  0  0  0  0  0  0  0  0  0  0  0
   -4.4304    6.7552  -20.2457 C   0  0  0  0  0  0  0  0  0  0  0  0
   -4.3124    7.8364  -19.4239 F   0  0  0  0  0  0  0  0  0  0  0  0
  1  2  3  0
  2  3  1  0
  3  4  1  0
  4  5  2  0
  5  6  1  0
  6  7  1  0
  7  8  1  0
  8  9  1  0
  9 10  2  0
  9 11  1  0
 11 12  1  1
 11 13  1  0
 13 14  1  0
  7  3  2  0
M  END
>  <energy_score>  (2622) 
-19.428979

>  <alias>  (2622) 
None

>  <HIPPO Pose ID>  (2622) 
75220

>  <smiles>  (2622) 
N#Cc1nc[nH]c1NC(=O)[C@H](O)CF

>  <inchikey>  (2622) 
WKRWEBFZMYVFCQ-RXMQYKEDSA-N

>  <distance_score>  (2622) 
1.257133

>  <ref_mols>  (2622) 
Z0719a,Z1597a

>  <ref_pdb>  (2622) 
Z0719a

>  <HIPPO Compound ID>  (2622) 
149555

>  <name>  (2622) 
P75220

>  <inspiration_score>  (2622) 
None

$$$$
P75230
     RDKit          3D

 14 14  0  0  0  0  0  0  0  0999 V2000
   -4.9802    7.9059  -20.7825 C   0  0  0  0  0  0  0  0  0  0  0  0
   -4.3863    7.0003  -20.2635 C   0  0  0  0  0  0  0  0  0  0  0  0
   -3.6565    5.8726  -19.6563 C   0  0  1  0  0  0  0  0  0  0  0  0
   -2.1511    6.0861  -19.8441 C   0  0  0  0  0  0  0  0  0  0  0  0
   -3.9895    5.6382  -18.1735 C   0  0  0  0  0  0  0  0  0  0  0  0
   -3.1539    5.6060  -17.3522 O   0  0  0  0  0  0  0  0  0  0  0  0
   -5.5229    5.3717  -18.0660 N   0  0  0  0  0  0  0  0  0  0  0  0
   -6.2690    4.9488  -17.0204 C   0  0  0  0  0  0  0  0  0  0  0  0
   -5.7744    4.4937  -15.8301 C   0  0  0  0  0  0  0  0  0  0  0  0
   -6.8511    4.0239  -15.1410 N   0  0  0  0  0  0  0  0  0  0  0  0
   -6.8499    3.3242  -13.8676 C   0  0  0  0  0  0  0  0  0  0  0  0
   -5.4848    3.0086  -13.2552 C   0  0  0  0  0  0  0  0  0  0  0  0
   -7.9573    4.3057  -15.9043 C   0  0  0  0  0  0  0  0  0  0  0  0
   -7.6244    4.8677  -17.0508 N   0  0  0  0  0  0  0  0  0  0  0  0
  1  2  3  0
  2  3  1  0
  3  4  1  1
  3  5  1  0
  5  6  2  0
  5  7  1  0
  7  8  1  0
  8  9  2  0
  9 10  1  0
 10 11  1  0
 11 12  1  0
 10 13  1  0
 13 14  2  0
 14  8  1  0
M  END
>  <energy_score>  (2623) 
-14.534928

>  <alias>  (2623) 
None

>  <HIPPO Pose ID>  (2623) 
75230

>  <smiles>  (2623) 
C#C[C@@H](C)C(=O)Nc1cn(CC)cn1

>  <inchikey>  (2623) 
BOQUJIALEUHNQX-MRVPVSSYSA-N

>  <distance_score>  (2623) 
1.941268

>  <ref_mols>  (2623) 
Z0719a,Z1597a

>  <ref_pdb>  (2623) 
Z0719a

>  <HIPPO Compound ID>  (2623) 
149564

>  <name>  (2623) 
P75230

>  <inspiration_score>  (2623) 
None

$$$$
P75231
     RDKit          3D

 14 14  0  0  0  0  0  0  0  0999 V2000
   -8.5693    4.4355  -15.0592 C   0  0  0  0  0  0  0  0  0  0  0  0
   -8.1041    4.4716  -16.4637 C   0  0  0  0  0  0  0  0  0  0  0  0
   -8.7852    4.1106  -17.5285 N   0  0  0  0  0  0  0  0  0  0  0  0
   -7.9451    4.3473  -18.5868 C   0  0  0  0  0  0  0  0  0  0  0  0
   -6.7287    4.8606  -18.1757 C   0  0  0  0  0  0  0  0  0  0  0  0
   -5.6600    5.2445  -18.9529 N   0  0  0  0  0  0  0  0  0  0  0  0
   -4.3571    6.0258  -18.5745 C   0  0  0  0  0  0  0  0  0  0  0  0
   -3.9658    6.3900  -17.5299 O   0  0  0  0  0  0  0  0  0  0  0  0
   -3.5570    6.2893  -19.8791 C   0  0  0  0  0  0  0  0  0  0  0  0
   -4.3198    7.2104  -20.8259 C   0  0  0  0  0  0  0  0  0  0  0  0
   -2.1961    6.9074  -19.5534 C   0  0  0  0  0  0  0  0  0  0  0  0
   -3.2845    5.1221  -20.5479 F   0  0  0  0  0  0  0  0  0  0  0  0
   -6.8358    4.8842  -16.8057 N   0  0  0  0  0  0  0  0  0  0  0  0
   -5.8158    5.1502  -15.8331 C   0  0  0  0  0  0  0  0  0  0  0  0
  1  2  1  0
  2  3  2  0
  3  4  1  0
  4  5  2  0
  5  6  1  0
  6  7  1  0
  7  8  2  0
  7  9  1  0
  9 10  1  0
  9 11  1  0
  9 12  1  0
  5 13  1  0
 13 14  1  0
 13  2  1  0
M  END
>  <energy_score>  (2624) 
-20.487122

>  <alias>  (2624) 
None

>  <HIPPO Pose ID>  (2624) 
75231

>  <smiles>  (2624) 
Cc1ncc(NC(=O)C(C)(C)F)n1C

>  <inchikey>  (2624) 
PKCAWNKISRVSOL-UHFFFAOYSA-N

>  <distance_score>  (2624) 
1.372239

>  <ref_mols>  (2624) 
Z0719a,Z1597a

>  <ref_pdb>  (2624) 
Z0719a

>  <HIPPO Compound ID>  (2624) 
149565

>  <name>  (2624) 
P75231

>  <inspiration_score>  (2624) 
None

$$$$
P75232
     RDKit          3D

 14 14  0  0  0  0  0  0  0  0999 V2000
   -5.0007    7.8199  -19.9795 C   0  0  0  0  0  0  0  0  0  0  0  0
   -4.0380    6.8920  -20.1087 C   0  0  0  0  0  0  0  0  0  0  0  0
   -2.4884    7.2672  -21.4790 I   0  0  0  0  0  0  0  0  0  0  0  0
   -3.9142    5.6074  -19.3219 C   0  0  0  0  0  0  0  0  0  0  0  0
   -4.8120    5.4661  -18.0872 C   0  0  0  0  0  0  0  0  0  0  0  0
   -4.4014    5.5894  -17.0004 O   0  0  0  0  0  0  0  0  0  0  0  0
   -6.2426    5.1245  -18.5908 N   0  0  0  0  0  0  0  0  0  0  0  0
   -7.3706    4.7912  -17.8966 C   0  0  0  0  0  0  0  0  0  0  0  0
   -8.5807    4.7432  -18.5419 N   0  0  0  0  0  0  0  0  0  0  0  0
   -9.5354    4.3979  -17.6313 C   0  0  0  0  0  0  0  0  0  0  0  0
   -9.0136    4.1856  -16.4498 N   0  0  0  0  0  0  0  0  0  0  0  0
   -7.6660    4.4525  -16.5870 C   0  0  0  0  0  0  0  0  0  0  0  0
   -6.8019    4.2951  -15.4539 C   0  0  0  0  0  0  0  0  0  0  0  0
   -6.1055    4.1445  -14.5346 N   0  0  0  0  0  0  0  0  0  0  0  0
  1  2  2  0
  2  3  1  0
  2  4  1  0
  4  5  1  0
  5  6  2  0
  5  7  1  0
  7  8  1  0
  8  9  1  0
  9 10  1  0
 10 11  2  0
 11 12  1  0
 12 13  1  0
 13 14  3  0
 12  8  2  0
M  END
>  <energy_score>  (2625) 
-13.27137

>  <alias>  (2625) 
None

>  <HIPPO Pose ID>  (2625) 
75232

>  <smiles>  (2625) 
C=C(I)CC(=O)Nc1[nH]cnc1C#N

>  <inchikey>  (2625) 
XDHYVUQSDQICEM-UHFFFAOYSA-N

>  <distance_score>  (2625) 
1.28661

>  <ref_mols>  (2625) 
Z0719a,Z1597a

>  <ref_pdb>  (2625) 
Z0719a

>  <HIPPO Compound ID>  (2625) 
149567

>  <name>  (2625) 
P75232

>  <inspiration_score>  (2625) 
None

$$$$
P75233
     RDKit          3D

 14 14  0  0  0  0  0  0  0  0999 V2000
   -5.1798    7.5550  -20.3075 C   0  0  0  0  0  0  0  0  0  0  0  0
   -4.0716    6.8137  -20.1481 C   0  0  0  0  0  0  0  0  0  0  0  0
   -2.3612    7.3339  -21.2453 I   0  0  0  0  0  0  0  0  0  0  0  0
   -3.9392    5.6095  -19.2474 C   0  0  0  0  0  0  0  0  0  0  0  0
   -4.7015    5.6746  -17.9154 C   0  0  0  0  0  0  0  0  0  0  0  0
   -4.1898    5.9780  -16.9075 O   0  0  0  0  0  0  0  0  0  0  0  0
   -6.1497    5.1791  -18.2027 N   0  0  0  0  0  0  0  0  0  0  0  0
   -7.1752    4.8821  -17.3438 C   0  0  0  0  0  0  0  0  0  0  0  0
   -8.4213    4.4091  -17.7037 C   0  0  0  0  0  0  0  0  0  0  0  0
   -8.9596    4.1487  -19.0332 C   0  0  0  0  0  0  0  0  0  0  0  0
   -9.1925    4.1128  -16.6164 N   0  0  0  0  0  0  0  0  0  0  0  0
   -8.4475    4.4257  -15.5900 C   0  0  0  0  0  0  0  0  0  0  0  0
   -7.2297    4.9183  -15.9779 N   0  0  0  0  0  0  0  0  0  0  0  0
   -6.2309    5.3127  -15.0356 C   0  0  0  0  0  0  0  0  0  0  0  0
  1  2  2  0
  2  3  1  0
  2  4  1  0
  4  5  1  0
  5  6  2  0
  5  7  1  0
  7  8  1  0
  8  9  2  0
  9 10  1  0
  9 11  1  0
 11 12  2  0
 12 13  1  0
 13 14  1  0
 13  8  1  0
M  END
>  <energy_score>  (2626) 
-6.862262

>  <alias>  (2626) 
None

>  <HIPPO Pose ID>  (2626) 
75233

>  <smiles>  (2626) 
C=C(I)CC(=O)Nc1c(C)ncn1C

>  <inchikey>  (2626) 
AKCRGLHYRCWGAW-UHFFFAOYSA-N

>  <distance_score>  (2626) 
1.309882

>  <ref_mols>  (2626) 
Z0719a,Z1597a

>  <ref_pdb>  (2626) 
Z0719a

>  <HIPPO Compound ID>  (2626) 
149568

>  <name>  (2626) 
P75233

>  <inspiration_score>  (2626) 
None

$$$$
P75234
     RDKit          3D

 14 14  0  0  0  0  0  0  0  0999 V2000
   -5.4348    7.7764  -21.9241 C   0  0  0  0  0  0  0  0  0  0  0  0
   -4.8842    7.8512  -20.7026 C   0  0  0  0  0  0  0  0  0  0  0  0
   -4.8850    9.7051  -19.7290 I   0  0  0  0  0  0  0  0  0  0  0  0
   -4.2294    6.6998  -19.9991 C   0  0  0  0  0  0  0  0  0  0  0  0
   -4.8613    6.3436  -18.6543 C   0  0  0  0  0  0  0  0  0  0  0  0
   -4.2739    6.5059  -17.6526 O   0  0  0  0  0  0  0  0  0  0  0  0
   -6.2858    5.7553  -18.9080 N   0  0  0  0  0  0  0  0  0  0  0  0
   -7.1838    5.1930  -18.0385 C   0  0  0  0  0  0  0  0  0  0  0  0
   -8.3011    4.4276  -18.3053 C   0  0  0  0  0  0  0  0  0  0  0  0
   -8.8458    3.9201  -17.1485 N   0  0  0  0  0  0  0  0  0  0  0  0
   -8.0986    4.4000  -16.1736 C   0  0  0  0  0  0  0  0  0  0  0  0
   -8.1903    4.0805  -14.7265 C   0  0  0  0  0  0  0  0  0  0  0  0
   -7.1640    5.2764  -16.6714 N   0  0  0  0  0  0  0  0  0  0  0  0
   -6.4402    6.2028  -15.8503 C   0  0  0  0  0  0  0  0  0  0  0  0
  1  2  2  0
  2  3  1  0
  2  4  1  0
  4  5  1  0
  5  6  2  0
  5  7  1  0
  7  8  1  0
  8  9  2  0
  9 10  1  0
 10 11  2  0
 11 12  1  0
 11 13  1  0
 13 14  1  0
 13  8  1  0
M  END
>  <energy_score>  (2627) 
-18.203927

>  <alias>  (2627) 
None

>  <HIPPO Pose ID>  (2627) 
75234

>  <smiles>  (2627) 
C=C(I)CC(=O)Nc1cnc(C)n1C

>  <inchikey>  (2627) 
ASUGGIQPAXFFNH-UHFFFAOYSA-N

>  <distance_score>  (2627) 
1.364581

>  <ref_mols>  (2627) 
Z0719a,Z1597a

>  <ref_pdb>  (2627) 
Z0719a

>  <HIPPO Compound ID>  (2627) 
149569

>  <name>  (2627) 
P75234

>  <inspiration_score>  (2627) 
None

$$$$
P75235
     RDKit          3D

 14 14  0  0  0  0  0  0  0  0999 V2000
   -4.8060    7.5339  -20.9015 C   0  0  0  0  0  0  0  0  0  0  0  0
   -4.0788    7.1922  -19.8256 C   0  0  0  0  0  0  0  0  0  0  0  0
   -3.3838    8.2399  -18.9956 C   0  0  0  0  0  0  0  0  0  0  0  0
   -3.8852    5.7705  -19.3573 C   0  0  0  0  0  0  0  0  0  0  0  0
   -4.7044    5.4354  -18.1049 C   0  0  0  0  0  0  0  0  0  0  0  0
   -4.2315    5.3703  -17.0385 O   0  0  0  0  0  0  0  0  0  0  0  0
   -6.1570    5.1532  -18.5815 N   0  0  0  0  0  0  0  0  0  0  0  0
   -7.2805    4.8432  -17.8674 C   0  0  0  0  0  0  0  0  0  0  0  0
   -8.5001    4.8450  -18.4962 N   0  0  0  0  0  0  0  0  0  0  0  0
   -9.4498    4.4707  -17.5914 C   0  0  0  0  0  0  0  0  0  0  0  0
   -8.9203    4.2238  -16.4203 N   0  0  0  0  0  0  0  0  0  0  0  0
   -7.5684    4.4725  -16.5648 C   0  0  0  0  0  0  0  0  0  0  0  0
   -6.7010    4.2832  -15.4403 C   0  0  0  0  0  0  0  0  0  0  0  0
   -6.0067    4.1140  -14.5226 N   0  0  0  0  0  0  0  0  0  0  0  0
  1  2  2  0
  2  3  1  0
  2  4  1  0
  4  5  1  0
  5  6  2  0
  5  7  1  0
  7  8  1  0
  8  9  1  0
  9 10  1  0
 10 11  2  0
 11 12  1  0
 12 13  1  0
 13 14  3  0
 12  8  2  0
M  END
>  <energy_score>  (2628) 
-17.752206

>  <alias>  (2628) 
None

>  <HIPPO Pose ID>  (2628) 
75235

>  <smiles>  (2628) 
C=C(C)CC(=O)Nc1[nH]cnc1C#N

>  <inchikey>  (2628) 
VWICJMNKPYGQMY-UHFFFAOYSA-N

>  <distance_score>  (2628) 
1.931493

>  <ref_mols>  (2628) 
Z0719a,Z1597a

>  <ref_pdb>  (2628) 
Z0719a

>  <HIPPO Compound ID>  (2628) 
149571

>  <name>  (2628) 
P75235

>  <inspiration_score>  (2628) 
None

$$$$
P75236
     RDKit          3D

 14 14  0  0  0  0  0  0  0  0999 V2000
   -5.0295    7.4887  -20.9089 C   0  0  0  0  0  0  0  0  0  0  0  0
   -4.1328    7.2186  -19.9467 C   0  0  0  0  0  0  0  0  0  0  0  0
   -3.1645    8.2644  -19.4657 C   0  0  0  0  0  0  0  0  0  0  0  0
   -4.0293    5.8729  -19.2745 C   0  0  0  0  0  0  0  0  0  0  0  0
   -4.7482    5.8311  -17.9177 C   0  0  0  0  0  0  0  0  0  0  0  0
   -4.2266    6.1088  -16.9069 O   0  0  0  0  0  0  0  0  0  0  0  0
   -6.1874    5.3027  -18.1997 N   0  0  0  0  0  0  0  0  0  0  0  0
   -7.1868    4.9394  -17.3357 C   0  0  0  0  0  0  0  0  0  0  0  0
   -8.4253    4.4429  -17.6931 C   0  0  0  0  0  0  0  0  0  0  0  0
   -8.9657    4.1861  -19.0230 C   0  0  0  0  0  0  0  0  0  0  0  0
   -9.1770    4.1010  -16.6046 N   0  0  0  0  0  0  0  0  0  0  0  0
   -8.4200    4.3906  -15.5799 C   0  0  0  0  0  0  0  0  0  0  0  0
   -7.2127    4.9069  -15.9692 N   0  0  0  0  0  0  0  0  0  0  0  0
   -6.2011    5.2755  -15.0303 C   0  0  0  0  0  0  0  0  0  0  0  0
  1  2  2  0
  2  3  1  0
  2  4  1  0
  4  5  1  0
  5  6  2  0
  5  7  1  0
  7  8  1  0
  8  9  2  0
  9 10  1  0
  9 11  1  0
 11 12  2  0
 12 13  1  0
 13 14  1  0
 13  8  1  0
M  END
>  <energy_score>  (2629) 
-21.950957

>  <alias>  (2629) 
None

>  <HIPPO Pose ID>  (2629) 
75236

>  <smiles>  (2629) 
C=C(C)CC(=O)Nc1c(C)ncn1C

>  <inchikey>  (2629) 
BITUXDSXWQIEMU-UHFFFAOYSA-N

>  <distance_score>  (2629) 
1.283053

>  <ref_mols>  (2629) 
Z0719a,Z1597a

>  <ref_pdb>  (2629) 
Z0719a

>  <HIPPO Compound ID>  (2629) 
149572

>  <name>  (2629) 
P75236

>  <inspiration_score>  (2629) 
None

$$$$
P75239
     RDKit          3D

 14 15  0  0  0  0  0  0  0  0999 V2000
   -7.4137    3.1471   -9.4298 C   0  0  0  0  0  0  0  0  0  0  0  0
   -7.6170    4.1403  -10.5102 C   0  0  0  0  0  0  0  0  0  0  0  0
   -8.1977    5.3113  -10.3336 N   0  0  0  0  0  0  0  0  0  0  0  0
   -8.2850    5.8623  -11.5750 C   0  0  0  0  0  0  0  0  0  0  0  0
   -7.6625    5.0792  -12.5219 C   0  0  0  0  0  0  0  0  0  0  0  0
   -7.5413    5.3478  -13.8561 N   0  0  0  0  0  0  0  0  0  0  0  0
   -6.5579    4.7767  -14.9157 C   0  0  0  0  0  0  0  0  0  0  0  0
   -5.6497    4.0456  -14.7929 O   0  0  0  0  0  0  0  0  0  0  0  0
   -6.9787    5.4503  -16.2752 C   0  0  1  0  0  0  0  0  0  0  0  0
   -6.4984    4.8834  -17.6047 C   0  0  0  0  0  0  0  0  0  0  0  0
   -7.9744    4.7924  -17.9634 C   0  0  0  0  0  0  0  0  0  0  0  0
   -8.3695    5.1793  -16.6235 O   0  0  0  0  0  0  0  0  0  0  0  0
   -7.2376    3.9664  -11.8328 N   0  0  0  0  0  0  0  0  0  0  0  0
   -6.6425    2.7739  -12.3975 C   0  0  0  0  0  0  0  0  0  0  0  0
  1  2  1  0
  2  3  2  0
  3  4  1  0
  4  5  2  0
  5  6  1  0
  6  7  1  0
  7  8  2  0
  9  7  1  1
  9 10  1  0
 10 11  1  0
 11 12  1  0
  5 13  1  0
 13 14  1  0
 13  2  1  0
 12  9  1  0
M  END
>  <energy_score>  (2630) 
-37.853202

>  <alias>  (2630) 
None

>  <HIPPO Pose ID>  (2630) 
75239

>  <smiles>  (2630) 
Cc1ncc(NC(=O)[C@H]2CCO2)n1C

>  <inchikey>  (2630) 
BBFIHZVJCDRPOV-SSDOTTSWSA-N

>  <distance_score>  (2630) 
1.417904

>  <ref_mols>  (2630) 
Z0719a,Z1597a

>  <ref_pdb>  (2630) 
Z0719a

>  <HIPPO Compound ID>  (2630) 
149574

>  <name>  (2630) 
P75239

>  <inspiration_score>  (2630) 
None

$$$$
P75242
     RDKit          3D

 14 14  0  0  0  0  0  0  0  0999 V2000
   -4.9371    7.4324  -20.8591 C   0  0  0  0  0  0  0  0  0  0  0  0
   -4.1289    7.0451  -19.8647 C   0  0  0  0  0  0  0  0  0  0  0  0
   -4.1008    5.6823  -19.2381 C   0  0  0  0  0  0  0  0  0  0  0  0
   -5.0009    5.5968  -18.0005 C   0  0  0  0  0  0  0  0  0  0  0  0
   -4.6393    5.8982  -16.9307 O   0  0  0  0  0  0  0  0  0  0  0  0
   -6.3665    5.0331  -18.4796 N   0  0  0  0  0  0  0  0  0  0  0  0
   -7.4613    4.6604  -17.7733 C   0  0  0  0  0  0  0  0  0  0  0  0
   -8.5911    4.3976  -18.4975 N   0  0  0  0  0  0  0  0  0  0  0  0
   -9.5522    4.1928  -17.6278 C   0  0  0  0  0  0  0  0  0  0  0  0
   -9.0696    4.2107  -16.3589 N   0  0  0  0  0  0  0  0  0  0  0  0
   -7.7359    4.5012  -16.4468 C   0  0  0  0  0  0  0  0  0  0  0  0
   -6.9947    4.5692  -15.2595 N   0  0  0  0  0  0  0  0  0  0  0  0
   -5.9247    3.9597  -15.1915 O   0  0  0  0  0  0  0  0  0  0  0  0
   -7.5545    5.1826  -14.3462 O   0  0  0  0  0  0  0  0  0  0  0  0
  1  2  2  0
  2  3  1  0
  3  4  1  0
  4  5  2  0
  4  6  1  0
  6  7  1  0
  7  8  1  0
  8  9  2  0
  9 10  1  0
 10 11  1  0
 11 12  1  0
 12 13  2  0
 12 14  1  0
 11  7  2  0
M  CHG  2  12   1  14  -1
M  END
>  <energy_score>  (2631) 
-23.809047

>  <alias>  (2631) 
None

>  <HIPPO Pose ID>  (2631) 
75242

>  <smiles>  (2631) 
C=CCC(=O)Nc1nc[nH]c1[N+](=O)[O-]

>  <inchikey>  (2631) 
IXFDZVDCXNHUKA-UHFFFAOYSA-N

>  <distance_score>  (2631) 
1.435682

>  <ref_mols>  (2631) 
Z0719a,Z1597a

>  <ref_pdb>  (2631) 
Z0719a

>  <HIPPO Compound ID>  (2631) 
149581

>  <name>  (2631) 
P75242

>  <inspiration_score>  (2631) 
None

$$$$
P75245
     RDKit          3D

 14 14  0  0  0  0  0  0  0  0999 V2000
   -3.9112    8.6637  -21.1310 C   0  0  0  0  0  0  0  0  0  0  0  0
   -4.2309    7.3794  -20.9245 C   0  0  0  0  0  0  0  0  0  0  0  0
   -5.4662    6.9121  -20.2055 C   0  0  0  0  0  0  0  0  0  0  0  0
   -5.1322    6.0146  -19.0031 C   0  0  0  0  0  0  0  0  0  0  0  0
   -4.0413    5.7522  -18.6652 O   0  0  0  0  0  0  0  0  0  0  0  0
   -6.5044    5.6692  -18.3460 N   0  0  0  0  0  0  0  0  0  0  0  0
   -6.7871    5.0565  -17.1731 C   0  0  0  0  0  0  0  0  0  0  0  0
   -5.8983    4.5518  -16.2626 C   0  0  0  0  0  0  0  0  0  0  0  0
   -6.6525    4.1312  -15.1985 N   0  0  0  0  0  0  0  0  0  0  0  0
   -6.1850    3.6921  -13.8799 C   0  0  0  0  0  0  0  0  0  0  0  0
   -4.6707    3.4631  -13.7567 C   0  0  0  0  0  0  0  0  0  0  0  0
   -6.9076    2.4522  -13.3675 C   0  0  0  0  0  0  0  0  0  0  0  0
   -7.9618    4.3795  -15.5406 C   0  0  0  0  0  0  0  0  0  0  0  0
   -8.0625    4.9543  -16.7204 N   0  0  0  0  0  0  0  0  0  0  0  0
  1  2  2  0
  2  3  1  0
  3  4  1  0
  4  5  2  0
  4  6  1  0
  6  7  1  0
  7  8  2  0
  8  9  1  0
  9 10  1  0
 10 11  1  0
 10 12  1  0
  9 13  1  0
 13 14  2  0
 14  7  1  0
M  END
>  <energy_score>  (2632) 
-22.437925

>  <alias>  (2632) 
None

>  <HIPPO Pose ID>  (2632) 
75245

>  <smiles>  (2632) 
C=CCC(=O)Nc1cn(C(C)C)cn1

>  <inchikey>  (2632) 
AXYJMLRTIRBGHJ-UHFFFAOYSA-N

>  <distance_score>  (2632) 
1.929546

>  <ref_mols>  (2632) 
Z0719a,Z1597a

>  <ref_pdb>  (2632) 
Z0719a

>  <HIPPO Compound ID>  (2632) 
149586

>  <name>  (2632) 
P75245

>  <inspiration_score>  (2632) 
None

$$$$
P75246
     RDKit          3D

 14 14  0  0  0  0  0  0  0  0999 V2000
   -3.2462    7.6759  -20.5227 C   0  0  0  0  0  0  0  0  0  0  0  0
   -4.0842    6.6618  -20.2708 C   0  0  0  0  0  0  0  0  0  0  0  0
   -3.7107    5.4297  -19.4971 C   0  0  0  0  0  0  0  0  0  0  0  0
   -4.3969    5.3332  -18.1342 C   0  0  0  0  0  0  0  0  0  0  0  0
   -3.8091    5.4759  -17.1335 O   0  0  0  0  0  0  0  0  0  0  0  0
   -5.8805    4.9449  -18.3838 N   0  0  0  0  0  0  0  0  0  0  0  0
   -6.9010    4.7581  -17.5099 C   0  0  0  0  0  0  0  0  0  0  0  0
   -8.1749    4.7190  -17.9960 N   0  0  0  0  0  0  0  0  0  0  0  0
   -8.9590    4.5710  -16.9506 C   0  0  0  0  0  0  0  0  0  0  0  0
   -8.2270    4.5339  -15.8086 N   0  0  0  0  0  0  0  0  0  0  0  0
   -8.7039    4.5299  -14.4510 C   0  0  0  0  0  0  0  0  0  0  0  0
   -6.9031    4.5760  -16.1509 C   0  0  0  0  0  0  0  0  0  0  0  0
   -5.8694    4.3900  -15.2094 C   0  0  0  0  0  0  0  0  0  0  0  0
   -5.1182    4.1689  -14.3544 N   0  0  0  0  0  0  0  0  0  0  0  0
  1  2  2  0
  2  3  1  0
  3  4  1  0
  4  5  2  0
  4  6  1  0
  6  7  1  0
  7  8  1  0
  8  9  2  0
  9 10  1  0
 10 11  1  0
 10 12  1  0
 12 13  1  0
 13 14  3  0
 12  7  2  0
M  END
>  <energy_score>  (2633) 
-25.604257

>  <alias>  (2633) 
None

>  <HIPPO Pose ID>  (2633) 
75246

>  <smiles>  (2633) 
C=CCC(=O)Nc1ncn(C)c1C#N

>  <inchikey>  (2633) 
WJWMDKOXMCHTME-UHFFFAOYSA-N

>  <distance_score>  (2633) 
1.727025

>  <ref_mols>  (2633) 
Z0719a,Z1597a

>  <ref_pdb>  (2633) 
Z0719a

>  <HIPPO Compound ID>  (2633) 
149589

>  <name>  (2633) 
P75246

>  <inspiration_score>  (2633) 
None

$$$$
P75247
     RDKit          3D

 14 14  0  0  0  0  0  0  0  0999 V2000
   -6.1512    3.2913  -14.1462 N   0  0  0  0  0  0  0  0  0  0  0  0
   -6.7237    3.7369  -15.0573 C   0  0  0  0  0  0  0  0  0  0  0  0
   -7.5330    4.2039  -16.1616 C   0  0  0  0  0  0  0  0  0  0  0  0
   -8.9106    4.1678  -16.0114 N   0  0  0  0  0  0  0  0  0  0  0  0
   -9.4138    4.5010  -17.1713 C   0  0  0  0  0  0  0  0  0  0  0  0
   -8.4330    4.7689  -18.0744 N   0  0  0  0  0  0  0  0  0  0  0  0
   -7.2170    4.5975  -17.4567 C   0  0  0  0  0  0  0  0  0  0  0  0
   -6.0941    4.7958  -18.2091 N   0  0  0  0  0  0  0  0  0  0  0  0
   -4.6099    4.9366  -17.7843 C   0  0  0  0  0  0  0  0  0  0  0  0
   -4.1101    4.8282  -16.7357 O   0  0  0  0  0  0  0  0  0  0  0  0
   -3.8262    5.2434  -19.0613 C   0  0  0  0  0  0  0  0  0  0  0  0
   -3.9993    6.6964  -19.5160 C   0  0  0  0  0  0  0  0  0  0  0  0
   -3.4420    7.0472  -20.8927 C   0  0  0  0  0  0  0  0  0  0  0  0
   -1.7603    6.4298  -21.1981 S   0  0  0  0  0  0  0  0  0  0  0  0
  1  2  3  0
  2  3  1  0
  3  4  1  0
  4  5  2  0
  5  6  1  0
  6  7  1  0
  7  8  1  0
  8  9  1  0
  9 10  2  0
  9 11  1  0
 11 12  1  0
 12 13  1  0
 13 14  1  0
  7  3  2  0
M  END
>  <energy_score>  (2634) 
-19.060147

>  <alias>  (2634) 
None

>  <HIPPO Pose ID>  (2634) 
75247

>  <smiles>  (2634) 
N#Cc1nc[nH]c1NC(=O)CCCS

>  <inchikey>  (2634) 
XBOXDSZCSNEVNL-UHFFFAOYSA-N

>  <distance_score>  (2634) 
1.822907

>  <ref_mols>  (2634) 
Z0719a,Z1597a

>  <ref_pdb>  (2634) 
Z0719a

>  <HIPPO Compound ID>  (2634) 
149595

>  <name>  (2634) 
P75247

>  <inspiration_score>  (2634) 
None

$$$$
P75248
     RDKit          3D

 14 14  0  0  0  0  0  0  0  0999 V2000
   -5.1956    3.1914  -13.4742 C   0  0  0  0  0  0  0  0  0  0  0  0
   -6.6433    3.2828  -13.9488 C   0  0  0  0  0  0  0  0  0  0  0  0
   -6.8897    4.0247  -15.1743 N   0  0  0  0  0  0  0  0  0  0  0  0
   -8.1313    4.3877  -15.6331 C   0  0  0  0  0  0  0  0  0  0  0  0
   -8.0571    5.0436  -16.7711 N   0  0  0  0  0  0  0  0  0  0  0  0
   -6.7342    5.0733  -17.0737 C   0  0  0  0  0  0  0  0  0  0  0  0
   -6.2856    5.6345  -18.2185 N   0  0  0  0  0  0  0  0  0  0  0  0
   -4.8358    5.8670  -18.7277 C   0  0  0  0  0  0  0  0  0  0  0  0
   -3.8074    5.6788  -18.2010 O   0  0  0  0  0  0  0  0  0  0  0  0
   -4.9219    6.4807  -20.1082 C   0  0  0  0  0  0  0  0  0  0  0  0
   -4.5972    7.9571  -20.0748 C   0  0  0  0  0  0  0  0  0  0  0  0
   -5.4685    8.7291  -20.9113 O   0  0  0  0  0  0  0  0  0  0  0  0
   -5.2532    8.4938  -22.2992 C   0  0  0  0  0  0  0  0  0  0  0  0
   -5.9876    4.4773  -16.0939 C   0  0  0  0  0  0  0  0  0  0  0  0
  1  2  1  0
  2  3  1  0
  3  4  1  0
  4  5  2  0
  5  6  1  0
  6  7  1  0
  7  8  1  0
  8  9  2  0
  8 10  1  0
 10 11  1  0
 11 12  1  0
 12 13  1  0
  6 14  2  0
 14  3  1  0
M  END
>  <energy_score>  (2635) 
-25.443786

>  <alias>  (2635) 
None

>  <HIPPO Pose ID>  (2635) 
75248

>  <smiles>  (2635) 
CCn1cnc(NC(=O)CCOC)c1

>  <inchikey>  (2635) 
NJTCGKDNDMHFRI-UHFFFAOYSA-N

>  <distance_score>  (2635) 
1.818037

>  <ref_mols>  (2635) 
Z0719a,Z1597a

>  <ref_pdb>  (2635) 
Z0719a

>  <HIPPO Compound ID>  (2635) 
149602

>  <name>  (2635) 
P75248

>  <inspiration_score>  (2635) 
None

$$$$
P75249
     RDKit          3D

 14 14  0  0  0  0  0  0  0  0999 V2000
   -5.5088    2.9952  -13.2423 C   0  0  0  0  0  0  0  0  0  0  0  0
   -6.8796    3.3103  -13.8423 C   0  0  0  0  0  0  0  0  0  0  0  0
   -6.8903    4.0063  -15.1189 N   0  0  0  0  0  0  0  0  0  0  0  0
   -7.9907    4.2240  -15.9114 C   0  0  0  0  0  0  0  0  0  0  0  0
   -7.6552    4.7477  -17.0756 N   0  0  0  0  0  0  0  0  0  0  0  0
   -6.3075    4.8981  -17.0125 C   0  0  0  0  0  0  0  0  0  0  0  0
   -5.5502    5.3048  -18.0561 N   0  0  0  0  0  0  0  0  0  0  0  0
   -4.0469    5.6978  -18.1200 C   0  0  0  0  0  0  0  0  0  0  0  0
   -3.2539    5.8040  -17.2657 O   0  0  0  0  0  0  0  0  0  0  0  0
   -3.6492    5.8491  -19.5992 C   0  0  1  0  0  0  0  0  0  0  0  0
   -4.3716    7.0079  -20.2858 C   0  0  0  0  0  0  0  0  0  0  0  0
   -2.1155    6.0141  -19.6494 C   0  0  0  0  0  0  0  0  0  0  0  0
   -1.4183    5.9614  -21.3297 S   0  0  0  0  0  0  0  0  0  0  0  0
   -5.8238    4.5240  -15.7899 C   0  0  0  0  0  0  0  0  0  0  0  0
  1  2  1  0
  2  3  1  0
  3  4  1  0
  4  5  2  0
  5  6  1  0
  6  7  1  0
  7  8  1  0
  8  9  2  0
  8 10  1  0
 10 11  1  1
 10 12  1  0
 12 13  1  0
  6 14  2  0
 14  3  1  0
M  END
>  <energy_score>  (2636) 
-30.757811

>  <alias>  (2636) 
None

>  <HIPPO Pose ID>  (2636) 
75249

>  <smiles>  (2636) 
CCn1cnc(NC(=O)[C@@H](C)CS)c1

>  <inchikey>  (2636) 
DKAMZGHKRFETGK-ZETCQYMHSA-N

>  <distance_score>  (2636) 
1.558452

>  <ref_mols>  (2636) 
Z0719a,Z1597a

>  <ref_pdb>  (2636) 
Z0719a

>  <HIPPO Compound ID>  (2636) 
149603

>  <name>  (2636) 
P75249

>  <inspiration_score>  (2636) 
None

$$$$
P75250
     RDKit          3D

 14 14  0  0  0  0  0  0  0  0999 V2000
   -5.4007    8.2090  -19.3187 C   0  0  0  0  0  0  0  0  0  0  0  0
   -4.9017    7.1408  -19.9520 C   0  0  0  0  0  0  0  0  0  0  0  0
   -3.6252    6.4694  -19.5453 C   0  0  0  0  0  0  0  0  0  0  0  0
   -3.7651    5.0280  -19.0624 C   0  0  0  0  0  0  0  0  0  0  0  0
   -4.5500    4.8513  -17.7608 C   0  0  0  0  0  0  0  0  0  0  0  0
   -4.0416    4.7445  -16.7156 O   0  0  0  0  0  0  0  0  0  0  0  0
   -6.0433    4.7490  -18.1672 N   0  0  0  0  0  0  0  0  0  0  0  0
   -7.1628    4.5972  -17.3996 C   0  0  0  0  0  0  0  0  0  0  0  0
   -8.3774    4.7993  -18.0108 N   0  0  0  0  0  0  0  0  0  0  0  0
   -9.3604    4.5483  -17.1054 C   0  0  0  0  0  0  0  0  0  0  0  0
   -8.8599    4.2120  -15.9451 N   0  0  0  0  0  0  0  0  0  0  0  0
   -7.4820    4.2160  -16.1024 C   0  0  0  0  0  0  0  0  0  0  0  0
   -6.6792    3.7220  -15.0064 C   0  0  0  0  0  0  0  0  0  0  0  0
   -6.1132    3.2536  -14.1027 N   0  0  0  0  0  0  0  0  0  0  0  0
  1  2  2  0
  2  3  1  0
  3  4  1  0
  4  5  1  0
  5  6  2  0
  5  7  1  0
  7  8  1  0
  8  9  1  0
  9 10  1  0
 10 11  2  0
 11 12  1  0
 12 13  1  0
 13 14  3  0
 12  8  2  0
M  END
>  <energy_score>  (2637) 
-7.769859

>  <alias>  (2637) 
None

>  <HIPPO Pose ID>  (2637) 
75250

>  <smiles>  (2637) 
C=CCCC(=O)Nc1[nH]cnc1C#N

>  <inchikey>  (2637) 
HSMJSIBWQNLLME-UHFFFAOYSA-N

>  <distance_score>  (2637) 
1.818706

>  <ref_mols>  (2637) 
Z0719a,Z1597a

>  <ref_pdb>  (2637) 
Z0719a

>  <HIPPO Compound ID>  (2637) 
149605

>  <name>  (2637) 
P75250

>  <inspiration_score>  (2637) 
None

$$$$
P75251
     RDKit          3D

 14 14  0  0  0  0  0  0  0  0999 V2000
   -2.2278    7.3810  -22.4293 C   0  0  0  0  0  0  0  0  0  0  0  0
   -3.4137    7.4522  -21.8112 C   0  0  0  0  0  0  0  0  0  0  0  0
   -3.5936    7.3756  -20.3199 C   0  0  0  0  0  0  0  0  0  0  0  0
   -4.6350    6.3402  -19.9289 C   0  0  0  0  0  0  0  0  0  0  0  0
   -4.7109    6.0979  -18.4348 C   0  0  0  0  0  0  0  0  0  0  0  0
   -3.7958    6.2354  -17.7193 O   0  0  0  0  0  0  0  0  0  0  0  0
   -6.1432    5.5656  -18.1478 N   0  0  0  0  0  0  0  0  0  0  0  0
   -6.6739    5.0423  -17.0235 C   0  0  0  0  0  0  0  0  0  0  0  0
   -5.9933    4.6214  -15.9142 C   0  0  0  0  0  0  0  0  0  0  0  0
   -6.9350    4.0439  -15.1140 N   0  0  0  0  0  0  0  0  0  0  0  0
   -6.7423    3.3265  -13.8650 C   0  0  0  0  0  0  0  0  0  0  0  0
   -5.3038    3.1429  -13.3858 C   0  0  0  0  0  0  0  0  0  0  0  0
   -8.1450    4.2405  -15.7309 C   0  0  0  0  0  0  0  0  0  0  0  0
   -8.0055    4.8230  -16.9019 N   0  0  0  0  0  0  0  0  0  0  0  0
  1  2  2  0
  2  3  1  0
  3  4  1  0
  4  5  1  0
  5  6  2  0
  5  7  1  0
  7  8  1  0
  8  9  2  0
  9 10  1  0
 10 11  1  0
 11 12  1  0
 10 13  1  0
 13 14  2  0
 14  8  1  0
M  END
>  <energy_score>  (2638) 
-7.673988

>  <alias>  (2638) 
None

>  <HIPPO Pose ID>  (2638) 
75251

>  <smiles>  (2638) 
C=CCCC(=O)Nc1cn(CC)cn1

>  <inchikey>  (2638) 
HQDIWZAWJLNENV-UHFFFAOYSA-N

>  <distance_score>  (2638) 
1.911477

>  <ref_mols>  (2638) 
Z0719a,Z1597a

>  <ref_pdb>  (2638) 
Z0719a

>  <HIPPO Compound ID>  (2638) 
149608

>  <name>  (2638) 
P75251

>  <inspiration_score>  (2638) 
None

$$$$
P75253
     RDKit          3D

 14 14  0  0  0  0  0  0  0  0999 V2000
   -8.2791    4.1406  -14.7222 C   0  0  0  0  0  0  0  0  0  0  0  0
   -8.1437    4.4169  -16.1740 C   0  0  0  0  0  0  0  0  0  0  0  0
   -8.8670    3.9158  -17.1560 N   0  0  0  0  0  0  0  0  0  0  0  0
   -8.2507    4.3393  -18.3095 C   0  0  0  0  0  0  0  0  0  0  0  0
   -7.1142    5.0710  -18.0284 C   0  0  0  0  0  0  0  0  0  0  0  0
   -6.1303    5.4994  -18.8803 N   0  0  0  0  0  0  0  0  0  0  0  0
   -4.7301    6.1365  -18.5785 C   0  0  0  0  0  0  0  0  0  0  0  0
   -4.2465    6.4588  -17.5606 O   0  0  0  0  0  0  0  0  0  0  0  0
   -4.0072    6.2771  -19.9220 C   0  0  2  0  0  0  0  0  0  0  0  0
   -2.0962    6.6138  -19.5719 Br  0  0  0  0  0  0  0  0  0  0  0  0
   -4.6028    7.3974  -20.7418 C   0  0  0  0  0  0  0  0  0  0  0  0
   -3.8385    7.5332  -22.5322 Br  0  0  0  0  0  0  0  0  0  0  0  0
   -7.1742    5.2535  -16.6722 N   0  0  0  0  0  0  0  0  0  0  0  0
   -6.4647    6.2019  -15.8649 C   0  0  0  0  0  0  0  0  0  0  0  0
  1  2  1  0
  2  3  2  0
  3  4  1  0
  4  5  2  0
  5  6  1  0
  6  7  1  0
  7  8  2  0
  7  9  1  0
  9 10  1  1
  9 11  1  0
 11 12  1  0
  5 13  1  0
 13 14  1  0
 13  2  1  0
M  END
>  <energy_score>  (2639) 
-14.436604

>  <alias>  (2639) 
None

>  <HIPPO Pose ID>  (2639) 
75253

>  <smiles>  (2639) 
Cc1ncc(NC(=O)[C@H](Br)CBr)n1C

>  <inchikey>  (2639) 
WGFCYELCLNSKDO-ZCFIWIBFSA-N

>  <distance_score>  (2639) 
1.126673

>  <ref_mols>  (2639) 
Z0719a,Z1597a

>  <ref_pdb>  (2639) 
Z0719a

>  <HIPPO Compound ID>  (2639) 
149611

>  <name>  (2639) 
P75253

>  <inspiration_score>  (2639) 
None

$$$$
P75255
     RDKit          3D

 14 14  0  0  0  0  0  0  0  0999 V2000
   -5.2732    3.1340  -13.4198 C   0  0  0  0  0  0  0  0  0  0  0  0
   -6.7151    3.2595  -13.9062 C   0  0  0  0  0  0  0  0  0  0  0  0
   -6.9341    4.0071  -15.1347 N   0  0  0  0  0  0  0  0  0  0  0  0
   -8.1607    4.2474  -15.7024 C   0  0  0  0  0  0  0  0  0  0  0  0
   -8.0569    4.9184  -16.8292 N   0  0  0  0  0  0  0  0  0  0  0  0
   -6.7296    5.1424  -16.9772 C   0  0  0  0  0  0  0  0  0  0  0  0
   -6.2479    5.8291  -18.0349 N   0  0  0  0  0  0  0  0  0  0  0  0
   -4.7963    6.2849  -18.3684 C   0  0  0  0  0  0  0  0  0  0  0  0
   -3.8119    6.2014  -17.7400 O   0  0  0  0  0  0  0  0  0  0  0  0
   -4.8338    6.9177  -19.7599 C   0  0  1  0  0  0  0  0  0  0  0  0
   -5.7381    8.6592  -19.5046 Br  0  0  0  0  0  0  0  0  0  0  0  0
   -3.4685    7.2397  -20.3341 C   0  0  0  0  0  0  0  0  0  0  0  0
   -2.2843    5.7050  -20.5049 Br  0  0  0  0  0  0  0  0  0  0  0  0
   -6.0122    4.6086  -15.9417 C   0  0  0  0  0  0  0  0  0  0  0  0
  1  2  1  0
  2  3  1  0
  3  4  1  0
  4  5  2  0
  5  6  1  0
  6  7  1  0
  7  8  1  0
  8  9  2  0
  8 10  1  0
 10 11  1  1
 10 12  1  0
 12 13  1  0
  6 14  2  0
 14  3  1  0
M  END
>  <energy_score>  (2640) 
-30.745474

>  <alias>  (2640) 
None

>  <HIPPO Pose ID>  (2640) 
75255

>  <smiles>  (2640) 
CCn1cnc(NC(=O)[C@@H](Br)CBr)c1

>  <inchikey>  (2640) 
AUAFXZFOGUSNBB-LURJTMIESA-N

>  <distance_score>  (2640) 
1.705888

>  <ref_mols>  (2640) 
Z0719a,Z1597a

>  <ref_pdb>  (2640) 
Z0719a

>  <HIPPO Compound ID>  (2640) 
149612

>  <name>  (2640) 
P75255

>  <inspiration_score>  (2640) 
None

$$$$
P75256
     RDKit          3D

 14 14  0  0  0  0  0  0  0  0999 V2000
   -2.8762    5.7008  -19.3372 C   0  0  0  0  0  0  0  0  0  0  0  0
   -4.1156    6.2154  -19.2418 C   0  0  0  0  0  0  0  0  0  0  0  0
   -4.7458    7.0508  -20.3139 C   0  0  0  0  0  0  0  0  0  0  0  0
   -4.9355    8.3849  -19.8482 O   0  0  0  0  0  0  0  0  0  0  0  0
   -4.8189    5.9868  -17.9305 C   0  0  0  0  0  0  0  0  0  0  0  0
   -4.2613    6.1528  -16.9179 O   0  0  0  0  0  0  0  0  0  0  0  0
   -6.2517    5.4789  -18.2144 N   0  0  0  0  0  0  0  0  0  0  0  0
   -7.2141    5.0039  -17.3605 C   0  0  0  0  0  0  0  0  0  0  0  0
   -8.4164    4.4308  -17.7238 C   0  0  0  0  0  0  0  0  0  0  0  0
   -8.9519    4.1827  -19.0549 C   0  0  0  0  0  0  0  0  0  0  0  0
   -9.1358    4.0068  -16.6433 N   0  0  0  0  0  0  0  0  0  0  0  0
   -8.3976    4.3279  -15.6140 C   0  0  0  0  0  0  0  0  0  0  0  0
   -7.2352    4.9443  -15.9942 N   0  0  0  0  0  0  0  0  0  0  0  0
   -6.2730    5.4100  -15.0464 C   0  0  0  0  0  0  0  0  0  0  0  0
  1  2  2  0
  2  3  1  0
  3  4  1  0
  2  5  1  0
  5  6  2  0
  5  7  1  0
  7  8  1  0
  8  9  2  0
  9 10  1  0
  9 11  1  0
 11 12  2  0
 12 13  1  0
 13 14  1  0
 13  8  1  0
M  END
>  <energy_score>  (2641) 
-17.565016

>  <alias>  (2641) 
None

>  <HIPPO Pose ID>  (2641) 
75256

>  <smiles>  (2641) 
C=C(CO)C(=O)Nc1c(C)ncn1C

>  <inchikey>  (2641) 
GEHGXFMOJTUUEN-UHFFFAOYSA-N

>  <distance_score>  (2641) 
1.233863

>  <ref_mols>  (2641) 
Z0719a,Z1597a

>  <ref_pdb>  (2641) 
Z0719a

>  <HIPPO Compound ID>  (2641) 
149614

>  <name>  (2641) 
P75256

>  <inspiration_score>  (2641) 
None

$$$$
P75257
     RDKit          3D

 14 14  0  0  0  0  0  0  0  0999 V2000
   -2.6010    4.8576  -19.4673 C   0  0  0  0  0  0  0  0  0  0  0  0
   -3.5438    5.7998  -19.6425 C   0  0  0  0  0  0  0  0  0  0  0  0
   -3.6758    6.7656  -20.7686 C   0  0  0  0  0  0  0  0  0  0  0  0
   -2.7978    6.3887  -21.8364 O   0  0  0  0  0  0  0  0  0  0  0  0
   -4.5017    5.9569  -18.5176 C   0  0  0  0  0  0  0  0  0  0  0  0
   -4.2062    6.5444  -17.5527 O   0  0  0  0  0  0  0  0  0  0  0  0
   -5.7832    5.1543  -18.8512 N   0  0  0  0  0  0  0  0  0  0  0  0
   -6.8683    4.8454  -18.0721 C   0  0  0  0  0  0  0  0  0  0  0  0
   -8.1022    4.3542  -18.4505 C   0  0  0  0  0  0  0  0  0  0  0  0
   -8.9144    4.1383  -17.3647 N   0  0  0  0  0  0  0  0  0  0  0  0
   -8.1974    4.4976  -16.3217 C   0  0  0  0  0  0  0  0  0  0  0  0
   -8.6049    4.4731  -14.8997 C   0  0  0  0  0  0  0  0  0  0  0  0
   -6.9379    4.8959  -16.7027 N   0  0  0  0  0  0  0  0  0  0  0  0
   -5.8796    5.1407  -15.7645 C   0  0  0  0  0  0  0  0  0  0  0  0
  1  2  2  0
  2  3  1  0
  3  4  1  0
  2  5  1  0
  5  6  2  0
  5  7  1  0
  7  8  1  0
  8  9  2  0
  9 10  1  0
 10 11  2  0
 11 12  1  0
 11 13  1  0
 13 14  1  0
 13  8  1  0
M  END
>  <energy_score>  (2642) 
-19.990715

>  <alias>  (2642) 
None

>  <HIPPO Pose ID>  (2642) 
75257

>  <smiles>  (2642) 
C=C(CO)C(=O)Nc1cnc(C)n1C

>  <inchikey>  (2642) 
CNYBHIXBMVJBPQ-UHFFFAOYSA-N

>  <distance_score>  (2642) 
1.376452

>  <ref_mols>  (2642) 
Z0719a,Z1597a

>  <ref_pdb>  (2642) 
Z0719a

>  <HIPPO Compound ID>  (2642) 
149615

>  <name>  (2642) 
P75257

>  <inspiration_score>  (2642) 
None

$$$$
P75258
     RDKit          3D

 14 14  0  0  0  0  0  0  0  0999 V2000
   -8.7693    4.1191  -19.1096 C   0  0  0  0  0  0  0  0  0  0  0  0
   -8.3522    4.4280  -17.7479 C   0  0  0  0  0  0  0  0  0  0  0  0
   -9.1493    4.0185  -16.7150 N   0  0  0  0  0  0  0  0  0  0  0  0
   -8.5276    4.4249  -15.6402 C   0  0  0  0  0  0  0  0  0  0  0  0
   -7.3699    5.0894  -15.9435 N   0  0  0  0  0  0  0  0  0  0  0  0
   -6.4526    5.5264  -14.9378 C   0  0  0  0  0  0  0  0  0  0  0  0
   -7.2341    5.1064  -17.3045 C   0  0  0  0  0  0  0  0  0  0  0  0
   -6.2236    5.6280  -18.0683 N   0  0  0  0  0  0  0  0  0  0  0  0
   -5.0781    6.6201  -17.6930 C   0  0  0  0  0  0  0  0  0  0  0  0
   -4.8723    7.1999  -16.6949 O   0  0  0  0  0  0  0  0  0  0  0  0
   -4.1273    6.7724  -18.9230 C   0  0  0  0  0  0  0  0  0  0  0  0
   -4.7981    7.1675  -20.2371 C   0  0  0  0  0  0  0  0  0  0  0  0
   -3.0072    7.7742  -18.6074 C   0  0  0  0  0  0  0  0  0  0  0  0
   -3.2519    5.0223  -19.1586 Br  0  0  0  0  0  0  0  0  0  0  0  0
  1  2  1  0
  2  3  1  0
  3  4  2  0
  4  5  1  0
  5  6  1  0
  5  7  1  0
  7  8  1  0
  8  9  1  0
  9 10  2  0
  9 11  1  0
 11 12  1  0
 11 13  1  0
 11 14  1  0
  7  2  2  0
M  END
>  <energy_score>  (2643) 
-30.988847

>  <alias>  (2643) 
None

>  <HIPPO Pose ID>  (2643) 
75258

>  <smiles>  (2643) 
Cc1ncn(C)c1NC(=O)C(C)(C)Br

>  <inchikey>  (2643) 
SUHXYKPPXAJSQQ-UHFFFAOYSA-N

>  <distance_score>  (2643) 
1.458331

>  <ref_mols>  (2643) 
Z0719a,Z1597a

>  <ref_pdb>  (2643) 
Z0719a

>  <HIPPO Compound ID>  (2643) 
149618

>  <name>  (2643) 
P75258

>  <inspiration_score>  (2643) 
None

$$$$
P75260
     RDKit          3D

 14 14  0  0  0  0  0  0  0  0999 V2000
   -5.1807    3.1169  -13.4297 C   0  0  0  0  0  0  0  0  0  0  0  0
   -6.5989    3.2321  -13.9820 C   0  0  0  0  0  0  0  0  0  0  0  0
   -6.7618    4.0370  -15.1833 N   0  0  0  0  0  0  0  0  0  0  0  0
   -7.9345    4.6270  -15.5848 C   0  0  0  0  0  0  0  0  0  0  0  0
   -7.7535    5.3954  -16.6405 N   0  0  0  0  0  0  0  0  0  0  0  0
   -6.4540    5.2056  -16.9952 C   0  0  0  0  0  0  0  0  0  0  0  0
   -5.9178    5.8321  -18.0688 N   0  0  0  0  0  0  0  0  0  0  0  0
   -4.4800    5.7486  -18.6797 C   0  0  0  0  0  0  0  0  0  0  0  0
   -3.5701    5.0668  -18.3905 O   0  0  0  0  0  0  0  0  0  0  0  0
   -4.3524    6.8690  -19.7658 C   0  0  0  0  0  0  0  0  0  0  0  0
   -4.0024    8.1822  -19.0956 C   0  0  0  0  0  0  0  0  0  0  0  0
   -5.5400    7.0772  -20.6916 C   0  0  0  0  0  0  0  0  0  0  0  0
   -2.7636    6.4324  -20.8894 Br  0  0  0  0  0  0  0  0  0  0  0  0
   -5.8191    4.3759  -16.1132 C   0  0  0  0  0  0  0  0  0  0  0  0
  1  2  1  0
  2  3  1  0
  3  4  1  0
  4  5  2  0
  5  6  1  0
  6  7  1  0
  7  8  1  0
  8  9  2  0
  8 10  1  0
 10 11  1  0
 10 12  1  0
 10 13  1  0
  6 14  2  0
 14  3  1  0
M  END
>  <energy_score>  (2644) 
-19.58472

>  <alias>  (2644) 
None

>  <HIPPO Pose ID>  (2644) 
75260

>  <smiles>  (2644) 
CCn1cnc(NC(=O)C(C)(C)Br)c1

>  <inchikey>  (2644) 
FNHHABFAJMCFCW-UHFFFAOYSA-N

>  <distance_score>  (2644) 
1.70615

>  <ref_mols>  (2644) 
Z0719a,Z1597a

>  <ref_pdb>  (2644) 
Z0719a

>  <HIPPO Compound ID>  (2644) 
149620

>  <name>  (2644) 
P75260

>  <inspiration_score>  (2644) 
None

$$$$
P75261
     RDKit          3D

 14 15  0  0  0  0  0  0  0  0999 V2000
   -4.8816    5.3157  -12.7767 N   0  0  0  0  0  0  0  0  0  0  0  0
   -5.8472    5.1064  -12.1631 C   0  0  0  0  0  0  0  0  0  0  0  0
   -7.0712    4.6354  -11.5839 C   0  0  0  0  0  0  0  0  0  0  0  0
   -7.2444    4.4250  -10.2349 N   0  0  0  0  0  0  0  0  0  0  0  0
   -8.2577    3.5875  -10.1620 C   0  0  0  0  0  0  0  0  0  0  0  0
   -8.7433    3.2656  -11.4037 N   0  0  0  0  0  0  0  0  0  0  0  0
   -8.0492    4.0027  -12.3221 C   0  0  0  0  0  0  0  0  0  0  0  0
   -8.1996    3.9390  -13.6762 N   0  0  0  0  0  0  0  0  0  0  0  0
   -7.7491    4.9185  -14.7823 C   0  0  0  0  0  0  0  0  0  0  0  0
   -7.2485    5.9680  -14.7039 O   0  0  0  0  0  0  0  0  0  0  0  0
   -7.9345    4.3066  -16.1107 C   0  0  2  0  0  0  0  0  0  0  0  0
   -7.7444    5.1000  -17.3809 C   0  0  0  0  0  0  0  0  0  0  0  0
   -9.0964    4.5931  -16.9886 C   0  0  1  0  0  0  0  0  0  0  0  0
   -9.5984    3.5222  -17.7044 F   0  0  0  0  0  0  0  0  0  0  0  0
  1  2  3  0
  2  3  1  0
  3  4  1  0
  4  5  2  0
  5  6  1  0
  6  7  1  0
  7  8  1  0
  8  9  1  0
  9 10  2  0
 11  9  1  1
 11 12  1  0
 12 13  1  0
 13 14  1  6
  7  3  2  0
 13 11  1  0
M  END
>  <energy_score>  (2645) 
-1.726864

>  <alias>  (2645) 
None

>  <HIPPO Pose ID>  (2645) 
75261

>  <smiles>  (2645) 
N#Cc1nc[nH]c1NC(=O)[C@@H]1C[C@H]1F

>  <inchikey>  (2645) 
XORFOPFKXBHLSH-RFZPGFLSSA-N

>  <distance_score>  (2645) 
1.223147

>  <ref_mols>  (2645) 
Z0719a,Z1597a

>  <ref_pdb>  (2645) 
Z0719a

>  <HIPPO Compound ID>  (2645) 
149621

>  <name>  (2645) 
P75261

>  <inspiration_score>  (2645) 
None

$$$$
P75264
     RDKit          3D

 14 15  0  0  0  0  0  0  0  0999 V2000
   -7.9795    5.9590   -9.0912 C   0  0  0  0  0  0  0  0  0  0  0  0
   -8.0528    5.0273  -10.2353 C   0  0  0  0  0  0  0  0  0  0  0  0
   -8.0742    3.7185  -10.1335 N   0  0  0  0  0  0  0  0  0  0  0  0
   -8.1398    3.2575  -11.4141 C   0  0  0  0  0  0  0  0  0  0  0  0
   -8.1080    4.2898  -12.3305 C   0  0  0  0  0  0  0  0  0  0  0  0
   -8.0674    4.1622  -13.6950 N   0  0  0  0  0  0  0  0  0  0  0  0
   -7.7261    5.1953  -14.7884 C   0  0  0  0  0  0  0  0  0  0  0  0
   -7.5006    6.3370  -14.7064 O   0  0  0  0  0  0  0  0  0  0  0  0
   -7.6069    4.4996  -16.0972 C   0  0  1  0  0  0  0  0  0  0  0  0
   -8.7562    4.5246  -17.0758 C   0  0  0  0  0  0  0  0  0  0  0  0
   -7.5001    5.2707  -17.3741 C   0  0  2  0  0  0  0  0  0  0  0  0
   -6.7260    4.7427  -18.3855 F   0  0  0  0  0  0  0  0  0  0  0  0
   -8.1106    5.4267  -11.5580 N   0  0  0  0  0  0  0  0  0  0  0  0
   -8.2326    6.7938  -11.9985 C   0  0  0  0  0  0  0  0  0  0  0  0
  1  2  1  0
  2  3  2  0
  3  4  1  0
  4  5  2  0
  5  6  1  0
  6  7  1  0
  7  8  2  0
  9  7  1  1
  9 10  1  0
 10 11  1  0
 11 12  1  6
  5 13  1  0
 13 14  1  0
 13  2  1  0
 11  9  1  0
M  END
>  <energy_score>  (2646) 
-3.558725

>  <alias>  (2646) 
None

>  <HIPPO Pose ID>  (2646) 
75264

>  <smiles>  (2646) 
Cc1ncc(NC(=O)[C@H]2C[C@@H]2F)n1C

>  <inchikey>  (2646) 
DNBMSYXSJAVZFQ-BQBZGAKWSA-N

>  <distance_score>  (2646) 
1.212813

>  <ref_mols>  (2646) 
Z0719a,Z1597a

>  <ref_pdb>  (2646) 
Z0719a

>  <HIPPO Compound ID>  (2646) 
149622

>  <name>  (2646) 
P75264

>  <inspiration_score>  (2646) 
None

$$$$
P75267
     RDKit          3D

 14 15  0  0  0  0  0  0  0  0999 V2000
   -8.3851    7.0566   -9.4416 C   0  0  0  0  0  0  0  0  0  0  0  0
   -8.0570    5.5761   -9.3224 C   0  0  0  0  0  0  0  0  0  0  0  0
   -8.0796    4.8239  -10.5546 N   0  0  0  0  0  0  0  0  0  0  0  0
   -8.2025    3.4638  -10.6239 C   0  0  0  0  0  0  0  0  0  0  0  0
   -8.1132    3.0457  -11.8642 N   0  0  0  0  0  0  0  0  0  0  0  0
   -7.9441    4.1674  -12.6179 C   0  0  0  0  0  0  0  0  0  0  0  0
   -7.7786    4.0376  -13.9550 N   0  0  0  0  0  0  0  0  0  0  0  0
   -7.5276    5.1030  -15.0420 C   0  0  0  0  0  0  0  0  0  0  0  0
   -7.3473    6.2516  -14.9479 O   0  0  0  0  0  0  0  0  0  0  0  0
   -7.4331    4.4125  -16.3588 C   0  0  1  0  0  0  0  0  0  0  0  0
   -8.6297    4.3897  -17.2819 C   0  0  0  0  0  0  0  0  0  0  0  0
   -7.3711    5.0679  -17.6992 C   0  0  1  0  0  0  0  0  0  0  0  0
   -7.3987    6.4358  -17.7997 F   0  0  0  0  0  0  0  0  0  0  0  0
   -7.9216    5.2914  -11.8322 C   0  0  0  0  0  0  0  0  0  0  0  0
  1  2  1  0
  2  3  1  0
  3  4  1  0
  4  5  2  0
  5  6  1  0
  6  7  1  0
  7  8  1  0
  8  9  2  0
 10  8  1  1
 10 11  1  0
 11 12  1  0
 12 13  1  1
  6 14  2  0
 14  3  1  0
 12 10  1  0
M  END
>  <energy_score>  (2647) 
-18.473505

>  <alias>  (2647) 
None

>  <HIPPO Pose ID>  (2647) 
75267

>  <smiles>  (2647) 
CCn1cnc(NC(=O)[C@H]2C[C@H]2F)c1

>  <inchikey>  (2647) 
VHJLNTFVAZOZBL-NKWVEPMBSA-N

>  <distance_score>  (2647) 
1.178141

>  <ref_mols>  (2647) 
Z0719a,Z1597a

>  <ref_pdb>  (2647) 
Z0719a

>  <HIPPO Compound ID>  (2647) 
149623

>  <name>  (2647) 
P75267

>  <inspiration_score>  (2647) 
None

$$$$
P75269
     RDKit          3D

 14 15  0  0  0  0  0  0  0  0999 V2000
   -9.6982    4.1392  -17.8229 C   0  0  0  0  0  0  0  0  0  0  0  0
   -8.9500    4.9165  -16.8015 C   0  0  2  0  0  0  0  0  0  0  0  0
   -7.5773    5.3967  -17.1911 C   0  0  0  0  0  0  0  0  0  0  0  0
   -7.7473    4.3905  -16.0770 C   0  0  1  0  0  0  0  0  0  0  0  0
   -7.4072    4.8150  -14.6959 C   0  0  0  0  0  0  0  0  0  0  0  0
   -6.6297    5.6710  -14.5612 O   0  0  0  0  0  0  0  0  0  0  0  0
   -8.1119    3.9318  -13.6484 N   0  0  0  0  0  0  0  0  0  0  0  0
   -7.9451    3.8572  -12.2951 C   0  0  0  0  0  0  0  0  0  0  0  0
   -8.7566    3.1760  -11.4318 N   0  0  0  0  0  0  0  0  0  0  0  0
   -8.2736    3.3697  -10.1637 C   0  0  0  0  0  0  0  0  0  0  0  0
   -7.1613    4.0720  -10.1681 N   0  0  0  0  0  0  0  0  0  0  0  0
   -6.9132    4.3118  -11.5003 C   0  0  0  0  0  0  0  0  0  0  0  0
   -5.6220    4.6790  -12.0014 C   0  0  0  0  0  0  0  0  0  0  0  0
   -4.6022    4.8330  -12.5381 N   0  0  0  0  0  0  0  0  0  0  0  0
  2  1  1  6
  2  3  1  0
  3  4  1  0
  4  5  1  1
  5  6  2  0
  5  7  1  0
  7  8  1  0
  8  9  1  0
  9 10  1  0
 10 11  2  0
 11 12  1  0
 12 13  1  0
 13 14  3  0
  4  2  1  0
 12  8  2  0
M  END
>  <energy_score>  (2648) 
-6.97625

>  <alias>  (2648) 
None

>  <HIPPO Pose ID>  (2648) 
75269

>  <smiles>  (2648) 
C[C@@H]1C[C@H]1C(=O)Nc1[nH]cnc1C#N

>  <inchikey>  (2648) 
HUHKGIOXURUGTI-PHDIDXHHSA-N

>  <distance_score>  (2648) 
1.243713

>  <ref_mols>  (2648) 
Z0719a,Z1597a

>  <ref_pdb>  (2648) 
Z0719a

>  <HIPPO Compound ID>  (2648) 
149624

>  <name>  (2648) 
P75269

>  <inspiration_score>  (2648) 
None

$$$$
P75271
     RDKit          3D

 14 15  0  0  0  0  0  0  0  0999 V2000
   -7.9475    5.7354   -8.6592 C   0  0  0  0  0  0  0  0  0  0  0  0
   -8.1321    4.9469   -9.8926 C   0  0  0  0  0  0  0  0  0  0  0  0
   -8.1927    3.6362   -9.9385 N   0  0  0  0  0  0  0  0  0  0  0  0
   -8.3476    3.3283  -11.2564 C   0  0  0  0  0  0  0  0  0  0  0  0
   -8.3516    4.4601  -12.0462 C   0  0  0  0  0  0  0  0  0  0  0  0
   -8.3721    4.4875  -13.4145 N   0  0  0  0  0  0  0  0  0  0  0  0
   -8.3253    5.6757  -14.3919 C   0  0  0  0  0  0  0  0  0  0  0  0
   -8.3394    6.8229  -14.1880 O   0  0  0  0  0  0  0  0  0  0  0  0
   -8.1388    5.1755  -15.7812 C   0  0  1  0  0  0  0  0  0  0  0  0
   -7.0581    5.7881  -16.6579 C   0  0  0  0  0  0  0  0  0  0  0  0
   -6.8855    4.3966  -16.1319 C   0  0  1  0  0  0  0  0  0  0  0  0
   -5.8412    4.0707  -15.1019 C   0  0  0  0  0  0  0  0  0  0  0  0
   -8.2508    5.4998  -11.1533 N   0  0  0  0  0  0  0  0  0  0  0  0
   -8.2446    6.9134  -11.4338 C   0  0  0  0  0  0  0  0  0  0  0  0
  1  2  1  0
  2  3  2  0
  3  4  1  0
  4  5  2  0
  5  6  1  0
  6  7  1  0
  7  8  2  0
  9  7  1  1
  9 10  1  0
 10 11  1  0
 11 12  1  1
  5 13  1  0
 13 14  1  0
 13  2  1  0
 11  9  1  0
M  END
>  <energy_score>  (2649) 
-25.570557

>  <alias>  (2649) 
None

>  <HIPPO Pose ID>  (2649) 
75271

>  <smiles>  (2649) 
Cc1ncc(NC(=O)[C@H]2C[C@H]2C)n1C

>  <inchikey>  (2649) 
YNHYHMMLOBGCBL-SVRRBLITSA-N

>  <distance_score>  (2649) 
1.513734

>  <ref_mols>  (2649) 
Z0719a,Z1597a

>  <ref_pdb>  (2649) 
Z0719a

>  <HIPPO Compound ID>  (2649) 
149625

>  <name>  (2649) 
P75271

>  <inspiration_score>  (2649) 
None

$$$$
P75275
     RDKit          3D

 14 15  0  0  0  0  0  0  0  0999 V2000
   -8.4282    5.9919   -8.1221 C   0  0  0  0  0  0  0  0  0  0  0  0
   -7.3518    5.3363   -8.9598 C   0  0  0  0  0  0  0  0  0  0  0  0
   -7.8494    4.7055  -10.1555 N   0  0  0  0  0  0  0  0  0  0  0  0
   -8.2576    3.4085  -10.2693 C   0  0  0  0  0  0  0  0  0  0  0  0
   -8.4385    3.0835  -11.5289 N   0  0  0  0  0  0  0  0  0  0  0  0
   -8.1275    4.2021  -12.2378 C   0  0  0  0  0  0  0  0  0  0  0  0
   -8.0757    4.1475  -13.5862 N   0  0  0  0  0  0  0  0  0  0  0  0
   -7.6125    5.1969  -14.6128 C   0  0  0  0  0  0  0  0  0  0  0  0
   -7.2744    6.3034  -14.4634 O   0  0  0  0  0  0  0  0  0  0  0  0
   -7.5281    4.5714  -15.9723 C   0  0  2  0  0  0  0  0  0  0  0  0
   -6.2300    4.7153  -16.7463 C   0  0  0  0  0  0  0  0  0  0  0  0
   -7.4718    5.3787  -17.2449 C   0  0  1  0  0  0  0  0  0  0  0  0
   -8.1164    4.8431  -18.4778 C   0  0  0  0  0  0  0  0  0  0  0  0
   -7.8123    5.2479  -11.4109 C   0  0  0  0  0  0  0  0  0  0  0  0
  1  2  1  0
  2  3  1  0
  3  4  1  0
  4  5  2  0
  5  6  1  0
  6  7  1  0
  7  8  1  0
  8  9  2  0
 10  8  1  1
 10 11  1  0
 11 12  1  0
 12 13  1  6
  6 14  2  0
 14  3  1  0
 12 10  1  0
M  END
>  <energy_score>  (2650) 
-6.482826

>  <alias>  (2650) 
None

>  <HIPPO Pose ID>  (2650) 
75275

>  <smiles>  (2650) 
CCn1cnc(NC(=O)[C@@H]2C[C@H]2C)c1

>  <inchikey>  (2650) 
ZVUVEBBQNQVGHH-HTQZYQBOSA-N

>  <distance_score>  (2650) 
1.065634

>  <ref_mols>  (2650) 
Z0719a,Z1597a

>  <ref_pdb>  (2650) 
Z0719a

>  <HIPPO Compound ID>  (2650) 
149626

>  <name>  (2650) 
P75275

>  <inspiration_score>  (2650) 
None

$$$$
P75282
     RDKit          3D

 14 14  0  0  0  0  0  0  0  0999 V2000
   -5.6643    3.2158  -13.5144 C   0  0  0  0  0  0  0  0  0  0  0  0
   -7.0912    3.4769  -13.9956 C   0  0  0  0  0  0  0  0  0  0  0  0
   -7.1781    4.5293  -14.9942 N   0  0  0  0  0  0  0  0  0  0  0  0
   -7.1373    5.8684  -14.7352 C   0  0  0  0  0  0  0  0  0  0  0  0
   -6.8518    6.5603  -15.8188 N   0  0  0  0  0  0  0  0  0  0  0  0
   -6.8074    5.6411  -16.8123 C   0  0  0  0  0  0  0  0  0  0  0  0
   -6.2920    5.8433  -18.0470 N   0  0  0  0  0  0  0  0  0  0  0  0
   -5.6656    7.1243  -18.6877 C   0  0  0  0  0  0  0  0  0  0  0  0
   -5.5733    8.2149  -18.2690 O   0  0  0  0  0  0  0  0  0  0  0  0
   -5.0473    6.6395  -20.0375 C   0  0  1  0  0  0  0  0  0  0  0  0
   -4.9448    7.7778  -21.0358 C   0  0  0  0  0  0  0  0  0  0  0  0
   -3.7222    6.0888  -19.9847 O   0  0  0  0  0  0  0  0  0  0  0  0
   -3.5399    5.0554  -19.0330 C   0  0  0  0  0  0  0  0  0  0  0  0
   -7.1884    4.4069  -16.3535 C   0  0  0  0  0  0  0  0  0  0  0  0
  1  2  1  0
  2  3  1  0
  3  4  1  0
  4  5  2  0
  5  6  1  0
  6  7  1  0
  7  8  1  0
  8  9  2  0
  8 10  1  0
 10 11  1  6
 10 12  1  0
 12 13  1  0
  6 14  2  0
 14  3  1  0
M  END
>  <energy_score>  (2651) 
-12.119405

>  <alias>  (2651) 
None

>  <HIPPO Pose ID>  (2651) 
75282

>  <smiles>  (2651) 
CCn1cnc(NC(=O)[C@@H](C)OC)c1

>  <inchikey>  (2651) 
IGHBJPYDGVOGMH-SSDOTTSWSA-N

>  <distance_score>  (2651) 
1.979136

>  <ref_mols>  (2651) 
Z0719a,Z1597a

>  <ref_pdb>  (2651) 
Z0719a

>  <HIPPO Compound ID>  (2651) 
149638

>  <name>  (2651) 
P75282

>  <inspiration_score>  (2651) 
None

$$$$
P75289
     RDKit          3D

 14 14  0  0  0  0  0  0  0  0999 V2000
   -5.1610    3.9633  -12.8171 C   0  0  0  0  0  0  0  0  0  0  0  0
   -6.0364    3.1746  -13.7854 C   0  0  0  0  0  0  0  0  0  0  0  0
   -7.1730    2.4947  -13.0408 C   0  0  0  0  0  0  0  0  0  0  0  0
   -6.4579    3.9661  -14.9385 N   0  0  0  0  0  0  0  0  0  0  0  0
   -7.7173    4.3554  -15.3176 C   0  0  0  0  0  0  0  0  0  0  0  0
   -7.7010    5.0225  -16.4563 N   0  0  0  0  0  0  0  0  0  0  0  0
   -6.3986    5.0216  -16.8405 C   0  0  0  0  0  0  0  0  0  0  0  0
   -5.9866    5.5539  -18.0092 N   0  0  0  0  0  0  0  0  0  0  0  0
   -4.5548    5.7332  -18.5875 C   0  0  0  0  0  0  0  0  0  0  0  0
   -3.5098    5.5174  -18.1062 O   0  0  0  0  0  0  0  0  0  0  0  0
   -4.6882    6.2728  -19.9936 C   0  0  0  0  0  0  0  0  0  0  0  0
   -4.3328    7.7351  -20.1141 C   0  0  0  0  0  0  0  0  0  0  0  0
   -5.6181    8.8069  -19.3953 S   0  0  0  0  0  0  0  0  0  0  0  0
   -5.6074    4.4040  -15.9174 C   0  0  0  0  0  0  0  0  0  0  0  0
  1  2  1  0
  2  3  1  0
  2  4  1  0
  4  5  1  0
  5  6  2  0
  6  7  1  0
  7  8  1  0
  8  9  1  0
  9 10  2  0
  9 11  1  0
 11 12  1  0
 12 13  1  0
  7 14  2  0
 14  4  1  0
M  END
>  <energy_score>  (2652) 
-12.77926

>  <alias>  (2652) 
None

>  <HIPPO Pose ID>  (2652) 
75289

>  <smiles>  (2652) 
CC(C)n1cnc(NC(=O)CCS)c1

>  <inchikey>  (2652) 
CQFBIXZVVZYMPL-UHFFFAOYSA-N

>  <distance_score>  (2652) 
1.963233

>  <ref_mols>  (2652) 
Z0719a,Z1597a

>  <ref_pdb>  (2652) 
Z0719a

>  <HIPPO Compound ID>  (2652) 
149655

>  <name>  (2652) 
P75289

>  <inspiration_score>  (2652) 
None

$$$$
P75293
     RDKit          3D

 14 15  0  0  0  0  0  0  0  0999 V2000
   -4.6790    4.9422  -12.4769 N   0  0  0  0  0  0  0  0  0  0  0  0
   -5.6802    4.7615  -11.9134 C   0  0  0  0  0  0  0  0  0  0  0  0
   -6.9586    4.3521  -11.4109 C   0  0  0  0  0  0  0  0  0  0  0  0
   -7.2149    4.1112  -10.0821 N   0  0  0  0  0  0  0  0  0  0  0  0
   -8.3012    3.3675  -10.0900 C   0  0  0  0  0  0  0  0  0  0  0  0
   -8.7573    3.1425  -11.3642 N   0  0  0  0  0  0  0  0  0  0  0  0
   -7.9561    3.8455  -12.2172 C   0  0  0  0  0  0  0  0  0  0  0  0
   -8.0707    3.8998  -13.5745 N   0  0  0  0  0  0  0  0  0  0  0  0
   -7.4644    4.8870  -14.5913 C   0  0  0  0  0  0  0  0  0  0  0  0
   -6.8358    5.8528  -14.4232 O   0  0  0  0  0  0  0  0  0  0  0  0
   -7.6715    4.4222  -15.9777 C   0  0  2  0  0  0  0  0  0  0  0  0
   -7.4780    5.3977  -17.1182 C   0  0  0  0  0  0  0  0  0  0  0  0
   -8.8414    4.8789  -16.7734 C   0  0  1  0  0  0  0  0  0  0  0  0
   -9.6006    3.8176  -17.9085 Cl  0  0  0  0  0  0  0  0  0  0  0  0
  1  2  3  0
  2  3  1  0
  3  4  1  0
  4  5  2  0
  5  6  1  0
  6  7  1  0
  7  8  1  0
  8  9  1  0
  9 10  2  0
 11  9  1  1
 11 12  1  0
 12 13  1  0
 13 14  1  6
  7  3  2  0
 13 11  1  0
M  END
>  <energy_score>  (2653) 
-5.118604

>  <alias>  (2653) 
None

>  <HIPPO Pose ID>  (2653) 
75293

>  <smiles>  (2653) 
N#Cc1nc[nH]c1NC(=O)[C@@H]1C[C@H]1Cl

>  <inchikey>  (2653) 
VPVCEUPQUIULGZ-RFZPGFLSSA-N

>  <distance_score>  (2653) 
1.219706

>  <ref_mols>  (2653) 
Z0719a,Z1597a

>  <ref_pdb>  (2653) 
Z0719a

>  <HIPPO Compound ID>  (2653) 
149659

>  <name>  (2653) 
P75293

>  <inspiration_score>  (2653) 
None

$$$$
P75295
     RDKit          3D

 14 15  0  0  0  0  0  0  0  0999 V2000
   -7.8011    5.4381   -8.7909 C   0  0  0  0  0  0  0  0  0  0  0  0
   -7.9351    4.7452  -10.0879 C   0  0  0  0  0  0  0  0  0  0  0  0
   -7.9845    3.4425  -10.2488 N   0  0  0  0  0  0  0  0  0  0  0  0
   -8.1363    3.2438  -11.5906 C   0  0  0  0  0  0  0  0  0  0  0  0
   -8.1199    4.4355  -12.2798 C   0  0  0  0  0  0  0  0  0  0  0  0
   -8.2092    4.6480  -13.6275 N   0  0  0  0  0  0  0  0  0  0  0  0
   -7.7696    5.8493  -14.4806 C   0  0  0  0  0  0  0  0  0  0  0  0
   -7.3316    6.8812  -14.1635 O   0  0  0  0  0  0  0  0  0  0  0  0
   -8.0627    5.6340  -15.9118 C   0  0  1  0  0  0  0  0  0  0  0  0
   -6.9808    6.0349  -16.9111 C   0  0  0  0  0  0  0  0  0  0  0  0
   -7.4501    4.6257  -16.8232 C   0  0  2  0  0  0  0  0  0  0  0  0
   -8.4308    4.0757  -18.1689 Cl  0  0  0  0  0  0  0  0  0  0  0  0
   -8.0428    5.3973  -11.2990 N   0  0  0  0  0  0  0  0  0  0  0  0
   -8.2009    6.8240  -11.4512 C   0  0  0  0  0  0  0  0  0  0  0  0
  1  2  1  0
  2  3  2  0
  3  4  1  0
  4  5  2  0
  5  6  1  0
  6  7  1  0
  7  8  2  0
  9  7  1  1
  9 10  1  0
 10 11  1  0
 11 12  1  6
  5 13  1  0
 13 14  1  0
 13  2  1  0
 11  9  1  0
M  END
>  <energy_score>  (2654) 
-0.355547

>  <alias>  (2654) 
None

>  <HIPPO Pose ID>  (2654) 
75295

>  <smiles>  (2654) 
Cc1ncc(NC(=O)[C@H]2C[C@@H]2Cl)n1C

>  <inchikey>  (2654) 
CPNBDLMXVUVNMU-BQBZGAKWSA-N

>  <distance_score>  (2654) 
1.226847

>  <ref_mols>  (2654) 
Z0719a,Z1597a

>  <ref_pdb>  (2654) 
Z0719a

>  <HIPPO Compound ID>  (2654) 
149660

>  <name>  (2654) 
P75295

>  <inspiration_score>  (2654) 
None

$$$$
P75302
     RDKit          3D

 14 15  0  0  0  0  0  0  0  0999 V2000
   -6.5870    5.6096   -8.7748 C   0  0  0  0  0  0  0  0  0  0  0  0
   -7.9972    5.3947   -9.2947 C   0  0  0  0  0  0  0  0  0  0  0  0
   -8.0144    4.7228  -10.5711 N   0  0  0  0  0  0  0  0  0  0  0  0
   -8.0433    3.3731  -10.7639 C   0  0  0  0  0  0  0  0  0  0  0  0
   -8.1066    3.0866  -12.0440 N   0  0  0  0  0  0  0  0  0  0  0  0
   -8.1425    4.2868  -12.6903 C   0  0  0  0  0  0  0  0  0  0  0  0
   -8.3013    4.3192  -14.0360 N   0  0  0  0  0  0  0  0  0  0  0  0
   -8.3321    5.5104  -15.0115 C   0  0  0  0  0  0  0  0  0  0  0  0
   -8.1491    6.6460  -14.8235 O   0  0  0  0  0  0  0  0  0  0  0  0
   -8.7644    5.0614  -16.3674 C   0  0  2  0  0  0  0  0  0  0  0  0
   -8.0289    3.9797  -17.0911 C   0  0  0  0  0  0  0  0  0  0  0  0
   -8.0171    5.3468  -17.6504 C   0  0  2  0  0  0  0  0  0  0  0  0
   -6.5086    6.1743  -17.7366 Cl  0  0  0  0  0  0  0  0  0  0  0  0
   -8.0579    5.3270  -11.7998 C   0  0  0  0  0  0  0  0  0  0  0  0
  1  2  1  0
  2  3  1  0
  3  4  1  0
  4  5  2  0
  5  6  1  0
  6  7  1  0
  7  8  1  0
  8  9  2  0
 10  8  1  1
 10 11  1  0
 11 12  1  0
 12 13  1  1
  6 14  2  0
 14  3  1  0
 12 10  1  0
M  END
>  <energy_score>  (2655) 
-25.753502

>  <alias>  (2655) 
None

>  <HIPPO Pose ID>  (2655) 
75302

>  <smiles>  (2655) 
CCn1cnc(NC(=O)[C@@H]2C[C@@H]2Cl)c1

>  <inchikey>  (2655) 
BKYGAGNHGYLBDK-RQJHMYQMSA-N

>  <distance_score>  (2655) 
1.366579

>  <ref_mols>  (2655) 
Z0719a,Z1597a

>  <ref_pdb>  (2655) 
Z0719a

>  <HIPPO Compound ID>  (2655) 
149661

>  <name>  (2655) 
P75302

>  <inspiration_score>  (2655) 
None

$$$$
P75303
     RDKit          3D

 14 14  0  0  0  0  0  0  0  0999 V2000
   -3.6172    5.1070  -16.0761 O   0  0  0  0  0  0  0  0  0  0  0  0
   -4.1672    5.0245  -17.1020 C   0  0  0  0  0  0  0  0  0  0  0  0
   -3.4151    5.1264  -18.4354 C   0  0  0  0  0  0  0  0  0  0  0  0
   -3.8688    6.2376  -19.3811 C   0  0  0  0  0  0  0  0  0  0  0  0
   -2.6282    6.4540  -20.7031 S   0  0  0  0  0  0  0  0  0  0  0  0
   -5.6469    4.7086  -17.4238 N   0  0  0  0  0  0  0  0  0  0  0  0
   -6.7132    4.5327  -16.5972 C   0  0  0  0  0  0  0  0  0  0  0  0
   -7.9037    4.8550  -17.2042 N   0  0  0  0  0  0  0  0  0  0  0  0
   -8.8538    4.4829  -16.3845 C   0  0  0  0  0  0  0  0  0  0  0  0
   -8.3309    3.9570  -15.2465 N   0  0  0  0  0  0  0  0  0  0  0  0
   -6.9554    3.9933  -15.3522 C   0  0  0  0  0  0  0  0  0  0  0  0
   -6.2054    3.3119  -14.3434 N   0  0  0  0  0  0  0  0  0  0  0  0
   -6.8648    2.6040  -13.5646 O   0  0  0  0  0  0  0  0  0  0  0  0
   -4.9794    3.4302  -14.3135 O   0  0  0  0  0  0  0  0  0  0  0  0
  1  2  2  0
  2  3  1  0
  3  4  1  0
  4  5  1  0
  2  6  1  0
  6  7  1  0
  7  8  1  0
  8  9  2  0
  9 10  1  0
 10 11  1  0
 11 12  1  0
 12 13  2  0
 12 14  1  0
 11  7  2  0
M  CHG  2  12   1  14  -1
M  END
>  <energy_score>  (2656) 
-20.935129

>  <alias>  (2656) 
None

>  <HIPPO Pose ID>  (2656) 
75303

>  <smiles>  (2656) 
O=C(CCS)Nc1nc[nH]c1[N+](=O)[O-]

>  <inchikey>  (2656) 
CCXMXZYZKPTPIW-UHFFFAOYSA-N

>  <distance_score>  (2656) 
1.963431

>  <ref_mols>  (2656) 
Z0719a,Z1597a

>  <ref_pdb>  (2656) 
Z0719a

>  <HIPPO Compound ID>  (2656) 
149662

>  <name>  (2656) 
P75303

>  <inspiration_score>  (2656) 
None

$$$$
P75306
     RDKit          3D

 14 14  0  0  0  0  0  0  0  0999 V2000
   -1.0706    5.9729  -20.8901 C   0  0  0  0  0  0  0  0  0  0  0  0
   -2.2069    5.8482  -19.9269 C   0  0  0  0  0  0  0  0  0  0  0  0
   -3.4453    6.3670  -20.0413 C   0  0  0  0  0  0  0  0  0  0  0  0
   -3.9936    7.1780  -21.1697 C   0  0  0  0  0  0  0  0  0  0  0  0
   -4.3119    6.2318  -18.8241 C   0  0  0  0  0  0  0  0  0  0  0  0
   -3.9706    6.6744  -17.7996 O   0  0  0  0  0  0  0  0  0  0  0  0
   -5.6020    5.4773  -19.2080 N   0  0  0  0  0  0  0  0  0  0  0  0
   -6.6326    5.0534  -18.4419 C   0  0  0  0  0  0  0  0  0  0  0  0
   -6.8285    5.3228  -17.1163 C   0  0  0  0  0  0  0  0  0  0  0  0
   -7.9933    4.6929  -16.7997 N   0  0  0  0  0  0  0  0  0  0  0  0
   -8.6055    4.6643  -15.4983 C   0  0  0  0  0  0  0  0  0  0  0  0
   -7.6778    4.1727  -14.3995 C   0  0  0  0  0  0  0  0  0  0  0  0
   -8.4874    4.1417  -17.9384 C   0  0  0  0  0  0  0  0  0  0  0  0
   -7.6420    4.2920  -18.9353 N   0  0  0  0  0  0  0  0  0  0  0  0
  1  2  1  0
  2  3  2  0
  3  4  1  0
  3  5  1  0
  5  6  2  0
  5  7  1  0
  7  8  1  0
  8  9  2  0
  9 10  1  0
 10 11  1  0
 11 12  1  0
 10 13  1  0
 13 14  2  0
 14  8  1  0
M  END
>  <energy_score>  (2657) 
-27.554395

>  <alias>  (2657) 
None

>  <HIPPO Pose ID>  (2657) 
75306

>  <smiles>  (2657) 
C/C=C(\C)C(=O)Nc1cn(CC)cn1

>  <inchikey>  (2657) 
WAVIAMBWTRUUEV-XBXARRHUSA-N

>  <distance_score>  (2657) 
1.427443

>  <ref_mols>  (2657) 
Z0719a,Z1597a

>  <ref_pdb>  (2657) 
Z0719a

>  <HIPPO Compound ID>  (2657) 
149667

>  <name>  (2657) 
P75306

>  <inspiration_score>  (2657) 
None

$$$$
P75308
     RDKit          3D

 14 14  0  0  0  0  0  0  0  0999 V2000
   -8.7839    4.1353  -19.1114 C   0  0  0  0  0  0  0  0  0  0  0  0
   -8.3561    4.4413  -17.7521 C   0  0  0  0  0  0  0  0  0  0  0  0
   -9.1372    4.0100  -16.7170 N   0  0  0  0  0  0  0  0  0  0  0  0
   -8.5053    4.4043  -15.6442 C   0  0  0  0  0  0  0  0  0  0  0  0
   -7.3565    5.0834  -15.9509 N   0  0  0  0  0  0  0  0  0  0  0  0
   -6.4542    5.5437  -14.9423 C   0  0  0  0  0  0  0  0  0  0  0  0
   -7.2356    5.1218  -17.3139 C   0  0  0  0  0  0  0  0  0  0  0  0
   -6.2457    5.6623  -18.0959 N   0  0  0  0  0  0  0  0  0  0  0  0
   -4.9809    6.4917  -17.7022 C   0  0  0  0  0  0  0  0  0  0  0  0
   -4.6370    6.9030  -16.6595 O   0  0  0  0  0  0  0  0  0  0  0  0
   -4.0845    6.6613  -18.9820 C   0  0  0  0  0  0  0  0  0  0  0  0
   -4.8174    7.1741  -20.2258 C   0  0  0  0  0  0  0  0  0  0  0  0
   -2.9328    7.6332  -18.6662 C   0  0  0  0  0  0  0  0  0  0  0  0
   -3.3020    5.0355  -19.3562 S   0  0  0  0  0  0  0  0  0  0  0  0
  1  2  1  0
  2  3  1  0
  3  4  2  0
  4  5  1  0
  5  6  1  0
  5  7  1  0
  7  8  1  0
  8  9  1  0
  9 10  2  0
  9 11  1  0
 11 12  1  0
 11 13  1  0
 11 14  1  0
  7  2  2  0
M  END
>  <energy_score>  (2658) 
-30.377302

>  <alias>  (2658) 
None

>  <HIPPO Pose ID>  (2658) 
75308

>  <smiles>  (2658) 
Cc1ncn(C)c1NC(=O)C(C)(C)S

>  <inchikey>  (2658) 
LUACZNBDFWCGBA-UHFFFAOYSA-N

>  <distance_score>  (2658) 
1.449795

>  <ref_mols>  (2658) 
Z0719a,Z1597a

>  <ref_pdb>  (2658) 
Z0719a

>  <HIPPO Compound ID>  (2658) 
149669

>  <name>  (2658) 
P75308

>  <inspiration_score>  (2658) 
None

$$$$
P75310
     RDKit          3D

 14 15  0  0  0  0  0  0  0  0999 V2000
   -6.2265    3.2982  -14.0264 N   0  0  0  0  0  0  0  0  0  0  0  0
   -6.8213    3.6772  -14.9529 C   0  0  0  0  0  0  0  0  0  0  0  0
   -7.5688    4.1296  -16.1053 C   0  0  0  0  0  0  0  0  0  0  0  0
   -8.9286    3.8632  -16.1652 N   0  0  0  0  0  0  0  0  0  0  0  0
   -9.3433    4.3388  -17.3106 C   0  0  0  0  0  0  0  0  0  0  0  0
   -8.3156    4.8837  -18.0182 N   0  0  0  0  0  0  0  0  0  0  0  0
   -7.1756    4.8079  -17.2519 C   0  0  0  0  0  0  0  0  0  0  0  0
   -6.0308    5.3671  -17.7444 N   0  0  0  0  0  0  0  0  0  0  0  0
   -4.5891    5.3891  -17.1655 C   0  0  0  0  0  0  0  0  0  0  0  0
   -4.1458    4.8676  -16.2197 O   0  0  0  0  0  0  0  0  0  0  0  0
   -3.7940    6.3614  -18.0395 C   0  0  0  0  0  0  0  0  0  0  0  0
   -3.3852    5.8105  -19.3785 C   0  0  0  0  0  0  0  0  0  0  0  0
   -2.0510    5.1259  -19.5337 C   0  0  0  0  0  0  0  0  0  0  0  0
   -2.2713    6.4850  -20.1389 C   0  0  0  0  0  0  0  0  0  0  0  0
  1  2  3  0
  2  3  1  0
  3  4  1  0
  4  5  2  0
  5  6  1  0
  6  7  1  0
  7  8  1  0
  8  9  1  0
  9 10  2  0
  9 11  1  0
 11 12  1  0
 12 13  1  0
 13 14  1  0
  7  3  2  0
 14 12  1  0
M  END
>  <energy_score>  (2659) 
-14.864018

>  <alias>  (2659) 
None

>  <HIPPO Pose ID>  (2659) 
75310

>  <smiles>  (2659) 
N#Cc1nc[nH]c1NC(=O)CC1CC1

>  <inchikey>  (2659) 
PKWIMMPPZKOUPD-UHFFFAOYSA-N

>  <distance_score>  (2659) 
1.977775

>  <ref_mols>  (2659) 
Z0719a,Z1597a

>  <ref_pdb>  (2659) 
Z0719a

>  <HIPPO Compound ID>  (2659) 
149674

>  <name>  (2659) 
P75310

>  <inspiration_score>  (2659) 
None

$$$$
P75311
     RDKit          3D

 14 14  0  0  0  0  0  0  0  0999 V2000
   -2.7085    7.6849  -19.5157 C   0  0  0  0  0  0  0  0  0  0  0  0
   -3.7735    6.9103  -19.7711 C   0  0  0  0  0  0  0  0  0  0  0  0
   -5.2060    7.5772  -20.7677 Br  0  0  0  0  0  0  0  0  0  0  0  0
   -3.8677    5.4860  -19.3066 C   0  0  0  0  0  0  0  0  0  0  0  0
   -4.7359    5.2949  -18.0620 C   0  0  0  0  0  0  0  0  0  0  0  0
   -4.2753    5.1934  -16.9927 O   0  0  0  0  0  0  0  0  0  0  0  0
   -6.2117    5.1788  -18.5386 N   0  0  0  0  0  0  0  0  0  0  0  0
   -7.3422    4.8397  -17.8496 C   0  0  0  0  0  0  0  0  0  0  0  0
   -8.5513    4.8235  -18.5002 N   0  0  0  0  0  0  0  0  0  0  0  0
   -9.5093    4.4349  -17.6108 C   0  0  0  0  0  0  0  0  0  0  0  0
   -8.9938    4.1829  -16.4343 N   0  0  0  0  0  0  0  0  0  0  0  0
   -7.6452    4.4571  -16.5542 C   0  0  0  0  0  0  0  0  0  0  0  0
   -6.7931    4.2804  -15.4154 C   0  0  0  0  0  0  0  0  0  0  0  0
   -6.1123    4.1251  -14.4851 N   0  0  0  0  0  0  0  0  0  0  0  0
  1  2  2  0
  2  3  1  0
  2  4  1  0
  4  5  1  0
  5  6  2  0
  5  7  1  0
  7  8  1  0
  8  9  1  0
  9 10  1  0
 10 11  2  0
 11 12  1  0
 12 13  1  0
 13 14  3  0
 12  8  2  0
M  END
>  <energy_score>  (2660) 
-14.953781

>  <alias>  (2660) 
None

>  <HIPPO Pose ID>  (2660) 
75311

>  <smiles>  (2660) 
C=C(Br)CC(=O)Nc1[nH]cnc1C#N

>  <inchikey>  (2660) 
DQMMDUAKXLGQMQ-UHFFFAOYSA-N

>  <distance_score>  (2660) 
1.300701

>  <ref_mols>  (2660) 
Z0719a,Z1597a

>  <ref_pdb>  (2660) 
Z0719a

>  <HIPPO Compound ID>  (2660) 
149676

>  <name>  (2660) 
P75311

>  <inspiration_score>  (2660) 
None

$$$$
P75312
     RDKit          3D

 14 14  0  0  0  0  0  0  0  0999 V2000
   -3.9867    7.7155  -21.8686 C   0  0  0  0  0  0  0  0  0  0  0  0
   -4.8526    7.3323  -20.6797 C   0  0  0  0  0  0  0  0  0  0  0  0
   -4.1556    6.3506  -19.7503 C   0  0  0  0  0  0  0  0  0  0  0  0
   -4.8046    6.2624  -18.3763 C   0  0  0  0  0  0  0  0  0  0  0  0
   -4.2442    6.6269  -17.4148 O   0  0  0  0  0  0  0  0  0  0  0  0
   -6.1990    5.5834  -18.5367 N   0  0  0  0  0  0  0  0  0  0  0  0
   -7.0948    5.1530  -17.5896 C   0  0  0  0  0  0  0  0  0  0  0  0
   -8.2826    4.4704  -17.7772 C   0  0  0  0  0  0  0  0  0  0  0  0
   -8.9760    4.1061  -19.0148 C   0  0  0  0  0  0  0  0  0  0  0  0
   -8.8002    4.0297  -16.5855 N   0  0  0  0  0  0  0  0  0  0  0  0
   -7.9501    4.4303  -15.6689 C   0  0  0  0  0  0  0  0  0  0  0  0
   -7.9634    4.0496  -14.2364 C   0  0  0  0  0  0  0  0  0  0  0  0
   -7.0049    5.2593  -16.2262 N   0  0  0  0  0  0  0  0  0  0  0  0
   -6.1838    6.1438  -15.4582 C   0  0  0  0  0  0  0  0  0  0  0  0
  1  2  1  0
  2  3  1  0
  3  4  1  0
  4  5  2  0
  4  6  1  0
  6  7  1  0
  7  8  2  0
  8  9  1  0
  8 10  1  0
 10 11  2  0
 11 12  1  0
 11 13  1  0
 13 14  1  0
 13  7  1  0
M  END
>  <energy_score>  (2661) 
-15.248589

>  <alias>  (2661) 
None

>  <HIPPO Pose ID>  (2661) 
75312

>  <smiles>  (2661) 
CCCC(=O)Nc1c(C)nc(C)n1C

>  <inchikey>  (2661) 
JKGCEBREBOMDLV-UHFFFAOYSA-N

>  <distance_score>  (2661) 
1.298045

>  <ref_mols>  (2661) 
Z0719a,Z1597a

>  <ref_pdb>  (2661) 
Z0719a

>  <HIPPO Compound ID>  (2661) 
149678

>  <name>  (2661) 
P75312

>  <inspiration_score>  (2661) 
None

$$$$
P75313
     RDKit          3D

 14 15  0  0  0  0  0  0  0  0999 V2000
   -3.6875    7.7420  -21.9226 C   0  0  0  0  0  0  0  0  0  0  0  0
   -4.6265    7.3159  -20.8060 C   0  0  0  0  0  0  0  0  0  0  0  0
   -3.9986    6.2638  -19.9031 C   0  0  0  0  0  0  0  0  0  0  0  0
   -4.8135    5.9748  -18.6531 C   0  0  0  0  0  0  0  0  0  0  0  0
   -4.3751    6.1862  -17.5880 O   0  0  0  0  0  0  0  0  0  0  0  0
   -6.1935    5.3898  -19.0789 N   0  0  0  0  0  0  0  0  0  0  0  0
   -7.2156    4.8874  -18.3230 C   0  0  0  0  0  0  0  0  0  0  0  0
   -8.3961    4.2510  -18.6827 C   0  0  0  0  0  0  0  0  0  0  0  0
   -9.1396    3.8545  -17.5788 N   0  0  0  0  0  0  0  0  0  0  0  0
   -8.4306    4.2853  -16.5710 C   0  0  0  0  0  0  0  0  0  0  0  0
   -7.2956    4.9114  -16.9806 N   0  0  0  0  0  0  0  0  0  0  0  0
   -6.5300    5.4499  -15.8847 C   0  0  0  0  0  0  0  0  0  0  0  0
   -7.5334    5.4022  -14.7354 C   0  0  0  0  0  0  0  0  0  0  0  0
   -8.5208    4.2827  -15.1022 C   0  0  0  0  0  0  0  0  0  0  0  0
  1  2  1  0
  2  3  1  0
  3  4  1  0
  4  5  2  0
  4  6  1  0
  6  7  1  0
  7  8  2  0
  8  9  1  0
  9 10  2  0
 10 11  1  0
 11 12  1  0
 12 13  1  0
 13 14  1  0
 11  7  1  0
 14 10  1  0
M  END
>  <energy_score>  (2662) 
-10.667491

>  <alias>  (2662) 
None

>  <HIPPO Pose ID>  (2662) 
75313

>  <smiles>  (2662) 
CCCC(=O)Nc1cnc2n1CCC2

>  <inchikey>  (2662) 
VKWVOWQAKVQFDT-UHFFFAOYSA-N

>  <distance_score>  (2662) 
1.726643

>  <ref_mols>  (2662) 
Z0719a,Z1597a

>  <ref_pdb>  (2662) 
Z0719a

>  <HIPPO Compound ID>  (2662) 
149679

>  <name>  (2662) 
P75313

>  <inspiration_score>  (2662) 
None

$$$$
P75314
     RDKit          3D

 14 14  0  0  0  0  0  0  0  0999 V2000
   -5.3308    7.5260  -20.4190 C   0  0  0  0  0  0  0  0  0  0  0  0
   -3.9733    6.9908  -19.9919 C   0  0  0  0  0  0  0  0  0  0  0  0
   -3.9808    5.5860  -19.3957 C   0  0  1  0  0  0  0  0  0  0  0  0
   -2.1156    5.0443  -19.0824 Br  0  0  0  0  0  0  0  0  0  0  0  0
   -4.7786    5.4002  -18.0948 C   0  0  0  0  0  0  0  0  0  0  0  0
   -4.3065    5.4081  -17.0258 O   0  0  0  0  0  0  0  0  0  0  0  0
   -6.2559    5.1726  -18.5459 N   0  0  0  0  0  0  0  0  0  0  0  0
   -7.3612    4.8353  -17.8202 C   0  0  0  0  0  0  0  0  0  0  0  0
   -8.5817    4.7967  -18.4456 N   0  0  0  0  0  0  0  0  0  0  0  0
   -9.5198    4.4267  -17.5288 C   0  0  0  0  0  0  0  0  0  0  0  0
   -8.9781    4.2023  -16.3589 N   0  0  0  0  0  0  0  0  0  0  0  0
   -7.6329    4.4779  -16.5114 C   0  0  0  0  0  0  0  0  0  0  0  0
   -6.7531    4.3062  -15.3939 C   0  0  0  0  0  0  0  0  0  0  0  0
   -6.0489    4.1462  -14.4826 N   0  0  0  0  0  0  0  0  0  0  0  0
  1  2  1  0
  2  3  1  0
  3  4  1  1
  3  5  1  0
  5  6  2  0
  5  7  1  0
  7  8  1  0
  8  9  1  0
  9 10  1  0
 10 11  2  0
 11 12  1  0
 12 13  1  0
 13 14  3  0
 12  8  2  0
M  END
>  <energy_score>  (2663) 
-11.223992

>  <alias>  (2663) 
None

>  <HIPPO Pose ID>  (2663) 
75314

>  <smiles>  (2663) 
CC[C@@H](Br)C(=O)Nc1[nH]cnc1C#N

>  <inchikey>  (2663) 
QIPWFZPZQSCOCW-RXMQYKEDSA-N

>  <distance_score>  (2663) 
1.910928

>  <ref_mols>  (2663) 
Z0719a,Z1597a

>  <ref_pdb>  (2663) 
Z0719a

>  <HIPPO Compound ID>  (2663) 
149685

>  <name>  (2663) 
P75314

>  <inspiration_score>  (2663) 
None

$$$$
P75316
     RDKit          3D

 14 14  0  0  0  0  0  0  0  0999 V2000
   -4.3031    8.2301  -19.6455 C   0  0  0  0  0  0  0  0  0  0  0  0
   -4.4662    6.8486  -20.2702 C   0  0  0  0  0  0  0  0  0  0  0  0
   -4.0642    5.6901  -19.3592 C   0  0  1  0  0  0  0  0  0  0  0  0
   -2.1185    5.6099  -19.1643 Br  0  0  0  0  0  0  0  0  0  0  0  0
   -4.7318    5.6881  -17.9739 C   0  0  0  0  0  0  0  0  0  0  0  0
   -4.1973    5.9895  -16.9770 O   0  0  0  0  0  0  0  0  0  0  0  0
   -6.1894    5.1853  -18.2289 N   0  0  0  0  0  0  0  0  0  0  0  0
   -7.1909    4.8804  -17.3473 C   0  0  0  0  0  0  0  0  0  0  0  0
   -8.4572    4.4447  -17.6817 C   0  0  0  0  0  0  0  0  0  0  0  0
   -9.0286    4.2006  -19.0002 C   0  0  0  0  0  0  0  0  0  0  0  0
   -9.2086    4.1541  -16.5799 N   0  0  0  0  0  0  0  0  0  0  0  0
   -8.4191    4.4015  -15.5688 C   0  0  0  0  0  0  0  0  0  0  0  0
   -7.1936    4.8537  -15.9803 N   0  0  0  0  0  0  0  0  0  0  0  0
   -6.1378    5.1420  -15.0621 C   0  0  0  0  0  0  0  0  0  0  0  0
  1  2  1  0
  2  3  1  0
  3  4  1  1
  3  5  1  0
  5  6  2  0
  5  7  1  0
  7  8  1  0
  8  9  2  0
  9 10  1  0
  9 11  1  0
 11 12  2  0
 12 13  1  0
 13 14  1  0
 13  8  1  0
M  END
>  <energy_score>  (2664) 
-24.826737

>  <alias>  (2664) 
None

>  <HIPPO Pose ID>  (2664) 
75316

>  <smiles>  (2664) 
CC[C@@H](Br)C(=O)Nc1c(C)ncn1C

>  <inchikey>  (2664) 
NLEIAGLPEFGMBP-SSDOTTSWSA-N

>  <distance_score>  (2664) 
1.349579

>  <ref_mols>  (2664) 
Z0719a,Z1597a

>  <ref_pdb>  (2664) 
Z0719a

>  <HIPPO Compound ID>  (2664) 
149686

>  <name>  (2664) 
P75316

>  <inspiration_score>  (2664) 
None

$$$$
P75318
     RDKit          3D

 14 14  0  0  0  0  0  0  0  0999 V2000
   -3.2530    7.6842  -19.5848 C   0  0  0  0  0  0  0  0  0  0  0  0
   -3.8023    6.4250  -20.2308 C   0  0  1  0  0  0  0  0  0  0  0  0
   -3.0095    6.1329  -21.3140 F   0  0  0  0  0  0  0  0  0  0  0  0
   -3.7416    5.2154  -19.3192 C   0  0  0  0  0  0  0  0  0  0  0  0
   -4.6551    5.2736  -18.1114 C   0  0  0  0  0  0  0  0  0  0  0  0
   -4.2384    5.4273  -17.0319 O   0  0  0  0  0  0  0  0  0  0  0  0
   -6.1029    5.0051  -18.6018 N   0  0  0  0  0  0  0  0  0  0  0  0
   -7.2528    4.7888  -17.8957 C   0  0  0  0  0  0  0  0  0  0  0  0
   -8.4643    4.7940  -18.5391 N   0  0  0  0  0  0  0  0  0  0  0  0
   -9.4352    4.5028  -17.6252 C   0  0  0  0  0  0  0  0  0  0  0  0
   -8.9265    4.3082  -16.4350 N   0  0  0  0  0  0  0  0  0  0  0  0
   -7.5672    4.5053  -16.5766 C   0  0  0  0  0  0  0  0  0  0  0  0
   -6.7126    4.3177  -15.4417 C   0  0  0  0  0  0  0  0  0  0  0  0
   -6.0214    4.1435  -14.5227 N   0  0  0  0  0  0  0  0  0  0  0  0
  2  1  1  1
  2  3  1  0
  2  4  1  0
  4  5  1  0
  5  6  2  0
  5  7  1  0
  7  8  1  0
  8  9  1  0
  9 10  1  0
 10 11  2  0
 11 12  1  0
 12 13  1  0
 13 14  3  0
 12  8  2  0
M  END
>  <energy_score>  (2665) 
-15.393097

>  <alias>  (2665) 
None

>  <HIPPO Pose ID>  (2665) 
75318

>  <smiles>  (2665) 
C[C@@H](F)CC(=O)Nc1[nH]cnc1C#N

>  <inchikey>  (2665) 
YRQZOAQUXFRZMF-RXMQYKEDSA-N

>  <distance_score>  (2665) 
1.918441

>  <ref_mols>  (2665) 
Z0719a,Z1597a

>  <ref_pdb>  (2665) 
Z0719a

>  <HIPPO Compound ID>  (2665) 
149689

>  <name>  (2665) 
P75318

>  <inspiration_score>  (2665) 
None

$$$$
P75321
     RDKit          3D

 14 14  0  0  0  0  0  0  0  0999 V2000
   -8.5234    4.4190  -14.7952 C   0  0  0  0  0  0  0  0  0  0  0  0
   -8.1924    4.4940  -16.2359 C   0  0  0  0  0  0  0  0  0  0  0  0
   -8.9880    4.2391  -17.2510 N   0  0  0  0  0  0  0  0  0  0  0  0
   -8.2465    4.5312  -18.3678 C   0  0  0  0  0  0  0  0  0  0  0  0
   -6.9771    4.9708  -18.0387 C   0  0  0  0  0  0  0  0  0  0  0  0
   -5.9828    5.4019  -18.8830 N   0  0  0  0  0  0  0  0  0  0  0  0
   -4.5782    6.0024  -18.5695 C   0  0  0  0  0  0  0  0  0  0  0  0
   -4.0262    6.1484  -17.5464 O   0  0  0  0  0  0  0  0  0  0  0  0
   -3.8824    6.3208  -19.8749 C   0  0  0  0  0  0  0  0  0  0  0  0
   -4.4983    7.5059  -20.5817 C   0  0  1  0  0  0  0  0  0  0  0  0
   -3.6577    7.9586  -21.7621 C   0  0  0  0  0  0  0  0  0  0  0  0
   -5.7246    7.1724  -21.0570 F   0  0  0  0  0  0  0  0  0  0  0  0
   -6.9374    4.8483  -16.6731 N   0  0  0  0  0  0  0  0  0  0  0  0
   -5.8092    4.9510  -15.7955 C   0  0  0  0  0  0  0  0  0  0  0  0
  1  2  1  0
  2  3  2  0
  3  4  1  0
  4  5  2  0
  5  6  1  0
  6  7  1  0
  7  8  2  0
  7  9  1  0
  9 10  1  0
 10 11  1  6
 10 12  1  0
  5 13  1  0
 13 14  1  0
 13  2  1  0
M  END
>  <energy_score>  (2666) 
-22.552346

>  <alias>  (2666) 
None

>  <HIPPO Pose ID>  (2666) 
75321

>  <smiles>  (2666) 
Cc1ncc(NC(=O)C[C@@H](C)F)n1C

>  <inchikey>  (2666) 
FOBREVHICMDHRX-ZCFIWIBFSA-N

>  <distance_score>  (2666) 
1.127375

>  <ref_mols>  (2666) 
Z0719a,Z1597a

>  <ref_pdb>  (2666) 
Z0719a

>  <HIPPO Compound ID>  (2666) 
149691

>  <name>  (2666) 
P75321

>  <inspiration_score>  (2666) 
None

$$$$
P75325
     RDKit          3D

 14 15  0  0  0  0  0  0  0  0999 V2000
   -2.6614    5.9997  -20.0497 C   0  0  0  0  0  0  0  0  0  0  0  0
   -3.9582    6.3442  -19.9662 C   0  0  0  0  0  0  0  0  0  0  0  0
   -4.6207    7.2894  -20.9133 C   0  0  0  0  0  0  0  0  0  0  0  0
   -4.6922    5.9027  -18.7319 C   0  0  0  0  0  0  0  0  0  0  0  0
   -4.1835    6.0091  -17.6850 O   0  0  0  0  0  0  0  0  0  0  0  0
   -6.1148    5.4208  -19.1130 N   0  0  0  0  0  0  0  0  0  0  0  0
   -7.1167    4.9090  -18.3359 C   0  0  0  0  0  0  0  0  0  0  0  0
   -8.3222    4.3055  -18.6694 C   0  0  0  0  0  0  0  0  0  0  0  0
   -9.0474    3.9218  -17.5501 N   0  0  0  0  0  0  0  0  0  0  0  0
   -8.3003    4.3242  -16.5580 C   0  0  0  0  0  0  0  0  0  0  0  0
   -7.1485    4.9047  -16.9894 N   0  0  0  0  0  0  0  0  0  0  0  0
   -6.3457    5.4327  -15.9097 C   0  0  0  0  0  0  0  0  0  0  0  0
   -7.3340    5.4200  -14.7412 C   0  0  0  0  0  0  0  0  0  0  0  0
   -8.3760    4.3396  -15.0896 C   0  0  0  0  0  0  0  0  0  0  0  0
  1  2  2  0
  2  3  1  0
  2  4  1  0
  4  5  2  0
  4  6  1  0
  6  7  1  0
  7  8  2  0
  8  9  1  0
  9 10  2  0
 10 11  1  0
 11 12  1  0
 12 13  1  0
 13 14  1  0
 11  7  1  0
 14 10  1  0
M  END
>  <energy_score>  (2667) 
-29.649047

>  <alias>  (2667) 
None

>  <HIPPO Pose ID>  (2667) 
75325

>  <smiles>  (2667) 
C=C(C)C(=O)Nc1cnc2n1CCC2

>  <inchikey>  (2667) 
BGUUJAZBKJLSTG-UHFFFAOYSA-N

>  <distance_score>  (2667) 
1.226737

>  <ref_mols>  (2667) 
Z0719a,Z1597a

>  <ref_pdb>  (2667) 
Z0719a

>  <HIPPO Compound ID>  (2667) 
149697

>  <name>  (2667) 
P75325

>  <inspiration_score>  (2667) 
None

$$$$
P75326
     RDKit          3D

 14 14  0  0  0  0  0  0  0  0999 V2000
   -2.6768    6.4198  -20.2211 C   0  0  0  0  0  0  0  0  0  0  0  0
   -3.9314    6.3792  -19.7299 C   0  0  0  0  0  0  0  0  0  0  0  0
   -5.0349    7.0932  -20.4390 C   0  0  0  0  0  0  0  0  0  0  0  0
   -4.1241    5.6396  -18.4115 C   0  0  0  0  0  0  0  0  0  0  0  0
   -3.1800    5.2357  -17.8507 O   0  0  0  0  0  0  0  0  0  0  0  0
   -5.6201    5.6153  -18.0061 N   0  0  0  0  0  0  0  0  0  0  0  0
   -6.2346    5.0430  -16.9421 C   0  0  0  0  0  0  0  0  0  0  0  0
   -5.6187    4.3982  -15.9064 C   0  0  0  0  0  0  0  0  0  0  0  0
   -6.6191    3.9219  -15.1035 N   0  0  0  0  0  0  0  0  0  0  0  0
   -6.4691    3.0395  -13.9419 C   0  0  0  0  0  0  0  0  0  0  0  0
   -7.3680    3.4277  -12.7757 C   0  0  0  0  0  0  0  0  0  0  0  0
   -5.0283    2.8986  -13.4161 C   0  0  0  0  0  0  0  0  0  0  0  0
   -7.7962    4.3212  -15.6955 C   0  0  0  0  0  0  0  0  0  0  0  0
   -7.5843    5.0382  -16.7840 N   0  0  0  0  0  0  0  0  0  0  0  0
  1  2  2  0
  2  3  1  0
  2  4  1  0
  4  5  2  0
  4  6  1  0
  6  7  1  0
  7  8  2  0
  8  9  1  0
  9 10  1  0
 10 11  1  0
 10 12  1  0
  9 13  1  0
 13 14  2  0
 14  7  1  0
M  END
>  <energy_score>  (2668) 
-11.359706

>  <alias>  (2668) 
None

>  <HIPPO Pose ID>  (2668) 
75326

>  <smiles>  (2668) 
C=C(C)C(=O)Nc1cn(C(C)C)cn1

>  <inchikey>  (2668) 
PDGOHUYOXIEGJK-UHFFFAOYSA-N

>  <distance_score>  (2668) 
1.967982

>  <ref_mols>  (2668) 
Z0719a,Z1597a

>  <ref_pdb>  (2668) 
Z0719a

>  <HIPPO Compound ID>  (2668) 
149700

>  <name>  (2668) 
P75326

>  <inspiration_score>  (2668) 
None

$$$$
P75327
     RDKit          3D

 14 14  0  0  0  0  0  0  0  0999 V2000
   -2.5559    7.4446  -20.0491 C   0  0  0  0  0  0  0  0  0  0  0  0
   -3.7494    6.8464  -19.9203 C   0  0  0  0  0  0  0  0  0  0  0  0
   -5.2911    7.6480  -20.6063 Br  0  0  0  0  0  0  0  0  0  0  0  0
   -3.9314    5.5214  -19.2392 C   0  0  0  0  0  0  0  0  0  0  0  0
   -4.6848    5.6157  -17.9070 C   0  0  0  0  0  0  0  0  0  0  0  0
   -4.1651    5.9174  -16.9020 O   0  0  0  0  0  0  0  0  0  0  0  0
   -6.1441    5.1452  -18.1878 N   0  0  0  0  0  0  0  0  0  0  0  0
   -7.1727    4.8749  -17.3251 C   0  0  0  0  0  0  0  0  0  0  0  0
   -8.4378    4.4517  -17.6830 C   0  0  0  0  0  0  0  0  0  0  0  0
   -8.9856    4.1997  -19.0109 C   0  0  0  0  0  0  0  0  0  0  0  0
   -9.2143    4.1759  -16.5940 N   0  0  0  0  0  0  0  0  0  0  0  0
   -8.4449    4.4280  -15.5692 C   0  0  0  0  0  0  0  0  0  0  0  0
   -7.2082    4.8684  -15.9586 N   0  0  0  0  0  0  0  0  0  0  0  0
   -6.1747    5.1697  -15.0200 C   0  0  0  0  0  0  0  0  0  0  0  0
  1  2  2  0
  2  3  1  0
  2  4  1  0
  4  5  1  0
  5  6  2  0
  5  7  1  0
  7  8  1  0
  8  9  2  0
  9 10  1  0
  9 11  1  0
 11 12  2  0
 12 13  1  0
 13 14  1  0
 13  8  1  0
M  END
>  <energy_score>  (2669) 
-27.917641

>  <alias>  (2669) 
None

>  <HIPPO Pose ID>  (2669) 
75327

>  <smiles>  (2669) 
C=C(Br)CC(=O)Nc1c(C)ncn1C

>  <inchikey>  (2669) 
IFOBUDPATZCYSZ-UHFFFAOYSA-N

>  <distance_score>  (2669) 
1.322485

>  <ref_mols>  (2669) 
Z0719a,Z1597a

>  <ref_pdb>  (2669) 
Z0719a

>  <HIPPO Compound ID>  (2669) 
149701

>  <name>  (2669) 
P75327

>  <inspiration_score>  (2669) 
None

$$$$
P75333
     RDKit          3D

 14 15  0  0  0  0  0  0  0  0999 V2000
   -5.3415    3.1095  -13.3670 C   0  0  0  0  0  0  0  0  0  0  0  0
   -6.7143    3.3912  -13.9768 C   0  0  0  0  0  0  0  0  0  0  0  0
   -6.7371    4.0721  -15.2613 N   0  0  0  0  0  0  0  0  0  0  0  0
   -7.8668    4.3821  -15.9789 C   0  0  0  0  0  0  0  0  0  0  0  0
   -7.5680    4.9428  -17.1352 N   0  0  0  0  0  0  0  0  0  0  0  0
   -6.2081    4.9609  -17.1778 C   0  0  0  0  0  0  0  0  0  0  0  0
   -5.5089    5.4016  -18.2513 N   0  0  0  0  0  0  0  0  0  0  0  0
   -3.9909    5.6183  -18.4401 C   0  0  0  0  0  0  0  0  0  0  0  0
   -3.0978    5.3784  -17.7271 O   0  0  0  0  0  0  0  0  0  0  0  0
   -3.6478    6.2650  -19.7781 C   0  0  1  0  0  0  0  0  0  0  0  0
   -4.6135    7.1432  -20.5180 C   0  0  0  0  0  0  0  0  0  0  0  0
   -2.1641    6.5351  -20.0471 C   0  0  0  0  0  0  0  0  0  0  0  0
   -2.8463    5.4376  -20.6513 O   0  0  0  0  0  0  0  0  0  0  0  0
   -5.6758    4.4814  -16.0123 C   0  0  0  0  0  0  0  0  0  0  0  0
  1  2  1  0
  2  3  1  0
  3  4  1  0
  4  5  2  0
  5  6  1  0
  6  7  1  0
  7  8  1  0
  8  9  2  0
  8 10  1  0
 10 11  1  6
 10 12  1  0
 12 13  1  0
  6 14  2  0
 14  3  1  0
 13 10  1  0
M  END
>  <energy_score>  (2670) 
-24.800313

>  <alias>  (2670) 
None

>  <HIPPO Pose ID>  (2670) 
75333

>  <smiles>  (2670) 
CCn1cnc(NC(=O)[C@@]2(C)CO2)c1

>  <inchikey>  (2670) 
WYFQSTISRKLMEP-SECBINFHSA-N

>  <distance_score>  (2670) 
1.943317

>  <ref_mols>  (2670) 
Z0719a,Z1597a

>  <ref_pdb>  (2670) 
Z0719a

>  <HIPPO Compound ID>  (2670) 
149705

>  <name>  (2670) 
P75333

>  <inspiration_score>  (2670) 
None

$$$$
P75334
     RDKit          3D

 14 14  0  0  0  0  0  0  0  0999 V2000
   -2.4474    5.1049  -19.5822 C   0  0  0  0  0  0  0  0  0  0  0  0
   -3.6410    5.6978  -19.4053 C   0  0  0  0  0  0  0  0  0  0  0  0
   -4.1708    6.7789  -20.2965 C   0  0  0  0  0  0  0  0  0  0  0  0
   -4.3458    5.3814  -18.1128 C   0  0  0  0  0  0  0  0  0  0  0  0
   -3.7557    5.4033  -17.1072 O   0  0  0  0  0  0  0  0  0  0  0  0
   -5.8478    5.1653  -18.3858 N   0  0  0  0  0  0  0  0  0  0  0  0
   -6.8626    4.8556  -17.5388 C   0  0  0  0  0  0  0  0  0  0  0  0
   -8.1362    4.8447  -18.0324 N   0  0  0  0  0  0  0  0  0  0  0  0
   -8.9249    4.6070  -17.0078 C   0  0  0  0  0  0  0  0  0  0  0  0
   -8.1997    4.5101  -15.8661 N   0  0  0  0  0  0  0  0  0  0  0  0
   -8.6867    4.4766  -14.5126 C   0  0  0  0  0  0  0  0  0  0  0  0
   -6.8727    4.5716  -16.1964 C   0  0  0  0  0  0  0  0  0  0  0  0
   -5.8533    4.3509  -15.2463 C   0  0  0  0  0  0  0  0  0  0  0  0
   -5.1348    4.0929  -14.3733 N   0  0  0  0  0  0  0  0  0  0  0  0
  1  2  2  0
  2  3  1  0
  2  4  1  0
  4  5  2  0
  4  6  1  0
  6  7  1  0
  7  8  1  0
  8  9  2  0
  9 10  1  0
 10 11  1  0
 10 12  1  0
 12 13  1  0
 13 14  3  0
 12  7  2  0
M  END
>  <energy_score>  (2671) 
-16.076982

>  <alias>  (2671) 
None

>  <HIPPO Pose ID>  (2671) 
75334

>  <smiles>  (2671) 
C=C(C)C(=O)Nc1ncn(C)c1C#N

>  <inchikey>  (2671) 
SHZYJGPEUPLLMX-UHFFFAOYSA-N

>  <distance_score>  (2671) 
1.664925

>  <ref_mols>  (2671) 
Z0719a,Z1597a

>  <ref_pdb>  (2671) 
Z0719a

>  <HIPPO Compound ID>  (2671) 
149712

>  <name>  (2671) 
P75334

>  <inspiration_score>  (2671) 
None

$$$$
P75335
     RDKit          3D

 14 14  0  0  0  0  0  0  0  0999 V2000
   -1.1474    6.7234  -20.8005 C   0  0  0  0  0  0  0  0  0  0  0  0
   -2.1763    6.9212  -19.6967 C   0  0  0  0  0  0  0  0  0  0  0  0
   -3.5830    6.4156  -20.0706 C   0  0  2  0  0  0  0  0  0  0  0  0
   -4.2037    7.2486  -21.1887 C   0  0  0  0  0  0  0  0  0  0  0  0
   -4.4991    6.4294  -18.8398 C   0  0  0  0  0  0  0  0  0  0  0  0
   -4.2442    7.0323  -17.8700 O   0  0  0  0  0  0  0  0  0  0  0  0
   -5.7118    5.5103  -19.1659 N   0  0  0  0  0  0  0  0  0  0  0  0
   -6.7347    5.1003  -18.3870 C   0  0  0  0  0  0  0  0  0  0  0  0
   -6.9304    5.4076  -17.0710 C   0  0  0  0  0  0  0  0  0  0  0  0
   -8.0610    4.7342  -16.7242 N   0  0  0  0  0  0  0  0  0  0  0  0
   -8.6369    4.6959  -15.4077 C   0  0  0  0  0  0  0  0  0  0  0  0
   -7.6821    4.1707  -14.3487 C   0  0  0  0  0  0  0  0  0  0  0  0
   -8.5474    4.1351  -17.8413 C   0  0  0  0  0  0  0  0  0  0  0  0
   -7.7169    4.2866  -18.8500 N   0  0  0  0  0  0  0  0  0  0  0  0
  1  2  1  0
  2  3  1  0
  3  4  1  6
  3  5  1  0
  5  6  2  0
  5  7  1  0
  7  8  1  0
  8  9  2  0
  9 10  1  0
 10 11  1  0
 11 12  1  0
 10 13  1  0
 13 14  2  0
 14  8  1  0
M  END
>  <energy_score>  (2672) 
-36.345758

>  <alias>  (2672) 
None

>  <HIPPO Pose ID>  (2672) 
75335

>  <smiles>  (2672) 
CC[C@H](C)C(=O)Nc1cn(CC)cn1

>  <inchikey>  (2672) 
FNCHQQXUBQTDGD-QMMMGPOBSA-N

>  <distance_score>  (2672) 
1.484431

>  <ref_mols>  (2672) 
Z0719a,Z1597a

>  <ref_pdb>  (2672) 
Z0719a

>  <HIPPO Compound ID>  (2672) 
149718

>  <name>  (2672) 
P75335

>  <inspiration_score>  (2672) 
None

$$$$
P75338
     RDKit          3D

 14 14  0  0  0  0  0  0  0  0999 V2000
   -8.8920    4.1411  -19.0607 C   0  0  0  0  0  0  0  0  0  0  0  0
   -8.2505    4.5063  -17.7955 C   0  0  0  0  0  0  0  0  0  0  0  0
   -8.8954    4.1787  -16.6300 N   0  0  0  0  0  0  0  0  0  0  0  0
   -8.1011    4.5784  -15.6668 C   0  0  0  0  0  0  0  0  0  0  0  0
   -8.3409    4.4373  -14.2138 C   0  0  0  0  0  0  0  0  0  0  0  0
   -6.9482    5.1218  -16.1816 N   0  0  0  0  0  0  0  0  0  0  0  0
   -5.7817    5.3670  -15.3867 C   0  0  0  0  0  0  0  0  0  0  0  0
   -7.0685    5.1804  -17.5470 C   0  0  0  0  0  0  0  0  0  0  0  0
   -6.1819    5.7392  -18.4343 N   0  0  0  0  0  0  0  0  0  0  0  0
   -4.9397    6.6571  -18.1863 C   0  0  0  0  0  0  0  0  0  0  0  0
   -4.5342    7.1358  -17.1945 O   0  0  0  0  0  0  0  0  0  0  0  0
   -4.1394    6.8191  -19.4944 C   0  0  2  0  0  0  0  0  0  0  0  0
   -4.9261    7.2853  -20.7049 C   0  0  0  0  0  0  0  0  0  0  0  0
   -3.1946    5.2909  -19.8217 S   0  0  0  0  0  0  0  0  0  0  0  0
  1  2  1  0
  2  3  1  0
  3  4  2  0
  4  5  1  0
  4  6  1  0
  6  7  1  0
  6  8  1  0
  8  9  1  0
  9 10  1  0
 10 11  2  0
 10 12  1  0
 12 13  1  6
 12 14  1  0
  8  2  2  0
M  END
>  <energy_score>  (2673) 
-24.290835

>  <alias>  (2673) 
None

>  <HIPPO Pose ID>  (2673) 
75338

>  <smiles>  (2673) 
Cc1nc(C)n(C)c1NC(=O)[C@H](C)S

>  <inchikey>  (2673) 
WNOIPUYFIMSLMN-LURJTMIESA-N

>  <distance_score>  (2673) 
1.496308

>  <ref_mols>  (2673) 
Z0719a,Z1597a

>  <ref_pdb>  (2673) 
Z0719a

>  <HIPPO Compound ID>  (2673) 
149724

>  <name>  (2673) 
P75338

>  <inspiration_score>  (2673) 
None

$$$$
P75342
     RDKit          3D

 14 14  0  0  0  0  0  0  0  0999 V2000
   -3.5655    3.9505  -16.5105 O   0  0  0  0  0  0  0  0  0  0  0  0
   -4.1052    4.8048  -17.0958 C   0  0  0  0  0  0  0  0  0  0  0  0
   -3.4028    5.6425  -18.1686 C   0  0  0  0  0  0  0  0  0  0  0  0
   -3.9533    5.4160  -19.5716 C   0  0  0  0  0  0  0  0  0  0  0  0
   -2.9238    5.4616  -20.4708 F   0  0  0  0  0  0  0  0  0  0  0  0
   -5.5689    5.3116  -17.0118 N   0  0  0  0  0  0  0  0  0  0  0  0
   -6.6294    4.8376  -16.3021 C   0  0  0  0  0  0  0  0  0  0  0  0
   -7.8289    5.3038  -16.7932 N   0  0  0  0  0  0  0  0  0  0  0  0
   -8.7655    4.6140  -16.1894 C   0  0  0  0  0  0  0  0  0  0  0  0
   -8.2328    3.8131  -15.2307 N   0  0  0  0  0  0  0  0  0  0  0  0
   -6.8663    3.9780  -15.2560 C   0  0  0  0  0  0  0  0  0  0  0  0
   -6.0973    3.2769  -14.2818 N   0  0  0  0  0  0  0  0  0  0  0  0
   -6.6646    2.3253  -13.7191 O   0  0  0  0  0  0  0  0  0  0  0  0
   -4.9638    3.6844  -14.0178 O   0  0  0  0  0  0  0  0  0  0  0  0
  1  2  2  0
  2  3  1  0
  3  4  1  0
  4  5  1  0
  2  6  1  0
  6  7  1  0
  7  8  1  0
  8  9  2  0
  9 10  1  0
 10 11  1  0
 11 12  1  0
 12 13  2  0
 12 14  1  0
 11  7  2  0
M  CHG  2  12   1  14  -1
M  END
>  <energy_score>  (2674) 
-7.694892

>  <alias>  (2674) 
None

>  <HIPPO Pose ID>  (2674) 
75342

>  <smiles>  (2674) 
O=C(CCF)Nc1nc[nH]c1[N+](=O)[O-]

>  <inchikey>  (2674) 
LETQCCKERHMQOA-UHFFFAOYSA-N

>  <distance_score>  (2674) 
1.946539

>  <ref_mols>  (2674) 
Z0719a,Z1597a

>  <ref_pdb>  (2674) 
Z0719a

>  <HIPPO Compound ID>  (2674) 
149729

>  <name>  (2674) 
P75342

>  <inspiration_score>  (2674) 
None

$$$$
P75343
     RDKit          3D

 14 15  0  0  0  0  0  0  0  0999 V2000
   -4.2472    6.0667  -17.4822 O   0  0  0  0  0  0  0  0  0  0  0  0
   -4.5562    5.6105  -18.5145 C   0  0  0  0  0  0  0  0  0  0  0  0
   -3.5871    5.5380  -19.6626 C   0  0  0  0  0  0  0  0  0  0  0  0
   -3.8004    6.6486  -20.6562 C   0  0  0  0  0  0  0  0  0  0  0  0
   -2.9750    6.3909  -21.7160 F   0  0  0  0  0  0  0  0  0  0  0  0
   -5.8751    4.9086  -18.9533 N   0  0  0  0  0  0  0  0  0  0  0  0
   -7.0456    4.7222  -18.2783 C   0  0  0  0  0  0  0  0  0  0  0  0
   -8.2851    4.2614  -18.6987 C   0  0  0  0  0  0  0  0  0  0  0  0
   -9.1993    4.1959  -17.6595 N   0  0  0  0  0  0  0  0  0  0  0  0
   -8.5265    4.6502  -16.6382 C   0  0  0  0  0  0  0  0  0  0  0  0
   -7.2345    4.9208  -16.9604 N   0  0  0  0  0  0  0  0  0  0  0  0
   -6.4406    5.3216  -15.8214 C   0  0  0  0  0  0  0  0  0  0  0  0
   -7.3535    4.9560  -14.6490 C   0  0  0  0  0  0  0  0  0  0  0  0
   -8.7820    4.9496  -15.2237 C   0  0  0  0  0  0  0  0  0  0  0  0
  1  2  2  0
  2  3  1  0
  3  4  1  0
  4  5  1  0
  2  6  1  0
  6  7  1  0
  7  8  2  0
  8  9  1  0
  9 10  2  0
 10 11  1  0
 11 12  1  0
 12 13  1  0
 13 14  1  0
 11  7  1  0
 14 10  1  0
M  END
>  <energy_score>  (2675) 
-9.677162

>  <alias>  (2675) 
None

>  <HIPPO Pose ID>  (2675) 
75343

>  <smiles>  (2675) 
O=C(CCF)Nc1cnc2n1CCC2

>  <inchikey>  (2675) 
PEJPDKXUJFRGHX-UHFFFAOYSA-N

>  <distance_score>  (2675) 
1.260599

>  <ref_mols>  (2675) 
Z0719a,Z1597a

>  <ref_pdb>  (2675) 
Z0719a

>  <HIPPO Compound ID>  (2675) 
149731

>  <name>  (2675) 
P75343

>  <inspiration_score>  (2675) 
None

$$$$
P75344
     RDKit          3D

 14 14  0  0  0  0  0  0  0  0999 V2000
   -8.5716    4.3274  -14.3415 C   0  0  0  0  0  0  0  0  0  0  0  0
   -8.1177    4.5086  -15.6964 N   0  0  0  0  0  0  0  0  0  0  0  0
   -8.8715    4.6949  -16.8077 C   0  0  0  0  0  0  0  0  0  0  0  0
   -8.1317    5.1743  -17.7841 N   0  0  0  0  0  0  0  0  0  0  0  0
   -6.8608    5.2503  -17.2941 C   0  0  0  0  0  0  0  0  0  0  0  0
   -5.9291    5.8654  -18.0647 N   0  0  0  0  0  0  0  0  0  0  0  0
   -4.4357    6.1888  -17.7778 C   0  0  0  0  0  0  0  0  0  0  0  0
   -3.8026    6.0437  -16.8062 O   0  0  0  0  0  0  0  0  0  0  0  0
   -3.8547    6.8824  -19.0031 C   0  0  0  0  0  0  0  0  0  0  0  0
   -3.9735    6.0412  -20.2493 C   0  0  0  0  0  0  0  0  0  0  0  0
   -2.7729    5.9679  -20.8950 F   0  0  0  0  0  0  0  0  0  0  0  0
   -6.8068    4.7171  -16.0333 C   0  0  0  0  0  0  0  0  0  0  0  0
   -5.7505    4.4364  -15.1445 C   0  0  0  0  0  0  0  0  0  0  0  0
   -4.9824    4.1128  -14.3392 N   0  0  0  0  0  0  0  0  0  0  0  0
  1  2  1  0
  2  3  1  0
  3  4  2  0
  4  5  1  0
  5  6  1  0
  6  7  1  0
  7  8  2  0
  7  9  1  0
  9 10  1  0
 10 11  1  0
  5 12  2  0
 12 13  1  0
 13 14  3  0
 12  2  1  0
M  END
>  <energy_score>  (2676) 
-21.071248

>  <alias>  (2676) 
None

>  <HIPPO Pose ID>  (2676) 
75344

>  <smiles>  (2676) 
Cn1cnc(NC(=O)CCF)c1C#N

>  <inchikey>  (2676) 
ZUJWVMAZHSRXLK-UHFFFAOYSA-N

>  <distance_score>  (2676) 
1.867877

>  <ref_mols>  (2676) 
Z0719a,Z1597a

>  <ref_pdb>  (2676) 
Z0719a

>  <HIPPO Compound ID>  (2676) 
149737

>  <name>  (2676) 
P75344

>  <inspiration_score>  (2676) 
None

$$$$
P75348
     RDKit          3D

 14 15  0  0  0  0  0  0  0  0999 V2000
   -7.4835    3.3796   -9.3681 C   0  0  0  0  0  0  0  0  0  0  0  0
   -7.6652    4.2913  -10.5236 C   0  0  0  0  0  0  0  0  0  0  0  0
   -8.1575    5.5120  -10.4368 N   0  0  0  0  0  0  0  0  0  0  0  0
   -8.2887    5.9419  -11.7247 C   0  0  0  0  0  0  0  0  0  0  0  0
   -7.7944    5.0201  -12.6213 C   0  0  0  0  0  0  0  0  0  0  0  0
   -7.8086    5.0846  -13.9897 N   0  0  0  0  0  0  0  0  0  0  0  0
   -6.9515    4.3476  -15.0344 C   0  0  0  0  0  0  0  0  0  0  0  0
   -6.1506    3.5128  -14.9008 O   0  0  0  0  0  0  0  0  0  0  0  0
   -7.3596    4.7830  -16.4269 C   0  0  0  0  0  0  0  0  0  0  0  0
   -8.7793    4.4674  -16.8426 C   0  0  0  0  0  0  0  0  0  0  0  0
   -6.3085    4.7244  -17.5279 C   0  0  0  0  0  0  0  0  0  0  0  0
   -6.7213    6.0485  -16.9731 C   0  0  0  0  0  0  0  0  0  0  0  0
   -7.3540    3.9747  -11.8365 N   0  0  0  0  0  0  0  0  0  0  0  0
   -6.7849    2.7239  -12.2906 C   0  0  0  0  0  0  0  0  0  0  0  0
  1  2  1  0
  2  3  2  0
  3  4  1  0
  4  5  2  0
  5  6  1  0
  6  7  1  0
  7  8  2  0
  7  9  1  0
  9 10  1  0
  9 11  1  0
 11 12  1  0
  5 13  1  0
 13 14  1  0
 13  2  1  0
 12  9  1  0
M  END
>  <energy_score>  (2677) 
-19.93122

>  <alias>  (2677) 
None

>  <HIPPO Pose ID>  (2677) 
75348

>  <smiles>  (2677) 
Cc1ncc(NC(=O)C2(C)CC2)n1C

>  <inchikey>  (2677) 
QEMIVKMSVFBQSO-UHFFFAOYSA-N

>  <distance_score>  (2677) 
1.389028

>  <ref_mols>  (2677) 
Z0719a,Z1597a

>  <ref_pdb>  (2677) 
Z0719a

>  <HIPPO Compound ID>  (2677) 
149744

>  <name>  (2677) 
P75348

>  <inspiration_score>  (2677) 
None

$$$$
P75349
     RDKit          3D

 14 14  0  0  0  0  0  0  0  0999 V2000
   -3.5236    7.5471  -21.3321 C   0  0  0  0  0  0  0  0  0  0  0  0
   -4.5072    7.1464  -20.2310 C   0  0  0  0  0  0  0  0  0  0  0  0
   -4.7688    8.3540  -19.3247 C   0  0  0  0  0  0  0  0  0  0  0  0
   -3.9680    5.9457  -19.4348 C   0  0  0  0  0  0  0  0  0  0  0  0
   -4.7722    5.5548  -18.1922 C   0  0  0  0  0  0  0  0  0  0  0  0
   -4.2978    5.5658  -17.1257 O   0  0  0  0  0  0  0  0  0  0  0  0
   -6.2013    5.1663  -18.6524 N   0  0  0  0  0  0  0  0  0  0  0  0
   -7.3053    4.8221  -17.9236 C   0  0  0  0  0  0  0  0  0  0  0  0
   -8.5325    4.7889  -18.5360 N   0  0  0  0  0  0  0  0  0  0  0  0
   -9.4651    4.4243  -17.6103 C   0  0  0  0  0  0  0  0  0  0  0  0
   -8.9152    4.1991  -16.4445 N   0  0  0  0  0  0  0  0  0  0  0  0
   -7.5690    4.4652  -16.6117 C   0  0  0  0  0  0  0  0  0  0  0  0
   -6.6845    4.3036  -15.4959 C   0  0  0  0  0  0  0  0  0  0  0  0
   -5.9773    4.1505  -14.5852 N   0  0  0  0  0  0  0  0  0  0  0  0
  1  2  1  0
  2  3  1  0
  2  4  1  0
  4  5  1  0
  5  6  2  0
  5  7  1  0
  7  8  1  0
  8  9  1  0
  9 10  1  0
 10 11  2  0
 11 12  1  0
 12 13  1  0
 13 14  3  0
 12  8  2  0
M  END
>  <energy_score>  (2678) 
-20.324493

>  <alias>  (2678) 
None

>  <HIPPO Pose ID>  (2678) 
75349

>  <smiles>  (2678) 
CC(C)CC(=O)Nc1[nH]cnc1C#N

>  <inchikey>  (2678) 
MYPMKWXGARBELX-UHFFFAOYSA-N

>  <distance_score>  (2678) 
1.931258

>  <ref_mols>  (2678) 
Z0719a,Z1597a

>  <ref_pdb>  (2678) 
Z0719a

>  <HIPPO Compound ID>  (2678) 
149746

>  <name>  (2678) 
P75349

>  <inspiration_score>  (2678) 
None

$$$$
P75351
     RDKit          3D

 14 14  0  0  0  0  0  0  0  0999 V2000
   -3.5572    4.2712  -16.6602 O   0  0  0  0  0  0  0  0  0  0  0  0
   -4.2363    4.6094  -17.5474 C   0  0  0  0  0  0  0  0  0  0  0  0
   -3.6952    4.8045  -18.9694 C   0  0  0  0  0  0  0  0  0  0  0  0
   -3.8137    6.1751  -19.6102 C   0  0  0  0  0  0  0  0  0  0  0  0
   -3.0827    6.1644  -20.8463 O   0  0  0  0  0  0  0  0  0  0  0  0
   -5.7658    4.8409  -17.6086 N   0  0  0  0  0  0  0  0  0  0  0  0
   -6.7333    4.6249  -16.6711 C   0  0  0  0  0  0  0  0  0  0  0  0
   -7.9636    5.0060  -17.1592 N   0  0  0  0  0  0  0  0  0  0  0  0
   -8.8597    4.5438  -16.3272 C   0  0  0  0  0  0  0  0  0  0  0  0
   -8.2652    3.9495  -15.2636 N   0  0  0  0  0  0  0  0  0  0  0  0
   -6.8973    4.0356  -15.4340 C   0  0  0  0  0  0  0  0  0  0  0  0
   -6.0956    3.3950  -14.4408 N   0  0  0  0  0  0  0  0  0  0  0  0
   -6.6654    2.5207  -13.7647 O   0  0  0  0  0  0  0  0  0  0  0  0
   -4.9322    3.7631  -14.2765 O   0  0  0  0  0  0  0  0  0  0  0  0
  1  2  2  0
  2  3  1  0
  3  4  1  0
  4  5  1  0
  2  6  1  0
  6  7  1  0
  7  8  1  0
  8  9  2  0
  9 10  1  0
 10 11  1  0
 11 12  1  0
 12 13  2  0
 12 14  1  0
 11  7  2  0
M  CHG  2  12   1  14  -1
M  END
>  <energy_score>  (2679) 
-25.376246

>  <alias>  (2679) 
None

>  <HIPPO Pose ID>  (2679) 
75351

>  <smiles>  (2679) 
O=C(CCO)Nc1nc[nH]c1[N+](=O)[O-]

>  <inchikey>  (2679) 
KSUBFLKDXHSDCL-UHFFFAOYSA-N

>  <distance_score>  (2679) 
1.886848

>  <ref_mols>  (2679) 
Z0719a,Z1597a

>  <ref_pdb>  (2679) 
Z0719a

>  <HIPPO Compound ID>  (2679) 
149750

>  <name>  (2679) 
P75351

>  <inspiration_score>  (2679) 
None

$$$$
P75352
     RDKit          3D

 14 14  0  0  0  0  0  0  0  0999 V2000
   -8.9686    4.2130  -18.9643 C   0  0  0  0  0  0  0  0  0  0  0  0
   -8.2832    4.5108  -17.7016 C   0  0  0  0  0  0  0  0  0  0  0  0
   -8.9659    4.2922  -16.5353 N   0  0  0  0  0  0  0  0  0  0  0  0
   -8.1169    4.5700  -15.5767 C   0  0  0  0  0  0  0  0  0  0  0  0
   -8.3885    4.4912  -14.1255 C   0  0  0  0  0  0  0  0  0  0  0  0
   -6.8960    4.9372  -16.0925 N   0  0  0  0  0  0  0  0  0  0  0  0
   -5.7419    5.1832  -15.2843 C   0  0  0  0  0  0  0  0  0  0  0  0
   -6.9954    4.9603  -17.4602 C   0  0  0  0  0  0  0  0  0  0  0  0
   -6.0404    5.3033  -18.3871 N   0  0  0  0  0  0  0  0  0  0  0  0
   -4.5294    5.6464  -18.2050 C   0  0  0  0  0  0  0  0  0  0  0  0
   -3.8899    5.7638  -17.2307 O   0  0  0  0  0  0  0  0  0  0  0  0
   -3.8963    5.7195  -19.5813 C   0  0  0  0  0  0  0  0  0  0  0  0
   -4.2864    6.9557  -20.3652 C   0  0  0  0  0  0  0  0  0  0  0  0
   -5.6170    6.8969  -20.8438 O   0  0  0  0  0  0  0  0  0  0  0  0
  1  2  1  0
  2  3  1  0
  3  4  2  0
  4  5  1  0
  4  6  1  0
  6  7  1  0
  6  8  1  0
  8  9  1  0
  9 10  1  0
 10 11  2  0
 10 12  1  0
 12 13  1  0
 13 14  1  0
  8  2  2  0
M  END
>  <energy_score>  (2680) 
-20.542368

>  <alias>  (2680) 
None

>  <HIPPO Pose ID>  (2680) 
75352

>  <smiles>  (2680) 
Cc1nc(C)n(C)c1NC(=O)CCO

>  <inchikey>  (2680) 
UTELUKMHFJPJQP-UHFFFAOYSA-N

>  <distance_score>  (2680) 
1.232346

>  <ref_mols>  (2680) 
Z0719a,Z1597a

>  <ref_pdb>  (2680) 
Z0719a

>  <HIPPO Compound ID>  (2680) 
149751

>  <name>  (2680) 
P75352

>  <inspiration_score>  (2680) 
None

$$$$
P75355
     RDKit          3D

 14 14  0  0  0  0  0  0  0  0999 V2000
   -5.2405    3.1294  -13.4102 C   0  0  0  0  0  0  0  0  0  0  0  0
   -6.6334    3.2976  -14.0131 C   0  0  0  0  0  0  0  0  0  0  0  0
   -6.7198    4.1187  -15.2103 N   0  0  0  0  0  0  0  0  0  0  0  0
   -7.8242    4.8273  -15.6118 C   0  0  0  0  0  0  0  0  0  0  0  0
   -7.5555    5.5942  -16.6513 N   0  0  0  0  0  0  0  0  0  0  0  0
   -6.2808    5.2735  -17.0043 C   0  0  0  0  0  0  0  0  0  0  0  0
   -5.6693    5.8363  -18.0736 N   0  0  0  0  0  0  0  0  0  0  0  0
   -4.2699    5.5620  -18.6982 C   0  0  0  0  0  0  0  0  0  0  0  0
   -3.3991    4.8611  -18.3370 O   0  0  0  0  0  0  0  0  0  0  0  0
   -4.0221    6.4787  -19.9476 C   0  0  0  0  0  0  0  0  0  0  0  0
   -3.3028    7.7378  -19.4973 C   0  0  0  0  0  0  0  0  0  0  0  0
   -5.2391    6.8976  -20.7621 C   0  0  0  0  0  0  0  0  0  0  0  0
   -3.0643    5.7701  -20.7856 O   0  0  0  0  0  0  0  0  0  0  0  0
   -5.7435    4.3684  -16.1319 C   0  0  0  0  0  0  0  0  0  0  0  0
  1  2  1  0
  2  3  1  0
  3  4  1  0
  4  5  2  0
  5  6  1  0
  6  7  1  0
  7  8  1  0
  8  9  2  0
  8 10  1  0
 10 11  1  0
 10 12  1  0
 10 13  1  0
  6 14  2  0
 14  3  1  0
M  END
>  <energy_score>  (2681) 
-29.016182

>  <alias>  (2681) 
None

>  <HIPPO Pose ID>  (2681) 
75355

>  <smiles>  (2681) 
CCn1cnc(NC(=O)C(C)(C)O)c1

>  <inchikey>  (2681) 
XTSZXXROVVIWMC-UHFFFAOYSA-N

>  <distance_score>  (2681) 
1.746835

>  <ref_mols>  (2681) 
Z0719a,Z1597a

>  <ref_pdb>  (2681) 
Z0719a

>  <HIPPO Compound ID>  (2681) 
149754

>  <name>  (2681) 
P75355

>  <inspiration_score>  (2681) 
None

$$$$
P75356
     RDKit          3D

 14 14  0  0  0  0  0  0  0  0999 V2000
   -4.9825    2.9190  -13.7616 C   0  0  0  0  0  0  0  0  0  0  0  0
   -6.1197    3.8951  -13.5644 C   0  0  0  0  0  0  0  0  0  0  0  0
   -7.3844    3.5729  -14.3820 C   0  0  0  0  0  0  0  0  0  0  0  0
   -7.5264    4.1182  -15.7178 N   0  0  0  0  0  0  0  0  0  0  0  0
   -8.7274    4.2611  -16.3601 C   0  0  0  0  0  0  0  0  0  0  0  0
   -8.5817    4.8031  -17.5460 N   0  0  0  0  0  0  0  0  0  0  0  0
   -7.2523    5.0351  -17.6683 C   0  0  0  0  0  0  0  0  0  0  0  0
   -6.7662    5.6524  -18.7681 N   0  0  0  0  0  0  0  0  0  0  0  0
   -5.3581    6.2403  -19.0548 C   0  0  0  0  0  0  0  0  0  0  0  0
   -4.3793    6.2126  -18.4131 O   0  0  0  0  0  0  0  0  0  0  0  0
   -5.4574    7.0164  -20.3581 C   0  0  0  0  0  0  0  0  0  0  0  0
   -4.0765    7.2138  -20.9580 C   0  0  0  0  0  0  0  0  0  0  0  0
   -3.3345    8.1793  -20.2161 O   0  0  0  0  0  0  0  0  0  0  0  0
   -6.5713    4.6221  -16.5532 C   0  0  0  0  0  0  0  0  0  0  0  0
  1  2  1  0
  2  3  1  0
  3  4  1  0
  4  5  1  0
  5  6  2  0
  6  7  1  0
  7  8  1  0
  8  9  1  0
  9 10  2  0
  9 11  1  0
 11 12  1  0
 12 13  1  0
  7 14  2  0
 14  4  1  0
M  END
>  <energy_score>  (2682) 
-24.131272

>  <alias>  (2682) 
None

>  <HIPPO Pose ID>  (2682) 
75356

>  <smiles>  (2682) 
CCCn1cnc(NC(=O)CCO)c1

>  <inchikey>  (2682) 
IVQJSEUWUPDONG-UHFFFAOYSA-N

>  <distance_score>  (2682) 
1.817523

>  <ref_mols>  (2682) 
Z0719a,Z1597a

>  <ref_pdb>  (2682) 
Z0719a

>  <HIPPO Compound ID>  (2682) 
149763

>  <name>  (2682) 
P75356

>  <inspiration_score>  (2682) 
None

$$$$
P75357
     RDKit          3D

 14 14  0  0  0  0  0  0  0  0999 V2000
   -8.7217    4.5420  -14.5119 C   0  0  0  0  0  0  0  0  0  0  0  0
   -8.2161    4.5574  -15.8586 N   0  0  0  0  0  0  0  0  0  0  0  0
   -8.9274    4.6087  -17.0121 C   0  0  0  0  0  0  0  0  0  0  0  0
   -8.1238    4.7738  -18.0393 N   0  0  0  0  0  0  0  0  0  0  0  0
   -6.8564    4.7940  -17.5330 C   0  0  0  0  0  0  0  0  0  0  0  0
   -5.8240    4.9702  -18.3978 N   0  0  0  0  0  0  0  0  0  0  0  0
   -4.2995    5.0888  -18.1357 C   0  0  0  0  0  0  0  0  0  0  0  0
   -3.7051    5.1304  -17.1309 O   0  0  0  0  0  0  0  0  0  0  0  0
   -3.5944    5.0734  -19.4749 C   0  0  0  0  0  0  0  0  0  0  0  0
   -3.6998    6.3678  -20.2527 C   0  0  0  0  0  0  0  0  0  0  0  0
   -2.8803    6.2445  -21.4240 O   0  0  0  0  0  0  0  0  0  0  0  0
   -6.8853    4.5961  -16.1756 C   0  0  0  0  0  0  0  0  0  0  0  0
   -5.8770    4.3895  -15.2106 C   0  0  0  0  0  0  0  0  0  0  0  0
   -5.1646    4.1491  -14.3278 N   0  0  0  0  0  0  0  0  0  0  0  0
  1  2  1  0
  2  3  1  0
  3  4  2  0
  4  5  1  0
  5  6  1  0
  6  7  1  0
  7  8  2  0
  7  9  1  0
  9 10  1  0
 10 11  1  0
  5 12  2  0
 12 13  1  0
 13 14  3  0
 12  2  1  0
M  END
>  <energy_score>  (2683) 
-21.211781

>  <alias>  (2683) 
None

>  <HIPPO Pose ID>  (2683) 
75357

>  <smiles>  (2683) 
Cn1cnc(NC(=O)CCO)c1C#N

>  <inchikey>  (2683) 
KLTMVJGFVACLLL-UHFFFAOYSA-N

>  <distance_score>  (2683) 
1.235154

>  <ref_mols>  (2683) 
Z0719a,Z1597a

>  <ref_pdb>  (2683) 
Z0719a

>  <HIPPO Compound ID>  (2683) 
149764

>  <name>  (2683) 
P75357

>  <inspiration_score>  (2683) 
None

$$$$
P75358
     RDKit          3D

 14 15  0  0  0  0  0  0  0  0999 V2000
   -4.6935    5.1068  -12.5924 N   0  0  0  0  0  0  0  0  0  0  0  0
   -5.7070    4.9270  -12.0516 C   0  0  0  0  0  0  0  0  0  0  0  0
   -6.9857    4.5019  -11.5640 C   0  0  0  0  0  0  0  0  0  0  0  0
   -7.2384    4.2293  -10.2387 N   0  0  0  0  0  0  0  0  0  0  0  0
   -8.2986    3.4497  -10.2624 C   0  0  0  0  0  0  0  0  0  0  0  0
   -8.7375    3.2269  -11.5425 N   0  0  0  0  0  0  0  0  0  0  0  0
   -7.9625    3.9755  -12.3828 C   0  0  0  0  0  0  0  0  0  0  0  0
   -8.0741    4.0211  -13.7422 N   0  0  0  0  0  0  0  0  0  0  0  0
   -7.4572    5.0093  -14.7735 C   0  0  0  0  0  0  0  0  0  0  0  0
   -6.8223    5.9810  -14.6085 O   0  0  0  0  0  0  0  0  0  0  0  0
   -7.7046    4.4685  -16.1884 C   0  0  0  0  0  0  0  0  0  0  0  0
   -7.2009    5.3021  -17.3956 C   0  0  0  0  0  0  0  0  0  0  0  0
   -8.4167    4.7754  -18.1730 C   0  0  0  0  0  0  0  0  0  0  0  0
   -9.1028    4.5468  -16.8151 C   0  0  0  0  0  0  0  0  0  0  0  0
  1  2  3  0
  2  3  1  0
  3  4  1  0
  4  5  2  0
  5  6  1  0
  6  7  1  0
  7  8  1  0
  8  9  1  0
  9 10  2  0
  9 11  1  0
 11 12  1  0
 12 13  1  0
 13 14  1  0
  7  3  2  0
 14 11  1  0
M  END
>  <energy_score>  (2684) 
-5.252638

>  <alias>  (2684) 
None

>  <HIPPO Pose ID>  (2684) 
75358

>  <smiles>  (2684) 
N#Cc1nc[nH]c1NC(=O)C1CCC1

>  <inchikey>  (2684) 
ZLABARLEEWEKQN-UHFFFAOYSA-N

>  <distance_score>  (2684) 
1.324067

>  <ref_mols>  (2684) 
Z0719a,Z1597a

>  <ref_pdb>  (2684) 
Z0719a

>  <HIPPO Compound ID>  (2684) 
149766

>  <name>  (2684) 
P75358

>  <inspiration_score>  (2684) 
None

$$$$
P75360
     RDKit          3D

 14 15  0  0  0  0  0  0  0  0999 V2000
   -5.4730    1.8401  -11.5795 C   0  0  0  0  0  0  0  0  0  0  0  0
   -6.1096    2.5845  -10.3993 C   0  0  0  0  0  0  0  0  0  0  0  0
   -7.0659    3.5628  -10.8884 N   0  0  0  0  0  0  0  0  0  0  0  0
   -8.4107    3.3514  -10.9976 C   0  0  0  0  0  0  0  0  0  0  0  0
   -8.8902    3.9762  -12.0539 N   0  0  0  0  0  0  0  0  0  0  0  0
   -7.8176    4.5944  -12.6109 C   0  0  0  0  0  0  0  0  0  0  0  0
   -7.8264    5.0067  -13.8977 N   0  0  0  0  0  0  0  0  0  0  0  0
   -6.6722    5.4987  -14.8039 C   0  0  0  0  0  0  0  0  0  0  0  0
   -5.5441    5.6983  -14.5561 O   0  0  0  0  0  0  0  0  0  0  0  0
   -7.2110    5.6919  -16.2461 C   0  0  0  0  0  0  0  0  0  0  0  0
   -6.2443    5.3089  -17.4033 C   0  0  0  0  0  0  0  0  0  0  0  0
   -7.4847    4.9256  -18.2230 C   0  0  0  0  0  0  0  0  0  0  0  0
   -8.1965    4.6693  -16.8860 C   0  0  0  0  0  0  0  0  0  0  0  0
   -6.7323    4.5538  -11.7784 C   0  0  0  0  0  0  0  0  0  0  0  0
  1  2  1  0
  2  3  1  0
  3  4  1  0
  4  5  2  0
  5  6  1  0
  6  7  1  0
  7  8  1  0
  8  9  2  0
  8 10  1  0
 10 11  1  0
 11 12  1  0
 12 13  1  0
  6 14  2  0
 14  3  1  0
 13 10  1  0
M  END
>  <energy_score>  (2685) 
-20.562866

>  <alias>  (2685) 
None

>  <HIPPO Pose ID>  (2685) 
75360

>  <smiles>  (2685) 
CCn1cnc(NC(=O)C2CCC2)c1

>  <inchikey>  (2685) 
AFZRGVFJLKIJDI-UHFFFAOYSA-N

>  <distance_score>  (2685) 
1.737449

>  <ref_mols>  (2685) 
Z0719a,Z1597a

>  <ref_pdb>  (2685) 
Z0719a

>  <HIPPO Compound ID>  (2685) 
149768

>  <name>  (2685) 
P75360

>  <inspiration_score>  (2685) 
None

$$$$
P75363
     RDKit          3D

 14 15  0  0  0  0  0  0  0  0999 V2000
   -5.5211    3.8252  -15.0342 C   0  0  0  0  0  0  0  0  0  0  0  0
   -6.5468    4.3561  -15.6693 C   0  0  0  0  0  0  0  0  0  0  0  0
   -6.9999    5.1673  -16.7223 C   0  0  0  0  0  0  0  0  0  0  0  0
   -7.9557    4.5534  -15.6312 C   0  0  2  0  0  0  0  0  0  0  0  0
   -8.3147    5.2370  -14.3630 C   0  0  0  0  0  0  0  0  0  0  0  0
   -8.5074    6.3873  -14.3266 O   0  0  0  0  0  0  0  0  0  0  0  0
   -8.2634    4.1944  -13.2261 N   0  0  0  0  0  0  0  0  0  0  0  0
   -8.3397    4.3536  -11.8721 C   0  0  0  0  0  0  0  0  0  0  0  0
   -8.3555    3.3326  -10.9445 C   0  0  0  0  0  0  0  0  0  0  0  0
   -8.2789    3.8112   -9.6726 N   0  0  0  0  0  0  0  0  0  0  0  0
   -8.2316    5.1180   -9.7970 C   0  0  0  0  0  0  0  0  0  0  0  0
   -8.1034    6.0620   -8.6710 C   0  0  0  0  0  0  0  0  0  0  0  0
   -8.2954    5.5026  -11.1229 N   0  0  0  0  0  0  0  0  0  0  0  0
   -8.2243    6.8636  -11.5926 C   0  0  0  0  0  0  0  0  0  0  0  0
  1  2  2  0
  2  3  1  0
  3  4  1  0
  4  5  1  1
  5  6  2  0
  5  7  1  0
  7  8  1  0
  8  9  2  0
  9 10  1  0
 10 11  2  0
 11 12  1  0
 11 13  1  0
 13 14  1  0
  4  2  1  0
 13  8  1  0
M  END
>  <energy_score>  (2686) 
-4.589993

>  <alias>  (2686) 
None

>  <HIPPO Pose ID>  (2686) 
75363

>  <smiles>  (2686) 
C=C1C[C@@H]1C(=O)Nc1cnc(C)n1C

>  <inchikey>  (2686) 
ZITDTFQLEVHOED-QMMMGPOBSA-N

>  <distance_score>  (2686) 
1.423588

>  <ref_mols>  (2686) 
Z0719a,Z1597a

>  <ref_pdb>  (2686) 
Z0719a

>  <HIPPO Compound ID>  (2686) 
149773

>  <name>  (2686) 
P75363

>  <inspiration_score>  (2686) 
None

$$$$
P75364
     RDKit          3D

 14 14  0  0  0  0  0  0  0  0999 V2000
   -5.9665    2.6028  -12.6455 C   0  0  0  0  0  0  0  0  0  0  0  0
   -5.9097    3.5039  -13.8571 C   0  0  0  0  0  0  0  0  0  0  0  0
   -7.3046    3.6857  -14.4948 C   0  0  0  0  0  0  0  0  0  0  0  0
   -7.3193    4.2819  -15.8160 N   0  0  0  0  0  0  0  0  0  0  0  0
   -8.3629    4.2925  -16.6979 C   0  0  0  0  0  0  0  0  0  0  0  0
   -7.9857    4.7575  -17.8732 N   0  0  0  0  0  0  0  0  0  0  0  0
   -6.6820    5.1004  -17.7177 C   0  0  0  0  0  0  0  0  0  0  0  0
   -5.8906    5.5409  -18.7206 N   0  0  0  0  0  0  0  0  0  0  0  0
   -4.4827    6.1997  -18.6803 C   0  0  0  0  0  0  0  0  0  0  0  0
   -3.7602    6.3915  -17.7789 O   0  0  0  0  0  0  0  0  0  0  0  0
   -4.0261    6.5215  -20.0940 C   0  0  0  0  0  0  0  0  0  0  0  0
   -4.9244    7.4029  -20.9367 C   0  0  0  0  0  0  0  0  0  0  0  0
   -5.0030    9.4123  -20.1686 I   0  0  0  0  0  0  0  0  0  0  0  0
   -6.2717    4.8944  -16.4333 C   0  0  0  0  0  0  0  0  0  0  0  0
  1  2  1  0
  2  3  1  0
  3  4  1  0
  4  5  1  0
  5  6  2  0
  6  7  1  0
  7  8  1  0
  8  9  1  0
  9 10  2  0
  9 11  1  0
 11 12  1  0
 12 13  1  0
  7 14  2  0
 14  4  1  0
M  END
>  <energy_score>  (2687) 
-18.01259

>  <alias>  (2687) 
None

>  <HIPPO Pose ID>  (2687) 
75364

>  <smiles>  (2687) 
CCCn1cnc(NC(=O)CCI)c1

>  <inchikey>  (2687) 
XGDOMCFINCHDBG-UHFFFAOYSA-N

>  <distance_score>  (2687) 
1.589427

>  <ref_mols>  (2687) 
Z0719a,Z1597a

>  <ref_pdb>  (2687) 
Z0719a

>  <HIPPO Compound ID>  (2687) 
149778

>  <name>  (2687) 
P75364

>  <inspiration_score>  (2687) 
None

$$$$
P75365
     RDKit          3D

 14 14  0  0  0  0  0  0  0  0999 V2000
   -8.6724    4.4741  -14.3956 C   0  0  0  0  0  0  0  0  0  0  0  0
   -8.2340    4.5001  -15.7665 N   0  0  0  0  0  0  0  0  0  0  0  0
   -8.9943    4.5459  -16.8889 C   0  0  0  0  0  0  0  0  0  0  0  0
   -8.2431    4.7575  -17.9471 N   0  0  0  0  0  0  0  0  0  0  0  0
   -6.9580    4.8107  -17.4922 C   0  0  0  0  0  0  0  0  0  0  0  0
   -5.9692    5.0869  -18.3786 N   0  0  0  0  0  0  0  0  0  0  0  0
   -4.4686    5.3996  -18.1474 C   0  0  0  0  0  0  0  0  0  0  0  0
   -3.8695    5.5432  -17.1551 O   0  0  0  0  0  0  0  0  0  0  0  0
   -3.8009    5.5646  -19.5002 C   0  0  0  0  0  0  0  0  0  0  0  0
   -4.2509    6.8408  -20.2011 C   0  0  0  0  0  0  0  0  0  0  0  0
   -2.8535    7.4204  -21.7184 I   0  0  0  0  0  0  0  0  0  0  0  0
   -6.9208    4.5786  -16.1412 C   0  0  0  0  0  0  0  0  0  0  0  0
   -5.8632    4.3951  -15.2262 C   0  0  0  0  0  0  0  0  0  0  0  0
   -5.0945    4.1749  -14.3869 N   0  0  0  0  0  0  0  0  0  0  0  0
  1  2  1  0
  2  3  1  0
  3  4  2  0
  4  5  1  0
  5  6  1  0
  6  7  1  0
  7  8  2  0
  7  9  1  0
  9 10  1  0
 10 11  1  0
  5 12  2  0
 12 13  1  0
 13 14  3  0
 12  2  1  0
M  END
>  <energy_score>  (2688) 
-2.298853

>  <alias>  (2688) 
None

>  <HIPPO Pose ID>  (2688) 
75365

>  <smiles>  (2688) 
Cn1cnc(NC(=O)CCI)c1C#N

>  <inchikey>  (2688) 
MOWMVXXVPOTHBD-UHFFFAOYSA-N

>  <distance_score>  (2688) 
1.216906

>  <ref_mols>  (2688) 
Z0719a,Z1597a

>  <ref_pdb>  (2688) 
Z0719a

>  <HIPPO Compound ID>  (2688) 
149779

>  <name>  (2688) 
P75365

>  <inspiration_score>  (2688) 
None

$$$$
P75366
     RDKit          3D

 14 14  0  0  0  0  0  0  0  0999 V2000
   -3.6297    4.6987  -16.4104 O   0  0  0  0  0  0  0  0  0  0  0  0
   -4.2822    4.8586  -17.3641 C   0  0  0  0  0  0  0  0  0  0  0  0
   -3.6657    5.1245  -18.7438 C   0  0  0  0  0  0  0  0  0  0  0  0
   -4.0708    6.4501  -19.3879 C   0  0  0  0  0  0  0  0  0  0  0  0
   -2.6537    7.0266  -20.8932 I   0  0  0  0  0  0  0  0  0  0  0  0
   -5.8128    4.7563  -17.5601 N   0  0  0  0  0  0  0  0  0  0  0  0
   -6.8082    4.5416  -16.6560 C   0  0  0  0  0  0  0  0  0  0  0  0
   -8.0295    4.8884  -17.1895 N   0  0  0  0  0  0  0  0  0  0  0  0
   -8.9386    4.4525  -16.3587 C   0  0  0  0  0  0  0  0  0  0  0  0
   -8.3619    3.9103  -15.2574 N   0  0  0  0  0  0  0  0  0  0  0  0
   -6.9918    3.9802  -15.4098 C   0  0  0  0  0  0  0  0  0  0  0  0
   -6.2058    3.3324  -14.4060 N   0  0  0  0  0  0  0  0  0  0  0  0
   -6.8110    2.5227  -13.6831 O   0  0  0  0  0  0  0  0  0  0  0  0
   -5.0115    3.6099  -14.2965 O   0  0  0  0  0  0  0  0  0  0  0  0
  1  2  2  0
  2  3  1  0
  3  4  1  0
  4  5  1  0
  2  6  1  0
  6  7  1  0
  7  8  1  0
  8  9  2  0
  9 10  1  0
 10 11  1  0
 11 12  1  0
 12 13  2  0
 12 14  1  0
 11  7  2  0
M  CHG  2  12   1  14  -1
M  END
>  <energy_score>  (2689) 
-15.016477

>  <alias>  (2689) 
None

>  <HIPPO Pose ID>  (2689) 
75366

>  <smiles>  (2689) 
O=C(CCI)Nc1nc[nH]c1[N+](=O)[O-]

>  <inchikey>  (2689) 
PJLKOQCGLBBGAN-UHFFFAOYSA-N

>  <distance_score>  (2689) 
1.836624

>  <ref_mols>  (2689) 
Z0719a,Z1597a

>  <ref_pdb>  (2689) 
Z0719a

>  <HIPPO Compound ID>  (2689) 
149780

>  <name>  (2689) 
P75366

>  <inspiration_score>  (2689) 
None

$$$$
P75367
     RDKit          3D

 14 14  0  0  0  0  0  0  0  0999 V2000
   -9.8497    4.4531  -18.5645 C   0  0  0  0  0  0  0  0  0  0  0  0
   -8.7811    4.5480  -17.5665 C   0  0  0  0  0  0  0  0  0  0  0  0
   -8.9518    3.9371  -16.3553 N   0  0  0  0  0  0  0  0  0  0  0  0
   -7.8843    4.2409  -15.6538 C   0  0  0  0  0  0  0  0  0  0  0  0
   -7.5842    3.7832  -14.2742 C   0  0  0  0  0  0  0  0  0  0  0  0
   -7.0627    5.0851  -16.3662 N   0  0  0  0  0  0  0  0  0  0  0  0
   -5.9930    5.8285  -15.7732 C   0  0  0  0  0  0  0  0  0  0  0  0
   -7.5653    5.1998  -17.6364 C   0  0  0  0  0  0  0  0  0  0  0  0
   -7.0197    5.8416  -18.7181 N   0  0  0  0  0  0  0  0  0  0  0  0
   -5.6082    6.4785  -18.9121 C   0  0  0  0  0  0  0  0  0  0  0  0
   -4.7286    6.6187  -18.1526 O   0  0  0  0  0  0  0  0  0  0  0  0
   -5.5738    7.0311  -20.3308 C   0  0  0  0  0  0  0  0  0  0  0  0
   -4.1543    7.1896  -20.8595 C   0  0  0  0  0  0  0  0  0  0  0  0
   -3.3183    9.1013  -20.3374 I   0  0  0  0  0  0  0  0  0  0  0  0
  1  2  1  0
  2  3  1  0
  3  4  2  0
  4  5  1  0
  4  6  1  0
  6  7  1  0
  6  8  1  0
  8  9  1  0
  9 10  1  0
 10 11  2  0
 10 12  1  0
 12 13  1  0
 13 14  1  0
  8  2  2  0
M  END
>  <energy_score>  (2690) 
-18.168585

>  <alias>  (2690) 
None

>  <HIPPO Pose ID>  (2690) 
75367

>  <smiles>  (2690) 
Cc1nc(C)n(C)c1NC(=O)CCI

>  <inchikey>  (2690) 
NDKOZAWWIIYCAY-UHFFFAOYSA-N

>  <distance_score>  (2690) 
1.545206

>  <ref_mols>  (2690) 
Z0719a,Z1597a

>  <ref_pdb>  (2690) 
Z0719a

>  <HIPPO Compound ID>  (2690) 
149781

>  <name>  (2690) 
P75367

>  <inspiration_score>  (2690) 
None

$$$$
P75368
     RDKit          3D

 14 14  0  0  0  0  0  0  0  0999 V2000
   -4.5920    7.1190  -20.8237 C   0  0  0  0  0  0  0  0  0  0  0  0
   -4.0453    5.9751  -20.0250 C   0  0  0  0  0  0  0  0  0  0  0  0
   -3.1245    5.2604  -20.4135 O   0  0  0  0  0  0  0  0  0  0  0  0
   -4.6530    5.8022  -18.6310 C   0  0  0  0  0  0  0  0  0  0  0  0
   -4.0314    6.1605  -17.7098 O   0  0  0  0  0  0  0  0  0  0  0  0
   -6.0876    5.2225  -18.7105 N   0  0  0  0  0  0  0  0  0  0  0  0
   -6.9753    4.8915  -17.7105 C   0  0  0  0  0  0  0  0  0  0  0  0
   -8.2872    4.4729  -17.8446 C   0  0  0  0  0  0  0  0  0  0  0  0
   -9.0759    4.1845  -19.0416 C   0  0  0  0  0  0  0  0  0  0  0  0
   -8.8934    4.2971  -16.6313 N   0  0  0  0  0  0  0  0  0  0  0  0
   -7.9682    4.5457  -15.7393 C   0  0  0  0  0  0  0  0  0  0  0  0
   -8.1429    4.4615  -14.2709 C   0  0  0  0  0  0  0  0  0  0  0  0
   -6.7742    4.8621  -16.3505 N   0  0  0  0  0  0  0  0  0  0  0  0
   -5.5406    4.9849  -15.6355 C   0  0  0  0  0  0  0  0  0  0  0  0
  1  2  1  0
  2  3  2  0
  2  4  1  0
  4  5  2  0
  4  6  1  0
  6  7  1  0
  7  8  2  0
  8  9  1  0
  8 10  1  0
 10 11  2  0
 11 12  1  0
 11 13  1  0
 13 14  1  0
 13  7  1  0
M  END
>  <energy_score>  (2691) 
-12.955238

>  <alias>  (2691) 
None

>  <HIPPO Pose ID>  (2691) 
75368

>  <smiles>  (2691) 
CC(=O)C(=O)Nc1c(C)nc(C)n1C

>  <inchikey>  (2691) 
XTUHVHQAFVHAPC-UHFFFAOYSA-N

>  <distance_score>  (2691) 
1.342001

>  <ref_mols>  (2691) 
Z0719a,Z1597a

>  <ref_pdb>  (2691) 
Z0719a

>  <HIPPO Compound ID>  (2691) 
149785

>  <name>  (2691) 
P75368

>  <inspiration_score>  (2691) 
None

$$$$
P75370
     RDKit          3D

 14 14  0  0  0  0  0  0  0  0999 V2000
   -4.4050    6.9540  -20.5234 C   0  0  0  0  0  0  0  0  0  0  0  0
   -3.8992    5.6789  -19.9110 C   0  0  0  0  0  0  0  0  0  0  0  0
   -3.0021    5.0118  -20.4213 O   0  0  0  0  0  0  0  0  0  0  0  0
   -4.5183    5.2918  -18.5588 C   0  0  0  0  0  0  0  0  0  0  0  0
   -3.8218    5.2278  -17.6271 O   0  0  0  0  0  0  0  0  0  0  0  0
   -6.0485    5.1454  -18.6745 N   0  0  0  0  0  0  0  0  0  0  0  0
   -6.9780    4.8149  -17.7379 C   0  0  0  0  0  0  0  0  0  0  0  0
   -8.2788    4.7504  -18.1511 N   0  0  0  0  0  0  0  0  0  0  0  0
   -9.0005    4.5326  -17.0754 C   0  0  0  0  0  0  0  0  0  0  0  0
   -8.2073    4.4792  -15.9777 N   0  0  0  0  0  0  0  0  0  0  0  0
   -8.6218    4.4469  -14.5987 C   0  0  0  0  0  0  0  0  0  0  0  0
   -6.9019    4.5774  -16.3868 C   0  0  0  0  0  0  0  0  0  0  0  0
   -5.8310    4.4381  -15.4784 C   0  0  0  0  0  0  0  0  0  0  0  0
   -5.0671    4.2651  -14.6234 N   0  0  0  0  0  0  0  0  0  0  0  0
  1  2  1  0
  2  3  2  0
  2  4  1  0
  4  5  2  0
  4  6  1  0
  6  7  1  0
  7  8  1  0
  8  9  2  0
  9 10  1  0
 10 11  1  0
 10 12  1  0
 12 13  1  0
 13 14  3  0
 12  7  2  0
M  END
>  <energy_score>  (2692) 
-10.613601

>  <alias>  (2692) 
None

>  <HIPPO Pose ID>  (2692) 
75370

>  <smiles>  (2692) 
CC(=O)C(=O)Nc1ncn(C)c1C#N

>  <inchikey>  (2692) 
STBVEJXTDHGDGK-UHFFFAOYSA-N

>  <distance_score>  (2692) 
1.652111

>  <ref_mols>  (2692) 
Z0719a,Z1597a

>  <ref_pdb>  (2692) 
Z0719a

>  <HIPPO Compound ID>  (2692) 
149792

>  <name>  (2692) 
P75370

>  <inspiration_score>  (2692) 
None

$$$$
P75371
     RDKit          3D

 14 14  0  0  0  0  0  0  0  0999 V2000
   -4.0783    6.3907  -19.5615 C   0  0  0  0  0  0  0  0  0  0  0  0
   -3.7973    4.9904  -19.0325 C   0  0  1  0  0  0  0  0  0  0  0  0
   -2.3859    4.7612  -19.1208 O   0  0  0  0  0  0  0  0  0  0  0  0
   -4.3174    4.7079  -17.5869 C   0  0  0  0  0  0  0  0  0  0  0  0
   -3.6016    4.4529  -16.6991 O   0  0  0  0  0  0  0  0  0  0  0  0
   -5.8643    4.7386  -17.6523 N   0  0  0  0  0  0  0  0  0  0  0  0
   -6.7944    4.5650  -16.6740 C   0  0  0  0  0  0  0  0  0  0  0  0
   -8.0281    4.9652  -17.1312 N   0  0  0  0  0  0  0  0  0  0  0  0
   -8.9064    4.5254  -16.2709 C   0  0  0  0  0  0  0  0  0  0  0  0
   -8.2926    3.9449  -15.2113 N   0  0  0  0  0  0  0  0  0  0  0  0
   -6.9290    4.0035  -15.4215 C   0  0  0  0  0  0  0  0  0  0  0  0
   -6.1108    3.3560  -14.4470 N   0  0  0  0  0  0  0  0  0  0  0  0
   -6.6833    2.5197  -13.7270 O   0  0  0  0  0  0  0  0  0  0  0  0
   -4.9245    3.6719  -14.3497 O   0  0  0  0  0  0  0  0  0  0  0  0
  2  1  1  1
  2  3  1  0
  2  4  1  0
  4  5  2  0
  4  6  1  0
  6  7  1  0
  7  8  1  0
  8  9  2  0
  9 10  1  0
 10 11  1  0
 11 12  1  0
 12 13  2  0
 12 14  1  0
 11  7  2  0
M  CHG  2  12   1  14  -1
M  END
>  <energy_score>  (2693) 
-8.501924

>  <alias>  (2693) 
None

>  <HIPPO Pose ID>  (2693) 
75371

>  <smiles>  (2693) 
C[C@@H](O)C(=O)Nc1nc[nH]c1[N+](=O)[O-]

>  <inchikey>  (2693) 
XYULPHRMWGSVKU-GSVOUGTGSA-N

>  <distance_score>  (2693) 
1.874874

>  <ref_mols>  (2693) 
Z0719a,Z1597a

>  <ref_pdb>  (2693) 
Z0719a

>  <HIPPO Compound ID>  (2693) 
149796

>  <name>  (2693) 
P75371

>  <inspiration_score>  (2693) 
None

$$$$
P75373
     RDKit          3D

 14 14  0  0  0  0  0  0  0  0999 V2000
   -9.0162    4.1296  -18.9556 C   0  0  0  0  0  0  0  0  0  0  0  0
   -8.3019    4.4672  -17.7205 C   0  0  0  0  0  0  0  0  0  0  0  0
   -8.8698    4.1170  -16.5224 N   0  0  0  0  0  0  0  0  0  0  0  0
   -7.9954    4.4627  -15.6060 C   0  0  0  0  0  0  0  0  0  0  0  0
   -8.0714    4.1371  -14.1626 C   0  0  0  0  0  0  0  0  0  0  0  0
   -6.9584    5.1618  -16.1765 N   0  0  0  0  0  0  0  0  0  0  0  0
   -6.0485    5.9761  -15.4320 C   0  0  0  0  0  0  0  0  0  0  0  0
   -7.0493    5.0226  -17.5358 C   0  0  0  0  0  0  0  0  0  0  0  0
   -6.1020    5.3131  -18.4832 N   0  0  0  0  0  0  0  0  0  0  0  0
   -4.6213    5.7873  -18.3252 C   0  0  0  0  0  0  0  0  0  0  0  0
   -4.0138    6.0749  -17.3637 O   0  0  0  0  0  0  0  0  0  0  0  0
   -3.9593    5.7590  -19.7157 C   0  0  1  0  0  0  0  0  0  0  0  0
   -4.4336    6.9061  -20.5895 C   0  0  0  0  0  0  0  0  0  0  0  0
   -2.5324    5.8323  -19.6335 O   0  0  0  0  0  0  0  0  0  0  0  0
  1  2  1  0
  2  3  1  0
  3  4  2  0
  4  5  1  0
  4  6  1  0
  6  7  1  0
  6  8  1  0
  8  9  1  0
  9 10  1  0
 10 11  2  0
 10 12  1  0
 12 13  1  6
 12 14  1  0
  8  2  2  0
M  END
>  <energy_score>  (2694) 
-20.258526

>  <alias>  (2694) 
None

>  <HIPPO Pose ID>  (2694) 
75373

>  <smiles>  (2694) 
Cc1nc(C)n(C)c1NC(=O)[C@@H](C)O

>  <inchikey>  (2694) 
OVLPMJWPPKIWAJ-ZCFIWIBFSA-N

>  <distance_score>  (2694) 
1.42254

>  <ref_mols>  (2694) 
Z0719a,Z1597a

>  <ref_pdb>  (2694) 
Z0719a

>  <HIPPO Compound ID>  (2694) 
149797

>  <name>  (2694) 
P75373

>  <inspiration_score>  (2694) 
None

$$$$
P75374
     RDKit          3D

 14 15  0  0  0  0  0  0  0  0999 V2000
   -4.4753    7.3240  -20.9691 C   0  0  0  0  0  0  0  0  0  0  0  0
   -3.8481    6.4463  -19.9007 C   0  0  2  0  0  0  0  0  0  0  0  0
   -3.4143    5.2132  -20.4670 O   0  0  0  0  0  0  0  0  0  0  0  0
   -4.7500    6.2657  -18.6506 C   0  0  0  0  0  0  0  0  0  0  0  0
   -4.3954    6.6431  -17.5983 O   0  0  0  0  0  0  0  0  0  0  0  0
   -6.0529    5.5070  -19.0688 N   0  0  0  0  0  0  0  0  0  0  0  0
   -7.0724    5.0078  -18.3067 C   0  0  0  0  0  0  0  0  0  0  0  0
   -8.2230    4.3188  -18.6711 C   0  0  0  0  0  0  0  0  0  0  0  0
   -8.9690    3.9197  -17.5732 N   0  0  0  0  0  0  0  0  0  0  0  0
   -8.2869    4.3863  -16.5631 C   0  0  0  0  0  0  0  0  0  0  0  0
   -7.1771    5.0629  -16.9644 N   0  0  0  0  0  0  0  0  0  0  0  0
   -6.4282    5.6186  -15.8612 C   0  0  0  0  0  0  0  0  0  0  0  0
   -7.4124    5.4810  -14.6971 C   0  0  0  0  0  0  0  0  0  0  0  0
   -8.3892    4.3599  -15.0970 C   0  0  0  0  0  0  0  0  0  0  0  0
  2  1  1  6
  2  3  1  0
  2  4  1  0
  4  5  2  0
  4  6  1  0
  6  7  1  0
  7  8  2  0
  8  9  1  0
  9 10  2  0
 10 11  1  0
 11 12  1  0
 12 13  1  0
 13 14  1  0
 11  7  1  0
 14 10  1  0
M  END
>  <energy_score>  (2695) 
-0.946546

>  <alias>  (2695) 
None

>  <HIPPO Pose ID>  (2695) 
75374

>  <smiles>  (2695) 
C[C@H](O)C(=O)Nc1cnc2n1CCC2

>  <inchikey>  (2695) 
MECMVEYZVQMZQG-LURJTMIESA-N

>  <distance_score>  (2695) 
1.258595

>  <ref_mols>  (2695) 
Z0719a,Z1597a

>  <ref_pdb>  (2695) 
Z0719a

>  <HIPPO Compound ID>  (2695) 
149798

>  <name>  (2695) 
P75374

>  <inspiration_score>  (2695) 
None

$$$$
P75383
     RDKit          3D

 14 14  0  0  0  0  0  0  0  0999 V2000
   -7.0984    2.5218  -13.1676 C   0  0  0  0  0  0  0  0  0  0  0  0
   -6.0377    3.2928  -13.9418 C   0  0  0  0  0  0  0  0  0  0  0  0
   -5.2157    4.1555  -12.9909 C   0  0  0  0  0  0  0  0  0  0  0  0
   -6.5448    4.0405  -15.0920 N   0  0  0  0  0  0  0  0  0  0  0  0
   -7.8360    4.3878  -15.3950 C   0  0  0  0  0  0  0  0  0  0  0  0
   -7.9119    5.0447  -16.5362 N   0  0  0  0  0  0  0  0  0  0  0  0
   -6.6383    5.0848  -17.0053 C   0  0  0  0  0  0  0  0  0  0  0  0
   -6.3303    5.6674  -18.1864 N   0  0  0  0  0  0  0  0  0  0  0  0
   -4.9577    5.8234  -18.9111 C   0  0  0  0  0  0  0  0  0  0  0  0
   -3.8761    5.5393  -18.5588 O   0  0  0  0  0  0  0  0  0  0  0  0
   -5.2044    6.5176  -20.2285 C   0  0  0  0  0  0  0  0  0  0  0  0
   -5.3134    7.9542  -20.0522 C   0  0  0  0  0  0  0  0  0  0  0  0
   -5.4697    9.0986  -19.9221 N   0  0  0  0  0  0  0  0  0  0  0  0
   -5.7718    4.4898  -16.1330 C   0  0  0  0  0  0  0  0  0  0  0  0
  1  2  1  0
  2  3  1  0
  2  4  1  0
  4  5  1  0
  5  6  2  0
  6  7  1  0
  7  8  1  0
  8  9  1  0
  9 10  2  0
  9 11  1  0
 11 12  1  0
 12 13  3  0
  7 14  2  0
 14  4  1  0
M  END
>  <energy_score>  (2696) 
-29.813671

>  <alias>  (2696) 
None

>  <HIPPO Pose ID>  (2696) 
75383

>  <smiles>  (2696) 
CC(C)n1cnc(NC(=O)CC#N)c1

>  <inchikey>  (2696) 
VZTYOYKAKJQKBX-UHFFFAOYSA-N

>  <distance_score>  (2696) 
1.955574

>  <ref_mols>  (2696) 
Z0719a,Z1597a

>  <ref_pdb>  (2696) 
Z0719a

>  <HIPPO Compound ID>  (2696) 
149820

>  <name>  (2696) 
P75383

>  <inspiration_score>  (2696) 
None

$$$$
P75384
     RDKit          3D

 14 14  0  0  0  0  0  0  0  0999 V2000
   -5.6865    2.6858  -12.9454 C   0  0  0  0  0  0  0  0  0  0  0  0
   -5.7588    3.6578  -14.1050 C   0  0  0  0  0  0  0  0  0  0  0  0
   -7.2144    3.8653  -14.5675 C   0  0  0  0  0  0  0  0  0  0  0  0
   -7.4216    4.3570  -15.9127 N   0  0  0  0  0  0  0  0  0  0  0  0
   -8.6097    4.3418  -16.5886 C   0  0  0  0  0  0  0  0  0  0  0  0
   -8.4753    4.8379  -17.7996 N   0  0  0  0  0  0  0  0  0  0  0  0
   -7.1742    5.2057  -17.8894 C   0  0  0  0  0  0  0  0  0  0  0  0
   -6.6533    5.7860  -18.9906 N   0  0  0  0  0  0  0  0  0  0  0  0
   -5.2321    6.3631  -19.2520 C   0  0  0  0  0  0  0  0  0  0  0  0
   -4.2736    6.3536  -18.5788 O   0  0  0  0  0  0  0  0  0  0  0  0
   -5.2384    7.0606  -20.6018 C   0  0  0  0  0  0  0  0  0  0  0  0
   -3.9266    6.8771  -21.2348 C   0  0  0  0  0  0  0  0  0  0  0  0
   -2.8995    6.6801  -21.7457 N   0  0  0  0  0  0  0  0  0  0  0  0
   -6.5019    4.9375  -16.7304 C   0  0  0  0  0  0  0  0  0  0  0  0
  1  2  1  0
  2  3  1  0
  3  4  1  0
  4  5  1  0
  5  6  2  0
  6  7  1  0
  7  8  1  0
  8  9  1  0
  9 10  2  0
  9 11  1  0
 11 12  1  0
 12 13  3  0
  7 14  2  0
 14  4  1  0
M  END
>  <energy_score>  (2697) 
-21.238052

>  <alias>  (2697) 
None

>  <HIPPO Pose ID>  (2697) 
75384

>  <smiles>  (2697) 
CCCn1cnc(NC(=O)CC#N)c1

>  <inchikey>  (2697) 
IFWVKBUGHCSFJB-UHFFFAOYSA-N

>  <distance_score>  (2697) 
1.673822

>  <ref_mols>  (2697) 
Z0719a,Z1597a

>  <ref_pdb>  (2697) 
Z0719a

>  <HIPPO Compound ID>  (2697) 
149821

>  <name>  (2697) 
P75384

>  <inspiration_score>  (2697) 
None

$$$$
P75386
     RDKit          3D

 14 14  0  0  0  0  0  0  0  0999 V2000
   -3.8737    7.9376  -19.3526 C   0  0  0  0  0  0  0  0  0  0  0  0
   -4.1638    6.6996  -20.1936 C   0  0  0  0  0  0  0  0  0  0  0  0
   -3.8387    5.3935  -19.4631 C   0  0  1  0  0  0  0  0  0  0  0  0
   -2.4357    5.3503  -19.1908 O   0  0  0  0  0  0  0  0  0  0  0  0
   -4.6836    5.1388  -18.1898 C   0  0  0  0  0  0  0  0  0  0  0  0
   -4.1840    5.0176  -17.1392 O   0  0  0  0  0  0  0  0  0  0  0  0
   -6.1692    4.9887  -18.6221 N   0  0  0  0  0  0  0  0  0  0  0  0
   -7.2916    4.7654  -17.8761 C   0  0  0  0  0  0  0  0  0  0  0  0
   -8.5212    4.7989  -18.4851 N   0  0  0  0  0  0  0  0  0  0  0  0
   -9.4693    4.4939  -17.5534 C   0  0  0  0  0  0  0  0  0  0  0  0
   -8.9308    4.2777  -16.3804 N   0  0  0  0  0  0  0  0  0  0  0  0
   -7.5735    4.4650  -16.5540 C   0  0  0  0  0  0  0  0  0  0  0  0
   -6.6976    4.2864  -15.4347 C   0  0  0  0  0  0  0  0  0  0  0  0
   -5.9930    4.1363  -14.5218 N   0  0  0  0  0  0  0  0  0  0  0  0
  1  2  1  0
  2  3  1  0
  3  4  1  1
  3  5  1  0
  5  6  2  0
  5  7  1  0
  7  8  1  0
  8  9  1  0
  9 10  1  0
 10 11  2  0
 11 12  1  0
 12 13  1  0
 13 14  3  0
 12  8  2  0
M  END
>  <energy_score>  (2698) 
-17.442099

>  <alias>  (2698) 
None

>  <HIPPO Pose ID>  (2698) 
75386

>  <smiles>  (2698) 
CC[C@@H](O)C(=O)Nc1[nH]cnc1C#N

>  <inchikey>  (2698) 
AAOZUEVGMXABJX-ZCFIWIBFSA-N

>  <distance_score>  (2698) 
1.902773

>  <ref_mols>  (2698) 
Z0719a,Z1597a

>  <ref_pdb>  (2698) 
Z0719a

>  <HIPPO Compound ID>  (2698) 
149824

>  <name>  (2698) 
P75386

>  <inspiration_score>  (2698) 
None

$$$$
P75392
     RDKit          3D

 14 14  0  0  0  0  0  0  0  0999 V2000
   -2.7712    7.7845  -20.4784 C   0  0  0  0  0  0  0  0  0  0  0  0
   -4.1233    7.1238  -20.7144 C   0  0  0  0  0  0  0  0  0  0  0  0
   -5.0822    7.3225  -19.5375 C   0  0  1  0  0  0  0  0  0  0  0  0
   -6.4126    7.4981  -20.0119 O   0  0  0  0  0  0  0  0  0  0  0  0
   -4.9342    6.1970  -18.4785 C   0  0  0  0  0  0  0  0  0  0  0  0
   -3.9120    5.7124  -18.1803 O   0  0  0  0  0  0  0  0  0  0  0  0
   -6.3584    5.9833  -17.8945 N   0  0  0  0  0  0  0  0  0  0  0  0
   -6.7719    5.2526  -16.8361 C   0  0  0  0  0  0  0  0  0  0  0  0
   -6.0212    4.4306  -16.0410 C   0  0  0  0  0  0  0  0  0  0  0  0
   -6.8765    3.9880  -15.0717 N   0  0  0  0  0  0  0  0  0  0  0  0
   -6.5869    3.1596  -13.9134 C   0  0  0  0  0  0  0  0  0  0  0  0
   -5.1349    3.1239  -13.4469 C   0  0  0  0  0  0  0  0  0  0  0  0
   -8.1114    4.5032  -15.3734 C   0  0  0  0  0  0  0  0  0  0  0  0
   -8.0598    5.3099  -16.4108 N   0  0  0  0  0  0  0  0  0  0  0  0
  1  2  1  0
  2  3  1  0
  3  4  1  6
  3  5  1  0
  5  6  2  0
  5  7  1  0
  7  8  1  0
  8  9  2  0
  9 10  1  0
 10 11  1  0
 11 12  1  0
 10 13  1  0
 13 14  2  0
 14  8  1  0
M  END
>  <energy_score>  (2699) 
-34.446073

>  <alias>  (2699) 
None

>  <HIPPO Pose ID>  (2699) 
75392

>  <smiles>  (2699) 
CC[C@@H](O)C(=O)Nc1cn(CC)cn1

>  <inchikey>  (2699) 
CCHFKDULVJVNQH-SSDOTTSWSA-N

>  <distance_score>  (2699) 
1.732525

>  <ref_mols>  (2699) 
Z0719a,Z1597a

>  <ref_pdb>  (2699) 
Z0719a

>  <HIPPO Compound ID>  (2699) 
149827

>  <name>  (2699) 
P75392

>  <inspiration_score>  (2699) 
None

$$$$
P75393
     RDKit          3D

 14 14  0  0  0  0  0  0  0  0999 V2000
   -4.3502    6.5362  -19.9874 C   0  0  0  0  0  0  0  0  0  0  0  0
   -3.9740    5.1973  -19.3722 C   0  0  1  0  0  0  0  0  0  0  0  0
   -2.5510    5.0637  -19.4372 O   0  0  0  0  0  0  0  0  0  0  0  0
   -4.5063    5.0217  -17.9277 C   0  0  0  0  0  0  0  0  0  0  0  0
   -3.7873    4.9671  -17.0065 O   0  0  0  0  0  0  0  0  0  0  0  0
   -6.0495    4.8429  -18.0141 N   0  0  0  0  0  0  0  0  0  0  0  0
   -6.9820    4.6646  -17.0241 C   0  0  0  0  0  0  0  0  0  0  0  0
   -6.9511    4.4673  -15.6555 C   0  0  0  0  0  0  0  0  0  0  0  0
   -5.8487    4.2959  -14.7781 C   0  0  0  0  0  0  0  0  0  0  0  0
   -4.9688    4.1071  -14.0451 N   0  0  0  0  0  0  0  0  0  0  0  0
   -8.2163    4.3426  -15.1307 N   0  0  0  0  0  0  0  0  0  0  0  0
   -9.0103    4.3639  -16.1615 C   0  0  0  0  0  0  0  0  0  0  0  0
   -8.3193    4.5799  -17.3065 N   0  0  0  0  0  0  0  0  0  0  0  0
   -8.9500    4.6962  -18.5793 C   0  0  0  0  0  0  0  0  0  0  0  0
  2  1  1  1
  2  3  1  0
  2  4  1  0
  4  5  2  0
  4  6  1  0
  6  7  1  0
  7  8  2  0
  8  9  1  0
  9 10  3  0
  8 11  1  0
 11 12  2  0
 12 13  1  0
 13 14  1  0
 13  7  1  0
M  END
>  <energy_score>  (2700) 
-14.153378

>  <alias>  (2700) 
None

>  <HIPPO Pose ID>  (2700) 
75393

>  <smiles>  (2700) 
C[C@@H](O)C(=O)Nc1c(C#N)ncn1C

>  <inchikey>  (2700) 
LHDOLEJQQCINRB-RXMQYKEDSA-N

>  <distance_score>  (2700) 
1.96125

>  <ref_mols>  (2700) 
Z0719a,Z1597a

>  <ref_pdb>  (2700) 
Z0719a

>  <HIPPO Compound ID>  (2700) 
149828

>  <name>  (2700) 
P75393

>  <inspiration_score>  (2700) 
None

$$$$
P75394
     RDKit          3D

 14 14  0  0  0  0  0  0  0  0999 V2000
   -5.9645    2.6453  -12.5169 C   0  0  0  0  0  0  0  0  0  0  0  0
   -5.7719    3.4555  -13.7785 C   0  0  0  0  0  0  0  0  0  0  0  0
   -7.1213    3.7174  -14.4752 C   0  0  0  0  0  0  0  0  0  0  0  0
   -7.0564    4.3250  -15.7925 N   0  0  0  0  0  0  0  0  0  0  0  0
   -8.1029    4.8883  -16.4680 C   0  0  0  0  0  0  0  0  0  0  0  0
   -7.6828    5.5409  -17.5357 N   0  0  0  0  0  0  0  0  0  0  0  0
   -6.3472    5.3029  -17.6006 C   0  0  0  0  0  0  0  0  0  0  0  0
   -5.5463    5.8348  -18.5546 N   0  0  0  0  0  0  0  0  0  0  0  0
   -4.0413    5.5934  -18.8589 C   0  0  0  0  0  0  0  0  0  0  0  0
   -3.2414    4.9550  -18.2834 O   0  0  0  0  0  0  0  0  0  0  0  0
   -3.5437    6.4340  -20.0712 C   0  0  2  0  0  0  0  0  0  0  0  0
   -4.5132    7.1796  -20.9616 C   0  0  0  0  0  0  0  0  0  0  0  0
   -2.6730    5.5962  -20.8674 O   0  0  0  0  0  0  0  0  0  0  0  0
   -5.9397    4.5402  -16.5449 C   0  0  0  0  0  0  0  0  0  0  0  0
  1  2  1  0
  2  3  1  0
  3  4  1  0
  4  5  1  0
  5  6  2  0
  6  7  1  0
  7  8  1  0
  8  9  1  0
  9 10  2  0
  9 11  1  0
 11 12  1  6
 11 13  1  0
  7 14  2  0
 14  4  1  0
M  END
>  <energy_score>  (2701) 
-10.624946

>  <alias>  (2701) 
None

>  <HIPPO Pose ID>  (2701) 
75394

>  <smiles>  (2701) 
CCCn1cnc(NC(=O)[C@H](C)O)c1

>  <inchikey>  (2701) 
GOGFIALEJNOGQS-ZETCQYMHSA-N

>  <distance_score>  (2701) 
1.975007

>  <ref_mols>  (2701) 
Z0719a,Z1597a

>  <ref_pdb>  (2701) 
Z0719a

>  <HIPPO Compound ID>  (2701) 
149829

>  <name>  (2701) 
P75394

>  <inspiration_score>  (2701) 
None

$$$$
P75397
     RDKit          3D

 14 14  0  0  0  0  0  0  0  0999 V2000
   -3.6265    4.4456  -16.5348 O   0  0  0  0  0  0  0  0  0  0  0  0
   -4.3025    4.7084  -17.4483 C   0  0  0  0  0  0  0  0  0  0  0  0
   -3.7427    4.8946  -18.8600 C   0  0  0  0  0  0  0  0  0  0  0  0
   -3.8752    6.2998  -19.4227 C   0  0  0  0  0  0  0  0  0  0  0  0
   -2.7934    6.4954  -20.8303 Cl  0  0  0  0  0  0  0  0  0  0  0  0
   -5.8404    4.8355  -17.5538 N   0  0  0  0  0  0  0  0  0  0  0  0
   -6.8134    4.5875  -16.6349 C   0  0  0  0  0  0  0  0  0  0  0  0
   -8.0424    4.9506  -17.1380 N   0  0  0  0  0  0  0  0  0  0  0  0
   -8.9386    4.4798  -16.3129 C   0  0  0  0  0  0  0  0  0  0  0  0
   -8.3465    3.9044  -15.2376 N   0  0  0  0  0  0  0  0  0  0  0  0
   -6.9793    3.9909  -15.4030 C   0  0  0  0  0  0  0  0  0  0  0  0
   -6.1771    3.3501  -14.4095 N   0  0  0  0  0  0  0  0  0  0  0  0
   -6.7476    2.4796  -13.7297 O   0  0  0  0  0  0  0  0  0  0  0  0
   -5.0087    3.7062  -14.2551 O   0  0  0  0  0  0  0  0  0  0  0  0
  1  2  2  0
  2  3  1  0
  3  4  1  0
  4  5  1  0
  2  6  1  0
  6  7  1  0
  7  8  1  0
  8  9  2  0
  9 10  1  0
 10 11  1  0
 11 12  1  0
 12 13  2  0
 12 14  1  0
 11  7  2  0
M  CHG  2  12   1  14  -1
M  END
>  <energy_score>  (2702) 
-0.396675

>  <alias>  (2702) 
None

>  <HIPPO Pose ID>  (2702) 
75397

>  <smiles>  (2702) 
O=C(CCCl)Nc1nc[nH]c1[N+](=O)[O-]

>  <inchikey>  (2702) 
VVKXIMPFIZSINH-UHFFFAOYSA-N

>  <distance_score>  (2702) 
1.83855

>  <ref_mols>  (2702) 
Z0719a,Z1597a

>  <ref_pdb>  (2702) 
Z0719a

>  <HIPPO Compound ID>  (2702) 
149832

>  <name>  (2702) 
P75397

>  <inspiration_score>  (2702) 
None

$$$$
P75403
     RDKit          3D

 14 14  0  0  0  0  0  0  0  0999 V2000
   -3.4743    7.3658  -21.2710 C   0  0  0  0  0  0  0  0  0  0  0  0
   -4.2201    7.0211  -19.9905 C   0  0  0  0  0  0  0  0  0  0  0  0
   -3.9434    5.6272  -19.4133 C   0  0  1  0  0  0  0  0  0  0  0  0
   -2.1992    5.3757  -19.0977 Cl  0  0  0  0  0  0  0  0  0  0  0  0
   -4.7569    5.3781  -18.1235 C   0  0  0  0  0  0  0  0  0  0  0  0
   -4.2935    5.3946  -17.0501 O   0  0  0  0  0  0  0  0  0  0  0  0
   -6.2313    5.1485  -18.5853 N   0  0  0  0  0  0  0  0  0  0  0  0
   -7.3438    4.8190  -17.8657 C   0  0  0  0  0  0  0  0  0  0  0  0
   -8.5665    4.8061  -18.4880 N   0  0  0  0  0  0  0  0  0  0  0  0
   -9.5076    4.4333  -17.5746 C   0  0  0  0  0  0  0  0  0  0  0  0
   -8.9679    4.1918  -16.4072 N   0  0  0  0  0  0  0  0  0  0  0  0
   -7.6197    4.4529  -16.5592 C   0  0  0  0  0  0  0  0  0  0  0  0
   -6.7447    4.2779  -15.4378 C   0  0  0  0  0  0  0  0  0  0  0  0
   -6.0450    4.1187  -14.5228 N   0  0  0  0  0  0  0  0  0  0  0  0
  1  2  1  0
  2  3  1  0
  3  4  1  1
  3  5  1  0
  5  6  2  0
  5  7  1  0
  7  8  1  0
  8  9  1  0
  9 10  1  0
 10 11  2  0
 11 12  1  0
 12 13  1  0
 13 14  3  0
 12  8  2  0
M  END
>  <energy_score>  (2703) 
-14.917869

>  <alias>  (2703) 
None

>  <HIPPO Pose ID>  (2703) 
75403

>  <smiles>  (2703) 
CC[C@@H](Cl)C(=O)Nc1[nH]cnc1C#N

>  <inchikey>  (2703) 
BIMPSPJNRQSHLN-RXMQYKEDSA-N

>  <distance_score>  (2703) 
1.91844

>  <ref_mols>  (2703) 
Z0719a,Z1597a

>  <ref_pdb>  (2703) 
Z0719a

>  <HIPPO Compound ID>  (2703) 
149844

>  <name>  (2703) 
P75403

>  <inspiration_score>  (2703) 
None

$$$$
P75412
     RDKit          3D

 14 15  0  0  0  0  0  0  0  0999 V2000
   -4.4837    7.0968  -20.9665 C   0  0  0  0  0  0  0  0  0  0  0  0
   -4.6107    7.6985  -19.5923 C   0  0  1  0  0  0  0  0  0  0  0  0
   -5.7338    9.2890  -19.6087 Br  0  0  0  0  0  0  0  0  0  0  0  0
   -5.1069    6.8003  -18.4570 C   0  0  0  0  0  0  0  0  0  0  0  0
   -4.5495    6.8360  -17.4245 O   0  0  0  0  0  0  0  0  0  0  0  0
   -6.3928    6.0214  -18.8876 N   0  0  0  0  0  0  0  0  0  0  0  0
   -7.2525    5.2527  -18.1528 C   0  0  0  0  0  0  0  0  0  0  0  0
   -8.3725    4.5174  -18.5227 C   0  0  0  0  0  0  0  0  0  0  0  0
   -9.0041    3.9384  -17.4334 N   0  0  0  0  0  0  0  0  0  0  0  0
   -8.2756    4.3286  -16.4227 C   0  0  0  0  0  0  0  0  0  0  0  0
   -7.2096    5.0737  -16.8177 N   0  0  0  0  0  0  0  0  0  0  0  0
   -6.4417    5.5890  -15.7076 C   0  0  0  0  0  0  0  0  0  0  0  0
   -7.3625    5.3259  -14.5172 C   0  0  0  0  0  0  0  0  0  0  0  0
   -8.3226    4.2081  -14.9589 C   0  0  0  0  0  0  0  0  0  0  0  0
  2  1  1  6
  2  3  1  0
  2  4  1  0
  4  5  2  0
  4  6  1  0
  6  7  1  0
  7  8  2  0
  8  9  1  0
  9 10  2  0
 10 11  1  0
 11 12  1  0
 12 13  1  0
 13 14  1  0
 11  7  1  0
 14 10  1  0
M  END
>  <energy_score>  (2704) 
-29.532474

>  <alias>  (2704) 
None

>  <HIPPO Pose ID>  (2704) 
75412

>  <smiles>  (2704) 
C[C@@H](Br)C(=O)Nc1cnc2n1CCC2

>  <inchikey>  (2704) 
CBKZHCLXEDBNQV-ZCFIWIBFSA-N

>  <distance_score>  (2704) 
1.505083

>  <ref_mols>  (2704) 
Z0719a,Z1597a

>  <ref_pdb>  (2704) 
Z0719a

>  <HIPPO Compound ID>  (2704) 
149854

>  <name>  (2704) 
P75412

>  <inspiration_score>  (2704) 
None

$$$$
P75413
     RDKit          3D

 14 14  0  0  0  0  0  0  0  0999 V2000
   -7.0903    2.5078  -13.1665 C   0  0  0  0  0  0  0  0  0  0  0  0
   -6.0377    3.2876  -13.9426 C   0  0  0  0  0  0  0  0  0  0  0  0
   -5.2124    4.1452  -12.9892 C   0  0  0  0  0  0  0  0  0  0  0  0
   -6.5560    4.0431  -15.0820 N   0  0  0  0  0  0  0  0  0  0  0  0
   -7.8496    4.3986  -15.3627 C   0  0  0  0  0  0  0  0  0  0  0  0
   -7.9312    5.1153  -16.4661 N   0  0  0  0  0  0  0  0  0  0  0  0
   -6.6598    5.1861  -16.9371 C   0  0  0  0  0  0  0  0  0  0  0  0
   -6.3535    5.8866  -18.0523 N   0  0  0  0  0  0  0  0  0  0  0  0
   -4.9825    6.1104  -18.7632 C   0  0  0  0  0  0  0  0  0  0  0  0
   -3.9010    5.7860  -18.4471 O   0  0  0  0  0  0  0  0  0  0  0  0
   -5.2546    6.9799  -19.9934 C   0  0  2  0  0  0  0  0  0  0  0  0
   -4.0255    7.1358  -20.8719 C   0  0  0  0  0  0  0  0  0  0  0  0
   -5.7282    8.7690  -19.3266 Br  0  0  0  0  0  0  0  0  0  0  0  0
   -5.7919    4.5240  -16.1152 C   0  0  0  0  0  0  0  0  0  0  0  0
  1  2  1  0
  2  3  1  0
  2  4  1  0
  4  5  1  0
  5  6  2  0
  6  7  1  0
  7  8  1  0
  8  9  1  0
  9 10  2  0
  9 11  1  0
 11 12  1  6
 11 13  1  0
  7 14  2  0
 14  4  1  0
M  END
>  <energy_score>  (2705) 
-20.412652

>  <alias>  (2705) 
None

>  <HIPPO Pose ID>  (2705) 
75413

>  <smiles>  (2705) 
CC(C)n1cnc(NC(=O)[C@H](C)Br)c1

>  <inchikey>  (2705) 
GIDJYHVBVCGCOR-ZETCQYMHSA-N

>  <distance_score>  (2705) 
1.927093

>  <ref_mols>  (2705) 
Z0719a,Z1597a

>  <ref_pdb>  (2705) 
Z0719a

>  <HIPPO Compound ID>  (2705) 
149857

>  <name>  (2705) 
P75413

>  <inspiration_score>  (2705) 
None

$$$$
P75417
     RDKit          3D

 14 14  0  0  0  0  0  0  0  0999 V2000
   -4.4012    6.6021  -20.0134 C   0  0  0  0  0  0  0  0  0  0  0  0
   -4.0726    5.2807  -19.3334 C   0  0  1  0  0  0  0  0  0  0  0  0
   -2.3090    4.9955  -19.4103 Cl  0  0  0  0  0  0  0  0  0  0  0  0
   -4.5774    5.2187  -17.8786 C   0  0  0  0  0  0  0  0  0  0  0  0
   -3.8921    5.3451  -16.9396 O   0  0  0  0  0  0  0  0  0  0  0  0
   -6.1134    4.9526  -17.9814 N   0  0  0  0  0  0  0  0  0  0  0  0
   -7.0402    4.7084  -17.0034 C   0  0  0  0  0  0  0  0  0  0  0  0
   -7.0043    4.4809  -15.6402 C   0  0  0  0  0  0  0  0  0  0  0  0
   -5.8971    4.3126  -14.7677 C   0  0  0  0  0  0  0  0  0  0  0  0
   -5.0158    4.1094  -14.0400 N   0  0  0  0  0  0  0  0  0  0  0  0
   -8.2661    4.3044  -15.1235 N   0  0  0  0  0  0  0  0  0  0  0  0
   -9.0573    4.3224  -16.1567 C   0  0  0  0  0  0  0  0  0  0  0  0
   -8.3709    4.5801  -17.2949 N   0  0  0  0  0  0  0  0  0  0  0  0
   -8.9977    4.6981  -18.5693 C   0  0  0  0  0  0  0  0  0  0  0  0
  2  1  1  1
  2  3  1  0
  2  4  1  0
  4  5  2  0
  4  6  1  0
  6  7  1  0
  7  8  2  0
  8  9  1  0
  9 10  3  0
  8 11  1  0
 11 12  2  0
 12 13  1  0
 13 14  1  0
 13  7  1  0
M  END
>  <energy_score>  (2706) 
-12.211325

>  <alias>  (2706) 
None

>  <HIPPO Pose ID>  (2706) 
75417

>  <smiles>  (2706) 
C[C@@H](Cl)C(=O)Nc1c(C#N)ncn1C

>  <inchikey>  (2706) 
NTAMTTFPNNQRKC-RXMQYKEDSA-N

>  <distance_score>  (2706) 
1.560842

>  <ref_mols>  (2706) 
Z0719a,Z1597a

>  <ref_pdb>  (2706) 
Z0719a

>  <HIPPO Compound ID>  (2706) 
149866

>  <name>  (2706) 
P75417

>  <inspiration_score>  (2706) 
None

$$$$
P75419
     RDKit          3D

 14 14  0  0  0  0  0  0  0  0999 V2000
   -4.2703    6.6642  -20.2224 C   0  0  0  0  0  0  0  0  0  0  0  0
   -3.9035    5.3532  -19.5421 C   0  0  1  0  0  0  0  0  0  0  0  0
   -2.1240    5.1720  -19.5402 Cl  0  0  0  0  0  0  0  0  0  0  0  0
   -4.4771    5.2274  -18.1255 C   0  0  0  0  0  0  0  0  0  0  0  0
   -3.8246    5.2446  -17.1551 O   0  0  0  0  0  0  0  0  0  0  0  0
   -6.0185    5.0632  -18.3039 N   0  0  0  0  0  0  0  0  0  0  0  0
   -6.9867    4.8095  -17.3919 C   0  0  0  0  0  0  0  0  0  0  0  0
   -8.2757    4.7555  -17.8343 N   0  0  0  0  0  0  0  0  0  0  0  0
   -9.0140    4.5443  -16.7681 C   0  0  0  0  0  0  0  0  0  0  0  0
   -8.2423    4.5034  -15.6534 N   0  0  0  0  0  0  0  0  0  0  0  0
   -8.6663    4.4758  -14.2775 C   0  0  0  0  0  0  0  0  0  0  0  0
   -6.9329    4.5811  -16.0423 C   0  0  0  0  0  0  0  0  0  0  0  0
   -5.8670    4.3992  -15.1377 C   0  0  0  0  0  0  0  0  0  0  0  0
   -5.0989    4.1857  -14.2965 N   0  0  0  0  0  0  0  0  0  0  0  0
  2  1  1  1
  2  3  1  0
  2  4  1  0
  4  5  2  0
  4  6  1  0
  6  7  1  0
  7  8  1  0
  8  9  2  0
  9 10  1  0
 10 11  1  0
 10 12  1  0
 12 13  1  0
 13 14  3  0
 12  7  2  0
M  END
>  <energy_score>  (2707) 
-0.136061

>  <alias>  (2707) 
None

>  <HIPPO Pose ID>  (2707) 
75419

>  <smiles>  (2707) 
C[C@@H](Cl)C(=O)Nc1ncn(C)c1C#N

>  <inchikey>  (2707) 
CAFWIDLVZVIJDU-RXMQYKEDSA-N

>  <distance_score>  (2707) 
1.221967

>  <ref_mols>  (2707) 
Z0719a,Z1597a

>  <ref_pdb>  (2707) 
Z0719a

>  <HIPPO Compound ID>  (2707) 
149868

>  <name>  (2707) 
P75419

>  <inspiration_score>  (2707) 
None

$$$$
P75420
     RDKit          3D

 14 14  0  0  0  0  0  0  0  0999 V2000
   -6.1734    3.2916  -14.1287 N   0  0  0  0  0  0  0  0  0  0  0  0
   -6.7347    3.7426  -15.0442 C   0  0  0  0  0  0  0  0  0  0  0  0
   -7.5244    4.2088  -16.1632 C   0  0  0  0  0  0  0  0  0  0  0  0
   -8.9045    4.1284  -16.0591 N   0  0  0  0  0  0  0  0  0  0  0  0
   -9.3798    4.4759  -17.2268 C   0  0  0  0  0  0  0  0  0  0  0  0
   -8.3774    4.7779  -18.0965 N   0  0  0  0  0  0  0  0  0  0  0  0
   -7.1777    4.6365  -17.4396 C   0  0  0  0  0  0  0  0  0  0  0  0
   -6.0337    4.8966  -18.1391 N   0  0  0  0  0  0  0  0  0  0  0  0
   -4.5658    5.0132  -17.6588 C   0  0  0  0  0  0  0  0  0  0  0  0
   -4.1178    4.9815  -16.5820 O   0  0  0  0  0  0  0  0  0  0  0  0
   -3.6998    5.1946  -18.9055 C   0  0  0  0  0  0  0  0  0  0  0  0
   -3.9630    6.4896  -19.6783 C   0  0  0  0  0  0  0  0  0  0  0  0
   -2.7675    6.8609  -20.5367 C   0  0  0  0  0  0  0  0  0  0  0  0
   -2.4565    5.8102  -21.3476 F   0  0  0  0  0  0  0  0  0  0  0  0
  1  2  3  0
  2  3  1  0
  3  4  1  0
  4  5  2  0
  5  6  1  0
  6  7  1  0
  7  8  1  0
  8  9  1  0
  9 10  2  0
  9 11  1  0
 11 12  1  0
 12 13  1  0
 13 14  1  0
  7  3  2  0
M  END
>  <energy_score>  (2708) 
-6.546225

>  <alias>  (2708) 
None

>  <HIPPO Pose ID>  (2708) 
75420

>  <smiles>  (2708) 
N#Cc1nc[nH]c1NC(=O)CCCF

>  <inchikey>  (2708) 
MOWRJIBRTSZVCC-UHFFFAOYSA-N

>  <distance_score>  (2708) 
1.827958

>  <ref_mols>  (2708) 
Z0719a,Z1597a

>  <ref_pdb>  (2708) 
Z0719a

>  <HIPPO Compound ID>  (2708) 
149872

>  <name>  (2708) 
P75420

>  <inspiration_score>  (2708) 
None

$$$$
P75421
     RDKit          3D

 14 14  0  0  0  0  0  0  0  0999 V2000
   -4.1717    8.3916  -21.6915 C   0  0  0  0  0  0  0  0  0  0  0  0
   -4.5534    7.3113  -20.9934 C   0  0  0  0  0  0  0  0  0  0  0  0
   -3.8846    6.8326  -19.7390 C   0  0  2  0  0  0  0  0  0  0  0  0
   -3.0064    5.3064  -20.0143 Cl  0  0  0  0  0  0  0  0  0  0  0  0
   -4.7880    6.6799  -18.4917 C   0  0  0  0  0  0  0  0  0  0  0  0
   -4.5009    7.2325  -17.4953 O   0  0  0  0  0  0  0  0  0  0  0  0
   -5.9882    5.7249  -18.8131 N   0  0  0  0  0  0  0  0  0  0  0  0
   -6.9646    5.2128  -17.9933 C   0  0  0  0  0  0  0  0  0  0  0  0
   -8.0233    4.3929  -18.3385 C   0  0  0  0  0  0  0  0  0  0  0  0
   -8.6800    3.9224  -17.2272 N   0  0  0  0  0  0  0  0  0  0  0  0
   -8.0354    4.4435  -16.2033 C   0  0  0  0  0  0  0  0  0  0  0  0
   -8.2123    4.1048  -14.7694 C   0  0  0  0  0  0  0  0  0  0  0  0
   -7.1061    5.3606  -16.6371 N   0  0  0  0  0  0  0  0  0  0  0  0
   -6.4727    6.3030  -15.7649 C   0  0  0  0  0  0  0  0  0  0  0  0
  1  2  2  0
  2  3  1  0
  3  4  1  6
  3  5  1  0
  5  6  2  0
  5  7  1  0
  7  8  1  0
  8  9  2  0
  9 10  1  0
 10 11  2  0
 11 12  1  0
 11 13  1  0
 13 14  1  0
 13  8  1  0
M  END
>  <energy_score>  (2709) 
-12.746219

>  <alias>  (2709) 
None

>  <HIPPO Pose ID>  (2709) 
75421

>  <smiles>  (2709) 
C=C[C@H](Cl)C(=O)Nc1cnc(C)n1C

>  <inchikey>  (2709) 
UFNDGOSOXYJFMF-ZETCQYMHSA-N

>  <distance_score>  (2709) 
1.324832

>  <ref_mols>  (2709) 
Z0719a,Z1597a

>  <ref_pdb>  (2709) 
Z0719a

>  <HIPPO Compound ID>  (2709) 
149873

>  <name>  (2709) 
P75421

>  <inspiration_score>  (2709) 
None

$$$$
P75422
     RDKit          3D

 14 14  0  0  0  0  0  0  0  0999 V2000
   -5.1890    7.7593  -20.9058 C   0  0  0  0  0  0  0  0  0  0  0  0
   -4.2449    7.3277  -20.0578 C   0  0  0  0  0  0  0  0  0  0  0  0
   -4.0392    5.8974  -19.6688 C   0  0  1  0  0  0  0  0  0  0  0  0
   -2.3989    5.3988  -20.1967 Cl  0  0  0  0  0  0  0  0  0  0  0  0
   -4.2104    5.6409  -18.1617 C   0  0  0  0  0  0  0  0  0  0  0  0
   -3.3162    5.5762  -17.4059 O   0  0  0  0  0  0  0  0  0  0  0  0
   -5.7414    5.3998  -17.9437 N   0  0  0  0  0  0  0  0  0  0  0  0
   -6.4131    4.9705  -16.8568 C   0  0  0  0  0  0  0  0  0  0  0  0
   -5.8503    4.4590  -15.7229 C   0  0  0  0  0  0  0  0  0  0  0  0
   -6.8929    3.9800  -14.9890 N   0  0  0  0  0  0  0  0  0  0  0  0
   -6.8320    3.2236  -13.7509 C   0  0  0  0  0  0  0  0  0  0  0  0
   -5.4405    2.9366  -13.1878 C   0  0  0  0  0  0  0  0  0  0  0  0
   -8.0382    4.3114  -15.6702 C   0  0  0  0  0  0  0  0  0  0  0  0
   -7.7675    4.9176  -16.8091 N   0  0  0  0  0  0  0  0  0  0  0  0
  1  2  2  0
  2  3  1  0
  3  4  1  1
  3  5  1  0
  5  6  2  0
  5  7  1  0
  7  8  1  0
  8  9  2  0
  9 10  1  0
 10 11  1  0
 11 12  1  0
 10 13  1  0
 13 14  2  0
 14  8  1  0
M  END
>  <energy_score>  (2710) 
-31.455495

>  <alias>  (2710) 
None

>  <HIPPO Pose ID>  (2710) 
75422

>  <smiles>  (2710) 
C=C[C@@H](Cl)C(=O)Nc1cn(CC)cn1

>  <inchikey>  (2710) 
AXAGTGAXFGCQQI-SSDOTTSWSA-N

>  <distance_score>  (2710) 
1.922864

>  <ref_mols>  (2710) 
Z0719a,Z1597a

>  <ref_pdb>  (2710) 
Z0719a

>  <HIPPO Compound ID>  (2710) 
149874

>  <name>  (2710) 
P75422

>  <inspiration_score>  (2710) 
None

$$$$
P75424
     RDKit          3D

 14 14  0  0  0  0  0  0  0  0999 V2000
   -4.9726    7.5606  -20.9855 C   0  0  0  0  0  0  0  0  0  0  0  0
   -4.1588    7.1708  -19.9944 C   0  0  0  0  0  0  0  0  0  0  0  0
   -4.1246    5.8011  -19.3819 C   0  0  1  0  0  0  0  0  0  0  0  0
   -2.4270    5.2460  -19.2766 Cl  0  0  0  0  0  0  0  0  0  0  0  0
   -4.7786    5.7764  -17.9780 C   0  0  0  0  0  0  0  0  0  0  0  0
   -4.2241    6.0567  -16.9835 O   0  0  0  0  0  0  0  0  0  0  0  0
   -6.2395    5.2614  -18.2148 N   0  0  0  0  0  0  0  0  0  0  0  0
   -7.2161    4.9195  -17.3203 C   0  0  0  0  0  0  0  0  0  0  0  0
   -8.4713    4.4462  -17.6457 C   0  0  0  0  0  0  0  0  0  0  0  0
   -9.0513    4.2079  -18.9629 C   0  0  0  0  0  0  0  0  0  0  0  0
   -9.1950    4.1105  -16.5382 N   0  0  0  0  0  0  0  0  0  0  0  0
   -8.4050    4.3834  -15.5336 C   0  0  0  0  0  0  0  0  0  0  0  0
   -7.2011    4.8822  -15.9546 N   0  0  0  0  0  0  0  0  0  0  0  0
   -6.1521    5.2215  -15.0462 C   0  0  0  0  0  0  0  0  0  0  0  0
  1  2  2  0
  2  3  1  0
  3  4  1  1
  3  5  1  0
  5  6  2  0
  5  7  1  0
  7  8  1  0
  8  9  2  0
  9 10  1  0
  9 11  1  0
 11 12  2  0
 12 13  1  0
 13 14  1  0
 13  8  1  0
M  END
>  <energy_score>  (2711) 
-22.938072

>  <alias>  (2711) 
None

>  <HIPPO Pose ID>  (2711) 
75424

>  <smiles>  (2711) 
C=C[C@@H](Cl)C(=O)Nc1c(C)ncn1C

>  <inchikey>  (2711) 
HBQFEBCKYAOKRY-SSDOTTSWSA-N

>  <distance_score>  (2711) 
1.276263

>  <ref_mols>  (2711) 
Z0719a,Z1597a

>  <ref_pdb>  (2711) 
Z0719a

>  <HIPPO Compound ID>  (2711) 
149876

>  <name>  (2711) 
P75424

>  <inspiration_score>  (2711) 
None

$$$$
P75427
     RDKit          3D

 14 14  0  0  0  0  0  0  0  0999 V2000
   -9.0592    4.1657  -18.9868 C   0  0  0  0  0  0  0  0  0  0  0  0
   -8.3421    4.4797  -17.7496 C   0  0  0  0  0  0  0  0  0  0  0  0
   -8.9638    4.2160  -16.5588 N   0  0  0  0  0  0  0  0  0  0  0  0
   -8.0992    4.5514  -15.6325 C   0  0  0  0  0  0  0  0  0  0  0  0
   -8.3042    4.4502  -14.1706 C   0  0  0  0  0  0  0  0  0  0  0  0
   -6.9232    4.9885  -16.1973 N   0  0  0  0  0  0  0  0  0  0  0  0
   -5.7237    5.1955  -15.4442 C   0  0  0  0  0  0  0  0  0  0  0  0
   -7.0879    5.0286  -17.5583 C   0  0  0  0  0  0  0  0  0  0  0  0
   -6.2066    5.4730  -18.5123 N   0  0  0  0  0  0  0  0  0  0  0  0
   -4.8136    6.1572  -18.3631 C   0  0  0  0  0  0  0  0  0  0  0  0
   -4.2426    6.5145  -17.4053 O   0  0  0  0  0  0  0  0  0  0  0  0
   -4.1735    6.2485  -19.7396 C   0  0  0  0  0  0  0  0  0  0  0  0
   -4.9146    7.1144  -20.7317 C   0  0  0  0  0  0  0  0  0  0  0  0
   -4.8822    8.9891  -20.1900 Br  0  0  0  0  0  0  0  0  0  0  0  0
  1  2  1  0
  2  3  1  0
  3  4  2  0
  4  5  1  0
  4  6  1  0
  6  7  1  0
  6  8  1  0
  8  9  1  0
  9 10  1  0
 10 11  2  0
 10 12  1  0
 12 13  1  0
 13 14  1  0
  8  2  2  0
M  END
>  <energy_score>  (2712) 
-16.807046

>  <alias>  (2712) 
None

>  <HIPPO Pose ID>  (2712) 
75427

>  <smiles>  (2712) 
Cc1nc(C)n(C)c1NC(=O)CCBr

>  <inchikey>  (2712) 
UFIDCBFRFZAIES-UHFFFAOYSA-N

>  <distance_score>  (2712) 
1.494277

>  <ref_mols>  (2712) 
Z0719a,Z1597a

>  <ref_pdb>  (2712) 
Z0719a

>  <HIPPO Compound ID>  (2712) 
149882

>  <name>  (2712) 
P75427

>  <inspiration_score>  (2712) 
None

$$$$
P75431
     RDKit          3D

 14 15  0  0  0  0  0  0  0  0999 V2000
   -8.2583    6.9096   -9.0086 C   0  0  0  0  0  0  0  0  0  0  0  0
   -7.9490    5.4208   -8.9508 C   0  0  0  0  0  0  0  0  0  0  0  0
   -8.0919    4.7090  -10.1967 N   0  0  0  0  0  0  0  0  0  0  0  0
   -8.4139    3.3856  -10.3122 C   0  0  0  0  0  0  0  0  0  0  0  0
   -8.4560    3.0175  -11.5716 N   0  0  0  0  0  0  0  0  0  0  0  0
   -8.1286    4.1287  -12.2801 C   0  0  0  0  0  0  0  0  0  0  0  0
   -8.0441    4.0738  -13.6263 N   0  0  0  0  0  0  0  0  0  0  0  0
   -7.5355    5.1106  -14.6366 C   0  0  0  0  0  0  0  0  0  0  0  0
   -7.1789    6.2083  -14.4783 O   0  0  0  0  0  0  0  0  0  0  0  0
   -7.4732    4.4987  -15.9908 C   0  0  1  0  0  0  0  0  0  0  0  0
   -8.6773    4.5624  -16.8960 C   0  0  0  0  0  0  0  0  0  0  0  0
   -7.4579    5.3731  -17.2141 C   0  0  2  0  0  0  0  0  0  0  0  0
   -6.4615    4.8443  -18.7348 Br  0  0  0  0  0  0  0  0  0  0  0  0
   -7.8917    5.1978  -11.4564 C   0  0  0  0  0  0  0  0  0  0  0  0
  1  2  1  0
  2  3  1  0
  3  4  1  0
  4  5  2  0
  5  6  1  0
  6  7  1  0
  7  8  1  0
  8  9  2  0
 10  8  1  1
 10 11  1  0
 11 12  1  0
 12 13  1  6
  6 14  2  0
 14  3  1  0
 12 10  1  0
M  END
>  <energy_score>  (2713) 
-32.648341

>  <alias>  (2713) 
None

>  <HIPPO Pose ID>  (2713) 
75431

>  <smiles>  (2713) 
CCn1cnc(NC(=O)[C@H]2C[C@@H]2Br)c1

>  <inchikey>  (2713) 
JZPUDNMFAMAWDH-BQBZGAKWSA-N

>  <distance_score>  (2713) 
1.205628

>  <ref_mols>  (2713) 
Z0719a,Z1597a

>  <ref_pdb>  (2713) 
Z0719a

>  <HIPPO Compound ID>  (2713) 
149884

>  <name>  (2713) 
P75431

>  <inspiration_score>  (2713) 
None

$$$$
P75433
     RDKit          3D

 15 16  0  0  0  0  0  0  0  0999 V2000
   -4.3481    6.9656  -20.6901 C   0  0  0  0  0  0  0  0  0  0  0  0
   -3.8974    5.8012  -19.8136 C   0  0  1  0  0  0  0  0  0  0  0  0
   -2.4113    5.9010  -19.5263 C   0  0  0  0  0  0  0  0  0  0  0  0
   -1.7651    5.6620  -20.7100 F   0  0  0  0  0  0  0  0  0  0  0  0
   -4.7190    5.6886  -18.5450 C   0  0  0  0  0  0  0  0  0  0  0  0
   -4.2672    5.8769  -17.4807 O   0  0  0  0  0  0  0  0  0  0  0  0
   -6.1511    5.2245  -18.9701 N   0  0  0  0  0  0  0  0  0  0  0  0
   -7.2157    4.8329  -18.2128 C   0  0  0  0  0  0  0  0  0  0  0  0
   -8.4366    4.2762  -18.5689 C   0  0  0  0  0  0  0  0  0  0  0  0
   -9.1953    3.9285  -17.4593 N   0  0  0  0  0  0  0  0  0  0  0  0
   -8.4590    4.3219  -16.4556 C   0  0  0  0  0  0  0  0  0  0  0  0
   -7.2932    4.8814  -16.8730 N   0  0  0  0  0  0  0  0  0  0  0  0
   -6.4939    5.3854  -15.7850 C   0  0  0  0  0  0  0  0  0  0  0  0
   -7.5008    5.4145  -14.6383 C   0  0  0  0  0  0  0  0  0  0  0  0
   -8.5374    4.3332  -14.9861 C   0  0  0  0  0  0  0  0  0  0  0  0
  2  1  1  1
  2  3  1  0
  3  4  1  0
  2  5  1  0
  5  6  2  0
  5  7  1  0
  7  8  1  0
  8  9  2  0
  9 10  1  0
 10 11  2  0
 11 12  1  0
 12 13  1  0
 13 14  1  0
 14 15  1  0
 12  8  1  0
 15 11  1  0
M  END
>  <energy_score>  (2714) 
-26.705007

>  <alias>  (2714) 
None

>  <HIPPO Pose ID>  (2714) 
75433

>  <smiles>  (2714) 
C[C@@H](CF)C(=O)Nc1cnc2n1CCC2

>  <inchikey>  (2714) 
WMJHLAUHMHDMFC-ZETCQYMHSA-N

>  <distance_score>  (2714) 
1.475154

>  <ref_mols>  (2714) 
Z0719a,Z1597a

>  <ref_pdb>  (2714) 
Z0719a

>  <HIPPO Compound ID>  (2714) 
149886

>  <name>  (2714) 
P75433

>  <inspiration_score>  (2714) 
None

$$$$
P75435
     RDKit          3D

 15 15  0  0  0  0  0  0  0  0999 V2000
   -7.0543    6.6161  -14.1053 C   0  0  0  0  0  0  0  0  0  0  0  0
   -6.2434    5.9712  -15.2241 C   0  0  0  0  0  0  0  0  0  0  0  0
   -6.9845    5.0426  -16.0341 N   0  0  0  0  0  0  0  0  0  0  0  0
   -7.9013    4.1448  -15.5388 C   0  0  0  0  0  0  0  0  0  0  0  0
   -7.8248    3.5949  -14.1582 C   0  0  0  0  0  0  0  0  0  0  0  0
   -8.7984    3.8758  -16.4641 N   0  0  0  0  0  0  0  0  0  0  0  0
   -8.2880    4.4089  -17.6234 C   0  0  0  0  0  0  0  0  0  0  0  0
   -8.9944    4.1967  -18.8848 C   0  0  0  0  0  0  0  0  0  0  0  0
   -7.0610    4.9962  -17.4001 C   0  0  0  0  0  0  0  0  0  0  0  0
   -6.1173    5.3814  -18.3142 N   0  0  0  0  0  0  0  0  0  0  0  0
   -4.6373    5.8205  -18.1147 C   0  0  0  0  0  0  0  0  0  0  0  0
   -4.0235    5.9941  -17.1335 O   0  0  0  0  0  0  0  0  0  0  0  0
   -3.9839    5.9104  -19.4834 C   0  0  0  0  0  0  0  0  0  0  0  0
   -4.5349    7.0397  -20.3228 C   0  0  0  0  0  0  0  0  0  0  0  0
   -3.3280    7.4062  -21.8109 Br  0  0  0  0  0  0  0  0  0  0  0  0
  1  2  1  0
  2  3  1  0
  3  4  1  0
  4  5  1  0
  4  6  2  0
  6  7  1  0
  7  8  1  0
  7  9  2  0
  9 10  1  0
 10 11  1  0
 11 12  2  0
 11 13  1  0
 13 14  1  0
 14 15  1  0
  9  3  1  0
M  END
>  <energy_score>  (2715) 
-7.236667

>  <alias>  (2715) 
None

>  <HIPPO Pose ID>  (2715) 
75435

>  <smiles>  (2715) 
CCn1c(C)nc(C)c1NC(=O)CCBr

>  <inchikey>  (2715) 
HZWDXKLQYFHDDL-UHFFFAOYSA-N

>  <distance_score>  (2715) 
1.427446

>  <ref_mols>  (2715) 
Z0719a,Z1597a

>  <ref_pdb>  (2715) 
Z0719a

>  <HIPPO Compound ID>  (2715) 
149890

>  <name>  (2715) 
P75435

>  <inspiration_score>  (2715) 
None

$$$$
P75438
     RDKit          3D

 15 16  0  0  0  0  0  0  0  0999 V2000
   -4.4119    6.4886  -17.5941 O   0  0  0  0  0  0  0  0  0  0  0  0
   -4.7393    6.0292  -18.6193 C   0  0  0  0  0  0  0  0  0  0  0  0
   -3.8290    6.0576  -19.8294 C   0  0  0  0  0  0  0  0  0  0  0  0
   -3.9892    7.2961  -20.7011 C   0  0  0  0  0  0  0  0  0  0  0  0
   -5.4089    7.6191  -21.1466 C   0  0  0  0  0  0  0  0  0  0  0  0
   -5.4023    9.0990  -22.1469 Cl  0  0  0  0  0  0  0  0  0  0  0  0
   -6.0508    5.2900  -19.0216 N   0  0  0  0  0  0  0  0  0  0  0  0
   -7.1190    4.9064  -18.2645 C   0  0  0  0  0  0  0  0  0  0  0  0
   -8.2978    4.2645  -18.6197 C   0  0  0  0  0  0  0  0  0  0  0  0
   -9.0612    3.9243  -17.5138 N   0  0  0  0  0  0  0  0  0  0  0  0
   -8.3684    4.3980  -16.5137 C   0  0  0  0  0  0  0  0  0  0  0  0
   -7.2436    5.0382  -16.9308 N   0  0  0  0  0  0  0  0  0  0  0  0
   -6.4744    5.5937  -15.8415 C   0  0  0  0  0  0  0  0  0  0  0  0
   -7.4586    5.5079  -14.6737 C   0  0  0  0  0  0  0  0  0  0  0  0
   -8.4567    4.3968  -15.0468 C   0  0  0  0  0  0  0  0  0  0  0  0
  1  2  2  0
  2  3  1  0
  3  4  1  0
  4  5  1  0
  5  6  1  0
  2  7  1  0
  7  8  1  0
  8  9  2  0
  9 10  1  0
 10 11  2  0
 11 12  1  0
 12 13  1  0
 13 14  1  0
 14 15  1  0
 12  8  1  0
 15 11  1  0
M  END
>  <energy_score>  (2716) 
-26.818119

>  <alias>  (2716) 
None

>  <HIPPO Pose ID>  (2716) 
75438

>  <smiles>  (2716) 
O=C(CCCCl)Nc1cnc2n1CCC2

>  <inchikey>  (2716) 
JVKJODTYAPVEDP-UHFFFAOYSA-N

>  <distance_score>  (2716) 
1.326318

>  <ref_mols>  (2716) 
Z0719a,Z1597a

>  <ref_pdb>  (2716) 
Z0719a

>  <HIPPO Compound ID>  (2716) 
149898

>  <name>  (2716) 
P75438

>  <inspiration_score>  (2716) 
None

$$$$
P75440
     RDKit          3D

 15 16  0  0  0  0  0  0  0  0999 V2000
   -6.7863    4.2313   -9.1608 C   0  0  0  0  0  0  0  0  0  0  0  0
   -7.4324    3.9574  -10.4110 N   0  0  0  0  0  0  0  0  0  0  0  0
   -8.6783    3.4280  -10.5593 C   0  0  0  0  0  0  0  0  0  0  0  0
   -9.0609    3.4782  -11.8158 N   0  0  0  0  0  0  0  0  0  0  0  0
   -8.0107    4.0026  -12.4960 C   0  0  0  0  0  0  0  0  0  0  0  0
   -8.1151    4.2583  -13.8219 N   0  0  0  0  0  0  0  0  0  0  0  0
   -7.2178    5.1101  -14.7577 C   0  0  0  0  0  0  0  0  0  0  0  0
   -6.2041    5.6614  -14.5444 O   0  0  0  0  0  0  0  0  0  0  0  0
   -7.7964    5.2527  -16.1615 C   0  0  0  0  0  0  0  0  0  0  0  0
   -6.7904    4.9329  -17.3046 C   0  0  0  0  0  0  0  0  0  0  0  0
   -8.1600    4.4887  -18.3955 S   0  0  0  0  0  0  0  0  0  0  0  0
   -8.8671    4.3107  -16.7436 C   0  0  0  0  0  0  0  0  0  0  0  0
   -6.9351    4.1814  -11.6665 C   0  0  0  0  0  0  0  0  0  0  0  0
   -5.5879    4.3689  -12.0573 C   0  0  0  0  0  0  0  0  0  0  0  0
   -4.5021    4.4236  -12.4612 N   0  0  0  0  0  0  0  0  0  0  0  0
  1  2  1  0
  2  3  1  0
  3  4  2  0
  4  5  1  0
  5  6  1  0
  6  7  1  0
  7  8  2  0
  7  9  1  0
  9 10  1  0
 10 11  1  0
 11 12  1  0
  5 13  2  0
 13 14  1  0
 14 15  3  0
 13  2  1  0
 12  9  1  0
M  END
>  <energy_score>  (2717) 
-6.991387

>  <alias>  (2717) 
None

>  <HIPPO Pose ID>  (2717) 
75440

>  <smiles>  (2717) 
Cn1cnc(NC(=O)C2CSC2)c1C#N

>  <inchikey>  (2717) 
UDYFZQVLXZFARZ-UHFFFAOYSA-N

>  <distance_score>  (2717) 
1.260643

>  <ref_mols>  (2717) 
Z0719a,Z1597a

>  <ref_pdb>  (2717) 
Z0719a

>  <HIPPO Compound ID>  (2717) 
149901

>  <name>  (2717) 
P75440

>  <inspiration_score>  (2717) 
None

$$$$
P75441
     RDKit          3D

 15 15  0  0  0  0  0  0  0  0999 V2000
   -5.9026    3.0755  -12.5470 C   0  0  0  0  0  0  0  0  0  0  0  0
   -6.1929    3.0944  -14.0290 C   0  0  0  0  0  0  0  0  0  0  0  0
   -7.2664    4.1259  -14.3979 C   0  0  0  0  0  0  0  0  0  0  0  0
   -7.4678    4.3454  -15.8160 N   0  0  0  0  0  0  0  0  0  0  0  0
   -8.6512    4.2811  -16.4913 C   0  0  0  0  0  0  0  0  0  0  0  0
   -8.5324    4.7669  -17.7081 N   0  0  0  0  0  0  0  0  0  0  0  0
   -7.2446    5.1853  -17.8035 C   0  0  0  0  0  0  0  0  0  0  0  0
   -6.7891    5.8731  -18.8741 N   0  0  0  0  0  0  0  0  0  0  0  0
   -5.3710    6.4203  -19.1921 C   0  0  0  0  0  0  0  0  0  0  0  0
   -4.3980    6.4274  -18.5426 O   0  0  0  0  0  0  0  0  0  0  0  0
   -5.4436    7.1032  -20.5520 C   0  0  0  0  0  0  0  0  0  0  0  0
   -4.0605    7.2586  -21.1837 C   0  0  0  0  0  0  0  0  0  0  0  0
   -3.2788    8.4320  -20.6046 C   0  0  0  0  0  0  0  0  0  0  0  0
   -1.7048    8.5757  -21.4297 Cl  0  0  0  0  0  0  0  0  0  0  0  0
   -6.5509    4.9056  -16.6594 C   0  0  0  0  0  0  0  0  0  0  0  0
  1  2  1  0
  2  3  1  0
  3  4  1  0
  4  5  1  0
  5  6  2  0
  6  7  1  0
  7  8  1  0
  8  9  1  0
  9 10  2  0
  9 11  1  0
 11 12  1  0
 12 13  1  0
 13 14  1  0
  7 15  2  0
 15  4  1  0
M  END
>  <energy_score>  (2718) 
-29.582128

>  <alias>  (2718) 
None

>  <HIPPO Pose ID>  (2718) 
75441

>  <smiles>  (2718) 
CCCn1cnc(NC(=O)CCCCl)c1

>  <inchikey>  (2718) 
HMAAWNISEWXICX-UHFFFAOYSA-N

>  <distance_score>  (2718) 
1.737934

>  <ref_mols>  (2718) 
Z0719a,Z1597a

>  <ref_pdb>  (2718) 
Z0719a

>  <HIPPO Compound ID>  (2718) 
149903

>  <name>  (2718) 
P75441

>  <inspiration_score>  (2718) 
None

$$$$
P75442
     RDKit          3D

 15 15  0  0  0  0  0  0  0  0999 V2000
   -4.7099    3.2864  -13.5308 C   0  0  0  0  0  0  0  0  0  0  0  0
   -6.1979    3.6378  -13.6903 C   0  0  0  0  0  0  0  0  0  0  0  0
   -7.0325    2.4482  -13.2372 C   0  0  0  0  0  0  0  0  0  0  0  0
   -6.5880    4.1285  -15.0142 N   0  0  0  0  0  0  0  0  0  0  0  0
   -7.8677    4.4091  -15.4344 C   0  0  0  0  0  0  0  0  0  0  0  0
   -7.8809    4.9804  -16.6214 N   0  0  0  0  0  0  0  0  0  0  0  0
   -6.5770    5.0498  -16.9880 C   0  0  0  0  0  0  0  0  0  0  0  0
   -6.1909    5.5848  -18.1656 N   0  0  0  0  0  0  0  0  0  0  0  0
   -4.7697    5.8578  -18.7322 C   0  0  0  0  0  0  0  0  0  0  0  0
   -3.7179    5.7325  -18.2346 O   0  0  0  0  0  0  0  0  0  0  0  0
   -4.9322    6.4025  -20.1328 C   0  0  0  0  0  0  0  0  0  0  0  0
   -4.9315    7.9123  -20.1784 C   0  0  0  0  0  0  0  0  0  0  0  0
   -5.1184    8.4034  -21.6066 C   0  0  0  0  0  0  0  0  0  0  0  0
   -5.2906   10.1747  -21.6315 Cl  0  0  0  0  0  0  0  0  0  0  0  0
   -5.7593    4.5368  -16.0216 C   0  0  0  0  0  0  0  0  0  0  0  0
  1  2  1  0
  2  3  1  0
  2  4  1  0
  4  5  1  0
  5  6  2  0
  6  7  1  0
  7  8  1  0
  8  9  1  0
  9 10  2  0
  9 11  1  0
 11 12  1  0
 12 13  1  0
 13 14  1  0
  7 15  2  0
 15  4  1  0
M  END
>  <energy_score>  (2719) 
-15.353127

>  <alias>  (2719) 
None

>  <HIPPO Pose ID>  (2719) 
75442

>  <smiles>  (2719) 
CC(C)n1cnc(NC(=O)CCCCl)c1

>  <inchikey>  (2719) 
SJKLLAMHBQRDAF-UHFFFAOYSA-N

>  <distance_score>  (2719) 
1.906432

>  <ref_mols>  (2719) 
Z0719a,Z1597a

>  <ref_pdb>  (2719) 
Z0719a

>  <HIPPO Compound ID>  (2719) 
149905

>  <name>  (2719) 
P75442

>  <inspiration_score>  (2719) 
None

$$$$
P75443
     RDKit          3D

 15 15  0  0  0  0  0  0  0  0999 V2000
   -3.3899    7.7358  -20.1693 C   0  0  0  0  0  0  0  0  0  0  0  0
   -4.1472    6.6286  -20.1800 C   0  0  0  0  0  0  0  0  0  0  0  0
   -3.8520    5.3041  -19.5177 C   0  0  1  0  0  0  0  0  0  0  0  0
   -2.1032    4.9246  -19.5270 Cl  0  0  0  0  0  0  0  0  0  0  0  0
   -4.4388    5.1924  -18.0955 C   0  0  0  0  0  0  0  0  0  0  0  0
   -3.7913    5.1933  -17.1201 O   0  0  0  0  0  0  0  0  0  0  0  0
   -5.9840    5.0516  -18.2846 N   0  0  0  0  0  0  0  0  0  0  0  0
   -6.9609    4.8056  -17.3804 C   0  0  0  0  0  0  0  0  0  0  0  0
   -8.2452    4.7598  -17.8353 N   0  0  0  0  0  0  0  0  0  0  0  0
   -8.9971    4.5692  -16.7748 C   0  0  0  0  0  0  0  0  0  0  0  0
   -8.2360    4.5167  -15.6532 N   0  0  0  0  0  0  0  0  0  0  0  0
   -8.6740    4.4985  -14.2817 C   0  0  0  0  0  0  0  0  0  0  0  0
   -6.9219    4.5768  -16.0304 C   0  0  0  0  0  0  0  0  0  0  0  0
   -5.8650    4.3838  -15.1179 C   0  0  0  0  0  0  0  0  0  0  0  0
   -5.1007    4.1573  -14.2767 N   0  0  0  0  0  0  0  0  0  0  0  0
  1  2  2  0
  2  3  1  0
  3  4  1  1
  3  5  1  0
  5  6  2  0
  5  7  1  0
  7  8  1  0
  8  9  1  0
  9 10  2  0
 10 11  1  0
 11 12  1  0
 11 13  1  0
 13 14  1  0
 14 15  3  0
 13  8  2  0
M  END
>  <energy_score>  (2720) 
-10.266927

>  <alias>  (2720) 
None

>  <HIPPO Pose ID>  (2720) 
75443

>  <smiles>  (2720) 
C=C[C@@H](Cl)C(=O)Nc1ncn(C)c1C#N

>  <inchikey>  (2720) 
DQNFNCKDEFCZKQ-ZCFIWIBFSA-N

>  <distance_score>  (2720) 
1.234218

>  <ref_mols>  (2720) 
Z0719a,Z1597a

>  <ref_pdb>  (2720) 
Z0719a

>  <HIPPO Compound ID>  (2720) 
149908

>  <name>  (2720) 
P75443

>  <inspiration_score>  (2720) 
None

$$$$
P75445
     RDKit          3D

 15 16  0  0  0  0  0  0  0  0999 V2000
   -3.7438    8.2799  -21.1476 C   0  0  0  0  0  0  0  0  0  0  0  0
   -4.3801    7.1411  -20.8341 C   0  0  0  0  0  0  0  0  0  0  0  0
   -3.9775    6.0717  -19.8518 C   0  0  1  0  0  0  0  0  0  0  0  0
   -2.2614    6.1826  -19.3513 Cl  0  0  0  0  0  0  0  0  0  0  0  0
   -4.8945    6.0636  -18.6118 C   0  0  0  0  0  0  0  0  0  0  0  0
   -4.5716    6.5095  -17.5750 O   0  0  0  0  0  0  0  0  0  0  0  0
   -6.2043    5.3032  -19.0284 N   0  0  0  0  0  0  0  0  0  0  0  0
   -7.2628    4.8860  -18.2756 C   0  0  0  0  0  0  0  0  0  0  0  0
   -8.4354    4.2344  -18.6313 C   0  0  0  0  0  0  0  0  0  0  0  0
   -9.1834    3.8611  -17.5238 N   0  0  0  0  0  0  0  0  0  0  0  0
   -8.4888    4.3273  -16.5214 C   0  0  0  0  0  0  0  0  0  0  0  0
   -7.3759    4.9857  -16.9395 N   0  0  0  0  0  0  0  0  0  0  0  0
   -6.6035    5.5253  -15.8493 C   0  0  0  0  0  0  0  0  0  0  0  0
   -7.5785    5.4284  -14.6797 C   0  0  0  0  0  0  0  0  0  0  0  0
   -8.5573    4.3048  -15.0521 C   0  0  0  0  0  0  0  0  0  0  0  0
  1  2  2  0
  2  3  1  0
  3  4  1  1
  3  5  1  0
  5  6  2  0
  5  7  1  0
  7  8  1  0
  8  9  2  0
  9 10  1  0
 10 11  2  0
 11 12  1  0
 12 13  1  0
 13 14  1  0
 14 15  1  0
 12  8  1  0
 15 11  1  0
M  END
>  <energy_score>  (2721) 
-25.851026

>  <alias>  (2721) 
None

>  <HIPPO Pose ID>  (2721) 
75445

>  <smiles>  (2721) 
C=C[C@@H](Cl)C(=O)Nc1cnc2n1CCC2

>  <inchikey>  (2721) 
ICPVYOZIDLHENW-SSDOTTSWSA-N

>  <distance_score>  (2721) 
1.415106

>  <ref_mols>  (2721) 
Z0719a,Z1597a

>  <ref_pdb>  (2721) 
Z0719a

>  <HIPPO Compound ID>  (2721) 
149914

>  <name>  (2721) 
P75445

>  <inspiration_score>  (2721) 
None

$$$$
P75446
     RDKit          3D

 15 15  0  0  0  0  0  0  0  0999 V2000
   -4.2754    6.4203  -19.5914 C   0  0  0  0  0  0  0  0  0  0  0  0
   -3.8967    5.0198  -19.1237 C   0  0  1  0  0  0  0  0  0  0  0  0
   -1.9752    4.7954  -19.4796 Br  0  0  0  0  0  0  0  0  0  0  0  0
   -4.2031    4.6836  -17.6443 C   0  0  0  0  0  0  0  0  0  0  0  0
   -3.4046    4.3728  -16.8498 O   0  0  0  0  0  0  0  0  0  0  0  0
   -5.7545    4.7802  -17.5321 N   0  0  0  0  0  0  0  0  0  0  0  0
   -6.5738    4.6158  -16.4606 C   0  0  0  0  0  0  0  0  0  0  0  0
   -7.8455    5.0556  -16.7895 N   0  0  0  0  0  0  0  0  0  0  0  0
   -8.5923    4.8148  -15.7456 C   0  0  0  0  0  0  0  0  0  0  0  0
   -7.8523    4.3150  -14.7302 N   0  0  0  0  0  0  0  0  0  0  0  0
   -8.2763    4.1510  -13.3609 C   0  0  0  0  0  0  0  0  0  0  0  0
   -6.5685    4.1073  -15.1801 C   0  0  0  0  0  0  0  0  0  0  0  0
   -5.5705    3.3179  -14.2731 C   0  0  0  0  0  0  0  0  0  0  0  0
   -6.0553    2.2720  -13.7274 O   0  0  0  0  0  0  0  0  0  0  0  0
   -4.4193    3.7913  -14.0687 O   0  0  0  0  0  0  0  0  0  0  0  0
  2  1  1  1
  2  3  1  0
  2  4  1  0
  4  5  2  0
  4  6  1  0
  6  7  1  0
  7  8  1  0
  8  9  2  0
  9 10  1  0
 10 11  1  0
 10 12  1  0
 12 13  1  0
 13 14  2  0
 13 15  1  0
 12  7  2  0
M  CHG  1  15  -1
M  END
>  <energy_score>  (2722) 
-11.73549

>  <alias>  (2722) 
None

>  <HIPPO Pose ID>  (2722) 
75446

>  <smiles>  (2722) 
C[C@@H](Br)C(=O)Nc1ncn(C)c1C(=O)[O-]

>  <inchikey>  (2722) 
ILOCETFCNISINW-SCSAIBSYSA-M

>  <distance_score>  (2722) 
1.727971

>  <ref_mols>  (2722) 
Z0719a,Z1597a

>  <ref_pdb>  (2722) 
Z0719a

>  <HIPPO Compound ID>  (2722) 
149918

>  <name>  (2722) 
P75446

>  <inspiration_score>  (2722) 
None

$$$$
P75448
     RDKit          3D

 15 15  0  0  0  0  0  0  0  0999 V2000
   -6.3808    4.1237  -13.8975 C   0  0  0  0  0  0  0  0  0  0  0  0
   -6.0824    4.9799  -15.1213 C   0  0  0  0  0  0  0  0  0  0  0  0
   -7.1710    5.1048  -16.0549 N   0  0  0  0  0  0  0  0  0  0  0  0
   -8.4970    5.2152  -15.7029 C   0  0  0  0  0  0  0  0  0  0  0  0
   -8.9734    5.7844  -14.4212 C   0  0  0  0  0  0  0  0  0  0  0  0
   -9.2581    4.7660  -16.6726 N   0  0  0  0  0  0  0  0  0  0  0  0
   -8.4213    4.5915  -17.7365 C   0  0  0  0  0  0  0  0  0  0  0  0
   -8.9791    4.1446  -19.0074 C   0  0  0  0  0  0  0  0  0  0  0  0
   -7.1262    4.9289  -17.4135 C   0  0  0  0  0  0  0  0  0  0  0  0
   -6.0565    5.0318  -18.2572 N   0  0  0  0  0  0  0  0  0  0  0  0
   -4.6473    5.6718  -18.0355 C   0  0  0  0  0  0  0  0  0  0  0  0
   -4.1682    6.1362  -17.0731 O   0  0  0  0  0  0  0  0  0  0  0  0
   -3.9514    5.5875  -19.3991 C   0  0  1  0  0  0  0  0  0  0  0  0
   -4.3080    6.7590  -20.2951 C   0  0  0  0  0  0  0  0  0  0  0  0
   -2.0154    5.5287  -19.1467 Br  0  0  0  0  0  0  0  0  0  0  0  0
  1  2  1  0
  2  3  1  0
  3  4  1  0
  4  5  1  0
  4  6  2  0
  6  7  1  0
  7  8  1  0
  7  9  2  0
  9 10  1  0
 10 11  1  0
 11 12  2  0
 11 13  1  0
 13 14  1  6
 13 15  1  0
  9  3  1  0
M  END
>  <energy_score>  (2723) 
-9.160889

>  <alias>  (2723) 
None

>  <HIPPO Pose ID>  (2723) 
75448

>  <smiles>  (2723) 
CCn1c(C)nc(C)c1NC(=O)[C@@H](C)Br

>  <inchikey>  (2723) 
LOTLMPRRPCNFAI-ZCFIWIBFSA-N

>  <distance_score>  (2723) 
1.323257

>  <ref_mols>  (2723) 
Z0719a,Z1597a

>  <ref_pdb>  (2723) 
Z0719a

>  <HIPPO Compound ID>  (2723) 
149919

>  <name>  (2723) 
P75448

>  <inspiration_score>  (2723) 
None

$$$$
P75454
     RDKit          3D

 15 15  0  0  0  0  0  0  0  0999 V2000
   -7.6970    5.0704  -13.9231 C   0  0  0  0  0  0  0  0  0  0  0  0
   -6.3751    4.6829  -14.3153 O   0  0  0  0  0  0  0  0  0  0  0  0
   -5.9991    4.5770  -15.6320 C   0  0  0  0  0  0  0  0  0  0  0  0
   -4.8205    4.3338  -15.8921 O   0  0  0  0  0  0  0  0  0  0  0  0
   -7.0241    4.7028  -16.6833 C   0  0  0  0  0  0  0  0  0  0  0  0
   -8.3692    4.3723  -16.5043 N   0  0  0  0  0  0  0  0  0  0  0  0
   -8.9267    4.4552  -17.6853 C   0  0  0  0  0  0  0  0  0  0  0  0
   -8.0131    4.7986  -18.6387 N   0  0  0  0  0  0  0  0  0  0  0  0
   -6.8130    5.0239  -18.0186 C   0  0  0  0  0  0  0  0  0  0  0  0
   -5.7364    5.4853  -18.7223 N   0  0  0  0  0  0  0  0  0  0  0  0
   -4.5582    6.4079  -18.2808 C   0  0  0  0  0  0  0  0  0  0  0  0
   -4.2923    6.8479  -17.2280 O   0  0  0  0  0  0  0  0  0  0  0  0
   -3.6645    6.7029  -19.4958 C   0  0  2  0  0  0  0  0  0  0  0  0
   -4.3719    7.3634  -20.6665 C   0  0  0  0  0  0  0  0  0  0  0  0
   -2.8277    5.2132  -20.0064 Cl  0  0  0  0  0  0  0  0  0  0  0  0
  1  2  1  0
  2  3  1  0
  3  4  2  0
  3  5  1  0
  5  6  1  0
  6  7  2  0
  7  8  1  0
  8  9  1  0
  9 10  1  0
 10 11  1  0
 11 12  2  0
 11 13  1  0
 13 14  1  6
 13 15  1  0
  9  5  2  0
M  END
>  <energy_score>  (2724) 
-0.468568

>  <alias>  (2724) 
None

>  <HIPPO Pose ID>  (2724) 
75454

>  <smiles>  (2724) 
COC(=O)c1nc[nH]c1NC(=O)[C@H](C)Cl

>  <inchikey>  (2724) 
FZKKPPQKSFCVPU-BYPYZUCNSA-N

>  <distance_score>  (2724) 
1.682682

>  <ref_mols>  (2724) 
Z0719a,Z1597a

>  <ref_pdb>  (2724) 
Z0719a

>  <HIPPO Compound ID>  (2724) 
149929

>  <name>  (2724) 
P75454

>  <inspiration_score>  (2724) 
None

$$$$
P75457
     RDKit          3D

 15 15  0  0  0  0  0  0  0  0999 V2000
   -4.1806    6.3462  -19.5417 C   0  0  0  0  0  0  0  0  0  0  0  0
   -3.7909    4.9875  -18.9669 C   0  0  1  0  0  0  0  0  0  0  0  0
   -2.0337    4.7456  -19.1683 Cl  0  0  0  0  0  0  0  0  0  0  0  0
   -4.2070    4.7880  -17.4816 C   0  0  0  0  0  0  0  0  0  0  0  0
   -3.4752    4.8113  -16.5711 O   0  0  0  0  0  0  0  0  0  0  0  0
   -5.7505    4.5679  -17.5317 N   0  0  0  0  0  0  0  0  0  0  0  0
   -6.6684    4.4341  -16.5126 C   0  0  0  0  0  0  0  0  0  0  0  0
   -6.7546    4.0506  -15.1700 C   0  0  0  0  0  0  0  0  0  0  0  0
   -5.8566    3.3327  -14.2807 N   0  0  0  0  0  0  0  0  0  0  0  0
   -6.3460    2.3793  -13.6477 O   0  0  0  0  0  0  0  0  0  0  0  0
   -4.6734    3.6816  -14.2161 O   0  0  0  0  0  0  0  0  0  0  0  0
   -8.0429    4.2475  -14.6878 N   0  0  0  0  0  0  0  0  0  0  0  0
   -8.7540    4.5848  -15.7229 C   0  0  0  0  0  0  0  0  0  0  0  0
   -7.9944    4.6488  -16.8398 N   0  0  0  0  0  0  0  0  0  0  0  0
   -8.5467    4.8686  -18.1461 C   0  0  0  0  0  0  0  0  0  0  0  0
  2  1  1  1
  2  3  1  0
  2  4  1  0
  4  5  2  0
  4  6  1  0
  6  7  1  0
  7  8  2  0
  8  9  1  0
  9 10  2  0
  9 11  1  0
  8 12  1  0
 12 13  2  0
 13 14  1  0
 14 15  1  0
 14  7  1  0
M  CHG  2   9   1  11  -1
M  END
>  <energy_score>  (2725) 
-5.631578

>  <alias>  (2725) 
None

>  <HIPPO Pose ID>  (2725) 
75457

>  <smiles>  (2725) 
C[C@@H](Cl)C(=O)Nc1c([N+](=O)[O-])ncn1C

>  <inchikey>  (2725) 
QSMHIFMDMCQVDO-SCSAIBSYSA-N

>  <distance_score>  (2725) 
1.929918

>  <ref_mols>  (2725) 
Z0719a,Z1597a

>  <ref_pdb>  (2725) 
Z0719a

>  <HIPPO Compound ID>  (2725) 
149934

>  <name>  (2725) 
P75457

>  <inspiration_score>  (2725) 
None

$$$$
P75459
     RDKit          3D

 15 16  0  0  0  0  0  0  0  0999 V2000
   -8.8548    2.7421  -11.0769 C   0  0  0  0  0  0  0  0  0  0  0  0
   -8.0937    3.9451  -10.9333 N   0  0  0  0  0  0  0  0  0  0  0  0
   -7.4475    4.3107   -9.7801 C   0  0  0  0  0  0  0  0  0  0  0  0
   -6.4639    5.1494  -10.0307 N   0  0  0  0  0  0  0  0  0  0  0  0
   -6.5098    5.3225  -11.3923 C   0  0  0  0  0  0  0  0  0  0  0  0
   -5.3654    5.6386  -12.2001 C   0  0  0  0  0  0  0  0  0  0  0  0
   -4.5242    5.6661  -13.0035 N   0  0  0  0  0  0  0  0  0  0  0  0
   -7.6333    4.7416  -11.9441 C   0  0  0  0  0  0  0  0  0  0  0  0
   -8.0408    4.8203  -13.2456 N   0  0  0  0  0  0  0  0  0  0  0  0
   -7.7538    5.8996  -14.3311 C   0  0  0  0  0  0  0  0  0  0  0  0
   -7.1878    6.9256  -14.2528 O   0  0  0  0  0  0  0  0  0  0  0  0
   -8.2207    5.4545  -15.7201 C   0  0  0  0  0  0  0  0  0  0  0  0
   -7.1800    5.8074  -16.8568 C   0  0  0  0  0  0  0  0  0  0  0  0
   -7.8707    4.4742  -17.8616 S   0  0  0  0  0  0  0  0  0  0  0  0
   -8.1610    3.9749  -16.1358 C   0  0  0  0  0  0  0  0  0  0  0  0
  1  2  1  0
  2  3  1  0
  3  4  2  0
  4  5  1  0
  5  6  1  0
  6  7  3  0
  5  8  2  0
  8  9  1  0
  9 10  1  0
 10 11  2  0
 10 12  1  0
 12 13  1  0
 13 14  1  0
 14 15  1  0
  8  2  1  0
 15 12  1  0
M  END
>  <energy_score>  (2726) 
-8.535049

>  <alias>  (2726) 
None

>  <HIPPO Pose ID>  (2726) 
75459

>  <smiles>  (2726) 
Cn1cnc(C#N)c1NC(=O)C1CSC1

>  <inchikey>  (2726) 
SKRDEFAMPGLPHR-UHFFFAOYSA-N

>  <distance_score>  (2726) 
1.496123

>  <ref_mols>  (2726) 
Z0719a,Z1597a

>  <ref_pdb>  (2726) 
Z0719a

>  <HIPPO Compound ID>  (2726) 
149937

>  <name>  (2726) 
P75459

>  <inspiration_score>  (2726) 
None

$$$$
P75461
     RDKit          3D

 15 16  0  0  0  0  0  0  0  0999 V2000
   -8.3992    7.1937  -11.9179 C   0  0  0  0  0  0  0  0  0  0  0  0
   -8.0366    5.8043  -11.5708 C   0  0  0  0  0  0  0  0  0  0  0  0
   -8.0386    5.4152  -10.2509 N   0  0  0  0  0  0  0  0  0  0  0  0
   -7.7396    4.1316  -10.2463 C   0  0  0  0  0  0  0  0  0  0  0  0
   -7.7164    3.2709   -9.0452 C   0  0  0  0  0  0  0  0  0  0  0  0
   -7.4283    3.7059  -11.5146 N   0  0  0  0  0  0  0  0  0  0  0  0
   -6.8143    2.4545  -11.9021 C   0  0  0  0  0  0  0  0  0  0  0  0
   -7.7074    4.7366  -12.3803 C   0  0  0  0  0  0  0  0  0  0  0  0
   -7.6186    4.5674  -13.7290 N   0  0  0  0  0  0  0  0  0  0  0  0
   -7.6985    5.5964  -14.8757 C   0  0  0  0  0  0  0  0  0  0  0  0
   -7.9299    6.7415  -14.8512 O   0  0  0  0  0  0  0  0  0  0  0  0
   -7.4144    4.8167  -16.1867 C   0  0  0  0  0  0  0  0  0  0  0  0
   -6.8210    5.6235  -17.3691 C   0  0  0  0  0  0  0  0  0  0  0  0
   -7.6692    4.5073  -18.5185 S   0  0  0  0  0  0  0  0  0  0  0  0
   -8.6708    4.4161  -17.0083 C   0  0  0  0  0  0  0  0  0  0  0  0
  1  2  1  0
  2  3  1  0
  3  4  2  0
  4  5  1  0
  4  6  1  0
  6  7  1  0
  6  8  1  0
  8  9  1  0
  9 10  1  0
 10 11  2  0
 10 12  1  0
 12 13  1  0
 13 14  1  0
 14 15  1  0
  8  2  2  0
 15 12  1  0
M  END
>  <energy_score>  (2727) 
-26.371156

>  <alias>  (2727) 
None

>  <HIPPO Pose ID>  (2727) 
75461

>  <smiles>  (2727) 
Cc1nc(C)n(C)c1NC(=O)C1CSC1

>  <inchikey>  (2727) 
QAUYWOYGYWZUGU-UHFFFAOYSA-N

>  <distance_score>  (2727) 
1.314867

>  <ref_mols>  (2727) 
Z0719a,Z1597a

>  <ref_pdb>  (2727) 
Z0719a

>  <HIPPO Compound ID>  (2727) 
149942

>  <name>  (2727) 
P75461

>  <inspiration_score>  (2727) 
None

$$$$
P75467
     RDKit          3D

 15 15  0  0  0  0  0  0  0  0999 V2000
   -4.8292    6.1981  -17.0289 O   0  0  0  0  0  0  0  0  0  0  0  0
   -5.1613    5.8486  -18.0925 C   0  0  0  0  0  0  0  0  0  0  0  0
   -4.2737    6.0367  -19.3189 C   0  0  0  0  0  0  0  0  0  0  0  0
   -4.7961    7.0093  -20.3724 C   0  0  0  0  0  0  0  0  0  0  0  0
   -4.9562    8.4273  -19.8458 C   0  0  0  0  0  0  0  0  0  0  0  0
   -6.0680    8.5083  -19.0681 F   0  0  0  0  0  0  0  0  0  0  0  0
   -6.4189    5.0659  -18.5447 N   0  0  0  0  0  0  0  0  0  0  0  0
   -7.5036    4.6605  -17.8407 C   0  0  0  0  0  0  0  0  0  0  0  0
   -8.6224    4.3412  -18.5574 N   0  0  0  0  0  0  0  0  0  0  0  0
   -9.5801    4.1521  -17.6799 C   0  0  0  0  0  0  0  0  0  0  0  0
   -9.0983    4.2160  -16.4120 N   0  0  0  0  0  0  0  0  0  0  0  0
   -7.7694    4.5222  -16.5098 C   0  0  0  0  0  0  0  0  0  0  0  0
   -7.0177    4.6089  -15.3289 N   0  0  0  0  0  0  0  0  0  0  0  0
   -5.9132    4.0602  -15.2867 O   0  0  0  0  0  0  0  0  0  0  0  0
   -7.5984    5.1693  -14.3945 O   0  0  0  0  0  0  0  0  0  0  0  0
  1  2  2  0
  2  3  1  0
  3  4  1  0
  4  5  1  0
  5  6  1  0
  2  7  1  0
  7  8  1  0
  8  9  1  0
  9 10  2  0
 10 11  1  0
 11 12  1  0
 12 13  1  0
 13 14  2  0
 13 15  1  0
 12  8  2  0
M  CHG  2  13   1  15  -1
M  END
>  <energy_score>  (2728) 
-32.049992

>  <alias>  (2728) 
None

>  <HIPPO Pose ID>  (2728) 
75467

>  <smiles>  (2728) 
O=C(CCCF)Nc1nc[nH]c1[N+](=O)[O-]

>  <inchikey>  (2728) 
QNLUVQZOOGZURS-UHFFFAOYSA-N

>  <distance_score>  (2728) 
1.509584

>  <ref_mols>  (2728) 
Z0719a,Z1597a

>  <ref_pdb>  (2728) 
Z0719a

>  <HIPPO Compound ID>  (2728) 
149952

>  <name>  (2728) 
P75467

>  <inspiration_score>  (2728) 
None

$$$$
P75468
     RDKit          3D

 15 17  0  0  0  0  0  0  0  0999 V2000
   -4.1795    6.4002  -17.2113 O   0  0  0  0  0  0  0  0  0  0  0  0
   -4.4149    6.0255  -18.2915 C   0  0  0  0  0  0  0  0  0  0  0  0
   -5.6417    5.2636  -18.8427 N   0  0  0  0  0  0  0  0  0  0  0  0
   -6.8127    4.9070  -18.2334 C   0  0  0  0  0  0  0  0  0  0  0  0
   -7.9573    4.2933  -18.7254 C   0  0  0  0  0  0  0  0  0  0  0  0
   -8.8540    3.9681  -17.7166 N   0  0  0  0  0  0  0  0  0  0  0  0
   -8.2676    4.4157  -16.6406 C   0  0  0  0  0  0  0  0  0  0  0  0
   -7.0944    5.0415  -16.9221 N   0  0  0  0  0  0  0  0  0  0  0  0
   -6.4528    5.5854  -15.7467 C   0  0  0  0  0  0  0  0  0  0  0  0
   -7.5692    5.5085  -14.7042 C   0  0  0  0  0  0  0  0  0  0  0  0
   -8.5129    4.3969  -15.1927 C   0  0  0  0  0  0  0  0  0  0  0  0
   -3.3458    6.1976  -19.3377 C   0  0  0  0  0  0  0  0  0  0  0  0
   -3.8701    7.3771  -21.0207 I   0  0  0  0  0  0  0  0  0  0  0  0
   -1.9045    6.3899  -18.8773 C   0  0  0  0  0  0  0  0  0  0  0  0
   -2.3117    5.1067  -19.5304 C   0  0  0  0  0  0  0  0  0  0  0  0
  1  2  2  0
  2  3  1  0
  3  4  1  0
  4  5  2  0
  5  6  1  0
  6  7  2  0
  7  8  1  0
  8  9  1  0
  9 10  1  0
 10 11  1  0
  2 12  1  0
 12 13  1  0
 12 14  1  0
 14 15  1  0
  8  4  1  0
 15 12  1  0
 11  7  1  0
M  END
>  <energy_score>  (2729) 
-11.906573

>  <alias>  (2729) 
None

>  <HIPPO Pose ID>  (2729) 
75468

>  <smiles>  (2729) 
O=C(Nc1cnc2n1CCC2)C1(I)CC1

>  <inchikey>  (2729) 
GKCLAIKQDOJNGV-UHFFFAOYSA-N

>  <distance_score>  (2729) 
1.303676

>  <ref_mols>  (2729) 
Z0719a,Z1597a

>  <ref_pdb>  (2729) 
Z0719a

>  <HIPPO Compound ID>  (2729) 
149953

>  <name>  (2729) 
P75468

>  <inspiration_score>  (2729) 
None

$$$$
P75471
     RDKit          3D

 15 16  0  0  0  0  0  0  0  0999 V2000
   -3.4844    7.9596  -22.5310 N   0  0  0  0  0  0  0  0  0  0  0  0
   -3.1899    6.8029  -21.7005 O   0  0  0  0  0  0  0  0  0  0  0  0
   -4.0783    6.8245  -20.5729 C   0  0  0  0  0  0  0  0  0  0  0  0
   -3.7135    5.6498  -19.6888 C   0  0  0  0  0  0  0  0  0  0  0  0
   -4.6391    5.5152  -18.5059 C   0  0  0  0  0  0  0  0  0  0  0  0
   -4.2750    5.7562  -17.4198 O   0  0  0  0  0  0  0  0  0  0  0  0
   -6.0015    4.9541  -19.0128 N   0  0  0  0  0  0  0  0  0  0  0  0
   -7.1548    4.6823  -18.3352 C   0  0  0  0  0  0  0  0  0  0  0  0
   -8.3956    4.2425  -18.7753 C   0  0  0  0  0  0  0  0  0  0  0  0
   -9.3197    4.1560  -17.7461 N   0  0  0  0  0  0  0  0  0  0  0  0
   -8.6489    4.5739  -16.7093 C   0  0  0  0  0  0  0  0  0  0  0  0
   -7.3411    4.7917  -17.0073 N   0  0  0  0  0  0  0  0  0  0  0  0
   -6.5539    5.1304  -15.8480 C   0  0  0  0  0  0  0  0  0  0  0  0
   -7.5038    4.7921  -14.6996 C   0  0  0  0  0  0  0  0  0  0  0  0
   -8.9165    4.8818  -15.2987 C   0  0  0  0  0  0  0  0  0  0  0  0
  1  2  1  0
  2  3  1  0
  3  4  1  0
  4  5  1  0
  5  6  2  0
  5  7  1  0
  7  8  1  0
  8  9  2  0
  9 10  1  0
 10 11  2  0
 11 12  1  0
 12 13  1  0
 13 14  1  0
 14 15  1  0
 12  8  1  0
 15 11  1  0
M  END
>  <energy_score>  (2730) 
-23.861278

>  <alias>  (2730) 
None

>  <HIPPO Pose ID>  (2730) 
75471

>  <smiles>  (2730) 
NOCCC(=O)Nc1cnc2n1CCC2

>  <inchikey>  (2730) 
XXJQADDGPPQROZ-UHFFFAOYSA-N

>  <distance_score>  (2730) 
1.273796

>  <ref_mols>  (2730) 
Z0719a,Z1597a

>  <ref_pdb>  (2730) 
Z0719a

>  <HIPPO Compound ID>  (2730) 
149958

>  <name>  (2730) 
P75471

>  <inspiration_score>  (2730) 
None

$$$$
P75473
     RDKit          3D

 15 15  0  0  0  0  0  0  0  0999 V2000
   -7.5746    3.3012  -14.4321 C   0  0  0  0  0  0  0  0  0  0  0  0
   -7.9788    3.8517  -15.7820 C   0  0  0  0  0  0  0  0  0  0  0  0
   -8.9383    3.4570  -16.6042 N   0  0  0  0  0  0  0  0  0  0  0  0
   -8.7630    4.1715  -17.7679 C   0  0  0  0  0  0  0  0  0  0  0  0
   -7.6973    5.0316  -17.6472 C   0  0  0  0  0  0  0  0  0  0  0  0
   -7.0604    5.7792  -18.5950 N   0  0  0  0  0  0  0  0  0  0  0  0
   -5.6708    6.4899  -18.5597 C   0  0  0  0  0  0  0  0  0  0  0  0
   -4.8988    6.6051  -17.6848 O   0  0  0  0  0  0  0  0  0  0  0  0
   -5.4165    7.0960  -19.9450 C   0  0  2  0  0  0  0  0  0  0  0  0
   -3.9981    6.8299  -20.4197 C   0  0  0  0  0  0  0  0  0  0  0  0
   -5.6402    9.0347  -19.7089 Br  0  0  0  0  0  0  0  0  0  0  0  0
   -7.3823    4.9728  -16.3144 N   0  0  0  0  0  0  0  0  0  0  0  0
   -6.8432    6.0224  -15.4815 C   0  0  0  0  0  0  0  0  0  0  0  0
   -7.6972    6.2465  -14.3011 C   0  0  0  0  0  0  0  0  0  0  0  0
   -8.3742    6.3618  -13.3640 N   0  0  0  0  0  0  0  0  0  0  0  0
  1  2  1  0
  2  3  2  0
  3  4  1  0
  4  5  2  0
  5  6  1  0
  6  7  1  0
  7  8  2  0
  7  9  1  0
  9 10  1  1
  9 11  1  0
  5 12  1  0
 12 13  1  0
 13 14  1  0
 14 15  3  0
 12  2  1  0
M  END
>  <energy_score>  (2731) 
-7.630167

>  <alias>  (2731) 
None

>  <HIPPO Pose ID>  (2731) 
75473

>  <smiles>  (2731) 
Cc1ncc(NC(=O)[C@H](C)Br)n1CC#N

>  <inchikey>  (2731) 
MKDVHBSAVAKMMX-LURJTMIESA-N

>  <distance_score>  (2731) 
1.597406

>  <ref_mols>  (2731) 
Z0719a,Z1597a

>  <ref_pdb>  (2731) 
Z0719a

>  <HIPPO Compound ID>  (2731) 
149960

>  <name>  (2731) 
P75473

>  <inspiration_score>  (2731) 
None

$$$$
P75479
     RDKit          3D

 15 15  0  0  0  0  0  0  0  0999 V2000
   -4.1471    7.6689  -21.8781 C   0  0  0  0  0  0  0  0  0  0  0  0
   -4.7633    7.3590  -20.5208 C   0  0  0  0  0  0  0  0  0  0  0  0
   -4.1405    6.1948  -19.7500 C   0  0  1  0  0  0  0  0  0  0  0  0
   -2.3545    6.3484  -19.6555 Cl  0  0  0  0  0  0  0  0  0  0  0  0
   -4.7302    6.0695  -18.3298 C   0  0  0  0  0  0  0  0  0  0  0  0
   -4.1163    6.3106  -17.3601 O   0  0  0  0  0  0  0  0  0  0  0  0
   -6.1952    5.5341  -18.4976 N   0  0  0  0  0  0  0  0  0  0  0  0
   -7.1053    5.1239  -17.5581 C   0  0  0  0  0  0  0  0  0  0  0  0
   -8.3069    4.4682  -17.7461 C   0  0  0  0  0  0  0  0  0  0  0  0
   -9.0063    4.1139  -18.9835 C   0  0  0  0  0  0  0  0  0  0  0  0
   -8.8338    4.0446  -16.5526 N   0  0  0  0  0  0  0  0  0  0  0  0
   -7.9787    4.4356  -15.6357 C   0  0  0  0  0  0  0  0  0  0  0  0
   -8.0041    4.0700  -14.1996 C   0  0  0  0  0  0  0  0  0  0  0  0
   -7.0122    5.2361  -16.1965 N   0  0  0  0  0  0  0  0  0  0  0  0
   -6.1634    6.1007  -15.4352 C   0  0  0  0  0  0  0  0  0  0  0  0
  1  2  1  0
  2  3  1  0
  3  4  1  1
  3  5  1  0
  5  6  2  0
  5  7  1  0
  7  8  1  0
  8  9  2  0
  9 10  1  0
  9 11  1  0
 11 12  2  0
 12 13  1  0
 12 14  1  0
 14 15  1  0
 14  8  1  0
M  END
>  <energy_score>  (2732) 
-14.936121

>  <alias>  (2732) 
None

>  <HIPPO Pose ID>  (2732) 
75479

>  <smiles>  (2732) 
CC[C@@H](Cl)C(=O)Nc1c(C)nc(C)n1C

>  <inchikey>  (2732) 
GSEKFAGQTQWWFW-MRVPVSSYSA-N

>  <distance_score>  (2732) 
1.397491

>  <ref_mols>  (2732) 
Z0719a,Z1597a

>  <ref_pdb>  (2732) 
Z0719a

>  <HIPPO Compound ID>  (2732) 
149971

>  <name>  (2732) 
P75479

>  <inspiration_score>  (2732) 
None

$$$$
P75481
     RDKit          3D

 15 15  0  0  0  0  0  0  0  0999 V2000
   -3.8338    7.4773  -21.3186 C   0  0  0  0  0  0  0  0  0  0  0  0
   -4.6724    7.0566  -20.1211 C   0  0  0  0  0  0  0  0  0  0  0  0
   -4.1851    5.8196  -19.3571 C   0  0  1  0  0  0  0  0  0  0  0  0
   -2.4515    5.9441  -18.9202 Cl  0  0  0  0  0  0  0  0  0  0  0  0
   -5.0255    5.6055  -18.0751 C   0  0  0  0  0  0  0  0  0  0  0  0
   -4.6707    5.9257  -17.0078 O   0  0  0  0  0  0  0  0  0  0  0  0
   -6.3427    4.9128  -18.5347 N   0  0  0  0  0  0  0  0  0  0  0  0
   -7.4547    4.5828  -17.8330 C   0  0  0  0  0  0  0  0  0  0  0  0
   -8.5785    4.3157  -18.5630 N   0  0  0  0  0  0  0  0  0  0  0  0
   -9.5559    4.1709  -17.6987 C   0  0  0  0  0  0  0  0  0  0  0  0
   -9.0913    4.2318  -16.4244 N   0  0  0  0  0  0  0  0  0  0  0  0
   -7.7496    4.4849  -16.5043 C   0  0  0  0  0  0  0  0  0  0  0  0
   -7.0208    4.5784  -15.3096 N   0  0  0  0  0  0  0  0  0  0  0  0
   -5.9462    3.9808  -15.2214 O   0  0  0  0  0  0  0  0  0  0  0  0
   -7.5937    5.2063  -14.4140 O   0  0  0  0  0  0  0  0  0  0  0  0
  1  2  1  0
  2  3  1  0
  3  4  1  1
  3  5  1  0
  5  6  2  0
  5  7  1  0
  7  8  1  0
  8  9  1  0
  9 10  2  0
 10 11  1  0
 11 12  1  0
 12 13  1  0
 13 14  2  0
 13 15  1  0
 12  8  2  0
M  CHG  2  13   1  15  -1
M  END
>  <energy_score>  (2733) 
-28.22348

>  <alias>  (2733) 
None

>  <HIPPO Pose ID>  (2733) 
75481

>  <smiles>  (2733) 
CC[C@@H](Cl)C(=O)Nc1nc[nH]c1[N+](=O)[O-]

>  <inchikey>  (2733) 
VLFCYFZKDKTEQY-SCSAIBSYSA-N

>  <distance_score>  (2733) 
1.48344

>  <ref_mols>  (2733) 
Z0719a,Z1597a

>  <ref_pdb>  (2733) 
Z0719a

>  <HIPPO Compound ID>  (2733) 
149972

>  <name>  (2733) 
P75481

>  <inspiration_score>  (2733) 
None

$$$$
P75491
     RDKit          3D

 15 15  0  0  0  0  0  0  0  0999 V2000
   -8.7124    4.4798  -14.6528 C   0  0  0  0  0  0  0  0  0  0  0  0
   -8.1399    4.5336  -15.9711 N   0  0  0  0  0  0  0  0  0  0  0  0
   -8.8010    4.6395  -17.1502 C   0  0  0  0  0  0  0  0  0  0  0  0
   -7.9553    4.8781  -18.1277 N   0  0  0  0  0  0  0  0  0  0  0  0
   -6.7113    4.8900  -17.5651 C   0  0  0  0  0  0  0  0  0  0  0  0
   -5.6572    5.1945  -18.3672 N   0  0  0  0  0  0  0  0  0  0  0  0
   -4.1557    5.3930  -18.0268 C   0  0  0  0  0  0  0  0  0  0  0  0
   -3.5820    5.2496  -17.0178 O   0  0  0  0  0  0  0  0  0  0  0  0
   -3.3957    5.8646  -19.3034 C   0  0  1  0  0  0  0  0  0  0  0  0
   -3.4248    5.0110  -20.4317 O   0  0  0  0  0  0  0  0  0  0  0  0
   -3.6646    7.3084  -19.6961 C   0  0  0  0  0  0  0  0  0  0  0  0
   -5.3575    7.5925  -20.5912 Br  0  0  0  0  0  0  0  0  0  0  0  0
   -6.7964    4.6056  -16.2251 C   0  0  0  0  0  0  0  0  0  0  0  0
   -5.8295    4.3977  -15.2191 C   0  0  0  0  0  0  0  0  0  0  0  0
   -5.1402    4.1692  -14.3156 N   0  0  0  0  0  0  0  0  0  0  0  0
  1  2  1  0
  2  3  1  0
  3  4  2  0
  4  5  1  0
  5  6  1  0
  6  7  1  0
  7  8  2  0
  7  9  1  0
  9 10  1  6
  9 11  1  0
 11 12  1  0
  5 13  2  0
 13 14  1  0
 14 15  3  0
 13  2  1  0
M  END
>  <energy_score>  (2734) 
-30.399316

>  <alias>  (2734) 
None

>  <HIPPO Pose ID>  (2734) 
75491

>  <smiles>  (2734) 
Cn1cnc(NC(=O)[C@@H](O)CBr)c1C#N

>  <inchikey>  (2734) 
MVRTZHZFMGVQMN-LURJTMIESA-N

>  <distance_score>  (2734) 
1.7177

>  <ref_mols>  (2734) 
Z0719a,Z1597a

>  <ref_pdb>  (2734) 
Z0719a

>  <HIPPO Compound ID>  (2734) 
149986

>  <name>  (2734) 
P75491

>  <inspiration_score>  (2734) 
None

$$$$
P75492
     RDKit          3D

 15 16  0  0  0  0  0  0  0  0999 V2000
   -3.2410    8.3905  -18.3746 O   0  0  0  0  0  0  0  0  0  0  0  0
   -3.5238    7.4463  -19.0010 C   0  0  0  0  0  0  0  0  0  0  0  0
   -2.9548    7.1739  -20.3758 C   0  0  0  0  0  0  0  0  0  0  0  0
   -3.9834    7.5372  -21.4264 C   0  0  0  0  0  0  0  0  0  0  0  0
   -3.2767    7.3300  -23.0476 Cl  0  0  0  0  0  0  0  0  0  0  0  0
   -4.5265    6.3016  -18.6978 N   0  0  0  0  0  0  0  0  0  0  0  0
   -5.2661    6.0521  -17.5939 C   0  0  0  0  0  0  0  0  0  0  0  0
   -6.0311    4.9318  -17.4158 C   0  0  0  0  0  0  0  0  0  0  0  0
   -6.7375    5.1896  -16.2758 N   0  0  0  0  0  0  0  0  0  0  0  0
   -7.8915    4.4463  -15.8253 C   0  0  0  0  0  0  0  0  0  0  0  0
   -9.0882    4.8038  -16.6523 C   0  0  0  0  0  0  0  0  0  0  0  0
   -9.8058    3.7817  -17.4859 C   0  0  0  0  0  0  0  0  0  0  0  0
   -9.0887    4.8744  -18.1784 C   0  0  0  0  0  0  0  0  0  0  0  0
   -6.2868    6.3645  -15.7567 C   0  0  0  0  0  0  0  0  0  0  0  0
   -5.3925    6.9113  -16.5475 N   0  0  0  0  0  0  0  0  0  0  0  0
  1  2  2  0
  2  3  1  0
  3  4  1  0
  4  5  1  0
  2  6  1  0
  6  7  1  0
  7  8  2  0
  8  9  1  0
  9 10  1  0
 10 11  1  0
 11 12  1  0
 12 13  1  0
  9 14  1  0
 14 15  2  0
 15  7  1  0
 13 11  1  0
M  END
>  <energy_score>  (2735) 
-18.286447

>  <alias>  (2735) 
None

>  <HIPPO Pose ID>  (2735) 
75492

>  <smiles>  (2735) 
O=C(CCCl)Nc1cn(CC2CC2)cn1

>  <inchikey>  (2735) 
SJOSIFXLHUSQGB-UHFFFAOYSA-N

>  <distance_score>  (2735) 
1.999588

>  <ref_mols>  (2735) 
Z0719a,Z1597a

>  <ref_pdb>  (2735) 
Z0719a

>  <HIPPO Compound ID>  (2735) 
149988

>  <name>  (2735) 
P75492

>  <inspiration_score>  (2735) 
None

$$$$
P75493
     RDKit          3D

 15 15  0  0  0  0  0  0  0  0999 V2000
   -5.4761    5.0172  -14.3225 C   0  0  0  0  0  0  0  0  0  0  0  0
   -6.3241    5.9350  -15.1733 C   0  0  0  0  0  0  0  0  0  0  0  0
   -7.2018    5.2138  -16.0502 N   0  0  0  0  0  0  0  0  0  0  0  0
   -8.3993    4.6916  -15.6059 C   0  0  0  0  0  0  0  0  0  0  0  0
   -8.7725    4.6295  -14.1721 C   0  0  0  0  0  0  0  0  0  0  0  0
   -9.1286    4.2816  -16.6141 N   0  0  0  0  0  0  0  0  0  0  0  0
   -8.3631    4.5031  -17.7242 C   0  0  0  0  0  0  0  0  0  0  0  0
   -8.9027    4.1219  -19.0262 C   0  0  0  0  0  0  0  0  0  0  0  0
   -7.1173    5.0062  -17.4016 C   0  0  0  0  0  0  0  0  0  0  0  0
   -6.0735    5.1923  -18.2743 N   0  0  0  0  0  0  0  0  0  0  0  0
   -4.5936    5.5935  -18.0086 C   0  0  0  0  0  0  0  0  0  0  0  0
   -4.0584    5.9012  -17.0151 O   0  0  0  0  0  0  0  0  0  0  0  0
   -3.8522    5.5188  -19.3289 C   0  0  0  0  0  0  0  0  0  0  0  0
   -4.1228    6.7458  -20.1776 C   0  0  0  0  0  0  0  0  0  0  0  0
   -2.9155    6.8592  -21.4860 Cl  0  0  0  0  0  0  0  0  0  0  0  0
  1  2  1  0
  2  3  1  0
  3  4  1  0
  4  5  1  0
  4  6  2  0
  6  7  1  0
  7  8  1  0
  7  9  2  0
  9 10  1  0
 10 11  1  0
 11 12  2  0
 11 13  1  0
 13 14  1  0
 14 15  1  0
  9  3  1  0
M  END
>  <energy_score>  (2736) 
-18.506671

>  <alias>  (2736) 
None

>  <HIPPO Pose ID>  (2736) 
75493

>  <smiles>  (2736) 
CCn1c(C)nc(C)c1NC(=O)CCCl

>  <inchikey>  (2736) 
GNHYJXCNTHTJFL-UHFFFAOYSA-N

>  <distance_score>  (2736) 
1.644068

>  <ref_mols>  (2736) 
Z0719a,Z1597a

>  <ref_pdb>  (2736) 
Z0719a

>  <HIPPO Compound ID>  (2736) 
149991

>  <name>  (2736) 
P75493

>  <inspiration_score>  (2736) 
None

$$$$
P75494
     RDKit          3D

 15 16  0  0  0  0  0  0  0  0999 V2000
   -3.7733    7.8946  -18.7518 O   0  0  0  0  0  0  0  0  0  0  0  0
   -4.0664    7.1605  -19.6130 C   0  0  0  0  0  0  0  0  0  0  0  0
   -3.3737    7.1858  -20.9500 C   0  0  0  0  0  0  0  0  0  0  0  0
   -4.3045    7.6844  -22.0279 C   0  0  0  0  0  0  0  0  0  0  0  0
   -3.4924    7.5880  -23.6106 Cl  0  0  0  0  0  0  0  0  0  0  0  0
   -5.1433    6.0407  -19.6593 N   0  0  0  0  0  0  0  0  0  0  0  0
   -5.9558    5.5670  -18.6925 C   0  0  0  0  0  0  0  0  0  0  0  0
   -6.9965    4.6928  -18.8690 C   0  0  0  0  0  0  0  0  0  0  0  0
   -7.5994    4.6286  -17.6512 N   0  0  0  0  0  0  0  0  0  0  0  0
   -8.7786    4.0221  -17.3831 N   0  0  0  0  0  0  0  0  0  0  0  0
   -9.1032    4.1477  -16.1400 C   0  0  0  0  0  0  0  0  0  0  0  0
   -8.3079    4.7761  -15.0639 C   0  0  0  0  0  0  0  0  0  0  0  0
   -7.1678    5.3710  -15.4189 C   0  0  0  0  0  0  0  0  0  0  0  0
   -6.8019    5.3541  -16.7768 C   0  0  0  0  0  0  0  0  0  0  0  0
   -5.8168    5.9563  -17.3987 N   0  0  0  0  0  0  0  0  0  0  0  0
  1  2  2  0
  2  3  1  0
  3  4  1  0
  4  5  1  0
  2  6  1  0
  6  7  1  0
  7  8  2  0
  8  9  1  0
  9 10  1  0
 10 11  2  0
 11 12  1  0
 12 13  2  0
 13 14  1  0
 14 15  2  0
 15  7  1  0
 14  9  1  0
M  END
>  <energy_score>  (2737) 
-41.965252

>  <alias>  (2737) 
None

>  <HIPPO Pose ID>  (2737) 
75494

>  <smiles>  (2737) 
O=C(CCCl)Nc1cn2ncccc2n1

>  <inchikey>  (2737) 
NVKXNKWRCFZGMB-UHFFFAOYSA-N

>  <distance_score>  (2737) 
1.843038

>  <ref_mols>  (2737) 
Z0719a,Z1597a

>  <ref_pdb>  (2737) 
Z0719a

>  <HIPPO Compound ID>  (2737) 
149994

>  <name>  (2737) 
P75494

>  <inspiration_score>  (2737) 
None

$$$$
P75497
     RDKit          3D

 15 15  0  0  0  0  0  0  0  0999 V2000
   -5.9507    2.4313  -12.9984 C   0  0  0  0  0  0  0  0  0  0  0  0
   -5.9319    3.6743  -13.8764 C   0  0  0  0  0  0  0  0  0  0  0  0
   -5.4896    4.8821  -13.0455 C   0  0  0  0  0  0  0  0  0  0  0  0
   -7.3374    3.9210  -14.5047 C   0  0  0  0  0  0  0  0  0  0  0  0
   -7.3556    4.4537  -15.8552 N   0  0  0  0  0  0  0  0  0  0  0  0
   -8.3444    4.2827  -16.7827 C   0  0  0  0  0  0  0  0  0  0  0  0
   -7.9549    4.6976  -17.9718 N   0  0  0  0  0  0  0  0  0  0  0  0
   -6.7174    5.2160  -17.7788 C   0  0  0  0  0  0  0  0  0  0  0  0
   -5.9231    5.6675  -18.7740 N   0  0  0  0  0  0  0  0  0  0  0  0
   -4.5524    6.3983  -18.7182 C   0  0  0  0  0  0  0  0  0  0  0  0
   -3.9384    6.7898  -17.8019 O   0  0  0  0  0  0  0  0  0  0  0  0
   -3.9741    6.4755  -20.1128 C   0  0  0  0  0  0  0  0  0  0  0  0
   -4.7688    7.3627  -21.0384 C   0  0  0  0  0  0  0  0  0  0  0  0
   -3.8702    7.6211  -22.5574 Cl  0  0  0  0  0  0  0  0  0  0  0  0
   -6.3619    5.1572  -16.4626 C   0  0  0  0  0  0  0  0  0  0  0  0
  1  2  1  0
  2  3  1  0
  2  4  1  0
  4  5  1  0
  5  6  1  0
  6  7  2  0
  7  8  1  0
  8  9  1  0
  9 10  1  0
 10 11  2  0
 10 12  1  0
 12 13  1  0
 13 14  1  0
  8 15  2  0
 15  5  1  0
M  END
>  <energy_score>  (2738) 
-4.091087

>  <alias>  (2738) 
None

>  <HIPPO Pose ID>  (2738) 
75497

>  <smiles>  (2738) 
CC(C)Cn1cnc(NC(=O)CCCl)c1

>  <inchikey>  (2738) 
OCZYQMFACRMAQV-UHFFFAOYSA-N

>  <distance_score>  (2738) 
1.687095

>  <ref_mols>  (2738) 
Z0719a,Z1597a

>  <ref_pdb>  (2738) 
Z0719a

>  <HIPPO Compound ID>  (2738) 
149997

>  <name>  (2738) 
P75497

>  <inspiration_score>  (2738) 
None

$$$$
P75498
     RDKit          3D

 15 15  0  0  0  0  0  0  0  0999 V2000
   -3.7228    7.9200  -19.6010 C   0  0  0  0  0  0  0  0  0  0  0  0
   -4.1956    6.6605  -20.3189 C   0  0  0  0  0  0  0  0  0  0  0  0
   -3.8173    5.3698  -19.5845 C   0  0  1  0  0  0  0  0  0  0  0  0
   -2.3909    5.2669  -19.5358 O   0  0  0  0  0  0  0  0  0  0  0  0
   -4.4591    5.2498  -18.1863 C   0  0  0  0  0  0  0  0  0  0  0  0
   -3.8190    5.3306  -17.2101 O   0  0  0  0  0  0  0  0  0  0  0  0
   -5.9859    5.0358  -18.3739 N   0  0  0  0  0  0  0  0  0  0  0  0
   -6.9598    4.7982  -17.4623 C   0  0  0  0  0  0  0  0  0  0  0  0
   -8.2485    4.7742  -17.9066 N   0  0  0  0  0  0  0  0  0  0  0  0
   -8.9966    4.5761  -16.8444 C   0  0  0  0  0  0  0  0  0  0  0  0
   -8.2291    4.5112  -15.7279 N   0  0  0  0  0  0  0  0  0  0  0  0
   -8.6625    4.4868  -14.3551 C   0  0  0  0  0  0  0  0  0  0  0  0
   -6.9163    4.5680  -16.1118 C   0  0  0  0  0  0  0  0  0  0  0  0
   -5.8543    4.3751  -15.2051 C   0  0  0  0  0  0  0  0  0  0  0  0
   -5.0745    4.1570  -14.3756 N   0  0  0  0  0  0  0  0  0  0  0  0
  1  2  1  0
  2  3  1  0
  3  4  1  1
  3  5  1  0
  5  6  2  0
  5  7  1  0
  7  8  1  0
  8  9  1  0
  9 10  2  0
 10 11  1  0
 11 12  1  0
 11 13  1  0
 13 14  1  0
 14 15  3  0
 13  8  2  0
M  END
>  <energy_score>  (2739) 
-26.674545

>  <alias>  (2739) 
None

>  <HIPPO Pose ID>  (2739) 
75498

>  <smiles>  (2739) 
CC[C@@H](O)C(=O)Nc1ncn(C)c1C#N

>  <inchikey>  (2739) 
TXUNIFTZVPEFRS-SSDOTTSWSA-N

>  <distance_score>  (2739) 
1.731745

>  <ref_mols>  (2739) 
Z0719a,Z1597a

>  <ref_pdb>  (2739) 
Z0719a

>  <HIPPO Compound ID>  (2739) 
150000

>  <name>  (2739) 
P75498

>  <inspiration_score>  (2739) 
None

$$$$
P75502
     RDKit          3D

 15 15  0  0  0  0  0  0  0  0999 V2000
   -4.2245    8.2664  -19.9226 C   0  0  0  0  0  0  0  0  0  0  0  0
   -4.4901    6.8933  -20.5302 C   0  0  0  0  0  0  0  0  0  0  0  0
   -3.9178    5.7442  -19.7006 C   0  0  1  0  0  0  0  0  0  0  0  0
   -2.4938    5.8725  -19.6445 O   0  0  0  0  0  0  0  0  0  0  0  0
   -4.5496    5.6343  -18.2968 C   0  0  0  0  0  0  0  0  0  0  0  0
   -3.9244    5.8504  -17.3279 O   0  0  0  0  0  0  0  0  0  0  0  0
   -6.0145    5.1160  -18.4618 N   0  0  0  0  0  0  0  0  0  0  0  0
   -6.9822    4.8645  -17.5208 C   0  0  0  0  0  0  0  0  0  0  0  0
   -8.2947    4.4823  -17.7371 C   0  0  0  0  0  0  0  0  0  0  0  0
   -9.0074    4.1848  -18.9831 C   0  0  0  0  0  0  0  0  0  0  0  0
   -8.9796    4.3478  -16.5600 N   0  0  0  0  0  0  0  0  0  0  0  0
   -8.1028    4.5852  -15.6162 C   0  0  0  0  0  0  0  0  0  0  0  0
   -8.3568    4.5304  -14.1604 C   0  0  0  0  0  0  0  0  0  0  0  0
   -6.8676    4.8642  -16.1537 N   0  0  0  0  0  0  0  0  0  0  0  0
   -5.6787    4.9757  -15.3655 C   0  0  0  0  0  0  0  0  0  0  0  0
  1  2  1  0
  2  3  1  0
  3  4  1  1
  3  5  1  0
  5  6  2  0
  5  7  1  0
  7  8  1  0
  8  9  2  0
  9 10  1  0
  9 11  1  0
 11 12  2  0
 12 13  1  0
 12 14  1  0
 14 15  1  0
 14  8  1  0
M  END
>  <energy_score>  (2740) 
-22.502314

>  <alias>  (2740) 
None

>  <HIPPO Pose ID>  (2740) 
75502

>  <smiles>  (2740) 
CC[C@@H](O)C(=O)Nc1c(C)nc(C)n1C

>  <inchikey>  (2740) 
SQEITBHSPRCRPQ-MRVPVSSYSA-N

>  <distance_score>  (2740) 
1.343672

>  <ref_mols>  (2740) 
Z0719a,Z1597a

>  <ref_pdb>  (2740) 
Z0719a

>  <HIPPO Compound ID>  (2740) 
150007

>  <name>  (2740) 
P75502

>  <inspiration_score>  (2740) 
None

$$$$
P75504
     RDKit          3D

 15 15  0  0  0  0  0  0  0  0999 V2000
   -7.5979    3.2511  -14.3395 C   0  0  0  0  0  0  0  0  0  0  0  0
   -8.0211    3.7986  -15.6832 C   0  0  0  0  0  0  0  0  0  0  0  0
   -9.0275    3.4384  -16.4645 N   0  0  0  0  0  0  0  0  0  0  0  0
   -8.8597    4.1155  -17.6485 C   0  0  0  0  0  0  0  0  0  0  0  0
   -7.7358    4.9014  -17.5886 C   0  0  0  0  0  0  0  0  0  0  0  0
   -7.0957    5.5920  -18.5698 N   0  0  0  0  0  0  0  0  0  0  0  0
   -5.6438    6.1706  -18.6215 C   0  0  0  0  0  0  0  0  0  0  0  0
   -4.8112    6.2054  -17.7981 O   0  0  0  0  0  0  0  0  0  0  0  0
   -5.5123    6.8290  -20.0068 C   0  0  2  0  0  0  0  0  0  0  0  0
   -4.0754    7.1108  -20.3974 C   0  0  0  0  0  0  0  0  0  0  0  0
   -6.2454    8.0560  -19.9407 O   0  0  0  0  0  0  0  0  0  0  0  0
   -7.3711    4.8594  -16.2698 N   0  0  0  0  0  0  0  0  0  0  0  0
   -6.7581    5.9084  -15.4887 C   0  0  0  0  0  0  0  0  0  0  0  0
   -7.5825    6.2175  -14.3064 C   0  0  0  0  0  0  0  0  0  0  0  0
   -8.2452    6.3938  -13.3686 N   0  0  0  0  0  0  0  0  0  0  0  0
  1  2  1  0
  2  3  2  0
  3  4  1  0
  4  5  2  0
  5  6  1  0
  6  7  1  0
  7  8  2  0
  7  9  1  0
  9 10  1  1
  9 11  1  0
  5 12  1  0
 12 13  1  0
 13 14  1  0
 14 15  3  0
 12  2  1  0
M  END
>  <energy_score>  (2741) 
-5.484533

>  <alias>  (2741) 
None

>  <HIPPO Pose ID>  (2741) 
75504

>  <smiles>  (2741) 
Cc1ncc(NC(=O)[C@H](C)O)n1CC#N

>  <inchikey>  (2741) 
USADXEDIUCMHEW-LURJTMIESA-N

>  <distance_score>  (2741) 
1.911245

>  <ref_mols>  (2741) 
Z0719a,Z1597a

>  <ref_pdb>  (2741) 
Z0719a

>  <HIPPO Compound ID>  (2741) 
150012

>  <name>  (2741) 
P75504

>  <inspiration_score>  (2741) 
None

$$$$
P75506
     RDKit          3D

 15 15  0  0  0  0  0  0  0  0999 V2000
   -4.0163    6.2966  -19.5145 C   0  0  0  0  0  0  0  0  0  0  0  0
   -3.7531    4.8825  -19.0069 C   0  0  1  0  0  0  0  0  0  0  0  0
   -2.3706    4.5989  -19.2057 O   0  0  0  0  0  0  0  0  0  0  0  0
   -4.2023    4.6277  -17.5304 C   0  0  0  0  0  0  0  0  0  0  0  0
   -3.4574    4.3704  -16.6681 O   0  0  0  0  0  0  0  0  0  0  0  0
   -5.7501    4.7443  -17.5212 N   0  0  0  0  0  0  0  0  0  0  0  0
   -6.6623    4.4872  -16.5180 C   0  0  0  0  0  0  0  0  0  0  0  0
   -6.7477    4.0233  -15.2005 C   0  0  0  0  0  0  0  0  0  0  0  0
   -5.8145    3.3853  -14.2896 N   0  0  0  0  0  0  0  0  0  0  0  0
   -6.2235    2.3697  -13.6973 O   0  0  0  0  0  0  0  0  0  0  0  0
   -4.6921    3.8805  -14.1439 O   0  0  0  0  0  0  0  0  0  0  0  0
   -8.0557    4.1020  -14.7383 N   0  0  0  0  0  0  0  0  0  0  0  0
   -8.7731    4.4414  -15.7674 C   0  0  0  0  0  0  0  0  0  0  0  0
   -7.9966    4.6512  -16.8537 N   0  0  0  0  0  0  0  0  0  0  0  0
   -8.5421    4.9011  -18.1580 C   0  0  0  0  0  0  0  0  0  0  0  0
  2  1  1  1
  2  3  1  0
  2  4  1  0
  4  5  2  0
  4  6  1  0
  6  7  1  0
  7  8  2  0
  8  9  1  0
  9 10  2  0
  9 11  1  0
  8 12  1  0
 12 13  2  0
 13 14  1  0
 14 15  1  0
 14  7  1  0
M  CHG  2   9   1  11  -1
M  END
>  <energy_score>  (2742) 
-20.243649

>  <alias>  (2742) 
None

>  <HIPPO Pose ID>  (2742) 
75506

>  <smiles>  (2742) 
C[C@@H](O)C(=O)Nc1c([N+](=O)[O-])ncn1C

>  <inchikey>  (2742) 
PRMJCJMKOGSGAU-SCSAIBSYSA-N

>  <distance_score>  (2742) 
1.971773

>  <ref_mols>  (2742) 
Z0719a,Z1597a

>  <ref_pdb>  (2742) 
Z0719a

>  <HIPPO Compound ID>  (2742) 
150023

>  <name>  (2742) 
P75506

>  <inspiration_score>  (2742) 
None

$$$$
P75512
     RDKit          3D

 15 16  0  0  0  0  0  0  0  0999 V2000
   -3.0126    8.2321  -21.5737 C   0  0  0  0  0  0  0  0  0  0  0  0
   -3.4991    6.8457  -21.2356 C   0  0  1  0  0  0  0  0  0  0  0  0
   -2.4282    5.9099  -21.4331 O   0  0  0  0  0  0  0  0  0  0  0  0
   -3.9346    6.7732  -19.7703 C   0  0  0  0  0  0  0  0  0  0  0  0
   -3.3208    7.2894  -18.9189 O   0  0  0  0  0  0  0  0  0  0  0  0
   -5.2304    5.9228  -19.7021 N   0  0  0  0  0  0  0  0  0  0  0  0
   -5.9357    5.4836  -18.6377 C   0  0  0  0  0  0  0  0  0  0  0  0
   -7.1070    4.7725  -18.6717 C   0  0  0  0  0  0  0  0  0  0  0  0
   -7.5015    4.7191  -17.3676 N   0  0  0  0  0  0  0  0  0  0  0  0
   -8.6962    4.3063  -16.8161 C   0  0  0  0  0  0  0  0  0  0  0  0
   -8.8361    4.3906  -15.4910 C   0  0  0  0  0  0  0  0  0  0  0  0
   -7.6487    4.8463  -14.7327 C   0  0  0  0  0  0  0  0  0  0  0  0
   -6.5333    5.2676  -15.2322 N   0  0  0  0  0  0  0  0  0  0  0  0
   -6.4686    5.2564  -16.5945 C   0  0  0  0  0  0  0  0  0  0  0  0
   -5.5383    5.7631  -17.3699 N   0  0  0  0  0  0  0  0  0  0  0  0
  2  1  1  1
  2  3  1  0
  2  4  1  0
  4  5  2  0
  4  6  1  0
  6  7  1  0
  7  8  2  0
  8  9  1  0
  9 10  1  0
 10 11  2  0
 11 12  1  0
 12 13  2  0
 13 14  1  0
 14 15  2  0
 15  7  1  0
 14  9  1  0
M  END
>  <energy_score>  (2743) 
-23.178917

>  <alias>  (2743) 
None

>  <HIPPO Pose ID>  (2743) 
75512

>  <smiles>  (2743) 
C[C@@H](O)C(=O)Nc1cn2cccnc2n1

>  <inchikey>  (2743) 
PDSBJYFNSZLXQC-ZCFIWIBFSA-N

>  <distance_score>  (2743) 
1.756536

>  <ref_mols>  (2743) 
Z0719a,Z1597a

>  <ref_pdb>  (2743) 
Z0719a

>  <HIPPO Compound ID>  (2743) 
150029

>  <name>  (2743) 
P75512

>  <inspiration_score>  (2743) 
None

$$$$
P75518
     RDKit          3D

 15 16  0  0  0  0  0  0  0  0999 V2000
   -8.7989    2.6465  -11.0013 C   0  0  0  0  0  0  0  0  0  0  0  0
   -8.2447    3.9650  -11.0118 N   0  0  0  0  0  0  0  0  0  0  0  0
   -7.8220    4.6398   -9.8959 C   0  0  0  0  0  0  0  0  0  0  0  0
   -7.0095    5.6269  -10.2108 N   0  0  0  0  0  0  0  0  0  0  0  0
   -6.9445    5.5824  -11.5842 C   0  0  0  0  0  0  0  0  0  0  0  0
   -5.8293    6.0644  -12.3489 C   0  0  0  0  0  0  0  0  0  0  0  0
   -4.9345    6.2042  -13.0790 N   0  0  0  0  0  0  0  0  0  0  0  0
   -7.8277    4.6608  -12.1114 C   0  0  0  0  0  0  0  0  0  0  0  0
   -8.0350    4.3862  -13.4351 N   0  0  0  0  0  0  0  0  0  0  0  0
   -7.8563    5.2852  -14.6935 C   0  0  0  0  0  0  0  0  0  0  0  0
   -7.5789    6.4218  -14.7823 O   0  0  0  0  0  0  0  0  0  0  0  0
   -7.9926    4.4213  -15.9709 C   0  0  0  0  0  0  0  0  0  0  0  0
   -7.1721    4.9111  -17.2008 C   0  0  0  0  0  0  0  0  0  0  0  0
   -8.3781    4.6068  -18.0895 C   0  0  0  0  0  0  0  0  0  0  0  0
   -9.2537    4.5513  -16.8326 C   0  0  0  0  0  0  0  0  0  0  0  0
  1  2  1  0
  2  3  1  0
  3  4  2  0
  4  5  1  0
  5  6  1  0
  6  7  3  0
  5  8  2  0
  8  9  1  0
  9 10  1  0
 10 11  2  0
 10 12  1  0
 12 13  1  0
 13 14  1  0
 14 15  1  0
  8  2  1  0
 15 12  1  0
M  END
>  <energy_score>  (2744) 
-0.323638

>  <alias>  (2744) 
None

>  <HIPPO Pose ID>  (2744) 
75518

>  <smiles>  (2744) 
Cn1cnc(C#N)c1NC(=O)C1CCC1

>  <inchikey>  (2744) 
FSBWVFRKZZYERA-UHFFFAOYSA-N

>  <distance_score>  (2744) 
1.419045

>  <ref_mols>  (2744) 
Z0719a,Z1597a

>  <ref_pdb>  (2744) 
Z0719a

>  <HIPPO Compound ID>  (2744) 
150039

>  <name>  (2744) 
P75518

>  <inspiration_score>  (2744) 
None

$$$$
P75520
     RDKit          3D

 15 15  0  0  0  0  0  0  0  0999 V2000
   -7.5945    3.3313  -14.4429 C   0  0  0  0  0  0  0  0  0  0  0  0
   -7.9940    3.8712  -15.7986 C   0  0  0  0  0  0  0  0  0  0  0  0
   -8.9561    3.4716  -16.6139 N   0  0  0  0  0  0  0  0  0  0  0  0
   -8.7573    4.1463  -17.7956 C   0  0  0  0  0  0  0  0  0  0  0  0
   -7.6791    4.9957  -17.6945 C   0  0  0  0  0  0  0  0  0  0  0  0
   -7.0318    5.6867  -18.6813 N   0  0  0  0  0  0  0  0  0  0  0  0
   -5.6614    6.4348  -18.6630 C   0  0  0  0  0  0  0  0  0  0  0  0
   -4.9187    6.6369  -17.7790 O   0  0  0  0  0  0  0  0  0  0  0  0
   -5.3595    6.9191  -20.0784 C   0  0  0  0  0  0  0  0  0  0  0  0
   -4.0124    6.4983  -20.4931 C   0  0  0  0  0  0  0  0  0  0  0  0
   -2.9670    6.1518  -20.8726 N   0  0  0  0  0  0  0  0  0  0  0  0
   -7.3759    4.9702  -16.3569 N   0  0  0  0  0  0  0  0  0  0  0  0
   -6.8094    6.0197  -15.5434 C   0  0  0  0  0  0  0  0  0  0  0  0
   -7.6451    6.2712  -14.3546 C   0  0  0  0  0  0  0  0  0  0  0  0
   -8.3133    6.4116  -13.4146 N   0  0  0  0  0  0  0  0  0  0  0  0
  1  2  1  0
  2  3  2  0
  3  4  1  0
  4  5  2  0
  5  6  1  0
  6  7  1  0
  7  8  2  0
  7  9  1  0
  9 10  1  0
 10 11  3  0
  5 12  1  0
 12 13  1  0
 13 14  1  0
 14 15  3  0
 12  2  1  0
M  END
>  <energy_score>  (2745) 
-14.345857

>  <alias>  (2745) 
None

>  <HIPPO Pose ID>  (2745) 
75520

>  <smiles>  (2745) 
Cc1ncc(NC(=O)CC#N)n1CC#N

>  <inchikey>  (2745) 
NODPVPPOIIPVHJ-UHFFFAOYSA-N

>  <distance_score>  (2745) 
1.87383

>  <ref_mols>  (2745) 
Z0719a,Z1597a

>  <ref_pdb>  (2745) 
Z0719a

>  <HIPPO Compound ID>  (2745) 
150042

>  <name>  (2745) 
P75520

>  <inspiration_score>  (2745) 
None

$$$$
P75521
     RDKit          3D

 15 15  0  0  0  0  0  0  0  0999 V2000
   -8.5150    4.9278  -18.1635 C   0  0  0  0  0  0  0  0  0  0  0  0
   -7.9976    4.6637  -16.8505 N   0  0  0  0  0  0  0  0  0  0  0  0
   -8.7963    4.4267  -15.7859 C   0  0  0  0  0  0  0  0  0  0  0  0
   -8.0993    4.0724  -14.7473 N   0  0  0  0  0  0  0  0  0  0  0  0
   -6.7819    4.0105  -15.1808 C   0  0  0  0  0  0  0  0  0  0  0  0
   -5.8595    3.3695  -14.2608 N   0  0  0  0  0  0  0  0  0  0  0  0
   -6.2677    2.3429  -13.6879 O   0  0  0  0  0  0  0  0  0  0  0  0
   -4.7414    3.8692  -14.0956 O   0  0  0  0  0  0  0  0  0  0  0  0
   -6.6716    4.4972  -16.4877 C   0  0  0  0  0  0  0  0  0  0  0  0
   -5.7357    4.7716  -17.4622 N   0  0  0  0  0  0  0  0  0  0  0  0
   -4.1894    4.6229  -17.4463 C   0  0  0  0  0  0  0  0  0  0  0  0
   -3.4674    4.3188  -16.5802 O   0  0  0  0  0  0  0  0  0  0  0  0
   -3.7165    4.8633  -18.8768 C   0  0  0  0  0  0  0  0  0  0  0  0
   -3.8872    6.2474  -19.3279 C   0  0  0  0  0  0  0  0  0  0  0  0
   -4.0137    7.3375  -19.7052 N   0  0  0  0  0  0  0  0  0  0  0  0
  1  2  1  0
  2  3  1  0
  3  4  2  0
  4  5  1  0
  5  6  1  0
  6  7  2  0
  6  8  1  0
  5  9  2  0
  9 10  1  0
 10 11  1  0
 11 12  2  0
 11 13  1  0
 13 14  1  0
 14 15  3  0
  9  2  1  0
M  CHG  2   6   1   8  -1
M  END
>  <energy_score>  (2746) 
-13.72144

>  <alias>  (2746) 
None

>  <HIPPO Pose ID>  (2746) 
75521

>  <smiles>  (2746) 
Cn1cnc([N+](=O)[O-])c1NC(=O)CC#N

>  <inchikey>  (2746) 
SGEQENDLDIPLBL-UHFFFAOYSA-N

>  <distance_score>  (2746) 
1.967084

>  <ref_mols>  (2746) 
Z0719a,Z1597a

>  <ref_pdb>  (2746) 
Z0719a

>  <HIPPO Compound ID>  (2746) 
150044

>  <name>  (2746) 
P75521

>  <inspiration_score>  (2746) 
None

$$$$
P75522
     RDKit          3D

 15 15  0  0  0  0  0  0  0  0999 V2000
   -5.8110    6.0981  -14.3517 C   0  0  0  0  0  0  0  0  0  0  0  0
   -5.9733    4.8367  -15.1707 C   0  0  0  0  0  0  0  0  0  0  0  0
   -7.1271    4.8756  -16.0256 N   0  0  0  0  0  0  0  0  0  0  0  0
   -8.3941    4.6078  -15.5518 C   0  0  0  0  0  0  0  0  0  0  0  0
   -8.7473    4.6472  -14.1134 C   0  0  0  0  0  0  0  0  0  0  0  0
   -9.2004    4.3072  -16.5399 N   0  0  0  0  0  0  0  0  0  0  0  0
   -8.4640    4.4943  -17.6738 C   0  0  0  0  0  0  0  0  0  0  0  0
   -9.0794    4.2149  -18.9656 C   0  0  0  0  0  0  0  0  0  0  0  0
   -7.1893    4.9365  -17.3921 C   0  0  0  0  0  0  0  0  0  0  0  0
   -6.2343    5.2856  -18.3084 N   0  0  0  0  0  0  0  0  0  0  0  0
   -4.8340    5.9414  -18.1109 C   0  0  0  0  0  0  0  0  0  0  0  0
   -4.3184    6.3522  -17.1432 O   0  0  0  0  0  0  0  0  0  0  0  0
   -4.1265    5.8982  -19.4491 C   0  0  0  0  0  0  0  0  0  0  0  0
   -4.4930    7.0377  -20.2853 C   0  0  0  0  0  0  0  0  0  0  0  0
   -4.7409    7.9581  -20.9484 N   0  0  0  0  0  0  0  0  0  0  0  0
  1  2  1  0
  2  3  1  0
  3  4  1  0
  4  5  1  0
  4  6  2  0
  6  7  1  0
  7  8  1  0
  7  9  2  0
  9 10  1  0
 10 11  1  0
 11 12  2  0
 11 13  1  0
 13 14  1  0
 14 15  3  0
  9  3  1  0
M  END
>  <energy_score>  (2747) 
-16.776063

>  <alias>  (2747) 
None

>  <HIPPO Pose ID>  (2747) 
75522

>  <smiles>  (2747) 
CCn1c(C)nc(C)c1NC(=O)CC#N

>  <inchikey>  (2747) 
PEPAATDLNUGNHL-UHFFFAOYSA-N

>  <distance_score>  (2747) 
1.502343

>  <ref_mols>  (2747) 
Z0719a,Z1597a

>  <ref_pdb>  (2747) 
Z0719a

>  <HIPPO Compound ID>  (2747) 
150046

>  <name>  (2747) 
P75522

>  <inspiration_score>  (2747) 
None

$$$$
P75523
     RDKit          3D

 15 16  0  0  0  0  0  0  0  0999 V2000
   -5.1895    9.7280  -21.1644 N   0  0  0  0  0  0  0  0  0  0  0  0
   -5.0078    8.5919  -21.3252 C   0  0  0  0  0  0  0  0  0  0  0  0
   -4.8737    7.1684  -21.5718 C   0  0  0  0  0  0  0  0  0  0  0  0
   -4.6939    6.4778  -20.2366 C   0  0  0  0  0  0  0  0  0  0  0  0
   -3.6856    6.5397  -19.6437 O   0  0  0  0  0  0  0  0  0  0  0  0
   -6.0573    5.8382  -19.8438 N   0  0  0  0  0  0  0  0  0  0  0  0
   -6.4566    5.2706  -18.6896 C   0  0  0  0  0  0  0  0  0  0  0  0
   -7.7289    4.8251  -18.4366 C   0  0  0  0  0  0  0  0  0  0  0  0
   -7.7435    4.5904  -17.0992 N   0  0  0  0  0  0  0  0  0  0  0  0
   -8.8544    4.3591  -16.3597 N   0  0  0  0  0  0  0  0  0  0  0  0
   -8.5907    4.3283  -15.0951 C   0  0  0  0  0  0  0  0  0  0  0  0
   -7.2582    4.4372  -14.4626 C   0  0  0  0  0  0  0  0  0  0  0  0
   -6.2174    4.6737  -15.2625 C   0  0  0  0  0  0  0  0  0  0  0  0
   -6.4515    4.8106  -16.6421 C   0  0  0  0  0  0  0  0  0  0  0  0
   -5.6466    5.1934  -17.6046 N   0  0  0  0  0  0  0  0  0  0  0  0
  1  2  3  0
  2  3  1  0
  3  4  1  0
  4  5  2  0
  4  6  1  0
  6  7  1  0
  7  8  2  0
  8  9  1  0
  9 10  1  0
 10 11  2  0
 11 12  1  0
 12 13  2  0
 13 14  1  0
 14 15  2  0
 15  7  1  0
 14  9  1  0
M  END
>  <energy_score>  (2748) 
-30.281277

>  <alias>  (2748) 
None

>  <HIPPO Pose ID>  (2748) 
75523

>  <smiles>  (2748) 
N#CCC(=O)Nc1cn2ncccc2n1

>  <inchikey>  (2748) 
HNFCKFTZFNYIFT-UHFFFAOYSA-N

>  <distance_score>  (2748) 
1.715201

>  <ref_mols>  (2748) 
Z0719a,Z1597a

>  <ref_pdb>  (2748) 
Z0719a

>  <HIPPO Compound ID>  (2748) 
150049

>  <name>  (2748) 
P75523

>  <inspiration_score>  (2748) 
None

$$$$
P75525
     RDKit          3D

 15 16  0  0  0  0  0  0  0  0999 V2000
   -9.8756    4.6078  -17.9381 C   0  0  0  0  0  0  0  0  0  0  0  0
   -8.8263    4.5315  -17.1534 C   0  0  0  0  0  0  0  0  0  0  0  0
   -7.4249    4.6227  -17.1450 C   0  0  0  0  0  0  0  0  0  0  0  0
   -8.3314    4.2011  -15.8829 C   0  0  1  0  0  0  0  0  0  0  0  0
   -8.1973    5.1173  -14.7224 C   0  0  0  0  0  0  0  0  0  0  0  0
   -7.9901    6.2515  -14.9083 O   0  0  0  0  0  0  0  0  0  0  0  0
   -8.2694    4.3124  -13.3980 N   0  0  0  0  0  0  0  0  0  0  0  0
   -8.0206    4.6990  -12.1097 C   0  0  0  0  0  0  0  0  0  0  0  0
   -7.1262    5.6709  -11.7011 C   0  0  0  0  0  0  0  0  0  0  0  0
   -6.0637    6.1192  -12.5581 C   0  0  0  0  0  0  0  0  0  0  0  0
   -5.2100    6.2336  -13.3407 N   0  0  0  0  0  0  0  0  0  0  0  0
   -7.1117    5.8122  -10.3334 N   0  0  0  0  0  0  0  0  0  0  0  0
   -7.8931    4.8447   -9.9027 C   0  0  0  0  0  0  0  0  0  0  0  0
   -8.3638    4.0787  -10.9400 N   0  0  0  0  0  0  0  0  0  0  0  0
   -8.9225    2.7715  -10.7633 C   0  0  0  0  0  0  0  0  0  0  0  0
  1  2  2  0
  2  3  1  0
  3  4  1  0
  4  5  1  1
  5  6  2  0
  5  7  1  0
  7  8  1  0
  8  9  2  0
  9 10  1  0
 10 11  3  0
  9 12  1  0
 12 13  2  0
 13 14  1  0
 14 15  1  0
  4  2  1  0
 14  8  1  0
M  END
>  <energy_score>  (2749) 
-2.386777

>  <alias>  (2749) 
None

>  <HIPPO Pose ID>  (2749) 
75525

>  <smiles>  (2749) 
C=C1C[C@H]1C(=O)Nc1c(C#N)ncn1C

>  <inchikey>  (2749) 
LUHLOPDGKVCALF-SSDOTTSWSA-N

>  <distance_score>  (2749) 
1.305659

>  <ref_mols>  (2749) 
Z0719a,Z1597a

>  <ref_pdb>  (2749) 
Z0719a

>  <HIPPO Compound ID>  (2749) 
150056

>  <name>  (2749) 
P75525

>  <inspiration_score>  (2749) 
None

$$$$
P75526
     RDKit          3D

 15 17  0  0  0  0  0  0  0  0999 V2000
   -5.4604    7.8473  -21.9686 C   0  0  0  0  0  0  0  0  0  0  0  0
   -4.6308    7.4958  -21.0124 C   0  0  0  0  0  0  0  0  0  0  0  0
   -3.5142    7.8905  -20.2598 C   0  0  0  0  0  0  0  0  0  0  0  0
   -4.2224    6.4874  -20.1151 C   0  0  1  0  0  0  0  0  0  0  0  0
   -5.0020    6.2156  -18.8822 C   0  0  0  0  0  0  0  0  0  0  0  0
   -4.5514    6.5545  -17.8612 O   0  0  0  0  0  0  0  0  0  0  0  0
   -6.2789    5.4106  -19.1928 N   0  0  0  0  0  0  0  0  0  0  0  0
   -7.2673    4.9584  -18.3638 C   0  0  0  0  0  0  0  0  0  0  0  0
   -8.4589    4.3070  -18.6534 C   0  0  0  0  0  0  0  0  0  0  0  0
   -9.1433    3.9278  -17.5101 N   0  0  0  0  0  0  0  0  0  0  0  0
   -8.3829    4.3717  -16.5458 C   0  0  0  0  0  0  0  0  0  0  0  0
   -7.2819    5.0159  -17.0186 N   0  0  0  0  0  0  0  0  0  0  0  0
   -6.4380    5.5343  -15.9678 C   0  0  0  0  0  0  0  0  0  0  0  0
   -7.3411    5.4197  -14.7376 C   0  0  0  0  0  0  0  0  0  0  0  0
   -8.3853    4.3396  -15.0759 C   0  0  0  0  0  0  0  0  0  0  0  0
  1  2  2  0
  2  3  1  0
  3  4  1  0
  4  5  1  1
  5  6  2  0
  5  7  1  0
  7  8  1  0
  8  9  2  0
  9 10  1  0
 10 11  2  0
 11 12  1  0
 12 13  1  0
 13 14  1  0
 14 15  1  0
  4  2  1  0
 12  8  1  0
 15 11  1  0
M  END
>  <energy_score>  (2750) 
-40.289273

>  <alias>  (2750) 
None

>  <HIPPO Pose ID>  (2750) 
75526

>  <smiles>  (2750) 
C=C1C[C@H]1C(=O)Nc1cnc2n1CCC2

>  <inchikey>  (2750) 
KHNJZIBNNRKKLG-MRVPVSSYSA-N

>  <distance_score>  (2750) 
1.305161

>  <ref_mols>  (2750) 
Z0719a,Z1597a

>  <ref_pdb>  (2750) 
Z0719a

>  <HIPPO Compound ID>  (2750) 
150060

>  <name>  (2750) 
P75526

>  <inspiration_score>  (2750) 
None

$$$$
P75528
     RDKit          3D

 15 16  0  0  0  0  0  0  0  0999 V2000
   -4.5811    4.6195  -12.6300 C   0  0  0  0  0  0  0  0  0  0  0  0
   -5.3005    5.7949  -11.9366 C   0  0  0  0  0  0  0  0  0  0  0  0
   -6.6082    5.3602  -11.3648 C   0  0  0  0  0  0  0  0  0  0  0  0
   -6.8315    5.4080  -10.0044 N   0  0  0  0  0  0  0  0  0  0  0  0
   -7.8203    4.5698   -9.7986 C   0  0  0  0  0  0  0  0  0  0  0  0
   -8.2218    3.9934  -10.9696 N   0  0  0  0  0  0  0  0  0  0  0  0
   -8.9055    2.7400  -11.0524 C   0  0  0  0  0  0  0  0  0  0  0  0
   -7.6036    4.6443  -12.0042 C   0  0  0  0  0  0  0  0  0  0  0  0
   -7.8204    4.4478  -13.3416 N   0  0  0  0  0  0  0  0  0  0  0  0
   -7.3333    5.2634  -14.5749 C   0  0  0  0  0  0  0  0  0  0  0  0
   -6.7368    6.2723  -14.6316 O   0  0  0  0  0  0  0  0  0  0  0  0
   -7.6630    4.4690  -15.8605 C   0  0  0  0  0  0  0  0  0  0  0  0
   -7.1218    5.0434  -17.2024 C   0  0  0  0  0  0  0  0  0  0  0  0
   -8.4307    4.6010  -17.8655 C   0  0  0  0  0  0  0  0  0  0  0  0
   -9.0711    4.5830  -16.4666 C   0  0  0  0  0  0  0  0  0  0  0  0
  1  2  1  0
  2  3  1  0
  3  4  1  0
  4  5  2  0
  5  6  1  0
  6  7  1  0
  6  8  1  0
  8  9  1  0
  9 10  1  0
 10 11  2  0
 10 12  1  0
 12 13  1  0
 13 14  1  0
 14 15  1  0
  8  3  2  0
 15 12  1  0
M  END
>  <energy_score>  (2751) 
-12.676446

>  <alias>  (2751) 
None

>  <HIPPO Pose ID>  (2751) 
75528

>  <smiles>  (2751) 
CCc1ncn(C)c1NC(=O)C1CCC1

>  <inchikey>  (2751) 
MCWHEBVQMZFHNV-UHFFFAOYSA-N

>  <distance_score>  (2751) 
1.68804

>  <ref_mols>  (2751) 
Z0719a,Z1597a

>  <ref_pdb>  (2751) 
Z0719a

>  <HIPPO Compound ID>  (2751) 
150061

>  <name>  (2751) 
P75528

>  <inspiration_score>  (2751) 
None

$$$$
P75529
     RDKit          3D

 15 16  0  0  0  0  0  0  0  0999 V2000
   -6.7009    4.1005   -9.3114 C   0  0  0  0  0  0  0  0  0  0  0  0
   -7.3684    3.9527  -10.5715 N   0  0  0  0  0  0  0  0  0  0  0  0
   -8.6738    3.6038  -10.7328 C   0  0  0  0  0  0  0  0  0  0  0  0
   -9.0440    3.7429  -11.9864 N   0  0  0  0  0  0  0  0  0  0  0  0
   -7.9257    4.1149  -12.6593 C   0  0  0  0  0  0  0  0  0  0  0  0
   -7.9874    4.3928  -13.9844 N   0  0  0  0  0  0  0  0  0  0  0  0
   -7.0164    5.1878  -14.8920 C   0  0  0  0  0  0  0  0  0  0  0  0
   -5.9711    5.6626  -14.6545 O   0  0  0  0  0  0  0  0  0  0  0  0
   -7.6169    5.4035  -16.2838 C   0  0  0  0  0  0  0  0  0  0  0  0
   -6.7251    5.0277  -17.4958 C   0  0  0  0  0  0  0  0  0  0  0  0
   -8.0186    4.7306  -18.2662 C   0  0  0  0  0  0  0  0  0  0  0  0
   -8.6931    4.4859  -16.9067 C   0  0  0  0  0  0  0  0  0  0  0  0
   -6.8417    4.1390  -11.8216 C   0  0  0  0  0  0  0  0  0  0  0  0
   -5.4805    4.1815  -12.2053 C   0  0  0  0  0  0  0  0  0  0  0  0
   -4.3907    4.1343  -12.5989 N   0  0  0  0  0  0  0  0  0  0  0  0
  1  2  1  0
  2  3  1  0
  3  4  2  0
  4  5  1  0
  5  6  1  0
  6  7  1  0
  7  8  2  0
  7  9  1  0
  9 10  1  0
 10 11  1  0
 11 12  1  0
  5 13  2  0
 13 14  1  0
 14 15  3  0
 13  2  1  0
 12  9  1  0
M  END
>  <energy_score>  (2752) 
-4.233029

>  <alias>  (2752) 
None

>  <HIPPO Pose ID>  (2752) 
75529

>  <smiles>  (2752) 
Cn1cnc(NC(=O)C2CCC2)c1C#N

>  <inchikey>  (2752) 
GEPDTLRWXOEWDP-UHFFFAOYSA-N

>  <distance_score>  (2752) 
1.68798

>  <ref_mols>  (2752) 
Z0719a,Z1597a

>  <ref_pdb>  (2752) 
Z0719a

>  <HIPPO Compound ID>  (2752) 
150062

>  <name>  (2752) 
P75529

>  <inspiration_score>  (2752) 
None

$$$$
P75532
     RDKit          3D

 15 15  0  0  0  0  0  0  0  0999 V2000
   -5.5989    2.6217  -12.8603 C   0  0  0  0  0  0  0  0  0  0  0  0
   -5.7095    3.5843  -14.0239 C   0  0  0  0  0  0  0  0  0  0  0  0
   -7.1718    3.7293  -14.4816 C   0  0  0  0  0  0  0  0  0  0  0  0
   -7.4000    4.2604  -15.8137 N   0  0  0  0  0  0  0  0  0  0  0  0
   -8.6199    4.3257  -16.4284 C   0  0  0  0  0  0  0  0  0  0  0  0
   -8.5311    4.8912  -17.6112 N   0  0  0  0  0  0  0  0  0  0  0  0
   -7.2205    5.2127  -17.7571 C   0  0  0  0  0  0  0  0  0  0  0  0
   -6.7781    5.9014  -18.8329 N   0  0  0  0  0  0  0  0  0  0  0  0
   -5.3621    6.4519  -19.1672 C   0  0  0  0  0  0  0  0  0  0  0  0
   -4.3818    6.4604  -18.5284 O   0  0  0  0  0  0  0  0  0  0  0  0
   -5.4705    7.1310  -20.5321 C   0  0  0  0  0  0  0  0  0  0  0  0
   -4.1090    7.4243  -21.1819 C   0  0  0  0  0  0  0  0  0  0  0  0
   -3.4084    8.6190  -20.5242 C   0  0  0  0  0  0  0  0  0  0  0  0
   -4.2951    7.7268  -22.6729 C   0  0  0  0  0  0  0  0  0  0  0  0
   -6.4945    4.8248  -16.6643 C   0  0  0  0  0  0  0  0  0  0  0  0
  1  2  1  0
  2  3  1  0
  3  4  1  0
  4  5  1  0
  5  6  2  0
  6  7  1  0
  7  8  1  0
  8  9  1  0
  9 10  2  0
  9 11  1  0
 11 12  1  0
 12 13  1  0
 12 14  1  0
  7 15  2  0
 15  4  1  0
M  END
>  <energy_score>  (2753) 
-37.578496

>  <alias>  (2753) 
None

>  <HIPPO Pose ID>  (2753) 
75532

>  <smiles>  (2753) 
CCCn1cnc(NC(=O)CC(C)C)c1

>  <inchikey>  (2753) 
ZPYSAJVTOARJFB-UHFFFAOYSA-N

>  <distance_score>  (2753) 
1.700467

>  <ref_mols>  (2753) 
Z0719a,Z1597a

>  <ref_pdb>  (2753) 
Z0719a

>  <HIPPO Compound ID>  (2753) 
150066

>  <name>  (2753) 
P75532

>  <inspiration_score>  (2753) 
None

$$$$
P75533
     RDKit          3D

 15 15  0  0  0  0  0  0  0  0999 V2000
   -8.9479    4.1104  -18.9840 C   0  0  0  0  0  0  0  0  0  0  0  0
   -8.2725    4.4693  -17.7330 C   0  0  0  0  0  0  0  0  0  0  0  0
   -8.8533    4.0963  -16.5465 N   0  0  0  0  0  0  0  0  0  0  0  0
   -8.0093    4.4717  -15.6130 C   0  0  0  0  0  0  0  0  0  0  0  0
   -8.0845    4.1303  -14.1734 C   0  0  0  0  0  0  0  0  0  0  0  0
   -6.9983    5.2241  -16.1608 N   0  0  0  0  0  0  0  0  0  0  0  0
   -6.1518    6.0871  -15.3965 C   0  0  0  0  0  0  0  0  0  0  0  0
   -7.0453    5.0704  -17.5202 C   0  0  0  0  0  0  0  0  0  0  0  0
   -6.0762    5.3824  -18.4380 N   0  0  0  0  0  0  0  0  0  0  0  0
   -4.6331    5.9420  -18.2369 C   0  0  0  0  0  0  0  0  0  0  0  0
   -4.0840    6.2928  -17.2637 O   0  0  0  0  0  0  0  0  0  0  0  0
   -3.9230    5.8848  -19.5812 C   0  0  0  0  0  0  0  0  0  0  0  0
   -4.0126    7.1526  -20.4377 C   0  0  0  0  0  0  0  0  0  0  0  0
   -5.4396    7.5949  -20.7442 C   0  0  0  0  0  0  0  0  0  0  0  0
   -3.2403    8.3076  -19.7937 C   0  0  0  0  0  0  0  0  0  0  0  0
  1  2  1  0
  2  3  1  0
  3  4  2  0
  4  5  1  0
  4  6  1  0
  6  7  1  0
  6  8  1  0
  8  9  1  0
  9 10  1  0
 10 11  2  0
 10 12  1  0
 12 13  1  0
 13 14  1  0
 13 15  1  0
  8  2  2  0
M  END
>  <energy_score>  (2754) 
-14.672943

>  <alias>  (2754) 
None

>  <HIPPO Pose ID>  (2754) 
75533

>  <smiles>  (2754) 
Cc1nc(C)n(C)c1NC(=O)CC(C)C

>  <inchikey>  (2754) 
TUPASCAKKKUYAV-UHFFFAOYSA-N

>  <distance_score>  (2754) 
1.518539

>  <ref_mols>  (2754) 
Z0719a,Z1597a

>  <ref_pdb>  (2754) 
Z0719a

>  <HIPPO Compound ID>  (2754) 
150071

>  <name>  (2754) 
P75533

>  <inspiration_score>  (2754) 
None

$$$$
P75535
     RDKit          3D

 15 16  0  0  0  0  0  0  0  0999 V2000
   -4.3235    3.0364  -12.9356 C   0  0  0  0  0  0  0  0  0  0  0  0
   -4.4447    4.1774  -11.9158 C   0  0  0  0  0  0  0  0  0  0  0  0
   -5.7074    4.0774  -11.1332 C   0  0  0  0  0  0  0  0  0  0  0  0
   -5.6628    3.9469   -9.7638 N   0  0  0  0  0  0  0  0  0  0  0  0
   -6.8633    3.5503   -9.4184 C   0  0  0  0  0  0  0  0  0  0  0  0
   -7.6806    3.4654  -10.5060 N   0  0  0  0  0  0  0  0  0  0  0  0
   -9.0214    2.9700  -10.4555 C   0  0  0  0  0  0  0  0  0  0  0  0
   -7.0058    3.9713  -11.5827 C   0  0  0  0  0  0  0  0  0  0  0  0
   -7.5618    4.2722  -12.7896 N   0  0  0  0  0  0  0  0  0  0  0  0
   -6.9772    5.0220  -14.0006 C   0  0  0  0  0  0  0  0  0  0  0  0
   -5.9035    5.4337  -14.1881 O   0  0  0  0  0  0  0  0  0  0  0  0
   -8.0500    5.3043  -15.0014 C   0  0  0  0  0  0  0  0  0  0  0  0
   -9.0034    6.3802  -14.5822 C   0  0  0  0  0  0  0  0  0  0  0  0
   -7.6463    5.1407  -16.4663 C   0  0  0  0  0  0  0  0  0  0  0  0
   -8.6122    4.1871  -15.8412 C   0  0  0  0  0  0  0  0  0  0  0  0
  1  2  1  0
  2  3  1  0
  3  4  1  0
  4  5  2  0
  5  6  1  0
  6  7  1  0
  6  8  1  0
  8  9  1  0
  9 10  1  0
 10 11  2  0
 10 12  1  0
 12 13  1  0
 12 14  1  0
 14 15  1  0
  8  3  2  0
 15 12  1  0
M  END
>  <energy_score>  (2755) 
-20.639957

>  <alias>  (2755) 
None

>  <HIPPO Pose ID>  (2755) 
75535

>  <smiles>  (2755) 
CCc1ncn(C)c1NC(=O)C1(C)CC1

>  <inchikey>  (2755) 
KCMBVPRMKAUJDD-UHFFFAOYSA-N

>  <distance_score>  (2755) 
1.734765

>  <ref_mols>  (2755) 
Z0719a,Z1597a

>  <ref_pdb>  (2755) 
Z0719a

>  <HIPPO Compound ID>  (2755) 
150077

>  <name>  (2755) 
P75535

>  <inspiration_score>  (2755) 
None

$$$$
P75537
     RDKit          3D

 15 15  0  0  0  0  0  0  0  0999 V2000
   -2.7046    7.9860  -20.7168 C   0  0  0  0  0  0  0  0  0  0  0  0
   -2.3940    6.2057  -20.8435 S   0  0  0  0  0  0  0  0  0  0  0  0
   -3.6517    5.5991  -19.6564 C   0  0  0  0  0  0  0  0  0  0  0  0
   -3.1876    5.8310  -18.2216 C   0  0  0  0  0  0  0  0  0  0  0  0
   -3.9399    5.0524  -17.1355 C   0  0  0  0  0  0  0  0  0  0  0  0
   -3.3826    4.3922  -16.3507 O   0  0  0  0  0  0  0  0  0  0  0  0
   -5.4391    5.4121  -17.2590 N   0  0  0  0  0  0  0  0  0  0  0  0
   -6.5089    4.9852  -16.5443 C   0  0  0  0  0  0  0  0  0  0  0  0
   -7.7203    5.4335  -16.9973 N   0  0  0  0  0  0  0  0  0  0  0  0
   -8.6083    4.9861  -16.1410 C   0  0  0  0  0  0  0  0  0  0  0  0
   -7.9899    4.4101  -15.0809 N   0  0  0  0  0  0  0  0  0  0  0  0
   -8.5356    4.2593  -13.7535 C   0  0  0  0  0  0  0  0  0  0  0  0
   -6.6595    4.2536  -15.3881 C   0  0  0  0  0  0  0  0  0  0  0  0
   -5.7913    3.5357  -14.5255 C   0  0  0  0  0  0  0  0  0  0  0  0
   -5.2736    2.8673  -13.7307 N   0  0  0  0  0  0  0  0  0  0  0  0
  1  2  1  0
  2  3  1  0
  3  4  1  0
  4  5  1  0
  5  6  2  0
  5  7  1  0
  7  8  1  0
  8  9  1  0
  9 10  2  0
 10 11  1  0
 11 12  1  0
 11 13  1  0
 13 14  1  0
 14 15  3  0
 13  8  2  0
M  END
>  <energy_score>  (2756) 
-15.266243

>  <alias>  (2756) 
None

>  <HIPPO Pose ID>  (2756) 
75537

>  <smiles>  (2756) 
CSCCC(=O)Nc1ncn(C)c1C#N

>  <inchikey>  (2756) 
VDBSBWWDJOJJDU-UHFFFAOYSA-N

>  <distance_score>  (2756) 
1.947432

>  <ref_mols>  (2756) 
Z0719a,Z1597a

>  <ref_pdb>  (2756) 
Z0719a

>  <HIPPO Compound ID>  (2756) 
150082

>  <name>  (2756) 
P75537

>  <inspiration_score>  (2756) 
None

$$$$
P75538
     RDKit          3D

 15 15  0  0  0  0  0  0  0  0999 V2000
   -5.9756    2.6539  -12.8438 C   0  0  0  0  0  0  0  0  0  0  0  0
   -5.9162    3.6429  -13.9860 C   0  0  0  0  0  0  0  0  0  0  0  0
   -7.3217    3.9403  -14.5557 C   0  0  0  0  0  0  0  0  0  0  0  0
   -7.3412    4.4904  -15.8954 N   0  0  0  0  0  0  0  0  0  0  0  0
   -8.2951    4.2934  -16.8507 C   0  0  0  0  0  0  0  0  0  0  0  0
   -7.8749    4.7137  -18.0272 N   0  0  0  0  0  0  0  0  0  0  0  0
   -6.6549    5.2602  -17.7961 C   0  0  0  0  0  0  0  0  0  0  0  0
   -5.8277    5.6991  -18.7711 N   0  0  0  0  0  0  0  0  0  0  0  0
   -4.4078    6.3247  -18.6836 C   0  0  0  0  0  0  0  0  0  0  0  0
   -3.7685    6.6272  -17.7511 O   0  0  0  0  0  0  0  0  0  0  0  0
   -3.8255    6.4237  -20.0780 C   0  0  0  0  0  0  0  0  0  0  0  0
   -4.5850    7.3789  -20.9744 C   0  0  0  0  0  0  0  0  0  0  0  0
   -3.6674    7.7125  -22.5205 S   0  0  0  0  0  0  0  0  0  0  0  0
   -2.4666    8.9194  -21.9024 C   0  0  0  0  0  0  0  0  0  0  0  0
   -6.3497    5.2284  -16.4658 C   0  0  0  0  0  0  0  0  0  0  0  0
  1  2  1  0
  2  3  1  0
  3  4  1  0
  4  5  1  0
  5  6  2  0
  6  7  1  0
  7  8  1  0
  8  9  1  0
  9 10  2  0
  9 11  1  0
 11 12  1  0
 12 13  1  0
 13 14  1  0
  7 15  2  0
 15  4  1  0
M  END
>  <energy_score>  (2757) 
-1.496079

>  <alias>  (2757) 
None

>  <HIPPO Pose ID>  (2757) 
75538

>  <smiles>  (2757) 
CCCn1cnc(NC(=O)CCSC)c1

>  <inchikey>  (2757) 
OTNZMINPRAJZQG-UHFFFAOYSA-N

>  <distance_score>  (2757) 
1.665714

>  <ref_mols>  (2757) 
Z0719a,Z1597a

>  <ref_pdb>  (2757) 
Z0719a

>  <HIPPO Compound ID>  (2757) 
150083

>  <name>  (2757) 
P75538

>  <inspiration_score>  (2757) 
None

$$$$
P75539
     RDKit          3D

 15 16  0  0  0  0  0  0  0  0999 V2000
   -4.3047    3.9493  -12.7975 C   0  0  0  0  0  0  0  0  0  0  0  0
   -4.7298    5.1298  -11.9112 C   0  0  0  0  0  0  0  0  0  0  0  0
   -5.9680    4.8085  -11.1466 C   0  0  0  0  0  0  0  0  0  0  0  0
   -5.8838    4.6257   -9.7833 N   0  0  0  0  0  0  0  0  0  0  0  0
   -6.9854    3.9992   -9.4545 C   0  0  0  0  0  0  0  0  0  0  0  0
   -7.7806    3.8037  -10.5466 N   0  0  0  0  0  0  0  0  0  0  0  0
   -8.9348    2.9574  -10.5218 C   0  0  0  0  0  0  0  0  0  0  0  0
   -7.2318    4.4836  -11.6037 C   0  0  0  0  0  0  0  0  0  0  0  0
   -7.8408    4.6830  -12.8120 N   0  0  0  0  0  0  0  0  0  0  0  0
   -7.4223    5.5591  -14.0140 C   0  0  0  0  0  0  0  0  0  0  0  0
   -6.5340    6.3066  -14.1325 O   0  0  0  0  0  0  0  0  0  0  0  0
   -8.3772    5.3677  -15.1571 C   0  0  0  0  0  0  0  0  0  0  0  0
   -9.6405    6.0425  -15.0010 O   0  0  0  0  0  0  0  0  0  0  0  0
   -7.8250    5.1803  -16.5541 C   0  0  0  0  0  0  0  0  0  0  0  0
   -8.4472    4.0309  -15.8298 C   0  0  0  0  0  0  0  0  0  0  0  0
  1  2  1  0
  2  3  1  0
  3  4  1  0
  4  5  2  0
  5  6  1  0
  6  7  1  0
  6  8  1  0
  8  9  1  0
  9 10  1  0
 10 11  2  0
 10 12  1  0
 12 13  1  0
 12 14  1  0
 14 15  1  0
  8  3  2  0
 15 12  1  0
M  END
>  <energy_score>  (2758) 
-19.880617

>  <alias>  (2758) 
None

>  <HIPPO Pose ID>  (2758) 
75539

>  <smiles>  (2758) 
CCc1ncn(C)c1NC(=O)C1(O)CC1

>  <inchikey>  (2758) 
YSACMXXVASSMJY-UHFFFAOYSA-N

>  <distance_score>  (2758) 
1.553356

>  <ref_mols>  (2758) 
Z0719a,Z1597a

>  <ref_pdb>  (2758) 
Z0719a

>  <HIPPO Compound ID>  (2758) 
150087

>  <name>  (2758) 
P75539

>  <inspiration_score>  (2758) 
None

$$$$
P75540
     RDKit          3D

 15 16  0  0  0  0  0  0  0  0999 V2000
   -7.0371    4.8137   -9.3578 C   0  0  0  0  0  0  0  0  0  0  0  0
   -7.5767    4.2709  -10.5720 N   0  0  0  0  0  0  0  0  0  0  0  0
   -8.6166    3.3919  -10.6555 C   0  0  0  0  0  0  0  0  0  0  0  0
   -8.9568    3.1837  -11.9087 N   0  0  0  0  0  0  0  0  0  0  0  0
   -8.1068    3.9449  -12.6503 C   0  0  0  0  0  0  0  0  0  0  0  0
   -8.1946    4.0096  -14.0039 N   0  0  0  0  0  0  0  0  0  0  0  0
   -7.7075    5.0910  -14.9881 C   0  0  0  0  0  0  0  0  0  0  0  0
   -7.0863    6.0601  -14.8000 O   0  0  0  0  0  0  0  0  0  0  0  0
   -8.0475    4.7100  -16.4059 C   0  0  0  0  0  0  0  0  0  0  0  0
   -9.2433    3.9148  -16.5648 O   0  0  0  0  0  0  0  0  0  0  0  0
   -6.9127    4.3953  -17.3501 C   0  0  0  0  0  0  0  0  0  0  0  0
   -7.7117    5.6293  -17.5599 C   0  0  0  0  0  0  0  0  0  0  0  0
   -7.1493    4.5126  -11.8497 C   0  0  0  0  0  0  0  0  0  0  0  0
   -5.8987    5.0045  -12.2934 C   0  0  0  0  0  0  0  0  0  0  0  0
   -4.8620    5.2590  -12.7468 N   0  0  0  0  0  0  0  0  0  0  0  0
  1  2  1  0
  2  3  1  0
  3  4  2  0
  4  5  1  0
  5  6  1  0
  6  7  1  0
  7  8  2  0
  7  9  1  0
  9 10  1  0
  9 11  1  0
 11 12  1  0
  5 13  2  0
 13 14  1  0
 14 15  3  0
 13  2  1  0
 12  9  1  0
M  END
>  <energy_score>  (2759) 
-14.596572

>  <alias>  (2759) 
None

>  <HIPPO Pose ID>  (2759) 
75540

>  <smiles>  (2759) 
Cn1cnc(NC(=O)C2(O)CC2)c1C#N

>  <inchikey>  (2759) 
QQYNNNPPQHSAOG-UHFFFAOYSA-N

>  <distance_score>  (2759) 
1.45941

>  <ref_mols>  (2759) 
Z0719a,Z1597a

>  <ref_pdb>  (2759) 
Z0719a

>  <HIPPO Compound ID>  (2759) 
150088

>  <name>  (2759) 
P75540

>  <inspiration_score>  (2759) 
None

$$$$
P75543
     RDKit          3D

 15 16  0  0  0  0  0  0  0  0999 V2000
   -4.0911    7.7006  -21.8944 C   0  0  0  0  0  0  0  0  0  0  0  0
   -3.3539    6.7006  -21.0708 C   0  0  0  0  0  0  0  0  0  0  0  0
   -2.4876    5.9445  -21.4973 O   0  0  0  0  0  0  0  0  0  0  0  0
   -3.8302    6.5730  -19.6472 C   0  0  0  0  0  0  0  0  0  0  0  0
   -3.2733    7.1402  -18.7976 O   0  0  0  0  0  0  0  0  0  0  0  0
   -5.1105    5.7235  -19.6063 N   0  0  0  0  0  0  0  0  0  0  0  0
   -5.8733    5.3398  -18.5638 C   0  0  0  0  0  0  0  0  0  0  0  0
   -7.0888    4.7111  -18.6335 C   0  0  0  0  0  0  0  0  0  0  0  0
   -7.5126    4.6654  -17.3383 N   0  0  0  0  0  0  0  0  0  0  0  0
   -8.7336    4.3002  -16.8145 C   0  0  0  0  0  0  0  0  0  0  0  0
   -8.8918    4.3757  -15.4913 C   0  0  0  0  0  0  0  0  0  0  0  0
   -7.7046    4.7784  -14.7045 C   0  0  0  0  0  0  0  0  0  0  0  0
   -6.5638    5.1567  -15.1792 N   0  0  0  0  0  0  0  0  0  0  0  0
   -6.4715    5.1440  -16.5391 C   0  0  0  0  0  0  0  0  0  0  0  0
   -5.4945    5.5980  -17.2890 N   0  0  0  0  0  0  0  0  0  0  0  0
  1  2  1  0
  2  3  2  0
  2  4  1  0
  4  5  2  0
  4  6  1  0
  6  7  1  0
  7  8  2  0
  8  9  1  0
  9 10  1  0
 10 11  2  0
 11 12  1  0
 12 13  2  0
 13 14  1  0
 14 15  2  0
 15  7  1  0
 14  9  1  0
M  END
>  <energy_score>  (2760) 
-6.609156

>  <alias>  (2760) 
None

>  <HIPPO Pose ID>  (2760) 
75543

>  <smiles>  (2760) 
CC(=O)C(=O)Nc1cn2cccnc2n1

>  <inchikey>  (2760) 
JABQGTUTGNNFEQ-UHFFFAOYSA-N

>  <distance_score>  (2760) 
1.604087

>  <ref_mols>  (2760) 
Z0719a,Z1597a

>  <ref_pdb>  (2760) 
Z0719a

>  <HIPPO Compound ID>  (2760) 
150096

>  <name>  (2760) 
P75543

>  <inspiration_score>  (2760) 
None

$$$$
P75546
     RDKit          3D

 15 16  0  0  0  0  0  0  0  0999 V2000
   -4.1361    7.6977  -21.8165 C   0  0  0  0  0  0  0  0  0  0  0  0
   -3.1555    7.1551  -20.7855 C   0  0  0  0  0  0  0  0  0  0  0  0
   -1.9215    8.0568  -20.7159 C   0  0  0  0  0  0  0  0  0  0  0  0
   -3.8139    7.0199  -19.4104 C   0  0  0  0  0  0  0  0  0  0  0  0
   -3.4764    7.6474  -18.4829 O   0  0  0  0  0  0  0  0  0  0  0  0
   -4.9132    5.9246  -19.5418 N   0  0  0  0  0  0  0  0  0  0  0  0
   -5.8195    5.4798  -18.6440 C   0  0  0  0  0  0  0  0  0  0  0  0
   -6.8936    4.6747  -18.9214 C   0  0  0  0  0  0  0  0  0  0  0  0
   -7.5879    4.6088  -17.7535 N   0  0  0  0  0  0  0  0  0  0  0  0
   -8.8027    4.0360  -17.5886 N   0  0  0  0  0  0  0  0  0  0  0  0
   -9.2199    4.1546  -16.3740 C   0  0  0  0  0  0  0  0  0  0  0  0
   -8.4959    4.7474  -15.2273 C   0  0  0  0  0  0  0  0  0  0  0  0
   -7.3107    5.3015  -15.4820 C   0  0  0  0  0  0  0  0  0  0  0  0
   -6.8321    5.2825  -16.8047 C   0  0  0  0  0  0  0  0  0  0  0  0
   -5.7646    5.8338  -17.3327 N   0  0  0  0  0  0  0  0  0  0  0  0
  1  2  1  0
  2  3  1  0
  2  4  1  0
  4  5  2  0
  4  6  1  0
  6  7  1  0
  7  8  2  0
  8  9  1  0
  9 10  1  0
 10 11  2  0
 11 12  1  0
 12 13  2  0
 13 14  1  0
 14 15  2  0
 15  7  1  0
 14  9  1  0
M  END
>  <energy_score>  (2761) 
-22.312694

>  <alias>  (2761) 
None

>  <HIPPO Pose ID>  (2761) 
75546

>  <smiles>  (2761) 
CC(C)C(=O)Nc1cn2ncccc2n1

>  <inchikey>  (2761) 
DSPXAZPHROAFGZ-UHFFFAOYSA-N

>  <distance_score>  (2761) 
1.75732

>  <ref_mols>  (2761) 
Z0719a,Z1597a

>  <ref_pdb>  (2761) 
Z0719a

>  <HIPPO Compound ID>  (2761) 
150108

>  <name>  (2761) 
P75546

>  <inspiration_score>  (2761) 
None

$$$$
P75547
     RDKit          3D

 15 16  0  0  0  0  0  0  0  0999 V2000
   -3.6076    7.5642  -21.6163 C   0  0  0  0  0  0  0  0  0  0  0  0
   -2.7907    7.3657  -20.3466 C   0  0  0  0  0  0  0  0  0  0  0  0
   -1.8412    6.1767  -20.4211 C   0  0  0  0  0  0  0  0  0  0  0  0
   -3.6362    7.2672  -19.0746 C   0  0  0  0  0  0  0  0  0  0  0  0
   -3.3514    7.8836  -18.1218 O   0  0  0  0  0  0  0  0  0  0  0  0
   -4.7708    6.2270  -19.3005 N   0  0  0  0  0  0  0  0  0  0  0  0
   -5.6638    5.7003  -18.4330 C   0  0  0  0  0  0  0  0  0  0  0  0
   -6.7373    4.9172  -18.7691 C   0  0  0  0  0  0  0  0  0  0  0  0
   -7.4131    4.7529  -17.5971 N   0  0  0  0  0  0  0  0  0  0  0  0
   -8.6605    4.2190  -17.3623 C   0  0  0  0  0  0  0  0  0  0  0  0
   -9.0981    4.1817  -16.1033 C   0  0  0  0  0  0  0  0  0  0  0  0
   -8.1514    4.6579  -15.0657 C   0  0  0  0  0  0  0  0  0  0  0  0
   -6.9927    5.1973  -15.2704 N   0  0  0  0  0  0  0  0  0  0  0  0
   -6.6255    5.2970  -16.5807 C   0  0  0  0  0  0  0  0  0  0  0  0
   -5.5863    5.9175  -17.0957 N   0  0  0  0  0  0  0  0  0  0  0  0
  1  2  1  0
  2  3  1  0
  2  4  1  0
  4  5  2  0
  4  6  1  0
  6  7  1  0
  7  8  2  0
  8  9  1  0
  9 10  1  0
 10 11  2  0
 11 12  1  0
 12 13  2  0
 13 14  1  0
 14 15  2  0
 15  7  1  0
 14  9  1  0
M  END
>  <energy_score>  (2762) 
-19.31356

>  <alias>  (2762) 
None

>  <HIPPO Pose ID>  (2762) 
75547

>  <smiles>  (2762) 
CC(C)C(=O)Nc1cn2cccnc2n1

>  <inchikey>  (2762) 
HJUSSEKVZZAOJQ-UHFFFAOYSA-N

>  <distance_score>  (2762) 
1.891739

>  <ref_mols>  (2762) 
Z0719a,Z1597a

>  <ref_pdb>  (2762) 
Z0719a

>  <HIPPO Compound ID>  (2762) 
150109

>  <name>  (2762) 
P75547

>  <inspiration_score>  (2762) 
None

$$$$
P75551
     RDKit          3D

 15 16  0  0  0  0  0  0  0  0999 V2000
   -3.7858    7.7108  -22.1325 C   0  0  0  0  0  0  0  0  0  0  0  0
   -4.5880    7.3780  -20.8832 C   0  0  0  0  0  0  0  0  0  0  0  0
   -3.9283    6.3612  -19.9397 C   0  0  1  0  0  0  0  0  0  0  0  0
   -2.5040    6.7758  -19.5523 C   0  0  0  0  0  0  0  0  0  0  0  0
   -4.7822    6.1827  -18.6719 C   0  0  0  0  0  0  0  0  0  0  0  0
   -4.4320    6.5839  -17.6287 O   0  0  0  0  0  0  0  0  0  0  0  0
   -6.0855    5.4258  -19.0787 N   0  0  0  0  0  0  0  0  0  0  0  0
   -7.1135    4.9552  -18.3119 C   0  0  0  0  0  0  0  0  0  0  0  0
   -8.2755    4.2818  -18.6654 C   0  0  0  0  0  0  0  0  0  0  0  0
   -9.0219    3.9032  -17.5597 N   0  0  0  0  0  0  0  0  0  0  0  0
   -8.3299    4.3736  -16.5577 C   0  0  0  0  0  0  0  0  0  0  0  0
   -7.2168    5.0361  -16.9718 N   0  0  0  0  0  0  0  0  0  0  0  0
   -6.4582    5.6007  -15.8802 C   0  0  0  0  0  0  0  0  0  0  0  0
   -7.4361    5.4833  -14.7093 C   0  0  0  0  0  0  0  0  0  0  0  0
   -8.4204    4.3625  -15.0910 C   0  0  0  0  0  0  0  0  0  0  0  0
  1  2  1  0
  2  3  1  0
  3  4  1  1
  3  5  1  0
  5  6  2  0
  5  7  1  0
  7  8  1  0
  8  9  2  0
  9 10  1  0
 10 11  2  0
 11 12  1  0
 12 13  1  0
 13 14  1  0
 14 15  1  0
 12  8  1  0
 15 11  1  0
M  END
>  <energy_score>  (2763) 
-12.240751

>  <alias>  (2763) 
None

>  <HIPPO Pose ID>  (2763) 
75551

>  <smiles>  (2763) 
CC[C@@H](C)C(=O)Nc1cnc2n1CCC2

>  <inchikey>  (2763) 
ZAXOEPTYUYXMCT-MRVPVSSYSA-N

>  <distance_score>  (2763) 
1.239244

>  <ref_mols>  (2763) 
Z0719a,Z1597a

>  <ref_pdb>  (2763) 
Z0719a

>  <HIPPO Compound ID>  (2763) 
150122

>  <name>  (2763) 
P75551

>  <inspiration_score>  (2763) 
None

$$$$
P75552
     RDKit          3D

 15 15  0  0  0  0  0  0  0  0999 V2000
   -6.1055    4.1950  -14.1909 C   0  0  0  0  0  0  0  0  0  0  0  0
   -7.5906    3.8838  -14.2788 C   0  0  0  0  0  0  0  0  0  0  0  0
   -8.4037    4.7750  -15.2182 C   0  0  0  0  0  0  0  0  0  0  0  0
   -7.9501    4.8010  -16.5810 N   0  0  0  0  0  0  0  0  0  0  0  0
   -8.4905    4.1593  -17.6481 C   0  0  0  0  0  0  0  0  0  0  0  0
   -7.7285    4.3037  -18.7126 N   0  0  0  0  0  0  0  0  0  0  0  0
   -6.7362    5.1482  -18.3314 C   0  0  0  0  0  0  0  0  0  0  0  0
   -5.7188    5.5081  -19.1430 N   0  0  0  0  0  0  0  0  0  0  0  0
   -4.5559    6.5196  -18.9187 C   0  0  0  0  0  0  0  0  0  0  0  0
   -4.2598    7.1359  -17.9689 O   0  0  0  0  0  0  0  0  0  0  0  0
   -3.7176    6.5246  -20.2013 C   0  0  1  0  0  0  0  0  0  0  0  0
   -4.4372    7.3365  -21.2726 C   0  0  0  0  0  0  0  0  0  0  0  0
   -2.3050    7.0934  -19.9764 C   0  0  0  0  0  0  0  0  0  0  0  0
   -1.4240    6.1573  -19.1566 C   0  0  0  0  0  0  0  0  0  0  0  0
   -6.8899    5.5269  -17.0299 C   0  0  0  0  0  0  0  0  0  0  0  0
  1  2  1  0
  2  3  1  0
  3  4  1  0
  4  5  1  0
  5  6  2  0
  6  7  1  0
  7  8  1  0
  8  9  1  0
  9 10  2  0
  9 11  1  0
 11 12  1  6
 11 13  1  0
 13 14  1  0
  7 15  2  0
 15  4  1  0
M  END
>  <energy_score>  (2764) 
-36.542826

>  <alias>  (2764) 
None

>  <HIPPO Pose ID>  (2764) 
75552

>  <smiles>  (2764) 
CCCn1cnc(NC(=O)[C@@H](C)CC)c1

>  <inchikey>  (2764) 
UUDQIRQMEGNFPM-VIFPVBQESA-N

>  <distance_score>  (2764) 
1.552668

>  <ref_mols>  (2764) 
Z0719a,Z1597a

>  <ref_pdb>  (2764) 
Z0719a

>  <HIPPO Compound ID>  (2764) 
150124

>  <name>  (2764) 
P75552

>  <inspiration_score>  (2764) 
None

$$$$
P75553
     RDKit          3D

 15 15  0  0  0  0  0  0  0  0999 V2000
   -4.1099    6.5220  -19.7501 C   0  0  0  0  0  0  0  0  0  0  0  0
   -3.6544    5.2141  -19.0833 C   0  0  1  0  0  0  0  0  0  0  0  0
   -2.1344    5.1782  -18.9142 C   0  0  0  0  0  0  0  0  0  0  0  0
   -1.2160    5.0018  -20.6208 Br  0  0  0  0  0  0  0  0  0  0  0  0
   -4.2798    5.0114  -17.6828 C   0  0  0  0  0  0  0  0  0  0  0  0
   -3.6416    5.0036  -16.7053 O   0  0  0  0  0  0  0  0  0  0  0  0
   -5.8099    4.8947  -17.8824 N   0  0  0  0  0  0  0  0  0  0  0  0
   -6.7985    4.6642  -16.9867 C   0  0  0  0  0  0  0  0  0  0  0  0
   -8.0664    4.8783  -17.4462 N   0  0  0  0  0  0  0  0  0  0  0  0
   -8.8562    4.6784  -16.4198 C   0  0  0  0  0  0  0  0  0  0  0  0
   -8.1319    4.4203  -15.3035 N   0  0  0  0  0  0  0  0  0  0  0  0
   -8.5985    4.4190  -13.9399 C   0  0  0  0  0  0  0  0  0  0  0  0
   -6.8181    4.2659  -15.6688 C   0  0  0  0  0  0  0  0  0  0  0  0
   -5.8618    3.7197  -14.7717 C   0  0  0  0  0  0  0  0  0  0  0  0
   -5.2610    3.1625  -13.9496 N   0  0  0  0  0  0  0  0  0  0  0  0
  2  1  1  1
  2  3  1  0
  3  4  1  0
  2  5  1  0
  5  6  2  0
  5  7  1  0
  7  8  1  0
  8  9  1  0
  9 10  2  0
 10 11  1  0
 11 12  1  0
 11 13  1  0
 13 14  1  0
 14 15  3  0
 13  8  2  0
M  END
>  <energy_score>  (2765) 
-29.70671

>  <alias>  (2765) 
None

>  <HIPPO Pose ID>  (2765) 
75553

>  <smiles>  (2765) 
C[C@@H](CBr)C(=O)Nc1ncn(C)c1C#N

>  <inchikey>  (2765) 
NEEDHJNLGFZTMM-LURJTMIESA-N

>  <distance_score>  (2765) 
1.689561

>  <ref_mols>  (2765) 
Z0719a,Z1597a

>  <ref_pdb>  (2765) 
Z0719a

>  <HIPPO Compound ID>  (2765) 
150125

>  <name>  (2765) 
P75553

>  <inspiration_score>  (2765) 
None

$$$$
P75556
     RDKit          3D

 15 15  0  0  0  0  0  0  0  0999 V2000
   -5.2095    4.1166  -12.9530 C   0  0  0  0  0  0  0  0  0  0  0  0
   -6.0420    3.2626  -13.9026 C   0  0  0  0  0  0  0  0  0  0  0  0
   -7.1167    2.5106  -13.1309 C   0  0  0  0  0  0  0  0  0  0  0  0
   -6.5354    4.0123  -15.0563 N   0  0  0  0  0  0  0  0  0  0  0  0
   -7.8220    4.3614  -15.3775 C   0  0  0  0  0  0  0  0  0  0  0  0
   -7.8818    5.0165  -16.5208 N   0  0  0  0  0  0  0  0  0  0  0  0
   -6.6003    5.0562  -16.9683 C   0  0  0  0  0  0  0  0  0  0  0  0
   -6.2644    5.6500  -18.1341 N   0  0  0  0  0  0  0  0  0  0  0  0
   -4.8681    6.0337  -18.7076 C   0  0  0  0  0  0  0  0  0  0  0  0
   -3.7939    5.8242  -18.2921 O   0  0  0  0  0  0  0  0  0  0  0  0
   -5.1077    6.8646  -19.9733 C   0  0  2  0  0  0  0  0  0  0  0  0
   -3.8265    6.9910  -20.7966 C   0  0  0  0  0  0  0  0  0  0  0  0
   -5.7239    8.2204  -19.6766 C   0  0  0  0  0  0  0  0  0  0  0  0
   -4.6611    9.3608  -18.5143 Br  0  0  0  0  0  0  0  0  0  0  0  0
   -5.7475    4.4614  -16.0837 C   0  0  0  0  0  0  0  0  0  0  0  0
  1  2  1  0
  2  3  1  0
  2  4  1  0
  4  5  1  0
  5  6  2  0
  6  7  1  0
  7  8  1  0
  8  9  1  0
  9 10  2  0
  9 11  1  0
 11 12  1  1
 11 13  1  0
 13 14  1  0
  7 15  2  0
 15  4  1  0
M  END
>  <energy_score>  (2766) 
-20.732576

>  <alias>  (2766) 
None

>  <HIPPO Pose ID>  (2766) 
75556

>  <smiles>  (2766) 
CC(C)n1cnc(NC(=O)[C@H](C)CBr)c1

>  <inchikey>  (2766) 
RPAHTQNBNUTUTC-MRVPVSSYSA-N

>  <distance_score>  (2766) 
1.923422

>  <ref_mols>  (2766) 
Z0719a,Z1597a

>  <ref_pdb>  (2766) 
Z0719a

>  <HIPPO Compound ID>  (2766) 
150128

>  <name>  (2766) 
P75556

>  <inspiration_score>  (2766) 
None

$$$$
P75558
     RDKit          3D

 15 15  0  0  0  0  0  0  0  0999 V2000
   -4.8021    7.2138  -20.4081 C   0  0  0  0  0  0  0  0  0  0  0  0
   -3.5507    6.4031  -20.1245 C   0  0  2  0  0  0  0  0  0  0  0  0
   -2.9257    6.1229  -21.3136 F   0  0  0  0  0  0  0  0  0  0  0  0
   -3.7646    5.0755  -19.4258 C   0  0  0  0  0  0  0  0  0  0  0  0
   -4.4419    5.1877  -18.0833 C   0  0  0  0  0  0  0  0  0  0  0  0
   -3.8435    5.3998  -17.1030 O   0  0  0  0  0  0  0  0  0  0  0  0
   -5.9534    4.9110  -18.2988 N   0  0  0  0  0  0  0  0  0  0  0  0
   -6.9552    4.7548  -17.4016 C   0  0  0  0  0  0  0  0  0  0  0  0
   -8.2358    4.7124  -17.8655 N   0  0  0  0  0  0  0  0  0  0  0  0
   -8.9992    4.5737  -16.8046 C   0  0  0  0  0  0  0  0  0  0  0  0
   -8.2481    4.5453  -15.6750 N   0  0  0  0  0  0  0  0  0  0  0  0
   -8.6972    4.5407  -14.3076 C   0  0  0  0  0  0  0  0  0  0  0  0
   -6.9315    4.5830  -16.0426 C   0  0  0  0  0  0  0  0  0  0  0  0
   -5.8788    4.3890  -15.1251 C   0  0  0  0  0  0  0  0  0  0  0  0
   -5.1061    4.1612  -14.2917 N   0  0  0  0  0  0  0  0  0  0  0  0
  2  1  1  6
  2  3  1  0
  2  4  1  0
  4  5  1  0
  5  6  2  0
  5  7  1  0
  7  8  1  0
  8  9  1  0
  9 10  2  0
 10 11  1  0
 11 12  1  0
 11 13  1  0
 13 14  1  0
 14 15  3  0
 13  8  2  0
M  END
>  <energy_score>  (2767) 
-22.644613

>  <alias>  (2767) 
None

>  <HIPPO Pose ID>  (2767) 
75558

>  <smiles>  (2767) 
C[C@H](F)CC(=O)Nc1ncn(C)c1C#N

>  <inchikey>  (2767) 
UBKJPRIREXSIMP-LURJTMIESA-N

>  <distance_score>  (2767) 
1.254451

>  <ref_mols>  (2767) 
Z0719a,Z1597a

>  <ref_pdb>  (2767) 
Z0719a

>  <HIPPO Compound ID>  (2767) 
150133

>  <name>  (2767) 
P75558

>  <inspiration_score>  (2767) 
None

$$$$
P75561
     RDKit          3D

 15 15  0  0  0  0  0  0  0  0999 V2000
   -4.0816    6.3125  -19.5395 C   0  0  0  0  0  0  0  0  0  0  0  0
   -3.5450    5.1550  -18.7354 C   0  0  0  0  0  0  0  0  0  0  0  0
   -2.7082    4.3761  -19.1755 O   0  0  0  0  0  0  0  0  0  0  0  0
   -4.1480    4.9586  -17.3253 C   0  0  0  0  0  0  0  0  0  0  0  0
   -3.5102    5.1592  -16.3741 O   0  0  0  0  0  0  0  0  0  0  0  0
   -5.6287    4.5595  -17.4688 N   0  0  0  0  0  0  0  0  0  0  0  0
   -6.6155    4.4222  -16.5158 C   0  0  0  0  0  0  0  0  0  0  0  0
   -6.7673    4.0422  -15.1787 C   0  0  0  0  0  0  0  0  0  0  0  0
   -5.8973    3.3218  -14.2599 N   0  0  0  0  0  0  0  0  0  0  0  0
   -6.4282    2.4401  -13.5621 O   0  0  0  0  0  0  0  0  0  0  0  0
   -4.6884    3.5796  -14.2606 O   0  0  0  0  0  0  0  0  0  0  0  0
   -8.0848    4.2136  -14.7703 N   0  0  0  0  0  0  0  0  0  0  0  0
   -8.7452    4.5429  -15.8423 C   0  0  0  0  0  0  0  0  0  0  0  0
   -7.9226    4.6289  -16.9145 N   0  0  0  0  0  0  0  0  0  0  0  0
   -8.3950    4.9095  -18.2390 C   0  0  0  0  0  0  0  0  0  0  0  0
  1  2  1  0
  2  3  2  0
  2  4  1  0
  4  5  2  0
  4  6  1  0
  6  7  1  0
  7  8  2  0
  8  9  1  0
  9 10  2  0
  9 11  1  0
  8 12  1  0
 12 13  2  0
 13 14  1  0
 14 15  1  0
 14  7  1  0
M  CHG  2   9   1  11  -1
M  END
>  <energy_score>  (2768) 
-11.9518

>  <alias>  (2768) 
None

>  <HIPPO Pose ID>  (2768) 
75561

>  <smiles>  (2768) 
CC(=O)C(=O)Nc1c([N+](=O)[O-])ncn1C

>  <inchikey>  (2768) 
UQXSSKVHPJIXLF-UHFFFAOYSA-N

>  <distance_score>  (2768) 
1.954166

>  <ref_mols>  (2768) 
Z0719a,Z1597a

>  <ref_pdb>  (2768) 
Z0719a

>  <HIPPO Compound ID>  (2768) 
150138

>  <name>  (2768) 
P75561

>  <inspiration_score>  (2768) 
None

$$$$
P75562
     RDKit          3D

 15 15  0  0  0  0  0  0  0  0999 V2000
   -6.7487    6.5731  -14.3107 C   0  0  0  0  0  0  0  0  0  0  0  0
   -6.0087    5.8115  -15.4068 C   0  0  0  0  0  0  0  0  0  0  0  0
   -6.8475    4.9339  -16.1795 N   0  0  0  0  0  0  0  0  0  0  0  0
   -7.8139    4.1218  -15.6255 C   0  0  0  0  0  0  0  0  0  0  0  0
   -7.7486    3.6055  -14.2306 C   0  0  0  0  0  0  0  0  0  0  0  0
   -8.7683    3.9072  -16.5036 N   0  0  0  0  0  0  0  0  0  0  0  0
   -8.2934    4.4163  -17.6850 C   0  0  0  0  0  0  0  0  0  0  0  0
   -9.1059    4.2791  -18.8887 C   0  0  0  0  0  0  0  0  0  0  0  0
   -7.0172    4.9199  -17.5417 C   0  0  0  0  0  0  0  0  0  0  0  0
   -6.1346    5.2987  -18.5243 N   0  0  0  0  0  0  0  0  0  0  0  0
   -4.6166    5.5995  -18.4516 C   0  0  0  0  0  0  0  0  0  0  0  0
   -3.8978    5.6469  -17.5328 O   0  0  0  0  0  0  0  0  0  0  0  0
   -4.0399    5.8731  -19.8518 C   0  0  0  0  0  0  0  0  0  0  0  0
   -4.6003    7.0621  -20.5732 C   0  0  0  0  0  0  0  0  0  0  0  0
   -3.1380    5.1784  -20.3149 O   0  0  0  0  0  0  0  0  0  0  0  0
  1  2  1  0
  2  3  1  0
  3  4  1  0
  4  5  1  0
  4  6  2  0
  6  7  1  0
  7  8  1  0
  7  9  2  0
  9 10  1  0
 10 11  1  0
 11 12  2  0
 11 13  1  0
 13 14  1  0
 13 15  2  0
  9  3  1  0
M  END
>  <energy_score>  (2769) 
-4.810145

>  <alias>  (2769) 
None

>  <HIPPO Pose ID>  (2769) 
75562

>  <smiles>  (2769) 
CCn1c(C)nc(C)c1NC(=O)C(C)=O

>  <inchikey>  (2769) 
QXDDFTIVKMTYLJ-UHFFFAOYSA-N

>  <distance_score>  (2769) 
1.635994

>  <ref_mols>  (2769) 
Z0719a,Z1597a

>  <ref_pdb>  (2769) 
Z0719a

>  <HIPPO Compound ID>  (2769) 
150140

>  <name>  (2769) 
P75562

>  <inspiration_score>  (2769) 
None

$$$$
P75564
     RDKit          3D

 15 15  0  0  0  0  0  0  0  0999 V2000
   -7.2441    3.2718  -12.7062 C   0  0  0  0  0  0  0  0  0  0  0  0
   -6.4260    3.0698  -13.9782 C   0  0  0  0  0  0  0  0  0  0  0  0
   -4.9346    3.1351  -13.6070 C   0  0  0  0  0  0  0  0  0  0  0  0
   -6.8177    3.9482  -15.0861 N   0  0  0  0  0  0  0  0  0  0  0  0
   -8.0945    4.3447  -15.4037 C   0  0  0  0  0  0  0  0  0  0  0  0
   -8.1307    5.0795  -16.4943 N   0  0  0  0  0  0  0  0  0  0  0  0
   -6.8507    5.1168  -16.9351 C   0  0  0  0  0  0  0  0  0  0  0  0
   -6.5283    5.7775  -18.0700 N   0  0  0  0  0  0  0  0  0  0  0  0
   -5.1426    6.0454  -18.7233 C   0  0  0  0  0  0  0  0  0  0  0  0
   -4.0641    5.8026  -18.3402 O   0  0  0  0  0  0  0  0  0  0  0  0
   -5.4255    6.8260  -19.9952 C   0  0  0  0  0  0  0  0  0  0  0  0
   -4.1463    7.1587  -20.7463 C   0  0  2  0  0  0  0  0  0  0  0  0
   -3.3673    8.3042  -20.1166 C   0  0  0  0  0  0  0  0  0  0  0  0
   -4.4809    7.5598  -22.0093 F   0  0  0  0  0  0  0  0  0  0  0  0
   -6.0156    4.4465  -16.0834 C   0  0  0  0  0  0  0  0  0  0  0  0
  1  2  1  0
  2  3  1  0
  2  4  1  0
  4  5  1  0
  5  6  2  0
  6  7  1  0
  7  8  1  0
  8  9  1  0
  9 10  2  0
  9 11  1  0
 11 12  1  0
 12 13  1  1
 12 14  1  0
  7 15  2  0
 15  4  1  0
M  END
>  <energy_score>  (2770) 
-29.959346

>  <alias>  (2770) 
None

>  <HIPPO Pose ID>  (2770) 
75564

>  <smiles>  (2770) 
CC(C)n1cnc(NC(=O)C[C@H](C)F)c1

>  <inchikey>  (2770) 
KTKPMULQPXFODG-QMMMGPOBSA-N

>  <distance_score>  (2770) 
1.847851

>  <ref_mols>  (2770) 
Z0719a,Z1597a

>  <ref_pdb>  (2770) 
Z0719a

>  <HIPPO Compound ID>  (2770) 
150146

>  <name>  (2770) 
P75564

>  <inspiration_score>  (2770) 
None

$$$$
P75569
     RDKit          3D

 15 15  0  0  0  0  0  0  0  0999 V2000
   -3.1613    8.0773  -20.3538 C   0  0  0  0  0  0  0  0  0  0  0  0
   -3.7302    6.6893  -20.5955 C   0  0  1  0  0  0  0  0  0  0  0  0
   -2.7322    5.9249  -21.1561 F   0  0  0  0  0  0  0  0  0  0  0  0
   -4.1647    5.9998  -19.3075 C   0  0  0  0  0  0  0  0  0  0  0  0
   -5.6077    6.3287  -18.9630 C   0  0  0  0  0  0  0  0  0  0  0  0
   -6.2259    7.1727  -19.4865 O   0  0  0  0  0  0  0  0  0  0  0  0
   -6.0401    5.2682  -17.9041 N   0  0  0  0  0  0  0  0  0  0  0  0
   -7.2626    4.9913  -17.3830 C   0  0  0  0  0  0  0  0  0  0  0  0
   -8.4027    5.2343  -18.0807 N   0  0  0  0  0  0  0  0  0  0  0  0
   -9.3893    4.7028  -17.3896 C   0  0  0  0  0  0  0  0  0  0  0  0
   -8.9374    4.1796  -16.2204 N   0  0  0  0  0  0  0  0  0  0  0  0
   -7.5865    4.3809  -16.2088 C   0  0  0  0  0  0  0  0  0  0  0  0
   -6.8289    4.0282  -15.0849 N   0  0  0  0  0  0  0  0  0  0  0  0
   -5.5972    4.0637  -15.1833 O   0  0  0  0  0  0  0  0  0  0  0  0
   -7.4770    3.7373  -14.0807 O   0  0  0  0  0  0  0  0  0  0  0  0
  2  1  1  1
  2  3  1  0
  2  4  1  0
  4  5  1  0
  5  6  2  0
  5  7  1  0
  7  8  1  0
  8  9  1  0
  9 10  2  0
 10 11  1  0
 11 12  1  0
 12 13  1  0
 13 14  2  0
 13 15  1  0
 12  8  2  0
M  CHG  2  13   1  15  -1
M  END
>  <energy_score>  (2771) 
-26.452825

>  <alias>  (2771) 
None

>  <HIPPO Pose ID>  (2771) 
75569

>  <smiles>  (2771) 
C[C@@H](F)CC(=O)Nc1nc[nH]c1[N+](=O)[O-]

>  <inchikey>  (2771) 
VRDVKUUXOUOXFL-SCSAIBSYSA-N

>  <distance_score>  (2771) 
1.684093

>  <ref_mols>  (2771) 
Z0719a,Z1597a

>  <ref_pdb>  (2771) 
Z0719a

>  <HIPPO Compound ID>  (2771) 
150151

>  <name>  (2771) 
P75569

>  <inspiration_score>  (2771) 
None

$$$$
P75570
     RDKit          3D

 15 16  0  0  0  0  0  0  0  0999 V2000
   -4.6154    4.6916  -12.9630 C   0  0  0  0  0  0  0  0  0  0  0  0
   -5.2958    5.8480  -12.2021 C   0  0  0  0  0  0  0  0  0  0  0  0
   -6.5742    5.3903  -11.5837 C   0  0  0  0  0  0  0  0  0  0  0  0
   -6.7227    5.3744  -10.2136 N   0  0  0  0  0  0  0  0  0  0  0  0
   -7.6939    4.5207   -9.9950 C   0  0  0  0  0  0  0  0  0  0  0  0
   -8.1471    3.9881  -11.1693 N   0  0  0  0  0  0  0  0  0  0  0  0
   -8.8583    2.7519  -11.2517 C   0  0  0  0  0  0  0  0  0  0  0  0
   -7.5967    4.6954  -12.2073 C   0  0  0  0  0  0  0  0  0  0  0  0
   -7.8786    4.5953  -13.5483 N   0  0  0  0  0  0  0  0  0  0  0  0
   -7.5357    5.5518  -14.7257 C   0  0  0  0  0  0  0  0  0  0  0  0
   -7.0298    6.6057  -14.7225 O   0  0  0  0  0  0  0  0  0  0  0  0
   -7.8298    4.9430  -16.0872 C   0  0  2  0  0  0  0  0  0  0  0  0
   -9.1606    4.3516  -16.4255 C   0  0  0  0  0  0  0  0  0  0  0  0
   -6.6291    4.5938  -16.9618 C   0  0  0  0  0  0  0  0  0  0  0  0
   -7.3654    5.7839  -17.1848 O   0  0  0  0  0  0  0  0  0  0  0  0
  1  2  1  0
  2  3  1  0
  3  4  1  0
  4  5  2  0
  5  6  1  0
  6  7  1  0
  6  8  1  0
  8  9  1  0
  9 10  1  0
 10 11  2  0
 10 12  1  0
 12 13  1  6
 12 14  1  0
 14 15  1  0
  8  3  2  0
 15 12  1  0
M  END
>  <energy_score>  (2772) 
-8.185822

>  <alias>  (2772) 
None

>  <HIPPO Pose ID>  (2772) 
75570

>  <smiles>  (2772) 
CCc1ncn(C)c1NC(=O)[C@]1(C)CO1

>  <inchikey>  (2772) 
WAKDCFSRBOAUKV-JTQLQIEISA-N

>  <distance_score>  (2772) 
1.594696

>  <ref_mols>  (2772) 
Z0719a,Z1597a

>  <ref_pdb>  (2772) 
Z0719a

>  <HIPPO Compound ID>  (2772) 
150152

>  <name>  (2772) 
P75570

>  <inspiration_score>  (2772) 
None

$$$$
P75572
     RDKit          3D

 15 16  0  0  0  0  0  0  0  0999 V2000
   -6.9544    4.7557   -9.4594 C   0  0  0  0  0  0  0  0  0  0  0  0
   -7.5517    4.3019  -10.6827 N   0  0  0  0  0  0  0  0  0  0  0  0
   -8.6100    3.4474  -10.7767 C   0  0  0  0  0  0  0  0  0  0  0  0
   -8.9974    3.3181  -12.0265 N   0  0  0  0  0  0  0  0  0  0  0  0
   -8.1543    4.0932  -12.7590 C   0  0  0  0  0  0  0  0  0  0  0  0
   -8.2702    4.2117  -14.1084 N   0  0  0  0  0  0  0  0  0  0  0  0
   -7.7532    5.3089  -15.0688 C   0  0  0  0  0  0  0  0  0  0  0  0
   -7.2146    6.3198  -14.8425 O   0  0  0  0  0  0  0  0  0  0  0  0
   -7.9064    4.9156  -16.5270 C   0  0  2  0  0  0  0  0  0  0  0  0
   -9.2019    4.4113  -17.0792 C   0  0  0  0  0  0  0  0  0  0  0  0
   -6.6263    4.6069  -17.2879 C   0  0  0  0  0  0  0  0  0  0  0  0
   -7.2855    5.8592  -17.4403 O   0  0  0  0  0  0  0  0  0  0  0  0
   -7.1606    4.6000  -11.9607 C   0  0  0  0  0  0  0  0  0  0  0  0
   -5.9036    5.0596  -12.4208 C   0  0  0  0  0  0  0  0  0  0  0  0
   -4.8694    5.2805  -12.8970 N   0  0  0  0  0  0  0  0  0  0  0  0
  1  2  1  0
  2  3  1  0
  3  4  2  0
  4  5  1  0
  5  6  1  0
  6  7  1  0
  7  8  2  0
  7  9  1  0
  9 10  1  6
  9 11  1  0
 11 12  1  0
  5 13  2  0
 13 14  1  0
 14 15  3  0
 13  2  1  0
 12  9  1  0
M  END
>  <energy_score>  (2773) 
-3.211457

>  <alias>  (2773) 
None

>  <HIPPO Pose ID>  (2773) 
75572

>  <smiles>  (2773) 
Cn1cnc(NC(=O)[C@]2(C)CO2)c1C#N

>  <inchikey>  (2773) 
JTONXJSILRUJQC-VIFPVBQESA-N

>  <distance_score>  (2773) 
1.60961

>  <ref_mols>  (2773) 
Z0719a,Z1597a

>  <ref_pdb>  (2773) 
Z0719a

>  <HIPPO Compound ID>  (2773) 
150153

>  <name>  (2773) 
P75572

>  <inspiration_score>  (2773) 
None

$$$$
P75573
     RDKit          3D

 15 16  0  0  0  0  0  0  0  0999 V2000
   -7.2895    3.3893  -12.8015 C   0  0  0  0  0  0  0  0  0  0  0  0
   -6.4069    3.0737  -14.0044 C   0  0  0  0  0  0  0  0  0  0  0  0
   -4.9471    3.0001  -13.5205 C   0  0  0  0  0  0  0  0  0  0  0  0
   -6.6257    3.9673  -15.1480 N   0  0  0  0  0  0  0  0  0  0  0  0
   -7.8309    4.4542  -15.5986 C   0  0  0  0  0  0  0  0  0  0  0  0
   -7.6832    5.2428  -16.6459 N   0  0  0  0  0  0  0  0  0  0  0  0
   -6.3625    5.1717  -16.9588 C   0  0  0  0  0  0  0  0  0  0  0  0
   -5.8509    5.8298  -18.0278 N   0  0  0  0  0  0  0  0  0  0  0  0
   -4.4055    5.8941  -18.5687 C   0  0  0  0  0  0  0  0  0  0  0  0
   -3.4427    5.3297  -18.2250 O   0  0  0  0  0  0  0  0  0  0  0  0
   -4.2676    6.9408  -19.6452 C   0  0  2  0  0  0  0  0  0  0  0  0
   -3.5117    8.1809  -19.3294 C   0  0  0  0  0  0  0  0  0  0  0  0
   -5.1934    6.9715  -20.8297 C   0  0  0  0  0  0  0  0  0  0  0  0
   -3.8697    6.4167  -20.9263 O   0  0  0  0  0  0  0  0  0  0  0  0
   -5.6883    4.4031  -16.0512 C   0  0  0  0  0  0  0  0  0  0  0  0
  1  2  1  0
  2  3  1  0
  2  4  1  0
  4  5  1  0
  5  6  2  0
  6  7  1  0
  7  8  1  0
  8  9  1  0
  9 10  2  0
  9 11  1  0
 11 12  1  1
 11 13  1  0
 13 14  1  0
  7 15  2  0
 15  4  1  0
 14 11  1  0
M  END
>  <energy_score>  (2774) 
-6.048771

>  <alias>  (2774) 
None

>  <HIPPO Pose ID>  (2774) 
75573

>  <smiles>  (2774) 
CC(C)n1cnc(NC(=O)[C@]2(C)CO2)c1

>  <inchikey>  (2774) 
IIQJLSLZDQROIO-JTQLQIEISA-N

>  <distance_score>  (2774) 
1.76238

>  <ref_mols>  (2774) 
Z0719a,Z1597a

>  <ref_pdb>  (2774) 
Z0719a

>  <HIPPO Compound ID>  (2774) 
150156

>  <name>  (2774) 
P75573

>  <inspiration_score>  (2774) 
None

$$$$
P75575
     RDKit          3D

 15 15  0  0  0  0  0  0  0  0999 V2000
   -6.1473    2.3754  -12.2345 C   0  0  0  0  0  0  0  0  0  0  0  0
   -5.9361    3.1920  -13.5151 C   0  0  0  0  0  0  0  0  0  0  0  0
   -5.1189    4.4171  -13.1534 C   0  0  0  0  0  0  0  0  0  0  0  0
   -7.3128    3.5587  -14.1280 C   0  0  0  0  0  0  0  0  0  0  0  0
   -7.3986    4.1119  -15.4709 N   0  0  0  0  0  0  0  0  0  0  0  0
   -8.5742    4.3200  -16.1467 C   0  0  0  0  0  0  0  0  0  0  0  0
   -8.3695    4.8661  -17.3251 N   0  0  0  0  0  0  0  0  0  0  0  0
   -7.0277    5.0323  -17.4048 C   0  0  0  0  0  0  0  0  0  0  0  0
   -6.4486    5.6217  -18.4729 N   0  0  0  0  0  0  0  0  0  0  0  0
   -4.9830    6.0859  -18.6974 C   0  0  0  0  0  0  0  0  0  0  0  0
   -4.0710    6.0996  -17.9641 O   0  0  0  0  0  0  0  0  0  0  0  0
   -4.8514    6.5418  -20.1375 C   0  0  0  0  0  0  0  0  0  0  0  0
   -4.0623    7.8259  -20.2855 C   0  0  0  0  0  0  0  0  0  0  0  0
   -5.2257    9.5350  -19.6891 I   0  0  0  0  0  0  0  0  0  0  0  0
   -6.4012    4.5551  -16.2866 C   0  0  0  0  0  0  0  0  0  0  0  0
  1  2  1  0
  2  3  1  0
  2  4  1  0
  4  5  1  0
  5  6  1  0
  6  7  2  0
  7  8  1  0
  8  9  1  0
  9 10  1  0
 10 11  2  0
 10 12  1  0
 12 13  1  0
 13 14  1  0
  8 15  2  0
 15  5  1  0
M  END
>  <energy_score>  (2775) 
-21.152254

>  <alias>  (2775) 
None

>  <HIPPO Pose ID>  (2775) 
75575

>  <smiles>  (2775) 
CC(C)Cn1cnc(NC(=O)CCI)c1

>  <inchikey>  (2775) 
YRXNGVQEEHRQFM-UHFFFAOYSA-N

>  <distance_score>  (2775) 
1.871888

>  <ref_mols>  (2775) 
Z0719a,Z1597a

>  <ref_pdb>  (2775) 
Z0719a

>  <HIPPO Compound ID>  (2775) 
150165

>  <name>  (2775) 
P75575

>  <inspiration_score>  (2775) 
None

$$$$
P75581
     RDKit          3D

 15 16  0  0  0  0  0  0  0  0999 V2000
   -8.3994    7.1660  -12.0690 C   0  0  0  0  0  0  0  0  0  0  0  0
   -8.0075    5.7691  -11.7876 C   0  0  0  0  0  0  0  0  0  0  0  0
   -7.9776    5.3358  -10.4829 N   0  0  0  0  0  0  0  0  0  0  0  0
   -7.6616    4.0578  -10.5283 C   0  0  0  0  0  0  0  0  0  0  0  0
   -7.6117    3.1631   -9.3499 C   0  0  0  0  0  0  0  0  0  0  0  0
   -7.3730    3.6796  -11.8202 N   0  0  0  0  0  0  0  0  0  0  0  0
   -6.7794    2.4385  -12.2622 C   0  0  0  0  0  0  0  0  0  0  0  0
   -7.6720    4.7389  -12.6472 C   0  0  0  0  0  0  0  0  0  0  0  0
   -7.6133    4.6455  -14.0117 N   0  0  0  0  0  0  0  0  0  0  0  0
   -7.7858    5.7212  -15.0932 C   0  0  0  0  0  0  0  0  0  0  0  0
   -7.9289    6.8715  -14.9967 O   0  0  0  0  0  0  0  0  0  0  0  0
   -7.7416    5.0838  -16.4528 C   0  0  2  0  0  0  0  0  0  0  0  0
   -8.9454    4.3391  -16.9439 C   0  0  0  0  0  0  0  0  0  0  0  0
   -6.3876    4.7900  -17.0703 C   0  0  0  0  0  0  0  0  0  0  0  0
   -7.1521    5.9236  -17.4716 O   0  0  0  0  0  0  0  0  0  0  0  0
  1  2  1  0
  2  3  1  0
  3  4  2  0
  4  5  1  0
  4  6  1  0
  6  7  1  0
  6  8  1  0
  8  9  1  0
  9 10  1  0
 10 11  2  0
 10 12  1  0
 12 13  1  6
 12 14  1  0
 14 15  1  0
  8  2  2  0
 15 12  1  0
M  END
>  <energy_score>  (2776) 
-21.510376

>  <alias>  (2776) 
None

>  <HIPPO Pose ID>  (2776) 
75581

>  <smiles>  (2776) 
Cc1nc(C)n(C)c1NC(=O)[C@]1(C)CO1

>  <inchikey>  (2776) 
TXIKHJMQYQRWJY-JTQLQIEISA-N

>  <distance_score>  (2776) 
1.325148

>  <ref_mols>  (2776) 
Z0719a,Z1597a

>  <ref_pdb>  (2776) 
Z0719a

>  <HIPPO Compound ID>  (2776) 
150174

>  <name>  (2776) 
P75581

>  <inspiration_score>  (2776) 
None

$$$$
P75584
     RDKit          3D

 15 15  0  0  0  0  0  0  0  0999 V2000
   -5.1872    8.4449  -19.9616 C   0  0  0  0  0  0  0  0  0  0  0  0
   -4.4831    7.1571  -20.3700 C   0  0  0  0  0  0  0  0  0  0  0  0
   -3.7162    6.5414  -19.2078 C   0  0  2  0  0  0  0  0  0  0  0  0
   -2.6286    5.0381  -19.8106 Br  0  0  0  0  0  0  0  0  0  0  0  0
   -4.4546    6.0746  -17.9396 C   0  0  0  0  0  0  0  0  0  0  0  0
   -3.9685    6.2727  -16.8930 O   0  0  0  0  0  0  0  0  0  0  0  0
   -5.8071    5.4050  -18.3112 N   0  0  0  0  0  0  0  0  0  0  0  0
   -6.8157    4.9574  -17.5205 C   0  0  0  0  0  0  0  0  0  0  0  0
   -8.0593    4.8093  -18.0619 N   0  0  0  0  0  0  0  0  0  0  0  0
   -8.8643    4.5436  -17.0553 C   0  0  0  0  0  0  0  0  0  0  0  0
   -8.1701    4.5100  -15.8899 N   0  0  0  0  0  0  0  0  0  0  0  0
   -8.6913    4.4513  -14.5505 C   0  0  0  0  0  0  0  0  0  0  0  0
   -6.8432    4.6647  -16.1816 C   0  0  0  0  0  0  0  0  0  0  0  0
   -5.8277    4.4953  -15.2180 C   0  0  0  0  0  0  0  0  0  0  0  0
   -5.0838    4.2617  -14.3603 N   0  0  0  0  0  0  0  0  0  0  0  0
  1  2  1  0
  2  3  1  0
  3  4  1  6
  3  5  1  0
  5  6  2  0
  5  7  1  0
  7  8  1  0
  8  9  1  0
  9 10  2  0
 10 11  1  0
 11 12  1  0
 11 13  1  0
 13 14  1  0
 14 15  3  0
 13  8  2  0
M  END
>  <energy_score>  (2777) 
-23.945721

>  <alias>  (2777) 
None

>  <HIPPO Pose ID>  (2777) 
75584

>  <smiles>  (2777) 
CC[C@H](Br)C(=O)Nc1ncn(C)c1C#N

>  <inchikey>  (2777) 
IKEOAVRWHKDGSE-LURJTMIESA-N

>  <distance_score>  (2777) 
1.832102

>  <ref_mols>  (2777) 
Z0719a,Z1597a

>  <ref_pdb>  (2777) 
Z0719a

>  <HIPPO Compound ID>  (2777) 
150181

>  <name>  (2777) 
P75584

>  <inspiration_score>  (2777) 
None

$$$$
P75585
     RDKit          3D

 15 15  0  0  0  0  0  0  0  0999 V2000
   -5.7655    2.5931  -12.5850 C   0  0  0  0  0  0  0  0  0  0  0  0
   -5.7093    3.4627  -13.8208 C   0  0  0  0  0  0  0  0  0  0  0  0
   -7.1122    3.6425  -14.4293 C   0  0  0  0  0  0  0  0  0  0  0  0
   -7.1762    4.2445  -15.7492 N   0  0  0  0  0  0  0  0  0  0  0  0
   -8.3175    4.6598  -16.3776 C   0  0  0  0  0  0  0  0  0  0  0  0
   -8.0368    5.3382  -17.4720 N   0  0  0  0  0  0  0  0  0  0  0  0
   -6.6855    5.2953  -17.5857 C   0  0  0  0  0  0  0  0  0  0  0  0
   -6.0151    5.9566  -18.5568 N   0  0  0  0  0  0  0  0  0  0  0  0
   -4.5052    5.9320  -18.9403 C   0  0  0  0  0  0  0  0  0  0  0  0
   -3.5985    5.3944  -18.4246 O   0  0  0  0  0  0  0  0  0  0  0  0
   -4.2267    6.8656  -20.1405 C   0  0  2  0  0  0  0  0  0  0  0  0
   -3.3848    8.4633  -19.3278 Br  0  0  0  0  0  0  0  0  0  0  0  0
   -5.3397    7.3304  -21.0585 C   0  0  0  0  0  0  0  0  0  0  0  0
   -4.8389    7.8761  -22.3917 C   0  0  0  0  0  0  0  0  0  0  0  0
   -6.1314    4.5938  -16.5538 C   0  0  0  0  0  0  0  0  0  0  0  0
  1  2  1  0
  2  3  1  0
  3  4  1  0
  4  5  1  0
  5  6  2  0
  6  7  1  0
  7  8  1  0
  8  9  1  0
  9 10  2  0
  9 11  1  0
 11 12  1  1
 11 13  1  0
 13 14  1  0
  7 15  2  0
 15  4  1  0
M  END
>  <energy_score>  (2778) 
-22.420496

>  <alias>  (2778) 
None

>  <HIPPO Pose ID>  (2778) 
75585

>  <smiles>  (2778) 
CCCn1cnc(NC(=O)[C@H](Br)CC)c1

>  <inchikey>  (2778) 
UQNXCXBDRKFGDI-MRVPVSSYSA-N

>  <distance_score>  (2778) 
1.839843

>  <ref_mols>  (2778) 
Z0719a,Z1597a

>  <ref_pdb>  (2778) 
Z0719a

>  <HIPPO Compound ID>  (2778) 
150182

>  <name>  (2778) 
P75585

>  <inspiration_score>  (2778) 
None

$$$$
P75586
     RDKit          3D

 15 16  0  0  0  0  0  0  0  0999 V2000
   -3.1863    8.3346  -21.6046 C   0  0  0  0  0  0  0  0  0  0  0  0
   -3.6512    7.8134  -20.2524 C   0  0  0  0  0  0  0  0  0  0  0  0
   -4.2969    6.4436  -20.3672 C   0  0  1  0  0  0  0  0  0  0  0  0
   -3.3185    5.5830  -20.8077 F   0  0  0  0  0  0  0  0  0  0  0  0
   -4.8788    5.9948  -19.0121 C   0  0  0  0  0  0  0  0  0  0  0  0
   -4.2883    6.1423  -18.0088 O   0  0  0  0  0  0  0  0  0  0  0  0
   -6.3220    5.4462  -19.2675 N   0  0  0  0  0  0  0  0  0  0  0  0
   -7.2347    4.9134  -18.4008 C   0  0  0  0  0  0  0  0  0  0  0  0
   -8.4544    4.2966  -18.6494 C   0  0  0  0  0  0  0  0  0  0  0  0
   -9.0982    3.9134  -17.4849 N   0  0  0  0  0  0  0  0  0  0  0  0
   -8.2864    4.3199  -16.5468 C   0  0  0  0  0  0  0  0  0  0  0  0
   -7.1666    4.9024  -17.0564 N   0  0  0  0  0  0  0  0  0  0  0  0
   -6.2879    5.4206  -16.0339 C   0  0  0  0  0  0  0  0  0  0  0  0
   -7.1869    5.3947  -14.7937 C   0  0  0  0  0  0  0  0  0  0  0  0
   -8.2699    4.3337  -15.0764 C   0  0  0  0  0  0  0  0  0  0  0  0
  1  2  1  0
  2  3  1  0
  3  4  1  1
  3  5  1  0
  5  6  2  0
  5  7  1  0
  7  8  1  0
  8  9  2  0
  9 10  1  0
 10 11  2  0
 11 12  1  0
 12 13  1  0
 13 14  1  0
 14 15  1  0
 12  8  1  0
 15 11  1  0
M  END
>  <energy_score>  (2779) 
-26.261913

>  <alias>  (2779) 
None

>  <HIPPO Pose ID>  (2779) 
75586

>  <smiles>  (2779) 
CC[C@@H](F)C(=O)Nc1cnc2n1CCC2

>  <inchikey>  (2779) 
RIFDWGCAPYXBCJ-SSDOTTSWSA-N

>  <distance_score>  (2779) 
1.29642

>  <ref_mols>  (2779) 
Z0719a,Z1597a

>  <ref_pdb>  (2779) 
Z0719a

>  <HIPPO Compound ID>  (2779) 
150185

>  <name>  (2779) 
P75586

>  <inspiration_score>  (2779) 
None

$$$$
P75590
     RDKit          3D

 15 15  0  0  0  0  0  0  0  0999 V2000
   -3.6049    7.3741  -21.4438 C   0  0  0  0  0  0  0  0  0  0  0  0
   -4.3564    6.9716  -20.1855 C   0  0  0  0  0  0  0  0  0  0  0  0
   -3.8990    5.6406  -19.5883 C   0  0  1  0  0  0  0  0  0  0  0  0
   -2.5282    5.6378  -19.5576 F   0  0  0  0  0  0  0  0  0  0  0  0
   -4.5000    5.4169  -18.1916 C   0  0  0  0  0  0  0  0  0  0  0  0
   -3.8613    5.5025  -17.2150 O   0  0  0  0  0  0  0  0  0  0  0  0
   -6.0221    5.1407  -18.3814 N   0  0  0  0  0  0  0  0  0  0  0  0
   -6.9818    4.8401  -17.4727 C   0  0  0  0  0  0  0  0  0  0  0  0
   -8.2755    4.7940  -17.9038 N   0  0  0  0  0  0  0  0  0  0  0  0
   -9.0050    4.5523  -16.8376 C   0  0  0  0  0  0  0  0  0  0  0  0
   -8.2242    4.4912  -15.7303 N   0  0  0  0  0  0  0  0  0  0  0  0
   -8.6398    4.4486  -14.3521 C   0  0  0  0  0  0  0  0  0  0  0  0
   -6.9176    4.5802  -16.1282 C   0  0  0  0  0  0  0  0  0  0  0  0
   -5.8446    4.3903  -15.2332 C   0  0  0  0  0  0  0  0  0  0  0  0
   -5.0659    4.1652  -14.4046 N   0  0  0  0  0  0  0  0  0  0  0  0
  1  2  1  0
  2  3  1  0
  3  4  1  1
  3  5  1  0
  5  6  2  0
  5  7  1  0
  7  8  1  0
  8  9  1  0
  9 10  2  0
 10 11  1  0
 11 12  1  0
 11 13  1  0
 13 14  1  0
 14 15  3  0
 13  8  2  0
M  END
>  <energy_score>  (2780) 
-18.816735

>  <alias>  (2780) 
None

>  <HIPPO Pose ID>  (2780) 
75590

>  <smiles>  (2780) 
CC[C@@H](F)C(=O)Nc1ncn(C)c1C#N

>  <inchikey>  (2780) 
ZBESWHSTEUYQFP-ZCFIWIBFSA-N

>  <distance_score>  (2780) 
1.219723

>  <ref_mols>  (2780) 
Z0719a,Z1597a

>  <ref_pdb>  (2780) 
Z0719a

>  <HIPPO Compound ID>  (2780) 
150193

>  <name>  (2780) 
P75590

>  <inspiration_score>  (2780) 
None

$$$$
P75592
     RDKit          3D

 15 16  0  0  0  0  0  0  0  0999 V2000
   -8.2399    7.3663  -11.7618 C   0  0  0  0  0  0  0  0  0  0  0  0
   -7.9232    5.9339  -11.5901 C   0  0  0  0  0  0  0  0  0  0  0  0
   -8.0050    5.3758  -10.3377 N   0  0  0  0  0  0  0  0  0  0  0  0
   -7.7603    4.0901  -10.4896 C   0  0  0  0  0  0  0  0  0  0  0  0
   -7.8194    3.0929   -9.3968 C   0  0  0  0  0  0  0  0  0  0  0  0
   -7.4382    3.8121  -11.7997 N   0  0  0  0  0  0  0  0  0  0  0  0
   -6.9174    2.5733  -12.3354 C   0  0  0  0  0  0  0  0  0  0  0  0
   -7.5843    4.9747  -12.5239 C   0  0  0  0  0  0  0  0  0  0  0  0
   -7.4018    5.0220  -13.8780 N   0  0  0  0  0  0  0  0  0  0  0  0
   -7.3467    6.2280  -14.8411 C   0  0  0  0  0  0  0  0  0  0  0  0
   -7.3714    7.3728  -14.6207 O   0  0  0  0  0  0  0  0  0  0  0  0
   -7.2643    5.8088  -16.2977 C   0  0  0  0  0  0  0  0  0  0  0  0
   -7.0004    6.8473  -17.1970 F   0  0  0  0  0  0  0  0  0  0  0  0
   -6.6803    4.5033  -16.7570 C   0  0  0  0  0  0  0  0  0  0  0  0
   -8.1664    4.7160  -16.8331 C   0  0  0  0  0  0  0  0  0  0  0  0
  1  2  1  0
  2  3  1  0
  3  4  2  0
  4  5  1  0
  4  6  1  0
  6  7  1  0
  6  8  1  0
  8  9  1  0
  9 10  1  0
 10 11  2  0
 10 12  1  0
 12 13  1  0
 12 14  1  0
 14 15  1  0
  8  2  2  0
 15 12  1  0
M  END
>  <energy_score>  (2781) 
-7.586597

>  <alias>  (2781) 
None

>  <HIPPO Pose ID>  (2781) 
75592

>  <smiles>  (2781) 
Cc1nc(C)n(C)c1NC(=O)C1(F)CC1

>  <inchikey>  (2781) 
VRKQPHQAHOWPBA-UHFFFAOYSA-N

>  <distance_score>  (2781) 
1.573531

>  <ref_mols>  (2781) 
Z0719a,Z1597a

>  <ref_pdb>  (2781) 
Z0719a

>  <HIPPO Compound ID>  (2781) 
150195

>  <name>  (2781) 
P75592

>  <inspiration_score>  (2781) 
None

$$$$
P75595
     RDKit          3D

 15 16  0  0  0  0  0  0  0  0999 V2000
   -8.8655    2.7242  -11.1705 C   0  0  0  0  0  0  0  0  0  0  0  0
   -8.2031    3.9912  -11.1615 N   0  0  0  0  0  0  0  0  0  0  0  0
   -7.6799    4.5652  -10.0302 C   0  0  0  0  0  0  0  0  0  0  0  0
   -6.7560    5.4530  -10.3285 N   0  0  0  0  0  0  0  0  0  0  0  0
   -6.7307    5.4567  -11.7029 C   0  0  0  0  0  0  0  0  0  0  0  0
   -5.5796    5.8282  -12.4750 C   0  0  0  0  0  0  0  0  0  0  0  0
   -4.6877    5.8917  -13.2191 N   0  0  0  0  0  0  0  0  0  0  0  0
   -7.7466    4.6916  -12.2457 C   0  0  0  0  0  0  0  0  0  0  0  0
   -8.0552    4.5607  -13.5768 N   0  0  0  0  0  0  0  0  0  0  0  0
   -7.7885    5.5149  -14.7704 C   0  0  0  0  0  0  0  0  0  0  0  0
   -7.3350    6.5914  -14.7923 O   0  0  0  0  0  0  0  0  0  0  0  0
   -8.0886    4.8649  -16.0897 C   0  0  0  0  0  0  0  0  0  0  0  0
   -9.2162    4.0535  -16.1417 F   0  0  0  0  0  0  0  0  0  0  0  0
   -7.7280    5.5721  -17.3811 C   0  0  0  0  0  0  0  0  0  0  0  0
   -6.9162    4.4150  -16.9335 C   0  0  0  0  0  0  0  0  0  0  0  0
  1  2  1  0
  2  3  1  0
  3  4  2  0
  4  5  1  0
  5  6  1  0
  6  7  3  0
  5  8  2  0
  8  9  1  0
  9 10  1  0
 10 11  2  0
 10 12  1  0
 12 13  1  0
 12 14  1  0
 14 15  1  0
  8  2  1  0
 15 12  1  0
M  END
>  <energy_score>  (2782) 
-1.984181

>  <alias>  (2782) 
None

>  <HIPPO Pose ID>  (2782) 
75595

>  <smiles>  (2782) 
Cn1cnc(C#N)c1NC(=O)C1(F)CC1

>  <inchikey>  (2782) 
RMQKTGJOZBBRMO-UHFFFAOYSA-N

>  <distance_score>  (2782) 
1.32989

>  <ref_mols>  (2782) 
Z0719a,Z1597a

>  <ref_pdb>  (2782) 
Z0719a

>  <HIPPO Compound ID>  (2782) 
150199

>  <name>  (2782) 
P75595

>  <inspiration_score>  (2782) 
None

$$$$
P75597
     RDKit          3D

 15 16  0  0  0  0  0  0  0  0999 V2000
   -3.7975    4.8623  -19.6813 O   0  0  0  0  0  0  0  0  0  0  0  0
   -4.1469    5.9787  -19.6669 C   0  0  0  0  0  0  0  0  0  0  0  0
   -3.8816    6.9443  -20.8130 C   0  0  0  0  0  0  0  0  0  0  0  0
   -3.1782    8.1969  -20.3666 C   0  0  0  0  0  0  0  0  0  0  0  0
   -4.1161    9.0914  -19.7687 O   0  0  0  0  0  0  0  0  0  0  0  0
   -5.0092    6.7497  -18.6319 N   0  0  0  0  0  0  0  0  0  0  0  0
   -5.6531    6.3134  -17.5289 C   0  0  0  0  0  0  0  0  0  0  0  0
   -6.0915    5.0421  -17.2624 C   0  0  0  0  0  0  0  0  0  0  0  0
   -7.0015    5.2251  -16.2559 N   0  0  0  0  0  0  0  0  0  0  0  0
   -8.0898    4.3387  -15.8992 C   0  0  0  0  0  0  0  0  0  0  0  0
   -8.8911    3.8915  -17.0938 C   0  0  0  0  0  0  0  0  0  0  0  0
   -8.9487    4.6042  -18.4289 C   0  0  0  0  0  0  0  0  0  0  0  0
  -10.1420    4.5915  -17.5354 C   0  0  0  0  0  0  0  0  0  0  0  0
   -6.8720    6.5030  -15.8023 C   0  0  0  0  0  0  0  0  0  0  0  0
   -6.1057    7.2056  -16.6026 N   0  0  0  0  0  0  0  0  0  0  0  0
  1  2  2  0
  2  3  1  0
  3  4  1  0
  4  5  1  0
  2  6  1  0
  6  7  1  0
  7  8  2  0
  8  9  1  0
  9 10  1  0
 10 11  1  0
 11 12  1  0
 12 13  1  0
  9 14  1  0
 14 15  2  0
 15  7  1  0
 13 11  1  0
M  END
>  <energy_score>  (2783) 
-18.107632

>  <alias>  (2783) 
None

>  <HIPPO Pose ID>  (2783) 
75597

>  <smiles>  (2783) 
O=C(CCO)Nc1cn(CC2CC2)cn1

>  <inchikey>  (2783) 
IKTWXFKDXOMZQQ-UHFFFAOYSA-N

>  <distance_score>  (2783) 
1.901759

>  <ref_mols>  (2783) 
Z0719a,Z1597a

>  <ref_pdb>  (2783) 
Z0719a

>  <HIPPO Compound ID>  (2783) 
150208

>  <name>  (2783) 
P75597

>  <inspiration_score>  (2783) 
None

$$$$
P75602
     RDKit          3D

 15 15  0  0  0  0  0  0  0  0999 V2000
   -5.4831    7.4557  -20.4494 C   0  0  0  0  0  0  0  0  0  0  0  0
   -4.1232    6.9625  -19.9839 C   0  0  0  0  0  0  0  0  0  0  0  0
   -4.1557    5.5982  -19.3055 C   0  0  1  0  0  0  0  0  0  0  0  0
   -2.3214    5.1058  -18.7974 Br  0  0  0  0  0  0  0  0  0  0  0  0
   -5.0303    5.5291  -18.0446 C   0  0  0  0  0  0  0  0  0  0  0  0
   -4.6921    5.9113  -16.9925 O   0  0  0  0  0  0  0  0  0  0  0  0
   -6.3488    4.8267  -18.4874 N   0  0  0  0  0  0  0  0  0  0  0  0
   -7.4778    4.5576  -17.7908 C   0  0  0  0  0  0  0  0  0  0  0  0
   -8.5994    4.2943  -18.5259 N   0  0  0  0  0  0  0  0  0  0  0  0
   -9.5861    4.1876  -17.6669 C   0  0  0  0  0  0  0  0  0  0  0  0
   -9.1302    4.2700  -16.3904 N   0  0  0  0  0  0  0  0  0  0  0  0
   -7.7840    4.4967  -16.4638 C   0  0  0  0  0  0  0  0  0  0  0  0
   -7.0549    4.5824  -15.2688 N   0  0  0  0  0  0  0  0  0  0  0  0
   -5.9807    3.9833  -15.1842 O   0  0  0  0  0  0  0  0  0  0  0  0
   -7.6254    5.2088  -14.3708 O   0  0  0  0  0  0  0  0  0  0  0  0
  1  2  1  0
  2  3  1  0
  3  4  1  1
  3  5  1  0
  5  6  2  0
  5  7  1  0
  7  8  1  0
  8  9  1  0
  9 10  2  0
 10 11  1  0
 11 12  1  0
 12 13  1  0
 13 14  2  0
 13 15  1  0
 12  8  2  0
M  CHG  2  13   1  15  -1
M  END
>  <energy_score>  (2784) 
-20.401601

>  <alias>  (2784) 
None

>  <HIPPO Pose ID>  (2784) 
75602

>  <smiles>  (2784) 
CC[C@@H](Br)C(=O)Nc1nc[nH]c1[N+](=O)[O-]

>  <inchikey>  (2784) 
ZHULPOSGAWUKBS-SCSAIBSYSA-N

>  <distance_score>  (2784) 
1.493449

>  <ref_mols>  (2784) 
Z0719a,Z1597a

>  <ref_pdb>  (2784) 
Z0719a

>  <HIPPO Compound ID>  (2784) 
150213

>  <name>  (2784) 
P75602

>  <inspiration_score>  (2784) 
None

$$$$
P75603
     RDKit          3D

 15 16  0  0  0  0  0  0  0  0999 V2000
   -4.3148    7.1315  -20.8442 C   0  0  0  0  0  0  0  0  0  0  0  0
   -3.7010    6.1674  -19.8476 C   0  0  0  0  0  0  0  0  0  0  0  0
   -3.3507    5.0139  -20.4928 F   0  0  0  0  0  0  0  0  0  0  0  0
   -2.5006    6.7059  -19.4609 F   0  0  0  0  0  0  0  0  0  0  0  0
   -4.6303    5.9153  -18.6359 C   0  0  0  0  0  0  0  0  0  0  0  0
   -4.3796    6.3570  -17.5770 O   0  0  0  0  0  0  0  0  0  0  0  0
   -5.8648    5.0798  -19.1210 N   0  0  0  0  0  0  0  0  0  0  0  0
   -7.0106    4.7258  -18.4631 C   0  0  0  0  0  0  0  0  0  0  0  0
   -8.2019    4.1784  -18.9190 C   0  0  0  0  0  0  0  0  0  0  0  0
   -9.1478    4.0464  -17.9148 N   0  0  0  0  0  0  0  0  0  0  0  0
   -8.5408    4.5409  -16.8731 C   0  0  0  0  0  0  0  0  0  0  0  0
   -7.2491    4.8672  -17.1455 N   0  0  0  0  0  0  0  0  0  0  0  0
   -6.5212    5.2769  -15.9693 C   0  0  0  0  0  0  0  0  0  0  0  0
   -7.4562    4.8333  -14.8429 C   0  0  0  0  0  0  0  0  0  0  0  0
   -8.8618    4.8221  -15.4681 C   0  0  0  0  0  0  0  0  0  0  0  0
  1  2  1  0
  2  3  1  0
  2  4  1  0
  2  5  1  0
  5  6  2  0
  5  7  1  0
  7  8  1  0
  8  9  2  0
  9 10  1  0
 10 11  2  0
 11 12  1  0
 12 13  1  0
 13 14  1  0
 14 15  1  0
 12  8  1  0
 15 11  1  0
M  END
>  <energy_score>  (2785) 
-23.996156

>  <alias>  (2785) 
None

>  <HIPPO Pose ID>  (2785) 
75603

>  <smiles>  (2785) 
CC(F)(F)C(=O)Nc1cnc2n1CCC2

>  <inchikey>  (2785) 
HXVDPZSSDNIVCF-UHFFFAOYSA-N

>  <distance_score>  (2785) 
1.822673

>  <ref_mols>  (2785) 
Z0719a,Z1597a

>  <ref_pdb>  (2785) 
Z0719a

>  <HIPPO Compound ID>  (2785) 
150221

>  <name>  (2785) 
P75603

>  <inspiration_score>  (2785) 
None

$$$$
P75605
     RDKit          3D

 15 15  0  0  0  0  0  0  0  0999 V2000
   -4.2340    6.5823  -19.4916 C   0  0  0  0  0  0  0  0  0  0  0  0
   -3.6408    5.4593  -18.6512 C   0  0  0  0  0  0  0  0  0  0  0  0
   -3.7014    4.3208  -19.4043 F   0  0  0  0  0  0  0  0  0  0  0  0
   -2.3021    5.7161  -18.5172 F   0  0  0  0  0  0  0  0  0  0  0  0
   -4.3312    5.2521  -17.2627 C   0  0  0  0  0  0  0  0  0  0  0  0
   -3.7941    5.4541  -16.2424 O   0  0  0  0  0  0  0  0  0  0  0  0
   -5.7774    4.7553  -17.5609 N   0  0  0  0  0  0  0  0  0  0  0  0
   -6.8182    4.5134  -16.7211 C   0  0  0  0  0  0  0  0  0  0  0  0
   -8.0342    4.7331  -17.3229 N   0  0  0  0  0  0  0  0  0  0  0  0
   -8.9492    4.3714  -16.4612 C   0  0  0  0  0  0  0  0  0  0  0  0
   -8.3797    3.9311  -15.3092 N   0  0  0  0  0  0  0  0  0  0  0  0
   -7.0103    4.0131  -15.4520 C   0  0  0  0  0  0  0  0  0  0  0  0
   -6.2080    3.4016  -14.4382 N   0  0  0  0  0  0  0  0  0  0  0  0
   -6.8240    2.7372  -13.5888 O   0  0  0  0  0  0  0  0  0  0  0  0
   -4.9822    3.5261  -14.4784 O   0  0  0  0  0  0  0  0  0  0  0  0
  1  2  1  0
  2  3  1  0
  2  4  1  0
  2  5  1  0
  5  6  2  0
  5  7  1  0
  7  8  1  0
  8  9  1  0
  9 10  2  0
 10 11  1  0
 11 12  1  0
 12 13  1  0
 13 14  2  0
 13 15  1  0
 12  8  2  0
M  CHG  2  13   1  15  -1
M  END
>  <energy_score>  (2786) 
-7.969041

>  <alias>  (2786) 
None

>  <HIPPO Pose ID>  (2786) 
75605

>  <smiles>  (2786) 
CC(F)(F)C(=O)Nc1nc[nH]c1[N+](=O)[O-]

>  <inchikey>  (2786) 
LDVMOXKFIFTIAC-UHFFFAOYSA-N

>  <distance_score>  (2786) 
1.776423

>  <ref_mols>  (2786) 
Z0719a,Z1597a

>  <ref_pdb>  (2786) 
Z0719a

>  <HIPPO Compound ID>  (2786) 
150223

>  <name>  (2786) 
P75605

>  <inspiration_score>  (2786) 
None

$$$$
P75606
     RDKit          3D

 15 15  0  0  0  0  0  0  0  0999 V2000
   -5.4899    4.9846  -14.2424 C   0  0  0  0  0  0  0  0  0  0  0  0
   -6.2820    5.9042  -15.1455 C   0  0  0  0  0  0  0  0  0  0  0  0
   -7.1827    5.1918  -16.0069 N   0  0  0  0  0  0  0  0  0  0  0  0
   -8.3733    4.6627  -15.5553 C   0  0  0  0  0  0  0  0  0  0  0  0
   -8.7309    4.5831  -14.1190 C   0  0  0  0  0  0  0  0  0  0  0  0
   -9.1162    4.2647  -16.5600 N   0  0  0  0  0  0  0  0  0  0  0  0
   -8.3803    4.5335  -17.6808 C   0  0  0  0  0  0  0  0  0  0  0  0
   -8.9310    4.1725  -18.9848 C   0  0  0  0  0  0  0  0  0  0  0  0
   -7.1408    5.0532  -17.3666 C   0  0  0  0  0  0  0  0  0  0  0  0
   -6.1252    5.3292  -18.2440 N   0  0  0  0  0  0  0  0  0  0  0  0
   -4.5971    5.4981  -18.0004 C   0  0  0  0  0  0  0  0  0  0  0  0
   -3.9842    5.5039  -17.0033 O   0  0  0  0  0  0  0  0  0  0  0  0
   -3.9254    5.5604  -19.3653 C   0  0  0  0  0  0  0  0  0  0  0  0
   -4.2413    6.8192  -20.1507 C   0  0  0  0  0  0  0  0  0  0  0  0
   -5.5555    6.8055  -20.6791 O   0  0  0  0  0  0  0  0  0  0  0  0
  1  2  1  0
  2  3  1  0
  3  4  1  0
  4  5  1  0
  4  6  2  0
  6  7  1  0
  7  8  1  0
  7  9  2  0
  9 10  1  0
 10 11  1  0
 11 12  2  0
 11 13  1  0
 13 14  1  0
 14 15  1  0
  9  3  1  0
M  END
>  <energy_score>  (2787) 
-26.068291

>  <alias>  (2787) 
None

>  <HIPPO Pose ID>  (2787) 
75606

>  <smiles>  (2787) 
CCn1c(C)nc(C)c1NC(=O)CCO

>  <inchikey>  (2787) 
DHYPSLCNZBLHHW-UHFFFAOYSA-N

>  <distance_score>  (2787) 
1.43328

>  <ref_mols>  (2787) 
Z0719a,Z1597a

>  <ref_pdb>  (2787) 
Z0719a

>  <HIPPO Compound ID>  (2787) 
150225

>  <name>  (2787) 
P75606

>  <inspiration_score>  (2787) 
None

$$$$
P75608
     RDKit          3D

 15 16  0  0  0  0  0  0  0  0999 V2000
   -3.6525    6.5846  -19.5580 O   0  0  0  0  0  0  0  0  0  0  0  0
   -4.6595    6.5297  -20.1529 C   0  0  0  0  0  0  0  0  0  0  0  0
   -4.8200    7.2027  -21.5071 C   0  0  0  0  0  0  0  0  0  0  0  0
   -4.3923    8.6435  -21.3835 C   0  0  0  0  0  0  0  0  0  0  0  0
   -5.4820    9.4399  -20.9101 O   0  0  0  0  0  0  0  0  0  0  0  0
   -6.0275    5.9066  -19.7614 N   0  0  0  0  0  0  0  0  0  0  0  0
   -6.4366    5.3468  -18.6022 C   0  0  0  0  0  0  0  0  0  0  0  0
   -7.7155    4.9220  -18.3432 C   0  0  0  0  0  0  0  0  0  0  0  0
   -7.7218    4.6865  -17.0021 N   0  0  0  0  0  0  0  0  0  0  0  0
   -8.7855    4.4609  -16.1504 C   0  0  0  0  0  0  0  0  0  0  0  0
   -8.5422    4.3898  -14.8373 C   0  0  0  0  0  0  0  0  0  0  0  0
   -7.1142    4.4580  -14.4439 C   0  0  0  0  0  0  0  0  0  0  0  0
   -6.1059    4.6775  -15.2226 N   0  0  0  0  0  0  0  0  0  0  0  0
   -6.4145    4.8478  -16.5403 C   0  0  0  0  0  0  0  0  0  0  0  0
   -5.6287    5.2451  -17.5162 N   0  0  0  0  0  0  0  0  0  0  0  0
  1  2  2  0
  2  3  1  0
  3  4  1  0
  4  5  1  0
  2  6  1  0
  6  7  1  0
  7  8  2  0
  8  9  1  0
  9 10  1  0
 10 11  2  0
 11 12  1  0
 12 13  2  0
 13 14  1  0
 14 15  2  0
 15  7  1  0
 14  9  1  0
M  END
>  <energy_score>  (2788) 
-11.737876

>  <alias>  (2788) 
None

>  <HIPPO Pose ID>  (2788) 
75608

>  <smiles>  (2788) 
O=C(CCO)Nc1cn2cccnc2n1

>  <inchikey>  (2788) 
ACCKSFAPAJQVTB-UHFFFAOYSA-N

>  <distance_score>  (2788) 
1.653948

>  <ref_mols>  (2788) 
Z0719a,Z1597a

>  <ref_pdb>  (2788) 
Z0719a

>  <HIPPO Compound ID>  (2788) 
150229

>  <name>  (2788) 
P75608

>  <inspiration_score>  (2788) 
None

$$$$
P75609
     RDKit          3D

 15 15  0  0  0  0  0  0  0  0999 V2000
   -8.7565    4.4955  -14.7390 C   0  0  0  0  0  0  0  0  0  0  0  0
   -8.1928    4.5059  -16.0615 N   0  0  0  0  0  0  0  0  0  0  0  0
   -8.8611    4.5010  -17.2418 C   0  0  0  0  0  0  0  0  0  0  0  0
   -8.0245    4.6734  -18.2410 N   0  0  0  0  0  0  0  0  0  0  0  0
   -6.7853    4.8017  -17.6842 C   0  0  0  0  0  0  0  0  0  0  0  0
   -5.7515    5.1219  -18.5058 N   0  0  0  0  0  0  0  0  0  0  0  0
   -4.2681    5.4765  -18.1762 C   0  0  0  0  0  0  0  0  0  0  0  0
   -3.7338    5.6213  -17.1434 O   0  0  0  0  0  0  0  0  0  0  0  0
   -3.5250    5.7375  -19.5142 C   0  0  0  0  0  0  0  0  0  0  0  0
   -4.1355    6.8539  -20.3448 C   0  0  0  0  0  0  0  0  0  0  0  0
   -2.2144    6.0842  -19.3000 F   0  0  0  0  0  0  0  0  0  0  0  0
   -3.4442    4.6099  -20.2779 F   0  0  0  0  0  0  0  0  0  0  0  0
   -6.8544    4.6147  -16.3262 C   0  0  0  0  0  0  0  0  0  0  0  0
   -5.8744    4.4929  -15.3177 C   0  0  0  0  0  0  0  0  0  0  0  0
   -5.1694    4.3187  -14.4141 N   0  0  0  0  0  0  0  0  0  0  0  0
  1  2  1  0
  2  3  1  0
  3  4  2  0
  4  5  1  0
  5  6  1  0
  6  7  1  0
  7  8  2  0
  7  9  1  0
  9 10  1  0
  9 11  1  0
  9 12  1  0
  5 13  2  0
 13 14  1  0
 14 15  3  0
 13  2  1  0
M  END
>  <energy_score>  (2789) 
-20.996418

>  <alias>  (2789) 
None

>  <HIPPO Pose ID>  (2789) 
75609

>  <smiles>  (2789) 
Cn1cnc(NC(=O)C(C)(F)F)c1C#N

>  <inchikey>  (2789) 
JBSSYWQCJHAZDE-UHFFFAOYSA-N

>  <distance_score>  (2789) 
1.612297

>  <ref_mols>  (2789) 
Z0719a,Z1597a

>  <ref_pdb>  (2789) 
Z0719a

>  <HIPPO Compound ID>  (2789) 
150231

>  <name>  (2789) 
P75609

>  <inspiration_score>  (2789) 
None

$$$$
P75610
     RDKit          3D

 15 16  0  0  0  0  0  0  0  0999 V2000
   -4.8935    4.7070  -12.9003 C   0  0  0  0  0  0  0  0  0  0  0  0
   -5.6041    5.8790  -12.1924 C   0  0  0  0  0  0  0  0  0  0  0  0
   -6.8084    5.4128  -11.4414 C   0  0  0  0  0  0  0  0  0  0  0  0
   -6.8700    5.5428  -10.0709 N   0  0  0  0  0  0  0  0  0  0  0  0
   -7.7923    4.6890   -9.6973 C   0  0  0  0  0  0  0  0  0  0  0  0
   -8.3061    4.0151  -10.7717 N   0  0  0  0  0  0  0  0  0  0  0  0
   -9.0060    2.7743  -10.6396 C   0  0  0  0  0  0  0  0  0  0  0  0
   -7.8347    4.6096  -11.9098 C   0  0  0  0  0  0  0  0  0  0  0  0
   -8.1671    4.3191  -13.2046 N   0  0  0  0  0  0  0  0  0  0  0  0
   -7.9129    5.1141  -14.5118 C   0  0  0  0  0  0  0  0  0  0  0  0
   -7.4497    6.1745  -14.6753 O   0  0  0  0  0  0  0  0  0  0  0  0
   -8.2587    4.2734  -15.6918 C   0  0  2  0  0  0  0  0  0  0  0  0
   -7.4704    4.5606  -16.8699 C   0  0  0  0  0  0  0  0  0  0  0  0
   -8.7694    4.8505  -16.8989 C   0  0  0  0  0  0  0  0  0  0  0  0
   -9.7134    4.3385  -17.9071 C   0  0  0  0  0  0  0  0  0  0  0  0
  1  2  1  0
  2  3  1  0
  3  4  1  0
  4  5  2  0
  5  6  1  0
  6  7  1  0
  6  8  1  0
  8  9  1  0
  9 10  1  0
 10 11  2  0
 12 10  1  1
 12 13  1  0
 13 14  2  0
 14 15  1  0
  8  3  2  0
 14 12  1  0
M  END
>  <energy_score>  (2790) 
-16.455122

>  <alias>  (2790) 
None

>  <HIPPO Pose ID>  (2790) 
75610

>  <smiles>  (2790) 
CCc1ncn(C)c1NC(=O)[C@@H]1C=C1C

>  <inchikey>  (2790) 
SYUZFKMLGQNHNJ-MRVPVSSYSA-N

>  <distance_score>  (2790) 
1.511115

>  <ref_mols>  (2790) 
Z0719a,Z1597a

>  <ref_pdb>  (2790) 
Z0719a

>  <HIPPO Compound ID>  (2790) 
150235

>  <name>  (2790) 
P75610

>  <inspiration_score>  (2790) 
None

$$$$
P75613
     RDKit          3D

 15 16  0  0  0  0  0  0  0  0999 V2000
   -9.3217    4.1125  -17.9983 C   0  0  0  0  0  0  0  0  0  0  0  0
   -8.5293    4.9677  -17.0853 C   0  0  0  0  0  0  0  0  0  0  0  0
   -7.3158    5.4560  -17.3518 C   0  0  0  0  0  0  0  0  0  0  0  0
   -7.4572    4.4719  -16.2775 C   0  0  1  0  0  0  0  0  0  0  0  0
   -7.3282    4.9569  -14.8849 C   0  0  0  0  0  0  0  0  0  0  0  0
   -6.6709    5.8973  -14.6746 O   0  0  0  0  0  0  0  0  0  0  0  0
   -8.0566    4.0085  -13.9115 N   0  0  0  0  0  0  0  0  0  0  0  0
   -8.0524    3.9641  -12.5559 C   0  0  0  0  0  0  0  0  0  0  0  0
   -8.9946    3.2737  -11.8627 N   0  0  0  0  0  0  0  0  0  0  0  0
   -8.6853    3.4301  -10.5942 C   0  0  0  0  0  0  0  0  0  0  0  0
   -7.5909    4.2311  -10.4535 N   0  0  0  0  0  0  0  0  0  0  0  0
   -7.0573    4.7063   -9.2096 C   0  0  0  0  0  0  0  0  0  0  0  0
   -7.0954    4.4604  -11.7079 C   0  0  0  0  0  0  0  0  0  0  0  0
   -5.7949    4.8727  -12.0847 C   0  0  0  0  0  0  0  0  0  0  0  0
   -4.7282    5.0760  -12.4923 N   0  0  0  0  0  0  0  0  0  0  0  0
  1  2  1  0
  2  3  2  0
  3  4  1  0
  4  5  1  1
  5  6  2  0
  5  7  1  0
  7  8  1  0
  8  9  1  0
  9 10  2  0
 10 11  1  0
 11 12  1  0
 11 13  1  0
 13 14  1  0
 14 15  3  0
  4  2  1  0
 13  8  2  0
M  END
>  <energy_score>  (2791) 
-5.108236

>  <alias>  (2791) 
None

>  <HIPPO Pose ID>  (2791) 
75613

>  <smiles>  (2791) 
CC1=C[C@H]1C(=O)Nc1ncn(C)c1C#N

>  <inchikey>  (2791) 
UNXJQMPMHZERML-SSDOTTSWSA-N

>  <distance_score>  (2791) 
1.433842

>  <ref_mols>  (2791) 
Z0719a,Z1597a

>  <ref_pdb>  (2791) 
Z0719a

>  <HIPPO Compound ID>  (2791) 
150236

>  <name>  (2791) 
P75613

>  <inspiration_score>  (2791) 
None

$$$$
P75618
     RDKit          3D

 15 15  0  0  0  0  0  0  0  0999 V2000
   -2.8677    5.1947  -19.2192 C   0  0  0  0  0  0  0  0  0  0  0  0
   -4.0451    5.8416  -19.1881 C   0  0  0  0  0  0  0  0  0  0  0  0
   -4.5158    6.9268  -20.1250 C   0  0  0  0  0  0  0  0  0  0  0  0
   -3.4597    7.5330  -21.0411 C   0  0  0  0  0  0  0  0  0  0  0  0
   -4.9097    5.5412  -17.9905 C   0  0  0  0  0  0  0  0  0  0  0  0
   -4.5102    5.6713  -16.9041 O   0  0  0  0  0  0  0  0  0  0  0  0
   -6.2930    5.0947  -18.4987 N   0  0  0  0  0  0  0  0  0  0  0  0
   -7.3818    4.6499  -17.8188 C   0  0  0  0  0  0  0  0  0  0  0  0
   -8.4912    4.3518  -18.5637 N   0  0  0  0  0  0  0  0  0  0  0  0
   -9.4653    4.1360  -17.7096 C   0  0  0  0  0  0  0  0  0  0  0  0
   -9.0081    4.1652  -16.4311 N   0  0  0  0  0  0  0  0  0  0  0  0
   -7.6781    4.4768  -16.4973 C   0  0  0  0  0  0  0  0  0  0  0  0
   -6.9723    4.5999  -15.2938 N   0  0  0  0  0  0  0  0  0  0  0  0
   -5.9703    3.9016  -15.1238 O   0  0  0  0  0  0  0  0  0  0  0  0
   -7.5091    5.3414  -14.4659 O   0  0  0  0  0  0  0  0  0  0  0  0
  1  2  2  0
  2  3  1  0
  3  4  1  0
  2  5  1  0
  5  6  2  0
  5  7  1  0
  7  8  1  0
  8  9  1  0
  9 10  2  0
 10 11  1  0
 11 12  1  0
 12 13  1  0
 13 14  2  0
 13 15  1  0
 12  8  2  0
M  CHG  2  13   1  15  -1
M  END
>  <energy_score>  (2792) 
-31.070038

>  <alias>  (2792) 
None

>  <HIPPO Pose ID>  (2792) 
75618

>  <smiles>  (2792) 
C=C(CC)C(=O)Nc1nc[nH]c1[N+](=O)[O-]

>  <inchikey>  (2792) 
HYCFXZVDFRAHDY-UHFFFAOYSA-N

>  <distance_score>  (2792) 
1.463692

>  <ref_mols>  (2792) 
Z0719a,Z1597a

>  <ref_pdb>  (2792) 
Z0719a

>  <HIPPO Compound ID>  (2792) 
150249

>  <name>  (2792) 
P75618

>  <inspiration_score>  (2792) 
None

$$$$
P75619
     RDKit          3D

 15 15  0  0  0  0  0  0  0  0999 V2000
   -2.2401    4.5918  -19.4087 C   0  0  0  0  0  0  0  0  0  0  0  0
   -3.2848    5.4371  -19.3967 C   0  0  0  0  0  0  0  0  0  0  0  0
   -3.5840    6.4948  -20.4141 C   0  0  0  0  0  0  0  0  0  0  0  0
   -2.8102    6.2700  -21.5998 O   0  0  0  0  0  0  0  0  0  0  0  0
   -4.1506    5.3728  -18.1767 C   0  0  0  0  0  0  0  0  0  0  0  0
   -3.7215    5.6203  -17.1220 O   0  0  0  0  0  0  0  0  0  0  0  0
   -5.5796    4.9946  -18.6100 N   0  0  0  0  0  0  0  0  0  0  0  0
   -6.6927    4.7630  -17.8700 C   0  0  0  0  0  0  0  0  0  0  0  0
   -7.8746    4.6555  -18.5413 N   0  0  0  0  0  0  0  0  0  0  0  0
   -8.8047    4.5085  -17.6297 C   0  0  0  0  0  0  0  0  0  0  0  0
   -8.2541    4.5254  -16.3907 N   0  0  0  0  0  0  0  0  0  0  0  0
   -8.9770    4.4979  -15.1523 C   0  0  0  0  0  0  0  0  0  0  0  0
   -6.8944    4.6122  -16.5188 C   0  0  0  0  0  0  0  0  0  0  0  0
   -6.0113    4.4795  -15.4230 C   0  0  0  0  0  0  0  0  0  0  0  0
   -5.3973    4.2875  -14.4576 N   0  0  0  0  0  0  0  0  0  0  0  0
  1  2  2  0
  2  3  1  0
  3  4  1  0
  2  5  1  0
  5  6  2  0
  5  7  1  0
  7  8  1  0
  8  9  1  0
  9 10  2  0
 10 11  1  0
 11 12  1  0
 11 13  1  0
 13 14  1  0
 14 15  3  0
 13  8  2  0
M  END
>  <energy_score>  (2793) 
-23.860347

>  <alias>  (2793) 
None

>  <HIPPO Pose ID>  (2793) 
75619

>  <smiles>  (2793) 
C=C(CO)C(=O)Nc1ncn(C)c1C#N

>  <inchikey>  (2793) 
DSFRHTOHCGPOJA-UHFFFAOYSA-N

>  <distance_score>  (2793) 
1.234594

>  <ref_mols>  (2793) 
Z0719a,Z1597a

>  <ref_pdb>  (2793) 
Z0719a

>  <HIPPO Compound ID>  (2793) 
150250

>  <name>  (2793) 
P75619

>  <inspiration_score>  (2793) 
None

$$$$
P75621
     RDKit          3D

 15 17  0  0  0  0  0  0  0  0999 V2000
   -5.3485    8.0347  -21.0570 C   0  0  0  0  0  0  0  0  0  0  0  0
   -4.2073    7.1163  -20.9108 C   0  0  0  0  0  0  0  0  0  0  0  0
   -3.1568    7.2635  -20.1116 C   0  0  0  0  0  0  0  0  0  0  0  0
   -3.9335    6.0542  -19.9788 C   0  0  1  0  0  0  0  0  0  0  0  0
   -4.7716    5.8988  -18.7669 C   0  0  0  0  0  0  0  0  0  0  0  0
   -4.3430    6.2361  -17.7354 O   0  0  0  0  0  0  0  0  0  0  0  0
   -6.0960    5.1877  -19.1159 N   0  0  0  0  0  0  0  0  0  0  0  0
   -7.1553    4.8461  -18.3237 C   0  0  0  0  0  0  0  0  0  0  0  0
   -8.3770    4.2692  -18.6441 C   0  0  0  0  0  0  0  0  0  0  0  0
   -9.1190    3.9521  -17.5165 N   0  0  0  0  0  0  0  0  0  0  0  0
   -8.3717    4.3812  -16.5357 C   0  0  0  0  0  0  0  0  0  0  0  0
   -7.2229    4.9556  -16.9835 N   0  0  0  0  0  0  0  0  0  0  0  0
   -6.3974    5.4694  -15.9151 C   0  0  0  0  0  0  0  0  0  0  0  0
   -7.3594    5.4491  -14.7253 C   0  0  0  0  0  0  0  0  0  0  0  0
   -8.4246    4.3908  -15.0665 C   0  0  0  0  0  0  0  0  0  0  0  0
  1  2  1  0
  2  3  2  0
  3  4  1  0
  4  5  1  1
  5  6  2  0
  5  7  1  0
  7  8  1  0
  8  9  2  0
  9 10  1  0
 10 11  2  0
 11 12  1  0
 12 13  1  0
 13 14  1  0
 14 15  1  0
  4  2  1  0
 12  8  1  0
 15 11  1  0
M  END
>  <energy_score>  (2794) 
-18.568131

>  <alias>  (2794) 
None

>  <HIPPO Pose ID>  (2794) 
75621

>  <smiles>  (2794) 
CC1=C[C@H]1C(=O)Nc1cnc2n1CCC2

>  <inchikey>  (2794) 
LVIOSTNHGAUKFP-MRVPVSSYSA-N

>  <distance_score>  (2794) 
1.222266

>  <ref_mols>  (2794) 
Z0719a,Z1597a

>  <ref_pdb>  (2794) 
Z0719a

>  <HIPPO Compound ID>  (2794) 
150256

>  <name>  (2794) 
P75621

>  <inspiration_score>  (2794) 
None

$$$$
P75622
     RDKit          3D

 15 16  0  0  0  0  0  0  0  0999 V2000
   -8.9977    4.2516  -17.9479 C   0  0  0  0  0  0  0  0  0  0  0  0
   -8.1463    4.5014  -16.7672 C   0  0  0  0  0  0  0  0  0  0  0  0
   -6.8118    4.4607  -16.7249 C   0  0  0  0  0  0  0  0  0  0  0  0
   -7.4440    5.6893  -16.3476 C   0  0  2  0  0  0  0  0  0  0  0  0
   -7.5278    6.1003  -14.9122 C   0  0  0  0  0  0  0  0  0  0  0  0
   -7.5990    7.2470  -14.7188 O   0  0  0  0  0  0  0  0  0  0  0  0
   -7.5920    4.9159  -13.9290 N   0  0  0  0  0  0  0  0  0  0  0  0
   -7.6589    4.8980  -12.5636 C   0  0  0  0  0  0  0  0  0  0  0  0
   -7.9386    5.8767  -11.6295 C   0  0  0  0  0  0  0  0  0  0  0  0
   -8.2716    7.3041  -11.8117 C   0  0  0  0  0  0  0  0  0  0  0  0
   -7.9439    5.3443  -10.3627 N   0  0  0  0  0  0  0  0  0  0  0  0
   -7.7017    4.0566  -10.5053 C   0  0  0  0  0  0  0  0  0  0  0  0
   -7.7019    3.0778   -9.3950 C   0  0  0  0  0  0  0  0  0  0  0  0
   -7.4431    3.7572  -11.8248 N   0  0  0  0  0  0  0  0  0  0  0  0
   -6.9106    2.5253  -12.3626 C   0  0  0  0  0  0  0  0  0  0  0  0
  1  2  1  0
  2  3  2  0
  3  4  1  0
  4  5  1  1
  5  6  2  0
  5  7  1  0
  7  8  1  0
  8  9  2  0
  9 10  1  0
  9 11  1  0
 11 12  2  0
 12 13  1  0
 12 14  1  0
 14 15  1  0
  4  2  1  0
 14  8  1  0
M  END
>  <energy_score>  (2795) 
-26.925695

>  <alias>  (2795) 
None

>  <HIPPO Pose ID>  (2795) 
75622

>  <smiles>  (2795) 
CC1=C[C@@H]1C(=O)Nc1c(C)nc(C)n1C

>  <inchikey>  (2795) 
ZGPZAVRAHNQZBN-VIFPVBQESA-N

>  <distance_score>  (2795) 
1.318846

>  <ref_mols>  (2795) 
Z0719a,Z1597a

>  <ref_pdb>  (2795) 
Z0719a

>  <HIPPO Compound ID>  (2795) 
150257

>  <name>  (2795) 
P75622

>  <inspiration_score>  (2795) 
None

$$$$
P75626
     RDKit          3D

 15 15  0  0  0  0  0  0  0  0999 V2000
   -8.7052    4.4731  -14.5789 C   0  0  0  0  0  0  0  0  0  0  0  0
   -8.1914    4.5229  -15.9213 N   0  0  0  0  0  0  0  0  0  0  0  0
   -8.8952    4.5723  -17.0797 C   0  0  0  0  0  0  0  0  0  0  0  0
   -8.0927    4.8203  -18.0918 N   0  0  0  0  0  0  0  0  0  0  0  0
   -6.8368    4.9176  -17.5665 C   0  0  0  0  0  0  0  0  0  0  0  0
   -5.8235    5.2854  -18.3905 N   0  0  0  0  0  0  0  0  0  0  0  0
   -4.3583    5.7044  -18.0670 C   0  0  0  0  0  0  0  0  0  0  0  0
   -3.8269    5.8699  -17.0374 O   0  0  0  0  0  0  0  0  0  0  0  0
   -3.6075    5.9499  -19.4311 C   0  0  0  0  0  0  0  0  0  0  0  0
   -4.2522    7.0632  -20.2636 C   0  0  0  0  0  0  0  0  0  0  0  0
   -2.1495    6.3316  -19.1406 C   0  0  0  0  0  0  0  0  0  0  0  0
   -3.5410    4.7721  -20.2288 O   0  0  0  0  0  0  0  0  0  0  0  0
   -6.8620    4.6382  -16.2241 C   0  0  0  0  0  0  0  0  0  0  0  0
   -5.8500    4.4400  -15.2613 C   0  0  0  0  0  0  0  0  0  0  0  0
   -5.1305    4.1789  -14.3903 N   0  0  0  0  0  0  0  0  0  0  0  0
  1  2  1  0
  2  3  1  0
  3  4  2  0
  4  5  1  0
  5  6  1  0
  6  7  1  0
  7  8  2  0
  7  9  1  0
  9 10  1  0
  9 11  1  0
  9 12  1  0
  5 13  2  0
 13 14  1  0
 14 15  3  0
 13  2  1  0
M  END
>  <energy_score>  (2796) 
-22.182932

>  <alias>  (2796) 
None

>  <HIPPO Pose ID>  (2796) 
75626

>  <smiles>  (2796) 
Cn1cnc(NC(=O)C(C)(C)O)c1C#N

>  <inchikey>  (2796) 
MZQJOYUFXDPQAC-UHFFFAOYSA-N

>  <distance_score>  (2796) 
1.26442

>  <ref_mols>  (2796) 
Z0719a,Z1597a

>  <ref_pdb>  (2796) 
Z0719a

>  <HIPPO Compound ID>  (2796) 
150263

>  <name>  (2796) 
P75626

>  <inspiration_score>  (2796) 
None

$$$$
P75628
     RDKit          3D

 15 15  0  0  0  0  0  0  0  0999 V2000
   -4.9313    3.1302  -13.6081 C   0  0  0  0  0  0  0  0  0  0  0  0
   -6.4206    3.0706  -13.9888 C   0  0  0  0  0  0  0  0  0  0  0  0
   -7.2454    3.2883  -12.7237 C   0  0  0  0  0  0  0  0  0  0  0  0
   -6.7993    3.9437  -15.1061 N   0  0  0  0  0  0  0  0  0  0  0  0
   -8.0710    4.3489  -15.4343 C   0  0  0  0  0  0  0  0  0  0  0  0
   -8.0939    5.0741  -16.5323 N   0  0  0  0  0  0  0  0  0  0  0  0
   -6.8125    5.0878  -16.9709 C   0  0  0  0  0  0  0  0  0  0  0  0
   -6.4797    5.7233  -18.1178 N   0  0  0  0  0  0  0  0  0  0  0  0
   -5.0812    6.0403  -18.7304 C   0  0  0  0  0  0  0  0  0  0  0  0
   -4.0081    5.7316  -18.3734 O   0  0  0  0  0  0  0  0  0  0  0  0
   -5.3141    6.9556  -19.9339 C   0  0  1  0  0  0  0  0  0  0  0  0
   -5.7576    8.7188  -19.1665 Br  0  0  0  0  0  0  0  0  0  0  0  0
   -4.0468    7.0874  -20.7535 C   0  0  0  0  0  0  0  0  0  0  0  0
   -4.3992    7.9176  -22.4871 Br  0  0  0  0  0  0  0  0  0  0  0  0
   -5.9879    4.4216  -16.1065 C   0  0  0  0  0  0  0  0  0  0  0  0
  1  2  1  0
  2  3  1  0
  2  4  1  0
  4  5  1  0
  5  6  2  0
  6  7  1  0
  7  8  1  0
  8  9  1  0
  9 10  2  0
  9 11  1  0
 11 12  1  1
 11 13  1  0
 13 14  1  0
  7 15  2  0
 15  4  1  0
M  END
>  <energy_score>  (2797) 
-31.029557

>  <alias>  (2797) 
None

>  <HIPPO Pose ID>  (2797) 
75628

>  <smiles>  (2797) 
CC(C)n1cnc(NC(=O)[C@@H](Br)CBr)c1

>  <inchikey>  (2797) 
KGLKGEFLCGFGSG-ZETCQYMHSA-N

>  <distance_score>  (2797) 
1.953557

>  <ref_mols>  (2797) 
Z0719a,Z1597a

>  <ref_pdb>  (2797) 
Z0719a

>  <HIPPO Compound ID>  (2797) 
150267

>  <name>  (2797) 
P75628

>  <inspiration_score>  (2797) 
None

$$$$
P75631
     RDKit          3D

 15 15  0  0  0  0  0  0  0  0999 V2000
   -8.5251    4.1394  -19.1271 C   0  0  0  0  0  0  0  0  0  0  0  0
   -7.9904    4.5377  -17.8200 C   0  0  0  0  0  0  0  0  0  0  0  0
   -8.6247    4.0453  -16.7023 N   0  0  0  0  0  0  0  0  0  0  0  0
   -7.9226    4.4841  -15.6867 C   0  0  0  0  0  0  0  0  0  0  0  0
   -8.0377    4.0529  -14.2752 C   0  0  0  0  0  0  0  0  0  0  0  0
   -7.0147    5.4212  -16.1134 N   0  0  0  0  0  0  0  0  0  0  0  0
   -6.4114    6.3683  -15.2280 C   0  0  0  0  0  0  0  0  0  0  0  0
   -6.8876    5.3087  -17.4759 C   0  0  0  0  0  0  0  0  0  0  0  0
   -5.8618    5.7991  -18.2568 N   0  0  0  0  0  0  0  0  0  0  0  0
   -4.6151    6.6622  -17.8710 C   0  0  0  0  0  0  0  0  0  0  0  0
   -4.3156    7.1501  -16.8456 O   0  0  0  0  0  0  0  0  0  0  0  0
   -3.6293    6.7735  -19.0359 C   0  0  1  0  0  0  0  0  0  0  0  0
   -3.0954    5.0210  -19.6540 Br  0  0  0  0  0  0  0  0  0  0  0  0
   -3.8849    7.7576  -20.1423 C   0  0  0  0  0  0  0  0  0  0  0  0
   -5.5294    7.5549  -21.1039 Br  0  0  0  0  0  0  0  0  0  0  0  0
  1  2  1  0
  2  3  1  0
  3  4  2  0
  4  5  1  0
  4  6  1  0
  6  7  1  0
  6  8  1  0
  8  9  1  0
  9 10  1  0
 10 11  2  0
 10 12  1  0
 12 13  1  6
 12 14  1  0
 14 15  1  0
  8  2  2  0
M  END
>  <energy_score>  (2798) 
-11.70988

>  <alias>  (2798) 
None

>  <HIPPO Pose ID>  (2798) 
75631

>  <smiles>  (2798) 
Cc1nc(C)n(C)c1NC(=O)[C@@H](Br)CBr

>  <inchikey>  (2798) 
ZLTNLXAVAXGFKJ-ZETCQYMHSA-N

>  <distance_score>  (2798) 
1.601379

>  <ref_mols>  (2798) 
Z0719a,Z1597a

>  <ref_pdb>  (2798) 
Z0719a

>  <HIPPO Compound ID>  (2798) 
150271

>  <name>  (2798) 
P75631

>  <inspiration_score>  (2798) 
None

$$$$
P75632
     RDKit          3D

 15 15  0  0  0  0  0  0  0  0999 V2000
   -3.5703    4.2762  -16.5406 O   0  0  0  0  0  0  0  0  0  0  0  0
   -4.2165    4.9369  -17.2588 C   0  0  0  0  0  0  0  0  0  0  0  0
   -5.7539    5.1587  -17.3122 N   0  0  0  0  0  0  0  0  0  0  0  0
   -6.7395    4.7164  -16.4866 C   0  0  0  0  0  0  0  0  0  0  0  0
   -7.9679    5.1004  -16.9774 N   0  0  0  0  0  0  0  0  0  0  0  0
   -8.8684    4.4938  -16.2494 C   0  0  0  0  0  0  0  0  0  0  0  0
   -8.2826    3.8168  -15.2308 N   0  0  0  0  0  0  0  0  0  0  0  0
   -6.9175    3.9745  -15.3418 C   0  0  0  0  0  0  0  0  0  0  0  0
   -6.1125    3.3310  -14.3562 N   0  0  0  0  0  0  0  0  0  0  0  0
   -6.6545    2.4037  -13.7305 O   0  0  0  0  0  0  0  0  0  0  0  0
   -4.9734    3.7524  -14.1491 O   0  0  0  0  0  0  0  0  0  0  0  0
   -3.5316    5.8355  -18.3594 C   0  0  1  0  0  0  0  0  0  0  0  0
   -2.1563    4.6711  -19.2067 Br  0  0  0  0  0  0  0  0  0  0  0  0
   -4.3476    6.4672  -19.4835 C   0  0  0  0  0  0  0  0  0  0  0  0
   -3.2867    7.6786  -20.5967 Br  0  0  0  0  0  0  0  0  0  0  0  0
  1  2  2  0
  2  3  1  0
  3  4  1  0
  4  5  1  0
  5  6  2  0
  6  7  1  0
  7  8  1  0
  8  9  1  0
  9 10  2  0
  9 11  1  0
  2 12  1  0
 12 13  1  6
 12 14  1  0
 14 15  1  0
  8  4  2  0
M  CHG  2   9   1  11  -1
M  END
>  <energy_score>  (2799) 
-3.712235

>  <alias>  (2799) 
None

>  <HIPPO Pose ID>  (2799) 
75632

>  <smiles>  (2799) 
O=C(Nc1nc[nH]c1[N+](=O)[O-])[C@@H](Br)CBr

>  <inchikey>  (2799) 
SAHPKMFLJFUDJN-VKHMYHEASA-N

>  <distance_score>  (2799) 
1.908264

>  <ref_mols>  (2799) 
Z0719a,Z1597a

>  <ref_pdb>  (2799) 
Z0719a

>  <HIPPO Compound ID>  (2799) 
150272

>  <name>  (2799) 
P75632

>  <inspiration_score>  (2799) 
None

$$$$
P75634
     RDKit          3D

 15 15  0  0  0  0  0  0  0  0999 V2000
   -5.8602    2.5577  -12.6302 C   0  0  0  0  0  0  0  0  0  0  0  0
   -5.8722    3.5361  -13.7812 C   0  0  0  0  0  0  0  0  0  0  0  0
   -7.3062    3.7984  -14.2883 C   0  0  0  0  0  0  0  0  0  0  0  0
   -7.3886    4.3975  -15.6092 N   0  0  0  0  0  0  0  0  0  0  0  0
   -8.4096    4.2680  -16.5073 C   0  0  0  0  0  0  0  0  0  0  0  0
   -8.0592    4.7263  -17.6928 N   0  0  0  0  0  0  0  0  0  0  0  0
   -6.8096    5.2239  -17.5214 C   0  0  0  0  0  0  0  0  0  0  0  0
   -6.0421    5.6679  -18.5386 N   0  0  0  0  0  0  0  0  0  0  0  0
   -4.5900    6.2487  -18.5355 C   0  0  0  0  0  0  0  0  0  0  0  0
   -3.8750    6.4995  -17.6418 O   0  0  0  0  0  0  0  0  0  0  0  0
   -4.1569    6.3587  -19.9956 C   0  0  2  0  0  0  0  0  0  0  0  0
   -2.2431    6.7978  -20.1237 Br  0  0  0  0  0  0  0  0  0  0  0  0
   -4.9574    7.2720  -20.8899 C   0  0  0  0  0  0  0  0  0  0  0  0
   -5.0998    9.0907  -20.1857 Br  0  0  0  0  0  0  0  0  0  0  0  0
   -6.4124    5.1251  -16.2204 C   0  0  0  0  0  0  0  0  0  0  0  0
  1  2  1  0
  2  3  1  0
  3  4  1  0
  4  5  1  0
  5  6  2  0
  6  7  1  0
  7  8  1  0
  8  9  1  0
  9 10  2  0
  9 11  1  0
 11 12  1  1
 11 13  1  0
 13 14  1  0
  7 15  2  0
 15  4  1  0
M  END
>  <energy_score>  (2800) 
-9.61209

>  <alias>  (2800) 
None

>  <HIPPO Pose ID>  (2800) 
75634

>  <smiles>  (2800) 
CCCn1cnc(NC(=O)[C@H](Br)CBr)c1

>  <inchikey>  (2800) 
VHENZHWDBXCSEM-SSDOTTSWSA-N

>  <distance_score>  (2800) 
1.770057

>  <ref_mols>  (2800) 
Z0719a,Z1597a

>  <ref_pdb>  (2800) 
Z0719a

>  <HIPPO Compound ID>  (2800) 
150277

>  <name>  (2800) 
P75634

>  <inspiration_score>  (2800) 
None

$$$$
P75636
     RDKit          3D

 15 15  0  0  0  0  0  0  0  0999 V2000
   -5.8292    4.8780  -13.8773 C   0  0  0  0  0  0  0  0  0  0  0  0
   -5.9291    5.4147  -15.2952 C   0  0  0  0  0  0  0  0  0  0  0  0
   -7.0865    5.1031  -16.0873 N   0  0  0  0  0  0  0  0  0  0  0  0
   -8.3140    4.6859  -15.6148 C   0  0  0  0  0  0  0  0  0  0  0  0
   -8.7404    4.7219  -14.1991 C   0  0  0  0  0  0  0  0  0  0  0  0
   -9.0693    4.2547  -16.5959 N   0  0  0  0  0  0  0  0  0  0  0  0
   -8.3589    4.4908  -17.7329 C   0  0  0  0  0  0  0  0  0  0  0  0
   -8.9565    4.1366  -19.0157 C   0  0  0  0  0  0  0  0  0  0  0  0
   -7.1388    5.0738  -17.4649 C   0  0  0  0  0  0  0  0  0  0  0  0
   -6.2215    5.4779  -18.4058 N   0  0  0  0  0  0  0  0  0  0  0  0
   -4.8484    6.1982  -18.2373 C   0  0  0  0  0  0  0  0  0  0  0  0
   -4.3280    6.6245  -17.2790 O   0  0  0  0  0  0  0  0  0  0  0  0
   -4.1602    6.1881  -19.5926 C   0  0  0  0  0  0  0  0  0  0  0  0
   -4.8342    7.0906  -20.5996 C   0  0  0  0  0  0  0  0  0  0  0  0
   -4.6472    8.3881  -20.2288 F   0  0  0  0  0  0  0  0  0  0  0  0
  1  2  1  0
  2  3  1  0
  3  4  1  0
  4  5  1  0
  4  6  2  0
  6  7  1  0
  7  8  1  0
  7  9  2  0
  9 10  1  0
 10 11  1  0
 11 12  2  0
 11 13  1  0
 13 14  1  0
 14 15  1  0
  9  3  1  0
M  END
>  <energy_score>  (2801) 
-14.293518

>  <alias>  (2801) 
None

>  <HIPPO Pose ID>  (2801) 
75636

>  <smiles>  (2801) 
CCn1c(C)nc(C)c1NC(=O)CCF

>  <inchikey>  (2801) 
GTXJHFIMYXDOQL-UHFFFAOYSA-N

>  <distance_score>  (2801) 
1.408986

>  <ref_mols>  (2801) 
Z0719a,Z1597a

>  <ref_pdb>  (2801) 
Z0719a

>  <HIPPO Compound ID>  (2801) 
150280

>  <name>  (2801) 
P75636

>  <inspiration_score>  (2801) 
None

$$$$
P75640
     RDKit          3D

 15 15  0  0  0  0  0  0  0  0999 V2000
   -7.5661    3.3988  -14.4416 C   0  0  0  0  0  0  0  0  0  0  0  0
   -7.9684    3.9372  -15.7928 C   0  0  0  0  0  0  0  0  0  0  0  0
   -8.9399    3.5248  -16.5901 N   0  0  0  0  0  0  0  0  0  0  0  0
   -8.7776    4.2063  -17.7715 C   0  0  0  0  0  0  0  0  0  0  0  0
   -7.7043    5.0636  -17.6936 C   0  0  0  0  0  0  0  0  0  0  0  0
   -7.1016    5.7741  -18.6939 N   0  0  0  0  0  0  0  0  0  0  0  0
   -5.7205    6.4898  -18.7338 C   0  0  0  0  0  0  0  0  0  0  0  0
   -4.9226    6.6458  -17.8916 O   0  0  0  0  0  0  0  0  0  0  0  0
   -5.5185    7.0193  -20.1429 C   0  0  0  0  0  0  0  0  0  0  0  0
   -4.0432    6.9819  -20.4833 C   0  0  0  0  0  0  0  0  0  0  0  0
   -3.8645    7.3356  -21.7843 F   0  0  0  0  0  0  0  0  0  0  0  0
   -7.3544    5.0312  -16.3667 N   0  0  0  0  0  0  0  0  0  0  0  0
   -6.6854    6.0560  -15.5968 C   0  0  0  0  0  0  0  0  0  0  0  0
   -7.4148    6.3785  -14.3585 C   0  0  0  0  0  0  0  0  0  0  0  0
   -8.0181    6.5443  -13.3796 N   0  0  0  0  0  0  0  0  0  0  0  0
  1  2  1  0
  2  3  2  0
  3  4  1  0
  4  5  2  0
  5  6  1  0
  6  7  1  0
  7  8  2  0
  7  9  1  0
  9 10  1  0
 10 11  1  0
  5 12  1  0
 12 13  1  0
 13 14  1  0
 14 15  3  0
 12  2  1  0
M  END
>  <energy_score>  (2802) 
-2.098573

>  <alias>  (2802) 
None

>  <HIPPO Pose ID>  (2802) 
75640

>  <smiles>  (2802) 
Cc1ncc(NC(=O)CCF)n1CC#N

>  <inchikey>  (2802) 
LGKJUKLSXBQONY-UHFFFAOYSA-N

>  <distance_score>  (2802) 
1.813229

>  <ref_mols>  (2802) 
Z0719a,Z1597a

>  <ref_pdb>  (2802) 
Z0719a

>  <HIPPO Compound ID>  (2802) 
150294

>  <name>  (2802) 
P75640

>  <inspiration_score>  (2802) 
None

$$$$
P75641
     RDKit          3D

 15 15  0  0  0  0  0  0  0  0999 V2000
   -2.6574    6.0249  -21.4626 O   0  0  0  0  0  0  0  0  0  0  0  0
   -3.5741    6.7686  -21.1070 C   0  0  0  0  0  0  0  0  0  0  0  0
   -3.5145    7.5486  -19.8321 C   0  0  0  0  0  0  0  0  0  0  0  0
   -4.0529    6.7272  -18.6703 C   0  0  0  0  0  0  0  0  0  0  0  0
   -5.5727    6.7011  -18.6724 C   0  0  0  0  0  0  0  0  0  0  0  0
   -6.2271    7.3278  -19.4111 O   0  0  0  0  0  0  0  0  0  0  0  0
   -5.9880    5.6698  -17.5831 N   0  0  0  0  0  0  0  0  0  0  0  0
   -7.2087    5.1632  -17.2681 C   0  0  0  0  0  0  0  0  0  0  0  0
   -8.2968    5.3290  -18.0622 N   0  0  0  0  0  0  0  0  0  0  0  0
   -9.2858    4.6701  -17.4921 C   0  0  0  0  0  0  0  0  0  0  0  0
   -8.8890    4.1221  -16.3133 N   0  0  0  0  0  0  0  0  0  0  0  0
   -7.5659    4.4305  -16.1768 C   0  0  0  0  0  0  0  0  0  0  0  0
   -6.8622    4.0597  -15.0248 N   0  0  0  0  0  0  0  0  0  0  0  0
   -5.6287    4.1413  -15.0536 O   0  0  0  0  0  0  0  0  0  0  0  0
   -7.5547    3.7087  -14.0715 O   0  0  0  0  0  0  0  0  0  0  0  0
  1  2  2  0
  2  3  1  0
  3  4  1  0
  4  5  1  0
  5  6  2  0
  5  7  1  0
  7  8  1  0
  8  9  1  0
  9 10  2  0
 10 11  1  0
 11 12  1  0
 12 13  1  0
 13 14  2  0
 13 15  1  0
 12  8  2  0
M  CHG  2  13   1  15  -1
M  END
>  <energy_score>  (2803) 
-30.791156

>  <alias>  (2803) 
None

>  <HIPPO Pose ID>  (2803) 
75641

>  <smiles>  (2803) 
O=CCCC(=O)Nc1nc[nH]c1[N+](=O)[O-]

>  <inchikey>  (2803) 
VMODDOXDJUSNNH-UHFFFAOYSA-N

>  <distance_score>  (2803) 
1.883966

>  <ref_mols>  (2803) 
Z0719a,Z1597a

>  <ref_pdb>  (2803) 
Z0719a

>  <HIPPO Compound ID>  (2803) 
150298

>  <name>  (2803) 
P75641

>  <inspiration_score>  (2803) 
None

$$$$
P75644
     RDKit          3D

 15 15  0  0  0  0  0  0  0  0999 V2000
   -8.7972    5.0436  -14.3904 C   0  0  0  0  0  0  0  0  0  0  0  0
   -7.3311    4.8536  -14.7122 C   0  0  0  0  0  0  0  0  0  0  0  0
   -6.7417    3.5917  -14.0946 C   0  0  0  0  0  0  0  0  0  0  0  0
   -7.1095    4.9092  -16.1421 N   0  0  0  0  0  0  0  0  0  0  0  0
   -7.8486    4.3332  -17.1331 C   0  0  0  0  0  0  0  0  0  0  0  0
   -7.2973    4.5372  -18.3098 N   0  0  0  0  0  0  0  0  0  0  0  0
   -6.2125    5.3088  -18.0597 C   0  0  0  0  0  0  0  0  0  0  0  0
   -5.3668    5.7031  -19.0291 N   0  0  0  0  0  0  0  0  0  0  0  0
   -4.0528    6.5289  -18.9470 C   0  0  0  0  0  0  0  0  0  0  0  0
   -3.5461    7.0574  -18.0361 O   0  0  0  0  0  0  0  0  0  0  0  0
   -3.4332    6.5266  -20.3229 C   0  0  0  0  0  0  0  0  0  0  0  0
   -4.0074    7.5336  -21.2984 C   0  0  0  0  0  0  0  0  0  0  0  0
   -5.4394    7.9345  -21.0610 C   0  0  0  0  0  0  0  0  0  0  0  0
   -5.7647    9.0680  -20.7158 O   0  0  0  0  0  0  0  0  0  0  0  0
   -6.0912    5.5880  -16.7317 C   0  0  0  0  0  0  0  0  0  0  0  0
  1  2  1  0
  2  3  1  0
  2  4  1  0
  4  5  1  0
  5  6  2  0
  6  7  1  0
  7  8  1  0
  8  9  1  0
  9 10  2  0
  9 11  1  0
 11 12  1  0
 12 13  1  0
 13 14  2  0
  7 15  2  0
 15  4  1  0
M  END
>  <energy_score>  (2804) 
-24.886582

>  <alias>  (2804) 
None

>  <HIPPO Pose ID>  (2804) 
75644

>  <smiles>  (2804) 
CC(C)n1cnc(NC(=O)CCC=O)c1

>  <inchikey>  (2804) 
YNYMFJRPXUHLJX-UHFFFAOYSA-N

>  <distance_score>  (2804) 
1.968887

>  <ref_mols>  (2804) 
Z0719a,Z1597a

>  <ref_pdb>  (2804) 
Z0719a

>  <HIPPO Compound ID>  (2804) 
150310

>  <name>  (2804) 
P75644

>  <inspiration_score>  (2804) 
None

$$$$
P75646
     RDKit          3D

 15 15  0  0  0  0  0  0  0  0999 V2000
   -4.9387    9.3590  -22.0678 C   0  0  0  0  0  0  0  0  0  0  0  0
   -4.8108    8.7096  -21.0659 C   0  0  0  0  0  0  0  0  0  0  0  0
   -4.6548    7.9075  -19.8425 C   0  0  0  0  0  0  0  0  0  0  0  0
   -4.8965    6.4411  -20.1049 C   0  0  0  0  0  0  0  0  0  0  0  0
   -4.7915    5.6403  -18.8218 C   0  0  0  0  0  0  0  0  0  0  0  0
   -3.7608    5.2620  -18.4139 O   0  0  0  0  0  0  0  0  0  0  0  0
   -6.2223    5.5093  -18.2237 N   0  0  0  0  0  0  0  0  0  0  0  0
   -6.6363    5.0044  -17.0378 C   0  0  0  0  0  0  0  0  0  0  0  0
   -5.8672    4.4051  -16.0788 C   0  0  0  0  0  0  0  0  0  0  0  0
   -6.7404    3.9544  -15.1209 N   0  0  0  0  0  0  0  0  0  0  0  0
   -6.4322    3.0858  -13.9789 C   0  0  0  0  0  0  0  0  0  0  0  0
   -7.2857    3.3642  -12.7466 C   0  0  0  0  0  0  0  0  0  0  0  0
   -4.9537    3.0868  -13.5519 C   0  0  0  0  0  0  0  0  0  0  0  0
   -7.9893    4.3479  -15.5415 C   0  0  0  0  0  0  0  0  0  0  0  0
   -7.9426    5.0221  -16.6726 N   0  0  0  0  0  0  0  0  0  0  0  0
  1  2  3  0
  2  3  1  0
  3  4  1  0
  4  5  1  0
  5  6  2  0
  5  7  1  0
  7  8  1  0
  8  9  2  0
  9 10  1  0
 10 11  1  0
 11 12  1  0
 11 13  1  0
 10 14  1  0
 14 15  2  0
 15  8  1  0
M  END
>  <energy_score>  (2805) 
-8.807729

>  <alias>  (2805) 
None

>  <HIPPO Pose ID>  (2805) 
75646

>  <smiles>  (2805) 
C#CCCC(=O)Nc1cn(C(C)C)cn1

>  <inchikey>  (2805) 
YCTRFQITZVGBSO-UHFFFAOYSA-N

>  <distance_score>  (2805) 
1.641355

>  <ref_mols>  (2805) 
Z0719a,Z1597a

>  <ref_pdb>  (2805) 
Z0719a

>  <HIPPO Compound ID>  (2805) 
150319

>  <name>  (2805) 
P75646

>  <inspiration_score>  (2805) 
None

$$$$
P75649
     RDKit          3D

 15 15  0  0  0  0  0  0  0  0999 V2000
   -2.9772    5.8225  -19.5543 C   0  0  0  0  0  0  0  0  0  0  0  0
   -4.3750    5.4116  -19.1399 C   0  0  2  0  0  0  0  0  0  0  0  0
   -5.4939    6.8183  -19.5441 S   0  0  0  0  0  0  0  0  0  0  0  0
   -4.5238    5.0149  -17.6455 C   0  0  0  0  0  0  0  0  0  0  0  0
   -3.6626    4.9620  -16.8591 O   0  0  0  0  0  0  0  0  0  0  0  0
   -6.0467    4.7404  -17.4919 N   0  0  0  0  0  0  0  0  0  0  0  0
   -6.7926    4.4528  -16.3754 C   0  0  0  0  0  0  0  0  0  0  0  0
   -6.6895    4.0156  -15.0536 C   0  0  0  0  0  0  0  0  0  0  0  0
   -5.6649    3.3373  -14.2884 N   0  0  0  0  0  0  0  0  0  0  0  0
   -6.0386    2.3557  -13.6196 O   0  0  0  0  0  0  0  0  0  0  0  0
   -4.4993    3.7398  -14.3498 O   0  0  0  0  0  0  0  0  0  0  0  0
   -7.9088    4.1303  -14.4073 N   0  0  0  0  0  0  0  0  0  0  0  0
   -8.7634    4.4360  -15.3355 C   0  0  0  0  0  0  0  0  0  0  0  0
   -8.1631    4.5659  -16.5363 N   0  0  0  0  0  0  0  0  0  0  0  0
   -8.8983    4.6963  -17.7642 C   0  0  0  0  0  0  0  0  0  0  0  0
  2  1  1  1
  2  3  1  0
  2  4  1  0
  4  5  2  0
  4  6  1  0
  6  7  1  0
  7  8  2  0
  8  9  1  0
  9 10  2  0
  9 11  1  0
  8 12  1  0
 12 13  2  0
 13 14  1  0
 14 15  1  0
 14  7  1  0
M  CHG  2   9   1  11  -1
M  END
>  <energy_score>  (2806) 
-17.059555

>  <alias>  (2806) 
None

>  <HIPPO Pose ID>  (2806) 
75649

>  <smiles>  (2806) 
C[C@H](S)C(=O)Nc1c([N+](=O)[O-])ncn1C

>  <inchikey>  (2806) 
JRGPFCNCIXKMOD-BYPYZUCNSA-N

>  <distance_score>  (2806) 
1.949397

>  <ref_mols>  (2806) 
Z0719a,Z1597a

>  <ref_pdb>  (2806) 
Z0719a

>  <HIPPO Compound ID>  (2806) 
150328

>  <name>  (2806) 
P75649

>  <inspiration_score>  (2806) 
None

$$$$
P75653
     RDKit          3D

 15 16  0  0  0  0  0  0  0  0999 V2000
   -4.0741    8.4584  -21.1868 C   0  0  0  0  0  0  0  0  0  0  0  0
   -3.6698    7.0032  -21.1811 C   0  0  1  0  0  0  0  0  0  0  0  0
   -1.9456    6.7868  -21.7400 S   0  0  0  0  0  0  0  0  0  0  0  0
   -3.8324    6.4595  -19.7591 C   0  0  0  0  0  0  0  0  0  0  0  0
   -3.0282    6.6458  -18.9288 O   0  0  0  0  0  0  0  0  0  0  0  0
   -5.2278    5.7744  -19.6763 N   0  0  0  0  0  0  0  0  0  0  0  0
   -5.9096    5.2981  -18.6107 C   0  0  0  0  0  0  0  0  0  0  0  0
   -7.1711    4.7601  -18.6248 C   0  0  0  0  0  0  0  0  0  0  0  0
   -7.5032    4.6473  -17.3063 N   0  0  0  0  0  0  0  0  0  0  0  0
   -8.7185    4.3642  -16.7159 C   0  0  0  0  0  0  0  0  0  0  0  0
   -8.7874    4.3861  -15.3822 C   0  0  0  0  0  0  0  0  0  0  0  0
   -7.5144    4.6274  -14.6643 C   0  0  0  0  0  0  0  0  0  0  0  0
   -6.3740    4.9188  -15.1984 N   0  0  0  0  0  0  0  0  0  0  0  0
   -6.3703    4.9791  -16.5607 C   0  0  0  0  0  0  0  0  0  0  0  0
   -5.4096    5.3969  -17.3533 N   0  0  0  0  0  0  0  0  0  0  0  0
  2  1  1  1
  2  3  1  0
  2  4  1  0
  4  5  2  0
  4  6  1  0
  6  7  1  0
  7  8  2  0
  8  9  1  0
  9 10  1  0
 10 11  2  0
 11 12  1  0
 12 13  2  0
 13 14  1  0
 14 15  2  0
 15  7  1  0
 14  9  1  0
M  END
>  <energy_score>  (2807) 
-5.364077

>  <alias>  (2807) 
None

>  <HIPPO Pose ID>  (2807) 
75653

>  <smiles>  (2807) 
C[C@@H](S)C(=O)Nc1cn2cccnc2n1

>  <inchikey>  (2807) 
LHGIWSAWEWZJQH-ZCFIWIBFSA-N

>  <distance_score>  (2807) 
1.62533

>  <ref_mols>  (2807) 
Z0719a,Z1597a

>  <ref_pdb>  (2807) 
Z0719a

>  <HIPPO Compound ID>  (2807) 
150334

>  <name>  (2807) 
P75653

>  <inspiration_score>  (2807) 
None

$$$$
P75655
     RDKit          3D

 15 15  0  0  0  0  0  0  0  0999 V2000
   -3.7537    8.1983  -20.8306 C   0  0  0  0  0  0  0  0  0  0  0  0
   -3.4525    7.1016  -20.1141 C   0  0  0  0  0  0  0  0  0  0  0  0
   -2.0710    6.8888  -19.5586 C   0  0  0  0  0  0  0  0  0  0  0  0
   -4.4631    6.0100  -19.8690 C   0  0  0  0  0  0  0  0  0  0  0  0
   -4.9107    5.7925  -18.4156 C   0  0  0  0  0  0  0  0  0  0  0  0
   -4.2224    5.9781  -17.4891 O   0  0  0  0  0  0  0  0  0  0  0  0
   -6.3522    5.2122  -18.5005 N   0  0  0  0  0  0  0  0  0  0  0  0
   -7.2139    4.8564  -17.5219 C   0  0  0  0  0  0  0  0  0  0  0  0
   -8.5188    4.6816  -17.8678 N   0  0  0  0  0  0  0  0  0  0  0  0
   -9.1558    4.4347  -16.7475 C   0  0  0  0  0  0  0  0  0  0  0  0
   -8.3041    4.4711  -15.6932 N   0  0  0  0  0  0  0  0  0  0  0  0
   -8.6240    4.4361  -14.2895 C   0  0  0  0  0  0  0  0  0  0  0  0
   -7.0358    4.6272  -16.1827 C   0  0  0  0  0  0  0  0  0  0  0  0
   -5.8912    4.4925  -15.3708 C   0  0  0  0  0  0  0  0  0  0  0  0
   -5.0501    4.2813  -14.6008 N   0  0  0  0  0  0  0  0  0  0  0  0
  1  2  2  0
  2  3  1  0
  2  4  1  0
  4  5  1  0
  5  6  2  0
  5  7  1  0
  7  8  1  0
  8  9  1  0
  9 10  2  0
 10 11  1  0
 11 12  1  0
 11 13  1  0
 13 14  1  0
 14 15  3  0
 13  8  2  0
M  END
>  <energy_score>  (2808) 
-15.407564

>  <alias>  (2808) 
None

>  <HIPPO Pose ID>  (2808) 
75655

>  <smiles>  (2808) 
C=C(C)CC(=O)Nc1ncn(C)c1C#N

>  <inchikey>  (2808) 
KNAJCYJBDRWPCN-UHFFFAOYSA-N

>  <distance_score>  (2808) 
1.244449

>  <ref_mols>  (2808) 
Z0719a,Z1597a

>  <ref_pdb>  (2808) 
Z0719a

>  <HIPPO Compound ID>  (2808) 
150341

>  <name>  (2808) 
P75655

>  <inspiration_score>  (2808) 
None

$$$$
P75657
     RDKit          3D

 15 15  0  0  0  0  0  0  0  0999 V2000
   -9.0683    4.2253  -18.9090 C   0  0  0  0  0  0  0  0  0  0  0  0
   -8.3482    4.4953  -17.6602 C   0  0  0  0  0  0  0  0  0  0  0  0
   -9.0245    4.3473  -16.4792 N   0  0  0  0  0  0  0  0  0  0  0  0
   -8.1406    4.5750  -15.5382 C   0  0  0  0  0  0  0  0  0  0  0  0
   -8.3782    4.5167  -14.0804 C   0  0  0  0  0  0  0  0  0  0  0  0
   -6.9069    4.8458  -16.0797 N   0  0  0  0  0  0  0  0  0  0  0  0
   -5.7060    4.9132  -15.3028 C   0  0  0  0  0  0  0  0  0  0  0  0
   -7.0330    4.8620  -17.4433 C   0  0  0  0  0  0  0  0  0  0  0  0
   -6.0521    5.0892  -18.3709 N   0  0  0  0  0  0  0  0  0  0  0  0
   -4.6255    5.7208  -18.2097 C   0  0  0  0  0  0  0  0  0  0  0  0
   -4.0531    6.0674  -17.2469 O   0  0  0  0  0  0  0  0  0  0  0  0
   -4.0126    5.7188  -19.6071 C   0  0  2  0  0  0  0  0  0  0  0  0
   -2.0675    5.5150  -19.4642 Br  0  0  0  0  0  0  0  0  0  0  0  0
   -4.3298    6.9669  -20.4075 C   0  0  0  0  0  0  0  0  0  0  0  0
   -5.6855    7.0092  -20.8328 O   0  0  0  0  0  0  0  0  0  0  0  0
  1  2  1  0
  2  3  1  0
  3  4  2  0
  4  5  1  0
  4  6  1  0
  6  7  1  0
  6  8  1  0
  8  9  1  0
  9 10  1  0
 10 11  2  0
 10 12  1  0
 12 13  1  1
 12 14  1  0
 14 15  1  0
  8  2  2  0
M  END
>  <energy_score>  (2809) 
-22.944068

>  <alias>  (2809) 
None

>  <HIPPO Pose ID>  (2809) 
75657

>  <smiles>  (2809) 
Cc1nc(C)n(C)c1NC(=O)[C@H](Br)CO

>  <inchikey>  (2809) 
GSNRGXJLFYOMQG-SSDOTTSWSA-N

>  <distance_score>  (2809) 
1.365573

>  <ref_mols>  (2809) 
Z0719a,Z1597a

>  <ref_pdb>  (2809) 
Z0719a

>  <HIPPO Compound ID>  (2809) 
150347

>  <name>  (2809) 
P75657

>  <inspiration_score>  (2809) 
None

$$$$
P75663
     RDKit          3D

 15 15  0  0  0  0  0  0  0  0999 V2000
   -4.5776    7.6302  -20.3969 C   0  0  0  0  0  0  0  0  0  0  0  0
   -4.2693    6.5847  -19.8924 C   0  0  0  0  0  0  0  0  0  0  0  0
   -3.8907    5.2880  -19.2899 C   0  0  1  0  0  0  0  0  0  0  0  0
   -2.3892    5.2796  -18.9961 C   0  0  0  0  0  0  0  0  0  0  0  0
   -4.7013    4.9042  -18.0323 C   0  0  0  0  0  0  0  0  0  0  0  0
   -4.1832    4.5491  -17.0448 O   0  0  0  0  0  0  0  0  0  0  0  0
   -6.2113    4.9902  -18.4051 N   0  0  0  0  0  0  0  0  0  0  0  0
   -7.3207    4.7613  -17.6531 C   0  0  0  0  0  0  0  0  0  0  0  0
   -8.5079    4.8142  -18.3347 N   0  0  0  0  0  0  0  0  0  0  0  0
   -9.4510    4.4590  -17.4943 C   0  0  0  0  0  0  0  0  0  0  0  0
   -8.9249    4.1776  -16.2772 N   0  0  0  0  0  0  0  0  0  0  0  0
   -7.5786    4.4312  -16.3523 C   0  0  0  0  0  0  0  0  0  0  0  0
   -6.8293    4.2811  -15.1742 N   0  0  0  0  0  0  0  0  0  0  0  0
   -5.8688    5.0237  -14.9833 O   0  0  0  0  0  0  0  0  0  0  0  0
   -7.2865    3.4715  -14.3653 O   0  0  0  0  0  0  0  0  0  0  0  0
  1  2  3  0
  2  3  1  0
  3  4  1  1
  3  5  1  0
  5  6  2  0
  5  7  1  0
  7  8  1  0
  8  9  1  0
  9 10  2  0
 10 11  1  0
 11 12  1  0
 12 13  1  0
 13 14  2  0
 13 15  1  0
 12  8  2  0
M  CHG  2  13   1  15  -1
M  END
>  <energy_score>  (2810) 
-28.859866

>  <alias>  (2810) 
None

>  <HIPPO Pose ID>  (2810) 
75663

>  <smiles>  (2810) 
C#C[C@@H](C)C(=O)Nc1nc[nH]c1[N+](=O)[O-]

>  <inchikey>  (2810) 
IWYHNVHWQSGQDA-RXMQYKEDSA-N

>  <distance_score>  (2810) 
1.538491

>  <ref_mols>  (2810) 
Z0719a,Z1597a

>  <ref_pdb>  (2810) 
Z0719a

>  <HIPPO Compound ID>  (2810) 
150351

>  <name>  (2810) 
P75663

>  <inspiration_score>  (2810) 
None

$$$$
P75664
     RDKit          3D

 15 16  0  0  0  0  0  0  0  0999 V2000
   -4.2332    7.1721  -20.8646 C   0  0  0  0  0  0  0  0  0  0  0  0
   -3.5731    6.3377  -19.7761 C   0  0  2  0  0  0  0  0  0  0  0  0
   -3.0911    5.0731  -20.2488 O   0  0  0  0  0  0  0  0  0  0  0  0
   -1.8460    5.2107  -21.0118 N   0  0  0  0  0  0  0  0  0  0  0  0
   -4.4991    6.0745  -18.5716 C   0  0  0  0  0  0  0  0  0  0  0  0
   -4.1760    6.4161  -17.4968 O   0  0  0  0  0  0  0  0  0  0  0  0
   -5.7699    5.3012  -19.0484 N   0  0  0  0  0  0  0  0  0  0  0  0
   -6.8786    4.9004  -18.3535 C   0  0  0  0  0  0  0  0  0  0  0  0
   -8.0323    4.2503  -18.7732 C   0  0  0  0  0  0  0  0  0  0  0  0
   -8.8737    3.9283  -17.7180 N   0  0  0  0  0  0  0  0  0  0  0  0
   -8.2436    4.4060  -16.6801 C   0  0  0  0  0  0  0  0  0  0  0  0
   -7.0891    5.0364  -17.0285 N   0  0  0  0  0  0  0  0  0  0  0  0
   -6.3894    5.5910  -15.8925 C   0  0  0  0  0  0  0  0  0  0  0  0
   -7.4512    5.5212  -14.7917 C   0  0  0  0  0  0  0  0  0  0  0  0
   -8.4309    4.4146  -15.2224 C   0  0  0  0  0  0  0  0  0  0  0  0
  2  1  1  6
  2  3  1  0
  3  4  1  0
  2  5  1  0
  5  6  2  0
  5  7  1  0
  7  8  1  0
  8  9  2  0
  9 10  1  0
 10 11  2  0
 11 12  1  0
 12 13  1  0
 13 14  1  0
 14 15  1  0
 12  8  1  0
 15 11  1  0
M  END
>  <energy_score>  (2811) 
-42.50091

>  <alias>  (2811) 
None

>  <HIPPO Pose ID>  (2811) 
75664

>  <smiles>  (2811) 
C[C@H](ON)C(=O)Nc1cnc2n1CCC2

>  <inchikey>  (2811) 
FOOXHXIRTPVKHU-LURJTMIESA-N

>  <distance_score>  (2811) 
1.343889

>  <ref_mols>  (2811) 
Z0719a,Z1597a

>  <ref_pdb>  (2811) 
Z0719a

>  <HIPPO Compound ID>  (2811) 
150358

>  <name>  (2811) 
P75664

>  <inspiration_score>  (2811) 
None

$$$$
P75666
     RDKit          3D

 15 15  0  0  0  0  0  0  0  0999 V2000
   -4.1350    6.4681  -19.5851 C   0  0  0  0  0  0  0  0  0  0  0  0
   -3.7734    5.0642  -19.0926 C   0  0  1  0  0  0  0  0  0  0  0  0
   -2.3443    4.9025  -19.1377 O   0  0  0  0  0  0  0  0  0  0  0  0
   -1.8764    4.7419  -20.5271 N   0  0  0  0  0  0  0  0  0  0  0  0
   -4.2750    4.7651  -17.6315 C   0  0  0  0  0  0  0  0  0  0  0  0
   -3.5612    4.5260  -16.7366 O   0  0  0  0  0  0  0  0  0  0  0  0
   -5.8300    4.7618  -17.7100 N   0  0  0  0  0  0  0  0  0  0  0  0
   -6.7656    4.5678  -16.7370 C   0  0  0  0  0  0  0  0  0  0  0  0
   -8.0051    4.9474  -17.2037 N   0  0  0  0  0  0  0  0  0  0  0  0
   -8.8836    4.5220  -16.3356 C   0  0  0  0  0  0  0  0  0  0  0  0
   -8.2677    3.9556  -15.2700 N   0  0  0  0  0  0  0  0  0  0  0  0
   -6.9033    4.0184  -15.4783 C   0  0  0  0  0  0  0  0  0  0  0  0
   -6.0888    3.3878  -14.4883 N   0  0  0  0  0  0  0  0  0  0  0  0
   -6.6680    2.5693  -13.7526 O   0  0  0  0  0  0  0  0  0  0  0  0
   -4.9014    3.6974  -14.3945 O   0  0  0  0  0  0  0  0  0  0  0  0
  2  1  1  1
  2  3  1  0
  3  4  1  0
  2  5  1  0
  5  6  2  0
  5  7  1  0
  7  8  1  0
  8  9  1  0
  9 10  2  0
 10 11  1  0
 11 12  1  0
 12 13  1  0
 13 14  2  0
 13 15  1  0
 12  8  2  0
M  CHG  2  13   1  15  -1
M  END
>  <energy_score>  (2812) 
-32.384553

>  <alias>  (2812) 
None

>  <HIPPO Pose ID>  (2812) 
75666

>  <smiles>  (2812) 
C[C@@H](ON)C(=O)Nc1nc[nH]c1[N+](=O)[O-]

>  <inchikey>  (2812) 
HLDYHOFAAFCQHU-GSVOUGTGSA-N

>  <distance_score>  (2812) 
1.851753

>  <ref_mols>  (2812) 
Z0719a,Z1597a

>  <ref_pdb>  (2812) 
Z0719a

>  <HIPPO Compound ID>  (2812) 
150359

>  <name>  (2812) 
P75666

>  <inspiration_score>  (2812) 
None

$$$$
P75668
     RDKit          3D

 15 16  0  0  0  0  0  0  0  0999 V2000
   -3.2414    7.8645  -21.1450 C   0  0  0  0  0  0  0  0  0  0  0  0
   -4.0493    6.8759  -20.7336 C   0  0  0  0  0  0  0  0  0  0  0  0
   -3.6929    5.7425  -19.8089 C   0  0  1  0  0  0  0  0  0  0  0  0
   -2.3241    5.8504  -19.4185 O   0  0  0  0  0  0  0  0  0  0  0  0
   -4.6286    5.7189  -18.5767 C   0  0  0  0  0  0  0  0  0  0  0  0
   -4.2754    6.1167  -17.5305 O   0  0  0  0  0  0  0  0  0  0  0  0
   -5.9595    5.0130  -18.9955 N   0  0  0  0  0  0  0  0  0  0  0  0
   -7.0900    4.7570  -18.2765 C   0  0  0  0  0  0  0  0  0  0  0  0
   -8.3359    4.2872  -18.6684 C   0  0  0  0  0  0  0  0  0  0  0  0
   -9.2191    4.1971  -17.6050 N   0  0  0  0  0  0  0  0  0  0  0  0
   -8.5168    4.6302  -16.5940 C   0  0  0  0  0  0  0  0  0  0  0  0
   -7.2327    4.9024  -16.9465 N   0  0  0  0  0  0  0  0  0  0  0  0
   -6.4102    5.2939  -15.8248 C   0  0  0  0  0  0  0  0  0  0  0  0
   -7.2919    4.9139  -14.6333 C   0  0  0  0  0  0  0  0  0  0  0  0
   -8.7350    4.9191  -15.1709 C   0  0  0  0  0  0  0  0  0  0  0  0
  1  2  2  0
  2  3  1  0
  3  4  1  1
  3  5  1  0
  5  6  2  0
  5  7  1  0
  7  8  1  0
  8  9  2  0
  9 10  1  0
 10 11  2  0
 11 12  1  0
 12 13  1  0
 13 14  1  0
 14 15  1  0
 12  8  1  0
 15 11  1  0
M  END
>  <energy_score>  (2813) 
-3.489331

>  <alias>  (2813) 
None

>  <HIPPO Pose ID>  (2813) 
75668

>  <smiles>  (2813) 
C=C[C@@H](O)C(=O)Nc1cnc2n1CCC2

>  <inchikey>  (2813) 
XMKFBWJNICVLEB-SSDOTTSWSA-N

>  <distance_score>  (2813) 
1.242396

>  <ref_mols>  (2813) 
Z0719a,Z1597a

>  <ref_pdb>  (2813) 
Z0719a

>  <HIPPO Compound ID>  (2813) 
150367

>  <name>  (2813) 
P75668

>  <inspiration_score>  (2813) 
None

$$$$
P75669
     RDKit          3D

 15 15  0  0  0  0  0  0  0  0999 V2000
   -4.0412    7.6210  -21.6112 C   0  0  0  0  0  0  0  0  0  0  0  0
   -4.8562    7.1012  -20.4282 C   0  0  2  0  0  0  0  0  0  0  0  0
   -5.3565    8.5498  -19.4169 S   0  0  0  0  0  0  0  0  0  0  0  0
   -4.0647    6.0632  -19.6242 C   0  0  0  0  0  0  0  0  0  0  0  0
   -4.6340    5.6499  -18.2696 C   0  0  0  0  0  0  0  0  0  0  0  0
   -3.9953    5.7597  -17.2975 O   0  0  0  0  0  0  0  0  0  0  0  0
   -6.0905    5.1563  -18.4642 N   0  0  0  0  0  0  0  0  0  0  0  0
   -7.0320    4.8087  -17.5519 C   0  0  0  0  0  0  0  0  0  0  0  0
   -8.3258    4.7104  -17.9713 N   0  0  0  0  0  0  0  0  0  0  0  0
   -9.0415    4.5004  -16.8888 C   0  0  0  0  0  0  0  0  0  0  0  0
   -8.2479    4.4736  -15.7889 N   0  0  0  0  0  0  0  0  0  0  0  0
   -8.6480    4.4583  -14.4055 C   0  0  0  0  0  0  0  0  0  0  0  0
   -6.9475    4.5746  -16.2032 C   0  0  0  0  0  0  0  0  0  0  0  0
   -5.8599    4.4237  -15.3178 C   0  0  0  0  0  0  0  0  0  0  0  0
   -5.0630    4.2239  -14.4997 N   0  0  0  0  0  0  0  0  0  0  0  0
  2  1  1  6
  2  3  1  0
  2  4  1  0
  4  5  1  0
  5  6  2  0
  5  7  1  0
  7  8  1  0
  8  9  1  0
  9 10  2  0
 10 11  1  0
 11 12  1  0
 11 13  1  0
 13 14  1  0
 14 15  3  0
 13  8  2  0
M  END
>  <energy_score>  (2814) 
-25.122399

>  <alias>  (2814) 
None

>  <HIPPO Pose ID>  (2814) 
75669

>  <smiles>  (2814) 
C[C@H](S)CC(=O)Nc1ncn(C)c1C#N

>  <inchikey>  (2814) 
VOLTXMIYXPDONP-LURJTMIESA-N

>  <distance_score>  (2814) 
1.694844

>  <ref_mols>  (2814) 
Z0719a,Z1597a

>  <ref_pdb>  (2814) 
Z0719a

>  <HIPPO Compound ID>  (2814) 
150369

>  <name>  (2814) 
P75669

>  <inspiration_score>  (2814) 
None

$$$$
P75671
     RDKit          3D

 15 15  0  0  0  0  0  0  0  0999 V2000
   -5.2419    7.5390  -21.9108 C   0  0  0  0  0  0  0  0  0  0  0  0
   -4.5418    7.3204  -20.9600 C   0  0  0  0  0  0  0  0  0  0  0  0
   -3.6900    7.0825  -19.7926 C   0  0  0  0  0  0  0  0  0  0  0  0
   -4.1399    5.9302  -18.8987 C   0  0  0  0  0  0  0  0  0  0  0  0
   -3.4419    5.0165  -18.6688 O   0  0  0  0  0  0  0  0  0  0  0  0
   -5.5525    6.2883  -18.3421 N   0  0  0  0  0  0  0  0  0  0  0  0
   -6.2985    5.6870  -17.3859 C   0  0  0  0  0  0  0  0  0  0  0  0
   -6.0180    4.5341  -16.7131 C   0  0  0  0  0  0  0  0  0  0  0  0
   -6.9484    4.4604  -15.7163 N   0  0  0  0  0  0  0  0  0  0  0  0
   -6.9550    3.5539  -14.5925 C   0  0  0  0  0  0  0  0  0  0  0  0
   -5.8469    3.7101  -13.5196 C   0  0  0  0  0  0  0  0  0  0  0  0
   -4.4214    3.8614  -14.0480 C   0  0  0  0  0  0  0  0  0  0  0  0
   -5.9100    2.4963  -12.5951 C   0  0  0  0  0  0  0  0  0  0  0  0
   -7.8448    5.4621  -15.9386 C   0  0  0  0  0  0  0  0  0  0  0  0
   -7.4263    6.2660  -16.8961 N   0  0  0  0  0  0  0  0  0  0  0  0
  1  2  3  0
  2  3  1  0
  3  4  1  0
  4  5  2  0
  4  6  1  0
  6  7  1  0
  7  8  2  0
  8  9  1  0
  9 10  1  0
 10 11  1  0
 11 12  1  0
 11 13  1  0
  9 14  1  0
 14 15  2  0
 15  7  1  0
M  END
>  <energy_score>  (2815) 
-31.741219

>  <alias>  (2815) 
None

>  <HIPPO Pose ID>  (2815) 
75671

>  <smiles>  (2815) 
C#CCC(=O)Nc1cn(CC(C)C)cn1

>  <inchikey>  (2815) 
PXXPZINKSCNZMF-UHFFFAOYSA-N

>  <distance_score>  (2815) 
1.889134

>  <ref_mols>  (2815) 
Z0719a,Z1597a

>  <ref_pdb>  (2815) 
Z0719a

>  <HIPPO Compound ID>  (2815) 
150375

>  <name>  (2815) 
P75671

>  <inspiration_score>  (2815) 
None

$$$$
P75672
     RDKit          3D

 15 15  0  0  0  0  0  0  0  0999 V2000
   -4.1549    3.5535  -14.3685 C   0  0  0  0  0  0  0  0  0  0  0  0
   -5.6373    3.6747  -14.1453 C   0  0  0  0  0  0  0  0  0  0  0  0
   -6.5366    4.2471  -15.2039 C   0  0  0  0  0  0  0  0  0  0  0  0
   -7.8441    4.3938  -14.7418 N   0  0  0  0  0  0  0  0  0  0  0  0
   -8.5920    4.6056  -15.7810 C   0  0  0  0  0  0  0  0  0  0  0  0
   -7.8378    4.6670  -16.8988 N   0  0  0  0  0  0  0  0  0  0  0  0
   -8.4051    4.8526  -18.2019 C   0  0  0  0  0  0  0  0  0  0  0  0
   -6.4977    4.5404  -16.5709 C   0  0  0  0  0  0  0  0  0  0  0  0
   -5.5956    4.6623  -17.6086 N   0  0  0  0  0  0  0  0  0  0  0  0
   -4.0758    5.0229  -17.5938 C   0  0  0  0  0  0  0  0  0  0  0  0
   -3.3461    5.1942  -16.6948 O   0  0  0  0  0  0  0  0  0  0  0  0
   -3.6556    5.1427  -19.0997 C   0  0  1  0  0  0  0  0  0  0  0  0
   -4.1928    6.4360  -19.7204 C   0  0  0  0  0  0  0  0  0  0  0  0
   -2.2249    5.1144  -19.2081 O   0  0  0  0  0  0  0  0  0  0  0  0
   -1.8125    4.8344  -20.5963 N   0  0  0  0  0  0  0  0  0  0  0  0
  1  2  1  0
  2  3  1  0
  3  4  1  0
  4  5  2  0
  5  6  1  0
  6  7  1  0
  6  8  1  0
  8  9  1  0
  9 10  1  0
 10 11  2  0
 10 12  1  0
 12 13  1  1
 12 14  1  0
 14 15  1  0
  8  3  2  0
M  END
>  <energy_score>  (2816) 
-23.775956

>  <alias>  (2816) 
None

>  <HIPPO Pose ID>  (2816) 
75672

>  <smiles>  (2816) 
CCc1ncn(C)c1NC(=O)[C@@H](C)ON

>  <inchikey>  (2816) 
APPUCAPBXPKOPZ-ZCFIWIBFSA-N

>  <distance_score>  (2816) 
1.956253

>  <ref_mols>  (2816) 
Z0719a,Z1597a

>  <ref_pdb>  (2816) 
Z0719a

>  <HIPPO Compound ID>  (2816) 
150377

>  <name>  (2816) 
P75672

>  <inspiration_score>  (2816) 
None

$$$$
P75673
     RDKit          3D

 15 15  0  0  0  0  0  0  0  0999 V2000
   -5.8130    2.6796  -12.7667 C   0  0  0  0  0  0  0  0  0  0  0  0
   -5.6724    3.5665  -13.9854 C   0  0  0  0  0  0  0  0  0  0  0  0
   -7.0406    3.7971  -14.6557 C   0  0  0  0  0  0  0  0  0  0  0  0
   -7.0359    4.3891  -15.9768 N   0  0  0  0  0  0  0  0  0  0  0  0
   -8.1152    4.9736  -16.5744 C   0  0  0  0  0  0  0  0  0  0  0  0
   -7.7543    5.6291  -17.6582 N   0  0  0  0  0  0  0  0  0  0  0  0
   -6.4337    5.3584  -17.8258 C   0  0  0  0  0  0  0  0  0  0  0  0
   -5.7101    5.8865  -18.8407 N   0  0  0  0  0  0  0  0  0  0  0  0
   -4.2334    5.6482  -19.2568 C   0  0  0  0  0  0  0  0  0  0  0  0
   -3.4364    4.9005  -18.8338 O   0  0  0  0  0  0  0  0  0  0  0  0
   -3.8592    6.6943  -20.3440 C   0  0  2  0  0  0  0  0  0  0  0  0
   -3.4607    8.0007  -19.6897 C   0  0  0  0  0  0  0  0  0  0  0  0
   -4.7050    6.9290  -21.4571 O   0  0  0  0  0  0  0  0  0  0  0  0
   -5.9332    7.6143  -21.0789 N   0  0  0  0  0  0  0  0  0  0  0  0
   -5.9720    4.5687  -16.8112 C   0  0  0  0  0  0  0  0  0  0  0  0
  1  2  1  0
  2  3  1  0
  3  4  1  0
  4  5  1  0
  5  6  2  0
  6  7  1  0
  7  8  1  0
  8  9  1  0
  9 10  2  0
  9 11  1  0
 11 12  1  1
 11 13  1  0
 13 14  1  0
  7 15  2  0
 15  4  1  0
M  END
>  <energy_score>  (2817) 
-21.79658

>  <alias>  (2817) 
None

>  <HIPPO Pose ID>  (2817) 
75673

>  <smiles>  (2817) 
CCCn1cnc(NC(=O)[C@H](C)ON)c1

>  <inchikey>  (2817) 
REEBULSFQPWELE-ZETCQYMHSA-N

>  <distance_score>  (2817) 
1.665105

>  <ref_mols>  (2817) 
Z0719a,Z1597a

>  <ref_pdb>  (2817) 
Z0719a

>  <HIPPO Compound ID>  (2817) 
150379

>  <name>  (2817) 
P75673

>  <inspiration_score>  (2817) 
None

$$$$
P75676
     RDKit          3D

 15 15  0  0  0  0  0  0  0  0999 V2000
   -5.2648    7.4685  -20.3544 C   0  0  0  0  0  0  0  0  0  0  0  0
   -4.1692    6.7172  -20.1726 C   0  0  0  0  0  0  0  0  0  0  0  0
   -2.6163    7.0645  -21.1758 Br  0  0  0  0  0  0  0  0  0  0  0  0
   -4.0268    5.5585  -19.2202 C   0  0  0  0  0  0  0  0  0  0  0  0
   -4.9977    5.5467  -18.0327 C   0  0  0  0  0  0  0  0  0  0  0  0
   -4.7147    5.9846  -16.9868 O   0  0  0  0  0  0  0  0  0  0  0  0
   -6.2748    4.7973  -18.4969 N   0  0  0  0  0  0  0  0  0  0  0  0
   -7.4291    4.5340  -17.8378 C   0  0  0  0  0  0  0  0  0  0  0  0
   -8.5279    4.2512  -18.5973 N   0  0  0  0  0  0  0  0  0  0  0  0
   -9.5412    4.1755  -17.7658 C   0  0  0  0  0  0  0  0  0  0  0  0
   -9.1255    4.2957  -16.4789 N   0  0  0  0  0  0  0  0  0  0  0  0
   -7.7745    4.5032  -16.5182 C   0  0  0  0  0  0  0  0  0  0  0  0
   -7.0739    4.5942  -15.3057 N   0  0  0  0  0  0  0  0  0  0  0  0
   -5.9867    4.0197  -15.2034 O   0  0  0  0  0  0  0  0  0  0  0  0
   -7.6756    5.2004  -14.4140 O   0  0  0  0  0  0  0  0  0  0  0  0
  1  2  2  0
  2  3  1  0
  2  4  1  0
  4  5  1  0
  5  6  2  0
  5  7  1  0
  7  8  1  0
  8  9  1  0
  9 10  2  0
 10 11  1  0
 11 12  1  0
 12 13  1  0
 13 14  2  0
 13 15  1  0
 12  8  2  0
M  CHG  2  13   1  15  -1
M  END
>  <energy_score>  (2818) 
-18.081157

>  <alias>  (2818) 
None

>  <HIPPO Pose ID>  (2818) 
75676

>  <smiles>  (2818) 
C=C(Br)CC(=O)Nc1nc[nH]c1[N+](=O)[O-]

>  <inchikey>  (2818) 
CNZIAMKQEZYQCX-UHFFFAOYSA-N

>  <distance_score>  (2818) 
1.469843

>  <ref_mols>  (2818) 
Z0719a,Z1597a

>  <ref_pdb>  (2818) 
Z0719a

>  <HIPPO Compound ID>  (2818) 
150382

>  <name>  (2818) 
P75676

>  <inspiration_score>  (2818) 
None

$$$$
P75678
     RDKit          3D

 15 15  0  0  0  0  0  0  0  0999 V2000
   -3.5094    7.8153  -21.0595 C   0  0  0  0  0  0  0  0  0  0  0  0
   -4.3060    6.8512  -20.5744 C   0  0  0  0  0  0  0  0  0  0  0  0
   -3.9100    5.7145  -19.6711 C   0  0  1  0  0  0  0  0  0  0  0  0
   -2.4901    5.7042  -19.5072 O   0  0  0  0  0  0  0  0  0  0  0  0
   -4.6304    5.8152  -18.3000 C   0  0  0  0  0  0  0  0  0  0  0  0
   -4.0853    6.2274  -17.3453 O   0  0  0  0  0  0  0  0  0  0  0  0
   -6.0613    5.2033  -18.4656 N   0  0  0  0  0  0  0  0  0  0  0  0
   -7.0163    4.9055  -17.5272 C   0  0  0  0  0  0  0  0  0  0  0  0
   -8.3154    4.4792  -17.7347 C   0  0  0  0  0  0  0  0  0  0  0  0
   -9.0322    4.1830  -18.9778 C   0  0  0  0  0  0  0  0  0  0  0  0
   -8.9811    4.3040  -16.5513 N   0  0  0  0  0  0  0  0  0  0  0  0
   -8.1046    4.5694  -15.6141 C   0  0  0  0  0  0  0  0  0  0  0  0
   -8.3393    4.5025  -14.1553 C   0  0  0  0  0  0  0  0  0  0  0  0
   -6.8845    4.8895  -16.1622 N   0  0  0  0  0  0  0  0  0  0  0  0
   -5.6862    5.0066  -15.3878 C   0  0  0  0  0  0  0  0  0  0  0  0
  1  2  2  0
  2  3  1  0
  3  4  1  1
  3  5  1  0
  5  6  2  0
  5  7  1  0
  7  8  1  0
  8  9  2  0
  9 10  1  0
  9 11  1  0
 11 12  2  0
 12 13  1  0
 12 14  1  0
 14 15  1  0
 14  8  1  0
M  END
>  <energy_score>  (2819) 
-32.525852

>  <alias>  (2819) 
None

>  <HIPPO Pose ID>  (2819) 
75678

>  <smiles>  (2819) 
C=C[C@@H](O)C(=O)Nc1c(C)nc(C)n1C

>  <inchikey>  (2819) 
HPIQHDSXCNSVTA-MRVPVSSYSA-N

>  <distance_score>  (2819) 
1.28649

>  <ref_mols>  (2819) 
Z0719a,Z1597a

>  <ref_pdb>  (2819) 
Z0719a

>  <HIPPO Compound ID>  (2819) 
150383

>  <name>  (2819) 
P75678

>  <inspiration_score>  (2819) 
None

$$$$
P75680
     RDKit          3D

 15 15  0  0  0  0  0  0  0  0999 V2000
   -4.5036    7.6795  -20.9174 C   0  0  0  0  0  0  0  0  0  0  0  0
   -4.2214    6.7492  -20.2123 C   0  0  0  0  0  0  0  0  0  0  0  0
   -3.8779    5.5987  -19.3639 C   0  0  0  0  0  0  0  0  0  0  0  0
   -4.5838    5.5960  -18.0127 C   0  0  0  0  0  0  0  0  0  0  0  0
   -3.9997    5.7083  -17.0029 O   0  0  0  0  0  0  0  0  0  0  0  0
   -6.0975    5.3223  -18.2807 N   0  0  0  0  0  0  0  0  0  0  0  0
   -7.1222    5.0518  -17.4081 C   0  0  0  0  0  0  0  0  0  0  0  0
   -8.3524    4.5106  -17.7247 C   0  0  0  0  0  0  0  0  0  0  0  0
   -8.8954    4.1361  -19.0270 C   0  0  0  0  0  0  0  0  0  0  0  0
   -9.0947    4.2429  -16.6080 N   0  0  0  0  0  0  0  0  0  0  0  0
   -8.3691    4.6659  -15.6019 C   0  0  0  0  0  0  0  0  0  0  0  0
   -8.7345    4.5871  -14.1671 C   0  0  0  0  0  0  0  0  0  0  0  0
   -7.1884    5.2205  -16.0508 N   0  0  0  0  0  0  0  0  0  0  0  0
   -6.3193    5.9663  -15.1849 C   0  0  0  0  0  0  0  0  0  0  0  0
   -5.4997    5.0762  -14.2766 C   0  0  0  0  0  0  0  0  0  0  0  0
  1  2  3  0
  2  3  1  0
  3  4  1  0
  4  5  2  0
  4  6  1  0
  6  7  1  0
  7  8  2  0
  8  9  1  0
  8 10  1  0
 10 11  2  0
 11 12  1  0
 11 13  1  0
 13 14  1  0
 14 15  1  0
 13  7  1  0
M  END
>  <energy_score>  (2820) 
-7.781461

>  <alias>  (2820) 
None

>  <HIPPO Pose ID>  (2820) 
75680

>  <smiles>  (2820) 
C#CCC(=O)Nc1c(C)nc(C)n1CC

>  <inchikey>  (2820) 
YZXZXEAAORSDEN-UHFFFAOYSA-N

>  <distance_score>  (2820) 
1.357214

>  <ref_mols>  (2820) 
Z0719a,Z1597a

>  <ref_pdb>  (2820) 
Z0719a

>  <HIPPO Compound ID>  (2820) 
150392

>  <name>  (2820) 
P75680

>  <inspiration_score>  (2820) 
None

$$$$
P75683
     RDKit          3D

 15 15  0  0  0  0  0  0  0  0999 V2000
   -2.5355    6.7210  -20.4263 C   0  0  0  0  0  0  0  0  0  0  0  0
   -3.8444    6.5908  -20.1397 C   0  0  0  0  0  0  0  0  0  0  0  0
   -4.8838    7.2698  -20.9682 C   0  0  0  0  0  0  0  0  0  0  0  0
   -4.2050    5.6746  -18.9862 C   0  0  0  0  0  0  0  0  0  0  0  0
   -3.4383    4.8692  -18.6233 O   0  0  0  0  0  0  0  0  0  0  0  0
   -5.5858    6.0785  -18.4100 N   0  0  0  0  0  0  0  0  0  0  0  0
   -6.3032    5.5470  -17.3938 C   0  0  0  0  0  0  0  0  0  0  0  0
   -5.9495    4.4928  -16.6052 C   0  0  0  0  0  0  0  0  0  0  0  0
   -6.8983    4.4300  -15.6278 N   0  0  0  0  0  0  0  0  0  0  0  0
   -6.8954    3.5715  -14.4656 C   0  0  0  0  0  0  0  0  0  0  0  0
   -5.7523    3.7008  -13.4286 C   0  0  0  0  0  0  0  0  0  0  0  0
   -5.8459    2.5041  -12.4841 C   0  0  0  0  0  0  0  0  0  0  0  0
   -4.3319    3.7836  -13.9824 C   0  0  0  0  0  0  0  0  0  0  0  0
   -7.8631    5.3358  -15.9606 C   0  0  0  0  0  0  0  0  0  0  0  0
   -7.4860    6.0770  -16.9847 N   0  0  0  0  0  0  0  0  0  0  0  0
  1  2  2  0
  2  3  1  0
  2  4  1  0
  4  5  2  0
  4  6  1  0
  6  7  1  0
  7  8  2  0
  8  9  1  0
  9 10  1  0
 10 11  1  0
 11 12  1  0
 11 13  1  0
  9 14  1  0
 14 15  2  0
 15  7  1  0
M  END
>  <energy_score>  (2821) 
-25.895761

>  <alias>  (2821) 
None

>  <HIPPO Pose ID>  (2821) 
75683

>  <smiles>  (2821) 
C=C(C)C(=O)Nc1cn(CC(C)C)cn1

>  <inchikey>  (2821) 
NIEMVNGDKAVJTA-UHFFFAOYSA-N

>  <distance_score>  (2821) 
1.865563

>  <ref_mols>  (2821) 
Z0719a,Z1597a

>  <ref_pdb>  (2821) 
Z0719a

>  <HIPPO Compound ID>  (2821) 
150402

>  <name>  (2821) 
P75683

>  <inspiration_score>  (2821) 
None

$$$$
P75684
     RDKit          3D

 15 15  0  0  0  0  0  0  0  0999 V2000
   -8.5570    4.3411  -14.3495 C   0  0  0  0  0  0  0  0  0  0  0  0
   -8.3249    4.4255  -15.7700 N   0  0  0  0  0  0  0  0  0  0  0  0
   -9.2413    4.3960  -16.7675 C   0  0  0  0  0  0  0  0  0  0  0  0
   -8.7001    4.7486  -17.9089 N   0  0  0  0  0  0  0  0  0  0  0  0
   -7.3873    4.9838  -17.6385 C   0  0  0  0  0  0  0  0  0  0  0  0
   -6.6344    5.5022  -18.6363 N   0  0  0  0  0  0  0  0  0  0  0  0
   -5.1539    5.9674  -18.6442 C   0  0  0  0  0  0  0  0  0  0  0  0
   -4.3349    5.9029  -17.8119 O   0  0  0  0  0  0  0  0  0  0  0  0
   -4.8776    6.6184  -19.9956 C   0  0  1  0  0  0  0  0  0  0  0  0
   -5.2565    8.5333  -19.7695 Br  0  0  0  0  0  0  0  0  0  0  0  0
   -3.4057    6.4294  -20.3518 C   0  0  0  0  0  0  0  0  0  0  0  0
   -3.1345    6.5273  -21.7529 O   0  0  0  0  0  0  0  0  0  0  0  0
   -7.1012    4.6705  -16.3327 C   0  0  0  0  0  0  0  0  0  0  0  0
   -5.9096    4.5821  -15.5827 C   0  0  0  0  0  0  0  0  0  0  0  0
   -5.0246    4.4227  -14.8504 N   0  0  0  0  0  0  0  0  0  0  0  0
  1  2  1  0
  2  3  1  0
  3  4  2  0
  4  5  1  0
  5  6  1  0
  6  7  1  0
  7  8  2  0
  7  9  1  0
  9 10  1  1
  9 11  1  0
 11 12  1  0
  5 13  2  0
 13 14  1  0
 14 15  3  0
 13  2  1  0
M  END
>  <energy_score>  (2822) 
-22.451645

>  <alias>  (2822) 
None

>  <HIPPO Pose ID>  (2822) 
75684

>  <smiles>  (2822) 
Cn1cnc(NC(=O)[C@@H](Br)CO)c1C#N

>  <inchikey>  (2822) 
ARHDDIZCWOLELR-YFKPBYRVSA-N

>  <distance_score>  (2822) 
1.770119

>  <ref_mols>  (2822) 
Z0719a,Z1597a

>  <ref_pdb>  (2822) 
Z0719a

>  <HIPPO Compound ID>  (2822) 
150406

>  <name>  (2822) 
P75684

>  <inspiration_score>  (2822) 
None

$$$$
P75685
     RDKit          3D

 15 15  0  0  0  0  0  0  0  0999 V2000
   -5.6867    2.6088  -12.7348 C   0  0  0  0  0  0  0  0  0  0  0  0
   -5.7461    3.5377  -13.9276 C   0  0  0  0  0  0  0  0  0  0  0  0
   -7.1909    3.6886  -14.4389 C   0  0  0  0  0  0  0  0  0  0  0  0
   -7.3613    4.2398  -15.7718 N   0  0  0  0  0  0  0  0  0  0  0  0
   -8.5581    4.3956  -16.4151 C   0  0  0  0  0  0  0  0  0  0  0  0
   -8.4002    4.9749  -17.5862 N   0  0  0  0  0  0  0  0  0  0  0  0
   -7.0661    5.1872  -17.7035 C   0  0  0  0  0  0  0  0  0  0  0  0
   -6.5265    5.8293  -18.7629 N   0  0  0  0  0  0  0  0  0  0  0  0
   -5.0466    6.2173  -19.0652 C   0  0  0  0  0  0  0  0  0  0  0  0
   -4.0820    6.1075  -18.4061 O   0  0  0  0  0  0  0  0  0  0  0  0
   -5.0023    6.9214  -20.4143 C   0  0  1  0  0  0  0  0  0  0  0  0
   -5.5260    8.7874  -20.0300 Br  0  0  0  0  0  0  0  0  0  0  0  0
   -3.5828    6.9592  -20.9924 C   0  0  0  0  0  0  0  0  0  0  0  0
   -2.8874    5.7017  -20.9671 O   0  0  0  0  0  0  0  0  0  0  0  0
   -6.3978    4.7356  -16.6001 C   0  0  0  0  0  0  0  0  0  0  0  0
  1  2  1  0
  2  3  1  0
  3  4  1  0
  4  5  1  0
  5  6  2  0
  6  7  1  0
  7  8  1  0
  8  9  1  0
  9 10  2  0
  9 11  1  0
 11 12  1  1
 11 13  1  0
 13 14  1  0
  7 15  2  0
 15  4  1  0
M  END
>  <energy_score>  (2823) 
-14.570999

>  <alias>  (2823) 
None

>  <HIPPO Pose ID>  (2823) 
75685

>  <smiles>  (2823) 
CCCn1cnc(NC(=O)[C@@H](Br)CO)c1

>  <inchikey>  (2823) 
PNYNAPNYMPJTHJ-ZETCQYMHSA-N

>  <distance_score>  (2823) 
1.874717

>  <ref_mols>  (2823) 
Z0719a,Z1597a

>  <ref_pdb>  (2823) 
Z0719a

>  <HIPPO Compound ID>  (2823) 
150407

>  <name>  (2823) 
P75685

>  <inspiration_score>  (2823) 
None

$$$$
P75690
     RDKit          3D

 15 15  0  0  0  0  0  0  0  0999 V2000
   -4.5905    6.9677  -20.0919 C   0  0  0  0  0  0  0  0  0  0  0  0
   -3.8664    6.1598  -19.0138 C   0  0  0  0  0  0  0  0  0  0  0  0
   -2.9754    7.1237  -18.2116 C   0  0  0  0  0  0  0  0  0  0  0  0
   -2.7710    4.9966  -19.8648 Cl  0  0  0  0  0  0  0  0  0  0  0  0
   -4.6945    5.3166  -17.9651 C   0  0  0  0  0  0  0  0  0  0  0  0
   -4.1278    4.7221  -17.1285 O   0  0  0  0  0  0  0  0  0  0  0  0
   -6.2216    5.5246  -18.1976 N   0  0  0  0  0  0  0  0  0  0  0  0
   -7.2928    4.9997  -17.5469 C   0  0  0  0  0  0  0  0  0  0  0  0
   -8.4865    5.0804  -18.2104 N   0  0  0  0  0  0  0  0  0  0  0  0
   -9.3843    4.4840  -17.4591 C   0  0  0  0  0  0  0  0  0  0  0  0
   -8.8268    4.0496  -16.3018 N   0  0  0  0  0  0  0  0  0  0  0  0
   -7.5079    4.4275  -16.3258 C   0  0  0  0  0  0  0  0  0  0  0  0
   -6.7556    4.2306  -15.1555 N   0  0  0  0  0  0  0  0  0  0  0  0
   -5.7849    4.9555  -14.9463 O   0  0  0  0  0  0  0  0  0  0  0  0
   -7.2164    3.3984  -14.3720 O   0  0  0  0  0  0  0  0  0  0  0  0
  1  2  1  0
  2  3  1  0
  2  4  1  0
  2  5  1  0
  5  6  2  0
  5  7  1  0
  7  8  1  0
  8  9  1  0
  9 10  2  0
 10 11  1  0
 11 12  1  0
 12 13  1  0
 13 14  2  0
 13 15  1  0
 12  8  2  0
M  CHG  2  13   1  15  -1
M  END
>  <energy_score>  (2824) 
-12.251974

>  <alias>  (2824) 
None

>  <HIPPO Pose ID>  (2824) 
75690

>  <smiles>  (2824) 
CC(C)(Cl)C(=O)Nc1nc[nH]c1[N+](=O)[O-]

>  <inchikey>  (2824) 
UEBSLXZPALKSCX-UHFFFAOYSA-N

>  <distance_score>  (2824) 
1.552789

>  <ref_mols>  (2824) 
Z0719a,Z1597a

>  <ref_pdb>  (2824) 
Z0719a

>  <HIPPO Compound ID>  (2824) 
150423

>  <name>  (2824) 
P75690

>  <inspiration_score>  (2824) 
None

$$$$
P75691
     RDKit          3D

 15 15  0  0  0  0  0  0  0  0999 V2000
   -8.5581    4.2896  -14.3822 C   0  0  0  0  0  0  0  0  0  0  0  0
   -8.1961    4.4526  -15.7668 N   0  0  0  0  0  0  0  0  0  0  0  0
   -9.0211    4.5540  -16.8375 C   0  0  0  0  0  0  0  0  0  0  0  0
   -8.3733    5.0569  -17.8647 N   0  0  0  0  0  0  0  0  0  0  0  0
   -7.0922    5.2539  -17.4425 C   0  0  0  0  0  0  0  0  0  0  0  0
   -6.2713    5.9817  -18.2395 N   0  0  0  0  0  0  0  0  0  0  0  0
   -4.8686    6.5950  -17.9548 C   0  0  0  0  0  0  0  0  0  0  0  0
   -4.1757    6.4996  -17.0160 O   0  0  0  0  0  0  0  0  0  0  0  0
   -4.4913    7.5351  -19.1416 C   0  0  0  0  0  0  0  0  0  0  0  0
   -4.4252    6.8077  -20.4792 C   0  0  0  0  0  0  0  0  0  0  0  0
   -3.1412    8.2119  -18.8686 C   0  0  0  0  0  0  0  0  0  0  0  0
   -5.7439    8.8346  -19.2278 Cl  0  0  0  0  0  0  0  0  0  0  0  0
   -6.9231    4.7359  -16.1846 C   0  0  0  0  0  0  0  0  0  0  0  0
   -5.8035    4.5326  -15.3529 C   0  0  0  0  0  0  0  0  0  0  0  0
   -4.9855    4.2505  -14.5809 N   0  0  0  0  0  0  0  0  0  0  0  0
  1  2  1  0
  2  3  1  0
  3  4  2  0
  4  5  1  0
  5  6  1  0
  6  7  1  0
  7  8  2  0
  7  9  1  0
  9 10  1  0
  9 11  1  0
  9 12  1  0
  5 13  2  0
 13 14  1  0
 14 15  3  0
 13  2  1  0
M  END
>  <energy_score>  (2825) 
-21.543897

>  <alias>  (2825) 
None

>  <HIPPO Pose ID>  (2825) 
75691

>  <smiles>  (2825) 
Cn1cnc(NC(=O)C(C)(C)Cl)c1C#N

>  <inchikey>  (2825) 
KLBJFZWPHKHNKO-UHFFFAOYSA-N

>  <distance_score>  (2825) 
1.925347

>  <ref_mols>  (2825) 
Z0719a,Z1597a

>  <ref_pdb>  (2825) 
Z0719a

>  <HIPPO Compound ID>  (2825) 
150424

>  <name>  (2825) 
P75691

>  <inspiration_score>  (2825) 
None

$$$$
P75692
     RDKit          3D

 15 15  0  0  0  0  0  0  0  0999 V2000
   -6.9055    2.4532  -13.3626 C   0  0  0  0  0  0  0  0  0  0  0  0
   -6.1994    3.6980  -13.8871 C   0  0  0  0  0  0  0  0  0  0  0  0
   -4.6822    3.4828  -13.7732 C   0  0  0  0  0  0  0  0  0  0  0  0
   -6.6792    4.1244  -15.2059 N   0  0  0  0  0  0  0  0  0  0  0  0
   -7.9951    4.3223  -15.5546 C   0  0  0  0  0  0  0  0  0  0  0  0
   -8.1140    4.8788  -16.7412 N   0  0  0  0  0  0  0  0  0  0  0  0
   -6.8413    5.0448  -17.1809 C   0  0  0  0  0  0  0  0  0  0  0  0
   -6.5817    5.6885  -18.3429 N   0  0  0  0  0  0  0  0  0  0  0  0
   -5.2460    6.2468  -18.9112 C   0  0  0  0  0  0  0  0  0  0  0  0
   -4.1543    6.1675  -18.4980 O   0  0  0  0  0  0  0  0  0  0  0  0
   -5.6189    7.0689  -20.1401 C   0  0  0  0  0  0  0  0  0  0  0  0
   -4.4601    7.9159  -20.6632 C   0  0  0  0  0  0  0  0  0  0  0  0
   -3.4243    7.1188  -21.4381 C   0  0  0  0  0  0  0  0  0  0  0  0
   -1.7757    8.3547  -22.0168 I   0  0  0  0  0  0  0  0  0  0  0  0
   -5.9367    4.5813  -16.2640 C   0  0  0  0  0  0  0  0  0  0  0  0
  1  2  1  0
  2  3  1  0
  2  4  1  0
  4  5  1  0
  5  6  2  0
  6  7  1  0
  7  8  1  0
  8  9  1  0
  9 10  2  0
  9 11  1  0
 11 12  1  0
 12 13  1  0
 13 14  1  0
  7 15  2  0
 15  4  1  0
M  END
>  <energy_score>  (2826) 
-4.157795

>  <alias>  (2826) 
None

>  <HIPPO Pose ID>  (2826) 
75692

>  <smiles>  (2826) 
CC(C)n1cnc(NC(=O)CCCI)c1

>  <inchikey>  (2826) 
YTPFYNLMZYYYOU-UHFFFAOYSA-N

>  <distance_score>  (2826) 
1.902007

>  <ref_mols>  (2826) 
Z0719a,Z1597a

>  <ref_pdb>  (2826) 
Z0719a

>  <HIPPO Compound ID>  (2826) 
150430

>  <name>  (2826) 
P75692

>  <inspiration_score>  (2826) 
None

$$$$
P75693
     RDKit          3D

 15 15  0  0  0  0  0  0  0  0999 V2000
   -9.0095    4.1736  -18.9739 C   0  0  0  0  0  0  0  0  0  0  0  0
   -8.3121    4.4711  -17.7199 C   0  0  0  0  0  0  0  0  0  0  0  0
   -8.9871    4.2785  -16.5435 N   0  0  0  0  0  0  0  0  0  0  0  0
   -8.1266    4.5618  -15.5961 C   0  0  0  0  0  0  0  0  0  0  0  0
   -8.3712    4.4936  -14.1394 C   0  0  0  0  0  0  0  0  0  0  0  0
   -6.9073    4.9046  -16.1299 N   0  0  0  0  0  0  0  0  0  0  0  0
   -5.7168    5.0288  -15.3440 C   0  0  0  0  0  0  0  0  0  0  0  0
   -7.0263    4.9255  -17.4949 C   0  0  0  0  0  0  0  0  0  0  0  0
   -6.0648    5.2560  -18.4131 N   0  0  0  0  0  0  0  0  0  0  0  0
   -4.6735    5.9347  -18.2225 C   0  0  0  0  0  0  0  0  0  0  0  0
   -4.1731    6.3828  -17.2636 O   0  0  0  0  0  0  0  0  0  0  0  0
   -3.9505    5.8937  -19.5554 C   0  0  0  0  0  0  0  0  0  0  0  0
   -4.0403    7.2258  -20.2921 C   0  0  2  0  0  0  0  0  0  0  0  0
   -5.4571    7.6501  -20.6596 C   0  0  0  0  0  0  0  0  0  0  0  0
   -3.0170    7.1512  -21.8100 S   0  0  0  0  0  0  0  0  0  0  0  0
  1  2  1  0
  2  3  1  0
  3  4  2  0
  4  5  1  0
  4  6  1  0
  6  7  1  0
  6  8  1  0
  8  9  1  0
  9 10  1  0
 10 11  2  0
 10 12  1  0
 12 13  1  0
 13 14  1  6
 13 15  1  0
  8  2  2  0
M  END
>  <energy_score>  (2827) 
-29.628049

>  <alias>  (2827) 
None

>  <HIPPO Pose ID>  (2827) 
75693

>  <smiles>  (2827) 
Cc1nc(C)n(C)c1NC(=O)C[C@H](C)S

>  <inchikey>  (2827) 
ZGIAJSSYHKKPCD-LURJTMIESA-N

>  <distance_score>  (2827) 
1.317022

>  <ref_mols>  (2827) 
Z0719a,Z1597a

>  <ref_pdb>  (2827) 
Z0719a

>  <HIPPO Compound ID>  (2827) 
150432

>  <name>  (2827) 
P75693

>  <inspiration_score>  (2827) 
None

$$$$
P75695
     RDKit          3D

 15 15  0  0  0  0  0  0  0  0999 V2000
   -2.1559    7.1505  -20.2775 C   0  0  0  0  0  0  0  0  0  0  0  0
   -3.4520    7.3172  -19.9768 C   0  0  0  0  0  0  0  0  0  0  0  0
   -4.4755    6.2324  -19.8980 C   0  0  2  0  0  0  0  0  0  0  0  0
   -5.5471    6.6758  -20.7127 O   0  0  0  0  0  0  0  0  0  0  0  0
   -4.8722    5.8693  -18.4327 C   0  0  0  0  0  0  0  0  0  0  0  0
   -4.1165    5.8384  -17.5410 O   0  0  0  0  0  0  0  0  0  0  0  0
   -6.3895    5.5382  -18.4782 N   0  0  0  0  0  0  0  0  0  0  0  0
   -7.2101    5.0438  -17.5225 C   0  0  0  0  0  0  0  0  0  0  0  0
   -8.5216    4.8851  -17.8551 N   0  0  0  0  0  0  0  0  0  0  0  0
   -9.1304    4.5046  -16.7569 C   0  0  0  0  0  0  0  0  0  0  0  0
   -8.2584    4.4593  -15.7208 N   0  0  0  0  0  0  0  0  0  0  0  0
   -8.5583    4.3479  -14.3156 C   0  0  0  0  0  0  0  0  0  0  0  0
   -7.0002    4.6703  -16.2195 C   0  0  0  0  0  0  0  0  0  0  0  0
   -5.8464    4.5057  -15.4264 C   0  0  0  0  0  0  0  0  0  0  0  0
   -4.9960    4.2794  -14.6710 N   0  0  0  0  0  0  0  0  0  0  0  0
  1  2  2  0
  2  3  1  0
  3  4  1  6
  3  5  1  0
  5  6  2  0
  5  7  1  0
  7  8  1  0
  8  9  1  0
  9 10  2  0
 10 11  1  0
 11 12  1  0
 11 13  1  0
 13 14  1  0
 14 15  3  0
 13  8  2  0
M  END
>  <energy_score>  (2828) 
-15.16331

>  <alias>  (2828) 
None

>  <HIPPO Pose ID>  (2828) 
75695

>  <smiles>  (2828) 
C=C[C@H](O)C(=O)Nc1ncn(C)c1C#N

>  <inchikey>  (2828) 
IBOLHCZLNNYGLW-ZETCQYMHSA-N

>  <distance_score>  (2828) 
1.763019

>  <ref_mols>  (2828) 
Z0719a,Z1597a

>  <ref_pdb>  (2828) 
Z0719a

>  <HIPPO Compound ID>  (2828) 
150434

>  <name>  (2828) 
P75695

>  <inspiration_score>  (2828) 
None

$$$$
P75696
     RDKit          3D

 15 15  0  0  0  0  0  0  0  0999 V2000
   -5.2250    7.3667  -20.3788 C   0  0  0  0  0  0  0  0  0  0  0  0
   -3.9170    6.8032  -19.8343 C   0  0  2  0  0  0  0  0  0  0  0  0
   -2.6559    6.7562  -21.1673 S   0  0  0  0  0  0  0  0  0  0  0  0
   -4.0217    5.4111  -19.2128 C   0  0  0  0  0  0  0  0  0  0  0  0
   -4.9402    5.3752  -17.9986 C   0  0  0  0  0  0  0  0  0  0  0  0
   -4.5634    5.6396  -16.9255 O   0  0  0  0  0  0  0  0  0  0  0  0
   -6.3345    4.9054  -18.4862 N   0  0  0  0  0  0  0  0  0  0  0  0
   -7.4531    4.5931  -17.7862 C   0  0  0  0  0  0  0  0  0  0  0  0
   -8.5762    4.3347  -18.5220 N   0  0  0  0  0  0  0  0  0  0  0  0
   -9.5559    4.1714  -17.6641 C   0  0  0  0  0  0  0  0  0  0  0  0
   -9.0947    4.2181  -16.3879 N   0  0  0  0  0  0  0  0  0  0  0  0
   -7.7563    4.4887  -16.4605 C   0  0  0  0  0  0  0  0  0  0  0  0
   -7.0374    4.5895  -15.2622 N   0  0  0  0  0  0  0  0  0  0  0  0
   -6.0126    3.9182  -15.1252 O   0  0  0  0  0  0  0  0  0  0  0  0
   -7.5762    5.3012  -14.4094 O   0  0  0  0  0  0  0  0  0  0  0  0
  2  1  1  6
  2  3  1  0
  2  4  1  0
  4  5  1  0
  5  6  2  0
  5  7  1  0
  7  8  1  0
  8  9  1  0
  9 10  2  0
 10 11  1  0
 11 12  1  0
 12 13  1  0
 13 14  2  0
 13 15  1  0
 12  8  2  0
M  CHG  2  13   1  15  -1
M  END
>  <energy_score>  (2829) 
-38.672773

>  <alias>  (2829) 
None

>  <HIPPO Pose ID>  (2829) 
75696

>  <smiles>  (2829) 
C[C@H](S)CC(=O)Nc1nc[nH]c1[N+](=O)[O-]

>  <inchikey>  (2829) 
WGDHSIFVMVNRTP-BYPYZUCNSA-N

>  <distance_score>  (2829) 
1.418722

>  <ref_mols>  (2829) 
Z0719a,Z1597a

>  <ref_pdb>  (2829) 
Z0719a

>  <HIPPO Compound ID>  (2829) 
150438

>  <name>  (2829) 
P75696

>  <inspiration_score>  (2829) 
None

$$$$
P75698
     RDKit          3D

 15 16  0  0  0  0  0  0  0  0999 V2000
   -2.5492    7.7870  -21.5438 C   0  0  0  0  0  0  0  0  0  0  0  0
   -3.7991    7.6620  -20.6732 C   0  0  1  0  0  0  0  0  0  0  0  0
   -5.2618    7.8667  -21.7383 S   0  0  0  0  0  0  0  0  0  0  0  0
   -3.7950    6.3448  -19.9104 C   0  0  0  0  0  0  0  0  0  0  0  0
   -4.7699    6.3363  -18.7488 C   0  0  0  0  0  0  0  0  0  0  0  0
   -4.5055    6.8685  -17.7395 O   0  0  0  0  0  0  0  0  0  0  0  0
   -5.9989    5.4621  -19.1370 N   0  0  0  0  0  0  0  0  0  0  0  0
   -7.0427    5.0132  -18.3787 C   0  0  0  0  0  0  0  0  0  0  0  0
   -8.1923    4.3145  -18.7235 C   0  0  0  0  0  0  0  0  0  0  0  0
   -8.9985    4.0499  -17.6263 N   0  0  0  0  0  0  0  0  0  0  0  0
   -8.3465    4.5999  -16.6384 C   0  0  0  0  0  0  0  0  0  0  0  0
   -7.1726    5.1508  -17.0459 N   0  0  0  0  0  0  0  0  0  0  0  0
   -6.3904    5.6864  -15.9563 C   0  0  0  0  0  0  0  0  0  0  0  0
   -7.0987    5.1059  -14.7319 C   0  0  0  0  0  0  0  0  0  0  0  0
   -8.5305    4.7734  -15.1920 C   0  0  0  0  0  0  0  0  0  0  0  0
  2  1  1  6
  2  3  1  0
  2  4  1  0
  4  5  1  0
  5  6  2  0
  5  7  1  0
  7  8  1  0
  8  9  2  0
  9 10  1  0
 10 11  2  0
 11 12  1  0
 12 13  1  0
 13 14  1  0
 14 15  1  0
 12  8  1  0
 15 11  1  0
M  END
>  <energy_score>  (2830) 
-42.371445

>  <alias>  (2830) 
None

>  <HIPPO Pose ID>  (2830) 
75698

>  <smiles>  (2830) 
C[C@@H](S)CC(=O)Nc1cnc2n1CCC2

>  <inchikey>  (2830) 
NVUGFNLUBFCDMJ-SSDOTTSWSA-N

>  <distance_score>  (2830) 
1.323648

>  <ref_mols>  (2830) 
Z0719a,Z1597a

>  <ref_pdb>  (2830) 
Z0719a

>  <HIPPO Compound ID>  (2830) 
150448

>  <name>  (2830) 
P75698

>  <inspiration_score>  (2830) 
None

$$$$
P75701
     RDKit          3D

 15 15  0  0  0  0  0  0  0  0999 V2000
   -4.3130    8.0653  -19.3460 C   0  0  0  0  0  0  0  0  0  0  0  0
   -4.2907    6.7358  -20.0935 C   0  0  1  0  0  0  0  0  0  0  0  0
   -3.0061    6.8181  -21.3523 Cl  0  0  0  0  0  0  0  0  0  0  0  0
   -3.9929    5.5448  -19.1862 C   0  0  0  0  0  0  0  0  0  0  0  0
   -4.9265    5.4348  -17.9897 C   0  0  0  0  0  0  0  0  0  0  0  0
   -4.5679    5.6839  -16.9075 O   0  0  0  0  0  0  0  0  0  0  0  0
   -6.3037    4.9508  -18.5034 N   0  0  0  0  0  0  0  0  0  0  0  0
   -7.4261    4.6039  -17.8233 C   0  0  0  0  0  0  0  0  0  0  0  0
   -8.5365    4.3354  -18.5733 N   0  0  0  0  0  0  0  0  0  0  0  0
   -9.5252    4.1592  -17.7276 C   0  0  0  0  0  0  0  0  0  0  0  0
   -9.0816    4.2074  -16.4454 N   0  0  0  0  0  0  0  0  0  0  0  0
   -7.7440    4.4863  -16.5011 C   0  0  0  0  0  0  0  0  0  0  0  0
   -7.0420    4.5902  -15.2924 N   0  0  0  0  0  0  0  0  0  0  0  0
   -6.0120    3.9291  -15.1450 O   0  0  0  0  0  0  0  0  0  0  0  0
   -7.5992    5.2928  -14.4437 O   0  0  0  0  0  0  0  0  0  0  0  0
  2  1  1  1
  2  3  1  0
  2  4  1  0
  4  5  1  0
  5  6  2  0
  5  7  1  0
  7  8  1  0
  8  9  1  0
  9 10  2  0
 10 11  1  0
 11 12  1  0
 12 13  1  0
 13 14  2  0
 13 15  1  0
 12  8  2  0
M  CHG  2  13   1  15  -1
M  END
>  <energy_score>  (2831) 
-17.816931

>  <alias>  (2831) 
None

>  <HIPPO Pose ID>  (2831) 
75701

>  <smiles>  (2831) 
C[C@@H](Cl)CC(=O)Nc1nc[nH]c1[N+](=O)[O-]

>  <inchikey>  (2831) 
HJRIUFQMENMJFP-SCSAIBSYSA-N

>  <distance_score>  (2831) 
1.392456

>  <ref_mols>  (2831) 
Z0719a,Z1597a

>  <ref_pdb>  (2831) 
Z0719a

>  <HIPPO Compound ID>  (2831) 
150449

>  <name>  (2831) 
P75701

>  <inspiration_score>  (2831) 
None

$$$$
P75703
     RDKit          3D

 15 15  0  0  0  0  0  0  0  0999 V2000
   -3.1843    8.3967  -19.7388 C   0  0  0  0  0  0  0  0  0  0  0  0
   -3.8028    7.2365  -20.5132 C   0  0  1  0  0  0  0  0  0  0  0  0
   -2.6846    5.8387  -20.4903 Cl  0  0  0  0  0  0  0  0  0  0  0  0
   -5.2182    6.8915  -20.0564 C   0  0  0  0  0  0  0  0  0  0  0  0
   -5.3439    6.2647  -18.6734 C   0  0  0  0  0  0  0  0  0  0  0  0
   -4.5007    6.2893  -17.8668 O   0  0  0  0  0  0  0  0  0  0  0  0
   -6.7993    5.7313  -18.5908 N   0  0  0  0  0  0  0  0  0  0  0  0
   -7.4405    5.0767  -17.5938 C   0  0  0  0  0  0  0  0  0  0  0  0
   -8.7452    4.7577  -17.8206 N   0  0  0  0  0  0  0  0  0  0  0  0
   -9.2143    4.3369  -16.6719 C   0  0  0  0  0  0  0  0  0  0  0  0
   -8.2566    4.3806  -15.7150 N   0  0  0  0  0  0  0  0  0  0  0  0
   -8.4298    4.2341  -14.2902 C   0  0  0  0  0  0  0  0  0  0  0  0
   -7.0751    4.7186  -16.3201 C   0  0  0  0  0  0  0  0  0  0  0  0
   -5.8505    4.6682  -15.6242 C   0  0  0  0  0  0  0  0  0  0  0  0
   -4.9398    4.5168  -14.9223 N   0  0  0  0  0  0  0  0  0  0  0  0
  2  1  1  1
  2  3  1  0
  2  4  1  0
  4  5  1  0
  5  6  2  0
  5  7  1  0
  7  8  1  0
  8  9  1  0
  9 10  2  0
 10 11  1  0
 11 12  1  0
 11 13  1  0
 13 14  1  0
 14 15  3  0
 13  8  2  0
M  END
>  <energy_score>  (2832) 
-22.533023

>  <alias>  (2832) 
None

>  <HIPPO Pose ID>  (2832) 
75703

>  <smiles>  (2832) 
C[C@@H](Cl)CC(=O)Nc1ncn(C)c1C#N

>  <inchikey>  (2832) 
OJYXVSHRAJRSKZ-ZCFIWIBFSA-N

>  <distance_score>  (2832) 
1.860481

>  <ref_mols>  (2832) 
Z0719a,Z1597a

>  <ref_pdb>  (2832) 
Z0719a

>  <HIPPO Compound ID>  (2832) 
150452

>  <name>  (2832) 
P75703

>  <inspiration_score>  (2832) 
None

$$$$
P75705
     RDKit          3D

 15 15  0  0  0  0  0  0  0  0999 V2000
   -8.6845    4.4877  -14.5058 C   0  0  0  0  0  0  0  0  0  0  0  0
   -8.1907    4.5236  -15.8573 N   0  0  0  0  0  0  0  0  0  0  0  0
   -8.9096    4.5429  -17.0079 C   0  0  0  0  0  0  0  0  0  0  0  0
   -8.1201    4.7435  -18.0412 N   0  0  0  0  0  0  0  0  0  0  0  0
   -6.8575    4.8570  -17.5351 C   0  0  0  0  0  0  0  0  0  0  0  0
   -5.8515    5.1707  -18.3909 N   0  0  0  0  0  0  0  0  0  0  0  0
   -4.3871    5.6165  -18.1090 C   0  0  0  0  0  0  0  0  0  0  0  0
   -3.8034    5.7064  -17.0991 O   0  0  0  0  0  0  0  0  0  0  0  0
   -3.6916    5.9358  -19.4542 C   0  0  1  0  0  0  0  0  0  0  0  0
   -3.5023    4.7728  -20.2550 O   0  0  0  0  0  0  0  0  0  0  0  0
   -4.3950    7.0383  -20.2367 C   0  0  0  0  0  0  0  0  0  0  0  0
   -3.5540    7.4871  -21.2134 F   0  0  0  0  0  0  0  0  0  0  0  0
   -6.8661    4.6365  -16.1817 C   0  0  0  0  0  0  0  0  0  0  0  0
   -5.8406    4.4816  -15.2256 C   0  0  0  0  0  0  0  0  0  0  0  0
   -5.0991    4.2836  -14.3571 N   0  0  0  0  0  0  0  0  0  0  0  0
  1  2  1  0
  2  3  1  0
  3  4  2  0
  4  5  1  0
  5  6  1  0
  6  7  1  0
  7  8  2  0
  7  9  1  0
  9 10  1  6
  9 11  1  0
 11 12  1  0
  5 13  2  0
 13 14  1  0
 14 15  3  0
 13  2  1  0
M  END
>  <energy_score>  (2833) 
-8.61917

>  <alias>  (2833) 
None

>  <HIPPO Pose ID>  (2833) 
75705

>  <smiles>  (2833) 
Cn1cnc(NC(=O)[C@@H](O)CF)c1C#N

>  <inchikey>  (2833) 
URYPVZXBNLTCBD-LURJTMIESA-N

>  <distance_score>  (2833) 
1.685076

>  <ref_mols>  (2833) 
Z0719a,Z1597a

>  <ref_pdb>  (2833) 
Z0719a

>  <HIPPO Compound ID>  (2833) 
150454

>  <name>  (2833) 
P75705

>  <inspiration_score>  (2833) 
None

$$$$
P75709
     RDKit          3D

 15 16  0  0  0  0  0  0  0  0999 V2000
   -5.4780    7.6036  -20.9334 C   0  0  0  0  0  0  0  0  0  0  0  0
   -4.0281    7.2707  -20.6242 C   0  0  1  0  0  0  0  0  0  0  0  0
   -3.2854    8.6933  -19.8153 Cl  0  0  0  0  0  0  0  0  0  0  0  0
   -3.7696    6.0140  -19.8000 C   0  0  0  0  0  0  0  0  0  0  0  0
   -4.6399    5.8563  -18.5699 C   0  0  0  0  0  0  0  0  0  0  0  0
   -4.2641    6.1791  -17.5094 O   0  0  0  0  0  0  0  0  0  0  0  0
   -5.9657    5.1576  -19.0028 N   0  0  0  0  0  0  0  0  0  0  0  0
   -7.0686    4.8226  -18.2738 C   0  0  0  0  0  0  0  0  0  0  0  0
   -8.2848    4.2771  -18.6616 C   0  0  0  0  0  0  0  0  0  0  0  0
   -9.1608    4.1396  -17.5970 N   0  0  0  0  0  0  0  0  0  0  0  0
   -8.4865    4.6247  -16.5904 C   0  0  0  0  0  0  0  0  0  0  0  0
   -7.2189    4.9660  -16.9441 N   0  0  0  0  0  0  0  0  0  0  0  0
   -6.4268    5.4307  -15.8285 C   0  0  0  0  0  0  0  0  0  0  0  0
   -7.2933    5.0354  -14.6310 C   0  0  0  0  0  0  0  0  0  0  0  0
   -8.7296    4.9289  -15.1746 C   0  0  0  0  0  0  0  0  0  0  0  0
  2  1  1  1
  2  3  1  0
  2  4  1  0
  4  5  1  0
  5  6  2  0
  5  7  1  0
  7  8  1  0
  8  9  2  0
  9 10  1  0
 10 11  2  0
 11 12  1  0
 12 13  1  0
 13 14  1  0
 14 15  1  0
 12  8  1  0
 15 11  1  0
M  END
>  <energy_score>  (2834) 
-7.945623

>  <alias>  (2834) 
None

>  <HIPPO Pose ID>  (2834) 
75709

>  <smiles>  (2834) 
C[C@@H](Cl)CC(=O)Nc1cnc2n1CCC2

>  <inchikey>  (2834) 
WHSKDVPNHZAMIU-SSDOTTSWSA-N

>  <distance_score>  (2834) 
1.352837

>  <ref_mols>  (2834) 
Z0719a,Z1597a

>  <ref_pdb>  (2834) 
Z0719a

>  <HIPPO Compound ID>  (2834) 
150464

>  <name>  (2834) 
P75709

>  <inspiration_score>  (2834) 
None

$$$$
P75711
     RDKit          3D

 15 15  0  0  0  0  0  0  0  0999 V2000
   -9.0472    4.1748  -19.0074 C   0  0  0  0  0  0  0  0  0  0  0  0
   -8.3209    4.4744  -17.7726 C   0  0  0  0  0  0  0  0  0  0  0  0
   -8.9495    4.2257  -16.5818 N   0  0  0  0  0  0  0  0  0  0  0  0
   -8.0761    4.5360  -15.6557 C   0  0  0  0  0  0  0  0  0  0  0  0
   -8.2863    4.4460  -14.1938 C   0  0  0  0  0  0  0  0  0  0  0  0
   -6.8864    4.9338  -16.2212 N   0  0  0  0  0  0  0  0  0  0  0  0
   -5.6816    5.1025  -15.4674 C   0  0  0  0  0  0  0  0  0  0  0  0
   -7.0510    4.9871  -17.5824 C   0  0  0  0  0  0  0  0  0  0  0  0
   -6.1586    5.4178  -18.5333 N   0  0  0  0  0  0  0  0  0  0  0  0
   -4.7780    6.1257  -18.3788 C   0  0  0  0  0  0  0  0  0  0  0  0
   -4.1582    6.3788  -17.4175 O   0  0  0  0  0  0  0  0  0  0  0  0
   -4.2082    6.4103  -19.7621 C   0  0  0  0  0  0  0  0  0  0  0  0
   -5.0446    7.3255  -20.6460 C   0  0  2  0  0  0  0  0  0  0  0  0
   -4.3061    7.7010  -21.9263 C   0  0  0  0  0  0  0  0  0  0  0  0
   -5.4626    8.8477  -19.7827 Cl  0  0  0  0  0  0  0  0  0  0  0  0
  1  2  1  0
  2  3  1  0
  3  4  2  0
  4  5  1  0
  4  6  1  0
  6  7  1  0
  6  8  1  0
  8  9  1  0
  9 10  1  0
 10 11  2  0
 10 12  1  0
 12 13  1  0
 13 14  1  6
 13 15  1  0
  8  2  2  0
M  END
>  <energy_score>  (2835) 
-5.350586

>  <alias>  (2835) 
None

>  <HIPPO Pose ID>  (2835) 
75711

>  <smiles>  (2835) 
Cc1nc(C)n(C)c1NC(=O)C[C@H](C)Cl

>  <inchikey>  (2835) 
DWGZDZXADKDACN-LURJTMIESA-N

>  <distance_score>  (2835) 
1.245923

>  <ref_mols>  (2835) 
Z0719a,Z1597a

>  <ref_pdb>  (2835) 
Z0719a

>  <HIPPO Compound ID>  (2835) 
150465

>  <name>  (2835) 
P75711

>  <inspiration_score>  (2835) 
None

$$$$
P75712
     RDKit          3D

 15 15  0  0  0  0  0  0  0  0999 V2000
   -5.1196    6.9191  -19.5931 C   0  0  0  0  0  0  0  0  0  0  0  0
   -3.7346    6.3087  -19.4505 C   0  0  0  0  0  0  0  0  0  0  0  0
   -3.7084    4.8980  -18.8513 C   0  0  0  0  0  0  0  0  0  0  0  0
   -4.1847    4.7836  -17.3947 C   0  0  0  0  0  0  0  0  0  0  0  0
   -3.4745    4.8493  -16.4720 O   0  0  0  0  0  0  0  0  0  0  0  0
   -5.7258    4.6310  -17.4675 N   0  0  0  0  0  0  0  0  0  0  0  0
   -6.6532    4.4419  -16.4686 C   0  0  0  0  0  0  0  0  0  0  0  0
   -6.7553    4.0292  -15.1371 C   0  0  0  0  0  0  0  0  0  0  0  0
   -5.8554    3.3188  -14.2438 N   0  0  0  0  0  0  0  0  0  0  0  0
   -6.3367    2.3538  -13.6222 O   0  0  0  0  0  0  0  0  0  0  0  0
   -4.6768    3.6811  -14.1663 O   0  0  0  0  0  0  0  0  0  0  0  0
   -8.0595    4.1754  -14.6799 N   0  0  0  0  0  0  0  0  0  0  0  0
   -8.7605    4.5065  -15.7241 C   0  0  0  0  0  0  0  0  0  0  0  0
   -7.9778    4.6302  -16.8196 N   0  0  0  0  0  0  0  0  0  0  0  0
   -8.5056    4.8769  -18.1315 C   0  0  0  0  0  0  0  0  0  0  0  0
  1  2  1  0
  2  3  1  0
  3  4  1  0
  4  5  2  0
  4  6  1  0
  6  7  1  0
  7  8  2  0
  8  9  1  0
  9 10  2  0
  9 11  1  0
  8 12  1  0
 12 13  2  0
 13 14  1  0
 14 15  1  0
 14  7  1  0
M  CHG  2   9   1  11  -1
M  END
>  <energy_score>  (2836) 
-14.392125

>  <alias>  (2836) 
None

>  <HIPPO Pose ID>  (2836) 
75712

>  <smiles>  (2836) 
CCCC(=O)Nc1c([N+](=O)[O-])ncn1C

>  <inchikey>  (2836) 
AJMXSHNGFQZZSG-UHFFFAOYSA-N

>  <distance_score>  (2836) 
1.954933

>  <ref_mols>  (2836) 
Z0719a,Z1597a

>  <ref_pdb>  (2836) 
Z0719a

>  <HIPPO Compound ID>  (2836) 
150470

>  <name>  (2836) 
P75712

>  <inspiration_score>  (2836) 
None

$$$$
P75715
     RDKit          3D

 15 15  0  0  0  0  0  0  0  0999 V2000
   -3.5902    4.5313  -16.6316 O   0  0  0  0  0  0  0  0  0  0  0  0
   -4.2820    4.7273  -17.5530 C   0  0  0  0  0  0  0  0  0  0  0  0
   -5.8243    4.8166  -17.6487 N   0  0  0  0  0  0  0  0  0  0  0  0
   -6.7841    4.6020  -16.7053 C   0  0  0  0  0  0  0  0  0  0  0  0
   -8.0150    4.9713  -17.1954 N   0  0  0  0  0  0  0  0  0  0  0  0
   -8.9068    4.5248  -16.3511 C   0  0  0  0  0  0  0  0  0  0  0  0
   -8.3078    3.9527  -15.2781 N   0  0  0  0  0  0  0  0  0  0  0  0
   -6.9405    4.0287  -15.4593 C   0  0  0  0  0  0  0  0  0  0  0  0
   -6.1358    3.3874  -14.4671 N   0  0  0  0  0  0  0  0  0  0  0  0
   -6.7207    2.5642  -13.7425 O   0  0  0  0  0  0  0  0  0  0  0  0
   -4.9466    3.6901  -14.3662 O   0  0  0  0  0  0  0  0  0  0  0  0
   -3.7063    4.8383  -18.9924 C   0  0  2  0  0  0  0  0  0  0  0  0
   -2.3231    4.4318  -18.9674 O   0  0  0  0  0  0  0  0  0  0  0  0
   -3.8095    6.2154  -19.6356 C   0  0  0  0  0  0  0  0  0  0  0  0
   -3.2722    6.1539  -20.8933 F   0  0  0  0  0  0  0  0  0  0  0  0
  1  2  2  0
  2  3  1  0
  3  4  1  0
  4  5  1  0
  5  6  2  0
  6  7  1  0
  7  8  1  0
  8  9  1  0
  9 10  2  0
  9 11  1  0
  2 12  1  0
 12 13  1  1
 12 14  1  0
 14 15  1  0
  8  4  2  0
M  CHG  2   9   1  11  -1
M  END
>  <energy_score>  (2837) 
-23.908149

>  <alias>  (2837) 
None

>  <HIPPO Pose ID>  (2837) 
75715

>  <smiles>  (2837) 
O=C(Nc1nc[nH]c1[N+](=O)[O-])[C@H](O)CF

>  <inchikey>  (2837) 
XTNJCUQANFJDBK-GSVOUGTGSA-N

>  <distance_score>  (2837) 
1.817957

>  <ref_mols>  (2837) 
Z0719a,Z1597a

>  <ref_pdb>  (2837) 
Z0719a

>  <HIPPO Compound ID>  (2837) 
150476

>  <name>  (2837) 
P75715

>  <inspiration_score>  (2837) 
None

$$$$
P75718
     RDKit          3D

 15 16  0  0  0  0  0  0  0  0999 V2000
   -4.2288    6.0443  -17.5279 O   0  0  0  0  0  0  0  0  0  0  0  0
   -4.5966    5.6491  -18.5686 C   0  0  0  0  0  0  0  0  0  0  0  0
   -5.9823    5.0801  -19.0012 N   0  0  0  0  0  0  0  0  0  0  0  0
   -7.0978    4.8098  -18.2639 C   0  0  0  0  0  0  0  0  0  0  0  0
   -8.3280    4.2809  -18.6303 C   0  0  0  0  0  0  0  0  0  0  0  0
   -9.1267    4.0078  -17.5302 N   0  0  0  0  0  0  0  0  0  0  0  0
   -8.3989    4.4070  -16.5226 C   0  0  0  0  0  0  0  0  0  0  0  0
   -7.2186    4.9447  -16.9297 N   0  0  0  0  0  0  0  0  0  0  0  0
   -6.4127    5.4264  -15.8310 C   0  0  0  0  0  0  0  0  0  0  0  0
   -7.4183    5.4458  -14.6797 C   0  0  0  0  0  0  0  0  0  0  0  0
   -8.4901    4.4072  -15.0553 C   0  0  0  0  0  0  0  0  0  0  0  0
   -3.6268    5.5339  -19.7412 C   0  0  2  0  0  0  0  0  0  0  0  0
   -2.2691    5.5374  -19.2675 O   0  0  0  0  0  0  0  0  0  0  0  0
   -3.8232    6.6819  -20.7139 C   0  0  0  0  0  0  0  0  0  0  0  0
   -3.0954    6.4046  -21.8395 F   0  0  0  0  0  0  0  0  0  0  0  0
  1  2  2  0
  2  3  1  0
  3  4  1  0
  4  5  2  0
  5  6  1  0
  6  7  2  0
  7  8  1  0
  8  9  1  0
  9 10  1  0
 10 11  1  0
  2 12  1  0
 12 13  1  1
 12 14  1  0
 14 15  1  0
  8  4  1  0
 11  7  1  0
M  END
>  <energy_score>  (2838) 
-27.377733

>  <alias>  (2838) 
None

>  <HIPPO Pose ID>  (2838) 
75718

>  <smiles>  (2838) 
O=C(Nc1cnc2n1CCC2)[C@H](O)CF

>  <inchikey>  (2838) 
OVZGOZNMKWFZDY-ZCFIWIBFSA-N

>  <distance_score>  (2838) 
1.194776

>  <ref_mols>  (2838) 
Z0719a,Z1597a

>  <ref_pdb>  (2838) 
Z0719a

>  <HIPPO Compound ID>  (2838) 
150479

>  <name>  (2838) 
P75718

>  <inspiration_score>  (2838) 
None

$$$$
P75720
     RDKit          3D

 15 15  0  0  0  0  0  0  0  0999 V2000
   -9.1454    4.2080  -18.9173 C   0  0  0  0  0  0  0  0  0  0  0  0
   -8.3910    4.4871  -17.6932 C   0  0  0  0  0  0  0  0  0  0  0  0
   -9.0060    4.2683  -16.4907 N   0  0  0  0  0  0  0  0  0  0  0  0
   -8.1052    4.5480  -15.5805 C   0  0  0  0  0  0  0  0  0  0  0  0
   -8.2879    4.4561  -14.1153 C   0  0  0  0  0  0  0  0  0  0  0  0
   -6.9154    4.9122  -16.1665 N   0  0  0  0  0  0  0  0  0  0  0  0
   -5.6915    5.0497  -15.4369 C   0  0  0  0  0  0  0  0  0  0  0  0
   -7.1002    4.9501  -17.5238 C   0  0  0  0  0  0  0  0  0  0  0  0
   -6.1977    5.3023  -18.4920 N   0  0  0  0  0  0  0  0  0  0  0  0
   -4.7898    5.9744  -18.3717 C   0  0  0  0  0  0  0  0  0  0  0  0
   -4.2270    6.3966  -17.4330 O   0  0  0  0  0  0  0  0  0  0  0  0
   -4.1327    5.9334  -19.7619 C   0  0  2  0  0  0  0  0  0  0  0  0
   -2.7143    6.1320  -19.7092 O   0  0  0  0  0  0  0  0  0  0  0  0
   -4.7505    6.9712  -20.6848 C   0  0  0  0  0  0  0  0  0  0  0  0
   -4.5606    8.2138  -20.1501 F   0  0  0  0  0  0  0  0  0  0  0  0
  1  2  1  0
  2  3  1  0
  3  4  2  0
  4  5  1  0
  4  6  1  0
  6  7  1  0
  6  8  1  0
  8  9  1  0
  9 10  1  0
 10 11  2  0
 10 12  1  0
 12 13  1  1
 12 14  1  0
 14 15  1  0
  8  2  2  0
M  END
>  <energy_score>  (2839) 
-16.860992

>  <alias>  (2839) 
None

>  <HIPPO Pose ID>  (2839) 
75720

>  <smiles>  (2839) 
Cc1nc(C)n(C)c1NC(=O)[C@H](O)CF

>  <inchikey>  (2839) 
ZBWVYVUJNXZTAP-SSDOTTSWSA-N

>  <distance_score>  (2839) 
1.352504

>  <ref_mols>  (2839) 
Z0719a,Z1597a

>  <ref_pdb>  (2839) 
Z0719a

>  <HIPPO Compound ID>  (2839) 
150480

>  <name>  (2839) 
P75720

>  <inspiration_score>  (2839) 
None

$$$$
P75722
     RDKit          3D

 15 15  0  0  0  0  0  0  0  0999 V2000
   -4.9045    7.2763  -20.7607 C   0  0  0  0  0  0  0  0  0  0  0  0
   -3.8805    6.8018  -20.0343 C   0  0  0  0  0  0  0  0  0  0  0  0
   -2.2229    8.0278  -19.7133 I   0  0  0  0  0  0  0  0  0  0  0  0
   -3.8254    5.4142  -19.4489 C   0  0  0  0  0  0  0  0  0  0  0  0
   -4.4645    5.3434  -18.0672 C   0  0  0  0  0  0  0  0  0  0  0  0
   -3.8490    5.4756  -17.0821 O   0  0  0  0  0  0  0  0  0  0  0  0
   -5.9794    5.0645  -18.2786 N   0  0  0  0  0  0  0  0  0  0  0  0
   -6.9605    4.8141  -17.3807 C   0  0  0  0  0  0  0  0  0  0  0  0
   -8.2452    4.7674  -17.8348 N   0  0  0  0  0  0  0  0  0  0  0  0
   -8.9956    4.5721  -16.7739 C   0  0  0  0  0  0  0  0  0  0  0  0
   -8.2334    4.5184  -15.6530 N   0  0  0  0  0  0  0  0  0  0  0  0
   -8.6693    4.4952  -14.2811 C   0  0  0  0  0  0  0  0  0  0  0  0
   -6.9205    4.5802  -16.0317 C   0  0  0  0  0  0  0  0  0  0  0  0
   -5.8588    4.3760  -15.1275 C   0  0  0  0  0  0  0  0  0  0  0  0
   -5.0829    4.1327  -14.3015 N   0  0  0  0  0  0  0  0  0  0  0  0
  1  2  2  0
  2  3  1  0
  2  4  1  0
  4  5  1  0
  5  6  2  0
  5  7  1  0
  7  8  1  0
  8  9  1  0
  9 10  2  0
 10 11  1  0
 11 12  1  0
 11 13  1  0
 13 14  1  0
 14 15  3  0
 13  8  2  0
M  END
>  <energy_score>  (2840) 
-4.321243

>  <alias>  (2840) 
None

>  <HIPPO Pose ID>  (2840) 
75722

>  <smiles>  (2840) 
C=C(I)CC(=O)Nc1ncn(C)c1C#N

>  <inchikey>  (2840) 
CXUGOYKGMMAMMF-UHFFFAOYSA-N

>  <distance_score>  (2840) 
1.25411

>  <ref_mols>  (2840) 
Z0719a,Z1597a

>  <ref_pdb>  (2840) 
Z0719a

>  <HIPPO Compound ID>  (2840) 
150482

>  <name>  (2840) 
P75722

>  <inspiration_score>  (2840) 
None

$$$$
P75723
     RDKit          3D

 15 15  0  0  0  0  0  0  0  0999 V2000
   -3.9821    7.4640  -22.0998 C   0  0  0  0  0  0  0  0  0  0  0  0
   -4.3004    7.5860  -20.8011 C   0  0  0  0  0  0  0  0  0  0  0  0
   -3.2069    8.9325  -19.6271 I   0  0  0  0  0  0  0  0  0  0  0  0
   -5.5010    6.9218  -20.1681 C   0  0  0  0  0  0  0  0  0  0  0  0
   -5.1549    5.9664  -19.0110 C   0  0  0  0  0  0  0  0  0  0  0  0
   -4.0687    5.6000  -18.7659 O   0  0  0  0  0  0  0  0  0  0  0  0
   -6.5000    5.7266  -18.2513 N   0  0  0  0  0  0  0  0  0  0  0  0
   -6.7444    5.1114  -17.0704 C   0  0  0  0  0  0  0  0  0  0  0  0
   -5.8534    4.4527  -16.2704 C   0  0  0  0  0  0  0  0  0  0  0  0
   -6.5675    4.0608  -15.1641 N   0  0  0  0  0  0  0  0  0  0  0  0
   -6.0181    3.3323  -14.0207 C   0  0  0  0  0  0  0  0  0  0  0  0
   -7.0421    2.5272  -13.2289 C   0  0  0  0  0  0  0  0  0  0  0  0
   -5.2153    4.2259  -13.0826 C   0  0  0  0  0  0  0  0  0  0  0  0
   -7.8576    4.4739  -15.3730 C   0  0  0  0  0  0  0  0  0  0  0  0
   -7.9770    5.1527  -16.4967 N   0  0  0  0  0  0  0  0  0  0  0  0
  1  2  2  0
  2  3  1  0
  2  4  1  0
  4  5  1  0
  5  6  2  0
  5  7  1  0
  7  8  1  0
  8  9  2  0
  9 10  1  0
 10 11  1  0
 11 12  1  0
 11 13  1  0
 10 14  1  0
 14 15  2  0
 15  8  1  0
M  END
>  <energy_score>  (2841) 
-37.365352

>  <alias>  (2841) 
None

>  <HIPPO Pose ID>  (2841) 
75723

>  <smiles>  (2841) 
C=C(I)CC(=O)Nc1cn(C(C)C)cn1

>  <inchikey>  (2841) 
WNTBUAYRYCINLZ-UHFFFAOYSA-N

>  <distance_score>  (2841) 
1.695598

>  <ref_mols>  (2841) 
Z0719a,Z1597a

>  <ref_pdb>  (2841) 
Z0719a

>  <HIPPO Compound ID>  (2841) 
150485

>  <name>  (2841) 
P75723

>  <inspiration_score>  (2841) 
None

$$$$
P75724
     RDKit          3D

 15 15  0  0  0  0  0  0  0  0999 V2000
   -4.2782    6.7730  -20.1060 C   0  0  0  0  0  0  0  0  0  0  0  0
   -3.8545    5.7007  -19.1018 C   0  0  0  0  0  0  0  0  0  0  0  0
   -2.4440    5.9780  -18.5905 C   0  0  0  0  0  0  0  0  0  0  0  0
   -3.7963    4.5120  -19.7829 F   0  0  0  0  0  0  0  0  0  0  0  0
   -4.8569    5.6209  -17.9205 C   0  0  0  0  0  0  0  0  0  0  0  0
   -4.6446    6.0948  -16.8724 O   0  0  0  0  0  0  0  0  0  0  0  0
   -6.1270    4.9087  -18.4653 N   0  0  0  0  0  0  0  0  0  0  0  0
   -7.2845    4.5723  -17.8417 C   0  0  0  0  0  0  0  0  0  0  0  0
   -8.3521    4.2583  -18.6349 N   0  0  0  0  0  0  0  0  0  0  0  0
   -9.3884    4.1450  -17.8357 C   0  0  0  0  0  0  0  0  0  0  0  0
   -9.0173    4.2682  -16.5359 N   0  0  0  0  0  0  0  0  0  0  0  0
   -7.6710    4.5120  -16.5338 C   0  0  0  0  0  0  0  0  0  0  0  0
   -7.0129    4.6068  -15.2988 N   0  0  0  0  0  0  0  0  0  0  0  0
   -5.9187    4.0514  -15.1678 O   0  0  0  0  0  0  0  0  0  0  0  0
   -7.6560    5.1904  -14.4210 O   0  0  0  0  0  0  0  0  0  0  0  0
  1  2  1  0
  2  3  1  0
  2  4  1  0
  2  5  1  0
  5  6  2  0
  5  7  1  0
  7  8  1  0
  8  9  1  0
  9 10  2  0
 10 11  1  0
 11 12  1  0
 12 13  1  0
 13 14  2  0
 13 15  1  0
 12  8  2  0
M  CHG  2  13   1  15  -1
M  END
>  <energy_score>  (2842) 
-36.930466

>  <alias>  (2842) 
None

>  <HIPPO Pose ID>  (2842) 
75724

>  <smiles>  (2842) 
CC(C)(F)C(=O)Nc1nc[nH]c1[N+](=O)[O-]

>  <inchikey>  (2842) 
FPQXUPAAMSYOBI-UHFFFAOYSA-N

>  <distance_score>  (2842) 
1.403059

>  <ref_mols>  (2842) 
Z0719a,Z1597a

>  <ref_pdb>  (2842) 
Z0719a

>  <HIPPO Compound ID>  (2842) 
150488

>  <name>  (2842) 
P75724

>  <inspiration_score>  (2842) 
None

$$$$
P75726
     RDKit          3D

 15 16  0  0  0  0  0  0  0  0999 V2000
   -2.3878    7.8212  -19.9988 C   0  0  0  0  0  0  0  0  0  0  0  0
   -3.4993    7.0977  -20.2162 C   0  0  0  0  0  0  0  0  0  0  0  0
   -4.9882    7.8998  -21.4089 I   0  0  0  0  0  0  0  0  0  0  0  0
   -3.6719    5.7229  -19.6334 C   0  0  0  0  0  0  0  0  0  0  0  0
   -4.6551    5.6873  -18.4703 C   0  0  0  0  0  0  0  0  0  0  0  0
   -4.3266    5.9954  -17.3881 O   0  0  0  0  0  0  0  0  0  0  0  0
   -6.0173    5.1323  -18.9946 N   0  0  0  0  0  0  0  0  0  0  0  0
   -7.1489    4.7769  -18.3178 C   0  0  0  0  0  0  0  0  0  0  0  0
   -8.3584    4.2586  -18.7603 C   0  0  0  0  0  0  0  0  0  0  0  0
   -9.2789    4.1178  -17.7329 N   0  0  0  0  0  0  0  0  0  0  0  0
   -8.6380    4.5814  -16.6964 C   0  0  0  0  0  0  0  0  0  0  0  0
   -7.3435    4.8719  -16.9905 N   0  0  0  0  0  0  0  0  0  0  0  0
   -6.5822    5.2630  -15.8306 C   0  0  0  0  0  0  0  0  0  0  0  0
   -7.5157    4.8764  -14.6843 C   0  0  0  0  0  0  0  0  0  0  0  0
   -8.9279    4.8893  -15.2903 C   0  0  0  0  0  0  0  0  0  0  0  0
  1  2  2  0
  2  3  1  0
  2  4  1  0
  4  5  1  0
  5  6  2  0
  5  7  1  0
  7  8  1  0
  8  9  2  0
  9 10  1  0
 10 11  2  0
 11 12  1  0
 12 13  1  0
 13 14  1  0
 14 15  1  0
 12  8  1  0
 15 11  1  0
M  END
>  <energy_score>  (2843) 
-28.492189

>  <alias>  (2843) 
None

>  <HIPPO Pose ID>  (2843) 
75726

>  <smiles>  (2843) 
C=C(I)CC(=O)Nc1cnc2n1CCC2

>  <inchikey>  (2843) 
RMTZJAWDBOXVNX-UHFFFAOYSA-N

>  <distance_score>  (2843) 
1.345335

>  <ref_mols>  (2843) 
Z0719a,Z1597a

>  <ref_pdb>  (2843) 
Z0719a

>  <HIPPO Compound ID>  (2843) 
150495

>  <name>  (2843) 
P75726

>  <inspiration_score>  (2843) 
None

$$$$
P75727
     RDKit          3D

 15 15  0  0  0  0  0  0  0  0999 V2000
   -2.8987    7.9833  -20.6476 C   0  0  0  0  0  0  0  0  0  0  0  0
   -4.1833    7.8955  -20.2664 C   0  0  0  0  0  0  0  0  0  0  0  0
   -5.2300    9.6424  -19.8107 I   0  0  0  0  0  0  0  0  0  0  0  0
   -4.9309    6.5980  -20.1605 C   0  0  0  0  0  0  0  0  0  0  0  0
   -5.2095    6.1956  -18.7114 C   0  0  0  0  0  0  0  0  0  0  0  0
   -4.3887    6.2698  -17.8772 O   0  0  0  0  0  0  0  0  0  0  0  0
   -6.6613    5.6196  -18.6548 N   0  0  0  0  0  0  0  0  0  0  0  0
   -7.3845    5.1349  -17.5980 C   0  0  0  0  0  0  0  0  0  0  0  0
   -8.6206    4.5225  -17.6201 C   0  0  0  0  0  0  0  0  0  0  0  0
   -9.5492    4.3314  -18.7342 C   0  0  0  0  0  0  0  0  0  0  0  0
   -8.9488    4.0180  -16.3911 N   0  0  0  0  0  0  0  0  0  0  0  0
   -7.9497    4.3376  -15.6018 C   0  0  0  0  0  0  0  0  0  0  0  0
   -7.7943    3.9218  -14.1873 C   0  0  0  0  0  0  0  0  0  0  0  0
   -7.0468    5.1316  -16.2704 N   0  0  0  0  0  0  0  0  0  0  0  0
   -6.0466    5.9179  -15.6158 C   0  0  0  0  0  0  0  0  0  0  0  0
  1  2  2  0
  2  3  1  0
  2  4  1  0
  4  5  1  0
  5  6  2  0
  5  7  1  0
  7  8  1  0
  8  9  2  0
  9 10  1  0
  9 11  1  0
 11 12  2  0
 12 13  1  0
 12 14  1  0
 14 15  1  0
 14  8  1  0
M  END
>  <energy_score>  (2844) 
-23.166904

>  <alias>  (2844) 
None

>  <HIPPO Pose ID>  (2844) 
75727

>  <smiles>  (2844) 
C=C(I)CC(=O)Nc1c(C)nc(C)n1C

>  <inchikey>  (2844) 
HCSFBDQENQNPPG-UHFFFAOYSA-N

>  <distance_score>  (2844) 
1.41741

>  <ref_mols>  (2844) 
Z0719a,Z1597a

>  <ref_pdb>  (2844) 
Z0719a

>  <HIPPO Compound ID>  (2844) 
150496

>  <name>  (2844) 
P75727

>  <inspiration_score>  (2844) 
None

$$$$
P75733
     RDKit          3D

 15 16  0  0  0  0  0  0  0  0999 V2000
   -4.6747    3.4656  -13.7493 C   0  0  0  0  0  0  0  0  0  0  0  0
   -6.1887    3.6993  -13.8690 C   0  0  0  0  0  0  0  0  0  0  0  0
   -6.9130    2.4582  -13.3608 C   0  0  0  0  0  0  0  0  0  0  0  0
   -6.6563    4.1451  -15.1854 N   0  0  0  0  0  0  0  0  0  0  0  0
   -7.9667    4.3729  -15.5360 C   0  0  0  0  0  0  0  0  0  0  0  0
   -8.0691    4.9414  -16.7187 N   0  0  0  0  0  0  0  0  0  0  0  0
   -6.7926    5.0663  -17.1626 C   0  0  0  0  0  0  0  0  0  0  0  0
   -6.5148    5.6763  -18.3384 N   0  0  0  0  0  0  0  0  0  0  0  0
   -5.1473    6.0568  -18.9826 C   0  0  0  0  0  0  0  0  0  0  0  0
   -4.0533    5.8311  -18.6299 O   0  0  0  0  0  0  0  0  0  0  0  0
   -5.4850    6.9282  -20.1916 C   0  0  0  0  0  0  0  0  0  0  0  0
   -4.2740    7.4274  -20.9304 C   0  0  0  0  0  0  0  0  0  0  0  0
   -4.4246    8.5158  -21.9623 C   0  0  0  0  0  0  0  0  0  0  0  0
   -3.7208    8.8041  -20.6651 C   0  0  0  0  0  0  0  0  0  0  0  0
   -5.9018    4.5796  -16.2443 C   0  0  0  0  0  0  0  0  0  0  0  0
  1  2  1  0
  2  3  1  0
  2  4  1  0
  4  5  1  0
  5  6  2  0
  6  7  1  0
  7  8  1  0
  8  9  1  0
  9 10  2  0
  9 11  1  0
 11 12  1  0
 12 13  1  0
 13 14  1  0
  7 15  2  0
 15  4  1  0
 14 12  1  0
M  END
>  <energy_score>  (2845) 
-14.957962

>  <alias>  (2845) 
None

>  <HIPPO Pose ID>  (2845) 
75733

>  <smiles>  (2845) 
CC(C)n1cnc(NC(=O)CC2CC2)c1

>  <inchikey>  (2845) 
PITHMUMFRVYTOL-UHFFFAOYSA-N

>  <distance_score>  (2845) 
1.861566

>  <ref_mols>  (2845) 
Z0719a,Z1597a

>  <ref_pdb>  (2845) 
Z0719a

>  <HIPPO Compound ID>  (2845) 
150513

>  <name>  (2845) 
P75733

>  <inspiration_score>  (2845) 
None

$$$$
P75734
     RDKit          3D

 15 17  0  0  0  0  0  0  0  0999 V2000
   -4.2051    6.2239  -17.5606 O   0  0  0  0  0  0  0  0  0  0  0  0
   -4.6524    6.0468  -18.6289 C   0  0  0  0  0  0  0  0  0  0  0  0
   -3.8671    6.3994  -19.8820 C   0  0  0  0  0  0  0  0  0  0  0  0
   -4.2381    7.7174  -20.4801 C   0  0  0  0  0  0  0  0  0  0  0  0
   -5.2717    7.8520  -21.5665 C   0  0  0  0  0  0  0  0  0  0  0  0
   -3.8167    8.0358  -21.8930 C   0  0  0  0  0  0  0  0  0  0  0  0
   -6.0005    5.3940  -19.0645 N   0  0  0  0  0  0  0  0  0  0  0  0
   -7.0498    4.9406  -18.3148 C   0  0  0  0  0  0  0  0  0  0  0  0
   -8.2345    4.3168  -18.6860 C   0  0  0  0  0  0  0  0  0  0  0  0
   -9.0055    3.9534  -17.5919 N   0  0  0  0  0  0  0  0  0  0  0  0
   -8.3016    4.3764  -16.5775 C   0  0  0  0  0  0  0  0  0  0  0  0
   -7.1523    4.9871  -16.9727 N   0  0  0  0  0  0  0  0  0  0  0  0
   -6.3835    5.5074  -15.8658 C   0  0  0  0  0  0  0  0  0  0  0  0
   -7.3940    5.4509  -14.7181 C   0  0  0  0  0  0  0  0  0  0  0  0
   -8.4115    4.3638  -15.1117 C   0  0  0  0  0  0  0  0  0  0  0  0
  1  2  2  0
  2  3  1  0
  3  4  1  0
  4  5  1  0
  5  6  1  0
  2  7  1  0
  7  8  1  0
  8  9  2  0
  9 10  1  0
 10 11  2  0
 11 12  1  0
 12 13  1  0
 13 14  1  0
 14 15  1  0
  6  4  1  0
 12  8  1  0
 15 11  1  0
M  END
>  <energy_score>  (2846) 
-9.289965

>  <alias>  (2846) 
None

>  <HIPPO Pose ID>  (2846) 
75734

>  <smiles>  (2846) 
O=C(CC1CC1)Nc1cnc2n1CCC2

>  <inchikey>  (2846) 
DMIJENNFHNRADE-UHFFFAOYSA-N

>  <distance_score>  (2846) 
1.229459

>  <ref_mols>  (2846) 
Z0719a,Z1597a

>  <ref_pdb>  (2846) 
Z0719a

>  <HIPPO Compound ID>  (2846) 
150516

>  <name>  (2846) 
P75734

>  <inspiration_score>  (2846) 
None

$$$$
P75737
     RDKit          3D

 15 16  0  0  0  0  0  0  0  0999 V2000
   -8.2470    7.3147  -11.9143 C   0  0  0  0  0  0  0  0  0  0  0  0
   -7.9264    5.8881  -11.7058 C   0  0  0  0  0  0  0  0  0  0  0  0
   -7.9510    5.3745  -10.4310 N   0  0  0  0  0  0  0  0  0  0  0  0
   -7.7212    4.0823  -10.5514 C   0  0  0  0  0  0  0  0  0  0  0  0
   -7.7393    3.1198   -9.4264 C   0  0  0  0  0  0  0  0  0  0  0  0
   -7.4535    3.7606  -11.8640 N   0  0  0  0  0  0  0  0  0  0  0  0
   -6.9169    2.5188  -12.3746 C   0  0  0  0  0  0  0  0  0  0  0  0
   -7.6452    4.8935  -12.6222 C   0  0  0  0  0  0  0  0  0  0  0  0
   -7.5486    4.8901  -13.9867 N   0  0  0  0  0  0  0  0  0  0  0  0
   -7.3930    6.0541  -14.9804 C   0  0  0  0  0  0  0  0  0  0  0  0
   -7.3993    7.2051  -14.8021 O   0  0  0  0  0  0  0  0  0  0  0  0
   -7.2824    5.4638  -16.3417 C   0  0  0  0  0  0  0  0  0  0  0  0
   -7.9780    4.4671  -16.9206 C   0  0  0  0  0  0  0  0  0  0  0  0
   -7.3271    4.6920  -18.2683 C   0  0  0  0  0  0  0  0  0  0  0  0
   -6.6304    5.9038  -17.6197 C   0  0  0  0  0  0  0  0  0  0  0  0
  1  2  1  0
  2  3  1  0
  3  4  2  0
  4  5  1  0
  4  6  1  0
  6  7  1  0
  6  8  1  0
  8  9  1  0
  9 10  1  0
 10 11  2  0
 10 12  1  0
 12 13  2  0
 13 14  1  0
 14 15  1  0
  8  2  2  0
 15 12  1  0
M  END
>  <energy_score>  (2847) 
-21.690276

>  <alias>  (2847) 
None

>  <HIPPO Pose ID>  (2847) 
75737

>  <smiles>  (2847) 
Cc1nc(C)n(C)c1NC(=O)C1=CCC1

>  <inchikey>  (2847) 
XJJGJIJEDFAVIG-UHFFFAOYSA-N

>  <distance_score>  (2847) 
1.427271

>  <ref_mols>  (2847) 
Z0719a,Z1597a

>  <ref_pdb>  (2847) 
Z0719a

>  <HIPPO Compound ID>  (2847) 
150520

>  <name>  (2847) 
P75737

>  <inspiration_score>  (2847) 
None

$$$$
P75744
     RDKit          3D

 15 16  0  0  0  0  0  0  0  0999 V2000
   -4.6613    4.6693  -12.7272 C   0  0  0  0  0  0  0  0  0  0  0  0
   -5.4082    5.8567  -12.0856 C   0  0  0  0  0  0  0  0  0  0  0  0
   -6.7121    5.4186  -11.5080 C   0  0  0  0  0  0  0  0  0  0  0  0
   -6.9347    5.4996  -10.1488 N   0  0  0  0  0  0  0  0  0  0  0  0
   -7.9072    4.6493   -9.9204 C   0  0  0  0  0  0  0  0  0  0  0  0
   -8.2920    4.0275  -11.0749 N   0  0  0  0  0  0  0  0  0  0  0  0
   -8.9137    2.7395  -11.1089 C   0  0  0  0  0  0  0  0  0  0  0  0
   -7.6964    4.6697  -12.1307 C   0  0  0  0  0  0  0  0  0  0  0  0
   -7.9025    4.4288  -13.4658 N   0  0  0  0  0  0  0  0  0  0  0  0
   -7.4006    5.2042  -14.7248 C   0  0  0  0  0  0  0  0  0  0  0  0
   -6.7994    6.2109  -14.8096 O   0  0  0  0  0  0  0  0  0  0  0  0
   -7.7196    4.3694  -15.9917 C   0  0  2  0  0  0  0  0  0  0  0  0
   -7.4842    4.9904  -17.3724 C   0  0  0  0  0  0  0  0  0  0  0  0
   -8.8684    4.4488  -17.6992 C   0  0  0  0  0  0  0  0  0  0  0  0
   -9.1233    4.1424  -16.2988 O   0  0  0  0  0  0  0  0  0  0  0  0
  1  2  1  0
  2  3  1  0
  3  4  1  0
  4  5  2  0
  5  6  1  0
  6  7  1  0
  6  8  1  0
  8  9  1  0
  9 10  1  0
 10 11  2  0
 12 10  1  1
 12 13  1  0
 13 14  1  0
 14 15  1  0
  8  3  2  0
 15 12  1  0
M  END
>  <energy_score>  (2848) 
-11.294283

>  <alias>  (2848) 
None

>  <HIPPO Pose ID>  (2848) 
75744

>  <smiles>  (2848) 
CCc1ncn(C)c1NC(=O)[C@@H]1CCO1

>  <inchikey>  (2848) 
FNHLUJBDIYOFKO-QMMMGPOBSA-N

>  <distance_score>  (2848) 
1.58804

>  <ref_mols>  (2848) 
Z0719a,Z1597a

>  <ref_pdb>  (2848) 
Z0719a

>  <HIPPO Compound ID>  (2848) 
150536

>  <name>  (2848) 
P75744

>  <inspiration_score>  (2848) 
None

$$$$
P75746
     RDKit          3D

 15 15  0  0  0  0  0  0  0  0999 V2000
   -5.8865    3.0496  -12.5388 C   0  0  0  0  0  0  0  0  0  0  0  0
   -6.1703    2.9940  -14.0220 C   0  0  0  0  0  0  0  0  0  0  0  0
   -7.3190    3.9261  -14.4231 C   0  0  0  0  0  0  0  0  0  0  0  0
   -7.5039    4.1978  -15.8340 N   0  0  0  0  0  0  0  0  0  0  0  0
   -8.7013    4.2332  -16.4895 C   0  0  0  0  0  0  0  0  0  0  0  0
   -8.5774    4.7616  -17.6864 N   0  0  0  0  0  0  0  0  0  0  0  0
   -7.2704    5.1113  -17.7899 C   0  0  0  0  0  0  0  0  0  0  0  0
   -6.8146    5.8255  -18.8433 N   0  0  0  0  0  0  0  0  0  0  0  0
   -5.3766    6.3040  -19.1923 C   0  0  0  0  0  0  0  0  0  0  0  0
   -4.3806    6.2196  -18.5834 O   0  0  0  0  0  0  0  0  0  0  0  0
   -5.4777    7.0549  -20.5138 C   0  0  0  0  0  0  0  0  0  0  0  0
   -4.1147    7.2533  -21.1635 C   0  0  0  0  0  0  0  0  0  0  0  0
   -3.6062    8.5805  -20.9810 O   0  0  0  0  0  0  0  0  0  0  0  0
   -3.0933    8.8098  -19.6745 C   0  0  0  0  0  0  0  0  0  0  0  0
   -6.5726    4.7474  -16.6711 C   0  0  0  0  0  0  0  0  0  0  0  0
  1  2  1  0
  2  3  1  0
  3  4  1  0
  4  5  1  0
  5  6  2  0
  6  7  1  0
  7  8  1  0
  8  9  1  0
  9 10  2  0
  9 11  1  0
 11 12  1  0
 12 13  1  0
 13 14  1  0
  7 15  2  0
 15  4  1  0
M  END
>  <energy_score>  (2849) 
-22.395702

>  <alias>  (2849) 
None

>  <HIPPO Pose ID>  (2849) 
75746

>  <smiles>  (2849) 
CCCn1cnc(NC(=O)CCOC)c1

>  <inchikey>  (2849) 
JPOUVTVKGGOQBB-UHFFFAOYSA-N

>  <distance_score>  (2849) 
1.786406

>  <ref_mols>  (2849) 
Z0719a,Z1597a

>  <ref_pdb>  (2849) 
Z0719a

>  <HIPPO Compound ID>  (2849) 
150537

>  <name>  (2849) 
P75746

>  <inspiration_score>  (2849) 
None

$$$$
P75754
     RDKit          3D

 15 16  0  0  0  0  0  0  0  0999 V2000
   -8.2305    7.2226  -11.3920 C   0  0  0  0  0  0  0  0  0  0  0  0
   -7.9234    5.7840  -11.2505 C   0  0  0  0  0  0  0  0  0  0  0  0
   -7.8063    5.2322   -9.9983 N   0  0  0  0  0  0  0  0  0  0  0  0
   -7.6285    3.9386  -10.1856 C   0  0  0  0  0  0  0  0  0  0  0  0
   -7.5656    2.9325   -9.1070 C   0  0  0  0  0  0  0  0  0  0  0  0
   -7.5036    3.6561  -11.5253 N   0  0  0  0  0  0  0  0  0  0  0  0
   -6.9529    2.4664  -12.1368 C   0  0  0  0  0  0  0  0  0  0  0  0
   -7.8136    4.8008  -12.2114 C   0  0  0  0  0  0  0  0  0  0  0  0
   -7.9704    4.8300  -13.5613 N   0  0  0  0  0  0  0  0  0  0  0  0
   -7.9788    6.0072  -14.5342 C   0  0  0  0  0  0  0  0  0  0  0  0
   -7.7769    7.1367  -14.3524 O   0  0  0  0  0  0  0  0  0  0  0  0
   -8.4106    5.5890  -15.8787 C   0  0  1  0  0  0  0  0  0  0  0  0
   -7.3722    5.6387  -16.9891 C   0  0  0  0  0  0  0  0  0  0  0  0
   -8.0305    4.3530  -16.6141 C   0  0  2  0  0  0  0  0  0  0  0  0
   -9.2049    3.7092  -17.7409 Cl  0  0  0  0  0  0  0  0  0  0  0  0
  1  2  1  0
  2  3  1  0
  3  4  2  0
  4  5  1  0
  4  6  1  0
  6  7  1  0
  6  8  1  0
  8  9  1  0
  9 10  1  0
 10 11  2  0
 12 10  1  1
 12 13  1  0
 13 14  1  0
 14 15  1  6
  8  2  2  0
 14 12  1  0
M  END
>  <energy_score>  (2850) 
-13.659119

>  <alias>  (2850) 
None

>  <HIPPO Pose ID>  (2850) 
75754

>  <smiles>  (2850) 
Cc1nc(C)n(C)c1NC(=O)[C@H]1C[C@@H]1Cl

>  <inchikey>  (2850) 
IYJRFOUPELERCE-YUMQZZPRSA-N

>  <distance_score>  (2850) 
1.381615

>  <ref_mols>  (2850) 
Z0719a,Z1597a

>  <ref_pdb>  (2850) 
Z0719a

>  <HIPPO Compound ID>  (2850) 
150549

>  <name>  (2850) 
P75754

>  <inspiration_score>  (2850) 
None

$$$$
P75761
     RDKit          3D

 15 15  0  0  0  0  0  0  0  0999 V2000
   -5.4704    5.1232  -14.3516 C   0  0  0  0  0  0  0  0  0  0  0  0
   -6.3627    6.0106  -15.1890 C   0  0  0  0  0  0  0  0  0  0  0  0
   -7.2286    5.2553  -16.0481 N   0  0  0  0  0  0  0  0  0  0  0  0
   -8.3956    4.6850  -15.5808 C   0  0  0  0  0  0  0  0  0  0  0  0
   -8.7439    4.6082  -14.1414 C   0  0  0  0  0  0  0  0  0  0  0  0
   -9.1254    4.2428  -16.5748 N   0  0  0  0  0  0  0  0  0  0  0  0
   -8.3949    4.5016  -17.6997 C   0  0  0  0  0  0  0  0  0  0  0  0
   -8.9445    4.1139  -18.9960 C   0  0  0  0  0  0  0  0  0  0  0  0
   -7.1673    5.0599  -17.4017 C   0  0  0  0  0  0  0  0  0  0  0  0
   -6.1661    5.3116  -18.3053 N   0  0  0  0  0  0  0  0  0  0  0  0
   -4.6976    5.7793  -18.0830 C   0  0  0  0  0  0  0  0  0  0  0  0
   -4.1426    6.0948  -17.1025 O   0  0  0  0  0  0  0  0  0  0  0  0
   -4.0090    5.7759  -19.4407 C   0  0  0  0  0  0  0  0  0  0  0  0
   -4.4850    6.8839  -20.3710 C   0  0  0  0  0  0  0  0  0  0  0  0
   -3.9336    8.5316  -19.8214 S   0  0  0  0  0  0  0  0  0  0  0  0
  1  2  1  0
  2  3  1  0
  3  4  1  0
  4  5  1  0
  4  6  2  0
  6  7  1  0
  7  8  1  0
  7  9  2  0
  9 10  1  0
 10 11  1  0
 11 12  2  0
 11 13  1  0
 13 14  1  0
 14 15  1  0
  9  3  1  0
M  END
>  <energy_score>  (2851) 
-27.887764

>  <alias>  (2851) 
None

>  <HIPPO Pose ID>  (2851) 
75761

>  <smiles>  (2851) 
CCn1c(C)nc(C)c1NC(=O)CCS

>  <inchikey>  (2851) 
JYMSSPFLXQOKNW-UHFFFAOYSA-N

>  <distance_score>  (2851) 
1.378635

>  <ref_mols>  (2851) 
Z0719a,Z1597a

>  <ref_pdb>  (2851) 
Z0719a

>  <HIPPO Compound ID>  (2851) 
150573

>  <name>  (2851) 
P75761

>  <inspiration_score>  (2851) 
None

$$$$
P75764
     RDKit          3D

 15 16  0  0  0  0  0  0  0  0999 V2000
   -8.8081    2.6884  -10.9117 C   0  0  0  0  0  0  0  0  0  0  0  0
   -8.2439    4.0035  -10.9531 N   0  0  0  0  0  0  0  0  0  0  0  0
   -7.8202    4.7028   -9.8531 C   0  0  0  0  0  0  0  0  0  0  0  0
   -7.0006    5.6772  -10.1896 N   0  0  0  0  0  0  0  0  0  0  0  0
   -6.9297    5.5995  -11.5613 C   0  0  0  0  0  0  0  0  0  0  0  0
   -5.8151    6.0684  -12.3346 C   0  0  0  0  0  0  0  0  0  0  0  0
   -4.9236    6.1995  -13.0705 N   0  0  0  0  0  0  0  0  0  0  0  0
   -7.8130    4.6673  -12.0676 C   0  0  0  0  0  0  0  0  0  0  0  0
   -8.0177    4.3457  -13.3801 N   0  0  0  0  0  0  0  0  0  0  0  0
   -7.8132    5.1848  -14.6626 C   0  0  0  0  0  0  0  0  0  0  0  0
   -7.5125    6.3041  -14.7937 O   0  0  0  0  0  0  0  0  0  0  0  0
   -7.9437    4.3459  -15.8760 C   0  0  2  0  0  0  0  0  0  0  0  0
   -6.8268    4.4329  -16.9052 C   0  0  0  0  0  0  0  0  0  0  0  0
   -8.1810    4.9495  -17.2243 C   0  0  1  0  0  0  0  0  0  0  0  0
   -9.2641    4.0866  -18.2722 Cl  0  0  0  0  0  0  0  0  0  0  0  0
  1  2  1  0
  2  3  1  0
  3  4  2  0
  4  5  1  0
  5  6  1  0
  6  7  3  0
  5  8  2  0
  8  9  1  0
  9 10  1  0
 10 11  2  0
 12 10  1  1
 12 13  1  0
 13 14  1  0
 14 15  1  6
  8  2  1  0
 14 12  1  0
M  END
>  <energy_score>  (2852) 
-9.655046

>  <alias>  (2852) 
None

>  <HIPPO Pose ID>  (2852) 
75764

>  <smiles>  (2852) 
Cn1cnc(C#N)c1NC(=O)[C@@H]1C[C@H]1Cl

>  <inchikey>  (2852) 
WWNDYWIXLRDHNP-PHDIDXHHSA-N

>  <distance_score>  (2852) 
1.25927

>  <ref_mols>  (2852) 
Z0719a,Z1597a

>  <ref_pdb>  (2852) 
Z0719a

>  <HIPPO Compound ID>  (2852) 
150579

>  <name>  (2852) 
P75764

>  <inspiration_score>  (2852) 
None

$$$$
P75766
     RDKit          3D

 15 16  0  0  0  0  0  0  0  0999 V2000
   -6.2041    4.6644   -8.6381 C   0  0  0  0  0  0  0  0  0  0  0  0
   -7.2428    5.5078   -9.3785 C   0  0  0  0  0  0  0  0  0  0  0  0
   -8.3647    5.9396   -8.4430 C   0  0  0  0  0  0  0  0  0  0  0  0
   -7.7525    4.8478  -10.5662 N   0  0  0  0  0  0  0  0  0  0  0  0
   -8.1737    3.5541  -10.6773 C   0  0  0  0  0  0  0  0  0  0  0  0
   -8.5036    3.2735  -11.9170 N   0  0  0  0  0  0  0  0  0  0  0  0
   -8.3033    4.4216  -12.6225 C   0  0  0  0  0  0  0  0  0  0  0  0
   -8.5767    4.4530  -13.9497 N   0  0  0  0  0  0  0  0  0  0  0  0
   -8.3421    5.5619  -14.9948 C   0  0  0  0  0  0  0  0  0  0  0  0
   -7.9477    6.6514  -14.8652 O   0  0  0  0  0  0  0  0  0  0  0  0
   -8.8101    5.1073  -16.3360 C   0  0  2  0  0  0  0  0  0  0  0  0
   -8.1398    3.9502  -17.0031 C   0  0  0  0  0  0  0  0  0  0  0  0
   -8.0514    5.2855  -17.6316 C   0  0  2  0  0  0  0  0  0  0  0  0
   -6.5025    6.0269  -17.7644 Cl  0  0  0  0  0  0  0  0  0  0  0  0
   -7.8494    5.4248  -11.8073 C   0  0  0  0  0  0  0  0  0  0  0  0
  1  2  1  0
  2  3  1  0
  2  4  1  0
  4  5  1  0
  5  6  2  0
  6  7  1  0
  7  8  1  0
  8  9  1  0
  9 10  2  0
 11  9  1  1
 11 12  1  0
 12 13  1  0
 13 14  1  1
  7 15  2  0
 15  4  1  0
 13 11  1  0
M  END
>  <energy_score>  (2853) 
-29.860142

>  <alias>  (2853) 
None

>  <HIPPO Pose ID>  (2853) 
75766

>  <smiles>  (2853) 
CC(C)n1cnc(NC(=O)[C@@H]2C[C@@H]2Cl)c1

>  <inchikey>  (2853) 
JFVHNWSIRGCGLF-SFYZADRCSA-N

>  <distance_score>  (2853) 
1.350024

>  <ref_mols>  (2853) 
Z0719a,Z1597a

>  <ref_pdb>  (2853) 
Z0719a

>  <HIPPO Compound ID>  (2853) 
150580

>  <name>  (2853) 
P75766

>  <inspiration_score>  (2853) 
None

$$$$
P75768
     RDKit          3D

 15 16  0  0  0  0  0  0  0  0999 V2000
   -6.7972    4.3193   -9.0973 C   0  0  0  0  0  0  0  0  0  0  0  0
   -7.4738    3.9545  -10.3066 N   0  0  0  0  0  0  0  0  0  0  0  0
   -8.6178    3.2152  -10.3913 C   0  0  0  0  0  0  0  0  0  0  0  0
   -9.0804    3.2038  -11.6227 N   0  0  0  0  0  0  0  0  0  0  0  0
   -8.2024    3.9477  -12.3373 C   0  0  0  0  0  0  0  0  0  0  0  0
   -8.4071    4.2533  -13.6380 N   0  0  0  0  0  0  0  0  0  0  0  0
   -7.9036    5.4382  -14.4757 C   0  0  0  0  0  0  0  0  0  0  0  0
   -7.1701    6.2993  -14.2010 O   0  0  0  0  0  0  0  0  0  0  0  0
   -8.4328    5.4011  -15.8508 C   0  0  1  0  0  0  0  0  0  0  0  0
   -7.4320    5.5833  -16.9900 C   0  0  0  0  0  0  0  0  0  0  0  0
   -8.1079    4.2759  -16.7714 C   0  0  2  0  0  0  0  0  0  0  0  0
   -9.3261    3.7739  -17.9067 Cl  0  0  0  0  0  0  0  0  0  0  0  0
   -7.1103    4.2818  -11.5825 C   0  0  0  0  0  0  0  0  0  0  0  0
   -5.8458    4.6636  -12.0944 C   0  0  0  0  0  0  0  0  0  0  0  0
   -4.8374    4.8494  -12.6384 N   0  0  0  0  0  0  0  0  0  0  0  0
  1  2  1  0
  2  3  1  0
  3  4  2  0
  4  5  1  0
  5  6  1  0
  6  7  1  0
  7  8  2  0
  9  7  1  1
  9 10  1  0
 10 11  1  0
 11 12  1  6
  5 13  2  0
 13 14  1  0
 14 15  3  0
 13  2  1  0
 11  9  1  0
M  END
>  <energy_score>  (2854) 
-10.441752

>  <alias>  (2854) 
None

>  <HIPPO Pose ID>  (2854) 
75768

>  <smiles>  (2854) 
Cn1cnc(NC(=O)[C@H]2C[C@@H]2Cl)c1C#N

>  <inchikey>  (2854) 
RTRMNVCXOIWOQT-WDSKDSINSA-N

>  <distance_score>  (2854) 
1.250379

>  <ref_mols>  (2854) 
Z0719a,Z1597a

>  <ref_pdb>  (2854) 
Z0719a

>  <HIPPO Compound ID>  (2854) 
150582

>  <name>  (2854) 
P75768

>  <inspiration_score>  (2854) 
None

$$$$
P75771
     RDKit          3D

 15 16  0  0  0  0  0  0  0  0999 V2000
   -4.5779    4.5318  -12.5286 C   0  0  0  0  0  0  0  0  0  0  0  0
   -5.2940    5.7153  -11.8465 C   0  0  0  0  0  0  0  0  0  0  0  0
   -6.6143    5.2980  -11.2908 C   0  0  0  0  0  0  0  0  0  0  0  0
   -6.8576    5.3645   -9.9350 N   0  0  0  0  0  0  0  0  0  0  0  0
   -7.8632    4.5450   -9.7351 C   0  0  0  0  0  0  0  0  0  0  0  0
   -8.2590    3.9655  -10.9062 N   0  0  0  0  0  0  0  0  0  0  0  0
   -8.9409    2.7118  -10.9909 C   0  0  0  0  0  0  0  0  0  0  0  0
   -7.6141    4.5940  -11.9369 C   0  0  0  0  0  0  0  0  0  0  0  0
   -7.8238    4.3937  -13.2743 N   0  0  0  0  0  0  0  0  0  0  0  0
   -7.2946    5.1681  -14.4972 C   0  0  0  0  0  0  0  0  0  0  0  0
   -6.6599    6.1438  -14.5569 O   0  0  0  0  0  0  0  0  0  0  0  0
   -7.5946    4.4538  -15.7651 C   0  0  2  0  0  0  0  0  0  0  0  0
   -7.3448    5.2140  -17.0555 C   0  0  0  0  0  0  0  0  0  0  0  0
   -8.7380    4.8543  -16.6336 C   0  0  1  0  0  0  0  0  0  0  0  0
   -9.5579    3.7666  -17.7008 Cl  0  0  0  0  0  0  0  0  0  0  0  0
  1  2  1  0
  2  3  1  0
  3  4  1  0
  4  5  2  0
  5  6  1  0
  6  7  1  0
  6  8  1  0
  8  9  1  0
  9 10  1  0
 10 11  2  0
 12 10  1  1
 12 13  1  0
 13 14  1  0
 14 15  1  6
  8  3  2  0
 14 12  1  0
M  END
>  <energy_score>  (2855) 
-15.653914

>  <alias>  (2855) 
None

>  <HIPPO Pose ID>  (2855) 
75771

>  <smiles>  (2855) 
CCc1ncn(C)c1NC(=O)[C@@H]1C[C@H]1Cl

>  <inchikey>  (2855) 
UIJXMEWTLGMZMD-RNFRBKRXSA-N

>  <distance_score>  (2855) 
1.40995

>  <ref_mols>  (2855) 
Z0719a,Z1597a

>  <ref_pdb>  (2855) 
Z0719a

>  <HIPPO Compound ID>  (2855) 
150583

>  <name>  (2855) 
P75771

>  <inspiration_score>  (2855) 
None

$$$$
P75774
     RDKit          3D

 15 15  0  0  0  0  0  0  0  0999 V2000
   -5.1936    2.6663  -13.5210 C   0  0  0  0  0  0  0  0  0  0  0  0
   -6.2749    3.7039  -13.3124 C   0  0  0  0  0  0  0  0  0  0  0  0
   -7.4728    3.5852  -14.2783 C   0  0  0  0  0  0  0  0  0  0  0  0
   -7.3641    4.1608  -15.6019 N   0  0  0  0  0  0  0  0  0  0  0  0
   -8.3949    4.3044  -16.4923 C   0  0  0  0  0  0  0  0  0  0  0  0
   -7.9696    4.7809  -17.6443 N   0  0  0  0  0  0  0  0  0  0  0  0
   -6.6379    4.9783  -17.4744 C   0  0  0  0  0  0  0  0  0  0  0  0
   -5.8285    5.4013  -18.4704 N   0  0  0  0  0  0  0  0  0  0  0  0
   -4.3704    5.9490  -18.4251 C   0  0  0  0  0  0  0  0  0  0  0  0
   -3.6234    6.0440  -17.5286 O   0  0  0  0  0  0  0  0  0  0  0  0
   -3.9602    6.2875  -19.8635 C   0  0  1  0  0  0  0  0  0  0  0  0
   -4.7642    7.4446  -20.4434 C   0  0  0  0  0  0  0  0  0  0  0  0
   -2.4625    6.6096  -19.9677 C   0  0  0  0  0  0  0  0  0  0  0  0
   -1.4659    5.0850  -20.0363 S   0  0  0  0  0  0  0  0  0  0  0  0
   -6.2504    4.6619  -16.2034 C   0  0  0  0  0  0  0  0  0  0  0  0
  1  2  1  0
  2  3  1  0
  3  4  1  0
  4  5  1  0
  5  6  2  0
  6  7  1  0
  7  8  1  0
  8  9  1  0
  9 10  2  0
  9 11  1  0
 11 12  1  1
 11 13  1  0
 13 14  1  0
  7 15  2  0
 15  4  1  0
M  END
>  <energy_score>  (2856) 
-3.713988

>  <alias>  (2856) 
None

>  <HIPPO Pose ID>  (2856) 
75774

>  <smiles>  (2856) 
CCCn1cnc(NC(=O)[C@@H](C)CS)c1

>  <inchikey>  (2856) 
XBPORTWJZSUDEU-QMMMGPOBSA-N

>  <distance_score>  (2856) 
1.61348

>  <ref_mols>  (2856) 
Z0719a,Z1597a

>  <ref_pdb>  (2856) 
Z0719a

>  <HIPPO Compound ID>  (2856) 
150586

>  <name>  (2856) 
P75774

>  <inspiration_score>  (2856) 
None

$$$$
P75780
     RDKit          3D

 15 15  0  0  0  0  0  0  0  0999 V2000
   -5.0259    9.9534  -20.1440 C   0  0  0  0  0  0  0  0  0  0  0  0
   -5.4283    8.9567  -19.1063 C   0  0  0  0  0  0  0  0  0  0  0  0
   -5.3715    7.6160  -19.2221 C   0  0  0  0  0  0  0  0  0  0  0  0
   -4.8153    6.8574  -20.3834 C   0  0  0  0  0  0  0  0  0  0  0  0
   -5.8093    6.8302  -18.0186 C   0  0  0  0  0  0  0  0  0  0  0  0
   -5.3366    7.0127  -16.9684 O   0  0  0  0  0  0  0  0  0  0  0  0
   -6.9609    5.8971  -18.4490 N   0  0  0  0  0  0  0  0  0  0  0  0
   -7.7838    5.1126  -17.7078 C   0  0  0  0  0  0  0  0  0  0  0  0
   -8.9889    4.7951  -18.2604 N   0  0  0  0  0  0  0  0  0  0  0  0
   -9.6901    4.2297  -17.3074 C   0  0  0  0  0  0  0  0  0  0  0  0
   -8.9499    4.0652  -16.1777 N   0  0  0  0  0  0  0  0  0  0  0  0
   -7.7219    4.6006  -16.4415 C   0  0  0  0  0  0  0  0  0  0  0  0
   -6.6800    4.4379  -15.5147 N   0  0  0  0  0  0  0  0  0  0  0  0
   -6.9938    4.3251  -14.3244 O   0  0  0  0  0  0  0  0  0  0  0  0
   -5.5480    4.3238  -15.9788 O   0  0  0  0  0  0  0  0  0  0  0  0
  1  2  1  0
  2  3  2  0
  3  4  1  0
  3  5  1  0
  5  6  2  0
  5  7  1  0
  7  8  1  0
  8  9  1  0
  9 10  2  0
 10 11  1  0
 11 12  1  0
 12 13  1  0
 13 14  2  0
 13 15  1  0
 12  8  2  0
M  CHG  2  13   1  15  -1
M  END
>  <energy_score>  (2857) 
-40.235582

>  <alias>  (2857) 
None

>  <HIPPO Pose ID>  (2857) 
75780

>  <smiles>  (2857) 
C/C=C(\C)C(=O)Nc1nc[nH]c1[N+](=O)[O-]

>  <inchikey>  (2857) 
ZKQGMWVDPVOOHP-HWKANZROSA-N

>  <distance_score>  (2857) 
1.874469

>  <ref_mols>  (2857) 
Z0719a,Z1597a

>  <ref_pdb>  (2857) 
Z0719a

>  <HIPPO Compound ID>  (2857) 
150594

>  <name>  (2857) 
P75780

>  <inspiration_score>  (2857) 
None

$$$$
P75781
     RDKit          3D

 15 16  0  0  0  0  0  0  0  0999 V2000
   -9.4866    4.0174  -17.4628 C   0  0  0  0  0  0  0  0  0  0  0  0
   -8.4067    4.3034  -16.4702 C   0  0  1  0  0  0  0  0  0  0  0  0
   -7.4790    5.4185  -16.8120 C   0  0  0  0  0  0  0  0  0  0  0  0
   -8.4625    5.5506  -15.6417 C   0  0  2  0  0  0  0  0  0  0  0  0
   -7.7865    5.8313  -14.3542 C   0  0  0  0  0  0  0  0  0  0  0  0
   -7.1034    6.7738  -14.3283 O   0  0  0  0  0  0  0  0  0  0  0  0
   -8.0478    4.7587  -13.2821 N   0  0  0  0  0  0  0  0  0  0  0  0
   -7.6191    4.6760  -11.9868 C   0  0  0  0  0  0  0  0  0  0  0  0
   -6.4882    5.2514  -11.4440 C   0  0  0  0  0  0  0  0  0  0  0  0
   -5.3386    5.5562  -12.2489 C   0  0  0  0  0  0  0  0  0  0  0  0
   -4.4751    5.5832  -13.0280 N   0  0  0  0  0  0  0  0  0  0  0  0
   -6.4443    5.0976  -10.0788 N   0  0  0  0  0  0  0  0  0  0  0  0
   -7.4349    4.2713   -9.8169 C   0  0  0  0  0  0  0  0  0  0  0  0
   -8.0853    3.8990  -10.9646 N   0  0  0  0  0  0  0  0  0  0  0  0
   -8.8625    2.7065  -11.0950 C   0  0  0  0  0  0  0  0  0  0  0  0
  2  1  1  6
  2  3  1  0
  3  4  1  0
  4  5  1  1
  5  6  2  0
  5  7  1  0
  7  8  1  0
  8  9  2  0
  9 10  1  0
 10 11  3  0
  9 12  1  0
 12 13  2  0
 13 14  1  0
 14 15  1  0
  4  2  1  0
 14  8  1  0
M  END
>  <energy_score>  (2858) 
-0.961885

>  <alias>  (2858) 
None

>  <HIPPO Pose ID>  (2858) 
75781

>  <smiles>  (2858) 
C[C@H]1C[C@@H]1C(=O)Nc1c(C#N)ncn1C

>  <inchikey>  (2858) 
NLOIZCDPYUFHAG-BQBZGAKWSA-N

>  <distance_score>  (2858) 
1.701864

>  <ref_mols>  (2858) 
Z0719a,Z1597a

>  <ref_pdb>  (2858) 
Z0719a

>  <HIPPO Compound ID>  (2858) 
150596

>  <name>  (2858) 
P75781

>  <inspiration_score>  (2858) 
None

$$$$
P75782
     RDKit          3D

 15 16  0  0  0  0  0  0  0  0999 V2000
   -6.4574    5.2739   -8.4624 C   0  0  0  0  0  0  0  0  0  0  0  0
   -7.8836    5.4235   -8.9921 C   0  0  0  0  0  0  0  0  0  0  0  0
   -8.2780    6.9009   -9.0679 C   0  0  0  0  0  0  0  0  0  0  0  0
   -8.0423    4.7164  -10.2488 N   0  0  0  0  0  0  0  0  0  0  0  0
   -8.4526    3.4187  -10.3787 C   0  0  0  0  0  0  0  0  0  0  0  0
   -8.5032    3.0628  -11.6412 N   0  0  0  0  0  0  0  0  0  0  0  0
   -8.0886    4.1528  -12.3386 C   0  0  0  0  0  0  0  0  0  0  0  0
   -7.9982    4.1043  -13.6855 N   0  0  0  0  0  0  0  0  0  0  0  0
   -7.3976    5.1066  -14.6821 C   0  0  0  0  0  0  0  0  0  0  0  0
   -6.9532    6.1700  -14.5096 O   0  0  0  0  0  0  0  0  0  0  0  0
   -7.4009    4.5105  -16.0497 C   0  0  1  0  0  0  0  0  0  0  0  0
   -8.6555    4.6008  -16.8823 C   0  0  0  0  0  0  0  0  0  0  0  0
   -7.4373    5.3777  -17.2874 C   0  0  2  0  0  0  0  0  0  0  0  0
   -6.7315    4.9793  -18.5351 C   0  0  0  0  0  0  0  0  0  0  0  0
   -7.7893    5.1970  -11.5034 C   0  0  0  0  0  0  0  0  0  0  0  0
  1  2  1  0
  2  3  1  0
  2  4  1  0
  4  5  1  0
  5  6  2  0
  6  7  1  0
  7  8  1  0
  8  9  1  0
  9 10  2  0
 11  9  1  1
 11 12  1  0
 12 13  1  0
 13 14  1  6
  7 15  2  0
 15  4  1  0
 13 11  1  0
M  END
>  <energy_score>  (2859) 
-39.959959

>  <alias>  (2859) 
None

>  <HIPPO Pose ID>  (2859) 
75782

>  <smiles>  (2859) 
CC(C)n1cnc(NC(=O)[C@H]2C[C@@H]2C)c1

>  <inchikey>  (2859) 
KOGLJXQIYIVSKY-IUCAKERBSA-N

>  <distance_score>  (2859) 
1.649346

>  <ref_mols>  (2859) 
Z0719a,Z1597a

>  <ref_pdb>  (2859) 
Z0719a

>  <HIPPO Compound ID>  (2859) 
150597

>  <name>  (2859) 
P75782

>  <inspiration_score>  (2859) 
None

$$$$
P75786
     RDKit          3D

 15 16  0  0  0  0  0  0  0  0999 V2000
   -8.1953    7.1608  -12.0801 C   0  0  0  0  0  0  0  0  0  0  0  0
   -7.8769    5.7637  -11.7206 C   0  0  0  0  0  0  0  0  0  0  0  0
   -7.9913    5.3656  -10.4084 N   0  0  0  0  0  0  0  0  0  0  0  0
   -7.7316    4.0734  -10.3931 C   0  0  0  0  0  0  0  0  0  0  0  0
   -7.8187    3.2079   -9.1964 C   0  0  0  0  0  0  0  0  0  0  0  0
   -7.3547    3.6443  -11.6436 N   0  0  0  0  0  0  0  0  0  0  0  0
   -6.7731    2.3718  -12.0056 C   0  0  0  0  0  0  0  0  0  0  0  0
   -7.5138    4.6945  -12.5162 C   0  0  0  0  0  0  0  0  0  0  0  0
   -7.3196    4.5429  -13.8602 N   0  0  0  0  0  0  0  0  0  0  0  0
   -7.2717    5.5838  -14.9824 C   0  0  0  0  0  0  0  0  0  0  0  0
   -7.3131    6.7460  -14.9365 O   0  0  0  0  0  0  0  0  0  0  0  0
   -7.2403    4.8788  -16.3077 C   0  0  2  0  0  0  0  0  0  0  0  0
   -7.2642    5.6903  -17.5741 C   0  0  0  0  0  0  0  0  0  0  0  0
   -8.5055    4.9490  -17.1382 C   0  0  1  0  0  0  0  0  0  0  0  0
   -9.0176    3.8907  -18.0338 C   0  0  0  0  0  0  0  0  0  0  0  0
  1  2  1  0
  2  3  1  0
  3  4  2  0
  4  5  1  0
  4  6  1  0
  6  7  1  0
  6  8  1  0
  8  9  1  0
  9 10  1  0
 10 11  2  0
 12 10  1  1
 12 13  1  0
 13 14  1  0
 14 15  1  6
  8  2  2  0
 14 12  1  0
M  END
>  <energy_score>  (2860) 
-26.741565

>  <alias>  (2860) 
None

>  <HIPPO Pose ID>  (2860) 
75786

>  <smiles>  (2860) 
Cc1nc(C)n(C)c1NC(=O)[C@@H]1C[C@H]1C

>  <inchikey>  (2860) 
JVLBAFYPXKFTFZ-HZGVNTEJSA-N

>  <distance_score>  (2860) 
1.315847

>  <ref_mols>  (2860) 
Z0719a,Z1597a

>  <ref_pdb>  (2860) 
Z0719a

>  <HIPPO Compound ID>  (2860) 
150601

>  <name>  (2860) 
P75786

>  <inspiration_score>  (2860) 
None

$$$$
P75790
     RDKit          3D

 15 16  0  0  0  0  0  0  0  0999 V2000
   -9.0606    4.4715  -18.4350 C   0  0  0  0  0  0  0  0  0  0  0  0
   -8.1279    5.0514  -17.4222 C   0  0  2  0  0  0  0  0  0  0  0  0
   -6.8047    4.4154  -17.1497 C   0  0  0  0  0  0  0  0  0  0  0  0
   -7.9400    4.2803  -16.1519 C   0  0  1  0  0  0  0  0  0  0  0  0
   -7.7719    4.8994  -14.8098 C   0  0  0  0  0  0  0  0  0  0  0  0
   -7.2402    5.9332  -14.7190 O   0  0  0  0  0  0  0  0  0  0  0  0
   -8.2862    3.9406  -13.7176 N   0  0  0  0  0  0  0  0  0  0  0  0
   -8.1769    4.0030  -12.3725 C   0  0  0  0  0  0  0  0  0  0  0  0
   -8.9827    3.2536  -11.5757 N   0  0  0  0  0  0  0  0  0  0  0  0
   -8.6006    3.5196  -10.3470 C   0  0  0  0  0  0  0  0  0  0  0  0
   -7.5797    4.4256  -10.3383 N   0  0  0  0  0  0  0  0  0  0  0  0
   -6.9914    5.0068   -9.1671 C   0  0  0  0  0  0  0  0  0  0  0  0
   -7.2086    4.6349  -11.6387 C   0  0  0  0  0  0  0  0  0  0  0  0
   -5.9845    5.1295  -12.1521 C   0  0  0  0  0  0  0  0  0  0  0  0
   -4.9745    5.3859  -12.6627 N   0  0  0  0  0  0  0  0  0  0  0  0
  2  1  1  6
  2  3  1  0
  3  4  1  0
  4  5  1  1
  5  6  2  0
  5  7  1  0
  7  8  1  0
  8  9  1  0
  9 10  2  0
 10 11  1  0
 11 12  1  0
 11 13  1  0
 13 14  1  0
 14 15  3  0
  4  2  1  0
 13  8  2  0
M  END
>  <energy_score>  (2861) 
-15.335734

>  <alias>  (2861) 
None

>  <HIPPO Pose ID>  (2861) 
75790

>  <smiles>  (2861) 
C[C@@H]1C[C@H]1C(=O)Nc1ncn(C)c1C#N

>  <inchikey>  (2861) 
YASGPLAXMUJIFT-RNFRBKRXSA-N

>  <distance_score>  (2861) 
1.182357

>  <ref_mols>  (2861) 
Z0719a,Z1597a

>  <ref_pdb>  (2861) 
Z0719a

>  <HIPPO Compound ID>  (2861) 
150604

>  <name>  (2861) 
P75790

>  <inspiration_score>  (2861) 
None

$$$$
P75794
     RDKit          3D

 15 15  0  0  0  0  0  0  0  0999 V2000
   -8.5596    4.4209  -13.8468 C   0  0  0  0  0  0  0  0  0  0  0  0
   -8.0928    4.4623  -15.2102 N   0  0  0  0  0  0  0  0  0  0  0  0
   -8.8109    4.8095  -16.3051 C   0  0  0  0  0  0  0  0  0  0  0  0
   -8.0232    4.9999  -17.3331 N   0  0  0  0  0  0  0  0  0  0  0  0
   -6.7661    4.6836  -16.9041 C   0  0  0  0  0  0  0  0  0  0  0  0
   -5.8019    4.8393  -17.8407 N   0  0  0  0  0  0  0  0  0  0  0  0
   -4.2615    4.7598  -17.7202 C   0  0  0  0  0  0  0  0  0  0  0  0
   -3.5824    4.6241  -16.7811 O   0  0  0  0  0  0  0  0  0  0  0  0
   -3.7160    4.9266  -19.1358 C   0  0  0  0  0  0  0  0  0  0  0  0
   -3.8338    6.3588  -19.6753 C   0  0  0  0  0  0  0  0  0  0  0  0
   -2.4798    7.0359  -19.8787 C   0  0  0  0  0  0  0  0  0  0  0  0
   -1.5189    6.2502  -21.2128 S   0  0  0  0  0  0  0  0  0  0  0  0
   -6.7894    4.2605  -15.5941 C   0  0  0  0  0  0  0  0  0  0  0  0
   -5.8487    3.6617  -14.7151 C   0  0  0  0  0  0  0  0  0  0  0  0
   -5.2650    3.0796  -13.8979 N   0  0  0  0  0  0  0  0  0  0  0  0
  1  2  1  0
  2  3  1  0
  3  4  2  0
  4  5  1  0
  5  6  1  0
  6  7  1  0
  7  8  2  0
  7  9  1  0
  9 10  1  0
 10 11  1  0
 11 12  1  0
  5 13  2  0
 13 14  1  0
 14 15  3  0
 13  2  1  0
M  END
>  <energy_score>  (2862) 
-0.848319

>  <alias>  (2862) 
None

>  <HIPPO Pose ID>  (2862) 
75794

>  <smiles>  (2862) 
Cn1cnc(NC(=O)CCCS)c1C#N

>  <inchikey>  (2862) 
HXCNLFCKOSVTKW-UHFFFAOYSA-N

>  <distance_score>  (2862) 
1.709345

>  <ref_mols>  (2862) 
Z0719a,Z1597a

>  <ref_pdb>  (2862) 
Z0719a

>  <HIPPO Compound ID>  (2862) 
150606

>  <name>  (2862) 
P75794

>  <inspiration_score>  (2862) 
None

$$$$
P75795
     RDKit          3D

 15 15  0  0  0  0  0  0  0  0999 V2000
   -5.0000    2.8526  -13.6994 C   0  0  0  0  0  0  0  0  0  0  0  0
   -6.1105    3.8679  -13.5481 C   0  0  0  0  0  0  0  0  0  0  0  0
   -7.3614    3.5758  -14.3984 C   0  0  0  0  0  0  0  0  0  0  0  0
   -7.4489    4.1303  -15.7349 N   0  0  0  0  0  0  0  0  0  0  0  0
   -8.6259    4.3748  -16.3904 C   0  0  0  0  0  0  0  0  0  0  0  0
   -8.4180    4.9234  -17.5654 N   0  0  0  0  0  0  0  0  0  0  0  0
   -7.0696    5.0133  -17.6857 C   0  0  0  0  0  0  0  0  0  0  0  0
   -6.5086    5.5525  -18.7922 N   0  0  0  0  0  0  0  0  0  0  0  0
   -5.0170    5.8039  -19.1468 C   0  0  0  0  0  0  0  0  0  0  0  0
   -4.0403    5.5131  -18.5699 O   0  0  0  0  0  0  0  0  0  0  0  0
   -4.9677    6.6476  -20.4117 C   0  0  0  0  0  0  0  0  0  0  0  0
   -4.9184    8.1321  -20.1182 C   0  0  0  0  0  0  0  0  0  0  0  0
   -3.6579    8.5547  -19.3680 C   0  0  0  0  0  0  0  0  0  0  0  0
   -3.6317   10.3625  -19.1752 S   0  0  0  0  0  0  0  0  0  0  0  0
   -6.4435    4.5399  -16.5632 C   0  0  0  0  0  0  0  0  0  0  0  0
  1  2  1  0
  2  3  1  0
  3  4  1  0
  4  5  1  0
  5  6  2  0
  6  7  1  0
  7  8  1  0
  8  9  1  0
  9 10  2  0
  9 11  1  0
 11 12  1  0
 12 13  1  0
 13 14  1  0
  7 15  2  0
 15  4  1  0
M  END
>  <energy_score>  (2863) 
-19.866053

>  <alias>  (2863) 
None

>  <HIPPO Pose ID>  (2863) 
75795

>  <smiles>  (2863) 
CCCn1cnc(NC(=O)CCCS)c1

>  <inchikey>  (2863) 
ZKLHZLOMEKESIB-UHFFFAOYSA-N

>  <distance_score>  (2863) 
1.560609

>  <ref_mols>  (2863) 
Z0719a,Z1597a

>  <ref_pdb>  (2863) 
Z0719a

>  <HIPPO Compound ID>  (2863) 
150607

>  <name>  (2863) 
P75795

>  <inspiration_score>  (2863) 
None

$$$$
P75796
     RDKit          3D

 15 15  0  0  0  0  0  0  0  0999 V2000
   -5.0071    2.9680  -13.4492 C   0  0  0  0  0  0  0  0  0  0  0  0
   -6.4821    3.0250  -13.8857 C   0  0  0  0  0  0  0  0  0  0  0  0
   -7.3362    3.3186  -12.6596 C   0  0  0  0  0  0  0  0  0  0  0  0
   -6.7599    3.9220  -15.0110 N   0  0  0  0  0  0  0  0  0  0  0  0
   -7.9966    4.2280  -15.5301 C   0  0  0  0  0  0  0  0  0  0  0  0
   -7.9099    4.8996  -16.6600 N   0  0  0  0  0  0  0  0  0  0  0  0
   -6.5801    5.0170  -16.8876 C   0  0  0  0  0  0  0  0  0  0  0  0
   -6.0915    5.5395  -18.0322 N   0  0  0  0  0  0  0  0  0  0  0  0
   -4.6334    5.8832  -18.4419 C   0  0  0  0  0  0  0  0  0  0  0  0
   -3.6414    5.8388  -17.8230 O   0  0  0  0  0  0  0  0  0  0  0  0
   -4.6374    6.2355  -19.9179 C   0  0  0  0  0  0  0  0  0  0  0  0
   -4.0609    7.6167  -20.1818 C   0  0  0  0  0  0  0  0  0  0  0  0
   -3.7982    7.8933  -21.6585 C   0  0  0  0  0  0  0  0  0  0  0  0
   -2.3034    7.0424  -22.2538 S   0  0  0  0  0  0  0  0  0  0  0  0
   -5.8489    4.4858  -15.8623 C   0  0  0  0  0  0  0  0  0  0  0  0
  1  2  1  0
  2  3  1  0
  2  4  1  0
  4  5  1  0
  5  6  2  0
  6  7  1  0
  7  8  1  0
  8  9  1  0
  9 10  2  0
  9 11  1  0
 11 12  1  0
 12 13  1  0
 13 14  1  0
  7 15  2  0
 15  4  1  0
M  END
>  <energy_score>  (2864) 
-18.638896

>  <alias>  (2864) 
None

>  <HIPPO Pose ID>  (2864) 
75796

>  <smiles>  (2864) 
CC(C)n1cnc(NC(=O)CCCS)c1

>  <inchikey>  (2864) 
QDMHZQMFGSAKSV-UHFFFAOYSA-N

>  <distance_score>  (2864) 
1.916558

>  <ref_mols>  (2864) 
Z0719a,Z1597a

>  <ref_pdb>  (2864) 
Z0719a

>  <HIPPO Compound ID>  (2864) 
150609

>  <name>  (2864) 
P75796

>  <inspiration_score>  (2864) 
None

$$$$
P75799
     RDKit          3D

 15 15  0  0  0  0  0  0  0  0999 V2000
   -3.7667    5.3158  -16.2979 O   0  0  0  0  0  0  0  0  0  0  0  0
   -4.3152    5.0971  -17.3051 C   0  0  0  0  0  0  0  0  0  0  0  0
   -3.5808    5.1091  -18.6407 C   0  0  0  0  0  0  0  0  0  0  0  0
   -4.0098    6.1544  -19.6431 C   0  0  0  0  0  0  0  0  0  0  0  0
   -3.6796    7.3899  -19.1911 F   0  0  0  0  0  0  0  0  0  0  0  0
   -3.2721    5.9606  -20.7793 F   0  0  0  0  0  0  0  0  0  0  0  0
   -5.7764    4.6608  -17.5784 N   0  0  0  0  0  0  0  0  0  0  0  0
   -6.8258    4.5052  -16.7274 C   0  0  0  0  0  0  0  0  0  0  0  0
   -8.0372    4.7449  -17.3295 N   0  0  0  0  0  0  0  0  0  0  0  0
   -8.9566    4.3977  -16.4660 C   0  0  0  0  0  0  0  0  0  0  0  0
   -8.3941    3.9603  -15.3091 N   0  0  0  0  0  0  0  0  0  0  0  0
   -7.0234    4.0223  -15.4514 C   0  0  0  0  0  0  0  0  0  0  0  0
   -6.2308    3.3957  -14.4376 N   0  0  0  0  0  0  0  0  0  0  0  0
   -6.8577    2.7349  -13.5936 O   0  0  0  0  0  0  0  0  0  0  0  0
   -5.0036    3.5064  -14.4708 O   0  0  0  0  0  0  0  0  0  0  0  0
  1  2  2  0
  2  3  1  0
  3  4  1  0
  4  5  1  0
  4  6  1  0
  2  7  1  0
  7  8  1  0
  8  9  1  0
  9 10  2  0
 10 11  1  0
 11 12  1  0
 12 13  1  0
 13 14  2  0
 13 15  1  0
 12  8  2  0
M  CHG  2  13   1  15  -1
M  END
>  <energy_score>  (2865) 
-14.596034

>  <alias>  (2865) 
None

>  <HIPPO Pose ID>  (2865) 
75799

>  <smiles>  (2865) 
O=C(CC(F)F)Nc1nc[nH]c1[N+](=O)[O-]

>  <inchikey>  (2865) 
UKYFRDNFIYMDBJ-UHFFFAOYSA-N

>  <distance_score>  (2865) 
1.821611

>  <ref_mols>  (2865) 
Z0719a,Z1597a

>  <ref_pdb>  (2865) 
Z0719a

>  <HIPPO Compound ID>  (2865) 
150616

>  <name>  (2865) 
P75799

>  <inspiration_score>  (2865) 
None

$$$$
P75800
     RDKit          3D

 15 15  0  0  0  0  0  0  0  0999 V2000
   -7.6822    5.1982  -13.8487 C   0  0  0  0  0  0  0  0  0  0  0  0
   -6.4127    4.6893  -14.2743 O   0  0  0  0  0  0  0  0  0  0  0  0
   -6.0973    4.5218  -15.6011 C   0  0  0  0  0  0  0  0  0  0  0  0
   -4.9529    4.1790  -15.8974 O   0  0  0  0  0  0  0  0  0  0  0  0
   -7.1553    4.6981  -16.6111 C   0  0  0  0  0  0  0  0  0  0  0  0
   -8.4995    4.4002  -16.3717 N   0  0  0  0  0  0  0  0  0  0  0  0
   -9.1143    4.5206  -17.5204 C   0  0  0  0  0  0  0  0  0  0  0  0
   -8.2430    4.8666  -18.5094 N   0  0  0  0  0  0  0  0  0  0  0  0
   -7.0014    5.0251  -17.9522 C   0  0  0  0  0  0  0  0  0  0  0  0
   -5.9538    5.4112  -18.7366 N   0  0  0  0  0  0  0  0  0  0  0  0
   -4.6017    6.0800  -18.3576 C   0  0  0  0  0  0  0  0  0  0  0  0
   -4.2129    6.4715  -17.3272 O   0  0  0  0  0  0  0  0  0  0  0  0
   -3.7298    6.0650  -19.6018 C   0  0  0  0  0  0  0  0  0  0  0  0
   -3.7979    7.3401  -20.4187 C   0  0  0  0  0  0  0  0  0  0  0  0
   -5.3778    7.6489  -21.2491 S   0  0  0  0  0  0  0  0  0  0  0  0
  1  2  1  0
  2  3  1  0
  3  4  2  0
  3  5  1  0
  5  6  1  0
  6  7  2  0
  7  8  1  0
  8  9  1  0
  9 10  1  0
 10 11  1  0
 11 12  2  0
 11 13  1  0
 13 14  1  0
 14 15  1  0
  9  5  2  0
M  END
>  <energy_score>  (2866) 
-21.62581

>  <alias>  (2866) 
None

>  <HIPPO Pose ID>  (2866) 
75800

>  <smiles>  (2866) 
COC(=O)c1nc[nH]c1NC(=O)CCS

>  <inchikey>  (2866) 
CYEKBPXYHGEJCI-UHFFFAOYSA-N

>  <distance_score>  (2866) 
1.695692

>  <ref_mols>  (2866) 
Z0719a,Z1597a

>  <ref_pdb>  (2866) 
Z0719a

>  <HIPPO Compound ID>  (2866) 
150621

>  <name>  (2866) 
P75800

>  <inspiration_score>  (2866) 
None

$$$$
P75801
     RDKit          3D

 15 15  0  0  0  0  0  0  0  0999 V2000
   -6.4305    2.3030  -13.2778 C   0  0  0  0  0  0  0  0  0  0  0  0
   -6.0799    3.7641  -13.4930 C   0  0  0  0  0  0  0  0  0  0  0  0
   -4.6703    3.9171  -14.0537 C   0  0  0  0  0  0  0  0  0  0  0  0
   -7.2154    4.5104  -14.2651 C   0  0  0  0  0  0  0  0  0  0  0  0
   -7.1706    4.6100  -15.7054 N   0  0  0  0  0  0  0  0  0  0  0  0
   -8.1085    4.2076  -16.6106 C   0  0  0  0  0  0  0  0  0  0  0  0
   -7.7282    4.4864  -17.8442 N   0  0  0  0  0  0  0  0  0  0  0  0
   -6.5567    5.1590  -17.7117 C   0  0  0  0  0  0  0  0  0  0  0  0
   -5.7884    5.5725  -18.7441 N   0  0  0  0  0  0  0  0  0  0  0  0
   -4.4663    6.3935  -18.7541 C   0  0  0  0  0  0  0  0  0  0  0  0
   -3.8006    6.7704  -17.8678 O   0  0  0  0  0  0  0  0  0  0  0  0
   -4.0239    6.5929  -20.1884 C   0  0  0  0  0  0  0  0  0  0  0  0
   -4.9788    7.4742  -20.9618 C   0  0  0  0  0  0  0  0  0  0  0  0
   -4.3875    7.7626  -22.6551 S   0  0  0  0  0  0  0  0  0  0  0  0
   -6.2514    5.3417  -16.3962 C   0  0  0  0  0  0  0  0  0  0  0  0
  1  2  1  0
  2  3  1  0
  2  4  1  0
  4  5  1  0
  5  6  1  0
  6  7  2  0
  7  8  1  0
  8  9  1  0
  9 10  1  0
 10 11  2  0
 10 12  1  0
 12 13  1  0
 13 14  1  0
  8 15  2  0
 15  5  1  0
M  END
>  <energy_score>  (2867) 
-39.234425

>  <alias>  (2867) 
None

>  <HIPPO Pose ID>  (2867) 
75801

>  <smiles>  (2867) 
CC(C)Cn1cnc(NC(=O)CCS)c1

>  <inchikey>  (2867) 
ZOYMAUCWZHRQSK-UHFFFAOYSA-N

>  <distance_score>  (2867) 
1.670812

>  <ref_mols>  (2867) 
Z0719a,Z1597a

>  <ref_pdb>  (2867) 
Z0719a

>  <HIPPO Compound ID>  (2867) 
150622

>  <name>  (2867) 
P75801

>  <inspiration_score>  (2867) 
None

$$$$
P75802
     RDKit          3D

 15 15  0  0  0  0  0  0  0  0999 V2000
   -2.4966    5.8258  -17.5955 C   0  0  0  0  0  0  0  0  0  0  0  0
   -3.2764    4.8856  -18.3256 O   0  0  0  0  0  0  0  0  0  0  0  0
   -4.3486    5.4612  -19.0805 C   0  0  2  0  0  0  0  0  0  0  0  0
   -3.8642    6.4717  -20.1237 C   0  0  0  0  0  0  0  0  0  0  0  0
   -5.4949    6.0467  -18.2210 C   0  0  0  0  0  0  0  0  0  0  0  0
   -6.0659    7.0360  -18.4823 O   0  0  0  0  0  0  0  0  0  0  0  0
   -5.7298    5.0161  -17.0703 N   0  0  0  0  0  0  0  0  0  0  0  0
   -6.7080    4.9520  -16.1318 C   0  0  0  0  0  0  0  0  0  0  0  0
   -7.7849    5.7815  -16.2577 N   0  0  0  0  0  0  0  0  0  0  0  0
   -8.5969    5.4665  -15.2803 C   0  0  0  0  0  0  0  0  0  0  0  0
   -8.0328    4.5412  -14.4657 N   0  0  0  0  0  0  0  0  0  0  0  0
   -8.4795    4.1989  -13.1374 C   0  0  0  0  0  0  0  0  0  0  0  0
   -6.8296    4.1712  -15.0048 C   0  0  0  0  0  0  0  0  0  0  0  0
   -5.9802    3.2514  -14.3464 C   0  0  0  0  0  0  0  0  0  0  0  0
   -5.4027    2.4810  -13.6995 N   0  0  0  0  0  0  0  0  0  0  0  0
  1  2  1  0
  2  3  1  0
  3  4  1  1
  3  5  1  0
  5  6  2  0
  5  7  1  0
  7  8  1  0
  8  9  1  0
  9 10  2  0
 10 11  1  0
 11 12  1  0
 11 13  1  0
 13 14  1  0
 14 15  3  0
 13  8  2  0
M  END
>  <energy_score>  (2868) 
-13.299225

>  <alias>  (2868) 
None

>  <HIPPO Pose ID>  (2868) 
75802

>  <smiles>  (2868) 
CO[C@H](C)C(=O)Nc1ncn(C)c1C#N

>  <inchikey>  (2868) 
XLZZGCXWMATMPH-ZCFIWIBFSA-N

>  <distance_score>  (2868) 
1.950987

>  <ref_mols>  (2868) 
Z0719a,Z1597a

>  <ref_pdb>  (2868) 
Z0719a

>  <HIPPO Compound ID>  (2868) 
150626

>  <name>  (2868) 
P75802

>  <inspiration_score>  (2868) 
None

$$$$
P75803
     RDKit          3D

 15 15  0  0  0  0  0  0  0  0999 V2000
   -6.1246    2.6831  -12.8160 C   0  0  0  0  0  0  0  0  0  0  0  0
   -5.9338    3.5896  -14.0101 C   0  0  0  0  0  0  0  0  0  0  0  0
   -7.2723    3.8665  -14.7324 C   0  0  0  0  0  0  0  0  0  0  0  0
   -7.1501    4.4053  -16.0737 N   0  0  0  0  0  0  0  0  0  0  0  0
   -8.0509    4.2827  -17.0916 C   0  0  0  0  0  0  0  0  0  0  0  0
   -7.5298    4.6891  -18.2332 N   0  0  0  0  0  0  0  0  0  0  0  0
   -6.2913    5.1540  -17.9231 C   0  0  0  0  0  0  0  0  0  0  0  0
   -5.4036    5.6113  -18.8401 N   0  0  0  0  0  0  0  0  0  0  0  0
   -4.0318    6.3244  -18.6514 C   0  0  0  0  0  0  0  0  0  0  0  0
   -3.4957    6.6946  -17.6764 O   0  0  0  0  0  0  0  0  0  0  0  0
   -3.3275    6.5048  -20.0301 C   0  0  2  0  0  0  0  0  0  0  0  0
   -4.1764    7.2829  -21.0270 C   0  0  0  0  0  0  0  0  0  0  0  0
   -2.8196    5.3194  -20.6484 O   0  0  0  0  0  0  0  0  0  0  0  0
   -1.8528    4.6659  -19.8188 C   0  0  0  0  0  0  0  0  0  0  0  0
   -6.0725    5.0729  -16.5767 C   0  0  0  0  0  0  0  0  0  0  0  0
  1  2  1  0
  2  3  1  0
  3  4  1  0
  4  5  1  0
  5  6  2  0
  6  7  1  0
  7  8  1  0
  8  9  1  0
  9 10  2  0
  9 11  1  0
 11 12  1  6
 11 13  1  0
 13 14  1  0
  7 15  2  0
 15  4  1  0
M  END
>  <energy_score>  (2869) 
-17.46846

>  <alias>  (2869) 
None

>  <HIPPO Pose ID>  (2869) 
75803

>  <smiles>  (2869) 
CCCn1cnc(NC(=O)[C@H](C)OC)c1

>  <inchikey>  (2869) 
UOFASOLWNPPRBM-QMMMGPOBSA-N

>  <distance_score>  (2869) 
1.626522

>  <ref_mols>  (2869) 
Z0719a,Z1597a

>  <ref_pdb>  (2869) 
Z0719a

>  <HIPPO Compound ID>  (2869) 
150627

>  <name>  (2869) 
P75803

>  <inspiration_score>  (2869) 
None

$$$$
P75807
     RDKit          3D

 15 16  0  0  0  0  0  0  0  0999 V2000
   -8.6971    7.3654  -11.7413 C   0  0  0  0  0  0  0  0  0  0  0  0
   -8.2098    5.9761  -11.6255 C   0  0  0  0  0  0  0  0  0  0  0  0
   -8.0396    5.4164  -10.3918 N   0  0  0  0  0  0  0  0  0  0  0  0
   -7.6043    4.1923  -10.6122 C   0  0  0  0  0  0  0  0  0  0  0  0
   -7.4048    3.1822   -9.5458 C   0  0  0  0  0  0  0  0  0  0  0  0
   -7.3657    3.9865  -11.9627 N   0  0  0  0  0  0  0  0  0  0  0  0
   -6.8353    2.7754  -12.5507 C   0  0  0  0  0  0  0  0  0  0  0  0
   -7.8211    5.1058  -12.6276 C   0  0  0  0  0  0  0  0  0  0  0  0
   -7.9147    5.3202  -13.9782 N   0  0  0  0  0  0  0  0  0  0  0  0
   -7.1709    4.6546  -15.1506 C   0  0  0  0  0  0  0  0  0  0  0  0
   -6.4179    3.7666  -15.1602 O   0  0  0  0  0  0  0  0  0  0  0  0
   -7.5816    5.3166  -16.4237 C   0  0  1  0  0  0  0  0  0  0  0  0
   -7.1667    4.7697  -17.7655 C   0  0  0  0  0  0  0  0  0  0  0  0
   -8.5897    4.6543  -17.3245 C   0  0  1  0  0  0  0  0  0  0  0  0
   -9.0633    3.3993  -17.0095 F   0  0  0  0  0  0  0  0  0  0  0  0
  1  2  1  0
  2  3  1  0
  3  4  2  0
  4  5  1  0
  4  6  1  0
  6  7  1  0
  6  8  1  0
  8  9  1  0
  9 10  1  0
 10 11  2  0
 12 10  1  1
 12 13  1  0
 13 14  1  0
 14 15  1  1
  8  2  2  0
 14 12  1  0
M  END
>  <energy_score>  (2870) 
-18.630042

>  <alias>  (2870) 
None

>  <HIPPO Pose ID>  (2870) 
75807

>  <smiles>  (2870) 
Cc1nc(C)n(C)c1NC(=O)[C@H]1C[C@H]1F

>  <inchikey>  (2870) 
YQZVJUTVNXRKQZ-JGVFFNPUSA-N

>  <distance_score>  (2870) 
1.291914

>  <ref_mols>  (2870) 
Z0719a,Z1597a

>  <ref_pdb>  (2870) 
Z0719a

>  <HIPPO Compound ID>  (2870) 
150629

>  <name>  (2870) 
P75807

>  <inspiration_score>  (2870) 
None

$$$$
P75818
     RDKit          3D

 15 16  0  0  0  0  0  0  0  0999 V2000
   -4.9330    6.8476  -18.0243 O   0  0  0  0  0  0  0  0  0  0  0  0
   -5.4747    6.4733  -18.9909 C   0  0  0  0  0  0  0  0  0  0  0  0
   -4.9820    6.7614  -20.3906 C   0  0  0  0  0  0  0  0  0  0  0  0
   -4.1704    8.0150  -20.4835 C   0  0  0  0  0  0  0  0  0  0  0  0
   -3.0317    7.9327  -19.7583 F   0  0  0  0  0  0  0  0  0  0  0  0
   -4.8764    9.0829  -20.0377 F   0  0  0  0  0  0  0  0  0  0  0  0
   -6.7136    5.5407  -19.1579 N   0  0  0  0  0  0  0  0  0  0  0  0
   -7.5390    4.9937  -18.2252 C   0  0  0  0  0  0  0  0  0  0  0  0
   -8.7007    4.2596  -18.4077 C   0  0  0  0  0  0  0  0  0  0  0  0
   -9.2322    3.8225  -17.2093 N   0  0  0  0  0  0  0  0  0  0  0  0
   -8.4173    4.3225  -16.3181 C   0  0  0  0  0  0  0  0  0  0  0  0
   -7.4091    5.0343  -16.8893 N   0  0  0  0  0  0  0  0  0  0  0  0
   -6.4980    5.6044  -15.9268 C   0  0  0  0  0  0  0  0  0  0  0  0
   -7.2546    5.4179  -14.6098 C   0  0  0  0  0  0  0  0  0  0  0  0
   -8.2866    4.2993  -14.8543 C   0  0  0  0  0  0  0  0  0  0  0  0
  1  2  2  0
  2  3  1  0
  3  4  1  0
  4  5  1  0
  4  6  1  0
  2  7  1  0
  7  8  1  0
  8  9  2  0
  9 10  1  0
 10 11  2  0
 11 12  1  0
 12 13  1  0
 13 14  1  0
 14 15  1  0
 12  8  1  0
 15 11  1  0
M  END
>  <energy_score>  (2871) 
-28.341009

>  <alias>  (2871) 
None

>  <HIPPO Pose ID>  (2871) 
75818

>  <smiles>  (2871) 
O=C(CC(F)F)Nc1cnc2n1CCC2

>  <inchikey>  (2871) 
XALVXOUHIUJYAX-UHFFFAOYSA-N

>  <distance_score>  (2871) 
1.443043

>  <ref_mols>  (2871) 
Z0719a,Z1597a

>  <ref_pdb>  (2871) 
Z0719a

>  <HIPPO Compound ID>  (2871) 
150634

>  <name>  (2871) 
P75818

>  <inspiration_score>  (2871) 
None

$$$$
P75819
     RDKit          3D

 15 16  0  0  0  0  0  0  0  0999 V2000
   -1.7044    5.1419  -19.0425 C   0  0  0  0  0  0  0  0  0  0  0  0
   -2.3965    6.1915  -19.7086 O   0  0  0  0  0  0  0  0  0  0  0  0
   -3.7927    5.9407  -19.8661 C   0  0  2  0  0  0  0  0  0  0  0  0
   -4.3098    7.0379  -20.7903 C   0  0  0  0  0  0  0  0  0  0  0  0
   -4.6630    5.8727  -18.5809 C   0  0  0  0  0  0  0  0  0  0  0  0
   -4.2422    6.1440  -17.5207 O   0  0  0  0  0  0  0  0  0  0  0  0
   -6.0617    5.3076  -19.0031 N   0  0  0  0  0  0  0  0  0  0  0  0
   -7.1186    4.9006  -18.2419 C   0  0  0  0  0  0  0  0  0  0  0  0
   -8.3134    4.2876  -18.5948 C   0  0  0  0  0  0  0  0  0  0  0  0
   -9.0675    3.9346  -17.4853 N   0  0  0  0  0  0  0  0  0  0  0  0
   -8.3551    4.3788  -16.4849 C   0  0  0  0  0  0  0  0  0  0  0  0
   -7.2134    4.9875  -16.9027 N   0  0  0  0  0  0  0  0  0  0  0  0
   -6.4314    5.5293  -15.8150 C   0  0  0  0  0  0  0  0  0  0  0  0
   -7.4301    5.4940  -14.6572 C   0  0  0  0  0  0  0  0  0  0  0  0
   -8.4435    4.3913  -15.0174 C   0  0  0  0  0  0  0  0  0  0  0  0
  1  2  1  0
  2  3  1  0
  3  4  1  6
  3  5  1  0
  5  6  2  0
  5  7  1  0
  7  8  1  0
  8  9  2  0
  9 10  1  0
 10 11  2  0
 11 12  1  0
 12 13  1  0
 13 14  1  0
 14 15  1  0
 12  8  1  0
 15 11  1  0
M  END
>  <energy_score>  (2872) 
-3.028261

>  <alias>  (2872) 
None

>  <HIPPO Pose ID>  (2872) 
75819

>  <smiles>  (2872) 
CO[C@H](C)C(=O)Nc1cnc2n1CCC2

>  <inchikey>  (2872) 
RGIJOMNCHXUHMO-SSDOTTSWSA-N

>  <distance_score>  (2872) 
1.161506

>  <ref_mols>  (2872) 
Z0719a,Z1597a

>  <ref_pdb>  (2872) 
Z0719a

>  <HIPPO Compound ID>  (2872) 
150638

>  <name>  (2872) 
P75819

>  <inspiration_score>  (2872) 
None

$$$$
P75824
     RDKit          3D

 15 16  0  0  0  0  0  0  0  0999 V2000
   -8.8247    2.6745  -10.9122 C   0  0  0  0  0  0  0  0  0  0  0  0
   -8.3249    4.0127  -11.0080 N   0  0  0  0  0  0  0  0  0  0  0  0
   -7.8853    4.7494   -9.9385 C   0  0  0  0  0  0  0  0  0  0  0  0
   -7.1185    5.7469  -10.3257 N   0  0  0  0  0  0  0  0  0  0  0  0
   -7.1030    5.6467  -11.6980 C   0  0  0  0  0  0  0  0  0  0  0  0
   -6.0281    6.1290  -12.5189 C   0  0  0  0  0  0  0  0  0  0  0  0
   -5.1580    6.2693  -13.2782 N   0  0  0  0  0  0  0  0  0  0  0  0
   -7.9753    4.6761  -12.1521 C   0  0  0  0  0  0  0  0  0  0  0  0
   -8.2142    4.3223  -13.4521 N   0  0  0  0  0  0  0  0  0  0  0  0
   -8.1105    5.1523  -14.7542 C   0  0  0  0  0  0  0  0  0  0  0  0
   -7.8807    6.2849  -14.9124 O   0  0  0  0  0  0  0  0  0  0  0  0
   -8.2430    4.2789  -15.9436 C   0  0  2  0  0  0  0  0  0  0  0  0
   -7.7520    4.8075  -17.2829 C   0  0  0  0  0  0  0  0  0  0  0  0
   -9.1981    4.5087  -17.0598 C   0  0  1  0  0  0  0  0  0  0  0  0
   -9.6846    3.3885  -17.7063 F   0  0  0  0  0  0  0  0  0  0  0  0
  1  2  1  0
  2  3  1  0
  3  4  2  0
  4  5  1  0
  5  6  1  0
  6  7  3  0
  5  8  2  0
  8  9  1  0
  9 10  1  0
 10 11  2  0
 12 10  1  1
 12 13  1  0
 13 14  1  0
 14 15  1  6
  8  2  1  0
 14 12  1  0
M  END
>  <energy_score>  (2873) 
-5.917868

>  <alias>  (2873) 
None

>  <HIPPO Pose ID>  (2873) 
75824

>  <smiles>  (2873) 
Cn1cnc(C#N)c1NC(=O)[C@@H]1C[C@H]1F

>  <inchikey>  (2873) 
DBSQLJIJTVRQAT-PHDIDXHHSA-N

>  <distance_score>  (2873) 
1.21705

>  <ref_mols>  (2873) 
Z0719a,Z1597a

>  <ref_pdb>  (2873) 
Z0719a

>  <HIPPO Compound ID>  (2873) 
150641

>  <name>  (2873) 
P75824

>  <inspiration_score>  (2873) 
None

$$$$
P75828
     RDKit          3D

 15 15  0  0  0  0  0  0  0  0999 V2000
   -9.0847    4.4067  -15.4414 C   0  0  0  0  0  0  0  0  0  0  0  0
   -8.2254    4.4718  -16.5863 N   0  0  0  0  0  0  0  0  0  0  0  0
   -8.6246    4.4022  -17.8802 C   0  0  0  0  0  0  0  0  0  0  0  0
   -7.6070    4.6095  -18.6808 N   0  0  0  0  0  0  0  0  0  0  0  0
   -6.5391    4.8644  -17.8771 C   0  0  0  0  0  0  0  0  0  0  0  0
   -5.4073    5.2966  -18.4830 N   0  0  0  0  0  0  0  0  0  0  0  0
   -4.1903    6.0770  -17.9104 C   0  0  0  0  0  0  0  0  0  0  0  0
   -3.9443    6.3980  -16.8123 O   0  0  0  0  0  0  0  0  0  0  0  0
   -3.2713    6.5080  -19.0950 C   0  0  0  0  0  0  0  0  0  0  0  0
   -3.9870    7.1977  -20.2587 C   0  0  0  0  0  0  0  0  0  0  0  0
   -2.1444    7.4182  -18.5845 C   0  0  0  0  0  0  0  0  0  0  0  0
   -2.4053    4.8759  -19.7576 Br  0  0  0  0  0  0  0  0  0  0  0  0
   -6.8715    4.6721  -16.5588 C   0  0  0  0  0  0  0  0  0  0  0  0
   -6.0949    4.6016  -15.3797 C   0  0  0  0  0  0  0  0  0  0  0  0
   -5.5440    4.4386  -14.3720 N   0  0  0  0  0  0  0  0  0  0  0  0
  1  2  1  0
  2  3  1  0
  3  4  2  0
  4  5  1  0
  5  6  1  0
  6  7  1  0
  7  8  2  0
  7  9  1  0
  9 10  1  0
  9 11  1  0
  9 12  1  0
  5 13  2  0
 13 14  1  0
 14 15  3  0
 13  2  1  0
M  END
>  <energy_score>  (2874) 
-26.369961

>  <alias>  (2874) 
None

>  <HIPPO Pose ID>  (2874) 
75828

>  <smiles>  (2874) 
Cn1cnc(NC(=O)C(C)(C)Br)c1C#N

>  <inchikey>  (2874) 
FEUIYLUOYJJAPO-UHFFFAOYSA-N

>  <distance_score>  (2874) 
1.405599

>  <ref_mols>  (2874) 
Z0719a,Z1597a

>  <ref_pdb>  (2874) 
Z0719a

>  <HIPPO Compound ID>  (2874) 
150646

>  <name>  (2874) 
P75828

>  <inspiration_score>  (2874) 
None

$$$$
P75833
     RDKit          3D

 15 16  0  0  0  0  0  0  0  0999 V2000
   -6.2731    4.9578   -8.6394 C   0  0  0  0  0  0  0  0  0  0  0  0
   -7.7286    5.1618   -9.0604 C   0  0  0  0  0  0  0  0  0  0  0  0
   -8.1308    6.6307   -8.9032 C   0  0  0  0  0  0  0  0  0  0  0  0
   -7.9551    4.6358  -10.3939 N   0  0  0  0  0  0  0  0  0  0  0  0
   -8.3105    3.3470  -10.6823 C   0  0  0  0  0  0  0  0  0  0  0  0
   -8.4608    3.1773  -11.9763 N   0  0  0  0  0  0  0  0  0  0  0  0
   -8.1663    4.3786  -12.5356 C   0  0  0  0  0  0  0  0  0  0  0  0
   -8.2390    4.5471  -13.8761 N   0  0  0  0  0  0  0  0  0  0  0  0
   -7.8161    5.7315  -14.7573 C   0  0  0  0  0  0  0  0  0  0  0  0
   -7.4082    6.7829  -14.4650 O   0  0  0  0  0  0  0  0  0  0  0  0
   -8.0652    5.4401  -16.1929 C   0  0  1  0  0  0  0  0  0  0  0  0
   -7.0926    6.0017  -17.2283 C   0  0  0  0  0  0  0  0  0  0  0  0
   -7.1978    4.5409  -17.0033 C   0  0  2  0  0  0  0  0  0  0  0  0
   -7.8213    3.8509  -18.0251 F   0  0  0  0  0  0  0  0  0  0  0  0
   -7.8350    5.3049  -11.5812 C   0  0  0  0  0  0  0  0  0  0  0  0
  1  2  1  0
  2  3  1  0
  2  4  1  0
  4  5  1  0
  5  6  2  0
  6  7  1  0
  7  8  1  0
  8  9  1  0
  9 10  2  0
 11  9  1  1
 11 12  1  0
 12 13  1  0
 13 14  1  6
  7 15  2  0
 15  4  1  0
 13 11  1  0
M  END
>  <energy_score>  (2875) 
-39.863199

>  <alias>  (2875) 
None

>  <HIPPO Pose ID>  (2875) 
75833

>  <smiles>  (2875) 
CC(C)n1cnc(NC(=O)[C@H]2C[C@@H]2F)c1

>  <inchikey>  (2875) 
NNEKCYFAHWBCTG-YUMQZZPRSA-N

>  <distance_score>  (2875) 
1.178201

>  <ref_mols>  (2875) 
Z0719a,Z1597a

>  <ref_pdb>  (2875) 
Z0719a

>  <HIPPO Compound ID>  (2875) 
150654

>  <name>  (2875) 
P75833

>  <inspiration_score>  (2875) 
None

$$$$
P75840
     RDKit          3D

 15 16  0  0  0  0  0  0  0  0999 V2000
   -7.9417    5.1337   -7.8447 C   0  0  0  0  0  0  0  0  0  0  0  0
   -7.6559    5.8047   -9.1928 C   0  0  0  0  0  0  0  0  0  0  0  0
   -8.3254    7.1833   -9.2347 C   0  0  0  0  0  0  0  0  0  0  0  0
   -7.9942    4.9959  -10.3528 N   0  0  0  0  0  0  0  0  0  0  0  0
   -8.4366    3.7038  -10.3768 C   0  0  0  0  0  0  0  0  0  0  0  0
   -8.5600    3.2659  -11.6078 N   0  0  0  0  0  0  0  0  0  0  0  0
   -8.1682    4.2973  -12.4026 C   0  0  0  0  0  0  0  0  0  0  0  0
   -8.1054    4.1057  -13.7375 N   0  0  0  0  0  0  0  0  0  0  0  0
   -7.6623    5.0593  -14.8679 C   0  0  0  0  0  0  0  0  0  0  0  0
   -7.3555    6.1841  -14.8315 O   0  0  0  0  0  0  0  0  0  0  0  0
   -7.5723    4.2583  -16.1188 C   0  0  1  0  0  0  0  0  0  0  0  0
   -8.6371    4.3805  -17.1786 C   0  0  0  0  0  0  0  0  0  0  0  0
   -7.2078    4.6710  -17.5114 C   0  0  1  0  0  0  0  0  0  0  0  0
   -6.7039    6.4038  -18.0166 Br  0  0  0  0  0  0  0  0  0  0  0  0
   -7.8173    5.3895  -11.6580 C   0  0  0  0  0  0  0  0  0  0  0  0
  1  2  1  0
  2  3  1  0
  2  4  1  0
  4  5  1  0
  5  6  2  0
  6  7  1  0
  7  8  1  0
  8  9  1  0
  9 10  2  0
 11  9  1  1
 11 12  1  0
 12 13  1  0
 13 14  1  1
  7 15  2  0
 15  4  1  0
 13 11  1  0
M  END
>  <energy_score>  (2876) 
-23.390068

>  <alias>  (2876) 
None

>  <HIPPO Pose ID>  (2876) 
75840

>  <smiles>  (2876) 
CC(C)n1cnc(NC(=O)[C@H]2C[C@H]2Br)c1

>  <inchikey>  (2876) 
QHUJBQZZDATSNA-JGVFFNPUSA-N

>  <distance_score>  (2876) 
1.260135

>  <ref_mols>  (2876) 
Z0719a,Z1597a

>  <ref_pdb>  (2876) 
Z0719a

>  <HIPPO Compound ID>  (2876) 
150664

>  <name>  (2876) 
P75840

>  <inspiration_score>  (2876) 
None

$$$$
P75860
     RDKit          3D

 15 16  0  0  0  0  0  0  0  0999 V2000
   -8.9537    2.7813  -10.6011 C   0  0  0  0  0  0  0  0  0  0  0  0
   -8.2123    4.0005  -10.7135 N   0  0  0  0  0  0  0  0  0  0  0  0
   -7.7166    4.6820   -9.6290 C   0  0  0  0  0  0  0  0  0  0  0  0
   -6.8136    5.5706   -9.9853 N   0  0  0  0  0  0  0  0  0  0  0  0
   -6.7627    5.4631  -11.3531 C   0  0  0  0  0  0  0  0  0  0  0  0
   -5.6339    5.8579  -12.1490 C   0  0  0  0  0  0  0  0  0  0  0  0
   -4.7564    5.9429  -12.9088 N   0  0  0  0  0  0  0  0  0  0  0  0
   -7.7260    4.5994  -11.8384 C   0  0  0  0  0  0  0  0  0  0  0  0
   -7.9603    4.3141  -13.1528 N   0  0  0  0  0  0  0  0  0  0  0  0
   -7.7167    5.1603  -14.4205 C   0  0  0  0  0  0  0  0  0  0  0  0
   -7.3506    6.2612  -14.5354 O   0  0  0  0  0  0  0  0  0  0  0  0
   -7.9020    4.3659  -15.6604 C   0  0  2  0  0  0  0  0  0  0  0  0
   -6.7887    4.4362  -16.6971 C   0  0  0  0  0  0  0  0  0  0  0  0
   -8.1040    5.0708  -16.9717 C   0  0  1  0  0  0  0  0  0  0  0  0
   -9.3189    4.2444  -18.1741 Br  0  0  0  0  0  0  0  0  0  0  0  0
  1  2  1  0
  2  3  1  0
  3  4  2  0
  4  5  1  0
  5  6  1  0
  6  7  3  0
  5  8  2  0
  8  9  1  0
  9 10  1  0
 10 11  2  0
 12 10  1  1
 12 13  1  0
 13 14  1  0
 14 15  1  6
  8  2  1  0
 14 12  1  0
M  END
>  <energy_score>  (2877) 
-10.386606

>  <alias>  (2877) 
None

>  <HIPPO Pose ID>  (2877) 
75860

>  <smiles>  (2877) 
Cn1cnc(C#N)c1NC(=O)[C@@H]1C[C@H]1Br

>  <inchikey>  (2877) 
SDIXHJACLHCGOH-PHDIDXHHSA-N

>  <distance_score>  (2877) 
1.265728

>  <ref_mols>  (2877) 
Z0719a,Z1597a

>  <ref_pdb>  (2877) 
Z0719a

>  <HIPPO Compound ID>  (2877) 
150672

>  <name>  (2877) 
P75860

>  <inspiration_score>  (2877) 
None

$$$$
P75862
     RDKit          3D

 16 16  0  0  0  0  0  0  0  0999 V2000
   -8.9363    4.2143  -18.8319 C   0  0  0  0  0  0  0  0  0  0  0  0
   -8.3798    4.4624  -17.4975 C   0  0  0  0  0  0  0  0  0  0  0  0
   -9.1676    4.2529  -16.4078 N   0  0  0  0  0  0  0  0  0  0  0  0
   -8.4317    4.5877  -15.3750 C   0  0  0  0  0  0  0  0  0  0  0  0
   -8.8948    4.5909  -13.9723 C   0  0  0  0  0  0  0  0  0  0  0  0
   -7.1518    4.9290  -15.7599 N   0  0  0  0  0  0  0  0  0  0  0  0
   -6.0601    5.1391  -14.8246 C   0  0  0  0  0  0  0  0  0  0  0  0
   -5.9957    4.1431  -13.6572 C   0  0  0  0  0  0  0  0  0  0  0  0
   -6.0423    6.5691  -14.2970 C   0  0  0  0  0  0  0  0  0  0  0  0
   -7.1303    4.9346  -17.1403 C   0  0  0  0  0  0  0  0  0  0  0  0
   -6.1594    5.2872  -18.0453 N   0  0  0  0  0  0  0  0  0  0  0  0
   -4.8002    6.0134  -17.8366 C   0  0  0  0  0  0  0  0  0  0  0  0
   -4.3356    6.4900  -16.8751 O   0  0  0  0  0  0  0  0  0  0  0  0
   -4.0805    6.0143  -19.1851 C   0  0  0  0  0  0  0  0  0  0  0  0
   -4.7334    6.8745  -20.2505 C   0  0  0  0  0  0  0  0  0  0  0  0
   -4.6502    8.7652  -19.7800 Br  0  0  0  0  0  0  0  0  0  0  0  0
  1  2  1  0
  2  3  1  0
  3  4  2  0
  4  5  1  0
  4  6  1  0
  6  7  1  0
  7  8  1  0
  7  9  1  0
  6 10  1  0
 10 11  1  0
 11 12  1  0
 12 13  2  0
 12 14  1  0
 14 15  1  0
 15 16  1  0
 10  2  2  0
M  END
>  <energy_score>  (2878) 
-27.091643

>  <alias>  (2878) 
None

>  <HIPPO Pose ID>  (2878) 
75862

>  <smiles>  (2878) 
Cc1nc(C)n(C(C)C)c1NC(=O)CCBr

>  <inchikey>  (2878) 
WYSWDQLPXHOAET-UHFFFAOYSA-N

>  <distance_score>  (2878) 
1.882963

>  <ref_mols>  (2878) 
Z0719a,Z1597a

>  <ref_pdb>  (2878) 
Z0719a

>  <HIPPO Compound ID>  (2878) 
150683

>  <name>  (2878) 
P75862

>  <inspiration_score>  (2878) 
None

$$$$
P75864
     RDKit          3D

 16 17  0  0  0  0  0  0  0  0999 V2000
   -8.7762    4.1693  -18.9296 C   0  0  0  0  0  0  0  0  0  0  0  0
   -8.1909    4.4587  -17.6187 C   0  0  0  0  0  0  0  0  0  0  0  0
   -8.7140    3.8558  -16.5015 N   0  0  0  0  0  0  0  0  0  0  0  0
   -7.9478    4.2510  -15.5046 C   0  0  0  0  0  0  0  0  0  0  0  0
   -7.9095    3.6644  -14.1432 C   0  0  0  0  0  0  0  0  0  0  0  0
   -7.1305    5.2716  -15.9269 N   0  0  0  0  0  0  0  0  0  0  0  0
   -6.7143    6.4213  -15.0971 C   0  0  0  0  0  0  0  0  0  0  0  0
   -5.8132    6.3140  -13.9004 C   0  0  0  0  0  0  0  0  0  0  0  0
   -7.2451    6.7288  -13.7130 C   0  0  0  0  0  0  0  0  0  0  0  0
   -7.0972    5.2411  -17.3008 C   0  0  0  0  0  0  0  0  0  0  0  0
   -6.1887    5.8159  -18.1537 N   0  0  0  0  0  0  0  0  0  0  0  0
   -4.8706    6.5939  -17.8544 C   0  0  0  0  0  0  0  0  0  0  0  0
   -4.4014    6.9287  -16.8335 O   0  0  0  0  0  0  0  0  0  0  0  0
   -4.1086    6.8481  -19.1678 C   0  0  2  0  0  0  0  0  0  0  0  0
   -4.8774    7.2766  -20.3983 C   0  0  0  0  0  0  0  0  0  0  0  0
   -3.0601    5.2436  -19.5359 Br  0  0  0  0  0  0  0  0  0  0  0  0
  1  2  1  0
  2  3  1  0
  3  4  2  0
  4  5  1  0
  4  6  1  0
  6  7  1  0
  7  8  1  0
  8  9  1  0
  6 10  1  0
 10 11  1  0
 11 12  1  0
 12 13  2  0
 12 14  1  0
 14 15  1  6
 14 16  1  0
 10  2  2  0
  9  7  1  0
M  END
>  <energy_score>  (2879) 
-10.986324

>  <alias>  (2879) 
None

>  <HIPPO Pose ID>  (2879) 
75864

>  <smiles>  (2879) 
Cc1nc(C)n(C2CC2)c1NC(=O)[C@H](C)Br

>  <inchikey>  (2879) 
FJVBEWROERCIHB-LURJTMIESA-N

>  <distance_score>  (2879) 
1.696448

>  <ref_mols>  (2879) 
Z0719a,Z1597a

>  <ref_pdb>  (2879) 
Z0719a

>  <HIPPO Compound ID>  (2879) 
150687

>  <name>  (2879) 
P75864

>  <inspiration_score>  (2879) 
None

$$$$
P75866
     RDKit          3D

 16 17  0  0  0  0  0  0  0  0999 V2000
   -6.9455    1.9733  -13.3771 N   0  0  0  0  0  0  0  0  0  0  0  0
   -5.9006    2.4713  -13.3747 C   0  0  0  0  0  0  0  0  0  0  0  0
   -4.5911    2.9938  -13.3499 C   0  0  0  0  0  0  0  0  0  0  0  0
   -3.9468    3.8904  -14.1856 C   0  0  0  0  0  0  0  0  0  0  0  0
   -4.4751    4.5336  -15.2673 N   0  0  0  0  0  0  0  0  0  0  0  0
   -3.8788    5.6567  -16.1657 C   0  0  0  0  0  0  0  0  0  0  0  0
   -2.8166    6.1457  -16.1623 O   0  0  0  0  0  0  0  0  0  0  0  0
   -4.9626    6.0874  -17.1489 C   0  0  0  0  0  0  0  0  0  0  0  0
   -5.1787    5.0913  -18.2675 C   0  0  0  0  0  0  0  0  0  0  0  0
   -3.6305    4.9982  -19.4449 Br  0  0  0  0  0  0  0  0  0  0  0  0
   -2.6376    4.0807  -13.7990 N   0  0  0  0  0  0  0  0  0  0  0  0
   -2.5067    3.3244  -12.7466 C   0  0  0  0  0  0  0  0  0  0  0  0
   -3.6448    2.6607  -12.4382 N   0  0  0  0  0  0  0  0  0  0  0  0
   -3.6109    1.7633  -11.3049 C   0  0  0  0  0  0  0  0  0  0  0  0
   -2.3767    2.1554  -10.4865 C   0  0  0  0  0  0  0  0  0  0  0  0
   -1.2240    2.9915  -11.6568 S   0  0  0  0  0  0  0  0  0  0  0  0
  1  2  3  0
  2  3  1  0
  3  4  2  0
  4  5  1  0
  5  6  1  0
  6  7  2  0
  6  8  1  0
  8  9  1  0
  9 10  1  0
  4 11  1  0
 11 12  2  0
 12 13  1  0
 13 14  1  0
 14 15  1  0
 15 16  1  0
 13  3  1  0
 16 12  1  0
M  END
>  <energy_score>  (2880) 
-3.944171

>  <alias>  (2880) 
None

>  <HIPPO Pose ID>  (2880) 
75866

>  <smiles>  (2880) 
N#Cc1c(NC(=O)CCBr)nc2n1CCS2

>  <inchikey>  (2880) 
YTGZBVCRBBZUIX-UHFFFAOYSA-N

>  <distance_score>  (2880) 
1.174218

>  <ref_mols>  (2880) 
Z0719a,Z1597a

>  <ref_pdb>  (2880) 
Z0719a

>  <HIPPO Compound ID>  (2880) 
150688

>  <name>  (2880) 
P75866

>  <inspiration_score>  (2880) 
None

$$$$
P75874
     RDKit          3D

 16 16  0  0  0  0  0  0  0  0999 V2000
   -4.2673    6.4425  -19.6634 C   0  0  0  0  0  0  0  0  0  0  0  0
   -3.9204    5.0413  -19.1457 C   0  0  1  0  0  0  0  0  0  0  0  0
   -2.4293    4.7959  -19.3148 C   0  0  0  0  0  0  0  0  0  0  0  0
   -2.1595    4.7978  -20.6588 F   0  0  0  0  0  0  0  0  0  0  0  0
   -4.3587    4.7807  -17.6926 C   0  0  0  0  0  0  0  0  0  0  0  0
   -3.6201    4.6030  -16.8065 O   0  0  0  0  0  0  0  0  0  0  0  0
   -5.9131    4.8065  -17.7184 N   0  0  0  0  0  0  0  0  0  0  0  0
   -6.8293    4.5375  -16.7242 C   0  0  0  0  0  0  0  0  0  0  0  0
   -6.8964    4.1123  -15.3971 C   0  0  0  0  0  0  0  0  0  0  0  0
   -5.9017    3.6733  -14.4566 N   0  0  0  0  0  0  0  0  0  0  0  0
   -6.1168    2.6069  -13.8537 O   0  0  0  0  0  0  0  0  0  0  0  0
   -4.9284    4.4121  -14.2909 O   0  0  0  0  0  0  0  0  0  0  0  0
   -8.2059    4.0722  -14.9483 N   0  0  0  0  0  0  0  0  0  0  0  0
   -8.9349    4.3360  -15.9913 C   0  0  0  0  0  0  0  0  0  0  0  0
   -8.1651    4.6262  -17.0640 N   0  0  0  0  0  0  0  0  0  0  0  0
   -8.7149    4.8872  -18.3606 C   0  0  0  0  0  0  0  0  0  0  0  0
  2  1  1  1
  2  3  1  0
  3  4  1  0
  2  5  1  0
  5  6  2  0
  5  7  1  0
  7  8  1  0
  8  9  2  0
  9 10  1  0
 10 11  2  0
 10 12  1  0
  9 13  1  0
 13 14  2  0
 14 15  1  0
 15 16  1  0
 15  8  1  0
M  CHG  2  10   1  12  -1
M  END
>  <energy_score>  (2881) 
-20.541346

>  <alias>  (2881) 
None

>  <HIPPO Pose ID>  (2881) 
75874

>  <smiles>  (2881) 
C[C@@H](CF)C(=O)Nc1c([N+](=O)[O-])ncn1C

>  <inchikey>  (2881) 
CHAFJFGYWVFZRH-YFKPBYRVSA-N

>  <distance_score>  (2881) 
1.977561

>  <ref_mols>  (2881) 
Z0719a,Z1597a

>  <ref_pdb>  (2881) 
Z0719a

>  <HIPPO Compound ID>  (2881) 
150703

>  <name>  (2881) 
P75874

>  <inspiration_score>  (2881) 
None

$$$$
P75884
     RDKit          3D

 16 17  0  0  0  0  0  0  0  0999 V2000
   -5.8026    2.3071  -10.7889 C   0  0  0  0  0  0  0  0  0  0  0  0
   -6.8517    3.2044  -11.3288 C   0  0  0  0  0  0  0  0  0  0  0  0
   -7.4441    3.0222  -12.4863 N   0  0  0  0  0  0  0  0  0  0  0  0
   -8.0033    4.2240  -12.7920 C   0  0  0  0  0  0  0  0  0  0  0  0
   -8.4540    4.3578  -14.0545 N   0  0  0  0  0  0  0  0  0  0  0  0
   -8.5397    5.5905  -14.9529 C   0  0  0  0  0  0  0  0  0  0  0  0
   -8.3076    6.7055  -14.7261 O   0  0  0  0  0  0  0  0  0  0  0  0
   -8.9063    5.1979  -16.3327 C   0  0  1  0  0  0  0  0  0  0  0  0
   -7.9056    5.3842  -17.4689 C   0  0  0  0  0  0  0  0  0  0  0  0
   -8.2657    4.0322  -16.9885 C   0  0  2  0  0  0  0  0  0  0  0  0
   -9.1047    3.2565  -17.7626 F   0  0  0  0  0  0  0  0  0  0  0  0
   -7.8967    5.1147  -11.7538 C   0  0  0  0  0  0  0  0  0  0  0  0
   -8.3137    6.4668  -11.6489 C   0  0  0  0  0  0  0  0  0  0  0  0
   -8.6230    7.5726  -11.4811 N   0  0  0  0  0  0  0  0  0  0  0  0
   -7.2927    4.3784  -10.7572 N   0  0  0  0  0  0  0  0  0  0  0  0
   -7.1089    4.8182   -9.3985 C   0  0  0  0  0  0  0  0  0  0  0  0
  1  2  1  0
  2  3  2  0
  3  4  1  0
  4  5  1  0
  5  6  1  0
  6  7  2  0
  8  6  1  1
  8  9  1  0
  9 10  1  0
 10 11  1  6
  4 12  2  0
 12 13  1  0
 13 14  3  0
 12 15  1  0
 15 16  1  0
 15  2  1  0
 10  8  1  0
M  END
>  <energy_score>  (2882) 
-25.295

>  <alias>  (2882) 
None

>  <HIPPO Pose ID>  (2882) 
75884

>  <smiles>  (2882) 
Cc1nc(NC(=O)[C@H]2C[C@@H]2F)c(C#N)n1C

>  <inchikey>  (2882) 
CDXRQNLNVMZNSY-BQBZGAKWSA-N

>  <distance_score>  (2882) 
1.7558

>  <ref_mols>  (2882) 
Z0719a,Z1597a

>  <ref_pdb>  (2882) 
Z0719a

>  <HIPPO Compound ID>  (2882) 
150711

>  <name>  (2882) 
P75884

>  <inspiration_score>  (2882) 
None

$$$$
P75889
     RDKit          3D

 16 17  0  0  0  0  0  0  0  0999 V2000
   -7.4070    3.1449   -9.5487 C   0  0  0  0  0  0  0  0  0  0  0  0
   -7.6127    4.1582  -10.6122 C   0  0  0  0  0  0  0  0  0  0  0  0
   -8.0352    5.3876  -10.3844 N   0  0  0  0  0  0  0  0  0  0  0  0
   -8.2210    5.9330  -11.6202 C   0  0  0  0  0  0  0  0  0  0  0  0
   -8.6743    7.2772  -11.7823 C   0  0  0  0  0  0  0  0  0  0  0  0
   -9.0248    8.3618  -12.0123 N   0  0  0  0  0  0  0  0  0  0  0  0
   -7.8548    5.0678  -12.6329 C   0  0  0  0  0  0  0  0  0  0  0  0
   -7.9567    5.2633  -13.9896 N   0  0  0  0  0  0  0  0  0  0  0  0
   -7.1467    4.6587  -15.1506 C   0  0  0  0  0  0  0  0  0  0  0  0
   -6.3167    3.8422  -15.1472 O   0  0  0  0  0  0  0  0  0  0  0  0
   -7.5667    5.3135  -16.4240 C   0  0  1  0  0  0  0  0  0  0  0  0
   -7.1665    4.7555  -17.7654 C   0  0  0  0  0  0  0  0  0  0  0  0
   -8.5856    4.6492  -17.3109 C   0  0  1  0  0  0  0  0  0  0  0  0
   -9.0616    3.3996  -16.9797 F   0  0  0  0  0  0  0  0  0  0  0  0
   -7.3945    3.9483  -11.9683 N   0  0  0  0  0  0  0  0  0  0  0  0
   -6.8735    2.7363  -12.5657 C   0  0  0  0  0  0  0  0  0  0  0  0
  1  2  1  0
  2  3  2  0
  3  4  1  0
  4  5  1  0
  5  6  3  0
  4  7  2  0
  7  8  1  0
  8  9  1  0
  9 10  2  0
 11  9  1  1
 11 12  1  0
 12 13  1  0
 13 14  1  1
  7 15  1  0
 15 16  1  0
 15  2  1  0
 13 11  1  0
M  END
>  <energy_score>  (2883) 
-4.130345

>  <alias>  (2883) 
None

>  <HIPPO Pose ID>  (2883) 
75889

>  <smiles>  (2883) 
Cc1nc(C#N)c(NC(=O)[C@H]2C[C@H]2F)n1C

>  <inchikey>  (2883) 
LYQWITAKTUUGRD-NKWVEPMBSA-N

>  <distance_score>  (2883) 
1.373071

>  <ref_mols>  (2883) 
Z0719a,Z1597a

>  <ref_pdb>  (2883) 
Z0719a

>  <HIPPO Compound ID>  (2883) 
150712

>  <name>  (2883) 
P75889

>  <inspiration_score>  (2883) 
None

$$$$
P75892
     RDKit          3D

 16 18  0  0  0  0  0  0  0  0999 V2000
   -3.3737    7.4285  -18.8757 O   0  0  0  0  0  0  0  0  0  0  0  0
   -3.9117    6.9109  -19.7687 C   0  0  0  0  0  0  0  0  0  0  0  0
   -5.0955    5.9327  -19.7868 N   0  0  0  0  0  0  0  0  0  0  0  0
   -5.8804    5.4848  -18.7811 C   0  0  0  0  0  0  0  0  0  0  0  0
   -6.9779    4.6745  -18.9277 C   0  0  0  0  0  0  0  0  0  0  0  0
   -7.5380    4.6167  -17.6897 N   0  0  0  0  0  0  0  0  0  0  0  0
   -8.7332    4.0544  -17.3864 N   0  0  0  0  0  0  0  0  0  0  0  0
   -9.0113    4.1747  -16.1312 C   0  0  0  0  0  0  0  0  0  0  0  0
   -8.1580    4.7693  -15.0802 C   0  0  0  0  0  0  0  0  0  0  0  0
   -7.0048    5.3186  -15.4680 C   0  0  0  0  0  0  0  0  0  0  0  0
   -6.6772    5.2932  -16.8367 C   0  0  0  0  0  0  0  0  0  0  0  0
   -5.6778    5.8452  -17.4855 N   0  0  0  0  0  0  0  0  0  0  0  0
   -3.4238    7.1846  -21.1444 C   0  0  1  0  0  0  0  0  0  0  0  0
   -4.3785    7.5057  -22.2696 C   0  0  0  0  0  0  0  0  0  0  0  0
   -3.5414    8.5862  -21.6685 C   0  0  2  0  0  0  0  0  0  0  0  0
   -2.5003    9.0660  -22.4424 F   0  0  0  0  0  0  0  0  0  0  0  0
  1  2  2  0
  2  3  1  0
  3  4  1  0
  4  5  2  0
  5  6  1  0
  6  7  1  0
  7  8  2  0
  8  9  1  0
  9 10  2  0
 10 11  1  0
 11 12  2  0
 13  2  1  1
 13 14  1  0
 14 15  1  0
 15 16  1  6
 12  4  1  0
 15 13  1  0
 11  6  1  0
M  END
>  <energy_score>  (2884) 
-27.417348

>  <alias>  (2884) 
None

>  <HIPPO Pose ID>  (2884) 
75892

>  <smiles>  (2884) 
O=C(Nc1cn2ncccc2n1)[C@H]1C[C@@H]1F

>  <inchikey>  (2884) 
UCUHEMRCZCIEMK-BQBZGAKWSA-N

>  <distance_score>  (2884) 
1.804907

>  <ref_mols>  (2884) 
Z0719a,Z1597a

>  <ref_pdb>  (2884) 
Z0719a

>  <HIPPO Compound ID>  (2884) 
150713

>  <name>  (2884) 
P75892

>  <inspiration_score>  (2884) 
None

$$$$
P75902
     RDKit          3D

 16 17  0  0  0  0  0  0  0  0999 V2000
   -2.4962    7.7428  -20.8833 C   0  0  0  0  0  0  0  0  0  0  0  0
   -3.6021    7.0176  -20.6706 C   0  0  0  0  0  0  0  0  0  0  0  0
   -4.0650    6.5617  -19.3125 C   0  0  0  0  0  0  0  0  0  0  0  0
   -5.5955    6.6625  -19.1853 C   0  0  0  0  0  0  0  0  0  0  0  0
   -6.2565    7.3771  -19.8353 O   0  0  0  0  0  0  0  0  0  0  0  0
   -6.0053    5.5808  -18.1376 N   0  0  0  0  0  0  0  0  0  0  0  0
   -7.2339    5.1254  -17.7739 C   0  0  0  0  0  0  0  0  0  0  0  0
   -8.3282    5.2645  -18.5773 N   0  0  0  0  0  0  0  0  0  0  0  0
   -9.3767    4.6244  -17.9759 C   0  0  0  0  0  0  0  0  0  0  0  0
   -9.0281    4.1022  -16.8267 N   0  0  0  0  0  0  0  0  0  0  0  0
   -7.6978    4.4359  -16.6754 C   0  0  0  0  0  0  0  0  0  0  0  0
   -6.9750    4.0994  -15.4537 C   0  0  0  0  0  0  0  0  0  0  0  0
   -5.5983    4.0786  -15.4135 N   0  0  0  0  0  0  0  0  0  0  0  0
   -5.2678    3.6294  -14.2068 N   0  0  0  0  0  0  0  0  0  0  0  0
   -6.4447    3.4352  -13.5876 N   0  0  0  0  0  0  0  0  0  0  0  0
   -7.5310    3.7915  -14.2759 N   0  0  0  0  0  0  0  0  0  0  0  0
  1  2  2  0
  2  3  1  0
  3  4  1  0
  4  5  2  0
  4  6  1  0
  6  7  1  0
  7  8  1  0
  8  9  1  0
  9 10  2  0
 10 11  1  0
 11 12  1  0
 12 13  1  0
 13 14  2  0
 14 15  1  0
 15 16  1  0
 11  7  2  0
 16 12  2  0
M  END
>  <energy_score>  (2885) 
-27.557893

>  <alias>  (2885) 
None

>  <HIPPO Pose ID>  (2885) 
75902

>  <smiles>  (2885) 
C=CCC(=O)Nc1[nH]cnc1-c1nn[nH]n1

>  <inchikey>  (2885) 
UQXUXDJZLBTJMU-UHFFFAOYSA-N

>  <distance_score>  (2885) 
1.581612

>  <ref_mols>  (2885) 
Z0719a,Z1597a

>  <ref_pdb>  (2885) 
Z0719a

>  <HIPPO Compound ID>  (2885) 
150736

>  <name>  (2885) 
P75902

>  <inspiration_score>  (2885) 
None

$$$$
P75903
     RDKit          3D

 16 17  0  0  0  0  0  0  0  0999 V2000
   -0.6086    7.4241  -20.0239 C   0  0  0  0  0  0  0  0  0  0  0  0
   -1.7381    7.7227  -20.8355 O   0  0  0  0  0  0  0  0  0  0  0  0
   -2.9205    7.0548  -20.4139 C   0  0  2  0  0  0  0  0  0  0  0  0
   -3.9917    7.3716  -21.4547 C   0  0  0  0  0  0  0  0  0  0  0  0
   -3.4886    7.3957  -19.0050 C   0  0  0  0  0  0  0  0  0  0  0  0
   -3.1571    8.3193  -18.3681 O   0  0  0  0  0  0  0  0  0  0  0  0
   -4.5339    6.2800  -18.6984 N   0  0  0  0  0  0  0  0  0  0  0  0
   -5.2605    6.0412  -17.5846 C   0  0  0  0  0  0  0  0  0  0  0  0
   -6.0389    4.9297  -17.4085 C   0  0  0  0  0  0  0  0  0  0  0  0
   -6.7348    5.1885  -16.2634 N   0  0  0  0  0  0  0  0  0  0  0  0
   -7.8931    4.4526  -15.8129 C   0  0  0  0  0  0  0  0  0  0  0  0
   -9.0881    4.8108  -16.6431 C   0  0  0  0  0  0  0  0  0  0  0  0
   -9.0895    4.8778  -18.1699 C   0  0  0  0  0  0  0  0  0  0  0  0
   -9.8046    3.7858  -17.4746 C   0  0  0  0  0  0  0  0  0  0  0  0
   -6.2628    6.3518  -15.7376 C   0  0  0  0  0  0  0  0  0  0  0  0
   -5.3639    6.8910  -16.5288 N   0  0  0  0  0  0  0  0  0  0  0  0
  1  2  1  0
  2  3  1  0
  3  4  1  6
  3  5  1  0
  5  6  2  0
  5  7  1  0
  7  8  1  0
  8  9  2  0
  9 10  1  0
 10 11  1  0
 11 12  1  0
 12 13  1  0
 13 14  1  0
 10 15  1  0
 15 16  2  0
 16  8  1  0
 14 12  1  0
M  END
>  <energy_score>  (2886) 
-14.857692

>  <alias>  (2886) 
None

>  <HIPPO Pose ID>  (2886) 
75903

>  <smiles>  (2886) 
CO[C@H](C)C(=O)Nc1cn(CC2CC2)cn1

>  <inchikey>  (2886) 
VVDFIOYJSGTCLB-MRVPVSSYSA-N

>  <distance_score>  (2886) 
1.9777

>  <ref_mols>  (2886) 
Z0719a,Z1597a

>  <ref_pdb>  (2886) 
Z0719a

>  <HIPPO Compound ID>  (2886) 
150737

>  <name>  (2886) 
P75903

>  <inspiration_score>  (2886) 
None

$$$$
P75904
     RDKit          3D

 16 16  0  0  0  0  0  0  0  0999 V2000
   -2.1719    4.5588  -18.5824 C   0  0  0  0  0  0  0  0  0  0  0  0
   -3.5392    4.7837  -18.8827 O   0  0  0  0  0  0  0  0  0  0  0  0
   -3.9171    6.1441  -18.7014 C   0  0  1  0  0  0  0  0  0  0  0  0
   -3.8781    6.8344  -20.0694 C   0  0  0  0  0  0  0  0  0  0  0  0
   -5.3104    6.3359  -18.0516 C   0  0  0  0  0  0  0  0  0  0  0  0
   -6.0259    7.2163  -18.3551 O   0  0  0  0  0  0  0  0  0  0  0  0
   -5.4566    5.2503  -16.9359 N   0  0  0  0  0  0  0  0  0  0  0  0
   -6.4842    4.9897  -16.0915 C   0  0  0  0  0  0  0  0  0  0  0  0
   -7.6891    5.6094  -16.2999 N   0  0  0  0  0  0  0  0  0  0  0  0
   -8.4902    5.1226  -15.3844 C   0  0  0  0  0  0  0  0  0  0  0  0
   -7.8208    4.3095  -14.5266 N   0  0  0  0  0  0  0  0  0  0  0  0
   -8.2573    3.9225  -13.2077 C   0  0  0  0  0  0  0  0  0  0  0  0
   -6.5445    4.1561  -14.9993 C   0  0  0  0  0  0  0  0  0  0  0  0
   -5.4766    3.2563  -14.3215 C   0  0  0  0  0  0  0  0  0  0  0  0
   -5.9149    2.3457  -13.5512 O   0  0  0  0  0  0  0  0  0  0  0  0
   -4.2591    3.4835  -14.5943 O   0  0  0  0  0  0  0  0  0  0  0  0
  1  2  1  0
  2  3  1  0
  3  4  1  6
  3  5  1  0
  5  6  2  0
  5  7  1  0
  7  8  1  0
  8  9  1  0
  9 10  2  0
 10 11  1  0
 11 12  1  0
 11 13  1  0
 13 14  1  0
 14 15  2  0
 14 16  1  0
 13  8  2  0
M  CHG  1  16  -1
M  END
>  <energy_score>  (2887) 
-45.780573

>  <alias>  (2887) 
None

>  <HIPPO Pose ID>  (2887) 
75904

>  <smiles>  (2887) 
CO[C@@H](C)C(=O)Nc1ncn(C)c1C(=O)[O-]

>  <inchikey>  (2887) 
UDPGHIGOKRUFDE-YFKPBYRVSA-M

>  <distance_score>  (2887) 
1.962915

>  <ref_mols>  (2887) 
Z0719a,Z1597a

>  <ref_pdb>  (2887) 
Z0719a

>  <HIPPO Compound ID>  (2887) 
150739

>  <name>  (2887) 
P75904

>  <inspiration_score>  (2887) 
None

$$$$
P75909
     RDKit          3D

 16 17  0  0  0  0  0  0  0  0999 V2000
   -3.1723    7.9238  -21.8346 C   0  0  0  0  0  0  0  0  0  0  0  0
   -4.5992    7.6127  -21.3850 C   0  0  0  0  0  0  0  0  0  0  0  0
   -5.4483    7.3708  -22.6231 C   0  0  0  0  0  0  0  0  0  0  0  0
   -5.2824    9.2620  -20.4992 Br  0  0  0  0  0  0  0  0  0  0  0  0
   -4.5371    6.5608  -20.2382 C   0  0  0  0  0  0  0  0  0  0  0  0
   -3.4994    6.2570  -19.7847 O   0  0  0  0  0  0  0  0  0  0  0  0
   -5.9788    6.1545  -19.8178 N   0  0  0  0  0  0  0  0  0  0  0  0
   -6.4134    5.4197  -18.7690 C   0  0  0  0  0  0  0  0  0  0  0  0
   -7.7078    5.0379  -18.5207 C   0  0  0  0  0  0  0  0  0  0  0  0
   -7.7111    4.6499  -17.2179 N   0  0  0  0  0  0  0  0  0  0  0  0
   -8.8250    4.4330  -16.4757 N   0  0  0  0  0  0  0  0  0  0  0  0
   -8.5467    4.2888  -15.2222 C   0  0  0  0  0  0  0  0  0  0  0  0
   -7.2006    4.2646  -14.6098 C   0  0  0  0  0  0  0  0  0  0  0  0
   -6.1578    4.4871  -15.4121 C   0  0  0  0  0  0  0  0  0  0  0  0
   -6.4010    4.7390  -16.7747 C   0  0  0  0  0  0  0  0  0  0  0  0
   -5.5884    5.1414  -17.7230 N   0  0  0  0  0  0  0  0  0  0  0  0
  1  2  1  0
  2  3  1  0
  2  4  1  0
  2  5  1  0
  5  6  2  0
  5  7  1  0
  7  8  1  0
  8  9  2  0
  9 10  1  0
 10 11  1  0
 11 12  2  0
 12 13  1  0
 13 14  2  0
 14 15  1  0
 15 16  2  0
 16  8  1  0
 15 10  1  0
M  END
>  <energy_score>  (2888) 
-16.426101

>  <alias>  (2888) 
None

>  <HIPPO Pose ID>  (2888) 
75909

>  <smiles>  (2888) 
CC(C)(Br)C(=O)Nc1cn2ncccc2n1

>  <inchikey>  (2888) 
OAZXYRBHJCWSKZ-UHFFFAOYSA-N

>  <distance_score>  (2888) 
1.735926

>  <ref_mols>  (2888) 
Z0719a,Z1597a

>  <ref_pdb>  (2888) 
Z0719a

>  <HIPPO Compound ID>  (2888) 
150758

>  <name>  (2888) 
P75909

>  <inspiration_score>  (2888) 
None

$$$$
P75911
     RDKit          3D

 16 16  0  0  0  0  0  0  0  0999 V2000
   -2.8323    8.0562  -20.8648 C   0  0  0  0  0  0  0  0  0  0  0  0
   -3.9048    7.3138  -20.5387 C   0  0  0  0  0  0  0  0  0  0  0  0
   -5.2743    7.6839  -21.0364 C   0  0  0  0  0  0  0  0  0  0  0  0
   -3.7707    6.1009  -19.6504 C   0  0  0  0  0  0  0  0  0  0  0  0
   -4.6542    6.1363  -18.3978 C   0  0  0  0  0  0  0  0  0  0  0  0
   -4.2986    6.5926  -17.3809 O   0  0  0  0  0  0  0  0  0  0  0  0
   -5.9744    5.3916  -18.7642 N   0  0  0  0  0  0  0  0  0  0  0  0
   -7.0169    4.9993  -17.9771 C   0  0  0  0  0  0  0  0  0  0  0  0
   -8.2558    4.8101  -18.5283 N   0  0  0  0  0  0  0  0  0  0  0  0
   -9.1226    4.4868  -17.5276 C   0  0  0  0  0  0  0  0  0  0  0  0
   -8.5033    4.3974  -16.3782 N   0  0  0  0  0  0  0  0  0  0  0  0
   -7.1628    4.7002  -16.6291 C   0  0  0  0  0  0  0  0  0  0  0  0
   -6.0942    4.5548  -15.6252 C   0  0  0  0  0  0  0  0  0  0  0  0
   -4.9447    4.2362  -15.9295 O   0  0  0  0  0  0  0  0  0  0  0  0
   -6.4029    4.7226  -14.2970 O   0  0  0  0  0  0  0  0  0  0  0  0
   -7.6796    5.2060  -13.8636 C   0  0  0  0  0  0  0  0  0  0  0  0
  1  2  2  0
  2  3  1  0
  2  4  1  0
  4  5  1  0
  5  6  2  0
  5  7  1  0
  7  8  1  0
  8  9  1  0
  9 10  1  0
 10 11  2  0
 11 12  1  0
 12 13  1  0
 13 14  2  0
 13 15  1  0
 15 16  1  0
 12  8  2  0
M  END
>  <energy_score>  (2889) 
-20.446538

>  <alias>  (2889) 
None

>  <HIPPO Pose ID>  (2889) 
75911

>  <smiles>  (2889) 
C=C(C)CC(=O)Nc1[nH]cnc1C(=O)OC

>  <inchikey>  (2889) 
SFQFZOJCKVRJIW-UHFFFAOYSA-N

>  <distance_score>  (2889) 
1.652273

>  <ref_mols>  (2889) 
Z0719a,Z1597a

>  <ref_pdb>  (2889) 
Z0719a

>  <HIPPO Compound ID>  (2889) 
150760

>  <name>  (2889) 
P75911

>  <inspiration_score>  (2889) 
None

$$$$
P75913
     RDKit          3D

 16 17  0  0  0  0  0  0  0  0999 V2000
   -4.3086    7.7867  -21.7778 C   0  0  0  0  0  0  0  0  0  0  0  0
   -3.1971    7.2715  -20.8682 C   0  0  1  0  0  0  0  0  0  0  0  0
   -1.9594    8.1952  -20.8576 C   0  0  0  0  0  0  0  0  0  0  0  0
   -2.2767    9.9779  -20.6170 S   0  0  0  0  0  0  0  0  0  0  0  0
   -3.6828    6.9737  -19.4401 C   0  0  0  0  0  0  0  0  0  0  0  0
   -3.1588    7.4242  -18.4970 O   0  0  0  0  0  0  0  0  0  0  0  0
   -4.8951    6.0023  -19.5533 N   0  0  0  0  0  0  0  0  0  0  0  0
   -5.7095    5.5000  -18.5978 C   0  0  0  0  0  0  0  0  0  0  0  0
   -6.8467    4.7708  -18.8280 C   0  0  0  0  0  0  0  0  0  0  0  0
   -7.4304    4.6627  -17.6021 N   0  0  0  0  0  0  0  0  0  0  0  0
   -8.6838    4.2071  -17.2578 C   0  0  0  0  0  0  0  0  0  0  0  0
   -9.0210    4.2181  -15.9676 C   0  0  0  0  0  0  0  0  0  0  0  0
   -7.9704    4.6598  -15.0191 C   0  0  0  0  0  0  0  0  0  0  0  0
   -6.8024    5.1249  -15.3266 N   0  0  0  0  0  0  0  0  0  0  0  0
   -6.5334    5.1762  -16.6638 C   0  0  0  0  0  0  0  0  0  0  0  0
   -5.5051    5.7246  -17.2744 N   0  0  0  0  0  0  0  0  0  0  0  0
  2  1  1  6
  2  3  1  0
  3  4  1  0
  2  5  1  0
  5  6  2  0
  5  7  1  0
  7  8  1  0
  8  9  2  0
  9 10  1  0
 10 11  1  0
 11 12  2  0
 12 13  1  0
 13 14  2  0
 14 15  1  0
 15 16  2  0
 16  8  1  0
 15 10  1  0
M  END
>  <energy_score>  (2890) 
-18.689768

>  <alias>  (2890) 
None

>  <HIPPO Pose ID>  (2890) 
75913

>  <smiles>  (2890) 
C[C@@H](CS)C(=O)Nc1cn2cccnc2n1

>  <inchikey>  (2890) 
LRTBXERMQCJRTM-ZETCQYMHSA-N

>  <distance_score>  (2890) 
1.779368

>  <ref_mols>  (2890) 
Z0719a,Z1597a

>  <ref_pdb>  (2890) 
Z0719a

>  <HIPPO Compound ID>  (2890) 
150762

>  <name>  (2890) 
P75913

>  <inspiration_score>  (2890) 
None

$$$$
P75914
     RDKit          3D

 16 16  0  0  0  0  0  0  0  0999 V2000
  -10.2523    4.3997  -17.1412 C   0  0  0  0  0  0  0  0  0  0  0  0
   -8.9401    4.3167  -17.7584 C   0  0  0  0  0  0  0  0  0  0  0  0
   -8.7575    3.7288  -18.9125 N   0  0  0  0  0  0  0  0  0  0  0  0
   -7.5101    4.0753  -19.2915 C   0  0  0  0  0  0  0  0  0  0  0  0
   -6.8915    4.8230  -18.3258 C   0  0  0  0  0  0  0  0  0  0  0  0
   -5.6296    5.3038  -18.3888 N   0  0  0  0  0  0  0  0  0  0  0  0
   -4.9514    6.4587  -17.6059 C   0  0  0  0  0  0  0  0  0  0  0  0
   -5.3995    7.2215  -16.8428 O   0  0  0  0  0  0  0  0  0  0  0  0
   -3.4653    6.3861  -17.9260 C   0  0  2  0  0  0  0  0  0  0  0  0
   -3.1957    6.6105  -19.4264 C   0  0  0  0  0  0  0  0  0  0  0  0
   -2.8638    5.0638  -17.3934 C   0  0  0  0  0  0  0  0  0  0  0  0
   -3.5904    4.3884  -15.8291 S   0  0  0  0  0  0  0  0  0  0  0  0
   -7.7892    4.9013  -17.2859 N   0  0  0  0  0  0  0  0  0  0  0  0
   -7.5258    5.4888  -15.9773 C   0  0  0  0  0  0  0  0  0  0  0  0
   -8.3469    5.1142  -14.8263 C   0  0  0  0  0  0  0  0  0  0  0  0
   -8.9822    4.9348  -13.8704 N   0  0  0  0  0  0  0  0  0  0  0  0
  1  2  1  0
  2  3  2  0
  3  4  1  0
  4  5  2  0
  5  6  1  0
  6  7  1  0
  7  8  2  0
  7  9  1  0
  9 10  1  6
  9 11  1  0
 11 12  1  0
  5 13  1  0
 13 14  1  0
 14 15  1  0
 15 16  3  0
 13  2  1  0
M  END
>  <energy_score>  (2891) 
-19.645436

>  <alias>  (2891) 
None

>  <HIPPO Pose ID>  (2891) 
75914

>  <smiles>  (2891) 
Cc1ncc(NC(=O)[C@H](C)CS)n1CC#N

>  <inchikey>  (2891) 
OMRYMWNGEDOWLH-SSDOTTSWSA-N

>  <distance_score>  (2891) 
1.73538

>  <ref_mols>  (2891) 
Z0719a,Z1597a

>  <ref_pdb>  (2891) 
Z0719a

>  <HIPPO Compound ID>  (2891) 
150767

>  <name>  (2891) 
P75914

>  <inspiration_score>  (2891) 
None

$$$$
P75915
     RDKit          3D

 16 17  0  0  0  0  0  0  0  0999 V2000
   -4.0742    7.3448  -21.3671 C   0  0  0  0  0  0  0  0  0  0  0  0
   -2.9429    6.9618  -20.4100 C   0  0  1  0  0  0  0  0  0  0  0  0
   -1.6443    7.7181  -20.7033 C   0  0  0  0  0  0  0  0  0  0  0  0
   -0.8774    7.1276  -22.2495 S   0  0  0  0  0  0  0  0  0  0  0  0
   -3.3938    7.2410  -18.9742 C   0  0  0  0  0  0  0  0  0  0  0  0
   -2.9990    8.1289  -18.3251 O   0  0  0  0  0  0  0  0  0  0  0  0
   -4.4243    6.1259  -18.6367 N   0  0  0  0  0  0  0  0  0  0  0  0
   -5.1946    5.9461  -17.5418 C   0  0  0  0  0  0  0  0  0  0  0  0
   -6.0308    4.8764  -17.3752 C   0  0  0  0  0  0  0  0  0  0  0  0
   -6.7319    5.1712  -16.2431 N   0  0  0  0  0  0  0  0  0  0  0  0
   -7.9071    4.4656  -15.7880 C   0  0  0  0  0  0  0  0  0  0  0  0
   -9.0907    4.8223  -16.6344 C   0  0  0  0  0  0  0  0  0  0  0  0
   -9.0814    4.8851  -18.1614 C   0  0  0  0  0  0  0  0  0  0  0  0
   -9.7975    3.7923  -17.4684 C   0  0  0  0  0  0  0  0  0  0  0  0
   -6.2255    6.3229  -15.7232 C   0  0  0  0  0  0  0  0  0  0  0  0
   -5.2880    6.8153  -16.5010 N   0  0  0  0  0  0  0  0  0  0  0  0
  2  1  1  6
  2  3  1  0
  3  4  1  0
  2  5  1  0
  5  6  2  0
  5  7  1  0
  7  8  1  0
  8  9  2  0
  9 10  1  0
 10 11  1  0
 11 12  1  0
 12 13  1  0
 13 14  1  0
 10 15  1  0
 15 16  2  0
 16  8  1  0
 14 12  1  0
M  END
>  <energy_score>  (2892) 
-32.243249

>  <alias>  (2892) 
None

>  <HIPPO Pose ID>  (2892) 
75915

>  <smiles>  (2892) 
C[C@@H](CS)C(=O)Nc1cn(CC2CC2)cn1

>  <inchikey>  (2892) 
PLAMTHDNZYJMRG-QMMMGPOBSA-N

>  <distance_score>  (2892) 
1.955353

>  <ref_mols>  (2892) 
Z0719a,Z1597a

>  <ref_pdb>  (2892) 
Z0719a

>  <HIPPO Compound ID>  (2892) 
150768

>  <name>  (2892) 
P75915

>  <inspiration_score>  (2892) 
None

$$$$
P75917
     RDKit          3D

 16 17  0  0  0  0  0  0  0  0999 V2000
   -4.5747    8.2680  -21.5046 C   0  0  0  0  0  0  0  0  0  0  0  0
   -3.5715    7.1825  -21.1519 C   0  0  1  0  0  0  0  0  0  0  0  0
   -2.1361    7.6752  -21.3378 C   0  0  0  0  0  0  0  0  0  0  0  0
   -0.9853    6.2600  -21.3658 S   0  0  0  0  0  0  0  0  0  0  0  0
   -3.8371    6.7417  -19.7128 C   0  0  0  0  0  0  0  0  0  0  0  0
   -3.1899    7.1045  -18.8092 O   0  0  0  0  0  0  0  0  0  0  0  0
   -5.1230    5.8688  -19.7447 N   0  0  0  0  0  0  0  0  0  0  0  0
   -5.8750    5.3787  -18.7359 C   0  0  0  0  0  0  0  0  0  0  0  0
   -7.0259    4.6493  -18.8878 C   0  0  0  0  0  0  0  0  0  0  0  0
   -7.5459    4.5580  -17.6357 N   0  0  0  0  0  0  0  0  0  0  0  0
   -8.7695    4.0680  -17.3254 N   0  0  0  0  0  0  0  0  0  0  0  0
   -9.0098    4.1582  -16.0605 C   0  0  0  0  0  0  0  0  0  0  0  0
   -8.0960    4.6532  -15.0087 C   0  0  0  0  0  0  0  0  0  0  0  0
   -6.9131    5.1297  -15.4028 C   0  0  0  0  0  0  0  0  0  0  0  0
   -6.6179    5.1336  -16.7789 C   0  0  0  0  0  0  0  0  0  0  0  0
   -5.5986    5.6427  -17.4314 N   0  0  0  0  0  0  0  0  0  0  0  0
  2  1  1  1
  2  3  1  0
  3  4  1  0
  2  5  1  0
  5  6  2  0
  5  7  1  0
  7  8  1  0
  8  9  2  0
  9 10  1  0
 10 11  1  0
 11 12  2  0
 12 13  1  0
 13 14  2  0
 14 15  1  0
 15 16  2  0
 16  8  1  0
 15 10  1  0
M  END
>  <energy_score>  (2893) 
-14.47038

>  <alias>  (2893) 
None

>  <HIPPO Pose ID>  (2893) 
75917

>  <smiles>  (2893) 
C[C@@H](CS)C(=O)Nc1cn2ncccc2n1

>  <inchikey>  (2893) 
OSIGOKPFZGVIJS-ZETCQYMHSA-N

>  <distance_score>  (2893) 
1.764916

>  <ref_mols>  (2893) 
Z0719a,Z1597a

>  <ref_pdb>  (2893) 
Z0719a

>  <HIPPO Compound ID>  (2893) 
150773

>  <name>  (2893) 
P75917

>  <inspiration_score>  (2893) 
None

$$$$
P75920
     RDKit          3D

 16 16  0  0  0  0  0  0  0  0999 V2000
   -8.2548    4.1518  -13.3167 C   0  0  0  0  0  0  0  0  0  0  0  0
   -7.8281    4.3595  -14.6791 N   0  0  0  0  0  0  0  0  0  0  0  0
   -8.5583    4.9223  -15.6688 C   0  0  0  0  0  0  0  0  0  0  0  0
   -7.8119    5.1798  -16.7092 N   0  0  0  0  0  0  0  0  0  0  0  0
   -6.5553    4.6843  -16.4098 C   0  0  0  0  0  0  0  0  0  0  0  0
   -5.7379    4.8167  -17.4887 N   0  0  0  0  0  0  0  0  0  0  0  0
   -4.2050    4.6414  -17.6170 C   0  0  0  0  0  0  0  0  0  0  0  0
   -3.3965    4.4318  -16.8018 O   0  0  0  0  0  0  0  0  0  0  0  0
   -3.8720    4.7233  -19.0895 C   0  0  0  0  0  0  0  0  0  0  0  0
   -3.6957    6.1365  -19.5652 C   0  0  0  0  0  0  0  0  0  0  0  0
   -3.0333    6.1038  -20.7621 F   0  0  0  0  0  0  0  0  0  0  0  0
   -4.8889    6.7287  -19.7998 F   0  0  0  0  0  0  0  0  0  0  0  0
   -6.5507    4.1396  -15.1427 C   0  0  0  0  0  0  0  0  0  0  0  0
   -5.5577    3.3027  -14.2709 C   0  0  0  0  0  0  0  0  0  0  0  0
   -6.0644    2.2751  -13.7109 O   0  0  0  0  0  0  0  0  0  0  0  0
   -4.3799    3.7244  -14.1017 O   0  0  0  0  0  0  0  0  0  0  0  0
  1  2  1  0
  2  3  1  0
  3  4  2  0
  4  5  1  0
  5  6  1  0
  6  7  1  0
  7  8  2  0
  7  9  1  0
  9 10  1  0
 10 11  1  0
 10 12  1  0
  5 13  2  0
 13 14  1  0
 14 15  2  0
 14 16  1  0
 13  2  1  0
M  CHG  1  16  -1
M  END
>  <energy_score>  (2894) 
-10.656707

>  <alias>  (2894) 
None

>  <HIPPO Pose ID>  (2894) 
75920

>  <smiles>  (2894) 
Cn1cnc(NC(=O)CC(F)F)c1C(=O)[O-]

>  <inchikey>  (2894) 
ZZVXKFPRBCCWIF-UHFFFAOYSA-M

>  <distance_score>  (2894) 
1.761641

>  <ref_mols>  (2894) 
Z0719a,Z1597a

>  <ref_pdb>  (2894) 
Z0719a

>  <HIPPO Compound ID>  (2894) 
150778

>  <name>  (2894) 
P75920

>  <inspiration_score>  (2894) 
None

$$$$
P75921
     RDKit          3D

 16 16  0  0  0  0  0  0  0  0999 V2000
   -1.3100    5.2459  -20.1751 C   0  0  0  0  0  0  0  0  0  0  0  0
   -2.5051    5.3604  -19.2880 C   0  0  0  0  0  0  0  0  0  0  0  0
   -3.6073    6.1144  -19.4651 C   0  0  0  0  0  0  0  0  0  0  0  0
   -3.9506    7.0099  -20.6091 C   0  0  0  0  0  0  0  0  0  0  0  0
   -4.5508    6.1077  -18.2987 C   0  0  0  0  0  0  0  0  0  0  0  0
   -4.2503    6.5585  -17.2663 O   0  0  0  0  0  0  0  0  0  0  0  0
   -5.8371    5.3705  -18.7335 N   0  0  0  0  0  0  0  0  0  0  0  0
   -6.9208    4.9735  -18.0042 C   0  0  0  0  0  0  0  0  0  0  0  0
   -8.1372    4.7999  -18.6076 N   0  0  0  0  0  0  0  0  0  0  0  0
   -9.0492    4.4806  -17.6453 C   0  0  0  0  0  0  0  0  0  0  0  0
   -8.4813    4.3796  -16.4707 N   0  0  0  0  0  0  0  0  0  0  0  0
   -7.1290    4.6733  -16.6640 C   0  0  0  0  0  0  0  0  0  0  0  0
   -6.1085    4.5233  -15.6117 C   0  0  0  0  0  0  0  0  0  0  0  0
   -4.9544    4.1720  -15.8572 O   0  0  0  0  0  0  0  0  0  0  0  0
   -6.4748    4.7204  -14.3022 O   0  0  0  0  0  0  0  0  0  0  0  0
   -7.7509    5.2615  -13.9420 C   0  0  0  0  0  0  0  0  0  0  0  0
  1  2  1  0
  2  3  2  0
  3  4  1  0
  3  5  1  0
  5  6  2  0
  5  7  1  0
  7  8  1  0
  8  9  1  0
  9 10  1  0
 10 11  2  0
 11 12  1  0
 12 13  1  0
 13 14  2  0
 13 15  1  0
 15 16  1  0
 12  8  2  0
M  END
>  <energy_score>  (2895) 
-13.076315

>  <alias>  (2895) 
None

>  <HIPPO Pose ID>  (2895) 
75921

>  <smiles>  (2895) 
C/C=C(\C)C(=O)Nc1[nH]cnc1C(=O)OC

>  <inchikey>  (2895) 
RSPIDOFMLNRWFR-GQCTYLIASA-N

>  <distance_score>  (2895) 
1.864719

>  <ref_mols>  (2895) 
Z0719a,Z1597a

>  <ref_pdb>  (2895) 
Z0719a

>  <HIPPO Compound ID>  (2895) 
150780

>  <name>  (2895) 
P75921

>  <inspiration_score>  (2895) 
None

$$$$
P75926
     RDKit          3D

 16 17  0  0  0  0  0  0  0  0999 V2000
   -7.8609    5.9690   -9.0423 C   0  0  0  0  0  0  0  0  0  0  0  0
   -8.1004    5.0186  -10.1465 C   0  0  0  0  0  0  0  0  0  0  0  0
   -8.4900    3.7753   -9.9911 N   0  0  0  0  0  0  0  0  0  0  0  0
   -8.6558    3.2825  -11.2530 C   0  0  0  0  0  0  0  0  0  0  0  0
   -8.3650    4.2320  -12.2089 C   0  0  0  0  0  0  0  0  0  0  0  0
   -8.3807    4.0953  -13.5723 N   0  0  0  0  0  0  0  0  0  0  0  0
   -8.2942    5.1611  -14.6899 C   0  0  0  0  0  0  0  0  0  0  0  0
   -8.2737    6.3268  -14.6242 O   0  0  0  0  0  0  0  0  0  0  0  0
   -8.1196    4.4816  -16.0064 C   0  0  2  0  0  0  0  0  0  0  0  0
   -6.7170    4.5315  -16.5946 C   0  0  0  0  0  0  0  0  0  0  0  0
   -7.8424    5.1924  -17.3097 C   0  0  1  0  0  0  0  0  0  0  0  0
   -8.3725    4.5960  -18.5693 C   0  0  0  0  0  0  0  0  0  0  0  0
   -7.9141    5.3126  -11.4836 N   0  0  0  0  0  0  0  0  0  0  0  0
   -7.0928    6.4017  -11.9864 C   0  0  0  0  0  0  0  0  0  0  0  0
   -5.9859    5.8758  -12.8169 C   0  0  0  0  0  0  0  0  0  0  0  0
   -5.1716    5.3878  -13.4913 N   0  0  0  0  0  0  0  0  0  0  0  0
  1  2  1  0
  2  3  2  0
  3  4  1  0
  4  5  2  0
  5  6  1  0
  6  7  1  0
  7  8  2  0
  9  7  1  1
  9 10  1  0
 10 11  1  0
 11 12  1  6
  5 13  1  0
 13 14  1  0
 14 15  1  0
 15 16  3  0
 13  2  1  0
 11  9  1  0
M  END
>  <energy_score>  (2896) 
-24.582982

>  <alias>  (2896) 
None

>  <HIPPO Pose ID>  (2896) 
75926

>  <smiles>  (2896) 
Cc1ncc(NC(=O)[C@@H]2C[C@H]2C)n1CC#N

>  <inchikey>  (2896) 
OGOMJLBDEIBWAY-VXNVDRBHSA-N

>  <distance_score>  (2896) 
1.07687

>  <ref_mols>  (2896) 
Z0719a,Z1597a

>  <ref_pdb>  (2896) 
Z0719a

>  <HIPPO Compound ID>  (2896) 
150789

>  <name>  (2896) 
P75926

>  <inspiration_score>  (2896) 
None

$$$$
P75928
     RDKit          3D

 16 17  0  0  0  0  0  0  0  0999 V2000
   -5.0965    2.6876  -12.5484 C   0  0  0  0  0  0  0  0  0  0  0  0
   -6.6154    2.7874  -12.5587 C   0  0  0  0  0  0  0  0  0  0  0  0
   -7.1180    4.0181  -11.9610 N   0  0  0  0  0  0  0  0  0  0  0  0
   -7.4245    4.1918  -10.6167 C   0  0  0  0  0  0  0  0  0  0  0  0
   -7.2675    3.1595   -9.5645 C   0  0  0  0  0  0  0  0  0  0  0  0
   -7.9080    5.3979  -10.3936 N   0  0  0  0  0  0  0  0  0  0  0  0
   -8.0715    5.9649  -11.6247 C   0  0  0  0  0  0  0  0  0  0  0  0
   -8.6440    7.3207  -11.7445 C   0  0  0  0  0  0  0  0  0  0  0  0
   -7.6027    5.1304  -12.6202 C   0  0  0  0  0  0  0  0  0  0  0  0
   -7.6936    5.3140  -13.9724 N   0  0  0  0  0  0  0  0  0  0  0  0
   -6.7531    4.8749  -15.1048 C   0  0  0  0  0  0  0  0  0  0  0  0
   -5.7903    4.2209  -15.0757 O   0  0  0  0  0  0  0  0  0  0  0  0
   -7.3150    5.3416  -16.4129 C   0  0  1  0  0  0  0  0  0  0  0  0
   -6.8430    4.7331  -17.7082 C   0  0  0  0  0  0  0  0  0  0  0  0
   -8.1766    4.3252  -17.1439 C   0  0  2  0  0  0  0  0  0  0  0  0
   -9.4061    4.6302  -17.9090 C   0  0  0  0  0  0  0  0  0  0  0  0
  1  2  1  0
  2  3  1  0
  3  4  1  0
  4  5  1  0
  4  6  2  0
  6  7  1  0
  7  8  1  0
  7  9  2  0
  9 10  1  0
 10 11  1  0
 11 12  2  0
 13 11  1  1
 13 14  1  0
 14 15  1  0
 15 16  1  6
  9  3  1  0
 15 13  1  0
M  END
>  <energy_score>  (2897) 
-19.756776

>  <alias>  (2897) 
None

>  <HIPPO Pose ID>  (2897) 
75928

>  <smiles>  (2897) 
CCn1c(C)nc(C)c1NC(=O)[C@H]1C[C@@H]1C

>  <inchikey>  (2897) 
QODRJRMWAHCQQS-XVKPBYJWSA-N

>  <distance_score>  (2897) 
1.282919

>  <ref_mols>  (2897) 
Z0719a,Z1597a

>  <ref_pdb>  (2897) 
Z0719a

>  <HIPPO Compound ID>  (2897) 
150790

>  <name>  (2897) 
P75928

>  <inspiration_score>  (2897) 
None

$$$$
P75935
     RDKit          3D

 16 18  0  0  0  0  0  0  0  0999 V2000
   -2.4252    9.2409  -22.4418 C   0  0  0  0  0  0  0  0  0  0  0  0
   -3.5417    8.6078  -21.6852 C   0  0  1  0  0  0  0  0  0  0  0  0
   -4.3264    7.4771  -22.2858 C   0  0  0  0  0  0  0  0  0  0  0  0
   -3.3885    7.2036  -21.1334 C   0  0  2  0  0  0  0  0  0  0  0  0
   -3.8866    6.9203  -19.7550 C   0  0  0  0  0  0  0  0  0  0  0  0
   -3.3382    7.4165  -18.8558 O   0  0  0  0  0  0  0  0  0  0  0  0
   -5.0808    5.9549  -19.7838 N   0  0  0  0  0  0  0  0  0  0  0  0
   -5.8652    5.4971  -18.7813 C   0  0  0  0  0  0  0  0  0  0  0  0
   -6.9643    4.6897  -18.9343 C   0  0  0  0  0  0  0  0  0  0  0  0
   -7.5253    4.6226  -17.6969 N   0  0  0  0  0  0  0  0  0  0  0  0
   -8.7220    4.0593  -17.3989 N   0  0  0  0  0  0  0  0  0  0  0  0
   -9.0031    4.1742  -16.1438 C   0  0  0  0  0  0  0  0  0  0  0  0
   -8.1505    4.7614  -15.0879 C   0  0  0  0  0  0  0  0  0  0  0  0
   -6.9941    5.3082  -15.4700 C   0  0  0  0  0  0  0  0  0  0  0  0
   -6.6634    5.2896  -16.8380 C   0  0  0  0  0  0  0  0  0  0  0  0
   -5.6599    5.8408  -17.4814 N   0  0  0  0  0  0  0  0  0  0  0  0
  2  1  1  6
  2  3  1  0
  3  4  1  0
  4  5  1  1
  5  6  2  0
  5  7  1  0
  7  8  1  0
  8  9  2  0
  9 10  1  0
 10 11  1  0
 11 12  2  0
 12 13  1  0
 13 14  2  0
 14 15  1  0
 15 16  2  0
  4  2  1  0
 16  8  1  0
 15 10  1  0
M  END
>  <energy_score>  (2898) 
-20.301424

>  <alias>  (2898) 
None

>  <HIPPO Pose ID>  (2898) 
75935

>  <smiles>  (2898) 
C[C@H]1C[C@@H]1C(=O)Nc1cn2ncccc2n1

>  <inchikey>  (2898) 
IGFMGQPHRMAWFC-YUMQZZPRSA-N

>  <distance_score>  (2898) 
1.809087

>  <ref_mols>  (2898) 
Z0719a,Z1597a

>  <ref_pdb>  (2898) 
Z0719a

>  <HIPPO Compound ID>  (2898) 
150793

>  <name>  (2898) 
P75935

>  <inspiration_score>  (2898) 
None

$$$$
P75939
     RDKit          3D

 16 17  0  0  0  0  0  0  0  0999 V2000
   -3.8313    7.2321  -23.9385 C   0  0  0  0  0  0  0  0  0  0  0  0
   -3.8556    7.5953  -22.6489 C   0  0  0  0  0  0  0  0  0  0  0  0
   -5.0620    7.4946  -21.7657 C   0  0  0  0  0  0  0  0  0  0  0  0
   -4.7013    6.7175  -20.4967 C   0  0  0  0  0  0  0  0  0  0  0  0
   -3.6214    6.6958  -20.0441 O   0  0  0  0  0  0  0  0  0  0  0  0
   -6.0257    6.0920  -19.9744 N   0  0  0  0  0  0  0  0  0  0  0  0
   -6.2914    5.4426  -18.8281 C   0  0  0  0  0  0  0  0  0  0  0  0
   -7.5308    5.0340  -18.4003 C   0  0  0  0  0  0  0  0  0  0  0  0
   -7.3358    4.7126  -17.0929 N   0  0  0  0  0  0  0  0  0  0  0  0
   -8.3080    4.6203  -16.1543 N   0  0  0  0  0  0  0  0  0  0  0  0
   -7.8083    4.5075  -14.9673 C   0  0  0  0  0  0  0  0  0  0  0  0
   -8.8809    4.7283  -13.6615 Cl  0  0  0  0  0  0  0  0  0  0  0  0
   -6.3829    4.3115  -14.6166 C   0  0  0  0  0  0  0  0  0  0  0  0
   -5.4909    4.4706  -15.5902 C   0  0  0  0  0  0  0  0  0  0  0  0
   -5.9666    4.7726  -16.8733 C   0  0  0  0  0  0  0  0  0  0  0  0
   -5.3163    5.2120  -17.9173 N   0  0  0  0  0  0  0  0  0  0  0  0
  1  2  2  0
  2  3  1  0
  3  4  1  0
  4  5  2  0
  4  6  1  0
  6  7  1  0
  7  8  2  0
  8  9  1  0
  9 10  1  0
 10 11  2  0
 11 12  1  0
 11 13  1  0
 13 14  2  0
 14 15  1  0
 15 16  2  0
 16  7  1  0
 15  9  1  0
M  END
>  <energy_score>  (2899) 
-4.525712

>  <alias>  (2899) 
None

>  <HIPPO Pose ID>  (2899) 
75939

>  <smiles>  (2899) 
C=CCC(=O)Nc1cn2nc(Cl)ccc2n1

>  <inchikey>  (2899) 
QEXDKUVJSTWRTI-UHFFFAOYSA-N

>  <distance_score>  (2899) 
1.953297

>  <ref_mols>  (2899) 
Z0719a,Z1597a

>  <ref_pdb>  (2899) 
Z0719a

>  <HIPPO Compound ID>  (2899) 
150799

>  <name>  (2899) 
P75939

>  <inspiration_score>  (2899) 
None

$$$$
P75941
     RDKit          3D

 16 17  0  0  0  0  0  0  0  0999 V2000
    0.2613    0.9672  -12.5089 C   0  0  0  0  0  0  0  0  0  0  0  0
   -0.8885    0.7988  -11.8424 C   0  0  0  0  0  0  0  0  0  0  0  0
   -1.5692    1.8689  -11.0404 C   0  0  0  0  0  0  0  0  0  0  0  0
   -2.9693    2.1702  -11.5862 C   0  0  0  0  0  0  0  0  0  0  0  0
   -3.9421    1.7374  -11.1073 O   0  0  0  0  0  0  0  0  0  0  0  0
   -2.7822    3.1206  -12.8020 N   0  0  0  0  0  0  0  0  0  0  0  0
   -3.7008    3.7650  -13.5665 C   0  0  0  0  0  0  0  0  0  0  0  0
   -3.2739    4.8212  -14.3502 N   0  0  0  0  0  0  0  0  0  0  0  0
   -4.3773    5.2714  -14.8788 C   0  0  0  0  0  0  0  0  0  0  0  0
   -5.4652    4.5652  -14.4966 N   0  0  0  0  0  0  0  0  0  0  0  0
   -5.0597    3.5432  -13.7051 C   0  0  0  0  0  0  0  0  0  0  0  0
   -5.9143    2.5042  -13.2697 C   0  0  0  0  0  0  0  0  0  0  0  0
   -6.7044    1.6800  -13.0705 N   0  0  0  0  0  0  0  0  0  0  0  0
   -6.7499    4.9534  -15.0270 C   0  0  0  0  0  0  0  0  0  0  0  0
   -6.5624    6.3443  -15.6391 C   0  0  0  0  0  0  0  0  0  0  0  0
   -4.7587    6.5662  -15.9369 S   0  0  0  0  0  0  0  0  0  0  0  0
  1  2  2  0
  2  3  1  0
  3  4  1  0
  4  5  2  0
  4  6  1  0
  6  7  1  0
  7  8  1  0
  8  9  2  0
  9 10  1  0
 10 11  1  0
 11 12  1  0
 12 13  3  0
 10 14  1  0
 14 15  1  0
 15 16  1  0
 11  7  2  0
 16  9  1  0
M  END
>  <energy_score>  (2900) 
-24.462056

>  <alias>  (2900) 
None

>  <HIPPO Pose ID>  (2900) 
75941

>  <smiles>  (2900) 
C=CCC(=O)Nc1nc2n(c1C#N)CCS2

>  <inchikey>  (2900) 
RLHQISAKUAAOEW-UHFFFAOYSA-N

>  <distance_score>  (2900) 
1.237572

>  <ref_mols>  (2900) 
Z0719a,Z1597a

>  <ref_pdb>  (2900) 
Z0719a

>  <HIPPO Compound ID>  (2900) 
150805

>  <name>  (2900) 
P75941

>  <inspiration_score>  (2900) 
None

$$$$
P75942
     RDKit          3D

 16 16  0  0  0  0  0  0  0  0999 V2000
   -7.0492    6.6205  -14.0597 C   0  0  0  0  0  0  0  0  0  0  0  0
   -6.2566    5.9803  -15.1934 C   0  0  0  0  0  0  0  0  0  0  0  0
   -7.0178    5.0628  -15.9968 N   0  0  0  0  0  0  0  0  0  0  0  0
   -7.9124    4.1468  -15.4938 C   0  0  0  0  0  0  0  0  0  0  0  0
   -7.8058    3.5832  -14.1215 C   0  0  0  0  0  0  0  0  0  0  0  0
   -8.8255    3.8736  -16.4018 N   0  0  0  0  0  0  0  0  0  0  0  0
   -8.3607    4.4426  -17.5621 C   0  0  0  0  0  0  0  0  0  0  0  0
   -9.0891    4.2395  -18.8135 C   0  0  0  0  0  0  0  0  0  0  0  0
   -7.1438    5.0552  -17.3576 C   0  0  0  0  0  0  0  0  0  0  0  0
   -6.2461    5.4830  -18.2950 N   0  0  0  0  0  0  0  0  0  0  0  0
   -4.7498    5.8945  -18.1493 C   0  0  0  0  0  0  0  0  0  0  0  0
   -4.0825    6.0032  -17.1932 O   0  0  0  0  0  0  0  0  0  0  0  0
   -4.1782    6.0560  -19.5401 C   0  0  0  0  0  0  0  0  0  0  0  0
   -4.6836    7.2619  -20.2780 C   0  0  0  0  0  0  0  0  0  0  0  0
   -6.0265    7.3815  -20.2070 F   0  0  0  0  0  0  0  0  0  0  0  0
   -4.1675    8.3895  -19.7248 F   0  0  0  0  0  0  0  0  0  0  0  0
  1  2  1  0
  2  3  1  0
  3  4  1  0
  4  5  1  0
  4  6  2  0
  6  7  1  0
  7  8  1  0
  7  9  2  0
  9 10  1  0
 10 11  1  0
 11 12  2  0
 11 13  1  0
 13 14  1  0
 14 15  1  0
 14 16  1  0
  9  3  1  0
M  END
>  <energy_score>  (2901) 
-9.32741

>  <alias>  (2901) 
None

>  <HIPPO Pose ID>  (2901) 
75942

>  <smiles>  (2901) 
CCn1c(C)nc(C)c1NC(=O)CC(F)F

>  <inchikey>  (2901) 
LKMLZYNATYANMC-UHFFFAOYSA-N

>  <distance_score>  (2901) 
1.446806

>  <ref_mols>  (2901) 
Z0719a,Z1597a

>  <ref_pdb>  (2901) 
Z0719a

>  <HIPPO Compound ID>  (2901) 
150810

>  <name>  (2901) 
P75942

>  <inspiration_score>  (2901) 
None

$$$$
P75944
     RDKit          3D

 16 17  0  0  0  0  0  0  0  0999 V2000
   -7.8459    5.9771   -9.0438 C   0  0  0  0  0  0  0  0  0  0  0  0
   -8.0923    5.0202  -10.1404 C   0  0  0  0  0  0  0  0  0  0  0  0
   -8.5017    3.7851   -9.9736 N   0  0  0  0  0  0  0  0  0  0  0  0
   -8.6551    3.2762  -11.2304 C   0  0  0  0  0  0  0  0  0  0  0  0
   -8.3452    4.2109  -12.1947 C   0  0  0  0  0  0  0  0  0  0  0  0
   -8.3454    4.0517  -13.5551 N   0  0  0  0  0  0  0  0  0  0  0  0
   -8.2392    5.0985  -14.6897 C   0  0  0  0  0  0  0  0  0  0  0  0
   -8.2127    6.2654  -14.6431 O   0  0  0  0  0  0  0  0  0  0  0  0
   -8.0538    4.4013  -15.9857 C   0  0  2  0  0  0  0  0  0  0  0  0
   -6.6906    4.5357  -16.6465 C   0  0  0  0  0  0  0  0  0  0  0  0
   -7.8954    5.1008  -17.3022 C   0  0  1  0  0  0  0  0  0  0  0  0
   -8.6045    4.3034  -18.6767 Cl  0  0  0  0  0  0  0  0  0  0  0  0
   -7.8927    5.2970  -11.4793 N   0  0  0  0  0  0  0  0  0  0  0  0
   -7.0694    6.3812  -11.9892 C   0  0  0  0  0  0  0  0  0  0  0  0
   -5.9665    5.8548  -12.8243 C   0  0  0  0  0  0  0  0  0  0  0  0
   -5.1615    5.3731  -13.5142 N   0  0  0  0  0  0  0  0  0  0  0  0
  1  2  1  0
  2  3  2  0
  3  4  1  0
  4  5  2  0
  5  6  1  0
  6  7  1  0
  7  8  2  0
  9  7  1  1
  9 10  1  0
 10 11  1  0
 11 12  1  6
  5 13  1  0
 13 14  1  0
 14 15  1  0
 15 16  3  0
 13  2  1  0
 11  9  1  0
M  END
>  <energy_score>  (2902) 
-22.982044

>  <alias>  (2902) 
None

>  <HIPPO Pose ID>  (2902) 
75944

>  <smiles>  (2902) 
Cc1ncc(NC(=O)[C@@H]2C[C@H]2Cl)n1CC#N

>  <inchikey>  (2902) 
QZLJPSCVBHSYRM-HTQZYQBOSA-N

>  <distance_score>  (2902) 
1.053286

>  <ref_mols>  (2902) 
Z0719a,Z1597a

>  <ref_pdb>  (2902) 
Z0719a

>  <HIPPO Compound ID>  (2902) 
150815

>  <name>  (2902) 
P75944

>  <inspiration_score>  (2902) 
None

$$$$
P75945
     RDKit          3D

 16 17  0  0  0  0  0  0  0  0999 V2000
   -7.7225    3.1885   -9.4092 C   0  0  0  0  0  0  0  0  0  0  0  0
   -7.7440    4.0612  -10.6070 C   0  0  0  0  0  0  0  0  0  0  0  0
   -8.0015    5.3549  -10.5879 N   0  0  0  0  0  0  0  0  0  0  0  0
   -7.9988    5.7574  -11.9051 C   0  0  0  0  0  0  0  0  0  0  0  0
   -8.3385    7.1092  -12.2282 C   0  0  0  0  0  0  0  0  0  0  0  0
   -8.6336    8.2108  -12.4588 N   0  0  0  0  0  0  0  0  0  0  0  0
   -7.7158    4.6994  -12.7472 C   0  0  0  0  0  0  0  0  0  0  0  0
   -7.6256    4.5571  -14.1075 N   0  0  0  0  0  0  0  0  0  0  0  0
   -7.3742    5.6104  -15.2144 C   0  0  0  0  0  0  0  0  0  0  0  0
   -7.2817    6.7748  -15.1460 O   0  0  0  0  0  0  0  0  0  0  0  0
   -7.1721    4.7919  -16.5473 C   0  0  2  0  0  0  0  0  0  0  0  0
   -7.0920    5.5259  -17.8810 C   0  0  0  0  0  0  0  0  0  0  0  0
   -8.2795    4.6664  -18.2887 C   0  0  0  0  0  0  0  0  0  0  0  0
   -8.3649    4.0664  -16.9709 O   0  0  0  0  0  0  0  0  0  0  0  0
   -7.4806    3.6391  -11.8933 N   0  0  0  0  0  0  0  0  0  0  0  0
   -6.8914    2.3783  -12.2985 C   0  0  0  0  0  0  0  0  0  0  0  0
  1  2  1  0
  2  3  2  0
  3  4  1  0
  4  5  1  0
  5  6  3  0
  4  7  2  0
  7  8  1  0
  8  9  1  0
  9 10  2  0
 11  9  1  1
 11 12  1  0
 12 13  1  0
 13 14  1  0
  7 15  1  0
 15 16  1  0
 15  2  1  0
 14 11  1  0
M  END
>  <energy_score>  (2903) 
-24.296196

>  <alias>  (2903) 
None

>  <HIPPO Pose ID>  (2903) 
75945

>  <smiles>  (2903) 
Cc1nc(C#N)c(NC(=O)[C@@H]2CCO2)n1C

>  <inchikey>  (2903) 
MGQDKZWLPDITDD-QMMMGPOBSA-N

>  <distance_score>  (2903) 
1.45309

>  <ref_mols>  (2903) 
Z0719a,Z1597a

>  <ref_pdb>  (2903) 
Z0719a

>  <HIPPO Compound ID>  (2903) 
150826

>  <name>  (2903) 
P75945

>  <inspiration_score>  (2903) 
None

$$$$
P75951
     RDKit          3D

 16 17  0  0  0  0  0  0  0  0999 V2000
   -5.1166    2.6827  -12.5462 C   0  0  0  0  0  0  0  0  0  0  0  0
   -6.6333    2.8146  -12.5547 C   0  0  0  0  0  0  0  0  0  0  0  0
   -7.1107    4.0395  -11.9249 N   0  0  0  0  0  0  0  0  0  0  0  0
   -7.4337    4.1709  -10.5788 C   0  0  0  0  0  0  0  0  0  0  0  0
   -7.3114    3.1010   -9.5604 C   0  0  0  0  0  0  0  0  0  0  0  0
   -7.9031    5.3744  -10.3188 N   0  0  0  0  0  0  0  0  0  0  0  0
   -8.0381    5.9881  -11.5293 C   0  0  0  0  0  0  0  0  0  0  0  0
   -8.6044    7.3499  -11.6095 C   0  0  0  0  0  0  0  0  0  0  0  0
   -7.5527    5.1904  -12.5477 C   0  0  0  0  0  0  0  0  0  0  0  0
   -7.6022    5.4622  -13.8872 N   0  0  0  0  0  0  0  0  0  0  0  0
   -6.7386    4.9383  -15.0446 C   0  0  0  0  0  0  0  0  0  0  0  0
   -5.7985    4.2517  -15.0344 O   0  0  0  0  0  0  0  0  0  0  0  0
   -7.3445    5.3596  -16.3409 C   0  0  1  0  0  0  0  0  0  0  0  0
   -6.8722    4.7811  -17.6500 C   0  0  0  0  0  0  0  0  0  0  0  0
   -8.1366    4.2807  -17.0235 C   0  0  2  0  0  0  0  0  0  0  0  0
   -9.6366    4.5361  -17.8323 Cl  0  0  0  0  0  0  0  0  0  0  0  0
  1  2  1  0
  2  3  1  0
  3  4  1  0
  4  5  1  0
  4  6  2  0
  6  7  1  0
  7  8  1  0
  7  9  2  0
  9 10  1  0
 10 11  1  0
 11 12  2  0
 13 11  1  1
 13 14  1  0
 14 15  1  0
 15 16  1  6
  9  3  1  0
 15 13  1  0
M  END
>  <energy_score>  (2904) 
-24.765218

>  <alias>  (2904) 
None

>  <HIPPO Pose ID>  (2904) 
75951

>  <smiles>  (2904) 
CCn1c(C)nc(C)c1NC(=O)[C@H]1C[C@@H]1Cl

>  <inchikey>  (2904) 
MHCBSZHCYLKREH-IUCAKERBSA-N

>  <distance_score>  (2904) 
1.233116

>  <ref_mols>  (2904) 
Z0719a,Z1597a

>  <ref_pdb>  (2904) 
Z0719a

>  <HIPPO Compound ID>  (2904) 
150834

>  <name>  (2904) 
P75951

>  <inspiration_score>  (2904) 
None

$$$$
P75954
     RDKit          3D

 16 17  0  0  0  0  0  0  0  0999 V2000
   -5.7386    2.1585  -10.6531 C   0  0  0  0  0  0  0  0  0  0  0  0
   -6.7913    3.0729  -11.1539 C   0  0  0  0  0  0  0  0  0  0  0  0
   -7.3680    2.9452  -12.3264 N   0  0  0  0  0  0  0  0  0  0  0  0
   -7.9256    4.1586  -12.5727 C   0  0  0  0  0  0  0  0  0  0  0  0
   -8.3229    4.3723  -13.8377 N   0  0  0  0  0  0  0  0  0  0  0  0
   -8.5358    5.6704  -14.6016 C   0  0  0  0  0  0  0  0  0  0  0  0
   -8.4778    6.7721  -14.2442 O   0  0  0  0  0  0  0  0  0  0  0  0
   -8.7865    5.4094  -16.0280 C   0  0  1  0  0  0  0  0  0  0  0  0
   -7.6156    5.6147  -16.9892 C   0  0  0  0  0  0  0  0  0  0  0  0
   -8.2374    4.2750  -16.8187 C   0  0  2  0  0  0  0  0  0  0  0  0
   -9.2552    3.6676  -18.0915 Cl  0  0  0  0  0  0  0  0  0  0  0  0
   -7.8474    4.9948  -11.4881 C   0  0  0  0  0  0  0  0  0  0  0  0
   -8.2591    6.3427  -11.3145 C   0  0  0  0  0  0  0  0  0  0  0  0
   -8.5454    7.4405  -11.0707 N   0  0  0  0  0  0  0  0  0  0  0  0
   -7.2453    4.2138  -10.5273 N   0  0  0  0  0  0  0  0  0  0  0  0
   -7.0597    4.5994   -9.1533 C   0  0  0  0  0  0  0  0  0  0  0  0
  1  2  1  0
  2  3  2  0
  3  4  1  0
  4  5  1  0
  5  6  1  0
  6  7  2  0
  8  6  1  1
  8  9  1  0
  9 10  1  0
 10 11  1  6
  4 12  2  0
 12 13  1  0
 13 14  3  0
 12 15  1  0
 15 16  1  0
 15  2  1  0
 10  8  1  0
M  END
>  <energy_score>  (2905) 
-13.184669

>  <alias>  (2905) 
None

>  <HIPPO Pose ID>  (2905) 
75954

>  <smiles>  (2905) 
Cc1nc(NC(=O)[C@H]2C[C@@H]2Cl)c(C#N)n1C

>  <inchikey>  (2905) 
JWXZNDHCQDUILQ-BQBZGAKWSA-N

>  <distance_score>  (2905) 
1.621457

>  <ref_mols>  (2905) 
Z0719a,Z1597a

>  <ref_pdb>  (2905) 
Z0719a

>  <HIPPO Compound ID>  (2905) 
150835

>  <name>  (2905) 
P75954

>  <inspiration_score>  (2905) 
None

$$$$
P75955
     RDKit          3D

 16 17  0  0  0  0  0  0  0  0999 V2000
   -7.2181    3.1538   -9.3302 C   0  0  0  0  0  0  0  0  0  0  0  0
   -7.3905    4.2025  -10.3616 C   0  0  0  0  0  0  0  0  0  0  0  0
   -7.9647    5.3677  -10.1335 N   0  0  0  0  0  0  0  0  0  0  0  0
   -8.0629    5.9574  -11.3562 C   0  0  0  0  0  0  0  0  0  0  0  0
   -8.6453    7.2511  -11.5241 C   0  0  0  0  0  0  0  0  0  0  0  0
   -9.0843    8.3029  -11.7534 N   0  0  0  0  0  0  0  0  0  0  0  0
   -7.4941    5.1878  -12.3529 C   0  0  0  0  0  0  0  0  0  0  0  0
   -7.5218    5.4529  -13.7001 N   0  0  0  0  0  0  0  0  0  0  0  0
   -6.7297    4.8271  -14.8565 C   0  0  0  0  0  0  0  0  0  0  0  0
   -5.8717    4.0407  -14.8451 O   0  0  0  0  0  0  0  0  0  0  0  0
   -7.3001    5.3078  -16.1555 C   0  0  1  0  0  0  0  0  0  0  0  0
   -6.7880    4.7891  -17.4746 C   0  0  0  0  0  0  0  0  0  0  0  0
   -8.0722    4.2642  -16.9105 C   0  0  2  0  0  0  0  0  0  0  0  0
   -9.5448    4.5482  -17.7586 Cl  0  0  0  0  0  0  0  0  0  0  0  0
   -6.9685    4.0989  -11.6825 N   0  0  0  0  0  0  0  0  0  0  0  0
   -6.1969    2.9999  -12.2352 C   0  0  0  0  0  0  0  0  0  0  0  0
  1  2  1  0
  2  3  2  0
  3  4  1  0
  4  5  1  0
  5  6  3  0
  4  7  2  0
  7  8  1  0
  8  9  1  0
  9 10  2  0
 11  9  1  1
 11 12  1  0
 12 13  1  0
 13 14  1  6
  7 15  1  0
 15 16  1  0
 15  2  1  0
 13 11  1  0
M  END
>  <energy_score>  (2906) 
-25.488423

>  <alias>  (2906) 
None

>  <HIPPO Pose ID>  (2906) 
75955

>  <smiles>  (2906) 
Cc1nc(C#N)c(NC(=O)[C@H]2C[C@@H]2Cl)n1C

>  <inchikey>  (2906) 
KXLWMCCDLNYQKU-BQBZGAKWSA-N

>  <distance_score>  (2906) 
1.307791

>  <ref_mols>  (2906) 
Z0719a,Z1597a

>  <ref_pdb>  (2906) 
Z0719a

>  <HIPPO Compound ID>  (2906) 
150836

>  <name>  (2906) 
P75955

>  <inspiration_score>  (2906) 
None

$$$$
P75962
     RDKit          3D

 16 18  0  0  0  0  0  0  0  0999 V2000
   -3.2509    7.2711  -18.9779 O   0  0  0  0  0  0  0  0  0  0  0  0
   -3.9074    6.8297  -19.8314 C   0  0  0  0  0  0  0  0  0  0  0  0
   -5.1377    5.9126  -19.7689 N   0  0  0  0  0  0  0  0  0  0  0  0
   -5.8356    5.4489  -18.7061 C   0  0  0  0  0  0  0  0  0  0  0  0
   -7.0091    4.7415  -18.7750 C   0  0  0  0  0  0  0  0  0  0  0  0
   -7.4431    4.6794  -17.4848 N   0  0  0  0  0  0  0  0  0  0  0  0
   -8.6589    4.2735  -16.9753 C   0  0  0  0  0  0  0  0  0  0  0  0
   -8.8408    4.3437  -15.6547 C   0  0  0  0  0  0  0  0  0  0  0  0
   -7.6716    4.7821  -14.8568 C   0  0  0  0  0  0  0  0  0  0  0  0
   -6.5363    5.1969  -15.3182 N   0  0  0  0  0  0  0  0  0  0  0  0
   -6.4275    5.1970  -16.6786 C   0  0  0  0  0  0  0  0  0  0  0  0
   -5.4673    5.7019  -17.4238 N   0  0  0  0  0  0  0  0  0  0  0  0
   -3.5669    7.1848  -21.2340 C   0  0  1  0  0  0  0  0  0  0  0  0
   -4.6274    7.5674  -22.2358 C   0  0  0  0  0  0  0  0  0  0  0  0
   -3.7369    8.6218  -21.6539 C   0  0  2  0  0  0  0  0  0  0  0  0
   -2.5404    9.3666  -22.6829 Cl  0  0  0  0  0  0  0  0  0  0  0  0
  1  2  2  0
  2  3  1  0
  3  4  1  0
  4  5  2  0
  5  6  1  0
  6  7  1  0
  7  8  2  0
  8  9  1  0
  9 10  2  0
 10 11  1  0
 11 12  2  0
 13  2  1  1
 13 14  1  0
 14 15  1  0
 15 16  1  6
 12  4  1  0
 15 13  1  0
 11  6  1  0
M  END
>  <energy_score>  (2907) 
-1.043863

>  <alias>  (2907) 
None

>  <HIPPO Pose ID>  (2907) 
75962

>  <smiles>  (2907) 
O=C(Nc1cn2cccnc2n1)[C@H]1C[C@@H]1Cl

>  <inchikey>  (2907) 
PUVKWJUBGFAMFO-BQBZGAKWSA-N

>  <distance_score>  (2907) 
1.706803

>  <ref_mols>  (2907) 
Z0719a,Z1597a

>  <ref_pdb>  (2907) 
Z0719a

>  <HIPPO Compound ID>  (2907) 
150838

>  <name>  (2907) 
P75962

>  <inspiration_score>  (2907) 
None

$$$$
P75964
     RDKit          3D

 16 16  0  0  0  0  0  0  0  0999 V2000
   -7.7193    5.1192  -13.9277 C   0  0  0  0  0  0  0  0  0  0  0  0
   -6.4031    4.6912  -14.2965 O   0  0  0  0  0  0  0  0  0  0  0  0
   -6.0127    4.5748  -15.6078 C   0  0  0  0  0  0  0  0  0  0  0  0
   -4.8381    4.3010  -15.8563 O   0  0  0  0  0  0  0  0  0  0  0  0
   -7.0239    4.7175  -16.6694 C   0  0  0  0  0  0  0  0  0  0  0  0
   -8.3662    4.3639  -16.5169 N   0  0  0  0  0  0  0  0  0  0  0  0
   -8.9049    4.4585  -17.7060 C   0  0  0  0  0  0  0  0  0  0  0  0
   -7.9798    4.8272  -18.6394 N   0  0  0  0  0  0  0  0  0  0  0  0
   -6.7961    5.0667  -17.9942 C   0  0  0  0  0  0  0  0  0  0  0  0
   -5.7192    5.5637  -18.6704 N   0  0  0  0  0  0  0  0  0  0  0  0
   -4.5390    6.4593  -18.1781 C   0  0  0  0  0  0  0  0  0  0  0  0
   -4.2732    6.8404  -17.1028 O   0  0  0  0  0  0  0  0  0  0  0  0
   -3.6076    6.7662  -19.3963 C   0  0  0  0  0  0  0  0  0  0  0  0
   -4.3448    7.3715  -20.5945 C   0  0  0  0  0  0  0  0  0  0  0  0
   -2.4977    7.7406  -18.9630 C   0  0  0  0  0  0  0  0  0  0  0  0
   -2.7701    5.2080  -19.9013 S   0  0  0  0  0  0  0  0  0  0  0  0
  1  2  1  0
  2  3  1  0
  3  4  2  0
  3  5  1  0
  5  6  1  0
  6  7  2  0
  7  8  1  0
  8  9  1  0
  9 10  1  0
 10 11  1  0
 11 12  2  0
 11 13  1  0
 13 14  1  0
 13 15  1  0
 13 16  1  0
  9  5  2  0
M  END
>  <energy_score>  (2908) 
-20.992855

>  <alias>  (2908) 
None

>  <HIPPO Pose ID>  (2908) 
75964

>  <smiles>  (2908) 
COC(=O)c1nc[nH]c1NC(=O)C(C)(C)S

>  <inchikey>  (2908) 
GODIZEBMFZVYKE-UHFFFAOYSA-N

>  <distance_score>  (2908) 
1.757283

>  <ref_mols>  (2908) 
Z0719a,Z1597a

>  <ref_pdb>  (2908) 
Z0719a

>  <HIPPO Compound ID>  (2908) 
150839

>  <name>  (2908) 
P75964

>  <inspiration_score>  (2908) 
None

$$$$
P75965
     RDKit          3D

 16 17  0  0  0  0  0  0  0  0999 V2000
   -7.8785    5.9667   -9.1266 C   0  0  0  0  0  0  0  0  0  0  0  0
   -8.1161    5.0109  -10.2272 C   0  0  0  0  0  0  0  0  0  0  0  0
   -8.5192    3.7730  -10.0665 N   0  0  0  0  0  0  0  0  0  0  0  0
   -8.6759    3.2711  -11.3264 C   0  0  0  0  0  0  0  0  0  0  0  0
   -8.3634    4.2077  -12.2882 C   0  0  0  0  0  0  0  0  0  0  0  0
   -8.3389    4.0555  -13.6513 N   0  0  0  0  0  0  0  0  0  0  0  0
   -8.2192    5.1187  -14.7882 C   0  0  0  0  0  0  0  0  0  0  0  0
   -8.2017    6.2931  -14.7338 O   0  0  0  0  0  0  0  0  0  0  0  0
   -7.9999    4.3370  -16.1323 C   0  0  2  0  0  0  0  0  0  0  0  0
   -7.4660    5.0921  -17.3519 C   0  0  0  0  0  0  0  0  0  0  0  0
   -8.6805    4.5247  -18.0732 C   0  0  0  0  0  0  0  0  0  0  0  0
   -9.1976    3.9376  -16.8489 O   0  0  0  0  0  0  0  0  0  0  0  0
   -7.9130    5.2918  -11.5650 N   0  0  0  0  0  0  0  0  0  0  0  0
   -7.0798    6.3735  -12.0659 C   0  0  0  0  0  0  0  0  0  0  0  0
   -5.9871    5.8438  -12.9150 C   0  0  0  0  0  0  0  0  0  0  0  0
   -5.2034    5.3529  -13.6235 N   0  0  0  0  0  0  0  0  0  0  0  0
  1  2  1  0
  2  3  2  0
  3  4  1  0
  4  5  2  0
  5  6  1  0
  6  7  1  0
  7  8  2  0
  9  7  1  1
  9 10  1  0
 10 11  1  0
 11 12  1  0
  5 13  1  0
 13 14  1  0
 14 15  1  0
 15 16  3  0
 13  2  1  0
 12  9  1  0
M  END
>  <energy_score>  (2909) 
-22.788744

>  <alias>  (2909) 
None

>  <HIPPO Pose ID>  (2909) 
75965

>  <smiles>  (2909) 
Cc1ncc(NC(=O)[C@@H]2CCO2)n1CC#N

>  <inchikey>  (2909) 
DAZPJMZRYAGXSH-QMMMGPOBSA-N

>  <distance_score>  (2909) 
1.114561

>  <ref_mols>  (2909) 
Z0719a,Z1597a

>  <ref_pdb>  (2909) 
Z0719a

>  <HIPPO Compound ID>  (2909) 
150845

>  <name>  (2909) 
P75965

>  <inspiration_score>  (2909) 
None

$$$$
P75968
     RDKit          3D

 16 17  0  0  0  0  0  0  0  0999 V2000
   -5.3252    2.6685  -13.0989 C   0  0  0  0  0  0  0  0  0  0  0  0
   -6.6519    2.4251  -12.4025 C   0  0  0  0  0  0  0  0  0  0  0  0
   -7.2490    3.6366  -11.8537 N   0  0  0  0  0  0  0  0  0  0  0  0
   -7.4526    3.9346  -10.5197 C   0  0  0  0  0  0  0  0  0  0  0  0
   -7.2948    2.9822   -9.3995 C   0  0  0  0  0  0  0  0  0  0  0  0
   -7.8054    5.1954  -10.3713 N   0  0  0  0  0  0  0  0  0  0  0  0
   -7.9988    5.6827  -11.6388 C   0  0  0  0  0  0  0  0  0  0  0  0
   -8.4131    7.0918  -11.8083 C   0  0  0  0  0  0  0  0  0  0  0  0
   -7.7325    4.7044  -12.5808 C   0  0  0  0  0  0  0  0  0  0  0  0
   -7.8524    4.7015  -13.9439 N   0  0  0  0  0  0  0  0  0  0  0  0
   -8.5394    5.7062  -14.8916 C   0  0  0  0  0  0  0  0  0  0  0  0
   -9.0457    6.7357  -14.6666 O   0  0  0  0  0  0  0  0  0  0  0  0
   -8.3829    5.1654  -16.3584 C   0  0  1  0  0  0  0  0  0  0  0  0
   -7.2794    5.8182  -17.2194 C   0  0  0  0  0  0  0  0  0  0  0  0
   -6.9413    4.3939  -17.6079 C   0  0  0  0  0  0  0  0  0  0  0  0
   -7.6883    3.8849  -16.4671 O   0  0  0  0  0  0  0  0  0  0  0  0
  1  2  1  0
  2  3  1  0
  3  4  1  0
  4  5  1  0
  4  6  2  0
  6  7  1  0
  7  8  1  0
  7  9  2  0
  9 10  1  0
 10 11  1  0
 11 12  2  0
 13 11  1  1
 13 14  1  0
 14 15  1  0
 15 16  1  0
  9  3  1  0
 16 13  1  0
M  END
>  <energy_score>  (2910) 
-44.576257

>  <alias>  (2910) 
None

>  <HIPPO Pose ID>  (2910) 
75968

>  <smiles>  (2910) 
CCn1c(C)nc(C)c1NC(=O)[C@H]1CCO1

>  <inchikey>  (2910) 
QACDLNFYUIEEAB-SECBINFHSA-N

>  <distance_score>  (2910) 
1.439347

>  <ref_mols>  (2910) 
Z0719a,Z1597a

>  <ref_pdb>  (2910) 
Z0719a

>  <HIPPO Compound ID>  (2910) 
150846

>  <name>  (2910) 
P75968

>  <inspiration_score>  (2910) 
None

$$$$
P75971
     RDKit          3D

 16 16  0  0  0  0  0  0  0  0999 V2000
   -7.2345    3.4491  -13.4487 C   0  0  0  0  0  0  0  0  0  0  0  0
   -6.5343    4.7880  -13.5922 C   0  0  0  0  0  0  0  0  0  0  0  0
   -6.1878    5.1885  -15.0329 C   0  0  0  0  0  0  0  0  0  0  0  0
   -7.2348    5.2048  -16.0183 N   0  0  0  0  0  0  0  0  0  0  0  0
   -8.5766    5.3664  -15.7637 C   0  0  0  0  0  0  0  0  0  0  0  0
   -9.1282    6.1001  -14.6001 C   0  0  0  0  0  0  0  0  0  0  0  0
   -9.2811    4.8281  -16.7304 N   0  0  0  0  0  0  0  0  0  0  0  0
   -8.3906    4.5992  -17.7391 C   0  0  0  0  0  0  0  0  0  0  0  0
   -8.8910    4.1097  -19.0200 C   0  0  0  0  0  0  0  0  0  0  0  0
   -7.1128    4.9560  -17.3649 C   0  0  0  0  0  0  0  0  0  0  0  0
   -6.0080    5.0463  -18.1684 N   0  0  0  0  0  0  0  0  0  0  0  0
   -4.5726    5.5551  -17.8572 C   0  0  0  0  0  0  0  0  0  0  0  0
   -4.1356    6.0460  -16.8898 O   0  0  0  0  0  0  0  0  0  0  0  0
   -3.7506    5.4031  -19.1279 C   0  0  0  0  0  0  0  0  0  0  0  0
   -3.9510    6.6153  -20.0283 C   0  0  0  0  0  0  0  0  0  0  0  0
   -2.6380    6.6909  -21.2877 S   0  0  0  0  0  0  0  0  0  0  0  0
  1  2  1  0
  2  3  1  0
  3  4  1  0
  4  5  1  0
  5  6  1  0
  5  7  2  0
  7  8  1  0
  8  9  1  0
  8 10  2  0
 10 11  1  0
 11 12  1  0
 12 13  2  0
 12 14  1  0
 14 15  1  0
 15 16  1  0
 10  4  1  0
M  END
>  <energy_score>  (2911) 
-15.221113

>  <alias>  (2911) 
None

>  <HIPPO Pose ID>  (2911) 
75971

>  <smiles>  (2911) 
CCCn1c(C)nc(C)c1NC(=O)CCS

>  <inchikey>  (2911) 
IWBJVERIUGOMDO-UHFFFAOYSA-N

>  <distance_score>  (2911) 
1.476623

>  <ref_mols>  (2911) 
Z0719a,Z1597a

>  <ref_pdb>  (2911) 
Z0719a

>  <HIPPO Compound ID>  (2911) 
150853

>  <name>  (2911) 
P75971

>  <inspiration_score>  (2911) 
None

$$$$
P75972
     RDKit          3D

 16 17  0  0  0  0  0  0  0  0999 V2000
   -5.3070    2.5412  -12.8116 C   0  0  0  0  0  0  0  0  0  0  0  0
   -6.7907    2.4358  -12.4768 C   0  0  0  0  0  0  0  0  0  0  0  0
   -7.3413    3.6776  -11.9491 N   0  0  0  0  0  0  0  0  0  0  0  0
   -7.5918    3.9834  -10.6256 C   0  0  0  0  0  0  0  0  0  0  0  0
   -7.5538    3.0165   -9.5050 C   0  0  0  0  0  0  0  0  0  0  0  0
   -7.8662    5.2654  -10.4877 N   0  0  0  0  0  0  0  0  0  0  0  0
   -7.8995    5.7871  -11.7574 C   0  0  0  0  0  0  0  0  0  0  0  0
   -8.2771    7.2033  -11.9462 C   0  0  0  0  0  0  0  0  0  0  0  0
   -7.6071    4.8101  -12.6897 C   0  0  0  0  0  0  0  0  0  0  0  0
   -7.5581    4.8339  -14.0564 N   0  0  0  0  0  0  0  0  0  0  0  0
   -7.3923    6.0134  -15.0302 C   0  0  0  0  0  0  0  0  0  0  0  0
   -7.3480    7.1598  -14.8273 O   0  0  0  0  0  0  0  0  0  0  0  0
   -7.3068    5.4417  -16.3995 C   0  0  0  0  0  0  0  0  0  0  0  0
   -8.0021    4.4418  -16.9720 C   0  0  0  0  0  0  0  0  0  0  0  0
   -7.3676    4.6729  -18.3255 C   0  0  0  0  0  0  0  0  0  0  0  0
   -6.6678    5.8859  -17.6819 C   0  0  0  0  0  0  0  0  0  0  0  0
  1  2  1  0
  2  3  1  0
  3  4  1  0
  4  5  1  0
  4  6  2  0
  6  7  1  0
  7  8  1  0
  7  9  2  0
  9 10  1  0
 10 11  1  0
 11 12  2  0
 11 13  1  0
 13 14  2  0
 14 15  1  0
 15 16  1  0
  9  3  1  0
 16 13  1  0
M  END
>  <energy_score>  (2912) 
-23.95869

>  <alias>  (2912) 
None

>  <HIPPO Pose ID>  (2912) 
75972

>  <smiles>  (2912) 
CCn1c(C)nc(C)c1NC(=O)C1=CCC1

>  <inchikey>  (2912) 
SDCDVKIKPABKTL-UHFFFAOYSA-N

>  <distance_score>  (2912) 
1.486641

>  <ref_mols>  (2912) 
Z0719a,Z1597a

>  <ref_pdb>  (2912) 
Z0719a

>  <HIPPO Compound ID>  (2912) 
150857

>  <name>  (2912) 
P75972

>  <inspiration_score>  (2912) 
None

$$$$
P75976
     RDKit          3D

 16 17  0  0  0  0  0  0  0  0999 V2000
   -8.2559    4.0048  -13.2220 C   0  0  0  0  0  0  0  0  0  0  0  0
   -7.8180    4.2473  -14.5756 N   0  0  0  0  0  0  0  0  0  0  0  0
   -8.5239    4.8698  -15.5478 C   0  0  0  0  0  0  0  0  0  0  0  0
   -7.7493    5.1960  -16.5480 N   0  0  0  0  0  0  0  0  0  0  0  0
   -6.5026    4.6644  -16.2523 C   0  0  0  0  0  0  0  0  0  0  0  0
   -5.6524    4.8931  -17.2863 N   0  0  0  0  0  0  0  0  0  0  0  0
   -4.1416    4.5779  -17.4370 C   0  0  0  0  0  0  0  0  0  0  0  0
   -3.3785    4.1435  -16.6673 O   0  0  0  0  0  0  0  0  0  0  0  0
   -3.7677    5.0038  -18.8625 C   0  0  0  0  0  0  0  0  0  0  0  0
   -3.7855    6.4970  -19.0615 C   0  0  0  0  0  0  0  0  0  0  0  0
   -3.6429    7.1187  -20.4270 C   0  0  0  0  0  0  0  0  0  0  0  0
   -4.9638    7.1784  -19.7140 C   0  0  0  0  0  0  0  0  0  0  0  0
   -6.5330    4.0457  -15.0232 C   0  0  0  0  0  0  0  0  0  0  0  0
   -5.5490    3.2102  -14.1477 C   0  0  0  0  0  0  0  0  0  0  0  0
   -6.0378    2.1342  -13.6681 O   0  0  0  0  0  0  0  0  0  0  0  0
   -4.4020    3.6767  -13.9009 O   0  0  0  0  0  0  0  0  0  0  0  0
  1  2  1  0
  2  3  1  0
  3  4  2  0
  4  5  1  0
  5  6  1  0
  6  7  1  0
  7  8  2  0
  7  9  1  0
  9 10  1  0
 10 11  1  0
 11 12  1  0
  5 13  2  0
 13 14  1  0
 14 15  2  0
 14 16  1  0
 13  2  1  0
 12 10  1  0
M  CHG  1  16  -1
M  END
>  <energy_score>  (2913) 
-9.264013

>  <alias>  (2913) 
None

>  <HIPPO Pose ID>  (2913) 
75976

>  <smiles>  (2913) 
Cn1cnc(NC(=O)CC2CC2)c1C(=O)[O-]

>  <inchikey>  (2913) 
PEXZBWRYOHMWEU-UHFFFAOYSA-M

>  <distance_score>  (2913) 
1.860445

>  <ref_mols>  (2913) 
Z0719a,Z1597a

>  <ref_pdb>  (2913) 
Z0719a

>  <HIPPO Compound ID>  (2913) 
150865

>  <name>  (2913) 
P75976

>  <inspiration_score>  (2913) 
None

$$$$
P75977
     RDKit          3D

 16 18  0  0  0  0  0  0  0  0999 V2000
   -3.7428    6.8478  -19.7309 O   0  0  0  0  0  0  0  0  0  0  0  0
   -4.7655    6.7733  -20.2949 C   0  0  0  0  0  0  0  0  0  0  0  0
   -5.0495    7.5029  -21.6119 C   0  0  0  0  0  0  0  0  0  0  0  0
   -3.8105    7.7826  -22.4172 C   0  0  0  0  0  0  0  0  0  0  0  0
   -3.9237    8.6574  -23.6435 C   0  0  0  0  0  0  0  0  0  0  0  0
   -3.6247    7.1957  -23.7953 C   0  0  0  0  0  0  0  0  0  0  0  0
   -6.0914    6.0714  -19.8881 N   0  0  0  0  0  0  0  0  0  0  0  0
   -6.4354    5.4439  -18.7442 C   0  0  0  0  0  0  0  0  0  0  0  0
   -7.6635    4.8758  -18.5088 C   0  0  0  0  0  0  0  0  0  0  0  0
   -7.6758    4.6320  -17.1737 N   0  0  0  0  0  0  0  0  0  0  0  0
   -8.7777    4.3236  -16.4460 N   0  0  0  0  0  0  0  0  0  0  0  0
   -8.5230    4.2999  -15.1795 C   0  0  0  0  0  0  0  0  0  0  0  0
   -7.2027    4.4759  -14.5361 C   0  0  0  0  0  0  0  0  0  0  0  0
   -6.1736    4.7920  -15.3242 C   0  0  0  0  0  0  0  0  0  0  0  0
   -6.4079    4.9427  -16.7027 C   0  0  0  0  0  0  0  0  0  0  0  0
   -5.6333    5.4203  -17.6486 N   0  0  0  0  0  0  0  0  0  0  0  0
  1  2  2  0
  2  3  1  0
  3  4  1  0
  4  5  1  0
  5  6  1  0
  2  7  1  0
  7  8  1  0
  8  9  2  0
  9 10  1  0
 10 11  1  0
 11 12  2  0
 12 13  1  0
 13 14  2  0
 14 15  1  0
 15 16  2  0
  6  4  1  0
 16  8  1  0
 15 10  1  0
M  END
>  <energy_score>  (2914) 
-41.063911

>  <alias>  (2914) 
None

>  <HIPPO Pose ID>  (2914) 
75977

>  <smiles>  (2914) 
O=C(CC1CC1)Nc1cn2ncccc2n1

>  <inchikey>  (2914) 
SSILMOBYLDNECC-UHFFFAOYSA-N

>  <distance_score>  (2914) 
1.763653

>  <ref_mols>  (2914) 
Z0719a,Z1597a

>  <ref_pdb>  (2914) 
Z0719a

>  <HIPPO Compound ID>  (2914) 
150868

>  <name>  (2914) 
P75977

>  <inspiration_score>  (2914) 
None

$$$$
P75978
     RDKit          3D

 16 17  0  0  0  0  0  0  0  0999 V2000
   -4.9368    9.3269  -21.2196 C   0  0  0  0  0  0  0  0  0  0  0  0
   -4.0818    8.5911  -20.3526 O   0  0  0  0  0  0  0  0  0  0  0  0
   -3.6595    7.3670  -20.9663 C   0  0  0  0  0  0  0  0  0  0  0  0
   -2.7633    6.6312  -19.9836 C   0  0  0  0  0  0  0  0  0  0  0  0
   -3.5973    5.6879  -19.1401 C   0  0  0  0  0  0  0  0  0  0  0  0
   -3.5418    4.5266  -19.2579 O   0  0  0  0  0  0  0  0  0  0  0  0
   -4.5225    6.5655  -18.2580 N   0  0  0  0  0  0  0  0  0  0  0  0
   -5.4424    6.2155  -17.3321 C   0  0  0  0  0  0  0  0  0  0  0  0
   -6.0835    5.0132  -17.1885 C   0  0  0  0  0  0  0  0  0  0  0  0
   -7.0406    5.2578  -16.2438 N   0  0  0  0  0  0  0  0  0  0  0  0
   -8.1655    4.4125  -15.9016 C   0  0  0  0  0  0  0  0  0  0  0  0
   -8.9152    3.9223  -17.1081 C   0  0  0  0  0  0  0  0  0  0  0  0
  -10.1676    4.5858  -17.6009 C   0  0  0  0  0  0  0  0  0  0  0  0
   -8.9435    4.6137  -18.4533 C   0  0  0  0  0  0  0  0  0  0  0  0
   -6.8382    6.5161  -15.7615 C   0  0  0  0  0  0  0  0  0  0  0  0
   -5.9084    7.1409  -16.4457 N   0  0  0  0  0  0  0  0  0  0  0  0
  1  2  1  0
  2  3  1  0
  3  4  1  0
  4  5  1  0
  5  6  2  0
  5  7  1  0
  7  8  1  0
  8  9  2  0
  9 10  1  0
 10 11  1  0
 11 12  1  0
 12 13  1  0
 13 14  1  0
 10 15  1  0
 15 16  2  0
 16  8  1  0
 14 12  1  0
M  END
>  <energy_score>  (2915) 
-30.216717

>  <alias>  (2915) 
None

>  <HIPPO Pose ID>  (2915) 
75978

>  <smiles>  (2915) 
COCCC(=O)Nc1cn(CC2CC2)cn1

>  <inchikey>  (2915) 
ZKSMQGNWGOXBCI-UHFFFAOYSA-N

>  <distance_score>  (2915) 
1.852246

>  <ref_mols>  (2915) 
Z0719a,Z1597a

>  <ref_pdb>  (2915) 
Z0719a

>  <HIPPO Compound ID>  (2915) 
150872

>  <name>  (2915) 
P75978

>  <inspiration_score>  (2915) 
None

$$$$
P75979
     RDKit          3D

 16 16  0  0  0  0  0  0  0  0999 V2000
   -3.6890    6.9262  -21.2210 C   0  0  0  0  0  0  0  0  0  0  0  0
   -2.9820    5.8395  -20.6094 O   0  0  0  0  0  0  0  0  0  0  0  0
   -2.6911    6.1484  -19.2426 C   0  0  0  0  0  0  0  0  0  0  0  0
   -3.1711    5.0778  -18.2437 C   0  0  0  0  0  0  0  0  0  0  0  0
   -4.5945    5.3696  -17.7827 C   0  0  0  0  0  0  0  0  0  0  0  0
   -5.2877    6.1014  -18.3820 O   0  0  0  0  0  0  0  0  0  0  0  0
   -4.8842    4.5230  -16.4903 N   0  0  0  0  0  0  0  0  0  0  0  0
   -6.0560    4.3488  -15.7758 C   0  0  0  0  0  0  0  0  0  0  0  0
   -6.4663    3.5501  -14.7114 C   0  0  0  0  0  0  0  0  0  0  0  0
   -5.6947    2.6988  -13.8411 N   0  0  0  0  0  0  0  0  0  0  0  0
   -6.2912    1.7852  -13.2524 O   0  0  0  0  0  0  0  0  0  0  0  0
   -4.4710    2.9101  -13.7920 O   0  0  0  0  0  0  0  0  0  0  0  0
   -7.8394    3.5655  -14.5627 N   0  0  0  0  0  0  0  0  0  0  0  0
   -8.2722    4.3943  -15.4703 C   0  0  0  0  0  0  0  0  0  0  0  0
   -7.2187    5.0076  -16.0775 N   0  0  0  0  0  0  0  0  0  0  0  0
   -7.3374    6.3230  -16.6033 C   0  0  0  0  0  0  0  0  0  0  0  0
  1  2  1  0
  2  3  1  0
  3  4  1  0
  4  5  1  0
  5  6  2  0
  5  7  1  0
  7  8  1  0
  8  9  2  0
  9 10  1  0
 10 11  2  0
 10 12  1  0
  9 13  1  0
 13 14  2  0
 14 15  1  0
 15 16  1  0
 15  8  1  0
M  CHG  2  10   1  12  -1
M  END
>  <energy_score>  (2916) 
-20.470366

>  <alias>  (2916) 
None

>  <HIPPO Pose ID>  (2916) 
75979

>  <smiles>  (2916) 
COCCC(=O)Nc1c([N+](=O)[O-])ncn1C

>  <inchikey>  (2916) 
JWVVOOVECQPHLQ-UHFFFAOYSA-N

>  <distance_score>  (2916) 
1.972294

>  <ref_mols>  (2916) 
Z0719a,Z1597a

>  <ref_pdb>  (2916) 
Z0719a

>  <HIPPO Compound ID>  (2916) 
150873

>  <name>  (2916) 
P75979

>  <inspiration_score>  (2916) 
None

$$$$
P75980
     RDKit          3D

 16 16  0  0  0  0  0  0  0  0999 V2000
   -5.3130    7.7158  -23.4026 C   0  0  0  0  0  0  0  0  0  0  0  0
   -5.2459    8.2638  -22.0901 O   0  0  0  0  0  0  0  0  0  0  0  0
   -5.1374    7.2262  -21.1085 C   0  0  0  0  0  0  0  0  0  0  0  0
   -5.2285    7.8581  -19.7415 C   0  0  0  0  0  0  0  0  0  0  0  0
   -5.1110    6.8160  -18.6477 C   0  0  0  0  0  0  0  0  0  0  0  0
   -4.1026    6.6295  -18.0834 O   0  0  0  0  0  0  0  0  0  0  0  0
   -6.5245    6.2100  -18.4130 N   0  0  0  0  0  0  0  0  0  0  0  0
   -6.9745    5.3813  -17.4437 C   0  0  0  0  0  0  0  0  0  0  0  0
   -6.2329    4.7156  -16.5092 C   0  0  0  0  0  0  0  0  0  0  0  0
   -7.1347    4.2055  -15.6239 N   0  0  0  0  0  0  0  0  0  0  0  0
   -6.9056    3.4576  -14.4068 C   0  0  0  0  0  0  0  0  0  0  0  0
   -5.6973    3.7132  -13.4710 C   0  0  0  0  0  0  0  0  0  0  0  0
   -5.7142    2.6082  -12.4125 C   0  0  0  0  0  0  0  0  0  0  0  0
   -4.3094    3.7547  -14.1033 C   0  0  0  0  0  0  0  0  0  0  0  0
   -8.3776    4.4680  -16.1427 C   0  0  0  0  0  0  0  0  0  0  0  0
   -8.2998    5.1916  -17.2373 N   0  0  0  0  0  0  0  0  0  0  0  0
  1  2  1  0
  2  3  1  0
  3  4  1  0
  4  5  1  0
  5  6  2  0
  5  7  1  0
  7  8  1  0
  8  9  2  0
  9 10  1  0
 10 11  1  0
 11 12  1  0
 12 13  1  0
 12 14  1  0
 10 15  1  0
 15 16  2  0
 16  8  1  0
M  END
>  <energy_score>  (2917) 
-37.392504

>  <alias>  (2917) 
None

>  <HIPPO Pose ID>  (2917) 
75980

>  <smiles>  (2917) 
COCCC(=O)Nc1cn(CC(C)C)cn1

>  <inchikey>  (2917) 
HTNGUENXNYOCQC-UHFFFAOYSA-N

>  <distance_score>  (2917) 
1.971273

>  <ref_mols>  (2917) 
Z0719a,Z1597a

>  <ref_pdb>  (2917) 
Z0719a

>  <HIPPO Compound ID>  (2917) 
150875

>  <name>  (2917) 
P75980

>  <inspiration_score>  (2917) 
None

$$$$
P75982
     RDKit          3D

 16 17  0  0  0  0  0  0  0  0999 V2000
   -4.8822    9.4599  -21.2387 C   0  0  0  0  0  0  0  0  0  0  0  0
   -4.5398    8.2795  -21.7829 C   0  0  0  0  0  0  0  0  0  0  0  0
   -5.3031    7.7909  -23.6572 I   0  0  0  0  0  0  0  0  0  0  0  0
   -3.5796    7.3242  -21.1394 C   0  0  0  0  0  0  0  0  0  0  0  0
   -3.9893    7.0262  -19.7049 C   0  0  0  0  0  0  0  0  0  0  0  0
   -3.4809    7.5534  -18.7922 O   0  0  0  0  0  0  0  0  0  0  0  0
   -5.1929    6.0424  -19.7587 N   0  0  0  0  0  0  0  0  0  0  0  0
   -5.9056    5.4731  -18.7619 C   0  0  0  0  0  0  0  0  0  0  0  0
   -7.0128    4.6797  -18.9187 C   0  0  0  0  0  0  0  0  0  0  0  0
   -7.5369    4.5683  -17.6685 N   0  0  0  0  0  0  0  0  0  0  0  0
   -8.7520    4.0521  -17.3651 N   0  0  0  0  0  0  0  0  0  0  0  0
   -9.0040    4.1400  -16.1021 C   0  0  0  0  0  0  0  0  0  0  0  0
   -8.1034    4.6450  -15.0437 C   0  0  0  0  0  0  0  0  0  0  0  0
   -6.9276    5.1449  -15.4302 C   0  0  0  0  0  0  0  0  0  0  0  0
   -6.6290    5.1658  -16.8054 C   0  0  0  0  0  0  0  0  0  0  0  0
   -5.6289    5.7176  -17.4529 N   0  0  0  0  0  0  0  0  0  0  0  0
  1  2  2  0
  2  3  1  0
  2  4  1  0
  4  5  1  0
  5  6  2  0
  5  7  1  0
  7  8  1  0
  8  9  2  0
  9 10  1  0
 10 11  1  0
 11 12  2  0
 12 13  1  0
 13 14  2  0
 14 15  1  0
 15 16  2  0
 16  8  1  0
 15 10  1  0
M  END
>  <energy_score>  (2918) 
-30.41219

>  <alias>  (2918) 
None

>  <HIPPO Pose ID>  (2918) 
75982

>  <smiles>  (2918) 
C=C(I)CC(=O)Nc1cn2ncccc2n1

>  <inchikey>  (2918) 
GATWDAZFDDBPGG-UHFFFAOYSA-N

>  <distance_score>  (2918) 
1.821921

>  <ref_mols>  (2918) 
Z0719a,Z1597a

>  <ref_pdb>  (2918) 
Z0719a

>  <HIPPO Compound ID>  (2918) 
150887

>  <name>  (2918) 
P75982

>  <inspiration_score>  (2918) 
None

$$$$
P75987
     RDKit          3D

 16 17  0  0  0  0  0  0  0  0999 V2000
   -3.9494    7.6542  -21.7028 C   0  0  0  0  0  0  0  0  0  0  0  0
   -2.9704    6.9554  -20.7681 C   0  0  0  0  0  0  0  0  0  0  0  0
   -1.6559    7.7268  -20.6973 C   0  0  0  0  0  0  0  0  0  0  0  0
   -2.6808    5.7314  -21.3135 F   0  0  0  0  0  0  0  0  0  0  0  0
   -3.5950    6.7954  -19.3725 C   0  0  0  0  0  0  0  0  0  0  0  0
   -3.2273    7.4036  -18.4415 O   0  0  0  0  0  0  0  0  0  0  0  0
   -4.7600    5.7662  -19.5121 N   0  0  0  0  0  0  0  0  0  0  0  0
   -5.6990    5.3784  -18.6210 C   0  0  0  0  0  0  0  0  0  0  0  0
   -6.8305    4.6508  -18.8877 C   0  0  0  0  0  0  0  0  0  0  0  0
   -7.4985    4.5962  -17.7010 N   0  0  0  0  0  0  0  0  0  0  0  0
   -8.7272    4.0589  -17.5019 N   0  0  0  0  0  0  0  0  0  0  0  0
   -9.0993    4.1607  -16.2694 C   0  0  0  0  0  0  0  0  0  0  0  0
   -8.3229    4.7248  -15.1448 C   0  0  0  0  0  0  0  0  0  0  0  0
   -7.1295    5.2491  -15.4294 C   0  0  0  0  0  0  0  0  0  0  0  0
   -6.6892    5.2251  -16.7651 C   0  0  0  0  0  0  0  0  0  0  0  0
   -5.6078    5.7277  -17.3108 N   0  0  0  0  0  0  0  0  0  0  0  0
  1  2  1  0
  2  3  1  0
  2  4  1  0
  2  5  1  0
  5  6  2  0
  5  7  1  0
  7  8  1  0
  8  9  2  0
  9 10  1  0
 10 11  1  0
 11 12  2  0
 12 13  1  0
 13 14  2  0
 14 15  1  0
 15 16  2  0
 16  8  1  0
 15 10  1  0
M  END
>  <energy_score>  (2919) 
-36.83696

>  <alias>  (2919) 
None

>  <HIPPO Pose ID>  (2919) 
75987

>  <smiles>  (2919) 
CC(C)(F)C(=O)Nc1cn2ncccc2n1

>  <inchikey>  (2919) 
RBCFMRLDRBZZNT-UHFFFAOYSA-N

>  <distance_score>  (2919) 
1.80849

>  <ref_mols>  (2919) 
Z0719a,Z1597a

>  <ref_pdb>  (2919) 
Z0719a

>  <HIPPO Compound ID>  (2919) 
150905

>  <name>  (2919) 
P75987

>  <inspiration_score>  (2919) 
None

$$$$
P75989
     RDKit          3D

 16 16  0  0  0  0  0  0  0  0999 V2000
   -4.3947    8.3203  -19.7383 C   0  0  0  0  0  0  0  0  0  0  0  0
   -4.4695    6.8889  -20.2503 C   0  0  0  0  0  0  0  0  0  0  0  0
   -3.8919    5.8845  -19.2552 C   0  0  0  0  0  0  0  0  0  0  0  0
   -4.6551    5.7884  -17.9340 C   0  0  0  0  0  0  0  0  0  0  0  0
   -4.1860    6.1051  -16.9104 O   0  0  0  0  0  0  0  0  0  0  0  0
   -6.0318    5.1398  -18.2538 N   0  0  0  0  0  0  0  0  0  0  0  0
   -7.0911    4.8523  -17.4348 C   0  0  0  0  0  0  0  0  0  0  0  0
   -8.3511    4.4577  -17.8356 C   0  0  0  0  0  0  0  0  0  0  0  0
   -8.8549    4.1483  -19.1640 C   0  0  0  0  0  0  0  0  0  0  0  0
   -9.2090    4.3309  -16.7868 N   0  0  0  0  0  0  0  0  0  0  0  0
   -8.4895    4.6033  -15.7312 C   0  0  0  0  0  0  0  0  0  0  0  0
   -8.9826    4.6429  -14.3478 C   0  0  0  0  0  0  0  0  0  0  0  0
   -7.1705    4.8114  -16.0678 N   0  0  0  0  0  0  0  0  0  0  0  0
   -6.1222    4.6399  -15.0962 C   0  0  0  0  0  0  0  0  0  0  0  0
   -6.0152    5.7886  -14.0963 C   0  0  0  0  0  0  0  0  0  0  0  0
   -6.4215    5.4185  -12.6711 C   0  0  0  0  0  0  0  0  0  0  0  0
  1  2  1  0
  2  3  1  0
  3  4  1  0
  4  5  2  0
  4  6  1  0
  6  7  1  0
  7  8  2  0
  8  9  1  0
  8 10  1  0
 10 11  2  0
 11 12  1  0
 11 13  1  0
 13 14  1  0
 14 15  1  0
 15 16  1  0
 13  7  1  0
M  END
>  <energy_score>  (2920) 
-23.21469

>  <alias>  (2920) 
None

>  <HIPPO Pose ID>  (2920) 
75989

>  <smiles>  (2920) 
CCCC(=O)Nc1c(C)nc(C)n1CCC

>  <inchikey>  (2920) 
GXZIXLOQYPTCCV-UHFFFAOYSA-N

>  <distance_score>  (2920) 
1.551274

>  <ref_mols>  (2920) 
Z0719a,Z1597a

>  <ref_pdb>  (2920) 
Z0719a

>  <HIPPO Compound ID>  (2920) 
150908

>  <name>  (2920) 
P75989

>  <inspiration_score>  (2920) 
None

$$$$
P75990
     RDKit          3D

 16 16  0  0  0  0  0  0  0  0999 V2000
   -3.9667    7.7849  -21.7025 C   0  0  0  0  0  0  0  0  0  0  0  0
   -4.8077    7.3153  -20.5266 C   0  0  0  0  0  0  0  0  0  0  0  0
   -4.0509    6.3343  -19.6434 C   0  0  0  0  0  0  0  0  0  0  0  0
   -4.7491    6.0089  -18.3257 C   0  0  0  0  0  0  0  0  0  0  0  0
   -4.2469    6.2325  -17.2942 O   0  0  0  0  0  0  0  0  0  0  0  0
   -6.0829    5.2892  -18.6601 N   0  0  0  0  0  0  0  0  0  0  0  0
   -7.0561    4.8114  -17.8426 C   0  0  0  0  0  0  0  0  0  0  0  0
   -8.2931    4.6508  -18.3934 N   0  0  0  0  0  0  0  0  0  0  0  0
   -9.0620    4.1810  -17.4469 C   0  0  0  0  0  0  0  0  0  0  0  0
   -8.3411    3.9521  -16.3222 N   0  0  0  0  0  0  0  0  0  0  0  0
   -7.0476    4.4096  -16.5218 C   0  0  0  0  0  0  0  0  0  0  0  0
   -5.9797    4.2718  -15.5666 C   0  0  0  0  0  0  0  0  0  0  0  0
   -4.8207    3.9795  -15.8376 O   0  0  0  0  0  0  0  0  0  0  0  0
   -6.3499    4.3916  -14.2561 O   0  0  0  0  0  0  0  0  0  0  0  0
   -7.4426    5.1780  -13.7398 C   0  0  0  0  0  0  0  0  0  0  0  0
   -7.6832    6.4800  -14.4737 C   0  0  0  0  0  0  0  0  0  0  0  0
  1  2  1  0
  2  3  1  0
  3  4  1  0
  4  5  2  0
  4  6  1  0
  6  7  1  0
  7  8  1  0
  8  9  2  0
  9 10  1  0
 10 11  1  0
 11 12  1  0
 12 13  2  0
 12 14  1  0
 14 15  1  0
 15 16  1  0
 11  7  2  0
M  END
>  <energy_score>  (2921) 
-5.831081

>  <alias>  (2921) 
None

>  <HIPPO Pose ID>  (2921) 
75990

>  <smiles>  (2921) 
CCCC(=O)Nc1nc[nH]c1C(=O)OCC

>  <inchikey>  (2921) 
YDMAEPYYQDDHFE-UHFFFAOYSA-N

>  <distance_score>  (2921) 
1.872475

>  <ref_mols>  (2921) 
Z0719a,Z1597a

>  <ref_pdb>  (2921) 
Z0719a

>  <HIPPO Compound ID>  (2921) 
150909

>  <name>  (2921) 
P75990

>  <inspiration_score>  (2921) 
None

$$$$
P75993
     RDKit          3D

 16 17  0  0  0  0  0  0  0  0999 V2000
   -2.2276    5.2996  -18.7217 O   0  0  0  0  0  0  0  0  0  0  0  0
   -3.1561    5.8599  -19.1590 C   0  0  0  0  0  0  0  0  0  0  0  0
   -4.5569    6.1102  -18.5485 N   0  0  0  0  0  0  0  0  0  0  0  0
   -5.1004    5.6725  -17.3943 C   0  0  0  0  0  0  0  0  0  0  0  0
   -6.3959    5.9249  -17.0384 C   0  0  0  0  0  0  0  0  0  0  0  0
   -6.6521    5.0059  -16.0631 N   0  0  0  0  0  0  0  0  0  0  0  0
   -7.9544    4.5419  -15.6229 C   0  0  0  0  0  0  0  0  0  0  0  0
   -9.0530    4.8500  -16.6013 C   0  0  0  0  0  0  0  0  0  0  0  0
   -8.9064    4.7672  -18.1242 C   0  0  0  0  0  0  0  0  0  0  0  0
   -9.7324    3.7782  -17.4042 C   0  0  0  0  0  0  0  0  0  0  0  0
   -5.4567    4.4584  -15.6978 C   0  0  0  0  0  0  0  0  0  0  0  0
   -4.4980    4.8350  -16.5144 N   0  0  0  0  0  0  0  0  0  0  0  0
   -3.1918    6.4105  -20.5847 C   0  0  2  0  0  0  0  0  0  0  0  0
   -2.1198    5.8433  -21.3535 O   0  0  0  0  0  0  0  0  0  0  0  0
   -3.1621    7.9176  -20.5884 C   0  0  0  0  0  0  0  0  0  0  0  0
   -4.3759    8.3929  -20.1893 F   0  0  0  0  0  0  0  0  0  0  0  0
  1  2  2  0
  2  3  1  0
  3  4  1  0
  4  5  2  0
  5  6  1  0
  6  7  1  0
  7  8  1  0
  8  9  1  0
  9 10  1  0
  6 11  1  0
 11 12  2  0
  2 13  1  0
 13 14  1  6
 13 15  1  0
 15 16  1  0
 12  4  1  0
 10  8  1  0
M  END
>  <energy_score>  (2922) 
-15.727391

>  <alias>  (2922) 
None

>  <HIPPO Pose ID>  (2922) 
75993

>  <smiles>  (2922) 
O=C(Nc1cn(CC2CC2)cn1)[C@H](O)CF

>  <inchikey>  (2922) 
FRMAIGJLVTVRQP-MRVPVSSYSA-N

>  <distance_score>  (2922) 
1.929356

>  <ref_mols>  (2922) 
Z0719a,Z1597a

>  <ref_pdb>  (2922) 
Z0719a

>  <HIPPO Compound ID>  (2922) 
150918

>  <name>  (2922) 
P75993

>  <inspiration_score>  (2922) 
None

$$$$
P75994
     RDKit          3D

 16 16  0  0  0  0  0  0  0  0999 V2000
   -8.2432    4.2404  -13.2887 C   0  0  0  0  0  0  0  0  0  0  0  0
   -7.8519    4.3920  -14.6693 N   0  0  0  0  0  0  0  0  0  0  0  0
   -8.6004    4.9370  -15.6550 C   0  0  0  0  0  0  0  0  0  0  0  0
   -7.8919    5.1108  -16.7371 N   0  0  0  0  0  0  0  0  0  0  0  0
   -6.6327    4.6136  -16.4533 C   0  0  0  0  0  0  0  0  0  0  0  0
   -5.8586    4.7133  -17.5652 N   0  0  0  0  0  0  0  0  0  0  0  0
   -4.3126    4.7542  -17.7188 C   0  0  0  0  0  0  0  0  0  0  0  0
   -3.4678    4.6308  -16.9194 O   0  0  0  0  0  0  0  0  0  0  0  0
   -4.0161    4.9510  -19.2295 C   0  0  2  0  0  0  0  0  0  0  0  0
   -2.6412    4.6974  -19.5592 O   0  0  0  0  0  0  0  0  0  0  0  0
   -4.3996    6.3349  -19.7487 C   0  0  0  0  0  0  0  0  0  0  0  0
   -3.7002    7.2954  -19.0788 F   0  0  0  0  0  0  0  0  0  0  0  0
   -6.5982    4.1171  -15.1677 C   0  0  0  0  0  0  0  0  0  0  0  0
   -5.6078    3.2610  -14.3113 C   0  0  0  0  0  0  0  0  0  0  0  0
   -6.1430    2.2868  -13.6855 O   0  0  0  0  0  0  0  0  0  0  0  0
   -4.3961    3.6040  -14.2354 O   0  0  0  0  0  0  0  0  0  0  0  0
  1  2  1  0
  2  3  1  0
  3  4  2  0
  4  5  1  0
  5  6  1  0
  6  7  1  0
  7  8  2  0
  7  9  1  0
  9 10  1  1
  9 11  1  0
 11 12  1  0
  5 13  2  0
 13 14  1  0
 14 15  2  0
 14 16  1  0
 13  2  1  0
M  CHG  1  16  -1
M  END
>  <energy_score>  (2923) 
-28.005456

>  <alias>  (2923) 
None

>  <HIPPO Pose ID>  (2923) 
75994

>  <smiles>  (2923) 
Cn1cnc(NC(=O)[C@H](O)CF)c1C(=O)[O-]

>  <inchikey>  (2923) 
IJWWTZKHNLPNMR-SCSAIBSYSA-M

>  <distance_score>  (2923) 
1.696522

>  <ref_mols>  (2923) 
Z0719a,Z1597a

>  <ref_pdb>  (2923) 
Z0719a

>  <HIPPO Compound ID>  (2923) 
150920

>  <name>  (2923) 
P75994

>  <inspiration_score>  (2923) 
None

$$$$
P75995
     RDKit          3D

 16 16  0  0  0  0  0  0  0  0999 V2000
   -5.5285    4.6800  -14.3802 C   0  0  0  0  0  0  0  0  0  0  0  0
   -6.2160    5.7733  -15.1695 C   0  0  0  0  0  0  0  0  0  0  0  0
   -7.1877    5.2399  -16.0810 N   0  0  0  0  0  0  0  0  0  0  0  0
   -8.4660    4.9242  -15.6647 C   0  0  0  0  0  0  0  0  0  0  0  0
   -8.9520    5.1169  -14.2768 C   0  0  0  0  0  0  0  0  0  0  0  0
   -9.1859    4.4903  -16.6678 N   0  0  0  0  0  0  0  0  0  0  0  0
   -8.3673    4.5568  -17.7565 C   0  0  0  0  0  0  0  0  0  0  0  0
   -8.9027    4.1235  -19.0440 C   0  0  0  0  0  0  0  0  0  0  0  0
   -7.0973    4.9921  -17.4266 C   0  0  0  0  0  0  0  0  0  0  0  0
   -6.0377    5.0913  -18.2970 N   0  0  0  0  0  0  0  0  0  0  0  0
   -4.5185    5.3009  -18.0217 C   0  0  0  0  0  0  0  0  0  0  0  0
   -3.9490    5.4983  -17.0167 O   0  0  0  0  0  0  0  0  0  0  0  0
   -3.7608    5.1321  -19.3500 C   0  0  2  0  0  0  0  0  0  0  0  0
   -2.3821    4.8182  -19.0860 O   0  0  0  0  0  0  0  0  0  0  0  0
   -3.8372    6.3881  -20.2052 C   0  0  0  0  0  0  0  0  0  0  0  0
   -3.1542    6.1611  -21.3708 F   0  0  0  0  0  0  0  0  0  0  0  0
  1  2  1  0
  2  3  1  0
  3  4  1  0
  4  5  1  0
  4  6  2  0
  6  7  1  0
  7  8  1  0
  7  9  2  0
  9 10  1  0
 10 11  1  0
 11 12  2  0
 11 13  1  0
 13 14  1  1
 13 15  1  0
 15 16  1  0
  9  3  1  0
M  END
>  <energy_score>  (2924) 
-18.799415

>  <alias>  (2924) 
None

>  <HIPPO Pose ID>  (2924) 
75995

>  <smiles>  (2924) 
CCn1c(C)nc(C)c1NC(=O)[C@H](O)CF

>  <inchikey>  (2924) 
QMIIPXBRFSWUKB-MRVPVSSYSA-N

>  <distance_score>  (2924) 
1.331896

>  <ref_mols>  (2924) 
Z0719a,Z1597a

>  <ref_pdb>  (2924) 
Z0719a

>  <HIPPO Compound ID>  (2924) 
150921

>  <name>  (2924) 
P75995

>  <inspiration_score>  (2924) 
None

$$$$
P76001
     RDKit          3D

 16 17  0  0  0  0  0  0  0  0999 V2000
   -4.0839    7.5316  -21.7476 C   0  0  0  0  0  0  0  0  0  0  0  0
   -3.7071    7.6650  -20.2816 C   0  0  0  0  0  0  0  0  0  0  0  0
   -4.2612    6.5763  -19.3646 C   0  0  0  0  0  0  0  0  0  0  0  0
   -5.7679    6.6900  -19.1473 C   0  0  0  0  0  0  0  0  0  0  0  0
   -6.4481    7.4611  -19.7038 O   0  0  0  0  0  0  0  0  0  0  0  0
   -6.1410    5.5402  -18.1639 N   0  0  0  0  0  0  0  0  0  0  0  0
   -7.3577    5.0773  -17.7676 C   0  0  0  0  0  0  0  0  0  0  0  0
   -8.4683    5.2206  -18.5480 N   0  0  0  0  0  0  0  0  0  0  0  0
   -9.5032    4.5780  -17.9273 C   0  0  0  0  0  0  0  0  0  0  0  0
   -9.1311    4.0490  -16.7881 N   0  0  0  0  0  0  0  0  0  0  0  0
   -7.8003    4.3860  -16.6593 C   0  0  0  0  0  0  0  0  0  0  0  0
   -7.0631    4.0793  -15.4363 C   0  0  0  0  0  0  0  0  0  0  0  0
   -5.6971    4.2141  -15.3848 N   0  0  0  0  0  0  0  0  0  0  0  0
   -5.3228    3.8192  -14.1743 N   0  0  0  0  0  0  0  0  0  0  0  0
   -6.4706    3.4983  -13.5578 N   0  0  0  0  0  0  0  0  0  0  0  0
   -7.5852    3.6895  -14.2643 N   0  0  0  0  0  0  0  0  0  0  0  0
  1  2  1  0
  2  3  1  0
  3  4  1  0
  4  5  2  0
  4  6  1  0
  6  7  1  0
  7  8  1  0
  8  9  1  0
  9 10  2  0
 10 11  1  0
 11 12  1  0
 12 13  1  0
 13 14  2  0
 14 15  1  0
 15 16  1  0
 11  7  2  0
 16 12  2  0
M  END
>  <energy_score>  (2925) 
-27.316605

>  <alias>  (2925) 
None

>  <HIPPO Pose ID>  (2925) 
76001

>  <smiles>  (2925) 
CCCC(=O)Nc1[nH]cnc1-c1nn[nH]n1

>  <inchikey>  (2925) 
UIMZZHNIVQWUFG-UHFFFAOYSA-N

>  <distance_score>  (2925) 
1.711554

>  <ref_mols>  (2925) 
Z0719a,Z1597a

>  <ref_pdb>  (2925) 
Z0719a

>  <HIPPO Compound ID>  (2925) 
150928

>  <name>  (2925) 
P76001

>  <inspiration_score>  (2925) 
None

$$$$
P76002
     RDKit          3D

 16 17  0  0  0  0  0  0  0  0999 V2000
   -9.1772    4.6279  -18.4147 C   0  0  0  0  0  0  0  0  0  0  0  0
   -8.7228    4.5451  -16.9740 C   0  0  0  0  0  0  0  0  0  0  0  0
   -7.2368    4.8780  -16.8167 C   0  0  0  0  0  0  0  0  0  0  0  0
   -6.7954    4.5642  -15.3924 C   0  0  0  0  0  0  0  0  0  0  0  0
   -7.5526    4.4479  -14.5111 O   0  0  0  0  0  0  0  0  0  0  0  0
   -5.2568    4.3501  -15.4325 N   0  0  0  0  0  0  0  0  0  0  0  0
   -4.4065    3.8871  -14.4808 C   0  0  0  0  0  0  0  0  0  0  0  0
   -3.0472    4.1071  -14.5554 N   0  0  0  0  0  0  0  0  0  0  0  0
   -2.5880    3.4897  -13.4981 C   0  0  0  0  0  0  0  0  0  0  0  0
   -3.5549    2.8475  -12.7990 N   0  0  0  0  0  0  0  0  0  0  0  0
   -4.7338    3.0524  -13.4281 C   0  0  0  0  0  0  0  0  0  0  0  0
   -5.9363    2.3630  -13.1540 C   0  0  0  0  0  0  0  0  0  0  0  0
   -6.8420    1.6664  -12.9654 N   0  0  0  0  0  0  0  0  0  0  0  0
   -3.1477    1.9877  -11.7095 C   0  0  0  0  0  0  0  0  0  0  0  0
   -1.7227    2.4117  -11.3447 C   0  0  0  0  0  0  0  0  0  0  0  0
   -1.0216    3.2431  -12.8367 S   0  0  0  0  0  0  0  0  0  0  0  0
  1  2  1  0
  2  3  1  0
  3  4  1  0
  4  5  2  0
  4  6  1  0
  6  7  1  0
  7  8  1  0
  8  9  2  0
  9 10  1  0
 10 11  1  0
 11 12  1  0
 12 13  3  0
 10 14  1  0
 14 15  1  0
 15 16  1  0
 11  7  2  0
 16  9  1  0
M  END
>  <energy_score>  (2926) 
-15.163069

>  <alias>  (2926) 
None

>  <HIPPO Pose ID>  (2926) 
76002

>  <smiles>  (2926) 
CCCC(=O)Nc1nc2n(c1C#N)CCS2

>  <inchikey>  (2926) 
WCPWWSMVZSOFGS-UHFFFAOYSA-N

>  <distance_score>  (2926) 
1.383034

>  <ref_mols>  (2926) 
Z0719a,Z1597a

>  <ref_pdb>  (2926) 
Z0719a

>  <HIPPO Compound ID>  (2926) 
150929

>  <name>  (2926) 
P76002

>  <inspiration_score>  (2926) 
None

$$$$
P76005
     RDKit          3D

 16 16  0  0  0  0  0  0  0  0999 V2000
   -4.7632    8.9704  -21.5308 C   0  0  0  0  0  0  0  0  0  0  0  0
   -4.7213    8.1701  -20.2387 C   0  0  0  0  0  0  0  0  0  0  0  0
   -4.9558    6.6964  -20.4876 C   0  0  0  0  0  0  0  0  0  0  0  0
   -4.8816    5.9118  -19.1869 C   0  0  0  0  0  0  0  0  0  0  0  0
   -3.8573    5.7297  -18.6482 O   0  0  0  0  0  0  0  0  0  0  0  0
   -6.3305    5.5556  -18.7452 N   0  0  0  0  0  0  0  0  0  0  0  0
   -6.7913    5.0250  -17.5879 C   0  0  0  0  0  0  0  0  0  0  0  0
   -6.0515    4.6919  -16.4855 C   0  0  0  0  0  0  0  0  0  0  0  0
   -6.9571    4.2768  -15.5486 N   0  0  0  0  0  0  0  0  0  0  0  0
   -6.6951    4.0895  -14.1379 C   0  0  0  0  0  0  0  0  0  0  0  0
   -5.8431    2.9237  -13.7432 C   0  0  0  0  0  0  0  0  0  0  0  0
   -5.4808    3.0968  -12.4549 F   0  0  0  0  0  0  0  0  0  0  0  0
   -6.4915    1.7446  -13.8167 F   0  0  0  0  0  0  0  0  0  0  0  0
   -4.6935    2.8502  -14.4452 F   0  0  0  0  0  0  0  0  0  0  0  0
   -8.1940    4.3559  -16.1313 C   0  0  0  0  0  0  0  0  0  0  0  0
   -8.1157    4.8231  -17.3593 N   0  0  0  0  0  0  0  0  0  0  0  0
  1  2  1  0
  2  3  1  0
  3  4  1  0
  4  5  2  0
  4  6  1  0
  6  7  1  0
  7  8  2  0
  8  9  1  0
  9 10  1  0
 10 11  1  0
 11 12  1  0
 11 13  1  0
 11 14  1  0
  9 15  1  0
 15 16  2  0
 16  7  1  0
M  END
>  <energy_score>  (2927) 
-16.118527

>  <alias>  (2927) 
None

>  <HIPPO Pose ID>  (2927) 
76005

>  <smiles>  (2927) 
CCCC(=O)Nc1cn(CC(F)(F)F)cn1

>  <inchikey>  (2927) 
CPLTYKZSJNDBPX-UHFFFAOYSA-N

>  <distance_score>  (2927) 
1.609618

>  <ref_mols>  (2927) 
Z0719a,Z1597a

>  <ref_pdb>  (2927) 
Z0719a

>  <HIPPO Compound ID>  (2927) 
150936

>  <name>  (2927) 
P76005

>  <inspiration_score>  (2927) 
None

$$$$
P76010
     RDKit          3D

 16 17  0  0  0  0  0  0  0  0999 V2000
   -2.2654    8.7422  -21.6151 C   0  0  0  0  0  0  0  0  0  0  0  0
   -2.4680    7.4914  -20.7669 C   0  0  2  0  0  0  0  0  0  0  0  0
   -1.4436    6.1803  -21.4387 Cl  0  0  0  0  0  0  0  0  0  0  0  0
   -3.9244    7.0868  -20.7281 C   0  0  0  0  0  0  0  0  0  0  0  0
   -4.1637    6.0848  -19.6064 C   0  0  0  0  0  0  0  0  0  0  0  0
   -3.9128    4.9478  -19.7066 O   0  0  0  0  0  0  0  0  0  0  0  0
   -4.8589    6.8645  -18.4571 N   0  0  0  0  0  0  0  0  0  0  0  0
   -5.4314    6.4214  -17.3203 C   0  0  0  0  0  0  0  0  0  0  0  0
   -5.8150    5.1374  -17.0420 C   0  0  0  0  0  0  0  0  0  0  0  0
   -6.6671    5.2834  -15.9822 N   0  0  0  0  0  0  0  0  0  0  0  0
   -7.7725    4.3930  -15.6886 C   0  0  0  0  0  0  0  0  0  0  0  0
   -8.9381    4.7680  -16.5605 C   0  0  0  0  0  0  0  0  0  0  0  0
   -9.6711    3.7879  -17.4292 C   0  0  0  0  0  0  0  0  0  0  0  0
   -8.8219    4.8137  -18.0818 C   0  0  0  0  0  0  0  0  0  0  0  0
   -6.5689    6.5703  -15.5376 C   0  0  0  0  0  0  0  0  0  0  0  0
   -5.8605    7.2984  -16.3708 N   0  0  0  0  0  0  0  0  0  0  0  0
  2  1  1  6
  2  3  1  0
  2  4  1  0
  4  5  1  0
  5  6  2  0
  5  7  1  0
  7  8  1  0
  8  9  2  0
  9 10  1  0
 10 11  1  0
 11 12  1  0
 12 13  1  0
 13 14  1  0
 10 15  1  0
 15 16  2  0
 16  8  1  0
 14 12  1  0
M  END
>  <energy_score>  (2928) 
-5.425113

>  <alias>  (2928) 
None

>  <HIPPO Pose ID>  (2928) 
76010

>  <smiles>  (2928) 
C[C@H](Cl)CC(=O)Nc1cn(CC2CC2)cn1

>  <inchikey>  (2928) 
ZVSBFASMXQMMEC-QMMMGPOBSA-N

>  <distance_score>  (2928) 
1.857974

>  <ref_mols>  (2928) 
Z0719a,Z1597a

>  <ref_pdb>  (2928) 
Z0719a

>  <HIPPO Compound ID>  (2928) 
150943

>  <name>  (2928) 
P76010

>  <inspiration_score>  (2928) 
None

$$$$
P76012
     RDKit          3D

 16 17  0  0  0  0  0  0  0  0999 V2000
   -8.8921    4.2241  -18.9629 C   0  0  0  0  0  0  0  0  0  0  0  0
   -8.3028    4.4767  -17.6482 C   0  0  0  0  0  0  0  0  0  0  0  0
   -9.0920    4.3088  -16.5486 N   0  0  0  0  0  0  0  0  0  0  0  0
   -8.3206    4.5786  -15.5218 C   0  0  0  0  0  0  0  0  0  0  0  0
   -8.7727    4.6093  -14.1193 C   0  0  0  0  0  0  0  0  0  0  0  0
   -7.0387    4.8519  -15.9327 N   0  0  0  0  0  0  0  0  0  0  0  0
   -5.8864    4.9997  -15.0313 C   0  0  0  0  0  0  0  0  0  0  0  0
   -5.5159    6.3598  -14.4962 C   0  0  0  0  0  0  0  0  0  0  0  0
   -5.8778    5.2707  -13.5404 C   0  0  0  0  0  0  0  0  0  0  0  0
   -7.0150    4.8554  -17.3106 C   0  0  0  0  0  0  0  0  0  0  0  0
   -6.0084    5.1314  -18.2077 N   0  0  0  0  0  0  0  0  0  0  0  0
   -4.5059    5.4581  -17.9709 C   0  0  0  0  0  0  0  0  0  0  0  0
   -3.9130    5.6179  -16.9761 O   0  0  0  0  0  0  0  0  0  0  0  0
   -3.8461    5.5671  -19.3375 C   0  0  0  0  0  0  0  0  0  0  0  0
   -4.2485    6.8580  -20.0346 C   0  0  0  0  0  0  0  0  0  0  0  0
   -3.3039    7.1026  -21.5669 S   0  0  0  0  0  0  0  0  0  0  0  0
  1  2  1  0
  2  3  1  0
  3  4  2  0
  4  5  1  0
  4  6  1  0
  6  7  1  0
  7  8  1  0
  8  9  1  0
  6 10  1  0
 10 11  1  0
 11 12  1  0
 12 13  2  0
 12 14  1  0
 14 15  1  0
 15 16  1  0
 10  2  2  0
  9  7  1  0
M  END
>  <energy_score>  (2929) 
-33.731624

>  <alias>  (2929) 
None

>  <HIPPO Pose ID>  (2929) 
76012

>  <smiles>  (2929) 
Cc1nc(C)n(C2CC2)c1NC(=O)CCS

>  <inchikey>  (2929) 
OEYFEKMNDYORFL-UHFFFAOYSA-N

>  <distance_score>  (2929) 
1.780715

>  <ref_mols>  (2929) 
Z0719a,Z1597a

>  <ref_pdb>  (2929) 
Z0719a

>  <HIPPO Compound ID>  (2929) 
150947

>  <name>  (2929) 
P76012

>  <inspiration_score>  (2929) 
None

$$$$
P76014
     RDKit          3D

 16 16  0  0  0  0  0  0  0  0999 V2000
   -6.2339    4.2208  -14.0064 C   0  0  0  0  0  0  0  0  0  0  0  0
   -6.0492    5.1440  -15.2049 C   0  0  0  0  0  0  0  0  0  0  0  0
   -7.1675    5.1873  -16.1087 N   0  0  0  0  0  0  0  0  0  0  0  0
   -8.4867    5.1615  -15.7198 C   0  0  0  0  0  0  0  0  0  0  0  0
   -8.9772    5.6837  -14.4241 C   0  0  0  0  0  0  0  0  0  0  0  0
   -9.2218    4.6411  -16.6737 N   0  0  0  0  0  0  0  0  0  0  0  0
   -8.4020    4.5896  -17.7672 C   0  0  0  0  0  0  0  0  0  0  0  0
   -8.9480    4.1284  -19.0373 C   0  0  0  0  0  0  0  0  0  0  0  0
   -7.1465    5.0742  -17.4740 C   0  0  0  0  0  0  0  0  0  0  0  0
   -6.1378    5.3853  -18.3440 N   0  0  0  0  0  0  0  0  0  0  0  0
   -4.8108    6.1626  -18.1146 C   0  0  0  0  0  0  0  0  0  0  0  0
   -4.3417    6.5884  -17.1307 O   0  0  0  0  0  0  0  0  0  0  0  0
   -4.1337    6.3445  -19.4705 C   0  0  0  0  0  0  0  0  0  0  0  0
   -4.8580    7.2884  -20.4361 C   0  0  2  0  0  0  0  0  0  0  0  0
   -3.9938    7.6040  -21.6550 C   0  0  0  0  0  0  0  0  0  0  0  0
   -5.3029    8.8945  -19.6577 S   0  0  0  0  0  0  0  0  0  0  0  0
  1  2  1  0
  2  3  1  0
  3  4  1  0
  4  5  1  0
  4  6  2  0
  6  7  1  0
  7  8  1  0
  7  9  2  0
  9 10  1  0
 10 11  1  0
 11 12  2  0
 11 13  1  0
 13 14  1  0
 14 15  1  6
 14 16  1  0
  9  3  1  0
M  END
>  <energy_score>  (2930) 
-22.663099

>  <alias>  (2930) 
None

>  <HIPPO Pose ID>  (2930) 
76014

>  <smiles>  (2930) 
CCn1c(C)nc(C)c1NC(=O)C[C@H](C)S

>  <inchikey>  (2930) 
JFPVAVYUMSVPRR-ZETCQYMHSA-N

>  <distance_score>  (2930) 
1.364283

>  <ref_mols>  (2930) 
Z0719a,Z1597a

>  <ref_pdb>  (2930) 
Z0719a

>  <HIPPO Compound ID>  (2930) 
150955

>  <name>  (2930) 
P76014

>  <inspiration_score>  (2930) 
None

$$$$
P76017
     RDKit          3D

 16 16  0  0  0  0  0  0  0  0999 V2000
   -7.7472    5.2366  -13.9230 C   0  0  0  0  0  0  0  0  0  0  0  0
   -6.4646    4.7424  -14.3256 O   0  0  0  0  0  0  0  0  0  0  0  0
   -6.1360    4.5438  -15.6446 C   0  0  0  0  0  0  0  0  0  0  0  0
   -4.9862    4.2054  -15.9241 O   0  0  0  0  0  0  0  0  0  0  0  0
   -7.1857    4.6850  -16.6686 C   0  0  0  0  0  0  0  0  0  0  0  0
   -8.5270    4.3715  -16.4373 N   0  0  0  0  0  0  0  0  0  0  0  0
   -9.1310    4.4622  -17.5942 C   0  0  0  0  0  0  0  0  0  0  0  0
   -8.2521    4.7919  -18.5821 N   0  0  0  0  0  0  0  0  0  0  0  0
   -7.0220    4.9919  -18.0138 C   0  0  0  0  0  0  0  0  0  0  0  0
   -5.9780    5.4141  -18.7865 N   0  0  0  0  0  0  0  0  0  0  0  0
   -4.6463    6.1102  -18.3898 C   0  0  0  0  0  0  0  0  0  0  0  0
   -4.2743    6.4974  -17.3522 O   0  0  0  0  0  0  0  0  0  0  0  0
   -3.7730    6.1802  -19.6293 C   0  0  0  0  0  0  0  0  0  0  0  0
   -4.2759    7.1804  -20.6607 C   0  0  1  0  0  0  0  0  0  0  0  0
   -4.3653    8.6021  -20.1151 C   0  0  0  0  0  0  0  0  0  0  0  0
   -3.1389    7.1758  -22.0528 Cl  0  0  0  0  0  0  0  0  0  0  0  0
  1  2  1  0
  2  3  1  0
  3  4  2  0
  3  5  1  0
  5  6  1  0
  6  7  2  0
  7  8  1  0
  8  9  1  0
  9 10  1  0
 10 11  1  0
 11 12  2  0
 11 13  1  0
 13 14  1  0
 14 15  1  1
 14 16  1  0
  9  5  2  0
M  END
>  <energy_score>  (2931) 
-7.302214

>  <alias>  (2931) 
None

>  <HIPPO Pose ID>  (2931) 
76017

>  <smiles>  (2931) 
COC(=O)c1nc[nH]c1NC(=O)C[C@@H](C)Cl

>  <inchikey>  (2931) 
MQBQDMQDVXIEMV-RXMQYKEDSA-N

>  <distance_score>  (2931) 
1.595873

>  <ref_mols>  (2931) 
Z0719a,Z1597a

>  <ref_pdb>  (2931) 
Z0719a

>  <HIPPO Compound ID>  (2931) 
150956

>  <name>  (2931) 
P76017

>  <inspiration_score>  (2931) 
None

$$$$
P76018
     RDKit          3D

 16 17  0  0  0  0  0  0  0  0999 V2000
   -4.4614    7.6151  -20.8071 C   0  0  0  0  0  0  0  0  0  0  0  0
   -4.1652    6.6677  -20.1311 C   0  0  0  0  0  0  0  0  0  0  0  0
   -3.8051    5.4963  -19.3181 C   0  0  0  0  0  0  0  0  0  0  0  0
   -4.4844    5.4586  -17.9527 C   0  0  0  0  0  0  0  0  0  0  0  0
   -3.8843    5.5564  -16.9521 O   0  0  0  0  0  0  0  0  0  0  0  0
   -6.0001    5.1857  -18.1996 N   0  0  0  0  0  0  0  0  0  0  0  0
   -7.0130    4.8985  -17.3119 C   0  0  0  0  0  0  0  0  0  0  0  0
   -8.2939    4.5022  -17.6574 C   0  0  0  0  0  0  0  0  0  0  0  0
   -8.8695    4.2328  -18.9749 C   0  0  0  0  0  0  0  0  0  0  0  0
   -9.0873    4.3189  -16.5623 N   0  0  0  0  0  0  0  0  0  0  0  0
   -8.3262    4.5995  -15.5310 C   0  0  0  0  0  0  0  0  0  0  0  0
   -8.7860    4.6256  -14.1307 C   0  0  0  0  0  0  0  0  0  0  0  0
   -7.0464    4.8924  -15.9344 N   0  0  0  0  0  0  0  0  0  0  0  0
   -5.9072    5.0635  -15.0211 C   0  0  0  0  0  0  0  0  0  0  0  0
   -5.5101    6.4401  -14.5531 C   0  0  0  0  0  0  0  0  0  0  0  0
   -5.9304    5.4194  -13.5476 C   0  0  0  0  0  0  0  0  0  0  0  0
  1  2  3  0
  2  3  1  0
  3  4  1  0
  4  5  2  0
  4  6  1  0
  6  7  1  0
  7  8  2  0
  8  9  1  0
  8 10  1  0
 10 11  2  0
 11 12  1  0
 11 13  1  0
 13 14  1  0
 14 15  1  0
 15 16  1  0
 13  7  1  0
 16 14  1  0
M  END
>  <energy_score>  (2932) 
-2.116504

>  <alias>  (2932) 
None

>  <HIPPO Pose ID>  (2932) 
76018

>  <smiles>  (2932) 
C#CCC(=O)Nc1c(C)nc(C)n1C1CC1

>  <inchikey>  (2932) 
UTJAAZVEGDPLNT-UHFFFAOYSA-N

>  <distance_score>  (2932) 
1.778339

>  <ref_mols>  (2932) 
Z0719a,Z1597a

>  <ref_pdb>  (2932) 
Z0719a

>  <HIPPO Compound ID>  (2932) 
150958

>  <name>  (2932) 
P76018

>  <inspiration_score>  (2932) 
None

$$$$
P76023
     RDKit          3D

 16 16  0  0  0  0  0  0  0  0999 V2000
   -5.9064    2.2654  -12.7693 C   0  0  0  0  0  0  0  0  0  0  0  0
   -5.9378    3.5084  -13.6422 C   0  0  0  0  0  0  0  0  0  0  0  0
   -5.6517    4.7488  -12.7914 C   0  0  0  0  0  0  0  0  0  0  0  0
   -7.3154    3.6382  -14.3586 C   0  0  0  0  0  0  0  0  0  0  0  0
   -7.3149    4.3188  -15.6414 N   0  0  0  0  0  0  0  0  0  0  0  0
   -8.3504    4.3851  -16.5324 C   0  0  0  0  0  0  0  0  0  0  0  0
   -7.9585    4.9089  -17.6787 N   0  0  0  0  0  0  0  0  0  0  0  0
   -6.6500    5.2156  -17.4973 C   0  0  0  0  0  0  0  0  0  0  0  0
   -5.8168    5.6145  -18.4817 N   0  0  0  0  0  0  0  0  0  0  0  0
   -4.2804    5.9079  -18.4542 C   0  0  0  0  0  0  0  0  0  0  0  0
   -3.5264    5.9219  -17.5571 O   0  0  0  0  0  0  0  0  0  0  0  0
   -3.8447    6.0906  -19.9040 C   0  0  2  0  0  0  0  0  0  0  0  0
   -1.8836    6.1625  -20.0182 Br  0  0  0  0  0  0  0  0  0  0  0  0
   -4.4153    7.2938  -20.6212 C   0  0  0  0  0  0  0  0  0  0  0  0
   -5.7766    7.1164  -20.9856 O   0  0  0  0  0  0  0  0  0  0  0  0
   -6.2563    4.9454  -16.2219 C   0  0  0  0  0  0  0  0  0  0  0  0
  1  2  1  0
  2  3  1  0
  2  4  1  0
  4  5  1  0
  5  6  1  0
  6  7  2  0
  7  8  1  0
  8  9  1  0
  9 10  1  0
 10 11  2  0
 10 12  1  0
 12 13  1  1
 12 14  1  0
 14 15  1  0
  8 16  2  0
 16  5  1  0
M  END
>  <energy_score>  (2933) 
-27.930456

>  <alias>  (2933) 
None

>  <HIPPO Pose ID>  (2933) 
76023

>  <smiles>  (2933) 
CC(C)Cn1cnc(NC(=O)[C@H](Br)CO)c1

>  <inchikey>  (2933) 
MHIJNOWGGDWXMC-MRVPVSSYSA-N

>  <distance_score>  (2933) 
1.717723

>  <ref_mols>  (2933) 
Z0719a,Z1597a

>  <ref_pdb>  (2933) 
Z0719a

>  <HIPPO Compound ID>  (2933) 
150970

>  <name>  (2933) 
P76023

>  <inspiration_score>  (2933) 
None

$$$$
P76024
     RDKit          3D

 16 16  0  0  0  0  0  0  0  0999 V2000
   -4.2708    6.9236  -20.1746 C   0  0  0  0  0  0  0  0  0  0  0  0
   -3.7918    6.1045  -19.4388 C   0  0  0  0  0  0  0  0  0  0  0  0
   -3.2223    5.0732  -18.5452 C   0  0  0  0  0  0  0  0  0  0  0  0
   -3.9265    4.8763  -17.1918 C   0  0  0  0  0  0  0  0  0  0  0  0
   -3.3249    4.7705  -16.1929 O   0  0  0  0  0  0  0  0  0  0  0  0
   -5.4497    4.7650  -17.4647 N   0  0  0  0  0  0  0  0  0  0  0  0
   -6.4903    4.6054  -16.6069 C   0  0  0  0  0  0  0  0  0  0  0  0
   -7.7020    4.9224  -17.1649 N   0  0  0  0  0  0  0  0  0  0  0  0
   -8.5840    4.7546  -16.2156 C   0  0  0  0  0  0  0  0  0  0  0  0
   -7.9669    4.4450  -15.0486 N   0  0  0  0  0  0  0  0  0  0  0  0
   -8.5694    4.5327  -13.7405 C   0  0  0  0  0  0  0  0  0  0  0  0
   -6.6262    4.1866  -15.2936 C   0  0  0  0  0  0  0  0  0  0  0  0
   -5.6714    3.4497  -14.0187 S   0  0  0  0  0  0  0  0  0  0  0  0
   -4.2393    2.8282  -14.5604 N   0  0  0  0  0  0  0  0  0  0  0  0
   -5.3120    4.5105  -13.1121 O   0  0  0  0  0  0  0  0  0  0  0  0
   -6.4456    2.3191  -13.5734 O   0  0  0  0  0  0  0  0  0  0  0  0
  1  2  3  0
  2  3  1  0
  3  4  1  0
  4  5  2  0
  4  6  1  0
  6  7  1  0
  7  8  1  0
  8  9  2  0
  9 10  1  0
 10 11  1  0
 10 12  1  0
 12 13  1  0
 13 14  1  0
 13 15  2  0
 13 16  2  0
 12  7  2  0
M  END
>  <energy_score>  (2934) 
-36.039811

>  <alias>  (2934) 
None

>  <HIPPO Pose ID>  (2934) 
76024

>  <smiles>  (2934) 
C#CCC(=O)Nc1ncn(C)c1S(N)(=O)=O

>  <inchikey>  (2934) 
HHCVBGFRMSORSD-UHFFFAOYSA-N

>  <distance_score>  (2934) 
1.953936

>  <ref_mols>  (2934) 
Z0719a,Z1597a

>  <ref_pdb>  (2934) 
Z0719a

>  <HIPPO Compound ID>  (2934) 
150973

>  <name>  (2934) 
P76024

>  <inspiration_score>  (2934) 
None

$$$$
P76025
     RDKit          3D

 16 17  0  0  0  0  0  0  0  0999 V2000
   -0.3173    2.4198  -10.3020 C   0  0  0  0  0  0  0  0  0  0  0  0
   -1.2749    1.7433  -10.5631 C   0  0  0  0  0  0  0  0  0  0  0  0
   -2.4502    0.9109  -10.8815 C   0  0  0  0  0  0  0  0  0  0  0  0
   -3.5967    1.7130  -11.4979 C   0  0  0  0  0  0  0  0  0  0  0  0
   -4.6716    1.7151  -11.0380 O   0  0  0  0  0  0  0  0  0  0  0  0
   -3.0583    2.3619  -12.8100 N   0  0  0  0  0  0  0  0  0  0  0  0
   -3.6749    3.1709  -13.7113 C   0  0  0  0  0  0  0  0  0  0  0  0
   -2.9157    3.9003  -14.6050 N   0  0  0  0  0  0  0  0  0  0  0  0
   -3.8097    4.5367  -15.3120 C   0  0  0  0  0  0  0  0  0  0  0  0
   -5.0802    4.2603  -14.9310 N   0  0  0  0  0  0  0  0  0  0  0  0
   -5.0294    3.3385  -13.9382 C   0  0  0  0  0  0  0  0  0  0  0  0
   -6.1384    2.6160  -13.4414 C   0  0  0  0  0  0  0  0  0  0  0  0
   -7.0671    1.9775  -13.1758 N   0  0  0  0  0  0  0  0  0  0  0  0
   -6.1595    4.8106  -15.7187 C   0  0  0  0  0  0  0  0  0  0  0  0
   -5.5448    5.9057  -16.5963 C   0  0  0  0  0  0  0  0  0  0  0  0
   -3.7295    5.5968  -16.6589 S   0  0  0  0  0  0  0  0  0  0  0  0
  1  2  3  0
  2  3  1  0
  3  4  1  0
  4  5  2  0
  4  6  1  0
  6  7  1  0
  7  8  1  0
  8  9  2  0
  9 10  1  0
 10 11  1  0
 11 12  1  0
 12 13  3  0
 10 14  1  0
 14 15  1  0
 15 16  1  0
 11  7  2  0
 16  9  1  0
M  END
>  <energy_score>  (2935) 
-16.551586

>  <alias>  (2935) 
None

>  <HIPPO Pose ID>  (2935) 
76025

>  <smiles>  (2935) 
C#CCC(=O)Nc1nc2n(c1C#N)CCS2

>  <inchikey>  (2935) 
ZIRFLWZNNSCLJC-UHFFFAOYSA-N

>  <distance_score>  (2935) 
1.508214

>  <ref_mols>  (2935) 
Z0719a,Z1597a

>  <ref_pdb>  (2935) 
Z0719a

>  <HIPPO Compound ID>  (2935) 
150977

>  <name>  (2935) 
P76025

>  <inspiration_score>  (2935) 
None

$$$$
P76026
     RDKit          3D

 16 17  0  0  0  0  0  0  0  0999 V2000
   -3.5887    4.9314  -19.5847 O   0  0  0  0  0  0  0  0  0  0  0  0
   -3.7553    6.0801  -19.4287 C   0  0  0  0  0  0  0  0  0  0  0  0
   -4.5300    6.8442  -18.3180 N   0  0  0  0  0  0  0  0  0  0  0  0
   -5.2838    6.3819  -17.2993 C   0  0  0  0  0  0  0  0  0  0  0  0
   -5.7914    5.1236  -17.1191 C   0  0  0  0  0  0  0  0  0  0  0  0
   -6.6718    5.2740  -16.0824 N   0  0  0  0  0  0  0  0  0  0  0  0
   -7.7718    4.3841  -15.7771 C   0  0  0  0  0  0  0  0  0  0  0  0
   -8.9505    4.7588  -16.6248 C   0  0  0  0  0  0  0  0  0  0  0  0
   -8.8545    4.8155  -18.1448 C   0  0  0  0  0  0  0  0  0  0  0  0
   -9.6907    3.7802  -17.4886 C   0  0  0  0  0  0  0  0  0  0  0  0
   -6.5450    6.5413  -15.5969 C   0  0  0  0  0  0  0  0  0  0  0  0
   -5.7400    7.2502  -16.3518 N   0  0  0  0  0  0  0  0  0  0  0  0
   -3.2749    7.1038  -20.4487 C   0  0  2  0  0  0  0  0  0  0  0  0
   -2.3439    8.5701  -19.5531 Br  0  0  0  0  0  0  0  0  0  0  0  0
   -4.4057    7.6204  -21.3279 C   0  0  0  0  0  0  0  0  0  0  0  0
   -5.5125    8.1506  -20.5963 O   0  0  0  0  0  0  0  0  0  0  0  0
  1  2  2  0
  2  3  1  0
  3  4  1  0
  4  5  2  0
  5  6  1  0
  6  7  1  0
  7  8  1  0
  8  9  1  0
  9 10  1  0
  6 11  1  0
 11 12  2  0
  2 13  1  0
 13 14  1  1
 13 15  1  0
 15 16  1  0
 12  4  1  0
 10  8  1  0
M  END
>  <energy_score>  (2936) 
-27.715194

>  <alias>  (2936) 
None

>  <HIPPO Pose ID>  (2936) 
76026

>  <smiles>  (2936) 
O=C(Nc1cn(CC2CC2)cn1)[C@H](Br)CO

>  <inchikey>  (2936) 
DFXPEUITTJMSQR-MRVPVSSYSA-N

>  <distance_score>  (2936) 
1.988619

>  <ref_mols>  (2936) 
Z0719a,Z1597a

>  <ref_pdb>  (2936) 
Z0719a

>  <HIPPO Compound ID>  (2936) 
150980

>  <name>  (2936) 
P76026

>  <inspiration_score>  (2936) 
None

$$$$
P76028
     RDKit          3D

 16 16  0  0  0  0  0  0  0  0999 V2000
   -5.7968    6.0782  -14.3420 C   0  0  0  0  0  0  0  0  0  0  0  0
   -5.9644    4.8147  -15.1568 C   0  0  0  0  0  0  0  0  0  0  0  0
   -7.1150    4.8588  -16.0156 N   0  0  0  0  0  0  0  0  0  0  0  0
   -8.3907    4.6294  -15.5458 C   0  0  0  0  0  0  0  0  0  0  0  0
   -8.7522    4.6910  -14.1106 C   0  0  0  0  0  0  0  0  0  0  0  0
   -9.2015    4.3442  -16.5347 N   0  0  0  0  0  0  0  0  0  0  0  0
   -8.4528    4.4873  -17.6671 C   0  0  0  0  0  0  0  0  0  0  0  0
   -9.0706    4.2089  -18.9582 C   0  0  0  0  0  0  0  0  0  0  0  0
   -7.1649    4.8859  -17.3829 C   0  0  0  0  0  0  0  0  0  0  0  0
   -6.1802    5.1663  -18.2905 N   0  0  0  0  0  0  0  0  0  0  0  0
   -4.8117    5.9029  -18.1089 C   0  0  0  0  0  0  0  0  0  0  0  0
   -4.2916    6.3096  -17.1412 O   0  0  0  0  0  0  0  0  0  0  0  0
   -4.1757    5.9221  -19.5029 C   0  0  2  0  0  0  0  0  0  0  0  0
   -2.2359    6.1692  -19.3474 Br  0  0  0  0  0  0  0  0  0  0  0  0
   -4.7463    6.9900  -20.4258 C   0  0  0  0  0  0  0  0  0  0  0  0
   -4.6080    8.3109  -19.8967 O   0  0  0  0  0  0  0  0  0  0  0  0
  1  2  1  0
  2  3  1  0
  3  4  1  0
  4  5  1  0
  4  6  2  0
  6  7  1  0
  7  8  1  0
  7  9  2  0
  9 10  1  0
 10 11  1  0
 11 12  2  0
 11 13  1  0
 13 14  1  1
 13 15  1  0
 15 16  1  0
  9  3  1  0
M  END
>  <energy_score>  (2937) 
-17.629579

>  <alias>  (2937) 
None

>  <HIPPO Pose ID>  (2937) 
76028

>  <smiles>  (2937) 
CCn1c(C)nc(C)c1NC(=O)[C@H](Br)CO

>  <inchikey>  (2937) 
DJXPVAUDISCOAW-MRVPVSSYSA-N

>  <distance_score>  (2937) 
1.591769

>  <ref_mols>  (2937) 
Z0719a,Z1597a

>  <ref_pdb>  (2937) 
Z0719a

>  <HIPPO Compound ID>  (2937) 
150983

>  <name>  (2937) 
P76028

>  <inspiration_score>  (2937) 
None

$$$$
P76030
     RDKit          3D

 16 17  0  0  0  0  0  0  0  0999 V2000
   -3.4153    7.7034  -18.1985 O   0  0  0  0  0  0  0  0  0  0  0  0
   -3.6666    7.0630  -19.1471 C   0  0  0  0  0  0  0  0  0  0  0  0
   -4.7471    5.9583  -19.3639 N   0  0  0  0  0  0  0  0  0  0  0  0
   -5.7274    5.5185  -18.5455 C   0  0  0  0  0  0  0  0  0  0  0  0
   -6.7829    4.7191  -18.8994 C   0  0  0  0  0  0  0  0  0  0  0  0
   -7.5497    4.6410  -17.7766 N   0  0  0  0  0  0  0  0  0  0  0  0
   -8.7727    4.0682  -17.6910 N   0  0  0  0  0  0  0  0  0  0  0  0
   -9.2632    4.1735  -16.5027 C   0  0  0  0  0  0  0  0  0  0  0  0
   -8.6035    4.7447  -15.3069 C   0  0  0  0  0  0  0  0  0  0  0  0
   -7.4077    5.3056  -15.4842 C   0  0  0  0  0  0  0  0  0  0  0  0
   -6.8555    5.3086  -16.7775 C   0  0  0  0  0  0  0  0  0  0  0  0
   -5.7637    5.8746  -17.2353 N   0  0  0  0  0  0  0  0  0  0  0  0
   -2.8753    7.2503  -20.4309 C   0  0  1  0  0  0  0  0  0  0  0  0
   -1.7715    5.6550  -20.6635 Br  0  0  0  0  0  0  0  0  0  0  0  0
   -3.7345    7.5487  -21.6448 C   0  0  0  0  0  0  0  0  0  0  0  0
   -2.9204    8.0422  -22.7095 O   0  0  0  0  0  0  0  0  0  0  0  0
  1  2  2  0
  2  3  1  0
  3  4  1  0
  4  5  2  0
  5  6  1  0
  6  7  1  0
  7  8  2  0
  8  9  1  0
  9 10  2  0
 10 11  1  0
 11 12  2  0
  2 13  1  0
 13 14  1  6
 13 15  1  0
 15 16  1  0
 12  4  1  0
 11  6  1  0
M  END
>  <energy_score>  (2938) 
-35.397981

>  <alias>  (2938) 
None

>  <HIPPO Pose ID>  (2938) 
76030

>  <smiles>  (2938) 
O=C(Nc1cn2ncccc2n1)[C@@H](Br)CO

>  <inchikey>  (2938) 
YAIFTGCPWSOGDN-LURJTMIESA-N

>  <distance_score>  (2938) 
1.78397

>  <ref_mols>  (2938) 
Z0719a,Z1597a

>  <ref_pdb>  (2938) 
Z0719a

>  <HIPPO Compound ID>  (2938) 
150986

>  <name>  (2938) 
P76030

>  <inspiration_score>  (2938) 
None

$$$$
P76034
     RDKit          3D

 16 16  0  0  0  0  0  0  0  0999 V2000
   -7.5070    5.1496  -13.9350 C   0  0  0  0  0  0  0  0  0  0  0  0
   -6.2343    4.6989  -14.4141 O   0  0  0  0  0  0  0  0  0  0  0  0
   -5.9664    4.5393  -15.7522 C   0  0  0  0  0  0  0  0  0  0  0  0
   -4.8240    4.2333  -16.0931 O   0  0  0  0  0  0  0  0  0  0  0  0
   -7.0678    4.6767  -16.7211 C   0  0  0  0  0  0  0  0  0  0  0  0
   -8.3951    4.3530  -16.4256 N   0  0  0  0  0  0  0  0  0  0  0  0
   -9.0579    4.4497  -17.5493 C   0  0  0  0  0  0  0  0  0  0  0  0
   -8.2310    4.7917  -18.5765 N   0  0  0  0  0  0  0  0  0  0  0  0
   -6.9752    5.0001  -18.0688 C   0  0  0  0  0  0  0  0  0  0  0  0
   -5.9860    5.4601  -18.8899 N   0  0  0  0  0  0  0  0  0  0  0  0
   -4.6864    6.2464  -18.5611 C   0  0  0  0  0  0  0  0  0  0  0  0
   -4.2267    6.5526  -17.5315 O   0  0  0  0  0  0  0  0  0  0  0  0
   -3.9919    6.5802  -19.8756 C   0  0  0  0  0  0  0  0  0  0  0  0
   -4.7947    7.4963  -20.7981 C   0  0  2  0  0  0  0  0  0  0  0  0
   -4.0462    7.7556  -22.1036 C   0  0  0  0  0  0  0  0  0  0  0  0
   -5.1386    9.1299  -20.0252 S   0  0  0  0  0  0  0  0  0  0  0  0
  1  2  1  0
  2  3  1  0
  3  4  2  0
  3  5  1  0
  5  6  1  0
  6  7  2  0
  7  8  1  0
  8  9  1  0
  9 10  1  0
 10 11  1  0
 11 12  2  0
 11 13  1  0
 13 14  1  0
 14 15  1  6
 14 16  1  0
  9  5  2  0
M  END
>  <energy_score>  (2939) 
-8.269314

>  <alias>  (2939) 
None

>  <HIPPO Pose ID>  (2939) 
76034

>  <smiles>  (2939) 
COC(=O)c1nc[nH]c1NC(=O)C[C@H](C)S

>  <inchikey>  (2939) 
YCMPGQQBYAWPIO-YFKPBYRVSA-N

>  <distance_score>  (2939) 
1.70535

>  <ref_mols>  (2939) 
Z0719a,Z1597a

>  <ref_pdb>  (2939) 
Z0719a

>  <HIPPO Compound ID>  (2939) 
151003

>  <name>  (2939) 
P76034

>  <inspiration_score>  (2939) 
None

$$$$
P76035
     RDKit          3D

 16 16  0  0  0  0  0  0  0  0999 V2000
   -7.8188    5.2063  -13.9299 C   0  0  0  0  0  0  0  0  0  0  0  0
   -6.5038    4.7453  -14.2603 O   0  0  0  0  0  0  0  0  0  0  0  0
   -6.0908    4.5814  -15.5597 C   0  0  0  0  0  0  0  0  0  0  0  0
   -4.9167    4.2829  -15.7774 O   0  0  0  0  0  0  0  0  0  0  0  0
   -7.0796    4.7096  -16.6438 C   0  0  0  0  0  0  0  0  0  0  0  0
   -8.4279    4.3739  -16.5050 N   0  0  0  0  0  0  0  0  0  0  0  0
   -8.9487    4.4534  -17.7028 C   0  0  0  0  0  0  0  0  0  0  0  0
   -8.0066    4.7952  -18.6290 N   0  0  0  0  0  0  0  0  0  0  0  0
   -6.8272    5.0268  -17.9725 C   0  0  0  0  0  0  0  0  0  0  0  0
   -5.7351    5.4922  -18.6472 N   0  0  0  0  0  0  0  0  0  0  0  0
   -4.5432    6.3769  -18.1594 C   0  0  0  0  0  0  0  0  0  0  0  0
   -4.2812    6.7735  -17.0884 O   0  0  0  0  0  0  0  0  0  0  0  0
   -3.6245    6.6797  -19.3829 C   0  0  0  0  0  0  0  0  0  0  0  0
   -4.3668    7.3456  -20.5440 C   0  0  0  0  0  0  0  0  0  0  0  0
   -2.4583    7.5817  -18.9542 C   0  0  0  0  0  0  0  0  0  0  0  0
   -2.9179    5.1243  -19.9424 Cl  0  0  0  0  0  0  0  0  0  0  0  0
  1  2  1  0
  2  3  1  0
  3  4  2  0
  3  5  1  0
  5  6  1  0
  6  7  2  0
  7  8  1  0
  8  9  1  0
  9 10  1  0
 10 11  1  0
 11 12  2  0
 11 13  1  0
 13 14  1  0
 13 15  1  0
 13 16  1  0
  9  5  2  0
M  END
>  <energy_score>  (2940) 
-7.070525

>  <alias>  (2940) 
None

>  <HIPPO Pose ID>  (2940) 
76035

>  <smiles>  (2940) 
COC(=O)c1nc[nH]c1NC(=O)C(C)(C)Cl

>  <inchikey>  (2940) 
OZNNPDDERYPQFN-UHFFFAOYSA-N

>  <distance_score>  (2940) 
1.67308

>  <ref_mols>  (2940) 
Z0719a,Z1597a

>  <ref_pdb>  (2940) 
Z0719a

>  <HIPPO Compound ID>  (2940) 
151004

>  <name>  (2940) 
P76035

>  <inspiration_score>  (2940) 
None

$$$$
P76036
     RDKit          3D

 16 16  0  0  0  0  0  0  0  0999 V2000
   -5.0170    2.8512  -13.6755 C   0  0  0  0  0  0  0  0  0  0  0  0
   -6.1824    3.8036  -13.4722 C   0  0  0  0  0  0  0  0  0  0  0  0
   -5.7204    5.2566  -13.3731 C   0  0  0  0  0  0  0  0  0  0  0  0
   -7.3517    3.5981  -14.4742 C   0  0  0  0  0  0  0  0  0  0  0  0
   -7.3300    4.1829  -15.8006 N   0  0  0  0  0  0  0  0  0  0  0  0
   -8.4486    4.6004  -16.4733 C   0  0  0  0  0  0  0  0  0  0  0  0
   -8.1332    5.2717  -17.5596 N   0  0  0  0  0  0  0  0  0  0  0  0
   -6.7806    5.2201  -17.6388 C   0  0  0  0  0  0  0  0  0  0  0  0
   -6.1018    5.9141  -18.5862 N   0  0  0  0  0  0  0  0  0  0  0  0
   -4.5730    6.0276  -18.8547 C   0  0  0  0  0  0  0  0  0  0  0  0
   -3.6697    5.4779  -18.3475 O   0  0  0  0  0  0  0  0  0  0  0  0
   -4.3126    7.1418  -19.9086 C   0  0  0  0  0  0  0  0  0  0  0  0
   -4.3669    8.4744  -19.1863 C   0  0  0  0  0  0  0  0  0  0  0  0
   -2.9203    6.9868  -20.5236 C   0  0  0  0  0  0  0  0  0  0  0  0
   -5.5293    7.2354  -21.1973 Cl  0  0  0  0  0  0  0  0  0  0  0  0
   -6.2622    4.5080  -16.5891 C   0  0  0  0  0  0  0  0  0  0  0  0
  1  2  1  0
  2  3  1  0
  2  4  1  0
  4  5  1  0
  5  6  1  0
  6  7  2  0
  7  8  1  0
  8  9  1  0
  9 10  1  0
 10 11  2  0
 10 12  1  0
 12 13  1  0
 12 14  1  0
 12 15  1  0
  8 16  2  0
 16  5  1  0
M  END
>  <energy_score>  (2941) 
-29.46466

>  <alias>  (2941) 
None

>  <HIPPO Pose ID>  (2941) 
76036

>  <smiles>  (2941) 
CC(C)Cn1cnc(NC(=O)C(C)(C)Cl)c1

>  <inchikey>  (2941) 
OVDJYFICBZGAGS-UHFFFAOYSA-N

>  <distance_score>  (2941) 
1.807925

>  <ref_mols>  (2941) 
Z0719a,Z1597a

>  <ref_pdb>  (2941) 
Z0719a

>  <HIPPO Compound ID>  (2941) 
151005

>  <name>  (2941) 
P76036

>  <inspiration_score>  (2941) 
None

$$$$
P76038
     RDKit          3D

 16 17  0  0  0  0  0  0  0  0999 V2000
   -0.7190    1.3482  -12.1983 C   0  0  0  0  0  0  0  0  0  0  0  0
   -1.7290    1.6738  -11.3732 C   0  0  0  0  0  0  0  0  0  0  0  0
   -1.6575    1.5021   -9.8858 C   0  0  0  0  0  0  0  0  0  0  0  0
   -3.0707    2.1214  -11.8932 C   0  0  0  0  0  0  0  0  0  0  0  0
   -4.0572    1.7143  -11.4277 O   0  0  0  0  0  0  0  0  0  0  0  0
   -2.8475    3.1384  -13.0325 N   0  0  0  0  0  0  0  0  0  0  0  0
   -3.7389    3.7572  -13.8504 C   0  0  0  0  0  0  0  0  0  0  0  0
   -3.2567    4.7259  -14.7121 N   0  0  0  0  0  0  0  0  0  0  0  0
   -4.3191    5.1149  -15.3583 C   0  0  0  0  0  0  0  0  0  0  0  0
   -5.4361    4.4504  -14.9802 N   0  0  0  0  0  0  0  0  0  0  0  0
   -5.0991    3.5532  -14.0185 C   0  0  0  0  0  0  0  0  0  0  0  0
   -5.9936    2.6000  -13.4728 C   0  0  0  0  0  0  0  0  0  0  0  0
   -6.7885    1.8149  -13.1637 N   0  0  0  0  0  0  0  0  0  0  0  0
   -6.6587    4.7339  -15.6964 C   0  0  0  0  0  0  0  0  0  0  0  0
   -6.4304    6.0560  -16.4342 C   0  0  0  0  0  0  0  0  0  0  0  0
   -4.6075    6.2711  -16.5935 S   0  0  0  0  0  0  0  0  0  0  0  0
  1  2  2  0
  2  3  1  0
  2  4  1  0
  4  5  2  0
  4  6  1  0
  6  7  1  0
  7  8  1  0
  8  9  2  0
  9 10  1  0
 10 11  1  0
 11 12  1  0
 12 13  3  0
 10 14  1  0
 14 15  1  0
 15 16  1  0
 11  7  2  0
 16  9  1  0
M  END
>  <energy_score>  (2942) 
-35.220102

>  <alias>  (2942) 
None

>  <HIPPO Pose ID>  (2942) 
76038

>  <smiles>  (2942) 
C=C(C)C(=O)Nc1nc2n(c1C#N)CCS2

>  <inchikey>  (2942) 
KBBYGNJURSPNOJ-UHFFFAOYSA-N

>  <distance_score>  (2942) 
1.211019

>  <ref_mols>  (2942) 
Z0719a,Z1597a

>  <ref_pdb>  (2942) 
Z0719a

>  <HIPPO Compound ID>  (2942) 
151013

>  <name>  (2942) 
P76038

>  <inspiration_score>  (2942) 
None

$$$$
P76040
     RDKit          3D

 16 16  0  0  0  0  0  0  0  0999 V2000
   -2.3167    4.7192  -19.0820 C   0  0  0  0  0  0  0  0  0  0  0  0
   -3.4785    5.3470  -18.8459 C   0  0  0  0  0  0  0  0  0  0  0  0
   -4.0613    6.3771  -19.7723 C   0  0  0  0  0  0  0  0  0  0  0  0
   -4.1303    5.0761  -17.5073 C   0  0  0  0  0  0  0  0  0  0  0  0
   -3.5313    5.1163  -16.5098 O   0  0  0  0  0  0  0  0  0  0  0  0
   -5.6323    4.8695  -17.7602 N   0  0  0  0  0  0  0  0  0  0  0  0
   -6.6415    4.5913  -16.8977 C   0  0  0  0  0  0  0  0  0  0  0  0
   -7.8720    4.7001  -17.4958 N   0  0  0  0  0  0  0  0  0  0  0  0
   -8.7493    4.6383  -16.5326 C   0  0  0  0  0  0  0  0  0  0  0  0
   -8.1130    4.5440  -15.3403 N   0  0  0  0  0  0  0  0  0  0  0  0
   -8.6957    4.9065  -14.0721 C   0  0  0  0  0  0  0  0  0  0  0  0
   -6.7699    4.2514  -15.5603 C   0  0  0  0  0  0  0  0  0  0  0  0
   -5.8110    3.5994  -14.2263 S   0  0  0  0  0  0  0  0  0  0  0  0
   -6.6809    2.2345  -13.7079 N   0  0  0  0  0  0  0  0  0  0  0  0
   -4.5343    3.1209  -14.6829 O   0  0  0  0  0  0  0  0  0  0  0  0
   -5.9466    4.5649  -13.1655 O   0  0  0  0  0  0  0  0  0  0  0  0
  1  2  2  0
  2  3  1  0
  2  4  1  0
  4  5  2  0
  4  6  1  0
  6  7  1  0
  7  8  1  0
  8  9  2  0
  9 10  1  0
 10 11  1  0
 10 12  1  0
 12 13  1  0
 13 14  1  0
 13 15  2  0
 13 16  2  0
 12  7  2  0
M  END
>  <energy_score>  (2943) 
-27.963917

>  <alias>  (2943) 
None

>  <HIPPO Pose ID>  (2943) 
76040

>  <smiles>  (2943) 
C=C(C)C(=O)Nc1ncn(C)c1S(N)(=O)=O

>  <inchikey>  (2943) 
RYWNVYVBVIQOKM-UHFFFAOYSA-N

>  <distance_score>  (2943) 
1.591567

>  <ref_mols>  (2943) 
Z0719a,Z1597a

>  <ref_pdb>  (2943) 
Z0719a

>  <HIPPO Compound ID>  (2943) 
151025

>  <name>  (2943) 
P76040

>  <inspiration_score>  (2943) 
None

$$$$
P76041
     RDKit          3D

 16 16  0  0  0  0  0  0  0  0999 V2000
   -2.6210    6.4239  -20.3394 C   0  0  0  0  0  0  0  0  0  0  0  0
   -3.8997    6.4786  -19.9181 C   0  0  0  0  0  0  0  0  0  0  0  0
   -4.9177    7.2630  -20.6791 C   0  0  0  0  0  0  0  0  0  0  0  0
   -4.2035    5.8152  -18.5839 C   0  0  0  0  0  0  0  0  0  0  0  0
   -3.3166    5.5727  -17.8612 O   0  0  0  0  0  0  0  0  0  0  0  0
   -5.7316    5.6648  -18.3829 N   0  0  0  0  0  0  0  0  0  0  0  0
   -6.4348    5.1321  -17.3568 C   0  0  0  0  0  0  0  0  0  0  0  0
   -5.9244    4.5377  -16.2352 C   0  0  0  0  0  0  0  0  0  0  0  0
   -7.0040    4.1330  -15.5103 N   0  0  0  0  0  0  0  0  0  0  0  0
   -7.0400    3.4094  -14.2596 C   0  0  0  0  0  0  0  0  0  0  0  0
   -5.7524    3.1447  -13.5465 C   0  0  0  0  0  0  0  0  0  0  0  0
   -5.2707    4.2854  -13.0190 F   0  0  0  0  0  0  0  0  0  0  0  0
   -5.9917    2.2738  -12.5387 F   0  0  0  0  0  0  0  0  0  0  0  0
   -4.7787    2.6083  -14.3013 F   0  0  0  0  0  0  0  0  0  0  0  0
   -8.1184    4.5187  -16.2134 C   0  0  0  0  0  0  0  0  0  0  0  0
   -7.7928    5.1509  -17.3212 N   0  0  0  0  0  0  0  0  0  0  0  0
  1  2  2  0
  2  3  1  0
  2  4  1  0
  4  5  2  0
  4  6  1  0
  6  7  1  0
  7  8  2  0
  8  9  1  0
  9 10  1  0
 10 11  1  0
 11 12  1  0
 11 13  1  0
 11 14  1  0
  9 15  1  0
 15 16  2  0
 16  7  1  0
M  END
>  <energy_score>  (2944) 
-26.334378

>  <alias>  (2944) 
None

>  <HIPPO Pose ID>  (2944) 
76041

>  <smiles>  (2944) 
C=C(C)C(=O)Nc1cn(CC(F)(F)F)cn1

>  <inchikey>  (2944) 
DNMNJOVXYOVBFD-UHFFFAOYSA-N

>  <distance_score>  (2944) 
1.885211

>  <ref_mols>  (2944) 
Z0719a,Z1597a

>  <ref_pdb>  (2944) 
Z0719a

>  <HIPPO Compound ID>  (2944) 
151026

>  <name>  (2944) 
P76041

>  <inspiration_score>  (2944) 
None

$$$$
P76046
     RDKit          3D

 16 16  0  0  0  0  0  0  0  0999 V2000
   -3.3189    7.9505  -21.2146 C   0  0  0  0  0  0  0  0  0  0  0  0
   -4.0991    6.9694  -20.7373 C   0  0  0  0  0  0  0  0  0  0  0  0
   -3.7052    5.9088  -19.7430 C   0  0  1  0  0  0  0  0  0  0  0  0
   -2.3168    6.0255  -19.4370 O   0  0  0  0  0  0  0  0  0  0  0  0
   -4.5805    5.9840  -18.4626 C   0  0  0  0  0  0  0  0  0  0  0  0
   -4.1718    6.4196  -17.4543 O   0  0  0  0  0  0  0  0  0  0  0  0
   -5.9479    5.3051  -18.7909 N   0  0  0  0  0  0  0  0  0  0  0  0
   -6.9858    4.9611  -17.9724 C   0  0  0  0  0  0  0  0  0  0  0  0
   -8.2422    4.8187  -18.5021 N   0  0  0  0  0  0  0  0  0  0  0  0
   -9.1066    4.5456  -17.4854 C   0  0  0  0  0  0  0  0  0  0  0  0
   -8.4750    4.4555  -16.3435 N   0  0  0  0  0  0  0  0  0  0  0  0
   -7.1240    4.6791  -16.6177 C   0  0  0  0  0  0  0  0  0  0  0  0
   -6.0505    4.5131  -15.6190 C   0  0  0  0  0  0  0  0  0  0  0  0
   -4.8849    4.2641  -15.9217 O   0  0  0  0  0  0  0  0  0  0  0  0
   -6.3751    4.6871  -14.2960 O   0  0  0  0  0  0  0  0  0  0  0  0
   -7.5579    4.0625  -13.7846 C   0  0  0  0  0  0  0  0  0  0  0  0
  1  2  2  0
  2  3  1  0
  3  4  1  1
  3  5  1  0
  5  6  2  0
  5  7  1  0
  7  8  1  0
  8  9  1  0
  9 10  1  0
 10 11  2  0
 11 12  1  0
 12 13  1  0
 13 14  2  0
 13 15  1  0
 15 16  1  0
 12  8  2  0
M  END
>  <energy_score>  (2945) 
-9.410742

>  <alias>  (2945) 
None

>  <HIPPO Pose ID>  (2945) 
76046

>  <smiles>  (2945) 
C=C[C@@H](O)C(=O)Nc1[nH]cnc1C(=O)OC

>  <inchikey>  (2945) 
ZYTPZBVPGSZPQC-RXMQYKEDSA-N

>  <distance_score>  (2945) 
1.590752

>  <ref_mols>  (2945) 
Z0719a,Z1597a

>  <ref_pdb>  (2945) 
Z0719a

>  <HIPPO Compound ID>  (2945) 
151037

>  <name>  (2945) 
P76046

>  <inspiration_score>  (2945) 
None

$$$$
P76047
     RDKit          3D

 16 16  0  0  0  0  0  0  0  0999 V2000
   -4.6808    8.9548  -21.0843 C   0  0  0  0  0  0  0  0  0  0  0  0
   -3.9706    8.0226  -20.4325 C   0  0  0  0  0  0  0  0  0  0  0  0
   -4.2194    6.5505  -20.5169 C   0  0  1  0  0  0  0  0  0  0  0  0
   -3.0207    5.9624  -21.0590 O   0  0  0  0  0  0  0  0  0  0  0  0
   -4.4538    5.9682  -19.0998 C   0  0  0  0  0  0  0  0  0  0  0  0
   -3.5657    5.9334  -18.3316 O   0  0  0  0  0  0  0  0  0  0  0  0
   -5.9395    5.5157  -18.9489 N   0  0  0  0  0  0  0  0  0  0  0  0
   -6.6111    5.0500  -17.8694 C   0  0  0  0  0  0  0  0  0  0  0  0
   -6.0824    4.9435  -16.6160 C   0  0  0  0  0  0  0  0  0  0  0  0
   -7.0849    4.4733  -15.8206 N   0  0  0  0  0  0  0  0  0  0  0  0
   -7.0721    4.5007  -14.3739 C   0  0  0  0  0  0  0  0  0  0  0  0
   -6.0017    3.7302  -13.5401 C   0  0  0  0  0  0  0  0  0  0  0  0
   -4.5643    3.8157  -14.0371 C   0  0  0  0  0  0  0  0  0  0  0  0
   -6.4213    2.2949  -13.2854 C   0  0  0  0  0  0  0  0  0  0  0  0
   -8.1891    4.3487  -16.6220 C   0  0  0  0  0  0  0  0  0  0  0  0
   -7.9195    4.6875  -17.8692 N   0  0  0  0  0  0  0  0  0  0  0  0
  1  2  2  0
  2  3  1  0
  3  4  1  1
  3  5  1  0
  5  6  2  0
  5  7  1  0
  7  8  1  0
  8  9  2  0
  9 10  1  0
 10 11  1  0
 11 12  1  0
 12 13  1  0
 12 14  1  0
 10 15  1  0
 15 16  2  0
 16  8  1  0
M  END
>  <energy_score>  (2946) 
-26.81144

>  <alias>  (2946) 
None

>  <HIPPO Pose ID>  (2946) 
76047

>  <smiles>  (2946) 
C=C[C@@H](O)C(=O)Nc1cn(CC(C)C)cn1

>  <inchikey>  (2946) 
YUIJPTRPDQSQHP-SECBINFHSA-N

>  <distance_score>  (2946) 
1.65523

>  <ref_mols>  (2946) 
Z0719a,Z1597a

>  <ref_pdb>  (2946) 
Z0719a

>  <HIPPO Compound ID>  (2946) 
151038

>  <name>  (2946) 
P76047

>  <inspiration_score>  (2946) 
None

$$$$
P76049
     RDKit          3D

 16 17  0  0  0  0  0  0  0  0999 V2000
   -4.0472    7.2969  -21.3748 C   0  0  0  0  0  0  0  0  0  0  0  0
   -3.1298    6.5279  -20.4352 C   0  0  1  0  0  0  0  0  0  0  0  0
   -1.7684    6.7632  -20.7782 O   0  0  0  0  0  0  0  0  0  0  0  0
   -1.3480    5.7544  -21.7622 N   0  0  0  0  0  0  0  0  0  0  0  0
   -3.4676    6.9113  -18.9861 C   0  0  0  0  0  0  0  0  0  0  0  0
   -2.9335    7.7437  -18.3621 O   0  0  0  0  0  0  0  0  0  0  0  0
   -4.6570    5.9754  -18.6125 N   0  0  0  0  0  0  0  0  0  0  0  0
   -5.3165    5.8226  -17.4489 C   0  0  0  0  0  0  0  0  0  0  0  0
   -6.1603    4.7707  -17.2391 C   0  0  0  0  0  0  0  0  0  0  0  0
   -6.8218    5.0986  -16.0974 N   0  0  0  0  0  0  0  0  0  0  0  0
   -8.0436    4.4666  -15.6658 C   0  0  0  0  0  0  0  0  0  0  0  0
   -9.1752    4.8371  -16.5809 C   0  0  0  0  0  0  0  0  0  0  0  0
   -9.8368    3.8004  -17.4451 C   0  0  0  0  0  0  0  0  0  0  0  0
   -9.1246    4.9101  -18.1108 C   0  0  0  0  0  0  0  0  0  0  0  0
   -6.2452    6.2218  -15.5875 C   0  0  0  0  0  0  0  0  0  0  0  0
   -5.3166    6.6817  -16.3991 N   0  0  0  0  0  0  0  0  0  0  0  0
  2  1  1  6
  2  3  1  0
  3  4  1  0
  2  5  1  0
  5  6  2  0
  5  7  1  0
  7  8  1  0
  8  9  2  0
  9 10  1  0
 10 11  1  0
 11 12  1  0
 12 13  1  0
 13 14  1  0
 10 15  1  0
 15 16  2  0
 16  8  1  0
 14 12  1  0
M  END
>  <energy_score>  (2947) 
-33.957738

>  <alias>  (2947) 
None

>  <HIPPO Pose ID>  (2947) 
76049

>  <smiles>  (2947) 
C[C@@H](ON)C(=O)Nc1cn(CC2CC2)cn1

>  <inchikey>  (2947) 
WIXLBRBZUFDIFB-SSDOTTSWSA-N

>  <distance_score>  (2947) 
1.841156

>  <ref_mols>  (2947) 
Z0719a,Z1597a

>  <ref_pdb>  (2947) 
Z0719a

>  <HIPPO Compound ID>  (2947) 
151048

>  <name>  (2947) 
P76049

>  <inspiration_score>  (2947) 
None

$$$$
P76053
     RDKit          3D

 16 16  0  0  0  0  0  0  0  0999 V2000
   -9.4587    4.2624  -15.5507 C   0  0  0  0  0  0  0  0  0  0  0  0
   -8.8075    4.4229  -16.8352 C   0  0  0  0  0  0  0  0  0  0  0  0
   -9.2593    3.9281  -17.9641 N   0  0  0  0  0  0  0  0  0  0  0  0
   -8.2756    4.1680  -18.8642 C   0  0  0  0  0  0  0  0  0  0  0  0
   -7.2194    4.8094  -18.2715 C   0  0  0  0  0  0  0  0  0  0  0  0
   -5.9634    4.9761  -18.7332 N   0  0  0  0  0  0  0  0  0  0  0  0
   -4.8939    6.0458  -18.3824 C   0  0  0  0  0  0  0  0  0  0  0  0
   -4.9638    6.9923  -17.6972 O   0  0  0  0  0  0  0  0  0  0  0  0
   -3.6034    5.5755  -19.0440 C   0  0  1  0  0  0  0  0  0  0  0  0
   -3.1027    6.6270  -20.0180 C   0  0  0  0  0  0  0  0  0  0  0  0
   -2.6627    5.3556  -17.9604 O   0  0  0  0  0  0  0  0  0  0  0  0
   -3.2811    4.4992  -16.9107 N   0  0  0  0  0  0  0  0  0  0  0  0
   -7.5964    5.0385  -16.9704 N   0  0  0  0  0  0  0  0  0  0  0  0
   -6.7676    5.6166  -15.9138 C   0  0  0  0  0  0  0  0  0  0  0  0
   -7.1663    5.4759  -14.5065 C   0  0  0  0  0  0  0  0  0  0  0  0
   -7.4952    5.3989  -13.3940 N   0  0  0  0  0  0  0  0  0  0  0  0
  1  2  1  0
  2  3  2  0
  3  4  1  0
  4  5  2  0
  5  6  1  0
  6  7  1  0
  7  8  2  0
  7  9  1  0
  9 10  1  6
  9 11  1  0
 11 12  1  0
  5 13  1  0
 13 14  1  0
 14 15  1  0
 15 16  3  0
 13  2  1  0
M  END
>  <energy_score>  (2948) 
-15.554802

>  <alias>  (2948) 
None

>  <HIPPO Pose ID>  (2948) 
76053

>  <smiles>  (2948) 
Cc1ncc(NC(=O)[C@@H](C)ON)n1CC#N

>  <inchikey>  (2948) 
WKVUKLLKBJLTTM-ZCFIWIBFSA-N

>  <distance_score>  (2948) 
1.765777

>  <ref_mols>  (2948) 
Z0719a,Z1597a

>  <ref_pdb>  (2948) 
Z0719a

>  <HIPPO Compound ID>  (2948) 
151061

>  <name>  (2948) 
P76053

>  <inspiration_score>  (2948) 
None

$$$$
P76056
     RDKit          3D

 16 16  0  0  0  0  0  0  0  0999 V2000
   -3.7925    5.5442  -14.4052 C   0  0  0  0  0  0  0  0  0  0  0  0
   -3.4509    5.7923  -15.5327 C   0  0  0  0  0  0  0  0  0  0  0  0
   -3.2042    5.8751  -16.9936 C   0  0  2  0  0  0  0  0  0  0  0  0
   -3.3583    7.2550  -17.6367 C   0  0  0  0  0  0  0  0  0  0  0  0
   -4.1829    4.9861  -17.7416 C   0  0  0  0  0  0  0  0  0  0  0  0
   -3.8487    4.3519  -18.6708 O   0  0  0  0  0  0  0  0  0  0  0  0
   -5.6051    5.1921  -17.1091 N   0  0  0  0  0  0  0  0  0  0  0  0
   -6.8223    4.7644  -17.5244 C   0  0  0  0  0  0  0  0  0  0  0  0
   -7.2320    4.2978  -18.7423 C   0  0  0  0  0  0  0  0  0  0  0  0
   -6.4990    4.2737  -19.9848 C   0  0  0  0  0  0  0  0  0  0  0  0
   -8.5375    3.9486  -18.7427 N   0  0  0  0  0  0  0  0  0  0  0  0
   -8.9757    4.3199  -17.5764 C   0  0  0  0  0  0  0  0  0  0  0  0
  -10.3914    4.3036  -17.2586 C   0  0  0  0  0  0  0  0  0  0  0  0
   -7.9656    4.7896  -16.7721 N   0  0  0  0  0  0  0  0  0  0  0  0
   -8.1021    5.2878  -15.4232 C   0  0  0  0  0  0  0  0  0  0  0  0
   -7.5397    4.3541  -14.3708 C   0  0  0  0  0  0  0  0  0  0  0  0
  1  2  3  0
  2  3  1  0
  3  4  1  6
  3  5  1  0
  5  6  2  0
  5  7  1  0
  7  8  1  0
  8  9  2  0
  9 10  1  0
  9 11  1  0
 11 12  2  0
 12 13  1  0
 12 14  1  0
 14 15  1  0
 15 16  1  0
 14  8  1  0
M  END
>  <energy_score>  (2949) 
-8.046641

>  <alias>  (2949) 
None

>  <HIPPO Pose ID>  (2949) 
76056

>  <smiles>  (2949) 
C#C[C@H](C)C(=O)Nc1c(C)nc(C)n1CC

>  <inchikey>  (2949) 
WUIKPUYPSORUFY-QMMMGPOBSA-N

>  <distance_score>  (2949) 
1.979857

>  <ref_mols>  (2949) 
Z0719a,Z1597a

>  <ref_pdb>  (2949) 
Z0719a

>  <HIPPO Compound ID>  (2949) 
151074

>  <name>  (2949) 
P76056

>  <inspiration_score>  (2949) 
None

$$$$
P76057
     RDKit          3D

 16 16  0  0  0  0  0  0  0  0999 V2000
   -5.3551    7.3833  -22.0327 C   0  0  0  0  0  0  0  0  0  0  0  0
   -4.7504    7.3716  -20.9954 C   0  0  0  0  0  0  0  0  0  0  0  0
   -4.0204    7.4633  -19.7227 C   0  0  2  0  0  0  0  0  0  0  0  0
   -2.5246    7.6249  -20.0095 C   0  0  0  0  0  0  0  0  0  0  0  0
   -4.2660    6.3044  -18.7308 C   0  0  0  0  0  0  0  0  0  0  0  0
   -3.3748    5.7351  -18.2239 O   0  0  0  0  0  0  0  0  0  0  0  0
   -5.8052    6.1732  -18.5105 N   0  0  0  0  0  0  0  0  0  0  0  0
   -6.5059    5.4347  -17.6163 C   0  0  0  0  0  0  0  0  0  0  0  0
   -5.9966    4.6019  -16.6607 C   0  0  0  0  0  0  0  0  0  0  0  0
   -7.0488    4.3044  -15.8416 N   0  0  0  0  0  0  0  0  0  0  0  0
   -7.0095    3.6885  -14.5256 C   0  0  0  0  0  0  0  0  0  0  0  0
   -5.6210    3.5249  -13.8547 C   0  0  0  0  0  0  0  0  0  0  0  0
   -5.7051    2.4734  -12.7580 C   0  0  0  0  0  0  0  0  0  0  0  0
   -5.1316    4.8536  -13.2742 C   0  0  0  0  0  0  0  0  0  0  0  0
   -8.1678    4.8224  -16.4319 C   0  0  0  0  0  0  0  0  0  0  0  0
   -7.8499    5.5620  -17.4749 N   0  0  0  0  0  0  0  0  0  0  0  0
  1  2  3  0
  2  3  1  0
  3  4  1  6
  3  5  1  0
  5  6  2  0
  5  7  1  0
  7  8  1  0
  8  9  2  0
  9 10  1  0
 10 11  1  0
 11 12  1  0
 12 13  1  0
 12 14  1  0
 10 15  1  0
 15 16  2  0
 16  8  1  0
M  END
>  <energy_score>  (2950) 
-33.38227

>  <alias>  (2950) 
None

>  <HIPPO Pose ID>  (2950) 
76057

>  <smiles>  (2950) 
C#C[C@H](C)C(=O)Nc1cn(CC(C)C)cn1

>  <inchikey>  (2950) 
QTRYQPUGDZTKGX-JTQLQIEISA-N

>  <distance_score>  (2950) 
1.746304

>  <ref_mols>  (2950) 
Z0719a,Z1597a

>  <ref_pdb>  (2950) 
Z0719a

>  <HIPPO Compound ID>  (2950) 
151076

>  <name>  (2950) 
P76057

>  <inspiration_score>  (2950) 
None

$$$$
P76060
     RDKit          3D

 16 16  0  0  0  0  0  0  0  0999 V2000
   -7.6501    3.5819  -13.5915 C   0  0  0  0  0  0  0  0  0  0  0  0
   -6.3420    4.0851  -13.8716 O   0  0  0  0  0  0  0  0  0  0  0  0
   -5.9661    4.4853  -15.1242 C   0  0  0  0  0  0  0  0  0  0  0  0
   -4.7803    4.7676  -15.3206 O   0  0  0  0  0  0  0  0  0  0  0  0
   -6.9580    4.6362  -16.2051 C   0  0  0  0  0  0  0  0  0  0  0  0
   -8.2979    4.2734  -16.1959 N   0  0  0  0  0  0  0  0  0  0  0  0
   -8.7700    4.5987  -17.3783 C   0  0  0  0  0  0  0  0  0  0  0  0
   -7.8135    5.1894  -18.1601 N   0  0  0  0  0  0  0  0  0  0  0  0
   -6.6613    5.2194  -17.4271 C   0  0  0  0  0  0  0  0  0  0  0  0
   -5.4814    5.7138  -17.8908 N   0  0  0  0  0  0  0  0  0  0  0  0
   -5.1455    6.4350  -19.2227 C   0  0  0  0  0  0  0  0  0  0  0  0
   -5.8441    6.7839  -20.0916 O   0  0  0  0  0  0  0  0  0  0  0  0
   -3.6432    6.7077  -19.2335 C   0  0  1  0  0  0  0  0  0  0  0  0
   -2.6548    5.0606  -18.8545 Br  0  0  0  0  0  0  0  0  0  0  0  0
   -3.1953    7.2653  -20.5820 C   0  0  0  0  0  0  0  0  0  0  0  0
   -3.3351    6.3309  -21.6498 O   0  0  0  0  0  0  0  0  0  0  0  0
  1  2  1  0
  2  3  1  0
  3  4  2  0
  3  5  1  0
  5  6  1  0
  6  7  2  0
  7  8  1  0
  8  9  1  0
  9 10  1  0
 10 11  1  0
 11 12  2  0
 11 13  1  0
 13 14  1  6
 13 15  1  0
 15 16  1  0
  9  5  2  0
M  END
>  <energy_score>  (2951) 
-21.59431

>  <alias>  (2951) 
None

>  <HIPPO Pose ID>  (2951) 
76060

>  <smiles>  (2951) 
COC(=O)c1nc[nH]c1NC(=O)[C@@H](Br)CO

>  <inchikey>  (2951) 
FRBXZQZHCBBKAQ-BYPYZUCNSA-N

>  <distance_score>  (2951) 
1.971289

>  <ref_mols>  (2951) 
Z0719a,Z1597a

>  <ref_pdb>  (2951) 
Z0719a

>  <HIPPO Compound ID>  (2951) 
151083

>  <name>  (2951) 
P76060

>  <inspiration_score>  (2951) 
None

$$$$
P76062
     RDKit          3D

 16 17  0  0  0  0  0  0  0  0999 V2000
   -4.4060    9.2699  -24.1538 C   0  0  0  0  0  0  0  0  0  0  0  0
   -3.7200    7.6181  -23.8827 S   0  0  0  0  0  0  0  0  0  0  0  0
   -3.7681    7.5616  -22.0585 C   0  0  0  0  0  0  0  0  0  0  0  0
   -5.1828    7.5456  -21.5064 C   0  0  0  0  0  0  0  0  0  0  0  0
   -5.0801    7.2051  -20.0311 C   0  0  0  0  0  0  0  0  0  0  0  0
   -4.2467    7.6615  -19.3507 O   0  0  0  0  0  0  0  0  0  0  0  0
   -6.2650    6.2726  -19.6785 N   0  0  0  0  0  0  0  0  0  0  0  0
   -6.5924    5.6739  -18.5149 C   0  0  0  0  0  0  0  0  0  0  0  0
   -7.7524    4.9796  -18.2764 C   0  0  0  0  0  0  0  0  0  0  0  0
   -7.7415    4.7810  -16.9278 N   0  0  0  0  0  0  0  0  0  0  0  0
   -8.7559    4.3893  -16.0761 C   0  0  0  0  0  0  0  0  0  0  0  0
   -8.5090    4.3768  -14.7611 C   0  0  0  0  0  0  0  0  0  0  0  0
   -7.1137    4.6757  -14.3632 C   0  0  0  0  0  0  0  0  0  0  0  0
   -6.1564    5.0616  -15.1402 N   0  0  0  0  0  0  0  0  0  0  0  0
   -6.4927    5.1889  -16.4548 C   0  0  0  0  0  0  0  0  0  0  0  0
   -5.8067    5.7657  -17.4142 N   0  0  0  0  0  0  0  0  0  0  0  0
  1  2  1  0
  2  3  1  0
  3  4  1  0
  4  5  1  0
  5  6  2  0
  5  7  1  0
  7  8  1  0
  8  9  2  0
  9 10  1  0
 10 11  1  0
 11 12  2  0
 12 13  1  0
 13 14  2  0
 14 15  1  0
 15 16  2  0
 16  8  1  0
 15 10  1  0
M  END
>  <energy_score>  (2952) 
-1.36548

>  <alias>  (2952) 
None

>  <HIPPO Pose ID>  (2952) 
76062

>  <smiles>  (2952) 
CSCCC(=O)Nc1cn2cccnc2n1

>  <inchikey>  (2952) 
JOIVMSLJZJAYQB-UHFFFAOYSA-N

>  <distance_score>  (2952) 
1.76108

>  <ref_mols>  (2952) 
Z0719a,Z1597a

>  <ref_pdb>  (2952) 
Z0719a

>  <HIPPO Compound ID>  (2952) 
151088

>  <name>  (2952) 
P76062

>  <inspiration_score>  (2952) 
None

$$$$
P76064
     RDKit          3D

 16 17  0  0  0  0  0  0  0  0999 V2000
   -4.8348    4.6945  -18.5917 C   0  0  0  0  0  0  0  0  0  0  0  0
   -5.4054    5.4852  -17.4257 C   0  0  1  0  0  0  0  0  0  0  0  0
   -6.9649    6.2263  -17.9823 S   0  0  0  0  0  0  0  0  0  0  0  0
   -5.6131    4.6393  -16.1445 C   0  0  0  0  0  0  0  0  0  0  0  0
   -6.6617    4.3047  -15.7519 O   0  0  0  0  0  0  0  0  0  0  0  0
   -4.1879    4.3718  -15.5714 N   0  0  0  0  0  0  0  0  0  0  0  0
   -3.7998    3.7583  -14.4210 C   0  0  0  0  0  0  0  0  0  0  0  0
   -2.4628    3.8588  -14.0830 N   0  0  0  0  0  0  0  0  0  0  0  0
   -2.3714    3.1704  -12.9805 C   0  0  0  0  0  0  0  0  0  0  0  0
   -3.5555    2.6436  -12.5934 N   0  0  0  0  0  0  0  0  0  0  0  0
   -4.5028    2.9928  -13.5042 C   0  0  0  0  0  0  0  0  0  0  0  0
   -5.8360    2.5199  -13.4494 C   0  0  0  0  0  0  0  0  0  0  0  0
   -6.8499    1.9778  -13.3026 N   0  0  0  0  0  0  0  0  0  0  0  0
   -3.5569    1.7810  -11.4316 C   0  0  0  0  0  0  0  0  0  0  0  0
   -2.2416    2.0464  -10.6927 C   0  0  0  0  0  0  0  0  0  0  0  0
   -1.0772    2.7620  -11.9313 S   0  0  0  0  0  0  0  0  0  0  0  0
  2  1  1  6
  2  3  1  0
  2  4  1  0
  4  5  2  0
  4  6  1  0
  6  7  1  0
  7  8  1  0
  8  9  2  0
  9 10  1  0
 10 11  1  0
 11 12  1  0
 12 13  3  0
 10 14  1  0
 14 15  1  0
 15 16  1  0
 11  7  2  0
 16  9  1  0
M  END
>  <energy_score>  (2953) 
-23.031325

>  <alias>  (2953) 
None

>  <HIPPO Pose ID>  (2953) 
76064

>  <smiles>  (2953) 
C[C@@H](S)C(=O)Nc1nc2n(c1C#N)CCS2

>  <inchikey>  (2953) 
VGPJRGQSHJWCJD-RXMQYKEDSA-N

>  <distance_score>  (2953) 
1.341097

>  <ref_mols>  (2953) 
Z0719a,Z1597a

>  <ref_pdb>  (2953) 
Z0719a

>  <HIPPO Compound ID>  (2953) 
151089

>  <name>  (2953) 
P76064

>  <inspiration_score>  (2953) 
None

$$$$
P76067
     RDKit          3D

 16 16  0  0  0  0  0  0  0  0999 V2000
   -2.4598    7.9770  -22.4986 C   0  0  0  0  0  0  0  0  0  0  0  0
   -3.2724    7.4826  -21.6167 C   0  0  0  0  0  0  0  0  0  0  0  0
   -4.0920    6.9863  -20.7357 C   0  0  0  0  0  0  0  0  0  0  0  0
   -3.6844    6.0377  -19.6499 C   0  0  0  0  0  0  0  0  0  0  0  0
   -4.6003    6.1095  -18.4275 C   0  0  0  0  0  0  0  0  0  0  0  0
   -4.2655    6.5941  -17.4168 O   0  0  0  0  0  0  0  0  0  0  0  0
   -5.9110    5.3521  -18.7989 N   0  0  0  0  0  0  0  0  0  0  0  0
   -6.9685    4.9784  -18.0214 C   0  0  0  0  0  0  0  0  0  0  0  0
   -8.2048    4.7945  -18.5799 N   0  0  0  0  0  0  0  0  0  0  0  0
   -9.0826    4.4900  -17.5825 C   0  0  0  0  0  0  0  0  0  0  0  0
   -8.4739    4.4096  -16.4268 N   0  0  0  0  0  0  0  0  0  0  0  0
   -7.1294    4.6994  -16.6702 C   0  0  0  0  0  0  0  0  0  0  0  0
   -6.0692    4.5603  -15.6561 C   0  0  0  0  0  0  0  0  0  0  0  0
   -4.9163    4.2433  -15.9498 O   0  0  0  0  0  0  0  0  0  0  0  0
   -6.3884    4.7340  -14.3313 O   0  0  0  0  0  0  0  0  0  0  0  0
   -7.6701    5.2139  -13.9088 C   0  0  0  0  0  0  0  0  0  0  0  0
  1  2  2  0
  2  3  2  0
  3  4  1  0
  4  5  1  0
  5  6  2  0
  5  7  1  0
  7  8  1  0
  8  9  1  0
  9 10  1  0
 10 11  2  0
 11 12  1  0
 12 13  1  0
 13 14  2  0
 13 15  1  0
 15 16  1  0
 12  8  2  0
M  END
>  <energy_score>  (2954) 
-11.844416

>  <alias>  (2954) 
None

>  <HIPPO Pose ID>  (2954) 
76067

>  <smiles>  (2954) 
C=C=CCC(=O)Nc1[nH]cnc1C(=O)OC

>  <inchikey>  (2954) 
BHLKVCUZVXVJSH-UHFFFAOYSA-N

>  <distance_score>  (2954) 
1.685771

>  <ref_mols>  (2954) 
Z0719a,Z1597a

>  <ref_pdb>  (2954) 
Z0719a

>  <HIPPO Compound ID>  (2954) 
151095

>  <name>  (2954) 
P76067

>  <inspiration_score>  (2954) 
None

$$$$
P76070
     RDKit          3D

 16 16  0  0  0  0  0  0  0  0999 V2000
   -3.4005    7.6972  -23.2556 C   0  0  0  0  0  0  0  0  0  0  0  0
   -3.9853    7.5337  -22.2195 C   0  0  0  0  0  0  0  0  0  0  0  0
   -4.7145    7.3336  -20.9559 C   0  0  0  0  0  0  0  0  0  0  0  0
   -3.9513    6.4119  -20.0262 C   0  0  0  0  0  0  0  0  0  0  0  0
   -4.5395    6.3501  -18.6325 C   0  0  0  0  0  0  0  0  0  0  0  0
   -3.9468    6.7699  -17.7145 O   0  0  0  0  0  0  0  0  0  0  0  0
   -5.8938    5.5889  -18.6946 N   0  0  0  0  0  0  0  0  0  0  0  0
   -6.6927    5.1368  -17.7022 C   0  0  0  0  0  0  0  0  0  0  0  0
   -6.3824    5.1518  -16.3733 C   0  0  0  0  0  0  0  0  0  0  0  0
   -7.3446    4.3950  -15.7737 N   0  0  0  0  0  0  0  0  0  0  0  0
   -7.3728    4.0441  -14.3699 C   0  0  0  0  0  0  0  0  0  0  0  0
   -6.2997    3.0545  -13.8409 C   0  0  0  0  0  0  0  0  0  0  0  0
   -4.8579    3.5281  -14.0129 C   0  0  0  0  0  0  0  0  0  0  0  0
   -6.5530    2.7631  -12.3691 C   0  0  0  0  0  0  0  0  0  0  0  0
   -8.3066    4.1688  -16.7143 C   0  0  0  0  0  0  0  0  0  0  0  0
   -7.9025    4.5579  -17.9082 N   0  0  0  0  0  0  0  0  0  0  0  0
  1  2  3  0
  2  3  1  0
  3  4  1  0
  4  5  1  0
  5  6  2  0
  5  7  1  0
  7  8  1  0
  8  9  2  0
  9 10  1  0
 10 11  1  0
 11 12  1  0
 12 13  1  0
 12 14  1  0
 10 15  1  0
 15 16  2  0
 16  8  1  0
M  END
>  <energy_score>  (2955) 
-38.771266

>  <alias>  (2955) 
None

>  <HIPPO Pose ID>  (2955) 
76070

>  <smiles>  (2955) 
C#CCCC(=O)Nc1cn(CC(C)C)cn1

>  <inchikey>  (2955) 
QTDQATCOKPLMLS-UHFFFAOYSA-N

>  <distance_score>  (2955) 
1.694638

>  <ref_mols>  (2955) 
Z0719a,Z1597a

>  <ref_pdb>  (2955) 
Z0719a

>  <HIPPO Compound ID>  (2955) 
151101

>  <name>  (2955) 
P76070

>  <inspiration_score>  (2955) 
None

$$$$
P76073
     RDKit          3D

 16 16  0  0  0  0  0  0  0  0999 V2000
   -2.4268    6.6331  -20.1798 C   0  0  0  0  0  0  0  0  0  0  0  0
   -3.6878    6.2078  -20.0117 C   0  0  0  0  0  0  0  0  0  0  0  0
   -4.1926    5.2249  -18.9710 C   0  0  1  0  0  0  0  0  0  0  0  0
   -3.1051    4.7553  -18.1810 O   0  0  0  0  0  0  0  0  0  0  0  0
   -5.3817    5.8249  -18.1514 C   0  0  0  0  0  0  0  0  0  0  0  0
   -6.0105    6.7495  -18.5068 O   0  0  0  0  0  0  0  0  0  0  0  0
   -5.5659    4.8909  -16.9107 N   0  0  0  0  0  0  0  0  0  0  0  0
   -6.5471    4.8520  -15.9779 C   0  0  0  0  0  0  0  0  0  0  0  0
   -7.6621    5.6326  -16.1350 N   0  0  0  0  0  0  0  0  0  0  0  0
   -8.4672    5.2752  -15.1631 C   0  0  0  0  0  0  0  0  0  0  0  0
   -7.8724    4.3785  -14.3311 N   0  0  0  0  0  0  0  0  0  0  0  0
   -8.3015    4.0370  -12.9974 C   0  0  0  0  0  0  0  0  0  0  0  0
   -6.6469    4.0707  -14.8534 C   0  0  0  0  0  0  0  0  0  0  0  0
   -5.6481    3.0812  -14.2019 C   0  0  0  0  0  0  0  0  0  0  0  0
   -6.1506    2.1621  -13.4844 O   0  0  0  0  0  0  0  0  0  0  0  0
   -4.4163    3.2569  -14.4499 O   0  0  0  0  0  0  0  0  0  0  0  0
  1  2  2  0
  2  3  1  0
  3  4  1  1
  3  5  1  0
  5  6  2  0
  5  7  1  0
  7  8  1  0
  8  9  1  0
  9 10  2  0
 10 11  1  0
 11 12  1  0
 11 13  1  0
 13 14  1  0
 14 15  2  0
 14 16  1  0
 13  8  2  0
M  CHG  1  16  -1
M  END
>  <energy_score>  (2956) 
-38.040403

>  <alias>  (2956) 
None

>  <HIPPO Pose ID>  (2956) 
76073

>  <smiles>  (2956) 
C=C[C@@H](O)C(=O)Nc1ncn(C)c1C(=O)[O-]

>  <inchikey>  (2956) 
HHBLAKAORZOUBH-RXMQYKEDSA-M

>  <distance_score>  (2956) 
1.917376

>  <ref_mols>  (2956) 
Z0719a,Z1597a

>  <ref_pdb>  (2956) 
Z0719a

>  <HIPPO Compound ID>  (2956) 
151115

>  <name>  (2956) 
P76073

>  <inspiration_score>  (2956) 
None

$$$$
P76077
     RDKit          3D

 16 16  0  0  0  0  0  0  0  0999 V2000
   -4.6668    9.9747  -21.4058 C   0  0  0  0  0  0  0  0  0  0  0  0
   -5.0231    8.9115  -20.6744 C   0  0  0  0  0  0  0  0  0  0  0  0
   -4.9046    7.4857  -21.1441 C   0  0  0  0  0  0  0  0  0  0  0  0
   -4.0078    6.6547  -20.2427 C   0  0  0  0  0  0  0  0  0  0  0  0
   -4.4834    6.4379  -18.8156 C   0  0  0  0  0  0  0  0  0  0  0  0
   -3.7702    6.6720  -17.9168 O   0  0  0  0  0  0  0  0  0  0  0  0
   -5.9066    5.8112  -18.8360 N   0  0  0  0  0  0  0  0  0  0  0  0
   -6.6516    5.2935  -17.8344 C   0  0  0  0  0  0  0  0  0  0  0  0
   -6.2487    5.1727  -16.5366 C   0  0  0  0  0  0  0  0  0  0  0  0
   -7.2414    4.4822  -15.9151 N   0  0  0  0  0  0  0  0  0  0  0  0
   -7.2192    3.9723  -14.5590 C   0  0  0  0  0  0  0  0  0  0  0  0
   -5.8204    3.6751  -13.9418 C   0  0  0  0  0  0  0  0  0  0  0  0
   -5.3114    4.8762  -13.1397 C   0  0  0  0  0  0  0  0  0  0  0  0
   -5.8908    2.4532  -13.0359 C   0  0  0  0  0  0  0  0  0  0  0  0
   -8.2550    4.3360  -16.8194 C   0  0  0  0  0  0  0  0  0  0  0  0
   -7.8991    4.7881  -18.0047 N   0  0  0  0  0  0  0  0  0  0  0  0
  1  2  2  0
  2  3  1  0
  3  4  1  0
  4  5  1  0
  5  6  2  0
  5  7  1  0
  7  8  1  0
  8  9  2  0
  9 10  1  0
 10 11  1  0
 11 12  1  0
 12 13  1  0
 12 14  1  0
 10 15  1  0
 15 16  2  0
 16  8  1  0
M  END
>  <energy_score>  (2957) 
-16.487344

>  <alias>  (2957) 
None

>  <HIPPO Pose ID>  (2957) 
76077

>  <smiles>  (2957) 
C=CCCC(=O)Nc1cn(CC(C)C)cn1

>  <inchikey>  (2957) 
IQKPZOVJXHLLSX-UHFFFAOYSA-N

>  <distance_score>  (2957) 
1.726722

>  <ref_mols>  (2957) 
Z0719a,Z1597a

>  <ref_pdb>  (2957) 
Z0719a

>  <HIPPO Compound ID>  (2957) 
151121

>  <name>  (2957) 
P76077

>  <inspiration_score>  (2957) 
None

$$$$
P76079
     RDKit          3D

 16 17  0  0  0  0  0  0  0  0999 V2000
   -4.4302    5.9457  -17.1445 O   0  0  0  0  0  0  0  0  0  0  0  0
   -4.7399    5.5707  -18.2064 C   0  0  0  0  0  0  0  0  0  0  0  0
   -3.7398    5.4133  -19.3307 C   0  0  0  0  0  0  0  0  0  0  0  0
   -3.8183    6.5170  -20.3550 C   0  0  0  0  0  0  0  0  0  0  0  0
   -2.9777    6.1758  -21.3807 F   0  0  0  0  0  0  0  0  0  0  0  0
   -6.1085    5.0561  -18.7332 N   0  0  0  0  0  0  0  0  0  0  0  0
   -7.2822    4.8223  -18.0728 C   0  0  0  0  0  0  0  0  0  0  0  0
   -8.4532    4.7693  -18.7834 N   0  0  0  0  0  0  0  0  0  0  0  0
   -9.4807    4.5275  -17.9246 C   0  0  0  0  0  0  0  0  0  0  0  0
   -9.0437    4.3730  -16.7055 N   0  0  0  0  0  0  0  0  0  0  0  0
   -7.6728    4.5779  -16.7678 C   0  0  0  0  0  0  0  0  0  0  0  0
   -6.9086    4.3737  -15.5356 C   0  0  0  0  0  0  0  0  0  0  0  0
   -5.6034    3.9481  -15.5368 N   0  0  0  0  0  0  0  0  0  0  0  0
   -5.3120    3.6114  -14.2849 N   0  0  0  0  0  0  0  0  0  0  0  0
   -6.4404    3.8548  -13.6068 N   0  0  0  0  0  0  0  0  0  0  0  0
   -7.4400    4.4065  -14.3011 N   0  0  0  0  0  0  0  0  0  0  0  0
  1  2  2  0
  2  3  1  0
  3  4  1  0
  4  5  1  0
  2  6  1  0
  6  7  1  0
  7  8  1  0
  8  9  1  0
  9 10  2  0
 10 11  1  0
 11 12  1  0
 12 13  1  0
 13 14  2  0
 14 15  1  0
 15 16  1  0
 11  7  2  0
 16 12  2  0
M  END
>  <energy_score>  (2958) 
-10.780505

>  <alias>  (2958) 
None

>  <HIPPO Pose ID>  (2958) 
76079

>  <smiles>  (2958) 
O=C(CCF)Nc1[nH]cnc1-c1nn[nH]n1

>  <inchikey>  (2958) 
YGMFWUVOLBCRFI-UHFFFAOYSA-N

>  <distance_score>  (2958) 
1.934262

>  <ref_mols>  (2958) 
Z0719a,Z1597a

>  <ref_pdb>  (2958) 
Z0719a

>  <HIPPO Compound ID>  (2958) 
151136

>  <name>  (2958) 
P76079

>  <inspiration_score>  (2958) 
None

$$$$
P76081
     RDKit          3D

 16 17  0  0  0  0  0  0  0  0999 V2000
   -4.0359    9.2438  -23.9109 C   0  0  0  0  0  0  0  0  0  0  0  0
   -4.2271    8.0538  -23.3282 C   0  0  0  0  0  0  0  0  0  0  0  0
   -4.6226    7.8764  -21.8891 C   0  0  0  0  0  0  0  0  0  0  0  0
   -3.4888    7.2800  -21.0736 C   0  0  0  0  0  0  0  0  0  0  0  0
   -3.8997    7.0361  -19.6371 C   0  0  0  0  0  0  0  0  0  0  0  0
   -3.4332    7.6362  -18.7490 O   0  0  0  0  0  0  0  0  0  0  0  0
   -4.9997    5.9378  -19.6432 N   0  0  0  0  0  0  0  0  0  0  0  0
   -5.7638    5.4556  -18.6376 C   0  0  0  0  0  0  0  0  0  0  0  0
   -6.9089    4.7200  -18.7998 C   0  0  0  0  0  0  0  0  0  0  0  0
   -7.4402    4.6495  -17.5479 N   0  0  0  0  0  0  0  0  0  0  0  0
   -8.6809    4.2139  -17.1378 C   0  0  0  0  0  0  0  0  0  0  0  0
   -8.9630    4.2668  -15.8354 C   0  0  0  0  0  0  0  0  0  0  0  0
   -7.8702    4.7255  -14.9454 C   0  0  0  0  0  0  0  0  0  0  0  0
   -6.7135    5.1726  -15.3150 N   0  0  0  0  0  0  0  0  0  0  0  0
   -6.5022    5.1857  -16.6634 C   0  0  0  0  0  0  0  0  0  0  0  0
   -5.5013    5.7174  -17.3317 N   0  0  0  0  0  0  0  0  0  0  0  0
  1  2  2  0
  2  3  1  0
  3  4  1  0
  4  5  1  0
  5  6  2  0
  5  7  1  0
  7  8  1  0
  8  9  2  0
  9 10  1  0
 10 11  1  0
 11 12  2  0
 12 13  1  0
 13 14  2  0
 14 15  1  0
 15 16  2  0
 16  8  1  0
 15 10  1  0
M  END
>  <energy_score>  (2959) 
-30.577027

>  <alias>  (2959) 
None

>  <HIPPO Pose ID>  (2959) 
76081

>  <smiles>  (2959) 
C=CCCC(=O)Nc1cn2cccnc2n1

>  <inchikey>  (2959) 
UEPJLTRVCNAXKL-UHFFFAOYSA-N

>  <distance_score>  (2959) 
1.770952

>  <ref_mols>  (2959) 
Z0719a,Z1597a

>  <ref_pdb>  (2959) 
Z0719a

>  <HIPPO Compound ID>  (2959) 
151139

>  <name>  (2959) 
P76081

>  <inspiration_score>  (2959) 
None

$$$$
P76082
     RDKit          3D

 16 16  0  0  0  0  0  0  0  0999 V2000
   -3.9030    7.1089  -16.6152 C   0  0  0  0  0  0  0  0  0  0  0  0
   -4.0562    7.5069  -17.8935 C   0  0  0  0  0  0  0  0  0  0  0  0
   -3.6666    6.8008  -19.1891 C   0  0  0  0  0  0  0  0  0  0  0  0
   -3.3396    5.3011  -19.1127 C   0  0  0  0  0  0  0  0  0  0  0  0
   -4.3030    4.6014  -18.1790 C   0  0  0  0  0  0  0  0  0  0  0  0
   -3.9579    4.1293  -17.1660 O   0  0  0  0  0  0  0  0  0  0  0  0
   -5.7235    4.7531  -18.7859 N   0  0  0  0  0  0  0  0  0  0  0  0
   -6.9416    4.4602  -18.2627 C   0  0  0  0  0  0  0  0  0  0  0  0
   -8.1024    4.1944  -18.9482 C   0  0  0  0  0  0  0  0  0  0  0  0
   -9.1436    4.0079  -18.1039 N   0  0  0  0  0  0  0  0  0  0  0  0
   -8.6507    4.2326  -16.9113 C   0  0  0  0  0  0  0  0  0  0  0  0
   -9.4534    4.2691  -15.7013 C   0  0  0  0  0  0  0  0  0  0  0  0
   -7.2990    4.4534  -16.9326 N   0  0  0  0  0  0  0  0  0  0  0  0
   -6.4413    4.6809  -15.7759 C   0  0  0  0  0  0  0  0  0  0  0  0
   -7.0467    5.1829  -14.5331 C   0  0  0  0  0  0  0  0  0  0  0  0
   -7.5347    5.5600  -13.5471 N   0  0  0  0  0  0  0  0  0  0  0  0
  1  2  2  0
  2  3  1  0
  3  4  1  0
  4  5  1  0
  5  6  2  0
  5  7  1  0
  7  8  1  0
  8  9  2  0
  9 10  1  0
 10 11  2  0
 11 12  1  0
 11 13  1  0
 13 14  1  0
 14 15  1  0
 15 16  3  0
 13  8  1  0
M  END
>  <energy_score>  (2960) 
-1.036455

>  <alias>  (2960) 
None

>  <HIPPO Pose ID>  (2960) 
76082

>  <smiles>  (2960) 
C=CCCC(=O)Nc1cnc(C)n1CC#N

>  <inchikey>  (2960) 
UOCIWMOHPVIEFW-UHFFFAOYSA-N

>  <distance_score>  (2960) 
1.920313

>  <ref_mols>  (2960) 
Z0719a,Z1597a

>  <ref_pdb>  (2960) 
Z0719a

>  <HIPPO Compound ID>  (2960) 
151141

>  <name>  (2960) 
P76082

>  <inspiration_score>  (2960) 
None

$$$$
P76088
     RDKit          3D

 16 16  0  0  0  0  0  0  0  0999 V2000
   -5.8340    4.6416  -13.2817 C   0  0  0  0  0  0  0  0  0  0  0  0
   -6.7878    4.8401  -14.3211 O   0  0  0  0  0  0  0  0  0  0  0  0
   -6.3091    4.5730  -15.5751 C   0  0  0  0  0  0  0  0  0  0  0  0
   -5.1534    4.2284  -15.8054 O   0  0  0  0  0  0  0  0  0  0  0  0
   -7.3516    4.6913  -16.5930 C   0  0  0  0  0  0  0  0  0  0  0  0
   -8.6838    4.3766  -16.3214 N   0  0  0  0  0  0  0  0  0  0  0  0
   -9.3191    4.4659  -17.4609 C   0  0  0  0  0  0  0  0  0  0  0  0
   -8.4689    4.7983  -18.4719 N   0  0  0  0  0  0  0  0  0  0  0  0
   -7.2236    5.0038  -17.9376 C   0  0  0  0  0  0  0  0  0  0  0  0
   -6.2207    5.4526  -18.7454 N   0  0  0  0  0  0  0  0  0  0  0  0
   -4.8473    6.1103  -18.3880 C   0  0  0  0  0  0  0  0  0  0  0  0
   -4.4087    6.4336  -17.3526 O   0  0  0  0  0  0  0  0  0  0  0  0
   -4.0881    6.2282  -19.7145 C   0  0  2  0  0  0  0  0  0  0  0  0
   -2.2097    6.6901  -19.3982 Br  0  0  0  0  0  0  0  0  0  0  0  0
   -4.6953    7.1630  -20.7398 C   0  0  0  0  0  0  0  0  0  0  0  0
   -5.0074    8.9662  -20.0545 Br  0  0  0  0  0  0  0  0  0  0  0  0
  1  2  1  0
  2  3  1  0
  3  4  2  0
  3  5  1  0
  5  6  1  0
  6  7  2  0
  7  8  1  0
  8  9  1  0
  9 10  1  0
 10 11  1  0
 11 12  2  0
 11 13  1  0
 13 14  1  1
 13 15  1  0
 15 16  1  0
  9  5  2  0
M  END
>  <energy_score>  (2961) 
-11.399117

>  <alias>  (2961) 
None

>  <HIPPO Pose ID>  (2961) 
76088

>  <smiles>  (2961) 
COC(=O)c1nc[nH]c1NC(=O)[C@H](Br)CBr

>  <inchikey>  (2961) 
FFBRPADNKKLBQR-SCSAIBSYSA-N

>  <distance_score>  (2961) 
1.813458

>  <ref_mols>  (2961) 
Z0719a,Z1597a

>  <ref_pdb>  (2961) 
Z0719a

>  <HIPPO Compound ID>  (2961) 
151162

>  <name>  (2961) 
P76088

>  <inspiration_score>  (2961) 
None

$$$$
P76089
     RDKit          3D

 16 16  0  0  0  0  0  0  0  0999 V2000
   -8.1387    5.0001  -18.1222 C   0  0  0  0  0  0  0  0  0  0  0  0
   -7.8035    4.8184  -16.7374 N   0  0  0  0  0  0  0  0  0  0  0  0
   -8.7569    4.5432  -15.8062 C   0  0  0  0  0  0  0  0  0  0  0  0
   -8.2366    4.0012  -14.7395 N   0  0  0  0  0  0  0  0  0  0  0  0
   -6.8871    3.8925  -15.0087 C   0  0  0  0  0  0  0  0  0  0  0  0
   -6.0449    3.1485  -14.0933 N   0  0  0  0  0  0  0  0  0  0  0  0
   -6.5813    2.2744  -13.3953 O   0  0  0  0  0  0  0  0  0  0  0  0
   -4.8239    3.3787  -14.1280 O   0  0  0  0  0  0  0  0  0  0  0  0
   -6.5658    4.5416  -16.1958 C   0  0  0  0  0  0  0  0  0  0  0  0
   -5.4031    4.7989  -16.8751 N   0  0  0  0  0  0  0  0  0  0  0  0
   -5.1047    5.8129  -18.0299 C   0  0  0  0  0  0  0  0  0  0  0  0
   -5.7882    6.6307  -18.5169 O   0  0  0  0  0  0  0  0  0  0  0  0
   -3.7117    5.5195  -18.5768 C   0  0  2  0  0  0  0  0  0  0  0  0
   -2.3895    5.6897  -17.1636 Br  0  0  0  0  0  0  0  0  0  0  0  0
   -3.3752    6.3331  -19.8218 C   0  0  0  0  0  0  0  0  0  0  0  0
   -3.1021    8.2405  -19.5030 Br  0  0  0  0  0  0  0  0  0  0  0  0
  1  2  1  0
  2  3  1  0
  3  4  2  0
  4  5  1  0
  5  6  1  0
  6  7  2  0
  6  8  1  0
  5  9  2  0
  9 10  1  0
 10 11  1  0
 11 12  2  0
 11 13  1  0
 13 14  1  1
 13 15  1  0
 15 16  1  0
  9  2  1  0
M  CHG  2   6   1   8  -1
M  END
>  <energy_score>  (2962) 
-23.686145

>  <alias>  (2962) 
None

>  <HIPPO Pose ID>  (2962) 
76089

>  <smiles>  (2962) 
Cn1cnc([N+](=O)[O-])c1NC(=O)[C@H](Br)CBr

>  <inchikey>  (2962) 
SCZNIUCPNYKTKG-SCSAIBSYSA-N

>  <distance_score>  (2962) 
1.95747

>  <ref_mols>  (2962) 
Z0719a,Z1597a

>  <ref_pdb>  (2962) 
Z0719a

>  <HIPPO Compound ID>  (2962) 
151164

>  <name>  (2962) 
P76089

>  <inspiration_score>  (2962) 
None

$$$$
P76090
     RDKit          3D

 16 16  0  0  0  0  0  0  0  0999 V2000
   -8.2858    4.3032  -13.3163 C   0  0  0  0  0  0  0  0  0  0  0  0
   -7.8760    4.3888  -14.6964 N   0  0  0  0  0  0  0  0  0  0  0  0
   -8.6200    4.8577  -15.7252 C   0  0  0  0  0  0  0  0  0  0  0  0
   -7.8935    5.0024  -16.8004 N   0  0  0  0  0  0  0  0  0  0  0  0
   -6.6253    4.5797  -16.4561 C   0  0  0  0  0  0  0  0  0  0  0  0
   -5.7946    4.6830  -17.5225 N   0  0  0  0  0  0  0  0  0  0  0  0
   -4.2660    4.9850  -17.5898 C   0  0  0  0  0  0  0  0  0  0  0  0
   -3.4808    5.1131  -16.7331 O   0  0  0  0  0  0  0  0  0  0  0  0
   -3.9630    5.1347  -19.0925 C   0  0  2  0  0  0  0  0  0  0  0  0
   -2.0350    4.9863  -19.4266 Br  0  0  0  0  0  0  0  0  0  0  0  0
   -4.5218    6.3733  -19.7767 C   0  0  0  0  0  0  0  0  0  0  0  0
   -3.9813    8.0478  -18.9311 Br  0  0  0  0  0  0  0  0  0  0  0  0
   -6.6128    4.1064  -15.1623 C   0  0  0  0  0  0  0  0  0  0  0  0
   -5.6348    3.2322  -14.3059 C   0  0  0  0  0  0  0  0  0  0  0  0
   -6.2011    2.3549  -13.5734 O   0  0  0  0  0  0  0  0  0  0  0  0
   -4.3902    3.4279  -14.3757 O   0  0  0  0  0  0  0  0  0  0  0  0
  1  2  1  0
  2  3  1  0
  3  4  2  0
  4  5  1  0
  5  6  1  0
  6  7  1  0
  7  8  2  0
  7  9  1  0
  9 10  1  1
  9 11  1  0
 11 12  1  0
  5 13  2  0
 13 14  1  0
 14 15  2  0
 14 16  1  0
 13  2  1  0
M  CHG  1  16  -1
M  END
>  <energy_score>  (2963) 
-6.797067

>  <alias>  (2963) 
None

>  <HIPPO Pose ID>  (2963) 
76090

>  <smiles>  (2963) 
Cn1cnc(NC(=O)[C@H](Br)CBr)c1C(=O)[O-]

>  <inchikey>  (2963) 
ZNLCVMGJGKESAL-SCSAIBSYSA-M

>  <distance_score>  (2963) 
1.695695

>  <ref_mols>  (2963) 
Z0719a,Z1597a

>  <ref_pdb>  (2963) 
Z0719a

>  <HIPPO Compound ID>  (2963) 
151165

>  <name>  (2963) 
P76090

>  <inspiration_score>  (2963) 
None

$$$$
P76091
     RDKit          3D

 16 16  0  0  0  0  0  0  0  0999 V2000
   -5.8440    4.7563  -13.8357 C   0  0  0  0  0  0  0  0  0  0  0  0
   -5.8935    5.2824  -15.2597 C   0  0  0  0  0  0  0  0  0  0  0  0
   -7.0515    5.0297  -16.0728 N   0  0  0  0  0  0  0  0  0  0  0  0
   -8.3058    4.6745  -15.6220 C   0  0  0  0  0  0  0  0  0  0  0  0
   -8.7480    4.7185  -14.2114 C   0  0  0  0  0  0  0  0  0  0  0  0
   -9.0684    4.2924  -16.6180 N   0  0  0  0  0  0  0  0  0  0  0  0
   -8.3248    4.4819  -17.7422 C   0  0  0  0  0  0  0  0  0  0  0  0
   -8.9197    4.1470  -19.0313 C   0  0  0  0  0  0  0  0  0  0  0  0
   -7.0784    4.9947  -17.4524 C   0  0  0  0  0  0  0  0  0  0  0  0
   -6.1093    5.3314  -18.3682 N   0  0  0  0  0  0  0  0  0  0  0  0
   -4.7071    5.9960  -18.1652 C   0  0  0  0  0  0  0  0  0  0  0  0
   -4.2034    6.4247  -17.1980 O   0  0  0  0  0  0  0  0  0  0  0  0
   -4.0270    5.9988  -19.5414 C   0  0  2  0  0  0  0  0  0  0  0  0
   -2.0883    5.8615  -19.2480 Br  0  0  0  0  0  0  0  0  0  0  0  0
   -4.3970    7.2602  -20.2869 C   0  0  0  0  0  0  0  0  0  0  0  0
   -3.6070    7.3908  -22.0627 Br  0  0  0  0  0  0  0  0  0  0  0  0
  1  2  1  0
  2  3  1  0
  3  4  1  0
  4  5  1  0
  4  6  2  0
  6  7  1  0
  7  8  1  0
  7  9  2  0
  9 10  1  0
 10 11  1  0
 11 12  2  0
 11 13  1  0
 13 14  1  1
 13 15  1  0
 15 16  1  0
  9  3  1  0
M  END
>  <energy_score>  (2964) 
-17.035573

>  <alias>  (2964) 
None

>  <HIPPO Pose ID>  (2964) 
76091

>  <smiles>  (2964) 
CCn1c(C)nc(C)c1NC(=O)[C@H](Br)CBr

>  <inchikey>  (2964) 
DVDCYKWYRCVXFT-MRVPVSSYSA-N

>  <distance_score>  (2964) 
1.432716

>  <ref_mols>  (2964) 
Z0719a,Z1597a

>  <ref_pdb>  (2964) 
Z0719a

>  <HIPPO Compound ID>  (2964) 
151166

>  <name>  (2964) 
P76091

>  <inspiration_score>  (2964) 
None

$$$$
P76094
     RDKit          3D

 16 16  0  0  0  0  0  0  0  0999 V2000
   -7.2029    3.4449  -13.4635 C   0  0  0  0  0  0  0  0  0  0  0  0
   -6.4923    4.7772  -13.6229 C   0  0  0  0  0  0  0  0  0  0  0  0
   -6.1776    5.1793  -15.0704 C   0  0  0  0  0  0  0  0  0  0  0  0
   -7.2515    5.2095  -16.0255 N   0  0  0  0  0  0  0  0  0  0  0  0
   -8.5869    5.3699  -15.7350 C   0  0  0  0  0  0  0  0  0  0  0  0
   -9.1104    6.1032  -14.5580 C   0  0  0  0  0  0  0  0  0  0  0  0
   -9.3166    4.8313  -16.6834 N   0  0  0  0  0  0  0  0  0  0  0  0
   -8.4532    4.6072  -17.7144 C   0  0  0  0  0  0  0  0  0  0  0  0
   -8.9788    4.1181  -18.9848 C   0  0  0  0  0  0  0  0  0  0  0  0
   -7.1689    4.9715  -17.3752 C   0  0  0  0  0  0  0  0  0  0  0  0
   -6.1027    5.0775  -18.2239 N   0  0  0  0  0  0  0  0  0  0  0  0
   -4.6461    5.5763  -17.9642 C   0  0  0  0  0  0  0  0  0  0  0  0
   -4.1636    6.0431  -17.0040 O   0  0  0  0  0  0  0  0  0  0  0  0
   -3.9132    5.4388  -19.3139 C   0  0  1  0  0  0  0  0  0  0  0  0
   -4.2082    6.6435  -20.2035 C   0  0  0  0  0  0  0  0  0  0  0  0
   -2.1114    5.2852  -19.0677 S   0  0  0  0  0  0  0  0  0  0  0  0
  1  2  1  0
  2  3  1  0
  3  4  1  0
  4  5  1  0
  5  6  1  0
  5  7  2  0
  7  8  1  0
  8  9  1  0
  8 10  2  0
 10 11  1  0
 11 12  1  0
 12 13  2  0
 12 14  1  0
 14 15  1  6
 14 16  1  0
 10  4  1  0
M  END
>  <energy_score>  (2965) 
-18.654185

>  <alias>  (2965) 
None

>  <HIPPO Pose ID>  (2965) 
76094

>  <smiles>  (2965) 
CCCn1c(C)nc(C)c1NC(=O)[C@@H](C)S

>  <inchikey>  (2965) 
XBMAGHMLYFOURY-MRVPVSSYSA-N

>  <distance_score>  (2965) 
1.368882

>  <ref_mols>  (2965) 
Z0719a,Z1597a

>  <ref_pdb>  (2965) 
Z0719a

>  <HIPPO Compound ID>  (2965) 
151170

>  <name>  (2965) 
P76094

>  <inspiration_score>  (2965) 
None

$$$$
P76096
     RDKit          3D

 16 17  0  0  0  0  0  0  0  0999 V2000
   -8.9358    4.1509  -18.9423 C   0  0  0  0  0  0  0  0  0  0  0  0
   -8.3485    4.4844  -17.6447 C   0  0  0  0  0  0  0  0  0  0  0  0
   -9.1011    4.2969  -16.5185 N   0  0  0  0  0  0  0  0  0  0  0  0
   -8.3385    4.6890  -15.5242 C   0  0  0  0  0  0  0  0  0  0  0  0
   -8.7252    4.7157  -14.0978 C   0  0  0  0  0  0  0  0  0  0  0  0
   -7.1049    5.0792  -15.9840 N   0  0  0  0  0  0  0  0  0  0  0  0
   -6.0202    5.5001  -15.0888 C   0  0  0  0  0  0  0  0  0  0  0  0
   -4.7777    4.6764  -14.8933 C   0  0  0  0  0  0  0  0  0  0  0  0
   -5.7292    4.8272  -13.7557 C   0  0  0  0  0  0  0  0  0  0  0  0
   -7.0960    4.9927  -17.3529 C   0  0  0  0  0  0  0  0  0  0  0  0
   -6.1154    5.2743  -18.2690 N   0  0  0  0  0  0  0  0  0  0  0  0
   -4.7421    5.9957  -18.0941 C   0  0  0  0  0  0  0  0  0  0  0  0
   -4.2771    6.5252  -17.1589 O   0  0  0  0  0  0  0  0  0  0  0  0
   -4.0275    5.8655  -19.4553 C   0  0  1  0  0  0  0  0  0  0  0  0
   -4.4774    6.9545  -20.4178 C   0  0  0  0  0  0  0  0  0  0  0  0
   -2.2134    5.9309  -19.2528 S   0  0  0  0  0  0  0  0  0  0  0  0
  1  2  1  0
  2  3  1  0
  3  4  2  0
  4  5  1  0
  4  6  1  0
  6  7  1  0
  7  8  1  0
  8  9  1  0
  6 10  1  0
 10 11  1  0
 11 12  1  0
 12 13  2  0
 12 14  1  0
 14 15  1  6
 14 16  1  0
 10  2  2  0
  9  7  1  0
M  END
>  <energy_score>  (2966) 
-28.455229

>  <alias>  (2966) 
None

>  <HIPPO Pose ID>  (2966) 
76096

>  <smiles>  (2966) 
Cc1nc(C)n(C2CC2)c1NC(=O)[C@@H](C)S

>  <inchikey>  (2966) 
BKLWRNZICIWYBJ-SSDOTTSWSA-N

>  <distance_score>  (2966) 
1.672046

>  <ref_mols>  (2966) 
Z0719a,Z1597a

>  <ref_pdb>  (2966) 
Z0719a

>  <HIPPO Compound ID>  (2966) 
151173

>  <name>  (2966) 
P76096

>  <inspiration_score>  (2966) 
None

$$$$
P76099
     RDKit          3D

 16 17  0  0  0  0  0  0  0  0999 V2000
   -9.2319    4.0261  -18.2852 C   0  0  0  0  0  0  0  0  0  0  0  0
   -8.4137    4.9693  -17.5295 C   0  0  0  0  0  0  0  0  0  0  0  0
   -7.4110    5.7431  -17.9415 C   0  0  0  0  0  0  0  0  0  0  0  0
   -7.1776    4.8865  -16.8171 C   0  0  1  0  0  0  0  0  0  0  0  0
   -7.2872    5.4106  -15.4369 C   0  0  0  0  0  0  0  0  0  0  0  0
   -7.1355    6.5361  -15.1844 O   0  0  0  0  0  0  0  0  0  0  0  0
   -7.5610    4.2162  -14.5211 N   0  0  0  0  0  0  0  0  0  0  0  0
   -7.6104    4.1362  -13.1774 C   0  0  0  0  0  0  0  0  0  0  0  0
   -7.2936    2.9137  -12.6833 N   0  0  0  0  0  0  0  0  0  0  0  0
   -7.1213    3.1016  -11.3996 C   0  0  0  0  0  0  0  0  0  0  0  0
   -6.4121    2.1411  -10.5420 C   0  0  0  0  0  0  0  0  0  0  0  0
   -7.5963    4.3360  -11.0189 N   0  0  0  0  0  0  0  0  0  0  0  0
   -7.7439    4.8356   -9.6737 C   0  0  0  0  0  0  0  0  0  0  0  0
   -7.8288    5.0528  -12.1755 C   0  0  0  0  0  0  0  0  0  0  0  0
   -8.2248    6.4144  -12.2385 C   0  0  0  0  0  0  0  0  0  0  0  0
   -8.5706    7.5219  -12.2127 N   0  0  0  0  0  0  0  0  0  0  0  0
  1  2  1  0
  2  3  2  0
  3  4  1  0
  4  5  1  1
  5  6  2  0
  5  7  1  0
  7  8  1  0
  8  9  1  0
  9 10  2  0
 10 11  1  0
 10 12  1  0
 12 13  1  0
 12 14  1  0
 14 15  1  0
 15 16  3  0
  4  2  1  0
 14  8  2  0
M  END
>  <energy_score>  (2967) 
-13.234758

>  <alias>  (2967) 
None

>  <HIPPO Pose ID>  (2967) 
76099

>  <smiles>  (2967) 
CC1=C[C@H]1C(=O)Nc1nc(C)n(C)c1C#N

>  <inchikey>  (2967) 
WIVQLYDVYORTNY-MRVPVSSYSA-N

>  <distance_score>  (2967) 
1.962309

>  <ref_mols>  (2967) 
Z0719a,Z1597a

>  <ref_pdb>  (2967) 
Z0719a

>  <HIPPO Compound ID>  (2967) 
151176

>  <name>  (2967) 
P76099

>  <inspiration_score>  (2967) 
None

$$$$
P76100
     RDKit          3D

 16 17  0  0  0  0  0  0  0  0999 V2000
   -9.0091    4.2453  -17.8694 C   0  0  0  0  0  0  0  0  0  0  0  0
   -8.0604    4.3554  -16.7280 C   0  0  0  0  0  0  0  0  0  0  0  0
   -6.7306    4.4989  -16.7704 C   0  0  0  0  0  0  0  0  0  0  0  0
   -7.5064    5.6462  -16.3666 C   0  0  2  0  0  0  0  0  0  0  0  0
   -7.5112    6.0813  -14.9353 C   0  0  0  0  0  0  0  0  0  0  0  0
   -7.3746    7.2231  -14.7523 O   0  0  0  0  0  0  0  0  0  0  0  0
   -7.7478    4.9310  -13.9373 N   0  0  0  0  0  0  0  0  0  0  0  0
   -7.7704    4.9321  -12.5689 C   0  0  0  0  0  0  0  0  0  0  0  0
   -8.0175    5.9174  -11.6335 C   0  0  0  0  0  0  0  0  0  0  0  0
   -8.3773    7.2865  -11.8419 C   0  0  0  0  0  0  0  0  0  0  0  0
   -8.6971    8.3946  -11.9943 N   0  0  0  0  0  0  0  0  0  0  0  0
   -7.9845    5.4059  -10.3588 N   0  0  0  0  0  0  0  0  0  0  0  0
   -7.7354    4.1176  -10.4937 C   0  0  0  0  0  0  0  0  0  0  0  0
   -7.6823    3.1514   -9.3714 C   0  0  0  0  0  0  0  0  0  0  0  0
   -7.5200    3.8017  -11.8194 N   0  0  0  0  0  0  0  0  0  0  0  0
   -6.9673    2.5727  -12.3490 C   0  0  0  0  0  0  0  0  0  0  0  0
  1  2  1  0
  2  3  2  0
  3  4  1  0
  4  5  1  1
  5  6  2  0
  5  7  1  0
  7  8  1  0
  8  9  2  0
  9 10  1  0
 10 11  3  0
  9 12  1  0
 12 13  2  0
 13 14  1  0
 13 15  1  0
 15 16  1  0
  4  2  1  0
 15  8  1  0
M  END
>  <energy_score>  (2968) 
-16.247625

>  <alias>  (2968) 
None

>  <HIPPO Pose ID>  (2968) 
76100

>  <smiles>  (2968) 
CC1=C[C@@H]1C(=O)Nc1c(C#N)nc(C)n1C

>  <inchikey>  (2968) 
CCEPYZLXZFEYHA-QMMMGPOBSA-N

>  <distance_score>  (2968) 
1.433258

>  <ref_mols>  (2968) 
Z0719a,Z1597a

>  <ref_pdb>  (2968) 
Z0719a

>  <HIPPO Compound ID>  (2968) 
151177

>  <name>  (2968) 
P76100

>  <inspiration_score>  (2968) 
None

$$$$
P76110
     RDKit          3D

 16 16  0  0  0  0  0  0  0  0999 V2000
   -3.9307    6.0645  -19.0716 O   0  0  0  0  0  0  0  0  0  0  0  0
   -5.0535    6.2189  -19.3675 C   0  0  0  0  0  0  0  0  0  0  0  0
   -5.5007    7.0604  -20.5522 C   0  0  0  0  0  0  0  0  0  0  0  0
   -4.3274    7.4894  -21.4128 C   0  0  0  0  0  0  0  0  0  0  0  0
   -3.8709    8.7736  -20.9882 O   0  0  0  0  0  0  0  0  0  0  0  0
   -6.3594    5.7536  -18.6538 N   0  0  0  0  0  0  0  0  0  0  0  0
   -6.5365    5.1310  -17.4668 C   0  0  0  0  0  0  0  0  0  0  0  0
   -5.5434    4.6481  -16.6638 C   0  0  0  0  0  0  0  0  0  0  0  0
   -6.1719    4.1734  -15.5428 N   0  0  0  0  0  0  0  0  0  0  0  0
   -5.4485    3.6914  -14.3757 C   0  0  0  0  0  0  0  0  0  0  0  0
   -6.2419    2.9379  -13.3456 C   0  0  0  0  0  0  0  0  0  0  0  0
   -7.3051    3.6629  -12.9585 F   0  0  0  0  0  0  0  0  0  0  0  0
   -5.4727    2.7332  -12.2478 F   0  0  0  0  0  0  0  0  0  0  0  0
   -6.6647    1.7311  -13.7633 F   0  0  0  0  0  0  0  0  0  0  0  0
   -7.5155    4.3508  -15.7443 C   0  0  0  0  0  0  0  0  0  0  0  0
   -7.7543    4.9643  -16.8882 N   0  0  0  0  0  0  0  0  0  0  0  0
  1  2  2  0
  2  3  1  0
  3  4  1  0
  4  5  1  0
  2  6  1  0
  6  7  1  0
  7  8  2  0
  8  9  1  0
  9 10  1  0
 10 11  1  0
 11 12  1  0
 11 13  1  0
 11 14  1  0
  9 15  1  0
 15 16  2  0
 16  7  1  0
M  END
>  <energy_score>  (2969) 
-8.197107

>  <alias>  (2969) 
None

>  <HIPPO Pose ID>  (2969) 
76110

>  <smiles>  (2969) 
O=C(CCO)Nc1cn(CC(F)(F)F)cn1

>  <inchikey>  (2969) 
QTZJXYVDEXENPI-UHFFFAOYSA-N

>  <distance_score>  (2969) 
1.932872

>  <ref_mols>  (2969) 
Z0719a,Z1597a

>  <ref_pdb>  (2969) 
Z0719a

>  <HIPPO Compound ID>  (2969) 
151212

>  <name>  (2969) 
P76110

>  <inspiration_score>  (2969) 
None

$$$$
P76112
     RDKit          3D

 16 16  0  0  0  0  0  0  0  0999 V2000
   -2.8237    6.7631  -20.7536 C   0  0  0  0  0  0  0  0  0  0  0  0
   -4.1221    6.7557  -20.3898 C   0  0  0  0  0  0  0  0  0  0  0  0
   -5.2057    7.4907  -21.1270 C   0  0  0  0  0  0  0  0  0  0  0  0
   -4.7671    8.4829  -22.2014 C   0  0  0  0  0  0  0  0  0  0  0  0
   -4.4243    6.0532  -19.0718 C   0  0  0  0  0  0  0  0  0  0  0  0
   -3.5595    5.9446  -18.2906 O   0  0  0  0  0  0  0  0  0  0  0  0
   -5.9199    5.6537  -18.9774 N   0  0  0  0  0  0  0  0  0  0  0  0
   -6.6335    5.1588  -17.9393 C   0  0  0  0  0  0  0  0  0  0  0  0
   -6.1124    4.7465  -16.7471 C   0  0  0  0  0  0  0  0  0  0  0  0
   -7.1774    4.3589  -15.9946 N   0  0  0  0  0  0  0  0  0  0  0  0
   -7.1563    3.8559  -14.6352 C   0  0  0  0  0  0  0  0  0  0  0  0
   -5.7696    3.6318  -13.9674 C   0  0  0  0  0  0  0  0  0  0  0  0
   -5.2416    4.9327  -13.3572 C   0  0  0  0  0  0  0  0  0  0  0  0
   -5.8764    2.5598  -12.8917 C   0  0  0  0  0  0  0  0  0  0  0  0
   -8.2965    4.5490  -16.7577 C   0  0  0  0  0  0  0  0  0  0  0  0
   -7.9876    5.0483  -17.9378 N   0  0  0  0  0  0  0  0  0  0  0  0
  1  2  2  0
  2  3  1  0
  3  4  1  0
  2  5  1  0
  5  6  2  0
  5  7  1  0
  7  8  1  0
  8  9  2  0
  9 10  1  0
 10 11  1  0
 11 12  1  0
 12 13  1  0
 12 14  1  0
 10 15  1  0
 15 16  2  0
 16  8  1  0
M  END
>  <energy_score>  (2970) 
-16.698751

>  <alias>  (2970) 
None

>  <HIPPO Pose ID>  (2970) 
76112

>  <smiles>  (2970) 
C=C(CC)C(=O)Nc1cn(CC(C)C)cn1

>  <inchikey>  (2970) 
AVNYSKWDVGKOEJ-UHFFFAOYSA-N

>  <distance_score>  (2970) 
1.68611

>  <ref_mols>  (2970) 
Z0719a,Z1597a

>  <ref_pdb>  (2970) 
Z0719a

>  <HIPPO Compound ID>  (2970) 
151223

>  <name>  (2970) 
P76112

>  <inspiration_score>  (2970) 
None

$$$$
P76115
     RDKit          3D

 16 17  0  0  0  0  0  0  0  0999 V2000
   -5.6036    7.9432  -21.9314 C   0  0  0  0  0  0  0  0  0  0  0  0
   -4.1433    8.2579  -21.6911 C   0  0  1  0  0  0  0  0  0  0  0  0
   -4.0721    9.4275  -20.9987 F   0  0  0  0  0  0  0  0  0  0  0  0
   -3.3270    7.2015  -20.9835 C   0  0  0  0  0  0  0  0  0  0  0  0
   -3.7702    6.9306  -19.5630 C   0  0  0  0  0  0  0  0  0  0  0  0
   -3.2662    7.4579  -18.6496 O   0  0  0  0  0  0  0  0  0  0  0  0
   -4.9342    5.9008  -19.6158 N   0  0  0  0  0  0  0  0  0  0  0  0
   -5.7231    5.4163  -18.6297 C   0  0  0  0  0  0  0  0  0  0  0  0
   -6.8915    4.7248  -18.8161 C   0  0  0  0  0  0  0  0  0  0  0  0
   -7.4305    4.6353  -17.5683 N   0  0  0  0  0  0  0  0  0  0  0  0
   -8.6845    4.2221  -17.1753 C   0  0  0  0  0  0  0  0  0  0  0  0
   -8.9723    4.2488  -15.8732 C   0  0  0  0  0  0  0  0  0  0  0  0
   -7.8732    4.6587  -14.9667 C   0  0  0  0  0  0  0  0  0  0  0  0
   -6.7025    5.0826  -15.3195 N   0  0  0  0  0  0  0  0  0  0  0  0
   -6.4815    5.1197  -16.6659 C   0  0  0  0  0  0  0  0  0  0  0  0
   -5.4571    5.6288  -17.3157 N   0  0  0  0  0  0  0  0  0  0  0  0
  2  1  1  1
  2  3  1  0
  2  4  1  0
  4  5  1  0
  5  6  2  0
  5  7  1  0
  7  8  1  0
  8  9  2  0
  9 10  1  0
 10 11  1  0
 11 12  2  0
 12 13  1  0
 13 14  2  0
 14 15  1  0
 15 16  2  0
 16  8  1  0
 15 10  1  0
M  END
>  <energy_score>  (2971) 
-25.080407

>  <alias>  (2971) 
None

>  <HIPPO Pose ID>  (2971) 
76115

>  <smiles>  (2971) 
C[C@@H](F)CC(=O)Nc1cn2cccnc2n1

>  <inchikey>  (2971) 
ABQHOYNLEGJJEM-SSDOTTSWSA-N

>  <distance_score>  (2971) 
1.772777

>  <ref_mols>  (2971) 
Z0719a,Z1597a

>  <ref_pdb>  (2971) 
Z0719a

>  <HIPPO Compound ID>  (2971) 
151226

>  <name>  (2971) 
P76115

>  <inspiration_score>  (2971) 
None

$$$$
P76116
     RDKit          3D

 16 17  0  0  0  0  0  0  0  0999 V2000
   -6.7665    1.9533  -13.3213 N   0  0  0  0  0  0  0  0  0  0  0  0
   -5.9277    2.7528  -13.2718 C   0  0  0  0  0  0  0  0  0  0  0  0
   -4.7509    3.5396  -13.1975 C   0  0  0  0  0  0  0  0  0  0  0  0
   -4.5085    4.9000  -13.0926 C   0  0  0  0  0  0  0  0  0  0  0  0
   -5.3412    5.9642  -12.9681 N   0  0  0  0  0  0  0  0  0  0  0  0
   -6.8890    6.0279  -12.8868 C   0  0  0  0  0  0  0  0  0  0  0  0
   -7.6867    5.1835  -12.9916 O   0  0  0  0  0  0  0  0  0  0  0  0
   -7.2260    7.4846  -12.6197 C   0  0  0  0  0  0  0  0  0  0  0  0
   -8.6355    7.6194  -12.0784 C   0  0  0  0  0  0  0  0  0  0  0  0
   -8.8866    8.9937  -11.8002 O   0  0  0  0  0  0  0  0  0  0  0  0
   -3.1541    5.1807  -13.0520 N   0  0  0  0  0  0  0  0  0  0  0  0
   -2.5977    4.0053  -13.0702 C   0  0  0  0  0  0  0  0  0  0  0  0
   -3.5020    3.0050  -13.1579 N   0  0  0  0  0  0  0  0  0  0  0  0
   -3.0030    1.6506  -13.1429 C   0  0  0  0  0  0  0  0  0  0  0  0
   -1.5542    1.7214  -12.6484 C   0  0  0  0  0  0  0  0  0  0  0  0
   -0.9828    3.4485  -12.9235 S   0  0  0  0  0  0  0  0  0  0  0  0
  1  2  3  0
  2  3  1  0
  3  4  2  0
  4  5  1  0
  5  6  1  0
  6  7  2  0
  6  8  1  0
  8  9  1  0
  9 10  1  0
  4 11  1  0
 11 12  2  0
 12 13  1  0
 13 14  1  0
 14 15  1  0
 15 16  1  0
 13  3  1  0
 16 12  1  0
M  END
>  <energy_score>  (2972) 
-35.197686

>  <alias>  (2972) 
None

>  <HIPPO Pose ID>  (2972) 
76116

>  <smiles>  (2972) 
N#Cc1c(NC(=O)CCO)nc2n1CCS2

>  <inchikey>  (2972) 
UXVNSRSJYLPCHH-UHFFFAOYSA-N

>  <distance_score>  (2972) 
1.097986

>  <ref_mols>  (2972) 
Z0719a,Z1597a

>  <ref_pdb>  (2972) 
Z0719a

>  <HIPPO Compound ID>  (2972) 
151227

>  <name>  (2972) 
P76116

>  <inspiration_score>  (2972) 
None

$$$$
P76117
     RDKit          3D

 16 17  0  0  0  0  0  0  0  0999 V2000
   -4.0923    7.4103  -21.0566 C   0  0  0  0  0  0  0  0  0  0  0  0
   -3.1387    6.5434  -20.2576 C   0  0  0  0  0  0  0  0  0  0  0  0
   -2.3629    5.8455  -21.1504 F   0  0  0  0  0  0  0  0  0  0  0  0
   -2.2845    7.3669  -19.5815 F   0  0  0  0  0  0  0  0  0  0  0  0
   -3.8881    5.6004  -19.3027 C   0  0  0  0  0  0  0  0  0  0  0  0
   -3.9595    4.4477  -19.4884 O   0  0  0  0  0  0  0  0  0  0  0  0
   -4.5496    6.4882  -18.2093 N   0  0  0  0  0  0  0  0  0  0  0  0
   -5.4440    6.1746  -17.2499 C   0  0  0  0  0  0  0  0  0  0  0  0
   -6.1471    5.0064  -17.1271 C   0  0  0  0  0  0  0  0  0  0  0  0
   -7.0798    5.2800  -16.1680 N   0  0  0  0  0  0  0  0  0  0  0  0
   -8.2484    4.4874  -15.8445 C   0  0  0  0  0  0  0  0  0  0  0  0
   -8.9478    3.9514  -17.0619 C   0  0  0  0  0  0  0  0  0  0  0  0
   -8.9489    4.6054  -18.4275 C   0  0  0  0  0  0  0  0  0  0  0  0
  -10.1968    4.5767  -17.6120 C   0  0  0  0  0  0  0  0  0  0  0  0
   -6.7981    6.5122  -15.6554 C   0  0  0  0  0  0  0  0  0  0  0  0
   -5.8357    7.0988  -16.3316 N   0  0  0  0  0  0  0  0  0  0  0  0
  1  2  1  0
  2  3  1  0
  2  4  1  0
  2  5  1  0
  5  6  2  0
  5  7  1  0
  7  8  1  0
  8  9  2  0
  9 10  1  0
 10 11  1  0
 11 12  1  0
 12 13  1  0
 13 14  1  0
 10 15  1  0
 15 16  2  0
 16  8  1  0
 14 12  1  0
M  END
>  <energy_score>  (2973) 
-34.626113

>  <alias>  (2973) 
None

>  <HIPPO Pose ID>  (2973) 
76117

>  <smiles>  (2973) 
CC(F)(F)C(=O)Nc1cn(CC2CC2)cn1

>  <inchikey>  (2973) 
BVQJRSYAPBPPMC-UHFFFAOYSA-N

>  <distance_score>  (2973) 
1.830798

>  <ref_mols>  (2973) 
Z0719a,Z1597a

>  <ref_pdb>  (2973) 
Z0719a

>  <HIPPO Compound ID>  (2973) 
151234

>  <name>  (2973) 
P76117

>  <inspiration_score>  (2973) 
None

$$$$
P76118
     RDKit          3D

 16 16  0  0  0  0  0  0  0  0999 V2000
   -5.7725    4.8191  -14.0091 C   0  0  0  0  0  0  0  0  0  0  0  0
   -6.0396    5.5967  -15.2882 C   0  0  0  0  0  0  0  0  0  0  0  0
   -7.1910    5.2370  -16.0681 N   0  0  0  0  0  0  0  0  0  0  0  0
   -8.3320    4.6310  -15.5901 C   0  0  0  0  0  0  0  0  0  0  0  0
   -8.7202    4.5928  -14.1633 C   0  0  0  0  0  0  0  0  0  0  0  0
   -9.0227    4.1122  -16.5777 N   0  0  0  0  0  0  0  0  0  0  0  0
   -8.4117    4.5586  -17.7139 C   0  0  0  0  0  0  0  0  0  0  0  0
   -8.9605    4.1767  -19.0105 C   0  0  0  0  0  0  0  0  0  0  0  0
   -7.3492    5.3893  -17.4258 C   0  0  0  0  0  0  0  0  0  0  0  0
   -6.6734    6.1922  -18.3110 N   0  0  0  0  0  0  0  0  0  0  0  0
   -5.4564    7.1567  -18.0863 C   0  0  0  0  0  0  0  0  0  0  0  0
   -4.8040    7.3476  -17.1285 O   0  0  0  0  0  0  0  0  0  0  0  0
   -5.2169    7.9358  -19.4050 C   0  0  0  0  0  0  0  0  0  0  0  0
   -4.7542    7.0532  -20.5451 C   0  0  0  0  0  0  0  0  0  0  0  0
   -4.2761    8.9165  -19.2399 F   0  0  0  0  0  0  0  0  0  0  0  0
   -6.3492    8.5982  -19.7915 F   0  0  0  0  0  0  0  0  0  0  0  0
  1  2  1  0
  2  3  1  0
  3  4  1  0
  4  5  1  0
  4  6  2  0
  6  7  1  0
  7  8  1  0
  7  9  2  0
  9 10  1  0
 10 11  1  0
 11 12  2  0
 11 13  1  0
 13 14  1  0
 13 15  1  0
 13 16  1  0
  9  3  1  0
M  END
>  <energy_score>  (2974) 
-18.970834

>  <alias>  (2974) 
None

>  <HIPPO Pose ID>  (2974) 
76118

>  <smiles>  (2974) 
CCn1c(C)nc(C)c1NC(=O)C(C)(F)F

>  <inchikey>  (2974) 
OLAXHCCRBMJIGV-UHFFFAOYSA-N

>  <distance_score>  (2974) 
1.708711

>  <ref_mols>  (2974) 
Z0719a,Z1597a

>  <ref_pdb>  (2974) 
Z0719a

>  <HIPPO Compound ID>  (2974) 
151237

>  <name>  (2974) 
P76118

>  <inspiration_score>  (2974) 
None

$$$$
P76119
     RDKit          3D

 16 17  0  0  0  0  0  0  0  0999 V2000
   -3.9870    7.7186  -21.6389 C   0  0  0  0  0  0  0  0  0  0  0  0
   -2.9853    6.9822  -20.7748 C   0  0  0  0  0  0  0  0  0  0  0  0
   -1.8191    7.6926  -20.7843 F   0  0  0  0  0  0  0  0  0  0  0  0
   -2.6783    5.7979  -21.3871 F   0  0  0  0  0  0  0  0  0  0  0  0
   -3.5201    6.7411  -19.3580 C   0  0  0  0  0  0  0  0  0  0  0  0
   -3.0322    7.2229  -18.4072 O   0  0  0  0  0  0  0  0  0  0  0  0
   -4.7717    5.8126  -19.4945 N   0  0  0  0  0  0  0  0  0  0  0  0
   -5.6619    5.4006  -18.5672 C   0  0  0  0  0  0  0  0  0  0  0  0
   -6.8199    4.7148  -18.8200 C   0  0  0  0  0  0  0  0  0  0  0  0
   -7.4396    4.6434  -17.6087 N   0  0  0  0  0  0  0  0  0  0  0  0
   -8.6991    4.1906  -17.2859 C   0  0  0  0  0  0  0  0  0  0  0  0
   -9.0644    4.2193  -16.0039 C   0  0  0  0  0  0  0  0  0  0  0  0
   -8.0443    4.6963  -15.0398 C   0  0  0  0  0  0  0  0  0  0  0  0
   -6.8731    5.1651  -15.3286 N   0  0  0  0  0  0  0  0  0  0  0  0
   -6.5652    5.1744  -16.6580 C   0  0  0  0  0  0  0  0  0  0  0  0
   -5.5060    5.6823  -17.2498 N   0  0  0  0  0  0  0  0  0  0  0  0
  1  2  1  0
  2  3  1  0
  2  4  1  0
  2  5  1  0
  5  6  2  0
  5  7  1  0
  7  8  1  0
  8  9  2  0
  9 10  1  0
 10 11  1  0
 11 12  2  0
 12 13  1  0
 13 14  2  0
 14 15  1  0
 15 16  2  0
 16  8  1  0
 15 10  1  0
M  END
>  <energy_score>  (2975) 
-2.744449

>  <alias>  (2975) 
None

>  <HIPPO Pose ID>  (2975) 
76119

>  <smiles>  (2975) 
CC(F)(F)C(=O)Nc1cn2cccnc2n1

>  <inchikey>  (2975) 
LPBKOGXZOXRZSK-UHFFFAOYSA-N

>  <distance_score>  (2975) 
1.746999

>  <ref_mols>  (2975) 
Z0719a,Z1597a

>  <ref_pdb>  (2975) 
Z0719a

>  <HIPPO Compound ID>  (2975) 
151241

>  <name>  (2975) 
P76119

>  <inspiration_score>  (2975) 
None

$$$$
P76120
     RDKit          3D

 16 16  0  0  0  0  0  0  0  0999 V2000
   -8.9535    4.1954  -18.8390 C   0  0  0  0  0  0  0  0  0  0  0  0
   -8.4260    4.5398  -17.5131 C   0  0  0  0  0  0  0  0  0  0  0  0
   -9.2326    4.3754  -16.4324 N   0  0  0  0  0  0  0  0  0  0  0  0
   -8.5104    4.7282  -15.3980 C   0  0  0  0  0  0  0  0  0  0  0  0
   -8.9824    4.6858  -13.9996 C   0  0  0  0  0  0  0  0  0  0  0  0
   -7.2571    5.1650  -15.7813 N   0  0  0  0  0  0  0  0  0  0  0  0
   -6.2736    5.7039  -14.8590 C   0  0  0  0  0  0  0  0  0  0  0  0
   -6.8073    6.5734  -13.7130 C   0  0  0  0  0  0  0  0  0  0  0  0
   -5.3942    4.6047  -14.2886 C   0  0  0  0  0  0  0  0  0  0  0  0
   -7.1633    4.9758  -17.1484 C   0  0  0  0  0  0  0  0  0  0  0  0
   -6.1288    5.0859  -18.0500 N   0  0  0  0  0  0  0  0  0  0  0  0
   -4.6607    5.5841  -17.8537 C   0  0  0  0  0  0  0  0  0  0  0  0
   -4.0908    5.9018  -16.8807 O   0  0  0  0  0  0  0  0  0  0  0  0
   -4.0197    5.5269  -19.2605 C   0  0  1  0  0  0  0  0  0  0  0  0
   -4.3949    6.7420  -20.1003 C   0  0  0  0  0  0  0  0  0  0  0  0
   -2.2011    5.3972  -19.1508 S   0  0  0  0  0  0  0  0  0  0  0  0
  1  2  1  0
  2  3  1  0
  3  4  2  0
  4  5  1  0
  4  6  1  0
  6  7  1  0
  7  8  1  0
  7  9  1  0
  6 10  1  0
 10 11  1  0
 11 12  1  0
 12 13  2  0
 12 14  1  0
 14 15  1  6
 14 16  1  0
 10  2  2  0
M  END
>  <energy_score>  (2976) 
-29.623588

>  <alias>  (2976) 
None

>  <HIPPO Pose ID>  (2976) 
76120

>  <smiles>  (2976) 
Cc1nc(C)n(C(C)C)c1NC(=O)[C@@H](C)S

>  <inchikey>  (2976) 
LMQMZXOIBJHCEM-MRVPVSSYSA-N

>  <distance_score>  (2976) 
1.501168

>  <ref_mols>  (2976) 
Z0719a,Z1597a

>  <ref_pdb>  (2976) 
Z0719a

>  <HIPPO Compound ID>  (2976) 
151242

>  <name>  (2976) 
P76120

>  <inspiration_score>  (2976) 
None

$$$$
P76123
     RDKit          3D

 16 17  0  0  0  0  0  0  0  0999 V2000
   -2.3997    7.9727  -21.7612 C   0  0  0  0  0  0  0  0  0  0  0  0
   -3.7547    7.5456  -22.3154 C   0  0  0  0  0  0  0  0  0  0  0  0
   -4.9301    7.4485  -21.3518 C   0  0  2  0  0  0  0  0  0  0  0  0
   -5.3692    9.2508  -20.6777 Br  0  0  0  0  0  0  0  0  0  0  0  0
   -4.7059    6.5972  -20.1004 C   0  0  0  0  0  0  0  0  0  0  0  0
   -3.6624    6.5037  -19.5778 O   0  0  0  0  0  0  0  0  0  0  0  0
   -6.0987    6.0384  -19.6809 N   0  0  0  0  0  0  0  0  0  0  0  0
   -6.4786    5.3808  -18.5662 C   0  0  0  0  0  0  0  0  0  0  0  0
   -7.7523    4.9430  -18.3062 C   0  0  0  0  0  0  0  0  0  0  0  0
   -7.7368    4.6683  -16.9719 N   0  0  0  0  0  0  0  0  0  0  0  0
   -8.7898    4.4492  -16.1058 C   0  0  0  0  0  0  0  0  0  0  0  0
   -8.5262    4.3598  -14.7977 C   0  0  0  0  0  0  0  0  0  0  0  0
   -7.0905    4.3884  -14.4282 C   0  0  0  0  0  0  0  0  0  0  0  0
   -6.0911    4.5978  -15.2211 N   0  0  0  0  0  0  0  0  0  0  0  0
   -6.4199    4.8016  -16.5287 C   0  0  0  0  0  0  0  0  0  0  0  0
   -5.6489    5.2247  -17.5050 N   0  0  0  0  0  0  0  0  0  0  0  0
  1  2  1  0
  2  3  1  0
  3  4  1  1
  3  5  1  0
  5  6  2  0
  5  7  1  0
  7  8  1  0
  8  9  2  0
  9 10  1  0
 10 11  1  0
 11 12  2  0
 12 13  1  0
 13 14  2  0
 14 15  1  0
 15 16  2  0
 16  8  1  0
 15 10  1  0
M  END
>  <energy_score>  (2977) 
-19.922374

>  <alias>  (2977) 
None

>  <HIPPO Pose ID>  (2977) 
76123

>  <smiles>  (2977) 
CC[C@H](Br)C(=O)Nc1cn2cccnc2n1

>  <inchikey>  (2977) 
UJKKLCGOYWMOHM-ZETCQYMHSA-N

>  <distance_score>  (2977) 
1.635479

>  <ref_mols>  (2977) 
Z0719a,Z1597a

>  <ref_pdb>  (2977) 
Z0719a

>  <HIPPO Compound ID>  (2977) 
151248

>  <name>  (2977) 
P76123

>  <inspiration_score>  (2977) 
None

$$$$
P76126
     RDKit          3D

 16 16  0  0  0  0  0  0  0  0999 V2000
   -6.1337    4.5696  -13.1597 C   0  0  0  0  0  0  0  0  0  0  0  0
   -6.9642    4.8122  -14.2912 O   0  0  0  0  0  0  0  0  0  0  0  0
   -6.3746    4.5164  -15.4916 C   0  0  0  0  0  0  0  0  0  0  0  0
   -5.2134    4.1319  -15.6003 O   0  0  0  0  0  0  0  0  0  0  0  0
   -7.3109    4.6629  -16.6064 C   0  0  0  0  0  0  0  0  0  0  0  0
   -8.6815    4.4571  -16.4390 N   0  0  0  0  0  0  0  0  0  0  0  0
   -9.2089    4.5360  -17.6329 C   0  0  0  0  0  0  0  0  0  0  0  0
   -8.2561    4.7782  -18.5773 N   0  0  0  0  0  0  0  0  0  0  0  0
   -7.0443    4.8979  -17.9483 C   0  0  0  0  0  0  0  0  0  0  0  0
   -5.9268    5.1958  -18.6741 N   0  0  0  0  0  0  0  0  0  0  0  0
   -4.5681    5.8056  -18.2296 C   0  0  0  0  0  0  0  0  0  0  0  0
   -4.2264    6.2167  -17.1904 O   0  0  0  0  0  0  0  0  0  0  0  0
   -3.6312    5.7484  -19.4223 C   0  0  0  0  0  0  0  0  0  0  0  0
   -3.9002    6.8956  -20.3807 C   0  0  0  0  0  0  0  0  0  0  0  0
   -2.6284    6.9592  -21.6919 S   0  0  0  0  0  0  0  0  0  0  0  0
   -1.2815    7.7414  -20.7631 C   0  0  0  0  0  0  0  0  0  0  0  0
  1  2  1  0
  2  3  1  0
  3  4  2  0
  3  5  1  0
  5  6  1  0
  6  7  2  0
  7  8  1  0
  8  9  1  0
  9 10  1  0
 10 11  1  0
 11 12  2  0
 11 13  1  0
 13 14  1  0
 14 15  1  0
 15 16  1  0
  9  5  2  0
M  END
>  <energy_score>  (2978) 
-20.306463

>  <alias>  (2978) 
None

>  <HIPPO Pose ID>  (2978) 
76126

>  <smiles>  (2978) 
COC(=O)c1nc[nH]c1NC(=O)CCSC

>  <inchikey>  (2978) 
ILPWKPXDCOXWFW-UHFFFAOYSA-N

>  <distance_score>  (2978) 
1.817541

>  <ref_mols>  (2978) 
Z0719a,Z1597a

>  <ref_pdb>  (2978) 
Z0719a

>  <HIPPO Compound ID>  (2978) 
151251

>  <name>  (2978) 
P76126

>  <inspiration_score>  (2978) 
None

$$$$
P76129
     RDKit          3D

 16 16  0  0  0  0  0  0  0  0999 V2000
   -2.2989    7.0805  -19.2435 C   0  0  0  0  0  0  0  0  0  0  0  0
   -3.3479    6.1759  -19.8809 C   0  0  0  0  0  0  0  0  0  0  0  0
   -4.6994    6.0899  -19.1804 C   0  0  2  0  0  0  0  0  0  0  0  0
   -5.5839    7.8520  -19.2045 Br  0  0  0  0  0  0  0  0  0  0  0  0
   -4.7318    5.6020  -17.7170 C   0  0  0  0  0  0  0  0  0  0  0  0
   -3.8473    5.6902  -16.9580 O   0  0  0  0  0  0  0  0  0  0  0  0
   -6.1868    5.0858  -17.5150 N   0  0  0  0  0  0  0  0  0  0  0  0
   -6.8309    4.6903  -16.3929 C   0  0  0  0  0  0  0  0  0  0  0  0
   -8.1920    4.7810  -16.5895 N   0  0  0  0  0  0  0  0  0  0  0  0
   -8.7304    4.4113  -15.4624 C   0  0  0  0  0  0  0  0  0  0  0  0
   -7.7874    4.1545  -14.5252 N   0  0  0  0  0  0  0  0  0  0  0  0
   -8.0401    3.8206  -13.1441 C   0  0  0  0  0  0  0  0  0  0  0  0
   -6.5520    4.2365  -15.1228 C   0  0  0  0  0  0  0  0  0  0  0  0
   -5.2662    3.7356  -14.3938 C   0  0  0  0  0  0  0  0  0  0  0  0
   -4.3797    3.1593  -15.0775 O   0  0  0  0  0  0  0  0  0  0  0  0
   -5.2365    3.8634  -13.1299 O   0  0  0  0  0  0  0  0  0  0  0  0
  1  2  1  0
  2  3  1  0
  3  4  1  1
  3  5  1  0
  5  6  2  0
  5  7  1  0
  7  8  1  0
  8  9  1  0
  9 10  2  0
 10 11  1  0
 11 12  1  0
 11 13  1  0
 13 14  1  0
 14 15  2  0
 14 16  1  0
 13  8  2  0
M  CHG  1  16  -1
M  END
>  <energy_score>  (2979) 
-21.919025

>  <alias>  (2979) 
None

>  <HIPPO Pose ID>  (2979) 
76129

>  <smiles>  (2979) 
CC[C@H](Br)C(=O)Nc1ncn(C)c1C(=O)[O-]

>  <inchikey>  (2979) 
UCECFLSETAWUBF-YFKPBYRVSA-M

>  <distance_score>  (2979) 
1.920183

>  <ref_mols>  (2979) 
Z0719a,Z1597a

>  <ref_pdb>  (2979) 
Z0719a

>  <HIPPO Compound ID>  (2979) 
151256

>  <name>  (2979) 
P76129

>  <inspiration_score>  (2979) 
None

$$$$
P76130
     RDKit          3D

 16 16  0  0  0  0  0  0  0  0999 V2000
   -4.5919    8.4490  -19.9870 C   0  0  0  0  0  0  0  0  0  0  0  0
   -4.6370    7.0258  -20.5331 C   0  0  0  0  0  0  0  0  0  0  0  0
   -4.1027    5.9630  -19.5788 C   0  0  1  0  0  0  0  0  0  0  0  0
   -2.1523    6.0800  -19.4447 Br  0  0  0  0  0  0  0  0  0  0  0  0
   -4.7310    5.9751  -18.1793 C   0  0  0  0  0  0  0  0  0  0  0  0
   -4.1800    6.3414  -17.2122 O   0  0  0  0  0  0  0  0  0  0  0  0
   -6.1620    5.3638  -18.3616 N   0  0  0  0  0  0  0  0  0  0  0  0
   -7.1082    5.0139  -17.4279 C   0  0  0  0  0  0  0  0  0  0  0  0
   -8.3542    4.4935  -17.7069 C   0  0  0  0  0  0  0  0  0  0  0  0
   -8.9597    4.1632  -18.9933 C   0  0  0  0  0  0  0  0  0  0  0  0
   -9.0803    4.2858  -16.5751 N   0  0  0  0  0  0  0  0  0  0  0  0
   -8.3106    4.6732  -15.5867 C   0  0  0  0  0  0  0  0  0  0  0  0
   -8.7456    4.7172  -14.1740 C   0  0  0  0  0  0  0  0  0  0  0  0
   -7.0632    5.0378  -16.0494 N   0  0  0  0  0  0  0  0  0  0  0  0
   -5.8972    5.3028  -15.2531 C   0  0  0  0  0  0  0  0  0  0  0  0
   -5.8448    4.8368  -13.8087 C   0  0  0  0  0  0  0  0  0  0  0  0
  1  2  1  0
  2  3  1  0
  3  4  1  1
  3  5  1  0
  5  6  2  0
  5  7  1  0
  7  8  1  0
  8  9  2  0
  9 10  1  0
  9 11  1  0
 11 12  2  0
 12 13  1  0
 12 14  1  0
 14 15  1  0
 15 16  1  0
 14  8  1  0
M  END
>  <energy_score>  (2980) 
-13.259539

>  <alias>  (2980) 
None

>  <HIPPO Pose ID>  (2980) 
76130

>  <smiles>  (2980) 
CC[C@@H](Br)C(=O)Nc1c(C)nc(C)n1CC

>  <inchikey>  (2980) 
FKUNPPAGSSWYLC-SECBINFHSA-N

>  <distance_score>  (2980) 
1.426444

>  <ref_mols>  (2980) 
Z0719a,Z1597a

>  <ref_pdb>  (2980) 
Z0719a

>  <HIPPO Compound ID>  (2980) 
151257

>  <name>  (2980) 
P76130

>  <inspiration_score>  (2980) 
None

$$$$
P76131
     RDKit          3D

 16 17  0  0  0  0  0  0  0  0999 V2000
   -4.9912    7.5454  -21.8990 C   0  0  0  0  0  0  0  0  0  0  0  0
   -3.8268    8.0575  -21.0792 C   0  0  1  0  0  0  0  0  0  0  0  0
   -4.3103    8.9058  -20.1226 F   0  0  0  0  0  0  0  0  0  0  0  0
   -2.9557    7.0199  -20.3947 C   0  0  0  0  0  0  0  0  0  0  0  0
   -3.7218    6.0051  -19.5643 C   0  0  0  0  0  0  0  0  0  0  0  0
   -3.5937    4.8527  -19.7167 O   0  0  0  0  0  0  0  0  0  0  0  0
   -4.6317    6.7955  -18.5868 N   0  0  0  0  0  0  0  0  0  0  0  0
   -5.4445    6.3608  -17.5993 C   0  0  0  0  0  0  0  0  0  0  0  0
   -5.9672    5.1118  -17.3891 C   0  0  0  0  0  0  0  0  0  0  0  0
   -6.8073    5.2802  -16.3249 N   0  0  0  0  0  0  0  0  0  0  0  0
   -7.7240    4.3134  -15.7642 C   0  0  0  0  0  0  0  0  0  0  0  0
   -8.9839    4.1290  -16.5563 C   0  0  0  0  0  0  0  0  0  0  0  0
   -9.4116    4.9742  -17.7343 C   0  0  0  0  0  0  0  0  0  0  0  0
   -9.0000    3.5737  -17.9625 C   0  0  0  0  0  0  0  0  0  0  0  0
   -6.6866    6.5658  -15.8900 C   0  0  0  0  0  0  0  0  0  0  0  0
   -5.8952    7.2562  -16.6741 N   0  0  0  0  0  0  0  0  0  0  0  0
  2  1  1  1
  2  3  1  0
  2  4  1  0
  4  5  1  0
  5  6  2  0
  5  7  1  0
  7  8  1  0
  8  9  2  0
  9 10  1  0
 10 11  1  0
 11 12  1  0
 12 13  1  0
 13 14  1  0
 10 15  1  0
 15 16  2  0
 16  8  1  0
 14 12  1  0
M  END
>  <energy_score>  (2981) 
-26.063735

>  <alias>  (2981) 
None

>  <HIPPO Pose ID>  (2981) 
76131

>  <smiles>  (2981) 
C[C@@H](F)CC(=O)Nc1cn(CC2CC2)cn1

>  <inchikey>  (2981) 
JLCDUAMCUCDQSA-MRVPVSSYSA-N

>  <distance_score>  (2981) 
1.824689

>  <ref_mols>  (2981) 
Z0719a,Z1597a

>  <ref_pdb>  (2981) 
Z0719a

>  <HIPPO Compound ID>  (2981) 
151260

>  <name>  (2981) 
P76131

>  <inspiration_score>  (2981) 
None

$$$$
P76135
     RDKit          3D

 16 16  0  0  0  0  0  0  0  0999 V2000
   -4.3717    8.5035  -20.1023 C   0  0  0  0  0  0  0  0  0  0  0  0
   -4.4555    7.0935  -20.6723 C   0  0  0  0  0  0  0  0  0  0  0  0
   -3.8577    6.0499  -19.7336 C   0  0  1  0  0  0  0  0  0  0  0  0
   -2.5337    6.3568  -19.5600 F   0  0  0  0  0  0  0  0  0  0  0  0
   -4.6157    5.8994  -18.4058 C   0  0  0  0  0  0  0  0  0  0  0  0
   -4.1382    6.1588  -17.3690 O   0  0  0  0  0  0  0  0  0  0  0  0
   -6.0041    5.2693  -18.7520 N   0  0  0  0  0  0  0  0  0  0  0  0
   -7.0545    4.9415  -17.9436 C   0  0  0  0  0  0  0  0  0  0  0  0
   -8.3026    4.7886  -18.4925 N   0  0  0  0  0  0  0  0  0  0  0  0
   -9.1883    4.5383  -17.4877 C   0  0  0  0  0  0  0  0  0  0  0  0
   -8.5830    4.4835  -16.3300 N   0  0  0  0  0  0  0  0  0  0  0  0
   -7.2286    4.7059  -16.5873 C   0  0  0  0  0  0  0  0  0  0  0  0
   -6.2215    4.5783  -15.5347 C   0  0  0  0  0  0  0  0  0  0  0  0
   -5.0848    4.1479  -15.7073 O   0  0  0  0  0  0  0  0  0  0  0  0
   -6.7148    4.9488  -14.3123 O   0  0  0  0  0  0  0  0  0  0  0  0
   -5.8077    4.7407  -13.2336 C   0  0  0  0  0  0  0  0  0  0  0  0
  1  2  1  0
  2  3  1  0
  3  4  1  1
  3  5  1  0
  5  6  2  0
  5  7  1  0
  7  8  1  0
  8  9  1  0
  9 10  1  0
 10 11  2  0
 11 12  1  0
 12 13  1  0
 13 14  2  0
 13 15  1  0
 15 16  1  0
 12  8  2  0
M  END
>  <energy_score>  (2982) 
-12.748059

>  <alias>  (2982) 
None

>  <HIPPO Pose ID>  (2982) 
76135

>  <smiles>  (2982) 
CC[C@@H](F)C(=O)Nc1[nH]cnc1C(=O)OC

>  <inchikey>  (2982) 
QUJHQWJHPBBRQS-RXMQYKEDSA-N

>  <distance_score>  (2982) 
1.887754

>  <ref_mols>  (2982) 
Z0719a,Z1597a

>  <ref_pdb>  (2982) 
Z0719a

>  <HIPPO Compound ID>  (2982) 
151269

>  <name>  (2982) 
P76135

>  <inspiration_score>  (2982) 
None

$$$$
P76136
     RDKit          3D

 16 16  0  0  0  0  0  0  0  0999 V2000
   -7.5959    3.3349  -14.4233 C   0  0  0  0  0  0  0  0  0  0  0  0
   -8.0068    3.8903  -15.7678 C   0  0  0  0  0  0  0  0  0  0  0  0
   -8.9814    3.4940  -16.5697 N   0  0  0  0  0  0  0  0  0  0  0  0
   -8.8136    4.1858  -17.7455 C   0  0  0  0  0  0  0  0  0  0  0  0
   -7.7309    5.0301  -17.6612 C   0  0  0  0  0  0  0  0  0  0  0  0
   -7.1163    5.7423  -18.6532 N   0  0  0  0  0  0  0  0  0  0  0  0
   -5.7277    6.4453  -18.6808 C   0  0  0  0  0  0  0  0  0  0  0  0
   -4.9329    6.5871  -17.8336 O   0  0  0  0  0  0  0  0  0  0  0  0
   -5.5189    6.9844  -20.0909 C   0  0  0  0  0  0  0  0  0  0  0  0
   -4.0326    7.0405  -20.4303 C   0  0  2  0  0  0  0  0  0  0  0  0
   -3.3536    8.3049  -19.9270 C   0  0  0  0  0  0  0  0  0  0  0  0
   -3.8856    7.0267  -21.7888 F   0  0  0  0  0  0  0  0  0  0  0  0
   -7.3817    4.9808  -16.3351 N   0  0  0  0  0  0  0  0  0  0  0  0
   -6.7134    5.9919  -15.5495 C   0  0  0  0  0  0  0  0  0  0  0  0
   -7.4342    6.2643  -14.2943 C   0  0  0  0  0  0  0  0  0  0  0  0
   -8.0252    6.4148  -13.3054 N   0  0  0  0  0  0  0  0  0  0  0  0
  1  2  1  0
  2  3  2  0
  3  4  1  0
  4  5  2  0
  5  6  1  0
  6  7  1  0
  7  8  2  0
  7  9  1  0
  9 10  1  0
 10 11  1  6
 10 12  1  0
  5 13  1  0
 13 14  1  0
 14 15  1  0
 15 16  3  0
 13  2  1  0
M  END
>  <energy_score>  (2983) 
-15.825122

>  <alias>  (2983) 
None

>  <HIPPO Pose ID>  (2983) 
76136

>  <smiles>  (2983) 
Cc1ncc(NC(=O)C[C@H](C)F)n1CC#N

>  <inchikey>  (2983) 
ZUSBDHZAILRVJX-ZETCQYMHSA-N

>  <distance_score>  (2983) 
1.883317

>  <ref_mols>  (2983) 
Z0719a,Z1597a

>  <ref_pdb>  (2983) 
Z0719a

>  <HIPPO Compound ID>  (2983) 
151271

>  <name>  (2983) 
P76136

>  <inspiration_score>  (2983) 
None

$$$$
P76137
     RDKit          3D

 16 16  0  0  0  0  0  0  0  0999 V2000
   -7.2383    3.4354  -13.4496 C   0  0  0  0  0  0  0  0  0  0  0  0
   -6.5336    4.7714  -13.5943 C   0  0  0  0  0  0  0  0  0  0  0  0
   -6.1865    5.1694  -15.0351 C   0  0  0  0  0  0  0  0  0  0  0  0
   -7.2335    5.1856  -16.0210 N   0  0  0  0  0  0  0  0  0  0  0  0
   -8.5751    5.3564  -15.7703 C   0  0  0  0  0  0  0  0  0  0  0  0
   -9.1240    6.0899  -14.6051 C   0  0  0  0  0  0  0  0  0  0  0  0
   -9.2818    4.8285  -16.7418 N   0  0  0  0  0  0  0  0  0  0  0  0
   -8.3894    4.5914  -17.7464 C   0  0  0  0  0  0  0  0  0  0  0  0
   -8.8892    4.1066  -19.0287 C   0  0  0  0  0  0  0  0  0  0  0  0
   -7.1097    4.9340  -17.3669 C   0  0  0  0  0  0  0  0  0  0  0  0
   -5.9983    5.0095  -18.1633 N   0  0  0  0  0  0  0  0  0  0  0  0
   -4.5944    5.6130  -17.8816 C   0  0  0  0  0  0  0  0  0  0  0  0
   -4.1481    6.0683  -16.9014 O   0  0  0  0  0  0  0  0  0  0  0  0
   -3.8179    5.5910  -19.1896 C   0  0  0  0  0  0  0  0  0  0  0  0
   -4.2042    6.7895  -20.0517 C   0  0  0  0  0  0  0  0  0  0  0  0
   -2.6745    7.2256  -21.4855 I   0  0  0  0  0  0  0  0  0  0  0  0
  1  2  1  0
  2  3  1  0
  3  4  1  0
  4  5  1  0
  5  6  1  0
  5  7  2  0
  7  8  1  0
  8  9  1  0
  8 10  2  0
 10 11  1  0
 11 12  1  0
 12 13  2  0
 12 14  1  0
 14 15  1  0
 15 16  1  0
 10  4  1  0
M  END
>  <energy_score>  (2984) 
-30.279476

>  <alias>  (2984) 
None

>  <HIPPO Pose ID>  (2984) 
76137

>  <smiles>  (2984) 
CCCn1c(C)nc(C)c1NC(=O)CCI

>  <inchikey>  (2984) 
SLEZIALRVHAUPT-UHFFFAOYSA-N

>  <distance_score>  (2984) 
1.480951

>  <ref_mols>  (2984) 
Z0719a,Z1597a

>  <ref_pdb>  (2984) 
Z0719a

>  <HIPPO Compound ID>  (2984) 
151274

>  <name>  (2984) 
P76137

>  <inspiration_score>  (2984) 
None

$$$$
P76138
     RDKit          3D

 16 16  0  0  0  0  0  0  0  0999 V2000
   -3.2589    7.2490  -20.5909 C   0  0  0  0  0  0  0  0  0  0  0  0
   -4.1334    6.6430  -19.5051 C   0  0  0  0  0  0  0  0  0  0  0  0
   -3.3695    5.6128  -18.6624 C   0  0  2  0  0  0  0  0  0  0  0  0
   -3.2765    4.4612  -19.3958 F   0  0  0  0  0  0  0  0  0  0  0  0
   -3.9916    5.4000  -17.2701 C   0  0  0  0  0  0  0  0  0  0  0  0
   -3.4522    5.7392  -16.2885 O   0  0  0  0  0  0  0  0  0  0  0  0
   -5.4056    4.7931  -17.4839 N   0  0  0  0  0  0  0  0  0  0  0  0
   -6.4161    4.5813  -16.6034 C   0  0  0  0  0  0  0  0  0  0  0  0
   -7.6706    4.8173  -17.1292 N   0  0  0  0  0  0  0  0  0  0  0  0
   -8.5096    4.6335  -16.1397 C   0  0  0  0  0  0  0  0  0  0  0  0
   -7.8440    4.3340  -14.9952 N   0  0  0  0  0  0  0  0  0  0  0  0
   -8.3946    4.3257  -13.6641 C   0  0  0  0  0  0  0  0  0  0  0  0
   -6.5161    4.1472  -15.3003 C   0  0  0  0  0  0  0  0  0  0  0  0
   -5.5360    3.3804  -14.3402 C   0  0  0  0  0  0  0  0  0  0  0  0
   -6.0938    2.7446  -13.3890 O   0  0  0  0  0  0  0  0  0  0  0  0
   -4.2945    3.3782  -14.5818 O   0  0  0  0  0  0  0  0  0  0  0  0
  1  2  1  0
  2  3  1  0
  3  4  1  6
  3  5  1  0
  5  6  2  0
  5  7  1  0
  7  8  1  0
  8  9  1  0
  9 10  2  0
 10 11  1  0
 11 12  1  0
 11 13  1  0
 13 14  1  0
 14 15  2  0
 14 16  1  0
 13  8  2  0
M  CHG  1  16  -1
M  END
>  <energy_score>  (2985) 
-20.115631

>  <alias>  (2985) 
None

>  <HIPPO Pose ID>  (2985) 
76138

>  <smiles>  (2985) 
CC[C@H](F)C(=O)Nc1ncn(C)c1C(=O)[O-]

>  <inchikey>  (2985) 
HPMXDILIKZUABF-YFKPBYRVSA-M

>  <distance_score>  (2985) 
1.79785

>  <ref_mols>  (2985) 
Z0719a,Z1597a

>  <ref_pdb>  (2985) 
Z0719a

>  <HIPPO Compound ID>  (2985) 
151279

>  <name>  (2985) 
P76138

>  <inspiration_score>  (2985) 
None

$$$$
P76140
     RDKit          3D

 16 17  0  0  0  0  0  0  0  0999 V2000
   -3.2100    7.9403  -23.0962 C   0  0  0  0  0  0  0  0  0  0  0  0
   -3.9160    7.6499  -21.7796 C   0  0  0  0  0  0  0  0  0  0  0  0
   -2.9906    6.9446  -20.7971 C   0  0  2  0  0  0  0  0  0  0  0  0
   -2.6402    5.7267  -21.3101 F   0  0  0  0  0  0  0  0  0  0  0  0
   -3.6331    6.8039  -19.4235 C   0  0  0  0  0  0  0  0  0  0  0  0
   -3.2099    7.3599  -18.4839 O   0  0  0  0  0  0  0  0  0  0  0  0
   -4.8948    5.9042  -19.5806 N   0  0  0  0  0  0  0  0  0  0  0  0
   -5.7761    5.4606  -18.6573 C   0  0  0  0  0  0  0  0  0  0  0  0
   -6.8813    4.6838  -18.8928 C   0  0  0  0  0  0  0  0  0  0  0  0
   -7.5188    4.6117  -17.6913 N   0  0  0  0  0  0  0  0  0  0  0  0
   -8.7336    4.0544  -17.4668 N   0  0  0  0  0  0  0  0  0  0  0  0
   -9.0821    4.1526  -16.2273 C   0  0  0  0  0  0  0  0  0  0  0  0
   -8.2885    4.7227  -15.1179 C   0  0  0  0  0  0  0  0  0  0  0  0
   -7.1109    5.2682  -15.4277 C   0  0  0  0  0  0  0  0  0  0  0  0
   -6.7035    5.2605  -16.7742 C   0  0  0  0  0  0  0  0  0  0  0  0
   -5.6557    5.8031  -17.3475 N   0  0  0  0  0  0  0  0  0  0  0  0
  1  2  1  0
  2  3  1  0
  3  4  1  6
  3  5  1  0
  5  6  2  0
  5  7  1  0
  7  8  1  0
  8  9  2  0
  9 10  1  0
 10 11  1  0
 11 12  2  0
 12 13  1  0
 13 14  2  0
 14 15  1  0
 15 16  2  0
 16  8  1  0
 15 10  1  0
M  END
>  <energy_score>  (2986) 
-40.111556

>  <alias>  (2986) 
None

>  <HIPPO Pose ID>  (2986) 
76140

>  <smiles>  (2986) 
CC[C@H](F)C(=O)Nc1cn2ncccc2n1

>  <inchikey>  (2986) 
HMUGNCFEZVXDHV-ZETCQYMHSA-N

>  <distance_score>  (2986) 
1.795198

>  <ref_mols>  (2986) 
Z0719a,Z1597a

>  <ref_pdb>  (2986) 
Z0719a

>  <HIPPO Compound ID>  (2986) 
151283

>  <name>  (2986) 
P76140

>  <inspiration_score>  (2986) 
None

$$$$
P76142
     RDKit          3D

 16 17  0  0  0  0  0  0  0  0999 V2000
   -8.9502    4.1876  -18.9521 C   0  0  0  0  0  0  0  0  0  0  0  0
   -8.3993    4.5935  -17.6605 C   0  0  0  0  0  0  0  0  0  0  0  0
   -9.2542    4.8327  -16.6218 N   0  0  0  0  0  0  0  0  0  0  0  0
   -8.4905    5.2315  -15.6287 C   0  0  0  0  0  0  0  0  0  0  0  0
   -8.9637    5.8997  -14.3969 C   0  0  0  0  0  0  0  0  0  0  0  0
   -7.1679    5.0081  -15.9351 N   0  0  0  0  0  0  0  0  0  0  0  0
   -6.1556    4.5216  -14.9669 C   0  0  0  0  0  0  0  0  0  0  0  0
   -5.9405    5.0521  -13.5757 C   0  0  0  0  0  0  0  0  0  0  0  0
   -6.5397    3.6888  -13.7573 C   0  0  0  0  0  0  0  0  0  0  0  0
   -7.0916    4.8359  -17.2958 C   0  0  0  0  0  0  0  0  0  0  0  0
   -5.9997    4.8789  -18.1163 N   0  0  0  0  0  0  0  0  0  0  0  0
   -4.5601    5.4032  -17.8538 C   0  0  0  0  0  0  0  0  0  0  0  0
   -4.0679    5.8067  -16.8731 O   0  0  0  0  0  0  0  0  0  0  0  0
   -3.8048    5.3022  -19.1744 C   0  0  0  0  0  0  0  0  0  0  0  0
   -3.4702    6.6646  -19.7671 C   0  0  0  0  0  0  0  0  0  0  0  0
   -5.1519    7.7849  -20.3971 I   0  0  0  0  0  0  0  0  0  0  0  0
  1  2  1  0
  2  3  1  0
  3  4  2  0
  4  5  1  0
  4  6  1  0
  6  7  1  0
  7  8  1  0
  8  9  1  0
  6 10  1  0
 10 11  1  0
 11 12  1  0
 12 13  2  0
 12 14  1  0
 14 15  1  0
 15 16  1  0
 10  2  2  0
  9  7  1  0
M  END
>  <energy_score>  (2987) 
-18.435221

>  <alias>  (2987) 
None

>  <HIPPO Pose ID>  (2987) 
76142

>  <smiles>  (2987) 
Cc1nc(C)n(C2CC2)c1NC(=O)CCI

>  <inchikey>  (2987) 
IGRZEPILAWHEFV-UHFFFAOYSA-N

>  <distance_score>  (2987) 
1.631713

>  <ref_mols>  (2987) 
Z0719a,Z1597a

>  <ref_pdb>  (2987) 
Z0719a

>  <HIPPO Compound ID>  (2987) 
151287

>  <name>  (2987) 
P76142

>  <inspiration_score>  (2987) 
None

$$$$
P76143
     RDKit          3D

 16 17  0  0  0  0  0  0  0  0999 V2000
   -5.1898    2.5447  -12.8025 C   0  0  0  0  0  0  0  0  0  0  0  0
   -6.5629    2.3919  -12.1681 C   0  0  0  0  0  0  0  0  0  0  0  0
   -7.1814    3.6547  -11.7744 N   0  0  0  0  0  0  0  0  0  0  0  0
   -7.5325    4.0509  -10.5006 C   0  0  0  0  0  0  0  0  0  0  0  0
   -7.5081    3.1782   -9.3056 C   0  0  0  0  0  0  0  0  0  0  0  0
   -7.8893    5.3200  -10.4904 N   0  0  0  0  0  0  0  0  0  0  0  0
   -7.9087    5.7221  -11.8049 C   0  0  0  0  0  0  0  0  0  0  0  0
   -8.3534    7.0926  -12.1314 C   0  0  0  0  0  0  0  0  0  0  0  0
   -7.5161    4.6859  -12.6292 C   0  0  0  0  0  0  0  0  0  0  0  0
   -7.4034    4.5473  -13.9825 N   0  0  0  0  0  0  0  0  0  0  0  0
   -7.5208    5.5880  -15.1053 C   0  0  0  0  0  0  0  0  0  0  0  0
   -7.8084    6.7160  -15.0629 O   0  0  0  0  0  0  0  0  0  0  0  0
   -7.1926    4.9000  -16.3918 C   0  0  0  0  0  0  0  0  0  0  0  0
   -6.2080    3.9210  -16.2851 F   0  0  0  0  0  0  0  0  0  0  0  0
   -7.2210    5.5740  -17.7273 C   0  0  0  0  0  0  0  0  0  0  0  0
   -8.3150    4.6100  -17.3537 C   0  0  0  0  0  0  0  0  0  0  0  0
  1  2  1  0
  2  3  1  0
  3  4  1  0
  4  5  1  0
  4  6  2  0
  6  7  1  0
  7  8  1  0
  7  9  2  0
  9 10  1  0
 10 11  1  0
 11 12  2  0
 11 13  1  0
 13 14  1  0
 13 15  1  0
 15 16  1  0
  9  3  1  0
 16 13  1  0
M  END
>  <energy_score>  (2988) 
-23.655129

>  <alias>  (2988) 
None

>  <HIPPO Pose ID>  (2988) 
76143

>  <smiles>  (2988) 
CCn1c(C)nc(C)c1NC(=O)C1(F)CC1

>  <inchikey>  (2988) 
UPIBOBBVMIDBIR-UHFFFAOYSA-N

>  <distance_score>  (2988) 
1.415086

>  <ref_mols>  (2988) 
Z0719a,Z1597a

>  <ref_pdb>  (2988) 
Z0719a

>  <HIPPO Compound ID>  (2988) 
151292

>  <name>  (2988) 
P76143

>  <inspiration_score>  (2988) 
None

$$$$
P76146
     RDKit          3D

 16 17  0  0  0  0  0  0  0  0999 V2000
   -7.5380    3.3202   -8.8610 C   0  0  0  0  0  0  0  0  0  0  0  0
   -7.6193    4.1611  -10.0714 C   0  0  0  0  0  0  0  0  0  0  0  0
   -8.0205    5.4176  -10.0901 N   0  0  0  0  0  0  0  0  0  0  0  0
   -8.0692    5.7717  -11.4185 C   0  0  0  0  0  0  0  0  0  0  0  0
   -8.5154    7.0813  -11.7846 C   0  0  0  0  0  0  0  0  0  0  0  0
   -8.8660    8.1611  -12.0393 N   0  0  0  0  0  0  0  0  0  0  0  0
   -7.6636    4.7219  -12.2160 C   0  0  0  0  0  0  0  0  0  0  0  0
   -7.6137    4.5047  -13.5601 N   0  0  0  0  0  0  0  0  0  0  0  0
   -7.8340    5.4668  -14.7339 C   0  0  0  0  0  0  0  0  0  0  0  0
   -8.1685    6.5809  -14.7437 O   0  0  0  0  0  0  0  0  0  0  0  0
   -7.5084    4.7069  -15.9710 C   0  0  0  0  0  0  0  0  0  0  0  0
   -6.6939    3.6045  -15.7262 F   0  0  0  0  0  0  0  0  0  0  0  0
   -7.3103    5.3439  -17.3110 C   0  0  0  0  0  0  0  0  0  0  0  0
   -8.5505    4.5316  -17.0393 C   0  0  0  0  0  0  0  0  0  0  0  0
   -7.2482    3.7489  -11.3303 N   0  0  0  0  0  0  0  0  0  0  0  0
   -6.5013    2.5508  -11.6828 C   0  0  0  0  0  0  0  0  0  0  0  0
  1  2  1  0
  2  3  2  0
  3  4  1  0
  4  5  1  0
  5  6  3  0
  4  7  2  0
  7  8  1  0
  8  9  1  0
  9 10  2  0
  9 11  1  0
 11 12  1  0
 11 13  1  0
 13 14  1  0
  7 15  1  0
 15 16  1  0
 15  2  1  0
 14 11  1  0
M  END
>  <energy_score>  (2989) 
-14.35537

>  <alias>  (2989) 
None

>  <HIPPO Pose ID>  (2989) 
76146

>  <smiles>  (2989) 
Cc1nc(C#N)c(NC(=O)C2(F)CC2)n1C

>  <inchikey>  (2989) 
MAVYKIUPZAYBAW-UHFFFAOYSA-N

>  <distance_score>  (2989) 
1.247347

>  <ref_mols>  (2989) 
Z0719a,Z1597a

>  <ref_pdb>  (2989) 
Z0719a

>  <HIPPO Compound ID>  (2989) 
151294

>  <name>  (2989) 
P76146

>  <inspiration_score>  (2989) 
None

$$$$
P76149
     RDKit          3D

 16 17  0  0  0  0  0  0  0  0999 V2000
   -5.1830    2.5650  -12.7514 C   0  0  0  0  0  0  0  0  0  0  0  0
   -6.6471    2.4002  -12.3617 C   0  0  0  0  0  0  0  0  0  0  0  0
   -7.2575    3.6374  -11.9030 N   0  0  0  0  0  0  0  0  0  0  0  0
   -7.5402    3.9974  -10.6017 C   0  0  0  0  0  0  0  0  0  0  0  0
   -7.4585    3.0967   -9.4295 C   0  0  0  0  0  0  0  0  0  0  0  0
   -7.8874    5.2663  -10.5390 N   0  0  0  0  0  0  0  0  0  0  0  0
   -7.9573    5.7086  -11.8381 C   0  0  0  0  0  0  0  0  0  0  0  0
   -8.3926    7.0972  -12.0977 C   0  0  0  0  0  0  0  0  0  0  0  0
   -7.6132    4.6940  -12.7133 C   0  0  0  0  0  0  0  0  0  0  0  0
   -7.5831    4.6169  -14.0794 N   0  0  0  0  0  0  0  0  0  0  0  0
   -7.8036    5.6992  -15.1437 C   0  0  0  0  0  0  0  0  0  0  0  0
   -7.9703    6.8444  -15.0311 O   0  0  0  0  0  0  0  0  0  0  0  0
   -7.7648    5.0763  -16.5089 C   0  0  2  0  0  0  0  0  0  0  0  0
   -8.9699    4.3352  -17.0004 C   0  0  0  0  0  0  0  0  0  0  0  0
   -6.4126    4.7844  -17.1322 C   0  0  0  0  0  0  0  0  0  0  0  0
   -7.1754    5.9236  -17.5205 O   0  0  0  0  0  0  0  0  0  0  0  0
  1  2  1  0
  2  3  1  0
  3  4  1  0
  4  5  1  0
  4  6  2  0
  6  7  1  0
  7  8  1  0
  7  9  2  0
  9 10  1  0
 10 11  1  0
 11 12  2  0
 11 13  1  0
 13 14  1  6
 13 15  1  0
 15 16  1  0
  9  3  1  0
 16 13  1  0
M  END
>  <energy_score>  (2990) 
-23.383944

>  <alias>  (2990) 
None

>  <HIPPO Pose ID>  (2990) 
76149

>  <smiles>  (2990) 
CCn1c(C)nc(C)c1NC(=O)[C@]1(C)CO1

>  <inchikey>  (2990) 
XGULOQISTWCPRS-NSHDSACASA-N

>  <distance_score>  (2990) 
1.273345

>  <ref_mols>  (2990) 
Z0719a,Z1597a

>  <ref_pdb>  (2990) 
Z0719a

>  <HIPPO Compound ID>  (2990) 
151296

>  <name>  (2990) 
P76149

>  <inspiration_score>  (2990) 
None

$$$$
P76150
     RDKit          3D

 16 17  0  0  0  0  0  0  0  0999 V2000
   -5.8337    2.2067  -10.6714 C   0  0  0  0  0  0  0  0  0  0  0  0
   -6.7048    3.0935  -11.4713 C   0  0  0  0  0  0  0  0  0  0  0  0
   -6.8847    2.9449  -12.7619 N   0  0  0  0  0  0  0  0  0  0  0  0
   -7.4721    4.0962  -13.1855 C   0  0  0  0  0  0  0  0  0  0  0  0
   -7.5692    4.2231  -14.5273 N   0  0  0  0  0  0  0  0  0  0  0  0
   -7.9966    5.4140  -15.3841 C   0  0  0  0  0  0  0  0  0  0  0  0
   -8.2617    6.5037  -15.0812 O   0  0  0  0  0  0  0  0  0  0  0  0
   -7.9516    5.0085  -16.8244 C   0  0  2  0  0  0  0  0  0  0  0  0
   -9.1559    4.3615  -17.4242 C   0  0  0  0  0  0  0  0  0  0  0  0
   -6.5941    4.7517  -17.4601 C   0  0  0  0  0  0  0  0  0  0  0  0
   -7.3046    5.9647  -17.6892 O   0  0  0  0  0  0  0  0  0  0  0  0
   -7.7699    4.9290  -12.1298 C   0  0  0  0  0  0  0  0  0  0  0  0
   -8.3175    6.2398  -12.0923 C   0  0  0  0  0  0  0  0  0  0  0  0
   -8.7371    7.3137  -11.9607 N   0  0  0  0  0  0  0  0  0  0  0  0
   -7.3706    4.2115  -11.0180 N   0  0  0  0  0  0  0  0  0  0  0  0
   -7.5539    4.6331   -9.6497 C   0  0  0  0  0  0  0  0  0  0  0  0
  1  2  1  0
  2  3  2  0
  3  4  1  0
  4  5  1  0
  5  6  1  0
  6  7  2  0
  6  8  1  0
  8  9  1  6
  8 10  1  0
 10 11  1  0
  4 12  2  0
 12 13  1  0
 13 14  3  0
 12 15  1  0
 15 16  1  0
 15  2  1  0
 11  8  1  0
M  END
>  <energy_score>  (2991) 
-9.447548

>  <alias>  (2991) 
None

>  <HIPPO Pose ID>  (2991) 
76150

>  <smiles>  (2991) 
Cc1nc(NC(=O)[C@]2(C)CO2)c(C#N)n1C

>  <inchikey>  (2991) 
ZKHRIWGIJWJINL-JTQLQIEISA-N

>  <distance_score>  (2991) 
1.599918

>  <ref_mols>  (2991) 
Z0719a,Z1597a

>  <ref_pdb>  (2991) 
Z0719a

>  <HIPPO Compound ID>  (2991) 
151297

>  <name>  (2991) 
P76150

>  <inspiration_score>  (2991) 
None

$$$$
P76158
     RDKit          3D

 16 17  0  0  0  0  0  0  0  0999 V2000
   -6.3097    1.5489  -13.3437 N   0  0  0  0  0  0  0  0  0  0  0  0
   -5.8511    2.6122  -13.4028 C   0  0  0  0  0  0  0  0  0  0  0  0
   -5.5149    3.9828  -13.4802 C   0  0  0  0  0  0  0  0  0  0  0  0
   -4.3493    4.6999  -13.2721 C   0  0  0  0  0  0  0  0  0  0  0  0
   -3.0797    4.2993  -13.0062 N   0  0  0  0  0  0  0  0  0  0  0  0
   -2.3990    2.9149  -13.1918 C   0  0  0  0  0  0  0  0  0  0  0  0
   -2.8470    1.8912  -13.5286 O   0  0  0  0  0  0  0  0  0  0  0  0
   -0.9261    3.1394  -12.8483 C   0  0  0  0  0  0  0  0  0  0  0  0
   -0.1375    1.8404  -12.7234 C   0  0  0  0  0  0  0  0  0  0  0  0
   -0.3381    0.9809  -10.7751 I   0  0  0  0  0  0  0  0  0  0  0  0
   -4.5714    6.0649  -13.3196 N   0  0  0  0  0  0  0  0  0  0  0  0
   -5.8431    6.1575  -13.5808 C   0  0  0  0  0  0  0  0  0  0  0  0
   -6.4370    4.9505  -13.7119 N   0  0  0  0  0  0  0  0  0  0  0  0
   -7.8514    4.9279  -14.0004 C   0  0  0  0  0  0  0  0  0  0  0  0
   -8.3816    6.3180  -13.6404 C   0  0  0  0  0  0  0  0  0  0  0  0
   -6.9415    7.4640  -13.7397 S   0  0  0  0  0  0  0  0  0  0  0  0
  1  2  3  0
  2  3  1  0
  3  4  2  0
  4  5  1  0
  5  6  1  0
  6  7  2  0
  6  8  1  0
  8  9  1  0
  9 10  1  0
  4 11  1  0
 11 12  2  0
 12 13  1  0
 13 14  1  0
 14 15  1  0
 15 16  1  0
 13  3  1  0
 16 12  1  0
M  END
>  <energy_score>  (2992) 
-30.685064

>  <alias>  (2992) 
None

>  <HIPPO Pose ID>  (2992) 
76158

>  <smiles>  (2992) 
N#Cc1c(NC(=O)CCI)nc2n1CCS2

>  <inchikey>  (2992) 
DACGQCJPTHUELO-UHFFFAOYSA-N

>  <distance_score>  (2992) 
1.19997

>  <ref_mols>  (2992) 
Z0719a,Z1597a

>  <ref_pdb>  (2992) 
Z0719a

>  <HIPPO Compound ID>  (2992) 
151307

>  <name>  (2992) 
P76158

>  <inspiration_score>  (2992) 
None

$$$$
P76160
     RDKit          3D

 16 16  0  0  0  0  0  0  0  0999 V2000
   -7.0516    5.1546  -14.0944 C   0  0  0  0  0  0  0  0  0  0  0  0
   -5.7826    4.6905  -14.5713 O   0  0  0  0  0  0  0  0  0  0  0  0
   -5.5023    4.5707  -15.9104 C   0  0  0  0  0  0  0  0  0  0  0  0
   -4.3586    4.2648  -16.2516 O   0  0  0  0  0  0  0  0  0  0  0  0
   -6.5923    4.7364  -16.8879 C   0  0  0  0  0  0  0  0  0  0  0  0
   -7.9337    4.4528  -16.6150 N   0  0  0  0  0  0  0  0  0  0  0  0
   -8.5650    4.5438  -17.7577 C   0  0  0  0  0  0  0  0  0  0  0  0
   -7.7050    4.8564  -18.7707 N   0  0  0  0  0  0  0  0  0  0  0  0
   -6.4577    5.0450  -18.2362 C   0  0  0  0  0  0  0  0  0  0  0  0
   -5.4147    5.4787  -19.0085 N   0  0  0  0  0  0  0  0  0  0  0  0
   -4.1334    6.2811  -18.6215 C   0  0  0  0  0  0  0  0  0  0  0  0
   -3.8166    6.7573  -17.6000 O   0  0  0  0  0  0  0  0  0  0  0  0
   -3.2355    6.3910  -19.9049 C   0  0  0  0  0  0  0  0  0  0  0  0
   -3.9217    7.2540  -20.9652 C   0  0  0  0  0  0  0  0  0  0  0  0
   -1.8838    7.0202  -19.5442 C   0  0  0  0  0  0  0  0  0  0  0  0
   -2.9504    5.1117  -20.4838 O   0  0  0  0  0  0  0  0  0  0  0  0
  1  2  1  0
  2  3  1  0
  3  4  2  0
  3  5  1  0
  5  6  1  0
  6  7  2  0
  7  8  1  0
  8  9  1  0
  9 10  1  0
 10 11  1  0
 11 12  2  0
 11 13  1  0
 13 14  1  0
 13 15  1  0
 13 16  1  0
  9  5  2  0
M  END
>  <energy_score>  (2993) 
-22.467273

>  <alias>  (2993) 
None

>  <HIPPO Pose ID>  (2993) 
76160

>  <smiles>  (2993) 
COC(=O)c1nc[nH]c1NC(=O)C(C)(C)O

>  <inchikey>  (2993) 
IPXYIGSQYNRGNW-UHFFFAOYSA-N

>  <distance_score>  (2993) 
1.833471

>  <ref_mols>  (2993) 
Z0719a,Z1597a

>  <ref_pdb>  (2993) 
Z0719a

>  <HIPPO Compound ID>  (2993) 
151316

>  <name>  (2993) 
P76160

>  <inspiration_score>  (2993) 
None

$$$$
P76166
     RDKit          3D

 16 17  0  0  0  0  0  0  0  0999 V2000
   -4.8151    4.0750  -14.3105 C   0  0  0  0  0  0  0  0  0  0  0  0
   -6.1488    3.8602  -13.6015 C   0  0  0  0  0  0  0  0  0  0  0  0
   -6.3969    2.3860  -13.3239 C   0  0  0  0  0  0  0  0  0  0  0  0
   -7.3930    4.5256  -14.2785 C   0  0  0  0  0  0  0  0  0  0  0  0
   -7.3955    4.7279  -15.7105 N   0  0  0  0  0  0  0  0  0  0  0  0
   -8.1889    4.1404  -16.6473 C   0  0  0  0  0  0  0  0  0  0  0  0
   -7.8073    4.4712  -17.8662 N   0  0  0  0  0  0  0  0  0  0  0  0
   -6.8457    5.4125  -17.6912 C   0  0  0  0  0  0  0  0  0  0  0  0
   -6.1231    5.9538  -18.6971 N   0  0  0  0  0  0  0  0  0  0  0  0
   -5.0997    7.1062  -18.6870 C   0  0  0  0  0  0  0  0  0  0  0  0
   -4.7750    7.8217  -17.8248 O   0  0  0  0  0  0  0  0  0  0  0  0
   -4.3700    7.2070  -20.0054 C   0  0  2  0  0  0  0  0  0  0  0  0
   -5.1028    7.4675  -21.2793 C   0  0  0  0  0  0  0  0  0  0  0  0
   -2.9731    6.6025  -20.0520 C   0  0  0  0  0  0  0  0  0  0  0  0
   -3.1616    8.0101  -19.9373 O   0  0  0  0  0  0  0  0  0  0  0  0
   -6.6610    5.6748  -16.3637 C   0  0  0  0  0  0  0  0  0  0  0  0
  1  2  1  0
  2  3  1  0
  2  4  1  0
  4  5  1  0
  5  6  1  0
  6  7  2  0
  7  8  1  0
  8  9  1  0
  9 10  1  0
 10 11  2  0
 10 12  1  0
 12 13  1  6
 12 14  1  0
 14 15  1  0
  8 16  2  0
 16  5  1  0
 15 12  1  0
M  END
>  <energy_score>  (2994) 
-7.400833

>  <alias>  (2994) 
None

>  <HIPPO Pose ID>  (2994) 
76166

>  <smiles>  (2994) 
CC(C)Cn1cnc(NC(=O)[C@]2(C)CO2)c1

>  <inchikey>  (2994) 
LSZGLNLMHHRZED-NSHDSACASA-N

>  <distance_score>  (2994) 
1.804371

>  <ref_mols>  (2994) 
Z0719a,Z1597a

>  <ref_pdb>  (2994) 
Z0719a

>  <HIPPO Compound ID>  (2994) 
151328

>  <name>  (2994) 
P76166

>  <inspiration_score>  (2994) 
None

$$$$
P76168
     RDKit          3D

 16 17  0  0  0  0  0  0  0  0999 V2000
   -3.5532    7.4346  -20.9720 C   0  0  0  0  0  0  0  0  0  0  0  0
   -2.5938    6.6914  -20.0446 C   0  0  1  0  0  0  0  0  0  0  0  0
   -1.5381    7.5336  -19.3384 C   0  0  0  0  0  0  0  0  0  0  0  0
   -2.2114    9.1733  -18.5342 Br  0  0  0  0  0  0  0  0  0  0  0  0
   -3.3680    5.7522  -19.1135 C   0  0  0  0  0  0  0  0  0  0  0  0
   -3.3543    4.5948  -19.2789 O   0  0  0  0  0  0  0  0  0  0  0  0
   -4.1591    6.6123  -18.0949 N   0  0  0  0  0  0  0  0  0  0  0  0
   -5.1026    6.2598  -17.1954 C   0  0  0  0  0  0  0  0  0  0  0  0
   -5.7546    5.0623  -17.0758 C   0  0  0  0  0  0  0  0  0  0  0  0
   -6.6768    5.2819  -16.0924 N   0  0  0  0  0  0  0  0  0  0  0  0
   -7.7949    4.4208  -15.7729 C   0  0  0  0  0  0  0  0  0  0  0  0
   -8.9621    4.7838  -16.6366 C   0  0  0  0  0  0  0  0  0  0  0  0
   -8.8495    4.8264  -18.1546 C   0  0  0  0  0  0  0  0  0  0  0  0
   -9.6865    3.7911  -17.4981 C   0  0  0  0  0  0  0  0  0  0  0  0
   -6.4980    6.5474  -15.6191 C   0  0  0  0  0  0  0  0  0  0  0  0
   -5.5684    7.1767  -16.2995 N   0  0  0  0  0  0  0  0  0  0  0  0
  2  1  1  1
  2  3  1  0
  3  4  1  0
  2  5  1  0
  5  6  2  0
  5  7  1  0
  7  8  1  0
  8  9  2  0
  9 10  1  0
 10 11  1  0
 11 12  1  0
 12 13  1  0
 13 14  1  0
 10 15  1  0
 15 16  2  0
 16  8  1  0
 14 12  1  0
M  END
>  <energy_score>  (2995) 
-21.065201

>  <alias>  (2995) 
None

>  <HIPPO Pose ID>  (2995) 
76168

>  <smiles>  (2995) 
C[C@@H](CBr)C(=O)Nc1cn(CC2CC2)cn1

>  <inchikey>  (2995) 
RLVDRUHOTFIVCZ-QMMMGPOBSA-N

>  <distance_score>  (2995) 
1.949946

>  <ref_mols>  (2995) 
Z0719a,Z1597a

>  <ref_pdb>  (2995) 
Z0719a

>  <HIPPO Compound ID>  (2995) 
151333

>  <name>  (2995) 
P76168

>  <inspiration_score>  (2995) 
None

$$$$
P76169
     RDKit          3D

 16 16  0  0  0  0  0  0  0  0999 V2000
   -4.9051    8.6880  -20.3434 C   0  0  0  0  0  0  0  0  0  0  0  0
   -4.3714    7.2764  -20.5563 C   0  0  0  0  0  0  0  0  0  0  0  0
   -3.8165    6.6658  -19.2619 C   0  0  2  0  0  0  0  0  0  0  0  0
   -3.1364    5.3205  -19.5072 C   0  0  0  0  0  0  0  0  0  0  0  0
   -4.8283    6.5202  -18.1108 C   0  0  0  0  0  0  0  0  0  0  0  0
   -4.6011    6.9680  -17.0544 O   0  0  0  0  0  0  0  0  0  0  0  0
   -6.0195    5.6479  -18.6007 N   0  0  0  0  0  0  0  0  0  0  0  0
   -7.0596    5.1035  -17.9098 C   0  0  0  0  0  0  0  0  0  0  0  0
   -8.2491    4.8424  -18.5328 N   0  0  0  0  0  0  0  0  0  0  0  0
   -9.1355    4.4193  -17.5861 C   0  0  0  0  0  0  0  0  0  0  0  0
   -8.5597    4.3018  -16.4160 N   0  0  0  0  0  0  0  0  0  0  0  0
   -7.2364    4.7078  -16.5920 C   0  0  0  0  0  0  0  0  0  0  0  0
   -6.1914    4.5743  -15.5633 C   0  0  0  0  0  0  0  0  0  0  0  0
   -5.0187    4.3306  -15.8504 O   0  0  0  0  0  0  0  0  0  0  0  0
   -6.5473    4.6645  -14.2404 O   0  0  0  0  0  0  0  0  0  0  0  0
   -7.8500    5.1002  -13.8354 C   0  0  0  0  0  0  0  0  0  0  0  0
  1  2  1  0
  2  3  1  0
  3  4  1  6
  3  5  1  0
  5  6  2  0
  5  7  1  0
  7  8  1  0
  8  9  1  0
  9 10  1  0
 10 11  2  0
 11 12  1  0
 12 13  1  0
 13 14  2  0
 13 15  1  0
 15 16  1  0
 12  8  2  0
M  END
>  <energy_score>  (2996) 
-13.621228

>  <alias>  (2996) 
None

>  <HIPPO Pose ID>  (2996) 
76169

>  <smiles>  (2996) 
CC[C@H](C)C(=O)Nc1[nH]cnc1C(=O)OC

>  <inchikey>  (2996) 
RJLDGIJZBOSZSM-LURJTMIESA-N

>  <distance_score>  (2996) 
1.734805

>  <ref_mols>  (2996) 
Z0719a,Z1597a

>  <ref_pdb>  (2996) 
Z0719a

>  <HIPPO Compound ID>  (2996) 
151335

>  <name>  (2996) 
P76169

>  <inspiration_score>  (2996) 
None

$$$$
P76170
     RDKit          3D

 16 16  0  0  0  0  0  0  0  0999 V2000
   -1.3170    7.2419  -21.0889 C   0  0  0  0  0  0  0  0  0  0  0  0
   -2.3207    7.3383  -19.9488 C   0  0  0  0  0  0  0  0  0  0  0  0
   -3.6682    6.6605  -20.2617 C   0  0  2  0  0  0  0  0  0  0  0  0
   -4.4081    7.3709  -21.3895 C   0  0  0  0  0  0  0  0  0  0  0  0
   -4.5497    6.6095  -19.0075 C   0  0  0  0  0  0  0  0  0  0  0  0
   -4.3269    7.2484  -18.0527 O   0  0  0  0  0  0  0  0  0  0  0  0
   -5.6463    5.5361  -19.2694 N   0  0  0  0  0  0  0  0  0  0  0  0
   -6.6758    5.1290  -18.4975 C   0  0  0  0  0  0  0  0  0  0  0  0
   -6.9198    5.5033  -17.2071 C   0  0  0  0  0  0  0  0  0  0  0  0
   -7.9923    4.7646  -16.8247 N   0  0  0  0  0  0  0  0  0  0  0  0
   -8.6012    4.6965  -15.5252 C   0  0  0  0  0  0  0  0  0  0  0  0
   -7.7055    4.6835  -14.2695 C   0  0  0  0  0  0  0  0  0  0  0  0
   -6.5436    3.6953  -14.3218 C   0  0  0  0  0  0  0  0  0  0  0  0
   -7.2172    6.0765  -13.8722 C   0  0  0  0  0  0  0  0  0  0  0  0
   -8.4411    4.1052  -17.9292 C   0  0  0  0  0  0  0  0  0  0  0  0
   -7.6071    4.2482  -18.9351 N   0  0  0  0  0  0  0  0  0  0  0  0
  1  2  1  0
  2  3  1  0
  3  4  1  6
  3  5  1  0
  5  6  2  0
  5  7  1  0
  7  8  1  0
  8  9  2  0
  9 10  1  0
 10 11  1  0
 11 12  1  0
 12 13  1  0
 12 14  1  0
 10 15  1  0
 15 16  2  0
 16  8  1  0
M  END
>  <energy_score>  (2997) 
-41.487164

>  <alias>  (2997) 
None

>  <HIPPO Pose ID>  (2997) 
76170

>  <smiles>  (2997) 
CC[C@H](C)C(=O)Nc1cn(CC(C)C)cn1

>  <inchikey>  (2997) 
XSUXPEBKMNGVPK-JTQLQIEISA-N

>  <distance_score>  (2997) 
1.441671

>  <ref_mols>  (2997) 
Z0719a,Z1597a

>  <ref_pdb>  (2997) 
Z0719a

>  <HIPPO Compound ID>  (2997) 
151336

>  <name>  (2997) 
P76170

>  <inspiration_score>  (2997) 
None

$$$$
P76172
     RDKit          3D

 16 16  0  0  0  0  0  0  0  0999 V2000
   -4.1783    6.3091  -19.5923 C   0  0  0  0  0  0  0  0  0  0  0  0
   -3.7402    4.9781  -18.9630 C   0  0  1  0  0  0  0  0  0  0  0  0
   -2.2517    4.6967  -19.1653 C   0  0  0  0  0  0  0  0  0  0  0  0
   -1.0802    6.1607  -18.6339 Br  0  0  0  0  0  0  0  0  0  0  0  0
   -4.1324    4.7760  -17.4770 C   0  0  0  0  0  0  0  0  0  0  0  0
   -3.3537    4.5862  -16.6290 O   0  0  0  0  0  0  0  0  0  0  0  0
   -5.6792    4.8649  -17.4193 N   0  0  0  0  0  0  0  0  0  0  0  0
   -6.5376    4.6573  -16.3863 C   0  0  0  0  0  0  0  0  0  0  0  0
   -7.7996    5.1082  -16.7355 N   0  0  0  0  0  0  0  0  0  0  0  0
   -8.5713    4.8481  -15.7143 C   0  0  0  0  0  0  0  0  0  0  0  0
   -7.8570    4.3167  -14.6960 N   0  0  0  0  0  0  0  0  0  0  0  0
   -8.2996    4.1538  -13.3328 C   0  0  0  0  0  0  0  0  0  0  0  0
   -6.5688    4.0967  -15.1272 C   0  0  0  0  0  0  0  0  0  0  0  0
   -5.6026    3.2539  -14.2305 C   0  0  0  0  0  0  0  0  0  0  0  0
   -6.1295    2.2202  -13.6987 O   0  0  0  0  0  0  0  0  0  0  0  0
   -4.4298    3.6678  -14.0207 O   0  0  0  0  0  0  0  0  0  0  0  0
  2  1  1  1
  2  3  1  0
  3  4  1  0
  2  5  1  0
  5  6  2  0
  5  7  1  0
  7  8  1  0
  8  9  1  0
  9 10  2  0
 10 11  1  0
 11 12  1  0
 11 13  1  0
 13 14  1  0
 14 15  2  0
 14 16  1  0
 13  8  2  0
M  CHG  1  16  -1
M  END
>  <energy_score>  (2998) 
-2.945436

>  <alias>  (2998) 
None

>  <HIPPO Pose ID>  (2998) 
76172

>  <smiles>  (2998) 
C[C@@H](CBr)C(=O)Nc1ncn(C)c1C(=O)[O-]

>  <inchikey>  (2998) 
XYJFPUHBCWFWHG-YFKPBYRVSA-M

>  <distance_score>  (2998) 
1.755593

>  <ref_mols>  (2998) 
Z0719a,Z1597a

>  <ref_pdb>  (2998) 
Z0719a

>  <HIPPO Compound ID>  (2998) 
151337

>  <name>  (2998) 
P76172

>  <inspiration_score>  (2998) 
None

$$$$
P76174
     RDKit          3D

 16 17  0  0  0  0  0  0  0  0999 V2000
   -4.6697    8.1932  -21.6187 C   0  0  0  0  0  0  0  0  0  0  0  0
   -3.5820    7.2401  -21.1513 C   0  0  1  0  0  0  0  0  0  0  0  0
   -2.2047    7.8782  -21.2884 C   0  0  0  0  0  0  0  0  0  0  0  0
   -0.8490    6.4697  -21.4102 Br  0  0  0  0  0  0  0  0  0  0  0  0
   -3.8752    6.8457  -19.7034 C   0  0  0  0  0  0  0  0  0  0  0  0
   -3.2799    7.2777  -18.7947 O   0  0  0  0  0  0  0  0  0  0  0  0
   -5.1145    5.9062  -19.7418 N   0  0  0  0  0  0  0  0  0  0  0  0
   -5.8765    5.4189  -18.7389 C   0  0  0  0  0  0  0  0  0  0  0  0
   -7.0028    4.6529  -18.8972 C   0  0  0  0  0  0  0  0  0  0  0  0
   -7.5450    4.5725  -17.6532 N   0  0  0  0  0  0  0  0  0  0  0  0
   -8.7606    4.0552  -17.3541 N   0  0  0  0  0  0  0  0  0  0  0  0
   -9.0225    4.1566  -16.0942 C   0  0  0  0  0  0  0  0  0  0  0  0
   -8.1372    4.6879  -15.0359 C   0  0  0  0  0  0  0  0  0  0  0  0
   -6.9629    5.1932  -15.4195 C   0  0  0  0  0  0  0  0  0  0  0  0
   -6.6485    5.1884  -16.7911 C   0  0  0  0  0  0  0  0  0  0  0  0
   -5.6360    5.7204  -17.4355 N   0  0  0  0  0  0  0  0  0  0  0  0
  2  1  1  1
  2  3  1  0
  3  4  1  0
  2  5  1  0
  5  6  2  0
  5  7  1  0
  7  8  1  0
  8  9  2  0
  9 10  1  0
 10 11  1  0
 11 12  2  0
 12 13  1  0
 13 14  2  0
 14 15  1  0
 15 16  2  0
 16  8  1  0
 15 10  1  0
M  END
>  <energy_score>  (2999) 
-37.593114

>  <alias>  (2999) 
None

>  <HIPPO Pose ID>  (2999) 
76174

>  <smiles>  (2999) 
C[C@@H](CBr)C(=O)Nc1cn2ncccc2n1

>  <inchikey>  (2999) 
ZSVMZCHVOICKBL-ZETCQYMHSA-N

>  <distance_score>  (2999) 
1.790756

>  <ref_mols>  (2999) 
Z0719a,Z1597a

>  <ref_pdb>  (2999) 
Z0719a

>  <HIPPO Compound ID>  (2999) 
151340

>  <name>  (2999) 
P76174

>  <inspiration_score>  (2999) 
None

$$$$
P76179
     RDKit          3D

 16 17  0  0  0  0  0  0  0  0999 V2000
   -8.7653    4.2069  -18.9774 C   0  0  0  0  0  0  0  0  0  0  0  0
   -8.2026    4.4729  -17.6509 C   0  0  0  0  0  0  0  0  0  0  0  0
   -9.0101    4.2734  -16.5690 N   0  0  0  0  0  0  0  0  0  0  0  0
   -8.2450    4.5768  -15.5554 C   0  0  0  0  0  0  0  0  0  0  0  0
   -8.6177    4.5962  -14.1762 C   0  0  0  0  0  0  0  0  0  0  0  0
   -7.8081    4.9804  -13.2292 N   0  0  0  0  0  0  0  0  0  0  0  0
   -6.5320    5.3138  -13.6136 C   0  0  0  0  0  0  0  0  0  0  0  0
   -6.1023    5.3177  -14.8866 C   0  0  0  0  0  0  0  0  0  0  0  0
   -6.9707    4.9571  -15.9078 N   0  0  0  0  0  0  0  0  0  0  0  0
   -6.9258    4.8921  -17.2907 C   0  0  0  0  0  0  0  0  0  0  0  0
   -5.9065    5.1556  -18.1765 N   0  0  0  0  0  0  0  0  0  0  0  0
   -4.4053    5.4790  -17.9226 C   0  0  0  0  0  0  0  0  0  0  0  0
   -3.8254    5.6463  -16.9215 O   0  0  0  0  0  0  0  0  0  0  0  0
   -3.7302    5.5138  -19.3087 C   0  0  0  0  0  0  0  0  0  0  0  0
   -4.1951    6.7079  -20.1438 C   0  0  0  0  0  0  0  0  0  0  0  0
   -2.2080    5.5387  -19.1647 C   0  0  0  0  0  0  0  0  0  0  0  0
  1  2  1  0
  2  3  1  0
  3  4  2  0
  4  5  1  0
  5  6  2  0
  6  7  1  0
  7  8  2  0
  8  9  1  0
  9 10  1  0
 10 11  1  0
 11 12  1  0
 12 13  2  0
 12 14  1  0
 14 15  1  0
 14 16  1  0
 10  2  2  0
  9  4  1  0
M  END
>  <energy_score>  (3000) 
-22.695707

>  <alias>  (3000) 
None

>  <HIPPO Pose ID>  (3000) 
76179

>  <smiles>  (3000) 
Cc1nc2cnccn2c1NC(=O)C(C)C

>  <inchikey>  (3000) 
MTKHDFNLQJYYNU-UHFFFAOYSA-N

>  <distance_score>  (3000) 
1.594944

>  <ref_mols>  (3000) 
Z0719a,Z1597a

>  <ref_pdb>  (3000) 
Z0719a

>  <HIPPO Compound ID>  (3000) 
151345

>  <name>  (3000) 
P76179

>  <inspiration_score>  (3000) 
None

$$$$
P76181
     RDKit          3D

 16 17  0  0  0  0  0  0  0  0999 V2000
   -0.1018    3.7665  -12.9442 C   0  0  0  0  0  0  0  0  0  0  0  0
   -1.0383    2.7555  -12.2841 C   0  0  0  0  0  0  0  0  0  0  0  0
   -0.4069    1.3624  -12.3205 C   0  0  0  0  0  0  0  0  0  0  0  0
   -2.4255    2.7376  -12.9576 C   0  0  0  0  0  0  0  0  0  0  0  0
   -2.8280    1.8272  -13.5687 O   0  0  0  0  0  0  0  0  0  0  0  0
   -3.1113    4.0824  -12.5840 N   0  0  0  0  0  0  0  0  0  0  0  0
   -4.3192    4.5852  -12.9445 C   0  0  0  0  0  0  0  0  0  0  0  0
   -4.5050    5.9549  -12.8747 N   0  0  0  0  0  0  0  0  0  0  0  0
   -5.7318    6.1151  -13.2852 C   0  0  0  0  0  0  0  0  0  0  0  0
   -6.3385    4.9442  -13.5827 N   0  0  0  0  0  0  0  0  0  0  0  0
   -5.4729    3.9318  -13.3378 C   0  0  0  0  0  0  0  0  0  0  0  0
   -5.8600    2.5738  -13.3604 C   0  0  0  0  0  0  0  0  0  0  0  0
   -6.3718    1.5345  -13.3596 N   0  0  0  0  0  0  0  0  0  0  0  0
   -7.7377    4.9764  -13.9332 C   0  0  0  0  0  0  0  0  0  0  0  0
   -8.0460    6.4242  -14.3102 C   0  0  0  0  0  0  0  0  0  0  0  0
   -6.7621    7.4706  -13.4999 S   0  0  0  0  0  0  0  0  0  0  0  0
  1  2  1  0
  2  3  1  0
  2  4  1  0
  4  5  2  0
  4  6  1  0
  6  7  1  0
  7  8  1  0
  8  9  2  0
  9 10  1  0
 10 11  1  0
 11 12  1  0
 12 13  3  0
 10 14  1  0
 14 15  1  0
 15 16  1  0
 11  7  2  0
 16  9  1  0
M  END
>  <energy_score>  (3001) 
-38.666508

>  <alias>  (3001) 
None

>  <HIPPO Pose ID>  (3001) 
76181

>  <smiles>  (3001) 
CC(C)C(=O)Nc1nc2n(c1C#N)CCS2

>  <inchikey>  (3001) 
KUHFUMNEGKDHRQ-UHFFFAOYSA-N

>  <distance_score>  (3001) 
1.113727

>  <ref_mols>  (3001) 
Z0719a,Z1597a

>  <ref_pdb>  (3001) 
Z0719a

>  <HIPPO Compound ID>  (3001) 
151355

>  <name>  (3001) 
P76181

>  <inspiration_score>  (3001) 
None

$$$$
P76183
     RDKit          3D

 16 17  0  0  0  0  0  0  0  0999 V2000
   -5.6915    2.3078  -10.7672 C   0  0  0  0  0  0  0  0  0  0  0  0
   -6.6964    3.1480  -11.4559 C   0  0  0  0  0  0  0  0  0  0  0  0
   -7.0686    2.9539  -12.6988 N   0  0  0  0  0  0  0  0  0  0  0  0
   -7.7578    4.0719  -13.0563 C   0  0  0  0  0  0  0  0  0  0  0  0
   -8.1058    4.1395  -14.3598 N   0  0  0  0  0  0  0  0  0  0  0  0
   -8.6258    5.3105  -15.1884 C   0  0  0  0  0  0  0  0  0  0  0  0
   -8.9135    6.3901  -14.8701 O   0  0  0  0  0  0  0  0  0  0  0  0
   -8.6688    4.9293  -16.6402 C   0  0  0  0  0  0  0  0  0  0  0  0
   -9.9635    4.5319  -17.1343 O   0  0  0  0  0  0  0  0  0  0  0  0
   -7.7652    5.6631  -17.6121 C   0  0  0  0  0  0  0  0  0  0  0  0
   -7.5154    4.2352  -17.3094 C   0  0  0  0  0  0  0  0  0  0  0  0
   -7.8793    4.9468  -12.0012 C   0  0  0  0  0  0  0  0  0  0  0  0
   -8.3948    6.2683  -11.9306 C   0  0  0  0  0  0  0  0  0  0  0  0
   -8.7530    7.3627  -11.7862 N   0  0  0  0  0  0  0  0  0  0  0  0
   -7.3217    4.2621  -10.9397 N   0  0  0  0  0  0  0  0  0  0  0  0
   -7.3366    4.7074   -9.5678 C   0  0  0  0  0  0  0  0  0  0  0  0
  1  2  1  0
  2  3  2  0
  3  4  1  0
  4  5  1  0
  5  6  1  0
  6  7  2  0
  6  8  1  0
  8  9  1  0
  8 10  1  0
 10 11  1  0
  4 12  2  0
 12 13  1  0
 13 14  3  0
 12 15  1  0
 15 16  1  0
 15  2  1  0
 11  8  1  0
M  END
>  <energy_score>  (3002) 
-26.833658

>  <alias>  (3002) 
None

>  <HIPPO Pose ID>  (3002) 
76183

>  <smiles>  (3002) 
Cc1nc(NC(=O)C2(O)CC2)c(C#N)n1C

>  <inchikey>  (3002) 
PHBIHXYARIBFFY-UHFFFAOYSA-N

>  <distance_score>  (3002) 
1.862963

>  <ref_mols>  (3002) 
Z0719a,Z1597a

>  <ref_pdb>  (3002) 
Z0719a

>  <HIPPO Compound ID>  (3002) 
151360

>  <name>  (3002) 
P76183

>  <inspiration_score>  (3002) 
None

$$$$
P76184
     RDKit          3D

 16 17  0  0  0  0  0  0  0  0999 V2000
   -7.6928    3.0013   -9.3157 C   0  0  0  0  0  0  0  0  0  0  0  0
   -7.6256    4.0068  -10.4002 C   0  0  0  0  0  0  0  0  0  0  0  0
   -7.9516    5.2761  -10.2544 N   0  0  0  0  0  0  0  0  0  0  0  0
   -7.8497    5.8361  -11.5035 C   0  0  0  0  0  0  0  0  0  0  0  0
   -8.2470    7.1982  -11.6941 C   0  0  0  0  0  0  0  0  0  0  0  0
   -8.5849    8.3050  -11.8134 N   0  0  0  0  0  0  0  0  0  0  0  0
   -7.4169    4.9059  -12.4297 C   0  0  0  0  0  0  0  0  0  0  0  0
   -7.1936    4.9657  -13.7795 N   0  0  0  0  0  0  0  0  0  0  0  0
   -7.1268    6.1769  -14.7305 C   0  0  0  0  0  0  0  0  0  0  0  0
   -7.1748    7.3194  -14.5036 O   0  0  0  0  0  0  0  0  0  0  0  0
   -6.9709    5.7939  -16.1884 C   0  0  0  0  0  0  0  0  0  0  0  0
   -6.4919    6.8794  -17.0208 O   0  0  0  0  0  0  0  0  0  0  0  0
   -6.5218    4.4577  -16.6893 C   0  0  0  0  0  0  0  0  0  0  0  0
   -7.9643    4.8510  -16.8280 C   0  0  0  0  0  0  0  0  0  0  0  0
   -7.2136    3.7526  -11.6935 N   0  0  0  0  0  0  0  0  0  0  0  0
   -6.5568    2.5525  -12.1849 C   0  0  0  0  0  0  0  0  0  0  0  0
  1  2  1  0
  2  3  2  0
  3  4  1  0
  4  5  1  0
  5  6  3  0
  4  7  2  0
  7  8  1  0
  8  9  1  0
  9 10  2  0
  9 11  1  0
 11 12  1  0
 11 13  1  0
 13 14  1  0
  7 15  1  0
 15 16  1  0
 15  2  1  0
 14 11  1  0
M  END
>  <energy_score>  (3003) 
-12.002399

>  <alias>  (3003) 
None

>  <HIPPO Pose ID>  (3003) 
76184

>  <smiles>  (3003) 
Cc1nc(C#N)c(NC(=O)C2(O)CC2)n1C

>  <inchikey>  (3003) 
MLHQFZZEVPUGEA-UHFFFAOYSA-N

>  <distance_score>  (3003) 
1.633261

>  <ref_mols>  (3003) 
Z0719a,Z1597a

>  <ref_pdb>  (3003) 
Z0719a

>  <HIPPO Compound ID>  (3003) 
151361

>  <name>  (3003) 
P76184

>  <inspiration_score>  (3003) 
None

$$$$
P76185
     RDKit          3D

 16 18  0  0  0  0  0  0  0  0999 V2000
   -2.6467    6.3181  -17.9364 O   0  0  0  0  0  0  0  0  0  0  0  0
   -3.0711    5.9657  -18.9628 C   0  0  0  0  0  0  0  0  0  0  0  0
   -4.4243    5.3244  -19.3158 N   0  0  0  0  0  0  0  0  0  0  0  0
   -5.5096    5.0829  -18.5459 C   0  0  0  0  0  0  0  0  0  0  0  0
   -6.7090    4.5922  -18.9915 C   0  0  0  0  0  0  0  0  0  0  0  0
   -7.5033    4.5428  -17.8884 N   0  0  0  0  0  0  0  0  0  0  0  0
   -8.7971    4.1483  -17.8678 N   0  0  0  0  0  0  0  0  0  0  0  0
   -9.3063    4.2351  -16.6862 C   0  0  0  0  0  0  0  0  0  0  0  0
   -8.6143    4.6574  -15.4465 C   0  0  0  0  0  0  0  0  0  0  0  0
   -7.3363    5.0237  -15.5547 C   0  0  0  0  0  0  0  0  0  0  0  0
   -6.7332    4.9932  -16.8261 C   0  0  0  0  0  0  0  0  0  0  0  0
   -5.5214    5.3289  -17.2080 N   0  0  0  0  0  0  0  0  0  0  0  0
   -2.2489    6.1233  -20.2148 C   0  0  0  0  0  0  0  0  0  0  0  0
   -3.0157    6.2383  -21.4361 O   0  0  0  0  0  0  0  0  0  0  0  0
   -0.9446    6.8753  -20.2130 C   0  0  0  0  0  0  0  0  0  0  0  0
   -0.9443    5.3788  -20.3467 C   0  0  0  0  0  0  0  0  0  0  0  0
  1  2  2  0
  2  3  1  0
  3  4  1  0
  4  5  2  0
  5  6  1  0
  6  7  1  0
  7  8  2  0
  8  9  1  0
  9 10  2  0
 10 11  1  0
 11 12  2  0
  2 13  1  0
 13 14  1  0
 13 15  1  0
 15 16  1  0
 12  4  1  0
 16 13  1  0
 11  6  1  0
M  END
>  <energy_score>  (3004) 
-28.548994

>  <alias>  (3004) 
None

>  <HIPPO Pose ID>  (3004) 
76185

>  <smiles>  (3004) 
O=C(Nc1cn2ncccc2n1)C1(O)CC1

>  <inchikey>  (3004) 
MJRASGAHRBJTNL-UHFFFAOYSA-N

>  <distance_score>  (3004) 
1.72359

>  <ref_mols>  (3004) 
Z0719a,Z1597a

>  <ref_pdb>  (3004) 
Z0719a

>  <HIPPO Compound ID>  (3004) 
151362

>  <name>  (3004) 
P76185

>  <inspiration_score>  (3004) 
None

$$$$
P76186
     RDKit          3D

 16 17  0  0  0  0  0  0  0  0999 V2000
   -1.7900    0.8425  -10.1741 C   0  0  0  0  0  0  0  0  0  0  0  0
   -1.8654    1.1613  -11.6358 C   0  0  0  0  0  0  0  0  0  0  0  0
   -0.9612    0.9600  -12.4445 O   0  0  0  0  0  0  0  0  0  0  0  0
   -3.1333    1.8766  -12.1101 C   0  0  0  0  0  0  0  0  0  0  0  0
   -4.1048    1.8672  -11.4735 O   0  0  0  0  0  0  0  0  0  0  0  0
   -2.8441    2.5158  -13.4764 N   0  0  0  0  0  0  0  0  0  0  0  0
   -3.6168    3.3123  -14.2588 C   0  0  0  0  0  0  0  0  0  0  0  0
   -3.0005    4.0282  -15.2632 N   0  0  0  0  0  0  0  0  0  0  0  0
   -3.9922    4.6099  -15.8753 C   0  0  0  0  0  0  0  0  0  0  0  0
   -5.1966    4.3166  -15.3257 N   0  0  0  0  0  0  0  0  0  0  0  0
   -4.9945    3.4614  -14.2884 C   0  0  0  0  0  0  0  0  0  0  0  0
   -6.0124    2.7509  -13.6033 C   0  0  0  0  0  0  0  0  0  0  0  0
   -6.8731    2.1049  -13.1728 N   0  0  0  0  0  0  0  0  0  0  0  0
   -6.3712    4.8078  -16.0136 C   0  0  0  0  0  0  0  0  0  0  0  0
   -5.9167    5.1933  -17.4288 C   0  0  0  0  0  0  0  0  0  0  0  0
   -4.1129    5.5437  -17.3100 S   0  0  0  0  0  0  0  0  0  0  0  0
  1  2  1  0
  2  3  2  0
  2  4  1  0
  4  5  2  0
  4  6  1  0
  6  7  1  0
  7  8  1  0
  8  9  2  0
  9 10  1  0
 10 11  1  0
 11 12  1  0
 12 13  3  0
 10 14  1  0
 14 15  1  0
 15 16  1  0
 11  7  2  0
 16  9  1  0
M  END
>  <energy_score>  (3005) 
-19.693052

>  <alias>  (3005) 
None

>  <HIPPO Pose ID>  (3005) 
76186

>  <smiles>  (3005) 
CC(=O)C(=O)Nc1nc2n(c1C#N)CCS2

>  <inchikey>  (3005) 
YOQZXNHCEKXSNU-UHFFFAOYSA-N

>  <distance_score>  (3005) 
1.334702

>  <ref_mols>  (3005) 
Z0719a,Z1597a

>  <ref_pdb>  (3005) 
Z0719a

>  <HIPPO Compound ID>  (3005) 
151363

>  <name>  (3005) 
P76186

>  <inspiration_score>  (3005) 
None

$$$$
P76189
     RDKit          3D

 16 16  0  0  0  0  0  0  0  0999 V2000
   -7.9527    6.1963  -14.1072 C   0  0  0  0  0  0  0  0  0  0  0  0
   -6.8121    5.3144  -13.6302 C   0  0  0  0  0  0  0  0  0  0  0  0
   -6.8257    4.0899  -14.3628 O   0  0  0  0  0  0  0  0  0  0  0  0
   -6.2065    4.2126  -15.5734 C   0  0  0  0  0  0  0  0  0  0  0  0
   -4.9937    4.1219  -15.6948 O   0  0  0  0  0  0  0  0  0  0  0  0
   -7.2045    4.3621  -16.5936 C   0  0  0  0  0  0  0  0  0  0  0  0
   -8.5355    4.0312  -16.3885 N   0  0  0  0  0  0  0  0  0  0  0  0
   -9.2119    4.2226  -17.5443 C   0  0  0  0  0  0  0  0  0  0  0  0
   -8.3936    4.5935  -18.4945 N   0  0  0  0  0  0  0  0  0  0  0  0
   -7.1667    4.7370  -17.9169 C   0  0  0  0  0  0  0  0  0  0  0  0
   -6.1699    5.1794  -18.7227 N   0  0  0  0  0  0  0  0  0  0  0  0
   -4.8013    5.8277  -18.3724 C   0  0  0  0  0  0  0  0  0  0  0  0
   -4.3569    6.1499  -17.3384 O   0  0  0  0  0  0  0  0  0  0  0  0
   -3.9710    5.9115  -19.6701 C   0  0  1  0  0  0  0  0  0  0  0  0
   -4.4683    6.9996  -20.6034 C   0  0  0  0  0  0  0  0  0  0  0  0
   -2.5898    6.1673  -19.3958 O   0  0  0  0  0  0  0  0  0  0  0  0
  1  2  1  0
  2  3  1  0
  3  4  1  0
  4  5  2  0
  4  6  1  0
  6  7  1  0
  7  8  1  0
  8  9  2  0
  9 10  1  0
 10 11  1  0
 11 12  1  0
 12 13  2  0
 12 14  1  0
 14 15  1  6
 14 16  1  0
 10  6  2  0
M  END
>  <energy_score>  (3006) 
-13.555943

>  <alias>  (3006) 
None

>  <HIPPO Pose ID>  (3006) 
76189

>  <smiles>  (3006) 
CCOC(=O)c1[nH]cnc1NC(=O)[C@@H](C)O

>  <inchikey>  (3006) 
HSSNROIMYVYSDR-RXMQYKEDSA-N

>  <distance_score>  (3006) 
1.983735

>  <ref_mols>  (3006) 
Z0719a,Z1597a

>  <ref_pdb>  (3006) 
Z0719a

>  <HIPPO Compound ID>  (3006) 
151380

>  <name>  (3006) 
P76189

>  <inspiration_score>  (3006) 
None

$$$$
P76190
     RDKit          3D

 16 17  0  0  0  0  0  0  0  0999 V2000
   -8.8179    4.1373  -19.0024 C   0  0  0  0  0  0  0  0  0  0  0  0
   -8.2630    4.4855  -17.6950 C   0  0  0  0  0  0  0  0  0  0  0  0
   -9.0476    4.2974  -16.5881 N   0  0  0  0  0  0  0  0  0  0  0  0
   -8.3181    4.7019  -15.5747 C   0  0  0  0  0  0  0  0  0  0  0  0
   -8.7332    4.7210  -14.1559 C   0  0  0  0  0  0  0  0  0  0  0  0
   -7.0804    5.1103  -16.0037 N   0  0  0  0  0  0  0  0  0  0  0  0
   -6.0196    5.5214  -15.0764 C   0  0  0  0  0  0  0  0  0  0  0  0
   -4.7516    4.7327  -14.9078 C   0  0  0  0  0  0  0  0  0  0  0  0
   -5.7251    4.7848  -13.7788 C   0  0  0  0  0  0  0  0  0  0  0  0
   -7.0273    5.0177  -17.3718 C   0  0  0  0  0  0  0  0  0  0  0  0
   -6.0068    5.3220  -18.2399 N   0  0  0  0  0  0  0  0  0  0  0  0
   -4.7510    6.2248  -18.0485 C   0  0  0  0  0  0  0  0  0  0  0  0
   -4.3560    6.7835  -17.0982 O   0  0  0  0  0  0  0  0  0  0  0  0
   -3.9890    6.2728  -19.4109 C   0  0  2  0  0  0  0  0  0  0  0  0
   -4.6847    7.1834  -20.4122 C   0  0  0  0  0  0  0  0  0  0  0  0
   -3.7406    5.0132  -20.0256 O   0  0  0  0  0  0  0  0  0  0  0  0
  1  2  1  0
  2  3  1  0
  3  4  2  0
  4  5  1  0
  4  6  1  0
  6  7  1  0
  7  8  1  0
  8  9  1  0
  6 10  1  0
 10 11  1  0
 11 12  1  0
 12 13  2  0
 12 14  1  0
 14 15  1  6
 14 16  1  0
 10  2  2  0
  9  7  1  0
M  END
>  <energy_score>  (3007) 
-16.882281

>  <alias>  (3007) 
None

>  <HIPPO Pose ID>  (3007) 
76190

>  <smiles>  (3007) 
Cc1nc(C)n(C2CC2)c1NC(=O)[C@H](C)O

>  <inchikey>  (3007) 
PWTCPAAZGFRIQW-ZETCQYMHSA-N

>  <distance_score>  (3007) 
1.72645

>  <ref_mols>  (3007) 
Z0719a,Z1597a

>  <ref_pdb>  (3007) 
Z0719a

>  <HIPPO Compound ID>  (3007) 
151382

>  <name>  (3007) 
P76190

>  <inspiration_score>  (3007) 
None

$$$$
P76193
     RDKit          3D

 16 16  0  0  0  0  0  0  0  0999 V2000
   -7.2332    3.4721  -13.4292 C   0  0  0  0  0  0  0  0  0  0  0  0
   -6.5167    4.7992  -13.6062 C   0  0  0  0  0  0  0  0  0  0  0  0
   -6.1995    5.1767  -15.0596 C   0  0  0  0  0  0  0  0  0  0  0  0
   -7.2717    5.2161  -16.0163 N   0  0  0  0  0  0  0  0  0  0  0  0
   -8.6067    5.3757  -15.7247 C   0  0  0  0  0  0  0  0  0  0  0  0
   -9.1287    6.1205  -14.5539 C   0  0  0  0  0  0  0  0  0  0  0  0
   -9.3360    4.8272  -16.6677 N   0  0  0  0  0  0  0  0  0  0  0  0
   -8.4766    4.6110  -17.7029 C   0  0  0  0  0  0  0  0  0  0  0  0
   -9.0054    4.1257  -18.9736 C   0  0  0  0  0  0  0  0  0  0  0  0
   -7.1916    4.9763  -17.3664 C   0  0  0  0  0  0  0  0  0  0  0  0
   -6.1290    5.0739  -18.2215 N   0  0  0  0  0  0  0  0  0  0  0  0
   -4.6460    5.4658  -17.9510 C   0  0  0  0  0  0  0  0  0  0  0  0
   -4.1269    5.8387  -16.9704 O   0  0  0  0  0  0  0  0  0  0  0  0
   -3.8901    5.2656  -19.2476 C   0  0  0  0  0  0  0  0  0  0  0  0
   -3.8905    6.4791  -20.0647 C   0  0  0  0  0  0  0  0  0  0  0  0
   -3.8110    7.4169  -20.7440 N   0  0  0  0  0  0  0  0  0  0  0  0
  1  2  1  0
  2  3  1  0
  3  4  1  0
  4  5  1  0
  5  6  1  0
  5  7  2  0
  7  8  1  0
  8  9  1  0
  8 10  2  0
 10 11  1  0
 11 12  1  0
 12 13  2  0
 12 14  1  0
 14 15  1  0
 15 16  3  0
 10  4  1  0
M  END
>  <energy_score>  (3008) 
-12.500316

>  <alias>  (3008) 
None

>  <HIPPO Pose ID>  (3008) 
76193

>  <smiles>  (3008) 
CCCn1c(C)nc(C)c1NC(=O)CC#N

>  <inchikey>  (3008) 
DRMPUBULMCFLIZ-UHFFFAOYSA-N

>  <distance_score>  (3008) 
1.625898

>  <ref_mols>  (3008) 
Z0719a,Z1597a

>  <ref_pdb>  (3008) 
Z0719a

>  <HIPPO Compound ID>  (3008) 
151398

>  <name>  (3008) 
P76193

>  <inspiration_score>  (3008) 
None

$$$$
P76194
     RDKit          3D

 16 17  0  0  0  0  0  0  0  0999 V2000
   -8.2338    5.5134   -8.6147 C   0  0  0  0  0  0  0  0  0  0  0  0
   -8.2795    4.8870   -9.9014 N   0  0  0  0  0  0  0  0  0  0  0  0
   -8.3640    3.5476  -10.1414 C   0  0  0  0  0  0  0  0  0  0  0  0
   -8.2950    3.2969  -11.4277 N   0  0  0  0  0  0  0  0  0  0  0  0
   -8.1317    4.5268  -12.0188 C   0  0  0  0  0  0  0  0  0  0  0  0
   -7.7733    4.5036  -13.3160 N   0  0  0  0  0  0  0  0  0  0  0  0
   -7.1186    5.5808  -14.1882 C   0  0  0  0  0  0  0  0  0  0  0  0
   -6.8532    6.6879  -13.9485 O   0  0  0  0  0  0  0  0  0  0  0  0
   -6.7260    4.9598  -15.4871 C   0  0  0  0  0  0  0  0  0  0  0  0
   -5.5196    4.0645  -15.3618 C   0  0  0  0  0  0  0  0  0  0  0  0
   -6.8885    5.7399  -16.7733 C   0  0  0  0  0  0  0  0  0  0  0  0
   -7.8411    4.6230  -16.4685 C   0  0  0  0  0  0  0  0  0  0  0  0
   -8.2425    5.5361  -11.1064 C   0  0  0  0  0  0  0  0  0  0  0  0
   -8.3627    7.0647  -11.3118 C   0  0  0  0  0  0  0  0  0  0  0  0
   -7.7555    7.7802  -10.4528 O   0  0  0  0  0  0  0  0  0  0  0  0
   -9.1153    7.4700  -12.2491 O   0  0  0  0  0  0  0  0  0  0  0  0
  1  2  1  0
  2  3  1  0
  3  4  2  0
  4  5  1  0
  5  6  1  0
  6  7  1  0
  7  8  2  0
  7  9  1  0
  9 10  1  0
  9 11  1  0
 11 12  1  0
  5 13  2  0
 13 14  1  0
 14 15  2  0
 14 16  1  0
 13  2  1  0
 12  9  1  0
M  CHG  1  16  -1
M  END
>  <energy_score>  (3009) 
-7.825987

>  <alias>  (3009) 
None

>  <HIPPO Pose ID>  (3009) 
76194

>  <smiles>  (3009) 
Cn1cnc(NC(=O)C2(C)CC2)c1C(=O)[O-]

>  <inchikey>  (3009) 
WDZQOIOZWBQFOM-UHFFFAOYSA-M

>  <distance_score>  (3009) 
1.200872

>  <ref_mols>  (3009) 
Z0719a,Z1597a

>  <ref_pdb>  (3009) 
Z0719a

>  <HIPPO Compound ID>  (3009) 
151399

>  <name>  (3009) 
P76194

>  <inspiration_score>  (3009) 
None

$$$$
P76197
     RDKit          3D

 16 17  0  0  0  0  0  0  0  0999 V2000
   -8.3323    3.8330   -8.2044 C   0  0  0  0  0  0  0  0  0  0  0  0
   -8.3418    4.6248   -9.4524 C   0  0  0  0  0  0  0  0  0  0  0  0
   -8.3263    5.9392   -9.5354 N   0  0  0  0  0  0  0  0  0  0  0  0
   -8.2461    6.2233  -10.8830 C   0  0  0  0  0  0  0  0  0  0  0  0
   -8.2264    7.5840  -11.3230 C   0  0  0  0  0  0  0  0  0  0  0  0
   -8.2392    8.7094  -11.6175 N   0  0  0  0  0  0  0  0  0  0  0  0
   -8.1798    5.0631  -11.6242 C   0  0  0  0  0  0  0  0  0  0  0  0
   -7.9107    4.7976  -12.9332 N   0  0  0  0  0  0  0  0  0  0  0  0
   -7.4821    5.7320  -14.0720 C   0  0  0  0  0  0  0  0  0  0  0  0
   -7.3644    6.8887  -14.0947 O   0  0  0  0  0  0  0  0  0  0  0  0
   -7.0943    4.8886  -15.2516 C   0  0  0  0  0  0  0  0  0  0  0  0
   -5.9986    3.8788  -14.9726 C   0  0  0  0  0  0  0  0  0  0  0  0
   -7.1201    5.4923  -16.6444 C   0  0  0  0  0  0  0  0  0  0  0  0
   -8.2056    4.5453  -16.2351 C   0  0  0  0  0  0  0  0  0  0  0  0
   -8.3688    4.0614  -10.7030 N   0  0  0  0  0  0  0  0  0  0  0  0
   -8.5026    2.6531  -10.9651 C   0  0  0  0  0  0  0  0  0  0  0  0
  1  2  1  0
  2  3  2  0
  3  4  1  0
  4  5  1  0
  5  6  3  0
  4  7  2  0
  7  8  1  0
  8  9  1  0
  9 10  2  0
  9 11  1  0
 11 12  1  0
 11 13  1  0
 13 14  1  0
  7 15  1  0
 15 16  1  0
 15  2  1  0
 14 11  1  0
M  END
>  <energy_score>  (3010) 
-2.998624

>  <alias>  (3010) 
None

>  <HIPPO Pose ID>  (3010) 
76197

>  <smiles>  (3010) 
Cc1nc(C#N)c(NC(=O)C2(C)CC2)n1C

>  <inchikey>  (3010) 
IHXBQLJJAUTBJW-UHFFFAOYSA-N

>  <distance_score>  (3010) 
1.267347

>  <ref_mols>  (3010) 
Z0719a,Z1597a

>  <ref_pdb>  (3010) 
Z0719a

>  <HIPPO Compound ID>  (3010) 
151402

>  <name>  (3010) 
P76197

>  <inspiration_score>  (3010) 
None

$$$$
P76200
     RDKit          3D

 16 17  0  0  0  0  0  0  0  0999 V2000
   -5.9990    2.0689  -10.7044 C   0  0  0  0  0  0  0  0  0  0  0  0
   -6.8064    3.1049  -11.3682 C   0  0  0  0  0  0  0  0  0  0  0  0
   -6.9696    3.1384  -12.6669 N   0  0  0  0  0  0  0  0  0  0  0  0
   -7.6753    4.2653  -12.9121 C   0  0  0  0  0  0  0  0  0  0  0  0
   -7.9720    4.4918  -14.2013 N   0  0  0  0  0  0  0  0  0  0  0  0
   -9.0051    5.4293  -14.8364 C   0  0  0  0  0  0  0  0  0  0  0  0
   -9.7157    6.2163  -14.3468 O   0  0  0  0  0  0  0  0  0  0  0  0
   -8.9600    5.2284  -16.3716 C   0  0  0  0  0  0  0  0  0  0  0  0
   -7.5943    5.5569  -17.0719 C   0  0  0  0  0  0  0  0  0  0  0  0
   -7.9684    4.5190  -18.1292 C   0  0  0  0  0  0  0  0  0  0  0  0
   -8.8951    3.8816  -17.0768 C   0  0  0  0  0  0  0  0  0  0  0  0
   -7.9106    4.9881  -11.7696 C   0  0  0  0  0  0  0  0  0  0  0  0
   -8.4064    6.3074  -11.5965 C   0  0  0  0  0  0  0  0  0  0  0  0
   -8.7181    7.4026  -11.3695 N   0  0  0  0  0  0  0  0  0  0  0  0
   -7.4406    4.1697  -10.7648 N   0  0  0  0  0  0  0  0  0  0  0  0
   -7.5510    4.4532   -9.3561 C   0  0  0  0  0  0  0  0  0  0  0  0
  1  2  1  0
  2  3  2  0
  3  4  1  0
  4  5  1  0
  5  6  1  0
  6  7  2  0
  6  8  1  0
  8  9  1  0
  9 10  1  0
 10 11  1  0
  4 12  2  0
 12 13  1  0
 13 14  3  0
 12 15  1  0
 15 16  1  0
 15  2  1  0
 11  8  1  0
M  END
>  <energy_score>  (3011) 
-6.225023

>  <alias>  (3011) 
None

>  <HIPPO Pose ID>  (3011) 
76200

>  <smiles>  (3011) 
Cc1nc(NC(=O)C2CCC2)c(C#N)n1C

>  <inchikey>  (3011) 
DXHWHDCDECFAHM-UHFFFAOYSA-N

>  <distance_score>  (3011) 
1.990685

>  <ref_mols>  (3011) 
Z0719a,Z1597a

>  <ref_pdb>  (3011) 
Z0719a

>  <HIPPO Compound ID>  (3011) 
151405

>  <name>  (3011) 
P76200

>  <inspiration_score>  (3011) 
None

$$$$
P76203
     RDKit          3D

 16 16  0  0  0  0  0  0  0  0999 V2000
   -4.2453    6.8432  -19.6387 C   0  0  0  0  0  0  0  0  0  0  0  0
   -3.5559    5.6357  -19.0065 C   0  0  2  0  0  0  0  0  0  0  0  0
   -3.5251    4.6019  -19.9785 O   0  0  0  0  0  0  0  0  0  0  0  0
   -4.1386    5.2650  -17.5929 C   0  0  0  0  0  0  0  0  0  0  0  0
   -3.5314    5.4241  -16.6071 O   0  0  0  0  0  0  0  0  0  0  0  0
   -5.5974    4.7866  -17.8081 N   0  0  0  0  0  0  0  0  0  0  0  0
   -6.5787    4.5136  -16.9085 C   0  0  0  0  0  0  0  0  0  0  0  0
   -7.8296    4.6230  -17.4606 N   0  0  0  0  0  0  0  0  0  0  0  0
   -8.6710    4.4825  -16.4729 C   0  0  0  0  0  0  0  0  0  0  0  0
   -8.0010    4.3310  -15.3029 N   0  0  0  0  0  0  0  0  0  0  0  0
   -8.5928    4.4961  -13.9987 C   0  0  0  0  0  0  0  0  0  0  0  0
   -6.6445    4.1735  -15.5639 C   0  0  0  0  0  0  0  0  0  0  0  0
   -5.5685    3.6751  -14.2597 S   0  0  0  0  0  0  0  0  0  0  0  0
   -6.2371    2.3212  -13.4908 N   0  0  0  0  0  0  0  0  0  0  0  0
   -5.6626    4.7347  -13.2870 O   0  0  0  0  0  0  0  0  0  0  0  0
   -4.3107    3.2003  -14.7744 O   0  0  0  0  0  0  0  0  0  0  0  0
  2  1  1  6
  2  3  1  0
  2  4  1  0
  4  5  2  0
  4  6  1  0
  6  7  1  0
  7  8  1  0
  8  9  2  0
  9 10  1  0
 10 11  1  0
 10 12  1  0
 12 13  1  0
 13 14  1  0
 13 15  2  0
 13 16  2  0
 12  7  2  0
M  END
>  <energy_score>  (3012) 
-15.648904

>  <alias>  (3012) 
None

>  <HIPPO Pose ID>  (3012) 
76203

>  <smiles>  (3012) 
C[C@H](O)C(=O)Nc1ncn(C)c1S(N)(=O)=O

>  <inchikey>  (3012) 
RGWVMPPHQCGBBI-BYPYZUCNSA-N

>  <distance_score>  (3012) 
1.662904

>  <ref_mols>  (3012) 
Z0719a,Z1597a

>  <ref_pdb>  (3012) 
Z0719a

>  <HIPPO Compound ID>  (3012) 
151413

>  <name>  (3012) 
P76203

>  <inspiration_score>  (3012) 
None

$$$$
P76204
     RDKit          3D

 16 16  0  0  0  0  0  0  0  0999 V2000
   -6.4042    5.4318  -12.6101 C   0  0  0  0  0  0  0  0  0  0  0  0
   -5.9658    5.2357  -14.0564 C   0  0  0  0  0  0  0  0  0  0  0  0
   -6.7037    6.1472  -15.0376 C   0  0  0  0  0  0  0  0  0  0  0  0
   -7.3990    5.4069  -16.0569 N   0  0  0  0  0  0  0  0  0  0  0  0
   -8.4910    4.6317  -15.7297 C   0  0  0  0  0  0  0  0  0  0  0  0
   -9.0012    4.5191  -14.3550 C   0  0  0  0  0  0  0  0  0  0  0  0
   -9.0092    4.0627  -16.7846 N   0  0  0  0  0  0  0  0  0  0  0  0
   -8.3097    4.5803  -17.8337 C   0  0  0  0  0  0  0  0  0  0  0  0
   -8.6904    4.1551  -19.1745 C   0  0  0  0  0  0  0  0  0  0  0  0
   -7.3272    5.4634  -17.4232 C   0  0  0  0  0  0  0  0  0  0  0  0
   -6.5623    6.2779  -18.2189 N   0  0  0  0  0  0  0  0  0  0  0  0
   -5.1526    6.8985  -17.9741 C   0  0  0  0  0  0  0  0  0  0  0  0
   -4.4653    6.8710  -17.0254 O   0  0  0  0  0  0  0  0  0  0  0  0
   -4.7718    7.7277  -19.2257 C   0  0  1  0  0  0  0  0  0  0  0  0
   -4.6172    6.9016  -20.4875 C   0  0  0  0  0  0  0  0  0  0  0  0
   -5.7208    8.7743  -19.4458 O   0  0  0  0  0  0  0  0  0  0  0  0
  1  2  1  0
  2  3  1  0
  3  4  1  0
  4  5  1  0
  5  6  1  0
  5  7  2  0
  7  8  1  0
  8  9  1  0
  8 10  2  0
 10 11  1  0
 11 12  1  0
 12 13  2  0
 12 14  1  0
 14 15  1  6
 14 16  1  0
 10  4  1  0
M  END
>  <energy_score>  (3013) 
-0.382803

>  <alias>  (3013) 
None

>  <HIPPO Pose ID>  (3013) 
76204

>  <smiles>  (3013) 
CCCn1c(C)nc(C)c1NC(=O)[C@@H](C)O

>  <inchikey>  (3013) 
OAOYCZIIRUXVCV-MRVPVSSYSA-N

>  <distance_score>  (3013) 
1.820528

>  <ref_mols>  (3013) 
Z0719a,Z1597a

>  <ref_pdb>  (3013) 
Z0719a

>  <HIPPO Compound ID>  (3013) 
151416

>  <name>  (3013) 
P76204

>  <inspiration_score>  (3013) 
None

$$$$
P76206
     RDKit          3D

 16 16  0  0  0  0  0  0  0  0999 V2000
   -9.0907    4.1141  -18.8361 C   0  0  0  0  0  0  0  0  0  0  0  0
   -8.5477    4.5341  -17.5416 C   0  0  0  0  0  0  0  0  0  0  0  0
   -9.2131    4.2035  -16.4073 N   0  0  0  0  0  0  0  0  0  0  0  0
   -8.5062    4.7109  -15.4280 C   0  0  0  0  0  0  0  0  0  0  0  0
   -8.8981    4.6362  -14.0037 C   0  0  0  0  0  0  0  0  0  0  0  0
   -7.3643    5.3391  -15.8993 N   0  0  0  0  0  0  0  0  0  0  0  0
   -6.3622    5.9340  -15.0338 C   0  0  0  0  0  0  0  0  0  0  0  0
   -6.8641    6.6872  -13.7959 C   0  0  0  0  0  0  0  0  0  0  0  0
   -5.3325    4.8993  -14.6111 C   0  0  0  0  0  0  0  0  0  0  0  0
   -7.3952    5.2531  -17.2820 C   0  0  0  0  0  0  0  0  0  0  0  0
   -6.5935    5.7043  -18.3094 N   0  0  0  0  0  0  0  0  0  0  0  0
   -5.2491    6.4952  -18.2729 C   0  0  0  0  0  0  0  0  0  0  0  0
   -4.5813    6.8151  -17.3655 O   0  0  0  0  0  0  0  0  0  0  0  0
   -4.9300    6.9008  -19.7118 C   0  0  0  0  0  0  0  0  0  0  0  0
   -3.7218    6.2402  -20.2098 C   0  0  0  0  0  0  0  0  0  0  0  0
   -2.7762    5.7349  -20.6645 N   0  0  0  0  0  0  0  0  0  0  0  0
  1  2  1  0
  2  3  1  0
  3  4  2  0
  4  5  1  0
  4  6  1  0
  6  7  1  0
  7  8  1  0
  7  9  1  0
  6 10  1  0
 10 11  1  0
 11 12  1  0
 12 13  2  0
 12 14  1  0
 14 15  1  0
 15 16  3  0
 10  2  2  0
M  END
>  <energy_score>  (3014) 
-14.555403

>  <alias>  (3014) 
None

>  <HIPPO Pose ID>  (3014) 
76206

>  <smiles>  (3014) 
Cc1nc(C)n(C(C)C)c1NC(=O)CC#N

>  <inchikey>  (3014) 
FHNVAXOLIVIRMB-UHFFFAOYSA-N

>  <distance_score>  (3014) 
1.905559

>  <ref_mols>  (3014) 
Z0719a,Z1597a

>  <ref_pdb>  (3014) 
Z0719a

>  <HIPPO Compound ID>  (3014) 
151421

>  <name>  (3014) 
P76206

>  <inspiration_score>  (3014) 
None

$$$$
P76208
     RDKit          3D

 16 17  0  0  0  0  0  0  0  0999 V2000
   -0.1905    1.8830  -12.4887 C   0  0  0  0  0  0  0  0  0  0  0  0
   -1.5032    1.2884  -12.0078 C   0  0  1  0  0  0  0  0  0  0  0  0
   -1.6250    1.5494  -10.6117 O   0  0  0  0  0  0  0  0  0  0  0  0
   -2.6808    1.8814  -12.8146 C   0  0  0  0  0  0  0  0  0  0  0  0
   -3.1185    1.3845  -13.7772 O   0  0  0  0  0  0  0  0  0  0  0  0
   -3.0717    3.2026  -12.0975 N   0  0  0  0  0  0  0  0  0  0  0  0
   -4.0786    4.0763  -12.3486 C   0  0  0  0  0  0  0  0  0  0  0  0
   -3.9765    5.3798  -11.9071 N   0  0  0  0  0  0  0  0  0  0  0  0
   -5.0751    5.9319  -12.3410 C   0  0  0  0  0  0  0  0  0  0  0  0
   -5.8801    5.0584  -12.9919 N   0  0  0  0  0  0  0  0  0  0  0  0
   -5.2951    3.8369  -12.9647 C   0  0  0  0  0  0  0  0  0  0  0  0
   -5.9383    2.6241  -13.3034 C   0  0  0  0  0  0  0  0  0  0  0  0
   -6.5708    1.6719  -13.4939 N   0  0  0  0  0  0  0  0  0  0  0  0
   -7.1802    5.5276  -13.4090 C   0  0  0  0  0  0  0  0  0  0  0  0
   -7.1142    7.0579  -13.3819 C   0  0  0  0  0  0  0  0  0  0  0  0
   -5.7464    7.5080  -12.2348 S   0  0  0  0  0  0  0  0  0  0  0  0
  2  1  1  6
  2  3  1  0
  2  4  1  0
  4  5  2  0
  4  6  1  0
  6  7  1  0
  7  8  1  0
  8  9  2  0
  9 10  1  0
 10 11  1  0
 11 12  1  0
 12 13  3  0
 10 14  1  0
 14 15  1  0
 15 16  1  0
 11  7  2  0
 16  9  1  0
M  END
>  <energy_score>  (3015) 
-38.194428

>  <alias>  (3015) 
None

>  <HIPPO Pose ID>  (3015) 
76208

>  <smiles>  (3015) 
C[C@@H](O)C(=O)Nc1nc2n(c1C#N)CCS2

>  <inchikey>  (3015) 
QWHDAMYHSMXPQT-RXMQYKEDSA-N

>  <distance_score>  (3015) 
1.237955

>  <ref_mols>  (3015) 
Z0719a,Z1597a

>  <ref_pdb>  (3015) 
Z0719a

>  <HIPPO Compound ID>  (3015) 
151426

>  <name>  (3015) 
P76208

>  <inspiration_score>  (3015) 
None

$$$$
P76209
     RDKit          3D

 16 16  0  0  0  0  0  0  0  0999 V2000
   -5.7161    5.1689  -13.0583 C   0  0  0  0  0  0  0  0  0  0  0  0
   -6.2048    3.7463  -13.3283 C   0  0  0  0  0  0  0  0  0  0  0  0
   -5.0605    2.7913  -13.6163 C   0  0  0  0  0  0  0  0  0  0  0  0
   -7.3664    3.6783  -14.3571 C   0  0  0  0  0  0  0  0  0  0  0  0
   -7.2753    4.2489  -15.6812 N   0  0  0  0  0  0  0  0  0  0  0  0
   -8.3551    4.4850  -16.4936 C   0  0  0  0  0  0  0  0  0  0  0  0
   -8.0070    5.1545  -17.5718 N   0  0  0  0  0  0  0  0  0  0  0  0
   -6.6682    5.3374  -17.4584 C   0  0  0  0  0  0  0  0  0  0  0  0
   -5.9784    6.1061  -18.3317 N   0  0  0  0  0  0  0  0  0  0  0  0
   -4.5384    6.6944  -18.2428 C   0  0  0  0  0  0  0  0  0  0  0  0
   -3.7037    6.5390  -17.4358 O   0  0  0  0  0  0  0  0  0  0  0  0
   -4.3334    7.7039  -19.4154 C   0  0  0  0  0  0  0  0  0  0  0  0
   -4.4494    7.0060  -20.7706 C   0  0  0  0  0  0  0  0  0  0  0  0
   -2.9099    8.2961  -19.3136 C   0  0  0  0  0  0  0  0  0  0  0  0
   -5.3321    8.8653  -19.3117 C   0  0  0  0  0  0  0  0  0  0  0  0
   -6.1831    4.7352  -16.3314 C   0  0  0  0  0  0  0  0  0  0  0  0
  1  2  1  0
  2  3  1  0
  2  4  1  0
  4  5  1  0
  5  6  1  0
  6  7  2  0
  7  8  1  0
  8  9  1  0
  9 10  1  0
 10 11  2  0
 10 12  1  0
 12 13  1  0
 12 14  1  0
 12 15  1  0
  8 16  2  0
 16  5  1  0
M  END
>  <energy_score>  (3016) 
-28.175779

>  <alias>  (3016) 
None

>  <HIPPO Pose ID>  (3016) 
76209

>  <smiles>  (3016) 
CC(C)Cn1cnc(NC(=O)C(C)(C)C)c1

>  <inchikey>  (3016) 
JNHFIWVFJIUYIV-UHFFFAOYSA-N

>  <distance_score>  (3016) 
1.763036

>  <ref_mols>  (3016) 
Z0719a,Z1597a

>  <ref_pdb>  (3016) 
Z0719a

>  <HIPPO Compound ID>  (3016) 
151428

>  <name>  (3016) 
P76209

>  <inspiration_score>  (3016) 
None

$$$$
P76210
     RDKit          3D

 16 17  0  0  0  0  0  0  0  0999 V2000
   -8.9008    4.1686  -19.0243 C   0  0  0  0  0  0  0  0  0  0  0  0
   -8.3629    4.5614  -17.7256 C   0  0  0  0  0  0  0  0  0  0  0  0
   -9.2239    4.6989  -16.6741 N   0  0  0  0  0  0  0  0  0  0  0  0
   -8.4788    5.0796  -15.6600 C   0  0  0  0  0  0  0  0  0  0  0  0
   -9.0005    5.6018  -14.3800 C   0  0  0  0  0  0  0  0  0  0  0  0
   -7.1484    4.9730  -15.9894 N   0  0  0  0  0  0  0  0  0  0  0  0
   -6.0677    4.5914  -15.0530 C   0  0  0  0  0  0  0  0  0  0  0  0
   -5.6508    5.4114  -13.8651 C   0  0  0  0  0  0  0  0  0  0  0  0
   -6.2948    4.0712  -13.6490 C   0  0  0  0  0  0  0  0  0  0  0  0
   -7.0697    4.8672  -17.3588 C   0  0  0  0  0  0  0  0  0  0  0  0
   -5.9795    5.0075  -18.1736 N   0  0  0  0  0  0  0  0  0  0  0  0
   -4.5428    5.5045  -17.8584 C   0  0  0  0  0  0  0  0  0  0  0  0
   -4.0922    5.9426  -16.8733 O   0  0  0  0  0  0  0  0  0  0  0  0
   -3.7367    5.3975  -19.1402 C   0  0  0  0  0  0  0  0  0  0  0  0
   -3.9738    6.6121  -20.0203 C   0  0  0  0  0  0  0  0  0  0  0  0
   -2.7401    6.6752  -21.3069 Cl  0  0  0  0  0  0  0  0  0  0  0  0
  1  2  1  0
  2  3  1  0
  3  4  2  0
  4  5  1  0
  4  6  1  0
  6  7  1  0
  7  8  1  0
  8  9  1  0
  6 10  1  0
 10 11  1  0
 11 12  1  0
 12 13  2  0
 12 14  1  0
 14 15  1  0
 15 16  1  0
 10  2  2  0
  9  7  1  0
M  END
>  <energy_score>  (3017) 
-15.43498

>  <alias>  (3017) 
None

>  <HIPPO Pose ID>  (3017) 
76210

>  <smiles>  (3017) 
Cc1nc(C)n(C2CC2)c1NC(=O)CCCl

>  <inchikey>  (3017) 
LGWJZRMEBIEQFK-UHFFFAOYSA-N

>  <distance_score>  (3017) 
1.631756

>  <ref_mols>  (3017) 
Z0719a,Z1597a

>  <ref_pdb>  (3017) 
Z0719a

>  <HIPPO Compound ID>  (3017) 
151449

>  <name>  (3017) 
P76210

>  <inspiration_score>  (3017) 
None

$$$$
P76211
     RDKit          3D

 16 16  0  0  0  0  0  0  0  0999 V2000
   -3.4642    7.8571  -22.0145 C   0  0  0  0  0  0  0  0  0  0  0  0
   -4.3801    7.4208  -20.8784 C   0  0  0  0  0  0  0  0  0  0  0  0
   -3.6702    6.5053  -19.8793 C   0  0  2  0  0  0  0  0  0  0  0  0
   -3.3050    5.2788  -20.5101 O   0  0  0  0  0  0  0  0  0  0  0  0
   -4.4900    6.3234  -18.5666 C   0  0  0  0  0  0  0  0  0  0  0  0
   -4.0733    6.6774  -17.5311 O   0  0  0  0  0  0  0  0  0  0  0  0
   -5.8271    5.5989  -18.9253 N   0  0  0  0  0  0  0  0  0  0  0  0
   -6.8158    5.1093  -18.1168 C   0  0  0  0  0  0  0  0  0  0  0  0
   -8.0761    4.9096  -18.6194 N   0  0  0  0  0  0  0  0  0  0  0  0
   -8.8902    4.5140  -17.6005 C   0  0  0  0  0  0  0  0  0  0  0  0
   -8.2166    4.3818  -16.4873 N   0  0  0  0  0  0  0  0  0  0  0  0
   -6.8934    4.7224  -16.7838 C   0  0  0  0  0  0  0  0  0  0  0  0
   -5.7776    4.5370  -15.8394 C   0  0  0  0  0  0  0  0  0  0  0  0
   -4.6384    4.2640  -16.2169 O   0  0  0  0  0  0  0  0  0  0  0  0
   -6.0264    4.6064  -14.4903 O   0  0  0  0  0  0  0  0  0  0  0  0
   -7.2995    4.9977  -13.9620 C   0  0  0  0  0  0  0  0  0  0  0  0
  1  2  1  0
  2  3  1  0
  3  4  1  6
  3  5  1  0
  5  6  2  0
  5  7  1  0
  7  8  1  0
  8  9  1  0
  9 10  1  0
 10 11  2  0
 11 12  1  0
 12 13  1  0
 13 14  2  0
 13 15  1  0
 15 16  1  0
 12  8  2  0
M  END
>  <energy_score>  (3018) 
-9.149693

>  <alias>  (3018) 
None

>  <HIPPO Pose ID>  (3018) 
76211

>  <smiles>  (3018) 
CC[C@H](O)C(=O)Nc1[nH]cnc1C(=O)OC

>  <inchikey>  (3018) 
OMLFUPISLZTYRH-YFKPBYRVSA-N

>  <distance_score>  (3018) 
1.757124

>  <ref_mols>  (3018) 
Z0719a,Z1597a

>  <ref_pdb>  (3018) 
Z0719a

>  <HIPPO Compound ID>  (3018) 
151453

>  <name>  (3018) 
P76211

>  <inspiration_score>  (3018) 
None

$$$$
P76212
     RDKit          3D

 16 16  0  0  0  0  0  0  0  0999 V2000
   -3.8609    9.1234  -21.3575 C   0  0  0  0  0  0  0  0  0  0  0  0
   -4.1576    8.1750  -20.2026 C   0  0  0  0  0  0  0  0  0  0  0  0
   -4.6914    6.8316  -20.6692 C   0  0  2  0  0  0  0  0  0  0  0  0
   -5.8962    7.0446  -21.3789 O   0  0  0  0  0  0  0  0  0  0  0  0
   -4.7803    5.8816  -19.4481 C   0  0  0  0  0  0  0  0  0  0  0  0
   -3.8223    5.4340  -18.9421 O   0  0  0  0  0  0  0  0  0  0  0  0
   -6.2790    5.7759  -19.0410 N   0  0  0  0  0  0  0  0  0  0  0  0
   -6.8562    5.2174  -17.9523 C   0  0  0  0  0  0  0  0  0  0  0  0
   -6.2193    4.6566  -16.8808 C   0  0  0  0  0  0  0  0  0  0  0  0
   -7.2091    4.3311  -16.0009 N   0  0  0  0  0  0  0  0  0  0  0  0
   -7.0811    3.8093  -14.6545 C   0  0  0  0  0  0  0  0  0  0  0  0
   -5.6577    3.6331  -14.0625 C   0  0  0  0  0  0  0  0  0  0  0  0
   -5.1185    4.9632  -13.5316 C   0  0  0  0  0  0  0  0  0  0  0  0
   -5.6900    2.5962  -12.9460 C   0  0  0  0  0  0  0  0  0  0  0  0
   -8.3977    4.6352  -16.6045 C   0  0  0  0  0  0  0  0  0  0  0  0
   -8.2019    5.2069  -17.7727 N   0  0  0  0  0  0  0  0  0  0  0  0
  1  2  1  0
  2  3  1  0
  3  4  1  1
  3  5  1  0
  5  6  2  0
  5  7  1  0
  7  8  1  0
  8  9  2  0
  9 10  1  0
 10 11  1  0
 11 12  1  0
 12 13  1  0
 12 14  1  0
 10 15  1  0
 15 16  2  0
 16  8  1  0
M  END
>  <energy_score>  (3019) 
-32.852922

>  <alias>  (3019) 
None

>  <HIPPO Pose ID>  (3019) 
76212

>  <smiles>  (3019) 
CC[C@H](O)C(=O)Nc1cn(CC(C)C)cn1

>  <inchikey>  (3019) 
WSGMAPBFJASXLJ-VIFPVBQESA-N

>  <distance_score>  (3019) 
1.722375

>  <ref_mols>  (3019) 
Z0719a,Z1597a

>  <ref_pdb>  (3019) 
Z0719a

>  <HIPPO Compound ID>  (3019) 
151454

>  <name>  (3019) 
P76212

>  <inspiration_score>  (3019) 
None

$$$$
P76221
     RDKit          3D

 16 16  0  0  0  0  0  0  0  0999 V2000
   -3.2945    7.5149  -21.6126 C   0  0  0  0  0  0  0  0  0  0  0  0
   -3.7219    6.8493  -20.3119 C   0  0  0  0  0  0  0  0  0  0  0  0
   -5.1284    7.2622  -19.8599 C   0  0  1  0  0  0  0  0  0  0  0  0
   -6.0414    7.0409  -20.9100 O   0  0  0  0  0  0  0  0  0  0  0  0
   -5.4514    6.6127  -18.4780 C   0  0  0  0  0  0  0  0  0  0  0  0
   -4.6966    6.6703  -17.5838 O   0  0  0  0  0  0  0  0  0  0  0  0
   -6.8546    5.9418  -18.5728 N   0  0  0  0  0  0  0  0  0  0  0  0
   -7.5338    5.1677  -17.6677 C   0  0  0  0  0  0  0  0  0  0  0  0
   -8.6032    4.3188  -17.8499 C   0  0  0  0  0  0  0  0  0  0  0  0
   -8.8365    3.5753  -16.7114 N   0  0  0  0  0  0  0  0  0  0  0  0
   -7.9169    3.9490  -15.8361 C   0  0  0  0  0  0  0  0  0  0  0  0
   -7.5867    3.3664  -14.4803 C   0  0  0  0  0  0  0  0  0  0  0  0
   -7.2687    5.0646  -16.3235 N   0  0  0  0  0  0  0  0  0  0  0  0
   -6.6607    6.0509  -15.4585 C   0  0  0  0  0  0  0  0  0  0  0  0
   -7.4650    6.2831  -14.2464 C   0  0  0  0  0  0  0  0  0  0  0  0
   -8.1192    6.4028  -13.2936 N   0  0  0  0  0  0  0  0  0  0  0  0
  1  2  1  0
  2  3  1  0
  3  4  1  6
  3  5  1  0
  5  6  2  0
  5  7  1  0
  7  8  1  0
  8  9  2  0
  9 10  1  0
 10 11  2  0
 11 12  1  0
 11 13  1  0
 13 14  1  0
 14 15  1  0
 15 16  3  0
 13  8  1  0
M  END
>  <energy_score>  (3020) 
-22.022921

>  <alias>  (3020) 
None

>  <HIPPO Pose ID>  (3020) 
76221

>  <smiles>  (3020) 
CC[C@@H](O)C(=O)Nc1cnc(C)n1CC#N

>  <inchikey>  (3020) 
ISWNDJAEXDZHBQ-MRVPVSSYSA-N

>  <distance_score>  (3020) 
1.852316

>  <ref_mols>  (3020) 
Z0719a,Z1597a

>  <ref_pdb>  (3020) 
Z0719a

>  <HIPPO Compound ID>  (3020) 
151472

>  <name>  (3020) 
P76221

>  <inspiration_score>  (3020) 
None

$$$$
P76222
     RDKit          3D

 16 17  0  0  0  0  0  0  0  0999 V2000
   -3.5987    8.8801  -20.8409 C   0  0  0  0  0  0  0  0  0  0  0  0
   -2.6916    7.7806  -20.2986 C   0  0  0  0  0  0  0  0  0  0  0  0
   -3.2643    6.3908  -20.5174 C   0  0  1  0  0  0  0  0  0  0  0  0
   -2.2676    5.6153  -21.2159 O   0  0  0  0  0  0  0  0  0  0  0  0
   -3.6862    5.6105  -19.2446 C   0  0  0  0  0  0  0  0  0  0  0  0
   -3.3687    4.4958  -19.0844 O   0  0  0  0  0  0  0  0  0  0  0  0
   -4.6118    6.5233  -18.3990 N   0  0  0  0  0  0  0  0  0  0  0  0
   -5.3590    6.2459  -17.3136 C   0  0  0  0  0  0  0  0  0  0  0  0
   -5.7801    5.0083  -16.9116 C   0  0  0  0  0  0  0  0  0  0  0  0
   -6.7170    5.2779  -15.9567 N   0  0  0  0  0  0  0  0  0  0  0  0
   -7.8412    4.4207  -15.6395 C   0  0  0  0  0  0  0  0  0  0  0  0
   -8.9824    4.7729  -16.5525 C   0  0  0  0  0  0  0  0  0  0  0  0
   -9.6730    3.7826  -17.4437 C   0  0  0  0  0  0  0  0  0  0  0  0
   -8.8111    4.8148  -18.0690 C   0  0  0  0  0  0  0  0  0  0  0  0
   -6.6620    6.6147  -15.6850 C   0  0  0  0  0  0  0  0  0  0  0  0
   -5.8956    7.2379  -16.5520 N   0  0  0  0  0  0  0  0  0  0  0  0
  1  2  1  0
  2  3  1  0
  3  4  1  1
  3  5  1  0
  5  6  2  0
  5  7  1  0
  7  8  1  0
  8  9  2  0
  9 10  1  0
 10 11  1  0
 11 12  1  0
 12 13  1  0
 13 14  1  0
 10 15  1  0
 15 16  2  0
 16  8  1  0
 14 12  1  0
M  END
>  <energy_score>  (3021) 
-24.288136

>  <alias>  (3021) 
None

>  <HIPPO Pose ID>  (3021) 
76222

>  <smiles>  (3021) 
CC[C@@H](O)C(=O)Nc1cn(CC2CC2)cn1

>  <inchikey>  (3021) 
OZVOLRONSVIREL-SECBINFHSA-N

>  <distance_score>  (3021) 
1.850652

>  <ref_mols>  (3021) 
Z0719a,Z1597a

>  <ref_pdb>  (3021) 
Z0719a

>  <HIPPO Compound ID>  (3021) 
151473

>  <name>  (3021) 
P76222

>  <inspiration_score>  (3021) 
None

$$$$
P76224
     RDKit          3D

 16 16  0  0  0  0  0  0  0  0999 V2000
   -3.7790    7.9515  -19.5907 C   0  0  0  0  0  0  0  0  0  0  0  0
   -4.2415    6.6777  -20.2897 C   0  0  0  0  0  0  0  0  0  0  0  0
   -3.8669    5.4025  -19.5274 C   0  0  1  0  0  0  0  0  0  0  0  0
   -2.4406    5.2988  -19.4729 O   0  0  0  0  0  0  0  0  0  0  0  0
   -4.5134    5.3125  -18.1255 C   0  0  0  0  0  0  0  0  0  0  0  0
   -3.8740    5.3663  -17.1438 O   0  0  0  0  0  0  0  0  0  0  0  0
   -6.0526    5.1389  -18.3223 N   0  0  0  0  0  0  0  0  0  0  0  0
   -7.0508    4.9130  -17.4029 C   0  0  0  0  0  0  0  0  0  0  0  0
   -8.3353    4.5089  -17.7021 C   0  0  0  0  0  0  0  0  0  0  0  0
   -8.9423    4.1932  -18.9926 C   0  0  0  0  0  0  0  0  0  0  0  0
   -9.0838    4.3382  -16.5800 N   0  0  0  0  0  0  0  0  0  0  0  0
   -8.2999    4.6505  -15.5768 C   0  0  0  0  0  0  0  0  0  0  0  0
   -8.7399    4.6191  -14.1653 C   0  0  0  0  0  0  0  0  0  0  0  0
   -7.0443    5.0072  -16.0252 N   0  0  0  0  0  0  0  0  0  0  0  0
   -5.9222    5.4132  -15.2271 C   0  0  0  0  0  0  0  0  0  0  0  0
   -6.1183    5.8546  -13.7882 C   0  0  0  0  0  0  0  0  0  0  0  0
  1  2  1  0
  2  3  1  0
  3  4  1  1
  3  5  1  0
  5  6  2  0
  5  7  1  0
  7  8  1  0
  8  9  2  0
  9 10  1  0
  9 11  1  0
 11 12  2  0
 12 13  1  0
 12 14  1  0
 14 15  1  0
 15 16  1  0
 14  8  1  0
M  END
>  <energy_score>  (3022) 
-3.420378

>  <alias>  (3022) 
None

>  <HIPPO Pose ID>  (3022) 
76224

>  <smiles>  (3022) 
CC[C@@H](O)C(=O)Nc1c(C)nc(C)n1CC

>  <inchikey>  (3022) 
BPIGXIOWGFLYTJ-SECBINFHSA-N

>  <distance_score>  (3022) 
1.379962

>  <ref_mols>  (3022) 
Z0719a,Z1597a

>  <ref_pdb>  (3022) 
Z0719a

>  <HIPPO Compound ID>  (3022) 
151476

>  <name>  (3022) 
P76224

>  <inspiration_score>  (3022) 
None

$$$$
P76225
     RDKit          3D

 16 16  0  0  0  0  0  0  0  0999 V2000
   -5.3880    4.8932  -13.1567 C   0  0  0  0  0  0  0  0  0  0  0  0
   -5.9262    3.6022  -13.7807 C   0  0  0  0  0  0  0  0  0  0  0  0
   -6.2009    2.5839  -12.6864 C   0  0  0  0  0  0  0  0  0  0  0  0
   -7.2274    3.8721  -14.5938 C   0  0  0  0  0  0  0  0  0  0  0  0
   -7.0647    4.4083  -15.9318 N   0  0  0  0  0  0  0  0  0  0  0  0
   -8.0638    4.7386  -16.8046 C   0  0  0  0  0  0  0  0  0  0  0  0
   -7.5726    5.2748  -17.9076 N   0  0  0  0  0  0  0  0  0  0  0  0
   -6.2249    5.2391  -17.7562 C   0  0  0  0  0  0  0  0  0  0  0  0
   -5.3339    5.6940  -18.6676 N   0  0  0  0  0  0  0  0  0  0  0  0
   -3.7848    5.8347  -18.5843 C   0  0  0  0  0  0  0  0  0  0  0  0
   -3.0364    5.5066  -17.7437 O   0  0  0  0  0  0  0  0  0  0  0  0
   -3.2414    6.5034  -19.8696 C   0  0  1  0  0  0  0  0  0  0  0  0
   -3.2803    5.6850  -21.0221 O   0  0  0  0  0  0  0  0  0  0  0  0
   -3.7731    7.8942  -20.1427 C   0  0  0  0  0  0  0  0  0  0  0  0
   -5.4245    7.9134  -21.1537 Br  0  0  0  0  0  0  0  0  0  0  0  0
   -5.8895    4.7095  -16.5462 C   0  0  0  0  0  0  0  0  0  0  0  0
  1  2  1  0
  2  3  1  0
  2  4  1  0
  4  5  1  0
  5  6  1  0
  6  7  2  0
  7  8  1  0
  8  9  1  0
  9 10  1  0
 10 11  2  0
 10 12  1  0
 12 13  1  6
 12 14  1  0
 14 15  1  0
  8 16  2  0
 16  5  1  0
M  END
>  <energy_score>  (3023) 
-26.139767

>  <alias>  (3023) 
None

>  <HIPPO Pose ID>  (3023) 
76225

>  <smiles>  (3023) 
CC(C)Cn1cnc(NC(=O)[C@@H](O)CBr)c1

>  <inchikey>  (3023) 
ZCZWJKNFOKBABQ-QMMMGPOBSA-N

>  <distance_score>  (3023) 
1.68403

>  <ref_mols>  (3023) 
Z0719a,Z1597a

>  <ref_pdb>  (3023) 
Z0719a

>  <HIPPO Compound ID>  (3023) 
151478

>  <name>  (3023) 
P76225

>  <inspiration_score>  (3023) 
None

$$$$
P76227
     RDKit          3D

 16 16  0  0  0  0  0  0  0  0999 V2000
   -8.2930    4.2342  -13.4388 C   0  0  0  0  0  0  0  0  0  0  0  0
   -7.8474    4.3677  -14.8043 N   0  0  0  0  0  0  0  0  0  0  0  0
   -8.5574    4.8932  -15.8294 C   0  0  0  0  0  0  0  0  0  0  0  0
   -7.7902    5.1000  -16.8671 N   0  0  0  0  0  0  0  0  0  0  0  0
   -6.5435    4.6073  -16.5260 C   0  0  0  0  0  0  0  0  0  0  0  0
   -5.6999    4.7153  -17.5879 N   0  0  0  0  0  0  0  0  0  0  0  0
   -4.1539    4.6385  -17.6575 C   0  0  0  0  0  0  0  0  0  0  0  0
   -3.3688    4.3939  -16.8263 O   0  0  0  0  0  0  0  0  0  0  0  0
   -3.7181    4.9603  -19.1118 C   0  0  2  0  0  0  0  0  0  0  0  0
   -2.3241    4.6124  -19.2503 O   0  0  0  0  0  0  0  0  0  0  0  0
   -3.9253    6.4379  -19.4281 C   0  0  0  0  0  0  0  0  0  0  0  0
   -3.1625    6.9564  -21.1495 Br  0  0  0  0  0  0  0  0  0  0  0  0
   -6.5655    4.1150  -15.2383 C   0  0  0  0  0  0  0  0  0  0  0  0
   -5.5885    3.3109  -14.3174 C   0  0  0  0  0  0  0  0  0  0  0  0
   -6.1079    2.3116  -13.7204 O   0  0  0  0  0  0  0  0  0  0  0  0
   -4.4084    3.7300  -14.1597 O   0  0  0  0  0  0  0  0  0  0  0  0
  1  2  1  0
  2  3  1  0
  3  4  2  0
  4  5  1  0
  5  6  1  0
  6  7  1  0
  7  8  2  0
  7  9  1  0
  9 10  1  1
  9 11  1  0
 11 12  1  0
  5 13  2  0
 13 14  1  0
 14 15  2  0
 14 16  1  0
 13  2  1  0
M  CHG  1  16  -1
M  END
>  <energy_score>  (3024) 
-12.972472

>  <alias>  (3024) 
None

>  <HIPPO Pose ID>  (3024) 
76227

>  <smiles>  (3024) 
Cn1cnc(NC(=O)[C@H](O)CBr)c1C(=O)[O-]

>  <inchikey>  (3024) 
IWPOQPYEKXFNPU-SCSAIBSYSA-M

>  <distance_score>  (3024) 
1.732857

>  <ref_mols>  (3024) 
Z0719a,Z1597a

>  <ref_pdb>  (3024) 
Z0719a

>  <HIPPO Compound ID>  (3024) 
151483

>  <name>  (3024) 
P76227

>  <inspiration_score>  (3024) 
None

$$$$
P76229
     RDKit          3D

 16 16  0  0  0  0  0  0  0  0999 V2000
   -7.5195    4.0523  -12.9013 C   0  0  0  0  0  0  0  0  0  0  0  0
   -6.4706    3.9165  -13.9906 C   0  0  0  0  0  0  0  0  0  0  0  0
   -6.2888    5.1017  -14.9444 C   0  0  0  0  0  0  0  0  0  0  0  0
   -7.2692    5.2059  -15.9912 N   0  0  0  0  0  0  0  0  0  0  0  0
   -8.6144    5.3599  -15.7517 C   0  0  0  0  0  0  0  0  0  0  0  0
   -9.1665    6.1267  -14.6103 C   0  0  0  0  0  0  0  0  0  0  0  0
   -9.3024    4.8004  -16.7185 N   0  0  0  0  0  0  0  0  0  0  0  0
   -8.3965    4.5804  -17.7173 C   0  0  0  0  0  0  0  0  0  0  0  0
   -8.8799    4.1005  -19.0089 C   0  0  0  0  0  0  0  0  0  0  0  0
   -7.1292    4.9711  -17.3356 C   0  0  0  0  0  0  0  0  0  0  0  0
   -6.0322    5.1022  -18.1444 N   0  0  0  0  0  0  0  0  0  0  0  0
   -4.6271    5.6985  -17.8506 C   0  0  0  0  0  0  0  0  0  0  0  0
   -4.2171    6.2381  -16.8976 O   0  0  0  0  0  0  0  0  0  0  0  0
   -3.7888    5.5211  -19.1037 C   0  0  0  0  0  0  0  0  0  0  0  0
   -4.0374    6.6687  -20.0662 C   0  0  0  0  0  0  0  0  0  0  0  0
   -2.7713    6.6864  -21.3232 Cl  0  0  0  0  0  0  0  0  0  0  0  0
  1  2  1  0
  2  3  1  0
  3  4  1  0
  4  5  1  0
  5  6  1  0
  5  7  2  0
  7  8  1  0
  8  9  1  0
  8 10  2  0
 10 11  1  0
 11 12  1  0
 12 13  2  0
 12 14  1  0
 14 15  1  0
 15 16  1  0
 10  4  1  0
M  END
>  <energy_score>  (3025) 
-11.553246

>  <alias>  (3025) 
None

>  <HIPPO Pose ID>  (3025) 
76229

>  <smiles>  (3025) 
CCCn1c(C)nc(C)c1NC(=O)CCCl

>  <inchikey>  (3025) 
BAFSCXWFZXFMJY-UHFFFAOYSA-N

>  <distance_score>  (3025) 
1.313253

>  <ref_mols>  (3025) 
Z0719a,Z1597a

>  <ref_pdb>  (3025) 
Z0719a

>  <HIPPO Compound ID>  (3025) 
151487

>  <name>  (3025) 
P76229

>  <inspiration_score>  (3025) 
None

$$$$
P76230
     RDKit          3D

 16 18  0  0  0  0  0  0  0  0999 V2000
   -3.5000    7.5368  -19.0985 O   0  0  0  0  0  0  0  0  0  0  0  0
   -4.1536    7.0343  -19.9311 C   0  0  0  0  0  0  0  0  0  0  0  0
   -5.3267    6.0281  -19.8165 N   0  0  0  0  0  0  0  0  0  0  0  0
   -5.9600    5.5365  -18.7261 C   0  0  0  0  0  0  0  0  0  0  0  0
   -7.0984    4.7702  -18.7396 C   0  0  0  0  0  0  0  0  0  0  0  0
   -7.4818    4.7150  -17.4322 N   0  0  0  0  0  0  0  0  0  0  0  0
   -8.6651    4.2834  -16.8686 C   0  0  0  0  0  0  0  0  0  0  0  0
   -8.8004    4.3780  -15.5434 C   0  0  0  0  0  0  0  0  0  0  0  0
   -7.6141    4.8601  -14.7986 C   0  0  0  0  0  0  0  0  0  0  0  0
   -6.5108    5.2991  -15.3107 N   0  0  0  0  0  0  0  0  0  0  0  0
   -6.4571    5.2841  -16.6740 C   0  0  0  0  0  0  0  0  0  0  0  0
   -5.5551    5.8260  -17.4631 N   0  0  0  0  0  0  0  0  0  0  0  0
   -3.9348    7.3910  -21.4235 C   0  0  0  0  0  0  0  0  0  0  0  0
   -5.1902    7.7827  -22.2498 C   0  0  0  0  0  0  0  0  0  0  0  0
   -4.1676    8.8802  -23.2829 S   0  0  0  0  0  0  0  0  0  0  0  0
   -3.2821    8.7858  -21.6912 C   0  0  0  0  0  0  0  0  0  0  0  0
  1  2  2  0
  2  3  1  0
  3  4  1  0
  4  5  2  0
  5  6  1  0
  6  7  1  0
  7  8  2  0
  8  9  1  0
  9 10  2  0
 10 11  1  0
 11 12  2  0
  2 13  1  0
 13 14  1  0
 14 15  1  0
 15 16  1  0
 12  4  1  0
 16 13  1  0
 11  6  1  0
M  END
>  <energy_score>  (3026) 
-31.884064

>  <alias>  (3026) 
None

>  <HIPPO Pose ID>  (3026) 
76230

>  <smiles>  (3026) 
O=C(Nc1cn2cccnc2n1)C1CSC1

>  <inchikey>  (3026) 
JCZNRLHZXIIOAJ-UHFFFAOYSA-N

>  <distance_score>  (3026) 
1.764049

>  <ref_mols>  (3026) 
Z0719a,Z1597a

>  <ref_pdb>  (3026) 
Z0719a

>  <HIPPO Compound ID>  (3026) 
151492

>  <name>  (3026) 
P76230

>  <inspiration_score>  (3026) 
None

$$$$
P76231
     RDKit          3D

 16 17  0  0  0  0  0  0  0  0999 V2000
   -5.2876    2.5418  -12.7858 C   0  0  0  0  0  0  0  0  0  0  0  0
   -6.7732    2.4467  -12.4578 C   0  0  0  0  0  0  0  0  0  0  0  0
   -7.2994    3.6668  -11.8590 N   0  0  0  0  0  0  0  0  0  0  0  0
   -7.5627    3.8972  -10.5223 C   0  0  0  0  0  0  0  0  0  0  0  0
   -7.5282    2.8747   -9.4535 C   0  0  0  0  0  0  0  0  0  0  0  0
   -7.8570    5.1649  -10.3151 N   0  0  0  0  0  0  0  0  0  0  0  0
   -7.8962    5.7540  -11.5515 C   0  0  0  0  0  0  0  0  0  0  0  0
   -8.2993    7.1722  -11.6576 C   0  0  0  0  0  0  0  0  0  0  0  0
   -7.5696    4.8380  -12.5339 C   0  0  0  0  0  0  0  0  0  0  0  0
   -7.5047    4.9585  -13.8931 N   0  0  0  0  0  0  0  0  0  0  0  0
   -7.4469    6.2180  -14.7881 C   0  0  0  0  0  0  0  0  0  0  0  0
   -7.5234    7.3526  -14.5077 O   0  0  0  0  0  0  0  0  0  0  0  0
   -7.3048    5.8244  -16.2679 C   0  0  0  0  0  0  0  0  0  0  0  0
   -6.0409    5.0620  -16.7299 C   0  0  0  0  0  0  0  0  0  0  0  0
   -6.9794    4.5020  -18.1874 S   0  0  0  0  0  0  0  0  0  0  0  0
   -8.2440    4.7429  -16.8881 C   0  0  0  0  0  0  0  0  0  0  0  0
  1  2  1  0
  2  3  1  0
  3  4  1  0
  4  5  1  0
  4  6  2  0
  6  7  1  0
  7  8  1  0
  7  9  2  0
  9 10  1  0
 10 11  1  0
 11 12  2  0
 11 13  1  0
 13 14  1  0
 14 15  1  0
 15 16  1  0
  9  3  1  0
 16 13  1  0
M  END
>  <energy_score>  (3027) 
-16.263733

>  <alias>  (3027) 
None

>  <HIPPO Pose ID>  (3027) 
76231

>  <smiles>  (3027) 
CCn1c(C)nc(C)c1NC(=O)C1CSC1

>  <inchikey>  (3027) 
YVFBFTOJKDUXKU-UHFFFAOYSA-N

>  <distance_score>  (3027) 
1.415413

>  <ref_mols>  (3027) 
Z0719a,Z1597a

>  <ref_pdb>  (3027) 
Z0719a

>  <HIPPO Compound ID>  (3027) 
151495

>  <name>  (3027) 
P76231

>  <inspiration_score>  (3027) 
None

$$$$
P76232
     RDKit          3D

 16 18  0  0  0  0  0  0  0  0999 V2000
   -3.3966    9.7424  -21.7370 C   0  0  0  0  0  0  0  0  0  0  0  0
   -3.6645    8.4558  -21.7657 C   0  0  0  0  0  0  0  0  0  0  0  0
   -4.3721    7.4284  -22.4118 C   0  0  0  0  0  0  0  0  0  0  0  0
   -3.4251    7.1898  -21.1760 C   0  0  2  0  0  0  0  0  0  0  0  0
   -3.9671    6.9942  -19.8044 C   0  0  0  0  0  0  0  0  0  0  0  0
   -3.4430    7.5361  -18.9158 O   0  0  0  0  0  0  0  0  0  0  0  0
   -5.1907    6.0624  -19.8225 N   0  0  0  0  0  0  0  0  0  0  0  0
   -5.9255    5.5561  -18.8051 C   0  0  0  0  0  0  0  0  0  0  0  0
   -6.9969    4.7090  -18.9393 C   0  0  0  0  0  0  0  0  0  0  0  0
   -7.5378    4.6301  -17.6941 N   0  0  0  0  0  0  0  0  0  0  0  0
   -8.7239    4.0534  -17.3808 N   0  0  0  0  0  0  0  0  0  0  0  0
   -8.9921    4.1697  -16.1232 C   0  0  0  0  0  0  0  0  0  0  0  0
   -8.1312    4.7629  -15.0775 C   0  0  0  0  0  0  0  0  0  0  0  0
   -6.9861    5.3226  -15.4743 C   0  0  0  0  0  0  0  0  0  0  0  0
   -6.6759    5.3127  -16.8473 C   0  0  0  0  0  0  0  0  0  0  0  0
   -5.6986    5.8920  -17.5063 N   0  0  0  0  0  0  0  0  0  0  0  0
  1  2  2  0
  2  3  1  0
  3  4  1  0
  4  5  1  1
  5  6  2  0
  5  7  1  0
  7  8  1  0
  8  9  2  0
  9 10  1  0
 10 11  1  0
 11 12  2  0
 12 13  1  0
 13 14  2  0
 14 15  1  0
 15 16  2  0
  4  2  1  0
 16  8  1  0
 15 10  1  0
M  END
>  <energy_score>  (3028) 
-41.736913

>  <alias>  (3028) 
None

>  <HIPPO Pose ID>  (3028) 
76232

>  <smiles>  (3028) 
C=C1C[C@@H]1C(=O)Nc1cn2ncccc2n1

>  <inchikey>  (3028) 
RAEXGEPLAXDJTP-QMMMGPOBSA-N

>  <distance_score>  (3028) 
1.819949

>  <ref_mols>  (3028) 
Z0719a,Z1597a

>  <ref_pdb>  (3028) 
Z0719a

>  <HIPPO Compound ID>  (3028) 
151500

>  <name>  (3028) 
P76232

>  <inspiration_score>  (3028) 
None

$$$$
P76234
     RDKit          3D

 16 17  0  0  0  0  0  0  0  0999 V2000
   -7.3870    3.0063   -9.1823 C   0  0  0  0  0  0  0  0  0  0  0  0
   -7.4645    4.0514  -10.2262 C   0  0  0  0  0  0  0  0  0  0  0  0
   -8.0008    5.2418  -10.0341 N   0  0  0  0  0  0  0  0  0  0  0  0
   -8.0141    5.8216  -11.2638 C   0  0  0  0  0  0  0  0  0  0  0  0
   -8.5612    7.1245  -11.4770 C   0  0  0  0  0  0  0  0  0  0  0  0
   -8.9761    8.1768  -11.7473 N   0  0  0  0  0  0  0  0  0  0  0  0
   -7.4141    5.0253  -12.2203 C   0  0  0  0  0  0  0  0  0  0  0  0
   -7.3316    5.2990  -13.5602 N   0  0  0  0  0  0  0  0  0  0  0  0
   -6.5322    4.5962  -14.6819 C   0  0  0  0  0  0  0  0  0  0  0  0
   -5.7587    3.7216  -14.6269 O   0  0  0  0  0  0  0  0  0  0  0  0
   -7.0240    5.2326  -16.0178 C   0  0  0  0  0  0  0  0  0  0  0  0
   -6.2015    4.9217  -17.2892 C   0  0  0  0  0  0  0  0  0  0  0  0
   -7.7188    4.8718  -18.2712 S   0  0  0  0  0  0  0  0  0  0  0  0
   -8.3142    4.5766  -16.5931 C   0  0  0  0  0  0  0  0  0  0  0  0
   -6.9927    3.9094  -11.5258 N   0  0  0  0  0  0  0  0  0  0  0  0
   -6.2799    2.7549  -12.0455 C   0  0  0  0  0  0  0  0  0  0  0  0
  1  2  1  0
  2  3  2  0
  3  4  1  0
  4  5  1  0
  5  6  3  0
  4  7  2  0
  7  8  1  0
  8  9  1  0
  9 10  2  0
  9 11  1  0
 11 12  1  0
 12 13  1  0
 13 14  1  0
  7 15  1  0
 15 16  1  0
 15  2  1  0
 14 11  1  0
M  END
>  <energy_score>  (3029) 
-21.655525

>  <alias>  (3029) 
None

>  <HIPPO Pose ID>  (3029) 
76234

>  <smiles>  (3029) 
Cc1nc(C#N)c(NC(=O)C2CSC2)n1C

>  <inchikey>  (3029) 
FTJYLXFDFHEJKM-UHFFFAOYSA-N

>  <distance_score>  (3029) 
1.400799

>  <ref_mols>  (3029) 
Z0719a,Z1597a

>  <ref_pdb>  (3029) 
Z0719a

>  <HIPPO Compound ID>  (3029) 
151502

>  <name>  (3029) 
P76234

>  <inspiration_score>  (3029) 
None

$$$$
P76235
     RDKit          3D

 16 17  0  0  0  0  0  0  0  0999 V2000
   -7.9636    5.7438   -9.2368 C   0  0  0  0  0  0  0  0  0  0  0  0
   -8.0896    4.9006  -10.4443 C   0  0  0  0  0  0  0  0  0  0  0  0
   -8.4195    3.6324  -10.4389 N   0  0  0  0  0  0  0  0  0  0  0  0
   -8.4836    3.2639  -11.7517 C   0  0  0  0  0  0  0  0  0  0  0  0
   -8.1948    4.3116  -12.5982 C   0  0  0  0  0  0  0  0  0  0  0  0
   -8.1418    4.3406  -13.9750 N   0  0  0  0  0  0  0  0  0  0  0  0
   -8.0336    5.5375  -14.9527 C   0  0  0  0  0  0  0  0  0  0  0  0
   -8.0504    6.6879  -14.7464 O   0  0  0  0  0  0  0  0  0  0  0  0
   -7.7687    5.0885  -16.3697 C   0  0  0  0  0  0  0  0  0  0  0  0
   -9.3783    4.2264  -17.3984 I   0  0  0  0  0  0  0  0  0  0  0  0
   -6.3955    4.6293  -16.8063 C   0  0  0  0  0  0  0  0  0  0  0  0
   -6.8741    5.9752  -17.2311 C   0  0  0  0  0  0  0  0  0  0  0  0
   -7.8324    5.3287  -11.7332 N   0  0  0  0  0  0  0  0  0  0  0  0
   -6.9893    6.4655  -12.0630 C   0  0  0  0  0  0  0  0  0  0  0  0
   -5.8414    6.0215  -12.8842 C   0  0  0  0  0  0  0  0  0  0  0  0
   -5.0092    5.5800  -13.5683 N   0  0  0  0  0  0  0  0  0  0  0  0
  1  2  1  0
  2  3  2  0
  3  4  1  0
  4  5  2  0
  5  6  1  0
  6  7  1  0
  7  8  2  0
  7  9  1  0
  9 10  1  0
  9 11  1  0
 11 12  1  0
  5 13  1  0
 13 14  1  0
 14 15  1  0
 15 16  3  0
 13  2  1  0
 12  9  1  0
M  END
>  <energy_score>  (3030) 
-16.190323

>  <alias>  (3030) 
None

>  <HIPPO Pose ID>  (3030) 
76235

>  <smiles>  (3030) 
Cc1ncc(NC(=O)C2(I)CC2)n1CC#N

>  <inchikey>  (3030) 
ALLYHNRIVPVJCE-UHFFFAOYSA-N

>  <distance_score>  (3030) 
1.455895

>  <ref_mols>  (3030) 
Z0719a,Z1597a

>  <ref_pdb>  (3030) 
Z0719a

>  <HIPPO Compound ID>  (3030) 
151504

>  <name>  (3030) 
P76235

>  <inspiration_score>  (3030) 
None

$$$$
P76236
     RDKit          3D

 16 17  0  0  0  0  0  0  0  0999 V2000
   -6.2671    2.2782  -10.2887 C   0  0  0  0  0  0  0  0  0  0  0  0
   -7.1008    3.1862  -11.1045 C   0  0  0  0  0  0  0  0  0  0  0  0
   -7.2478    3.0400  -12.3956 N   0  0  0  0  0  0  0  0  0  0  0  0
   -7.6494    4.2568  -12.8462 C   0  0  0  0  0  0  0  0  0  0  0  0
   -7.3707    4.4259  -14.1503 N   0  0  0  0  0  0  0  0  0  0  0  0
   -7.3008    5.6993  -14.9956 C   0  0  0  0  0  0  0  0  0  0  0  0
   -7.5480    6.8019  -14.7208 O   0  0  0  0  0  0  0  0  0  0  0  0
   -6.7258    5.3046  -16.3078 C   0  0  0  0  0  0  0  0  0  0  0  0
   -4.7338    4.5494  -16.0368 I   0  0  0  0  0  0  0  0  0  0  0  0
   -6.9139    6.0100  -17.6128 C   0  0  0  0  0  0  0  0  0  0  0  0
   -7.6190    4.7066  -17.3616 C   0  0  0  0  0  0  0  0  0  0  0  0
   -7.9944    5.0959  -11.8168 C   0  0  0  0  0  0  0  0  0  0  0  0
   -8.4097    6.4524  -11.8282 C   0  0  0  0  0  0  0  0  0  0  0  0
   -8.7490    7.5598  -11.7552 N   0  0  0  0  0  0  0  0  0  0  0  0
   -7.7136    4.3486  -10.6862 N   0  0  0  0  0  0  0  0  0  0  0  0
   -7.8712    4.7962   -9.3259 C   0  0  0  0  0  0  0  0  0  0  0  0
  1  2  1  0
  2  3  2  0
  3  4  1  0
  4  5  1  0
  5  6  1  0
  6  7  2  0
  6  8  1  0
  8  9  1  0
  8 10  1  0
 10 11  1  0
  4 12  2  0
 12 13  1  0
 13 14  3  0
 12 15  1  0
 15 16  1  0
 15  2  1  0
 11  8  1  0
M  END
>  <energy_score>  (3031) 
-14.773784

>  <alias>  (3031) 
None

>  <HIPPO Pose ID>  (3031) 
76236

>  <smiles>  (3031) 
Cc1nc(NC(=O)C2(I)CC2)c(C#N)n1C

>  <inchikey>  (3031) 
DQAMKZUFXFWADY-UHFFFAOYSA-N

>  <distance_score>  (3031) 
1.865872

>  <ref_mols>  (3031) 
Z0719a,Z1597a

>  <ref_pdb>  (3031) 
Z0719a

>  <HIPPO Compound ID>  (3031) 
151505

>  <name>  (3031) 
P76236

>  <inspiration_score>  (3031) 
None

$$$$
P76237
     RDKit          3D

 16 17  0  0  0  0  0  0  0  0999 V2000
   -7.6470    3.1263   -9.4308 C   0  0  0  0  0  0  0  0  0  0  0  0
   -7.7284    4.0294  -10.6032 C   0  0  0  0  0  0  0  0  0  0  0  0
   -8.0501    5.3051  -10.5364 N   0  0  0  0  0  0  0  0  0  0  0  0
   -8.0877    5.7529  -11.8356 C   0  0  0  0  0  0  0  0  0  0  0  0
   -8.4575    7.1126  -12.0884 C   0  0  0  0  0  0  0  0  0  0  0  0
   -8.7623    8.2232  -12.2530 N   0  0  0  0  0  0  0  0  0  0  0  0
   -7.7571    4.7416  -12.7215 C   0  0  0  0  0  0  0  0  0  0  0  0
   -7.6636    4.6756  -14.0896 N   0  0  0  0  0  0  0  0  0  0  0  0
   -7.7566    5.7803  -15.1485 C   0  0  0  0  0  0  0  0  0  0  0  0
   -7.8505    6.9320  -15.0292 O   0  0  0  0  0  0  0  0  0  0  0  0
   -7.5982    5.2172  -16.5330 C   0  0  0  0  0  0  0  0  0  0  0  0
   -9.2965    4.3127  -17.4149 I   0  0  0  0  0  0  0  0  0  0  0  0
   -6.7038    5.9663  -17.5048 C   0  0  0  0  0  0  0  0  0  0  0  0
   -6.2781    4.6376  -16.9668 C   0  0  0  0  0  0  0  0  0  0  0  0
   -7.4598    3.6671  -11.9069 N   0  0  0  0  0  0  0  0  0  0  0  0
   -6.8438    2.4412  -12.3638 C   0  0  0  0  0  0  0  0  0  0  0  0
  1  2  1  0
  2  3  2  0
  3  4  1  0
  4  5  1  0
  5  6  3  0
  4  7  2  0
  7  8  1  0
  8  9  1  0
  9 10  2  0
  9 11  1  0
 11 12  1  0
 11 13  1  0
 13 14  1  0
  7 15  1  0
 15 16  1  0
 15  2  1  0
 14 11  1  0
M  END
>  <energy_score>  (3032) 
-12.217398

>  <alias>  (3032) 
None

>  <HIPPO Pose ID>  (3032) 
76237

>  <smiles>  (3032) 
Cc1nc(C#N)c(NC(=O)C2(I)CC2)n1C

>  <inchikey>  (3032) 
DWTDHTPMHFXRQT-UHFFFAOYSA-N

>  <distance_score>  (3032) 
1.669357

>  <ref_mols>  (3032) 
Z0719a,Z1597a

>  <ref_pdb>  (3032) 
Z0719a

>  <HIPPO Compound ID>  (3032) 
151506

>  <name>  (3032) 
P76237

>  <inspiration_score>  (3032) 
None

$$$$
P76239
     RDKit          3D

 16 16  0  0  0  0  0  0  0  0999 V2000
   -3.6943    7.5689  -18.9093 C   0  0  0  0  0  0  0  0  0  0  0  0
   -4.3147    6.4049  -19.6730 C   0  0  0  0  0  0  0  0  0  0  0  0
   -3.9038    5.0195  -19.1463 C   0  0  1  0  0  0  0  0  0  0  0  0
   -2.1647    4.7284  -19.5159 Cl  0  0  0  0  0  0  0  0  0  0  0  0
   -4.2021    4.7643  -17.6453 C   0  0  0  0  0  0  0  0  0  0  0  0
   -3.3850    4.6590  -16.8153 O   0  0  0  0  0  0  0  0  0  0  0  0
   -5.7572    4.7010  -17.5459 N   0  0  0  0  0  0  0  0  0  0  0  0
   -6.5689    4.5973  -16.4605 C   0  0  0  0  0  0  0  0  0  0  0  0
   -7.8265    5.0768  -16.7826 N   0  0  0  0  0  0  0  0  0  0  0  0
   -8.5672    4.8904  -15.7233 C   0  0  0  0  0  0  0  0  0  0  0  0
   -7.8365    4.3696  -14.7109 N   0  0  0  0  0  0  0  0  0  0  0  0
   -8.2602    4.2289  -13.3391 C   0  0  0  0  0  0  0  0  0  0  0  0
   -6.5665    4.1051  -15.1727 C   0  0  0  0  0  0  0  0  0  0  0  0
   -5.5917    3.2556  -14.2913 C   0  0  0  0  0  0  0  0  0  0  0  0
   -6.1346    2.2772  -13.6788 O   0  0  0  0  0  0  0  0  0  0  0  0
   -4.3835    3.6039  -14.1885 O   0  0  0  0  0  0  0  0  0  0  0  0
  1  2  1  0
  2  3  1  0
  3  4  1  1
  3  5  1  0
  5  6  2  0
  5  7  1  0
  7  8  1  0
  8  9  1  0
  9 10  2  0
 10 11  1  0
 11 12  1  0
 11 13  1  0
 13 14  1  0
 14 15  2  0
 14 16  1  0
 13  8  2  0
M  CHG  1  16  -1
M  END
>  <energy_score>  (3033) 
-17.972154

>  <alias>  (3033) 
None

>  <HIPPO Pose ID>  (3033) 
76239

>  <smiles>  (3033) 
CC[C@@H](Cl)C(=O)Nc1ncn(C)c1C(=O)[O-]

>  <inchikey>  (3033) 
PNKJZNWHUSZANY-RXMQYKEDSA-M

>  <distance_score>  (3033) 
1.709814

>  <ref_mols>  (3033) 
Z0719a,Z1597a

>  <ref_pdb>  (3033) 
Z0719a

>  <HIPPO Compound ID>  (3033) 
151512

>  <name>  (3033) 
P76239

>  <inspiration_score>  (3033) 
None

$$$$
P76242
     RDKit          3D

 16 17  0  0  0  0  0  0  0  0999 V2000
   -3.7038    9.0280  -22.7497 C   0  0  0  0  0  0  0  0  0  0  0  0
   -3.7977    8.5199  -21.3168 C   0  0  0  0  0  0  0  0  0  0  0  0
   -3.5684    7.0258  -21.1909 C   0  0  1  0  0  0  0  0  0  0  0  0
   -1.8971    6.5442  -21.6065 Cl  0  0  0  0  0  0  0  0  0  0  0  0
   -3.8463    6.6011  -19.7480 C   0  0  0  0  0  0  0  0  0  0  0  0
   -3.1787    6.9511  -18.8526 O   0  0  0  0  0  0  0  0  0  0  0  0
   -5.1620    5.7707  -19.7604 N   0  0  0  0  0  0  0  0  0  0  0  0
   -5.9199    5.3164  -18.7420 C   0  0  0  0  0  0  0  0  0  0  0  0
   -7.0888    4.6143  -18.8740 C   0  0  0  0  0  0  0  0  0  0  0  0
   -7.5892    4.5385  -17.6134 N   0  0  0  0  0  0  0  0  0  0  0  0
   -8.8101    4.0611  -17.2819 N   0  0  0  0  0  0  0  0  0  0  0  0
   -9.0312    4.1668  -16.0149 C   0  0  0  0  0  0  0  0  0  0  0  0
   -8.1007    4.6667  -14.9805 C   0  0  0  0  0  0  0  0  0  0  0  0
   -6.9179    5.1253  -15.3951 C   0  0  0  0  0  0  0  0  0  0  0  0
   -6.6409    5.1080  -16.7747 C   0  0  0  0  0  0  0  0  0  0  0  0
   -5.6198    5.5880  -17.4454 N   0  0  0  0  0  0  0  0  0  0  0  0
  1  2  1  0
  2  3  1  0
  3  4  1  1
  3  5  1  0
  5  6  2  0
  5  7  1  0
  7  8  1  0
  8  9  2  0
  9 10  1  0
 10 11  1  0
 11 12  2  0
 12 13  1  0
 13 14  2  0
 14 15  1  0
 15 16  2  0
 16  8  1  0
 15 10  1  0
M  END
>  <energy_score>  (3034) 
-27.113421

>  <alias>  (3034) 
None

>  <HIPPO Pose ID>  (3034) 
76242

>  <smiles>  (3034) 
CC[C@@H](Cl)C(=O)Nc1cn2ncccc2n1

>  <inchikey>  (3034) 
HOZXGCOBNZGDFE-SSDOTTSWSA-N

>  <distance_score>  (3034) 
1.74528

>  <ref_mols>  (3034) 
Z0719a,Z1597a

>  <ref_pdb>  (3034) 
Z0719a

>  <HIPPO Compound ID>  (3034) 
151518

>  <name>  (3034) 
P76242

>  <inspiration_score>  (3034) 
None

$$$$
P76246
     RDKit          3D

 16 16  0  0  0  0  0  0  0  0999 V2000
   -4.1697    7.4770  -18.7490 C   0  0  0  0  0  0  0  0  0  0  0  0
   -4.1090    6.3472  -19.4688 C   0  0  0  0  0  0  0  0  0  0  0  0
   -3.7708    4.9725  -18.9344 C   0  0  1  0  0  0  0  0  0  0  0  0
   -2.0310    4.6924  -19.2023 Cl  0  0  0  0  0  0  0  0  0  0  0  0
   -4.1818    4.6348  -17.4539 C   0  0  0  0  0  0  0  0  0  0  0  0
   -3.4535    4.2872  -16.6080 O   0  0  0  0  0  0  0  0  0  0  0  0
   -5.7342    4.8045  -17.4453 N   0  0  0  0  0  0  0  0  0  0  0  0
   -6.6616    4.5037  -16.4709 C   0  0  0  0  0  0  0  0  0  0  0  0
   -6.7636    4.0003  -15.1704 C   0  0  0  0  0  0  0  0  0  0  0  0
   -5.8322    3.3719  -14.2525 N   0  0  0  0  0  0  0  0  0  0  0  0
   -6.2252    2.3353  -13.6863 O   0  0  0  0  0  0  0  0  0  0  0  0
   -4.7293    3.8988  -14.0730 O   0  0  0  0  0  0  0  0  0  0  0  0
   -8.0806    4.0483  -14.7316 N   0  0  0  0  0  0  0  0  0  0  0  0
   -8.7844    4.4063  -15.7640 C   0  0  0  0  0  0  0  0  0  0  0  0
   -7.9909    4.6598  -16.8284 N   0  0  0  0  0  0  0  0  0  0  0  0
   -8.5148    4.9183  -18.1400 C   0  0  0  0  0  0  0  0  0  0  0  0
  1  2  2  0
  2  3  1  0
  3  4  1  1
  3  5  1  0
  5  6  2  0
  5  7  1  0
  7  8  1  0
  8  9  2  0
  9 10  1  0
 10 11  2  0
 10 12  1  0
  9 13  1  0
 13 14  2  0
 14 15  1  0
 15 16  1  0
 15  8  1  0
M  CHG  2  10   1  12  -1
M  END
>  <energy_score>  (3035) 
-25.371763

>  <alias>  (3035) 
None

>  <HIPPO Pose ID>  (3035) 
76246

>  <smiles>  (3035) 
C=C[C@@H](Cl)C(=O)Nc1c([N+](=O)[O-])ncn1C

>  <inchikey>  (3035) 
RODQJTPKYJYSHI-RXMQYKEDSA-N

>  <distance_score>  (3035) 
1.980749

>  <ref_mols>  (3035) 
Z0719a,Z1597a

>  <ref_pdb>  (3035) 
Z0719a

>  <HIPPO Compound ID>  (3035) 
151531

>  <name>  (3035) 
P76246

>  <inspiration_score>  (3035) 
None

$$$$
P76250
     RDKit          3D

 16 17  0  0  0  0  0  0  0  0999 V2000
   -3.5333    7.1336  -23.5638 C   0  0  0  0  0  0  0  0  0  0  0  0
   -3.6569    7.4035  -22.2557 C   0  0  0  0  0  0  0  0  0  0  0  0
   -4.9601    7.4352  -21.5069 C   0  0  2  0  0  0  0  0  0  0  0  0
   -5.4347    9.1583  -21.3179 Cl  0  0  0  0  0  0  0  0  0  0  0  0
   -4.7911    6.8625  -20.0837 C   0  0  0  0  0  0  0  0  0  0  0  0
   -3.8223    7.0475  -19.4494 O   0  0  0  0  0  0  0  0  0  0  0  0
   -6.1276    6.1542  -19.7040 N   0  0  0  0  0  0  0  0  0  0  0  0
   -6.4812    5.4948  -18.5807 C   0  0  0  0  0  0  0  0  0  0  0  0
   -7.7231    4.9699  -18.3262 C   0  0  0  0  0  0  0  0  0  0  0  0
   -7.6980    4.7048  -16.9892 N   0  0  0  0  0  0  0  0  0  0  0  0
   -8.7392    4.4270  -16.1244 C   0  0  0  0  0  0  0  0  0  0  0  0
   -8.4716    4.3456  -14.8165 C   0  0  0  0  0  0  0  0  0  0  0  0
   -7.0394    4.4479  -14.4461 C   0  0  0  0  0  0  0  0  0  0  0  0
   -6.0524    4.7167  -15.2368 N   0  0  0  0  0  0  0  0  0  0  0  0
   -6.3910    4.9147  -16.5425 C   0  0  0  0  0  0  0  0  0  0  0  0
   -5.6489    5.3965  -17.5140 N   0  0  0  0  0  0  0  0  0  0  0  0
  1  2  2  0
  2  3  1  0
  3  4  1  1
  3  5  1  0
  5  6  2  0
  5  7  1  0
  7  8  1  0
  8  9  2  0
  9 10  1  0
 10 11  1  0
 11 12  2  0
 12 13  1  0
 13 14  2  0
 14 15  1  0
 15 16  2  0
 16  8  1  0
 15 10  1  0
M  END
>  <energy_score>  (3036) 
-21.767871

>  <alias>  (3036) 
None

>  <HIPPO Pose ID>  (3036) 
76250

>  <smiles>  (3036) 
C=C[C@H](Cl)C(=O)Nc1cn2cccnc2n1

>  <inchikey>  (3036) 
QSGKCGACQBSARE-ZETCQYMHSA-N

>  <distance_score>  (3036) 
1.739088

>  <ref_mols>  (3036) 
Z0719a,Z1597a

>  <ref_pdb>  (3036) 
Z0719a

>  <HIPPO Compound ID>  (3036) 
151537

>  <name>  (3036) 
P76250

>  <inspiration_score>  (3036) 
None

$$$$
P76251
     RDKit          3D

 16 17  0  0  0  0  0  0  0  0999 V2000
   -5.1275    2.6131  -12.4746 C   0  0  0  0  0  0  0  0  0  0  0  0
   -6.6501    2.6547  -12.4842 C   0  0  0  0  0  0  0  0  0  0  0  0
   -7.1900    3.9223  -12.0157 N   0  0  0  0  0  0  0  0  0  0  0  0
   -7.5337    4.1968  -10.6976 C   0  0  0  0  0  0  0  0  0  0  0  0
   -7.4098    3.2455   -9.5658 C   0  0  0  0  0  0  0  0  0  0  0  0
   -8.0049    5.4207  -10.5791 N   0  0  0  0  0  0  0  0  0  0  0  0
   -8.1075    5.9039  -11.8527 C   0  0  0  0  0  0  0  0  0  0  0  0
   -8.6454    7.2610  -12.0795 C   0  0  0  0  0  0  0  0  0  0  0  0
   -7.6178    4.9955  -12.7751 C   0  0  0  0  0  0  0  0  0  0  0  0
   -7.6123    5.1266  -14.1418 N   0  0  0  0  0  0  0  0  0  0  0  0
   -6.7745    4.4035  -15.2130 C   0  0  0  0  0  0  0  0  0  0  0  0
   -5.9030    3.6384  -15.1009 O   0  0  0  0  0  0  0  0  0  0  0  0
   -7.1926    4.8324  -16.5923 C   0  0  0  0  0  0  0  0  0  0  0  0
   -9.1615    4.3252  -17.2026 I   0  0  0  0  0  0  0  0  0  0  0  0
   -6.6099    6.0918  -17.1888 C   0  0  0  0  0  0  0  0  0  0  0  0
   -6.1944    4.7568  -17.7240 C   0  0  0  0  0  0  0  0  0  0  0  0
  1  2  1  0
  2  3  1  0
  3  4  1  0
  4  5  1  0
  4  6  2  0
  6  7  1  0
  7  8  1  0
  7  9  2  0
  9 10  1  0
 10 11  1  0
 11 12  2  0
 11 13  1  0
 13 14  1  0
 13 15  1  0
 15 16  1  0
  9  3  1  0
 16 13  1  0
M  END
>  <energy_score>  (3037) 
-23.059968

>  <alias>  (3037) 
None

>  <HIPPO Pose ID>  (3037) 
76251

>  <smiles>  (3037) 
CCn1c(C)nc(C)c1NC(=O)C1(I)CC1

>  <inchikey>  (3037) 
YQQFSFBRGRURBL-UHFFFAOYSA-N

>  <distance_score>  (3037) 
1.951592

>  <ref_mols>  (3037) 
Z0719a,Z1597a

>  <ref_pdb>  (3037) 
Z0719a

>  <HIPPO Compound ID>  (3037) 
151538

>  <name>  (3037) 
P76251

>  <inspiration_score>  (3037) 
None

$$$$
P76252
     RDKit          3D

 16 16  0  0  0  0  0  0  0  0999 V2000
   -7.2247    3.4647  -13.4278 C   0  0  0  0  0  0  0  0  0  0  0  0
   -6.5012    4.7879  -13.6065 C   0  0  0  0  0  0  0  0  0  0  0  0
   -6.1813    5.1622  -15.0602 C   0  0  0  0  0  0  0  0  0  0  0  0
   -7.2548    5.2073  -16.0153 N   0  0  0  0  0  0  0  0  0  0  0  0
   -8.5897    5.3712  -15.7238 C   0  0  0  0  0  0  0  0  0  0  0  0
   -9.1119    6.1143  -14.5522 C   0  0  0  0  0  0  0  0  0  0  0  0
   -9.3205    4.8287  -16.6689 N   0  0  0  0  0  0  0  0  0  0  0  0
   -8.4604    4.6100  -17.7033 C   0  0  0  0  0  0  0  0  0  0  0  0
   -8.9906    4.1255  -18.9740 C   0  0  0  0  0  0  0  0  0  0  0  0
   -7.1755    4.9763  -17.3668 C   0  0  0  0  0  0  0  0  0  0  0  0
   -6.1161    5.0936  -18.2242 N   0  0  0  0  0  0  0  0  0  0  0  0
   -4.6254    5.4767  -17.9489 C   0  0  0  0  0  0  0  0  0  0  0  0
   -4.1015    5.8233  -16.9605 O   0  0  0  0  0  0  0  0  0  0  0  0
   -3.9276    5.3901  -19.3188 C   0  0  1  0  0  0  0  0  0  0  0  0
   -4.2119    6.6229  -20.1672 C   0  0  0  0  0  0  0  0  0  0  0  0
   -2.1648    5.1895  -19.1151 Cl  0  0  0  0  0  0  0  0  0  0  0  0
  1  2  1  0
  2  3  1  0
  3  4  1  0
  4  5  1  0
  5  6  1  0
  5  7  2  0
  7  8  1  0
  8  9  1  0
  8 10  2  0
 10 11  1  0
 11 12  1  0
 12 13  2  0
 12 14  1  0
 14 15  1  6
 14 16  1  0
 10  4  1  0
M  END
>  <energy_score>  (3038) 
-18.706838

>  <alias>  (3038) 
None

>  <HIPPO Pose ID>  (3038) 
76252

>  <smiles>  (3038) 
CCCn1c(C)nc(C)c1NC(=O)[C@@H](C)Cl

>  <inchikey>  (3038) 
CIVDVDMIOPOLKQ-SSDOTTSWSA-N

>  <distance_score>  (3038) 
1.508334

>  <ref_mols>  (3038) 
Z0719a,Z1597a

>  <ref_pdb>  (3038) 
Z0719a

>  <HIPPO Compound ID>  (3038) 
151540

>  <name>  (3038) 
P76252

>  <inspiration_score>  (3038) 
None

$$$$
P76253
     RDKit          3D

 16 17  0  0  0  0  0  0  0  0999 V2000
   -9.0877    4.3388  -18.6914 C   0  0  0  0  0  0  0  0  0  0  0  0
   -8.3274    4.4247  -17.4396 C   0  0  0  0  0  0  0  0  0  0  0  0
   -8.8625    3.9122  -16.2799 N   0  0  0  0  0  0  0  0  0  0  0  0
   -7.9354    4.0919  -15.3596 C   0  0  0  0  0  0  0  0  0  0  0  0
   -7.9220    3.5785  -13.9626 C   0  0  0  0  0  0  0  0  0  0  0  0
   -6.9082    4.8352  -15.8757 N   0  0  0  0  0  0  0  0  0  0  0  0
   -5.9445    5.5331  -15.0203 C   0  0  0  0  0  0  0  0  0  0  0  0
   -5.8601    7.0316  -14.9638 C   0  0  0  0  0  0  0  0  0  0  0  0
   -6.4059    6.2972  -13.7849 C   0  0  0  0  0  0  0  0  0  0  0  0
   -7.0446    4.8979  -17.2338 C   0  0  0  0  0  0  0  0  0  0  0  0
   -6.1281    5.2563  -18.1845 N   0  0  0  0  0  0  0  0  0  0  0  0
   -4.6037    5.5878  -18.0520 C   0  0  0  0  0  0  0  0  0  0  0  0
   -3.9272    5.6783  -17.1002 O   0  0  0  0  0  0  0  0  0  0  0  0
   -4.0755    5.6829  -19.4951 C   0  0  1  0  0  0  0  0  0  0  0  0
   -4.5540    6.9140  -20.2439 C   0  0  0  0  0  0  0  0  0  0  0  0
   -2.2864    5.6308  -19.5297 Cl  0  0  0  0  0  0  0  0  0  0  0  0
  1  2  1  0
  2  3  1  0
  3  4  2  0
  4  5  1  0
  4  6  1  0
  6  7  1  0
  7  8  1  0
  8  9  1  0
  6 10  1  0
 10 11  1  0
 11 12  1  0
 12 13  2  0
 12 14  1  0
 14 15  1  1
 14 16  1  0
 10  2  2  0
  9  7  1  0
M  END
>  <energy_score>  (3039) 
-24.248933

>  <alias>  (3039) 
None

>  <HIPPO Pose ID>  (3039) 
76253

>  <smiles>  (3039) 
Cc1nc(C)n(C2CC2)c1NC(=O)[C@@H](C)Cl

>  <inchikey>  (3039) 
HLCQNNQIXHUTFH-ZCFIWIBFSA-N

>  <distance_score>  (3039) 
1.964348

>  <ref_mols>  (3039) 
Z0719a,Z1597a

>  <ref_pdb>  (3039) 
Z0719a

>  <HIPPO Compound ID>  (3039) 
151543

>  <name>  (3039) 
P76253

>  <inspiration_score>  (3039) 
None

$$$$
P76254
     RDKit          3D

 16 17  0  0  0  0  0  0  0  0999 V2000
   -4.7820    7.7559  -22.1980 C   0  0  0  0  0  0  0  0  0  0  0  0
   -3.5658    7.5978  -21.3172 C   0  0  2  0  0  0  0  0  0  0  0  0
   -2.2566    6.7330  -22.1647 Cl  0  0  0  0  0  0  0  0  0  0  0  0
   -3.7288    6.9804  -19.9208 C   0  0  0  0  0  0  0  0  0  0  0  0
   -2.9503    7.2664  -19.0911 O   0  0  0  0  0  0  0  0  0  0  0  0
   -5.0248    6.1178  -19.8355 N   0  0  0  0  0  0  0  0  0  0  0  0
   -5.5381    5.4051  -18.8086 C   0  0  0  0  0  0  0  0  0  0  0  0
   -6.8246    4.9398  -18.6638 C   0  0  0  0  0  0  0  0  0  0  0  0
   -6.9332    4.6803  -17.3251 N   0  0  0  0  0  0  0  0  0  0  0  0
   -8.0880    4.6328  -16.6092 N   0  0  0  0  0  0  0  0  0  0  0  0
   -7.8526    4.5704  -15.3383 C   0  0  0  0  0  0  0  0  0  0  0  0
   -9.1571    4.8890  -14.2897 Cl  0  0  0  0  0  0  0  0  0  0  0  0
   -6.5404    4.3580  -14.6879 C   0  0  0  0  0  0  0  0  0  0  0  0
   -5.4590    4.4812  -15.4524 C   0  0  0  0  0  0  0  0  0  0  0  0
   -5.6458    4.7600  -16.8135 C   0  0  0  0  0  0  0  0  0  0  0  0
   -4.7892    5.2006  -17.6969 N   0  0  0  0  0  0  0  0  0  0  0  0
  2  1  1  6
  2  3  1  0
  2  4  1  0
  4  5  2  0
  4  6  1  0
  6  7  1  0
  7  8  2  0
  8  9  1  0
  9 10  1  0
 10 11  2  0
 11 12  1  0
 11 13  1  0
 13 14  2  0
 14 15  1  0
 15 16  2  0
 16  7  1  0
 15  9  1  0
M  END
>  <energy_score>  (3040) 
-12.928499

>  <alias>  (3040) 
None

>  <HIPPO Pose ID>  (3040) 
76254

>  <smiles>  (3040) 
C[C@H](Cl)C(=O)Nc1cn2nc(Cl)ccc2n1

>  <inchikey>  (3040) 
RZOBNFRQKDQOLZ-YFKPBYRVSA-N

>  <distance_score>  (3040) 
1.99209

>  <ref_mols>  (3040) 
Z0719a,Z1597a

>  <ref_pdb>  (3040) 
Z0719a

>  <HIPPO Compound ID>  (3040) 
151544

>  <name>  (3040) 
P76254

>  <inspiration_score>  (3040) 
None

$$$$
P76256
     RDKit          3D

 16 17  0  0  0  0  0  0  0  0999 V2000
   -1.6067    1.2158  -10.3443 C   0  0  0  0  0  0  0  0  0  0  0  0
   -1.6287    2.0971  -11.5826 C   0  0  1  0  0  0  0  0  0  0  0  0
   -0.7380    1.2866  -12.9087 Cl  0  0  0  0  0  0  0  0  0  0  0  0
   -3.0626    2.4111  -12.0463 C   0  0  0  0  0  0  0  0  0  0  0  0
   -4.0081    2.0697  -11.4504 O   0  0  0  0  0  0  0  0  0  0  0  0
   -2.9395    3.2952  -13.3230 N   0  0  0  0  0  0  0  0  0  0  0  0
   -3.9000    3.8238  -14.1256 C   0  0  0  0  0  0  0  0  0  0  0  0
   -3.5053    4.7093  -15.1109 N   0  0  0  0  0  0  0  0  0  0  0  0
   -4.6234    5.0196  -15.7049 C   0  0  0  0  0  0  0  0  0  0  0  0
   -5.6992    4.4105  -15.1512 N   0  0  0  0  0  0  0  0  0  0  0  0
   -5.2646    3.5881  -14.1633 C   0  0  0  0  0  0  0  0  0  0  0  0
   -6.0802    2.6411  -13.4969 C   0  0  0  0  0  0  0  0  0  0  0  0
   -6.8009    1.8258  -13.0974 N   0  0  0  0  0  0  0  0  0  0  0  0
   -6.9899    4.6755  -15.7464 C   0  0  0  0  0  0  0  0  0  0  0  0
   -6.7055    5.2014  -17.1571 C   0  0  0  0  0  0  0  0  0  0  0  0
   -5.0271    5.9659  -17.0808 S   0  0  0  0  0  0  0  0  0  0  0  0
  2  1  1  1
  2  3  1  0
  2  4  1  0
  4  5  2  0
  4  6  1  0
  6  7  1  0
  7  8  1  0
  8  9  2  0
  9 10  1  0
 10 11  1  0
 11 12  1  0
 12 13  3  0
 10 14  1  0
 14 15  1  0
 15 16  1  0
 11  7  2  0
 16  9  1  0
M  END
>  <energy_score>  (3041) 
-26.584559

>  <alias>  (3041) 
None

>  <HIPPO Pose ID>  (3041) 
76256

>  <smiles>  (3041) 
C[C@@H](Cl)C(=O)Nc1nc2n(c1C#N)CCS2

>  <inchikey>  (3041) 
ZJXFBVPAMMVNDD-RXMQYKEDSA-N

>  <distance_score>  (3041) 
0.999754

>  <ref_mols>  (3041) 
Z0719a,Z1597a

>  <ref_pdb>  (3041) 
Z0719a

>  <HIPPO Compound ID>  (3041) 
151555

>  <name>  (3041) 
P76256

>  <inspiration_score>  (3041) 
None

$$$$
P76257
     RDKit          3D

 16 16  0  0  0  0  0  0  0  0999 V2000
   -4.0967    6.6831  -19.5990 C   0  0  0  0  0  0  0  0  0  0  0  0
   -3.2850    5.9303  -18.5459 C   0  0  2  0  0  0  0  0  0  0  0  0
   -2.4291    4.5631  -19.2935 Cl  0  0  0  0  0  0  0  0  0  0  0  0
   -4.0189    5.4505  -17.2654 C   0  0  0  0  0  0  0  0  0  0  0  0
   -3.5232    5.5699  -16.2127 O   0  0  0  0  0  0  0  0  0  0  0  0
   -5.4322    4.9460  -17.6598 N   0  0  0  0  0  0  0  0  0  0  0  0
   -6.4911    4.5975  -16.8865 C   0  0  0  0  0  0  0  0  0  0  0  0
   -7.6959    4.6882  -17.5354 N   0  0  0  0  0  0  0  0  0  0  0  0
   -8.6118    4.5607  -16.6117 C   0  0  0  0  0  0  0  0  0  0  0  0
   -8.0265    4.4275  -15.3955 N   0  0  0  0  0  0  0  0  0  0  0  0
   -8.6804    4.6621  -14.1335 C   0  0  0  0  0  0  0  0  0  0  0  0
   -6.6645    4.2228  -15.5655 C   0  0  0  0  0  0  0  0  0  0  0  0
   -5.7118    3.5999  -14.2177 S   0  0  0  0  0  0  0  0  0  0  0  0
   -6.5272    2.2045  -13.7041 N   0  0  0  0  0  0  0  0  0  0  0  0
   -4.4151    3.1771  -14.6755 O   0  0  0  0  0  0  0  0  0  0  0  0
   -5.9019    4.5687  -13.1680 O   0  0  0  0  0  0  0  0  0  0  0  0
  2  1  1  6
  2  3  1  0
  2  4  1  0
  4  5  2  0
  4  6  1  0
  6  7  1  0
  7  8  1  0
  8  9  2  0
  9 10  1  0
 10 11  1  0
 10 12  1  0
 12 13  1  0
 13 14  1  0
 13 15  2  0
 13 16  2  0
 12  7  2  0
M  END
>  <energy_score>  (3042) 
-13.656561

>  <alias>  (3042) 
None

>  <HIPPO Pose ID>  (3042) 
76257

>  <smiles>  (3042) 
C[C@H](Cl)C(=O)Nc1ncn(C)c1S(N)(=O)=O

>  <inchikey>  (3042) 
GYINMZADEAVOSL-BYPYZUCNSA-N

>  <distance_score>  (3042) 
1.759275

>  <ref_mols>  (3042) 
Z0719a,Z1597a

>  <ref_pdb>  (3042) 
Z0719a

>  <HIPPO Compound ID>  (3042) 
151558

>  <name>  (3042) 
P76257

>  <inspiration_score>  (3042) 
None

$$$$
P76259
     RDKit          3D

 16 17  0  0  0  0  0  0  0  0999 V2000
   -4.0503    4.4176  -18.7643 O   0  0  0  0  0  0  0  0  0  0  0  0
   -4.8961    5.1465  -19.1133 C   0  0  0  0  0  0  0  0  0  0  0  0
   -4.6467    6.2694  -20.0807 C   0  0  0  0  0  0  0  0  0  0  0  0
   -4.4886    7.5474  -19.2484 C   0  0  0  0  0  0  0  0  0  0  0  0
   -3.8567    7.3663  -17.8471 C   0  0  0  0  0  0  0  0  0  0  0  0
   -4.7000    6.7081  -16.9886 F   0  0  0  0  0  0  0  0  0  0  0  0
   -6.3757    5.2617  -18.6597 N   0  0  0  0  0  0  0  0  0  0  0  0
   -7.0454    4.6140  -17.6846 C   0  0  0  0  0  0  0  0  0  0  0  0
   -8.3539    4.8399  -17.3178 C   0  0  0  0  0  0  0  0  0  0  0  0
   -8.2941    4.7393  -15.9476 N   0  0  0  0  0  0  0  0  0  0  0  0
   -9.0268    5.2933  -14.9117 C   0  0  0  0  0  0  0  0  0  0  0  0
   -8.6113    5.1012  -13.6471 C   0  0  0  0  0  0  0  0  0  0  0  0
   -7.5022    4.3546  -13.3034 N   0  0  0  0  0  0  0  0  0  0  0  0
   -6.7876    3.8697  -14.2829 C   0  0  0  0  0  0  0  0  0  0  0  0
   -7.1228    4.1141  -15.6495 C   0  0  0  0  0  0  0  0  0  0  0  0
   -6.3268    4.0440  -16.6823 N   0  0  0  0  0  0  0  0  0  0  0  0
  1  2  2  0
  2  3  1  0
  3  4  1  0
  4  5  1  0
  5  6  1  0
  2  7  1  0
  7  8  1  0
  8  9  2  0
  9 10  1  0
 10 11  1  0
 11 12  2  0
 12 13  1  0
 13 14  2  0
 14 15  1  0
 15 16  2  0
 16  8  1  0
 15 10  1  0
M  END
>  <energy_score>  (3043) 
-10.229539

>  <alias>  (3043) 
None

>  <HIPPO Pose ID>  (3043) 
76259

>  <smiles>  (3043) 
O=C(CCCF)Nc1cn2ccncc2n1

>  <inchikey>  (3043) 
OIKKBKKXTJXHJG-UHFFFAOYSA-N

>  <distance_score>  (3043) 
1.885807

>  <ref_mols>  (3043) 
Z0719a,Z1597a

>  <ref_pdb>  (3043) 
Z0719a

>  <HIPPO Compound ID>  (3043) 
151565

>  <name>  (3043) 
P76259

>  <inspiration_score>  (3043) 
None

$$$$
P76260
     RDKit          3D

 16 17  0  0  0  0  0  0  0  0999 V2000
   -3.8134    4.7142  -19.5571 O   0  0  0  0  0  0  0  0  0  0  0  0
   -3.7690    5.8439  -19.2645 C   0  0  0  0  0  0  0  0  0  0  0  0
   -3.0069    6.8670  -20.0918 C   0  0  0  0  0  0  0  0  0  0  0  0
   -3.8888    7.9453  -20.7106 C   0  0  0  0  0  0  0  0  0  0  0  0
   -5.0774    7.4633  -21.5224 C   0  0  0  0  0  0  0  0  0  0  0  0
   -5.7545    8.5726  -21.9446 F   0  0  0  0  0  0  0  0  0  0  0  0
   -4.4845    6.6160  -18.1260 N   0  0  0  0  0  0  0  0  0  0  0  0
   -5.4111    6.2035  -17.2341 C   0  0  0  0  0  0  0  0  0  0  0  0
   -6.1170    5.0301  -17.2046 C   0  0  0  0  0  0  0  0  0  0  0  0
   -7.0551    5.2322  -16.2298 N   0  0  0  0  0  0  0  0  0  0  0  0
   -8.1988    4.3981  -15.9221 C   0  0  0  0  0  0  0  0  0  0  0  0
   -8.9303    3.9193  -17.1423 C   0  0  0  0  0  0  0  0  0  0  0  0
   -8.9603    4.6303  -18.4760 C   0  0  0  0  0  0  0  0  0  0  0  0
  -10.1862    4.5823  -17.6273 C   0  0  0  0  0  0  0  0  0  0  0  0
   -6.7944    6.4343  -15.6407 C   0  0  0  0  0  0  0  0  0  0  0  0
   -5.8216    7.0624  -16.2578 N   0  0  0  0  0  0  0  0  0  0  0  0
  1  2  2  0
  2  3  1  0
  3  4  1  0
  4  5  1  0
  5  6  1  0
  2  7  1  0
  7  8  1  0
  8  9  2  0
  9 10  1  0
 10 11  1  0
 11 12  1  0
 12 13  1  0
 13 14  1  0
 10 15  1  0
 15 16  2  0
 16  8  1  0
 14 12  1  0
M  END
>  <energy_score>  (3044) 
-22.552998

>  <alias>  (3044) 
None

>  <HIPPO Pose ID>  (3044) 
76260

>  <smiles>  (3044) 
O=C(CCCF)Nc1cn(CC2CC2)cn1

>  <inchikey>  (3044) 
SJYNGISTKJQIAJ-UHFFFAOYSA-N

>  <distance_score>  (3044) 
1.922598

>  <ref_mols>  (3044) 
Z0719a,Z1597a

>  <ref_pdb>  (3044) 
Z0719a

>  <HIPPO Compound ID>  (3044) 
151568

>  <name>  (3044) 
P76260

>  <inspiration_score>  (3044) 
None

$$$$
P76261
     RDKit          3D

 16 17  0  0  0  0  0  0  0  0999 V2000
   -1.4080    2.6429   -9.9968 C   0  0  0  0  0  0  0  0  0  0  0  0
   -2.0666    1.4583  -10.6764 C   0  0  2  0  0  0  0  0  0  0  0  0
   -0.7540    0.5215  -11.7895 Br  0  0  0  0  0  0  0  0  0  0  0  0
   -3.2661    1.8661  -11.5358 C   0  0  0  0  0  0  0  0  0  0  0  0
   -4.3590    1.6212  -11.2057 O   0  0  0  0  0  0  0  0  0  0  0  0
   -2.7386    2.6338  -12.7785 N   0  0  0  0  0  0  0  0  0  0  0  0
   -3.4091    3.2959  -13.7554 C   0  0  0  0  0  0  0  0  0  0  0  0
   -2.6526    3.9895  -14.6794 N   0  0  0  0  0  0  0  0  0  0  0  0
   -3.5413    4.4836  -15.4918 C   0  0  0  0  0  0  0  0  0  0  0  0
   -4.8104    4.1900  -15.1224 N   0  0  0  0  0  0  0  0  0  0  0  0
   -4.7632    3.3693  -14.0399 C   0  0  0  0  0  0  0  0  0  0  0  0
   -5.8839    2.6908  -13.4978 C   0  0  0  0  0  0  0  0  0  0  0  0
   -6.8469    2.1139  -13.2085 N   0  0  0  0  0  0  0  0  0  0  0  0
   -5.8779    4.7086  -15.9469 C   0  0  0  0  0  0  0  0  0  0  0  0
   -5.2434    5.1052  -17.2859 C   0  0  0  0  0  0  0  0  0  0  0  0
   -3.4459    5.3594  -16.9632 S   0  0  0  0  0  0  0  0  0  0  0  0
  2  1  1  6
  2  3  1  0
  2  4  1  0
  4  5  2  0
  4  6  1  0
  6  7  1  0
  7  8  1  0
  8  9  2  0
  9 10  1  0
 10 11  1  0
 11 12  1  0
 12 13  3  0
 10 14  1  0
 14 15  1  0
 15 16  1  0
 11  7  2  0
 16  9  1  0
M  END
>  <energy_score>  (3045) 
-24.633187

>  <alias>  (3045) 
None

>  <HIPPO Pose ID>  (3045) 
76261

>  <smiles>  (3045) 
C[C@H](Br)C(=O)Nc1nc2n(c1C#N)CCS2

>  <inchikey>  (3045) 
RSXZWIUXKMQNKZ-YFKPBYRVSA-N

>  <distance_score>  (3045) 
1.000334

>  <ref_mols>  (3045) 
Z0719a,Z1597a

>  <ref_pdb>  (3045) 
Z0719a

>  <HIPPO Compound ID>  (3045) 
151569

>  <name>  (3045) 
P76261

>  <inspiration_score>  (3045) 
None

$$$$
P76266
     RDKit          3D

 16 17  0  0  0  0  0  0  0  0999 V2000
   -5.3808    2.6019  -12.6982 C   0  0  0  0  0  0  0  0  0  0  0  0
   -6.8151    2.4332  -12.2055 C   0  0  0  0  0  0  0  0  0  0  0  0
   -7.3502    3.6276  -11.5684 N   0  0  0  0  0  0  0  0  0  0  0  0
   -7.5079    3.8724  -10.2218 C   0  0  0  0  0  0  0  0  0  0  0  0
   -7.4688    2.8405   -9.1670 C   0  0  0  0  0  0  0  0  0  0  0  0
   -7.7091    5.1576  -10.0004 N   0  0  0  0  0  0  0  0  0  0  0  0
   -7.8307    5.7392  -11.2361 C   0  0  0  0  0  0  0  0  0  0  0  0
   -8.1850    7.1701  -11.3458 C   0  0  0  0  0  0  0  0  0  0  0  0
   -7.6834    4.7859  -12.2211 C   0  0  0  0  0  0  0  0  0  0  0  0
   -7.8369    4.8616  -13.5667 N   0  0  0  0  0  0  0  0  0  0  0  0
   -7.7802    6.0632  -14.5052 C   0  0  0  0  0  0  0  0  0  0  0  0
   -7.5170    7.1744  -14.2920 O   0  0  0  0  0  0  0  0  0  0  0  0
   -8.2338    5.6939  -15.8545 C   0  0  1  0  0  0  0  0  0  0  0  0
   -7.2174    5.7574  -16.9784 C   0  0  0  0  0  0  0  0  0  0  0  0
   -7.8947    4.4660  -16.6366 C   0  0  2  0  0  0  0  0  0  0  0  0
   -9.2335    3.8859  -17.8787 Br  0  0  0  0  0  0  0  0  0  0  0  0
  1  2  1  0
  2  3  1  0
  3  4  1  0
  4  5  1  0
  4  6  2  0
  6  7  1  0
  7  8  1  0
  7  9  2  0
  9 10  1  0
 10 11  1  0
 11 12  2  0
 13 11  1  1
 13 14  1  0
 14 15  1  0
 15 16  1  6
  9  3  1  0
 15 13  1  0
M  END
>  <energy_score>  (3046) 
-33.107389

>  <alias>  (3046) 
None

>  <HIPPO Pose ID>  (3046) 
76266

>  <smiles>  (3046) 
CCn1c(C)nc(C)c1NC(=O)[C@H]1C[C@@H]1Br

>  <inchikey>  (3046) 
JWWSOMYKKDSJAL-IUCAKERBSA-N

>  <distance_score>  (3046) 
1.373575

>  <ref_mols>  (3046) 
Z0719a,Z1597a

>  <ref_pdb>  (3046) 
Z0719a

>  <HIPPO Compound ID>  (3046) 
151572

>  <name>  (3046) 
P76266

>  <inspiration_score>  (3046) 
None

$$$$
P76267
     RDKit          3D

 16 17  0  0  0  0  0  0  0  0999 V2000
   -6.4463    2.1291  -10.9962 C   0  0  0  0  0  0  0  0  0  0  0  0
   -7.1261    3.2066  -11.7353 C   0  0  0  0  0  0  0  0  0  0  0  0
   -7.2191    3.2237  -13.0422 N   0  0  0  0  0  0  0  0  0  0  0  0
   -7.5800    4.4931  -13.3622 C   0  0  0  0  0  0  0  0  0  0  0  0
   -7.4969    4.8040  -14.6755 N   0  0  0  0  0  0  0  0  0  0  0  0
   -7.3086    6.1540  -15.3670 C   0  0  0  0  0  0  0  0  0  0  0  0
   -7.2710    7.2282  -14.9253 O   0  0  0  0  0  0  0  0  0  0  0  0
   -7.0327    6.0389  -16.8387 C   0  0  1  0  0  0  0  0  0  0  0  0
   -6.4029    4.8377  -17.4894 C   0  0  0  0  0  0  0  0  0  0  0  0
   -7.8180    5.2143  -17.8210 C   0  0  1  0  0  0  0  0  0  0  0  0
   -9.2352    4.0755  -17.3256 Br  0  0  0  0  0  0  0  0  0  0  0  0
   -7.8668    5.2351  -12.2386 C   0  0  0  0  0  0  0  0  0  0  0  0
   -8.2986    6.5813  -12.1143 C   0  0  0  0  0  0  0  0  0  0  0  0
   -8.6672    7.6683  -11.9427 N   0  0  0  0  0  0  0  0  0  0  0  0
   -7.6487    4.3608  -11.1931 N   0  0  0  0  0  0  0  0  0  0  0  0
   -7.8528    4.6387   -9.7915 C   0  0  0  0  0  0  0  0  0  0  0  0
  1  2  1  0
  2  3  2  0
  3  4  1  0
  4  5  1  0
  5  6  1  0
  6  7  2  0
  8  6  1  1
  8  9  1  0
  9 10  1  0
 10 11  1  1
  4 12  2  0
 12 13  1  0
 13 14  3  0
 12 15  1  0
 15 16  1  0
 15  2  1  0
 10  8  1  0
M  END
>  <energy_score>  (3047) 
-14.552921

>  <alias>  (3047) 
None

>  <HIPPO Pose ID>  (3047) 
76267

>  <smiles>  (3047) 
Cc1nc(NC(=O)[C@H]2C[C@H]2Br)c(C#N)n1C

>  <inchikey>  (3047) 
FFOMTYZWHGXINP-NKWVEPMBSA-N

>  <distance_score>  (3047) 
1.967952

>  <ref_mols>  (3047) 
Z0719a,Z1597a

>  <ref_pdb>  (3047) 
Z0719a

>  <HIPPO Compound ID>  (3047) 
151573

>  <name>  (3047) 
P76267

>  <inspiration_score>  (3047) 
None

$$$$
P76270
     RDKit          3D

 16 17  0  0  0  0  0  0  0  0999 V2000
   -7.8755    3.1845   -9.1102 C   0  0  0  0  0  0  0  0  0  0  0  0
   -7.7396    4.0590  -10.2962 C   0  0  0  0  0  0  0  0  0  0  0  0
   -7.9540    5.3614  -10.3027 N   0  0  0  0  0  0  0  0  0  0  0  0
   -7.8075    5.7580  -11.6120 C   0  0  0  0  0  0  0  0  0  0  0  0
   -8.1129    7.1042  -11.9905 C   0  0  0  0  0  0  0  0  0  0  0  0
   -8.3894    8.1942  -12.2887 N   0  0  0  0  0  0  0  0  0  0  0  0
   -7.4740    4.6850  -12.4136 C   0  0  0  0  0  0  0  0  0  0  0  0
   -7.2794    4.5321  -13.7554 N   0  0  0  0  0  0  0  0  0  0  0  0
   -6.9207    5.5579  -14.8303 C   0  0  0  0  0  0  0  0  0  0  0  0
   -6.6572    6.6856  -14.7379 O   0  0  0  0  0  0  0  0  0  0  0  0
   -7.0537    4.9187  -16.1707 C   0  0  2  0  0  0  0  0  0  0  0  0
   -7.1768    5.7746  -17.3988 C   0  0  0  0  0  0  0  0  0  0  0  0
   -8.3991    5.1123  -16.8139 C   0  0  1  0  0  0  0  0  0  0  0  0
   -9.2422    3.8363  -17.9090 Br  0  0  0  0  0  0  0  0  0  0  0  0
   -7.3656    3.6239  -11.5469 N   0  0  0  0  0  0  0  0  0  0  0  0
   -6.8043    2.3415  -11.9099 C   0  0  0  0  0  0  0  0  0  0  0  0
  1  2  1  0
  2  3  2  0
  3  4  1  0
  4  5  1  0
  5  6  3  0
  4  7  2  0
  7  8  1  0
  8  9  1  0
  9 10  2  0
 11  9  1  1
 11 12  1  0
 12 13  1  0
 13 14  1  6
  7 15  1  0
 15 16  1  0
 15  2  1  0
 13 11  1  0
M  END
>  <energy_score>  (3048) 
-13.845289

>  <alias>  (3048) 
None

>  <HIPPO Pose ID>  (3048) 
76270

>  <smiles>  (3048) 
Cc1nc(C#N)c(NC(=O)[C@@H]2C[C@H]2Br)n1C

>  <inchikey>  (3048) 
FSEPOBPAINAQHV-RNFRBKRXSA-N

>  <distance_score>  (3048) 
1.468781

>  <ref_mols>  (3048) 
Z0719a,Z1597a

>  <ref_pdb>  (3048) 
Z0719a

>  <HIPPO Compound ID>  (3048) 
151574

>  <name>  (3048) 
P76270

>  <inspiration_score>  (3048) 
None

$$$$
P76276
     RDKit          3D

 16 17  0  0  0  0  0  0  0  0999 V2000
   -7.8420    5.9395   -8.9177 C   0  0  0  0  0  0  0  0  0  0  0  0
   -8.0911    4.9857  -10.0155 C   0  0  0  0  0  0  0  0  0  0  0  0
   -8.5116    3.7535   -9.8536 N   0  0  0  0  0  0  0  0  0  0  0  0
   -8.6689    3.2500  -11.1125 C   0  0  0  0  0  0  0  0  0  0  0  0
   -8.3459    4.1851  -12.0705 C   0  0  0  0  0  0  0  0  0  0  0  0
   -8.3424    4.0417  -13.4306 N   0  0  0  0  0  0  0  0  0  0  0  0
   -8.2343    5.0998  -14.5511 C   0  0  0  0  0  0  0  0  0  0  0  0
   -8.2089    6.2655  -14.4913 O   0  0  0  0  0  0  0  0  0  0  0  0
   -8.0448    4.4195  -15.8545 C   0  0  2  0  0  0  0  0  0  0  0  0
   -6.6806    4.5343  -16.5117 C   0  0  0  0  0  0  0  0  0  0  0  0
   -7.8653    5.1674  -17.1472 C   0  0  1  0  0  0  0  0  0  0  0  0
   -8.6877    4.3359  -18.6446 Br  0  0  0  0  0  0  0  0  0  0  0  0
   -7.8840    5.2644  -11.3518 N   0  0  0  0  0  0  0  0  0  0  0  0
   -7.0521    6.3454  -11.8559 C   0  0  0  0  0  0  0  0  0  0  0  0
   -5.9544    5.8200  -12.6989 C   0  0  0  0  0  0  0  0  0  0  0  0
   -5.1522    5.3437  -13.3958 N   0  0  0  0  0  0  0  0  0  0  0  0
  1  2  1  0
  2  3  2  0
  3  4  1  0
  4  5  2  0
  5  6  1  0
  6  7  1  0
  7  8  2  0
  9  7  1  1
  9 10  1  0
 10 11  1  0
 11 12  1  6
  5 13  1  0
 13 14  1  0
 14 15  1  0
 15 16  3  0
 13  2  1  0
 11  9  1  0
M  END
>  <energy_score>  (3049) 
-8.037572

>  <alias>  (3049) 
None

>  <HIPPO Pose ID>  (3049) 
76276

>  <smiles>  (3049) 
Cc1ncc(NC(=O)[C@@H]2C[C@H]2Br)n1CC#N

>  <inchikey>  (3049) 
GOMNONUSUGNVAD-HTQZYQBOSA-N

>  <distance_score>  (3049) 
1.07173

>  <ref_mols>  (3049) 
Z0719a,Z1597a

>  <ref_pdb>  (3049) 
Z0719a

>  <HIPPO Compound ID>  (3049) 
151581

>  <name>  (3049) 
P76276

>  <inspiration_score>  (3049) 
None

$$$$
P76277
     RDKit          3D

 16 16  0  0  0  0  0  0  0  0999 V2000
   -3.8469    7.5186  -22.1309 C   0  0  0  0  0  0  0  0  0  0  0  0
   -4.7460    7.2986  -21.1600 C   0  0  0  0  0  0  0  0  0  0  0  0
   -4.5981    7.7458  -19.7412 C   0  0  1  0  0  0  0  0  0  0  0  0
   -5.8064    9.0169  -19.3765 Cl  0  0  0  0  0  0  0  0  0  0  0  0
   -4.6825    6.5922  -18.7153 C   0  0  0  0  0  0  0  0  0  0  0  0
   -3.7124    6.1759  -18.2034 O   0  0  0  0  0  0  0  0  0  0  0  0
   -6.1826    6.2419  -18.4727 N   0  0  0  0  0  0  0  0  0  0  0  0
   -6.7578    5.4370  -17.5520 C   0  0  0  0  0  0  0  0  0  0  0  0
   -6.1274    4.6231  -16.6560 C   0  0  0  0  0  0  0  0  0  0  0  0
   -7.0895    4.2664  -15.7582 N   0  0  0  0  0  0  0  0  0  0  0  0
   -6.9447    3.5240  -14.5304 C   0  0  0  0  0  0  0  0  0  0  0  0
   -5.7828    3.7798  -13.5348 C   0  0  0  0  0  0  0  0  0  0  0  0
   -4.3709    3.8559  -14.1072 C   0  0  0  0  0  0  0  0  0  0  0  0
   -5.8254    2.6597  -12.4928 C   0  0  0  0  0  0  0  0  0  0  0  0
   -8.2826    4.6970  -16.2723 C   0  0  0  0  0  0  0  0  0  0  0  0
   -8.0951    5.4428  -17.3390 N   0  0  0  0  0  0  0  0  0  0  0  0
  1  2  2  0
  2  3  1  0
  3  4  1  1
  3  5  1  0
  5  6  2  0
  5  7  1  0
  7  8  1  0
  8  9  2  0
  9 10  1  0
 10 11  1  0
 11 12  1  0
 12 13  1  0
 12 14  1  0
 10 15  1  0
 15 16  2  0
 16  8  1  0
M  END
>  <energy_score>  (3050) 
-12.213175

>  <alias>  (3050) 
None

>  <HIPPO Pose ID>  (3050) 
76277

>  <smiles>  (3050) 
C=C[C@@H](Cl)C(=O)Nc1cn(CC(C)C)cn1

>  <inchikey>  (3050) 
WQWLIHCFUKFMRQ-SECBINFHSA-N

>  <distance_score>  (3050) 
1.880549

>  <ref_mols>  (3050) 
Z0719a,Z1597a

>  <ref_pdb>  (3050) 
Z0719a

>  <HIPPO Compound ID>  (3050) 
151582

>  <name>  (3050) 
P76277

>  <inspiration_score>  (3050) 
None

$$$$
P76280
     RDKit          3D

 16 18  0  0  0  0  0  0  0  0999 V2000
   -3.9065    6.9612  -19.6149 O   0  0  0  0  0  0  0  0  0  0  0  0
   -4.9003    6.7782  -20.1945 C   0  0  0  0  0  0  0  0  0  0  0  0
   -6.1723    6.0269  -19.7776 N   0  0  0  0  0  0  0  0  0  0  0  0
   -6.5095    5.4578  -18.5998 C   0  0  0  0  0  0  0  0  0  0  0  0
   -7.7498    4.9416  -18.3155 C   0  0  0  0  0  0  0  0  0  0  0  0
   -7.7151    4.7145  -16.9736 N   0  0  0  0  0  0  0  0  0  0  0  0
   -8.7440    4.4256  -16.0982 C   0  0  0  0  0  0  0  0  0  0  0  0
   -8.4671    4.3661  -14.7910 C   0  0  0  0  0  0  0  0  0  0  0  0
   -7.0367    4.5176  -14.4308 C   0  0  0  0  0  0  0  0  0  0  0  0
   -6.0619    4.7991  -15.2320 N   0  0  0  0  0  0  0  0  0  0  0  0
   -6.4108    4.9589  -16.5407 C   0  0  0  0  0  0  0  0  0  0  0  0
   -5.6766    5.4183  -17.5301 N   0  0  0  0  0  0  0  0  0  0  0  0
   -5.0874    7.3905  -21.5483 C   0  0  2  0  0  0  0  0  0  0  0  0
   -3.9586    8.1863  -22.1554 C   0  0  0  0  0  0  0  0  0  0  0  0
   -5.2377    8.8724  -21.7681 C   0  0  2  0  0  0  0  0  0  0  0  0
   -5.2365   10.0862  -20.3007 Br  0  0  0  0  0  0  0  0  0  0  0  0
  1  2  2  0
  2  3  1  0
  3  4  1  0
  4  5  2  0
  5  6  1  0
  6  7  1  0
  7  8  2  0
  8  9  1  0
  9 10  2  0
 10 11  1  0
 11 12  2  0
 13  2  1  1
 13 14  1  0
 14 15  1  0
 15 16  1  1
 12  4  1  0
 15 13  1  0
 11  6  1  0
M  END
>  <energy_score>  (3051) 
-19.774646

>  <alias>  (3051) 
None

>  <HIPPO Pose ID>  (3051) 
76280

>  <smiles>  (3051) 
O=C(Nc1cn2cccnc2n1)[C@@H]1C[C@@H]1Br

>  <inchikey>  (3051) 
FKDKPWUMLVXERY-RQJHMYQMSA-N

>  <distance_score>  (3051) 
1.709639

>  <ref_mols>  (3051) 
Z0719a,Z1597a

>  <ref_pdb>  (3051) 
Z0719a

>  <HIPPO Compound ID>  (3051) 
151589

>  <name>  (3051) 
P76280

>  <inspiration_score>  (3051) 
None

$$$$
P76281
     RDKit          3D

 16 17  0  0  0  0  0  0  0  0999 V2000
   -4.1169    4.4562  -18.8667 O   0  0  0  0  0  0  0  0  0  0  0  0
   -4.9648    5.1883  -19.2048 C   0  0  0  0  0  0  0  0  0  0  0  0
   -4.7079    6.3301  -20.1459 C   0  0  0  0  0  0  0  0  0  0  0  0
   -4.5107    7.5880  -19.2886 C   0  0  0  0  0  0  0  0  0  0  0  0
   -3.6900    7.4257  -17.9813 C   0  0  0  0  0  0  0  0  0  0  0  0
   -4.6126    6.7705  -16.5625 Cl  0  0  0  0  0  0  0  0  0  0  0  0
   -6.4482    5.2859  -18.7570 N   0  0  0  0  0  0  0  0  0  0  0  0
   -7.1209    4.6127  -17.7986 C   0  0  0  0  0  0  0  0  0  0  0  0
   -8.4231    4.8430  -17.4118 C   0  0  0  0  0  0  0  0  0  0  0  0
   -8.3412    4.7450  -16.0406 N   0  0  0  0  0  0  0  0  0  0  0  0
   -9.0501    5.3075  -14.9922 C   0  0  0  0  0  0  0  0  0  0  0  0
   -8.6155    5.1147  -13.7341 C   0  0  0  0  0  0  0  0  0  0  0  0
   -7.5047    4.3632  -13.4078 N   0  0  0  0  0  0  0  0  0  0  0  0
   -6.8108    3.8714  -14.3989 C   0  0  0  0  0  0  0  0  0  0  0  0
   -7.1711    4.1102  -15.7609 C   0  0  0  0  0  0  0  0  0  0  0  0
   -6.3975    4.0252  -16.8100 N   0  0  0  0  0  0  0  0  0  0  0  0
  1  2  2  0
  2  3  1  0
  3  4  1  0
  4  5  1  0
  5  6  1  0
  2  7  1  0
  7  8  1  0
  8  9  2  0
  9 10  1  0
 10 11  1  0
 11 12  2  0
 12 13  1  0
 13 14  2  0
 14 15  1  0
 15 16  2  0
 16  8  1  0
 15 10  1  0
M  END
>  <energy_score>  (3052) 
-15.530903

>  <alias>  (3052) 
None

>  <HIPPO Pose ID>  (3052) 
76281

>  <smiles>  (3052) 
O=C(CCCCl)Nc1cn2ccncc2n1

>  <inchikey>  (3052) 
HUBMGZQLQZTHGX-UHFFFAOYSA-N

>  <distance_score>  (3052) 
1.846464

>  <ref_mols>  (3052) 
Z0719a,Z1597a

>  <ref_pdb>  (3052) 
Z0719a

>  <HIPPO Compound ID>  (3052) 
151592

>  <name>  (3052) 
P76281

>  <inspiration_score>  (3052) 
None

$$$$
P76282
     RDKit          3D

 16 16  0  0  0  0  0  0  0  0999 V2000
   -8.5550    4.8392  -18.1114 C   0  0  0  0  0  0  0  0  0  0  0  0
   -8.0004    4.6318  -16.8047 N   0  0  0  0  0  0  0  0  0  0  0  0
   -8.7464    4.6369  -15.6760 C   0  0  0  0  0  0  0  0  0  0  0  0
   -8.0374    4.3003  -14.6380 N   0  0  0  0  0  0  0  0  0  0  0  0
   -6.7602    4.0587  -15.1265 C   0  0  0  0  0  0  0  0  0  0  0  0
   -5.8694    3.3124  -14.2533 N   0  0  0  0  0  0  0  0  0  0  0  0
   -6.3831    2.3989  -13.5831 O   0  0  0  0  0  0  0  0  0  0  0  0
   -4.6635    3.5850  -14.2557 O   0  0  0  0  0  0  0  0  0  0  0  0
   -6.6792    4.4035  -16.4775 C   0  0  0  0  0  0  0  0  0  0  0  0
   -5.7536    4.4902  -17.4900 N   0  0  0  0  0  0  0  0  0  0  0  0
   -4.2418    4.8364  -17.4457 C   0  0  0  0  0  0  0  0  0  0  0  0
   -3.5359    5.0250  -16.5365 O   0  0  0  0  0  0  0  0  0  0  0  0
   -3.7898    4.9507  -18.9090 C   0  0  0  0  0  0  0  0  0  0  0  0
   -3.8793    6.3649  -19.4956 C   0  0  0  0  0  0  0  0  0  0  0  0
   -5.2982    6.9139  -19.5734 C   0  0  0  0  0  0  0  0  0  0  0  0
   -5.2931    8.5491  -20.2804 Cl  0  0  0  0  0  0  0  0  0  0  0  0
  1  2  1  0
  2  3  1  0
  3  4  2  0
  4  5  1  0
  5  6  1  0
  6  7  2  0
  6  8  1  0
  5  9  2  0
  9 10  1  0
 10 11  1  0
 11 12  2  0
 11 13  1  0
 13 14  1  0
 14 15  1  0
 15 16  1  0
  9  2  1  0
M  CHG  2   6   1   8  -1
M  END
>  <energy_score>  (3053) 
-10.565049

>  <alias>  (3053) 
None

>  <HIPPO Pose ID>  (3053) 
76282

>  <smiles>  (3053) 
Cn1cnc([N+](=O)[O-])c1NC(=O)CCCCl

>  <inchikey>  (3053) 
PJXJWACCFKPFQB-UHFFFAOYSA-N

>  <distance_score>  (3053) 
1.96699

>  <ref_mols>  (3053) 
Z0719a,Z1597a

>  <ref_pdb>  (3053) 
Z0719a

>  <HIPPO Compound ID>  (3053) 
151596

>  <name>  (3053) 
P76282

>  <inspiration_score>  (3053) 
None

$$$$
P76284
     RDKit          3D

 16 16  0  0  0  0  0  0  0  0999 V2000
   -4.2403    6.4869  -19.7851 C   0  0  0  0  0  0  0  0  0  0  0  0
   -3.7676    5.2060  -19.1137 C   0  0  1  0  0  0  0  0  0  0  0  0
   -1.8173    5.1389  -19.1912 Br  0  0  0  0  0  0  0  0  0  0  0  0
   -4.2430    5.0508  -17.6531 C   0  0  0  0  0  0  0  0  0  0  0  0
   -3.5826    5.2274  -16.7059 O   0  0  0  0  0  0  0  0  0  0  0  0
   -5.7369    4.6351  -17.7767 N   0  0  0  0  0  0  0  0  0  0  0  0
   -6.6824    4.4572  -16.8228 C   0  0  0  0  0  0  0  0  0  0  0  0
   -7.9463    4.5931  -17.3330 N   0  0  0  0  0  0  0  0  0  0  0  0
   -8.7508    4.5079  -16.3113 C   0  0  0  0  0  0  0  0  0  0  0  0
   -8.0445    4.3513  -15.1639 N   0  0  0  0  0  0  0  0  0  0  0  0
   -8.5922    4.5212  -13.8410 C   0  0  0  0  0  0  0  0  0  0  0  0
   -6.7040    4.1516  -15.4703 C   0  0  0  0  0  0  0  0  0  0  0  0
   -5.5958    3.6354  -14.2016 S   0  0  0  0  0  0  0  0  0  0  0  0
   -6.2526    2.2713  -13.4369 N   0  0  0  0  0  0  0  0  0  0  0  0
   -4.3527    3.1640  -14.7514 O   0  0  0  0  0  0  0  0  0  0  0  0
   -5.6625    4.6817  -13.2129 O   0  0  0  0  0  0  0  0  0  0  0  0
  2  1  1  1
  2  3  1  0
  2  4  1  0
  4  5  2  0
  4  6  1  0
  6  7  1  0
  7  8  1  0
  8  9  2  0
  9 10  1  0
 10 11  1  0
 10 12  1  0
 12 13  1  0
 13 14  1  0
 13 15  2  0
 13 16  2  0
 12  7  2  0
M  END
>  <energy_score>  (3054) 
-27.313435

>  <alias>  (3054) 
None

>  <HIPPO Pose ID>  (3054) 
76284

>  <smiles>  (3054) 
C[C@@H](Br)C(=O)Nc1ncn(C)c1S(N)(=O)=O

>  <inchikey>  (3054) 
BLRGUVWCYJIHKZ-SCSAIBSYSA-N

>  <distance_score>  (3054) 
1.98576

>  <ref_mols>  (3054) 
Z0719a,Z1597a

>  <ref_pdb>  (3054) 
Z0719a

>  <HIPPO Compound ID>  (3054) 
151608

>  <name>  (3054) 
P76284

>  <inspiration_score>  (3054) 
None

$$$$
P76285
     RDKit          3D

 16 16  0  0  0  0  0  0  0  0999 V2000
   -7.7425    4.5769  -12.9857 C   0  0  0  0  0  0  0  0  0  0  0  0
   -6.8736    5.2289  -14.0550 C   0  0  0  0  0  0  0  0  0  0  0  0
   -6.4253    4.2375  -15.1367 C   0  0  0  0  0  0  0  0  0  0  0  0
   -6.7819    4.6591  -16.4691 N   0  0  0  0  0  0  0  0  0  0  0  0
   -8.0998    4.6945  -16.9097 C   0  0  0  0  0  0  0  0  0  0  0  0
   -9.2574    4.2090  -16.1553 C   0  0  0  0  0  0  0  0  0  0  0  0
   -8.2081    5.3000  -18.0625 N   0  0  0  0  0  0  0  0  0  0  0  0
   -6.9397    5.6043  -18.3977 C   0  0  0  0  0  0  0  0  0  0  0  0
   -6.5957    6.5223  -19.4857 C   0  0  0  0  0  0  0  0  0  0  0  0
   -6.0153    5.0946  -17.5118 C   0  0  0  0  0  0  0  0  0  0  0  0
   -4.6999    5.2613  -17.8318 N   0  0  0  0  0  0  0  0  0  0  0  0
   -3.4431    5.2815  -16.9343 C   0  0  0  0  0  0  0  0  0  0  0  0
   -3.3272    5.0819  -15.7906 O   0  0  0  0  0  0  0  0  0  0  0  0
   -2.2990    5.7481  -17.8741 C   0  0  2  0  0  0  0  0  0  0  0  0
   -2.5986    7.0539  -18.6280 C   0  0  0  0  0  0  0  0  0  0  0  0
   -1.9604    4.4003  -19.2447 Br  0  0  0  0  0  0  0  0  0  0  0  0
  1  2  1  0
  2  3  1  0
  3  4  1  0
  4  5  1  0
  5  6  1  0
  5  7  2  0
  7  8  1  0
  8  9  1  0
  8 10  2  0
 10 11  1  0
 11 12  1  0
 12 13  2  0
 12 14  1  0
 14 15  1  6
 14 16  1  0
 10  4  1  0
M  END
>  <energy_score>  (3055) 
-4.457393

>  <alias>  (3055) 
None

>  <HIPPO Pose ID>  (3055) 
76285

>  <smiles>  (3055) 
CCCn1c(C)nc(C)c1NC(=O)[C@H](C)Br

>  <inchikey>  (3055) 
QSRUJMGIXKHLNN-ZETCQYMHSA-N

>  <distance_score>  (3055) 
1.921826

>  <ref_mols>  (3055) 
Z0719a,Z1597a

>  <ref_pdb>  (3055) 
Z0719a

>  <HIPPO Compound ID>  (3055) 
151611

>  <name>  (3055) 
P76285

>  <inspiration_score>  (3055) 
None

$$$$
P76293
     RDKit          3D

 17 18  0  0  0  0  0  0  0  0999 V2000
   -7.1693    3.0615   -9.5389 C   0  0  0  0  0  0  0  0  0  0  0  0
   -7.4001    3.9065  -10.6790 N   0  0  0  0  0  0  0  0  0  0  0  0
   -8.1621    5.0494  -10.6490 C   0  0  0  0  0  0  0  0  0  0  0  0
   -8.3122    5.5733  -11.8472 N   0  0  0  0  0  0  0  0  0  0  0  0
   -7.6465    4.7187  -12.6580 C   0  0  0  0  0  0  0  0  0  0  0  0
   -7.6441    4.6663  -14.0074 N   0  0  0  0  0  0  0  0  0  0  0  0
   -8.3396    5.5441  -15.0304 C   0  0  0  0  0  0  0  0  0  0  0  0
   -8.9700    6.5066  -14.8914 O   0  0  0  0  0  0  0  0  0  0  0  0
   -8.1191    4.8288  -16.3000 C   0  0  2  0  0  0  0  0  0  0  0  0
   -6.6960    4.8127  -16.8418 C   0  0  0  0  0  0  0  0  0  0  0  0
   -7.8194    5.3313  -17.6687 C   0  0  1  0  0  0  0  0  0  0  0  0
   -8.5675    4.1894  -18.9928 Br  0  0  0  0  0  0  0  0  0  0  0  0
   -6.9760    3.7290  -11.9703 C   0  0  0  0  0  0  0  0  0  0  0  0
   -5.9718    2.4896  -12.6836 S   0  0  0  0  0  0  0  0  0  0  0  0
   -4.7531    1.9965  -11.6628 N   0  0  0  0  0  0  0  0  0  0  0  0
   -5.3085    3.1390  -13.7957 O   0  0  0  0  0  0  0  0  0  0  0  0
   -6.8249    1.3544  -12.9070 O   0  0  0  0  0  0  0  0  0  0  0  0
  1  2  1  0
  2  3  1  0
  3  4  2  0
  4  5  1  0
  5  6  1  0
  6  7  1  0
  7  8  2  0
  9  7  1  1
  9 10  1  0
 10 11  1  0
 11 12  1  6
  5 13  2  0
 13 14  1  0
 14 15  1  0
 14 16  2  0
 14 17  2  0
 13  2  1  0
 11  9  1  0
M  END
>  <energy_score>  (3056) 
-14.014862

>  <alias>  (3056) 
None

>  <HIPPO Pose ID>  (3056) 
76293

>  <smiles>  (3056) 
Cn1cnc(NC(=O)[C@@H]2C[C@H]2Br)c1S(N)(=O)=O

>  <inchikey>  (3056) 
ANQPIKBDPZTHKY-RFZPGFLSSA-N

>  <distance_score>  (3056) 
1.197588

>  <ref_mols>  (3056) 
Z0719a,Z1597a

>  <ref_pdb>  (3056) 
Z0719a

>  <HIPPO Compound ID>  (3056) 
151634

>  <name>  (3056) 
P76293

>  <inspiration_score>  (3056) 
None

$$$$
P76297
     RDKit          3D

 17 18  0  0  0  0  0  0  0  0999 V2000
   -4.5884    3.7881  -11.6178 C   0  0  0  0  0  0  0  0  0  0  0  0
   -4.9379    5.1799  -11.5442 O   0  0  0  0  0  0  0  0  0  0  0  0
   -6.1849    5.5961  -11.1648 C   0  0  0  0  0  0  0  0  0  0  0  0
   -6.3697    6.7391  -10.7576 O   0  0  0  0  0  0  0  0  0  0  0  0
   -7.2081    4.5892  -11.1790 C   0  0  0  0  0  0  0  0  0  0  0  0
   -7.7612    3.8196  -12.1811 C   0  0  0  0  0  0  0  0  0  0  0  0
   -7.6120    3.8576  -13.5277 N   0  0  0  0  0  0  0  0  0  0  0  0
   -6.8581    4.8506  -14.4185 C   0  0  0  0  0  0  0  0  0  0  0  0
   -6.1796    5.7523  -14.1367 O   0  0  0  0  0  0  0  0  0  0  0  0
   -7.1339    4.5676  -15.8513 C   0  0  2  0  0  0  0  0  0  0  0  0
   -7.1594    5.7079  -16.8381 C   0  0  0  0  0  0  0  0  0  0  0  0
   -8.4404    5.0268  -16.4395 C   0  0  1  0  0  0  0  0  0  0  0  0
   -9.3019    4.0128  -17.7942 Br  0  0  0  0  0  0  0  0  0  0  0  0
   -8.6309    2.9003  -11.6794 N   0  0  0  0  0  0  0  0  0  0  0  0
   -8.7049    3.1507  -10.3945 C   0  0  0  0  0  0  0  0  0  0  0  0
   -7.9425    4.2282  -10.0691 N   0  0  0  0  0  0  0  0  0  0  0  0
   -7.9181    4.8847   -8.7911 C   0  0  0  0  0  0  0  0  0  0  0  0
  1  2  1  0
  2  3  1  0
  3  4  2  0
  3  5  1  0
  5  6  2  0
  6  7  1  0
  7  8  1  0
  8  9  2  0
 10  8  1  1
 10 11  1  0
 11 12  1  0
 12 13  1  6
  6 14  1  0
 14 15  2  0
 15 16  1  0
 16 17  1  0
 16  5  1  0
 12 10  1  0
M  END
>  <energy_score>  (3057) 
-4.82846

>  <alias>  (3057) 
None

>  <HIPPO Pose ID>  (3057) 
76297

>  <smiles>  (3057) 
COC(=O)c1c(NC(=O)[C@@H]2C[C@H]2Br)ncn1C

>  <inchikey>  (3057) 
HTSSDVIYADPLCX-PHDIDXHHSA-N

>  <distance_score>  (3057) 
1.638726

>  <ref_mols>  (3057) 
Z0719a,Z1597a

>  <ref_pdb>  (3057) 
Z0719a

>  <HIPPO Compound ID>  (3057) 
151636

>  <name>  (3057) 
P76297

>  <inspiration_score>  (3057) 
None

$$$$
P76306
     RDKit          3D

 17 18  0  0  0  0  0  0  0  0999 V2000
   -8.7435    7.4264  -11.7477 C   0  0  0  0  0  0  0  0  0  0  0  0
   -7.9986    6.1570  -11.6495 C   0  0  0  0  0  0  0  0  0  0  0  0
   -7.8463    5.5375  -10.4452 N   0  0  0  0  0  0  0  0  0  0  0  0
   -7.2067    4.4114  -10.6958 C   0  0  0  0  0  0  0  0  0  0  0  0
   -7.0540    3.3388   -9.6836 C   0  0  0  0  0  0  0  0  0  0  0  0
   -6.7427    4.3876  -12.0082 N   0  0  0  0  0  0  0  0  0  0  0  0
   -5.9862    3.3305  -12.6782 C   0  0  0  0  0  0  0  0  0  0  0  0
   -4.8188    2.7266  -11.8995 C   0  0  0  0  0  0  0  0  0  0  0  0
   -6.9036    2.2551  -13.2194 C   0  0  0  0  0  0  0  0  0  0  0  0
   -7.3577    5.4565  -12.6490 C   0  0  0  0  0  0  0  0  0  0  0  0
   -7.4671    5.6504  -14.0004 N   0  0  0  0  0  0  0  0  0  0  0  0
   -6.4124    5.5370  -15.1156 C   0  0  0  0  0  0  0  0  0  0  0  0
   -5.2663    5.3362  -15.0540 O   0  0  0  0  0  0  0  0  0  0  0  0
   -7.0902    5.6200  -16.4380 C   0  0  1  0  0  0  0  0  0  0  0  0
   -6.5800    4.8170  -17.6059 C   0  0  0  0  0  0  0  0  0  0  0  0
   -7.8029    4.3579  -16.8678 C   0  0  2  0  0  0  0  0  0  0  0  0
   -9.4490    4.3892  -17.7993 Br  0  0  0  0  0  0  0  0  0  0  0  0
  1  2  1  0
  2  3  1  0
  3  4  2  0
  4  5  1  0
  4  6  1  0
  6  7  1  0
  7  8  1  0
  7  9  1  0
  6 10  1  0
 10 11  1  0
 11 12  1  0
 12 13  2  0
 14 12  1  1
 14 15  1  0
 15 16  1  0
 16 17  1  6
 10  2  2  0
 16 14  1  0
M  END
>  <energy_score>  (3058) 
-12.222413

>  <alias>  (3058) 
None

>  <HIPPO Pose ID>  (3058) 
76306

>  <smiles>  (3058) 
Cc1nc(C)n(C(C)C)c1NC(=O)[C@H]1C[C@@H]1Br

>  <inchikey>  (3058) 
XQLAXRXPWUUDCL-UWVGGRQHSA-N

>  <distance_score>  (3058) 
1.349249

>  <ref_mols>  (3058) 
Z0719a,Z1597a

>  <ref_pdb>  (3058) 
Z0719a

>  <HIPPO Compound ID>  (3058) 
151650

>  <name>  (3058) 
P76306

>  <inspiration_score>  (3058) 
None

$$$$
P76309
     RDKit          3D

 17 19  0  0  0  0  0  0  0  0999 V2000
   -7.7930    6.6680  -15.4396 O   0  0  0  0  0  0  0  0  0  0  0  0
   -7.8659    5.5887  -15.0117 C   0  0  0  0  0  0  0  0  0  0  0  0
   -8.0956    5.1008  -13.5701 N   0  0  0  0  0  0  0  0  0  0  0  0
   -8.1841    5.7977  -12.4056 C   0  0  0  0  0  0  0  0  0  0  0  0
   -8.2365    7.1647  -12.4512 N   0  0  0  0  0  0  0  0  0  0  0  0
   -8.3364    7.6353  -11.1810 C   0  0  0  0  0  0  0  0  0  0  0  0
   -8.3261    6.6553  -10.3116 N   0  0  0  0  0  0  0  0  0  0  0  0
   -8.2323    5.4902  -11.0634 C   0  0  0  0  0  0  0  0  0  0  0  0
   -8.1699    4.2060  -10.3905 C   0  0  0  0  0  0  0  0  0  0  0  0
   -8.3377    4.1342   -9.0352 N   0  0  0  0  0  0  0  0  0  0  0  0
   -8.2231    2.8573   -8.7197 N   0  0  0  0  0  0  0  0  0  0  0  0
   -7.9882    2.2387   -9.8852 N   0  0  0  0  0  0  0  0  0  0  0  0
   -7.9000    3.0289  -10.9721 N   0  0  0  0  0  0  0  0  0  0  0  0
   -7.7382    4.4306  -15.9507 C   0  0  1  0  0  0  0  0  0  0  0  0
   -8.6825    4.3085  -17.1253 C   0  0  0  0  0  0  0  0  0  0  0  0
   -7.2220    4.5295  -17.3677 C   0  0  1  0  0  0  0  0  0  0  0  0
   -6.7205    6.1133  -18.2619 Br  0  0  0  0  0  0  0  0  0  0  0  0
  1  2  2  0
  2  3  1  0
  3  4  1  0
  4  5  1  0
  5  6  1  0
  6  7  2  0
  7  8  1  0
  8  9  1  0
  9 10  1  0
 10 11  2  0
 11 12  1  0
 12 13  1  0
 14  2  1  1
 14 15  1  0
 15 16  1  0
 16 17  1  1
  8  4  2  0
 13  9  2  0
 16 14  1  0
M  END
>  <energy_score>  (3059) 
-1.422989

>  <alias>  (3059) 
None

>  <HIPPO Pose ID>  (3059) 
76309

>  <smiles>  (3059) 
O=C(Nc1[nH]cnc1-c1nn[nH]n1)[C@H]1C[C@H]1Br

>  <inchikey>  (3059) 
SYPBQGYBBZIMQJ-IUYQGCFVSA-N

>  <distance_score>  (3059) 
1.613045

>  <ref_mols>  (3059) 
Z0719a,Z1597a

>  <ref_pdb>  (3059) 
Z0719a

>  <HIPPO Compound ID>  (3059) 
151651

>  <name>  (3059) 
P76309

>  <inspiration_score>  (3059) 
None

$$$$
P76312
     RDKit          3D

 17 17  0  0  0  0  0  0  0  0999 V2000
   -7.6798    3.9363  -10.7765 C   0  0  0  0  0  0  0  0  0  0  0  0
   -8.5812    4.3804  -11.8978 C   0  0  0  0  0  0  0  0  0  0  0  0
   -7.7878    4.4796  -13.0748 O   0  0  0  0  0  0  0  0  0  0  0  0
   -8.4019    5.0130  -14.1680 C   0  0  0  0  0  0  0  0  0  0  0  0
   -9.5390    5.4764  -14.1462 O   0  0  0  0  0  0  0  0  0  0  0  0
   -7.4705    4.9907  -15.2885 C   0  0  0  0  0  0  0  0  0  0  0  0
   -7.6681    5.6657  -16.4180 N   0  0  0  0  0  0  0  0  0  0  0  0
   -6.5699    5.4446  -17.1897 C   0  0  0  0  0  0  0  0  0  0  0  0
   -6.3723    6.0644  -18.3746 N   0  0  0  0  0  0  0  0  0  0  0  0
   -5.1222    6.0920  -19.3062 C   0  0  0  0  0  0  0  0  0  0  0  0
   -4.1026    5.5197  -19.2260 O   0  0  0  0  0  0  0  0  0  0  0  0
   -5.4306    7.1586  -20.3830 C   0  0  2  0  0  0  0  0  0  0  0  0
   -4.1837    7.4951  -21.1871 C   0  0  0  0  0  0  0  0  0  0  0  0
   -5.9339    8.3658  -19.7926 O   0  0  0  0  0  0  0  0  0  0  0  0
   -5.6904    4.6118  -16.5646 C   0  0  0  0  0  0  0  0  0  0  0  0
   -6.2514    4.3373  -15.3500 N   0  0  0  0  0  0  0  0  0  0  0  0
   -5.6267    3.5312  -14.3226 C   0  0  0  0  0  0  0  0  0  0  0  0
  1  2  1  0
  2  3  1  0
  3  4  1  0
  4  5  2  0
  4  6  1  0
  6  7  2  0
  7  8  1  0
  8  9  1  0
  9 10  1  0
 10 11  2  0
 10 12  1  0
 12 13  1  1
 12 14  1  0
  8 15  2  0
 15 16  1  0
 16 17  1  0
 16  6  1  0
M  END
>  <energy_score>  (3060) 
-41.954008

>  <alias>  (3060) 
None

>  <HIPPO Pose ID>  (3060) 
76312

>  <smiles>  (3060) 
CCOC(=O)c1nc(NC(=O)[C@H](C)O)cn1C

>  <inchikey>  (3060) 
RCVWZCWETZMOEX-LURJTMIESA-N

>  <distance_score>  (3060) 
1.932887

>  <ref_mols>  (3060) 
Z0719a,Z1597a

>  <ref_pdb>  (3060) 
Z0719a

>  <HIPPO Compound ID>  (3060) 
151657

>  <name>  (3060) 
P76312

>  <inspiration_score>  (3060) 
None

$$$$
P76313
     RDKit          3D

 17 18  0  0  0  0  0  0  0  0999 V2000
   -2.5725    4.2728  -18.5275 N   0  0  0  0  0  0  0  0  0  0  0  0
   -2.5556    5.1757  -17.8000 C   0  0  0  0  0  0  0  0  0  0  0  0
   -2.4033    6.3824  -17.0716 C   0  0  0  0  0  0  0  0  0  0  0  0
   -3.0373    6.9060  -15.9548 C   0  0  0  0  0  0  0  0  0  0  0  0
   -3.9958    6.3917  -15.1400 N   0  0  0  0  0  0  0  0  0  0  0  0
   -4.7011    5.0108  -15.1619 C   0  0  0  0  0  0  0  0  0  0  0  0
   -4.5128    4.0773  -15.8340 O   0  0  0  0  0  0  0  0  0  0  0  0
   -5.7810    5.0806  -14.0800 C   0  0  0  0  0  0  0  0  0  0  0  0
   -6.6409    3.8214  -14.0122 C   0  0  0  0  0  0  0  0  0  0  0  0
   -5.9263    2.6530  -13.3542 C   0  0  0  0  0  0  0  0  0  0  0  0
   -6.7342    1.5592  -13.4020 F   0  0  0  0  0  0  0  0  0  0  0  0
   -2.5934    8.1821  -15.6649 N   0  0  0  0  0  0  0  0  0  0  0  0
   -1.6825    8.4037  -16.5677 C   0  0  0  0  0  0  0  0  0  0  0  0
   -1.5296    7.3645  -17.4200 N   0  0  0  0  0  0  0  0  0  0  0  0
   -0.5211    7.4886  -18.4486 C   0  0  0  0  0  0  0  0  0  0  0  0
   -0.1619    8.9769  -18.5314 C   0  0  0  0  0  0  0  0  0  0  0  0
   -0.6511    9.7263  -16.9236 S   0  0  0  0  0  0  0  0  0  0  0  0
  1  2  3  0
  2  3  1  0
  3  4  2  0
  4  5  1  0
  5  6  1  0
  6  7  2  0
  6  8  1  0
  8  9  1  0
  9 10  1  0
 10 11  1  0
  4 12  1  0
 12 13  2  0
 13 14  1  0
 14 15  1  0
 15 16  1  0
 16 17  1  0
 14  3  1  0
 17 13  1  0
M  END
>  <energy_score>  (3061) 
-11.948406

>  <alias>  (3061) 
None

>  <HIPPO Pose ID>  (3061) 
76313

>  <smiles>  (3061) 
N#Cc1c(NC(=O)CCCF)nc2n1CCS2

>  <inchikey>  (3061) 
ZINZTCQSWXXPCF-UHFFFAOYSA-N

>  <distance_score>  (3061) 
1.086486

>  <ref_mols>  (3061) 
Z0719a,Z1597a

>  <ref_pdb>  (3061) 
Z0719a

>  <HIPPO Compound ID>  (3061) 
151666

>  <name>  (3061) 
P76313

>  <inspiration_score>  (3061) 
None

$$$$
P76314
     RDKit          3D

 17 17  0  0  0  0  0  0  0  0999 V2000
   -5.1763    8.7460  -21.3009 C   0  0  0  0  0  0  0  0  0  0  0  0
   -4.4427    8.1155  -20.3723 C   0  0  0  0  0  0  0  0  0  0  0  0
   -4.4748    6.6422  -20.1209 C   0  0  1  0  0  0  0  0  0  0  0  0
   -2.8702    5.9857  -20.6092 Cl  0  0  0  0  0  0  0  0  0  0  0  0
   -4.6713    6.3091  -18.6280 C   0  0  0  0  0  0  0  0  0  0  0  0
   -3.8466    6.5473  -17.8278 O   0  0  0  0  0  0  0  0  0  0  0  0
   -6.0353    5.5590  -18.4837 N   0  0  0  0  0  0  0  0  0  0  0  0
   -6.6553    5.0717  -17.3884 C   0  0  0  0  0  0  0  0  0  0  0  0
   -6.0726    4.8909  -16.1669 C   0  0  0  0  0  0  0  0  0  0  0  0
   -7.0288    4.3018  -15.3938 N   0  0  0  0  0  0  0  0  0  0  0  0
   -6.8864    3.9920  -13.9892 C   0  0  0  0  0  0  0  0  0  0  0  0
   -5.9497    2.8702  -13.6543 C   0  0  0  0  0  0  0  0  0  0  0  0
   -6.5295    1.6575  -13.7670 F   0  0  0  0  0  0  0  0  0  0  0  0
   -5.5716    3.0110  -12.3676 F   0  0  0  0  0  0  0  0  0  0  0  0
   -4.8120    2.8857  -14.3779 F   0  0  0  0  0  0  0  0  0  0  0  0
   -8.1680    4.2429  -16.1478 C   0  0  0  0  0  0  0  0  0  0  0  0
   -7.9538    4.6810  -17.3724 N   0  0  0  0  0  0  0  0  0  0  0  0
  1  2  2  0
  2  3  1  0
  3  4  1  1
  3  5  1  0
  5  6  2  0
  5  7  1  0
  7  8  1  0
  8  9  2  0
  9 10  1  0
 10 11  1  0
 11 12  1  0
 12 13  1  0
 12 14  1  0
 12 15  1  0
 10 16  1  0
 16 17  2  0
 17  8  1  0
M  END
>  <energy_score>  (3062) 
-21.986165

>  <alias>  (3062) 
None

>  <HIPPO Pose ID>  (3062) 
76314

>  <smiles>  (3062) 
C=C[C@@H](Cl)C(=O)Nc1cn(CC(F)(F)F)cn1

>  <inchikey>  (3062) 
UUSADYGFUPXYFN-ZCFIWIBFSA-N

>  <distance_score>  (3062) 
1.954129

>  <ref_mols>  (3062) 
Z0719a,Z1597a

>  <ref_pdb>  (3062) 
Z0719a

>  <HIPPO Compound ID>  (3062) 
151677

>  <name>  (3062) 
P76314

>  <inspiration_score>  (3062) 
None

$$$$
P76315
     RDKit          3D

 17 18  0  0  0  0  0  0  0  0999 V2000
   -4.0872    8.0922  -20.9836 C   0  0  0  0  0  0  0  0  0  0  0  0
   -4.4974    7.0163  -20.2957 C   0  0  0  0  0  0  0  0  0  0  0  0
   -3.8224    6.4836  -19.0609 C   0  0  2  0  0  0  0  0  0  0  0  0
   -3.1244    4.8807  -19.3910 Cl  0  0  0  0  0  0  0  0  0  0  0  0
   -4.7192    6.4172  -17.7963 C   0  0  0  0  0  0  0  0  0  0  0  0
   -4.4685    7.0639  -16.8501 O   0  0  0  0  0  0  0  0  0  0  0  0
   -5.9069    5.4386  -18.0677 N   0  0  0  0  0  0  0  0  0  0  0  0
   -7.0110    5.1492  -17.3106 C   0  0  0  0  0  0  0  0  0  0  0  0
   -8.2234    4.6062  -17.6979 C   0  0  0  0  0  0  0  0  0  0  0  0
   -8.6756    4.1334  -19.0071 C   0  0  0  0  0  0  0  0  0  0  0  0
   -9.1353    4.6305  -16.6687 N   0  0  0  0  0  0  0  0  0  0  0  0
   -8.5049    5.1857  -15.6593 C   0  0  0  0  0  0  0  0  0  0  0  0
   -9.0873    5.6147  -14.3698 C   0  0  0  0  0  0  0  0  0  0  0  0
   -7.1853    5.3567  -15.9695 N   0  0  0  0  0  0  0  0  0  0  0  0
   -6.1607    5.5571  -14.9366 C   0  0  0  0  0  0  0  0  0  0  0  0
   -5.0682    4.5590  -14.6801 C   0  0  0  0  0  0  0  0  0  0  0  0
   -6.1580    4.7113  -13.6692 C   0  0  0  0  0  0  0  0  0  0  0  0
  1  2  2  0
  2  3  1  0
  3  4  1  6
  3  5  1  0
  5  6  2  0
  5  7  1  0
  7  8  1  0
  8  9  2  0
  9 10  1  0
  9 11  1  0
 11 12  2  0
 12 13  1  0
 12 14  1  0
 14 15  1  0
 15 16  1  0
 16 17  1  0
 14  8  1  0
 17 15  1  0
M  END
>  <energy_score>  (3063) 
-33.7769

>  <alias>  (3063) 
None

>  <HIPPO Pose ID>  (3063) 
76315

>  <smiles>  (3063) 
C=C[C@H](Cl)C(=O)Nc1c(C)nc(C)n1C1CC1

>  <inchikey>  (3063) 
VNWYAXDHRRBEAS-JTQLQIEISA-N

>  <distance_score>  (3063) 
1.670505

>  <ref_mols>  (3063) 
Z0719a,Z1597a

>  <ref_pdb>  (3063) 
Z0719a

>  <HIPPO Compound ID>  (3063) 
151680

>  <name>  (3063) 
P76315

>  <inspiration_score>  (3063) 
None

$$$$
P76320
     RDKit          3D

 17 18  0  0  0  0  0  0  0  0999 V2000
   -4.5781    7.8934  -19.5168 C   0  0  0  0  0  0  0  0  0  0  0  0
   -4.2040    6.7378  -20.0861 C   0  0  0  0  0  0  0  0  0  0  0  0
   -4.0041    5.4200  -19.3787 C   0  0  1  0  0  0  0  0  0  0  0  0
   -2.2609    5.2232  -19.0359 Cl  0  0  0  0  0  0  0  0  0  0  0  0
   -4.8582    5.1746  -18.1082 C   0  0  0  0  0  0  0  0  0  0  0  0
   -4.4135    5.0049  -17.0370 O   0  0  0  0  0  0  0  0  0  0  0  0
   -6.3451    5.1420  -18.6078 N   0  0  0  0  0  0  0  0  0  0  0  0
   -7.4953    4.8197  -17.9457 C   0  0  0  0  0  0  0  0  0  0  0  0
   -8.6861    4.8359  -18.6236 N   0  0  0  0  0  0  0  0  0  0  0  0
   -9.6640    4.3855  -17.7889 C   0  0  0  0  0  0  0  0  0  0  0  0
   -9.1828    4.0829  -16.6121 N   0  0  0  0  0  0  0  0  0  0  0  0
   -7.8452    4.4215  -16.6688 C   0  0  0  0  0  0  0  0  0  0  0  0
   -7.0510    4.3544  -15.4494 C   0  0  0  0  0  0  0  0  0  0  0  0
   -6.9228    3.1946  -14.7317 N   0  0  0  0  0  0  0  0  0  0  0  0
   -6.0881    3.4512  -13.7365 N   0  0  0  0  0  0  0  0  0  0  0  0
   -5.8192    4.7518  -13.8678 N   0  0  0  0  0  0  0  0  0  0  0  0
   -6.4242    5.3958  -14.8769 N   0  0  0  0  0  0  0  0  0  0  0  0
  1  2  2  0
  2  3  1  0
  3  4  1  1
  3  5  1  0
  5  6  2  0
  5  7  1  0
  7  8  1  0
  8  9  1  0
  9 10  1  0
 10 11  2  0
 11 12  1  0
 12 13  1  0
 13 14  1  0
 14 15  2  0
 15 16  1  0
 16 17  1  0
 12  8  2  0
 17 13  2  0
M  END
>  <energy_score>  (3064) 
-7.891853

>  <alias>  (3064) 
None

>  <HIPPO Pose ID>  (3064) 
76320

>  <smiles>  (3064) 
C=C[C@@H](Cl)C(=O)Nc1[nH]cnc1-c1nn[nH]n1

>  <inchikey>  (3064) 
CTVPBIJGPNUVJZ-SCSAIBSYSA-N

>  <distance_score>  (3064) 
1.945167

>  <ref_mols>  (3064) 
Z0719a,Z1597a

>  <ref_pdb>  (3064) 
Z0719a

>  <HIPPO Compound ID>  (3064) 
151683

>  <name>  (3064) 
P76320

>  <inspiration_score>  (3064) 
None

$$$$
P76326
     RDKit          3D

 17 18  0  0  0  0  0  0  0  0999 V2000
   -3.9910    7.6005  -21.6378 C   0  0  0  0  0  0  0  0  0  0  0  0
   -4.6855    7.2930  -20.3193 C   0  0  0  0  0  0  0  0  0  0  0  0
   -4.1010    6.1399  -19.4985 C   0  0  1  0  0  0  0  0  0  0  0  0
   -2.3212    6.2680  -19.3292 Cl  0  0  0  0  0  0  0  0  0  0  0  0
   -4.7479    6.0861  -18.0920 C   0  0  0  0  0  0  0  0  0  0  0  0
   -4.2248    6.4765  -17.1201 O   0  0  0  0  0  0  0  0  0  0  0  0
   -6.1507    5.4257  -18.2911 N   0  0  0  0  0  0  0  0  0  0  0  0
   -7.0980    5.0482  -17.3695 C   0  0  0  0  0  0  0  0  0  0  0  0
   -8.3241    4.4806  -17.6680 C   0  0  0  0  0  0  0  0  0  0  0  0
   -8.9023    4.1472  -18.9694 C   0  0  0  0  0  0  0  0  0  0  0  0
   -9.0657    4.2368  -16.5463 N   0  0  0  0  0  0  0  0  0  0  0  0
   -8.3271    4.6575  -15.5461 C   0  0  0  0  0  0  0  0  0  0  0  0
   -8.7330    4.6666  -14.1252 C   0  0  0  0  0  0  0  0  0  0  0  0
   -7.1077    5.1020  -15.9964 N   0  0  0  0  0  0  0  0  0  0  0  0
   -6.0454    5.5701  -15.0961 C   0  0  0  0  0  0  0  0  0  0  0  0
   -4.8146    4.7443  -14.8343 C   0  0  0  0  0  0  0  0  0  0  0  0
   -5.7721    4.9847  -13.7184 C   0  0  0  0  0  0  0  0  0  0  0  0
  1  2  1  0
  2  3  1  0
  3  4  1  1
  3  5  1  0
  5  6  2  0
  5  7  1  0
  7  8  1  0
  8  9  2  0
  9 10  1  0
  9 11  1  0
 11 12  2  0
 12 13  1  0
 12 14  1  0
 14 15  1  0
 15 16  1  0
 16 17  1  0
 14  8  1  0
 17 15  1  0
M  END
>  <energy_score>  (3065) 
-23.201075

>  <alias>  (3065) 
None

>  <HIPPO Pose ID>  (3065) 
76326

>  <smiles>  (3065) 
CC[C@@H](Cl)C(=O)Nc1c(C)nc(C)n1C1CC1

>  <inchikey>  (3065) 
RQOBBNPTBXPLGW-SNVBAGLBSA-N

>  <distance_score>  (3065) 
1.663895

>  <ref_mols>  (3065) 
Z0719a,Z1597a

>  <ref_pdb>  (3065) 
Z0719a

>  <HIPPO Compound ID>  (3065) 
151689

>  <name>  (3065) 
P76326

>  <inspiration_score>  (3065) 
None

$$$$
P76327
     RDKit          3D

 17 18  0  0  0  0  0  0  0  0999 V2000
   -4.0518    8.3584  -23.9349 C   0  0  0  0  0  0  0  0  0  0  0  0
   -3.7561    7.6579  -22.6140 C   0  0  0  0  0  0  0  0  0  0  0  0
   -4.9842    7.5328  -21.7208 C   0  0  2  0  0  0  0  0  0  0  0  0
   -5.4636    9.1463  -21.0990 Cl  0  0  0  0  0  0  0  0  0  0  0  0
   -4.6544    6.6656  -20.5059 C   0  0  0  0  0  0  0  0  0  0  0  0
   -3.5615    6.5188  -20.1086 O   0  0  0  0  0  0  0  0  0  0  0  0
   -6.0101    6.1359  -19.9505 N   0  0  0  0  0  0  0  0  0  0  0  0
   -6.2849    5.4507  -18.8274 C   0  0  0  0  0  0  0  0  0  0  0  0
   -7.5350    5.0868  -18.3916 C   0  0  0  0  0  0  0  0  0  0  0  0
   -7.3380    4.7259  -17.0951 N   0  0  0  0  0  0  0  0  0  0  0  0
   -8.3056    4.6499  -16.1505 N   0  0  0  0  0  0  0  0  0  0  0  0
   -7.8022    4.5088  -14.9683 C   0  0  0  0  0  0  0  0  0  0  0  0
   -8.8657    4.7335  -13.6552 Cl  0  0  0  0  0  0  0  0  0  0  0  0
   -6.3793    4.2774  -14.6294 C   0  0  0  0  0  0  0  0  0  0  0  0
   -5.4902    4.4165  -15.6090 C   0  0  0  0  0  0  0  0  0  0  0  0
   -5.9655    4.7346  -16.8888 C   0  0  0  0  0  0  0  0  0  0  0  0
   -5.3083    5.1495  -17.9395 N   0  0  0  0  0  0  0  0  0  0  0  0
  1  2  1  0
  2  3  1  0
  3  4  1  1
  3  5  1  0
  5  6  2  0
  5  7  1  0
  7  8  1  0
  8  9  2  0
  9 10  1  0
 10 11  1  0
 11 12  2  0
 12 13  1  0
 12 14  1  0
 14 15  2  0
 15 16  1  0
 16 17  2  0
 17  8  1  0
 16 10  1  0
M  END
>  <energy_score>  (3066) 
-39.588334

>  <alias>  (3066) 
None

>  <HIPPO Pose ID>  (3066) 
76327

>  <smiles>  (3066) 
CC[C@H](Cl)C(=O)Nc1cn2nc(Cl)ccc2n1

>  <inchikey>  (3066) 
HUNVJNCLYZOCTB-LURJTMIESA-N

>  <distance_score>  (3066) 
1.957196

>  <ref_mols>  (3066) 
Z0719a,Z1597a

>  <ref_pdb>  (3066) 
Z0719a

>  <HIPPO Compound ID>  (3066) 
151690

>  <name>  (3066) 
P76327

>  <inspiration_score>  (3066) 
None

$$$$
P76333
     RDKit          3D

 17 18  0  0  0  0  0  0  0  0999 V2000
   -0.0410    0.0204  -11.0687 C   0  0  0  0  0  0  0  0  0  0  0  0
   -1.2945    0.6200  -11.6922 C   0  0  0  0  0  0  0  0  0  0  0  0
   -1.9293    1.7226  -10.8413 C   0  0  1  0  0  0  0  0  0  0  0  0
   -0.8283    3.1294  -10.6631 Cl  0  0  0  0  0  0  0  0  0  0  0  0
   -3.2629    2.1947  -11.4489 C   0  0  0  0  0  0  0  0  0  0  0  0
   -4.2896    1.8469  -11.0114 O   0  0  0  0  0  0  0  0  0  0  0  0
   -2.9419    3.0532  -12.7076 N   0  0  0  0  0  0  0  0  0  0  0  0
   -3.7706    3.6949  -13.5720 C   0  0  0  0  0  0  0  0  0  0  0  0
   -3.2429    4.6631  -14.4047 N   0  0  0  0  0  0  0  0  0  0  0  0
   -4.2858    5.1116  -15.0470 C   0  0  0  0  0  0  0  0  0  0  0  0
   -5.4293    4.4787  -14.6958 N   0  0  0  0  0  0  0  0  0  0  0  0
   -5.1251    3.5177  -13.7911 C   0  0  0  0  0  0  0  0  0  0  0  0
   -6.0343    2.5350  -13.3384 C   0  0  0  0  0  0  0  0  0  0  0  0
   -6.8241    1.7158  -13.1211 N   0  0  0  0  0  0  0  0  0  0  0  0
   -6.6477    4.8547  -15.3739 C   0  0  0  0  0  0  0  0  0  0  0  0
   -6.3617    6.1934  -16.0593 C   0  0  0  0  0  0  0  0  0  0  0  0
   -4.5327    6.3234  -16.2368 S   0  0  0  0  0  0  0  0  0  0  0  0
  1  2  1  0
  2  3  1  0
  3  4  1  6
  3  5  1  0
  5  6  2  0
  5  7  1  0
  7  8  1  0
  8  9  1  0
  9 10  2  0
 10 11  1  0
 11 12  1  0
 12 13  1  0
 13 14  3  0
 11 15  1  0
 15 16  1  0
 16 17  1  0
 12  8  2  0
 17 10  1  0
M  END
>  <energy_score>  (3067) 
-37.360993

>  <alias>  (3067) 
None

>  <HIPPO Pose ID>  (3067) 
76333

>  <smiles>  (3067) 
CC[C@@H](Cl)C(=O)Nc1nc2n(c1C#N)CCS2

>  <inchikey>  (3067) 
HVRBFEHZOGLUEU-ZCFIWIBFSA-N

>  <distance_score>  (3067) 
1.175693

>  <ref_mols>  (3067) 
Z0719a,Z1597a

>  <ref_pdb>  (3067) 
Z0719a

>  <HIPPO Compound ID>  (3067) 
151701

>  <name>  (3067) 
P76333

>  <inspiration_score>  (3067) 
None

$$$$
P76336
     RDKit          3D

 17 18  0  0  0  0  0  0  0  0999 V2000
   -3.6126    7.4282  -21.3414 C   0  0  0  0  0  0  0  0  0  0  0  0
   -4.3611    6.9742  -20.0977 C   0  0  0  0  0  0  0  0  0  0  0  0
   -3.8246    5.6900  -19.4559 C   0  0  1  0  0  0  0  0  0  0  0  0
   -2.3982    5.7464  -19.3716 O   0  0  0  0  0  0  0  0  0  0  0  0
   -4.4469    5.4735  -18.0483 C   0  0  0  0  0  0  0  0  0  0  0  0
   -3.8210    5.5887  -17.0656 O   0  0  0  0  0  0  0  0  0  0  0  0
   -5.9357    5.0710  -18.2541 N   0  0  0  0  0  0  0  0  0  0  0  0
   -6.9321    4.8330  -17.3356 C   0  0  0  0  0  0  0  0  0  0  0  0
   -8.2289    4.4531  -17.6661 C   0  0  0  0  0  0  0  0  0  0  0  0
   -8.8259    4.1992  -18.9792 C   0  0  0  0  0  0  0  0  0  0  0  0
   -9.0197    4.2833  -16.5681 N   0  0  0  0  0  0  0  0  0  0  0  0
   -8.2237    4.5582  -15.5711 C   0  0  0  0  0  0  0  0  0  0  0  0
   -8.5681    4.5871  -14.1845 C   0  0  0  0  0  0  0  0  0  0  0  0
   -7.7222    4.9340  -13.2549 N   0  0  0  0  0  0  0  0  0  0  0  0
   -6.4398    5.2089  -13.6654 C   0  0  0  0  0  0  0  0  0  0  0  0
   -6.0364    5.1999  -14.9472 C   0  0  0  0  0  0  0  0  0  0  0  0
   -6.9427    4.8885  -15.9511 N   0  0  0  0  0  0  0  0  0  0  0  0
  1  2  1  0
  2  3  1  0
  3  4  1  1
  3  5  1  0
  5  6  2  0
  5  7  1  0
  7  8  1  0
  8  9  2  0
  9 10  1  0
  9 11  1  0
 11 12  2  0
 12 13  1  0
 13 14  2  0
 14 15  1  0
 15 16  2  0
 16 17  1  0
 17  8  1  0
 17 12  1  0
M  END
>  <energy_score>  (3068) 
-26.2314

>  <alias>  (3068) 
None

>  <HIPPO Pose ID>  (3068) 
76336

>  <smiles>  (3068) 
CC[C@@H](O)C(=O)Nc1c(C)nc2cnccn12

>  <inchikey>  (3068) 
GNRYNLYQPPEDFP-MRVPVSSYSA-N

>  <distance_score>  (3068) 
1.600662

>  <ref_mols>  (3068) 
Z0719a,Z1597a

>  <ref_pdb>  (3068) 
Z0719a

>  <HIPPO Compound ID>  (3068) 
151710

>  <name>  (3068) 
P76336

>  <inspiration_score>  (3068) 
None

$$$$
P76341
     RDKit          3D

 17 17  0  0  0  0  0  0  0  0999 V2000
   -8.7645    4.2688  -18.8219 C   0  0  0  0  0  0  0  0  0  0  0  0
   -8.3077    4.5548  -17.4530 C   0  0  0  0  0  0  0  0  0  0  0  0
   -9.1943    4.3828  -16.4335 N   0  0  0  0  0  0  0  0  0  0  0  0
   -8.5342    4.6979  -15.3501 C   0  0  0  0  0  0  0  0  0  0  0  0
   -9.0565    4.6634  -13.9675 C   0  0  0  0  0  0  0  0  0  0  0  0
   -7.2391    5.0854  -15.6322 N   0  0  0  0  0  0  0  0  0  0  0  0
   -6.3608    5.4508  -14.5388 C   0  0  0  0  0  0  0  0  0  0  0  0
   -5.4534    4.2999  -14.1590 C   0  0  0  0  0  0  0  0  0  0  0  0
   -5.7732    6.8465  -14.6307 C   0  0  0  0  0  0  0  0  0  0  0  0
   -7.0603    4.9640  -16.9943 C   0  0  0  0  0  0  0  0  0  0  0  0
   -5.9844    5.1529  -17.8353 N   0  0  0  0  0  0  0  0  0  0  0  0
   -4.5081    5.5288  -17.5189 C   0  0  0  0  0  0  0  0  0  0  0  0
   -3.9981    5.8109  -16.5037 O   0  0  0  0  0  0  0  0  0  0  0  0
   -3.7313    5.5751  -18.8732 C   0  0  1  0  0  0  0  0  0  0  0  0
   -4.0228    4.5819  -19.8387 O   0  0  0  0  0  0  0  0  0  0  0  0
   -3.7154    6.9581  -19.5130 C   0  0  0  0  0  0  0  0  0  0  0  0
   -5.4602    7.5403  -20.1310 Br  0  0  0  0  0  0  0  0  0  0  0  0
  1  2  1  0
  2  3  1  0
  3  4  2  0
  4  5  1  0
  4  6  1  0
  6  7  1  0
  7  8  1  0
  7  9  1  0
  6 10  1  0
 10 11  1  0
 11 12  1  0
 12 13  2  0
 12 14  1  0
 14 15  1  6
 14 16  1  0
 16 17  1  0
 10  2  2  0
M  END
>  <energy_score>  (3069) 
-27.36207

>  <alias>  (3069) 
None

>  <HIPPO Pose ID>  (3069) 
76341

>  <smiles>  (3069) 
Cc1nc(C)n(C(C)C)c1NC(=O)[C@@H](O)CBr

>  <inchikey>  (3069) 
ZUPZCXADKPASQM-VIFPVBQESA-N

>  <distance_score>  (3069) 
1.889986

>  <ref_mols>  (3069) 
Z0719a,Z1597a

>  <ref_pdb>  (3069) 
Z0719a

>  <HIPPO Compound ID>  (3069) 
151724

>  <name>  (3069) 
P76341

>  <inspiration_score>  (3069) 
None

$$$$
P76342
     RDKit          3D

 17 18  0  0  0  0  0  0  0  0999 V2000
   -6.8405    1.7843  -13.3094 N   0  0  0  0  0  0  0  0  0  0  0  0
   -6.0198    2.6007  -13.2973 C   0  0  0  0  0  0  0  0  0  0  0  0
   -4.9451    3.5150  -13.2702 C   0  0  0  0  0  0  0  0  0  0  0  0
   -4.9181    4.8832  -13.0587 C   0  0  0  0  0  0  0  0  0  0  0  0
   -5.9828    5.6969  -12.8125 N   0  0  0  0  0  0  0  0  0  0  0  0
   -6.0345    7.2046  -12.4267 C   0  0  0  0  0  0  0  0  0  0  0  0
   -5.1762    7.9935  -12.3375 O   0  0  0  0  0  0  0  0  0  0  0  0
   -7.5183    7.5065  -12.1267 C   0  0  2  0  0  0  0  0  0  0  0  0
   -8.3569    6.7569  -13.0104 O   0  0  0  0  0  0  0  0  0  0  0  0
   -7.7634    9.0054  -12.2471 C   0  0  0  0  0  0  0  0  0  0  0  0
   -9.5921    9.4542  -11.7336 Br  0  0  0  0  0  0  0  0  0  0  0  0
   -3.6288    5.3699  -13.0763 N   0  0  0  0  0  0  0  0  0  0  0  0
   -2.8970    4.3059  -13.2422 C   0  0  0  0  0  0  0  0  0  0  0  0
   -3.6366    3.1808  -13.3853 N   0  0  0  0  0  0  0  0  0  0  0  0
   -2.9290    1.9229  -13.4604 C   0  0  0  0  0  0  0  0  0  0  0  0
   -1.5145    2.1946  -12.9356 C   0  0  0  0  0  0  0  0  0  0  0  0
   -1.2103    3.9940  -13.1840 S   0  0  0  0  0  0  0  0  0  0  0  0
  1  2  3  0
  2  3  1  0
  3  4  2  0
  4  5  1  0
  5  6  1  0
  6  7  2  0
  6  8  1  0
  8  9  1  6
  8 10  1  0
 10 11  1  0
  4 12  1  0
 12 13  2  0
 13 14  1  0
 14 15  1  0
 15 16  1  0
 16 17  1  0
 14  3  1  0
 17 13  1  0
M  END
>  <energy_score>  (3070) 
-33.496917

>  <alias>  (3070) 
None

>  <HIPPO Pose ID>  (3070) 
76342

>  <smiles>  (3070) 
N#Cc1c(NC(=O)[C@H](O)CBr)nc2n1CCS2

>  <inchikey>  (3070) 
FWEDYLPBDKZFNS-ZCFIWIBFSA-N

>  <distance_score>  (3070) 
1.182739

>  <ref_mols>  (3070) 
Z0719a,Z1597a

>  <ref_pdb>  (3070) 
Z0719a

>  <HIPPO Compound ID>  (3070) 
151727

>  <name>  (3070) 
P76342

>  <inspiration_score>  (3070) 
None

$$$$
P76345
     RDKit          3D

 17 17  0  0  0  0  0  0  0  0999 V2000
   -4.1900    5.6433  -18.6339 O   0  0  0  0  0  0  0  0  0  0  0  0
   -5.2257    6.0677  -18.9750 C   0  0  0  0  0  0  0  0  0  0  0  0
   -6.6335    5.9310  -18.3279 N   0  0  0  0  0  0  0  0  0  0  0  0
   -7.0408    5.2155  -17.2567 C   0  0  0  0  0  0  0  0  0  0  0  0
   -6.2835    4.5204  -16.3514 C   0  0  0  0  0  0  0  0  0  0  0  0
   -7.1715    4.0546  -15.4230 N   0  0  0  0  0  0  0  0  0  0  0  0
   -6.9468    3.2868  -14.2185 C   0  0  0  0  0  0  0  0  0  0  0  0
   -5.5656    3.2339  -13.6581 C   0  0  0  0  0  0  0  0  0  0  0  0
   -4.6185    2.8228  -14.5203 F   0  0  0  0  0  0  0  0  0  0  0  0
   -5.5664    2.3607  -12.6246 F   0  0  0  0  0  0  0  0  0  0  0  0
   -5.1967    4.4420  -13.1965 F   0  0  0  0  0  0  0  0  0  0  0  0
   -8.4176    4.4458  -15.8399 C   0  0  0  0  0  0  0  0  0  0  0  0
   -8.3544    5.1722  -16.9291 N   0  0  0  0  0  0  0  0  0  0  0  0
   -5.4231    7.0158  -20.1807 C   0  0  1  0  0  0  0  0  0  0  0  0
   -6.0084    8.2667  -19.7890 O   0  0  0  0  0  0  0  0  0  0  0  0
   -4.1343    7.2343  -20.9587 C   0  0  0  0  0  0  0  0  0  0  0  0
   -2.9207    8.4611  -20.0292 Br  0  0  0  0  0  0  0  0  0  0  0  0
  1  2  2  0
  2  3  1  0
  3  4  1  0
  4  5  2  0
  5  6  1  0
  6  7  1  0
  7  8  1  0
  8  9  1  0
  8 10  1  0
  8 11  1  0
  6 12  1  0
 12 13  2  0
  2 14  1  0
 14 15  1  1
 14 16  1  0
 16 17  1  0
 13  4  1  0
M  END
>  <energy_score>  (3071) 
-34.464148

>  <alias>  (3071) 
None

>  <HIPPO Pose ID>  (3071) 
76345

>  <smiles>  (3071) 
O=C(Nc1cn(CC(F)(F)F)cn1)[C@@H](O)CBr

>  <inchikey>  (3071) 
KNOCRVMHOGUHOB-YFKPBYRVSA-N

>  <distance_score>  (3071) 
1.860919

>  <ref_mols>  (3071) 
Z0719a,Z1597a

>  <ref_pdb>  (3071) 
Z0719a

>  <HIPPO Compound ID>  (3071) 
151731

>  <name>  (3071) 
P76345

>  <inspiration_score>  (3071) 
None

$$$$
P76347
     RDKit          3D

 17 18  0  0  0  0  0  0  0  0999 V2000
   -8.9250    4.1714  -19.0327 C   0  0  0  0  0  0  0  0  0  0  0  0
   -8.3676    4.5587  -17.7409 C   0  0  0  0  0  0  0  0  0  0  0  0
   -9.2187    4.7251  -16.6879 N   0  0  0  0  0  0  0  0  0  0  0  0
   -8.4584    5.0770  -15.6759 C   0  0  0  0  0  0  0  0  0  0  0  0
   -8.9677    5.6039  -14.3921 C   0  0  0  0  0  0  0  0  0  0  0  0
   -7.1319    4.9291  -16.0114 N   0  0  0  0  0  0  0  0  0  0  0  0
   -6.0597    4.5325  -15.0733 C   0  0  0  0  0  0  0  0  0  0  0  0
   -5.6146    5.3644  -13.9038 C   0  0  0  0  0  0  0  0  0  0  0  0
   -6.2895    4.0447  -13.6582 C   0  0  0  0  0  0  0  0  0  0  0  0
   -7.0613    4.8201  -17.3827 C   0  0  0  0  0  0  0  0  0  0  0  0
   -5.9824    4.9173  -18.2225 N   0  0  0  0  0  0  0  0  0  0  0  0
   -4.5117    5.3296  -17.9328 C   0  0  0  0  0  0  0  0  0  0  0  0
   -3.9778    5.5747  -16.9201 O   0  0  0  0  0  0  0  0  0  0  0  0
   -3.7637    5.4084  -19.2844 C   0  0  2  0  0  0  0  0  0  0  0  0
   -2.3537    5.3121  -19.0324 O   0  0  0  0  0  0  0  0  0  0  0  0
   -4.1120    6.7283  -19.9655 C   0  0  0  0  0  0  0  0  0  0  0  0
   -3.0265    7.0458  -21.5548 Br  0  0  0  0  0  0  0  0  0  0  0  0
  1  2  1  0
  2  3  1  0
  3  4  2  0
  4  5  1  0
  4  6  1  0
  6  7  1  0
  7  8  1  0
  8  9  1  0
  6 10  1  0
 10 11  1  0
 11 12  1  0
 12 13  2  0
 12 14  1  0
 14 15  1  1
 14 16  1  0
 16 17  1  0
 10  2  2  0
  9  7  1  0
M  END
>  <energy_score>  (3072) 
-19.310371

>  <alias>  (3072) 
None

>  <HIPPO Pose ID>  (3072) 
76347

>  <smiles>  (3072) 
Cc1nc(C)n(C2CC2)c1NC(=O)[C@H](O)CBr

>  <inchikey>  (3072) 
ARDWUHIOMJDUTD-SECBINFHSA-N

>  <distance_score>  (3072) 
1.621293

>  <ref_mols>  (3072) 
Z0719a,Z1597a

>  <ref_pdb>  (3072) 
Z0719a

>  <HIPPO Compound ID>  (3072) 
151735

>  <name>  (3072) 
P76347

>  <inspiration_score>  (3072) 
None

$$$$
P76351
     RDKit          3D

 17 17  0  0  0  0  0  0  0  0999 V2000
   -5.2981    7.0358  -19.8295 C   0  0  0  0  0  0  0  0  0  0  0  0
   -3.8776    6.5042  -19.7591 C   0  0  0  0  0  0  0  0  0  0  0  0
   -3.7289    5.0999  -19.1580 C   0  0  1  0  0  0  0  0  0  0  0  0
   -2.3337    4.7643  -19.2093 O   0  0  0  0  0  0  0  0  0  0  0  0
   -4.2532    4.9783  -17.6965 C   0  0  0  0  0  0  0  0  0  0  0  0
   -3.5705    5.1331  -16.7598 O   0  0  0  0  0  0  0  0  0  0  0  0
   -5.7600    4.6270  -17.7948 N   0  0  0  0  0  0  0  0  0  0  0  0
   -6.6983    4.4956  -16.8261 C   0  0  0  0  0  0  0  0  0  0  0  0
   -7.9548    4.7346  -17.3153 N   0  0  0  0  0  0  0  0  0  0  0  0
   -8.7601    4.6309  -16.2962 C   0  0  0  0  0  0  0  0  0  0  0  0
   -8.0572    4.4043  -15.1600 N   0  0  0  0  0  0  0  0  0  0  0  0
   -8.5909    4.5379  -13.8271 C   0  0  0  0  0  0  0  0  0  0  0  0
   -6.7312    4.1472  -15.4847 C   0  0  0  0  0  0  0  0  0  0  0  0
   -5.6777    3.4534  -14.2572 S   0  0  0  0  0  0  0  0  0  0  0  0
   -5.4957    4.6409  -13.0968 N   0  0  0  0  0  0  0  0  0  0  0  0
   -6.4173    2.3856  -13.6214 O   0  0  0  0  0  0  0  0  0  0  0  0
   -4.3515    3.2437  -14.7746 O   0  0  0  0  0  0  0  0  0  0  0  0
  1  2  1  0
  2  3  1  0
  3  4  1  1
  3  5  1  0
  5  6  2  0
  5  7  1  0
  7  8  1  0
  8  9  1  0
  9 10  2  0
 10 11  1  0
 11 12  1  0
 11 13  1  0
 13 14  1  0
 14 15  1  0
 14 16  2  0
 14 17  2  0
 13  8  2  0
M  END
>  <energy_score>  (3073) 
-16.59156

>  <alias>  (3073) 
None

>  <HIPPO Pose ID>  (3073) 
76351

>  <smiles>  (3073) 
CC[C@@H](O)C(=O)Nc1ncn(C)c1S(N)(=O)=O

>  <inchikey>  (3073) 
ZYVYVDYFRVPVKH-RXMQYKEDSA-N

>  <distance_score>  (3073) 
1.670342

>  <ref_mols>  (3073) 
Z0719a,Z1597a

>  <ref_pdb>  (3073) 
Z0719a

>  <HIPPO Compound ID>  (3073) 
151739

>  <name>  (3073) 
P76351

>  <inspiration_score>  (3073) 
None

$$$$
P76352
     RDKit          3D

 17 18  0  0  0  0  0  0  0  0999 V2000
   -7.1978    4.5438   -8.8173 C   0  0  0  0  0  0  0  0  0  0  0  0
   -7.6465    4.1456  -10.1208 N   0  0  0  0  0  0  0  0  0  0  0  0
   -8.6782    3.2929  -10.3657 C   0  0  0  0  0  0  0  0  0  0  0  0
   -8.9869    3.2939  -11.6398 N   0  0  0  0  0  0  0  0  0  0  0  0
   -8.0917    4.1337  -12.2243 C   0  0  0  0  0  0  0  0  0  0  0  0
   -8.2291    4.3854  -13.5483 N   0  0  0  0  0  0  0  0  0  0  0  0
   -7.6570    5.5332  -14.4205 C   0  0  0  0  0  0  0  0  0  0  0  0
   -6.9133    6.3988  -14.1463 O   0  0  0  0  0  0  0  0  0  0  0  0
   -8.1253    5.3869  -15.8743 C   0  0  0  0  0  0  0  0  0  0  0  0
   -7.0632    5.8656  -16.9316 C   0  0  0  0  0  0  0  0  0  0  0  0
   -7.7139    4.6648  -18.1142 S   0  0  0  0  0  0  0  0  0  0  0  0
   -8.1189    3.9803  -16.4896 C   0  0  0  0  0  0  0  0  0  0  0  0
   -7.1329    4.5546  -11.3314 C   0  0  0  0  0  0  0  0  0  0  0  0
   -5.5661    5.2929  -11.5132 S   0  0  0  0  0  0  0  0  0  0  0  0
   -4.9972    4.9108  -13.0553 N   0  0  0  0  0  0  0  0  0  0  0  0
   -5.7840    6.7181  -11.4509 O   0  0  0  0  0  0  0  0  0  0  0  0
   -4.6841    4.6310  -10.5796 O   0  0  0  0  0  0  0  0  0  0  0  0
  1  2  1  0
  2  3  1  0
  3  4  2  0
  4  5  1  0
  5  6  1  0
  6  7  1  0
  7  8  2  0
  7  9  1  0
  9 10  1  0
 10 11  1  0
 11 12  1  0
  5 13  2  0
 13 14  1  0
 14 15  1  0
 14 16  2  0
 14 17  2  0
 13  2  1  0
 12  9  1  0
M  END
>  <energy_score>  (3074) 
-24.095855

>  <alias>  (3074) 
None

>  <HIPPO Pose ID>  (3074) 
76352

>  <smiles>  (3074) 
Cn1cnc(NC(=O)C2CSC2)c1S(N)(=O)=O

>  <inchikey>  (3074) 
UTYHGGLEPFHHGR-UHFFFAOYSA-N

>  <distance_score>  (3074) 
1.689004

>  <ref_mols>  (3074) 
Z0719a,Z1597a

>  <ref_pdb>  (3074) 
Z0719a

>  <HIPPO Compound ID>  (3074) 
151742

>  <name>  (3074) 
P76352

>  <inspiration_score>  (3074) 
None

$$$$
P76357
     RDKit          3D

 17 17  0  0  0  0  0  0  0  0999 V2000
   -2.7098    7.7005  -21.2552 C   0  0  0  0  0  0  0  0  0  0  0  0
   -3.5490    6.8020  -20.7234 C   0  0  0  0  0  0  0  0  0  0  0  0
   -3.1485    5.7913  -19.6845 C   0  0  0  0  0  0  0  0  0  0  0  0
   -3.9861    5.9020  -18.4108 C   0  0  0  0  0  0  0  0  0  0  0  0
   -3.5571    6.2980  -17.3976 O   0  0  0  0  0  0  0  0  0  0  0  0
   -5.4047    5.3743  -18.7668 N   0  0  0  0  0  0  0  0  0  0  0  0
   -6.4826    5.1524  -17.9794 C   0  0  0  0  0  0  0  0  0  0  0  0
   -7.6607    4.6333  -18.4347 C   0  0  0  0  0  0  0  0  0  0  0  0
   -8.4920    4.6670  -17.3565 N   0  0  0  0  0  0  0  0  0  0  0  0
   -9.8755    4.2933  -17.4150 C   0  0  0  0  0  0  0  0  0  0  0  0
   -7.7815    5.1225  -16.2664 C   0  0  0  0  0  0  0  0  0  0  0  0
   -8.2871    5.3019  -14.9119 C   0  0  0  0  0  0  0  0  0  0  0  0
   -9.4673    5.3783  -14.5777 O   0  0  0  0  0  0  0  0  0  0  0  0
   -7.2492    5.3948  -14.0275 O   0  0  0  0  0  0  0  0  0  0  0  0
   -7.6146    5.5811  -12.6540 C   0  0  0  0  0  0  0  0  0  0  0  0
   -7.9830    4.2588  -12.0062 C   0  0  0  0  0  0  0  0  0  0  0  0
   -6.5471    5.4357  -16.6495 N   0  0  0  0  0  0  0  0  0  0  0  0
  1  2  2  0
  2  3  1  0
  3  4  1  0
  4  5  2  0
  4  6  1  0
  6  7  1  0
  7  8  2  0
  8  9  1  0
  9 10  1  0
  9 11  1  0
 11 12  1  0
 12 13  2  0
 12 14  1  0
 14 15  1  0
 15 16  1  0
 11 17  2  0
 17  7  1  0
M  END
>  <energy_score>  (3075) 
-10.307031

>  <alias>  (3075) 
None

>  <HIPPO Pose ID>  (3075) 
76357

>  <smiles>  (3075) 
C=CCC(=O)Nc1cn(C)c(C(=O)OCC)n1

>  <inchikey>  (3075) 
LWXGHYIYFCBMJP-UHFFFAOYSA-N

>  <distance_score>  (3075) 
1.409737

>  <ref_mols>  (3075) 
Z0719a,Z1597a

>  <ref_pdb>  (3075) 
Z0719a

>  <HIPPO Compound ID>  (3075) 
151758

>  <name>  (3075) 
P76357

>  <inspiration_score>  (3075) 
None

$$$$
P76358
     RDKit          3D

 17 18  0  0  0  0  0  0  0  0999 V2000
   -2.3469    1.6939   -9.5586 C   0  0  0  0  0  0  0  0  0  0  0  0
   -1.9090    2.2804  -10.9181 C   0  0  0  0  0  0  0  0  0  0  0  0
   -1.1860    1.1731  -11.7018 C   0  0  0  0  0  0  0  0  0  0  0  0
   -0.9633    3.4590  -10.6411 C   0  0  0  0  0  0  0  0  0  0  0  0
   -3.1831    2.7531  -11.6842 C   0  0  0  0  0  0  0  0  0  0  0  0
   -4.2487    2.6598  -11.2172 O   0  0  0  0  0  0  0  0  0  0  0  0
   -2.7340    3.3141  -13.0602 N   0  0  0  0  0  0  0  0  0  0  0  0
   -3.4669    3.7585  -14.1121 C   0  0  0  0  0  0  0  0  0  0  0  0
   -2.7819    4.3632  -15.1471 N   0  0  0  0  0  0  0  0  0  0  0  0
   -3.7261    4.7009  -15.9773 C   0  0  0  0  0  0  0  0  0  0  0  0
   -4.9618    4.3623  -15.5358 N   0  0  0  0  0  0  0  0  0  0  0  0
   -4.8277    3.6818  -14.3656 C   0  0  0  0  0  0  0  0  0  0  0  0
   -5.8712    2.9771  -13.7085 C   0  0  0  0  0  0  0  0  0  0  0  0
   -6.7592    2.3414  -13.3188 N   0  0  0  0  0  0  0  0  0  0  0  0
   -6.0817    4.7253  -16.3755 C   0  0  0  0  0  0  0  0  0  0  0  0
   -5.5084    5.0044  -17.7718 C   0  0  0  0  0  0  0  0  0  0  0  0
   -3.7335    5.4311  -17.5296 S   0  0  0  0  0  0  0  0  0  0  0  0
  1  2  1  0
  2  3  1  0
  2  4  1  0
  2  5  1  0
  5  6  2  0
  5  7  1  0
  7  8  1  0
  8  9  1  0
  9 10  2  0
 10 11  1  0
 11 12  1  0
 12 13  1  0
 13 14  3  0
 11 15  1  0
 15 16  1  0
 16 17  1  0
 12  8  2  0
 17 10  1  0
M  END
>  <energy_score>  (3076) 
-29.206677

>  <alias>  (3076) 
None

>  <HIPPO Pose ID>  (3076) 
76358

>  <smiles>  (3076) 
CC(C)(C)C(=O)Nc1nc2n(c1C#N)CCS2

>  <inchikey>  (3076) 
IJUNTYAOOZUVOF-UHFFFAOYSA-N

>  <distance_score>  (3076) 
1.35514

>  <ref_mols>  (3076) 
Z0719a,Z1597a

>  <ref_pdb>  (3076) 
Z0719a

>  <HIPPO Compound ID>  (3076) 
151761

>  <name>  (3076) 
P76358

>  <inspiration_score>  (3076) 
None

$$$$
P76359
     RDKit          3D

 17 17  0  0  0  0  0  0  0  0999 V2000
   -7.7623    4.0243  -10.9337 C   0  0  0  0  0  0  0  0  0  0  0  0
   -8.5575    4.5833  -12.0848 C   0  0  0  0  0  0  0  0  0  0  0  0
   -7.6899    4.6891  -13.2088 O   0  0  0  0  0  0  0  0  0  0  0  0
   -8.2588    5.1917  -14.3422 C   0  0  0  0  0  0  0  0  0  0  0  0
   -9.3903    5.6668  -14.3721 O   0  0  0  0  0  0  0  0  0  0  0  0
   -7.2980    5.1037  -15.4356 C   0  0  0  0  0  0  0  0  0  0  0  0
   -7.4424    5.7395  -16.5969 N   0  0  0  0  0  0  0  0  0  0  0  0
   -6.3325    5.4470  -17.3317 C   0  0  0  0  0  0  0  0  0  0  0  0
   -6.0879    5.9937  -18.5461 N   0  0  0  0  0  0  0  0  0  0  0  0
   -4.8272    5.9094  -19.4582 C   0  0  0  0  0  0  0  0  0  0  0  0
   -3.8384    5.2912  -19.3328 O   0  0  0  0  0  0  0  0  0  0  0  0
   -5.0019    6.9011  -20.5977 C   0  0  0  0  0  0  0  0  0  0  0  0
   -4.3522    8.2188  -20.2435 C   0  0  0  0  0  0  0  0  0  0  0  0
   -5.5382    9.3927  -19.5087 S   0  0  0  0  0  0  0  0  0  0  0  0
   -5.5009    4.6115  -16.6471 C   0  0  0  0  0  0  0  0  0  0  0  0
   -6.1055    4.4004  -15.4411 N   0  0  0  0  0  0  0  0  0  0  0  0
   -5.5513    3.5894  -14.3769 C   0  0  0  0  0  0  0  0  0  0  0  0
  1  2  1  0
  2  3  1  0
  3  4  1  0
  4  5  2  0
  4  6  1  0
  6  7  2  0
  7  8  1  0
  8  9  1  0
  9 10  1  0
 10 11  2  0
 10 12  1  0
 12 13  1  0
 13 14  1  0
  8 15  2  0
 15 16  1  0
 16 17  1  0
 16  6  1  0
M  END
>  <energy_score>  (3077) 
-38.040067

>  <alias>  (3077) 
None

>  <HIPPO Pose ID>  (3077) 
76359

>  <smiles>  (3077) 
CCOC(=O)c1nc(NC(=O)CCS)cn1C

>  <inchikey>  (3077) 
IGAFUYGKUATBSA-UHFFFAOYSA-N

>  <distance_score>  (3077) 
1.97504

>  <ref_mols>  (3077) 
Z0719a,Z1597a

>  <ref_pdb>  (3077) 
Z0719a

>  <HIPPO Compound ID>  (3077) 
151773

>  <name>  (3077) 
P76359

>  <inspiration_score>  (3077) 
None

$$$$
P76362
     RDKit          3D

 17 18  0  0  0  0  0  0  0  0999 V2000
   -7.1755    3.2847   -9.7687 C   0  0  0  0  0  0  0  0  0  0  0  0
   -7.5038    3.9881  -10.9812 N   0  0  0  0  0  0  0  0  0  0  0  0
   -8.3305    5.0801  -11.0395 C   0  0  0  0  0  0  0  0  0  0  0  0
   -8.5767    5.4410  -12.2817 N   0  0  0  0  0  0  0  0  0  0  0  0
   -7.9071    4.5300  -13.0336 C   0  0  0  0  0  0  0  0  0  0  0  0
   -7.9685    4.3697  -14.3816 N   0  0  0  0  0  0  0  0  0  0  0  0
   -8.6013    5.2532  -15.4621 C   0  0  0  0  0  0  0  0  0  0  0  0
   -9.2386    6.2218  -15.3666 O   0  0  0  0  0  0  0  0  0  0  0  0
   -8.1628    4.5171  -16.8010 C   0  0  0  0  0  0  0  0  0  0  0  0
   -6.6922    4.7923  -17.2334 C   0  0  0  0  0  0  0  0  0  0  0  0
   -7.2448    5.7227  -18.3149 C   0  0  0  0  0  0  0  0  0  0  0  0
   -8.5743    4.9493  -18.2168 C   0  0  0  0  0  0  0  0  0  0  0  0
   -7.1160    3.7033  -12.2659 C   0  0  0  0  0  0  0  0  0  0  0  0
   -5.9755    2.5378  -12.8602 S   0  0  0  0  0  0  0  0  0  0  0  0
   -4.7995    2.1726  -11.7405 N   0  0  0  0  0  0  0  0  0  0  0  0
   -5.2920    3.2001  -13.9496 O   0  0  0  0  0  0  0  0  0  0  0  0
   -6.7304    1.3348  -13.0828 O   0  0  0  0  0  0  0  0  0  0  0  0
  1  2  1  0
  2  3  1  0
  3  4  2  0
  4  5  1  0
  5  6  1  0
  6  7  1  0
  7  8  2  0
  7  9  1  0
  9 10  1  0
 10 11  1  0
 11 12  1  0
  5 13  2  0
 13 14  1  0
 14 15  1  0
 14 16  2  0
 14 17  2  0
 13  2  1  0
 12  9  1  0
M  END
>  <energy_score>  (3078) 
-38.587698

>  <alias>  (3078) 
None

>  <HIPPO Pose ID>  (3078) 
76362

>  <smiles>  (3078) 
Cn1cnc(NC(=O)C2CCC2)c1S(N)(=O)=O

>  <inchikey>  (3078) 
CXIVXVDKSOHHPW-UHFFFAOYSA-N

>  <distance_score>  (3078) 
1.367917

>  <ref_mols>  (3078) 
Z0719a,Z1597a

>  <ref_pdb>  (3078) 
Z0719a

>  <HIPPO Compound ID>  (3078) 
151780

>  <name>  (3078) 
P76362

>  <inspiration_score>  (3078) 
None

$$$$
P76363
     RDKit          3D

 17 18  0  0  0  0  0  0  0  0999 V2000
   -7.7050    6.7630  -14.3645 O   0  0  0  0  0  0  0  0  0  0  0  0
   -8.1887    5.7395  -14.6709 C   0  0  0  0  0  0  0  0  0  0  0  0
   -8.6621    4.5519  -13.7975 N   0  0  0  0  0  0  0  0  0  0  0  0
   -8.5610    4.3467  -12.4686 C   0  0  0  0  0  0  0  0  0  0  0  0
   -8.0183    5.2102  -11.5558 C   0  0  0  0  0  0  0  0  0  0  0  0
   -7.6783    4.3748  -10.5250 N   0  0  0  0  0  0  0  0  0  0  0  0
   -6.4443    4.5231   -9.7988 C   0  0  0  0  0  0  0  0  0  0  0  0
   -5.2854    3.9162  -10.5959 C   0  0  0  0  0  0  0  0  0  0  0  0
   -5.1851    2.5851  -10.3921 F   0  0  0  0  0  0  0  0  0  0  0  0
   -5.3617    4.1238  -11.9403 F   0  0  0  0  0  0  0  0  0  0  0  0
   -4.1143    4.4669  -10.1791 F   0  0  0  0  0  0  0  0  0  0  0  0
   -8.3294    3.1891  -10.7025 C   0  0  0  0  0  0  0  0  0  0  0  0
   -8.8428    3.1393  -11.9100 N   0  0  0  0  0  0  0  0  0  0  0  0
   -8.3501    5.3749  -16.1667 C   0  0  0  0  0  0  0  0  0  0  0  0
   -7.1966    5.8737  -17.1117 C   0  0  0  0  0  0  0  0  0  0  0  0
   -7.4643    4.6385  -17.9754 C   0  0  0  0  0  0  0  0  0  0  0  0
   -7.9975    3.9811  -16.6930 C   0  0  0  0  0  0  0  0  0  0  0  0
  1  2  2  0
  2  3  1  0
  3  4  1  0
  4  5  2  0
  5  6  1  0
  6  7  1  0
  7  8  1  0
  8  9  1  0
  8 10  1  0
  8 11  1  0
  6 12  1  0
 12 13  2  0
  2 14  1  0
 14 15  1  0
 15 16  1  0
 16 17  1  0
 13  4  1  0
 17 14  1  0
M  END
>  <energy_score>  (3079) 
-18.591877

>  <alias>  (3079) 
None

>  <HIPPO Pose ID>  (3079) 
76363

>  <smiles>  (3079) 
O=C(Nc1cn(CC(F)(F)F)cn1)C1CCC1

>  <inchikey>  (3079) 
FHCMSFHUEFUIDN-UHFFFAOYSA-N

>  <distance_score>  (3079) 
1.48038

>  <ref_mols>  (3079) 
Z0719a,Z1597a

>  <ref_pdb>  (3079) 
Z0719a

>  <HIPPO Compound ID>  (3079) 
151781

>  <name>  (3079) 
P76363

>  <inspiration_score>  (3079) 
None

$$$$
P76366
     RDKit          3D

 17 18  0  0  0  0  0  0  0  0999 V2000
   -9.0209    4.1973  -18.9497 C   0  0  0  0  0  0  0  0  0  0  0  0
   -8.4404    4.5654  -17.6615 C   0  0  0  0  0  0  0  0  0  0  0  0
   -9.2527    4.6330  -16.5675 N   0  0  0  0  0  0  0  0  0  0  0  0
   -8.4764    5.0247  -15.5813 C   0  0  0  0  0  0  0  0  0  0  0  0
   -8.9587    5.5024  -14.2685 C   0  0  0  0  0  0  0  0  0  0  0  0
   -7.1594    4.9806  -15.9751 N   0  0  0  0  0  0  0  0  0  0  0  0
   -6.0251    4.6218  -15.0985 C   0  0  0  0  0  0  0  0  0  0  0  0
   -5.5659    5.4604  -13.9398 C   0  0  0  0  0  0  0  0  0  0  0  0
   -6.1611    4.1050  -13.6817 C   0  0  0  0  0  0  0  0  0  0  0  0
   -7.1451    4.9182  -17.3479 C   0  0  0  0  0  0  0  0  0  0  0  0
   -6.1264    5.1412  -18.2326 N   0  0  0  0  0  0  0  0  0  0  0  0
   -4.6428    5.5627  -17.9851 C   0  0  0  0  0  0  0  0  0  0  0  0
   -4.0934    5.8562  -16.9943 O   0  0  0  0  0  0  0  0  0  0  0  0
   -3.9886    5.5477  -19.3703 C   0  0  2  0  0  0  0  0  0  0  0  0
   -2.0402    5.4726  -19.1899 Br  0  0  0  0  0  0  0  0  0  0  0  0
   -4.3736    6.7426  -20.2380 C   0  0  0  0  0  0  0  0  0  0  0  0
   -4.0303    7.9959  -19.6452 O   0  0  0  0  0  0  0  0  0  0  0  0
  1  2  1  0
  2  3  1  0
  3  4  2  0
  4  5  1  0
  4  6  1  0
  6  7  1  0
  7  8  1  0
  8  9  1  0
  6 10  1  0
 10 11  1  0
 11 12  1  0
 12 13  2  0
 12 14  1  0
 14 15  1  1
 14 16  1  0
 16 17  1  0
 10  2  2  0
  9  7  1  0
M  END
>  <energy_score>  (3080) 
-8.798708

>  <alias>  (3080) 
None

>  <HIPPO Pose ID>  (3080) 
76366

>  <smiles>  (3080) 
Cc1nc(C)n(C2CC2)c1NC(=O)[C@H](Br)CO

>  <inchikey>  (3080) 
QHADDMXSYGVQMO-SECBINFHSA-N

>  <distance_score>  (3080) 
1.645888

>  <ref_mols>  (3080) 
Z0719a,Z1597a

>  <ref_pdb>  (3080) 
Z0719a

>  <HIPPO Compound ID>  (3080) 
151787

>  <name>  (3080) 
P76366

>  <inspiration_score>  (3080) 
None

$$$$
P76369
     RDKit          3D

 17 18  0  0  0  0  0  0  0  0999 V2000
   -8.4475    5.5773   -9.2663 C   0  0  0  0  0  0  0  0  0  0  0  0
   -8.1564    4.7841  -10.4800 C   0  0  0  0  0  0  0  0  0  0  0  0
   -8.5184    5.1049  -11.7147 N   0  0  0  0  0  0  0  0  0  0  0  0
   -7.8987    4.2020  -12.5187 C   0  0  0  0  0  0  0  0  0  0  0  0
   -7.9327    4.1449  -13.8735 N   0  0  0  0  0  0  0  0  0  0  0  0
   -8.6138    5.0700  -14.8967 C   0  0  0  0  0  0  0  0  0  0  0  0
   -9.3194    5.9862  -14.7366 O   0  0  0  0  0  0  0  0  0  0  0  0
   -8.0530    4.5701  -16.2911 C   0  0  0  0  0  0  0  0  0  0  0  0
   -7.0490    5.5194  -16.9740 C   0  0  0  0  0  0  0  0  0  0  0  0
   -7.6589    5.1221  -18.3182 C   0  0  0  0  0  0  0  0  0  0  0  0
   -8.9039    4.6034  -17.5718 C   0  0  0  0  0  0  0  0  0  0  0  0
   -7.1118    3.3680  -11.7736 C   0  0  0  0  0  0  0  0  0  0  0  0
   -6.1002    2.5030  -12.2557 N   0  0  0  0  0  0  0  0  0  0  0  0
   -6.0089    2.3801  -13.4899 O   0  0  0  0  0  0  0  0  0  0  0  0
   -5.3299    1.9996  -11.4321 O   0  0  0  0  0  0  0  0  0  0  0  0
   -7.3943    3.6322  -10.4668 N   0  0  0  0  0  0  0  0  0  0  0  0
   -6.9430    2.9194   -9.2948 C   0  0  0  0  0  0  0  0  0  0  0  0
  1  2  1  0
  2  3  2  0
  3  4  1  0
  4  5  1  0
  5  6  1  0
  6  7  2  0
  6  8  1  0
  8  9  1  0
  9 10  1  0
 10 11  1  0
  4 12  2  0
 12 13  1  0
 13 14  2  0
 13 15  1  0
 12 16  1  0
 16 17  1  0
 16  2  1  0
 11  8  1  0
M  CHG  2  13   1  15  -1
M  END
>  <energy_score>  (3081) 
-25.94296

>  <alias>  (3081) 
None

>  <HIPPO Pose ID>  (3081) 
76369

>  <smiles>  (3081) 
Cc1nc(NC(=O)C2CCC2)c([N+](=O)[O-])n1C

>  <inchikey>  (3081) 
KKGWHDFFSFSHKW-UHFFFAOYSA-N

>  <distance_score>  (3081) 
1.573643

>  <ref_mols>  (3081) 
Z0719a,Z1597a

>  <ref_pdb>  (3081) 
Z0719a

>  <HIPPO Compound ID>  (3081) 
151791

>  <name>  (3081) 
P76369

>  <inspiration_score>  (3081) 
None

$$$$
P76370
     RDKit          3D

 17 18  0  0  0  0  0  0  0  0999 V2000
   -7.3568    3.3036   -9.9140 C   0  0  0  0  0  0  0  0  0  0  0  0
   -7.5751    4.0846  -11.1112 N   0  0  0  0  0  0  0  0  0  0  0  0
   -8.4072    5.1643  -11.1440 C   0  0  0  0  0  0  0  0  0  0  0  0
   -8.5744    5.6016  -12.3671 N   0  0  0  0  0  0  0  0  0  0  0  0
   -7.7902    4.7937  -13.1530 C   0  0  0  0  0  0  0  0  0  0  0  0
   -7.9123    4.9967  -14.4989 N   0  0  0  0  0  0  0  0  0  0  0  0
   -7.0603    4.4861  -15.6633 C   0  0  0  0  0  0  0  0  0  0  0  0
   -6.0737    3.8744  -15.6625 O   0  0  0  0  0  0  0  0  0  0  0  0
   -7.6497    4.8437  -17.0083 C   0  0  0  0  0  0  0  0  0  0  0  0
   -9.0915    4.4740  -17.2501 C   0  0  0  0  0  0  0  0  0  0  0  0
   -6.7323    4.6718  -18.2221 C   0  0  0  0  0  0  0  0  0  0  0  0
   -7.0477    6.0408  -17.7244 C   0  0  0  0  0  0  0  0  0  0  0  0
   -7.0541    3.8938  -12.3886 C   0  0  0  0  0  0  0  0  0  0  0  0
   -5.8524    2.6482  -12.7370 S   0  0  0  0  0  0  0  0  0  0  0  0
   -4.7043    3.2660  -13.7744 N   0  0  0  0  0  0  0  0  0  0  0  0
   -6.5743    1.5829  -13.3880 O   0  0  0  0  0  0  0  0  0  0  0  0
   -5.1215    2.4596  -11.5071 O   0  0  0  0  0  0  0  0  0  0  0  0
  1  2  1  0
  2  3  1  0
  3  4  2  0
  4  5  1  0
  5  6  1  0
  6  7  1  0
  7  8  2  0
  7  9  1  0
  9 10  1  0
  9 11  1  0
 11 12  1  0
  5 13  2  0
 13 14  1  0
 14 15  1  0
 14 16  2  0
 14 17  2  0
 13  2  1  0
 12  9  1  0
M  END
>  <energy_score>  (3082) 
-45.344621

>  <alias>  (3082) 
None

>  <HIPPO Pose ID>  (3082) 
76370

>  <smiles>  (3082) 
Cn1cnc(NC(=O)C2(C)CC2)c1S(N)(=O)=O

>  <inchikey>  (3082) 
LWXKVQDCSSPPRY-UHFFFAOYSA-N

>  <distance_score>  (3082) 
1.343393

>  <ref_mols>  (3082) 
Z0719a,Z1597a

>  <ref_pdb>  (3082) 
Z0719a

>  <HIPPO Compound ID>  (3082) 
151793

>  <name>  (3082) 
P76370

>  <inspiration_score>  (3082) 
None

$$$$
P76371
     RDKit          3D

 17 18  0  0  0  0  0  0  0  0999 V2000
   -9.1628    4.3548  -17.1407 C   0  0  0  0  0  0  0  0  0  0  0  0
   -7.9789    5.0520  -16.5234 C   0  0  0  0  0  0  0  0  0  0  0  0
   -8.1064    5.5144  -15.0817 C   0  0  0  0  0  0  0  0  0  0  0  0
   -7.9277    6.6383  -14.8290 O   0  0  0  0  0  0  0  0  0  0  0  0
   -8.3716    4.3147  -14.1574 N   0  0  0  0  0  0  0  0  0  0  0  0
   -8.3789    4.2300  -12.8088 C   0  0  0  0  0  0  0  0  0  0  0  0
   -8.1371    5.2359  -11.9110 C   0  0  0  0  0  0  0  0  0  0  0  0
   -7.7781    4.5477  -10.7782 N   0  0  0  0  0  0  0  0  0  0  0  0
   -6.6684    4.9627   -9.9560 C   0  0  0  0  0  0  0  0  0  0  0  0
   -5.3523    4.5090  -10.5949 C   0  0  0  0  0  0  0  0  0  0  0  0
   -4.3413    5.3128  -10.1725 F   0  0  0  0  0  0  0  0  0  0  0  0
   -5.3481    4.5478  -11.9566 F   0  0  0  0  0  0  0  0  0  0  0  0
   -5.0303    3.2508  -10.2212 F   0  0  0  0  0  0  0  0  0  0  0  0
   -8.1665    3.2475  -10.9285 C   0  0  0  0  0  0  0  0  0  0  0  0
   -8.4775    3.0220  -12.1835 N   0  0  0  0  0  0  0  0  0  0  0  0
   -7.1342    5.9037  -17.4712 C   0  0  0  0  0  0  0  0  0  0  0  0
   -6.5924    4.6106  -16.9690 C   0  0  0  0  0  0  0  0  0  0  0  0
  1  2  1  0
  2  3  1  0
  3  4  2  0
  3  5  1  0
  5  6  1  0
  6  7  2  0
  7  8  1  0
  8  9  1  0
  9 10  1  0
 10 11  1  0
 10 12  1  0
 10 13  1  0
  8 14  1  0
 14 15  2  0
  2 16  1  0
 16 17  1  0
 17  2  1  0
 15  6  1  0
M  END
>  <energy_score>  (3083) 
-5.942537

>  <alias>  (3083) 
None

>  <HIPPO Pose ID>  (3083) 
76371

>  <smiles>  (3083) 
CC1(C(=O)Nc2cn(CC(F)(F)F)cn2)CC1

>  <inchikey>  (3083) 
PNLGVMZZFPVPRZ-UHFFFAOYSA-N

>  <distance_score>  (3083) 
1.413118

>  <ref_mols>  (3083) 
Z0719a,Z1597a

>  <ref_pdb>  (3083) 
Z0719a

>  <HIPPO Compound ID>  (3083) 
151794

>  <name>  (3083) 
P76371

>  <inspiration_score>  (3083) 
None

$$$$
P76377
     RDKit          3D

 17 18  0  0  0  0  0  0  0  0999 V2000
   -4.4764    6.0766  -17.0886 O   0  0  0  0  0  0  0  0  0  0  0  0
   -4.7277    5.6391  -18.1438 C   0  0  0  0  0  0  0  0  0  0  0  0
   -6.0626    5.0551  -18.7043 N   0  0  0  0  0  0  0  0  0  0  0  0
   -7.2572    4.8198  -18.0838 C   0  0  0  0  0  0  0  0  0  0  0  0
   -8.4107    4.7510  -18.8185 N   0  0  0  0  0  0  0  0  0  0  0  0
   -9.4559    4.5234  -17.9757 C   0  0  0  0  0  0  0  0  0  0  0  0
   -9.0439    4.3779  -16.7465 N   0  0  0  0  0  0  0  0  0  0  0  0
   -7.6737    4.5843  -16.7849 C   0  0  0  0  0  0  0  0  0  0  0  0
   -6.9233    4.3822  -15.5441 C   0  0  0  0  0  0  0  0  0  0  0  0
   -5.6160    3.9616  -15.5371 N   0  0  0  0  0  0  0  0  0  0  0  0
   -5.3332    3.6225  -14.2840 N   0  0  0  0  0  0  0  0  0  0  0  0
   -6.4668    3.8624  -13.6131 N   0  0  0  0  0  0  0  0  0  0  0  0
   -7.4652    4.4083  -14.3145 N   0  0  0  0  0  0  0  0  0  0  0  0
   -3.6843    5.4412  -19.2482 C   0  0  2  0  0  0  0  0  0  0  0  0
   -1.8902    5.4186  -18.4291 Br  0  0  0  0  0  0  0  0  0  0  0  0
   -3.7003    6.5039  -20.3332 C   0  0  0  0  0  0  0  0  0  0  0  0
   -2.7508    6.1528  -21.3601 O   0  0  0  0  0  0  0  0  0  0  0  0
  1  2  2  0
  2  3  1  0
  3  4  1  0
  4  5  1  0
  5  6  1  0
  6  7  2  0
  7  8  1  0
  8  9  1  0
  9 10  1  0
 10 11  2  0
 11 12  1  0
 12 13  1  0
  2 14  1  0
 14 15  1  1
 14 16  1  0
 16 17  1  0
  8  4  2  0
 13  9  2  0
M  END
>  <energy_score>  (3084) 
-22.590206

>  <alias>  (3084) 
None

>  <HIPPO Pose ID>  (3084) 
76377

>  <smiles>  (3084) 
O=C(Nc1[nH]cnc1-c1nn[nH]n1)[C@H](Br)CO

>  <inchikey>  (3084) 
LYADTNHETFULGP-GSVOUGTGSA-N

>  <distance_score>  (3084) 
1.950199

>  <ref_mols>  (3084) 
Z0719a,Z1597a

>  <ref_pdb>  (3084) 
Z0719a

>  <HIPPO Compound ID>  (3084) 
151804

>  <name>  (3084) 
P76377

>  <inspiration_score>  (3084) 
None

$$$$
P76378
     RDKit          3D

 17 18  0  0  0  0  0  0  0  0999 V2000
   -6.9272    2.2309  -13.3416 N   0  0  0  0  0  0  0  0  0  0  0  0
   -6.0513    2.8966  -13.7070 C   0  0  0  0  0  0  0  0  0  0  0  0
   -5.0049    3.6486  -14.3011 C   0  0  0  0  0  0  0  0  0  0  0  0
   -3.6456    3.6948  -14.0319 C   0  0  0  0  0  0  0  0  0  0  0  0
   -2.9389    3.1008  -13.0367 N   0  0  0  0  0  0  0  0  0  0  0  0
   -3.4224    2.3328  -11.7767 C   0  0  0  0  0  0  0  0  0  0  0  0
   -4.5010    2.1610  -11.3631 O   0  0  0  0  0  0  0  0  0  0  0  0
   -2.1886    1.8165  -11.0311 C   0  0  2  0  0  0  0  0  0  0  0  0
   -1.0372    0.8414  -12.2889 Br  0  0  0  0  0  0  0  0  0  0  0  0
   -2.6330    0.8895   -9.9054 C   0  0  0  0  0  0  0  0  0  0  0  0
   -1.5275    0.3131   -9.2100 O   0  0  0  0  0  0  0  0  0  0  0  0
   -2.9546    4.4120  -14.9858 N   0  0  0  0  0  0  0  0  0  0  0  0
   -3.8911    4.8112  -15.7991 C   0  0  0  0  0  0  0  0  0  0  0  0
   -5.1291    4.4173  -15.4138 N   0  0  0  0  0  0  0  0  0  0  0  0
   -6.2409    4.8082  -16.2516 C   0  0  0  0  0  0  0  0  0  0  0  0
   -5.6453    5.2045  -17.6081 C   0  0  0  0  0  0  0  0  0  0  0  0
   -3.8867    5.6632  -17.2879 S   0  0  0  0  0  0  0  0  0  0  0  0
  1  2  3  0
  2  3  1  0
  3  4  2  0
  4  5  1  0
  5  6  1  0
  6  7  2  0
  6  8  1  0
  8  9  1  6
  8 10  1  0
 10 11  1  0
  4 12  1  0
 12 13  2  0
 13 14  1  0
 14 15  1  0
 15 16  1  0
 16 17  1  0
 14  3  1  0
 17 13  1  0
M  END
>  <energy_score>  (3085) 
-42.165708

>  <alias>  (3085) 
None

>  <HIPPO Pose ID>  (3085) 
76378

>  <smiles>  (3085) 
N#Cc1c(NC(=O)[C@H](Br)CO)nc2n1CCS2

>  <inchikey>  (3085) 
SRECIRIKXQLVPH-RXMQYKEDSA-N

>  <distance_score>  (3085) 
1.229944

>  <ref_mols>  (3085) 
Z0719a,Z1597a

>  <ref_pdb>  (3085) 
Z0719a

>  <HIPPO Compound ID>  (3085) 
151805

>  <name>  (3085) 
P76378

>  <inspiration_score>  (3085) 
None

$$$$
P76380
     RDKit          3D

 17 17  0  0  0  0  0  0  0  0999 V2000
   -8.6320    4.5917  -14.0648 C   0  0  0  0  0  0  0  0  0  0  0  0
   -7.9941    4.4010  -15.3419 N   0  0  0  0  0  0  0  0  0  0  0  0
   -8.5787    4.5940  -16.5534 C   0  0  0  0  0  0  0  0  0  0  0  0
   -7.6687    4.6832  -17.4916 N   0  0  0  0  0  0  0  0  0  0  0  0
   -6.4732    4.4974  -16.8576 C   0  0  0  0  0  0  0  0  0  0  0  0
   -5.3616    4.6544  -17.6190 N   0  0  0  0  0  0  0  0  0  0  0  0
   -3.9611    5.2310  -17.2567 C   0  0  0  0  0  0  0  0  0  0  0  0
   -3.5305    5.5860  -16.2278 O   0  0  0  0  0  0  0  0  0  0  0  0
   -3.1083    5.1657  -18.5523 C   0  0  2  0  0  0  0  0  0  0  0  0
   -1.2739    5.8031  -18.1090 Br  0  0  0  0  0  0  0  0  0  0  0  0
   -3.5672    5.9926  -19.7595 C   0  0  0  0  0  0  0  0  0  0  0  0
   -2.7062    5.7273  -20.8898 O   0  0  0  0  0  0  0  0  0  0  0  0
   -6.6464    4.1529  -15.5292 C   0  0  0  0  0  0  0  0  0  0  0  0
   -5.6714    3.4874  -14.2268 S   0  0  0  0  0  0  0  0  0  0  0  0
   -5.4833    4.7373  -13.1392 N   0  0  0  0  0  0  0  0  0  0  0  0
   -6.4679    2.4739  -13.5727 O   0  0  0  0  0  0  0  0  0  0  0  0
   -4.3446    3.1962  -14.7075 O   0  0  0  0  0  0  0  0  0  0  0  0
  1  2  1  0
  2  3  1  0
  3  4  2  0
  4  5  1  0
  5  6  1  0
  6  7  1  0
  7  8  2  0
  7  9  1  0
  9 10  1  1
  9 11  1  0
 11 12  1  0
  5 13  2  0
 13 14  1  0
 14 15  1  0
 14 16  2  0
 14 17  2  0
 13  2  1  0
M  END
>  <energy_score>  (3086) 
-38.628334

>  <alias>  (3086) 
None

>  <HIPPO Pose ID>  (3086) 
76380

>  <smiles>  (3086) 
Cn1cnc(NC(=O)[C@H](Br)CO)c1S(N)(=O)=O

>  <inchikey>  (3086) 
ISEBAEKTVYPLMC-SCSAIBSYSA-N

>  <distance_score>  (3086) 
1.841108

>  <ref_mols>  (3086) 
Z0719a,Z1597a

>  <ref_pdb>  (3086) 
Z0719a

>  <HIPPO Compound ID>  (3086) 
151808

>  <name>  (3086) 
P76380

>  <inspiration_score>  (3086) 
None

$$$$
P76381
     RDKit          3D

 17 17  0  0  0  0  0  0  0  0999 V2000
   -3.5759    6.3533  -17.5329 O   0  0  0  0  0  0  0  0  0  0  0  0
   -4.3283    6.0588  -18.3806 C   0  0  0  0  0  0  0  0  0  0  0  0
   -5.7723    5.4631  -18.2916 N   0  0  0  0  0  0  0  0  0  0  0  0
   -6.4847    5.0539  -17.2239 C   0  0  0  0  0  0  0  0  0  0  0  0
   -5.9928    4.9097  -15.9613 C   0  0  0  0  0  0  0  0  0  0  0  0
   -6.9909    4.3049  -15.2586 N   0  0  0  0  0  0  0  0  0  0  0  0
   -6.9042    3.9313  -13.8664 C   0  0  0  0  0  0  0  0  0  0  0  0
   -5.9710    2.7963  -13.5636 C   0  0  0  0  0  0  0  0  0  0  0  0
   -4.8329    2.8263  -14.2860 F   0  0  0  0  0  0  0  0  0  0  0  0
   -5.5950    2.8983  -12.2740 F   0  0  0  0  0  0  0  0  0  0  0  0
   -6.5591    1.5929  -13.7182 F   0  0  0  0  0  0  0  0  0  0  0  0
   -8.0809    4.2456  -16.0804 C   0  0  0  0  0  0  0  0  0  0  0  0
   -7.7843    4.6719  -17.2927 N   0  0  0  0  0  0  0  0  0  0  0  0
   -3.9909    6.1049  -19.8607 C   0  0  2  0  0  0  0  0  0  0  0  0
   -2.0481    6.1561  -20.1194 Br  0  0  0  0  0  0  0  0  0  0  0  0
   -4.6413    7.2748  -20.5735 C   0  0  0  0  0  0  0  0  0  0  0  0
   -4.6834    7.0833  -21.9864 O   0  0  0  0  0  0  0  0  0  0  0  0
  1  2  2  0
  2  3  1  0
  3  4  1  0
  4  5  2  0
  5  6  1  0
  6  7  1  0
  7  8  1  0
  8  9  1  0
  8 10  1  0
  8 11  1  0
  6 12  1  0
 12 13  2  0
  2 14  1  0
 14 15  1  1
 14 16  1  0
 16 17  1  0
 13  4  1  0
M  END
>  <energy_score>  (3087) 
-12.503632

>  <alias>  (3087) 
None

>  <HIPPO Pose ID>  (3087) 
76381

>  <smiles>  (3087) 
O=C(Nc1cn(CC(F)(F)F)cn1)[C@H](Br)CO

>  <inchikey>  (3087) 
QYFXVIJLCQMZNJ-RXMQYKEDSA-N

>  <distance_score>  (3087) 
1.931617

>  <ref_mols>  (3087) 
Z0719a,Z1597a

>  <ref_pdb>  (3087) 
Z0719a

>  <HIPPO Compound ID>  (3087) 
151809

>  <name>  (3087) 
P76381

>  <inspiration_score>  (3087) 
None

$$$$
P76384
     RDKit          3D

 17 17  0  0  0  0  0  0  0  0999 V2000
   -7.5898    3.1311  -14.4181 C   0  0  0  0  0  0  0  0  0  0  0  0
   -7.9960    3.8162  -15.7014 C   0  0  0  0  0  0  0  0  0  0  0  0
   -9.0198    3.5359  -16.4910 N   0  0  0  0  0  0  0  0  0  0  0  0
   -8.8294    4.2625  -17.6419 C   0  0  0  0  0  0  0  0  0  0  0  0
   -7.6707    4.9995  -17.5637 C   0  0  0  0  0  0  0  0  0  0  0  0
   -7.0417    5.7291  -18.5389 N   0  0  0  0  0  0  0  0  0  0  0  0
   -5.5823    6.2895  -18.6057 C   0  0  0  0  0  0  0  0  0  0  0  0
   -4.7258    6.2769  -17.8035 O   0  0  0  0  0  0  0  0  0  0  0  0
   -5.4010    6.9840  -19.9671 C   0  0  2  0  0  0  0  0  0  0  0  0
   -3.9705    6.8050  -20.4694 C   0  0  0  0  0  0  0  0  0  0  0  0
   -5.7187    8.7779  -19.7397 S   0  0  0  0  0  0  0  0  0  0  0  0
   -7.2707    4.8461  -16.2556 N   0  0  0  0  0  0  0  0  0  0  0  0
   -6.3829    5.7095  -15.5288 C   0  0  0  0  0  0  0  0  0  0  0  0
   -6.6556    5.8665  -14.0505 C   0  0  0  0  0  0  0  0  0  0  0  0
   -7.9668    5.8703  -13.7269 F   0  0  0  0  0  0  0  0  0  0  0  0
   -6.1458    7.0389  -13.6134 F   0  0  0  0  0  0  0  0  0  0  0  0
   -6.0375    4.8992  -13.3335 F   0  0  0  0  0  0  0  0  0  0  0  0
  1  2  1  0
  2  3  2  0
  3  4  1  0
  4  5  2  0
  5  6  1  0
  6  7  1  0
  7  8  2  0
  7  9  1  0
  9 10  1  1
  9 11  1  0
  5 12  1  0
 12 13  1  0
 13 14  1  0
 14 15  1  0
 14 16  1  0
 14 17  1  0
 12  2  1  0
M  END
>  <energy_score>  (3088) 
-15.547587

>  <alias>  (3088) 
None

>  <HIPPO Pose ID>  (3088) 
76384

>  <smiles>  (3088) 
Cc1ncc(NC(=O)[C@H](C)S)n1CC(F)(F)F

>  <inchikey>  (3088) 
JKPSTMHZOQAFSU-YFKPBYRVSA-N

>  <distance_score>  (3088) 
1.830907

>  <ref_mols>  (3088) 
Z0719a,Z1597a

>  <ref_pdb>  (3088) 
Z0719a

>  <HIPPO Compound ID>  (3088) 
151823

>  <name>  (3088) 
P76384

>  <inspiration_score>  (3088) 
None

$$$$
P76386
     RDKit          3D

 17 18  0  0  0  0  0  0  0  0999 V2000
   -3.9377    7.4372  -21.4197 C   0  0  0  0  0  0  0  0  0  0  0  0
   -3.6202    6.7065  -20.1123 C   0  0  0  0  0  0  0  0  0  0  0  0
   -2.1036    6.6075  -19.9336 C   0  0  0  0  0  0  0  0  0  0  0  0
   -4.2402    7.4217  -18.8986 C   0  0  0  0  0  0  0  0  0  0  0  0
   -5.7500    7.2161  -18.8625 C   0  0  0  0  0  0  0  0  0  0  0  0
   -6.4781    7.8723  -19.5013 O   0  0  0  0  0  0  0  0  0  0  0  0
   -6.0377    5.9910  -17.9453 N   0  0  0  0  0  0  0  0  0  0  0  0
   -7.1952    5.3092  -17.7179 C   0  0  0  0  0  0  0  0  0  0  0  0
   -8.2538    5.3531  -18.5778 N   0  0  0  0  0  0  0  0  0  0  0  0
   -9.2551    4.5776  -18.0620 C   0  0  0  0  0  0  0  0  0  0  0  0
   -8.8983    4.0148  -16.9357 N   0  0  0  0  0  0  0  0  0  0  0  0
   -7.6162    4.4739  -16.7045 C   0  0  0  0  0  0  0  0  0  0  0  0
   -6.9131    4.1265  -15.4753 C   0  0  0  0  0  0  0  0  0  0  0  0
   -5.5384    4.1443  -15.4010 N   0  0  0  0  0  0  0  0  0  0  0  0
   -5.2254    3.6701  -14.1989 N   0  0  0  0  0  0  0  0  0  0  0  0
   -6.4109    3.4245  -13.6153 N   0  0  0  0  0  0  0  0  0  0  0  0
   -7.4896    3.7659  -14.3225 N   0  0  0  0  0  0  0  0  0  0  0  0
  1  2  1  0
  2  3  1  0
  2  4  1  0
  4  5  1  0
  5  6  2  0
  5  7  1  0
  7  8  1  0
  8  9  1  0
  9 10  1  0
 10 11  2  0
 11 12  1  0
 12 13  1  0
 13 14  1  0
 14 15  2  0
 15 16  1  0
 16 17  1  0
 12  8  2  0
 17 13  2  0
M  END
>  <energy_score>  (3089) 
-26.610826

>  <alias>  (3089) 
None

>  <HIPPO Pose ID>  (3089) 
76386

>  <smiles>  (3089) 
CC(C)CC(=O)Nc1[nH]cnc1-c1nn[nH]n1

>  <inchikey>  (3089) 
PIDWIGIYJOSIQF-UHFFFAOYSA-N

>  <distance_score>  (3089) 
1.77621

>  <ref_mols>  (3089) 
Z0719a,Z1597a

>  <ref_pdb>  (3089) 
Z0719a

>  <HIPPO Compound ID>  (3089) 
151825

>  <name>  (3089) 
P76386

>  <inspiration_score>  (3089) 
None

$$$$
P76388
     RDKit          3D

 17 18  0  0  0  0  0  0  0  0999 V2000
   -5.3721    2.3515  -13.3445 C   0  0  0  0  0  0  0  0  0  0  0  0
   -4.8514    2.5589  -11.9390 C   0  0  0  0  0  0  0  0  0  0  0  0
   -4.8202    3.9649  -11.6258 O   0  0  0  0  0  0  0  0  0  0  0  0
   -5.5563    4.4509  -10.5841 C   0  0  0  0  0  0  0  0  0  0  0  0
   -5.0801    5.2454   -9.7801 O   0  0  0  0  0  0  0  0  0  0  0  0
   -6.8722    3.9011  -10.4703 C   0  0  0  0  0  0  0  0  0  0  0  0
   -7.3029    3.2602   -9.3263 N   0  0  0  0  0  0  0  0  0  0  0  0
   -8.5325    2.7362   -9.5829 C   0  0  0  0  0  0  0  0  0  0  0  0
   -8.9530    3.0746  -10.7766 N   0  0  0  0  0  0  0  0  0  0  0  0
   -7.9508    3.8183  -11.3237 C   0  0  0  0  0  0  0  0  0  0  0  0
   -8.1877    4.3124  -12.5646 N   0  0  0  0  0  0  0  0  0  0  0  0
   -7.3724    5.2966  -13.4214 C   0  0  0  0  0  0  0  0  0  0  0  0
   -6.4074    5.8992  -13.1681 O   0  0  0  0  0  0  0  0  0  0  0  0
   -8.0451    5.5054  -14.7495 C   0  0  0  0  0  0  0  0  0  0  0  0
   -9.0193    6.5020  -14.7702 F   0  0  0  0  0  0  0  0  0  0  0  0
   -7.2560    5.3356  -16.0274 C   0  0  0  0  0  0  0  0  0  0  0  0
   -8.3273    4.3490  -15.6735 C   0  0  0  0  0  0  0  0  0  0  0  0
  1  2  1  0
  2  3  1  0
  3  4  1  0
  4  5  2  0
  4  6  1  0
  6  7  1  0
  7  8  1  0
  8  9  2  0
  9 10  1  0
 10 11  1  0
 11 12  1  0
 12 13  2  0
 12 14  1  0
 14 15  1  0
 14 16  1  0
 16 17  1  0
 10  6  2  0
 17 14  1  0
M  END
>  <energy_score>  (3090) 
-12.568286

>  <alias>  (3090) 
None

>  <HIPPO Pose ID>  (3090) 
76388

>  <smiles>  (3090) 
CCOC(=O)c1[nH]cnc1NC(=O)C1(F)CC1

>  <inchikey>  (3090) 
GTWDBATZFBFROA-UHFFFAOYSA-N

>  <distance_score>  (3090) 
1.804827

>  <ref_mols>  (3090) 
Z0719a,Z1597a

>  <ref_pdb>  (3090) 
Z0719a

>  <HIPPO Compound ID>  (3090) 
151833

>  <name>  (3090) 
P76388

>  <inspiration_score>  (3090) 
None

$$$$
P76389
     RDKit          3D

 17 18  0  0  0  0  0  0  0  0999 V2000
   -8.4707    5.1814   -9.3347 C   0  0  0  0  0  0  0  0  0  0  0  0
   -8.1311    4.6422  -10.6697 C   0  0  0  0  0  0  0  0  0  0  0  0
   -8.4790    5.1700  -11.8357 N   0  0  0  0  0  0  0  0  0  0  0  0
   -7.7760    4.4742  -12.7848 C   0  0  0  0  0  0  0  0  0  0  0  0
   -7.8792    4.8136  -14.0993 N   0  0  0  0  0  0  0  0  0  0  0  0
   -7.0360    4.3826  -15.3119 C   0  0  0  0  0  0  0  0  0  0  0  0
   -6.0740    3.7308  -15.3683 O   0  0  0  0  0  0  0  0  0  0  0  0
   -7.6383    4.9129  -16.5741 C   0  0  0  0  0  0  0  0  0  0  0  0
   -9.0245    5.0446  -16.5491 F   0  0  0  0  0  0  0  0  0  0  0  0
   -7.0637    4.5967  -17.9327 C   0  0  0  0  0  0  0  0  0  0  0  0
   -6.8710    5.9581  -17.3460 C   0  0  0  0  0  0  0  0  0  0  0  0
   -7.0379    3.4992  -12.1790 C   0  0  0  0  0  0  0  0  0  0  0  0
   -6.1090    2.6065  -12.7288 N   0  0  0  0  0  0  0  0  0  0  0  0
   -4.9946    3.0722  -12.9894 O   0  0  0  0  0  0  0  0  0  0  0  0
   -6.4729    1.4341  -12.8531 O   0  0  0  0  0  0  0  0  0  0  0  0
   -7.3401    3.5261  -10.8499 N   0  0  0  0  0  0  0  0  0  0  0  0
   -6.8678    2.6465   -9.8045 C   0  0  0  0  0  0  0  0  0  0  0  0
  1  2  1  0
  2  3  2  0
  3  4  1  0
  4  5  1  0
  5  6  1  0
  6  7  2  0
  6  8  1  0
  8  9  1  0
  8 10  1  0
 10 11  1  0
  4 12  2  0
 12 13  1  0
 13 14  2  0
 13 15  1  0
 12 16  1  0
 16 17  1  0
 16  2  1  0
 11  8  1  0
M  CHG  2  13   1  15  -1
M  END
>  <energy_score>  (3091) 
-36.165802

>  <alias>  (3091) 
None

>  <HIPPO Pose ID>  (3091) 
76389

>  <smiles>  (3091) 
Cc1nc(NC(=O)C2(F)CC2)c([N+](=O)[O-])n1C

>  <inchikey>  (3091) 
AZOQIOZSTOMTCR-UHFFFAOYSA-N

>  <distance_score>  (3091) 
1.238017

>  <ref_mols>  (3091) 
Z0719a,Z1597a

>  <ref_pdb>  (3091) 
Z0719a

>  <HIPPO Compound ID>  (3091) 
151834

>  <name>  (3091) 
P76389

>  <inspiration_score>  (3091) 
None

$$$$
P76390
     RDKit          3D

 17 18  0  0  0  0  0  0  0  0999 V2000
   -7.3048    3.3287   -9.7746 C   0  0  0  0  0  0  0  0  0  0  0  0
   -7.5527    4.2418  -10.8631 N   0  0  0  0  0  0  0  0  0  0  0  0
   -8.3656    5.3390  -10.7737 C   0  0  0  0  0  0  0  0  0  0  0  0
   -8.5394    5.9168  -11.9428 N   0  0  0  0  0  0  0  0  0  0  0  0
   -7.7251    5.2303  -12.7899 C   0  0  0  0  0  0  0  0  0  0  0  0
   -7.7674    5.4165  -14.1383 N   0  0  0  0  0  0  0  0  0  0  0  0
   -6.6347    5.4145  -15.1864 C   0  0  0  0  0  0  0  0  0  0  0  0
   -5.4792    5.3303  -15.0508 O   0  0  0  0  0  0  0  0  0  0  0  0
   -7.2451    5.4338  -16.5703 C   0  0  0  0  0  0  0  0  0  0  0  0
   -8.6531    5.0718  -16.6031 O   0  0  0  0  0  0  0  0  0  0  0  0
   -6.4505    4.8470  -17.7207 C   0  0  0  0  0  0  0  0  0  0  0  0
   -6.7190    6.3191  -17.6579 C   0  0  0  0  0  0  0  0  0  0  0  0
   -7.1309    4.1401  -12.1702 C   0  0  0  0  0  0  0  0  0  0  0  0
   -6.2859    2.7679  -12.8672 S   0  0  0  0  0  0  0  0  0  0  0  0
   -6.7716    2.7283  -14.4518 N   0  0  0  0  0  0  0  0  0  0  0  0
   -4.8726    3.0337  -12.7862 O   0  0  0  0  0  0  0  0  0  0  0  0
   -6.8854    1.5715  -12.3343 O   0  0  0  0  0  0  0  0  0  0  0  0
  1  2  1  0
  2  3  1  0
  3  4  2  0
  4  5  1  0
  5  6  1  0
  6  7  1  0
  7  8  2  0
  7  9  1  0
  9 10  1  0
  9 11  1  0
 11 12  1  0
  5 13  2  0
 13 14  1  0
 14 15  1  0
 14 16  2  0
 14 17  2  0
 13  2  1  0
 12  9  1  0
M  END
>  <energy_score>  (3092) 
-17.142879

>  <alias>  (3092) 
None

>  <HIPPO Pose ID>  (3092) 
76390

>  <smiles>  (3092) 
Cn1cnc(NC(=O)C2(O)CC2)c1S(N)(=O)=O

>  <inchikey>  (3092) 
CCAHIVZHAQCHGY-UHFFFAOYSA-N

>  <distance_score>  (3092) 
1.293152

>  <ref_mols>  (3092) 
Z0719a,Z1597a

>  <ref_pdb>  (3092) 
Z0719a

>  <HIPPO Compound ID>  (3092) 
151837

>  <name>  (3092) 
P76390

>  <inspiration_score>  (3092) 
None

$$$$
P76392
     RDKit          3D

 17 19  0  0  0  0  0  0  0  0999 V2000
   -2.3284    6.4957  -19.0814 O   0  0  0  0  0  0  0  0  0  0  0  0
   -3.1725    6.4296  -19.8831 C   0  0  0  0  0  0  0  0  0  0  0  0
   -4.5814    5.8099  -19.8023 N   0  0  0  0  0  0  0  0  0  0  0  0
   -5.2408    5.2611  -18.7570 C   0  0  0  0  0  0  0  0  0  0  0  0
   -6.5753    4.9338  -18.6698 C   0  0  0  0  0  0  0  0  0  0  0  0
   -6.7854    4.7088  -17.3359 N   0  0  0  0  0  0  0  0  0  0  0  0
   -7.9844    4.7015  -16.6930 N   0  0  0  0  0  0  0  0  0  0  0  0
   -7.8338    4.6212  -15.4098 C   0  0  0  0  0  0  0  0  0  0  0  0
   -9.1972    4.9358  -14.4393 Cl  0  0  0  0  0  0  0  0  0  0  0  0
   -6.5723    4.3833  -14.6755 C   0  0  0  0  0  0  0  0  0  0  0  0
   -5.4418    4.4690  -15.3696 C   0  0  0  0  0  0  0  0  0  0  0  0
   -5.5304    4.7267  -16.7445 C   0  0  0  0  0  0  0  0  0  0  0  0
   -4.5887    5.0638  -17.5849 N   0  0  0  0  0  0  0  0  0  0  0  0
   -2.9589    7.0772  -21.2291 C   0  0  0  0  0  0  0  0  0  0  0  0
   -4.0974    7.0574  -22.1074 O   0  0  0  0  0  0  0  0  0  0  0  0
   -2.0808    8.2953  -21.3657 C   0  0  0  0  0  0  0  0  0  0  0  0
   -1.6241    6.9770  -21.9228 C   0  0  0  0  0  0  0  0  0  0  0  0
  1  2  2  0
  2  3  1  0
  3  4  1  0
  4  5  2  0
  5  6  1  0
  6  7  1  0
  7  8  2  0
  8  9  1  0
  8 10  1  0
 10 11  2  0
 11 12  1  0
 12 13  2  0
  2 14  1  0
 14 15  1  0
 14 16  1  0
 16 17  1  0
 13  4  1  0
 17 14  1  0
 12  6  1  0
M  END
>  <energy_score>  (3093) 
-19.331863

>  <alias>  (3093) 
None

>  <HIPPO Pose ID>  (3093) 
76392

>  <smiles>  (3093) 
O=C(Nc1cn2nc(Cl)ccc2n1)C1(O)CC1

>  <inchikey>  (3093) 
YJNBDASLKINXMQ-UHFFFAOYSA-N

>  <distance_score>  (3093) 
1.98827

>  <ref_mols>  (3093) 
Z0719a,Z1597a

>  <ref_pdb>  (3093) 
Z0719a

>  <HIPPO Compound ID>  (3093) 
151840

>  <name>  (3093) 
P76392

>  <inspiration_score>  (3093) 
None

$$$$
P76396
     RDKit          3D

 17 17  0  0  0  0  0  0  0  0999 V2000
   -2.4178    6.8376  -19.8847 C   0  0  0  0  0  0  0  0  0  0  0  0
   -3.6039    6.2792  -19.5878 C   0  0  0  0  0  0  0  0  0  0  0  0
   -4.8917    7.0245  -19.8141 C   0  0  0  0  0  0  0  0  0  0  0  0
   -3.6962    4.8712  -19.0354 C   0  0  0  0  0  0  0  0  0  0  0  0
   -4.1753    4.7437  -17.5703 C   0  0  0  0  0  0  0  0  0  0  0  0
   -3.4573    4.6075  -16.6575 O   0  0  0  0  0  0  0  0  0  0  0  0
   -5.7223    4.7992  -17.6313 N   0  0  0  0  0  0  0  0  0  0  0  0
   -6.6495    4.6157  -16.6593 C   0  0  0  0  0  0  0  0  0  0  0  0
   -7.9065    4.8841  -17.1313 N   0  0  0  0  0  0  0  0  0  0  0  0
   -8.7101    4.7232  -16.1183 C   0  0  0  0  0  0  0  0  0  0  0  0
   -8.0052    4.4438  -14.9965 N   0  0  0  0  0  0  0  0  0  0  0  0
   -8.5288    4.5090  -13.6527 C   0  0  0  0  0  0  0  0  0  0  0  0
   -6.6764    4.2154  -15.3326 C   0  0  0  0  0  0  0  0  0  0  0  0
   -5.6315    3.5149  -14.1080 S   0  0  0  0  0  0  0  0  0  0  0  0
   -4.2105    2.9303  -14.7133 N   0  0  0  0  0  0  0  0  0  0  0  0
   -6.3509    2.3657  -13.6181 O   0  0  0  0  0  0  0  0  0  0  0  0
   -5.2562    4.5858  -13.2200 O   0  0  0  0  0  0  0  0  0  0  0  0
  1  2  2  0
  2  3  1  0
  2  4  1  0
  4  5  1  0
  5  6  2  0
  5  7  1  0
  7  8  1  0
  8  9  1  0
  9 10  2  0
 10 11  1  0
 11 12  1  0
 11 13  1  0
 13 14  1  0
 14 15  1  0
 14 16  2  0
 14 17  2  0
 13  8  2  0
M  END
>  <energy_score>  (3094) 
-34.758488

>  <alias>  (3094) 
None

>  <HIPPO Pose ID>  (3094) 
76396

>  <smiles>  (3094) 
C=C(C)CC(=O)Nc1ncn(C)c1S(N)(=O)=O

>  <inchikey>  (3094) 
WOLTWIVVYARNGR-UHFFFAOYSA-N

>  <distance_score>  (3094) 
1.899533

>  <ref_mols>  (3094) 
Z0719a,Z1597a

>  <ref_pdb>  (3094) 
Z0719a

>  <HIPPO Compound ID>  (3094) 
151847

>  <name>  (3094) 
P76396

>  <inspiration_score>  (3094) 
None

$$$$
P76397
     RDKit          3D

 17 18  0  0  0  0  0  0  0  0999 V2000
   -5.2297    2.3699  -13.3312 C   0  0  0  0  0  0  0  0  0  0  0  0
   -4.8231    2.5406  -11.8824 C   0  0  0  0  0  0  0  0  0  0  0  0
   -4.8713    3.9324  -11.5217 O   0  0  0  0  0  0  0  0  0  0  0  0
   -5.5914    4.3179  -10.4295 C   0  0  0  0  0  0  0  0  0  0  0  0
   -5.1069    5.0436   -9.5673 O   0  0  0  0  0  0  0  0  0  0  0  0
   -6.9061    3.7568  -10.3455 C   0  0  0  0  0  0  0  0  0  0  0  0
   -7.3722    3.1625   -9.1912 N   0  0  0  0  0  0  0  0  0  0  0  0
   -8.5892    2.6187   -9.4666 C   0  0  0  0  0  0  0  0  0  0  0  0
   -8.9647    2.8866  -10.6932 N   0  0  0  0  0  0  0  0  0  0  0  0
   -7.9524    3.6198  -11.2322 C   0  0  0  0  0  0  0  0  0  0  0  0
   -8.1443    4.0730  -12.4948 N   0  0  0  0  0  0  0  0  0  0  0  0
   -7.4155    5.1690  -13.2819 C   0  0  0  0  0  0  0  0  0  0  0  0
   -6.4831    5.8072  -13.0013 O   0  0  0  0  0  0  0  0  0  0  0  0
   -8.1388    5.4513  -14.5667 C   0  0  0  0  0  0  0  0  0  0  0  0
   -9.1902    6.4291  -14.4372 O   0  0  0  0  0  0  0  0  0  0  0  0
   -7.3760    5.4511  -15.8696 C   0  0  0  0  0  0  0  0  0  0  0  0
   -8.3933    4.3845  -15.5954 C   0  0  0  0  0  0  0  0  0  0  0  0
  1  2  1  0
  2  3  1  0
  3  4  1  0
  4  5  2  0
  4  6  1  0
  6  7  1  0
  7  8  1  0
  8  9  2  0
  9 10  1  0
 10 11  1  0
 11 12  1  0
 12 13  2  0
 12 14  1  0
 14 15  1  0
 14 16  1  0
 16 17  1  0
 10  6  2  0
 17 14  1  0
M  END
>  <energy_score>  (3095) 
-20.228965

>  <alias>  (3095) 
None

>  <HIPPO Pose ID>  (3095) 
76397

>  <smiles>  (3095) 
CCOC(=O)c1[nH]cnc1NC(=O)C1(O)CC1

>  <inchikey>  (3095) 
RJVKJALYQQQBBJ-UHFFFAOYSA-N

>  <distance_score>  (3095) 
1.917806

>  <ref_mols>  (3095) 
Z0719a,Z1597a

>  <ref_pdb>  (3095) 
Z0719a

>  <HIPPO Compound ID>  (3095) 
151848

>  <name>  (3095) 
P76397

>  <inspiration_score>  (3095) 
None

$$$$
P76398
     RDKit          3D

 17 18  0  0  0  0  0  0  0  0999 V2000
   -8.4835    5.3216   -9.5294 C   0  0  0  0  0  0  0  0  0  0  0  0
   -8.1791    4.7586  -10.8644 C   0  0  0  0  0  0  0  0  0  0  0  0
   -8.5418    5.2717  -12.0355 N   0  0  0  0  0  0  0  0  0  0  0  0
   -7.8673    4.5466  -12.9849 C   0  0  0  0  0  0  0  0  0  0  0  0
   -7.9661    4.8263  -14.3139 N   0  0  0  0  0  0  0  0  0  0  0  0
   -7.0369    4.4583  -15.4850 C   0  0  0  0  0  0  0  0  0  0  0  0
   -6.0020    3.9247  -15.4885 O   0  0  0  0  0  0  0  0  0  0  0  0
   -7.6436    4.8833  -16.7928 C   0  0  0  0  0  0  0  0  0  0  0  0
   -9.0850    4.8746  -16.8088 O   0  0  0  0  0  0  0  0  0  0  0  0
   -6.9715    4.5554  -18.1052 C   0  0  0  0  0  0  0  0  0  0  0  0
   -6.9561    5.9599  -17.5921 C   0  0  0  0  0  0  0  0  0  0  0  0
   -7.1417    3.5694  -12.3723 C   0  0  0  0  0  0  0  0  0  0  0  0
   -6.2684    2.6365  -12.9370 N   0  0  0  0  0  0  0  0  0  0  0  0
   -5.1010    3.0087  -13.0947 O   0  0  0  0  0  0  0  0  0  0  0  0
   -6.7222    1.5086  -13.1567 O   0  0  0  0  0  0  0  0  0  0  0  0
   -7.4102    3.6261  -11.0392 N   0  0  0  0  0  0  0  0  0  0  0  0
   -6.9424    2.7457   -9.9929 C   0  0  0  0  0  0  0  0  0  0  0  0
  1  2  1  0
  2  3  2  0
  3  4  1  0
  4  5  1  0
  5  6  1  0
  6  7  2  0
  6  8  1  0
  8  9  1  0
  8 10  1  0
 10 11  1  0
  4 12  2  0
 12 13  1  0
 13 14  2  0
 13 15  1  0
 12 16  1  0
 16 17  1  0
 16  2  1  0
 11  8  1  0
M  CHG  2  13   1  15  -1
M  END
>  <energy_score>  (3096) 
-34.14618

>  <alias>  (3096) 
None

>  <HIPPO Pose ID>  (3096) 
76398

>  <smiles>  (3096) 
Cc1nc(NC(=O)C2(O)CC2)c([N+](=O)[O-])n1C

>  <inchikey>  (3096) 
WNNUKZFCOYLSAS-UHFFFAOYSA-N

>  <distance_score>  (3096) 
1.364862

>  <ref_mols>  (3096) 
Z0719a,Z1597a

>  <ref_pdb>  (3096) 
Z0719a

>  <HIPPO Compound ID>  (3096) 
151849

>  <name>  (3096) 
P76398

>  <inspiration_score>  (3096) 
None

$$$$
P76399
     RDKit          3D

 17 18  0  0  0  0  0  0  0  0999 V2000
   -7.1395    3.1548   -9.7184 C   0  0  0  0  0  0  0  0  0  0  0  0
   -7.4725    3.9037  -10.9012 N   0  0  0  0  0  0  0  0  0  0  0  0
   -8.2634    5.0238  -10.9031 C   0  0  0  0  0  0  0  0  0  0  0  0
   -8.4968    5.4523  -12.1250 N   0  0  0  0  0  0  0  0  0  0  0  0
   -7.8798    4.5412  -12.9218 C   0  0  0  0  0  0  0  0  0  0  0  0
   -7.9581    4.4753  -14.2744 N   0  0  0  0  0  0  0  0  0  0  0  0
   -8.4095    5.5124  -15.2903 C   0  0  0  0  0  0  0  0  0  0  0  0
   -8.8620    6.5694  -15.1366 O   0  0  0  0  0  0  0  0  0  0  0  0
   -8.1254    4.9520  -16.6558 C   0  0  0  0  0  0  0  0  0  0  0  0
   -8.9725    3.9151  -17.0467 F   0  0  0  0  0  0  0  0  0  0  0  0
   -7.4812    5.7502  -17.7589 C   0  0  0  0  0  0  0  0  0  0  0  0
   -6.6717    4.7295  -17.0416 C   0  0  0  0  0  0  0  0  0  0  0  0
   -7.1086    3.6583  -12.2018 C   0  0  0  0  0  0  0  0  0  0  0  0
   -5.9784    2.5130  -12.8521 S   0  0  0  0  0  0  0  0  0  0  0  0
   -4.7853    2.1264  -11.7594 N   0  0  0  0  0  0  0  0  0  0  0  0
   -6.7379    1.3167  -13.0909 O   0  0  0  0  0  0  0  0  0  0  0  0
   -5.3148    3.2046  -13.9359 O   0  0  0  0  0  0  0  0  0  0  0  0
  1  2  1  0
  2  3  1  0
  3  4  2  0
  4  5  1  0
  5  6  1  0
  6  7  1  0
  7  8  2  0
  7  9  1  0
  9 10  1  0
  9 11  1  0
 11 12  1  0
  5 13  2  0
 13 14  1  0
 14 15  1  0
 14 16  2  0
 14 17  2  0
 13  2  1  0
 12  9  1  0
M  END
>  <energy_score>  (3097) 
-42.419257

>  <alias>  (3097) 
None

>  <HIPPO Pose ID>  (3097) 
76399

>  <smiles>  (3097) 
Cn1cnc(NC(=O)C2(F)CC2)c1S(N)(=O)=O

>  <inchikey>  (3097) 
YSSMAWLVCPZIHC-UHFFFAOYSA-N

>  <distance_score>  (3097) 
1.366965

>  <ref_mols>  (3097) 
Z0719a,Z1597a

>  <ref_pdb>  (3097) 
Z0719a

>  <HIPPO Compound ID>  (3097) 
151853

>  <name>  (3097) 
P76399

>  <inspiration_score>  (3097) 
None

$$$$
P76400
     RDKit          3D

 17 18  0  0  0  0  0  0  0  0999 V2000
   -6.0537    8.1099  -12.4610 C   0  0  0  0  0  0  0  0  0  0  0  0
   -6.4486    6.7660  -12.1985 O   0  0  0  0  0  0  0  0  0  0  0  0
   -7.5221    6.6573  -11.3676 C   0  0  0  0  0  0  0  0  0  0  0  0
   -8.0504    7.5985  -10.7879 O   0  0  0  0  0  0  0  0  0  0  0  0
   -7.8719    5.2790  -11.1962 C   0  0  0  0  0  0  0  0  0  0  0  0
   -7.9651    4.2239  -12.0765 C   0  0  0  0  0  0  0  0  0  0  0  0
   -7.8604    4.1439  -13.4211 N   0  0  0  0  0  0  0  0  0  0  0  0
   -7.8733    5.2465  -14.4915 C   0  0  0  0  0  0  0  0  0  0  0  0
   -8.0534    6.3948  -14.3928 O   0  0  0  0  0  0  0  0  0  0  0  0
   -7.5396    4.6104  -15.7986 C   0  0  0  0  0  0  0  0  0  0  0  0
   -6.7017    3.5078  -15.6852 F   0  0  0  0  0  0  0  0  0  0  0  0
   -7.3397    5.3928  -17.0627 C   0  0  0  0  0  0  0  0  0  0  0  0
   -8.5743    4.5488  -16.8871 C   0  0  0  0  0  0  0  0  0  0  0  0
   -8.1728    3.0439  -11.4276 N   0  0  0  0  0  0  0  0  0  0  0  0
   -8.2901    3.3510  -10.1609 C   0  0  0  0  0  0  0  0  0  0  0  0
   -8.1465    4.6918   -9.9771 N   0  0  0  0  0  0  0  0  0  0  0  0
   -8.1643    5.3632   -8.7084 C   0  0  0  0  0  0  0  0  0  0  0  0
  1  2  1  0
  2  3  1  0
  3  4  2  0
  3  5  1  0
  5  6  2  0
  6  7  1  0
  7  8  1  0
  8  9  2  0
  8 10  1  0
 10 11  1  0
 10 12  1  0
 12 13  1  0
  6 14  1  0
 14 15  2  0
 15 16  1  0
 16 17  1  0
 16  5  1  0
 13 10  1  0
M  END
>  <energy_score>  (3098) 
-28.74119

>  <alias>  (3098) 
None

>  <HIPPO Pose ID>  (3098) 
76400

>  <smiles>  (3098) 
COC(=O)c1c(NC(=O)C2(F)CC2)ncn1C

>  <inchikey>  (3098) 
DNPFMWMUTIXOBW-UHFFFAOYSA-N

>  <distance_score>  (3098) 
1.995616

>  <ref_mols>  (3098) 
Z0719a,Z1597a

>  <ref_pdb>  (3098) 
Z0719a

>  <HIPPO Compound ID>  (3098) 
151855

>  <name>  (3098) 
P76400

>  <inspiration_score>  (3098) 
None

$$$$
P76401
     RDKit          3D

 17 18  0  0  0  0  0  0  0  0999 V2000
   -4.2901    7.1691  -20.6080 C   0  0  0  0  0  0  0  0  0  0  0  0
   -3.5687    5.9306  -20.1681 C   0  0  0  0  0  0  0  0  0  0  0  0
   -2.7064    5.3854  -20.8540 O   0  0  0  0  0  0  0  0  0  0  0  0
   -3.9451    5.3548  -18.7976 C   0  0  0  0  0  0  0  0  0  0  0  0
   -3.0904    5.1056  -18.0470 O   0  0  0  0  0  0  0  0  0  0  0  0
   -5.4731    5.2451  -18.6427 N   0  0  0  0  0  0  0  0  0  0  0  0
   -6.2283    4.9157  -17.5651 C   0  0  0  0  0  0  0  0  0  0  0  0
   -7.5822    5.0521  -17.6828 N   0  0  0  0  0  0  0  0  0  0  0  0
   -8.0656    4.7363  -16.5035 C   0  0  0  0  0  0  0  0  0  0  0  0
   -7.0834    4.3595  -15.6509 N   0  0  0  0  0  0  0  0  0  0  0  0
   -5.8951    4.4972  -16.2995 C   0  0  0  0  0  0  0  0  0  0  0  0
   -4.6738    4.2042  -15.6608 C   0  0  0  0  0  0  0  0  0  0  0  0
   -3.8162    3.8730  -14.9572 N   0  0  0  0  0  0  0  0  0  0  0  0
   -7.3572    3.9977  -14.2725 C   0  0  0  0  0  0  0  0  0  0  0  0
   -8.5416    4.7798  -13.7149 C   0  0  0  0  0  0  0  0  0  0  0  0
   -9.3553    5.4491  -14.6858 O   0  0  0  0  0  0  0  0  0  0  0  0
   -9.4251    4.8056  -15.9748 C   0  0  0  0  0  0  0  0  0  0  0  0
  1  2  1  0
  2  3  2  0
  2  4  1  0
  4  5  2  0
  4  6  1  0
  6  7  1  0
  7  8  1  0
  8  9  2  0
  9 10  1  0
 10 11  1  0
 11 12  1  0
 12 13  3  0
 10 14  1  0
 14 15  1  0
 15 16  1  0
 16 17  1  0
 11  7  2  0
 17  9  1  0
M  END
>  <energy_score>  (3099) 
-9.863244

>  <alias>  (3099) 
None

>  <HIPPO Pose ID>  (3099) 
76401

>  <smiles>  (3099) 
CC(=O)C(=O)Nc1nc2n(c1C#N)CCOC2

>  <inchikey>  (3099) 
DVQDMJIRRPKAAA-UHFFFAOYSA-N

>  <distance_score>  (3099) 
1.706336

>  <ref_mols>  (3099) 
Z0719a,Z1597a

>  <ref_pdb>  (3099) 
Z0719a

>  <HIPPO Compound ID>  (3099) 
151861

>  <name>  (3099) 
P76401

>  <inspiration_score>  (3099) 
None

$$$$
P76402
     RDKit          3D

 17 18  0  0  0  0  0  0  0  0999 V2000
   -9.0337    3.9893  -18.8704 C   0  0  0  0  0  0  0  0  0  0  0  0
   -8.5553    4.4282  -17.5563 C   0  0  0  0  0  0  0  0  0  0  0  0
   -9.3120    4.1883  -16.4403 N   0  0  0  0  0  0  0  0  0  0  0  0
   -8.6067    4.7069  -15.4633 C   0  0  0  0  0  0  0  0  0  0  0  0
   -8.8810    4.6954  -14.0618 C   0  0  0  0  0  0  0  0  0  0  0  0
   -8.1292    5.2919  -13.1778 N   0  0  0  0  0  0  0  0  0  0  0  0
   -6.9878    5.8935  -13.6450 C   0  0  0  0  0  0  0  0  0  0  0  0
   -6.6358    5.9216  -14.9390 C   0  0  0  0  0  0  0  0  0  0  0  0
   -7.4620    5.3276  -15.8821 N   0  0  0  0  0  0  0  0  0  0  0  0
   -7.3789    5.0680  -17.2300 C   0  0  0  0  0  0  0  0  0  0  0  0
   -6.2464    5.1756  -17.9631 N   0  0  0  0  0  0  0  0  0  0  0  0
   -5.1575    6.2783  -17.9769 C   0  0  0  0  0  0  0  0  0  0  0  0
   -5.1085    7.3011  -17.4146 O   0  0  0  0  0  0  0  0  0  0  0  0
   -4.0219    5.7279  -18.8301 C   0  0  1  0  0  0  0  0  0  0  0  0
   -3.6395    6.7117  -19.9294 C   0  0  0  0  0  0  0  0  0  0  0  0
   -2.8818    5.4470  -17.8372 C   0  0  0  0  0  0  0  0  0  0  0  0
   -3.4831    4.3193  -16.3052 Br  0  0  0  0  0  0  0  0  0  0  0  0
  1  2  1  0
  2  3  1  0
  3  4  2  0
  4  5  1  0
  5  6  2  0
  6  7  1  0
  7  8  2  0
  8  9  1  0
  9 10  1  0
 10 11  1  0
 11 12  1  0
 12 13  2  0
 12 14  1  0
 14 15  1  6
 14 16  1  0
 16 17  1  0
 10  2  2  0
  9  4  1  0
M  END
>  <energy_score>  (3100) 
-22.515268

>  <alias>  (3100) 
None

>  <HIPPO Pose ID>  (3100) 
76402

>  <smiles>  (3100) 
Cc1nc2cnccn2c1NC(=O)[C@@H](C)CBr

>  <inchikey>  (3100) 
YEUFGIOGNYUOAV-ZETCQYMHSA-N

>  <distance_score>  (3100) 
1.8966

>  <ref_mols>  (3100) 
Z0719a,Z1597a

>  <ref_pdb>  (3100) 
Z0719a

>  <HIPPO Compound ID>  (3100) 
151865

>  <name>  (3100) 
P76402

>  <inspiration_score>  (3100) 
None

$$$$
P76407
     RDKit          3D

 17 18  0  0  0  0  0  0  0  0999 V2000
   -3.9561    6.8824  -20.3340 C   0  0  0  0  0  0  0  0  0  0  0  0
   -3.4241    5.5688  -19.7925 C   0  0  1  0  0  0  0  0  0  0  0  0
   -1.4898    5.5137  -20.0808 Br  0  0  0  0  0  0  0  0  0  0  0  0
   -3.7538    5.2697  -18.3313 C   0  0  0  0  0  0  0  0  0  0  0  0
   -2.9526    5.1064  -17.4967 O   0  0  0  0  0  0  0  0  0  0  0  0
   -5.3050    5.1417  -18.2791 N   0  0  0  0  0  0  0  0  0  0  0  0
   -6.1297    4.8970  -17.2385 C   0  0  0  0  0  0  0  0  0  0  0  0
   -7.4686    5.0700  -17.4333 N   0  0  0  0  0  0  0  0  0  0  0  0
   -8.0186    4.7553  -16.2842 C   0  0  0  0  0  0  0  0  0  0  0  0
   -7.0907    4.3477  -15.3864 N   0  0  0  0  0  0  0  0  0  0  0  0
   -5.8688    4.4672  -15.9631 C   0  0  0  0  0  0  0  0  0  0  0  0
   -4.6879    4.1060  -15.2862 C   0  0  0  0  0  0  0  0  0  0  0  0
   -3.8676    3.7078  -14.5732 N   0  0  0  0  0  0  0  0  0  0  0  0
   -7.4482    3.9399  -14.0449 C   0  0  0  0  0  0  0  0  0  0  0  0
   -8.6176    4.7635  -13.5287 C   0  0  0  0  0  0  0  0  0  0  0  0
   -9.4283    5.4068  -14.5216 O   0  0  0  0  0  0  0  0  0  0  0  0
   -9.4054    4.8163  -15.8388 C   0  0  0  0  0  0  0  0  0  0  0  0
  2  1  1  1
  2  3  1  0
  2  4  1  0
  4  5  2  0
  4  6  1  0
  6  7  1  0
  7  8  1  0
  8  9  2  0
  9 10  1  0
 10 11  1  0
 11 12  1  0
 12 13  3  0
 10 14  1  0
 14 15  1  0
 15 16  1  0
 16 17  1  0
 11  7  2  0
 17  9  1  0
M  END
>  <energy_score>  (3101) 
-9.555423

>  <alias>  (3101) 
None

>  <HIPPO Pose ID>  (3101) 
76407

>  <smiles>  (3101) 
C[C@@H](Br)C(=O)Nc1nc2n(c1C#N)CCOC2

>  <inchikey>  (3101) 
WCKBIXVFZXQMCH-ZCFIWIBFSA-N

>  <distance_score>  (3101) 
1.825557

>  <ref_mols>  (3101) 
Z0719a,Z1597a

>  <ref_pdb>  (3101) 
Z0719a

>  <HIPPO Compound ID>  (3101) 
151881

>  <name>  (3101) 
P76407

>  <inspiration_score>  (3101) 
None

$$$$
P76408
     RDKit          3D

 17 18  0  0  0  0  0  0  0  0999 V2000
   -8.6435    4.4098  -13.8522 C   0  0  0  0  0  0  0  0  0  0  0  0
   -8.0853    4.3025  -15.1779 N   0  0  0  0  0  0  0  0  0  0  0  0
   -8.7625    4.4810  -16.3383 C   0  0  0  0  0  0  0  0  0  0  0  0
   -7.9290    4.6325  -17.3326 N   0  0  0  0  0  0  0  0  0  0  0  0
   -6.6753    4.5087  -16.7930 C   0  0  0  0  0  0  0  0  0  0  0  0
   -5.6952    4.8004  -17.6911 N   0  0  0  0  0  0  0  0  0  0  0  0
   -4.2384    5.2296  -17.4736 C   0  0  0  0  0  0  0  0  0  0  0  0
   -3.6179    5.3288  -16.4913 O   0  0  0  0  0  0  0  0  0  0  0  0
   -3.5857    5.6054  -18.7944 C   0  0  1  0  0  0  0  0  0  0  0  0
   -4.2427    6.5775  -19.7425 C   0  0  0  0  0  0  0  0  0  0  0  0
   -2.0684    5.4765  -18.8729 C   0  0  0  0  0  0  0  0  0  0  0  0
   -2.9343    4.5165  -19.4783 O   0  0  0  0  0  0  0  0  0  0  0  0
   -6.7386    4.1409  -15.4557 C   0  0  0  0  0  0  0  0  0  0  0  0
   -5.6819    3.5733  -14.1706 S   0  0  0  0  0  0  0  0  0  0  0  0
   -4.1270    3.4489  -14.7176 N   0  0  0  0  0  0  0  0  0  0  0  0
   -5.7014    4.6248  -13.1876 O   0  0  0  0  0  0  0  0  0  0  0  0
   -6.0971    2.2431  -13.7961 O   0  0  0  0  0  0  0  0  0  0  0  0
  1  2  1  0
  2  3  1  0
  3  4  2  0
  4  5  1  0
  5  6  1  0
  6  7  1  0
  7  8  2  0
  7  9  1  0
  9 10  1  6
  9 11  1  0
 11 12  1  0
  5 13  2  0
 13 14  1  0
 14 15  1  0
 14 16  2  0
 14 17  2  0
 13  2  1  0
 12  9  1  0
M  END
>  <energy_score>  (3102) 
-34.847634

>  <alias>  (3102) 
None

>  <HIPPO Pose ID>  (3102) 
76408

>  <smiles>  (3102) 
Cn1cnc(NC(=O)[C@@]2(C)CO2)c1S(N)(=O)=O

>  <inchikey>  (3102) 
HBQOUZWOXTZWKO-MRVPVSSYSA-N

>  <distance_score>  (3102) 
1.97918

>  <ref_mols>  (3102) 
Z0719a,Z1597a

>  <ref_pdb>  (3102) 
Z0719a

>  <HIPPO Compound ID>  (3102) 
151888

>  <name>  (3102) 
P76408

>  <inspiration_score>  (3102) 
None

$$$$
P76409
     RDKit          3D

 17 18  0  0  0  0  0  0  0  0999 V2000
   -9.4364    4.8009  -16.3568 C   0  0  0  0  0  0  0  0  0  0  0  0
   -8.0024    4.6698  -16.1434 C   0  0  0  0  0  0  0  0  0  0  0  0
   -7.0950    4.9971  -17.0216 N   0  0  0  0  0  0  0  0  0  0  0  0
   -5.8908    4.5944  -16.5126 C   0  0  0  0  0  0  0  0  0  0  0  0
   -4.9390    4.8149  -17.4542 N   0  0  0  0  0  0  0  0  0  0  0  0
   -3.4125    4.7623  -17.3578 C   0  0  0  0  0  0  0  0  0  0  0  0
   -2.7230    4.4467  -16.4763 O   0  0  0  0  0  0  0  0  0  0  0  0
   -2.7979    5.2225  -18.6903 C   0  0  2  0  0  0  0  0  0  0  0  0
   -3.4618    6.2659  -19.5681 C   0  0  0  0  0  0  0  0  0  0  0  0
   -1.8345    4.2735  -19.3773 C   0  0  0  0  0  0  0  0  0  0  0  0
   -1.3616    5.4003  -18.6406 O   0  0  0  0  0  0  0  0  0  0  0  0
   -6.0776    4.0681  -15.2523 C   0  0  0  0  0  0  0  0  0  0  0  0
   -5.2758    3.3832  -14.2951 N   0  0  0  0  0  0  0  0  0  0  0  0
   -5.7949    2.4005  -13.7395 O   0  0  0  0  0  0  0  0  0  0  0  0
   -4.1593    3.8296  -14.0396 O   0  0  0  0  0  0  0  0  0  0  0  0
   -7.4227    4.2289  -14.9903 N   0  0  0  0  0  0  0  0  0  0  0  0
   -8.0697    4.0918  -13.7030 C   0  0  0  0  0  0  0  0  0  0  0  0
  1  2  1  0
  2  3  2  0
  3  4  1  0
  4  5  1  0
  5  6  1  0
  6  7  2  0
  6  8  1  0
  8  9  1  6
  8 10  1  0
 10 11  1  0
  4 12  2  0
 12 13  1  0
 13 14  2  0
 13 15  1  0
 12 16  1  0
 16 17  1  0
 16  2  1  0
 11  8  1  0
M  CHG  2  13   1  15  -1
M  END
>  <energy_score>  (3103) 
-22.58699

>  <alias>  (3103) 
None

>  <HIPPO Pose ID>  (3103) 
76409

>  <smiles>  (3103) 
Cc1nc(NC(=O)[C@]2(C)CO2)c([N+](=O)[O-])n1C

>  <inchikey>  (3103) 
MRCQDNFDWIQZDK-VIFPVBQESA-N

>  <distance_score>  (3103) 
1.931539

>  <ref_mols>  (3103) 
Z0719a,Z1597a

>  <ref_pdb>  (3103) 
Z0719a

>  <HIPPO Compound ID>  (3103) 
151895

>  <name>  (3103) 
P76409

>  <inspiration_score>  (3103) 
None

$$$$
P76412
     RDKit          3D

 17 18  0  0  0  0  0  0  0  0999 V2000
   -4.8782    2.8492  -13.5079 C   0  0  0  0  0  0  0  0  0  0  0  0
   -4.5360    3.7317  -12.3196 C   0  0  0  0  0  0  0  0  0  0  0  0
   -5.1604    5.0232  -12.4351 O   0  0  0  0  0  0  0  0  0  0  0  0
   -6.0231    5.3694  -11.4360 C   0  0  0  0  0  0  0  0  0  0  0  0
   -5.7772    6.2655  -10.6368 O   0  0  0  0  0  0  0  0  0  0  0  0
   -7.1766    4.5241  -11.3719 C   0  0  0  0  0  0  0  0  0  0  0  0
   -7.6964    4.0621  -10.1802 N   0  0  0  0  0  0  0  0  0  0  0  0
   -8.5928    3.0811  -10.4761 C   0  0  0  0  0  0  0  0  0  0  0  0
   -8.7615    2.9734  -11.7727 N   0  0  0  0  0  0  0  0  0  0  0  0
   -7.9536    3.9169  -12.3335 C   0  0  0  0  0  0  0  0  0  0  0  0
   -7.9635    4.0572  -13.6867 N   0  0  0  0  0  0  0  0  0  0  0  0
   -7.5394    5.2471  -14.5751 C   0  0  0  0  0  0  0  0  0  0  0  0
   -7.0432    6.2647  -14.2905 O   0  0  0  0  0  0  0  0  0  0  0  0
   -7.7365    4.9415  -16.0455 C   0  0  1  0  0  0  0  0  0  0  0  0
   -9.0553    4.4840  -16.5804 C   0  0  0  0  0  0  0  0  0  0  0  0
   -6.7991    5.6208  -17.0403 C   0  0  0  0  0  0  0  0  0  0  0  0
   -6.6182    4.2633  -16.6476 O   0  0  0  0  0  0  0  0  0  0  0  0
  1  2  1  0
  2  3  1  0
  3  4  1  0
  4  5  2  0
  4  6  1  0
  6  7  1  0
  7  8  1  0
  8  9  2  0
  9 10  1  0
 10 11  1  0
 11 12  1  0
 12 13  2  0
 12 14  1  0
 14 15  1  6
 14 16  1  0
 16 17  1  0
 10  6  2  0
 17 14  1  0
M  END
>  <energy_score>  (3104) 
-17.881401

>  <alias>  (3104) 
None

>  <HIPPO Pose ID>  (3104) 
76412

>  <smiles>  (3104) 
CCOC(=O)c1[nH]cnc1NC(=O)[C@@]1(C)CO1

>  <inchikey>  (3104) 
PIKYGWDNJAUDHA-SNVBAGLBSA-N

>  <distance_score>  (3104) 
1.211344

>  <ref_mols>  (3104) 
Z0719a,Z1597a

>  <ref_pdb>  (3104) 
Z0719a

>  <HIPPO Compound ID>  (3104) 
151901

>  <name>  (3104) 
P76412

>  <inspiration_score>  (3104) 
None

$$$$
P76413
     RDKit          3D

 17 18  0  0  0  0  0  0  0  0999 V2000
   -5.2949    7.3502  -20.2450 C   0  0  0  0  0  0  0  0  0  0  0  0
   -3.9256    6.7263  -20.0466 C   0  0  0  0  0  0  0  0  0  0  0  0
   -3.9132    5.3438  -19.3962 C   0  0  1  0  0  0  0  0  0  0  0  0
   -2.6036    4.9245  -19.3889 F   0  0  0  0  0  0  0  0  0  0  0  0
   -4.5306    5.3048  -17.9869 C   0  0  0  0  0  0  0  0  0  0  0  0
   -3.9030    5.4185  -17.0045 O   0  0  0  0  0  0  0  0  0  0  0  0
   -6.0634    5.0664  -18.1880 N   0  0  0  0  0  0  0  0  0  0  0  0
   -7.0582    4.8380  -17.2689 C   0  0  0  0  0  0  0  0  0  0  0  0
   -8.3594    4.4936  -17.5892 C   0  0  0  0  0  0  0  0  0  0  0  0
   -8.9685    4.2516  -18.8984 C   0  0  0  0  0  0  0  0  0  0  0  0
   -9.1344    4.3426  -16.4781 N   0  0  0  0  0  0  0  0  0  0  0  0
   -8.3415    4.5935  -15.4625 C   0  0  0  0  0  0  0  0  0  0  0  0
   -8.7693    4.6239  -14.0514 C   0  0  0  0  0  0  0  0  0  0  0  0
   -7.0625    4.8495  -15.8935 N   0  0  0  0  0  0  0  0  0  0  0  0
   -5.9009    5.0067  -15.0085 C   0  0  0  0  0  0  0  0  0  0  0  0
   -5.4517    6.3809  -14.5829 C   0  0  0  0  0  0  0  0  0  0  0  0
   -5.8904    5.4010  -13.5451 C   0  0  0  0  0  0  0  0  0  0  0  0
  1  2  1  0
  2  3  1  0
  3  4  1  1
  3  5  1  0
  5  6  2  0
  5  7  1  0
  7  8  1  0
  8  9  2  0
  9 10  1  0
  9 11  1  0
 11 12  2  0
 12 13  1  0
 12 14  1  0
 14 15  1  0
 15 16  1  0
 16 17  1  0
 14  8  1  0
 17 15  1  0
M  END
>  <energy_score>  (3105) 
-14.230657

>  <alias>  (3105) 
None

>  <HIPPO Pose ID>  (3105) 
76413

>  <smiles>  (3105) 
CC[C@@H](F)C(=O)Nc1c(C)nc(C)n1C1CC1

>  <inchikey>  (3105) 
XPLGNWBCNAAYBK-SNVBAGLBSA-N

>  <distance_score>  (3105) 
1.796503

>  <ref_mols>  (3105) 
Z0719a,Z1597a

>  <ref_pdb>  (3105) 
Z0719a

>  <HIPPO Compound ID>  (3105) 
151902

>  <name>  (3105) 
P76413

>  <inspiration_score>  (3105) 
None

$$$$
P76415
     RDKit          3D

 17 18  0  0  0  0  0  0  0  0999 V2000
   -3.4493    9.3462  -21.0874 C   0  0  0  0  0  0  0  0  0  0  0  0
   -4.7001    8.6519  -21.6106 C   0  0  0  0  0  0  0  0  0  0  0  0
   -4.5239    7.1671  -21.8523 C   0  0  1  0  0  0  0  0  0  0  0  0
   -3.4547    6.9749  -22.6838 F   0  0  0  0  0  0  0  0  0  0  0  0
   -4.3419    6.4491  -20.5146 C   0  0  0  0  0  0  0  0  0  0  0  0
   -3.2858    6.3161  -20.0226 O   0  0  0  0  0  0  0  0  0  0  0  0
   -5.7611    6.0826  -19.9778 N   0  0  0  0  0  0  0  0  0  0  0  0
   -6.1312    5.4406  -18.8537 C   0  0  0  0  0  0  0  0  0  0  0  0
   -7.4137    5.1648  -18.4492 C   0  0  0  0  0  0  0  0  0  0  0  0
   -7.2809    4.7781  -17.1511 N   0  0  0  0  0  0  0  0  0  0  0  0
   -8.2849    4.7356  -16.2438 N   0  0  0  0  0  0  0  0  0  0  0  0
   -7.8339    4.5587  -15.0455 C   0  0  0  0  0  0  0  0  0  0  0  0
   -8.9409    4.8111  -13.7749 Cl  0  0  0  0  0  0  0  0  0  0  0  0
   -6.4356    4.2687  -14.6559 C   0  0  0  0  0  0  0  0  0  0  0  0
   -5.5056    4.3785  -15.6011 C   0  0  0  0  0  0  0  0  0  0  0  0
   -5.9187    4.7179  -16.8975 C   0  0  0  0  0  0  0  0  0  0  0  0
   -5.2058    5.0872  -17.9291 N   0  0  0  0  0  0  0  0  0  0  0  0
  1  2  1  0
  2  3  1  0
  3  4  1  6
  3  5  1  0
  5  6  2  0
  5  7  1  0
  7  8  1  0
  8  9  2  0
  9 10  1  0
 10 11  1  0
 11 12  2  0
 12 13  1  0
 12 14  1  0
 14 15  2  0
 15 16  1  0
 16 17  2  0
 17  8  1  0
 16 10  1  0
M  END
>  <energy_score>  (3106) 
-9.539359

>  <alias>  (3106) 
None

>  <HIPPO Pose ID>  (3106) 
76415

>  <smiles>  (3106) 
CC[C@@H](F)C(=O)Nc1cn2nc(Cl)ccc2n1

>  <inchikey>  (3106) 
WHNCJOSAJJHKBC-ZCFIWIBFSA-N

>  <distance_score>  (3106) 
1.948731

>  <ref_mols>  (3106) 
Z0719a,Z1597a

>  <ref_pdb>  (3106) 
Z0719a

>  <HIPPO Compound ID>  (3106) 
151903

>  <name>  (3106) 
P76415

>  <inspiration_score>  (3106) 
None

$$$$
P76418
     RDKit          3D

 17 17  0  0  0  0  0  0  0  0999 V2000
   -7.4718    4.0616  -12.9341 C   0  0  0  0  0  0  0  0  0  0  0  0
   -6.4000    3.9674  -14.0059 C   0  0  0  0  0  0  0  0  0  0  0  0
   -6.2491    5.1574  -14.9595 C   0  0  0  0  0  0  0  0  0  0  0  0
   -7.2235    5.2279  -16.0146 N   0  0  0  0  0  0  0  0  0  0  0  0
   -8.5747    5.3375  -15.7918 C   0  0  0  0  0  0  0  0  0  0  0  0
   -9.1637    6.0768  -14.6516 C   0  0  0  0  0  0  0  0  0  0  0  0
   -9.2311    4.7626  -16.7710 N   0  0  0  0  0  0  0  0  0  0  0  0
   -8.3019    4.5704  -17.7581 C   0  0  0  0  0  0  0  0  0  0  0  0
   -8.7619    4.0871  -19.0568 C   0  0  0  0  0  0  0  0  0  0  0  0
   -7.0538    5.0054  -17.3584 C   0  0  0  0  0  0  0  0  0  0  0  0
   -5.9407    5.2081  -18.1324 N   0  0  0  0  0  0  0  0  0  0  0  0
   -4.6312    6.0000  -17.8344 C   0  0  0  0  0  0  0  0  0  0  0  0
   -4.2731    6.5337  -16.8545 O   0  0  0  0  0  0  0  0  0  0  0  0
   -3.8340    6.0824  -19.1458 C   0  0  1  0  0  0  0  0  0  0  0  0
   -3.6888    4.8646  -19.7497 F   0  0  0  0  0  0  0  0  0  0  0  0
   -4.4884    7.0502  -20.1313 C   0  0  0  0  0  0  0  0  0  0  0  0
   -3.5258    7.5098  -21.2135 C   0  0  0  0  0  0  0  0  0  0  0  0
  1  2  1  0
  2  3  1  0
  3  4  1  0
  4  5  1  0
  5  6  1  0
  5  7  2  0
  7  8  1  0
  8  9  1  0
  8 10  2  0
 10 11  1  0
 11 12  1  0
 12 13  2  0
 12 14  1  0
 14 15  1  6
 14 16  1  0
 16 17  1  0
 10  4  1  0
M  END
>  <energy_score>  (3107) 
-17.162103

>  <alias>  (3107) 
None

>  <HIPPO Pose ID>  (3107) 
76418

>  <smiles>  (3107) 
CCCn1c(C)nc(C)c1NC(=O)[C@@H](F)CC

>  <inchikey>  (3107) 
UCBAYVGJVOPXMU-JTQLQIEISA-N

>  <distance_score>  (3107) 
1.413818

>  <ref_mols>  (3107) 
Z0719a,Z1597a

>  <ref_pdb>  (3107) 
Z0719a

>  <HIPPO Compound ID>  (3107) 
151908

>  <name>  (3107) 
P76418

>  <inspiration_score>  (3107) 
None

$$$$
P76422
     RDKit          3D

 17 18  0  0  0  0  0  0  0  0999 V2000
   -2.0401    1.0552  -10.4891 C   0  0  0  0  0  0  0  0  0  0  0  0
   -0.6432    1.2176  -11.0706 C   0  0  0  0  0  0  0  0  0  0  0  0
   -0.6177    1.6111  -12.5440 C   0  0  1  0  0  0  0  0  0  0  0  0
   -1.2977    0.6750  -13.2728 F   0  0  0  0  0  0  0  0  0  0  0  0
   -1.1521    3.0197  -12.8119 C   0  0  0  0  0  0  0  0  0  0  0  0
   -0.4632    3.9660  -12.8280 O   0  0  0  0  0  0  0  0  0  0  0  0
   -2.6908    2.8868  -13.0242 N   0  0  0  0  0  0  0  0  0  0  0  0
   -3.6200    3.8219  -13.3720 C   0  0  0  0  0  0  0  0  0  0  0  0
   -3.2604    5.1323  -13.6111 N   0  0  0  0  0  0  0  0  0  0  0  0
   -4.3848    5.7181  -13.9055 C   0  0  0  0  0  0  0  0  0  0  0  0
   -5.4370    4.8696  -13.8687 N   0  0  0  0  0  0  0  0  0  0  0  0
   -4.9846    3.6386  -13.5281 C   0  0  0  0  0  0  0  0  0  0  0  0
   -5.8035    2.5007  -13.3594 C   0  0  0  0  0  0  0  0  0  0  0  0
   -6.5198    1.5948  -13.2695 N   0  0  0  0  0  0  0  0  0  0  0  0
   -6.7499    5.4158  -14.1142 C   0  0  0  0  0  0  0  0  0  0  0  0
   -6.5374    6.7913  -14.7525 C   0  0  0  0  0  0  0  0  0  0  0  0
   -4.8279    7.3199  -14.3299 S   0  0  0  0  0  0  0  0  0  0  0  0
  1  2  1  0
  2  3  1  0
  3  4  1  6
  3  5  1  0
  5  6  2  0
  5  7  1  0
  7  8  1  0
  8  9  1  0
  9 10  2  0
 10 11  1  0
 11 12  1  0
 12 13  1  0
 13 14  3  0
 11 15  1  0
 15 16  1  0
 16 17  1  0
 12  8  2  0
 17 10  1  0
M  END
>  <energy_score>  (3108) 
-18.667509

>  <alias>  (3108) 
None

>  <HIPPO Pose ID>  (3108) 
76422

>  <smiles>  (3108) 
CC[C@@H](F)C(=O)Nc1nc2n(c1C#N)CCS2

>  <inchikey>  (3108) 
PRDHSTAMEAVQBF-ZCFIWIBFSA-N

>  <distance_score>  (3108) 
1.011248

>  <ref_mols>  (3108) 
Z0719a,Z1597a

>  <ref_pdb>  (3108) 
Z0719a

>  <HIPPO Compound ID>  (3108) 
151917

>  <name>  (3108) 
P76422

>  <inspiration_score>  (3108) 
None

$$$$
P76425
     RDKit          3D

 17 17  0  0  0  0  0  0  0  0999 V2000
   -3.9147    5.9600  -19.1215 O   0  0  0  0  0  0  0  0  0  0  0  0
   -5.0320    6.1806  -19.3919 C   0  0  0  0  0  0  0  0  0  0  0  0
   -5.4378    7.0733  -20.5558 C   0  0  0  0  0  0  0  0  0  0  0  0
   -4.2375    7.4994  -21.3993 C   0  0  0  0  0  0  0  0  0  0  0  0
   -3.3989    8.5720  -20.7129 C   0  0  0  0  0  0  0  0  0  0  0  0
   -2.0576    9.0715  -21.7736 Cl  0  0  0  0  0  0  0  0  0  0  0  0
   -6.3447    5.7726  -18.6640 N   0  0  0  0  0  0  0  0  0  0  0  0
   -6.5336    5.1359  -17.4862 C   0  0  0  0  0  0  0  0  0  0  0  0
   -5.5448    4.6684  -16.6682 C   0  0  0  0  0  0  0  0  0  0  0  0
   -6.1813    4.1778  -15.5584 N   0  0  0  0  0  0  0  0  0  0  0  0
   -5.4649    3.6993  -14.3852 C   0  0  0  0  0  0  0  0  0  0  0  0
   -6.2625    2.9467  -13.3576 C   0  0  0  0  0  0  0  0  0  0  0  0
   -6.6729    1.7342  -13.7719 F   0  0  0  0  0  0  0  0  0  0  0  0
   -7.3342    3.6664  -12.9850 F   0  0  0  0  0  0  0  0  0  0  0  0
   -5.5022    2.7537  -12.2518 F   0  0  0  0  0  0  0  0  0  0  0  0
   -7.5242    4.3356  -15.7788 C   0  0  0  0  0  0  0  0  0  0  0  0
   -7.7562    4.9448  -16.9267 N   0  0  0  0  0  0  0  0  0  0  0  0
  1  2  2  0
  2  3  1  0
  3  4  1  0
  4  5  1  0
  5  6  1  0
  2  7  1  0
  7  8  1  0
  8  9  2  0
  9 10  1  0
 10 11  1  0
 11 12  1  0
 12 13  1  0
 12 14  1  0
 12 15  1  0
 10 16  1  0
 16 17  2  0
 17  8  1  0
M  END
>  <energy_score>  (3109) 
-24.918993

>  <alias>  (3109) 
None

>  <HIPPO Pose ID>  (3109) 
76425

>  <smiles>  (3109) 
O=C(CCCCl)Nc1cn(CC(F)(F)F)cn1

>  <inchikey>  (3109) 
DLHZLTPUEDHYMZ-UHFFFAOYSA-N

>  <distance_score>  (3109) 
1.942287

>  <ref_mols>  (3109) 
Z0719a,Z1597a

>  <ref_pdb>  (3109) 
Z0719a

>  <HIPPO Compound ID>  (3109) 
151935

>  <name>  (3109) 
P76425

>  <inspiration_score>  (3109) 
None

$$$$
P76427
     RDKit          3D

 17 17  0  0  0  0  0  0  0  0999 V2000
   -3.7361    7.2712  -20.9631 C   0  0  0  0  0  0  0  0  0  0  0  0
   -4.2120    6.9104  -19.5637 C   0  0  0  0  0  0  0  0  0  0  0  0
   -3.9920    5.4605  -19.1253 C   0  0  1  0  0  0  0  0  0  0  0  0
   -2.0832    5.0280  -19.0935 Br  0  0  0  0  0  0  0  0  0  0  0  0
   -4.5839    5.1864  -17.7191 C   0  0  0  0  0  0  0  0  0  0  0  0
   -3.9577    5.1068  -16.7333 O   0  0  0  0  0  0  0  0  0  0  0  0
   -6.1235    5.0577  -17.9531 N   0  0  0  0  0  0  0  0  0  0  0  0
   -7.1535    4.9081  -17.0546 C   0  0  0  0  0  0  0  0  0  0  0  0
   -8.4325    4.5501  -17.4572 C   0  0  0  0  0  0  0  0  0  0  0  0
   -8.9463    4.2639  -18.8040 C   0  0  0  0  0  0  0  0  0  0  0  0
   -9.2745    4.3998  -16.4004 N   0  0  0  0  0  0  0  0  0  0  0  0
   -8.5561    4.6858  -15.3462 C   0  0  0  0  0  0  0  0  0  0  0  0
   -9.0299    4.6808  -13.9439 C   0  0  0  0  0  0  0  0  0  0  0  0
   -7.2577    5.0210  -15.6854 N   0  0  0  0  0  0  0  0  0  0  0  0
   -6.3354    5.3918  -14.6300 C   0  0  0  0  0  0  0  0  0  0  0  0
   -5.5385    4.1942  -14.1523 C   0  0  0  0  0  0  0  0  0  0  0  0
   -5.6055    6.7058  -14.8265 C   0  0  0  0  0  0  0  0  0  0  0  0
  1  2  1  0
  2  3  1  0
  3  4  1  1
  3  5  1  0
  5  6  2  0
  5  7  1  0
  7  8  1  0
  8  9  2  0
  9 10  1  0
  9 11  1  0
 11 12  2  0
 12 13  1  0
 12 14  1  0
 14 15  1  0
 15 16  1  0
 15 17  1  0
 14  8  1  0
M  END
>  <energy_score>  (3110) 
-26.170182

>  <alias>  (3110) 
None

>  <HIPPO Pose ID>  (3110) 
76427

>  <smiles>  (3110) 
CC[C@@H](Br)C(=O)Nc1c(C)nc(C)n1C(C)C

>  <inchikey>  (3110) 
RJMWAUZMUWNTIG-SNVBAGLBSA-N

>  <distance_score>  (3110) 
1.821922

>  <ref_mols>  (3110) 
Z0719a,Z1597a

>  <ref_pdb>  (3110) 
Z0719a

>  <HIPPO Compound ID>  (3110) 
151937

>  <name>  (3110) 
P76427

>  <inspiration_score>  (3110) 
None

$$$$
P76429
     RDKit          3D

 17 18  0  0  0  0  0  0  0  0999 V2000
   -3.7524    7.4636  -21.4480 C   0  0  0  0  0  0  0  0  0  0  0  0
   -4.3124    7.1911  -20.0598 C   0  0  0  0  0  0  0  0  0  0  0  0
   -3.9071    5.8703  -19.4107 C   0  0  1  0  0  0  0  0  0  0  0  0
   -1.9642    5.7101  -19.2374 Br  0  0  0  0  0  0  0  0  0  0  0  0
   -4.5248    5.7446  -18.0019 C   0  0  0  0  0  0  0  0  0  0  0  0
   -3.9941    6.0952  -17.0197 O   0  0  0  0  0  0  0  0  0  0  0  0
   -5.9276    5.0938  -18.2161 N   0  0  0  0  0  0  0  0  0  0  0  0
   -6.9418    4.8452  -17.3220 C   0  0  0  0  0  0  0  0  0  0  0  0
   -8.2291    4.4491  -17.6650 C   0  0  0  0  0  0  0  0  0  0  0  0
   -8.8107    4.1900  -18.9836 C   0  0  0  0  0  0  0  0  0  0  0  0
   -9.0321    4.2877  -16.5735 N   0  0  0  0  0  0  0  0  0  0  0  0
   -8.2465    4.5704  -15.5696 C   0  0  0  0  0  0  0  0  0  0  0  0
   -8.5967    4.5940  -14.1847 C   0  0  0  0  0  0  0  0  0  0  0  0
   -7.7499    4.9167  -13.2471 N   0  0  0  0  0  0  0  0  0  0  0  0
   -6.4579    5.1622  -13.6472 C   0  0  0  0  0  0  0  0  0  0  0  0
   -6.0489    5.1591  -14.9272 C   0  0  0  0  0  0  0  0  0  0  0  0
   -6.9613    4.8921  -15.9381 N   0  0  0  0  0  0  0  0  0  0  0  0
  1  2  1  0
  2  3  1  0
  3  4  1  1
  3  5  1  0
  5  6  2  0
  5  7  1  0
  7  8  1  0
  8  9  2  0
  9 10  1  0
  9 11  1  0
 11 12  2  0
 12 13  1  0
 13 14  2  0
 14 15  1  0
 15 16  2  0
 16 17  1  0
 17  8  1  0
 17 12  1  0
M  END
>  <energy_score>  (3111) 
-22.005947

>  <alias>  (3111) 
None

>  <HIPPO Pose ID>  (3111) 
76429

>  <smiles>  (3111) 
CC[C@@H](Br)C(=O)Nc1c(C)nc2cnccn12

>  <inchikey>  (3111) 
WCWFAYIKRVHGLO-MRVPVSSYSA-N

>  <distance_score>  (3111) 
1.616142

>  <ref_mols>  (3111) 
Z0719a,Z1597a

>  <ref_pdb>  (3111) 
Z0719a

>  <HIPPO Compound ID>  (3111) 
151939

>  <name>  (3111) 
P76429

>  <inspiration_score>  (3111) 
None

$$$$
P76431
     RDKit          3D

 17 17  0  0  0  0  0  0  0  0999 V2000
   -7.1958    3.8536  -11.2296 C   0  0  0  0  0  0  0  0  0  0  0  0
   -8.3648    4.1419  -12.1326 C   0  0  0  0  0  0  0  0  0  0  0  0
   -7.8802    4.2428  -13.4721 O   0  0  0  0  0  0  0  0  0  0  0  0
   -8.8228    4.6679  -14.3564 C   0  0  0  0  0  0  0  0  0  0  0  0
   -9.9591    5.0108  -14.0565 O   0  0  0  0  0  0  0  0  0  0  0  0
   -8.2881    4.7642  -15.6832 C   0  0  0  0  0  0  0  0  0  0  0  0
   -7.0470    5.1233  -15.9269 N   0  0  0  0  0  0  0  0  0  0  0  0
   -7.0543    5.5375  -17.2140 C   0  0  0  0  0  0  0  0  0  0  0  0
   -5.9419    6.1755  -17.6074 N   0  0  0  0  0  0  0  0  0  0  0  0
   -5.6765    7.0593  -18.8472 C   0  0  0  0  0  0  0  0  0  0  0  0
   -6.4032    7.4330  -19.6781 O   0  0  0  0  0  0  0  0  0  0  0  0
   -4.1751    7.2922  -18.8531 C   0  0  0  0  0  0  0  0  0  0  0  0
   -3.3993    6.0783  -19.3700 C   0  0  0  0  0  0  0  0  0  0  0  0
   -3.6321    4.7189  -18.6810 C   0  0  0  0  0  0  0  0  0  0  0  0
   -3.4962    4.7115  -16.8838 Cl  0  0  0  0  0  0  0  0  0  0  0  0
   -8.2166    5.2099  -17.8507 C   0  0  0  0  0  0  0  0  0  0  0  0
   -9.0184    4.7141  -16.8514 N   0  0  0  0  0  0  0  0  0  0  0  0
  1  2  1  0
  2  3  1  0
  3  4  1  0
  4  5  2  0
  4  6  1  0
  6  7  2  0
  7  8  1  0
  8  9  1  0
  9 10  1  0
 10 11  2  0
 10 12  1  0
 12 13  1  0
 13 14  1  0
 14 15  1  0
  8 16  2  0
 16 17  1  0
 17  6  1  0
M  END
>  <energy_score>  (3112) 
-3.002129

>  <alias>  (3112) 
None

>  <HIPPO Pose ID>  (3112) 
76431

>  <smiles>  (3112) 
CCOC(=O)c1nc(NC(=O)CCCCl)c[nH]1

>  <inchikey>  (3112) 
XOOBKAPCPMMOQI-UHFFFAOYSA-N

>  <distance_score>  (3112) 
1.972295

>  <ref_mols>  (3112) 
Z0719a,Z1597a

>  <ref_pdb>  (3112) 
Z0719a

>  <HIPPO Compound ID>  (3112) 
151946

>  <name>  (3112) 
P76431

>  <inspiration_score>  (3112) 
None

$$$$
P76432
     RDKit          3D

 17 17  0  0  0  0  0  0  0  0999 V2000
   -4.3166    8.0235  -22.6272 C   0  0  0  0  0  0  0  0  0  0  0  0
   -3.9737    7.3594  -21.3041 C   0  0  2  0  0  0  0  0  0  0  0  0
   -3.2627    6.2276  -21.5848 F   0  0  0  0  0  0  0  0  0  0  0  0
   -5.2326    7.0396  -20.5057 C   0  0  0  0  0  0  0  0  0  0  0  0
   -4.8741    6.3537  -19.2033 C   0  0  0  0  0  0  0  0  0  0  0  0
   -3.7786    6.3084  -18.7932 O   0  0  0  0  0  0  0  0  0  0  0  0
   -6.2113    5.8750  -18.5643 N   0  0  0  0  0  0  0  0  0  0  0  0
   -6.4434    5.2045  -17.4130 C   0  0  0  0  0  0  0  0  0  0  0  0
   -5.4805    4.7839  -16.5412 C   0  0  0  0  0  0  0  0  0  0  0  0
   -6.1494    4.1896  -15.5055 N   0  0  0  0  0  0  0  0  0  0  0  0
   -5.4669    3.6753  -14.3276 C   0  0  0  0  0  0  0  0  0  0  0  0
   -6.3041    2.9349  -13.3245 C   0  0  0  0  0  0  0  0  0  0  0  0
   -6.7039    1.7222  -13.7474 F   0  0  0  0  0  0  0  0  0  0  0  0
   -5.5861    2.7479  -12.1902 F   0  0  0  0  0  0  0  0  0  0  0  0
   -7.3853    3.6636  -12.9980 F   0  0  0  0  0  0  0  0  0  0  0  0
   -7.4833    4.2690  -15.8078 C   0  0  0  0  0  0  0  0  0  0  0  0
   -7.6829    4.8969  -16.9526 N   0  0  0  0  0  0  0  0  0  0  0  0
  2  1  1  6
  2  3  1  0
  2  4  1  0
  4  5  1  0
  5  6  2  0
  5  7  1  0
  7  8  1  0
  8  9  2  0
  9 10  1  0
 10 11  1  0
 11 12  1  0
 12 13  1  0
 12 14  1  0
 12 15  1  0
 10 16  1  0
 16 17  2  0
 17  8  1  0
M  END
>  <energy_score>  (3113) 
-11.160196

>  <alias>  (3113) 
None

>  <HIPPO Pose ID>  (3113) 
76432

>  <smiles>  (3113) 
C[C@H](F)CC(=O)Nc1cn(CC(F)(F)F)cn1

>  <inchikey>  (3113) 
JTGQVJREFJOMLB-LURJTMIESA-N

>  <distance_score>  (3113) 
1.954674

>  <ref_mols>  (3113) 
Z0719a,Z1597a

>  <ref_pdb>  (3113) 
Z0719a

>  <HIPPO Compound ID>  (3113) 
151958

>  <name>  (3113) 
P76432

>  <inspiration_score>  (3113) 
None

$$$$
P76434
     RDKit          3D

 17 18  0  0  0  0  0  0  0  0999 V2000
   -1.9165    0.8203   -9.8063 C   0  0  0  0  0  0  0  0  0  0  0  0
   -1.8296    2.3249   -9.6382 C   0  0  1  0  0  0  0  0  0  0  0  0
   -0.6742    2.5938   -8.9543 F   0  0  0  0  0  0  0  0  0  0  0  0
   -1.7432    3.0593  -10.9653 C   0  0  0  0  0  0  0  0  0  0  0  0
   -3.0832    3.1332  -11.6768 C   0  0  0  0  0  0  0  0  0  0  0  0
   -4.0947    2.7977  -11.2047 O   0  0  0  0  0  0  0  0  0  0  0  0
   -2.7837    3.7895  -13.0508 N   0  0  0  0  0  0  0  0  0  0  0  0
   -3.6064    4.0618  -14.0950 C   0  0  0  0  0  0  0  0  0  0  0  0
   -3.0489    4.7615  -15.1469 N   0  0  0  0  0  0  0  0  0  0  0  0
   -4.0507    4.9378  -15.9575 C   0  0  0  0  0  0  0  0  0  0  0  0
   -5.2092    4.4233  -15.4810 N   0  0  0  0  0  0  0  0  0  0  0  0
   -4.9415    3.7631  -14.3214 C   0  0  0  0  0  0  0  0  0  0  0  0
   -5.8631    2.9238  -13.6413 C   0  0  0  0  0  0  0  0  0  0  0  0
   -6.6590    2.1817  -13.2398 N   0  0  0  0  0  0  0  0  0  0  0  0
   -6.4055    4.6730  -16.2533 C   0  0  0  0  0  0  0  0  0  0  0  0
   -5.9425    5.0583  -17.6645 C   0  0  0  0  0  0  0  0  0  0  0  0
   -4.2117    5.6771  -17.4946 S   0  0  0  0  0  0  0  0  0  0  0  0
  2  1  1  6
  2  3  1  0
  2  4  1  0
  4  5  1  0
  5  6  2  0
  5  7  1  0
  7  8  1  0
  8  9  1  0
  9 10  2  0
 10 11  1  0
 11 12  1  0
 12 13  1  0
 13 14  3  0
 11 15  1  0
 15 16  1  0
 16 17  1  0
 12  8  2  0
 17 10  1  0
M  END
>  <energy_score>  (3114) 
-21.293605

>  <alias>  (3114) 
None

>  <HIPPO Pose ID>  (3114) 
76434

>  <smiles>  (3114) 
C[C@@H](F)CC(=O)Nc1nc2n(c1C#N)CCS2

>  <inchikey>  (3114) 
ONXYFLAJJCGJNB-ZCFIWIBFSA-N

>  <distance_score>  (3114) 
1.330515

>  <ref_mols>  (3114) 
Z0719a,Z1597a

>  <ref_pdb>  (3114) 
Z0719a

>  <HIPPO Compound ID>  (3114) 
151967

>  <name>  (3114) 
P76434

>  <inspiration_score>  (3114) 
None

$$$$
P76437
     RDKit          3D

 17 18  0  0  0  0  0  0  0  0999 V2000
   -3.6115    7.6351  -17.8473 C   0  0  0  0  0  0  0  0  0  0  0  0
   -4.2191    7.2015  -18.9634 C   0  0  0  0  0  0  0  0  0  0  0  0
   -3.6034    6.8915  -20.3042 C   0  0  0  0  0  0  0  0  0  0  0  0
   -2.1203    7.2113  -20.4460 C   0  0  0  0  0  0  0  0  0  0  0  0
   -5.7069    7.0351  -18.9450 C   0  0  0  0  0  0  0  0  0  0  0  0
   -6.3999    7.6511  -19.6525 O   0  0  0  0  0  0  0  0  0  0  0  0
   -6.0439    5.8996  -17.9516 N   0  0  0  0  0  0  0  0  0  0  0  0
   -7.2201    5.2596  -17.7068 C   0  0  0  0  0  0  0  0  0  0  0  0
   -8.2768    5.3219  -18.5678 N   0  0  0  0  0  0  0  0  0  0  0  0
   -9.2965    4.5779  -18.0420 C   0  0  0  0  0  0  0  0  0  0  0  0
   -8.9492    4.0110  -16.9143 N   0  0  0  0  0  0  0  0  0  0  0  0
   -7.6617    4.4546  -16.6796 C   0  0  0  0  0  0  0  0  0  0  0  0
   -6.9624    4.1098  -15.4473 C   0  0  0  0  0  0  0  0  0  0  0  0
   -5.5881    4.1192  -15.3734 N   0  0  0  0  0  0  0  0  0  0  0  0
   -5.2774    3.6511  -14.1687 N   0  0  0  0  0  0  0  0  0  0  0  0
   -6.4635    3.4187  -13.5822 N   0  0  0  0  0  0  0  0  0  0  0  0
   -7.5411    3.7581  -14.2933 N   0  0  0  0  0  0  0  0  0  0  0  0
  1  2  2  0
  2  3  1  0
  3  4  1  0
  2  5  1  0
  5  6  2  0
  5  7  1  0
  7  8  1  0
  8  9  1  0
  9 10  1  0
 10 11  2  0
 11 12  1  0
 12 13  1  0
 13 14  1  0
 14 15  2  0
 15 16  1  0
 16 17  1  0
 12  8  2  0
 17 13  2  0
M  END
>  <energy_score>  (3115) 
-12.86412

>  <alias>  (3115) 
None

>  <HIPPO Pose ID>  (3115) 
76437

>  <smiles>  (3115) 
C=C(CC)C(=O)Nc1[nH]cnc1-c1nn[nH]n1

>  <inchikey>  (3115) 
FLYXHGUHYOCYFU-UHFFFAOYSA-N

>  <distance_score>  (3115) 
1.714443

>  <ref_mols>  (3115) 
Z0719a,Z1597a

>  <ref_pdb>  (3115) 
Z0719a

>  <HIPPO Compound ID>  (3115) 
151980

>  <name>  (3115) 
P76437

>  <inspiration_score>  (3115) 
None

$$$$
P76440
     RDKit          3D

 17 17  0  0  0  0  0  0  0  0999 V2000
   -8.4071    4.3178  -11.3840 C   0  0  0  0  0  0  0  0  0  0  0  0
   -8.1502    5.7587  -11.7774 C   0  0  0  0  0  0  0  0  0  0  0  0
   -7.3905    5.7553  -12.9896 O   0  0  0  0  0  0  0  0  0  0  0  0
   -8.0843    5.8557  -14.1617 C   0  0  0  0  0  0  0  0  0  0  0  0
   -9.2687    6.1611  -14.2394 O   0  0  0  0  0  0  0  0  0  0  0  0
   -7.1760    5.5468  -15.2511 C   0  0  0  0  0  0  0  0  0  0  0  0
   -7.0463    6.2814  -16.3533 N   0  0  0  0  0  0  0  0  0  0  0  0
   -6.0386    5.7004  -17.0659 C   0  0  0  0  0  0  0  0  0  0  0  0
   -5.5030    6.2818  -18.1655 N   0  0  0  0  0  0  0  0  0  0  0  0
   -4.3149    5.8250  -19.0816 C   0  0  0  0  0  0  0  0  0  0  0  0
   -3.6767    4.8400  -19.0639 O   0  0  0  0  0  0  0  0  0  0  0  0
   -4.0099    7.0071  -20.0315 C   0  0  2  0  0  0  0  0  0  0  0  0
   -5.0942    7.3896  -21.0153 C   0  0  0  0  0  0  0  0  0  0  0  0
   -2.4825    6.6952  -20.9329 Cl  0  0  0  0  0  0  0  0  0  0  0  0
   -5.5876    4.5701  -16.4503 C   0  0  0  0  0  0  0  0  0  0  0  0
   -6.2774    4.4975  -15.2747 N   0  0  0  0  0  0  0  0  0  0  0  0
   -6.0624    3.5122  -14.2368 C   0  0  0  0  0  0  0  0  0  0  0  0
  1  2  1  0
  2  3  1  0
  3  4  1  0
  4  5  2  0
  4  6  1  0
  6  7  2  0
  7  8  1  0
  8  9  1  0
  9 10  1  0
 10 11  2  0
 10 12  1  0
 12 13  1  6
 12 14  1  0
  8 15  2  0
 15 16  1  0
 16 17  1  0
 16  6  1  0
M  END
>  <energy_score>  (3116) 
-16.999962

>  <alias>  (3116) 
None

>  <HIPPO Pose ID>  (3116) 
76440

>  <smiles>  (3116) 
CCOC(=O)c1nc(NC(=O)[C@H](C)Cl)cn1C

>  <inchikey>  (3116) 
SIYLMISGDKVKQN-LURJTMIESA-N

>  <distance_score>  (3116) 
1.994687

>  <ref_mols>  (3116) 
Z0719a,Z1597a

>  <ref_pdb>  (3116) 
Z0719a

>  <HIPPO Compound ID>  (3116) 
151987

>  <name>  (3116) 
P76440

>  <inspiration_score>  (3116) 
None

$$$$
P76442
     RDKit          3D

 17 18  0  0  0  0  0  0  0  0999 V2000
   -8.7917    7.3639  -12.2442 C   0  0  0  0  0  0  0  0  0  0  0  0
   -8.1044    6.0808  -11.9985 C   0  0  0  0  0  0  0  0  0  0  0  0
   -8.0177    5.5954  -10.7261 N   0  0  0  0  0  0  0  0  0  0  0  0
   -7.4101    4.4317  -10.8286 C   0  0  0  0  0  0  0  0  0  0  0  0
   -7.3205    3.4667   -9.7047 C   0  0  0  0  0  0  0  0  0  0  0  0
   -6.8829    4.2735  -12.1047 N   0  0  0  0  0  0  0  0  0  0  0  0
   -5.9074    3.2838  -12.5429 C   0  0  0  0  0  0  0  0  0  0  0  0
   -6.5965    2.0362  -13.0501 C   0  0  0  0  0  0  0  0  0  0  0  0
   -4.8012    2.9047  -11.5576 C   0  0  0  0  0  0  0  0  0  0  0  0
   -7.4905    5.2338  -12.9080 C   0  0  0  0  0  0  0  0  0  0  0  0
   -7.5457    5.3428  -14.2871 N   0  0  0  0  0  0  0  0  0  0  0  0
   -6.8074    4.5462  -15.3880 C   0  0  0  0  0  0  0  0  0  0  0  0
   -5.9812    3.7274  -15.3034 O   0  0  0  0  0  0  0  0  0  0  0  0
   -7.2821    4.9285  -16.7593 C   0  0  0  0  0  0  0  0  0  0  0  0
   -9.2434    4.3357  -17.2855 I   0  0  0  0  0  0  0  0  0  0  0  0
   -6.7166    6.1496  -17.4395 C   0  0  0  0  0  0  0  0  0  0  0  0
   -6.3151    4.7901  -17.9171 C   0  0  0  0  0  0  0  0  0  0  0  0
  1  2  1  0
  2  3  1  0
  3  4  2  0
  4  5  1  0
  4  6  1  0
  6  7  1  0
  7  8  1  0
  7  9  1  0
  6 10  1  0
 10 11  1  0
 11 12  1  0
 12 13  2  0
 12 14  1  0
 14 15  1  0
 14 16  1  0
 16 17  1  0
 10  2  2  0
 17 14  1  0
M  END
>  <energy_score>  (3117) 
-19.047626

>  <alias>  (3117) 
None

>  <HIPPO Pose ID>  (3117) 
76442

>  <smiles>  (3117) 
Cc1nc(C)n(C(C)C)c1NC(=O)C1(I)CC1

>  <inchikey>  (3117) 
IDLPVAMPCSOAFX-UHFFFAOYSA-N

>  <distance_score>  (3117) 
1.673516

>  <ref_mols>  (3117) 
Z0719a,Z1597a

>  <ref_pdb>  (3117) 
Z0719a

>  <HIPPO Compound ID>  (3117) 
151995

>  <name>  (3117) 
P76442

>  <inspiration_score>  (3117) 
None

$$$$
P76445
     RDKit          3D

 17 18  0  0  0  0  0  0  0  0999 V2000
   -3.0425    8.2403  -20.7465 C   0  0  0  0  0  0  0  0  0  0  0  0
   -3.6063    6.8344  -20.8553 C   0  0  1  0  0  0  0  0  0  0  0  0
   -2.6053    6.0168  -21.3258 F   0  0  0  0  0  0  0  0  0  0  0  0
   -4.0544    6.2764  -19.5111 C   0  0  0  0  0  0  0  0  0  0  0  0
   -5.5457    6.4812  -19.3131 C   0  0  0  0  0  0  0  0  0  0  0  0
   -6.1879    7.2344  -19.9348 O   0  0  0  0  0  0  0  0  0  0  0  0
   -5.9728    5.4384  -18.2390 N   0  0  0  0  0  0  0  0  0  0  0  0
   -7.2078    5.0699  -17.8103 C   0  0  0  0  0  0  0  0  0  0  0  0
   -8.3337    5.2387  -18.5612 N   0  0  0  0  0  0  0  0  0  0  0  0
   -9.3685    4.6325  -17.9006 C   0  0  0  0  0  0  0  0  0  0  0  0
   -8.9816    4.1286  -16.7539 N   0  0  0  0  0  0  0  0  0  0  0  0
   -7.6374    4.4197  -16.6750 C   0  0  0  0  0  0  0  0  0  0  0  0
   -6.8585    4.0978  -15.4817 C   0  0  0  0  0  0  0  0  0  0  0  0
   -7.4598    3.6346  -14.3438 N   0  0  0  0  0  0  0  0  0  0  0  0
   -6.4946    3.4339  -13.4593 N   0  0  0  0  0  0  0  0  0  0  0  0
   -5.3822    3.8072  -14.0844 N   0  0  0  0  0  0  0  0  0  0  0  0
   -5.5204    4.2446  -15.3490 N   0  0  0  0  0  0  0  0  0  0  0  0
  2  1  1  1
  2  3  1  0
  2  4  1  0
  4  5  1  0
  5  6  2  0
  5  7  1  0
  7  8  1  0
  8  9  1  0
  9 10  1  0
 10 11  2  0
 11 12  1  0
 12 13  1  0
 13 14  1  0
 14 15  2  0
 15 16  1  0
 16 17  1  0
 12  8  2  0
 17 13  2  0
M  END
>  <energy_score>  (3118) 
-7.262995

>  <alias>  (3118) 
None

>  <HIPPO Pose ID>  (3118) 
76445

>  <smiles>  (3118) 
C[C@@H](F)CC(=O)Nc1[nH]cnc1-c1nn[nH]n1

>  <inchikey>  (3118) 
IFOAXMCDVVRICO-SCSAIBSYSA-N

>  <distance_score>  (3118) 
1.695818

>  <ref_mols>  (3118) 
Z0719a,Z1597a

>  <ref_pdb>  (3118) 
Z0719a

>  <HIPPO Compound ID>  (3118) 
152009

>  <name>  (3118) 
P76445

>  <inspiration_score>  (3118) 
None

$$$$
P76446
     RDKit          3D

 17 18  0  0  0  0  0  0  0  0999 V2000
   -1.8707    1.0674  -10.1865 C   0  0  0  0  0  0  0  0  0  0  0  0
   -1.9096    2.2132  -10.8867 C   0  0  0  0  0  0  0  0  0  0  0  0
   -0.8338    3.2428  -10.8420 C   0  0  0  0  0  0  0  0  0  0  0  0
   -0.1023    3.1846  -12.0635 O   0  0  0  0  0  0  0  0  0  0  0  0
   -3.1637    2.4875  -11.6727 C   0  0  0  0  0  0  0  0  0  0  0  0
   -4.2053    2.1391  -11.2845 O   0  0  0  0  0  0  0  0  0  0  0  0
   -2.7728    3.2034  -12.9827 N   0  0  0  0  0  0  0  0  0  0  0  0
   -3.5476    3.6949  -13.9851 C   0  0  0  0  0  0  0  0  0  0  0  0
   -2.9174    4.4123  -14.9849 N   0  0  0  0  0  0  0  0  0  0  0  0
   -3.8929    4.7564  -15.7750 C   0  0  0  0  0  0  0  0  0  0  0  0
   -5.1005    4.3291  -15.3361 N   0  0  0  0  0  0  0  0  0  0  0  0
   -4.9103    3.5806  -14.2170 C   0  0  0  0  0  0  0  0  0  0  0  0
   -5.9189    2.8050  -13.5884 C   0  0  0  0  0  0  0  0  0  0  0  0
   -6.7917    2.1335  -13.2247 N   0  0  0  0  0  0  0  0  0  0  0  0
   -6.2577    4.6966  -16.1217 C   0  0  0  0  0  0  0  0  0  0  0  0
   -5.7348    5.1042  -17.5050 C   0  0  0  0  0  0  0  0  0  0  0  0
   -3.9714    5.5956  -17.2687 S   0  0  0  0  0  0  0  0  0  0  0  0
  1  2  2  0
  2  3  1  0
  3  4  1  0
  2  5  1  0
  5  6  2  0
  5  7  1  0
  7  8  1  0
  8  9  1  0
  9 10  2  0
 10 11  1  0
 11 12  1  0
 12 13  1  0
 13 14  3  0
 11 15  1  0
 15 16  1  0
 16 17  1  0
 12  8  2  0
 17 10  1  0
M  END
>  <energy_score>  (3119) 
-23.865686

>  <alias>  (3119) 
None

>  <HIPPO Pose ID>  (3119) 
76446

>  <smiles>  (3119) 
C=C(CO)C(=O)Nc1nc2n(c1C#N)CCS2

>  <inchikey>  (3119) 
MKPHLFYIIPNWJL-UHFFFAOYSA-N

>  <distance_score>  (3119) 
1.177075

>  <ref_mols>  (3119) 
Z0719a,Z1597a

>  <ref_pdb>  (3119) 
Z0719a

>  <HIPPO Compound ID>  (3119) 
152010

>  <name>  (3119) 
P76446

>  <inspiration_score>  (3119) 
None

$$$$
P76454
     RDKit          3D

 17 18  0  0  0  0  0  0  0  0999 V2000
   -9.3198    4.4039  -17.8863 C   0  0  0  0  0  0  0  0  0  0  0  0
   -8.1042    4.5471  -17.0693 C   0  0  0  0  0  0  0  0  0  0  0  0
   -6.8652    4.6948  -17.5290 C   0  0  0  0  0  0  0  0  0  0  0  0
   -7.3508    5.6851  -16.5992 C   0  0  2  0  0  0  0  0  0  0  0  0
   -6.7819    5.5881  -15.2324 C   0  0  0  0  0  0  0  0  0  0  0  0
   -5.6261    5.6461  -15.0932 O   0  0  0  0  0  0  0  0  0  0  0  0
   -7.8958    5.3177  -14.2103 N   0  0  0  0  0  0  0  0  0  0  0  0
   -7.8254    4.9865  -12.8948 C   0  0  0  0  0  0  0  0  0  0  0  0
   -8.6866    5.5938  -12.0307 N   0  0  0  0  0  0  0  0  0  0  0  0
   -8.4504    5.0316  -10.8689 C   0  0  0  0  0  0  0  0  0  0  0  0
   -7.5248    4.0341  -10.9723 N   0  0  0  0  0  0  0  0  0  0  0  0
   -7.1539    3.1732   -9.8752 C   0  0  0  0  0  0  0  0  0  0  0  0
   -7.0752    3.9946  -12.2831 C   0  0  0  0  0  0  0  0  0  0  0  0
   -5.9650    2.7640  -12.8727 S   0  0  0  0  0  0  0  0  0  0  0  0
   -5.4197    3.1906  -14.3761 N   0  0  0  0  0  0  0  0  0  0  0  0
   -4.8232    2.8154  -11.9926 O   0  0  0  0  0  0  0  0  0  0  0  0
   -6.7708    1.5801  -13.0584 O   0  0  0  0  0  0  0  0  0  0  0  0
  1  2  1  0
  2  3  2  0
  3  4  1  0
  4  5  1  1
  5  6  2  0
  5  7  1  0
  7  8  1  0
  8  9  1  0
  9 10  2  0
 10 11  1  0
 11 12  1  0
 11 13  1  0
 13 14  1  0
 14 15  1  0
 14 16  2  0
 14 17  2  0
  4  2  1  0
 13  8  2  0
M  END
>  <energy_score>  (3120) 
-34.48773

>  <alias>  (3120) 
None

>  <HIPPO Pose ID>  (3120) 
76454

>  <smiles>  (3120) 
CC1=C[C@@H]1C(=O)Nc1ncn(C)c1S(N)(=O)=O

>  <inchikey>  (3120) 
RTNGOBHLVHNQPL-LURJTMIESA-N

>  <distance_score>  (3120) 
1.186843

>  <ref_mols>  (3120) 
Z0719a,Z1597a

>  <ref_pdb>  (3120) 
Z0719a

>  <HIPPO Compound ID>  (3120) 
152023

>  <name>  (3120) 
P76454

>  <inspiration_score>  (3120) 
None

$$$$
P76456
     RDKit          3D

 17 18  0  0  0  0  0  0  0  0999 V2000
   -9.4227    4.0552  -18.0250 C   0  0  0  0  0  0  0  0  0  0  0  0
   -8.6617    4.8652  -17.0678 C   0  0  0  0  0  0  0  0  0  0  0  0
   -7.5033    5.4773  -17.3164 C   0  0  0  0  0  0  0  0  0  0  0  0
   -7.5724    4.5902  -16.1866 C   0  0  1  0  0  0  0  0  0  0  0  0
   -7.6139    5.1982  -14.8358 C   0  0  0  0  0  0  0  0  0  0  0  0
   -7.0697    6.2088  -14.6298 O   0  0  0  0  0  0  0  0  0  0  0  0
   -8.3490    4.2479  -13.8763 N   0  0  0  0  0  0  0  0  0  0  0  0
   -8.4811    4.2868  -12.5360 C   0  0  0  0  0  0  0  0  0  0  0  0
   -8.0026    5.2487  -11.6862 C   0  0  0  0  0  0  0  0  0  0  0  0
   -7.7469    4.5153  -10.5531 N   0  0  0  0  0  0  0  0  0  0  0  0
   -6.5425    4.6704   -9.7764 C   0  0  0  0  0  0  0  0  0  0  0  0
   -5.3003    4.7374  -10.6719 C   0  0  0  0  0  0  0  0  0  0  0  0
   -5.0322    6.0279  -11.0012 F   0  0  0  0  0  0  0  0  0  0  0  0
   -5.3893    4.0381  -11.8346 F   0  0  0  0  0  0  0  0  0  0  0  0
   -4.2121    4.2826  -10.0019 F   0  0  0  0  0  0  0  0  0  0  0  0
   -8.4487    3.3466  -10.6382 C   0  0  0  0  0  0  0  0  0  0  0  0
   -8.8991    3.1857  -11.8597 N   0  0  0  0  0  0  0  0  0  0  0  0
  1  2  1  0
  2  3  2  0
  3  4  1  0
  4  5  1  1
  5  6  2  0
  5  7  1  0
  7  8  1  0
  8  9  2  0
  9 10  1  0
 10 11  1  0
 11 12  1  0
 12 13  1  0
 12 14  1  0
 12 15  1  0
 10 16  1  0
 16 17  2  0
  4  2  1  0
 17  8  1  0
M  END
>  <energy_score>  (3121) 
-28.123238

>  <alias>  (3121) 
None

>  <HIPPO Pose ID>  (3121) 
76456

>  <smiles>  (3121) 
CC1=C[C@H]1C(=O)Nc1cn(CC(F)(F)F)cn1

>  <inchikey>  (3121) 
OAQSNHWHEKTBLV-SSDOTTSWSA-N

>  <distance_score>  (3121) 
1.150747

>  <ref_mols>  (3121) 
Z0719a,Z1597a

>  <ref_pdb>  (3121) 
Z0719a

>  <HIPPO Compound ID>  (3121) 
152024

>  <name>  (3121) 
P76456

>  <inspiration_score>  (3121) 
None

$$$$
P76457
     RDKit          3D

 17 18  0  0  0  0  0  0  0  0999 V2000
   -4.6069    2.3941  -12.8956 C   0  0  0  0  0  0  0  0  0  0  0  0
   -4.5549    2.0449  -11.4115 C   0  0  0  0  0  0  0  0  0  0  0  0
   -4.3807    3.2002  -10.5538 O   0  0  0  0  0  0  0  0  0  0  0  0
   -5.4665    3.7822   -9.9464 C   0  0  0  0  0  0  0  0  0  0  0  0
   -5.4131    4.2232   -8.8035 O   0  0  0  0  0  0  0  0  0  0  0  0
   -6.6136    3.8812  -10.8132 C   0  0  0  0  0  0  0  0  0  0  0  0
   -6.6026    4.5492  -11.9513 N   0  0  0  0  0  0  0  0  0  0  0  0
   -7.6843    4.1185  -12.6454 C   0  0  0  0  0  0  0  0  0  0  0  0
   -7.7886    4.3758  -13.9765 N   0  0  0  0  0  0  0  0  0  0  0  0
   -6.8635    5.1825  -14.9199 C   0  0  0  0  0  0  0  0  0  0  0  0
   -5.9097    5.8155  -14.6859 O   0  0  0  0  0  0  0  0  0  0  0  0
   -7.2400    5.0490  -16.3933 C   0  0  0  0  0  0  0  0  0  0  0  0
   -9.1481    4.2897  -16.9293 I   0  0  0  0  0  0  0  0  0  0  0  0
   -6.1496    4.7086  -17.3980 C   0  0  0  0  0  0  0  0  0  0  0  0
   -6.7202    6.0905  -17.3761 C   0  0  0  0  0  0  0  0  0  0  0  0
   -8.4724    3.3253  -11.8519 C   0  0  0  0  0  0  0  0  0  0  0  0
   -7.8103    3.2314  -10.6502 N   0  0  0  0  0  0  0  0  0  0  0  0
  1  2  1  0
  2  3  1  0
  3  4  1  0
  4  5  2  0
  4  6  1  0
  6  7  2  0
  7  8  1  0
  8  9  1  0
  9 10  1  0
 10 11  2  0
 10 12  1  0
 12 13  1  0
 12 14  1  0
 14 15  1  0
  8 16  2  0
 16 17  1  0
 17  6  1  0
 15 12  1  0
M  END
>  <energy_score>  (3122) 
-6.031753

>  <alias>  (3122) 
None

>  <HIPPO Pose ID>  (3122) 
76457

>  <smiles>  (3122) 
CCOC(=O)c1nc(NC(=O)C2(I)CC2)c[nH]1

>  <inchikey>  (3122) 
IIKWQEBEBDNAJT-UHFFFAOYSA-N

>  <distance_score>  (3122) 
1.953522

>  <ref_mols>  (3122) 
Z0719a,Z1597a

>  <ref_pdb>  (3122) 
Z0719a

>  <HIPPO Compound ID>  (3122) 
152025

>  <name>  (3122) 
P76457

>  <inspiration_score>  (3122) 
None

$$$$
P76459
     RDKit          3D

 17 18  0  0  0  0  0  0  0  0999 V2000
   -8.9191    4.2023  -19.0152 C   0  0  0  0  0  0  0  0  0  0  0  0
   -8.3696    4.5841  -17.7179 C   0  0  0  0  0  0  0  0  0  0  0  0
   -9.2042    4.6188  -16.6362 N   0  0  0  0  0  0  0  0  0  0  0  0
   -8.4495    5.0041  -15.6311 C   0  0  0  0  0  0  0  0  0  0  0  0
   -8.9582    5.4608  -14.3211 C   0  0  0  0  0  0  0  0  0  0  0  0
   -7.1259    4.9799  -16.0044 N   0  0  0  0  0  0  0  0  0  0  0  0
   -6.0008    4.6228  -15.1157 C   0  0  0  0  0  0  0  0  0  0  0  0
   -5.5722    5.4465  -13.9342 C   0  0  0  0  0  0  0  0  0  0  0  0
   -6.1545    4.0795  -13.7103 C   0  0  0  0  0  0  0  0  0  0  0  0
   -7.0865    4.9626  -17.3788 C   0  0  0  0  0  0  0  0  0  0  0  0
   -6.0522    5.2433  -18.2323 N   0  0  0  0  0  0  0  0  0  0  0  0
   -4.5987    5.7073  -17.9378 C   0  0  0  0  0  0  0  0  0  0  0  0
   -4.0851    5.9947  -16.9275 O   0  0  0  0  0  0  0  0  0  0  0  0
   -3.8776    5.8008  -19.2727 C   0  0  0  0  0  0  0  0  0  0  0  0
   -4.2011    7.1289  -19.9356 C   0  0  1  0  0  0  0  0  0  0  0  0
   -3.2977    7.4359  -21.1141 C   0  0  0  0  0  0  0  0  0  0  0  0
   -5.4832    7.1062  -20.3862 F   0  0  0  0  0  0  0  0  0  0  0  0
  1  2  1  0
  2  3  1  0
  3  4  2  0
  4  5  1  0
  4  6  1  0
  6  7  1  0
  7  8  1  0
  8  9  1  0
  6 10  1  0
 10 11  1  0
 11 12  1  0
 12 13  2  0
 12 14  1  0
 14 15  1  0
 15 16  1  6
 15 17  1  0
 10  2  2  0
  9  7  1  0
M  END
>  <energy_score>  (3123) 
-16.178314

>  <alias>  (3123) 
None

>  <HIPPO Pose ID>  (3123) 
76459

>  <smiles>  (3123) 
Cc1nc(C)n(C2CC2)c1NC(=O)C[C@@H](C)F

>  <inchikey>  (3123) 
QFIQJTPTNRPXNY-SSDOTTSWSA-N

>  <distance_score>  (3123) 
1.685067

>  <ref_mols>  (3123) 
Z0719a,Z1597a

>  <ref_pdb>  (3123) 
Z0719a

>  <HIPPO Compound ID>  (3123) 
152031

>  <name>  (3123) 
P76459

>  <inspiration_score>  (3123) 
None

$$$$
P76462
     RDKit          3D

 17 18  0  0  0  0  0  0  0  0999 V2000
   -8.4433    5.4108   -9.3568 C   0  0  0  0  0  0  0  0  0  0  0  0
   -8.0637    4.7897  -10.6447 C   0  0  0  0  0  0  0  0  0  0  0  0
   -8.3082    5.2895  -11.8483 N   0  0  0  0  0  0  0  0  0  0  0  0
   -7.5990    4.5094  -12.7234 C   0  0  0  0  0  0  0  0  0  0  0  0
   -7.5688    4.8155  -14.0488 N   0  0  0  0  0  0  0  0  0  0  0  0
   -6.5424    4.4442  -15.1405 C   0  0  0  0  0  0  0  0  0  0  0  0
   -5.5226    3.8833  -15.0601 O   0  0  0  0  0  0  0  0  0  0  0  0
   -7.0177    4.8941  -16.5001 C   0  0  0  0  0  0  0  0  0  0  0  0
   -9.0071    4.3359  -17.0391 I   0  0  0  0  0  0  0  0  0  0  0  0
   -6.0613    4.9034  -17.6810 C   0  0  0  0  0  0  0  0  0  0  0  0
   -6.5124    6.1957  -17.0731 C   0  0  0  0  0  0  0  0  0  0  0  0
   -6.9948    3.4871  -12.0469 C   0  0  0  0  0  0  0  0  0  0  0  0
   -6.2022    2.4315  -12.5323 N   0  0  0  0  0  0  0  0  0  0  0  0
   -6.6244    1.8227  -13.5191 O   0  0  0  0  0  0  0  0  0  0  0  0
   -5.1618    2.1907  -11.9112 O   0  0  0  0  0  0  0  0  0  0  0  0
   -7.3424    3.6167  -10.7322 N   0  0  0  0  0  0  0  0  0  0  0  0
   -6.9959    2.7473   -9.6294 C   0  0  0  0  0  0  0  0  0  0  0  0
  1  2  1  0
  2  3  2  0
  3  4  1  0
  4  5  1  0
  5  6  1  0
  6  7  2  0
  6  8  1  0
  8  9  1  0
  8 10  1  0
 10 11  1  0
  4 12  2  0
 12 13  1  0
 13 14  2  0
 13 15  1  0
 12 16  1  0
 16 17  1  0
 16  2  1  0
 11  8  1  0
M  CHG  2  13   1  15  -1
M  END
>  <energy_score>  (3124) 
-29.868829

>  <alias>  (3124) 
None

>  <HIPPO Pose ID>  (3124) 
76462

>  <smiles>  (3124) 
Cc1nc(NC(=O)C2(I)CC2)c([N+](=O)[O-])n1C

>  <inchikey>  (3124) 
DTWDDJLOYKGCIN-UHFFFAOYSA-N

>  <distance_score>  (3124) 
1.4171

>  <ref_mols>  (3124) 
Z0719a,Z1597a

>  <ref_pdb>  (3124) 
Z0719a

>  <HIPPO Compound ID>  (3124) 
152037

>  <name>  (3124) 
P76462

>  <inspiration_score>  (3124) 
None

$$$$
P76464
     RDKit          3D

 17 18  0  0  0  0  0  0  0  0999 V2000
   -8.9283    4.1609  -19.0267 C   0  0  0  0  0  0  0  0  0  0  0  0
   -8.3762    4.5522  -17.7345 C   0  0  0  0  0  0  0  0  0  0  0  0
   -9.2260    4.7005  -16.6765 N   0  0  0  0  0  0  0  0  0  0  0  0
   -8.4693    5.0694  -15.6665 C   0  0  0  0  0  0  0  0  0  0  0  0
   -8.9813    5.5786  -14.3771 C   0  0  0  0  0  0  0  0  0  0  0  0
   -7.1423    4.9607  -16.0103 N   0  0  0  0  0  0  0  0  0  0  0  0
   -6.0446    4.6010  -15.0860 C   0  0  0  0  0  0  0  0  0  0  0  0
   -5.6265    5.4298  -13.9048 C   0  0  0  0  0  0  0  0  0  0  0  0
   -6.2486    4.0808  -13.6786 C   0  0  0  0  0  0  0  0  0  0  0  0
   -7.0777    4.8456  -17.3799 C   0  0  0  0  0  0  0  0  0  0  0  0
   -5.9911    4.9672  -18.2025 N   0  0  0  0  0  0  0  0  0  0  0  0
   -4.5803    5.5755  -17.9329 C   0  0  0  0  0  0  0  0  0  0  0  0
   -4.1112    5.9931  -16.9456 O   0  0  0  0  0  0  0  0  0  0  0  0
   -3.8614    5.6056  -19.2917 C   0  0  2  0  0  0  0  0  0  0  0  0
   -1.9556    5.2938  -18.9512 Br  0  0  0  0  0  0  0  0  0  0  0  0
   -4.1103    6.9462  -19.9533 C   0  0  0  0  0  0  0  0  0  0  0  0
   -3.2348    7.1494  -21.6810 Br  0  0  0  0  0  0  0  0  0  0  0  0
  1  2  1  0
  2  3  1  0
  3  4  2  0
  4  5  1  0
  4  6  1  0
  6  7  1  0
  7  8  1  0
  8  9  1  0
  6 10  1  0
 10 11  1  0
 11 12  1  0
 12 13  2  0
 12 14  1  0
 14 15  1  1
 14 16  1  0
 16 17  1  0
 10  2  2  0
  9  7  1  0
M  END
>  <energy_score>  (3125) 
-14.608308

>  <alias>  (3125) 
None

>  <HIPPO Pose ID>  (3125) 
76464

>  <smiles>  (3125) 
Cc1nc(C)n(C2CC2)c1NC(=O)[C@H](Br)CBr

>  <inchikey>  (3125) 
OEYMJGOJEBDFRJ-SECBINFHSA-N

>  <distance_score>  (3125) 
1.64161

>  <ref_mols>  (3125) 
Z0719a,Z1597a

>  <ref_pdb>  (3125) 
Z0719a

>  <HIPPO Compound ID>  (3125) 
152049

>  <name>  (3125) 
P76464

>  <inspiration_score>  (3125) 
None

$$$$
P76466
     RDKit          3D

 17 18  0  0  0  0  0  0  0  0999 V2000
   -3.3341    6.3087  -20.1692 O   0  0  0  0  0  0  0  0  0  0  0  0
   -4.4111    6.4960  -20.5929 C   0  0  0  0  0  0  0  0  0  0  0  0
   -5.8081    6.0550  -20.0419 N   0  0  0  0  0  0  0  0  0  0  0  0
   -6.1373    5.4259  -18.8970 C   0  0  0  0  0  0  0  0  0  0  0  0
   -7.4065    5.1054  -18.4815 C   0  0  0  0  0  0  0  0  0  0  0  0
   -7.2554    4.7589  -17.1744 N   0  0  0  0  0  0  0  0  0  0  0  0
   -8.2547    4.6966  -16.2624 N   0  0  0  0  0  0  0  0  0  0  0  0
   -7.7939    4.5534  -15.0630 C   0  0  0  0  0  0  0  0  0  0  0  0
   -8.9050    4.7827  -13.7901 Cl  0  0  0  0  0  0  0  0  0  0  0  0
   -6.3841    4.3160  -14.6769 C   0  0  0  0  0  0  0  0  0  0  0  0
   -5.4616    4.4436  -15.6278 C   0  0  0  0  0  0  0  0  0  0  0  0
   -5.8907    4.7547  -16.9262 C   0  0  0  0  0  0  0  0  0  0  0  0
   -5.1967    5.1421  -17.9651 N   0  0  0  0  0  0  0  0  0  0  0  0
   -4.6870    7.3661  -21.8130 C   0  0  2  0  0  0  0  0  0  0  0  0
   -3.1298    7.3238  -23.0069 Br  0  0  0  0  0  0  0  0  0  0  0  0
   -4.8821    8.7599  -21.2844 C   0  0  0  0  0  0  0  0  0  0  0  0
   -5.6977    9.9188  -22.6358 Br  0  0  0  0  0  0  0  0  0  0  0  0
  1  2  2  0
  2  3  1  0
  3  4  1  0
  4  5  2  0
  5  6  1  0
  6  7  1  0
  7  8  2  0
  8  9  1  0
  8 10  1  0
 10 11  2  0
 11 12  1  0
 12 13  2  0
  2 14  1  0
 14 15  1  6
 14 16  1  0
 16 17  1  0
 13  4  1  0
 12  6  1  0
M  END
>  <energy_score>  (3126) 
-33.661785

>  <alias>  (3126) 
None

>  <HIPPO Pose ID>  (3126) 
76466

>  <smiles>  (3126) 
O=C(Nc1cn2nc(Cl)ccc2n1)[C@H](Br)CBr

>  <inchikey>  (3126) 
AVXOKFOTTVNYAI-RXMQYKEDSA-N

>  <distance_score>  (3126) 
1.986034

>  <ref_mols>  (3126) 
Z0719a,Z1597a

>  <ref_pdb>  (3126) 
Z0719a

>  <HIPPO Compound ID>  (3126) 
152050

>  <name>  (3126) 
P76466

>  <inspiration_score>  (3126) 
None

$$$$
P76467
     RDKit          3D

 17 17  0  0  0  0  0  0  0  0999 V2000
   -9.2466    4.1220  -18.6695 C   0  0  0  0  0  0  0  0  0  0  0  0
   -8.5676    4.3736  -17.3974 C   0  0  0  0  0  0  0  0  0  0  0  0
   -8.8450    3.6176  -16.2979 N   0  0  0  0  0  0  0  0  0  0  0  0
   -7.9832    4.0047  -15.3798 C   0  0  0  0  0  0  0  0  0  0  0  0
   -7.7098    3.3365  -14.0759 C   0  0  0  0  0  0  0  0  0  0  0  0
   -7.3628    5.1717  -15.7826 N   0  0  0  0  0  0  0  0  0  0  0  0
   -6.9749    6.2232  -14.8551 C   0  0  0  0  0  0  0  0  0  0  0  0
   -8.0380    6.4792  -13.7707 C   0  0  0  0  0  0  0  0  0  0  0  0
   -5.6046    6.0047  -14.2294 C   0  0  0  0  0  0  0  0  0  0  0  0
   -7.5595    5.2744  -17.1424 C   0  0  0  0  0  0  0  0  0  0  0  0
   -6.9623    6.0443  -18.1022 N   0  0  0  0  0  0  0  0  0  0  0  0
   -5.6986    6.9484  -18.0299 C   0  0  0  0  0  0  0  0  0  0  0  0
   -5.0211    7.2329  -17.1194 O   0  0  0  0  0  0  0  0  0  0  0  0
   -5.4412    7.4564  -19.4620 C   0  0  1  0  0  0  0  0  0  0  0  0
   -5.5977    9.4149  -19.3343 Br  0  0  0  0  0  0  0  0  0  0  0  0
   -4.0610    7.0315  -19.9189 C   0  0  0  0  0  0  0  0  0  0  0  0
   -3.7008    7.5315  -21.7694 Br  0  0  0  0  0  0  0  0  0  0  0  0
  1  2  1  0
  2  3  1  0
  3  4  2  0
  4  5  1  0
  4  6  1  0
  6  7  1  0
  7  8  1  0
  7  9  1  0
  6 10  1  0
 10 11  1  0
 11 12  1  0
 12 13  2  0
 12 14  1  0
 14 15  1  1
 14 16  1  0
 16 17  1  0
 10  2  2  0
M  END
>  <energy_score>  (3127) 
-23.636025

>  <alias>  (3127) 
None

>  <HIPPO Pose ID>  (3127) 
76467

>  <smiles>  (3127) 
Cc1nc(C)n(C(C)C)c1NC(=O)[C@@H](Br)CBr

>  <inchikey>  (3127) 
RCKVNIYTMRABEL-VIFPVBQESA-N

>  <distance_score>  (3127) 
1.732615

>  <ref_mols>  (3127) 
Z0719a,Z1597a

>  <ref_pdb>  (3127) 
Z0719a

>  <HIPPO Compound ID>  (3127) 
152051

>  <name>  (3127) 
P76467

>  <inspiration_score>  (3127) 
None

$$$$
P76468
     RDKit          3D

 17 17  0  0  0  0  0  0  0  0999 V2000
   -6.4471    5.5836  -12.6346 C   0  0  0  0  0  0  0  0  0  0  0  0
   -6.2696    6.1041  -14.0579 C   0  0  0  0  0  0  0  0  0  0  0  0
   -6.1484    4.9950  -15.0996 C   0  0  0  0  0  0  0  0  0  0  0  0
   -7.2119    4.9935  -16.0717 N   0  0  0  0  0  0  0  0  0  0  0  0
   -8.4834    4.5850  -15.7446 C   0  0  0  0  0  0  0  0  0  0  0  0
   -8.9826    4.5661  -14.3640 C   0  0  0  0  0  0  0  0  0  0  0  0
   -9.1390    4.1897  -16.8039 N   0  0  0  0  0  0  0  0  0  0  0  0
   -8.3047    4.4537  -17.8494 C   0  0  0  0  0  0  0  0  0  0  0  0
   -8.7642    4.1144  -19.1865 C   0  0  0  0  0  0  0  0  0  0  0  0
   -7.1329    5.0515  -17.4362 C   0  0  0  0  0  0  0  0  0  0  0  0
   -6.1321    5.5564  -18.2175 N   0  0  0  0  0  0  0  0  0  0  0  0
   -4.9566    6.5163  -17.8615 C   0  0  0  0  0  0  0  0  0  0  0  0
   -4.7127    7.0806  -16.8634 O   0  0  0  0  0  0  0  0  0  0  0  0
   -4.0583    6.7045  -19.0948 C   0  0  1  0  0  0  0  0  0  0  0  0
   -3.0870    5.0289  -19.3541 Br  0  0  0  0  0  0  0  0  0  0  0  0
   -4.7168    7.1407  -20.3858 C   0  0  0  0  0  0  0  0  0  0  0  0
   -5.2045    9.0349  -20.2586 Br  0  0  0  0  0  0  0  0  0  0  0  0
  1  2  1  0
  2  3  1  0
  3  4  1  0
  4  5  1  0
  5  6  1  0
  5  7  2  0
  7  8  1  0
  8  9  1  0
  8 10  2  0
 10 11  1  0
 11 12  1  0
 12 13  2  0
 12 14  1  0
 14 15  1  6
 14 16  1  0
 16 17  1  0
 10  4  1  0
M  END
>  <energy_score>  (3128) 
-15.742251

>  <alias>  (3128) 
None

>  <HIPPO Pose ID>  (3128) 
76468

>  <smiles>  (3128) 
CCCn1c(C)nc(C)c1NC(=O)[C@@H](Br)CBr

>  <inchikey>  (3128) 
MMUHERFNQGLTIX-VIFPVBQESA-N

>  <distance_score>  (3128) 
1.772785

>  <ref_mols>  (3128) 
Z0719a,Z1597a

>  <ref_pdb>  (3128) 
Z0719a

>  <HIPPO Compound ID>  (3128) 
152058

>  <name>  (3128) 
P76468

>  <inspiration_score>  (3128) 
None

$$$$
P76469
     RDKit          3D

 17 17  0  0  0  0  0  0  0  0999 V2000
   -7.9026    6.2821  -14.1419 C   0  0  0  0  0  0  0  0  0  0  0  0
   -6.8147    5.3435  -13.6507 C   0  0  0  0  0  0  0  0  0  0  0  0
   -6.8927    4.1180  -14.3762 O   0  0  0  0  0  0  0  0  0  0  0  0
   -6.3183    4.2286  -15.6088 C   0  0  0  0  0  0  0  0  0  0  0  0
   -5.1102    4.1563  -15.7796 O   0  0  0  0  0  0  0  0  0  0  0  0
   -7.3531    4.3540  -16.5935 C   0  0  0  0  0  0  0  0  0  0  0  0
   -8.6726    4.0104  -16.3567 N   0  0  0  0  0  0  0  0  0  0  0  0
   -9.3694    4.1738  -17.5068 C   0  0  0  0  0  0  0  0  0  0  0  0
   -8.5736    4.5374  -18.4796 N   0  0  0  0  0  0  0  0  0  0  0  0
   -7.3529    4.7381  -17.9126 C   0  0  0  0  0  0  0  0  0  0  0  0
   -6.3869    5.2564  -18.7055 N   0  0  0  0  0  0  0  0  0  0  0  0
   -5.0794    6.0270  -18.3382 C   0  0  0  0  0  0  0  0  0  0  0  0
   -4.6828    6.3951  -17.3006 O   0  0  0  0  0  0  0  0  0  0  0  0
   -4.2960    6.1653  -19.6468 C   0  0  2  0  0  0  0  0  0  0  0  0
   -2.4180    6.6031  -19.2826 Br  0  0  0  0  0  0  0  0  0  0  0  0
   -4.8762    7.1224  -20.6642 C   0  0  0  0  0  0  0  0  0  0  0  0
   -5.1513    8.9252  -19.9565 Br  0  0  0  0  0  0  0  0  0  0  0  0
  1  2  1  0
  2  3  1  0
  3  4  1  0
  4  5  2  0
  4  6  1  0
  6  7  1  0
  7  8  1  0
  8  9  2  0
  9 10  1  0
 10 11  1  0
 11 12  1  0
 12 13  2  0
 12 14  1  0
 14 15  1  1
 14 16  1  0
 16 17  1  0
 10  6  2  0
M  END
>  <energy_score>  (3129) 
-3.014386

>  <alias>  (3129) 
None

>  <HIPPO Pose ID>  (3129) 
76469

>  <smiles>  (3129) 
CCOC(=O)c1[nH]cnc1NC(=O)[C@H](Br)CBr

>  <inchikey>  (3129) 
NRMMRQUCFWBOSD-RXMQYKEDSA-N

>  <distance_score>  (3129) 
1.945918

>  <ref_mols>  (3129) 
Z0719a,Z1597a

>  <ref_pdb>  (3129) 
Z0719a

>  <HIPPO Compound ID>  (3129) 
152059

>  <name>  (3129) 
P76469

>  <inspiration_score>  (3129) 
None

$$$$
P76470
     RDKit          3D

 17 18  0  0  0  0  0  0  0  0999 V2000
   -8.4488    8.1343  -10.2865 C   0  0  0  0  0  0  0  0  0  0  0  0
   -7.4886    7.7076  -11.1208 C   0  0  0  0  0  0  0  0  0  0  0  0
   -7.6459    7.3903  -12.5867 C   0  0  2  0  0  0  0  0  0  0  0  0
   -9.0070    7.5355  -12.9777 O   0  0  0  0  0  0  0  0  0  0  0  0
   -7.1722    5.9337  -12.8777 C   0  0  0  0  0  0  0  0  0  0  0  0
   -7.9232    5.0497  -13.0271 O   0  0  0  0  0  0  0  0  0  0  0  0
   -5.6173    5.9530  -12.9186 N   0  0  0  0  0  0  0  0  0  0  0  0
   -4.7260    4.9367  -13.0487 C   0  0  0  0  0  0  0  0  0  0  0  0
   -3.3886    5.2882  -13.0029 N   0  0  0  0  0  0  0  0  0  0  0  0
   -2.7688    4.1453  -13.0628 C   0  0  0  0  0  0  0  0  0  0  0  0
   -3.6174    3.0988  -13.1697 N   0  0  0  0  0  0  0  0  0  0  0  0
   -4.8927    3.5677  -13.1825 C   0  0  0  0  0  0  0  0  0  0  0  0
   -6.0251    2.7213  -13.2638 C   0  0  0  0  0  0  0  0  0  0  0  0
   -6.8207    1.8799  -13.3166 N   0  0  0  0  0  0  0  0  0  0  0  0
   -3.0457    1.7727  -13.2064 C   0  0  0  0  0  0  0  0  0  0  0  0
   -1.5955    1.9088  -12.7296 C   0  0  0  0  0  0  0  0  0  0  0  0
   -1.1236    3.6729  -12.9646 S   0  0  0  0  0  0  0  0  0  0  0  0
  1  2  2  0
  2  3  1  0
  3  4  1  1
  3  5  1  0
  5  6  2  0
  5  7  1  0
  7  8  1  0
  8  9  1  0
  9 10  2  0
 10 11  1  0
 11 12  1  0
 12 13  1  0
 13 14  3  0
 11 15  1  0
 15 16  1  0
 16 17  1  0
 12  8  2  0
 17 10  1  0
M  END
>  <energy_score>  (3130) 
-31.501346

>  <alias>  (3130) 
None

>  <HIPPO Pose ID>  (3130) 
76470

>  <smiles>  (3130) 
C=C[C@H](O)C(=O)Nc1nc2n(c1C#N)CCS2

>  <inchikey>  (3130) 
OXFBWSCBSHCMSD-ZETCQYMHSA-N

>  <distance_score>  (3130) 
1.411526

>  <ref_mols>  (3130) 
Z0719a,Z1597a

>  <ref_pdb>  (3130) 
Z0719a

>  <HIPPO Compound ID>  (3130) 
152065

>  <name>  (3130) 
P76470

>  <inspiration_score>  (3130) 
None

$$$$
P76471
     RDKit          3D

 17 17  0  0  0  0  0  0  0  0999 V2000
   -5.0771    7.2513  -20.2569 C   0  0  0  0  0  0  0  0  0  0  0  0
   -3.9920    6.9815  -19.5162 C   0  0  0  0  0  0  0  0  0  0  0  0
   -3.5649    5.6554  -18.9317 C   0  0  2  0  0  0  0  0  0  0  0  0
   -3.7024    4.6396  -19.9064 O   0  0  0  0  0  0  0  0  0  0  0  0
   -4.2069    5.4117  -17.5063 C   0  0  0  0  0  0  0  0  0  0  0  0
   -3.6845    5.7252  -16.5069 O   0  0  0  0  0  0  0  0  0  0  0  0
   -5.6047    4.7851  -17.7571 N   0  0  0  0  0  0  0  0  0  0  0  0
   -6.6172    4.5207  -16.8975 C   0  0  0  0  0  0  0  0  0  0  0  0
   -7.8677    4.6264  -17.4387 N   0  0  0  0  0  0  0  0  0  0  0  0
   -8.6964    4.4733  -16.4395 C   0  0  0  0  0  0  0  0  0  0  0  0
   -8.0141    4.3206  -15.2742 N   0  0  0  0  0  0  0  0  0  0  0  0
   -8.5895    4.4577  -13.9597 C   0  0  0  0  0  0  0  0  0  0  0  0
   -6.6639    4.1796  -15.5567 C   0  0  0  0  0  0  0  0  0  0  0  0
   -5.5285    3.6327  -14.3190 S   0  0  0  0  0  0  0  0  0  0  0  0
   -5.1354    5.0074  -13.4769 N   0  0  0  0  0  0  0  0  0  0  0  0
   -4.3079    3.1947  -14.9453 O   0  0  0  0  0  0  0  0  0  0  0  0
   -6.2818    2.7662  -13.4423 O   0  0  0  0  0  0  0  0  0  0  0  0
  1  2  2  0
  2  3  1  0
  3  4  1  6
  3  5  1  0
  5  6  2  0
  5  7  1  0
  7  8  1  0
  8  9  1  0
  9 10  2  0
 10 11  1  0
 11 12  1  0
 11 13  1  0
 13 14  1  0
 14 15  1  0
 14 16  2  0
 14 17  2  0
 13  8  2  0
M  END
>  <energy_score>  (3131) 
-16.71027

>  <alias>  (3131) 
None

>  <HIPPO Pose ID>  (3131) 
76471

>  <smiles>  (3131) 
C=C[C@H](O)C(=O)Nc1ncn(C)c1S(N)(=O)=O

>  <inchikey>  (3131) 
BTOWNBHKVJSFMA-YFKPBYRVSA-N

>  <distance_score>  (3131) 
1.6679

>  <ref_mols>  (3131) 
Z0719a,Z1597a

>  <ref_pdb>  (3131) 
Z0719a

>  <HIPPO Compound ID>  (3131) 
152068

>  <name>  (3131) 
P76471

>  <inspiration_score>  (3131) 
None

$$$$
P76473
     RDKit          3D

 17 17  0  0  0  0  0  0  0  0999 V2000
   -1.7754    7.0708  -21.2279 C   0  0  0  0  0  0  0  0  0  0  0  0
   -2.8136    7.3581  -20.4319 C   0  0  0  0  0  0  0  0  0  0  0  0
   -4.2101    7.6341  -20.9243 C   0  0  0  0  0  0  0  0  0  0  0  0
   -5.2584    6.7544  -20.2563 C   0  0  0  0  0  0  0  0  0  0  0  0
   -5.6520    7.1835  -18.8510 C   0  0  0  0  0  0  0  0  0  0  0  0
   -5.3454    8.1989  -18.3579 O   0  0  0  0  0  0  0  0  0  0  0  0
   -6.4151    5.9619  -18.2562 N   0  0  0  0  0  0  0  0  0  0  0  0
   -6.8415    5.7219  -16.9934 C   0  0  0  0  0  0  0  0  0  0  0  0
   -7.3181    4.5176  -16.5404 C   0  0  0  0  0  0  0  0  0  0  0  0
   -7.2806    4.6306  -15.1766 N   0  0  0  0  0  0  0  0  0  0  0  0
   -7.4215    3.5814  -14.1906 C   0  0  0  0  0  0  0  0  0  0  0  0
   -6.1284    3.0658  -13.6347 C   0  0  0  0  0  0  0  0  0  0  0  0
   -5.1139    3.1627  -14.5159 F   0  0  0  0  0  0  0  0  0  0  0  0
   -5.7656    3.7436  -12.5228 F   0  0  0  0  0  0  0  0  0  0  0  0
   -6.2618    1.7594  -13.3011 F   0  0  0  0  0  0  0  0  0  0  0  0
   -7.0622    5.9434  -14.8947 C   0  0  0  0  0  0  0  0  0  0  0  0
   -6.7469    6.6170  -15.9774 N   0  0  0  0  0  0  0  0  0  0  0  0
  1  2  2  0
  2  3  1  0
  3  4  1  0
  4  5  1  0
  5  6  2  0
  5  7  1  0
  7  8  1  0
  8  9  2  0
  9 10  1  0
 10 11  1  0
 11 12  1  0
 12 13  1  0
 12 14  1  0
 12 15  1  0
 10 16  1  0
 16 17  2  0
 17  8  1  0
M  END
>  <energy_score>  (3132) 
-17.048028

>  <alias>  (3132) 
None

>  <HIPPO Pose ID>  (3132) 
76473

>  <smiles>  (3132) 
C=CCCC(=O)Nc1cn(CC(F)(F)F)cn1

>  <inchikey>  (3132) 
WBXNNSYUHXCLKU-UHFFFAOYSA-N

>  <distance_score>  (3132) 
1.94394

>  <ref_mols>  (3132) 
Z0719a,Z1597a

>  <ref_pdb>  (3132) 
Z0719a

>  <HIPPO Compound ID>  (3132) 
152071

>  <name>  (3132) 
P76473

>  <inspiration_score>  (3132) 
None

$$$$
P76474
     RDKit          3D

 17 17  0  0  0  0  0  0  0  0999 V2000
   -4.8567    6.9455  -16.6681 C   0  0  0  0  0  0  0  0  0  0  0  0
   -4.8810    7.6816  -17.8025 C   0  0  0  0  0  0  0  0  0  0  0  0
   -4.1274    7.3552  -19.0943 C   0  0  0  0  0  0  0  0  0  0  0  0
   -4.7790    6.3042  -20.0094 C   0  0  0  0  0  0  0  0  0  0  0  0
   -5.1197    5.1669  -19.0812 C   0  0  0  0  0  0  0  0  0  0  0  0
   -4.3062    4.4279  -18.6755 O   0  0  0  0  0  0  0  0  0  0  0  0
   -6.6360    5.2816  -18.7463 N   0  0  0  0  0  0  0  0  0  0  0  0
   -7.3836    4.6223  -17.8402 C   0  0  0  0  0  0  0  0  0  0  0  0
   -8.7455    4.6111  -17.7085 C   0  0  0  0  0  0  0  0  0  0  0  0
   -8.9590    4.2297  -16.4054 N   0  0  0  0  0  0  0  0  0  0  0  0
   -7.7297    4.0550  -15.8034 C   0  0  0  0  0  0  0  0  0  0  0  0
   -7.4375    3.7399  -14.4207 C   0  0  0  0  0  0  0  0  0  0  0  0
   -6.3743    3.3069  -13.9879 O   0  0  0  0  0  0  0  0  0  0  0  0
   -8.5093    4.0554  -13.6340 O   0  0  0  0  0  0  0  0  0  0  0  0
   -8.3554    3.6974  -12.2511 C   0  0  0  0  0  0  0  0  0  0  0  0
   -7.9435    4.9220  -11.4704 C   0  0  0  0  0  0  0  0  0  0  0  0
   -6.7749    4.2256  -16.6943 N   0  0  0  0  0  0  0  0  0  0  0  0
  1  2  2  0
  2  3  1  0
  3  4  1  0
  4  5  1  0
  5  6  2  0
  5  7  1  0
  7  8  1  0
  8  9  2  0
  9 10  1  0
 10 11  1  0
 11 12  1  0
 12 13  2  0
 12 14  1  0
 14 15  1  0
 15 16  1  0
 11 17  2  0
 17  8  1  0
M  END
>  <energy_score>  (3133) 
-36.086148

>  <alias>  (3133) 
None

>  <HIPPO Pose ID>  (3133) 
76474

>  <smiles>  (3133) 
C=CCCC(=O)Nc1c[nH]c(C(=O)OCC)n1

>  <inchikey>  (3133) 
MTWQMUWMYJTZJT-UHFFFAOYSA-N

>  <distance_score>  (3133) 
1.949123

>  <ref_mols>  (3133) 
Z0719a,Z1597a

>  <ref_pdb>  (3133) 
Z0719a

>  <HIPPO Compound ID>  (3133) 
152077

>  <name>  (3133) 
P76474

>  <inspiration_score>  (3133) 
None

$$$$
P76475
     RDKit          3D

 17 18  0  0  0  0  0  0  0  0999 V2000
   -4.8470    9.2960  -20.2167 N   0  0  0  0  0  0  0  0  0  0  0  0
   -4.8369    8.1485  -20.3957 C   0  0  0  0  0  0  0  0  0  0  0  0
   -4.9060    6.7202  -20.6530 C   0  0  0  0  0  0  0  0  0  0  0  0
   -4.7729    5.9570  -19.3491 C   0  0  0  0  0  0  0  0  0  0  0  0
   -3.7321    5.7591  -18.8526 O   0  0  0  0  0  0  0  0  0  0  0  0
   -6.2070    5.6412  -18.8414 N   0  0  0  0  0  0  0  0  0  0  0  0
   -6.6298    5.1381  -17.6574 C   0  0  0  0  0  0  0  0  0  0  0  0
   -7.9593    5.2661  -17.4006 N   0  0  0  0  0  0  0  0  0  0  0  0
   -8.1055    4.9409  -16.1391 C   0  0  0  0  0  0  0  0  0  0  0  0
   -6.9466    4.4849  -15.6075 N   0  0  0  0  0  0  0  0  0  0  0  0
   -5.9772    4.6278  -16.5636 C   0  0  0  0  0  0  0  0  0  0  0  0
   -4.6326    4.3314  -16.2713 C   0  0  0  0  0  0  0  0  0  0  0  0
   -3.6369    3.9839  -15.7919 N   0  0  0  0  0  0  0  0  0  0  0  0
   -6.7577    4.2523  -14.1797 C   0  0  0  0  0  0  0  0  0  0  0  0
   -8.0484    4.4015  -13.3893 C   0  0  0  0  0  0  0  0  0  0  0  0
   -8.8730    5.4253  -13.9471 O   0  0  0  0  0  0  0  0  0  0  0  0
   -9.2794    5.1041  -15.2886 C   0  0  0  0  0  0  0  0  0  0  0  0
  1  2  3  0
  2  3  1  0
  3  4  1  0
  4  5  2  0
  4  6  1  0
  6  7  1  0
  7  8  1  0
  8  9  2  0
  9 10  1  0
 10 11  1  0
 11 12  1  0
 12 13  3  0
 10 14  1  0
 14 15  1  0
 15 16  1  0
 16 17  1  0
 11  7  2  0
 17  9  1  0
M  END
>  <energy_score>  (3134) 
-24.066179

>  <alias>  (3134) 
None

>  <HIPPO Pose ID>  (3134) 
76475

>  <smiles>  (3134) 
N#CCC(=O)Nc1nc2n(c1C#N)CCOC2

>  <inchikey>  (3134) 
HWBXCMJSUWTLPY-UHFFFAOYSA-N

>  <distance_score>  (3134) 
1.971088

>  <ref_mols>  (3134) 
Z0719a,Z1597a

>  <ref_pdb>  (3134) 
Z0719a

>  <HIPPO Compound ID>  (3134) 
152099

>  <name>  (3134) 
P76475

>  <inspiration_score>  (3134) 
None

$$$$
P76477
     RDKit          3D

 17 17  0  0  0  0  0  0  0  0999 V2000
   -3.2186    7.6341  -22.7777 C   0  0  0  0  0  0  0  0  0  0  0  0
   -3.7795    7.3767  -21.7474 C   0  0  0  0  0  0  0  0  0  0  0  0
   -4.4798    7.0693  -20.4890 C   0  0  0  0  0  0  0  0  0  0  0  0
   -3.8013    5.9322  -19.7447 C   0  0  0  0  0  0  0  0  0  0  0  0
   -4.2280    5.8246  -18.2952 C   0  0  0  0  0  0  0  0  0  0  0  0
   -3.4678    6.0280  -17.4290 O   0  0  0  0  0  0  0  0  0  0  0  0
   -5.7070    5.3489  -18.2462 N   0  0  0  0  0  0  0  0  0  0  0  0
   -6.4703    4.9617  -17.1995 C   0  0  0  0  0  0  0  0  0  0  0  0
   -6.0243    4.7616  -15.9242 C   0  0  0  0  0  0  0  0  0  0  0  0
   -7.0870    4.2438  -15.2438 N   0  0  0  0  0  0  0  0  0  0  0  0
   -7.0814    3.8623  -13.8456 C   0  0  0  0  0  0  0  0  0  0  0  0
   -6.2479    2.6584  -13.5208 C   0  0  0  0  0  0  0  0  0  0  0  0
   -5.0056    2.7719  -14.0313 F   0  0  0  0  0  0  0  0  0  0  0  0
   -6.7869    1.5019  -13.9417 F   0  0  0  0  0  0  0  0  0  0  0  0
   -6.1220    2.5362  -12.1838 F   0  0  0  0  0  0  0  0  0  0  0  0
   -8.1545    4.2693  -16.0987 C   0  0  0  0  0  0  0  0  0  0  0  0
   -7.7969    4.6872  -17.2978 N   0  0  0  0  0  0  0  0  0  0  0  0
  1  2  3  0
  2  3  1  0
  3  4  1  0
  4  5  1  0
  5  6  2  0
  5  7  1  0
  7  8  1  0
  8  9  2  0
  9 10  1  0
 10 11  1  0
 11 12  1  0
 12 13  1  0
 12 14  1  0
 12 15  1  0
 10 16  1  0
 16 17  2  0
 17  8  1  0
M  END
>  <energy_score>  (3135) 
-21.905608

>  <alias>  (3135) 
None

>  <HIPPO Pose ID>  (3135) 
76477

>  <smiles>  (3135) 
C#CCCC(=O)Nc1cn(CC(F)(F)F)cn1

>  <inchikey>  (3135) 
JJXWUJXQBCLXBT-UHFFFAOYSA-N

>  <distance_score>  (3135) 
1.90416

>  <ref_mols>  (3135) 
Z0719a,Z1597a

>  <ref_pdb>  (3135) 
Z0719a

>  <HIPPO Compound ID>  (3135) 
152103

>  <name>  (3135) 
P76477

>  <inspiration_score>  (3135) 
None

$$$$
P76478
     RDKit          3D

 17 18  0  0  0  0  0  0  0  0999 V2000
   -9.1080    4.1406  -18.9219 C   0  0  0  0  0  0  0  0  0  0  0  0
   -8.4388    4.4924  -17.6717 C   0  0  0  0  0  0  0  0  0  0  0  0
   -9.0334    4.1560  -16.4925 N   0  0  0  0  0  0  0  0  0  0  0  0
   -8.1918    4.5911  -15.5932 C   0  0  0  0  0  0  0  0  0  0  0  0
   -8.3532    4.5498  -14.1710 C   0  0  0  0  0  0  0  0  0  0  0  0
   -7.4678    5.0484  -13.3518 N   0  0  0  0  0  0  0  0  0  0  0  0
   -6.3305    5.5734  -13.9179 C   0  0  0  0  0  0  0  0  0  0  0  0
   -6.1093    5.6570  -15.2408 C   0  0  0  0  0  0  0  0  0  0  0  0
   -7.0629    5.1792  -16.1250 N   0  0  0  0  0  0  0  0  0  0  0  0
   -7.2356    5.1595  -17.4973 C   0  0  0  0  0  0  0  0  0  0  0  0
   -6.5002    5.6630  -18.5449 N   0  0  0  0  0  0  0  0  0  0  0  0
   -5.1807    6.4868  -18.5490 C   0  0  0  0  0  0  0  0  0  0  0  0
   -4.4780    6.7960  -17.6672 O   0  0  0  0  0  0  0  0  0  0  0  0
   -4.9786    6.9557  -19.9894 C   0  0  0  0  0  0  0  0  0  0  0  0
   -3.5150    6.9514  -20.4027 C   0  0  2  0  0  0  0  0  0  0  0  0
   -3.2834    7.8243  -21.6256 C   0  0  0  0  0  0  0  0  0  0  0  0
   -3.1239    5.6846  -20.7412 F   0  0  0  0  0  0  0  0  0  0  0  0
  1  2  1  0
  2  3  1  0
  3  4  2  0
  4  5  1  0
  5  6  2  0
  6  7  1  0
  7  8  2  0
  8  9  1  0
  9 10  1  0
 10 11  1  0
 11 12  1  0
 12 13  2  0
 12 14  1  0
 14 15  1  0
 15 16  1  6
 15 17  1  0
 10  2  2  0
  9  4  1  0
M  END
>  <energy_score>  (3136) 
-25.368358

>  <alias>  (3136) 
None

>  <HIPPO Pose ID>  (3136) 
76478

>  <smiles>  (3136) 
Cc1nc2cnccn2c1NC(=O)C[C@H](C)F

>  <inchikey>  (3136) 
GJEXIKUUWOLPTR-ZETCQYMHSA-N

>  <distance_score>  (3136) 
1.782707

>  <ref_mols>  (3136) 
Z0719a,Z1597a

>  <ref_pdb>  (3136) 
Z0719a

>  <HIPPO Compound ID>  (3136) 
152111

>  <name>  (3136) 
P76478

>  <inspiration_score>  (3136) 
None

$$$$
P76479
     RDKit          3D

 17 17  0  0  0  0  0  0  0  0999 V2000
   -4.1296    4.9179  -16.2495 C   0  0  0  0  0  0  0  0  0  0  0  0
   -3.8154    5.5218  -17.2458 C   0  0  0  0  0  0  0  0  0  0  0  0
   -3.5777    6.2889  -18.5029 C   0  0  0  0  0  0  0  0  0  0  0  0
   -4.4911    5.8643  -19.6410 C   0  0  0  0  0  0  0  0  0  0  0  0
   -5.9426    6.1315  -19.2778 C   0  0  0  0  0  0  0  0  0  0  0  0
   -6.5004    7.1308  -19.5230 O   0  0  0  0  0  0  0  0  0  0  0  0
   -6.4118    4.8864  -18.4715 N   0  0  0  0  0  0  0  0  0  0  0  0
   -7.5393    4.6730  -17.7762 C   0  0  0  0  0  0  0  0  0  0  0  0
   -8.8412    4.9418  -18.0762 C   0  0  0  0  0  0  0  0  0  0  0  0
   -9.5130    4.7186  -16.9036 N   0  0  0  0  0  0  0  0  0  0  0  0
   -8.5682    4.4411  -15.9387 C   0  0  0  0  0  0  0  0  0  0  0  0
   -8.8154    4.4791  -14.5198 C   0  0  0  0  0  0  0  0  0  0  0  0
   -9.8074    5.0016  -14.0210 O   0  0  0  0  0  0  0  0  0  0  0  0
   -7.7999    3.8871  -13.8309 O   0  0  0  0  0  0  0  0  0  0  0  0
   -8.0406    3.6482  -12.4379 C   0  0  0  0  0  0  0  0  0  0  0  0
   -7.7887    4.8955  -11.6209 C   0  0  0  0  0  0  0  0  0  0  0  0
   -7.3926    4.2394  -16.4982 N   0  0  0  0  0  0  0  0  0  0  0  0
  1  2  3  0
  2  3  1  0
  3  4  1  0
  4  5  1  0
  5  6  2  0
  5  7  1  0
  7  8  1  0
  8  9  2  0
  9 10  1  0
 10 11  1  0
 11 12  1  0
 12 13  2  0
 12 14  1  0
 14 15  1  0
 15 16  1  0
 11 17  2  0
 17  8  1  0
M  END
>  <energy_score>  (3137) 
-7.586789

>  <alias>  (3137) 
None

>  <HIPPO Pose ID>  (3137) 
76479

>  <smiles>  (3137) 
C#CCCC(=O)Nc1c[nH]c(C(=O)OCC)n1

>  <inchikey>  (3137) 
NQKDIFFKMPPQNB-UHFFFAOYSA-N

>  <distance_score>  (3137) 
1.657097

>  <ref_mols>  (3137) 
Z0719a,Z1597a

>  <ref_pdb>  (3137) 
Z0719a

>  <HIPPO Compound ID>  (3137) 
152112

>  <name>  (3137) 
P76479

>  <inspiration_score>  (3137) 
None

$$$$
P76482
     RDKit          3D

 17 17  0  0  0  0  0  0  0  0999 V2000
   -3.4248    4.1091  -14.4722 C   0  0  0  0  0  0  0  0  0  0  0  0
   -4.5461    4.0842  -15.3511 O   0  0  0  0  0  0  0  0  0  0  0  0
   -5.5678    4.8956  -14.9622 C   0  0  0  0  0  0  0  0  0  0  0  0
   -5.5918    5.5403  -13.9199 O   0  0  0  0  0  0  0  0  0  0  0  0
   -6.6527    4.8087  -15.8952 C   0  0  0  0  0  0  0  0  0  0  0  0
   -6.7040    4.8169  -17.2720 C   0  0  0  0  0  0  0  0  0  0  0  0
   -5.7363    5.0186  -18.1991 N   0  0  0  0  0  0  0  0  0  0  0  0
   -4.3363    5.6743  -18.0679 C   0  0  0  0  0  0  0  0  0  0  0  0
   -3.7713    6.0715  -17.1251 O   0  0  0  0  0  0  0  0  0  0  0  0
   -3.7169    5.6861  -19.4470 C   0  0  0  0  0  0  0  0  0  0  0  0
   -4.2549    6.8318  -20.2885 C   0  0  0  0  0  0  0  0  0  0  0  0
   -3.4378    7.0081  -21.5376 C   0  0  0  0  0  0  0  0  0  0  0  0
   -2.5167    6.2559  -21.8563 O   0  0  0  0  0  0  0  0  0  0  0  0
   -7.9703    4.5935  -17.7268 N   0  0  0  0  0  0  0  0  0  0  0  0
   -8.7187    4.4845  -16.6563 C   0  0  0  0  0  0  0  0  0  0  0  0
   -7.9728    4.6399  -15.5312 N   0  0  0  0  0  0  0  0  0  0  0  0
   -8.4618    4.5983  -14.1764 C   0  0  0  0  0  0  0  0  0  0  0  0
  1  2  1  0
  2  3  1  0
  3  4  2  0
  3  5  1  0
  5  6  2  0
  6  7  1  0
  7  8  1  0
  8  9  2  0
  8 10  1  0
 10 11  1  0
 11 12  1  0
 12 13  2  0
  6 14  1  0
 14 15  2  0
 15 16  1  0
 16 17  1  0
 16  5  1  0
M  END
>  <energy_score>  (3138) 
-13.739071

>  <alias>  (3138) 
None

>  <HIPPO Pose ID>  (3138) 
76482

>  <smiles>  (3138) 
COC(=O)c1c(NC(=O)CCC=O)ncn1C

>  <inchikey>  (3138) 
UFAPDUYBGJFLOW-UHFFFAOYSA-N

>  <distance_score>  (3138) 
1.951777

>  <ref_mols>  (3138) 
Z0719a,Z1597a

>  <ref_pdb>  (3138) 
Z0719a

>  <HIPPO Compound ID>  (3138) 
152116

>  <name>  (3138) 
P76482

>  <inspiration_score>  (3138) 
None

$$$$
P76483
     RDKit          3D

 17 17  0  0  0  0  0  0  0  0999 V2000
   -5.5603    3.1550  -13.2618 C   0  0  0  0  0  0  0  0  0  0  0  0
   -5.9025    4.6303  -13.3161 C   0  0  0  0  0  0  0  0  0  0  0  0
   -6.8612    4.8584  -14.3520 O   0  0  0  0  0  0  0  0  0  0  0  0
   -6.3565    4.8140  -15.6216 C   0  0  0  0  0  0  0  0  0  0  0  0
   -5.1655    4.7402  -15.8892 O   0  0  0  0  0  0  0  0  0  0  0  0
   -7.4571    4.7699  -16.5317 C   0  0  0  0  0  0  0  0  0  0  0  0
   -8.7230    4.3388  -16.1796 N   0  0  0  0  0  0  0  0  0  0  0  0
   -9.4820    4.2843  -17.3012 C   0  0  0  0  0  0  0  0  0  0  0  0
   -8.7747    4.5980  -18.3543 N   0  0  0  0  0  0  0  0  0  0  0  0
   -7.5483    4.9622  -17.8894 C   0  0  0  0  0  0  0  0  0  0  0  0
   -6.6539    5.3965  -18.8063 N   0  0  0  0  0  0  0  0  0  0  0  0
   -5.4347    6.3506  -18.6548 C   0  0  0  0  0  0  0  0  0  0  0  0
   -4.9732    6.8443  -17.7011 O   0  0  0  0  0  0  0  0  0  0  0  0
   -4.8446    6.4569  -20.0501 C   0  0  0  0  0  0  0  0  0  0  0  0
   -3.7144    7.4564  -20.1950 C   0  0  0  0  0  0  0  0  0  0  0  0
   -2.4053    6.8259  -20.6110 C   0  0  0  0  0  0  0  0  0  0  0  0
   -2.2948    5.7722  -21.2370 O   0  0  0  0  0  0  0  0  0  0  0  0
  1  2  1  0
  2  3  1  0
  3  4  1  0
  4  5  2  0
  4  6  1  0
  6  7  1  0
  7  8  1  0
  8  9  2  0
  9 10  1  0
 10 11  1  0
 11 12  1  0
 12 13  2  0
 12 14  1  0
 14 15  1  0
 15 16  1  0
 16 17  2  0
 10  6  2  0
M  END
>  <energy_score>  (3139) 
-22.280193

>  <alias>  (3139) 
None

>  <HIPPO Pose ID>  (3139) 
76483

>  <smiles>  (3139) 
CCOC(=O)c1[nH]cnc1NC(=O)CCC=O

>  <inchikey>  (3139) 
KOHLBNYBAXEUOJ-UHFFFAOYSA-N

>  <distance_score>  (3139) 
1.653114

>  <ref_mols>  (3139) 
Z0719a,Z1597a

>  <ref_pdb>  (3139) 
Z0719a

>  <HIPPO Compound ID>  (3139) 
152120

>  <name>  (3139) 
P76483

>  <inspiration_score>  (3139) 
None

$$$$
P76484
     RDKit          3D

 17 18  0  0  0  0  0  0  0  0999 V2000
   -5.9536   10.1730  -22.4183 O   0  0  0  0  0  0  0  0  0  0  0  0
   -5.2266    9.2121  -22.6573 C   0  0  0  0  0  0  0  0  0  0  0  0
   -5.3347    7.9099  -21.9126 C   0  0  0  0  0  0  0  0  0  0  0  0
   -3.9746    7.3394  -21.5746 C   0  0  0  0  0  0  0  0  0  0  0  0
   -3.9092    6.7621  -20.1663 C   0  0  0  0  0  0  0  0  0  0  0  0
   -3.0440    7.0568  -19.4362 O   0  0  0  0  0  0  0  0  0  0  0  0
   -5.1607    5.8684  -19.9369 N   0  0  0  0  0  0  0  0  0  0  0  0
   -5.6194    5.2754  -18.8159 C   0  0  0  0  0  0  0  0  0  0  0  0
   -6.9074    4.8419  -18.6015 C   0  0  0  0  0  0  0  0  0  0  0  0
   -6.9720    4.6554  -17.2523 N   0  0  0  0  0  0  0  0  0  0  0  0
   -8.1054    4.6110  -16.5072 N   0  0  0  0  0  0  0  0  0  0  0  0
   -7.8378    4.5976  -15.2419 C   0  0  0  0  0  0  0  0  0  0  0  0
   -9.1323    4.8924  -14.1754 Cl  0  0  0  0  0  0  0  0  0  0  0  0
   -6.5031    4.4530  -14.6185 C   0  0  0  0  0  0  0  0  0  0  0  0
   -5.4441    4.5641  -15.4159 C   0  0  0  0  0  0  0  0  0  0  0  0
   -5.6700    4.7710  -16.7840 C   0  0  0  0  0  0  0  0  0  0  0  0
   -4.8373    5.1533  -17.7178 N   0  0  0  0  0  0  0  0  0  0  0  0
  1  2  2  0
  2  3  1  0
  3  4  1  0
  4  5  1  0
  5  6  2  0
  5  7  1  0
  7  8  1  0
  8  9  2  0
  9 10  1  0
 10 11  1  0
 11 12  2  0
 12 13  1  0
 12 14  1  0
 14 15  2  0
 15 16  1  0
 16 17  2  0
 17  8  1  0
 16 10  1  0
M  END
>  <energy_score>  (3140) 
-0.284468

>  <alias>  (3140) 
None

>  <HIPPO Pose ID>  (3140) 
76484

>  <smiles>  (3140) 
O=CCCC(=O)Nc1cn2nc(Cl)ccc2n1

>  <inchikey>  (3140) 
FYEMOLVKEOWDAN-UHFFFAOYSA-N

>  <distance_score>  (3140) 
1.967351

>  <ref_mols>  (3140) 
Z0719a,Z1597a

>  <ref_pdb>  (3140) 
Z0719a

>  <HIPPO Compound ID>  (3140) 
152123

>  <name>  (3140) 
P76484

>  <inspiration_score>  (3140) 
None

$$$$
P76485
     RDKit          3D

 17 18  0  0  0  0  0  0  0  0999 V2000
   -6.1311    8.9702  -19.5094 O   0  0  0  0  0  0  0  0  0  0  0  0
   -5.0845    8.3404  -19.3675 C   0  0  0  0  0  0  0  0  0  0  0  0
   -4.6729    7.1992  -20.2719 C   0  0  0  0  0  0  0  0  0  0  0  0
   -4.1368    6.0186  -19.4750 C   0  0  0  0  0  0  0  0  0  0  0  0
   -4.9305    5.6441  -18.2288 C   0  0  0  0  0  0  0  0  0  0  0  0
   -4.4288    5.6152  -17.1740 O   0  0  0  0  0  0  0  0  0  0  0  0
   -6.3995    5.3750  -18.6518 N   0  0  0  0  0  0  0  0  0  0  0  0
   -7.4692    4.9470  -17.9184 C   0  0  0  0  0  0  0  0  0  0  0  0
   -8.6820    4.8307  -18.5491 N   0  0  0  0  0  0  0  0  0  0  0  0
   -9.5898    4.3449  -17.6593 C   0  0  0  0  0  0  0  0  0  0  0  0
   -9.0394    4.1254  -16.4943 N   0  0  0  0  0  0  0  0  0  0  0  0
   -7.7292    4.5574  -16.6160 C   0  0  0  0  0  0  0  0  0  0  0  0
   -6.8862    4.5429  -15.4281 C   0  0  0  0  0  0  0  0  0  0  0  0
   -6.7242    3.3992  -14.6968 N   0  0  0  0  0  0  0  0  0  0  0  0
   -5.9173    3.7046  -13.6885 N   0  0  0  0  0  0  0  0  0  0  0  0
   -5.6894    5.0123  -13.8363 N   0  0  0  0  0  0  0  0  0  0  0  0
   -6.2784    5.6074  -14.8795 N   0  0  0  0  0  0  0  0  0  0  0  0
  1  2  2  0
  2  3  1  0
  3  4  1  0
  4  5  1  0
  5  6  2  0
  5  7  1  0
  7  8  1  0
  8  9  1  0
  9 10  1  0
 10 11  2  0
 11 12  1  0
 12 13  1  0
 13 14  1  0
 14 15  2  0
 15 16  1  0
 16 17  1  0
 12  8  2  0
 17 13  2  0
M  END
>  <energy_score>  (3141) 
-17.805719

>  <alias>  (3141) 
None

>  <HIPPO Pose ID>  (3141) 
76485

>  <smiles>  (3141) 
O=CCCC(=O)Nc1[nH]cnc1-c1nn[nH]n1

>  <inchikey>  (3141) 
DIXYAILHAOEXCO-UHFFFAOYSA-N

>  <distance_score>  (3141) 
1.344217

>  <ref_mols>  (3141) 
Z0719a,Z1597a

>  <ref_pdb>  (3141) 
Z0719a

>  <HIPPO Compound ID>  (3141) 
152124

>  <name>  (3141) 
P76485

>  <inspiration_score>  (3141) 
None

$$$$
P76487
     RDKit          3D

 17 18  0  0  0  0  0  0  0  0999 V2000
   -4.2555    6.8385  -20.4604 C   0  0  0  0  0  0  0  0  0  0  0  0
   -3.8998    5.5978  -19.6404 C   0  0  1  0  0  0  0  0  0  0  0  0
   -2.4890    5.5816  -19.4076 O   0  0  0  0  0  0  0  0  0  0  0  0
   -1.7975    5.1083  -20.6243 N   0  0  0  0  0  0  0  0  0  0  0  0
   -4.7470    5.5609  -18.3423 C   0  0  0  0  0  0  0  0  0  0  0  0
   -4.3228    5.7804  -17.2734 O   0  0  0  0  0  0  0  0  0  0  0  0
   -6.1897    5.1541  -18.7972 N   0  0  0  0  0  0  0  0  0  0  0  0
   -7.3039    4.8621  -18.0590 C   0  0  0  0  0  0  0  0  0  0  0  0
   -8.5086    4.8190  -18.7185 N   0  0  0  0  0  0  0  0  0  0  0  0
   -9.4938    4.5129  -17.8345 C   0  0  0  0  0  0  0  0  0  0  0  0
   -9.0026    4.3261  -16.6418 N   0  0  0  0  0  0  0  0  0  0  0  0
   -7.6360    4.5641  -16.7492 C   0  0  0  0  0  0  0  0  0  0  0  0
   -6.8414    4.3657  -15.5363 C   0  0  0  0  0  0  0  0  0  0  0  0
   -5.5344    3.9527  -15.5572 N   0  0  0  0  0  0  0  0  0  0  0  0
   -5.2198    3.6218  -14.3089 N   0  0  0  0  0  0  0  0  0  0  0  0
   -6.3379    3.8568  -13.6140 N   0  0  0  0  0  0  0  0  0  0  0  0
   -7.3528    4.3983  -14.2922 N   0  0  0  0  0  0  0  0  0  0  0  0
  2  1  1  1
  2  3  1  0
  3  4  1  0
  2  5  1  0
  5  6  2  0
  5  7  1  0
  7  8  1  0
  8  9  1  0
  9 10  1  0
 10 11  2  0
 11 12  1  0
 12 13  1  0
 13 14  1  0
 14 15  2  0
 15 16  1  0
 16 17  1  0
 12  8  2  0
 17 13  2  0
M  END
>  <energy_score>  (3142) 
-26.42427

>  <alias>  (3142) 
None

>  <HIPPO Pose ID>  (3142) 
76487

>  <smiles>  (3142) 
C[C@@H](ON)C(=O)Nc1[nH]cnc1-c1nn[nH]n1

>  <inchikey>  (3142) 
ZVOKIRLUDFQZET-GSVOUGTGSA-N

>  <distance_score>  (3142) 
1.906944

>  <ref_mols>  (3142) 
Z0719a,Z1597a

>  <ref_pdb>  (3142) 
Z0719a

>  <HIPPO Compound ID>  (3142) 
152134

>  <name>  (3142) 
P76487

>  <inspiration_score>  (3142) 
None

$$$$
P76491
     RDKit          3D

 17 17  0  0  0  0  0  0  0  0999 V2000
   -8.5941    4.3906  -13.8260 C   0  0  0  0  0  0  0  0  0  0  0  0
   -8.0179    4.2910  -15.1457 N   0  0  0  0  0  0  0  0  0  0  0  0
   -8.6698    4.5920  -16.2971 C   0  0  0  0  0  0  0  0  0  0  0  0
   -7.8115    4.9439  -17.2169 N   0  0  0  0  0  0  0  0  0  0  0  0
   -6.5748    4.7834  -16.6503 C   0  0  0  0  0  0  0  0  0  0  0  0
   -5.5824    5.3255  -17.3990 N   0  0  0  0  0  0  0  0  0  0  0  0
   -4.1229    5.6916  -17.0240 C   0  0  0  0  0  0  0  0  0  0  0  0
   -3.5270    5.5114  -16.0344 O   0  0  0  0  0  0  0  0  0  0  0  0
   -3.5337    6.5090  -18.2401 C   0  0  0  0  0  0  0  0  0  0  0  0
   -3.6799    5.8315  -19.6099 C   0  0  0  0  0  0  0  0  0  0  0  0
   -2.0532    6.8143  -17.9833 C   0  0  0  0  0  0  0  0  0  0  0  0
   -4.2320    7.7609  -18.3198 O   0  0  0  0  0  0  0  0  0  0  0  0
   -6.6600    4.1714  -15.4113 C   0  0  0  0  0  0  0  0  0  0  0  0
   -5.6072    3.4560  -14.2011 S   0  0  0  0  0  0  0  0  0  0  0  0
   -5.3254    4.6752  -13.0989 N   0  0  0  0  0  0  0  0  0  0  0  0
   -6.3728    2.4372  -13.5178 O   0  0  0  0  0  0  0  0  0  0  0  0
   -4.3194    3.1518  -14.7674 O   0  0  0  0  0  0  0  0  0  0  0  0
  1  2  1  0
  2  3  1  0
  3  4  2  0
  4  5  1  0
  5  6  1  0
  6  7  1  0
  7  8  2  0
  7  9  1  0
  9 10  1  0
  9 11  1  0
  9 12  1  0
  5 13  2  0
 13 14  1  0
 14 15  1  0
 14 16  2  0
 14 17  2  0
 13  2  1  0
M  END
>  <energy_score>  (3143) 
-38.632693

>  <alias>  (3143) 
None

>  <HIPPO Pose ID>  (3143) 
76491

>  <smiles>  (3143) 
Cn1cnc(NC(=O)C(C)(C)O)c1S(N)(=O)=O

>  <inchikey>  (3143) 
CUBURHUEDRYRHF-UHFFFAOYSA-N

>  <distance_score>  (3143) 
1.92278

>  <ref_mols>  (3143) 
Z0719a,Z1597a

>  <ref_pdb>  (3143) 
Z0719a

>  <HIPPO Compound ID>  (3143) 
152138

>  <name>  (3143) 
P76491

>  <inspiration_score>  (3143) 
None

$$$$
P76492
     RDKit          3D

 17 17  0  0  0  0  0  0  0  0999 V2000
   -4.1788    6.4748  -19.8747 C   0  0  0  0  0  0  0  0  0  0  0  0
   -3.6939    5.1592  -19.2574 C   0  0  1  0  0  0  0  0  0  0  0  0
   -2.2607    5.1208  -19.2789 O   0  0  0  0  0  0  0  0  0  0  0  0
   -1.7733    4.8464  -20.6438 N   0  0  0  0  0  0  0  0  0  0  0  0
   -4.2237    5.0082  -17.7942 C   0  0  0  0  0  0  0  0  0  0  0  0
   -3.5704    5.1706  -16.8381 O   0  0  0  0  0  0  0  0  0  0  0  0
   -5.7338    4.6553  -17.9361 N   0  0  0  0  0  0  0  0  0  0  0  0
   -6.7024    4.5327  -16.9937 C   0  0  0  0  0  0  0  0  0  0  0  0
   -7.9530    4.6788  -17.5396 N   0  0  0  0  0  0  0  0  0  0  0  0
   -8.7894    4.6710  -16.5401 C   0  0  0  0  0  0  0  0  0  0  0  0
   -8.1115    4.5894  -15.3704 N   0  0  0  0  0  0  0  0  0  0  0  0
   -8.6650    4.9299  -14.0831 C   0  0  0  0  0  0  0  0  0  0  0  0
   -6.7810    4.2746  -15.6329 C   0  0  0  0  0  0  0  0  0  0  0  0
   -5.7799    3.6507  -14.3122 S   0  0  0  0  0  0  0  0  0  0  0  0
   -6.6079    2.2819  -13.7540 N   0  0  0  0  0  0  0  0  0  0  0  0
   -4.5036    3.2061  -14.8014 O   0  0  0  0  0  0  0  0  0  0  0  0
   -5.9068    4.6311  -13.2633 O   0  0  0  0  0  0  0  0  0  0  0  0
  2  1  1  1
  2  3  1  0
  3  4  1  0
  2  5  1  0
  5  6  2  0
  5  7  1  0
  7  8  1  0
  8  9  1  0
  9 10  2  0
 10 11  1  0
 11 12  1  0
 11 13  1  0
 13 14  1  0
 14 15  1  0
 14 16  2  0
 14 17  2  0
 13  8  2  0
M  END
>  <energy_score>  (3144) 
-33.251521

>  <alias>  (3144) 
None

>  <HIPPO Pose ID>  (3144) 
76492

>  <smiles>  (3144) 
C[C@@H](ON)C(=O)Nc1ncn(C)c1S(N)(=O)=O

>  <inchikey>  (3144) 
FHKSVZRUULRUON-SCSAIBSYSA-N

>  <distance_score>  (3144) 
1.587349

>  <ref_mols>  (3144) 
Z0719a,Z1597a

>  <ref_pdb>  (3144) 
Z0719a

>  <HIPPO Compound ID>  (3144) 
152140

>  <name>  (3144) 
P76492

>  <inspiration_score>  (3144) 
None

$$$$
P76493
     RDKit          3D

 17 18  0  0  0  0  0  0  0  0999 V2000
   -4.6452    7.5775  -17.6689 C   0  0  0  0  0  0  0  0  0  0  0  0
   -5.0869    6.4607  -17.6469 C   0  0  0  0  0  0  0  0  0  0  0  0
   -5.6162    5.0782  -17.6179 C   0  0  2  0  0  0  0  0  0  0  0  0
   -6.9238    4.9896  -18.4007 C   0  0  0  0  0  0  0  0  0  0  0  0
   -5.7883    4.5935  -16.1602 C   0  0  0  0  0  0  0  0  0  0  0  0
   -6.8277    4.4136  -15.6553 O   0  0  0  0  0  0  0  0  0  0  0  0
   -4.3451    4.3574  -15.6146 N   0  0  0  0  0  0  0  0  0  0  0  0
   -3.9228    3.7994  -14.4492 C   0  0  0  0  0  0  0  0  0  0  0  0
   -2.5732    3.8851  -14.1588 N   0  0  0  0  0  0  0  0  0  0  0  0
   -2.4573    3.2310  -13.0376 C   0  0  0  0  0  0  0  0  0  0  0  0
   -3.6360    2.7340  -12.5978 N   0  0  0  0  0  0  0  0  0  0  0  0
   -4.6031    3.0607  -13.4953 C   0  0  0  0  0  0  0  0  0  0  0  0
   -5.9239    2.5590  -13.4250 C   0  0  0  0  0  0  0  0  0  0  0  0
   -6.9188    1.9840  -13.2760 N   0  0  0  0  0  0  0  0  0  0  0  0
   -3.6102    1.8789  -11.4310 C   0  0  0  0  0  0  0  0  0  0  0  0
   -2.2597    2.1162  -10.7485 C   0  0  0  0  0  0  0  0  0  0  0  0
   -1.1324    2.8133  -12.0309 S   0  0  0  0  0  0  0  0  0  0  0  0
  1  2  3  0
  2  3  1  0
  3  4  1  1
  3  5  1  0
  5  6  2  0
  5  7  1  0
  7  8  1  0
  8  9  1  0
  9 10  2  0
 10 11  1  0
 11 12  1  0
 12 13  1  0
 13 14  3  0
 11 15  1  0
 15 16  1  0
 16 17  1  0
 12  8  2  0
 17 10  1  0
M  END
>  <energy_score>  (3145) 
-14.752187

>  <alias>  (3145) 
None

>  <HIPPO Pose ID>  (3145) 
76493

>  <smiles>  (3145) 
C#C[C@H](C)C(=O)Nc1nc2n(c1C#N)CCS2

>  <inchikey>  (3145) 
WDPWFVVMJIPBRW-ZETCQYMHSA-N

>  <distance_score>  (3145) 
1.238146

>  <ref_mols>  (3145) 
Z0719a,Z1597a

>  <ref_pdb>  (3145) 
Z0719a

>  <HIPPO Compound ID>  (3145) 
152152

>  <name>  (3145) 
P76493

>  <inspiration_score>  (3145) 
None

$$$$
P76496
     RDKit          3D

 17 18  0  0  0  0  0  0  0  0999 V2000
   -0.4955    1.2849  -12.4920 C   0  0  0  0  0  0  0  0  0  0  0  0
   -1.1888    2.6375  -12.3963 C   0  0  1  0  0  0  0  0  0  0  0  0
   -0.2916    3.6133  -12.9439 O   0  0  0  0  0  0  0  0  0  0  0  0
   -0.4813    4.9018  -12.2781 N   0  0  0  0  0  0  0  0  0  0  0  0
   -2.5406    2.6287  -13.1500 C   0  0  0  0  0  0  0  0  0  0  0  0
   -3.0072    1.6826  -13.6535 O   0  0  0  0  0  0  0  0  0  0  0  0
   -3.1089    4.0674  -12.9874 N   0  0  0  0  0  0  0  0  0  0  0  0
   -4.3267    4.5751  -13.3066 C   0  0  0  0  0  0  0  0  0  0  0  0
   -4.4805    5.9506  -13.3375 N   0  0  0  0  0  0  0  0  0  0  0  0
   -5.7312    6.1090  -13.6662 C   0  0  0  0  0  0  0  0  0  0  0  0
   -6.3758    4.9341  -13.8476 N   0  0  0  0  0  0  0  0  0  0  0  0
   -5.5198    3.9238  -13.5650 C   0  0  0  0  0  0  0  0  0  0  0  0
   -5.9273    2.5761  -13.4565 C   0  0  0  0  0  0  0  0  0  0  0  0
   -6.4251    1.5348  -13.3519 N   0  0  0  0  0  0  0  0  0  0  0  0
   -7.7783    4.9815  -14.1857 C   0  0  0  0  0  0  0  0  0  0  0  0
   -8.2580    6.3792  -13.7920 C   0  0  0  0  0  0  0  0  0  0  0  0
   -6.7676    7.4661  -13.8391 S   0  0  0  0  0  0  0  0  0  0  0  0
  2  1  1  6
  2  3  1  0
  3  4  1  0
  2  5  1  0
  5  6  2  0
  5  7  1  0
  7  8  1  0
  8  9  1  0
  9 10  2  0
 10 11  1  0
 11 12  1  0
 12 13  1  0
 13 14  3  0
 11 15  1  0
 15 16  1  0
 16 17  1  0
 12  8  2  0
 17 10  1  0
M  END
>  <energy_score>  (3146) 
-36.996462

>  <alias>  (3146) 
None

>  <HIPPO Pose ID>  (3146) 
76496

>  <smiles>  (3146) 
C[C@@H](ON)C(=O)Nc1nc2n(c1C#N)CCS2

>  <inchikey>  (3146) 
GCDNULLELCUYMP-RXMQYKEDSA-N

>  <distance_score>  (3146) 
1.117877

>  <ref_mols>  (3146) 
Z0719a,Z1597a

>  <ref_pdb>  (3146) 
Z0719a

>  <HIPPO Compound ID>  (3146) 
152153

>  <name>  (3146) 
P76496

>  <inspiration_score>  (3146) 
None

$$$$
P76497
     RDKit          3D

 17 18  0  0  0  0  0  0  0  0999 V2000
   -3.3998    4.2959  -16.5303 C   0  0  0  0  0  0  0  0  0  0  0  0
   -3.5091    5.1142  -17.4082 C   0  0  0  0  0  0  0  0  0  0  0  0
   -3.9811    6.2067  -18.3152 C   0  0  1  0  0  0  0  0  0  0  0  0
   -3.9480    5.8552  -19.7884 C   0  0  0  0  0  0  0  0  0  0  0  0
   -5.3671    6.5385  -17.7462 C   0  0  0  0  0  0  0  0  0  0  0  0
   -5.5848    7.5519  -17.1988 O   0  0  0  0  0  0  0  0  0  0  0  0
   -6.2765    5.2844  -17.9540 N   0  0  0  0  0  0  0  0  0  0  0  0
   -7.5166    5.0083  -17.4792 C   0  0  0  0  0  0  0  0  0  0  0  0
   -8.5980    4.3223  -17.9685 C   0  0  0  0  0  0  0  0  0  0  0  0
   -9.5248    4.1062  -16.9715 N   0  0  0  0  0  0  0  0  0  0  0  0
   -9.0205    4.6313  -15.8667 C   0  0  0  0  0  0  0  0  0  0  0  0
   -9.5116    4.6545  -14.5807 N   0  0  0  0  0  0  0  0  0  0  0  0
   -8.6732    4.9664  -13.6417 C   0  0  0  0  0  0  0  0  0  0  0  0
   -7.2826    5.4289  -13.8385 C   0  0  0  0  0  0  0  0  0  0  0  0
   -6.2219    5.8661  -12.4081 Br  0  0  0  0  0  0  0  0  0  0  0  0
   -6.8998    5.5224  -15.1106 C   0  0  0  0  0  0  0  0  0  0  0  0
   -7.7592    5.1421  -16.1294 N   0  0  0  0  0  0  0  0  0  0  0  0
  1  2  3  0
  2  3  1  0
  3  4  1  6
  3  5  1  0
  5  6  2  0
  5  7  1  0
  7  8  1  0
  8  9  2  0
  9 10  1  0
 10 11  2  0
 11 12  1  0
 12 13  2  0
 13 14  1  0
 14 15  1  0
 14 16  2  0
 16 17  1  0
 17  8  1  0
 17 11  1  0
M  END
>  <energy_score>  (3147) 
-12.851071

>  <alias>  (3147) 
None

>  <HIPPO Pose ID>  (3147) 
76497

>  <smiles>  (3147) 
C#C[C@@H](C)C(=O)Nc1cnc2ncc(Br)cn12

>  <inchikey>  (3147) 
OWGFPRWEQRRYCL-SSDOTTSWSA-N

>  <distance_score>  (3147) 
1.865058

>  <ref_mols>  (3147) 
Z0719a,Z1597a

>  <ref_pdb>  (3147) 
Z0719a

>  <HIPPO Compound ID>  (3147) 
152156

>  <name>  (3147) 
P76497

>  <inspiration_score>  (3147) 
None

$$$$
P76498
     RDKit          3D

 17 17  0  0  0  0  0  0  0  0999 V2000
   -1.7154    6.1094  -19.9236 C   0  0  0  0  0  0  0  0  0  0  0  0
   -2.8762    5.9266  -19.6740 C   0  0  0  0  0  0  0  0  0  0  0  0
   -4.2988    5.7111  -19.3572 C   0  0  2  0  0  0  0  0  0  0  0  0
   -5.0931    6.9500  -19.7850 C   0  0  0  0  0  0  0  0  0  0  0  0
   -4.5895    5.3697  -17.8743 C   0  0  0  0  0  0  0  0  0  0  0  0
   -3.8710    5.5687  -16.9745 O   0  0  0  0  0  0  0  0  0  0  0  0
   -6.0474    4.8259  -17.8991 N   0  0  0  0  0  0  0  0  0  0  0  0
   -6.8893    4.5284  -16.8869 C   0  0  0  0  0  0  0  0  0  0  0  0
   -8.1851    4.5446  -17.3281 N   0  0  0  0  0  0  0  0  0  0  0  0
   -8.9230    4.4096  -16.2654 C   0  0  0  0  0  0  0  0  0  0  0  0
   -8.1465    4.3637  -15.1580 N   0  0  0  0  0  0  0  0  0  0  0  0
   -8.6228    4.5461  -13.8083 C   0  0  0  0  0  0  0  0  0  0  0  0
   -6.8177    4.2251  -15.5398 C   0  0  0  0  0  0  0  0  0  0  0  0
   -5.6522    3.7240  -14.3233 S   0  0  0  0  0  0  0  0  0  0  0  0
   -6.3369    2.3351  -13.6252 N   0  0  0  0  0  0  0  0  0  0  0  0
   -5.6867    4.7565  -13.3207 O   0  0  0  0  0  0  0  0  0  0  0  0
   -4.4286    3.2652  -14.9250 O   0  0  0  0  0  0  0  0  0  0  0  0
  1  2  3  0
  2  3  1  0
  3  4  1  1
  3  5  1  0
  5  6  2  0
  5  7  1  0
  7  8  1  0
  8  9  1  0
  9 10  2  0
 10 11  1  0
 11 12  1  0
 11 13  1  0
 13 14  1  0
 14 15  1  0
 14 16  2  0
 14 17  2  0
 13  8  2  0
M  END
>  <energy_score>  (3148) 
-20.684677

>  <alias>  (3148) 
None

>  <HIPPO Pose ID>  (3148) 
76498

>  <smiles>  (3148) 
C#C[C@H](C)C(=O)Nc1ncn(C)c1S(N)(=O)=O

>  <inchikey>  (3148) 
KAGCEEHMZGTLBG-LURJTMIESA-N

>  <distance_score>  (3148) 
1.640019

>  <ref_mols>  (3148) 
Z0719a,Z1597a

>  <ref_pdb>  (3148) 
Z0719a

>  <HIPPO Compound ID>  (3148) 
152158

>  <name>  (3148) 
P76498

>  <inspiration_score>  (3148) 
None

$$$$
P76499
     RDKit          3D

 17 17  0  0  0  0  0  0  0  0999 V2000
   -3.0572    7.3820  -22.2205 C   0  0  0  0  0  0  0  0  0  0  0  0
   -3.9796    7.2198  -21.4675 C   0  0  0  0  0  0  0  0  0  0  0  0
   -5.1335    7.0846  -20.5481 C   0  0  2  0  0  0  0  0  0  0  0  0
   -5.5153    8.4723  -20.0282 C   0  0  0  0  0  0  0  0  0  0  0  0
   -4.8034    6.1849  -19.3418 C   0  0  0  0  0  0  0  0  0  0  0  0
   -3.7017    5.9714  -18.9995 O   0  0  0  0  0  0  0  0  0  0  0  0
   -6.1637    5.7684  -18.6939 N   0  0  0  0  0  0  0  0  0  0  0  0
   -6.4227    5.1335  -17.5282 C   0  0  0  0  0  0  0  0  0  0  0  0
   -5.4955    4.6077  -16.6744 C   0  0  0  0  0  0  0  0  0  0  0  0
   -6.2029    4.1632  -15.5881 N   0  0  0  0  0  0  0  0  0  0  0  0
   -5.5746    3.6407  -14.3819 C   0  0  0  0  0  0  0  0  0  0  0  0
   -6.4671    2.8591  -13.4585 C   0  0  0  0  0  0  0  0  0  0  0  0
   -6.9299    1.7130  -13.9780 F   0  0  0  0  0  0  0  0  0  0  0  0
   -7.5072    3.6213  -13.0788 F   0  0  0  0  0  0  0  0  0  0  0  0
   -5.7914    2.5145  -12.3450 F   0  0  0  0  0  0  0  0  0  0  0  0
   -7.5252    4.4005  -15.8599 C   0  0  0  0  0  0  0  0  0  0  0  0
   -7.6750    5.0254  -17.0122 N   0  0  0  0  0  0  0  0  0  0  0  0
  1  2  3  0
  2  3  1  0
  3  4  1  1
  3  5  1  0
  5  6  2  0
  5  7  1  0
  7  8  1  0
  8  9  2  0
  9 10  1  0
 10 11  1  0
 11 12  1  0
 12 13  1  0
 12 14  1  0
 12 15  1  0
 10 16  1  0
 16 17  2  0
 17  8  1  0
M  END
>  <energy_score>  (3149) 
-24.775856

>  <alias>  (3149) 
None

>  <HIPPO Pose ID>  (3149) 
76499

>  <smiles>  (3149) 
C#C[C@H](C)C(=O)Nc1cn(CC(F)(F)F)cn1

>  <inchikey>  (3149) 
WIQGUKYMRLVZRW-ZETCQYMHSA-N

>  <distance_score>  (3149) 
1.984643

>  <ref_mols>  (3149) 
Z0719a,Z1597a

>  <ref_pdb>  (3149) 
Z0719a

>  <HIPPO Compound ID>  (3149) 
152159

>  <name>  (3149) 
P76499

>  <inspiration_score>  (3149) 
None

$$$$
P76502
     RDKit          3D

 17 18  0  0  0  0  0  0  0  0999 V2000
   -3.4991    6.6867  -17.2068 C   0  0  0  0  0  0  0  0  0  0  0  0
   -3.7815    5.1893  -17.3982 C   0  0  0  0  0  0  0  0  0  0  0  0
   -2.4924    4.5375  -17.8847 C   0  0  0  0  0  0  0  0  0  0  0  0
   -4.7361    5.0452  -18.4402 O   0  0  0  0  0  0  0  0  0  0  0  0
   -4.2843    4.5242  -16.0616 C   0  0  0  0  0  0  0  0  0  0  0  0
   -3.7082    3.6592  -15.5245 O   0  0  0  0  0  0  0  0  0  0  0  0
   -5.5776    5.2842  -15.6466 N   0  0  0  0  0  0  0  0  0  0  0  0
   -6.3226    5.2041  -14.5130 C   0  0  0  0  0  0  0  0  0  0  0  0
   -7.0195    6.3436  -14.1480 N   0  0  0  0  0  0  0  0  0  0  0  0
   -7.5137    6.0382  -12.9827 C   0  0  0  0  0  0  0  0  0  0  0  0
   -7.2544    4.7604  -12.6247 N   0  0  0  0  0  0  0  0  0  0  0  0
   -6.5001    4.1826  -13.5953 C   0  0  0  0  0  0  0  0  0  0  0  0
   -6.1734    2.8104  -13.5856 C   0  0  0  0  0  0  0  0  0  0  0  0
   -6.0679    1.6638  -13.4534 N   0  0  0  0  0  0  0  0  0  0  0  0
   -7.8133    4.2893  -11.3752 C   0  0  0  0  0  0  0  0  0  0  0  0
   -8.1193    5.5478  -10.5580 C   0  0  0  0  0  0  0  0  0  0  0  0
   -8.3715    6.9100  -11.7806 S   0  0  0  0  0  0  0  0  0  0  0  0
  1  2  1  0
  2  3  1  0
  2  4  1  0
  2  5  1  0
  5  6  2  0
  5  7  1  0
  7  8  1  0
  8  9  1  0
  9 10  2  0
 10 11  1  0
 11 12  1  0
 12 13  1  0
 13 14  3  0
 11 15  1  0
 15 16  1  0
 16 17  1  0
 12  8  2  0
 17 10  1  0
M  END
>  <energy_score>  (3150) 
-40.80375

>  <alias>  (3150) 
None

>  <HIPPO Pose ID>  (3150) 
76502

>  <smiles>  (3150) 
CC(C)(O)C(=O)Nc1nc2n(c1C#N)CCS2

>  <inchikey>  (3150) 
PRPPOFNOBZJVNV-UHFFFAOYSA-N

>  <distance_score>  (3150) 
1.415256

>  <ref_mols>  (3150) 
Z0719a,Z1597a

>  <ref_pdb>  (3150) 
Z0719a

>  <HIPPO Compound ID>  (3150) 
152164

>  <name>  (3150) 
P76502

>  <inspiration_score>  (3150) 
None

$$$$
P76503
     RDKit          3D

 17 18  0  0  0  0  0  0  0  0999 V2000
   -3.6379    3.9214  -15.5419 N   0  0  0  0  0  0  0  0  0  0  0  0
   -4.5965    4.2896  -16.0782 C   0  0  0  0  0  0  0  0  0  0  0  0
   -5.9138    4.6169  -16.4520 C   0  0  0  0  0  0  0  0  0  0  0  0
   -6.4820    5.1452  -17.5834 C   0  0  0  0  0  0  0  0  0  0  0  0
   -5.9634    5.6383  -18.7329 N   0  0  0  0  0  0  0  0  0  0  0  0
   -4.4904    5.7928  -19.1873 C   0  0  0  0  0  0  0  0  0  0  0  0
   -3.4990    5.4481  -18.6734 O   0  0  0  0  0  0  0  0  0  0  0  0
   -4.4877    6.6207  -20.4650 C   0  0  0  0  0  0  0  0  0  0  0  0
   -3.9054    7.9970  -20.2329 C   0  0  0  0  0  0  0  0  0  0  0  0
   -5.3118    9.3306  -19.3113 I   0  0  0  0  0  0  0  0  0  0  0  0
   -7.8259    5.2891  -17.4171 N   0  0  0  0  0  0  0  0  0  0  0  0
   -8.0658    4.9383  -16.1765 C   0  0  0  0  0  0  0  0  0  0  0  0
   -6.9451    4.4929  -15.5613 N   0  0  0  0  0  0  0  0  0  0  0  0
   -6.8496    4.2803  -14.1224 C   0  0  0  0  0  0  0  0  0  0  0  0
   -8.1790    4.4729  -13.4077 C   0  0  0  0  0  0  0  0  0  0  0  0
   -8.9955    5.4463  -14.0605 O   0  0  0  0  0  0  0  0  0  0  0  0
   -9.3020    5.0670  -15.4147 C   0  0  0  0  0  0  0  0  0  0  0  0
  1  2  3  0
  2  3  1  0
  3  4  2  0
  4  5  1  0
  5  6  1  0
  6  7  2  0
  6  8  1  0
  8  9  1  0
  9 10  1  0
  4 11  1  0
 11 12  2  0
 12 13  1  0
 13 14  1  0
 14 15  1  0
 15 16  1  0
 16 17  1  0
 13  3  1  0
 17 12  1  0
M  END
>  <energy_score>  (3151) 
-16.851142

>  <alias>  (3151) 
None

>  <HIPPO Pose ID>  (3151) 
76503

>  <smiles>  (3151) 
N#Cc1c(NC(=O)CCI)nc2n1CCOC2

>  <inchikey>  (3151) 
CAGJIDGZUWXALW-UHFFFAOYSA-N

>  <distance_score>  (3151) 
1.940071

>  <ref_mols>  (3151) 
Z0719a,Z1597a

>  <ref_pdb>  (3151) 
Z0719a

>  <HIPPO Compound ID>  (3151) 
152172

>  <name>  (3151) 
P76503

>  <inspiration_score>  (3151) 
None

$$$$
P76504
     RDKit          3D

 17 18  0  0  0  0  0  0  0  0999 V2000
   -8.5569    4.1849  -19.0240 C   0  0  0  0  0  0  0  0  0  0  0  0
   -8.0688    4.4768  -17.6738 C   0  0  0  0  0  0  0  0  0  0  0  0
   -8.9210    4.2417  -16.6301 N   0  0  0  0  0  0  0  0  0  0  0  0
   -8.2411    4.6293  -15.5844 C   0  0  0  0  0  0  0  0  0  0  0  0
   -8.6725    4.6292  -14.2233 C   0  0  0  0  0  0  0  0  0  0  0  0
   -7.9197    5.0407  -13.2410 N   0  0  0  0  0  0  0  0  0  0  0  0
   -6.6367    5.4120  -13.5655 C   0  0  0  0  0  0  0  0  0  0  0  0
   -6.1576    5.4500  -14.8199 C   0  0  0  0  0  0  0  0  0  0  0  0
   -6.9819    5.0924  -15.8784 N   0  0  0  0  0  0  0  0  0  0  0  0
   -6.8658    5.0363  -17.2563 C   0  0  0  0  0  0  0  0  0  0  0  0
   -5.8243    5.4321  -18.0615 N   0  0  0  0  0  0  0  0  0  0  0  0
   -4.6176    6.3785  -17.7663 C   0  0  0  0  0  0  0  0  0  0  0  0
   -4.2886    6.9007  -16.7700 O   0  0  0  0  0  0  0  0  0  0  0  0
   -3.8038    6.5582  -19.0900 C   0  0  0  0  0  0  0  0  0  0  0  0
   -4.6368    7.1094  -20.2500 C   0  0  0  0  0  0  0  0  0  0  0  0
   -2.6086    7.4905  -18.8477 C   0  0  0  0  0  0  0  0  0  0  0  0
   -3.1430    4.9503  -19.5448 Cl  0  0  0  0  0  0  0  0  0  0  0  0
  1  2  1  0
  2  3  1  0
  3  4  2  0
  4  5  1  0
  5  6  2  0
  6  7  1  0
  7  8  2  0
  8  9  1  0
  9 10  1  0
 10 11  1  0
 11 12  1  0
 12 13  2  0
 12 14  1  0
 14 15  1  0
 14 16  1  0
 14 17  1  0
 10  2  2  0
  9  4  1  0
M  END
>  <energy_score>  (3152) 
-29.84402

>  <alias>  (3152) 
None

>  <HIPPO Pose ID>  (3152) 
76504

>  <smiles>  (3152) 
Cc1nc2cnccn2c1NC(=O)C(C)(C)Cl

>  <inchikey>  (3152) 
CYSDWYNYQRZDPC-UHFFFAOYSA-N

>  <distance_score>  (3152) 
1.690978

>  <ref_mols>  (3152) 
Z0719a,Z1597a

>  <ref_pdb>  (3152) 
Z0719a

>  <HIPPO Compound ID>  (3152) 
152177

>  <name>  (3152) 
P76504

>  <inspiration_score>  (3152) 
None

$$$$
P76505
     RDKit          3D

 17 17  0  0  0  0  0  0  0  0999 V2000
   -3.9836    5.8859  -18.9413 O   0  0  0  0  0  0  0  0  0  0  0  0
   -5.0739    6.1661  -19.2608 C   0  0  0  0  0  0  0  0  0  0  0  0
   -5.3911    7.0701  -20.4458 C   0  0  0  0  0  0  0  0  0  0  0  0
   -4.1434    7.4254  -21.2529 C   0  0  0  0  0  0  0  0  0  0  0  0
   -3.2941    8.4975  -20.5669 C   0  0  0  0  0  0  0  0  0  0  0  0
   -1.5724    8.9563  -21.7605 I   0  0  0  0  0  0  0  0  0  0  0  0
   -6.4368    5.8381  -18.5879 N   0  0  0  0  0  0  0  0  0  0  0  0
   -6.7113    5.2229  -17.4161 C   0  0  0  0  0  0  0  0  0  0  0  0
   -5.8073    4.6621  -16.5561 C   0  0  0  0  0  0  0  0  0  0  0  0
   -6.5536    4.1404  -15.5369 N   0  0  0  0  0  0  0  0  0  0  0  0
   -6.0603    3.2697  -14.4891 C   0  0  0  0  0  0  0  0  0  0  0  0
   -6.2803    3.7276  -13.0924 C   0  0  0  0  0  0  0  0  0  0  0  0
   -7.3753    4.4951  -12.9881 F   0  0  0  0  0  0  0  0  0  0  0  0
   -5.2278    4.4285  -12.6207 F   0  0  0  0  0  0  0  0  0  0  0  0
   -6.4510    2.6417  -12.3037 F   0  0  0  0  0  0  0  0  0  0  0  0
   -7.8667    4.4071  -15.8293 C   0  0  0  0  0  0  0  0  0  0  0  0
   -7.9782    5.1013  -16.9420 N   0  0  0  0  0  0  0  0  0  0  0  0
  1  2  2  0
  2  3  1  0
  3  4  1  0
  4  5  1  0
  5  6  1  0
  2  7  1  0
  7  8  1  0
  8  9  2  0
  9 10  1  0
 10 11  1  0
 11 12  1  0
 12 13  1  0
 12 14  1  0
 12 15  1  0
 10 16  1  0
 16 17  2  0
 17  8  1  0
M  END
>  <energy_score>  (3153) 
-32.376947

>  <alias>  (3153) 
None

>  <HIPPO Pose ID>  (3153) 
76505

>  <smiles>  (3153) 
O=C(CCCI)Nc1cn(CC(F)(F)F)cn1

>  <inchikey>  (3153) 
FBFAOJKXDKCODA-UHFFFAOYSA-N

>  <distance_score>  (3153) 
1.951209

>  <ref_mols>  (3153) 
Z0719a,Z1597a

>  <ref_pdb>  (3153) 
Z0719a

>  <HIPPO Compound ID>  (3153) 
152188

>  <name>  (3153) 
P76505

>  <inspiration_score>  (3153) 
None

$$$$
P76507
     RDKit          3D

 17 17  0  0  0  0  0  0  0  0999 V2000
   -7.6700    4.9215  -11.8172 C   0  0  0  0  0  0  0  0  0  0  0  0
   -7.8793    3.6585  -12.6237 C   0  0  0  0  0  0  0  0  0  0  0  0
   -7.7089    3.8965  -14.0274 O   0  0  0  0  0  0  0  0  0  0  0  0
   -8.7744    4.4442  -14.6726 C   0  0  0  0  0  0  0  0  0  0  0  0
   -9.7564    4.9421  -14.1257 O   0  0  0  0  0  0  0  0  0  0  0  0
   -8.6149    4.3695  -16.1077 C   0  0  0  0  0  0  0  0  0  0  0  0
   -7.4672    4.2995  -16.7544 N   0  0  0  0  0  0  0  0  0  0  0  0
   -7.7610    4.5957  -18.0490 C   0  0  0  0  0  0  0  0  0  0  0  0
   -6.8082    5.1246  -18.8483 N   0  0  0  0  0  0  0  0  0  0  0  0
   -5.2656    4.9532  -18.8267 C   0  0  0  0  0  0  0  0  0  0  0  0
   -4.5882    4.2681  -18.1641 O   0  0  0  0  0  0  0  0  0  0  0  0
   -4.6677    5.9457  -19.7860 C   0  0  0  0  0  0  0  0  0  0  0  0
   -3.9983    7.0430  -18.9466 C   0  0  0  0  0  0  0  0  0  0  0  0
   -4.8803    7.6860  -17.8501 C   0  0  0  0  0  0  0  0  0  0  0  0
   -4.8490    6.5994  -15.8656 I   0  0  0  0  0  0  0  0  0  0  0  0
   -9.1137    4.6613  -18.2499 C   0  0  0  0  0  0  0  0  0  0  0  0
   -9.6551    4.4919  -17.0035 N   0  0  0  0  0  0  0  0  0  0  0  0
  1  2  1  0
  2  3  1  0
  3  4  1  0
  4  5  2  0
  4  6  1  0
  6  7  2  0
  7  8  1  0
  8  9  1  0
  9 10  1  0
 10 11  2  0
 10 12  1  0
 12 13  1  0
 13 14  1  0
 14 15  1  0
  8 16  2  0
 16 17  1  0
 17  6  1  0
M  END
>  <energy_score>  (3154) 
-4.780258

>  <alias>  (3154) 
None

>  <HIPPO Pose ID>  (3154) 
76507

>  <smiles>  (3154) 
CCOC(=O)c1nc(NC(=O)CCCI)c[nH]1

>  <inchikey>  (3154) 
IODKZCPYWIBSNY-UHFFFAOYSA-N

>  <distance_score>  (3154) 
1.513621

>  <ref_mols>  (3154) 
Z0719a,Z1597a

>  <ref_pdb>  (3154) 
Z0719a

>  <HIPPO Compound ID>  (3154) 
152202

>  <name>  (3154) 
P76507

>  <inspiration_score>  (3154) 
None

$$$$
P76508
     RDKit          3D

 17 18  0  0  0  0  0  0  0  0999 V2000
    1.7566    7.4147  -13.6059 N   0  0  0  0  0  0  0  0  0  0  0  0
    1.1097    7.2110  -14.5459 C   0  0  0  0  0  0  0  0  0  0  0  0
    0.3274    6.9573  -15.6945 C   0  0  0  0  0  0  0  0  0  0  0  0
   -0.7587    6.1133  -15.8628 C   0  0  0  0  0  0  0  0  0  0  0  0
   -1.3227    5.3127  -14.9152 N   0  0  0  0  0  0  0  0  0  0  0  0
   -2.5150    4.3173  -15.0136 C   0  0  0  0  0  0  0  0  0  0  0  0
   -3.1421    3.9772  -15.9377 O   0  0  0  0  0  0  0  0  0  0  0  0
   -2.7038    3.7625  -13.6060 C   0  0  0  0  0  0  0  0  0  0  0  0
   -3.8753    2.7844  -13.4838 C   0  0  0  0  0  0  0  0  0  0  0  0
   -5.2248    3.4714  -13.7119 C   0  0  0  0  0  0  0  0  0  0  0  0
   -6.7878    2.3659  -12.8542 I   0  0  0  0  0  0  0  0  0  0  0  0
   -1.2366    6.1605  -17.1500 N   0  0  0  0  0  0  0  0  0  0  0  0
   -0.4550    7.0135  -17.7461 C   0  0  0  0  0  0  0  0  0  0  0  0
    0.4947    7.5136  -16.9200 N   0  0  0  0  0  0  0  0  0  0  0  0
    1.3989    8.4987  -17.4676 C   0  0  0  0  0  0  0  0  0  0  0  0
    1.2825    8.3981  -18.9933 C   0  0  0  0  0  0  0  0  0  0  0  0
   -0.3526    7.6354  -19.3410 S   0  0  0  0  0  0  0  0  0  0  0  0
  1  2  3  0
  2  3  1  0
  3  4  2  0
  4  5  1  0
  5  6  1  0
  6  7  2  0
  6  8  1  0
  8  9  1  0
  9 10  1  0
 10 11  1  0
  4 12  1  0
 12 13  2  0
 13 14  1  0
 14 15  1  0
 15 16  1  0
 16 17  1  0
 14  3  1  0
 17 13  1  0
M  END
>  <energy_score>  (3155) 
-34.203799

>  <alias>  (3155) 
None

>  <HIPPO Pose ID>  (3155) 
76508

>  <smiles>  (3155) 
N#Cc1c(NC(=O)CCCI)nc2n1CCS2

>  <inchikey>  (3155) 
RITWFVHWPVEAJK-UHFFFAOYSA-N

>  <distance_score>  (3155) 
1.256955

>  <ref_mols>  (3155) 
Z0719a,Z1597a

>  <ref_pdb>  (3155) 
Z0719a

>  <HIPPO Compound ID>  (3155) 
152203

>  <name>  (3155) 
P76508

>  <inspiration_score>  (3155) 
None

$$$$
P76509
     RDKit          3D

 17 18  0  0  0  0  0  0  0  0999 V2000
   -3.7967    3.5988  -14.8449 N   0  0  0  0  0  0  0  0  0  0  0  0
   -4.6273    4.0714  -15.4989 C   0  0  0  0  0  0  0  0  0  0  0  0
   -5.8153    4.5459  -16.0875 C   0  0  0  0  0  0  0  0  0  0  0  0
   -6.0675    5.3549  -17.1683 C   0  0  0  0  0  0  0  0  0  0  0  0
   -5.2509    5.9639  -18.0660 N   0  0  0  0  0  0  0  0  0  0  0  0
   -3.7126    5.8598  -18.2639 C   0  0  0  0  0  0  0  0  0  0  0  0
   -2.9254    5.1760  -17.7351 O   0  0  0  0  0  0  0  0  0  0  0  0
   -3.3006    6.9422  -19.2645 C   0  0  0  0  0  0  0  0  0  0  0  0
   -3.9689    6.8729  -20.6266 C   0  0  0  0  0  0  0  0  0  0  0  0
   -3.0682    6.3590  -21.6122 O   0  0  0  0  0  0  0  0  0  0  0  0
   -7.4030    5.6429  -17.2515 N   0  0  0  0  0  0  0  0  0  0  0  0
   -7.9626    4.9720  -16.2706 C   0  0  0  0  0  0  0  0  0  0  0  0
   -7.0329    4.3359  -15.5175 N   0  0  0  0  0  0  0  0  0  0  0  0
   -7.3899    3.7885  -14.2197 C   0  0  0  0  0  0  0  0  0  0  0  0
   -8.4213    4.6988  -13.5621 C   0  0  0  0  0  0  0  0  0  0  0  0
   -9.4279    5.2496  -14.4270 O   0  0  0  0  0  0  0  0  0  0  0  0
   -9.3522    4.8852  -15.8229 C   0  0  0  0  0  0  0  0  0  0  0  0
  1  2  3  0
  2  3  1  0
  3  4  2  0
  4  5  1  0
  5  6  1  0
  6  7  2  0
  6  8  1  0
  8  9  1  0
  9 10  1  0
  4 11  1  0
 11 12  2  0
 12 13  1  0
 13 14  1  0
 14 15  1  0
 15 16  1  0
 16 17  1  0
 13  3  1  0
 17 12  1  0
M  END
>  <energy_score>  (3156) 
-14.787137

>  <alias>  (3156) 
None

>  <HIPPO Pose ID>  (3156) 
76509

>  <smiles>  (3156) 
N#Cc1c(NC(=O)CCO)nc2n1CCOC2

>  <inchikey>  (3156) 
BFOYOLHIHLHFOO-UHFFFAOYSA-N

>  <distance_score>  (3156) 
1.906515

>  <ref_mols>  (3156) 
Z0719a,Z1597a

>  <ref_pdb>  (3156) 
Z0719a

>  <HIPPO Compound ID>  (3156) 
152207

>  <name>  (3156) 
P76509

>  <inspiration_score>  (3156) 
None

$$$$
P76512
     RDKit          3D

 17 18  0  0  0  0  0  0  0  0999 V2000
   -5.8707   10.7730  -22.3613 C   0  0  0  0  0  0  0  0  0  0  0  0
   -5.1685    9.7348  -22.0258 C   0  0  0  0  0  0  0  0  0  0  0  0
   -4.4470    8.7023  -21.6983 C   0  0  0  0  0  0  0  0  0  0  0  0
   -4.8369    7.2835  -21.9272 C   0  0  0  0  0  0  0  0  0  0  0  0
   -4.5537    6.5417  -20.6246 C   0  0  0  0  0  0  0  0  0  0  0  0
   -3.4651    6.4064  -20.2103 O   0  0  0  0  0  0  0  0  0  0  0  0
   -5.9268    6.1545  -20.0001 N   0  0  0  0  0  0  0  0  0  0  0  0
   -6.2146    5.4861  -18.8665 C   0  0  0  0  0  0  0  0  0  0  0  0
   -7.4722    5.1413  -18.4344 C   0  0  0  0  0  0  0  0  0  0  0  0
   -7.2907    4.7694  -17.1393 N   0  0  0  0  0  0  0  0  0  0  0  0
   -8.2696    4.6874  -16.2064 N   0  0  0  0  0  0  0  0  0  0  0  0
   -7.7816    4.5321  -15.0197 C   0  0  0  0  0  0  0  0  0  0  0  0
   -8.8635    4.7417  -13.7181 Cl  0  0  0  0  0  0  0  0  0  0  0  0
   -6.3628    4.2951  -14.6678 C   0  0  0  0  0  0  0  0  0  0  0  0
   -5.4621    4.4381  -15.6369 C   0  0  0  0  0  0  0  0  0  0  0  0
   -5.9205    4.7666  -16.9209 C   0  0  0  0  0  0  0  0  0  0  0  0
   -5.2496    5.1765  -17.9663 N   0  0  0  0  0  0  0  0  0  0  0  0
  1  2  2  0
  2  3  2  0
  3  4  1  0
  4  5  1  0
  5  6  2  0
  5  7  1  0
  7  8  1  0
  8  9  2  0
  9 10  1  0
 10 11  1  0
 11 12  2  0
 12 13  1  0
 12 14  1  0
 14 15  2  0
 15 16  1  0
 16 17  2  0
 17  8  1  0
 16 10  1  0
M  END
>  <energy_score>  (3157) 
-13.222771

>  <alias>  (3157) 
None

>  <HIPPO Pose ID>  (3157) 
76512

>  <smiles>  (3157) 
C=C=CCC(=O)Nc1cn2nc(Cl)ccc2n1

>  <inchikey>  (3157) 
JWGAMBHIAXUNEL-UHFFFAOYSA-N

>  <distance_score>  (3157) 
1.9896

>  <ref_mols>  (3157) 
Z0719a,Z1597a

>  <ref_pdb>  (3157) 
Z0719a

>  <HIPPO Compound ID>  (3157) 
152219

>  <name>  (3157) 
P76512

>  <inspiration_score>  (3157) 
None

$$$$
P76513
     RDKit          3D

 17 18  0  0  0  0  0  0  0  0999 V2000
   -1.1576    6.7362  -21.0730 C   0  0  0  0  0  0  0  0  0  0  0  0
   -2.4130    6.7654  -20.7465 C   0  0  0  0  0  0  0  0  0  0  0  0
   -3.6727    6.8126  -20.4214 C   0  0  0  0  0  0  0  0  0  0  0  0
   -4.1734    6.9415  -19.0068 C   0  0  0  0  0  0  0  0  0  0  0  0
   -5.7065    6.8520  -18.9795 C   0  0  0  0  0  0  0  0  0  0  0  0
   -6.3806    7.5169  -19.6686 O   0  0  0  0  0  0  0  0  0  0  0  0
   -6.0924    5.7269  -17.9710 N   0  0  0  0  0  0  0  0  0  0  0  0
   -7.3013    5.1638  -17.6952 C   0  0  0  0  0  0  0  0  0  0  0  0
   -8.3605    5.2465  -18.5514 N   0  0  0  0  0  0  0  0  0  0  0  0
   -9.4040    4.5589  -17.9949 C   0  0  0  0  0  0  0  0  0  0  0  0
   -9.0770    4.0267  -16.8434 N   0  0  0  0  0  0  0  0  0  0  0  0
   -7.7717    4.4171  -16.6345 C   0  0  0  0  0  0  0  0  0  0  0  0
   -7.0757    4.0982  -15.3913 C   0  0  0  0  0  0  0  0  0  0  0  0
   -5.7123    4.2390  -15.2972 N   0  0  0  0  0  0  0  0  0  0  0  0
   -5.3718    3.8241  -14.0839 N   0  0  0  0  0  0  0  0  0  0  0  0
   -6.5357    3.4854  -13.5077 N   0  0  0  0  0  0  0  0  0  0  0  0
   -7.6303    3.6887  -14.2422 N   0  0  0  0  0  0  0  0  0  0  0  0
  1  2  2  0
  2  3  2  0
  3  4  1  0
  4  5  1  0
  5  6  2  0
  5  7  1  0
  7  8  1  0
  8  9  1  0
  9 10  1  0
 10 11  2  0
 11 12  1  0
 12 13  1  0
 13 14  1  0
 14 15  2  0
 15 16  1  0
 16 17  1  0
 12  8  2  0
 17 13  2  0
M  END
>  <energy_score>  (3158) 
-0.654188

>  <alias>  (3158) 
None

>  <HIPPO Pose ID>  (3158) 
76513

>  <smiles>  (3158) 
C=C=CCC(=O)Nc1[nH]cnc1-c1nn[nH]n1

>  <inchikey>  (3158) 
GGEFZYLVZMJFQW-UHFFFAOYSA-N

>  <distance_score>  (3158) 
1.733703

>  <ref_mols>  (3158) 
Z0719a,Z1597a

>  <ref_pdb>  (3158) 
Z0719a

>  <HIPPO Compound ID>  (3158) 
152221

>  <name>  (3158) 
P76513

>  <inspiration_score>  (3158) 
None

$$$$
P76515
     RDKit          3D

 17 17  0  0  0  0  0  0  0  0999 V2000
   -5.6981    7.9888  -23.0954 C   0  0  0  0  0  0  0  0  0  0  0  0
   -5.2889    7.8638  -21.8707 C   0  0  0  0  0  0  0  0  0  0  0  0
   -4.8698    7.6984  -20.6500 C   0  0  0  0  0  0  0  0  0  0  0  0
   -3.7948    6.7446  -20.2618 C   0  0  0  0  0  0  0  0  0  0  0  0
   -3.8409    6.2230  -18.8271 C   0  0  0  0  0  0  0  0  0  0  0  0
   -2.8689    6.2231  -18.1723 O   0  0  0  0  0  0  0  0  0  0  0  0
   -5.2614    5.6619  -18.5242 N   0  0  0  0  0  0  0  0  0  0  0  0
   -5.7658    5.1103  -17.3959 C   0  0  0  0  0  0  0  0  0  0  0  0
   -5.0102    4.6933  -16.3400 C   0  0  0  0  0  0  0  0  0  0  0  0
   -5.8877    4.1705  -15.4311 N   0  0  0  0  0  0  0  0  0  0  0  0
   -5.4366    3.6305  -14.1582 C   0  0  0  0  0  0  0  0  0  0  0  0
   -6.4569    2.9297  -13.3093 C   0  0  0  0  0  0  0  0  0  0  0  0
   -7.5808    3.6603  -13.2277 F   0  0  0  0  0  0  0  0  0  0  0  0
   -6.7610    1.6968  -13.7557 F   0  0  0  0  0  0  0  0  0  0  0  0
   -5.9740    2.7874  -12.0509 F   0  0  0  0  0  0  0  0  0  0  0  0
   -7.1392    4.3217  -15.9673 C   0  0  0  0  0  0  0  0  0  0  0  0
   -7.0861    4.8994  -17.1564 N   0  0  0  0  0  0  0  0  0  0  0  0
  1  2  2  0
  2  3  2  0
  3  4  1  0
  4  5  1  0
  5  6  2  0
  5  7  1  0
  7  8  1  0
  8  9  2  0
  9 10  1  0
 10 11  1  0
 11 12  1  0
 12 13  1  0
 12 14  1  0
 12 15  1  0
 10 16  1  0
 16 17  2  0
 17  8  1  0
M  END
>  <energy_score>  (3159) 
-23.224884

>  <alias>  (3159) 
None

>  <HIPPO Pose ID>  (3159) 
76515

>  <smiles>  (3159) 
C=C=CCC(=O)Nc1cn(CC(F)(F)F)cn1

>  <inchikey>  (3159) 
GDUDKRHMQMEHTF-UHFFFAOYSA-N

>  <distance_score>  (3159) 
1.826359

>  <ref_mols>  (3159) 
Z0719a,Z1597a

>  <ref_pdb>  (3159) 
Z0719a

>  <HIPPO Compound ID>  (3159) 
152225

>  <name>  (3159) 
P76515

>  <inspiration_score>  (3159) 
None

$$$$
P76519
     RDKit          3D

 17 18  0  0  0  0  0  0  0  0999 V2000
   -5.3448    7.5882  -15.7258 C   0  0  0  0  0  0  0  0  0  0  0  0
   -5.1499    6.8331  -17.0346 C   0  0  1  0  0  0  0  0  0  0  0  0
   -3.3978    6.6450  -17.3641 Cl  0  0  0  0  0  0  0  0  0  0  0  0
   -5.8588    5.4835  -17.1001 C   0  0  0  0  0  0  0  0  0  0  0  0
   -5.8591    4.6877  -15.8026 C   0  0  0  0  0  0  0  0  0  0  0  0
   -6.8520    4.4210  -15.2512 O   0  0  0  0  0  0  0  0  0  0  0  0
   -4.3943    4.3032  -15.4751 N   0  0  0  0  0  0  0  0  0  0  0  0
   -3.8747    3.6325  -14.4145 C   0  0  0  0  0  0  0  0  0  0  0  0
   -2.5036    3.6308  -14.2574 N   0  0  0  0  0  0  0  0  0  0  0  0
   -2.3205    2.9279  -13.1754 C   0  0  0  0  0  0  0  0  0  0  0  0
   -3.4790    2.4777  -12.6412 N   0  0  0  0  0  0  0  0  0  0  0  0
   -4.5022    2.8747  -13.4408 C   0  0  0  0  0  0  0  0  0  0  0  0
   -5.8370    2.4273  -13.2989 C   0  0  0  0  0  0  0  0  0  0  0  0
   -6.8572    1.9018  -13.1385 N   0  0  0  0  0  0  0  0  0  0  0  0
   -3.3904    1.6172  -11.4809 C   0  0  0  0  0  0  0  0  0  0  0  0
   -1.9733    1.7805  -10.9220 C   0  0  0  0  0  0  0  0  0  0  0  0
   -0.9331    2.4148  -12.3068 S   0  0  0  0  0  0  0  0  0  0  0  0
  2  1  1  1
  2  3  1  0
  2  4  1  0
  4  5  1  0
  5  6  2  0
  5  7  1  0
  7  8  1  0
  8  9  1  0
  9 10  2  0
 10 11  1  0
 11 12  1  0
 12 13  1  0
 13 14  3  0
 11 15  1  0
 15 16  1  0
 16 17  1  0
 12  8  2  0
 17 10  1  0
M  END
>  <energy_score>  (3160) 
-41.274075

>  <alias>  (3160) 
None

>  <HIPPO Pose ID>  (3160) 
76519

>  <smiles>  (3160) 
C[C@@H](Cl)CC(=O)Nc1nc2n(c1C#N)CCS2

>  <inchikey>  (3160) 
SQJGSKCICNBOOL-ZCFIWIBFSA-N

>  <distance_score>  (3160) 
1.228258

>  <ref_mols>  (3160) 
Z0719a,Z1597a

>  <ref_pdb>  (3160) 
Z0719a

>  <HIPPO Compound ID>  (3160) 
152241

>  <name>  (3160) 
P76519

>  <inspiration_score>  (3160) 
None

$$$$
P76520
     RDKit          3D

 17 17  0  0  0  0  0  0  0  0999 V2000
   -3.8240    7.7047  -18.8956 C   0  0  0  0  0  0  0  0  0  0  0  0
   -3.8016    6.3343  -19.5626 C   0  0  1  0  0  0  0  0  0  0  0  0
   -2.6606    6.3978  -20.9534 Cl  0  0  0  0  0  0  0  0  0  0  0  0
   -3.3357    5.2187  -18.6197 C   0  0  0  0  0  0  0  0  0  0  0  0
   -4.0808    5.1363  -17.2890 C   0  0  0  0  0  0  0  0  0  0  0  0
   -3.5559    5.3437  -16.2666 O   0  0  0  0  0  0  0  0  0  0  0  0
   -5.5522    4.7774  -17.6063 N   0  0  0  0  0  0  0  0  0  0  0  0
   -6.5947    4.5224  -16.7781 C   0  0  0  0  0  0  0  0  0  0  0  0
   -7.8231    4.6855  -17.3577 N   0  0  0  0  0  0  0  0  0  0  0  0
   -8.6888    4.5520  -16.3871 C   0  0  0  0  0  0  0  0  0  0  0  0
   -8.0472    4.3576  -15.2067 N   0  0  0  0  0  0  0  0  0  0  0  0
   -8.6298    4.5411  -13.9013 C   0  0  0  0  0  0  0  0  0  0  0  0
   -6.7033    4.1321  -15.4551 C   0  0  0  0  0  0  0  0  0  0  0  0
   -5.6842    3.4553  -14.1920 S   0  0  0  0  0  0  0  0  0  0  0  0
   -5.4450    4.7006  -13.1085 N   0  0  0  0  0  0  0  0  0  0  0  0
   -4.3757    3.1480  -14.7087 O   0  0  0  0  0  0  0  0  0  0  0  0
   -6.4688    2.4497  -13.5116 O   0  0  0  0  0  0  0  0  0  0  0  0
  2  1  1  1
  2  3  1  0
  2  4  1  0
  4  5  1  0
  5  6  2  0
  5  7  1  0
  7  8  1  0
  8  9  1  0
  9 10  2  0
 10 11  1  0
 11 12  1  0
 11 13  1  0
 13 14  1  0
 14 15  1  0
 14 16  2  0
 14 17  2  0
 13  8  2  0
M  END
>  <energy_score>  (3161) 
-21.910963

>  <alias>  (3161) 
None

>  <HIPPO Pose ID>  (3161) 
76520

>  <smiles>  (3161) 
C[C@@H](Cl)CC(=O)Nc1ncn(C)c1S(N)(=O)=O

>  <inchikey>  (3161) 
FXEUDUFTECBKMT-RXMQYKEDSA-N

>  <distance_score>  (3161) 
1.842971

>  <ref_mols>  (3161) 
Z0719a,Z1597a

>  <ref_pdb>  (3161) 
Z0719a

>  <HIPPO Compound ID>  (3161) 
152244

>  <name>  (3161) 
P76520

>  <inspiration_score>  (3161) 
None

$$$$
P76521
     RDKit          3D

 17 17  0  0  0  0  0  0  0  0999 V2000
   -7.2471    3.4548  -13.4192 C   0  0  0  0  0  0  0  0  0  0  0  0
   -6.5354    4.7866  -13.5715 C   0  0  0  0  0  0  0  0  0  0  0  0
   -6.1990    5.1807  -15.0156 C   0  0  0  0  0  0  0  0  0  0  0  0
   -7.2557    5.1930  -15.9903 N   0  0  0  0  0  0  0  0  0  0  0  0
   -8.5933    5.3792  -15.7303 C   0  0  0  0  0  0  0  0  0  0  0  0
   -9.1275    6.1257  -14.5664 C   0  0  0  0  0  0  0  0  0  0  0  0
   -9.3135    4.8508  -16.6916 N   0  0  0  0  0  0  0  0  0  0  0  0
   -8.4335    4.5908  -17.7005 C   0  0  0  0  0  0  0  0  0  0  0  0
   -8.9457    4.1102  -18.9805 C   0  0  0  0  0  0  0  0  0  0  0  0
   -7.1466    4.9114  -17.3296 C   0  0  0  0  0  0  0  0  0  0  0  0
   -6.0419    4.9388  -18.1341 N   0  0  0  0  0  0  0  0  0  0  0  0
   -4.6291    5.5388  -17.8885 C   0  0  0  0  0  0  0  0  0  0  0  0
   -4.1712    6.0323  -16.9323 O   0  0  0  0  0  0  0  0  0  0  0  0
   -3.8607    5.4265  -19.1946 C   0  0  0  0  0  0  0  0  0  0  0  0
   -3.7745    6.7843  -19.8880 C   0  0  2  0  0  0  0  0  0  0  0  0
   -5.1114    7.3501  -20.3500 C   0  0  0  0  0  0  0  0  0  0  0  0
   -2.6534    6.6518  -21.2837 Cl  0  0  0  0  0  0  0  0  0  0  0  0
  1  2  1  0
  2  3  1  0
  3  4  1  0
  4  5  1  0
  5  6  1  0
  5  7  2  0
  7  8  1  0
  8  9  1  0
  8 10  2  0
 10 11  1  0
 11 12  1  0
 12 13  2  0
 12 14  1  0
 14 15  1  0
 15 16  1  6
 15 17  1  0
 10  4  1  0
M  END
>  <energy_score>  (3162) 
-4.510582

>  <alias>  (3162) 
None

>  <HIPPO Pose ID>  (3162) 
76521

>  <smiles>  (3162) 
CCCn1c(C)nc(C)c1NC(=O)C[C@H](C)Cl

>  <inchikey>  (3162) 
PPNSUPNMGKGQHA-QMMMGPOBSA-N

>  <distance_score>  (3162) 
1.384663

>  <ref_mols>  (3162) 
Z0719a,Z1597a

>  <ref_pdb>  (3162) 
Z0719a

>  <HIPPO Compound ID>  (3162) 
152247

>  <name>  (3162) 
P76521

>  <inspiration_score>  (3162) 
None

$$$$
P76524
     RDKit          3D

 17 18  0  0  0  0  0  0  0  0999 V2000
   -8.7229    4.1909  -19.0026 C   0  0  0  0  0  0  0  0  0  0  0  0
   -8.1685    4.4459  -17.6710 C   0  0  0  0  0  0  0  0  0  0  0  0
   -9.0037    4.2955  -16.6027 N   0  0  0  0  0  0  0  0  0  0  0  0
   -8.2455    4.5749  -15.5778 C   0  0  0  0  0  0  0  0  0  0  0  0
   -8.6390    4.6065  -14.2051 C   0  0  0  0  0  0  0  0  0  0  0  0
   -7.8266    4.9442  -13.2432 N   0  0  0  0  0  0  0  0  0  0  0  0
   -6.5256    5.1984  -13.6037 C   0  0  0  0  0  0  0  0  0  0  0  0
   -6.0752    5.1831  -14.8695 C   0  0  0  0  0  0  0  0  0  0  0  0
   -6.9493    4.8933  -15.9089 N   0  0  0  0  0  0  0  0  0  0  0  0
   -6.8839    4.8230  -17.2923 C   0  0  0  0  0  0  0  0  0  0  0  0
   -5.8356    5.0362  -18.1576 N   0  0  0  0  0  0  0  0  0  0  0  0
   -4.3943    5.5455  -17.8887 C   0  0  0  0  0  0  0  0  0  0  0  0
   -3.8527    5.7885  -16.8825 O   0  0  0  0  0  0  0  0  0  0  0  0
   -3.6808    5.6460  -19.2295 C   0  0  0  0  0  0  0  0  0  0  0  0
   -4.1644    6.7984  -20.1068 C   0  0  1  0  0  0  0  0  0  0  0  0
   -4.1639    8.1429  -19.3869 C   0  0  0  0  0  0  0  0  0  0  0  0
   -3.0658    6.9199  -21.5267 Cl  0  0  0  0  0  0  0  0  0  0  0  0
  1  2  1  0
  2  3  1  0
  3  4  2  0
  4  5  1  0
  5  6  2  0
  6  7  1  0
  7  8  2  0
  8  9  1  0
  9 10  1  0
 10 11  1  0
 11 12  1  0
 12 13  2  0
 12 14  1  0
 14 15  1  0
 15 16  1  1
 15 17  1  0
 10  2  2  0
  9  4  1  0
M  END
>  <energy_score>  (3163) 
-28.513761

>  <alias>  (3163) 
None

>  <HIPPO Pose ID>  (3163) 
76524

>  <smiles>  (3163) 
Cc1nc2cnccn2c1NC(=O)C[C@@H](C)Cl

>  <inchikey>  (3163) 
IRMCTACEOZNDQF-SSDOTTSWSA-N

>  <distance_score>  (3163) 
1.616275

>  <ref_mols>  (3163) 
Z0719a,Z1597a

>  <ref_pdb>  (3163) 
Z0719a

>  <HIPPO Compound ID>  (3163) 
152252

>  <name>  (3163) 
P76524

>  <inspiration_score>  (3163) 
None

$$$$
P76526
     RDKit          3D

 17 18  0  0  0  0  0  0  0  0999 V2000
   -5.7464    7.9052  -22.8642 C   0  0  0  0  0  0  0  0  0  0  0  0
   -4.9110    8.1627  -21.8473 C   0  0  0  0  0  0  0  0  0  0  0  0
   -5.1268    9.6948  -20.7917 Br  0  0  0  0  0  0  0  0  0  0  0  0
   -3.7221    7.3190  -21.5314 C   0  0  0  0  0  0  0  0  0  0  0  0
   -3.7379    6.6807  -20.1411 C   0  0  0  0  0  0  0  0  0  0  0  0
   -2.8109    6.7767  -19.4319 O   0  0  0  0  0  0  0  0  0  0  0  0
   -5.1059    5.9715  -19.9222 N   0  0  0  0  0  0  0  0  0  0  0  0
   -5.6123    5.3610  -18.8284 C   0  0  0  0  0  0  0  0  0  0  0  0
   -6.9214    4.9997  -18.6130 C   0  0  0  0  0  0  0  0  0  0  0  0
   -6.9822    4.7274  -17.2780 N   0  0  0  0  0  0  0  0  0  0  0  0
   -8.1111    4.6939  -16.5253 N   0  0  0  0  0  0  0  0  0  0  0  0
   -7.8367    4.6037  -15.2648 C   0  0  0  0  0  0  0  0  0  0  0  0
   -9.1151    4.8982  -14.1774 Cl  0  0  0  0  0  0  0  0  0  0  0  0
   -6.5049    4.3744  -14.6613 C   0  0  0  0  0  0  0  0  0  0  0  0
   -5.4479    4.4759  -15.4632 C   0  0  0  0  0  0  0  0  0  0  0  0
   -5.6731    4.7516  -16.8197 C   0  0  0  0  0  0  0  0  0  0  0  0
   -4.8286    5.1231  -17.7474 N   0  0  0  0  0  0  0  0  0  0  0  0
  1  2  2  0
  2  3  1  0
  2  4  1  0
  4  5  1  0
  5  6  2  0
  5  7  1  0
  7  8  1  0
  8  9  2  0
  9 10  1  0
 10 11  1  0
 11 12  2  0
 12 13  1  0
 12 14  1  0
 14 15  2  0
 15 16  1  0
 16 17  2  0
 17  8  1  0
 16 10  1  0
M  END
>  <energy_score>  (3164) 
-3.6166

>  <alias>  (3164) 
None

>  <HIPPO Pose ID>  (3164) 
76526

>  <smiles>  (3164) 
C=C(Br)CC(=O)Nc1cn2nc(Cl)ccc2n1

>  <inchikey>  (3164) 
IEFANJTYXXPOFU-UHFFFAOYSA-N

>  <distance_score>  (3164) 
1.973354

>  <ref_mols>  (3164) 
Z0719a,Z1597a

>  <ref_pdb>  (3164) 
Z0719a

>  <HIPPO Compound ID>  (3164) 
152253

>  <name>  (3164) 
P76526

>  <inspiration_score>  (3164) 
None

$$$$
P76528
     RDKit          3D

 17 18  0  0  0  0  0  0  0  0999 V2000
   -5.0479    7.3334  -20.7836 C   0  0  0  0  0  0  0  0  0  0  0  0
   -3.9736    6.9977  -20.0563 C   0  0  0  0  0  0  0  0  0  0  0  0
   -2.5096    8.1616  -19.9353 Br  0  0  0  0  0  0  0  0  0  0  0  0
   -3.8178    5.7001  -19.3159 C   0  0  0  0  0  0  0  0  0  0  0  0
   -4.5236    5.7335  -17.9556 C   0  0  0  0  0  0  0  0  0  0  0  0
   -4.0223    6.1522  -16.9852 O   0  0  0  0  0  0  0  0  0  0  0  0
   -5.9085    5.0511  -18.1622 N   0  0  0  0  0  0  0  0  0  0  0  0
   -6.9402    4.8432  -17.2804 C   0  0  0  0  0  0  0  0  0  0  0  0
   -8.2265    4.4535  -17.6343 C   0  0  0  0  0  0  0  0  0  0  0  0
   -8.7985    4.1943  -18.9583 C   0  0  0  0  0  0  0  0  0  0  0  0
   -9.0382    4.3000  -16.5481 N   0  0  0  0  0  0  0  0  0  0  0  0
   -8.2598    4.5867  -15.5393 C   0  0  0  0  0  0  0  0  0  0  0  0
   -8.6162    4.6077  -14.1563 C   0  0  0  0  0  0  0  0  0  0  0  0
   -7.7768    4.9374  -13.2146 N   0  0  0  0  0  0  0  0  0  0  0  0
   -6.4851    5.1952  -13.6078 C   0  0  0  0  0  0  0  0  0  0  0  0
   -6.0686    5.1902  -14.8852 C   0  0  0  0  0  0  0  0  0  0  0  0
   -6.9738    4.9127  -15.8995 N   0  0  0  0  0  0  0  0  0  0  0  0
  1  2  2  0
  2  3  1  0
  2  4  1  0
  4  5  1  0
  5  6  2  0
  5  7  1  0
  7  8  1  0
  8  9  2  0
  9 10  1  0
  9 11  1  0
 11 12  2  0
 12 13  1  0
 13 14  2  0
 14 15  1  0
 15 16  2  0
 16 17  1  0
 17  8  1  0
 17 12  1  0
M  END
>  <energy_score>  (3165) 
-20.680294

>  <alias>  (3165) 
None

>  <HIPPO Pose ID>  (3165) 
76528

>  <smiles>  (3165) 
C=C(Br)CC(=O)Nc1c(C)nc2cnccn12

>  <inchikey>  (3165) 
XTTYMTULGOPBMJ-UHFFFAOYSA-N

>  <distance_score>  (3165) 
1.617051

>  <ref_mols>  (3165) 
Z0719a,Z1597a

>  <ref_pdb>  (3165) 
Z0719a

>  <HIPPO Compound ID>  (3165) 
152256

>  <name>  (3165) 
P76528

>  <inspiration_score>  (3165) 
None

$$$$
RGHZSASRGFOXQA-UHFFFAOYSA-N-P337-P126-P337-601526
     RDKit          3D

 23 26  0  0  0  0  0  0  0  0999 V2000
   -8.7651    5.1674   -6.7598 O   0  0  0  0  0  0  0  0  0  0  0  0
   -8.8035    4.3223   -7.6318 C   0  0  0  0  0  0  0  0  0  0  0  0
   -9.0254    2.9716   -7.4851 N   0  0  0  0  0  0  0  0  0  0  0  0
   -8.9138    2.2459   -8.7275 C   0  0  0  0  0  0  0  0  0  0  0  0
   -8.7089    3.3390   -9.7218 C   0  0  0  0  0  0  0  0  0  0  0  0
   -8.5951    3.2843  -11.1028 C   0  0  0  0  0  0  0  0  0  0  0  0
   -8.3653    4.4606  -11.8208 C   0  0  0  0  0  0  0  0  0  0  0  0
   -8.2519    4.4037  -13.2119 N   0  0  0  0  0  0  0  0  0  0  0  0
   -7.8537    5.4990  -14.2358 C   0  0  0  0  0  0  0  0  0  0  0  0
   -7.4850    6.5953  -14.0671 O   0  0  0  0  0  0  0  0  0  0  0  0
   -7.9940    5.0318  -15.6334 C   0  0  0  0  0  0  0  0  0  0  0  0
   -9.2164    4.5171  -16.0929 C   0  0  0  0  0  0  0  0  0  0  0  0
   -9.4081    4.2648  -17.4497 C   0  0  0  0  0  0  0  0  0  0  0  0
  -10.5995    3.8224  -17.8712 F   0  0  0  0  0  0  0  0  0  0  0  0
   -8.4091    4.4830  -18.3927 C   0  0  0  0  0  0  0  0  0  0  0  0
   -7.1990    4.9728  -17.9052 C   0  0  0  0  0  0  0  0  0  0  0  0
   -6.0303    5.3143  -18.5225 N   0  0  0  0  0  0  0  0  0  0  0  0
   -5.1153    5.7551  -17.6397 N   0  0  0  0  0  0  0  0  0  0  0  0
   -5.6775    5.7302  -16.4347 N   0  0  0  0  0  0  0  0  0  0  0  0
   -6.9599    5.2538  -16.5634 C   0  0  0  0  0  0  0  0  0  0  0  0
   -8.2536    5.6756  -11.1317 C   0  0  0  0  0  0  0  0  0  0  0  0
   -8.3901    5.7362   -9.7392 C   0  0  0  0  0  0  0  0  0  0  0  0
   -8.6189    4.5592   -9.0659 C   0  0  0  0  0  0  0  0  0  0  0  0
  1  2  2  0
  2  3  1  0
  3  4  1  0
  4  5  1  0
  5  6  2  0
  6  7  1  0
  7  8  1  0
  8  9  1  0
  9 10  2  0
  9 11  1  0
 11 12  2  0
 12 13  1  0
 13 14  1  0
 13 15  2  0
 15 16  1  0
 16 17  1  0
 17 18  1  0
 18 19  2  0
 19 20  1  0
  7 21  2  0
 21 22  1  0
 22 23  2  0
 23  2  1  0
 23  5  1  0
 20 11  1  0
 20 16  2  0
M  END
>  <energy_score>  (3166) 
-15.866481

>  <alias>  (3166) 
RGHZSASRGFOXQA-UHFFFAOYSA-N-P337-P126-P337-601526

>  <HIPPO Pose ID>  (3166) 
76530

>  <smiles>  (3166) 
O=C1NCc2cc(NC(=O)c3cc(F)cc4[nH]nnc34)ccc21

>  <inchikey>  (3166) 
RGHZSASRGFOXQA-UHFFFAOYSA-N

>  <distance_score>  (3166) 
1.366365

>  <ref_mols>  (3166) 
Z5348a,Z3093a

>  <ref_pdb>  (3166) 
Z3093a

>  <HIPPO Compound ID>  (3166) 
139365

>  <name>  (3166) 
RGHZSASRGFOXQA-UHFFFAOYSA-N-P337-P126-P337-601526

>  <inspiration_score>  (3166) 
None

$$$$
GDZAABKVXBSQEZ-UHFFFAOYSA-N-P288-P178-P288-601526
     RDKit          3D

 28 32  0  0  0  0  0  0  0  0999 V2000
   -9.8744    2.2277   -6.0026 C   0  0  0  0  0  0  0  0  0  0  0  0
   -8.8477    2.6754   -6.9205 N   0  0  0  0  0  0  0  0  0  0  0  0
   -8.7666    4.1363   -7.0512 C   0  0  0  0  0  0  0  0  0  0  0  0
   -8.5780    4.4015   -8.5072 C   0  0  0  0  0  0  0  0  0  0  0  0
   -8.3281    5.6012   -9.1441 C   0  0  0  0  0  0  0  0  0  0  0  0
   -8.2552    5.6036  -10.5377 C   0  0  0  0  0  0  0  0  0  0  0  0
   -8.4377    4.4213  -11.2734 C   0  0  0  0  0  0  0  0  0  0  0  0
   -8.3876    4.4472  -12.6650 N   0  0  0  0  0  0  0  0  0  0  0  0
   -8.1314    5.6186  -13.6376 C   0  0  0  0  0  0  0  0  0  0  0  0
   -7.9985    6.7599  -13.4297 O   0  0  0  0  0  0  0  0  0  0  0  0
   -8.0071    5.1612  -15.0370 C   0  0  0  0  0  0  0  0  0  0  0  0
   -9.0587    4.4991  -15.6886 C   0  0  0  0  0  0  0  0  0  0  0  0
   -8.9743    4.2057  -17.0482 C   0  0  0  0  0  0  0  0  0  0  0  0
   -7.8126    4.5652  -17.6933 C   0  0  0  0  0  0  0  0  0  0  0  0
   -6.7528    5.2175  -17.0619 C   0  0  0  0  0  0  0  0  0  0  0  0
   -6.8445    5.5284  -15.7219 C   0  0  0  0  0  0  0  0  0  0  0  0
   -5.6469    5.4711  -18.0628 C   0  0  0  0  0  0  0  0  0  0  0  0
   -4.2833    4.9486  -17.6055 C   0  0  0  0  0  0  0  0  0  0  0  0
   -3.5433    5.9243  -16.7045 C   0  0  0  0  0  0  0  0  0  0  0  0
   -3.4677    7.2163  -17.2970 O   0  0  0  0  0  0  0  0  0  0  0  0
   -4.7553    7.7861  -17.5047 C   0  0  0  0  0  0  0  0  0  0  0  0
   -5.5596    6.9478  -18.4845 C   0  0  0  0  0  0  0  0  0  0  0  0
   -6.1844    4.6807  -19.2813 C   0  0  0  0  0  0  0  0  0  0  0  0
   -5.5772    4.4201  -20.3026 O   0  0  0  0  0  0  0  0  0  0  0  0
   -7.4892    4.3141  -19.0066 N   0  0  0  0  0  0  0  0  0  0  0  0
   -8.6719    3.2125  -10.6142 C   0  0  0  0  0  0  0  0  0  0  0  0
   -8.7368    3.2217   -9.2278 C   0  0  0  0  0  0  0  0  0  0  0  0
   -9.0019    2.0952   -8.2793 C   0  0  0  0  0  0  0  0  0  0  0  0
  1  2  1  0
  2  3  1  0
  3  4  1  0
  4  5  2  0
  5  6  1  0
  6  7  2  0
  7  8  1  0
  8  9  1  0
  9 10  2  0
  9 11  1  0
 11 12  2  0
 12 13  1  0
 13 14  2  0
 14 15  1  0
 15 16  2  0
 15 17  1  0
 17 18  1  0
 18 19  1  0
 19 20  1  0
 20 21  1  0
 21 22  1  0
 17 23  1  0
 23 24  2  0
 23 25  1  0
  7 26  1  0
 26 27  2  0
 27 28  1  0
 28  2  1  0
 27  4  1  0
 16 11  1  0
 22 17  1  0
 25 14  1  0
M  END
>  <energy_score>  (3167) 
-45.794142

>  <alias>  (3167) 
GDZAABKVXBSQEZ-UHFFFAOYSA-N-P288-P178-P288-601526

>  <HIPPO Pose ID>  (3167) 
76538

>  <smiles>  (3167) 
CN1Cc2ccc(NC(=O)c3ccc4c(c3)C3(CCOCC3)C(=O)N4)cc2C1

>  <inchikey>  (3167) 
GDZAABKVXBSQEZ-UHFFFAOYSA-N

>  <distance_score>  (3167) 
0.786998

>  <ref_mols>  (3167) 
Z4590a,Z3677a

>  <ref_pdb>  (3167) 
Z3093a

>  <HIPPO Compound ID>  (3167) 
35875

>  <name>  (3167) 
GDZAABKVXBSQEZ-UHFFFAOYSA-N-P288-P178-P288-601526

>  <inspiration_score>  (3167) 
None

$$$$
NOAAROLXSJEELS-UHFFFAOYSA-N-P288-P178-P288-601526
     RDKit          3D

 29 33  0  0  0  0  0  0  0  0999 V2000
   -9.3725    2.1431   -5.7889 C   0  0  0  0  0  0  0  0  0  0  0  0
   -9.2527    2.8911   -7.0043 N   0  0  0  0  0  0  0  0  0  0  0  0
   -8.6204    4.1844   -7.0461 C   0  0  0  0  0  0  0  0  0  0  0  0
   -8.4980    4.4294   -8.5071 C   0  0  0  0  0  0  0  0  0  0  0  0
   -8.1019    5.5713   -9.1661 C   0  0  0  0  0  0  0  0  0  0  0  0
   -8.0893    5.5384  -10.5596 C   0  0  0  0  0  0  0  0  0  0  0  0
   -8.4421    4.3736  -11.2725 C   0  0  0  0  0  0  0  0  0  0  0  0
   -8.3967    4.3844  -12.6613 N   0  0  0  0  0  0  0  0  0  0  0  0
   -7.9767    5.4974  -13.6402 C   0  0  0  0  0  0  0  0  0  0  0  0
   -7.6755    6.6073  -13.4403 O   0  0  0  0  0  0  0  0  0  0  0  0
   -7.8668    5.0065  -15.0239 C   0  0  0  0  0  0  0  0  0  0  0  0
   -8.9753    4.4892  -15.7151 C   0  0  0  0  0  0  0  0  0  0  0  0
   -8.8973    4.2432  -17.0862 C   0  0  0  0  0  0  0  0  0  0  0  0
   -7.6978    4.5258  -17.7015 C   0  0  0  0  0  0  0  0  0  0  0  0
   -6.5843    5.0107  -17.0158 C   0  0  0  0  0  0  0  0  0  0  0  0
   -6.6491    5.2429  -15.6626 C   0  0  0  0  0  0  0  0  0  0  0  0
   -5.4659    5.2989  -17.9857 C   0  0  0  0  0  0  0  0  0  0  0  0
   -5.3430    6.8125  -18.1916 C   0  0  0  0  0  0  0  0  0  0  0  0
   -4.6486    7.5048  -17.0228 C   0  0  0  0  0  0  0  0  0  0  0  0
   -3.6507    6.7159  -16.3862 O   0  0  0  0  0  0  0  0  0  0  0  0
   -3.0705    5.7567  -17.2553 C   0  0  0  0  0  0  0  0  0  0  0  0
   -4.1024    4.6950  -17.6185 C   0  0  0  0  0  0  0  0  0  0  0  0
   -6.0574    4.6919  -19.2762 C   0  0  0  0  0  0  0  0  0  0  0  0
   -5.4657    4.5326  -20.3270 O   0  0  0  0  0  0  0  0  0  0  0  0
   -7.3859    4.3844  -19.0356 N   0  0  0  0  0  0  0  0  0  0  0  0
   -8.8258    3.2171  -10.5995 C   0  0  0  0  0  0  0  0  0  0  0  0
   -8.8638    3.2854   -9.2205 C   0  0  0  0  0  0  0  0  0  0  0  0
   -9.3239    2.2886   -8.2481 C   0  0  0  0  0  0  0  0  0  0  0  0
   -9.7307    1.1763   -8.5043 O   0  0  0  0  0  0  0  0  0  0  0  0
  1  2  1  0
  2  3  1  0
  3  4  1  0
  4  5  2  0
  5  6  1  0
  6  7  2  0
  7  8  1  0
  8  9  1  0
  9 10  2  0
  9 11  1  0
 11 12  2  0
 12 13  1  0
 13 14  2  0
 14 15  1  0
 15 16  2  0
 15 17  1  0
 17 18  1  0
 18 19  1  0
 19 20  1  0
 20 21  1  0
 21 22  1  0
 17 23  1  0
 23 24  2  0
 23 25  1  0
  7 26  1  0
 26 27  2  0
 27 28  1  0
 28 29  2  0
 28  2  1  0
 27  4  1  0
 16 11  1  0
 22 17  1  0
 25 14  1  0
M  END
>  <energy_score>  (3168) 
-17.434309

>  <alias>  (3168) 
NOAAROLXSJEELS-UHFFFAOYSA-N-P288-P178-P288-601526

>  <HIPPO Pose ID>  (3168) 
76546

>  <smiles>  (3168) 
CN1Cc2ccc(NC(=O)c3ccc4c(c3)C3(CCOCC3)C(=O)N4)cc2C1=O

>  <inchikey>  (3168) 
NOAAROLXSJEELS-UHFFFAOYSA-N

>  <distance_score>  (3168) 
1.211931

>  <ref_mols>  (3168) 
Z4590a,Z3677a

>  <ref_pdb>  (3168) 
Z3093a

>  <HIPPO Compound ID>  (3168) 
142806

>  <name>  (3168) 
NOAAROLXSJEELS-UHFFFAOYSA-N-P288-P178-P288-601526

>  <inspiration_score>  (3168) 
None

$$$$
VHFCAHLQHNTGFJ-UHFFFAOYSA-N-P288-P178-P288-601526
     RDKit          3D

 29 33  0  0  0  0  0  0  0  0999 V2000
   -9.3075    1.9985   -5.9362 C   0  0  0  0  0  0  0  0  0  0  0  0
   -9.1594    2.7395   -7.1538 N   0  0  0  0  0  0  0  0  0  0  0  0
   -9.0312    2.0632   -8.4349 C   0  0  0  0  0  0  0  0  0  0  0  0
   -8.7350    3.1958   -9.3560 C   0  0  0  0  0  0  0  0  0  0  0  0
   -8.6354    3.2178  -10.7344 C   0  0  0  0  0  0  0  0  0  0  0  0
   -8.3478    4.4393  -11.3511 C   0  0  0  0  0  0  0  0  0  0  0  0
   -8.2469    4.4801  -12.7345 N   0  0  0  0  0  0  0  0  0  0  0  0
   -7.9233    5.6537  -13.6812 C   0  0  0  0  0  0  0  0  0  0  0  0
   -7.6150    6.7541  -13.4444 O   0  0  0  0  0  0  0  0  0  0  0  0
   -7.9331    5.2193  -15.0926 C   0  0  0  0  0  0  0  0  0  0  0  0
   -9.0395    4.5576  -15.6531 C   0  0  0  0  0  0  0  0  0  0  0  0
   -9.0563    4.2244  -17.0060 C   0  0  0  0  0  0  0  0  0  0  0  0
   -7.9353    4.5409  -17.7354 C   0  0  0  0  0  0  0  0  0  0  0  0
   -6.8327    5.1975  -17.1931 C   0  0  0  0  0  0  0  0  0  0  0  0
   -6.8177    5.5505  -15.8624 C   0  0  0  0  0  0  0  0  0  0  0  0
   -5.7797    5.3930  -18.2550 C   0  0  0  0  0  0  0  0  0  0  0  0
   -5.7140    6.8648  -18.7058 C   0  0  0  0  0  0  0  0  0  0  0  0
   -4.3374    7.1584  -19.2828 C   0  0  0  0  0  0  0  0  0  0  0  0
   -3.3041    7.0172  -18.3058 O   0  0  0  0  0  0  0  0  0  0  0  0
   -3.5425    6.0216  -17.3097 C   0  0  0  0  0  0  0  0  0  0  0  0
   -4.4056    4.8777  -17.8139 C   0  0  0  0  0  0  0  0  0  0  0  0
   -6.3913    4.5640  -19.4085 C   0  0  0  0  0  0  0  0  0  0  0  0
   -5.8492    4.2552  -20.4520 O   0  0  0  0  0  0  0  0  0  0  0  0
   -7.6875    4.2300  -19.0516 N   0  0  0  0  0  0  0  0  0  0  0  0
   -8.1481    5.6062  -10.5895 C   0  0  0  0  0  0  0  0  0  0  0  0
   -8.2424    5.5759   -9.2003 C   0  0  0  0  0  0  0  0  0  0  0  0
   -8.5411    4.3629   -8.6192 C   0  0  0  0  0  0  0  0  0  0  0  0
   -8.7524    4.0565   -7.2032 C   0  0  0  0  0  0  0  0  0  0  0  0
   -8.5949    4.8464   -6.2906 O   0  0  0  0  0  0  0  0  0  0  0  0
  1  2  1  0
  2  3  1  0
  3  4  1  0
  4  5  2  0
  5  6  1  0
  6  7  1  0
  7  8  1  0
  8  9  2  0
  8 10  1  0
 10 11  2  0
 11 12  1  0
 12 13  2  0
 13 14  1  0
 14 15  2  0
 14 16  1  0
 16 17  1  0
 17 18  1  0
 18 19  1  0
 19 20  1  0
 20 21  1  0
 16 22  1  0
 22 23  2  0
 22 24  1  0
  6 25  2  0
 25 26  1  0
 26 27  2  0
 27 28  1  0
 28 29  2  0
 28  2  1  0
 27  4  1  0
 15 10  1  0
 21 16  1  0
 24 13  1  0
M  END
>  <energy_score>  (3169) 
-31.908596

>  <alias>  (3169) 
VHFCAHLQHNTGFJ-UHFFFAOYSA-N-P288-P178-P288-601526

>  <HIPPO Pose ID>  (3169) 
76552

>  <smiles>  (3169) 
CN1Cc2cc(NC(=O)c3ccc4c(c3)C3(CCOCC3)C(=O)N4)ccc2C1=O

>  <inchikey>  (3169) 
VHFCAHLQHNTGFJ-UHFFFAOYSA-N

>  <distance_score>  (3169) 
0.971031

>  <ref_mols>  (3169) 
Z4590a,Z3677a

>  <ref_pdb>  (3169) 
Z3093a

>  <HIPPO Compound ID>  (3169) 
142809

>  <name>  (3169) 
VHFCAHLQHNTGFJ-UHFFFAOYSA-N-P288-P178-P288-601526

>  <inspiration_score>  (3169) 
None

$$$$
SDOQTPUMEXRLDM-UHFFFAOYSA-N-P178-P178-P288-601526
     RDKit          3D

 29 33  0  0  0  0  0  0  0  0999 V2000
   -7.0010    6.1850  -13.4154 O   0  0  0  0  0  0  0  0  0  0  0  0
   -7.4645    5.1334  -13.6339 C   0  0  0  0  0  0  0  0  0  0  0  0
   -8.0853    4.0881  -12.6697 N   0  0  0  0  0  0  0  0  0  0  0  0
   -8.1746    4.0805  -11.2746 C   0  0  0  0  0  0  0  0  0  0  0  0
   -7.7498    5.2074  -10.5378 C   0  0  0  0  0  0  0  0  0  0  0  0
   -7.7881    5.2202   -9.1397 C   0  0  0  0  0  0  0  0  0  0  0  0
   -8.2720    4.0927   -8.5123 C   0  0  0  0  0  0  0  0  0  0  0  0
   -8.7241    2.9957   -9.2242 C   0  0  0  0  0  0  0  0  0  0  0  0
   -8.6778    2.9537  -10.6099 C   0  0  0  0  0  0  0  0  0  0  0  0
   -9.2230    2.0311   -8.2383 C   0  0  0  0  0  0  0  0  0  0  0  0
   -9.7756    0.9805   -8.4849 O   0  0  0  0  0  0  0  0  0  0  0  0
   -9.0092    2.5784   -7.0085 N   0  0  0  0  0  0  0  0  0  0  0  0
   -8.4131    3.7960   -7.0865 C   0  0  0  0  0  0  0  0  0  0  0  0
   -8.0407    4.5202   -6.1819 O   0  0  0  0  0  0  0  0  0  0  0  0
   -7.4971    4.7002  -15.0631 C   0  0  0  0  0  0  0  0  0  0  0  0
   -8.6418    4.1109  -15.6315 C   0  0  0  0  0  0  0  0  0  0  0  0
   -8.7111    3.8554  -17.0059 C   0  0  0  0  0  0  0  0  0  0  0  0
   -7.6209    4.2045  -17.7737 C   0  0  0  0  0  0  0  0  0  0  0  0
   -6.4823    4.8019  -17.2364 C   0  0  0  0  0  0  0  0  0  0  0  0
   -6.4031    5.0429  -15.8738 C   0  0  0  0  0  0  0  0  0  0  0  0
   -5.5246    5.1725  -18.3561 C   0  0  0  0  0  0  0  0  0  0  0  0
   -4.0704    4.7279  -18.1519 C   0  0  0  0  0  0  0  0  0  0  0  0
   -3.0794    5.8833  -18.1771 C   0  0  0  0  0  0  0  0  0  0  0  0
   -3.4905    6.8745  -17.2466 O   0  0  0  0  0  0  0  0  0  0  0  0
   -4.7496    7.4581  -17.5577 C   0  0  0  0  0  0  0  0  0  0  0  0
   -5.5792    6.6858  -18.5798 C   0  0  0  0  0  0  0  0  0  0  0  0
   -6.2206    4.4687  -19.5694 C   0  0  0  0  0  0  0  0  0  0  0  0
   -5.7897    4.3351  -20.7053 O   0  0  0  0  0  0  0  0  0  0  0  0
   -7.4691    4.0308  -19.1368 N   0  0  0  0  0  0  0  0  0  0  0  0
  1  2  2  0
  2  3  1  0
  3  4  1  0
  4  5  2  0
  5  6  1  0
  6  7  2  0
  7  8  1  0
  8  9  2  0
  8 10  1  0
 10 11  2  0
 10 12  1  0
 12 13  1  0
 13 14  2  0
  2 15  1  0
 15 16  2  0
 16 17  1  0
 17 18  2  0
 18 19  1  0
 19 20  2  0
 19 21  1  0
 21 22  1  0
 22 23  1  0
 23 24  1  0
 24 25  1  0
 25 26  1  0
 21 27  1  0
 27 28  2  0
 27 29  1  0
  9  4  1  0
 20 15  1  0
 26 21  1  0
 13  7  1  0
 29 18  1  0
M  END
>  <energy_score>  (3170) 
-31.124973

>  <alias>  (3170) 
SDOQTPUMEXRLDM-UHFFFAOYSA-N-P178-P178-P288-601526

>  <HIPPO Pose ID>  (3170) 
76553

>  <smiles>  (3170) 
O=C(Nc1ccc2c(c1)C(=O)NC2=O)c1ccc2c(c1)C1(CCOCC1)C(=O)N2

>  <inchikey>  (3170) 
SDOQTPUMEXRLDM-UHFFFAOYSA-N

>  <distance_score>  (3170) 
0.857166

>  <ref_mols>  (3170) 
Z4590a,Z3677a

>  <ref_pdb>  (3170) 
Z3093a

>  <HIPPO Compound ID>  (3170) 
142810

>  <name>  (3170) 
SDOQTPUMEXRLDM-UHFFFAOYSA-N-P178-P178-P288-601526

>  <inspiration_score>  (3170) 
None

$$$$
GVWIHBIBEJNYEH-UHFFFAOYSA-N-P178-P178-P288-601526
     RDKit          3D

 30 34  0  0  0  0  0  0  0  0999 V2000
   -9.6649    2.2559   -6.0946 C   0  0  0  0  0  0  0  0  0  0  0  0
   -9.1206    2.8394   -7.2874 N   0  0  0  0  0  0  0  0  0  0  0  0
   -8.6259    4.1054   -7.3708 C   0  0  0  0  0  0  0  0  0  0  0  0
   -8.4774    4.9452   -6.5009 O   0  0  0  0  0  0  0  0  0  0  0  0
   -8.3318    4.3341   -8.7826 C   0  0  0  0  0  0  0  0  0  0  0  0
   -7.8861    5.4720   -9.4182 C   0  0  0  0  0  0  0  0  0  0  0  0
   -7.7650    5.4178  -10.8097 C   0  0  0  0  0  0  0  0  0  0  0  0
   -8.0775    4.2434  -11.5274 C   0  0  0  0  0  0  0  0  0  0  0  0
   -7.9471    4.2121  -12.9145 N   0  0  0  0  0  0  0  0  0  0  0  0
   -7.5258    5.3211  -13.9107 C   0  0  0  0  0  0  0  0  0  0  0  0
   -7.1485    6.4105  -13.7166 O   0  0  0  0  0  0  0  0  0  0  0  0
   -7.5904    4.8619  -15.3276 C   0  0  0  0  0  0  0  0  0  0  0  0
   -8.6830    4.1277  -15.8191 C   0  0  0  0  0  0  0  0  0  0  0  0
   -8.7560    3.7864  -17.1709 C   0  0  0  0  0  0  0  0  0  0  0  0
   -7.7162    4.1830  -17.9849 C   0  0  0  0  0  0  0  0  0  0  0  0
   -6.6365    4.9398  -17.5311 C   0  0  0  0  0  0  0  0  0  0  0  0
   -6.5656    5.2804  -16.1914 C   0  0  0  0  0  0  0  0  0  0  0  0
   -5.7123    5.2524  -18.6971 C   0  0  0  0  0  0  0  0  0  0  0  0
   -4.2452    4.9194  -18.4399 C   0  0  0  0  0  0  0  0  0  0  0  0
   -3.5008    5.9887  -17.6549 C   0  0  0  0  0  0  0  0  0  0  0  0
   -3.6532    7.2688  -18.2607 O   0  0  0  0  0  0  0  0  0  0  0  0
   -5.0143    7.6723  -18.3130 C   0  0  0  0  0  0  0  0  0  0  0  0
   -5.8285    6.7114  -19.1630 C   0  0  0  0  0  0  0  0  0  0  0  0
   -6.3525    4.3588  -19.8138 C   0  0  0  0  0  0  0  0  0  0  0  0
   -5.9288    4.1310  -20.9375 O   0  0  0  0  0  0  0  0  0  0  0  0
   -7.5586    3.8744  -19.3210 N   0  0  0  0  0  0  0  0  0  0  0  0
   -8.5269    3.1012  -10.8552 C   0  0  0  0  0  0  0  0  0  0  0  0
   -8.6545    3.1853   -9.4798 C   0  0  0  0  0  0  0  0  0  0  0  0
   -9.2009    2.2369   -8.5122 C   0  0  0  0  0  0  0  0  0  0  0  0
   -9.7073    1.1738   -8.8043 O   0  0  0  0  0  0  0  0  0  0  0  0
  1  2  1  0
  2  3  1  0
  3  4  2  0
  3  5  1  0
  5  6  2  0
  6  7  1  0
  7  8  2  0
  8  9  1  0
  9 10  1  0
 10 11  2  0
 10 12  1  0
 12 13  2  0
 13 14  1  0
 14 15  2  0
 15 16  1  0
 16 17  2  0
 16 18  1  0
 18 19  1  0
 19 20  1  0
 20 21  1  0
 21 22  1  0
 22 23  1  0
 18 24  1  0
 24 25  2  0
 24 26  1  0
  8 27  1  0
 27 28  2  0
 28 29  1  0
 29 30  2  0
 29  2  1  0
 28  5  1  0
 17 12  1  0
 23 18  1  0
 26 15  1  0
M  END
>  <energy_score>  (3171) 
-26.819702

>  <alias>  (3171) 
GVWIHBIBEJNYEH-UHFFFAOYSA-N-P178-P178-P288-601526

>  <HIPPO Pose ID>  (3171) 
76555

>  <smiles>  (3171) 
CN1C(=O)c2ccc(NC(=O)c3ccc4c(c3)C3(CCOCC3)C(=O)N4)cc2C1=O

>  <inchikey>  (3171) 
GVWIHBIBEJNYEH-UHFFFAOYSA-N

>  <distance_score>  (3171) 
0.836825

>  <ref_mols>  (3171) 
Z4590a,Z3677a

>  <ref_pdb>  (3171) 
Z3093a

>  <HIPPO Compound ID>  (3171) 
142811

>  <name>  (3171) 
GVWIHBIBEJNYEH-UHFFFAOYSA-N-P178-P178-P288-601526

>  <inspiration_score>  (3171) 
None

$$$$
PHSBQOWJNFCZBH-UHFFFAOYSA-N-P288-P178-P288-601526
     RDKit          3D

 30 34  0  0  0  0  0  0  0  0999 V2000
   -9.7167    2.3451   -5.8618 C   0  0  0  0  0  0  0  0  0  0  0  0
   -8.7670    2.8632   -6.8237 N   0  0  0  0  0  0  0  0  0  0  0  0
   -8.9879    2.2827   -8.1738 C   0  0  0  0  0  0  0  0  0  0  0  0
   -8.7558    3.3998   -9.1358 C   0  0  0  0  0  0  0  0  0  0  0  0
   -8.6874    3.3534  -10.5245 C   0  0  0  0  0  0  0  0  0  0  0  0
   -8.4460    4.5433  -11.2136 C   0  0  0  0  0  0  0  0  0  0  0  0
   -8.3056    4.5282  -12.5998 N   0  0  0  0  0  0  0  0  0  0  0  0
   -7.9820    5.6713  -13.5886 C   0  0  0  0  0  0  0  0  0  0  0  0
   -7.7065    6.7891  -13.3900 O   0  0  0  0  0  0  0  0  0  0  0  0
   -7.9323    5.2026  -14.9920 C   0  0  0  0  0  0  0  0  0  0  0  0
   -9.0129    4.5401  -15.5929 C   0  0  0  0  0  0  0  0  0  0  0  0
   -8.9834    4.2279  -16.9523 C   0  0  0  0  0  0  0  0  0  0  0  0
   -7.8460    4.5687  -17.6501 C   0  0  0  0  0  0  0  0  0  0  0  0
   -6.7591    5.2230  -17.0710 C   0  0  0  0  0  0  0  0  0  0  0  0
   -6.7965    5.5512  -15.7324 C   0  0  0  0  0  0  0  0  0  0  0  0
   -5.6893    5.4535  -18.1165 C   0  0  0  0  0  0  0  0  0  0  0  0
   -5.6117    6.9210  -18.5697 C   0  0  0  0  0  0  0  0  0  0  0  0
   -4.7731    7.7759  -17.6342 C   0  0  0  0  0  0  0  0  0  0  0  0
   -3.4797    7.2077  -17.4620 O   0  0  0  0  0  0  0  0  0  0  0  0
   -3.5361    5.9274  -16.8430 C   0  0  0  0  0  0  0  0  0  0  0  0
   -4.3120    4.9363  -17.6960 C   0  0  0  0  0  0  0  0  0  0  0  0
   -6.2762    4.6434  -19.2999 C   0  0  0  0  0  0  0  0  0  0  0  0
   -5.7112    4.3556  -20.3381 O   0  0  0  0  0  0  0  0  0  0  0  0
   -7.5747    4.2940  -18.9710 N   0  0  0  0  0  0  0  0  0  0  0  0
   -8.3007    5.7471  -10.5073 C   0  0  0  0  0  0  0  0  0  0  0  0
   -8.3749    5.7793   -9.1136 C   0  0  0  0  0  0  0  0  0  0  0  0
   -8.5972    4.5941   -8.4339 C   0  0  0  0  0  0  0  0  0  0  0  0
   -8.6151    4.3346   -6.9452 C   0  0  0  0  0  0  0  0  0  0  0  0
   -9.6645    5.1787   -6.1995 C   0  0  0  0  0  0  0  0  0  0  0  0
   -7.2408    4.7219   -6.3649 C   0  0  0  0  0  0  0  0  0  0  0  0
  1  2  1  0
  2  3  1  0
  3  4  1  0
  4  5  2  0
  5  6  1  0
  6  7  1  0
  7  8  1  0
  8  9  2  0
  8 10  1  0
 10 11  2  0
 11 12  1  0
 12 13  2  0
 13 14  1  0
 14 15  2  0
 14 16  1  0
 16 17  1  0
 17 18  1  0
 18 19  1  0
 19 20  1  0
 20 21  1  0
 16 22  1  0
 22 23  2  0
 22 24  1  0
  6 25  2  0
 25 26  1  0
 26 27  2  0
 27 28  1  0
 28 29  1  0
 28 30  1  0
 28  2  1  0
 27  4  1  0
 15 10  1  0
 21 16  1  0
 24 13  1  0
M  END
>  <energy_score>  (3172) 
-31.844192

>  <alias>  (3172) 
PHSBQOWJNFCZBH-UHFFFAOYSA-N-P288-P178-P288-601526

>  <HIPPO Pose ID>  (3172) 
76558

>  <smiles>  (3172) 
CN1Cc2cc(NC(=O)c3ccc4c(c3)C3(CCOCC3)C(=O)N4)ccc2C1(C)C

>  <inchikey>  (3172) 
PHSBQOWJNFCZBH-UHFFFAOYSA-N

>  <distance_score>  (3172) 
0.896031

>  <ref_mols>  (3172) 
Z4590a,Z3677a

>  <ref_pdb>  (3172) 
Z3093a

>  <HIPPO Compound ID>  (3172) 
142812

>  <name>  (3172) 
PHSBQOWJNFCZBH-UHFFFAOYSA-N-P288-P178-P288-601526

>  <inspiration_score>  (3172) 
None

$$$$
FWMQLMYBMDGDPT-UHFFFAOYSA-N-P178-P178-P288-601526
     RDKit          3D

 32 36  0  0  0  0  0  0  0  0999 V2000
   -9.1797    5.5086   -3.9617 C   0  0  0  0  0  0  0  0  0  0  0  0
   -9.8578    4.7529   -4.9534 O   0  0  0  0  0  0  0  0  0  0  0  0
  -10.2699    3.4788   -4.4661 C   0  0  0  0  0  0  0  0  0  0  0  0
  -10.7249    2.5418   -5.5713 C   0  0  0  0  0  0  0  0  0  0  0  0
   -9.5937    2.0139   -6.4602 C   0  0  0  0  0  0  0  0  0  0  0  0
   -9.4939    2.7779   -7.6851 N   0  0  0  0  0  0  0  0  0  0  0  0
   -8.7230    4.0256   -7.5934 C   0  0  0  0  0  0  0  0  0  0  0  0
   -8.3312    4.2873   -9.0112 C   0  0  0  0  0  0  0  0  0  0  0  0
   -7.9411    5.4668   -9.6117 C   0  0  0  0  0  0  0  0  0  0  0  0
   -7.7398    5.4573  -10.9922 C   0  0  0  0  0  0  0  0  0  0  0  0
   -7.9202    4.2788  -11.7343 C   0  0  0  0  0  0  0  0  0  0  0  0
   -7.8219    4.2775  -13.1188 N   0  0  0  0  0  0  0  0  0  0  0  0
   -7.4645    5.4144  -14.0999 C   0  0  0  0  0  0  0  0  0  0  0  0
   -7.2716    6.5491  -13.9054 O   0  0  0  0  0  0  0  0  0  0  0  0
   -7.4803    4.9270  -15.4996 C   0  0  0  0  0  0  0  0  0  0  0  0
   -8.5923    4.2040  -15.9819 C   0  0  0  0  0  0  0  0  0  0  0  0
   -8.6635    3.8301  -17.3208 C   0  0  0  0  0  0  0  0  0  0  0  0
   -7.6077    4.1932  -18.1274 C   0  0  0  0  0  0  0  0  0  0  0  0
   -6.5115    4.9298  -17.6741 C   0  0  0  0  0  0  0  0  0  0  0  0
   -6.4306    5.3019  -16.3454 C   0  0  0  0  0  0  0  0  0  0  0  0
   -5.5775    5.2244  -18.8327 C   0  0  0  0  0  0  0  0  0  0  0  0
   -4.1246    4.7982  -18.5850 C   0  0  0  0  0  0  0  0  0  0  0  0
   -3.2283    5.9742  -18.2261 C   0  0  0  0  0  0  0  0  0  0  0  0
   -3.2003    6.9794  -19.2317 O   0  0  0  0  0  0  0  0  0  0  0  0
   -4.3955    7.0930  -20.0003 C   0  0  0  0  0  0  0  0  0  0  0  0
   -5.6334    6.7172  -19.1992 C   0  0  0  0  0  0  0  0  0  0  0  0
   -6.2615    4.3857  -19.9660 C   0  0  0  0  0  0  0  0  0  0  0  0
   -5.8683    4.2028  -21.1085 O   0  0  0  0  0  0  0  0  0  0  0  0
   -7.4563    3.8866  -19.4633 N   0  0  0  0  0  0  0  0  0  0  0  0
   -8.2695    3.0824  -11.1040 C   0  0  0  0  0  0  0  0  0  0  0  0
   -8.4831    3.1092   -9.7424 C   0  0  0  0  0  0  0  0  0  0  0  0
   -8.9486    2.0237   -8.8263 C   0  0  0  0  0  0  0  0  0  0  0  0
  1  2  1  0
  2  3  1  0
  3  4  1  0
  4  5  1  0
  5  6  1  0
  6  7  1  0
  7  8  1  0
  8  9  2  0
  9 10  1  0
 10 11  2  0
 11 12  1  0
 12 13  1  0
 13 14  2  0
 13 15  1  0
 15 16  2  0
 16 17  1  0
 17 18  2  0
 18 19  1  0
 19 20  2  0
 19 21  1  0
 21 22  1  0
 22 23  1  0
 23 24  1  0
 24 25  1  0
 25 26  1  0
 21 27  1  0
 27 28  2  0
 27 29  1  0
 11 30  1  0
 30 31  2  0
 31 32  1  0
 32  6  1  0
 31  8  1  0
 20 15  1  0
 26 21  1  0
 29 18  1  0
M  END
>  <energy_score>  (3173) 
-57.005971

>  <alias>  (3173) 
FWMQLMYBMDGDPT-UHFFFAOYSA-N-P178-P178-P288-601526

>  <HIPPO Pose ID>  (3173) 
76561

>  <smiles>  (3173) 
COCCCN1Cc2ccc(NC(=O)c3ccc4c(c3)C3(CCOCC3)C(=O)N4)cc2C1

>  <inchikey>  (3173) 
FWMQLMYBMDGDPT-UHFFFAOYSA-N

>  <distance_score>  (3173) 
0.818547

>  <ref_mols>  (3173) 
Z4590a,Z3677a

>  <ref_pdb>  (3173) 
Z3093a

>  <HIPPO Compound ID>  (3173) 
142814

>  <name>  (3173) 
FWMQLMYBMDGDPT-UHFFFAOYSA-N-P178-P178-P288-601526

>  <inspiration_score>  (3173) 
None

$$$$
VOVDBENHIZRNOS-UHFFFAOYSA-N-P288-P178-P288-601526
     RDKit          3D

 32 36  0  0  0  0  0  0  0  0999 V2000
  -12.4706    2.0010   -5.2145 C   0  0  0  0  0  0  0  0  0  0  0  0
  -11.0716    1.7660   -5.6301 C   0  0  0  0  0  0  0  0  0  0  0  0
  -10.3053    3.0698   -5.5635 C   0  0  0  0  0  0  0  0  0  0  0  0
   -8.8382    2.9464   -5.9570 C   0  0  1  0  0  0  0  0  0  0  0  0
   -8.3089    1.5365   -5.9483 C   0  0  0  0  0  0  0  0  0  0  0  0
   -8.4986    3.5226   -7.2300 N   0  0  0  0  0  0  0  0  0  0  0  0
   -8.5539    4.9664   -7.3627 C   0  0  0  0  0  0  0  0  0  0  0  0
   -8.4606    5.1506   -8.8364 C   0  0  0  0  0  0  0  0  0  0  0  0
   -8.1700    6.2950   -9.5380 C   0  0  0  0  0  0  0  0  0  0  0  0
   -8.0714    6.1847  -10.9178 C   0  0  0  0  0  0  0  0  0  0  0  0
   -8.2728    4.9514  -11.5609 C   0  0  0  0  0  0  0  0  0  0  0  0
   -8.1106    4.8558  -12.9269 N   0  0  0  0  0  0  0  0  0  0  0  0
   -7.6768    5.9112  -13.9578 C   0  0  0  0  0  0  0  0  0  0  0  0
   -7.3132    7.0088  -13.8088 O   0  0  0  0  0  0  0  0  0  0  0  0
   -7.7272    5.3580  -15.3183 C   0  0  0  0  0  0  0  0  0  0  0  0
   -8.8767    4.6751  -15.7668 C   0  0  0  0  0  0  0  0  0  0  0  0
   -8.9648    4.2561  -17.0849 C   0  0  0  0  0  0  0  0  0  0  0  0
   -7.8808    4.5283  -17.8851 C   0  0  0  0  0  0  0  0  0  0  0  0
   -6.7333    5.1997  -17.4551 C   0  0  0  0  0  0  0  0  0  0  0  0
   -6.6400    5.6246  -16.1539 C   0  0  0  0  0  0  0  0  0  0  0  0
   -5.7604    5.3537  -18.6032 C   0  0  0  0  0  0  0  0  0  0  0  0
   -4.3308    4.9478  -18.2439 C   0  0  0  0  0  0  0  0  0  0  0  0
   -3.3550    5.2399  -19.3726 C   0  0  0  0  0  0  0  0  0  0  0  0
   -3.4012    6.6282  -19.7010 O   0  0  0  0  0  0  0  0  0  0  0  0
   -4.6886    7.0020  -20.1891 C   0  0  0  0  0  0  0  0  0  0  0  0
   -5.7508    6.8014  -19.1137 C   0  0  0  0  0  0  0  0  0  0  0  0
   -6.4574    4.4398  -19.6464 C   0  0  0  0  0  0  0  0  0  0  0  0
   -6.0115    4.0181  -20.6945 O   0  0  0  0  0  0  0  0  0  0  0  0
   -7.7290    4.1470  -19.1916 N   0  0  0  0  0  0  0  0  0  0  0  0
   -8.6087    3.8048  -10.8495 C   0  0  0  0  0  0  0  0  0  0  0  0
   -8.6946    3.9304   -9.4819 C   0  0  0  0  0  0  0  0  0  0  0  0
   -8.9900    2.8888   -8.4614 C   0  0  0  0  0  0  0  0  0  0  0  0
  1  2  1  0
  2  3  1  0
  3  4  1  0
  4  5  1  6
  4  6  1  0
  6  7  1  0
  7  8  1  0
  8  9  2  0
  9 10  1  0
 10 11  2  0
 11 12  1  0
 12 13  1  0
 13 14  2  0
 13 15  1  0
 15 16  2  0
 16 17  1  0
 17 18  2  0
 18 19  1  0
 19 20  2  0
 19 21  1  0
 21 22  1  0
 22 23  1  0
 23 24  1  0
 24 25  1  0
 25 26  1  0
 21 27  1  0
 27 28  2  0
 27 29  1  0
 11 30  1  0
 30 31  2  0
 31 32  1  0
 32  6  1  0
 31  8  1  0
 20 15  1  0
 26 21  1  0
 29 18  1  0
M  END
>  <energy_score>  (3174) 
-8.236607

>  <alias>  (3174) 
VOVDBENHIZRNOS-UHFFFAOYSA-N-P288-P178-P288-601526

>  <HIPPO Pose ID>  (3174) 
76564

>  <smiles>  (3174) 
CCCC(C)N1Cc2ccc(NC(=O)c3ccc4c(c3)C3(CCOCC3)C(=O)N4)cc2C1

>  <inchikey>  (3174) 
VOVDBENHIZRNOS-UHFFFAOYSA-N

>  <distance_score>  (3174) 
0.949267

>  <ref_mols>  (3174) 
Z4590a,Z3677a

>  <ref_pdb>  (3174) 
Z3093a

>  <HIPPO Compound ID>  (3174) 
142815

>  <name>  (3174) 
VOVDBENHIZRNOS-UHFFFAOYSA-N-P288-P178-P288-601526

>  <inspiration_score>  (3174) 
None

$$$$
GHZOWFRCUIOQHF-UHFFFAOYSA-N-P178-P178-P288-601526
     RDKit          3D

 32 36  0  0  0  0  0  0  0  0999 V2000
  -10.3565    1.0593   -6.4864 C   0  0  0  0  0  0  0  0  0  0  0  0
  -10.7024    1.9409   -5.3188 C   0  0  0  0  0  0  0  0  0  0  0  0
  -12.1635    2.2747   -5.2896 C   0  0  0  0  0  0  0  0  0  0  0  0
   -9.8879    3.2214   -5.1789 C   0  0  0  0  0  0  0  0  0  0  0  0
   -8.6114    3.2775   -6.0027 C   0  0  0  0  0  0  0  0  0  0  0  0
   -8.9322    3.8037   -7.3183 N   0  0  0  0  0  0  0  0  0  0  0  0
   -8.2381    5.0648   -7.5843 C   0  0  0  0  0  0  0  0  0  0  0  0
   -8.1458    5.1233   -9.0626 C   0  0  0  0  0  0  0  0  0  0  0  0
   -7.8413    6.2071   -9.8494 C   0  0  0  0  0  0  0  0  0  0  0  0
   -7.7840    6.0035  -11.2204 C   0  0  0  0  0  0  0  0  0  0  0  0
   -8.0160    4.7342  -11.7787 C   0  0  0  0  0  0  0  0  0  0  0  0
   -7.9299    4.5804  -13.1546 N   0  0  0  0  0  0  0  0  0  0  0  0
   -7.4505    5.5617  -14.2449 C   0  0  0  0  0  0  0  0  0  0  0  0
   -7.1249    6.6804  -14.1664 O   0  0  0  0  0  0  0  0  0  0  0  0
   -7.4666    4.9526  -15.5932 C   0  0  0  0  0  0  0  0  0  0  0  0
   -8.5667    4.1935  -16.0389 C   0  0  0  0  0  0  0  0  0  0  0  0
   -8.6355    3.7775  -17.3672 C   0  0  0  0  0  0  0  0  0  0  0  0
   -7.5934    4.1388  -18.1957 C   0  0  0  0  0  0  0  0  0  0  0  0
   -6.5057    4.9027  -17.7737 C   0  0  0  0  0  0  0  0  0  0  0  0
   -6.4228    5.3073  -16.4589 C   0  0  0  0  0  0  0  0  0  0  0  0
   -5.6104    5.2276  -18.9543 C   0  0  0  0  0  0  0  0  0  0  0  0
   -4.1295    4.9244  -18.7019 C   0  0  0  0  0  0  0  0  0  0  0  0
   -3.2428    5.7619  -19.6134 C   0  0  0  0  0  0  0  0  0  0  0  0
   -3.3702    7.1623  -19.3554 O   0  0  0  0  0  0  0  0  0  0  0  0
   -4.6403    7.5649  -18.8523 C   0  0  0  0  0  0  0  0  0  0  0  0
   -5.7753    6.7006  -19.3766 C   0  0  0  0  0  0  0  0  0  0  0  0
   -6.2673    4.3260  -20.0503 C   0  0  0  0  0  0  0  0  0  0  0  0
   -5.8716    4.1180  -21.1872 O   0  0  0  0  0  0  0  0  0  0  0  0
   -7.4497    3.8126  -19.5282 N   0  0  0  0  0  0  0  0  0  0  0  0
   -8.3298    3.6417  -10.9692 C   0  0  0  0  0  0  0  0  0  0  0  0
   -8.3933    3.8637   -9.6048 C   0  0  0  0  0  0  0  0  0  0  0  0
   -8.7301    2.9214   -8.4938 C   0  0  0  0  0  0  0  0  0  0  0  0
  1  2  1  0
  2  3  1  0
  2  4  1  0
  4  5  1  0
  5  6  1  0
  6  7  1  0
  7  8  1  0
  8  9  2  0
  9 10  1  0
 10 11  2  0
 11 12  1  0
 12 13  1  0
 13 14  2  0
 13 15  1  0
 15 16  2  0
 16 17  1  0
 17 18  2  0
 18 19  1  0
 19 20  2  0
 19 21  1  0
 21 22  1  0
 22 23  1  0
 23 24  1  0
 24 25  1  0
 25 26  1  0
 21 27  1  0
 27 28  2  0
 27 29  1  0
 11 30  1  0
 30 31  2  0
 31 32  1  0
 32  6  1  0
 31  8  1  0
 20 15  1  0
 26 21  1  0
 29 18  1  0
M  END
>  <energy_score>  (3175) 
-31.076281

>  <alias>  (3175) 
GHZOWFRCUIOQHF-UHFFFAOYSA-N-P178-P178-P288-601526

>  <HIPPO Pose ID>  (3175) 
76565

>  <smiles>  (3175) 
CC(C)CCN1Cc2ccc(NC(=O)c3ccc4c(c3)C3(CCOCC3)C(=O)N4)cc2C1

>  <inchikey>  (3175) 
GHZOWFRCUIOQHF-UHFFFAOYSA-N

>  <distance_score>  (3175) 
0.999093

>  <ref_mols>  (3175) 
Z4590a,Z3677a

>  <ref_pdb>  (3175) 
Z3093a

>  <HIPPO Compound ID>  (3175) 
142816

>  <name>  (3175) 
GHZOWFRCUIOQHF-UHFFFAOYSA-N-P178-P178-P288-601526

>  <inspiration_score>  (3175) 
None

$$$$
JQEIDFVBSDOEHZ-UHFFFAOYSA-N-P178-P178-P288-601526
     RDKit          3D

 37 42  0  0  0  0  0  0  0  0999 V2000
   -7.5945    4.5788   -2.9119 C   0  0  0  0  0  0  0  0  0  0  0  0
   -8.4609    3.9201   -3.8718 N   0  0  0  0  0  0  0  0  0  0  0  0
   -9.8164    4.0783   -3.6833 C   0  0  0  0  0  0  0  0  0  0  0  0
  -10.2786    4.5971   -2.6634 O   0  0  0  0  0  0  0  0  0  0  0  0
  -10.7246    3.6715   -4.8148 C   0  0  0  0  0  0  0  0  0  0  0  0
  -10.2419    2.4909   -5.6049 C   0  0  0  0  0  0  0  0  0  0  0  0
   -8.7984    2.6472   -6.0289 C   0  0  1  0  0  0  0  0  0  0  0  0
   -8.6863    3.2081   -7.3618 N   0  0  0  0  0  0  0  0  0  0  0  0
   -8.7150    2.3911   -8.5740 C   0  0  0  0  0  0  0  0  0  0  0  0
   -8.4989    3.4215   -9.6335 C   0  0  0  0  0  0  0  0  0  0  0  0
   -8.2937    3.2835  -10.9950 C   0  0  0  0  0  0  0  0  0  0  0  0
   -8.0747    4.4493  -11.7439 C   0  0  0  0  0  0  0  0  0  0  0  0
   -7.8431    4.3502  -13.1101 N   0  0  0  0  0  0  0  0  0  0  0  0
   -7.4828    5.4367  -14.1485 C   0  0  0  0  0  0  0  0  0  0  0  0
   -7.2486    6.5719  -14.0062 O   0  0  0  0  0  0  0  0  0  0  0  0
   -7.4880    4.8962  -15.5265 C   0  0  0  0  0  0  0  0  0  0  0  0
   -8.5959    4.1562  -15.9869 C   0  0  0  0  0  0  0  0  0  0  0  0
   -8.6773    3.7741  -17.3230 C   0  0  0  0  0  0  0  0  0  0  0  0
   -7.6345    4.1427  -18.1456 C   0  0  0  0  0  0  0  0  0  0  0  0
   -6.5369    4.8881  -17.7118 C   0  0  0  0  0  0  0  0  0  0  0  0
   -6.4476    5.2708  -16.3876 C   0  0  0  0  0  0  0  0  0  0  0  0
   -5.6322    5.2048  -18.8902 C   0  0  0  0  0  0  0  0  0  0  0  0
   -5.7371    6.6940  -19.2456 C   0  0  0  0  0  0  0  0  0  0  0  0
   -4.7661    7.0660  -20.3580 C   0  0  0  0  0  0  0  0  0  0  0  0
   -3.4308    6.7451  -19.9818 O   0  0  0  0  0  0  0  0  0  0  0  0
   -3.2648    5.3403  -19.7835 C   0  0  0  0  0  0  0  0  0  0  0  0
   -4.1608    4.8711  -18.6469 C   0  0  0  0  0  0  0  0  0  0  0  0
   -6.3125    4.3320  -20.0006 C   0  0  0  0  0  0  0  0  0  0  0  0
   -5.9270    4.1211  -21.1407 O   0  0  0  0  0  0  0  0  0  0  0  0
   -7.5007    3.8338  -19.4824 N   0  0  0  0  0  0  0  0  0  0  0  0
   -8.0877    5.7184  -11.1330 C   0  0  0  0  0  0  0  0  0  0  0  0
   -8.3161    5.8524   -9.7694 C   0  0  0  0  0  0  0  0  0  0  0  0
   -8.5129    4.6921   -9.0577 C   0  0  0  0  0  0  0  0  0  0  0  0
   -8.7314    4.5557   -7.6236 C   0  0  0  0  0  0  0  0  0  0  0  0
   -8.9036    5.4770   -6.8482 O   0  0  0  0  0  0  0  0  0  0  0  0
   -7.8898    3.4596   -5.0485 C   0  0  0  0  0  0  0  0  0  0  0  0
   -6.7073    3.7354   -5.2987 O   0  0  0  0  0  0  0  0  0  0  0  0
  1  2  1  0
  2  3  1  0
  3  4  2  0
  3  5  1  0
  5  6  1  0
  6  7  1  0
  7  8  1  6
  8  9  1  0
  9 10  1  0
 10 11  2  0
 11 12  1  0
 12 13  1  0
 13 14  1  0
 14 15  2  0
 14 16  1  0
 16 17  2  0
 17 18  1  0
 18 19  2  0
 19 20  1  0
 20 21  2  0
 20 22  1  0
 22 23  1  0
 23 24  1  0
 24 25  1  0
 25 26  1  0
 26 27  1  0
 22 28  1  0
 28 29  2  0
 28 30  1  0
 12 31  2  0
 31 32  1  0
 32 33  2  0
 33 34  1  0
 34 35  2  0
  7 36  1  0
 36 37  2  0
 36  2  1  0
 34  8  1  0
 33 10  1  0
 21 16  1  0
 27 22  1  0
 30 19  1  0
M  END
>  <energy_score>  (3176) 
-46.204831

>  <alias>  (3176) 
JQEIDFVBSDOEHZ-UHFFFAOYSA-N-P178-P178-P288-601526

>  <HIPPO Pose ID>  (3176) 
76579

>  <smiles>  (3176) 
CN1C(=O)CCC(N2Cc3cc(NC(=O)c4ccc5c(c4)C4(CCOCC4)C(=O)N5)ccc3C2=O)C1=O

>  <inchikey>  (3176) 
JQEIDFVBSDOEHZ-UHFFFAOYSA-N

>  <distance_score>  (3176) 
0.853297

>  <ref_mols>  (3176) 
Z4590a,Z3677a

>  <ref_pdb>  (3176) 
Z3093a

>  <HIPPO Compound ID>  (3176) 
142823

>  <name>  (3176) 
JQEIDFVBSDOEHZ-UHFFFAOYSA-N-P178-P178-P288-601526

>  <inspiration_score>  (3176) 
None

$$$$
LHPDRWDWXQABJZ-UHFFFAOYSA-N-P288-P178-P288-601526
     RDKit          3D

 37 42  0  0  0  0  0  0  0  0999 V2000
  -11.8211    2.3251   -4.6459 C   0  0  0  0  0  0  0  0  0  0  0  0
  -10.5309    2.9554   -4.6685 N   0  0  0  0  0  0  0  0  0  0  0  0
   -9.9846    3.6196   -3.5768 C   0  0  0  0  0  0  0  0  0  0  0  0
  -10.6036    4.0707   -2.6143 O   0  0  0  0  0  0  0  0  0  0  0  0
   -8.4945    3.8047   -3.5924 C   0  0  0  0  0  0  0  0  0  0  0  0
   -8.0464    4.2269   -4.9517 C   0  0  0  0  0  0  0  0  0  0  0  0
   -8.5011    3.2163   -6.0056 C   0  0  2  0  0  0  0  0  0  0  0  0
   -8.2266    3.7263   -7.3231 N   0  0  0  0  0  0  0  0  0  0  0  0
   -8.3402    5.1317   -7.5930 C   0  0  0  0  0  0  0  0  0  0  0  0
   -8.3346    5.1755   -9.0559 C   0  0  0  0  0  0  0  0  0  0  0  0
   -8.2840    6.3039   -9.8277 C   0  0  0  0  0  0  0  0  0  0  0  0
   -8.2402    6.1014  -11.1859 C   0  0  0  0  0  0  0  0  0  0  0  0
   -8.2715    4.8014  -11.7334 C   0  0  0  0  0  0  0  0  0  0  0  0
   -8.1285    4.7012  -13.0952 N   0  0  0  0  0  0  0  0  0  0  0  0
   -7.7719    5.7666  -14.1418 C   0  0  0  0  0  0  0  0  0  0  0  0
   -7.4669    6.8836  -14.0098 O   0  0  0  0  0  0  0  0  0  0  0  0
   -7.8201    5.2180  -15.4879 C   0  0  0  0  0  0  0  0  0  0  0  0
   -8.9827    4.5648  -15.9379 C   0  0  0  0  0  0  0  0  0  0  0  0
   -9.0781    4.1785  -17.2608 C   0  0  0  0  0  0  0  0  0  0  0  0
   -7.9834    4.4455  -18.0472 C   0  0  0  0  0  0  0  0  0  0  0  0
   -6.8210    5.0854  -17.6060 C   0  0  0  0  0  0  0  0  0  0  0  0
   -6.7228    5.4861  -16.3040 C   0  0  0  0  0  0  0  0  0  0  0  0
   -5.8249    5.2102  -18.7327 C   0  0  0  0  0  0  0  0  0  0  0  0
   -4.4266    4.6879  -18.3734 C   0  0  0  0  0  0  0  0  0  0  0  0
   -3.4371    5.8159  -18.1227 C   0  0  0  0  0  0  0  0  0  0  0  0
   -3.2705    6.6557  -19.2586 O   0  0  0  0  0  0  0  0  0  0  0  0
   -4.4557    6.8575  -20.0300 C   0  0  0  0  0  0  0  0  0  0  0  0
   -5.7314    6.6658  -19.2194 C   0  0  0  0  0  0  0  0  0  0  0  0
   -6.5529    4.3407  -19.7957 C   0  0  0  0  0  0  0  0  0  0  0  0
   -6.1264    3.9177  -20.8509 O   0  0  0  0  0  0  0  0  0  0  0  0
   -7.8312    4.0672  -19.3509 N   0  0  0  0  0  0  0  0  0  0  0  0
   -8.3850    3.6599  -10.9466 C   0  0  0  0  0  0  0  0  0  0  0  0
   -8.3885    3.8868   -9.5939 C   0  0  0  0  0  0  0  0  0  0  0  0
   -8.4052    2.9491   -8.4710 C   0  0  0  0  0  0  0  0  0  0  0  0
   -8.6009    1.7562   -8.5506 O   0  0  0  0  0  0  0  0  0  0  0  0
   -9.9977    2.9858   -5.9375 C   0  0  0  0  0  0  0  0  0  0  0  0
  -10.7042    2.8404   -6.9344 O   0  0  0  0  0  0  0  0  0  0  0  0
  1  2  1  0
  2  3  1  0
  3  4  2  0
  3  5  1  0
  5  6  1  0
  6  7  1  0
  7  8  1  6
  8  9  1  0
  9 10  1  0
 10 11  2  0
 11 12  1  0
 12 13  2  0
 13 14  1  0
 14 15  1  0
 15 16  2  0
 15 17  1  0
 17 18  2  0
 18 19  1  0
 19 20  2  0
 20 21  1  0
 21 22  2  0
 21 23  1  0
 23 24  1  0
 24 25  1  0
 25 26  1  0
 26 27  1  0
 27 28  1  0
 23 29  1  0
 29 30  2  0
 29 31  1  0
 13 32  1  0
 32 33  2  0
 33 34  1  0
 34 35  2  0
  7 36  1  0
 36 37  2  0
 36  2  1  0
 34  8  1  0
 33 10  1  0
 22 17  1  0
 28 23  1  0
 31 20  1  0
M  END
>  <energy_score>  (3177) 
-32.378943

>  <alias>  (3177) 
LHPDRWDWXQABJZ-UHFFFAOYSA-N-P288-P178-P288-601526

>  <HIPPO Pose ID>  (3177) 
76584

>  <smiles>  (3177) 
CN1C(=O)CCC(N2Cc3ccc(NC(=O)c4ccc5c(c4)C4(CCOCC4)C(=O)N5)cc3C2=O)C1=O

>  <inchikey>  (3177) 
LHPDRWDWXQABJZ-UHFFFAOYSA-N

>  <distance_score>  (3177) 
0.942666

>  <ref_mols>  (3177) 
Z4590a,Z3677a

>  <ref_pdb>  (3177) 
Z3093a

>  <HIPPO Compound ID>  (3177) 
142825

>  <name>  (3177) 
LHPDRWDWXQABJZ-UHFFFAOYSA-N-P288-P178-P288-601526

>  <inspiration_score>  (3177) 
None

$$$$
RZCCWBLMDPVIBO-UHFFFAOYSA-N-P301-P214-P301-601526
     RDKit          3D

 26 29  0  0  0  0  0  0  0  0999 V2000
  -10.2519    1.2197   -6.2828 C   0  0  0  0  0  0  0  0  0  0  0  0
  -10.2069    2.7263   -6.1997 C   0  0  0  0  0  0  0  0  0  0  0  0
   -9.0342    3.2559   -6.8774 N   0  0  0  0  0  0  0  0  0  0  0  0
   -8.9629    4.7209   -6.8573 C   0  0  0  0  0  0  0  0  0  0  0  0
   -8.4058    5.1027   -8.1887 C   0  0  0  0  0  0  0  0  0  0  0  0
   -8.1019    6.3593   -8.6752 C   0  0  0  0  0  0  0  0  0  0  0  0
   -7.5792    6.4557   -9.9648 C   0  0  0  0  0  0  0  0  0  0  0  0
   -7.2915    5.2989  -10.7033 C   0  0  0  0  0  0  0  0  0  0  0  0
   -6.7746    5.4443  -11.9814 N   0  0  0  0  0  0  0  0  0  0  0  0
   -5.8952    4.4951  -12.8202 C   0  0  0  0  0  0  0  0  0  0  0  0
   -5.4036    3.4768  -12.5406 O   0  0  0  0  0  0  0  0  0  0  0  0
   -5.8055    5.0098  -14.2006 C   0  0  0  0  0  0  0  0  0  0  0  0
   -4.6460    5.4260  -14.8248 C   0  0  0  0  0  0  0  0  0  0  0  0
   -4.6532    5.7778  -16.1781 C   0  0  0  0  0  0  0  0  0  0  0  0
   -5.8068    5.6305  -16.9788 C   0  0  0  0  0  0  0  0  0  0  0  0
   -5.6937    5.8926  -18.4569 C   0  0  0  0  0  0  0  0  0  0  0  0
   -6.9852    5.1518  -16.3478 C   0  0  0  0  0  0  0  0  0  0  0  0
   -8.2701    4.7073  -16.7659 C   0  0  0  0  0  0  0  0  0  0  0  0
   -8.8225    4.4740  -18.0521 C   0  0  0  0  0  0  0  0  0  0  0  0
   -9.4169    4.1905  -19.0034 N   0  0  0  0  0  0  0  0  0  0  0  0
   -9.0160    4.4223  -15.6473 C   0  0  0  0  0  0  0  0  0  0  0  0
   -8.2133    4.5246  -14.5630 N   0  0  0  0  0  0  0  0  0  0  0  0
   -6.9629    4.9262  -14.9680 C   0  0  0  0  0  0  0  0  0  0  0  0
   -7.6236    4.0325  -10.2129 C   0  0  0  0  0  0  0  0  0  0  0  0
   -8.2309    3.9637   -8.9713 C   0  0  0  0  0  0  0  0  0  0  0  0
   -8.8624    2.7997   -8.2794 C   0  0  0  0  0  0  0  0  0  0  0  0
  1  2  1  0
  2  3  1  0
  3  4  1  0
  4  5  1  0
  5  6  2  0
  6  7  1  0
  7  8  2  0
  8  9  1  0
  9 10  1  0
 10 11  2  0
 10 12  1  0
 12 13  2  0
 13 14  1  0
 14 15  2  0
 15 16  1  0
 15 17  1  0
 17 18  1  0
 18 19  1  0
 19 20  3  0
 18 21  2  0
 21 22  1  0
 22 23  1  0
  8 24  1  0
 24 25  2  0
 25 26  1  0
 26  3  1  0
 25  5  1  0
 23 12  1  0
 23 17  2  0
M  END
>  <energy_score>  (3178) 
-19.750343

>  <alias>  (3178) 
RZCCWBLMDPVIBO-UHFFFAOYSA-N-P301-P214-P301-601526

>  <HIPPO Pose ID>  (3178) 
76592

>  <smiles>  (3178) 
CCN1Cc2ccc(NC(=O)c3ccc(C)c4c(C#N)c[nH]c34)cc2C1

>  <inchikey>  (3178) 
RZCCWBLMDPVIBO-UHFFFAOYSA-N

>  <distance_score>  (3178) 
1.908493

>  <ref_mols>  (3178) 
Z4983a,Z3842a

>  <ref_pdb>  (3178) 
Z3093a

>  <HIPPO Compound ID>  (3178) 
142778

>  <name>  (3178) 
RZCCWBLMDPVIBO-UHFFFAOYSA-N-P301-P214-P301-601526

>  <inspiration_score>  (3178) 
None

$$$$
RAJDPSICUSKCMO-UHFFFAOYSA-N-P301-P214-P301-601526
     RDKit          3D

 26 29  0  0  0  0  0  0  0  0999 V2000
   -4.4567    7.1044  -17.1954 C   0  0  0  0  0  0  0  0  0  0  0  0
   -5.2661    6.2724  -16.2418 C   0  0  0  0  0  0  0  0  0  0  0  0
   -4.8406    6.1928  -14.9168 C   0  0  0  0  0  0  0  0  0  0  0  0
   -5.5842    5.4929  -13.9779 C   0  0  0  0  0  0  0  0  0  0  0  0
   -6.8069    4.8895  -14.2913 C   0  0  0  0  0  0  0  0  0  0  0  0
   -7.5119    4.1864  -13.1932 C   0  0  0  0  0  0  0  0  0  0  0  0
   -7.8364    3.0753  -13.3201 O   0  0  0  0  0  0  0  0  0  0  0  0
   -7.5975    5.1211  -11.9647 N   0  0  0  0  0  0  0  0  0  0  0  0
   -7.9982    4.8617  -10.6593 C   0  0  0  0  0  0  0  0  0  0  0  0
   -7.8391    5.9243   -9.7418 C   0  0  0  0  0  0  0  0  0  0  0  0
   -8.1320    5.7656   -8.3874 C   0  0  0  0  0  0  0  0  0  0  0  0
   -8.5931    4.5335   -7.9737 C   0  0  0  0  0  0  0  0  0  0  0  0
   -8.7533    3.4889   -8.8890 C   0  0  0  0  0  0  0  0  0  0  0  0
   -8.4666    3.6195  -10.2379 C   0  0  0  0  0  0  0  0  0  0  0  0
   -9.3520    2.3601   -8.1645 C   0  0  0  0  0  0  0  0  0  0  0  0
   -9.7402    1.3284   -8.6668 O   0  0  0  0  0  0  0  0  0  0  0  0
   -9.4941    2.7578   -6.8441 N   0  0  0  0  0  0  0  0  0  0  0  0
  -10.3486    2.0661   -5.9128 C   0  0  0  0  0  0  0  0  0  0  0  0
   -9.0414    4.1062   -6.6184 C   0  0  0  0  0  0  0  0  0  0  0  0
   -7.1962    4.8949  -15.6342 C   0  0  0  0  0  0  0  0  0  0  0  0
   -8.2878    4.3444  -16.2843 N   0  0  0  0  0  0  0  0  0  0  0  0
   -8.1343    4.4676  -17.6447 C   0  0  0  0  0  0  0  0  0  0  0  0
   -6.9447    5.1236  -17.8702 C   0  0  0  0  0  0  0  0  0  0  0  0
   -6.2505    5.3126  -19.1048 C   0  0  0  0  0  0  0  0  0  0  0  0
   -5.5125    5.5130  -19.9789 N   0  0  0  0  0  0  0  0  0  0  0  0
   -6.4087    5.5146  -16.6127 C   0  0  0  0  0  0  0  0  0  0  0  0
  1  2  1  0
  2  3  2  0
  3  4  1  0
  4  5  2  0
  5  6  1  0
  6  7  2  0
  6  8  1  0
  8  9  1  0
  9 10  2  0
 10 11  1  0
 11 12  2  0
 12 13  1  0
 13 14  2  0
 13 15  1  0
 15 16  2  0
 15 17  1  0
 17 18  1  0
 17 19  1  0
  5 20  1  0
 20 21  1  0
 21 22  1  0
 22 23  2  0
 23 24  1  0
 24 25  3  0
 23 26  1  0
 26  2  1  0
 14  9  1  0
 26 20  2  0
 19 12  1  0
M  END
>  <energy_score>  (3179) 
-24.081802

>  <alias>  (3179) 
RAJDPSICUSKCMO-UHFFFAOYSA-N-P301-P214-P301-601526

>  <HIPPO Pose ID>  (3179) 
76594

>  <smiles>  (3179) 
Cc1ccc(C(=O)Nc2ccc3c(c2)C(=O)N(C)C3)c2[nH]cc(C#N)c12

>  <inchikey>  (3179) 
RAJDPSICUSKCMO-UHFFFAOYSA-N

>  <distance_score>  (3179) 
1.773527

>  <ref_mols>  (3179) 
Z4983a,Z3842a

>  <ref_pdb>  (3179) 
Z3093a

>  <HIPPO Compound ID>  (3179) 
142779

>  <name>  (3179) 
RAJDPSICUSKCMO-UHFFFAOYSA-N-P301-P214-P301-601526

>  <inspiration_score>  (3179) 
None

$$$$
ADGHGTBLPQHOCM-UHFFFAOYSA-N-P214-P214-P301-601526
     RDKit          3D

 26 29  0  0  0  0  0  0  0  0999 V2000
   -4.4594    7.0547  -17.1429 C   0  0  0  0  0  0  0  0  0  0  0  0
   -5.2893    6.1957  -16.2313 C   0  0  0  0  0  0  0  0  0  0  0  0
   -4.8961    6.0771  -14.9010 C   0  0  0  0  0  0  0  0  0  0  0  0
   -5.6640    5.3517  -14.0008 C   0  0  0  0  0  0  0  0  0  0  0  0
   -6.8881    4.7666  -14.3525 C   0  0  0  0  0  0  0  0  0  0  0  0
   -7.6363    4.0480  -13.2862 C   0  0  0  0  0  0  0  0  0  0  0  0
   -8.0384    2.9688  -13.4684 O   0  0  0  0  0  0  0  0  0  0  0  0
   -7.6489    4.9215  -12.0066 N   0  0  0  0  0  0  0  0  0  0  0  0
   -8.0587    4.6205  -10.7097 C   0  0  0  0  0  0  0  0  0  0  0  0
   -8.6306    3.4170  -10.3099 C   0  0  0  0  0  0  0  0  0  0  0  0
   -8.8693    3.2678   -8.9478 C   0  0  0  0  0  0  0  0  0  0  0  0
   -8.5358    4.2447   -7.9980 C   0  0  0  0  0  0  0  0  0  0  0  0
   -7.9875    5.4459   -8.3908 C   0  0  0  0  0  0  0  0  0  0  0  0
   -7.7620    5.6199   -9.7507 C   0  0  0  0  0  0  0  0  0  0  0  0
   -7.1967    6.7699  -10.1594 F   0  0  0  0  0  0  0  0  0  0  0  0
   -8.8682    3.7687   -6.6251 C   0  0  0  0  0  0  0  0  0  0  0  0
   -9.5048    2.5122   -6.8759 N   0  0  0  0  0  0  0  0  0  0  0  0
   -9.5102    2.1671   -8.2116 C   0  0  0  0  0  0  0  0  0  0  0  0
  -10.0106    1.1685   -8.6778 O   0  0  0  0  0  0  0  0  0  0  0  0
   -7.2334    4.7996  -15.7069 C   0  0  0  0  0  0  0  0  0  0  0  0
   -8.3030    4.2626  -16.4030 N   0  0  0  0  0  0  0  0  0  0  0  0
   -8.1077    4.4186  -17.7545 C   0  0  0  0  0  0  0  0  0  0  0  0
   -6.9080    5.0713  -17.9290 C   0  0  0  0  0  0  0  0  0  0  0  0
   -6.1688    5.2711  -19.1365 C   0  0  0  0  0  0  0  0  0  0  0  0
   -5.4191    5.4700  -20.0017 N   0  0  0  0  0  0  0  0  0  0  0  0
   -6.4173    5.4419  -16.6484 C   0  0  0  0  0  0  0  0  0  0  0  0
  1  2  1  0
  2  3  2  0
  3  4  1  0
  4  5  2  0
  5  6  1  0
  6  7  2  0
  6  8  1  0
  8  9  1  0
  9 10  2  0
 10 11  1  0
 11 12  2  0
 12 13  1  0
 13 14  2  0
 14 15  1  0
 12 16  1  0
 16 17  1  0
 17 18  1  0
 18 19  2  0
  5 20  1  0
 20 21  1  0
 21 22  1  0
 22 23  2  0
 23 24  1  0
 24 25  3  0
 23 26  1  0
 26  2  1  0
 14  9  1  0
 26 20  2  0
 18 11  1  0
M  END
>  <energy_score>  (3180) 
-24.575351

>  <alias>  (3180) 
ADGHGTBLPQHOCM-UHFFFAOYSA-N-P214-P214-P301-601526

>  <HIPPO Pose ID>  (3180) 
76597

>  <smiles>  (3180) 
Cc1ccc(C(=O)Nc2cc3c(cc2F)CNC3=O)c2[nH]cc(C#N)c12

>  <inchikey>  (3180) 
ADGHGTBLPQHOCM-UHFFFAOYSA-N

>  <distance_score>  (3180) 
1.741742

>  <ref_mols>  (3180) 
Z4983a,Z3842a

>  <ref_pdb>  (3180) 
Z3093a

>  <HIPPO Compound ID>  (3180) 
142781

>  <name>  (3180) 
ADGHGTBLPQHOCM-UHFFFAOYSA-N-P214-P214-P301-601526

>  <inspiration_score>  (3180) 
None

$$$$
RWQRSTJNVOGQIH-UHFFFAOYSA-N-P301-P214-P301-601526
     RDKit          3D

 27 30  0  0  0  0  0  0  0  0999 V2000
  -11.5973    1.9550   -5.0009 C   0  0  0  0  0  0  0  0  0  0  0  0
  -10.4715    2.8431   -5.4603 C   0  0  0  0  0  0  0  0  0  0  0  0
   -9.9921    2.3366   -6.8121 C   0  0  0  0  0  0  0  0  0  0  0  0
   -8.8089    3.0164   -7.2869 N   0  0  0  0  0  0  0  0  0  0  0  0
   -8.8110    4.4790   -7.2045 C   0  0  0  0  0  0  0  0  0  0  0  0
   -8.2205    4.9492   -8.4863 C   0  0  0  0  0  0  0  0  0  0  0  0
   -7.9910    6.2424   -8.9158 C   0  0  0  0  0  0  0  0  0  0  0  0
   -7.4337    6.4193  -10.1804 C   0  0  0  0  0  0  0  0  0  0  0  0
   -7.0369    5.3075  -10.9348 C   0  0  0  0  0  0  0  0  0  0  0  0
   -6.5684    5.4900  -12.2205 N   0  0  0  0  0  0  0  0  0  0  0  0
   -5.6135    4.6279  -13.0700 C   0  0  0  0  0  0  0  0  0  0  0  0
   -5.0121    3.6703  -12.7923 O   0  0  0  0  0  0  0  0  0  0  0  0
   -5.6145    5.1374  -14.4496 C   0  0  0  0  0  0  0  0  0  0  0  0
   -4.5031    5.5566  -15.1494 C   0  0  0  0  0  0  0  0  0  0  0  0
   -4.6042    5.8758  -16.5039 C   0  0  0  0  0  0  0  0  0  0  0  0
   -5.8046    5.6878  -17.2241 C   0  0  0  0  0  0  0  0  0  0  0  0
   -5.7889    5.9192  -18.7096 C   0  0  0  0  0  0  0  0  0  0  0  0
   -6.9346    5.2011  -16.5144 C   0  0  0  0  0  0  0  0  0  0  0  0
   -8.2386    4.7319  -16.8389 C   0  0  0  0  0  0  0  0  0  0  0  0
   -8.8696    4.4879  -18.0859 C   0  0  0  0  0  0  0  0  0  0  0  0
   -9.5187    4.2091  -19.0021 N   0  0  0  0  0  0  0  0  0  0  0  0
   -8.9091    4.4550  -15.6700 C   0  0  0  0  0  0  0  0  0  0  0  0
   -8.0327    4.5770  -14.6466 N   0  0  0  0  0  0  0  0  0  0  0  0
   -6.8200    5.0059  -15.1374 C   0  0  0  0  0  0  0  0  0  0  0  0
   -7.2794    4.0050  -10.4939 C   0  0  0  0  0  0  0  0  0  0  0  0
   -7.9268    3.8518   -9.2891 C   0  0  0  0  0  0  0  0  0  0  0  0
   -8.4973    2.6172   -8.6800 C   0  0  0  0  0  0  0  0  0  0  0  0
  1  2  1  0
  2  3  1  0
  3  4  1  0
  4  5  1  0
  5  6  1  0
  6  7  2  0
  7  8  1  0
  8  9  2  0
  9 10  1  0
 10 11  1  0
 11 12  2  0
 11 13  1  0
 13 14  2  0
 14 15  1  0
 15 16  2  0
 16 17  1  0
 16 18  1  0
 18 19  1  0
 19 20  1  0
 20 21  3  0
 19 22  2  0
 22 23  1  0
 23 24  1  0
  9 25  1  0
 25 26  2  0
 26 27  1  0
 27  4  1  0
 26  6  1  0
 24 13  1  0
 24 18  2  0
M  END
>  <energy_score>  (3181) 
-28.653767

>  <alias>  (3181) 
RWQRSTJNVOGQIH-UHFFFAOYSA-N-P301-P214-P301-601526

>  <HIPPO Pose ID>  (3181) 
76608

>  <smiles>  (3181) 
CCCN1Cc2ccc(NC(=O)c3ccc(C)c4c(C#N)c[nH]c34)cc2C1

>  <inchikey>  (3181) 
RWQRSTJNVOGQIH-UHFFFAOYSA-N

>  <distance_score>  (3181) 
1.950393

>  <ref_mols>  (3181) 
Z4983a,Z3842a

>  <ref_pdb>  (3181) 
Z3093a

>  <HIPPO Compound ID>  (3181) 
142786

>  <name>  (3181) 
RWQRSTJNVOGQIH-UHFFFAOYSA-N-P301-P214-P301-601526

>  <inspiration_score>  (3181) 
None

$$$$
NUAAYKYDGCZRCQ-UHFFFAOYSA-N-P301-P214-P301-601526
     RDKit          3D

 27 30  0  0  0  0  0  0  0  0999 V2000
  -10.3412    2.8582   -4.9027 C   0  0  0  0  0  0  0  0  0  0  0  0
  -10.1492    2.3163   -6.2996 C   0  0  0  0  0  0  0  0  0  0  0  0
   -9.2229    3.0833   -7.1026 N   0  0  0  0  0  0  0  0  0  0  0  0
   -8.9374    4.4841   -6.8870 C   0  0  0  0  0  0  0  0  0  0  0  0
   -8.3352    4.9034   -8.1820 C   0  0  0  0  0  0  0  0  0  0  0  0
   -7.9745    6.1645   -8.6141 C   0  0  0  0  0  0  0  0  0  0  0  0
   -7.4585    6.2905   -9.9060 C   0  0  0  0  0  0  0  0  0  0  0  0
   -7.2302    5.1546  -10.7015 C   0  0  0  0  0  0  0  0  0  0  0  0
   -6.7289    5.3355  -11.9807 N   0  0  0  0  0  0  0  0  0  0  0  0
   -5.8571    4.4117  -12.8544 C   0  0  0  0  0  0  0  0  0  0  0  0
   -5.3596    3.3881  -12.6078 O   0  0  0  0  0  0  0  0  0  0  0  0
   -5.7843    4.9619  -14.2219 C   0  0  0  0  0  0  0  0  0  0  0  0
   -4.6291    5.3827  -14.8514 C   0  0  0  0  0  0  0  0  0  0  0  0
   -4.6485    5.7576  -16.1982 C   0  0  0  0  0  0  0  0  0  0  0  0
   -5.8106    5.6270  -16.9892 C   0  0  0  0  0  0  0  0  0  0  0  0
   -5.7094    5.9065  -18.4649 C   0  0  0  0  0  0  0  0  0  0  0  0
   -6.9853    5.1451  -16.3536 C   0  0  0  0  0  0  0  0  0  0  0  0
   -8.2744    4.7079  -16.7666 C   0  0  0  0  0  0  0  0  0  0  0  0
   -8.8356    4.4846  -18.0509 C   0  0  0  0  0  0  0  0  0  0  0  0
   -9.4366    4.2096  -19.0007 N   0  0  0  0  0  0  0  0  0  0  0  0
   -9.0132    4.4157  -15.6455 C   0  0  0  0  0  0  0  0  0  0  0  0
   -8.1996    4.4952  -14.5672 N   0  0  0  0  0  0  0  0  0  0  0  0
   -6.9512    4.8991  -14.9773 C   0  0  0  0  0  0  0  0  0  0  0  0
   -7.6103    3.8822  -10.2685 C   0  0  0  0  0  0  0  0  0  0  0  0
   -8.2048    3.8019   -9.0253 C   0  0  0  0  0  0  0  0  0  0  0  0
   -8.8999    2.6791   -8.3905 C   0  0  0  0  0  0  0  0  0  0  0  0
   -9.2381    1.6643   -8.9604 O   0  0  0  0  0  0  0  0  0  0  0  0
  1  2  1  0
  2  3  1  0
  3  4  1  0
  4  5  1  0
  5  6  2  0
  6  7  1  0
  7  8  2  0
  8  9  1  0
  9 10  1  0
 10 11  2  0
 10 12  1  0
 12 13  2  0
 13 14  1  0
 14 15  2  0
 15 16  1  0
 15 17  1  0
 17 18  1  0
 18 19  1  0
 19 20  3  0
 18 21  2  0
 21 22  1  0
 22 23  1  0
  8 24  1  0
 24 25  2  0
 25 26  1  0
 26 27  2  0
 26  3  1  0
 25  5  1  0
 23 12  1  0
 23 17  2  0
M  END
>  <energy_score>  (3182) 
-10.536486

>  <alias>  (3182) 
NUAAYKYDGCZRCQ-UHFFFAOYSA-N-P301-P214-P301-601526

>  <HIPPO Pose ID>  (3182) 
76610

>  <smiles>  (3182) 
CCN1Cc2ccc(NC(=O)c3ccc(C)c4c(C#N)c[nH]c34)cc2C1=O

>  <inchikey>  (3182) 
NUAAYKYDGCZRCQ-UHFFFAOYSA-N

>  <distance_score>  (3182) 
1.880563

>  <ref_mols>  (3182) 
Z4983a,Z3842a

>  <ref_pdb>  (3182) 
Z3093a

>  <HIPPO Compound ID>  (3182) 
142787

>  <name>  (3182) 
NUAAYKYDGCZRCQ-UHFFFAOYSA-N-P301-P214-P301-601526

>  <inspiration_score>  (3182) 
None

$$$$
PISLUNXJGWEFNY-UHFFFAOYSA-N-P301-P214-P301-601526
     RDKit          3D

 27 30  0  0  0  0  0  0  0  0999 V2000
   -4.4256    7.1267  -17.3433 C   0  0  0  0  0  0  0  0  0  0  0  0
   -5.2512    6.3270  -16.3770 C   0  0  0  0  0  0  0  0  0  0  0  0
   -4.8464    6.2957  -15.0444 C   0  0  0  0  0  0  0  0  0  0  0  0
   -5.6090    5.6345  -14.0960 C   0  0  0  0  0  0  0  0  0  0  0  0
   -6.8285    5.0257  -14.4127 C   0  0  0  0  0  0  0  0  0  0  0  0
   -7.5463    4.3758  -13.2996 C   0  0  0  0  0  0  0  0  0  0  0  0
   -7.8507    3.2535  -13.3658 O   0  0  0  0  0  0  0  0  0  0  0  0
   -7.6762    5.3818  -12.1334 N   0  0  0  0  0  0  0  0  0  0  0  0
   -8.1035    5.1964  -10.8281 C   0  0  0  0  0  0  0  0  0  0  0  0
   -7.9833    6.2998   -9.9623 C   0  0  0  0  0  0  0  0  0  0  0  0
   -8.2245    6.1705   -8.5963 C   0  0  0  0  0  0  0  0  0  0  0  0
   -8.5985    4.9293   -8.1200 C   0  0  0  0  0  0  0  0  0  0  0  0
   -8.7580    3.8459   -8.9945 C   0  0  0  0  0  0  0  0  0  0  0  0
   -8.5093    3.9551  -10.3517 C   0  0  0  0  0  0  0  0  0  0  0  0
   -9.1886    2.6429   -8.2249 C   0  0  0  0  0  0  0  0  0  0  0  0
   -9.5743    3.1923   -6.9055 N   0  0  0  0  0  0  0  0  0  0  0  0
   -9.4858    2.1983   -5.8645 C   0  0  0  0  0  0  0  0  0  0  0  0
   -8.8505    4.4699   -6.7026 C   0  0  0  0  0  0  0  0  0  0  0  0
   -9.7371    5.4271   -5.8931 C   0  0  0  0  0  0  0  0  0  0  0  0
   -7.4937    4.4040   -5.9793 C   0  0  0  0  0  0  0  0  0  0  0  0
   -7.1959    4.9753  -15.7569 C   0  0  0  0  0  0  0  0  0  0  0  0
   -8.2777    4.4023  -16.4022 N   0  0  0  0  0  0  0  0  0  0  0  0
   -8.1029    4.4794  -17.7626 C   0  0  0  0  0  0  0  0  0  0  0  0
   -6.9089    5.1266  -17.9904 C   0  0  0  0  0  0  0  0  0  0  0  0
   -6.1943    5.2748  -19.2169 C   0  0  0  0  0  0  0  0  0  0  0  0
   -5.4356    5.4415  -20.0799 N   0  0  0  0  0  0  0  0  0  0  0  0
   -6.3898    5.5582  -16.7409 C   0  0  0  0  0  0  0  0  0  0  0  0
  1  2  1  0
  2  3  2  0
  3  4  1  0
  4  5  2  0
  5  6  1  0
  6  7  2  0
  6  8  1  0
  8  9  1  0
  9 10  2  0
 10 11  1  0
 11 12  2  0
 12 13  1  0
 13 14  2  0
 13 15  1  0
 15 16  1  0
 16 17  1  0
 16 18  1  0
 18 19  1  0
 18 20  1  0
  5 21  1  0
 21 22  1  0
 22 23  1  0
 23 24  2  0
 24 25  1  0
 25 26  3  0
 24 27  1  0
 27  2  1  0
 14  9  1  0
 27 21  2  0
 18 12  1  0
M  END
>  <energy_score>  (3183) 
-48.61991

>  <alias>  (3183) 
PISLUNXJGWEFNY-UHFFFAOYSA-N-P301-P214-P301-601526

>  <HIPPO Pose ID>  (3183) 
76612

>  <smiles>  (3183) 
Cc1ccc(C(=O)Nc2ccc3c(c2)CN(C)C3(C)C)c2[nH]cc(C#N)c12

>  <inchikey>  (3183) 
PISLUNXJGWEFNY-UHFFFAOYSA-N

>  <distance_score>  (3183) 
1.795127

>  <ref_mols>  (3183) 
Z4983a,Z3842a

>  <ref_pdb>  (3183) 
Z3093a

>  <HIPPO Compound ID>  (3183) 
142788

>  <name>  (3183) 
PISLUNXJGWEFNY-UHFFFAOYSA-N-P301-P214-P301-601526

>  <inspiration_score>  (3183) 
None

$$$$
YRIPQWNIHSFYGM-UHFFFAOYSA-N-P301-P214-P301-601526
     RDKit          3D

 27 30  0  0  0  0  0  0  0  0999 V2000
  -10.9089    2.2117   -5.4890 C   0  0  0  0  0  0  0  0  0  0  0  0
   -9.7845    1.7486   -6.3932 C   0  0  0  0  0  0  0  0  0  0  0  0
   -9.4003    2.7106   -7.4015 N   0  0  0  0  0  0  0  0  0  0  0  0
   -8.8239    2.2429   -8.6554 C   0  0  0  0  0  0  0  0  0  0  0  0
   -8.2300    3.4865   -9.2205 C   0  0  0  0  0  0  0  0  0  0  0  0
   -7.5523    3.6855  -10.4064 C   0  0  0  0  0  0  0  0  0  0  0  0
   -7.2444    5.0037  -10.7712 C   0  0  0  0  0  0  0  0  0  0  0  0
   -6.7370    5.2486  -12.0357 N   0  0  0  0  0  0  0  0  0  0  0  0
   -5.8150    4.3926  -12.9282 C   0  0  0  0  0  0  0  0  0  0  0  0
   -5.2759    3.3834  -12.7087 O   0  0  0  0  0  0  0  0  0  0  0  0
   -5.7495    4.9894  -14.2757 C   0  0  0  0  0  0  0  0  0  0  0  0
   -4.5986    5.4022  -14.9164 C   0  0  0  0  0  0  0  0  0  0  0  0
   -4.6319    5.7804  -16.2618 C   0  0  0  0  0  0  0  0  0  0  0  0
   -5.8020    5.6511  -17.0419 C   0  0  0  0  0  0  0  0  0  0  0  0
   -5.7131    5.9273  -18.5186 C   0  0  0  0  0  0  0  0  0  0  0  0
   -6.9716    5.1708  -16.3965 C   0  0  0  0  0  0  0  0  0  0  0  0
   -8.2624    4.7252  -16.7968 C   0  0  0  0  0  0  0  0  0  0  0  0
   -8.8313    4.4900  -18.0752 C   0  0  0  0  0  0  0  0  0  0  0  0
   -9.4380    4.2023  -19.0175 N   0  0  0  0  0  0  0  0  0  0  0  0
   -8.9933    4.4371  -15.6690 C   0  0  0  0  0  0  0  0  0  0  0  0
   -8.1724    4.5319  -14.5983 N   0  0  0  0  0  0  0  0  0  0  0  0
   -6.9258    4.9319  -15.0202 C   0  0  0  0  0  0  0  0  0  0  0  0
   -7.5901    6.0897   -9.9509 C   0  0  0  0  0  0  0  0  0  0  0  0
   -8.1734    5.8659   -8.7046 C   0  0  0  0  0  0  0  0  0  0  0  0
   -8.4797    4.5594   -8.3733 C   0  0  0  0  0  0  0  0  0  0  0  0
   -9.1242    4.0459   -7.1635 C   0  0  0  0  0  0  0  0  0  0  0  0
   -9.3423    4.7351   -6.1836 O   0  0  0  0  0  0  0  0  0  0  0  0
  1  2  1  0
  2  3  1  0
  3  4  1  0
  4  5  1  0
  5  6  2  0
  6  7  1  0
  7  8  1  0
  8  9  1  0
  9 10  2  0
  9 11  1  0
 11 12  2  0
 12 13  1  0
 13 14  2  0
 14 15  1  0
 14 16  1  0
 16 17  1  0
 17 18  1  0
 18 19  3  0
 17 20  2  0
 20 21  1  0
 21 22  1  0
  7 23  2  0
 23 24  1  0
 24 25  2  0
 25 26  1  0
 26 27  2  0
 26  3  1  0
 25  5  1  0
 22 11  1  0
 22 16  2  0
M  END
>  <energy_score>  (3184) 
-15.87938

>  <alias>  (3184) 
YRIPQWNIHSFYGM-UHFFFAOYSA-N-P301-P214-P301-601526

>  <HIPPO Pose ID>  (3184) 
76616

>  <smiles>  (3184) 
CCN1Cc2cc(NC(=O)c3ccc(C)c4c(C#N)c[nH]c34)ccc2C1=O

>  <inchikey>  (3184) 
YRIPQWNIHSFYGM-UHFFFAOYSA-N

>  <distance_score>  (3184) 
1.894937

>  <ref_mols>  (3184) 
Z4983a,Z3842a

>  <ref_pdb>  (3184) 
Z3093a

>  <HIPPO Compound ID>  (3184) 
142790

>  <name>  (3184) 
YRIPQWNIHSFYGM-UHFFFAOYSA-N-P301-P214-P301-601526

>  <inspiration_score>  (3184) 
None

$$$$
MYSYHPXYYCVQOW-UHFFFAOYSA-N-P214-P214-P301-601526
     RDKit          3D

 28 31  0  0  0  0  0  0  0  0999 V2000
   -4.2736    6.9568  -17.2564 C   0  0  0  0  0  0  0  0  0  0  0  0
   -5.0856    6.0121  -16.4167 C   0  0  0  0  0  0  0  0  0  0  0  0
   -4.6295    5.7124  -15.1364 C   0  0  0  0  0  0  0  0  0  0  0  0
   -5.3998    4.9332  -14.2910 C   0  0  0  0  0  0  0  0  0  0  0  0
   -6.6783    4.4821  -14.6507 C   0  0  0  0  0  0  0  0  0  0  0  0
   -7.4610    3.8829  -13.5556 C   0  0  0  0  0  0  0  0  0  0  0  0
   -7.8503    2.7864  -13.5710 O   0  0  0  0  0  0  0  0  0  0  0  0
   -7.5262    4.9526  -12.4441 N   0  0  0  0  0  0  0  0  0  0  0  0
   -7.9808    4.8673  -11.1406 C   0  0  0  0  0  0  0  0  0  0  0  0
   -7.7358    6.0388  -10.3835 C   0  0  0  0  0  0  0  0  0  0  0  0
   -7.9320    6.0665   -9.0151 C   0  0  0  0  0  0  0  0  0  0  0  0
   -8.3985    4.9113   -8.4365 C   0  0  0  0  0  0  0  0  0  0  0  0
   -8.7047    3.7730   -9.1888 C   0  0  0  0  0  0  0  0  0  0  0  0
   -8.4932    3.7135  -10.5541 C   0  0  0  0  0  0  0  0  0  0  0  0
   -9.2758    2.7831   -8.2587 C   0  0  0  0  0  0  0  0  0  0  0  0
   -9.6599    1.6747   -8.5666 O   0  0  0  0  0  0  0  0  0  0  0  0
   -9.3183    3.3975   -7.0010 N   0  0  0  0  0  0  0  0  0  0  0  0
   -9.5599    2.6734   -5.7653 C   0  0  0  0  0  0  0  0  0  0  0  0
   -9.4326    3.5721   -4.5241 C   0  0  0  0  0  0  0  0  0  0  0  0
  -10.9287    2.0097   -5.7465 C   0  0  0  0  0  0  0  0  0  0  0  0
   -8.6411    4.6660   -7.0016 C   0  0  0  0  0  0  0  0  0  0  0  0
   -7.0863    4.6683  -15.9648 C   0  0  0  0  0  0  0  0  0  0  0  0
   -8.2194    4.2848  -16.6580 N   0  0  0  0  0  0  0  0  0  0  0  0
   -8.0415    4.5332  -17.9985 C   0  0  0  0  0  0  0  0  0  0  0  0
   -6.8118    5.1351  -18.1502 C   0  0  0  0  0  0  0  0  0  0  0  0
   -6.0840    5.4148  -19.3462 C   0  0  0  0  0  0  0  0  0  0  0  0
   -5.3396    5.6829  -20.1973 N   0  0  0  0  0  0  0  0  0  0  0  0
   -6.2639    5.3564  -16.8634 C   0  0  0  0  0  0  0  0  0  0  0  0
  1  2  1  0
  2  3  2  0
  3  4  1  0
  4  5  2  0
  5  6  1  0
  6  7  2  0
  6  8  1  0
  8  9  1  0
  9 10  2  0
 10 11  1  0
 11 12  2  0
 12 13  1  0
 13 14  2  0
 13 15  1  0
 15 16  2  0
 15 17  1  0
 17 18  1  0
 18 19  1  0
 18 20  1  0
 17 21  1  0
  5 22  1  0
 22 23  1  0
 23 24  1  0
 24 25  2  0
 25 26  1  0
 26 27  3  0
 25 28  1  0
 28  2  1  0
 14  9  1  0
 28 22  2  0
 21 12  1  0
M  END
>  <energy_score>  (3185) 
-16.664239

>  <alias>  (3185) 
MYSYHPXYYCVQOW-UHFFFAOYSA-N-P214-P214-P301-601526

>  <HIPPO Pose ID>  (3185) 
76619

>  <smiles>  (3185) 
Cc1ccc(C(=O)Nc2ccc3c(c2)C(=O)N(C(C)C)C3)c2[nH]cc(C#N)c12

>  <inchikey>  (3185) 
MYSYHPXYYCVQOW-UHFFFAOYSA-N

>  <distance_score>  (3185) 
1.733016

>  <ref_mols>  (3185) 
Z4983a,Z3842a

>  <ref_pdb>  (3185) 
Z3093a

>  <HIPPO Compound ID>  (3185) 
142792

>  <name>  (3185) 
MYSYHPXYYCVQOW-UHFFFAOYSA-N-P214-P214-P301-601526

>  <inspiration_score>  (3185) 
None

$$$$
ZSYOCLOOTAWKGX-UHFFFAOYSA-N-P224-P110-P224-601526
     RDKit          3D

 28 31  0  0  0  0  0  0  0  0999 V2000
   -3.7343    4.7493  -14.3897 C   0  0  0  0  0  0  0  0  0  0  0  0
   -3.9854    5.0397  -12.9125 C   0  0  0  0  0  0  0  0  0  0  0  0
   -4.4735    6.4814  -12.7393 C   0  0  0  0  0  0  0  0  0  0  0  0
   -4.9754    4.0507  -12.2006 C   0  0  0  0  0  0  0  0  0  0  0  0
   -4.6461    3.8800  -10.6454 C   0  0  0  0  0  0  0  0  0  0  0  0
   -5.5170    3.2677   -9.5702 N   0  0  0  0  0  0  0  0  0  0  0  0
   -6.3223    4.2980   -8.8401 C   0  0  0  0  0  0  0  0  0  0  0  0
   -7.5441    4.4384   -9.6830 C   0  0  0  0  0  0  0  0  0  0  0  0
   -8.1223    5.6167  -10.0957 C   0  0  0  0  0  0  0  0  0  0  0  0
   -8.6557    5.5971  -11.3753 C   0  0  0  0  0  0  0  0  0  0  0  0
   -8.7453    4.3888  -12.0971 C   0  0  0  0  0  0  0  0  0  0  0  0
   -8.6652    4.4102  -13.4766 N   0  0  0  0  0  0  0  0  0  0  0  0
   -8.2402    5.5289  -14.4309 C   0  0  0  0  0  0  0  0  0  0  0  0
   -7.9624    6.6377  -14.2171 O   0  0  0  0  0  0  0  0  0  0  0  0
   -8.0923    5.0158  -15.8080 C   0  0  0  0  0  0  0  0  0  0  0  0
   -9.0473    4.2200  -16.4184 C   0  0  0  0  0  0  0  0  0  0  0  0
   -8.8421    3.7680  -17.7188 C   0  0  0  0  0  0  0  0  0  0  0  0
   -7.6480    4.1151  -18.3792 C   0  0  0  0  0  0  0  0  0  0  0  0
   -7.1779    3.6492  -19.9576 S   0  0  0  0  0  0  0  0  0  0  0  0
   -5.7322    4.5307  -19.8908 C   0  0  0  0  0  0  0  0  0  0  0  0
   -5.5482    5.1057  -18.6583 C   0  0  0  0  0  0  0  0  0  0  0  0
   -4.3574    5.8266  -18.3373 C   0  0  0  0  0  0  0  0  0  0  0  0
   -3.3843    6.4128  -18.0981 N   0  0  0  0  0  0  0  0  0  0  0  0
   -6.6642    4.9028  -17.7790 C   0  0  0  0  0  0  0  0  0  0  0  0
   -6.9049    5.3578  -16.4680 C   0  0  0  0  0  0  0  0  0  0  0  0
   -8.4709    3.1580  -11.5214 C   0  0  0  0  0  0  0  0  0  0  0  0
   -7.7156    3.2348  -10.3822 C   0  0  0  0  0  0  0  0  0  0  0  0
   -6.5629    2.3255  -10.0677 C   0  0  0  0  0  0  0  0  0  0  0  0
  1  2  1  0
  2  3  1  0
  2  4  1  0
  4  5  1  0
  5  6  1  0
  6  7  1  0
  7  8  1  0
  8  9  2  0
  9 10  1  0
 10 11  2  0
 11 12  1  0
 12 13  1  0
 13 14  2  0
 13 15  1  0
 15 16  2  0
 16 17  1  0
 17 18  2  0
 18 19  1  0
 19 20  1  0
 20 21  2  0
 21 22  1  0
 22 23  3  0
 21 24  1  0
 24 25  2  0
 11 26  1  0
 26 27  2  0
 27 28  1  0
 28  6  1  0
 27  8  1  0
 25 15  1  0
 24 18  1  0
M  END
>  <energy_score>  (3186) 
-2.467417

>  <alias>  (3186) 
ZSYOCLOOTAWKGX-UHFFFAOYSA-N-P224-P110-P224-601526

>  <HIPPO Pose ID>  (3186) 
76654

>  <smiles>  (3186) 
CC(C)CCN1Cc2ccc(NC(=O)c3ccc4scc(C#N)c4c3)cc2C1

>  <inchikey>  (3186) 
ZSYOCLOOTAWKGX-UHFFFAOYSA-N

>  <distance_score>  (3186) 
1.758953

>  <ref_mols>  (3186) 
Z3970a,Z2057a

>  <ref_pdb>  (3186) 
Z3093a

>  <HIPPO Compound ID>  (3186) 
141006

>  <name>  (3186) 
ZSYOCLOOTAWKGX-UHFFFAOYSA-N-P224-P110-P224-601526

>  <inspiration_score>  (3186) 
None

$$$$
IJJIQIFRAHDFRB-UHFFFAOYSA-N-P224-P110-P224-601526
     RDKit          3D

 29 32  0  0  0  0  0  0  0  0999 V2000
   -3.3226    5.4317  -14.9978 C   0  0  0  0  0  0  0  0  0  0  0  0
   -4.2981    5.2775  -13.8462 C   0  0  0  0  0  0  0  0  0  0  0  0
   -4.2249    3.9361  -13.3834 O   0  0  0  0  0  0  0  0  0  0  0  0
   -5.0963    3.6012  -12.2800 C   0  0  0  0  0  0  0  0  0  0  0  0
   -4.7315    4.2898  -10.9558 C   0  0  0  0  0  0  0  0  0  0  0  0
   -4.9095    3.4480   -9.6607 C   0  0  0  0  0  0  0  0  0  0  0  0
   -6.1658    3.2784   -8.9131 N   0  0  0  0  0  0  0  0  0  0  0  0
   -6.8651    4.5064   -8.5048 C   0  0  0  0  0  0  0  0  0  0  0  0
   -7.8470    4.6998   -9.6070 C   0  0  0  0  0  0  0  0  0  0  0  0
   -8.2199    5.8879  -10.1836 C   0  0  0  0  0  0  0  0  0  0  0  0
   -8.5998    5.8110  -11.5134 C   0  0  0  0  0  0  0  0  0  0  0  0
   -8.7269    4.5630  -12.1613 C   0  0  0  0  0  0  0  0  0  0  0  0
   -8.6322    4.5063  -13.5354 N   0  0  0  0  0  0  0  0  0  0  0  0
   -8.1496    5.5530  -14.5435 C   0  0  0  0  0  0  0  0  0  0  0  0
   -7.8264    6.6592  -14.3858 O   0  0  0  0  0  0  0  0  0  0  0  0
   -8.0014    4.9813  -15.8979 C   0  0  0  0  0  0  0  0  0  0  0  0
   -8.9723    4.1832  -16.4813 C   0  0  0  0  0  0  0  0  0  0  0  0
   -8.7910    3.7173  -17.7805 C   0  0  0  0  0  0  0  0  0  0  0  0
   -7.6151    4.0669  -18.4731 C   0  0  0  0  0  0  0  0  0  0  0  0
   -7.1737    3.5878  -20.0537 S   0  0  0  0  0  0  0  0  0  0  0  0
   -5.7444    4.4938  -20.0413 C   0  0  0  0  0  0  0  0  0  0  0  0
   -5.5464    5.1022  -18.8280 C   0  0  0  0  0  0  0  0  0  0  0  0
   -4.3743    5.8744  -18.5658 C   0  0  0  0  0  0  0  0  0  0  0  0
   -3.4156    6.5019  -18.3780 N   0  0  0  0  0  0  0  0  0  0  0  0
   -6.6271    4.8747  -17.9104 C   0  0  0  0  0  0  0  0  0  0  0  0
   -6.8395    5.3349  -16.5986 C   0  0  0  0  0  0  0  0  0  0  0  0
   -8.6088    3.3596  -11.4850 C   0  0  0  0  0  0  0  0  0  0  0  0
   -8.0493    3.4621  -10.2395 C   0  0  0  0  0  0  0  0  0  0  0  0
   -7.1945    2.4379   -9.5725 C   0  0  0  0  0  0  0  0  0  0  0  0
  1  2  1  0
  2  3  1  0
  3  4  1  0
  4  5  1  0
  5  6  1  0
  6  7  1  0
  7  8  1  0
  8  9  1  0
  9 10  2  0
 10 11  1  0
 11 12  2  0
 12 13  1  0
 13 14  1  0
 14 15  2  0
 14 16  1  0
 16 17  2  0
 17 18  1  0
 18 19  2  0
 19 20  1  0
 20 21  1  0
 21 22  2  0
 22 23  1  0
 23 24  3  0
 22 25  1  0
 25 26  2  0
 12 27  1  0
 27 28  2  0
 28 29  1  0
 29  7  1  0
 28  9  1  0
 26 16  1  0
 25 19  1  0
M  END
>  <energy_score>  (3187) 
-22.218604

>  <alias>  (3187) 
IJJIQIFRAHDFRB-UHFFFAOYSA-N-P224-P110-P224-601526

>  <HIPPO Pose ID>  (3187) 
76660

>  <smiles>  (3187) 
CCOCCCN1Cc2ccc(NC(=O)c3ccc4scc(C#N)c4c3)cc2C1

>  <inchikey>  (3187) 
IJJIQIFRAHDFRB-UHFFFAOYSA-N

>  <distance_score>  (3187) 
1.775483

>  <ref_mols>  (3187) 
Z3970a,Z2057a

>  <ref_pdb>  (3187) 
Z3093a

>  <HIPPO Compound ID>  (3187) 
141009

>  <name>  (3187) 
IJJIQIFRAHDFRB-UHFFFAOYSA-N-P224-P110-P224-601526

>  <inspiration_score>  (3187) 
None

$$$$
LTGNPPWXLXHJLJ-UHFFFAOYSA-N-P110-P110-P224-601526
     RDKit          3D

 32 36  0  0  0  0  0  0  0  0999 V2000
   -3.4637    3.6200  -15.4248 C   0  0  0  0  0  0  0  0  0  0  0  0
   -3.3321    4.6008  -14.2657 C   0  0  0  0  0  0  0  0  0  0  0  0
   -1.8608    4.8062  -13.9000 C   0  0  0  0  0  0  0  0  0  0  0  0
   -4.1198    4.1775  -13.0345 C   0  0  0  0  0  0  0  0  0  0  0  0
   -4.6611    5.1570  -12.2014 C   0  0  0  0  0  0  0  0  0  0  0  0
   -5.2753    4.8259  -10.9677 C   0  0  0  0  0  0  0  0  0  0  0  0
   -5.4635    3.4995  -10.5398 C   0  0  0  0  0  0  0  0  0  0  0  0
   -6.1699    3.1113   -9.3427 N   0  0  0  0  0  0  0  0  0  0  0  0
   -6.8334    4.1915   -8.5305 C   0  0  0  0  0  0  0  0  0  0  0  0
   -8.0780    4.4453   -9.3591 C   0  0  0  0  0  0  0  0  0  0  0  0
   -8.4316    5.7000   -9.8226 C   0  0  0  0  0  0  0  0  0  0  0  0
   -8.7379    5.7827  -11.1765 C   0  0  0  0  0  0  0  0  0  0  0  0
   -8.8211    4.6200  -11.9649 C   0  0  0  0  0  0  0  0  0  0  0  0
   -8.6315    4.6869  -13.3363 N   0  0  0  0  0  0  0  0  0  0  0  0
   -8.1898    5.8582  -14.2269 C   0  0  0  0  0  0  0  0  0  0  0  0
   -7.9889    6.9751  -13.9619 O   0  0  0  0  0  0  0  0  0  0  0  0
   -7.9057    5.3942  -15.5992 C   0  0  0  0  0  0  0  0  0  0  0  0
   -8.8243    4.6632  -16.3373 C   0  0  0  0  0  0  0  0  0  0  0  0
   -8.5343    4.3293  -17.6569 C   0  0  0  0  0  0  0  0  0  0  0  0
   -7.2795    4.6891  -18.1895 C   0  0  0  0  0  0  0  0  0  0  0  0
   -6.6927    4.3572  -19.7601 S   0  0  0  0  0  0  0  0  0  0  0  0
   -5.2196    5.1242  -19.5055 C   0  0  0  0  0  0  0  0  0  0  0  0
   -5.1354    5.6150  -18.2293 C   0  0  0  0  0  0  0  0  0  0  0  0
   -3.9602    6.2836  -17.7806 C   0  0  0  0  0  0  0  0  0  0  0  0
   -2.9964    6.8239  -17.4240 N   0  0  0  0  0  0  0  0  0  0  0  0
   -6.3234    5.3864  -17.4516 C   0  0  0  0  0  0  0  0  0  0  0  0
   -6.6597    5.7523  -16.1322 C   0  0  0  0  0  0  0  0  0  0  0  0
   -8.7892    3.3481  -11.4010 C   0  0  0  0  0  0  0  0  0  0  0  0
   -8.3263    3.2696  -10.1043 C   0  0  0  0  0  0  0  0  0  0  0  0
   -7.3254    2.2123   -9.6826 C   0  0  0  0  0  0  0  0  0  0  0  0
   -4.9137    2.5231  -11.3894 C   0  0  0  0  0  0  0  0  0  0  0  0
   -4.2523    2.8499  -12.5989 C   0  0  0  0  0  0  0  0  0  0  0  0
  1  2  1  0
  2  3  1  0
  2  4  1  0
  4  5  2  0
  5  6  1  0
  6  7  2  0
  7  8  1  0
  8  9  1  0
  9 10  1  0
 10 11  2  0
 11 12  1  0
 12 13  2  0
 13 14  1  0
 14 15  1  0
 15 16  2  0
 15 17  1  0
 17 18  2  0
 18 19  1  0
 19 20  2  0
 20 21  1  0
 21 22  1  0
 22 23  2  0
 23 24  1  0
 24 25  3  0
 23 26  1  0
 26 27  2  0
 13 28  1  0
 28 29  2  0
 29 30  1  0
  7 31  1  0
 31 32  2  0
 32  4  1  0
 30  8  1  0
 29 10  1  0
 27 17  1  0
 26 20  1  0
M  END
>  <energy_score>  (3188) 
-9.660864

>  <alias>  (3188) 
LTGNPPWXLXHJLJ-UHFFFAOYSA-N-P110-P110-P224-601526

>  <HIPPO Pose ID>  (3188) 
76667

>  <smiles>  (3188) 
CC(C)c1ccc(N2Cc3ccc(NC(=O)c4ccc5scc(C#N)c5c4)cc3C2)cc1

>  <inchikey>  (3188) 
LTGNPPWXLXHJLJ-UHFFFAOYSA-N

>  <distance_score>  (3188) 
1.678245

>  <ref_mols>  (3188) 
Z3970a,Z2057a

>  <ref_pdb>  (3188) 
Z3093a

>  <HIPPO Compound ID>  (3188) 
141013

>  <name>  (3188) 
LTGNPPWXLXHJLJ-UHFFFAOYSA-N-P110-P110-P224-601526

>  <inspiration_score>  (3188) 
None

$$$$
WDJKIIXSCMGOCX-UHFFFAOYSA-N-P308-P269-P308-601526
     RDKit          3D

 30 35  0  0  0  0  0  0  0  0999 V2000
   -9.3819    6.0858  -14.4501 O   0  0  0  0  0  0  0  0  0  0  0  0
   -8.4835    5.3438  -14.4290 C   0  0  0  0  0  0  0  0  0  0  0  0
   -7.6926    4.7696  -13.2423 N   0  0  0  0  0  0  0  0  0  0  0  0
   -7.7734    5.0475  -11.8901 C   0  0  0  0  0  0  0  0  0  0  0  0
   -8.5517    6.1273  -11.4402 C   0  0  0  0  0  0  0  0  0  0  0  0
   -8.6436    6.4461  -10.0882 C   0  0  0  0  0  0  0  0  0  0  0  0
   -7.9510    5.6576   -9.2071 C   0  0  0  0  0  0  0  0  0  0  0  0
   -7.1343    4.6196   -9.6632 C   0  0  0  0  0  0  0  0  0  0  0  0
   -7.0352    4.2858  -10.9988 C   0  0  0  0  0  0  0  0  0  0  0  0
   -6.4882    3.9650   -8.4907 C   0  0  0  0  0  0  0  0  0  0  0  0
   -7.3497    4.3918   -7.3497 N   0  0  0  0  0  0  0  0  0  0  0  0
   -8.4157    3.4892   -7.0930 C   0  0  0  0  0  0  0  0  0  0  0  0
   -8.8285    2.5240   -8.0231 C   0  0  0  0  0  0  0  0  0  0  0  0
   -9.8283    1.6355   -7.7198 C   0  0  0  0  0  0  0  0  0  0  0  0
  -10.4838    1.7542   -6.5097 C   0  0  0  0  0  0  0  0  0  0  0  0
  -10.1347    2.7289   -5.5811 C   0  0  0  0  0  0  0  0  0  0  0  0
   -9.0856    3.5862   -5.8674 C   0  0  0  0  0  0  0  0  0  0  0  0
   -7.9471    5.7004   -7.7141 C   0  0  0  0  0  0  0  0  0  0  0  0
   -7.8915    4.9145  -15.7133 C   0  0  0  0  0  0  0  0  0  0  0  0
   -8.7355    4.4712  -16.7449 C   0  0  0  0  0  0  0  0  0  0  0  0
   -8.2491    4.3703  -18.0466 C   0  0  0  0  0  0  0  0  0  0  0  0
   -6.9277    4.7120  -18.2554 C   0  0  0  0  0  0  0  0  0  0  0  0
   -6.0540    5.1032  -17.2292 C   0  0  0  0  0  0  0  0  0  0  0  0
   -6.5367    5.2130  -15.9405 C   0  0  0  0  0  0  0  0  0  0  0  0
   -4.7360    5.4352  -17.8497 C   0  0  0  0  0  0  0  0  0  0  0  0
   -3.8605    6.5519  -17.3462 C   0  0  0  0  0  0  0  0  0  0  0  0
   -3.4156    5.1215  -17.1998 C   0  0  0  0  0  0  0  0  0  0  0  0
   -4.9552    5.2326  -19.3282 C   0  0  0  0  0  0  0  0  0  0  0  0
   -4.1026    5.4352  -20.1766 O   0  0  0  0  0  0  0  0  0  0  0  0
   -6.2621    4.8041  -19.4818 N   0  0  0  0  0  0  0  0  0  0  0  0
  1  2  2  0
  2  3  1  0
  3  4  1  0
  4  5  2  0
  5  6  1  0
  6  7  2  0
  7  8  1  0
  8  9  2  0
  8 10  1  0
 10 11  1  0
 11 12  1  0
 12 13  2  0
 13 14  1  0
 14 15  2  0
 15 16  1  0
 16 17  2  0
 11 18  1  0
  2 19  1  0
 19 20  2  0
 20 21  1  0
 21 22  2  0
 22 23  1  0
 23 24  2  0
 23 25  1  0
 25 26  1  0
 26 27  1  0
 25 28  1  0
 28 29  2  0
 28 30  1  0
  9  4  1  0
 17 12  1  0
 24 19  1  0
 27 25  1  0
 18  7  1  0
 30 22  1  0
M  END
>  <energy_score>  (3189) 
-20.55741

>  <alias>  (3189) 
WDJKIIXSCMGOCX-UHFFFAOYSA-N-P308-P269-P308-601526

>  <HIPPO Pose ID>  (3189) 
76676

>  <smiles>  (3189) 
O=C(Nc1ccc2c(c1)CN(c1ccccc1)C2)c1ccc2c(c1)C1(CC1)C(=O)N2

>  <inchikey>  (3189) 
WDJKIIXSCMGOCX-UHFFFAOYSA-N

>  <distance_score>  (3189) 
1.864056

>  <ref_mols>  (3189) 
Z5011a,Z4429a

>  <ref_pdb>  (3189) 
Z3093a

>  <HIPPO Compound ID>  (3189) 
141605

>  <name>  (3189) 
WDJKIIXSCMGOCX-UHFFFAOYSA-N-P308-P269-P308-601526

>  <inspiration_score>  (3189) 
None

$$$$
ULDLPYGZHWOFJD-UHFFFAOYSA-N-P308-P269-P308-601526
     RDKit          3D

 34 38  0  0  0  0  0  0  0  0999 V2000
   -7.0987    9.6640  -10.4948 C   0  0  0  0  0  0  0  0  0  0  0  0
   -8.2991    9.6035   -9.5454 C   0  0  0  0  0  0  0  0  0  0  0  0
   -8.3698   10.8831   -8.7056 C   0  0  0  0  0  0  0  0  0  0  0  0
   -8.2580    8.3130   -8.7400 C   0  0  0  0  0  0  0  0  0  0  0  0
   -8.8225    7.1689   -9.2884 C   0  0  0  0  0  0  0  0  0  0  0  0
   -8.7696    5.9788   -8.5917 C   0  0  0  0  0  0  0  0  0  0  0  0
   -8.0899    5.8586   -7.3705 C   0  0  0  0  0  0  0  0  0  0  0  0
   -7.6172    4.5857   -6.8822 N   0  0  0  0  0  0  0  0  0  0  0  0
   -8.5714    3.4362   -7.0879 C   0  0  0  0  0  0  0  0  0  0  0  0
   -8.2871    2.9906   -8.4943 C   0  0  0  0  0  0  0  0  0  0  0  0
   -9.1503    2.4227   -9.3990 C   0  0  0  0  0  0  0  0  0  0  0  0
   -8.8605    2.5542  -10.7595 C   0  0  0  0  0  0  0  0  0  0  0  0
   -7.7195    3.2383  -11.1773 C   0  0  0  0  0  0  0  0  0  0  0  0
   -7.6126    3.6513  -12.4900 N   0  0  0  0  0  0  0  0  0  0  0  0
   -6.8549    4.8513  -13.1075 C   0  0  0  0  0  0  0  0  0  0  0  0
   -6.1406    5.6322  -12.6118 O   0  0  0  0  0  0  0  0  0  0  0  0
   -7.0615    4.9545  -14.5779 C   0  0  0  0  0  0  0  0  0  0  0  0
   -8.2216    4.4910  -15.2306 C   0  0  0  0  0  0  0  0  0  0  0  0
   -8.2605    4.4142  -16.6187 C   0  0  0  0  0  0  0  0  0  0  0  0
   -7.1452    4.8466  -17.3094 C   0  0  0  0  0  0  0  0  0  0  0  0
   -6.0611    5.4541  -16.6835 C   0  0  0  0  0  0  0  0  0  0  0  0
   -5.9990    5.5039  -15.3108 C   0  0  0  0  0  0  0  0  0  0  0  0
   -5.0566    5.8851  -17.7151 C   0  0  0  0  0  0  0  0  0  0  0  0
   -3.6138    5.5285  -17.3825 C   0  0  0  0  0  0  0  0  0  0  0  0
   -5.1798    7.3867  -17.9963 C   0  0  0  0  0  0  0  0  0  0  0  0
   -5.5556    5.1110  -18.9494 C   0  0  0  0  0  0  0  0  0  0  0  0
   -4.8856    4.9404  -19.9541 O   0  0  0  0  0  0  0  0  0  0  0  0
   -6.8529    4.6735  -18.6582 N   0  0  0  0  0  0  0  0  0  0  0  0
   -7.6658    3.8379  -19.4976 C   0  0  0  0  0  0  0  0  0  0  0  0
   -6.7744    3.6613  -10.2611 C   0  0  0  0  0  0  0  0  0  0  0  0
   -7.0829    3.5427   -8.9240 C   0  0  0  0  0  0  0  0  0  0  0  0
   -6.4569    4.3080   -7.8061 C   0  0  0  0  0  0  0  0  0  0  0  0
   -7.5706    7.0179   -6.7924 C   0  0  0  0  0  0  0  0  0  0  0  0
   -7.6559    8.2357   -7.4716 C   0  0  0  0  0  0  0  0  0  0  0  0
  1  2  1  0
  2  3  1  0
  2  4  1  0
  4  5  2  0
  5  6  1  0
  6  7  2  0
  7  8  1  0
  8  9  1  0
  9 10  1  0
 10 11  2  0
 11 12  1  0
 12 13  2  0
 13 14  1  0
 14 15  1  0
 15 16  2  0
 15 17  1  0
 17 18  2  0
 18 19  1  0
 19 20  2  0
 20 21  1  0
 21 22  2  0
 21 23  1  0
 23 24  1  0
 23 25  1  0
 23 26  1  0
 26 27  2  0
 26 28  1  0
 28 29  1  0
 13 30  1  0
 30 31  2  0
 31 32  1  0
  7 33  1  0
 33 34  2  0
 34  4  1  0
 32  8  1  0
 31 10  1  0
 22 17  1  0
 28 20  1  0
M  END
>  <energy_score>  (3190) 
-1.886856

>  <alias>  (3190) 
ULDLPYGZHWOFJD-UHFFFAOYSA-N-P308-P269-P308-601526

>  <HIPPO Pose ID>  (3190) 
76682

>  <smiles>  (3190) 
CC(C)c1ccc(N2Cc3ccc(NC(=O)c4ccc5c(c4)C(C)(C)C(=O)N5C)cc3C2)cc1

>  <inchikey>  (3190) 
ULDLPYGZHWOFJD-UHFFFAOYSA-N

>  <distance_score>  (3190) 
1.99997

>  <ref_mols>  (3190) 
Z5011a,Z4429a

>  <ref_pdb>  (3190) 
Z3093a

>  <HIPPO Compound ID>  (3190) 
141608

>  <name>  (3190) 
ULDLPYGZHWOFJD-UHFFFAOYSA-N-P308-P269-P308-601526

>  <inspiration_score>  (3190) 
None

$$$$
PJTOUAKFIMDBTO-UHFFFAOYSA-N-P24-P24-P295-601526
     RDKit          3D

 25 28  0  0  0  0  0  0  0  0999 V2000
  -10.6672    4.6449  -17.9549 C   0  0  0  0  0  0  0  0  0  0  0  0
   -9.2026    4.4825  -17.9255 C   0  0  0  0  0  0  0  0  0  0  0  0
   -8.4368    4.1914  -19.0233 C   0  0  0  0  0  0  0  0  0  0  0  0
   -7.1248    4.3828  -18.7196 N   0  0  0  0  0  0  0  0  0  0  0  0
   -7.0056    4.6946  -17.3938 C   0  0  0  0  0  0  0  0  0  0  0  0
   -5.8609    4.9977  -16.6596 C   0  0  0  0  0  0  0  0  0  0  0  0
   -4.3267    5.0337  -17.4216 Cl  0  0  0  0  0  0  0  0  0  0  0  0
   -6.0099    5.3129  -15.3180 C   0  0  0  0  0  0  0  0  0  0  0  0
   -7.2824    5.3070  -14.7517 C   0  0  0  0  0  0  0  0  0  0  0  0
   -7.4238    5.7417  -13.3543 C   0  0  0  0  0  0  0  0  0  0  0  0
   -7.2329    6.8616  -13.0897 O   0  0  0  0  0  0  0  0  0  0  0  0
   -7.8494    4.5605  -12.4576 N   0  0  0  0  0  0  0  0  0  0  0  0
   -8.0306    4.4915  -11.0816 C   0  0  0  0  0  0  0  0  0  0  0  0
   -7.8979    5.6461  -10.2891 C   0  0  0  0  0  0  0  0  0  0  0  0
   -8.1214    5.5977   -8.9145 C   0  0  0  0  0  0  0  0  0  0  0  0
   -8.4606    4.3762   -8.3729 C   0  0  0  0  0  0  0  0  0  0  0  0
   -8.5761    3.2176   -9.1365 C   0  0  0  0  0  0  0  0  0  0  0  0
   -8.3644    3.2604  -10.5044 C   0  0  0  0  0  0  0  0  0  0  0  0
   -8.9904    2.0814   -8.2643 C   0  0  0  0  0  0  0  0  0  0  0  0
   -9.1972    2.7307   -6.9772 N   0  0  0  0  0  0  0  0  0  0  0  0
  -10.0642    2.1595   -5.9801 C   0  0  0  0  0  0  0  0  0  0  0  0
   -8.8955    4.0787   -7.0054 C   0  0  0  0  0  0  0  0  0  0  0  0
   -9.0425    4.9169   -6.1338 O   0  0  0  0  0  0  0  0  0  0  0  0
   -8.4346    5.0020  -15.4884 C   0  0  0  0  0  0  0  0  0  0  0  0
   -8.2925    4.7013  -16.8514 C   0  0  0  0  0  0  0  0  0  0  0  0
  1  2  1  0
  2  3  2  0
  3  4  1  0
  4  5  1  0
  5  6  2  0
  6  7  1  0
  6  8  1  0
  8  9  2  0
  9 10  1  0
 10 11  2  0
 10 12  1  0
 12 13  1  0
 13 14  2  0
 14 15  1  0
 15 16  2  0
 16 17  1  0
 17 18  2  0
 17 19  1  0
 19 20  1  0
 20 21  1  0
 20 22  1  0
 22 23  2  0
  9 24  1  0
 24 25  2  0
 25  2  1  0
 25  5  1  0
 18 13  1  0
 22 16  1  0
M  END
>  <energy_score>  (3191) 
-19.369387

>  <alias>  (3191) 
PJTOUAKFIMDBTO-UHFFFAOYSA-N-P24-P24-P295-601526

>  <HIPPO Pose ID>  (3191) 
76683

>  <smiles>  (3191) 
Cc1c[nH]c2c(Cl)cc(C(=O)Nc3ccc4c(c3)CN(C)C4=O)cc12

>  <inchikey>  (3191) 
PJTOUAKFIMDBTO-UHFFFAOYSA-N

>  <distance_score>  (3191) 
1.163693

>  <ref_mols>  (3191) 
Z0553a,Z4959a

>  <ref_pdb>  (3191) 
Z3093a

>  <HIPPO Compound ID>  (3191) 
141757

>  <name>  (3191) 
PJTOUAKFIMDBTO-UHFFFAOYSA-N-P24-P24-P295-601526

>  <inspiration_score>  (3191) 
None

$$$$
QSWOAURHZNNATI-UHFFFAOYSA-N-P24-P24-P295-601526
     RDKit          3D

 26 29  0  0  0  0  0  0  0  0999 V2000
  -10.6768    4.6326  -17.8912 C   0  0  0  0  0  0  0  0  0  0  0  0
   -9.2143    4.4657  -17.8698 C   0  0  0  0  0  0  0  0  0  0  0  0
   -8.4653    4.2171  -18.9895 C   0  0  0  0  0  0  0  0  0  0  0  0
   -7.1503    4.3949  -18.6968 N   0  0  0  0  0  0  0  0  0  0  0  0
   -7.0135    4.6481  -17.3599 C   0  0  0  0  0  0  0  0  0  0  0  0
   -5.8554    4.9127  -16.6353 C   0  0  0  0  0  0  0  0  0  0  0  0
   -4.3370    5.0016  -17.4246 Cl  0  0  0  0  0  0  0  0  0  0  0  0
   -5.9790    5.1495  -15.2765 C   0  0  0  0  0  0  0  0  0  0  0  0
   -7.2381    5.1098  -14.6744 C   0  0  0  0  0  0  0  0  0  0  0  0
   -7.3093    5.5104  -13.2556 C   0  0  0  0  0  0  0  0  0  0  0  0
   -6.8948    6.5656  -12.9745 O   0  0  0  0  0  0  0  0  0  0  0  0
   -7.8514    4.3744  -12.3573 N   0  0  0  0  0  0  0  0  0  0  0  0
   -8.0768    4.3371  -10.9824 C   0  0  0  0  0  0  0  0  0  0  0  0
   -7.8143    5.4867  -10.2072 C   0  0  0  0  0  0  0  0  0  0  0  0
   -8.0230    5.4950   -8.8284 C   0  0  0  0  0  0  0  0  0  0  0  0
   -8.4881    4.3305   -8.2592 C   0  0  0  0  0  0  0  0  0  0  0  0
   -8.7438    3.1935   -9.0044 C   0  0  0  0  0  0  0  0  0  0  0  0
   -8.5515    3.1674  -10.3773 C   0  0  0  0  0  0  0  0  0  0  0  0
   -9.3320    2.2135   -8.0859 C   0  0  0  0  0  0  0  0  0  0  0  0
   -9.7638    1.1249   -8.4021 O   0  0  0  0  0  0  0  0  0  0  0  0
   -9.3931    2.8115   -6.8556 N   0  0  0  0  0  0  0  0  0  0  0  0
  -10.1614    2.2741   -5.7634 C   0  0  0  0  0  0  0  0  0  0  0  0
   -8.9301    4.0919   -6.8889 C   0  0  0  0  0  0  0  0  0  0  0  0
   -8.9478    4.9485   -6.0226 O   0  0  0  0  0  0  0  0  0  0  0  0
   -8.4061    4.8508  -15.4070 C   0  0  0  0  0  0  0  0  0  0  0  0
   -8.2909    4.6276  -16.7930 C   0  0  0  0  0  0  0  0  0  0  0  0
  1  2  1  0
  2  3  2  0
  3  4  1  0
  4  5  1  0
  5  6  2  0
  6  7  1  0
  6  8  1  0
  8  9  2  0
  9 10  1  0
 10 11  2  0
 10 12  1  0
 12 13  1  0
 13 14  2  0
 14 15  1  0
 15 16  2  0
 16 17  1  0
 17 18  2  0
 17 19  1  0
 19 20  2  0
 19 21  1  0
 21 22  1  0
 21 23  1  0
 23 24  2  0
  9 25  1  0
 25 26  2  0
 26  2  1  0
 26  5  1  0
 18 13  1  0
 23 16  1  0
M  END
>  <energy_score>  (3192) 
-8.555416

>  <alias>  (3192) 
QSWOAURHZNNATI-UHFFFAOYSA-N-P24-P24-P295-601526

>  <HIPPO Pose ID>  (3192) 
76685

>  <smiles>  (3192) 
Cc1c[nH]c2c(Cl)cc(C(=O)Nc3ccc4c(c3)C(=O)N(C)C4=O)cc12

>  <inchikey>  (3192) 
QSWOAURHZNNATI-UHFFFAOYSA-N

>  <distance_score>  (3192) 
1.450107

>  <ref_mols>  (3192) 
Z0553a,Z4959a

>  <ref_pdb>  (3192) 
Z3093a

>  <HIPPO Compound ID>  (3192) 
141758

>  <name>  (3192) 
QSWOAURHZNNATI-UHFFFAOYSA-N-P24-P24-P295-601526

>  <inspiration_score>  (3192) 
None

$$$$
GDHGWYIIRZNFTH-UHFFFAOYSA-N-P7-P7-P159-601526
     RDKit          3D

 17 18  0  0  0  0  0  0  0  0999 V2000
   -6.9254    5.9197  -12.1078 C   0  0  0  0  0  0  0  0  0  0  0  0
   -7.9592    4.9279  -12.6259 C   0  0  2  0  0  0  0  0  0  0  0  0
   -7.6889    3.5154  -12.1334 C   0  0  0  0  0  0  0  0  0  0  0  0
   -7.6884    3.5344  -10.7719 F   0  0  0  0  0  0  0  0  0  0  0  0
   -8.2333    4.9869  -14.0636 N   0  0  0  0  0  0  0  0  0  0  0  0
   -7.3703    4.9623  -15.1295 C   0  0  0  0  0  0  0  0  0  0  0  0
   -6.0278    5.3178  -15.0839 C   0  0  0  0  0  0  0  0  0  0  0  0
   -5.2341    5.3497  -16.2167 C   0  0  0  0  0  0  0  0  0  0  0  0
   -5.6642    5.0531  -17.4363 N   0  0  0  0  0  0  0  0  0  0  0  0
   -6.9771    4.6932  -17.5082 C   0  0  0  0  0  0  0  0  0  0  0  0
   -7.5930    4.2731  -18.7096 C   0  0  0  0  0  0  0  0  0  0  0  0
   -6.8788    4.0132  -19.9353 C   0  0  0  0  0  0  0  0  0  0  0  0
   -7.3847    3.4186  -20.8794 O   0  0  0  0  0  0  0  0  0  0  0  0
   -5.5735    4.3971  -19.9100 O   0  0  0  0  0  0  0  0  0  0  0  0
   -8.9400    4.0522  -18.5431 C   0  0  0  0  0  0  0  0  0  0  0  0
   -9.4048    4.1616  -16.9149 S   0  0  0  0  0  0  0  0  0  0  0  0
   -7.8308    4.6442  -16.4164 C   0  0  0  0  0  0  0  0  0  0  0  0
  2  1  1  6
  2  3  1  0
  3  4  1  0
  2  5  1  0
  5  6  1  0
  6  7  2  0
  7  8  1  0
  8  9  2  0
  9 10  1  0
 10 11  1  0
 11 12  1  0
 12 13  2  0
 12 14  1  0
 11 15  2  0
 15 16  1  0
 16 17  1  0
 17  6  1  0
 17 10  2  0
M  END
>  <energy_score>  (3193) 
-41.541461

>  <alias>  (3193) 
GDHGWYIIRZNFTH-UHFFFAOYSA-N-P7-P7-P159-601526

>  <HIPPO Pose ID>  (3193) 
76703

>  <smiles>  (3193) 
CC(CF)Nc1ccnc2c(C(=O)O)csc12

>  <inchikey>  (3193) 
GDHGWYIIRZNFTH-UHFFFAOYSA-N

>  <distance_score>  (3193) 
1.986664

>  <ref_mols>  (3193) 
Z3515a,Z0089a

>  <ref_pdb>  (3193) 
Z3093a

>  <HIPPO Compound ID>  (3193) 
143685

>  <name>  (3193) 
GDHGWYIIRZNFTH-UHFFFAOYSA-N-P7-P7-P159-601526

>  <inspiration_score>  (3193) 
None

$$$$
VSCXCVYNBRQMKG-UHFFFAOYSA-N-P159-P7-P159-601526
     RDKit          3D

 18 19  0  0  0  0  0  0  0  0999 V2000
   -8.5582    2.9929  -10.0470 C   0  0  0  0  0  0  0  0  0  0  0  0
   -8.2533    4.1734  -10.9570 C   0  0  0  0  0  0  0  0  0  0  0  0
   -7.7847    3.7001  -12.3269 C   0  0  0  0  0  0  0  0  0  0  0  0
   -7.7919    4.7665  -13.4415 C   0  0  1  0  0  0  0  0  0  0  0  0
   -7.0577    6.0368  -13.0078 C   0  0  0  0  0  0  0  0  0  0  0  0
   -7.0819    4.1766  -14.5712 N   0  0  0  0  0  0  0  0  0  0  0  0
   -7.2627    4.5220  -15.8986 C   0  0  0  0  0  0  0  0  0  0  0  0
   -8.4472    4.3466  -16.6033 C   0  0  0  0  0  0  0  0  0  0  0  0
   -8.4481    4.5459  -17.9801 C   0  0  0  0  0  0  0  0  0  0  0  0
   -7.4085    4.9726  -18.7234 N   0  0  0  0  0  0  0  0  0  0  0  0
   -6.2571    5.1589  -18.0438 C   0  0  0  0  0  0  0  0  0  0  0  0
   -5.0322    5.5772  -18.6410 C   0  0  0  0  0  0  0  0  0  0  0  0
   -4.7571    5.9516  -20.0180 C   0  0  0  0  0  0  0  0  0  0  0  0
   -3.6137    6.0251  -20.4598 O   0  0  0  0  0  0  0  0  0  0  0  0
   -5.8199    6.3126  -20.7650 O   0  0  0  0  0  0  0  0  0  0  0  0
   -4.0338    5.6063  -17.6952 C   0  0  0  0  0  0  0  0  0  0  0  0
   -4.5567    5.2640  -16.1210 S   0  0  0  0  0  0  0  0  0  0  0  0
   -6.1589    4.9425  -16.6701 C   0  0  0  0  0  0  0  0  0  0  0  0
  1  2  1  0
  2  3  1  0
  3  4  1  0
  4  5  1  1
  4  6  1  0
  6  7  1  0
  7  8  2  0
  8  9  1  0
  9 10  2  0
 10 11  1  0
 11 12  1  0
 12 13  1  0
 13 14  2  0
 13 15  1  0
 12 16  2  0
 16 17  1  0
 17 18  1  0
 18  7  1  0
 18 11  2  0
M  END
>  <energy_score>  (3194) 
-48.583503

>  <alias>  (3194) 
VSCXCVYNBRQMKG-UHFFFAOYSA-N-P159-P7-P159-601526

>  <HIPPO Pose ID>  (3194) 
76726

>  <smiles>  (3194) 
CCCC(C)Nc1ccnc2c(C(=O)O)csc12

>  <inchikey>  (3194) 
VSCXCVYNBRQMKG-UHFFFAOYSA-N

>  <distance_score>  (3194) 
1.910956

>  <ref_mols>  (3194) 
Z3515a,Z0089a

>  <ref_pdb>  (3194) 
Z3093a

>  <HIPPO Compound ID>  (3194) 
143696

>  <name>  (3194) 
VSCXCVYNBRQMKG-UHFFFAOYSA-N-P159-P7-P159-601526

>  <inspiration_score>  (3194) 
None

$$$$
RQLGMFWEYIWBIO-UHFFFAOYSA-N-P159-P7-P159-601526
     RDKit          3D

 18 19  0  0  0  0  0  0  0  0999 V2000
   -6.9579    6.0749  -12.9224 C   0  0  0  0  0  0  0  0  0  0  0  0
   -7.2907    4.6653  -13.3989 C   0  0  1  0  0  0  0  0  0  0  0  0
   -8.1302    3.8811  -12.3651 C   0  0  0  0  0  0  0  0  0  0  0  0
   -7.6013    3.8323  -10.9431 C   0  0  0  0  0  0  0  0  0  0  0  0
   -7.8344    5.0678  -10.2782 O   0  0  0  0  0  0  0  0  0  0  0  0
   -8.1097    4.7252  -14.6142 N   0  0  0  0  0  0  0  0  0  0  0  0
   -7.7105    4.6597  -15.9449 C   0  0  0  0  0  0  0  0  0  0  0  0
   -8.6943    4.2922  -16.8804 C   0  0  0  0  0  0  0  0  0  0  0  0
   -8.3932    4.1822  -18.2237 C   0  0  0  0  0  0  0  0  0  0  0  0
   -7.1927    4.4031  -18.7483 N   0  0  0  0  0  0  0  0  0  0  0  0
   -6.2332    4.8048  -17.8858 C   0  0  0  0  0  0  0  0  0  0  0  0
   -4.9184    5.1538  -18.3166 C   0  0  0  0  0  0  0  0  0  0  0  0
   -4.4709    5.1713  -19.6903 C   0  0  0  0  0  0  0  0  0  0  0  0
   -3.4273    4.6753  -20.1050 O   0  0  0  0  0  0  0  0  0  0  0  0
   -5.3287    5.8026  -20.5146 O   0  0  0  0  0  0  0  0  0  0  0  0
   -4.1178    5.4235  -17.2406 C   0  0  0  0  0  0  0  0  0  0  0  0
   -4.9472    5.3749  -15.7593 S   0  0  0  0  0  0  0  0  0  0  0  0
   -6.4334    4.9046  -16.5004 C   0  0  0  0  0  0  0  0  0  0  0  0
  2  1  1  1
  2  3  1  0
  3  4  1  0
  4  5  1  0
  2  6  1  0
  6  7  1  0
  7  8  2  0
  8  9  1  0
  9 10  2  0
 10 11  1  0
 11 12  1  0
 12 13  1  0
 13 14  2  0
 13 15  1  0
 12 16  2  0
 16 17  1  0
 17 18  1  0
 18  7  1  0
 18 11  2  0
M  END
>  <energy_score>  (3195) 
-38.305805

>  <alias>  (3195) 
RQLGMFWEYIWBIO-UHFFFAOYSA-N-P159-P7-P159-601526

>  <HIPPO Pose ID>  (3195) 
76734

>  <smiles>  (3195) 
CC(CCO)Nc1ccnc2c(C(=O)O)csc12

>  <inchikey>  (3195) 
RQLGMFWEYIWBIO-UHFFFAOYSA-N

>  <distance_score>  (3195) 
1.972438

>  <ref_mols>  (3195) 
Z3515a,Z0089a

>  <ref_pdb>  (3195) 
Z3093a

>  <HIPPO Compound ID>  (3195) 
143700

>  <name>  (3195) 
RQLGMFWEYIWBIO-UHFFFAOYSA-N-P159-P7-P159-601526

>  <inspiration_score>  (3195) 
None

$$$$
IGWZNGUMSSUANC-UHFFFAOYSA-N-P159-P7-P159-601526
     RDKit          3D

 19 20  0  0  0  0  0  0  0  0999 V2000
   -8.5019    2.9411  -10.0225 C   0  0  0  0  0  0  0  0  0  0  0  0
   -8.0698    4.0186  -10.9686 C   0  0  0  0  0  0  0  0  0  0  0  0
   -8.2715    3.9348  -12.2933 C   0  0  0  0  0  0  0  0  0  0  0  0
   -7.9332    4.9136  -13.3839 C   0  0  1  0  0  0  0  0  0  0  0  0
   -7.1022    6.1071  -12.9078 C   0  0  0  0  0  0  0  0  0  0  0  0
   -7.1911    4.1428  -14.3770 N   0  0  0  0  0  0  0  0  0  0  0  0
   -7.2983    4.5095  -15.7211 C   0  0  0  0  0  0  0  0  0  0  0  0
   -8.4022    4.1712  -16.5018 C   0  0  0  0  0  0  0  0  0  0  0  0
   -8.3830    4.4543  -17.8582 C   0  0  0  0  0  0  0  0  0  0  0  0
   -7.4304    5.1551  -18.4896 N   0  0  0  0  0  0  0  0  0  0  0  0
   -6.4022    5.5684  -17.7235 C   0  0  0  0  0  0  0  0  0  0  0  0
   -5.3963    6.4846  -18.1390 C   0  0  0  0  0  0  0  0  0  0  0  0
   -5.3896    7.2809  -19.3537 C   0  0  0  0  0  0  0  0  0  0  0  0
   -6.1255    8.2572  -19.4875 O   0  0  0  0  0  0  0  0  0  0  0  0
   -4.4627    6.9726  -20.3123 O   0  0  0  0  0  0  0  0  0  0  0  0
   -3.7213    5.7512  -20.2353 C   0  0  0  0  0  0  0  0  0  0  0  0
   -4.4280    6.6128  -17.1732 C   0  0  0  0  0  0  0  0  0  0  0  0
   -4.7447    5.7100  -15.7703 S   0  0  0  0  0  0  0  0  0  0  0  0
   -6.2661    5.1924  -16.3881 C   0  0  0  0  0  0  0  0  0  0  0  0
  1  2  1  0
  2  3  2  3
  3  4  1  0
  4  5  1  1
  4  6  1  0
  6  7  1  0
  7  8  2  0
  8  9  1  0
  9 10  2  0
 10 11  1  0
 11 12  1  0
 12 13  1  0
 13 14  2  0
 13 15  1  0
 15 16  1  0
 12 17  2  0
 17 18  1  0
 18 19  1  0
 19  7  1  0
 19 11  2  0
M  END
>  <energy_score>  (3196) 
-34.625536

>  <alias>  (3196) 
IGWZNGUMSSUANC-UHFFFAOYSA-N-P159-P7-P159-601526

>  <HIPPO Pose ID>  (3196) 
76786

>  <smiles>  (3196) 
CC=CC(C)Nc1ccnc2c(C(=O)OC)csc12

>  <inchikey>  (3196) 
IGWZNGUMSSUANC-UHFFFAOYSA-N

>  <distance_score>  (3196) 
1.997139

>  <ref_mols>  (3196) 
Z3515a,Z0089a

>  <ref_pdb>  (3196) 
Z3093a

>  <HIPPO Compound ID>  (3196) 
143726

>  <name>  (3196) 
IGWZNGUMSSUANC-UHFFFAOYSA-N-P159-P7-P159-601526

>  <inspiration_score>  (3196) 
None

$$$$
ODABDEBRYYYUHT-UHFFFAOYSA-N-P51-P51-P91-601526
     RDKit          3D

 25 27  0  0  0  0  0  0  0  0999 V2000
   -3.2449    4.0696  -16.0840 C   0  0  0  0  0  0  0  0  0  0  0  0
   -3.3782    3.9794  -17.5906 C   0  0  0  0  0  0  0  0  0  0  0  0
   -2.8137    5.4151  -18.4132 S   0  0  0  0  0  0  0  0  0  0  0  0
   -3.7093    6.5149  -18.1429 O   0  0  0  0  0  0  0  0  0  0  0  0
   -1.4005    5.5646  -18.1200 O   0  0  0  0  0  0  0  0  0  0  0  0
   -2.9942    5.1669  -20.1279 C   0  0  0  0  0  0  0  0  0  0  0  0
   -1.8207    5.1691  -20.8934 C   0  0  0  0  0  0  0  0  0  0  0  0
   -1.8969    5.3111  -22.2682 C   0  0  0  0  0  0  0  0  0  0  0  0
   -3.1439    5.4797  -22.8281 C   0  0  0  0  0  0  0  0  0  0  0  0
   -4.2936    5.4502  -22.1210 N   0  0  0  0  0  0  0  0  0  0  0  0
   -4.2266    5.2698  -20.7648 C   0  0  0  0  0  0  0  0  0  0  0  0
   -5.5696    4.8317  -20.1949 C   0  0  0  0  0  0  0  0  0  0  0  0
   -6.1216    4.0451  -20.8749 O   0  0  0  0  0  0  0  0  0  0  0  0
   -5.9962    5.4680  -18.8261 N   0  0  0  0  0  0  0  0  0  0  0  0
   -7.1089    5.2004  -17.9980 C   0  0  0  0  0  0  0  0  0  0  0  0
   -8.1512    4.4923  -18.6147 C   0  0  0  0  0  0  0  0  0  0  0  0
   -9.2447    4.0533  -17.8988 C   0  0  0  0  0  0  0  0  0  0  0  0
   -9.2609    4.2443  -16.5330 C   0  0  0  0  0  0  0  0  0  0  0  0
   -8.2713    4.9282  -15.8663 C   0  0  0  0  0  0  0  0  0  0  0  0
   -8.4596    4.9918  -14.5384 N   0  0  0  0  0  0  0  0  0  0  0  0
   -7.5522    5.6182  -13.7952 C   0  0  0  0  0  0  0  0  0  0  0  0
   -6.5045    6.3036  -14.3467 C   0  0  0  0  0  0  0  0  0  0  0  0
   -6.3524    6.3252  -15.7425 C   0  0  0  0  0  0  0  0  0  0  0  0
   -5.3584    7.3387  -16.2124 C   0  0  0  0  0  0  0  0  0  0  0  0
   -7.1885    5.5136  -16.5812 C   0  0  0  0  0  0  0  0  0  0  0  0
  1  2  1  0
  2  3  1  0
  3  4  2  0
  3  5  2  0
  3  6  1  0
  6  7  2  0
  7  8  1  0
  8  9  2  0
  9 10  1  0
 10 11  2  0
 11 12  1  0
 12 13  2  0
 12 14  1  0
 14 15  1  0
 15 16  2  0
 16 17  1  0
 17 18  2  0
 18 19  1  0
 19 20  2  0
 20 21  1  0
 21 22  2  0
 22 23  1  0
 23 24  1  0
 23 25  2  0
 11  6  1  0
 25 15  1  0
 25 19  1  0
M  END
>  <energy_score>  (3197) 
-21.514687

>  <alias>  (3197) 
ODABDEBRYYYUHT-UHFFFAOYSA-N-P51-P51-P91-601526

>  <HIPPO Pose ID>  (3197) 
76789

>  <smiles>  (3197) 
CCS(=O)(=O)c1cccnc1C(=O)Nc1cccc2nccc(C)c12

>  <inchikey>  (3197) 
ODABDEBRYYYUHT-UHFFFAOYSA-N

>  <distance_score>  (3197) 
1.105361

>  <ref_mols>  (3197) 
Z1688a,Z0852a

>  <ref_pdb>  (3197) 
Z3093a

>  <HIPPO Compound ID>  (3197) 
143620

>  <name>  (3197) 
ODABDEBRYYYUHT-UHFFFAOYSA-N-P51-P51-P91-601526

>  <inspiration_score>  (3197) 
None

$$$$
BPLJQOCLYHDJPR-UHFFFAOYSA-N-P91-P51-P91-601526
     RDKit          3D

 26 28  0  0  0  0  0  0  0  0999 V2000
   -2.2533    5.4231  -16.1844 C   0  0  0  0  0  0  0  0  0  0  0  0
   -2.9635    4.7403  -17.3448 C   0  0  0  0  0  0  0  0  0  0  0  0
   -2.0359    4.6948  -18.8441 S   0  0  0  0  0  0  0  0  0  0  0  0
   -1.8690    3.3162  -19.2540 O   0  0  0  0  0  0  0  0  0  0  0  0
   -0.8475    5.4943  -18.5740 O   0  0  0  0  0  0  0  0  0  0  0  0
   -2.7869    5.5194  -20.2084 C   0  0  0  0  0  0  0  0  0  0  0  0
   -1.8760    5.9882  -21.1661 C   0  0  0  0  0  0  0  0  0  0  0  0
   -2.3178    6.7570  -22.2318 C   0  0  0  0  0  0  0  0  0  0  0  0
   -3.6579    7.0881  -22.2795 C   0  0  0  0  0  0  0  0  0  0  0  0
   -4.5649    6.6762  -21.3708 N   0  0  0  0  0  0  0  0  0  0  0  0
   -4.1255    5.8207  -20.4058 C   0  0  0  0  0  0  0  0  0  0  0  0
   -5.2264    5.1199  -19.7000 C   0  0  0  0  0  0  0  0  0  0  0  0
   -5.4747    4.0224  -19.9795 O   0  0  0  0  0  0  0  0  0  0  0  0
   -5.7954    6.0152  -18.6010 N   0  0  0  0  0  0  0  0  0  0  0  0
   -6.6952    5.7318  -17.5819 C   0  0  0  0  0  0  0  0  0  0  0  0
   -7.7456    4.8429  -17.8428 C   0  0  0  0  0  0  0  0  0  0  0  0
   -8.5943    4.4701  -16.8104 C   0  0  0  0  0  0  0  0  0  0  0  0
   -8.3103    4.9180  -15.5233 C   0  0  0  0  0  0  0  0  0  0  0  0
   -9.3458    4.5740  -14.2067 Cl  0  0  0  0  0  0  0  0  0  0  0  0
   -7.2182    5.7130  -15.2173 C   0  0  0  0  0  0  0  0  0  0  0  0
   -7.0089    5.9983  -13.9133 N   0  0  0  0  0  0  0  0  0  0  0  0
   -5.9859    6.7575  -13.5529 C   0  0  0  0  0  0  0  0  0  0  0  0
   -5.1586    7.3380  -14.4706 C   0  0  0  0  0  0  0  0  0  0  0  0
   -5.3763    7.1096  -15.8330 C   0  0  0  0  0  0  0  0  0  0  0  0
   -4.5338    7.9456  -16.7520 C   0  0  0  0  0  0  0  0  0  0  0  0
   -6.4098    6.2055  -16.2560 C   0  0  0  0  0  0  0  0  0  0  0  0
  1  2  1  0
  2  3  1  0
  3  4  2  0
  3  5  2  0
  3  6  1  0
  6  7  2  0
  7  8  1  0
  8  9  2  0
  9 10  1  0
 10 11  2  0
 11 12  1  0
 12 13  2  0
 12 14  1  0
 14 15  1  0
 15 16  2  0
 16 17  1  0
 17 18  2  0
 18 19  1  0
 18 20  1  0
 20 21  2  0
 21 22  1  0
 22 23  2  0
 23 24  1  0
 24 25  1  0
 24 26  2  0
 11  6  1  0
 26 15  1  0
 26 20  1  0
M  END
>  <energy_score>  (3198) 
-12.767995

>  <alias>  (3198) 
BPLJQOCLYHDJPR-UHFFFAOYSA-N-P91-P51-P91-601526

>  <HIPPO Pose ID>  (3198) 
76792

>  <smiles>  (3198) 
CCS(=O)(=O)c1cccnc1C(=O)Nc1ccc(Cl)c2nccc(C)c12

>  <inchikey>  (3198) 
BPLJQOCLYHDJPR-UHFFFAOYSA-N

>  <distance_score>  (3198) 
1.944097

>  <ref_mols>  (3198) 
Z1688a,Z0852a

>  <ref_pdb>  (3198) 
Z3093a

>  <HIPPO Compound ID>  (3198) 
143631

>  <name>  (3198) 
BPLJQOCLYHDJPR-UHFFFAOYSA-N-P91-P51-P91-601526

>  <inspiration_score>  (3198) 
None

$$$$
QFIYVFXZIMKDLV-UHFFFAOYSA-N-P51-P51-P91-601526
     RDKit          3D

 26 28  0  0  0  0  0  0  0  0999 V2000
   -3.4585    3.9541  -16.1595 C   0  0  0  0  0  0  0  0  0  0  0  0
   -3.8874    4.3942  -17.5460 C   0  0  0  0  0  0  0  0  0  0  0  0
   -2.6058    4.4609  -18.7318 S   0  0  0  0  0  0  0  0  0  0  0  0
   -1.7041    5.4931  -18.2388 O   0  0  0  0  0  0  0  0  0  0  0  0
   -2.1201    3.1176  -18.9531 O   0  0  0  0  0  0  0  0  0  0  0  0
   -3.0867    5.0430  -20.3271 C   0  0  0  0  0  0  0  0  0  0  0  0
   -1.9943    5.3389  -21.1584 C   0  0  0  0  0  0  0  0  0  0  0  0
   -2.1979    5.8040  -22.4487 C   0  0  0  0  0  0  0  0  0  0  0  0
   -3.4977    5.9755  -22.8764 C   0  0  0  0  0  0  0  0  0  0  0  0
   -4.5783    5.7019  -22.1166 N   0  0  0  0  0  0  0  0  0  0  0  0
   -4.3579    5.2141  -20.8621 C   0  0  0  0  0  0  0  0  0  0  0  0
   -5.6135    4.8165  -20.1719 C   0  0  0  0  0  0  0  0  0  0  0  0
   -6.1675    3.8450  -20.5020 O   0  0  0  0  0  0  0  0  0  0  0  0
   -5.9045    5.7879  -19.0088 N   0  0  0  0  0  0  0  0  0  0  0  0
   -6.8539    5.7179  -17.9799 C   0  0  0  0  0  0  0  0  0  0  0  0
   -7.9594    4.8727  -18.1270 C   0  0  0  0  0  0  0  0  0  0  0  0
   -8.7477    4.5758  -17.0228 C   0  0  0  0  0  0  0  0  0  0  0  0
   -8.3596    5.0636  -15.7779 C   0  0  0  0  0  0  0  0  0  0  0  0
   -9.3399    4.7032  -14.2186 Br  0  0  0  0  0  0  0  0  0  0  0  0
   -7.2515    5.8697  -15.5848 C   0  0  0  0  0  0  0  0  0  0  0  0
   -6.9456    6.2018  -14.3092 N   0  0  0  0  0  0  0  0  0  0  0  0
   -5.8967    6.9643  -14.0442 C   0  0  0  0  0  0  0  0  0  0  0  0
   -5.1389    7.5079  -15.0377 C   0  0  0  0  0  0  0  0  0  0  0  0
   -5.4648    7.2355  -16.3710 C   0  0  0  0  0  0  0  0  0  0  0  0
   -4.6610    8.0098  -17.3752 C   0  0  0  0  0  0  0  0  0  0  0  0
   -6.5135    6.3023  -16.6974 C   0  0  0  0  0  0  0  0  0  0  0  0
  1  2  1  0
  2  3  1  0
  3  4  2  0
  3  5  2  0
  3  6  1  0
  6  7  2  0
  7  8  1  0
  8  9  2  0
  9 10  1  0
 10 11  2  0
 11 12  1  0
 12 13  2  0
 12 14  1  0
 14 15  1  0
 15 16  2  0
 16 17  1  0
 17 18  2  0
 18 19  1  0
 18 20  1  0
 20 21  2  0
 21 22  1  0
 22 23  2  0
 23 24  1  0
 24 25  1  0
 24 26  2  0
 11  6  1  0
 26 15  1  0
 26 20  1  0
M  END
>  <energy_score>  (3199) 
-14.697763

>  <alias>  (3199) 
QFIYVFXZIMKDLV-UHFFFAOYSA-N-P51-P51-P91-601526

>  <HIPPO Pose ID>  (3199) 
76793

>  <smiles>  (3199) 
CCS(=O)(=O)c1cccnc1C(=O)Nc1ccc(Br)c2nccc(C)c12

>  <inchikey>  (3199) 
QFIYVFXZIMKDLV-UHFFFAOYSA-N

>  <distance_score>  (3199) 
1.688761

>  <ref_mols>  (3199) 
Z1688a,Z0852a

>  <ref_pdb>  (3199) 
Z3093a

>  <HIPPO Compound ID>  (3199) 
143632

>  <name>  (3199) 
QFIYVFXZIMKDLV-UHFFFAOYSA-N-P51-P51-P91-601526

>  <inspiration_score>  (3199) 
None

$$$$
FRGPSQVHHKBARJ-UHFFFAOYSA-N-P51-P51-P91-601526
     RDKit          3D

 28 30  0  0  0  0  0  0  0  0999 V2000
   -1.1661    5.6050  -15.4706 C   0  0  0  0  0  0  0  0  0  0  0  0
   -2.1134    5.1856  -16.5850 C   0  0  0  0  0  0  0  0  0  0  0  0
   -1.6366    5.8414  -18.1449 S   0  0  0  0  0  0  0  0  0  0  0  0
   -1.9596    7.2602  -18.1262 O   0  0  0  0  0  0  0  0  0  0  0  0
   -0.2375    5.4636  -18.2983 O   0  0  0  0  0  0  0  0  0  0  0  0
   -2.4254    5.2305  -19.6063 C   0  0  0  0  0  0  0  0  0  0  0  0
   -1.6517    5.3263  -20.7725 C   0  0  0  0  0  0  0  0  0  0  0  0
   -2.2577    5.2996  -22.0188 C   0  0  0  0  0  0  0  0  0  0  0  0
   -3.6311    5.1885  -22.0640 C   0  0  0  0  0  0  0  0  0  0  0  0
   -4.4114    4.9952  -20.9799 N   0  0  0  0  0  0  0  0  0  0  0  0
   -3.7800    4.9939  -19.7611 C   0  0  0  0  0  0  0  0  0  0  0  0
   -4.6666    4.6330  -18.6245 C   0  0  0  0  0  0  0  0  0  0  0  0
   -4.1818    4.1474  -17.6854 O   0  0  0  0  0  0  0  0  0  0  0  0
   -6.1195    5.0590  -18.8878 N   0  0  0  0  0  0  0  0  0  0  0  0
   -7.2251    5.0643  -18.0463 C   0  0  0  0  0  0  0  0  0  0  0  0
   -8.4094    4.6195  -18.6399 C   0  0  0  0  0  0  0  0  0  0  0  0
   -9.4713    4.2450  -17.8458 C   0  0  0  0  0  0  0  0  0  0  0  0
   -9.3182    4.2887  -16.4689 C   0  0  0  0  0  0  0  0  0  0  0  0
   -8.1993    4.8041  -15.8491 C   0  0  0  0  0  0  0  0  0  0  0  0
   -8.2507    4.8437  -14.5091 N   0  0  0  0  0  0  0  0  0  0  0  0
   -7.2160    5.3563  -13.8450 C   0  0  0  0  0  0  0  0  0  0  0  0
   -6.1595    5.9584  -14.4787 C   0  0  0  0  0  0  0  0  0  0  0  0
   -6.1237    5.9952  -15.8840 C   0  0  0  0  0  0  0  0  0  0  0  0
   -5.1710    7.0218  -16.4583 C   0  0  0  0  0  0  0  0  0  0  0  0
   -5.7796    8.2247  -16.6641 F   0  0  0  0  0  0  0  0  0  0  0  0
   -4.1465    7.3199  -15.5994 F   0  0  0  0  0  0  0  0  0  0  0  0
   -4.5731    6.7426  -17.6358 F   0  0  0  0  0  0  0  0  0  0  0  0
   -7.1260    5.2870  -16.6296 C   0  0  0  0  0  0  0  0  0  0  0  0
  1  2  1  0
  2  3  1  0
  3  4  2  0
  3  5  2  0
  3  6  1  0
  6  7  2  0
  7  8  1  0
  8  9  2  0
  9 10  1  0
 10 11  2  0
 11 12  1  0
 12 13  2  0
 12 14  1  0
 14 15  1  0
 15 16  2  0
 16 17  1  0
 17 18  2  0
 18 19  1  0
 19 20  2  0
 20 21  1  0
 21 22  2  0
 22 23  1  0
 23 24  1  0
 24 25  1  0
 24 26  1  0
 24 27  1  0
 23 28  2  0
 11  6  1  0
 28 15  1  0
 28 19  1  0
M  END
>  <energy_score>  (3200) 
-37.321198

>  <alias>  (3200) 
FRGPSQVHHKBARJ-UHFFFAOYSA-N-P51-P51-P91-601526

>  <HIPPO Pose ID>  (3200) 
76797

>  <smiles>  (3200) 
CCS(=O)(=O)c1cccnc1C(=O)Nc1cccc2nccc(C(F)(F)F)c12

>  <inchikey>  (3200) 
FRGPSQVHHKBARJ-UHFFFAOYSA-N

>  <distance_score>  (3200) 
1.448615

>  <ref_mols>  (3200) 
Z1688a,Z0852a

>  <ref_pdb>  (3200) 
Z3093a

>  <HIPPO Compound ID>  (3200) 
143640

>  <name>  (3200) 
FRGPSQVHHKBARJ-UHFFFAOYSA-N-P51-P51-P91-601526

>  <inspiration_score>  (3200) 
None

$$$$
RVBJKPBDGJNRJN-UHFFFAOYSA-N-P51-P51-P91-601526
     RDKit          3D

 30 32  0  0  0  0  0  0  0  0999 V2000
   -3.2710    4.1488  -15.9745 C   0  0  0  0  0  0  0  0  0  0  0  0
   -3.4222    4.0123  -17.4768 C   0  0  0  0  0  0  0  0  0  0  0  0
   -2.8075    5.4035  -18.3401 S   0  0  0  0  0  0  0  0  0  0  0  0
   -1.3642    5.4061  -18.1925 O   0  0  0  0  0  0  0  0  0  0  0  0
   -3.5543    6.5753  -17.9416 O   0  0  0  0  0  0  0  0  0  0  0  0
   -3.1741    5.2363  -20.0458 C   0  0  0  0  0  0  0  0  0  0  0  0
   -2.0886    5.2758  -20.9300 C   0  0  0  0  0  0  0  0  0  0  0  0
   -2.3175    5.4488  -22.2839 C   0  0  0  0  0  0  0  0  0  0  0  0
   -3.6247    5.5839  -22.7051 C   0  0  0  0  0  0  0  0  0  0  0  0
   -4.6996    5.4892  -21.8897 N   0  0  0  0  0  0  0  0  0  0  0  0
   -4.4721    5.3244  -20.5543 C   0  0  0  0  0  0  0  0  0  0  0  0
   -5.7107    4.9370  -19.7686 C   0  0  0  0  0  0  0  0  0  0  0  0
   -6.2975    4.0026  -20.1598 O   0  0  0  0  0  0  0  0  0  0  0  0
   -5.9309    5.8051  -18.4987 N   0  0  0  0  0  0  0  0  0  0  0  0
   -6.8336    5.6487  -17.4295 C   0  0  0  0  0  0  0  0  0  0  0  0
   -7.8640    4.7187  -17.4957 C   0  0  0  0  0  0  0  0  0  0  0  0
   -8.5717    4.4061  -16.3323 C   0  0  0  0  0  0  0  0  0  0  0  0
   -8.2453    4.9979  -15.0990 C   0  0  0  0  0  0  0  0  0  0  0  0
   -8.8986    4.4721  -14.0146 O   0  0  0  0  0  0  0  0  0  0  0  0
   -8.4456    4.6790  -12.6831 C   0  0  0  0  0  0  0  0  0  0  0  0
   -6.9927    4.5100  -12.1872 C   0  0  0  0  0  0  0  0  0  0  0  0
   -6.5149    5.2137  -11.2960 O   0  0  0  0  0  0  0  0  0  0  0  0
   -6.2449    3.5469  -12.7818 O   0  0  0  0  0  0  0  0  0  0  0  0
   -6.8861    2.2972  -13.0358 C   0  0  0  0  0  0  0  0  0  0  0  0
   -7.3166    6.0213  -15.0387 C   0  0  0  0  0  0  0  0  0  0  0  0
   -7.1306    6.6784  -13.8731 N   0  0  0  0  0  0  0  0  0  0  0  0
   -6.1442    7.5759  -13.7466 C   0  0  0  0  0  0  0  0  0  0  0  0
   -5.3551    7.9357  -14.7985 C   0  0  0  0  0  0  0  0  0  0  0  0
   -5.6194    7.3530  -16.0311 C   0  0  0  0  0  0  0  0  0  0  0  0
   -6.5881    6.3403  -16.2013 C   0  0  0  0  0  0  0  0  0  0  0  0
  1  2  1  0
  2  3  1  0
  3  4  2  0
  3  5  2  0
  3  6  1  0
  6  7  2  0
  7  8  1  0
  8  9  2  0
  9 10  1  0
 10 11  2  0
 11 12  1  0
 12 13  2  0
 12 14  1  0
 14 15  1  0
 15 16  2  0
 16 17  1  0
 17 18  2  0
 18 19  1  0
 19 20  1  0
 20 21  1  0
 21 22  2  0
 21 23  1  0
 23 24  1  0
 18 25  1  0
 25 26  2  0
 26 27  1  0
 27 28  2  0
 28 29  1  0
 29 30  2  0
 11  6  1  0
 30 15  1  0
 30 25  1  0
M  END
>  <energy_score>  (3201) 
-35.191393

>  <alias>  (3201) 
RVBJKPBDGJNRJN-UHFFFAOYSA-N-P51-P51-P91-601526

>  <HIPPO Pose ID>  (3201) 
76801

>  <smiles>  (3201) 
CCS(=O)(=O)c1cccnc1C(=O)Nc1ccc(OCC(=O)OC)c2ncccc12

>  <inchikey>  (3201) 
RVBJKPBDGJNRJN-UHFFFAOYSA-N

>  <distance_score>  (3201) 
1.582092

>  <ref_mols>  (3201) 
Z1688a,Z0852a

>  <ref_pdb>  (3201) 
Z3093a

>  <HIPPO Compound ID>  (3201) 
143644

>  <name>  (3201) 
RVBJKPBDGJNRJN-UHFFFAOYSA-N-P51-P51-P91-601526

>  <inspiration_score>  (3201) 
None

$$$$
WKISXCHXHAFHMX-UHFFFAOYSA-N-P94-P91-P94-601526
     RDKit          3D

 25 28  0  0  0  0  0  0  0  0999 V2000
   -5.2608    8.4519  -13.1933 O   0  0  0  0  0  0  0  0  0  0  0  0
   -4.6948    7.5383  -12.6088 C   0  0  0  0  0  0  0  0  0  0  0  0
   -3.5274    6.7673  -13.1650 C   0  0  0  0  0  0  0  0  0  0  0  0
   -3.9193    5.3312  -13.5157 C   0  0  0  0  0  0  0  0  0  0  0  0
   -4.7835    5.2135  -14.7448 C   0  0  0  0  0  0  0  0  0  0  0  0
   -6.0733    4.8419  -14.7026 C   0  0  0  0  0  0  0  0  0  0  0  0
   -6.8854    4.7438  -15.9130 C   0  0  0  0  0  0  0  0  0  0  0  0
   -8.2416    4.4106  -15.8699 C   0  0  0  0  0  0  0  0  0  0  0  0
   -8.9763    4.3132  -17.0522 C   0  0  0  0  0  0  0  0  0  0  0  0
   -8.3542    4.5301  -18.2793 C   0  0  0  0  0  0  0  0  0  0  0  0
   -7.0015    4.8670  -18.3310 C   0  0  0  0  0  0  0  0  0  0  0  0
   -6.2765    4.9804  -17.1476 C   0  0  0  0  0  0  0  0  0  0  0  0
   -4.9212    5.3280  -17.1860 N   0  0  0  0  0  0  0  0  0  0  0  0
   -4.1365    5.4541  -16.0725 C   0  0  0  0  0  0  0  0  0  0  0  0
   -2.9447    5.7404  -16.1603 O   0  0  0  0  0  0  0  0  0  0  0  0
   -5.0250    7.0558  -11.3778 O   0  0  0  0  0  0  0  0  0  0  0  0
   -6.2904    7.4930  -10.8710 C   0  0  0  0  0  0  0  0  0  0  0  0
   -7.2855    6.5416  -11.4038 C   0  0  0  0  0  0  0  0  0  0  0  0
   -8.1587    6.6277  -12.4770 C   0  0  0  0  0  0  0  0  0  0  0  0
   -8.8008    5.4251  -12.7091 N   0  0  0  0  0  0  0  0  0  0  0  0
   -8.3326    4.6286  -11.7802 C   0  0  0  0  0  0  0  0  0  0  0  0
   -7.4673    5.2794  -10.9568 N   0  0  0  0  0  0  0  0  0  0  0  0
   -6.8673    4.4129   -9.9627 C   0  0  0  0  0  0  0  0  0  0  0  0
   -7.7730    3.1721  -10.0275 C   0  0  0  0  0  0  0  0  0  0  0  0
   -8.4139    3.1916  -11.4362 C   0  0  0  0  0  0  0  0  0  0  0  0
  1  2  2  0
  2  3  1  0
  3  4  1  0
  4  5  1  0
  5  6  2  0
  6  7  1  0
  7  8  2  0
  8  9  1  0
  9 10  2  0
 10 11  1  0
 11 12  2  0
 12 13  1  0
 13 14  1  0
 14 15  2  0
  2 16  1  0
 16 17  1  0
 17 18  1  0
 18 19  2  0
 19 20  1  0
 20 21  2  0
 21 22  1  0
 22 23  1  0
 23 24  1  0
 24 25  1  0
 14  5  1  0
 22 18  1  0
 12  7  1  0
 25 21  1  0
M  END
>  <energy_score>  (3202) 
-45.682643

>  <alias>  (3202) 
WKISXCHXHAFHMX-UHFFFAOYSA-N-P94-P91-P94-601526

>  <HIPPO Pose ID>  (3202) 
76814

>  <smiles>  (3202) 
O=C(CCc1cc2ccccc2[nH]c1=O)OCc1cnc2n1CCC2

>  <inchikey>  (3202) 
WKISXCHXHAFHMX-UHFFFAOYSA-N

>  <distance_score>  (3202) 
0.689974

>  <ref_mols>  (3202) 
Z1688a,Z1716a

>  <ref_pdb>  (3202) 
Z3093a

>  <HIPPO Compound ID>  (3202) 
138877

>  <name>  (3202) 
WKISXCHXHAFHMX-UHFFFAOYSA-N-P94-P91-P94-601526

>  <inspiration_score>  (3202) 
None

$$$$
LKUWXKKWWGPMMT-UHFFFAOYSA-N-P94-P91-P94-601526
     RDKit          3D

 25 27  0  0  0  0  0  0  0  0999 V2000
   -6.5426    2.9402  -10.6061 C   0  0  0  0  0  0  0  0  0  0  0  0
   -7.1164    4.2429  -10.0441 C   0  0  0  0  0  0  0  0  0  0  0  0
   -8.1975    3.9648   -9.0001 C   0  0  0  0  0  0  0  0  0  0  0  0
   -7.6095    5.1264  -11.0980 N   0  0  0  0  0  0  0  0  0  0  0  0
   -8.5633    4.7815  -12.0177 C   0  0  0  0  0  0  0  0  0  0  0  0
   -8.8087    5.7570  -12.8643 N   0  0  0  0  0  0  0  0  0  0  0  0
   -7.9776    6.7720  -12.4870 C   0  0  0  0  0  0  0  0  0  0  0  0
   -7.2110    6.4107  -11.3969 C   0  0  0  0  0  0  0  0  0  0  0  0
   -6.1316    7.1699  -10.7235 C   0  0  0  0  0  0  0  0  0  0  0  0
   -4.9072    6.6942  -11.2898 O   0  0  0  0  0  0  0  0  0  0  0  0
   -4.5214    7.3154  -12.4403 C   0  0  0  0  0  0  0  0  0  0  0  0
   -4.9984    8.3495  -12.8878 O   0  0  0  0  0  0  0  0  0  0  0  0
   -3.4074    6.5452  -13.0957 C   0  0  0  0  0  0  0  0  0  0  0  0
   -3.8590    5.1498  -13.5250 C   0  0  0  0  0  0  0  0  0  0  0  0
   -4.7492    5.1240  -14.7414 C   0  0  0  0  0  0  0  0  0  0  0  0
   -6.0476    4.7821  -14.6968 C   0  0  0  0  0  0  0  0  0  0  0  0
   -6.8693    4.7261  -15.9049 C   0  0  0  0  0  0  0  0  0  0  0  0
   -8.2282    4.4035  -15.8640 C   0  0  0  0  0  0  0  0  0  0  0  0
   -8.9673    4.3259  -17.0452 C   0  0  0  0  0  0  0  0  0  0  0  0
   -8.3474    4.5545  -18.2709 C   0  0  0  0  0  0  0  0  0  0  0  0
   -6.9933    4.8856  -18.3213 C   0  0  0  0  0  0  0  0  0  0  0  0
   -6.2636    4.9765  -17.1384 C   0  0  0  0  0  0  0  0  0  0  0  0
   -4.9052    5.3108  -17.1775 N   0  0  0  0  0  0  0  0  0  0  0  0
   -4.1110    5.3978  -16.0673 C   0  0  0  0  0  0  0  0  0  0  0  0
   -2.9164    5.6712  -16.1582 O   0  0  0  0  0  0  0  0  0  0  0  0
  1  2  1  0
  2  3  1  0
  2  4  1  0
  4  5  1  0
  5  6  2  0
  6  7  1  0
  7  8  2  0
  8  9  1  0
  9 10  1  0
 10 11  1  0
 11 12  2  0
 11 13  1  0
 13 14  1  0
 14 15  1  0
 15 16  2  0
 16 17  1  0
 17 18  2  0
 18 19  1  0
 19 20  2  0
 20 21  1  0
 21 22  2  0
 22 23  1  0
 23 24  1  0
 24 25  2  0
  8  4  1  0
 24 15  1  0
 22 17  1  0
M  END
>  <energy_score>  (3203) 
-50.02058

>  <alias>  (3203) 
LKUWXKKWWGPMMT-UHFFFAOYSA-N-P94-P91-P94-601526

>  <HIPPO Pose ID>  (3203) 
76818

>  <smiles>  (3203) 
CC(C)n1cncc1COC(=O)CCc1cc2ccccc2[nH]c1=O

>  <inchikey>  (3203) 
LKUWXKKWWGPMMT-UHFFFAOYSA-N

>  <distance_score>  (3203) 
0.715775

>  <ref_mols>  (3203) 
Z1688a,Z1716a

>  <ref_pdb>  (3203) 
Z3093a

>  <HIPPO Compound ID>  (3203) 
138879

>  <name>  (3203) 
LKUWXKKWWGPMMT-UHFFFAOYSA-N-P94-P91-P94-601526

>  <inspiration_score>  (3203) 
None

$$$$
LBFGHCVOTUMGIL-UHFFFAOYSA-N-P94-P91-P94-601526
     RDKit          3D

 26 29  0  0  0  0  0  0  0  0999 V2000
   -5.2814    8.5035  -13.5638 O   0  0  0  0  0  0  0  0  0  0  0  0
   -4.7085    7.6951  -12.8466 C   0  0  0  0  0  0  0  0  0  0  0  0
   -3.5236    6.8684  -13.2702 C   0  0  0  0  0  0  0  0  0  0  0  0
   -3.9254    5.4157  -13.5360 C   0  0  0  0  0  0  0  0  0  0  0  0
   -4.7829    5.2353  -14.7624 C   0  0  0  0  0  0  0  0  0  0  0  0
   -6.0686    4.8506  -14.7100 C   0  0  0  0  0  0  0  0  0  0  0  0
   -6.8850    4.7367  -15.9164 C   0  0  0  0  0  0  0  0  0  0  0  0
   -8.2418    4.4071  -15.8640 C   0  0  0  0  0  0  0  0  0  0  0  0
   -8.9832    4.3076  -17.0422 C   0  0  0  0  0  0  0  0  0  0  0  0
   -8.3677    4.5181  -18.2739 C   0  0  0  0  0  0  0  0  0  0  0  0
   -7.0144    4.8496  -18.3347 C   0  0  0  0  0  0  0  0  0  0  0  0
   -6.2828    4.9664  -17.1558 C   0  0  0  0  0  0  0  0  0  0  0  0
   -4.9275    5.3117  -17.2041 N   0  0  0  0  0  0  0  0  0  0  0  0
   -4.1380    5.4484  -16.0958 C   0  0  0  0  0  0  0  0  0  0  0  0
   -2.9445    5.7251  -16.1915 O   0  0  0  0  0  0  0  0  0  0  0  0
   -5.0584    7.3784  -11.5683 O   0  0  0  0  0  0  0  0  0  0  0  0
   -6.3567    7.8261  -11.1652 C   0  0  0  0  0  0  0  0  0  0  0  0
   -7.2861    6.7415  -11.5528 C   0  0  0  0  0  0  0  0  0  0  0  0
   -8.1621    6.6461  -12.6121 C   0  0  0  0  0  0  0  0  0  0  0  0
   -8.7419    5.4040  -12.6633 N   0  0  0  0  0  0  0  0  0  0  0  0
   -8.2460    4.7340  -11.6387 C   0  0  0  0  0  0  0  0  0  0  0  0
   -7.3845    5.5297  -10.9234 N   0  0  0  0  0  0  0  0  0  0  0  0
   -6.7316    5.0846   -9.7068 C   0  0  0  0  0  0  0  0  0  0  0  0
   -6.7942    3.5683   -9.5884 C   0  0  0  0  0  0  0  0  0  0  0  0
   -8.1231    3.1332   -9.8674 O   0  0  0  0  0  0  0  0  0  0  0  0
   -8.4495    3.2993  -11.2577 C   0  0  0  0  0  0  0  0  0  0  0  0
  1  2  2  0
  2  3  1  0
  3  4  1  0
  4  5  1  0
  5  6  2  0
  6  7  1  0
  7  8  2  0
  8  9  1  0
  9 10  2  0
 10 11  1  0
 11 12  2  0
 12 13  1  0
 13 14  1  0
 14 15  2  0
  2 16  1  0
 16 17  1  0
 17 18  1  0
 18 19  2  0
 19 20  1  0
 20 21  2  0
 21 22  1  0
 22 23  1  0
 23 24  1  0
 24 25  1  0
 25 26  1  0
 14  5  1  0
 22 18  1  0
 12  7  1  0
 26 21  1  0
M  END
>  <energy_score>  (3204) 
-43.989197

>  <alias>  (3204) 
LBFGHCVOTUMGIL-UHFFFAOYSA-N-P94-P91-P94-601526

>  <HIPPO Pose ID>  (3204) 
76826

>  <smiles>  (3204) 
O=C(CCc1cc2ccccc2[nH]c1=O)OCc1cnc2n1CCOC2

>  <inchikey>  (3204) 
LBFGHCVOTUMGIL-UHFFFAOYSA-N

>  <distance_score>  (3204) 
0.697999

>  <ref_mols>  (3204) 
Z1688a,Z1716a

>  <ref_pdb>  (3204) 
Z3093a

>  <HIPPO Compound ID>  (3204) 
138883

>  <name>  (3204) 
LBFGHCVOTUMGIL-UHFFFAOYSA-N-P94-P91-P94-601526

>  <inspiration_score>  (3204) 
None

$$$$
FYATZSXLEPKAGQ-UHFFFAOYSA-N-P94-P91-P94-601526
     RDKit          3D

 26 29  0  0  0  0  0  0  0  0999 V2000
   -5.8652    8.2712  -13.0060 O   0  0  0  0  0  0  0  0  0  0  0  0
   -5.2190    7.4366  -12.3880 C   0  0  0  0  0  0  0  0  0  0  0  0
   -3.9473    6.8024  -12.8853 C   0  0  0  0  0  0  0  0  0  0  0  0
   -4.1837    5.3513  -13.2986 C   0  0  0  0  0  0  0  0  0  0  0  0
   -5.0021    5.2195  -14.5571 C   0  0  0  0  0  0  0  0  0  0  0  0
   -6.2986    4.8640  -14.5606 C   0  0  0  0  0  0  0  0  0  0  0  0
   -7.0474    4.7547  -15.8113 C   0  0  0  0  0  0  0  0  0  0  0  0
   -8.4047    4.4274  -15.8258 C   0  0  0  0  0  0  0  0  0  0  0  0
   -9.0815    4.3178  -17.0423 C   0  0  0  0  0  0  0  0  0  0  0  0
   -8.4032    4.5204  -18.2427 C   0  0  0  0  0  0  0  0  0  0  0  0
   -7.0495    4.8528  -18.2362 C   0  0  0  0  0  0  0  0  0  0  0  0
   -6.3805    4.9746  -17.0211 C   0  0  0  0  0  0  0  0  0  0  0  0
   -5.0246    5.3184  -17.0019 N   0  0  0  0  0  0  0  0  0  0  0  0
   -4.2929    5.4567  -15.8556 C   0  0  0  0  0  0  0  0  0  0  0  0
   -3.1029    5.7588  -15.8870 O   0  0  0  0  0  0  0  0  0  0  0  0
   -5.5574    6.9186  -11.1760 O   0  0  0  0  0  0  0  0  0  0  0  0
   -6.8328    7.3307  -10.6703 C   0  0  1  0  0  0  0  0  0  0  0  0
   -7.9462    6.4944  -11.3203 C   0  0  0  0  0  0  0  0  0  0  0  0
   -7.8362    5.0224  -10.9024 C   0  0  0  0  0  0  0  0  0  0  0  0
   -7.9489    4.8553   -9.3853 C   0  0  0  0  0  0  0  0  0  0  0  0
   -7.2834    5.9114   -8.6478 N   0  0  0  0  0  0  0  0  0  0  0  0
   -6.7814    7.0626   -9.2073 C   0  0  0  0  0  0  0  0  0  0  0  0
   -6.2970    7.7848   -8.1401 C   0  0  0  0  0  0  0  0  0  0  0  0
   -6.5280    7.1261   -6.9589 N   0  0  0  0  0  0  0  0  0  0  0  0
   -7.1359    6.0069   -7.2914 C   0  0  0  0  0  0  0  0  0  0  0  0
   -7.7517    4.7462   -5.9960 Br  0  0  0  0  0  0  0  0  0  0  0  0
  1  2  2  0
  2  3  1  0
  3  4  1  0
  4  5  1  0
  5  6  2  0
  6  7  1  0
  7  8  2  0
  8  9  1  0
  9 10  2  0
 10 11  1  0
 11 12  2  0
 12 13  1  0
 13 14  1  0
 14 15  2  0
  2 16  1  0
 17 16  1  6
 17 18  1  0
 18 19  1  0
 19 20  1  0
 20 21  1  0
 21 22  1  0
 22 23  2  0
 23 24  1  0
 24 25  2  0
 25 26  1  0
 14  5  1  0
 22 17  1  0
 12  7  1  0
 25 21  1  0
M  END
>  <energy_score>  (3205) 
-38.650955

>  <alias>  (3205) 
FYATZSXLEPKAGQ-UHFFFAOYSA-N-P94-P91-P94-601526

>  <HIPPO Pose ID>  (3205) 
76828

>  <smiles>  (3205) 
O=C(CCc1cc2ccccc2[nH]c1=O)OC1CCCn2c1cnc2Br

>  <inchikey>  (3205) 
FYATZSXLEPKAGQ-UHFFFAOYSA-N

>  <distance_score>  (3205) 
0.860459

>  <ref_mols>  (3205) 
Z1688a,Z1716a

>  <ref_pdb>  (3205) 
Z3093a

>  <HIPPO Compound ID>  (3205) 
138884

>  <name>  (3205) 
FYATZSXLEPKAGQ-UHFFFAOYSA-N-P94-P91-P94-601526

>  <inspiration_score>  (3205) 
None

$$$$
OYKFPACNNGTTDU-UHFFFAOYSA-N-P91-P91-P94-601526
     RDKit          3D

 26 28  0  0  0  0  0  0  0  0999 V2000
   -5.0122    8.4398  -13.3890 O   0  0  0  0  0  0  0  0  0  0  0  0
   -4.5468    7.5347  -12.7104 C   0  0  0  0  0  0  0  0  0  0  0  0
   -3.4290    6.6311  -13.1520 C   0  0  0  0  0  0  0  0  0  0  0  0
   -3.9428    5.2301  -13.4864 C   0  0  0  0  0  0  0  0  0  0  0  0
   -4.8034    5.1544  -14.7221 C   0  0  0  0  0  0  0  0  0  0  0  0
   -6.1011    4.8076  -14.6931 C   0  0  0  0  0  0  0  0  0  0  0  0
   -6.9034    4.7343  -15.9133 C   0  0  0  0  0  0  0  0  0  0  0  0
   -8.2600    4.4012  -15.8877 C   0  0  0  0  0  0  0  0  0  0  0  0
   -8.9814    4.3056  -17.0795 C   0  0  0  0  0  0  0  0  0  0  0  0
   -8.3492    4.5395  -18.2996 C   0  0  0  0  0  0  0  0  0  0  0  0
   -6.9968    4.8810  -18.3326 C   0  0  0  0  0  0  0  0  0  0  0  0
   -6.2822    4.9796  -17.1402 C   0  0  0  0  0  0  0  0  0  0  0  0
   -4.9225    5.3119  -17.1633 N   0  0  0  0  0  0  0  0  0  0  0  0
   -4.1422    5.3976  -16.0430 C   0  0  0  0  0  0  0  0  0  0  0  0
   -2.9421    5.6512  -16.1182 O   0  0  0  0  0  0  0  0  0  0  0  0
   -4.9723    7.1758  -11.4643 O   0  0  0  0  0  0  0  0  0  0  0  0
   -6.2282    7.7377  -11.0754 C   0  0  0  0  0  0  0  0  0  0  0  0
   -7.2458    6.7460  -11.4964 C   0  0  0  0  0  0  0  0  0  0  0  0
   -8.0269    6.8118  -12.6349 C   0  0  0  0  0  0  0  0  0  0  0  0
   -8.7710    5.6853  -12.7943 N   0  0  0  0  0  0  0  0  0  0  0  0
   -8.4708    4.9299  -11.7639 C   0  0  0  0  0  0  0  0  0  0  0  0
   -7.5662    5.5355  -10.9200 N   0  0  0  0  0  0  0  0  0  0  0  0
   -7.1156    4.8559   -9.7171 C   0  0  0  0  0  0  0  0  0  0  0  0
   -6.2219    5.6000   -8.7502 C   0  0  0  0  0  0  0  0  0  0  0  0
   -5.8857    4.8022   -7.7020 F   0  0  0  0  0  0  0  0  0  0  0  0
   -6.8821    6.6563   -8.2070 F   0  0  0  0  0  0  0  0  0  0  0  0
  1  2  2  0
  2  3  1  0
  3  4  1  0
  4  5  1  0
  5  6  2  0
  6  7  1  0
  7  8  2  0
  8  9  1  0
  9 10  2  0
 10 11  1  0
 11 12  2  0
 12 13  1  0
 13 14  1  0
 14 15  2  0
  2 16  1  0
 16 17  1  0
 17 18  1  0
 18 19  2  0
 19 20  1  0
 20 21  2  0
 21 22  1  0
 22 23  1  0
 23 24  1  0
 24 25  1  0
 24 26  1  0
 14  5  1  0
 22 18  1  0
 12  7  1  0
M  END
>  <energy_score>  (3206) 
-31.716251

>  <alias>  (3206) 
OYKFPACNNGTTDU-UHFFFAOYSA-N-P91-P91-P94-601526

>  <HIPPO Pose ID>  (3206) 
76829

>  <smiles>  (3206) 
O=C(CCc1cc2ccccc2[nH]c1=O)OCc1cncn1CC(F)F

>  <inchikey>  (3206) 
OYKFPACNNGTTDU-UHFFFAOYSA-N

>  <distance_score>  (3206) 
0.676735

>  <ref_mols>  (3206) 
Z1688a,Z1716a

>  <ref_pdb>  (3206) 
Z3093a

>  <HIPPO Compound ID>  (3206) 
138885

>  <name>  (3206) 
OYKFPACNNGTTDU-UHFFFAOYSA-N-P91-P91-P94-601526

>  <inspiration_score>  (3206) 
None

$$$$
GFTTZQFHMKOLHO-UHFFFAOYSA-N-P94-P91-P94-601526
     RDKit          3D

 27 29  0  0  0  0  0  0  0  0999 V2000
   -5.2847    8.4399  -13.0674 O   0  0  0  0  0  0  0  0  0  0  0  0
   -4.7506    7.4994  -12.4971 C   0  0  0  0  0  0  0  0  0  0  0  0
   -3.5578    6.7540  -13.0294 C   0  0  0  0  0  0  0  0  0  0  0  0
   -3.9273    5.3356  -13.4656 C   0  0  0  0  0  0  0  0  0  0  0  0
   -4.7002    5.2474  -14.7578 C   0  0  0  0  0  0  0  0  0  0  0  0
   -6.0457    4.8710  -14.7544 C   0  0  0  0  0  0  0  0  0  0  0  0
   -6.7762    4.7690  -15.9492 C   0  0  0  0  0  0  0  0  0  0  0  0
   -8.1307    4.3888  -15.9697 C   0  0  0  0  0  0  0  0  0  0  0  0
   -8.7956    4.2704  -17.1807 C   0  0  0  0  0  0  0  0  0  0  0  0
  -10.0812    3.9073  -17.2091 F   0  0  0  0  0  0  0  0  0  0  0  0
   -8.1395    4.5213  -18.3698 C   0  0  0  0  0  0  0  0  0  0  0  0
   -6.7985    4.9098  -18.3472 C   0  0  0  0  0  0  0  0  0  0  0  0
   -6.0985    5.0391  -17.1548 C   0  0  0  0  0  0  0  0  0  0  0  0
   -4.8048    5.3968  -17.1824 N   0  0  0  0  0  0  0  0  0  0  0  0
   -4.1441    5.4842  -16.0089 C   0  0  0  0  0  0  0  0  0  0  0  0
   -2.4803    5.8751  -16.2291 Cl  0  0  0  0  0  0  0  0  0  0  0  0
   -5.1446    6.9560  -11.3116 O   0  0  0  0  0  0  0  0  0  0  0  0
   -6.4236    7.3913  -10.8404 C   0  0  0  0  0  0  0  0  0  0  0  0
   -7.4128    6.5061  -11.5001 C   0  0  0  0  0  0  0  0  0  0  0  0
   -8.1953    6.7402  -12.6109 C   0  0  0  0  0  0  0  0  0  0  0  0
   -8.8962    5.6202  -12.9587 N   0  0  0  0  0  0  0  0  0  0  0  0
   -8.5587    4.7064  -12.0753 C   0  0  0  0  0  0  0  0  0  0  0  0
   -7.6846    5.2035  -11.1512 N   0  0  0  0  0  0  0  0  0  0  0  0
   -7.0985    4.4302  -10.0788 C   0  0  0  0  0  0  0  0  0  0  0  0
   -7.8845    4.5238   -8.7893 C   0  0  0  0  0  0  0  0  0  0  0  0
   -7.9364    5.8146   -8.3649 F   0  0  0  0  0  0  0  0  0  0  0  0
   -7.2076    3.8526   -7.8159 F   0  0  0  0  0  0  0  0  0  0  0  0
  1  2  2  0
  2  3  1  0
  3  4  1  0
  4  5  1  0
  5  6  2  0
  6  7  1  0
  7  8  2  0
  8  9  1  0
  9 10  1  0
  9 11  2  0
 11 12  1  0
 12 13  2  0
 13 14  1  0
 14 15  2  0
 15 16  1  0
  2 17  1  0
 17 18  1  0
 18 19  1  0
 19 20  2  0
 20 21  1  0
 21 22  2  0
 22 23  1  0
 23 24  1  0
 24 25  1  0
 25 26  1  0
 25 27  1  0
 15  5  1  0
 23 19  1  0
 13  7  1  0
M  END
>  <energy_score>  (3207) 
-22.940566

>  <alias>  (3207) 
GFTTZQFHMKOLHO-UHFFFAOYSA-N-P94-P91-P94-601526

>  <HIPPO Pose ID>  (3207) 
76848

>  <smiles>  (3207) 
O=C(CCc1cc2cc(F)ccc2nc1Cl)OCc1cncn1CC(F)F

>  <inchikey>  (3207) 
GFTTZQFHMKOLHO-UHFFFAOYSA-N

>  <distance_score>  (3207) 
0.712474

>  <ref_mols>  (3207) 
Z1688a,Z1716a

>  <ref_pdb>  (3207) 
Z3093a

>  <HIPPO Compound ID>  (3207) 
138894

>  <name>  (3207) 
GFTTZQFHMKOLHO-UHFFFAOYSA-N-P94-P91-P94-601526

>  <inspiration_score>  (3207) 
None

$$$$
WTMJGLVTKCGDIS-UHFFFAOYSA-N-P94-P91-P94-601526
     RDKit          3D

 27 30  0  0  0  0  0  0  0  0999 V2000
   -5.2104    8.5024  -12.8338 O   0  0  0  0  0  0  0  0  0  0  0  0
   -4.6149    7.5284  -12.3962 C   0  0  0  0  0  0  0  0  0  0  0  0
   -3.4961    6.8240  -13.1188 C   0  0  0  0  0  0  0  0  0  0  0  0
   -3.8826    5.4005  -13.5210 C   0  0  0  0  0  0  0  0  0  0  0  0
   -4.7607    5.3153  -14.7433 C   0  0  0  0  0  0  0  0  0  0  0  0
   -6.0605    4.9850  -14.6897 C   0  0  0  0  0  0  0  0  0  0  0  0
   -6.8750    4.8443  -15.8928 C   0  0  0  0  0  0  0  0  0  0  0  0
   -8.2330    4.5198  -15.8338 C   0  0  0  0  0  0  0  0  0  0  0  0
   -8.9639    4.3625  -17.0125 C   0  0  0  0  0  0  0  0  0  0  0  0
   -8.3399    4.5244  -18.2481 C   0  0  0  0  0  0  0  0  0  0  0  0
   -6.9865    4.8567  -18.3136 C   0  0  0  0  0  0  0  0  0  0  0  0
   -6.2616    5.0179  -17.1357 C   0  0  0  0  0  0  0  0  0  0  0  0
   -4.9026    5.3516  -17.1865 N   0  0  0  0  0  0  0  0  0  0  0  0
   -4.1153    5.5123  -16.0783 C   0  0  0  0  0  0  0  0  0  0  0  0
   -2.9234    5.7949  -16.1758 O   0  0  0  0  0  0  0  0  0  0  0  0
   -4.8555    6.9241  -11.1978 O   0  0  0  0  0  0  0  0  0  0  0  0
   -6.0826    7.2931  -10.5514 C   0  0  0  0  0  0  0  0  0  0  0  0
   -7.1105    6.3783  -11.0974 C   0  0  0  0  0  0  0  0  0  0  0  0
   -8.1557    6.5893  -11.9699 C   0  0  0  0  0  0  0  0  0  0  0  0
   -8.7821    8.2580  -12.5681 Br  0  0  0  0  0  0  0  0  0  0  0  0
   -8.6977    5.4052  -12.3961 N   0  0  0  0  0  0  0  0  0  0  0  0
   -8.0487    4.4657  -11.7344 C   0  0  0  0  0  0  0  0  0  0  0  0
   -7.1492    5.0269  -10.8618 N   0  0  0  0  0  0  0  0  0  0  0  0
   -6.2886    4.2307  -10.0019 C   0  0  0  0  0  0  0  0  0  0  0  0
   -6.7203    2.7683  -10.0131 C   0  0  0  0  0  0  0  0  0  0  0  0
   -6.9389    2.3774  -11.3716 O   0  0  0  0  0  0  0  0  0  0  0  0
   -8.1395    2.9817  -11.8892 C   0  0  0  0  0  0  0  0  0  0  0  0
  1  2  2  0
  2  3  1  0
  3  4  1  0
  4  5  1  0
  5  6  2  0
  6  7  1  0
  7  8  2  0
  8  9  1  0
  9 10  2  0
 10 11  1  0
 11 12  2  0
 12 13  1  0
 13 14  1  0
 14 15  2  0
  2 16  1  0
 16 17  1  0
 17 18  1  0
 18 19  2  0
 19 20  1  0
 19 21  1  0
 21 22  2  0
 22 23  1  0
 23 24  1  0
 24 25  1  0
 25 26  1  0
 26 27  1  0
 14  5  1  0
 23 18  1  0
 12  7  1  0
 27 22  1  0
M  END
>  <energy_score>  (3208) 
-54.548288

>  <alias>  (3208) 
WTMJGLVTKCGDIS-UHFFFAOYSA-N-P94-P91-P94-601526

>  <HIPPO Pose ID>  (3208) 
76854

>  <smiles>  (3208) 
O=C(CCc1cc2ccccc2[nH]c1=O)OCc1c(Br)nc2n1CCOC2

>  <inchikey>  (3208) 
WTMJGLVTKCGDIS-UHFFFAOYSA-N

>  <distance_score>  (3208) 
0.746591

>  <ref_mols>  (3208) 
Z1688a,Z1716a

>  <ref_pdb>  (3208) 
Z3093a

>  <HIPPO Compound ID>  (3208) 
138897

>  <name>  (3208) 
WTMJGLVTKCGDIS-UHFFFAOYSA-N-P94-P91-P94-601526

>  <inspiration_score>  (3208) 
None

$$$$
VLPNTVXEWCMPHU-UHFFFAOYSA-N-P94-P91-P94-601526
     RDKit          3D

 28 31  0  0  0  0  0  0  0  0999 V2000
   -5.1621    8.5720  -13.9575 O   0  0  0  0  0  0  0  0  0  0  0  0
   -4.9304    7.9312  -12.9348 C   0  0  0  0  0  0  0  0  0  0  0  0
   -3.8216    6.9094  -12.8956 C   0  0  0  0  0  0  0  0  0  0  0  0
   -4.1951    5.5036  -13.3552 C   0  0  0  0  0  0  0  0  0  0  0  0
   -4.8676    5.3744  -14.6956 C   0  0  0  0  0  0  0  0  0  0  0  0
   -6.2128    5.0087  -14.7556 C   0  0  0  0  0  0  0  0  0  0  0  0
   -6.8769    4.8440  -15.9727 C   0  0  0  0  0  0  0  0  0  0  0  0
   -8.2311    4.4709  -16.0212 C   0  0  0  0  0  0  0  0  0  0  0  0
   -8.8404    4.2833  -17.2510 C   0  0  0  0  0  0  0  0  0  0  0  0
  -10.1253    3.9209  -17.3153 F   0  0  0  0  0  0  0  0  0  0  0  0
   -8.1288    4.4682  -18.4218 C   0  0  0  0  0  0  0  0  0  0  0  0
   -6.7860    4.8546  -18.3640 C   0  0  0  0  0  0  0  0  0  0  0  0
   -6.1349    5.0444  -17.1518 C   0  0  0  0  0  0  0  0  0  0  0  0
   -4.8349    5.3913  -17.1256 N   0  0  0  0  0  0  0  0  0  0  0  0
   -4.2401    5.5464  -15.9206 C   0  0  0  0  0  0  0  0  0  0  0  0
   -2.5648    5.9193  -16.0567 Cl  0  0  0  0  0  0  0  0  0  0  0  0
   -5.6020    8.2032  -11.7927 O   0  0  0  0  0  0  0  0  0  0  0  0
   -5.8713    7.2469  -10.7493 C   0  0  0  0  0  0  0  0  0  0  0  0
   -6.9588    6.3501  -11.2044 C   0  0  0  0  0  0  0  0  0  0  0  0
   -8.0828    6.5623  -11.9792 C   0  0  0  0  0  0  0  0  0  0  0  0
   -8.7684    8.2209  -12.5449 Br  0  0  0  0  0  0  0  0  0  0  0  0
   -8.6701    5.3781  -12.3385 N   0  0  0  0  0  0  0  0  0  0  0  0
   -8.0040    4.4456  -11.6873 C   0  0  0  0  0  0  0  0  0  0  0  0
   -7.0460    5.0158  -10.8849 N   0  0  0  0  0  0  0  0  0  0  0  0
   -6.2060    4.2312   -9.9929 C   0  0  0  0  0  0  0  0  0  0  0  0
   -6.6750    2.7806   -9.9414 C   0  0  0  0  0  0  0  0  0  0  0  0
   -6.9341    2.3520  -11.2808 O   0  0  0  0  0  0  0  0  0  0  0  0
   -8.1392    2.9605  -11.7836 C   0  0  0  0  0  0  0  0  0  0  0  0
  1  2  2  0
  2  3  1  0
  3  4  1  0
  4  5  1  0
  5  6  2  0
  6  7  1  0
  7  8  2  0
  8  9  1  0
  9 10  1  0
  9 11  2  0
 11 12  1  0
 12 13  2  0
 13 14  1  0
 14 15  2  0
 15 16  1  0
  2 17  1  0
 17 18  1  0
 18 19  1  0
 19 20  2  0
 20 21  1  0
 20 22  1  0
 22 23  2  0
 23 24  1  0
 24 25  1  0
 25 26  1  0
 26 27  1  0
 27 28  1  0
 15  5  1  0
 24 19  1  0
 13  7  1  0
 28 23  1  0
M  END
>  <energy_score>  (3209) 
-14.133147

>  <alias>  (3209) 
VLPNTVXEWCMPHU-UHFFFAOYSA-N-P94-P91-P94-601526

>  <HIPPO Pose ID>  (3209) 
76858

>  <smiles>  (3209) 
O=C(CCc1cc2cc(F)ccc2nc1Cl)OCc1c(Br)nc2n1CCOC2

>  <inchikey>  (3209) 
VLPNTVXEWCMPHU-UHFFFAOYSA-N

>  <distance_score>  (3209) 
0.830406

>  <ref_mols>  (3209) 
Z1688a,Z1716a

>  <ref_pdb>  (3209) 
Z3093a

>  <HIPPO Compound ID>  (3209) 
138899

>  <name>  (3209) 
VLPNTVXEWCMPHU-UHFFFAOYSA-N-P94-P91-P94-601526

>  <inspiration_score>  (3209) 
None

$$$$
MEDUNHYPVPCNKM-UHFFFAOYSA-N-P94-P91-P94-601526
     RDKit          3D

 28 30  0  0  0  0  0  0  0  0999 V2000
   -5.0033    8.4219  -13.6475 O   0  0  0  0  0  0  0  0  0  0  0  0
   -4.7945    7.6495  -12.7157 C   0  0  0  0  0  0  0  0  0  0  0  0
   -3.7142    6.5998  -12.7927 C   0  0  0  0  0  0  0  0  0  0  0  0
   -4.1323    5.2457  -13.3567 C   0  0  0  0  0  0  0  0  0  0  0  0
   -4.8280    5.2212  -14.6906 C   0  0  0  0  0  0  0  0  0  0  0  0
   -6.1549    4.7923  -14.7602 C   0  0  0  0  0  0  0  0  0  0  0  0
   -6.8475    4.7405  -15.9726 C   0  0  0  0  0  0  0  0  0  0  0  0
   -8.1959    4.3481  -16.0293 C   0  0  0  0  0  0  0  0  0  0  0  0
   -8.8268    4.2512  -17.2574 C   0  0  0  0  0  0  0  0  0  0  0  0
  -10.1067    3.8732  -17.3299 F   0  0  0  0  0  0  0  0  0  0  0  0
   -8.1386    4.5357  -18.4208 C   0  0  0  0  0  0  0  0  0  0  0  0
   -6.8054    4.9529  -18.3552 C   0  0  0  0  0  0  0  0  0  0  0  0
   -6.1382    5.0687  -17.1424 C   0  0  0  0  0  0  0  0  0  0  0  0
   -4.8512    5.4606  -17.1094 N   0  0  0  0  0  0  0  0  0  0  0  0
   -4.2367    5.5323  -15.9064 C   0  0  0  0  0  0  0  0  0  0  0  0
   -2.5776    5.9716  -16.0433 Cl  0  0  0  0  0  0  0  0  0  0  0  0
   -5.4678    7.7875  -11.5477 O   0  0  0  0  0  0  0  0  0  0  0  0
   -5.8651    6.6637  -10.7395 C   0  0  0  0  0  0  0  0  0  0  0  0
   -7.0396    6.0270  -11.3887 C   0  0  0  0  0  0  0  0  0  0  0  0
   -7.8735    6.5089  -12.3836 C   0  0  0  0  0  0  0  0  0  0  0  0
   -8.7643    5.5570  -12.7863 N   0  0  0  0  0  0  0  0  0  0  0  0
   -8.5382    4.5216  -12.0114 C   0  0  0  0  0  0  0  0  0  0  0  0
   -7.5280    4.7646  -11.1205 N   0  0  0  0  0  0  0  0  0  0  0  0
   -7.1377    3.8188  -10.0886 C   0  0  0  0  0  0  0  0  0  0  0  0
   -5.9795    2.9339  -10.4938 C   0  0  0  0  0  0  0  0  0  0  0  0
   -4.8264    3.6495  -10.5435 F   0  0  0  0  0  0  0  0  0  0  0  0
   -6.1457    2.3649  -11.7052 F   0  0  0  0  0  0  0  0  0  0  0  0
   -5.7693    1.9412   -9.6022 F   0  0  0  0  0  0  0  0  0  0  0  0
  1  2  2  0
  2  3  1  0
  3  4  1  0
  4  5  1  0
  5  6  2  0
  6  7  1  0
  7  8  2  0
  8  9  1  0
  9 10  1  0
  9 11  2  0
 11 12  1  0
 12 13  2  0
 13 14  1  0
 14 15  2  0
 15 16  1  0
  2 17  1  0
 17 18  1  0
 18 19  1  0
 19 20  2  0
 20 21  1  0
 21 22  2  0
 22 23  1  0
 23 24  1  0
 24 25  1  0
 25 26  1  0
 25 27  1  0
 25 28  1  0
 15  5  1  0
 23 19  1  0
 13  7  1  0
M  END
>  <energy_score>  (3210) 
-25.98491

>  <alias>  (3210) 
MEDUNHYPVPCNKM-UHFFFAOYSA-N-P94-P91-P94-601526

>  <HIPPO Pose ID>  (3210) 
76860

>  <smiles>  (3210) 
O=C(CCc1cc2cc(F)ccc2nc1Cl)OCc1cncn1CC(F)(F)F

>  <inchikey>  (3210) 
MEDUNHYPVPCNKM-UHFFFAOYSA-N

>  <distance_score>  (3210) 
0.825783

>  <ref_mols>  (3210) 
Z1688a,Z1716a

>  <ref_pdb>  (3210) 
Z3093a

>  <HIPPO Compound ID>  (3210) 
138900

>  <name>  (3210) 
MEDUNHYPVPCNKM-UHFFFAOYSA-N-P94-P91-P94-601526

>  <inspiration_score>  (3210) 
None

$$$$
RXAQOAJDTXGSMN-UHFFFAOYSA-N-P94-P91-P94-601526
     RDKit          3D

 29 32  0  0  0  0  0  0  0  0999 V2000
   -4.6019    8.4599  -14.3874 O   0  0  0  0  0  0  0  0  0  0  0  0
   -4.5603    7.8269  -13.3344 C   0  0  0  0  0  0  0  0  0  0  0  0
   -3.5831    6.6928  -13.1387 C   0  0  0  0  0  0  0  0  0  0  0  0
   -4.1197    5.2894  -13.4174 C   0  0  0  0  0  0  0  0  0  0  0  0
   -4.9036    5.1293  -14.6904 C   0  0  0  0  0  0  0  0  0  0  0  0
   -6.1925    4.7546  -14.6989 C   0  0  0  0  0  0  0  0  0  0  0  0
   -6.9643    4.6854  -15.9334 C   0  0  0  0  0  0  0  0  0  0  0  0
   -8.3293    4.3877  -15.9260 C   0  0  0  0  0  0  0  0  0  0  0  0
   -9.0308    4.3118  -17.1280 C   0  0  0  0  0  0  0  0  0  0  0  0
   -8.3666    4.5227  -18.3343 C   0  0  0  0  0  0  0  0  0  0  0  0
   -7.0063    4.8369  -18.3471 C   0  0  0  0  0  0  0  0  0  0  0  0
   -6.3126    4.9263  -17.1442 C   0  0  0  0  0  0  0  0  0  0  0  0
   -4.9491    5.2480  -17.1341 N   0  0  0  0  0  0  0  0  0  0  0  0
   -4.1989    5.3436  -15.9927 C   0  0  0  0  0  0  0  0  0  0  0  0
   -2.9915    5.5677  -16.0319 O   0  0  0  0  0  0  0  0  0  0  0  0
   -5.3419    8.1990  -12.2969 O   0  0  0  0  0  0  0  0  0  0  0  0
   -5.7293    7.3319  -11.2159 C   0  0  0  0  0  0  0  0  0  0  0  0
   -6.9442    6.5950  -11.6475 C   0  0  0  0  0  0  0  0  0  0  0  0
   -7.8289    6.8425  -12.6806 C   0  0  0  0  0  0  0  0  0  0  0  0
   -8.7623    5.8484  -12.7837 N   0  0  0  0  0  0  0  0  0  0  0  0
   -8.4932    5.0209  -11.7996 C   0  0  0  0  0  0  0  0  0  0  0  0
   -7.4425    5.4605  -11.0418 N   0  0  0  0  0  0  0  0  0  0  0  0
   -6.9610    4.7678   -9.8510 C   0  0  0  0  0  0  0  0  0  0  0  0
   -6.8371    5.6612   -8.6382 C   0  0  0  0  0  0  0  0  0  0  0  0
   -7.8047    6.6298   -8.3279 C   0  0  0  0  0  0  0  0  0  0  0  0
   -7.6532    7.4540   -7.2122 C   0  0  0  0  0  0  0  0  0  0  0  0
   -6.5520    7.3002   -6.3738 C   0  0  0  0  0  0  0  0  0  0  0  0
   -5.6028    6.3180   -6.6472 C   0  0  0  0  0  0  0  0  0  0  0  0
   -5.7470    5.4987   -7.7686 C   0  0  0  0  0  0  0  0  0  0  0  0
  1  2  2  0
  2  3  1  0
  3  4  1  0
  4  5  1  0
  5  6  2  0
  6  7  1  0
  7  8  2  0
  8  9  1  0
  9 10  2  0
 10 11  1  0
 11 12  2  0
 12 13  1  0
 13 14  1  0
 14 15  2  0
  2 16  1  0
 16 17  1  0
 17 18  1  0
 18 19  2  0
 19 20  1  0
 20 21  2  0
 21 22  1  0
 22 23  1  0
 23 24  1  0
 24 25  2  0
 25 26  1  0
 26 27  2  0
 27 28  1  0
 28 29  2  0
 14  5  1  0
 22 18  1  0
 29 24  1  0
 12  7  1  0
M  END
>  <energy_score>  (3211) 
-16.314312

>  <alias>  (3211) 
RXAQOAJDTXGSMN-UHFFFAOYSA-N-P94-P91-P94-601526

>  <HIPPO Pose ID>  (3211) 
76864

>  <smiles>  (3211) 
O=C(CCc1cc2ccccc2[nH]c1=O)OCc1cncn1Cc1ccccc1

>  <inchikey>  (3211) 
RXAQOAJDTXGSMN-UHFFFAOYSA-N

>  <distance_score>  (3211) 
0.725508

>  <ref_mols>  (3211) 
Z1688a,Z1716a

>  <ref_pdb>  (3211) 
Z3093a

>  <HIPPO Compound ID>  (3211) 
138902

>  <name>  (3211) 
RXAQOAJDTXGSMN-UHFFFAOYSA-N-P94-P91-P94-601526

>  <inspiration_score>  (3211) 
None

$$$$
IXQYOKHGBOSDNI-UHFFFAOYSA-N-P91-P91-P94-601526
     RDKit          3D

 30 33  0  0  0  0  0  0  0  0999 V2000
   -3.6719    6.9261  -10.8064 O   0  0  0  0  0  0  0  0  0  0  0  0
   -4.0926    7.1876  -11.9257 C   0  0  0  0  0  0  0  0  0  0  0  0
   -3.4125    6.7657  -13.1987 C   0  0  0  0  0  0  0  0  0  0  0  0
   -3.8505    5.3453  -13.5674 C   0  0  0  0  0  0  0  0  0  0  0  0
   -4.7504    5.2744  -14.7754 C   0  0  0  0  0  0  0  0  0  0  0  0
   -6.0346    4.8853  -14.7219 C   0  0  0  0  0  0  0  0  0  0  0  0
   -6.8608    4.7873  -15.9239 C   0  0  0  0  0  0  0  0  0  0  0  0
   -8.2102    4.4281  -15.8708 C   0  0  0  0  0  0  0  0  0  0  0  0
   -8.9495    4.3042  -17.0492 C   0  0  0  0  0  0  0  0  0  0  0  0
   -8.3419    4.5324  -18.2828 C   0  0  0  0  0  0  0  0  0  0  0  0
   -6.9973    4.9002  -18.3428 C   0  0  0  0  0  0  0  0  0  0  0  0
   -6.2662    5.0318  -17.1641 C   0  0  0  0  0  0  0  0  0  0  0  0
   -4.9201    5.4126  -17.2136 N   0  0  0  0  0  0  0  0  0  0  0  0
   -4.1307    5.5635  -16.1065 C   0  0  0  0  0  0  0  0  0  0  0  0
   -2.9568    5.9137  -16.1997 O   0  0  0  0  0  0  0  0  0  0  0  0
   -5.2675    7.8039  -12.2034 O   0  0  0  0  0  0  0  0  0  0  0  0
   -6.2309    7.8253  -11.1431 C   0  0  0  0  0  0  0  0  0  0  0  0
   -7.1876    6.7506  -11.4998 C   0  0  0  0  0  0  0  0  0  0  0  0
   -8.1326    6.7401  -12.5052 C   0  0  0  0  0  0  0  0  0  0  0  0
   -8.6921    5.5048  -12.6447 N   0  0  0  0  0  0  0  0  0  0  0  0
   -8.1288    4.7675  -11.7155 C   0  0  0  0  0  0  0  0  0  0  0  0
   -8.3617    3.0652  -11.5783 S   0  0  0  0  0  0  0  0  0  0  0  0
   -7.2466    5.4831  -10.9424 N   0  0  0  0  0  0  0  0  0  0  0  0
   -6.4235    4.9646   -9.8536 C   0  0  0  0  0  0  0  0  0  0  0  0
   -6.9051    5.4067   -8.4930 C   0  0  0  0  0  0  0  0  0  0  0  0
   -6.1096    6.2415   -7.6930 C   0  0  0  0  0  0  0  0  0  0  0  0
   -6.5432    6.6370   -6.4262 C   0  0  0  0  0  0  0  0  0  0  0  0
   -7.7691    6.1911   -5.9373 C   0  0  0  0  0  0  0  0  0  0  0  0
   -8.5600    5.3465   -6.7131 C   0  0  0  0  0  0  0  0  0  0  0  0
   -8.1317    4.9559   -7.9834 C   0  0  0  0  0  0  0  0  0  0  0  0
  1  2  2  0
  2  3  1  0
  3  4  1  0
  4  5  1  0
  5  6  2  0
  6  7  1  0
  7  8  2  0
  8  9  1  0
  9 10  2  0
 10 11  1  0
 11 12  2  0
 12 13  1  0
 13 14  1  0
 14 15  2  0
  2 16  1  0
 16 17  1  0
 17 18  1  0
 18 19  2  0
 19 20  1  0
 20 21  2  0
 21 22  1  0
 21 23  1  0
 23 24  1  0
 24 25  1  0
 25 26  2  0
 26 27  1  0
 27 28  2  0
 28 29  1  0
 29 30  2  0
 14  5  1  0
 23 18  1  0
 30 25  1  0
 12  7  1  0
M  END
>  <energy_score>  (3212) 
-42.826788

>  <alias>  (3212) 
IXQYOKHGBOSDNI-UHFFFAOYSA-N-P91-P91-P94-601526

>  <HIPPO Pose ID>  (3212) 
76865

>  <smiles>  (3212) 
O=C(CCc1cc2ccccc2[nH]c1=O)OCc1cnc(S)n1Cc1ccccc1

>  <inchikey>  (3212) 
IXQYOKHGBOSDNI-UHFFFAOYSA-N

>  <distance_score>  (3212) 
0.851221

>  <ref_mols>  (3212) 
Z1688a,Z1716a

>  <ref_pdb>  (3212) 
Z3093a

>  <HIPPO Compound ID>  (3212) 
138903

>  <name>  (3212) 
IXQYOKHGBOSDNI-UHFFFAOYSA-N-P91-P91-P94-601526

>  <inspiration_score>  (3212) 
None

$$$$
UXGFPEUNXVFLIG-UHFFFAOYSA-N-P94-P91-P94-601526
     RDKit          3D

 30 33  0  0  0  0  0  0  0  0999 V2000
   -2.7990    7.7371  -14.2661 N   0  0  0  0  0  0  0  0  0  0  0  0
   -3.4891    7.0049  -13.1713 C   0  0  2  0  0  0  0  0  0  0  0  0
   -3.8546    5.5454  -13.5255 C   0  0  0  0  0  0  0  0  0  0  0  0
   -4.6816    5.3363  -14.7697 C   0  0  0  0  0  0  0  0  0  0  0  0
   -4.1440    5.4965  -16.0369 C   0  0  0  0  0  0  0  0  0  0  0  0
   -4.8360    5.3535  -17.1899 N   0  0  0  0  0  0  0  0  0  0  0  0
   -6.1387    5.0174  -17.1124 C   0  0  0  0  0  0  0  0  0  0  0  0
   -6.8875    4.8699  -18.2726 C   0  0  0  0  0  0  0  0  0  0  0  0
   -8.2431    4.5274  -18.2383 C   0  0  0  0  0  0  0  0  0  0  0  0
   -8.8763    4.3259  -17.0203 C   0  0  0  0  0  0  0  0  0  0  0  0
   -8.1460    4.4532  -15.8423 C   0  0  0  0  0  0  0  0  0  0  0  0
   -6.7823    4.8024  -15.8793 C   0  0  0  0  0  0  0  0  0  0  0  0
   -6.0183    4.9482  -14.7109 C   0  0  0  0  0  0  0  0  0  0  0  0
   -4.7309    7.7825  -12.7147 C   0  0  0  0  0  0  0  0  0  0  0  0
   -5.3313    8.6033  -13.3985 O   0  0  0  0  0  0  0  0  0  0  0  0
   -5.0537    7.4261  -11.4420 O   0  0  0  0  0  0  0  0  0  0  0  0
   -6.3518    7.8169  -10.9904 C   0  0  0  0  0  0  0  0  0  0  0  0
   -7.2590    6.7300  -11.4224 C   0  0  0  0  0  0  0  0  0  0  0  0
   -8.1087    6.6957  -12.5080 C   0  0  0  0  0  0  0  0  0  0  0  0
   -8.6751    5.4628  -12.6487 N   0  0  0  0  0  0  0  0  0  0  0  0
   -8.1904    4.7451  -11.6613 C   0  0  0  0  0  0  0  0  0  0  0  0
   -8.5022    3.0637  -11.4527 S   0  0  0  0  0  0  0  0  0  0  0  0
   -7.3527    5.4710  -10.8509 N   0  0  0  0  0  0  0  0  0  0  0  0
   -6.7611    5.0345   -9.5873 C   0  0  0  0  0  0  0  0  0  0  0  0
   -5.3202    4.5940   -9.7083 C   0  0  0  0  0  0  0  0  0  0  0  0
   -4.9866    3.3430  -10.2481 C   0  0  0  0  0  0  0  0  0  0  0  0
   -3.6534    2.9407  -10.3555 C   0  0  0  0  0  0  0  0  0  0  0  0
   -2.6331    3.7792   -9.9160 C   0  0  0  0  0  0  0  0  0  0  0  0
   -2.9462    5.0158   -9.3580 C   0  0  0  0  0  0  0  0  0  0  0  0
   -4.2799    5.4168   -9.2480 C   0  0  0  0  0  0  0  0  0  0  0  0
  2  1  1  6
  2  3  1  0
  3  4  1  0
  4  5  2  0
  5  6  1  0
  6  7  2  0
  7  8  1  0
  8  9  2  0
  9 10  1  0
 10 11  2  0
 11 12  1  0
 12 13  2  0
  2 14  1  0
 14 15  2  0
 14 16  1  0
 16 17  1  0
 17 18  1  0
 18 19  2  0
 19 20  1  0
 20 21  2  0
 21 22  1  0
 21 23  1  0
 23 24  1  0
 24 25  1  0
 25 26  2  0
 26 27  1  0
 27 28  2  0
 28 29  1  0
 29 30  2  0
 13  4  1  0
 23 18  1  0
 30 25  1  0
 12  7  1  0
M  END
>  <energy_score>  (3213) 
-43.536486

>  <alias>  (3213) 
UXGFPEUNXVFLIG-UHFFFAOYSA-N-P94-P91-P94-601526

>  <HIPPO Pose ID>  (3213) 
76868

>  <smiles>  (3213) 
NC(Cc1cnc2ccccc2c1)C(=O)OCc1cnc(S)n1Cc1ccccc1

>  <inchikey>  (3213) 
UXGFPEUNXVFLIG-UHFFFAOYSA-N

>  <distance_score>  (3213) 
0.701731

>  <ref_mols>  (3213) 
Z1688a,Z1716a

>  <ref_pdb>  (3213) 
Z3093a

>  <HIPPO Compound ID>  (3213) 
138904

>  <name>  (3213) 
UXGFPEUNXVFLIG-UHFFFAOYSA-N-P94-P91-P94-601526

>  <inspiration_score>  (3213) 
None

$$$$
KVVMYNRLQLZVKW-UHFFFAOYSA-N-P94-P91-P94-601526
     RDKit          3D

 31 34  0  0  0  0  0  0  0  0999 V2000
   -2.8267    7.7290  -14.1809 N   0  0  0  0  0  0  0  0  0  0  0  0
   -3.5359    7.0013  -13.0972 C   0  0  2  0  0  0  0  0  0  0  0  0
   -3.9045    5.5448  -13.4614 C   0  0  0  0  0  0  0  0  0  0  0  0
   -4.7169    5.3439  -14.7166 C   0  0  0  0  0  0  0  0  0  0  0  0
   -4.1595    5.4928  -15.9771 C   0  0  0  0  0  0  0  0  0  0  0  0
   -4.8353    5.3479  -17.1397 N   0  0  0  0  0  0  0  0  0  0  0  0
   -6.1411    5.0191  -17.0803 C   0  0  0  0  0  0  0  0  0  0  0  0
   -6.8735    4.8649  -18.2504 C   0  0  0  0  0  0  0  0  0  0  0  0
   -8.2304    4.5259  -18.2331 C   0  0  0  0  0  0  0  0  0  0  0  0
   -8.8820    4.3361  -17.0229 C   0  0  0  0  0  0  0  0  0  0  0  0
   -8.1694    4.4737  -15.8352 C   0  0  0  0  0  0  0  0  0  0  0  0
   -6.8043    4.8181  -15.8552 C   0  0  0  0  0  0  0  0  0  0  0  0
   -6.0586    4.9715  -14.6760 C   0  0  0  0  0  0  0  0  0  0  0  0
   -4.7759    7.7872  -12.6505 C   0  0  0  0  0  0  0  0  0  0  0  0
   -5.3412    8.6372  -13.3280 O   0  0  0  0  0  0  0  0  0  0  0  0
   -5.1392    7.4026  -11.3939 O   0  0  0  0  0  0  0  0  0  0  0  0
   -6.4272    7.8547  -10.9593 C   0  0  0  0  0  0  0  0  0  0  0  0
   -7.3635    6.7883  -11.3790 C   0  0  0  0  0  0  0  0  0  0  0  0
   -8.2087    6.7509  -12.4679 C   0  0  0  0  0  0  0  0  0  0  0  0
   -8.7371    5.5030  -12.6335 N   0  0  0  0  0  0  0  0  0  0  0  0
   -8.2475    4.7870  -11.6463 C   0  0  0  0  0  0  0  0  0  0  0  0
   -8.4184    3.0771  -11.5107 S   0  0  0  0  0  0  0  0  0  0  0  0
   -7.4768    5.5381  -10.7945 N   0  0  0  0  0  0  0  0  0  0  0  0
   -6.7620    5.0613   -9.6159 C   0  0  0  0  0  0  0  0  0  0  0  0
   -7.6277    4.9867   -8.3810 C   0  0  0  0  0  0  0  0  0  0  0  0
   -8.0173    3.7380   -7.8681 C   0  0  0  0  0  0  0  0  0  0  0  0
   -8.7665    3.6418   -6.6913 C   0  0  0  0  0  0  0  0  0  0  0  0
   -9.1403    4.7943   -6.0086 C   0  0  0  0  0  0  0  0  0  0  0  0
   -8.7640    6.0321   -6.5124 C   0  0  0  0  0  0  0  0  0  0  0  0
   -9.1158    7.1426   -5.8499 F   0  0  0  0  0  0  0  0  0  0  0  0
   -8.0209    6.1410   -7.6879 C   0  0  0  0  0  0  0  0  0  0  0  0
  2  1  1  6
  2  3  1  0
  3  4  1  0
  4  5  2  0
  5  6  1  0
  6  7  2  0
  7  8  1  0
  8  9  2  0
  9 10  1  0
 10 11  2  0
 11 12  1  0
 12 13  2  0
  2 14  1  0
 14 15  2  0
 14 16  1  0
 16 17  1  0
 17 18  1  0
 18 19  2  0
 19 20  1  0
 20 21  2  0
 21 22  1  0
 21 23  1  0
 23 24  1  0
 24 25  1  0
 25 26  2  0
 26 27  1  0
 27 28  2  0
 28 29  1  0
 29 30  1  0
 29 31  2  0
 13  4  1  0
 23 18  1  0
 31 25  1  0
 12  7  1  0
M  END
>  <energy_score>  (3214) 
-37.699845

>  <alias>  (3214) 
KVVMYNRLQLZVKW-UHFFFAOYSA-N-P94-P91-P94-601526

>  <HIPPO Pose ID>  (3214) 
76872

>  <smiles>  (3214) 
NC(Cc1cnc2ccccc2c1)C(=O)OCc1cnc(S)n1Cc1cccc(F)c1

>  <inchikey>  (3214) 
KVVMYNRLQLZVKW-UHFFFAOYSA-N

>  <distance_score>  (3214) 
0.808288

>  <ref_mols>  (3214) 
Z1688a,Z1716a

>  <ref_pdb>  (3214) 
Z3093a

>  <HIPPO Compound ID>  (3214) 
138906

>  <name>  (3214) 
KVVMYNRLQLZVKW-UHFFFAOYSA-N-P94-P91-P94-601526

>  <inspiration_score>  (3214) 
None

$$$$
GARGFVQINWBCSB-UHFFFAOYSA-N-P91-P91-P94-601526
     RDKit          3D

 31 34  0  0  0  0  0  0  0  0999 V2000
   -5.1013    8.6266  -14.4693 O   0  0  0  0  0  0  0  0  0  0  0  0
   -4.8832    8.0567  -13.4016 C   0  0  0  0  0  0  0  0  0  0  0  0
   -3.7602    7.0536  -13.2609 C   0  0  0  0  0  0  0  0  0  0  0  0
   -4.1320    5.5931  -13.5209 C   0  0  0  0  0  0  0  0  0  0  0  0
   -4.9031    5.3411  -14.7873 C   0  0  0  0  0  0  0  0  0  0  0  0
   -6.1640    4.8821  -14.7832 C   0  0  0  0  0  0  0  0  0  0  0  0
   -6.9407    4.7474  -16.0079 C   0  0  0  0  0  0  0  0  0  0  0  0
   -8.2932    4.3957  -15.9846 C   0  0  0  0  0  0  0  0  0  0  0  0
   -8.9997    4.2696  -17.1807 C   0  0  0  0  0  0  0  0  0  0  0  0
   -8.3532    4.4870  -18.3968 C   0  0  0  0  0  0  0  0  0  0  0  0
   -7.0043    4.8493  -18.4230 C   0  0  0  0  0  0  0  0  0  0  0  0
   -6.3067    4.9898  -17.2271 C   0  0  0  0  0  0  0  0  0  0  0  0
   -4.9612    5.3808  -17.2320 N   0  0  0  0  0  0  0  0  0  0  0  0
   -4.2185    5.5695  -16.0963 C   0  0  0  0  0  0  0  0  0  0  0  0
   -3.0333    5.8883  -16.1469 O   0  0  0  0  0  0  0  0  0  0  0  0
   -5.6076    8.3889  -12.3069 O   0  0  0  0  0  0  0  0  0  0  0  0
   -5.8071    7.5214  -11.1760 C   0  0  0  0  0  0  0  0  0  0  0  0
   -6.8982    6.5779  -11.5201 C   0  0  0  0  0  0  0  0  0  0  0  0
   -7.8877    6.6754  -12.4812 C   0  0  0  0  0  0  0  0  0  0  0  0
   -8.5966    5.5127  -12.5806 N   0  0  0  0  0  0  0  0  0  0  0  0
   -8.0948    4.7275  -11.6568 C   0  0  0  0  0  0  0  0  0  0  0  0
   -8.5155    3.0688  -11.4728 S   0  0  0  0  0  0  0  0  0  0  0  0
   -7.1176    5.3478  -10.9192 N   0  0  0  0  0  0  0  0  0  0  0  0
   -6.5182    4.8568   -9.6789 C   0  0  0  0  0  0  0  0  0  0  0  0
   -5.1229    4.3031   -9.8526 C   0  0  0  0  0  0  0  0  0  0  0  0
   -4.8916    3.1015  -10.5425 C   0  0  0  0  0  0  0  0  0  0  0  0
   -3.5980    2.5911  -10.6906 C   0  0  0  0  0  0  0  0  0  0  0  0
   -2.5153    3.2697  -10.1395 C   0  0  0  0  0  0  0  0  0  0  0  0
   -2.7383    4.4449   -9.4354 C   0  0  0  0  0  0  0  0  0  0  0  0
   -1.7022    5.0964   -8.8915 F   0  0  0  0  0  0  0  0  0  0  0  0
   -4.0226    4.9608   -9.2817 C   0  0  0  0  0  0  0  0  0  0  0  0
  1  2  2  0
  2  3  1  0
  3  4  1  0
  4  5  1  0
  5  6  2  0
  6  7  1  0
  7  8  2  0
  8  9  1  0
  9 10  2  0
 10 11  1  0
 11 12  2  0
 12 13  1  0
 13 14  1  0
 14 15  2  0
  2 16  1  0
 16 17  1  0
 17 18  1  0
 18 19  2  0
 19 20  1  0
 20 21  2  0
 21 22  1  0
 21 23  1  0
 23 24  1  0
 24 25  1  0
 25 26  2  0
 26 27  1  0
 27 28  2  0
 28 29  1  0
 29 30  1  0
 29 31  2  0
 14  5  1  0
 23 18  1  0
 31 25  1  0
 12  7  1  0
M  END
>  <energy_score>  (3215) 
-31.761537

>  <alias>  (3215) 
GARGFVQINWBCSB-UHFFFAOYSA-N-P91-P91-P94-601526

>  <HIPPO Pose ID>  (3215) 
76875

>  <smiles>  (3215) 
O=C(CCc1cc2ccccc2[nH]c1=O)OCc1cnc(S)n1Cc1cccc(F)c1

>  <inchikey>  (3215) 
GARGFVQINWBCSB-UHFFFAOYSA-N

>  <distance_score>  (3215) 
0.761684

>  <ref_mols>  (3215) 
Z1688a,Z1716a

>  <ref_pdb>  (3215) 
Z3093a

>  <HIPPO Compound ID>  (3215) 
138908

>  <name>  (3215) 
GARGFVQINWBCSB-UHFFFAOYSA-N-P91-P91-P94-601526

>  <inspiration_score>  (3215) 
None

$$$$
OYGSLWRIBKJOON-UHFFFAOYSA-N-P91-P91-P94-601526
     RDKit          3D

 32 35  0  0  0  0  0  0  0  0999 V2000
   -5.6727    3.9981   -9.8268 C   0  0  0  0  0  0  0  0  0  0  0  0
   -6.5937    5.2192   -9.6992 C   0  0  2  0  0  0  0  0  0  0  0  0
   -7.5159    5.2299   -8.4842 C   0  0  0  0  0  0  0  0  0  0  0  0
   -8.1628    4.0744   -8.0215 C   0  0  0  0  0  0  0  0  0  0  0  0
   -8.9689    4.1059   -6.8791 C   0  0  0  0  0  0  0  0  0  0  0  0
   -9.1515    5.2999   -6.1919 C   0  0  0  0  0  0  0  0  0  0  0  0
  -10.1445    5.3427   -4.7887 Cl  0  0  0  0  0  0  0  0  0  0  0  0
   -8.5383    6.4653   -6.6409 C   0  0  0  0  0  0  0  0  0  0  0  0
   -7.7288    6.4304   -7.7804 C   0  0  0  0  0  0  0  0  0  0  0  0
   -7.3087    5.6078  -10.9227 N   0  0  0  0  0  0  0  0  0  0  0  0
   -7.2094    6.8482  -11.5476 C   0  0  0  0  0  0  0  0  0  0  0  0
   -6.2544    7.9306  -11.2038 C   0  0  0  0  0  0  0  0  0  0  0  0
   -4.9739    7.4544  -11.6284 O   0  0  0  0  0  0  0  0  0  0  0  0
   -4.6484    7.7489  -12.9195 C   0  0  0  0  0  0  0  0  0  0  0  0
   -5.2357    8.5477  -13.6361 O   0  0  0  0  0  0  0  0  0  0  0  0
   -3.4783    6.9098  -13.3575 C   0  0  0  0  0  0  0  0  0  0  0  0
   -3.9004    5.4627  -13.6189 C   0  0  0  0  0  0  0  0  0  0  0  0
   -4.7729    5.2872  -14.8352 C   0  0  0  0  0  0  0  0  0  0  0  0
   -6.0591    4.9059  -14.7697 C   0  0  0  0  0  0  0  0  0  0  0  0
   -6.8836    4.7720  -15.9685 C   0  0  0  0  0  0  0  0  0  0  0  0
   -8.2365    4.4280  -15.9048 C   0  0  0  0  0  0  0  0  0  0  0  0
   -8.9809    4.2928  -17.0788 C   0  0  0  0  0  0  0  0  0  0  0  0
   -8.3751    4.4957  -18.3176 C   0  0  0  0  0  0  0  0  0  0  0  0
   -7.0260    4.8439  -18.3879 C   0  0  0  0  0  0  0  0  0  0  0  0
   -6.2893    4.9856  -17.2143 C   0  0  0  0  0  0  0  0  0  0  0  0
   -4.9362    5.3381  -17.2758 N   0  0  0  0  0  0  0  0  0  0  0  0
   -4.1391    5.4903  -16.1749 C   0  0  0  0  0  0  0  0  0  0  0  0
   -2.9483    5.7735  -16.2810 O   0  0  0  0  0  0  0  0  0  0  0  0
   -8.1012    6.7968  -12.5963 C   0  0  0  0  0  0  0  0  0  0  0  0
   -8.6762    5.5665  -12.6895 N   0  0  0  0  0  0  0  0  0  0  0  0
   -8.1549    4.8620  -11.7098 C   0  0  0  0  0  0  0  0  0  0  0  0
   -8.4178    3.1677  -11.5483 S   0  0  0  0  0  0  0  0  0  0  0  0
  2  1  1  6
  2  3  1  0
  3  4  2  0
  4  5  1  0
  5  6  2  0
  6  7  1  0
  6  8  1  0
  8  9  2  0
  2 10  1  0
 10 11  1  0
 11 12  1  0
 12 13  1  0
 13 14  1  0
 14 15  2  0
 14 16  1  0
 16 17  1  0
 17 18  1  0
 18 19  2  0
 19 20  1  0
 20 21  2  0
 21 22  1  0
 22 23  2  0
 23 24  1  0
 24 25  2  0
 25 26  1  0
 26 27  1  0
 27 28  2  0
 11 29  2  0
 29 30  1  0
 30 31  2  0
 31 32  1  0
  9  3  1  0
 31 10  1  0
 27 18  1  0
 25 20  1  0
M  END
>  <energy_score>  (3216) 
-74.981559

>  <alias>  (3216) 
OYGSLWRIBKJOON-UHFFFAOYSA-N-P91-P91-P94-601526

>  <HIPPO Pose ID>  (3216) 
76879

>  <smiles>  (3216) 
CC(c1ccc(Cl)cc1)n1c(COC(=O)CCc2cc3ccccc3[nH]c2=O)cnc1S

>  <inchikey>  (3216) 
OYGSLWRIBKJOON-UHFFFAOYSA-N

>  <distance_score>  (3216) 
0.830393

>  <ref_mols>  (3216) 
Z1688a,Z1716a

>  <ref_pdb>  (3216) 
Z3093a

>  <HIPPO Compound ID>  (3216) 
138910

>  <name>  (3216) 
OYGSLWRIBKJOON-UHFFFAOYSA-N-P91-P91-P94-601526

>  <inspiration_score>  (3216) 
None

$$$$
HLVSEPIWORWGBR-UHFFFAOYSA-N-P94-P91-P94-601526
     RDKit          3D

 32 35  0  0  0  0  0  0  0  0999 V2000
   -5.5057    8.5180  -13.4248 O   0  0  0  0  0  0  0  0  0  0  0  0
   -4.8501    7.7832  -12.6996 C   0  0  0  0  0  0  0  0  0  0  0  0
   -3.6235    7.0272  -13.1369 C   0  0  0  0  0  0  0  0  0  0  0  0
   -3.9481    5.5660  -13.4599 C   0  0  0  0  0  0  0  0  0  0  0  0
   -4.6963    5.3615  -14.7537 C   0  0  0  0  0  0  0  0  0  0  0  0
   -6.0322    4.9548  -14.7389 C   0  0  0  0  0  0  0  0  0  0  0  0
   -6.7609    4.8034  -15.9282 C   0  0  0  0  0  0  0  0  0  0  0  0
   -8.1151    4.4238  -15.9320 C   0  0  0  0  0  0  0  0  0  0  0  0
   -8.7832    4.2751  -17.1386 C   0  0  0  0  0  0  0  0  0  0  0  0
  -10.0700    3.9163  -17.1523 F   0  0  0  0  0  0  0  0  0  0  0  0
   -8.1316    4.4957  -18.3373 C   0  0  0  0  0  0  0  0  0  0  0  0
   -6.7887    4.8779  -18.3292 C   0  0  0  0  0  0  0  0  0  0  0  0
   -6.0847    5.0366  -17.1427 C   0  0  0  0  0  0  0  0  0  0  0  0
   -4.7908    5.3926  -17.1824 N   0  0  0  0  0  0  0  0  0  0  0  0
   -4.1355    5.5408  -16.0114 C   0  0  0  0  0  0  0  0  0  0  0  0
   -2.4747    5.9374  -16.2421 Cl  0  0  0  0  0  0  0  0  0  0  0  0
   -5.1358    7.4859  -11.4027 O   0  0  0  0  0  0  0  0  0  0  0  0
   -6.4497    7.8351  -10.9566 C   0  0  0  0  0  0  0  0  0  0  0  0
   -7.3284    6.7320  -11.4096 C   0  0  0  0  0  0  0  0  0  0  0  0
   -8.1370    6.6890  -12.5269 C   0  0  0  0  0  0  0  0  0  0  0  0
   -8.6710    5.4472  -12.6996 N   0  0  0  0  0  0  0  0  0  0  0  0
   -8.2160    4.7346  -11.6946 C   0  0  0  0  0  0  0  0  0  0  0  0
   -8.4925    3.0454  -11.5163 S   0  0  0  0  0  0  0  0  0  0  0  0
   -7.4319    5.4724  -10.8406 N   0  0  0  0  0  0  0  0  0  0  0  0
   -6.9135    5.0426   -9.5411 C   0  0  0  0  0  0  0  0  0  0  0  0
   -5.5354    4.4229   -9.6079 C   0  0  0  0  0  0  0  0  0  0  0  0
   -5.3726    3.0378   -9.7802 C   0  0  0  0  0  0  0  0  0  0  0  0
   -4.1001    2.4626   -9.8615 C   0  0  0  0  0  0  0  0  0  0  0  0
   -2.9673    3.2629   -9.7552 C   0  0  0  0  0  0  0  0  0  0  0  0
   -3.1195    4.6272   -9.5510 C   0  0  0  0  0  0  0  0  0  0  0  0
   -2.0326    5.4013   -9.4333 F   0  0  0  0  0  0  0  0  0  0  0  0
   -4.3826    5.2074   -9.4668 C   0  0  0  0  0  0  0  0  0  0  0  0
  1  2  2  0
  2  3  1  0
  3  4  1  0
  4  5  1  0
  5  6  2  0
  6  7  1  0
  7  8  2  0
  8  9  1  0
  9 10  1  0
  9 11  2  0
 11 12  1  0
 12 13  2  0
 13 14  1  0
 14 15  2  0
 15 16  1  0
  2 17  1  0
 17 18  1  0
 18 19  1  0
 19 20  2  0
 20 21  1  0
 21 22  2  0
 22 23  1  0
 22 24  1  0
 24 25  1  0
 25 26  1  0
 26 27  2  0
 27 28  1  0
 28 29  2  0
 29 30  1  0
 30 31  1  0
 30 32  2  0
 15  5  1  0
 24 19  1  0
 32 26  1  0
 13  7  1  0
M  END
>  <energy_score>  (3217) 
-40.377529

>  <alias>  (3217) 
HLVSEPIWORWGBR-UHFFFAOYSA-N-P94-P91-P94-601526

>  <HIPPO Pose ID>  (3217) 
76882

>  <smiles>  (3217) 
O=C(CCc1cc2cc(F)ccc2nc1Cl)OCc1cnc(S)n1Cc1cccc(F)c1

>  <inchikey>  (3217) 
HLVSEPIWORWGBR-UHFFFAOYSA-N

>  <distance_score>  (3217) 
0.713395

>  <ref_mols>  (3217) 
Z1688a,Z1716a

>  <ref_pdb>  (3217) 
Z3093a

>  <HIPPO Compound ID>  (3217) 
138911

>  <name>  (3217) 
HLVSEPIWORWGBR-UHFFFAOYSA-N-P94-P91-P94-601526

>  <inspiration_score>  (3217) 
None

$$$$
FSCRKONAWXWWCQ-UHFFFAOYSA-N-P84-P29-P84-601526
     RDKit          3D

 24 26  0  0  0  0  0  0  0  0999 V2000
   -8.8884    4.1521  -18.3554 C   0  0  0  0  0  0  0  0  0  0  0  0
   -7.5525    4.6885  -17.8860 C   0  0  0  0  0  0  0  0  0  0  0  0
   -6.5729    4.7265  -18.9513 O   0  0  0  0  0  0  0  0  0  0  0  0
   -5.2493    5.0378  -18.7267 C   0  0  0  0  0  0  0  0  0  0  0  0
   -4.4062    4.9715  -19.6234 O   0  0  0  0  0  0  0  0  0  0  0  0
   -4.8311    5.3706  -17.3549 C   0  0  0  0  0  0  0  0  0  0  0  0
   -5.7263    5.7976  -16.3916 N   0  0  0  0  0  0  0  0  0  0  0  0
   -5.2048    5.6668  -15.2110 C   0  0  0  0  0  0  0  0  0  0  0  0
   -5.9167    5.6690  -14.0677 N   0  0  0  0  0  0  0  0  0  0  0  0
   -7.4290    5.8725  -13.8287 C   0  0  0  0  0  0  0  0  0  0  0  0
   -8.2819    6.1461  -14.5746 O   0  0  0  0  0  0  0  0  0  0  0  0
   -7.7056    5.5555  -12.4053 C   0  0  0  0  0  0  0  0  0  0  0  0
   -7.8059    6.6110  -11.4081 C   0  0  0  0  0  0  0  0  0  0  0  0
   -8.0506    6.2663  -10.1315 C   0  0  0  0  0  0  0  0  0  0  0  0
   -8.1952    4.9177   -9.8088 N   0  0  0  0  0  0  0  0  0  0  0  0
   -8.4079    4.3274   -8.5912 C   0  0  0  0  0  0  0  0  0  0  0  0
   -8.4472    2.9707   -8.8398 C   0  0  0  0  0  0  0  0  0  0  0  0
   -8.6536    1.8499   -7.8986 C   0  0  0  0  0  0  0  0  0  0  0  0
   -8.2458    2.7213  -10.1763 N   0  0  0  0  0  0  0  0  0  0  0  0
   -8.1169    3.8943  -10.7443 C   0  0  0  0  0  0  0  0  0  0  0  0
   -7.8850    4.2546  -12.0983 C   0  0  0  0  0  0  0  0  0  0  0  0
   -3.5410    5.3690  -15.1639 S   0  0  0  0  0  0  0  0  0  0  0  0
   -3.5250    5.2901  -16.8831 C   0  0  0  0  0  0  0  0  0  0  0  0
   -2.2585    5.0604  -17.6257 C   0  0  0  0  0  0  0  0  0  0  0  0
  1  2  1  0
  2  3  1  0
  3  4  1  0
  4  5  2  0
  4  6  1  0
  6  7  1  0
  7  8  2  0
  8  9  1  0
  9 10  1  0
 10 11  2  0
 10 12  1  0
 12 13  1  0
 13 14  2  0
 14 15  1  0
 15 16  1  0
 16 17  2  0
 17 18  1  0
 17 19  1  0
 19 20  2  0
 20 21  1  0
  8 22  1  0
 22 23  1  0
 23 24  1  0
 23  6  2  0
 21 12  2  0
 20 15  1  0
M  END
>  <energy_score>  (3218) 
-80.608284

>  <alias>  (3218) 
FSCRKONAWXWWCQ-UHFFFAOYSA-N-P84-P29-P84-601526

>  <HIPPO Pose ID>  (3218) 
76890

>  <smiles>  (3218) 
CCOC(=O)c1nc(NC(=O)c2ccn3cc(C)nc3c2)sc1C

>  <inchikey>  (3218) 
FSCRKONAWXWWCQ-UHFFFAOYSA-N

>  <distance_score>  (3218) 
1.429367

>  <ref_mols>  (3218) 
Z1495a,Z0673a

>  <ref_pdb>  (3218) 
Z3093a

>  <HIPPO Compound ID>  (3218) 
141817

>  <name>  (3218) 
FSCRKONAWXWWCQ-UHFFFAOYSA-N-P84-P29-P84-601526

>  <inspiration_score>  (3218) 
None

$$$$
LLTOLTRJIQDLHP-UHFFFAOYSA-N-P84-P29-P84-601526
     RDKit          3D

 24 26  0  0  0  0  0  0  0  0999 V2000
   -8.8760    4.4036  -17.5104 C   0  0  0  0  0  0  0  0  0  0  0  0
   -7.6882    4.5301  -18.4493 C   0  0  0  0  0  0  0  0  0  0  0  0
   -7.3559    5.9117  -18.7013 O   0  0  0  0  0  0  0  0  0  0  0  0
   -6.0770    6.3339  -18.4784 C   0  0  0  0  0  0  0  0  0  0  0  0
   -5.4742    7.0667  -19.2559 O   0  0  0  0  0  0  0  0  0  0  0  0
   -5.5313    5.9266  -17.1925 C   0  0  0  0  0  0  0  0  0  0  0  0
   -6.3197    6.0874  -16.0655 N   0  0  0  0  0  0  0  0  0  0  0  0
   -5.7369    5.5428  -15.0398 C   0  0  0  0  0  0  0  0  0  0  0  0
   -6.2833    5.4547  -13.8164 N   0  0  0  0  0  0  0  0  0  0  0  0
   -7.6034    6.0294  -13.2662 C   0  0  0  0  0  0  0  0  0  0  0  0
   -8.3864    6.7331  -13.7643 O   0  0  0  0  0  0  0  0  0  0  0  0
   -7.8125    5.4348  -11.9311 C   0  0  0  0  0  0  0  0  0  0  0  0
   -7.5235    6.1461  -10.6994 C   0  0  0  0  0  0  0  0  0  0  0  0
   -7.7228    5.5064   -9.5308 C   0  0  0  0  0  0  0  0  0  0  0  0
   -8.2244    4.1991   -9.5394 N   0  0  0  0  0  0  0  0  0  0  0  0
   -8.5079    3.3261   -8.5107 C   0  0  0  0  0  0  0  0  0  0  0  0
   -8.2620    3.5432   -7.0781 C   0  0  0  0  0  0  0  0  0  0  0  0
   -9.0623    2.2305   -9.1233 C   0  0  0  0  0  0  0  0  0  0  0  0
   -9.1041    2.3807  -10.4776 N   0  0  0  0  0  0  0  0  0  0  0  0
   -8.5543    3.5378  -10.7149 C   0  0  0  0  0  0  0  0  0  0  0  0
   -8.3071    4.1852  -11.9452 C   0  0  0  0  0  0  0  0  0  0  0  0
   -4.2139    4.8480  -15.2985 S   0  0  0  0  0  0  0  0  0  0  0  0
   -4.3019    5.3584  -16.9316 C   0  0  0  0  0  0  0  0  0  0  0  0
   -2.7826    5.0076  -18.3027 I   0  0  0  0  0  0  0  0  0  0  0  0
  1  2  1  0
  2  3  1  0
  3  4  1  0
  4  5  2  0
  4  6  1  0
  6  7  1  0
  7  8  2  0
  8  9  1  0
  9 10  1  0
 10 11  2  0
 10 12  1  0
 12 13  1  0
 13 14  2  0
 14 15  1  0
 15 16  1  0
 16 17  1  0
 16 18  2  0
 18 19  1  0
 19 20  2  0
 20 21  1  0
  8 22  1  0
 22 23  1  0
 23 24  1  0
 23  6  2  0
 21 12  2  0
 20 15  1  0
M  END
>  <energy_score>  (3219) 
-61.247501

>  <alias>  (3219) 
LLTOLTRJIQDLHP-UHFFFAOYSA-N-P84-P29-P84-601526

>  <HIPPO Pose ID>  (3219) 
76892

>  <smiles>  (3219) 
CCOC(=O)c1nc(NC(=O)c2ccn3c(C)cnc3c2)sc1I

>  <inchikey>  (3219) 
LLTOLTRJIQDLHP-UHFFFAOYSA-N

>  <distance_score>  (3219) 
1.530946

>  <ref_mols>  (3219) 
Z1495a,Z0673a

>  <ref_pdb>  (3219) 
Z3093a

>  <HIPPO Compound ID>  (3219) 
141818

>  <name>  (3219) 
LLTOLTRJIQDLHP-UHFFFAOYSA-N-P84-P29-P84-601526

>  <inspiration_score>  (3219) 
None

$$$$
RXAUJQLQQGEIFK-UHFFFAOYSA-N-P29-P29-P84-601526
     RDKit          3D

 24 26  0  0  0  0  0  0  0  0999 V2000
   -9.3769    4.0557  -18.2995 C   0  0  0  0  0  0  0  0  0  0  0  0
   -8.0978    4.6216  -17.7360 C   0  0  0  0  0  0  0  0  0  0  0  0
   -7.3715    5.3034  -18.7812 O   0  0  0  0  0  0  0  0  0  0  0  0
   -6.0626    5.6861  -18.6274 C   0  0  0  0  0  0  0  0  0  0  0  0
   -5.3947    6.0961  -19.5701 O   0  0  0  0  0  0  0  0  0  0  0  0
   -5.5128    5.5957  -17.2809 C   0  0  0  0  0  0  0  0  0  0  0  0
   -6.2883    5.9273  -16.1831 N   0  0  0  0  0  0  0  0  0  0  0  0
   -5.7029    5.5279  -15.0948 C   0  0  0  0  0  0  0  0  0  0  0  0
   -6.3097    5.4829  -13.8958 N   0  0  0  0  0  0  0  0  0  0  0  0
   -7.7676    5.7963  -13.4986 C   0  0  0  0  0  0  0  0  0  0  0  0
   -8.6501    6.2158  -14.1333 O   0  0  0  0  0  0  0  0  0  0  0  0
   -7.9241    5.4399  -12.0733 C   0  0  0  0  0  0  0  0  0  0  0  0
   -7.7811    6.4511  -11.0397 C   0  0  0  0  0  0  0  0  0  0  0  0
   -7.9181    6.0767   -9.7567 C   0  0  0  0  0  0  0  0  0  0  0  0
   -8.1955    4.7396   -9.4622 N   0  0  0  0  0  0  0  0  0  0  0  0
   -8.3525    4.1024   -8.2576 C   0  0  0  0  0  0  0  0  0  0  0  0
   -8.2559    4.8457   -6.5140 Br  0  0  0  0  0  0  0  0  0  0  0  0
   -8.5962    2.7836   -8.5567 C   0  0  0  0  0  0  0  0  0  0  0  0
   -8.6176    2.5925   -9.9147 N   0  0  0  0  0  0  0  0  0  0  0  0
   -8.3588    3.7632  -10.4415 C   0  0  0  0  0  0  0  0  0  0  0  0
   -8.2173    4.1550  -11.7980 C   0  0  0  0  0  0  0  0  0  0  0  0
   -4.1144    4.9595  -15.2470 S   0  0  0  0  0  0  0  0  0  0  0  0
   -4.2458    5.1789  -16.9392 C   0  0  0  0  0  0  0  0  0  0  0  0
   -2.9383    4.7674  -17.9620 Cl  0  0  0  0  0  0  0  0  0  0  0  0
  1  2  1  0
  2  3  1  0
  3  4  1  0
  4  5  2  0
  4  6  1  0
  6  7  1  0
  7  8  2  0
  8  9  1  0
  9 10  1  0
 10 11  2  0
 10 12  1  0
 12 13  1  0
 13 14  2  0
 14 15  1  0
 15 16  1  0
 16 17  1  0
 16 18  2  0
 18 19  1  0
 19 20  2  0
 20 21  1  0
  8 22  1  0
 22 23  1  0
 23 24  1  0
 23  6  2  0
 21 12  2  0
 20 15  1  0
M  END
>  <energy_score>  (3220) 
-34.209213

>  <alias>  (3220) 
RXAUJQLQQGEIFK-UHFFFAOYSA-N-P29-P29-P84-601526

>  <HIPPO Pose ID>  (3220) 
76897

>  <smiles>  (3220) 
CCOC(=O)c1nc(NC(=O)c2ccn3c(Br)cnc3c2)sc1Cl

>  <inchikey>  (3220) 
RXAUJQLQQGEIFK-UHFFFAOYSA-N

>  <distance_score>  (3220) 
0.940241

>  <ref_mols>  (3220) 
Z1495a,Z0673a

>  <ref_pdb>  (3220) 
Z3093a

>  <HIPPO Compound ID>  (3220) 
141821

>  <name>  (3220) 
RXAUJQLQQGEIFK-UHFFFAOYSA-N-P29-P29-P84-601526

>  <inspiration_score>  (3220) 
None

$$$$
JCUQTWHDKVCYIY-UHFFFAOYSA-N-P29-P29-P84-601526
     RDKit          3D

 24 26  0  0  0  0  0  0  0  0999 V2000
   -9.5807    3.9503  -18.1297 C   0  0  0  0  0  0  0  0  0  0  0  0
   -8.1881    4.4207  -17.7937 C   0  0  0  0  0  0  0  0  0  0  0  0
   -7.3713    4.4445  -18.9795 O   0  0  0  0  0  0  0  0  0  0  0  0
   -6.0375    4.7833  -18.9513 C   0  0  0  0  0  0  0  0  0  0  0  0
   -5.3612    4.7001  -19.9722 O   0  0  0  0  0  0  0  0  0  0  0  0
   -5.4245    5.1607  -17.6622 C   0  0  0  0  0  0  0  0  0  0  0  0
   -6.1888    5.5942  -16.5947 N   0  0  0  0  0  0  0  0  0  0  0  0
   -5.5139    5.5205  -15.4903 C   0  0  0  0  0  0  0  0  0  0  0  0
   -6.0894    5.5383  -14.2716 N   0  0  0  0  0  0  0  0  0  0  0  0
   -7.5567    5.7909  -13.8591 C   0  0  0  0  0  0  0  0  0  0  0  0
   -8.4802    6.0986  -14.5011 O   0  0  0  0  0  0  0  0  0  0  0  0
   -7.6938    5.4856  -12.4138 C   0  0  0  0  0  0  0  0  0  0  0  0
   -7.5814    6.5247  -11.4028 C   0  0  0  0  0  0  0  0  0  0  0  0
   -7.7676    6.1894  -10.1134 C   0  0  0  0  0  0  0  0  0  0  0  0
   -8.0612    4.8628   -9.7859 N   0  0  0  0  0  0  0  0  0  0  0  0
   -8.2515    4.2595   -8.5675 C   0  0  0  0  0  0  0  0  0  0  0  0
   -8.1825    5.0483   -6.8427 Br  0  0  0  0  0  0  0  0  0  0  0  0
   -8.4943    2.9337   -8.8362 C   0  0  0  0  0  0  0  0  0  0  0  0
   -8.4736    2.7035  -10.1891 N   0  0  0  0  0  0  0  0  0  0  0  0
   -8.1974    3.8592  -10.7413 C   0  0  0  0  0  0  0  0  0  0  0  0
   -8.0139    4.2133  -12.1046 C   0  0  0  0  0  0  0  0  0  0  0  0
   -3.8487    5.2777  -15.6576 S   0  0  0  0  0  0  0  0  0  0  0  0
   -4.0638    5.1229  -17.3649 C   0  0  0  0  0  0  0  0  0  0  0  0
   -2.9003    4.8813  -18.2597 C   0  0  0  0  0  0  0  0  0  0  0  0
  1  2  1  0
  2  3  1  0
  3  4  1  0
  4  5  2  0
  4  6  1  0
  6  7  1  0
  7  8  2  0
  8  9  1  0
  9 10  1  0
 10 11  2  0
 10 12  1  0
 12 13  1  0
 13 14  2  0
 14 15  1  0
 15 16  1  0
 16 17  1  0
 16 18  2  0
 18 19  1  0
 19 20  2  0
 20 21  1  0
  8 22  1  0
 22 23  1  0
 23 24  1  0
 23  6  2  0
 21 12  2  0
 20 15  1  0
M  END
>  <energy_score>  (3221) 
-30.842453

>  <alias>  (3221) 
JCUQTWHDKVCYIY-UHFFFAOYSA-N-P29-P29-P84-601526

>  <HIPPO Pose ID>  (3221) 
76899

>  <smiles>  (3221) 
CCOC(=O)c1nc(NC(=O)c2ccn3c(Br)cnc3c2)sc1C

>  <inchikey>  (3221) 
JCUQTWHDKVCYIY-UHFFFAOYSA-N

>  <distance_score>  (3221) 
1.356243

>  <ref_mols>  (3221) 
Z1495a,Z0673a

>  <ref_pdb>  (3221) 
Z3093a

>  <HIPPO Compound ID>  (3221) 
141822

>  <name>  (3221) 
JCUQTWHDKVCYIY-UHFFFAOYSA-N-P29-P29-P84-601526

>  <inspiration_score>  (3221) 
None

$$$$
HQDXLFQUKACCNC-UHFFFAOYSA-N-P29-P29-P84-601526
     RDKit          3D

 24 26  0  0  0  0  0  0  0  0999 V2000
   -9.2952    4.0701  -18.4144 C   0  0  0  0  0  0  0  0  0  0  0  0
   -8.0600    4.6685  -17.7889 C   0  0  0  0  0  0  0  0  0  0  0  0
   -7.4105    5.5413  -18.7401 O   0  0  0  0  0  0  0  0  0  0  0  0
   -6.1297    5.9944  -18.5472 C   0  0  0  0  0  0  0  0  0  0  0  0
   -5.5135    6.5934  -19.4223 O   0  0  0  0  0  0  0  0  0  0  0  0
   -5.5633    5.7649  -17.2240 C   0  0  0  0  0  0  0  0  0  0  0  0
   -6.3449    5.9941  -16.1061 N   0  0  0  0  0  0  0  0  0  0  0  0
   -5.7653    5.5034  -15.0540 C   0  0  0  0  0  0  0  0  0  0  0  0
   -6.3810    5.3500  -13.8705 N   0  0  0  0  0  0  0  0  0  0  0  0
   -7.8280    5.6792  -13.4432 C   0  0  0  0  0  0  0  0  0  0  0  0
   -8.7327    6.0627  -14.0705 O   0  0  0  0  0  0  0  0  0  0  0  0
   -7.9561    5.3309  -12.0194 C   0  0  0  0  0  0  0  0  0  0  0  0
   -8.3228    4.0681  -11.7306 C   0  0  0  0  0  0  0  0  0  0  0  0
   -8.4474    3.6947  -10.3672 C   0  0  0  0  0  0  0  0  0  0  0  0
   -8.7784    2.5549   -9.8166 N   0  0  0  0  0  0  0  0  0  0  0  0
   -8.6753    2.7518   -8.4656 C   0  0  0  0  0  0  0  0  0  0  0  0
   -8.3203    4.0519   -8.1849 C   0  0  0  0  0  0  0  0  0  0  0  0
   -8.1788    4.6605   -9.4026 N   0  0  0  0  0  0  0  0  0  0  0  0
   -7.8172    5.9697   -9.7045 C   0  0  0  0  0  0  0  0  0  0  0  0
   -7.7048    6.3176  -10.9930 C   0  0  0  0  0  0  0  0  0  0  0  0
   -7.3316    7.5631  -11.3427 F   0  0  0  0  0  0  0  0  0  0  0  0
   -4.1761    4.9521  -15.2448 S   0  0  0  0  0  0  0  0  0  0  0  0
   -4.3024    5.2974  -16.9198 C   0  0  0  0  0  0  0  0  0  0  0  0
   -2.9175    4.9292  -18.1713 Br  0  0  0  0  0  0  0  0  0  0  0  0
  1  2  1  0
  2  3  1  0
  3  4  1  0
  4  5  2  0
  4  6  1  0
  6  7  1  0
  7  8  2  0
  8  9  1  0
  9 10  1  0
 10 11  2  0
 10 12  1  0
 12 13  2  0
 13 14  1  0
 14 15  2  0
 15 16  1  0
 16 17  2  0
 17 18  1  0
 18 19  1  0
 19 20  2  0
 20 21  1  0
  8 22  1  0
 22 23  1  0
 23 24  1  0
 23  6  2  0
 20 12  1  0
 18 14  1  0
M  END
>  <energy_score>  (3222) 
-84.604225

>  <alias>  (3222) 
HQDXLFQUKACCNC-UHFFFAOYSA-N-P29-P29-P84-601526

>  <HIPPO Pose ID>  (3222) 
76909

>  <smiles>  (3222) 
CCOC(=O)c1nc(NC(=O)c2cc3nccn3cc2F)sc1Br

>  <inchikey>  (3222) 
HQDXLFQUKACCNC-UHFFFAOYSA-N

>  <distance_score>  (3222) 
1.003262

>  <ref_mols>  (3222) 
Z1495a,Z0673a

>  <ref_pdb>  (3222) 
Z3093a

>  <HIPPO Compound ID>  (3222) 
141827

>  <name>  (3222) 
HQDXLFQUKACCNC-UHFFFAOYSA-N-P29-P29-P84-601526

>  <inspiration_score>  (3222) 
None

$$$$
QXWBNHONDIFDSB-UHFFFAOYSA-N-P29-P29-P84-601526
     RDKit          3D

 24 26  0  0  0  0  0  0  0  0999 V2000
   -9.3336    4.1195  -18.4766 C   0  0  0  0  0  0  0  0  0  0  0  0
   -7.9998    4.4851  -17.8741 C   0  0  0  0  0  0  0  0  0  0  0  0
   -6.9708    4.5320  -18.8844 O   0  0  0  0  0  0  0  0  0  0  0  0
   -5.6694    4.8852  -18.5999 C   0  0  0  0  0  0  0  0  0  0  0  0
   -4.8351    4.9673  -19.4977 O   0  0  0  0  0  0  0  0  0  0  0  0
   -5.2760    5.1245  -17.1990 C   0  0  0  0  0  0  0  0  0  0  0  0
   -3.9817    5.3847  -16.7684 C   0  0  0  0  0  0  0  0  0  0  0  0
   -3.9365    5.5320  -15.0447 S   0  0  0  0  0  0  0  0  0  0  0  0
   -5.6007    5.1304  -15.0017 C   0  0  0  0  0  0  0  0  0  0  0  0
   -6.3000    5.1011  -13.7735 N   0  0  0  0  0  0  0  0  0  0  0  0
   -6.0945    3.5493  -14.0048 C   0  0  0  0  0  0  0  0  0  0  0  0
   -7.7456    5.4221  -13.4539 C   0  0  0  0  0  0  0  0  0  0  0  0
   -8.6413    5.6938  -14.1673 O   0  0  0  0  0  0  0  0  0  0  0  0
   -7.9323    5.2383  -12.0040 C   0  0  0  0  0  0  0  0  0  0  0  0
   -8.4399    4.0479  -11.6265 C   0  0  0  0  0  0  0  0  0  0  0  0
   -8.5218    3.7452  -10.2450 C   0  0  0  0  0  0  0  0  0  0  0  0
   -8.9038    2.6565   -9.6243 N   0  0  0  0  0  0  0  0  0  0  0  0
   -8.7060    2.9061   -8.2933 C   0  0  0  0  0  0  0  0  0  0  0  0
   -8.2402    4.1872   -8.0962 C   0  0  0  0  0  0  0  0  0  0  0  0
   -8.1098    4.7244   -9.3486 N   0  0  0  0  0  0  0  0  0  0  0  0
   -7.6393    5.9768   -9.7365 C   0  0  0  0  0  0  0  0  0  0  0  0
   -7.5405    6.2454  -11.0461 C   0  0  0  0  0  0  0  0  0  0  0  0
   -7.0712    7.4324  -11.4761 F   0  0  0  0  0  0  0  0  0  0  0  0
   -6.1866    5.1069  -16.1648 N   0  0  0  0  0  0  0  0  0  0  0  0
  1  2  1  0
  2  3  1  0
  3  4  1  0
  4  5  2  0
  4  6  1  0
  6  7  2  0
  7  8  1  0
  8  9  1  0
  9 10  1  0
 10 11  1  0
 10 12  1  0
 12 13  2  0
 12 14  1  0
 14 15  2  0
 15 16  1  0
 16 17  2  0
 17 18  1  0
 18 19  2  0
 19 20  1  0
 20 21  1  0
 21 22  2  0
 22 23  1  0
  9 24  2  0
 24  6  1  0
 22 14  1  0
 20 16  1  0
M  END
>  <energy_score>  (3223) 
-11.083572

>  <alias>  (3223) 
QXWBNHONDIFDSB-UHFFFAOYSA-N-P29-P29-P84-601526

>  <HIPPO Pose ID>  (3223) 
76911

>  <smiles>  (3223) 
CCOC(=O)c1csc(N(C)C(=O)c2cc3nccn3cc2F)n1

>  <inchikey>  (3223) 
QXWBNHONDIFDSB-UHFFFAOYSA-N

>  <distance_score>  (3223) 
0.990885

>  <ref_mols>  (3223) 
Z1495a,Z0673a

>  <ref_pdb>  (3223) 
Z3093a

>  <HIPPO Compound ID>  (3223) 
141828

>  <name>  (3223) 
QXWBNHONDIFDSB-UHFFFAOYSA-N-P29-P29-P84-601526

>  <inspiration_score>  (3223) 
None

$$$$
XDRQCBRNULXMSS-UHFFFAOYSA-N-P84-P29-P84-601526
     RDKit          3D

 24 26  0  0  0  0  0  0  0  0999 V2000
   -8.9159    4.1506  -18.3405 C   0  0  0  0  0  0  0  0  0  0  0  0
   -7.5794    4.6770  -17.8623 C   0  0  0  0  0  0  0  0  0  0  0  0
   -6.5982    4.7176  -18.9253 O   0  0  0  0  0  0  0  0  0  0  0  0
   -5.2747    5.0261  -18.6967 C   0  0  0  0  0  0  0  0  0  0  0  0
   -4.4327    4.9656  -19.5947 O   0  0  0  0  0  0  0  0  0  0  0  0
   -4.8559    5.3459  -17.3216 C   0  0  0  0  0  0  0  0  0  0  0  0
   -5.7516    5.7550  -16.3503 N   0  0  0  0  0  0  0  0  0  0  0  0
   -5.2253    5.6155  -15.1722 C   0  0  0  0  0  0  0  0  0  0  0  0
   -5.9315    5.6071  -14.0249 N   0  0  0  0  0  0  0  0  0  0  0  0
   -7.4420    5.8125  -13.7758 C   0  0  0  0  0  0  0  0  0  0  0  0
   -8.2980    6.0969  -14.5143 O   0  0  0  0  0  0  0  0  0  0  0  0
   -7.7153    5.4822  -12.3550 C   0  0  0  0  0  0  0  0  0  0  0  0
   -7.7211    6.5118  -11.3309 C   0  0  0  0  0  0  0  0  0  0  0  0
   -7.9574    6.1645  -10.0490 C   0  0  0  0  0  0  0  0  0  0  0  0
   -7.9692    7.4513   -8.6940 Br  0  0  0  0  0  0  0  0  0  0  0  0
   -8.1921    4.8101   -9.7519 N   0  0  0  0  0  0  0  0  0  0  0  0
   -8.4075    4.1670   -8.5536 C   0  0  0  0  0  0  0  0  0  0  0  0
   -8.5646    2.8362   -8.8642 C   0  0  0  0  0  0  0  0  0  0  0  0
   -8.4614    2.6389  -10.2123 N   0  0  0  0  0  0  0  0  0  0  0  0
   -8.2235    3.8173  -10.7294 C   0  0  0  0  0  0  0  0  0  0  0  0
   -7.9837    4.1932  -12.0764 C   0  0  0  0  0  0  0  0  0  0  0  0
   -3.5598    5.3259  -15.1343 S   0  0  0  0  0  0  0  0  0  0  0  0
   -3.5481    5.2683  -16.8543 C   0  0  0  0  0  0  0  0  0  0  0  0
   -2.2816    5.0563  -17.6021 C   0  0  0  0  0  0  0  0  0  0  0  0
  1  2  1  0
  2  3  1  0
  3  4  1  0
  4  5  2  0
  4  6  1  0
  6  7  1  0
  7  8  2  0
  8  9  1  0
  9 10  1  0
 10 11  2  0
 10 12  1  0
 12 13  1  0
 13 14  2  0
 14 15  1  0
 14 16  1  0
 16 17  1  0
 17 18  2  0
 18 19  1  0
 19 20  2  0
 20 21  1  0
  8 22  1  0
 22 23  1  0
 23 24  1  0
 23  6  2  0
 21 12  2  0
 20 16  1  0
M  END
>  <energy_score>  (3224) 
-72.906551

>  <alias>  (3224) 
XDRQCBRNULXMSS-UHFFFAOYSA-N-P84-P29-P84-601526

>  <HIPPO Pose ID>  (3224) 
76916

>  <smiles>  (3224) 
CCOC(=O)c1nc(NC(=O)c2cc(Br)n3ccnc3c2)sc1C

>  <inchikey>  (3224) 
XDRQCBRNULXMSS-UHFFFAOYSA-N

>  <distance_score>  (3224) 
1.418632

>  <ref_mols>  (3224) 
Z1495a,Z0673a

>  <ref_pdb>  (3224) 
Z3093a

>  <HIPPO Compound ID>  (3224) 
141830

>  <name>  (3224) 
XDRQCBRNULXMSS-UHFFFAOYSA-N-P84-P29-P84-601526

>  <inspiration_score>  (3224) 
None

$$$$
XDLSOORXGLUXRB-UHFFFAOYSA-N-P84-P29-P84-601526
     RDKit          3D

 24 26  0  0  0  0  0  0  0  0999 V2000
   -9.1574    4.1682  -18.2341 C   0  0  0  0  0  0  0  0  0  0  0  0
   -7.8936    4.7501  -17.6516 C   0  0  0  0  0  0  0  0  0  0  0  0
   -7.2333    5.5924  -18.6245 O   0  0  0  0  0  0  0  0  0  0  0  0
   -5.9124    5.9377  -18.4792 C   0  0  0  0  0  0  0  0  0  0  0  0
   -5.2544    6.4237  -19.3938 O   0  0  0  0  0  0  0  0  0  0  0  0
   -5.3475    5.7292  -17.1511 C   0  0  0  0  0  0  0  0  0  0  0  0
   -6.1031    6.0450  -16.0376 N   0  0  0  0  0  0  0  0  0  0  0  0
   -5.5671    5.5179  -14.9787 C   0  0  0  0  0  0  0  0  0  0  0  0
   -6.2066    5.4234  -13.8015 N   0  0  0  0  0  0  0  0  0  0  0  0
   -7.6096    5.9081  -13.3824 C   0  0  0  0  0  0  0  0  0  0  0  0
   -8.3996    6.5324  -13.9687 O   0  0  0  0  0  0  0  0  0  0  0  0
   -7.8435    5.4748  -11.9884 C   0  0  0  0  0  0  0  0  0  0  0  0
   -7.8385    6.4537  -10.9163 C   0  0  0  0  0  0  0  0  0  0  0  0
   -8.0386    6.0416   -9.6497 C   0  0  0  0  0  0  0  0  0  0  0  0
   -8.0212    7.2571   -8.2304 Br  0  0  0  0  0  0  0  0  0  0  0  0
   -8.2611    4.6734   -9.4194 N   0  0  0  0  0  0  0  0  0  0  0  0
   -8.4550    3.9715   -8.2523 C   0  0  0  0  0  0  0  0  0  0  0  0
   -8.6204    2.6586   -8.6264 C   0  0  0  0  0  0  0  0  0  0  0  0
   -8.5462    2.5294   -9.9840 N   0  0  0  0  0  0  0  0  0  0  0  0
   -8.3107    3.7306  -10.4446 C   0  0  0  0  0  0  0  0  0  0  0  0
   -8.0960    4.1714  -11.7744 C   0  0  0  0  0  0  0  0  0  0  0  0
   -4.0233    4.8484  -15.1602 S   0  0  0  0  0  0  0  0  0  0  0  0
   -4.1165    5.1950  -16.8377 C   0  0  0  0  0  0  0  0  0  0  0  0
   -2.7501    4.7445  -18.0826 Br  0  0  0  0  0  0  0  0  0  0  0  0
  1  2  1  0
  2  3  1  0
  3  4  1  0
  4  5  2  0
  4  6  1  0
  6  7  1  0
  7  8  2  0
  8  9  1  0
  9 10  1  0
 10 11  2  0
 10 12  1  0
 12 13  1  0
 13 14  2  0
 14 15  1  0
 14 16  1  0
 16 17  1  0
 17 18  2  0
 18 19  1  0
 19 20  2  0
 20 21  1  0
  8 22  1  0
 22 23  1  0
 23 24  1  0
 23  6  2  0
 21 12  2  0
 20 16  1  0
M  END
>  <energy_score>  (3225) 
-33.588739

>  <alias>  (3225) 
XDLSOORXGLUXRB-UHFFFAOYSA-N-P84-P29-P84-601526

>  <HIPPO Pose ID>  (3225) 
76918

>  <smiles>  (3225) 
CCOC(=O)c1nc(NC(=O)c2cc(Br)n3ccnc3c2)sc1Br

>  <inchikey>  (3225) 
XDLSOORXGLUXRB-UHFFFAOYSA-N

>  <distance_score>  (3225) 
1.09409

>  <ref_mols>  (3225) 
Z1495a,Z0673a

>  <ref_pdb>  (3225) 
Z3093a

>  <HIPPO Compound ID>  (3225) 
141831

>  <name>  (3225) 
XDLSOORXGLUXRB-UHFFFAOYSA-N-P84-P29-P84-601526

>  <inspiration_score>  (3225) 
None

$$$$
SPZUELNJYLVVHO-UHFFFAOYSA-N-P29-P29-P84-601526
     RDKit          3D

 24 26  0  0  0  0  0  0  0  0999 V2000
   -9.7106    3.9263  -18.1145 C   0  0  0  0  0  0  0  0  0  0  0  0
   -8.3454    4.3901  -17.6845 C   0  0  0  0  0  0  0  0  0  0  0  0
   -7.4942    4.5169  -18.8395 O   0  0  0  0  0  0  0  0  0  0  0  0
   -6.1628    4.8488  -18.7515 C   0  0  0  0  0  0  0  0  0  0  0  0
   -5.4615    4.8405  -19.7577 O   0  0  0  0  0  0  0  0  0  0  0  0
   -5.6052    5.1486  -17.4265 C   0  0  0  0  0  0  0  0  0  0  0  0
   -6.4067    5.5522  -16.3695 N   0  0  0  0  0  0  0  0  0  0  0  0
   -5.7588    5.4578  -15.2492 C   0  0  0  0  0  0  0  0  0  0  0  0
   -6.3423    5.4916  -14.0381 N   0  0  0  0  0  0  0  0  0  0  0  0
   -7.8157    5.7329  -13.6412 C   0  0  0  0  0  0  0  0  0  0  0  0
   -8.7382    6.0159  -14.2955 O   0  0  0  0  0  0  0  0  0  0  0  0
   -7.9366    5.4557  -12.1937 C   0  0  0  0  0  0  0  0  0  0  0  0
   -8.2324    4.1743  -11.8957 C   0  0  0  0  0  0  0  0  0  0  0  0
   -8.3532    3.7976  -10.5353 C   0  0  0  0  0  0  0  0  0  0  0  0
   -8.6077    2.6386   -9.9848 N   0  0  0  0  0  0  0  0  0  0  0  0
   -8.5517    2.8494   -8.6327 C   0  0  0  0  0  0  0  0  0  0  0  0
   -8.2897    4.1722   -8.3553 C   0  0  0  0  0  0  0  0  0  0  0  0
   -8.1650    4.7818   -9.5755 N   0  0  0  0  0  0  0  0  0  0  0  0
   -7.8835    6.1105   -9.8809 C   0  0  0  0  0  0  0  0  0  0  0  0
   -7.7658    6.4799  -11.1700 C   0  0  0  0  0  0  0  0  0  0  0  0
   -7.3777    8.2387  -11.6477 Br  0  0  0  0  0  0  0  0  0  0  0  0
   -4.0970    5.1678  -15.3610 S   0  0  0  0  0  0  0  0  0  0  0  0
   -4.2764    5.0620  -17.0612 C   0  0  0  0  0  0  0  0  0  0  0  0
   -2.8962    4.7695  -18.0295 Cl  0  0  0  0  0  0  0  0  0  0  0  0
  1  2  1  0
  2  3  1  0
  3  4  1  0
  4  5  2  0
  4  6  1  0
  6  7  1  0
  7  8  2  0
  8  9  1  0
  9 10  1  0
 10 11  2  0
 10 12  1  0
 12 13  2  0
 13 14  1  0
 14 15  2  0
 15 16  1  0
 16 17  2  0
 17 18  1  0
 18 19  1  0
 19 20  2  0
 20 21  1  0
  8 22  1  0
 22 23  1  0
 23 24  1  0
 23  6  2  0
 20 12  1  0
 18 14  1  0
M  END
>  <energy_score>  (3226) 
-26.645551

>  <alias>  (3226) 
SPZUELNJYLVVHO-UHFFFAOYSA-N-P29-P29-P84-601526

>  <HIPPO Pose ID>  (3226) 
76921

>  <smiles>  (3226) 
CCOC(=O)c1nc(NC(=O)c2cc3nccn3cc2Br)sc1Cl

>  <inchikey>  (3226) 
SPZUELNJYLVVHO-UHFFFAOYSA-N

>  <distance_score>  (3226) 
0.887529

>  <ref_mols>  (3226) 
Z1495a,Z0673a

>  <ref_pdb>  (3226) 
Z3093a

>  <HIPPO Compound ID>  (3226) 
141833

>  <name>  (3226) 
SPZUELNJYLVVHO-UHFFFAOYSA-N-P29-P29-P84-601526

>  <inspiration_score>  (3226) 
None

$$$$
ISKJMDZZKPGIGC-UHFFFAOYSA-N-P29-P29-P84-601526
     RDKit          3D

 24 26  0  0  0  0  0  0  0  0999 V2000
   -9.3703    4.1230  -18.4628 C   0  0  0  0  0  0  0  0  0  0  0  0
   -8.0316    4.4705  -17.8627 C   0  0  0  0  0  0  0  0  0  0  0  0
   -7.0008    4.4809  -18.8725 O   0  0  0  0  0  0  0  0  0  0  0  0
   -5.7005    4.8436  -18.5970 C   0  0  0  0  0  0  0  0  0  0  0  0
   -4.8689    4.9153  -19.4980 O   0  0  0  0  0  0  0  0  0  0  0  0
   -5.3031    5.0974  -17.2000 C   0  0  0  0  0  0  0  0  0  0  0  0
   -4.0191    5.4185  -16.7809 C   0  0  0  0  0  0  0  0  0  0  0  0
   -3.9692    5.5848  -15.0587 S   0  0  0  0  0  0  0  0  0  0  0  0
   -5.6127    5.1117  -14.9984 C   0  0  0  0  0  0  0  0  0  0  0  0
   -6.3100    5.1041  -13.7701 N   0  0  0  0  0  0  0  0  0  0  0  0
   -6.0596    3.5499  -13.9491 C   0  0  0  0  0  0  0  0  0  0  0  0
   -7.7647    5.3943  -13.4598 C   0  0  0  0  0  0  0  0  0  0  0  0
   -8.6680    5.6158  -14.1811 O   0  0  0  0  0  0  0  0  0  0  0  0
   -7.9486    5.2547  -12.0010 C   0  0  0  0  0  0  0  0  0  0  0  0
   -8.4355    4.0538  -11.6272 C   0  0  0  0  0  0  0  0  0  0  0  0
   -8.5210    3.7441  -10.2503 C   0  0  0  0  0  0  0  0  0  0  0  0
   -8.8899    2.6473   -9.6368 N   0  0  0  0  0  0  0  0  0  0  0  0
   -8.7001    2.8935   -8.3042 C   0  0  0  0  0  0  0  0  0  0  0  0
   -8.2533    4.1803   -8.1010 C   0  0  0  0  0  0  0  0  0  0  0  0
   -8.1288    4.7244   -9.3515 N   0  0  0  0  0  0  0  0  0  0  0  0
   -7.6844    5.9886   -9.7315 C   0  0  0  0  0  0  0  0  0  0  0  0
   -7.5838    6.2865  -11.0404 C   0  0  0  0  0  0  0  0  0  0  0  0
   -7.0039    7.9600  -11.6191 Br  0  0  0  0  0  0  0  0  0  0  0  0
   -6.1998    5.0247  -16.1572 N   0  0  0  0  0  0  0  0  0  0  0  0
  1  2  1  0
  2  3  1  0
  3  4  1  0
  4  5  2  0
  4  6  1  0
  6  7  2  0
  7  8  1  0
  8  9  1  0
  9 10  1  0
 10 11  1  0
 10 12  1  0
 12 13  2  0
 12 14  1  0
 14 15  2  0
 15 16  1  0
 16 17  2  0
 17 18  1  0
 18 19  2  0
 19 20  1  0
 20 21  1  0
 21 22  2  0
 22 23  1  0
  9 24  2  0
 24  6  1  0
 22 14  1  0
 20 16  1  0
M  END
>  <energy_score>  (3227) 
-2.138618

>  <alias>  (3227) 
ISKJMDZZKPGIGC-UHFFFAOYSA-N-P29-P29-P84-601526

>  <HIPPO Pose ID>  (3227) 
76923

>  <smiles>  (3227) 
CCOC(=O)c1csc(N(C)C(=O)c2cc3nccn3cc2Br)n1

>  <inchikey>  (3227) 
ISKJMDZZKPGIGC-UHFFFAOYSA-N

>  <distance_score>  (3227) 
0.995265

>  <ref_mols>  (3227) 
Z1495a,Z0673a

>  <ref_pdb>  (3227) 
Z3093a

>  <HIPPO Compound ID>  (3227) 
141834

>  <name>  (3227) 
ISKJMDZZKPGIGC-UHFFFAOYSA-N-P29-P29-P84-601526

>  <inspiration_score>  (3227) 
None

$$$$
UUSZCJBZBRPTRA-UHFFFAOYSA-N-P29-P29-P84-601526
     RDKit          3D

 24 26  0  0  0  0  0  0  0  0999 V2000
   -9.2886    4.0553  -18.4015 C   0  0  0  0  0  0  0  0  0  0  0  0
   -8.0590    4.6778  -17.7881 C   0  0  0  0  0  0  0  0  0  0  0  0
   -7.4602    5.5916  -18.7333 O   0  0  0  0  0  0  0  0  0  0  0  0
   -6.2164    6.1324  -18.5300 C   0  0  0  0  0  0  0  0  0  0  0  0
   -5.6612    6.8260  -19.3760 O   0  0  0  0  0  0  0  0  0  0  0  0
   -5.6177    5.8763  -17.2255 C   0  0  0  0  0  0  0  0  0  0  0  0
   -6.3827    6.0807  -16.0931 N   0  0  0  0  0  0  0  0  0  0  0  0
   -5.7795    5.5958  -15.0524 C   0  0  0  0  0  0  0  0  0  0  0  0
   -6.3681    5.4818  -13.8511 N   0  0  0  0  0  0  0  0  0  0  0  0
   -7.7846    5.8780  -13.3890 C   0  0  0  0  0  0  0  0  0  0  0  0
   -8.6358    6.4347  -13.9562 O   0  0  0  0  0  0  0  0  0  0  0  0
   -7.9296    5.4672  -11.9796 C   0  0  0  0  0  0  0  0  0  0  0  0
   -7.8048    6.4491  -10.9190 C   0  0  0  0  0  0  0  0  0  0  0  0
   -7.9383    6.0503   -9.6395 C   0  0  0  0  0  0  0  0  0  0  0  0
   -7.7783    7.2702   -8.2326 Br  0  0  0  0  0  0  0  0  0  0  0  0
   -8.2038    4.6934   -9.3869 N   0  0  0  0  0  0  0  0  0  0  0  0
   -8.3483    4.0045   -8.2057 C   0  0  0  0  0  0  0  0  0  0  0  0
   -8.5950    2.6986   -8.5592 C   0  0  0  0  0  0  0  0  0  0  0  0
   -8.6230    2.5621   -9.9183 N   0  0  0  0  0  0  0  0  0  0  0  0
   -8.3620    3.7494  -10.4006 C   0  0  0  0  0  0  0  0  0  0  0  0
   -8.2165    4.1758  -11.7436 C   0  0  0  0  0  0  0  0  0  0  0  0
   -4.2007    5.0316  -15.2796 S   0  0  0  0  0  0  0  0  0  0  0  0
   -4.3487    5.4123  -16.9478 C   0  0  0  0  0  0  0  0  0  0  0  0
   -2.8408    5.0669  -18.3315 I   0  0  0  0  0  0  0  0  0  0  0  0
  1  2  1  0
  2  3  1  0
  3  4  1  0
  4  5  2  0
  4  6  1  0
  6  7  1  0
  7  8  2  0
  8  9  1  0
  9 10  1  0
 10 11  2  0
 10 12  1  0
 12 13  1  0
 13 14  2  0
 14 15  1  0
 14 16  1  0
 16 17  1  0
 17 18  2  0
 18 19  1  0
 19 20  2  0
 20 21  1  0
  8 22  1  0
 22 23  1  0
 23 24  1  0
 23  6  2  0
 21 12  2  0
 20 16  1  0
M  END
>  <energy_score>  (3228) 
-49.516461

>  <alias>  (3228) 
UUSZCJBZBRPTRA-UHFFFAOYSA-N-P29-P29-P84-601526

>  <HIPPO Pose ID>  (3228) 
76925

>  <smiles>  (3228) 
CCOC(=O)c1nc(NC(=O)c2cc(Br)n3ccnc3c2)sc1I

>  <inchikey>  (3228) 
UUSZCJBZBRPTRA-UHFFFAOYSA-N

>  <distance_score>  (3228) 
1.039635

>  <ref_mols>  (3228) 
Z1495a,Z0673a

>  <ref_pdb>  (3228) 
Z3093a

>  <HIPPO Compound ID>  (3228) 
141835

>  <name>  (3228) 
UUSZCJBZBRPTRA-UHFFFAOYSA-N-P29-P29-P84-601526

>  <inspiration_score>  (3228) 
None

$$$$
LZLCMQGMCUTNON-UHFFFAOYSA-N-P29-P29-P84-601526
     RDKit          3D

 24 26  0  0  0  0  0  0  0  0999 V2000
   -9.5803    3.9481  -18.1294 C   0  0  0  0  0  0  0  0  0  0  0  0
   -8.1848    4.4178  -17.8047 C   0  0  0  0  0  0  0  0  0  0  0  0
   -7.3679    4.4125  -18.9910 O   0  0  0  0  0  0  0  0  0  0  0  0
   -6.0352    4.7577  -18.9717 C   0  0  0  0  0  0  0  0  0  0  0  0
   -5.3630    4.6617  -19.9942 O   0  0  0  0  0  0  0  0  0  0  0  0
   -5.4172    5.1548  -17.6904 C   0  0  0  0  0  0  0  0  0  0  0  0
   -6.1800    5.5855  -16.6218 N   0  0  0  0  0  0  0  0  0  0  0  0
   -5.4950    5.5465  -15.5225 C   0  0  0  0  0  0  0  0  0  0  0  0
   -6.0644    5.5746  -14.3016 N   0  0  0  0  0  0  0  0  0  0  0  0
   -7.5377    5.7897  -13.8864 C   0  0  0  0  0  0  0  0  0  0  0  0
   -8.4741    6.0523  -14.5302 O   0  0  0  0  0  0  0  0  0  0  0  0
   -7.6670    5.4988  -12.4381 C   0  0  0  0  0  0  0  0  0  0  0  0
   -8.0393    4.2322  -12.1585 C   0  0  0  0  0  0  0  0  0  0  0  0
   -8.2396    3.8539  -10.8068 C   0  0  0  0  0  0  0  0  0  0  0  0
   -8.5649    2.7026  -10.2764 N   0  0  0  0  0  0  0  0  0  0  0  0
   -8.5718    2.9074   -8.9214 C   0  0  0  0  0  0  0  0  0  0  0  0
   -8.2738    4.2182   -8.6234 C   0  0  0  0  0  0  0  0  0  0  0  0
   -8.0646    4.8268   -9.8331 N   0  0  0  0  0  0  0  0  0  0  0  0
   -7.7141    6.1437  -10.1185 C   0  0  0  0  0  0  0  0  0  0  0  0
   -7.5088    6.5102  -11.3983 C   0  0  0  0  0  0  0  0  0  0  0  0
   -7.0177    8.2515  -11.8457 Br  0  0  0  0  0  0  0  0  0  0  0  0
   -3.8278    5.3302  -15.6985 S   0  0  0  0  0  0  0  0  0  0  0  0
   -4.0542    5.1378  -17.4011 C   0  0  0  0  0  0  0  0  0  0  0  0
   -2.8938    4.8942  -18.2994 C   0  0  0  0  0  0  0  0  0  0  0  0
  1  2  1  0
  2  3  1  0
  3  4  1  0
  4  5  2  0
  4  6  1  0
  6  7  1  0
  7  8  2  0
  8  9  1  0
  9 10  1  0
 10 11  2  0
 10 12  1  0
 12 13  2  0
 13 14  1  0
 14 15  2  0
 15 16  1  0
 16 17  2  0
 17 18  1  0
 18 19  1  0
 19 20  2  0
 20 21  1  0
  8 22  1  0
 22 23  1  0
 23 24  1  0
 23  6  2  0
 20 12  1  0
 18 14  1  0
M  END
>  <energy_score>  (3229) 
-79.250282

>  <alias>  (3229) 
LZLCMQGMCUTNON-UHFFFAOYSA-N-P29-P29-P84-601526

>  <HIPPO Pose ID>  (3229) 
76927

>  <smiles>  (3229) 
CCOC(=O)c1nc(NC(=O)c2cc3nccn3cc2Br)sc1C

>  <inchikey>  (3229) 
LZLCMQGMCUTNON-UHFFFAOYSA-N

>  <distance_score>  (3229) 
1.359258

>  <ref_mols>  (3229) 
Z1495a,Z0673a

>  <ref_pdb>  (3229) 
Z3093a

>  <HIPPO Compound ID>  (3229) 
141836

>  <name>  (3229) 
LZLCMQGMCUTNON-UHFFFAOYSA-N-P29-P29-P84-601526

>  <inspiration_score>  (3229) 
None

$$$$
UIFLPKYZUNBPIN-UHFFFAOYSA-N-P29-P29-P84-601526
     RDKit          3D

 24 26  0  0  0  0  0  0  0  0999 V2000
   -9.3419    4.0601  -18.3240 C   0  0  0  0  0  0  0  0  0  0  0  0
   -8.0724    4.6366  -17.7489 C   0  0  0  0  0  0  0  0  0  0  0  0
   -7.3627    5.3617  -18.7766 O   0  0  0  0  0  0  0  0  0  0  0  0
   -6.0562    5.7505  -18.6186 C   0  0  0  0  0  0  0  0  0  0  0  0
   -5.3938    6.1907  -19.5516 O   0  0  0  0  0  0  0  0  0  0  0  0
   -5.5056    5.6340  -17.2752 C   0  0  0  0  0  0  0  0  0  0  0  0
   -6.2784    5.9591  -16.1736 N   0  0  0  0  0  0  0  0  0  0  0  0
   -5.6977    5.5379  -15.0910 C   0  0  0  0  0  0  0  0  0  0  0  0
   -6.3054    5.4860  -13.8928 N   0  0  0  0  0  0  0  0  0  0  0  0
   -7.7582    5.8163  -13.4915 C   0  0  0  0  0  0  0  0  0  0  0  0
   -8.6340    6.2577  -14.1204 O   0  0  0  0  0  0  0  0  0  0  0  0
   -7.9221    5.4488  -12.0708 C   0  0  0  0  0  0  0  0  0  0  0  0
   -7.7859    6.4502  -11.0301 C   0  0  0  0  0  0  0  0  0  0  0  0
   -7.9220    6.0782   -9.7422 C   0  0  0  0  0  0  0  0  0  0  0  0
   -7.7512    7.3253   -8.3607 Br  0  0  0  0  0  0  0  0  0  0  0  0
   -8.1969    4.7284   -9.4608 N   0  0  0  0  0  0  0  0  0  0  0  0
   -8.3407    4.0633   -8.2656 C   0  0  0  0  0  0  0  0  0  0  0  0
   -8.5958    2.7520   -8.5926 C   0  0  0  0  0  0  0  0  0  0  0  0
   -8.6303    2.5894   -9.9488 N   0  0  0  0  0  0  0  0  0  0  0  0
   -8.3652    3.7659  -10.4550 C   0  0  0  0  0  0  0  0  0  0  0  0
   -8.2203    4.1650  -11.8067 C   0  0  0  0  0  0  0  0  0  0  0  0
   -4.1172    4.9494  -15.2508 S   0  0  0  0  0  0  0  0  0  0  0  0
   -4.2454    5.1927  -16.9401 C   0  0  0  0  0  0  0  0  0  0  0  0
   -2.9464    4.7716  -17.9697 Cl  0  0  0  0  0  0  0  0  0  0  0  0
  1  2  1  0
  2  3  1  0
  3  4  1  0
  4  5  2  0
  4  6  1  0
  6  7  1  0
  7  8  2  0
  8  9  1  0
  9 10  1  0
 10 11  2  0
 10 12  1  0
 12 13  1  0
 13 14  2  0
 14 15  1  0
 14 16  1  0
 16 17  1  0
 17 18  2  0
 18 19  1  0
 19 20  2  0
 20 21  1  0
  8 22  1  0
 22 23  1  0
 23 24  1  0
 23  6  2  0
 21 12  2  0
 20 16  1  0
M  END
>  <energy_score>  (3230) 
-37.802952

>  <alias>  (3230) 
UIFLPKYZUNBPIN-UHFFFAOYSA-N-P29-P29-P84-601526

>  <HIPPO Pose ID>  (3230) 
76933

>  <smiles>  (3230) 
CCOC(=O)c1nc(NC(=O)c2cc(Br)n3ccnc3c2)sc1Cl

>  <inchikey>  (3230) 
UIFLPKYZUNBPIN-UHFFFAOYSA-N

>  <distance_score>  (3230) 
0.927476

>  <ref_mols>  (3230) 
Z1495a,Z0673a

>  <ref_pdb>  (3230) 
Z3093a

>  <HIPPO Compound ID>  (3230) 
141839

>  <name>  (3230) 
UIFLPKYZUNBPIN-UHFFFAOYSA-N-P29-P29-P84-601526

>  <inspiration_score>  (3230) 
None

$$$$
RTMXOCVYXJBOGJ-UHFFFAOYSA-N-P29-P29-P84-601526
     RDKit          3D

 25 27  0  0  0  0  0  0  0  0999 V2000
   -9.3373    4.2279  -18.2517 C   0  0  0  0  0  0  0  0  0  0  0  0
   -8.1103    4.5023  -17.4055 C   0  0  0  0  0  0  0  0  0  0  0  0
   -6.9722    4.6111  -18.2810 O   0  0  0  0  0  0  0  0  0  0  0  0
   -5.7561    5.0991  -17.8888 C   0  0  0  0  0  0  0  0  0  0  0  0
   -4.8790    5.3077  -18.7249 O   0  0  0  0  0  0  0  0  0  0  0  0
   -5.4940    5.3708  -16.4632 C   0  0  0  0  0  0  0  0  0  0  0  0
   -4.3406    6.0084  -16.0259 C   0  0  0  0  0  0  0  0  0  0  0  0
   -4.3573    6.2001  -14.3195 S   0  0  0  0  0  0  0  0  0  0  0  0
   -5.8233    5.3005  -14.2614 C   0  0  0  0  0  0  0  0  0  0  0  0
   -6.4541    5.2091  -12.9966 N   0  0  0  0  0  0  0  0  0  0  0  0
   -5.8367    3.7196  -13.0632 C   0  0  0  0  0  0  0  0  0  0  0  0
   -6.7509    2.6196  -13.6060 C   0  0  0  0  0  0  0  0  0  0  0  0
   -7.8355    5.1575  -12.6479 C   0  0  0  0  0  0  0  0  0  0  0  0
   -8.8173    5.0895  -13.3410 O   0  0  0  0  0  0  0  0  0  0  0  0
   -7.9565    5.0883  -11.1658 C   0  0  0  0  0  0  0  0  0  0  0  0
   -8.5343    3.9769  -10.6621 C   0  0  0  0  0  0  0  0  0  0  0  0
   -8.5625    3.7812   -9.2553 C   0  0  0  0  0  0  0  0  0  0  0  0
   -9.0260    2.7918   -8.5277 N   0  0  0  0  0  0  0  0  0  0  0  0
   -8.7310    3.1208   -7.2313 C   0  0  0  0  0  0  0  0  0  0  0  0
   -8.1246    4.3551   -7.1616 C   0  0  0  0  0  0  0  0  0  0  0  0
   -8.0009    4.7737   -8.4599 N   0  0  0  0  0  0  0  0  0  0  0  0
   -7.4332    5.9384   -8.9681 C   0  0  0  0  0  0  0  0  0  0  0  0
   -7.4034    6.1100  -10.2976 C   0  0  0  0  0  0  0  0  0  0  0  0
   -6.8620    7.2212  -10.8332 F   0  0  0  0  0  0  0  0  0  0  0  0
   -6.3500    5.0188  -15.4270 N   0  0  0  0  0  0  0  0  0  0  0  0
  1  2  1  0
  2  3  1  0
  3  4  1  0
  4  5  2  0
  4  6  1  0
  6  7  2  0
  7  8  1  0
  8  9  1  0
  9 10  1  0
 10 11  1  0
 11 12  1  0
 10 13  1  0
 13 14  2  0
 13 15  1  0
 15 16  2  0
 16 17  1  0
 17 18  2  0
 18 19  1  0
 19 20  2  0
 20 21  1  0
 21 22  1  0
 22 23  2  0
 23 24  1  0
  9 25  2  0
 25  6  1  0
 23 15  1  0
 21 17  1  0
M  END
>  <energy_score>  (3231) 
-18.359019

>  <alias>  (3231) 
RTMXOCVYXJBOGJ-UHFFFAOYSA-N-P29-P29-P84-601526

>  <HIPPO Pose ID>  (3231) 
76937

>  <smiles>  (3231) 
CCOC(=O)c1csc(N(CC)C(=O)c2cc3nccn3cc2F)n1

>  <inchikey>  (3231) 
RTMXOCVYXJBOGJ-UHFFFAOYSA-N

>  <distance_score>  (3231) 
1.513875

>  <ref_mols>  (3231) 
Z1495a,Z0673a

>  <ref_pdb>  (3231) 
Z3093a

>  <HIPPO Compound ID>  (3231) 
141841

>  <name>  (3231) 
RTMXOCVYXJBOGJ-UHFFFAOYSA-N-P29-P29-P84-601526

>  <inspiration_score>  (3231) 
None

$$$$
LWKCJZTWADOCPA-UHFFFAOYSA-N-P29-P29-P84-601526
     RDKit          3D

 25 27  0  0  0  0  0  0  0  0999 V2000
   -8.8333    4.1980  -18.5355 C   0  0  0  0  0  0  0  0  0  0  0  0
   -7.8083    4.7650  -17.5719 C   0  0  0  0  0  0  0  0  0  0  0  0
   -7.0872    5.8140  -18.2446 O   0  0  0  0  0  0  0  0  0  0  0  0
   -5.9381    6.3692  -17.7589 C   0  0  0  0  0  0  0  0  0  0  0  0
   -5.2536    7.0900  -18.4834 O   0  0  0  0  0  0  0  0  0  0  0  0
   -5.5644    6.1633  -16.3481 C   0  0  0  0  0  0  0  0  0  0  0  0
   -4.3372    6.5667  -15.8414 C   0  0  0  0  0  0  0  0  0  0  0  0
   -4.2850    6.3673  -14.1392 S   0  0  0  0  0  0  0  0  0  0  0  0
   -5.8420    5.6251  -14.2020 C   0  0  0  0  0  0  0  0  0  0  0  0
   -6.4742    5.4049  -12.9513 N   0  0  0  0  0  0  0  0  0  0  0  0
   -5.9401    3.9075  -13.2135 C   0  0  0  0  0  0  0  0  0  0  0  0
   -6.8972    2.9540  -13.9300 C   0  0  0  0  0  0  0  0  0  0  0  0
   -7.8557    5.3824  -12.5987 C   0  0  0  0  0  0  0  0  0  0  0  0
   -8.8411    5.4562  -13.2848 O   0  0  0  0  0  0  0  0  0  0  0  0
   -7.9667    5.1299  -11.1309 C   0  0  0  0  0  0  0  0  0  0  0  0
   -7.4068    6.0543  -10.1562 C   0  0  0  0  0  0  0  0  0  0  0  0
   -7.4599    5.7432   -8.8455 C   0  0  0  0  0  0  0  0  0  0  0  0
   -6.7564    6.9014   -7.5577 Br  0  0  0  0  0  0  0  0  0  0  0  0
   -8.0562    4.5272   -8.4660 N   0  0  0  0  0  0  0  0  0  0  0  0
   -8.2285    3.9512   -7.2289 C   0  0  0  0  0  0  0  0  0  0  0  0
   -8.8541    2.7477   -7.4568 C   0  0  0  0  0  0  0  0  0  0  0  0
   -9.1174    2.5793   -8.7866 N   0  0  0  0  0  0  0  0  0  0  0  0
   -8.6132    3.6359   -9.3810 C   0  0  0  0  0  0  0  0  0  0  0  0
   -8.5562    3.9780  -10.7565 C   0  0  0  0  0  0  0  0  0  0  0  0
   -6.4211    5.6504  -15.3779 N   0  0  0  0  0  0  0  0  0  0  0  0
  1  2  1  0
  2  3  1  0
  3  4  1  0
  4  5  2  0
  4  6  1  0
  6  7  2  0
  7  8  1  0
  8  9  1  0
  9 10  1  0
 10 11  1  0
 11 12  1  0
 10 13  1  0
 13 14  2  0
 13 15  1  0
 15 16  1  0
 16 17  2  0
 17 18  1  0
 17 19  1  0
 19 20  1  0
 20 21  2  0
 21 22  1  0
 22 23  2  0
 23 24  1  0
  9 25  2  0
 25  6  1  0
 24 15  2  0
 23 19  1  0
M  END
>  <energy_score>  (3232) 
-26.333414

>  <alias>  (3232) 
LWKCJZTWADOCPA-UHFFFAOYSA-N-P29-P29-P84-601526

>  <HIPPO Pose ID>  (3232) 
76941

>  <smiles>  (3232) 
CCOC(=O)c1csc(N(CC)C(=O)c2cc(Br)n3ccnc3c2)n1

>  <inchikey>  (3232) 
LWKCJZTWADOCPA-UHFFFAOYSA-N

>  <distance_score>  (3232) 
1.573946

>  <ref_mols>  (3232) 
Z1495a,Z0673a

>  <ref_pdb>  (3232) 
Z3093a

>  <HIPPO Compound ID>  (3232) 
141843

>  <name>  (3232) 
LWKCJZTWADOCPA-UHFFFAOYSA-N-P29-P29-P84-601526

>  <inspiration_score>  (3232) 
None

$$$$
YMVKUAHJYLQHMZ-UHFFFAOYSA-N-P84-P29-P84-601526
     RDKit          3D

 25 27  0  0  0  0  0  0  0  0999 V2000
   -9.1525    4.6927  -18.2922 C   0  0  0  0  0  0  0  0  0  0  0  0
   -7.6765    4.9506  -17.9350 C   0  0  0  0  0  0  0  0  0  0  0  0
   -7.5316    4.4067  -16.5143 C   0  0  0  0  0  0  0  0  0  0  0  0
   -6.8021    4.2422  -18.9545 C   0  0  0  0  0  0  0  0  0  0  0  0
   -7.3540    6.3698  -18.0453 O   0  0  0  0  0  0  0  0  0  0  0  0
   -6.0376    6.7728  -18.0267 C   0  0  0  0  0  0  0  0  0  0  0  0
   -5.4868    7.3147  -18.9784 O   0  0  0  0  0  0  0  0  0  0  0  0
   -5.3938    6.5908  -16.7378 C   0  0  0  0  0  0  0  0  0  0  0  0
   -4.1005    6.1599  -16.4909 C   0  0  0  0  0  0  0  0  0  0  0  0
   -3.9430    5.7901  -14.8022 S   0  0  0  0  0  0  0  0  0  0  0  0
   -5.5351    6.3146  -14.5726 C   0  0  0  0  0  0  0  0  0  0  0  0
   -6.1613    6.0865  -13.4085 N   0  0  0  0  0  0  0  0  0  0  0  0
   -7.6159    6.3713  -12.9813 C   0  0  0  0  0  0  0  0  0  0  0  0
   -8.4759    6.9179  -13.5463 O   0  0  0  0  0  0  0  0  0  0  0  0
   -7.8220    5.7620  -11.6565 C   0  0  0  0  0  0  0  0  0  0  0  0
   -8.1403    4.4516  -11.6763 C   0  0  0  0  0  0  0  0  0  0  0  0
   -8.3680    3.7905  -10.4448 C   0  0  0  0  0  0  0  0  0  0  0  0
   -8.6770    2.5477  -10.1823 N   0  0  0  0  0  0  0  0  0  0  0  0
   -8.7283    2.4613   -8.8156 C   0  0  0  0  0  0  0  0  0  0  0  0
   -8.4816    3.6851   -8.2371 C   0  0  0  0  0  0  0  0  0  0  0  0
   -8.2549    4.5386   -9.2820 N   0  0  0  0  0  0  0  0  0  0  0  0
   -7.9465    5.8942   -9.2645 C   0  0  0  0  0  0  0  0  0  0  0  0
   -7.7283    6.5345  -10.4261 C   0  0  0  0  0  0  0  0  0  0  0  0
   -7.2857    8.3448  -10.4637 Br  0  0  0  0  0  0  0  0  0  0  0  0
   -6.1449    6.8048  -15.6067 N   0  0  0  0  0  0  0  0  0  0  0  0
  1  2  1  0
  2  3  1  0
  2  4  1  0
  2  5  1  0
  5  6  1  0
  6  7  2  0
  6  8  1  0
  8  9  2  0
  9 10  1  0
 10 11  1  0
 11 12  1  0
 12 13  1  0
 13 14  2  0
 13 15  1  0
 15 16  2  0
 16 17  1  0
 17 18  2  0
 18 19  1  0
 19 20  2  0
 20 21  1  0
 21 22  1  0
 22 23  2  0
 23 24  1  0
 11 25  2  0
 25  8  1  0
 23 15  1  0
 21 17  1  0
M  END
>  <energy_score>  (3233) 
-59.266121

>  <alias>  (3233) 
YMVKUAHJYLQHMZ-UHFFFAOYSA-N-P84-P29-P84-601526

>  <HIPPO Pose ID>  (3233) 
76948

>  <smiles>  (3233) 
CC(C)(C)OC(=O)c1csc(NC(=O)c2cc3nccn3cc2Br)n1

>  <inchikey>  (3233) 
YMVKUAHJYLQHMZ-UHFFFAOYSA-N

>  <distance_score>  (3233) 
1.475219

>  <ref_mols>  (3233) 
Z1495a,Z0673a

>  <ref_pdb>  (3233) 
Z3093a

>  <HIPPO Compound ID>  (3233) 
141846

>  <name>  (3233) 
YMVKUAHJYLQHMZ-UHFFFAOYSA-N-P84-P29-P84-601526

>  <inspiration_score>  (3233) 
None

$$$$
DIANHGOPLMCXIO-UHFFFAOYSA-N-P29-P29-P84-601526
     RDKit          3D

 25 27  0  0  0  0  0  0  0  0999 V2000
   -8.8768    4.1924  -18.8140 C   0  0  0  0  0  0  0  0  0  0  0  0
   -7.8610    4.7490  -17.8381 C   0  0  0  0  0  0  0  0  0  0  0  0
   -7.1649    5.8434  -18.4674 O   0  0  0  0  0  0  0  0  0  0  0  0
   -6.0015    6.3632  -17.9728 C   0  0  0  0  0  0  0  0  0  0  0  0
   -5.3190    7.1224  -18.6579 O   0  0  0  0  0  0  0  0  0  0  0  0
   -5.6124    6.0423  -16.5921 C   0  0  0  0  0  0  0  0  0  0  0  0
   -4.3265    6.2150  -16.1015 C   0  0  0  0  0  0  0  0  0  0  0  0
   -4.2570    5.8138  -14.4316 S   0  0  0  0  0  0  0  0  0  0  0  0
   -5.9169    5.3696  -14.4978 C   0  0  0  0  0  0  0  0  0  0  0  0
   -6.5378    5.0386  -13.2775 N   0  0  0  0  0  0  0  0  0  0  0  0
   -6.3181    3.5350  -13.8489 C   0  0  0  0  0  0  0  0  0  0  0  0
   -5.5769    2.7099  -12.7906 C   0  0  0  0  0  0  0  0  0  0  0  0
   -7.8824    5.2091  -12.8440 C   0  0  0  0  0  0  0  0  0  0  0  0
   -8.8545    5.5981  -13.4374 O   0  0  0  0  0  0  0  0  0  0  0  0
   -7.9792    4.8392  -11.4055 C   0  0  0  0  0  0  0  0  0  0  0  0
   -7.3682    5.6586  -10.3664 C   0  0  0  0  0  0  0  0  0  0  0  0
   -7.4819    5.2643   -9.0856 C   0  0  0  0  0  0  0  0  0  0  0  0
   -8.1780    4.0887   -8.7893 N   0  0  0  0  0  0  0  0  0  0  0  0
   -8.4379    3.4835   -7.5786 C   0  0  0  0  0  0  0  0  0  0  0  0
   -7.9850    3.9842   -6.2679 C   0  0  0  0  0  0  0  0  0  0  0  0
   -9.1678    2.3569   -7.8915 C   0  0  0  0  0  0  0  0  0  0  0  0
   -9.4006    2.2735   -9.2341 N   0  0  0  0  0  0  0  0  0  0  0  0
   -8.7753    3.2969   -9.7635 C   0  0  0  0  0  0  0  0  0  0  0  0
   -8.6496    3.7074  -11.1165 C   0  0  0  0  0  0  0  0  0  0  0  0
   -6.5219    5.6160  -15.6319 N   0  0  0  0  0  0  0  0  0  0  0  0
  1  2  1  0
  2  3  1  0
  3  4  1  0
  4  5  2  0
  4  6  1  0
  6  7  2  0
  7  8  1  0
  8  9  1  0
  9 10  1  0
 10 11  1  0
 11 12  1  0
 10 13  1  0
 13 14  2  0
 13 15  1  0
 15 16  1  0
 16 17  2  0
 17 18  1  0
 18 19  1  0
 19 20  1  0
 19 21  2  0
 21 22  1  0
 22 23  2  0
 23 24  1  0
  9 25  2  0
 25  6  1  0
 24 15  2  0
 23 18  1  0
M  END
>  <energy_score>  (3234) 
-10.383298

>  <alias>  (3234) 
DIANHGOPLMCXIO-UHFFFAOYSA-N-P29-P29-P84-601526

>  <HIPPO Pose ID>  (3234) 
76955

>  <smiles>  (3234) 
CCOC(=O)c1csc(N(CC)C(=O)c2ccn3c(C)cnc3c2)n1

>  <inchikey>  (3234) 
DIANHGOPLMCXIO-UHFFFAOYSA-N

>  <distance_score>  (3234) 
1.743155

>  <ref_mols>  (3234) 
Z1495a,Z0673a

>  <ref_pdb>  (3234) 
Z3093a

>  <HIPPO Compound ID>  (3234) 
141850

>  <name>  (3234) 
DIANHGOPLMCXIO-UHFFFAOYSA-N-P29-P29-P84-601526

>  <inspiration_score>  (3234) 
None

$$$$
VCOUTMHNSKANBV-UHFFFAOYSA-N-P84-P29-P84-601526
     RDKit          3D

 25 27  0  0  0  0  0  0  0  0999 V2000
   -8.9772    4.2145  -18.1848 C   0  0  0  0  0  0  0  0  0  0  0  0
   -7.6910    4.8498  -17.7030 C   0  0  0  0  0  0  0  0  0  0  0  0
   -7.1061    5.6688  -18.7432 O   0  0  0  0  0  0  0  0  0  0  0  0
   -5.7823    6.0282  -18.6990 C   0  0  0  0  0  0  0  0  0  0  0  0
   -5.1703    6.4471  -19.6771 O   0  0  0  0  0  0  0  0  0  0  0  0
   -5.1304    5.8958  -17.3976 C   0  0  0  0  0  0  0  0  0  0  0  0
   -5.8081    6.2755  -16.2527 N   0  0  0  0  0  0  0  0  0  0  0  0
   -5.2176    5.7699  -15.2139 C   0  0  0  0  0  0  0  0  0  0  0  0
   -5.8115    5.6080  -14.0162 N   0  0  0  0  0  0  0  0  0  0  0  0
   -7.2429    5.9733  -13.5452 C   0  0  0  0  0  0  0  0  0  0  0  0
   -8.1005    6.5398  -14.0993 O   0  0  0  0  0  0  0  0  0  0  0  0
   -7.4703    5.3730  -12.1972 C   0  0  0  0  0  0  0  0  0  0  0  0
   -8.0702    6.1316  -11.1048 C   0  0  0  0  0  0  0  0  0  0  0  0
   -8.3631    5.4968   -9.9513 C   0  0  0  0  0  0  0  0  0  0  0  0
   -8.0598    4.1372   -9.8142 N   0  0  0  0  0  0  0  0  0  0  0  0
   -8.2119    3.2502   -8.7670 C   0  0  0  0  0  0  0  0  0  0  0  0
   -8.9360    3.4539   -7.5009 C   0  0  0  0  0  0  0  0  0  0  0  0
   -7.5343    2.1219   -9.1669 C   0  0  0  0  0  0  0  0  0  0  0  0
   -7.0108    2.2597  -10.4180 N   0  0  0  0  0  0  0  0  0  0  0  0
   -7.4310    3.4252  -10.8278 C   0  0  0  0  0  0  0  0  0  0  0  0
   -7.2455    4.0509  -12.0796 C   0  0  0  0  0  0  0  0  0  0  0  0
   -3.6796    5.1023  -15.4723 S   0  0  0  0  0  0  0  0  0  0  0  0
   -3.8692    5.3630  -17.1662 C   0  0  0  0  0  0  0  0  0  0  0  0
   -2.8218    4.9226  -18.1359 C   0  0  0  0  0  0  0  0  0  0  0  0
   -1.7949    6.0136  -18.3935 C   0  0  0  0  0  0  0  0  0  0  0  0
  1  2  1  0
  2  3  1  0
  3  4  1  0
  4  5  2  0
  4  6  1  0
  6  7  1  0
  7  8  2  0
  8  9  1  0
  9 10  1  0
 10 11  2  0
 10 12  1  0
 12 13  1  0
 13 14  2  0
 14 15  1  0
 15 16  1  0
 16 17  1  0
 16 18  2  0
 18 19  1  0
 19 20  2  0
 20 21  1  0
  8 22  1  0
 22 23  1  0
 23 24  1  0
 24 25  1  0
 23  6  2  0
 21 12  2  0
 20 15  1  0
M  END
>  <energy_score>  (3235) 
-35.465212

>  <alias>  (3235) 
VCOUTMHNSKANBV-UHFFFAOYSA-N-P84-P29-P84-601526

>  <HIPPO Pose ID>  (3235) 
76957

>  <smiles>  (3235) 
CCOC(=O)c1nc(NC(=O)c2ccn3c(C)cnc3c2)sc1CC

>  <inchikey>  (3235) 
VCOUTMHNSKANBV-UHFFFAOYSA-N

>  <distance_score>  (3235) 
1.706919

>  <ref_mols>  (3235) 
Z1495a,Z0673a

>  <ref_pdb>  (3235) 
Z3093a

>  <HIPPO Compound ID>  (3235) 
141851

>  <name>  (3235) 
VCOUTMHNSKANBV-UHFFFAOYSA-N-P84-P29-P84-601526

>  <inspiration_score>  (3235) 
None

$$$$
ZBROLQGYBONJND-UHFFFAOYSA-N-P29-P29-P84-601526
     RDKit          3D

 25 27  0  0  0  0  0  0  0  0999 V2000
   -9.7108    3.9317  -18.1138 C   0  0  0  0  0  0  0  0  0  0  0  0
   -8.3458    4.3920  -17.6792 C   0  0  0  0  0  0  0  0  0  0  0  0
   -7.4934    4.5241  -18.8328 O   0  0  0  0  0  0  0  0  0  0  0  0
   -6.1615    4.8530  -18.7430 C   0  0  0  0  0  0  0  0  0  0  0  0
   -5.4612    4.8523  -19.7500 O   0  0  0  0  0  0  0  0  0  0  0  0
   -5.6019    5.1411  -17.4162 C   0  0  0  0  0  0  0  0  0  0  0  0
   -6.4024    5.5288  -16.3526 N   0  0  0  0  0  0  0  0  0  0  0  0
   -5.7502    5.4292  -15.2352 C   0  0  0  0  0  0  0  0  0  0  0  0
   -6.3303    5.4481  -14.0219 N   0  0  0  0  0  0  0  0  0  0  0  0
   -7.8045    5.6716  -13.6187 C   0  0  0  0  0  0  0  0  0  0  0  0
   -8.7318    5.9502  -14.2681 O   0  0  0  0  0  0  0  0  0  0  0  0
   -7.9219    5.3757  -12.1783 C   0  0  0  0  0  0  0  0  0  0  0  0
   -8.2366    4.1086  -11.8473 C   0  0  0  0  0  0  0  0  0  0  0  0
   -8.3648    3.7718  -10.4731 C   0  0  0  0  0  0  0  0  0  0  0  0
   -8.6378    2.6246   -9.9004 N   0  0  0  0  0  0  0  0  0  0  0  0
   -8.5946    2.8597   -8.5494 C   0  0  0  0  0  0  0  0  0  0  0  0
   -8.3243    4.1808   -8.3094 C   0  0  0  0  0  0  0  0  0  0  0  0
   -8.1711    5.0478   -6.8551 Cl  0  0  0  0  0  0  0  0  0  0  0  0
   -8.1694    4.7842   -9.5305 N   0  0  0  0  0  0  0  0  0  0  0  0
   -7.8617    6.1000   -9.8841 C   0  0  0  0  0  0  0  0  0  0  0  0
   -7.7351    6.4051  -11.1826 C   0  0  0  0  0  0  0  0  0  0  0  0
   -7.4115    7.6529  -11.5712 F   0  0  0  0  0  0  0  0  0  0  0  0
   -4.0871    5.1498  -15.3550 S   0  0  0  0  0  0  0  0  0  0  0  0
   -4.2716    5.0567  -17.0555 C   0  0  0  0  0  0  0  0  0  0  0  0
   -2.8931    4.7772  -18.0301 Cl  0  0  0  0  0  0  0  0  0  0  0  0
  1  2  1  0
  2  3  1  0
  3  4  1  0
  4  5  2  0
  4  6  1  0
  6  7  1  0
  7  8  2  0
  8  9  1  0
  9 10  1  0
 10 11  2  0
 10 12  1  0
 12 13  2  0
 13 14  1  0
 14 15  2  0
 15 16  1  0
 16 17  2  0
 17 18  1  0
 17 19  1  0
 19 20  1  0
 20 21  2  0
 21 22  1  0
  8 23  1  0
 23 24  1  0
 24 25  1  0
 24  6  2  0
 21 12  1  0
 19 14  1  0
M  END
>  <energy_score>  (3236) 
-86.151875

>  <alias>  (3236) 
ZBROLQGYBONJND-UHFFFAOYSA-N-P29-P29-P84-601526

>  <HIPPO Pose ID>  (3236) 
76960

>  <smiles>  (3236) 
CCOC(=O)c1nc(NC(=O)c2cc3ncc(Cl)n3cc2F)sc1Cl

>  <inchikey>  (3236) 
ZBROLQGYBONJND-UHFFFAOYSA-N

>  <distance_score>  (3236) 
0.862535

>  <ref_mols>  (3236) 
Z1495a,Z0673a

>  <ref_pdb>  (3236) 
Z3093a

>  <HIPPO Compound ID>  (3236) 
141853

>  <name>  (3236) 
ZBROLQGYBONJND-UHFFFAOYSA-N-P29-P29-P84-601526

>  <inspiration_score>  (3236) 
None

$$$$
SUXFJNHVYRXINY-UHFFFAOYSA-N-P84-P29-P84-601526
     RDKit          3D

 25 27  0  0  0  0  0  0  0  0999 V2000
   -8.9204    4.1455  -18.3514 C   0  0  0  0  0  0  0  0  0  0  0  0
   -7.5819    4.6638  -17.8704 C   0  0  0  0  0  0  0  0  0  0  0  0
   -6.5929    4.6872  -18.9267 O   0  0  0  0  0  0  0  0  0  0  0  0
   -5.2707    5.0008  -18.6958 C   0  0  0  0  0  0  0  0  0  0  0  0
   -4.4266    4.9414  -19.5920 O   0  0  0  0  0  0  0  0  0  0  0  0
   -4.8544    5.3331  -17.3221 C   0  0  0  0  0  0  0  0  0  0  0  0
   -5.7588    5.7104  -16.3468 N   0  0  0  0  0  0  0  0  0  0  0  0
   -5.2167    5.6251  -15.1718 C   0  0  0  0  0  0  0  0  0  0  0  0
   -5.9136    5.6104  -14.0197 N   0  0  0  0  0  0  0  0  0  0  0  0
   -7.4220    5.8215  -13.7568 C   0  0  0  0  0  0  0  0  0  0  0  0
   -8.2825    6.1167  -14.4863 O   0  0  0  0  0  0  0  0  0  0  0  0
   -7.6867    5.4770  -12.3417 C   0  0  0  0  0  0  0  0  0  0  0  0
   -7.9629    4.1863  -12.0677 C   0  0  0  0  0  0  0  0  0  0  0  0
   -8.1981    3.8047  -10.7178 C   0  0  0  0  0  0  0  0  0  0  0  0
   -8.4210    2.6232  -10.1950 N   0  0  0  0  0  0  0  0  0  0  0  0
   -8.5397    2.8258   -8.8427 C   0  0  0  0  0  0  0  0  0  0  0  0
   -8.3862    4.1550   -8.5503 C   0  0  0  0  0  0  0  0  0  0  0  0
   -8.4106    4.9868   -7.0680 Cl  0  0  0  0  0  0  0  0  0  0  0  0
   -8.1670    4.8018   -9.7397 N   0  0  0  0  0  0  0  0  0  0  0  0
   -7.9174    6.1435  -10.0364 C   0  0  0  0  0  0  0  0  0  0  0  0
   -7.6778    6.4892  -11.3093 C   0  0  0  0  0  0  0  0  0  0  0  0
   -7.4009    7.7658  -11.6362 F   0  0  0  0  0  0  0  0  0  0  0  0
   -3.5409    5.4062  -15.1427 S   0  0  0  0  0  0  0  0  0  0  0  0
   -3.5419    5.2990  -16.8606 C   0  0  0  0  0  0  0  0  0  0  0  0
   -2.2740    5.1049  -17.6122 C   0  0  0  0  0  0  0  0  0  0  0  0
  1  2  1  0
  2  3  1  0
  3  4  1  0
  4  5  2  0
  4  6  1  0
  6  7  1  0
  7  8  2  0
  8  9  1  0
  9 10  1  0
 10 11  2  0
 10 12  1  0
 12 13  2  0
 13 14  1  0
 14 15  2  0
 15 16  1  0
 16 17  2  0
 17 18  1  0
 17 19  1  0
 19 20  1  0
 20 21  2  0
 21 22  1  0
  8 23  1  0
 23 24  1  0
 24 25  1  0
 24  6  2  0
 21 12  1  0
 19 14  1  0
M  END
>  <energy_score>  (3237) 
-66.508202

>  <alias>  (3237) 
SUXFJNHVYRXINY-UHFFFAOYSA-N-P84-P29-P84-601526

>  <HIPPO Pose ID>  (3237) 
76963

>  <smiles>  (3237) 
CCOC(=O)c1nc(NC(=O)c2cc3ncc(Cl)n3cc2F)sc1C

>  <inchikey>  (3237) 
SUXFJNHVYRXINY-UHFFFAOYSA-N

>  <distance_score>  (3237) 
1.429554

>  <ref_mols>  (3237) 
Z1495a,Z0673a

>  <ref_pdb>  (3237) 
Z3093a

>  <HIPPO Compound ID>  (3237) 
141854

>  <name>  (3237) 
SUXFJNHVYRXINY-UHFFFAOYSA-N-P84-P29-P84-601526

>  <inspiration_score>  (3237) 
None

$$$$
WTLMDQHHDUHLRB-UHFFFAOYSA-N-P29-P29-P84-601526
     RDKit          3D

 25 27  0  0  0  0  0  0  0  0999 V2000
   -9.3168    4.0707  -18.4355 C   0  0  0  0  0  0  0  0  0  0  0  0
   -8.0829    4.6574  -17.7978 C   0  0  0  0  0  0  0  0  0  0  0  0
   -7.4179    5.5265  -18.7415 O   0  0  0  0  0  0  0  0  0  0  0  0
   -6.1299    5.9574  -18.5459 C   0  0  0  0  0  0  0  0  0  0  0  0
   -5.5048    6.5492  -19.4196 O   0  0  0  0  0  0  0  0  0  0  0  0
   -5.5668    5.7164  -17.2226 C   0  0  0  0  0  0  0  0  0  0  0  0
   -6.3586    5.9146  -16.1065 N   0  0  0  0  0  0  0  0  0  0  0  0
   -5.7721    5.4345  -15.0540 C   0  0  0  0  0  0  0  0  0  0  0  0
   -6.3915    5.2686  -13.8736 N   0  0  0  0  0  0  0  0  0  0  0  0
   -7.8217    5.6454  -13.4306 C   0  0  0  0  0  0  0  0  0  0  0  0
   -8.7102    6.0881  -14.0415 O   0  0  0  0  0  0  0  0  0  0  0  0
   -7.9474    5.3110  -12.0029 C   0  0  0  0  0  0  0  0  0  0  0  0
   -8.2765    4.0433  -11.6929 C   0  0  0  0  0  0  0  0  0  0  0  0
   -8.4151    3.6925  -10.3237 C   0  0  0  0  0  0  0  0  0  0  0  0
   -8.7136    2.5445   -9.7663 N   0  0  0  0  0  0  0  0  0  0  0  0
   -8.6656    2.7609   -8.4128 C   0  0  0  0  0  0  0  0  0  0  0  0
   -8.3743    4.0739   -8.1550 C   0  0  0  0  0  0  0  0  0  0  0  0
   -8.2136    4.9195   -6.6890 Cl  0  0  0  0  0  0  0  0  0  0  0  0
   -8.2073    4.6900   -9.3675 N   0  0  0  0  0  0  0  0  0  0  0  0
   -7.8832    6.0060   -9.7010 C   0  0  0  0  0  0  0  0  0  0  0  0
   -7.7525    6.3266  -10.9943 C   0  0  0  0  0  0  0  0  0  0  0  0
   -7.4137    7.5760  -11.3644 F   0  0  0  0  0  0  0  0  0  0  0  0
   -4.1694    4.9237  -15.2404 S   0  0  0  0  0  0  0  0  0  0  0  0
   -4.2977    5.2734  -16.9151 C   0  0  0  0  0  0  0  0  0  0  0  0
   -2.8987    4.9432  -18.1617 Br  0  0  0  0  0  0  0  0  0  0  0  0
  1  2  1  0
  2  3  1  0
  3  4  1  0
  4  5  2  0
  4  6  1  0
  6  7  1  0
  7  8  2  0
  8  9  1  0
  9 10  1  0
 10 11  2  0
 10 12  1  0
 12 13  2  0
 13 14  1  0
 14 15  2  0
 15 16  1  0
 16 17  2  0
 17 18  1  0
 17 19  1  0
 19 20  1  0
 20 21  2  0
 21 22  1  0
  8 23  1  0
 23 24  1  0
 24 25  1  0
 24  6  2  0
 21 12  1  0
 19 14  1  0
M  END
>  <energy_score>  (3238) 
-77.882302

>  <alias>  (3238) 
WTLMDQHHDUHLRB-UHFFFAOYSA-N-P29-P29-P84-601526

>  <HIPPO Pose ID>  (3238) 
76966

>  <smiles>  (3238) 
CCOC(=O)c1nc(NC(=O)c2cc3ncc(Cl)n3cc2F)sc1Br

>  <inchikey>  (3238) 
WTLMDQHHDUHLRB-UHFFFAOYSA-N

>  <distance_score>  (3238) 
1.023525

>  <ref_mols>  (3238) 
Z1495a,Z0673a

>  <ref_pdb>  (3238) 
Z3093a

>  <HIPPO Compound ID>  (3238) 
141856

>  <name>  (3238) 
WTLMDQHHDUHLRB-UHFFFAOYSA-N-P29-P29-P84-601526

>  <inspiration_score>  (3238) 
None

$$$$
VFDCPGDXNSUVGO-UHFFFAOYSA-N-P84-P29-P84-601526
     RDKit          3D

 25 27  0  0  0  0  0  0  0  0999 V2000
   -9.1871    4.1701  -18.2453 C   0  0  0  0  0  0  0  0  0  0  0  0
   -7.9322    4.7666  -17.6595 C   0  0  0  0  0  0  0  0  0  0  0  0
   -7.3562    5.7156  -18.5864 O   0  0  0  0  0  0  0  0  0  0  0  0
   -6.0643    6.1535  -18.4386 C   0  0  0  0  0  0  0  0  0  0  0  0
   -5.4732    6.7664  -19.3221 O   0  0  0  0  0  0  0  0  0  0  0  0
   -5.4631    5.9028  -17.1337 C   0  0  0  0  0  0  0  0  0  0  0  0
   -6.2142    6.1616  -16.0032 N   0  0  0  0  0  0  0  0  0  0  0  0
   -5.6468    5.6335  -14.9626 C   0  0  0  0  0  0  0  0  0  0  0  0
   -6.2617    5.5150  -13.7745 N   0  0  0  0  0  0  0  0  0  0  0  0
   -7.7129    5.8391  -13.3607 C   0  0  0  0  0  0  0  0  0  0  0  0
   -8.5793    6.3309  -13.9656 O   0  0  0  0  0  0  0  0  0  0  0  0
   -7.8902    5.4070  -11.9642 C   0  0  0  0  0  0  0  0  0  0  0  0
   -8.1739    4.1106  -11.7377 C   0  0  0  0  0  0  0  0  0  0  0  0
   -8.3645    3.6817  -10.3965 C   0  0  0  0  0  0  0  0  0  0  0  0
   -8.6311    2.4929   -9.9149 N   0  0  0  0  0  0  0  0  0  0  0  0
   -8.6761    2.6401   -8.5523 C   0  0  0  0  0  0  0  0  0  0  0  0
   -8.4618    3.9488   -8.2121 C   0  0  0  0  0  0  0  0  0  0  0  0
   -8.4178    4.7205   -6.6981 Cl  0  0  0  0  0  0  0  0  0  0  0  0
   -8.2590    4.6350   -9.3807 N   0  0  0  0  0  0  0  0  0  0  0  0
   -7.9825    5.9798   -9.6283 C   0  0  0  0  0  0  0  0  0  0  0  0
   -7.7995    6.3744  -10.8942 C   0  0  0  0  0  0  0  0  0  0  0  0
   -7.5056    7.6573  -11.1792 F   0  0  0  0  0  0  0  0  0  0  0  0
   -4.0920    5.0039  -15.1810 S   0  0  0  0  0  0  0  0  0  0  0  0
   -4.2153    5.3877  -16.8511 C   0  0  0  0  0  0  0  0  0  0  0  0
   -2.7157    4.9656  -18.2235 I   0  0  0  0  0  0  0  0  0  0  0  0
  1  2  1  0
  2  3  1  0
  3  4  1  0
  4  5  2  0
  4  6  1  0
  6  7  1  0
  7  8  2  0
  8  9  1  0
  9 10  1  0
 10 11  2  0
 10 12  1  0
 12 13  2  0
 13 14  1  0
 14 15  2  0
 15 16  1  0
 16 17  2  0
 17 18  1  0
 17 19  1  0
 19 20  1  0
 20 21  2  0
 21 22  1  0
  8 23  1  0
 23 24  1  0
 24 25  1  0
 24  6  2  0
 21 12  1  0
 19 14  1  0
M  END
>  <energy_score>  (3239) 
-59.24417

>  <alias>  (3239) 
VFDCPGDXNSUVGO-UHFFFAOYSA-N-P84-P29-P84-601526

>  <HIPPO Pose ID>  (3239) 
76969

>  <smiles>  (3239) 
CCOC(=O)c1nc(NC(=O)c2cc3ncc(Cl)n3cc2F)sc1I

>  <inchikey>  (3239) 
VFDCPGDXNSUVGO-UHFFFAOYSA-N

>  <distance_score>  (3239) 
1.0939

>  <ref_mols>  (3239) 
Z1495a,Z0673a

>  <ref_pdb>  (3239) 
Z3093a

>  <HIPPO Compound ID>  (3239) 
141857

>  <name>  (3239) 
VFDCPGDXNSUVGO-UHFFFAOYSA-N-P84-P29-P84-601526

>  <inspiration_score>  (3239) 
None

$$$$
JJUYFRHAYYPQEA-UHFFFAOYSA-N-P84-P29-P84-601526
     RDKit          3D

 25 27  0  0  0  0  0  0  0  0999 V2000
   -8.9928    4.1074  -18.3738 C   0  0  0  0  0  0  0  0  0  0  0  0
   -7.6812    4.6405  -17.8436 C   0  0  0  0  0  0  0  0  0  0  0  0
   -6.6524    4.6774  -18.8594 O   0  0  0  0  0  0  0  0  0  0  0  0
   -5.3478    5.0249  -18.5770 C   0  0  0  0  0  0  0  0  0  0  0  0
   -4.4719    4.9617  -19.4417 O   0  0  0  0  0  0  0  0  0  0  0  0
   -4.9998    5.3882  -17.1879 C   0  0  0  0  0  0  0  0  0  0  0  0
   -5.9646    5.7392  -16.2572 N   0  0  0  0  0  0  0  0  0  0  0  0
   -5.4895    5.6239  -15.0574 C   0  0  0  0  0  0  0  0  0  0  0  0
   -6.2149    5.6213  -13.9271 N   0  0  0  0  0  0  0  0  0  0  0  0
   -7.7324    5.7904  -13.7109 C   0  0  0  0  0  0  0  0  0  0  0  0
   -8.5807    6.0349  -14.4704 O   0  0  0  0  0  0  0  0  0  0  0  0
   -7.9876    5.4975  -12.2821 C   0  0  0  0  0  0  0  0  0  0  0  0
   -7.9914    6.5596  -11.2881 C   0  0  0  0  0  0  0  0  0  0  0  0
   -8.1428    6.2228   -9.9955 C   0  0  0  0  0  0  0  0  0  0  0  0
   -8.2906    4.8779   -9.6582 N   0  0  0  0  0  0  0  0  0  0  0  0
   -8.4377    4.2971   -8.4272 C   0  0  0  0  0  0  0  0  0  0  0  0
   -8.5371    2.9420   -8.6673 C   0  0  0  0  0  0  0  0  0  0  0  0
   -8.7238    1.8317   -7.7102 C   0  0  0  0  0  0  0  0  0  0  0  0
   -8.4257    2.6826  -10.0117 N   0  0  0  0  0  0  0  0  0  0  0  0
   -8.2994    3.8495  -10.5916 C   0  0  0  0  0  0  0  0  0  0  0  0
   -8.1496    4.1992  -11.9585 C   0  0  0  0  0  0  0  0  0  0  0  0
   -3.8300    5.3698  -14.9366 S   0  0  0  0  0  0  0  0  0  0  0  0
   -3.7108    5.4291  -16.6572 C   0  0  0  0  0  0  0  0  0  0  0  0
   -2.3791    5.3974  -17.3366 C   0  0  0  0  0  0  0  0  0  0  0  0
   -1.2980    6.1640  -16.5803 C   0  0  0  0  0  0  0  0  0  0  0  0
  1  2  1  0
  2  3  1  0
  3  4  1  0
  4  5  2  0
  4  6  1  0
  6  7  1  0
  7  8  2  0
  8  9  1  0
  9 10  1  0
 10 11  2  0
 10 12  1  0
 12 13  1  0
 13 14  2  0
 14 15  1  0
 15 16  1  0
 16 17  2  0
 17 18  1  0
 17 19  1  0
 19 20  2  0
 20 21  1  0
  8 22  1  0
 22 23  1  0
 23 24  1  0
 24 25  1  0
 23  6  2  0
 21 12  2  0
 20 15  1  0
M  END
>  <energy_score>  (3240) 
-33.737097

>  <alias>  (3240) 
JJUYFRHAYYPQEA-UHFFFAOYSA-N-P84-P29-P84-601526

>  <HIPPO Pose ID>  (3240) 
76973

>  <smiles>  (3240) 
CCOC(=O)c1nc(NC(=O)c2ccn3cc(C)nc3c2)sc1CC

>  <inchikey>  (3240) 
JJUYFRHAYYPQEA-UHFFFAOYSA-N

>  <distance_score>  (3240) 
1.395534

>  <ref_mols>  (3240) 
Z1495a,Z0673a

>  <ref_pdb>  (3240) 
Z3093a

>  <HIPPO Compound ID>  (3240) 
141859

>  <name>  (3240) 
JJUYFRHAYYPQEA-UHFFFAOYSA-N-P84-P29-P84-601526

>  <inspiration_score>  (3240) 
None

$$$$
JKNPJEDORIPPLC-UHFFFAOYSA-N-P84-P29-P84-601526
     RDKit          3D

 25 27  0  0  0  0  0  0  0  0999 V2000
   -9.2041    4.1963  -18.2925 C   0  0  0  0  0  0  0  0  0  0  0  0
   -7.9473    4.7687  -17.6879 C   0  0  0  0  0  0  0  0  0  0  0  0
   -7.3677    5.7490  -18.5805 O   0  0  0  0  0  0  0  0  0  0  0  0
   -6.0702    6.1682  -18.4230 C   0  0  0  0  0  0  0  0  0  0  0  0
   -5.4752    6.8002  -19.2905 O   0  0  0  0  0  0  0  0  0  0  0  0
   -5.4712    5.8761  -17.1255 C   0  0  0  0  0  0  0  0  0  0  0  0
   -6.2309    6.0894  -15.9923 N   0  0  0  0  0  0  0  0  0  0  0  0
   -5.6769    5.5119  -14.9714 C   0  0  0  0  0  0  0  0  0  0  0  0
   -6.3210    5.3120  -13.8103 N   0  0  0  0  0  0  0  0  0  0  0  0
   -7.7261    5.7591  -13.3542 C   0  0  0  0  0  0  0  0  0  0  0  0
   -8.5734    6.3038  -13.9407 O   0  0  0  0  0  0  0  0  0  0  0  0
   -7.8945    5.3548  -11.9483 C   0  0  0  0  0  0  0  0  0  0  0  0
   -8.1754    4.0620  -11.6974 C   0  0  0  0  0  0  0  0  0  0  0  0
   -8.3675    3.6593  -10.3490 C   0  0  0  0  0  0  0  0  0  0  0  0
   -8.6335    2.4828   -9.8412 N   0  0  0  0  0  0  0  0  0  0  0  0
   -8.6799    2.6633   -8.4837 C   0  0  0  0  0  0  0  0  0  0  0  0
   -8.4676    3.9823   -8.1638 C   0  0  0  0  0  0  0  0  0  0  0  0
   -8.4577    4.7111   -6.4119 Br  0  0  0  0  0  0  0  0  0  0  0  0
   -8.2663    4.6313   -9.3551 N   0  0  0  0  0  0  0  0  0  0  0  0
   -7.9932    5.9711   -9.6239 C   0  0  0  0  0  0  0  0  0  0  0  0
   -7.8093    6.3433  -10.8966 C   0  0  0  0  0  0  0  0  0  0  0  0
   -7.5165    7.6211  -11.2046 F   0  0  0  0  0  0  0  0  0  0  0  0
   -4.1096    4.9171  -15.1938 S   0  0  0  0  0  0  0  0  0  0  0  0
   -4.2225    5.3583  -16.8516 C   0  0  0  0  0  0  0  0  0  0  0  0
   -2.7129    4.9845  -18.2272 I   0  0  0  0  0  0  0  0  0  0  0  0
  1  2  1  0
  2  3  1  0
  3  4  1  0
  4  5  2  0
  4  6  1  0
  6  7  1  0
  7  8  2  0
  8  9  1  0
  9 10  1  0
 10 11  2  0
 10 12  1  0
 12 13  2  0
 13 14  1  0
 14 15  2  0
 15 16  1  0
 16 17  2  0
 17 18  1  0
 17 19  1  0
 19 20  1  0
 20 21  2  0
 21 22  1  0
  8 23  1  0
 23 24  1  0
 24 25  1  0
 24  6  2  0
 21 12  1  0
 19 14  1  0
M  END
>  <energy_score>  (3241) 
-57.422405

>  <alias>  (3241) 
JKNPJEDORIPPLC-UHFFFAOYSA-N-P84-P29-P84-601526

>  <HIPPO Pose ID>  (3241) 
76977

>  <smiles>  (3241) 
CCOC(=O)c1nc(NC(=O)c2cc3ncc(Br)n3cc2F)sc1I

>  <inchikey>  (3241) 
JKNPJEDORIPPLC-UHFFFAOYSA-N

>  <distance_score>  (3241) 
1.025982

>  <ref_mols>  (3241) 
Z1495a,Z0673a

>  <ref_pdb>  (3241) 
Z3093a

>  <HIPPO Compound ID>  (3241) 
141861

>  <name>  (3241) 
JKNPJEDORIPPLC-UHFFFAOYSA-N-P84-P29-P84-601526

>  <inspiration_score>  (3241) 
None

$$$$
XROZIARETOKJRZ-UHFFFAOYSA-N-P84-P29-P84-601526
     RDKit          3D

 25 27  0  0  0  0  0  0  0  0999 V2000
   -8.7786    4.2825  -18.4409 C   0  0  0  0  0  0  0  0  0  0  0  0
   -7.5012    4.6452  -17.7154 C   0  0  0  0  0  0  0  0  0  0  0  0
   -6.4027    4.7449  -18.6470 O   0  0  0  0  0  0  0  0  0  0  0  0
   -5.1096    5.0049  -18.2664 C   0  0  0  0  0  0  0  0  0  0  0  0
   -4.2058    5.0300  -19.1039 O   0  0  0  0  0  0  0  0  0  0  0  0
   -4.8040    5.2232  -16.8378 C   0  0  0  0  0  0  0  0  0  0  0  0
   -3.5345    5.5100  -16.3526 C   0  0  0  0  0  0  0  0  0  0  0  0
   -3.5518    5.6376  -14.6311 S   0  0  0  0  0  0  0  0  0  0  0  0
   -5.2090    5.2055  -14.6506 C   0  0  0  0  0  0  0  0  0  0  0  0
   -5.9132    5.1497  -13.4327 N   0  0  0  0  0  0  0  0  0  0  0  0
   -5.6820    3.5507  -13.6498 C   0  0  0  0  0  0  0  0  0  0  0  0
   -5.0208    2.9738  -12.3918 C   0  0  0  0  0  0  0  0  0  0  0  0
   -7.2834    5.4157  -13.1379 C   0  0  0  0  0  0  0  0  0  0  0  0
   -8.2068    5.6699  -13.8663 O   0  0  0  0  0  0  0  0  0  0  0  0
   -7.5246    5.2329  -11.6811 C   0  0  0  0  0  0  0  0  0  0  0  0
   -6.9230    6.0982  -10.6752 C   0  0  0  0  0  0  0  0  0  0  0  0
   -7.0915    5.7849   -9.3777 C   0  0  0  0  0  0  0  0  0  0  0  0
   -7.8232    4.6451   -9.0434 N   0  0  0  0  0  0  0  0  0  0  0  0
   -8.0796    4.0974   -7.8146 C   0  0  0  0  0  0  0  0  0  0  0  0
   -8.7816    2.9355   -8.0660 C   0  0  0  0  0  0  0  0  0  0  0  0
   -9.2587    1.9123   -7.1132 C   0  0  0  0  0  0  0  0  0  0  0  0
   -9.0036    2.7880   -9.4119 N   0  0  0  0  0  0  0  0  0  0  0  0
   -8.4202    3.8147   -9.9819 C   0  0  0  0  0  0  0  0  0  0  0  0
   -8.2698    4.1584  -11.3497 C   0  0  0  0  0  0  0  0  0  0  0  0
   -5.7569    5.1472  -15.8353 N   0  0  0  0  0  0  0  0  0  0  0  0
  1  2  1  0
  2  3  1  0
  3  4  1  0
  4  5  2  0
  4  6  1  0
  6  7  2  0
  7  8  1  0
  8  9  1  0
  9 10  1  0
 10 11  1  0
 11 12  1  0
 10 13  1  0
 13 14  2  0
 13 15  1  0
 15 16  1  0
 16 17  2  0
 17 18  1  0
 18 19  1  0
 19 20  2  0
 20 21  1  0
 20 22  1  0
 22 23  2  0
 23 24  1  0
  9 25  2  0
 25  6  1  0
 24 15  2  0
 23 18  1  0
M  END
>  <energy_score>  (3242) 
-31.520469

>  <alias>  (3242) 
XROZIARETOKJRZ-UHFFFAOYSA-N-P84-P29-P84-601526

>  <HIPPO Pose ID>  (3242) 
76979

>  <smiles>  (3242) 
CCOC(=O)c1csc(N(CC)C(=O)c2ccn3cc(C)nc3c2)n1

>  <inchikey>  (3242) 
XROZIARETOKJRZ-UHFFFAOYSA-N

>  <distance_score>  (3242) 
1.331263

>  <ref_mols>  (3242) 
Z1495a,Z0673a

>  <ref_pdb>  (3242) 
Z3093a

>  <HIPPO Compound ID>  (3242) 
141862

>  <name>  (3242) 
XROZIARETOKJRZ-UHFFFAOYSA-N-P84-P29-P84-601526

>  <inspiration_score>  (3242) 
None

$$$$
GJTIMWBHYAGVBN-UHFFFAOYSA-N-P29-P29-P84-601526
     RDKit          3D

 25 27  0  0  0  0  0  0  0  0999 V2000
   -9.7436    3.9247  -18.0918 C   0  0  0  0  0  0  0  0  0  0  0  0
   -8.3813    4.3880  -17.6537 C   0  0  0  0  0  0  0  0  0  0  0  0
   -7.5378    4.5405  -18.8108 O   0  0  0  0  0  0  0  0  0  0  0  0
   -6.2089    4.8821  -18.7327 C   0  0  0  0  0  0  0  0  0  0  0  0
   -5.5248    4.8975  -19.7509 O   0  0  0  0  0  0  0  0  0  0  0  0
   -5.6354    5.1662  -17.4071 C   0  0  0  0  0  0  0  0  0  0  0  0
   -6.4409    5.5275  -16.3374 N   0  0  0  0  0  0  0  0  0  0  0  0
   -5.7870    5.4403  -15.2209 C   0  0  0  0  0  0  0  0  0  0  0  0
   -6.3643    5.4540  -14.0067 N   0  0  0  0  0  0  0  0  0  0  0  0
   -7.8396    5.6621  -13.6004 C   0  0  0  0  0  0  0  0  0  0  0  0
   -8.7714    5.9303  -14.2477 O   0  0  0  0  0  0  0  0  0  0  0  0
   -7.9485    5.3662  -12.1599 C   0  0  0  0  0  0  0  0  0  0  0  0
   -8.2593    4.0980  -11.8294 C   0  0  0  0  0  0  0  0  0  0  0  0
   -8.3788    3.7600  -10.4552 C   0  0  0  0  0  0  0  0  0  0  0  0
   -8.6496    2.6160   -9.8787 N   0  0  0  0  0  0  0  0  0  0  0  0
   -8.5964    2.8564   -8.5297 C   0  0  0  0  0  0  0  0  0  0  0  0
   -8.3222    4.1806   -8.2854 C   0  0  0  0  0  0  0  0  0  0  0  0
   -8.1760    4.9866   -6.5737 Br  0  0  0  0  0  0  0  0  0  0  0  0
   -8.1771    4.7699   -9.5157 N   0  0  0  0  0  0  0  0  0  0  0  0
   -7.8710    6.0854   -9.8649 C   0  0  0  0  0  0  0  0  0  0  0  0
   -7.7537    6.3940  -11.1635 C   0  0  0  0  0  0  0  0  0  0  0  0
   -7.4324    7.6426  -11.5516 F   0  0  0  0  0  0  0  0  0  0  0  0
   -4.1209    5.1929  -15.3425 S   0  0  0  0  0  0  0  0  0  0  0  0
   -4.3000    5.1160  -17.0481 C   0  0  0  0  0  0  0  0  0  0  0  0
   -2.8104    4.8877  -18.2111 Br  0  0  0  0  0  0  0  0  0  0  0  0
  1  2  1  0
  2  3  1  0
  3  4  1  0
  4  5  2  0
  4  6  1  0
  6  7  1  0
  7  8  2  0
  8  9  1  0
  9 10  1  0
 10 11  2  0
 10 12  1  0
 12 13  2  0
 13 14  1  0
 14 15  2  0
 15 16  1  0
 16 17  2  0
 17 18  1  0
 17 19  1  0
 19 20  1  0
 20 21  2  0
 21 22  1  0
  8 23  1  0
 23 24  1  0
 24 25  1  0
 24  6  2  0
 21 12  1  0
 19 14  1  0
M  END
>  <energy_score>  (3243) 
-52.567388

>  <alias>  (3243) 
GJTIMWBHYAGVBN-UHFFFAOYSA-N-P29-P29-P84-601526

>  <HIPPO Pose ID>  (3243) 
76980

>  <smiles>  (3243) 
CCOC(=O)c1nc(NC(=O)c2cc3ncc(Br)n3cc2F)sc1Br

>  <inchikey>  (3243) 
GJTIMWBHYAGVBN-UHFFFAOYSA-N

>  <distance_score>  (3243) 
0.862678

>  <ref_mols>  (3243) 
Z1495a,Z0673a

>  <ref_pdb>  (3243) 
Z3093a

>  <HIPPO Compound ID>  (3243) 
141863

>  <name>  (3243) 
GJTIMWBHYAGVBN-UHFFFAOYSA-N-P29-P29-P84-601526

>  <inspiration_score>  (3243) 
None

$$$$
MRBQGPVAMBEZQJ-UHFFFAOYSA-N-P29-P29-P84-601526
     RDKit          3D

 26 28  0  0  0  0  0  0  0  0999 V2000
   -9.2995    4.1217  -18.5074 C   0  0  0  0  0  0  0  0  0  0  0  0
   -7.9561    4.4997  -17.9343 C   0  0  0  0  0  0  0  0  0  0  0  0
   -6.9342    4.5046  -18.9532 O   0  0  0  0  0  0  0  0  0  0  0  0
   -5.6342    4.8840  -18.6932 C   0  0  0  0  0  0  0  0  0  0  0  0
   -4.8089    4.9430  -19.6006 O   0  0  0  0  0  0  0  0  0  0  0  0
   -5.2290    5.1681  -17.3039 C   0  0  0  0  0  0  0  0  0  0  0  0
   -3.9383    5.4727  -16.8918 C   0  0  0  0  0  0  0  0  0  0  0  0
   -3.8810    5.6609  -15.1706 S   0  0  0  0  0  0  0  0  0  0  0  0
   -5.5303    5.2174  -15.1042 C   0  0  0  0  0  0  0  0  0  0  0  0
   -6.2270    5.1959  -13.8769 N   0  0  0  0  0  0  0  0  0  0  0  0
   -5.9886    3.6427  -14.0803 C   0  0  0  0  0  0  0  0  0  0  0  0
   -7.6780    5.4920  -13.5621 C   0  0  0  0  0  0  0  0  0  0  0  0
   -8.5796    5.7318  -14.2794 O   0  0  0  0  0  0  0  0  0  0  0  0
   -7.8709    5.3326  -12.1079 C   0  0  0  0  0  0  0  0  0  0  0  0
   -8.3413    4.1156  -11.7680 C   0  0  0  0  0  0  0  0  0  0  0  0
   -8.4714    3.7859  -10.4020 C   0  0  0  0  0  0  0  0  0  0  0  0
   -8.8291    2.6675   -9.8253 N   0  0  0  0  0  0  0  0  0  0  0  0
   -8.7849    2.9213   -8.4748 C   0  0  0  0  0  0  0  0  0  0  0  0
   -9.1710    1.9333   -7.4895 C   0  0  0  0  0  0  0  0  0  0  0  0
   -9.4234    2.2066   -6.3184 O   0  0  0  0  0  0  0  0  0  0  0  0
   -8.3792    4.2225   -8.2405 C   0  0  0  0  0  0  0  0  0  0  0  0
   -8.1671    4.7710   -9.4753 N   0  0  0  0  0  0  0  0  0  0  0  0
   -7.7320    6.0483   -9.8224 C   0  0  0  0  0  0  0  0  0  0  0  0
   -7.5682    6.3595  -11.1226 C   0  0  0  0  0  0  0  0  0  0  0  0
   -6.9907    8.0463  -11.6612 Br  0  0  0  0  0  0  0  0  0  0  0  0
   -6.1257    5.1435  -16.2598 N   0  0  0  0  0  0  0  0  0  0  0  0
  1  2  1  0
  2  3  1  0
  3  4  1  0
  4  5  2  0
  4  6  1  0
  6  7  2  0
  7  8  1  0
  8  9  1  0
  9 10  1  0
 10 11  1  0
 10 12  1  0
 12 13  2  0
 12 14  1  0
 14 15  2  0
 15 16  1  0
 16 17  2  0
 17 18  1  0
 18 19  1  0
 19 20  2  0
 18 21  2  0
 21 22  1  0
 22 23  1  0
 23 24  2  0
 24 25  1  0
  9 26  2  0
 26  6  1  0
 24 14  1  0
 22 16  1  0
M  END
>  <energy_score>  (3244) 
-188.199729

>  <alias>  (3244) 
MRBQGPVAMBEZQJ-UHFFFAOYSA-N-P29-P29-P84-601526

>  <HIPPO Pose ID>  (3244) 
76982

>  <smiles>  (3244) 
CCOC(=O)c1csc(N(C)C(=O)c2cc3nc(C=O)cn3cc2Br)n1

>  <inchikey>  (3244) 
MRBQGPVAMBEZQJ-UHFFFAOYSA-N

>  <distance_score>  (3244) 
1.001087

>  <ref_mols>  (3244) 
Z1495a,Z0673a

>  <ref_pdb>  (3244) 
Z3093a

>  <HIPPO Compound ID>  (3244) 
141864

>  <name>  (3244) 
MRBQGPVAMBEZQJ-UHFFFAOYSA-N-P29-P29-P84-601526

>  <inspiration_score>  (3244) 
None

$$$$
XBLIUXJNNVAESD-UHFFFAOYSA-N-P84-P29-P84-601526
     RDKit          3D

 26 28  0  0  0  0  0  0  0  0999 V2000
   -9.1239    4.1505  -18.1565 C   0  0  0  0  0  0  0  0  0  0  0  0
   -7.8644    4.7754  -17.6062 C   0  0  0  0  0  0  0  0  0  0  0  0
   -7.2763    5.6533  -18.5927 O   0  0  0  0  0  0  0  0  0  0  0  0
   -5.9819    6.0889  -18.4656 C   0  0  0  0  0  0  0  0  0  0  0  0
   -5.3669    6.6097  -19.3908 O   0  0  0  0  0  0  0  0  0  0  0  0
   -5.3926    5.9379  -17.1414 C   0  0  0  0  0  0  0  0  0  0  0  0
   -6.1295    6.2941  -16.0232 N   0  0  0  0  0  0  0  0  0  0  0  0
   -5.5541    5.8248  -14.9572 C   0  0  0  0  0  0  0  0  0  0  0  0
   -6.1579    5.7010  -13.7631 N   0  0  0  0  0  0  0  0  0  0  0  0
   -7.5810    6.1102  -13.3091 C   0  0  0  0  0  0  0  0  0  0  0  0
   -8.4198    6.6864  -13.8788 O   0  0  0  0  0  0  0  0  0  0  0  0
   -7.7994    5.5334  -11.9580 C   0  0  0  0  0  0  0  0  0  0  0  0
   -7.7182    4.1897  -11.9255 C   0  0  0  0  0  0  0  0  0  0  0  0
   -7.8342    3.5266  -10.6890 C   0  0  0  0  0  0  0  0  0  0  0  0
   -7.5199    2.3031  -10.3821 N   0  0  0  0  0  0  0  0  0  0  0  0
   -7.8693    2.1598   -9.0732 C   0  0  0  0  0  0  0  0  0  0  0  0
   -8.3470    3.3364   -8.5463 C   0  0  0  0  0  0  0  0  0  0  0  0
   -8.8210    3.5338   -7.2135 C   0  0  0  0  0  0  0  0  0  0  0  0
   -9.1609    4.6215   -6.7504 O   0  0  0  0  0  0  0  0  0  0  0  0
   -8.2282    4.2508   -9.5753 N   0  0  0  0  0  0  0  0  0  0  0  0
   -8.3717    5.6418   -9.6172 C   0  0  0  0  0  0  0  0  0  0  0  0
   -8.1501    6.3070  -10.7708 C   0  0  0  0  0  0  0  0  0  0  0  0
   -8.2676    8.1657  -10.8485 Br  0  0  0  0  0  0  0  0  0  0  0  0
   -4.0075    5.1573  -15.1528 S   0  0  0  0  0  0  0  0  0  0  0  0
   -4.1571    5.4058  -16.8398 C   0  0  0  0  0  0  0  0  0  0  0  0
   -2.8410    4.8518  -18.0991 Br  0  0  0  0  0  0  0  0  0  0  0  0
  1  2  1  0
  2  3  1  0
  3  4  1  0
  4  5  2  0
  4  6  1  0
  6  7  1  0
  7  8  2  0
  8  9  1  0
  9 10  1  0
 10 11  2  0
 10 12  1  0
 12 13  2  0
 13 14  1  0
 14 15  2  0
 15 16  1  0
 16 17  2  0
 17 18  1  0
 18 19  2  0
 17 20  1  0
 20 21  1  0
 21 22  2  0
 22 23  1  0
  8 24  1  0
 24 25  1  0
 25 26  1  0
 25  6  2  0
 22 12  1  0
 20 14  1  0
M  END
>  <energy_score>  (3245) 
-79.779447

>  <alias>  (3245) 
XBLIUXJNNVAESD-UHFFFAOYSA-N-P84-P29-P84-601526

>  <HIPPO Pose ID>  (3245) 
76987

>  <smiles>  (3245) 
CCOC(=O)c1nc(NC(=O)c2cc3ncc(C=O)n3cc2Br)sc1Br

>  <inchikey>  (3245) 
XBLIUXJNNVAESD-UHFFFAOYSA-N

>  <distance_score>  (3245) 
1.343008

>  <ref_mols>  (3245) 
Z1495a,Z0673a

>  <ref_pdb>  (3245) 
Z3093a

>  <HIPPO Compound ID>  (3245) 
141866

>  <name>  (3245) 
XBLIUXJNNVAESD-UHFFFAOYSA-N-P84-P29-P84-601526

>  <inspiration_score>  (3245) 
None

$$$$
RMSYTVGRYQMSSH-UHFFFAOYSA-N-P29-P29-P84-601526
     RDKit          3D

 26 28  0  0  0  0  0  0  0  0999 V2000
   -9.8104    3.7960  -18.0800 C   0  0  0  0  0  0  0  0  0  0  0  0
   -8.5133    4.3111  -17.5244 C   0  0  0  0  0  0  0  0  0  0  0  0
   -7.5579    4.3809  -18.5943 O   0  0  0  0  0  0  0  0  0  0  0  0
   -6.2802    4.8393  -18.4252 C   0  0  0  0  0  0  0  0  0  0  0  0
   -5.4369    4.6458  -19.2955 O   0  0  0  0  0  0  0  0  0  0  0  0
   -5.9342    5.5709  -17.1968 C   0  0  0  0  0  0  0  0  0  0  0  0
   -6.8860    6.0233  -16.2864 N   0  0  0  0  0  0  0  0  0  0  0  0
   -6.2949    6.3959  -15.1869 C   0  0  0  0  0  0  0  0  0  0  0  0
   -6.8569    6.2571  -13.9727 N   0  0  0  0  0  0  0  0  0  0  0  0
   -6.2790    6.5107  -12.5679 C   0  0  0  0  0  0  0  0  0  0  0  0
   -5.2516    6.9531  -12.2424 O   0  0  0  0  0  0  0  0  0  0  0  0
   -7.2463    5.9787  -11.5731 C   0  0  0  0  0  0  0  0  0  0  0  0
   -7.5119    4.6536  -11.6454 C   0  0  0  0  0  0  0  0  0  0  0  0
   -8.1019    4.0071  -10.5292 C   0  0  0  0  0  0  0  0  0  0  0  0
   -8.4398    2.7565  -10.3464 N   0  0  0  0  0  0  0  0  0  0  0  0
   -8.7734    2.6621   -9.0187 C   0  0  0  0  0  0  0  0  0  0  0  0
   -8.6843    3.8884   -8.4000 C   0  0  0  0  0  0  0  0  0  0  0  0
   -8.2947    4.7605   -9.3791 N   0  0  0  0  0  0  0  0  0  0  0  0
   -8.0858    6.1340   -9.3214 C   0  0  0  0  0  0  0  0  0  0  0  0
   -7.6007    6.7541  -10.4051 C   0  0  0  0  0  0  0  0  0  0  0  0
   -7.3906    8.0843  -10.4006 F   0  0  0  0  0  0  0  0  0  0  0  0
   -4.6468    6.7296  -15.3191 S   0  0  0  0  0  0  0  0  0  0  0  0
   -4.6457    5.7817  -16.7376 C   0  0  0  0  0  0  0  0  0  0  0  0
   -3.4032    5.1823  -17.0853 C   0  0  0  0  0  0  0  0  0  0  0  0
   -2.7848    5.5002  -18.4189 C   0  0  0  0  0  0  0  0  0  0  0  0
   -2.8530    4.4299  -16.2852 O   0  0  0  0  0  0  0  0  0  0  0  0
  1  2  1  0
  2  3  1  0
  3  4  1  0
  4  5  2  0
  4  6  1  0
  6  7  1  0
  7  8  2  0
  8  9  1  0
  9 10  1  0
 10 11  2  0
 10 12  1  0
 12 13  2  0
 13 14  1  0
 14 15  2  0
 15 16  1  0
 16 17  2  0
 17 18  1  0
 18 19  1  0
 19 20  2  0
 20 21  1  0
  8 22  1  0
 22 23  1  0
 23 24  1  0
 24 25  1  0
 24 26  2  0
 23  6  2  0
 20 12  1  0
 18 14  1  0
M  END
>  <energy_score>  (3246) 
-75.38343

>  <alias>  (3246) 
RMSYTVGRYQMSSH-UHFFFAOYSA-N-P29-P29-P84-601526

>  <HIPPO Pose ID>  (3246) 
76990

>  <smiles>  (3246) 
CCOC(=O)c1nc(NC(=O)c2cc3nccn3cc2F)sc1C(C)=O

>  <inchikey>  (3246) 
RMSYTVGRYQMSSH-UHFFFAOYSA-N

>  <distance_score>  (3246) 
1.825351

>  <ref_mols>  (3246) 
Z1495a,Z0673a

>  <ref_pdb>  (3246) 
Z3093a

>  <HIPPO Compound ID>  (3246) 
141868

>  <name>  (3246) 
RMSYTVGRYQMSSH-UHFFFAOYSA-N-P29-P29-P84-601526

>  <inspiration_score>  (3246) 
None

$$$$
TXKCQXXYHFSUFV-UHFFFAOYSA-N-P84-P29-P84-601526
     RDKit          3D

 26 28  0  0  0  0  0  0  0  0999 V2000
   -3.4373    3.6021  -15.1857 C   0  0  0  0  0  0  0  0  0  0  0  0
   -4.5557    4.1039  -14.6539 C   0  0  0  0  0  0  0  0  0  0  0  0
   -4.8904    5.5608  -14.7181 C   0  0  0  0  0  0  0  0  0  0  0  0
   -6.4447    5.8245  -14.7794 N   0  0  0  0  0  0  0  0  0  0  0  0
   -6.7843    6.9311  -13.9672 C   0  0  0  0  0  0  0  0  0  0  0  0
   -6.8618    8.1015  -14.2307 O   0  0  0  0  0  0  0  0  0  0  0  0
   -7.1878    6.4195  -12.5866 C   0  0  0  0  0  0  0  0  0  0  0  0
   -7.2302    7.3447  -11.4528 C   0  0  0  0  0  0  0  0  0  0  0  0
   -7.5654    6.9002  -10.2225 C   0  0  0  0  0  0  0  0  0  0  0  0
   -7.6187    8.0661   -8.7625 Br  0  0  0  0  0  0  0  0  0  0  0  0
   -7.8697    5.5386  -10.0568 N   0  0  0  0  0  0  0  0  0  0  0  0
   -8.1906    4.8015   -8.9381 C   0  0  0  0  0  0  0  0  0  0  0  0
   -8.3589    3.5065   -9.3738 C   0  0  0  0  0  0  0  0  0  0  0  0
   -8.1576    3.4202  -10.7238 N   0  0  0  0  0  0  0  0  0  0  0  0
   -7.8724    4.6387  -11.1164 C   0  0  0  0  0  0  0  0  0  0  0  0
   -7.5504    5.1273  -12.4094 C   0  0  0  0  0  0  0  0  0  0  0  0
   -6.1913    5.7368  -16.1889 C   0  0  0  0  0  0  0  0  0  0  0  0
   -6.6461    4.6799  -16.8201 N   0  0  0  0  0  0  0  0  0  0  0  0
   -6.8874    4.9412  -18.1611 C   0  0  0  0  0  0  0  0  0  0  0  0
   -7.6535    4.0046  -18.9929 C   0  0  0  0  0  0  0  0  0  0  0  0
   -7.2697    3.6132  -20.0852 O   0  0  0  0  0  0  0  0  0  0  0  0
   -8.8018    3.4813  -18.4586 O   0  0  0  0  0  0  0  0  0  0  0  0
   -9.6690    4.3322  -17.7133 C   0  0  0  0  0  0  0  0  0  0  0  0
   -9.3909    4.2003  -16.2360 C   0  0  0  0  0  0  0  0  0  0  0  0
   -6.3373    6.1348  -18.5870 C   0  0  0  0  0  0  0  0  0  0  0  0
   -5.8707    7.0759  -17.2173 S   0  0  0  0  0  0  0  0  0  0  0  0
  1  2  2  0
  2  3  1  0
  3  4  1  0
  4  5  1  0
  5  6  2  0
  5  7  1  0
  7  8  1  0
  8  9  2  0
  9 10  1  0
  9 11  1  0
 11 12  1  0
 12 13  2  0
 13 14  1  0
 14 15  2  0
 15 16  1  0
  4 17  1  0
 17 18  2  0
 18 19  1  0
 19 20  1  0
 20 21  2  0
 20 22  1  0
 22 23  1  0
 23 24  1  0
 19 25  2  0
 25 26  1  0
 16  7  2  0
 26 17  1  0
 15 11  1  0
M  END
>  <energy_score>  (3247) 
-17.761565

>  <alias>  (3247) 
TXKCQXXYHFSUFV-UHFFFAOYSA-N-P84-P29-P84-601526

>  <HIPPO Pose ID>  (3247) 
76997

>  <smiles>  (3247) 
C=CCN(C(=O)c1cc(Br)n2ccnc2c1)c1nc(C(=O)OCC)cs1

>  <inchikey>  (3247) 
TXKCQXXYHFSUFV-UHFFFAOYSA-N

>  <distance_score>  (3247) 
1.783919

>  <ref_mols>  (3247) 
Z1495a,Z0673a

>  <ref_pdb>  (3247) 
Z3093a

>  <HIPPO Compound ID>  (3247) 
141871

>  <name>  (3247) 
TXKCQXXYHFSUFV-UHFFFAOYSA-N-P84-P29-P84-601526

>  <inspiration_score>  (3247) 
None

$$$$
JRYGQCXTOUQVLA-UHFFFAOYSA-N-P84-P29-P84-601526
     RDKit          3D

 26 28  0  0  0  0  0  0  0  0999 V2000
   -9.1472    4.1290  -18.1956 C   0  0  0  0  0  0  0  0  0  0  0  0
   -7.8657    4.7196  -17.6611 C   0  0  0  0  0  0  0  0  0  0  0  0
   -7.1660    5.4355  -18.7040 O   0  0  0  0  0  0  0  0  0  0  0  0
   -5.8506    5.8020  -18.5655 C   0  0  0  0  0  0  0  0  0  0  0  0
   -5.1816    6.2218  -19.5048 O   0  0  0  0  0  0  0  0  0  0  0  0
   -5.2906    5.6839  -17.2237 C   0  0  0  0  0  0  0  0  0  0  0  0
   -6.0539    6.0427  -16.1289 N   0  0  0  0  0  0  0  0  0  0  0  0
   -5.4979    5.6023  -15.0418 C   0  0  0  0  0  0  0  0  0  0  0  0
   -6.1312    5.5561  -13.8586 N   0  0  0  0  0  0  0  0  0  0  0  0
   -7.5931    5.8851  -13.4917 C   0  0  0  0  0  0  0  0  0  0  0  0
   -8.4558    6.3207  -14.1428 O   0  0  0  0  0  0  0  0  0  0  0  0
   -7.7954    5.5210  -12.0749 C   0  0  0  0  0  0  0  0  0  0  0  0
   -8.0664    4.2197  -11.8465 C   0  0  0  0  0  0  0  0  0  0  0  0
   -8.3041    3.7969  -10.5149 C   0  0  0  0  0  0  0  0  0  0  0  0
   -8.5777    2.6143  -10.0253 N   0  0  0  0  0  0  0  0  0  0  0  0
   -8.7543    2.8032   -8.6723 C   0  0  0  0  0  0  0  0  0  0  0  0
   -9.1526    1.7387   -7.7756 C   0  0  0  0  0  0  0  0  0  0  0  0
   -9.4784    1.9222   -6.6052 O   0  0  0  0  0  0  0  0  0  0  0  0
   -8.5364    4.1257   -8.3390 C   0  0  0  0  0  0  0  0  0  0  0  0
   -8.2657    4.7612   -9.5173 N   0  0  0  0  0  0  0  0  0  0  0  0
   -7.9974    6.1046   -9.7521 C   0  0  0  0  0  0  0  0  0  0  0  0
   -7.7585    6.5172  -11.0094 C   0  0  0  0  0  0  0  0  0  0  0  0
   -7.3709    8.3019  -11.3842 Br  0  0  0  0  0  0  0  0  0  0  0  0
   -3.9345    4.9730  -15.1854 S   0  0  0  0  0  0  0  0  0  0  0  0
   -4.0429    5.2094  -16.8801 C   0  0  0  0  0  0  0  0  0  0  0  0
   -2.6620    4.7314  -18.0980 Br  0  0  0  0  0  0  0  0  0  0  0  0
  1  2  1  0
  2  3  1  0
  3  4  1  0
  4  5  2  0
  4  6  1  0
  6  7  1  0
  7  8  2  0
  8  9  1  0
  9 10  1  0
 10 11  2  0
 10 12  1  0
 12 13  2  0
 13 14  1  0
 14 15  2  0
 15 16  1  0
 16 17  1  0
 17 18  2  0
 16 19  2  0
 19 20  1  0
 20 21  1  0
 21 22  2  0
 22 23  1  0
  8 24  1  0
 24 25  1  0
 25 26  1  0
 25  6  2  0
 22 12  1  0
 20 14  1  0
M  END
>  <energy_score>  (3248) 
-277.402189

>  <alias>  (3248) 
JRYGQCXTOUQVLA-UHFFFAOYSA-N-P84-P29-P84-601526

>  <HIPPO Pose ID>  (3248) 
77001

>  <smiles>  (3248) 
CCOC(=O)c1nc(NC(=O)c2cc3nc(C=O)cn3cc2Br)sc1Br

>  <inchikey>  (3248) 
JRYGQCXTOUQVLA-UHFFFAOYSA-N

>  <distance_score>  (3248) 
1.053557

>  <ref_mols>  (3248) 
Z1495a,Z0673a

>  <ref_pdb>  (3248) 
Z3093a

>  <HIPPO Compound ID>  (3248) 
141873

>  <name>  (3248) 
JRYGQCXTOUQVLA-UHFFFAOYSA-N-P84-P29-P84-601526

>  <inspiration_score>  (3248) 
None

$$$$
JMVWRVNPHBVWBG-UHFFFAOYSA-N-P84-P29-P84-601526
     RDKit          3D

 26 28  0  0  0  0  0  0  0  0999 V2000
   -9.1212    4.1468  -18.1578 C   0  0  0  0  0  0  0  0  0  0  0  0
   -7.8690    4.7968  -17.6197 C   0  0  0  0  0  0  0  0  0  0  0  0
   -7.3634    5.7549  -18.5766 O   0  0  0  0  0  0  0  0  0  0  0  0
   -6.1168    6.3078  -18.4358 C   0  0  0  0  0  0  0  0  0  0  0  0
   -5.5807    6.9618  -19.3248 O   0  0  0  0  0  0  0  0  0  0  0  0
   -5.4944    6.1231  -17.1314 C   0  0  0  0  0  0  0  0  0  0  0  0
   -6.2212    6.4439  -15.9966 N   0  0  0  0  0  0  0  0  0  0  0  0
   -5.6363    5.9434  -14.9511 C   0  0  0  0  0  0  0  0  0  0  0  0
   -6.2294    5.7854  -13.7562 N   0  0  0  0  0  0  0  0  0  0  0  0
   -7.6794    6.0904  -13.3056 C   0  0  0  0  0  0  0  0  0  0  0  0
   -8.5590    6.5967  -13.8804 O   0  0  0  0  0  0  0  0  0  0  0  0
   -7.8544    5.5123  -11.9520 C   0  0  0  0  0  0  0  0  0  0  0  0
   -7.7381    4.1712  -11.9246 C   0  0  0  0  0  0  0  0  0  0  0  0
   -7.8147    3.5053  -10.6870 C   0  0  0  0  0  0  0  0  0  0  0  0
   -7.4546    2.2932  -10.3817 N   0  0  0  0  0  0  0  0  0  0  0  0
   -7.8051    2.1367   -9.0751 C   0  0  0  0  0  0  0  0  0  0  0  0
   -8.3139    3.2984   -8.5441 C   0  0  0  0  0  0  0  0  0  0  0  0
   -8.7957    3.4764   -7.2123 C   0  0  0  0  0  0  0  0  0  0  0  0
   -9.1656    4.5494   -6.7393 O   0  0  0  0  0  0  0  0  0  0  0  0
   -8.2183    4.2188   -9.5692 N   0  0  0  0  0  0  0  0  0  0  0  0
   -8.3889    5.6067   -9.6043 C   0  0  0  0  0  0  0  0  0  0  0  0
   -8.1957    6.2786  -10.7589 C   0  0  0  0  0  0  0  0  0  0  0  0
   -8.3475    8.1344  -10.8349 Br  0  0  0  0  0  0  0  0  0  0  0  0
   -4.0941    5.2784  -15.1801 S   0  0  0  0  0  0  0  0  0  0  0  0
   -4.2533    5.5860  -16.8586 C   0  0  0  0  0  0  0  0  0  0  0  0
   -2.8098    5.0348  -18.2466 I   0  0  0  0  0  0  0  0  0  0  0  0
  1  2  1  0
  2  3  1  0
  3  4  1  0
  4  5  2  0
  4  6  1  0
  6  7  1  0
  7  8  2  0
  8  9  1  0
  9 10  1  0
 10 11  2  0
 10 12  1  0
 12 13  2  0
 13 14  1  0
 14 15  2  0
 15 16  1  0
 16 17  2  0
 17 18  1  0
 18 19  2  0
 17 20  1  0
 20 21  1  0
 21 22  2  0
 22 23  1  0
  8 24  1  0
 24 25  1  0
 25 26  1  0
 25  6  2  0
 22 12  1  0
 20 14  1  0
M  END
>  <energy_score>  (3249) 
-70.684801

>  <alias>  (3249) 
JMVWRVNPHBVWBG-UHFFFAOYSA-N-P84-P29-P84-601526

>  <HIPPO Pose ID>  (3249) 
77005

>  <smiles>  (3249) 
CCOC(=O)c1nc(NC(=O)c2cc3ncc(C=O)n3cc2Br)sc1I

>  <inchikey>  (3249) 
JMVWRVNPHBVWBG-UHFFFAOYSA-N

>  <distance_score>  (3249) 
1.358612

>  <ref_mols>  (3249) 
Z1495a,Z0673a

>  <ref_pdb>  (3249) 
Z3093a

>  <HIPPO Compound ID>  (3249) 
141875

>  <name>  (3249) 
JMVWRVNPHBVWBG-UHFFFAOYSA-N-P84-P29-P84-601526

>  <inspiration_score>  (3249) 
None

$$$$
NBMVIWGQXWVSLH-UHFFFAOYSA-N-P84-P29-P84-601526
     RDKit          3D

 26 28  0  0  0  0  0  0  0  0999 V2000
   -4.5765    8.4909  -15.1822 C   0  0  0  0  0  0  0  0  0  0  0  0
   -5.5039    7.9865  -14.3548 C   0  0  0  0  0  0  0  0  0  0  0  0
   -5.2820    6.7550  -13.4959 C   0  0  0  0  0  0  0  0  0  0  0  0
   -6.3492    5.5531  -13.5982 N   0  0  0  0  0  0  0  0  0  0  0  0
   -7.6179    5.9807  -13.1152 C   0  0  0  0  0  0  0  0  0  0  0  0
   -8.5498    6.4783  -13.6913 O   0  0  0  0  0  0  0  0  0  0  0  0
   -7.7562    5.6277  -11.6733 C   0  0  0  0  0  0  0  0  0  0  0  0
   -8.0732    6.6459  -10.6798 C   0  0  0  0  0  0  0  0  0  0  0  0
   -8.2686    6.2661   -9.4047 C   0  0  0  0  0  0  0  0  0  0  0  0
   -8.1752    4.9119   -9.0724 N   0  0  0  0  0  0  0  0  0  0  0  0
   -8.3332    4.2697   -7.8693 C   0  0  0  0  0  0  0  0  0  0  0  0
   -8.7524    5.0246   -6.1791 Br  0  0  0  0  0  0  0  0  0  0  0  0
   -8.1222    2.9354   -8.1230 C   0  0  0  0  0  0  0  0  0  0  0  0
   -7.8200    2.7341   -9.4453 N   0  0  0  0  0  0  0  0  0  0  0  0
   -7.8799    3.9201  -10.0033 C   0  0  0  0  0  0  0  0  0  0  0  0
   -7.6877    4.3188  -11.3520 C   0  0  0  0  0  0  0  0  0  0  0  0
   -5.8358    5.4854  -14.9232 C   0  0  0  0  0  0  0  0  0  0  0  0
   -6.6003    5.6945  -15.9672 N   0  0  0  0  0  0  0  0  0  0  0  0
   -6.0794    5.0620  -17.0853 C   0  0  0  0  0  0  0  0  0  0  0  0
   -6.9060    4.7845  -18.2529 C   0  0  0  0  0  0  0  0  0  0  0  0
   -6.4915    4.1800  -19.2296 O   0  0  0  0  0  0  0  0  0  0  0  0
   -8.1809    5.1975  -18.0536 O   0  0  0  0  0  0  0  0  0  0  0  0
   -9.1889    4.3816  -18.6468 C   0  0  0  0  0  0  0  0  0  0  0  0
  -10.3616    4.3872  -17.6908 C   0  0  0  0  0  0  0  0  0  0  0  0
   -4.7889    4.5952  -16.9222 C   0  0  0  0  0  0  0  0  0  0  0  0
   -4.4167    4.5426  -15.2471 S   0  0  0  0  0  0  0  0  0  0  0  0
  1  2  2  0
  2  3  1  0
  3  4  1  0
  4  5  1  0
  5  6  2  0
  5  7  1  0
  7  8  1  0
  8  9  2  0
  9 10  1  0
 10 11  1  0
 11 12  1  0
 11 13  2  0
 13 14  1  0
 14 15  2  0
 15 16  1  0
  4 17  1  0
 17 18  2  0
 18 19  1  0
 19 20  1  0
 20 21  2  0
 20 22  1  0
 22 23  1  0
 23 24  1  0
 19 25  2  0
 25 26  1  0
 16  7  2  0
 26 17  1  0
 15 10  1  0
M  END
>  <energy_score>  (3250) 
-13.996329

>  <alias>  (3250) 
NBMVIWGQXWVSLH-UHFFFAOYSA-N-P84-P29-P84-601526

>  <HIPPO Pose ID>  (3250) 
77007

>  <smiles>  (3250) 
C=CCN(C(=O)c1ccn2c(Br)cnc2c1)c1nc(C(=O)OCC)cs1

>  <inchikey>  (3250) 
NBMVIWGQXWVSLH-UHFFFAOYSA-N

>  <distance_score>  (3250) 
1.719155

>  <ref_mols>  (3250) 
Z1495a,Z0673a

>  <ref_pdb>  (3250) 
Z3093a

>  <HIPPO Compound ID>  (3250) 
141876

>  <name>  (3250) 
NBMVIWGQXWVSLH-UHFFFAOYSA-N-P84-P29-P84-601526

>  <inspiration_score>  (3250) 
None

$$$$
CNAQHLYJGMHFSP-UHFFFAOYSA-N-P84-P29-P84-601526
     RDKit          3D

 26 28  0  0  0  0  0  0  0  0999 V2000
   -8.8226    4.1851  -18.3943 C   0  0  0  0  0  0  0  0  0  0  0  0
   -7.5708    4.8180  -17.8300 C   0  0  0  0  0  0  0  0  0  0  0  0
   -6.8089    5.4934  -18.8606 O   0  0  0  0  0  0  0  0  0  0  0  0
   -5.5018    5.8772  -18.6753 C   0  0  0  0  0  0  0  0  0  0  0  0
   -4.7925    6.2404  -19.6111 O   0  0  0  0  0  0  0  0  0  0  0  0
   -4.9792    5.8229  -17.3047 C   0  0  0  0  0  0  0  0  0  0  0  0
   -5.8378    5.9970  -16.2375 N   0  0  0  0  0  0  0  0  0  0  0  0
   -5.2726    5.6321  -15.1308 C   0  0  0  0  0  0  0  0  0  0  0  0
   -5.9527    5.4576  -13.9824 N   0  0  0  0  0  0  0  0  0  0  0  0
   -7.4458    5.6900  -13.6550 C   0  0  0  0  0  0  0  0  0  0  0  0
   -8.3333    5.9949  -14.3478 O   0  0  0  0  0  0  0  0  0  0  0  0
   -7.6673    5.3522  -12.2338 C   0  0  0  0  0  0  0  0  0  0  0  0
   -7.9953    4.0784  -11.9424 C   0  0  0  0  0  0  0  0  0  0  0  0
   -8.2389    3.7268  -10.5859 C   0  0  0  0  0  0  0  0  0  0  0  0
   -8.5188    2.5658  -10.0452 N   0  0  0  0  0  0  0  0  0  0  0  0
   -8.6225    2.7930   -8.6963 C   0  0  0  0  0  0  0  0  0  0  0  0
   -8.4109    4.1183   -8.4242 C   0  0  0  0  0  0  0  0  0  0  0  0
   -8.4050    4.9736   -6.9551 Cl  0  0  0  0  0  0  0  0  0  0  0  0
   -8.1626    4.7361   -9.6227 N   0  0  0  0  0  0  0  0  0  0  0  0
   -7.8563    6.0611   -9.9379 C   0  0  0  0  0  0  0  0  0  0  0  0
   -7.6073    6.3776  -11.2157 C   0  0  0  0  0  0  0  0  0  0  0  0
   -7.2798    7.6372  -11.5618 F   0  0  0  0  0  0  0  0  0  0  0  0
   -3.6167    5.3058  -15.2188 S   0  0  0  0  0  0  0  0  0  0  0  0
   -3.6557    5.6384  -16.9178 C   0  0  0  0  0  0  0  0  0  0  0  0
   -2.3906    5.6437  -17.7163 C   0  0  0  0  0  0  0  0  0  0  0  0
   -2.2460    4.4226  -18.6042 C   0  0  0  0  0  0  0  0  0  0  0  0
  1  2  1  0
  2  3  1  0
  3  4  1  0
  4  5  2  0
  4  6  1  0
  6  7  1  0
  7  8  2  0
  8  9  1  0
  9 10  1  0
 10 11  2  0
 10 12  1  0
 12 13  2  0
 13 14  1  0
 14 15  2  0
 15 16  1  0
 16 17  2  0
 17 18  1  0
 17 19  1  0
 19 20  1  0
 20 21  2  0
 21 22  1  0
  8 23  1  0
 23 24  1  0
 24 25  1  0
 25 26  1  0
 24  6  2  0
 21 12  1  0
 19 14  1  0
M  END
>  <energy_score>  (3251) 
-79.931243

>  <alias>  (3251) 
CNAQHLYJGMHFSP-UHFFFAOYSA-N-P84-P29-P84-601526

>  <HIPPO Pose ID>  (3251) 
77010

>  <smiles>  (3251) 
CCOC(=O)c1nc(NC(=O)c2cc3ncc(Cl)n3cc2F)sc1CC

>  <inchikey>  (3251) 
CNAQHLYJGMHFSP-UHFFFAOYSA-N

>  <distance_score>  (3251) 
1.4556

>  <ref_mols>  (3251) 
Z1495a,Z0673a

>  <ref_pdb>  (3251) 
Z3093a

>  <HIPPO Compound ID>  (3251) 
141878

>  <name>  (3251) 
CNAQHLYJGMHFSP-UHFFFAOYSA-N-P84-P29-P84-601526

>  <inspiration_score>  (3251) 
None

$$$$
XZIVGKFHNFUWSP-UHFFFAOYSA-N-P29-P29-P84-601526
     RDKit          3D

 26 29  0  0  0  0  0  0  0  0999 V2000
   -9.6707    3.9117  -18.1851 C   0  0  0  0  0  0  0  0  0  0  0  0
   -8.2840    4.3770  -17.8322 C   0  0  0  0  0  0  0  0  0  0  0  0
   -7.4442    4.3887  -19.0029 O   0  0  0  0  0  0  0  0  0  0  0  0
   -6.1133    4.7423  -18.9544 C   0  0  0  0  0  0  0  0  0  0  0  0
   -5.4305    4.6940  -19.9717 O   0  0  0  0  0  0  0  0  0  0  0  0
   -5.5307    5.0958  -17.6530 C   0  0  0  0  0  0  0  0  0  0  0  0
   -6.3156    5.5423  -16.6060 N   0  0  0  0  0  0  0  0  0  0  0  0
   -5.6663    5.4555  -15.4876 C   0  0  0  0  0  0  0  0  0  0  0  0
   -6.2635    5.5146  -14.2877 N   0  0  0  0  0  0  0  0  0  0  0  0
   -7.7421    5.7388  -13.9162 C   0  0  0  0  0  0  0  0  0  0  0  0
   -8.6607    5.9837  -14.5884 O   0  0  0  0  0  0  0  0  0  0  0  0
   -7.8519    5.6038  -12.4518 C   0  0  0  0  0  0  0  0  0  0  0  0
   -7.6399    6.7611  -11.5982 C   0  0  0  0  0  0  0  0  0  0  0  0
   -7.7601    6.6008  -10.2720 C   0  0  0  0  0  0  0  0  0  0  0  0
   -8.0863    5.3440   -9.7738 N   0  0  0  0  0  0  0  0  0  0  0  0
   -8.2716    4.9634   -8.4789 C   0  0  0  0  0  0  0  0  0  0  0  0
   -8.6509    3.6477   -8.5567 C   0  0  0  0  0  0  0  0  0  0  0  0
   -9.0447    2.8260   -7.3244 C   0  0  0  0  0  0  0  0  0  0  0  0
   -9.7224    1.4974   -7.4586 C   0  0  0  0  0  0  0  0  0  0  0  0
   -8.2801    1.5693   -7.1001 C   0  0  0  0  0  0  0  0  0  0  0  0
   -8.6296    3.1806   -9.8413 N   0  0  0  0  0  0  0  0  0  0  0  0
   -8.3037    4.2222  -10.5684 C   0  0  0  0  0  0  0  0  0  0  0  0
   -8.1714    4.3853  -11.9725 C   0  0  0  0  0  0  0  0  0  0  0  0
   -4.0080    5.1652  -15.5960 S   0  0  0  0  0  0  0  0  0  0  0  0
   -4.1988    5.0222  -17.2947 C   0  0  0  0  0  0  0  0  0  0  0  0
   -2.8237    4.7103  -18.2607 Cl  0  0  0  0  0  0  0  0  0  0  0  0
  1  2  1  0
  2  3  1  0
  3  4  1  0
  4  5  2  0
  4  6  1  0
  6  7  1  0
  7  8  2  0
  8  9  1  0
  9 10  1  0
 10 11  2  0
 10 12  1  0
 12 13  1  0
 13 14  2  0
 14 15  1  0
 15 16  1  0
 16 17  2  0
 17 18  1  0
 18 19  1  0
 19 20  1  0
 17 21  1  0
 21 22  2  0
 22 23  1  0
  8 24  1  0
 24 25  1  0
 25 26  1  0
 25  6  2  0
 23 12  2  0
 22 15  1  0
 20 18  1  0
M  END
>  <energy_score>  (3252) 
-50.579564

>  <alias>  (3252) 
XZIVGKFHNFUWSP-UHFFFAOYSA-N-P29-P29-P84-601526

>  <HIPPO Pose ID>  (3252) 
77014

>  <smiles>  (3252) 
CCOC(=O)c1nc(NC(=O)c2ccn3cc(C4CC4)nc3c2)sc1Cl

>  <inchikey>  (3252) 
XZIVGKFHNFUWSP-UHFFFAOYSA-N

>  <distance_score>  (3252) 
0.963137

>  <ref_mols>  (3252) 
Z1495a,Z0673a

>  <ref_pdb>  (3252) 
Z3093a

>  <HIPPO Compound ID>  (3252) 
141881

>  <name>  (3252) 
XZIVGKFHNFUWSP-UHFFFAOYSA-N-P29-P29-P84-601526

>  <inspiration_score>  (3252) 
None

$$$$
GFENYIPTFGNEEO-UHFFFAOYSA-N-P84-P29-P84-601526
     RDKit          3D

 26 28  0  0  0  0  0  0  0  0999 V2000
   -9.0030    4.1891  -18.2687 C   0  0  0  0  0  0  0  0  0  0  0  0
   -7.7136    4.7895  -17.7581 C   0  0  0  0  0  0  0  0  0  0  0  0
   -7.0179    5.4985  -18.8110 O   0  0  0  0  0  0  0  0  0  0  0  0
   -5.6864    5.8150  -18.7024 C   0  0  0  0  0  0  0  0  0  0  0  0
   -5.0107    6.1887  -19.6574 O   0  0  0  0  0  0  0  0  0  0  0  0
   -5.0975    5.6762  -17.3707 C   0  0  0  0  0  0  0  0  0  0  0  0
   -5.8345    6.0214  -16.2559 N   0  0  0  0  0  0  0  0  0  0  0  0
   -5.2945    5.5067  -15.1949 C   0  0  0  0  0  0  0  0  0  0  0  0
   -5.9558    5.3645  -14.0302 N   0  0  0  0  0  0  0  0  0  0  0  0
   -7.3914    5.7805  -13.6339 C   0  0  0  0  0  0  0  0  0  0  0  0
   -8.2497    6.2410  -14.2758 O   0  0  0  0  0  0  0  0  0  0  0  0
   -7.6176    5.4008  -12.2230 C   0  0  0  0  0  0  0  0  0  0  0  0
   -7.9488    4.1199  -11.9663 C   0  0  0  0  0  0  0  0  0  0  0  0
   -8.2097    3.7366  -10.6219 C   0  0  0  0  0  0  0  0  0  0  0  0
   -8.4935    2.5654  -10.1102 N   0  0  0  0  0  0  0  0  0  0  0  0
   -8.6117    2.7659   -8.7584 C   0  0  0  0  0  0  0  0  0  0  0  0
   -8.4047    4.0879   -8.4463 C   0  0  0  0  0  0  0  0  0  0  0  0
   -8.4490    4.8362   -6.7030 Br  0  0  0  0  0  0  0  0  0  0  0  0
   -8.1489    4.7210   -9.6367 N   0  0  0  0  0  0  0  0  0  0  0  0
   -7.8455    6.0531   -9.9125 C   0  0  0  0  0  0  0  0  0  0  0  0
   -7.5803    6.4022  -11.1788 C   0  0  0  0  0  0  0  0  0  0  0  0
   -7.2537    7.6716  -11.4880 F   0  0  0  0  0  0  0  0  0  0  0  0
   -3.7275    4.8909  -15.3808 S   0  0  0  0  0  0  0  0  0  0  0  0
   -3.8329    5.1832  -17.0808 C   0  0  0  0  0  0  0  0  0  0  0  0
   -2.7216    4.8055  -18.0039 C   0  0  0  0  0  0  0  0  0  0  0  0
   -1.6868    5.9119  -18.1287 C   0  0  0  0  0  0  0  0  0  0  0  0
  1  2  1  0
  2  3  1  0
  3  4  1  0
  4  5  2  0
  4  6  1  0
  6  7  1  0
  7  8  2  0
  8  9  1  0
  9 10  1  0
 10 11  2  0
 10 12  1  0
 12 13  2  0
 13 14  1  0
 14 15  2  0
 15 16  1  0
 16 17  2  0
 17 18  1  0
 17 19  1  0
 19 20  1  0
 20 21  2  0
 21 22  1  0
  8 23  1  0
 23 24  1  0
 24 25  1  0
 25 26  1  0
 24  6  2  0
 21 12  1  0
 19 14  1  0
M  END
>  <energy_score>  (3253) 
-78.458832

>  <alias>  (3253) 
GFENYIPTFGNEEO-UHFFFAOYSA-N-P84-P29-P84-601526

>  <HIPPO Pose ID>  (3253) 
77017

>  <smiles>  (3253) 
CCOC(=O)c1nc(NC(=O)c2cc3ncc(Br)n3cc2F)sc1CC

>  <inchikey>  (3253) 
GFENYIPTFGNEEO-UHFFFAOYSA-N

>  <distance_score>  (3253) 
1.437427

>  <ref_mols>  (3253) 
Z1495a,Z0673a

>  <ref_pdb>  (3253) 
Z3093a

>  <HIPPO Compound ID>  (3253) 
141882

>  <name>  (3253) 
GFENYIPTFGNEEO-UHFFFAOYSA-N-P84-P29-P84-601526

>  <inspiration_score>  (3253) 
None

$$$$
OSBUZNVVWRXCNV-UHFFFAOYSA-N-P84-P29-P84-601526
     RDKit          3D

 26 29  0  0  0  0  0  0  0  0999 V2000
   -9.0219    4.1515  -18.4390 C   0  0  0  0  0  0  0  0  0  0  0  0
   -7.6882    4.5639  -17.8625 C   0  0  0  0  0  0  0  0  0  0  0  0
   -6.6233    4.5559  -18.8441 O   0  0  0  0  0  0  0  0  0  0  0  0
   -5.3174    4.8738  -18.5244 C   0  0  0  0  0  0  0  0  0  0  0  0
   -4.4337    4.9077  -19.3821 O   0  0  0  0  0  0  0  0  0  0  0  0
   -4.9727    5.1193  -17.1129 C   0  0  0  0  0  0  0  0  0  0  0  0
   -3.6945    5.3555  -16.6269 C   0  0  0  0  0  0  0  0  0  0  0  0
   -3.7259    5.5089  -14.9023 S   0  0  0  0  0  0  0  0  0  0  0  0
   -5.3936    5.1226  -14.9346 C   0  0  0  0  0  0  0  0  0  0  0  0
   -6.1630    5.1200  -13.7528 N   0  0  0  0  0  0  0  0  0  0  0  0
   -5.9257    3.5646  -13.9245 C   0  0  0  0  0  0  0  0  0  0  0  0
   -7.6283    5.4305  -13.5301 C   0  0  0  0  0  0  0  0  0  0  0  0
   -8.4819    5.6687  -14.3029 O   0  0  0  0  0  0  0  0  0  0  0  0
   -7.8748    5.3502  -12.0758 C   0  0  0  0  0  0  0  0  0  0  0  0
   -7.5981    6.4993  -11.2308 C   0  0  0  0  0  0  0  0  0  0  0  0
   -7.7042    6.3468   -9.9026 C   0  0  0  0  0  0  0  0  0  0  0  0
   -8.0696    5.1035   -9.3947 N   0  0  0  0  0  0  0  0  0  0  0  0
   -8.1685    4.7092   -8.0942 C   0  0  0  0  0  0  0  0  0  0  0  0
   -8.5368    3.3865   -8.1499 C   0  0  0  0  0  0  0  0  0  0  0  0
   -8.7664    2.5189   -6.8939 C   0  0  0  0  0  0  0  0  0  0  0  0
   -9.4706    3.1614   -5.7154 C   0  0  0  0  0  0  0  0  0  0  0  0
  -10.1531    2.0971   -6.5147 C   0  0  0  0  0  0  0  0  0  0  0  0
   -8.6647    2.9496   -9.4380 N   0  0  0  0  0  0  0  0  0  0  0  0
   -8.3793    3.9978  -10.1788 C   0  0  0  0  0  0  0  0  0  0  0  0
   -8.2956    4.1658  -11.5858 C   0  0  0  0  0  0  0  0  0  0  0  0
   -5.9247    5.1262  -16.1217 N   0  0  0  0  0  0  0  0  0  0  0  0
  1  2  1  0
  2  3  1  0
  3  4  1  0
  4  5  2  0
  4  6  1  0
  6  7  2  0
  7  8  1  0
  8  9  1  0
  9 10  1  0
 10 11  1  0
 10 12  1  0
 12 13  2  0
 12 14  1  0
 14 15  1  0
 15 16  2  0
 16 17  1  0
 17 18  1  0
 18 19  2  0
 19 20  1  0
 20 21  1  0
 21 22  1  0
 19 23  1  0
 23 24  2  0
 24 25  1  0
  9 26  2  0
 26  6  1  0
 25 14  2  0
 24 17  1  0
 22 20  1  0
M  END
>  <energy_score>  (3254) 
-0.090864

>  <alias>  (3254) 
OSBUZNVVWRXCNV-UHFFFAOYSA-N-P84-P29-P84-601526

>  <HIPPO Pose ID>  (3254) 
77018

>  <smiles>  (3254) 
CCOC(=O)c1csc(N(C)C(=O)c2ccn3cc(C4CC4)nc3c2)n1

>  <inchikey>  (3254) 
OSBUZNVVWRXCNV-UHFFFAOYSA-N

>  <distance_score>  (3254) 
1.085646

>  <ref_mols>  (3254) 
Z1495a,Z0673a

>  <ref_pdb>  (3254) 
Z3093a

>  <HIPPO Compound ID>  (3254) 
141883

>  <name>  (3254) 
OSBUZNVVWRXCNV-UHFFFAOYSA-N-P84-P29-P84-601526

>  <inspiration_score>  (3254) 
None

$$$$
BDGMXKVFMNVKBS-UHFFFAOYSA-N-P29-P29-P84-601526
     RDKit          3D

 27 29  0  0  0  0  0  0  0  0999 V2000
   -9.6377    4.2838  -18.4973 C   0  0  0  0  0  0  0  0  0  0  0  0
   -8.3486    4.5352  -17.7613 C   0  0  0  0  0  0  0  0  0  0  0  0
   -7.6027    5.5761  -18.4186 O   0  0  0  0  0  0  0  0  0  0  0  0
   -6.3158    5.9017  -18.0838 C   0  0  0  0  0  0  0  0  0  0  0  0
   -5.7342    6.8051  -18.6775 O   0  0  0  0  0  0  0  0  0  0  0  0
   -5.6794    5.2100  -16.9497 C   0  0  0  0  0  0  0  0  0  0  0  0
   -6.4267    4.5116  -16.0092 N   0  0  0  0  0  0  0  0  0  0  0  0
   -5.6958    4.2765  -14.9611 C   0  0  0  0  0  0  0  0  0  0  0  0
   -6.2173    4.1912  -13.7280 N   0  0  0  0  0  0  0  0  0  0  0  0
   -5.5330    4.1726  -12.3560 C   0  0  0  0  0  0  0  0  0  0  0  0
   -4.4047    4.1507  -12.0762 O   0  0  0  0  0  0  0  0  0  0  0  0
   -6.6062    4.2967  -11.3444 C   0  0  0  0  0  0  0  0  0  0  0  0
   -6.8067    5.5859  -10.6931 C   0  0  0  0  0  0  0  0  0  0  0  0
   -7.5527    5.6399   -9.5745 C   0  0  0  0  0  0  0  0  0  0  0  0
   -7.7531    7.2326   -8.6204 Br  0  0  0  0  0  0  0  0  0  0  0  0
   -8.1564    4.4541   -9.1316 N   0  0  0  0  0  0  0  0  0  0  0  0
   -8.7910    4.1521   -7.9525 C   0  0  0  0  0  0  0  0  0  0  0  0
   -9.2294    2.8556   -8.0865 C   0  0  0  0  0  0  0  0  0  0  0  0
   -8.8857    2.3487   -9.3034 N   0  0  0  0  0  0  0  0  0  0  0  0
   -8.1496    3.2720   -9.8699 C   0  0  0  0  0  0  0  0  0  0  0  0
   -7.3124    3.2043  -11.0116 C   0  0  0  0  0  0  0  0  0  0  0  0
   -4.0283    4.3883  -15.1914 S   0  0  0  0  0  0  0  0  0  0  0  0
   -4.3556    5.3613  -16.5597 C   0  0  0  0  0  0  0  0  0  0  0  0
   -3.3692    6.3647  -16.9657 C   0  0  0  0  0  0  0  0  0  0  0  0
   -3.8357    7.5730  -16.5704 F   0  0  0  0  0  0  0  0  0  0  0  0
   -3.1131    6.3973  -18.2896 F   0  0  0  0  0  0  0  0  0  0  0  0
   -2.1756    6.2013  -16.3347 F   0  0  0  0  0  0  0  0  0  0  0  0
  1  2  1  0
  2  3  1  0
  3  4  1  0
  4  5  2  0
  4  6  1  0
  6  7  1  0
  7  8  2  0
  8  9  1  0
  9 10  1  0
 10 11  2  0
 10 12  1  0
 12 13  1  0
 13 14  2  0
 14 15  1  0
 14 16  1  0
 16 17  1  0
 17 18  2  0
 18 19  1  0
 19 20  2  0
 20 21  1  0
  8 22  1  0
 22 23  1  0
 23 24  1  0
 24 25  1  0
 24 26  1  0
 24 27  1  0
 23  6  2  0
 21 12  2  0
 20 16  1  0
M  END
>  <energy_score>  (3255) 
-50.249986

>  <alias>  (3255) 
BDGMXKVFMNVKBS-UHFFFAOYSA-N-P29-P29-P84-601526

>  <HIPPO Pose ID>  (3255) 
77023

>  <smiles>  (3255) 
CCOC(=O)c1nc(NC(=O)c2cc(Br)n3ccnc3c2)sc1C(F)(F)F

>  <inchikey>  (3255) 
BDGMXKVFMNVKBS-UHFFFAOYSA-N

>  <distance_score>  (3255) 
1.983732

>  <ref_mols>  (3255) 
Z1495a,Z0673a

>  <ref_pdb>  (3255) 
Z3093a

>  <HIPPO Compound ID>  (3255) 
141886

>  <name>  (3255) 
BDGMXKVFMNVKBS-UHFFFAOYSA-N-P29-P29-P84-601526

>  <inspiration_score>  (3255) 
None

$$$$
HFPVCDUSEFCRJC-UHFFFAOYSA-N-P84-P29-P84-601526
     RDKit          3D

 27 29  0  0  0  0  0  0  0  0999 V2000
   -9.2543    4.0704  -18.2964 C   0  0  0  0  0  0  0  0  0  0  0  0
   -7.9753    4.5301  -17.6468 C   0  0  0  0  0  0  0  0  0  0  0  0
   -6.9415    4.7619  -18.6275 O   0  0  0  0  0  0  0  0  0  0  0  0
   -5.6480    5.0479  -18.2646 C   0  0  0  0  0  0  0  0  0  0  0  0
   -4.7536    5.1506  -19.1011 O   0  0  0  0  0  0  0  0  0  0  0  0
   -5.3372    5.1547  -16.8311 C   0  0  0  0  0  0  0  0  0  0  0  0
   -6.2984    5.4226  -15.8770 N   0  0  0  0  0  0  0  0  0  0  0  0
   -5.8195    5.1862  -14.6964 C   0  0  0  0  0  0  0  0  0  0  0  0
   -6.5296    5.1005  -13.5715 N   0  0  0  0  0  0  0  0  0  0  0  0
   -7.9811    5.5157  -13.2718 C   0  0  0  0  0  0  0  0  0  0  0  0
   -8.7604    6.0675  -13.9362 O   0  0  0  0  0  0  0  0  0  0  0  0
   -8.2465    4.9608  -11.9338 C   0  0  0  0  0  0  0  0  0  0  0  0
   -8.4138    3.5283  -11.8388 C   0  0  0  0  0  0  0  0  0  0  0  0
   -8.5277    2.9713  -10.6303 C   0  0  0  0  0  0  0  0  0  0  0  0
   -8.4661    3.7604   -9.5015 N   0  0  0  0  0  0  0  0  0  0  0  0
   -8.5305    3.4149   -8.1739 C   0  0  0  0  0  0  0  0  0  0  0  0
   -8.7181    2.0272   -7.6862 C   0  0  0  0  0  0  0  0  0  0  0  0
   -8.3744    4.6058   -7.4990 C   0  0  0  0  0  0  0  0  0  0  0  0
   -8.2241    5.6648   -8.3598 N   0  0  0  0  0  0  0  0  0  0  0  0
   -8.2895    5.1390   -9.5614 C   0  0  0  0  0  0  0  0  0  0  0  0
   -8.1836    5.7436  -10.8467 C   0  0  0  0  0  0  0  0  0  0  0  0
   -4.1792    4.8305  -14.5928 S   0  0  0  0  0  0  0  0  0  0  0  0
   -4.0715    5.0887  -16.2764 C   0  0  0  0  0  0  0  0  0  0  0  0
   -2.7769    5.3037  -16.9074 C   0  0  0  0  0  0  0  0  0  0  0  0
   -2.7876    6.5405  -17.4424 F   0  0  0  0  0  0  0  0  0  0  0  0
   -1.7617    5.2942  -16.0051 F   0  0  0  0  0  0  0  0  0  0  0  0
   -2.4628    4.4071  -17.8683 F   0  0  0  0  0  0  0  0  0  0  0  0
  1  2  1  0
  2  3  1  0
  3  4  1  0
  4  5  2  0
  4  6  1  0
  6  7  1  0
  7  8  2  0
  8  9  1  0
  9 10  1  0
 10 11  2  0
 10 12  1  0
 12 13  1  0
 13 14  2  0
 14 15  1  0
 15 16  1  0
 16 17  1  0
 16 18  2  0
 18 19  1  0
 19 20  2  0
 20 21  1  0
  8 22  1  0
 22 23  1  0
 23 24  1  0
 24 25  1  0
 24 26  1  0
 24 27  1  0
 23  6  2  0
 21 12  2  0
 20 15  1  0
M  END
>  <energy_score>  (3256) 
-68.125806

>  <alias>  (3256) 
HFPVCDUSEFCRJC-UHFFFAOYSA-N-P84-P29-P84-601526

>  <HIPPO Pose ID>  (3256) 
77025

>  <smiles>  (3256) 
CCOC(=O)c1nc(NC(=O)c2ccn3c(C)cnc3c2)sc1C(F)(F)F

>  <inchikey>  (3256) 
HFPVCDUSEFCRJC-UHFFFAOYSA-N

>  <distance_score>  (3256) 
1.773967

>  <ref_mols>  (3256) 
Z1495a,Z0673a

>  <ref_pdb>  (3256) 
Z3093a

>  <HIPPO Compound ID>  (3256) 
141887

>  <name>  (3256) 
HFPVCDUSEFCRJC-UHFFFAOYSA-N-P84-P29-P84-601526

>  <inspiration_score>  (3256) 
None

$$$$
ZOJFWVXHPFLAFA-UHFFFAOYSA-N-P84-P29-P84-601526
     RDKit          3D

 27 29  0  0  0  0  0  0  0  0999 V2000
   -9.0014    3.8976  -17.4784 C   0  0  0  0  0  0  0  0  0  0  0  0
   -8.3238    4.5492  -18.6690 C   0  0  0  0  0  0  0  0  0  0  0  0
   -7.4787    5.5891  -18.1784 O   0  0  0  0  0  0  0  0  0  0  0  0
   -6.1624    5.2950  -18.0305 C   0  0  0  0  0  0  0  0  0  0  0  0
   -5.5076    4.5146  -18.7061 O   0  0  0  0  0  0  0  0  0  0  0  0
   -5.6241    5.9754  -16.8537 C   0  0  0  0  0  0  0  0  0  0  0  0
   -6.4814    6.7081  -16.0369 N   0  0  0  0  0  0  0  0  0  0  0  0
   -5.9681    6.7150  -14.8424 C   0  0  0  0  0  0  0  0  0  0  0  0
   -6.6133    6.4594  -13.6919 N   0  0  0  0  0  0  0  0  0  0  0  0
   -8.1155    6.2676  -13.4087 C   0  0  0  0  0  0  0  0  0  0  0  0
   -9.0363    6.3770  -14.1124 O   0  0  0  0  0  0  0  0  0  0  0  0
   -8.2196    5.7876  -12.0177 C   0  0  0  0  0  0  0  0  0  0  0  0
   -8.3300    4.4505  -11.8760 C   0  0  0  0  0  0  0  0  0  0  0  0
   -8.3585    3.9033  -10.5666 C   0  0  0  0  0  0  0  0  0  0  0  0
   -8.4394    2.6639  -10.1560 N   0  0  0  0  0  0  0  0  0  0  0  0
   -8.4037    2.7222   -8.7879 C   0  0  0  0  0  0  0  0  0  0  0  0
   -8.3039    4.0259   -8.3558 C   0  0  0  0  0  0  0  0  0  0  0  0
   -8.2691    4.7847   -9.4953 N   0  0  0  0  0  0  0  0  0  0  0  0
   -8.1458    6.1642   -9.6443 C   0  0  0  0  0  0  0  0  0  0  0  0
   -8.1184    6.6746  -10.8834 C   0  0  0  0  0  0  0  0  0  0  0  0
   -7.9691    7.9974  -11.0848 F   0  0  0  0  0  0  0  0  0  0  0  0
   -4.2813    6.5865  -14.7816 S   0  0  0  0  0  0  0  0  0  0  0  0
   -4.3726    5.7685  -16.2906 C   0  0  0  0  0  0  0  0  0  0  0  0
   -3.3428    4.7778  -16.6091 C   0  0  0  0  0  0  0  0  0  0  0  0
   -3.7883    3.5712  -16.1958 F   0  0  0  0  0  0  0  0  0  0  0  0
   -3.0062    4.6973  -17.9157 F   0  0  0  0  0  0  0  0  0  0  0  0
   -2.1873    4.9848  -15.9247 F   0  0  0  0  0  0  0  0  0  0  0  0
  1  2  1  0
  2  3  1  0
  3  4  1  0
  4  5  2  0
  4  6  1  0
  6  7  1  0
  7  8  2  0
  8  9  1  0
  9 10  1  0
 10 11  2  0
 10 12  1  0
 12 13  2  0
 13 14  1  0
 14 15  2  0
 15 16  1  0
 16 17  2  0
 17 18  1  0
 18 19  1  0
 19 20  2  0
 20 21  1  0
  8 22  1  0
 22 23  1  0
 23 24  1  0
 24 25  1  0
 24 26  1  0
 24 27  1  0
 23  6  2  0
 20 12  1  0
 18 14  1  0
M  END
>  <energy_score>  (3257) 
-30.397898

>  <alias>  (3257) 
ZOJFWVXHPFLAFA-UHFFFAOYSA-N-P84-P29-P84-601526

>  <HIPPO Pose ID>  (3257) 
77029

>  <smiles>  (3257) 
CCOC(=O)c1nc(NC(=O)c2cc3nccn3cc2F)sc1C(F)(F)F

>  <inchikey>  (3257) 
ZOJFWVXHPFLAFA-UHFFFAOYSA-N

>  <distance_score>  (3257) 
1.657087

>  <ref_mols>  (3257) 
Z1495a,Z0673a

>  <ref_pdb>  (3257) 
Z3093a

>  <HIPPO Compound ID>  (3257) 
141889

>  <name>  (3257) 
ZOJFWVXHPFLAFA-UHFFFAOYSA-N-P84-P29-P84-601526

>  <inspiration_score>  (3257) 
None

$$$$
DQRIAKFQXXXWOW-UHFFFAOYSA-N-P29-P29-P84-601526
     RDKit          3D

 27 29  0  0  0  0  0  0  0  0999 V2000
   -9.1946    4.3257  -17.9458 C   0  0  0  0  0  0  0  0  0  0  0  0
   -7.8858    4.4449  -18.7108 C   0  0  0  0  0  0  0  0  0  0  0  0
   -7.3963    5.8033  -18.7301 O   0  0  0  0  0  0  0  0  0  0  0  0
   -6.1925    6.1342  -18.1783 C   0  0  0  0  0  0  0  0  0  0  0  0
   -5.5119    7.0519  -18.6254 O   0  0  0  0  0  0  0  0  0  0  0  0
   -5.8057    5.4134  -16.9651 C   0  0  0  0  0  0  0  0  0  0  0  0
   -6.7870    4.9135  -16.1281 N   0  0  0  0  0  0  0  0  0  0  0  0
   -6.2549    4.5309  -15.0095 C   0  0  0  0  0  0  0  0  0  0  0  0
   -6.8716    4.4582  -13.8234 N   0  0  0  0  0  0  0  0  0  0  0  0
   -8.3138    4.8227  -13.4217 C   0  0  0  0  0  0  0  0  0  0  0  0
   -9.2145    5.1702  -14.0732 O   0  0  0  0  0  0  0  0  0  0  0  0
   -8.3495    4.7497  -11.9494 C   0  0  0  0  0  0  0  0  0  0  0  0
   -8.0791    5.9487  -11.1667 C   0  0  0  0  0  0  0  0  0  0  0  0
   -8.0436    5.8410   -9.8289 C   0  0  0  0  0  0  0  0  0  0  0  0
   -8.2726    4.5936   -9.2441 N   0  0  0  0  0  0  0  0  0  0  0  0
   -8.2919    4.2158   -7.9263 C   0  0  0  0  0  0  0  0  0  0  0  0
   -8.0127    5.2943   -6.3903 Br  0  0  0  0  0  0  0  0  0  0  0  0
   -8.5599    2.8682   -7.9227 C   0  0  0  0  0  0  0  0  0  0  0  0
   -8.7358    2.4060   -9.1987 N   0  0  0  0  0  0  0  0  0  0  0  0
   -8.5410    3.4408   -9.9789 C   0  0  0  0  0  0  0  0  0  0  0  0
   -8.5620    3.5470  -11.3914 C   0  0  0  0  0  0  0  0  0  0  0  0
   -4.5702    4.3869  -14.9899 S   0  0  0  0  0  0  0  0  0  0  0  0
   -4.5371    5.3466  -16.4120 C   0  0  0  0  0  0  0  0  0  0  0  0
   -3.3360    6.1175  -16.7394 C   0  0  0  0  0  0  0  0  0  0  0  0
   -3.5437    7.3925  -16.3395 F   0  0  0  0  0  0  0  0  0  0  0  0
   -2.2396    5.6908  -16.0583 F   0  0  0  0  0  0  0  0  0  0  0  0
   -3.0110    6.1106  -18.0491 F   0  0  0  0  0  0  0  0  0  0  0  0
  1  2  1  0
  2  3  1  0
  3  4  1  0
  4  5  2  0
  4  6  1  0
  6  7  1  0
  7  8  2  0
  8  9  1  0
  9 10  1  0
 10 11  2  0
 10 12  1  0
 12 13  1  0
 13 14  2  0
 14 15  1  0
 15 16  1  0
 16 17  1  0
 16 18  2  0
 18 19  1  0
 19 20  2  0
 20 21  1  0
  8 22  1  0
 22 23  1  0
 23 24  1  0
 24 25  1  0
 24 26  1  0
 24 27  1  0
 23  6  2  0
 21 12  2  0
 20 15  1  0
M  END
>  <energy_score>  (3258) 
-74.227931

>  <alias>  (3258) 
DQRIAKFQXXXWOW-UHFFFAOYSA-N-P29-P29-P84-601526

>  <HIPPO Pose ID>  (3258) 
77030

>  <smiles>  (3258) 
CCOC(=O)c1nc(NC(=O)c2ccn3c(Br)cnc3c2)sc1C(F)(F)F

>  <inchikey>  (3258) 
DQRIAKFQXXXWOW-UHFFFAOYSA-N

>  <distance_score>  (3258) 
1.557125

>  <ref_mols>  (3258) 
Z1495a,Z0673a

>  <ref_pdb>  (3258) 
Z3093a

>  <HIPPO Compound ID>  (3258) 
141890

>  <name>  (3258) 
DQRIAKFQXXXWOW-UHFFFAOYSA-N-P29-P29-P84-601526

>  <inspiration_score>  (3258) 
None

$$$$
LIVHXKFPPFBXGZ-UHFFFAOYSA-N-P84-P29-P84-601526
     RDKit          3D

 27 29  0  0  0  0  0  0  0  0999 V2000
   -8.9932    3.8879  -17.4938 C   0  0  0  0  0  0  0  0  0  0  0  0
   -8.3938    4.7872  -18.5581 C   0  0  0  0  0  0  0  0  0  0  0  0
   -7.1103    4.3311  -19.0128 O   0  0  0  0  0  0  0  0  0  0  0  0
   -6.0719    5.1950  -18.7789 C   0  0  0  0  0  0  0  0  0  0  0  0
   -5.4998    5.8471  -19.6441 O   0  0  0  0  0  0  0  0  0  0  0  0
   -5.6174    5.2009  -17.3947 C   0  0  0  0  0  0  0  0  0  0  0  0
   -6.5215    5.3677  -16.3599 N   0  0  0  0  0  0  0  0  0  0  0  0
   -5.9230    5.1684  -15.2237 C   0  0  0  0  0  0  0  0  0  0  0  0
   -6.5248    5.1562  -14.0250 N   0  0  0  0  0  0  0  0  0  0  0  0
   -7.9726    5.5010  -13.6295 C   0  0  0  0  0  0  0  0  0  0  0  0
   -8.8498    5.9235  -14.2683 O   0  0  0  0  0  0  0  0  0  0  0  0
   -8.0865    5.2468  -12.1779 C   0  0  0  0  0  0  0  0  0  0  0  0
   -7.9490    6.3406  -11.2282 C   0  0  0  0  0  0  0  0  0  0  0  0
   -8.0424    6.0602   -9.9179 C   0  0  0  0  0  0  0  0  0  0  0  0
   -8.2824    4.7449   -9.5241 N   0  0  0  0  0  0  0  0  0  0  0  0
   -8.4445    4.2330   -8.2672 C   0  0  0  0  0  0  0  0  0  0  0  0
   -8.7473    2.8890   -8.4351 C   0  0  0  0  0  0  0  0  0  0  0  0
   -9.1103    1.8953   -7.3713 C   0  0  0  0  0  0  0  0  0  0  0  0
   -9.9207    0.8942   -7.7953 F   0  0  0  0  0  0  0  0  0  0  0  0
   -9.7847    2.5201   -6.3590 F   0  0  0  0  0  0  0  0  0  0  0  0
   -8.0217    1.3296   -6.7991 F   0  0  0  0  0  0  0  0  0  0  0  0
   -8.7036    2.5731   -9.7831 N   0  0  0  0  0  0  0  0  0  0  0  0
   -8.4292    3.6885  -10.4124 C   0  0  0  0  0  0  0  0  0  0  0  0
   -8.3038    3.9733  -11.7966 C   0  0  0  0  0  0  0  0  0  0  0  0
   -4.2521    4.8982  -15.2658 S   0  0  0  0  0  0  0  0  0  0  0  0
   -4.3107    5.0718  -16.9650 C   0  0  0  0  0  0  0  0  0  0  0  0
   -2.6105    4.9794  -18.1597 I   0  0  0  0  0  0  0  0  0  0  0  0
  1  2  1  0
  2  3  1  0
  3  4  1  0
  4  5  2  0
  4  6  1  0
  6  7  1  0
  7  8  2  0
  8  9  1  0
  9 10  1  0
 10 11  2  0
 10 12  1  0
 12 13  1  0
 13 14  2  0
 14 15  1  0
 15 16  1  0
 16 17  2  0
 17 18  1  0
 18 19  1  0
 18 20  1  0
 18 21  1  0
 17 22  1  0
 22 23  2  0
 23 24  1  0
  8 25  1  0
 25 26  1  0
 26 27  1  0
 26  6  2  0
 24 12  2  0
 23 15  1  0
M  END
>  <energy_score>  (3259) 
-71.056613

>  <alias>  (3259) 
LIVHXKFPPFBXGZ-UHFFFAOYSA-N-P84-P29-P84-601526

>  <HIPPO Pose ID>  (3259) 
77033

>  <smiles>  (3259) 
CCOC(=O)c1nc(NC(=O)c2ccn3cc(C(F)(F)F)nc3c2)sc1I

>  <inchikey>  (3259) 
LIVHXKFPPFBXGZ-UHFFFAOYSA-N

>  <distance_score>  (3259) 
1.060546

>  <ref_mols>  (3259) 
Z1495a,Z0673a

>  <ref_pdb>  (3259) 
Z3093a

>  <HIPPO Compound ID>  (3259) 
141891

>  <name>  (3259) 
LIVHXKFPPFBXGZ-UHFFFAOYSA-N-P84-P29-P84-601526

>  <inspiration_score>  (3259) 
None

$$$$
VHLOPYRIYFFLAH-UHFFFAOYSA-N-P84-P29-P84-601526
     RDKit          3D

 27 29  0  0  0  0  0  0  0  0999 V2000
   -9.5291    3.8761  -18.0340 C   0  0  0  0  0  0  0  0  0  0  0  0
   -8.2461    4.4119  -17.4590 C   0  0  0  0  0  0  0  0  0  0  0  0
   -7.2361    4.4636  -18.4818 O   0  0  0  0  0  0  0  0  0  0  0  0
   -5.9907    4.9813  -18.2494 C   0  0  0  0  0  0  0  0  0  0  0  0
   -5.0732    4.7995  -19.0479 O   0  0  0  0  0  0  0  0  0  0  0  0
   -5.7354    5.7164  -16.9980 C   0  0  0  0  0  0  0  0  0  0  0  0
   -6.7336    6.2361  -16.1821 N   0  0  0  0  0  0  0  0  0  0  0  0
   -6.2409    6.4213  -14.9921 C   0  0  0  0  0  0  0  0  0  0  0  0
   -6.8529    6.2214  -13.8164 N   0  0  0  0  0  0  0  0  0  0  0  0
   -8.3277    5.9296  -13.4955 C   0  0  0  0  0  0  0  0  0  0  0  0
   -9.2583    5.8928  -14.1922 O   0  0  0  0  0  0  0  0  0  0  0  0
   -8.3666    5.5786  -12.0630 C   0  0  0  0  0  0  0  0  0  0  0  0
   -8.3836    4.2573  -11.7952 C   0  0  0  0  0  0  0  0  0  0  0  0
   -8.3460    3.8319  -10.4411 C   0  0  0  0  0  0  0  0  0  0  0  0
   -8.3277    2.6258   -9.9274 N   0  0  0  0  0  0  0  0  0  0  0  0
   -8.3020    2.7987   -8.5670 C   0  0  0  0  0  0  0  0  0  0  0  0
   -8.2863    4.1339   -8.2615 C   0  0  0  0  0  0  0  0  0  0  0  0
   -8.2502    4.9415   -6.7663 Cl  0  0  0  0  0  0  0  0  0  0  0  0
   -8.2983    4.8155   -9.4507 N   0  0  0  0  0  0  0  0  0  0  0  0
   -8.2549    6.1825   -9.7392 C   0  0  0  0  0  0  0  0  0  0  0  0
   -8.2831    6.5725  -11.0206 C   0  0  0  0  0  0  0  0  0  0  0  0
   -8.2154    7.8761  -11.3500 F   0  0  0  0  0  0  0  0  0  0  0  0
   -4.5682    6.5989  -14.8988 S   0  0  0  0  0  0  0  0  0  0  0  0
   -4.4809    5.8585  -16.4330 C   0  0  0  0  0  0  0  0  0  0  0  0
   -3.2250    5.2961  -16.7803 C   0  0  0  0  0  0  0  0  0  0  0  0
   -2.5421    5.7538  -18.0409 C   0  0  0  0  0  0  0  0  0  0  0  0
   -2.6962    4.4819  -16.0283 O   0  0  0  0  0  0  0  0  0  0  0  0
  1  2  1  0
  2  3  1  0
  3  4  1  0
  4  5  2  0
  4  6  1  0
  6  7  1  0
  7  8  2  0
  8  9  1  0
  9 10  1  0
 10 11  2  0
 10 12  1  0
 12 13  2  0
 13 14  1  0
 14 15  2  0
 15 16  1  0
 16 17  2  0
 17 18  1  0
 17 19  1  0
 19 20  1  0
 20 21  2  0
 21 22  1  0
  8 23  1  0
 23 24  1  0
 24 25  1  0
 25 26  1  0
 25 27  2  0
 24  6  2  0
 21 12  1  0
 19 14  1  0
M  END
>  <energy_score>  (3260) 
-38.341639

>  <alias>  (3260) 
VHLOPYRIYFFLAH-UHFFFAOYSA-N-P84-P29-P84-601526

>  <HIPPO Pose ID>  (3260) 
77040

>  <smiles>  (3260) 
CCOC(=O)c1nc(NC(=O)c2cc3ncc(Cl)n3cc2F)sc1C(C)=O

>  <inchikey>  (3260) 
VHLOPYRIYFFLAH-UHFFFAOYSA-N

>  <distance_score>  (3260) 
1.382389

>  <ref_mols>  (3260) 
Z1495a,Z0673a

>  <ref_pdb>  (3260) 
Z3093a

>  <HIPPO Compound ID>  (3260) 
141895

>  <name>  (3260) 
VHLOPYRIYFFLAH-UHFFFAOYSA-N-P84-P29-P84-601526

>  <inspiration_score>  (3260) 
None

$$$$
URWBNBSQXPVUGU-UHFFFAOYSA-N-P84-P29-P84-601526
     RDKit          3D

 27 29  0  0  0  0  0  0  0  0999 V2000
   -9.3071    4.0708  -18.3458 C   0  0  0  0  0  0  0  0  0  0  0  0
   -8.0121    4.4783  -17.6959 C   0  0  0  0  0  0  0  0  0  0  0  0
   -6.9393    4.5772  -18.6573 O   0  0  0  0  0  0  0  0  0  0  0  0
   -5.6462    4.8512  -18.2776 C   0  0  0  0  0  0  0  0  0  0  0  0
   -4.7406    4.9396  -19.1042 O   0  0  0  0  0  0  0  0  0  0  0  0
   -5.3473    4.9736  -16.8413 C   0  0  0  0  0  0  0  0  0  0  0  0
   -6.3301    5.1703  -15.8961 N   0  0  0  0  0  0  0  0  0  0  0  0
   -5.8405    5.0637  -14.7036 C   0  0  0  0  0  0  0  0  0  0  0  0
   -6.5440    5.1370  -13.5736 N   0  0  0  0  0  0  0  0  0  0  0  0
   -8.0150    5.5230  -13.3353 C   0  0  0  0  0  0  0  0  0  0  0  0
   -8.8229    5.9115  -14.0771 O   0  0  0  0  0  0  0  0  0  0  0  0
   -8.2429    5.2982  -11.9013 C   0  0  0  0  0  0  0  0  0  0  0  0
   -8.1184    6.3798  -10.9405 C   0  0  0  0  0  0  0  0  0  0  0  0
   -8.1794    6.0697   -9.6348 C   0  0  0  0  0  0  0  0  0  0  0  0
   -8.3753    4.7388   -9.2652 N   0  0  0  0  0  0  0  0  0  0  0  0
   -8.4883    4.1868   -8.0187 C   0  0  0  0  0  0  0  0  0  0  0  0
   -8.7205    2.8430   -8.2316 C   0  0  0  0  0  0  0  0  0  0  0  0
   -8.9674    1.7713   -7.2496 C   0  0  0  0  0  0  0  0  0  0  0  0
   -8.7078    2.5560   -9.5704 N   0  0  0  0  0  0  0  0  0  0  0  0
   -8.5108    3.6983  -10.1741 C   0  0  0  0  0  0  0  0  0  0  0  0
   -8.4226    4.0120  -11.5487 C   0  0  0  0  0  0  0  0  0  0  0  0
   -4.1824    4.8207  -14.5814 S   0  0  0  0  0  0  0  0  0  0  0  0
   -4.0838    5.0209  -16.2769 C   0  0  0  0  0  0  0  0  0  0  0  0
   -2.8089    5.3456  -16.9044 C   0  0  0  0  0  0  0  0  0  0  0  0
   -1.8010    5.4446  -15.9983 F   0  0  0  0  0  0  0  0  0  0  0  0
   -2.4057    4.4726  -17.8532 F   0  0  0  0  0  0  0  0  0  0  0  0
   -2.9314    6.5717  -17.4537 F   0  0  0  0  0  0  0  0  0  0  0  0
  1  2  1  0
  2  3  1  0
  3  4  1  0
  4  5  2  0
  4  6  1  0
  6  7  1  0
  7  8  2  0
  8  9  1  0
  9 10  1  0
 10 11  2  0
 10 12  1  0
 12 13  1  0
 13 14  2  0
 14 15  1  0
 15 16  1  0
 16 17  2  0
 17 18  1  0
 17 19  1  0
 19 20  2  0
 20 21  1  0
  8 22  1  0
 22 23  1  0
 23 24  1  0
 24 25  1  0
 24 26  1  0
 24 27  1  0
 23  6  2  0
 21 12  2  0
 20 15  1  0
M  END
>  <energy_score>  (3261) 
-83.356909

>  <alias>  (3261) 
URWBNBSQXPVUGU-UHFFFAOYSA-N-P84-P29-P84-601526

>  <HIPPO Pose ID>  (3261) 
77046

>  <smiles>  (3261) 
CCOC(=O)c1nc(NC(=O)c2ccn3cc(C)nc3c2)sc1C(F)(F)F

>  <inchikey>  (3261) 
URWBNBSQXPVUGU-UHFFFAOYSA-N

>  <distance_score>  (3261) 
1.423415

>  <ref_mols>  (3261) 
Z1495a,Z0673a

>  <ref_pdb>  (3261) 
Z3093a

>  <HIPPO Compound ID>  (3261) 
141898

>  <name>  (3261) 
URWBNBSQXPVUGU-UHFFFAOYSA-N-P84-P29-P84-601526

>  <inspiration_score>  (3261) 
None

$$$$
OPIAANXHCHHUGR-UHFFFAOYSA-N-P84-P29-P84-601526
     RDKit          3D

 27 29  0  0  0  0  0  0  0  0999 V2000
   -9.6677    4.4340  -18.4165 C   0  0  0  0  0  0  0  0  0  0  0  0
   -8.3627    4.5864  -17.6883 C   0  0  0  0  0  0  0  0  0  0  0  0
   -7.5202    5.5775  -18.3145 O   0  0  0  0  0  0  0  0  0  0  0  0
   -6.2043    5.7515  -17.9590 C   0  0  0  0  0  0  0  0  0  0  0  0
   -5.4836    6.5223  -18.5872 O   0  0  0  0  0  0  0  0  0  0  0  0
   -5.7029    5.0728  -16.7503 C   0  0  0  0  0  0  0  0  0  0  0  0
   -6.5630    4.4054  -15.9134 N   0  0  0  0  0  0  0  0  0  0  0  0
   -6.0099    4.1996  -14.7644 C   0  0  0  0  0  0  0  0  0  0  0  0
   -6.6763    4.2012  -13.6054 N   0  0  0  0  0  0  0  0  0  0  0  0
   -8.1314    4.6058  -13.2869 C   0  0  0  0  0  0  0  0  0  0  0  0
   -8.9988    4.9271  -13.9957 O   0  0  0  0  0  0  0  0  0  0  0  0
   -8.2490    4.6228  -11.8215 C   0  0  0  0  0  0  0  0  0  0  0  0
   -8.4326    3.4223  -11.2447 C   0  0  0  0  0  0  0  0  0  0  0  0
   -8.4912    3.3541   -9.8338 C   0  0  0  0  0  0  0  0  0  0  0  0
   -8.6483    2.3334   -9.0292 N   0  0  0  0  0  0  0  0  0  0  0  0
   -8.5904    2.8485   -7.7653 C   0  0  0  0  0  0  0  0  0  0  0  0
   -8.4107    4.2126   -7.7973 C   0  0  0  0  0  0  0  0  0  0  0  0
   -8.3456    4.5389   -9.1249 N   0  0  0  0  0  0  0  0  0  0  0  0
   -8.1572    5.7822   -9.7193 C   0  0  0  0  0  0  0  0  0  0  0  0
   -8.1079    5.8632  -11.0600 C   0  0  0  0  0  0  0  0  0  0  0  0
   -7.8412    7.4950  -11.9219 Br  0  0  0  0  0  0  0  0  0  0  0  0
   -4.3286    4.2779  -14.7393 S   0  0  0  0  0  0  0  0  0  0  0  0
   -4.4345    5.1900  -16.1987 C   0  0  0  0  0  0  0  0  0  0  0  0
   -3.3672    6.1280  -16.5375 C   0  0  0  0  0  0  0  0  0  0  0  0
   -2.2548    5.9525  -15.7751 F   0  0  0  0  0  0  0  0  0  0  0  0
   -2.9619    6.0619  -17.8255 F   0  0  0  0  0  0  0  0  0  0  0  0
   -3.8055    7.3799  -16.2748 F   0  0  0  0  0  0  0  0  0  0  0  0
  1  2  1  0
  2  3  1  0
  3  4  1  0
  4  5  2  0
  4  6  1  0
  6  7  1  0
  7  8  2  0
  8  9  1  0
  9 10  1  0
 10 11  2  0
 10 12  1  0
 12 13  2  0
 13 14  1  0
 14 15  2  0
 15 16  1  0
 16 17  2  0
 17 18  1  0
 18 19  1  0
 19 20  2  0
 20 21  1  0
  8 22  1  0
 22 23  1  0
 23 24  1  0
 24 25  1  0
 24 26  1  0
 24 27  1  0
 23  6  2  0
 20 12  1  0
 18 14  1  0
M  END
>  <energy_score>  (3262) 
-36.303425

>  <alias>  (3262) 
OPIAANXHCHHUGR-UHFFFAOYSA-N-P84-P29-P84-601526

>  <HIPPO Pose ID>  (3262) 
77048

>  <smiles>  (3262) 
CCOC(=O)c1nc(NC(=O)c2cc3nccn3cc2Br)sc1C(F)(F)F

>  <inchikey>  (3262) 
OPIAANXHCHHUGR-UHFFFAOYSA-N

>  <distance_score>  (3262) 
1.521628

>  <ref_mols>  (3262) 
Z1495a,Z0673a

>  <ref_pdb>  (3262) 
Z3093a

>  <HIPPO Compound ID>  (3262) 
141899

>  <name>  (3262) 
OPIAANXHCHHUGR-UHFFFAOYSA-N-P84-P29-P84-601526

>  <inspiration_score>  (3262) 
None

$$$$
OLGJLUIBQMGOEZ-UHFFFAOYSA-N-P84-P29-P84-601526
     RDKit          3D

 27 30  0  0  0  0  0  0  0  0999 V2000
   -9.2753    4.6978  -18.3626 C   0  0  0  0  0  0  0  0  0  0  0  0
   -7.7957    4.9122  -17.9973 C   0  0  0  0  0  0  0  0  0  0  0  0
   -7.6840    4.3752  -16.5719 C   0  0  0  0  0  0  0  0  0  0  0  0
   -6.9450    4.1562  -18.9977 C   0  0  0  0  0  0  0  0  0  0  0  0
   -7.4133    6.3146  -18.1301 O   0  0  0  0  0  0  0  0  0  0  0  0
   -6.0813    6.6668  -18.1221 C   0  0  0  0  0  0  0  0  0  0  0  0
   -5.5157    7.1883  -19.0767 O   0  0  0  0  0  0  0  0  0  0  0  0
   -5.4328    6.4594  -16.8392 C   0  0  0  0  0  0  0  0  0  0  0  0
   -4.1380    6.0315  -16.5934 C   0  0  0  0  0  0  0  0  0  0  0  0
   -3.9768    5.6601  -14.9030 S   0  0  0  0  0  0  0  0  0  0  0  0
   -5.5742    6.1643  -14.6771 C   0  0  0  0  0  0  0  0  0  0  0  0
   -6.2083    5.9578  -13.5145 N   0  0  0  0  0  0  0  0  0  0  0  0
   -7.6813    6.1881  -13.1237 C   0  0  0  0  0  0  0  0  0  0  0  0
   -8.5569    6.6648  -13.7259 O   0  0  0  0  0  0  0  0  0  0  0  0
   -7.8420    5.7801  -11.7188 C   0  0  0  0  0  0  0  0  0  0  0  0
   -7.8513    6.8265  -10.7113 C   0  0  0  0  0  0  0  0  0  0  0  0
   -7.9862    6.4702   -9.4280 C   0  0  0  0  0  0  0  0  0  0  0  0
   -8.1224    5.1229   -9.1178 N   0  0  0  0  0  0  0  0  0  0  0  0
   -8.2697    4.5480   -7.8914 C   0  0  0  0  0  0  0  0  0  0  0  0
   -8.4033    3.2080   -8.1496 C   0  0  0  0  0  0  0  0  0  0  0  0
   -8.7409    2.1694   -7.0594 C   0  0  0  0  0  0  0  0  0  0  0  0
  -10.0597    2.3114   -6.3347 C   0  0  0  0  0  0  0  0  0  0  0  0
   -9.8641    1.2284   -7.3472 C   0  0  0  0  0  0  0  0  0  0  0  0
   -8.3082    2.9320   -9.4875 N   0  0  0  0  0  0  0  0  0  0  0  0
   -8.1441    4.1003  -10.0628 C   0  0  0  0  0  0  0  0  0  0  0  0
   -7.9974    4.4730  -11.4276 C   0  0  0  0  0  0  0  0  0  0  0  0
   -6.1803    6.6643  -15.7076 N   0  0  0  0  0  0  0  0  0  0  0  0
  1  2  1  0
  2  3  1  0
  2  4  1  0
  2  5  1  0
  5  6  1  0
  6  7  2  0
  6  8  1  0
  8  9  2  0
  9 10  1  0
 10 11  1  0
 11 12  1  0
 12 13  1  0
 13 14  2  0
 13 15  1  0
 15 16  1  0
 16 17  2  0
 17 18  1  0
 18 19  1  0
 19 20  2  0
 20 21  1  0
 21 22  1  0
 22 23  1  0
 20 24  1  0
 24 25  2  0
 25 26  1  0
 11 27  2  0
 27  8  1  0
 26 15  2  0
 25 18  1  0
 23 21  1  0
M  END
>  <energy_score>  (3263) 
-48.102139

>  <alias>  (3263) 
OLGJLUIBQMGOEZ-UHFFFAOYSA-N-P84-P29-P84-601526

>  <HIPPO Pose ID>  (3263) 
77056

>  <smiles>  (3263) 
CC(C)(C)OC(=O)c1csc(NC(=O)c2ccn3cc(C4CC4)nc3c2)n1

>  <inchikey>  (3263) 
OLGJLUIBQMGOEZ-UHFFFAOYSA-N

>  <distance_score>  (3263) 
1.342555

>  <ref_mols>  (3263) 
Z1495a,Z0673a

>  <ref_pdb>  (3263) 
Z3093a

>  <HIPPO Compound ID>  (3263) 
141903

>  <name>  (3263) 
OLGJLUIBQMGOEZ-UHFFFAOYSA-N-P84-P29-P84-601526

>  <inspiration_score>  (3263) 
None

$$$$
KNLACQXEJULGTC-UHFFFAOYSA-N-P84-P29-P84-601526
     RDKit          3D

 27 30  0  0  0  0  0  0  0  0999 V2000
   -8.8432    4.1682  -18.4612 C   0  0  0  0  0  0  0  0  0  0  0  0
   -7.5012    4.6157  -17.9245 C   0  0  0  0  0  0  0  0  0  0  0  0
   -6.4505    4.6033  -18.9252 O   0  0  0  0  0  0  0  0  0  0  0  0
   -5.1398    4.9421  -18.6426 C   0  0  0  0  0  0  0  0  0  0  0  0
   -4.2674    4.9378  -19.5132 O   0  0  0  0  0  0  0  0  0  0  0  0
   -4.7744    5.2554  -17.2508 C   0  0  0  0  0  0  0  0  0  0  0  0
   -3.4948    5.5270  -16.7861 C   0  0  0  0  0  0  0  0  0  0  0  0
   -3.5129    5.7537  -15.0658 S   0  0  0  0  0  0  0  0  0  0  0  0
   -5.1742    5.3635  -15.0721 C   0  0  0  0  0  0  0  0  0  0  0  0
   -5.9625    5.3951  -13.9148 N   0  0  0  0  0  0  0  0  0  0  0  0
   -5.6187    3.7978  -13.9745 C   0  0  0  0  0  0  0  0  0  0  0  0
   -4.9276    3.3965  -12.6656 C   0  0  0  0  0  0  0  0  0  0  0  0
   -7.4485    5.6307  -13.7406 C   0  0  0  0  0  0  0  0  0  0  0  0
   -8.2975    5.7628  -14.5434 O   0  0  0  0  0  0  0  0  0  0  0  0
   -7.7436    5.5708  -12.2978 C   0  0  0  0  0  0  0  0  0  0  0  0
   -7.4587    6.6930  -11.4220 C   0  0  0  0  0  0  0  0  0  0  0  0
   -7.6602    6.5333  -10.1047 C   0  0  0  0  0  0  0  0  0  0  0  0
   -8.1184    5.3049   -9.6376 N   0  0  0  0  0  0  0  0  0  0  0  0
   -8.3474    4.9059   -8.3540 C   0  0  0  0  0  0  0  0  0  0  0  0
   -8.7646    3.6031   -8.4656 C   0  0  0  0  0  0  0  0  0  0  0  0
   -9.1071    2.7259   -7.2580 C   0  0  0  0  0  0  0  0  0  0  0  0
   -8.2592    1.5089   -7.0981 C   0  0  0  0  0  0  0  0  0  0  0  0
   -9.7120    1.3651   -7.4167 C   0  0  0  0  0  0  0  0  0  0  0  0
   -8.7778    3.1744   -9.7613 N   0  0  0  0  0  0  0  0  0  0  0  0
   -8.4100    4.2214  -10.4582 C   0  0  0  0  0  0  0  0  0  0  0  0
   -8.2393    4.3994  -11.8517 C   0  0  0  0  0  0  0  0  0  0  0  0
   -5.7132    5.2927  -16.2527 N   0  0  0  0  0  0  0  0  0  0  0  0
  1  2  1  0
  2  3  1  0
  3  4  1  0
  4  5  2  0
  4  6  1  0
  6  7  2  0
  7  8  1  0
  8  9  1  0
  9 10  1  0
 10 11  1  0
 11 12  1  0
 10 13  1  0
 13 14  2  0
 13 15  1  0
 15 16  1  0
 16 17  2  0
 17 18  1  0
 18 19  1  0
 19 20  2  0
 20 21  1  0
 21 22  1  0
 22 23  1  0
 20 24  1  0
 24 25  2  0
 25 26  1  0
  9 27  2  0
 27  6  1  0
 26 15  2  0
 25 18  1  0
 23 21  1  0
M  END
>  <energy_score>  (3264) 
-37.999855

>  <alias>  (3264) 
KNLACQXEJULGTC-UHFFFAOYSA-N-P84-P29-P84-601526

>  <HIPPO Pose ID>  (3264) 
77058

>  <smiles>  (3264) 
CCOC(=O)c1csc(N(CC)C(=O)c2ccn3cc(C4CC4)nc3c2)n1

>  <inchikey>  (3264) 
KNLACQXEJULGTC-UHFFFAOYSA-N

>  <distance_score>  (3264) 
1.168194

>  <ref_mols>  (3264) 
Z1495a,Z0673a

>  <ref_pdb>  (3264) 
Z3093a

>  <HIPPO Compound ID>  (3264) 
141904

>  <name>  (3264) 
KNLACQXEJULGTC-UHFFFAOYSA-N-P84-P29-P84-601526

>  <inspiration_score>  (3264) 
None

$$$$
LVTFCAMATWTFEP-UHFFFAOYSA-N-P29-P29-P84-601526
     RDKit          3D

 27 29  0  0  0  0  0  0  0  0999 V2000
   -8.3412    4.1413  -18.8208 C   0  0  0  0  0  0  0  0  0  0  0  0
   -7.3226    4.8524  -17.9169 C   0  0  0  0  0  0  0  0  0  0  0  0
   -7.9769    4.8986  -16.5341 C   0  0  0  0  0  0  0  0  0  0  0  0
   -6.9888    6.2134  -18.4915 C   0  0  0  0  0  0  0  0  0  0  0  0
   -6.1106    4.0641  -17.9463 O   0  0  0  0  0  0  0  0  0  0  0  0
   -4.8551    4.5910  -17.7955 C   0  0  0  0  0  0  0  0  0  0  0  0
   -4.0177    4.5446  -18.6918 O   0  0  0  0  0  0  0  0  0  0  0  0
   -4.5355    5.1143  -16.4729 C   0  0  0  0  0  0  0  0  0  0  0  0
   -3.2677    5.0473  -15.9191 C   0  0  0  0  0  0  0  0  0  0  0  0
   -3.3910    5.2370  -14.2126 S   0  0  0  0  0  0  0  0  0  0  0  0
   -5.0359    5.5853  -14.4015 C   0  0  0  0  0  0  0  0  0  0  0  0
   -5.8063    5.5674  -13.2995 N   0  0  0  0  0  0  0  0  0  0  0  0
   -7.2543    6.0564  -13.0807 C   0  0  0  0  0  0  0  0  0  0  0  0
   -7.9780    6.6205  -13.7989 O   0  0  0  0  0  0  0  0  0  0  0  0
   -7.6659    5.5798  -11.7459 C   0  0  0  0  0  0  0  0  0  0  0  0
   -8.2761    4.3803  -11.8153 C   0  0  0  0  0  0  0  0  0  0  0  0
   -8.5744    3.6927  -10.6182 C   0  0  0  0  0  0  0  0  0  0  0  0
   -9.1831    2.5540  -10.4361 N   0  0  0  0  0  0  0  0  0  0  0  0
   -9.1014    2.3155   -9.0961 C   0  0  0  0  0  0  0  0  0  0  0  0
   -8.4664    3.3369   -8.4331 C   0  0  0  0  0  0  0  0  0  0  0  0
   -8.1772    3.3928   -7.0343 C   0  0  0  0  0  0  0  0  0  0  0  0
   -7.7530    4.3900   -6.4516 O   0  0  0  0  0  0  0  0  0  0  0  0
   -8.1714    4.2597   -9.4157 N   0  0  0  0  0  0  0  0  0  0  0  0
   -7.5754    5.5250   -9.3511 C   0  0  0  0  0  0  0  0  0  0  0  0
   -7.3265    6.2101  -10.4848 C   0  0  0  0  0  0  0  0  0  0  0  0
   -6.5285    7.8919  -10.4629 Br  0  0  0  0  0  0  0  0  0  0  0  0
   -5.4827    5.6432  -15.6215 N   0  0  0  0  0  0  0  0  0  0  0  0
  1  2  1  0
  2  3  1  0
  2  4  1  0
  2  5  1  0
  5  6  1  0
  6  7  2  0
  6  8  1  0
  8  9  2  0
  9 10  1  0
 10 11  1  0
 11 12  1  0
 12 13  1  0
 13 14  2  0
 13 15  1  0
 15 16  2  0
 16 17  1  0
 17 18  2  0
 18 19  1  0
 19 20  2  0
 20 21  1  0
 21 22  2  0
 20 23  1  0
 23 24  1  0
 24 25  2  0
 25 26  1  0
 11 27  2  0
 27  8  1  0
 25 15  1  0
 23 17  1  0
M  END
>  <energy_score>  (3265) 
-65.705488

>  <alias>  (3265) 
LVTFCAMATWTFEP-UHFFFAOYSA-N-P29-P29-P84-601526

>  <HIPPO Pose ID>  (3265) 
77063

>  <smiles>  (3265) 
CC(C)(C)OC(=O)c1csc(NC(=O)c2cc3ncc(C=O)n3cc2Br)n1

>  <inchikey>  (3265) 
LVTFCAMATWTFEP-UHFFFAOYSA-N

>  <distance_score>  (3265) 
1.780796

>  <ref_mols>  (3265) 
Z1495a,Z0673a

>  <ref_pdb>  (3265) 
Z3093a

>  <HIPPO Compound ID>  (3265) 
141907

>  <name>  (3265) 
LVTFCAMATWTFEP-UHFFFAOYSA-N-P29-P29-P84-601526

>  <inspiration_score>  (3265) 
None

$$$$
DPYCUGBZTADEGM-UHFFFAOYSA-N-P84-P29-P84-601526
     RDKit          3D

 28 30  0  0  0  0  0  0  0  0999 V2000
   -9.0360    4.2588  -18.3086 C   0  0  0  0  0  0  0  0  0  0  0  0
   -7.7659    4.5680  -17.5461 C   0  0  0  0  0  0  0  0  0  0  0  0
   -6.6345    4.5156  -18.4368 O   0  0  0  0  0  0  0  0  0  0  0  0
   -5.3663    4.8715  -18.0576 C   0  0  0  0  0  0  0  0  0  0  0  0
   -4.4519    4.8880  -18.8833 O   0  0  0  0  0  0  0  0  0  0  0  0
   -5.0922    5.2158  -16.6471 C   0  0  0  0  0  0  0  0  0  0  0  0
   -3.8687    5.7119  -16.2184 C   0  0  0  0  0  0  0  0  0  0  0  0
   -3.8917    6.0191  -14.5275 S   0  0  0  0  0  0  0  0  0  0  0  0
   -5.4726    5.3411  -14.4533 C   0  0  0  0  0  0  0  0  0  0  0  0
   -6.1358    5.4227  -13.2051 N   0  0  0  0  0  0  0  0  0  0  0  0
   -5.7206    3.8597  -13.1527 C   0  0  0  0  0  0  0  0  0  0  0  0
   -6.7544    2.8506  -13.6625 C   0  0  0  0  0  0  0  0  0  0  0  0
   -7.5204    5.5780  -12.8950 C   0  0  0  0  0  0  0  0  0  0  0  0
   -8.4870    5.5910  -13.6104 O   0  0  0  0  0  0  0  0  0  0  0  0
   -7.6667    5.6297  -11.4113 C   0  0  0  0  0  0  0  0  0  0  0  0
   -7.0081    6.6492  -10.6034 C   0  0  0  0  0  0  0  0  0  0  0  0
   -7.0101    6.5077   -9.2663 C   0  0  0  0  0  0  0  0  0  0  0  0
   -7.6319    5.3943   -8.7035 N   0  0  0  0  0  0  0  0  0  0  0  0
   -7.6946    5.0007   -7.3948 C   0  0  0  0  0  0  0  0  0  0  0  0
   -8.3397    3.7717   -7.3929 C   0  0  0  0  0  0  0  0  0  0  0  0
   -8.5951    2.8660   -6.2222 C   0  0  0  0  0  0  0  0  0  0  0  0
   -9.8026    3.1310   -5.6537 F   0  0  0  0  0  0  0  0  0  0  0  0
   -7.6620    3.0812   -5.2466 F   0  0  0  0  0  0  0  0  0  0  0  0
   -8.5616    1.5526   -6.5425 F   0  0  0  0  0  0  0  0  0  0  0  0
   -8.7389    3.4576   -8.6819 N   0  0  0  0  0  0  0  0  0  0  0  0
   -8.2932    4.4268   -9.4449 C   0  0  0  0  0  0  0  0  0  0  0  0
   -8.3205    4.5902  -10.8527 C   0  0  0  0  0  0  0  0  0  0  0  0
   -6.0117    5.0730  -15.6145 N   0  0  0  0  0  0  0  0  0  0  0  0
  1  2  1  0
  2  3  1  0
  3  4  1  0
  4  5  2  0
  4  6  1  0
  6  7  2  0
  7  8  1  0
  8  9  1  0
  9 10  1  0
 10 11  1  0
 11 12  1  0
 10 13  1  0
 13 14  2  0
 13 15  1  0
 15 16  1  0
 16 17  2  0
 17 18  1  0
 18 19  1  0
 19 20  2  0
 20 21  1  0
 21 22  1  0
 21 23  1  0
 21 24  1  0
 20 25  1  0
 25 26  2  0
 26 27  1  0
  9 28  2  0
 28  6  1  0
 27 15  2  0
 26 18  1  0
M  END
>  <energy_score>  (3266) 
-6.912763

>  <alias>  (3266) 
DPYCUGBZTADEGM-UHFFFAOYSA-N-P84-P29-P84-601526

>  <HIPPO Pose ID>  (3266) 
77066

>  <smiles>  (3266) 
CCOC(=O)c1csc(N(CC)C(=O)c2ccn3cc(C(F)(F)F)nc3c2)n1

>  <inchikey>  (3266) 
DPYCUGBZTADEGM-UHFFFAOYSA-N

>  <distance_score>  (3266) 
1.502164

>  <ref_mols>  (3266) 
Z1495a,Z0673a

>  <ref_pdb>  (3266) 
Z3093a

>  <HIPPO Compound ID>  (3266) 
141909

>  <name>  (3266) 
DPYCUGBZTADEGM-UHFFFAOYSA-N-P84-P29-P84-601526

>  <inspiration_score>  (3266) 
None

$$$$
GBTNAKZNVGAUNQ-UHFFFAOYSA-N-P84-P29-P84-601526
     RDKit          3D

 28 30  0  0  0  0  0  0  0  0999 V2000
   -9.4028    4.1896  -18.1606 C   0  0  0  0  0  0  0  0  0  0  0  0
   -8.0189    4.4092  -17.6026 C   0  0  0  0  0  0  0  0  0  0  0  0
   -7.0349    4.3403  -18.6537 O   0  0  0  0  0  0  0  0  0  0  0  0
   -5.7158    4.6465  -18.4332 C   0  0  0  0  0  0  0  0  0  0  0  0
   -4.9222    4.7964  -19.3590 O   0  0  0  0  0  0  0  0  0  0  0  0
   -5.2314    4.7676  -17.0560 C   0  0  0  0  0  0  0  0  0  0  0  0
   -5.9748    4.3839  -15.9543 N   0  0  0  0  0  0  0  0  0  0  0  0
   -5.3685    4.7432  -14.8634 C   0  0  0  0  0  0  0  0  0  0  0  0
   -5.9771    4.7367  -13.6708 N   0  0  0  0  0  0  0  0  0  0  0  0
   -5.5672    5.3823  -12.3366 C   0  0  0  0  0  0  0  0  0  0  0  0
   -4.5988    5.9572  -12.0422 O   0  0  0  0  0  0  0  0  0  0  0  0
   -6.6931    5.1770  -11.3949 C   0  0  0  0  0  0  0  0  0  0  0  0
   -6.9673    3.8875  -11.1117 C   0  0  0  0  0  0  0  0  0  0  0  0
   -7.8162    3.5980  -10.0239 C   0  0  0  0  0  0  0  0  0  0  0  0
   -8.2077    2.4514   -9.5373 N   0  0  0  0  0  0  0  0  0  0  0  0
   -8.8497    2.7545   -8.3637 C   0  0  0  0  0  0  0  0  0  0  0  0
   -9.4196    1.7390   -7.5093 C   0  0  0  0  0  0  0  0  0  0  0  0
  -10.0282    1.9857   -6.4712 O   0  0  0  0  0  0  0  0  0  0  0  0
   -8.8549    4.1197   -8.1540 C   0  0  0  0  0  0  0  0  0  0  0  0
   -8.2613    4.6614   -9.2567 N   0  0  0  0  0  0  0  0  0  0  0  0
   -8.0768    5.9939   -9.6072 C   0  0  0  0  0  0  0  0  0  0  0  0
   -7.3371    6.2859  -10.6919 C   0  0  0  0  0  0  0  0  0  0  0  0
   -7.1344    8.0414  -11.2838 Br  0  0  0  0  0  0  0  0  0  0  0  0
   -3.7910    5.3066  -15.0218 S   0  0  0  0  0  0  0  0  0  0  0  0
   -4.0163    5.3248  -16.7067 C   0  0  0  0  0  0  0  0  0  0  0  0
   -3.0581    6.0485  -17.4736 C   0  0  0  0  0  0  0  0  0  0  0  0
   -2.1944    5.2945  -18.4489 C   0  0  0  0  0  0  0  0  0  0  0  0
   -2.9254    7.2522  -17.2822 O   0  0  0  0  0  0  0  0  0  0  0  0
  1  2  1  0
  2  3  1  0
  3  4  1  0
  4  5  2  0
  4  6  1  0
  6  7  1  0
  7  8  2  0
  8  9  1  0
  9 10  1  0
 10 11  2  0
 10 12  1  0
 12 13  2  0
 13 14  1  0
 14 15  2  0
 15 16  1  0
 16 17  1  0
 17 18  2  0
 16 19  2  0
 19 20  1  0
 20 21  1  0
 21 22  2  0
 22 23  1  0
  8 24  1  0
 24 25  1  0
 25 26  1  0
 26 27  1  0
 26 28  2  0
 25  6  2  0
 22 12  1  0
 20 14  1  0
M  END
>  <energy_score>  (3267) 
-84.39302

>  <alias>  (3267) 
GBTNAKZNVGAUNQ-UHFFFAOYSA-N-P84-P29-P84-601526

>  <HIPPO Pose ID>  (3267) 
77072

>  <smiles>  (3267) 
CCOC(=O)c1nc(NC(=O)c2cc3nc(C=O)cn3cc2Br)sc1C(C)=O

>  <inchikey>  (3267) 
GBTNAKZNVGAUNQ-UHFFFAOYSA-N

>  <distance_score>  (3267) 
1.933991

>  <ref_mols>  (3267) 
Z1495a,Z0673a

>  <ref_pdb>  (3267) 
Z3093a

>  <HIPPO Compound ID>  (3267) 
141913

>  <name>  (3267) 
GBTNAKZNVGAUNQ-UHFFFAOYSA-N-P84-P29-P84-601526

>  <inspiration_score>  (3267) 
None

$$$$
MTOSJZWYYLWSEZ-UHFFFAOYSA-N-P29-P29-P84-601526
     RDKit          3D

 28 30  0  0  0  0  0  0  0  0999 V2000
   -9.5384    4.2956  -18.6790 C   0  0  0  0  0  0  0  0  0  0  0  0
   -8.3331    4.5812  -17.8275 C   0  0  0  0  0  0  0  0  0  0  0  0
   -7.4418    5.5012  -18.4939 O   0  0  0  0  0  0  0  0  0  0  0  0
   -6.1751    5.7665  -18.0354 C   0  0  0  0  0  0  0  0  0  0  0  0
   -5.4335    6.5267  -18.6504 O   0  0  0  0  0  0  0  0  0  0  0  0
   -5.7501    5.1668  -16.7615 C   0  0  0  0  0  0  0  0  0  0  0  0
   -6.6799    4.6607  -15.8818 N   0  0  0  0  0  0  0  0  0  0  0  0
   -6.1328    4.3816  -14.7454 C   0  0  0  0  0  0  0  0  0  0  0  0
   -6.7889    4.3268  -13.5833 N   0  0  0  0  0  0  0  0  0  0  0  0
   -8.2425    4.7090  -13.2347 C   0  0  0  0  0  0  0  0  0  0  0  0
   -9.1173    5.0585  -13.9208 O   0  0  0  0  0  0  0  0  0  0  0  0
   -8.3326    4.6528  -11.7727 C   0  0  0  0  0  0  0  0  0  0  0  0
   -8.5893    3.4586  -11.2161 C   0  0  0  0  0  0  0  0  0  0  0  0
   -8.6021    3.3643   -9.8027 C   0  0  0  0  0  0  0  0  0  0  0  0
   -8.8369    2.3404   -9.0204 N   0  0  0  0  0  0  0  0  0  0  0  0
   -8.6662    2.8051   -7.7447 C   0  0  0  0  0  0  0  0  0  0  0  0
   -8.3670    4.1461   -7.7509 C   0  0  0  0  0  0  0  0  0  0  0  0
   -8.0859    5.2260   -6.2162 Br  0  0  0  0  0  0  0  0  0  0  0  0
   -8.3190    4.5166   -9.0692 N   0  0  0  0  0  0  0  0  0  0  0  0
   -8.0475    5.7527   -9.6540 C   0  0  0  0  0  0  0  0  0  0  0  0
   -8.0558    5.8380  -10.9892 C   0  0  0  0  0  0  0  0  0  0  0  0
   -7.7775    7.0001  -11.6096 F   0  0  0  0  0  0  0  0  0  0  0  0
   -4.4505    4.3499  -14.7162 S   0  0  0  0  0  0  0  0  0  0  0  0
   -4.4822    5.2166  -16.2015 C   0  0  0  0  0  0  0  0  0  0  0  0
   -3.3382    6.0467  -16.5698 C   0  0  0  0  0  0  0  0  0  0  0  0
   -2.9457    5.9150  -17.8548 F   0  0  0  0  0  0  0  0  0  0  0  0
   -2.2426    5.7943  -15.8038 F   0  0  0  0  0  0  0  0  0  0  0  0
   -3.6651    7.3374  -16.3356 F   0  0  0  0  0  0  0  0  0  0  0  0
  1  2  1  0
  2  3  1  0
  3  4  1  0
  4  5  2  0
  4  6  1  0
  6  7  1  0
  7  8  2  0
  8  9  1  0
  9 10  1  0
 10 11  2  0
 10 12  1  0
 12 13  2  0
 13 14  1  0
 14 15  2  0
 15 16  1  0
 16 17  2  0
 17 18  1  0
 17 19  1  0
 19 20  1  0
 20 21  2  0
 21 22  1  0
  8 23  1  0
 23 24  1  0
 24 25  1  0
 25 26  1  0
 25 27  1  0
 25 28  1  0
 24  6  2  0
 21 12  1  0
 19 14  1  0
M  END
>  <energy_score>  (3268) 
-35.27929

>  <alias>  (3268) 
MTOSJZWYYLWSEZ-UHFFFAOYSA-N-P29-P29-P84-601526

>  <HIPPO Pose ID>  (3268) 
77073

>  <smiles>  (3268) 
CCOC(=O)c1nc(NC(=O)c2cc3ncc(Br)n3cc2F)sc1C(F)(F)F

>  <inchikey>  (3268) 
MTOSJZWYYLWSEZ-UHFFFAOYSA-N

>  <distance_score>  (3268) 
1.492633

>  <ref_mols>  (3268) 
Z1495a,Z0673a

>  <ref_pdb>  (3268) 
Z3093a

>  <HIPPO Compound ID>  (3268) 
141914

>  <name>  (3268) 
MTOSJZWYYLWSEZ-UHFFFAOYSA-N-P29-P29-P84-601526

>  <inspiration_score>  (3268) 
None

$$$$
XSPPWEOPEVXPCX-UHFFFAOYSA-N-P84-P29-P84-601526
     RDKit          3D

 28 31  0  0  0  0  0  0  0  0999 V2000
   -3.4906    6.0178  -13.0476 C   0  0  0  0  0  0  0  0  0  0  0  0
   -3.8933    7.1148  -13.7037 C   0  0  0  0  0  0  0  0  0  0  0  0
   -5.1660    7.3104  -14.5076 C   0  0  0  0  0  0  0  0  0  0  0  0
   -6.0475    5.9852  -14.5216 N   0  0  0  0  0  0  0  0  0  0  0  0
   -7.3319    6.2450  -13.9822 C   0  0  0  0  0  0  0  0  0  0  0  0
   -8.3520    6.5896  -14.5178 O   0  0  0  0  0  0  0  0  0  0  0  0
   -7.3926    5.9325  -12.5332 C   0  0  0  0  0  0  0  0  0  0  0  0
   -7.8383    6.9380  -11.5736 C   0  0  0  0  0  0  0  0  0  0  0  0
   -8.1396    6.5475  -10.3237 C   0  0  0  0  0  0  0  0  0  0  0  0
   -8.0111    5.2014   -9.9903 N   0  0  0  0  0  0  0  0  0  0  0  0
   -8.2947    4.5653   -8.8143 C   0  0  0  0  0  0  0  0  0  0  0  0
   -8.0342    3.2371   -9.0607 C   0  0  0  0  0  0  0  0  0  0  0  0
   -8.2479    2.0644   -8.0887 C   0  0  0  0  0  0  0  0  0  0  0  0
   -9.5977    1.8152   -7.4774 C   0  0  0  0  0  0  0  0  0  0  0  0
   -8.4745    2.3234   -6.6281 C   0  0  0  0  0  0  0  0  0  0  0  0
   -7.5338    3.0454  -10.3162 N   0  0  0  0  0  0  0  0  0  0  0  0
   -7.5637    4.2287  -10.8757 C   0  0  0  0  0  0  0  0  0  0  0  0
   -7.2674    4.6320  -12.2012 C   0  0  0  0  0  0  0  0  0  0  0  0
   -5.6002    5.9503  -15.8647 C   0  0  0  0  0  0  0  0  0  0  0  0
   -6.4270    6.1597  -16.8576 N   0  0  0  0  0  0  0  0  0  0  0  0
   -6.1296    5.2623  -17.8721 C   0  0  0  0  0  0  0  0  0  0  0  0
   -7.1751    4.7040  -18.7163 C   0  0  0  0  0  0  0  0  0  0  0  0
   -6.9699    3.8818  -19.5963 O   0  0  0  0  0  0  0  0  0  0  0  0
   -8.3940    5.1485  -18.3239 O   0  0  0  0  0  0  0  0  0  0  0  0
   -9.4660    4.3174  -18.7419 C   0  0  0  0  0  0  0  0  0  0  0  0
  -10.5677    4.4622  -17.7244 C   0  0  0  0  0  0  0  0  0  0  0  0
   -4.8237    4.8126  -17.8548 C   0  0  0  0  0  0  0  0  0  0  0  0
   -4.1904    5.0393  -16.2746 S   0  0  0  0  0  0  0  0  0  0  0  0
  1  2  2  0
  2  3  1  0
  3  4  1  0
  4  5  1  0
  5  6  2  0
  5  7  1  0
  7  8  1  0
  8  9  2  0
  9 10  1  0
 10 11  1  0
 11 12  2  0
 12 13  1  0
 13 14  1  0
 14 15  1  0
 12 16  1  0
 16 17  2  0
 17 18  1  0
  4 19  1  0
 19 20  2  0
 20 21  1  0
 21 22  1  0
 22 23  2  0
 22 24  1  0
 24 25  1  0
 25 26  1  0
 21 27  2  0
 27 28  1  0
 18  7  2  0
 28 19  1  0
 17 10  1  0
 15 13  1  0
M  END
>  <energy_score>  (3269) 
-10.518523

>  <alias>  (3269) 
XSPPWEOPEVXPCX-UHFFFAOYSA-N-P84-P29-P84-601526

>  <HIPPO Pose ID>  (3269) 
77076

>  <smiles>  (3269) 
C=CCN(C(=O)c1ccn2cc(C3CC3)nc2c1)c1nc(C(=O)OCC)cs1

>  <inchikey>  (3269) 
XSPPWEOPEVXPCX-UHFFFAOYSA-N

>  <distance_score>  (3269) 
1.711295

>  <ref_mols>  (3269) 
Z1495a,Z0673a

>  <ref_pdb>  (3269) 
Z3093a

>  <HIPPO Compound ID>  (3269) 
141915

>  <name>  (3269) 
XSPPWEOPEVXPCX-UHFFFAOYSA-N-P84-P29-P84-601526

>  <inspiration_score>  (3269) 
None

$$$$
QRLOOALLCAKYGI-UHFFFAOYSA-N-P29-P29-P84-601526
     RDKit          3D

 28 30  0  0  0  0  0  0  0  0999 V2000
   -9.6079    3.8612  -18.0122 C   0  0  0  0  0  0  0  0  0  0  0  0
   -8.2896    4.3715  -17.4887 C   0  0  0  0  0  0  0  0  0  0  0  0
   -7.3499    4.4443  -18.5741 O   0  0  0  0  0  0  0  0  0  0  0  0
   -6.0492    4.8356  -18.3970 C   0  0  0  0  0  0  0  0  0  0  0  0
   -5.2063    4.6116  -19.2578 O   0  0  0  0  0  0  0  0  0  0  0  0
   -5.6838    5.5549  -17.1667 C   0  0  0  0  0  0  0  0  0  0  0  0
   -6.6253    6.2143  -16.3760 N   0  0  0  0  0  0  0  0  0  0  0  0
   -6.0748    6.5177  -15.2347 C   0  0  0  0  0  0  0  0  0  0  0  0
   -6.6982    6.3746  -14.0485 N   0  0  0  0  0  0  0  0  0  0  0  0
   -6.1859    6.6049  -12.6159 C   0  0  0  0  0  0  0  0  0  0  0  0
   -5.1694    7.0284  -12.2362 O   0  0  0  0  0  0  0  0  0  0  0  0
   -7.2052    6.0776  -11.6632 C   0  0  0  0  0  0  0  0  0  0  0  0
   -7.4862    4.7558  -11.7470 C   0  0  0  0  0  0  0  0  0  0  0  0
   -8.0650    4.0967  -10.6260 C   0  0  0  0  0  0  0  0  0  0  0  0
   -8.3912    2.8375  -10.4547 N   0  0  0  0  0  0  0  0  0  0  0  0
   -8.6906    2.7155   -9.1165 C   0  0  0  0  0  0  0  0  0  0  0  0
   -8.5792    3.9293   -8.4922 C   0  0  0  0  0  0  0  0  0  0  0  0
   -8.7551    4.3749   -6.8600 Cl  0  0  0  0  0  0  0  0  0  0  0  0
   -8.2354    4.8391   -9.4566 N   0  0  0  0  0  0  0  0  0  0  0  0
   -8.0350    6.2179   -9.4042 C   0  0  0  0  0  0  0  0  0  0  0  0
   -7.5627    6.8435  -10.4899 C   0  0  0  0  0  0  0  0  0  0  0  0
   -7.3584    8.1746  -10.4807 F   0  0  0  0  0  0  0  0  0  0  0  0
   -4.3903    6.6683  -15.2823 S   0  0  0  0  0  0  0  0  0  0  0  0
   -4.4216    5.5528  -16.5854 C   0  0  0  0  0  0  0  0  0  0  0  0
   -3.3251    4.5864  -16.6923 C   0  0  0  0  0  0  0  0  0  0  0  0
   -2.1824    5.0080  -16.0923 F   0  0  0  0  0  0  0  0  0  0  0  0
   -2.9945    4.1977  -17.9392 F   0  0  0  0  0  0  0  0  0  0  0  0
   -3.7046    3.4867  -15.9916 F   0  0  0  0  0  0  0  0  0  0  0  0
  1  2  1  0
  2  3  1  0
  3  4  1  0
  4  5  2  0
  4  6  1  0
  6  7  1  0
  7  8  2  0
  8  9  1  0
  9 10  1  0
 10 11  2  0
 10 12  1  0
 12 13  2  0
 13 14  1  0
 14 15  2  0
 15 16  1  0
 16 17  2  0
 17 18  1  0
 17 19  1  0
 19 20  1  0
 20 21  2  0
 21 22  1  0
  8 23  1  0
 23 24  1  0
 24 25  1  0
 25 26  1  0
 25 27  1  0
 25 28  1  0
 24  6  2  0
 21 12  1  0
 19 14  1  0
M  END
>  <energy_score>  (3270) 
-36.152137

>  <alias>  (3270) 
QRLOOALLCAKYGI-UHFFFAOYSA-N-P29-P29-P84-601526

>  <HIPPO Pose ID>  (3270) 
77077

>  <smiles>  (3270) 
CCOC(=O)c1nc(NC(=O)c2cc3ncc(Cl)n3cc2F)sc1C(F)(F)F

>  <inchikey>  (3270) 
QRLOOALLCAKYGI-UHFFFAOYSA-N

>  <distance_score>  (3270) 
1.703911

>  <ref_mols>  (3270) 
Z1495a,Z0673a

>  <ref_pdb>  (3270) 
Z3093a

>  <HIPPO Compound ID>  (3270) 
141916

>  <name>  (3270) 
QRLOOALLCAKYGI-UHFFFAOYSA-N-P29-P29-P84-601526

>  <inspiration_score>  (3270) 
None

$$$$
ZQGNFABOKRATLF-UHFFFAOYSA-N-P29-P29-P84-601526
     RDKit          3D

 28 31  0  0  0  0  0  0  0  0999 V2000
   -9.6187    4.0630  -18.5676 C   0  0  0  0  0  0  0  0  0  0  0  0
   -8.2708    4.3347  -17.9697 C   0  0  0  0  0  0  0  0  0  0  0  0
   -7.2182    4.1421  -18.9340 O   0  0  0  0  0  0  0  0  0  0  0  0
   -5.9316    4.5402  -18.6429 C   0  0  0  0  0  0  0  0  0  0  0  0
   -5.0730    4.6208  -19.5143 O   0  0  0  0  0  0  0  0  0  0  0  0
   -5.6257    4.8897  -17.2598 C   0  0  0  0  0  0  0  0  0  0  0  0
   -6.3545    4.4989  -16.1607 N   0  0  0  0  0  0  0  0  0  0  0  0
   -6.4737    5.5746  -15.4246 C   0  0  0  0  0  0  0  0  0  0  0  0
   -7.0553    5.5623  -14.2245 N   0  0  0  0  0  0  0  0  0  0  0  0
   -7.4621    6.7191  -13.3010 C   0  0  0  0  0  0  0  0  0  0  0  0
   -7.4253    7.8704  -13.4718 O   0  0  0  0  0  0  0  0  0  0  0  0
   -7.8644    6.1361  -11.9674 C   0  0  0  0  0  0  0  0  0  0  0  0
   -7.6216    6.9910  -10.8037 C   0  0  0  0  0  0  0  0  0  0  0  0
   -7.7888    6.4927   -9.5722 C   0  0  0  0  0  0  0  0  0  0  0  0
   -8.1993    5.1772   -9.4346 N   0  0  0  0  0  0  0  0  0  0  0  0
   -8.3964    4.4580   -8.2976 C   0  0  0  0  0  0  0  0  0  0  0  0
   -8.7861    3.2124   -8.7297 C   0  0  0  0  0  0  0  0  0  0  0  0
   -9.1006    2.0213   -7.8103 C   0  0  0  0  0  0  0  0  0  0  0  0
   -8.5634    2.0600   -6.4120 C   0  0  0  0  0  0  0  0  0  0  0  0
  -10.0373    2.1476   -6.6352 C   0  0  0  0  0  0  0  0  0  0  0  0
   -8.8389    3.1438  -10.0942 N   0  0  0  0  0  0  0  0  0  0  0  0
   -8.4912    4.3423  -10.5011 C   0  0  0  0  0  0  0  0  0  0  0  0
   -8.3543    4.8825  -11.8075 C   0  0  0  0  0  0  0  0  0  0  0  0
   -5.6118    6.9374  -16.0211 S   0  0  0  0  0  0  0  0  0  0  0  0
   -4.6031    5.7029  -16.7913 C   0  0  0  0  0  0  0  0  0  0  0  0
   -3.5006    5.3419  -15.9226 C   0  0  0  0  0  0  0  0  0  0  0  0
   -3.3317    3.8930  -15.5750 C   0  0  0  0  0  0  0  0  0  0  0  0
   -2.7912    6.1791  -15.3694 O   0  0  0  0  0  0  0  0  0  0  0  0
  1  2  1  0
  2  3  1  0
  3  4  1  0
  4  5  2  0
  4  6  1  0
  6  7  1  0
  7  8  2  0
  8  9  1  0
  9 10  1  0
 10 11  2  0
 10 12  1  0
 12 13  1  0
 13 14  2  0
 14 15  1  0
 15 16  1  0
 16 17  2  0
 17 18  1  0
 18 19  1  0
 19 20  1  0
 17 21  1  0
 21 22  2  0
 22 23  1  0
  8 24  1  0
 24 25  1  0
 25 26  1  0
 26 27  1  0
 26 28  2  0
 25  6  2  0
 23 12  2  0
 22 15  1  0
 20 18  1  0
M  END
>  <energy_score>  (3271) 
-26.440774

>  <alias>  (3271) 
ZQGNFABOKRATLF-UHFFFAOYSA-N-P29-P29-P84-601526

>  <HIPPO Pose ID>  (3271) 
77079

>  <smiles>  (3271) 
CCOC(=O)c1nc(NC(=O)c2ccn3cc(C4CC4)nc3c2)sc1C(C)=O

>  <inchikey>  (3271) 
ZQGNFABOKRATLF-UHFFFAOYSA-N

>  <distance_score>  (3271) 
1.516426

>  <ref_mols>  (3271) 
Z1495a,Z0673a

>  <ref_pdb>  (3271) 
Z3093a

>  <HIPPO Compound ID>  (3271) 
141917

>  <name>  (3271) 
ZQGNFABOKRATLF-UHFFFAOYSA-N-P29-P29-P84-601526

>  <inspiration_score>  (3271) 
None

$$$$
OILFHAGLQLLAHT-UHFFFAOYSA-N-P29-P29-P84-601526
     RDKit          3D

 29 32  0  0  0  0  0  0  0  0999 V2000
   -9.4583    3.9306  -17.9586 C   0  0  0  0  0  0  0  0  0  0  0  0
   -8.1282    4.4520  -17.4686 C   0  0  0  0  0  0  0  0  0  0  0  0
   -7.2072    4.5344  -18.5733 O   0  0  0  0  0  0  0  0  0  0  0  0
   -5.9024    4.9179  -18.4023 C   0  0  0  0  0  0  0  0  0  0  0  0
   -5.0586    4.6841  -19.2598 O   0  0  0  0  0  0  0  0  0  0  0  0
   -5.5295    5.6242  -17.1669 C   0  0  0  0  0  0  0  0  0  0  0  0
   -6.4417    6.3885  -16.4468 N   0  0  0  0  0  0  0  0  0  0  0  0
   -5.9663    6.5591  -15.2485 C   0  0  0  0  0  0  0  0  0  0  0  0
   -6.6247    6.4100  -14.0886 N   0  0  0  0  0  0  0  0  0  0  0  0
   -8.1202    6.1859  -13.8109 C   0  0  0  0  0  0  0  0  0  0  0  0
   -9.0283    6.1718  -14.5373 O   0  0  0  0  0  0  0  0  0  0  0  0
   -8.2248    5.8670  -12.3719 C   0  0  0  0  0  0  0  0  0  0  0  0
   -8.0549    6.8724  -11.3371 C   0  0  0  0  0  0  0  0  0  0  0  0
   -8.0781    6.4701  -10.0554 C   0  0  0  0  0  0  0  0  0  0  0  0
   -8.2731    5.1191   -9.7720 N   0  0  0  0  0  0  0  0  0  0  0  0
   -8.3678    4.4950   -8.5620 C   0  0  0  0  0  0  0  0  0  0  0  0
   -8.6275    3.1775   -8.8621 C   0  0  0  0  0  0  0  0  0  0  0  0
   -8.8587    2.0460   -7.8456 C   0  0  0  0  0  0  0  0  0  0  0  0
   -8.4674    2.2604   -6.4152 C   0  0  0  0  0  0  0  0  0  0  0  0
   -9.9125    2.1417   -6.7733 C   0  0  0  0  0  0  0  0  0  0  0  0
   -8.6367    2.9610  -10.2114 N   0  0  0  0  0  0  0  0  0  0  0  0
   -8.4373    4.1407  -10.7447 C   0  0  0  0  0  0  0  0  0  0  0  0
   -8.3906    4.5564  -12.0987 C   0  0  0  0  0  0  0  0  0  0  0  0
   -4.2839    6.5340  -15.1322 S   0  0  0  0  0  0  0  0  0  0  0  0
   -4.3033    5.5198  -16.5218 C   0  0  0  0  0  0  0  0  0  0  0  0
   -3.2443    4.5173  -16.6339 C   0  0  0  0  0  0  0  0  0  0  0  0
   -2.0948    4.9081  -16.0247 F   0  0  0  0  0  0  0  0  0  0  0  0
   -2.9177    4.1282  -17.8805 F   0  0  0  0  0  0  0  0  0  0  0  0
   -3.6600    3.4279  -15.9395 F   0  0  0  0  0  0  0  0  0  0  0  0
  1  2  1  0
  2  3  1  0
  3  4  1  0
  4  5  2  0
  4  6  1  0
  6  7  1  0
  7  8  2  0
  8  9  1  0
  9 10  1  0
 10 11  2  0
 10 12  1  0
 12 13  1  0
 13 14  2  0
 14 15  1  0
 15 16  1  0
 16 17  2  0
 17 18  1  0
 18 19  1  0
 19 20  1  0
 17 21  1  0
 21 22  2  0
 22 23  1  0
  8 24  1  0
 24 25  1  0
 25 26  1  0
 26 27  1  0
 26 28  1  0
 26 29  1  0
 25  6  2  0
 23 12  2  0
 22 15  1  0
 20 18  1  0
M  END
>  <energy_score>  (3272) 
-31.503349

>  <alias>  (3272) 
OILFHAGLQLLAHT-UHFFFAOYSA-N-P29-P29-P84-601526

>  <HIPPO Pose ID>  (3272) 
77083

>  <smiles>  (3272) 
CCOC(=O)c1nc(NC(=O)c2ccn3cc(C4CC4)nc3c2)sc1C(F)(F)F

>  <inchikey>  (3272) 
OILFHAGLQLLAHT-UHFFFAOYSA-N

>  <distance_score>  (3272) 
1.218986

>  <ref_mols>  (3272) 
Z1495a,Z0673a

>  <ref_pdb>  (3272) 
Z3093a

>  <HIPPO Compound ID>  (3272) 
141919

>  <name>  (3272) 
OILFHAGLQLLAHT-UHFFFAOYSA-N-P29-P29-P84-601526

>  <inspiration_score>  (3272) 
None

$$$$
FEYWWJNYGQTBMQ-UHFFFAOYSA-N-P84-P29-P84-601526
     RDKit          3D

 29 31  0  0  0  0  0  0  0  0999 V2000
   -9.4649    3.9092  -17.9798 C   0  0  0  0  0  0  0  0  0  0  0  0
   -8.1601    4.4398  -17.4440 C   0  0  0  0  0  0  0  0  0  0  0  0
   -7.1982    4.5341  -18.5104 O   0  0  0  0  0  0  0  0  0  0  0  0
   -5.9365    5.0203  -18.3023 C   0  0  0  0  0  0  0  0  0  0  0  0
   -5.0265    4.7950  -19.0979 O   0  0  0  0  0  0  0  0  0  0  0  0
   -5.6590    5.7879  -17.0784 C   0  0  0  0  0  0  0  0  0  0  0  0
   -6.6322    6.4405  -16.3288 N   0  0  0  0  0  0  0  0  0  0  0  0
   -6.1593    6.6135  -15.1271 C   0  0  0  0  0  0  0  0  0  0  0  0
   -6.7984    6.4225  -13.9634 N   0  0  0  0  0  0  0  0  0  0  0  0
   -8.2860    6.1776  -13.6709 C   0  0  0  0  0  0  0  0  0  0  0  0
   -9.2046    6.1789  -14.3832 O   0  0  0  0  0  0  0  0  0  0  0  0
   -8.3554    5.8142  -12.2395 C   0  0  0  0  0  0  0  0  0  0  0  0
   -8.2850    6.8049  -11.1797 C   0  0  0  0  0  0  0  0  0  0  0  0
   -8.2803    6.3710   -9.9073 C   0  0  0  0  0  0  0  0  0  0  0  0
   -8.3419    5.0003   -9.6558 N   0  0  0  0  0  0  0  0  0  0  0  0
   -8.3813    4.3369   -8.4613 C   0  0  0  0  0  0  0  0  0  0  0  0
   -8.4638    2.9884   -8.7751 C   0  0  0  0  0  0  0  0  0  0  0  0
   -8.5426    1.8214   -7.8397 C   0  0  0  0  0  0  0  0  0  0  0  0
   -9.7176    1.1487   -7.9249 F   0  0  0  0  0  0  0  0  0  0  0  0
   -8.4346    2.2340   -6.5447 F   0  0  0  0  0  0  0  0  0  0  0  0
   -7.5351    0.9473   -8.0550 F   0  0  0  0  0  0  0  0  0  0  0  0
   -8.4285    2.8292  -10.1522 N   0  0  0  0  0  0  0  0  0  0  0  0
   -8.3856    4.0371  -10.6537 C   0  0  0  0  0  0  0  0  0  0  0  0
   -8.3830    4.4873  -11.9976 C   0  0  0  0  0  0  0  0  0  0  0  0
   -4.4793    6.7001  -15.0013 S   0  0  0  0  0  0  0  0  0  0  0  0
   -4.4182    5.8325  -16.4684 C   0  0  0  0  0  0  0  0  0  0  0  0
   -3.2392    5.0775  -16.6999 C   0  0  0  0  0  0  0  0  0  0  0  0
   -2.4243    5.3536  -17.9341 C   0  0  0  0  0  0  0  0  0  0  0  0
   -2.8876    4.2386  -15.8745 O   0  0  0  0  0  0  0  0  0  0  0  0
  1  2  1  0
  2  3  1  0
  3  4  1  0
  4  5  2  0
  4  6  1  0
  6  7  1  0
  7  8  2  0
  8  9  1  0
  9 10  1  0
 10 11  2  0
 10 12  1  0
 12 13  1  0
 13 14  2  0
 14 15  1  0
 15 16  1  0
 16 17  2  0
 17 18  1  0
 18 19  1  0
 18 20  1  0
 18 21  1  0
 17 22  1  0
 22 23  2  0
 23 24  1  0
  8 25  1  0
 25 26  1  0
 26 27  1  0
 27 28  1  0
 27 29  2  0
 26  6  2  0
 24 12  2  0
 23 15  1  0
M  END
>  <energy_score>  (3273) 
-52.340312

>  <alias>  (3273) 
FEYWWJNYGQTBMQ-UHFFFAOYSA-N-P84-P29-P84-601526

>  <HIPPO Pose ID>  (3273) 
77086

>  <smiles>  (3273) 
CCOC(=O)c1nc(NC(=O)c2ccn3cc(C(F)(F)F)nc3c2)sc1C(C)=O

>  <inchikey>  (3273) 
FEYWWJNYGQTBMQ-UHFFFAOYSA-N

>  <distance_score>  (3273) 
1.353749

>  <ref_mols>  (3273) 
Z1495a,Z0673a

>  <ref_pdb>  (3273) 
Z3093a

>  <HIPPO Compound ID>  (3273) 
141920

>  <name>  (3273) 
FEYWWJNYGQTBMQ-UHFFFAOYSA-N-P84-P29-P84-601526

>  <inspiration_score>  (3273) 
None

$$$$
PTIRTZVAUQIROX-UHFFFAOYSA-N-P84-P29-P84-601526
     RDKit          3D

 29 32  0  0  0  0  0  0  0  0999 V2000
   -9.2830    3.8461  -17.5394 C   0  0  0  0  0  0  0  0  0  0  0  0
   -8.6599    4.6262  -18.6749 C   0  0  0  0  0  0  0  0  0  0  0  0
   -7.3980    4.0553  -19.0600 O   0  0  0  0  0  0  0  0  0  0  0  0
   -6.1959    4.6210  -18.7353 C   0  0  0  0  0  0  0  0  0  0  0  0
   -5.1798    4.3398  -19.3639 O   0  0  0  0  0  0  0  0  0  0  0  0
   -6.0866    5.4852  -17.5629 C   0  0  0  0  0  0  0  0  0  0  0  0
   -7.0600    5.6085  -16.5898 N   0  0  0  0  0  0  0  0  0  0  0  0
   -6.5237    6.1278  -15.5260 C   0  0  0  0  0  0  0  0  0  0  0  0
   -7.0480    6.1122  -14.3019 N   0  0  0  0  0  0  0  0  0  0  0  0
   -8.4865    5.8700  -13.8398 C   0  0  0  0  0  0  0  0  0  0  0  0
   -9.4594    5.7214  -14.4541 O   0  0  0  0  0  0  0  0  0  0  0  0
   -8.3961    5.7542  -12.3820 C   0  0  0  0  0  0  0  0  0  0  0  0
   -8.2120    6.9072  -11.5204 C   0  0  0  0  0  0  0  0  0  0  0  0
   -8.0252    6.6834  -10.2108 C   0  0  0  0  0  0  0  0  0  0  0  0
   -8.0339    5.3704   -9.7475 N   0  0  0  0  0  0  0  0  0  0  0  0
   -8.0050    4.9212   -8.4608 C   0  0  0  0  0  0  0  0  0  0  0  0
   -8.3014    3.5825   -8.5746 C   0  0  0  0  0  0  0  0  0  0  0  0
   -8.9354    2.7719   -7.5760 C   0  0  0  0  0  0  0  0  0  0  0  0
   -9.2904    1.4288   -7.7141 C   0  0  0  0  0  0  0  0  0  0  0  0
  -10.1325    1.0447   -6.7523 N   0  0  0  0  0  0  0  0  0  0  0  0
  -10.3115    2.1650   -6.0431 N   0  0  0  0  0  0  0  0  0  0  0  0
  -11.2952    2.1869   -5.0086 C   0  0  0  0  0  0  0  0  0  0  0  0
   -9.5365    3.2086   -6.4237 C   0  0  0  0  0  0  0  0  0  0  0  0
   -8.2659    3.1536   -9.8670 N   0  0  0  0  0  0  0  0  0  0  0  0
   -8.1908    4.2564  -10.5637 C   0  0  0  0  0  0  0  0  0  0  0  0
   -8.3430    4.4812  -11.9474 C   0  0  0  0  0  0  0  0  0  0  0  0
   -4.9622    6.7469  -15.6394 S   0  0  0  0  0  0  0  0  0  0  0  0
   -4.9377    6.1671  -17.2312 C   0  0  0  0  0  0  0  0  0  0  0  0
   -3.5249    6.4286  -18.1371 Cl  0  0  0  0  0  0  0  0  0  0  0  0
  1  2  1  0
  2  3  1  0
  3  4  1  0
  4  5  2  0
  4  6  1  0
  6  7  1  0
  7  8  2  0
  8  9  1  0
  9 10  1  0
 10 11  2  0
 10 12  1  0
 12 13  1  0
 13 14  2  0
 14 15  1  0
 15 16  1  0
 16 17  2  0
 17 18  1  0
 18 19  1  0
 19 20  2  0
 20 21  1  0
 21 22  1  0
 21 23  1  0
 17 24  1  0
 24 25  2  0
 25 26  1  0
  8 27  1  0
 27 28  1  0
 28 29  1  0
 28  6  2  0
 26 12  2  0
 25 15  1  0
 23 18  2  0
M  END
>  <energy_score>  (3274) 
-51.285983

>  <alias>  (3274) 
PTIRTZVAUQIROX-UHFFFAOYSA-N-P84-P29-P84-601526

>  <HIPPO Pose ID>  (3274) 
77089

>  <smiles>  (3274) 
CCOC(=O)c1nc(NC(=O)c2ccn3cc(-c4cnn(C)c4)nc3c2)sc1Cl

>  <inchikey>  (3274) 
PTIRTZVAUQIROX-UHFFFAOYSA-N

>  <distance_score>  (3274) 
1.381975

>  <ref_mols>  (3274) 
Z1495a,Z0673a

>  <ref_pdb>  (3274) 
Z3093a

>  <HIPPO Compound ID>  (3274) 
141922

>  <name>  (3274) 
PTIRTZVAUQIROX-UHFFFAOYSA-N-P84-P29-P84-601526

>  <inspiration_score>  (3274) 
None

$$$$
BHZQMFAAQYMVEG-UHFFFAOYSA-N-P29-P29-P84-601526
     RDKit          3D

 29 32  0  0  0  0  0  0  0  0999 V2000
   -9.1288    3.9393  -17.6614 C   0  0  0  0  0  0  0  0  0  0  0  0
   -8.5073    4.6731  -18.8355 C   0  0  0  0  0  0  0  0  0  0  0  0
   -7.2476    4.1070  -19.2261 O   0  0  0  0  0  0  0  0  0  0  0  0
   -6.0713    4.7892  -19.0343 C   0  0  0  0  0  0  0  0  0  0  0  0
   -5.1997    4.7577  -19.8989 O   0  0  0  0  0  0  0  0  0  0  0  0
   -5.8327    5.4621  -17.7369 C   0  0  0  0  0  0  0  0  0  0  0  0
   -6.8300    5.6764  -16.7905 N   0  0  0  0  0  0  0  0  0  0  0  0
   -6.2944    5.9597  -15.6395 C   0  0  0  0  0  0  0  0  0  0  0  0
   -6.9139    5.9714  -14.4456 N   0  0  0  0  0  0  0  0  0  0  0  0
   -8.4133    5.9816  -14.0976 C   0  0  0  0  0  0  0  0  0  0  0  0
   -9.3471    6.0590  -14.7868 O   0  0  0  0  0  0  0  0  0  0  0  0
   -8.5150    5.7606  -12.6406 C   0  0  0  0  0  0  0  0  0  0  0  0
   -8.2548    6.7683  -11.6251 C   0  0  0  0  0  0  0  0  0  0  0  0
   -8.0752    6.3571  -10.3539 C   0  0  0  0  0  0  0  0  0  0  0  0
   -8.1442    4.9890  -10.0726 N   0  0  0  0  0  0  0  0  0  0  0  0
   -7.5962    4.2847   -9.0089 C   0  0  0  0  0  0  0  0  0  0  0  0
   -7.3562    3.0495   -9.6086 C   0  0  0  0  0  0  0  0  0  0  0  0
   -6.0236    2.6472  -10.0899 C   0  0  0  0  0  0  0  0  0  0  0  0
   -5.2291    3.5107  -10.8947 C   0  0  0  0  0  0  0  0  0  0  0  0
   -4.2421    2.8796  -11.5351 N   0  0  0  0  0  0  0  0  0  0  0  0
   -4.3190    1.6302  -11.0042 N   0  0  0  0  0  0  0  0  0  0  0  0
   -3.2546    0.6905  -11.2515 C   0  0  0  0  0  0  0  0  0  0  0  0
   -5.4267    1.4228  -10.2282 C   0  0  0  0  0  0  0  0  0  0  0  0
   -8.3223    2.8267  -10.5518 N   0  0  0  0  0  0  0  0  0  0  0  0
   -8.5179    4.0347  -11.0134 C   0  0  0  0  0  0  0  0  0  0  0  0
   -8.6979    4.4602  -12.3462 C   0  0  0  0  0  0  0  0  0  0  0  0
   -4.6257    6.2203  -15.6133 S   0  0  0  0  0  0  0  0  0  0  0  0
   -4.5779    5.8976  -17.3043 C   0  0  0  0  0  0  0  0  0  0  0  0
   -3.2896    6.0005  -18.0412 C   0  0  0  0  0  0  0  0  0  0  0  0
  1  2  1  0
  2  3  1  0
  3  4  1  0
  4  5  2  0
  4  6  1  0
  6  7  1  0
  7  8  2  0
  8  9  1  0
  9 10  1  0
 10 11  2  0
 10 12  1  0
 12 13  1  0
 13 14  2  0
 14 15  1  0
 15 16  1  0
 16 17  2  0
 17 18  1  0
 18 19  1  0
 19 20  2  0
 20 21  1  0
 21 22  1  0
 21 23  1  0
 17 24  1  0
 24 25  2  0
 25 26  1  0
  8 27  1  0
 27 28  1  0
 28 29  1  0
 28  6  2  0
 26 12  2  0
 25 15  1  0
 23 18  2  0
M  END
>  <energy_score>  (3275) 
-27.946018

>  <alias>  (3275) 
BHZQMFAAQYMVEG-UHFFFAOYSA-N-P29-P29-P84-601526

>  <HIPPO Pose ID>  (3275) 
77090

>  <smiles>  (3275) 
CCOC(=O)c1nc(NC(=O)c2ccn3cc(-c4cnn(C)c4)nc3c2)sc1C

>  <inchikey>  (3275) 
BHZQMFAAQYMVEG-UHFFFAOYSA-N

>  <distance_score>  (3275) 
1.780696

>  <ref_mols>  (3275) 
Z1495a,Z0673a

>  <ref_pdb>  (3275) 
Z3093a

>  <HIPPO Compound ID>  (3275) 
141923

>  <name>  (3275) 
BHZQMFAAQYMVEG-UHFFFAOYSA-N-P29-P29-P84-601526

>  <inspiration_score>  (3275) 
None

$$$$
DSAUVGXYBPDVLR-UHFFFAOYSA-N-P84-P29-P84-601526
     RDKit          3D

 29 32  0  0  0  0  0  0  0  0999 V2000
   -9.3390    4.2242  -17.6178 C   0  0  0  0  0  0  0  0  0  0  0  0
   -8.1773    4.3980  -18.5725 C   0  0  0  0  0  0  0  0  0  0  0  0
   -7.9243    5.7904  -18.8207 O   0  0  0  0  0  0  0  0  0  0  0  0
   -6.7064    6.3282  -18.5523 C   0  0  0  0  0  0  0  0  0  0  0  0
   -6.1673    7.1801  -19.2515 O   0  0  0  0  0  0  0  0  0  0  0  0
   -6.1491    5.8754  -17.3022 C   0  0  0  0  0  0  0  0  0  0  0  0
   -6.9595    5.8767  -16.1971 N   0  0  0  0  0  0  0  0  0  0  0  0
   -6.3141    5.3740  -15.1955 C   0  0  0  0  0  0  0  0  0  0  0  0
   -6.8537    5.2427  -13.9869 N   0  0  0  0  0  0  0  0  0  0  0  0
   -8.2331    5.6661  -13.4588 C   0  0  0  0  0  0  0  0  0  0  0  0
   -9.1446    6.1271  -14.0146 O   0  0  0  0  0  0  0  0  0  0  0  0
   -8.1729    5.4685  -12.0126 C   0  0  0  0  0  0  0  0  0  0  0  0
   -7.8793    6.6016  -11.1549 C   0  0  0  0  0  0  0  0  0  0  0  0
   -7.7368    6.3706   -9.8436 C   0  0  0  0  0  0  0  0  0  0  0  0
   -7.9013    5.0717   -9.3763 N   0  0  0  0  0  0  0  0  0  0  0  0
   -7.9228    4.6345   -8.0873 C   0  0  0  0  0  0  0  0  0  0  0  0
   -8.3864    3.3428   -8.1843 C   0  0  0  0  0  0  0  0  0  0  0  0
   -9.1408    2.6550   -7.1709 C   0  0  0  0  0  0  0  0  0  0  0  0
   -9.6776    1.3694   -7.2672 C   0  0  0  0  0  0  0  0  0  0  0  0
  -10.6152    1.1604   -6.3365 N   0  0  0  0  0  0  0  0  0  0  0  0
  -10.7050    2.3475   -5.7153 N   0  0  0  0  0  0  0  0  0  0  0  0
  -11.9028    2.7143   -5.0098 C   0  0  0  0  0  0  0  0  0  0  0  0
   -9.7291    3.2287   -6.0686 C   0  0  0  0  0  0  0  0  0  0  0  0
   -8.4042    2.8976   -9.4758 N   0  0  0  0  0  0  0  0  0  0  0  0
   -8.1878    3.9758  -10.1846 C   0  0  0  0  0  0  0  0  0  0  0  0
   -8.2951    4.2038  -11.5735 C   0  0  0  0  0  0  0  0  0  0  0  0
   -4.7107    4.9095  -15.4360 S   0  0  0  0  0  0  0  0  0  0  0  0
   -4.8905    5.3944  -17.0610 C   0  0  0  0  0  0  0  0  0  0  0  0
   -3.5327    5.2362  -18.3541 Br  0  0  0  0  0  0  0  0  0  0  0  0
  1  2  1  0
  2  3  1  0
  3  4  1  0
  4  5  2  0
  4  6  1  0
  6  7  1  0
  7  8  2  0
  8  9  1  0
  9 10  1  0
 10 11  2  0
 10 12  1  0
 12 13  1  0
 13 14  2  0
 14 15  1  0
 15 16  1  0
 16 17  2  0
 17 18  1  0
 18 19  1  0
 19 20  2  0
 20 21  1  0
 21 22  1  0
 21 23  1  0
 17 24  1  0
 24 25  2  0
 25 26  1  0
  8 27  1  0
 27 28  1  0
 28 29  1  0
 28  6  2  0
 26 12  2  0
 25 15  1  0
 23 18  2  0
M  END
>  <energy_score>  (3276) 
-45.193769

>  <alias>  (3276) 
DSAUVGXYBPDVLR-UHFFFAOYSA-N-P84-P29-P84-601526

>  <HIPPO Pose ID>  (3276) 
77093

>  <smiles>  (3276) 
CCOC(=O)c1nc(NC(=O)c2ccn3cc(-c4cnn(C)c4)nc3c2)sc1Br

>  <inchikey>  (3276) 
DSAUVGXYBPDVLR-UHFFFAOYSA-N

>  <distance_score>  (3276) 
1.472949

>  <ref_mols>  (3276) 
Z1495a,Z0673a

>  <ref_pdb>  (3276) 
Z3093a

>  <HIPPO Compound ID>  (3276) 
141924

>  <name>  (3276) 
DSAUVGXYBPDVLR-UHFFFAOYSA-N-P84-P29-P84-601526

>  <inspiration_score>  (3276) 
None

$$$$
JIWVFBQRMQSJFP-UHFFFAOYSA-N-P29-P29-P84-601526
     RDKit          3D

 30 33  0  0  0  0  0  0  0  0999 V2000
   -9.5887    3.9144  -18.1526 C   0  0  0  0  0  0  0  0  0  0  0  0
   -8.1779    4.4059  -17.9494 C   0  0  0  0  0  0  0  0  0  0  0  0
   -7.4175    4.2963  -19.1667 O   0  0  0  0  0  0  0  0  0  0  0  0
   -6.0970    4.6855  -19.2483 C   0  0  0  0  0  0  0  0  0  0  0  0
   -5.4879    4.5399  -20.3021 O   0  0  0  0  0  0  0  0  0  0  0  0
   -5.4148    5.1754  -18.0327 C   0  0  0  0  0  0  0  0  0  0  0  0
   -6.1359    5.6671  -16.9663 N   0  0  0  0  0  0  0  0  0  0  0  0
   -5.4134    5.6810  -15.8936 C   0  0  0  0  0  0  0  0  0  0  0  0
   -5.9595    5.7531  -14.6679 N   0  0  0  0  0  0  0  0  0  0  0  0
   -7.4367    5.8326  -14.2335 C   0  0  0  0  0  0  0  0  0  0  0  0
   -8.4074    5.9255  -14.8707 O   0  0  0  0  0  0  0  0  0  0  0  0
   -7.4945    5.6982  -12.7638 C   0  0  0  0  0  0  0  0  0  0  0  0
   -7.3602    6.8693  -11.9132 C   0  0  0  0  0  0  0  0  0  0  0  0
   -7.5161    6.7153  -10.5896 C   0  0  0  0  0  0  0  0  0  0  0  0
   -7.7880    5.4477  -10.0881 N   0  0  0  0  0  0  0  0  0  0  0  0
   -8.0106    5.0738   -8.7980 C   0  0  0  0  0  0  0  0  0  0  0  0
   -8.3107    3.7356   -8.8722 C   0  0  0  0  0  0  0  0  0  0  0  0
   -8.8795    2.9356   -7.8244 C   0  0  0  0  0  0  0  0  0  0  0  0
   -9.0704    1.5563   -7.8522 C   0  0  0  0  0  0  0  0  0  0  0  0
   -9.8193    1.1396   -6.8321 N   0  0  0  0  0  0  0  0  0  0  0  0
  -10.0657    2.2638   -6.1551 N   0  0  0  0  0  0  0  0  0  0  0  0
  -10.9429    2.2164   -5.0290 C   0  0  0  0  0  0  0  0  0  0  0  0
   -9.4587    3.3678   -6.6574 C   0  0  0  0  0  0  0  0  0  0  0  0
   -8.1868    3.2530  -10.1473 N   0  0  0  0  0  0  0  0  0  0  0  0
   -7.9138    4.3082  -10.8763 C   0  0  0  0  0  0  0  0  0  0  0  0
   -7.7717    4.4703  -12.2794 C   0  0  0  0  0  0  0  0  0  0  0  0
   -3.7529    5.4922  -16.1124 S   0  0  0  0  0  0  0  0  0  0  0  0
   -4.0389    5.2139  -17.8002 C   0  0  0  0  0  0  0  0  0  0  0  0
   -2.8901    4.9799  -18.7283 C   0  0  0  0  0  0  0  0  0  0  0  0
   -2.5807    6.2168  -19.5586 C   0  0  0  0  0  0  0  0  0  0  0  0
  1  2  1  0
  2  3  1  0
  3  4  1  0
  4  5  2  0
  4  6  1  0
  6  7  1  0
  7  8  2  0
  8  9  1  0
  9 10  1  0
 10 11  2  0
 10 12  1  0
 12 13  1  0
 13 14  2  0
 14 15  1  0
 15 16  1  0
 16 17  2  0
 17 18  1  0
 18 19  1  0
 19 20  2  0
 20 21  1  0
 21 22  1  0
 21 23  1  0
 17 24  1  0
 24 25  2  0
 25 26  1  0
  8 27  1  0
 27 28  1  0
 28 29  1  0
 29 30  1  0
 28  6  2  0
 26 12  2  0
 25 15  1  0
 23 18  2  0
M  END
>  <energy_score>  (3277) 
-63.050579

>  <alias>  (3277) 
JIWVFBQRMQSJFP-UHFFFAOYSA-N-P29-P29-P84-601526

>  <HIPPO Pose ID>  (3277) 
77096

>  <smiles>  (3277) 
CCOC(=O)c1nc(NC(=O)c2ccn3cc(-c4cnn(C)c4)nc3c2)sc1CC

>  <inchikey>  (3277) 
JIWVFBQRMQSJFP-UHFFFAOYSA-N

>  <distance_score>  (3277) 
1.509779

>  <ref_mols>  (3277) 
Z1495a,Z0673a

>  <ref_pdb>  (3277) 
Z3093a

>  <HIPPO Compound ID>  (3277) 
141926

>  <name>  (3277) 
JIWVFBQRMQSJFP-UHFFFAOYSA-N-P29-P29-P84-601526

>  <inspiration_score>  (3277) 
None

$$$$
YEROUSOGYPTTST-UHFFFAOYSA-N-P84-P29-P84-601526
     RDKit          3D

 30 33  0  0  0  0  0  0  0  0999 V2000
   -9.4681    3.7570  -17.6597 C   0  0  0  0  0  0  0  0  0  0  0  0
   -8.6662    4.5596  -18.6554 C   0  0  0  0  0  0  0  0  0  0  0  0
   -7.4447    3.8929  -19.0156 O   0  0  0  0  0  0  0  0  0  0  0  0
   -6.2434    4.4008  -18.6057 C   0  0  0  0  0  0  0  0  0  0  0  0
   -5.2275    4.3085  -19.2862 O   0  0  0  0  0  0  0  0  0  0  0  0
   -6.2067    5.0610  -17.3091 C   0  0  0  0  0  0  0  0  0  0  0  0
   -6.8783    4.5687  -16.1995 N   0  0  0  0  0  0  0  0  0  0  0  0
   -6.8309    5.4557  -15.2513 C   0  0  0  0  0  0  0  0  0  0  0  0
   -7.3246    5.3213  -14.0137 N   0  0  0  0  0  0  0  0  0  0  0  0
   -7.6421    6.3809  -12.9430 C   0  0  0  0  0  0  0  0  0  0  0  0
   -7.5972    7.5460  -12.9947 O   0  0  0  0  0  0  0  0  0  0  0  0
   -7.9593    5.7219  -11.6262 C   0  0  0  0  0  0  0  0  0  0  0  0
   -7.7365    6.5706  -10.4472 C   0  0  0  0  0  0  0  0  0  0  0  0
   -7.8846    6.0585   -9.2200 C   0  0  0  0  0  0  0  0  0  0  0  0
   -8.2608    4.7329   -9.0951 N   0  0  0  0  0  0  0  0  0  0  0  0
   -8.4453    3.9970   -7.9625 C   0  0  0  0  0  0  0  0  0  0  0  0
   -8.8149    2.7447   -8.4000 C   0  0  0  0  0  0  0  0  0  0  0  0
   -9.1171    1.5560   -7.5866 C   0  0  0  0  0  0  0  0  0  0  0  0
   -8.8684    2.7030   -9.7715 N   0  0  0  0  0  0  0  0  0  0  0  0
   -8.5235    3.9025  -10.1719 C   0  0  0  0  0  0  0  0  0  0  0  0
   -8.3818    4.4459  -11.4775 C   0  0  0  0  0  0  0  0  0  0  0  0
   -5.9346    6.8504  -15.5564 S   0  0  0  0  0  0  0  0  0  0  0  0
   -5.4701    6.2020  -17.0535 C   0  0  0  0  0  0  0  0  0  0  0  0
   -4.4859    6.9204  -17.8843 C   0  0  0  0  0  0  0  0  0  0  0  0
   -3.0727    6.4281  -17.7016 C   0  0  0  0  0  0  0  0  0  0  0  0
   -2.4825    5.6356  -18.6928 C   0  0  0  0  0  0  0  0  0  0  0  0
   -1.1475    5.2617  -18.5981 C   0  0  0  0  0  0  0  0  0  0  0  0
   -0.3881    5.6810  -17.5093 C   0  0  0  0  0  0  0  0  0  0  0  0
   -0.9728    6.4295  -16.4905 C   0  0  0  0  0  0  0  0  0  0  0  0
   -2.3141    6.7963  -16.5814 C   0  0  0  0  0  0  0  0  0  0  0  0
  1  2  1  0
  2  3  1  0
  3  4  1  0
  4  5  2  0
  4  6  1  0
  6  7  1  0
  7  8  2  0
  8  9  1  0
  9 10  1  0
 10 11  2  0
 10 12  1  0
 12 13  1  0
 13 14  2  0
 14 15  1  0
 15 16  1  0
 16 17  2  0
 17 18  1  0
 17 19  1  0
 19 20  2  0
 20 21  1  0
  8 22  1  0
 22 23  1  0
 23 24  1  0
 24 25  1  0
 25 26  2  0
 26 27  1  0
 27 28  2  0
 28 29  1  0
 29 30  2  0
 23  6  2  0
 30 25  1  0
 21 12  2  0
 20 15  1  0
M  END
>  <energy_score>  (3278) 
-24.744673

>  <alias>  (3278) 
YEROUSOGYPTTST-UHFFFAOYSA-N-P84-P29-P84-601526

>  <HIPPO Pose ID>  (3278) 
77103

>  <smiles>  (3278) 
CCOC(=O)c1nc(NC(=O)c2ccn3cc(C)nc3c2)sc1Cc1ccccc1

>  <inchikey>  (3278) 
YEROUSOGYPTTST-UHFFFAOYSA-N

>  <distance_score>  (3278) 
1.578796

>  <ref_mols>  (3278) 
Z1495a,Z0673a

>  <ref_pdb>  (3278) 
Z3093a

>  <HIPPO Compound ID>  (3278) 
141929

>  <name>  (3278) 
YEROUSOGYPTTST-UHFFFAOYSA-N-P84-P29-P84-601526

>  <inspiration_score>  (3278) 
None

$$$$
AJRALRLBZHYVHD-UHFFFAOYSA-N-P29-P29-P84-601526
     RDKit          3D

 30 33  0  0  0  0  0  0  0  0999 V2000
   -9.5146    4.0571  -17.8559 C   0  0  0  0  0  0  0  0  0  0  0  0
   -8.3403    4.2988  -18.7806 C   0  0  0  0  0  0  0  0  0  0  0  0
   -8.0989    5.7030  -18.9393 O   0  0  0  0  0  0  0  0  0  0  0  0
   -6.9613    6.2784  -18.4756 C   0  0  0  0  0  0  0  0  0  0  0  0
   -6.4021    7.2207  -19.0309 O   0  0  0  0  0  0  0  0  0  0  0  0
   -6.5061    5.7595  -17.2021 C   0  0  0  0  0  0  0  0  0  0  0  0
   -7.3548    5.7312  -16.1157 N   0  0  0  0  0  0  0  0  0  0  0  0
   -6.7380    5.1600  -15.1277 C   0  0  0  0  0  0  0  0  0  0  0  0
   -7.2018    5.0171  -13.8857 N   0  0  0  0  0  0  0  0  0  0  0  0
   -8.5509    5.4142  -13.2743 C   0  0  0  0  0  0  0  0  0  0  0  0
   -9.5031    5.8595  -13.7721 O   0  0  0  0  0  0  0  0  0  0  0  0
   -8.4184    5.1767  -11.8261 C   0  0  0  0  0  0  0  0  0  0  0  0
   -8.5993    3.8998  -11.4383 C   0  0  0  0  0  0  0  0  0  0  0  0
   -8.5100    3.5913  -10.0615 C   0  0  0  0  0  0  0  0  0  0  0  0
   -8.6891    2.4649   -9.4209 N   0  0  0  0  0  0  0  0  0  0  0  0
   -8.4514    2.7473   -8.1047 C   0  0  0  0  0  0  0  0  0  0  0  0
   -8.1599    4.0818   -7.9346 C   0  0  0  0  0  0  0  0  0  0  0  0
   -8.2006    4.6253   -9.1896 N   0  0  0  0  0  0  0  0  0  0  0  0
   -7.9833    5.9390   -9.5916 C   0  0  0  0  0  0  0  0  0  0  0  0
   -8.0853    6.2506  -10.8954 C   0  0  0  0  0  0  0  0  0  0  0  0
   -7.7968    7.9898  -11.5005 Br  0  0  0  0  0  0  0  0  0  0  0  0
   -5.1815    4.5784  -15.3995 S   0  0  0  0  0  0  0  0  0  0  0  0
   -5.2599    5.2115  -16.9838 C   0  0  0  0  0  0  0  0  0  0  0  0
   -4.1948    4.9945  -17.9798 C   0  0  0  0  0  0  0  0  0  0  0  0
   -2.8257    5.5541  -17.7247 C   0  0  0  0  0  0  0  0  0  0  0  0
   -2.4746    6.4165  -16.6811 C   0  0  0  0  0  0  0  0  0  0  0  0
   -1.1575    6.8601  -16.5531 C   0  0  0  0  0  0  0  0  0  0  0  0
   -0.1912    6.4585  -17.4739 C   0  0  0  0  0  0  0  0  0  0  0  0
   -0.5373    5.6277  -18.5332 C   0  0  0  0  0  0  0  0  0  0  0  0
   -1.8445    5.1787  -18.6559 C   0  0  0  0  0  0  0  0  0  0  0  0
  1  2  1  0
  2  3  1  0
  3  4  1  0
  4  5  2  0
  4  6  1  0
  6  7  1  0
  7  8  2  0
  8  9  1  0
  9 10  1  0
 10 11  2  0
 10 12  1  0
 12 13  2  0
 13 14  1  0
 14 15  2  0
 15 16  1  0
 16 17  2  0
 17 18  1  0
 18 19  1  0
 19 20  2  0
 20 21  1  0
  8 22  1  0
 22 23  1  0
 23 24  1  0
 24 25  1  0
 25 26  2  0
 26 27  1  0
 27 28  2  0
 28 29  1  0
 29 30  2  0
 23  6  2  0
 30 25  1  0
 20 12  1  0
 18 14  1  0
M  END
>  <energy_score>  (3279) 
-76.36742

>  <alias>  (3279) 
AJRALRLBZHYVHD-UHFFFAOYSA-N-P29-P29-P84-601526

>  <HIPPO Pose ID>  (3279) 
77108

>  <smiles>  (3279) 
CCOC(=O)c1nc(NC(=O)c2cc3nccn3cc2Br)sc1Cc1ccccc1

>  <inchikey>  (3279) 
AJRALRLBZHYVHD-UHFFFAOYSA-N

>  <distance_score>  (3279) 
1.464218

>  <ref_mols>  (3279) 
Z1495a,Z0673a

>  <ref_pdb>  (3279) 
Z3093a

>  <HIPPO Compound ID>  (3279) 
141932

>  <name>  (3279) 
AJRALRLBZHYVHD-UHFFFAOYSA-N-P29-P29-P84-601526

>  <inspiration_score>  (3279) 
None

$$$$
ZWMKNXWDQLYGSI-UHFFFAOYSA-N-P84-P29-P84-601526
     RDKit          3D

 30 33  0  0  0  0  0  0  0  0999 V2000
   -9.3935    4.2382  -17.6472 C   0  0  0  0  0  0  0  0  0  0  0  0
   -8.1748    4.4055  -18.5272 C   0  0  0  0  0  0  0  0  0  0  0  0
   -7.8660    5.7930  -18.7275 O   0  0  0  0  0  0  0  0  0  0  0  0
   -6.7040    6.3092  -18.2563 C   0  0  0  0  0  0  0  0  0  0  0  0
   -6.0578    7.1601  -18.8601 O   0  0  0  0  0  0  0  0  0  0  0  0
   -6.3463    5.8463  -16.9298 C   0  0  0  0  0  0  0  0  0  0  0  0
   -7.2282    6.0049  -15.8731 N   0  0  0  0  0  0  0  0  0  0  0  0
   -6.7196    5.4230  -14.8302 C   0  0  0  0  0  0  0  0  0  0  0  0
   -7.2051    5.3495  -13.5932 N   0  0  0  0  0  0  0  0  0  0  0  0
   -8.5032    5.9042  -12.9990 C   0  0  0  0  0  0  0  0  0  0  0  0
   -9.3211    6.5795  -13.4733 O   0  0  0  0  0  0  0  0  0  0  0  0
   -8.4822    5.4789  -11.5854 C   0  0  0  0  0  0  0  0  0  0  0  0
   -8.3047    6.4600  -10.5342 C   0  0  0  0  0  0  0  0  0  0  0  0
   -8.2071    6.0348   -9.2606 C   0  0  0  0  0  0  0  0  0  0  0  0
   -7.9794    7.2480   -7.8573 Br  0  0  0  0  0  0  0  0  0  0  0  0
   -8.2963    4.6544   -9.0068 N   0  0  0  0  0  0  0  0  0  0  0  0
   -8.2466    3.9467   -7.8296 C   0  0  0  0  0  0  0  0  0  0  0  0
   -8.3892    2.6237   -8.1782 C   0  0  0  0  0  0  0  0  0  0  0  0
   -8.5381    2.4909   -9.5272 N   0  0  0  0  0  0  0  0  0  0  0  0
   -8.4717    3.7045  -10.0100 C   0  0  0  0  0  0  0  0  0  0  0  0
   -8.5520    4.1563  -11.3457 C   0  0  0  0  0  0  0  0  0  0  0  0
   -5.2539    4.6191  -15.0050 S   0  0  0  0  0  0  0  0  0  0  0  0
   -5.2072    5.1271  -16.6284 C   0  0  0  0  0  0  0  0  0  0  0  0
   -4.1343    4.6421  -17.5065 C   0  0  0  0  0  0  0  0  0  0  0  0
   -2.9136    5.5046  -17.5901 C   0  0  0  0  0  0  0  0  0  0  0  0
   -2.5499    6.0315  -18.8311 C   0  0  0  0  0  0  0  0  0  0  0  0
   -1.3210    6.6605  -18.9836 C   0  0  0  0  0  0  0  0  0  0  0  0
   -0.4637    6.7988  -17.8939 C   0  0  0  0  0  0  0  0  0  0  0  0
   -0.8402    6.3273  -16.6410 C   0  0  0  0  0  0  0  0  0  0  0  0
   -2.0612    5.6763  -16.4887 C   0  0  0  0  0  0  0  0  0  0  0  0
  1  2  1  0
  2  3  1  0
  3  4  1  0
  4  5  2  0
  4  6  1  0
  6  7  1  0
  7  8  2  0
  8  9  1  0
  9 10  1  0
 10 11  2  0
 10 12  1  0
 12 13  1  0
 13 14  2  0
 14 15  1  0
 14 16  1  0
 16 17  1  0
 17 18  2  0
 18 19  1  0
 19 20  2  0
 20 21  1  0
  8 22  1  0
 22 23  1  0
 23 24  1  0
 24 25  1  0
 25 26  2  0
 26 27  1  0
 27 28  2  0
 28 29  1  0
 29 30  2  0
 23  6  2  0
 30 25  1  0
 21 12  2  0
 20 16  1  0
M  END
>  <energy_score>  (3280) 
-23.031856

>  <alias>  (3280) 
ZWMKNXWDQLYGSI-UHFFFAOYSA-N-P84-P29-P84-601526

>  <HIPPO Pose ID>  (3280) 
77111

>  <smiles>  (3280) 
CCOC(=O)c1nc(NC(=O)c2cc(Br)n3ccnc3c2)sc1Cc1ccccc1

>  <inchikey>  (3280) 
ZWMKNXWDQLYGSI-UHFFFAOYSA-N

>  <distance_score>  (3280) 
1.489503

>  <ref_mols>  (3280) 
Z1495a,Z0673a

>  <ref_pdb>  (3280) 
Z3093a

>  <HIPPO Compound ID>  (3280) 
141933

>  <name>  (3280) 
ZWMKNXWDQLYGSI-UHFFFAOYSA-N-P84-P29-P84-601526

>  <inspiration_score>  (3280) 
None

$$$$
DOXQJTOVLPIJRZ-UHFFFAOYSA-N-P84-P29-P84-601526
     RDKit          3D

 30 32  0  0  0  0  0  0  0  0999 V2000
   -9.6088    4.4670  -18.4753 C   0  0  0  0  0  0  0  0  0  0  0  0
   -8.2785    4.6199  -17.7926 C   0  0  0  0  0  0  0  0  0  0  0  0
   -7.4615    5.6505  -18.3908 O   0  0  0  0  0  0  0  0  0  0  0  0
   -6.1430    5.8375  -18.0387 C   0  0  0  0  0  0  0  0  0  0  0  0
   -5.4472    6.6558  -18.6344 O   0  0  0  0  0  0  0  0  0  0  0  0
   -5.6134    5.1098  -16.8705 C   0  0  0  0  0  0  0  0  0  0  0  0
   -6.4565    4.3839  -16.0727 N   0  0  0  0  0  0  0  0  0  0  0  0
   -5.9119    4.1560  -14.9246 C   0  0  0  0  0  0  0  0  0  0  0  0
   -6.5947    4.1699  -13.7782 N   0  0  0  0  0  0  0  0  0  0  0  0
   -8.0330    4.6339  -13.4758 C   0  0  0  0  0  0  0  0  0  0  0  0
   -8.8733    5.0046  -14.1919 O   0  0  0  0  0  0  0  0  0  0  0  0
   -8.1731    4.6336  -12.0174 C   0  0  0  0  0  0  0  0  0  0  0  0
   -7.9982    5.8572  -11.2487 C   0  0  0  0  0  0  0  0  0  0  0  0
   -8.0888    5.7763   -9.9111 C   0  0  0  0  0  0  0  0  0  0  0  0
   -8.3621    4.5374   -9.3329 N   0  0  0  0  0  0  0  0  0  0  0  0
   -8.5114    4.2038   -8.0162 C   0  0  0  0  0  0  0  0  0  0  0  0
   -8.8284    2.8525   -8.0007 C   0  0  0  0  0  0  0  0  0  0  0  0
   -9.1176    1.9812   -6.8245 C   0  0  0  0  0  0  0  0  0  0  0  0
   -8.0098    1.3297   -6.4040 F   0  0  0  0  0  0  0  0  0  0  0  0
   -9.5546    2.7348   -5.7727 F   0  0  0  0  0  0  0  0  0  0  0  0
  -10.0800    1.0505   -7.0524 F   0  0  0  0  0  0  0  0  0  0  0  0
   -8.8408    2.3598   -9.2863 N   0  0  0  0  0  0  0  0  0  0  0  0
   -8.5506    3.3706  -10.0596 C   0  0  0  0  0  0  0  0  0  0  0  0
   -8.4282    3.4401  -11.4617 C   0  0  0  0  0  0  0  0  0  0  0  0
   -4.2324    4.2287  -14.8945 S   0  0  0  0  0  0  0  0  0  0  0  0
   -4.3520    5.2265  -16.3022 C   0  0  0  0  0  0  0  0  0  0  0  0
   -3.3145    6.2203  -16.5579 C   0  0  0  0  0  0  0  0  0  0  0  0
   -2.1955    6.0112  -15.8147 F   0  0  0  0  0  0  0  0  0  0  0  0
   -2.9129    6.2817  -17.8470 F   0  0  0  0  0  0  0  0  0  0  0  0
   -3.7911    7.4309  -16.1856 F   0  0  0  0  0  0  0  0  0  0  0  0
  1  2  1  0
  2  3  1  0
  3  4  1  0
  4  5  2  0
  4  6  1  0
  6  7  1  0
  7  8  2  0
  8  9  1  0
  9 10  1  0
 10 11  2  0
 10 12  1  0
 12 13  1  0
 13 14  2  0
 14 15  1  0
 15 16  1  0
 16 17  2  0
 17 18  1  0
 18 19  1  0
 18 20  1  0
 18 21  1  0
 17 22  1  0
 22 23  2  0
 23 24  1  0
  8 25  1  0
 25 26  1  0
 26 27  1  0
 27 28  1  0
 27 29  1  0
 27 30  1  0
 26  6  2  0
 24 12  2  0
 23 15  1  0
M  END
>  <energy_score>  (3281) 
-17.155566

>  <alias>  (3281) 
DOXQJTOVLPIJRZ-UHFFFAOYSA-N-P84-P29-P84-601526

>  <HIPPO Pose ID>  (3281) 
77113

>  <smiles>  (3281) 
CCOC(=O)c1nc(NC(=O)c2ccn3cc(C(F)(F)F)nc3c2)sc1C(F)(F)F

>  <inchikey>  (3281) 
DOXQJTOVLPIJRZ-UHFFFAOYSA-N

>  <distance_score>  (3281) 
1.390413

>  <ref_mols>  (3281) 
Z1495a,Z0673a

>  <ref_pdb>  (3281) 
Z3093a

>  <HIPPO Compound ID>  (3281) 
141934

>  <name>  (3281) 
DOXQJTOVLPIJRZ-UHFFFAOYSA-N-P84-P29-P84-601526

>  <inspiration_score>  (3281) 
None

$$$$
ZJCZNIXTNNUWKP-UHFFFAOYSA-N-P84-P29-P84-601526
     RDKit          3D

 31 34  0  0  0  0  0  0  0  0999 V2000
  -10.7003    4.5663  -17.8979 C   0  0  0  0  0  0  0  0  0  0  0  0
   -9.4038    4.2320  -17.2153 C   0  0  0  0  0  0  0  0  0  0  0  0
   -8.5927    3.5741  -18.1940 O   0  0  0  0  0  0  0  0  0  0  0  0
   -7.4229    4.1393  -18.6237 C   0  0  0  0  0  0  0  0  0  0  0  0
   -6.9742    3.8476  -19.7219 O   0  0  0  0  0  0  0  0  0  0  0  0
   -6.7187    4.9965  -17.6738 C   0  0  0  0  0  0  0  0  0  0  0  0
   -6.6681    4.6099  -16.3431 N   0  0  0  0  0  0  0  0  0  0  0  0
   -6.1122    5.5348  -15.6003 C   0  0  0  0  0  0  0  0  0  0  0  0
   -6.1985    5.4654  -14.1893 N   0  0  0  0  0  0  0  0  0  0  0  0
   -4.8954    4.4991  -14.4016 C   0  0  0  0  0  0  0  0  0  0  0  0
   -3.5767    5.0501  -14.9627 C   0  0  0  0  0  0  0  0  0  0  0  0
   -3.1720    4.7019  -16.2657 C   0  0  0  0  0  0  0  0  0  0  0  0
   -2.0413    5.2803  -16.8422 C   0  0  0  0  0  0  0  0  0  0  0  0
   -1.2692    6.1744  -16.1065 C   0  0  0  0  0  0  0  0  0  0  0  0
   -1.6341    6.4968  -14.8000 C   0  0  0  0  0  0  0  0  0  0  0  0
   -2.7823    5.9408  -14.2306 C   0  0  0  0  0  0  0  0  0  0  0  0
   -5.9348    6.4372  -13.1962 C   0  0  0  0  0  0  0  0  0  0  0  0
   -5.4828    7.5488  -13.2877 O   0  0  0  0  0  0  0  0  0  0  0  0
   -6.4316    5.9120  -11.8552 C   0  0  0  0  0  0  0  0  0  0  0  0
   -5.9894    6.5588  -10.6196 C   0  0  0  0  0  0  0  0  0  0  0  0
   -6.3997    6.0913   -9.4216 C   0  0  0  0  0  0  0  0  0  0  0  0
   -5.8283    6.8945   -7.8328 Br  0  0  0  0  0  0  0  0  0  0  0  0
   -7.2653    4.9854   -9.3901 N   0  0  0  0  0  0  0  0  0  0  0  0
   -7.8074    4.2776   -8.3409 C   0  0  0  0  0  0  0  0  0  0  0  0
   -8.5645    3.2797   -8.9103 C   0  0  0  0  0  0  0  0  0  0  0  0
   -8.5424    3.3718  -10.2741 N   0  0  0  0  0  0  0  0  0  0  0  0
   -7.7432    4.3759  -10.5445 C   0  0  0  0  0  0  0  0  0  0  0  0
   -7.3078    4.8818  -11.7965 C   0  0  0  0  0  0  0  0  0  0  0  0
   -5.7303    6.9828  -16.4340 S   0  0  0  0  0  0  0  0  0  0  0  0
   -6.0695    6.1924  -17.9346 C   0  0  0  0  0  0  0  0  0  0  0  0
   -5.7587    6.8651  -19.2203 C   0  0  0  0  0  0  0  0  0  0  0  0
  1  2  1  0
  2  3  1  0
  3  4  1  0
  4  5  2  0
  4  6  1  0
  6  7  1  0
  7  8  2  0
  8  9  1  0
  9 10  1  0
 10 11  1  0
 11 12  2  0
 12 13  1  0
 13 14  2  0
 14 15  1  0
 15 16  2  0
  9 17  1  0
 17 18  2  0
 17 19  1  0
 19 20  1  0
 20 21  2  0
 21 22  1  0
 21 23  1  0
 23 24  1  0
 24 25  2  0
 25 26  1  0
 26 27  2  0
 27 28  1  0
  8 29  1  0
 29 30  1  0
 30 31  1  0
 30  6  2  0
 16 11  1  0
 28 19  2  0
 27 23  1  0
M  END
>  <energy_score>  (3282) 
-5.108633

>  <alias>  (3282) 
ZJCZNIXTNNUWKP-UHFFFAOYSA-N-P84-P29-P84-601526

>  <HIPPO Pose ID>  (3282) 
77115

>  <smiles>  (3282) 
CCOC(=O)c1nc(N(Cc2ccccc2)C(=O)c2cc(Br)n3ccnc3c2)sc1C

>  <inchikey>  (3282) 
ZJCZNIXTNNUWKP-UHFFFAOYSA-N

>  <distance_score>  (3282) 
1.756287

>  <ref_mols>  (3282) 
Z1495a,Z0673a

>  <ref_pdb>  (3282) 
Z3093a

>  <HIPPO Compound ID>  (3282) 
141935

>  <name>  (3282) 
ZJCZNIXTNNUWKP-UHFFFAOYSA-N-P84-P29-P84-601526

>  <inspiration_score>  (3282) 
None

$$$$
ZAEKCVTZSLEHJZ-UHFFFAOYSA-N-P84-P29-P84-601526
     RDKit          3D

 31 34  0  0  0  0  0  0  0  0999 V2000
   -9.4036    4.2029  -17.6876 C   0  0  0  0  0  0  0  0  0  0  0  0
   -8.1980    4.4147  -18.5775 C   0  0  0  0  0  0  0  0  0  0  0  0
   -7.8973    5.8118  -18.7126 O   0  0  0  0  0  0  0  0  0  0  0  0
   -6.7232    6.2969  -18.2428 C   0  0  0  0  0  0  0  0  0  0  0  0
   -6.0632    7.1485  -18.8310 O   0  0  0  0  0  0  0  0  0  0  0  0
   -6.3642    5.7986  -16.9289 C   0  0  0  0  0  0  0  0  0  0  0  0
   -7.2500    5.9192  -15.8702 N   0  0  0  0  0  0  0  0  0  0  0  0
   -6.7225    5.3467  -14.8327 C   0  0  0  0  0  0  0  0  0  0  0  0
   -7.1983    5.2788  -13.5918 N   0  0  0  0  0  0  0  0  0  0  0  0
   -8.5054    5.8125  -12.9963 C   0  0  0  0  0  0  0  0  0  0  0  0
   -9.3414    6.4631  -13.4742 O   0  0  0  0  0  0  0  0  0  0  0  0
   -8.4731    5.3982  -11.5842 C   0  0  0  0  0  0  0  0  0  0  0  0
   -8.5533    4.0777  -11.3253 C   0  0  0  0  0  0  0  0  0  0  0  0
   -8.4881    3.6469   -9.9779 C   0  0  0  0  0  0  0  0  0  0  0  0
   -8.5662    2.4461   -9.4636 N   0  0  0  0  0  0  0  0  0  0  0  0
   -8.4461    2.6155   -8.1106 C   0  0  0  0  0  0  0  0  0  0  0  0
   -8.3079    3.9464   -7.7986 C   0  0  0  0  0  0  0  0  0  0  0  0
   -8.1370    4.6638   -6.0503 Br  0  0  0  0  0  0  0  0  0  0  0  0
   -8.3217    4.6178   -8.9931 N   0  0  0  0  0  0  0  0  0  0  0  0
   -8.2054    5.9789   -9.2701 C   0  0  0  0  0  0  0  0  0  0  0  0
   -8.2815    6.3812  -10.5441 C   0  0  0  0  0  0  0  0  0  0  0  0
   -8.1587    7.6833  -10.8631 F   0  0  0  0  0  0  0  0  0  0  0  0
   -5.2431    4.5724  -15.0193 S   0  0  0  0  0  0  0  0  0  0  0  0
   -5.2115    5.0971  -16.6387 C   0  0  0  0  0  0  0  0  0  0  0  0
   -4.1344    4.6446  -17.5290 C   0  0  0  0  0  0  0  0  0  0  0  0
   -2.9154    5.5123  -17.5889 C   0  0  0  0  0  0  0  0  0  0  0  0
   -2.0711    5.6713  -16.4794 C   0  0  0  0  0  0  0  0  0  0  0  0
   -0.8483    6.3228  -16.6153 C   0  0  0  0  0  0  0  0  0  0  0  0
   -0.4612    6.8065  -17.8603 C   0  0  0  0  0  0  0  0  0  0  0  0
   -1.3101    6.6802  -18.9580 C   0  0  0  0  0  0  0  0  0  0  0  0
   -2.5408    6.0512  -18.8215 C   0  0  0  0  0  0  0  0  0  0  0  0
  1  2  1  0
  2  3  1  0
  3  4  1  0
  4  5  2  0
  4  6  1  0
  6  7  1  0
  7  8  2  0
  8  9  1  0
  9 10  1  0
 10 11  2  0
 10 12  1  0
 12 13  2  0
 13 14  1  0
 14 15  2  0
 15 16  1  0
 16 17  2  0
 17 18  1  0
 17 19  1  0
 19 20  1  0
 20 21  2  0
 21 22  1  0
  8 23  1  0
 23 24  1  0
 24 25  1  0
 25 26  1  0
 26 27  2  0
 27 28  1  0
 28 29  2  0
 29 30  1  0
 30 31  2  0
 24  6  2  0
 31 26  1  0
 21 12  1  0
 19 14  1  0
M  END
>  <energy_score>  (3283) 
-25.756778

>  <alias>  (3283) 
ZAEKCVTZSLEHJZ-UHFFFAOYSA-N-P84-P29-P84-601526

>  <HIPPO Pose ID>  (3283) 
77117

>  <smiles>  (3283) 
CCOC(=O)c1nc(NC(=O)c2cc3ncc(Br)n3cc2F)sc1Cc1ccccc1

>  <inchikey>  (3283) 
ZAEKCVTZSLEHJZ-UHFFFAOYSA-N

>  <distance_score>  (3283) 
1.607991

>  <ref_mols>  (3283) 
Z1495a,Z0673a

>  <ref_pdb>  (3283) 
Z3093a

>  <HIPPO Compound ID>  (3283) 
141936

>  <name>  (3283) 
ZAEKCVTZSLEHJZ-UHFFFAOYSA-N-P84-P29-P84-601526

>  <inspiration_score>  (3283) 
None

$$$$
ZFZOIUFYEFPDCY-UHFFFAOYSA-N-P84-P29-P84-601526
     RDKit          3D

 31 34  0  0  0  0  0  0  0  0999 V2000
   -9.2605    3.9848  -18.2542 C   0  0  0  0  0  0  0  0  0  0  0  0
   -7.9677    4.6469  -17.8473 C   0  0  0  0  0  0  0  0  0  0  0  0
   -6.9000    4.3788  -18.7767 O   0  0  0  0  0  0  0  0  0  0  0  0
   -5.6436    4.9006  -18.5811 C   0  0  0  0  0  0  0  0  0  0  0  0
   -4.7146    4.6411  -19.3449 O   0  0  0  0  0  0  0  0  0  0  0  0
   -5.3776    5.7212  -17.3887 C   0  0  0  0  0  0  0  0  0  0  0  0
   -6.3687    6.3828  -16.6723 N   0  0  0  0  0  0  0  0  0  0  0  0
   -5.9161    6.6060  -15.4740 C   0  0  0  0  0  0  0  0  0  0  0  0
   -6.5808    6.4843  -14.3173 N   0  0  0  0  0  0  0  0  0  0  0  0
   -8.0559    6.1492  -14.0442 C   0  0  0  0  0  0  0  0  0  0  0  0
   -8.9437    6.0018  -14.7792 O   0  0  0  0  0  0  0  0  0  0  0  0
   -8.1487    5.9314  -12.5834 C   0  0  0  0  0  0  0  0  0  0  0  0
   -8.0239    7.0527  -11.6649 C   0  0  0  0  0  0  0  0  0  0  0  0
   -7.9700    6.7935  -10.3508 C   0  0  0  0  0  0  0  0  0  0  0  0
   -8.0680    5.4749   -9.9216 N   0  0  0  0  0  0  0  0  0  0  0  0
   -8.1153    5.0058   -8.6446 C   0  0  0  0  0  0  0  0  0  0  0  0
   -8.4248    3.6738   -8.7828 C   0  0  0  0  0  0  0  0  0  0  0  0
   -9.0010    2.8428   -7.7603 C   0  0  0  0  0  0  0  0  0  0  0  0
   -9.2887    1.4811   -7.8514 C   0  0  0  0  0  0  0  0  0  0  0  0
  -10.0652    1.0711   -6.8448 N   0  0  0  0  0  0  0  0  0  0  0  0
  -10.2429    2.1837   -6.1247 N   0  0  0  0  0  0  0  0  0  0  0  0
  -11.1552    2.1665   -5.0240 C   0  0  0  0  0  0  0  0  0  0  0  0
   -9.5544    3.2613   -6.5749 C   0  0  0  0  0  0  0  0  0  0  0  0
   -8.3893    3.2751  -10.0914 N   0  0  0  0  0  0  0  0  0  0  0  0
   -8.2194    4.3845  -10.7715 C   0  0  0  0  0  0  0  0  0  0  0  0
   -8.2299    4.6497  -12.1674 C   0  0  0  0  0  0  0  0  0  0  0  0
   -4.2423    6.7342  -15.3333 S   0  0  0  0  0  0  0  0  0  0  0  0
   -4.1427    5.7975  -16.7639 C   0  0  0  0  0  0  0  0  0  0  0  0
   -2.9442    5.0430  -16.9325 C   0  0  0  0  0  0  0  0  0  0  0  0
   -2.1430    5.1935  -18.1955 C   0  0  0  0  0  0  0  0  0  0  0  0
   -2.5763    4.3117  -16.0177 O   0  0  0  0  0  0  0  0  0  0  0  0
  1  2  1  0
  2  3  1  0
  3  4  1  0
  4  5  2  0
  4  6  1  0
  6  7  1  0
  7  8  2  0
  8  9  1  0
  9 10  1  0
 10 11  2  0
 10 12  1  0
 12 13  1  0
 13 14  2  0
 14 15  1  0
 15 16  1  0
 16 17  2  0
 17 18  1  0
 18 19  1  0
 19 20  2  0
 20 21  1  0
 21 22  1  0
 21 23  1  0
 17 24  1  0
 24 25  2  0
 25 26  1  0
  8 27  1  0
 27 28  1  0
 28 29  1  0
 29 30  1  0
 29 31  2  0
 28  6  2  0
 26 12  2  0
 25 15  1  0
 23 18  2  0
M  END
>  <energy_score>  (3284) 
-29.796592

>  <alias>  (3284) 
ZFZOIUFYEFPDCY-UHFFFAOYSA-N-P84-P29-P84-601526

>  <HIPPO Pose ID>  (3284) 
77125

>  <smiles>  (3284) 
CCOC(=O)c1nc(NC(=O)c2ccn3cc(-c4cnn(C)c4)nc3c2)sc1C(C)=O

>  <inchikey>  (3284) 
ZFZOIUFYEFPDCY-UHFFFAOYSA-N

>  <distance_score>  (3284) 
1.401703

>  <ref_mols>  (3284) 
Z1495a,Z0673a

>  <ref_pdb>  (3284) 
Z3093a

>  <HIPPO Compound ID>  (3284) 
141940

>  <name>  (3284) 
ZFZOIUFYEFPDCY-UHFFFAOYSA-N-P84-P29-P84-601526

>  <inspiration_score>  (3284) 
None

$$$$
ABQWUBOVTVUJDV-UHFFFAOYSA-N-P29-P29-P84-601526
     RDKit          3D

 32 36  0  0  0  0  0  0  0  0999 V2000
   -9.6574    4.0411  -18.0207 C   0  0  0  0  0  0  0  0  0  0  0  0
   -8.4019    4.2511  -18.8422 C   0  0  0  0  0  0  0  0  0  0  0  0
   -8.0701    5.6439  -18.8854 O   0  0  0  0  0  0  0  0  0  0  0  0
   -6.9084    6.1311  -18.3794 C   0  0  0  0  0  0  0  0  0  0  0  0
   -6.3555    7.1078  -18.8825 O   0  0  0  0  0  0  0  0  0  0  0  0
   -6.4154    5.5040  -17.1531 C   0  0  0  0  0  0  0  0  0  0  0  0
   -7.2795    4.8092  -16.3128 N   0  0  0  0  0  0  0  0  0  0  0  0
   -6.6549    4.5319  -15.2111 C   0  0  0  0  0  0  0  0  0  0  0  0
   -7.1652    4.4751  -13.9788 N   0  0  0  0  0  0  0  0  0  0  0  0
   -8.5662    4.8209  -13.4651 C   0  0  0  0  0  0  0  0  0  0  0  0
   -9.5241    5.1373  -14.0421 O   0  0  0  0  0  0  0  0  0  0  0  0
   -8.4606    4.7762  -11.9982 C   0  0  0  0  0  0  0  0  0  0  0  0
   -8.0569    5.9995  -11.3114 C   0  0  0  0  0  0  0  0  0  0  0  0
   -7.9122    5.9600   -9.9804 C   0  0  0  0  0  0  0  0  0  0  0  0
   -8.1743    4.7654   -9.3194 N   0  0  0  0  0  0  0  0  0  0  0  0
   -8.1414    4.5086   -7.9820 C   0  0  0  0  0  0  0  0  0  0  0  0
   -8.6011    3.2197   -7.8615 C   0  0  0  0  0  0  0  0  0  0  0  0
   -8.8461    2.5163   -6.5133 C   0  0  0  0  0  0  0  0  0  0  0  0
  -10.2495    2.3709   -5.9933 C   0  0  0  0  0  0  0  0  0  0  0  0
   -9.3219    3.3439   -5.3363 C   0  0  0  0  0  0  0  0  0  0  0  0
   -8.8421    2.6489   -9.0762 N   0  0  0  0  0  0  0  0  0  0  0  0
   -8.5701    3.5893   -9.9503 C   0  0  0  0  0  0  0  0  0  0  0  0
   -8.6697    3.6108  -11.3640 C   0  0  0  0  0  0  0  0  0  0  0  0
   -4.9771    4.6818  -15.2287 S   0  0  0  0  0  0  0  0  0  0  0  0
   -5.1619    5.7039  -16.5940 C   0  0  0  0  0  0  0  0  0  0  0  0
   -4.0872    6.6624  -16.9314 C   0  0  0  0  0  0  0  0  0  0  0  0
   -2.8686    6.0562  -17.5638 C   0  0  0  0  0  0  0  0  0  0  0  0
   -2.9690    5.2962  -18.7360 C   0  0  0  0  0  0  0  0  0  0  0  0
   -1.8170    4.8601  -19.3828 C   0  0  0  0  0  0  0  0  0  0  0  0
   -0.5619    5.1948  -18.8784 C   0  0  0  0  0  0  0  0  0  0  0  0
   -0.4505    5.9375  -17.7063 C   0  0  0  0  0  0  0  0  0  0  0  0
   -1.6011    6.3562  -17.0422 C   0  0  0  0  0  0  0  0  0  0  0  0
  1  2  1  0
  2  3  1  0
  3  4  1  0
  4  5  2  0
  4  6  1  0
  6  7  1  0
  7  8  2  0
  8  9  1  0
  9 10  1  0
 10 11  2  0
 10 12  1  0
 12 13  1  0
 13 14  2  0
 14 15  1  0
 15 16  1  0
 16 17  2  0
 17 18  1  0
 18 19  1  0
 19 20  1  0
 17 21  1  0
 21 22  2  0
 22 23  1  0
  8 24  1  0
 24 25  1  0
 25 26  1  0
 26 27  1  0
 27 28  2  0
 28 29  1  0
 29 30  2  0
 30 31  1  0
 31 32  2  0
 25  6  2  0
 32 27  1  0
 23 12  2  0
 22 15  1  0
 20 18  1  0
M  END
>  <energy_score>  (3285) 
-52.977969

>  <alias>  (3285) 
ABQWUBOVTVUJDV-UHFFFAOYSA-N-P29-P29-P84-601526

>  <HIPPO Pose ID>  (3285) 
77140

>  <smiles>  (3285) 
CCOC(=O)c1nc(NC(=O)c2ccn3cc(C4CC4)nc3c2)sc1Cc1ccccc1

>  <inchikey>  (3285) 
ABQWUBOVTVUJDV-UHFFFAOYSA-N

>  <distance_score>  (3285) 
1.342048

>  <ref_mols>  (3285) 
Z1495a,Z0673a

>  <ref_pdb>  (3285) 
Z3093a

>  <HIPPO Compound ID>  (3285) 
141948

>  <name>  (3285) 
ABQWUBOVTVUJDV-UHFFFAOYSA-N-P29-P29-P84-601526

>  <inspiration_score>  (3285) 
None

$$$$
VOGXJSKNDDUTAF-UHFFFAOYSA-N-P29-P29-P84-601526
     RDKit          3D

 32 35  0  0  0  0  0  0  0  0999 V2000
   -8.5083    4.5652  -18.4732 C   0  0  0  0  0  0  0  0  0  0  0  0
   -7.1172    4.4594  -19.0921 C   0  0  0  0  0  0  0  0  0  0  0  0
   -6.3907    5.7111  -19.1296 O   0  0  0  0  0  0  0  0  0  0  0  0
   -5.1779    5.7888  -18.4939 C   0  0  0  0  0  0  0  0  0  0  0  0
   -4.2157    6.3675  -18.9858 O   0  0  0  0  0  0  0  0  0  0  0  0
   -5.1335    5.2302  -17.1433 C   0  0  0  0  0  0  0  0  0  0  0  0
   -6.3141    5.0362  -16.4601 N   0  0  0  0  0  0  0  0  0  0  0  0
   -6.0445    4.6644  -15.2540 C   0  0  0  0  0  0  0  0  0  0  0  0
   -6.8249    4.7974  -14.1914 N   0  0  0  0  0  0  0  0  0  0  0  0
   -8.1864    5.4952  -14.0333 C   0  0  0  0  0  0  0  0  0  0  0  0
   -8.8731    5.9958  -14.8256 O   0  0  0  0  0  0  0  0  0  0  0  0
   -8.4225    5.4936  -12.5855 C   0  0  0  0  0  0  0  0  0  0  0  0
   -8.2354    6.7154  -11.8171 C   0  0  0  0  0  0  0  0  0  0  0  0
   -8.0837    6.6078  -10.4880 C   0  0  0  0  0  0  0  0  0  0  0  0
   -8.1236    5.3411   -9.9160 N   0  0  0  0  0  0  0  0  0  0  0  0
   -8.0517    4.9843   -8.6021 C   0  0  0  0  0  0  0  0  0  0  0  0
   -8.2910    3.6306   -8.6187 C   0  0  0  0  0  0  0  0  0  0  0  0
   -8.8283    2.8382   -7.5600 C   0  0  0  0  0  0  0  0  0  0  0  0
   -9.1200    1.4778   -7.6538 C   0  0  0  0  0  0  0  0  0  0  0  0
   -9.9195    1.0862   -6.6646 N   0  0  0  0  0  0  0  0  0  0  0  0
  -10.1279    2.2172   -5.9849 N   0  0  0  0  0  0  0  0  0  0  0  0
  -11.1110    2.2297   -4.9556 C   0  0  0  0  0  0  0  0  0  0  0  0
   -9.4068    3.2832   -6.4028 C   0  0  0  0  0  0  0  0  0  0  0  0
   -8.3061    3.1163   -9.8760 N   0  0  0  0  0  0  0  0  0  0  0  0
   -8.3192    4.1709  -10.6390 C   0  0  0  0  0  0  0  0  0  0  0  0
   -8.4927    4.2725  -12.0285 C   0  0  0  0  0  0  0  0  0  0  0  0
   -4.4576    4.2364  -14.9028 S   0  0  0  0  0  0  0  0  0  0  0  0
   -4.0155    5.0155  -16.3518 C   0  0  0  0  0  0  0  0  0  0  0  0
   -2.6448    5.4747  -16.5156 C   0  0  0  0  0  0  0  0  0  0  0  0
   -1.8209    5.1079  -15.4958 F   0  0  0  0  0  0  0  0  0  0  0  0
   -2.6482    6.8226  -16.5232 F   0  0  0  0  0  0  0  0  0  0  0  0
   -2.0792    5.0028  -17.6350 F   0  0  0  0  0  0  0  0  0  0  0  0
  1  2  1  0
  2  3  1  0
  3  4  1  0
  4  5  2  0
  4  6  1  0
  6  7  1  0
  7  8  2  0
  8  9  1  0
  9 10  1  0
 10 11  2  0
 10 12  1  0
 12 13  1  0
 13 14  2  0
 14 15  1  0
 15 16  1  0
 16 17  2  0
 17 18  1  0
 18 19  1  0
 19 20  2  0
 20 21  1  0
 21 22  1  0
 21 23  1  0
 17 24  1  0
 24 25  2  0
 25 26  1  0
  8 27  1  0
 27 28  1  0
 28 29  1  0
 29 30  1  0
 29 31  1  0
 29 32  1  0
 28  6  2  0
 26 12  2  0
 25 15  1  0
 23 18  2  0
M  END
>  <energy_score>  (3286) 
-47.758153

>  <alias>  (3286) 
VOGXJSKNDDUTAF-UHFFFAOYSA-N-P29-P29-P84-601526

>  <HIPPO Pose ID>  (3286) 
77144

>  <smiles>  (3286) 
CCOC(=O)c1nc(NC(=O)c2ccn3cc(-c4cnn(C)c4)nc3c2)sc1C(F)(F)F

>  <inchikey>  (3286) 
VOGXJSKNDDUTAF-UHFFFAOYSA-N

>  <distance_score>  (3286) 
1.525642

>  <ref_mols>  (3286) 
Z1495a,Z0673a

>  <ref_pdb>  (3286) 
Z3093a

>  <HIPPO Compound ID>  (3286) 
141950

>  <name>  (3286) 
VOGXJSKNDDUTAF-UHFFFAOYSA-N-P29-P29-P84-601526

>  <inspiration_score>  (3286) 
None

$$$$
CGYCNTQDACJBJH-UHFFFAOYSA-N-P29-P29-P84-601526
     RDKit          3D

 32 35  0  0  0  0  0  0  0  0999 V2000
  -10.4212    4.4489  -18.3063 C   0  0  0  0  0  0  0  0  0  0  0  0
   -8.9335    4.3000  -18.1203 C   0  0  0  0  0  0  0  0  0  0  0  0
   -8.3369    3.7793  -19.3216 O   0  0  0  0  0  0  0  0  0  0  0  0
   -7.0738    4.1753  -19.7118 C   0  0  0  0  0  0  0  0  0  0  0  0
   -6.6471    3.8332  -20.8146 O   0  0  0  0  0  0  0  0  0  0  0  0
   -6.3088    4.9769  -18.7437 C   0  0  0  0  0  0  0  0  0  0  0  0
   -6.2685    4.5875  -17.4075 N   0  0  0  0  0  0  0  0  0  0  0  0
   -5.8130    5.5476  -16.6368 C   0  0  0  0  0  0  0  0  0  0  0  0
   -6.0788    5.5217  -15.2375 N   0  0  0  0  0  0  0  0  0  0  0  0
   -4.7374    4.6126  -15.2455 C   0  0  0  0  0  0  0  0  0  0  0  0
   -3.3432    5.2914  -15.1372 C   0  0  0  0  0  0  0  0  0  0  0  0
   -2.5920    5.6270  -16.4059 C   0  0  0  0  0  0  0  0  0  0  0  0
   -1.7472    6.7474  -16.4183 C   0  0  0  0  0  0  0  0  0  0  0  0
   -1.0078    7.0746  -17.5571 C   0  0  0  0  0  0  0  0  0  0  0  0
   -1.0958    6.2815  -18.6977 C   0  0  0  0  0  0  0  0  0  0  0  0
   -1.9210    5.1615  -18.6998 C   0  0  0  0  0  0  0  0  0  0  0  0
   -2.6552    4.8317  -17.5583 C   0  0  0  0  0  0  0  0  0  0  0  0
   -5.9804    6.5397  -14.2545 C   0  0  0  0  0  0  0  0  0  0  0  0
   -5.5616    7.6662  -14.3318 O   0  0  0  0  0  0  0  0  0  0  0  0
   -6.5747    6.0357  -12.9364 C   0  0  0  0  0  0  0  0  0  0  0  0
   -6.3553    6.8208  -11.7147 C   0  0  0  0  0  0  0  0  0  0  0  0
   -6.8089    6.3641  -10.5330 C   0  0  0  0  0  0  0  0  0  0  0  0
   -7.4901    5.1485  -10.4844 N   0  0  0  0  0  0  0  0  0  0  0  0
   -7.9995    4.4423   -9.4237 C   0  0  0  0  0  0  0  0  0  0  0  0
   -7.9595    4.9012   -7.5828 Br  0  0  0  0  0  0  0  0  0  0  0  0
   -8.5361    3.2942   -9.9569 C   0  0  0  0  0  0  0  0  0  0  0  0
   -8.3919    3.2797  -11.3242 N   0  0  0  0  0  0  0  0  0  0  0  0
   -7.7577    4.3920  -11.6193 C   0  0  0  0  0  0  0  0  0  0  0  0
   -7.2934    4.8876  -12.8707 C   0  0  0  0  0  0  0  0  0  0  0  0
   -5.4163    6.9891  -17.4729 S   0  0  0  0  0  0  0  0  0  0  0  0
   -5.6684    6.1815  -18.9838 C   0  0  0  0  0  0  0  0  0  0  0  0
   -5.3451    6.8664  -20.2609 C   0  0  0  0  0  0  0  0  0  0  0  0
  1  2  1  0
  2  3  1  0
  3  4  1  0
  4  5  2  0
  4  6  1  0
  6  7  1  0
  7  8  2  0
  8  9  1  0
  9 10  1  0
 10 11  1  0
 11 12  1  0
 12 13  2  0
 13 14  1  0
 14 15  2  0
 15 16  1  0
 16 17  2  0
  9 18  1  0
 18 19  2  0
 18 20  1  0
 20 21  1  0
 21 22  2  0
 22 23  1  0
 23 24  1  0
 24 25  1  0
 24 26  2  0
 26 27  1  0
 27 28  2  0
 28 29  1  0
  8 30  1  0
 30 31  1  0
 31 32  1  0
 31  6  2  0
 17 12  1  0
 29 20  2  0
 28 23  1  0
M  END
>  <energy_score>  (3287) 
-19.64082

>  <alias>  (3287) 
CGYCNTQDACJBJH-UHFFFAOYSA-N-P29-P29-P84-601526

>  <HIPPO Pose ID>  (3287) 
77153

>  <smiles>  (3287) 
CCOC(=O)c1nc(N(CCc2ccccc2)C(=O)c2ccn3c(Br)cnc3c2)sc1C

>  <inchikey>  (3287) 
CGYCNTQDACJBJH-UHFFFAOYSA-N

>  <distance_score>  (3287) 
1.626639

>  <ref_mols>  (3287) 
Z1495a,Z0673a

>  <ref_pdb>  (3287) 
Z3093a

>  <HIPPO Compound ID>  (3287) 
141955

>  <name>  (3287) 
CGYCNTQDACJBJH-UHFFFAOYSA-N-P29-P29-P84-601526

>  <inspiration_score>  (3287) 
None

$$$$
YHGOGNUBBZUEQK-UHFFFAOYSA-N-P84-P29-P84-601526
     RDKit          3D

 32 35  0  0  0  0  0  0  0  0999 V2000
  -10.2583    4.5026  -17.6421 C   0  0  0  0  0  0  0  0  0  0  0  0
   -9.0439    3.6500  -17.8810 C   0  0  0  0  0  0  0  0  0  0  0  0
   -8.1387    4.2741  -18.7954 O   0  0  0  0  0  0  0  0  0  0  0  0
   -6.8652    4.5640  -18.4140 C   0  0  0  0  0  0  0  0  0  0  0  0
   -5.9087    4.3302  -19.1455 O   0  0  0  0  0  0  0  0  0  0  0  0
   -6.6747    5.2515  -17.1343 C   0  0  0  0  0  0  0  0  0  0  0  0
   -7.7179    5.6297  -16.2858 N   0  0  0  0  0  0  0  0  0  0  0  0
   -7.1997    6.1677  -15.2144 C   0  0  0  0  0  0  0  0  0  0  0  0
   -7.6502    5.9842  -13.9613 N   0  0  0  0  0  0  0  0  0  0  0  0
   -7.1446    6.5599  -12.6182 C   0  0  0  0  0  0  0  0  0  0  0  0
   -6.3083    7.3427  -12.3980 O   0  0  0  0  0  0  0  0  0  0  0  0
   -7.8582    5.8499  -11.5230 C   0  0  0  0  0  0  0  0  0  0  0  0
   -7.6672    4.5140  -11.5935 C   0  0  0  0  0  0  0  0  0  0  0  0
   -7.9193    3.7086  -10.4677 C   0  0  0  0  0  0  0  0  0  0  0  0
   -7.6968    2.4376  -10.3070 N   0  0  0  0  0  0  0  0  0  0  0  0
   -8.0435    2.1742   -9.0163 C   0  0  0  0  0  0  0  0  0  0  0  0
   -8.4788    3.3055   -8.3676 C   0  0  0  0  0  0  0  0  0  0  0  0
   -8.9411    3.3837   -7.0180 C   0  0  0  0  0  0  0  0  0  0  0  0
   -9.2953    4.4241   -6.4651 O   0  0  0  0  0  0  0  0  0  0  0  0
   -8.3415    4.3161   -9.2987 N   0  0  0  0  0  0  0  0  0  0  0  0
   -8.5248    5.7002   -9.2139 C   0  0  0  0  0  0  0  0  0  0  0  0
   -8.3198    6.4803  -10.2949 C   0  0  0  0  0  0  0  0  0  0  0  0
   -8.6525    8.3140  -10.2419 Br  0  0  0  0  0  0  0  0  0  0  0  0
   -5.5888    6.6693  -15.3605 S   0  0  0  0  0  0  0  0  0  0  0  0
   -5.4282    5.4677  -16.5579 C   0  0  0  0  0  0  0  0  0  0  0  0
   -4.1667    4.7093  -16.6927 C   0  0  0  0  0  0  0  0  0  0  0  0
   -2.9730    5.4298  -17.2350 C   0  0  0  0  0  0  0  0  0  0  0  0
   -2.0711    6.0730  -16.3772 C   0  0  0  0  0  0  0  0  0  0  0  0
   -0.8809    6.5926  -16.8800 C   0  0  0  0  0  0  0  0  0  0  0  0
   -0.5874    6.4638  -18.2357 C   0  0  0  0  0  0  0  0  0  0  0  0
   -1.4956    5.8532  -19.0986 C   0  0  0  0  0  0  0  0  0  0  0  0
   -2.6936    5.3530  -18.6034 C   0  0  0  0  0  0  0  0  0  0  0  0
  1  2  1  0
  2  3  1  0
  3  4  1  0
  4  5  2  0
  4  6  1  0
  6  7  1  0
  7  8  2  0
  8  9  1  0
  9 10  1  0
 10 11  2  0
 10 12  1  0
 12 13  2  0
 13 14  1  0
 14 15  2  0
 15 16  1  0
 16 17  2  0
 17 18  1  0
 18 19  2  0
 17 20  1  0
 20 21  1  0
 21 22  2  0
 22 23  1  0
  8 24  1  0
 24 25  1  0
 25 26  1  0
 26 27  1  0
 27 28  2  0
 28 29  1  0
 29 30  2  0
 30 31  1  0
 31 32  2  0
 25  6  2  0
 32 27  1  0
 22 12  1  0
 20 14  1  0
M  END
>  <energy_score>  (3288) 
-55.258212

>  <alias>  (3288) 
YHGOGNUBBZUEQK-UHFFFAOYSA-N-P84-P29-P84-601526

>  <HIPPO Pose ID>  (3288) 
77160

>  <smiles>  (3288) 
CCOC(=O)c1nc(NC(=O)c2cc3ncc(C=O)n3cc2Br)sc1Cc1ccccc1

>  <inchikey>  (3288) 
YHGOGNUBBZUEQK-UHFFFAOYSA-N

>  <distance_score>  (3288) 
1.695319

>  <ref_mols>  (3288) 
Z1495a,Z0673a

>  <ref_pdb>  (3288) 
Z3093a

>  <HIPPO Compound ID>  (3288) 
141958

>  <name>  (3288) 
YHGOGNUBBZUEQK-UHFFFAOYSA-N-P84-P29-P84-601526

>  <inspiration_score>  (3288) 
None

$$$$
ZHCIEICHTCKGSI-UHFFFAOYSA-N-P59-P48-P59-601526
     RDKit          3D

 22 25  0  0  0  0  0  0  0  0999 V2000
   -7.0813    1.5786   -9.6331 C   0  0  0  0  0  0  0  0  0  0  0  0
   -8.4919    1.8329   -9.3899 N   0  0  0  0  0  0  0  0  0  0  0  0
   -8.8934    2.2884   -8.0559 C   0  0  0  0  0  0  0  0  0  0  0  0
   -8.6381    3.7746   -7.7456 C   0  0  0  0  0  0  0  0  0  0  0  0
   -8.5285    4.5809   -8.9568 N   0  0  0  0  0  0  0  0  0  0  0  0
   -8.0473    5.8393   -8.9137 N   0  0  0  0  0  0  0  0  0  0  0  0
   -7.4432    5.9589  -10.1054 C   0  0  0  0  0  0  0  0  0  0  0  0
   -7.5569    4.7942  -10.9148 C   0  0  0  0  0  0  0  0  0  0  0  0
   -6.6943    4.3723  -12.0664 C   0  0  0  0  0  0  0  0  0  0  0  0
   -7.4247    3.9921  -13.2804 N   0  0  0  0  0  0  0  0  0  0  0  0
   -6.5226    3.7886  -14.4458 C   0  0  0  0  0  0  0  0  0  0  0  0
   -6.6361    4.7275  -15.7478 C   0  0  1  0  0  0  0  0  0  0  0  0
   -7.8726    4.4709  -16.6049 C   0  0  0  0  0  0  0  0  0  0  0  0
   -9.1362    4.6870  -15.8053 C   0  0  0  0  0  0  0  0  0  0  0  0
   -9.0701    5.8130  -14.7500 C   0  0  0  0  0  0  0  0  0  0  0  0
   -7.6979    6.4779  -14.4706 C   0  0  0  0  0  0  0  0  0  0  0  0
   -6.7279    6.1704  -15.4949 N   0  0  0  0  0  0  0  0  0  0  0  0
   -5.3877    6.6828  -15.3305 C   0  0  0  0  0  0  0  0  0  0  0  0
   -4.7085    6.0291  -16.5120 C   0  0  0  0  0  0  0  0  0  0  0  0
   -5.3508    4.6472  -16.5917 C   0  0  0  0  0  0  0  0  0  0  0  0
   -8.4626    4.0332  -10.2102 C   0  0  0  0  0  0  0  0  0  0  0  0
   -9.0080    2.6906  -10.4242 C   0  0  0  0  0  0  0  0  0  0  0  0
  1  2  1  0
  2  3  1  0
  3  4  1  0
  4  5  1  0
  5  6  1  0
  6  7  2  0
  7  8  1  0
  8  9  1  0
  9 10  1  0
 10 11  1  0
 12 11  1  1
 12 13  1  0
 13 14  1  0
 14 15  1  0
 15 16  1  0
 16 17  1  0
 17 18  1  0
 18 19  1  0
 19 20  1  0
  8 21  2  0
 21 22  1  0
 22  2  1  0
 21  5  1  0
 17 12  1  0
 20 12  1  0
M  END
>  <energy_score>  (3289) 
-29.137882

>  <alias>  (3289) 
ZHCIEICHTCKGSI-UHFFFAOYSA-N-P59-P48-P59-601526

>  <HIPPO Pose ID>  (3289) 
77164

>  <smiles>  (3289) 
CN1CCn2ncc(CNCC34CCCCN3CCC4)c2C1

>  <inchikey>  (3289) 
ZHCIEICHTCKGSI-UHFFFAOYSA-N

>  <distance_score>  (3289) 
1.630939

>  <ref_mols>  (3289) 
Z0827a,Z0969a

>  <ref_pdb>  (3289) 
Z3093a

>  <HIPPO Compound ID>  (3289) 
142663

>  <name>  (3289) 
ZHCIEICHTCKGSI-UHFFFAOYSA-N-P59-P48-P59-601526

>  <inspiration_score>  (3289) 
None

$$$$
VVHBWTZGMREMOF-UHFFFAOYSA-N-P48-P48-P59-601526
     RDKit          3D

 22 25  0  0  0  0  0  0  0  0999 V2000
   -5.4526    6.9711  -12.7030 C   0  0  0  0  0  0  0  0  0  0  0  0
   -5.9291    6.1052  -13.8680 C   0  0  2  0  0  0  0  0  0  0  0  0
   -6.6623    6.9835  -14.9429 C   0  0  0  0  0  0  0  0  0  0  0  0
   -7.3998    6.2283  -15.9915 N   0  0  0  0  0  0  0  0  0  0  0  0
   -8.7759    5.8339  -15.5735 C   0  0  0  0  0  0  0  0  0  0  0  0
   -9.4216    4.7699  -16.4825 C   0  0  0  0  0  0  0  0  0  0  0  0
   -8.6453    4.3894  -17.7269 C   0  0  0  0  0  0  0  0  0  0  0  0
   -7.1397    4.4494  -17.5518 C   0  0  0  0  0  0  0  0  0  0  0  0
   -6.6532    4.9798  -16.2093 C   0  0  2  0  0  0  0  0  0  0  0  0
   -6.7181    4.0917  -14.8880 C   0  0  0  0  0  0  0  0  0  0  0  0
   -6.8144    4.9567  -13.6404 N   0  0  0  0  0  0  0  0  0  0  0  0
   -6.8569    4.2278  -12.3777 C   0  0  0  0  0  0  0  0  0  0  0  0
   -7.6147    4.8670  -11.2290 C   0  0  0  0  0  0  0  0  0  0  0  0
   -8.0792    6.1866  -10.9884 C   0  0  0  0  0  0  0  0  0  0  0  0
   -8.5392    6.3882   -9.7454 N   0  0  0  0  0  0  0  0  0  0  0  0
   -8.4612    5.1687   -9.2048 N   0  0  0  0  0  0  0  0  0  0  0  0
   -8.0500    4.2115  -10.0843 C   0  0  0  0  0  0  0  0  0  0  0  0
   -8.1390    2.7839   -9.7066 C   0  0  0  0  0  0  0  0  0  0  0  0
   -8.1248    2.6385   -8.2488 N   0  0  0  0  0  0  0  0  0  0  0  0
   -8.3954    1.2627   -7.9116 C   0  0  0  0  0  0  0  0  0  0  0  0
   -9.0947    3.4909   -7.5724 C   0  0  0  0  0  0  0  0  0  0  0  0
   -8.7099    4.9408   -7.7961 C   0  0  0  0  0  0  0  0  0  0  0  0
  2  1  1  1
  2  3  1  0
  3  4  1  0
  4  5  1  0
  5  6  1  0
  6  7  1  0
  7  8  1  0
  9  8  1  6
  9 10  1  0
 10 11  1  0
 11 12  1  0
 12 13  1  0
 13 14  1  0
 14 15  2  0
 15 16  1  0
 16 17  1  0
 17 18  1  0
 18 19  1  0
 19 20  1  0
 19 21  1  0
 21 22  1  0
 11  2  1  0
 17 13  2  0
  9  4  1  0
 22 16  1  0
M  END
>  <energy_score>  (3290) 
-42.114968

>  <alias>  (3290) 
VVHBWTZGMREMOF-UHFFFAOYSA-N-P48-P48-P59-601526

>  <HIPPO Pose ID>  (3290) 
77165

>  <smiles>  (3290) 
CC1CN2CCCCC2CN1Cc1cnn2c1CN(C)CC2

>  <inchikey>  (3290) 
VVHBWTZGMREMOF-UHFFFAOYSA-N

>  <distance_score>  (3290) 
1.832524

>  <ref_mols>  (3290) 
Z0827a,Z0969a

>  <ref_pdb>  (3290) 
Z3093a

>  <HIPPO Compound ID>  (3290) 
142664

>  <name>  (3290) 
VVHBWTZGMREMOF-UHFFFAOYSA-N-P48-P48-P59-601526

>  <inspiration_score>  (3290) 
None

$$$$
RTNSYIXCOOVPMM-UHFFFAOYSA-N-P48-P48-P59-601526
     RDKit          3D

 23 26  0  0  0  0  0  0  0  0999 V2000
   -7.4027    1.6614   -8.7824 C   0  0  0  0  0  0  0  0  0  0  0  0
   -8.7613    2.0433   -9.1198 N   0  0  0  0  0  0  0  0  0  0  0  0
   -9.4367    2.7034   -8.0070 C   0  0  0  0  0  0  0  0  0  0  0  0
   -8.9098    4.1019   -7.7001 C   0  0  0  0  0  0  0  0  0  0  0  0
   -8.5142    4.7996   -8.9140 N   0  0  0  0  0  0  0  0  0  0  0  0
   -8.0613    6.0577   -8.8489 N   0  0  0  0  0  0  0  0  0  0  0  0
   -7.3600    6.1804   -9.9825 C   0  0  0  0  0  0  0  0  0  0  0  0
   -7.3899    5.0248  -10.8152 C   0  0  0  0  0  0  0  0  0  0  0  0
   -6.5114    4.6519  -11.9975 C   0  0  0  0  0  0  0  0  0  0  0  0
   -6.8423    5.2775  -13.2849 N   0  0  0  0  0  0  0  0  0  0  0  0
   -6.6569    4.3374  -14.4658 C   0  0  0  0  0  0  0  0  0  0  0  0
   -6.6623    5.0826  -15.8837 C   0  0  1  0  0  0  0  0  0  0  0  0
   -7.1062    4.2457  -17.0741 C   0  0  0  0  0  0  0  0  0  0  0  0
   -8.4748    4.5707  -17.6414 C   0  0  0  0  0  0  0  0  0  0  0  0
   -9.4335    4.8355  -16.4979 C   0  0  0  0  0  0  0  0  0  0  0  0
   -8.8734    5.8366  -15.4689 C   0  0  0  0  0  0  0  0  0  0  0  0
   -7.4965    6.2815  -15.8237 N   0  0  0  0  0  0  0  0  0  0  0  0
   -6.8856    7.1791  -14.8182 C   0  0  0  0  0  0  0  0  0  0  0  0
   -6.0996    6.5071  -13.6515 C   0  0  1  0  0  0  0  0  0  0  0  0
   -5.8640    7.5439  -12.6254 C   0  0  0  0  0  0  0  0  0  0  0  0
   -5.6021    8.4040  -11.8894 N   0  0  0  0  0  0  0  0  0  0  0  0
   -8.2624    4.1958  -10.1183 C   0  0  0  0  0  0  0  0  0  0  0  0
   -8.7715    2.8238  -10.3526 C   0  0  0  0  0  0  0  0  0  0  0  0
  1  2  1  0
  2  3  1  0
  3  4  1  0
  4  5  1  0
  5  6  1  0
  6  7  2  0
  7  8  1  0
  8  9  1  0
  9 10  1  0
 10 11  1  0
 12 11  1  1
 12 13  1  0
 13 14  1  0
 14 15  1  0
 15 16  1  0
 16 17  1  0
 17 18  1  0
 18 19  1  0
 19 20  1  1
 20 21  3  0
  8 22  2  0
 22 23  1  0
 23  2  1  0
 22  5  1  0
 19 10  1  0
 17 12  1  0
M  END
>  <energy_score>  (3291) 
-31.704376

>  <alias>  (3291) 
RTNSYIXCOOVPMM-UHFFFAOYSA-N-P48-P48-P59-601526

>  <HIPPO Pose ID>  (3291) 
77167

>  <smiles>  (3291) 
CN1CCn2ncc(CN3CC4CCCCN4CC3C#N)c2C1

>  <inchikey>  (3291) 
RTNSYIXCOOVPMM-UHFFFAOYSA-N

>  <distance_score>  (3291) 
1.858908

>  <ref_mols>  (3291) 
Z0827a,Z0969a

>  <ref_pdb>  (3291) 
Z3093a

>  <HIPPO Compound ID>  (3291) 
142665

>  <name>  (3291) 
RTNSYIXCOOVPMM-UHFFFAOYSA-N-P48-P48-P59-601526

>  <inspiration_score>  (3291) 
None

$$$$
UHDMGYVXGIYXAO-UHFFFAOYSA-N-P86-P35-P86-601526
     RDKit          3D

 12 12  0  0  0  0  0  0  0  0999 V2000
   -8.7111    4.0984  -15.4105 C   0  0  0  0  0  0  0  0  0  0  0  0
   -7.7083    4.6343  -16.2780 N   0  0  0  0  0  0  0  0  0  0  0  0
   -6.5796    5.2380  -15.8289 C   0  0  0  0  0  0  0  0  0  0  0  0
   -5.8429    5.6592  -16.8259 N   0  0  0  0  0  0  0  0  0  0  0  0
   -6.5086    5.2738  -17.9494 C   0  0  0  0  0  0  0  0  0  0  0  0
   -5.9982    5.4833  -19.1842 N   0  0  0  0  0  0  0  0  0  0  0  0
   -4.5714    5.9089  -19.6264 C   0  0  0  0  0  0  0  0  0  0  0  0
   -3.6415    6.2180  -18.9892 O   0  0  0  0  0  0  0  0  0  0  0  0
   -4.5254    5.8846  -21.1352 C   0  0  0  0  0  0  0  0  0  0  0  0
   -4.5793    7.3059  -21.6246 C   0  0  0  0  0  0  0  0  0  0  0  0
   -4.8131    7.3406  -23.5580 Br  0  0  0  0  0  0  0  0  0  0  0  0
   -7.6987    4.6604  -17.6435 C   0  0  0  0  0  0  0  0  0  0  0  0
  1  2  1  0
  2  3  1  0
  3  4  2  0
  4  5  1  0
  5  6  1  0
  6  7  1  0
  7  8  2  0
  7  9  1  0
  9 10  1  0
 10 11  1  0
  5 12  2  0
 12  2  1  0
M  END
>  <energy_score>  (3292) 
-13.065458

>  <alias>  (3292) 
UHDMGYVXGIYXAO-UHFFFAOYSA-N-P86-P35-P86-601526

>  <HIPPO Pose ID>  (3292) 
77192

>  <smiles>  (3292) 
Cn1cnc(NC(=O)CCBr)c1

>  <inchikey>  (3292) 
UHDMGYVXGIYXAO-UHFFFAOYSA-N

>  <distance_score>  (3292) 
1.557101

>  <ref_mols>  (3292) 
Z0719a,Z1597a

>  <ref_pdb>  (3292) 
Z3093a

>  <HIPPO Compound ID>  (3292) 
149381

>  <name>  (3292) 
UHDMGYVXGIYXAO-UHFFFAOYSA-N-P86-P35-P86-601526

>  <inspiration_score>  (3292) 
None

$$$$
XFCSLLJWWDRKTK-UHFFFAOYSA-N-P86-P35-P86-601526
     RDKit          3D

 12 12  0  0  0  0  0  0  0  0999 V2000
   -8.7649    4.1845  -15.3958 C   0  0  0  0  0  0  0  0  0  0  0  0
   -7.7396    4.6185  -16.2942 N   0  0  0  0  0  0  0  0  0  0  0  0
   -6.5316    5.0711  -15.8762 C   0  0  0  0  0  0  0  0  0  0  0  0
   -5.7956    5.4440  -16.8917 N   0  0  0  0  0  0  0  0  0  0  0  0
   -6.5516    5.2003  -17.9953 C   0  0  0  0  0  0  0  0  0  0  0  0
   -6.0803    5.4600  -19.2356 N   0  0  0  0  0  0  0  0  0  0  0  0
   -4.6740    5.9398  -19.7026 C   0  0  0  0  0  0  0  0  0  0  0  0
   -3.7352    6.2567  -19.0795 O   0  0  0  0  0  0  0  0  0  0  0  0
   -4.6475    5.9268  -21.2100 C   0  0  0  0  0  0  0  0  0  0  0  0
   -4.8832    7.2729  -21.7089 C   0  0  0  0  0  0  0  0  0  0  0  0
   -5.1135    8.3286  -22.1361 N   0  0  0  0  0  0  0  0  0  0  0  0
   -7.7780    4.6826  -17.6591 C   0  0  0  0  0  0  0  0  0  0  0  0
  1  2  1  0
  2  3  1  0
  3  4  2  0
  4  5  1  0
  5  6  1  0
  6  7  1  0
  7  8  2  0
  7  9  1  0
  9 10  1  0
 10 11  3  0
  5 12  2  0
 12  2  1  0
M  END
>  <energy_score>  (3293) 
-21.365985

>  <alias>  (3293) 
XFCSLLJWWDRKTK-UHFFFAOYSA-N-P86-P35-P86-601526

>  <HIPPO Pose ID>  (3293) 
77196

>  <smiles>  (3293) 
Cn1cnc(NC(=O)CC#N)c1

>  <inchikey>  (3293) 
XFCSLLJWWDRKTK-UHFFFAOYSA-N

>  <distance_score>  (3293) 
1.724349

>  <ref_mols>  (3293) 
Z0719a,Z1597a

>  <ref_pdb>  (3293) 
Z3093a

>  <HIPPO Compound ID>  (3293) 
149383

>  <name>  (3293) 
XFCSLLJWWDRKTK-UHFFFAOYSA-N-P86-P35-P86-601526

>  <inspiration_score>  (3293) 
None

$$$$
NWYAKWVTXMBMGQ-UHFFFAOYSA-N-P86-P35-P86-601526
     RDKit          3D

 12 12  0  0  0  0  0  0  0  0999 V2000
   -5.0487    7.4445  -22.5375 C   0  0  0  0  0  0  0  0  0  0  0  0
   -4.4315    6.8587  -21.6898 C   0  0  0  0  0  0  0  0  0  0  0  0
   -3.6680    6.1216  -20.6768 C   0  0  0  0  0  0  0  0  0  0  0  0
   -4.2320    6.2937  -19.2733 C   0  0  0  0  0  0  0  0  0  0  0  0
   -3.6320    6.8182  -18.4156 O   0  0  0  0  0  0  0  0  0  0  0  0
   -5.6128    5.5721  -19.2444 N   0  0  0  0  0  0  0  0  0  0  0  0
   -6.4332    5.2866  -18.2065 C   0  0  0  0  0  0  0  0  0  0  0  0
   -7.6263    4.6127  -18.2934 C   0  0  0  0  0  0  0  0  0  0  0  0
   -8.0318    4.4945  -16.9994 N   0  0  0  0  0  0  0  0  0  0  0  0
   -9.2259    3.8744  -16.5280 C   0  0  0  0  0  0  0  0  0  0  0  0
   -7.1034    5.0815  -16.2006 C   0  0  0  0  0  0  0  0  0  0  0  0
   -6.1359    5.6053  -16.9150 N   0  0  0  0  0  0  0  0  0  0  0  0
  1  2  3  0
  2  3  1  0
  3  4  1  0
  4  5  2  0
  4  6  1  0
  6  7  1  0
  7  8  2  0
  8  9  1  0
  9 10  1  0
  9 11  1  0
 11 12  2  0
 12  7  1  0
M  END
>  <energy_score>  (3294) 
-15.661321

>  <alias>  (3294) 
NWYAKWVTXMBMGQ-UHFFFAOYSA-N-P86-P35-P86-601526

>  <HIPPO Pose ID>  (3294) 
77198

>  <smiles>  (3294) 
C#CCC(=O)Nc1cn(C)cn1

>  <inchikey>  (3294) 
NWYAKWVTXMBMGQ-UHFFFAOYSA-N

>  <distance_score>  (3294) 
1.668142

>  <ref_mols>  (3294) 
Z0719a,Z1597a

>  <ref_pdb>  (3294) 
Z3093a

>  <HIPPO Compound ID>  (3294) 
149384

>  <name>  (3294) 
NWYAKWVTXMBMGQ-UHFFFAOYSA-N-P86-P35-P86-601526

>  <inspiration_score>  (3294) 
None

$$$$
IIMXXAKKLQLHAI-UHFFFAOYSA-N-P35-P35-P86-601526
     RDKit          3D

 12 12  0  0  0  0  0  0  0  0999 V2000
   -2.2483    5.7846  -20.0366 C   0  0  0  0  0  0  0  0  0  0  0  0
   -3.5001    6.2672  -19.9734 C   0  0  0  0  0  0  0  0  0  0  0  0
   -4.1076    7.1962  -20.9719 C   0  0  0  0  0  0  0  0  0  0  0  0
   -4.2695    5.9723  -18.7242 C   0  0  0  0  0  0  0  0  0  0  0  0
   -3.8592    6.2988  -17.6817 O   0  0  0  0  0  0  0  0  0  0  0  0
   -5.5786    5.2481  -19.1021 N   0  0  0  0  0  0  0  0  0  0  0  0
   -6.6320    4.8820  -18.3374 C   0  0  0  0  0  0  0  0  0  0  0  0
   -6.7358    4.9699  -16.9774 C   0  0  0  0  0  0  0  0  0  0  0  0
   -7.9883    4.5163  -16.6970 N   0  0  0  0  0  0  0  0  0  0  0  0
   -8.5456    4.4040  -15.3842 C   0  0  0  0  0  0  0  0  0  0  0  0
   -8.5976    4.2093  -17.8697 C   0  0  0  0  0  0  0  0  0  0  0  0
   -7.7722    4.3820  -18.8787 N   0  0  0  0  0  0  0  0  0  0  0  0
  1  2  2  0
  2  3  1  0
  2  4  1  0
  4  5  2  0
  4  6  1  0
  6  7  1  0
  7  8  2  0
  8  9  1  0
  9 10  1  0
  9 11  1  0
 11 12  2  0
 12  7  1  0
M  END
>  <energy_score>  (3295) 
-24.228519

>  <alias>  (3295) 
IIMXXAKKLQLHAI-UHFFFAOYSA-N-P35-P35-P86-601526

>  <HIPPO Pose ID>  (3295) 
77207

>  <smiles>  (3295) 
C=C(C)C(=O)Nc1cn(C)cn1

>  <inchikey>  (3295) 
IIMXXAKKLQLHAI-UHFFFAOYSA-N

>  <distance_score>  (3295) 
1.424479

>  <ref_mols>  (3295) 
Z0719a,Z1597a

>  <ref_pdb>  (3295) 
Z3093a

>  <HIPPO Compound ID>  (3295) 
149389

>  <name>  (3295) 
IIMXXAKKLQLHAI-UHFFFAOYSA-N-P35-P35-P86-601526

>  <inspiration_score>  (3295) 
None

$$$$
JVHLCAFTYUVRDP-UHFFFAOYSA-N-P86-P35-P86-601526
     RDKit          3D

 12 12  0  0  0  0  0  0  0  0999 V2000
   -4.6371    7.3891  -21.3648 C   0  0  0  0  0  0  0  0  0  0  0  0
   -4.1722    5.9825  -21.0665 C   0  0  1  0  0  0  0  0  0  0  0  0
   -2.8324    5.8646  -21.5478 O   0  0  0  0  0  0  0  0  0  0  0  0
   -4.2589    5.7097  -19.5561 C   0  0  0  0  0  0  0  0  0  0  0  0
   -3.3030    5.7380  -18.8793 O   0  0  0  0  0  0  0  0  0  0  0  0
   -5.7441    5.4061  -19.1942 N   0  0  0  0  0  0  0  0  0  0  0  0
   -6.3282    5.1848  -17.9928 C   0  0  0  0  0  0  0  0  0  0  0  0
   -7.6056    4.7362  -17.7549 C   0  0  0  0  0  0  0  0  0  0  0  0
   -7.6668    4.6297  -16.3930 N   0  0  0  0  0  0  0  0  0  0  0  0
   -8.7583    4.1823  -15.5815 C   0  0  0  0  0  0  0  0  0  0  0  0
   -6.4816    5.0448  -15.8785 C   0  0  0  0  0  0  0  0  0  0  0  0
   -5.6545    5.4011  -16.8290 N   0  0  0  0  0  0  0  0  0  0  0  0
  2  1  1  1
  2  3  1  0
  2  4  1  0
  4  5  2  0
  4  6  1  0
  6  7  1  0
  7  8  2  0
  8  9  1  0
  9 10  1  0
  9 11  1  0
 11 12  2  0
 12  7  1  0
M  END
>  <energy_score>  (3296) 
-25.340246

>  <alias>  (3296) 
JVHLCAFTYUVRDP-UHFFFAOYSA-N-P86-P35-P86-601526

>  <HIPPO Pose ID>  (3296) 
77210

>  <smiles>  (3296) 
CC(O)C(=O)Nc1cn(C)cn1

>  <inchikey>  (3296) 
JVHLCAFTYUVRDP-UHFFFAOYSA-N

>  <distance_score>  (3296) 
1.977621

>  <ref_mols>  (3296) 
Z0719a,Z1597a

>  <ref_pdb>  (3296) 
Z3093a

>  <HIPPO Compound ID>  (3296) 
149390

>  <name>  (3296) 
JVHLCAFTYUVRDP-UHFFFAOYSA-N-P86-P35-P86-601526

>  <inspiration_score>  (3296) 
None

$$$$
IMIQFANMEGDZIA-UHFFFAOYSA-N-P35-P35-P86-601526
     RDKit          3D

 12 12  0  0  0  0  0  0  0  0999 V2000
   -4.3355    6.9709  -20.5899 C   0  0  0  0  0  0  0  0  0  0  0  0
   -3.8262    5.7840  -19.7874 C   0  0  1  0  0  0  0  0  0  0  0  0
   -1.9988    5.7853  -19.8001 S   0  0  0  0  0  0  0  0  0  0  0  0
   -4.3895    5.7624  -18.3642 C   0  0  0  0  0  0  0  0  0  0  0  0
   -3.7494    6.0142  -17.4157 O   0  0  0  0  0  0  0  0  0  0  0  0
   -5.8761    5.3013  -18.4879 N   0  0  0  0  0  0  0  0  0  0  0  0
   -6.7775    4.9890  -17.5352 C   0  0  0  0  0  0  0  0  0  0  0  0
   -6.5410    4.8925  -16.1946 C   0  0  0  0  0  0  0  0  0  0  0  0
   -7.7252    4.4880  -15.6606 N   0  0  0  0  0  0  0  0  0  0  0  0
   -7.9555    4.2117  -14.2709 C   0  0  0  0  0  0  0  0  0  0  0  0
   -8.6314    4.4072  -16.6745 C   0  0  0  0  0  0  0  0  0  0  0  0
   -8.0692    4.6930  -17.8303 N   0  0  0  0  0  0  0  0  0  0  0  0
  2  1  1  1
  2  3  1  0
  2  4  1  0
  4  5  2  0
  4  6  1  0
  6  7  1  0
  7  8  2  0
  8  9  1  0
  9 10  1  0
  9 11  1  0
 11 12  2  0
 12  7  1  0
M  END
>  <energy_score>  (3297) 
-22.489944

>  <alias>  (3297) 
IMIQFANMEGDZIA-UHFFFAOYSA-N-P35-P35-P86-601526

>  <HIPPO Pose ID>  (3297) 
77213

>  <smiles>  (3297) 
CC(S)C(=O)Nc1cn(C)cn1

>  <inchikey>  (3297) 
IMIQFANMEGDZIA-UHFFFAOYSA-N

>  <distance_score>  (3297) 
1.182932

>  <ref_mols>  (3297) 
Z0719a,Z1597a

>  <ref_pdb>  (3297) 
Z3093a

>  <HIPPO Compound ID>  (3297) 
149392

>  <name>  (3297) 
IMIQFANMEGDZIA-UHFFFAOYSA-N-P35-P35-P86-601526

>  <inspiration_score>  (3297) 
None

$$$$
ZCHXCJGZRNCXCH-UHFFFAOYSA-N-P86-P35-P86-601526
     RDKit          3D

 12 12  0  0  0  0  0  0  0  0999 V2000
   -8.6171    4.0127  -15.4598 C   0  0  0  0  0  0  0  0  0  0  0  0
   -7.6721    4.6209  -16.3455 N   0  0  0  0  0  0  0  0  0  0  0  0
   -6.5870    5.3162  -15.9218 C   0  0  0  0  0  0  0  0  0  0  0  0
   -5.9330    5.8316  -16.9333 N   0  0  0  0  0  0  0  0  0  0  0  0
   -6.6059    5.4176  -18.0437 C   0  0  0  0  0  0  0  0  0  0  0  0
   -6.1963    5.7435  -19.2919 N   0  0  0  0  0  0  0  0  0  0  0  0
   -4.9525    6.5414  -19.7684 C   0  0  0  0  0  0  0  0  0  0  0  0
   -4.1331    7.1050  -19.1541 O   0  0  0  0  0  0  0  0  0  0  0  0
   -4.9450    6.4721  -21.2843 C   0  0  0  0  0  0  0  0  0  0  0  0
   -3.5849    6.8928  -21.8045 C   0  0  0  0  0  0  0  0  0  0  0  0
   -3.5936    6.9321  -23.2324 O   0  0  0  0  0  0  0  0  0  0  0  0
   -7.7031    4.6608  -17.7106 C   0  0  0  0  0  0  0  0  0  0  0  0
  1  2  1  0
  2  3  1  0
  3  4  2  0
  4  5  1  0
  5  6  1  0
  6  7  1  0
  7  8  2  0
  7  9  1  0
  9 10  1  0
 10 11  1  0
  5 12  2  0
 12  2  1  0
M  END
>  <energy_score>  (3298) 
-25.386996

>  <alias>  (3298) 
ZCHXCJGZRNCXCH-UHFFFAOYSA-N-P86-P35-P86-601526

>  <HIPPO Pose ID>  (3298) 
77216

>  <smiles>  (3298) 
Cn1cnc(NC(=O)CCO)c1

>  <inchikey>  (3298) 
ZCHXCJGZRNCXCH-UHFFFAOYSA-N

>  <distance_score>  (3298) 
1.662281

>  <ref_mols>  (3298) 
Z0719a,Z1597a

>  <ref_pdb>  (3298) 
Z3093a

>  <HIPPO Compound ID>  (3298) 
149393

>  <name>  (3298) 
ZCHXCJGZRNCXCH-UHFFFAOYSA-N-P86-P35-P86-601526

>  <inspiration_score>  (3298) 
None

$$$$
YLMCQPSIVOTNIJ-UHFFFAOYSA-N-P86-P35-P86-601526
     RDKit          3D

 12 12  0  0  0  0  0  0  0  0999 V2000
   -8.7187    4.1392  -15.3334 C   0  0  0  0  0  0  0  0  0  0  0  0
   -7.7134    4.6598  -16.2068 N   0  0  0  0  0  0  0  0  0  0  0  0
   -6.5900    5.2784  -15.7649 C   0  0  0  0  0  0  0  0  0  0  0  0
   -5.8466    5.6755  -16.7670 N   0  0  0  0  0  0  0  0  0  0  0  0
   -6.5037    5.2605  -17.8840 C   0  0  0  0  0  0  0  0  0  0  0  0
   -5.9815    5.4186  -19.1201 N   0  0  0  0  0  0  0  0  0  0  0  0
   -4.5959    5.9657  -19.5685 C   0  0  0  0  0  0  0  0  0  0  0  0
   -3.7273    6.4337  -18.9414 O   0  0  0  0  0  0  0  0  0  0  0  0
   -4.4854    5.7421  -21.0579 C   0  0  0  0  0  0  0  0  0  0  0  0
   -4.7932    7.0209  -21.7857 C   0  0  0  0  0  0  0  0  0  0  0  0
   -3.6560    7.7514  -21.9381 F   0  0  0  0  0  0  0  0  0  0  0  0
   -7.6935    4.6499  -17.5718 C   0  0  0  0  0  0  0  0  0  0  0  0
  1  2  1  0
  2  3  1  0
  3  4  2  0
  4  5  1  0
  5  6  1  0
  6  7  1  0
  7  8  2  0
  7  9  1  0
  9 10  1  0
 10 11  1  0
  5 12  2  0
 12  2  1  0
M  END
>  <energy_score>  (3299) 
-9.486991

>  <alias>  (3299) 
YLMCQPSIVOTNIJ-UHFFFAOYSA-N-P86-P35-P86-601526

>  <HIPPO Pose ID>  (3299) 
77218

>  <smiles>  (3299) 
Cn1cnc(NC(=O)CCF)c1

>  <inchikey>  (3299) 
YLMCQPSIVOTNIJ-UHFFFAOYSA-N

>  <distance_score>  (3299) 
1.890357

>  <ref_mols>  (3299) 
Z0719a,Z1597a

>  <ref_pdb>  (3299) 
Z3093a

>  <HIPPO Compound ID>  (3299) 
149394

>  <name>  (3299) 
YLMCQPSIVOTNIJ-UHFFFAOYSA-N-P86-P35-P86-601526

>  <inspiration_score>  (3299) 
None

$$$$
CENRXKHSTBPKPG-UHFFFAOYSA-N-P86-P35-P86-601526
     RDKit          3D

 12 12  0  0  0  0  0  0  0  0999 V2000
   -8.7143    4.1278  -15.3612 C   0  0  0  0  0  0  0  0  0  0  0  0
   -7.7037    4.6618  -16.2206 N   0  0  0  0  0  0  0  0  0  0  0  0
   -6.5831    5.2725  -15.7609 C   0  0  0  0  0  0  0  0  0  0  0  0
   -5.8281    5.6761  -16.7514 N   0  0  0  0  0  0  0  0  0  0  0  0
   -6.4742    5.2755  -17.8794 C   0  0  0  0  0  0  0  0  0  0  0  0
   -5.9304    5.4380  -19.1060 N   0  0  0  0  0  0  0  0  0  0  0  0
   -4.5275    5.9617  -19.5272 C   0  0  0  0  0  0  0  0  0  0  0  0
   -3.6590    6.4039  -18.8818 O   0  0  0  0  0  0  0  0  0  0  0  0
   -4.3976    5.7473  -21.0206 C   0  0  0  0  0  0  0  0  0  0  0  0
   -4.7967    6.9898  -21.7850 C   0  0  0  0  0  0  0  0  0  0  0  0
   -3.1691    8.3462  -22.0670 I   0  0  0  0  0  0  0  0  0  0  0  0
   -7.6714    4.6693  -17.5862 C   0  0  0  0  0  0  0  0  0  0  0  0
  1  2  1  0
  2  3  1  0
  3  4  2  0
  4  5  1  0
  5  6  1  0
  6  7  1  0
  7  8  2  0
  7  9  1  0
  9 10  1  0
 10 11  1  0
  5 12  2  0
 12  2  1  0
M  END
>  <energy_score>  (3300) 
-11.323973

>  <alias>  (3300) 
CENRXKHSTBPKPG-UHFFFAOYSA-N-P86-P35-P86-601526

>  <HIPPO Pose ID>  (3300) 
77220

>  <smiles>  (3300) 
Cn1cnc(NC(=O)CCI)c1

>  <inchikey>  (3300) 
CENRXKHSTBPKPG-UHFFFAOYSA-N

>  <distance_score>  (3300) 
1.594454

>  <ref_mols>  (3300) 
Z0719a,Z1597a

>  <ref_pdb>  (3300) 
Z3093a

>  <HIPPO Compound ID>  (3300) 
149395

>  <name>  (3300) 
CENRXKHSTBPKPG-UHFFFAOYSA-N-P86-P35-P86-601526

>  <inspiration_score>  (3300) 
None

$$$$
BPBCYBSJNKWOSY-UHFFFAOYSA-N-P86-P35-P86-601526
     RDKit          3D

 12 12  0  0  0  0  0  0  0  0999 V2000
   -4.6401    7.2024  -21.4535 C   0  0  0  0  0  0  0  0  0  0  0  0
   -4.0702    5.9390  -20.8577 C   0  0  1  0  0  0  0  0  0  0  0  0
   -2.1820    5.8037  -21.3551 Br  0  0  0  0  0  0  0  0  0  0  0  0
   -4.2057    5.9303  -19.3366 C   0  0  0  0  0  0  0  0  0  0  0  0
   -3.3387    6.2264  -18.6074 O   0  0  0  0  0  0  0  0  0  0  0  0
   -5.6509    5.4117  -19.0348 N   0  0  0  0  0  0  0  0  0  0  0  0
   -6.3001    5.2569  -17.8575 C   0  0  0  0  0  0  0  0  0  0  0  0
   -7.5305    4.6776  -17.6551 C   0  0  0  0  0  0  0  0  0  0  0  0
   -7.6648    4.6696  -16.2947 N   0  0  0  0  0  0  0  0  0  0  0  0
   -8.7380    4.1468  -15.5056 C   0  0  0  0  0  0  0  0  0  0  0  0
   -6.5740    5.2675  -15.7526 C   0  0  0  0  0  0  0  0  0  0  0  0
   -5.7394    5.6546  -16.6839 N   0  0  0  0  0  0  0  0  0  0  0  0
  2  1  1  1
  2  3  1  0
  2  4  1  0
  4  5  2  0
  4  6  1  0
  6  7  1  0
  7  8  2  0
  8  9  1  0
  9 10  1  0
  9 11  1  0
 11 12  2  0
 12  7  1  0
M  END
>  <energy_score>  (3301) 
-17.876008

>  <alias>  (3301) 
BPBCYBSJNKWOSY-UHFFFAOYSA-N-P86-P35-P86-601526

>  <HIPPO Pose ID>  (3301) 
77226

>  <smiles>  (3301) 
CC(Br)C(=O)Nc1cn(C)cn1

>  <inchikey>  (3301) 
BPBCYBSJNKWOSY-UHFFFAOYSA-N

>  <distance_score>  (3301) 
1.666209

>  <ref_mols>  (3301) 
Z0719a,Z1597a

>  <ref_pdb>  (3301) 
Z3093a

>  <HIPPO Compound ID>  (3301) 
149398

>  <name>  (3301) 
BPBCYBSJNKWOSY-UHFFFAOYSA-N-P86-P35-P86-601526

>  <inspiration_score>  (3301) 
None

$$$$
LCFCAIXYWWBKFU-UHFFFAOYSA-N-P86-P35-P86-601526
     RDKit          3D

 12 12  0  0  0  0  0  0  0  0999 V2000
   -4.6413    7.1069  -21.6253 C   0  0  0  0  0  0  0  0  0  0  0  0
   -4.0954    5.9143  -20.8739 C   0  0  1  0  0  0  0  0  0  0  0  0
   -2.3567    5.7206  -21.2444 Cl  0  0  0  0  0  0  0  0  0  0  0  0
   -4.3053    6.0907  -19.3668 C   0  0  0  0  0  0  0  0  0  0  0  0
   -3.4926    6.5416  -18.6538 O   0  0  0  0  0  0  0  0  0  0  0  0
   -5.7347    5.5370  -19.0521 N   0  0  0  0  0  0  0  0  0  0  0  0
   -6.3645    5.3540  -17.8681 C   0  0  0  0  0  0  0  0  0  0  0  0
   -7.5333    4.6642  -17.6497 C   0  0  0  0  0  0  0  0  0  0  0  0
   -7.6617    4.6672  -16.2890 N   0  0  0  0  0  0  0  0  0  0  0  0
   -8.6794    4.0576  -15.4896 C   0  0  0  0  0  0  0  0  0  0  0  0
   -6.6312    5.3756  -15.7626 C   0  0  0  0  0  0  0  0  0  0  0  0
   -5.8428    5.8282  -16.7049 N   0  0  0  0  0  0  0  0  0  0  0  0
  2  1  1  6
  2  3  1  0
  2  4  1  0
  4  5  2  0
  4  6  1  0
  6  7  1  0
  7  8  2  0
  8  9  1  0
  9 10  1  0
  9 11  1  0
 11 12  2  0
 12  7  1  0
M  END
>  <energy_score>  (3302) 
-15.060439

>  <alias>  (3302) 
LCFCAIXYWWBKFU-UHFFFAOYSA-N-P86-P35-P86-601526

>  <HIPPO Pose ID>  (3302) 
77228

>  <smiles>  (3302) 
CC(Cl)C(=O)Nc1cn(C)cn1

>  <inchikey>  (3302) 
LCFCAIXYWWBKFU-UHFFFAOYSA-N

>  <distance_score>  (3302) 
1.645366

>  <ref_mols>  (3302) 
Z0719a,Z1597a

>  <ref_pdb>  (3302) 
Z3093a

>  <HIPPO Compound ID>  (3302) 
149399

>  <name>  (3302) 
LCFCAIXYWWBKFU-UHFFFAOYSA-N-P86-P35-P86-601526

>  <inspiration_score>  (3302) 
None

$$$$
RFALVEDOEVHVJR-UHFFFAOYSA-N-P86-P35-P86-601526
     RDKit          3D

 13 13  0  0  0  0  0  0  0  0999 V2000
   -8.3965    4.4341  -14.6334 C   0  0  0  0  0  0  0  0  0  0  0  0
   -8.2650    4.3753  -16.1102 C   0  0  0  0  0  0  0  0  0  0  0  0
   -9.1762    3.9544  -16.9625 N   0  0  0  0  0  0  0  0  0  0  0  0
   -8.6428    4.1728  -18.2002 C   0  0  0  0  0  0  0  0  0  0  0  0
   -7.3697    4.6979  -18.1186 C   0  0  0  0  0  0  0  0  0  0  0  0
   -6.5686    5.0213  -19.1799 N   0  0  0  0  0  0  0  0  0  0  0  0
   -5.0797    5.4740  -19.2214 C   0  0  0  0  0  0  0  0  0  0  0  0
   -4.3355    5.7133  -18.3508 O   0  0  0  0  0  0  0  0  0  0  0  0
   -4.6678    5.5653  -20.6808 C   0  0  0  0  0  0  0  0  0  0  0  0
   -4.4880    7.0186  -21.0412 C   0  0  0  0  0  0  0  0  0  0  0  0
   -4.1641    7.2159  -22.9499 Br  0  0  0  0  0  0  0  0  0  0  0  0
   -7.1328    4.8036  -16.7719 N   0  0  0  0  0  0  0  0  0  0  0  0
   -5.9743    5.3280  -16.1115 C   0  0  0  0  0  0  0  0  0  0  0  0
  1  2  1  0
  2  3  2  0
  3  4  1  0
  4  5  2  0
  5  6  1  0
  6  7  1  0
  7  8  2  0
  7  9  1  0
  9 10  1  0
 10 11  1  0
  5 12  1  0
 12 13  1  0
 12  2  1  0
M  END
>  <energy_score>  (3303) 
-22.315993

>  <alias>  (3303) 
RFALVEDOEVHVJR-UHFFFAOYSA-N-P86-P35-P86-601526

>  <HIPPO Pose ID>  (3303) 
77230

>  <smiles>  (3303) 
Cc1ncc(NC(=O)CCBr)n1C

>  <inchikey>  (3303) 
RFALVEDOEVHVJR-UHFFFAOYSA-N

>  <distance_score>  (3303) 
1.221921

>  <ref_mols>  (3303) 
Z0719a,Z1597a

>  <ref_pdb>  (3303) 
Z3093a

>  <HIPPO Compound ID>  (3303) 
149400

>  <name>  (3303) 
RFALVEDOEVHVJR-UHFFFAOYSA-N-P86-P35-P86-601526

>  <inspiration_score>  (3303) 
None

$$$$
AGRLNDINHMBHBV-UHFFFAOYSA-N-P35-P35-P86-601526
     RDKit          3D

 13 13  0  0  0  0  0  0  0  0999 V2000
   -8.2607    4.1333  -14.6511 C   0  0  0  0  0  0  0  0  0  0  0  0
   -8.1522    4.4200  -16.1029 C   0  0  0  0  0  0  0  0  0  0  0  0
   -8.8932    3.9257  -17.0757 N   0  0  0  0  0  0  0  0  0  0  0  0
   -8.2974    4.3575  -18.2364 C   0  0  0  0  0  0  0  0  0  0  0  0
   -7.1549    5.0845  -17.9682 C   0  0  0  0  0  0  0  0  0  0  0  0
   -6.1812    5.5031  -18.8343 N   0  0  0  0  0  0  0  0  0  0  0  0
   -4.7657    6.1206  -18.5537 C   0  0  0  0  0  0  0  0  0  0  0  0
   -4.2600    6.4318  -17.5422 O   0  0  0  0  0  0  0  0  0  0  0  0
   -4.0380    6.1739  -19.9030 C   0  0  1  0  0  0  0  0  0  0  0  0
   -4.6302    7.1880  -20.8621 C   0  0  0  0  0  0  0  0  0  0  0  0
   -2.2972    6.5395  -19.6802 Cl  0  0  0  0  0  0  0  0  0  0  0  0
   -7.1906    5.2592  -16.6118 N   0  0  0  0  0  0  0  0  0  0  0  0
   -6.4618    6.2000  -15.8133 C   0  0  0  0  0  0  0  0  0  0  0  0
  1  2  1  0
  2  3  2  0
  3  4  1  0
  4  5  2  0
  5  6  1  0
  6  7  1  0
  7  8  2  0
  7  9  1  0
  9 10  1  6
  9 11  1  0
  5 12  1  0
 12 13  1  0
 12  2  1  0
M  END
>  <energy_score>  (3304) 
-12.103024

>  <alias>  (3304) 
AGRLNDINHMBHBV-UHFFFAOYSA-N-P35-P35-P86-601526

>  <HIPPO Pose ID>  (3304) 
77233

>  <smiles>  (3304) 
Cc1ncc(NC(=O)C(C)Cl)n1C

>  <inchikey>  (3304) 
AGRLNDINHMBHBV-UHFFFAOYSA-N

>  <distance_score>  (3304) 
1.349674

>  <ref_mols>  (3304) 
Z0719a,Z1597a

>  <ref_pdb>  (3304) 
Z3093a

>  <HIPPO Compound ID>  (3304) 
149402

>  <name>  (3304) 
AGRLNDINHMBHBV-UHFFFAOYSA-N-P35-P35-P86-601526

>  <inspiration_score>  (3304) 
None

$$$$
ZGVNSOLIVBOSLG-UHFFFAOYSA-N-P35-P35-P86-601526
     RDKit          3D

 13 13  0  0  0  0  0  0  0  0999 V2000
   -5.1361    3.2464  -13.5540 C   0  0  0  0  0  0  0  0  0  0  0  0
   -6.5981    3.2774  -13.9887 C   0  0  0  0  0  0  0  0  0  0  0  0
   -6.9094    4.0153  -15.2023 N   0  0  0  0  0  0  0  0  0  0  0  0
   -8.1732    4.3988  -15.5746 C   0  0  0  0  0  0  0  0  0  0  0  0
   -8.1650    5.0695  -16.7052 N   0  0  0  0  0  0  0  0  0  0  0  0
   -6.8662    5.0838  -17.0965 C   0  0  0  0  0  0  0  0  0  0  0  0
   -6.4966    5.7028  -18.2395 N   0  0  0  0  0  0  0  0  0  0  0  0
   -5.0789    6.0260  -18.8029 C   0  0  0  0  0  0  0  0  0  0  0  0
   -4.0172    5.7364  -18.3993 O   0  0  0  0  0  0  0  0  0  0  0  0
   -5.2909    6.9188  -20.0326 C   0  0  2  0  0  0  0  0  0  0  0  0
   -4.0007    7.1251  -20.8096 C   0  0  0  0  0  0  0  0  0  0  0  0
   -5.8711    8.5185  -19.4557 Cl  0  0  0  0  0  0  0  0  0  0  0  0
   -6.0647    4.4531  -16.1836 C   0  0  0  0  0  0  0  0  0  0  0  0
  1  2  1  0
  2  3  1  0
  3  4  1  0
  4  5  2  0
  5  6  1  0
  6  7  1  0
  7  8  1  0
  8  9  2  0
  8 10  1  0
 10 11  1  1
 10 12  1  0
  6 13  2  0
 13  3  1  0
M  END
>  <energy_score>  (3305) 
-23.131669

>  <alias>  (3305) 
ZGVNSOLIVBOSLG-UHFFFAOYSA-N-P35-P35-P86-601526

>  <HIPPO Pose ID>  (3305) 
77235

>  <smiles>  (3305) 
CCn1cnc(NC(=O)C(C)Cl)c1

>  <inchikey>  (3305) 
ZGVNSOLIVBOSLG-UHFFFAOYSA-N

>  <distance_score>  (3305) 
1.549607

>  <ref_mols>  (3305) 
Z0719a,Z1597a

>  <ref_pdb>  (3305) 
Z3093a

>  <HIPPO Compound ID>  (3305) 
149403

>  <name>  (3305) 
ZGVNSOLIVBOSLG-UHFFFAOYSA-N-P35-P35-P86-601526

>  <inspiration_score>  (3305) 
None

$$$$
GLJXDBPVHONMNC-UHFFFAOYSA-N-P86-P35-P86-601526
     RDKit          3D

 13 13  0  0  0  0  0  0  0  0999 V2000
   -4.6461    8.3296  -21.5829 C   0  0  0  0  0  0  0  0  0  0  0  0
   -4.0340    7.4300  -20.7984 C   0  0  0  0  0  0  0  0  0  0  0  0
   -4.2569    5.9442  -20.7864 C   0  0  2  0  0  0  0  0  0  0  0  0
   -5.1598    5.5888  -21.8141 O   0  0  0  0  0  0  0  0  0  0  0  0
   -4.6694    5.5058  -19.3503 C   0  0  0  0  0  0  0  0  0  0  0  0
   -3.9034    5.4465  -18.4662 O   0  0  0  0  0  0  0  0  0  0  0  0
   -6.1917    5.1912  -19.3874 N   0  0  0  0  0  0  0  0  0  0  0  0
   -7.0427    4.8546  -18.3929 C   0  0  0  0  0  0  0  0  0  0  0  0
   -6.7732    4.8228  -17.0546 C   0  0  0  0  0  0  0  0  0  0  0  0
   -7.9461    4.4484  -16.4736 N   0  0  0  0  0  0  0  0  0  0  0  0
   -8.1865    4.3570  -15.0660 C   0  0  0  0  0  0  0  0  0  0  0  0
   -8.8603    4.2466  -17.4572 C   0  0  0  0  0  0  0  0  0  0  0  0
   -8.3373    4.5113  -18.6333 N   0  0  0  0  0  0  0  0  0  0  0  0
  1  2  2  0
  2  3  1  0
  3  4  1  6
  3  5  1  0
  5  6  2  0
  5  7  1  0
  7  8  1  0
  8  9  2  0
  9 10  1  0
 10 11  1  0
 10 12  1  0
 12 13  2  0
 13  8  1  0
M  END
>  <energy_score>  (3306) 
-5.626028

>  <alias>  (3306) 
GLJXDBPVHONMNC-UHFFFAOYSA-N-P86-P35-P86-601526

>  <HIPPO Pose ID>  (3306) 
77238

>  <smiles>  (3306) 
C=CC(O)C(=O)Nc1cn(C)cn1

>  <inchikey>  (3306) 
GLJXDBPVHONMNC-UHFFFAOYSA-N

>  <distance_score>  (3306) 
1.271489

>  <ref_mols>  (3306) 
Z0719a,Z1597a

>  <ref_pdb>  (3306) 
Z3093a

>  <HIPPO Compound ID>  (3306) 
149404

>  <name>  (3306) 
GLJXDBPVHONMNC-UHFFFAOYSA-N-P86-P35-P86-601526

>  <inspiration_score>  (3306) 
None

$$$$
WVVVJECBSWTEBH-UHFFFAOYSA-N-P86-P35-P86-601526
     RDKit          3D

 13 13  0  0  0  0  0  0  0  0999 V2000
   -9.1986    3.8312  -16.5788 C   0  0  0  0  0  0  0  0  0  0  0  0
   -8.0266    4.4943  -17.0487 N   0  0  0  0  0  0  0  0  0  0  0  0
   -7.1571    5.1765  -16.2585 C   0  0  0  0  0  0  0  0  0  0  0  0
   -6.2457    5.7853  -16.9808 N   0  0  0  0  0  0  0  0  0  0  0  0
   -6.5089    5.4180  -18.2687 C   0  0  0  0  0  0  0  0  0  0  0  0
   -5.7301    5.7980  -19.3084 N   0  0  0  0  0  0  0  0  0  0  0  0
   -4.5211    6.7763  -19.3604 C   0  0  0  0  0  0  0  0  0  0  0  0
   -4.0630    7.4615  -18.5282 O   0  0  0  0  0  0  0  0  0  0  0  0
   -3.8610    6.6505  -20.7548 C   0  0  0  0  0  0  0  0  0  0  0  0
   -2.9206    7.8187  -20.9995 C   0  0  0  0  0  0  0  0  0  0  0  0
   -3.0687    5.3448  -20.8070 C   0  0  0  0  0  0  0  0  0  0  0  0
   -5.0856    6.6896  -22.0578 Cl  0  0  0  0  0  0  0  0  0  0  0  0
   -7.6127    4.6053  -18.3413 C   0  0  0  0  0  0  0  0  0  0  0  0
  1  2  1  0
  2  3  1  0
  3  4  2  0
  4  5  1  0
  5  6  1  0
  6  7  1  0
  7  8  2  0
  7  9  1  0
  9 10  1  0
  9 11  1  0
  9 12  1  0
  5 13  2  0
 13  2  1  0
M  END
>  <energy_score>  (3307) 
-0.134024

>  <alias>  (3307) 
WVVVJECBSWTEBH-UHFFFAOYSA-N-P86-P35-P86-601526

>  <HIPPO Pose ID>  (3307) 
77240

>  <smiles>  (3307) 
Cn1cnc(NC(=O)C(C)(C)Cl)c1

>  <inchikey>  (3307) 
WVVVJECBSWTEBH-UHFFFAOYSA-N

>  <distance_score>  (3307) 
1.800213

>  <ref_mols>  (3307) 
Z0719a,Z1597a

>  <ref_pdb>  (3307) 
Z3093a

>  <HIPPO Compound ID>  (3307) 
149405

>  <name>  (3307) 
WVVVJECBSWTEBH-UHFFFAOYSA-N-P86-P35-P86-601526

>  <inspiration_score>  (3307) 
None

$$$$
FJOUTFVUEVZQJN-UHFFFAOYSA-N-P35-P35-P86-601526
     RDKit          3D

 13 13  0  0  0  0  0  0  0  0999 V2000
   -4.3177    6.9921  -20.4374 C   0  0  0  0  0  0  0  0  0  0  0  0
   -3.9684    5.6745  -19.8084 C   0  0  0  0  0  0  0  0  0  0  0  0
   -3.1018    4.9339  -20.2640 O   0  0  0  0  0  0  0  0  0  0  0  0
   -4.7605    5.3091  -18.5402 C   0  0  0  0  0  0  0  0  0  0  0  0
   -4.2056    5.2799  -17.5168 O   0  0  0  0  0  0  0  0  0  0  0  0
   -6.2584    5.1313  -18.8723 N   0  0  0  0  0  0  0  0  0  0  0  0
   -7.3169    4.8033  -18.0641 C   0  0  0  0  0  0  0  0  0  0  0  0
   -8.5841    4.7984  -18.5985 N   0  0  0  0  0  0  0  0  0  0  0  0
   -9.4676    4.4383  -17.6259 C   0  0  0  0  0  0  0  0  0  0  0  0
   -8.8542    4.2024  -16.4959 N   0  0  0  0  0  0  0  0  0  0  0  0
   -7.5161    4.4561  -16.7361 C   0  0  0  0  0  0  0  0  0  0  0  0
   -6.5915    4.3201  -15.6494 C   0  0  0  0  0  0  0  0  0  0  0  0
   -5.8588    4.2014  -14.7544 N   0  0  0  0  0  0  0  0  0  0  0  0
  1  2  1  0
  2  3  2  0
  2  4  1  0
  4  5  2  0
  4  6  1  0
  6  7  1  0
  7  8  1  0
  8  9  1  0
  9 10  2  0
 10 11  1  0
 11 12  1  0
 12 13  3  0
 11  7  2  0
M  END
>  <energy_score>  (3308) 
-4.447526

>  <alias>  (3308) 
FJOUTFVUEVZQJN-UHFFFAOYSA-N-P35-P35-P86-601526

>  <HIPPO Pose ID>  (3308) 
77259

>  <smiles>  (3308) 
CC(=O)C(=O)Nc1[nH]cnc1C#N

>  <inchikey>  (3308) 
FJOUTFVUEVZQJN-UHFFFAOYSA-N

>  <distance_score>  (3308) 
1.262237

>  <ref_mols>  (3308) 
Z0719a,Z1597a

>  <ref_pdb>  (3308) 
Z3093a

>  <HIPPO Compound ID>  (3308) 
149415

>  <name>  (3308) 
FJOUTFVUEVZQJN-UHFFFAOYSA-N-P35-P35-P86-601526

>  <inspiration_score>  (3308) 
None

$$$$
JNYNBLMYYYISGK-UHFFFAOYSA-N-P86-P35-P86-601526
     RDKit          3D

 13 13  0  0  0  0  0  0  0  0999 V2000
   -4.4246    6.8807  -21.2157 C   0  0  0  0  0  0  0  0  0  0  0  0
   -4.2121    5.7518  -20.2629 C   0  0  0  0  0  0  0  0  0  0  0  0
   -3.4832    4.7912  -20.4665 O   0  0  0  0  0  0  0  0  0  0  0  0
   -4.9589    5.8423  -18.9441 C   0  0  0  0  0  0  0  0  0  0  0  0
   -4.4570    6.3706  -18.0343 O   0  0  0  0  0  0  0  0  0  0  0  0
   -6.2963    5.0790  -19.0450 N   0  0  0  0  0  0  0  0  0  0  0  0
   -7.2041    4.7418  -18.0756 C   0  0  0  0  0  0  0  0  0  0  0  0
   -8.4273    4.1296  -18.2625 C   0  0  0  0  0  0  0  0  0  0  0  0
   -9.0719    3.9224  -17.0734 N   0  0  0  0  0  0  0  0  0  0  0  0
   -8.2607    4.3954  -16.1502 C   0  0  0  0  0  0  0  0  0  0  0  0
   -8.4927    4.4309  -14.6863 C   0  0  0  0  0  0  0  0  0  0  0  0
   -7.0987    4.8746  -16.7144 N   0  0  0  0  0  0  0  0  0  0  0  0
   -5.9701    5.3050  -15.9407 C   0  0  0  0  0  0  0  0  0  0  0  0
  1  2  1  0
  2  3  2  0
  2  4  1  0
  4  5  2  0
  4  6  1  0
  6  7  1  0
  7  8  2  0
  8  9  1  0
  9 10  2  0
 10 11  1  0
 10 12  1  0
 12 13  1  0
 12  7  1  0
M  END
>  <energy_score>  (3309) 
-11.717432

>  <alias>  (3309) 
JNYNBLMYYYISGK-UHFFFAOYSA-N-P86-P35-P86-601526

>  <HIPPO Pose ID>  (3309) 
77264

>  <smiles>  (3309) 
CC(=O)C(=O)Nc1cnc(C)n1C

>  <inchikey>  (3309) 
JNYNBLMYYYISGK-UHFFFAOYSA-N

>  <distance_score>  (3309) 
1.237436

>  <ref_mols>  (3309) 
Z0719a,Z1597a

>  <ref_pdb>  (3309) 
Z3093a

>  <HIPPO Compound ID>  (3309) 
149417

>  <name>  (3309) 
JNYNBLMYYYISGK-UHFFFAOYSA-N-P86-P35-P86-601526

>  <inspiration_score>  (3309) 
None

$$$$
WGHYHGXNPOFXQG-UHFFFAOYSA-N-P86-P35-P86-601526
     RDKit          3D

 13 13  0  0  0  0  0  0  0  0999 V2000
   -5.9073    4.7520  -14.7657 N   0  0  0  0  0  0  0  0  0  0  0  0
   -6.6576    4.6268  -15.6454 C   0  0  0  0  0  0  0  0  0  0  0  0
   -7.6268    4.4845  -16.6908 C   0  0  0  0  0  0  0  0  0  0  0  0
   -8.9088    4.1089  -16.3417 N   0  0  0  0  0  0  0  0  0  0  0  0
   -9.6069    4.1578  -17.4454 C   0  0  0  0  0  0  0  0  0  0  0  0
   -8.8276    4.5050  -18.5039 N   0  0  0  0  0  0  0  0  0  0  0  0
   -7.5467    4.7107  -18.0552 C   0  0  0  0  0  0  0  0  0  0  0  0
   -6.5901    5.0557  -18.9672 N   0  0  0  0  0  0  0  0  0  0  0  0
   -5.0641    5.2867  -18.7895 C   0  0  0  0  0  0  0  0  0  0  0  0
   -4.4076    5.2926  -17.8247 O   0  0  0  0  0  0  0  0  0  0  0  0
   -4.4898    5.5150  -20.1832 C   0  0  0  0  0  0  0  0  0  0  0  0
   -4.5455    6.9915  -20.5291 C   0  0  0  0  0  0  0  0  0  0  0  0
   -4.0864    7.3447  -22.5778 I   0  0  0  0  0  0  0  0  0  0  0  0
  1  2  3  0
  2  3  1  0
  3  4  1  0
  4  5  2  0
  5  6  1  0
  6  7  1  0
  7  8  1  0
  8  9  1  0
  9 10  2  0
  9 11  1  0
 11 12  1  0
 12 13  1  0
  7  3  2  0
M  END
>  <energy_score>  (3310) 
-7.374728

>  <alias>  (3310) 
WGHYHGXNPOFXQG-UHFFFAOYSA-N-P86-P35-P86-601526

>  <HIPPO Pose ID>  (3310) 
77266

>  <smiles>  (3310) 
N#Cc1nc[nH]c1NC(=O)CCI

>  <inchikey>  (3310) 
WGHYHGXNPOFXQG-UHFFFAOYSA-N

>  <distance_score>  (3310) 
1.310627

>  <ref_mols>  (3310) 
Z0719a,Z1597a

>  <ref_pdb>  (3310) 
Z3093a

>  <HIPPO Compound ID>  (3310) 
149418

>  <name>  (3310) 
WGHYHGXNPOFXQG-UHFFFAOYSA-N-P86-P35-P86-601526

>  <inspiration_score>  (3310) 
None

$$$$
LKQAGTFTUSVISA-UHFFFAOYSA-N-P86-P35-P86-601526
     RDKit          3D

 13 13  0  0  0  0  0  0  0  0999 V2000
   -4.6369    8.3009  -21.3996 C   0  0  0  0  0  0  0  0  0  0  0  0
   -4.4611    6.8260  -21.7425 C   0  0  0  0  0  0  0  0  0  0  0  0
   -3.5826    6.0712  -20.7502 C   0  0  1  0  0  0  0  0  0  0  0  0
   -2.2625    6.6144  -20.8414 O   0  0  0  0  0  0  0  0  0  0  0  0
   -4.1008    6.1066  -19.2903 C   0  0  0  0  0  0  0  0  0  0  0  0
   -3.4474    6.5482  -18.4240 O   0  0  0  0  0  0  0  0  0  0  0  0
   -5.4845    5.3943  -19.2478 N   0  0  0  0  0  0  0  0  0  0  0  0
   -6.3317    5.1797  -18.2129 C   0  0  0  0  0  0  0  0  0  0  0  0
   -7.5632    4.5777  -18.2990 C   0  0  0  0  0  0  0  0  0  0  0  0
   -7.9816    4.4966  -17.0056 N   0  0  0  0  0  0  0  0  0  0  0  0
   -9.1980    3.9207  -16.5304 C   0  0  0  0  0  0  0  0  0  0  0  0
   -7.0311    5.0553  -16.2111 C   0  0  0  0  0  0  0  0  0  0  0  0
   -6.0290    5.5112  -16.9260 N   0  0  0  0  0  0  0  0  0  0  0  0
  1  2  1  0
  2  3  1  0
  3  4  1  1
  3  5  1  0
  5  6  2  0
  5  7  1  0
  7  8  1  0
  8  9  2  0
  9 10  1  0
 10 11  1  0
 10 12  1  0
 12 13  2  0
 13  8  1  0
M  END
>  <energy_score>  (3311) 
-9.832558

>  <alias>  (3311) 
LKQAGTFTUSVISA-UHFFFAOYSA-N-P86-P35-P86-601526

>  <HIPPO Pose ID>  (3311) 
77272

>  <smiles>  (3311) 
CCC(O)C(=O)Nc1cn(C)cn1

>  <inchikey>  (3311) 
LKQAGTFTUSVISA-UHFFFAOYSA-N

>  <distance_score>  (3311) 
1.38571

>  <ref_mols>  (3311) 
Z0719a,Z1597a

>  <ref_pdb>  (3311) 
Z3093a

>  <HIPPO Compound ID>  (3311) 
149421

>  <name>  (3311) 
LKQAGTFTUSVISA-UHFFFAOYSA-N-P86-P35-P86-601526

>  <inspiration_score>  (3311) 
None

$$$$
MQYYYEAPQVWCKR-UHFFFAOYSA-N-P86-P35-P86-601526
     RDKit          3D

 13 13  0  0  0  0  0  0  0  0999 V2000
   -8.4783    3.7970  -19.2291 C   0  0  0  0  0  0  0  0  0  0  0  0
   -8.1862    4.2170  -17.8635 C   0  0  0  0  0  0  0  0  0  0  0  0
   -9.0724    3.8926  -16.8737 N   0  0  0  0  0  0  0  0  0  0  0  0
   -8.5275    4.3546  -15.7790 C   0  0  0  0  0  0  0  0  0  0  0  0
   -7.3314    4.9735  -16.0295 N   0  0  0  0  0  0  0  0  0  0  0  0
   -6.4684    5.4278  -14.9835 C   0  0  0  0  0  0  0  0  0  0  0  0
   -7.0938    4.9060  -17.3756 C   0  0  0  0  0  0  0  0  0  0  0  0
   -6.0105    5.3484  -18.0882 N   0  0  0  0  0  0  0  0  0  0  0  0
   -4.9317    6.4091  -17.7306 C   0  0  0  0  0  0  0  0  0  0  0  0
   -4.7588    7.0113  -16.7420 O   0  0  0  0  0  0  0  0  0  0  0  0
   -3.9448    6.5182  -18.9164 C   0  0  0  0  0  0  0  0  0  0  0  0
   -4.5826    6.7673  -20.2839 C   0  0  0  0  0  0  0  0  0  0  0  0
   -3.0221    5.3043  -18.9479 C   0  0  0  0  0  0  0  0  0  0  0  0
  1  2  1  0
  2  3  1  0
  3  4  2  0
  4  5  1  0
  5  6  1  0
  5  7  1  0
  7  8  1  0
  8  9  1  0
  9 10  2  0
  9 11  1  0
 11 12  1  0
 11 13  1  0
  7  2  2  0
M  END
>  <energy_score>  (3312) 
-18.623972

>  <alias>  (3312) 
MQYYYEAPQVWCKR-UHFFFAOYSA-N-P86-P35-P86-601526

>  <HIPPO Pose ID>  (3312) 
77276

>  <smiles>  (3312) 
Cc1ncn(C)c1NC(=O)C(C)C

>  <inchikey>  (3312) 
MQYYYEAPQVWCKR-UHFFFAOYSA-N

>  <distance_score>  (3312) 
1.409272

>  <ref_mols>  (3312) 
Z0719a,Z1597a

>  <ref_pdb>  (3312) 
Z3093a

>  <HIPPO Compound ID>  (3312) 
149423

>  <name>  (3312) 
MQYYYEAPQVWCKR-UHFFFAOYSA-N-P86-P35-P86-601526

>  <inspiration_score>  (3312) 
None

$$$$
IPRQBVSJLGASKQ-UHFFFAOYSA-N-P86-P35-P86-601526
     RDKit          3D

 13 13  0  0  0  0  0  0  0  0999 V2000
   -8.5272    4.3973  -14.9221 C   0  0  0  0  0  0  0  0  0  0  0  0
   -8.1364    4.4234  -16.3498 C   0  0  0  0  0  0  0  0  0  0  0  0
   -8.8351    3.9744  -17.3704 N   0  0  0  0  0  0  0  0  0  0  0  0
   -8.0746    4.2525  -18.4765 C   0  0  0  0  0  0  0  0  0  0  0  0
   -6.8970    4.8938  -18.1388 C   0  0  0  0  0  0  0  0  0  0  0  0
   -5.9070    5.3347  -18.9822 N   0  0  0  0  0  0  0  0  0  0  0  0
   -4.6645    6.2350  -18.7019 C   0  0  0  0  0  0  0  0  0  0  0  0
   -4.2558    6.6725  -17.6945 O   0  0  0  0  0  0  0  0  0  0  0  0
   -3.8711    6.4382  -20.0058 C   0  0  0  0  0  0  0  0  0  0  0  0
   -4.6940    6.8942  -21.1999 C   0  0  0  0  0  0  0  0  0  0  0  0
   -3.0476    5.1993  -20.3302 C   0  0  0  0  0  0  0  0  0  0  0  0
   -6.9347    4.9497  -16.7676 N   0  0  0  0  0  0  0  0  0  0  0  0
   -5.9015    5.3545  -15.8585 C   0  0  0  0  0  0  0  0  0  0  0  0
  1  2  1  0
  2  3  2  0
  3  4  1  0
  4  5  2  0
  5  6  1  0
  6  7  1  0
  7  8  2  0
  7  9  1  0
  9 10  1  0
  9 11  1  0
  5 12  1  0
 12 13  1  0
 12  2  1  0
M  END
>  <energy_score>  (3313) 
-21.107186

>  <alias>  (3313) 
IPRQBVSJLGASKQ-UHFFFAOYSA-N-P86-P35-P86-601526

>  <HIPPO Pose ID>  (3313) 
77278

>  <smiles>  (3313) 
Cc1ncc(NC(=O)C(C)C)n1C

>  <inchikey>  (3313) 
IPRQBVSJLGASKQ-UHFFFAOYSA-N

>  <distance_score>  (3313) 
1.419246

>  <ref_mols>  (3313) 
Z0719a,Z1597a

>  <ref_pdb>  (3313) 
Z3093a

>  <HIPPO Compound ID>  (3313) 
149424

>  <name>  (3313) 
IPRQBVSJLGASKQ-UHFFFAOYSA-N-P86-P35-P86-601526

>  <inspiration_score>  (3313) 
None

$$$$
OPSHDJJMAKKCFT-UHFFFAOYSA-N-P35-P35-P86-601526
     RDKit          3D

 13 13  0  0  0  0  0  0  0  0999 V2000
   -6.0154    4.1516  -14.5490 N   0  0  0  0  0  0  0  0  0  0  0  0
   -6.7031    4.3192  -15.4720 C   0  0  0  0  0  0  0  0  0  0  0  0
   -7.5587    4.4994  -16.6077 C   0  0  0  0  0  0  0  0  0  0  0  0
   -8.9183    4.3078  -16.4590 N   0  0  0  0  0  0  0  0  0  0  0  0
   -9.4314    4.5002  -17.6474 C   0  0  0  0  0  0  0  0  0  0  0  0
   -8.4628    4.7785  -18.5675 N   0  0  0  0  0  0  0  0  0  0  0  0
   -7.2468    4.7740  -17.9297 C   0  0  0  0  0  0  0  0  0  0  0  0
   -6.0963    4.9814  -18.6414 N   0  0  0  0  0  0  0  0  0  0  0  0
   -4.6424    5.2360  -18.1562 C   0  0  0  0  0  0  0  0  0  0  0  0
   -4.2197    5.3840  -17.0777 O   0  0  0  0  0  0  0  0  0  0  0  0
   -3.7358    5.1691  -19.3722 C   0  0  0  0  0  0  0  0  0  0  0  0
   -3.7578    6.4132  -20.2358 C   0  0  0  0  0  0  0  0  0  0  0  0
   -2.8733    6.2062  -21.3475 O   0  0  0  0  0  0  0  0  0  0  0  0
  1  2  3  0
  2  3  1  0
  3  4  1  0
  4  5  2  0
  5  6  1  0
  6  7  1  0
  7  8  1  0
  8  9  1  0
  9 10  2  0
  9 11  1  0
 11 12  1  0
 12 13  1  0
  7  3  2  0
M  END
>  <energy_score>  (3314) 
-6.495333

>  <alias>  (3314) 
OPSHDJJMAKKCFT-UHFFFAOYSA-N-P35-P35-P86-601526

>  <HIPPO Pose ID>  (3314) 
77283

>  <smiles>  (3314) 
N#Cc1nc[nH]c1NC(=O)CCO

>  <inchikey>  (3314) 
OPSHDJJMAKKCFT-UHFFFAOYSA-N

>  <distance_score>  (3314) 
1.270058

>  <ref_mols>  (3314) 
Z0719a,Z1597a

>  <ref_pdb>  (3314) 
Z3093a

>  <HIPPO Compound ID>  (3314) 
149427

>  <name>  (3314) 
OPSHDJJMAKKCFT-UHFFFAOYSA-N-P35-P35-P86-601526

>  <inspiration_score>  (3314) 
None

$$$$
RPFUJBJJWYNURD-UHFFFAOYSA-N-P86-P35-P86-601526
     RDKit          3D

 13 13  0  0  0  0  0  0  0  0999 V2000
   -8.5751    4.4109  -15.4311 C   0  0  0  0  0  0  0  0  0  0  0  0
   -7.9802    4.5005  -16.7294 N   0  0  0  0  0  0  0  0  0  0  0  0
   -8.4324    3.9153  -17.8673 C   0  0  0  0  0  0  0  0  0  0  0  0
   -7.6023    4.1336  -18.8624 N   0  0  0  0  0  0  0  0  0  0  0  0
   -6.6304    4.9348  -18.3560 C   0  0  0  0  0  0  0  0  0  0  0  0
   -5.6080    5.3581  -19.1304 N   0  0  0  0  0  0  0  0  0  0  0  0
   -4.4940    6.4056  -18.8481 C   0  0  0  0  0  0  0  0  0  0  0  0
   -4.2463    7.0053  -17.8737 O   0  0  0  0  0  0  0  0  0  0  0  0
   -3.5951    6.5164  -20.1202 C   0  0  0  0  0  0  0  0  0  0  0  0
   -4.4068    6.9016  -21.3639 C   0  0  0  0  0  0  0  0  0  0  0  0
   -2.5449    7.6232  -19.8820 C   0  0  0  0  0  0  0  0  0  0  0  0
   -2.8464    5.1970  -20.3508 C   0  0  0  0  0  0  0  0  0  0  0  0
   -6.8456    5.1918  -17.0313 C   0  0  0  0  0  0  0  0  0  0  0  0
  1  2  1  0
  2  3  1  0
  3  4  2  0
  4  5  1  0
  5  6  1  0
  6  7  1  0
  7  8  2  0
  7  9  1  0
  9 10  1  0
  9 11  1  0
  9 12  1  0
  5 13  2  0
 13  2  1  0
M  END
>  <energy_score>  (3315) 
-34.62369

>  <alias>  (3315) 
RPFUJBJJWYNURD-UHFFFAOYSA-N-P86-P35-P86-601526

>  <HIPPO Pose ID>  (3315) 
77290

>  <smiles>  (3315) 
Cn1cnc(NC(=O)C(C)(C)C)c1

>  <inchikey>  (3315) 
RPFUJBJJWYNURD-UHFFFAOYSA-N

>  <distance_score>  (3315) 
1.491306

>  <ref_mols>  (3315) 
Z0719a,Z1597a

>  <ref_pdb>  (3315) 
Z3093a

>  <HIPPO Compound ID>  (3315) 
149430

>  <name>  (3315) 
RPFUJBJJWYNURD-UHFFFAOYSA-N-P86-P35-P86-601526

>  <inspiration_score>  (3315) 
None

$$$$
SLUAPJGPTVTLQZ-UHFFFAOYSA-N-P35-P35-P86-601526
     RDKit          3D

 13 14  0  0  0  0  0  0  0  0999 V2000
   -5.7112    4.0217  -14.6948 C   0  0  0  0  0  0  0  0  0  0  0  0
   -6.6928    4.0140  -15.6132 C   0  0  0  0  0  0  0  0  0  0  0  0
   -7.0515    5.1610  -16.4638 C   0  0  0  0  0  0  0  0  0  0  0  0
   -8.0307    4.6694  -15.4886 C   0  0  2  0  0  0  0  0  0  0  0  0
   -8.2758    5.3380  -14.1807 C   0  0  0  0  0  0  0  0  0  0  0  0
   -8.3278    6.5021  -14.1187 O   0  0  0  0  0  0  0  0  0  0  0  0
   -8.3227    4.2734  -13.0643 N   0  0  0  0  0  0  0  0  0  0  0  0
   -8.3464    4.4128  -11.7038 C   0  0  0  0  0  0  0  0  0  0  0  0
   -8.3606    3.3860  -10.7780 C   0  0  0  0  0  0  0  0  0  0  0  0
   -8.2687    3.8593   -9.4987 N   0  0  0  0  0  0  0  0  0  0  0  0
   -8.2312    5.1618   -9.6285 C   0  0  0  0  0  0  0  0  0  0  0  0
   -8.2849    5.5515  -10.9433 N   0  0  0  0  0  0  0  0  0  0  0  0
   -8.2527    6.9281  -11.3615 C   0  0  0  0  0  0  0  0  0  0  0  0
  1  2  2  0
  2  3  1  0
  3  4  1  0
  4  5  1  1
  5  6  2  0
  5  7  1  0
  7  8  1  0
  8  9  2  0
  9 10  1  0
 10 11  2  0
 11 12  1  0
 12 13  1  0
  4  2  1  0
 12  8  1  0
M  END
>  <energy_score>  (3316) 
-13.430137

>  <alias>  (3316) 
SLUAPJGPTVTLQZ-UHFFFAOYSA-N-P35-P35-P86-601526

>  <HIPPO Pose ID>  (3316) 
77291

>  <smiles>  (3316) 
C=C1CC1C(=O)Nc1cncn1C

>  <inchikey>  (3316) 
SLUAPJGPTVTLQZ-UHFFFAOYSA-N

>  <distance_score>  (3316) 
1.441367

>  <ref_mols>  (3316) 
Z0719a,Z1597a

>  <ref_pdb>  (3316) 
Z3093a

>  <HIPPO Compound ID>  (3316) 
149431

>  <name>  (3316) 
SLUAPJGPTVTLQZ-UHFFFAOYSA-N-P35-P35-P86-601526

>  <inspiration_score>  (3316) 
None

$$$$
MITZJXJLERAKEZ-UHFFFAOYSA-N-P35-P35-P86-601526
     RDKit          3D

 13 13  0  0  0  0  0  0  0  0999 V2000
   -8.2307    4.1109  -14.6719 C   0  0  0  0  0  0  0  0  0  0  0  0
   -8.1339    4.3996  -16.1244 C   0  0  0  0  0  0  0  0  0  0  0  0
   -8.8745    3.8970  -17.0931 N   0  0  0  0  0  0  0  0  0  0  0  0
   -8.2977    4.3467  -18.2571 C   0  0  0  0  0  0  0  0  0  0  0  0
   -7.1680    5.0961  -17.9967 C   0  0  0  0  0  0  0  0  0  0  0  0
   -6.2254    5.5647  -18.8722 N   0  0  0  0  0  0  0  0  0  0  0  0
   -4.8260    6.2006  -18.6083 C   0  0  0  0  0  0  0  0  0  0  0  0
   -4.3017    6.4901  -17.6016 O   0  0  0  0  0  0  0  0  0  0  0  0
   -4.1004    6.3599  -19.9338 C   0  0  0  0  0  0  0  0  0  0  0  0
   -4.7889    7.2505  -20.9531 C   0  0  0  0  0  0  0  0  0  0  0  0
   -4.7938    9.3121  -20.3378 I   0  0  0  0  0  0  0  0  0  0  0  0
   -7.1899    5.2561  -16.6378 N   0  0  0  0  0  0  0  0  0  0  0  0
   -6.4771    6.2110  -15.8413 C   0  0  0  0  0  0  0  0  0  0  0  0
  1  2  1  0
  2  3  2  0
  3  4  1  0
  4  5  2  0
  5  6  1  0
  6  7  1  0
  7  8  2  0
  7  9  1  0
  9 10  1  0
 10 11  1  0
  5 12  1  0
 12 13  1  0
 12  2  1  0
M  END
>  <energy_score>  (3317) 
-21.523213

>  <alias>  (3317) 
MITZJXJLERAKEZ-UHFFFAOYSA-N-P35-P35-P86-601526

>  <HIPPO Pose ID>  (3317) 
77293

>  <smiles>  (3317) 
Cc1ncc(NC(=O)CCI)n1C

>  <inchikey>  (3317) 
MITZJXJLERAKEZ-UHFFFAOYSA-N

>  <distance_score>  (3317) 
1.282402

>  <ref_mols>  (3317) 
Z0719a,Z1597a

>  <ref_pdb>  (3317) 
Z3093a

>  <HIPPO Compound ID>  (3317) 
149432

>  <name>  (3317) 
MITZJXJLERAKEZ-UHFFFAOYSA-N-P35-P35-P86-601526

>  <inspiration_score>  (3317) 
None

$$$$
QBQLZHQHTFFCLW-UHFFFAOYSA-N-P35-P35-P86-601526
     RDKit          3D

 13 13  0  0  0  0  0  0  0  0999 V2000
   -8.6164    4.4863  -14.7795 C   0  0  0  0  0  0  0  0  0  0  0  0
   -8.2327    4.5199  -16.2074 C   0  0  0  0  0  0  0  0  0  0  0  0
   -8.9904    4.2364  -17.2442 N   0  0  0  0  0  0  0  0  0  0  0  0
   -8.1915    4.4405  -18.3394 C   0  0  0  0  0  0  0  0  0  0  0  0
   -6.9227    4.8492  -17.9741 C   0  0  0  0  0  0  0  0  0  0  0  0
   -5.8546    5.1247  -18.7898 N   0  0  0  0  0  0  0  0  0  0  0  0
   -4.4283    5.6523  -18.4460 C   0  0  0  0  0  0  0  0  0  0  0  0
   -3.9753    6.0043  -17.4255 O   0  0  0  0  0  0  0  0  0  0  0  0
   -3.5811    5.5539  -19.6845 C   0  0  0  0  0  0  0  0  0  0  0  0
   -3.8396    6.6749  -20.6550 C   0  0  0  0  0  0  0  0  0  0  0  0
   -3.0431    6.4440  -21.7426 F   0  0  0  0  0  0  0  0  0  0  0  0
   -6.9595    4.8544  -16.6029 N   0  0  0  0  0  0  0  0  0  0  0  0
   -5.8773    5.0292  -15.6786 C   0  0  0  0  0  0  0  0  0  0  0  0
  1  2  1  0
  2  3  2  0
  3  4  1  0
  4  5  2  0
  5  6  1  0
  6  7  1  0
  7  8  2  0
  7  9  1  0
  9 10  1  0
 10 11  1  0
  5 12  1  0
 12 13  1  0
 12  2  1  0
M  END
>  <energy_score>  (3318) 
-16.05073

>  <alias>  (3318) 
QBQLZHQHTFFCLW-UHFFFAOYSA-N-P35-P35-P86-601526

>  <HIPPO Pose ID>  (3318) 
77299

>  <smiles>  (3318) 
Cc1ncc(NC(=O)CCF)n1C

>  <inchikey>  (3318) 
QBQLZHQHTFFCLW-UHFFFAOYSA-N

>  <distance_score>  (3318) 
1.079054

>  <ref_mols>  (3318) 
Z0719a,Z1597a

>  <ref_pdb>  (3318) 
Z3093a

>  <HIPPO Compound ID>  (3318) 
149435

>  <name>  (3318) 
QBQLZHQHTFFCLW-UHFFFAOYSA-N-P35-P35-P86-601526

>  <inspiration_score>  (3318) 
None

$$$$
BVRLVWKMHVMDCT-UHFFFAOYSA-N-P86-P35-P86-601526
     RDKit          3D

 13 13  0  0  0  0  0  0  0  0999 V2000
   -8.4350    4.4440  -14.5924 C   0  0  0  0  0  0  0  0  0  0  0  0
   -8.2937    4.4006  -16.0684 C   0  0  0  0  0  0  0  0  0  0  0  0
   -9.1945    3.9836  -16.9338 N   0  0  0  0  0  0  0  0  0  0  0  0
   -8.6406    4.1942  -18.1639 C   0  0  0  0  0  0  0  0  0  0  0  0
   -7.3672    4.7151  -18.0630 C   0  0  0  0  0  0  0  0  0  0  0  0
   -6.5298    4.9912  -19.1084 N   0  0  0  0  0  0  0  0  0  0  0  0
   -5.0516    5.4829  -19.1176 C   0  0  0  0  0  0  0  0  0  0  0  0
   -4.3527    5.7997  -18.2346 O   0  0  0  0  0  0  0  0  0  0  0  0
   -4.5604    5.3927  -20.5471 C   0  0  0  0  0  0  0  0  0  0  0  0
   -4.5337    6.7463  -21.2173 C   0  0  0  0  0  0  0  0  0  0  0  0
   -4.0298    6.6297  -22.5477 O   0  0  0  0  0  0  0  0  0  0  0  0
   -7.1544    4.8326  -16.7136 N   0  0  0  0  0  0  0  0  0  0  0  0
   -5.9956    5.3310  -16.0338 C   0  0  0  0  0  0  0  0  0  0  0  0
  1  2  1  0
  2  3  2  0
  3  4  1  0
  4  5  2  0
  5  6  1  0
  6  7  1  0
  7  8  2  0
  7  9  1  0
  9 10  1  0
 10 11  1  0
  5 12  1  0
 12 13  1  0
 12  2  1  0
M  END
>  <energy_score>  (3319) 
-14.276844

>  <alias>  (3319) 
BVRLVWKMHVMDCT-UHFFFAOYSA-N-P86-P35-P86-601526

>  <HIPPO Pose ID>  (3319) 
77306

>  <smiles>  (3319) 
Cc1ncc(NC(=O)CCO)n1C

>  <inchikey>  (3319) 
BVRLVWKMHVMDCT-UHFFFAOYSA-N

>  <distance_score>  (3319) 
1.235901

>  <ref_mols>  (3319) 
Z0719a,Z1597a

>  <ref_pdb>  (3319) 
Z3093a

>  <HIPPO Compound ID>  (3319) 
149438

>  <name>  (3319) 
BVRLVWKMHVMDCT-UHFFFAOYSA-N-P86-P35-P86-601526

>  <inspiration_score>  (3319) 
None

$$$$
JGAIWSMNDVUZNL-UHFFFAOYSA-N-P86-P35-P86-601526
     RDKit          3D

 13 13  0  0  0  0  0  0  0  0999 V2000
   -9.2232    3.8067  -16.8671 C   0  0  0  0  0  0  0  0  0  0  0  0
   -7.9936    4.4695  -17.1549 N   0  0  0  0  0  0  0  0  0  0  0  0
   -7.2240    5.1285  -16.2495 C   0  0  0  0  0  0  0  0  0  0  0  0
   -6.1905    5.6921  -16.8342 N   0  0  0  0  0  0  0  0  0  0  0  0
   -6.2711    5.3109  -18.1407 C   0  0  0  0  0  0  0  0  0  0  0  0
   -5.3416    5.6256  -19.0733 N   0  0  0  0  0  0  0  0  0  0  0  0
   -4.0737    6.5218  -18.9738 C   0  0  0  0  0  0  0  0  0  0  0  0
   -3.5966    7.0629  -18.0500 O   0  0  0  0  0  0  0  0  0  0  0  0
   -3.3593    6.5496  -20.3620 C   0  0  0  0  0  0  0  0  0  0  0  0
   -4.2916    6.8954  -21.5172 C   0  0  0  0  0  0  0  0  0  0  0  0
   -2.6286    5.2311  -20.5976 C   0  0  0  0  0  0  0  0  0  0  0  0
   -2.3624    7.5865  -20.3325 O   0  0  0  0  0  0  0  0  0  0  0  0
   -7.3956    4.5600  -18.3738 C   0  0  0  0  0  0  0  0  0  0  0  0
  1  2  1  0
  2  3  1  0
  3  4  2  0
  4  5  1  0
  5  6  1  0
  6  7  1  0
  7  8  2  0
  7  9  1  0
  9 10  1  0
  9 11  1  0
  9 12  1  0
  5 13  2  0
 13  2  1  0
M  END
>  <energy_score>  (3320) 
-22.772484

>  <alias>  (3320) 
JGAIWSMNDVUZNL-UHFFFAOYSA-N-P86-P35-P86-601526

>  <HIPPO Pose ID>  (3320) 
77310

>  <smiles>  (3320) 
Cn1cnc(NC(=O)C(C)(C)O)c1

>  <inchikey>  (3320) 
JGAIWSMNDVUZNL-UHFFFAOYSA-N

>  <distance_score>  (3320) 
1.711843

>  <ref_mols>  (3320) 
Z0719a,Z1597a

>  <ref_pdb>  (3320) 
Z3093a

>  <HIPPO Compound ID>  (3320) 
149440

>  <name>  (3320) 
JGAIWSMNDVUZNL-UHFFFAOYSA-N-P86-P35-P86-601526

>  <inspiration_score>  (3320) 
None

$$$$
NZYWFPLCKJMBGW-UHFFFAOYSA-N-P86-P35-P86-601526
     RDKit          3D

 13 13  0  0  0  0  0  0  0  0999 V2000
   -6.0478    4.7284  -14.5570 N   0  0  0  0  0  0  0  0  0  0  0  0
   -6.7167    4.6564  -15.5055 C   0  0  0  0  0  0  0  0  0  0  0  0
   -7.5579    4.5337  -16.6590 C   0  0  0  0  0  0  0  0  0  0  0  0
   -8.7980    3.9411  -16.5141 N   0  0  0  0  0  0  0  0  0  0  0  0
   -9.3624    4.0170  -17.6906 C   0  0  0  0  0  0  0  0  0  0  0  0
   -8.5165    4.5545  -18.6119 N   0  0  0  0  0  0  0  0  0  0  0  0
   -7.3689    4.9458  -17.9684 C   0  0  0  0  0  0  0  0  0  0  0  0
   -6.4169    5.6233  -18.6774 N   0  0  0  0  0  0  0  0  0  0  0  0
   -5.0885    6.2766  -18.2116 C   0  0  0  0  0  0  0  0  0  0  0  0
   -4.6427    6.4026  -17.1402 O   0  0  0  0  0  0  0  0  0  0  0  0
   -4.4177    6.8835  -19.4377 C   0  0  0  0  0  0  0  0  0  0  0  0
   -4.0748    5.8524  -20.4849 C   0  0  0  0  0  0  0  0  0  0  0  0
   -5.2279    5.4603  -21.0925 F   0  0  0  0  0  0  0  0  0  0  0  0
  1  2  3  0
  2  3  1  0
  3  4  1  0
  4  5  2  0
  5  6  1  0
  6  7  1  0
  7  8  1  0
  8  9  1  0
  9 10  2  0
  9 11  1  0
 11 12  1  0
 12 13  1  0
  7  3  2  0
M  END
>  <energy_score>  (3321) 
-20.04854

>  <alias>  (3321) 
NZYWFPLCKJMBGW-UHFFFAOYSA-N-P86-P35-P86-601526

>  <HIPPO Pose ID>  (3321) 
77312

>  <smiles>  (3321) 
N#Cc1nc[nH]c1NC(=O)CCF

>  <inchikey>  (3321) 
NZYWFPLCKJMBGW-UHFFFAOYSA-N

>  <distance_score>  (3321) 
1.428938

>  <ref_mols>  (3321) 
Z0719a,Z1597a

>  <ref_pdb>  (3321) 
Z3093a

>  <HIPPO Compound ID>  (3321) 
149441

>  <name>  (3321) 
NZYWFPLCKJMBGW-UHFFFAOYSA-N-P86-P35-P86-601526

>  <inspiration_score>  (3321) 
None

$$$$
WJBLPWQFFGQJDR-UHFFFAOYSA-N-P86-P35-P86-601526
     RDKit          3D

 13 13  0  0  0  0  0  0  0  0999 V2000
   -8.4625    4.4358  -14.6479 C   0  0  0  0  0  0  0  0  0  0  0  0
   -8.2789    4.4136  -16.1186 C   0  0  0  0  0  0  0  0  0  0  0  0
   -9.1486    4.0009  -17.0173 N   0  0  0  0  0  0  0  0  0  0  0  0
   -8.5628    4.2422  -18.2292 C   0  0  0  0  0  0  0  0  0  0  0  0
   -7.3010    4.7793  -18.0797 C   0  0  0  0  0  0  0  0  0  0  0  0
   -6.4280    5.1164  -19.0776 N   0  0  0  0  0  0  0  0  0  0  0  0
   -4.8997    5.4541  -19.0199 C   0  0  0  0  0  0  0  0  0  0  0  0
   -4.1820    5.5686  -18.1004 O   0  0  0  0  0  0  0  0  0  0  0  0
   -4.4265    5.5663  -20.4823 C   0  0  1  0  0  0  0  0  0  0  0  0
   -4.6318    6.9707  -21.0152 C   0  0  0  0  0  0  0  0  0  0  0  0
   -2.6588    5.1232  -20.6303 S   0  0  0  0  0  0  0  0  0  0  0  0
   -7.1308    4.8769  -16.7224 N   0  0  0  0  0  0  0  0  0  0  0  0
   -6.0191    5.4283  -16.0049 C   0  0  0  0  0  0  0  0  0  0  0  0
  1  2  1  0
  2  3  2  0
  3  4  1  0
  4  5  2  0
  5  6  1  0
  6  7  1  0
  7  8  2  0
  7  9  1  0
  9 10  1  1
  9 11  1  0
  5 12  1  0
 12 13  1  0
 12  2  1  0
M  END
>  <energy_score>  (3322) 
-22.212123

>  <alias>  (3322) 
WJBLPWQFFGQJDR-UHFFFAOYSA-N-P86-P35-P86-601526

>  <HIPPO Pose ID>  (3322) 
77316

>  <smiles>  (3322) 
Cc1ncc(NC(=O)C(C)S)n1C

>  <inchikey>  (3322) 
WJBLPWQFFGQJDR-UHFFFAOYSA-N

>  <distance_score>  (3322) 
1.107259

>  <ref_mols>  (3322) 
Z0719a,Z1597a

>  <ref_pdb>  (3322) 
Z3093a

>  <HIPPO Compound ID>  (3322) 
149443

>  <name>  (3322) 
WJBLPWQFFGQJDR-UHFFFAOYSA-N-P86-P35-P86-601526

>  <inspiration_score>  (3322) 
None

$$$$
XDTYTDIVGSPNTB-UHFFFAOYSA-N-P86-P35-P86-601526
     RDKit          3D

 13 13  0  0  0  0  0  0  0  0999 V2000
   -5.3970    3.5957  -13.1237 C   0  0  0  0  0  0  0  0  0  0  0  0
   -6.7606    4.0879  -13.6099 C   0  0  0  0  0  0  0  0  0  0  0  0
   -6.9418    4.3844  -15.0217 N   0  0  0  0  0  0  0  0  0  0  0  0
   -8.1286    4.2836  -15.7052 C   0  0  0  0  0  0  0  0  0  0  0  0
   -8.0248    4.7455  -16.9336 N   0  0  0  0  0  0  0  0  0  0  0  0
   -6.7340    5.1438  -17.0532 C   0  0  0  0  0  0  0  0  0  0  0  0
   -6.2692    5.6821  -18.2039 N   0  0  0  0  0  0  0  0  0  0  0  0
   -4.8248    6.0999  -18.6143 C   0  0  0  0  0  0  0  0  0  0  0  0
   -3.8325    6.1132  -17.9913 O   0  0  0  0  0  0  0  0  0  0  0  0
   -4.8951    6.6417  -20.0526 C   0  0  2  0  0  0  0  0  0  0  0  0
   -3.6583    6.2585  -20.8497 C   0  0  0  0  0  0  0  0  0  0  0  0
   -4.9944    8.4745  -19.9379 S   0  0  0  0  0  0  0  0  0  0  0  0
   -6.0511    4.9669  -15.8806 C   0  0  0  0  0  0  0  0  0  0  0  0
  1  2  1  0
  2  3  1  0
  3  4  1  0
  4  5  2  0
  5  6  1  0
  6  7  1  0
  7  8  1  0
  8  9  2  0
  8 10  1  0
 10 11  1  6
 10 12  1  0
  6 13  2  0
 13  3  1  0
M  END
>  <energy_score>  (3323) 
-7.537171

>  <alias>  (3323) 
XDTYTDIVGSPNTB-UHFFFAOYSA-N-P86-P35-P86-601526

>  <HIPPO Pose ID>  (3323) 
77318

>  <smiles>  (3323) 
CCn1cnc(NC(=O)C(C)S)c1

>  <inchikey>  (3323) 
XDTYTDIVGSPNTB-UHFFFAOYSA-N

>  <distance_score>  (3323) 
1.972273

>  <ref_mols>  (3323) 
Z0719a,Z1597a

>  <ref_pdb>  (3323) 
Z3093a

>  <HIPPO Compound ID>  (3323) 
149444

>  <name>  (3323) 
XDTYTDIVGSPNTB-UHFFFAOYSA-N-P86-P35-P86-601526

>  <inspiration_score>  (3323) 
None

$$$$
FKMLGIUZKPRTSU-UHFFFAOYSA-N-P86-P35-P86-601526
     RDKit          3D

 13 13  0  0  0  0  0  0  0  0999 V2000
   -3.1260    7.6691  -20.3914 C   0  0  0  0  0  0  0  0  0  0  0  0
   -4.2615    6.9989  -21.1446 C   0  0  2  0  0  0  0  0  0  0  0  0
   -5.3874    7.7469  -20.9768 F   0  0  0  0  0  0  0  0  0  0  0  0
   -4.5370    5.5635  -20.7457 C   0  0  0  0  0  0  0  0  0  0  0  0
   -4.9441    5.4367  -19.2898 C   0  0  0  0  0  0  0  0  0  0  0  0
   -4.1663    5.5392  -18.4223 O   0  0  0  0  0  0  0  0  0  0  0  0
   -6.4635    5.1235  -19.2464 N   0  0  0  0  0  0  0  0  0  0  0  0
   -7.2608    4.8018  -18.2100 C   0  0  0  0  0  0  0  0  0  0  0  0
   -6.9291    4.7816  -16.8875 C   0  0  0  0  0  0  0  0  0  0  0  0
   -8.0823    4.4350  -16.2525 N   0  0  0  0  0  0  0  0  0  0  0  0
   -8.2577    4.4237  -14.8333 C   0  0  0  0  0  0  0  0  0  0  0  0
   -9.0386    4.2293  -17.1941 C   0  0  0  0  0  0  0  0  0  0  0  0
   -8.5634    4.4630  -18.3968 N   0  0  0  0  0  0  0  0  0  0  0  0
  2  1  1  1
  2  3  1  0
  2  4  1  0
  4  5  1  0
  5  6  2  0
  5  7  1  0
  7  8  1  0
  8  9  2  0
  9 10  1  0
 10 11  1  0
 10 12  1  0
 12 13  2  0
 13  8  1  0
M  END
>  <energy_score>  (3324) 
-24.232624

>  <alias>  (3324) 
FKMLGIUZKPRTSU-UHFFFAOYSA-N-P86-P35-P86-601526

>  <HIPPO Pose ID>  (3324) 
77320

>  <smiles>  (3324) 
CC(F)CC(=O)Nc1cn(C)cn1

>  <inchikey>  (3324) 
FKMLGIUZKPRTSU-UHFFFAOYSA-N

>  <distance_score>  (3324) 
1.270356

>  <ref_mols>  (3324) 
Z0719a,Z1597a

>  <ref_pdb>  (3324) 
Z3093a

>  <HIPPO Compound ID>  (3324) 
149445

>  <name>  (3324) 
FKMLGIUZKPRTSU-UHFFFAOYSA-N-P86-P35-P86-601526

>  <inspiration_score>  (3324) 
None

$$$$
YLTLWZMGUPNLRA-UHFFFAOYSA-N-P86-P35-P86-601526
     RDKit          3D

 13 13  0  0  0  0  0  0  0  0999 V2000
   -4.1862    6.8718  -20.4949 C   0  0  0  0  0  0  0  0  0  0  0  0
   -4.3532    5.4249  -20.0773 C   0  0  2  0  0  0  0  0  0  0  0  0
   -5.1567    4.7777  -21.0656 O   0  0  0  0  0  0  0  0  0  0  0  0
   -4.9827    5.3241  -18.6617 C   0  0  0  0  0  0  0  0  0  0  0  0
   -4.3971    5.5016  -17.6676 O   0  0  0  0  0  0  0  0  0  0  0  0
   -6.4722    4.9619  -18.9000 N   0  0  0  0  0  0  0  0  0  0  0  0
   -7.4659    4.6676  -18.0113 C   0  0  0  0  0  0  0  0  0  0  0  0
   -8.7199    4.4147  -18.5070 N   0  0  0  0  0  0  0  0  0  0  0  0
   -9.5529    4.1566  -17.4636 C   0  0  0  0  0  0  0  0  0  0  0  0
   -8.9106    4.1944  -16.3252 N   0  0  0  0  0  0  0  0  0  0  0  0
   -7.6054    4.5179  -16.6423 C   0  0  0  0  0  0  0  0  0  0  0  0
   -6.6616    4.6577  -15.5742 C   0  0  0  0  0  0  0  0  0  0  0  0
   -5.9256    4.7765  -14.6813 N   0  0  0  0  0  0  0  0  0  0  0  0
  2  1  1  6
  2  3  1  0
  2  4  1  0
  4  5  2  0
  4  6  1  0
  6  7  1  0
  7  8  1  0
  8  9  1  0
  9 10  2  0
 10 11  1  0
 11 12  1  0
 12 13  3  0
 11  7  2  0
M  END
>  <energy_score>  (3325) 
-17.891939

>  <alias>  (3325) 
YLTLWZMGUPNLRA-UHFFFAOYSA-N-P86-P35-P86-601526

>  <HIPPO Pose ID>  (3325) 
77324

>  <smiles>  (3325) 
CC(O)C(=O)Nc1[nH]cnc1C#N

>  <inchikey>  (3325) 
YLTLWZMGUPNLRA-UHFFFAOYSA-N

>  <distance_score>  (3325) 
1.28286

>  <ref_mols>  (3325) 
Z0719a,Z1597a

>  <ref_pdb>  (3325) 
Z3093a

>  <HIPPO Compound ID>  (3325) 
149447

>  <name>  (3325) 
YLTLWZMGUPNLRA-UHFFFAOYSA-N-P86-P35-P86-601526

>  <inspiration_score>  (3325) 
None

$$$$
WOGBVDVDDVYJKD-UHFFFAOYSA-N-P86-P35-P86-601526
     RDKit          3D

 13 13  0  0  0  0  0  0  0  0999 V2000
   -8.4333    4.4282  -14.7091 C   0  0  0  0  0  0  0  0  0  0  0  0
   -8.2523    4.4174  -16.1805 C   0  0  0  0  0  0  0  0  0  0  0  0
   -9.1375    4.0418  -17.0804 N   0  0  0  0  0  0  0  0  0  0  0  0
   -8.5519    4.2853  -18.2921 C   0  0  0  0  0  0  0  0  0  0  0  0
   -7.2753    4.7859  -18.1421 C   0  0  0  0  0  0  0  0  0  0  0  0
   -6.4007    5.1263  -19.1380 N   0  0  0  0  0  0  0  0  0  0  0  0
   -4.8557    5.3457  -19.0986 C   0  0  0  0  0  0  0  0  0  0  0  0
   -4.1109    5.3436  -18.1929 O   0  0  0  0  0  0  0  0  0  0  0  0
   -4.3638    5.5356  -20.5486 C   0  0  1  0  0  0  0  0  0  0  0  0
   -4.6172    6.9484  -21.0307 C   0  0  0  0  0  0  0  0  0  0  0  0
   -2.9624    5.2878  -20.6535 O   0  0  0  0  0  0  0  0  0  0  0  0
   -7.0970    4.8631  -16.7846 N   0  0  0  0  0  0  0  0  0  0  0  0
   -5.9857    5.4198  -16.0706 C   0  0  0  0  0  0  0  0  0  0  0  0
  1  2  1  0
  2  3  2  0
  3  4  1  0
  4  5  2  0
  5  6  1  0
  6  7  1  0
  7  8  2  0
  7  9  1  0
  9 10  1  1
  9 11  1  0
  5 12  1  0
 12 13  1  0
 12  2  1  0
M  END
>  <energy_score>  (3326) 
-26.974442

>  <alias>  (3326) 
WOGBVDVDDVYJKD-UHFFFAOYSA-N-P86-P35-P86-601526

>  <HIPPO Pose ID>  (3326) 
77328

>  <smiles>  (3326) 
Cc1ncc(NC(=O)C(C)O)n1C

>  <inchikey>  (3326) 
WOGBVDVDDVYJKD-UHFFFAOYSA-N

>  <distance_score>  (3326) 
1.39564

>  <ref_mols>  (3326) 
Z0719a,Z1597a

>  <ref_pdb>  (3326) 
Z3093a

>  <HIPPO Compound ID>  (3326) 
149449

>  <name>  (3326) 
WOGBVDVDDVYJKD-UHFFFAOYSA-N-P86-P35-P86-601526

>  <inspiration_score>  (3326) 
None

$$$$
ALRPLARYGBOOPI-UHFFFAOYSA-N-P35-P35-P86-601526
     RDKit          3D

 13 13  0  0  0  0  0  0  0  0999 V2000
   -4.7799    7.8663  -20.8084 N   0  0  0  0  0  0  0  0  0  0  0  0
   -4.4811    6.9267  -20.1954 C   0  0  0  0  0  0  0  0  0  0  0  0
   -4.0938    5.7492  -19.4218 C   0  0  0  0  0  0  0  0  0  0  0  0
   -4.9433    5.5660  -18.1809 C   0  0  0  0  0  0  0  0  0  0  0  0
   -4.4723    5.6022  -17.1116 O   0  0  0  0  0  0  0  0  0  0  0  0
   -6.4005    5.2567  -18.6307 N   0  0  0  0  0  0  0  0  0  0  0  0
   -7.4861    4.8596  -17.9050 C   0  0  0  0  0  0  0  0  0  0  0  0
   -8.7162    4.8004  -18.5098 N   0  0  0  0  0  0  0  0  0  0  0  0
   -9.6243    4.3787  -17.5854 C   0  0  0  0  0  0  0  0  0  0  0  0
   -9.0527    4.1271  -16.4351 N   0  0  0  0  0  0  0  0  0  0  0  0
   -7.7223    4.4542  -16.6026 C   0  0  0  0  0  0  0  0  0  0  0  0
   -6.8169    4.2931  -15.5025 C   0  0  0  0  0  0  0  0  0  0  0  0
   -6.0800    4.1413  -14.6154 N   0  0  0  0  0  0  0  0  0  0  0  0
  1  2  3  0
  2  3  1  0
  3  4  1  0
  4  5  2  0
  4  6  1  0
  6  7  1  0
  7  8  1  0
  8  9  1  0
  9 10  2  0
 10 11  1  0
 11 12  1  0
 12 13  3  0
 11  7  2  0
M  END
>  <energy_score>  (3327) 
-11.242435

>  <alias>  (3327) 
ALRPLARYGBOOPI-UHFFFAOYSA-N-P35-P35-P86-601526

>  <HIPPO Pose ID>  (3327) 
77331

>  <smiles>  (3327) 
N#CCC(=O)Nc1[nH]cnc1C#N

>  <inchikey>  (3327) 
ALRPLARYGBOOPI-UHFFFAOYSA-N

>  <distance_score>  (3327) 
1.293619

>  <ref_mols>  (3327) 
Z0719a,Z1597a

>  <ref_pdb>  (3327) 
Z3093a

>  <HIPPO Compound ID>  (3327) 
149451

>  <name>  (3327) 
ALRPLARYGBOOPI-UHFFFAOYSA-N-P35-P35-P86-601526

>  <inspiration_score>  (3327) 
None

$$$$
GSGQNDOZNFJRAE-UHFFFAOYSA-N-P86-P35-P86-601526
     RDKit          3D

 13 13  0  0  0  0  0  0  0  0999 V2000
   -8.3796    4.4384  -14.6288 C   0  0  0  0  0  0  0  0  0  0  0  0
   -8.2724    4.3839  -16.1076 C   0  0  0  0  0  0  0  0  0  0  0  0
   -9.2024    3.9780  -16.9472 N   0  0  0  0  0  0  0  0  0  0  0  0
   -8.6836    4.1833  -18.1928 C   0  0  0  0  0  0  0  0  0  0  0  0
   -7.3997    4.6808  -18.1286 C   0  0  0  0  0  0  0  0  0  0  0  0
   -6.5957    4.9766  -19.1935 N   0  0  0  0  0  0  0  0  0  0  0  0
   -5.0757    5.3266  -19.2490 C   0  0  0  0  0  0  0  0  0  0  0  0
   -4.2682    5.3385  -18.4004 O   0  0  0  0  0  0  0  0  0  0  0  0
   -4.7160    5.5907  -20.6994 C   0  0  0  0  0  0  0  0  0  0  0  0
   -4.7615    7.0233  -20.9659 C   0  0  0  0  0  0  0  0  0  0  0  0
   -4.8291    8.1609  -21.1927 N   0  0  0  0  0  0  0  0  0  0  0  0
   -7.1491    4.8074  -16.7865 N   0  0  0  0  0  0  0  0  0  0  0  0
   -6.0006    5.3843  -16.1521 C   0  0  0  0  0  0  0  0  0  0  0  0
  1  2  1  0
  2  3  2  0
  3  4  1  0
  4  5  2  0
  5  6  1  0
  6  7  1  0
  7  8  2  0
  7  9  1  0
  9 10  1  0
 10 11  3  0
  5 12  1  0
 12 13  1  0
 12  2  1  0
M  END
>  <energy_score>  (3328) 
-15.098701

>  <alias>  (3328) 
GSGQNDOZNFJRAE-UHFFFAOYSA-N-P86-P35-P86-601526

>  <HIPPO Pose ID>  (3328) 
77336

>  <smiles>  (3328) 
Cc1ncc(NC(=O)CC#N)n1C

>  <inchikey>  (3328) 
GSGQNDOZNFJRAE-UHFFFAOYSA-N

>  <distance_score>  (3328) 
1.285746

>  <ref_mols>  (3328) 
Z0719a,Z1597a

>  <ref_pdb>  (3328) 
Z3093a

>  <HIPPO Compound ID>  (3328) 
149453

>  <name>  (3328) 
GSGQNDOZNFJRAE-UHFFFAOYSA-N-P86-P35-P86-601526

>  <inspiration_score>  (3328) 
None

$$$$
IRMMNXSWCRPFTN-UHFFFAOYSA-N-P35-P35-P86-601526
     RDKit          3D

 13 13  0  0  0  0  0  0  0  0999 V2000
   -5.1376    3.2601  -13.5467 C   0  0  0  0  0  0  0  0  0  0  0  0
   -6.5985    3.3347  -13.9803 C   0  0  0  0  0  0  0  0  0  0  0  0
   -6.8876    4.0529  -15.2113 N   0  0  0  0  0  0  0  0  0  0  0  0
   -8.1501    4.3783  -15.6417 C   0  0  0  0  0  0  0  0  0  0  0  0
   -8.1247    5.0012  -16.7997 N   0  0  0  0  0  0  0  0  0  0  0  0
   -6.8125    5.0575  -17.1386 C   0  0  0  0  0  0  0  0  0  0  0  0
   -6.4188    5.6257  -18.2995 N   0  0  0  0  0  0  0  0  0  0  0  0
   -4.9904    5.8881  -18.8639 C   0  0  0  0  0  0  0  0  0  0  0  0
   -3.9385    5.7223  -18.3748 O   0  0  0  0  0  0  0  0  0  0  0  0
   -5.1406    6.5163  -20.2292 C   0  0  0  0  0  0  0  0  0  0  0  0
   -5.1844    7.9642  -20.1320 C   0  0  0  0  0  0  0  0  0  0  0  0
   -5.2855    9.1198  -20.0654 N   0  0  0  0  0  0  0  0  0  0  0  0
   -6.0229    4.4986  -16.1703 C   0  0  0  0  0  0  0  0  0  0  0  0
  1  2  1  0
  2  3  1  0
  3  4  1  0
  4  5  2  0
  5  6  1  0
  6  7  1  0
  7  8  1  0
  8  9  2  0
  8 10  1  0
 10 11  1  0
 11 12  3  0
  6 13  2  0
 13  3  1  0
M  END
>  <energy_score>  (3329) 
-23.295881

>  <alias>  (3329) 
IRMMNXSWCRPFTN-UHFFFAOYSA-N-P35-P35-P86-601526

>  <HIPPO Pose ID>  (3329) 
77337

>  <smiles>  (3329) 
CCn1cnc(NC(=O)CC#N)c1

>  <inchikey>  (3329) 
IRMMNXSWCRPFTN-UHFFFAOYSA-N

>  <distance_score>  (3329) 
1.606901

>  <ref_mols>  (3329) 
Z0719a,Z1597a

>  <ref_pdb>  (3329) 
Z3093a

>  <HIPPO Compound ID>  (3329) 
149454

>  <name>  (3329) 
IRMMNXSWCRPFTN-UHFFFAOYSA-N-P35-P35-P86-601526

>  <inspiration_score>  (3329) 
None

$$$$
ABPKVZMDSNFTEY-UHFFFAOYSA-N-P86-P35-P86-601526
     RDKit          3D

 13 13  0  0  0  0  0  0  0  0999 V2000
   -3.3247    6.0173  -20.4555 C   0  0  0  0  0  0  0  0  0  0  0  0
   -4.7666    6.3290  -20.1021 C   0  0  2  0  0  0  0  0  0  0  0  0
   -4.9583    8.1444  -19.9072 S   0  0  0  0  0  0  0  0  0  0  0  0
   -5.1995    5.6720  -18.7722 C   0  0  0  0  0  0  0  0  0  0  0  0
   -4.4801    5.5195  -17.8636 O   0  0  0  0  0  0  0  0  0  0  0  0
   -6.7257    5.3958  -18.9076 N   0  0  0  0  0  0  0  0  0  0  0  0
   -7.6028    4.8214  -18.0340 C   0  0  0  0  0  0  0  0  0  0  0  0
   -8.8558    4.5100  -18.4978 N   0  0  0  0  0  0  0  0  0  0  0  0
   -9.6030    4.0678  -17.4532 C   0  0  0  0  0  0  0  0  0  0  0  0
   -8.8892    3.9862  -16.3616 N   0  0  0  0  0  0  0  0  0  0  0  0
   -7.6384    4.4700  -16.6954 C   0  0  0  0  0  0  0  0  0  0  0  0
   -6.6729    4.6383  -15.6502 C   0  0  0  0  0  0  0  0  0  0  0  0
   -5.9212    4.7902  -14.7756 N   0  0  0  0  0  0  0  0  0  0  0  0
  2  1  1  1
  2  3  1  0
  2  4  1  0
  4  5  2  0
  4  6  1  0
  6  7  1  0
  7  8  1  0
  8  9  1  0
  9 10  2  0
 10 11  1  0
 11 12  1  0
 12 13  3  0
 11  7  2  0
M  END
>  <energy_score>  (3330) 
-5.898171

>  <alias>  (3330) 
ABPKVZMDSNFTEY-UHFFFAOYSA-N-P86-P35-P86-601526

>  <HIPPO Pose ID>  (3330) 
77344

>  <smiles>  (3330) 
CC(S)C(=O)Nc1[nH]cnc1C#N

>  <inchikey>  (3330) 
ABPKVZMDSNFTEY-UHFFFAOYSA-N

>  <distance_score>  (3330) 
1.382344

>  <ref_mols>  (3330) 
Z0719a,Z1597a

>  <ref_pdb>  (3330) 
Z3093a

>  <HIPPO Compound ID>  (3330) 
149457

>  <name>  (3330) 
ABPKVZMDSNFTEY-UHFFFAOYSA-N-P86-P35-P86-601526

>  <inspiration_score>  (3330) 
None

$$$$
DGIPLKHHNAIKAV-UHFFFAOYSA-N-P86-P35-P86-601526
     RDKit          3D

 13 13  0  0  0  0  0  0  0  0999 V2000
   -5.0113    7.6602  -22.0715 C   0  0  0  0  0  0  0  0  0  0  0  0
   -4.2434    7.0031  -21.1901 C   0  0  0  0  0  0  0  0  0  0  0  0
   -2.7025    7.8124  -20.4971 Br  0  0  0  0  0  0  0  0  0  0  0  0
   -4.4889    5.5797  -20.7836 C   0  0  0  0  0  0  0  0  0  0  0  0
   -4.9138    5.4432  -19.3169 C   0  0  0  0  0  0  0  0  0  0  0  0
   -4.1572    5.5927  -18.4364 O   0  0  0  0  0  0  0  0  0  0  0  0
   -6.4036    4.9959  -19.3005 N   0  0  0  0  0  0  0  0  0  0  0  0
   -7.2324    4.7512  -18.2662 C   0  0  0  0  0  0  0  0  0  0  0  0
   -6.9270    4.7968  -16.9378 C   0  0  0  0  0  0  0  0  0  0  0  0
   -8.0848    4.4547  -16.3092 N   0  0  0  0  0  0  0  0  0  0  0  0
   -8.2698    4.4496  -14.8909 C   0  0  0  0  0  0  0  0  0  0  0  0
   -9.0273    4.2190  -17.2581 C   0  0  0  0  0  0  0  0  0  0  0  0
   -8.5328    4.4084  -18.4612 N   0  0  0  0  0  0  0  0  0  0  0  0
  1  2  2  0
  2  3  1  0
  2  4  1  0
  4  5  1  0
  5  6  2  0
  5  7  1  0
  7  8  1  0
  8  9  2  0
  9 10  1  0
 10 11  1  0
 10 12  1  0
 12 13  2  0
 13  8  1  0
M  END
>  <energy_score>  (3331) 
-22.336017

>  <alias>  (3331) 
DGIPLKHHNAIKAV-UHFFFAOYSA-N-P86-P35-P86-601526

>  <HIPPO Pose ID>  (3331) 
77348

>  <smiles>  (3331) 
C=C(Br)CC(=O)Nc1cn(C)cn1

>  <inchikey>  (3331) 
DGIPLKHHNAIKAV-UHFFFAOYSA-N

>  <distance_score>  (3331) 
1.182102

>  <ref_mols>  (3331) 
Z0719a,Z1597a

>  <ref_pdb>  (3331) 
Z3093a

>  <HIPPO Compound ID>  (3331) 
149459

>  <name>  (3331) 
DGIPLKHHNAIKAV-UHFFFAOYSA-N-P86-P35-P86-601526

>  <inspiration_score>  (3331) 
None

$$$$
KZIKHZWFNLIAMX-UHFFFAOYSA-N-P86-P35-P86-601526
     RDKit          3D

 13 13  0  0  0  0  0  0  0  0999 V2000
   -2.7247    5.0852  -19.5002 C   0  0  0  0  0  0  0  0  0  0  0  0
   -3.9711    5.5863  -19.5449 C   0  0  0  0  0  0  0  0  0  0  0  0
   -4.4881    6.3460  -20.7250 C   0  0  0  0  0  0  0  0  0  0  0  0
   -4.7992    5.4327  -18.2924 C   0  0  0  0  0  0  0  0  0  0  0  0
   -4.3246    5.5643  -17.2358 O   0  0  0  0  0  0  0  0  0  0  0  0
   -6.2449    5.0723  -18.7032 N   0  0  0  0  0  0  0  0  0  0  0  0
   -7.3243    4.7250  -17.9396 C   0  0  0  0  0  0  0  0  0  0  0  0
   -8.5290    4.4869  -18.5529 N   0  0  0  0  0  0  0  0  0  0  0  0
   -9.4408    4.1550  -17.5971 C   0  0  0  0  0  0  0  0  0  0  0  0
   -8.8983    4.1443  -16.4075 N   0  0  0  0  0  0  0  0  0  0  0  0
   -7.5791    4.5088  -16.5952 C   0  0  0  0  0  0  0  0  0  0  0  0
   -6.7260    4.6142  -15.4482 C   0  0  0  0  0  0  0  0  0  0  0  0
   -6.0612    4.7026  -14.4979 N   0  0  0  0  0  0  0  0  0  0  0  0
  1  2  2  0
  2  3  1  0
  2  4  1  0
  4  5  2  0
  4  6  1  0
  6  7  1  0
  7  8  1  0
  8  9  1  0
  9 10  2  0
 10 11  1  0
 11 12  1  0
 12 13  3  0
 11  7  2  0
M  END
>  <energy_score>  (3332) 
-11.530902

>  <alias>  (3332) 
KZIKHZWFNLIAMX-UHFFFAOYSA-N-P86-P35-P86-601526

>  <HIPPO Pose ID>  (3332) 
77352

>  <smiles>  (3332) 
C=C(C)C(=O)Nc1[nH]cnc1C#N

>  <inchikey>  (3332) 
KZIKHZWFNLIAMX-UHFFFAOYSA-N

>  <distance_score>  (3332) 
1.255808

>  <ref_mols>  (3332) 
Z0719a,Z1597a

>  <ref_pdb>  (3332) 
Z3093a

>  <HIPPO Compound ID>  (3332) 
149461

>  <name>  (3332) 
KZIKHZWFNLIAMX-UHFFFAOYSA-N-P86-P35-P86-601526

>  <inspiration_score>  (3332) 
None

$$$$
LYPZTDJDGBOAJT-UHFFFAOYSA-N-P35-P35-P86-601526
     RDKit          3D

 13 13  0  0  0  0  0  0  0  0999 V2000
   -5.4277    7.6711  -20.9917 C   0  0  0  0  0  0  0  0  0  0  0  0
   -3.9973    7.3698  -20.5827 C   0  0  0  0  0  0  0  0  0  0  0  0
   -3.7864    6.0870  -19.7930 C   0  0  0  0  0  0  0  0  0  0  0  0
   -4.5706    6.0003  -18.4971 C   0  0  0  0  0  0  0  0  0  0  0  0
   -4.0996    6.3184  -17.4730 O   0  0  0  0  0  0  0  0  0  0  0  0
   -5.9641    5.3746  -18.8184 N   0  0  0  0  0  0  0  0  0  0  0  0
   -6.9646    4.9503  -17.9803 C   0  0  0  0  0  0  0  0  0  0  0  0
   -8.2084    4.4537  -18.3237 C   0  0  0  0  0  0  0  0  0  0  0  0
   -8.9600    4.1618  -17.2139 N   0  0  0  0  0  0  0  0  0  0  0  0
   -8.2010    4.4896  -16.1906 C   0  0  0  0  0  0  0  0  0  0  0  0
   -8.5573    4.4403  -14.7551 C   0  0  0  0  0  0  0  0  0  0  0  0
   -6.9562    4.8955  -16.6107 N   0  0  0  0  0  0  0  0  0  0  0  0
   -5.8567    5.0944  -15.7125 C   0  0  0  0  0  0  0  0  0  0  0  0
  1  2  1  0
  2  3  1  0
  3  4  1  0
  4  5  2  0
  4  6  1  0
  6  7  1  0
  7  8  2  0
  8  9  1  0
  9 10  2  0
 10 11  1  0
 10 12  1  0
 12 13  1  0
 12  7  1  0
M  END
>  <energy_score>  (3333) 
-23.621153

>  <alias>  (3333) 
LYPZTDJDGBOAJT-UHFFFAOYSA-N-P35-P35-P86-601526

>  <HIPPO Pose ID>  (3333) 
77369

>  <smiles>  (3333) 
CCCC(=O)Nc1cnc(C)n1C

>  <inchikey>  (3333) 
LYPZTDJDGBOAJT-UHFFFAOYSA-N

>  <distance_score>  (3333) 
1.565455

>  <ref_mols>  (3333) 
Z0719a,Z1597a

>  <ref_pdb>  (3333) 
Z3093a

>  <HIPPO Compound ID>  (3333) 
149470

>  <name>  (3333) 
LYPZTDJDGBOAJT-UHFFFAOYSA-N-P35-P35-P86-601526

>  <inspiration_score>  (3333) 
None

$$$$
LWYZSRYNXCQKLT-UHFFFAOYSA-N-P86-P35-P86-601526
     RDKit          3D

 13 13  0  0  0  0  0  0  0  0999 V2000
   -5.9479    4.7462  -14.6769 N   0  0  0  0  0  0  0  0  0  0  0  0
   -6.6779    4.6390  -15.5759 C   0  0  0  0  0  0  0  0  0  0  0  0
   -7.6171    4.5058  -16.6494 C   0  0  0  0  0  0  0  0  0  0  0  0
   -8.9134    4.1453  -16.3407 N   0  0  0  0  0  0  0  0  0  0  0  0
   -9.5629    4.1493  -17.4751 C   0  0  0  0  0  0  0  0  0  0  0  0
   -8.7385    4.4569  -18.5125 N   0  0  0  0  0  0  0  0  0  0  0  0
   -7.4826    4.6996  -18.0145 C   0  0  0  0  0  0  0  0  0  0  0  0
   -6.4860    5.0308  -18.8883 N   0  0  0  0  0  0  0  0  0  0  0  0
   -4.9888    5.3589  -18.6331 C   0  0  0  0  0  0  0  0  0  0  0  0
   -4.3993    5.4712  -17.6320 O   0  0  0  0  0  0  0  0  0  0  0  0
   -4.3215    5.4796  -19.9988 C   0  0  0  0  0  0  0  0  0  0  0  0
   -4.5370    6.8592  -20.5890 C   0  0  0  0  0  0  0  0  0  0  0  0
   -3.8348    6.9820  -22.2607 S   0  0  0  0  0  0  0  0  0  0  0  0
  1  2  3  0
  2  3  1  0
  3  4  1  0
  4  5  2  0
  5  6  1  0
  6  7  1  0
  7  8  1  0
  8  9  1  0
  9 10  2  0
  9 11  1  0
 11 12  1  0
 12 13  1  0
  7  3  2  0
M  END
>  <energy_score>  (3334) 
-18.561673

>  <alias>  (3334) 
LWYZSRYNXCQKLT-UHFFFAOYSA-N-P86-P35-P86-601526

>  <HIPPO Pose ID>  (3334) 
77374

>  <smiles>  (3334) 
N#Cc1nc[nH]c1NC(=O)CCS

>  <inchikey>  (3334) 
LWYZSRYNXCQKLT-UHFFFAOYSA-N

>  <distance_score>  (3334) 
1.282086

>  <ref_mols>  (3334) 
Z0719a,Z1597a

>  <ref_pdb>  (3334) 
Z3093a

>  <HIPPO Compound ID>  (3334) 
149472

>  <name>  (3334) 
LWYZSRYNXCQKLT-UHFFFAOYSA-N-P86-P35-P86-601526

>  <inspiration_score>  (3334) 
None

$$$$
FALWSKAZHYPUOH-UHFFFAOYSA-N-P35-P35-P86-601526
     RDKit          3D

 13 13  0  0  0  0  0  0  0  0999 V2000
   -5.2586    3.0693  -13.3306 C   0  0  0  0  0  0  0  0  0  0  0  0
   -6.6486    3.2656  -13.9317 C   0  0  0  0  0  0  0  0  0  0  0  0
   -6.7191    4.0886  -15.1273 N   0  0  0  0  0  0  0  0  0  0  0  0
   -7.8235    4.7814  -15.5548 C   0  0  0  0  0  0  0  0  0  0  0  0
   -7.5509    5.5190  -16.6137 N   0  0  0  0  0  0  0  0  0  0  0  0
   -6.2722    5.1941  -16.9468 C   0  0  0  0  0  0  0  0  0  0  0  0
   -5.6535    5.7117  -18.0338 N   0  0  0  0  0  0  0  0  0  0  0  0
   -4.2153    5.4898  -18.5770 C   0  0  0  0  0  0  0  0  0  0  0  0
   -3.3686    4.7656  -18.2121 O   0  0  0  0  0  0  0  0  0  0  0  0
   -3.9029    6.4572  -19.7257 C   0  0  0  0  0  0  0  0  0  0  0  0
   -5.0185    7.1135  -20.5130 C   0  0  0  0  0  0  0  0  0  0  0  0
   -5.5949    8.6260  -19.6613 S   0  0  0  0  0  0  0  0  0  0  0  0
   -5.7346    4.3236  -16.0412 C   0  0  0  0  0  0  0  0  0  0  0  0
  1  2  1  0
  2  3  1  0
  3  4  1  0
  4  5  2  0
  5  6  1  0
  6  7  1  0
  7  8  1  0
  8  9  2  0
  8 10  1  0
 10 11  1  0
 11 12  1  0
  6 13  2  0
 13  3  1  0
M  END
>  <energy_score>  (3335) 
-9.596669

>  <alias>  (3335) 
FALWSKAZHYPUOH-UHFFFAOYSA-N-P35-P35-P86-601526

>  <HIPPO Pose ID>  (3335) 
77379

>  <smiles>  (3335) 
CCn1cnc(NC(=O)CCS)c1

>  <inchikey>  (3335) 
FALWSKAZHYPUOH-UHFFFAOYSA-N

>  <distance_score>  (3335) 
1.913402

>  <ref_mols>  (3335) 
Z0719a,Z1597a

>  <ref_pdb>  (3335) 
Z3093a

>  <HIPPO Compound ID>  (3335) 
149475

>  <name>  (3335) 
FALWSKAZHYPUOH-UHFFFAOYSA-N-P35-P35-P86-601526

>  <inspiration_score>  (3335) 
None

$$$$
HNRHTCWEDXFBSA-UHFFFAOYSA-N-P86-P35-P86-601526
     RDKit          3D

 13 13  0  0  0  0  0  0  0  0999 V2000
   -7.7585    4.4663  -14.3430 C   0  0  0  0  0  0  0  0  0  0  0  0
   -7.7669    4.5548  -15.7764 N   0  0  0  0  0  0  0  0  0  0  0  0
   -8.7796    4.1813  -16.6070 C   0  0  0  0  0  0  0  0  0  0  0  0
   -8.4394    4.3351  -17.8686 N   0  0  0  0  0  0  0  0  0  0  0  0
   -7.1739    4.8236  -17.8358 C   0  0  0  0  0  0  0  0  0  0  0  0
   -6.4520    5.0215  -18.9558 N   0  0  0  0  0  0  0  0  0  0  0  0
   -5.0047    5.5667  -19.1429 C   0  0  0  0  0  0  0  0  0  0  0  0
   -4.2489    5.9990  -18.3586 O   0  0  0  0  0  0  0  0  0  0  0  0
   -4.6475    5.3518  -20.6215 C   0  0  0  0  0  0  0  0  0  0  0  0
   -4.5765    6.6740  -21.3512 C   0  0  0  0  0  0  0  0  0  0  0  0
   -3.4379    4.7301  -20.7412 F   0  0  0  0  0  0  0  0  0  0  0  0
   -5.5510    4.5428  -21.2488 F   0  0  0  0  0  0  0  0  0  0  0  0
   -6.7458    5.0120  -16.5521 C   0  0  0  0  0  0  0  0  0  0  0  0
  1  2  1  0
  2  3  1  0
  3  4  2  0
  4  5  1  0
  5  6  1  0
  6  7  1  0
  7  8  2  0
  7  9  1  0
  9 10  1  0
  9 11  1  0
  9 12  1  0
  5 13  2  0
 13  2  1  0
M  END
>  <energy_score>  (3336) 
-4.690464

>  <alias>  (3336) 
HNRHTCWEDXFBSA-UHFFFAOYSA-N-P86-P35-P86-601526

>  <HIPPO Pose ID>  (3336) 
77382

>  <smiles>  (3336) 
Cn1cnc(NC(=O)C(C)(F)F)c1

>  <inchikey>  (3336) 
HNRHTCWEDXFBSA-UHFFFAOYSA-N

>  <distance_score>  (3336) 
1.522516

>  <ref_mols>  (3336) 
Z0719a,Z1597a

>  <ref_pdb>  (3336) 
Z3093a

>  <HIPPO Compound ID>  (3336) 
149476

>  <name>  (3336) 
HNRHTCWEDXFBSA-UHFFFAOYSA-N-P86-P35-P86-601526

>  <inspiration_score>  (3336) 
None

$$$$
ACRJRWJNVLSDEO-UHFFFAOYSA-N-P86-P35-P86-601526
     RDKit          3D

 13 13  0  0  0  0  0  0  0  0999 V2000
   -8.6486    4.0573  -15.4319 C   0  0  0  0  0  0  0  0  0  0  0  0
   -7.6776    4.6107  -16.3257 N   0  0  0  0  0  0  0  0  0  0  0  0
   -6.5234    5.1924  -15.9139 C   0  0  0  0  0  0  0  0  0  0  0  0
   -5.8590    5.6901  -16.9274 N   0  0  0  0  0  0  0  0  0  0  0  0
   -6.6002    5.3831  -18.0273 C   0  0  0  0  0  0  0  0  0  0  0  0
   -6.2073    5.7403  -19.2724 N   0  0  0  0  0  0  0  0  0  0  0  0
   -4.8551    6.3171  -19.7768 C   0  0  0  0  0  0  0  0  0  0  0  0
   -3.9029    6.6433  -19.1837 O   0  0  0  0  0  0  0  0  0  0  0  0
   -4.9513    6.3699  -21.2813 C   0  0  0  0  0  0  0  0  0  0  0  0
   -3.6257    6.8051  -21.8440 C   0  0  0  0  0  0  0  0  0  0  0  0
   -3.5834    6.4986  -23.1731 F   0  0  0  0  0  0  0  0  0  0  0  0
   -3.5326    8.1615  -21.7872 F   0  0  0  0  0  0  0  0  0  0  0  0
   -7.7456    4.7057  -17.6873 C   0  0  0  0  0  0  0  0  0  0  0  0
  1  2  1  0
  2  3  1  0
  3  4  2  0
  4  5  1  0
  5  6  1  0
  6  7  1  0
  7  8  2  0
  7  9  1  0
  9 10  1  0
 10 11  1  0
 10 12  1  0
  5 13  2  0
 13  2  1  0
M  END
>  <energy_score>  (3337) 
-3.692136

>  <alias>  (3337) 
ACRJRWJNVLSDEO-UHFFFAOYSA-N-P86-P35-P86-601526

>  <HIPPO Pose ID>  (3337) 
77390

>  <smiles>  (3337) 
Cn1cnc(NC(=O)CC(F)F)c1

>  <inchikey>  (3337) 
ACRJRWJNVLSDEO-UHFFFAOYSA-N

>  <distance_score>  (3337) 
1.726596

>  <ref_mols>  (3337) 
Z0719a,Z1597a

>  <ref_pdb>  (3337) 
Z3093a

>  <HIPPO Compound ID>  (3337) 
149480

>  <name>  (3337) 
ACRJRWJNVLSDEO-UHFFFAOYSA-N-P86-P35-P86-601526

>  <inspiration_score>  (3337) 
None

$$$$
AMDHXSDRIQFWNR-UHFFFAOYSA-N-P35-P35-P86-601526
     RDKit          3D

 13 14  0  0  0  0  0  0  0  0999 V2000
   -8.2195    6.8416  -11.8208 C   0  0  0  0  0  0  0  0  0  0  0  0
   -8.0988    5.4605  -11.4341 N   0  0  0  0  0  0  0  0  0  0  0  0
   -8.0704    5.0465  -10.1255 C   0  0  0  0  0  0  0  0  0  0  0  0
   -8.0495    3.7415  -10.0258 N   0  0  0  0  0  0  0  0  0  0  0  0
   -8.0841    3.2926  -11.3172 C   0  0  0  0  0  0  0  0  0  0  0  0
   -8.0758    4.3375  -12.2241 C   0  0  0  0  0  0  0  0  0  0  0  0
   -8.0540    4.2396  -13.5931 N   0  0  0  0  0  0  0  0  0  0  0  0
   -7.7722    5.3089  -14.6708 C   0  0  0  0  0  0  0  0  0  0  0  0
   -7.5901    6.4571  -14.5680 O   0  0  0  0  0  0  0  0  0  0  0  0
   -7.6830    4.6644  -16.0146 C   0  0  2  0  0  0  0  0  0  0  0  0
   -6.3624    4.6650  -16.7635 C   0  0  0  0  0  0  0  0  0  0  0  0
   -7.4880    5.5022  -17.2416 C   0  0  1  0  0  0  0  0  0  0  0  0
   -8.1456    5.0821  -18.3793 F   0  0  0  0  0  0  0  0  0  0  0  0
  1  2  1  0
  2  3  1  0
  3  4  2  0
  4  5  1  0
  5  6  2  0
  6  7  1  0
  7  8  1  0
  8  9  2  0
 10  8  1  1
 10 11  1  0
 11 12  1  0
 12 13  1  6
  6  2  1  0
 12 10  1  0
M  END
>  <energy_score>  (3338) 
-23.248791

>  <alias>  (3338) 
AMDHXSDRIQFWNR-UHFFFAOYSA-N-P35-P35-P86-601526

>  <HIPPO Pose ID>  (3338) 
77391

>  <smiles>  (3338) 
Cn1cncc1NC(=O)C1CC1F

>  <inchikey>  (3338) 
AMDHXSDRIQFWNR-UHFFFAOYSA-N

>  <distance_score>  (3338) 
1.384713

>  <ref_mols>  (3338) 
Z0719a,Z1597a

>  <ref_pdb>  (3338) 
Z3093a

>  <HIPPO Compound ID>  (3338) 
149481

>  <name>  (3338) 
AMDHXSDRIQFWNR-UHFFFAOYSA-N-P35-P35-P86-601526

>  <inspiration_score>  (3338) 
None

$$$$
CJAWHHJVFBKOQR-UHFFFAOYSA-N-P86-P35-P86-601526
     RDKit          3D

 13 13  0  0  0  0  0  0  0  0999 V2000
   -2.6320    4.8706  -20.2244 C   0  0  0  0  0  0  0  0  0  0  0  0
   -3.6816    5.7087  -20.1752 C   0  0  0  0  0  0  0  0  0  0  0  0
   -4.1494    6.6341  -21.2522 C   0  0  0  0  0  0  0  0  0  0  0  0
   -3.5957    6.2823  -22.5180 O   0  0  0  0  0  0  0  0  0  0  0  0
   -4.4249    5.7522  -18.8814 C   0  0  0  0  0  0  0  0  0  0  0  0
   -3.9200    6.1239  -17.8976 O   0  0  0  0  0  0  0  0  0  0  0  0
   -5.8361    5.1751  -19.1262 N   0  0  0  0  0  0  0  0  0  0  0  0
   -6.8203    4.8673  -18.2556 C   0  0  0  0  0  0  0  0  0  0  0  0
   -6.8210    5.0528  -16.9034 C   0  0  0  0  0  0  0  0  0  0  0  0
   -7.9999    4.5149  -16.4864 N   0  0  0  0  0  0  0  0  0  0  0  0
   -8.4337    4.4545  -15.1253 C   0  0  0  0  0  0  0  0  0  0  0  0
   -8.6778    4.0808  -17.5793 C   0  0  0  0  0  0  0  0  0  0  0  0
   -7.9705    4.2747  -18.6697 N   0  0  0  0  0  0  0  0  0  0  0  0
  1  2  2  0
  2  3  1  0
  3  4  1  0
  2  5  1  0
  5  6  2  0
  5  7  1  0
  7  8  1  0
  8  9  2  0
  9 10  1  0
 10 11  1  0
 10 12  1  0
 12 13  2  0
 13  8  1  0
M  END
>  <energy_score>  (3339) 
-25.156595

>  <alias>  (3339) 
CJAWHHJVFBKOQR-UHFFFAOYSA-N-P86-P35-P86-601526

>  <HIPPO Pose ID>  (3339) 
77396

>  <smiles>  (3339) 
C=C(CO)C(=O)Nc1cn(C)cn1

>  <inchikey>  (3339) 
CJAWHHJVFBKOQR-UHFFFAOYSA-N

>  <distance_score>  (3339) 
1.30273

>  <ref_mols>  (3339) 
Z0719a,Z1597a

>  <ref_pdb>  (3339) 
Z3093a

>  <HIPPO Compound ID>  (3339) 
149483

>  <name>  (3339) 
CJAWHHJVFBKOQR-UHFFFAOYSA-N-P86-P35-P86-601526

>  <inspiration_score>  (3339) 
None

$$$$
LQBANGMNADGMGN-UHFFFAOYSA-N-P86-P35-P86-601526
     RDKit          3D

 13 13  0  0  0  0  0  0  0  0999 V2000
   -8.5268    4.4235  -15.3705 C   0  0  0  0  0  0  0  0  0  0  0  0
   -7.9746    4.5067  -16.6881 N   0  0  0  0  0  0  0  0  0  0  0  0
   -8.4499    3.8973  -17.8037 C   0  0  0  0  0  0  0  0  0  0  0  0
   -7.6680    4.1367  -18.8323 N   0  0  0  0  0  0  0  0  0  0  0  0
   -6.7126    4.9832  -18.3712 C   0  0  0  0  0  0  0  0  0  0  0  0
   -5.7623    5.4662  -19.1982 N   0  0  0  0  0  0  0  0  0  0  0  0
   -4.6197    6.4954  -18.9362 C   0  0  0  0  0  0  0  0  0  0  0  0
   -4.3793    7.1360  -17.9856 O   0  0  0  0  0  0  0  0  0  0  0  0
   -3.7241    6.5243  -20.2169 C   0  0  0  0  0  0  0  0  0  0  0  0
   -4.4858    6.8393  -21.5017 C   0  0  0  0  0  0  0  0  0  0  0  0
   -2.8908    5.2526  -20.3378 C   0  0  0  0  0  0  0  0  0  0  0  0
   -2.4260    8.0293  -19.9899 Br  0  0  0  0  0  0  0  0  0  0  0  0
   -6.8751    5.2314  -17.0380 C   0  0  0  0  0  0  0  0  0  0  0  0
  1  2  1  0
  2  3  1  0
  3  4  2  0
  4  5  1  0
  5  6  1  0
  6  7  1  0
  7  8  2  0
  7  9  1  0
  9 10  1  0
  9 11  1  0
  9 12  1  0
  5 13  2  0
 13  2  1  0
M  END
>  <energy_score>  (3340) 
-2.529095

>  <alias>  (3340) 
LQBANGMNADGMGN-UHFFFAOYSA-N-P86-P35-P86-601526

>  <HIPPO Pose ID>  (3340) 
77408

>  <smiles>  (3340) 
Cn1cnc(NC(=O)C(C)(C)Br)c1

>  <inchikey>  (3340) 
LQBANGMNADGMGN-UHFFFAOYSA-N

>  <distance_score>  (3340) 
1.401291

>  <ref_mols>  (3340) 
Z0719a,Z1597a

>  <ref_pdb>  (3340) 
Z3093a

>  <HIPPO Compound ID>  (3340) 
149489

>  <name>  (3340) 
LQBANGMNADGMGN-UHFFFAOYSA-N-P86-P35-P86-601526

>  <inspiration_score>  (3340) 
None

$$$$
JNTPGPGPKGWRGO-UHFFFAOYSA-N-P86-P35-P86-601526
     RDKit          3D

 13 13  0  0  0  0  0  0  0  0999 V2000
   -4.9928    6.8693  -16.1567 C   0  0  0  0  0  0  0  0  0  0  0  0
   -4.6062    6.9217  -17.2980 C   0  0  0  0  0  0  0  0  0  0  0  0
   -4.1930    6.8487  -18.7322 C   0  0  0  0  0  0  0  0  0  0  0  0
   -4.0509    5.4008  -19.1943 C   0  0  0  0  0  0  0  0  0  0  0  0
   -5.4063    4.7980  -19.5350 C   0  0  0  0  0  0  0  0  0  0  0  0
   -5.7314    4.5584  -20.6303 O   0  0  0  0  0  0  0  0  0  0  0  0
   -6.1912    4.6695  -18.2014 N   0  0  0  0  0  0  0  0  0  0  0  0
   -7.4840    4.3318  -17.9699 C   0  0  0  0  0  0  0  0  0  0  0  0
   -8.4985    3.9689  -18.8225 C   0  0  0  0  0  0  0  0  0  0  0  0
   -9.6523    3.7129  -18.1285 N   0  0  0  0  0  0  0  0  0  0  0  0
   -9.3459    3.9283  -16.8755 C   0  0  0  0  0  0  0  0  0  0  0  0
   -8.0479    4.3062  -16.7243 N   0  0  0  0  0  0  0  0  0  0  0  0
   -7.4693    4.6096  -15.4461 C   0  0  0  0  0  0  0  0  0  0  0  0
  1  2  3  0
  2  3  1  0
  3  4  1  0
  4  5  1  0
  5  6  2  0
  5  7  1  0
  7  8  1  0
  8  9  2  0
  9 10  1  0
 10 11  2  0
 11 12  1  0
 12 13  1  0
 12  8  1  0
M  END
>  <energy_score>  (3341) 
-15.801292

>  <alias>  (3341) 
JNTPGPGPKGWRGO-UHFFFAOYSA-N-P86-P35-P86-601526

>  <HIPPO Pose ID>  (3341) 
77422

>  <smiles>  (3341) 
C#CCCC(=O)Nc1cncn1C

>  <inchikey>  (3341) 
JNTPGPGPKGWRGO-UHFFFAOYSA-N

>  <distance_score>  (3341) 
1.956415

>  <ref_mols>  (3341) 
Z0719a,Z1597a

>  <ref_pdb>  (3341) 
Z3093a

>  <HIPPO Compound ID>  (3341) 
149496

>  <name>  (3341) 
JNTPGPGPKGWRGO-UHFFFAOYSA-N-P86-P35-P86-601526

>  <inspiration_score>  (3341) 
None

$$$$
JXGPTUDPIIRHNX-UHFFFAOYSA-N-P86-P35-P86-601526
     RDKit          3D

 13 13  0  0  0  0  0  0  0  0999 V2000
   -4.9851    7.1409  -22.4391 C   0  0  0  0  0  0  0  0  0  0  0  0
   -4.3849    6.8796  -21.4318 C   0  0  0  0  0  0  0  0  0  0  0  0
   -3.6394    6.5397  -20.2056 C   0  0  2  0  0  0  0  0  0  0  0  0
   -2.8707    5.2339  -20.3678 C   0  0  0  0  0  0  0  0  0  0  0  0
   -4.5222    6.4916  -18.9445 C   0  0  0  0  0  0  0  0  0  0  0  0
   -4.2010    7.0551  -17.9682 O   0  0  0  0  0  0  0  0  0  0  0  0
   -5.7326    5.5493  -19.2137 N   0  0  0  0  0  0  0  0  0  0  0  0
   -6.6731    5.0673  -18.3722 C   0  0  0  0  0  0  0  0  0  0  0  0
   -6.7639    5.2643  -17.0234 C   0  0  0  0  0  0  0  0  0  0  0  0
   -7.8609    4.5518  -16.6451 N   0  0  0  0  0  0  0  0  0  0  0  0
   -8.3231    4.3852  -15.3011 C   0  0  0  0  0  0  0  0  0  0  0  0
   -8.4084    3.9975  -17.7567 C   0  0  0  0  0  0  0  0  0  0  0  0
   -7.6785    4.2685  -18.8154 N   0  0  0  0  0  0  0  0  0  0  0  0
  1  2  3  0
  2  3  1  0
  3  4  1  6
  3  5  1  0
  5  6  2  0
  5  7  1  0
  7  8  1  0
  8  9  2  0
  9 10  1  0
 10 11  1  0
 10 12  1  0
 12 13  2  0
 13  8  1  0
M  END
>  <energy_score>  (3342) 
-2.751651

>  <alias>  (3342) 
JXGPTUDPIIRHNX-UHFFFAOYSA-N-P86-P35-P86-601526

>  <HIPPO Pose ID>  (3342) 
77426

>  <smiles>  (3342) 
C#CC(C)C(=O)Nc1cn(C)cn1

>  <inchikey>  (3342) 
JXGPTUDPIIRHNX-UHFFFAOYSA-N

>  <distance_score>  (3342) 
1.347941

>  <ref_mols>  (3342) 
Z0719a,Z1597a

>  <ref_pdb>  (3342) 
Z3093a

>  <HIPPO Compound ID>  (3342) 
149498

>  <name>  (3342) 
JXGPTUDPIIRHNX-UHFFFAOYSA-N-P86-P35-P86-601526

>  <inspiration_score>  (3342) 
None

$$$$
RKNIUFLSSKUXPO-UHFFFAOYSA-N-P86-P35-P86-601526
     RDKit          3D

 13 13  0  0  0  0  0  0  0  0999 V2000
   -8.2816    4.3920  -14.9283 C   0  0  0  0  0  0  0  0  0  0  0  0
   -8.0428    4.4483  -16.3372 N   0  0  0  0  0  0  0  0  0  0  0  0
   -8.9529    4.2396  -17.3234 C   0  0  0  0  0  0  0  0  0  0  0  0
   -8.4183    4.4701  -18.5023 N   0  0  0  0  0  0  0  0  0  0  0  0
   -7.1245    4.8028  -18.2562 C   0  0  0  0  0  0  0  0  0  0  0  0
   -6.2550    5.0926  -19.2454 N   0  0  0  0  0  0  0  0  0  0  0  0
   -4.7335    5.4165  -19.1907 C   0  0  0  0  0  0  0  0  0  0  0  0
   -3.9874    5.4055  -18.2881 O   0  0  0  0  0  0  0  0  0  0  0  0
   -4.3248    5.8154  -20.6164 C   0  0  0  0  0  0  0  0  0  0  0  0
   -4.4397    7.3214  -20.7689 C   0  0  0  0  0  0  0  0  0  0  0  0
   -2.9009    5.3551  -20.9087 C   0  0  0  0  0  0  0  0  0  0  0  0
   -5.1662    5.2639  -21.5403 F   0  0  0  0  0  0  0  0  0  0  0  0
   -6.8647    4.8051  -16.9167 C   0  0  0  0  0  0  0  0  0  0  0  0
  1  2  1  0
  2  3  1  0
  3  4  2  0
  4  5  1  0
  5  6  1  0
  6  7  1  0
  7  8  2  0
  7  9  1  0
  9 10  1  0
  9 11  1  0
  9 12  1  0
  5 13  2  0
 13  2  1  0
M  END
>  <energy_score>  (3343) 
-30.002426

>  <alias>  (3343) 
RKNIUFLSSKUXPO-UHFFFAOYSA-N-P86-P35-P86-601526

>  <HIPPO Pose ID>  (3343) 
77428

>  <smiles>  (3343) 
Cn1cnc(NC(=O)C(C)(C)F)c1

>  <inchikey>  (3343) 
RKNIUFLSSKUXPO-UHFFFAOYSA-N

>  <distance_score>  (3343) 
1.520894

>  <ref_mols>  (3343) 
Z0719a,Z1597a

>  <ref_pdb>  (3343) 
Z3093a

>  <HIPPO Compound ID>  (3343) 
149499

>  <name>  (3343) 
RKNIUFLSSKUXPO-UHFFFAOYSA-N-P86-P35-P86-601526

>  <inspiration_score>  (3343) 
None

$$$$
HODPVBPZPXBNSR-UHFFFAOYSA-N-P86-P35-P86-601526
     RDKit          3D

 13 13  0  0  0  0  0  0  0  0999 V2000
   -3.2561    8.7225  -21.2862 C   0  0  0  0  0  0  0  0  0  0  0  0
   -3.3248    7.2294  -21.6175 C   0  0  2  0  0  0  0  0  0  0  0  0
   -3.0756    7.0584  -23.4296 S   0  0  0  0  0  0  0  0  0  0  0  0
   -4.6576    6.6081  -21.2138 C   0  0  0  0  0  0  0  0  0  0  0  0
   -4.7426    6.4368  -19.7027 C   0  0  0  0  0  0  0  0  0  0  0  0
   -3.8960    6.7451  -18.9606 O   0  0  0  0  0  0  0  0  0  0  0  0
   -6.1309    5.8019  -19.4349 N   0  0  0  0  0  0  0  0  0  0  0  0
   -6.6855    5.3592  -18.2864 C   0  0  0  0  0  0  0  0  0  0  0  0
   -7.8633    4.6603  -18.2122 C   0  0  0  0  0  0  0  0  0  0  0  0
   -8.0385    4.4617  -16.8799 N   0  0  0  0  0  0  0  0  0  0  0  0
   -9.1646    3.8566  -16.2508 C   0  0  0  0  0  0  0  0  0  0  0  0
   -6.9794    4.9976  -16.2190 C   0  0  0  0  0  0  0  0  0  0  0  0
   -6.1509    5.5806  -17.0538 N   0  0  0  0  0  0  0  0  0  0  0  0
  2  1  1  6
  2  3  1  0
  2  4  1  0
  4  5  1  0
  5  6  2  0
  5  7  1  0
  7  8  1  0
  8  9  2  0
  9 10  1  0
 10 11  1  0
 10 12  1  0
 12 13  2  0
 13  8  1  0
M  END
>  <energy_score>  (3344) 
-5.413221

>  <alias>  (3344) 
HODPVBPZPXBNSR-UHFFFAOYSA-N-P86-P35-P86-601526

>  <HIPPO Pose ID>  (3344) 
77430

>  <smiles>  (3344) 
CC(S)CC(=O)Nc1cn(C)cn1

>  <inchikey>  (3344) 
HODPVBPZPXBNSR-UHFFFAOYSA-N

>  <distance_score>  (3344) 
1.697825

>  <ref_mols>  (3344) 
Z0719a,Z1597a

>  <ref_pdb>  (3344) 
Z3093a

>  <HIPPO Compound ID>  (3344) 
149500

>  <name>  (3344) 
HODPVBPZPXBNSR-UHFFFAOYSA-N-P86-P35-P86-601526

>  <inspiration_score>  (3344) 
None

$$$$
SRPWTVRUCRKEDY-UHFFFAOYSA-N-P35-P35-P86-601526
     RDKit          3D

 13 13  0  0  0  0  0  0  0  0999 V2000
   -4.4808    7.6570  -20.9098 C   0  0  0  0  0  0  0  0  0  0  0  0
   -4.2102    6.7261  -20.2008 C   0  0  0  0  0  0  0  0  0  0  0  0
   -3.8716    5.5778  -19.3442 C   0  0  0  0  0  0  0  0  0  0  0  0
   -4.7557    5.4297  -18.1090 C   0  0  0  0  0  0  0  0  0  0  0  0
   -4.3119    5.4383  -17.0275 O   0  0  0  0  0  0  0  0  0  0  0  0
   -6.2136    5.1937  -18.5984 N   0  0  0  0  0  0  0  0  0  0  0  0
   -7.3380    4.8463  -17.9025 C   0  0  0  0  0  0  0  0  0  0  0  0
   -8.5524    4.8198  -18.5417 N   0  0  0  0  0  0  0  0  0  0  0  0
   -9.5012    4.4303  -17.6428 C   0  0  0  0  0  0  0  0  0  0  0  0
   -8.9742    4.1817  -16.4710 N   0  0  0  0  0  0  0  0  0  0  0  0
   -7.6281    4.4633  -16.6034 C   0  0  0  0  0  0  0  0  0  0  0  0
   -6.7640    4.2877  -15.4731 C   0  0  0  0  0  0  0  0  0  0  0  0
   -6.0689    4.1254  -14.5547 N   0  0  0  0  0  0  0  0  0  0  0  0
  1  2  3  0
  2  3  1  0
  3  4  1  0
  4  5  2  0
  4  6  1  0
  6  7  1  0
  7  8  1  0
  8  9  1  0
  9 10  2  0
 10 11  1  0
 11 12  1  0
 12 13  3  0
 11  7  2  0
M  END
>  <energy_score>  (3345) 
-5.708602

>  <alias>  (3345) 
SRPWTVRUCRKEDY-UHFFFAOYSA-N-P35-P35-P86-601526

>  <HIPPO Pose ID>  (3345) 
77431

>  <smiles>  (3345) 
C#CCC(=O)Nc1[nH]cnc1C#N

>  <inchikey>  (3345) 
SRPWTVRUCRKEDY-UHFFFAOYSA-N

>  <distance_score>  (3345) 
1.270127

>  <ref_mols>  (3345) 
Z0719a,Z1597a

>  <ref_pdb>  (3345) 
Z3093a

>  <HIPPO Compound ID>  (3345) 
149501

>  <name>  (3345) 
SRPWTVRUCRKEDY-UHFFFAOYSA-N-P35-P35-P86-601526

>  <inspiration_score>  (3345) 
None

$$$$
BDJNZZZAYWHNOS-UHFFFAOYSA-N-P86-P35-P86-601526
     RDKit          3D

 13 13  0  0  0  0  0  0  0  0999 V2000
   -2.8174    7.0019  -21.5572 C   0  0  0  0  0  0  0  0  0  0  0  0
   -3.8345    6.5858  -21.0724 C   0  0  0  0  0  0  0  0  0  0  0  0
   -5.0768    6.0743  -20.4720 C   0  0  0  0  0  0  0  0  0  0  0  0
   -4.9400    5.7358  -18.9855 C   0  0  0  0  0  0  0  0  0  0  0  0
   -3.9334    5.7958  -18.3911 O   0  0  0  0  0  0  0  0  0  0  0  0
   -6.3630    5.2966  -18.5211 N   0  0  0  0  0  0  0  0  0  0  0  0
   -6.8207    4.9575  -17.2931 C   0  0  0  0  0  0  0  0  0  0  0  0
   -6.1213    4.9398  -16.1152 C   0  0  0  0  0  0  0  0  0  0  0  0
   -6.9886    4.4429  -15.1816 N   0  0  0  0  0  0  0  0  0  0  0  0
   -6.7692    4.2521  -13.7570 C   0  0  0  0  0  0  0  0  0  0  0  0
   -5.4103    3.7454  -13.2730 C   0  0  0  0  0  0  0  0  0  0  0  0
   -8.1920    4.2771  -15.8229 C   0  0  0  0  0  0  0  0  0  0  0  0
   -8.1083    4.5748  -17.1026 N   0  0  0  0  0  0  0  0  0  0  0  0
  1  2  3  0
  2  3  1  0
  3  4  1  0
  4  5  2  0
  4  6  1  0
  6  7  1  0
  7  8  2  0
  8  9  1  0
  9 10  1  0
 10 11  1  0
  9 12  1  0
 12 13  2  0
 13  7  1  0
M  END
>  <energy_score>  (3346) 
-10.189116

>  <alias>  (3346) 
BDJNZZZAYWHNOS-UHFFFAOYSA-N-P86-P35-P86-601526

>  <HIPPO Pose ID>  (3346) 
77438

>  <smiles>  (3346) 
C#CCC(=O)Nc1cn(CC)cn1

>  <inchikey>  (3346) 
BDJNZZZAYWHNOS-UHFFFAOYSA-N

>  <distance_score>  (3346) 
1.853344

>  <ref_mols>  (3346) 
Z0719a,Z1597a

>  <ref_pdb>  (3346) 
Z3093a

>  <HIPPO Compound ID>  (3346) 
149504

>  <name>  (3346) 
BDJNZZZAYWHNOS-UHFFFAOYSA-N-P86-P35-P86-601526

>  <inspiration_score>  (3346) 
None

$$$$
BDWSDMVHZMLCHG-UHFFFAOYSA-N-P86-P35-P86-601526
     RDKit          3D

 13 13  0  0  0  0  0  0  0  0999 V2000
   -8.7112    4.0866  -15.6265 C   0  0  0  0  0  0  0  0  0  0  0  0
   -7.6269    4.6603  -16.3645 N   0  0  0  0  0  0  0  0  0  0  0  0
   -6.5778    5.2846  -15.7716 C   0  0  0  0  0  0  0  0  0  0  0  0
   -5.7263    5.7242  -16.6640 N   0  0  0  0  0  0  0  0  0  0  0  0
   -6.2354    5.3427  -17.8669 C   0  0  0  0  0  0  0  0  0  0  0  0
   -5.5616    5.5650  -19.0216 N   0  0  0  0  0  0  0  0  0  0  0  0
   -4.1107    6.0845  -19.2631 C   0  0  0  0  0  0  0  0  0  0  0  0
   -3.3064    6.4716  -18.5036 O   0  0  0  0  0  0  0  0  0  0  0  0
   -3.7718    5.9248  -20.7595 C   0  0  2  0  0  0  0  0  0  0  0  0
   -2.3860    6.1558  -21.0297 O   0  0  0  0  0  0  0  0  0  0  0  0
   -4.6028    6.7962  -21.6769 C   0  0  0  0  0  0  0  0  0  0  0  0
   -4.4554    8.6980  -21.2539 Br  0  0  0  0  0  0  0  0  0  0  0  0
   -7.4463    4.7071  -17.7189 C   0  0  0  0  0  0  0  0  0  0  0  0
  1  2  1  0
  2  3  1  0
  3  4  2  0
  4  5  1  0
  5  6  1  0
  6  7  1  0
  7  8  2  0
  7  9  1  0
  9 10  1  1
  9 11  1  0
 11 12  1  0
  5 13  2  0
 13  2  1  0
M  END
>  <energy_score>  (3347) 
-16.803558

>  <alias>  (3347) 
BDWSDMVHZMLCHG-UHFFFAOYSA-N-P86-P35-P86-601526

>  <HIPPO Pose ID>  (3347) 
77442

>  <smiles>  (3347) 
Cn1cnc(NC(=O)C(O)CBr)c1

>  <inchikey>  (3347) 
BDWSDMVHZMLCHG-UHFFFAOYSA-N

>  <distance_score>  (3347) 
1.655573

>  <ref_mols>  (3347) 
Z0719a,Z1597a

>  <ref_pdb>  (3347) 
Z3093a

>  <HIPPO Compound ID>  (3347) 
149506

>  <name>  (3347) 
BDWSDMVHZMLCHG-UHFFFAOYSA-N-P86-P35-P86-601526

>  <inspiration_score>  (3347) 
None

$$$$
MAGLHGJSSPNJIT-UHFFFAOYSA-N-P35-P35-P86-601526
     RDKit          3D

 13 13  0  0  0  0  0  0  0  0999 V2000
   -8.3160    4.1795  -14.7386 C   0  0  0  0  0  0  0  0  0  0  0  0
   -8.1254    4.4582  -16.1825 C   0  0  0  0  0  0  0  0  0  0  0  0
   -8.8398    3.9909  -17.1870 N   0  0  0  0  0  0  0  0  0  0  0  0
   -8.1861    4.4132  -18.3215 C   0  0  0  0  0  0  0  0  0  0  0  0
   -7.0307    5.0998  -18.0043 C   0  0  0  0  0  0  0  0  0  0  0  0
   -6.0107    5.5054  -18.8245 N   0  0  0  0  0  0  0  0  0  0  0  0
   -4.5758    6.0096  -18.4814 C   0  0  0  0  0  0  0  0  0  0  0  0
   -4.0756    6.2276  -17.4449 O   0  0  0  0  0  0  0  0  0  0  0  0
   -3.7779    6.1103  -19.7624 C   0  0  0  0  0  0  0  0  0  0  0  0
   -3.8919    7.4596  -20.4318 C   0  0  0  0  0  0  0  0  0  0  0  0
   -5.4424    7.7256  -21.2412 Cl  0  0  0  0  0  0  0  0  0  0  0  0
   -7.1105    5.2593  -16.6471 N   0  0  0  0  0  0  0  0  0  0  0  0
   -6.3842    6.1736  -15.8162 C   0  0  0  0  0  0  0  0  0  0  0  0
  1  2  1  0
  2  3  2  0
  3  4  1  0
  4  5  2  0
  5  6  1  0
  6  7  1  0
  7  8  2  0
  7  9  1  0
  9 10  1  0
 10 11  1  0
  5 12  1  0
 12 13  1  0
 12  2  1  0
M  END
>  <energy_score>  (3348) 
-19.11416

>  <alias>  (3348) 
MAGLHGJSSPNJIT-UHFFFAOYSA-N-P35-P35-P86-601526

>  <HIPPO Pose ID>  (3348) 
77449

>  <smiles>  (3348) 
Cc1ncc(NC(=O)CCCl)n1C

>  <inchikey>  (3348) 
MAGLHGJSSPNJIT-UHFFFAOYSA-N

>  <distance_score>  (3348) 
1.233336

>  <ref_mols>  (3348) 
Z0719a,Z1597a

>  <ref_pdb>  (3348) 
Z3093a

>  <HIPPO Compound ID>  (3348) 
149510

>  <name>  (3348) 
MAGLHGJSSPNJIT-UHFFFAOYSA-N-P35-P35-P86-601526

>  <inspiration_score>  (3348) 
None

$$$$
LRDYHRRRNSZYGF-UHFFFAOYSA-N-P35-P35-P86-601526
     RDKit          3D

 14 14  0  0  0  0  0  0  0  0999 V2000
   -6.1396    3.3238  -14.1803 N   0  0  0  0  0  0  0  0  0  0  0  0
   -6.7184    3.7690  -15.0879 C   0  0  0  0  0  0  0  0  0  0  0  0
   -7.5326    4.2248  -16.1934 C   0  0  0  0  0  0  0  0  0  0  0  0
   -8.9099    4.1403  -16.0571 N   0  0  0  0  0  0  0  0  0  0  0  0
   -9.4126    4.4811  -17.2153 C   0  0  0  0  0  0  0  0  0  0  0  0
   -8.4318    4.7788  -18.1096 N   0  0  0  0  0  0  0  0  0  0  0  0
   -7.2168    4.6365  -17.4829 C   0  0  0  0  0  0  0  0  0  0  0  0
   -6.0928    4.8822  -18.2197 N   0  0  0  0  0  0  0  0  0  0  0  0
   -4.6341    5.1412  -17.7717 C   0  0  0  0  0  0  0  0  0  0  0  0
   -4.1523    5.1088  -16.7097 O   0  0  0  0  0  0  0  0  0  0  0  0
   -3.8052    5.3697  -19.0390 C   0  0  0  0  0  0  0  0  0  0  0  0
   -4.1589    6.5612  -19.9360 C   0  0  0  0  0  0  0  0  0  0  0  0
   -4.0468    7.9148  -19.2422 C   0  0  0  0  0  0  0  0  0  0  0  0
   -5.5566    8.3477  -18.4111 Cl  0  0  0  0  0  0  0  0  0  0  0  0
  1  2  3  0
  2  3  1  0
  3  4  1  0
  4  5  2  0
  5  6  1  0
  6  7  1  0
  7  8  1  0
  8  9  1  0
  9 10  2  0
  9 11  1  0
 11 12  1  0
 12 13  1  0
 13 14  1  0
  7  3  2  0
M  END
>  <energy_score>  (3349) 
-8.928546

>  <alias>  (3349) 
LRDYHRRRNSZYGF-UHFFFAOYSA-N-P35-P35-P86-601526

>  <HIPPO Pose ID>  (3349) 
77461

>  <smiles>  (3349) 
N#Cc1nc[nH]c1NC(=O)CCCCl

>  <inchikey>  (3349) 
LRDYHRRRNSZYGF-UHFFFAOYSA-N

>  <distance_score>  (3349) 
1.800573

>  <ref_mols>  (3349) 
Z0719a,Z1597a

>  <ref_pdb>  (3349) 
Z3093a

>  <HIPPO Compound ID>  (3349) 
149516

>  <name>  (3349) 
LRDYHRRRNSZYGF-UHFFFAOYSA-N-P35-P35-P86-601526

>  <inspiration_score>  (3349) 
None

$$$$
JYYNZLZZWSXJGF-UHFFFAOYSA-N-P86-P35-P86-601526
     RDKit          3D

 14 15  0  0  0  0  0  0  0  0999 V2000
   -8.1654    3.4791   -9.0677 C   0  0  0  0  0  0  0  0  0  0  0  0
   -7.8410    4.2985  -10.2540 C   0  0  0  0  0  0  0  0  0  0  0  0
   -7.9123    5.6158  -10.3166 N   0  0  0  0  0  0  0  0  0  0  0  0
   -7.6349    5.9376  -11.6190 C   0  0  0  0  0  0  0  0  0  0  0  0
   -7.3788    4.8061  -12.3545 C   0  0  0  0  0  0  0  0  0  0  0  0
   -7.1591    4.6200  -13.6809 N   0  0  0  0  0  0  0  0  0  0  0  0
   -6.9382    5.6435  -14.8130 C   0  0  0  0  0  0  0  0  0  0  0  0
   -6.8334    6.8054  -14.7726 O   0  0  0  0  0  0  0  0  0  0  0  0
   -6.9168    4.8260  -16.1241 C   0  0  0  0  0  0  0  0  0  0  0  0
   -6.6332    5.5236  -17.4697 C   0  0  0  0  0  0  0  0  0  0  0  0
   -7.7432    4.3623  -18.3158 S   0  0  0  0  0  0  0  0  0  0  0  0
   -8.3034    4.2954  -16.5967 C   0  0  0  0  0  0  0  0  0  0  0  0
   -7.4084    3.7786  -11.4513 N   0  0  0  0  0  0  0  0  0  0  0  0
   -6.9907    2.4229  -11.7218 C   0  0  0  0  0  0  0  0  0  0  0  0
  1  2  1  0
  2  3  2  0
  3  4  1  0
  4  5  2  0
  5  6  1  0
  6  7  1  0
  7  8  2  0
  7  9  1  0
  9 10  1  0
 10 11  1  0
 11 12  1  0
  5 13  1  0
 13 14  1  0
 13  2  1  0
 12  9  1  0
M  END
>  <energy_score>  (3350) 
-17.130581

>  <alias>  (3350) 
JYYNZLZZWSXJGF-UHFFFAOYSA-N-P86-P35-P86-601526

>  <HIPPO Pose ID>  (3350) 
77470

>  <smiles>  (3350) 
Cc1ncc(NC(=O)C2CSC2)n1C

>  <inchikey>  (3350) 
JYYNZLZZWSXJGF-UHFFFAOYSA-N

>  <distance_score>  (3350) 
1.346668

>  <ref_mols>  (3350) 
Z0719a,Z1597a

>  <ref_pdb>  (3350) 
Z3093a

>  <HIPPO Compound ID>  (3350) 
149520

>  <name>  (3350) 
JYYNZLZZWSXJGF-UHFFFAOYSA-N-P86-P35-P86-601526

>  <inspiration_score>  (3350) 
None

$$$$
NDPOXZOZJRPQMI-UHFFFAOYSA-N-P86-P35-P86-601526
     RDKit          3D

 14 15  0  0  0  0  0  0  0  0999 V2000
   -5.3580    1.7506  -11.4532 C   0  0  0  0  0  0  0  0  0  0  0  0
   -5.9632    2.3727  -10.1863 C   0  0  0  0  0  0  0  0  0  0  0  0
   -7.0334    3.2920  -10.5352 N   0  0  0  0  0  0  0  0  0  0  0  0
   -8.3611    2.9659  -10.5402 C   0  0  0  0  0  0  0  0  0  0  0  0
   -8.9542    3.4890  -11.5928 N   0  0  0  0  0  0  0  0  0  0  0  0
   -7.9797    4.1925  -12.2149 C   0  0  0  0  0  0  0  0  0  0  0  0
   -8.0820    4.5307  -13.5128 N   0  0  0  0  0  0  0  0  0  0  0  0
   -7.0100    5.0285  -14.5079 C   0  0  0  0  0  0  0  0  0  0  0  0
   -5.8828    5.2977  -14.3379 O   0  0  0  0  0  0  0  0  0  0  0  0
   -7.6547    5.1869  -15.8897 C   0  0  0  0  0  0  0  0  0  0  0  0
   -6.6791    5.1513  -17.0960 C   0  0  0  0  0  0  0  0  0  0  0  0
   -7.9434    4.4048  -18.1465 S   0  0  0  0  0  0  0  0  0  0  0  0
   -8.5648    4.0855  -16.4775 C   0  0  0  0  0  0  0  0  0  0  0  0
   -6.8597    4.3103  -11.4394 C   0  0  0  0  0  0  0  0  0  0  0  0
  1  2  1  0
  2  3  1  0
  3  4  1  0
  4  5  2  0
  5  6  1  0
  6  7  1  0
  7  8  1  0
  8  9  2  0
  8 10  1  0
 10 11  1  0
 11 12  1  0
 12 13  1  0
  6 14  2  0
 14  3  1  0
 13 10  1  0
M  END
>  <energy_score>  (3351) 
-1.523866

>  <alias>  (3351) 
NDPOXZOZJRPQMI-UHFFFAOYSA-N-P86-P35-P86-601526

>  <HIPPO Pose ID>  (3351) 
77472

>  <smiles>  (3351) 
CCn1cnc(NC(=O)C2CSC2)c1

>  <inchikey>  (3351) 
NDPOXZOZJRPQMI-UHFFFAOYSA-N

>  <distance_score>  (3351) 
1.679179

>  <ref_mols>  (3351) 
Z0719a,Z1597a

>  <ref_pdb>  (3351) 
Z3093a

>  <HIPPO Compound ID>  (3351) 
149521

>  <name>  (3351) 
NDPOXZOZJRPQMI-UHFFFAOYSA-N-P86-P35-P86-601526

>  <inspiration_score>  (3351) 
None

$$$$
COTVYJOLKNNLKT-UHFFFAOYSA-N-P86-P35-P86-601526
     RDKit          3D

 14 14  0  0  0  0  0  0  0  0999 V2000
   -5.4091    3.7100  -13.2520 C   0  0  0  0  0  0  0  0  0  0  0  0
   -6.7776    4.1926  -13.7336 C   0  0  0  0  0  0  0  0  0  0  0  0
   -6.9965    4.4121  -15.1537 N   0  0  0  0  0  0  0  0  0  0  0  0
   -8.1982    4.2545  -15.7984 C   0  0  0  0  0  0  0  0  0  0  0  0
   -8.1230    4.6087  -17.0632 N   0  0  0  0  0  0  0  0  0  0  0  0
   -6.8381    5.0030  -17.2451 C   0  0  0  0  0  0  0  0  0  0  0  0
   -6.3933    5.3905  -18.4634 N   0  0  0  0  0  0  0  0  0  0  0  0
   -4.9649    5.7748  -18.9408 C   0  0  0  0  0  0  0  0  0  0  0  0
   -3.9701    5.8896  -18.3378 O   0  0  0  0  0  0  0  0  0  0  0  0
   -5.0783    6.0197  -20.4411 C   0  0  0  0  0  0  0  0  0  0  0  0
   -3.7622    6.4459  -21.0922 C   0  0  0  0  0  0  0  0  0  0  0  0
   -3.2914    7.8523  -20.7119 C   0  0  0  0  0  0  0  0  0  0  0  0
   -4.4409    9.3828  -21.6921 I   0  0  0  0  0  0  0  0  0  0  0  0
   -6.1352    4.9503  -16.0707 C   0  0  0  0  0  0  0  0  0  0  0  0
  1  2  1  0
  2  3  1  0
  3  4  1  0
  4  5  2  0
  5  6  1  0
  6  7  1  0
  7  8  1  0
  8  9  2  0
  8 10  1  0
 10 11  1  0
 11 12  1  0
 12 13  1  0
  6 14  2  0
 14  3  1  0
M  END
>  <energy_score>  (3352) 
-47.891021

>  <alias>  (3352) 
COTVYJOLKNNLKT-UHFFFAOYSA-N-P86-P35-P86-601526

>  <HIPPO Pose ID>  (3352) 
77480

>  <smiles>  (3352) 
CCn1cnc(NC(=O)CCCI)c1

>  <inchikey>  (3352) 
COTVYJOLKNNLKT-UHFFFAOYSA-N

>  <distance_score>  (3352) 
1.874109

>  <ref_mols>  (3352) 
Z0719a,Z1597a

>  <ref_pdb>  (3352) 
Z3093a

>  <HIPPO Compound ID>  (3352) 
149525

>  <name>  (3352) 
COTVYJOLKNNLKT-UHFFFAOYSA-N-P86-P35-P86-601526

>  <inspiration_score>  (3352) 
None

$$$$
SRPASYSSSSHMEM-UHFFFAOYSA-N-P86-P35-P86-601526
     RDKit          3D

 14 14  0  0  0  0  0  0  0  0999 V2000
   -4.5049    8.0800  -21.5123 C   0  0  0  0  0  0  0  0  0  0  0  0
   -4.5445    6.9722  -21.0498 C   0  0  0  0  0  0  0  0  0  0  0  0
   -4.5820    5.6118  -20.5001 C   0  0  0  0  0  0  0  0  0  0  0  0
   -4.9141    5.6104  -19.0060 C   0  0  0  0  0  0  0  0  0  0  0  0
   -4.1143    5.8491  -18.1839 O   0  0  0  0  0  0  0  0  0  0  0  0
   -6.4096    5.1850  -18.8685 N   0  0  0  0  0  0  0  0  0  0  0  0
   -7.1534    4.8916  -17.7531 C   0  0  0  0  0  0  0  0  0  0  0  0
   -8.4239    4.3554  -17.7407 C   0  0  0  0  0  0  0  0  0  0  0  0
   -9.2796    3.9567  -18.8524 C   0  0  0  0  0  0  0  0  0  0  0  0
   -8.8812    4.1523  -16.4714 N   0  0  0  0  0  0  0  0  0  0  0  0
   -7.9074    4.5381  -15.6845 C   0  0  0  0  0  0  0  0  0  0  0  0
   -7.9267    4.4833  -14.2041 C   0  0  0  0  0  0  0  0  0  0  0  0
   -6.8393    5.0069  -16.4217 N   0  0  0  0  0  0  0  0  0  0  0  0
   -5.6514    5.5499  -15.8403 C   0  0  0  0  0  0  0  0  0  0  0  0
  1  2  3  0
  2  3  1  0
  3  4  1  0
  4  5  2  0
  4  6  1  0
  6  7  1  0
  7  8  2  0
  8  9  1  0
  8 10  1  0
 10 11  2  0
 11 12  1  0
 11 13  1  0
 13 14  1  0
 13  7  1  0
M  END
>  <energy_score>  (3353) 
-19.990854

>  <alias>  (3353) 
SRPASYSSSSHMEM-UHFFFAOYSA-N-P86-P35-P86-601526

>  <HIPPO Pose ID>  (3353) 
77484

>  <smiles>  (3353) 
C#CCC(=O)Nc1c(C)nc(C)n1C

>  <inchikey>  (3353) 
SRPASYSSSSHMEM-UHFFFAOYSA-N

>  <distance_score>  (3353) 
1.253474

>  <ref_mols>  (3353) 
Z0719a,Z1597a

>  <ref_pdb>  (3353) 
Z3093a

>  <HIPPO Compound ID>  (3353) 
149527

>  <name>  (3353) 
SRPASYSSSSHMEM-UHFFFAOYSA-N-P86-P35-P86-601526

>  <inspiration_score>  (3353) 
None

$$$$
DXGHTQCGDGJWEZ-UHFFFAOYSA-N-P86-P35-P86-601526
     RDKit          3D

 14 15  0  0  0  0  0  0  0  0999 V2000
   -4.3914    8.1937  -21.4591 C   0  0  0  0  0  0  0  0  0  0  0  0
   -4.4553    7.0530  -21.0884 C   0  0  0  0  0  0  0  0  0  0  0  0
   -4.5235    5.6540  -20.6496 C   0  0  0  0  0  0  0  0  0  0  0  0
   -5.0401    5.5330  -19.2161 C   0  0  0  0  0  0  0  0  0  0  0  0
   -4.3678    5.7497  -18.2819 O   0  0  0  0  0  0  0  0  0  0  0  0
   -6.5200    5.0501  -19.3054 N   0  0  0  0  0  0  0  0  0  0  0  0
   -7.3846    4.6699  -18.3280 C   0  0  0  0  0  0  0  0  0  0  0  0
   -8.6635    4.1529  -18.4535 C   0  0  0  0  0  0  0  0  0  0  0  0
   -9.2530    3.9310  -17.2259 N   0  0  0  0  0  0  0  0  0  0  0  0
   -8.3415    4.3235  -16.3743 C   0  0  0  0  0  0  0  0  0  0  0  0
   -7.2006    4.7226  -16.9970 N   0  0  0  0  0  0  0  0  0  0  0  0
   -6.2103    5.2597  -16.0982 C   0  0  0  0  0  0  0  0  0  0  0  0
   -6.8091    4.9885  -14.7156 C   0  0  0  0  0  0  0  0  0  0  0  0
   -8.2696    4.5355  -14.9231 C   0  0  0  0  0  0  0  0  0  0  0  0
  1  2  3  0
  2  3  1  0
  3  4  1  0
  4  5  2  0
  4  6  1  0
  6  7  1  0
  7  8  2  0
  8  9  1  0
  9 10  2  0
 10 11  1  0
 11 12  1  0
 12 13  1  0
 13 14  1  0
 11  7  1  0
 14 10  1  0
M  END
>  <energy_score>  (3354) 
-24.637004

>  <alias>  (3354) 
DXGHTQCGDGJWEZ-UHFFFAOYSA-N-P86-P35-P86-601526

>  <HIPPO Pose ID>  (3354) 
77486

>  <smiles>  (3354) 
C#CCC(=O)Nc1cnc2n1CCC2

>  <inchikey>  (3354) 
DXGHTQCGDGJWEZ-UHFFFAOYSA-N

>  <distance_score>  (3354) 
1.162158

>  <ref_mols>  (3354) 
Z0719a,Z1597a

>  <ref_pdb>  (3354) 
Z3093a

>  <HIPPO Compound ID>  (3354) 
149528

>  <name>  (3354) 
DXGHTQCGDGJWEZ-UHFFFAOYSA-N-P86-P35-P86-601526

>  <inspiration_score>  (3354) 
None

$$$$
JKAQSRZOKJMFIX-UHFFFAOYSA-N-P35-P35-P86-601526
     RDKit          3D

 14 14  0  0  0  0  0  0  0  0999 V2000
   -8.8820    4.1535  -19.0812 C   0  0  0  0  0  0  0  0  0  0  0  0
   -8.3797    4.4159  -17.7388 C   0  0  0  0  0  0  0  0  0  0  0  0
   -9.1862    4.1188  -16.6764 N   0  0  0  0  0  0  0  0  0  0  0  0
   -8.4690    4.4153  -15.6264 C   0  0  0  0  0  0  0  0  0  0  0  0
   -7.2330    4.8912  -15.9741 N   0  0  0  0  0  0  0  0  0  0  0  0
   -6.2453    5.2249  -14.9965 C   0  0  0  0  0  0  0  0  0  0  0  0
   -7.1437    4.8863  -17.3403 C   0  0  0  0  0  0  0  0  0  0  0  0
   -6.0877    5.2054  -18.1554 N   0  0  0  0  0  0  0  0  0  0  0  0
   -4.6904    5.7926  -17.8132 C   0  0  0  0  0  0  0  0  0  0  0  0
   -4.2542    6.1661  -16.7945 O   0  0  0  0  0  0  0  0  0  0  0  0
   -3.8628    5.7974  -19.0958 C   0  0  0  0  0  0  0  0  0  0  0  0
   -4.2668    6.8788  -20.1003 C   0  0  1  0  0  0  0  0  0  0  0  0
   -4.3518    8.2709  -19.4772 C   0  0  0  0  0  0  0  0  0  0  0  0
   -3.0058    6.9269  -21.4350 S   0  0  0  0  0  0  0  0  0  0  0  0
  1  2  1  0
  2  3  1  0
  3  4  2  0
  4  5  1  0
  5  6  1  0
  5  7  1  0
  7  8  1  0
  8  9  1  0
  9 10  2  0
  9 11  1  0
 11 12  1  0
 12 13  1  1
 12 14  1  0
  7  2  2  0
M  END
>  <energy_score>  (3355) 
-29.961054

>  <alias>  (3355) 
JKAQSRZOKJMFIX-UHFFFAOYSA-N-P35-P35-P86-601526

>  <HIPPO Pose ID>  (3355) 
77497

>  <smiles>  (3355) 
Cc1ncn(C)c1NC(=O)CC(C)S

>  <inchikey>  (3355) 
JKAQSRZOKJMFIX-UHFFFAOYSA-N

>  <distance_score>  (3355) 
1.250922

>  <ref_mols>  (3355) 
Z0719a,Z1597a

>  <ref_pdb>  (3355) 
Z3093a

>  <HIPPO Compound ID>  (3355) 
149534

>  <name>  (3355) 
JKAQSRZOKJMFIX-UHFFFAOYSA-N-P35-P35-P86-601526

>  <inspiration_score>  (3355) 
None

$$$$
CBVWLWHMBRPXMU-UHFFFAOYSA-N-P86-P35-P86-601526
     RDKit          3D

 14 14  0  0  0  0  0  0  0  0999 V2000
   -8.3912    4.3821  -14.5662 C   0  0  0  0  0  0  0  0  0  0  0  0
   -8.2568    4.3377  -16.0430 C   0  0  0  0  0  0  0  0  0  0  0  0
   -9.1404    3.8718  -16.9017 N   0  0  0  0  0  0  0  0  0  0  0  0
   -8.6406    4.1786  -18.1354 C   0  0  0  0  0  0  0  0  0  0  0  0
   -7.4209    4.8167  -18.0418 C   0  0  0  0  0  0  0  0  0  0  0  0
   -6.7054    5.3442  -19.0816 N   0  0  0  0  0  0  0  0  0  0  0  0
   -5.2441    5.8810  -19.1340 C   0  0  0  0  0  0  0  0  0  0  0  0
   -4.4589    6.0244  -18.2800 O   0  0  0  0  0  0  0  0  0  0  0  0
   -4.9945    6.2357  -20.5957 C   0  0  0  0  0  0  0  0  0  0  0  0
   -3.5918    6.7915  -20.8326 C   0  0  2  0  0  0  0  0  0  0  0  0
   -3.4215    8.2101  -20.2896 C   0  0  0  0  0  0  0  0  0  0  0  0
   -3.2674    6.8432  -22.6354 S   0  0  0  0  0  0  0  0  0  0  0  0
   -7.1502    4.8340  -16.6987 N   0  0  0  0  0  0  0  0  0  0  0  0
   -5.9840    5.3313  -16.0315 C   0  0  0  0  0  0  0  0  0  0  0  0
  1  2  1  0
  2  3  2  0
  3  4  1  0
  4  5  2  0
  5  6  1  0
  6  7  1  0
  7  8  2  0
  7  9  1  0
  9 10  1  0
 10 11  1  6
 10 12  1  0
  5 13  1  0
 13 14  1  0
 13  2  1  0
M  END
>  <energy_score>  (3356) 
-9.675892

>  <alias>  (3356) 
CBVWLWHMBRPXMU-UHFFFAOYSA-N-P86-P35-P86-601526

>  <HIPPO Pose ID>  (3356) 
77500

>  <smiles>  (3356) 
Cc1ncc(NC(=O)CC(C)S)n1C

>  <inchikey>  (3356) 
CBVWLWHMBRPXMU-UHFFFAOYSA-N

>  <distance_score>  (3356) 
1.212249

>  <ref_mols>  (3356) 
Z0719a,Z1597a

>  <ref_pdb>  (3356) 
Z3093a

>  <HIPPO Compound ID>  (3356) 
149535

>  <name>  (3356) 
CBVWLWHMBRPXMU-UHFFFAOYSA-N-P86-P35-P86-601526

>  <inspiration_score>  (3356) 
None

$$$$
QKHCOHIWSXXWNM-UHFFFAOYSA-N-P86-P35-P86-601526
     RDKit          3D

 14 14  0  0  0  0  0  0  0  0999 V2000
   -3.5936    7.8049  -21.3582 C   0  0  0  0  0  0  0  0  0  0  0  0
   -4.5663    6.9434  -21.0258 C   0  0  0  0  0  0  0  0  0  0  0  0
   -4.4003    5.5209  -20.5698 C   0  0  1  0  0  0  0  0  0  0  0  0
   -3.0300    5.1375  -20.6630 O   0  0  0  0  0  0  0  0  0  0  0  0
   -4.8901    5.3650  -19.1025 C   0  0  0  0  0  0  0  0  0  0  0  0
   -4.1437    5.4023  -18.1977 O   0  0  0  0  0  0  0  0  0  0  0  0
   -6.4312    5.1035  -19.1342 N   0  0  0  0  0  0  0  0  0  0  0  0
   -7.2950    4.7613  -18.1294 C   0  0  0  0  0  0  0  0  0  0  0  0
   -8.5648    4.2413  -18.2687 C   0  0  0  0  0  0  0  0  0  0  0  0
   -9.1385    3.9930  -17.0524 N   0  0  0  0  0  0  0  0  0  0  0  0
   -8.2581    4.3979  -16.1599 C   0  0  0  0  0  0  0  0  0  0  0  0
   -8.4333    4.4246  -14.6871 C   0  0  0  0  0  0  0  0  0  0  0  0
   -7.1114    4.8540  -16.7733 N   0  0  0  0  0  0  0  0  0  0  0  0
   -6.0008    5.4238  -16.0681 C   0  0  0  0  0  0  0  0  0  0  0  0
  1  2  2  0
  2  3  1  0
  3  4  1  1
  3  5  1  0
  5  6  2  0
  5  7  1  0
  7  8  1  0
  8  9  2  0
  9 10  1  0
 10 11  2  0
 11 12  1  0
 11 13  1  0
 13 14  1  0
 13  8  1  0
M  END
>  <energy_score>  (3357) 
-20.880174

>  <alias>  (3357) 
QKHCOHIWSXXWNM-UHFFFAOYSA-N-P86-P35-P86-601526

>  <HIPPO Pose ID>  (3357) 
77502

>  <smiles>  (3357) 
C=CC(O)C(=O)Nc1cnc(C)n1C

>  <inchikey>  (3357) 
QKHCOHIWSXXWNM-UHFFFAOYSA-N

>  <distance_score>  (3357) 
1.044513

>  <ref_mols>  (3357) 
Z0719a,Z1597a

>  <ref_pdb>  (3357) 
Z3093a

>  <HIPPO Compound ID>  (3357) 
149536

>  <name>  (3357) 
QKHCOHIWSXXWNM-UHFFFAOYSA-N-P86-P35-P86-601526

>  <inspiration_score>  (3357) 
None

$$$$
QDZVPVJELRQCPS-UHFFFAOYSA-N-P86-P35-P86-601526
     RDKit          3D

 14 14  0  0  0  0  0  0  0  0999 V2000
   -4.6874    6.9610  -22.6104 C   0  0  0  0  0  0  0  0  0  0  0  0
   -4.3144    6.8051  -21.3323 C   0  0  0  0  0  0  0  0  0  0  0  0
   -4.9366    5.8298  -20.3739 C   0  0  1  0  0  0  0  0  0  0  0  0
   -3.9349    4.8885  -19.9854 O   0  0  0  0  0  0  0  0  0  0  0  0
   -5.4874    6.5364  -19.0963 C   0  0  0  0  0  0  0  0  0  0  0  0
   -5.3785    7.6839  -18.8805 O   0  0  0  0  0  0  0  0  0  0  0  0
   -6.0715    5.3907  -18.2092 N   0  0  0  0  0  0  0  0  0  0  0  0
   -6.5190    5.4100  -16.9322 C   0  0  0  0  0  0  0  0  0  0  0  0
   -7.2044    4.4255  -16.2640 C   0  0  0  0  0  0  0  0  0  0  0  0
   -7.0758    4.7637  -14.9418 N   0  0  0  0  0  0  0  0  0  0  0  0
   -7.3594    3.9873  -13.7507 C   0  0  0  0  0  0  0  0  0  0  0  0
   -6.1126    3.5775  -12.9626 C   0  0  0  0  0  0  0  0  0  0  0  0
   -6.5808    6.0297  -14.9066 C   0  0  0  0  0  0  0  0  0  0  0  0
   -6.1984    6.4276  -16.0948 N   0  0  0  0  0  0  0  0  0  0  0  0
  1  2  2  0
  2  3  1  0
  3  4  1  1
  3  5  1  0
  5  6  2  0
  5  7  1  0
  7  8  1  0
  8  9  2  0
  9 10  1  0
 10 11  1  0
 11 12  1  0
 10 13  1  0
 13 14  2  0
 14  8  1  0
M  END
>  <energy_score>  (3358) 
-2.015577

>  <alias>  (3358) 
QDZVPVJELRQCPS-UHFFFAOYSA-N-P86-P35-P86-601526

>  <HIPPO Pose ID>  (3358) 
77504

>  <smiles>  (3358) 
C=CC(O)C(=O)Nc1cn(CC)cn1

>  <inchikey>  (3358) 
QDZVPVJELRQCPS-UHFFFAOYSA-N

>  <distance_score>  (3358) 
1.981986

>  <ref_mols>  (3358) 
Z0719a,Z1597a

>  <ref_pdb>  (3358) 
Z3093a

>  <HIPPO Compound ID>  (3358) 
149537

>  <name>  (3358) 
QDZVPVJELRQCPS-UHFFFAOYSA-N-P86-P35-P86-601526

>  <inspiration_score>  (3358) 
None

$$$$
ZADOPTKUIOTCRJ-UHFFFAOYSA-N-P86-P35-P86-601526
     RDKit          3D

 14 14  0  0  0  0  0  0  0  0999 V2000
   -8.5005    4.3823  -14.8936 C   0  0  0  0  0  0  0  0  0  0  0  0
   -8.1432    4.4066  -16.3308 C   0  0  0  0  0  0  0  0  0  0  0  0
   -8.8506    3.9307  -17.3331 N   0  0  0  0  0  0  0  0  0  0  0  0
   -8.1404    4.2538  -18.4602 C   0  0  0  0  0  0  0  0  0  0  0  0
   -6.9840    4.9470  -18.1528 C   0  0  0  0  0  0  0  0  0  0  0  0
   -6.0702    5.4828  -19.0274 N   0  0  0  0  0  0  0  0  0  0  0  0
   -4.7969    6.3563  -18.7594 C   0  0  0  0  0  0  0  0  0  0  0  0
   -4.3843    6.8115  -17.7591 O   0  0  0  0  0  0  0  0  0  0  0  0
   -3.9733    6.4941  -20.0957 C   0  0  0  0  0  0  0  0  0  0  0  0
   -4.7819    6.6919  -21.3718 C   0  0  0  0  0  0  0  0  0  0  0  0
   -3.0287    5.3026  -20.2297 C   0  0  0  0  0  0  0  0  0  0  0  0
   -2.9492    7.9938  -19.9288 Cl  0  0  0  0  0  0  0  0  0  0  0  0
   -6.9688    4.9676  -16.7804 N   0  0  0  0  0  0  0  0  0  0  0  0
   -5.9167    5.3852  -15.8992 C   0  0  0  0  0  0  0  0  0  0  0  0
  1  2  1  0
  2  3  2  0
  3  4  1  0
  4  5  2  0
  5  6  1  0
  6  7  1  0
  7  8  2  0
  7  9  1  0
  9 10  1  0
  9 11  1  0
  9 12  1  0
  5 13  1  0
 13 14  1  0
 13  2  1  0
M  END
>  <energy_score>  (3359) 
-18.826048

>  <alias>  (3359) 
ZADOPTKUIOTCRJ-UHFFFAOYSA-N-P86-P35-P86-601526

>  <HIPPO Pose ID>  (3359) 
77506

>  <smiles>  (3359) 
Cc1ncc(NC(=O)C(C)(C)Cl)n1C

>  <inchikey>  (3359) 
ZADOPTKUIOTCRJ-UHFFFAOYSA-N

>  <distance_score>  (3359) 
1.533584

>  <ref_mols>  (3359) 
Z0719a,Z1597a

>  <ref_pdb>  (3359) 
Z3093a

>  <HIPPO Compound ID>  (3359) 
149538

>  <name>  (3359) 
ZADOPTKUIOTCRJ-UHFFFAOYSA-N-P86-P35-P86-601526

>  <inspiration_score>  (3359) 
None

$$$$
RRRVNDDIDGACSC-UHFFFAOYSA-N-P86-P35-P86-601526
     RDKit          3D

 14 14  0  0  0  0  0  0  0  0999 V2000
   -4.1220    5.9080  -20.6065 C   0  0  0  0  0  0  0  0  0  0  0  0
   -4.1843    6.7171  -19.3095 C   0  0  0  0  0  0  0  0  0  0  0  0
   -2.7666    7.1450  -18.9110 C   0  0  0  0  0  0  0  0  0  0  0  0
   -5.1502    8.2172  -19.5965 Cl  0  0  0  0  0  0  0  0  0  0  0  0
   -4.8627    5.9423  -18.1329 C   0  0  0  0  0  0  0  0  0  0  0  0
   -4.2939    5.7174  -17.1354 O   0  0  0  0  0  0  0  0  0  0  0  0
   -6.3360    5.6410  -18.5453 N   0  0  0  0  0  0  0  0  0  0  0  0
   -7.3188    4.9579  -17.8868 C   0  0  0  0  0  0  0  0  0  0  0  0
   -8.4668    4.6252  -18.5597 N   0  0  0  0  0  0  0  0  0  0  0  0
   -9.3251    4.0403  -17.6784 C   0  0  0  0  0  0  0  0  0  0  0  0
   -8.7844    3.9203  -16.4942 N   0  0  0  0  0  0  0  0  0  0  0  0
   -7.5315    4.4932  -16.5992 C   0  0  0  0  0  0  0  0  0  0  0  0
   -6.7187    4.6051  -15.4245 C   0  0  0  0  0  0  0  0  0  0  0  0
   -6.0719    4.7026  -14.4630 N   0  0  0  0  0  0  0  0  0  0  0  0
  1  2  1  0
  2  3  1  0
  2  4  1  0
  2  5  1  0
  5  6  2  0
  5  7  1  0
  7  8  1  0
  8  9  1  0
  9 10  1  0
 10 11  2  0
 11 12  1  0
 12 13  1  0
 13 14  3  0
 12  8  2  0
M  END
>  <energy_score>  (3360) 
-16.112939

>  <alias>  (3360) 
RRRVNDDIDGACSC-UHFFFAOYSA-N-P86-P35-P86-601526

>  <HIPPO Pose ID>  (3360) 
77510

>  <smiles>  (3360) 
CC(C)(Cl)C(=O)Nc1[nH]cnc1C#N

>  <inchikey>  (3360) 
RRRVNDDIDGACSC-UHFFFAOYSA-N

>  <distance_score>  (3360) 
1.983641

>  <ref_mols>  (3360) 
Z0719a,Z1597a

>  <ref_pdb>  (3360) 
Z3093a

>  <HIPPO Compound ID>  (3360) 
149540

>  <name>  (3360) 
RRRVNDDIDGACSC-UHFFFAOYSA-N-P86-P35-P86-601526

>  <inspiration_score>  (3360) 
None

$$$$
WNTNEMHOJDFTEE-UHFFFAOYSA-N-P35-P35-P86-601526
     RDKit          3D

 14 14  0  0  0  0  0  0  0  0999 V2000
   -3.9888    8.0200  -19.2791 C   0  0  0  0  0  0  0  0  0  0  0  0
   -4.0944    6.7545  -20.1233 C   0  0  1  0  0  0  0  0  0  0  0  0
   -2.9058    6.8657  -21.4680 Cl  0  0  0  0  0  0  0  0  0  0  0  0
   -3.8001    5.4862  -19.3281 C   0  0  0  0  0  0  0  0  0  0  0  0
   -4.6857    5.2954  -18.1067 C   0  0  0  0  0  0  0  0  0  0  0  0
   -4.2531    5.3544  -17.0244 O   0  0  0  0  0  0  0  0  0  0  0  0
   -6.1193    4.9674  -18.5996 N   0  0  0  0  0  0  0  0  0  0  0  0
   -7.2714    4.7503  -17.8965 C   0  0  0  0  0  0  0  0  0  0  0  0
   -8.4835    4.7707  -18.5381 N   0  0  0  0  0  0  0  0  0  0  0  0
   -9.4557    4.4851  -17.6241 C   0  0  0  0  0  0  0  0  0  0  0  0
   -8.9474    4.2814  -16.4354 N   0  0  0  0  0  0  0  0  0  0  0  0
   -7.5866    4.4659  -16.5777 C   0  0  0  0  0  0  0  0  0  0  0  0
   -6.7339    4.2847  -15.4401 C   0  0  0  0  0  0  0  0  0  0  0  0
   -6.0460    4.1223  -14.5166 N   0  0  0  0  0  0  0  0  0  0  0  0
  2  1  1  1
  2  3  1  0
  2  4  1  0
  4  5  1  0
  5  6  2  0
  5  7  1  0
  7  8  1  0
  8  9  1  0
  9 10  1  0
 10 11  2  0
 11 12  1  0
 12 13  1  0
 13 14  3  0
 12  8  2  0
M  END
>  <energy_score>  (3361) 
-21.67626

>  <alias>  (3361) 
WNTNEMHOJDFTEE-UHFFFAOYSA-N-P35-P35-P86-601526

>  <HIPPO Pose ID>  (3361) 
77523

>  <smiles>  (3361) 
CC(Cl)CC(=O)Nc1[nH]cnc1C#N

>  <inchikey>  (3361) 
WNTNEMHOJDFTEE-UHFFFAOYSA-N

>  <distance_score>  (3361) 
1.922887

>  <ref_mols>  (3361) 
Z0719a,Z1597a

>  <ref_pdb>  (3361) 
Z3093a

>  <HIPPO Compound ID>  (3361) 
149547

>  <name>  (3361) 
WNTNEMHOJDFTEE-UHFFFAOYSA-N-P35-P35-P86-601526

>  <inspiration_score>  (3361) 
None

$$$$
JFAWPCSCNONKJH-UHFFFAOYSA-N-P86-P35-P86-601526
     RDKit          3D

 14 14  0  0  0  0  0  0  0  0999 V2000
   -8.4083    4.4111  -14.6257 C   0  0  0  0  0  0  0  0  0  0  0  0
   -8.2661    4.3575  -16.1016 C   0  0  0  0  0  0  0  0  0  0  0  0
   -9.1450    3.8901  -16.9638 N   0  0  0  0  0  0  0  0  0  0  0  0
   -8.6111    4.1435  -18.1957 C   0  0  0  0  0  0  0  0  0  0  0  0
   -7.3788    4.7572  -18.0987 C   0  0  0  0  0  0  0  0  0  0  0  0
   -6.6061    5.1795  -19.1461 N   0  0  0  0  0  0  0  0  0  0  0  0
   -5.2242    5.8981  -19.1581 C   0  0  0  0  0  0  0  0  0  0  0  0
   -4.5744    6.3061  -18.2750 O   0  0  0  0  0  0  0  0  0  0  0  0
   -4.7543    5.9023  -20.6092 C   0  0  0  0  0  0  0  0  0  0  0  0
   -3.7361    7.0029  -20.8748 C   0  0  1  0  0  0  0  0  0  0  0  0
   -3.0089    6.7801  -22.1957 C   0  0  0  0  0  0  0  0  0  0  0  0
   -4.5689    8.5963  -20.9417 Cl  0  0  0  0  0  0  0  0  0  0  0  0
   -7.1445    4.8291  -16.7505 N   0  0  0  0  0  0  0  0  0  0  0  0
   -5.9682    5.2814  -16.0686 C   0  0  0  0  0  0  0  0  0  0  0  0
  1  2  1  0
  2  3  2  0
  3  4  1  0
  4  5  2  0
  5  6  1  0
  6  7  1  0
  7  8  2  0
  7  9  1  0
  9 10  1  0
 10 11  1  6
 10 12  1  0
  5 13  1  0
 13 14  1  0
 13  2  1  0
M  END
>  <energy_score>  (3362) 
-7.601408

>  <alias>  (3362) 
JFAWPCSCNONKJH-UHFFFAOYSA-N-P86-P35-P86-601526

>  <HIPPO Pose ID>  (3362) 
77528

>  <smiles>  (3362) 
Cc1ncc(NC(=O)CC(C)Cl)n1C

>  <inchikey>  (3362) 
JFAWPCSCNONKJH-UHFFFAOYSA-N

>  <distance_score>  (3362) 
1.12587

>  <ref_mols>  (3362) 
Z0719a,Z1597a

>  <ref_pdb>  (3362) 
Z3093a

>  <HIPPO Compound ID>  (3362) 
149549

>  <name>  (3362) 
JFAWPCSCNONKJH-UHFFFAOYSA-N-P86-P35-P86-601526

>  <inspiration_score>  (3362) 
None

$$$$
DWTKQUPXMDAWES-UHFFFAOYSA-N-P86-P35-P86-601526
     RDKit          3D

 14 14  0  0  0  0  0  0  0  0999 V2000
   -4.5605    8.0814  -20.2991 C   0  0  0  0  0  0  0  0  0  0  0  0
   -4.5918    7.0140  -21.1154 C   0  0  0  0  0  0  0  0  0  0  0  0
   -4.5974    7.1861  -22.6105 C   0  0  0  0  0  0  0  0  0  0  0  0
   -4.6138    5.5758  -20.6527 C   0  0  0  0  0  0  0  0  0  0  0  0
   -5.0009    5.3503  -19.1827 C   0  0  0  0  0  0  0  0  0  0  0  0
   -4.2135    5.3491  -18.3154 O   0  0  0  0  0  0  0  0  0  0  0  0
   -6.5429    5.1114  -19.1489 N   0  0  0  0  0  0  0  0  0  0  0  0
   -7.3625    4.7502  -18.1159 C   0  0  0  0  0  0  0  0  0  0  0  0
   -8.6342    4.2276  -18.2136 C   0  0  0  0  0  0  0  0  0  0  0  0
   -9.1657    3.9754  -16.9796 N   0  0  0  0  0  0  0  0  0  0  0  0
   -8.2580    4.3848  -16.1167 C   0  0  0  0  0  0  0  0  0  0  0  0
   -8.3917    4.4216  -14.6398 C   0  0  0  0  0  0  0  0  0  0  0  0
   -7.1299    4.8363  -16.7678 N   0  0  0  0  0  0  0  0  0  0  0  0
   -5.9965    5.4121  -16.1056 C   0  0  0  0  0  0  0  0  0  0  0  0
  1  2  2  0
  2  3  1  0
  2  4  1  0
  4  5  1  0
  5  6  2  0
  5  7  1  0
  7  8  1  0
  8  9  2  0
  9 10  1  0
 10 11  2  0
 11 12  1  0
 11 13  1  0
 13 14  1  0
 13  8  1  0
M  END
>  <energy_score>  (3363) 
-16.088002

>  <alias>  (3363) 
DWTKQUPXMDAWES-UHFFFAOYSA-N-P86-P35-P86-601526

>  <HIPPO Pose ID>  (3363) 
77536

>  <smiles>  (3363) 
C=C(C)CC(=O)Nc1cnc(C)n1C

>  <inchikey>  (3363) 
DWTKQUPXMDAWES-UHFFFAOYSA-N

>  <distance_score>  (3363) 
1.112599

>  <ref_mols>  (3363) 
Z0719a,Z1597a

>  <ref_pdb>  (3363) 
Z3093a

>  <HIPPO Compound ID>  (3363) 
149553

>  <name>  (3363) 
DWTKQUPXMDAWES-UHFFFAOYSA-N-P86-P35-P86-601526

>  <inspiration_score>  (3363) 
None

$$$$
BRWMBWPTJFUZGK-UHFFFAOYSA-N-P35-P35-P86-601526
     RDKit          3D

 14 14  0  0  0  0  0  0  0  0999 V2000
   -3.8968    7.3986  -22.1973 C   0  0  0  0  0  0  0  0  0  0  0  0
   -4.0822    7.4683  -20.8680 C   0  0  0  0  0  0  0  0  0  0  0  0
   -3.1000    8.1956  -19.9895 C   0  0  0  0  0  0  0  0  0  0  0  0
   -5.3340    6.9310  -20.2004 C   0  0  0  0  0  0  0  0  0  0  0  0
   -5.0936    5.9493  -19.0318 C   0  0  0  0  0  0  0  0  0  0  0  0
   -4.0383    5.5652  -18.6975 O   0  0  0  0  0  0  0  0  0  0  0  0
   -6.5021    5.7145  -18.4003 N   0  0  0  0  0  0  0  0  0  0  0  0
   -6.8582    5.0833  -17.2569 C   0  0  0  0  0  0  0  0  0  0  0  0
   -6.0490    4.4800  -16.3306 C   0  0  0  0  0  0  0  0  0  0  0  0
   -6.8868    4.0526  -15.3368 N   0  0  0  0  0  0  0  0  0  0  0  0
   -6.5688    3.3572  -14.0990 C   0  0  0  0  0  0  0  0  0  0  0  0
   -5.1050    3.3336  -13.6703 C   0  0  0  0  0  0  0  0  0  0  0  0
   -8.1571    4.4040  -15.7195 C   0  0  0  0  0  0  0  0  0  0  0  0
   -8.1574    5.0558  -16.8610 N   0  0  0  0  0  0  0  0  0  0  0  0
  1  2  2  0
  2  3  1  0
  2  4  1  0
  4  5  1  0
  5  6  2  0
  5  7  1  0
  7  8  1  0
  8  9  2  0
  9 10  1  0
 10 11  1  0
 11 12  1  0
 10 13  1  0
 13 14  2  0
 14  8  1  0
M  END
>  <energy_score>  (3364) 
-35.971424

>  <alias>  (3364) 
BRWMBWPTJFUZGK-UHFFFAOYSA-N-P35-P35-P86-601526

>  <HIPPO Pose ID>  (3364) 
77537

>  <smiles>  (3364) 
C=C(C)CC(=O)Nc1cn(CC)cn1

>  <inchikey>  (3364) 
BRWMBWPTJFUZGK-UHFFFAOYSA-N

>  <distance_score>  (3364) 
1.5037

>  <ref_mols>  (3364) 
Z0719a,Z1597a

>  <ref_pdb>  (3364) 
Z3093a

>  <HIPPO Compound ID>  (3364) 
149554

>  <name>  (3364) 
BRWMBWPTJFUZGK-UHFFFAOYSA-N-P35-P35-P86-601526

>  <inspiration_score>  (3364) 
None

$$$$
SAHJPMLRWLISCJ-UHFFFAOYSA-N-P86-P35-P86-601526
     RDKit          3D

 14 14  0  0  0  0  0  0  0  0999 V2000
   -8.4393    4.4422  -14.7047 C   0  0  0  0  0  0  0  0  0  0  0  0
   -8.2706    4.3976  -16.1780 C   0  0  0  0  0  0  0  0  0  0  0  0
   -9.1684    4.0130  -17.0607 N   0  0  0  0  0  0  0  0  0  0  0  0
   -8.5885    4.2143  -18.2815 C   0  0  0  0  0  0  0  0  0  0  0  0
   -7.2995    4.6913  -18.1573 C   0  0  0  0  0  0  0  0  0  0  0  0
   -6.4326    4.9520  -19.1859 N   0  0  0  0  0  0  0  0  0  0  0  0
   -4.9439    5.4174  -19.1624 C   0  0  0  0  0  0  0  0  0  0  0  0
   -4.2109    5.5737  -18.2608 O   0  0  0  0  0  0  0  0  0  0  0  0
   -4.4698    5.5894  -20.6128 C   0  0  2  0  0  0  0  0  0  0  0  0
   -3.0837    5.2360  -20.7054 O   0  0  0  0  0  0  0  0  0  0  0  0
   -4.6609    7.0401  -21.0115 C   0  0  0  0  0  0  0  0  0  0  0  0
   -4.7939    7.1339  -22.3648 F   0  0  0  0  0  0  0  0  0  0  0  0
   -7.1111    4.8063  -16.8025 N   0  0  0  0  0  0  0  0  0  0  0  0
   -5.9753    5.3292  -16.1020 C   0  0  0  0  0  0  0  0  0  0  0  0
  1  2  1  0
  2  3  2  0
  3  4  1  0
  4  5  2  0
  5  6  1  0
  6  7  1  0
  7  8  2  0
  7  9  1  0
  9 10  1  1
  9 11  1  0
 11 12  1  0
  5 13  1  0
 13 14  1  0
 13  2  1  0
M  END
>  <energy_score>  (3365) 
-20.591399

>  <alias>  (3365) 
SAHJPMLRWLISCJ-UHFFFAOYSA-N-P86-P35-P86-601526

>  <HIPPO Pose ID>  (3365) 
77544

>  <smiles>  (3365) 
Cc1ncc(NC(=O)C(O)CF)n1C

>  <inchikey>  (3365) 
SAHJPMLRWLISCJ-UHFFFAOYSA-N

>  <distance_score>  (3365) 
1.162208

>  <ref_mols>  (3365) 
Z0719a,Z1597a

>  <ref_pdb>  (3365) 
Z3093a

>  <HIPPO Compound ID>  (3365) 
149557

>  <name>  (3365) 
SAHJPMLRWLISCJ-UHFFFAOYSA-N-P86-P35-P86-601526

>  <inspiration_score>  (3365) 
None

$$$$
UJYUZUZVNXQIFX-UHFFFAOYSA-N-P35-P35-P86-601526
     RDKit          3D

 14 14  0  0  0  0  0  0  0  0999 V2000
   -4.1754    6.5405  -19.9230 C   0  0  0  0  0  0  0  0  0  0  0  0
   -3.8407    5.1650  -19.3382 C   0  0  1  0  0  0  0  0  0  0  0  0
   -2.4189    5.0366  -19.2152 O   0  0  0  0  0  0  0  0  0  0  0  0
   -1.8167    4.7993  -20.5411 N   0  0  0  0  0  0  0  0  0  0  0  0
   -4.5585    4.9347  -17.9698 C   0  0  0  0  0  0  0  0  0  0  0  0
   -4.0074    4.8696  -16.9399 O   0  0  0  0  0  0  0  0  0  0  0  0
   -6.0721    4.7718  -18.3191 N   0  0  0  0  0  0  0  0  0  0  0  0
   -7.1583    4.6006  -17.5041 C   0  0  0  0  0  0  0  0  0  0  0  0
   -8.3974    4.7736  -18.0778 N   0  0  0  0  0  0  0  0  0  0  0  0
   -9.3485    4.5314  -17.1372 C   0  0  0  0  0  0  0  0  0  0  0  0
   -8.8071    4.2213  -15.9889 N   0  0  0  0  0  0  0  0  0  0  0  0
   -7.4340    4.2373  -16.1901 C   0  0  0  0  0  0  0  0  0  0  0  0
   -6.6022    3.7756  -15.1014 C   0  0  0  0  0  0  0  0  0  0  0  0
   -6.0224    3.3333  -14.1932 N   0  0  0  0  0  0  0  0  0  0  0  0
  2  1  1  1
  2  3  1  0
  3  4  1  0
  2  5  1  0
  5  6  2  0
  5  7  1  0
  7  8  1  0
  8  9  1  0
  9 10  1  0
 10 11  2  0
 11 12  1  0
 12 13  1  0
 13 14  3  0
 12  8  2  0
M  END
>  <energy_score>  (3366) 
-33.532043

>  <alias>  (3366) 
UJYUZUZVNXQIFX-UHFFFAOYSA-N-P35-P35-P86-601526

>  <HIPPO Pose ID>  (3366) 
77547

>  <smiles>  (3366) 
CC(ON)C(=O)Nc1[nH]cnc1C#N

>  <inchikey>  (3366) 
UJYUZUZVNXQIFX-UHFFFAOYSA-N

>  <distance_score>  (3366) 
1.777244

>  <ref_mols>  (3366) 
Z0719a,Z1597a

>  <ref_pdb>  (3366) 
Z3093a

>  <HIPPO Compound ID>  (3366) 
149559

>  <name>  (3366) 
UJYUZUZVNXQIFX-UHFFFAOYSA-N-P35-P35-P86-601526

>  <inspiration_score>  (3366) 
None

$$$$
XVZUQIQZOXTIDK-UHFFFAOYSA-N-P35-P35-P86-601526
     RDKit          3D

 14 14  0  0  0  0  0  0  0  0999 V2000
   -5.4660    3.0271  -13.2662 C   0  0  0  0  0  0  0  0  0  0  0  0
   -6.8368    3.3443  -13.8645 C   0  0  0  0  0  0  0  0  0  0  0  0
   -6.8502    4.0294  -15.1460 N   0  0  0  0  0  0  0  0  0  0  0  0
   -7.9607    4.2695  -15.9174 C   0  0  0  0  0  0  0  0  0  0  0  0
   -7.6356    4.7885  -17.0860 N   0  0  0  0  0  0  0  0  0  0  0  0
   -6.2819    4.8944  -17.0555 C   0  0  0  0  0  0  0  0  0  0  0  0
   -5.5438    5.2674  -18.1247 N   0  0  0  0  0  0  0  0  0  0  0  0
   -4.0190    5.5859  -18.2426 C   0  0  0  0  0  0  0  0  0  0  0  0
   -3.1901    5.6479  -17.4158 O   0  0  0  0  0  0  0  0  0  0  0  0
   -3.6853    5.7226  -19.7457 C   0  0  1  0  0  0  0  0  0  0  0  0
   -4.3634    6.9146  -20.4055 C   0  0  0  0  0  0  0  0  0  0  0  0
   -2.2583    5.8895  -19.8643 O   0  0  0  0  0  0  0  0  0  0  0  0
   -1.7764    5.3692  -21.1509 N   0  0  0  0  0  0  0  0  0  0  0  0
   -5.7823    4.5089  -15.8431 C   0  0  0  0  0  0  0  0  0  0  0  0
  1  2  1  0
  2  3  1  0
  3  4  1  0
  4  5  2  0
  5  6  1  0
  6  7  1  0
  7  8  1  0
  8  9  2  0
  8 10  1  0
 10 11  1  1
 10 12  1  0
 12 13  1  0
  6 14  2  0
 14  3  1  0
M  END
>  <energy_score>  (3367) 
-44.737278

>  <alias>  (3367) 
XVZUQIQZOXTIDK-UHFFFAOYSA-N-P35-P35-P86-601526

>  <HIPPO Pose ID>  (3367) 
77549

>  <smiles>  (3367) 
CCn1cnc(NC(=O)C(C)ON)c1

>  <inchikey>  (3367) 
XVZUQIQZOXTIDK-UHFFFAOYSA-N

>  <distance_score>  (3367) 
1.857459

>  <ref_mols>  (3367) 
Z0719a,Z1597a

>  <ref_pdb>  (3367) 
Z3093a

>  <HIPPO Compound ID>  (3367) 
149560

>  <name>  (3367) 
XVZUQIQZOXTIDK-UHFFFAOYSA-N-P35-P35-P86-601526

>  <inspiration_score>  (3367) 
None

$$$$
AJUNUFMOFBROOI-UHFFFAOYSA-N-P35-P35-P86-601526
     RDKit          3D

 14 14  0  0  0  0  0  0  0  0999 V2000
   -4.3979    7.6287  -20.7531 C   0  0  0  0  0  0  0  0  0  0  0  0
   -4.1128    6.6533  -20.1126 C   0  0  0  0  0  0  0  0  0  0  0  0
   -3.7553    5.4437  -19.3374 C   0  0  1  0  0  0  0  0  0  0  0  0
   -2.2698    5.4835  -18.9776 C   0  0  0  0  0  0  0  0  0  0  0  0
   -4.6252    5.2401  -18.0771 C   0  0  0  0  0  0  0  0  0  0  0  0
   -4.1647    5.0842  -17.0135 O   0  0  0  0  0  0  0  0  0  0  0  0
   -6.1088    5.1879  -18.5524 N   0  0  0  0  0  0  0  0  0  0  0  0
   -7.2479    4.8584  -17.8710 C   0  0  0  0  0  0  0  0  0  0  0  0
   -8.4547    4.8721  -18.5242 N   0  0  0  0  0  0  0  0  0  0  0  0
   -9.4219    4.4745  -17.6479 C   0  0  0  0  0  0  0  0  0  0  0  0
   -8.9166    4.2037  -16.4717 N   0  0  0  0  0  0  0  0  0  0  0  0
   -7.5638    4.4662  -16.5805 C   0  0  0  0  0  0  0  0  0  0  0  0
   -6.7235    4.2744  -15.4355 C   0  0  0  0  0  0  0  0  0  0  0  0
   -6.0521    4.1050  -14.5012 N   0  0  0  0  0  0  0  0  0  0  0  0
  1  2  3  0
  2  3  1  0
  3  4  1  1
  3  5  1  0
  5  6  2  0
  5  7  1  0
  7  8  1  0
  8  9  1  0
  9 10  1  0
 10 11  2  0
 11 12  1  0
 12 13  1  0
 13 14  3  0
 12  8  2  0
M  END
>  <energy_score>  (3368) 
-17.720726

>  <alias>  (3368) 
AJUNUFMOFBROOI-UHFFFAOYSA-N-P35-P35-P86-601526

>  <HIPPO Pose ID>  (3368) 
77551

>  <smiles>  (3368) 
C#CC(C)C(=O)Nc1[nH]cnc1C#N

>  <inchikey>  (3368) 
AJUNUFMOFBROOI-UHFFFAOYSA-N

>  <distance_score>  (3368) 
1.909064

>  <ref_mols>  (3368) 
Z0719a,Z1597a

>  <ref_pdb>  (3368) 
Z3093a

>  <HIPPO Compound ID>  (3368) 
149561

>  <name>  (3368) 
AJUNUFMOFBROOI-UHFFFAOYSA-N-P35-P35-P86-601526

>  <inspiration_score>  (3368) 
None

$$$$
ZUQYRUOFMNOBAH-UHFFFAOYSA-N-P35-P35-P86-601526
     RDKit          3D

 14 14  0  0  0  0  0  0  0  0999 V2000
   -2.5509    6.9347  -21.1362 C   0  0  0  0  0  0  0  0  0  0  0  0
   -3.7047    6.9594  -20.8011 C   0  0  0  0  0  0  0  0  0  0  0  0
   -5.1111    7.0872  -20.3567 C   0  0  2  0  0  0  0  0  0  0  0  0
   -5.4507    8.5670  -20.1765 C   0  0  0  0  0  0  0  0  0  0  0  0
   -5.3441    6.3909  -19.0005 C   0  0  0  0  0  0  0  0  0  0  0  0
   -4.6068    6.5337  -18.0988 O   0  0  0  0  0  0  0  0  0  0  0  0
   -6.7090    5.6295  -19.0831 N   0  0  0  0  0  0  0  0  0  0  0  0
   -7.4417    5.0095  -18.1059 C   0  0  0  0  0  0  0  0  0  0  0  0
   -8.7114    4.4798  -18.2242 C   0  0  0  0  0  0  0  0  0  0  0  0
   -9.2010    4.0771  -17.0097 N   0  0  0  0  0  0  0  0  0  0  0  0
   -8.2570    4.3775  -16.1424 C   0  0  0  0  0  0  0  0  0  0  0  0
   -8.3349    4.2917  -14.6634 C   0  0  0  0  0  0  0  0  0  0  0  0
   -7.1214    4.8067  -16.7909 N   0  0  0  0  0  0  0  0  0  0  0  0
   -5.8537    4.9547  -16.1404 C   0  0  0  0  0  0  0  0  0  0  0  0
  1  2  3  0
  2  3  1  0
  3  4  1  1
  3  5  1  0
  5  6  2  0
  5  7  1  0
  7  8  1  0
  8  9  2  0
  9 10  1  0
 10 11  2  0
 11 12  1  0
 11 13  1  0
 13 14  1  0
 13  8  1  0
M  END
>  <energy_score>  (3369) 
-23.994364

>  <alias>  (3369) 
ZUQYRUOFMNOBAH-UHFFFAOYSA-N-P35-P35-P86-601526

>  <HIPPO Pose ID>  (3369) 
77555

>  <smiles>  (3369) 
C#CC(C)C(=O)Nc1cnc(C)n1C

>  <inchikey>  (3369) 
ZUQYRUOFMNOBAH-UHFFFAOYSA-N

>  <distance_score>  (3369) 
1.36056

>  <ref_mols>  (3369) 
Z0719a,Z1597a

>  <ref_pdb>  (3369) 
Z3093a

>  <HIPPO Compound ID>  (3369) 
149563

>  <name>  (3369) 
ZUQYRUOFMNOBAH-UHFFFAOYSA-N-P35-P35-P86-601526

>  <inspiration_score>  (3369) 
None

$$$$
LPKLAPWOUJRDON-UHFFFAOYSA-N-P35-P35-P86-601526
     RDKit          3D

 14 14  0  0  0  0  0  0  0  0999 V2000
   -4.1943    8.6373  -19.0848 C   0  0  0  0  0  0  0  0  0  0  0  0
   -4.5260    7.8655  -20.1326 C   0  0  0  0  0  0  0  0  0  0  0  0
   -4.6331    8.7540  -22.0316 I   0  0  0  0  0  0  0  0  0  0  0  0
   -4.8579    6.4027  -20.0865 C   0  0  0  0  0  0  0  0  0  0  0  0
   -4.7846    5.7331  -18.7141 C   0  0  0  0  0  0  0  0  0  0  0  0
   -3.7627    5.4341  -18.2250 O   0  0  0  0  0  0  0  0  0  0  0  0
   -6.2377    5.6139  -18.1679 N   0  0  0  0  0  0  0  0  0  0  0  0
   -6.7040    5.0547  -17.0289 C   0  0  0  0  0  0  0  0  0  0  0  0
   -5.9725    4.4515  -16.0426 C   0  0  0  0  0  0  0  0  0  0  0  0
   -6.8879    3.9996  -15.1353 N   0  0  0  0  0  0  0  0  0  0  0  0
   -6.6589    3.2445  -13.9131 C   0  0  0  0  0  0  0  0  0  0  0  0
   -5.2160    3.1441  -13.4256 C   0  0  0  0  0  0  0  0  0  0  0  0
   -8.1214    4.3765  -15.6057 C   0  0  0  0  0  0  0  0  0  0  0  0
   -8.0300    5.0358  -16.7414 N   0  0  0  0  0  0  0  0  0  0  0  0
  1  2  2  0
  2  3  1  0
  2  4  1  0
  4  5  1  0
  5  6  2  0
  5  7  1  0
  7  8  1  0
  8  9  2  0
  9 10  1  0
 10 11  1  0
 11 12  1  0
 10 13  1  0
 13 14  2  0
 14  8  1  0
M  END
>  <energy_score>  (3370) 
-3.407152

>  <alias>  (3370) 
LPKLAPWOUJRDON-UHFFFAOYSA-N-P35-P35-P86-601526

>  <HIPPO Pose ID>  (3370) 
77569

>  <smiles>  (3370) 
C=C(I)CC(=O)Nc1cn(CC)cn1

>  <inchikey>  (3370) 
LPKLAPWOUJRDON-UHFFFAOYSA-N

>  <distance_score>  (3370) 
1.810387

>  <ref_mols>  (3370) 
Z0719a,Z1597a

>  <ref_pdb>  (3370) 
Z3093a

>  <HIPPO Compound ID>  (3370) 
149570

>  <name>  (3370) 
LPKLAPWOUJRDON-UHFFFAOYSA-N-P35-P35-P86-601526

>  <inspiration_score>  (3370) 
None

$$$$
KNVNSOSQVNZGHE-UHFFFAOYSA-N-P86-P35-P86-601526
     RDKit          3D

 14 15  0  0  0  0  0  0  0  0999 V2000
   -4.9264    5.2021  -13.0708 N   0  0  0  0  0  0  0  0  0  0  0  0
   -5.8735    5.0171  -12.4213 C   0  0  0  0  0  0  0  0  0  0  0  0
   -7.0729    4.5974  -11.7560 C   0  0  0  0  0  0  0  0  0  0  0  0
   -7.1541    4.4241  -10.3910 N   0  0  0  0  0  0  0  0  0  0  0  0
   -8.1918    3.6321  -10.2234 C   0  0  0  0  0  0  0  0  0  0  0  0
   -8.7820    3.3073  -11.4182 N   0  0  0  0  0  0  0  0  0  0  0  0
   -8.1288    3.9923  -12.4066 C   0  0  0  0  0  0  0  0  0  0  0  0
   -8.3833    3.8960  -13.7452 N   0  0  0  0  0  0  0  0  0  0  0  0
   -7.9469    4.8151  -14.9276 C   0  0  0  0  0  0  0  0  0  0  0  0
   -7.3680    5.8371  -14.9231 O   0  0  0  0  0  0  0  0  0  0  0  0
   -8.3074    4.1078  -16.2781 C   0  0  2  0  0  0  0  0  0  0  0  0
   -7.4945    4.5476  -17.5179 C   0  0  0  0  0  0  0  0  0  0  0  0
   -8.8203    4.3570  -18.2396 C   0  0  0  0  0  0  0  0  0  0  0  0
   -9.5324    4.4963  -16.9693 O   0  0  0  0  0  0  0  0  0  0  0  0
  1  2  3  0
  2  3  1  0
  3  4  1  0
  4  5  2  0
  5  6  1  0
  6  7  1  0
  7  8  1  0
  8  9  1  0
  9 10  2  0
 11  9  1  1
 11 12  1  0
 12 13  1  0
 13 14  1  0
  7  3  2  0
 14 11  1  0
M  END
>  <energy_score>  (3371) 
-7.907466

>  <alias>  (3371) 
KNVNSOSQVNZGHE-UHFFFAOYSA-N-P86-P35-P86-601526

>  <HIPPO Pose ID>  (3371) 
77576

>  <smiles>  (3371) 
N#Cc1nc[nH]c1NC(=O)C1CCO1

>  <inchikey>  (3371) 
KNVNSOSQVNZGHE-UHFFFAOYSA-N

>  <distance_score>  (3371) 
1.248053

>  <ref_mols>  (3371) 
Z0719a,Z1597a

>  <ref_pdb>  (3371) 
Z3093a

>  <HIPPO Compound ID>  (3371) 
149573

>  <name>  (3371) 
KNVNSOSQVNZGHE-UHFFFAOYSA-N-P86-P35-P86-601526

>  <inspiration_score>  (3371) 
None

$$$$
JVGAYQYFRUXWHX-UHFFFAOYSA-N-P35-P35-P86-601526
     RDKit          3D

 14 15  0  0  0  0  0  0  0  0999 V2000
   -5.1473    2.1376  -11.6609 C   0  0  0  0  0  0  0  0  0  0  0  0
   -5.7232    2.7829  -10.3896 C   0  0  0  0  0  0  0  0  0  0  0  0
   -6.9642    3.4785  -10.6935 N   0  0  0  0  0  0  0  0  0  0  0  0
   -8.1986    2.8978  -10.6094 C   0  0  0  0  0  0  0  0  0  0  0  0
   -8.9154    3.2038  -11.6684 N   0  0  0  0  0  0  0  0  0  0  0  0
   -8.1411    4.0701  -12.3703 C   0  0  0  0  0  0  0  0  0  0  0  0
   -8.3785    4.3591  -13.6660 N   0  0  0  0  0  0  0  0  0  0  0  0
   -7.6535    5.3262  -14.6276 C   0  0  0  0  0  0  0  0  0  0  0  0
   -6.7823    6.0848  -14.4285 O   0  0  0  0  0  0  0  0  0  0  0  0
   -8.3405    5.2555  -16.0101 C   0  0  1  0  0  0  0  0  0  0  0  0
   -7.4468    5.3899  -17.2566 C   0  0  0  0  0  0  0  0  0  0  0  0
   -8.4258    4.3875  -17.8537 C   0  0  0  0  0  0  0  0  0  0  0  0
   -8.7983    3.9468  -16.5026 O   0  0  0  0  0  0  0  0  0  0  0  0
   -7.0438    4.4630  -11.6484 C   0  0  0  0  0  0  0  0  0  0  0  0
  1  2  1  0
  2  3  1  0
  3  4  1  0
  4  5  2  0
  5  6  1  0
  6  7  1  0
  7  8  1  0
  8  9  2  0
 10  8  1  1
 10 11  1  0
 11 12  1  0
 12 13  1  0
  6 14  2  0
 14  3  1  0
 13 10  1  0
M  END
>  <energy_score>  (3372) 
-34.154868

>  <alias>  (3372) 
JVGAYQYFRUXWHX-UHFFFAOYSA-N-P35-P35-P86-601526

>  <HIPPO Pose ID>  (3372) 
77579

>  <smiles>  (3372) 
CCn1cnc(NC(=O)C2CCO2)c1

>  <inchikey>  (3372) 
JVGAYQYFRUXWHX-UHFFFAOYSA-N

>  <distance_score>  (3372) 
1.58254

>  <ref_mols>  (3372) 
Z0719a,Z1597a

>  <ref_pdb>  (3372) 
Z3093a

>  <HIPPO Compound ID>  (3372) 
149575

>  <name>  (3372) 
JVGAYQYFRUXWHX-UHFFFAOYSA-N-P35-P35-P86-601526

>  <inspiration_score>  (3372) 
None

$$$$
QWWOKOOBZXGAEB-UHFFFAOYSA-N-P86-P35-P86-601526
     RDKit          3D

 14 15  0  0  0  0  0  0  0  0999 V2000
   -7.3279    3.5451   -9.3813 C   0  0  0  0  0  0  0  0  0  0  0  0
   -7.5718    4.3959  -10.5703 C   0  0  0  0  0  0  0  0  0  0  0  0
   -8.2931    5.4989  -10.5686 N   0  0  0  0  0  0  0  0  0  0  0  0
   -8.4245    5.8438  -11.8823 C   0  0  0  0  0  0  0  0  0  0  0  0
   -7.6844    5.0203  -12.6982 C   0  0  0  0  0  0  0  0  0  0  0  0
   -7.6173    5.0045  -14.0622 N   0  0  0  0  0  0  0  0  0  0  0  0
   -6.4042    4.8630  -15.0040 C   0  0  0  0  0  0  0  0  0  0  0  0
   -5.2805    4.6608  -14.7645 O   0  0  0  0  0  0  0  0  0  0  0  0
   -6.9233    4.9300  -16.4002 C   0  0  0  0  0  0  0  0  0  0  0  0
   -8.0464    4.4151  -16.9383 C   0  0  0  0  0  0  0  0  0  0  0  0
   -7.6067    4.7248  -18.3513 C   0  0  0  0  0  0  0  0  0  0  0  0
   -6.3209    5.3002  -17.7224 C   0  0  0  0  0  0  0  0  0  0  0  0
   -7.0865    4.1254  -11.8407 N   0  0  0  0  0  0  0  0  0  0  0  0
   -6.2807    2.9730  -12.1775 C   0  0  0  0  0  0  0  0  0  0  0  0
  1  2  1  0
  2  3  2  0
  3  4  1  0
  4  5  2  0
  5  6  1  0
  6  7  1  0
  7  8  2  0
  7  9  1  0
  9 10  2  0
 10 11  1  0
 11 12  1  0
  5 13  1  0
 13 14  1  0
 13  2  1  0
 12  9  1  0
M  END
>  <energy_score>  (3373) 
-16.223981

>  <alias>  (3373) 
QWWOKOOBZXGAEB-UHFFFAOYSA-N-P86-P35-P86-601526

>  <HIPPO Pose ID>  (3373) 
77584

>  <smiles>  (3373) 
Cc1ncc(NC(=O)C2=CCC2)n1C

>  <inchikey>  (3373) 
QWWOKOOBZXGAEB-UHFFFAOYSA-N

>  <distance_score>  (3373) 
1.491002

>  <ref_mols>  (3373) 
Z0719a,Z1597a

>  <ref_pdb>  (3373) 
Z3093a

>  <HIPPO Compound ID>  (3373) 
149577

>  <name>  (3373) 
QWWOKOOBZXGAEB-UHFFFAOYSA-N-P86-P35-P86-601526

>  <inspiration_score>  (3373) 
None

$$$$
JDRDKBXHHHVLSU-UHFFFAOYSA-N-P86-P35-P86-601526
     RDKit          3D

 14 15  0  0  0  0  0  0  0  0999 V2000
   -5.2976    2.1528  -11.6092 C   0  0  0  0  0  0  0  0  0  0  0  0
   -5.9286    2.9549  -10.4625 C   0  0  0  0  0  0  0  0  0  0  0  0
   -7.0876    3.6900  -10.9421 N   0  0  0  0  0  0  0  0  0  0  0  0
   -8.3535    3.1761  -10.9704 C   0  0  0  0  0  0  0  0  0  0  0  0
   -8.9489    3.5078  -12.0957 N   0  0  0  0  0  0  0  0  0  0  0  0
   -8.0509    4.2861  -12.7559 C   0  0  0  0  0  0  0  0  0  0  0  0
   -8.1205    4.4546  -14.0964 N   0  0  0  0  0  0  0  0  0  0  0  0
   -7.1362    5.1260  -15.0733 C   0  0  0  0  0  0  0  0  0  0  0  0
   -6.1461    5.7084  -14.8683 O   0  0  0  0  0  0  0  0  0  0  0  0
   -7.5657    4.8445  -16.4749 C   0  0  0  0  0  0  0  0  0  0  0  0
   -8.6103    4.1993  -17.0243 C   0  0  0  0  0  0  0  0  0  0  0  0
   -8.1143    4.4245  -18.4353 C   0  0  0  0  0  0  0  0  0  0  0  0
   -6.9130    5.1473  -17.7975 C   0  0  0  0  0  0  0  0  0  0  0  0
   -7.0038    4.6338  -11.9414 C   0  0  0  0  0  0  0  0  0  0  0  0
  1  2  1  0
  2  3  1  0
  3  4  1  0
  4  5  2  0
  5  6  1  0
  6  7  1  0
  7  8  1  0
  8  9  2  0
  8 10  1  0
 10 11  2  0
 11 12  1  0
 12 13  1  0
  6 14  2  0
 14  3  1  0
 13 10  1  0
M  END
>  <energy_score>  (3374) 
-20.531328

>  <alias>  (3374) 
JDRDKBXHHHVLSU-UHFFFAOYSA-N-P86-P35-P86-601526

>  <HIPPO Pose ID>  (3374) 
77586

>  <smiles>  (3374) 
CCn1cnc(NC(=O)C2=CCC2)c1

>  <inchikey>  (3374) 
JDRDKBXHHHVLSU-UHFFFAOYSA-N

>  <distance_score>  (3374) 
1.810311

>  <ref_mols>  (3374) 
Z0719a,Z1597a

>  <ref_pdb>  (3374) 
Z3093a

>  <HIPPO Compound ID>  (3374) 
149578

>  <name>  (3374) 
JDRDKBXHHHVLSU-UHFFFAOYSA-N-P86-P35-P86-601526

>  <inspiration_score>  (3374) 
None

$$$$
FIERXBCZEWIDJH-UHFFFAOYSA-N-P35-P35-P86-601526
     RDKit          3D

 14 14  0  0  0  0  0  0  0  0999 V2000
   -8.8066    4.1359  -19.1048 C   0  0  0  0  0  0  0  0  0  0  0  0
   -8.3229    4.4113  -17.7581 C   0  0  0  0  0  0  0  0  0  0  0  0
   -9.1768    4.1981  -16.7122 N   0  0  0  0  0  0  0  0  0  0  0  0
   -8.4726    4.4822  -15.6502 C   0  0  0  0  0  0  0  0  0  0  0  0
   -7.2072    4.8932  -15.9754 N   0  0  0  0  0  0  0  0  0  0  0  0
   -6.2191    5.1671  -14.9797 C   0  0  0  0  0  0  0  0  0  0  0  0
   -7.0770    4.8372  -17.3376 C   0  0  0  0  0  0  0  0  0  0  0  0
   -5.9774    5.0771  -18.1240 N   0  0  0  0  0  0  0  0  0  0  0  0
   -4.6082    5.7413  -17.7762 C   0  0  0  0  0  0  0  0  0  0  0  0
   -4.1841    6.1130  -16.7490 O   0  0  0  0  0  0  0  0  0  0  0  0
   -3.8009    5.8116  -19.1046 C   0  0  0  0  0  0  0  0  0  0  0  0
   -4.4009    6.8217  -20.0818 C   0  0  0  0  0  0  0  0  0  0  0  0
   -2.3408    6.1584  -18.8234 C   0  0  0  0  0  0  0  0  0  0  0  0
   -3.7959    4.5927  -19.7342 F   0  0  0  0  0  0  0  0  0  0  0  0
  1  2  1  0
  2  3  1  0
  3  4  2  0
  4  5  1  0
  5  6  1  0
  5  7  1  0
  7  8  1  0
  8  9  1  0
  9 10  2  0
  9 11  1  0
 11 12  1  0
 11 13  1  0
 11 14  1  0
  7  2  2  0
M  END
>  <energy_score>  (3375) 
-25.835476

>  <alias>  (3375) 
FIERXBCZEWIDJH-UHFFFAOYSA-N-P35-P35-P86-601526

>  <HIPPO Pose ID>  (3375) 
77589

>  <smiles>  (3375) 
Cc1ncn(C)c1NC(=O)C(C)(C)F

>  <inchikey>  (3375) 
FIERXBCZEWIDJH-UHFFFAOYSA-N

>  <distance_score>  (3375) 
1.335419

>  <ref_mols>  (3375) 
Z0719a,Z1597a

>  <ref_pdb>  (3375) 
Z3093a

>  <HIPPO Compound ID>  (3375) 
149580

>  <name>  (3375) 
FIERXBCZEWIDJH-UHFFFAOYSA-N-P35-P35-P86-601526

>  <inspiration_score>  (3375) 
None

$$$$
HILLINVKQCZDNM-UHFFFAOYSA-N-P35-P35-P86-601526
     RDKit          3D

 14 14  0  0  0  0  0  0  0  0999 V2000
   -3.8278    8.1546  -20.9279 C   0  0  0  0  0  0  0  0  0  0  0  0
   -4.5040    7.0566  -20.5655 C   0  0  0  0  0  0  0  0  0  0  0  0
   -3.9714    6.0008  -19.6447 C   0  0  0  0  0  0  0  0  0  0  0  0
   -4.6523    5.9712  -18.2756 C   0  0  0  0  0  0  0  0  0  0  0  0
   -4.0678    6.2298  -17.2931 O   0  0  0  0  0  0  0  0  0  0  0  0
   -6.1145    5.4601  -18.4783 N   0  0  0  0  0  0  0  0  0  0  0  0
   -7.0648    5.0946  -17.5600 C   0  0  0  0  0  0  0  0  0  0  0  0
   -8.2728    4.4562  -17.7669 C   0  0  0  0  0  0  0  0  0  0  0  0
   -8.9495    4.0950  -19.0146 C   0  0  0  0  0  0  0  0  0  0  0  0
   -8.8317    4.0536  -16.5796 N   0  0  0  0  0  0  0  0  0  0  0  0
   -7.9981    4.4581  -15.6486 C   0  0  0  0  0  0  0  0  0  0  0  0
   -8.0612    4.1225  -14.2070 C   0  0  0  0  0  0  0  0  0  0  0  0
   -7.0131    5.2420  -16.2001 N   0  0  0  0  0  0  0  0  0  0  0  0
   -6.1887    6.1284  -15.4375 C   0  0  0  0  0  0  0  0  0  0  0  0
  1  2  2  0
  2  3  1  0
  3  4  1  0
  4  5  2  0
  4  6  1  0
  6  7  1  0
  7  8  2  0
  8  9  1  0
  8 10  1  0
 10 11  2  0
 11 12  1  0
 11 13  1  0
 13 14  1  0
 13  7  1  0
M  END
>  <energy_score>  (3376) 
-23.799043

>  <alias>  (3376) 
HILLINVKQCZDNM-UHFFFAOYSA-N-P35-P35-P86-601526

>  <HIPPO Pose ID>  (3376) 
77593

>  <smiles>  (3376) 
C=CCC(=O)Nc1c(C)nc(C)n1C

>  <inchikey>  (3376) 
HILLINVKQCZDNM-UHFFFAOYSA-N

>  <distance_score>  (3376) 
1.33673

>  <ref_mols>  (3376) 
Z0719a,Z1597a

>  <ref_pdb>  (3376) 
Z3093a

>  <HIPPO Compound ID>  (3376) 
149582

>  <name>  (3376) 
HILLINVKQCZDNM-UHFFFAOYSA-N-P35-P35-P86-601526

>  <inspiration_score>  (3376) 
None

$$$$
OSEIHQVQTYZMEE-UHFFFAOYSA-N-P86-P35-P86-601526
     RDKit          3D

 14 15  0  0  0  0  0  0  0  0999 V2000
   -3.2638    7.6402  -21.0345 C   0  0  0  0  0  0  0  0  0  0  0  0
   -4.4187    6.9811  -20.8755 C   0  0  0  0  0  0  0  0  0  0  0  0
   -4.5191    5.5227  -20.5513 C   0  0  0  0  0  0  0  0  0  0  0  0
   -5.0513    5.3084  -19.1281 C   0  0  0  0  0  0  0  0  0  0  0  0
   -4.3578    5.3283  -18.1850 O   0  0  0  0  0  0  0  0  0  0  0  0
   -6.5782    5.0210  -19.2528 N   0  0  0  0  0  0  0  0  0  0  0  0
   -7.4823    4.6319  -18.3153 C   0  0  0  0  0  0  0  0  0  0  0  0
   -8.7617    4.1308  -18.4792 C   0  0  0  0  0  0  0  0  0  0  0  0
   -9.3657    3.8486  -17.2684 N   0  0  0  0  0  0  0  0  0  0  0  0
   -8.4730    4.2167  -16.3870 C   0  0  0  0  0  0  0  0  0  0  0  0
   -7.3302    4.6565  -16.9806 N   0  0  0  0  0  0  0  0  0  0  0  0
   -6.3816    5.2068  -16.0473 C   0  0  0  0  0  0  0  0  0  0  0  0
   -7.2075    5.3267  -14.7661 C   0  0  0  0  0  0  0  0  0  0  0  0
   -8.4022    4.3642  -14.9236 C   0  0  0  0  0  0  0  0  0  0  0  0
  1  2  2  0
  2  3  1  0
  3  4  1  0
  4  5  2  0
  4  6  1  0
  6  7  1  0
  7  8  2  0
  8  9  1  0
  9 10  2  0
 10 11  1  0
 11 12  1  0
 12 13  1  0
 13 14  1  0
 11  7  1  0
 14 10  1  0
M  END
>  <energy_score>  (3377) 
-38.319427

>  <alias>  (3377) 
OSEIHQVQTYZMEE-UHFFFAOYSA-N-P86-P35-P86-601526

>  <HIPPO Pose ID>  (3377) 
77596

>  <smiles>  (3377) 
C=CCC(=O)Nc1cnc2n1CCC2

>  <inchikey>  (3377) 
OSEIHQVQTYZMEE-UHFFFAOYSA-N

>  <distance_score>  (3377) 
1.474966

>  <ref_mols>  (3377) 
Z0719a,Z1597a

>  <ref_pdb>  (3377) 
Z3093a

>  <HIPPO Compound ID>  (3377) 
149583

>  <name>  (3377) 
OSEIHQVQTYZMEE-UHFFFAOYSA-N-P86-P35-P86-601526

>  <inspiration_score>  (3377) 
None

$$$$
CLUPCCNXPLYBSD-UHFFFAOYSA-N-P35-P35-P86-601526
     RDKit          3D

 14 14  0  0  0  0  0  0  0  0999 V2000
   -4.9555    8.8534  -21.2124 C   0  0  0  0  0  0  0  0  0  0  0  0
   -5.0315    7.5294  -21.0209 C   0  0  0  0  0  0  0  0  0  0  0  0
   -4.0442    6.7378  -20.2277 C   0  0  0  0  0  0  0  0  0  0  0  0
   -4.4438    6.2847  -18.8177 C   0  0  0  0  0  0  0  0  0  0  0  0
   -3.6486    6.3159  -17.9568 O   0  0  0  0  0  0  0  0  0  0  0  0
   -5.9028    5.7433  -18.8237 N   0  0  0  0  0  0  0  0  0  0  0  0
   -6.6605    5.2514  -17.8179 C   0  0  0  0  0  0  0  0  0  0  0  0
   -6.2273    5.0264  -16.5433 C   0  0  0  0  0  0  0  0  0  0  0  0
   -7.2686    4.4214  -15.9095 N   0  0  0  0  0  0  0  0  0  0  0  0
   -7.2552    3.8784  -14.5671 C   0  0  0  0  0  0  0  0  0  0  0  0
   -5.8612    3.6021  -13.9627 C   0  0  0  0  0  0  0  0  0  0  0  0
   -5.9472    2.6614  -12.7818 C   0  0  0  0  0  0  0  0  0  0  0  0
   -8.3172    4.4044  -16.7843 C   0  0  0  0  0  0  0  0  0  0  0  0
   -7.9616    4.8893  -17.9575 N   0  0  0  0  0  0  0  0  0  0  0  0
  1  2  2  0
  2  3  1  0
  3  4  1  0
  4  5  2  0
  4  6  1  0
  6  7  1  0
  7  8  2  0
  8  9  1  0
  9 10  1  0
 10 11  1  0
 11 12  1  0
  9 13  1  0
 13 14  2  0
 14  7  1  0
M  END
>  <energy_score>  (3378) 
-29.316741

>  <alias>  (3378) 
CLUPCCNXPLYBSD-UHFFFAOYSA-N-P35-P35-P86-601526

>  <HIPPO Pose ID>  (3378) 
77605

>  <smiles>  (3378) 
C=CCC(=O)Nc1cn(CCC)cn1

>  <inchikey>  (3378) 
CLUPCCNXPLYBSD-UHFFFAOYSA-N

>  <distance_score>  (3378) 
1.678029

>  <ref_mols>  (3378) 
Z0719a,Z1597a

>  <ref_pdb>  (3378) 
Z3093a

>  <HIPPO Compound ID>  (3378) 
149588

>  <name>  (3378) 
CLUPCCNXPLYBSD-UHFFFAOYSA-N-P35-P35-P86-601526

>  <inspiration_score>  (3378) 
None

$$$$
YKTQKVQPEOBCAJ-UHFFFAOYSA-N-P86-P35-P86-601526
     RDKit          3D

 14 14  0  0  0  0  0  0  0  0999 V2000
   -3.6271    4.8800  -16.7405 C   0  0  0  0  0  0  0  0  0  0  0  0
   -3.5786    5.2858  -17.8742 C   0  0  0  0  0  0  0  0  0  0  0  0
   -3.7860    5.8860  -19.2200 C   0  0  0  0  0  0  0  0  0  0  0  0
   -4.7254    7.0980  -19.1276 C   0  0  0  0  0  0  0  0  0  0  0  0
   -5.6557    6.9451  -17.9317 C   0  0  0  0  0  0  0  0  0  0  0  0
   -5.5677    7.6008  -16.9672 O   0  0  0  0  0  0  0  0  0  0  0  0
   -6.5848    5.7390  -18.2490 N   0  0  0  0  0  0  0  0  0  0  0  0
   -7.4750    5.0734  -17.4567 C   0  0  0  0  0  0  0  0  0  0  0  0
   -8.3927    4.1410  -17.8916 C   0  0  0  0  0  0  0  0  0  0  0  0
   -8.5976    3.6265  -19.2428 C   0  0  0  0  0  0  0  0  0  0  0  0
   -9.1672    3.6736  -16.8689 N   0  0  0  0  0  0  0  0  0  0  0  0
   -8.6788    4.2466  -15.8000 C   0  0  0  0  0  0  0  0  0  0  0  0
   -7.6294    5.0755  -16.0978 N   0  0  0  0  0  0  0  0  0  0  0  0
   -6.8146    5.6517  -15.0737 C   0  0  0  0  0  0  0  0  0  0  0  0
  1  2  3  0
  2  3  1  0
  3  4  1  0
  4  5  1  0
  5  6  2  0
  5  7  1  0
  7  8  1  0
  8  9  2  0
  9 10  1  0
  9 11  1  0
 11 12  2  0
 12 13  1  0
 13 14  1  0
 13  8  1  0
M  END
>  <energy_score>  (3379) 
-10.362611

>  <alias>  (3379) 
YKTQKVQPEOBCAJ-UHFFFAOYSA-N-P86-P35-P86-601526

>  <HIPPO Pose ID>  (3379) 
77614

>  <smiles>  (3379) 
C#CCCC(=O)Nc1c(C)ncn1C

>  <inchikey>  (3379) 
YKTQKVQPEOBCAJ-UHFFFAOYSA-N

>  <distance_score>  (3379) 
1.984543

>  <ref_mols>  (3379) 
Z0719a,Z1597a

>  <ref_pdb>  (3379) 
Z3093a

>  <HIPPO Compound ID>  (3379) 
149592

>  <name>  (3379) 
YKTQKVQPEOBCAJ-UHFFFAOYSA-N-P86-P35-P86-601526

>  <inspiration_score>  (3379) 
None

$$$$
KYNVSJOMAQKWIS-UHFFFAOYSA-N-P35-P35-P86-601526
     RDKit          3D

 14 14  0  0  0  0  0  0  0  0999 V2000
   -3.5070    8.7757  -19.8270 C   0  0  0  0  0  0  0  0  0  0  0  0
   -3.2970    7.5012  -19.2342 O   0  0  0  0  0  0  0  0  0  0  0  0
   -4.1033    6.4904  -19.8390 C   0  0  0  0  0  0  0  0  0  0  0  0
   -3.8458    5.1651  -19.1268 C   0  0  0  0  0  0  0  0  0  0  0  0
   -4.6264    4.9656  -17.8246 C   0  0  0  0  0  0  0  0  0  0  0  0
   -4.1086    4.8130  -16.7894 O   0  0  0  0  0  0  0  0  0  0  0  0
   -6.1302    4.9458  -18.2096 N   0  0  0  0  0  0  0  0  0  0  0  0
   -7.2341    4.6563  -17.4588 C   0  0  0  0  0  0  0  0  0  0  0  0
   -8.4573    4.7860  -18.0737 N   0  0  0  0  0  0  0  0  0  0  0  0
   -9.4260    4.4578  -17.1788 C   0  0  0  0  0  0  0  0  0  0  0  0
   -8.9081    4.1095  -16.0303 N   0  0  0  0  0  0  0  0  0  0  0  0
   -7.5323    4.2150  -16.1751 C   0  0  0  0  0  0  0  0  0  0  0  0
   -6.7091    3.7620  -15.0755 C   0  0  0  0  0  0  0  0  0  0  0  0
   -6.1310    3.3204  -14.1659 N   0  0  0  0  0  0  0  0  0  0  0  0
  1  2  1  0
  2  3  1  0
  3  4  1  0
  4  5  1  0
  5  6  2  0
  5  7  1  0
  7  8  1  0
  8  9  1  0
  9 10  1  0
 10 11  2  0
 11 12  1  0
 12 13  1  0
 13 14  3  0
 12  8  2  0
M  END
>  <energy_score>  (3380) 
-8.859501

>  <alias>  (3380) 
KYNVSJOMAQKWIS-UHFFFAOYSA-N-P35-P35-P86-601526

>  <HIPPO Pose ID>  (3380) 
77631

>  <smiles>  (3380) 
COCCC(=O)Nc1[nH]cnc1C#N

>  <inchikey>  (3380) 
KYNVSJOMAQKWIS-UHFFFAOYSA-N

>  <distance_score>  (3380) 
1.795034

>  <ref_mols>  (3380) 
Z0719a,Z1597a

>  <ref_pdb>  (3380) 
Z3093a

>  <HIPPO Compound ID>  (3380) 
149601

>  <name>  (3380) 
KYNVSJOMAQKWIS-UHFFFAOYSA-N-P35-P35-P86-601526

>  <inspiration_score>  (3380) 
None

$$$$
VCJONRPKDVOFTM-UHFFFAOYSA-N-P35-P35-P86-601526
     RDKit          3D

 14 14  0  0  0  0  0  0  0  0999 V2000
   -6.1066    4.1282  -14.5332 N   0  0  0  0  0  0  0  0  0  0  0  0
   -6.7996    4.2777  -15.4550 C   0  0  0  0  0  0  0  0  0  0  0  0
   -7.6611    4.4447  -16.5889 C   0  0  0  0  0  0  0  0  0  0  0  0
   -9.0184    4.2458  -16.4385 N   0  0  0  0  0  0  0  0  0  0  0  0
   -9.5367    4.4459  -17.6234 C   0  0  0  0  0  0  0  0  0  0  0  0
   -8.5737    4.7337  -18.5455 N   0  0  0  0  0  0  0  0  0  0  0  0
   -7.3574    4.7322  -17.9096 C   0  0  0  0  0  0  0  0  0  0  0  0
   -6.2109    4.9669  -18.6162 N   0  0  0  0  0  0  0  0  0  0  0  0
   -4.7709    5.3136  -18.1237 C   0  0  0  0  0  0  0  0  0  0  0  0
   -4.3355    5.3738  -17.0408 O   0  0  0  0  0  0  0  0  0  0  0  0
   -3.9327    5.5531  -19.3891 C   0  0  2  0  0  0  0  0  0  0  0  0
   -2.0349    5.3269  -18.9341 Br  0  0  0  0  0  0  0  0  0  0  0  0
   -4.1944    6.9314  -19.9597 C   0  0  0  0  0  0  0  0  0  0  0  0
   -3.3064    7.2344  -21.6691 Br  0  0  0  0  0  0  0  0  0  0  0  0
  1  2  3  0
  2  3  1  0
  3  4  1  0
  4  5  2  0
  5  6  1  0
  6  7  1  0
  7  8  1  0
  8  9  1  0
  9 10  2  0
  9 11  1  0
 11 12  1  1
 11 13  1  0
 13 14  1  0
  7  3  2  0
M  END
>  <energy_score>  (3381) 
-7.849105

>  <alias>  (3381) 
VCJONRPKDVOFTM-UHFFFAOYSA-N-P35-P35-P86-601526

>  <HIPPO Pose ID>  (3381) 
77647

>  <smiles>  (3381) 
N#Cc1nc[nH]c1NC(=O)C(Br)CBr

>  <inchikey>  (3381) 
VCJONRPKDVOFTM-UHFFFAOYSA-N

>  <distance_score>  (3381) 
1.29064

>  <ref_mols>  (3381) 
Z0719a,Z1597a

>  <ref_pdb>  (3381) 
Z3093a

>  <HIPPO Compound ID>  (3381) 
149609

>  <name>  (3381) 
VCJONRPKDVOFTM-UHFFFAOYSA-N-P35-P35-P86-601526

>  <inspiration_score>  (3381) 
None

$$$$
JWZNUOVFDAZITD-UHFFFAOYSA-N-P35-P35-P86-601526
     RDKit          3D

 14 14  0  0  0  0  0  0  0  0999 V2000
   -2.5309    4.6114  -19.1740 C   0  0  0  0  0  0  0  0  0  0  0  0
   -3.5698    5.4617  -19.2519 C   0  0  0  0  0  0  0  0  0  0  0  0
   -3.7621    6.5062  -20.3085 C   0  0  0  0  0  0  0  0  0  0  0  0
   -2.9061    6.2478  -21.4315 O   0  0  0  0  0  0  0  0  0  0  0  0
   -4.5203    5.4057  -18.0899 C   0  0  0  0  0  0  0  0  0  0  0  0
   -4.1397    5.5659  -16.9999 O   0  0  0  0  0  0  0  0  0  0  0  0
   -5.9365    5.0894  -18.6195 N   0  0  0  0  0  0  0  0  0  0  0  0
   -7.0995    4.8247  -17.9458 C   0  0  0  0  0  0  0  0  0  0  0  0
   -8.2973    4.8229  -18.6157 N   0  0  0  0  0  0  0  0  0  0  0  0
   -9.2877    4.5074  -17.7306 C   0  0  0  0  0  0  0  0  0  0  0  0
   -8.8052    4.2932  -16.5337 N   0  0  0  0  0  0  0  0  0  0  0  0
   -7.4445    4.5157  -16.6388 C   0  0  0  0  0  0  0  0  0  0  0  0
   -6.6197    4.3249  -15.4825 C   0  0  0  0  0  0  0  0  0  0  0  0
   -5.9578    4.1354  -14.5454 N   0  0  0  0  0  0  0  0  0  0  0  0
  1  2  2  0
  2  3  1  0
  3  4  1  0
  2  5  1  0
  5  6  2  0
  5  7  1  0
  7  8  1  0
  8  9  1  0
  9 10  1  0
 10 11  2  0
 11 12  1  0
 12 13  1  0
 13 14  3  0
 12  8  2  0
M  END
>  <energy_score>  (3382) 
-10.679982

>  <alias>  (3382) 
JWZNUOVFDAZITD-UHFFFAOYSA-N-P35-P35-P86-601526

>  <HIPPO Pose ID>  (3382) 
77655

>  <smiles>  (3382) 
C=C(CO)C(=O)Nc1[nH]cnc1C#N

>  <inchikey>  (3382) 
JWZNUOVFDAZITD-UHFFFAOYSA-N

>  <distance_score>  (3382) 
1.932518

>  <ref_mols>  (3382) 
Z0719a,Z1597a

>  <ref_pdb>  (3382) 
Z3093a

>  <HIPPO Compound ID>  (3382) 
149613

>  <name>  (3382) 
JWZNUOVFDAZITD-UHFFFAOYSA-N-P35-P35-P86-601526

>  <inspiration_score>  (3382) 
None

$$$$
GCCGVABTQZNABA-UHFFFAOYSA-N-P86-P35-P86-601526
     RDKit          3D

 14 14  0  0  0  0  0  0  0  0999 V2000
   -8.4998    4.3802  -14.8755 C   0  0  0  0  0  0  0  0  0  0  0  0
   -8.1524    4.4062  -16.3152 C   0  0  0  0  0  0  0  0  0  0  0  0
   -8.8782    3.9524  -17.3146 N   0  0  0  0  0  0  0  0  0  0  0  0
   -8.1766    4.2785  -18.4455 C   0  0  0  0  0  0  0  0  0  0  0  0
   -7.0036    4.9461  -18.1439 C   0  0  0  0  0  0  0  0  0  0  0  0
   -6.0948    5.4766  -19.0272 N   0  0  0  0  0  0  0  0  0  0  0  0
   -4.7672    6.2668  -18.7683 C   0  0  0  0  0  0  0  0  0  0  0  0
   -4.2935    6.6484  -17.7645 O   0  0  0  0  0  0  0  0  0  0  0  0
   -3.9900    6.4281  -20.1211 C   0  0  0  0  0  0  0  0  0  0  0  0
   -4.7982    6.5906  -21.4006 C   0  0  0  0  0  0  0  0  0  0  0  0
   -2.9463    5.3234  -20.2545 C   0  0  0  0  0  0  0  0  0  0  0  0
   -2.9790    8.1574  -19.9487 Br  0  0  0  0  0  0  0  0  0  0  0  0
   -6.9728    4.9511  -16.7714 N   0  0  0  0  0  0  0  0  0  0  0  0
   -5.9145    5.3655  -15.8966 C   0  0  0  0  0  0  0  0  0  0  0  0
  1  2  1  0
  2  3  2  0
  3  4  1  0
  4  5  2  0
  5  6  1  0
  6  7  1  0
  7  8  2  0
  7  9  1  0
  9 10  1  0
  9 11  1  0
  9 12  1  0
  5 13  1  0
 13 14  1  0
 13  2  1  0
M  END
>  <energy_score>  (3383) 
-11.038496

>  <alias>  (3383) 
GCCGVABTQZNABA-UHFFFAOYSA-N-P86-P35-P86-601526

>  <HIPPO Pose ID>  (3383) 
77668

>  <smiles>  (3383) 
Cc1ncc(NC(=O)C(C)(C)Br)n1C

>  <inchikey>  (3383) 
GCCGVABTQZNABA-UHFFFAOYSA-N

>  <distance_score>  (3383) 
1.314429

>  <ref_mols>  (3383) 
Z0719a,Z1597a

>  <ref_pdb>  (3383) 
Z3093a

>  <HIPPO Compound ID>  (3383) 
149619

>  <name>  (3383) 
GCCGVABTQZNABA-UHFFFAOYSA-N-P86-P35-P86-601526

>  <inspiration_score>  (3383) 
None

$$$$
VXTZZZUBPOPVPR-UHFFFAOYSA-N-P35-P35-P86-601526
     RDKit          3D

 14 14  0  0  0  0  0  0  0  0999 V2000
   -3.4862    6.6587  -20.0887 C   0  0  0  0  0  0  0  0  0  0  0  0
   -3.9166    5.7970  -18.8965 C   0  0  1  0  0  0  0  0  0  0  0  0
   -3.0523    6.0792  -17.6818 C   0  0  0  0  0  0  0  0  0  0  0  0
   -3.2390    5.0650  -16.7870 F   0  0  0  0  0  0  0  0  0  0  0  0
   -5.3954    6.0457  -18.5750 C   0  0  0  0  0  0  0  0  0  0  0  0
   -6.0364    6.8204  -19.1732 O   0  0  0  0  0  0  0  0  0  0  0  0
   -5.8096    5.0413  -17.4571 N   0  0  0  0  0  0  0  0  0  0  0  0
   -7.0361    4.7411  -16.9504 C   0  0  0  0  0  0  0  0  0  0  0  0
   -8.1453    5.0788  -17.6861 N   0  0  0  0  0  0  0  0  0  0  0  0
   -9.2410    4.5780  -17.0496 C   0  0  0  0  0  0  0  0  0  0  0  0
   -8.9094    3.9849  -15.9301 N   0  0  0  0  0  0  0  0  0  0  0  0
   -7.5325    4.0722  -15.8469 C   0  0  0  0  0  0  0  0  0  0  0  0
   -6.8420    3.4694  -14.7341 C   0  0  0  0  0  0  0  0  0  0  0  0
   -6.2797    2.9443  -13.8606 N   0  0  0  0  0  0  0  0  0  0  0  0
  2  1  1  6
  2  3  1  0
  3  4  1  0
  2  5  1  0
  5  6  2  0
  5  7  1  0
  7  8  1  0
  8  9  1  0
  9 10  1  0
 10 11  2  0
 11 12  1  0
 12 13  1  0
 13 14  3  0
 12  8  2  0
M  END
>  <energy_score>  (3384) 
-29.166611

>  <alias>  (3384) 
VXTZZZUBPOPVPR-UHFFFAOYSA-N-P35-P35-P86-601526

>  <HIPPO Pose ID>  (3384) 
77683

>  <smiles>  (3384) 
CC(CF)C(=O)Nc1[nH]cnc1C#N

>  <inchikey>  (3384) 
VXTZZZUBPOPVPR-UHFFFAOYSA-N

>  <distance_score>  (3384) 
1.826774

>  <ref_mols>  (3384) 
Z0719a,Z1597a

>  <ref_pdb>  (3384) 
Z3093a

>  <HIPPO Compound ID>  (3384) 
149627

>  <name>  (3384) 
VXTZZZUBPOPVPR-UHFFFAOYSA-N-P35-P35-P86-601526

>  <inspiration_score>  (3384) 
None

$$$$
VEOLYTWSHJQYSD-UHFFFAOYSA-N-P35-P35-P86-601526
     RDKit          3D

 14 14  0  0  0  0  0  0  0  0999 V2000
   -5.2451    3.0744  -13.3740 C   0  0  0  0  0  0  0  0  0  0  0  0
   -6.6332    3.2476  -13.9868 C   0  0  0  0  0  0  0  0  0  0  0  0
   -6.7098    4.0661  -15.1860 N   0  0  0  0  0  0  0  0  0  0  0  0
   -7.8268    4.7329  -15.6233 C   0  0  0  0  0  0  0  0  0  0  0  0
   -7.5497    5.5194  -16.6453 N   0  0  0  0  0  0  0  0  0  0  0  0
   -6.2491    5.2571  -16.9490 C   0  0  0  0  0  0  0  0  0  0  0  0
   -5.6156    5.8813  -17.9703 N   0  0  0  0  0  0  0  0  0  0  0  0
   -4.1637    5.7122  -18.5159 C   0  0  0  0  0  0  0  0  0  0  0  0
   -3.3230    4.9537  -18.2143 O   0  0  0  0  0  0  0  0  0  0  0  0
   -3.9051    6.8439  -19.5325 C   0  0  2  0  0  0  0  0  0  0  0  0
   -4.9656    7.0270  -20.6106 C   0  0  0  0  0  0  0  0  0  0  0  0
   -2.5197    6.6763  -20.1615 C   0  0  0  0  0  0  0  0  0  0  0  0
   -2.5261    5.6748  -21.0896 F   0  0  0  0  0  0  0  0  0  0  0  0
   -5.7106    4.3608  -16.0690 C   0  0  0  0  0  0  0  0  0  0  0  0
  1  2  1  0
  2  3  1  0
  3  4  1  0
  4  5  2  0
  5  6  1  0
  6  7  1  0
  7  8  1  0
  8  9  2  0
  8 10  1  0
 10 11  1  6
 10 12  1  0
 12 13  1  0
  6 14  2  0
 14  3  1  0
M  END
>  <energy_score>  (3385) 
-32.445774

>  <alias>  (3385) 
VEOLYTWSHJQYSD-UHFFFAOYSA-N-P35-P35-P86-601526

>  <HIPPO Pose ID>  (3385) 
77685

>  <smiles>  (3385) 
CCn1cnc(NC(=O)C(C)CF)c1

>  <inchikey>  (3385) 
VEOLYTWSHJQYSD-UHFFFAOYSA-N

>  <distance_score>  (3385) 
1.937256

>  <ref_mols>  (3385) 
Z0719a,Z1597a

>  <ref_pdb>  (3385) 
Z3093a

>  <HIPPO Compound ID>  (3385) 
149628

>  <name>  (3385) 
VEOLYTWSHJQYSD-UHFFFAOYSA-N-P35-P35-P86-601526

>  <inspiration_score>  (3385) 
None

$$$$
ODJIMUOHTGWMPF-UHFFFAOYSA-N-P86-P35-P86-601526
     RDKit          3D

 14 15  0  0  0  0  0  0  0  0999 V2000
   -7.2974    3.5341   -9.4690 C   0  0  0  0  0  0  0  0  0  0  0  0
   -7.5521    4.4140  -10.6358 C   0  0  0  0  0  0  0  0  0  0  0  0
   -8.2720    5.5165  -10.5979 N   0  0  0  0  0  0  0  0  0  0  0  0
   -8.4237    5.8881  -11.9009 C   0  0  0  0  0  0  0  0  0  0  0  0
   -7.6959    5.0854  -12.7510 C   0  0  0  0  0  0  0  0  0  0  0  0
   -7.6726    5.1251  -14.1188 N   0  0  0  0  0  0  0  0  0  0  0  0
   -6.5156    4.8753  -15.1097 C   0  0  0  0  0  0  0  0  0  0  0  0
   -5.3826    4.6722  -14.9147 O   0  0  0  0  0  0  0  0  0  0  0  0
   -7.0601    4.9430  -16.5141 C   0  0  0  0  0  0  0  0  0  0  0  0
   -8.4113    4.6025  -16.6421 F   0  0  0  0  0  0  0  0  0  0  0  0
   -6.2047    4.6495  -17.7205 C   0  0  0  0  0  0  0  0  0  0  0  0
   -6.5975    6.0499  -17.4335 C   0  0  0  0  0  0  0  0  0  0  0  0
   -7.0813    4.1751  -11.9201 N   0  0  0  0  0  0  0  0  0  0  0  0
   -6.2648    3.0381  -12.2792 C   0  0  0  0  0  0  0  0  0  0  0  0
  1  2  1  0
  2  3  2  0
  3  4  1  0
  4  5  2  0
  5  6  1  0
  6  7  1  0
  7  8  2  0
  7  9  1  0
  9 10  1  0
  9 11  1  0
 11 12  1  0
  5 13  1  0
 13 14  1  0
 13  2  1  0
 12  9  1  0
M  END
>  <energy_score>  (3386) 
-9.780727

>  <alias>  (3386) 
ODJIMUOHTGWMPF-UHFFFAOYSA-N-P86-P35-P86-601526

>  <HIPPO Pose ID>  (3386) 
77688

>  <smiles>  (3386) 
Cc1ncc(NC(=O)C2(F)CC2)n1C

>  <inchikey>  (3386) 
ODJIMUOHTGWMPF-UHFFFAOYSA-N

>  <distance_score>  (3386) 
1.355822

>  <ref_mols>  (3386) 
Z0719a,Z1597a

>  <ref_pdb>  (3386) 
Z3093a

>  <HIPPO Compound ID>  (3386) 
149629

>  <name>  (3386) 
ODJIMUOHTGWMPF-UHFFFAOYSA-N-P86-P35-P86-601526

>  <inspiration_score>  (3386) 
None

$$$$
SFOWYCGPKDAFIM-UHFFFAOYSA-N-P86-P35-P86-601526
     RDKit          3D

 14 15  0  0  0  0  0  0  0  0999 V2000
   -5.3137    2.1802  -11.6555 C   0  0  0  0  0  0  0  0  0  0  0  0
   -5.9366    3.0484  -10.5552 C   0  0  0  0  0  0  0  0  0  0  0  0
   -7.0705    3.7876  -11.0831 N   0  0  0  0  0  0  0  0  0  0  0  0
   -8.3505    3.3118  -11.1022 C   0  0  0  0  0  0  0  0  0  0  0  0
   -8.9443    3.6606  -12.2234 N   0  0  0  0  0  0  0  0  0  0  0  0
   -8.0241    4.3950  -12.9036 C   0  0  0  0  0  0  0  0  0  0  0  0
   -8.1128    4.5576  -14.2449 N   0  0  0  0  0  0  0  0  0  0  0  0
   -7.1305    5.2019  -15.2425 C   0  0  0  0  0  0  0  0  0  0  0  0
   -6.1240    5.7642  -15.0579 O   0  0  0  0  0  0  0  0  0  0  0  0
   -7.5865    4.9233  -16.6503 C   0  0  0  0  0  0  0  0  0  0  0  0
   -8.8393    4.3152  -16.7643 F   0  0  0  0  0  0  0  0  0  0  0  0
   -7.1698    5.7864  -17.8241 C   0  0  0  0  0  0  0  0  0  0  0  0
   -6.5693    4.4480  -17.6555 C   0  0  0  0  0  0  0  0  0  0  0  0
   -6.9536    4.7040  -12.1048 C   0  0  0  0  0  0  0  0  0  0  0  0
  1  2  1  0
  2  3  1  0
  3  4  1  0
  4  5  2  0
  5  6  1  0
  6  7  1  0
  7  8  1  0
  8  9  2  0
  8 10  1  0
 10 11  1  0
 10 12  1  0
 12 13  1  0
  6 14  2  0
 14  3  1  0
 13 10  1  0
M  END
>  <energy_score>  (3387) 
-18.962728

>  <alias>  (3387) 
SFOWYCGPKDAFIM-UHFFFAOYSA-N-P86-P35-P86-601526

>  <HIPPO Pose ID>  (3387) 
77690

>  <smiles>  (3387) 
CCn1cnc(NC(=O)C2(F)CC2)c1

>  <inchikey>  (3387) 
SFOWYCGPKDAFIM-UHFFFAOYSA-N

>  <distance_score>  (3387) 
1.718316

>  <ref_mols>  (3387) 
Z0719a,Z1597a

>  <ref_pdb>  (3387) 
Z3093a

>  <HIPPO Compound ID>  (3387) 
149630

>  <name>  (3387) 
SFOWYCGPKDAFIM-UHFFFAOYSA-N-P86-P35-P86-601526

>  <inspiration_score>  (3387) 
None

$$$$
PJJKXTJZBYHCAR-UHFFFAOYSA-N-P35-P35-P86-601526
     RDKit          3D

 14 15  0  0  0  0  0  0  0  0999 V2000
   -9.6626    4.4594  -18.1183 C   0  0  0  0  0  0  0  0  0  0  0  0
   -8.7450    4.9150  -17.0547 C   0  0  0  0  0  0  0  0  0  0  0  0
   -7.4542    4.5939  -16.9901 C   0  0  0  0  0  0  0  0  0  0  0  0
   -8.3111    4.2074  -15.8909 C   0  0  1  0  0  0  0  0  0  0  0  0
   -8.0000    4.8699  -14.5992 C   0  0  0  0  0  0  0  0  0  0  0  0
   -7.4961    5.9227  -14.5805 O   0  0  0  0  0  0  0  0  0  0  0  0
   -8.3527    3.9052  -13.4397 N   0  0  0  0  0  0  0  0  0  0  0  0
   -8.0875    3.9909  -12.1073 C   0  0  0  0  0  0  0  0  0  0  0  0
   -8.7180    3.2840  -11.1220 N   0  0  0  0  0  0  0  0  0  0  0  0
   -8.1267    3.6215   -9.9320 C   0  0  0  0  0  0  0  0  0  0  0  0
   -7.1127    4.4435  -10.1046 N   0  0  0  0  0  0  0  0  0  0  0  0
   -7.0449    4.6255  -11.4675 C   0  0  0  0  0  0  0  0  0  0  0  0
   -5.8653    5.0718  -12.1520 C   0  0  0  0  0  0  0  0  0  0  0  0
   -4.9410    5.2615  -12.8323 N   0  0  0  0  0  0  0  0  0  0  0  0
  1  2  1  0
  2  3  2  0
  3  4  1  0
  4  5  1  1
  5  6  2  0
  5  7  1  0
  7  8  1  0
  8  9  1  0
  9 10  1  0
 10 11  2  0
 11 12  1  0
 12 13  1  0
 13 14  3  0
  4  2  1  0
 12  8  2  0
M  END
>  <energy_score>  (3388) 
-11.549957

>  <alias>  (3388) 
PJJKXTJZBYHCAR-UHFFFAOYSA-N-P35-P35-P86-601526

>  <HIPPO Pose ID>  (3388) 
77691

>  <smiles>  (3388) 
CC1=CC1C(=O)Nc1[nH]cnc1C#N

>  <inchikey>  (3388) 
PJJKXTJZBYHCAR-UHFFFAOYSA-N

>  <distance_score>  (3388) 
1.289531

>  <ref_mols>  (3388) 
Z0719a,Z1597a

>  <ref_pdb>  (3388) 
Z3093a

>  <HIPPO Compound ID>  (3388) 
149631

>  <name>  (3388) 
PJJKXTJZBYHCAR-UHFFFAOYSA-N-P35-P35-P86-601526

>  <inspiration_score>  (3388) 
None

$$$$
LARMNIOBRBHJRE-UHFFFAOYSA-N-P35-P35-P86-601526
     RDKit          3D

 14 15  0  0  0  0  0  0  0  0999 V2000
   -9.3559    4.4043  -17.8196 C   0  0  0  0  0  0  0  0  0  0  0  0
   -8.1087    4.3133  -17.0496 C   0  0  0  0  0  0  0  0  0  0  0  0
   -6.8831    4.5893  -17.4931 C   0  0  0  0  0  0  0  0  0  0  0  0
   -7.3172    5.2520  -16.2979 C   0  0  2  0  0  0  0  0  0  0  0  0
   -6.8440    4.7464  -14.9780 C   0  0  0  0  0  0  0  0  0  0  0  0
   -5.9414    4.0115  -14.8974 O   0  0  0  0  0  0  0  0  0  0  0  0
   -7.7422    5.3525  -13.8786 N   0  0  0  0  0  0  0  0  0  0  0  0
   -7.7767    5.1201  -12.5314 C   0  0  0  0  0  0  0  0  0  0  0  0
   -8.3301    5.9248  -11.5603 C   0  0  0  0  0  0  0  0  0  0  0  0
   -8.1959    5.3796  -10.3198 N   0  0  0  0  0  0  0  0  0  0  0  0
   -7.6437    4.1976  -10.5144 C   0  0  0  0  0  0  0  0  0  0  0  0
   -7.4168    3.2016   -9.4408 C   0  0  0  0  0  0  0  0  0  0  0  0
   -7.3181    4.0132  -11.8500 N   0  0  0  0  0  0  0  0  0  0  0  0
   -6.7330    2.8183  -12.4234 C   0  0  0  0  0  0  0  0  0  0  0  0
  1  2  1  0
  2  3  2  0
  3  4  1  0
  4  5  1  1
  5  6  2  0
  5  7  1  0
  7  8  1  0
  8  9  2  0
  9 10  1  0
 10 11  2  0
 11 12  1  0
 11 13  1  0
 13 14  1  0
  4  2  1  0
 13  8  1  0
M  END
>  <energy_score>  (3389) 
-32.419446

>  <alias>  (3389) 
LARMNIOBRBHJRE-UHFFFAOYSA-N-P35-P35-P86-601526

>  <HIPPO Pose ID>  (3389) 
77693

>  <smiles>  (3389) 
CC1=CC1C(=O)Nc1cnc(C)n1C

>  <inchikey>  (3389) 
LARMNIOBRBHJRE-UHFFFAOYSA-N

>  <distance_score>  (3389) 
1.361849

>  <ref_mols>  (3389) 
Z0719a,Z1597a

>  <ref_pdb>  (3389) 
Z3093a

>  <HIPPO Compound ID>  (3389) 
149632

>  <name>  (3389) 
LARMNIOBRBHJRE-UHFFFAOYSA-N-P35-P35-P86-601526

>  <inspiration_score>  (3389) 
None

$$$$
DBPAONLYKIGHTR-UHFFFAOYSA-N-P86-P35-P86-601526
     RDKit          3D

 14 15  0  0  0  0  0  0  0  0999 V2000
   -5.1237    2.1563  -11.6160 C   0  0  0  0  0  0  0  0  0  0  0  0
   -5.6711    2.7304  -10.2978 C   0  0  0  0  0  0  0  0  0  0  0  0
   -6.9593    3.3719  -10.5133 N   0  0  0  0  0  0  0  0  0  0  0  0
   -8.1581    2.7230  -10.4001 C   0  0  0  0  0  0  0  0  0  0  0  0
   -8.9142    2.9827  -11.4459 N   0  0  0  0  0  0  0  0  0  0  0  0
   -8.2119    3.9086  -12.1429 C   0  0  0  0  0  0  0  0  0  0  0  0
   -8.4784    4.1881  -13.4309 N   0  0  0  0  0  0  0  0  0  0  0  0
   -7.8028    5.1640  -14.3975 C   0  0  0  0  0  0  0  0  0  0  0  0
   -6.9548    5.9414  -14.2162 O   0  0  0  0  0  0  0  0  0  0  0  0
   -8.4481    5.1139  -15.7186 C   0  0  1  0  0  0  0  0  0  0  0  0
   -7.5059    5.0211  -16.8029 C   0  0  0  0  0  0  0  0  0  0  0  0
   -8.3617    4.0134  -16.6445 C   0  0  0  0  0  0  0  0  0  0  0  0
   -9.2913    3.6424  -17.7406 C   0  0  0  0  0  0  0  0  0  0  0  0
   -7.1304    4.3709  -11.4386 C   0  0  0  0  0  0  0  0  0  0  0  0
  1  2  1  0
  2  3  1  0
  3  4  1  0
  4  5  2  0
  5  6  1  0
  6  7  1  0
  7  8  1  0
  8  9  2  0
 10  8  1  1
 10 11  1  0
 11 12  2  0
 12 13  1  0
  6 14  2  0
 14  3  1  0
 12 10  1  0
M  END
>  <energy_score>  (3390) 
-16.311112

>  <alias>  (3390) 
DBPAONLYKIGHTR-UHFFFAOYSA-N-P86-P35-P86-601526

>  <HIPPO Pose ID>  (3390) 
77696

>  <smiles>  (3390) 
CCn1cnc(NC(=O)C2C=C2C)c1

>  <inchikey>  (3390) 
DBPAONLYKIGHTR-UHFFFAOYSA-N

>  <distance_score>  (3390) 
1.669224

>  <ref_mols>  (3390) 
Z0719a,Z1597a

>  <ref_pdb>  (3390) 
Z3093a

>  <HIPPO Compound ID>  (3390) 
149633

>  <name>  (3390) 
DBPAONLYKIGHTR-UHFFFAOYSA-N-P86-P35-P86-601526

>  <inspiration_score>  (3390) 
None

$$$$
BBFLDQDRKIXCAP-UHFFFAOYSA-N-P35-P35-P86-601526
     RDKit          3D

 14 14  0  0  0  0  0  0  0  0999 V2000
   -4.2585    6.8909  -20.2362 C   0  0  0  0  0  0  0  0  0  0  0  0
   -3.7553    5.7635  -19.3504 C   0  0  0  0  0  0  0  0  0  0  0  0
   -3.6107    4.6438  -20.1203 F   0  0  0  0  0  0  0  0  0  0  0  0
   -2.4751    6.0883  -18.9854 F   0  0  0  0  0  0  0  0  0  0  0  0
   -4.6609    5.5022  -18.1119 C   0  0  0  0  0  0  0  0  0  0  0  0
   -4.2762    5.6789  -17.0193 O   0  0  0  0  0  0  0  0  0  0  0  0
   -6.0527    5.0093  -18.6283 N   0  0  0  0  0  0  0  0  0  0  0  0
   -7.2104    4.7427  -17.9460 C   0  0  0  0  0  0  0  0  0  0  0  0
   -8.4133    4.7009  -18.6081 N   0  0  0  0  0  0  0  0  0  0  0  0
   -9.3944    4.4284  -17.6991 C   0  0  0  0  0  0  0  0  0  0  0  0
   -8.8995    4.2597  -16.4997 N   0  0  0  0  0  0  0  0  0  0  0  0
   -7.5414    4.4726  -16.6274 C   0  0  0  0  0  0  0  0  0  0  0  0
   -6.6996    4.3218  -15.4772 C   0  0  0  0  0  0  0  0  0  0  0  0
   -6.0142    4.1748  -14.5495 N   0  0  0  0  0  0  0  0  0  0  0  0
  1  2  1  0
  2  3  1  0
  2  4  1  0
  2  5  1  0
  5  6  2  0
  5  7  1  0
  7  8  1  0
  8  9  1  0
  9 10  1  0
 10 11  2  0
 11 12  1  0
 12 13  1  0
 13 14  3  0
 12  8  2  0
M  END
>  <energy_score>  (3391) 
-8.671138

>  <alias>  (3391) 
BBFLDQDRKIXCAP-UHFFFAOYSA-N-P35-P35-P86-601526

>  <HIPPO Pose ID>  (3391) 
77697

>  <smiles>  (3391) 
CC(F)(F)C(=O)Nc1[nH]cnc1C#N

>  <inchikey>  (3391) 
BBFLDQDRKIXCAP-UHFFFAOYSA-N

>  <distance_score>  (3391) 
1.286519

>  <ref_mols>  (3391) 
Z0719a,Z1597a

>  <ref_pdb>  (3391) 
Z3093a

>  <HIPPO Compound ID>  (3391) 
149634

>  <name>  (3391) 
BBFLDQDRKIXCAP-UHFFFAOYSA-N-P35-P35-P86-601526

>  <inspiration_score>  (3391) 
None

$$$$
JNCSCEGGQPELDO-UHFFFAOYSA-N-P86-P35-P86-601526
     RDKit          3D

 14 14  0  0  0  0  0  0  0  0999 V2000
   -8.4433    4.4477  -14.5329 C   0  0  0  0  0  0  0  0  0  0  0  0
   -8.3221    4.3743  -16.0094 C   0  0  0  0  0  0  0  0  0  0  0  0
   -9.2142    3.8999  -16.8540 N   0  0  0  0  0  0  0  0  0  0  0  0
   -8.6670    4.0687  -18.0936 C   0  0  0  0  0  0  0  0  0  0  0  0
   -7.4175    4.6456  -18.0182 C   0  0  0  0  0  0  0  0  0  0  0  0
   -6.5920    4.9192  -19.0712 N   0  0  0  0  0  0  0  0  0  0  0  0
   -5.2164    5.6592  -19.1161 C   0  0  0  0  0  0  0  0  0  0  0  0
   -4.6233    6.2120  -18.2690 O   0  0  0  0  0  0  0  0  0  0  0  0
   -4.6745    5.4395  -20.5442 C   0  0  0  0  0  0  0  0  0  0  0  0
   -4.4858    6.7543  -21.2646 C   0  0  0  0  0  0  0  0  0  0  0  0
   -5.5083    4.6459  -21.2806 F   0  0  0  0  0  0  0  0  0  0  0  0
   -3.4750    4.7886  -20.5130 F   0  0  0  0  0  0  0  0  0  0  0  0
   -7.1981    4.8116  -16.6763 N   0  0  0  0  0  0  0  0  0  0  0  0
   -6.0110    5.2654  -16.0134 C   0  0  0  0  0  0  0  0  0  0  0  0
  1  2  1  0
  2  3  2  0
  3  4  1  0
  4  5  2  0
  5  6  1  0
  6  7  1  0
  7  8  2  0
  7  9  1  0
  9 10  1  0
  9 11  1  0
  9 12  1  0
  5 13  1  0
 13 14  1  0
 13  2  1  0
M  END
>  <energy_score>  (3392) 
-2.402852

>  <alias>  (3392) 
JNCSCEGGQPELDO-UHFFFAOYSA-N-P86-P35-P86-601526

>  <HIPPO Pose ID>  (3392) 
77702

>  <smiles>  (3392) 
Cc1ncc(NC(=O)C(C)(F)F)n1C

>  <inchikey>  (3392) 
JNCSCEGGQPELDO-UHFFFAOYSA-N

>  <distance_score>  (3392) 
1.118728

>  <ref_mols>  (3392) 
Z0719a,Z1597a

>  <ref_pdb>  (3392) 
Z3093a

>  <HIPPO Compound ID>  (3392) 
149636

>  <name>  (3392) 
JNCSCEGGQPELDO-UHFFFAOYSA-N-P86-P35-P86-601526

>  <inspiration_score>  (3392) 
None

$$$$
FJXKWCGYPOPRDK-UHFFFAOYSA-N-P35-P35-P86-601526
     RDKit          3D

 14 14  0  0  0  0  0  0  0  0999 V2000
   -8.7061    4.5199  -14.4376 C   0  0  0  0  0  0  0  0  0  0  0  0
   -8.2283    4.5275  -15.7952 N   0  0  0  0  0  0  0  0  0  0  0  0
   -8.9582    4.5868  -16.9371 C   0  0  0  0  0  0  0  0  0  0  0  0
   -8.1727    4.7595  -17.9774 N   0  0  0  0  0  0  0  0  0  0  0  0
   -6.8992    4.7894  -17.4891 C   0  0  0  0  0  0  0  0  0  0  0  0
   -5.8832    5.0221  -18.3588 N   0  0  0  0  0  0  0  0  0  0  0  0
   -4.3583    5.1471  -18.1144 C   0  0  0  0  0  0  0  0  0  0  0  0
   -3.7489    5.1458  -17.1183 O   0  0  0  0  0  0  0  0  0  0  0  0
   -3.6687    5.2937  -19.4566 C   0  0  0  0  0  0  0  0  0  0  0  0
   -3.9754    6.6241  -20.1270 C   0  0  0  0  0  0  0  0  0  0  0  0
   -2.7411    6.9613  -21.4246 S   0  0  0  0  0  0  0  0  0  0  0  0
   -6.9037    4.5742  -16.1346 C   0  0  0  0  0  0  0  0  0  0  0  0
   -5.8764    4.3872  -15.1860 C   0  0  0  0  0  0  0  0  0  0  0  0
   -5.1361    4.1737  -14.3199 N   0  0  0  0  0  0  0  0  0  0  0  0
  1  2  1  0
  2  3  1  0
  3  4  2  0
  4  5  1  0
  5  6  1  0
  6  7  1  0
  7  8  2  0
  7  9  1  0
  9 10  1  0
 10 11  1  0
  5 12  2  0
 12 13  1  0
 13 14  3  0
 12  2  1  0
M  END
>  <energy_score>  (3393) 
-25.019099

>  <alias>  (3393) 
FJXKWCGYPOPRDK-UHFFFAOYSA-N-P35-P35-P86-601526

>  <HIPPO Pose ID>  (3393) 
77707

>  <smiles>  (3393) 
Cn1cnc(NC(=O)CCS)c1C#N

>  <inchikey>  (3393) 
FJXKWCGYPOPRDK-UHFFFAOYSA-N

>  <distance_score>  (3393) 
1.233533

>  <ref_mols>  (3393) 
Z0719a,Z1597a

>  <ref_pdb>  (3393) 
Z3093a

>  <HIPPO Compound ID>  (3393) 
149639

>  <name>  (3393) 
FJXKWCGYPOPRDK-UHFFFAOYSA-N-P35-P35-P86-601526

>  <inspiration_score>  (3393) 
None

$$$$
NVEWIZFYEMSJDU-UHFFFAOYSA-N-P86-P35-P86-601526
     RDKit          3D

 14 15  0  0  0  0  0  0  0  0999 V2000
   -4.5774    4.8210  -13.1756 N   0  0  0  0  0  0  0  0  0  0  0  0
   -5.5823    4.6784  -12.6089 C   0  0  0  0  0  0  0  0  0  0  0  0
   -6.8570    4.3451  -12.0496 C   0  0  0  0  0  0  0  0  0  0  0  0
   -7.0351    4.0636  -10.7115 N   0  0  0  0  0  0  0  0  0  0  0  0
   -8.1764    3.4109  -10.6643 C   0  0  0  0  0  0  0  0  0  0  0  0
   -8.7385    3.2900  -11.9088 N   0  0  0  0  0  0  0  0  0  0  0  0
   -7.9541    3.9747  -12.7988 C   0  0  0  0  0  0  0  0  0  0  0  0
   -8.2138    4.1044  -14.1372 N   0  0  0  0  0  0  0  0  0  0  0  0
   -7.5763    5.0342  -15.1999 C   0  0  0  0  0  0  0  0  0  0  0  0
   -6.7863    5.8864  -15.0836 O   0  0  0  0  0  0  0  0  0  0  0  0
   -8.0510    4.6739  -16.5787 C   0  0  0  0  0  0  0  0  0  0  0  0
   -9.3276    4.1218  -16.6454 F   0  0  0  0  0  0  0  0  0  0  0  0
   -7.6175    5.4729  -17.7977 C   0  0  0  0  0  0  0  0  0  0  0  0
   -7.0609    4.1316  -17.5744 C   0  0  0  0  0  0  0  0  0  0  0  0
  1  2  3  0
  2  3  1  0
  3  4  1  0
  4  5  2  0
  5  6  1  0
  6  7  1  0
  7  8  1  0
  8  9  1  0
  9 10  2  0
  9 11  1  0
 11 12  1  0
 11 13  1  0
 13 14  1  0
  7  3  2  0
 14 11  1  0
M  END
>  <energy_score>  (3394) 
-10.749507

>  <alias>  (3394) 
NVEWIZFYEMSJDU-UHFFFAOYSA-N-P86-P35-P86-601526

>  <HIPPO Pose ID>  (3394) 
77712

>  <smiles>  (3394) 
N#Cc1nc[nH]c1NC(=O)C1(F)CC1

>  <inchikey>  (3394) 
NVEWIZFYEMSJDU-UHFFFAOYSA-N

>  <distance_score>  (3394) 
1.247754

>  <ref_mols>  (3394) 
Z0719a,Z1597a

>  <ref_pdb>  (3394) 
Z3093a

>  <HIPPO Compound ID>  (3394) 
149641

>  <name>  (3394) 
NVEWIZFYEMSJDU-UHFFFAOYSA-N-P86-P35-P86-601526

>  <inspiration_score>  (3394) 
None

$$$$
QJFIHWHAQUAJHA-UHFFFAOYSA-N-P35-P35-P86-601526
     RDKit          3D

 14 14  0  0  0  0  0  0  0  0999 V2000
   -3.1890    6.6284  -17.6863 C   0  0  0  0  0  0  0  0  0  0  0  0
   -3.9913    6.3469  -18.7263 C   0  0  0  0  0  0  0  0  0  0  0  0
   -3.9575    6.9531  -20.1122 C   0  0  0  0  0  0  0  0  0  0  0  0
   -3.1119    8.2116  -20.2650 C   0  0  0  0  0  0  0  0  0  0  0  0
   -5.0286    5.2681  -18.5897 C   0  0  0  0  0  0  0  0  0  0  0  0
   -5.0842    4.3960  -19.3593 O   0  0  0  0  0  0  0  0  0  0  0  0
   -5.9530    5.6158  -17.4017 N   0  0  0  0  0  0  0  0  0  0  0  0
   -7.1276    5.0469  -16.9950 C   0  0  0  0  0  0  0  0  0  0  0  0
   -8.1414    4.3969  -17.6732 C   0  0  0  0  0  0  0  0  0  0  0  0
   -8.3632    4.1960  -19.1024 C   0  0  0  0  0  0  0  0  0  0  0  0
   -9.1383    3.9936  -16.8154 N   0  0  0  0  0  0  0  0  0  0  0  0
   -8.7519    4.4028  -15.6368 C   0  0  0  0  0  0  0  0  0  0  0  0
   -7.5635    5.0623  -15.7005 N   0  0  0  0  0  0  0  0  0  0  0  0
   -6.8585    5.5509  -14.5566 C   0  0  0  0  0  0  0  0  0  0  0  0
  1  2  2  0
  2  3  1  0
  3  4  1  0
  2  5  1  0
  5  6  2  0
  5  7  1  0
  7  8  1  0
  8  9  2  0
  9 10  1  0
  9 11  1  0
 11 12  2  0
 12 13  1  0
 13 14  1  0
 13  8  1  0
M  END
>  <energy_score>  (3395) 
-20.589354

>  <alias>  (3395) 
QJFIHWHAQUAJHA-UHFFFAOYSA-N-P35-P35-P86-601526

>  <HIPPO Pose ID>  (3395) 
77715

>  <smiles>  (3395) 
C=C(CC)C(=O)Nc1c(C)ncn1C

>  <inchikey>  (3395) 
QJFIHWHAQUAJHA-UHFFFAOYSA-N

>  <distance_score>  (3395) 
1.376401

>  <ref_mols>  (3395) 
Z0719a,Z1597a

>  <ref_pdb>  (3395) 
Z3093a

>  <HIPPO Compound ID>  (3395) 
149643

>  <name>  (3395) 
QJFIHWHAQUAJHA-UHFFFAOYSA-N-P35-P35-P86-601526

>  <inspiration_score>  (3395) 
None

$$$$
RMMJZZNGDNIFFT-UHFFFAOYSA-N-P86-P35-P86-601526
     RDKit          3D

 14 14  0  0  0  0  0  0  0  0999 V2000
   -2.9452    5.0588  -20.1605 C   0  0  0  0  0  0  0  0  0  0  0  0
   -4.0395    5.8372  -20.1588 C   0  0  0  0  0  0  0  0  0  0  0  0
   -4.4993    6.6508  -21.3273 C   0  0  0  0  0  0  0  0  0  0  0  0
   -4.5428    8.1426  -21.0259 C   0  0  0  0  0  0  0  0  0  0  0  0
   -4.7862    5.9133  -18.8671 C   0  0  0  0  0  0  0  0  0  0  0  0
   -4.3151    6.4065  -17.9190 O   0  0  0  0  0  0  0  0  0  0  0  0
   -6.1316    5.1662  -19.0472 N   0  0  0  0  0  0  0  0  0  0  0  0
   -7.0818    4.8076  -18.1251 C   0  0  0  0  0  0  0  0  0  0  0  0
   -8.3144    4.2348  -18.3730 C   0  0  0  0  0  0  0  0  0  0  0  0
   -9.0034    3.9969  -17.2127 N   0  0  0  0  0  0  0  0  0  0  0  0
   -8.2111    4.4154  -16.2481 C   0  0  0  0  0  0  0  0  0  0  0  0
   -8.4971    4.4193  -14.7942 C   0  0  0  0  0  0  0  0  0  0  0  0
   -7.0189    4.8821  -16.7567 N   0  0  0  0  0  0  0  0  0  0  0  0
   -5.9165    5.2807  -15.9308 C   0  0  0  0  0  0  0  0  0  0  0  0
  1  2  2  0
  2  3  1  0
  3  4  1  0
  2  5  1  0
  5  6  2  0
  5  7  1  0
  7  8  1  0
  8  9  2  0
  9 10  1  0
 10 11  2  0
 11 12  1  0
 11 13  1  0
 13 14  1  0
 13  8  1  0
M  END
>  <energy_score>  (3396) 
-4.186679

>  <alias>  (3396) 
RMMJZZNGDNIFFT-UHFFFAOYSA-N-P86-P35-P86-601526

>  <HIPPO Pose ID>  (3396) 
77718

>  <smiles>  (3396) 
C=C(CC)C(=O)Nc1cnc(C)n1C

>  <inchikey>  (3396) 
RMMJZZNGDNIFFT-UHFFFAOYSA-N

>  <distance_score>  (3396) 
1.455655

>  <ref_mols>  (3396) 
Z0719a,Z1597a

>  <ref_pdb>  (3396) 
Z3093a

>  <HIPPO Compound ID>  (3396) 
149644

>  <name>  (3396) 
RMMJZZNGDNIFFT-UHFFFAOYSA-N-P86-P35-P86-601526

>  <inspiration_score>  (3396) 
None

$$$$
SLZJSHZIQDZNTQ-UHFFFAOYSA-N-P86-P35-P86-601526
     RDKit          3D

 14 14  0  0  0  0  0  0  0  0999 V2000
   -4.4742    7.0145  -22.6407 C   0  0  0  0  0  0  0  0  0  0  0  0
   -4.6797    6.9439  -21.1359 C   0  0  0  0  0  0  0  0  0  0  0  0
   -4.5431    5.5233  -20.6130 C   0  0  1  0  0  0  0  0  0  0  0  0
   -3.2343    5.1499  -20.7506 F   0  0  0  0  0  0  0  0  0  0  0  0
   -4.9929    5.4538  -19.1459 C   0  0  0  0  0  0  0  0  0  0  0  0
   -4.2633    5.6566  -18.2512 O   0  0  0  0  0  0  0  0  0  0  0  0
   -6.5039    5.0473  -19.1494 N   0  0  0  0  0  0  0  0  0  0  0  0
   -7.3419    4.7352  -18.1139 C   0  0  0  0  0  0  0  0  0  0  0  0
   -8.6236    4.2376  -18.2283 C   0  0  0  0  0  0  0  0  0  0  0  0
   -9.1864    4.0168  -17.0038 N   0  0  0  0  0  0  0  0  0  0  0  0
   -8.2800    4.3981  -16.1278 C   0  0  0  0  0  0  0  0  0  0  0  0
   -8.4312    4.4292  -14.6526 C   0  0  0  0  0  0  0  0  0  0  0  0
   -7.1297    4.8184  -16.7613 N   0  0  0  0  0  0  0  0  0  0  0  0
   -5.9788    5.3204  -16.0703 C   0  0  0  0  0  0  0  0  0  0  0  0
  1  2  1  0
  2  3  1  0
  3  4  1  1
  3  5  1  0
  5  6  2  0
  5  7  1  0
  7  8  1  0
  8  9  2  0
  9 10  1  0
 10 11  2  0
 11 12  1  0
 11 13  1  0
 13 14  1  0
 13  8  1  0
M  END
>  <energy_score>  (3397) 
-16.019173

>  <alias>  (3397) 
SLZJSHZIQDZNTQ-UHFFFAOYSA-N-P86-P35-P86-601526

>  <HIPPO Pose ID>  (3397) 
77722

>  <smiles>  (3397) 
CCC(F)C(=O)Nc1cnc(C)n1C

>  <inchikey>  (3397) 
SLZJSHZIQDZNTQ-UHFFFAOYSA-N

>  <distance_score>  (3397) 
1.281592

>  <ref_mols>  (3397) 
Z0719a,Z1597a

>  <ref_pdb>  (3397) 
Z3093a

>  <HIPPO Compound ID>  (3397) 
149646

>  <name>  (3397) 
SLZJSHZIQDZNTQ-UHFFFAOYSA-N-P86-P35-P86-601526

>  <inspiration_score>  (3397) 
None

$$$$
HDOXCBMGILTPQL-UHFFFAOYSA-N-P86-P35-P86-601526
     RDKit          3D

 14 14  0  0  0  0  0  0  0  0999 V2000
   -3.4929    7.0690  -21.8734 C   0  0  0  0  0  0  0  0  0  0  0  0
   -4.8459    6.4122  -21.6428 C   0  0  0  0  0  0  0  0  0  0  0  0
   -4.8380    5.4199  -20.4854 C   0  0  2  0  0  0  0  0  0  0  0  0
   -5.7611    4.4366  -20.7185 F   0  0  0  0  0  0  0  0  0  0  0  0
   -5.0774    6.1224  -19.1451 C   0  0  0  0  0  0  0  0  0  0  0  0
   -4.5064    7.0937  -18.8259 O   0  0  0  0  0  0  0  0  0  0  0  0
   -6.0872    5.2398  -18.3543 N   0  0  0  0  0  0  0  0  0  0  0  0
   -6.4985    5.3140  -17.0654 C   0  0  0  0  0  0  0  0  0  0  0  0
   -7.2863    4.4218  -16.3767 C   0  0  0  0  0  0  0  0  0  0  0  0
   -7.0828    4.7519  -15.0598 N   0  0  0  0  0  0  0  0  0  0  0  0
   -7.4069    4.0117  -13.8559 C   0  0  0  0  0  0  0  0  0  0  0  0
   -6.1885    3.6102  -13.0171 C   0  0  0  0  0  0  0  0  0  0  0  0
   -6.4551    5.9580  -15.0473 C   0  0  0  0  0  0  0  0  0  0  0  0
   -6.0576    6.3038  -16.2460 N   0  0  0  0  0  0  0  0  0  0  0  0
  1  2  1  0
  2  3  1  0
  3  4  1  6
  3  5  1  0
  5  6  2  0
  5  7  1  0
  7  8  1  0
  8  9  2  0
  9 10  1  0
 10 11  1  0
 11 12  1  0
 10 13  1  0
 13 14  2  0
 14  8  1  0
M  END
>  <energy_score>  (3398) 
-23.168429

>  <alias>  (3398) 
HDOXCBMGILTPQL-UHFFFAOYSA-N-P86-P35-P86-601526

>  <HIPPO Pose ID>  (3398) 
77724

>  <smiles>  (3398) 
CCC(F)C(=O)Nc1cn(CC)cn1

>  <inchikey>  (3398) 
HDOXCBMGILTPQL-UHFFFAOYSA-N

>  <distance_score>  (3398) 
1.933339

>  <ref_mols>  (3398) 
Z0719a,Z1597a

>  <ref_pdb>  (3398) 
Z3093a

>  <HIPPO Compound ID>  (3398) 
149647

>  <name>  (3398) 
HDOXCBMGILTPQL-UHFFFAOYSA-N-P86-P35-P86-601526

>  <inspiration_score>  (3398) 
None

$$$$
ZTAUICVSLCLFNJ-UHFFFAOYSA-N-P35-P35-P86-601526
     RDKit          3D

 14 14  0  0  0  0  0  0  0  0999 V2000
   -3.4495    7.3884  -21.2996 C   0  0  0  0  0  0  0  0  0  0  0  0
   -4.3235    7.0302  -20.1089 C   0  0  0  0  0  0  0  0  0  0  0  0
   -3.9553    5.6934  -19.4644 C   0  0  1  0  0  0  0  0  0  0  0  0
   -2.6070    5.7026  -19.2200 F   0  0  0  0  0  0  0  0  0  0  0  0
   -4.7686    5.4278  -18.1810 C   0  0  0  0  0  0  0  0  0  0  0  0
   -4.2874    5.4385  -17.1152 O   0  0  0  0  0  0  0  0  0  0  0  0
   -6.2461    5.1858  -18.6202 N   0  0  0  0  0  0  0  0  0  0  0  0
   -7.3430    4.8353  -17.8856 C   0  0  0  0  0  0  0  0  0  0  0  0
   -8.5737    4.8102  -18.4927 N   0  0  0  0  0  0  0  0  0  0  0  0
   -9.5000    4.4258  -17.5693 C   0  0  0  0  0  0  0  0  0  0  0  0
   -8.9435    4.1855  -16.4098 N   0  0  0  0  0  0  0  0  0  0  0  0
   -7.5996    4.4599  -16.5776 C   0  0  0  0  0  0  0  0  0  0  0  0
   -6.7113    4.2910  -15.4659 C   0  0  0  0  0  0  0  0  0  0  0  0
   -5.9999    4.1354  -14.5593 N   0  0  0  0  0  0  0  0  0  0  0  0
  1  2  1  0
  2  3  1  0
  3  4  1  1
  3  5  1  0
  5  6  2  0
  5  7  1  0
  7  8  1  0
  8  9  1  0
  9 10  1  0
 10 11  2  0
 11 12  1  0
 12 13  1  0
 13 14  3  0
 12  8  2  0
M  END
>  <energy_score>  (3399) 
-12.347175

>  <alias>  (3399) 
ZTAUICVSLCLFNJ-UHFFFAOYSA-N-P35-P35-P86-601526

>  <HIPPO Pose ID>  (3399) 
77725

>  <smiles>  (3399) 
CCC(F)C(=O)Nc1[nH]cnc1C#N

>  <inchikey>  (3399) 
ZTAUICVSLCLFNJ-UHFFFAOYSA-N

>  <distance_score>  (3399) 
1.914062

>  <ref_mols>  (3399) 
Z0719a,Z1597a

>  <ref_pdb>  (3399) 
Z3093a

>  <HIPPO Compound ID>  (3399) 
149648

>  <name>  (3399) 
ZTAUICVSLCLFNJ-UHFFFAOYSA-N-P35-P35-P86-601526

>  <inspiration_score>  (3399) 
None

$$$$
JTRYZPDLYGNTSW-UHFFFAOYSA-N-P35-P35-P86-601526
     RDKit          3D

 14 14  0  0  0  0  0  0  0  0999 V2000
   -4.5570    8.3513  -19.7248 C   0  0  0  0  0  0  0  0  0  0  0  0
   -4.4718    6.9094  -20.2000 C   0  0  0  0  0  0  0  0  0  0  0  0
   -3.8744    5.9745  -19.1490 C   0  0  2  0  0  0  0  0  0  0  0  0
   -3.7161    4.7427  -19.7265 F   0  0  0  0  0  0  0  0  0  0  0  0
   -4.6783    5.8808  -17.8360 C   0  0  0  0  0  0  0  0  0  0  0  0
   -4.2435    6.2533  -16.8139 O   0  0  0  0  0  0  0  0  0  0  0  0
   -6.0674    5.2625  -18.1769 N   0  0  0  0  0  0  0  0  0  0  0  0
   -7.1114    4.9083  -17.3573 C   0  0  0  0  0  0  0  0  0  0  0  0
   -8.3358    4.4048  -17.7547 C   0  0  0  0  0  0  0  0  0  0  0  0
   -8.8373    4.1359  -19.0962 C   0  0  0  0  0  0  0  0  0  0  0  0
   -9.1436    4.1076  -16.6930 N   0  0  0  0  0  0  0  0  0  0  0  0
   -8.4331    4.4206  -15.6435 C   0  0  0  0  0  0  0  0  0  0  0  0
   -7.2086    4.9263  -15.9916 N   0  0  0  0  0  0  0  0  0  0  0  0
   -6.2310    5.2859  -15.0137 C   0  0  0  0  0  0  0  0  0  0  0  0
  1  2  1  0
  2  3  1  0
  3  4  1  6
  3  5  1  0
  5  6  2  0
  5  7  1  0
  7  8  1  0
  8  9  2  0
  9 10  1  0
  9 11  1  0
 11 12  2  0
 12 13  1  0
 13 14  1  0
 13  8  1  0
M  END
>  <energy_score>  (3400) 
-24.702193

>  <alias>  (3400) 
JTRYZPDLYGNTSW-UHFFFAOYSA-N-P35-P35-P86-601526

>  <HIPPO Pose ID>  (3400) 
77727

>  <smiles>  (3400) 
CCC(F)C(=O)Nc1c(C)ncn1C

>  <inchikey>  (3400) 
JTRYZPDLYGNTSW-UHFFFAOYSA-N

>  <distance_score>  (3400) 
1.297895

>  <ref_mols>  (3400) 
Z0719a,Z1597a

>  <ref_pdb>  (3400) 
Z3093a

>  <HIPPO Compound ID>  (3400) 
149649

>  <name>  (3400) 
JTRYZPDLYGNTSW-UHFFFAOYSA-N-P35-P35-P86-601526

>  <inspiration_score>  (3400) 
None

$$$$
KPNVMSYJQGPCSO-UHFFFAOYSA-N-P86-P35-P86-601526
     RDKit          3D

 14 14  0  0  0  0  0  0  0  0999 V2000
   -8.3825    4.4365  -14.6192 C   0  0  0  0  0  0  0  0  0  0  0  0
   -8.2658    4.3874  -16.0975 C   0  0  0  0  0  0  0  0  0  0  0  0
   -9.1833    3.9695  -16.9453 N   0  0  0  0  0  0  0  0  0  0  0  0
   -8.6607    4.1918  -18.1874 C   0  0  0  0  0  0  0  0  0  0  0  0
   -7.3847    4.7073  -18.1110 C   0  0  0  0  0  0  0  0  0  0  0  0
   -6.5694    5.0208  -19.1625 N   0  0  0  0  0  0  0  0  0  0  0  0
   -5.0312    5.2698  -19.2113 C   0  0  0  0  0  0  0  0  0  0  0  0
   -4.2440    5.3200  -18.3475 O   0  0  0  0  0  0  0  0  0  0  0  0
   -4.6447    5.4224  -20.6630 C   0  0  0  0  0  0  0  0  0  0  0  0
   -4.7201    6.8726  -21.0350 C   0  0  0  0  0  0  0  0  0  0  0  0
   -3.6016    7.5269  -20.6349 F   0  0  0  0  0  0  0  0  0  0  0  0
   -4.7649    6.9949  -22.3881 F   0  0  0  0  0  0  0  0  0  0  0  0
   -7.1440    4.8285  -16.7667 N   0  0  0  0  0  0  0  0  0  0  0  0
   -6.0044    5.4134  -16.1232 C   0  0  0  0  0  0  0  0  0  0  0  0
  1  2  1  0
  2  3  2  0
  3  4  1  0
  4  5  2  0
  5  6  1  0
  6  7  1  0
  7  8  2  0
  7  9  1  0
  9 10  1  0
 10 11  1  0
 10 12  1  0
  5 13  1  0
 13 14  1  0
 13  2  1  0
M  END
>  <energy_score>  (3401) 
-18.023095

>  <alias>  (3401) 
KPNVMSYJQGPCSO-UHFFFAOYSA-N-P86-P35-P86-601526

>  <HIPPO Pose ID>  (3401) 
77734

>  <smiles>  (3401) 
Cc1ncc(NC(=O)CC(F)F)n1C

>  <inchikey>  (3401) 
KPNVMSYJQGPCSO-UHFFFAOYSA-N

>  <distance_score>  (3401) 
0.990097

>  <ref_mols>  (3401) 
Z0719a,Z1597a

>  <ref_pdb>  (3401) 
Z3093a

>  <HIPPO Compound ID>  (3401) 
149652

>  <name>  (3401) 
KPNVMSYJQGPCSO-UHFFFAOYSA-N-P86-P35-P86-601526

>  <inspiration_score>  (3401) 
None

$$$$
POFVKBGZCTZXQS-UHFFFAOYSA-N-P35-P35-P86-601526
     RDKit          3D

 14 14  0  0  0  0  0  0  0  0999 V2000
   -5.1446    3.2655  -13.5637 C   0  0  0  0  0  0  0  0  0  0  0  0
   -6.6025    3.3331  -14.0082 C   0  0  0  0  0  0  0  0  0  0  0  0
   -6.8846    4.0487  -15.2440 N   0  0  0  0  0  0  0  0  0  0  0  0
   -8.1456    4.3637  -15.6876 C   0  0  0  0  0  0  0  0  0  0  0  0
   -8.1143    4.9805  -16.8492 N   0  0  0  0  0  0  0  0  0  0  0  0
   -6.7999    5.0396  -17.1808 C   0  0  0  0  0  0  0  0  0  0  0  0
   -6.3988    5.6046  -18.3431 N   0  0  0  0  0  0  0  0  0  0  0  0
   -4.9785    6.0107  -18.8314 C   0  0  0  0  0  0  0  0  0  0  0  0
   -3.9313    5.8483  -18.3356 O   0  0  0  0  0  0  0  0  0  0  0  0
   -5.1743    6.8028  -20.1021 C   0  0  0  0  0  0  0  0  0  0  0  0
   -3.8322    7.1033  -20.7245 C   0  0  0  0  0  0  0  0  0  0  0  0
   -4.0121    7.9312  -21.7901 F   0  0  0  0  0  0  0  0  0  0  0  0
   -3.2188    5.9923  -21.2129 F   0  0  0  0  0  0  0  0  0  0  0  0
   -6.0150    4.4984  -16.1978 C   0  0  0  0  0  0  0  0  0  0  0  0
  1  2  1  0
  2  3  1  0
  3  4  1  0
  4  5  2  0
  5  6  1  0
  6  7  1  0
  7  8  1  0
  8  9  2  0
  8 10  1  0
 10 11  1  0
 11 12  1  0
 11 13  1  0
  6 14  2  0
 14  3  1  0
M  END
>  <energy_score>  (3402) 
-11.239898

>  <alias>  (3402) 
POFVKBGZCTZXQS-UHFFFAOYSA-N-P35-P35-P86-601526

>  <HIPPO Pose ID>  (3402) 
77735

>  <smiles>  (3402) 
CCn1cnc(NC(=O)CC(F)F)c1

>  <inchikey>  (3402) 
POFVKBGZCTZXQS-UHFFFAOYSA-N

>  <distance_score>  (3402) 
1.447092

>  <ref_mols>  (3402) 
Z0719a,Z1597a

>  <ref_pdb>  (3402) 
Z3093a

>  <HIPPO Compound ID>  (3402) 
149653

>  <name>  (3402) 
POFVKBGZCTZXQS-UHFFFAOYSA-N-P35-P35-P86-601526

>  <inspiration_score>  (3402) 
None

$$$$
MGMVDMJCRQPYRQ-UHFFFAOYSA-N-P35-P35-P86-601526
     RDKit          3D

 14 14  0  0  0  0  0  0  0  0999 V2000
   -5.9806    2.6678  -12.8068 C   0  0  0  0  0  0  0  0  0  0  0  0
   -5.9004    3.6272  -13.9728 C   0  0  0  0  0  0  0  0  0  0  0  0
   -7.2980    3.9235  -14.5614 C   0  0  0  0  0  0  0  0  0  0  0  0
   -7.3079    4.4520  -15.9098 N   0  0  0  0  0  0  0  0  0  0  0  0
   -8.3014    4.3148  -16.8357 C   0  0  0  0  0  0  0  0  0  0  0  0
   -7.8996    4.7278  -18.0213 N   0  0  0  0  0  0  0  0  0  0  0  0
   -6.6405    5.1956  -17.8297 C   0  0  0  0  0  0  0  0  0  0  0  0
   -5.8368    5.6264  -18.8271 N   0  0  0  0  0  0  0  0  0  0  0  0
   -4.4308    6.2859  -18.7761 C   0  0  0  0  0  0  0  0  0  0  0  0
   -3.7198    6.4872  -17.8680 O   0  0  0  0  0  0  0  0  0  0  0  0
   -3.9590    6.5929  -20.1849 C   0  0  0  0  0  0  0  0  0  0  0  0
   -4.8945    7.4705  -20.9858 C   0  0  0  0  0  0  0  0  0  0  0  0
   -4.0794    8.0516  -22.5073 S   0  0  0  0  0  0  0  0  0  0  0  0
   -6.2869    5.1199  -16.5135 C   0  0  0  0  0  0  0  0  0  0  0  0
  1  2  1  0
  2  3  1  0
  3  4  1  0
  4  5  1  0
  5  6  2  0
  6  7  1  0
  7  8  1  0
  8  9  1  0
  9 10  2  0
  9 11  1  0
 11 12  1  0
 12 13  1  0
  7 14  2  0
 14  4  1  0
M  END
>  <energy_score>  (3403) 
-7.268904

>  <alias>  (3403) 
MGMVDMJCRQPYRQ-UHFFFAOYSA-N-P35-P35-P86-601526

>  <HIPPO Pose ID>  (3403) 
77743

>  <smiles>  (3403) 
CCCn1cnc(NC(=O)CCS)c1

>  <inchikey>  (3403) 
MGMVDMJCRQPYRQ-UHFFFAOYSA-N

>  <distance_score>  (3403) 
1.677841

>  <ref_mols>  (3403) 
Z0719a,Z1597a

>  <ref_pdb>  (3403) 
Z3093a

>  <HIPPO Compound ID>  (3403) 
149657

>  <name>  (3403) 
MGMVDMJCRQPYRQ-UHFFFAOYSA-N-P35-P35-P86-601526

>  <inspiration_score>  (3403) 
None

$$$$
SIOXNYZOFWAZSQ-UHFFFAOYSA-N-P35-P35-P86-601526
     RDKit          3D

 14 14  0  0  0  0  0  0  0  0999 V2000
   -1.7769    4.7291  -18.6465 C   0  0  0  0  0  0  0  0  0  0  0  0
   -2.5287    5.7583  -19.2630 O   0  0  0  0  0  0  0  0  0  0  0  0
   -3.9338    5.5222  -19.2907 C   0  0  2  0  0  0  0  0  0  0  0  0
   -4.4850    6.7363  -20.0480 C   0  0  0  0  0  0  0  0  0  0  0  0
   -4.6988    5.2584  -17.9287 C   0  0  0  0  0  0  0  0  0  0  0  0
   -4.1697    5.2105  -16.8879 O   0  0  0  0  0  0  0  0  0  0  0  0
   -6.1961    5.0643  -18.3086 N   0  0  0  0  0  0  0  0  0  0  0  0
   -7.2663    4.6993  -17.5405 C   0  0  0  0  0  0  0  0  0  0  0  0
   -8.5023    4.7661  -18.1414 N   0  0  0  0  0  0  0  0  0  0  0  0
   -9.4457    4.4094  -17.2310 C   0  0  0  0  0  0  0  0  0  0  0  0
   -8.8977    4.0758  -16.0924 N   0  0  0  0  0  0  0  0  0  0  0  0
   -7.5296    4.2444  -16.2533 C   0  0  0  0  0  0  0  0  0  0  0  0
   -6.6789    3.8258  -15.1610 C   0  0  0  0  0  0  0  0  0  0  0  0
   -6.0776    3.4032  -14.2575 N   0  0  0  0  0  0  0  0  0  0  0  0
  1  2  1  0
  2  3  1  0
  3  4  1  1
  3  5  1  0
  5  6  2  0
  5  7  1  0
  7  8  1  0
  8  9  1  0
  9 10  1  0
 10 11  2  0
 11 12  1  0
 12 13  1  0
 13 14  3  0
 12  8  2  0
M  END
>  <energy_score>  (3404) 
-8.114853

>  <alias>  (3404) 
SIOXNYZOFWAZSQ-UHFFFAOYSA-N-P35-P35-P86-601526

>  <HIPPO Pose ID>  (3404) 
77745

>  <smiles>  (3404) 
COC(C)C(=O)Nc1[nH]cnc1C#N

>  <inchikey>  (3404) 
SIOXNYZOFWAZSQ-UHFFFAOYSA-N

>  <distance_score>  (3404) 
1.788919

>  <ref_mols>  (3404) 
Z0719a,Z1597a

>  <ref_pdb>  (3404) 
Z3093a

>  <HIPPO Compound ID>  (3404) 
149658

>  <name>  (3404) 
SIOXNYZOFWAZSQ-UHFFFAOYSA-N-P35-P35-P86-601526

>  <inspiration_score>  (3404) 
None

$$$$
KBTFPZWMXMTBEV-UHFFFAOYSA-N-P35-P35-P86-601526
     RDKit          3D

 14 14  0  0  0  0  0  0  0  0999 V2000
   -9.0289    4.1678  -18.9986 C   0  0  0  0  0  0  0  0  0  0  0  0
   -8.3180    4.4713  -17.7552 C   0  0  0  0  0  0  0  0  0  0  0  0
   -8.9695    4.2521  -16.5703 N   0  0  0  0  0  0  0  0  0  0  0  0
   -8.1021    4.5509  -15.6343 C   0  0  0  0  0  0  0  0  0  0  0  0
   -8.3264    4.4700  -14.1744 C   0  0  0  0  0  0  0  0  0  0  0  0
   -6.8987    4.9232  -16.1857 N   0  0  0  0  0  0  0  0  0  0  0  0
   -5.6986    5.0651  -15.4177 C   0  0  0  0  0  0  0  0  0  0  0  0
   -7.0415    4.9591  -17.5491 C   0  0  0  0  0  0  0  0  0  0  0  0
   -6.1101    5.3398  -18.4808 N   0  0  0  0  0  0  0  0  0  0  0  0
   -4.7349    6.0521  -18.3043 C   0  0  0  0  0  0  0  0  0  0  0  0
   -4.2252    6.4901  -17.3458 O   0  0  0  0  0  0  0  0  0  0  0  0
   -4.0493    6.0921  -19.6568 C   0  0  0  0  0  0  0  0  0  0  0  0
   -4.6349    7.1933  -20.5199 C   0  0  0  0  0  0  0  0  0  0  0  0
   -3.6813    7.4124  -22.0505 S   0  0  0  0  0  0  0  0  0  0  0  0
  1  2  1  0
  2  3  1  0
  3  4  2  0
  4  5  1  0
  4  6  1  0
  6  7  1  0
  6  8  1  0
  8  9  1  0
  9 10  1  0
 10 11  2  0
 10 12  1  0
 12 13  1  0
 13 14  1  0
  8  2  2  0
M  END
>  <energy_score>  (3405) 
-19.950523

>  <alias>  (3405) 
KBTFPZWMXMTBEV-UHFFFAOYSA-N-P35-P35-P86-601526

>  <HIPPO Pose ID>  (3405) 
77755

>  <smiles>  (3405) 
Cc1nc(C)n(C)c1NC(=O)CCS

>  <inchikey>  (3405) 
KBTFPZWMXMTBEV-UHFFFAOYSA-N

>  <distance_score>  (3405) 
1.277089

>  <ref_mols>  (3405) 
Z0719a,Z1597a

>  <ref_pdb>  (3405) 
Z3093a

>  <HIPPO Compound ID>  (3405) 
149663

>  <name>  (3405) 
KBTFPZWMXMTBEV-UHFFFAOYSA-N-P35-P35-P86-601526

>  <inspiration_score>  (3405) 
None

$$$$
XCYFBLNZDZNVEB-UHFFFAOYSA-N-P86-P35-P86-601526
     RDKit          3D

 14 15  0  0  0  0  0  0  0  0999 V2000
   -4.3383    5.4911  -18.2913 O   0  0  0  0  0  0  0  0  0  0  0  0
   -5.0251    5.3514  -19.2277 C   0  0  0  0  0  0  0  0  0  0  0  0
   -4.5149    5.5628  -20.6444 C   0  0  0  0  0  0  0  0  0  0  0  0
   -4.3637    7.0478  -20.8986 C   0  0  0  0  0  0  0  0  0  0  0  0
   -3.6848    7.3655  -22.5537 S   0  0  0  0  0  0  0  0  0  0  0  0
   -6.5037    4.8838  -19.3315 N   0  0  0  0  0  0  0  0  0  0  0  0
   -7.4107    4.6018  -18.3587 C   0  0  0  0  0  0  0  0  0  0  0  0
   -8.7097    4.1415  -18.4912 C   0  0  0  0  0  0  0  0  0  0  0  0
   -9.3144    3.9412  -17.2672 N   0  0  0  0  0  0  0  0  0  0  0  0
   -8.3963    4.3018  -16.4096 C   0  0  0  0  0  0  0  0  0  0  0  0
   -7.2498    4.6967  -17.0272 N   0  0  0  0  0  0  0  0  0  0  0  0
   -6.2698    5.2405  -16.1186 C   0  0  0  0  0  0  0  0  0  0  0  0
   -7.0576    5.3644  -14.8098 C   0  0  0  0  0  0  0  0  0  0  0  0
   -8.3027    4.4629  -14.9519 C   0  0  0  0  0  0  0  0  0  0  0  0
  1  2  2  0
  2  3  1  0
  3  4  1  0
  4  5  1  0
  2  6  1  0
  6  7  1  0
  7  8  2  0
  8  9  1  0
  9 10  2  0
 10 11  1  0
 11 12  1  0
 12 13  1  0
 13 14  1  0
 11  7  1  0
 14 10  1  0
M  END
>  <energy_score>  (3406) 
-6.41524

>  <alias>  (3406) 
XCYFBLNZDZNVEB-UHFFFAOYSA-N-P86-P35-P86-601526

>  <HIPPO Pose ID>  (3406) 
77758

>  <smiles>  (3406) 
O=C(CCS)Nc1cnc2n1CCC2

>  <inchikey>  (3406) 
XCYFBLNZDZNVEB-UHFFFAOYSA-N

>  <distance_score>  (3406) 
1.153266

>  <ref_mols>  (3406) 
Z0719a,Z1597a

>  <ref_pdb>  (3406) 
Z3093a

>  <HIPPO Compound ID>  (3406) 
149664

>  <name>  (3406) 
XCYFBLNZDZNVEB-UHFFFAOYSA-N-P86-P35-P86-601526

>  <inspiration_score>  (3406) 
None

$$$$
RKMQTDKQWSZRQN-UHFFFAOYSA-N-P86-P35-P86-601526
     RDKit          3D

 14 14  0  0  0  0  0  0  0  0999 V2000
   -8.2099    4.2040  -14.8643 C   0  0  0  0  0  0  0  0  0  0  0  0
   -7.9971    4.3989  -16.3174 C   0  0  0  0  0  0  0  0  0  0  0  0
   -8.7622    3.9463  -17.2884 N   0  0  0  0  0  0  0  0  0  0  0  0
   -8.1387    4.3285  -18.4468 C   0  0  0  0  0  0  0  0  0  0  0  0
   -6.9645    5.0126  -18.1914 C   0  0  0  0  0  0  0  0  0  0  0  0
   -6.0639    5.4971  -19.1073 N   0  0  0  0  0  0  0  0  0  0  0  0
   -4.6517    6.1428  -18.9012 C   0  0  0  0  0  0  0  0  0  0  0  0
   -4.0816    6.4270  -17.9136 O   0  0  0  0  0  0  0  0  0  0  0  0
   -3.9355    6.3712  -20.2853 C   0  0  0  0  0  0  0  0  0  0  0  0
   -4.7973    6.5019  -21.5324 C   0  0  0  0  0  0  0  0  0  0  0  0
   -2.8811    5.2773  -20.4688 C   0  0  0  0  0  0  0  0  0  0  0  0
   -3.0386    8.0023  -20.1559 S   0  0  0  0  0  0  0  0  0  0  0  0
   -6.9244    5.0986  -16.8220 N   0  0  0  0  0  0  0  0  0  0  0  0
   -6.0200    5.8447  -15.9975 C   0  0  0  0  0  0  0  0  0  0  0  0
  1  2  1  0
  2  3  2  0
  3  4  1  0
  4  5  2  0
  5  6  1  0
  6  7  1  0
  7  8  2  0
  7  9  1  0
  9 10  1  0
  9 11  1  0
  9 12  1  0
  5 13  1  0
 13 14  1  0
 13  2  1  0
M  END
>  <energy_score>  (3407) 
-20.277511

>  <alias>  (3407) 
RKMQTDKQWSZRQN-UHFFFAOYSA-N-P86-P35-P86-601526

>  <HIPPO Pose ID>  (3407) 
77770

>  <smiles>  (3407) 
Cc1ncc(NC(=O)C(C)(C)S)n1C

>  <inchikey>  (3407) 
RKMQTDKQWSZRQN-UHFFFAOYSA-N

>  <distance_score>  (3407) 
1.155478

>  <ref_mols>  (3407) 
Z0719a,Z1597a

>  <ref_pdb>  (3407) 
Z3093a

>  <HIPPO Compound ID>  (3407) 
149670

>  <name>  (3407) 
RKMQTDKQWSZRQN-UHFFFAOYSA-N-P86-P35-P86-601526

>  <inspiration_score>  (3407) 
None

$$$$
GMSHYFBWQBVWHN-UHFFFAOYSA-N-P86-P35-P86-601526
     RDKit          3D

 14 14  0  0  0  0  0  0  0  0999 V2000
   -3.5742    7.7495  -20.3353 C   0  0  0  0  0  0  0  0  0  0  0  0
   -4.6332    6.7976  -20.8711 C   0  0  0  0  0  0  0  0  0  0  0  0
   -4.5032    5.3929  -20.3015 C   0  0  0  0  0  0  0  0  0  0  0  0
   -4.9106    5.3116  -18.8328 C   0  0  0  0  0  0  0  0  0  0  0  0
   -4.1416    5.4347  -17.9628 O   0  0  0  0  0  0  0  0  0  0  0  0
   -6.4344    5.0254  -18.7943 N   0  0  0  0  0  0  0  0  0  0  0  0
   -7.2540    4.7549  -17.7471 C   0  0  0  0  0  0  0  0  0  0  0  0
   -8.5528    4.4575  -18.0453 N   0  0  0  0  0  0  0  0  0  0  0  0
   -9.1490    4.2397  -16.8955 C   0  0  0  0  0  0  0  0  0  0  0  0
   -8.2848    4.4091  -15.8650 N   0  0  0  0  0  0  0  0  0  0  0  0
   -8.5749    4.3765  -14.4536 C   0  0  0  0  0  0  0  0  0  0  0  0
   -7.0524    4.7020  -16.3893 C   0  0  0  0  0  0  0  0  0  0  0  0
   -5.9233    4.8667  -15.5583 C   0  0  0  0  0  0  0  0  0  0  0  0
   -5.1049    4.9485  -14.7407 N   0  0  0  0  0  0  0  0  0  0  0  0
  1  2  1  0
  2  3  1  0
  3  4  1  0
  4  5  2  0
  4  6  1  0
  6  7  1  0
  7  8  1  0
  8  9  2  0
  9 10  1  0
 10 11  1  0
 10 12  1  0
 12 13  1  0
 13 14  3  0
 12  7  2  0
M  END
>  <energy_score>  (3408) 
-22.241527

>  <alias>  (3408) 
GMSHYFBWQBVWHN-UHFFFAOYSA-N-P86-P35-P86-601526

>  <HIPPO Pose ID>  (3408) 
77772

>  <smiles>  (3408) 
CCCC(=O)Nc1ncn(C)c1C#N

>  <inchikey>  (3408) 
GMSHYFBWQBVWHN-UHFFFAOYSA-N

>  <distance_score>  (3408) 
1.686827

>  <ref_mols>  (3408) 
Z0719a,Z1597a

>  <ref_pdb>  (3408) 
Z3093a

>  <HIPPO Compound ID>  (3408) 
149671

>  <name>  (3408) 
GMSHYFBWQBVWHN-UHFFFAOYSA-N-P86-P35-P86-601526

>  <inspiration_score>  (3408) 
None

$$$$
GSSMNZGSJGMAQT-UHFFFAOYSA-N-P35-P35-P86-601526
     RDKit          3D

 14 15  0  0  0  0  0  0  0  0999 V2000
   -5.1787    3.1875  -13.4719 C   0  0  0  0  0  0  0  0  0  0  0  0
   -6.6189    3.3065  -13.9629 C   0  0  0  0  0  0  0  0  0  0  0  0
   -6.8353    4.0462  -15.1957 N   0  0  0  0  0  0  0  0  0  0  0  0
   -8.0654    4.4223  -15.6758 C   0  0  0  0  0  0  0  0  0  0  0  0
   -7.9631    5.0778  -16.8125 N   0  0  0  0  0  0  0  0  0  0  0  0
   -6.6354    5.0798  -17.0993 C   0  0  0  0  0  0  0  0  0  0  0  0
   -6.1606    5.6447  -18.2320 N   0  0  0  0  0  0  0  0  0  0  0  0
   -4.6984    5.8306  -18.7324 C   0  0  0  0  0  0  0  0  0  0  0  0
   -3.6795    5.5927  -18.2052 O   0  0  0  0  0  0  0  0  0  0  0  0
   -4.7583    6.5233  -20.0891 C   0  0  0  0  0  0  0  0  0  0  0  0
   -4.3281    7.9558  -20.0236 C   0  0  0  0  0  0  0  0  0  0  0  0
   -5.2908    9.0199  -19.5683 C   0  0  0  0  0  0  0  0  0  0  0  0
   -4.8728    8.9548  -21.0117 C   0  0  0  0  0  0  0  0  0  0  0  0
   -5.9138    4.4705  -16.1093 C   0  0  0  0  0  0  0  0  0  0  0  0
  1  2  1  0
  2  3  1  0
  3  4  1  0
  4  5  2  0
  5  6  1  0
  6  7  1  0
  7  8  1  0
  8  9  2  0
  8 10  1  0
 10 11  1  0
 11 12  1  0
 12 13  1  0
  6 14  2  0
 14  3  1  0
 13 11  1  0
M  END
>  <energy_score>  (3409) 
-39.308234

>  <alias>  (3409) 
GSSMNZGSJGMAQT-UHFFFAOYSA-N-P35-P35-P86-601526

>  <HIPPO Pose ID>  (3409) 
77775

>  <smiles>  (3409) 
CCn1cnc(NC(=O)CC2CC2)c1

>  <inchikey>  (3409) 
GSSMNZGSJGMAQT-UHFFFAOYSA-N

>  <distance_score>  (3409) 
1.870234

>  <ref_mols>  (3409) 
Z0719a,Z1597a

>  <ref_pdb>  (3409) 
Z3093a

>  <HIPPO Compound ID>  (3409) 
149673

>  <name>  (3409) 
GSSMNZGSJGMAQT-UHFFFAOYSA-N-P35-P35-P86-601526

>  <inspiration_score>  (3409) 
None

$$$$
MAWUSJRSTDHINP-UHFFFAOYSA-N-P86-P35-P86-601526
     RDKit          3D

 14 14  0  0  0  0  0  0  0  0999 V2000
   -4.4785    8.1196  -20.3315 C   0  0  0  0  0  0  0  0  0  0  0  0
   -4.6658    6.9957  -21.0408 C   0  0  0  0  0  0  0  0  0  0  0  0
   -4.8871    7.1101  -22.9066 Br  0  0  0  0  0  0  0  0  0  0  0  0
   -4.7297    5.5894  -20.5065 C   0  0  0  0  0  0  0  0  0  0  0  0
   -4.7740    5.4990  -18.9750 C   0  0  0  0  0  0  0  0  0  0  0  0
   -3.8117    5.6426  -18.3233 O   0  0  0  0  0  0  0  0  0  0  0  0
   -6.2413    5.1923  -18.5534 N   0  0  0  0  0  0  0  0  0  0  0  0
   -6.7683    4.9240  -17.3344 C   0  0  0  0  0  0  0  0  0  0  0  0
   -6.1074    4.8973  -16.1345 C   0  0  0  0  0  0  0  0  0  0  0  0
   -7.0158    4.4341  -15.2234 N   0  0  0  0  0  0  0  0  0  0  0  0
   -6.8360    4.2329  -13.7943 C   0  0  0  0  0  0  0  0  0  0  0  0
   -5.4781    3.7626  -13.2692 C   0  0  0  0  0  0  0  0  0  0  0  0
   -8.2062    4.3081  -15.8970 C   0  0  0  0  0  0  0  0  0  0  0  0
   -8.0775    4.6036  -17.1745 N   0  0  0  0  0  0  0  0  0  0  0  0
  1  2  2  0
  2  3  1  0
  2  4  1  0
  4  5  1  0
  5  6  2  0
  5  7  1  0
  7  8  1  0
  8  9  2  0
  9 10  1  0
 10 11  1  0
 11 12  1  0
 10 13  1  0
 13 14  2  0
 14  8  1  0
M  END
>  <energy_score>  (3410) 
-23.302437

>  <alias>  (3410) 
MAWUSJRSTDHINP-UHFFFAOYSA-N-P86-P35-P86-601526

>  <HIPPO Pose ID>  (3410) 
77780

>  <smiles>  (3410) 
C=C(Br)CC(=O)Nc1cn(CC)cn1

>  <inchikey>  (3410) 
MAWUSJRSTDHINP-UHFFFAOYSA-N

>  <distance_score>  (3410) 
1.998297

>  <ref_mols>  (3410) 
Z0719a,Z1597a

>  <ref_pdb>  (3410) 
Z3093a

>  <HIPPO Compound ID>  (3410) 
149675

>  <name>  (3410) 
MAWUSJRSTDHINP-UHFFFAOYSA-N-P86-P35-P86-601526

>  <inspiration_score>  (3410) 
None

$$$$
QNLWYYDZRHRJCK-UHFFFAOYSA-N-P35-P35-P86-601526
     RDKit          3D

 14 14  0  0  0  0  0  0  0  0999 V2000
   -3.3138    8.4212  -20.4304 C   0  0  0  0  0  0  0  0  0  0  0  0
   -4.0318    7.1749  -20.9305 C   0  0  0  0  0  0  0  0  0  0  0  0
   -5.4049    6.9897  -20.2878 C   0  0  0  0  0  0  0  0  0  0  0  0
   -5.3328    6.3386  -18.9092 C   0  0  0  0  0  0  0  0  0  0  0  0
   -4.3734    6.3588  -18.2404 O   0  0  0  0  0  0  0  0  0  0  0  0
   -6.7578    5.7948  -18.6101 N   0  0  0  0  0  0  0  0  0  0  0  0
   -7.2344    5.1257  -17.5366 C   0  0  0  0  0  0  0  0  0  0  0  0
   -6.5627    4.7253  -16.4107 C   0  0  0  0  0  0  0  0  0  0  0  0
   -7.5177    4.1875  -15.5957 N   0  0  0  0  0  0  0  0  0  0  0  0
   -7.3986    3.6817  -14.2388 C   0  0  0  0  0  0  0  0  0  0  0  0
   -6.0949    3.9094  -13.4539 C   0  0  0  0  0  0  0  0  0  0  0  0
   -5.0173    2.8846  -13.7241 C   0  0  0  0  0  0  0  0  0  0  0  0
   -8.7058    4.2761  -16.2716 C   0  0  0  0  0  0  0  0  0  0  0  0
   -8.5541    4.8295  -17.4513 N   0  0  0  0  0  0  0  0  0  0  0  0
  1  2  1  0
  2  3  1  0
  3  4  1  0
  4  5  2  0
  4  6  1  0
  6  7  1  0
  7  8  2  0
  8  9  1  0
  9 10  1  0
 10 11  1  0
 11 12  1  0
  9 13  1  0
 13 14  2  0
 14  7  1  0
M  END
>  <energy_score>  (3411) 
-6.498305

>  <alias>  (3411) 
QNLWYYDZRHRJCK-UHFFFAOYSA-N-P35-P35-P86-601526

>  <HIPPO Pose ID>  (3411) 
77797

>  <smiles>  (3411) 
CCCC(=O)Nc1cn(CCC)cn1

>  <inchikey>  (3411) 
QNLWYYDZRHRJCK-UHFFFAOYSA-N

>  <distance_score>  (3411) 
1.901713

>  <ref_mols>  (3411) 
Z0719a,Z1597a

>  <ref_pdb>  (3411) 
Z3093a

>  <HIPPO Compound ID>  (3411) 
149684

>  <name>  (3411) 
QNLWYYDZRHRJCK-UHFFFAOYSA-N-P35-P35-P86-601526

>  <inspiration_score>  (3411) 
None

$$$$
MSRYQXJWWQIOGM-UHFFFAOYSA-N-P86-P35-P86-601526
     RDKit          3D

 14 14  0  0  0  0  0  0  0  0999 V2000
   -4.8758    6.4982  -22.1966 C   0  0  0  0  0  0  0  0  0  0  0  0
   -4.4216    7.2529  -20.9593 C   0  0  0  0  0  0  0  0  0  0  0  0
   -3.6599    6.4982  -19.8757 C   0  0  2  0  0  0  0  0  0  0  0  0
   -2.6815    4.9298  -20.4415 Br  0  0  0  0  0  0  0  0  0  0  0  0
   -4.4129    6.1391  -18.5866 C   0  0  0  0  0  0  0  0  0  0  0  0
   -3.9136    6.3528  -17.5466 O   0  0  0  0  0  0  0  0  0  0  0  0
   -5.8214    5.5571  -18.9328 N   0  0  0  0  0  0  0  0  0  0  0  0
   -6.8061    5.0600  -18.1149 C   0  0  0  0  0  0  0  0  0  0  0  0
   -7.9480    4.3671  -18.4736 C   0  0  0  0  0  0  0  0  0  0  0  0
   -8.6675    3.9766  -17.3745 N   0  0  0  0  0  0  0  0  0  0  0  0
   -7.9827    4.4170  -16.3405 C   0  0  0  0  0  0  0  0  0  0  0  0
   -8.2849    4.1704  -14.9136 C   0  0  0  0  0  0  0  0  0  0  0  0
   -6.8882    5.1426  -16.7475 N   0  0  0  0  0  0  0  0  0  0  0  0
   -6.0671    5.8879  -15.8388 C   0  0  0  0  0  0  0  0  0  0  0  0
  1  2  1  0
  2  3  1  0
  3  4  1  6
  3  5  1  0
  5  6  2  0
  5  7  1  0
  7  8  1  0
  8  9  2  0
  9 10  1  0
 10 11  2  0
 11 12  1  0
 11 13  1  0
 13 14  1  0
 13  8  1  0
M  END
>  <energy_score>  (3412) 
-17.470909

>  <alias>  (3412) 
MSRYQXJWWQIOGM-UHFFFAOYSA-N-P86-P35-P86-601526

>  <HIPPO Pose ID>  (3412) 
77804

>  <smiles>  (3412) 
CCC(Br)C(=O)Nc1cnc(C)n1C

>  <inchikey>  (3412) 
MSRYQXJWWQIOGM-UHFFFAOYSA-N

>  <distance_score>  (3412) 
1.359065

>  <ref_mols>  (3412) 
Z0719a,Z1597a

>  <ref_pdb>  (3412) 
Z3093a

>  <HIPPO Compound ID>  (3412) 
149687

>  <name>  (3412) 
MSRYQXJWWQIOGM-UHFFFAOYSA-N-P86-P35-P86-601526

>  <inspiration_score>  (3412) 
None

$$$$
JEKVGTHLWOPHLT-UHFFFAOYSA-N-P35-P35-P86-601526
     RDKit          3D

 14 14  0  0  0  0  0  0  0  0999 V2000
   -4.1655    7.7809  -21.7594 C   0  0  0  0  0  0  0  0  0  0  0  0
   -4.5949    6.9284  -20.5723 C   0  0  0  0  0  0  0  0  0  0  0  0
   -4.3845    7.6131  -19.2325 C   0  0  1  0  0  0  0  0  0  0  0  0
   -5.6637    9.0589  -18.9425 Br  0  0  0  0  0  0  0  0  0  0  0  0
   -4.4417    6.6344  -18.0524 C   0  0  0  0  0  0  0  0  0  0  0  0
   -3.4596    6.3329  -17.4879 O   0  0  0  0  0  0  0  0  0  0  0  0
   -5.9106    6.1613  -17.8445 N   0  0  0  0  0  0  0  0  0  0  0  0
   -6.4478    5.3498  -16.9035 C   0  0  0  0  0  0  0  0  0  0  0  0
   -5.7879    4.6660  -15.9190 C   0  0  0  0  0  0  0  0  0  0  0  0
   -6.7617    4.0617  -15.1762 N   0  0  0  0  0  0  0  0  0  0  0  0
   -6.6177    3.2677  -13.9653 C   0  0  0  0  0  0  0  0  0  0  0  0
   -5.2020    3.0872  -13.4229 C   0  0  0  0  0  0  0  0  0  0  0  0
   -7.9586    4.3734  -15.7737 C   0  0  0  0  0  0  0  0  0  0  0  0
   -7.7905    5.1659  -16.8125 N   0  0  0  0  0  0  0  0  0  0  0  0
  1  2  1  0
  2  3  1  0
  3  4  1  1
  3  5  1  0
  5  6  2  0
  5  7  1  0
  7  8  1  0
  8  9  2  0
  9 10  1  0
 10 11  1  0
 11 12  1  0
 10 13  1  0
 13 14  2  0
 14  8  1  0
M  END
>  <energy_score>  (3413) 
-31.007513

>  <alias>  (3413) 
JEKVGTHLWOPHLT-UHFFFAOYSA-N-P35-P35-P86-601526

>  <HIPPO Pose ID>  (3413) 
77805

>  <smiles>  (3413) 
CCC(Br)C(=O)Nc1cn(CC)cn1

>  <inchikey>  (3413) 
JEKVGTHLWOPHLT-UHFFFAOYSA-N

>  <distance_score>  (3413) 
1.987604

>  <ref_mols>  (3413) 
Z0719a,Z1597a

>  <ref_pdb>  (3413) 
Z3093a

>  <HIPPO Compound ID>  (3413) 
149688

>  <name>  (3413) 
JEKVGTHLWOPHLT-UHFFFAOYSA-N-P35-P35-P86-601526

>  <inspiration_score>  (3413) 
None

$$$$
AERJILSALBTJDN-UHFFFAOYSA-N-P35-P35-P86-601526
     RDKit          3D

 14 14  0  0  0  0  0  0  0  0999 V2000
   -8.9866    4.1777  -19.0115 C   0  0  0  0  0  0  0  0  0  0  0  0
   -8.4316    4.4314  -17.6871 C   0  0  0  0  0  0  0  0  0  0  0  0
   -9.1963    4.1470  -16.5921 N   0  0  0  0  0  0  0  0  0  0  0  0
   -8.4279    4.4262  -15.5730 C   0  0  0  0  0  0  0  0  0  0  0  0
   -7.2006    4.8847  -15.9726 N   0  0  0  0  0  0  0  0  0  0  0  0
   -6.1687    5.2179  -15.0424 C   0  0  0  0  0  0  0  0  0  0  0  0
   -7.1712    4.8755  -17.3394 C   0  0  0  0  0  0  0  0  0  0  0  0
   -6.1532    5.1594  -18.2098 N   0  0  0  0  0  0  0  0  0  0  0  0
   -4.7110    5.6836  -17.9427 C   0  0  0  0  0  0  0  0  0  0  0  0
   -4.2011    6.0250  -16.9470 O   0  0  0  0  0  0  0  0  0  0  0  0
   -3.9704    5.6121  -19.2726 C   0  0  0  0  0  0  0  0  0  0  0  0
   -4.0547    6.8738  -20.1178 C   0  0  1  0  0  0  0  0  0  0  0  0
   -5.4332    7.4698  -20.3086 C   0  0  0  0  0  0  0  0  0  0  0  0
   -3.2625    7.8275  -19.5483 F   0  0  0  0  0  0  0  0  0  0  0  0
  1  2  1  0
  2  3  1  0
  3  4  2  0
  4  5  1  0
  5  6  1  0
  5  7  1  0
  7  8  1  0
  8  9  1  0
  9 10  2  0
  9 11  1  0
 11 12  1  0
 12 13  1  1
 12 14  1  0
  7  2  2  0
M  END
>  <energy_score>  (3414) 
-18.970876

>  <alias>  (3414) 
AERJILSALBTJDN-UHFFFAOYSA-N-P35-P35-P86-601526

>  <HIPPO Pose ID>  (3414) 
77809

>  <smiles>  (3414) 
Cc1ncn(C)c1NC(=O)CC(C)F

>  <inchikey>  (3414) 
AERJILSALBTJDN-UHFFFAOYSA-N

>  <distance_score>  (3414) 
1.304424

>  <ref_mols>  (3414) 
Z0719a,Z1597a

>  <ref_pdb>  (3414) 
Z3093a

>  <HIPPO Compound ID>  (3414) 
149690

>  <name>  (3414) 
AERJILSALBTJDN-UHFFFAOYSA-N-P35-P35-P86-601526

>  <inspiration_score>  (3414) 
None

$$$$
OHTSGXCYIQYFND-UHFFFAOYSA-N-P35-P35-P86-601526
     RDKit          3D

 14 14  0  0  0  0  0  0  0  0999 V2000
   -4.1723    6.5680  -19.7450 C   0  0  0  0  0  0  0  0  0  0  0  0
   -3.8411    5.2295  -19.0668 C   0  0  1  0  0  0  0  0  0  0  0  0
   -2.3540    5.1265  -18.7313 C   0  0  0  0  0  0  0  0  0  0  0  0
   -1.2916    4.8769  -20.3497 Br  0  0  0  0  0  0  0  0  0  0  0  0
   -4.6504    5.0000  -17.7706 C   0  0  0  0  0  0  0  0  0  0  0  0
   -4.1562    4.8682  -16.7216 O   0  0  0  0  0  0  0  0  0  0  0  0
   -6.1423    4.9521  -18.1915 N   0  0  0  0  0  0  0  0  0  0  0  0
   -7.2593    4.6549  -17.4647 C   0  0  0  0  0  0  0  0  0  0  0  0
   -8.4733    4.7811  -18.0969 N   0  0  0  0  0  0  0  0  0  0  0  0
   -9.4521    4.4470  -17.2144 C   0  0  0  0  0  0  0  0  0  0  0  0
   -8.9476    4.0926  -16.0613 N   0  0  0  0  0  0  0  0  0  0  0  0
   -7.5720    4.2086  -16.1863 C   0  0  0  0  0  0  0  0  0  0  0  0
   -6.7555    3.7573  -15.0804 C   0  0  0  0  0  0  0  0  0  0  0  0
   -6.1718    3.3175  -14.1735 N   0  0  0  0  0  0  0  0  0  0  0  0
  2  1  1  1
  2  3  1  0
  3  4  1  0
  2  5  1  0
  5  6  2  0
  5  7  1  0
  7  8  1  0
  8  9  1  0
  9 10  1  0
 10 11  2  0
 11 12  1  0
 12 13  1  0
 13 14  3  0
 12  8  2  0
M  END
>  <energy_score>  (3415) 
-17.62344

>  <alias>  (3415) 
OHTSGXCYIQYFND-UHFFFAOYSA-N-P35-P35-P86-601526

>  <HIPPO Pose ID>  (3415) 
77815

>  <smiles>  (3415) 
CC(CBr)C(=O)Nc1[nH]cnc1C#N

>  <inchikey>  (3415) 
OHTSGXCYIQYFND-UHFFFAOYSA-N

>  <distance_score>  (3415) 
1.811049

>  <ref_mols>  (3415) 
Z0719a,Z1597a

>  <ref_pdb>  (3415) 
Z3093a

>  <HIPPO Compound ID>  (3415) 
149693

>  <name>  (3415) 
OHTSGXCYIQYFND-UHFFFAOYSA-N-P35-P35-P86-601526

>  <inspiration_score>  (3415) 
None

$$$$
OVCKDOJUYJMHKW-UHFFFAOYSA-N-P86-P35-P86-601526
     RDKit          3D

 14 14  0  0  0  0  0  0  0  0999 V2000
   -2.7282    5.4331  -18.9882 C   0  0  0  0  0  0  0  0  0  0  0  0
   -4.0062    5.7852  -19.2044 C   0  0  0  0  0  0  0  0  0  0  0  0
   -4.4973    6.3135  -20.5173 C   0  0  0  0  0  0  0  0  0  0  0  0
   -4.9342    5.7073  -18.0183 C   0  0  0  0  0  0  0  0  0  0  0  0
   -4.6191    6.0915  -16.9647 O   0  0  0  0  0  0  0  0  0  0  0  0
   -6.2296    5.0152  -18.4826 N   0  0  0  0  0  0  0  0  0  0  0  0
   -7.3057    4.5905  -17.7730 C   0  0  0  0  0  0  0  0  0  0  0  0
   -8.3445    4.1127  -18.5292 N   0  0  0  0  0  0  0  0  0  0  0  0
   -9.3354    3.8935  -17.6991 C   0  0  0  0  0  0  0  0  0  0  0  0
   -8.9522    4.0984  -16.4148 N   0  0  0  0  0  0  0  0  0  0  0  0
   -7.6590    4.5491  -16.4538 C   0  0  0  0  0  0  0  0  0  0  0  0
   -7.0512    4.8670  -15.2300 N   0  0  0  0  0  0  0  0  0  0  0  0
   -5.8981    4.4963  -15.0130 O   0  0  0  0  0  0  0  0  0  0  0  0
   -7.7958    5.4542  -14.4372 O   0  0  0  0  0  0  0  0  0  0  0  0
  1  2  2  0
  2  3  1  0
  2  4  1  0
  4  5  2  0
  4  6  1  0
  6  7  1  0
  7  8  1  0
  8  9  2  0
  9 10  1  0
 10 11  1  0
 11 12  1  0
 12 13  2  0
 12 14  1  0
 11  7  2  0
M  CHG  2  12   1  14  -1
M  END
>  <energy_score>  (3416) 
-25.396173

>  <alias>  (3416) 
OVCKDOJUYJMHKW-UHFFFAOYSA-N-P86-P35-P86-601526

>  <HIPPO Pose ID>  (3416) 
77820

>  <smiles>  (3416) 
C=C(C)C(=O)Nc1nc[nH]c1[N+](=O)[O-]

>  <inchikey>  (3416) 
OVCKDOJUYJMHKW-UHFFFAOYSA-N

>  <distance_score>  (3416) 
1.396961

>  <ref_mols>  (3416) 
Z0719a,Z1597a

>  <ref_pdb>  (3416) 
Z3093a

>  <HIPPO Compound ID>  (3416) 
149695

>  <name>  (3416) 
OVCKDOJUYJMHKW-UHFFFAOYSA-N-P86-P35-P86-601526

>  <inspiration_score>  (3416) 
None

$$$$
AMCVDAPFGRRRFA-UHFFFAOYSA-N-P86-P35-P86-601526
     RDKit          3D

 14 14  0  0  0  0  0  0  0  0999 V2000
   -2.7309    5.1988  -19.8008 C   0  0  0  0  0  0  0  0  0  0  0  0
   -3.9244    5.8132  -19.8196 C   0  0  0  0  0  0  0  0  0  0  0  0
   -4.5268    6.4356  -21.0337 C   0  0  0  0  0  0  0  0  0  0  0  0
   -4.6336    5.9422  -18.5070 C   0  0  0  0  0  0  0  0  0  0  0  0
   -4.1480    6.4798  -17.5915 O   0  0  0  0  0  0  0  0  0  0  0  0
   -5.9849    5.1972  -18.6324 N   0  0  0  0  0  0  0  0  0  0  0  0
   -6.9269    4.8933  -17.6816 C   0  0  0  0  0  0  0  0  0  0  0  0
   -8.1504    4.2879  -17.8937 C   0  0  0  0  0  0  0  0  0  0  0  0
   -8.7380    3.7924  -19.1401 C   0  0  0  0  0  0  0  0  0  0  0  0
   -8.8442    4.1244  -16.7255 N   0  0  0  0  0  0  0  0  0  0  0  0
   -8.0449    4.5639  -15.7827 C   0  0  0  0  0  0  0  0  0  0  0  0
   -8.3213    4.5423  -14.3288 C   0  0  0  0  0  0  0  0  0  0  0  0
   -6.8622    5.0279  -16.3181 N   0  0  0  0  0  0  0  0  0  0  0  0
   -5.7435    5.4356  -15.5240 C   0  0  0  0  0  0  0  0  0  0  0  0
  1  2  2  0
  2  3  1  0
  2  4  1  0
  4  5  2  0
  4  6  1  0
  6  7  1  0
  7  8  2  0
  8  9  1  0
  8 10  1  0
 10 11  2  0
 11 12  1  0
 11 13  1  0
 13 14  1  0
 13  7  1  0
M  END
>  <energy_score>  (3417) 
-15.117497

>  <alias>  (3417) 
AMCVDAPFGRRRFA-UHFFFAOYSA-N-P86-P35-P86-601526

>  <HIPPO Pose ID>  (3417) 
77822

>  <smiles>  (3417) 
C=C(C)C(=O)Nc1c(C)nc(C)n1C

>  <inchikey>  (3417) 
AMCVDAPFGRRRFA-UHFFFAOYSA-N

>  <distance_score>  (3417) 
1.33925

>  <ref_mols>  (3417) 
Z0719a,Z1597a

>  <ref_pdb>  (3417) 
Z3093a

>  <HIPPO Compound ID>  (3417) 
149696

>  <name>  (3417) 
AMCVDAPFGRRRFA-UHFFFAOYSA-N-P86-P35-P86-601526

>  <inspiration_score>  (3417) 
None

$$$$
RAJRDJWSUJPFHX-UHFFFAOYSA-N-P86-P35-P86-601526
     RDKit          3D

 14 14  0  0  0  0  0  0  0  0999 V2000
   -2.5272    5.9980  -21.0514 C   0  0  0  0  0  0  0  0  0  0  0  0
   -3.6251    6.7489  -20.8816 C   0  0  0  0  0  0  0  0  0  0  0  0
   -3.5372    8.6192  -20.9573 Br  0  0  0  0  0  0  0  0  0  0  0  0
   -4.9966    6.1812  -20.6634 C   0  0  0  0  0  0  0  0  0  0  0  0
   -5.3352    6.0159  -19.1724 C   0  0  0  0  0  0  0  0  0  0  0  0
   -4.6699    6.4116  -18.2943 O   0  0  0  0  0  0  0  0  0  0  0  0
   -6.6481    5.1706  -19.1453 N   0  0  0  0  0  0  0  0  0  0  0  0
   -7.4112    4.7493  -18.0911 C   0  0  0  0  0  0  0  0  0  0  0  0
   -8.6413    4.1302  -18.1729 C   0  0  0  0  0  0  0  0  0  0  0  0
   -9.1628    3.8849  -16.9343 N   0  0  0  0  0  0  0  0  0  0  0  0
   -8.2742    4.3550  -16.0833 C   0  0  0  0  0  0  0  0  0  0  0  0
   -8.3975    4.4116  -14.6057 C   0  0  0  0  0  0  0  0  0  0  0  0
   -7.1594    4.8220  -16.7466 N   0  0  0  0  0  0  0  0  0  0  0  0
   -5.9664    5.2548  -16.0808 C   0  0  0  0  0  0  0  0  0  0  0  0
  1  2  2  0
  2  3  1  0
  2  4  1  0
  4  5  1  0
  5  6  2  0
  5  7  1  0
  7  8  1  0
  8  9  2  0
  9 10  1  0
 10 11  2  0
 11 12  1  0
 11 13  1  0
 13 14  1  0
 13  8  1  0
M  END
>  <energy_score>  (3418) 
-24.34788

>  <alias>  (3418) 
RAJRDJWSUJPFHX-UHFFFAOYSA-N-P86-P35-P86-601526

>  <HIPPO Pose ID>  (3418) 
77834

>  <smiles>  (3418) 
C=C(Br)CC(=O)Nc1cnc(C)n1C

>  <inchikey>  (3418) 
RAJRDJWSUJPFHX-UHFFFAOYSA-N

>  <distance_score>  (3418) 
1.11729

>  <ref_mols>  (3418) 
Z0719a,Z1597a

>  <ref_pdb>  (3418) 
Z3093a

>  <HIPPO Compound ID>  (3418) 
149702

>  <name>  (3418) 
RAJRDJWSUJPFHX-UHFFFAOYSA-N-P86-P35-P86-601526

>  <inspiration_score>  (3418) 
None

$$$$
HVLCFOHOBBZEDJ-UHFFFAOYSA-N-P86-P35-P86-601526
     RDKit          3D

 14 15  0  0  0  0  0  0  0  0999 V2000
   -9.0302    4.0271  -17.0492 C   0  0  0  0  0  0  0  0  0  0  0  0
   -7.7634    4.7049  -16.6334 C   0  0  1  0  0  0  0  0  0  0  0  0
   -7.4523    5.0605  -15.1844 C   0  0  0  0  0  0  0  0  0  0  0  0
   -6.7088    5.9455  -15.0175 O   0  0  0  0  0  0  0  0  0  0  0  0
   -8.1151    4.0985  -14.1632 N   0  0  0  0  0  0  0  0  0  0  0  0
   -7.9341    3.9752  -12.8112 C   0  0  0  0  0  0  0  0  0  0  0  0
   -8.7505    3.2883  -11.9536 N   0  0  0  0  0  0  0  0  0  0  0  0
   -8.2423    3.4186  -10.6862 C   0  0  0  0  0  0  0  0  0  0  0  0
   -7.1029    4.0763  -10.6875 N   0  0  0  0  0  0  0  0  0  0  0  0
   -6.8731    4.3586  -12.0161 C   0  0  0  0  0  0  0  0  0  0  0  0
   -5.5772    4.6829  -12.5317 C   0  0  0  0  0  0  0  0  0  0  0  0
   -4.5595    4.8031  -13.0805 N   0  0  0  0  0  0  0  0  0  0  0  0
   -6.5674    4.5940  -17.5738 C   0  0  0  0  0  0  0  0  0  0  0  0
   -7.3893    5.7469  -17.5732 O   0  0  0  0  0  0  0  0  0  0  0  0
  2  1  1  1
  2  3  1  0
  3  4  2  0
  3  5  1  0
  5  6  1  0
  6  7  1  0
  7  8  1  0
  8  9  2  0
  9 10  1  0
 10 11  1  0
 11 12  3  0
  2 13  1  0
 13 14  1  0
 14  2  1  0
 10  6  2  0
M  END
>  <energy_score>  (3419) 
-9.200367

>  <alias>  (3419) 
HVLCFOHOBBZEDJ-UHFFFAOYSA-N-P86-P35-P86-601526

>  <HIPPO Pose ID>  (3419) 
77836

>  <smiles>  (3419) 
CC1(C(=O)Nc2[nH]cnc2C#N)CO1

>  <inchikey>  (3419) 
HVLCFOHOBBZEDJ-UHFFFAOYSA-N

>  <distance_score>  (3419) 
1.59973

>  <ref_mols>  (3419) 
Z0719a,Z1597a

>  <ref_pdb>  (3419) 
Z3093a

>  <HIPPO Compound ID>  (3419) 
149703

>  <name>  (3419) 
HVLCFOHOBBZEDJ-UHFFFAOYSA-N-P86-P35-P86-601526

>  <inspiration_score>  (3419) 
None

$$$$
IHQDJVZZPCAYGC-UHFFFAOYSA-N-P86-P35-P86-601526
     RDKit          3D

 14 15  0  0  0  0  0  0  0  0999 V2000
   -8.4826    4.4034  -14.8422 C   0  0  0  0  0  0  0  0  0  0  0  0
   -8.1809    4.4056  -16.2930 C   0  0  0  0  0  0  0  0  0  0  0  0
   -8.9653    3.9799  -17.2604 N   0  0  0  0  0  0  0  0  0  0  0  0
   -8.2972    4.2686  -18.4195 C   0  0  0  0  0  0  0  0  0  0  0  0
   -7.0718    4.8577  -18.1698 C   0  0  0  0  0  0  0  0  0  0  0  0
   -6.1614    5.2942  -19.1016 N   0  0  0  0  0  0  0  0  0  0  0  0
   -4.7101    5.8034  -18.9275 C   0  0  0  0  0  0  0  0  0  0  0  0
   -4.0895    6.0037  -17.9590 O   0  0  0  0  0  0  0  0  0  0  0  0
   -4.0209    6.0091  -20.2524 C   0  0  1  0  0  0  0  0  0  0  0  0
   -2.7792    5.2060  -20.5327 C   0  0  0  0  0  0  0  0  0  0  0  0
   -4.7216    6.6890  -21.4105 C   0  0  0  0  0  0  0  0  0  0  0  0
   -3.8268    7.4115  -20.5677 O   0  0  0  0  0  0  0  0  0  0  0  0
   -7.0013    4.9078  -16.7989 N   0  0  0  0  0  0  0  0  0  0  0  0
   -5.9421    5.4145  -15.9761 C   0  0  0  0  0  0  0  0  0  0  0  0
  1  2  1  0
  2  3  2  0
  3  4  1  0
  4  5  2  0
  5  6  1  0
  6  7  1  0
  7  8  2  0
  7  9  1  0
  9 10  1  6
  9 11  1  0
 11 12  1  0
  5 13  1  0
 13 14  1  0
 13  2  1  0
 12  9  1  0
M  END
>  <energy_score>  (3420) 
-26.061669

>  <alias>  (3420) 
IHQDJVZZPCAYGC-UHFFFAOYSA-N-P86-P35-P86-601526

>  <HIPPO Pose ID>  (3420) 
77838

>  <smiles>  (3420) 
Cc1ncc(NC(=O)C2(C)CO2)n1C

>  <inchikey>  (3420) 
IHQDJVZZPCAYGC-UHFFFAOYSA-N

>  <distance_score>  (3420) 
1.172254

>  <ref_mols>  (3420) 
Z0719a,Z1597a

>  <ref_pdb>  (3420) 
Z3093a

>  <HIPPO Compound ID>  (3420) 
149704

>  <name>  (3420) 
IHQDJVZZPCAYGC-UHFFFAOYSA-N-P86-P35-P86-601526

>  <inspiration_score>  (3420) 
None

$$$$
HWVUJNJGVXYINA-UHFFFAOYSA-N-P86-P35-P86-601526
     RDKit          3D

 14 14  0  0  0  0  0  0  0  0999 V2000
   -5.8661    4.8000  -14.8129 N   0  0  0  0  0  0  0  0  0  0  0  0
   -6.6247    4.6507  -15.6818 C   0  0  0  0  0  0  0  0  0  0  0  0
   -7.6006    4.4813  -16.7167 C   0  0  0  0  0  0  0  0  0  0  0  0
   -8.8679    4.0674  -16.3525 N   0  0  0  0  0  0  0  0  0  0  0  0
   -9.5807    4.1005  -17.4469 C   0  0  0  0  0  0  0  0  0  0  0  0
   -8.8237    4.4651  -18.5144 N   0  0  0  0  0  0  0  0  0  0  0  0
   -7.5551    4.7514  -18.0747 C   0  0  0  0  0  0  0  0  0  0  0  0
   -6.6565    5.2189  -18.9919 N   0  0  0  0  0  0  0  0  0  0  0  0
   -5.1669    5.6441  -18.8226 C   0  0  0  0  0  0  0  0  0  0  0  0
   -4.4639    5.5853  -17.8902 O   0  0  0  0  0  0  0  0  0  0  0  0
   -4.7499    6.2987  -20.1461 C   0  0  1  0  0  0  0  0  0  0  0  0
   -4.9937    8.2352  -19.8446 Br  0  0  0  0  0  0  0  0  0  0  0  0
   -3.2965    6.0446  -20.4971 C   0  0  0  0  0  0  0  0  0  0  0  0
   -2.9640    6.6220  -21.7653 O   0  0  0  0  0  0  0  0  0  0  0  0
  1  2  3  0
  2  3  1  0
  3  4  1  0
  4  5  2  0
  5  6  1  0
  6  7  1  0
  7  8  1  0
  8  9  1  0
  9 10  2  0
  9 11  1  0
 11 12  1  1
 11 13  1  0
 13 14  1  0
  7  3  2  0
M  END
>  <energy_score>  (3421) 
-20.734815

>  <alias>  (3421) 
HWVUJNJGVXYINA-UHFFFAOYSA-N-P86-P35-P86-601526

>  <HIPPO Pose ID>  (3421) 
77846

>  <smiles>  (3421) 
N#Cc1nc[nH]c1NC(=O)C(Br)CO

>  <inchikey>  (3421) 
HWVUJNJGVXYINA-UHFFFAOYSA-N

>  <distance_score>  (3421) 
1.383508

>  <ref_mols>  (3421) 
Z0719a,Z1597a

>  <ref_pdb>  (3421) 
Z3093a

>  <HIPPO Compound ID>  (3421) 
149708

>  <name>  (3421) 
HWVUJNJGVXYINA-UHFFFAOYSA-N-P86-P35-P86-601526

>  <inspiration_score>  (3421) 
None

$$$$
UTWIFKVAPUPMOB-UHFFFAOYSA-N-P35-P35-P86-601526
     RDKit          3D

 14 14  0  0  0  0  0  0  0  0999 V2000
   -2.9328    8.7787  -19.3748 C   0  0  0  0  0  0  0  0  0  0  0  0
   -3.5339    7.6481  -19.5815 C   0  0  0  0  0  0  0  0  0  0  0  0
   -4.1354    6.5111  -19.7750 C   0  0  0  0  0  0  0  0  0  0  0  0
   -3.7795    5.2311  -19.0705 C   0  0  0  0  0  0  0  0  0  0  0  0
   -4.5848    4.9347  -17.7898 C   0  0  0  0  0  0  0  0  0  0  0  0
   -4.0780    4.7431  -16.7548 O   0  0  0  0  0  0  0  0  0  0  0  0
   -6.0777    4.8537  -18.2094 N   0  0  0  0  0  0  0  0  0  0  0  0
   -7.1982    4.6261  -17.4616 C   0  0  0  0  0  0  0  0  0  0  0  0
   -8.4145    4.7856  -18.0829 N   0  0  0  0  0  0  0  0  0  0  0  0
   -9.3959    4.4964  -17.1870 C   0  0  0  0  0  0  0  0  0  0  0  0
   -8.8933    4.1548  -16.0295 N   0  0  0  0  0  0  0  0  0  0  0  0
   -7.5151    4.2164  -16.1715 C   0  0  0  0  0  0  0  0  0  0  0  0
   -6.7068    3.7513  -15.0657 C   0  0  0  0  0  0  0  0  0  0  0  0
   -6.1371    3.3047  -14.1533 N   0  0  0  0  0  0  0  0  0  0  0  0
  1  2  2  0
  2  3  2  0
  3  4  1  0
  4  5  1  0
  5  6  2  0
  5  7  1  0
  7  8  1  0
  8  9  1  0
  9 10  1  0
 10 11  2  0
 11 12  1  0
 12 13  1  0
 13 14  3  0
 12  8  2  0
M  END
>  <energy_score>  (3422) 
-13.949053

>  <alias>  (3422) 
UTWIFKVAPUPMOB-UHFFFAOYSA-N-P35-P35-P86-601526

>  <HIPPO Pose ID>  (3422) 
77867

>  <smiles>  (3422) 
C=C=CCC(=O)Nc1[nH]cnc1C#N

>  <inchikey>  (3422) 
UTWIFKVAPUPMOB-UHFFFAOYSA-N

>  <distance_score>  (3422) 
1.807102

>  <ref_mols>  (3422) 
Z0719a,Z1597a

>  <ref_pdb>  (3422) 
Z3093a

>  <HIPPO Compound ID>  (3422) 
149719

>  <name>  (3422) 
UTWIFKVAPUPMOB-UHFFFAOYSA-N-P35-P35-P86-601526

>  <inspiration_score>  (3422) 
None

$$$$
MOZQNCRQSSIPKT-UHFFFAOYSA-N-P35-P35-P86-601526
     RDKit          3D

 14 14  0  0  0  0  0  0  0  0999 V2000
   -3.1263    5.7905  -19.7014 C   0  0  0  0  0  0  0  0  0  0  0  0
   -4.4857    5.9666  -19.0568 C   0  0  2  0  0  0  0  0  0  0  0  0
   -4.8075    7.7605  -18.8308 S   0  0  0  0  0  0  0  0  0  0  0  0
   -4.6644    5.2162  -17.7080 C   0  0  0  0  0  0  0  0  0  0  0  0
   -3.8477    4.6044  -17.1400 O   0  0  0  0  0  0  0  0  0  0  0  0
   -6.1743    5.4069  -17.4001 N   0  0  0  0  0  0  0  0  0  0  0  0
   -6.9552    4.8451  -16.4490 C   0  0  0  0  0  0  0  0  0  0  0  0
   -8.2599    5.1436  -16.7634 N   0  0  0  0  0  0  0  0  0  0  0  0
   -9.0023    4.3771  -16.0184 C   0  0  0  0  0  0  0  0  0  0  0  0
   -8.2492    3.7429  -15.0923 N   0  0  0  0  0  0  0  0  0  0  0  0
   -6.9261    4.0318  -15.3410 C   0  0  0  0  0  0  0  0  0  0  0  0
   -5.9813    3.4170  -14.4710 N   0  0  0  0  0  0  0  0  0  0  0  0
   -6.4222    2.4953  -13.7599 O   0  0  0  0  0  0  0  0  0  0  0  0
   -4.8250    3.8395  -14.4389 O   0  0  0  0  0  0  0  0  0  0  0  0
  2  1  1  1
  2  3  1  0
  2  4  1  0
  4  5  2  0
  4  6  1  0
  6  7  1  0
  7  8  1  0
  8  9  2  0
  9 10  1  0
 10 11  1  0
 11 12  1  0
 12 13  2  0
 12 14  1  0
 11  7  2  0
M  CHG  2  12   1  14  -1
M  END
>  <energy_score>  (3423) 
-22.173896

>  <alias>  (3423) 
MOZQNCRQSSIPKT-UHFFFAOYSA-N-P35-P35-P86-601526

>  <HIPPO Pose ID>  (3423) 
77875

>  <smiles>  (3423) 
CC(S)C(=O)Nc1nc[nH]c1[N+](=O)[O-]

>  <inchikey>  (3423) 
MOZQNCRQSSIPKT-UHFFFAOYSA-N

>  <distance_score>  (3423) 
1.888721

>  <ref_mols>  (3423) 
Z0719a,Z1597a

>  <ref_pdb>  (3423) 
Z3093a

>  <HIPPO Compound ID>  (3423) 
149723

>  <name>  (3423) 
MOZQNCRQSSIPKT-UHFFFAOYSA-N-P35-P35-P86-601526

>  <inspiration_score>  (3423) 
None

$$$$
UGPXGMWMPOQLIC-UHFFFAOYSA-N-P86-P35-P86-601526
     RDKit          3D

 14 15  0  0  0  0  0  0  0  0999 V2000
   -4.6840    6.7738  -21.4285 C   0  0  0  0  0  0  0  0  0  0  0  0
   -3.9584    6.4025  -20.1493 C   0  0  2  0  0  0  0  0  0  0  0  0
   -2.8850    4.9499  -20.3709 S   0  0  0  0  0  0  0  0  0  0  0  0
   -4.8276    6.2369  -18.8834 C   0  0  0  0  0  0  0  0  0  0  0  0
   -4.4889    6.7358  -17.8773 O   0  0  0  0  0  0  0  0  0  0  0  0
   -6.0703    5.3480  -19.2031 N   0  0  0  0  0  0  0  0  0  0  0  0
   -7.0362    4.8457  -18.3792 C   0  0  0  0  0  0  0  0  0  0  0  0
   -8.2016    4.1488  -18.6703 C   0  0  0  0  0  0  0  0  0  0  0  0
   -8.9347    3.8614  -17.5305 N   0  0  0  0  0  0  0  0  0  0  0  0
   -8.2125    4.3697  -16.5683 C   0  0  0  0  0  0  0  0  0  0  0  0
   -7.0672    4.9318  -17.0351 N   0  0  0  0  0  0  0  0  0  0  0  0
   -6.2166    5.4503  -15.9915 C   0  0  0  0  0  0  0  0  0  0  0  0
   -6.8963    4.9499  -14.7153 C   0  0  0  0  0  0  0  0  0  0  0  0
   -8.3202    4.5093  -15.1103 C   0  0  0  0  0  0  0  0  0  0  0  0
  2  1  1  6
  2  3  1  0
  2  4  1  0
  4  5  2  0
  4  6  1  0
  6  7  1  0
  7  8  2  0
  8  9  1  0
  9 10  2  0
 10 11  1  0
 11 12  1  0
 12 13  1  0
 13 14  1  0
 11  7  1  0
 14 10  1  0
M  END
>  <energy_score>  (3424) 
-30.342932

>  <alias>  (3424) 
UGPXGMWMPOQLIC-UHFFFAOYSA-N-P86-P35-P86-601526

>  <HIPPO Pose ID>  (3424) 
77880

>  <smiles>  (3424) 
CC(S)C(=O)Nc1cnc2n1CCC2

>  <inchikey>  (3424) 
UGPXGMWMPOQLIC-UHFFFAOYSA-N

>  <distance_score>  (3424) 
1.252356

>  <ref_mols>  (3424) 
Z0719a,Z1597a

>  <ref_pdb>  (3424) 
Z3093a

>  <HIPPO Compound ID>  (3424) 
149725

>  <name>  (3424) 
UGPXGMWMPOQLIC-UHFFFAOYSA-N-P86-P35-P86-601526

>  <inspiration_score>  (3424) 
None

$$$$
OYMKIEQIUXRAOF-UHFFFAOYSA-N-P86-P35-P86-601526
     RDKit          3D

 14 14  0  0  0  0  0  0  0  0999 V2000
   -9.3598    3.9602  -18.7911 C   0  0  0  0  0  0  0  0  0  0  0  0
   -8.4591    4.3480  -17.7123 C   0  0  0  0  0  0  0  0  0  0  0  0
   -8.8517    4.1006  -16.4303 N   0  0  0  0  0  0  0  0  0  0  0  0
   -7.8656    4.5203  -15.6777 C   0  0  0  0  0  0  0  0  0  0  0  0
   -7.8357    4.4609  -14.1973 C   0  0  0  0  0  0  0  0  0  0  0  0
   -6.8401    5.0256  -16.4516 N   0  0  0  0  0  0  0  0  0  0  0  0
   -5.6145    5.5278  -15.9146 C   0  0  0  0  0  0  0  0  0  0  0  0
   -7.2220    4.9558  -17.7686 C   0  0  0  0  0  0  0  0  0  0  0  0
   -6.5787    5.3643  -18.9110 N   0  0  0  0  0  0  0  0  0  0  0  0
   -5.1634    5.9840  -19.1079 C   0  0  0  0  0  0  0  0  0  0  0  0
   -4.3633    6.3109  -18.3203 O   0  0  0  0  0  0  0  0  0  0  0  0
   -4.9852    6.1295  -20.6093 C   0  0  0  0  0  0  0  0  0  0  0  0
   -3.5669    6.5108  -20.9584 C   0  0  0  0  0  0  0  0  0  0  0  0
   -3.4854    6.7176  -22.3032 F   0  0  0  0  0  0  0  0  0  0  0  0
  1  2  1  0
  2  3  1  0
  3  4  2  0
  4  5  1  0
  4  6  1  0
  6  7  1  0
  6  8  1  0
  8  9  1  0
  9 10  1  0
 10 11  2  0
 10 12  1  0
 12 13  1  0
 13 14  1  0
  8  2  2  0
M  END
>  <energy_score>  (3425) 
-23.694533

>  <alias>  (3425) 
OYMKIEQIUXRAOF-UHFFFAOYSA-N-P86-P35-P86-601526

>  <HIPPO Pose ID>  (3425) 
77890

>  <smiles>  (3425) 
Cc1nc(C)n(C)c1NC(=O)CCF

>  <inchikey>  (3425) 
OYMKIEQIUXRAOF-UHFFFAOYSA-N

>  <distance_score>  (3425) 
1.557866

>  <ref_mols>  (3425) 
Z0719a,Z1597a

>  <ref_pdb>  (3425) 
Z3093a

>  <HIPPO Compound ID>  (3425) 
149730

>  <name>  (3425) 
OYMKIEQIUXRAOF-UHFFFAOYSA-N-P86-P35-P86-601526

>  <inspiration_score>  (3425) 
None

$$$$
HDIQYASOIAZSME-UHFFFAOYSA-N-P86-P35-P86-601526
     RDKit          3D

 14 14  0  0  0  0  0  0  0  0999 V2000
   -9.1137    4.2405  -18.5245 C   0  0  0  0  0  0  0  0  0  0  0  0
   -8.4097    4.4270  -17.3002 N   0  0  0  0  0  0  0  0  0  0  0  0
   -8.9850    4.2360  -16.0890 C   0  0  0  0  0  0  0  0  0  0  0  0
   -8.1489    4.4904  -15.1267 N   0  0  0  0  0  0  0  0  0  0  0  0
   -6.9520    4.7405  -15.7577 C   0  0  0  0  0  0  0  0  0  0  0  0
   -5.7972    4.8351  -14.9379 C   0  0  0  0  0  0  0  0  0  0  0  0
   -4.8811    4.8497  -14.2249 N   0  0  0  0  0  0  0  0  0  0  0  0
   -7.0952    4.7713  -17.1346 C   0  0  0  0  0  0  0  0  0  0  0  0
   -6.2758    4.9741  -18.2174 N   0  0  0  0  0  0  0  0  0  0  0  0
   -4.7852    5.4041  -18.2869 C   0  0  0  0  0  0  0  0  0  0  0  0
   -4.0069    5.5765  -17.4337 O   0  0  0  0  0  0  0  0  0  0  0  0
   -4.4093    5.4812  -19.7622 C   0  0  0  0  0  0  0  0  0  0  0  0
   -4.2975    6.9191  -20.2011 C   0  0  0  0  0  0  0  0  0  0  0  0
   -5.5364    7.4856  -20.1964 F   0  0  0  0  0  0  0  0  0  0  0  0
  1  2  1  0
  2  3  1  0
  3  4  2  0
  4  5  1  0
  5  6  1  0
  6  7  3  0
  5  8  2  0
  8  9  1  0
  9 10  1  0
 10 11  2  0
 10 12  1  0
 12 13  1  0
 13 14  1  0
  8  2  1  0
M  END
>  <energy_score>  (3426) 
-16.520061

>  <alias>  (3426) 
HDIQYASOIAZSME-UHFFFAOYSA-N-P86-P35-P86-601526

>  <HIPPO Pose ID>  (3426) 
77900

>  <smiles>  (3426) 
Cn1cnc(C#N)c1NC(=O)CCF

>  <inchikey>  (3426) 
HDIQYASOIAZSME-UHFFFAOYSA-N

>  <distance_score>  (3426) 
1.941479

>  <ref_mols>  (3426) 
Z0719a,Z1597a

>  <ref_pdb>  (3426) 
Z3093a

>  <HIPPO Compound ID>  (3426) 
149735

>  <name>  (3426) 
HDIQYASOIAZSME-UHFFFAOYSA-N-P86-P35-P86-601526

>  <inspiration_score>  (3426) 
None

$$$$
GCHIJZDJUUHAHW-UHFFFAOYSA-N-P35-P35-P86-601526
     RDKit          3D

 14 14  0  0  0  0  0  0  0  0999 V2000
   -6.0252    2.4993  -12.8298 C   0  0  0  0  0  0  0  0  0  0  0  0
   -5.9446    3.5522  -13.9136 C   0  0  0  0  0  0  0  0  0  0  0  0
   -7.3417    3.8873  -14.4829 C   0  0  0  0  0  0  0  0  0  0  0  0
   -7.3501    4.4629  -15.8123 N   0  0  0  0  0  0  0  0  0  0  0  0
   -8.3079    4.3002  -16.7711 C   0  0  0  0  0  0  0  0  0  0  0  0
   -7.8684    4.7043  -17.9467 N   0  0  0  0  0  0  0  0  0  0  0  0
   -6.6283    5.2002  -17.7093 C   0  0  0  0  0  0  0  0  0  0  0  0
   -5.7663    5.5643  -18.6839 N   0  0  0  0  0  0  0  0  0  0  0  0
   -4.3147    6.1114  -18.5940 C   0  0  0  0  0  0  0  0  0  0  0  0
   -3.6709    6.4035  -17.6617 O   0  0  0  0  0  0  0  0  0  0  0  0
   -3.7206    6.1360  -19.9769 C   0  0  0  0  0  0  0  0  0  0  0  0
   -4.3663    7.1271  -20.9055 C   0  0  0  0  0  0  0  0  0  0  0  0
   -3.6537    7.1236  -22.0693 F   0  0  0  0  0  0  0  0  0  0  0  0
   -6.3357    5.1745  -16.3766 C   0  0  0  0  0  0  0  0  0  0  0  0
  1  2  1  0
  2  3  1  0
  3  4  1  0
  4  5  1  0
  5  6  2  0
  6  7  1  0
  7  8  1  0
  8  9  1  0
  9 10  2  0
  9 11  1  0
 11 12  1  0
 12 13  1  0
  7 14  2  0
 14  4  1  0
M  END
>  <energy_score>  (3427) 
-17.004181

>  <alias>  (3427) 
GCHIJZDJUUHAHW-UHFFFAOYSA-N-P35-P35-P86-601526

>  <HIPPO Pose ID>  (3427) 
77901

>  <smiles>  (3427) 
CCCn1cnc(NC(=O)CCF)c1

>  <inchikey>  (3427) 
GCHIJZDJUUHAHW-UHFFFAOYSA-N

>  <distance_score>  (3427) 
1.611413

>  <ref_mols>  (3427) 
Z0719a,Z1597a

>  <ref_pdb>  (3427) 
Z3093a

>  <HIPPO Compound ID>  (3427) 
149736

>  <name>  (3427) 
GCHIJZDJUUHAHW-UHFFFAOYSA-N-P35-P35-P86-601526

>  <inspiration_score>  (3427) 
None

$$$$
LHUJVHCVQNAPKE-UHFFFAOYSA-N-P35-P35-P86-601526
     RDKit          3D

 14 15  0  0  0  0  0  0  0  0999 V2000
   -7.6633    3.2846   -9.3765 C   0  0  0  0  0  0  0  0  0  0  0  0
   -7.6989    4.1498  -10.5784 C   0  0  0  0  0  0  0  0  0  0  0  0
   -7.9448    5.4478  -10.5668 N   0  0  0  0  0  0  0  0  0  0  0  0
   -7.9719    5.8306  -11.8824 C   0  0  0  0  0  0  0  0  0  0  0  0
   -7.7358    4.7590  -12.7113 C   0  0  0  0  0  0  0  0  0  0  0  0
   -7.7389    4.6551  -14.0705 N   0  0  0  0  0  0  0  0  0  0  0  0
   -7.7971    5.7388  -15.1512 C   0  0  0  0  0  0  0  0  0  0  0  0
   -7.7743    6.8978  -15.0591 O   0  0  0  0  0  0  0  0  0  0  0  0
   -7.8687    5.0784  -16.5000 C   0  0  0  0  0  0  0  0  0  0  0  0
   -8.9839    4.1728  -16.6668 O   0  0  0  0  0  0  0  0  0  0  0  0
   -7.3893    5.7688  -17.7516 C   0  0  0  0  0  0  0  0  0  0  0  0
   -6.5841    4.6586  -17.1673 C   0  0  0  0  0  0  0  0  0  0  0  0
   -7.4615    3.7145  -11.8651 N   0  0  0  0  0  0  0  0  0  0  0  0
   -6.8840    2.4579  -12.2823 C   0  0  0  0  0  0  0  0  0  0  0  0
  1  2  1  0
  2  3  2  0
  3  4  1  0
  4  5  2  0
  5  6  1  0
  6  7  1  0
  7  8  2  0
  7  9  1  0
  9 10  1  0
  9 11  1  0
 11 12  1  0
  5 13  1  0
 13 14  1  0
 13  2  1  0
 12  9  1  0
M  END
>  <energy_score>  (3428) 
-3.552579

>  <alias>  (3428) 
LHUJVHCVQNAPKE-UHFFFAOYSA-N-P35-P35-P86-601526

>  <HIPPO Pose ID>  (3428) 
77909

>  <smiles>  (3428) 
Cc1ncc(NC(=O)C2(O)CC2)n1C

>  <inchikey>  (3428) 
LHUJVHCVQNAPKE-UHFFFAOYSA-N

>  <distance_score>  (3428) 
1.448769

>  <ref_mols>  (3428) 
Z0719a,Z1597a

>  <ref_pdb>  (3428) 
Z3093a

>  <HIPPO Compound ID>  (3428) 
149740

>  <name>  (3428) 
LHUJVHCVQNAPKE-UHFFFAOYSA-N-P35-P35-P86-601526

>  <inspiration_score>  (3428) 
None

$$$$
VLGPSXWCPGERIU-UHFFFAOYSA-N-P86-P35-P86-601526
     RDKit          3D

 14 15  0  0  0  0  0  0  0  0999 V2000
   -5.5768    4.4677  -14.5520 C   0  0  0  0  0  0  0  0  0  0  0  0
   -7.0399    4.7967  -14.6154 C   0  0  0  0  0  0  0  0  0  0  0  0
   -7.5950    5.2800  -13.3171 C   0  0  0  0  0  0  0  0  0  0  0  0
   -7.7105    6.4210  -13.1306 O   0  0  0  0  0  0  0  0  0  0  0  0
   -7.8333    4.0926  -12.3826 N   0  0  0  0  0  0  0  0  0  0  0  0
   -8.1557    4.0587  -11.0632 C   0  0  0  0  0  0  0  0  0  0  0  0
   -8.2752    2.8859  -10.3637 N   0  0  0  0  0  0  0  0  0  0  0  0
   -8.4786    3.2143   -9.0520 C   0  0  0  0  0  0  0  0  0  0  0  0
   -8.5256    4.5164   -8.8746 N   0  0  0  0  0  0  0  0  0  0  0  0
   -8.3698    5.0590  -10.1356 C   0  0  0  0  0  0  0  0  0  0  0  0
   -8.3964    6.4846  -10.3148 C   0  0  0  0  0  0  0  0  0  0  0  0
   -8.4327    7.6466  -10.3727 N   0  0  0  0  0  0  0  0  0  0  0  0
   -7.5111    5.5141  -15.8535 C   0  0  0  0  0  0  0  0  0  0  0  0
   -7.9809    4.1274  -15.6158 C   0  0  0  0  0  0  0  0  0  0  0  0
  1  2  1  0
  2  3  1  0
  3  4  2  0
  3  5  1  0
  5  6  1  0
  6  7  1  0
  7  8  1  0
  8  9  2  0
  9 10  1  0
 10 11  1  0
 11 12  3  0
  2 13  1  0
 13 14  1  0
 14  2  1  0
 10  6  2  0
M  END
>  <energy_score>  (3429) 
-16.372285

>  <alias>  (3429) 
VLGPSXWCPGERIU-UHFFFAOYSA-N-P86-P35-P86-601526

>  <HIPPO Pose ID>  (3429) 
77914

>  <smiles>  (3429) 
CC1(C(=O)Nc2[nH]cnc2C#N)CC1

>  <inchikey>  (3429) 
VLGPSXWCPGERIU-UHFFFAOYSA-N

>  <distance_score>  (3429) 
1.604845

>  <ref_mols>  (3429) 
Z0719a,Z1597a

>  <ref_pdb>  (3429) 
Z3093a

>  <HIPPO Compound ID>  (3429) 
149742

>  <name>  (3429) 
VLGPSXWCPGERIU-UHFFFAOYSA-N-P86-P35-P86-601526

>  <inspiration_score>  (3429) 
None

$$$$
BDSMPVRWTBIDTQ-UHFFFAOYSA-N-P35-P35-P86-601526
     RDKit          3D

 14 15  0  0  0  0  0  0  0  0999 V2000
   -8.2290    7.6307  -11.1772 C   0  0  0  0  0  0  0  0  0  0  0  0
   -8.2490    6.2439  -10.6718 C   0  0  0  0  0  0  0  0  0  0  0  0
   -8.3740    6.0040   -9.3173 N   0  0  0  0  0  0  0  0  0  0  0  0
   -8.3958    4.6971   -9.1948 C   0  0  0  0  0  0  0  0  0  0  0  0
   -8.3132    4.0842  -10.4090 N   0  0  0  0  0  0  0  0  0  0  0  0
   -8.3448    2.6644  -10.6226 C   0  0  0  0  0  0  0  0  0  0  0  0
   -8.1590    5.0548  -11.3652 C   0  0  0  0  0  0  0  0  0  0  0  0
   -7.9183    4.7609  -12.6740 N   0  0  0  0  0  0  0  0  0  0  0  0
   -7.5477    5.6781  -13.8526 C   0  0  0  0  0  0  0  0  0  0  0  0
   -7.4643    6.8389  -13.9096 O   0  0  0  0  0  0  0  0  0  0  0  0
   -7.1640    4.8212  -15.0305 C   0  0  0  0  0  0  0  0  0  0  0  0
   -6.0962    3.7798  -14.7550 C   0  0  0  0  0  0  0  0  0  0  0  0
   -7.1611    5.4359  -16.4228 C   0  0  0  0  0  0  0  0  0  0  0  0
   -8.2708    4.5120  -16.0315 C   0  0  0  0  0  0  0  0  0  0  0  0
  1  2  1  0
  2  3  1  0
  3  4  2  0
  4  5  1  0
  5  6  1  0
  5  7  1  0
  7  8  1  0
  8  9  1  0
  9 10  2  0
  9 11  1  0
 11 12  1  0
 11 13  1  0
 13 14  1  0
  7  2  2  0
 14 11  1  0
M  END
>  <energy_score>  (3430) 
-36.622523

>  <alias>  (3430) 
BDSMPVRWTBIDTQ-UHFFFAOYSA-N-P35-P35-P86-601526

>  <HIPPO Pose ID>  (3430) 
77915

>  <smiles>  (3430) 
Cc1ncn(C)c1NC(=O)C1(C)CC1

>  <inchikey>  (3430) 
BDSMPVRWTBIDTQ-UHFFFAOYSA-N

>  <distance_score>  (3430) 
1.254068

>  <ref_mols>  (3430) 
Z0719a,Z1597a

>  <ref_pdb>  (3430) 
Z3093a

>  <HIPPO Compound ID>  (3430) 
149743

>  <name>  (3430) 
BDSMPVRWTBIDTQ-UHFFFAOYSA-N-P35-P35-P86-601526

>  <inspiration_score>  (3430) 
None

$$$$
XHKJCBMFNFDMHP-UHFFFAOYSA-N-P35-P35-P86-601526
     RDKit          3D

 14 15  0  0  0  0  0  0  0  0999 V2000
   -5.1861    2.4182  -11.6833 C   0  0  0  0  0  0  0  0  0  0  0  0
   -5.7956    3.1906  -10.5020 C   0  0  0  0  0  0  0  0  0  0  0  0
   -7.0383    3.8312  -10.9081 N   0  0  0  0  0  0  0  0  0  0  0  0
   -8.2414    3.1812  -10.9135 C   0  0  0  0  0  0  0  0  0  0  0  0
   -8.8790    3.4324  -12.0348 N   0  0  0  0  0  0  0  0  0  0  0  0
   -8.0946    4.3235  -12.6996 C   0  0  0  0  0  0  0  0  0  0  0  0
   -8.1962    4.4791  -14.0401 N   0  0  0  0  0  0  0  0  0  0  0  0
   -7.4629    5.4424  -14.9953 C   0  0  0  0  0  0  0  0  0  0  0  0
   -6.7121    6.3067  -14.7687 O   0  0  0  0  0  0  0  0  0  0  0  0
   -7.7242    5.0984  -16.4719 C   0  0  0  0  0  0  0  0  0  0  0  0
   -9.0451    4.4968  -16.8826 C   0  0  0  0  0  0  0  0  0  0  0  0
   -7.0454    5.9716  -17.5312 C   0  0  0  0  0  0  0  0  0  0  0  0
   -6.5039    4.6137  -17.2455 C   0  0  0  0  0  0  0  0  0  0  0  0
   -7.0874    4.7938  -11.8948 C   0  0  0  0  0  0  0  0  0  0  0  0
  1  2  1  0
  2  3  1  0
  3  4  1  0
  4  5  2  0
  5  6  1  0
  6  7  1  0
  7  8  1  0
  8  9  2  0
  8 10  1  0
 10 11  1  0
 10 12  1  0
 12 13  1  0
  6 14  2  0
 14  3  1  0
 13 10  1  0
M  END
>  <energy_score>  (3431) 
-13.461589

>  <alias>  (3431) 
XHKJCBMFNFDMHP-UHFFFAOYSA-N-P35-P35-P86-601526

>  <HIPPO Pose ID>  (3431) 
77919

>  <smiles>  (3431) 
CCn1cnc(NC(=O)C2(C)CC2)c1

>  <inchikey>  (3431) 
XHKJCBMFNFDMHP-UHFFFAOYSA-N

>  <distance_score>  (3431) 
1.606613

>  <ref_mols>  (3431) 
Z0719a,Z1597a

>  <ref_pdb>  (3431) 
Z3093a

>  <HIPPO Compound ID>  (3431) 
149745

>  <name>  (3431) 
XHKJCBMFNFDMHP-UHFFFAOYSA-N-P35-P35-P86-601526

>  <inspiration_score>  (3431) 
None

$$$$
RWRXINOBYQVOOY-UHFFFAOYSA-N-P86-P35-P86-601526
     RDKit          3D

 14 14  0  0  0  0  0  0  0  0999 V2000
   -8.5667    3.8161  -19.2105 C   0  0  0  0  0  0  0  0  0  0  0  0
   -8.2421    4.2307  -17.8510 C   0  0  0  0  0  0  0  0  0  0  0  0
   -9.1179    3.9342  -16.8449 N   0  0  0  0  0  0  0  0  0  0  0  0
   -8.5274    4.3618  -15.7597 C   0  0  0  0  0  0  0  0  0  0  0  0
   -7.3168    4.9430  -16.0338 N   0  0  0  0  0  0  0  0  0  0  0  0
   -6.4266    5.3812  -15.0040 C   0  0  0  0  0  0  0  0  0  0  0  0
   -7.1143    4.8763  -17.3852 C   0  0  0  0  0  0  0  0  0  0  0  0
   -6.0427    5.2759  -18.1378 N   0  0  0  0  0  0  0  0  0  0  0  0
   -4.8081    6.1387  -17.7570 C   0  0  0  0  0  0  0  0  0  0  0  0
   -4.5557    6.7039  -16.7652 O   0  0  0  0  0  0  0  0  0  0  0  0
   -3.8456    6.0893  -18.9501 C   0  0  0  0  0  0  0  0  0  0  0  0
   -4.3514    6.7358  -20.2519 C   0  0  0  0  0  0  0  0  0  0  0  0
   -4.7157    8.2062  -20.0410 C   0  0  0  0  0  0  0  0  0  0  0  0
   -3.2815    6.6145  -21.3386 C   0  0  0  0  0  0  0  0  0  0  0  0
  1  2  1  0
  2  3  1  0
  3  4  2  0
  4  5  1  0
  5  6  1  0
  5  7  1  0
  7  8  1  0
  8  9  1  0
  9 10  2  0
  9 11  1  0
 11 12  1  0
 12 13  1  0
 12 14  1  0
  7  2  2  0
M  END
>  <energy_score>  (3432) 
-26.747368

>  <alias>  (3432) 
RWRXINOBYQVOOY-UHFFFAOYSA-N-P86-P35-P86-601526

>  <HIPPO Pose ID>  (3432) 
77924

>  <smiles>  (3432) 
Cc1ncn(C)c1NC(=O)CC(C)C

>  <inchikey>  (3432) 
RWRXINOBYQVOOY-UHFFFAOYSA-N

>  <distance_score>  (3432) 
1.314542

>  <ref_mols>  (3432) 
Z0719a,Z1597a

>  <ref_pdb>  (3432) 
Z3093a

>  <HIPPO Compound ID>  (3432) 
149747

>  <name>  (3432) 
RWRXINOBYQVOOY-UHFFFAOYSA-N-P86-P35-P86-601526

>  <inspiration_score>  (3432) 
None

$$$$
CSUNWSCBRNDGSV-UHFFFAOYSA-N-P86-P35-P86-601526
     RDKit          3D

 14 14  0  0  0  0  0  0  0  0999 V2000
   -8.4008    4.3979  -14.5768 C   0  0  0  0  0  0  0  0  0  0  0  0
   -8.2722    4.3602  -16.0541 C   0  0  0  0  0  0  0  0  0  0  0  0
   -9.1653    3.9105  -16.9113 N   0  0  0  0  0  0  0  0  0  0  0  0
   -8.6519    4.1875  -18.1460 C   0  0  0  0  0  0  0  0  0  0  0  0
   -7.4210    4.8042  -18.0553 C   0  0  0  0  0  0  0  0  0  0  0  0
   -6.6829    5.2811  -19.1036 N   0  0  0  0  0  0  0  0  0  0  0  0
   -5.2208    5.8191  -19.1496 C   0  0  0  0  0  0  0  0  0  0  0  0
   -4.4557    6.0071  -18.2863 O   0  0  0  0  0  0  0  0  0  0  0  0
   -4.9363    6.0658  -20.6329 C   0  0  0  0  0  0  0  0  0  0  0  0
   -3.5140    6.5083  -20.9945 C   0  0  0  0  0  0  0  0  0  0  0  0
   -2.4496    5.4858  -20.5903 C   0  0  0  0  0  0  0  0  0  0  0  0
   -3.1758    7.8964  -20.4501 C   0  0  0  0  0  0  0  0  0  0  0  0
   -7.1597    4.8417  -16.7110 N   0  0  0  0  0  0  0  0  0  0  0  0
   -5.9879    5.3269  -16.0452 C   0  0  0  0  0  0  0  0  0  0  0  0
  1  2  1  0
  2  3  2  0
  3  4  1  0
  4  5  2  0
  5  6  1  0
  6  7  1  0
  7  8  2  0
  7  9  1  0
  9 10  1  0
 10 11  1  0
 10 12  1  0
  5 13  1  0
 13 14  1  0
 13  2  1  0
M  END
>  <energy_score>  (3433) 
-4.588854

>  <alias>  (3433) 
CSUNWSCBRNDGSV-UHFFFAOYSA-N-P86-P35-P86-601526

>  <HIPPO Pose ID>  (3433) 
77926

>  <smiles>  (3433) 
Cc1ncc(NC(=O)CC(C)C)n1C

>  <inchikey>  (3433) 
CSUNWSCBRNDGSV-UHFFFAOYSA-N

>  <distance_score>  (3433) 
1.136591

>  <ref_mols>  (3433) 
Z0719a,Z1597a

>  <ref_pdb>  (3433) 
Z3093a

>  <HIPPO Compound ID>  (3433) 
149748

>  <name>  (3433) 
CSUNWSCBRNDGSV-UHFFFAOYSA-N-P86-P35-P86-601526

>  <inspiration_score>  (3433) 
None

$$$$
CZSREMZEIPNGKN-UHFFFAOYSA-N-P86-P35-P86-601526
     RDKit          3D

 14 14  0  0  0  0  0  0  0  0999 V2000
   -8.5166    3.8021  -19.2282 C   0  0  0  0  0  0  0  0  0  0  0  0
   -8.2118    4.2228  -17.8659 C   0  0  0  0  0  0  0  0  0  0  0  0
   -9.0635    3.8609  -16.8598 N   0  0  0  0  0  0  0  0  0  0  0  0
   -8.5040    4.3240  -15.7730 C   0  0  0  0  0  0  0  0  0  0  0  0
   -7.3332    4.9820  -16.0452 N   0  0  0  0  0  0  0  0  0  0  0  0
   -6.4632    5.4531  -15.0125 C   0  0  0  0  0  0  0  0  0  0  0  0
   -7.1364    4.9524  -17.3994 C   0  0  0  0  0  0  0  0  0  0  0  0
   -6.1174    5.4717  -18.1531 N   0  0  0  0  0  0  0  0  0  0  0  0
   -4.9784    6.4600  -17.7689 C   0  0  0  0  0  0  0  0  0  0  0  0
   -4.7821    7.0417  -16.7700 O   0  0  0  0  0  0  0  0  0  0  0  0
   -3.9562    6.5554  -18.9608 C   0  0  0  0  0  0  0  0  0  0  0  0
   -4.5732    6.7871  -20.3407 C   0  0  0  0  0  0  0  0  0  0  0  0
   -3.0643    5.3170  -18.9624 C   0  0  0  0  0  0  0  0  0  0  0  0
   -3.1084    7.6917  -18.7120 O   0  0  0  0  0  0  0  0  0  0  0  0
  1  2  1  0
  2  3  1  0
  3  4  2  0
  4  5  1  0
  5  6  1  0
  5  7  1  0
  7  8  1  0
  8  9  1  0
  9 10  2  0
  9 11  1  0
 11 12  1  0
 11 13  1  0
 11 14  1  0
  7  2  2  0
M  END
>  <energy_score>  (3434) 
-19.636943

>  <alias>  (3434) 
CZSREMZEIPNGKN-UHFFFAOYSA-N-P86-P35-P86-601526

>  <HIPPO Pose ID>  (3434) 
77934

>  <smiles>  (3434) 
Cc1ncn(C)c1NC(=O)C(C)(C)O

>  <inchikey>  (3434) 
CZSREMZEIPNGKN-UHFFFAOYSA-N

>  <distance_score>  (3434) 
1.391759

>  <ref_mols>  (3434) 
Z0719a,Z1597a

>  <ref_pdb>  (3434) 
Z3093a

>  <HIPPO Compound ID>  (3434) 
149752

>  <name>  (3434) 
CZSREMZEIPNGKN-UHFFFAOYSA-N-P86-P35-P86-601526

>  <inspiration_score>  (3434) 
None

$$$$
FQVRFSROIFJRKW-UHFFFAOYSA-N-P86-P35-P86-601526
     RDKit          3D

 14 14  0  0  0  0  0  0  0  0999 V2000
   -8.4910    4.4448  -14.8616 C   0  0  0  0  0  0  0  0  0  0  0  0
   -8.2031    4.4138  -16.3148 C   0  0  0  0  0  0  0  0  0  0  0  0
   -8.9589    3.9021  -17.2635 N   0  0  0  0  0  0  0  0  0  0  0  0
   -8.2551    4.0859  -18.4256 C   0  0  0  0  0  0  0  0  0  0  0  0
   -7.0664    4.7493  -18.1978 C   0  0  0  0  0  0  0  0  0  0  0  0
   -6.0994    5.0889  -19.1066 N   0  0  0  0  0  0  0  0  0  0  0  0
   -4.9463    6.1359  -19.0151 C   0  0  0  0  0  0  0  0  0  0  0  0
   -4.6025    6.8106  -18.1203 O   0  0  0  0  0  0  0  0  0  0  0  0
   -4.1626    6.0918  -20.3741 C   0  0  0  0  0  0  0  0  0  0  0  0
   -3.0669    7.1534  -20.3803 C   0  0  0  0  0  0  0  0  0  0  0  0
   -5.0293    6.3134  -21.6083 C   0  0  0  0  0  0  0  0  0  0  0  0
   -3.5360    4.8128  -20.4877 O   0  0  0  0  0  0  0  0  0  0  0  0
   -7.0380    4.9290  -16.8385 N   0  0  0  0  0  0  0  0  0  0  0  0
   -5.9441    5.3810  -16.0278 C   0  0  0  0  0  0  0  0  0  0  0  0
  1  2  1  0
  2  3  2  0
  3  4  1  0
  4  5  2  0
  5  6  1  0
  6  7  1  0
  7  8  2  0
  7  9  1  0
  9 10  1  0
  9 11  1  0
  9 12  1  0
  5 13  1  0
 13 14  1  0
 13  2  1  0
M  END
>  <energy_score>  (3435) 
-24.731192

>  <alias>  (3435) 
FQVRFSROIFJRKW-UHFFFAOYSA-N-P86-P35-P86-601526

>  <HIPPO Pose ID>  (3435) 
77936

>  <smiles>  (3435) 
Cc1ncc(NC(=O)C(C)(C)O)n1C

>  <inchikey>  (3435) 
FQVRFSROIFJRKW-UHFFFAOYSA-N

>  <distance_score>  (3435) 
1.445385

>  <ref_mols>  (3435) 
Z0719a,Z1597a

>  <ref_pdb>  (3435) 
Z3093a

>  <HIPPO Compound ID>  (3435) 
149753

>  <name>  (3435) 
FQVRFSROIFJRKW-UHFFFAOYSA-N-P86-P35-P86-601526

>  <inspiration_score>  (3435) 
None

$$$$
NWJJYCNEKOUUJM-UHFFFAOYSA-N-P86-P35-P86-601526
     RDKit          3D

 14 14  0  0  0  0  0  0  0  0999 V2000
   -8.2699    4.2142  -14.7546 C   0  0  0  0  0  0  0  0  0  0  0  0
   -8.0450    4.4036  -16.2073 C   0  0  0  0  0  0  0  0  0  0  0  0
   -8.7859    3.9223  -17.1844 N   0  0  0  0  0  0  0  0  0  0  0  0
   -8.1435    4.2854  -18.3383 C   0  0  0  0  0  0  0  0  0  0  0  0
   -6.9876    4.9958  -18.0732 C   0  0  0  0  0  0  0  0  0  0  0  0
   -6.0674    5.4567  -18.9808 N   0  0  0  0  0  0  0  0  0  0  0  0
   -4.6626    6.1109  -18.7604 C   0  0  0  0  0  0  0  0  0  0  0  0
   -4.1165    6.4237  -17.7691 O   0  0  0  0  0  0  0  0  0  0  0  0
   -3.9342    6.3092  -20.0971 C   0  0  1  0  0  0  0  0  0  0  0  0
   -2.6866    4.8114  -20.2703 Br  0  0  0  0  0  0  0  0  0  0  0  0
   -4.7366    6.4851  -21.3682 C   0  0  0  0  0  0  0  0  0  0  0  0
   -3.9088    6.9511  -22.4363 O   0  0  0  0  0  0  0  0  0  0  0  0
   -6.9808    5.1202  -16.7067 N   0  0  0  0  0  0  0  0  0  0  0  0
   -6.0912    5.8821  -15.8813 C   0  0  0  0  0  0  0  0  0  0  0  0
  1  2  1  0
  2  3  2  0
  3  4  1  0
  4  5  2  0
  5  6  1  0
  6  7  1  0
  7  8  2  0
  7  9  1  0
  9 10  1  6
  9 11  1  0
 11 12  1  0
  5 13  1  0
 13 14  1  0
 13  2  1  0
M  END
>  <energy_score>  (3436) 
-15.179545

>  <alias>  (3436) 
NWJJYCNEKOUUJM-UHFFFAOYSA-N-P86-P35-P86-601526

>  <HIPPO Pose ID>  (3436) 
77942

>  <smiles>  (3436) 
Cc1ncc(NC(=O)C(Br)CO)n1C

>  <inchikey>  (3436) 
NWJJYCNEKOUUJM-UHFFFAOYSA-N

>  <distance_score>  (3436) 
1.153861

>  <ref_mols>  (3436) 
Z0719a,Z1597a

>  <ref_pdb>  (3436) 
Z3093a

>  <HIPPO Compound ID>  (3436) 
149756

>  <name>  (3436) 
NWJJYCNEKOUUJM-UHFFFAOYSA-N-P86-P35-P86-601526

>  <inspiration_score>  (3436) 
None

$$$$
BYFKTUVHLFKKAU-UHFFFAOYSA-N-P86-P35-P86-601526
     RDKit          3D

 14 15  0  0  0  0  0  0  0  0999 V2000
   -4.2928    5.7410  -18.0500 O   0  0  0  0  0  0  0  0  0  0  0  0
   -4.8913    5.5307  -19.0338 C   0  0  0  0  0  0  0  0  0  0  0  0
   -4.2458    5.5895  -20.4099 C   0  0  0  0  0  0  0  0  0  0  0  0
   -4.6365    6.8249  -21.1921 C   0  0  0  0  0  0  0  0  0  0  0  0
   -3.8580    7.9418  -20.7806 O   0  0  0  0  0  0  0  0  0  0  0  0
   -6.3679    5.0707  -19.2397 N   0  0  0  0  0  0  0  0  0  0  0  0
   -7.3150    4.7084  -18.3320 C   0  0  0  0  0  0  0  0  0  0  0  0
   -8.5814    4.1831  -18.5371 C   0  0  0  0  0  0  0  0  0  0  0  0
   -9.2296    3.9147  -17.3458 N   0  0  0  0  0  0  0  0  0  0  0  0
   -8.3728    4.3024  -16.4378 C   0  0  0  0  0  0  0  0  0  0  0  0
   -7.2205    4.7676  -16.9913 N   0  0  0  0  0  0  0  0  0  0  0  0
   -6.2939    5.2991  -16.0205 C   0  0  0  0  0  0  0  0  0  0  0  0
   -7.1427    5.3593  -14.7474 C   0  0  0  0  0  0  0  0  0  0  0  0
   -8.3458    4.4206  -14.9731 C   0  0  0  0  0  0  0  0  0  0  0  0
  1  2  2  0
  2  3  1  0
  3  4  1  0
  4  5  1  0
  2  6  1  0
  6  7  1  0
  7  8  2  0
  8  9  1  0
  9 10  2  0
 10 11  1  0
 11 12  1  0
 12 13  1  0
 13 14  1  0
 11  7  1  0
 14 10  1  0
M  END
>  <energy_score>  (3437) 
-24.973307

>  <alias>  (3437) 
BYFKTUVHLFKKAU-UHFFFAOYSA-N-P86-P35-P86-601526

>  <HIPPO Pose ID>  (3437) 
77946

>  <smiles>  (3437) 
O=C(CCO)Nc1cnc2n1CCC2

>  <inchikey>  (3437) 
BYFKTUVHLFKKAU-UHFFFAOYSA-N

>  <distance_score>  (3437) 
1.093136

>  <ref_mols>  (3437) 
Z0719a,Z1597a

>  <ref_pdb>  (3437) 
Z3093a

>  <HIPPO Compound ID>  (3437) 
149758

>  <name>  (3437) 
BYFKTUVHLFKKAU-UHFFFAOYSA-N-P86-P35-P86-601526

>  <inspiration_score>  (3437) 
None

$$$$
YAZGYBKYIVWZOC-UHFFFAOYSA-N-P86-P35-P86-601526
     RDKit          3D

 14 14  0  0  0  0  0  0  0  0999 V2000
   -7.6803    3.5401  -12.6642 C   0  0  0  0  0  0  0  0  0  0  0  0
   -6.5507    4.2085  -13.4552 C   0  0  0  0  0  0  0  0  0  0  0  0
   -5.2212    3.5109  -13.1067 C   0  0  0  0  0  0  0  0  0  0  0  0
   -6.8257    4.4252  -14.8778 N   0  0  0  0  0  0  0  0  0  0  0  0
   -8.0281    4.3386  -15.5374 C   0  0  0  0  0  0  0  0  0  0  0  0
   -7.9131    4.6438  -16.8155 N   0  0  0  0  0  0  0  0  0  0  0  0
   -6.5994    4.9310  -16.9922 C   0  0  0  0  0  0  0  0  0  0  0  0
   -6.0675    5.1202  -18.2228 N   0  0  0  0  0  0  0  0  0  0  0  0
   -4.5841    5.2699  -18.6704 C   0  0  0  0  0  0  0  0  0  0  0  0
   -3.6025    5.3298  -18.0351 O   0  0  0  0  0  0  0  0  0  0  0  0
   -4.5423    5.2236  -20.1908 C   0  0  0  0  0  0  0  0  0  0  0  0
   -4.4198    6.6115  -20.7758 C   0  0  0  0  0  0  0  0  0  0  0  0
   -5.6714    7.2803  -20.7422 O   0  0  0  0  0  0  0  0  0  0  0  0
   -5.9306    4.9104  -15.8004 C   0  0  0  0  0  0  0  0  0  0  0  0
  1  2  1  0
  2  3  1  0
  2  4  1  0
  4  5  1  0
  5  6  2  0
  6  7  1  0
  7  8  1  0
  8  9  1  0
  9 10  2  0
  9 11  1  0
 11 12  1  0
 12 13  1  0
  7 14  2  0
 14  4  1  0
M  END
>  <energy_score>  (3438) 
-28.01956

>  <alias>  (3438) 
YAZGYBKYIVWZOC-UHFFFAOYSA-N-P86-P35-P86-601526

>  <HIPPO Pose ID>  (3438) 
77952

>  <smiles>  (3438) 
CC(C)n1cnc(NC(=O)CCO)c1

>  <inchikey>  (3438) 
YAZGYBKYIVWZOC-UHFFFAOYSA-N

>  <distance_score>  (3438) 
1.961697

>  <ref_mols>  (3438) 
Z0719a,Z1597a

>  <ref_pdb>  (3438) 
Z3093a

>  <HIPPO Compound ID>  (3438) 
149761

>  <name>  (3438) 
YAZGYBKYIVWZOC-UHFFFAOYSA-N-P86-P35-P86-601526

>  <inspiration_score>  (3438) 
None

$$$$
XYHFOCBMPYIPNT-UHFFFAOYSA-N-P35-P35-P86-601526
     RDKit          3D

 14 15  0  0  0  0  0  0  0  0999 V2000
   -7.5322    3.2339   -9.3755 C   0  0  0  0  0  0  0  0  0  0  0  0
   -7.7093    4.2108  -10.4762 C   0  0  0  0  0  0  0  0  0  0  0  0
   -8.2245    5.4148  -10.3201 N   0  0  0  0  0  0  0  0  0  0  0  0
   -8.3165    5.9341  -11.5758 C   0  0  0  0  0  0  0  0  0  0  0  0
   -7.7739    5.0880  -12.5183 C   0  0  0  0  0  0  0  0  0  0  0  0
   -7.6973    5.3009  -13.8682 N   0  0  0  0  0  0  0  0  0  0  0  0
   -6.8332    4.6032  -14.9506 C   0  0  0  0  0  0  0  0  0  0  0  0
   -6.1094    3.6866  -14.8689 O   0  0  0  0  0  0  0  0  0  0  0  0
   -7.1146    5.3348  -16.3078 C   0  0  0  0  0  0  0  0  0  0  0  0
   -6.0513    5.1822  -17.4247 C   0  0  0  0  0  0  0  0  0  0  0  0
   -7.2047    5.1327  -18.4364 C   0  0  0  0  0  0  0  0  0  0  0  0
   -8.1138    4.6617  -17.2909 C   0  0  0  0  0  0  0  0  0  0  0  0
   -7.3663    3.9837  -11.8006 N   0  0  0  0  0  0  0  0  0  0  0  0
   -6.7947    2.7618  -12.3260 C   0  0  0  0  0  0  0  0  0  0  0  0
  1  2  1  0
  2  3  2  0
  3  4  1  0
  4  5  2  0
  5  6  1  0
  6  7  1  0
  7  8  2  0
  7  9  1  0
  9 10  1  0
 10 11  1  0
 11 12  1  0
  5 13  1  0
 13 14  1  0
 13  2  1  0
 12  9  1  0
M  END
>  <energy_score>  (3439) 
-5.480332

>  <alias>  (3439) 
XYHFOCBMPYIPNT-UHFFFAOYSA-N-P35-P35-P86-601526

>  <HIPPO Pose ID>  (3439) 
77963

>  <smiles>  (3439) 
Cc1ncc(NC(=O)C2CCC2)n1C

>  <inchikey>  (3439) 
XYHFOCBMPYIPNT-UHFFFAOYSA-N

>  <distance_score>  (3439) 
1.342811

>  <ref_mols>  (3439) 
Z0719a,Z1597a

>  <ref_pdb>  (3439) 
Z3093a

>  <HIPPO Compound ID>  (3439) 
149767

>  <name>  (3439) 
XYHFOCBMPYIPNT-UHFFFAOYSA-N-P35-P35-P86-601526

>  <inspiration_score>  (3439) 
None

$$$$
MOHHGRIEZKDRIS-UHFFFAOYSA-N-P86-P35-P86-601526
     RDKit          3D

 14 14  0  0  0  0  0  0  0  0999 V2000
   -4.5583    7.1922  -20.3927 C   0  0  0  0  0  0  0  0  0  0  0  0
   -3.8346    6.3167  -19.3583 C   0  0  0  0  0  0  0  0  0  0  0  0
   -2.5969    7.0949  -18.8614 C   0  0  0  0  0  0  0  0  0  0  0  0
   -3.3461    5.0306  -20.0315 C   0  0  0  0  0  0  0  0  0  0  0  0
   -4.7295    5.9738  -18.1156 C   0  0  0  0  0  0  0  0  0  0  0  0
   -4.3670    6.1978  -17.0272 O   0  0  0  0  0  0  0  0  0  0  0  0
   -6.0262    5.2808  -18.6229 N   0  0  0  0  0  0  0  0  0  0  0  0
   -7.1221    4.8335  -17.9350 C   0  0  0  0  0  0  0  0  0  0  0  0
   -8.2665    4.5119  -18.6214 N   0  0  0  0  0  0  0  0  0  0  0  0
   -9.2156    4.1265  -17.7214 C   0  0  0  0  0  0  0  0  0  0  0  0
   -8.7483    4.1446  -16.5004 N   0  0  0  0  0  0  0  0  0  0  0  0
   -7.4425    4.5819  -16.6099 C   0  0  0  0  0  0  0  0  0  0  0  0
   -6.6461    4.6768  -15.4230 C   0  0  0  0  0  0  0  0  0  0  0  0
   -6.0074    4.7303  -14.4526 N   0  0  0  0  0  0  0  0  0  0  0  0
  1  2  1  0
  2  3  1  0
  2  4  1  0
  2  5  1  0
  5  6  2  0
  5  7  1  0
  7  8  1  0
  8  9  1  0
  9 10  1  0
 10 11  2  0
 11 12  1  0
 12 13  1  0
 13 14  3  0
 12  8  2  0
M  END
>  <energy_score>  (3440) 
-15.60098

>  <alias>  (3440) 
MOHHGRIEZKDRIS-UHFFFAOYSA-N-P86-P35-P86-601526

>  <HIPPO Pose ID>  (3440) 
77968

>  <smiles>  (3440) 
CC(C)(C)C(=O)Nc1[nH]cnc1C#N

>  <inchikey>  (3440) 
MOHHGRIEZKDRIS-UHFFFAOYSA-N

>  <distance_score>  (3440) 
1.9975

>  <ref_mols>  (3440) 
Z0719a,Z1597a

>  <ref_pdb>  (3440) 
Z3093a

>  <HIPPO Compound ID>  (3440) 
149769

>  <name>  (3440) 
MOHHGRIEZKDRIS-UHFFFAOYSA-N-P86-P35-P86-601526

>  <inspiration_score>  (3440) 
None

$$$$
KYJJLTYLGURZMV-UHFFFAOYSA-N-P86-P35-P86-601526
     RDKit          3D

 14 14  0  0  0  0  0  0  0  0999 V2000
   -8.4759    3.8029  -19.2258 C   0  0  0  0  0  0  0  0  0  0  0  0
   -8.1835    4.2181  -17.8585 C   0  0  0  0  0  0  0  0  0  0  0  0
   -9.0413    3.8438  -16.8615 N   0  0  0  0  0  0  0  0  0  0  0  0
   -8.5057    4.3226  -15.7697 C   0  0  0  0  0  0  0  0  0  0  0  0
   -7.3392    4.9931  -16.0279 N   0  0  0  0  0  0  0  0  0  0  0  0
   -6.4873    5.4757  -14.9856 C   0  0  0  0  0  0  0  0  0  0  0  0
   -7.1195    4.9564  -17.3783 C   0  0  0  0  0  0  0  0  0  0  0  0
   -6.0854    5.4753  -18.1119 N   0  0  0  0  0  0  0  0  0  0  0  0
   -4.9770    6.4953  -17.7162 C   0  0  0  0  0  0  0  0  0  0  0  0
   -4.8251    7.1050  -16.7282 O   0  0  0  0  0  0  0  0  0  0  0  0
   -3.9372    6.5608  -18.8905 C   0  0  0  0  0  0  0  0  0  0  0  0
   -4.5699    6.8461  -20.2660 C   0  0  0  0  0  0  0  0  0  0  0  0
   -2.9395    7.6998  -18.5884 C   0  0  0  0  0  0  0  0  0  0  0  0
   -3.1536    5.2423  -18.9377 C   0  0  0  0  0  0  0  0  0  0  0  0
  1  2  1  0
  2  3  1  0
  3  4  2  0
  4  5  1  0
  5  6  1  0
  5  7  1  0
  7  8  1  0
  8  9  1  0
  9 10  2  0
  9 11  1  0
 11 12  1  0
 11 13  1  0
 11 14  1  0
  7  2  2  0
M  END
>  <energy_score>  (3441) 
-26.068991

>  <alias>  (3441) 
KYJJLTYLGURZMV-UHFFFAOYSA-N-P86-P35-P86-601526

>  <HIPPO Pose ID>  (3441) 
77970

>  <smiles>  (3441) 
Cc1ncn(C)c1NC(=O)C(C)(C)C

>  <inchikey>  (3441) 
KYJJLTYLGURZMV-UHFFFAOYSA-N

>  <distance_score>  (3441) 
1.390282

>  <ref_mols>  (3441) 
Z0719a,Z1597a

>  <ref_pdb>  (3441) 
Z3093a

>  <HIPPO Compound ID>  (3441) 
149770

>  <name>  (3441) 
KYJJLTYLGURZMV-UHFFFAOYSA-N-P86-P35-P86-601526

>  <inspiration_score>  (3441) 
None

$$$$
LZQGTEGIMCYSSS-UHFFFAOYSA-N-P86-P35-P86-601526
     RDKit          3D

 14 14  0  0  0  0  0  0  0  0999 V2000
   -8.5079    4.3809  -14.8959 C   0  0  0  0  0  0  0  0  0  0  0  0
   -8.1509    4.4141  -16.3326 C   0  0  0  0  0  0  0  0  0  0  0  0
   -8.8554    3.9461  -17.3410 N   0  0  0  0  0  0  0  0  0  0  0  0
   -8.1351    4.2678  -18.4637 C   0  0  0  0  0  0  0  0  0  0  0  0
   -6.9806    4.9577  -18.1459 C   0  0  0  0  0  0  0  0  0  0  0  0
   -6.0405    5.4817  -18.9965 N   0  0  0  0  0  0  0  0  0  0  0  0
   -4.8509    6.4553  -18.7176 C   0  0  0  0  0  0  0  0  0  0  0  0
   -4.5429    7.0158  -17.7349 O   0  0  0  0  0  0  0  0  0  0  0  0
   -3.9515    6.5365  -19.9940 C   0  0  0  0  0  0  0  0  0  0  0  0
   -4.7180    7.0090  -21.2310 C   0  0  0  0  0  0  0  0  0  0  0  0
   -3.3069    5.1730  -20.2627 C   0  0  0  0  0  0  0  0  0  0  0  0
   -2.8183    7.5524  -19.7273 C   0  0  0  0  0  0  0  0  0  0  0  0
   -6.9738    4.9738  -16.7741 N   0  0  0  0  0  0  0  0  0  0  0  0
   -5.9174    5.3694  -15.8876 C   0  0  0  0  0  0  0  0  0  0  0  0
  1  2  1  0
  2  3  2  0
  3  4  1  0
  4  5  2  0
  5  6  1  0
  6  7  1  0
  7  8  2  0
  7  9  1  0
  9 10  1  0
  9 11  1  0
  9 12  1  0
  5 13  1  0
 13 14  1  0
 13  2  1  0
M  END
>  <energy_score>  (3442) 
-23.052181

>  <alias>  (3442) 
LZQGTEGIMCYSSS-UHFFFAOYSA-N-P86-P35-P86-601526

>  <HIPPO Pose ID>  (3442) 
77972

>  <smiles>  (3442) 
Cc1ncc(NC(=O)C(C)(C)C)n1C

>  <inchikey>  (3442) 
LZQGTEGIMCYSSS-UHFFFAOYSA-N

>  <distance_score>  (3442) 
1.565885

>  <ref_mols>  (3442) 
Z0719a,Z1597a

>  <ref_pdb>  (3442) 
Z3093a

>  <HIPPO Compound ID>  (3442) 
149771

>  <name>  (3442) 
LZQGTEGIMCYSSS-UHFFFAOYSA-N-P86-P35-P86-601526

>  <inspiration_score>  (3442) 
None

$$$$
UTJZSPOLRZXYLO-UHFFFAOYSA-N-P35-P35-P86-601526
     RDKit          3D

 14 14  0  0  0  0  0  0  0  0999 V2000
   -4.9275    3.1300  -13.6092 C   0  0  0  0  0  0  0  0  0  0  0  0
   -6.4197    3.0692  -13.9773 C   0  0  0  0  0  0  0  0  0  0  0  0
   -7.2353    3.2723  -12.7038 C   0  0  0  0  0  0  0  0  0  0  0  0
   -6.8132    3.9504  -15.0822 N   0  0  0  0  0  0  0  0  0  0  0  0
   -8.0943    4.3211  -15.4127 C   0  0  0  0  0  0  0  0  0  0  0  0
   -8.1348    5.0539  -16.5039 N   0  0  0  0  0  0  0  0  0  0  0  0
   -6.8502    5.1247  -16.9272 C   0  0  0  0  0  0  0  0  0  0  0  0
   -6.5382    5.7946  -18.0600 N   0  0  0  0  0  0  0  0  0  0  0  0
   -5.1632    6.0271  -18.7498 C   0  0  0  0  0  0  0  0  0  0  0  0
   -4.0829    5.7407  -18.4031 O   0  0  0  0  0  0  0  0  0  0  0  0
   -5.4653    6.8396  -19.9984 C   0  0  0  0  0  0  0  0  0  0  0  0
   -4.1886    7.1977  -20.7441 C   0  0  0  0  0  0  0  0  0  0  0  0
   -4.6385    8.3307  -22.5063 I   0  0  0  0  0  0  0  0  0  0  0  0
   -6.0095    4.4740  -16.0658 C   0  0  0  0  0  0  0  0  0  0  0  0
  1  2  1  0
  2  3  1  0
  2  4  1  0
  4  5  1  0
  5  6  2  0
  6  7  1  0
  7  8  1  0
  8  9  1  0
  9 10  2  0
  9 11  1  0
 11 12  1  0
 12 13  1  0
  7 14  2  0
 14  4  1  0
M  END
>  <energy_score>  (3443) 
-21.268308

>  <alias>  (3443) 
UTJZSPOLRZXYLO-UHFFFAOYSA-N-P35-P35-P86-601526

>  <HIPPO Pose ID>  (3443) 
77981

>  <smiles>  (3443) 
CC(C)n1cnc(NC(=O)CCI)c1

>  <inchikey>  (3443) 
UTJZSPOLRZXYLO-UHFFFAOYSA-N

>  <distance_score>  (3443) 
1.663602

>  <ref_mols>  (3443) 
Z0719a,Z1597a

>  <ref_pdb>  (3443) 
Z3093a

>  <HIPPO Compound ID>  (3443) 
149776

>  <name>  (3443) 
UTJZSPOLRZXYLO-UHFFFAOYSA-N-P35-P35-P86-601526

>  <inspiration_score>  (3443) 
None

$$$$
NZSRKXQAHSZTSR-UHFFFAOYSA-N-P86-P35-P86-601526
     RDKit          3D

 14 15  0  0  0  0  0  0  0  0999 V2000
   -4.3577    5.2613  -18.2294 O   0  0  0  0  0  0  0  0  0  0  0  0
   -5.0676    5.2622  -19.1586 C   0  0  0  0  0  0  0  0  0  0  0  0
   -4.5693    5.5323  -20.5697 C   0  0  0  0  0  0  0  0  0  0  0  0
   -4.5613    7.0262  -20.8258 C   0  0  0  0  0  0  0  0  0  0  0  0
   -4.1529    7.4665  -22.8725 I   0  0  0  0  0  0  0  0  0  0  0  0
   -6.5982    5.0015  -19.2580 N   0  0  0  0  0  0  0  0  0  0  0  0
   -7.4912    4.6177  -18.3083 C   0  0  0  0  0  0  0  0  0  0  0  0
   -8.7764    4.1280  -18.4597 C   0  0  0  0  0  0  0  0  0  0  0  0
   -9.3715    3.8538  -17.2435 N   0  0  0  0  0  0  0  0  0  0  0  0
   -8.4678    4.2154  -16.3709 C   0  0  0  0  0  0  0  0  0  0  0  0
   -7.3252    4.6414  -16.9754 N   0  0  0  0  0  0  0  0  0  0  0  0
   -6.3686    5.1954  -16.0526 C   0  0  0  0  0  0  0  0  0  0  0  0
   -7.1861    5.3304  -14.7672 C   0  0  0  0  0  0  0  0  0  0  0  0
   -8.3874    4.3731  -14.9090 C   0  0  0  0  0  0  0  0  0  0  0  0
  1  2  2  0
  2  3  1  0
  3  4  1  0
  4  5  1  0
  2  6  1  0
  6  7  1  0
  7  8  2  0
  8  9  1  0
  9 10  2  0
 10 11  1  0
 11 12  1  0
 12 13  1  0
 13 14  1  0
 11  7  1  0
 14 10  1  0
M  END
>  <energy_score>  (3444) 
-19.673069

>  <alias>  (3444) 
NZSRKXQAHSZTSR-UHFFFAOYSA-N-P86-P35-P86-601526

>  <HIPPO Pose ID>  (3444) 
77994

>  <smiles>  (3444) 
O=C(CCI)Nc1cnc2n1CCC2

>  <inchikey>  (3444) 
NZSRKXQAHSZTSR-UHFFFAOYSA-N

>  <distance_score>  (3444) 
1.485588

>  <ref_mols>  (3444) 
Z0719a,Z1597a

>  <ref_pdb>  (3444) 
Z3093a

>  <HIPPO Compound ID>  (3444) 
149782

>  <name>  (3444) 
NZSRKXQAHSZTSR-UHFFFAOYSA-N-P86-P35-P86-601526

>  <inspiration_score>  (3444) 
None

$$$$
USTWDWYJKYYVJS-UHFFFAOYSA-N-P35-P35-P86-601526
     RDKit          3D

 14 14  0  0  0  0  0  0  0  0999 V2000
   -4.2728    6.4724  -19.6389 C   0  0  0  0  0  0  0  0  0  0  0  0
   -3.7550    5.2134  -18.9927 C   0  0  0  0  0  0  0  0  0  0  0  0
   -2.8942    4.5252  -19.5339 O   0  0  0  0  0  0  0  0  0  0  0  0
   -4.3543    4.8047  -17.6138 C   0  0  0  0  0  0  0  0  0  0  0  0
   -3.6455    4.4964  -16.7443 O   0  0  0  0  0  0  0  0  0  0  0  0
   -5.8881    4.9176  -17.6582 N   0  0  0  0  0  0  0  0  0  0  0  0
   -6.8268    4.6015  -16.7226 C   0  0  0  0  0  0  0  0  0  0  0  0
   -8.0779    4.9322  -17.1994 N   0  0  0  0  0  0  0  0  0  0  0  0
   -8.9465    4.4351  -16.3604 C   0  0  0  0  0  0  0  0  0  0  0  0
   -8.3188    3.8774  -15.2970 N   0  0  0  0  0  0  0  0  0  0  0  0
   -6.9570    3.9995  -15.4882 C   0  0  0  0  0  0  0  0  0  0  0  0
   -6.1270    3.4015  -14.4902 N   0  0  0  0  0  0  0  0  0  0  0  0
   -6.6762    2.5523  -13.7673 O   0  0  0  0  0  0  0  0  0  0  0  0
   -4.9592    3.7730  -14.3775 O   0  0  0  0  0  0  0  0  0  0  0  0
  1  2  1  0
  2  3  2  0
  2  4  1  0
  4  5  2  0
  4  6  1  0
  6  7  1  0
  7  8  1  0
  8  9  2  0
  9 10  1  0
 10 11  1  0
 11 12  1  0
 12 13  2  0
 12 14  1  0
 11  7  2  0
M  CHG  2  12   1  14  -1
M  END
>  <energy_score>  (3445) 
-11.115149

>  <alias>  (3445) 
USTWDWYJKYYVJS-UHFFFAOYSA-N-P35-P35-P86-601526

>  <HIPPO Pose ID>  (3445) 
77997

>  <smiles>  (3445) 
CC(=O)C(=O)Nc1nc[nH]c1[N+](=O)[O-]

>  <inchikey>  (3445) 
USTWDWYJKYYVJS-UHFFFAOYSA-N

>  <distance_score>  (3445) 
1.777344

>  <ref_mols>  (3445) 
Z0719a,Z1597a

>  <ref_pdb>  (3445) 
Z3093a

>  <HIPPO Compound ID>  (3445) 
149784

>  <name>  (3445) 
USTWDWYJKYYVJS-UHFFFAOYSA-N-P35-P35-P86-601526

>  <inspiration_score>  (3445) 
None

$$$$
SYASNOKXAUCSOJ-UHFFFAOYSA-N-P35-P35-P86-601526
     RDKit          3D

 14 15  0  0  0  0  0  0  0  0999 V2000
   -4.3949    7.3051  -21.1602 C   0  0  0  0  0  0  0  0  0  0  0  0
   -3.9202    6.1389  -20.3518 C   0  0  0  0  0  0  0  0  0  0  0  0
   -2.9698    5.4320  -20.6768 O   0  0  0  0  0  0  0  0  0  0  0  0
   -4.6893    5.9009  -19.0562 C   0  0  0  0  0  0  0  0  0  0  0  0
   -4.2406    6.3073  -18.0588 O   0  0  0  0  0  0  0  0  0  0  0  0
   -6.0435    5.2099  -19.3380 N   0  0  0  0  0  0  0  0  0  0  0  0
   -7.0328    4.8117  -18.4813 C   0  0  0  0  0  0  0  0  0  0  0  0
   -8.2773    4.2508  -18.7409 C   0  0  0  0  0  0  0  0  0  0  0  0
   -9.0128    4.0382  -17.5872 N   0  0  0  0  0  0  0  0  0  0  0  0
   -8.2306    4.4931  -16.6468 C   0  0  0  0  0  0  0  0  0  0  0  0
   -7.0326    4.9116  -17.1375 N   0  0  0  0  0  0  0  0  0  0  0  0
   -6.1346    5.3807  -16.1083 C   0  0  0  0  0  0  0  0  0  0  0  0
   -6.8243    4.9032  -14.8277 C   0  0  0  0  0  0  0  0  0  0  0  0
   -8.3056    4.6831  -15.1918 C   0  0  0  0  0  0  0  0  0  0  0  0
  1  2  1  0
  2  3  2  0
  2  4  1  0
  4  5  2  0
  4  6  1  0
  6  7  1  0
  7  8  2  0
  8  9  1  0
  9 10  2  0
 10 11  1  0
 11 12  1  0
 12 13  1  0
 13 14  1  0
 11  7  1  0
 14 10  1  0
M  END
>  <energy_score>  (3446) 
-24.357338

>  <alias>  (3446) 
SYASNOKXAUCSOJ-UHFFFAOYSA-N-P35-P35-P86-601526

>  <HIPPO Pose ID>  (3446) 
78001

>  <smiles>  (3446) 
CC(=O)C(=O)Nc1cnc2n1CCC2

>  <inchikey>  (3446) 
SYASNOKXAUCSOJ-UHFFFAOYSA-N

>  <distance_score>  (3446) 
1.370568

>  <ref_mols>  (3446) 
Z0719a,Z1597a

>  <ref_pdb>  (3446) 
Z3093a

>  <HIPPO Compound ID>  (3446) 
149786

>  <name>  (3446) 
SYASNOKXAUCSOJ-UHFFFAOYSA-N-P35-P35-P86-601526

>  <inspiration_score>  (3446) 
None

$$$$
GLUSPDFKTAICGH-UHFFFAOYSA-N-P35-P35-P86-601526
     RDKit          3D

 14 14  0  0  0  0  0  0  0  0999 V2000
   -5.1813    2.7284  -13.5721 C   0  0  0  0  0  0  0  0  0  0  0  0
   -6.2254    3.8187  -13.4693 C   0  0  0  0  0  0  0  0  0  0  0  0
   -7.4216    3.6581  -14.4309 C   0  0  0  0  0  0  0  0  0  0  0  0
   -7.3127    4.1760  -15.7798 N   0  0  0  0  0  0  0  0  0  0  0  0
   -8.3673    4.3936  -16.6266 C   0  0  0  0  0  0  0  0  0  0  0  0
   -7.9590    4.8484  -17.7934 N   0  0  0  0  0  0  0  0  0  0  0  0
   -6.6063    4.9198  -17.6979 C   0  0  0  0  0  0  0  0  0  0  0  0
   -5.8328    5.3252  -18.7326 N   0  0  0  0  0  0  0  0  0  0  0  0
   -4.3110    5.5883  -18.8057 C   0  0  0  0  0  0  0  0  0  0  0  0
   -3.4988    5.5713  -17.9671 O   0  0  0  0  0  0  0  0  0  0  0  0
   -3.8671    6.0232  -20.2048 C   0  0  0  0  0  0  0  0  0  0  0  0
   -4.5780    7.2019  -20.7968 C   0  0  0  0  0  0  0  0  0  0  0  0
   -2.9324    5.4566  -20.7711 O   0  0  0  0  0  0  0  0  0  0  0  0
   -6.1860    4.5554  -16.4484 C   0  0  0  0  0  0  0  0  0  0  0  0
  1  2  1  0
  2  3  1  0
  3  4  1  0
  4  5  1  0
  5  6  2  0
  6  7  1  0
  7  8  1  0
  8  9  1  0
  9 10  2  0
  9 11  1  0
 11 12  1  0
 11 13  2  0
  7 14  2  0
 14  4  1  0
M  END
>  <energy_score>  (3447) 
-13.059507

>  <alias>  (3447) 
GLUSPDFKTAICGH-UHFFFAOYSA-N-P35-P35-P86-601526

>  <HIPPO Pose ID>  (3447) 
78011

>  <smiles>  (3447) 
CCCn1cnc(NC(=O)C(C)=O)c1

>  <inchikey>  (3447) 
GLUSPDFKTAICGH-UHFFFAOYSA-N

>  <distance_score>  (3447) 
1.527705

>  <ref_mols>  (3447) 
Z0719a,Z1597a

>  <ref_pdb>  (3447) 
Z3093a

>  <HIPPO Compound ID>  (3447) 
149791

>  <name>  (3447) 
GLUSPDFKTAICGH-UHFFFAOYSA-N-P35-P35-P86-601526

>  <inspiration_score>  (3447) 
None

$$$$
GQOVNXMZMBOVCD-UHFFFAOYSA-N-P86-P35-P86-601526
     RDKit          3D

 14 15  0  0  0  0  0  0  0  0999 V2000
   -9.2415    3.5230  -17.7069 C   0  0  0  0  0  0  0  0  0  0  0  0
   -8.3231    3.8491  -16.7841 C   0  0  0  0  0  0  0  0  0  0  0  0
   -7.4898    5.0380  -16.9968 C   0  0  0  0  0  0  0  0  0  0  0  0
   -8.4275    4.9764  -15.8466 C   0  0  2  0  0  0  0  0  0  0  0  0
   -7.7730    5.0137  -14.5207 C   0  0  0  0  0  0  0  0  0  0  0  0
   -6.9509    5.8267  -14.3799 O   0  0  0  0  0  0  0  0  0  0  0  0
   -8.3480    3.9925  -13.5226 N   0  0  0  0  0  0  0  0  0  0  0  0
   -7.9856    3.7086  -12.2381 C   0  0  0  0  0  0  0  0  0  0  0  0
   -8.7423    3.0751  -11.2928 N   0  0  0  0  0  0  0  0  0  0  0  0
   -8.0299    3.0848  -10.1193 C   0  0  0  0  0  0  0  0  0  0  0  0
   -6.8407    3.6263  -10.2731 N   0  0  0  0  0  0  0  0  0  0  0  0
   -6.7815    3.9462  -11.6084 C   0  0  0  0  0  0  0  0  0  0  0  0
   -5.5541    4.2307  -12.2946 C   0  0  0  0  0  0  0  0  0  0  0  0
   -4.6165    4.3614  -12.9710 N   0  0  0  0  0  0  0  0  0  0  0  0
  1  2  2  0
  2  3  1  0
  3  4  1  0
  4  5  1  1
  5  6  2  0
  5  7  1  0
  7  8  1  0
  8  9  1  0
  9 10  1  0
 10 11  2  0
 11 12  1  0
 12 13  1  0
 13 14  3  0
  4  2  1  0
 12  8  2  0
M  END
>  <energy_score>  (3448) 
-3.185702

>  <alias>  (3448) 
GQOVNXMZMBOVCD-UHFFFAOYSA-N-P86-P35-P86-601526

>  <HIPPO Pose ID>  (3448) 
78020

>  <smiles>  (3448) 
C=C1CC1C(=O)Nc1[nH]cnc1C#N

>  <inchikey>  (3448) 
GQOVNXMZMBOVCD-UHFFFAOYSA-N

>  <distance_score>  (3448) 
1.232172

>  <ref_mols>  (3448) 
Z0719a,Z1597a

>  <ref_pdb>  (3448) 
Z3093a

>  <HIPPO Compound ID>  (3448) 
149795

>  <name>  (3448) 
GQOVNXMZMBOVCD-UHFFFAOYSA-N-P86-P35-P86-601526

>  <inspiration_score>  (3448) 
None

$$$$
DTFHQIBKWWOYFP-UHFFFAOYSA-N-P35-P35-P86-601526
     RDKit          3D

 14 14  0  0  0  0  0  0  0  0999 V2000
   -5.2558    8.3335  -18.1825 C   0  0  0  0  0  0  0  0  0  0  0  0
   -5.1677    7.5182  -19.7983 S   0  0  0  0  0  0  0  0  0  0  0  0
   -3.6404    6.5578  -19.5526 C   0  0  0  0  0  0  0  0  0  0  0  0
   -3.8052    5.1157  -19.0896 C   0  0  0  0  0  0  0  0  0  0  0  0
   -4.5805    4.9030  -17.7936 C   0  0  0  0  0  0  0  0  0  0  0  0
   -4.0698    4.7788  -16.7516 O   0  0  0  0  0  0  0  0  0  0  0  0
   -6.0727    4.7942  -18.2007 N   0  0  0  0  0  0  0  0  0  0  0  0
   -7.1896    4.6142  -17.4357 C   0  0  0  0  0  0  0  0  0  0  0  0
   -8.4056    4.8001  -18.0499 N   0  0  0  0  0  0  0  0  0  0  0  0
   -9.3865    4.5306  -17.1475 C   0  0  0  0  0  0  0  0  0  0  0  0
   -8.8835    4.1961  -15.9875 N   0  0  0  0  0  0  0  0  0  0  0  0
   -7.5059    4.2194  -16.1419 C   0  0  0  0  0  0  0  0  0  0  0  0
   -6.6981    3.7387  -15.0433 C   0  0  0  0  0  0  0  0  0  0  0  0
   -6.1243    3.2863  -14.1364 N   0  0  0  0  0  0  0  0  0  0  0  0
  1  2  1  0
  2  3  1  0
  3  4  1  0
  4  5  1  0
  5  6  2  0
  5  7  1  0
  7  8  1  0
  8  9  1  0
  9 10  1  0
 10 11  2  0
 11 12  1  0
 12 13  1  0
 13 14  3  0
 12  8  2  0
M  END
>  <energy_score>  (3449) 
-18.494969

>  <alias>  (3449) 
DTFHQIBKWWOYFP-UHFFFAOYSA-N-P35-P35-P86-601526

>  <HIPPO Pose ID>  (3449) 
78035

>  <smiles>  (3449) 
CSCCC(=O)Nc1[nH]cnc1C#N

>  <inchikey>  (3449) 
DTFHQIBKWWOYFP-UHFFFAOYSA-N

>  <distance_score>  (3449) 
1.820067

>  <ref_mols>  (3449) 
Z0719a,Z1597a

>  <ref_pdb>  (3449) 
Z3093a

>  <HIPPO Compound ID>  (3449) 
149803

>  <name>  (3449) 
DTFHQIBKWWOYFP-UHFFFAOYSA-N-P35-P35-P86-601526

>  <inspiration_score>  (3449) 
None

$$$$
RIZAIIGXORDVEW-UHFFFAOYSA-N-P86-P35-P86-601526
     RDKit          3D

 14 14  0  0  0  0  0  0  0  0999 V2000
   -8.5335    3.7501  -19.2237 C   0  0  0  0  0  0  0  0  0  0  0  0
   -8.0223    4.2732  -17.9541 C   0  0  0  0  0  0  0  0  0  0  0  0
   -8.7570    4.0607  -16.8151 N   0  0  0  0  0  0  0  0  0  0  0  0
   -8.0372    4.5575  -15.8369 C   0  0  0  0  0  0  0  0  0  0  0  0
   -8.3664    4.5177  -14.3943 C   0  0  0  0  0  0  0  0  0  0  0  0
   -6.8671    5.0993  -16.3186 N   0  0  0  0  0  0  0  0  0  0  0  0
   -5.7908    5.5209  -15.4718 C   0  0  0  0  0  0  0  0  0  0  0  0
   -6.8623    4.9744  -17.6851 C   0  0  0  0  0  0  0  0  0  0  0  0
   -5.8807    5.3839  -18.5525 N   0  0  0  0  0  0  0  0  0  0  0  0
   -4.7768    6.4717  -18.3904 C   0  0  0  0  0  0  0  0  0  0  0  0
   -4.4891    7.1290  -17.4642 O   0  0  0  0  0  0  0  0  0  0  0  0
   -3.9342    6.5380  -19.6808 C   0  0  0  0  0  0  0  0  0  0  0  0
   -4.7224    6.7085  -20.9713 C   0  0  0  0  0  0  0  0  0  0  0  0
   -2.9862    5.3469  -19.7575 C   0  0  0  0  0  0  0  0  0  0  0  0
  1  2  1  0
  2  3  1  0
  3  4  2  0
  4  5  1  0
  4  6  1  0
  6  7  1  0
  6  8  1  0
  8  9  1  0
  9 10  1  0
 10 11  2  0
 10 12  1  0
 12 13  1  0
 12 14  1  0
  8  2  2  0
M  END
>  <energy_score>  (3450) 
-16.187693

>  <alias>  (3450) 
RIZAIIGXORDVEW-UHFFFAOYSA-N-P86-P35-P86-601526

>  <HIPPO Pose ID>  (3450) 
78038

>  <smiles>  (3450) 
Cc1nc(C)n(C)c1NC(=O)C(C)C

>  <inchikey>  (3450) 
RIZAIIGXORDVEW-UHFFFAOYSA-N

>  <distance_score>  (3450) 
1.575123

>  <ref_mols>  (3450) 
Z0719a,Z1597a

>  <ref_pdb>  (3450) 
Z3093a

>  <HIPPO Compound ID>  (3450) 
149804

>  <name>  (3450) 
RIZAIIGXORDVEW-UHFFFAOYSA-N-P86-P35-P86-601526

>  <inspiration_score>  (3450) 
None

$$$$
SKHLFUWKPXMHHJ-UHFFFAOYSA-N-P86-P35-P86-601526
     RDKit          3D

 14 15  0  0  0  0  0  0  0  0999 V2000
   -4.5643    6.9176  -20.9378 C   0  0  0  0  0  0  0  0  0  0  0  0
   -4.2789    5.5102  -20.4365 C   0  0  0  0  0  0  0  0  0  0  0  0
   -2.7718    5.2511  -20.4166 C   0  0  0  0  0  0  0  0  0  0  0  0
   -4.8835    5.2972  -19.0421 C   0  0  0  0  0  0  0  0  0  0  0  0
   -4.2434    5.3187  -18.0624 O   0  0  0  0  0  0  0  0  0  0  0  0
   -6.4044    5.0184  -19.2497 N   0  0  0  0  0  0  0  0  0  0  0  0
   -7.3635    4.6400  -18.3592 C   0  0  0  0  0  0  0  0  0  0  0  0
   -8.6467    4.1691  -18.5866 C   0  0  0  0  0  0  0  0  0  0  0  0
   -9.3400    3.9655  -17.4079 N   0  0  0  0  0  0  0  0  0  0  0  0
   -8.4923    4.3414  -16.4865 C   0  0  0  0  0  0  0  0  0  0  0  0
   -7.2802    4.6622  -17.0156 N   0  0  0  0  0  0  0  0  0  0  0  0
   -6.3644    5.2014  -16.0445 C   0  0  0  0  0  0  0  0  0  0  0  0
   -7.0776    4.9521  -14.7176 C   0  0  0  0  0  0  0  0  0  0  0  0
   -8.5510    4.6568  -15.0502 C   0  0  0  0  0  0  0  0  0  0  0  0
  1  2  1  0
  2  3  1  0
  2  4  1  0
  4  5  2  0
  4  6  1  0
  6  7  1  0
  7  8  2  0
  8  9  1  0
  9 10  2  0
 10 11  1  0
 11 12  1  0
 12 13  1  0
 13 14  1  0
 11  7  1  0
 14 10  1  0
M  END
>  <energy_score>  (3451) 
-8.559436

>  <alias>  (3451) 
SKHLFUWKPXMHHJ-UHFFFAOYSA-N-P86-P35-P86-601526

>  <HIPPO Pose ID>  (3451) 
78040

>  <smiles>  (3451) 
CC(C)C(=O)Nc1cnc2n1CCC2

>  <inchikey>  (3451) 
SKHLFUWKPXMHHJ-UHFFFAOYSA-N

>  <distance_score>  (3451) 
1.48216

>  <ref_mols>  (3451) 
Z0719a,Z1597a

>  <ref_pdb>  (3451) 
Z3093a

>  <HIPPO Compound ID>  (3451) 
149805

>  <name>  (3451) 
SKHLFUWKPXMHHJ-UHFFFAOYSA-N-P86-P35-P86-601526

>  <inspiration_score>  (3451) 
None

$$$$
ILBLNJZSADAZHG-UHFFFAOYSA-N-P35-P35-P86-601526
     RDKit          3D

 14 14  0  0  0  0  0  0  0  0999 V2000
   -3.8692    6.9599  -20.7181 C   0  0  0  0  0  0  0  0  0  0  0  0
   -5.1460    6.9225  -19.8819 C   0  0  0  0  0  0  0  0  0  0  0  0
   -5.5504    8.3458  -19.5063 C   0  0  0  0  0  0  0  0  0  0  0  0
   -4.9385    6.0751  -18.6173 C   0  0  0  0  0  0  0  0  0  0  0  0
   -3.8792    5.7775  -18.2173 O   0  0  0  0  0  0  0  0  0  0  0  0
   -6.3507    5.8357  -18.0075 N   0  0  0  0  0  0  0  0  0  0  0  0
   -6.7262    5.1463  -16.9061 C   0  0  0  0  0  0  0  0  0  0  0  0
   -5.9251    4.4855  -16.0161 C   0  0  0  0  0  0  0  0  0  0  0  0
   -6.7703    3.9424  -15.0819 N   0  0  0  0  0  0  0  0  0  0  0  0
   -6.4212    3.0544  -13.9675 C   0  0  0  0  0  0  0  0  0  0  0  0
   -7.2521    3.2935  -12.7110 C   0  0  0  0  0  0  0  0  0  0  0  0
   -4.9343    3.0709  -13.5728 C   0  0  0  0  0  0  0  0  0  0  0  0
   -8.0380    4.3056  -15.4712 C   0  0  0  0  0  0  0  0  0  0  0  0
   -8.0313    5.0601  -16.5497 N   0  0  0  0  0  0  0  0  0  0  0  0
  1  2  1  0
  2  3  1  0
  2  4  1  0
  4  5  2  0
  4  6  1  0
  6  7  1  0
  7  8  2  0
  8  9  1  0
  9 10  1  0
 10 11  1  0
 10 12  1  0
  9 13  1  0
 13 14  2  0
 14  7  1  0
M  END
>  <energy_score>  (3452) 
-19.703142

>  <alias>  (3452) 
ILBLNJZSADAZHG-UHFFFAOYSA-N-P35-P35-P86-601526

>  <HIPPO Pose ID>  (3452) 
78045

>  <smiles>  (3452) 
CC(C)C(=O)Nc1cn(C(C)C)cn1

>  <inchikey>  (3452) 
ILBLNJZSADAZHG-UHFFFAOYSA-N

>  <distance_score>  (3452) 
1.889231

>  <ref_mols>  (3452) 
Z0719a,Z1597a

>  <ref_pdb>  (3452) 
Z3093a

>  <HIPPO Compound ID>  (3452) 
149808

>  <name>  (3452) 
ILBLNJZSADAZHG-UHFFFAOYSA-N-P35-P35-P86-601526

>  <inspiration_score>  (3452) 
None

$$$$
VRFPEUYXHDKJIO-UHFFFAOYSA-N-P86-P35-P86-601526
     RDKit          3D

 14 14  0  0  0  0  0  0  0  0999 V2000
   -6.4145    3.2753  -12.2660 C   0  0  0  0  0  0  0  0  0  0  0  0
   -6.2240    4.0863  -13.5295 C   0  0  0  0  0  0  0  0  0  0  0  0
   -7.5436    4.2865  -14.3099 C   0  0  0  0  0  0  0  0  0  0  0  0
   -7.3731    4.6535  -15.7012 N   0  0  0  0  0  0  0  0  0  0  0  0
   -8.0689    4.1733  -16.7693 C   0  0  0  0  0  0  0  0  0  0  0  0
   -7.4769    4.5071  -17.8972 N   0  0  0  0  0  0  0  0  0  0  0  0
   -6.4086    5.2620  -17.5418 C   0  0  0  0  0  0  0  0  0  0  0  0
   -5.4611    5.7467  -18.3803 N   0  0  0  0  0  0  0  0  0  0  0  0
   -5.1065    5.3484  -19.8401 C   0  0  0  0  0  0  0  0  0  0  0  0
   -5.6265    4.5967  -20.5669 O   0  0  0  0  0  0  0  0  0  0  0  0
   -3.8586    6.1588  -20.2156 C   0  0  0  0  0  0  0  0  0  0  0  0
   -4.0426    6.7804  -21.5923 C   0  0  0  0  0  0  0  0  0  0  0  0
   -2.6372    5.2474  -20.1565 C   0  0  0  0  0  0  0  0  0  0  0  0
   -6.3939    5.4691  -16.1903 C   0  0  0  0  0  0  0  0  0  0  0  0
  1  2  1  0
  2  3  1  0
  3  4  1  0
  4  5  1  0
  5  6  2  0
  6  7  1  0
  7  8  1  0
  8  9  1  0
  9 10  2  0
  9 11  1  0
 11 12  1  0
 11 13  1  0
  7 14  2  0
 14  4  1  0
M  END
>  <energy_score>  (3453) 
-11.575165

>  <alias>  (3453) 
VRFPEUYXHDKJIO-UHFFFAOYSA-N-P86-P35-P86-601526

>  <HIPPO Pose ID>  (3453) 
78050

>  <smiles>  (3453) 
CCCn1cnc(NC(=O)C(C)C)c1

>  <inchikey>  (3453) 
VRFPEUYXHDKJIO-UHFFFAOYSA-N

>  <distance_score>  (3453) 
1.96797

>  <ref_mols>  (3453) 
Z0719a,Z1597a

>  <ref_pdb>  (3453) 
Z3093a

>  <HIPPO Compound ID>  (3453) 
149810

>  <name>  (3453) 
VRFPEUYXHDKJIO-UHFFFAOYSA-N-P86-P35-P86-601526

>  <inspiration_score>  (3453) 
None

$$$$
ZTDZNATVVSPQSF-UHFFFAOYSA-N-P35-P35-P86-601526
     RDKit          3D

 14 14  0  0  0  0  0  0  0  0999 V2000
   -4.3956    7.0762  -20.2189 C   0  0  0  0  0  0  0  0  0  0  0  0
   -3.6766    6.3347  -19.0971 C   0  0  0  0  0  0  0  0  0  0  0  0
   -3.0639    5.0231  -19.5588 C   0  0  0  0  0  0  0  0  0  0  0  0
   -4.4996    6.0837  -17.8248 C   0  0  0  0  0  0  0  0  0  0  0  0
   -4.0510    6.3549  -16.7795 O   0  0  0  0  0  0  0  0  0  0  0  0
   -5.8310    5.3777  -18.1951 N   0  0  0  0  0  0  0  0  0  0  0  0
   -6.8600    4.9724  -17.4113 C   0  0  0  0  0  0  0  0  0  0  0  0
   -8.1020    4.8167  -17.9514 N   0  0  0  0  0  0  0  0  0  0  0  0
   -8.9024    4.5495  -16.9403 C   0  0  0  0  0  0  0  0  0  0  0  0
   -8.2064    4.5302  -15.7750 N   0  0  0  0  0  0  0  0  0  0  0  0
   -8.7135    4.4657  -14.4309 C   0  0  0  0  0  0  0  0  0  0  0  0
   -6.8830    4.6866  -16.0722 C   0  0  0  0  0  0  0  0  0  0  0  0
   -5.8555    4.4969  -15.1254 C   0  0  0  0  0  0  0  0  0  0  0  0
   -5.0944    4.2385  -14.2902 N   0  0  0  0  0  0  0  0  0  0  0  0
  1  2  1  0
  2  3  1  0
  2  4  1  0
  4  5  2  0
  4  6  1  0
  6  7  1  0
  7  8  1  0
  8  9  2  0
  9 10  1  0
 10 11  1  0
 10 12  1  0
 12 13  1  0
 13 14  3  0
 12  7  2  0
M  END
>  <energy_score>  (3454) 
-19.169359

>  <alias>  (3454) 
ZTDZNATVVSPQSF-UHFFFAOYSA-N-P35-P35-P86-601526

>  <HIPPO Pose ID>  (3454) 
78051

>  <smiles>  (3454) 
CC(C)C(=O)Nc1ncn(C)c1C#N

>  <inchikey>  (3454) 
ZTDZNATVVSPQSF-UHFFFAOYSA-N

>  <distance_score>  (3454) 
1.38172

>  <ref_mols>  (3454) 
Z0719a,Z1597a

>  <ref_pdb>  (3454) 
Z3093a

>  <HIPPO Compound ID>  (3454) 
149811

>  <name>  (3454) 
ZTDZNATVVSPQSF-UHFFFAOYSA-N-P35-P35-P86-601526

>  <inspiration_score>  (3454) 
None

$$$$
UHSBWEITIRIVHA-UHFFFAOYSA-N-P86-P35-P86-601526
     RDKit          3D

 14 15  0  0  0  0  0  0  0  0999 V2000
   -4.4439    4.8890  -12.9424 N   0  0  0  0  0  0  0  0  0  0  0  0
   -5.4949    4.7628  -12.4630 C   0  0  0  0  0  0  0  0  0  0  0  0
   -6.8280    4.4360  -12.0608 C   0  0  0  0  0  0  0  0  0  0  0  0
   -7.1652    4.0953  -10.7698 N   0  0  0  0  0  0  0  0  0  0  0  0
   -8.3043    3.4473  -10.8921 C   0  0  0  0  0  0  0  0  0  0  0  0
   -8.7064    3.3765  -12.2025 N   0  0  0  0  0  0  0  0  0  0  0  0
   -7.8195    4.0963  -12.9571 C   0  0  0  0  0  0  0  0  0  0  0  0
   -7.8873    4.2765  -14.3129 N   0  0  0  0  0  0  0  0  0  0  0  0
   -7.1621    5.2939  -15.2302 C   0  0  0  0  0  0  0  0  0  0  0  0
   -6.4550    6.1841  -14.9625 O   0  0  0  0  0  0  0  0  0  0  0  0
   -7.3451    4.9928  -16.7088 C   0  0  0  0  0  0  0  0  0  0  0  0
   -9.0582    3.8840  -17.3168 I   0  0  0  0  0  0  0  0  0  0  0  0
   -6.1071    4.7115  -17.5384 C   0  0  0  0  0  0  0  0  0  0  0  0
   -6.8349    5.9839  -17.7570 C   0  0  0  0  0  0  0  0  0  0  0  0
  1  2  3  0
  2  3  1  0
  3  4  1  0
  4  5  2  0
  5  6  1  0
  6  7  1  0
  7  8  1  0
  8  9  1  0
  9 10  2  0
  9 11  1  0
 11 12  1  0
 11 13  1  0
 13 14  1  0
  7  3  2  0
 14 11  1  0
M  END
>  <energy_score>  (3455) 
-6.316584

>  <alias>  (3455) 
UHSBWEITIRIVHA-UHFFFAOYSA-N-P86-P35-P86-601526

>  <HIPPO Pose ID>  (3455) 
78054

>  <smiles>  (3455) 
N#Cc1nc[nH]c1NC(=O)C1(I)CC1

>  <inchikey>  (3455) 
UHSBWEITIRIVHA-UHFFFAOYSA-N

>  <distance_score>  (3455) 
1.536239

>  <ref_mols>  (3455) 
Z0719a,Z1597a

>  <ref_pdb>  (3455) 
Z3093a

>  <HIPPO Compound ID>  (3455) 
149812

>  <name>  (3455) 
UHSBWEITIRIVHA-UHFFFAOYSA-N-P86-P35-P86-601526

>  <inspiration_score>  (3455) 
None

$$$$
NYIXSAHKZWQZDE-UHFFFAOYSA-N-P86-P35-P86-601526
     RDKit          3D

 14 15  0  0  0  0  0  0  0  0999 V2000
   -7.3632    3.6330   -9.4047 C   0  0  0  0  0  0  0  0  0  0  0  0
   -7.5690    4.5351  -10.5643 C   0  0  0  0  0  0  0  0  0  0  0  0
   -8.2901    5.6382  -10.5346 N   0  0  0  0  0  0  0  0  0  0  0  0
   -8.3695    6.0554  -11.8319 C   0  0  0  0  0  0  0  0  0  0  0  0
   -7.5998    5.2751  -12.6640 C   0  0  0  0  0  0  0  0  0  0  0  0
   -7.4869    5.3360  -14.0275 N   0  0  0  0  0  0  0  0  0  0  0  0
   -6.3323    4.9053  -14.9587 C   0  0  0  0  0  0  0  0  0  0  0  0
   -5.2664    4.5028  -14.7057 O   0  0  0  0  0  0  0  0  0  0  0  0
   -6.7615    5.0033  -16.4069 C   0  0  0  0  0  0  0  0  0  0  0  0
   -8.6727    4.1113  -16.8882 I   0  0  0  0  0  0  0  0  0  0  0  0
   -5.7443    4.8748  -17.5303 C   0  0  0  0  0  0  0  0  0  0  0  0
   -6.3631    6.1950  -17.2458 C   0  0  0  0  0  0  0  0  0  0  0  0
   -7.0437    4.3278  -11.8290 N   0  0  0  0  0  0  0  0  0  0  0  0
   -6.2098    3.2118  -12.2169 C   0  0  0  0  0  0  0  0  0  0  0  0
  1  2  1  0
  2  3  2  0
  3  4  1  0
  4  5  2  0
  5  6  1  0
  6  7  1  0
  7  8  2  0
  7  9  1  0
  9 10  1  0
  9 11  1  0
 11 12  1  0
  5 13  1  0
 13 14  1  0
 13  2  1  0
 12  9  1  0
M  END
>  <energy_score>  (3456) 
-30.715708

>  <alias>  (3456) 
NYIXSAHKZWQZDE-UHFFFAOYSA-N-P86-P35-P86-601526

>  <HIPPO Pose ID>  (3456) 
78056

>  <smiles>  (3456) 
Cc1ncc(NC(=O)C2(I)CC2)n1C

>  <inchikey>  (3456) 
NYIXSAHKZWQZDE-UHFFFAOYSA-N

>  <distance_score>  (3456) 
1.532707

>  <ref_mols>  (3456) 
Z0719a,Z1597a

>  <ref_pdb>  (3456) 
Z3093a

>  <HIPPO Compound ID>  (3456) 
149813

>  <name>  (3456) 
NYIXSAHKZWQZDE-UHFFFAOYSA-N-P86-P35-P86-601526

>  <inspiration_score>  (3456) 
None

$$$$
VONSJATYTFLMCO-UHFFFAOYSA-N-P86-P35-P86-601526
     RDKit          3D

 14 14  0  0  0  0  0  0  0  0999 V2000
   -4.8495    7.6808  -20.0038 N   0  0  0  0  0  0  0  0  0  0  0  0
   -4.3745    6.8545  -19.3403 C   0  0  0  0  0  0  0  0  0  0  0  0
   -3.7892    5.8261  -18.4732 C   0  0  0  0  0  0  0  0  0  0  0  0
   -4.5503    5.6691  -17.1553 C   0  0  0  0  0  0  0  0  0  0  0  0
   -4.0810    5.9415  -16.1207 O   0  0  0  0  0  0  0  0  0  0  0  0
   -5.9180    5.0186  -17.5000 N   0  0  0  0  0  0  0  0  0  0  0  0
   -6.9619    4.6789  -16.6972 C   0  0  0  0  0  0  0  0  0  0  0  0
   -8.1262    4.5571  -17.4200 N   0  0  0  0  0  0  0  0  0  0  0  0
   -9.0555    4.1889  -16.5772 C   0  0  0  0  0  0  0  0  0  0  0  0
   -8.5397    4.0308  -15.3330 N   0  0  0  0  0  0  0  0  0  0  0  0
   -7.1942    4.3350  -15.3835 C   0  0  0  0  0  0  0  0  0  0  0  0
   -6.4266    4.0556  -14.2052 N   0  0  0  0  0  0  0  0  0  0  0  0
   -7.0797    3.6466  -13.2317 O   0  0  0  0  0  0  0  0  0  0  0  0
   -5.2024    4.1988  -14.2243 O   0  0  0  0  0  0  0  0  0  0  0  0
  1  2  3  0
  2  3  1  0
  3  4  1  0
  4  5  2  0
  4  6  1  0
  6  7  1  0
  7  8  1  0
  8  9  2  0
  9 10  1  0
 10 11  1  0
 11 12  1  0
 12 13  2  0
 12 14  1  0
 11  7  2  0
M  CHG  2  12   1  14  -1
M  END
>  <energy_score>  (3457) 
-23.111178

>  <alias>  (3457) 
VONSJATYTFLMCO-UHFFFAOYSA-N-P86-P35-P86-601526

>  <HIPPO Pose ID>  (3457) 
78060

>  <smiles>  (3457) 
N#CCC(=O)Nc1nc[nH]c1[N+](=O)[O-]

>  <inchikey>  (3457) 
VONSJATYTFLMCO-UHFFFAOYSA-N

>  <distance_score>  (3457) 
1.966075

>  <ref_mols>  (3457) 
Z0719a,Z1597a

>  <ref_pdb>  (3457) 
Z3093a

>  <HIPPO Compound ID>  (3457) 
149815

>  <name>  (3457) 
VONSJATYTFLMCO-UHFFFAOYSA-N-P86-P35-P86-601526

>  <inspiration_score>  (3457) 
None

$$$$
LRTSFGRDHHJGGP-UHFFFAOYSA-N-P86-P35-P86-601526
     RDKit          3D

 14 14  0  0  0  0  0  0  0  0999 V2000
   -9.4243    3.9979  -18.7419 C   0  0  0  0  0  0  0  0  0  0  0  0
   -8.5003    4.3594  -17.6735 C   0  0  0  0  0  0  0  0  0  0  0  0
   -8.9003    4.1492  -16.3866 N   0  0  0  0  0  0  0  0  0  0  0  0
   -7.8876    4.5147  -15.6411 C   0  0  0  0  0  0  0  0  0  0  0  0
   -7.8401    4.4468  -14.1617 C   0  0  0  0  0  0  0  0  0  0  0  0
   -6.8514    4.9831  -16.4216 N   0  0  0  0  0  0  0  0  0  0  0  0
   -5.6557    5.5571  -15.8873 C   0  0  0  0  0  0  0  0  0  0  0  0
   -7.2176    4.8614  -17.7391 C   0  0  0  0  0  0  0  0  0  0  0  0
   -6.5074    5.1354  -18.8803 N   0  0  0  0  0  0  0  0  0  0  0  0
   -5.0040    5.5074  -19.0731 C   0  0  0  0  0  0  0  0  0  0  0  0
   -4.1652    5.7113  -18.2814 O   0  0  0  0  0  0  0  0  0  0  0  0
   -4.7231    5.5307  -20.5660 C   0  0  0  0  0  0  0  0  0  0  0  0
   -4.7627    6.9052  -21.0531 C   0  0  0  0  0  0  0  0  0  0  0  0
   -4.8260    7.9954  -21.4497 N   0  0  0  0  0  0  0  0  0  0  0  0
  1  2  1  0
  2  3  1  0
  3  4  2  0
  4  5  1  0
  4  6  1  0
  6  7  1  0
  6  8  1  0
  8  9  1  0
  9 10  1  0
 10 11  2  0
 10 12  1  0
 12 13  1  0
 13 14  3  0
  8  2  2  0
M  END
>  <energy_score>  (3458) 
-15.719241

>  <alias>  (3458) 
LRTSFGRDHHJGGP-UHFFFAOYSA-N-P86-P35-P86-601526

>  <HIPPO Pose ID>  (3458) 
78062

>  <smiles>  (3458) 
Cc1nc(C)n(C)c1NC(=O)CC#N

>  <inchikey>  (3458) 
LRTSFGRDHHJGGP-UHFFFAOYSA-N

>  <distance_score>  (3458) 
1.122194

>  <ref_mols>  (3458) 
Z0719a,Z1597a

>  <ref_pdb>  (3458) 
Z3093a

>  <HIPPO Compound ID>  (3458) 
149816

>  <name>  (3458) 
LRTSFGRDHHJGGP-UHFFFAOYSA-N-P86-P35-P86-601526

>  <inspiration_score>  (3458) 
None

$$$$
HIOTYMGAJNPJQS-UHFFFAOYSA-N-P86-P35-P86-601526
     RDKit          3D

 14 15  0  0  0  0  0  0  0  0999 V2000
   -4.7549    8.1432  -21.3939 N   0  0  0  0  0  0  0  0  0  0  0  0
   -4.6780    7.0308  -21.0674 C   0  0  0  0  0  0  0  0  0  0  0  0
   -4.6205    5.6265  -20.6793 C   0  0  0  0  0  0  0  0  0  0  0  0
   -5.0947    5.4725  -19.2460 C   0  0  0  0  0  0  0  0  0  0  0  0
   -4.3928    5.6703  -18.3303 O   0  0  0  0  0  0  0  0  0  0  0  0
   -6.5810    5.0074  -19.2967 N   0  0  0  0  0  0  0  0  0  0  0  0
   -7.4196    4.6251  -18.2994 C   0  0  0  0  0  0  0  0  0  0  0  0
   -8.6983    4.1037  -18.3985 C   0  0  0  0  0  0  0  0  0  0  0  0
   -9.2625    3.8861  -17.1597 N   0  0  0  0  0  0  0  0  0  0  0  0
   -8.3442    4.3025  -16.3275 C   0  0  0  0  0  0  0  0  0  0  0  0
   -7.2122    4.6933  -16.9723 N   0  0  0  0  0  0  0  0  0  0  0  0
   -6.2189    5.2624  -16.0955 C   0  0  0  0  0  0  0  0  0  0  0  0
   -6.7941    4.9994  -14.7012 C   0  0  0  0  0  0  0  0  0  0  0  0
   -8.2607    4.5549  -14.8828 C   0  0  0  0  0  0  0  0  0  0  0  0
  1  2  3  0
  2  3  1  0
  3  4  1  0
  4  5  2  0
  4  6  1  0
  6  7  1  0
  7  8  2  0
  8  9  1  0
  9 10  2  0
 10 11  1  0
 11 12  1  0
 12 13  1  0
 13 14  1  0
 11  7  1  0
 14 10  1  0
M  END
>  <energy_score>  (3459) 
-28.922356

>  <alias>  (3459) 
HIOTYMGAJNPJQS-UHFFFAOYSA-N-P86-P35-P86-601526

>  <HIPPO Pose ID>  (3459) 
78064

>  <smiles>  (3459) 
N#CCC(=O)Nc1cnc2n1CCC2

>  <inchikey>  (3459) 
HIOTYMGAJNPJQS-UHFFFAOYSA-N

>  <distance_score>  (3459) 
1.291603

>  <ref_mols>  (3459) 
Z0719a,Z1597a

>  <ref_pdb>  (3459) 
Z3093a

>  <HIPPO Compound ID>  (3459) 
149817

>  <name>  (3459) 
HIOTYMGAJNPJQS-UHFFFAOYSA-N-P86-P35-P86-601526

>  <inspiration_score>  (3459) 
None

$$$$
FNDRSJJLZSCPCX-UHFFFAOYSA-N-P86-P35-P86-601526
     RDKit          3D

 14 14  0  0  0  0  0  0  0  0999 V2000
   -4.8681    8.1513  -20.1098 C   0  0  0  0  0  0  0  0  0  0  0  0
   -4.3994    6.7091  -20.2597 C   0  0  0  0  0  0  0  0  0  0  0  0
   -3.8018    6.1413  -18.9671 C   0  0  1  0  0  0  0  0  0  0  0  0
   -2.6337    6.9052  -18.6539 O   0  0  0  0  0  0  0  0  0  0  0  0
   -4.7559    6.0893  -17.7306 C   0  0  0  0  0  0  0  0  0  0  0  0
   -4.4751    6.6017  -16.7155 O   0  0  0  0  0  0  0  0  0  0  0  0
   -5.9736    5.1964  -18.1065 N   0  0  0  0  0  0  0  0  0  0  0  0
   -7.0812    4.8492  -17.3777 C   0  0  0  0  0  0  0  0  0  0  0  0
   -8.2256    4.2457  -17.8603 C   0  0  0  0  0  0  0  0  0  0  0  0
   -8.5500    3.8376  -19.2211 C   0  0  0  0  0  0  0  0  0  0  0  0
   -9.1212    3.9712  -16.8665 N   0  0  0  0  0  0  0  0  0  0  0  0
   -8.5335    4.3786  -15.7721 C   0  0  0  0  0  0  0  0  0  0  0  0
   -7.3030    4.9247  -16.0289 N   0  0  0  0  0  0  0  0  0  0  0  0
   -6.4174    5.3393  -14.9850 C   0  0  0  0  0  0  0  0  0  0  0  0
  1  2  1  0
  2  3  1  0
  3  4  1  1
  3  5  1  0
  5  6  2  0
  5  7  1  0
  7  8  1  0
  8  9  2  0
  9 10  1  0
  9 11  1  0
 11 12  2  0
 12 13  1  0
 13 14  1  0
 13  8  1  0
M  END
>  <energy_score>  (3460) 
-8.433186

>  <alias>  (3460) 
FNDRSJJLZSCPCX-UHFFFAOYSA-N-P86-P35-P86-601526

>  <HIPPO Pose ID>  (3460) 
78080

>  <smiles>  (3460) 
CCC(O)C(=O)Nc1c(C)ncn1C

>  <inchikey>  (3460) 
FNDRSJJLZSCPCX-UHFFFAOYSA-N

>  <distance_score>  (3460) 
1.311252

>  <ref_mols>  (3460) 
Z0719a,Z1597a

>  <ref_pdb>  (3460) 
Z3093a

>  <HIPPO Compound ID>  (3460) 
149825

>  <name>  (3460) 
FNDRSJJLZSCPCX-UHFFFAOYSA-N-P86-P35-P86-601526

>  <inspiration_score>  (3460) 
None

$$$$
DEMQVQHEMIYVKK-UHFFFAOYSA-N-P86-P35-P86-601526
     RDKit          3D

 14 14  0  0  0  0  0  0  0  0999 V2000
   -4.6948    8.2910  -20.8045 C   0  0  0  0  0  0  0  0  0  0  0  0
   -4.4127    6.8279  -21.1064 C   0  0  0  0  0  0  0  0  0  0  0  0
   -3.7072    6.1151  -19.9557 C   0  0  2  0  0  0  0  0  0  0  0  0
   -3.3714    4.7975  -20.3782 O   0  0  0  0  0  0  0  0  0  0  0  0
   -4.5341    6.0565  -18.6479 C   0  0  0  0  0  0  0  0  0  0  0  0
   -4.1580    6.5538  -17.6557 O   0  0  0  0  0  0  0  0  0  0  0  0
   -5.7920    5.1741  -18.9232 N   0  0  0  0  0  0  0  0  0  0  0  0
   -6.8330    4.8246  -18.0993 C   0  0  0  0  0  0  0  0  0  0  0  0
   -8.0232    4.2170  -18.4538 C   0  0  0  0  0  0  0  0  0  0  0  0
   -8.8197    3.9894  -17.3620 N   0  0  0  0  0  0  0  0  0  0  0  0
   -8.1313    4.4360  -16.3336 C   0  0  0  0  0  0  0  0  0  0  0  0
   -8.5458    4.4205  -14.9131 C   0  0  0  0  0  0  0  0  0  0  0  0
   -6.9140    4.9398  -16.7339 N   0  0  0  0  0  0  0  0  0  0  0  0
   -5.9013    5.3647  -15.8114 C   0  0  0  0  0  0  0  0  0  0  0  0
  1  2  1  0
  2  3  1  0
  3  4  1  6
  3  5  1  0
  5  6  2  0
  5  7  1  0
  7  8  1  0
  8  9  2  0
  9 10  1  0
 10 11  2  0
 11 12  1  0
 11 13  1  0
 13 14  1  0
 13  8  1  0
M  END
>  <energy_score>  (3461) 
-25.097056

>  <alias>  (3461) 
DEMQVQHEMIYVKK-UHFFFAOYSA-N-P86-P35-P86-601526

>  <HIPPO Pose ID>  (3461) 
78082

>  <smiles>  (3461) 
CCC(O)C(=O)Nc1cnc(C)n1C

>  <inchikey>  (3461) 
DEMQVQHEMIYVKK-UHFFFAOYSA-N

>  <distance_score>  (3461) 
1.221113

>  <ref_mols>  (3461) 
Z0719a,Z1597a

>  <ref_pdb>  (3461) 
Z3093a

>  <HIPPO Compound ID>  (3461) 
149826

>  <name>  (3461) 
DEMQVQHEMIYVKK-UHFFFAOYSA-N-P86-P35-P86-601526

>  <inspiration_score>  (3461) 
None

$$$$
VQKYHUMCEQKLIT-UHFFFAOYSA-N-P86-P35-P86-601526
     RDKit          3D

 14 14  0  0  0  0  0  0  0  0999 V2000
   -4.3542    5.8407  -20.9441 C   0  0  0  0  0  0  0  0  0  0  0  0
   -4.9396    6.8408  -19.9723 C   0  0  2  0  0  0  0  0  0  0  0  0
   -4.0506    7.9529  -19.8624 O   0  0  0  0  0  0  0  0  0  0  0  0
   -5.1786    6.2010  -18.5870 C   0  0  0  0  0  0  0  0  0  0  0  0
   -4.4252    6.3463  -17.7042 O   0  0  0  0  0  0  0  0  0  0  0  0
   -6.5543    5.4835  -18.6276 N   0  0  0  0  0  0  0  0  0  0  0  0
   -7.2818    4.9170  -17.6331 C   0  0  0  0  0  0  0  0  0  0  0  0
   -8.5343    4.4821  -17.9511 N   0  0  0  0  0  0  0  0  0  0  0  0
   -9.1085    4.1755  -16.8105 C   0  0  0  0  0  0  0  0  0  0  0  0
   -8.2566    4.3674  -15.7735 N   0  0  0  0  0  0  0  0  0  0  0  0
   -8.5505    4.3051  -14.3639 C   0  0  0  0  0  0  0  0  0  0  0  0
   -7.0501    4.7620  -16.2888 C   0  0  0  0  0  0  0  0  0  0  0  0
   -5.9174    4.9309  -15.4655 C   0  0  0  0  0  0  0  0  0  0  0  0
   -5.0781    4.9768  -14.6668 N   0  0  0  0  0  0  0  0  0  0  0  0
  2  1  1  6
  2  3  1  0
  2  4  1  0
  4  5  2  0
  4  6  1  0
  6  7  1  0
  7  8  1  0
  8  9  2  0
  9 10  1  0
 10 11  1  0
 10 12  1  0
 12 13  1  0
 13 14  3  0
 12  7  2  0
M  END
>  <energy_score>  (3462) 
-28.622712

>  <alias>  (3462) 
VQKYHUMCEQKLIT-UHFFFAOYSA-N-P86-P35-P86-601526

>  <HIPPO Pose ID>  (3462) 
78090

>  <smiles>  (3462) 
CC(O)C(=O)Nc1ncn(C)c1C#N

>  <inchikey>  (3462) 
VQKYHUMCEQKLIT-UHFFFAOYSA-N

>  <distance_score>  (3462) 
1.35134

>  <ref_mols>  (3462) 
Z0719a,Z1597a

>  <ref_pdb>  (3462) 
Z3093a

>  <HIPPO Compound ID>  (3462) 
149830

>  <name>  (3462) 
VQKYHUMCEQKLIT-UHFFFAOYSA-N-P86-P35-P86-601526

>  <inspiration_score>  (3462) 
None

$$$$
CAQOGOZSXXFUDU-UHFFFAOYSA-N-P35-P35-P86-601526
     RDKit          3D

 14 14  0  0  0  0  0  0  0  0999 V2000
   -9.0523    4.1630  -18.9885 C   0  0  0  0  0  0  0  0  0  0  0  0
   -8.3316    4.4684  -17.7513 C   0  0  0  0  0  0  0  0  0  0  0  0
   -8.9700    4.2435  -16.5612 N   0  0  0  0  0  0  0  0  0  0  0  0
   -8.0986    4.5560  -15.6335 C   0  0  0  0  0  0  0  0  0  0  0  0
   -8.3132    4.4736  -14.1720 C   0  0  0  0  0  0  0  0  0  0  0  0
   -6.9049    4.9455  -16.1956 N   0  0  0  0  0  0  0  0  0  0  0  0
   -5.7028    5.1178  -15.4377 C   0  0  0  0  0  0  0  0  0  0  0  0
   -7.0568    4.9664  -17.5584 C   0  0  0  0  0  0  0  0  0  0  0  0
   -6.1426    5.3443  -18.5088 N   0  0  0  0  0  0  0  0  0  0  0  0
   -4.7747    6.0787  -18.3621 C   0  0  0  0  0  0  0  0  0  0  0  0
   -4.1866    6.4028  -17.4026 O   0  0  0  0  0  0  0  0  0  0  0  0
   -4.1738    6.2592  -19.7461 C   0  0  0  0  0  0  0  0  0  0  0  0
   -4.9790    7.1277  -20.6895 C   0  0  0  0  0  0  0  0  0  0  0  0
   -5.1056    8.8061  -20.0966 Cl  0  0  0  0  0  0  0  0  0  0  0  0
  1  2  1  0
  2  3  1  0
  3  4  2  0
  4  5  1  0
  4  6  1  0
  6  7  1  0
  6  8  1  0
  8  9  1  0
  9 10  1  0
 10 11  2  0
 10 12  1  0
 12 13  1  0
 13 14  1  0
  8  2  2  0
M  END
>  <energy_score>  (3463) 
-24.680632

>  <alias>  (3463) 
CAQOGOZSXXFUDU-UHFFFAOYSA-N-P35-P35-P86-601526

>  <HIPPO Pose ID>  (3463) 
78095

>  <smiles>  (3463) 
Cc1nc(C)n(C)c1NC(=O)CCCl

>  <inchikey>  (3463) 
CAQOGOZSXXFUDU-UHFFFAOYSA-N

>  <distance_score>  (3463) 
1.23863

>  <ref_mols>  (3463) 
Z0719a,Z1597a

>  <ref_pdb>  (3463) 
Z3093a

>  <HIPPO Compound ID>  (3463) 
149833

>  <name>  (3463) 
CAQOGOZSXXFUDU-UHFFFAOYSA-N-P35-P35-P86-601526

>  <inspiration_score>  (3463) 
None

$$$$
ORQPKGLWOFMXCS-UHFFFAOYSA-N-P35-P35-P86-601526
     RDKit          3D

 14 15  0  0  0  0  0  0  0  0999 V2000
   -4.2747    6.1750  -17.5399 O   0  0  0  0  0  0  0  0  0  0  0  0
   -4.6703    5.8706  -18.5984 C   0  0  0  0  0  0  0  0  0  0  0  0
   -3.7872    5.9732  -19.8183 C   0  0  0  0  0  0  0  0  0  0  0  0
   -4.2486    7.0732  -20.7480 C   0  0  0  0  0  0  0  0  0  0  0  0
   -3.0888    7.2454  -22.0913 Cl  0  0  0  0  0  0  0  0  0  0  0  0
   -6.0463    5.2835  -19.0309 N   0  0  0  0  0  0  0  0  0  0  0  0
   -7.1157    4.8869  -18.2807 C   0  0  0  0  0  0  0  0  0  0  0  0
   -8.3064    4.2704  -18.6406 C   0  0  0  0  0  0  0  0  0  0  0  0
   -9.0770    3.9356  -17.5370 N   0  0  0  0  0  0  0  0  0  0  0  0
   -8.3728    4.3821  -16.5323 C   0  0  0  0  0  0  0  0  0  0  0  0
   -7.2288    4.9908  -16.9433 N   0  0  0  0  0  0  0  0  0  0  0  0
   -6.4535    5.5294  -15.8491 C   0  0  0  0  0  0  0  0  0  0  0  0
   -7.4572    5.4908  -14.6961 C   0  0  0  0  0  0  0  0  0  0  0  0
   -8.4682    4.3897  -15.0654 C   0  0  0  0  0  0  0  0  0  0  0  0
  1  2  2  0
  2  3  1  0
  3  4  1  0
  4  5  1  0
  2  6  1  0
  6  7  1  0
  7  8  2  0
  8  9  1  0
  9 10  2  0
 10 11  1  0
 11 12  1  0
 12 13  1  0
 13 14  1  0
 11  7  1  0
 14 10  1  0
M  END
>  <energy_score>  (3464) 
-22.460275

>  <alias>  (3464) 
ORQPKGLWOFMXCS-UHFFFAOYSA-N-P35-P35-P86-601526

>  <HIPPO Pose ID>  (3464) 
78097

>  <smiles>  (3464) 
O=C(CCCl)Nc1cnc2n1CCC2

>  <inchikey>  (3464) 
ORQPKGLWOFMXCS-UHFFFAOYSA-N

>  <distance_score>  (3464) 
1.221275

>  <ref_mols>  (3464) 
Z0719a,Z1597a

>  <ref_pdb>  (3464) 
Z3093a

>  <HIPPO Compound ID>  (3464) 
149834

>  <name>  (3464) 
ORQPKGLWOFMXCS-UHFFFAOYSA-N-P35-P35-P86-601526

>  <inspiration_score>  (3464) 
None

$$$$
HRNUFCNNKOCNFZ-UHFFFAOYSA-N-P86-P35-P86-601526
     RDKit          3D

 14 14  0  0  0  0  0  0  0  0999 V2000
   -5.8944    4.7807  -14.7029 N   0  0  0  0  0  0  0  0  0  0  0  0
   -6.6441    4.6651  -15.5847 C   0  0  0  0  0  0  0  0  0  0  0  0
   -7.5974    4.5239  -16.6437 C   0  0  0  0  0  0  0  0  0  0  0  0
   -8.9018    4.2141  -16.3132 N   0  0  0  0  0  0  0  0  0  0  0  0
   -9.5510    4.1582  -17.4470 C   0  0  0  0  0  0  0  0  0  0  0  0
   -8.7228    4.3929  -18.4998 N   0  0  0  0  0  0  0  0  0  0  0  0
   -7.4652    4.6521  -18.0157 C   0  0  0  0  0  0  0  0  0  0  0  0
   -6.4763    4.9298  -18.9153 N   0  0  0  0  0  0  0  0  0  0  0  0
   -4.9890    5.3103  -18.6917 C   0  0  0  0  0  0  0  0  0  0  0  0
   -4.4019    5.5198  -17.7046 O   0  0  0  0  0  0  0  0  0  0  0  0
   -4.3593    5.3863  -20.1061 C   0  0  1  0  0  0  0  0  0  0  0  0
   -5.1892    4.7309  -21.0725 O   0  0  0  0  0  0  0  0  0  0  0  0
   -4.1816    6.8405  -20.4946 C   0  0  0  0  0  0  0  0  0  0  0  0
   -3.0859    6.9823  -22.1089 Br  0  0  0  0  0  0  0  0  0  0  0  0
  1  2  3  0
  2  3  1  0
  3  4  1  0
  4  5  2  0
  5  6  1  0
  6  7  1  0
  7  8  1  0
  8  9  1  0
  9 10  2  0
  9 11  1  0
 11 12  1  6
 11 13  1  0
 13 14  1  0
  7  3  2  0
M  END
>  <energy_score>  (3465) 
-25.477885

>  <alias>  (3465) 
HRNUFCNNKOCNFZ-UHFFFAOYSA-N-P86-P35-P86-601526

>  <HIPPO Pose ID>  (3465) 
78110

>  <smiles>  (3465) 
N#Cc1nc[nH]c1NC(=O)C(O)CBr

>  <inchikey>  (3465) 
HRNUFCNNKOCNFZ-UHFFFAOYSA-N

>  <distance_score>  (3465) 
1.28622

>  <ref_mols>  (3465) 
Z0719a,Z1597a

>  <ref_pdb>  (3465) 
Z3093a

>  <HIPPO Compound ID>  (3465) 
149840

>  <name>  (3465) 
HRNUFCNNKOCNFZ-UHFFFAOYSA-N-P86-P35-P86-601526

>  <inspiration_score>  (3465) 
None

$$$$
SIUITJFMAAFNSR-UHFFFAOYSA-N-P86-P35-P86-601526
     RDKit          3D

 14 14  0  0  0  0  0  0  0  0999 V2000
   -8.4671    4.4351  -14.6025 C   0  0  0  0  0  0  0  0  0  0  0  0
   -8.2881    4.3977  -16.0737 C   0  0  0  0  0  0  0  0  0  0  0  0
   -9.1512    3.9611  -16.9674 N   0  0  0  0  0  0  0  0  0  0  0  0
   -8.5482    4.1581  -18.1789 C   0  0  0  0  0  0  0  0  0  0  0  0
   -7.2980    4.7238  -18.0349 C   0  0  0  0  0  0  0  0  0  0  0  0
   -6.4278    5.0345  -19.0430 N   0  0  0  0  0  0  0  0  0  0  0  0
   -5.0501    5.7562  -19.0017 C   0  0  0  0  0  0  0  0  0  0  0  0
   -4.4859    6.2631  -18.1104 O   0  0  0  0  0  0  0  0  0  0  0  0
   -4.4633    5.6394  -20.4234 C   0  0  1  0  0  0  0  0  0  0  0  0
   -5.2550    4.7837  -21.2450 O   0  0  0  0  0  0  0  0  0  0  0  0
   -4.3783    7.0245  -21.0298 C   0  0  0  0  0  0  0  0  0  0  0  0
   -3.2260    7.0108  -22.6106 Br  0  0  0  0  0  0  0  0  0  0  0  0
   -7.1330    4.8407  -16.6803 N   0  0  0  0  0  0  0  0  0  0  0  0
   -5.9717    5.2623  -15.9542 C   0  0  0  0  0  0  0  0  0  0  0  0
  1  2  1  0
  2  3  2  0
  3  4  1  0
  4  5  2  0
  5  6  1  0
  6  7  1  0
  7  8  2  0
  7  9  1  0
  9 10  1  6
  9 11  1  0
 11 12  1  0
  5 13  1  0
 13 14  1  0
 13  2  1  0
M  END
>  <energy_score>  (3466) 
-30.277015

>  <alias>  (3466) 
SIUITJFMAAFNSR-UHFFFAOYSA-N-P86-P35-P86-601526

>  <HIPPO Pose ID>  (3466) 
78114

>  <smiles>  (3466) 
Cc1ncc(NC(=O)C(O)CBr)n1C

>  <inchikey>  (3466) 
SIUITJFMAAFNSR-UHFFFAOYSA-N

>  <distance_score>  (3466) 
1.162335

>  <ref_mols>  (3466) 
Z0719a,Z1597a

>  <ref_pdb>  (3466) 
Z3093a

>  <HIPPO Compound ID>  (3466) 
149842

>  <name>  (3466) 
SIUITJFMAAFNSR-UHFFFAOYSA-N-P86-P35-P86-601526

>  <inspiration_score>  (3466) 
None

$$$$
QYNLTLTXPPILDH-UHFFFAOYSA-N-P86-P35-P86-601526
     RDKit          3D

 14 14  0  0  0  0  0  0  0  0999 V2000
   -5.5219    3.7199  -13.1764 C   0  0  0  0  0  0  0  0  0  0  0  0
   -6.8668    4.1795  -13.7444 C   0  0  0  0  0  0  0  0  0  0  0  0
   -6.9783    4.4413  -15.1699 N   0  0  0  0  0  0  0  0  0  0  0  0
   -8.1315    4.3450  -15.9104 C   0  0  0  0  0  0  0  0  0  0  0  0
   -7.9281    4.6713  -17.1717 N   0  0  0  0  0  0  0  0  0  0  0  0
   -6.6079    4.9745  -17.2485 C   0  0  0  0  0  0  0  0  0  0  0  0
   -6.0015    5.2350  -18.4310 N   0  0  0  0  0  0  0  0  0  0  0  0
   -4.4934    5.4116  -18.7765 C   0  0  0  0  0  0  0  0  0  0  0  0
   -3.5523    5.4355  -18.0785 O   0  0  0  0  0  0  0  0  0  0  0  0
   -4.3431    5.5025  -20.3120 C   0  0  2  0  0  0  0  0  0  0  0  0
   -2.9928    5.2520  -20.7125 O   0  0  0  0  0  0  0  0  0  0  0  0
   -4.8127    6.8237  -20.8849 C   0  0  0  0  0  0  0  0  0  0  0  0
   -3.8135    8.3488  -20.1855 Br  0  0  0  0  0  0  0  0  0  0  0  0
   -6.0173    4.9204  -16.0152 C   0  0  0  0  0  0  0  0  0  0  0  0
  1  2  1  0
  2  3  1  0
  3  4  1  0
  4  5  2  0
  5  6  1  0
  6  7  1  0
  7  8  1  0
  8  9  2  0
  8 10  1  0
 10 11  1  1
 10 12  1  0
 12 13  1  0
  6 14  2  0
 14  3  1  0
M  END
>  <energy_score>  (3467) 
-30.159342

>  <alias>  (3467) 
QYNLTLTXPPILDH-UHFFFAOYSA-N-P86-P35-P86-601526

>  <HIPPO Pose ID>  (3467) 
78116

>  <smiles>  (3467) 
CCn1cnc(NC(=O)C(O)CBr)c1

>  <inchikey>  (3467) 
QYNLTLTXPPILDH-UHFFFAOYSA-N

>  <distance_score>  (3467) 
1.550905

>  <ref_mols>  (3467) 
Z0719a,Z1597a

>  <ref_pdb>  (3467) 
Z3093a

>  <HIPPO Compound ID>  (3467) 
149843

>  <name>  (3467) 
QYNLTLTXPPILDH-UHFFFAOYSA-N-P86-P35-P86-601526

>  <inspiration_score>  (3467) 
None

$$$$
XUWQNGXGAOORBV-UHFFFAOYSA-N-P35-P35-P86-601526
     RDKit          3D

 14 14  0  0  0  0  0  0  0  0999 V2000
   -4.1381    8.1586  -19.5671 C   0  0  0  0  0  0  0  0  0  0  0  0
   -4.4572    6.8138  -20.2099 C   0  0  0  0  0  0  0  0  0  0  0  0
   -4.0360    5.6010  -19.3730 C   0  0  1  0  0  0  0  0  0  0  0  0
   -2.2520    5.4959  -19.2557 Cl  0  0  0  0  0  0  0  0  0  0  0  0
   -4.6820    5.5418  -17.9711 C   0  0  0  0  0  0  0  0  0  0  0  0
   -4.0948    5.6895  -16.9686 O   0  0  0  0  0  0  0  0  0  0  0  0
   -6.1854    5.1914  -18.2221 N   0  0  0  0  0  0  0  0  0  0  0  0
   -7.1842    4.8779  -17.3394 C   0  0  0  0  0  0  0  0  0  0  0  0
   -8.4475    4.4320  -17.6724 C   0  0  0  0  0  0  0  0  0  0  0  0
   -9.0243    4.1979  -18.9909 C   0  0  0  0  0  0  0  0  0  0  0  0
   -9.1866    4.1144  -16.5691 N   0  0  0  0  0  0  0  0  0  0  0  0
   -8.4020    4.3813  -15.5590 C   0  0  0  0  0  0  0  0  0  0  0  0
   -7.1887    4.8635  -15.9725 N   0  0  0  0  0  0  0  0  0  0  0  0
   -6.1602    5.2362  -15.0536 C   0  0  0  0  0  0  0  0  0  0  0  0
  1  2  1  0
  2  3  1  0
  3  4  1  1
  3  5  1  0
  5  6  2  0
  5  7  1  0
  7  8  1  0
  8  9  2  0
  9 10  1  0
  9 11  1  0
 11 12  2  0
 12 13  1  0
 13 14  1  0
 13  8  1  0
M  END
>  <energy_score>  (3468) 
-17.667405

>  <alias>  (3468) 
XUWQNGXGAOORBV-UHFFFAOYSA-N-P35-P35-P86-601526

>  <HIPPO Pose ID>  (3468) 
78119

>  <smiles>  (3468) 
CCC(Cl)C(=O)Nc1c(C)ncn1C

>  <inchikey>  (3468) 
XUWQNGXGAOORBV-UHFFFAOYSA-N

>  <distance_score>  (3468) 
1.333016

>  <ref_mols>  (3468) 
Z0719a,Z1597a

>  <ref_pdb>  (3468) 
Z3093a

>  <HIPPO Compound ID>  (3468) 
149845

>  <name>  (3468) 
XUWQNGXGAOORBV-UHFFFAOYSA-N-P35-P35-P86-601526

>  <inspiration_score>  (3468) 
None

$$$$
OPXSTPSSHZPMEW-UHFFFAOYSA-N-P86-P35-P86-601526
     RDKit          3D

 14 14  0  0  0  0  0  0  0  0999 V2000
   -2.4742    4.8117  -20.2512 C   0  0  0  0  0  0  0  0  0  0  0  0
   -3.0954    6.1302  -20.6949 C   0  0  0  0  0  0  0  0  0  0  0  0
   -4.6182    6.1449  -20.5929 C   0  0  2  0  0  0  0  0  0  0  0  0
   -5.1739    7.7211  -21.2338 Cl  0  0  0  0  0  0  0  0  0  0  0  0
   -5.1129    6.0361  -19.1338 C   0  0  0  0  0  0  0  0  0  0  0  0
   -4.4666    6.3845  -18.2197 O   0  0  0  0  0  0  0  0  0  0  0  0
   -6.5109    5.3363  -19.1778 N   0  0  0  0  0  0  0  0  0  0  0  0
   -7.3032    4.8665  -18.1626 C   0  0  0  0  0  0  0  0  0  0  0  0
   -8.5308    4.2490  -18.3048 C   0  0  0  0  0  0  0  0  0  0  0  0
   -9.0872    3.9470  -17.0924 N   0  0  0  0  0  0  0  0  0  0  0  0
   -8.2281    4.3881  -16.1975 C   0  0  0  0  0  0  0  0  0  0  0  0
   -8.4074    4.4054  -14.7248 C   0  0  0  0  0  0  0  0  0  0  0  0
   -7.0930    4.8798  -16.8074 N   0  0  0  0  0  0  0  0  0  0  0  0
   -5.9313    5.3061  -16.0846 C   0  0  0  0  0  0  0  0  0  0  0  0
  1  2  1  0
  2  3  1  0
  3  4  1  1
  3  5  1  0
  5  6  2  0
  5  7  1  0
  7  8  1  0
  8  9  2  0
  9 10  1  0
 10 11  2  0
 11 12  1  0
 11 13  1  0
 13 14  1  0
 13  8  1  0
M  END
>  <energy_score>  (3469) 
-24.198115

>  <alias>  (3469) 
OPXSTPSSHZPMEW-UHFFFAOYSA-N-P86-P35-P86-601526

>  <HIPPO Pose ID>  (3469) 
78122

>  <smiles>  (3469) 
CCC(Cl)C(=O)Nc1cnc(C)n1C

>  <inchikey>  (3469) 
OPXSTPSSHZPMEW-UHFFFAOYSA-N

>  <distance_score>  (3469) 
1.143473

>  <ref_mols>  (3469) 
Z0719a,Z1597a

>  <ref_pdb>  (3469) 
Z3093a

>  <HIPPO Compound ID>  (3469) 
149846

>  <name>  (3469) 
OPXSTPSSHZPMEW-UHFFFAOYSA-N-P86-P35-P86-601526

>  <inspiration_score>  (3469) 
None

$$$$
ABGJRPXZHRBBBN-UHFFFAOYSA-N-P35-P35-P86-601526
     RDKit          3D

 14 14  0  0  0  0  0  0  0  0999 V2000
   -2.9201    8.0228  -20.2540 C   0  0  0  0  0  0  0  0  0  0  0  0
   -3.9876    7.1015  -20.8374 C   0  0  0  0  0  0  0  0  0  0  0  0
   -5.2617    6.9224  -20.0016 C   0  0  2  0  0  0  0  0  0  0  0  0
   -5.9006    8.5020  -19.4342 Cl  0  0  0  0  0  0  0  0  0  0  0  0
   -5.0520    6.0182  -18.7744 C   0  0  0  0  0  0  0  0  0  0  0  0
   -3.9936    5.6865  -18.3958 O   0  0  0  0  0  0  0  0  0  0  0  0
   -6.4691    5.7369  -18.1867 N   0  0  0  0  0  0  0  0  0  0  0  0
   -6.8376    5.1162  -17.0446 C   0  0  0  0  0  0  0  0  0  0  0  0
   -6.0370    4.4545  -16.1534 C   0  0  0  0  0  0  0  0  0  0  0  0
   -6.8751    4.0297  -15.1617 N   0  0  0  0  0  0  0  0  0  0  0  0
   -6.5634    3.2673  -13.9637 C   0  0  0  0  0  0  0  0  0  0  0  0
   -5.1004    3.2256  -13.5347 C   0  0  0  0  0  0  0  0  0  0  0  0
   -8.1372    4.4381  -15.5137 C   0  0  0  0  0  0  0  0  0  0  0  0
   -8.1306    5.1291  -16.6322 N   0  0  0  0  0  0  0  0  0  0  0  0
  1  2  1  0
  2  3  1  0
  3  4  1  1
  3  5  1  0
  5  6  2  0
  5  7  1  0
  7  8  1  0
  8  9  2  0
  9 10  1  0
 10 11  1  0
 11 12  1  0
 10 13  1  0
 13 14  2  0
 14  8  1  0
M  END
>  <energy_score>  (3470) 
-35.189808

>  <alias>  (3470) 
ABGJRPXZHRBBBN-UHFFFAOYSA-N-P35-P35-P86-601526

>  <HIPPO Pose ID>  (3470) 
78123

>  <smiles>  (3470) 
CCC(Cl)C(=O)Nc1cn(CC)cn1

>  <inchikey>  (3470) 
ABGJRPXZHRBBBN-UHFFFAOYSA-N

>  <distance_score>  (3470) 
1.83349

>  <ref_mols>  (3470) 
Z0719a,Z1597a

>  <ref_pdb>  (3470) 
Z3093a

>  <HIPPO Compound ID>  (3470) 
149847

>  <name>  (3470) 
ABGJRPXZHRBBBN-UHFFFAOYSA-N-P35-P35-P86-601526

>  <inspiration_score>  (3470) 
None

$$$$
FYOVAYOJBBMPKG-UHFFFAOYSA-N-P86-P35-P86-601526
     RDKit          3D

 14 14  0  0  0  0  0  0  0  0999 V2000
   -5.9993    3.4364  -12.4715 C   0  0  0  0  0  0  0  0  0  0  0  0
   -6.0308    4.2503  -13.7495 C   0  0  0  0  0  0  0  0  0  0  0  0
   -7.4373    4.3002  -14.3830 C   0  0  0  0  0  0  0  0  0  0  0  0
   -7.5165    4.5174  -15.8141 N   0  0  0  0  0  0  0  0  0  0  0  0
   -8.6126    4.2692  -16.5924 C   0  0  0  0  0  0  0  0  0  0  0  0
   -8.3654    4.5239  -17.8601 N   0  0  0  0  0  0  0  0  0  0  0  0
   -7.0692    4.9239  -17.8954 C   0  0  0  0  0  0  0  0  0  0  0  0
   -6.4207    5.1812  -19.0520 N   0  0  0  0  0  0  0  0  0  0  0  0
   -4.9123    5.4257  -19.3294 C   0  0  0  0  0  0  0  0  0  0  0  0
   -4.0110    5.5183  -18.5897 O   0  0  0  0  0  0  0  0  0  0  0  0
   -4.7142    5.5285  -20.8253 C   0  0  0  0  0  0  0  0  0  0  0  0
   -4.6319    6.9875  -21.2017 C   0  0  0  0  0  0  0  0  0  0  0  0
   -4.5237    7.1855  -22.9678 Cl  0  0  0  0  0  0  0  0  0  0  0  0
   -6.5377    4.9846  -16.6383 C   0  0  0  0  0  0  0  0  0  0  0  0
  1  2  1  0
  2  3  1  0
  3  4  1  0
  4  5  1  0
  5  6  2  0
  6  7  1  0
  7  8  1  0
  8  9  1  0
  9 10  2  0
  9 11  1  0
 11 12  1  0
 12 13  1  0
  7 14  2  0
 14  4  1  0
M  END
>  <energy_score>  (3471) 
-22.535384

>  <alias>  (3471) 
FYOVAYOJBBMPKG-UHFFFAOYSA-N-P86-P35-P86-601526

>  <HIPPO Pose ID>  (3471) 
78128

>  <smiles>  (3471) 
CCCn1cnc(NC(=O)CCCl)c1

>  <inchikey>  (3471) 
FYOVAYOJBBMPKG-UHFFFAOYSA-N

>  <distance_score>  (3471) 
1.698058

>  <ref_mols>  (3471) 
Z0719a,Z1597a

>  <ref_pdb>  (3471) 
Z3093a

>  <HIPPO Compound ID>  (3471) 
149849

>  <name>  (3471) 
FYOVAYOJBBMPKG-UHFFFAOYSA-N-P86-P35-P86-601526

>  <inspiration_score>  (3471) 
None

$$$$
VGMMYVJKGLMTPG-UHFFFAOYSA-N-P35-P35-P86-601526
     RDKit          3D

 14 14  0  0  0  0  0  0  0  0999 V2000
   -4.2563    6.4802  -19.5950 C   0  0  0  0  0  0  0  0  0  0  0  0
   -3.9469    5.0966  -19.0361 C   0  0  1  0  0  0  0  0  0  0  0  0
   -2.0116    4.8206  -19.1997 Br  0  0  0  0  0  0  0  0  0  0  0  0
   -4.3903    4.8215  -17.5722 C   0  0  0  0  0  0  0  0  0  0  0  0
   -3.6705    4.5579  -16.6912 O   0  0  0  0  0  0  0  0  0  0  0  0
   -5.9431    4.9017  -17.6150 N   0  0  0  0  0  0  0  0  0  0  0  0
   -6.8691    4.5999  -16.6670 C   0  0  0  0  0  0  0  0  0  0  0  0
   -8.1214    4.9179  -17.1433 N   0  0  0  0  0  0  0  0  0  0  0  0
   -8.9821    4.4247  -16.2962 C   0  0  0  0  0  0  0  0  0  0  0  0
   -8.3470    3.8809  -15.2304 N   0  0  0  0  0  0  0  0  0  0  0  0
   -6.9870    3.9986  -15.4324 C   0  0  0  0  0  0  0  0  0  0  0  0
   -6.1495    3.3825  -14.4528 N   0  0  0  0  0  0  0  0  0  0  0  0
   -6.6950    2.5226  -13.7389 O   0  0  0  0  0  0  0  0  0  0  0  0
   -4.9779    3.7434  -14.3446 O   0  0  0  0  0  0  0  0  0  0  0  0
  2  1  1  1
  2  3  1  0
  2  4  1  0
  4  5  2  0
  4  6  1  0
  6  7  1  0
  7  8  1  0
  8  9  2  0
  9 10  1  0
 10 11  1  0
 11 12  1  0
 12 13  2  0
 12 14  1  0
 11  7  2  0
M  CHG  2  12   1  14  -1
M  END
>  <energy_score>  (3472) 
-0.45999

>  <alias>  (3472) 
VGMMYVJKGLMTPG-UHFFFAOYSA-N-P35-P35-P86-601526

>  <HIPPO Pose ID>  (3472) 
78133

>  <smiles>  (3472) 
CC(Br)C(=O)Nc1nc[nH]c1[N+](=O)[O-]

>  <inchikey>  (3472) 
VGMMYVJKGLMTPG-UHFFFAOYSA-N

>  <distance_score>  (3472) 
1.830915

>  <ref_mols>  (3472) 
Z0719a,Z1597a

>  <ref_pdb>  (3472) 
Z3093a

>  <HIPPO Compound ID>  (3472) 
149852

>  <name>  (3472) 
VGMMYVJKGLMTPG-UHFFFAOYSA-N-P35-P35-P86-601526

>  <inspiration_score>  (3472) 
None

$$$$
QWNVTZSXAMZHJH-UHFFFAOYSA-N-P86-P35-P86-601526
     RDKit          3D

 14 14  0  0  0  0  0  0  0  0999 V2000
   -8.5788    3.7498  -19.1942 C   0  0  0  0  0  0  0  0  0  0  0  0
   -8.0601    4.2701  -17.9262 C   0  0  0  0  0  0  0  0  0  0  0  0
   -8.7696    4.0331  -16.7774 N   0  0  0  0  0  0  0  0  0  0  0  0
   -8.0481    4.5474  -15.8095 C   0  0  0  0  0  0  0  0  0  0  0  0
   -8.3583    4.5014  -14.3631 C   0  0  0  0  0  0  0  0  0  0  0  0
   -6.8965    5.1153  -16.3073 N   0  0  0  0  0  0  0  0  0  0  0  0
   -5.8085    5.5363  -15.4755 C   0  0  0  0  0  0  0  0  0  0  0  0
   -6.9203    5.0098  -17.6747 C   0  0  0  0  0  0  0  0  0  0  0  0
   -5.9974    5.4744  -18.5776 N   0  0  0  0  0  0  0  0  0  0  0  0
   -4.8063    6.4659  -18.3901 C   0  0  0  0  0  0  0  0  0  0  0  0
   -4.4811    7.0945  -17.4548 O   0  0  0  0  0  0  0  0  0  0  0  0
   -3.9553    6.4894  -19.6709 C   0  0  2  0  0  0  0  0  0  0  0  0
   -4.6676    6.5577  -21.0037 C   0  0  0  0  0  0  0  0  0  0  0  0
   -2.7847    4.9331  -19.6000 Br  0  0  0  0  0  0  0  0  0  0  0  0
  1  2  1  0
  2  3  1  0
  3  4  2  0
  4  5  1  0
  4  6  1  0
  6  7  1  0
  6  8  1  0
  8  9  1  0
  9 10  1  0
 10 11  2  0
 10 12  1  0
 12 13  1  6
 12 14  1  0
  8  2  2  0
M  END
>  <energy_score>  (3473) 
-18.820396

>  <alias>  (3473) 
QWNVTZSXAMZHJH-UHFFFAOYSA-N-P86-P35-P86-601526

>  <HIPPO Pose ID>  (3473) 
78136

>  <smiles>  (3473) 
Cc1nc(C)n(C)c1NC(=O)C(C)Br

>  <inchikey>  (3473) 
QWNVTZSXAMZHJH-UHFFFAOYSA-N

>  <distance_score>  (3473) 
1.303919

>  <ref_mols>  (3473) 
Z0719a,Z1597a

>  <ref_pdb>  (3473) 
Z3093a

>  <HIPPO Compound ID>  (3473) 
149853

>  <name>  (3473) 
QWNVTZSXAMZHJH-UHFFFAOYSA-N-P86-P35-P86-601526

>  <inspiration_score>  (3473) 
None

$$$$
ZKMSKSDVXQTJHJ-UHFFFAOYSA-N-P35-P35-P86-601526
     RDKit          3D

 14 14  0  0  0  0  0  0  0  0999 V2000
   -4.0689    7.1857  -20.8888 C   0  0  0  0  0  0  0  0  0  0  0  0
   -4.2835    6.3212  -19.6619 C   0  0  1  0  0  0  0  0  0  0  0  0
   -2.8646    6.6985  -18.3672 Br  0  0  0  0  0  0  0  0  0  0  0  0
   -5.6199    6.5850  -18.9688 C   0  0  0  0  0  0  0  0  0  0  0  0
   -6.3679    7.4232  -19.3027 O   0  0  0  0  0  0  0  0  0  0  0  0
   -5.7627    5.4774  -17.8753 N   0  0  0  0  0  0  0  0  0  0  0  0
   -6.8190    5.1436  -17.0943 C   0  0  0  0  0  0  0  0  0  0  0  0
   -8.0954    5.3777  -17.4877 N   0  0  0  0  0  0  0  0  0  0  0  0
   -8.8629    4.8984  -16.5337 C   0  0  0  0  0  0  0  0  0  0  0  0
   -8.1135    4.5070  -15.4751 N   0  0  0  0  0  0  0  0  0  0  0  0
   -8.5453    4.3288  -14.1127 C   0  0  0  0  0  0  0  0  0  0  0  0
   -6.8057    4.5366  -15.8666 C   0  0  0  0  0  0  0  0  0  0  0  0
   -5.7342    4.1332  -15.0531 C   0  0  0  0  0  0  0  0  0  0  0  0
   -4.8738    3.7855  -14.3606 N   0  0  0  0  0  0  0  0  0  0  0  0
  2  1  1  6
  2  3  1  0
  2  4  1  0
  4  5  2  0
  4  6  1  0
  6  7  1  0
  7  8  1  0
  8  9  2  0
  9 10  1  0
 10 11  1  0
 10 12  1  0
 12 13  1  0
 13 14  3  0
 12  7  2  0
M  END
>  <energy_score>  (3474) 
-5.825881

>  <alias>  (3474) 
ZKMSKSDVXQTJHJ-UHFFFAOYSA-N-P35-P35-P86-601526

>  <HIPPO Pose ID>  (3474) 
78149

>  <smiles>  (3474) 
CC(Br)C(=O)Nc1ncn(C)c1C#N

>  <inchikey>  (3474) 
ZKMSKSDVXQTJHJ-UHFFFAOYSA-N

>  <distance_score>  (3474) 
1.681925

>  <ref_mols>  (3474) 
Z0719a,Z1597a

>  <ref_pdb>  (3474) 
Z3093a

>  <HIPPO Compound ID>  (3474) 
149860

>  <name>  (3474) 
ZKMSKSDVXQTJHJ-UHFFFAOYSA-N-P35-P35-P86-601526

>  <inspiration_score>  (3474) 
None

$$$$
QXKYBZSJZOYNNY-UHFFFAOYSA-N-P86-P35-P86-601526
     RDKit          3D

 14 15  0  0  0  0  0  0  0  0999 V2000
   -4.5850    6.6608  -21.3443 C   0  0  0  0  0  0  0  0  0  0  0  0
   -3.8440    6.2803  -20.0776 C   0  0  2  0  0  0  0  0  0  0  0  0
   -2.8576    4.8193  -20.3125 Cl  0  0  0  0  0  0  0  0  0  0  0  0
   -4.7006    6.0953  -18.8133 C   0  0  0  0  0  0  0  0  0  0  0  0
   -4.3483    6.5558  -17.7935 O   0  0  0  0  0  0  0  0  0  0  0  0
   -5.9322    5.1936  -19.1446 N   0  0  0  0  0  0  0  0  0  0  0  0
   -6.9665    4.7814  -18.3548 C   0  0  0  0  0  0  0  0  0  0  0  0
   -8.1413    4.1131  -18.6732 C   0  0  0  0  0  0  0  0  0  0  0  0
   -8.9340    3.8922  -17.5584 N   0  0  0  0  0  0  0  0  0  0  0  0
   -8.2370    4.4108  -16.5831 C   0  0  0  0  0  0  0  0  0  0  0  0
   -7.0598    4.9303  -17.0192 N   0  0  0  0  0  0  0  0  0  0  0  0
   -6.2269    5.4350  -15.9541 C   0  0  0  0  0  0  0  0  0  0  0  0
   -6.9633    4.9707  -14.6963 C   0  0  0  0  0  0  0  0  0  0  0  0
   -8.3912    4.5886  -15.1335 C   0  0  0  0  0  0  0  0  0  0  0  0
  2  1  1  6
  2  3  1  0
  2  4  1  0
  4  5  2  0
  4  6  1  0
  6  7  1  0
  7  8  2  0
  8  9  1  0
  9 10  2  0
 10 11  1  0
 11 12  1  0
 12 13  1  0
 13 14  1  0
 11  7  1  0
 14 10  1  0
M  END
>  <energy_score>  (3475) 
-23.423475

>  <alias>  (3475) 
QXKYBZSJZOYNNY-UHFFFAOYSA-N-P86-P35-P86-601526

>  <HIPPO Pose ID>  (3475) 
78154

>  <smiles>  (3475) 
CC(Cl)C(=O)Nc1cnc2n1CCC2

>  <inchikey>  (3475) 
QXKYBZSJZOYNNY-UHFFFAOYSA-N

>  <distance_score>  (3475) 
1.373479

>  <ref_mols>  (3475) 
Z0719a,Z1597a

>  <ref_pdb>  (3475) 
Z3093a

>  <HIPPO Compound ID>  (3475) 
149862

>  <name>  (3475) 
QXKYBZSJZOYNNY-UHFFFAOYSA-N-P86-P35-P86-601526

>  <inspiration_score>  (3475) 
None

$$$$
LSQXPBGJHJOHHD-UHFFFAOYSA-N-P35-P35-P86-601526
     RDKit          3D

 14 14  0  0  0  0  0  0  0  0999 V2000
   -4.0728    7.1724  -20.8525 C   0  0  0  0  0  0  0  0  0  0  0  0
   -5.3190    6.9368  -20.0130 C   0  0  2  0  0  0  0  0  0  0  0  0
   -5.8959    8.5226  -19.3963 Cl  0  0  0  0  0  0  0  0  0  0  0  0
   -5.0320    6.0346  -18.8059 C   0  0  0  0  0  0  0  0  0  0  0  0
   -3.9486    5.7068  -18.4995 O   0  0  0  0  0  0  0  0  0  0  0  0
   -6.4062    5.7476  -18.1235 N   0  0  0  0  0  0  0  0  0  0  0  0
   -6.6944    5.1250  -16.9586 C   0  0  0  0  0  0  0  0  0  0  0  0
   -5.8231    4.4603  -16.1431 C   0  0  0  0  0  0  0  0  0  0  0  0
   -6.5696    4.0369  -15.0723 N   0  0  0  0  0  0  0  0  0  0  0  0
   -6.0441    3.2821  -13.9360 C   0  0  0  0  0  0  0  0  0  0  0  0
   -7.0932    2.5028  -13.1554 C   0  0  0  0  0  0  0  0  0  0  0  0
   -5.2127    4.1415  -12.9904 C   0  0  0  0  0  0  0  0  0  0  0  0
   -7.8563    4.4406  -15.3164 C   0  0  0  0  0  0  0  0  0  0  0  0
   -7.9470    5.1355  -16.4332 N   0  0  0  0  0  0  0  0  0  0  0  0
  2  1  1  1
  2  3  1  0
  2  4  1  0
  4  5  2  0
  4  6  1  0
  6  7  1  0
  7  8  2  0
  8  9  1  0
  9 10  1  0
 10 11  1  0
 10 12  1  0
  9 13  1  0
 13 14  2  0
 14  7  1  0
M  END
>  <energy_score>  (3476) 
-24.691151

>  <alias>  (3476) 
LSQXPBGJHJOHHD-UHFFFAOYSA-N-P35-P35-P86-601526

>  <HIPPO Pose ID>  (3476) 
78159

>  <smiles>  (3476) 
CC(Cl)C(=O)Nc1cn(C(C)C)cn1

>  <inchikey>  (3476) 
LSQXPBGJHJOHHD-UHFFFAOYSA-N

>  <distance_score>  (3476) 
1.882595

>  <ref_mols>  (3476) 
Z0719a,Z1597a

>  <ref_pdb>  (3476) 
Z3093a

>  <HIPPO Compound ID>  (3476) 
149865

>  <name>  (3476) 
LSQXPBGJHJOHHD-UHFFFAOYSA-N-P35-P35-P86-601526

>  <inspiration_score>  (3476) 
None

$$$$
LYISKEAQOOOHJG-UHFFFAOYSA-N-P35-P35-P86-601526
     RDKit          3D

 14 14  0  0  0  0  0  0  0  0999 V2000
   -5.7561    2.6017  -12.8343 C   0  0  0  0  0  0  0  0  0  0  0  0
   -5.7232    3.5747  -13.9925 C   0  0  0  0  0  0  0  0  0  0  0  0
   -7.1358    3.8108  -14.5634 C   0  0  0  0  0  0  0  0  0  0  0  0
   -7.2134    4.3875  -15.8879 N   0  0  0  0  0  0  0  0  0  0  0  0
   -8.3381    4.4790  -16.6580 C   0  0  0  0  0  0  0  0  0  0  0  0
   -8.1013    5.1599  -17.7602 N   0  0  0  0  0  0  0  0  0  0  0  0
   -6.7939    5.5157  -17.6905 C   0  0  0  0  0  0  0  0  0  0  0  0
   -6.2030    6.3233  -18.5982 N   0  0  0  0  0  0  0  0  0  0  0  0
   -4.7608    6.9139  -18.6402 C   0  0  0  0  0  0  0  0  0  0  0  0
   -3.8427    6.7274  -17.9348 O   0  0  0  0  0  0  0  0  0  0  0  0
   -4.6518    7.9199  -19.7886 C   0  0  1  0  0  0  0  0  0  0  0  0
   -4.7360    7.2885  -21.1598 C   0  0  0  0  0  0  0  0  0  0  0  0
   -5.8638    9.2139  -19.5751 Cl  0  0  0  0  0  0  0  0  0  0  0  0
   -6.2138    5.0268  -16.5558 C   0  0  0  0  0  0  0  0  0  0  0  0
  1  2  1  0
  2  3  1  0
  3  4  1  0
  4  5  1  0
  5  6  2  0
  6  7  1  0
  7  8  1  0
  8  9  1  0
  9 10  2  0
  9 11  1  0
 11 12  1  6
 11 13  1  0
  7 14  2  0
 14  4  1  0
M  END
>  <energy_score>  (3477) 
-4.561593

>  <alias>  (3477) 
LYISKEAQOOOHJG-UHFFFAOYSA-N-P35-P35-P86-601526

>  <HIPPO Pose ID>  (3477) 
78163

>  <smiles>  (3477) 
CCCn1cnc(NC(=O)C(C)Cl)c1

>  <inchikey>  (3477) 
LYISKEAQOOOHJG-UHFFFAOYSA-N

>  <distance_score>  (3477) 
1.860693

>  <ref_mols>  (3477) 
Z0719a,Z1597a

>  <ref_pdb>  (3477) 
Z3093a

>  <HIPPO Compound ID>  (3477) 
149867

>  <name>  (3477) 
LYISKEAQOOOHJG-UHFFFAOYSA-N-P35-P35-P86-601526

>  <inspiration_score>  (3477) 
None

$$$$
YTJWNIDWPGDISL-UHFFFAOYSA-N-P86-P35-P86-601526
     RDKit          3D

 14 14  0  0  0  0  0  0  0  0999 V2000
   -4.8948    8.5327  -18.9540 C   0  0  0  0  0  0  0  0  0  0  0  0
   -4.2818    7.6306  -19.7352 C   0  0  0  0  0  0  0  0  0  0  0  0
   -4.1982    6.1470  -19.5175 C   0  0  2  0  0  0  0  0  0  0  0  0
   -4.8268    5.3860  -20.9972 Cl  0  0  0  0  0  0  0  0  0  0  0  0
   -4.9169    5.5881  -18.2536 C   0  0  0  0  0  0  0  0  0  0  0  0
   -4.3669    5.5096  -17.2235 O   0  0  0  0  0  0  0  0  0  0  0  0
   -6.3744    5.2084  -18.6506 N   0  0  0  0  0  0  0  0  0  0  0  0
   -7.4152    4.7711  -17.8851 C   0  0  0  0  0  0  0  0  0  0  0  0
   -8.6144    4.4979  -18.4939 N   0  0  0  0  0  0  0  0  0  0  0  0
   -9.5004    4.1097  -17.5358 C   0  0  0  0  0  0  0  0  0  0  0  0
   -8.9361    4.0642  -16.3565 N   0  0  0  0  0  0  0  0  0  0  0  0
   -7.6371    4.4882  -16.5489 C   0  0  0  0  0  0  0  0  0  0  0  0
   -6.7710    4.5983  -15.4134 C   0  0  0  0  0  0  0  0  0  0  0  0
   -6.0882    4.6917  -14.4767 N   0  0  0  0  0  0  0  0  0  0  0  0
  1  2  2  0
  2  3  1  0
  3  4  1  6
  3  5  1  0
  5  6  2  0
  5  7  1  0
  7  8  1  0
  8  9  1  0
  9 10  1  0
 10 11  2  0
 11 12  1  0
 12 13  1  0
 13 14  3  0
 12  8  2  0
M  END
>  <energy_score>  (3478) 
-28.32927

>  <alias>  (3478) 
YTJWNIDWPGDISL-UHFFFAOYSA-N-P86-P35-P86-601526

>  <HIPPO Pose ID>  (3478) 
78180

>  <smiles>  (3478) 
C=CC(Cl)C(=O)Nc1[nH]cnc1C#N

>  <inchikey>  (3478) 
YTJWNIDWPGDISL-UHFFFAOYSA-N

>  <distance_score>  (3478) 
1.584301

>  <ref_mols>  (3478) 
Z0719a,Z1597a

>  <ref_pdb>  (3478) 
Z3093a

>  <HIPPO Compound ID>  (3478) 
149875

>  <name>  (3478) 
YTJWNIDWPGDISL-UHFFFAOYSA-N-P86-P35-P86-601526

>  <inspiration_score>  (3478) 
None

$$$$
HJNVKQGWXMWRBX-UHFFFAOYSA-N-P86-P35-P86-601526
     RDKit          3D

 14 14  0  0  0  0  0  0  0  0999 V2000
   -5.9901    3.4445  -12.4823 C   0  0  0  0  0  0  0  0  0  0  0  0
   -6.0265    4.2576  -13.7607 C   0  0  0  0  0  0  0  0  0  0  0  0
   -7.4344    4.3040  -14.3912 C   0  0  0  0  0  0  0  0  0  0  0  0
   -7.5176    4.5112  -15.8237 N   0  0  0  0  0  0  0  0  0  0  0  0
   -8.6156    4.2561  -16.5970 C   0  0  0  0  0  0  0  0  0  0  0  0
   -8.3720    4.4999  -17.8674 N   0  0  0  0  0  0  0  0  0  0  0  0
   -7.0766    4.9029  -17.9096 C   0  0  0  0  0  0  0  0  0  0  0  0
   -6.4343    5.1595  -19.0696 N   0  0  0  0  0  0  0  0  0  0  0  0
   -4.9518    5.5348  -19.3396 C   0  0  0  0  0  0  0  0  0  0  0  0
   -4.0777    5.7547  -18.5941 O   0  0  0  0  0  0  0  0  0  0  0  0
   -4.7399    5.5851  -20.8378 C   0  0  0  0  0  0  0  0  0  0  0  0
   -4.6350    7.0296  -21.2544 C   0  0  0  0  0  0  0  0  0  0  0  0
   -4.6257    7.1866  -23.1942 Br  0  0  0  0  0  0  0  0  0  0  0  0
   -6.5422    4.9744  -16.6540 C   0  0  0  0  0  0  0  0  0  0  0  0
  1  2  1  0
  2  3  1  0
  3  4  1  0
  4  5  1  0
  5  6  2  0
  6  7  1  0
  7  8  1  0
  8  9  1  0
  9 10  2  0
  9 11  1  0
 11 12  1  0
 12 13  1  0
  7 14  2  0
 14  4  1  0
M  END
>  <energy_score>  (3479) 
-14.478527

>  <alias>  (3479) 
HJNVKQGWXMWRBX-UHFFFAOYSA-N-P86-P35-P86-601526

>  <HIPPO Pose ID>  (3479) 
78186

>  <smiles>  (3479) 
CCCn1cnc(NC(=O)CCBr)c1

>  <inchikey>  (3479) 
HJNVKQGWXMWRBX-UHFFFAOYSA-N

>  <distance_score>  (3479) 
1.700764

>  <ref_mols>  (3479) 
Z0719a,Z1597a

>  <ref_pdb>  (3479) 
Z3093a

>  <HIPPO Compound ID>  (3479) 
149878

>  <name>  (3479) 
HJNVKQGWXMWRBX-UHFFFAOYSA-N-P86-P35-P86-601526

>  <inspiration_score>  (3479) 
None

$$$$
CLDDRONCWUKXMS-UHFFFAOYSA-N-P86-P35-P86-601526
     RDKit          3D

 14 15  0  0  0  0  0  0  0  0999 V2000
   -4.3621    5.2776  -18.2249 O   0  0  0  0  0  0  0  0  0  0  0  0
   -5.0679    5.2627  -19.1571 C   0  0  0  0  0  0  0  0  0  0  0  0
   -4.5596    5.4978  -20.5689 C   0  0  0  0  0  0  0  0  0  0  0  0
   -4.5218    6.9775  -20.8492 C   0  0  0  0  0  0  0  0  0  0  0  0
   -4.0566    7.3025  -22.7106 Br  0  0  0  0  0  0  0  0  0  0  0  0
   -6.5966    4.9937  -19.2597 N   0  0  0  0  0  0  0  0  0  0  0  0
   -7.4921    4.6188  -18.3089 C   0  0  0  0  0  0  0  0  0  0  0  0
   -8.7770    4.1279  -18.4602 C   0  0  0  0  0  0  0  0  0  0  0  0
   -9.3731    3.8563  -17.2439 N   0  0  0  0  0  0  0  0  0  0  0  0
   -8.4704    4.2203  -16.3713 C   0  0  0  0  0  0  0  0  0  0  0  0
   -7.3285    4.6481  -16.9758 N   0  0  0  0  0  0  0  0  0  0  0  0
   -6.3708    5.1990  -16.0524 C   0  0  0  0  0  0  0  0  0  0  0  0
   -7.1872    5.3315  -14.7661 C   0  0  0  0  0  0  0  0  0  0  0  0
   -8.3893    4.3755  -14.9092 C   0  0  0  0  0  0  0  0  0  0  0  0
  1  2  2  0
  2  3  1  0
  3  4  1  0
  4  5  1  0
  2  6  1  0
  6  7  1  0
  7  8  2  0
  8  9  1  0
  9 10  2  0
 10 11  1  0
 11 12  1  0
 12 13  1  0
 13 14  1  0
 11  7  1  0
 14 10  1  0
M  END
>  <energy_score>  (3480) 
-21.242097

>  <alias>  (3480) 
CLDDRONCWUKXMS-UHFFFAOYSA-N-P86-P35-P86-601526

>  <HIPPO Pose ID>  (3480) 
78192

>  <smiles>  (3480) 
O=C(CCBr)Nc1cnc2n1CCC2

>  <inchikey>  (3480) 
CLDDRONCWUKXMS-UHFFFAOYSA-N

>  <distance_score>  (3480) 
1.482651

>  <ref_mols>  (3480) 
Z0719a,Z1597a

>  <ref_pdb>  (3480) 
Z3093a

>  <HIPPO Compound ID>  (3480) 
149881

>  <name>  (3480) 
CLDDRONCWUKXMS-UHFFFAOYSA-N-P86-P35-P86-601526

>  <inspiration_score>  (3480) 
None

$$$$
UPNVWRDVXMDLJO-UHFFFAOYSA-N-P86-P35-P86-601526
     RDKit          3D

 14 14  0  0  0  0  0  0  0  0999 V2000
   -4.1806    6.1025  -15.9952 O   0  0  0  0  0  0  0  0  0  0  0  0
   -4.5841    5.7615  -17.0357 C   0  0  0  0  0  0  0  0  0  0  0  0
   -3.7271    5.8498  -18.3143 C   0  0  0  0  0  0  0  0  0  0  0  0
   -4.3178    6.5249  -19.5476 C   0  0  0  0  0  0  0  0  0  0  0  0
   -4.8840    8.3461  -19.1484 Br  0  0  0  0  0  0  0  0  0  0  0  0
   -5.9363    5.1194  -17.4252 N   0  0  0  0  0  0  0  0  0  0  0  0
   -6.9703    4.7025  -16.6507 C   0  0  0  0  0  0  0  0  0  0  0  0
   -8.1232    4.5541  -17.3889 N   0  0  0  0  0  0  0  0  0  0  0  0
   -9.0485    4.1494  -16.5590 C   0  0  0  0  0  0  0  0  0  0  0  0
   -8.5382    3.9851  -15.3129 N   0  0  0  0  0  0  0  0  0  0  0  0
   -7.2019    4.3265  -15.3471 C   0  0  0  0  0  0  0  0  0  0  0  0
   -6.4335    4.0475  -14.1696 N   0  0  0  0  0  0  0  0  0  0  0  0
   -7.0886    3.6419  -13.1958 O   0  0  0  0  0  0  0  0  0  0  0  0
   -5.2081    4.1795  -14.1914 O   0  0  0  0  0  0  0  0  0  0  0  0
  1  2  2  0
  2  3  1  0
  3  4  1  0
  4  5  1  0
  2  6  1  0
  6  7  1  0
  7  8  1  0
  8  9  2  0
  9 10  1  0
 10 11  1  0
 11 12  1  0
 12 13  2  0
 12 14  1  0
 11  7  2  0
M  CHG  2  12   1  14  -1
M  END
>  <energy_score>  (3481) 
-24.05486

>  <alias>  (3481) 
UPNVWRDVXMDLJO-UHFFFAOYSA-N-P86-P35-P86-601526

>  <HIPPO Pose ID>  (3481) 
78196

>  <smiles>  (3481) 
O=C(CCBr)Nc1nc[nH]c1[N+](=O)[O-]

>  <inchikey>  (3481) 
UPNVWRDVXMDLJO-UHFFFAOYSA-N

>  <distance_score>  (3481) 
1.93589

>  <ref_mols>  (3481) 
Z0719a,Z1597a

>  <ref_pdb>  (3481) 
Z3093a

>  <HIPPO Compound ID>  (3481) 
149883

>  <name>  (3481) 
UPNVWRDVXMDLJO-UHFFFAOYSA-N-P86-P35-P86-601526

>  <inspiration_score>  (3481) 
None

$$$$
NOHLOSYXFRZPHO-UHFFFAOYSA-N-P35-P35-P86-601526
     RDKit          3D

 15 15  0  0  0  0  0  0  0  0999 V2000
   -4.7634    7.0777  -20.0685 C   0  0  0  0  0  0  0  0  0  0  0  0
   -4.1668    6.2884  -18.9054 C   0  0  2  0  0  0  0  0  0  0  0  0
   -3.5364    4.9924  -19.3750 C   0  0  0  0  0  0  0  0  0  0  0  0
   -2.7791    4.4497  -18.3865 F   0  0  0  0  0  0  0  0  0  0  0  0
   -5.1587    6.0122  -17.7651 C   0  0  0  0  0  0  0  0  0  0  0  0
   -4.9243    6.3628  -16.6748 O   0  0  0  0  0  0  0  0  0  0  0  0
   -6.3457    5.1810  -18.3207 N   0  0  0  0  0  0  0  0  0  0  0  0
   -7.4613    4.7227  -17.7067 C   0  0  0  0  0  0  0  0  0  0  0  0
   -8.5314    4.4200  -18.4964 N   0  0  0  0  0  0  0  0  0  0  0  0
   -9.5259    4.1546  -17.6801 C   0  0  0  0  0  0  0  0  0  0  0  0
   -9.1125    4.1702  -16.3856 N   0  0  0  0  0  0  0  0  0  0  0  0
   -7.7914    4.5175  -16.4010 C   0  0  0  0  0  0  0  0  0  0  0  0
   -7.0924    4.5663  -15.1875 N   0  0  0  0  0  0  0  0  0  0  0  0
   -5.9801    4.0361  -15.1254 O   0  0  0  0  0  0  0  0  0  0  0  0
   -7.7206    5.0852  -14.2606 O   0  0  0  0  0  0  0  0  0  0  0  0
  2  1  1  6
  2  3  1  0
  3  4  1  0
  2  5  1  0
  5  6  2  0
  5  7  1  0
  7  8  1  0
  8  9  1  0
  9 10  2  0
 10 11  1  0
 11 12  1  0
 12 13  1  0
 13 14  2  0
 13 15  1  0
 12  8  2  0
M  CHG  2  13   1  15  -1
M  END
>  <energy_score>  (3482) 
-25.601997

>  <alias>  (3482) 
NOHLOSYXFRZPHO-UHFFFAOYSA-N-P35-P35-P86-601526

>  <HIPPO Pose ID>  (3482) 
78203

>  <smiles>  (3482) 
CC(CF)C(=O)Nc1nc[nH]c1[N+](=O)[O-]

>  <inchikey>  (3482) 
NOHLOSYXFRZPHO-UHFFFAOYSA-N

>  <distance_score>  (3482) 
1.5319

>  <ref_mols>  (3482) 
Z0719a,Z1597a

>  <ref_pdb>  (3482) 
Z3093a

>  <HIPPO Compound ID>  (3482) 
149887

>  <name>  (3482) 
NOHLOSYXFRZPHO-UHFFFAOYSA-N-P35-P35-P86-601526

>  <inspiration_score>  (3482) 
None

$$$$
XVQSEDLKGDTXNS-UHFFFAOYSA-N-P86-P35-P86-601526
     RDKit          3D

 15 16  0  0  0  0  0  0  0  0999 V2000
   -3.7579    6.9374  -19.5362 O   0  0  0  0  0  0  0  0  0  0  0  0
   -4.5935    6.5054  -20.2270 C   0  0  0  0  0  0  0  0  0  0  0  0
   -4.6200    6.6963  -21.7278 C   0  0  0  0  0  0  0  0  0  0  0  0
   -3.2194    6.9988  -22.1926 C   0  0  0  0  0  0  0  0  0  0  0  0
   -3.2103    7.2747  -24.1238 Br  0  0  0  0  0  0  0  0  0  0  0  0
   -5.8921    5.7424  -19.8734 N   0  0  0  0  0  0  0  0  0  0  0  0
   -6.3514    5.3015  -18.6880 C   0  0  0  0  0  0  0  0  0  0  0  0
   -7.5372    4.6385  -18.4960 C   0  0  0  0  0  0  0  0  0  0  0  0
   -7.6586    4.5515  -17.1448 N   0  0  0  0  0  0  0  0  0  0  0  0
   -8.7618    4.1340  -16.4795 N   0  0  0  0  0  0  0  0  0  0  0  0
   -8.6290    4.2743  -15.2015 C   0  0  0  0  0  0  0  0  0  0  0  0
   -7.4344    4.7536  -14.4742 C   0  0  0  0  0  0  0  0  0  0  0  0
   -6.3951    5.1559  -15.2053 C   0  0  0  0  0  0  0  0  0  0  0  0
   -6.5052    5.1044  -16.6051 C   0  0  0  0  0  0  0  0  0  0  0  0
   -5.6955    5.5551  -17.5306 N   0  0  0  0  0  0  0  0  0  0  0  0
  1  2  2  0
  2  3  1  0
  3  4  1  0
  4  5  1  0
  2  6  1  0
  6  7  1  0
  7  8  2  0
  8  9  1  0
  9 10  1  0
 10 11  2  0
 11 12  1  0
 12 13  2  0
 13 14  1  0
 14 15  2  0
 15  7  1  0
 14  9  1  0
M  END
>  <energy_score>  (3483) 
-30.518955

>  <alias>  (3483) 
XVQSEDLKGDTXNS-UHFFFAOYSA-N-P86-P35-P86-601526

>  <HIPPO Pose ID>  (3483) 
78216

>  <smiles>  (3483) 
O=C(CCBr)Nc1cn2ncccc2n1

>  <inchikey>  (3483) 
XVQSEDLKGDTXNS-UHFFFAOYSA-N

>  <distance_score>  (3483) 
1.64344

>  <ref_mols>  (3483) 
Z0719a,Z1597a

>  <ref_pdb>  (3483) 
Z3093a

>  <HIPPO Compound ID>  (3483) 
149893

>  <name>  (3483) 
XVQSEDLKGDTXNS-UHFFFAOYSA-N-P86-P35-P86-601526

>  <inspiration_score>  (3483) 
None

$$$$
WXVIYYDWDFPDIQ-UHFFFAOYSA-N-P86-P35-P86-601526
     RDKit          3D

 15 16  0  0  0  0  0  0  0  0999 V2000
   -3.2691    7.1618  -19.0847 O   0  0  0  0  0  0  0  0  0  0  0  0
   -3.8296    6.4997  -19.8686 C   0  0  0  0  0  0  0  0  0  0  0  0
   -3.3701    6.4025  -21.3098 C   0  0  0  0  0  0  0  0  0  0  0  0
   -4.3924    6.9084  -22.2973 C   0  0  0  0  0  0  0  0  0  0  0  0
   -4.6182    8.8400  -22.1789 Br  0  0  0  0  0  0  0  0  0  0  0  0
   -5.0534    5.5543  -19.6985 N   0  0  0  0  0  0  0  0  0  0  0  0
   -5.8400    5.3214  -18.6231 C   0  0  0  0  0  0  0  0  0  0  0  0
   -7.0180    4.6173  -18.6116 C   0  0  0  0  0  0  0  0  0  0  0  0
   -7.4168    4.6460  -17.3062 N   0  0  0  0  0  0  0  0  0  0  0  0
   -8.5613    4.1534  -16.7118 C   0  0  0  0  0  0  0  0  0  0  0  0
   -8.7075    4.3199  -15.3944 C   0  0  0  0  0  0  0  0  0  0  0  0
   -7.5906    4.9894  -14.6905 C   0  0  0  0  0  0  0  0  0  0  0  0
   -6.5293    5.4882  -15.2333 N   0  0  0  0  0  0  0  0  0  0  0  0
   -6.4365    5.3320  -16.5844 C   0  0  0  0  0  0  0  0  0  0  0  0
   -5.5055    5.7819  -17.3927 N   0  0  0  0  0  0  0  0  0  0  0  0
  1  2  2  0
  2  3  1  0
  3  4  1  0
  4  5  1  0
  2  6  1  0
  6  7  1  0
  7  8  2  0
  8  9  1  0
  9 10  1  0
 10 11  2  0
 11 12  1  0
 12 13  2  0
 13 14  1  0
 14 15  2  0
 15  7  1  0
 14  9  1  0
M  END
>  <energy_score>  (3484) 
-29.086718

>  <alias>  (3484) 
WXVIYYDWDFPDIQ-UHFFFAOYSA-N-P86-P35-P86-601526

>  <HIPPO Pose ID>  (3484) 
78218

>  <smiles>  (3484) 
O=C(CCBr)Nc1cn2cccnc2n1

>  <inchikey>  (3484) 
WXVIYYDWDFPDIQ-UHFFFAOYSA-N

>  <distance_score>  (3484) 
1.664098

>  <ref_mols>  (3484) 
Z0719a,Z1597a

>  <ref_pdb>  (3484) 
Z3093a

>  <HIPPO Compound ID>  (3484) 
149894

>  <name>  (3484) 
WXVIYYDWDFPDIQ-UHFFFAOYSA-N-P86-P35-P86-601526

>  <inspiration_score>  (3484) 
None

$$$$
LCUXRVDIPMTCJC-UHFFFAOYSA-N-P35-P35-P86-601526
     RDKit          3D

 15 15  0  0  0  0  0  0  0  0999 V2000
   -4.8983    6.4431  -16.9222 O   0  0  0  0  0  0  0  0  0  0  0  0
   -5.5112    6.5757  -17.9068 C   0  0  0  0  0  0  0  0  0  0  0  0
   -5.0585    7.5231  -19.0166 C   0  0  0  0  0  0  0  0  0  0  0  0
   -4.7314    6.8359  -20.3372 C   0  0  0  0  0  0  0  0  0  0  0  0
   -4.0653    7.7636  -21.3455 C   0  0  0  0  0  0  0  0  0  0  0  0
   -5.1219    9.1215  -21.8047 Cl  0  0  0  0  0  0  0  0  0  0  0  0
   -6.8844    5.9914  -18.3205 N   0  0  0  0  0  0  0  0  0  0  0  0
   -7.6905    5.1051  -17.6874 C   0  0  0  0  0  0  0  0  0  0  0  0
   -8.8379    4.7714  -18.3436 N   0  0  0  0  0  0  0  0  0  0  0  0
   -9.5878    4.1338  -17.4774 C   0  0  0  0  0  0  0  0  0  0  0  0
   -8.9277    3.9447  -16.3037 N   0  0  0  0  0  0  0  0  0  0  0  0
   -7.7126    4.5551  -16.4398 C   0  0  0  0  0  0  0  0  0  0  0  0
   -6.9010    4.6714  -15.3080 N   0  0  0  0  0  0  0  0  0  0  0  0
   -5.8670    4.0014  -15.2575 O   0  0  0  0  0  0  0  0  0  0  0  0
   -7.3758    5.3765  -14.4148 O   0  0  0  0  0  0  0  0  0  0  0  0
  1  2  2  0
  2  3  1  0
  3  4  1  0
  4  5  1  0
  5  6  1  0
  2  7  1  0
  7  8  1  0
  8  9  1  0
  9 10  2  0
 10 11  1  0
 11 12  1  0
 12 13  1  0
 13 14  2  0
 13 15  1  0
 12  8  2  0
M  CHG  2  13   1  15  -1
M  END
>  <energy_score>  (3485) 
-27.359927

>  <alias>  (3485) 
LCUXRVDIPMTCJC-UHFFFAOYSA-N-P35-P35-P86-601526

>  <HIPPO Pose ID>  (3485) 
78227

>  <smiles>  (3485) 
O=C(CCCCl)Nc1nc[nH]c1[N+](=O)[O-]

>  <inchikey>  (3485) 
LCUXRVDIPMTCJC-UHFFFAOYSA-N

>  <distance_score>  (3485) 
1.750734

>  <ref_mols>  (3485) 
Z0719a,Z1597a

>  <ref_pdb>  (3485) 
Z3093a

>  <HIPPO Compound ID>  (3485) 
149899

>  <name>  (3485) 
LCUXRVDIPMTCJC-UHFFFAOYSA-N-P35-P35-P86-601526

>  <inspiration_score>  (3485) 
None

$$$$
ZRTLZCCZAFWIDO-UHFFFAOYSA-N-P86-P35-P86-601526
     RDKit          3D

 15 16  0  0  0  0  0  0  0  0999 V2000
   -4.3279    3.8749  -12.6143 C   0  0  0  0  0  0  0  0  0  0  0  0
   -4.8140    5.0864  -11.8009 C   0  0  0  0  0  0  0  0  0  0  0  0
   -6.1707    4.8369  -11.2411 C   0  0  0  0  0  0  0  0  0  0  0  0
   -6.3663    4.7994   -9.8750 N   0  0  0  0  0  0  0  0  0  0  0  0
   -7.5027    4.1628   -9.7145 C   0  0  0  0  0  0  0  0  0  0  0  0
   -8.0411    3.8262  -10.9218 N   0  0  0  0  0  0  0  0  0  0  0  0
   -8.9586    2.7458  -11.1216 C   0  0  0  0  0  0  0  0  0  0  0  0
   -7.3098    4.4345  -11.9103 C   0  0  0  0  0  0  0  0  0  0  0  0
   -7.6507    4.4755  -13.2369 N   0  0  0  0  0  0  0  0  0  0  0  0
   -6.9812    5.2165  -14.4294 C   0  0  0  0  0  0  0  0  0  0  0  0
   -5.9895    5.8441  -14.4752 O   0  0  0  0  0  0  0  0  0  0  0  0
   -7.8450    5.1450  -15.6931 C   0  0  0  0  0  0  0  0  0  0  0  0
   -7.0234    5.0920  -17.0215 C   0  0  0  0  0  0  0  0  0  0  0  0
   -8.3515    4.1836  -17.8414 S   0  0  0  0  0  0  0  0  0  0  0  0
   -8.6824    3.9194  -16.0804 C   0  0  0  0  0  0  0  0  0  0  0  0
  1  2  1  0
  2  3  1  0
  3  4  1  0
  4  5  2  0
  5  6  1  0
  6  7  1  0
  6  8  1  0
  8  9  1  0
  9 10  1  0
 10 11  2  0
 10 12  1  0
 12 13  1  0
 13 14  1  0
 14 15  1  0
  8  3  2  0
 15 12  1  0
M  END
>  <energy_score>  (3486) 
-15.819778

>  <alias>  (3486) 
ZRTLZCCZAFWIDO-UHFFFAOYSA-N-P86-P35-P86-601526

>  <HIPPO Pose ID>  (3486) 
78230

>  <smiles>  (3486) 
CCc1ncn(C)c1NC(=O)C1CSC1

>  <inchikey>  (3486) 
ZRTLZCCZAFWIDO-UHFFFAOYSA-N

>  <distance_score>  (3486) 
1.648492

>  <ref_mols>  (3486) 
Z0719a,Z1597a

>  <ref_pdb>  (3486) 
Z3093a

>  <HIPPO Compound ID>  (3486) 
149900

>  <name>  (3486) 
ZRTLZCCZAFWIDO-UHFFFAOYSA-N-P86-P35-P86-601526

>  <inspiration_score>  (3486) 
None

$$$$
FCYXEJSPKNMYOY-UHFFFAOYSA-N-P35-P35-P86-601526
     RDKit          3D

 15 15  0  0  0  0  0  0  0  0999 V2000
   -4.2179    8.4889  -20.4831 C   0  0  0  0  0  0  0  0  0  0  0  0
   -4.5607    7.1947  -20.5684 C   0  0  0  0  0  0  0  0  0  0  0  0
   -3.9034    6.0449  -19.8588 C   0  0  1  0  0  0  0  0  0  0  0  0
   -2.1238    6.1084  -20.0437 Cl  0  0  0  0  0  0  0  0  0  0  0  0
   -4.3203    5.8752  -18.3876 C   0  0  0  0  0  0  0  0  0  0  0  0
   -3.5694    5.9484  -17.4898 O   0  0  0  0  0  0  0  0  0  0  0  0
   -5.8418    5.5032  -18.4097 N   0  0  0  0  0  0  0  0  0  0  0  0
   -6.6549    5.0864  -17.4182 C   0  0  0  0  0  0  0  0  0  0  0  0
   -6.2818    4.8334  -16.1305 C   0  0  0  0  0  0  0  0  0  0  0  0
   -7.3806    4.2894  -15.5432 N   0  0  0  0  0  0  0  0  0  0  0  0
   -7.4904    3.7587  -14.2038 C   0  0  0  0  0  0  0  0  0  0  0  0
   -6.2608    3.7951  -13.2722 C   0  0  0  0  0  0  0  0  0  0  0  0
   -5.2324    2.7210  -13.5504 C   0  0  0  0  0  0  0  0  0  0  0  0
   -8.3941    4.3417  -16.4618 C   0  0  0  0  0  0  0  0  0  0  0  0
   -7.9653    4.8024  -17.6185 N   0  0  0  0  0  0  0  0  0  0  0  0
  1  2  2  0
  2  3  1  0
  3  4  1  1
  3  5  1  0
  5  6  2  0
  5  7  1  0
  7  8  1  0
  8  9  2  0
  9 10  1  0
 10 11  1  0
 11 12  1  0
 12 13  1  0
 10 14  1  0
 14 15  2  0
 15  8  1  0
M  END
>  <energy_score>  (3487) 
-6.952403

>  <alias>  (3487) 
FCYXEJSPKNMYOY-UHFFFAOYSA-N-P35-P35-P86-601526

>  <HIPPO Pose ID>  (3487) 
78247

>  <smiles>  (3487) 
C=CC(Cl)C(=O)Nc1cn(CCC)cn1

>  <inchikey>  (3487) 
FCYXEJSPKNMYOY-UHFFFAOYSA-N

>  <distance_score>  (3487) 
1.697475

>  <ref_mols>  (3487) 
Z0719a,Z1597a

>  <ref_pdb>  (3487) 
Z3093a

>  <HIPPO Compound ID>  (3487) 
149909

>  <name>  (3487) 
FCYXEJSPKNMYOY-UHFFFAOYSA-N-P35-P35-P86-601526

>  <inspiration_score>  (3487) 
None

$$$$
UZDJWJHRTPUTKH-UHFFFAOYSA-N-P35-P35-P86-601526
     RDKit          3D

 15 15  0  0  0  0  0  0  0  0999 V2000
   -5.5433    5.4434  -14.3083 C   0  0  0  0  0  0  0  0  0  0  0  0
   -6.5377    6.2455  -15.1155 C   0  0  0  0  0  0  0  0  0  0  0  0
   -7.2716    5.4253  -16.0349 N   0  0  0  0  0  0  0  0  0  0  0  0
   -8.3668    4.6948  -15.6196 C   0  0  0  0  0  0  0  0  0  0  0  0
   -8.7437    4.5315  -14.1940 C   0  0  0  0  0  0  0  0  0  0  0  0
   -8.9957    4.1799  -16.6459 N   0  0  0  0  0  0  0  0  0  0  0  0
   -8.2523    4.5360  -17.7377 C   0  0  0  0  0  0  0  0  0  0  0  0
   -8.7222    4.1134  -19.0563 C   0  0  0  0  0  0  0  0  0  0  0  0
   -7.1197    5.2531  -17.3873 C   0  0  0  0  0  0  0  0  0  0  0  0
   -6.1191    5.6597  -18.2433 N   0  0  0  0  0  0  0  0  0  0  0  0
   -4.7978    6.4466  -17.9595 C   0  0  0  0  0  0  0  0  0  0  0  0
   -4.4009    6.9336  -16.9682 O   0  0  0  0  0  0  0  0  0  0  0  0
   -3.9782    6.5725  -19.2567 C   0  0  2  0  0  0  0  0  0  0  0  0
   -4.7011    7.1510  -20.4598 C   0  0  0  0  0  0  0  0  0  0  0  0
   -3.2229    5.0051  -19.6279 Cl  0  0  0  0  0  0  0  0  0  0  0  0
  1  2  1  0
  2  3  1  0
  3  4  1  0
  4  5  1  0
  4  6  2  0
  6  7  1  0
  7  8  1  0
  7  9  2  0
  9 10  1  0
 10 11  1  0
 11 12  2  0
 11 13  1  0
 13 14  1  6
 13 15  1  0
  9  3  1  0
M  END
>  <energy_score>  (3488) 
-11.223274

>  <alias>  (3488) 
UZDJWJHRTPUTKH-UHFFFAOYSA-N-P35-P35-P86-601526

>  <HIPPO Pose ID>  (3488) 
78261

>  <smiles>  (3488) 
CCn1c(C)nc(C)c1NC(=O)C(C)Cl

>  <inchikey>  (3488) 
UZDJWJHRTPUTKH-UHFFFAOYSA-N

>  <distance_score>  (3488) 
1.607422

>  <ref_mols>  (3488) 
Z0719a,Z1597a

>  <ref_pdb>  (3488) 
Z3093a

>  <HIPPO Compound ID>  (3488) 
149916

>  <name>  (3488) 
UZDJWJHRTPUTKH-UHFFFAOYSA-N-P35-P35-P86-601526

>  <inspiration_score>  (3488) 
None

$$$$
FRSCMQSFOQMYFB-UHFFFAOYSA-N-P86-P35-P86-601526
     RDKit          3D

 15 16  0  0  0  0  0  0  0  0999 V2000
   -2.9507    6.5997  -22.2638 C   0  0  0  0  0  0  0  0  0  0  0  0
   -4.3763    6.6769  -21.7716 C   0  0  2  0  0  0  0  0  0  0  0  0
   -5.0611    8.4711  -22.1275 Br  0  0  0  0  0  0  0  0  0  0  0  0
   -4.4235    6.4670  -20.2629 C   0  0  0  0  0  0  0  0  0  0  0  0
   -3.5531    6.7935  -19.5526 O   0  0  0  0  0  0  0  0  0  0  0  0
   -5.7492    5.7165  -19.9526 N   0  0  0  0  0  0  0  0  0  0  0  0
   -6.2797    5.3271  -18.7762 C   0  0  0  0  0  0  0  0  0  0  0  0
   -7.4588    4.6429  -18.6166 C   0  0  0  0  0  0  0  0  0  0  0  0
   -7.6327    4.5716  -17.2704 N   0  0  0  0  0  0  0  0  0  0  0  0
   -8.7435    4.1173  -16.6427 N   0  0  0  0  0  0  0  0  0  0  0  0
   -8.6592    4.2638  -15.3616 C   0  0  0  0  0  0  0  0  0  0  0  0
   -7.5081    4.7852  -14.5944 C   0  0  0  0  0  0  0  0  0  0  0  0
   -6.4584    5.2219  -15.2906 C   0  0  0  0  0  0  0  0  0  0  0  0
   -6.5170    5.1625  -16.6938 C   0  0  0  0  0  0  0  0  0  0  0  0
   -5.6861    5.6265  -17.5945 N   0  0  0  0  0  0  0  0  0  0  0  0
  2  1  1  1
  2  3  1  0
  2  4  1  0
  4  5  2  0
  4  6  1  0
  6  7  1  0
  7  8  2  0
  8  9  1  0
  9 10  1  0
 10 11  2  0
 11 12  1  0
 12 13  2  0
 13 14  1  0
 14 15  2  0
 15  7  1  0
 14  9  1  0
M  END
>  <energy_score>  (3489) 
-30.408904

>  <alias>  (3489) 
FRSCMQSFOQMYFB-UHFFFAOYSA-N-P86-P35-P86-601526

>  <HIPPO Pose ID>  (3489) 
78274

>  <smiles>  (3489) 
CC(Br)C(=O)Nc1cn2ncccc2n1

>  <inchikey>  (3489) 
FRSCMQSFOQMYFB-UHFFFAOYSA-N

>  <distance_score>  (3489) 
1.655149

>  <ref_mols>  (3489) 
Z0719a,Z1597a

>  <ref_pdb>  (3489) 
Z3093a

>  <HIPPO Compound ID>  (3489) 
149922

>  <name>  (3489) 
FRSCMQSFOQMYFB-UHFFFAOYSA-N-P86-P35-P86-601526

>  <inspiration_score>  (3489) 
None

$$$$
LAEXOENUSOEWFO-UHFFFAOYSA-N-P35-P35-P86-601526
     RDKit          3D

 15 15  0  0  0  0  0  0  0  0999 V2000
   -4.8001    8.5016  -21.2294 C   0  0  0  0  0  0  0  0  0  0  0  0
   -4.8897    7.2810  -20.6795 C   0  0  0  0  0  0  0  0  0  0  0  0
   -4.0577    6.8049  -19.5263 C   0  0  2  0  0  0  0  0  0  0  0  0
   -3.0707    5.3912  -19.9962 Cl  0  0  0  0  0  0  0  0  0  0  0  0
   -4.7628    6.4771  -18.1808 C   0  0  0  0  0  0  0  0  0  0  0  0
   -4.2327    6.7688  -17.1734 O   0  0  0  0  0  0  0  0  0  0  0  0
   -6.0900    5.6852  -18.4366 N   0  0  0  0  0  0  0  0  0  0  0  0
   -7.0262    5.2043  -17.5529 C   0  0  0  0  0  0  0  0  0  0  0  0
   -8.1733    4.4710  -17.8051 C   0  0  0  0  0  0  0  0  0  0  0  0
   -8.8033    4.0951  -19.0739 C   0  0  0  0  0  0  0  0  0  0  0  0
   -8.7309    3.9987  -16.6422 N   0  0  0  0  0  0  0  0  0  0  0  0
   -7.9456    4.4292  -15.6826 C   0  0  0  0  0  0  0  0  0  0  0  0
   -7.9964    4.0348  -14.2551 C   0  0  0  0  0  0  0  0  0  0  0  0
   -7.0228    5.3141  -16.1863 N   0  0  0  0  0  0  0  0  0  0  0  0
   -6.2990    6.2365  -15.3663 C   0  0  0  0  0  0  0  0  0  0  0  0
  1  2  2  0
  2  3  1  0
  3  4  1  6
  3  5  1  0
  5  6  2  0
  5  7  1  0
  7  8  1  0
  8  9  2  0
  9 10  1  0
  9 11  1  0
 11 12  2  0
 12 13  1  0
 12 14  1  0
 14 15  1  0
 14  8  1  0
M  END
>  <energy_score>  (3490) 
-19.39109

>  <alias>  (3490) 
LAEXOENUSOEWFO-UHFFFAOYSA-N-P35-P35-P86-601526

>  <HIPPO Pose ID>  (3490) 
78275

>  <smiles>  (3490) 
C=CC(Cl)C(=O)Nc1c(C)nc(C)n1C

>  <inchikey>  (3490) 
LAEXOENUSOEWFO-UHFFFAOYSA-N

>  <distance_score>  (3490) 
1.558762

>  <ref_mols>  (3490) 
Z0719a,Z1597a

>  <ref_pdb>  (3490) 
Z3093a

>  <HIPPO Compound ID>  (3490) 
149923

>  <name>  (3490) 
LAEXOENUSOEWFO-UHFFFAOYSA-N-P35-P35-P86-601526

>  <inspiration_score>  (3490) 
None

$$$$
VHFSVNFWAPDECT-UHFFFAOYSA-N-P86-P35-P86-601526
     RDKit          3D

 15 15  0  0  0  0  0  0  0  0999 V2000
   -3.2239    5.7693  -20.4779 C   0  0  0  0  0  0  0  0  0  0  0  0
   -4.3629    6.4285  -20.2210 C   0  0  0  0  0  0  0  0  0  0  0  0
   -4.5850    7.2417  -18.9730 C   0  0  1  0  0  0  0  0  0  0  0  0
   -5.4829    8.7403  -19.3604 Cl  0  0  0  0  0  0  0  0  0  0  0  0
   -5.3132    6.5690  -17.7742 C   0  0  0  0  0  0  0  0  0  0  0  0
   -4.9714    6.8003  -16.6776 O   0  0  0  0  0  0  0  0  0  0  0  0
   -6.4561    5.6493  -18.3033 N   0  0  0  0  0  0  0  0  0  0  0  0
   -7.4088    4.9481  -17.6307 C   0  0  0  0  0  0  0  0  0  0  0  0
   -8.4567    4.5062  -18.3895 N   0  0  0  0  0  0  0  0  0  0  0  0
   -9.3359    4.0029  -17.5535 C   0  0  0  0  0  0  0  0  0  0  0  0
   -8.8595    4.0016  -16.2808 N   0  0  0  0  0  0  0  0  0  0  0  0
   -7.6248    4.5903  -16.3268 C   0  0  0  0  0  0  0  0  0  0  0  0
   -6.8439    4.6181  -15.1591 N   0  0  0  0  0  0  0  0  0  0  0  0
   -7.4457    4.5594  -14.0827 O   0  0  0  0  0  0  0  0  0  0  0  0
   -5.6280    4.6420  -15.3059 O   0  0  0  0  0  0  0  0  0  0  0  0
  1  2  2  0
  2  3  1  0
  3  4  1  6
  3  5  1  0
  5  6  2  0
  5  7  1  0
  7  8  1  0
  8  9  1  0
  9 10  2  0
 10 11  1  0
 11 12  1  0
 12 13  1  0
 13 14  2  0
 13 15  1  0
 12  8  2  0
M  CHG  2  13   1  15  -1
M  END
>  <energy_score>  (3491) 
-32.282147

>  <alias>  (3491) 
VHFSVNFWAPDECT-UHFFFAOYSA-N-P86-P35-P86-601526

>  <HIPPO Pose ID>  (3491) 
78278

>  <smiles>  (3491) 
C=CC(Cl)C(=O)Nc1nc[nH]c1[N+](=O)[O-]

>  <inchikey>  (3491) 
VHFSVNFWAPDECT-UHFFFAOYSA-N

>  <distance_score>  (3491) 
1.795341

>  <ref_mols>  (3491) 
Z0719a,Z1597a

>  <ref_pdb>  (3491) 
Z3093a

>  <HIPPO Compound ID>  (3491) 
149924

>  <name>  (3491) 
VHFSVNFWAPDECT-UHFFFAOYSA-N-P86-P35-P86-601526

>  <inspiration_score>  (3491) 
None

$$$$
NEOOVOVWBGKKFL-UHFFFAOYSA-N-P86-P35-P86-601526
     RDKit          3D

 15 16  0  0  0  0  0  0  0  0999 V2000
   -3.0839    6.4871  -22.0253 C   0  0  0  0  0  0  0  0  0  0  0  0
   -4.5396    6.6654  -21.6583 C   0  0  2  0  0  0  0  0  0  0  0  0
   -5.1673    8.3669  -22.3812 Br  0  0  0  0  0  0  0  0  0  0  0  0
   -4.6864    6.7291  -20.1413 C   0  0  0  0  0  0  0  0  0  0  0  0
   -3.9177    7.2856  -19.4566 O   0  0  0  0  0  0  0  0  0  0  0  0
   -5.9354    5.8786  -19.7707 N   0  0  0  0  0  0  0  0  0  0  0  0
   -6.4041    5.4886  -18.5665 C   0  0  0  0  0  0  0  0  0  0  0  0
   -7.5529    4.7689  -18.3473 C   0  0  0  0  0  0  0  0  0  0  0  0
   -7.6422    4.6877  -16.9875 N   0  0  0  0  0  0  0  0  0  0  0  0
   -8.6646    4.2232  -16.1818 C   0  0  0  0  0  0  0  0  0  0  0  0
   -8.5214    4.3200  -14.8550 C   0  0  0  0  0  0  0  0  0  0  0  0
   -7.2249    4.8561  -14.3811 C   0  0  0  0  0  0  0  0  0  0  0  0
   -6.2704    5.3225  -15.1156 N   0  0  0  0  0  0  0  0  0  0  0  0
   -6.4916    5.2765  -16.4589 C   0  0  0  0  0  0  0  0  0  0  0  0
   -5.7585    5.7940  -17.4168 N   0  0  0  0  0  0  0  0  0  0  0  0
  2  1  1  1
  2  3  1  0
  2  4  1  0
  4  5  2  0
  4  6  1  0
  6  7  1  0
  7  8  2  0
  8  9  1  0
  9 10  1  0
 10 11  2  0
 11 12  1  0
 12 13  2  0
 13 14  1  0
 14 15  2  0
 15  7  1  0
 14  9  1  0
M  END
>  <energy_score>  (3492) 
-20.428961

>  <alias>  (3492) 
NEOOVOVWBGKKFL-UHFFFAOYSA-N-P86-P35-P86-601526

>  <HIPPO Pose ID>  (3492) 
78280

>  <smiles>  (3492) 
CC(Br)C(=O)Nc1cn2cccnc2n1

>  <inchikey>  (3492) 
NEOOVOVWBGKKFL-UHFFFAOYSA-N

>  <distance_score>  (3492) 
1.608711

>  <ref_mols>  (3492) 
Z0719a,Z1597a

>  <ref_pdb>  (3492) 
Z3093a

>  <HIPPO Compound ID>  (3492) 
149925

>  <name>  (3492) 
NEOOVOVWBGKKFL-UHFFFAOYSA-N-P86-P35-P86-601526

>  <inspiration_score>  (3492) 
None

$$$$
UMDKXYXWCZEFLE-UHFFFAOYSA-N-P35-P35-P86-601526
     RDKit          3D

 15 15  0  0  0  0  0  0  0  0999 V2000
   -5.8524    2.3297  -12.8765 C   0  0  0  0  0  0  0  0  0  0  0  0
   -5.8906    3.6040  -13.7056 C   0  0  0  0  0  0  0  0  0  0  0  0
   -5.4690    4.7962  -12.8427 C   0  0  0  0  0  0  0  0  0  0  0  0
   -7.3141    3.8290  -14.2964 C   0  0  0  0  0  0  0  0  0  0  0  0
   -7.3688    4.4159  -15.6270 N   0  0  0  0  0  0  0  0  0  0  0  0
   -8.3885    4.2915  -16.5298 C   0  0  0  0  0  0  0  0  0  0  0  0
   -8.0251    4.7264  -17.7204 N   0  0  0  0  0  0  0  0  0  0  0  0
   -6.7652    5.1977  -17.5528 C   0  0  0  0  0  0  0  0  0  0  0  0
   -5.9721    5.5999  -18.5678 N   0  0  0  0  0  0  0  0  0  0  0  0
   -4.5485    6.2493  -18.5479 C   0  0  0  0  0  0  0  0  0  0  0  0
   -3.8875    6.6018  -17.6464 O   0  0  0  0  0  0  0  0  0  0  0  0
   -4.0573    6.2671  -19.9972 C   0  0  1  0  0  0  0  0  0  0  0  0
   -4.7746    7.2703  -20.8739 C   0  0  0  0  0  0  0  0  0  0  0  0
   -2.2922    6.5789  -20.0774 Cl  0  0  0  0  0  0  0  0  0  0  0  0
   -6.3780    5.1136  -16.2477 C   0  0  0  0  0  0  0  0  0  0  0  0
  1  2  1  0
  2  3  1  0
  2  4  1  0
  4  5  1  0
  5  6  1  0
  6  7  2  0
  7  8  1  0
  8  9  1  0
  9 10  1  0
 10 11  2  0
 10 12  1  0
 12 13  1  6
 12 14  1  0
  8 15  2  0
 15  5  1  0
M  END
>  <energy_score>  (3493) 
-30.910365

>  <alias>  (3493) 
UMDKXYXWCZEFLE-UHFFFAOYSA-N-P35-P35-P86-601526

>  <HIPPO Pose ID>  (3493) 
78289

>  <smiles>  (3493) 
CC(C)Cn1cnc(NC(=O)C(C)Cl)c1

>  <inchikey>  (3493) 
UMDKXYXWCZEFLE-UHFFFAOYSA-N

>  <distance_score>  (3493) 
1.73858

>  <ref_mols>  (3493) 
Z0719a,Z1597a

>  <ref_pdb>  (3493) 
Z3093a

>  <HIPPO Compound ID>  (3493) 
149930

>  <name>  (3493) 
UMDKXYXWCZEFLE-UHFFFAOYSA-N-P35-P35-P86-601526

>  <inspiration_score>  (3493) 
None

$$$$
ULJGNPBBJQIYNF-UHFFFAOYSA-N-P35-P35-P86-601526
     RDKit          3D

 15 15  0  0  0  0  0  0  0  0999 V2000
   -7.5875    3.4250  -14.4023 C   0  0  0  0  0  0  0  0  0  0  0  0
   -7.8189    4.0109  -15.7694 C   0  0  0  0  0  0  0  0  0  0  0  0
   -8.6523    3.6287  -16.7226 N   0  0  0  0  0  0  0  0  0  0  0  0
   -8.2287    4.2802  -17.8619 C   0  0  0  0  0  0  0  0  0  0  0  0
   -7.1636    5.1092  -17.5765 C   0  0  0  0  0  0  0  0  0  0  0  0
   -6.2743    5.7137  -18.4245 N   0  0  0  0  0  0  0  0  0  0  0  0
   -4.9903    6.5483  -18.1198 C   0  0  0  0  0  0  0  0  0  0  0  0
   -4.5437    6.9093  -17.0966 O   0  0  0  0  0  0  0  0  0  0  0  0
   -4.2048    6.8052  -19.4225 C   0  0  2  0  0  0  0  0  0  0  0  0
   -4.9785    7.3003  -20.6268 C   0  0  0  0  0  0  0  0  0  0  0  0
   -3.2492    5.3444  -19.8020 Cl  0  0  0  0  0  0  0  0  0  0  0  0
   -7.1498    5.1330  -16.2050 N   0  0  0  0  0  0  0  0  0  0  0  0
   -6.6764    6.1715  -15.3188 C   0  0  0  0  0  0  0  0  0  0  0  0
   -7.5870    6.4020  -14.1846 C   0  0  0  0  0  0  0  0  0  0  0  0
   -8.3212    6.4966  -13.2892 N   0  0  0  0  0  0  0  0  0  0  0  0
  1  2  1  0
  2  3  2  0
  3  4  1  0
  4  5  2  0
  5  6  1  0
  6  7  1  0
  7  8  2  0
  7  9  1  0
  9 10  1  6
  9 11  1  0
  5 12  1  0
 12 13  1  0
 13 14  1  0
 14 15  3  0
 12  2  1  0
M  END
>  <energy_score>  (3494) 
-9.931948

>  <alias>  (3494) 
ULJGNPBBJQIYNF-UHFFFAOYSA-N-P35-P35-P86-601526

>  <HIPPO Pose ID>  (3494) 
78293

>  <smiles>  (3494) 
Cc1ncc(NC(=O)C(C)Cl)n1CC#N

>  <inchikey>  (3494) 
ULJGNPBBJQIYNF-UHFFFAOYSA-N

>  <distance_score>  (3494) 
1.863106

>  <ref_mols>  (3494) 
Z0719a,Z1597a

>  <ref_pdb>  (3494) 
Z3093a

>  <HIPPO Compound ID>  (3494) 
149932

>  <name>  (3494) 
ULJGNPBBJQIYNF-UHFFFAOYSA-N-P35-P35-P86-601526

>  <inspiration_score>  (3494) 
None

$$$$
UPDBCNJBMUJCTD-UHFFFAOYSA-N-P86-P35-P86-601526
     RDKit          3D

 15 16  0  0  0  0  0  0  0  0999 V2000
   -4.0432    7.1448  -21.8495 C   0  0  0  0  0  0  0  0  0  0  0  0
   -3.1164    6.1992  -21.1024 C   0  0  1  0  0  0  0  0  0  0  0  0
   -1.4353    6.5227  -21.6176 Cl  0  0  0  0  0  0  0  0  0  0  0  0
   -3.2623    6.3191  -19.5750 C   0  0  0  0  0  0  0  0  0  0  0  0
   -2.3980    6.6324  -18.8510 O   0  0  0  0  0  0  0  0  0  0  0  0
   -4.7375    5.9027  -19.2697 N   0  0  0  0  0  0  0  0  0  0  0  0
   -5.3684    5.7113  -18.0901 C   0  0  0  0  0  0  0  0  0  0  0  0
   -6.6876    5.3628  -17.9738 C   0  0  0  0  0  0  0  0  0  0  0  0
   -6.8666    5.1177  -16.6471 N   0  0  0  0  0  0  0  0  0  0  0  0
   -8.0428    4.6733  -15.9226 C   0  0  0  0  0  0  0  0  0  0  0  0
   -9.1113    3.9165  -16.6380 C   0  0  0  0  0  0  0  0  0  0  0  0
   -8.9813    3.1653  -17.9374 C   0  0  0  0  0  0  0  0  0  0  0  0
   -9.8651    4.3689  -17.8701 C   0  0  0  0  0  0  0  0  0  0  0  0
   -5.6895    5.4320  -16.0189 C   0  0  0  0  0  0  0  0  0  0  0  0
   -4.7744    5.8110  -16.8781 N   0  0  0  0  0  0  0  0  0  0  0  0
  2  1  1  6
  2  3  1  0
  2  4  1  0
  4  5  2  0
  4  6  1  0
  6  7  1  0
  7  8  2  0
  8  9  1  0
  9 10  1  0
 10 11  1  0
 11 12  1  0
 12 13  1  0
  9 14  1  0
 14 15  2  0
 15  7  1  0
 13 11  1  0
M  END
>  <energy_score>  (3495) 
-26.687399

>  <alias>  (3495) 
UPDBCNJBMUJCTD-UHFFFAOYSA-N-P86-P35-P86-601526

>  <HIPPO Pose ID>  (3495) 
78296

>  <smiles>  (3495) 
CC(Cl)C(=O)Nc1cn(CC2CC2)cn1

>  <inchikey>  (3495) 
UPDBCNJBMUJCTD-UHFFFAOYSA-N

>  <distance_score>  (3495) 
1.757586

>  <ref_mols>  (3495) 
Z0719a,Z1597a

>  <ref_pdb>  (3495) 
Z3093a

>  <HIPPO Compound ID>  (3495) 
149933

>  <name>  (3495) 
UPDBCNJBMUJCTD-UHFFFAOYSA-N-P86-P35-P86-601526

>  <inspiration_score>  (3495) 
None

$$$$
MADWNRFZVIGXLK-UHFFFAOYSA-M-P35-P35-P86-601526
     RDKit          3D

 15 15  0  0  0  0  0  0  0  0999 V2000
   -4.2212    6.4068  -19.5985 C   0  0  0  0  0  0  0  0  0  0  0  0
   -3.9004    4.9862  -19.1396 C   0  0  1  0  0  0  0  0  0  0  0  0
   -2.1702    4.6759  -19.5180 Cl  0  0  0  0  0  0  0  0  0  0  0  0
   -4.2012    4.6768  -17.6477 C   0  0  0  0  0  0  0  0  0  0  0  0
   -3.4027    4.3291  -16.8680 O   0  0  0  0  0  0  0  0  0  0  0  0
   -5.7360    4.8989  -17.4907 N   0  0  0  0  0  0  0  0  0  0  0  0
   -6.5589    4.6615  -16.4352 C   0  0  0  0  0  0  0  0  0  0  0  0
   -7.8409    5.0747  -16.7622 N   0  0  0  0  0  0  0  0  0  0  0  0
   -8.5907    4.7716  -15.7367 C   0  0  0  0  0  0  0  0  0  0  0  0
   -7.8432    4.2711  -14.7275 N   0  0  0  0  0  0  0  0  0  0  0  0
   -8.2658    4.0788  -13.3611 C   0  0  0  0  0  0  0  0  0  0  0  0
   -6.5510    4.1101  -15.1733 C   0  0  0  0  0  0  0  0  0  0  0  0
   -5.5358    3.3429  -14.2679 C   0  0  0  0  0  0  0  0  0  0  0  0
   -5.9961    2.2832  -13.7284 O   0  0  0  0  0  0  0  0  0  0  0  0
   -4.3978    3.8449  -14.0597 O   0  0  0  0  0  0  0  0  0  0  0  0
  2  1  1  1
  2  3  1  0
  2  4  1  0
  4  5  2  0
  4  6  1  0
  6  7  1  0
  7  8  1  0
  8  9  2  0
  9 10  1  0
 10 11  1  0
 10 12  1  0
 12 13  1  0
 13 14  2  0
 13 15  1  0
 12  7  2  0
M  CHG  1  15  -1
M  END
>  <energy_score>  (3496) 
-3.822287

>  <alias>  (3496) 
MADWNRFZVIGXLK-UHFFFAOYSA-M-P35-P35-P86-601526

>  <HIPPO Pose ID>  (3496) 
78299

>  <smiles>  (3496) 
CC(Cl)C(=O)Nc1ncn(C)c1C(=O)[O-]

>  <inchikey>  (3496) 
MADWNRFZVIGXLK-UHFFFAOYSA-M

>  <distance_score>  (3496) 
1.737322

>  <ref_mols>  (3496) 
Z0719a,Z1597a

>  <ref_pdb>  (3496) 
Z3093a

>  <HIPPO Compound ID>  (3496) 
149935

>  <name>  (3496) 
MADWNRFZVIGXLK-UHFFFAOYSA-M-P35-P35-P86-601526

>  <inspiration_score>  (3496) 
None

$$$$
KICGIJOMTFOTJF-UHFFFAOYSA-N-P86-P35-P86-601526
     RDKit          3D

 15 16  0  0  0  0  0  0  0  0999 V2000
   -3.9820    2.2541  -12.1104 C   0  0  0  0  0  0  0  0  0  0  0  0
   -5.4162    2.7363  -12.0528 C   0  0  0  0  0  0  0  0  0  0  0  0
   -5.7625    3.4154  -10.7011 C   0  0  0  0  0  0  0  0  0  0  0  0
   -7.1301    3.9484  -10.7231 N   0  0  0  0  0  0  0  0  0  0  0  0
   -8.2213    3.1195  -10.6293 C   0  0  0  0  0  0  0  0  0  0  0  0
   -8.9469    3.2368  -11.7204 N   0  0  0  0  0  0  0  0  0  0  0  0
   -8.3746    4.2654  -12.4028 C   0  0  0  0  0  0  0  0  0  0  0  0
   -8.3452    4.2239  -13.7540 N   0  0  0  0  0  0  0  0  0  0  0  0
   -7.5930    5.1171  -14.7725 C   0  0  0  0  0  0  0  0  0  0  0  0
   -6.9424    6.0774  -14.6053 O   0  0  0  0  0  0  0  0  0  0  0  0
   -7.7320    4.4715  -16.1493 C   0  0  0  0  0  0  0  0  0  0  0  0
   -7.1105    5.1555  -17.3836 C   0  0  0  0  0  0  0  0  0  0  0  0
   -8.2854    4.2685  -18.4468 S   0  0  0  0  0  0  0  0  0  0  0  0
   -9.0897    4.2476  -16.8189 C   0  0  0  0  0  0  0  0  0  0  0  0
   -7.4804    4.9560  -11.6163 C   0  0  0  0  0  0  0  0  0  0  0  0
  1  2  1  0
  2  3  1  0
  3  4  1  0
  4  5  1  0
  5  6  2  0
  6  7  1  0
  7  8  1  0
  8  9  1  0
  9 10  2  0
  9 11  1  0
 11 12  1  0
 12 13  1  0
 13 14  1  0
  7 15  2  0
 15  4  1  0
 14 11  1  0
M  END
>  <energy_score>  (3497) 
-19.2391

>  <alias>  (3497) 
KICGIJOMTFOTJF-UHFFFAOYSA-N-P86-P35-P86-601526

>  <HIPPO Pose ID>  (3497) 
78302

>  <smiles>  (3497) 
CCCn1cnc(NC(=O)C2CSC2)c1

>  <inchikey>  (3497) 
KICGIJOMTFOTJF-UHFFFAOYSA-N

>  <distance_score>  (3497) 
1.183362

>  <ref_mols>  (3497) 
Z0719a,Z1597a

>  <ref_pdb>  (3497) 
Z3093a

>  <HIPPO Compound ID>  (3497) 
149936

>  <name>  (3497) 
KICGIJOMTFOTJF-UHFFFAOYSA-N-P86-P35-P86-601526

>  <inspiration_score>  (3497) 
None

$$$$
JWODKODEEKTLTG-UHFFFAOYSA-N-P35-P35-P86-601526
     RDKit          3D

 15 16  0  0  0  0  0  0  0  0999 V2000
   -4.5987    3.2652   -9.5929 C   0  0  0  0  0  0  0  0  0  0  0  0
   -5.7491    2.5754  -10.3220 C   0  0  0  0  0  0  0  0  0  0  0  0
   -5.2979    2.0304  -11.6989 C   0  0  0  0  0  0  0  0  0  0  0  0
   -6.8952    3.4685  -10.5054 N   0  0  0  0  0  0  0  0  0  0  0  0
   -8.1969    3.0422  -10.4683 C   0  0  0  0  0  0  0  0  0  0  0  0
   -8.8860    3.5966  -11.4422 N   0  0  0  0  0  0  0  0  0  0  0  0
   -8.0114    4.4430  -12.0377 C   0  0  0  0  0  0  0  0  0  0  0  0
   -8.1946    4.8551  -13.3062 N   0  0  0  0  0  0  0  0  0  0  0  0
   -7.2541    5.6340  -14.2556 C   0  0  0  0  0  0  0  0  0  0  0  0
   -6.2010    6.1084  -14.0601 O   0  0  0  0  0  0  0  0  0  0  0  0
   -7.8746    5.6304  -15.6709 C   0  0  0  0  0  0  0  0  0  0  0  0
   -6.8404    5.7589  -16.8374 C   0  0  0  0  0  0  0  0  0  0  0  0
   -7.9036    4.7563  -17.9047 S   0  0  0  0  0  0  0  0  0  0  0  0
   -8.3910    4.2773  -16.2297 C   0  0  0  0  0  0  0  0  0  0  0  0
   -6.8590    4.5813  -11.3135 C   0  0  0  0  0  0  0  0  0  0  0  0
  1  2  1  0
  2  3  1  0
  2  4  1  0
  4  5  1  0
  5  6  2  0
  6  7  1  0
  7  8  1  0
  8  9  1  0
  9 10  2  0
  9 11  1  0
 11 12  1  0
 12 13  1  0
 13 14  1  0
  7 15  2  0
 15  4  1  0
 14 11  1  0
M  END
>  <energy_score>  (3498) 
-28.256839

>  <alias>  (3498) 
JWODKODEEKTLTG-UHFFFAOYSA-N-P35-P35-P86-601526

>  <HIPPO Pose ID>  (3498) 
78305

>  <smiles>  (3498) 
CC(C)n1cnc(NC(=O)C2CSC2)c1

>  <inchikey>  (3498) 
JWODKODEEKTLTG-UHFFFAOYSA-N

>  <distance_score>  (3498) 
1.614546

>  <ref_mols>  (3498) 
Z0719a,Z1597a

>  <ref_pdb>  (3498) 
Z3093a

>  <HIPPO Compound ID>  (3498) 
149938

>  <name>  (3498) 
JWODKODEEKTLTG-UHFFFAOYSA-N-P35-P35-P86-601526

>  <inspiration_score>  (3498) 
None

$$$$
CFYNUCKQNOPYRK-UHFFFAOYSA-N-P86-P35-P86-601526
     RDKit          3D

 15 17  0  0  0  0  0  0  0  0999 V2000
   -4.4228    5.5620  -18.1103 O   0  0  0  0  0  0  0  0  0  0  0  0
   -5.0645    5.4112  -19.0788 C   0  0  0  0  0  0  0  0  0  0  0  0
   -6.5214    4.9051  -19.2510 N   0  0  0  0  0  0  0  0  0  0  0  0
   -7.4628    4.5901  -18.3215 C   0  0  0  0  0  0  0  0  0  0  0  0
   -8.7461    4.1046  -18.5029 C   0  0  0  0  0  0  0  0  0  0  0  0
   -9.3795    3.8526  -17.3010 N   0  0  0  0  0  0  0  0  0  0  0  0
   -8.5006    4.2235  -16.4071 C   0  0  0  0  0  0  0  0  0  0  0  0
   -7.3492    4.6620  -16.9843 N   0  0  0  0  0  0  0  0  0  0  0  0
   -6.4112    5.2035  -16.0356 C   0  0  0  0  0  0  0  0  0  0  0  0
   -7.2453    5.3068  -14.7592 C   0  0  0  0  0  0  0  0  0  0  0  0
   -8.4432    4.3555  -14.9419 C   0  0  0  0  0  0  0  0  0  0  0  0
   -4.4737    5.6151  -20.5090 C   0  0  0  0  0  0  0  0  0  0  0  0
   -4.7619    6.9608  -21.2095 C   0  0  0  0  0  0  0  0  0  0  0  0
   -3.1148    7.5887  -20.7964 S   0  0  0  0  0  0  0  0  0  0  0  0
   -2.9327    5.7870  -20.6260 C   0  0  0  0  0  0  0  0  0  0  0  0
  1  2  2  0
  2  3  1  0
  3  4  1  0
  4  5  2  0
  5  6  1  0
  6  7  2  0
  7  8  1  0
  8  9  1  0
  9 10  1  0
 10 11  1  0
  2 12  1  0
 12 13  1  0
 13 14  1  0
 14 15  1  0
  8  4  1  0
 15 12  1  0
 11  7  1  0
M  END
>  <energy_score>  (3499) 
-8.062905

>  <alias>  (3499) 
CFYNUCKQNOPYRK-UHFFFAOYSA-N-P86-P35-P86-601526

>  <HIPPO Pose ID>  (3499) 
78312

>  <smiles>  (3499) 
O=C(Nc1cnc2n1CCC2)C1CSC1

>  <inchikey>  (3499) 
CFYNUCKQNOPYRK-UHFFFAOYSA-N

>  <distance_score>  (3499) 
1.339243

>  <ref_mols>  (3499) 
Z0719a,Z1597a

>  <ref_pdb>  (3499) 
Z3093a

>  <HIPPO Compound ID>  (3499) 
149941

>  <name>  (3499) 
CFYNUCKQNOPYRK-UHFFFAOYSA-N-P86-P35-P86-601526

>  <inspiration_score>  (3499) 
None

$$$$
BLKIGMMNHPWOAZ-UHFFFAOYSA-N-P35-P35-P86-601526
     RDKit          3D

 15 15  0  0  0  0  0  0  0  0999 V2000
   -4.3533    3.4938  -14.1354 C   0  0  0  0  0  0  0  0  0  0  0  0
   -5.8482    3.6213  -14.0017 C   0  0  0  0  0  0  0  0  0  0  0  0
   -6.6791    4.2070  -15.1080 C   0  0  0  0  0  0  0  0  0  0  0  0
   -8.0207    4.3334  -14.7543 N   0  0  0  0  0  0  0  0  0  0  0  0
   -8.6800    4.5530  -15.8525 C   0  0  0  0  0  0  0  0  0  0  0  0
   -7.8354    4.6345  -16.9033 N   0  0  0  0  0  0  0  0  0  0  0  0
   -8.2819    4.8709  -18.2441 C   0  0  0  0  0  0  0  0  0  0  0  0
   -6.5323    4.5126  -16.4608 C   0  0  0  0  0  0  0  0  0  0  0  0
   -5.5399    4.6487  -17.4008 N   0  0  0  0  0  0  0  0  0  0  0  0
   -4.0542    5.0682  -17.2441 C   0  0  0  0  0  0  0  0  0  0  0  0
   -3.4273    5.2874  -16.2842 O   0  0  0  0  0  0  0  0  0  0  0  0
   -3.4744    5.1406  -18.6622 C   0  0  0  0  0  0  0  0  0  0  0  0
   -4.0388    6.2742  -19.5281 C   0  0  0  0  0  0  0  0  0  0  0  0
   -3.5441    7.6307  -19.0572 C   0  0  0  0  0  0  0  0  0  0  0  0
   -2.1993    7.6907  -19.2566 F   0  0  0  0  0  0  0  0  0  0  0  0
  1  2  1  0
  2  3  1  0
  3  4  1  0
  4  5  2  0
  5  6  1  0
  6  7  1  0
  6  8  1  0
  8  9  1  0
  9 10  1  0
 10 11  2  0
 10 12  1  0
 12 13  1  0
 13 14  1  0
 14 15  1  0
  8  3  2  0
M  END
>  <energy_score>  (3500) 
-10.949239

>  <alias>  (3500) 
BLKIGMMNHPWOAZ-UHFFFAOYSA-N-P35-P35-P86-601526

>  <HIPPO Pose ID>  (3500) 
78315

>  <smiles>  (3500) 
CCc1ncn(C)c1NC(=O)CCCF

>  <inchikey>  (3500) 
BLKIGMMNHPWOAZ-UHFFFAOYSA-N

>  <distance_score>  (3500) 
1.985815

>  <ref_mols>  (3500) 
Z0719a,Z1597a

>  <ref_pdb>  (3500) 
Z3093a

>  <HIPPO Compound ID>  (3500) 
149943

>  <name>  (3500) 
BLKIGMMNHPWOAZ-UHFFFAOYSA-N-P35-P35-P86-601526

>  <inspiration_score>  (3500) 
None

$$$$
VGMWYRPEKRUGCS-UHFFFAOYSA-N-P35-P35-P86-601526
     RDKit          3D

 15 15  0  0  0  0  0  0  0  0999 V2000
   -5.9539    3.0321  -12.5226 C   0  0  0  0  0  0  0  0  0  0  0  0
   -6.2223    3.0060  -14.0092 C   0  0  0  0  0  0  0  0  0  0  0  0
   -7.3715    3.9422  -14.4053 C   0  0  0  0  0  0  0  0  0  0  0  0
   -7.5199    4.2397  -15.8146 N   0  0  0  0  0  0  0  0  0  0  0  0
   -8.6722    4.1986  -16.5444 C   0  0  0  0  0  0  0  0  0  0  0  0
   -8.4900    4.6775  -17.7569 N   0  0  0  0  0  0  0  0  0  0  0  0
   -7.2014    5.1017  -17.7817 C   0  0  0  0  0  0  0  0  0  0  0  0
   -6.6655    5.7481  -18.8402 N   0  0  0  0  0  0  0  0  0  0  0  0
   -5.2919    6.4552  -18.9999 C   0  0  0  0  0  0  0  0  0  0  0  0
   -4.3833    6.5203  -18.2665 O   0  0  0  0  0  0  0  0  0  0  0  0
   -5.3029    7.1487  -20.3531 C   0  0  0  0  0  0  0  0  0  0  0  0
   -3.9862    7.8433  -20.7001 C   0  0  0  0  0  0  0  0  0  0  0  0
   -2.7176    7.0045  -20.6465 C   0  0  0  0  0  0  0  0  0  0  0  0
   -2.7662    6.0084  -21.5679 F   0  0  0  0  0  0  0  0  0  0  0  0
   -6.5764    4.8449  -16.5932 C   0  0  0  0  0  0  0  0  0  0  0  0
  1  2  1  0
  2  3  1  0
  3  4  1  0
  4  5  1  0
  5  6  2  0
  6  7  1  0
  7  8  1  0
  8  9  1  0
  9 10  2  0
  9 11  1  0
 11 12  1  0
 12 13  1  0
 13 14  1  0
  7 15  2  0
 15  4  1  0
M  END
>  <energy_score>  (3501) 
-30.911476

>  <alias>  (3501) 
VGMWYRPEKRUGCS-UHFFFAOYSA-N-P35-P35-P86-601526

>  <HIPPO Pose ID>  (3501) 
78319

>  <smiles>  (3501) 
CCCn1cnc(NC(=O)CCCF)c1

>  <inchikey>  (3501) 
VGMWYRPEKRUGCS-UHFFFAOYSA-N

>  <distance_score>  (3501) 
1.689426

>  <ref_mols>  (3501) 
Z0719a,Z1597a

>  <ref_pdb>  (3501) 
Z3093a

>  <HIPPO Compound ID>  (3501) 
149945

>  <name>  (3501) 
VGMWYRPEKRUGCS-UHFFFAOYSA-N-P35-P35-P86-601526

>  <inspiration_score>  (3501) 
None

$$$$
WFPOLFMKAQTTNO-UHFFFAOYSA-N-P86-P35-P86-601526
     RDKit          3D

 15 16  0  0  0  0  0  0  0  0999 V2000
   -3.9635    6.9337  -22.1896 C   0  0  0  0  0  0  0  0  0  0  0  0
   -3.0748    6.2501  -21.1638 C   0  0  1  0  0  0  0  0  0  0  0  0
   -1.4470    6.9850  -21.2232 Cl  0  0  0  0  0  0  0  0  0  0  0  0
   -3.6835    6.3757  -19.7614 C   0  0  0  0  0  0  0  0  0  0  0  0
   -3.2545    7.0634  -18.9166 O   0  0  0  0  0  0  0  0  0  0  0  0
   -4.9606    5.4748  -19.7823 N   0  0  0  0  0  0  0  0  0  0  0  0
   -5.8478    5.1884  -18.8039 C   0  0  0  0  0  0  0  0  0  0  0  0
   -6.9785    4.4290  -18.9579 C   0  0  0  0  0  0  0  0  0  0  0  0
   -7.5763    4.4402  -17.7382 N   0  0  0  0  0  0  0  0  0  0  0  0
   -8.7727    3.8835  -17.4504 N   0  0  0  0  0  0  0  0  0  0  0  0
   -9.0737    4.0329  -16.2052 C   0  0  0  0  0  0  0  0  0  0  0  0
   -8.2575    4.6756  -15.1512 C   0  0  0  0  0  0  0  0  0  0  0  0
   -7.1024    5.2230  -15.5322 C   0  0  0  0  0  0  0  0  0  0  0  0
   -6.7357    5.1446  -16.8893 C   0  0  0  0  0  0  0  0  0  0  0  0
   -5.7022    5.6417  -17.5310 N   0  0  0  0  0  0  0  0  0  0  0  0
  2  1  1  6
  2  3  1  0
  2  4  1  0
  4  5  2  0
  4  6  1  0
  6  7  1  0
  7  8  2  0
  8  9  1  0
  9 10  1  0
 10 11  2  0
 11 12  1  0
 12 13  2  0
 13 14  1  0
 14 15  2  0
 15  7  1  0
 14  9  1  0
M  END
>  <energy_score>  (3502) 
-25.203397

>  <alias>  (3502) 
WFPOLFMKAQTTNO-UHFFFAOYSA-N-P86-P35-P86-601526

>  <HIPPO Pose ID>  (3502) 
78328

>  <smiles>  (3502) 
CC(Cl)C(=O)Nc1cn2ncccc2n1

>  <inchikey>  (3502) 
WFPOLFMKAQTTNO-UHFFFAOYSA-N

>  <distance_score>  (3502) 
1.65182

>  <ref_mols>  (3502) 
Z0719a,Z1597a

>  <ref_pdb>  (3502) 
Z3093a

>  <HIPPO Compound ID>  (3502) 
149949

>  <name>  (3502) 
WFPOLFMKAQTTNO-UHFFFAOYSA-N-P86-P35-P86-601526

>  <inspiration_score>  (3502) 
None

$$$$
JSZHJNHWKKPCAL-UHFFFAOYSA-N-P86-P35-P86-601526
     RDKit          3D

 15 16  0  0  0  0  0  0  0  0999 V2000
   -3.6717    7.0624  -21.9307 C   0  0  0  0  0  0  0  0  0  0  0  0
   -2.7740    6.6228  -20.7858 C   0  0  2  0  0  0  0  0  0  0  0  0
   -2.1618    4.9747  -21.0527 Cl  0  0  0  0  0  0  0  0  0  0  0  0
   -3.4919    6.6789  -19.4401 C   0  0  0  0  0  0  0  0  0  0  0  0
   -3.1340    7.3825  -18.5755 O   0  0  0  0  0  0  0  0  0  0  0  0
   -4.7307    5.7390  -19.5289 N   0  0  0  0  0  0  0  0  0  0  0  0
   -5.6624    5.4245  -18.6005 C   0  0  0  0  0  0  0  0  0  0  0  0
   -6.7471    4.6116  -18.8035 C   0  0  0  0  0  0  0  0  0  0  0  0
   -7.3853    4.5879  -17.6007 N   0  0  0  0  0  0  0  0  0  0  0  0
   -8.5736    3.9910  -17.2441 C   0  0  0  0  0  0  0  0  0  0  0  0
   -8.9716    4.0989  -15.9762 C   0  0  0  0  0  0  0  0  0  0  0  0
   -8.0616    4.8266  -15.0608 C   0  0  0  0  0  0  0  0  0  0  0  0
   -6.9656    5.4317  -15.3876 N   0  0  0  0  0  0  0  0  0  0  0  0
   -6.6177    5.3322  -16.7036 C   0  0  0  0  0  0  0  0  0  0  0  0
   -5.6097    5.8992  -17.3302 N   0  0  0  0  0  0  0  0  0  0  0  0
  2  1  1  6
  2  3  1  0
  2  4  1  0
  4  5  2  0
  4  6  1  0
  6  7  1  0
  7  8  2  0
  8  9  1  0
  9 10  1  0
 10 11  2  0
 11 12  1  0
 12 13  2  0
 13 14  1  0
 14 15  2  0
 15  7  1  0
 14  9  1  0
M  END
>  <energy_score>  (3503) 
-23.104894

>  <alias>  (3503) 
JSZHJNHWKKPCAL-UHFFFAOYSA-N-P86-P35-P86-601526

>  <HIPPO Pose ID>  (3503) 
78330

>  <smiles>  (3503) 
CC(Cl)C(=O)Nc1cn2cccnc2n1

>  <inchikey>  (3503) 
JSZHJNHWKKPCAL-UHFFFAOYSA-N

>  <distance_score>  (3503) 
1.738572

>  <ref_mols>  (3503) 
Z0719a,Z1597a

>  <ref_pdb>  (3503) 
Z3093a

>  <HIPPO Compound ID>  (3503) 
149950

>  <name>  (3503) 
JSZHJNHWKKPCAL-UHFFFAOYSA-N-P86-P35-P86-601526

>  <inspiration_score>  (3503) 
None

$$$$
IDTVXUAFKQFCAY-UHFFFAOYSA-N-P86-P35-P86-601526
     RDKit          3D

 15 16  0  0  0  0  0  0  0  0999 V2000
   -4.2963    5.6900  -18.1669 O   0  0  0  0  0  0  0  0  0  0  0  0
   -4.9293    5.4772  -19.1268 C   0  0  0  0  0  0  0  0  0  0  0  0
   -4.3490    5.6071  -20.5240 C   0  0  0  0  0  0  0  0  0  0  0  0
   -4.6109    6.9731  -21.1270 C   0  0  0  0  0  0  0  0  0  0  0  0
   -3.9322    8.0999  -20.3674 C   0  0  0  0  0  0  0  0  0  0  0  0
   -4.2506    9.2737  -20.9822 F   0  0  0  0  0  0  0  0  0  0  0  0
   -6.4079    5.0210  -19.2780 N   0  0  0  0  0  0  0  0  0  0  0  0
   -7.3228    4.6644  -18.3365 C   0  0  0  0  0  0  0  0  0  0  0  0
   -8.6021    4.1593  -18.5042 C   0  0  0  0  0  0  0  0  0  0  0  0
   -9.2346    3.9455  -17.2953 N   0  0  0  0  0  0  0  0  0  0  0  0
   -8.3538    4.3427  -16.4146 C   0  0  0  0  0  0  0  0  0  0  0  0
   -7.1884    4.7278  -16.9989 N   0  0  0  0  0  0  0  0  0  0  0  0
   -6.2283    5.2662  -16.0677 C   0  0  0  0  0  0  0  0  0  0  0  0
   -6.8760    5.0041  -14.7064 C   0  0  0  0  0  0  0  0  0  0  0  0
   -8.3353    4.5767  -14.9647 C   0  0  0  0  0  0  0  0  0  0  0  0
  1  2  2  0
  2  3  1  0
  3  4  1  0
  4  5  1  0
  5  6  1  0
  2  7  1  0
  7  8  1  0
  8  9  2  0
  9 10  1  0
 10 11  2  0
 11 12  1  0
 12 13  1  0
 13 14  1  0
 14 15  1  0
 12  8  1  0
 15 11  1  0
M  END
>  <energy_score>  (3504) 
-25.151599

>  <alias>  (3504) 
IDTVXUAFKQFCAY-UHFFFAOYSA-N-P86-P35-P86-601526

>  <HIPPO Pose ID>  (3504) 
78332

>  <smiles>  (3504) 
O=C(CCCF)Nc1cnc2n1CCC2

>  <inchikey>  (3504) 
IDTVXUAFKQFCAY-UHFFFAOYSA-N

>  <distance_score>  (3504) 
1.480262

>  <ref_mols>  (3504) 
Z0719a,Z1597a

>  <ref_pdb>  (3504) 
Z3093a

>  <HIPPO Compound ID>  (3504) 
149951

>  <name>  (3504) 
IDTVXUAFKQFCAY-UHFFFAOYSA-N-P86-P35-P86-601526

>  <inspiration_score>  (3504) 
None

$$$$
FTFDGEZVGHUZAK-UHFFFAOYSA-N-P35-P35-P86-601526
     RDKit          3D

 15 16  0  0  0  0  0  0  0  0999 V2000
   -8.4539    7.0224  -12.0257 C   0  0  0  0  0  0  0  0  0  0  0  0
   -7.9905    5.6432  -11.7612 C   0  0  0  0  0  0  0  0  0  0  0  0
   -7.9270    5.2081  -10.4609 N   0  0  0  0  0  0  0  0  0  0  0  0
   -7.5211    3.9567  -10.5152 C   0  0  0  0  0  0  0  0  0  0  0  0
   -7.4240    3.0620   -9.3412 C   0  0  0  0  0  0  0  0  0  0  0  0
   -7.1808    3.6113  -11.8066 N   0  0  0  0  0  0  0  0  0  0  0  0
   -6.4559    2.4292  -12.2324 C   0  0  0  0  0  0  0  0  0  0  0  0
   -7.5814    4.6443  -12.6295 C   0  0  0  0  0  0  0  0  0  0  0  0
   -7.5128    4.5930  -13.9982 N   0  0  0  0  0  0  0  0  0  0  0  0
   -7.9541    5.6157  -15.0600 C   0  0  0  0  0  0  0  0  0  0  0  0
   -8.3748    6.6947  -14.9399 O   0  0  0  0  0  0  0  0  0  0  0  0
   -7.6832    5.1165  -16.4506 C   0  0  0  0  0  0  0  0  0  0  0  0
   -9.3213    4.2826  -17.5070 I   0  0  0  0  0  0  0  0  0  0  0  0
   -6.7527    5.9573  -17.3119 C   0  0  0  0  0  0  0  0  0  0  0  0
   -6.3287    4.5995  -16.8533 C   0  0  0  0  0  0  0  0  0  0  0  0
  1  2  1  0
  2  3  1  0
  3  4  2  0
  4  5  1  0
  4  6  1  0
  6  7  1  0
  6  8  1  0
  8  9  1  0
  9 10  1  0
 10 11  2  0
 10 12  1  0
 12 13  1  0
 12 14  1  0
 14 15  1  0
  8  2  2  0
 15 12  1  0
M  END
>  <energy_score>  (3505) 
-16.686535

>  <alias>  (3505) 
FTFDGEZVGHUZAK-UHFFFAOYSA-N-P35-P35-P86-601526

>  <HIPPO Pose ID>  (3505) 
78337

>  <smiles>  (3505) 
Cc1nc(C)n(C)c1NC(=O)C1(I)CC1

>  <inchikey>  (3505) 
FTFDGEZVGHUZAK-UHFFFAOYSA-N

>  <distance_score>  (3505) 
1.525409

>  <ref_mols>  (3505) 
Z0719a,Z1597a

>  <ref_pdb>  (3505) 
Z3093a

>  <HIPPO Compound ID>  (3505) 
149954

>  <name>  (3505) 
FTFDGEZVGHUZAK-UHFFFAOYSA-N-P35-P35-P86-601526

>  <inspiration_score>  (3505) 
None

$$$$
QOJHQWLZXVKFKD-UHFFFAOYSA-N-P35-P35-P86-601526
     RDKit          3D

 15 15  0  0  0  0  0  0  0  0999 V2000
   -4.9642    3.0574  -13.5373 C   0  0  0  0  0  0  0  0  0  0  0  0
   -6.4442    3.0669  -13.9599 C   0  0  0  0  0  0  0  0  0  0  0  0
   -7.2920    3.3322  -12.7208 C   0  0  0  0  0  0  0  0  0  0  0  0
   -6.7542    3.9528  -15.0872 N   0  0  0  0  0  0  0  0  0  0  0  0
   -8.0045    4.3426  -15.5071 C   0  0  0  0  0  0  0  0  0  0  0  0
   -7.9564    5.0627  -16.6094 N   0  0  0  0  0  0  0  0  0  0  0  0
   -6.6452    5.0867  -16.9545 C   0  0  0  0  0  0  0  0  0  0  0  0
   -6.2214    5.6662  -18.1020 N   0  0  0  0  0  0  0  0  0  0  0  0
   -4.7987    5.7535  -18.7232 C   0  0  0  0  0  0  0  0  0  0  0  0
   -3.7633    5.4052  -18.3007 O   0  0  0  0  0  0  0  0  0  0  0  0
   -4.9128    6.4481  -20.0654 C   0  0  0  0  0  0  0  0  0  0  0  0
   -4.5633    7.9092  -19.9567 C   0  0  0  0  0  0  0  0  0  0  0  0
   -5.6804    8.6270  -19.4076 O   0  0  0  0  0  0  0  0  0  0  0  0
   -5.2572    9.9980  -19.1579 N   0  0  0  0  0  0  0  0  0  0  0  0
   -5.8788    4.4446  -16.0212 C   0  0  0  0  0  0  0  0  0  0  0  0
  1  2  1  0
  2  3  1  0
  2  4  1  0
  4  5  1  0
  5  6  2  0
  6  7  1  0
  7  8  1  0
  8  9  1  0
  9 10  2  0
  9 11  1  0
 11 12  1  0
 12 13  1  0
 13 14  1  0
  7 15  2  0
 15  4  1  0
M  END
>  <energy_score>  (3506) 
-25.159832

>  <alias>  (3506) 
QOJHQWLZXVKFKD-UHFFFAOYSA-N-P35-P35-P86-601526

>  <HIPPO Pose ID>  (3506) 
78339

>  <smiles>  (3506) 
CC(C)n1cnc(NC(=O)CCON)c1

>  <inchikey>  (3506) 
QOJHQWLZXVKFKD-UHFFFAOYSA-N

>  <distance_score>  (3506) 
1.897278

>  <ref_mols>  (3506) 
Z0719a,Z1597a

>  <ref_pdb>  (3506) 
Z3093a

>  <HIPPO Compound ID>  (3506) 
149955

>  <name>  (3506) 
QOJHQWLZXVKFKD-UHFFFAOYSA-N-P35-P35-P86-601526

>  <inspiration_score>  (3506) 
None

$$$$
ZRFMXXSKAISMCV-UHFFFAOYSA-N-P35-P35-P86-601526
     RDKit          3D

 15 15  0  0  0  0  0  0  0  0999 V2000
   -3.8046    7.3835  -21.5382 N   0  0  0  0  0  0  0  0  0  0  0  0
   -3.2870    6.2934  -20.7253 O   0  0  0  0  0  0  0  0  0  0  0  0
   -3.9534    6.3369  -19.4537 C   0  0  0  0  0  0  0  0  0  0  0  0
   -3.5886    5.0697  -18.6948 C   0  0  0  0  0  0  0  0  0  0  0  0
   -4.2171    4.9139  -17.3094 C   0  0  0  0  0  0  0  0  0  0  0  0
   -3.5830    4.8838  -16.3303 O   0  0  0  0  0  0  0  0  0  0  0  0
   -5.7372    4.7150  -17.5272 N   0  0  0  0  0  0  0  0  0  0  0  0
   -6.7444    4.5423  -16.6277 C   0  0  0  0  0  0  0  0  0  0  0  0
   -7.9582    4.8887  -17.1750 N   0  0  0  0  0  0  0  0  0  0  0  0
   -8.8764    4.4973  -16.3310 C   0  0  0  0  0  0  0  0  0  0  0  0
   -8.3114    3.9575  -15.2219 N   0  0  0  0  0  0  0  0  0  0  0  0
   -6.9397    3.9998  -15.3750 C   0  0  0  0  0  0  0  0  0  0  0  0
   -6.1633    3.3268  -14.3813 N   0  0  0  0  0  0  0  0  0  0  0  0
   -6.7925    2.5647  -13.6280 O   0  0  0  0  0  0  0  0  0  0  0  0
   -4.9486    3.5201  -14.3247 O   0  0  0  0  0  0  0  0  0  0  0  0
  1  2  1  0
  2  3  1  0
  3  4  1  0
  4  5  1  0
  5  6  2  0
  5  7  1  0
  7  8  1  0
  8  9  1  0
  9 10  2  0
 10 11  1  0
 11 12  1  0
 12 13  1  0
 13 14  2  0
 13 15  1  0
 12  8  2  0
M  CHG  2  13   1  15  -1
M  END
>  <energy_score>  (3507) 
-10.754255

>  <alias>  (3507) 
ZRFMXXSKAISMCV-UHFFFAOYSA-N-P35-P35-P86-601526

>  <HIPPO Pose ID>  (3507) 
78347

>  <smiles>  (3507) 
NOCCC(=O)Nc1nc[nH]c1[N+](=O)[O-]

>  <inchikey>  (3507) 
ZRFMXXSKAISMCV-UHFFFAOYSA-N

>  <distance_score>  (3507) 
1.868698

>  <ref_mols>  (3507) 
Z0719a,Z1597a

>  <ref_pdb>  (3507) 
Z3093a

>  <HIPPO Compound ID>  (3507) 
149959

>  <name>  (3507) 
ZRFMXXSKAISMCV-UHFFFAOYSA-N-P35-P35-P86-601526

>  <inspiration_score>  (3507) 
None

$$$$
VHDFUYDTIUPRJC-UHFFFAOYSA-N-P35-P35-P86-601526
     RDKit          3D

 15 15  0  0  0  0  0  0  0  0999 V2000
   -3.7667    7.6850  -21.5849 C   0  0  0  0  0  0  0  0  0  0  0  0
   -4.4682    6.8476  -20.5238 C   0  0  0  0  0  0  0  0  0  0  0  0
   -4.5888    7.5647  -19.1850 C   0  0  1  0  0  0  0  0  0  0  0  0
   -5.7897    8.8972  -19.2475 Cl  0  0  0  0  0  0  0  0  0  0  0  0
   -4.9452    6.6491  -18.0000 C   0  0  0  0  0  0  0  0  0  0  0  0
   -4.2490    6.5972  -17.0607 O   0  0  0  0  0  0  0  0  0  0  0  0
   -6.3270    5.9874  -18.2677 N   0  0  0  0  0  0  0  0  0  0  0  0
   -7.1248    5.2534  -17.4523 C   0  0  0  0  0  0  0  0  0  0  0  0
   -8.4103    5.0312  -17.8514 N   0  0  0  0  0  0  0  0  0  0  0  0
   -9.0292    4.5207  -16.8102 C   0  0  0  0  0  0  0  0  0  0  0  0
   -8.1845    4.4386  -15.7529 N   0  0  0  0  0  0  0  0  0  0  0  0
   -8.5186    4.2555  -14.3631 C   0  0  0  0  0  0  0  0  0  0  0  0
   -6.9259    4.7501  -16.1925 C   0  0  0  0  0  0  0  0  0  0  0  0
   -5.7890    4.5767  -15.3776 C   0  0  0  0  0  0  0  0  0  0  0  0
   -4.9522    4.3251  -14.6156 N   0  0  0  0  0  0  0  0  0  0  0  0
  1  2  1  0
  2  3  1  0
  3  4  1  6
  3  5  1  0
  5  6  2  0
  5  7  1  0
  7  8  1  0
  8  9  1  0
  9 10  2  0
 10 11  1  0
 11 12  1  0
 11 13  1  0
 13 14  1  0
 14 15  3  0
 13  8  2  0
M  END
>  <energy_score>  (3508) 
-3.73181

>  <alias>  (3508) 
VHDFUYDTIUPRJC-UHFFFAOYSA-N-P35-P35-P86-601526

>  <HIPPO Pose ID>  (3508) 
78357

>  <smiles>  (3508) 
CCC(Cl)C(=O)Nc1ncn(C)c1C#N

>  <inchikey>  (3508) 
VHDFUYDTIUPRJC-UHFFFAOYSA-N

>  <distance_score>  (3508) 
1.537854

>  <ref_mols>  (3508) 
Z0719a,Z1597a

>  <ref_pdb>  (3508) 
Z3093a

>  <HIPPO Compound ID>  (3508) 
149964

>  <name>  (3508) 
VHDFUYDTIUPRJC-UHFFFAOYSA-N-P35-P35-P86-601526

>  <inspiration_score>  (3508) 
None

$$$$
BECAXXYKRMFBLC-UHFFFAOYSA-N-P35-P35-P86-601526
     RDKit          3D

 15 15  0  0  0  0  0  0  0  0999 V2000
   -5.7624    2.6877  -12.9005 C   0  0  0  0  0  0  0  0  0  0  0  0
   -5.7588    3.6401  -14.0778 C   0  0  0  0  0  0  0  0  0  0  0  0
   -7.1869    3.8737  -14.6104 C   0  0  0  0  0  0  0  0  0  0  0  0
   -7.3152    4.3713  -15.9636 N   0  0  0  0  0  0  0  0  0  0  0  0
   -8.4743    4.4231  -16.6862 C   0  0  0  0  0  0  0  0  0  0  0  0
   -8.2688    4.9482  -17.8759 N   0  0  0  0  0  0  0  0  0  0  0  0
   -6.9453    5.2447  -17.9134 C   0  0  0  0  0  0  0  0  0  0  0  0
   -6.3541    5.8421  -18.9712 N   0  0  0  0  0  0  0  0  0  0  0  0
   -4.8854    6.3396  -19.1648 C   0  0  0  0  0  0  0  0  0  0  0  0
   -3.9896    6.3756  -18.4083 O   0  0  0  0  0  0  0  0  0  0  0  0
   -4.7691    6.9301  -20.5772 C   0  0  2  0  0  0  0  0  0  0  0  0
   -3.1107    6.6215  -21.2040 Cl  0  0  0  0  0  0  0  0  0  0  0  0
   -5.0294    8.4242  -20.5269 C   0  0  0  0  0  0  0  0  0  0  0  0
   -5.1451    9.0665  -21.9037 C   0  0  0  0  0  0  0  0  0  0  0  0
   -6.3336    4.9073  -16.7394 C   0  0  0  0  0  0  0  0  0  0  0  0
  1  2  1  0
  2  3  1  0
  3  4  1  0
  4  5  1  0
  5  6  2  0
  6  7  1  0
  7  8  1  0
  8  9  1  0
  9 10  2  0
  9 11  1  0
 11 12  1  1
 11 13  1  0
 13 14  1  0
  7 15  2  0
 15  4  1  0
M  END
>  <energy_score>  (3509) 
-2.581759

>  <alias>  (3509) 
BECAXXYKRMFBLC-UHFFFAOYSA-N-P35-P35-P86-601526

>  <HIPPO Pose ID>  (3509) 
78359

>  <smiles>  (3509) 
CCCn1cnc(NC(=O)C(Cl)CC)c1

>  <inchikey>  (3509) 
BECAXXYKRMFBLC-UHFFFAOYSA-N

>  <distance_score>  (3509) 
1.765601

>  <ref_mols>  (3509) 
Z0719a,Z1597a

>  <ref_pdb>  (3509) 
Z3093a

>  <HIPPO Compound ID>  (3509) 
149965

>  <name>  (3509) 
BECAXXYKRMFBLC-UHFFFAOYSA-N-P35-P35-P86-601526

>  <inspiration_score>  (3509) 
None

$$$$
WGPDRTOPWHHKHK-UHFFFAOYSA-N-P86-P35-P86-601526
     RDKit          3D

 15 16  0  0  0  0  0  0  0  0999 V2000
   -4.4049    7.1352  -22.4850 C   0  0  0  0  0  0  0  0  0  0  0  0
   -4.6124    6.9716  -20.9858 C   0  0  0  0  0  0  0  0  0  0  0  0
   -4.3826    5.5438  -20.5028 C   0  0  1  0  0  0  0  0  0  0  0  0
   -2.6400    5.1301  -20.5429 Cl  0  0  0  0  0  0  0  0  0  0  0  0
   -4.9246    5.3491  -19.0739 C   0  0  0  0  0  0  0  0  0  0  0  0
   -4.2541    5.3968  -18.1141 O   0  0  0  0  0  0  0  0  0  0  0  0
   -6.4537    5.0535  -19.2283 N   0  0  0  0  0  0  0  0  0  0  0  0
   -7.3791    4.6884  -18.3025 C   0  0  0  0  0  0  0  0  0  0  0  0
   -8.6573    4.1851  -18.4782 C   0  0  0  0  0  0  0  0  0  0  0  0
   -9.2770    3.9245  -17.2710 N   0  0  0  0  0  0  0  0  0  0  0  0
   -8.3922    4.2963  -16.3836 C   0  0  0  0  0  0  0  0  0  0  0  0
   -7.2433    4.7335  -16.9655 N   0  0  0  0  0  0  0  0  0  0  0  0
   -6.2921    5.2707  -16.0215 C   0  0  0  0  0  0  0  0  0  0  0  0
   -7.1248    5.3795  -14.7408 C   0  0  0  0  0  0  0  0  0  0  0  0
   -8.3346    4.4374  -14.9216 C   0  0  0  0  0  0  0  0  0  0  0  0
  1  2  1  0
  2  3  1  0
  3  4  1  1
  3  5  1  0
  5  6  2  0
  5  7  1  0
  7  8  1  0
  8  9  2  0
  9 10  1  0
 10 11  2  0
 11 12  1  0
 12 13  1  0
 13 14  1  0
 14 15  1  0
 12  8  1  0
 15 11  1  0
M  END
>  <energy_score>  (3510) 
-32.701613

>  <alias>  (3510) 
WGPDRTOPWHHKHK-UHFFFAOYSA-N-P86-P35-P86-601526

>  <HIPPO Pose ID>  (3510) 
78370

>  <smiles>  (3510) 
CCC(Cl)C(=O)Nc1cnc2n1CCC2

>  <inchikey>  (3510) 
WGPDRTOPWHHKHK-UHFFFAOYSA-N

>  <distance_score>  (3510) 
1.100239

>  <ref_mols>  (3510) 
Z0719a,Z1597a

>  <ref_pdb>  (3510) 
Z3093a

>  <HIPPO Compound ID>  (3510) 
149970

>  <name>  (3510) 
WGPDRTOPWHHKHK-UHFFFAOYSA-N-P86-P35-P86-601526

>  <inspiration_score>  (3510) 
None

$$$$
HGFJDHARHCIYTK-UHFFFAOYSA-N-P86-P35-P86-601527
     RDKit          3D

 15 15  0  0  0  0  0  0  0  0999 V2000
   -6.0571    3.4248  -12.4681 C   0  0  0  0  0  0  0  0  0  0  0  0
   -6.0477    4.2323  -13.7502 C   0  0  0  0  0  0  0  0  0  0  0  0
   -7.4297    4.2737  -14.4368 C   0  0  0  0  0  0  0  0  0  0  0  0
   -7.4435    4.5182  -15.8660 N   0  0  0  0  0  0  0  0  0  0  0  0
   -8.4677    4.2188  -16.7198 C   0  0  0  0  0  0  0  0  0  0  0  0
   -8.1915    4.6042  -17.9491 N   0  0  0  0  0  0  0  0  0  0  0  0
   -6.9578    5.1646  -17.8798 C   0  0  0  0  0  0  0  0  0  0  0  0
   -6.3544    5.7411  -18.9438 N   0  0  0  0  0  0  0  0  0  0  0  0
   -5.0286    6.5514  -19.0371 C   0  0  0  0  0  0  0  0  0  0  0  0
   -4.2175    6.7774  -18.2216 O   0  0  0  0  0  0  0  0  0  0  0  0
   -4.9222    7.1843  -20.4328 C   0  0  1  0  0  0  0  0  0  0  0  0
   -3.9737    8.2627  -20.3834 O   0  0  0  0  0  0  0  0  0  0  0  0
   -4.5098    6.1729  -21.4766 C   0  0  0  0  0  0  0  0  0  0  0  0
   -4.8328    6.9325  -23.2625 Br  0  0  0  0  0  0  0  0  0  0  0  0
   -6.4761    5.1342  -16.6017 C   0  0  0  0  0  0  0  0  0  0  0  0
  1  2  1  0
  2  3  1  0
  3  4  1  0
  4  5  1  0
  5  6  2  0
  6  7  1  0
  7  8  1  0
  8  9  1  0
  9 10  2  0
  9 11  1  0
 11 12  1  1
 11 13  1  0
 13 14  1  0
  7 15  2  0
 15  4  1  0
M  END
>  <energy_score>  (3511) 
-43.12872

>  <alias>  (3511) 
HGFJDHARHCIYTK-UHFFFAOYSA-N-P86-P35-P86-601527

>  <HIPPO Pose ID>  (3511) 
78384

>  <smiles>  (3511) 
CCCn1cnc(NC(=O)C(O)CBr)c1

>  <inchikey>  (3511) 
HGFJDHARHCIYTK-UHFFFAOYSA-N

>  <distance_score>  (3511) 
1.720304

>  <ref_mols>  (3511) 
Z0719a,Z1597a

>  <ref_pdb>  (3511) 
Z0719a

>  <HIPPO Compound ID>  (3511) 
149977

>  <name>  (3511) 
HGFJDHARHCIYTK-UHFFFAOYSA-N-P86-P35-P86-601527

>  <inspiration_score>  (3511) 
None

$$$$
OBCVJPANFOZPQK-UHFFFAOYSA-N-P35-P35-P86-601527
     RDKit          3D

 15 15  0  0  0  0  0  0  0  0999 V2000
   -7.2226    3.0749  -12.6198 C   0  0  0  0  0  0  0  0  0  0  0  0
   -6.3966    2.9659  -13.8988 C   0  0  0  0  0  0  0  0  0  0  0  0
   -4.9088    3.0328  -13.5142 C   0  0  0  0  0  0  0  0  0  0  0  0
   -6.7797    3.9108  -14.9518 N   0  0  0  0  0  0  0  0  0  0  0  0
   -8.0095    4.4938  -15.1330 C   0  0  0  0  0  0  0  0  0  0  0  0
   -8.0046    5.3545  -16.1288 N   0  0  0  0  0  0  0  0  0  0  0  0
   -6.7737    5.2381  -16.6863 C   0  0  0  0  0  0  0  0  0  0  0  0
   -6.4322    5.9847  -17.7587 N   0  0  0  0  0  0  0  0  0  0  0  0
   -5.1167    6.0149  -18.5922 C   0  0  0  0  0  0  0  0  0  0  0  0
   -4.1599    5.3440  -18.5238 O   0  0  0  0  0  0  0  0  0  0  0  0
   -5.2654    7.2395  -19.5244 C   0  0  2  0  0  0  0  0  0  0  0  0
   -6.6262    7.5704  -19.7966 O   0  0  0  0  0  0  0  0  0  0  0  0
   -4.4750    7.0809  -20.8140 C   0  0  0  0  0  0  0  0  0  0  0  0
   -3.7574    8.8210  -21.3794 Br  0  0  0  0  0  0  0  0  0  0  0  0
   -6.0010    4.3477  -15.9961 C   0  0  0  0  0  0  0  0  0  0  0  0
  1  2  1  0
  2  3  1  0
  2  4  1  0
  4  5  1  0
  5  6  2  0
  6  7  1  0
  7  8  1  0
  8  9  1  0
  9 10  2  0
  9 11  1  0
 11 12  1  6
 11 13  1  0
 13 14  1  0
  7 15  2  0
 15  4  1  0
M  END
>  <energy_score>  (3512) 
-36.682823

>  <alias>  (3512) 
OBCVJPANFOZPQK-UHFFFAOYSA-N-P35-P35-P86-601527

>  <HIPPO Pose ID>  (3512) 
78387

>  <smiles>  (3512) 
CC(C)n1cnc(NC(=O)C(O)CBr)c1

>  <inchikey>  (3512) 
OBCVJPANFOZPQK-UHFFFAOYSA-N

>  <distance_score>  (3512) 
1.922305

>  <ref_mols>  (3512) 
Z0719a,Z1597a

>  <ref_pdb>  (3512) 
Z0719a

>  <HIPPO Compound ID>  (3512) 
149979

>  <name>  (3512) 
OBCVJPANFOZPQK-UHFFFAOYSA-N-P35-P35-P86-601527

>  <inspiration_score>  (3512) 
None

$$$$
QBSLOXUUPVTFKK-UHFFFAOYSA-N-P86-P35-P86-601527
     RDKit          3D

 15 16  0  0  0  0  0  0  0  0999 V2000
   -4.2502    5.7128  -18.1762 O   0  0  0  0  0  0  0  0  0  0  0  0
   -4.8636    5.5171  -19.1535 C   0  0  0  0  0  0  0  0  0  0  0  0
   -6.3067    4.9698  -19.3450 N   0  0  0  0  0  0  0  0  0  0  0  0
   -7.2656    4.6600  -18.4257 C   0  0  0  0  0  0  0  0  0  0  0  0
   -8.5454    4.1640  -18.6253 C   0  0  0  0  0  0  0  0  0  0  0  0
   -9.2072    3.9355  -17.4333 N   0  0  0  0  0  0  0  0  0  0  0  0
   -8.3435    4.3142  -16.5290 C   0  0  0  0  0  0  0  0  0  0  0  0
   -7.1808    4.7505  -17.0854 N   0  0  0  0  0  0  0  0  0  0  0  0
   -6.2486    5.2770  -16.1187 C   0  0  0  0  0  0  0  0  0  0  0  0
   -7.0890    5.3441  -14.8393 C   0  0  0  0  0  0  0  0  0  0  0  0
   -8.3204    4.4427  -15.0653 C   0  0  0  0  0  0  0  0  0  0  0  0
   -4.2648    5.6846  -20.5701 C   0  0  1  0  0  0  0  0  0  0  0  0
   -5.1889    5.4029  -21.6144 O   0  0  0  0  0  0  0  0  0  0  0  0
   -3.7521    7.0998  -20.7320 C   0  0  0  0  0  0  0  0  0  0  0  0
   -2.5935    7.2193  -22.3093 Br  0  0  0  0  0  0  0  0  0  0  0  0
  1  2  2  0
  2  3  1  0
  3  4  1  0
  4  5  2  0
  5  6  1  0
  6  7  2  0
  7  8  1  0
  8  9  1  0
  9 10  1  0
 10 11  1  0
  2 12  1  0
 12 13  1  6
 12 14  1  0
 14 15  1  0
  8  4  1  0
 11  7  1  0
M  END
>  <energy_score>  (3513) 
-41.865817

>  <alias>  (3513) 
QBSLOXUUPVTFKK-UHFFFAOYSA-N-P86-P35-P86-601527

>  <HIPPO Pose ID>  (3513) 
78394

>  <smiles>  (3513) 
O=C(Nc1cnc2n1CCC2)C(O)CBr

>  <inchikey>  (3513) 
QBSLOXUUPVTFKK-UHFFFAOYSA-N

>  <distance_score>  (3513) 
1.144465

>  <ref_mols>  (3513) 
Z0719a,Z1597a

>  <ref_pdb>  (3513) 
Z0719a

>  <HIPPO Compound ID>  (3513) 
149982

>  <name>  (3513) 
QBSLOXUUPVTFKK-UHFFFAOYSA-N-P86-P35-P86-601527

>  <inspiration_score>  (3513) 
None

$$$$
ABEGXYAEHRBDCM-UHFFFAOYSA-N-P35-P35-P86-601527
     RDKit          3D

 15 15  0  0  0  0  0  0  0  0999 V2000
   -9.0890    4.1191  -18.9296 C   0  0  0  0  0  0  0  0  0  0  0  0
   -8.3590    4.4613  -17.7063 C   0  0  0  0  0  0  0  0  0  0  0  0
   -8.8568    4.0350  -16.5025 N   0  0  0  0  0  0  0  0  0  0  0  0
   -7.9782    4.4207  -15.6059 C   0  0  0  0  0  0  0  0  0  0  0  0
   -7.9718    4.0483  -14.1714 C   0  0  0  0  0  0  0  0  0  0  0  0
   -7.0237    5.2212  -16.1881 N   0  0  0  0  0  0  0  0  0  0  0  0
   -6.1598    6.0881  -15.4479 C   0  0  0  0  0  0  0  0  0  0  0  0
   -7.1482    5.1069  -17.5465 C   0  0  0  0  0  0  0  0  0  0  0  0
   -6.2633    5.4912  -18.5187 N   0  0  0  0  0  0  0  0  0  0  0  0
   -4.8401    6.1248  -18.4016 C   0  0  0  0  0  0  0  0  0  0  0  0
   -4.2434    6.4841  -17.4577 O   0  0  0  0  0  0  0  0  0  0  0  0
   -4.1970    6.1416  -19.8041 C   0  0  2  0  0  0  0  0  0  0  0  0
   -2.7935    6.4274  -19.7546 O   0  0  0  0  0  0  0  0  0  0  0  0
   -4.8681    7.0800  -20.7903 C   0  0  0  0  0  0  0  0  0  0  0  0
   -4.9105    8.9234  -20.1272 Br  0  0  0  0  0  0  0  0  0  0  0  0
  1  2  1  0
  2  3  1  0
  3  4  2  0
  4  5  1  0
  4  6  1  0
  6  7  1  0
  6  8  1  0
  8  9  1  0
  9 10  1  0
 10 11  2  0
 10 12  1  0
 12 13  1  1
 12 14  1  0
 14 15  1  0
  8  2  2  0
M  END
>  <energy_score>  (3514) 
-29.7673

>  <alias>  (3514) 
ABEGXYAEHRBDCM-UHFFFAOYSA-N-P35-P35-P86-601527

>  <HIPPO Pose ID>  (3514) 
78395

>  <smiles>  (3514) 
Cc1nc(C)n(C)c1NC(=O)C(O)CBr

>  <inchikey>  (3514) 
ABEGXYAEHRBDCM-UHFFFAOYSA-N

>  <distance_score>  (3514) 
1.35473

>  <ref_mols>  (3514) 
Z0719a,Z1597a

>  <ref_pdb>  (3514) 
Z0719a

>  <HIPPO Compound ID>  (3514) 
149983

>  <name>  (3514) 
ABEGXYAEHRBDCM-UHFFFAOYSA-N-P35-P35-P86-601527

>  <inspiration_score>  (3514) 
None

$$$$
JTNRXUXSRQKBDY-UHFFFAOYSA-N-P35-P35-P86-601527
     RDKit          3D

 15 15  0  0  0  0  0  0  0  0999 V2000
   -3.7469    4.4723  -16.9837 O   0  0  0  0  0  0  0  0  0  0  0  0
   -4.5233    4.8812  -17.7520 C   0  0  0  0  0  0  0  0  0  0  0  0
   -6.0647    4.9546  -17.6757 N   0  0  0  0  0  0  0  0  0  0  0  0
   -6.9136    4.6462  -16.6620 C   0  0  0  0  0  0  0  0  0  0  0  0
   -8.1880    4.9920  -17.0437 N   0  0  0  0  0  0  0  0  0  0  0  0
   -8.9969    4.4319  -16.1901 C   0  0  0  0  0  0  0  0  0  0  0  0
   -8.3044    3.8668  -15.1744 N   0  0  0  0  0  0  0  0  0  0  0  0
   -6.9582    4.0157  -15.4374 C   0  0  0  0  0  0  0  0  0  0  0  0
   -6.0690    3.4049  -14.5043 N   0  0  0  0  0  0  0  0  0  0  0  0
   -6.5710    2.5402  -13.7641 O   0  0  0  0  0  0  0  0  0  0  0  0
   -4.8964    3.7783  -14.4533 O   0  0  0  0  0  0  0  0  0  0  0  0
   -4.1923    5.3982  -19.1891 C   0  0  1  0  0  0  0  0  0  0  0  0
   -5.2946    6.0387  -19.8374 O   0  0  0  0  0  0  0  0  0  0  0  0
   -3.0356    6.3735  -19.1683 C   0  0  0  0  0  0  0  0  0  0  0  0
   -2.1181    6.4005  -20.8967 Br  0  0  0  0  0  0  0  0  0  0  0  0
  1  2  2  0
  2  3  1  0
  3  4  1  0
  4  5  1  0
  5  6  2  0
  6  7  1  0
  7  8  1  0
  8  9  1  0
  9 10  2  0
  9 11  1  0
  2 12  1  0
 12 13  1  1
 12 14  1  0
 14 15  1  0
  8  4  2  0
M  CHG  2   9   1  11  -1
M  END
>  <energy_score>  (3515) 
-12.390309

>  <alias>  (3515) 
JTNRXUXSRQKBDY-UHFFFAOYSA-N-P35-P35-P86-601527

>  <HIPPO Pose ID>  (3515) 
78397

>  <smiles>  (3515) 
O=C(Nc1nc[nH]c1[N+](=O)[O-])C(O)CBr

>  <inchikey>  (3515) 
JTNRXUXSRQKBDY-UHFFFAOYSA-N

>  <distance_score>  (3515) 
1.908632

>  <ref_mols>  (3515) 
Z0719a,Z1597a

>  <ref_pdb>  (3515) 
Z0719a

>  <HIPPO Compound ID>  (3515) 
149984

>  <name>  (3515) 
JTNRXUXSRQKBDY-UHFFFAOYSA-N-P35-P35-P86-601527

>  <inspiration_score>  (3515) 
None

$$$$
OOJKNUDAFOWUIT-UHFFFAOYSA-N-P86-P35-P86-601527
     RDKit          3D

 15 16  0  0  0  0  0  0  0  0999 V2000
   -3.7857    6.9477  -19.3754 O   0  0  0  0  0  0  0  0  0  0  0  0
   -4.5734    6.4292  -20.0650 C   0  0  0  0  0  0  0  0  0  0  0  0
   -4.3842    6.3165  -21.5597 C   0  0  0  0  0  0  0  0  0  0  0  0
   -3.8122    7.5973  -22.1142 C   0  0  0  0  0  0  0  0  0  0  0  0
   -5.0858    8.8362  -22.3060 Cl  0  0  0  0  0  0  0  0  0  0  0  0
   -5.8758    5.6686  -19.7074 N   0  0  0  0  0  0  0  0  0  0  0  0
   -6.3910    5.3311  -18.5085 C   0  0  0  0  0  0  0  0  0  0  0  0
   -7.5811    4.6854  -18.2872 C   0  0  0  0  0  0  0  0  0  0  0  0
   -7.6835    4.6386  -16.9259 N   0  0  0  0  0  0  0  0  0  0  0  0
   -8.7264    4.2285  -16.1182 C   0  0  0  0  0  0  0  0  0  0  0  0
   -8.5866    4.3435  -14.7924 C   0  0  0  0  0  0  0  0  0  0  0  0
   -7.2780    4.8480  -14.3187 C   0  0  0  0  0  0  0  0  0  0  0  0
   -6.3029    5.2647  -15.0551 N   0  0  0  0  0  0  0  0  0  0  0  0
   -6.5141    5.1898  -16.3984 C   0  0  0  0  0  0  0  0  0  0  0  0
   -5.7442    5.6376  -17.3598 N   0  0  0  0  0  0  0  0  0  0  0  0
  1  2  2  0
  2  3  1  0
  3  4  1  0
  4  5  1  0
  2  6  1  0
  6  7  1  0
  7  8  2  0
  8  9  1  0
  9 10  1  0
 10 11  2  0
 11 12  1  0
 12 13  2  0
 13 14  1  0
 14 15  2  0
 15  7  1  0
 14  9  1  0
M  END
>  <energy_score>  (3516) 
-14.599099

>  <alias>  (3516) 
OOJKNUDAFOWUIT-UHFFFAOYSA-N-P86-P35-P86-601527

>  <HIPPO Pose ID>  (3516) 
78420

>  <smiles>  (3516) 
O=C(CCCl)Nc1cn2cccnc2n1

>  <inchikey>  (3516) 
OOJKNUDAFOWUIT-UHFFFAOYSA-N

>  <distance_score>  (3516) 
1.53836

>  <ref_mols>  (3516) 
Z0719a,Z1597a

>  <ref_pdb>  (3516) 
Z0719a

>  <HIPPO Compound ID>  (3516) 
149995

>  <name>  (3516) 
OOJKNUDAFOWUIT-UHFFFAOYSA-N-P86-P35-P86-601527

>  <inspiration_score>  (3516) 
None

$$$$
VROFNQNXNVBHSZ-UHFFFAOYSA-N-P35-P35-P86-601527
     RDKit          3D

 15 15  0  0  0  0  0  0  0  0999 V2000
   -6.0334    4.6468  -13.1838 C   0  0  0  0  0  0  0  0  0  0  0  0
   -6.8877    4.8781  -14.3001 O   0  0  0  0  0  0  0  0  0  0  0  0
   -6.3328    4.5454  -15.5069 C   0  0  0  0  0  0  0  0  0  0  0  0
   -5.1819    4.1373  -15.6363 O   0  0  0  0  0  0  0  0  0  0  0  0
   -7.2933    4.6824  -16.6015 C   0  0  0  0  0  0  0  0  0  0  0  0
   -8.6563    4.4536  -16.4046 N   0  0  0  0  0  0  0  0  0  0  0  0
   -9.2118    4.5239  -17.5860 C   0  0  0  0  0  0  0  0  0  0  0  0
   -8.2840    4.7810  -18.5506 N   0  0  0  0  0  0  0  0  0  0  0  0
   -7.0609    4.9278  -17.9479 C   0  0  0  0  0  0  0  0  0  0  0  0
   -5.9741    5.2632  -18.7048 N   0  0  0  0  0  0  0  0  0  0  0  0
   -4.5893    5.8318  -18.2858 C   0  0  0  0  0  0  0  0  0  0  0  0
   -4.1957    6.1716  -17.2397 O   0  0  0  0  0  0  0  0  0  0  0  0
   -3.7084    5.8419  -19.5183 C   0  0  0  0  0  0  0  0  0  0  0  0
   -4.0924    6.9664  -20.4566 C   0  0  0  0  0  0  0  0  0  0  0  0
   -2.9246    7.0513  -21.8013 Cl  0  0  0  0  0  0  0  0  0  0  0  0
  1  2  1  0
  2  3  1  0
  3  4  2  0
  3  5  1  0
  5  6  1  0
  6  7  2  0
  7  8  1  0
  8  9  1  0
  9 10  1  0
 10 11  1  0
 11 12  2  0
 11 13  1  0
 13 14  1  0
 14 15  1  0
  9  5  2  0
M  END
>  <energy_score>  (3517) 
-14.943488

>  <alias>  (3517) 
VROFNQNXNVBHSZ-UHFFFAOYSA-N-P35-P35-P86-601527

>  <HIPPO Pose ID>  (3517) 
78421

>  <smiles>  (3517) 
COC(=O)c1nc[nH]c1NC(=O)CCCl

>  <inchikey>  (3517) 
VROFNQNXNVBHSZ-UHFFFAOYSA-N

>  <distance_score>  (3517) 
1.936498

>  <ref_mols>  (3517) 
Z0719a,Z1597a

>  <ref_pdb>  (3517) 
Z0719a

>  <HIPPO Compound ID>  (3517) 
149996

>  <name>  (3517) 
VROFNQNXNVBHSZ-UHFFFAOYSA-N-P35-P35-P86-601527

>  <inspiration_score>  (3517) 
None

$$$$
JSWAUJLUTPMQPR-UHFFFAOYSA-N-P35-P35-P86-601527
     RDKit          3D

 15 15  0  0  0  0  0  0  0  0999 V2000
   -5.9106    2.7045  -12.7477 C   0  0  0  0  0  0  0  0  0  0  0  0
   -5.7940    3.5817  -13.9752 C   0  0  0  0  0  0  0  0  0  0  0  0
   -7.1759    3.8301  -14.6144 C   0  0  0  0  0  0  0  0  0  0  0  0
   -7.1901    4.3594  -15.9624 N   0  0  0  0  0  0  0  0  0  0  0  0
   -8.3074    4.6214  -16.7047 C   0  0  0  0  0  0  0  0  0  0  0  0
   -7.9897    5.1650  -17.8625 N   0  0  0  0  0  0  0  0  0  0  0  0
   -6.6326    5.2104  -17.8811 C   0  0  0  0  0  0  0  0  0  0  0  0
   -5.9216    5.7096  -18.9182 N   0  0  0  0  0  0  0  0  0  0  0  0
   -4.3841    5.8835  -19.0998 C   0  0  0  0  0  0  0  0  0  0  0  0
   -3.5034    5.6926  -18.3485 O   0  0  0  0  0  0  0  0  0  0  0  0
   -4.0952    6.4979  -20.4838 C   0  0  2  0  0  0  0  0  0  0  0  0
   -2.8991    5.8989  -21.0217 O   0  0  0  0  0  0  0  0  0  0  0  0
   -3.8880    7.9977  -20.3496 C   0  0  0  0  0  0  0  0  0  0  0  0
   -3.6927    8.6786  -21.6978 C   0  0  0  0  0  0  0  0  0  0  0  0
   -6.1151    4.7276  -16.7134 C   0  0  0  0  0  0  0  0  0  0  0  0
  1  2  1  0
  2  3  1  0
  3  4  1  0
  4  5  1  0
  5  6  2  0
  6  7  1  0
  7  8  1  0
  8  9  1  0
  9 10  2  0
  9 11  1  0
 11 12  1  1
 11 13  1  0
 13 14  1  0
  7 15  2  0
 15  4  1  0
M  END
>  <energy_score>  (3518) 
-16.381633

>  <alias>  (3518) 
JSWAUJLUTPMQPR-UHFFFAOYSA-N-P35-P35-P86-601527

>  <HIPPO Pose ID>  (3518) 
78431

>  <smiles>  (3518) 
CCCn1cnc(NC(=O)C(O)CC)c1

>  <inchikey>  (3518) 
JSWAUJLUTPMQPR-UHFFFAOYSA-N

>  <distance_score>  (3518) 
1.635736

>  <ref_mols>  (3518) 
Z0719a,Z1597a

>  <ref_pdb>  (3518) 
Z0719a

>  <HIPPO Compound ID>  (3518) 
150001

>  <name>  (3518) 
JSWAUJLUTPMQPR-UHFFFAOYSA-N-P35-P35-P86-601527

>  <inspiration_score>  (3518) 
None

$$$$
RUVMNKAJVNFDCW-UHFFFAOYSA-N-P35-P35-P86-601527
     RDKit          3D

 15 15  0  0  0  0  0  0  0  0999 V2000
   -3.7828    8.3731  -19.9152 C   0  0  0  0  0  0  0  0  0  0  0  0
   -4.3148    7.1060  -20.5734 C   0  0  0  0  0  0  0  0  0  0  0  0
   -5.5188    6.5167  -19.8404 C   0  0  2  0  0  0  0  0  0  0  0  0
   -6.5831    7.4603  -19.7763 O   0  0  0  0  0  0  0  0  0  0  0  0
   -5.1521    5.8551  -18.4948 C   0  0  0  0  0  0  0  0  0  0  0  0
   -4.0875    5.4603  -18.2117 O   0  0  0  0  0  0  0  0  0  0  0  0
   -6.4990    5.7635  -17.7231 N   0  0  0  0  0  0  0  0  0  0  0  0
   -6.8073    5.1315  -16.5753 C   0  0  0  0  0  0  0  0  0  0  0  0
   -5.9933    4.3353  -15.8232 C   0  0  0  0  0  0  0  0  0  0  0  0
   -6.7803    3.8624  -14.8058 N   0  0  0  0  0  0  0  0  0  0  0  0
   -6.3925    2.8937  -13.7788 C   0  0  0  0  0  0  0  0  0  0  0  0
   -4.9050    2.9535  -13.3936 C   0  0  0  0  0  0  0  0  0  0  0  0
   -7.2221    2.9713  -12.5013 C   0  0  0  0  0  0  0  0  0  0  0  0
   -8.0284    4.3958  -15.0153 C   0  0  0  0  0  0  0  0  0  0  0  0
   -8.0563    5.2001  -16.0566 N   0  0  0  0  0  0  0  0  0  0  0  0
  1  2  1  0
  2  3  1  0
  3  4  1  1
  3  5  1  0
  5  6  2  0
  5  7  1  0
  7  8  1  0
  8  9  2  0
  9 10  1  0
 10 11  1  0
 11 12  1  0
 11 13  1  0
 10 14  1  0
 14 15  2  0
 15  8  1  0
M  END
>  <energy_score>  (3519) 
-28.490008

>  <alias>  (3519) 
RUVMNKAJVNFDCW-UHFFFAOYSA-N-P35-P35-P86-601527

>  <HIPPO Pose ID>  (3519) 
78435

>  <smiles>  (3519) 
CCC(O)C(=O)Nc1cn(C(C)C)cn1

>  <inchikey>  (3519) 
RUVMNKAJVNFDCW-UHFFFAOYSA-N

>  <distance_score>  (3519) 
1.939663

>  <ref_mols>  (3519) 
Z0719a,Z1597a

>  <ref_pdb>  (3519) 
Z0719a

>  <HIPPO Compound ID>  (3519) 
150003

>  <name>  (3519) 
RUVMNKAJVNFDCW-UHFFFAOYSA-N-P35-P35-P86-601527

>  <inspiration_score>  (3519) 
None

$$$$
DDIGVTHZOSFENA-UHFFFAOYSA-N-P86-P35-P86-601527
     RDKit          3D

 15 16  0  0  0  0  0  0  0  0999 V2000
   -4.6078    8.1999  -20.8073 C   0  0  0  0  0  0  0  0  0  0  0  0
   -4.5942    6.7838  -21.3716 C   0  0  0  0  0  0  0  0  0  0  0  0
   -4.0136    5.7515  -20.4105 C   0  0  1  0  0  0  0  0  0  0  0  0
   -2.6319    6.0734  -20.2297 O   0  0  0  0  0  0  0  0  0  0  0  0
   -4.7492    5.6649  -19.0447 C   0  0  0  0  0  0  0  0  0  0  0  0
   -4.2001    5.9306  -18.0435 O   0  0  0  0  0  0  0  0  0  0  0  0
   -6.1906    5.1208  -19.2938 N   0  0  0  0  0  0  0  0  0  0  0  0
   -7.1540    4.7280  -18.4108 C   0  0  0  0  0  0  0  0  0  0  0  0
   -8.4099    4.1856  -18.6461 C   0  0  0  0  0  0  0  0  0  0  0  0
   -9.1057    3.9577  -17.4728 N   0  0  0  0  0  0  0  0  0  0  0  0
   -8.2815    4.3675  -16.5457 C   0  0  0  0  0  0  0  0  0  0  0  0
   -7.0981    4.7875  -17.0658 N   0  0  0  0  0  0  0  0  0  0  0  0
   -6.1902    5.3104  -16.0750 C   0  0  0  0  0  0  0  0  0  0  0  0
   -6.8936    4.9926  -14.7534 C   0  0  0  0  0  0  0  0  0  0  0  0
   -8.3373    4.5713  -15.0925 C   0  0  0  0  0  0  0  0  0  0  0  0
  1  2  1  0
  2  3  1  0
  3  4  1  1
  3  5  1  0
  5  6  2  0
  5  7  1  0
  7  8  1  0
  8  9  2  0
  9 10  1  0
 10 11  2  0
 11 12  1  0
 12 13  1  0
 13 14  1  0
 14 15  1  0
 12  8  1  0
 15 11  1  0
M  END
>  <energy_score>  (3520) 
-25.517042

>  <alias>  (3520) 
DDIGVTHZOSFENA-UHFFFAOYSA-N-P86-P35-P86-601527

>  <HIPPO Pose ID>  (3520) 
78442

>  <smiles>  (3520) 
CCC(O)C(=O)Nc1cnc2n1CCC2

>  <inchikey>  (3520) 
DDIGVTHZOSFENA-UHFFFAOYSA-N

>  <distance_score>  (3520) 
1.14507

>  <ref_mols>  (3520) 
Z0719a,Z1597a

>  <ref_pdb>  (3520) 
Z0719a

>  <HIPPO Compound ID>  (3520) 
150006

>  <name>  (3520) 
DDIGVTHZOSFENA-UHFFFAOYSA-N-P86-P35-P86-601527

>  <inspiration_score>  (3520) 
None

$$$$
FFQPRRGLIWPUCP-UHFFFAOYSA-N-P35-P35-P86-601527
     RDKit          3D

 15 15  0  0  0  0  0  0  0  0999 V2000
   -3.6318    7.4266  -21.2550 C   0  0  0  0  0  0  0  0  0  0  0  0
   -4.5786    6.9792  -20.1522 C   0  0  0  0  0  0  0  0  0  0  0  0
   -4.1282    5.7301  -19.3865 C   0  0  1  0  0  0  0  0  0  0  0  0
   -2.7487    5.8596  -19.0261 O   0  0  0  0  0  0  0  0  0  0  0  0
   -4.9933    5.5290  -18.1146 C   0  0  0  0  0  0  0  0  0  0  0  0
   -4.5817    5.7778  -17.0484 O   0  0  0  0  0  0  0  0  0  0  0  0
   -6.3870    5.0140  -18.5590 N   0  0  0  0  0  0  0  0  0  0  0  0
   -7.4613    4.6331  -17.8235 C   0  0  0  0  0  0  0  0  0  0  0  0
   -8.6089    4.3858  -18.5243 N   0  0  0  0  0  0  0  0  0  0  0  0
   -9.5530    4.1772  -17.6373 C   0  0  0  0  0  0  0  0  0  0  0  0
   -9.0446    4.1828  -16.3788 N   0  0  0  0  0  0  0  0  0  0  0  0
   -7.7122    4.4738  -16.4913 C   0  0  0  0  0  0  0  0  0  0  0  0
   -6.9604    4.5688  -15.3122 N   0  0  0  0  0  0  0  0  0  0  0  0
   -5.8960    3.9523  -15.2335 O   0  0  0  0  0  0  0  0  0  0  0  0
   -7.5037    5.2210  -14.4159 O   0  0  0  0  0  0  0  0  0  0  0  0
  1  2  1  0
  2  3  1  0
  3  4  1  1
  3  5  1  0
  5  6  2  0
  5  7  1  0
  7  8  1  0
  8  9  1  0
  9 10  2  0
 10 11  1  0
 11 12  1  0
 12 13  1  0
 13 14  2  0
 13 15  1  0
 12  8  2  0
M  CHG  2  13   1  15  -1
M  END
>  <energy_score>  (3521) 
-38.500955

>  <alias>  (3521) 
FFQPRRGLIWPUCP-UHFFFAOYSA-N-P35-P35-P86-601527

>  <HIPPO Pose ID>  (3521) 
78445

>  <smiles>  (3521) 
CCC(O)C(=O)Nc1nc[nH]c1[N+](=O)[O-]

>  <inchikey>  (3521) 
FFQPRRGLIWPUCP-UHFFFAOYSA-N

>  <distance_score>  (3521) 
1.465905

>  <ref_mols>  (3521) 
Z0719a,Z1597a

>  <ref_pdb>  (3521) 
Z0719a

>  <HIPPO Compound ID>  (3521) 
150008

>  <name>  (3521) 
FFQPRRGLIWPUCP-UHFFFAOYSA-N-P35-P35-P86-601527

>  <inspiration_score>  (3521) 
None

$$$$
QLCGLDCUKMELEL-UHFFFAOYSA-N-P35-P35-P86-601527
     RDKit          3D

 15 15  0  0  0  0  0  0  0  0999 V2000
   -5.6552    2.5001  -12.9715 C   0  0  0  0  0  0  0  0  0  0  0  0
   -5.7062    3.5865  -14.0404 C   0  0  0  0  0  0  0  0  0  0  0  0
   -5.1708    4.9046  -13.4764 C   0  0  0  0  0  0  0  0  0  0  0  0
   -7.1623    3.7512  -14.5479 C   0  0  0  0  0  0  0  0  0  0  0  0
   -7.3780    4.2561  -15.8893 N   0  0  0  0  0  0  0  0  0  0  0  0
   -8.6065    4.3842  -16.4774 C   0  0  0  0  0  0  0  0  0  0  0  0
   -8.5105    4.9309  -17.6681 N   0  0  0  0  0  0  0  0  0  0  0  0
   -7.1857    5.1567  -17.8517 C   0  0  0  0  0  0  0  0  0  0  0  0
   -6.7179    5.8043  -18.9403 N   0  0  0  0  0  0  0  0  0  0  0  0
   -5.2915    6.3293  -19.2670 C   0  0  0  0  0  0  0  0  0  0  0  0
   -4.2862    6.2131  -18.6769 O   0  0  0  0  0  0  0  0  0  0  0  0
   -5.4053    7.1921  -20.5397 C   0  0  2  0  0  0  0  0  0  0  0  0
   -4.0430    7.3860  -21.1879 C   0  0  0  0  0  0  0  0  0  0  0  0
   -5.9169    8.4825  -20.1721 O   0  0  0  0  0  0  0  0  0  0  0  0
   -6.4579    4.7249  -16.7780 C   0  0  0  0  0  0  0  0  0  0  0  0
  1  2  1  0
  2  3  1  0
  2  4  1  0
  4  5  1  0
  5  6  1  0
  6  7  2  0
  7  8  1  0
  8  9  1  0
  9 10  1  0
 10 11  2  0
 10 12  1  0
 12 13  1  1
 12 14  1  0
  8 15  2  0
 15  5  1  0
M  END
>  <energy_score>  (3522) 
-30.518032

>  <alias>  (3522) 
QLCGLDCUKMELEL-UHFFFAOYSA-N-P35-P35-P86-601527

>  <HIPPO Pose ID>  (3522) 
78449

>  <smiles>  (3522) 
CC(C)Cn1cnc(NC(=O)C(C)O)c1

>  <inchikey>  (3522) 
QLCGLDCUKMELEL-UHFFFAOYSA-N

>  <distance_score>  (3522) 
1.770899

>  <ref_mols>  (3522) 
Z0719a,Z1597a

>  <ref_pdb>  (3522) 
Z0719a

>  <HIPPO Compound ID>  (3522) 
150010

>  <name>  (3522) 
QLCGLDCUKMELEL-UHFFFAOYSA-N-P35-P35-P86-601527

>  <inspiration_score>  (3522) 
None

$$$$
KZKPRRGOCKPGRN-UHFFFAOYSA-N-P35-P35-P86-601527
     RDKit          3D

 15 16  0  0  0  0  0  0  0  0999 V2000
   -3.8521    2.9786  -12.5179 C   0  0  0  0  0  0  0  0  0  0  0  0
   -4.1673    4.1132  -11.5397 C   0  0  0  0  0  0  0  0  0  0  0  0
   -5.4994    3.9362  -10.9014 C   0  0  0  0  0  0  0  0  0  0  0  0
   -5.5862    3.7693   -9.5364 N   0  0  0  0  0  0  0  0  0  0  0  0
   -6.8238    3.4020   -9.3046 C   0  0  0  0  0  0  0  0  0  0  0  0
   -7.5442    3.3729  -10.4569 N   0  0  0  0  0  0  0  0  0  0  0  0
   -8.9197    2.9853  -10.5554 C   0  0  0  0  0  0  0  0  0  0  0  0
   -6.7520    3.8556  -11.4647 C   0  0  0  0  0  0  0  0  0  0  0  0
   -7.2394    4.2030  -12.6859 N   0  0  0  0  0  0  0  0  0  0  0  0
   -6.5740    4.9618  -13.8502 C   0  0  0  0  0  0  0  0  0  0  0  0
   -5.4791    5.3415  -13.9775 O   0  0  0  0  0  0  0  0  0  0  0  0
   -7.6071    5.2876  -14.8728 C   0  0  0  0  0  0  0  0  0  0  0  0
   -9.1412    6.4977  -14.0646 I   0  0  0  0  0  0  0  0  0  0  0  0
   -7.2208    5.4416  -16.3231 C   0  0  0  0  0  0  0  0  0  0  0  0
   -8.0643    4.2811  -15.8891 C   0  0  0  0  0  0  0  0  0  0  0  0
  1  2  1  0
  2  3  1  0
  3  4  1  0
  4  5  2  0
  5  6  1  0
  6  7  1  0
  6  8  1  0
  8  9  1  0
  9 10  1  0
 10 11  2  0
 10 12  1  0
 12 13  1  0
 12 14  1  0
 14 15  1  0
  8  3  2  0
 15 12  1  0
M  END
>  <energy_score>  (3523) 
-22.198914

>  <alias>  (3523) 
KZKPRRGOCKPGRN-UHFFFAOYSA-N-P35-P35-P86-601527

>  <HIPPO Pose ID>  (3523) 
78455

>  <smiles>  (3523) 
CCc1ncn(C)c1NC(=O)C1(I)CC1

>  <inchikey>  (3523) 
KZKPRRGOCKPGRN-UHFFFAOYSA-N

>  <distance_score>  (3523) 
1.785192

>  <ref_mols>  (3523) 
Z0719a,Z1597a

>  <ref_pdb>  (3523) 
Z0719a

>  <HIPPO Compound ID>  (3523) 
150013

>  <name>  (3523) 
KZKPRRGOCKPGRN-UHFFFAOYSA-N-P35-P35-P86-601527

>  <inspiration_score>  (3523) 
None

$$$$
XYCNVJYGZPISNX-UHFFFAOYSA-N-P35-P35-P86-601527
     RDKit          3D

 15 16  0  0  0  0  0  0  0  0999 V2000
   -7.1306    4.7187   -9.3568 C   0  0  0  0  0  0  0  0  0  0  0  0
   -7.5976    4.2552  -10.6325 N   0  0  0  0  0  0  0  0  0  0  0  0
   -8.6434    3.4036  -10.8349 C   0  0  0  0  0  0  0  0  0  0  0  0
   -8.8961    3.2646  -12.1190 N   0  0  0  0  0  0  0  0  0  0  0  0
   -7.9835    4.0397  -12.7614 C   0  0  0  0  0  0  0  0  0  0  0  0
   -7.9361    4.1730  -14.1149 N   0  0  0  0  0  0  0  0  0  0  0  0
   -7.3705    5.3140  -14.9926 C   0  0  0  0  0  0  0  0  0  0  0  0
   -6.7883    6.2811  -14.6935 O   0  0  0  0  0  0  0  0  0  0  0  0
   -7.5278    5.0544  -16.4766 C   0  0  0  0  0  0  0  0  0  0  0  0
   -9.2855    4.1402  -17.1738 I   0  0  0  0  0  0  0  0  0  0  0  0
   -6.2749    4.7357  -17.2683 C   0  0  0  0  0  0  0  0  0  0  0  0
   -6.9477    6.0564  -17.4673 C   0  0  0  0  0  0  0  0  0  0  0  0
   -7.0778    4.5466  -11.8635 C   0  0  0  0  0  0  0  0  0  0  0  0
   -5.7846    5.0120  -12.1984 C   0  0  0  0  0  0  0  0  0  0  0  0
   -4.7165    5.2362  -12.5898 N   0  0  0  0  0  0  0  0  0  0  0  0
  1  2  1  0
  2  3  1  0
  3  4  2  0
  4  5  1  0
  5  6  1  0
  6  7  1  0
  7  8  2  0
  7  9  1  0
  9 10  1  0
  9 11  1  0
 11 12  1  0
  5 13  2  0
 13 14  1  0
 14 15  3  0
 13  2  1  0
 12  9  1  0
M  END
>  <energy_score>  (3524) 
-4.551223

>  <alias>  (3524) 
XYCNVJYGZPISNX-UHFFFAOYSA-N-P35-P35-P86-601527

>  <HIPPO Pose ID>  (3524) 
78457

>  <smiles>  (3524) 
Cn1cnc(NC(=O)C2(I)CC2)c1C#N

>  <inchikey>  (3524) 
XYCNVJYGZPISNX-UHFFFAOYSA-N

>  <distance_score>  (3524) 
1.694016

>  <ref_mols>  (3524) 
Z0719a,Z1597a

>  <ref_pdb>  (3524) 
Z0719a

>  <HIPPO Compound ID>  (3524) 
150014

>  <name>  (3524) 
XYCNVJYGZPISNX-UHFFFAOYSA-N-P35-P35-P86-601527

>  <inspiration_score>  (3524) 
None

$$$$
FDZLFYVIGZTSTI-UHFFFAOYSA-N-P86-P35-P86-601527
     RDKit          3D

 15 16  0  0  0  0  0  0  0  0999 V2000
   -8.9000    3.9170  -17.1525 C   0  0  0  0  0  0  0  0  0  0  0  0
   -7.8020    4.5769  -16.8597 C   0  0  0  0  0  0  0  0  0  0  0  0
   -6.5275    4.9671  -17.3164 C   0  0  0  0  0  0  0  0  0  0  0  0
   -7.1198    5.4216  -15.9560 C   0  0  2  0  0  0  0  0  0  0  0  0
   -6.7148    4.8743  -14.6437 C   0  0  0  0  0  0  0  0  0  0  0  0
   -5.7628    4.2159  -14.5262 O   0  0  0  0  0  0  0  0  0  0  0  0
   -7.7267    5.3617  -13.5922 N   0  0  0  0  0  0  0  0  0  0  0  0
   -7.7279    5.2277  -12.2368 C   0  0  0  0  0  0  0  0  0  0  0  0
   -8.1900    6.1174  -11.2919 C   0  0  0  0  0  0  0  0  0  0  0  0
   -8.6721    7.4979  -11.4859 C   0  0  0  0  0  0  0  0  0  0  0  0
   -8.1001    5.5824  -10.0370 N   0  0  0  0  0  0  0  0  0  0  0  0
   -7.6681    4.3477  -10.2103 C   0  0  0  0  0  0  0  0  0  0  0  0
   -7.5787    3.3297   -9.1437 C   0  0  0  0  0  0  0  0  0  0  0  0
   -7.3255    4.1222  -11.5284 N   0  0  0  0  0  0  0  0  0  0  0  0
   -6.8631    2.8727  -12.0940 C   0  0  0  0  0  0  0  0  0  0  0  0
  1  2  2  0
  2  3  1  0
  3  4  1  0
  4  5  1  1
  5  6  2  0
  5  7  1  0
  7  8  1  0
  8  9  2  0
  9 10  1  0
  9 11  1  0
 11 12  2  0
 12 13  1  0
 12 14  1  0
 14 15  1  0
  4  2  1  0
 14  8  1  0
M  END
>  <energy_score>  (3525) 
-28.396477

>  <alias>  (3525) 
FDZLFYVIGZTSTI-UHFFFAOYSA-N-P86-P35-P86-601527

>  <HIPPO Pose ID>  (3525) 
78468

>  <smiles>  (3525) 
C=C1CC1C(=O)Nc1c(C)nc(C)n1C

>  <inchikey>  (3525) 
FDZLFYVIGZTSTI-UHFFFAOYSA-N

>  <distance_score>  (3525) 
1.450959

>  <ref_mols>  (3525) 
Z0719a,Z1597a

>  <ref_pdb>  (3525) 
Z0719a

>  <HIPPO Compound ID>  (3525) 
150019

>  <name>  (3525) 
FDZLFYVIGZTSTI-UHFFFAOYSA-N-P86-P35-P86-601527

>  <inspiration_score>  (3525) 
None

$$$$
RGJOJDWWDUKFOE-UHFFFAOYSA-N-P35-P35-P86-601527
     RDKit          3D

 15 15  0  0  0  0  0  0  0  0999 V2000
   -5.4752    5.1188  -14.3237 C   0  0  0  0  0  0  0  0  0  0  0  0
   -6.3309    6.0110  -15.1946 C   0  0  0  0  0  0  0  0  0  0  0  0
   -7.1707    5.2636  -16.0870 N   0  0  0  0  0  0  0  0  0  0  0  0
   -8.3469    4.6837  -15.6542 C   0  0  0  0  0  0  0  0  0  0  0  0
   -8.7325    4.5928  -14.2247 C   0  0  0  0  0  0  0  0  0  0  0  0
   -9.0484    4.2454  -16.6695 N   0  0  0  0  0  0  0  0  0  0  0  0
   -8.2871    4.5118  -17.7730 C   0  0  0  0  0  0  0  0  0  0  0  0
   -8.8113    4.1167  -19.0766 C   0  0  0  0  0  0  0  0  0  0  0  0
   -7.0721    5.0853  -17.4437 C   0  0  0  0  0  0  0  0  0  0  0  0
   -6.0442    5.3738  -18.3129 N   0  0  0  0  0  0  0  0  0  0  0  0
   -4.5913    5.8772  -18.0344 C   0  0  0  0  0  0  0  0  0  0  0  0
   -4.0278    6.0476  -17.0203 O   0  0  0  0  0  0  0  0  0  0  0  0
   -3.8748    6.1095  -19.4017 C   0  0  2  0  0  0  0  0  0  0  0  0
   -4.5689    7.1289  -20.2945 C   0  0  0  0  0  0  0  0  0  0  0  0
   -3.6256    4.9262  -20.1478 O   0  0  0  0  0  0  0  0  0  0  0  0
  1  2  1  0
  2  3  1  0
  3  4  1  0
  4  5  1  0
  4  6  2  0
  6  7  1  0
  7  8  1  0
  7  9  2  0
  9 10  1  0
 10 11  1  0
 11 12  2  0
 11 13  1  0
 13 14  1  6
 13 15  1  0
  9  3  1  0
M  END
>  <energy_score>  (3526) 
-0.05729

>  <alias>  (3526) 
RGJOJDWWDUKFOE-UHFFFAOYSA-N-P35-P35-P86-601527

>  <HIPPO Pose ID>  (3526) 
78479

>  <smiles>  (3526) 
CCn1c(C)nc(C)c1NC(=O)C(C)O

>  <inchikey>  (3526) 
RGJOJDWWDUKFOE-UHFFFAOYSA-N

>  <distance_score>  (3526) 
1.462113

>  <ref_mols>  (3526) 
Z0719a,Z1597a

>  <ref_pdb>  (3526) 
Z0719a

>  <HIPPO Compound ID>  (3526) 
150025

>  <name>  (3526) 
RGJOJDWWDUKFOE-UHFFFAOYSA-N-P35-P35-P86-601527

>  <inspiration_score>  (3526) 
None

$$$$
WRKOQMKMUYPWMY-UHFFFAOYSA-N-P86-P35-P86-601527
     RDKit          3D

 15 16  0  0  0  0  0  0  0  0999 V2000
   -4.3788    7.7821  -21.7866 C   0  0  0  0  0  0  0  0  0  0  0  0
   -4.0064    6.3148  -21.8330 C   0  0  1  0  0  0  0  0  0  0  0  0
   -2.7003    6.2022  -22.4007 O   0  0  0  0  0  0  0  0  0  0  0  0
   -4.0635    5.7762  -20.3930 C   0  0  0  0  0  0  0  0  0  0  0  0
   -3.1146    5.7651  -19.7069 O   0  0  0  0  0  0  0  0  0  0  0  0
   -5.5404    5.4027  -20.0774 N   0  0  0  0  0  0  0  0  0  0  0  0
   -6.1273    5.0554  -18.9107 C   0  0  0  0  0  0  0  0  0  0  0  0
   -7.3930    4.5463  -18.7578 C   0  0  0  0  0  0  0  0  0  0  0  0
   -7.5893    4.4965  -17.4131 N   0  0  0  0  0  0  0  0  0  0  0  0
   -8.7411    4.1325  -16.7983 N   0  0  0  0  0  0  0  0  0  0  0  0
   -8.6630    4.2689  -15.5155 C   0  0  0  0  0  0  0  0  0  0  0  0
   -7.4952    4.7380  -14.7385 C   0  0  0  0  0  0  0  0  0  0  0  0
   -6.4028    5.0826  -15.4224 C   0  0  0  0  0  0  0  0  0  0  0  0
   -6.4299    4.9816  -16.8254 C   0  0  0  0  0  0  0  0  0  0  0  0
   -5.5213    5.2953  -17.7186 N   0  0  0  0  0  0  0  0  0  0  0  0
  2  1  1  1
  2  3  1  0
  2  4  1  0
  4  5  2  0
  4  6  1  0
  6  7  1  0
  7  8  2  0
  8  9  1  0
  9 10  1  0
 10 11  2  0
 11 12  1  0
 12 13  2  0
 13 14  1  0
 14 15  2  0
 15  7  1  0
 14  9  1  0
M  END
>  <energy_score>  (3527) 
-15.773565

>  <alias>  (3527) 
WRKOQMKMUYPWMY-UHFFFAOYSA-N-P86-P35-P86-601527

>  <HIPPO Pose ID>  (3527) 
78486

>  <smiles>  (3527) 
CC(O)C(=O)Nc1cn2ncccc2n1

>  <inchikey>  (3527) 
WRKOQMKMUYPWMY-UHFFFAOYSA-N

>  <distance_score>  (3527) 
1.612753

>  <ref_mols>  (3527) 
Z0719a,Z1597a

>  <ref_pdb>  (3527) 
Z0719a

>  <HIPPO Compound ID>  (3527) 
150028

>  <name>  (3527) 
WRKOQMKMUYPWMY-UHFFFAOYSA-N-P86-P35-P86-601527

>  <inspiration_score>  (3527) 
None

$$$$
ILRBZVHYHSWELB-UHFFFAOYSA-N-P86-P35-P86-601527
     RDKit          3D

 15 16  0  0  0  0  0  0  0  0999 V2000
   -5.1116    8.6971  -22.1639 N   0  0  0  0  0  0  0  0  0  0  0  0
   -4.7938    7.6068  -21.9183 C   0  0  0  0  0  0  0  0  0  0  0  0
   -4.4614    6.2145  -21.6571 C   0  0  0  0  0  0  0  0  0  0  0  0
   -4.4515    5.9959  -20.1667 C   0  0  0  0  0  0  0  0  0  0  0  0
   -3.5190    6.2541  -19.5092 O   0  0  0  0  0  0  0  0  0  0  0  0
   -5.8700    5.5044  -19.7562 N   0  0  0  0  0  0  0  0  0  0  0  0
   -6.3628    5.1648  -18.5485 C   0  0  0  0  0  0  0  0  0  0  0  0
   -7.6180    4.6693  -18.3027 C   0  0  0  0  0  0  0  0  0  0  0  0
   -7.6864    4.5990  -16.9409 N   0  0  0  0  0  0  0  0  0  0  0  0
   -8.7434    4.2685  -16.1150 C   0  0  0  0  0  0  0  0  0  0  0  0
   -8.5682    4.3542  -14.7913 C   0  0  0  0  0  0  0  0  0  0  0  0
   -7.2148    4.7567  -14.3427 C   0  0  0  0  0  0  0  0  0  0  0  0
   -6.2215    5.0925  -15.0969 N   0  0  0  0  0  0  0  0  0  0  0  0
   -6.4566    5.0271  -16.4370 C   0  0  0  0  0  0  0  0  0  0  0  0
   -5.6506    5.3637  -17.4160 N   0  0  0  0  0  0  0  0  0  0  0  0
  1  2  3  0
  2  3  1  0
  3  4  1  0
  4  5  2  0
  4  6  1  0
  6  7  1  0
  7  8  2  0
  8  9  1  0
  9 10  1  0
 10 11  2  0
 11 12  1  0
 12 13  2  0
 13 14  1  0
 14 15  2  0
 15  7  1  0
 14  9  1  0
M  END
>  <energy_score>  (3528) 
-25.183137

>  <alias>  (3528) 
ILRBZVHYHSWELB-UHFFFAOYSA-N-P86-P35-P86-601527

>  <HIPPO Pose ID>  (3528) 
78490

>  <smiles>  (3528) 
N#CCC(=O)Nc1cn2cccnc2n1

>  <inchikey>  (3528) 
ILRBZVHYHSWELB-UHFFFAOYSA-N

>  <distance_score>  (3528) 
1.496969

>  <ref_mols>  (3528) 
Z0719a,Z1597a

>  <ref_pdb>  (3528) 
Z0719a

>  <HIPPO Compound ID>  (3528) 
150030

>  <name>  (3528) 
ILRBZVHYHSWELB-UHFFFAOYSA-N-P86-P35-P86-601527

>  <inspiration_score>  (3528) 
None

$$$$
HSGPSOMKFSLMMN-UHFFFAOYSA-N-P86-P35-P86-601527
     RDKit          3D

 15 16  0  0  0  0  0  0  0  0999 V2000
   -4.6331    6.9706  -21.2972 C   0  0  0  0  0  0  0  0  0  0  0  0
   -3.8900    6.4647  -20.0574 C   0  0  0  0  0  0  0  0  0  0  0  0
   -3.2338    5.1119  -20.3446 C   0  0  0  0  0  0  0  0  0  0  0  0
   -2.7672    7.4767  -19.7372 C   0  0  0  0  0  0  0  0  0  0  0  0
   -4.8191    6.3458  -18.8076 C   0  0  0  0  0  0  0  0  0  0  0  0
   -4.5363    6.8778  -17.8020 O   0  0  0  0  0  0  0  0  0  0  0  0
   -6.0214    5.4122  -19.1544 N   0  0  0  0  0  0  0  0  0  0  0  0
   -7.0046    4.9001  -18.3572 C   0  0  0  0  0  0  0  0  0  0  0  0
   -8.1542    4.1877  -18.6738 C   0  0  0  0  0  0  0  0  0  0  0  0
   -8.9085    3.8881  -17.5504 N   0  0  0  0  0  0  0  0  0  0  0  0
   -8.2037    4.3882  -16.5708 C   0  0  0  0  0  0  0  0  0  0  0  0
   -7.0624    4.9767  -17.0137 N   0  0  0  0  0  0  0  0  0  0  0  0
   -6.2194    5.4673  -15.9507 C   0  0  0  0  0  0  0  0  0  0  0  0
   -6.9013    4.9239  -14.6941 C   0  0  0  0  0  0  0  0  0  0  0  0
   -8.3193    4.4837  -15.1102 C   0  0  0  0  0  0  0  0  0  0  0  0
  1  2  1  0
  2  3  1  0
  2  4  1  0
  2  5  1  0
  5  6  2  0
  5  7  1  0
  7  8  1  0
  8  9  2  0
  9 10  1  0
 10 11  2  0
 11 12  1  0
 12 13  1  0
 13 14  1  0
 14 15  1  0
 12  8  1  0
 15 11  1  0
M  END
>  <energy_score>  (3529) 
-30.627157

>  <alias>  (3529) 
HSGPSOMKFSLMMN-UHFFFAOYSA-N-P86-P35-P86-601527

>  <HIPPO Pose ID>  (3529) 
78496

>  <smiles>  (3529) 
CC(C)(C)C(=O)Nc1cnc2n1CCC2

>  <inchikey>  (3529) 
HSGPSOMKFSLMMN-UHFFFAOYSA-N

>  <distance_score>  (3529) 
1.298622

>  <ref_mols>  (3529) 
Z0719a,Z1597a

>  <ref_pdb>  (3529) 
Z0719a

>  <HIPPO Compound ID>  (3529) 
150033

>  <name>  (3529) 
HSGPSOMKFSLMMN-UHFFFAOYSA-N-P86-P35-P86-601527

>  <inspiration_score>  (3529) 
None

$$$$
HJKUZGKWZRDCKR-UHFFFAOYSA-N-P86-P35-P86-601527
     RDKit          3D

 15 15  0  0  0  0  0  0  0  0999 V2000
   -8.5034    3.7464  -19.2327 C   0  0  0  0  0  0  0  0  0  0  0  0
   -8.0026    4.2743  -17.9606 C   0  0  0  0  0  0  0  0  0  0  0  0
   -8.7435    4.0575  -16.8259 N   0  0  0  0  0  0  0  0  0  0  0  0
   -8.0348    4.5612  -15.8433 C   0  0  0  0  0  0  0  0  0  0  0  0
   -8.3719    4.5183  -14.4030 C   0  0  0  0  0  0  0  0  0  0  0  0
   -6.8672    5.1137  -16.3178 N   0  0  0  0  0  0  0  0  0  0  0  0
   -5.7996    5.5441  -15.4643 C   0  0  0  0  0  0  0  0  0  0  0  0
   -6.8512    4.9868  -17.6841 C   0  0  0  0  0  0  0  0  0  0  0  0
   -5.8637    5.4070  -18.5394 N   0  0  0  0  0  0  0  0  0  0  0  0
   -4.7850    6.5232  -18.3717 C   0  0  0  0  0  0  0  0  0  0  0  0
   -4.5285    7.1985  -17.4485 O   0  0  0  0  0  0  0  0  0  0  0  0
   -3.9148    6.5848  -19.6728 C   0  0  0  0  0  0  0  0  0  0  0  0
   -4.7346    6.7352  -20.9588 C   0  0  0  0  0  0  0  0  0  0  0  0
   -2.9777    7.8091  -19.5719 C   0  0  0  0  0  0  0  0  0  0  0  0
   -3.0400    5.3265  -19.7491 C   0  0  0  0  0  0  0  0  0  0  0  0
  1  2  1  0
  2  3  1  0
  3  4  2  0
  4  5  1  0
  4  6  1  0
  6  7  1  0
  6  8  1  0
  8  9  1  0
  9 10  1  0
 10 11  2  0
 10 12  1  0
 12 13  1  0
 12 14  1  0
 12 15  1  0
  8  2  2  0
M  END
>  <energy_score>  (3530) 
-25.52059

>  <alias>  (3530) 
HJKUZGKWZRDCKR-UHFFFAOYSA-N-P86-P35-P86-601527

>  <HIPPO Pose ID>  (3530) 
78498

>  <smiles>  (3530) 
Cc1nc(C)n(C)c1NC(=O)C(C)(C)C

>  <inchikey>  (3530) 
HJKUZGKWZRDCKR-UHFFFAOYSA-N

>  <distance_score>  (3530) 
1.38042

>  <ref_mols>  (3530) 
Z0719a,Z1597a

>  <ref_pdb>  (3530) 
Z0719a

>  <HIPPO Compound ID>  (3530) 
150034

>  <name>  (3530) 
HJKUZGKWZRDCKR-UHFFFAOYSA-N-P86-P35-P86-601527

>  <inspiration_score>  (3530) 
None

$$$$
AVUNSTIVWSCOES-UHFFFAOYSA-N-P35-P35-P86-601527
     RDKit          3D

 15 15  0  0  0  0  0  0  0  0999 V2000
   -3.3541    7.4227  -18.8980 C   0  0  0  0  0  0  0  0  0  0  0  0
   -4.4886    6.4463  -19.2174 C   0  0  0  0  0  0  0  0  0  0  0  0
   -5.2388    7.0656  -20.4055 C   0  0  0  0  0  0  0  0  0  0  0  0
   -3.8369    5.0964  -19.5338 C   0  0  0  0  0  0  0  0  0  0  0  0
   -5.3987    6.2286  -17.9722 C   0  0  0  0  0  0  0  0  0  0  0  0
   -5.0923    6.5943  -16.9049 O   0  0  0  0  0  0  0  0  0  0  0  0
   -6.6313    5.4051  -18.4389 N   0  0  0  0  0  0  0  0  0  0  0  0
   -7.6200    4.8230  -17.7239 C   0  0  0  0  0  0  0  0  0  0  0  0
   -8.7174    4.4181  -18.4267 N   0  0  0  0  0  0  0  0  0  0  0  0
   -9.6261    4.1063  -17.5336 C   0  0  0  0  0  0  0  0  0  0  0  0
   -9.1066    4.1371  -16.2783 N   0  0  0  0  0  0  0  0  0  0  0  0
   -7.8197    4.5792  -16.3992 C   0  0  0  0  0  0  0  0  0  0  0  0
   -7.0260    4.6596  -15.2488 N   0  0  0  0  0  0  0  0  0  0  0  0
   -5.8981    4.1583  -15.2773 O   0  0  0  0  0  0  0  0  0  0  0  0
   -7.5916    5.1552  -14.2712 O   0  0  0  0  0  0  0  0  0  0  0  0
  1  2  1  0
  2  3  1  0
  2  4  1  0
  2  5  1  0
  5  6  2  0
  5  7  1  0
  7  8  1  0
  8  9  1  0
  9 10  2  0
 10 11  1  0
 11 12  1  0
 12 13  1  0
 13 14  2  0
 13 15  1  0
 12  8  2  0
M  CHG  2  13   1  15  -1
M  END
>  <energy_score>  (3531) 
-30.489139

>  <alias>  (3531) 
AVUNSTIVWSCOES-UHFFFAOYSA-N-P35-P35-P86-601527

>  <HIPPO Pose ID>  (3531) 
78499

>  <smiles>  (3531) 
CC(C)(C)C(=O)Nc1nc[nH]c1[N+](=O)[O-]

>  <inchikey>  (3531) 
AVUNSTIVWSCOES-UHFFFAOYSA-N

>  <distance_score>  (3531) 
1.742697

>  <ref_mols>  (3531) 
Z0719a,Z1597a

>  <ref_pdb>  (3531) 
Z0719a

>  <HIPPO Compound ID>  (3531) 
150035

>  <name>  (3531) 
AVUNSTIVWSCOES-UHFFFAOYSA-N-P35-P35-P86-601527

>  <inspiration_score>  (3531) 
None

$$$$
KPFKNFBZWRFQGY-UHFFFAOYSA-N-P86-P35-P86-601527
     RDKit          3D

 15 16  0  0  0  0  0  0  0  0999 V2000
   -9.9878    4.4501  -18.0120 C   0  0  0  0  0  0  0  0  0  0  0  0
   -8.8479    4.3796  -17.3692 C   0  0  0  0  0  0  0  0  0  0  0  0
   -7.4577    4.5209  -17.4879 C   0  0  0  0  0  0  0  0  0  0  0  0
   -8.2191    3.9452  -16.2000 C   0  0  1  0  0  0  0  0  0  0  0  0
   -8.0369    4.7062  -14.9400 C   0  0  0  0  0  0  0  0  0  0  0  0
   -7.5726    5.7758  -14.9533 O   0  0  0  0  0  0  0  0  0  0  0  0
   -8.4499    3.8115  -13.7563 N   0  0  0  0  0  0  0  0  0  0  0  0
   -8.3013    3.9918  -12.4268 C   0  0  0  0  0  0  0  0  0  0  0  0
   -8.9946    3.2048  -11.5607 N   0  0  0  0  0  0  0  0  0  0  0  0
   -8.5934    3.5643  -10.3631 C   0  0  0  0  0  0  0  0  0  0  0  0
   -7.6595    4.5563  -10.4412 N   0  0  0  0  0  0  0  0  0  0  0  0
   -7.0724    5.2332   -9.3219 C   0  0  0  0  0  0  0  0  0  0  0  0
   -7.3611    4.7369  -11.7663 C   0  0  0  0  0  0  0  0  0  0  0  0
   -6.1968    5.2966  -12.3477 C   0  0  0  0  0  0  0  0  0  0  0  0
   -5.2144    5.6080  -12.8811 N   0  0  0  0  0  0  0  0  0  0  0  0
  1  2  2  0
  2  3  1  0
  3  4  1  0
  4  5  1  1
  5  6  2  0
  5  7  1  0
  7  8  1  0
  8  9  1  0
  9 10  2  0
 10 11  1  0
 11 12  1  0
 11 13  1  0
 13 14  1  0
 14 15  3  0
  4  2  1  0
 13  8  2  0
M  END
>  <energy_score>  (3532) 
-2.359759

>  <alias>  (3532) 
KPFKNFBZWRFQGY-UHFFFAOYSA-N-P86-P35-P86-601527

>  <HIPPO Pose ID>  (3532) 
78504

>  <smiles>  (3532) 
C=C1CC1C(=O)Nc1ncn(C)c1C#N

>  <inchikey>  (3532) 
KPFKNFBZWRFQGY-UHFFFAOYSA-N

>  <distance_score>  (3532) 
1.423756

>  <ref_mols>  (3532) 
Z0719a,Z1597a

>  <ref_pdb>  (3532) 
Z0719a

>  <HIPPO Compound ID>  (3532) 
150037

>  <name>  (3532) 
KPFKNFBZWRFQGY-UHFFFAOYSA-N-P86-P35-P86-601527

>  <inspiration_score>  (3532) 
None

$$$$
LFMLTRLLYYZWJA-UHFFFAOYSA-N-P86-P35-P86-601527
     RDKit          3D

 15 15  0  0  0  0  0  0  0  0999 V2000
   -8.9435    4.2261  -15.3178 C   0  0  0  0  0  0  0  0  0  0  0  0
   -8.1844    4.3813  -16.5242 N   0  0  0  0  0  0  0  0  0  0  0  0
   -8.6458    4.1901  -17.7837 C   0  0  0  0  0  0  0  0  0  0  0  0
   -7.7183    4.4948  -18.6574 N   0  0  0  0  0  0  0  0  0  0  0  0
   -6.6356    4.9086  -17.9381 C   0  0  0  0  0  0  0  0  0  0  0  0
   -5.5740    5.3482  -18.6578 N   0  0  0  0  0  0  0  0  0  0  0  0
   -4.2506    6.0149  -18.1972 C   0  0  0  0  0  0  0  0  0  0  0  0
   -3.9054    6.3575  -17.1345 O   0  0  0  0  0  0  0  0  0  0  0  0
   -3.3499    6.2294  -19.4615 C   0  0  0  0  0  0  0  0  0  0  0  0
   -4.0573    7.0697  -20.5400 C   0  0  0  0  0  0  0  0  0  0  0  0
   -2.0762    6.9852  -19.0257 C   0  0  0  0  0  0  0  0  0  0  0  0
   -2.9196    4.8819  -20.0509 C   0  0  0  0  0  0  0  0  0  0  0  0
   -6.8781    4.7850  -16.5913 C   0  0  0  0  0  0  0  0  0  0  0  0
   -6.0684    4.9269  -15.4409 C   0  0  0  0  0  0  0  0  0  0  0  0
   -5.4961    4.9438  -14.4322 N   0  0  0  0  0  0  0  0  0  0  0  0
  1  2  1  0
  2  3  1  0
  3  4  2  0
  4  5  1  0
  5  6  1  0
  6  7  1  0
  7  8  2  0
  7  9  1  0
  9 10  1  0
  9 11  1  0
  9 12  1  0
  5 13  2  0
 13 14  1  0
 14 15  3  0
 13  2  1  0
M  END
>  <energy_score>  (3533) 
-29.73227

>  <alias>  (3533) 
LFMLTRLLYYZWJA-UHFFFAOYSA-N-P86-P35-P86-601527

>  <HIPPO Pose ID>  (3533) 
78512

>  <smiles>  (3533) 
Cn1cnc(NC(=O)C(C)(C)C)c1C#N

>  <inchikey>  (3533) 
LFMLTRLLYYZWJA-UHFFFAOYSA-N

>  <distance_score>  (3533) 
1.327578

>  <ref_mols>  (3533) 
Z0719a,Z1597a

>  <ref_pdb>  (3533) 
Z0719a

>  <HIPPO Compound ID>  (3533) 
150041

>  <name>  (3533) 
LFMLTRLLYYZWJA-UHFFFAOYSA-N-P86-P35-P86-601527

>  <inspiration_score>  (3533) 
None

$$$$
YFMRWIOUEZVUCD-UHFFFAOYSA-N-P35-P35-P86-601527
     RDKit          3D

 15 15  0  0  0  0  0  0  0  0999 V2000
   -9.7348    4.4119  -17.0087 C   0  0  0  0  0  0  0  0  0  0  0  0
   -8.3254    4.6366  -16.7050 C   0  0  0  0  0  0  0  0  0  0  0  0
   -7.4365    5.0148  -17.5867 N   0  0  0  0  0  0  0  0  0  0  0  0
   -6.2248    4.7957  -17.0146 C   0  0  0  0  0  0  0  0  0  0  0  0
   -5.2089    5.0235  -17.8744 N   0  0  0  0  0  0  0  0  0  0  0  0
   -3.6785    5.0028  -17.6499 C   0  0  0  0  0  0  0  0  0  0  0  0
   -3.0594    4.8617  -16.6705 O   0  0  0  0  0  0  0  0  0  0  0  0
   -3.0335    5.1466  -19.0200 C   0  0  0  0  0  0  0  0  0  0  0  0
   -3.3245    6.4252  -19.6761 C   0  0  0  0  0  0  0  0  0  0  0  0
   -3.5126    7.4251  -20.2333 N   0  0  0  0  0  0  0  0  0  0  0  0
   -6.3699    4.3403  -15.7243 C   0  0  0  0  0  0  0  0  0  0  0  0
   -5.5082    3.7659  -14.7537 C   0  0  0  0  0  0  0  0  0  0  0  0
   -5.0016    3.1805  -13.8894 N   0  0  0  0  0  0  0  0  0  0  0  0
   -7.7270    4.4249  -15.5003 N   0  0  0  0  0  0  0  0  0  0  0  0
   -8.3410    4.3028  -14.1999 C   0  0  0  0  0  0  0  0  0  0  0  0
  1  2  1  0
  2  3  2  0
  3  4  1  0
  4  5  1  0
  5  6  1  0
  6  7  2  0
  6  8  1  0
  8  9  1  0
  9 10  3  0
  4 11  2  0
 11 12  1  0
 12 13  3  0
 11 14  1  0
 14 15  1  0
 14  2  1  0
M  END
>  <energy_score>  (3534) 
-12.459812

>  <alias>  (3534) 
YFMRWIOUEZVUCD-UHFFFAOYSA-N-P35-P35-P86-601527

>  <HIPPO Pose ID>  (3534) 
78523

>  <smiles>  (3534) 
Cc1nc(NC(=O)CC#N)c(C#N)n1C

>  <inchikey>  (3534) 
YFMRWIOUEZVUCD-UHFFFAOYSA-N

>  <distance_score>  (3534) 
1.898949

>  <ref_mols>  (3534) 
Z0719a,Z1597a

>  <ref_pdb>  (3534) 
Z0719a

>  <HIPPO Compound ID>  (3534) 
150047

>  <name>  (3534) 
YFMRWIOUEZVUCD-UHFFFAOYSA-N-P35-P35-P86-601527

>  <inspiration_score>  (3534) 
None

$$$$
YSAVCZNAXSHFOJ-UHFFFAOYSA-N-P35-P35-P86-601527
     RDKit          3D

 15 16  0  0  0  0  0  0  0  0999 V2000
   -8.6167    7.3311  -11.6042 C   0  0  0  0  0  0  0  0  0  0  0  0
   -8.1354    5.9443  -11.4439 C   0  0  0  0  0  0  0  0  0  0  0  0
   -8.0468    5.3889  -10.1993 N   0  0  0  0  0  0  0  0  0  0  0  0
   -7.6180    4.1561  -10.3877 C   0  0  0  0  0  0  0  0  0  0  0  0
   -7.4933    3.1460   -9.3119 C   0  0  0  0  0  0  0  0  0  0  0  0
   -7.3102    3.9353  -11.7193 N   0  0  0  0  0  0  0  0  0  0  0  0
   -6.7985    2.7035  -12.2811 C   0  0  0  0  0  0  0  0  0  0  0  0
   -7.6866    5.0650  -12.4095 C   0  0  0  0  0  0  0  0  0  0  0  0
   -7.6766    5.2559  -13.7621 N   0  0  0  0  0  0  0  0  0  0  0  0
   -6.8048    4.6041  -14.8636 C   0  0  0  0  0  0  0  0  0  0  0  0
   -6.0123    3.7459  -14.7947 O   0  0  0  0  0  0  0  0  0  0  0  0
   -7.2320    5.2769  -16.2089 C   0  0  0  0  0  0  0  0  0  0  0  0
   -6.3777    5.0078  -17.4684 C   0  0  0  0  0  0  0  0  0  0  0  0
   -7.6848    4.9325  -18.2711 C   0  0  0  0  0  0  0  0  0  0  0  0
   -8.4117    4.5976  -16.9583 C   0  0  0  0  0  0  0  0  0  0  0  0
  1  2  1  0
  2  3  1  0
  3  4  2  0
  4  5  1  0
  4  6  1  0
  6  7  1  0
  6  8  1  0
  8  9  1  0
  9 10  1  0
 10 11  2  0
 10 12  1  0
 12 13  1  0
 13 14  1  0
 14 15  1  0
  8  2  2  0
 15 12  1  0
M  END
>  <energy_score>  (3535) 
-22.005066

>  <alias>  (3535) 
YSAVCZNAXSHFOJ-UHFFFAOYSA-N-P35-P35-P86-601527

>  <HIPPO Pose ID>  (3535) 
78529

>  <smiles>  (3535) 
Cc1nc(C)n(C)c1NC(=O)C1CCC1

>  <inchikey>  (3535) 
YSAVCZNAXSHFOJ-UHFFFAOYSA-N

>  <distance_score>  (3535) 
1.293847

>  <ref_mols>  (3535) 
Z0719a,Z1597a

>  <ref_pdb>  (3535) 
Z0719a

>  <HIPPO Compound ID>  (3535) 
150050

>  <name>  (3535) 
YSAVCZNAXSHFOJ-UHFFFAOYSA-N-P35-P35-P86-601527

>  <inspiration_score>  (3535) 
None

$$$$
CNWOHZNPCAPWQE-UHFFFAOYSA-N-P35-P35-P86-601527
     RDKit          3D

 15 15  0  0  0  0  0  0  0  0999 V2000
   -5.3055    2.7630  -13.5731 C   0  0  0  0  0  0  0  0  0  0  0  0
   -6.3396    3.7841  -13.1544 C   0  0  0  0  0  0  0  0  0  0  0  0
   -7.5826    3.8354  -14.0679 C   0  0  0  0  0  0  0  0  0  0  0  0
   -7.4385    4.3889  -15.4011 N   0  0  0  0  0  0  0  0  0  0  0  0
   -8.3000    4.2023  -16.4470 C   0  0  0  0  0  0  0  0  0  0  0  0
   -7.7905    4.6594  -17.5728 N   0  0  0  0  0  0  0  0  0  0  0  0
   -6.6215    5.2462  -17.2152 C   0  0  0  0  0  0  0  0  0  0  0  0
   -5.7494    5.7504  -18.1158 N   0  0  0  0  0  0  0  0  0  0  0  0
   -4.4197    6.5317  -17.9068 C   0  0  0  0  0  0  0  0  0  0  0  0
   -3.9171    6.9248  -16.9247 O   0  0  0  0  0  0  0  0  0  0  0  0
   -3.6883    6.6654  -19.2741 C   0  0  0  0  0  0  0  0  0  0  0  0
   -4.5603    7.1995  -20.4168 C   0  0  0  0  0  0  0  0  0  0  0  0
   -3.1121    5.2831  -19.6083 C   0  0  0  0  0  0  0  0  0  0  0  0
   -2.5022    7.6423  -19.1045 C   0  0  0  0  0  0  0  0  0  0  0  0
   -6.4270    5.1744  -15.8646 C   0  0  0  0  0  0  0  0  0  0  0  0
  1  2  1  0
  2  3  1  0
  3  4  1  0
  4  5  1  0
  5  6  2  0
  6  7  1  0
  7  8  1  0
  8  9  1  0
  9 10  2  0
  9 11  1  0
 11 12  1  0
 11 13  1  0
 11 14  1  0
  7 15  2  0
 15  4  1  0
M  END
>  <energy_score>  (3536) 
-16.87368

>  <alias>  (3536) 
CNWOHZNPCAPWQE-UHFFFAOYSA-N-P35-P35-P86-601527

>  <HIPPO Pose ID>  (3536) 
78531

>  <smiles>  (3536) 
CCCn1cnc(NC(=O)C(C)(C)C)c1

>  <inchikey>  (3536) 
CNWOHZNPCAPWQE-UHFFFAOYSA-N

>  <distance_score>  (3536) 
1.857778

>  <ref_mols>  (3536) 
Z0719a,Z1597a

>  <ref_pdb>  (3536) 
Z0719a

>  <HIPPO Compound ID>  (3536) 
150051

>  <name>  (3536) 
CNWOHZNPCAPWQE-UHFFFAOYSA-N-P35-P35-P86-601527

>  <inspiration_score>  (3536) 
None

$$$$
HAHWZANVNUBMFL-UHFFFAOYSA-N-P35-P35-P86-601527
     RDKit          3D

 15 16  0  0  0  0  0  0  0  0999 V2000
   -8.8498    4.4931  -17.9326 C   0  0  0  0  0  0  0  0  0  0  0  0
   -7.6894    4.9871  -17.5648 C   0  0  0  0  0  0  0  0  0  0  0  0
   -6.7078    5.9487  -17.8650 C   0  0  0  0  0  0  0  0  0  0  0  0
   -6.5697    4.8775  -16.7223 C   0  0  1  0  0  0  0  0  0  0  0  0
   -6.5516    5.3529  -15.3129 C   0  0  0  0  0  0  0  0  0  0  0  0
   -5.6760    6.0553  -14.9961 O   0  0  0  0  0  0  0  0  0  0  0  0
   -7.6819    4.7271  -14.4761 N   0  0  0  0  0  0  0  0  0  0  0  0
   -7.9068    4.7533  -13.1360 C   0  0  0  0  0  0  0  0  0  0  0  0
   -6.9706    5.1000  -12.1872 C   0  0  0  0  0  0  0  0  0  0  0  0
   -7.1129    4.0338  -11.3063 N   0  0  0  0  0  0  0  0  0  0  0  0
   -5.9902    3.1337  -11.0389 C   0  0  0  0  0  0  0  0  0  0  0  0
   -5.5468    2.4172  -12.3389 C   0  0  0  0  0  0  0  0  0  0  0  0
   -4.1230    1.9099  -12.2488 C   0  0  0  0  0  0  0  0  0  0  0  0
   -8.4040    3.5959  -11.4319 C   0  0  0  0  0  0  0  0  0  0  0  0
   -8.9106    4.0336  -12.5686 N   0  0  0  0  0  0  0  0  0  0  0  0
  1  2  2  0
  2  3  1  0
  3  4  1  0
  4  5  1  1
  5  6  2  0
  5  7  1  0
  7  8  1  0
  8  9  2  0
  9 10  1  0
 10 11  1  0
 11 12  1  0
 12 13  1  0
 10 14  1  0
 14 15  2  0
  4  2  1  0
 15  8  1  0
M  END
>  <energy_score>  (3537) 
-15.173938

>  <alias>  (3537) 
HAHWZANVNUBMFL-UHFFFAOYSA-N-P35-P35-P86-601527

>  <HIPPO Pose ID>  (3537) 
78539

>  <smiles>  (3537) 
C=C1CC1C(=O)Nc1cn(CCC)cn1

>  <inchikey>  (3537) 
HAHWZANVNUBMFL-UHFFFAOYSA-N

>  <distance_score>  (3537) 
1.669659

>  <ref_mols>  (3537) 
Z0719a,Z1597a

>  <ref_pdb>  (3537) 
Z0719a

>  <HIPPO Compound ID>  (3537) 
150055

>  <name>  (3537) 
HAHWZANVNUBMFL-UHFFFAOYSA-N-P35-P35-P86-601527

>  <inspiration_score>  (3537) 
None

$$$$
XMHWZHRRKZHAJO-UHFFFAOYSA-N-P86-P35-P86-601527
     RDKit          3D

 15 16  0  0  0  0  0  0  0  0999 V2000
   -8.0559    7.4103  -12.0118 C   0  0  0  0  0  0  0  0  0  0  0  0
   -7.7918    5.9973  -11.6767 C   0  0  0  0  0  0  0  0  0  0  0  0
   -8.1038    5.5422  -10.4172 N   0  0  0  0  0  0  0  0  0  0  0  0
   -7.8752    4.2460  -10.4317 C   0  0  0  0  0  0  0  0  0  0  0  0
   -8.1593    3.3194   -9.3129 C   0  0  0  0  0  0  0  0  0  0  0  0
   -7.3267    3.8659  -11.6362 N   0  0  0  0  0  0  0  0  0  0  0  0
   -6.7882    2.5608  -11.9442 C   0  0  0  0  0  0  0  0  0  0  0  0
   -7.3058    4.9680  -12.4611 C   0  0  0  0  0  0  0  0  0  0  0  0
   -6.8732    4.9072  -13.7586 N   0  0  0  0  0  0  0  0  0  0  0  0
   -6.5064    6.0312  -14.7437 C   0  0  0  0  0  0  0  0  0  0  0  0
   -6.5869    7.1875  -14.6338 O   0  0  0  0  0  0  0  0  0  0  0  0
   -5.9699    5.4191  -16.0156 C   0  0  0  0  0  0  0  0  0  0  0  0
   -4.5017    5.0772  -15.9778 C   0  0  0  0  0  0  0  0  0  0  0  0
   -6.4457    5.8505  -17.3883 C   0  0  0  0  0  0  0  0  0  0  0  0
   -6.9998    4.5990  -16.8105 C   0  0  0  0  0  0  0  0  0  0  0  0
  1  2  1  0
  2  3  1  0
  3  4  2  0
  4  5  1  0
  4  6  1  0
  6  7  1  0
  6  8  1  0
  8  9  1  0
  9 10  1  0
 10 11  2  0
 10 12  1  0
 12 13  1  0
 12 14  1  0
 14 15  1  0
  8  2  2  0
 15 12  1  0
M  END
>  <energy_score>  (3538) 
-24.45734

>  <alias>  (3538) 
XMHWZHRRKZHAJO-UHFFFAOYSA-N-P86-P35-P86-601527

>  <HIPPO Pose ID>  (3538) 
78556

>  <smiles>  (3538) 
Cc1nc(C)n(C)c1NC(=O)C1(C)CC1

>  <inchikey>  (3538) 
XMHWZHRRKZHAJO-UHFFFAOYSA-N

>  <distance_score>  (3538) 
1.664846

>  <ref_mols>  (3538) 
Z0719a,Z1597a

>  <ref_pdb>  (3538) 
Z0719a

>  <HIPPO Compound ID>  (3538) 
150063

>  <name>  (3538) 
XMHWZHRRKZHAJO-UHFFFAOYSA-N-P86-P35-P86-601527

>  <inspiration_score>  (3538) 
None

$$$$
PBIBVDJWBWVTPH-UHFFFAOYSA-N-P86-P35-P86-601527
     RDKit          3D

 15 15  0  0  0  0  0  0  0  0999 V2000
   -3.1249    6.7039  -22.0152 C   0  0  0  0  0  0  0  0  0  0  0  0
   -3.8330    6.7876  -20.6623 C   0  0  0  0  0  0  0  0  0  0  0  0
   -4.7765    7.9890  -20.6453 C   0  0  0  0  0  0  0  0  0  0  0  0
   -4.5864    5.4850  -20.3678 C   0  0  0  0  0  0  0  0  0  0  0  0
   -4.9729    5.3621  -18.8894 C   0  0  0  0  0  0  0  0  0  0  0  0
   -4.1801    5.4392  -18.0348 O   0  0  0  0  0  0  0  0  0  0  0  0
   -6.4982    5.0875  -18.8236 N   0  0  0  0  0  0  0  0  0  0  0  0
   -7.2935    4.7769  -17.7678 C   0  0  0  0  0  0  0  0  0  0  0  0
   -8.5912    4.4571  -18.0473 N   0  0  0  0  0  0  0  0  0  0  0  0
   -9.1685    4.2255  -16.8917 C   0  0  0  0  0  0  0  0  0  0  0  0
   -8.2950    4.4115  -15.8727 N   0  0  0  0  0  0  0  0  0  0  0  0
   -8.5702    4.3841  -14.4583 C   0  0  0  0  0  0  0  0  0  0  0  0
   -7.0726    4.7185  -16.4130 C   0  0  0  0  0  0  0  0  0  0  0  0
   -5.9343    4.8850  -15.5953 C   0  0  0  0  0  0  0  0  0  0  0  0
   -5.1163    4.9506  -14.7758 N   0  0  0  0  0  0  0  0  0  0  0  0
  1  2  1  0
  2  3  1  0
  2  4  1  0
  4  5  1  0
  5  6  2  0
  5  7  1  0
  7  8  1  0
  8  9  1  0
  9 10  2  0
 10 11  1  0
 11 12  1  0
 11 13  1  0
 13 14  1  0
 14 15  3  0
 13  8  2  0
M  END
>  <energy_score>  (3539) 
-8.004963

>  <alias>  (3539) 
PBIBVDJWBWVTPH-UHFFFAOYSA-N-P86-P35-P86-601527

>  <HIPPO Pose ID>  (3539) 
78560

>  <smiles>  (3539) 
CC(C)CC(=O)Nc1ncn(C)c1C#N

>  <inchikey>  (3539) 
PBIBVDJWBWVTPH-UHFFFAOYSA-N

>  <distance_score>  (3539) 
1.183479

>  <ref_mols>  (3539) 
Z0719a,Z1597a

>  <ref_pdb>  (3539) 
Z0719a

>  <HIPPO Compound ID>  (3539) 
150065

>  <name>  (3539) 
PBIBVDJWBWVTPH-UHFFFAOYSA-N-P86-P35-P86-601527

>  <inspiration_score>  (3539) 
None

$$$$
QVHVZMYQLNUSLN-UHFFFAOYSA-N-P35-P35-P86-601527
     RDKit          3D

 15 15  0  0  0  0  0  0  0  0999 V2000
   -4.6513    7.8326  -22.3567 C   0  0  0  0  0  0  0  0  0  0  0  0
   -4.2226    7.3377  -20.9718 C   0  0  0  0  0  0  0  0  0  0  0  0
   -3.4585    8.4566  -20.2560 C   0  0  0  0  0  0  0  0  0  0  0  0
   -5.4554    6.8951  -20.1688 C   0  0  0  0  0  0  0  0  0  0  0  0
   -5.1193    6.0535  -18.9396 C   0  0  0  0  0  0  0  0  0  0  0  0
   -4.0287    5.8594  -18.5620 O   0  0  0  0  0  0  0  0  0  0  0  0
   -6.4893    5.6527  -18.3163 N   0  0  0  0  0  0  0  0  0  0  0  0
   -6.7765    5.0566  -17.1358 C   0  0  0  0  0  0  0  0  0  0  0  0
   -5.8925    4.5365  -16.2299 C   0  0  0  0  0  0  0  0  0  0  0  0
   -6.6483    4.1404  -15.1582 N   0  0  0  0  0  0  0  0  0  0  0  0
   -6.1827    3.6859  -13.8448 C   0  0  0  0  0  0  0  0  0  0  0  0
   -6.9118    2.4434  -13.3494 C   0  0  0  0  0  0  0  0  0  0  0  0
   -4.6695    3.4484  -13.7250 C   0  0  0  0  0  0  0  0  0  0  0  0
   -7.9548    4.4108  -15.4936 C   0  0  0  0  0  0  0  0  0  0  0  0
   -8.0511    4.9853  -16.6740 N   0  0  0  0  0  0  0  0  0  0  0  0
  1  2  1  0
  2  3  1  0
  2  4  1  0
  4  5  1  0
  5  6  2  0
  5  7  1  0
  7  8  1  0
  8  9  2  0
  9 10  1  0
 10 11  1  0
 11 12  1  0
 11 13  1  0
 10 14  1  0
 14 15  2  0
 15  8  1  0
M  END
>  <energy_score>  (3540) 
-42.217091

>  <alias>  (3540) 
QVHVZMYQLNUSLN-UHFFFAOYSA-N-P35-P35-P86-601527

>  <HIPPO Pose ID>  (3540) 
78575

>  <smiles>  (3540) 
CC(C)CC(=O)Nc1cn(C(C)C)cn1

>  <inchikey>  (3540) 
QVHVZMYQLNUSLN-UHFFFAOYSA-N

>  <distance_score>  (3540) 
1.824226

>  <ref_mols>  (3540) 
Z0719a,Z1597a

>  <ref_pdb>  (3540) 
Z0719a

>  <HIPPO Compound ID>  (3540) 
150073

>  <name>  (3540) 
QVHVZMYQLNUSLN-UHFFFAOYSA-N-P35-P35-P86-601527

>  <inspiration_score>  (3540) 
None

$$$$
SGSNAVITFVQCAH-UHFFFAOYSA-N-P86-P35-P86-601527
     RDKit          3D

 15 16  0  0  0  0  0  0  0  0999 V2000
   -2.9829    6.8941  -22.1420 C   0  0  0  0  0  0  0  0  0  0  0  0
   -3.4637    6.8623  -20.6907 C   0  0  0  0  0  0  0  0  0  0  0  0
   -3.5924    8.2958  -20.1651 C   0  0  0  0  0  0  0  0  0  0  0  0
   -4.7942    6.1122  -20.5791 C   0  0  0  0  0  0  0  0  0  0  0  0
   -5.1684    5.7450  -19.1413 C   0  0  0  0  0  0  0  0  0  0  0  0
   -4.4530    5.8464  -18.2229 O   0  0  0  0  0  0  0  0  0  0  0  0
   -6.6425    5.2555  -19.2211 N   0  0  0  0  0  0  0  0  0  0  0  0
   -7.4520    4.7352  -18.2623 C   0  0  0  0  0  0  0  0  0  0  0  0
   -8.6854    4.1219  -18.4043 C   0  0  0  0  0  0  0  0  0  0  0  0
   -9.2466    3.8045  -17.1842 N   0  0  0  0  0  0  0  0  0  0  0  0
   -8.3645    4.2367  -16.3211 C   0  0  0  0  0  0  0  0  0  0  0  0
   -7.2602    4.7464  -16.9325 N   0  0  0  0  0  0  0  0  0  0  0  0
   -6.3103    5.3209  -16.0107 C   0  0  0  0  0  0  0  0  0  0  0  0
   -7.1069    5.3717  -14.7036 C   0  0  0  0  0  0  0  0  0  0  0  0
   -8.2823    4.3833  -14.8609 C   0  0  0  0  0  0  0  0  0  0  0  0
  1  2  1  0
  2  3  1  0
  2  4  1  0
  4  5  1  0
  5  6  2  0
  5  7  1  0
  7  8  1  0
  8  9  2  0
  9 10  1  0
 10 11  2  0
 11 12  1  0
 12 13  1  0
 13 14  1  0
 14 15  1  0
 12  8  1  0
 15 11  1  0
M  END
>  <energy_score>  (3541) 
-29.457842

>  <alias>  (3541) 
SGSNAVITFVQCAH-UHFFFAOYSA-N-P86-P35-P86-601527

>  <HIPPO Pose ID>  (3541) 
78582

>  <smiles>  (3541) 
CC(C)CC(=O)Nc1cnc2n1CCC2

>  <inchikey>  (3541) 
SGSNAVITFVQCAH-UHFFFAOYSA-N

>  <distance_score>  (3541) 
1.274799

>  <ref_mols>  (3541) 
Z0719a,Z1597a

>  <ref_pdb>  (3541) 
Z0719a

>  <HIPPO Compound ID>  (3541) 
150076

>  <name>  (3541) 
SGSNAVITFVQCAH-UHFFFAOYSA-N-P86-P35-P86-601527

>  <inspiration_score>  (3541) 
None

$$$$
BYALMOFXDVUURE-UHFFFAOYSA-N-P35-P35-P86-601527
     RDKit          3D

 15 16  0  0  0  0  0  0  0  0999 V2000
   -8.2912    5.2737   -8.5235 C   0  0  0  0  0  0  0  0  0  0  0  0
   -8.3518    4.6808   -9.8286 N   0  0  0  0  0  0  0  0  0  0  0  0
   -8.4762    3.3476  -10.0878 C   0  0  0  0  0  0  0  0  0  0  0  0
   -8.3819    3.1132  -11.3746 N   0  0  0  0  0  0  0  0  0  0  0  0
   -8.1691    4.3324  -11.9488 C   0  0  0  0  0  0  0  0  0  0  0  0
   -7.8264    4.3321  -13.2523 N   0  0  0  0  0  0  0  0  0  0  0  0
   -7.3823    5.4777  -14.1641 C   0  0  0  0  0  0  0  0  0  0  0  0
   -7.3134    6.6201  -13.9607 O   0  0  0  0  0  0  0  0  0  0  0  0
   -6.9000    4.8951  -15.4537 C   0  0  0  0  0  0  0  0  0  0  0  0
   -5.6527    4.0535  -15.3048 C   0  0  0  0  0  0  0  0  0  0  0  0
   -7.0190    5.7003  -16.7299 C   0  0  0  0  0  0  0  0  0  0  0  0
   -7.9547    4.5530  -16.4959 C   0  0  0  0  0  0  0  0  0  0  0  0
   -8.2194    5.3451  -11.0241 C   0  0  0  0  0  0  0  0  0  0  0  0
   -8.1102    6.7525  -11.1682 C   0  0  0  0  0  0  0  0  0  0  0  0
   -8.0419    7.9111  -11.1592 N   0  0  0  0  0  0  0  0  0  0  0  0
  1  2  1  0
  2  3  1  0
  3  4  2  0
  4  5  1  0
  5  6  1  0
  6  7  1  0
  7  8  2  0
  7  9  1  0
  9 10  1  0
  9 11  1  0
 11 12  1  0
  5 13  2  0
 13 14  1  0
 14 15  3  0
 13  2  1  0
 12  9  1  0
M  END
>  <energy_score>  (3542) 
-19.653347

>  <alias>  (3542) 
BYALMOFXDVUURE-UHFFFAOYSA-N-P35-P35-P86-601527

>  <HIPPO Pose ID>  (3542) 
78585

>  <smiles>  (3542) 
Cn1cnc(NC(=O)C2(C)CC2)c1C#N

>  <inchikey>  (3542) 
BYALMOFXDVUURE-UHFFFAOYSA-N

>  <distance_score>  (3542) 
1.494709

>  <ref_mols>  (3542) 
Z0719a,Z1597a

>  <ref_pdb>  (3542) 
Z0719a

>  <HIPPO Compound ID>  (3542) 
150078

>  <name>  (3542) 
BYALMOFXDVUURE-UHFFFAOYSA-N-P35-P35-P86-601527

>  <inspiration_score>  (3542) 
None

$$$$
MSDMHJROJKSZST-UHFFFAOYSA-N-P35-P35-P86-601527
     RDKit          3D

 15 16  0  0  0  0  0  0  0  0999 V2000
   -5.3042    2.0613  -12.7912 C   0  0  0  0  0  0  0  0  0  0  0  0
   -4.6990    2.9521  -11.7123 C   0  0  0  0  0  0  0  0  0  0  0  0
   -5.6495    3.2955  -10.5358 C   0  0  0  0  0  0  0  0  0  0  0  0
   -6.9192    3.8624  -10.9577 N   0  0  0  0  0  0  0  0  0  0  0  0
   -8.1061    3.1834  -10.9354 C   0  0  0  0  0  0  0  0  0  0  0  0
   -8.8027    3.4602  -12.0162 N   0  0  0  0  0  0  0  0  0  0  0  0
   -8.0579    4.3804  -12.6864 C   0  0  0  0  0  0  0  0  0  0  0  0
   -8.1803    4.5446  -14.0250 N   0  0  0  0  0  0  0  0  0  0  0  0
   -7.3427    5.3836  -15.0127 C   0  0  0  0  0  0  0  0  0  0  0  0
   -6.4632    6.1262  -14.8182 O   0  0  0  0  0  0  0  0  0  0  0  0
   -7.6936    5.0846  -16.4828 C   0  0  0  0  0  0  0  0  0  0  0  0
   -9.0507    4.5308  -16.8375 C   0  0  0  0  0  0  0  0  0  0  0  0
   -6.5419    4.6027  -17.3603 C   0  0  0  0  0  0  0  0  0  0  0  0
   -7.0533    5.9909  -17.5361 C   0  0  0  0  0  0  0  0  0  0  0  0
   -7.0341    4.8551  -11.9044 C   0  0  0  0  0  0  0  0  0  0  0  0
  1  2  1  0
  2  3  1  0
  3  4  1  0
  4  5  1  0
  5  6  2  0
  6  7  1  0
  7  8  1  0
  8  9  1  0
  9 10  2  0
  9 11  1  0
 11 12  1  0
 11 13  1  0
 13 14  1  0
  7 15  2  0
 15  4  1  0
 14 11  1  0
M  END
>  <energy_score>  (3543) 
-13.477561

>  <alias>  (3543) 
MSDMHJROJKSZST-UHFFFAOYSA-N-P35-P35-P86-601527

>  <HIPPO Pose ID>  (3543) 
78587

>  <smiles>  (3543) 
CCCn1cnc(NC(=O)C2(C)CC2)c1

>  <inchikey>  (3543) 
MSDMHJROJKSZST-UHFFFAOYSA-N

>  <distance_score>  (3543) 
1.392342

>  <ref_mols>  (3543) 
Z0719a,Z1597a

>  <ref_pdb>  (3543) 
Z0719a

>  <HIPPO Compound ID>  (3543) 
150079

>  <name>  (3543) 
MSDMHJROJKSZST-UHFFFAOYSA-N-P35-P35-P86-601527

>  <inspiration_score>  (3543) 
None

$$$$
ZWWSWMIIRAHFMN-UHFFFAOYSA-N-P35-P35-P86-601527
     RDKit          3D

 15 16  0  0  0  0  0  0  0  0999 V2000
   -8.3403    2.6644  -10.6405 C   0  0  0  0  0  0  0  0  0  0  0  0
   -8.3131    4.0839  -10.4166 N   0  0  0  0  0  0  0  0  0  0  0  0
   -8.3963    4.6849   -9.1945 C   0  0  0  0  0  0  0  0  0  0  0  0
   -8.3888    5.9939   -9.3037 N   0  0  0  0  0  0  0  0  0  0  0  0
   -8.2683    6.2429  -10.6583 C   0  0  0  0  0  0  0  0  0  0  0  0
   -8.2882    7.5879  -11.1465 C   0  0  0  0  0  0  0  0  0  0  0  0
   -8.3378    8.6996  -11.4851 N   0  0  0  0  0  0  0  0  0  0  0  0
   -8.1656    5.0644  -11.3674 C   0  0  0  0  0  0  0  0  0  0  0  0
   -7.9220    4.7790  -12.6791 N   0  0  0  0  0  0  0  0  0  0  0  0
   -7.4310    5.6803  -13.8217 C   0  0  0  0  0  0  0  0  0  0  0  0
   -7.2295    6.8256  -13.8456 O   0  0  0  0  0  0  0  0  0  0  0  0
   -7.1059    4.8212  -15.0107 C   0  0  0  0  0  0  0  0  0  0  0  0
   -6.0458    3.7675  -14.7646 C   0  0  0  0  0  0  0  0  0  0  0  0
   -7.1425    5.4379  -16.4009 C   0  0  0  0  0  0  0  0  0  0  0  0
   -8.2478    4.5239  -15.9750 C   0  0  0  0  0  0  0  0  0  0  0  0
  1  2  1  0
  2  3  1  0
  3  4  2  0
  4  5  1  0
  5  6  1  0
  6  7  3  0
  5  8  2  0
  8  9  1  0
  9 10  1  0
 10 11  2  0
 10 12  1  0
 12 13  1  0
 12 14  1  0
 14 15  1  0
  8  2  1  0
 15 12  1  0
M  END
>  <energy_score>  (3544) 
-12.39894

>  <alias>  (3544) 
ZWWSWMIIRAHFMN-UHFFFAOYSA-N-P35-P35-P86-601527

>  <HIPPO Pose ID>  (3544) 
78589

>  <smiles>  (3544) 
Cn1cnc(C#N)c1NC(=O)C1(C)CC1

>  <inchikey>  (3544) 
ZWWSWMIIRAHFMN-UHFFFAOYSA-N

>  <distance_score>  (3544) 
1.136945

>  <ref_mols>  (3544) 
Z0719a,Z1597a

>  <ref_pdb>  (3544) 
Z0719a

>  <HIPPO Compound ID>  (3544) 
150080

>  <name>  (3544) 
ZWWSWMIIRAHFMN-UHFFFAOYSA-N-P35-P35-P86-601527

>  <inspiration_score>  (3544) 
None

$$$$
BXSCDEVXSJGMSP-UHFFFAOYSA-N-P86-P35-P86-601527
     RDKit          3D

 15 15  0  0  0  0  0  0  0  0999 V2000
   -1.7792    6.5451  -20.6743 C   0  0  0  0  0  0  0  0  0  0  0  0
   -3.0441    6.9763  -21.9030 S   0  0  0  0  0  0  0  0  0  0  0  0
   -4.5480    6.7730  -20.8760 C   0  0  0  0  0  0  0  0  0  0  0  0
   -4.7695    5.3560  -20.3710 C   0  0  0  0  0  0  0  0  0  0  0  0
   -4.7088    5.3121  -18.8507 C   0  0  0  0  0  0  0  0  0  0  0  0
   -3.6826    5.3035  -18.2874 O   0  0  0  0  0  0  0  0  0  0  0  0
   -6.1620    5.2338  -18.2997 N   0  0  0  0  0  0  0  0  0  0  0  0
   -6.6153    5.0453  -17.0353 C   0  0  0  0  0  0  0  0  0  0  0  0
   -5.8529    4.8952  -15.9103 C   0  0  0  0  0  0  0  0  0  0  0  0
   -6.7107    4.4597  -14.9269 N   0  0  0  0  0  0  0  0  0  0  0  0
   -6.3025    3.8875  -13.6391 C   0  0  0  0  0  0  0  0  0  0  0  0
   -5.2526    4.7125  -12.8986 C   0  0  0  0  0  0  0  0  0  0  0  0
   -7.4515    3.5309  -12.6980 C   0  0  0  0  0  0  0  0  0  0  0  0
   -7.9645    4.4934  -15.4883 C   0  0  0  0  0  0  0  0  0  0  0  0
   -7.9306    4.8789  -16.7502 N   0  0  0  0  0  0  0  0  0  0  0  0
  1  2  1  0
  2  3  1  0
  3  4  1  0
  4  5  1  0
  5  6  2  0
  5  7  1  0
  7  8  1  0
  8  9  2  0
  9 10  1  0
 10 11  1  0
 11 12  1  0
 11 13  1  0
 10 14  1  0
 14 15  2  0
 15  8  1  0
M  END
>  <energy_score>  (3545) 
-12.464523

>  <alias>  (3545) 
BXSCDEVXSJGMSP-UHFFFAOYSA-N-P86-P35-P86-601527

>  <HIPPO Pose ID>  (3545) 
78600

>  <smiles>  (3545) 
CSCCC(=O)Nc1cn(C(C)C)cn1

>  <inchikey>  (3545) 
BXSCDEVXSJGMSP-UHFFFAOYSA-N

>  <distance_score>  (3545) 
1.907563

>  <ref_mols>  (3545) 
Z0719a,Z1597a

>  <ref_pdb>  (3545) 
Z0719a

>  <HIPPO Compound ID>  (3545) 
150085

>  <name>  (3545) 
BXSCDEVXSJGMSP-UHFFFAOYSA-N-P86-P35-P86-601527

>  <inspiration_score>  (3545) 
None

$$$$
MXJVXXRMQHGKPF-UHFFFAOYSA-N-P86-P35-P86-601527
     RDKit          3D

 15 16  0  0  0  0  0  0  0  0999 V2000
   -5.2324    2.2401  -11.6354 C   0  0  0  0  0  0  0  0  0  0  0  0
   -5.9366    2.9951  -10.4876 C   0  0  0  0  0  0  0  0  0  0  0  0
   -4.9716    3.8866   -9.7128 C   0  0  0  0  0  0  0  0  0  0  0  0
   -7.0681    3.7480  -11.0258 N   0  0  0  0  0  0  0  0  0  0  0  0
   -8.3490    3.2679  -11.0420 C   0  0  0  0  0  0  0  0  0  0  0  0
   -8.9394    3.5905  -12.1720 N   0  0  0  0  0  0  0  0  0  0  0  0
   -8.0281    4.3341  -12.8535 C   0  0  0  0  0  0  0  0  0  0  0  0
   -8.1274    4.4904  -14.1943 N   0  0  0  0  0  0  0  0  0  0  0  0
   -7.1609    5.1505  -15.2016 C   0  0  0  0  0  0  0  0  0  0  0  0
   -6.1636    5.7316  -15.0242 O   0  0  0  0  0  0  0  0  0  0  0  0
   -7.5670    4.8882  -16.6712 C   0  0  0  0  0  0  0  0  0  0  0  0
   -8.8758    4.1954  -16.9884 C   0  0  0  0  0  0  0  0  0  0  0  0
   -7.0432    5.8590  -17.7386 C   0  0  0  0  0  0  0  0  0  0  0  0
   -6.4158    4.5302  -17.6053 C   0  0  0  0  0  0  0  0  0  0  0  0
   -6.9596    4.6553  -12.0582 C   0  0  0  0  0  0  0  0  0  0  0  0
  1  2  1  0
  2  3  1  0
  2  4  1  0
  4  5  1  0
  5  6  2  0
  6  7  1  0
  7  8  1  0
  8  9  1  0
  9 10  2  0
  9 11  1  0
 11 12  1  0
 11 13  1  0
 13 14  1  0
  7 15  2  0
 15  4  1  0
 14 11  1  0
M  END
>  <energy_score>  (3546) 
-30.450696

>  <alias>  (3546) 
MXJVXXRMQHGKPF-UHFFFAOYSA-N-P86-P35-P86-601527

>  <HIPPO Pose ID>  (3546) 
78608

>  <smiles>  (3546) 
CC(C)n1cnc(NC(=O)C2(C)CC2)c1

>  <inchikey>  (3546) 
MXJVXXRMQHGKPF-UHFFFAOYSA-N

>  <distance_score>  (3546) 
1.684773

>  <ref_mols>  (3546) 
Z0719a,Z1597a

>  <ref_pdb>  (3546) 
Z0719a

>  <HIPPO Compound ID>  (3546) 
150089

>  <name>  (3546) 
MXJVXXRMQHGKPF-UHFFFAOYSA-N-P86-P35-P86-601527

>  <inspiration_score>  (3546) 
None

$$$$
KNPDVJBATKUGGJ-UHFFFAOYSA-N-P86-P35-P86-601527
     RDKit          3D

 15 17  0  0  0  0  0  0  0  0999 V2000
   -4.5932    6.6234  -21.2873 C   0  0  0  0  0  0  0  0  0  0  0  0
   -3.9743    6.0002  -20.0623 C   0  0  0  0  0  0  0  0  0  0  0  0
   -4.8486    5.8187  -18.8283 C   0  0  0  0  0  0  0  0  0  0  0  0
   -4.4383    6.1993  -17.8047 O   0  0  0  0  0  0  0  0  0  0  0  0
   -6.1427    5.0465  -19.1627 N   0  0  0  0  0  0  0  0  0  0  0  0
   -7.1911    4.6838  -18.3650 C   0  0  0  0  0  0  0  0  0  0  0  0
   -8.4043    4.0914  -18.6869 C   0  0  0  0  0  0  0  0  0  0  0  0
   -9.1636    3.8082  -17.5626 N   0  0  0  0  0  0  0  0  0  0  0  0
   -8.4215    4.2417  -16.5790 C   0  0  0  0  0  0  0  0  0  0  0  0
   -7.2607    4.7914  -17.0250 N   0  0  0  0  0  0  0  0  0  0  0  0
   -6.4290    5.2907  -15.9615 C   0  0  0  0  0  0  0  0  0  0  0  0
   -7.3600    5.2516  -14.7525 C   0  0  0  0  0  0  0  0  0  0  0  0
   -8.4987    4.2838  -15.1111 C   0  0  0  0  0  0  0  0  0  0  0  0
   -2.8811    4.9602  -20.2770 C   0  0  0  0  0  0  0  0  0  0  0  0
   -2.4998    6.3336  -19.8273 C   0  0  0  0  0  0  0  0  0  0  0  0
  1  2  1  0
  2  3  1  0
  3  4  2  0
  3  5  1  0
  5  6  1  0
  6  7  2  0
  7  8  1  0
  8  9  2  0
  9 10  1  0
 10 11  1  0
 11 12  1  0
 12 13  1  0
  2 14  1  0
 14 15  1  0
 15  2  1  0
 10  6  1  0
 13  9  1  0
M  END
>  <energy_score>  (3547) 
-38.496158

>  <alias>  (3547) 
KNPDVJBATKUGGJ-UHFFFAOYSA-N-P86-P35-P86-601527

>  <HIPPO Pose ID>  (3547) 
78614

>  <smiles>  (3547) 
CC1(C(=O)Nc2cnc3n2CCC3)CC1

>  <inchikey>  (3547) 
KNPDVJBATKUGGJ-UHFFFAOYSA-N

>  <distance_score>  (3547) 
1.486463

>  <ref_mols>  (3547) 
Z0719a,Z1597a

>  <ref_pdb>  (3547) 
Z0719a

>  <HIPPO Compound ID>  (3547) 
150092

>  <name>  (3547) 
KNPDVJBATKUGGJ-UHFFFAOYSA-N-P86-P35-P86-601527

>  <inspiration_score>  (3547) 
None

$$$$
JIBAWHOWLVFPJA-UHFFFAOYSA-N-P86-P35-P86-601527
     RDKit          3D

 15 16  0  0  0  0  0  0  0  0999 V2000
   -3.0393    6.7467  -22.3349 C   0  0  0  0  0  0  0  0  0  0  0  0
   -4.3998    6.7836  -21.7312 C   0  0  0  0  0  0  0  0  0  0  0  0
   -5.4162    7.1054  -22.3336 O   0  0  0  0  0  0  0  0  0  0  0  0
   -4.4539    6.4274  -20.2559 C   0  0  0  0  0  0  0  0  0  0  0  0
   -3.5431    6.6515  -19.5685 O   0  0  0  0  0  0  0  0  0  0  0  0
   -5.7874    5.7425  -19.9458 N   0  0  0  0  0  0  0  0  0  0  0  0
   -6.2934    5.2994  -18.7785 C   0  0  0  0  0  0  0  0  0  0  0  0
   -7.4918    4.6517  -18.6123 C   0  0  0  0  0  0  0  0  0  0  0  0
   -7.6424    4.5527  -17.2649 N   0  0  0  0  0  0  0  0  0  0  0  0
   -8.7593    4.1284  -16.6269 N   0  0  0  0  0  0  0  0  0  0  0  0
   -8.6549    4.2591  -15.3456 C   0  0  0  0  0  0  0  0  0  0  0  0
   -7.4786    4.7371  -14.5882 C   0  0  0  0  0  0  0  0  0  0  0  0
   -6.4217    5.1410  -15.2934 C   0  0  0  0  0  0  0  0  0  0  0  0
   -6.4979    5.0945  -16.6962 C   0  0  0  0  0  0  0  0  0  0  0  0
   -5.6605    5.5360  -17.6021 N   0  0  0  0  0  0  0  0  0  0  0  0
  1  2  1  0
  2  3  2  0
  2  4  1  0
  4  5  2  0
  4  6  1  0
  6  7  1  0
  7  8  2  0
  8  9  1  0
  9 10  1  0
 10 11  2  0
 11 12  1  0
 12 13  2  0
 13 14  1  0
 14 15  2  0
 15  7  1  0
 14  9  1  0
M  END
>  <energy_score>  (3548) 
-31.223308

>  <alias>  (3548) 
JIBAWHOWLVFPJA-UHFFFAOYSA-N-P86-P35-P86-601527

>  <HIPPO Pose ID>  (3548) 
78620

>  <smiles>  (3548) 
CC(=O)C(=O)Nc1cn2ncccc2n1

>  <inchikey>  (3548) 
JIBAWHOWLVFPJA-UHFFFAOYSA-N

>  <distance_score>  (3548) 
1.645862

>  <ref_mols>  (3548) 
Z0719a,Z1597a

>  <ref_pdb>  (3548) 
Z0719a

>  <HIPPO Compound ID>  (3548) 
150095

>  <name>  (3548) 
JIBAWHOWLVFPJA-UHFFFAOYSA-N-P86-P35-P86-601527

>  <inspiration_score>  (3548) 
None

$$$$
KOUJJJOTZZPENJ-UHFFFAOYSA-N-P35-P35-P86-601527
     RDKit          3D

 15 16  0  0  0  0  0  0  0  0999 V2000
   -4.6096    2.7084  -12.9313 C   0  0  0  0  0  0  0  0  0  0  0  0
   -5.2650    2.0802  -11.7108 C   0  0  0  0  0  0  0  0  0  0  0  0
   -5.7324    3.0791  -10.6260 C   0  0  0  0  0  0  0  0  0  0  0  0
   -6.9759    3.7366  -10.9912 N   0  0  0  0  0  0  0  0  0  0  0  0
   -8.2012    3.1377  -10.9018 C   0  0  0  0  0  0  0  0  0  0  0  0
   -8.9142    3.4212  -11.9686 N   0  0  0  0  0  0  0  0  0  0  0  0
   -8.1421    4.2746  -12.6935 C   0  0  0  0  0  0  0  0  0  0  0  0
   -8.3249    4.4385  -14.0247 N   0  0  0  0  0  0  0  0  0  0  0  0
   -7.5186    5.2518  -15.0516 C   0  0  0  0  0  0  0  0  0  0  0  0
   -6.6136    5.9728  -14.9031 O   0  0  0  0  0  0  0  0  0  0  0  0
   -7.9855    4.9256  -16.4548 C   0  0  0  0  0  0  0  0  0  0  0  0
   -9.2762    4.2765  -16.5527 O   0  0  0  0  0  0  0  0  0  0  0  0
   -6.9614    4.4230  -17.4505 C   0  0  0  0  0  0  0  0  0  0  0  0
   -7.5568    5.7711  -17.6301 C   0  0  0  0  0  0  0  0  0  0  0  0
   -7.0617    4.7050  -11.9639 C   0  0  0  0  0  0  0  0  0  0  0  0
  1  2  1  0
  2  3  1  0
  3  4  1  0
  4  5  1  0
  5  6  2  0
  6  7  1  0
  7  8  1  0
  8  9  1  0
  9 10  2  0
  9 11  1  0
 11 12  1  0
 11 13  1  0
 13 14  1  0
  7 15  2  0
 15  4  1  0
 14 11  1  0
M  END
>  <energy_score>  (3549) 
-1.024871

>  <alias>  (3549) 
KOUJJJOTZZPENJ-UHFFFAOYSA-N-P35-P35-P86-601527

>  <HIPPO Pose ID>  (3549) 
78623

>  <smiles>  (3549) 
CCCn1cnc(NC(=O)C2(O)CC2)c1

>  <inchikey>  (3549) 
KOUJJJOTZZPENJ-UHFFFAOYSA-N

>  <distance_score>  (3549) 
1.702475

>  <ref_mols>  (3549) 
Z0719a,Z1597a

>  <ref_pdb>  (3549) 
Z0719a

>  <HIPPO Compound ID>  (3549) 
150097

>  <name>  (3549) 
KOUJJJOTZZPENJ-UHFFFAOYSA-N-P35-P35-P86-601527

>  <inspiration_score>  (3549) 
None

$$$$
TYPSHMJUGFXTBI-UHFFFAOYSA-N-P86-P35-P86-601527
     RDKit          3D

 15 16  0  0  0  0  0  0  0  0999 V2000
   -8.8956    2.6407  -11.2616 C   0  0  0  0  0  0  0  0  0  0  0  0
   -8.1565    3.8644  -11.2763 N   0  0  0  0  0  0  0  0  0  0  0  0
   -7.5804    4.4115  -10.1578 C   0  0  0  0  0  0  0  0  0  0  0  0
   -6.6103    5.2391  -10.4791 N   0  0  0  0  0  0  0  0  0  0  0  0
   -6.6043    5.2269  -11.8558 C   0  0  0  0  0  0  0  0  0  0  0  0
   -5.4496    5.5587  -12.6385 C   0  0  0  0  0  0  0  0  0  0  0  0
   -4.5454    5.6179  -13.3673 N   0  0  0  0  0  0  0  0  0  0  0  0
   -7.6758    4.5254  -12.3771 C   0  0  0  0  0  0  0  0  0  0  0  0
   -8.0531    4.4229  -13.6957 N   0  0  0  0  0  0  0  0  0  0  0  0
   -7.7129    5.3199  -14.9106 C   0  0  0  0  0  0  0  0  0  0  0  0
   -7.1244    6.3256  -14.9664 O   0  0  0  0  0  0  0  0  0  0  0  0
   -8.1841    4.7264  -16.2152 C   0  0  0  0  0  0  0  0  0  0  0  0
   -9.4700    4.0835  -16.1902 O   0  0  0  0  0  0  0  0  0  0  0  0
   -7.7734    5.3466  -17.5494 C   0  0  0  0  0  0  0  0  0  0  0  0
   -7.1657    4.0873  -17.1136 C   0  0  0  0  0  0  0  0  0  0  0  0
  1  2  1  0
  2  3  1  0
  3  4  2  0
  4  5  1  0
  5  6  1  0
  6  7  3  0
  5  8  2  0
  8  9  1  0
  9 10  1  0
 10 11  2  0
 10 12  1  0
 12 13  1  0
 12 14  1  0
 14 15  1  0
  8  2  1  0
 15 12  1  0
M  END
>  <energy_score>  (3550) 
-5.789593

>  <alias>  (3550) 
TYPSHMJUGFXTBI-UHFFFAOYSA-N-P86-P35-P86-601527

>  <HIPPO Pose ID>  (3550) 
78626

>  <smiles>  (3550) 
Cn1cnc(C#N)c1NC(=O)C1(O)CC1

>  <inchikey>  (3550) 
TYPSHMJUGFXTBI-UHFFFAOYSA-N

>  <distance_score>  (3550) 
1.3941

>  <ref_mols>  (3550) 
Z0719a,Z1597a

>  <ref_pdb>  (3550) 
Z0719a

>  <HIPPO Compound ID>  (3550) 
150098

>  <name>  (3550) 
TYPSHMJUGFXTBI-UHFFFAOYSA-N-P86-P35-P86-601527

>  <inspiration_score>  (3550) 
None

$$$$
HJRATECMFLNYPM-UHFFFAOYSA-N-P35-P35-P86-601527
     RDKit          3D

 15 16  0  0  0  0  0  0  0  0999 V2000
   -5.1607    2.3512  -11.7654 C   0  0  0  0  0  0  0  0  0  0  0  0
   -5.7971    3.0050  -10.5168 C   0  0  0  0  0  0  0  0  0  0  0  0
   -4.8214    3.9291   -9.7957 C   0  0  0  0  0  0  0  0  0  0  0  0
   -7.0262    3.6998  -10.9039 N   0  0  0  0  0  0  0  0  0  0  0  0
   -8.2604    3.1116  -10.8429 C   0  0  0  0  0  0  0  0  0  0  0  0
   -8.9443    3.3847  -11.9312 N   0  0  0  0  0  0  0  0  0  0  0  0
   -8.1533    4.2264  -12.6479 C   0  0  0  0  0  0  0  0  0  0  0  0
   -8.3300    4.4042  -13.9784 N   0  0  0  0  0  0  0  0  0  0  0  0
   -7.5197    5.2294  -14.9931 C   0  0  0  0  0  0  0  0  0  0  0  0
   -6.6161    5.9498  -14.8327 O   0  0  0  0  0  0  0  0  0  0  0  0
   -7.9787    4.9186  -16.4036 C   0  0  0  0  0  0  0  0  0  0  0  0
   -9.2772    4.2875  -16.5195 O   0  0  0  0  0  0  0  0  0  0  0  0
   -6.9521    4.4191  -17.3975 C   0  0  0  0  0  0  0  0  0  0  0  0
   -7.5351    5.7739  -17.5675 C   0  0  0  0  0  0  0  0  0  0  0  0
   -7.0800    4.6474  -11.9045 C   0  0  0  0  0  0  0  0  0  0  0  0
  1  2  1  0
  2  3  1  0
  2  4  1  0
  4  5  1  0
  5  6  2  0
  6  7  1  0
  7  8  1  0
  8  9  1  0
  9 10  2  0
  9 11  1  0
 11 12  1  0
 11 13  1  0
 13 14  1  0
  7 15  2  0
 15  4  1  0
 14 11  1  0
M  END
>  <energy_score>  (3551) 
-32.628121

>  <alias>  (3551) 
HJRATECMFLNYPM-UHFFFAOYSA-N-P35-P35-P86-601527

>  <HIPPO Pose ID>  (3551) 
78627

>  <smiles>  (3551) 
CC(C)n1cnc(NC(=O)C2(O)CC2)c1

>  <inchikey>  (3551) 
HJRATECMFLNYPM-UHFFFAOYSA-N

>  <distance_score>  (3551) 
1.532272

>  <ref_mols>  (3551) 
Z0719a,Z1597a

>  <ref_pdb>  (3551) 
Z0719a

>  <HIPPO Compound ID>  (3551) 
150099

>  <name>  (3551) 
HJRATECMFLNYPM-UHFFFAOYSA-N-P35-P35-P86-601527

>  <inspiration_score>  (3551) 
None

$$$$
QIAFDRNZMSJOGJ-UHFFFAOYSA-N-P86-P35-P86-601527
     RDKit          3D

 15 17  0  0  0  0  0  0  0  0999 V2000
   -4.1020    5.6112  -17.9244 O   0  0  0  0  0  0  0  0  0  0  0  0
   -4.6711    5.5283  -18.9406 C   0  0  0  0  0  0  0  0  0  0  0  0
   -6.1412    5.1620  -19.2375 N   0  0  0  0  0  0  0  0  0  0  0  0
   -7.1398    4.7514  -18.4006 C   0  0  0  0  0  0  0  0  0  0  0  0
   -8.4007    4.2414  -18.6780 C   0  0  0  0  0  0  0  0  0  0  0  0
   -9.1099    3.9489  -17.5247 N   0  0  0  0  0  0  0  0  0  0  0  0
   -8.2960    4.3054  -16.5678 C   0  0  0  0  0  0  0  0  0  0  0  0
   -7.1106    4.7633  -17.0527 N   0  0  0  0  0  0  0  0  0  0  0  0
   -6.2430    5.2905  -16.0259 C   0  0  0  0  0  0  0  0  0  0  0  0
   -7.1627    5.3453  -14.8028 C   0  0  0  0  0  0  0  0  0  0  0  0
   -8.3521    4.4111  -15.1032 C   0  0  0  0  0  0  0  0  0  0  0  0
   -3.9150    5.8087  -20.2261 C   0  0  0  0  0  0  0  0  0  0  0  0
   -4.6968    5.8084  -21.4382 O   0  0  0  0  0  0  0  0  0  0  0  0
   -2.7733    6.7959  -20.2333 C   0  0  0  0  0  0  0  0  0  0  0  0
   -2.4907    5.3286  -20.3815 C   0  0  0  0  0  0  0  0  0  0  0  0
  1  2  2  0
  2  3  1  0
  3  4  1  0
  4  5  2  0
  5  6  1  0
  6  7  2  0
  7  8  1  0
  8  9  1  0
  9 10  1  0
 10 11  1  0
  2 12  1  0
 12 13  1  0
 12 14  1  0
 14 15  1  0
  8  4  1  0
 15 12  1  0
 11  7  1  0
M  END
>  <energy_score>  (3552) 
-8.064303

>  <alias>  (3552) 
QIAFDRNZMSJOGJ-UHFFFAOYSA-N-P86-P35-P86-601527

>  <HIPPO Pose ID>  (3552) 
78634

>  <smiles>  (3552) 
O=C(Nc1cnc2n1CCC2)C1(O)CC1

>  <inchikey>  (3552) 
QIAFDRNZMSJOGJ-UHFFFAOYSA-N

>  <distance_score>  (3552) 
1.082494

>  <ref_mols>  (3552) 
Z0719a,Z1597a

>  <ref_pdb>  (3552) 
Z0719a

>  <HIPPO Compound ID>  (3552) 
150102

>  <name>  (3552) 
QIAFDRNZMSJOGJ-UHFFFAOYSA-N-P86-P35-P86-601527

>  <inspiration_score>  (3552) 
None

$$$$
GKOGYTFSRYBAPW-UHFFFAOYSA-N-P35-P35-P86-601527
     RDKit          3D

 15 16  0  0  0  0  0  0  0  0999 V2000
   -8.4889    7.3001  -11.7927 C   0  0  0  0  0  0  0  0  0  0  0  0
   -8.1186    5.9139  -11.4462 C   0  0  0  0  0  0  0  0  0  0  0  0
   -8.1357    5.5106  -10.1296 N   0  0  0  0  0  0  0  0  0  0  0  0
   -7.8198    4.2299  -10.1354 C   0  0  0  0  0  0  0  0  0  0  0  0
   -7.8124    3.3499   -8.9484 C   0  0  0  0  0  0  0  0  0  0  0  0
   -7.4789    3.8230  -11.4018 N   0  0  0  0  0  0  0  0  0  0  0  0
   -6.8814    2.5647  -11.7998 C   0  0  0  0  0  0  0  0  0  0  0  0
   -7.7487    4.8645  -12.2581 C   0  0  0  0  0  0  0  0  0  0  0  0
   -7.6131    4.7024  -13.6022 N   0  0  0  0  0  0  0  0  0  0  0  0
   -7.6591    5.7276  -14.7374 C   0  0  0  0  0  0  0  0  0  0  0  0
   -7.8965    6.8663  -14.7170 O   0  0  0  0  0  0  0  0  0  0  0  0
   -7.2941    4.9833  -15.9829 C   0  0  0  0  0  0  0  0  0  0  0  0
   -6.3737    3.9008  -15.7317 O   0  0  0  0  0  0  0  0  0  0  0  0
   -7.2180    5.6004  -17.3437 C   0  0  0  0  0  0  0  0  0  0  0  0
   -8.3695    4.6919  -16.9953 C   0  0  0  0  0  0  0  0  0  0  0  0
  1  2  1  0
  2  3  1  0
  3  4  2  0
  4  5  1  0
  4  6  1  0
  6  7  1  0
  6  8  1  0
  8  9  1  0
  9 10  1  0
 10 11  2  0
 10 12  1  0
 12 13  1  0
 12 14  1  0
 14 15  1  0
  8  2  2  0
 15 12  1  0
M  END
>  <energy_score>  (3553) 
-22.725405

>  <alias>  (3553) 
GKOGYTFSRYBAPW-UHFFFAOYSA-N-P35-P35-P86-601527

>  <HIPPO Pose ID>  (3553) 
78635

>  <smiles>  (3553) 
Cc1nc(C)n(C)c1NC(=O)C1(O)CC1

>  <inchikey>  (3553) 
GKOGYTFSRYBAPW-UHFFFAOYSA-N

>  <distance_score>  (3553) 
1.525887

>  <ref_mols>  (3553) 
Z0719a,Z1597a

>  <ref_pdb>  (3553) 
Z0719a

>  <HIPPO Compound ID>  (3553) 
150103

>  <name>  (3553) 
GKOGYTFSRYBAPW-UHFFFAOYSA-N-P35-P35-P86-601527

>  <inspiration_score>  (3553) 
None

$$$$
PFUHRRNFZIKSGW-UHFFFAOYSA-N-P86-P35-P86-601527
     RDKit          3D

 15 15  0  0  0  0  0  0  0  0999 V2000
   -4.5792    6.7604  -20.3411 C   0  0  0  0  0  0  0  0  0  0  0  0
   -4.0258    6.4903  -18.9366 C   0  0  2  0  0  0  0  0  0  0  0  0
   -3.0422    5.3297  -18.8957 C   0  0  0  0  0  0  0  0  0  0  0  0
   -1.3620    5.8209  -19.7508 Br  0  0  0  0  0  0  0  0  0  0  0  0
   -5.0912    6.2641  -17.8441 C   0  0  0  0  0  0  0  0  0  0  0  0
   -4.9780    6.7576  -16.7915 O   0  0  0  0  0  0  0  0  0  0  0  0
   -6.1682    5.2933  -18.3864 N   0  0  0  0  0  0  0  0  0  0  0  0
   -7.2091    4.6925  -17.7583 C   0  0  0  0  0  0  0  0  0  0  0  0
   -8.1293    4.0965  -18.5702 N   0  0  0  0  0  0  0  0  0  0  0  0
   -9.1291    3.7459  -17.7956 C   0  0  0  0  0  0  0  0  0  0  0  0
   -8.8557    3.9990  -16.4908 N   0  0  0  0  0  0  0  0  0  0  0  0
   -7.6155    4.5764  -16.4607 C   0  0  0  0  0  0  0  0  0  0  0  0
   -7.0597    4.8809  -15.2114 N   0  0  0  0  0  0  0  0  0  0  0  0
   -5.8731    4.6119  -15.0116 O   0  0  0  0  0  0  0  0  0  0  0  0
   -7.8635    5.3446  -14.3961 O   0  0  0  0  0  0  0  0  0  0  0  0
  2  1  1  6
  2  3  1  0
  3  4  1  0
  2  5  1  0
  5  6  2  0
  5  7  1  0
  7  8  1  0
  8  9  1  0
  9 10  2  0
 10 11  1  0
 11 12  1  0
 12 13  1  0
 13 14  2  0
 13 15  1  0
 12  8  2  0
M  CHG  2  13   1  15  -1
M  END
>  <energy_score>  (3554) 
-35.127898

>  <alias>  (3554) 
PFUHRRNFZIKSGW-UHFFFAOYSA-N-P86-P35-P86-601527

>  <HIPPO Pose ID>  (3554) 
78656

>  <smiles>  (3554) 
CC(CBr)C(=O)Nc1nc[nH]c1[N+](=O)[O-]

>  <inchikey>  (3554) 
PFUHRRNFZIKSGW-UHFFFAOYSA-N

>  <distance_score>  (3554) 
1.519919

>  <ref_mols>  (3554) 
Z0719a,Z1597a

>  <ref_pdb>  (3554) 
Z0719a

>  <HIPPO Compound ID>  (3554) 
150113

>  <name>  (3554) 
PFUHRRNFZIKSGW-UHFFFAOYSA-N-P86-P35-P86-601527

>  <inspiration_score>  (3554) 
None

$$$$
GNODEBHXEBCAAA-UHFFFAOYSA-N-P86-P35-P86-601527
     RDKit          3D

 15 15  0  0  0  0  0  0  0  0999 V2000
   -4.9106    8.1994  -20.1633 C   0  0  0  0  0  0  0  0  0  0  0  0
   -4.2720    6.8181  -20.1929 C   0  0  0  0  0  0  0  0  0  0  0  0
   -3.8066    6.3775  -18.7927 C   0  0  2  0  0  0  0  0  0  0  0  0
   -2.9462    5.1187  -18.8706 C   0  0  0  0  0  0  0  0  0  0  0  0
   -4.9329    6.1999  -17.7440 C   0  0  0  0  0  0  0  0  0  0  0  0
   -4.9156    6.7866  -16.7335 O   0  0  0  0  0  0  0  0  0  0  0  0
   -5.9180    5.1214  -18.2624 N   0  0  0  0  0  0  0  0  0  0  0  0
   -7.0647    4.6420  -17.7196 C   0  0  0  0  0  0  0  0  0  0  0  0
   -7.9692    4.0939  -18.5830 N   0  0  0  0  0  0  0  0  0  0  0  0
   -9.0342    3.8103  -17.8683 C   0  0  0  0  0  0  0  0  0  0  0  0
   -8.8353    4.0859  -16.5544 N   0  0  0  0  0  0  0  0  0  0  0  0
   -7.5663    4.5881  -16.4516 C   0  0  0  0  0  0  0  0  0  0  0  0
   -7.0632    4.8654  -15.1728 N   0  0  0  0  0  0  0  0  0  0  0  0
   -5.8816    4.6091  -14.9312 O   0  0  0  0  0  0  0  0  0  0  0  0
   -7.9043    5.3024  -14.3796 O   0  0  0  0  0  0  0  0  0  0  0  0
  1  2  1  0
  2  3  1  0
  3  4  1  6
  3  5  1  0
  5  6  2  0
  5  7  1  0
  7  8  1  0
  8  9  1  0
  9 10  2  0
 10 11  1  0
 11 12  1  0
 12 13  1  0
 13 14  2  0
 13 15  1  0
 12  8  2  0
M  CHG  2  13   1  15  -1
M  END
>  <energy_score>  (3555) 
-19.924598

>  <alias>  (3555) 
GNODEBHXEBCAAA-UHFFFAOYSA-N-P86-P35-P86-601527

>  <HIPPO Pose ID>  (3555) 
78660

>  <smiles>  (3555) 
CCC(C)C(=O)Nc1nc[nH]c1[N+](=O)[O-]

>  <inchikey>  (3555) 
GNODEBHXEBCAAA-UHFFFAOYSA-N

>  <distance_score>  (3555) 
1.579154

>  <ref_mols>  (3555) 
Z0719a,Z1597a

>  <ref_pdb>  (3555) 
Z0719a

>  <HIPPO Compound ID>  (3555) 
150115

>  <name>  (3555) 
GNODEBHXEBCAAA-UHFFFAOYSA-N-P86-P35-P86-601527

>  <inspiration_score>  (3555) 
None

$$$$
MLZFWYFZULMUQM-UHFFFAOYSA-N-P86-P35-P86-601527
     RDKit          3D

 15 15  0  0  0  0  0  0  0  0999 V2000
   -6.2082    3.4286  -12.4039 C   0  0  0  0  0  0  0  0  0  0  0  0
   -6.1337    4.2061  -13.7018 C   0  0  0  0  0  0  0  0  0  0  0  0
   -7.5001    4.2924  -14.4172 C   0  0  0  0  0  0  0  0  0  0  0  0
   -7.4787    4.5516  -15.8436 N   0  0  0  0  0  0  0  0  0  0  0  0
   -8.5021    4.3170  -16.7185 C   0  0  0  0  0  0  0  0  0  0  0  0
   -8.1473    4.6043  -17.9554 N   0  0  0  0  0  0  0  0  0  0  0  0
   -6.8543    5.0094  -17.8703 C   0  0  0  0  0  0  0  0  0  0  0  0
   -6.0839    5.2766  -18.9488 N   0  0  0  0  0  0  0  0  0  0  0  0
   -4.5712    5.6398  -19.0463 C   0  0  0  0  0  0  0  0  0  0  0  0
   -3.7834    5.8378  -18.2040 O   0  0  0  0  0  0  0  0  0  0  0  0
   -4.1893    5.6452  -20.5322 C   0  0  1  0  0  0  0  0  0  0  0  0
   -4.6686    6.9121  -21.2253 C   0  0  0  0  0  0  0  0  0  0  0  0
   -2.6911    5.3793  -20.7193 C   0  0  0  0  0  0  0  0  0  0  0  0
   -1.5400    6.9096  -20.3375 Br  0  0  0  0  0  0  0  0  0  0  0  0
   -6.4393    5.0480  -16.5693 C   0  0  0  0  0  0  0  0  0  0  0  0
  1  2  1  0
  2  3  1  0
  3  4  1  0
  4  5  1  0
  5  6  2  0
  6  7  1  0
  7  8  1  0
  8  9  1  0
  9 10  2  0
  9 11  1  0
 11 12  1  1
 11 13  1  0
 13 14  1  0
  7 15  2  0
 15  4  1  0
M  END
>  <energy_score>  (3556) 
-17.051505

>  <alias>  (3556) 
MLZFWYFZULMUQM-UHFFFAOYSA-N-P86-P35-P86-601527

>  <HIPPO Pose ID>  (3556) 
78682

>  <smiles>  (3556) 
CCCn1cnc(NC(=O)C(C)CBr)c1

>  <inchikey>  (3556) 
MLZFWYFZULMUQM-UHFFFAOYSA-N

>  <distance_score>  (3556) 
1.628207

>  <ref_mols>  (3556) 
Z0719a,Z1597a

>  <ref_pdb>  (3556) 
Z0719a

>  <HIPPO Compound ID>  (3556) 
150126

>  <name>  (3556) 
MLZFWYFZULMUQM-UHFFFAOYSA-N-P86-P35-P86-601527

>  <inspiration_score>  (3556) 
None

$$$$
AVSUPBKRKIKWKJ-UHFFFAOYSA-N-P86-P35-P86-601527
     RDKit          3D

 15 16  0  0  0  0  0  0  0  0999 V2000
   -4.5962    6.8432  -21.0324 C   0  0  0  0  0  0  0  0  0  0  0  0
   -4.2420    5.5090  -20.3872 C   0  0  1  0  0  0  0  0  0  0  0  0
   -2.7359    5.2379  -20.3359 C   0  0  0  0  0  0  0  0  0  0  0  0
   -1.6846    6.6956  -19.5781 Br  0  0  0  0  0  0  0  0  0  0  0  0
   -4.8921    5.3491  -19.0037 C   0  0  0  0  0  0  0  0  0  0  0  0
   -4.2840    5.4299  -18.0071 O   0  0  0  0  0  0  0  0  0  0  0  0
   -6.3990    5.0212  -19.2447 N   0  0  0  0  0  0  0  0  0  0  0  0
   -7.3752    4.6567  -18.3682 C   0  0  0  0  0  0  0  0  0  0  0  0
   -8.6564    4.1839  -18.6023 C   0  0  0  0  0  0  0  0  0  0  0  0
   -9.3249    3.8921  -17.4256 N   0  0  0  0  0  0  0  0  0  0  0  0
   -8.4696    4.2274  -16.4959 C   0  0  0  0  0  0  0  0  0  0  0  0
   -7.2968    4.6685  -17.0254 N   0  0  0  0  0  0  0  0  0  0  0  0
   -6.3936    5.1972  -16.0354 C   0  0  0  0  0  0  0  0  0  0  0  0
   -7.2759    5.2915  -14.7918 C   0  0  0  0  0  0  0  0  0  0  0  0
   -8.4602    4.3353  -15.0279 C   0  0  0  0  0  0  0  0  0  0  0  0
  2  1  1  1
  2  3  1  0
  3  4  1  0
  2  5  1  0
  5  6  2  0
  5  7  1  0
  7  8  1  0
  8  9  2  0
  9 10  1  0
 10 11  2  0
 11 12  1  0
 12 13  1  0
 13 14  1  0
 14 15  1  0
 12  8  1  0
 15 11  1  0
M  END
>  <energy_score>  (3557) 
-29.210237

>  <alias>  (3557) 
AVSUPBKRKIKWKJ-UHFFFAOYSA-N-P86-P35-P86-601527

>  <HIPPO Pose ID>  (3557) 
78692

>  <smiles>  (3557) 
CC(CBr)C(=O)Nc1cnc2n1CCC2

>  <inchikey>  (3557) 
AVSUPBKRKIKWKJ-UHFFFAOYSA-N

>  <distance_score>  (3557) 
1.442478

>  <ref_mols>  (3557) 
Z0719a,Z1597a

>  <ref_pdb>  (3557) 
Z0719a

>  <HIPPO Compound ID>  (3557) 
150131

>  <name>  (3557) 
AVSUPBKRKIKWKJ-UHFFFAOYSA-N-P86-P35-P86-601527

>  <inspiration_score>  (3557) 
None

$$$$
JTWHPYZKRRMUJV-UHFFFAOYSA-N-P35-P35-P86-601527
     RDKit          3D

 15 15  0  0  0  0  0  0  0  0999 V2000
   -4.5808    7.2115  -20.7299 C   0  0  0  0  0  0  0  0  0  0  0  0
   -3.8449    6.0061  -20.2292 C   0  0  0  0  0  0  0  0  0  0  0  0
   -2.9016    5.5072  -20.8445 O   0  0  0  0  0  0  0  0  0  0  0  0
   -4.2760    5.4352  -18.8721 C   0  0  0  0  0  0  0  0  0  0  0  0
   -3.4295    5.1778  -18.1096 O   0  0  0  0  0  0  0  0  0  0  0  0
   -5.8144    5.3905  -18.7155 N   0  0  0  0  0  0  0  0  0  0  0  0
   -6.5813    4.9578  -17.6868 C   0  0  0  0  0  0  0  0  0  0  0  0
   -6.1417    4.4465  -16.4980 C   0  0  0  0  0  0  0  0  0  0  0  0
   -7.2637    4.1707  -15.7763 N   0  0  0  0  0  0  0  0  0  0  0  0
   -7.3696    3.6262  -14.4360 C   0  0  0  0  0  0  0  0  0  0  0  0
   -6.0986    3.2211  -13.6383 C   0  0  0  0  0  0  0  0  0  0  0  0
   -6.5195    2.5002  -12.3527 C   0  0  0  0  0  0  0  0  0  0  0  0
   -5.2456    4.4126  -13.2463 C   0  0  0  0  0  0  0  0  0  0  0  0
   -8.3316    4.5235  -16.5607 C   0  0  0  0  0  0  0  0  0  0  0  0
   -7.9367    5.0217  -17.7148 N   0  0  0  0  0  0  0  0  0  0  0  0
  1  2  1  0
  2  3  2  0
  2  4  1  0
  4  5  2  0
  4  6  1  0
  6  7  1  0
  7  8  2  0
  8  9  1  0
  9 10  1  0
 10 11  1  0
 11 12  1  0
 11 13  1  0
  9 14  1  0
 14 15  2  0
 15  7  1  0
M  END
>  <energy_score>  (3558) 
-16.514049

>  <alias>  (3558) 
JTWHPYZKRRMUJV-UHFFFAOYSA-N-P35-P35-P86-601527

>  <HIPPO Pose ID>  (3558) 
78697

>  <smiles>  (3558) 
CC(=O)C(=O)Nc1cn(CC(C)C)cn1

>  <inchikey>  (3558) 
JTWHPYZKRRMUJV-UHFFFAOYSA-N

>  <distance_score>  (3558) 
1.785727

>  <ref_mols>  (3558) 
Z0719a,Z1597a

>  <ref_pdb>  (3558) 
Z0719a

>  <HIPPO Compound ID>  (3558) 
150134

>  <name>  (3558) 
JTWHPYZKRRMUJV-UHFFFAOYSA-N-P35-P35-P86-601527

>  <inspiration_score>  (3558) 
None

$$$$
YQMQCKVSPAVADS-UHFFFAOYSA-N-P86-P35-P86-601527
     RDKit          3D

 15 16  0  0  0  0  0  0  0  0999 V2000
   -4.2618    6.9155  -21.7063 C   0  0  0  0  0  0  0  0  0  0  0  0
   -3.1917    6.8559  -20.6585 C   0  0  0  0  0  0  0  0  0  0  0  0
   -2.0241    6.5799  -20.8907 O   0  0  0  0  0  0  0  0  0  0  0  0
   -3.6740    7.1014  -19.2303 C   0  0  0  0  0  0  0  0  0  0  0  0
   -3.4142    8.0917  -18.6769 O   0  0  0  0  0  0  0  0  0  0  0  0
   -4.5596    5.9204  -18.7986 N   0  0  0  0  0  0  0  0  0  0  0  0
   -5.3391    5.7603  -17.7044 C   0  0  0  0  0  0  0  0  0  0  0  0
   -6.2903    4.7849  -17.5933 C   0  0  0  0  0  0  0  0  0  0  0  0
   -6.9373    5.0524  -16.4228 N   0  0  0  0  0  0  0  0  0  0  0  0
   -8.1839    4.4800  -15.9400 C   0  0  0  0  0  0  0  0  0  0  0  0
   -8.9631    3.7432  -16.9943 C   0  0  0  0  0  0  0  0  0  0  0  0
   -9.0924    4.2080  -18.4365 C   0  0  0  0  0  0  0  0  0  0  0  0
  -10.2744    4.2544  -17.5395 C   0  0  0  0  0  0  0  0  0  0  0  0
   -6.2530    6.0639  -15.8124 C   0  0  0  0  0  0  0  0  0  0  0  0
   -5.3259    6.5563  -16.6048 N   0  0  0  0  0  0  0  0  0  0  0  0
  1  2  1  0
  2  3  2  0
  2  4  1  0
  4  5  2  0
  4  6  1  0
  6  7  1  0
  7  8  2  0
  8  9  1  0
  9 10  1  0
 10 11  1  0
 11 12  1  0
 12 13  1  0
  9 14  1  0
 14 15  2  0
 15  7  1  0
 13 11  1  0
M  END
>  <energy_score>  (3559) 
-5.964314

>  <alias>  (3559) 
YQMQCKVSPAVADS-UHFFFAOYSA-N-P86-P35-P86-601527

>  <HIPPO Pose ID>  (3559) 
78704

>  <smiles>  (3559) 
CC(=O)C(=O)Nc1cn(CC2CC2)cn1

>  <inchikey>  (3559) 
YQMQCKVSPAVADS-UHFFFAOYSA-N

>  <distance_score>  (3559) 
1.862972

>  <ref_mols>  (3559) 
Z0719a,Z1597a

>  <ref_pdb>  (3559) 
Z0719a

>  <HIPPO Compound ID>  (3559) 
150137

>  <name>  (3559) 
YQMQCKVSPAVADS-UHFFFAOYSA-N-P86-P35-P86-601527

>  <inspiration_score>  (3559) 
None

$$$$
AIEOKCFDNAKJCW-UHFFFAOYSA-N-P86-P35-P86-601527
     RDKit          3D

 15 15  0  0  0  0  0  0  0  0999 V2000
   -5.9880    3.4436  -12.4871 C   0  0  0  0  0  0  0  0  0  0  0  0
   -6.0310    4.2597  -13.7632 C   0  0  0  0  0  0  0  0  0  0  0  0
   -7.4415    4.3072  -14.3883 C   0  0  0  0  0  0  0  0  0  0  0  0
   -7.5245    4.5191  -15.8201 N   0  0  0  0  0  0  0  0  0  0  0  0
   -8.6042    4.2236  -16.6042 C   0  0  0  0  0  0  0  0  0  0  0  0
   -8.3571    4.4765  -17.8721 N   0  0  0  0  0  0  0  0  0  0  0  0
   -7.0842    4.9487  -17.8990 C   0  0  0  0  0  0  0  0  0  0  0  0
   -6.4453    5.2531  -19.0495 N   0  0  0  0  0  0  0  0  0  0  0  0
   -4.9909    5.7387  -19.2973 C   0  0  0  0  0  0  0  0  0  0  0  0
   -4.1467    6.0236  -18.5384 O   0  0  0  0  0  0  0  0  0  0  0  0
   -4.7224    5.7040  -20.7889 C   0  0  0  0  0  0  0  0  0  0  0  0
   -4.2384    7.0656  -21.2432 C   0  0  1  0  0  0  0  0  0  0  0  0
   -3.7261    7.0339  -22.6724 C   0  0  0  0  0  0  0  0  0  0  0  0
   -5.2888    7.9388  -21.2058 F   0  0  0  0  0  0  0  0  0  0  0  0
   -6.5644    5.0335  -16.6379 C   0  0  0  0  0  0  0  0  0  0  0  0
  1  2  1  0
  2  3  1  0
  3  4  1  0
  4  5  1  0
  5  6  2  0
  6  7  1  0
  7  8  1  0
  8  9  1  0
  9 10  2  0
  9 11  1  0
 11 12  1  0
 12 13  1  6
 12 14  1  0
  7 15  2  0
 15  4  1  0
M  END
>  <energy_score>  (3560) 
-29.394716

>  <alias>  (3560) 
AIEOKCFDNAKJCW-UHFFFAOYSA-N-P86-P35-P86-601527

>  <HIPPO Pose ID>  (3560) 
78718

>  <smiles>  (3560) 
CCCn1cnc(NC(=O)CC(C)F)c1

>  <inchikey>  (3560) 
AIEOKCFDNAKJCW-UHFFFAOYSA-N

>  <distance_score>  (3560) 
1.579029

>  <ref_mols>  (3560) 
Z0719a,Z1597a

>  <ref_pdb>  (3560) 
Z0719a

>  <HIPPO Compound ID>  (3560) 
150144

>  <name>  (3560) 
AIEOKCFDNAKJCW-UHFFFAOYSA-N-P86-P35-P86-601527

>  <inspiration_score>  (3560) 
None

$$$$
RALSKDNRWGTULG-UHFFFAOYSA-N-P86-P35-P86-601527
     RDKit          3D

 15 16  0  0  0  0  0  0  0  0999 V2000
   -4.5602    6.9387  -22.5951 C   0  0  0  0  0  0  0  0  0  0  0  0
   -4.7074    6.9081  -21.0847 C   0  0  2  0  0  0  0  0  0  0  0  0
   -3.8324    7.8164  -20.5672 F   0  0  0  0  0  0  0  0  0  0  0  0
   -4.4040    5.5429  -20.5069 C   0  0  0  0  0  0  0  0  0  0  0  0
   -4.9675    5.4216  -19.1033 C   0  0  0  0  0  0  0  0  0  0  0  0
   -4.3188    5.5850  -18.1435 O   0  0  0  0  0  0  0  0  0  0  0  0
   -6.4665    5.0202  -19.2529 N   0  0  0  0  0  0  0  0  0  0  0  0
   -7.3836    4.6693  -18.3136 C   0  0  0  0  0  0  0  0  0  0  0  0
   -8.6654    4.1724  -18.4827 C   0  0  0  0  0  0  0  0  0  0  0  0
   -9.2845    3.9197  -17.2745 N   0  0  0  0  0  0  0  0  0  0  0  0
   -8.3940    4.2885  -16.3911 C   0  0  0  0  0  0  0  0  0  0  0  0
   -7.2456    4.7234  -16.9772 N   0  0  0  0  0  0  0  0  0  0  0  0
   -6.2927    5.2634  -16.0369 C   0  0  0  0  0  0  0  0  0  0  0  0
   -7.1149    5.3596  -14.7484 C   0  0  0  0  0  0  0  0  0  0  0  0
   -8.3305    4.4260  -14.9291 C   0  0  0  0  0  0  0  0  0  0  0  0
  2  1  1  6
  2  3  1  0
  2  4  1  0
  4  5  1  0
  5  6  2  0
  5  7  1  0
  7  8  1  0
  8  9  2  0
  9 10  1  0
 10 11  2  0
 11 12  1  0
 12 13  1  0
 13 14  1  0
 14 15  1  0
 12  8  1  0
 15 11  1  0
M  END
>  <energy_score>  (3561) 
-5.926656

>  <alias>  (3561) 
RALSKDNRWGTULG-UHFFFAOYSA-N-P86-P35-P86-601527

>  <HIPPO Pose ID>  (3561) 
78728

>  <smiles>  (3561) 
CC(F)CC(=O)Nc1cnc2n1CCC2

>  <inchikey>  (3561) 
RALSKDNRWGTULG-UHFFFAOYSA-N

>  <distance_score>  (3561) 
1.105373

>  <ref_mols>  (3561) 
Z0719a,Z1597a

>  <ref_pdb>  (3561) 
Z0719a

>  <HIPPO Compound ID>  (3561) 
150149

>  <name>  (3561) 
RALSKDNRWGTULG-UHFFFAOYSA-N-P86-P35-P86-601527

>  <inspiration_score>  (3561) 
None

$$$$
DVZXFUJVKPOCTJ-UHFFFAOYSA-N-P86-P35-P86-601527
     RDKit          3D

 15 15  0  0  0  0  0  0  0  0999 V2000
   -9.3215    3.9482  -18.8299 C   0  0  0  0  0  0  0  0  0  0  0  0
   -8.4411    4.3459  -17.7386 C   0  0  0  0  0  0  0  0  0  0  0  0
   -8.8679    4.1349  -16.4611 N   0  0  0  0  0  0  0  0  0  0  0  0
   -7.8870    4.5426  -15.6953 C   0  0  0  0  0  0  0  0  0  0  0  0
   -7.8868    4.5015  -14.2141 C   0  0  0  0  0  0  0  0  0  0  0  0
   -6.8339    5.0096  -16.4562 N   0  0  0  0  0  0  0  0  0  0  0  0
   -5.5954    5.4607  -15.9032 C   0  0  0  0  0  0  0  0  0  0  0  0
   -7.1907    4.9263  -17.7796 C   0  0  0  0  0  0  0  0  0  0  0  0
   -6.5075    5.2860  -18.9158 N   0  0  0  0  0  0  0  0  0  0  0  0
   -5.1378    6.0076  -19.0863 C   0  0  0  0  0  0  0  0  0  0  0  0
   -4.3497    6.3352  -18.2873 O   0  0  0  0  0  0  0  0  0  0  0  0
   -4.9638    6.1998  -20.5862 C   0  0  0  0  0  0  0  0  0  0  0  0
   -3.5848    6.7158  -20.9553 C   0  0  2  0  0  0  0  0  0  0  0  0
   -3.3874    8.1901  -20.6389 C   0  0  0  0  0  0  0  0  0  0  0  0
   -3.4351    6.5789  -22.3096 F   0  0  0  0  0  0  0  0  0  0  0  0
  1  2  1  0
  2  3  1  0
  3  4  2  0
  4  5  1  0
  4  6  1  0
  6  7  1  0
  6  8  1  0
  8  9  1  0
  9 10  1  0
 10 11  2  0
 10 12  1  0
 12 13  1  0
 13 14  1  6
 13 15  1  0
  8  2  2  0
M  END
>  <energy_score>  (3562) 
-20.04263

>  <alias>  (3562) 
DVZXFUJVKPOCTJ-UHFFFAOYSA-N-P86-P35-P86-601527

>  <HIPPO Pose ID>  (3562) 
78730

>  <smiles>  (3562) 
Cc1nc(C)n(C)c1NC(=O)CC(C)F

>  <inchikey>  (3562) 
DVZXFUJVKPOCTJ-UHFFFAOYSA-N

>  <distance_score>  (3562) 
1.339725

>  <ref_mols>  (3562) 
Z0719a,Z1597a

>  <ref_pdb>  (3562) 
Z0719a

>  <HIPPO Compound ID>  (3562) 
150150

>  <name>  (3562) 
DVZXFUJVKPOCTJ-UHFFFAOYSA-N-P86-P35-P86-601527

>  <inspiration_score>  (3562) 
None

$$$$
ICKKYCLPEAUQQQ-UHFFFAOYSA-N-P35-P35-P86-601527
     RDKit          3D

 15 16  0  0  0  0  0  0  0  0999 V2000
   -5.6873    2.6138  -12.8519 C   0  0  0  0  0  0  0  0  0  0  0  0
   -5.7316    3.5759  -14.0197 C   0  0  0  0  0  0  0  0  0  0  0  0
   -7.1704    3.7467  -14.5440 C   0  0  0  0  0  0  0  0  0  0  0  0
   -7.3257    4.2991  -15.8732 N   0  0  0  0  0  0  0  0  0  0  0  0
   -8.5031    4.3842  -16.5617 C   0  0  0  0  0  0  0  0  0  0  0  0
   -8.3432    5.0299  -17.6964 N   0  0  0  0  0  0  0  0  0  0  0  0
   -7.0322    5.3782  -17.7305 C   0  0  0  0  0  0  0  0  0  0  0  0
   -6.5207    6.1758  -18.6939 N   0  0  0  0  0  0  0  0  0  0  0  0
   -5.1426    6.8496  -18.8061 C   0  0  0  0  0  0  0  0  0  0  0  0
   -4.2005    6.7629  -18.1240 O   0  0  0  0  0  0  0  0  0  0  0  0
   -5.0986    7.8318  -19.9326 C   0  0  2  0  0  0  0  0  0  0  0  0
   -4.8050    7.3596  -21.3173 C   0  0  0  0  0  0  0  0  0  0  0  0
   -4.7535    9.2713  -19.5772 C   0  0  0  0  0  0  0  0  0  0  0  0
   -6.0955    8.8735  -19.8601 O   0  0  0  0  0  0  0  0  0  0  0  0
   -6.3713    4.9091  -16.6305 C   0  0  0  0  0  0  0  0  0  0  0  0
  1  2  1  0
  2  3  1  0
  3  4  1  0
  4  5  1  0
  5  6  2  0
  6  7  1  0
  7  8  1  0
  8  9  1  0
  9 10  2  0
  9 11  1  0
 11 12  1  6
 11 13  1  0
 13 14  1  0
  7 15  2  0
 15  4  1  0
 14 11  1  0
M  END
>  <energy_score>  (3563) 
-39.042427

>  <alias>  (3563) 
ICKKYCLPEAUQQQ-UHFFFAOYSA-N-P35-P35-P86-601527

>  <HIPPO Pose ID>  (3563) 
78737

>  <smiles>  (3563) 
CCCn1cnc(NC(=O)C2(C)CO2)c1

>  <inchikey>  (3563) 
ICKKYCLPEAUQQQ-UHFFFAOYSA-N

>  <distance_score>  (3563) 
1.8807

>  <ref_mols>  (3563) 
Z0719a,Z1597a

>  <ref_pdb>  (3563) 
Z0719a

>  <HIPPO Compound ID>  (3563) 
150154

>  <name>  (3563) 
ICKKYCLPEAUQQQ-UHFFFAOYSA-N-P35-P35-P86-601527

>  <inspiration_score>  (3563) 
None

$$$$
FQCWGDVKZRXCAP-UHFFFAOYSA-N-P35-P35-P86-601527
     RDKit          3D

 15 15  0  0  0  0  0  0  0  0999 V2000
   -5.4980    4.9949  -14.2294 C   0  0  0  0  0  0  0  0  0  0  0  0
   -6.2947    5.9049  -15.1378 C   0  0  0  0  0  0  0  0  0  0  0  0
   -7.1881    5.1823  -15.9978 N   0  0  0  0  0  0  0  0  0  0  0  0
   -8.3867    4.6689  -15.5494 C   0  0  0  0  0  0  0  0  0  0  0  0
   -8.7504    4.6022  -14.1141 C   0  0  0  0  0  0  0  0  0  0  0  0
   -9.1281    4.2728  -16.5558 N   0  0  0  0  0  0  0  0  0  0  0  0
   -8.3747    4.5078  -17.6720 C   0  0  0  0  0  0  0  0  0  0  0  0
   -8.9257    4.1519  -18.9777 C   0  0  0  0  0  0  0  0  0  0  0  0
   -7.1245    4.9983  -17.3511 C   0  0  0  0  0  0  0  0  0  0  0  0
   -6.0895    5.2099  -18.2235 N   0  0  0  0  0  0  0  0  0  0  0  0
   -4.5705    5.4327  -17.9562 C   0  0  0  0  0  0  0  0  0  0  0  0
   -3.9865    5.5461  -16.9482 O   0  0  0  0  0  0  0  0  0  0  0  0
   -3.8662    5.4075  -19.3031 C   0  0  0  0  0  0  0  0  0  0  0  0
   -3.5131    6.7856  -19.8348 C   0  0  0  0  0  0  0  0  0  0  0  0
   -5.1637    7.9391  -20.4716 I   0  0  0  0  0  0  0  0  0  0  0  0
  1  2  1  0
  2  3  1  0
  3  4  1  0
  4  5  1  0
  4  6  2  0
  6  7  1  0
  7  8  1  0
  7  9  2  0
  9 10  1  0
 10 11  1  0
 11 12  2  0
 11 13  1  0
 13 14  1  0
 14 15  1  0
  9  3  1  0
M  END
>  <energy_score>  (3564) 
-2.027894

>  <alias>  (3564) 
FQCWGDVKZRXCAP-UHFFFAOYSA-N-P35-P35-P86-601527

>  <HIPPO Pose ID>  (3564) 
78747

>  <smiles>  (3564) 
CCn1c(C)nc(C)c1NC(=O)CCI

>  <inchikey>  (3564) 
FQCWGDVKZRXCAP-UHFFFAOYSA-N

>  <distance_score>  (3564) 
1.510544

>  <ref_mols>  (3564) 
Z0719a,Z1597a

>  <ref_pdb>  (3564) 
Z0719a

>  <HIPPO Compound ID>  (3564) 
150159

>  <name>  (3564) 
FQCWGDVKZRXCAP-UHFFFAOYSA-N-P35-P35-P86-601527

>  <inspiration_score>  (3564) 
None

$$$$
JNYZMIMXTIATHQ-UHFFFAOYSA-N-P86-P35-P86-601527
     RDKit          3D

 15 16  0  0  0  0  0  0  0  0999 V2000
   -3.5771    6.9922  -19.3651 O   0  0  0  0  0  0  0  0  0  0  0  0
   -4.1654    6.3862  -20.1711 C   0  0  0  0  0  0  0  0  0  0  0  0
   -3.7967    6.3805  -21.6423 C   0  0  0  0  0  0  0  0  0  0  0  0
   -3.2145    7.7148  -22.0547 C   0  0  0  0  0  0  0  0  0  0  0  0
   -4.7605    9.1729  -22.4152 I   0  0  0  0  0  0  0  0  0  0  0  0
   -5.3690    5.4230  -20.0224 N   0  0  0  0  0  0  0  0  0  0  0  0
   -6.1056    5.1027  -18.9388 C   0  0  0  0  0  0  0  0  0  0  0  0
   -7.2434    4.3402  -18.9605 C   0  0  0  0  0  0  0  0  0  0  0  0
   -7.7004    4.3720  -17.6853 N   0  0  0  0  0  0  0  0  0  0  0  0
   -8.8708    3.8478  -17.2712 N   0  0  0  0  0  0  0  0  0  0  0  0
   -9.0521    4.0515  -16.0116 C   0  0  0  0  0  0  0  0  0  0  0  0
   -8.1347    4.7092  -15.0559 C   0  0  0  0  0  0  0  0  0  0  0  0
   -7.0053    5.2093  -15.5580 C   0  0  0  0  0  0  0  0  0  0  0  0
   -6.7703    5.0810  -16.9397 C   0  0  0  0  0  0  0  0  0  0  0  0
   -5.8017    5.5493  -17.6917 N   0  0  0  0  0  0  0  0  0  0  0  0
  1  2  2  0
  2  3  1  0
  3  4  1  0
  4  5  1  0
  2  6  1  0
  6  7  1  0
  7  8  2  0
  8  9  1  0
  9 10  1  0
 10 11  2  0
 11 12  1  0
 12 13  2  0
 13 14  1  0
 14 15  2  0
 15  7  1  0
 14  9  1  0
M  END
>  <energy_score>  (3565) 
-27.531015

>  <alias>  (3565) 
JNYZMIMXTIATHQ-UHFFFAOYSA-N-P86-P35-P86-601527

>  <HIPPO Pose ID>  (3565) 
78754

>  <smiles>  (3565) 
O=C(CCI)Nc1cn2ncccc2n1

>  <inchikey>  (3565) 
JNYZMIMXTIATHQ-UHFFFAOYSA-N

>  <distance_score>  (3565) 
1.692233

>  <ref_mols>  (3565) 
Z0719a,Z1597a

>  <ref_pdb>  (3565) 
Z0719a

>  <HIPPO Compound ID>  (3565) 
150162

>  <name>  (3565) 
JNYZMIMXTIATHQ-UHFFFAOYSA-N-P86-P35-P86-601527

>  <inspiration_score>  (3565) 
None

$$$$
WMNSYFXXHWHDGS-UHFFFAOYSA-N-P86-P35-P86-601527
     RDKit          3D

 15 16  0  0  0  0  0  0  0  0999 V2000
   -2.8958    6.7270  -18.8420 O   0  0  0  0  0  0  0  0  0  0  0  0
   -3.4882    6.2241  -19.7147 C   0  0  0  0  0  0  0  0  0  0  0  0
   -3.0199    6.2810  -21.1526 C   0  0  0  0  0  0  0  0  0  0  0  0
   -3.9532    7.1721  -21.9547 C   0  0  0  0  0  0  0  0  0  0  0  0
   -3.1833    7.4892  -23.9300 I   0  0  0  0  0  0  0  0  0  0  0  0
   -4.8330    5.4444  -19.7014 N   0  0  0  0  0  0  0  0  0  0  0  0
   -5.7098    5.2225  -18.6947 C   0  0  0  0  0  0  0  0  0  0  0  0
   -6.8971    4.5427  -18.7916 C   0  0  0  0  0  0  0  0  0  0  0  0
   -7.4082    4.5651  -17.5278 N   0  0  0  0  0  0  0  0  0  0  0  0
   -8.5965    4.0622  -17.0440 C   0  0  0  0  0  0  0  0  0  0  0  0
   -8.8527    4.2041  -15.7422 C   0  0  0  0  0  0  0  0  0  0  0  0
   -7.8085    4.8755  -14.9347 C   0  0  0  0  0  0  0  0  0  0  0  0
   -6.7078    5.3891  -15.3781 N   0  0  0  0  0  0  0  0  0  0  0  0
   -6.4931    5.2388  -16.7170 C   0  0  0  0  0  0  0  0  0  0  0  0
   -5.4847    5.6778  -17.4365 N   0  0  0  0  0  0  0  0  0  0  0  0
  1  2  2  0
  2  3  1  0
  3  4  1  0
  4  5  1  0
  2  6  1  0
  6  7  1  0
  7  8  2  0
  8  9  1  0
  9 10  1  0
 10 11  2  0
 11 12  1  0
 12 13  2  0
 13 14  1  0
 14 15  2  0
 15  7  1  0
 14  9  1  0
M  END
>  <energy_score>  (3566) 
-17.845695

>  <alias>  (3566) 
WMNSYFXXHWHDGS-UHFFFAOYSA-N-P86-P35-P86-601527

>  <HIPPO Pose ID>  (3566) 
78756

>  <smiles>  (3566) 
O=C(CCI)Nc1cn2cccnc2n1

>  <inchikey>  (3566) 
WMNSYFXXHWHDGS-UHFFFAOYSA-N

>  <distance_score>  (3566) 
1.615422

>  <ref_mols>  (3566) 
Z0719a,Z1597a

>  <ref_pdb>  (3566) 
Z0719a

>  <HIPPO Compound ID>  (3566) 
150163

>  <name>  (3566) 
WMNSYFXXHWHDGS-UHFFFAOYSA-N-P86-P35-P86-601527

>  <inspiration_score>  (3566) 
None

$$$$
GYHAYTWHMYCMEM-UHFFFAOYSA-N-P86-P35-P86-601527
     RDKit          3D

 15 15  0  0  0  0  0  0  0  0999 V2000
   -8.9048    3.8252  -19.0614 C   0  0  0  0  0  0  0  0  0  0  0  0
   -8.2406    4.3052  -17.8495 C   0  0  0  0  0  0  0  0  0  0  0  0
   -8.8643    4.1484  -16.6441 N   0  0  0  0  0  0  0  0  0  0  0  0
   -8.0030    4.5736  -15.7511 C   0  0  0  0  0  0  0  0  0  0  0  0
   -8.2051    4.5561  -14.2844 C   0  0  0  0  0  0  0  0  0  0  0  0
   -6.8487    5.0260  -16.3572 N   0  0  0  0  0  0  0  0  0  0  0  0
   -5.7078    5.5033  -15.6398 C   0  0  0  0  0  0  0  0  0  0  0  0
   -6.9904    4.8740  -17.7122 C   0  0  0  0  0  0  0  0  0  0  0  0
   -6.1150    5.1291  -18.7373 N   0  0  0  0  0  0  0  0  0  0  0  0
   -4.6683    5.7047  -18.7119 C   0  0  0  0  0  0  0  0  0  0  0  0
   -4.0330    6.1204  -17.8210 O   0  0  0  0  0  0  0  0  0  0  0  0
   -4.1750    5.6357  -20.1942 C   0  0  0  0  0  0  0  0  0  0  0  0
   -4.3174    7.0102  -20.8341 C   0  0  0  0  0  0  0  0  0  0  0  0
   -2.7206    5.1639  -20.2195 C   0  0  0  0  0  0  0  0  0  0  0  0
   -4.9789    4.7321  -20.9575 O   0  0  0  0  0  0  0  0  0  0  0  0
  1  2  1  0
  2  3  1  0
  3  4  2  0
  4  5  1  0
  4  6  1  0
  6  7  1  0
  6  8  1  0
  8  9  1  0
  9 10  1  0
 10 11  2  0
 10 12  1  0
 12 13  1  0
 12 14  1  0
 12 15  1  0
  8  2  2  0
M  END
>  <energy_score>  (3567) 
-28.78108

>  <alias>  (3567) 
GYHAYTWHMYCMEM-UHFFFAOYSA-N-P86-P35-P86-601527

>  <HIPPO Pose ID>  (3567) 
78764

>  <smiles>  (3567) 
Cc1nc(C)n(C)c1NC(=O)C(C)(C)O

>  <inchikey>  (3567) 
GYHAYTWHMYCMEM-UHFFFAOYSA-N

>  <distance_score>  (3567) 
1.510682

>  <ref_mols>  (3567) 
Z0719a,Z1597a

>  <ref_pdb>  (3567) 
Z0719a

>  <HIPPO Compound ID>  (3567) 
150167

>  <name>  (3567) 
GYHAYTWHMYCMEM-UHFFFAOYSA-N-P86-P35-P86-601527

>  <inspiration_score>  (3567) 
None

$$$$
NWEULLMGNQHAQX-UHFFFAOYSA-N-P86-P35-P86-601527
     RDKit          3D

 15 15  0  0  0  0  0  0  0  0999 V2000
   -4.5600    6.6835  -20.4112 C   0  0  0  0  0  0  0  0  0  0  0  0
   -4.0131    6.4594  -19.0009 C   0  0  0  0  0  0  0  0  0  0  0  0
   -3.0097    5.3097  -18.9759 C   0  0  0  0  0  0  0  0  0  0  0  0
   -3.2939    7.6602  -18.6619 O   0  0  0  0  0  0  0  0  0  0  0  0
   -5.1017    6.2382  -17.8897 C   0  0  0  0  0  0  0  0  0  0  0  0
   -5.0322    6.8107  -16.8710 O   0  0  0  0  0  0  0  0  0  0  0  0
   -6.0940    5.1442  -18.3619 N   0  0  0  0  0  0  0  0  0  0  0  0
   -7.1910    4.6298  -17.7553 C   0  0  0  0  0  0  0  0  0  0  0  0
   -8.1338    4.0791  -18.5728 N   0  0  0  0  0  0  0  0  0  0  0  0
   -9.1604    3.7932  -17.8059 C   0  0  0  0  0  0  0  0  0  0  0  0
   -8.8892    4.0491  -16.5010 N   0  0  0  0  0  0  0  0  0  0  0  0
   -7.6218    4.5630  -16.4621 C   0  0  0  0  0  0  0  0  0  0  0  0
   -7.0599    4.8542  -15.2110 N   0  0  0  0  0  0  0  0  0  0  0  0
   -5.8608    4.6290  -15.0324 O   0  0  0  0  0  0  0  0  0  0  0  0
   -7.8664    5.2775  -14.3762 O   0  0  0  0  0  0  0  0  0  0  0  0
  1  2  1  0
  2  3  1  0
  2  4  1  0
  2  5  1  0
  5  6  2  0
  5  7  1  0
  7  8  1  0
  8  9  1  0
  9 10  2  0
 10 11  1  0
 11 12  1  0
 12 13  1  0
 13 14  2  0
 13 15  1  0
 12  8  2  0
M  CHG  2  13   1  15  -1
M  END
>  <energy_score>  (3568) 
-32.371222

>  <alias>  (3568) 
NWEULLMGNQHAQX-UHFFFAOYSA-N-P86-P35-P86-601527

>  <HIPPO Pose ID>  (3568) 
78766

>  <smiles>  (3568) 
CC(C)(O)C(=O)Nc1nc[nH]c1[N+](=O)[O-]

>  <inchikey>  (3568) 
NWEULLMGNQHAQX-UHFFFAOYSA-N

>  <distance_score>  (3568) 
1.51076

>  <ref_mols>  (3568) 
Z0719a,Z1597a

>  <ref_pdb>  (3568) 
Z0719a

>  <HIPPO Compound ID>  (3568) 
150168

>  <name>  (3568) 
NWEULLMGNQHAQX-UHFFFAOYSA-N-P86-P35-P86-601527

>  <inspiration_score>  (3568) 
None

$$$$
FZUQXNYQHCVZJB-UHFFFAOYSA-N-P86-P35-P86-601527
     RDKit          3D

 15 16  0  0  0  0  0  0  0  0999 V2000
   -3.4922    6.8731  -22.2831 C   0  0  0  0  0  0  0  0  0  0  0  0
   -4.5310    6.3394  -21.3033 C   0  0  0  0  0  0  0  0  0  0  0  0
   -4.3110    6.8496  -19.8918 C   0  0  1  0  0  0  0  0  0  0  0  0
   -5.0697    8.6395  -19.6490 Br  0  0  0  0  0  0  0  0  0  0  0  0
   -4.8560    6.0010  -18.7345 C   0  0  0  0  0  0  0  0  0  0  0  0
   -4.2125    5.8749  -17.7614 O   0  0  0  0  0  0  0  0  0  0  0  0
   -6.3047    5.5135  -19.0603 N   0  0  0  0  0  0  0  0  0  0  0  0
   -7.2284    4.8960  -18.2715 C   0  0  0  0  0  0  0  0  0  0  0  0
   -8.4408    4.2961  -18.5792 C   0  0  0  0  0  0  0  0  0  0  0  0
   -9.1170    3.8862  -17.4416 N   0  0  0  0  0  0  0  0  0  0  0  0
   -8.3269    4.2507  -16.4670 C   0  0  0  0  0  0  0  0  0  0  0  0
   -7.1683    4.7928  -16.9287 N   0  0  0  0  0  0  0  0  0  0  0  0
   -6.3322    5.3236  -15.8759 C   0  0  0  0  0  0  0  0  0  0  0  0
   -7.2714    5.3167  -14.6696 C   0  0  0  0  0  0  0  0  0  0  0  0
   -8.3933    4.3138  -15.0000 C   0  0  0  0  0  0  0  0  0  0  0  0
  1  2  1  0
  2  3  1  0
  3  4  1  6
  3  5  1  0
  5  6  2  0
  5  7  1  0
  7  8  1  0
  8  9  2  0
  9 10  1  0
 10 11  2  0
 11 12  1  0
 12 13  1  0
 13 14  1  0
 14 15  1  0
 12  8  1  0
 15 11  1  0
M  END
>  <energy_score>  (3569) 
-32.863914

>  <alias>  (3569) 
FZUQXNYQHCVZJB-UHFFFAOYSA-N-P86-P35-P86-601527

>  <HIPPO Pose ID>  (3569) 
78772

>  <smiles>  (3569) 
CCC(Br)C(=O)Nc1cnc2n1CCC2

>  <inchikey>  (3569) 
FZUQXNYQHCVZJB-UHFFFAOYSA-N

>  <distance_score>  (3569) 
1.214885

>  <ref_mols>  (3569) 
Z0719a,Z1597a

>  <ref_pdb>  (3569) 
Z0719a

>  <HIPPO Compound ID>  (3569) 
150171

>  <name>  (3569) 
FZUQXNYQHCVZJB-UHFFFAOYSA-N-P86-P35-P86-601527

>  <inspiration_score>  (3569) 
None

$$$$
HCTZSCJZHCYHIB-UHFFFAOYSA-N-P86-P35-P86-601527
     RDKit          3D

 15 17  0  0  0  0  0  0  0  0999 V2000
   -4.2623    6.7918  -21.2754 C   0  0  0  0  0  0  0  0  0  0  0  0
   -3.8899    5.9265  -20.1151 C   0  0  2  0  0  0  0  0  0  0  0  0
   -4.7716    5.8875  -18.9052 C   0  0  0  0  0  0  0  0  0  0  0  0
   -4.4141    6.4282  -17.9349 O   0  0  0  0  0  0  0  0  0  0  0  0
   -6.0599    5.0882  -19.1878 N   0  0  0  0  0  0  0  0  0  0  0  0
   -7.0782    4.7257  -18.3557 C   0  0  0  0  0  0  0  0  0  0  0  0
   -8.2898    4.1076  -18.6317 C   0  0  0  0  0  0  0  0  0  0  0  0
   -9.0499    3.9192  -17.4890 N   0  0  0  0  0  0  0  0  0  0  0  0
   -8.2967    4.4074  -16.5396 C   0  0  0  0  0  0  0  0  0  0  0  0
   -7.1159    4.8787  -17.0190 N   0  0  0  0  0  0  0  0  0  0  0  0
   -6.2404    5.3855  -15.9905 C   0  0  0  0  0  0  0  0  0  0  0  0
   -6.9487    4.9631  -14.7024 C   0  0  0  0  0  0  0  0  0  0  0  0
   -8.3991    4.6098  -15.0885 C   0  0  0  0  0  0  0  0  0  0  0  0
   -2.4269    5.5445  -19.9320 C   0  0  0  0  0  0  0  0  0  0  0  0
   -3.3741    4.6426  -20.5050 O   0  0  0  0  0  0  0  0  0  0  0  0
  2  1  1  6
  2  3  1  0
  3  4  2  0
  3  5  1  0
  5  6  1  0
  6  7  2  0
  7  8  1  0
  8  9  2  0
  9 10  1  0
 10 11  1  0
 11 12  1  0
 12 13  1  0
  2 14  1  0
 14 15  1  0
 15  2  1  0
 10  6  1  0
 13  9  1  0
M  END
>  <energy_score>  (3570) 
-41.733343

>  <alias>  (3570) 
HCTZSCJZHCYHIB-UHFFFAOYSA-N-P86-P35-P86-601527

>  <HIPPO Pose ID>  (3570) 
78776

>  <smiles>  (3570) 
CC1(C(=O)Nc2cnc3n2CCC3)CO1

>  <inchikey>  (3570) 
HCTZSCJZHCYHIB-UHFFFAOYSA-N

>  <distance_score>  (3570) 
1.168513

>  <ref_mols>  (3570) 
Z0719a,Z1597a

>  <ref_pdb>  (3570) 
Z0719a

>  <HIPPO Compound ID>  (3570) 
150173

>  <name>  (3570) 
HCTZSCJZHCYHIB-UHFFFAOYSA-N-P86-P35-P86-601527

>  <inspiration_score>  (3570) 
None

$$$$
LWYWBMVRLSTLCJ-UHFFFAOYSA-N-P35-P35-P86-601527
     RDKit          3D

 15 15  0  0  0  0  0  0  0  0999 V2000
   -7.6424    3.3085  -14.3571 C   0  0  0  0  0  0  0  0  0  0  0  0
   -7.9547    3.8799  -15.7187 C   0  0  0  0  0  0  0  0  0  0  0  0
   -8.8636    3.5280  -16.6157 N   0  0  0  0  0  0  0  0  0  0  0  0
   -8.4999    4.1694  -17.7842 C   0  0  0  0  0  0  0  0  0  0  0  0
   -7.3705    4.9297  -17.5755 C   0  0  0  0  0  0  0  0  0  0  0  0
   -6.4717    5.4476  -18.4630 N   0  0  0  0  0  0  0  0  0  0  0  0
   -5.0890    6.1196  -18.2240 C   0  0  0  0  0  0  0  0  0  0  0  0
   -4.5451    6.4014  -17.2267 O   0  0  0  0  0  0  0  0  0  0  0  0
   -4.3960    6.3013  -19.5707 C   0  0  0  0  0  0  0  0  0  0  0  0
   -5.0728    7.2282  -20.5607 C   0  0  0  0  0  0  0  0  0  0  0  0
   -5.0433    9.2688  -19.8821 I   0  0  0  0  0  0  0  0  0  0  0  0
   -7.2675    4.9632  -16.2121 N   0  0  0  0  0  0  0  0  0  0  0  0
   -6.7729    6.0203  -15.3646 C   0  0  0  0  0  0  0  0  0  0  0  0
   -7.6929    6.2641  -14.2393 C   0  0  0  0  0  0  0  0  0  0  0  0
   -8.4217    6.3910  -13.3433 N   0  0  0  0  0  0  0  0  0  0  0  0
  1  2  1  0
  2  3  2  0
  3  4  1  0
  4  5  2  0
  5  6  1  0
  6  7  1  0
  7  8  2  0
  7  9  1  0
  9 10  1  0
 10 11  1  0
  5 12  1  0
 12 13  1  0
 13 14  1  0
 14 15  3  0
 12  2  1  0
M  END
>  <energy_score>  (3571) 
-0.531767

>  <alias>  (3571) 
LWYWBMVRLSTLCJ-UHFFFAOYSA-N-P35-P35-P86-601527

>  <HIPPO Pose ID>  (3571) 
78781

>  <smiles>  (3571) 
Cc1ncc(NC(=O)CCI)n1CC#N

>  <inchikey>  (3571) 
LWYWBMVRLSTLCJ-UHFFFAOYSA-N

>  <distance_score>  (3571) 
1.807964

>  <ref_mols>  (3571) 
Z0719a,Z1597a

>  <ref_pdb>  (3571) 
Z0719a

>  <HIPPO Compound ID>  (3571) 
150176

>  <name>  (3571) 
LWYWBMVRLSTLCJ-UHFFFAOYSA-N-P35-P35-P86-601527

>  <inspiration_score>  (3571) 
None

$$$$
VSKZAXMKRVAYGV-UHFFFAOYSA-N-P86-P35-P86-601527
     RDKit          3D

 15 16  0  0  0  0  0  0  0  0999 V2000
   -5.3837    4.6136  -20.6609 O   0  0  0  0  0  0  0  0  0  0  0  0
   -5.0690    5.7333  -20.5564 C   0  0  0  0  0  0  0  0  0  0  0  0
   -4.6540    6.5790  -21.7394 C   0  0  0  0  0  0  0  0  0  0  0  0
   -3.1399    6.6125  -21.7931 C   0  0  0  0  0  0  0  0  0  0  0  0
   -2.4734    7.5702  -23.5896 I   0  0  0  0  0  0  0  0  0  0  0  0
   -4.9433    6.6299  -19.2942 N   0  0  0  0  0  0  0  0  0  0  0  0
   -5.2489    6.3757  -18.0077 C   0  0  0  0  0  0  0  0  0  0  0  0
   -5.8139    5.2272  -17.5374 C   0  0  0  0  0  0  0  0  0  0  0  0
   -6.1435    5.5175  -16.2483 N   0  0  0  0  0  0  0  0  0  0  0  0
   -7.0929    4.7819  -15.4401 C   0  0  0  0  0  0  0  0  0  0  0  0
   -8.4543    4.8458  -16.0539 C   0  0  0  0  0  0  0  0  0  0  0  0
   -9.2403    3.6022  -16.2610 C   0  0  0  0  0  0  0  0  0  0  0  0
   -8.7879    4.3370  -17.4644 C   0  0  0  0  0  0  0  0  0  0  0  0
   -5.5803    6.7214  -15.9426 C   0  0  0  0  0  0  0  0  0  0  0  0
   -5.0780    7.2926  -17.0175 N   0  0  0  0  0  0  0  0  0  0  0  0
  1  2  2  0
  2  3  1  0
  3  4  1  0
  4  5  1  0
  2  6  1  0
  6  7  1  0
  7  8  2  0
  8  9  1  0
  9 10  1  0
 10 11  1  0
 11 12  1  0
 12 13  1  0
  9 14  1  0
 14 15  2  0
 15  7  1  0
 13 11  1  0
M  END
>  <energy_score>  (3572) 
-20.46716

>  <alias>  (3572) 
VSKZAXMKRVAYGV-UHFFFAOYSA-N-P86-P35-P86-601527

>  <HIPPO Pose ID>  (3572) 
78784

>  <smiles>  (3572) 
O=C(CCI)Nc1cn(CC2CC2)cn1

>  <inchikey>  (3572) 
VSKZAXMKRVAYGV-UHFFFAOYSA-N

>  <distance_score>  (3572) 
1.8708

>  <ref_mols>  (3572) 
Z0719a,Z1597a

>  <ref_pdb>  (3572) 
Z0719a

>  <HIPPO Compound ID>  (3572) 
150177

>  <name>  (3572) 
VSKZAXMKRVAYGV-UHFFFAOYSA-N-P86-P35-P86-601527

>  <inspiration_score>  (3572) 
None

$$$$
DGXWBDXBDHPXLO-UHFFFAOYSA-N-P35-P35-P86-601527
     RDKit          3D

 15 15  0  0  0  0  0  0  0  0999 V2000
   -3.8698    8.8253  -20.5582 C   0  0  0  0  0  0  0  0  0  0  0  0
   -4.8819    7.7731  -21.0000 C   0  0  0  0  0  0  0  0  0  0  0  0
   -5.2550    6.7047  -19.9827 C   0  0  1  0  0  0  0  0  0  0  0  0
   -3.6397    5.6551  -19.5172 Br  0  0  0  0  0  0  0  0  0  0  0  0
   -5.8782    7.1564  -18.6527 C   0  0  0  0  0  0  0  0  0  0  0  0
   -5.8879    8.2574  -18.2547 O   0  0  0  0  0  0  0  0  0  0  0  0
   -6.3589    5.8339  -17.9790 N   0  0  0  0  0  0  0  0  0  0  0  0
   -6.8274    5.6036  -16.7298 C   0  0  0  0  0  0  0  0  0  0  0  0
   -7.0436    4.3311  -16.2831 C   0  0  0  0  0  0  0  0  0  0  0  0
   -7.0136    4.4137  -14.9211 N   0  0  0  0  0  0  0  0  0  0  0  0
   -6.7041    3.3179  -14.0019 C   0  0  0  0  0  0  0  0  0  0  0  0
   -5.2072    3.2521  -13.6655 C   0  0  0  0  0  0  0  0  0  0  0  0
   -7.5266    3.3221  -12.7238 C   0  0  0  0  0  0  0  0  0  0  0  0
   -7.1214    5.7467  -14.6388 C   0  0  0  0  0  0  0  0  0  0  0  0
   -6.9711    6.4926  -15.7204 N   0  0  0  0  0  0  0  0  0  0  0  0
  1  2  1  0
  2  3  1  0
  3  4  1  1
  3  5  1  0
  5  6  2  0
  5  7  1  0
  7  8  1  0
  8  9  2  0
  9 10  1  0
 10 11  1  0
 11 12  1  0
 11 13  1  0
 10 14  1  0
 14 15  2  0
 15  8  1  0
M  END
>  <energy_score>  (3573) 
-20.623299

>  <alias>  (3573) 
DGXWBDXBDHPXLO-UHFFFAOYSA-N-P35-P35-P86-601527

>  <HIPPO Pose ID>  (3573) 
78797

>  <smiles>  (3573) 
CCC(Br)C(=O)Nc1cn(C(C)C)cn1

>  <inchikey>  (3573) 
DGXWBDXBDHPXLO-UHFFFAOYSA-N

>  <distance_score>  (3573) 
1.999764

>  <ref_mols>  (3573) 
Z0719a,Z1597a

>  <ref_pdb>  (3573) 
Z0719a

>  <HIPPO Compound ID>  (3573) 
150184

>  <name>  (3573) 
DGXWBDXBDHPXLO-UHFFFAOYSA-N-P35-P35-P86-601527

>  <inspiration_score>  (3573) 
None

$$$$
PPGKMVHTIUJHSB-UHFFFAOYSA-N-P35-P35-P86-601527
     RDKit          3D

 15 15  0  0  0  0  0  0  0  0999 V2000
   -5.4312    7.5574  -20.6999 C   0  0  0  0  0  0  0  0  0  0  0  0
   -4.0351    7.0423  -20.4081 C   0  0  0  0  0  0  0  0  0  0  0  0
   -3.9634    5.7342  -19.6304 C   0  0  1  0  0  0  0  0  0  0  0  0
   -2.6299    5.4081  -19.5401 F   0  0  0  0  0  0  0  0  0  0  0  0
   -4.6243    5.8010  -18.2499 C   0  0  0  0  0  0  0  0  0  0  0  0
   -4.0376    6.1152  -17.2838 O   0  0  0  0  0  0  0  0  0  0  0  0
   -6.1037    5.3085  -18.4252 N   0  0  0  0  0  0  0  0  0  0  0  0
   -7.0645    5.0313  -17.4898 C   0  0  0  0  0  0  0  0  0  0  0  0
   -8.3137    4.4730  -17.6881 C   0  0  0  0  0  0  0  0  0  0  0  0
   -9.0122    4.1294  -18.9315 C   0  0  0  0  0  0  0  0  0  0  0  0
   -8.8938    4.1274  -16.4946 N   0  0  0  0  0  0  0  0  0  0  0  0
   -8.0284    4.4772  -15.5705 C   0  0  0  0  0  0  0  0  0  0  0  0
   -8.1096    4.1498  -14.1280 C   0  0  0  0  0  0  0  0  0  0  0  0
   -6.9899    5.1809  -16.1317 N   0  0  0  0  0  0  0  0  0  0  0  0
   -6.0874    5.9980  -15.3811 C   0  0  0  0  0  0  0  0  0  0  0  0
  1  2  1  0
  2  3  1  0
  3  4  1  1
  3  5  1  0
  5  6  2  0
  5  7  1  0
  7  8  1  0
  8  9  2  0
  9 10  1  0
  9 11  1  0
 11 12  2  0
 12 13  1  0
 12 14  1  0
 14 15  1  0
 14  8  1  0
M  END
>  <energy_score>  (3574) 
-22.681092

>  <alias>  (3574) 
PPGKMVHTIUJHSB-UHFFFAOYSA-N-P35-P35-P86-601527

>  <HIPPO Pose ID>  (3574) 
78801

>  <smiles>  (3574) 
CCC(F)C(=O)Nc1c(C)nc(C)n1C

>  <inchikey>  (3574) 
PPGKMVHTIUJHSB-UHFFFAOYSA-N

>  <distance_score>  (3574) 
1.421527

>  <ref_mols>  (3574) 
Z0719a,Z1597a

>  <ref_pdb>  (3574) 
Z0719a

>  <HIPPO Compound ID>  (3574) 
150186

>  <name>  (3574) 
PPGKMVHTIUJHSB-UHFFFAOYSA-N-P35-P35-P86-601527

>  <inspiration_score>  (3574) 
None

$$$$
NZBPMHYFJMCVMN-UHFFFAOYSA-N-P35-P35-P86-601527
     RDKit          3D

 15 15  0  0  0  0  0  0  0  0999 V2000
   -3.7226    7.4367  -21.2877 C   0  0  0  0  0  0  0  0  0  0  0  0
   -4.6621    7.0356  -20.1630 C   0  0  0  0  0  0  0  0  0  0  0  0
   -4.1974    5.8044  -19.3853 C   0  0  1  0  0  0  0  0  0  0  0  0
   -2.8686    5.9665  -19.0907 F   0  0  0  0  0  0  0  0  0  0  0  0
   -5.0383    5.6069  -18.1067 C   0  0  0  0  0  0  0  0  0  0  0  0
   -4.6393    5.8765  -17.0410 O   0  0  0  0  0  0  0  0  0  0  0  0
   -6.4208    5.0508  -18.5545 N   0  0  0  0  0  0  0  0  0  0  0  0
   -7.4884    4.6507  -17.8207 C   0  0  0  0  0  0  0  0  0  0  0  0
   -8.6333    4.3890  -18.5201 N   0  0  0  0  0  0  0  0  0  0  0  0
   -9.5733    4.1736  -17.6301 C   0  0  0  0  0  0  0  0  0  0  0  0
   -9.0619    4.1826  -16.3725 N   0  0  0  0  0  0  0  0  0  0  0  0
   -7.7325    4.4844  -16.4883 C   0  0  0  0  0  0  0  0  0  0  0  0
   -6.9745    4.5742  -15.3126 N   0  0  0  0  0  0  0  0  0  0  0  0
   -5.9058    3.9635  -15.2474 O   0  0  0  0  0  0  0  0  0  0  0  0
   -7.5198    5.2090  -14.4051 O   0  0  0  0  0  0  0  0  0  0  0  0
  1  2  1  0
  2  3  1  0
  3  4  1  1
  3  5  1  0
  5  6  2  0
  5  7  1  0
  7  8  1  0
  8  9  1  0
  9 10  2  0
 10 11  1  0
 11 12  1  0
 12 13  1  0
 13 14  2  0
 13 15  1  0
 12  8  2  0
M  CHG  2  13   1  15  -1
M  END
>  <energy_score>  (3575) 
-33.408559

>  <alias>  (3575) 
NZBPMHYFJMCVMN-UHFFFAOYSA-N-P35-P35-P86-601527

>  <HIPPO Pose ID>  (3575) 
78803

>  <smiles>  (3575) 
CCC(F)C(=O)Nc1nc[nH]c1[N+](=O)[O-]

>  <inchikey>  (3575) 
NZBPMHYFJMCVMN-UHFFFAOYSA-N

>  <distance_score>  (3575) 
1.412863

>  <ref_mols>  (3575) 
Z0719a,Z1597a

>  <ref_pdb>  (3575) 
Z0719a

>  <HIPPO Compound ID>  (3575) 
150187

>  <name>  (3575) 
NZBPMHYFJMCVMN-UHFFFAOYSA-N-P35-P35-P86-601527

>  <inspiration_score>  (3575) 
None

$$$$
JSPSDZFENPBMFM-UHFFFAOYSA-N-P86-P35-P86-601527
     RDKit          3D

 15 15  0  0  0  0  0  0  0  0999 V2000
   -6.1987    3.5022  -12.4733 C   0  0  0  0  0  0  0  0  0  0  0  0
   -6.1070    4.2535  -13.7860 C   0  0  0  0  0  0  0  0  0  0  0  0
   -7.4596    4.3081  -14.5298 C   0  0  0  0  0  0  0  0  0  0  0  0
   -7.4230    4.5422  -15.9607 N   0  0  0  0  0  0  0  0  0  0  0  0
   -8.4686    4.3663  -16.8231 C   0  0  0  0  0  0  0  0  0  0  0  0
   -8.1209    4.6617  -18.0598 N   0  0  0  0  0  0  0  0  0  0  0  0
   -6.8023    4.9832  -17.9977 C   0  0  0  0  0  0  0  0  0  0  0  0
   -6.0453    5.2642  -19.0854 N   0  0  0  0  0  0  0  0  0  0  0  0
   -4.5121    5.5116  -19.2141 C   0  0  0  0  0  0  0  0  0  0  0  0
   -3.6609    5.4339  -18.4129 O   0  0  0  0  0  0  0  0  0  0  0  0
   -4.2437    5.9856  -20.6709 C   0  0  0  0  0  0  0  0  0  0  0  0
   -4.4730    7.4888  -20.7322 C   0  0  0  0  0  0  0  0  0  0  0  0
   -2.7962    5.6718  -21.0649 C   0  0  0  0  0  0  0  0  0  0  0  0
   -5.1311    5.4063  -21.6146 O   0  0  0  0  0  0  0  0  0  0  0  0
   -6.3630    4.9680  -16.7027 C   0  0  0  0  0  0  0  0  0  0  0  0
  1  2  1  0
  2  3  1  0
  3  4  1  0
  4  5  1  0
  5  6  2  0
  6  7  1  0
  7  8  1  0
  8  9  1  0
  9 10  2  0
  9 11  1  0
 11 12  1  0
 11 13  1  0
 11 14  1  0
  7 15  2  0
 15  4  1  0
M  END
>  <energy_score>  (3576) 
-19.355095

>  <alias>  (3576) 
JSPSDZFENPBMFM-UHFFFAOYSA-N-P86-P35-P86-601527

>  <HIPPO Pose ID>  (3576) 
78806

>  <smiles>  (3576) 
CCCn1cnc(NC(=O)C(C)(C)O)c1

>  <inchikey>  (3576) 
JSPSDZFENPBMFM-UHFFFAOYSA-N

>  <distance_score>  (3576) 
1.633343

>  <ref_mols>  (3576) 
Z0719a,Z1597a

>  <ref_pdb>  (3576) 
Z0719a

>  <HIPPO Compound ID>  (3576) 
150188

>  <name>  (3576) 
JSPSDZFENPBMFM-UHFFFAOYSA-N-P86-P35-P86-601527

>  <inspiration_score>  (3576) 
None

$$$$
SVDYLMVZEJYWIP-UHFFFAOYSA-N-P35-P35-P86-601527
     RDKit          3D

 15 15  0  0  0  0  0  0  0  0999 V2000
   -5.2266    4.1681  -13.0266 C   0  0  0  0  0  0  0  0  0  0  0  0
   -6.0476    3.3190  -13.9924 C   0  0  0  0  0  0  0  0  0  0  0  0
   -7.1610    2.6015  -13.2417 C   0  0  0  0  0  0  0  0  0  0  0  0
   -6.4771    4.0657  -15.1753 N   0  0  0  0  0  0  0  0  0  0  0  0
   -7.7323    4.4799  -15.5397 C   0  0  0  0  0  0  0  0  0  0  0  0
   -7.7115    5.1754  -16.6633 N   0  0  0  0  0  0  0  0  0  0  0  0
   -6.4148    5.1538  -17.0732 C   0  0  0  0  0  0  0  0  0  0  0  0
   -5.9795    5.7736  -18.1979 N   0  0  0  0  0  0  0  0  0  0  0  0
   -4.5417    5.9249  -18.7768 C   0  0  0  0  0  0  0  0  0  0  0  0
   -3.5249    5.4719  -18.4117 O   0  0  0  0  0  0  0  0  0  0  0  0
   -4.6243    6.9401  -19.9609 C   0  0  0  0  0  0  0  0  0  0  0  0
   -4.7795    8.3413  -19.4039 C   0  0  0  0  0  0  0  0  0  0  0  0
   -3.3330    6.9030  -20.7783 C   0  0  0  0  0  0  0  0  0  0  0  0
   -5.7370    6.7567  -20.8139 O   0  0  0  0  0  0  0  0  0  0  0  0
   -5.6355    4.4742  -16.1788 C   0  0  0  0  0  0  0  0  0  0  0  0
  1  2  1  0
  2  3  1  0
  2  4  1  0
  4  5  1  0
  5  6  2  0
  6  7  1  0
  7  8  1  0
  8  9  1  0
  9 10  2  0
  9 11  1  0
 11 12  1  0
 11 13  1  0
 11 14  1  0
  7 15  2  0
 15  4  1  0
M  END
>  <energy_score>  (3577) 
-32.664318

>  <alias>  (3577) 
SVDYLMVZEJYWIP-UHFFFAOYSA-N-P35-P35-P86-601527

>  <HIPPO Pose ID>  (3577) 
78809

>  <smiles>  (3577) 
CC(C)n1cnc(NC(=O)C(C)(C)O)c1

>  <inchikey>  (3577) 
SVDYLMVZEJYWIP-UHFFFAOYSA-N

>  <distance_score>  (3577) 
1.992521

>  <ref_mols>  (3577) 
Z0719a,Z1597a

>  <ref_pdb>  (3577) 
Z0719a

>  <HIPPO Compound ID>  (3577) 
150190

>  <name>  (3577) 
SVDYLMVZEJYWIP-UHFFFAOYSA-N-P35-P35-P86-601527

>  <inspiration_score>  (3577) 
None

$$$$
TVMOJNAZCFRUJC-UHFFFAOYSA-N-P86-P35-P86-601527
     RDKit          3D

 15 17  0  0  0  0  0  0  0  0999 V2000
   -4.1919    5.8075  -17.8758 O   0  0  0  0  0  0  0  0  0  0  0  0
   -4.7442    5.6780  -18.8967 C   0  0  0  0  0  0  0  0  0  0  0  0
   -6.1907    5.2287  -19.2032 N   0  0  0  0  0  0  0  0  0  0  0  0
   -7.1750    4.7792  -18.3705 C   0  0  0  0  0  0  0  0  0  0  0  0
   -8.4198    4.2354  -18.6564 C   0  0  0  0  0  0  0  0  0  0  0  0
   -9.1265    3.9205  -17.5080 N   0  0  0  0  0  0  0  0  0  0  0  0
   -8.3237    4.2877  -16.5454 C   0  0  0  0  0  0  0  0  0  0  0  0
   -7.1490    4.7798  -17.0228 N   0  0  0  0  0  0  0  0  0  0  0  0
   -6.2898    5.3013  -15.9861 C   0  0  0  0  0  0  0  0  0  0  0  0
   -7.2098    5.3214  -14.7635 C   0  0  0  0  0  0  0  0  0  0  0  0
   -8.3796    4.3692  -15.0791 C   0  0  0  0  0  0  0  0  0  0  0  0
   -4.0032    5.9900  -20.1709 C   0  0  0  0  0  0  0  0  0  0  0  0
   -4.7888    6.3077  -21.2766 F   0  0  0  0  0  0  0  0  0  0  0  0
   -2.7164    5.2652  -20.4816 C   0  0  0  0  0  0  0  0  0  0  0  0
   -2.6818    6.7236  -20.1319 C   0  0  0  0  0  0  0  0  0  0  0  0
  1  2  2  0
  2  3  1  0
  3  4  1  0
  4  5  2  0
  5  6  1  0
  6  7  2  0
  7  8  1  0
  8  9  1  0
  9 10  1  0
 10 11  1  0
  2 12  1  0
 12 13  1  0
 12 14  1  0
 14 15  1  0
  8  4  1  0
 15 12  1  0
 11  7  1  0
M  END
>  <energy_score>  (3578) 
-24.814584

>  <alias>  (3578) 
TVMOJNAZCFRUJC-UHFFFAOYSA-N-P86-P35-P86-601527

>  <HIPPO Pose ID>  (3578) 
78818

>  <smiles>  (3578) 
O=C(Nc1cnc2n1CCC2)C1(F)CC1

>  <inchikey>  (3578) 
TVMOJNAZCFRUJC-UHFFFAOYSA-N

>  <distance_score>  (3578) 
1.155544

>  <ref_mols>  (3578) 
Z0719a,Z1597a

>  <ref_pdb>  (3578) 
Z0719a

>  <HIPPO Compound ID>  (3578) 
150194

>  <name>  (3578) 
TVMOJNAZCFRUJC-UHFFFAOYSA-N-P86-P35-P86-601527

>  <inspiration_score>  (3578) 
None

$$$$
VCKKFTZCBPFZHX-UHFFFAOYSA-N-P86-P35-P86-601527
     RDKit          3D

 15 16  0  0  0  0  0  0  0  0999 V2000
   -4.1157    3.5742  -12.5611 C   0  0  0  0  0  0  0  0  0  0  0  0
   -4.6056    4.8168  -11.8113 C   0  0  0  0  0  0  0  0  0  0  0  0
   -5.8977    4.5548  -11.1195 C   0  0  0  0  0  0  0  0  0  0  0  0
   -5.9201    4.5285   -9.7391 N   0  0  0  0  0  0  0  0  0  0  0  0
   -7.0785    4.0054   -9.4284 C   0  0  0  0  0  0  0  0  0  0  0  0
   -7.8044    3.7223  -10.5493 N   0  0  0  0  0  0  0  0  0  0  0  0
   -8.9765    2.9015  -10.5110 C   0  0  0  0  0  0  0  0  0  0  0  0
   -7.1403    4.2289  -11.6363 C   0  0  0  0  0  0  0  0  0  0  0  0
   -7.6694    4.3302  -12.8974 N   0  0  0  0  0  0  0  0  0  0  0  0
   -7.0820    4.9510  -14.1853 C   0  0  0  0  0  0  0  0  0  0  0  0
   -6.0264    5.4040  -14.3939 O   0  0  0  0  0  0  0  0  0  0  0  0
   -8.1141    5.0402  -15.2660 C   0  0  0  0  0  0  0  0  0  0  0  0
   -9.0394    6.0614  -15.0844 F   0  0  0  0  0  0  0  0  0  0  0  0
   -7.6615    4.7316  -16.6800 C   0  0  0  0  0  0  0  0  0  0  0  0
   -8.6930    3.8805  -16.0123 C   0  0  0  0  0  0  0  0  0  0  0  0
  1  2  1  0
  2  3  1  0
  3  4  1  0
  4  5  2  0
  5  6  1  0
  6  7  1  0
  6  8  1  0
  8  9  1  0
  9 10  1  0
 10 11  2  0
 10 12  1  0
 12 13  1  0
 12 14  1  0
 14 15  1  0
  8  3  2  0
 15 12  1  0
M  END
>  <energy_score>  (3579) 
-16.545471

>  <alias>  (3579) 
VCKKFTZCBPFZHX-UHFFFAOYSA-N-P86-P35-P86-601527

>  <HIPPO Pose ID>  (3579) 
78822

>  <smiles>  (3579) 
CCc1ncn(C)c1NC(=O)C1(F)CC1

>  <inchikey>  (3579) 
VCKKFTZCBPFZHX-UHFFFAOYSA-N

>  <distance_score>  (3579) 
1.421633

>  <ref_mols>  (3579) 
Z0719a,Z1597a

>  <ref_pdb>  (3579) 
Z0719a

>  <HIPPO Compound ID>  (3579) 
150196

>  <name>  (3579) 
VCKKFTZCBPFZHX-UHFFFAOYSA-N-P86-P35-P86-601527

>  <inspiration_score>  (3579) 
None

$$$$
XEFAGPFAHYDLLJ-UHFFFAOYSA-N-P35-P35-P86-601527
     RDKit          3D

 15 16  0  0  0  0  0  0  0  0999 V2000
   -6.9367    4.7571   -9.3710 C   0  0  0  0  0  0  0  0  0  0  0  0
   -7.5376    4.2687  -10.5787 N   0  0  0  0  0  0  0  0  0  0  0  0
   -8.6228    3.4463  -10.6453 C   0  0  0  0  0  0  0  0  0  0  0  0
   -9.0123    3.2854  -11.8901 N   0  0  0  0  0  0  0  0  0  0  0  0
   -8.1364    3.9994  -12.6468 C   0  0  0  0  0  0  0  0  0  0  0  0
   -8.2584    4.0662  -13.9973 N   0  0  0  0  0  0  0  0  0  0  0  0
   -7.6530    5.0604  -15.0104 C   0  0  0  0  0  0  0  0  0  0  0  0
   -7.0170    6.0239  -14.8376 O   0  0  0  0  0  0  0  0  0  0  0  0
   -7.8992    4.6028  -16.4210 C   0  0  0  0  0  0  0  0  0  0  0  0
   -8.8978    3.6435  -16.5846 F   0  0  0  0  0  0  0  0  0  0  0  0
   -6.7145    4.4717  -17.3533 C   0  0  0  0  0  0  0  0  0  0  0  0
   -7.7110    5.5519  -17.5827 C   0  0  0  0  0  0  0  0  0  0  0  0
   -7.1319    4.5087  -11.8644 C   0  0  0  0  0  0  0  0  0  0  0  0
   -5.8677    4.9448  -12.3280 C   0  0  0  0  0  0  0  0  0  0  0  0
   -4.8303    5.1674  -12.7971 N   0  0  0  0  0  0  0  0  0  0  0  0
  1  2  1  0
  2  3  1  0
  3  4  2  0
  4  5  1  0
  5  6  1  0
  6  7  1  0
  7  8  2  0
  7  9  1  0
  9 10  1  0
  9 11  1  0
 11 12  1  0
  5 13  2  0
 13 14  1  0
 14 15  3  0
 13  2  1  0
 12  9  1  0
M  END
>  <energy_score>  (3580) 
-36.565894

>  <alias>  (3580) 
XEFAGPFAHYDLLJ-UHFFFAOYSA-N-P35-P35-P86-601527

>  <HIPPO Pose ID>  (3580) 
78823

>  <smiles>  (3580) 
Cn1cnc(NC(=O)C2(F)CC2)c1C#N

>  <inchikey>  (3580) 
XEFAGPFAHYDLLJ-UHFFFAOYSA-N

>  <distance_score>  (3580) 
1.327529

>  <ref_mols>  (3580) 
Z0719a,Z1597a

>  <ref_pdb>  (3580) 
Z0719a

>  <HIPPO Compound ID>  (3580) 
150197

>  <name>  (3580) 
XEFAGPFAHYDLLJ-UHFFFAOYSA-N-P35-P35-P86-601527

>  <inspiration_score>  (3580) 
None

$$$$
VJQZSTKLZHSRBI-UHFFFAOYSA-N-P35-P35-P86-601527
     RDKit          3D

 15 16  0  0  0  0  0  0  0  0999 V2000
   -5.0040    2.5911  -13.0444 C   0  0  0  0  0  0  0  0  0  0  0  0
   -5.0614    2.2272  -11.5643 C   0  0  0  0  0  0  0  0  0  0  0  0
   -5.6075    3.3157  -10.6081 C   0  0  0  0  0  0  0  0  0  0  0  0
   -6.9085    3.8287  -10.9960 N   0  0  0  0  0  0  0  0  0  0  0  0
   -8.0787    3.1296  -10.9150 C   0  0  0  0  0  0  0  0  0  0  0  0
   -8.8234    3.3802  -11.9706 N   0  0  0  0  0  0  0  0  0  0  0  0
   -8.1189    4.2970  -12.6880 C   0  0  0  0  0  0  0  0  0  0  0  0
   -8.2686    4.4206  -14.0290 N   0  0  0  0  0  0  0  0  0  0  0  0
   -7.4555    5.2331  -15.0572 C   0  0  0  0  0  0  0  0  0  0  0  0
   -6.5759    5.9856  -14.9027 O   0  0  0  0  0  0  0  0  0  0  0  0
   -7.8650    4.8625  -16.4602 C   0  0  0  0  0  0  0  0  0  0  0  0
   -9.0236    4.0922  -16.5751 F   0  0  0  0  0  0  0  0  0  0  0  0
   -7.5340    5.7417  -17.6435 C   0  0  0  0  0  0  0  0  0  0  0  0
   -6.7652    4.4876  -17.4328 C   0  0  0  0  0  0  0  0  0  0  0  0
   -7.0757    4.8039  -11.9531 C   0  0  0  0  0  0  0  0  0  0  0  0
  1  2  1  0
  2  3  1  0
  3  4  1  0
  4  5  1  0
  5  6  2  0
  6  7  1  0
  7  8  1  0
  8  9  1  0
  9 10  2  0
  9 11  1  0
 11 12  1  0
 11 13  1  0
 13 14  1  0
  7 15  2  0
 15  4  1  0
 14 11  1  0
M  END
>  <energy_score>  (3581) 
-43.57771

>  <alias>  (3581) 
VJQZSTKLZHSRBI-UHFFFAOYSA-N-P35-P35-P86-601527

>  <HIPPO Pose ID>  (3581) 
78825

>  <smiles>  (3581) 
CCCn1cnc(NC(=O)C2(F)CC2)c1

>  <inchikey>  (3581) 
VJQZSTKLZHSRBI-UHFFFAOYSA-N

>  <distance_score>  (3581) 
1.462885

>  <ref_mols>  (3581) 
Z0719a,Z1597a

>  <ref_pdb>  (3581) 
Z0719a

>  <HIPPO Compound ID>  (3581) 
150198

>  <name>  (3581) 
VJQZSTKLZHSRBI-UHFFFAOYSA-N-P35-P35-P86-601527

>  <inspiration_score>  (3581) 
None

$$$$
KUXAGAVHUXMABL-UHFFFAOYSA-N-P35-P35-P86-601527
     RDKit          3D

 15 15  0  0  0  0  0  0  0  0999 V2000
   -5.7487    2.7218  -12.8917 C   0  0  0  0  0  0  0  0  0  0  0  0
   -5.7149    3.6418  -14.0947 C   0  0  0  0  0  0  0  0  0  0  0  0
   -7.1329    3.8737  -14.6531 C   0  0  0  0  0  0  0  0  0  0  0  0
   -7.2502    4.3581  -16.0121 N   0  0  0  0  0  0  0  0  0  0  0  0
   -8.4295    4.5590  -16.6739 C   0  0  0  0  0  0  0  0  0  0  0  0
   -8.2204    5.0690  -17.8689 N   0  0  0  0  0  0  0  0  0  0  0  0
   -6.8715    5.1565  -17.9940 C   0  0  0  0  0  0  0  0  0  0  0  0
   -6.2764    5.6608  -19.0983 N   0  0  0  0  0  0  0  0  0  0  0  0
   -4.7639    5.8719  -19.4285 C   0  0  0  0  0  0  0  0  0  0  0  0
   -3.8043    5.5689  -18.8243 O   0  0  0  0  0  0  0  0  0  0  0  0
   -4.6582    6.6978  -20.7192 C   0  0  2  0  0  0  0  0  0  0  0  0
   -3.5381    6.3513  -21.4404 F   0  0  0  0  0  0  0  0  0  0  0  0
   -4.5244    8.1645  -20.3626 C   0  0  0  0  0  0  0  0  0  0  0  0
   -4.5354    9.0492  -21.6006 C   0  0  0  0  0  0  0  0  0  0  0  0
   -6.2470    4.7291  -16.8562 C   0  0  0  0  0  0  0  0  0  0  0  0
  1  2  1  0
  2  3  1  0
  3  4  1  0
  4  5  1  0
  5  6  2  0
  6  7  1  0
  7  8  1  0
  8  9  1  0
  9 10  2  0
  9 11  1  0
 11 12  1  1
 11 13  1  0
 13 14  1  0
  7 15  2  0
 15  4  1  0
M  END
>  <energy_score>  (3582) 
-0.98674

>  <alias>  (3582) 
KUXAGAVHUXMABL-UHFFFAOYSA-N-P35-P35-P86-601527

>  <HIPPO Pose ID>  (3582) 
78829

>  <smiles>  (3582) 
CCCn1cnc(NC(=O)C(F)CC)c1

>  <inchikey>  (3582) 
KUXAGAVHUXMABL-UHFFFAOYSA-N

>  <distance_score>  (3582) 
1.627826

>  <ref_mols>  (3582) 
Z0719a,Z1597a

>  <ref_pdb>  (3582) 
Z0719a

>  <HIPPO Compound ID>  (3582) 
150200

>  <name>  (3582) 
KUXAGAVHUXMABL-UHFFFAOYSA-N-P35-P35-P86-601527

>  <inspiration_score>  (3582) 
None

$$$$
PDDWLGGQTZVHCQ-UHFFFAOYSA-N-P35-P35-P86-601527
     RDKit          3D

 15 16  0  0  0  0  0  0  0  0999 V2000
   -4.8554    3.6858   -9.7125 C   0  0  0  0  0  0  0  0  0  0  0  0
   -5.8652    2.8454  -10.4872 C   0  0  0  0  0  0  0  0  0  0  0  0
   -5.2176    2.1356  -11.6976 C   0  0  0  0  0  0  0  0  0  0  0  0
   -7.0022    3.6443  -10.9460 N   0  0  0  0  0  0  0  0  0  0  0  0
   -8.2955    3.1990  -10.9142 C   0  0  0  0  0  0  0  0  0  0  0  0
   -8.9216    3.5459  -12.0174 N   0  0  0  0  0  0  0  0  0  0  0  0
   -8.0132    4.2590  -12.7327 C   0  0  0  0  0  0  0  0  0  0  0  0
   -8.1317    4.4216  -14.0707 N   0  0  0  0  0  0  0  0  0  0  0  0
   -7.2215    5.1540  -15.0742 C   0  0  0  0  0  0  0  0  0  0  0  0
   -6.2652    5.7996  -14.8973 O   0  0  0  0  0  0  0  0  0  0  0  0
   -7.6819    4.8733  -16.4824 C   0  0  0  0  0  0  0  0  0  0  0  0
   -8.9045    4.2071  -16.5993 F   0  0  0  0  0  0  0  0  0  0  0  0
   -6.6610    4.5112  -17.5387 C   0  0  0  0  0  0  0  0  0  0  0  0
   -7.3493    5.8301  -17.6009 C   0  0  0  0  0  0  0  0  0  0  0  0
   -6.9166    4.5644  -11.9691 C   0  0  0  0  0  0  0  0  0  0  0  0
  1  2  1  0
  2  3  1  0
  2  4  1  0
  4  5  1  0
  5  6  2  0
  6  7  1  0
  7  8  1  0
  8  9  1  0
  9 10  2  0
  9 11  1  0
 11 12  1  0
 11 13  1  0
 13 14  1  0
  7 15  2  0
 15  4  1  0
 14 11  1  0
M  END
>  <energy_score>  (3583) 
-26.314942

>  <alias>  (3583) 
PDDWLGGQTZVHCQ-UHFFFAOYSA-N-P35-P35-P86-601527

>  <HIPPO Pose ID>  (3583) 
78839

>  <smiles>  (3583) 
CC(C)n1cnc(NC(=O)C2(F)CC2)c1

>  <inchikey>  (3583) 
PDDWLGGQTZVHCQ-UHFFFAOYSA-N

>  <distance_score>  (3583) 
1.609511

>  <ref_mols>  (3583) 
Z0719a,Z1597a

>  <ref_pdb>  (3583) 
Z0719a

>  <HIPPO Compound ID>  (3583) 
150205

>  <name>  (3583) 
PDDWLGGQTZVHCQ-UHFFFAOYSA-N-P35-P35-P86-601527

>  <inspiration_score>  (3583) 
None

$$$$
JGCFNZYLNXZWFF-UHFFFAOYSA-N-P86-P35-P86-601527
     RDKit          3D

 15 16  0  0  0  0  0  0  0  0999 V2000
   -4.7182    6.7888  -21.3690 C   0  0  0  0  0  0  0  0  0  0  0  0
   -3.9283    6.3743  -20.1395 C   0  0  0  0  0  0  0  0  0  0  0  0
   -3.0341    5.1751  -20.4286 C   0  0  0  0  0  0  0  0  0  0  0  0
   -3.0559    7.4861  -19.8477 O   0  0  0  0  0  0  0  0  0  0  0  0
   -4.7695    6.1045  -18.8454 C   0  0  0  0  0  0  0  0  0  0  0  0
   -4.3486    6.4687  -17.8113 O   0  0  0  0  0  0  0  0  0  0  0  0
   -6.0422    5.2656  -19.1801 N   0  0  0  0  0  0  0  0  0  0  0  0
   -7.0460    4.8129  -18.3690 C   0  0  0  0  0  0  0  0  0  0  0  0
   -8.2311    4.1617  -18.6886 C   0  0  0  0  0  0  0  0  0  0  0  0
   -8.9782    3.8544  -17.5648 N   0  0  0  0  0  0  0  0  0  0  0  0
   -8.2555    4.3202  -16.5825 C   0  0  0  0  0  0  0  0  0  0  0  0
   -7.1057    4.8963  -17.0244 N   0  0  0  0  0  0  0  0  0  0  0  0
   -6.2870    5.4183  -15.9577 C   0  0  0  0  0  0  0  0  0  0  0  0
   -7.2104    5.3289  -14.7400 C   0  0  0  0  0  0  0  0  0  0  0  0
   -8.3633    4.3809  -15.1191 C   0  0  0  0  0  0  0  0  0  0  0  0
  1  2  1  0
  2  3  1  0
  2  4  1  0
  2  5  1  0
  5  6  2  0
  5  7  1  0
  7  8  1  0
  8  9  2  0
  9 10  1  0
 10 11  2  0
 11 12  1  0
 12 13  1  0
 13 14  1  0
 14 15  1  0
 12  8  1  0
 15 11  1  0
M  END
>  <energy_score>  (3584) 
-29.692566

>  <alias>  (3584) 
JGCFNZYLNXZWFF-UHFFFAOYSA-N-P86-P35-P86-601527

>  <HIPPO Pose ID>  (3584) 
78852

>  <smiles>  (3584) 
CC(C)(O)C(=O)Nc1cnc2n1CCC2

>  <inchikey>  (3584) 
JGCFNZYLNXZWFF-UHFFFAOYSA-N

>  <distance_score>  (3584) 
1.46543

>  <ref_mols>  (3584) 
Z0719a,Z1597a

>  <ref_pdb>  (3584) 
Z0719a

>  <HIPPO Compound ID>  (3584) 
150211

>  <name>  (3584) 
JGCFNZYLNXZWFF-UHFFFAOYSA-N-P86-P35-P86-601527

>  <inspiration_score>  (3584) 
None

$$$$
XCBKEOCCWNYJLM-UHFFFAOYSA-N-P35-P35-P86-601527
     RDKit          3D

 15 15  0  0  0  0  0  0  0  0999 V2000
   -4.2387    7.6660  -21.8472 C   0  0  0  0  0  0  0  0  0  0  0  0
   -4.7587    7.3563  -20.4497 C   0  0  0  0  0  0  0  0  0  0  0  0
   -4.1018    6.1856  -19.7290 C   0  0  1  0  0  0  0  0  0  0  0  0
   -2.1594    6.4395  -19.5943 Br  0  0  0  0  0  0  0  0  0  0  0  0
   -4.6722    5.9902  -18.3125 C   0  0  0  0  0  0  0  0  0  0  0  0
   -4.0856    6.2751  -17.3383 O   0  0  0  0  0  0  0  0  0  0  0  0
   -6.0717    5.3056  -18.4915 N   0  0  0  0  0  0  0  0  0  0  0  0
   -7.0125    4.9447  -17.5591 C   0  0  0  0  0  0  0  0  0  0  0  0
   -8.2958    4.4747  -17.7700 C   0  0  0  0  0  0  0  0  0  0  0  0
   -9.0042    4.1694  -19.0144 C   0  0  0  0  0  0  0  0  0  0  0  0
   -8.9584    4.2714  -16.5889 N   0  0  0  0  0  0  0  0  0  0  0  0
   -8.0921    4.5589  -15.6487 C   0  0  0  0  0  0  0  0  0  0  0  0
   -8.3282    4.4835  -14.1902 C   0  0  0  0  0  0  0  0  0  0  0  0
   -6.8793    4.9116  -16.1937 N   0  0  0  0  0  0  0  0  0  0  0  0
   -5.6823    5.0367  -15.4178 C   0  0  0  0  0  0  0  0  0  0  0  0
  1  2  1  0
  2  3  1  0
  3  4  1  1
  3  5  1  0
  5  6  2  0
  5  7  1  0
  7  8  1  0
  8  9  2  0
  9 10  1  0
  9 11  1  0
 11 12  2  0
 12 13  1  0
 12 14  1  0
 14 15  1  0
 14  8  1  0
M  END
>  <energy_score>  (3585) 
-20.213199

>  <alias>  (3585) 
XCBKEOCCWNYJLM-UHFFFAOYSA-N-P35-P35-P86-601527

>  <HIPPO Pose ID>  (3585) 
78853

>  <smiles>  (3585) 
CCC(Br)C(=O)Nc1c(C)nc(C)n1C

>  <inchikey>  (3585) 
XCBKEOCCWNYJLM-UHFFFAOYSA-N

>  <distance_score>  (3585) 
1.521584

>  <ref_mols>  (3585) 
Z0719a,Z1597a

>  <ref_pdb>  (3585) 
Z0719a

>  <HIPPO Compound ID>  (3585) 
150212

>  <name>  (3585) 
XCBKEOCCWNYJLM-UHFFFAOYSA-N-P35-P35-P86-601527

>  <inspiration_score>  (3585) 
None

$$$$
UXGYZLULXGIDBI-UHFFFAOYSA-N-P35-P35-P86-601527
     RDKit          3D

 15 15  0  0  0  0  0  0  0  0999 V2000
   -7.7601    5.5352  -13.9597 C   0  0  0  0  0  0  0  0  0  0  0  0
   -6.5080    4.9044  -14.2514 O   0  0  0  0  0  0  0  0  0  0  0  0
   -6.1376    4.5659  -15.5307 C   0  0  0  0  0  0  0  0  0  0  0  0
   -5.0126    4.1048  -15.7187 O   0  0  0  0  0  0  0  0  0  0  0  0
   -7.1228    4.7148  -16.6159 C   0  0  0  0  0  0  0  0  0  0  0  0
   -8.4916    4.5053  -16.4284 N   0  0  0  0  0  0  0  0  0  0  0  0
   -9.0378    4.5547  -17.6159 C   0  0  0  0  0  0  0  0  0  0  0  0
   -8.1003    4.7829  -18.5785 N   0  0  0  0  0  0  0  0  0  0  0  0
   -6.8793    4.9160  -17.9700 C   0  0  0  0  0  0  0  0  0  0  0  0
   -5.7663    5.1680  -18.7229 N   0  0  0  0  0  0  0  0  0  0  0  0
   -4.3803    5.7459  -18.3145 C   0  0  0  0  0  0  0  0  0  0  0  0
   -4.0070    6.1654  -17.2894 O   0  0  0  0  0  0  0  0  0  0  0  0
   -3.4584    5.5865  -19.5059 C   0  0  0  0  0  0  0  0  0  0  0  0
   -3.6678    6.6528  -20.5573 C   0  0  0  0  0  0  0  0  0  0  0  0
   -2.8307    6.3376  -21.6772 O   0  0  0  0  0  0  0  0  0  0  0  0
  1  2  1  0
  2  3  1  0
  3  4  2  0
  3  5  1  0
  5  6  1  0
  6  7  2  0
  7  8  1  0
  8  9  1  0
  9 10  1  0
 10 11  1  0
 11 12  2  0
 11 13  1  0
 13 14  1  0
 14 15  1  0
  9  5  2  0
M  END
>  <energy_score>  (3586) 
-10.12484

>  <alias>  (3586) 
UXGYZLULXGIDBI-UHFFFAOYSA-N-P35-P35-P86-601527

>  <HIPPO Pose ID>  (3586) 
78857

>  <smiles>  (3586) 
COC(=O)c1nc[nH]c1NC(=O)CCO

>  <inchikey>  (3586) 
UXGYZLULXGIDBI-UHFFFAOYSA-N

>  <distance_score>  (3586) 
1.625047

>  <ref_mols>  (3586) 
Z0719a,Z1597a

>  <ref_pdb>  (3586) 
Z0719a

>  <HIPPO Compound ID>  (3586) 
150214

>  <name>  (3586) 
UXGYZLULXGIDBI-UHFFFAOYSA-N-P35-P35-P86-601527

>  <inspiration_score>  (3586) 
None

$$$$
QPZWCJCDOLROKX-UHFFFAOYSA-N-P35-P35-P86-601527
     RDKit          3D

 15 15  0  0  0  0  0  0  0  0999 V2000
   -7.6417    3.3868  -14.3070 C   0  0  0  0  0  0  0  0  0  0  0  0
   -7.9316    3.9639  -15.6659 C   0  0  0  0  0  0  0  0  0  0  0  0
   -8.8346    3.6025  -16.5638 N   0  0  0  0  0  0  0  0  0  0  0  0
   -8.4536    4.2162  -17.7383 C   0  0  0  0  0  0  0  0  0  0  0  0
   -7.3129    4.9624  -17.5345 C   0  0  0  0  0  0  0  0  0  0  0  0
   -6.4005    5.4228  -18.4395 N   0  0  0  0  0  0  0  0  0  0  0  0
   -5.0498    6.1685  -18.2236 C   0  0  0  0  0  0  0  0  0  0  0  0
   -4.5532    6.5690  -17.2423 O   0  0  0  0  0  0  0  0  0  0  0  0
   -4.3403    6.2291  -19.5609 C   0  0  0  0  0  0  0  0  0  0  0  0
   -4.9163    7.2653  -20.4958 C   0  0  0  0  0  0  0  0  0  0  0  0
   -4.4440    7.0374  -21.8170 O   0  0  0  0  0  0  0  0  0  0  0  0
   -7.2225    5.0294  -16.1700 N   0  0  0  0  0  0  0  0  0  0  0  0
   -6.6517    6.0724  -15.3497 C   0  0  0  0  0  0  0  0  0  0  0  0
   -7.4917    6.3780  -14.1796 C   0  0  0  0  0  0  0  0  0  0  0  0
   -8.1776    6.5232  -13.2535 N   0  0  0  0  0  0  0  0  0  0  0  0
  1  2  1  0
  2  3  2  0
  3  4  1  0
  4  5  2  0
  5  6  1  0
  6  7  1  0
  7  8  2  0
  7  9  1  0
  9 10  1  0
 10 11  1  0
  5 12  1  0
 12 13  1  0
 13 14  1  0
 14 15  3  0
 12  2  1  0
M  END
>  <energy_score>  (3587) 
-1.011641

>  <alias>  (3587) 
QPZWCJCDOLROKX-UHFFFAOYSA-N-P35-P35-P86-601527

>  <HIPPO Pose ID>  (3587) 
78863

>  <smiles>  (3587) 
Cc1ncc(NC(=O)CCO)n1CC#N

>  <inchikey>  (3587) 
QPZWCJCDOLROKX-UHFFFAOYSA-N

>  <distance_score>  (3587) 
1.771121

>  <ref_mols>  (3587) 
Z0719a,Z1597a

>  <ref_pdb>  (3587) 
Z0719a

>  <HIPPO Compound ID>  (3587) 
150217

>  <name>  (3587) 
QPZWCJCDOLROKX-UHFFFAOYSA-N-P35-P35-P86-601527

>  <inspiration_score>  (3587) 
None

$$$$
JATXHEOITCTKPH-UHFFFAOYSA-N-P35-P35-P86-601527
     RDKit          3D

 15 15  0  0  0  0  0  0  0  0999 V2000
   -8.8428    4.0721  -19.0671 C   0  0  0  0  0  0  0  0  0  0  0  0
   -8.1776    4.4385  -17.8139 C   0  0  0  0  0  0  0  0  0  0  0  0
   -8.7695    4.0614  -16.6345 N   0  0  0  0  0  0  0  0  0  0  0  0
   -7.9511    4.4631  -15.6908 C   0  0  0  0  0  0  0  0  0  0  0  0
   -8.0431    4.1272  -14.2505 C   0  0  0  0  0  0  0  0  0  0  0  0
   -6.9551    5.2434  -16.2286 N   0  0  0  0  0  0  0  0  0  0  0  0
   -6.1502    6.1340  -15.4506 C   0  0  0  0  0  0  0  0  0  0  0  0
   -6.9696    5.0756  -17.5899 C   0  0  0  0  0  0  0  0  0  0  0  0
   -5.9997    5.4365  -18.4951 N   0  0  0  0  0  0  0  0  0  0  0  0
   -4.5685    6.0414  -18.2679 C   0  0  0  0  0  0  0  0  0  0  0  0
   -4.0388    6.3920  -17.2793 O   0  0  0  0  0  0  0  0  0  0  0  0
   -3.8448    6.1288  -19.6380 C   0  0  0  0  0  0  0  0  0  0  0  0
   -4.5437    7.0341  -20.6328 C   0  0  0  0  0  0  0  0  0  0  0  0
   -2.5706    6.6212  -19.4968 F   0  0  0  0  0  0  0  0  0  0  0  0
   -3.6596    4.8939  -20.1890 F   0  0  0  0  0  0  0  0  0  0  0  0
  1  2  1  0
  2  3  1  0
  3  4  2  0
  4  5  1  0
  4  6  1  0
  6  7  1  0
  6  8  1  0
  8  9  1  0
  9 10  1  0
 10 11  2  0
 10 12  1  0
 12 13  1  0
 12 14  1  0
 12 15  1  0
  8  2  2  0
M  END
>  <energy_score>  (3588) 
-14.188619

>  <alias>  (3588) 
JATXHEOITCTKPH-UHFFFAOYSA-N-P35-P35-P86-601527

>  <HIPPO Pose ID>  (3588) 
78873

>  <smiles>  (3588) 
Cc1nc(C)n(C)c1NC(=O)C(C)(F)F

>  <inchikey>  (3588) 
JATXHEOITCTKPH-UHFFFAOYSA-N

>  <distance_score>  (3588) 
1.427019

>  <ref_mols>  (3588) 
Z0719a,Z1597a

>  <ref_pdb>  (3588) 
Z0719a

>  <HIPPO Compound ID>  (3588) 
150222

>  <name>  (3588) 
JATXHEOITCTKPH-UHFFFAOYSA-N-P35-P35-P86-601527

>  <inspiration_score>  (3588) 
None

$$$$
DBOWJQPRWJVSBW-UHFFFAOYSA-N-P86-P35-P86-601527
     RDKit          3D

 15 16  0  0  0  0  0  0  0  0999 V2000
   -2.9202    6.7038  -18.4984 O   0  0  0  0  0  0  0  0  0  0  0  0
   -3.4577    6.2645  -19.4389 C   0  0  0  0  0  0  0  0  0  0  0  0
   -2.8281    6.2736  -20.8212 C   0  0  0  0  0  0  0  0  0  0  0  0
   -3.7210    6.9612  -21.8337 C   0  0  0  0  0  0  0  0  0  0  0  0
   -4.7773    6.1013  -22.2464 O   0  0  0  0  0  0  0  0  0  0  0  0
   -4.8052    5.5022  -19.5639 N   0  0  0  0  0  0  0  0  0  0  0  0
   -5.7470    5.2271  -18.6346 C   0  0  0  0  0  0  0  0  0  0  0  0
   -6.9145    4.5511  -18.8765 C   0  0  0  0  0  0  0  0  0  0  0  0
   -7.5443    4.4965  -17.6760 N   0  0  0  0  0  0  0  0  0  0  0  0
   -8.7633    3.9568  -17.4592 N   0  0  0  0  0  0  0  0  0  0  0  0
   -9.1002    4.0394  -16.2175 C   0  0  0  0  0  0  0  0  0  0  0  0
   -8.3065    4.6055  -15.1042 C   0  0  0  0  0  0  0  0  0  0  0  0
   -7.1218    5.1341  -15.4137 C   0  0  0  0  0  0  0  0  0  0  0  0
   -6.7057    5.1114  -16.7582 C   0  0  0  0  0  0  0  0  0  0  0  0
   -5.6191    5.5817  -17.3283 N   0  0  0  0  0  0  0  0  0  0  0  0
  1  2  2  0
  2  3  1  0
  3  4  1  0
  4  5  1  0
  2  6  1  0
  6  7  1  0
  7  8  2  0
  8  9  1  0
  9 10  1  0
 10 11  2  0
 11 12  1  0
 12 13  2  0
 13 14  1  0
 14 15  2  0
 15  7  1  0
 14  9  1  0
M  END
>  <energy_score>  (3589) 
-31.678909

>  <alias>  (3589) 
DBOWJQPRWJVSBW-UHFFFAOYSA-N-P86-P35-P86-601527

>  <HIPPO Pose ID>  (3589) 
78886

>  <smiles>  (3589) 
O=C(CCO)Nc1cn2ncccc2n1

>  <inchikey>  (3589) 
DBOWJQPRWJVSBW-UHFFFAOYSA-N

>  <distance_score>  (3589) 
1.632017

>  <ref_mols>  (3589) 
Z0719a,Z1597a

>  <ref_pdb>  (3589) 
Z0719a

>  <HIPPO Compound ID>  (3589) 
150228

>  <name>  (3589) 
DBOWJQPRWJVSBW-UHFFFAOYSA-N-P86-P35-P86-601527

>  <inspiration_score>  (3589) 
None

$$$$
ZRASKCFGZMWQKH-UHFFFAOYSA-N-P35-P35-P86-601527
     RDKit          3D

 15 15  0  0  0  0  0  0  0  0999 V2000
   -5.9450    2.6802  -12.6048 C   0  0  0  0  0  0  0  0  0  0  0  0
   -5.8163    3.5167  -13.8579 C   0  0  0  0  0  0  0  0  0  0  0  0
   -7.1944    3.7629  -14.5044 C   0  0  0  0  0  0  0  0  0  0  0  0
   -7.1904    4.2982  -15.8547 N   0  0  0  0  0  0  0  0  0  0  0  0
   -8.2945    4.5970  -16.6048 C   0  0  0  0  0  0  0  0  0  0  0  0
   -7.9541    5.1313  -17.7622 N   0  0  0  0  0  0  0  0  0  0  0  0
   -6.5968    5.1249  -17.7765 C   0  0  0  0  0  0  0  0  0  0  0  0
   -5.8609    5.6090  -18.8039 N   0  0  0  0  0  0  0  0  0  0  0  0
   -4.3100    5.7355  -18.9715 C   0  0  0  0  0  0  0  0  0  0  0  0
   -3.4360    5.3672  -18.2756 O   0  0  0  0  0  0  0  0  0  0  0  0
   -3.9317    6.5845  -20.2348 C   0  0  0  0  0  0  0  0  0  0  0  0
   -5.0026    7.3370  -20.9866 C   0  0  0  0  0  0  0  0  0  0  0  0
   -3.2094    5.8304  -21.1307 F   0  0  0  0  0  0  0  0  0  0  0  0
   -3.0318    7.5593  -19.8488 F   0  0  0  0  0  0  0  0  0  0  0  0
   -6.1014    4.6319  -16.6037 C   0  0  0  0  0  0  0  0  0  0  0  0
  1  2  1  0
  2  3  1  0
  3  4  1  0
  4  5  1  0
  5  6  2  0
  6  7  1  0
  7  8  1  0
  8  9  1  0
  9 10  2  0
  9 11  1  0
 11 12  1  0
 11 13  1  0
 11 14  1  0
  7 15  2  0
 15  4  1  0
M  END
>  <energy_score>  (3590) 
-17.519775

>  <alias>  (3590) 
ZRASKCFGZMWQKH-UHFFFAOYSA-N-P35-P35-P86-601527

>  <HIPPO Pose ID>  (3590) 
78893

>  <smiles>  (3590) 
CCCn1cnc(NC(=O)C(C)(F)F)c1

>  <inchikey>  (3590) 
ZRASKCFGZMWQKH-UHFFFAOYSA-N

>  <distance_score>  (3590) 
1.883066

>  <ref_mols>  (3590) 
Z0719a,Z1597a

>  <ref_pdb>  (3590) 
Z0719a

>  <HIPPO Compound ID>  (3590) 
150232

>  <name>  (3590) 
ZRASKCFGZMWQKH-UHFFFAOYSA-N-P35-P35-P86-601527

>  <inspiration_score>  (3590) 
None

$$$$
WYMRRACLVCEJII-UHFFFAOYSA-N-P86-P35-P86-601527
     RDKit          3D

 15 16  0  0  0  0  0  0  0  0999 V2000
   -3.9262    2.2328  -12.1971 C   0  0  0  0  0  0  0  0  0  0  0  0
   -5.3577    2.7093  -12.0653 C   0  0  0  0  0  0  0  0  0  0  0  0
   -5.6233    3.4019  -10.7034 C   0  0  0  0  0  0  0  0  0  0  0  0
   -6.9954    3.9121  -10.6394 N   0  0  0  0  0  0  0  0  0  0  0  0
   -8.0671    3.0969  -10.3722 C   0  0  0  0  0  0  0  0  0  0  0  0
   -8.9400    3.1880  -11.3519 N   0  0  0  0  0  0  0  0  0  0  0  0
   -8.4318    4.1516  -12.1661 C   0  0  0  0  0  0  0  0  0  0  0  0
   -8.5720    4.0131  -13.5013 N   0  0  0  0  0  0  0  0  0  0  0  0
   -7.8578    4.7288  -14.6613 C   0  0  0  0  0  0  0  0  0  0  0  0
   -7.0901    5.6071  -14.6501 O   0  0  0  0  0  0  0  0  0  0  0  0
   -8.2193    4.0371  -15.9242 C   0  0  2  0  0  0  0  0  0  0  0  0
   -7.4788    4.4639  -17.0916 C   0  0  0  0  0  0  0  0  0  0  0  0
   -8.7918    4.6788  -17.0548 C   0  0  0  0  0  0  0  0  0  0  0  0
   -9.7417    4.1399  -18.0419 C   0  0  0  0  0  0  0  0  0  0  0  0
   -7.4372    4.8685  -11.5437 C   0  0  0  0  0  0  0  0  0  0  0  0
  1  2  1  0
  2  3  1  0
  3  4  1  0
  4  5  1  0
  5  6  2  0
  6  7  1  0
  7  8  1  0
  8  9  1  0
  9 10  2  0
 11  9  1  1
 11 12  1  0
 12 13  2  0
 13 14  1  0
  7 15  2  0
 15  4  1  0
 13 11  1  0
M  END
>  <energy_score>  (3591) 
-8.491115

>  <alias>  (3591) 
WYMRRACLVCEJII-UHFFFAOYSA-N-P86-P35-P86-601527

>  <HIPPO Pose ID>  (3591) 
78904

>  <smiles>  (3591) 
CCCn1cnc(NC(=O)C2C=C2C)c1

>  <inchikey>  (3591) 
WYMRRACLVCEJII-UHFFFAOYSA-N

>  <distance_score>  (3591) 
1.246688

>  <ref_mols>  (3591) 
Z0719a,Z1597a

>  <ref_pdb>  (3591) 
Z0719a

>  <HIPPO Compound ID>  (3591) 
150237

>  <name>  (3591) 
WYMRRACLVCEJII-UHFFFAOYSA-N-P86-P35-P86-601527

>  <inspiration_score>  (3591) 
None

$$$$
HHJJEJAIPDWPHM-UHFFFAOYSA-N-P86-P35-P86-601527
     RDKit          3D

 15 16  0  0  0  0  0  0  0  0999 V2000
   -9.5446    4.0135  -18.0888 C   0  0  0  0  0  0  0  0  0  0  0  0
   -8.5545    4.6289  -17.1786 C   0  0  0  0  0  0  0  0  0  0  0  0
   -7.3265    4.1848  -16.9356 C   0  0  0  0  0  0  0  0  0  0  0  0
   -8.3229    4.0735  -15.8652 C   0  0  1  0  0  0  0  0  0  0  0  0
   -8.0522    4.9582  -14.6976 C   0  0  0  0  0  0  0  0  0  0  0  0
   -7.7002    6.0531  -14.8937 O   0  0  0  0  0  0  0  0  0  0  0  0
   -8.2074    4.1777  -13.3714 N   0  0  0  0  0  0  0  0  0  0  0  0
   -7.8881    4.5330  -12.0893 C   0  0  0  0  0  0  0  0  0  0  0  0
   -6.9517    5.4634  -11.6808 C   0  0  0  0  0  0  0  0  0  0  0  0
   -5.8857    5.9024  -12.5367 C   0  0  0  0  0  0  0  0  0  0  0  0
   -5.0263    6.0384  -13.3092 N   0  0  0  0  0  0  0  0  0  0  0  0
   -6.9299    5.6019  -10.3111 N   0  0  0  0  0  0  0  0  0  0  0  0
   -7.7534    4.6695   -9.8819 C   0  0  0  0  0  0  0  0  0  0  0  0
   -8.2638    3.9328  -10.9208 N   0  0  0  0  0  0  0  0  0  0  0  0
   -8.8979    2.6607  -10.7501 C   0  0  0  0  0  0  0  0  0  0  0  0
  1  2  1  0
  2  3  2  0
  3  4  1  0
  4  5  1  1
  5  6  2  0
  5  7  1  0
  7  8  1  0
  8  9  2  0
  9 10  1  0
 10 11  3  0
  9 12  1  0
 12 13  2  0
 13 14  1  0
 14 15  1  0
  4  2  1  0
 14  8  1  0
M  END
>  <energy_score>  (3592) 
-8.095232

>  <alias>  (3592) 
HHJJEJAIPDWPHM-UHFFFAOYSA-N-P86-P35-P86-601527

>  <HIPPO Pose ID>  (3592) 
78906

>  <smiles>  (3592) 
CC1=CC1C(=O)Nc1c(C#N)ncn1C

>  <inchikey>  (3592) 
HHJJEJAIPDWPHM-UHFFFAOYSA-N

>  <distance_score>  (3592) 
1.300626

>  <ref_mols>  (3592) 
Z0719a,Z1597a

>  <ref_pdb>  (3592) 
Z0719a

>  <HIPPO Compound ID>  (3592) 
150238

>  <name>  (3592) 
HHJJEJAIPDWPHM-UHFFFAOYSA-N-P86-P35-P86-601527

>  <inspiration_score>  (3592) 
None

$$$$
XLYHWOIBZZPPIR-UHFFFAOYSA-N-P35-P35-P86-601527
     RDKit          3D

 15 16  0  0  0  0  0  0  0  0999 V2000
   -9.3448    4.1754  -17.8468 C   0  0  0  0  0  0  0  0  0  0  0  0
   -8.4675    4.8971  -16.9075 C   0  0  0  0  0  0  0  0  0  0  0  0
   -7.4482    5.6860  -17.2539 C   0  0  0  0  0  0  0  0  0  0  0  0
   -7.1734    4.5829  -16.3770 C   0  0  1  0  0  0  0  0  0  0  0  0
   -6.8457    4.9276  -14.9729 C   0  0  0  0  0  0  0  0  0  0  0  0
   -5.8455    5.4882  -14.7587 O   0  0  0  0  0  0  0  0  0  0  0  0
   -7.9011    4.3635  -14.0044 N   0  0  0  0  0  0  0  0  0  0  0  0
   -7.9042    4.2899  -12.6552 C   0  0  0  0  0  0  0  0  0  0  0  0
   -6.8378    4.5432  -11.8321 C   0  0  0  0  0  0  0  0  0  0  0  0
   -7.0254    3.6032  -10.8385 N   0  0  0  0  0  0  0  0  0  0  0  0
   -5.9663    2.6887  -10.4040 C   0  0  0  0  0  0  0  0  0  0  0  0
   -5.3884    1.9508  -11.6340 C   0  0  0  0  0  0  0  0  0  0  0  0
   -4.8765    3.4170   -9.6228 C   0  0  0  0  0  0  0  0  0  0  0  0
   -8.3509    3.2587  -10.8625 C   0  0  0  0  0  0  0  0  0  0  0  0
   -8.9057    3.6674  -11.9841 N   0  0  0  0  0  0  0  0  0  0  0  0
  1  2  1  0
  2  3  2  0
  3  4  1  0
  4  5  1  1
  5  6  2  0
  5  7  1  0
  7  8  1  0
  8  9  2  0
  9 10  1  0
 10 11  1  0
 11 12  1  0
 11 13  1  0
 10 14  1  0
 14 15  2  0
  4  2  1  0
 15  8  1  0
M  END
>  <energy_score>  (3593) 
-13.073489

>  <alias>  (3593) 
XLYHWOIBZZPPIR-UHFFFAOYSA-N-P35-P35-P86-601527

>  <HIPPO Pose ID>  (3593) 
78907

>  <smiles>  (3593) 
CC1=CC1C(=O)Nc1cn(C(C)C)cn1

>  <inchikey>  (3593) 
XLYHWOIBZZPPIR-UHFFFAOYSA-N

>  <distance_score>  (3593) 
1.752204

>  <ref_mols>  (3593) 
Z0719a,Z1597a

>  <ref_pdb>  (3593) 
Z0719a

>  <HIPPO Compound ID>  (3593) 
150239

>  <name>  (3593) 
XLYHWOIBZZPPIR-UHFFFAOYSA-N-P35-P35-P86-601527

>  <inspiration_score>  (3593) 
None

$$$$
MQJSQBACZJSNPG-UHFFFAOYSA-N-P35-P35-P86-601527
     RDKit          3D

 15 15  0  0  0  0  0  0  0  0999 V2000
   -2.4349    5.2332  -19.6968 C   0  0  0  0  0  0  0  0  0  0  0  0
   -3.6677    5.7222  -19.4650 C   0  0  0  0  0  0  0  0  0  0  0  0
   -4.3190    6.8659  -20.2097 C   0  0  0  0  0  0  0  0  0  0  0  0
   -3.4319    7.6368  -21.1821 C   0  0  0  0  0  0  0  0  0  0  0  0
   -4.3357    5.1920  -18.2098 C   0  0  0  0  0  0  0  0  0  0  0  0
   -3.6990    4.9854  -17.2543 O   0  0  0  0  0  0  0  0  0  0  0  0
   -5.8578    5.0874  -18.4393 N   0  0  0  0  0  0  0  0  0  0  0  0
   -6.8650    4.8151  -17.5691 C   0  0  0  0  0  0  0  0  0  0  0  0
   -8.1459    4.8395  -18.0437 N   0  0  0  0  0  0  0  0  0  0  0  0
   -8.9265    4.6237  -17.0083 C   0  0  0  0  0  0  0  0  0  0  0  0
   -8.1894    4.5079  -15.8761 N   0  0  0  0  0  0  0  0  0  0  0  0
   -8.6638    4.4799  -14.5172 C   0  0  0  0  0  0  0  0  0  0  0  0
   -6.8649    4.5477  -16.2225 C   0  0  0  0  0  0  0  0  0  0  0  0
   -5.8388    4.3408  -15.2764 C   0  0  0  0  0  0  0  0  0  0  0  0
   -5.1109    4.1147  -14.4027 N   0  0  0  0  0  0  0  0  0  0  0  0
  1  2  2  0
  2  3  1  0
  3  4  1  0
  2  5  1  0
  5  6  2  0
  5  7  1  0
  7  8  1  0
  8  9  1  0
  9 10  2  0
 10 11  1  0
 11 12  1  0
 11 13  1  0
 13 14  1  0
 14 15  3  0
 13  8  2  0
M  END
>  <energy_score>  (3594) 
-22.824284

>  <alias>  (3594) 
MQJSQBACZJSNPG-UHFFFAOYSA-N-P35-P35-P86-601527

>  <HIPPO Pose ID>  (3594) 
78911

>  <smiles>  (3594) 
C=C(CC)C(=O)Nc1ncn(C)c1C#N

>  <inchikey>  (3594) 
MQJSQBACZJSNPG-UHFFFAOYSA-N

>  <distance_score>  (3594) 
1.669121

>  <ref_mols>  (3594) 
Z0719a,Z1597a

>  <ref_pdb>  (3594) 
Z0719a

>  <HIPPO Compound ID>  (3594) 
150241

>  <name>  (3594) 
MQJSQBACZJSNPG-UHFFFAOYSA-N-P35-P35-P86-601527

>  <inspiration_score>  (3594) 
None

$$$$
LUUFTUSMCJFPKL-UHFFFAOYSA-N-P86-P35-P86-601527
     RDKit          3D

 15 16  0  0  0  0  0  0  0  0999 V2000
   -4.9181    5.7552  -21.4558 C   0  0  0  0  0  0  0  0  0  0  0  0
   -4.7459    6.5381  -20.3832 C   0  0  0  0  0  0  0  0  0  0  0  0
   -4.0231    7.8537  -20.3937 C   0  0  0  0  0  0  0  0  0  0  0  0
   -3.6582    8.4368  -21.7552 C   0  0  0  0  0  0  0  0  0  0  0  0
   -5.2126    6.0916  -19.0186 C   0  0  0  0  0  0  0  0  0  0  0  0
   -4.5758    6.3286  -18.0684 O   0  0  0  0  0  0  0  0  0  0  0  0
   -6.5985    5.4144  -19.1548 N   0  0  0  0  0  0  0  0  0  0  0  0
   -7.3959    4.8387  -18.2163 C   0  0  0  0  0  0  0  0  0  0  0  0
   -8.6079    4.1859  -18.3775 C   0  0  0  0  0  0  0  0  0  0  0  0
   -9.1708    3.8408  -17.1633 N   0  0  0  0  0  0  0  0  0  0  0  0
   -8.3039    4.2821  -16.2891 C   0  0  0  0  0  0  0  0  0  0  0  0
   -7.2018    4.8076  -16.8865 N   0  0  0  0  0  0  0  0  0  0  0  0
   -6.2401    5.3428  -15.9554 C   0  0  0  0  0  0  0  0  0  0  0  0
   -6.7982    4.9159  -14.5970 C   0  0  0  0  0  0  0  0  0  0  0  0
   -8.2437    4.4299  -14.8290 C   0  0  0  0  0  0  0  0  0  0  0  0
  1  2  2  0
  2  3  1  0
  3  4  1  0
  2  5  1  0
  5  6  2  0
  5  7  1  0
  7  8  1  0
  8  9  2  0
  9 10  1  0
 10 11  2  0
 11 12  1  0
 12 13  1  0
 13 14  1  0
 14 15  1  0
 12  8  1  0
 15 11  1  0
M  END
>  <energy_score>  (3595) 
-14.224498

>  <alias>  (3595) 
LUUFTUSMCJFPKL-UHFFFAOYSA-N-P86-P35-P86-601527

>  <HIPPO Pose ID>  (3595) 
78924

>  <smiles>  (3595) 
C=C(CC)C(=O)Nc1cnc2n1CCC2

>  <inchikey>  (3595) 
LUUFTUSMCJFPKL-UHFFFAOYSA-N

>  <distance_score>  (3595) 
1.438755

>  <ref_mols>  (3595) 
Z0719a,Z1597a

>  <ref_pdb>  (3595) 
Z0719a

>  <HIPPO Compound ID>  (3595) 
150247

>  <name>  (3595) 
LUUFTUSMCJFPKL-UHFFFAOYSA-N-P86-P35-P86-601527

>  <inspiration_score>  (3595) 
None

$$$$
NVCYKMMLXDRXEO-UHFFFAOYSA-N-P86-P35-P86-601527
     RDKit          3D

 15 15  0  0  0  0  0  0  0  0999 V2000
   -2.7911    5.0937  -19.7606 C   0  0  0  0  0  0  0  0  0  0  0  0
   -3.9069    5.8403  -19.7887 C   0  0  0  0  0  0  0  0  0  0  0  0
   -4.4235    6.5435  -21.0081 C   0  0  0  0  0  0  0  0  0  0  0  0
   -4.5480    8.0481  -20.8124 C   0  0  0  0  0  0  0  0  0  0  0  0
   -4.6374    5.9805  -18.4902 C   0  0  0  0  0  0  0  0  0  0  0  0
   -4.1795    6.5485  -17.5789 O   0  0  0  0  0  0  0  0  0  0  0  0
   -5.9679    5.2008  -18.6208 N   0  0  0  0  0  0  0  0  0  0  0  0
   -6.9171    4.8936  -17.6786 C   0  0  0  0  0  0  0  0  0  0  0  0
   -8.1364    4.2820  -17.8968 C   0  0  0  0  0  0  0  0  0  0  0  0
   -8.7162    3.7839  -19.1461 C   0  0  0  0  0  0  0  0  0  0  0  0
   -8.8368    4.1190  -16.7320 N   0  0  0  0  0  0  0  0  0  0  0  0
   -8.0449    4.5642  -15.7857 C   0  0  0  0  0  0  0  0  0  0  0  0
   -8.3276    4.5435  -14.3330 C   0  0  0  0  0  0  0  0  0  0  0  0
   -6.8614    5.0322  -16.3152 N   0  0  0  0  0  0  0  0  0  0  0  0
   -5.7453    5.4365  -15.5153 C   0  0  0  0  0  0  0  0  0  0  0  0
  1  2  2  0
  2  3  1  0
  3  4  1  0
  2  5  1  0
  5  6  2  0
  5  7  1  0
  7  8  1  0
  8  9  2  0
  9 10  1  0
  9 11  1  0
 11 12  2  0
 12 13  1  0
 12 14  1  0
 14 15  1  0
 14  8  1  0
M  END
>  <energy_score>  (3596) 
-24.148259

>  <alias>  (3596) 
NVCYKMMLXDRXEO-UHFFFAOYSA-N-P86-P35-P86-601527

>  <HIPPO Pose ID>  (3596) 
78926

>  <smiles>  (3596) 
C=C(CC)C(=O)Nc1c(C)nc(C)n1C

>  <inchikey>  (3596) 
NVCYKMMLXDRXEO-UHFFFAOYSA-N

>  <distance_score>  (3596) 
1.29447

>  <ref_mols>  (3596) 
Z0719a,Z1597a

>  <ref_pdb>  (3596) 
Z0719a

>  <HIPPO Compound ID>  (3596) 
150248

>  <name>  (3596) 
NVCYKMMLXDRXEO-UHFFFAOYSA-N-P86-P35-P86-601527

>  <inspiration_score>  (3596) 
None

$$$$
VCSLXABCDMMYQF-UHFFFAOYSA-N-P86-P35-P86-601527
     RDKit          3D

 15 15  0  0  0  0  0  0  0  0999 V2000
   -3.2387    5.0905  -20.3928 C   0  0  0  0  0  0  0  0  0  0  0  0
   -4.1963    5.9875  -20.1116 C   0  0  0  0  0  0  0  0  0  0  0  0
   -4.6587    7.0614  -21.0295 C   0  0  0  0  0  0  0  0  0  0  0  0
   -5.3637    6.5241  -22.1378 O   0  0  0  0  0  0  0  0  0  0  0  0
   -4.6759    6.0296  -18.7056 C   0  0  0  0  0  0  0  0  0  0  0  0
   -3.9906    6.4217  -17.8465 O   0  0  0  0  0  0  0  0  0  0  0  0
   -6.0886    5.4074  -18.6546 N   0  0  0  0  0  0  0  0  0  0  0  0
   -6.8631    5.0724  -17.5978 C   0  0  0  0  0  0  0  0  0  0  0  0
   -6.5407    5.2355  -16.2803 C   0  0  0  0  0  0  0  0  0  0  0  0
   -7.5200    4.5847  -15.5890 N   0  0  0  0  0  0  0  0  0  0  0  0
   -7.5293    4.3083  -14.1607 C   0  0  0  0  0  0  0  0  0  0  0  0
   -6.1381    4.1188  -13.5174 C   0  0  0  0  0  0  0  0  0  0  0  0
   -6.1896    3.2678  -12.2667 C   0  0  0  0  0  0  0  0  0  0  0  0
   -8.4582    4.1927  -16.5015 C   0  0  0  0  0  0  0  0  0  0  0  0
   -8.0707    4.4650  -17.7318 N   0  0  0  0  0  0  0  0  0  0  0  0
  1  2  2  0
  2  3  1  0
  3  4  1  0
  2  5  1  0
  5  6  2  0
  5  7  1  0
  7  8  1  0
  8  9  2  0
  9 10  1  0
 10 11  1  0
 11 12  1  0
 12 13  1  0
 10 14  1  0
 14 15  2  0
 15  8  1  0
M  END
>  <energy_score>  (3597) 
-24.364176

>  <alias>  (3597) 
VCSLXABCDMMYQF-UHFFFAOYSA-N-P86-P35-P86-601527

>  <HIPPO Pose ID>  (3597) 
78932

>  <smiles>  (3597) 
C=C(CO)C(=O)Nc1cn(CCC)cn1

>  <inchikey>  (3597) 
VCSLXABCDMMYQF-UHFFFAOYSA-N

>  <distance_score>  (3597) 
1.928793

>  <ref_mols>  (3597) 
Z0719a,Z1597a

>  <ref_pdb>  (3597) 
Z0719a

>  <HIPPO Compound ID>  (3597) 
150251

>  <name>  (3597) 
VCSLXABCDMMYQF-UHFFFAOYSA-N-P86-P35-P86-601527

>  <inspiration_score>  (3597) 
None

$$$$
QEPWMKJQKPYCOG-UHFFFAOYSA-N-P86-P35-P86-601527
     RDKit          3D

 15 16  0  0  0  0  0  0  0  0999 V2000
   -2.7529    5.1256  -20.3218 C   0  0  0  0  0  0  0  0  0  0  0  0
   -3.9962    5.6358  -20.2614 C   0  0  0  0  0  0  0  0  0  0  0  0
   -4.6494    6.4398  -21.3405 C   0  0  0  0  0  0  0  0  0  0  0  0
   -3.6929    6.9873  -22.2468 O   0  0  0  0  0  0  0  0  0  0  0  0
   -4.7158    5.4692  -18.9506 C   0  0  0  0  0  0  0  0  0  0  0  0
   -4.1519    5.6306  -17.9393 O   0  0  0  0  0  0  0  0  0  0  0  0
   -6.1885    5.0666  -19.2276 N   0  0  0  0  0  0  0  0  0  0  0  0
   -7.1856    4.7084  -18.3681 C   0  0  0  0  0  0  0  0  0  0  0  0
   -8.4437    4.1828  -18.6256 C   0  0  0  0  0  0  0  0  0  0  0  0
   -9.1538    3.9399  -17.4629 N   0  0  0  0  0  0  0  0  0  0  0  0
   -8.3331    4.3203  -16.5198 C   0  0  0  0  0  0  0  0  0  0  0  0
   -7.1577    4.7826  -17.0243 N   0  0  0  0  0  0  0  0  0  0  0  0
   -6.2641    5.2942  -16.0129 C   0  0  0  0  0  0  0  0  0  0  0  0
   -7.1614    5.3521  -14.7737 C   0  0  0  0  0  0  0  0  0  0  0  0
   -8.3603    4.4230  -15.0540 C   0  0  0  0  0  0  0  0  0  0  0  0
  1  2  2  0
  2  3  1  0
  3  4  1  0
  2  5  1  0
  5  6  2  0
  5  7  1  0
  7  8  1  0
  8  9  2  0
  9 10  1  0
 10 11  2  0
 11 12  1  0
 12 13  1  0
 13 14  1  0
 14 15  1  0
 12  8  1  0
 15 11  1  0
M  END
>  <energy_score>  (3598) 
-24.901567

>  <alias>  (3598) 
QEPWMKJQKPYCOG-UHFFFAOYSA-N-P86-P35-P86-601527

>  <HIPPO Pose ID>  (3598) 
78948

>  <smiles>  (3598) 
C=C(CO)C(=O)Nc1cnc2n1CCC2

>  <inchikey>  (3598) 
QEPWMKJQKPYCOG-UHFFFAOYSA-N

>  <distance_score>  (3598) 
1.080014

>  <ref_mols>  (3598) 
Z0719a,Z1597a

>  <ref_pdb>  (3598) 
Z0719a

>  <HIPPO Compound ID>  (3598) 
150259

>  <name>  (3598) 
QEPWMKJQKPYCOG-UHFFFAOYSA-N-P86-P35-P86-601527

>  <inspiration_score>  (3598) 
None

$$$$
XGMHLIHWLVVOLF-UHFFFAOYSA-N-P86-P35-P86-601527
     RDKit          3D

 15 15  0  0  0  0  0  0  0  0999 V2000
   -2.9898    5.1435  -19.9868 C   0  0  0  0  0  0  0  0  0  0  0  0
   -4.0327    5.9813  -19.8707 C   0  0  0  0  0  0  0  0  0  0  0  0
   -4.5444    6.8724  -20.9499 C   0  0  0  0  0  0  0  0  0  0  0  0
   -4.4913    8.2397  -20.5532 O   0  0  0  0  0  0  0  0  0  0  0  0
   -4.6991    6.0294  -18.5388 C   0  0  0  0  0  0  0  0  0  0  0  0
   -4.2268    6.5900  -17.6303 O   0  0  0  0  0  0  0  0  0  0  0  0
   -5.9716    5.1539  -18.6259 N   0  0  0  0  0  0  0  0  0  0  0  0
   -6.9295    4.8783  -17.6836 C   0  0  0  0  0  0  0  0  0  0  0  0
   -8.1579    4.2844  -17.8931 C   0  0  0  0  0  0  0  0  0  0  0  0
   -8.7472    3.7833  -19.1359 C   0  0  0  0  0  0  0  0  0  0  0  0
   -8.8571    4.1442  -16.7250 N   0  0  0  0  0  0  0  0  0  0  0  0
   -8.0516    4.5767  -15.7841 C   0  0  0  0  0  0  0  0  0  0  0  0
   -8.3220    4.5550  -14.3293 C   0  0  0  0  0  0  0  0  0  0  0  0
   -6.8660    5.0283  -16.3224 N   0  0  0  0  0  0  0  0  0  0  0  0
   -5.7369    5.4160  -15.5327 C   0  0  0  0  0  0  0  0  0  0  0  0
  1  2  2  0
  2  3  1  0
  3  4  1  0
  2  5  1  0
  5  6  2  0
  5  7  1  0
  7  8  1  0
  8  9  2  0
  9 10  1  0
  9 11  1  0
 11 12  2  0
 12 13  1  0
 12 14  1  0
 14 15  1  0
 14  8  1  0
M  END
>  <energy_score>  (3599) 
-23.24557

>  <alias>  (3599) 
XGMHLIHWLVVOLF-UHFFFAOYSA-N-P86-P35-P86-601527

>  <HIPPO Pose ID>  (3599) 
78950

>  <smiles>  (3599) 
C=C(CO)C(=O)Nc1c(C)nc(C)n1C

>  <inchikey>  (3599) 
XGMHLIHWLVVOLF-UHFFFAOYSA-N

>  <distance_score>  (3599) 
1.357419

>  <ref_mols>  (3599) 
Z0719a,Z1597a

>  <ref_pdb>  (3599) 
Z0719a

>  <HIPPO Compound ID>  (3599) 
150260

>  <name>  (3599) 
XGMHLIHWLVVOLF-UHFFFAOYSA-N-P86-P35-P86-601527

>  <inspiration_score>  (3599) 
None

$$$$
MYLXIQOKCMMWLP-UHFFFAOYSA-N-P35-P35-P86-601527
     RDKit          3D

 15 15  0  0  0  0  0  0  0  0999 V2000
   -2.8580    5.5815  -19.5238 C   0  0  0  0  0  0  0  0  0  0  0  0
   -4.1683    5.8732  -19.3929 C   0  0  0  0  0  0  0  0  0  0  0  0
   -4.8009    6.9353  -20.2433 C   0  0  0  0  0  0  0  0  0  0  0  0
   -5.2851    7.9998  -19.4276 O   0  0  0  0  0  0  0  0  0  0  0  0
   -4.9116    5.1270  -18.2919 C   0  0  0  0  0  0  0  0  0  0  0  0
   -4.2987    4.5712  -17.4676 O   0  0  0  0  0  0  0  0  0  0  0  0
   -6.4383    5.2688  -18.4796 N   0  0  0  0  0  0  0  0  0  0  0  0
   -7.4660    4.8625  -17.6902 C   0  0  0  0  0  0  0  0  0  0  0  0
   -8.7010    4.8968  -18.2817 N   0  0  0  0  0  0  0  0  0  0  0  0
   -9.5585    4.4256  -17.4087 C   0  0  0  0  0  0  0  0  0  0  0  0
   -8.9304    4.0847  -16.2572 N   0  0  0  0  0  0  0  0  0  0  0  0
   -7.6058    4.4107  -16.4078 C   0  0  0  0  0  0  0  0  0  0  0  0
   -6.7769    4.2622  -15.2817 N   0  0  0  0  0  0  0  0  0  0  0  0
   -5.7733    4.9645  -15.1803 O   0  0  0  0  0  0  0  0  0  0  0  0
   -7.2000    3.4858  -14.4222 O   0  0  0  0  0  0  0  0  0  0  0  0
  1  2  2  0
  2  3  1  0
  3  4  1  0
  2  5  1  0
  5  6  2  0
  5  7  1  0
  7  8  1  0
  8  9  1  0
  9 10  2  0
 10 11  1  0
 11 12  1  0
 12 13  1  0
 13 14  2  0
 13 15  1  0
 12  8  2  0
M  CHG  2  13   1  15  -1
M  END
>  <energy_score>  (3600) 
-13.054326

>  <alias>  (3600) 
MYLXIQOKCMMWLP-UHFFFAOYSA-N-P35-P35-P86-601527

>  <HIPPO Pose ID>  (3600) 
78951

>  <smiles>  (3600) 
C=C(CO)C(=O)Nc1nc[nH]c1[N+](=O)[O-]

>  <inchikey>  (3600) 
MYLXIQOKCMMWLP-UHFFFAOYSA-N

>  <distance_score>  (3600) 
1.527708

>  <ref_mols>  (3600) 
Z0719a,Z1597a

>  <ref_pdb>  (3600) 
Z0719a

>  <HIPPO Compound ID>  (3600) 
150261

>  <name>  (3600) 
MYLXIQOKCMMWLP-UHFFFAOYSA-N-P35-P35-P86-601527

>  <inspiration_score>  (3600) 
None

$$$$
BWEKSHUEPRRQCH-UHFFFAOYSA-N-P86-P35-P86-601527
     RDKit          3D

 15 16  0  0  0  0  0  0  0  0999 V2000
   -4.1114    8.4065  -22.9571 C   0  0  0  0  0  0  0  0  0  0  0  0
   -3.0455    6.9740  -22.6657 S   0  0  0  0  0  0  0  0  0  0  0  0
   -3.4772    6.6153  -20.9204 C   0  0  0  0  0  0  0  0  0  0  0  0
   -4.8995    6.1105  -20.7571 C   0  0  0  0  0  0  0  0  0  0  0  0
   -5.2144    5.7906  -19.2988 C   0  0  0  0  0  0  0  0  0  0  0  0
   -4.5296    6.0760  -18.3955 O   0  0  0  0  0  0  0  0  0  0  0  0
   -6.5890    5.0628  -19.3310 N   0  0  0  0  0  0  0  0  0  0  0  0
   -7.3930    4.6498  -18.3155 C   0  0  0  0  0  0  0  0  0  0  0  0
   -8.6462    4.0648  -18.3991 C   0  0  0  0  0  0  0  0  0  0  0  0
   -9.2023    3.8539  -17.1554 N   0  0  0  0  0  0  0  0  0  0  0  0
   -8.2925    4.3089  -16.3344 C   0  0  0  0  0  0  0  0  0  0  0  0
   -7.1831    4.7430  -16.9918 N   0  0  0  0  0  0  0  0  0  0  0  0
   -6.1829    5.3073  -16.1207 C   0  0  0  0  0  0  0  0  0  0  0  0
   -6.7162    4.9721  -14.7242 C   0  0  0  0  0  0  0  0  0  0  0  0
   -8.1901    4.5420  -14.8879 C   0  0  0  0  0  0  0  0  0  0  0  0
  1  2  1  0
  2  3  1  0
  3  4  1  0
  4  5  1  0
  5  6  2  0
  5  7  1  0
  7  8  1  0
  8  9  2  0
  9 10  1  0
 10 11  2  0
 11 12  1  0
 12 13  1  0
 13 14  1  0
 14 15  1  0
 12  8  1  0
 15 11  1  0
M  END
>  <energy_score>  (3601) 
-38.38001

>  <alias>  (3601) 
BWEKSHUEPRRQCH-UHFFFAOYSA-N-P86-P35-P86-601527

>  <HIPPO Pose ID>  (3601) 
78960

>  <smiles>  (3601) 
CSCCC(=O)Nc1cnc2n1CCC2

>  <inchikey>  (3601) 
BWEKSHUEPRRQCH-UHFFFAOYSA-N

>  <distance_score>  (3601) 
1.329221

>  <ref_mols>  (3601) 
Z0719a,Z1597a

>  <ref_pdb>  (3601) 
Z0719a

>  <HIPPO Compound ID>  (3601) 
150265

>  <name>  (3601) 
BWEKSHUEPRRQCH-UHFFFAOYSA-N-P86-P35-P86-601527

>  <inspiration_score>  (3601) 
None

$$$$
HPDJNONWQDERBI-UHFFFAOYSA-N-P86-P35-P86-601527
     RDKit          3D

 15 16  0  0  0  0  0  0  0  0999 V2000
   -4.3222    5.7228  -18.0488 O   0  0  0  0  0  0  0  0  0  0  0  0
   -4.9212    5.5086  -19.0323 C   0  0  0  0  0  0  0  0  0  0  0  0
   -6.4036    5.0513  -19.2365 N   0  0  0  0  0  0  0  0  0  0  0  0
   -7.3514    4.6983  -18.3274 C   0  0  0  0  0  0  0  0  0  0  0  0
   -8.6226    4.1850  -18.5291 C   0  0  0  0  0  0  0  0  0  0  0  0
   -9.2706    3.9263  -17.3362 N   0  0  0  0  0  0  0  0  0  0  0  0
   -8.4045    4.2978  -16.4301 C   0  0  0  0  0  0  0  0  0  0  0  0
   -7.2511    4.7555  -16.9871 N   0  0  0  0  0  0  0  0  0  0  0  0
   -6.3165    5.2770  -16.0184 C   0  0  0  0  0  0  0  0  0  0  0  0
   -7.1592    5.3401  -14.7421 C   0  0  0  0  0  0  0  0  0  0  0  0
   -8.3662    4.4061  -14.9648 C   0  0  0  0  0  0  0  0  0  0  0  0
   -4.3049    5.5923  -20.4329 C   0  0  2  0  0  0  0  0  0  0  0  0
   -2.3611    5.3775  -20.3088 Br  0  0  0  0  0  0  0  0  0  0  0  0
   -4.6547    6.8288  -21.2237 C   0  0  0  0  0  0  0  0  0  0  0  0
   -4.3353    8.5008  -20.2729 Br  0  0  0  0  0  0  0  0  0  0  0  0
  1  2  2  0
  2  3  1  0
  3  4  1  0
  4  5  2  0
  5  6  1  0
  6  7  2  0
  7  8  1  0
  8  9  1  0
  9 10  1  0
 10 11  1  0
  2 12  1  0
 12 13  1  1
 12 14  1  0
 14 15  1  0
  8  4  1  0
 11  7  1  0
M  END
>  <energy_score>  (3602) 
-25.991702

>  <alias>  (3602) 
HPDJNONWQDERBI-UHFFFAOYSA-N-P86-P35-P86-601527

>  <HIPPO Pose ID>  (3602) 
78970

>  <smiles>  (3602) 
O=C(Nc1cnc2n1CCC2)C(Br)CBr

>  <inchikey>  (3602) 
HPDJNONWQDERBI-UHFFFAOYSA-N

>  <distance_score>  (3602) 
1.097843

>  <ref_mols>  (3602) 
Z0719a,Z1597a

>  <ref_pdb>  (3602) 
Z0719a

>  <HIPPO Compound ID>  (3602) 
150270

>  <name>  (3602) 
HPDJNONWQDERBI-UHFFFAOYSA-N-P86-P35-P86-601527

>  <inspiration_score>  (3602) 
None

$$$$
UASKLXXYSGFGKK-UHFFFAOYSA-N-P35-P35-P86-601527
     RDKit          3D

 15 15  0  0  0  0  0  0  0  0999 V2000
   -1.3811    7.3816  -20.1118 C   0  0  0  0  0  0  0  0  0  0  0  0
   -2.6519    6.6981  -21.2102 S   0  0  0  0  0  0  0  0  0  0  0  0
   -4.0509    6.6159  -20.0315 C   0  0  0  0  0  0  0  0  0  0  0  0
   -3.9246    5.3962  -19.1311 C   0  0  0  0  0  0  0  0  0  0  0  0
   -4.9214    5.4470  -17.9831 C   0  0  0  0  0  0  0  0  0  0  0  0
   -4.6307    5.8556  -16.9287 O   0  0  0  0  0  0  0  0  0  0  0  0
   -6.2566    4.8536  -18.4962 N   0  0  0  0  0  0  0  0  0  0  0  0
   -7.4067    4.5710  -17.8353 C   0  0  0  0  0  0  0  0  0  0  0  0
   -8.5061    4.2958  -18.5982 N   0  0  0  0  0  0  0  0  0  0  0  0
   -9.5176    4.1903  -17.7680 C   0  0  0  0  0  0  0  0  0  0  0  0
   -9.1010    4.2857  -16.4797 N   0  0  0  0  0  0  0  0  0  0  0  0
   -7.7519    4.5075  -16.5162 C   0  0  0  0  0  0  0  0  0  0  0  0
   -7.0587    4.5912  -15.2994 N   0  0  0  0  0  0  0  0  0  0  0  0
   -5.9943    3.9796  -15.1786 O   0  0  0  0  0  0  0  0  0  0  0  0
   -7.6494    5.2259  -14.4203 O   0  0  0  0  0  0  0  0  0  0  0  0
  1  2  1  0
  2  3  1  0
  3  4  1  0
  4  5  1  0
  5  6  2  0
  5  7  1  0
  7  8  1  0
  8  9  1  0
  9 10  2  0
 10 11  1  0
 11 12  1  0
 12 13  1  0
 13 14  2  0
 13 15  1  0
 12  8  2  0
M  CHG  2  13   1  15  -1
M  END
>  <energy_score>  (3603) 
-37.348208

>  <alias>  (3603) 
UASKLXXYSGFGKK-UHFFFAOYSA-N-P35-P35-P86-601527

>  <HIPPO Pose ID>  (3603) 
78975

>  <smiles>  (3603) 
CSCCC(=O)Nc1nc[nH]c1[N+](=O)[O-]

>  <inchikey>  (3603) 
UASKLXXYSGFGKK-UHFFFAOYSA-N

>  <distance_score>  (3603) 
1.469539

>  <ref_mols>  (3603) 
Z0719a,Z1597a

>  <ref_pdb>  (3603) 
Z0719a

>  <HIPPO Compound ID>  (3603) 
150273

>  <name>  (3603) 
UASKLXXYSGFGKK-UHFFFAOYSA-N-P35-P35-P86-601527

>  <inspiration_score>  (3603) 
None

$$$$
QPYRFJCSFJRVON-UHFFFAOYSA-N-P86-P35-P86-601527
     RDKit          3D

 15 15  0  0  0  0  0  0  0  0999 V2000
   -6.9630    4.3312  -11.8152 C   0  0  0  0  0  0  0  0  0  0  0  0
   -6.6184    4.0017  -13.2748 C   0  0  0  0  0  0  0  0  0  0  0  0
   -5.1264    4.1788  -13.4848 C   0  0  0  0  0  0  0  0  0  0  0  0
   -7.4970    4.8701  -14.2109 C   0  0  0  0  0  0  0  0  0  0  0  0
   -7.4980    4.6290  -15.6379 N   0  0  0  0  0  0  0  0  0  0  0  0
   -8.5552    4.1942  -16.3877 C   0  0  0  0  0  0  0  0  0  0  0  0
   -8.3100    4.3079  -17.6772 N   0  0  0  0  0  0  0  0  0  0  0  0
   -7.0554    4.8213  -17.7552 C   0  0  0  0  0  0  0  0  0  0  0  0
   -6.4263    5.0291  -18.9319 N   0  0  0  0  0  0  0  0  0  0  0  0
   -4.9799    5.5164  -19.2312 C   0  0  0  0  0  0  0  0  0  0  0  0
   -4.1393    5.8855  -18.5063 O   0  0  0  0  0  0  0  0  0  0  0  0
   -4.7435    5.3773  -20.7216 C   0  0  0  0  0  0  0  0  0  0  0  0
   -4.8371    6.7244  -21.3891 C   0  0  0  0  0  0  0  0  0  0  0  0
   -3.6611    7.3938  -21.2548 F   0  0  0  0  0  0  0  0  0  0  0  0
   -6.5473    5.0699  -16.5124 C   0  0  0  0  0  0  0  0  0  0  0  0
  1  2  1  0
  2  3  1  0
  2  4  1  0
  4  5  1  0
  5  6  1  0
  6  7  2  0
  7  8  1  0
  8  9  1  0
  9 10  1  0
 10 11  2  0
 10 12  1  0
 12 13  1  0
 13 14  1  0
  8 15  2  0
 15  5  1  0
M  END
>  <energy_score>  (3604) 
-22.826865

>  <alias>  (3604) 
QPYRFJCSFJRVON-UHFFFAOYSA-N-P86-P35-P86-601527

>  <HIPPO Pose ID>  (3604) 
78978

>  <smiles>  (3604) 
CC(C)Cn1cnc(NC(=O)CCF)c1

>  <inchikey>  (3604) 
QPYRFJCSFJRVON-UHFFFAOYSA-N

>  <distance_score>  (3604) 
1.754597

>  <ref_mols>  (3604) 
Z0719a,Z1597a

>  <ref_pdb>  (3604) 
Z0719a

>  <HIPPO Compound ID>  (3604) 
150274

>  <name>  (3604) 
QPYRFJCSFJRVON-UHFFFAOYSA-N-P86-P35-P86-601527

>  <inspiration_score>  (3604) 
None

$$$$
NCZNPHZXWQQWPC-UHFFFAOYSA-N-P35-P35-P86-601527
     RDKit          3D

 15 15  0  0  0  0  0  0  0  0999 V2000
   -8.6535    4.4685  -14.2652 C   0  0  0  0  0  0  0  0  0  0  0  0
   -8.2170    4.5032  -15.6372 N   0  0  0  0  0  0  0  0  0  0  0  0
   -8.9812    4.5536  -16.7565 C   0  0  0  0  0  0  0  0  0  0  0  0
   -8.2353    4.7774  -17.8150 N   0  0  0  0  0  0  0  0  0  0  0  0
   -6.9512    4.8522  -17.3605 C   0  0  0  0  0  0  0  0  0  0  0  0
   -5.9849    5.1607  -18.2586 N   0  0  0  0  0  0  0  0  0  0  0  0
   -4.4491    5.3563  -18.0665 C   0  0  0  0  0  0  0  0  0  0  0  0
   -3.8013    5.3563  -17.0925 O   0  0  0  0  0  0  0  0  0  0  0  0
   -3.8671    5.5796  -19.4626 C   0  0  2  0  0  0  0  0  0  0  0  0
   -2.0570    4.7965  -19.5100 Br  0  0  0  0  0  0  0  0  0  0  0  0
   -3.7461    7.0276  -19.8708 C   0  0  0  0  0  0  0  0  0  0  0  0
   -5.4598    7.8644  -20.2201 Br  0  0  0  0  0  0  0  0  0  0  0  0
   -6.9053    4.5952  -16.0159 C   0  0  0  0  0  0  0  0  0  0  0  0
   -5.8430    4.4110  -15.1085 C   0  0  0  0  0  0  0  0  0  0  0  0
   -5.0696    4.1925  -14.2734 N   0  0  0  0  0  0  0  0  0  0  0  0
  1  2  1  0
  2  3  1  0
  3  4  2  0
  4  5  1  0
  5  6  1  0
  6  7  1  0
  7  8  2  0
  7  9  1  0
  9 10  1  1
  9 11  1  0
 11 12  1  0
  5 13  2  0
 13 14  1  0
 14 15  3  0
 13  2  1  0
M  END
>  <energy_score>  (3605) 
-26.604702

>  <alias>  (3605) 
NCZNPHZXWQQWPC-UHFFFAOYSA-N-P35-P35-P86-601527

>  <HIPPO Pose ID>  (3605) 
78981

>  <smiles>  (3605) 
Cn1cnc(NC(=O)C(Br)CBr)c1C#N

>  <inchikey>  (3605) 
NCZNPHZXWQQWPC-UHFFFAOYSA-N

>  <distance_score>  (3605) 
1.754636

>  <ref_mols>  (3605) 
Z0719a,Z1597a

>  <ref_pdb>  (3605) 
Z0719a

>  <HIPPO Compound ID>  (3605) 
150276

>  <name>  (3605) 
NCZNPHZXWQQWPC-UHFFFAOYSA-N-P35-P35-P86-601527

>  <inspiration_score>  (3605) 
None

$$$$
AIUONQKUHOOCFI-UHFFFAOYSA-N-P86-P35-P86-601527
     RDKit          3D

 15 16  0  0  0  0  0  0  0  0999 V2000
   -3.2893    6.0850  -19.6167 O   0  0  0  0  0  0  0  0  0  0  0  0
   -4.2272    5.9569  -20.3018 C   0  0  0  0  0  0  0  0  0  0  0  0
   -4.2099    6.2862  -21.7754 C   0  0  0  0  0  0  0  0  0  0  0  0
   -4.5283    7.7483  -21.9287 C   0  0  0  0  0  0  0  0  0  0  0  0
   -3.3893    8.4820  -21.8164 F   0  0  0  0  0  0  0  0  0  0  0  0
   -5.6865    5.5551  -19.9471 N   0  0  0  0  0  0  0  0  0  0  0  0
   -6.2267    5.1652  -18.7745 C   0  0  0  0  0  0  0  0  0  0  0  0
   -7.4732    4.6160  -18.6073 C   0  0  0  0  0  0  0  0  0  0  0  0
   -7.6319    4.5325  -17.2593 N   0  0  0  0  0  0  0  0  0  0  0  0
   -8.7671    4.1568  -16.6230 N   0  0  0  0  0  0  0  0  0  0  0  0
   -8.6587    4.2799  -15.3410 C   0  0  0  0  0  0  0  0  0  0  0  0
   -7.4706    4.7282  -14.5837 C   0  0  0  0  0  0  0  0  0  0  0  0
   -6.3969    5.0876  -15.2879 C   0  0  0  0  0  0  0  0  0  0  0  0
   -6.4646    5.0212  -16.6905 C   0  0  0  0  0  0  0  0  0  0  0  0
   -5.5920    5.3864  -17.5972 N   0  0  0  0  0  0  0  0  0  0  0  0
  1  2  2  0
  2  3  1  0
  3  4  1  0
  4  5  1  0
  2  6  1  0
  6  7  1  0
  7  8  2  0
  8  9  1  0
  9 10  1  0
 10 11  2  0
 11 12  1  0
 12 13  2  0
 13 14  1  0
 14 15  2  0
 15  7  1  0
 14  9  1  0
M  END
>  <energy_score>  (3606) 
-30.104397

>  <alias>  (3606) 
AIUONQKUHOOCFI-UHFFFAOYSA-N-P86-P35-P86-601527

>  <HIPPO Pose ID>  (3606) 
78996

>  <smiles>  (3606) 
O=C(CCF)Nc1cn2ncccc2n1

>  <inchikey>  (3606) 
AIUONQKUHOOCFI-UHFFFAOYSA-N

>  <distance_score>  (3606) 
1.589102

>  <ref_mols>  (3606) 
Z0719a,Z1597a

>  <ref_pdb>  (3606) 
Z0719a

>  <HIPPO Compound ID>  (3606) 
150283

>  <name>  (3606) 
AIUONQKUHOOCFI-UHFFFAOYSA-N-P86-P35-P86-601527

>  <inspiration_score>  (3606) 
None

$$$$
UZSVSKLSPHKJSV-UHFFFAOYSA-N-P86-P35-P86-601527
     RDKit          3D

 15 16  0  0  0  0  0  0  0  0999 V2000
   -3.1783    7.0169  -18.9915 O   0  0  0  0  0  0  0  0  0  0  0  0
   -3.7669    6.4134  -19.8018 C   0  0  0  0  0  0  0  0  0  0  0  0
   -3.2649    6.2688  -21.2203 C   0  0  0  0  0  0  0  0  0  0  0  0
   -4.2028    6.9186  -22.2066 C   0  0  0  0  0  0  0  0  0  0  0  0
   -4.1518    8.2704  -22.0671 F   0  0  0  0  0  0  0  0  0  0  0  0
   -5.1009    5.6178  -19.6959 N   0  0  0  0  0  0  0  0  0  0  0  0
   -5.8768    5.3442  -18.6226 C   0  0  0  0  0  0  0  0  0  0  0  0
   -7.0438    4.6219  -18.6234 C   0  0  0  0  0  0  0  0  0  0  0  0
   -7.4477    4.6306  -17.3197 N   0  0  0  0  0  0  0  0  0  0  0  0
   -8.5961    4.1351  -16.7376 C   0  0  0  0  0  0  0  0  0  0  0  0
   -8.7483    4.2914  -15.4199 C   0  0  0  0  0  0  0  0  0  0  0  0
   -7.6319    4.9432  -14.7001 C   0  0  0  0  0  0  0  0  0  0  0  0
   -6.5666    5.4442  -15.2318 N   0  0  0  0  0  0  0  0  0  0  0  0
   -6.4730    5.3083  -16.5848 C   0  0  0  0  0  0  0  0  0  0  0  0
   -5.5468    5.7836  -17.3841 N   0  0  0  0  0  0  0  0  0  0  0  0
  1  2  2  0
  2  3  1  0
  3  4  1  0
  4  5  1  0
  2  6  1  0
  6  7  1  0
  7  8  2  0
  8  9  1  0
  9 10  1  0
 10 11  2  0
 11 12  1  0
 12 13  2  0
 13 14  1  0
 14 15  2  0
 15  7  1  0
 14  9  1  0
M  END
>  <energy_score>  (3607) 
-21.876844

>  <alias>  (3607) 
UZSVSKLSPHKJSV-UHFFFAOYSA-N-P86-P35-P86-601527

>  <HIPPO Pose ID>  (3607) 
78998

>  <smiles>  (3607) 
O=C(CCF)Nc1cn2cccnc2n1

>  <inchikey>  (3607) 
UZSVSKLSPHKJSV-UHFFFAOYSA-N

>  <distance_score>  (3607) 
1.572366

>  <ref_mols>  (3607) 
Z0719a,Z1597a

>  <ref_pdb>  (3607) 
Z0719a

>  <HIPPO Compound ID>  (3607) 
150284

>  <name>  (3607) 
UZSVSKLSPHKJSV-UHFFFAOYSA-N-P86-P35-P86-601527

>  <inspiration_score>  (3607) 
None

$$$$
DGFJTIWRPFFCNE-UHFFFAOYSA-N-P35-P35-P86-601527
     RDKit          3D

 15 15  0  0  0  0  0  0  0  0999 V2000
   -7.5065    5.1019  -13.9280 C   0  0  0  0  0  0  0  0  0  0  0  0
   -6.2314    4.6435  -14.3929 O   0  0  0  0  0  0  0  0  0  0  0  0
   -5.9362    4.5164  -15.7292 C   0  0  0  0  0  0  0  0  0  0  0  0
   -4.7914    4.1982  -16.0503 O   0  0  0  0  0  0  0  0  0  0  0  0
   -7.0127    4.7048  -16.7179 C   0  0  0  0  0  0  0  0  0  0  0  0
   -8.3534    4.4033  -16.4574 N   0  0  0  0  0  0  0  0  0  0  0  0
   -8.9884    4.5349  -17.5936 C   0  0  0  0  0  0  0  0  0  0  0  0
   -8.1353    4.8991  -18.5918 N   0  0  0  0  0  0  0  0  0  0  0  0
   -6.8841    5.0579  -18.0559 C   0  0  0  0  0  0  0  0  0  0  0  0
   -5.8523    5.4701  -18.8522 N   0  0  0  0  0  0  0  0  0  0  0  0
   -4.5307    6.2059  -18.4914 C   0  0  0  0  0  0  0  0  0  0  0  0
   -4.0887    6.5024  -17.4509 O   0  0  0  0  0  0  0  0  0  0  0  0
   -3.7664    6.4219  -19.7812 C   0  0  0  0  0  0  0  0  0  0  0  0
   -4.3679    7.5346  -20.5977 C   0  0  0  0  0  0  0  0  0  0  0  0
   -5.5944    7.1727  -21.0497 F   0  0  0  0  0  0  0  0  0  0  0  0
  1  2  1  0
  2  3  1  0
  3  4  2  0
  3  5  1  0
  5  6  1  0
  6  7  2  0
  7  8  1  0
  8  9  1  0
  9 10  1  0
 10 11  1  0
 11 12  2  0
 11 13  1  0
 13 14  1  0
 14 15  1  0
  9  5  2  0
M  END
>  <energy_score>  (3608) 
-12.191199

>  <alias>  (3608) 
DGFJTIWRPFFCNE-UHFFFAOYSA-N-P35-P35-P86-601527

>  <HIPPO Pose ID>  (3608) 
78999

>  <smiles>  (3608) 
COC(=O)c1nc[nH]c1NC(=O)CCF

>  <inchikey>  (3608) 
DGFJTIWRPFFCNE-UHFFFAOYSA-N

>  <distance_score>  (3608) 
1.672369

>  <ref_mols>  (3608) 
Z0719a,Z1597a

>  <ref_pdb>  (3608) 
Z0719a

>  <HIPPO Compound ID>  (3608) 
150285

>  <name>  (3608) 
DGFJTIWRPFFCNE-UHFFFAOYSA-N-P35-P35-P86-601527

>  <inspiration_score>  (3608) 
None

$$$$
ZAWGOQIEGAYMTC-UHFFFAOYSA-N-P86-P35-P86-601527
     RDKit          3D

 15 15  0  0  0  0  0  0  0  0999 V2000
   -2.8045    8.2197  -22.2363 C   0  0  0  0  0  0  0  0  0  0  0  0
   -3.4771    7.6757  -21.2142 C   0  0  0  0  0  0  0  0  0  0  0  0
   -4.7671    6.9165  -21.3605 C   0  0  0  0  0  0  0  0  0  0  0  0
   -4.6899    5.5064  -20.7975 C   0  0  0  0  0  0  0  0  0  0  0  0
   -4.9144    5.5004  -19.2955 C   0  0  0  0  0  0  0  0  0  0  0  0
   -4.0422    5.6996  -18.5414 O   0  0  0  0  0  0  0  0  0  0  0  0
   -6.4090    5.1580  -19.0393 N   0  0  0  0  0  0  0  0  0  0  0  0
   -7.0671    4.9144  -17.8859 C   0  0  0  0  0  0  0  0  0  0  0  0
   -6.5403    4.9775  -16.6270 C   0  0  0  0  0  0  0  0  0  0  0  0
   -7.5228    4.5158  -15.8049 N   0  0  0  0  0  0  0  0  0  0  0  0
   -7.4457    4.2981  -14.3739 C   0  0  0  0  0  0  0  0  0  0  0  0
   -6.0398    4.2440  -13.7391 C   0  0  0  0  0  0  0  0  0  0  0  0
   -6.0126    3.4317  -12.4602 C   0  0  0  0  0  0  0  0  0  0  0  0
   -8.6177    4.2708  -16.5858 C   0  0  0  0  0  0  0  0  0  0  0  0
   -8.3659    4.5209  -17.8536 N   0  0  0  0  0  0  0  0  0  0  0  0
  1  2  2  0
  2  3  1  0
  3  4  1  0
  4  5  1  0
  5  6  2  0
  5  7  1  0
  7  8  1  0
  8  9  2  0
  9 10  1  0
 10 11  1  0
 11 12  1  0
 12 13  1  0
 10 14  1  0
 14 15  2  0
 15  8  1  0
M  END
>  <energy_score>  (3609) 
-4.156691

>  <alias>  (3609) 
ZAWGOQIEGAYMTC-UHFFFAOYSA-N-P86-P35-P86-601527

>  <HIPPO Pose ID>  (3609) 
79006

>  <smiles>  (3609) 
C=CCCC(=O)Nc1cn(CCC)cn1

>  <inchikey>  (3609) 
ZAWGOQIEGAYMTC-UHFFFAOYSA-N

>  <distance_score>  (3609) 
1.679883

>  <ref_mols>  (3609) 
Z0719a,Z1597a

>  <ref_pdb>  (3609) 
Z0719a

>  <HIPPO Compound ID>  (3609) 
150288

>  <name>  (3609) 
ZAWGOQIEGAYMTC-UHFFFAOYSA-N-P86-P35-P86-601527

>  <inspiration_score>  (3609) 
None

$$$$
KQSWKKICLDZPBE-UHFFFAOYSA-M-P35-P35-P86-601527
     RDKit          3D

 15 15  0  0  0  0  0  0  0  0999 V2000
   -8.3919    4.3519  -13.6066 C   0  0  0  0  0  0  0  0  0  0  0  0
   -7.8536    4.3841  -14.9419 N   0  0  0  0  0  0  0  0  0  0  0  0
   -8.5247    4.7126  -16.0759 C   0  0  0  0  0  0  0  0  0  0  0  0
   -7.6957    4.8812  -17.0771 N   0  0  0  0  0  0  0  0  0  0  0  0
   -6.4448    4.6119  -16.5671 C   0  0  0  0  0  0  0  0  0  0  0  0
   -5.4316    4.7075  -17.4615 N   0  0  0  0  0  0  0  0  0  0  0  0
   -3.9972    5.2822  -17.3034 C   0  0  0  0  0  0  0  0  0  0  0  0
   -3.4959    5.8308  -16.4006 O   0  0  0  0  0  0  0  0  0  0  0  0
   -3.2681    5.0338  -18.6136 C   0  0  0  0  0  0  0  0  0  0  0  0
   -3.6927    5.9688  -19.7300 C   0  0  0  0  0  0  0  0  0  0  0  0
   -2.9386    5.6735  -20.8371 F   0  0  0  0  0  0  0  0  0  0  0  0
   -6.5353    4.1739  -15.2653 C   0  0  0  0  0  0  0  0  0  0  0  0
   -5.5522    3.3752  -14.3384 C   0  0  0  0  0  0  0  0  0  0  0  0
   -6.1030    2.7129  -13.4020 O   0  0  0  0  0  0  0  0  0  0  0  0
   -4.3129    3.3790  -14.5955 O   0  0  0  0  0  0  0  0  0  0  0  0
  1  2  1  0
  2  3  1  0
  3  4  2  0
  4  5  1  0
  5  6  1  0
  6  7  1  0
  7  8  2  0
  7  9  1  0
  9 10  1  0
 10 11  1  0
  5 12  2  0
 12 13  1  0
 13 14  2  0
 13 15  1  0
 12  2  1  0
M  CHG  1  15  -1
M  END
>  <energy_score>  (3610) 
-14.612321

>  <alias>  (3610) 
KQSWKKICLDZPBE-UHFFFAOYSA-M-P35-P35-P86-601527

>  <HIPPO Pose ID>  (3610) 
79023

>  <smiles>  (3610) 
Cn1cnc(NC(=O)CCF)c1C(=O)[O-]

>  <inchikey>  (3610) 
KQSWKKICLDZPBE-UHFFFAOYSA-M

>  <distance_score>  (3610) 
1.797245

>  <ref_mols>  (3610) 
Z0719a,Z1597a

>  <ref_pdb>  (3610) 
Z0719a

>  <HIPPO Compound ID>  (3610) 
150297

>  <name>  (3610) 
KQSWKKICLDZPBE-UHFFFAOYSA-M-P35-P35-P86-601527

>  <inspiration_score>  (3610) 
None

$$$$
BURIOIODNUIVBG-UHFFFAOYSA-N-P35-P35-P86-601527
     RDKit          3D

 15 15  0  0  0  0  0  0  0  0999 V2000
   -3.6478    8.7991  -18.6962 C   0  0  0  0  0  0  0  0  0  0  0  0
   -3.9736    7.8349  -19.3333 C   0  0  0  0  0  0  0  0  0  0  0  0
   -4.3737    6.6464  -20.1024 C   0  0  0  0  0  0  0  0  0  0  0  0
   -4.0690    5.3561  -19.3463 C   0  0  0  0  0  0  0  0  0  0  0  0
   -4.8373    5.1383  -18.0471 C   0  0  0  0  0  0  0  0  0  0  0  0
   -4.2838    5.0092  -17.0266 O   0  0  0  0  0  0  0  0  0  0  0  0
   -6.3507    5.0848  -18.3836 N   0  0  0  0  0  0  0  0  0  0  0  0
   -7.4183    4.7862  -17.5999 C   0  0  0  0  0  0  0  0  0  0  0  0
   -8.6213    4.7861  -18.2554 N   0  0  0  0  0  0  0  0  0  0  0  0
   -9.5280    4.3963  -17.3919 C   0  0  0  0  0  0  0  0  0  0  0  0
   -8.9607    4.1303  -16.1895 N   0  0  0  0  0  0  0  0  0  0  0  0
   -7.6275    4.4338  -16.2969 C   0  0  0  0  0  0  0  0  0  0  0  0
   -6.8405    4.2816  -15.1450 N   0  0  0  0  0  0  0  0  0  0  0  0
   -5.9594    5.1060  -14.9149 O   0  0  0  0  0  0  0  0  0  0  0  0
   -7.1931    3.3749  -14.3889 O   0  0  0  0  0  0  0  0  0  0  0  0
  1  2  3  0
  2  3  1  0
  3  4  1  0
  4  5  1  0
  5  6  2  0
  5  7  1  0
  7  8  1  0
  8  9  1  0
  9 10  2  0
 10 11  1  0
 11 12  1  0
 12 13  1  0
 13 14  2  0
 13 15  1  0
 12  8  2  0
M  CHG  2  13   1  15  -1
M  END
>  <energy_score>  (3611) 
-11.346505

>  <alias>  (3611) 
BURIOIODNUIVBG-UHFFFAOYSA-N-P35-P35-P86-601527

>  <HIPPO Pose ID>  (3611) 
79029

>  <smiles>  (3611) 
C#CCCC(=O)Nc1nc[nH]c1[N+](=O)[O-]

>  <inchikey>  (3611) 
BURIOIODNUIVBG-UHFFFAOYSA-N

>  <distance_score>  (3611) 
1.53777

>  <ref_mols>  (3611) 
Z0719a,Z1597a

>  <ref_pdb>  (3611) 
Z0719a

>  <HIPPO Compound ID>  (3611) 
150300

>  <name>  (3611) 
BURIOIODNUIVBG-UHFFFAOYSA-N-P35-P35-P86-601527

>  <inspiration_score>  (3611) 
None

$$$$
VXLQNMPLMJXQHR-UHFFFAOYSA-N-P35-P35-P86-601527
     RDKit          3D

 15 16  0  0  0  0  0  0  0  0999 V2000
   -3.6880    7.3996  -23.2671 C   0  0  0  0  0  0  0  0  0  0  0  0
   -3.4207    7.5587  -21.9650 C   0  0  0  0  0  0  0  0  0  0  0  0
   -4.4044    7.2692  -20.8646 C   0  0  0  0  0  0  0  0  0  0  0  0
   -3.8768    6.2183  -19.8995 C   0  0  0  0  0  0  0  0  0  0  0  0
   -4.7531    6.0911  -18.6690 C   0  0  0  0  0  0  0  0  0  0  0  0
   -4.3966    6.4907  -17.6279 O   0  0  0  0  0  0  0  0  0  0  0  0
   -6.0708    5.3658  -19.0745 N   0  0  0  0  0  0  0  0  0  0  0  0
   -7.1132    4.9267  -18.3084 C   0  0  0  0  0  0  0  0  0  0  0  0
   -8.2894    4.2773  -18.6601 C   0  0  0  0  0  0  0  0  0  0  0  0
   -9.0416    3.9143  -17.5528 N   0  0  0  0  0  0  0  0  0  0  0  0
   -8.3396    4.3727  -16.5519 C   0  0  0  0  0  0  0  0  0  0  0  0
   -7.2150    5.0141  -16.9684 N   0  0  0  0  0  0  0  0  0  0  0  0
   -6.4425    5.5618  -15.8775 C   0  0  0  0  0  0  0  0  0  0  0  0
   -7.4224    5.4676  -14.7063 C   0  0  0  0  0  0  0  0  0  0  0  0
   -8.4253    4.3627  -15.0846 C   0  0  0  0  0  0  0  0  0  0  0  0
  1  2  2  0
  2  3  1  0
  3  4  1  0
  4  5  1  0
  5  6  2  0
  5  7  1  0
  7  8  1  0
  8  9  2  0
  9 10  1  0
 10 11  2  0
 11 12  1  0
 12 13  1  0
 13 14  1  0
 14 15  1  0
 12  8  1  0
 15 11  1  0
M  END
>  <energy_score>  (3612) 
-13.554188

>  <alias>  (3612) 
VXLQNMPLMJXQHR-UHFFFAOYSA-N-P35-P35-P86-601527

>  <HIPPO Pose ID>  (3612) 
79033

>  <smiles>  (3612) 
C=CCCC(=O)Nc1cnc2n1CCC2

>  <inchikey>  (3612) 
VXLQNMPLMJXQHR-UHFFFAOYSA-N

>  <distance_score>  (3612) 
1.207314

>  <ref_mols>  (3612) 
Z0719a,Z1597a

>  <ref_pdb>  (3612) 
Z0719a

>  <HIPPO Compound ID>  (3612) 
150302

>  <name>  (3612) 
VXLQNMPLMJXQHR-UHFFFAOYSA-N-P35-P35-P86-601527

>  <inspiration_score>  (3612) 
None

$$$$
VTSKJPUHCLMDSD-UHFFFAOYSA-N-P35-P35-P86-601527
     RDKit          3D

 15 15  0  0  0  0  0  0  0  0999 V2000
   -3.9820    7.7396  -23.3052 C   0  0  0  0  0  0  0  0  0  0  0  0
   -4.0043    7.4602  -22.0386 C   0  0  0  0  0  0  0  0  0  0  0  0
   -4.0481    7.1621  -20.7724 C   0  0  0  0  0  0  0  0  0  0  0  0
   -5.3103    6.8427  -20.0179 C   0  0  0  0  0  0  0  0  0  0  0  0
   -5.0408    6.0696  -18.7168 C   0  0  0  0  0  0  0  0  0  0  0  0
   -3.9691    5.8513  -18.2969 O   0  0  0  0  0  0  0  0  0  0  0  0
   -6.4448    5.7777  -18.1037 N   0  0  0  0  0  0  0  0  0  0  0  0
   -6.7897    5.1191  -16.9736 C   0  0  0  0  0  0  0  0  0  0  0  0
   -5.9699    4.4668  -16.0933 C   0  0  0  0  0  0  0  0  0  0  0  0
   -6.7931    3.9564  -15.1198 N   0  0  0  0  0  0  0  0  0  0  0  0
   -6.4229    3.0841  -13.9994 C   0  0  0  0  0  0  0  0  0  0  0  0
   -7.2478    3.3170  -12.7373 C   0  0  0  0  0  0  0  0  0  0  0  0
   -4.9337    3.1287  -13.6161 C   0  0  0  0  0  0  0  0  0  0  0  0
   -8.0668    4.3297  -15.4774 C   0  0  0  0  0  0  0  0  0  0  0  0
   -8.0820    5.0641  -16.5691 N   0  0  0  0  0  0  0  0  0  0  0  0
  1  2  2  0
  2  3  2  0
  3  4  1  0
  4  5  1  0
  5  6  2  0
  5  7  1  0
  7  8  1  0
  8  9  2  0
  9 10  1  0
 10 11  1  0
 11 12  1  0
 11 13  1  0
 10 14  1  0
 14 15  2  0
 15  8  1  0
M  END
>  <energy_score>  (3613) 
-18.782715

>  <alias>  (3613) 
VTSKJPUHCLMDSD-UHFFFAOYSA-N-P35-P35-P86-601527

>  <HIPPO Pose ID>  (3613) 
79035

>  <smiles>  (3613) 
C=C=CCC(=O)Nc1cn(C(C)C)cn1

>  <inchikey>  (3613) 
VTSKJPUHCLMDSD-UHFFFAOYSA-N

>  <distance_score>  (3613) 
1.859838

>  <ref_mols>  (3613) 
Z0719a,Z1597a

>  <ref_pdb>  (3613) 
Z0719a

>  <HIPPO Compound ID>  (3613) 
150303

>  <name>  (3613) 
VTSKJPUHCLMDSD-UHFFFAOYSA-N-P35-P35-P86-601527

>  <inspiration_score>  (3613) 
None

$$$$
KGLZGXHKEQNEJP-UHFFFAOYSA-N-P86-P35-P86-601527
     RDKit          3D

 15 16  0  0  0  0  0  0  0  0999 V2000
   -5.2636    8.2882  -23.0593 C   0  0  0  0  0  0  0  0  0  0  0  0
   -4.7949    7.6860  -22.0100 C   0  0  0  0  0  0  0  0  0  0  0  0
   -4.3249    7.0637  -20.9684 C   0  0  0  0  0  0  0  0  0  0  0  0
   -4.5419    5.6134  -20.6772 C   0  0  0  0  0  0  0  0  0  0  0  0
   -5.0417    5.4287  -19.2403 C   0  0  0  0  0  0  0  0  0  0  0  0
   -4.3511    5.5898  -18.3085 O   0  0  0  0  0  0  0  0  0  0  0  0
   -6.5107    4.9200  -19.3315 N   0  0  0  0  0  0  0  0  0  0  0  0
   -7.4023    4.6163  -18.3507 C   0  0  0  0  0  0  0  0  0  0  0  0
   -8.6910    4.1243  -18.4738 C   0  0  0  0  0  0  0  0  0  0  0  0
   -9.2818    3.9093  -17.2454 N   0  0  0  0  0  0  0  0  0  0  0  0
   -8.3703    4.3014  -16.3952 C   0  0  0  0  0  0  0  0  0  0  0  0
   -7.2354    4.7174  -17.0206 N   0  0  0  0  0  0  0  0  0  0  0  0
   -6.2578    5.2757  -16.1187 C   0  0  0  0  0  0  0  0  0  0  0  0
   -7.0385    5.3867  -14.8041 C   0  0  0  0  0  0  0  0  0  0  0  0
   -8.2759    4.4732  -14.9392 C   0  0  0  0  0  0  0  0  0  0  0  0
  1  2  2  0
  2  3  2  0
  3  4  1  0
  4  5  1  0
  5  6  2  0
  5  7  1  0
  7  8  1  0
  8  9  2  0
  9 10  1  0
 10 11  2  0
 11 12  1  0
 12 13  1  0
 13 14  1  0
 14 15  1  0
 12  8  1  0
 15 11  1  0
M  END
>  <energy_score>  (3614) 
-37.948041

>  <alias>  (3614) 
KGLZGXHKEQNEJP-UHFFFAOYSA-N-P86-P35-P86-601527

>  <HIPPO Pose ID>  (3614) 
79042

>  <smiles>  (3614) 
C=C=CCC(=O)Nc1cnc2n1CCC2

>  <inchikey>  (3614) 
KGLZGXHKEQNEJP-UHFFFAOYSA-N

>  <distance_score>  (3614) 
1.117001

>  <ref_mols>  (3614) 
Z0719a,Z1597a

>  <ref_pdb>  (3614) 
Z0719a

>  <HIPPO Compound ID>  (3614) 
150306

>  <name>  (3614) 
KGLZGXHKEQNEJP-UHFFFAOYSA-N-P86-P35-P86-601527

>  <inspiration_score>  (3614) 
None

$$$$
MAZKJWLFUXUZSP-UHFFFAOYSA-N-P86-P35-P86-601527
     RDKit          3D

 15 15  0  0  0  0  0  0  0  0999 V2000
   -6.1505    4.3700  -13.7412 C   0  0  0  0  0  0  0  0  0  0  0  0
   -7.6602    4.2381  -13.8399 C   0  0  0  0  0  0  0  0  0  0  0  0
   -8.2910    5.0717  -14.9393 C   0  0  0  0  0  0  0  0  0  0  0  0
   -8.0157    4.6606  -16.2882 N   0  0  0  0  0  0  0  0  0  0  0  0
   -8.9169    4.1655  -17.1810 C   0  0  0  0  0  0  0  0  0  0  0  0
   -8.4282    4.1865  -18.4017 N   0  0  0  0  0  0  0  0  0  0  0  0
   -7.1771    4.6979  -18.2744 C   0  0  0  0  0  0  0  0  0  0  0  0
   -6.3795    4.9420  -19.3315 N   0  0  0  0  0  0  0  0  0  0  0  0
   -4.9314    5.4882  -19.3940 C   0  0  0  0  0  0  0  0  0  0  0  0
   -4.1783    5.7384  -18.5358 O   0  0  0  0  0  0  0  0  0  0  0  0
   -4.5693    5.7014  -20.8483 C   0  0  0  0  0  0  0  0  0  0  0  0
   -4.7499    7.1370  -21.3023 C   0  0  0  0  0  0  0  0  0  0  0  0
   -4.5909    8.1630  -20.2054 C   0  0  0  0  0  0  0  0  0  0  0  0
   -5.4429    9.0162  -19.9605 O   0  0  0  0  0  0  0  0  0  0  0  0
   -6.8858    4.9826  -16.9747 C   0  0  0  0  0  0  0  0  0  0  0  0
  1  2  1  0
  2  3  1  0
  3  4  1  0
  4  5  1  0
  5  6  2  0
  6  7  1  0
  7  8  1  0
  8  9  1  0
  9 10  2  0
  9 11  1  0
 11 12  1  0
 12 13  1  0
 13 14  2  0
  7 15  2  0
 15  4  1  0
M  END
>  <energy_score>  (3615) 
-22.672312

>  <alias>  (3615) 
MAZKJWLFUXUZSP-UHFFFAOYSA-N-P86-P35-P86-601527

>  <HIPPO Pose ID>  (3615) 
79048

>  <smiles>  (3615) 
CCCn1cnc(NC(=O)CCC=O)c1

>  <inchikey>  (3615) 
MAZKJWLFUXUZSP-UHFFFAOYSA-N

>  <distance_score>  (3615) 
1.300872

>  <ref_mols>  (3615) 
Z0719a,Z1597a

>  <ref_pdb>  (3615) 
Z0719a

>  <HIPPO Compound ID>  (3615) 
150309

>  <name>  (3615) 
MAZKJWLFUXUZSP-UHFFFAOYSA-N-P86-P35-P86-601527

>  <inspiration_score>  (3615) 
None

$$$$
XHELGBMYRBHQJZ-UHFFFAOYSA-N-P86-P35-P86-601527
     RDKit          3D

 15 16  0  0  0  0  0  0  0  0999 V2000
   -3.5533    6.7823  -23.0824 O   0  0  0  0  0  0  0  0  0  0  0  0
   -2.8313    6.6572  -22.0990 C   0  0  0  0  0  0  0  0  0  0  0  0
   -3.3065    6.3525  -20.7048 C   0  0  0  0  0  0  0  0  0  0  0  0
   -4.7878    6.0406  -20.6127 C   0  0  0  0  0  0  0  0  0  0  0  0
   -5.1644    5.6734  -19.1808 C   0  0  0  0  0  0  0  0  0  0  0  0
   -4.4358    5.7563  -18.2709 O   0  0  0  0  0  0  0  0  0  0  0  0
   -6.6503    5.2269  -19.2425 N   0  0  0  0  0  0  0  0  0  0  0  0
   -7.4635    4.7319  -18.2734 C   0  0  0  0  0  0  0  0  0  0  0  0
   -8.7076    4.1375  -18.4008 C   0  0  0  0  0  0  0  0  0  0  0  0
   -9.2617    3.8346  -17.1734 N   0  0  0  0  0  0  0  0  0  0  0  0
   -8.3641    4.2549  -16.3210 C   0  0  0  0  0  0  0  0  0  0  0  0
   -7.2588    4.7458  -16.9455 N   0  0  0  0  0  0  0  0  0  0  0  0
   -6.2933    5.3135  -16.0359 C   0  0  0  0  0  0  0  0  0  0  0  0
   -7.0765    5.3794  -14.7209 C   0  0  0  0  0  0  0  0  0  0  0  0
   -8.2665    4.4058  -14.8626 C   0  0  0  0  0  0  0  0  0  0  0  0
  1  2  2  0
  2  3  1  0
  3  4  1  0
  4  5  1  0
  5  6  2  0
  5  7  1  0
  7  8  1  0
  8  9  2  0
  9 10  1  0
 10 11  2  0
 11 12  1  0
 12 13  1  0
 13 14  1  0
 14 15  1  0
 12  8  1  0
 15 11  1  0
M  END
>  <energy_score>  (3616) 
-26.271882

>  <alias>  (3616) 
XHELGBMYRBHQJZ-UHFFFAOYSA-N-P86-P35-P86-601527

>  <HIPPO Pose ID>  (3616) 
79056

>  <smiles>  (3616) 
O=CCCC(=O)Nc1cnc2n1CCC2

>  <inchikey>  (3616) 
XHELGBMYRBHQJZ-UHFFFAOYSA-N

>  <distance_score>  (3616) 
1.463659

>  <ref_mols>  (3616) 
Z0719a,Z1597a

>  <ref_pdb>  (3616) 
Z0719a

>  <HIPPO Compound ID>  (3616) 
150313

>  <name>  (3616) 
XHELGBMYRBHQJZ-UHFFFAOYSA-N-P86-P35-P86-601527

>  <inspiration_score>  (3616) 
None

$$$$
SSBNMRNSOTWSLA-UHFFFAOYSA-N-P86-P35-P86-601527
     RDKit          3D

 15 15  0  0  0  0  0  0  0  0999 V2000
   -3.6717    7.2929  -23.9301 C   0  0  0  0  0  0  0  0  0  0  0  0
   -3.6623    6.9839  -22.7696 C   0  0  0  0  0  0  0  0  0  0  0  0
   -3.6663    6.6105  -21.3433 C   0  0  0  0  0  0  0  0  0  0  0  0
   -5.0553    6.1804  -20.8958 C   0  0  0  0  0  0  0  0  0  0  0  0
   -5.1001    5.9082  -19.4005 C   0  0  0  0  0  0  0  0  0  0  0  0
   -4.2108    6.1417  -18.6780 O   0  0  0  0  0  0  0  0  0  0  0  0
   -6.4992    5.2949  -19.1106 N   0  0  0  0  0  0  0  0  0  0  0  0
   -7.0834    4.9558  -17.9393 C   0  0  0  0  0  0  0  0  0  0  0  0
   -6.5252    5.0185  -16.6933 C   0  0  0  0  0  0  0  0  0  0  0  0
   -7.4711    4.5131  -15.8514 N   0  0  0  0  0  0  0  0  0  0  0  0
   -7.3700    4.3113  -14.4188 C   0  0  0  0  0  0  0  0  0  0  0  0
   -5.9561    4.2830  -13.8022 C   0  0  0  0  0  0  0  0  0  0  0  0
   -5.8894    3.4494  -12.5379 C   0  0  0  0  0  0  0  0  0  0  0  0
   -8.5730    4.2282  -16.6090 C   0  0  0  0  0  0  0  0  0  0  0  0
   -8.3609    4.4964  -17.8797 N   0  0  0  0  0  0  0  0  0  0  0  0
  1  2  3  0
  2  3  1  0
  3  4  1  0
  4  5  1  0
  5  6  2  0
  5  7  1  0
  7  8  1  0
  8  9  2  0
  9 10  1  0
 10 11  1  0
 11 12  1  0
 12 13  1  0
 10 14  1  0
 14 15  2  0
 15  8  1  0
M  END
>  <energy_score>  (3617) 
-31.382071

>  <alias>  (3617) 
SSBNMRNSOTWSLA-UHFFFAOYSA-N-P86-P35-P86-601527

>  <HIPPO Pose ID>  (3617) 
79064

>  <smiles>  (3617) 
C#CCCC(=O)Nc1cn(CCC)cn1

>  <inchikey>  (3617) 
SSBNMRNSOTWSLA-UHFFFAOYSA-N

>  <distance_score>  (3617) 
1.652702

>  <ref_mols>  (3617) 
Z0719a,Z1597a

>  <ref_pdb>  (3617) 
Z0719a

>  <HIPPO Compound ID>  (3617) 
150317

>  <name>  (3617) 
SSBNMRNSOTWSLA-UHFFFAOYSA-N-P86-P35-P86-601527

>  <inspiration_score>  (3617) 
None

$$$$
YYLSEQGVDVDCGD-UHFFFAOYSA-N-P35-P35-P86-601527
     RDKit          3D

 15 15  0  0  0  0  0  0  0  0999 V2000
   -2.2820    9.0003  -20.5157 C   0  0  0  0  0  0  0  0  0  0  0  0
   -3.1993    8.1685  -20.9020 C   0  0  0  0  0  0  0  0  0  0  0  0
   -4.1198    7.3259  -21.2702 C   0  0  0  0  0  0  0  0  0  0  0  0
   -5.4315    7.1117  -20.5720 C   0  0  0  0  0  0  0  0  0  0  0  0
   -5.3069    6.3136  -19.2636 C   0  0  0  0  0  0  0  0  0  0  0  0
   -4.3188    6.2646  -18.6357 O   0  0  0  0  0  0  0  0  0  0  0  0
   -6.7248    5.7381  -18.9624 N   0  0  0  0  0  0  0  0  0  0  0  0
   -7.2028    5.1136  -17.8631 C   0  0  0  0  0  0  0  0  0  0  0  0
   -6.4923    4.7128  -16.7657 C   0  0  0  0  0  0  0  0  0  0  0  0
   -7.4183    4.1973  -15.9071 N   0  0  0  0  0  0  0  0  0  0  0  0
   -7.2049    3.6458  -14.5837 C   0  0  0  0  0  0  0  0  0  0  0  0
   -5.7544    3.5698  -14.0710 C   0  0  0  0  0  0  0  0  0  0  0  0
   -5.6478    2.6364  -12.8834 C   0  0  0  0  0  0  0  0  0  0  0  0
   -8.6383    4.3221  -16.5122 C   0  0  0  0  0  0  0  0  0  0  0  0
   -8.5290    4.8707  -17.7016 N   0  0  0  0  0  0  0  0  0  0  0  0
  1  2  2  0
  2  3  2  0
  3  4  1  0
  4  5  1  0
  5  6  2  0
  5  7  1  0
  7  8  1  0
  8  9  2  0
  9 10  1  0
 10 11  1  0
 11 12  1  0
 12 13  1  0
 10 14  1  0
 14 15  2  0
 15  8  1  0
M  END
>  <energy_score>  (3618) 
-7.818187

>  <alias>  (3618) 
YYLSEQGVDVDCGD-UHFFFAOYSA-N-P35-P35-P86-601527

>  <HIPPO Pose ID>  (3618) 
79075

>  <smiles>  (3618) 
C=C=CCC(=O)Nc1cn(CCC)cn1

>  <inchikey>  (3618) 
YYLSEQGVDVDCGD-UHFFFAOYSA-N

>  <distance_score>  (3618) 
1.715865

>  <ref_mols>  (3618) 
Z0719a,Z1597a

>  <ref_pdb>  (3618) 
Z0719a

>  <HIPPO Compound ID>  (3618) 
150323

>  <name>  (3618) 
YYLSEQGVDVDCGD-UHFFFAOYSA-N-P35-P35-P86-601527

>  <inspiration_score>  (3618) 
None

$$$$
LEHHSNANMVKNFX-UHFFFAOYSA-N-P35-P35-P86-601527
     RDKit          3D

 15 16  0  0  0  0  0  0  0  0999 V2000
   -2.8627    8.0154  -20.8993 C   0  0  0  0  0  0  0  0  0  0  0  0
   -3.9483    7.2669  -20.6352 C   0  0  0  0  0  0  0  0  0  0  0  0
   -5.2985    7.6622  -21.1682 C   0  0  0  0  0  0  0  0  0  0  0  0
   -3.8502    6.0276  -19.7811 C   0  0  0  0  0  0  0  0  0  0  0  0
   -4.7978    6.0092  -18.5829 C   0  0  0  0  0  0  0  0  0  0  0  0
   -4.4803    6.4335  -17.5376 O   0  0  0  0  0  0  0  0  0  0  0  0
   -6.1087    5.2821  -19.0246 N   0  0  0  0  0  0  0  0  0  0  0  0
   -7.1849    4.8721  -18.2909 C   0  0  0  0  0  0  0  0  0  0  0  0
   -8.3585    4.2339  -18.6695 C   0  0  0  0  0  0  0  0  0  0  0  0
   -9.1325    3.8648  -17.5777 N   0  0  0  0  0  0  0  0  0  0  0  0
   -8.4528    4.3231  -16.5618 C   0  0  0  0  0  0  0  0  0  0  0  0
   -7.3241    4.9694  -16.9568 N   0  0  0  0  0  0  0  0  0  0  0  0
   -6.5747    5.5092  -15.8507 C   0  0  0  0  0  0  0  0  0  0  0  0
   -7.5808    5.4289  -14.7059 C   0  0  0  0  0  0  0  0  0  0  0  0
   -8.5542    4.3060  -15.0942 C   0  0  0  0  0  0  0  0  0  0  0  0
  1  2  2  0
  2  3  1  0
  2  4  1  0
  4  5  1  0
  5  6  2  0
  5  7  1  0
  7  8  1  0
  8  9  2  0
  9 10  1  0
 10 11  2  0
 11 12  1  0
 12 13  1  0
 13 14  1  0
 14 15  1  0
 12  8  1  0
 15 11  1  0
M  END
>  <energy_score>  (3619) 
-8.609992

>  <alias>  (3619) 
LEHHSNANMVKNFX-UHFFFAOYSA-N-P35-P35-P86-601527

>  <HIPPO Pose ID>  (3619) 
79079

>  <smiles>  (3619) 
C=C(C)CC(=O)Nc1cnc2n1CCC2

>  <inchikey>  (3619) 
LEHHSNANMVKNFX-UHFFFAOYSA-N

>  <distance_score>  (3619) 
1.416484

>  <ref_mols>  (3619) 
Z0719a,Z1597a

>  <ref_pdb>  (3619) 
Z0719a

>  <HIPPO Compound ID>  (3619) 
150325

>  <name>  (3619) 
LEHHSNANMVKNFX-UHFFFAOYSA-N-P35-P35-P86-601527

>  <inspiration_score>  (3619) 
None

$$$$
NNFBIIXVPDDMIA-UHFFFAOYSA-N-P86-P35-P86-601527
     RDKit          3D

 15 15  0  0  0  0  0  0  0  0999 V2000
   -4.6073    8.1117  -20.2144 C   0  0  0  0  0  0  0  0  0  0  0  0
   -4.6006    7.0157  -20.9926 C   0  0  0  0  0  0  0  0  0  0  0  0
   -4.6169    7.1352  -22.4929 C   0  0  0  0  0  0  0  0  0  0  0  0
   -4.5674    5.5948  -20.4804 C   0  0  0  0  0  0  0  0  0  0  0  0
   -4.8595    5.4095  -18.9805 C   0  0  0  0  0  0  0  0  0  0  0  0
   -4.0183    5.4416  -18.1659 O   0  0  0  0  0  0  0  0  0  0  0  0
   -6.3812    5.0897  -18.8501 N   0  0  0  0  0  0  0  0  0  0  0  0
   -7.1486    4.8517  -17.7393 C   0  0  0  0  0  0  0  0  0  0  0  0
   -8.4365    4.3603  -17.7190 C   0  0  0  0  0  0  0  0  0  0  0  0
   -9.3068    3.9712  -18.8231 C   0  0  0  0  0  0  0  0  0  0  0  0
   -8.8917    4.1778  -16.4444 N   0  0  0  0  0  0  0  0  0  0  0  0
   -7.9019    4.5393  -15.6657 C   0  0  0  0  0  0  0  0  0  0  0  0
   -7.9021    4.4801  -14.1856 C   0  0  0  0  0  0  0  0  0  0  0  0
   -6.8340    4.9917  -16.4118 N   0  0  0  0  0  0  0  0  0  0  0  0
   -5.6550    5.5658  -15.8419 C   0  0  0  0  0  0  0  0  0  0  0  0
  1  2  2  0
  2  3  1  0
  2  4  1  0
  4  5  1  0
  5  6  2  0
  5  7  1  0
  7  8  1  0
  8  9  2  0
  9 10  1  0
  9 11  1  0
 11 12  2  0
 12 13  1  0
 12 14  1  0
 14 15  1  0
 14  8  1  0
M  END
>  <energy_score>  (3620) 
-19.311509

>  <alias>  (3620) 
NNFBIIXVPDDMIA-UHFFFAOYSA-N-P86-P35-P86-601527

>  <HIPPO Pose ID>  (3620) 
79082

>  <smiles>  (3620) 
C=C(C)CC(=O)Nc1c(C)nc(C)n1C

>  <inchikey>  (3620) 
NNFBIIXVPDDMIA-UHFFFAOYSA-N

>  <distance_score>  (3620) 
1.222104

>  <ref_mols>  (3620) 
Z0719a,Z1597a

>  <ref_pdb>  (3620) 
Z0719a

>  <HIPPO Compound ID>  (3620) 
150326

>  <name>  (3620) 
NNFBIIXVPDDMIA-UHFFFAOYSA-N-P86-P35-P86-601527

>  <inspiration_score>  (3620) 
None

$$$$
IIWWIBRVFPESTB-UHFFFAOYSA-M-P35-P35-P86-601527
     RDKit          3D

 15 15  0  0  0  0  0  0  0  0999 V2000
   -3.8116    5.6801  -19.5725 C   0  0  0  0  0  0  0  0  0  0  0  0
   -3.1955    5.6927  -18.1728 C   0  0  1  0  0  0  0  0  0  0  0  0
   -3.1209    7.4080  -17.5364 S   0  0  0  0  0  0  0  0  0  0  0  0
   -3.8929    4.7714  -17.1459 C   0  0  0  0  0  0  0  0  0  0  0  0
   -3.3307    3.8911  -16.6210 O   0  0  0  0  0  0  0  0  0  0  0  0
   -5.3581    5.2612  -16.9956 N   0  0  0  0  0  0  0  0  0  0  0  0
   -6.3417    4.8547  -16.1534 C   0  0  0  0  0  0  0  0  0  0  0  0
   -7.5688    5.3924  -16.5049 N   0  0  0  0  0  0  0  0  0  0  0  0
   -8.4272    4.9130  -15.6391 C   0  0  0  0  0  0  0  0  0  0  0  0
   -7.7870    4.2159  -14.6684 N   0  0  0  0  0  0  0  0  0  0  0  0
   -8.2896    3.9464  -13.3422 C   0  0  0  0  0  0  0  0  0  0  0  0
   -6.4656    4.0804  -15.0248 C   0  0  0  0  0  0  0  0  0  0  0  0
   -5.4969    3.2641  -14.1169 C   0  0  0  0  0  0  0  0  0  0  0  0
   -5.9729    2.1735  -13.6612 O   0  0  0  0  0  0  0  0  0  0  0  0
   -4.3739    3.7678  -13.8304 O   0  0  0  0  0  0  0  0  0  0  0  0
  2  1  1  6
  2  3  1  0
  2  4  1  0
  4  5  2  0
  4  6  1  0
  6  7  1  0
  7  8  1  0
  8  9  2  0
  9 10  1  0
 10 11  1  0
 10 12  1  0
 12 13  1  0
 13 14  2  0
 13 15  1  0
 12  7  2  0
M  CHG  1  15  -1
M  END
>  <energy_score>  (3621) 
-19.491702

>  <alias>  (3621) 
IIWWIBRVFPESTB-UHFFFAOYSA-M-P35-P35-P86-601527

>  <HIPPO Pose ID>  (3621) 
79087

>  <smiles>  (3621) 
CC(S)C(=O)Nc1ncn(C)c1C(=O)[O-]

>  <inchikey>  (3621) 
IIWWIBRVFPESTB-UHFFFAOYSA-M

>  <distance_score>  (3621) 
1.973696

>  <ref_mols>  (3621) 
Z0719a,Z1597a

>  <ref_pdb>  (3621) 
Z0719a

>  <HIPPO Compound ID>  (3621) 
150329

>  <name>  (3621) 
IIWWIBRVFPESTB-UHFFFAOYSA-M-P35-P35-P86-601527

>  <inspiration_score>  (3621) 
None

$$$$
VPLWOBOYCADRRY-UHFFFAOYSA-N-P86-P35-P86-601527
     RDKit          3D

 15 15  0  0  0  0  0  0  0  0999 V2000
   -5.8385    5.0830  -13.8520 C   0  0  0  0  0  0  0  0  0  0  0  0
   -6.0242    5.6293  -15.2574 C   0  0  0  0  0  0  0  0  0  0  0  0
   -7.1034    5.1261  -16.0630 N   0  0  0  0  0  0  0  0  0  0  0  0
   -8.2822    4.5719  -15.6069 C   0  0  0  0  0  0  0  0  0  0  0  0
   -8.7165    4.5804  -14.1927 C   0  0  0  0  0  0  0  0  0  0  0  0
   -8.9597    4.0301  -16.5947 N   0  0  0  0  0  0  0  0  0  0  0  0
   -8.2195    4.2609  -17.7153 C   0  0  0  0  0  0  0  0  0  0  0  0
   -8.6995    3.7922  -19.0144 C   0  0  0  0  0  0  0  0  0  0  0  0
   -7.0900    4.9937  -17.4304 C   0  0  0  0  0  0  0  0  0  0  0  0
   -6.1772    5.4233  -18.3537 N   0  0  0  0  0  0  0  0  0  0  0  0
   -5.0384    6.4753  -18.2344 C   0  0  0  0  0  0  0  0  0  0  0  0
   -4.7561    7.1910  -17.3514 O   0  0  0  0  0  0  0  0  0  0  0  0
   -4.1886    6.4105  -19.5289 C   0  0  2  0  0  0  0  0  0  0  0  0
   -3.9268    7.7950  -20.0928 C   0  0  0  0  0  0  0  0  0  0  0  0
   -4.8911    5.4224  -20.8748 S   0  0  0  0  0  0  0  0  0  0  0  0
  1  2  1  0
  2  3  1  0
  3  4  1  0
  4  5  1  0
  4  6  2  0
  6  7  1  0
  7  8  1  0
  7  9  2  0
  9 10  1  0
 10 11  1  0
 11 12  2  0
 11 13  1  0
 13 14  1  6
 13 15  1  0
  9  3  1  0
M  END
>  <energy_score>  (3622) 
-15.022591

>  <alias>  (3622) 
VPLWOBOYCADRRY-UHFFFAOYSA-N-P86-P35-P86-601527

>  <HIPPO Pose ID>  (3622) 
79090

>  <smiles>  (3622) 
CCn1c(C)nc(C)c1NC(=O)C(C)S

>  <inchikey>  (3622) 
VPLWOBOYCADRRY-UHFFFAOYSA-N

>  <distance_score>  (3622) 
1.40841

>  <ref_mols>  (3622) 
Z0719a,Z1597a

>  <ref_pdb>  (3622) 
Z0719a

>  <HIPPO Compound ID>  (3622) 
150330

>  <name>  (3622) 
VPLWOBOYCADRRY-UHFFFAOYSA-N-P86-P35-P86-601527

>  <inspiration_score>  (3622) 
None

$$$$
XSPVJRWNSHWOHQ-UHFFFAOYSA-N-P86-P35-P86-601527
     RDKit          3D

 15 16  0  0  0  0  0  0  0  0999 V2000
   -2.4904    7.4069  -21.7496 C   0  0  0  0  0  0  0  0  0  0  0  0
   -3.7910    6.6640  -21.5592 C   0  0  2  0  0  0  0  0  0  0  0  0
   -5.0878    7.4787  -22.5551 S   0  0  0  0  0  0  0  0  0  0  0  0
   -4.1864    6.6336  -20.0822 C   0  0  0  0  0  0  0  0  0  0  0  0
   -3.6533    7.2610  -19.2519 O   0  0  0  0  0  0  0  0  0  0  0  0
   -5.3439    5.6008  -19.9773 N   0  0  0  0  0  0  0  0  0  0  0  0
   -6.0910    5.2274  -18.9180 C   0  0  0  0  0  0  0  0  0  0  0  0
   -7.1652    4.3788  -18.9700 C   0  0  0  0  0  0  0  0  0  0  0  0
   -7.6746    4.3948  -17.7133 N   0  0  0  0  0  0  0  0  0  0  0  0
   -8.8384    3.8249  -17.3412 N   0  0  0  0  0  0  0  0  0  0  0  0
   -9.0701    4.0148  -16.0875 C   0  0  0  0  0  0  0  0  0  0  0  0
   -8.2031    4.6895  -15.0968 C   0  0  0  0  0  0  0  0  0  0  0  0
   -7.0842    5.2468  -15.5608 C   0  0  0  0  0  0  0  0  0  0  0  0
   -6.8094    5.1526  -16.9381 C   0  0  0  0  0  0  0  0  0  0  0  0
   -5.8627    5.7004  -17.6644 N   0  0  0  0  0  0  0  0  0  0  0  0
  2  1  1  1
  2  3  1  0
  2  4  1  0
  4  5  2  0
  4  6  1  0
  6  7  1  0
  7  8  2  0
  8  9  1  0
  9 10  1  0
 10 11  2  0
 11 12  1  0
 12 13  2  0
 13 14  1  0
 14 15  2  0
 15  7  1  0
 14  9  1  0
M  END
>  <energy_score>  (3623) 
-20.350435

>  <alias>  (3623) 
XSPVJRWNSHWOHQ-UHFFFAOYSA-N-P86-P35-P86-601527

>  <HIPPO Pose ID>  (3623) 
79096

>  <smiles>  (3623) 
CC(S)C(=O)Nc1cn2ncccc2n1

>  <inchikey>  (3623) 
XSPVJRWNSHWOHQ-UHFFFAOYSA-N

>  <distance_score>  (3623) 
1.734786

>  <ref_mols>  (3623) 
Z0719a,Z1597a

>  <ref_pdb>  (3623) 
Z0719a

>  <HIPPO Compound ID>  (3623) 
150333

>  <name>  (3623) 
XSPVJRWNSHWOHQ-UHFFFAOYSA-N-P86-P35-P86-601527

>  <inspiration_score>  (3623) 
None

$$$$
NDAPDPDEHQXOGH-UHFFFAOYSA-N-P86-P35-P86-601527
     RDKit          3D

 15 16  0  0  0  0  0  0  0  0999 V2000
   -3.4452    8.9739  -19.8649 C   0  0  0  0  0  0  0  0  0  0  0  0
   -3.9735    8.0442  -20.4111 C   0  0  0  0  0  0  0  0  0  0  0  0
   -4.6163    6.9001  -21.0753 C   0  0  0  0  0  0  0  0  0  0  0  0
   -4.2724    5.5781  -20.4160 C   0  0  0  0  0  0  0  0  0  0  0  0
   -4.8784    5.4225  -19.0297 C   0  0  0  0  0  0  0  0  0  0  0  0
   -4.2352    5.4938  -18.0546 O   0  0  0  0  0  0  0  0  0  0  0  0
   -6.3897    5.0931  -19.2206 N   0  0  0  0  0  0  0  0  0  0  0  0
   -7.3324    4.7158  -18.3151 C   0  0  0  0  0  0  0  0  0  0  0  0
   -8.6029    4.2000  -18.5155 C   0  0  0  0  0  0  0  0  0  0  0  0
   -9.2452    3.9311  -17.3204 N   0  0  0  0  0  0  0  0  0  0  0  0
   -8.3779    4.3042  -16.4162 C   0  0  0  0  0  0  0  0  0  0  0  0
   -7.2234    4.7561  -16.9754 N   0  0  0  0  0  0  0  0  0  0  0  0
   -6.2875    5.2827  -16.0109 C   0  0  0  0  0  0  0  0  0  0  0  0
   -7.1379    5.3703  -14.7407 C   0  0  0  0  0  0  0  0  0  0  0  0
   -8.3422    4.4282  -14.9521 C   0  0  0  0  0  0  0  0  0  0  0  0
  1  2  3  0
  2  3  1  0
  3  4  1  0
  4  5  1  0
  5  6  2  0
  5  7  1  0
  7  8  1  0
  8  9  2  0
  9 10  1  0
 10 11  2  0
 11 12  1  0
 12 13  1  0
 13 14  1  0
 14 15  1  0
 12  8  1  0
 15 11  1  0
M  END
>  <energy_score>  (3624) 
-26.899498

>  <alias>  (3624) 
NDAPDPDEHQXOGH-UHFFFAOYSA-N-P86-P35-P86-601527

>  <HIPPO Pose ID>  (3624) 
79100

>  <smiles>  (3624) 
C#CCCC(=O)Nc1cnc2n1CCC2

>  <inchikey>  (3624) 
NDAPDPDEHQXOGH-UHFFFAOYSA-N

>  <distance_score>  (3624) 
1.089775

>  <ref_mols>  (3624) 
Z0719a,Z1597a

>  <ref_pdb>  (3624) 
Z0719a

>  <HIPPO Compound ID>  (3624) 
150335

>  <name>  (3624) 
NDAPDPDEHQXOGH-UHFFFAOYSA-N-P86-P35-P86-601527

>  <inspiration_score>  (3624) 
None

$$$$
HSWXTDWWMVDKSY-UHFFFAOYSA-N-P35-P35-P86-601527
     RDKit          3D

 15 15  0  0  0  0  0  0  0  0999 V2000
   -7.6014    4.9500  -13.9194 C   0  0  0  0  0  0  0  0  0  0  0  0
   -6.2799    4.6124  -14.3571 O   0  0  0  0  0  0  0  0  0  0  0  0
   -5.9342    4.5642  -15.6853 C   0  0  0  0  0  0  0  0  0  0  0  0
   -4.7576    4.3514  -15.9819 O   0  0  0  0  0  0  0  0  0  0  0  0
   -6.9856    4.7099  -16.7082 C   0  0  0  0  0  0  0  0  0  0  0  0
   -8.3230    4.3593  -16.5133 N   0  0  0  0  0  0  0  0  0  0  0  0
   -8.9022    4.4631  -17.6825 C   0  0  0  0  0  0  0  0  0  0  0  0
   -8.0093    4.8392  -18.6435 N   0  0  0  0  0  0  0  0  0  0  0  0
   -6.8038    5.0705  -18.0374 C   0  0  0  0  0  0  0  0  0  0  0  0
   -5.7428    5.5640  -18.7421 N   0  0  0  0  0  0  0  0  0  0  0  0
   -4.5746    6.4934  -18.2932 C   0  0  0  0  0  0  0  0  0  0  0  0
   -4.3033    6.9133  -17.2340 O   0  0  0  0  0  0  0  0  0  0  0  0
   -3.6547    6.7750  -19.4974 C   0  0  2  0  0  0  0  0  0  0  0  0
   -4.3420    7.3794  -20.7110 C   0  0  0  0  0  0  0  0  0  0  0  0
   -2.7042    5.2764  -19.9264 S   0  0  0  0  0  0  0  0  0  0  0  0
  1  2  1  0
  2  3  1  0
  3  4  2  0
  3  5  1  0
  5  6  1  0
  6  7  2  0
  7  8  1  0
  8  9  1  0
  9 10  1  0
 10 11  1  0
 11 12  2  0
 11 13  1  0
 13 14  1  6
 13 15  1  0
  9  5  2  0
M  END
>  <energy_score>  (3625) 
-16.340512

>  <alias>  (3625) 
HSWXTDWWMVDKSY-UHFFFAOYSA-N-P35-P35-P86-601527

>  <HIPPO Pose ID>  (3625) 
79101

>  <smiles>  (3625) 
COC(=O)c1nc[nH]c1NC(=O)C(C)S

>  <inchikey>  (3625) 
HSWXTDWWMVDKSY-UHFFFAOYSA-N

>  <distance_score>  (3625) 
1.705222

>  <ref_mols>  (3625) 
Z0719a,Z1597a

>  <ref_pdb>  (3625) 
Z0719a

>  <HIPPO Compound ID>  (3625) 
150336

>  <name>  (3625) 
HSWXTDWWMVDKSY-UHFFFAOYSA-N-P35-P35-P86-601527

>  <inspiration_score>  (3625) 
None

$$$$
FACUKZDYZBJDPZ-UHFFFAOYSA-N-P35-P35-P86-601527
     RDKit          3D

 15 15  0  0  0  0  0  0  0  0999 V2000
   -7.6448    3.3045  -14.3353 C   0  0  0  0  0  0  0  0  0  0  0  0
   -7.9640    3.8747  -15.6951 C   0  0  0  0  0  0  0  0  0  0  0  0
   -8.8854    3.5296  -16.5819 N   0  0  0  0  0  0  0  0  0  0  0  0
   -8.5195    4.1543  -17.7580 C   0  0  0  0  0  0  0  0  0  0  0  0
   -7.3746    4.8952  -17.5626 C   0  0  0  0  0  0  0  0  0  0  0  0
   -6.4564    5.3479  -18.4643 N   0  0  0  0  0  0  0  0  0  0  0  0
   -5.1040    6.1014  -18.2441 C   0  0  0  0  0  0  0  0  0  0  0  0
   -4.6159    6.5136  -17.2612 O   0  0  0  0  0  0  0  0  0  0  0  0
   -4.3966    6.1363  -19.6140 C   0  0  1  0  0  0  0  0  0  0  0  0
   -4.9395    7.2078  -20.5374 C   0  0  0  0  0  0  0  0  0  0  0  0
   -2.5896    6.3624  -19.4198 S   0  0  0  0  0  0  0  0  0  0  0  0
   -7.2694    4.9480  -16.2006 N   0  0  0  0  0  0  0  0  0  0  0  0
   -6.7765    6.0150  -15.3652 C   0  0  0  0  0  0  0  0  0  0  0  0
   -7.6918    6.2618  -14.2367 C   0  0  0  0  0  0  0  0  0  0  0  0
   -8.4213    6.3919  -13.3419 N   0  0  0  0  0  0  0  0  0  0  0  0
  1  2  1  0
  2  3  2  0
  3  4  1  0
  4  5  2  0
  5  6  1  0
  6  7  1  0
  7  8  2  0
  7  9  1  0
  9 10  1  6
  9 11  1  0
  5 12  1  0
 12 13  1  0
 13 14  1  0
 14 15  3  0
 12  2  1  0
M  END
>  <energy_score>  (3626) 
-12.505761

>  <alias>  (3626) 
FACUKZDYZBJDPZ-UHFFFAOYSA-N-P35-P35-P86-601527

>  <HIPPO Pose ID>  (3626) 
79107

>  <smiles>  (3626) 
Cc1ncc(NC(=O)C(C)S)n1CC#N

>  <inchikey>  (3626) 
FACUKZDYZBJDPZ-UHFFFAOYSA-N

>  <distance_score>  (3626) 
1.690714

>  <ref_mols>  (3626) 
Z0719a,Z1597a

>  <ref_pdb>  (3626) 
Z0719a

>  <HIPPO Compound ID>  (3626) 
150339

>  <name>  (3626) 
FACUKZDYZBJDPZ-UHFFFAOYSA-N-P35-P35-P86-601527

>  <inspiration_score>  (3626) 
None

$$$$
ROSNESWGQRHWMY-UHFFFAOYSA-N-P86-P35-P86-601527
     RDKit          3D

 15 15  0  0  0  0  0  0  0  0999 V2000
   -4.9975    7.6651  -22.2140 C   0  0  0  0  0  0  0  0  0  0  0  0
   -4.2640    7.0366  -21.2801 C   0  0  0  0  0  0  0  0  0  0  0  0
   -3.0151    7.6615  -20.7200 C   0  0  0  0  0  0  0  0  0  0  0  0
   -4.6091    5.6476  -20.7982 C   0  0  0  0  0  0  0  0  0  0  0  0
   -4.8613    5.5870  -19.2858 C   0  0  0  0  0  0  0  0  0  0  0  0
   -3.9821    5.6987  -18.5199 O   0  0  0  0  0  0  0  0  0  0  0  0
   -6.3698    5.2853  -19.0519 N   0  0  0  0  0  0  0  0  0  0  0  0
   -7.0390    4.9863  -17.9164 C   0  0  0  0  0  0  0  0  0  0  0  0
   -6.5318    5.0345  -16.6484 C   0  0  0  0  0  0  0  0  0  0  0  0
   -7.5133    4.5317  -15.8494 N   0  0  0  0  0  0  0  0  0  0  0  0
   -7.4526    4.3017  -14.4192 C   0  0  0  0  0  0  0  0  0  0  0  0
   -6.0531    4.2570  -13.7693 C   0  0  0  0  0  0  0  0  0  0  0  0
   -6.0355    3.4557  -12.4833 C   0  0  0  0  0  0  0  0  0  0  0  0
   -8.5888    4.2699  -16.6516 C   0  0  0  0  0  0  0  0  0  0  0  0
   -8.3246    4.5495  -17.9113 N   0  0  0  0  0  0  0  0  0  0  0  0
  1  2  2  0
  2  3  1  0
  2  4  1  0
  4  5  1  0
  5  6  2  0
  5  7  1  0
  7  8  1  0
  8  9  2  0
  9 10  1  0
 10 11  1  0
 11 12  1  0
 12 13  1  0
 10 14  1  0
 14 15  2  0
 15  8  1  0
M  END
>  <energy_score>  (3627) 
-37.584422

>  <alias>  (3627) 
ROSNESWGQRHWMY-UHFFFAOYSA-N-P86-P35-P86-601527

>  <HIPPO Pose ID>  (3627) 
79114

>  <smiles>  (3627) 
C=C(C)CC(=O)Nc1cn(CCC)cn1

>  <inchikey>  (3627) 
ROSNESWGQRHWMY-UHFFFAOYSA-N

>  <distance_score>  (3627) 
1.61329

>  <ref_mols>  (3627) 
Z0719a,Z1597a

>  <ref_pdb>  (3627) 
Z0719a

>  <HIPPO Compound ID>  (3627) 
150342

>  <name>  (3627) 
ROSNESWGQRHWMY-UHFFFAOYSA-N-P86-P35-P86-601527

>  <inspiration_score>  (3627) 
None

$$$$
UBLAOBMAWKKPFF-UHFFFAOYSA-N-P86-P35-P86-601527
     RDKit          3D

 15 16  0  0  0  0  0  0  0  0999 V2000
   -4.7422    8.1916  -21.2504 C   0  0  0  0  0  0  0  0  0  0  0  0
   -4.5681    7.0519  -20.9133 C   0  0  0  0  0  0  0  0  0  0  0  0
   -4.3231    5.6514  -20.5225 C   0  0  1  0  0  0  0  0  0  0  0  0
   -2.8224    5.3561  -20.5741 C   0  0  0  0  0  0  0  0  0  0  0  0
   -4.8755    5.3609  -19.1130 C   0  0  0  0  0  0  0  0  0  0  0  0
   -4.1996    5.3510  -18.1552 O   0  0  0  0  0  0  0  0  0  0  0  0
   -6.3886    5.0085  -19.2883 N   0  0  0  0  0  0  0  0  0  0  0  0
   -7.3330    4.6864  -18.3636 C   0  0  0  0  0  0  0  0  0  0  0  0
   -8.6241    4.2166  -18.5446 C   0  0  0  0  0  0  0  0  0  0  0  0
   -9.2599    3.9746  -17.3408 N   0  0  0  0  0  0  0  0  0  0  0  0
   -8.3690    4.3220  -16.4497 C   0  0  0  0  0  0  0  0  0  0  0  0
   -7.2076    4.7349  -17.0254 N   0  0  0  0  0  0  0  0  0  0  0  0
   -6.2519    5.2546  -16.0769 C   0  0  0  0  0  0  0  0  0  0  0  0
   -7.0850    5.3688  -14.7962 C   0  0  0  0  0  0  0  0  0  0  0  0
   -8.3162    4.4571  -14.9873 C   0  0  0  0  0  0  0  0  0  0  0  0
  1  2  3  0
  2  3  1  0
  3  4  1  1
  3  5  1  0
  5  6  2  0
  5  7  1  0
  7  8  1  0
  8  9  2  0
  9 10  1  0
 10 11  2  0
 11 12  1  0
 12 13  1  0
 13 14  1  0
 14 15  1  0
 12  8  1  0
 15 11  1  0
M  END
>  <energy_score>  (3628) 
-28.315617

>  <alias>  (3628) 
UBLAOBMAWKKPFF-UHFFFAOYSA-N-P86-P35-P86-601527

>  <HIPPO Pose ID>  (3628) 
79128

>  <smiles>  (3628) 
C#CC(C)C(=O)Nc1cnc2n1CCC2

>  <inchikey>  (3628) 
UBLAOBMAWKKPFF-UHFFFAOYSA-N

>  <distance_score>  (3628) 
1.092828

>  <ref_mols>  (3628) 
Z0719a,Z1597a

>  <ref_pdb>  (3628) 
Z0719a

>  <HIPPO Compound ID>  (3628) 
150349

>  <name>  (3628) 
UBLAOBMAWKKPFF-UHFFFAOYSA-N-P86-P35-P86-601527

>  <inspiration_score>  (3628) 
None

$$$$
FFXWQPPJHHUTTD-UHFFFAOYSA-N-P35-P35-P86-601527
     RDKit          3D

 15 15  0  0  0  0  0  0  0  0999 V2000
   -5.0771    7.8568  -21.3642 C   0  0  0  0  0  0  0  0  0  0  0  0
   -4.5925    7.0777  -20.5890 C   0  0  0  0  0  0  0  0  0  0  0  0
   -3.9947    6.1015  -19.6599 C   0  0  1  0  0  0  0  0  0  0  0  0
   -2.4978    6.3875  -19.5165 C   0  0  0  0  0  0  0  0  0  0  0  0
   -4.6854    6.1009  -18.2852 C   0  0  0  0  0  0  0  0  0  0  0  0
   -4.1321    6.4328  -17.3057 O   0  0  0  0  0  0  0  0  0  0  0  0
   -6.1188    5.5026  -18.4874 N   0  0  0  0  0  0  0  0  0  0  0  0
   -7.0647    5.1267  -17.5672 C   0  0  0  0  0  0  0  0  0  0  0  0
   -8.2687    4.4790  -17.7747 C   0  0  0  0  0  0  0  0  0  0  0  0
   -8.9435    4.1114  -19.0220 C   0  0  0  0  0  0  0  0  0  0  0  0
   -8.8211    4.0631  -16.5885 N   0  0  0  0  0  0  0  0  0  0  0  0
   -7.9820    4.4553  -15.6579 C   0  0  0  0  0  0  0  0  0  0  0  0
   -8.0310    4.0932  -14.2219 C   0  0  0  0  0  0  0  0  0  0  0  0
   -7.0063    5.2543  -16.2043 N   0  0  0  0  0  0  0  0  0  0  0  0
   -6.1891    6.1384  -15.4315 C   0  0  0  0  0  0  0  0  0  0  0  0
  1  2  3  0
  2  3  1  0
  3  4  1  1
  3  5  1  0
  5  6  2  0
  5  7  1  0
  7  8  1  0
  8  9  2  0
  9 10  1  0
  9 11  1  0
 11 12  2  0
 12 13  1  0
 12 14  1  0
 14 15  1  0
 14  8  1  0
M  END
>  <energy_score>  (3629) 
-20.591068

>  <alias>  (3629) 
FFXWQPPJHHUTTD-UHFFFAOYSA-N-P35-P35-P86-601527

>  <HIPPO Pose ID>  (3629) 
79129

>  <smiles>  (3629) 
C#CC(C)C(=O)Nc1c(C)nc(C)n1C

>  <inchikey>  (3629) 
FFXWQPPJHHUTTD-UHFFFAOYSA-N

>  <distance_score>  (3629) 
1.517671

>  <ref_mols>  (3629) 
Z0719a,Z1597a

>  <ref_pdb>  (3629) 
Z0719a

>  <HIPPO Compound ID>  (3629) 
150350

>  <name>  (3629) 
FFXWQPPJHHUTTD-UHFFFAOYSA-N-P35-P35-P86-601527

>  <inspiration_score>  (3629) 
None

$$$$
XSEDMFMKPZUUJX-UHFFFAOYSA-N-P86-P35-P86-601527
     RDKit          3D

 15 15  0  0  0  0  0  0  0  0999 V2000
   -2.1079    4.3029  -19.8266 C   0  0  0  0  0  0  0  0  0  0  0  0
   -2.8051    5.2784  -19.7751 C   0  0  0  0  0  0  0  0  0  0  0  0
   -3.6361    6.4912  -19.6813 C   0  0  1  0  0  0  0  0  0  0  0  0
   -4.2336    6.8718  -21.0329 C   0  0  0  0  0  0  0  0  0  0  0  0
   -4.6878    6.3531  -18.5626 C   0  0  0  0  0  0  0  0  0  0  0  0
   -4.6262    6.9889  -17.5826 O   0  0  0  0  0  0  0  0  0  0  0  0
   -5.7311    5.2942  -19.0109 N   0  0  0  0  0  0  0  0  0  0  0  0
   -6.7864    4.7678  -18.3512 C   0  0  0  0  0  0  0  0  0  0  0  0
   -7.6781    4.0273  -19.0666 N   0  0  0  0  0  0  0  0  0  0  0  0
   -8.6553    3.7427  -18.2386 C   0  0  0  0  0  0  0  0  0  0  0  0
   -8.3783    4.2097  -17.0026 N   0  0  0  0  0  0  0  0  0  0  0  0
   -9.1850    4.0857  -15.8266 C   0  0  0  0  0  0  0  0  0  0  0  0
   -7.1596    4.8182  -17.0374 C   0  0  0  0  0  0  0  0  0  0  0  0
   -6.5369    5.2764  -15.8613 C   0  0  0  0  0  0  0  0  0  0  0  0
   -6.1881    5.5649  -14.7936 N   0  0  0  0  0  0  0  0  0  0  0  0
  1  2  3  0
  2  3  1  0
  3  4  1  6
  3  5  1  0
  5  6  2  0
  5  7  1  0
  7  8  1  0
  8  9  1  0
  9 10  2  0
 10 11  1  0
 11 12  1  0
 11 13  1  0
 13 14  1  0
 14 15  3  0
 13  8  2  0
M  END
>  <energy_score>  (3630) 
-25.552857

>  <alias>  (3630) 
XSEDMFMKPZUUJX-UHFFFAOYSA-N-P86-P35-P86-601527

>  <HIPPO Pose ID>  (3630) 
79136

>  <smiles>  (3630) 
C#CC(C)C(=O)Nc1ncn(C)c1C#N

>  <inchikey>  (3630) 
XSEDMFMKPZUUJX-UHFFFAOYSA-N

>  <distance_score>  (3630) 
1.431084

>  <ref_mols>  (3630) 
Z0719a,Z1597a

>  <ref_pdb>  (3630) 
Z0719a

>  <HIPPO Compound ID>  (3630) 
150353

>  <name>  (3630) 
XSEDMFMKPZUUJX-UHFFFAOYSA-N-P86-P35-P86-601527

>  <inspiration_score>  (3630) 
None

$$$$
OWDGNYYUILDULC-UHFFFAOYSA-N-P35-P35-P86-601527
     RDKit          3D

 15 15  0  0  0  0  0  0  0  0999 V2000
   -4.7922    7.2678  -21.0538 C   0  0  0  0  0  0  0  0  0  0  0  0
   -4.2216    6.3963  -19.9498 C   0  0  1  0  0  0  0  0  0  0  0  0
   -2.7891    6.5439  -19.9152 O   0  0  0  0  0  0  0  0  0  0  0  0
   -2.1517    5.7015  -20.9473 N   0  0  0  0  0  0  0  0  0  0  0  0
   -4.7852    6.8683  -18.5849 C   0  0  0  0  0  0  0  0  0  0  0  0
   -4.4653    7.8809  -18.0874 O   0  0  0  0  0  0  0  0  0  0  0  0
   -5.7012    5.7209  -18.0476 N   0  0  0  0  0  0  0  0  0  0  0  0
   -6.2895    5.5578  -16.8349 C   0  0  0  0  0  0  0  0  0  0  0  0
   -6.8945    4.4001  -16.4144 C   0  0  0  0  0  0  0  0  0  0  0  0
   -6.8027    4.4576  -15.0445 N   0  0  0  0  0  0  0  0  0  0  0  0
   -6.6731    3.3369  -14.1119 C   0  0  0  0  0  0  0  0  0  0  0  0
   -5.2179    3.1226  -13.6630 C   0  0  0  0  0  0  0  0  0  0  0  0
   -7.5811    3.4394  -12.8977 C   0  0  0  0  0  0  0  0  0  0  0  0
   -6.5763    5.7700  -14.7462 C   0  0  0  0  0  0  0  0  0  0  0  0
   -6.2063    6.4462  -15.8137 N   0  0  0  0  0  0  0  0  0  0  0  0
  2  1  1  6
  2  3  1  0
  3  4  1  0
  2  5  1  0
  5  6  2  0
  5  7  1  0
  7  8  1  0
  8  9  2  0
  9 10  1  0
 10 11  1  0
 11 12  1  0
 11 13  1  0
 10 14  1  0
 14 15  2  0
 15  8  1  0
M  END
>  <energy_score>  (3631) 
-40.028816

>  <alias>  (3631) 
OWDGNYYUILDULC-UHFFFAOYSA-N-P35-P35-P86-601527

>  <HIPPO Pose ID>  (3631) 
79139

>  <smiles>  (3631) 
CC(ON)C(=O)Nc1cn(C(C)C)cn1

>  <inchikey>  (3631) 
OWDGNYYUILDULC-UHFFFAOYSA-N

>  <distance_score>  (3631) 
1.950136

>  <ref_mols>  (3631) 
Z0719a,Z1597a

>  <ref_pdb>  (3631) 
Z0719a

>  <HIPPO Compound ID>  (3631) 
150355

>  <name>  (3631) 
OWDGNYYUILDULC-UHFFFAOYSA-N-P35-P35-P86-601527

>  <inspiration_score>  (3631) 
None

$$$$
ZYGSZPIEQOUXHA-UHFFFAOYSA-N-P86-P35-P86-601527
     RDKit          3D

 15 15  0  0  0  0  0  0  0  0999 V2000
   -4.6372    8.2917  -20.0144 C   0  0  0  0  0  0  0  0  0  0  0  0
   -4.4309    6.9746  -20.1843 C   0  0  0  0  0  0  0  0  0  0  0  0
   -4.5808    6.3225  -21.5264 C   0  0  0  0  0  0  0  0  0  0  0  0
   -3.9939    6.0871  -19.0398 C   0  0  0  0  0  0  0  0  0  0  0  0
   -5.0190    6.0063  -17.8926 C   0  0  0  0  0  0  0  0  0  0  0  0
   -4.8581    6.5218  -16.8565 O   0  0  0  0  0  0  0  0  0  0  0  0
   -6.1823    5.1145  -18.4020 N   0  0  0  0  0  0  0  0  0  0  0  0
   -7.2682    4.6281  -17.7525 C   0  0  0  0  0  0  0  0  0  0  0  0
   -8.2547    4.1073  -18.5453 N   0  0  0  0  0  0  0  0  0  0  0  0
   -9.2674    3.8570  -17.7486 C   0  0  0  0  0  0  0  0  0  0  0  0
   -8.9415    4.0813  -16.4505 N   0  0  0  0  0  0  0  0  0  0  0  0
   -7.6591    4.5598  -16.4461 C   0  0  0  0  0  0  0  0  0  0  0  0
   -7.0715    4.8527  -15.2065 N   0  0  0  0  0  0  0  0  0  0  0  0
   -5.8916    4.5528  -15.0199 O   0  0  0  0  0  0  0  0  0  0  0  0
   -7.8479    5.3477  -14.3826 O   0  0  0  0  0  0  0  0  0  0  0  0
  1  2  2  0
  2  3  1  0
  2  4  1  0
  4  5  1  0
  5  6  2  0
  5  7  1  0
  7  8  1  0
  8  9  1  0
  9 10  2  0
 10 11  1  0
 11 12  1  0
 12 13  1  0
 13 14  2  0
 13 15  1  0
 12  8  2  0
M  CHG  2  13   1  15  -1
M  END
>  <energy_score>  (3632) 
-30.163533

>  <alias>  (3632) 
ZYGSZPIEQOUXHA-UHFFFAOYSA-N-P86-P35-P86-601527

>  <HIPPO Pose ID>  (3632) 
79150

>  <smiles>  (3632) 
C=C(C)CC(=O)Nc1nc[nH]c1[N+](=O)[O-]

>  <inchikey>  (3632) 
ZYGSZPIEQOUXHA-UHFFFAOYSA-N

>  <distance_score>  (3632) 
1.537036

>  <ref_mols>  (3632) 
Z0719a,Z1597a

>  <ref_pdb>  (3632) 
Z0719a

>  <HIPPO Compound ID>  (3632) 
150360

>  <name>  (3632) 
ZYGSZPIEQOUXHA-UHFFFAOYSA-N-P86-P35-P86-601527

>  <inspiration_score>  (3632) 
None

$$$$
YYUFSTIAYNCDLT-UHFFFAOYSA-N-P86-P35-P86-601527
     RDKit          3D

 15 15  0  0  0  0  0  0  0  0999 V2000
   -4.9769    6.3537  -22.0400 C   0  0  0  0  0  0  0  0  0  0  0  0
   -4.6273    6.7971  -20.9815 C   0  0  0  0  0  0  0  0  0  0  0  0
   -4.2184    7.4177  -19.7143 C   0  0  1  0  0  0  0  0  0  0  0  0
   -4.8540    8.7987  -19.5624 C   0  0  0  0  0  0  0  0  0  0  0  0
   -4.5054    6.6084  -18.4399 C   0  0  0  0  0  0  0  0  0  0  0  0
   -3.7134    6.6044  -17.5745 O   0  0  0  0  0  0  0  0  0  0  0  0
   -5.9330    5.9829  -18.5062 N   0  0  0  0  0  0  0  0  0  0  0  0
   -6.6615    5.3524  -17.5545 C   0  0  0  0  0  0  0  0  0  0  0  0
   -6.3004    5.2014  -16.2459 C   0  0  0  0  0  0  0  0  0  0  0  0
   -7.3492    4.5723  -15.6433 N   0  0  0  0  0  0  0  0  0  0  0  0
   -7.4586    4.2367  -14.2326 C   0  0  0  0  0  0  0  0  0  0  0  0
   -6.1228    4.0541  -13.4803 C   0  0  0  0  0  0  0  0  0  0  0  0
   -6.2799    3.2274  -12.2224 C   0  0  0  0  0  0  0  0  0  0  0  0
   -8.2957    4.3659  -16.6071 C   0  0  0  0  0  0  0  0  0  0  0  0
   -7.9038    4.8477  -17.7719 N   0  0  0  0  0  0  0  0  0  0  0  0
  1  2  3  0
  2  3  1  0
  3  4  1  1
  3  5  1  0
  5  6  2  0
  5  7  1  0
  7  8  1  0
  8  9  2  0
  9 10  1  0
 10 11  1  0
 11 12  1  0
 12 13  1  0
 10 14  1  0
 14 15  2  0
 15  8  1  0
M  END
>  <energy_score>  (3633) 
-26.856553

>  <alias>  (3633) 
YYUFSTIAYNCDLT-UHFFFAOYSA-N-P86-P35-P86-601527

>  <HIPPO Pose ID>  (3633) 
79152

>  <smiles>  (3633) 
C#CC(C)C(=O)Nc1cn(CCC)cn1

>  <inchikey>  (3633) 
YYUFSTIAYNCDLT-UHFFFAOYSA-N

>  <distance_score>  (3633) 
1.980289

>  <ref_mols>  (3633) 
Z0719a,Z1597a

>  <ref_pdb>  (3633) 
Z0719a

>  <HIPPO Compound ID>  (3633) 
150361

>  <name>  (3633) 
YYUFSTIAYNCDLT-UHFFFAOYSA-N-P86-P35-P86-601527

>  <inspiration_score>  (3633) 
None

$$$$
IORXSTUPJWKPIF-UHFFFAOYSA-N-P35-P35-P86-601527
     RDKit          3D

 15 15  0  0  0  0  0  0  0  0999 V2000
   -5.6154    2.6220  -12.8655 C   0  0  0  0  0  0  0  0  0  0  0  0
   -5.7370    3.5550  -14.0520 C   0  0  0  0  0  0  0  0  0  0  0  0
   -7.1909    3.6163  -14.5553 C   0  0  0  0  0  0  0  0  0  0  0  0
   -7.4210    4.1814  -15.8698 N   0  0  0  0  0  0  0  0  0  0  0  0
   -8.6523    4.3354  -16.4442 C   0  0  0  0  0  0  0  0  0  0  0  0
   -8.5620    4.9046  -17.6247 N   0  0  0  0  0  0  0  0  0  0  0  0
   -7.2363    5.1237  -17.8156 C   0  0  0  0  0  0  0  0  0  0  0  0
   -6.7807    5.7581  -18.9175 N   0  0  0  0  0  0  0  0  0  0  0  0
   -5.3365    6.1793  -19.3163 C   0  0  0  0  0  0  0  0  0  0  0  0
   -4.3134    5.9726  -18.7876 O   0  0  0  0  0  0  0  0  0  0  0  0
   -5.4802    7.0634  -20.5526 C   0  0  0  0  0  0  0  0  0  0  0  0
   -4.1389    7.3811  -21.2155 C   0  0  1  0  0  0  0  0  0  0  0  0
   -4.3383    7.7930  -22.6747 C   0  0  0  0  0  0  0  0  0  0  0  0
   -3.2722    8.7588  -20.3660 S   0  0  0  0  0  0  0  0  0  0  0  0
   -6.5054    4.6862  -16.7462 C   0  0  0  0  0  0  0  0  0  0  0  0
  1  2  1  0
  2  3  1  0
  3  4  1  0
  4  5  1  0
  5  6  2  0
  6  7  1  0
  7  8  1  0
  8  9  1  0
  9 10  2  0
  9 11  1  0
 11 12  1  0
 12 13  1  6
 12 14  1  0
  7 15  2  0
 15  4  1  0
M  END
>  <energy_score>  (3634) 
-13.059974

>  <alias>  (3634) 
IORXSTUPJWKPIF-UHFFFAOYSA-N-P35-P35-P86-601527

>  <HIPPO Pose ID>  (3634) 
79169

>  <smiles>  (3634) 
CCCn1cnc(NC(=O)CC(C)S)c1

>  <inchikey>  (3634) 
IORXSTUPJWKPIF-UHFFFAOYSA-N

>  <distance_score>  (3634) 
1.708251

>  <ref_mols>  (3634) 
Z0719a,Z1597a

>  <ref_pdb>  (3634) 
Z0719a

>  <HIPPO Compound ID>  (3634) 
150370

>  <name>  (3634) 
IORXSTUPJWKPIF-UHFFFAOYSA-N-P35-P35-P86-601527

>  <inspiration_score>  (3634) 
None

$$$$
WDIICKJCBGLSTK-UHFFFAOYSA-N-P35-P35-P86-601527
     RDKit          3D

 15 15  0  0  0  0  0  0  0  0999 V2000
   -4.3305    8.1119  -21.8950 C   0  0  0  0  0  0  0  0  0  0  0  0
   -3.9921    7.4437  -20.5633 C   0  0  2  0  0  0  0  0  0  0  0  0
   -2.6149    6.2639  -20.8415 S   0  0  0  0  0  0  0  0  0  0  0  0
   -5.2567    6.8519  -19.9289 C   0  0  0  0  0  0  0  0  0  0  0  0
   -5.0232    6.1465  -18.5995 C   0  0  0  0  0  0  0  0  0  0  0  0
   -3.9686    6.0073  -18.1137 O   0  0  0  0  0  0  0  0  0  0  0  0
   -6.4244    5.6794  -18.1156 N   0  0  0  0  0  0  0  0  0  0  0  0
   -6.7983    5.0715  -16.9689 C   0  0  0  0  0  0  0  0  0  0  0  0
   -5.9833    4.5400  -16.0066 C   0  0  0  0  0  0  0  0  0  0  0  0
   -6.8202    3.9573  -15.0904 N   0  0  0  0  0  0  0  0  0  0  0  0
   -6.4549    3.0866  -13.9677 C   0  0  0  0  0  0  0  0  0  0  0  0
   -7.2786    3.3392  -12.7102 C   0  0  0  0  0  0  0  0  0  0  0  0
   -4.9648    3.1106  -13.5861 C   0  0  0  0  0  0  0  0  0  0  0  0
   -8.0952    4.2331  -15.5250 C   0  0  0  0  0  0  0  0  0  0  0  0
   -8.1042    4.9063  -16.6553 N   0  0  0  0  0  0  0  0  0  0  0  0
  2  1  1  6
  2  3  1  0
  2  4  1  0
  4  5  1  0
  5  6  2  0
  5  7  1  0
  7  8  1  0
  8  9  2  0
  9 10  1  0
 10 11  1  0
 11 12  1  0
 11 13  1  0
 10 14  1  0
 14 15  2  0
 15  8  1  0
M  END
>  <energy_score>  (3635) 
-27.357515

>  <alias>  (3635) 
WDIICKJCBGLSTK-UHFFFAOYSA-N-P35-P35-P86-601527

>  <HIPPO Pose ID>  (3635) 
79173

>  <smiles>  (3635) 
CC(S)CC(=O)Nc1cn(C(C)C)cn1

>  <inchikey>  (3635) 
WDIICKJCBGLSTK-UHFFFAOYSA-N

>  <distance_score>  (3635) 
1.966194

>  <ref_mols>  (3635) 
Z0719a,Z1597a

>  <ref_pdb>  (3635) 
Z0719a

>  <HIPPO Compound ID>  (3635) 
150372

>  <name>  (3635) 
WDIICKJCBGLSTK-UHFFFAOYSA-N-P35-P35-P86-601527

>  <inspiration_score>  (3635) 
None

$$$$
QFRFUHFZVMVLPY-UHFFFAOYSA-N-P86-P35-P86-601527
     RDKit          3D

 15 15  0  0  0  0  0  0  0  0999 V2000
   -4.9316    7.1509  -22.0402 C   0  0  0  0  0  0  0  0  0  0  0  0
   -4.4435    6.9444  -20.9624 C   0  0  0  0  0  0  0  0  0  0  0  0
   -3.8234    6.6770  -19.6545 C   0  0  0  0  0  0  0  0  0  0  0  0
   -4.8076    6.6580  -18.4823 C   0  0  0  0  0  0  0  0  0  0  0  0
   -4.6442    7.3035  -17.5195 O   0  0  0  0  0  0  0  0  0  0  0  0
   -5.8995    5.5940  -18.8120 N   0  0  0  0  0  0  0  0  0  0  0  0
   -6.8930    5.0734  -18.0337 C   0  0  0  0  0  0  0  0  0  0  0  0
   -8.0268    4.5818  -18.6231 N   0  0  0  0  0  0  0  0  0  0  0  0
   -8.8841    4.1881  -17.6414 C   0  0  0  0  0  0  0  0  0  0  0  0
   -8.3443    4.3387  -16.4598 N   0  0  0  0  0  0  0  0  0  0  0  0
   -7.0737    4.8810  -16.6687 C   0  0  0  0  0  0  0  0  0  0  0  0
   -6.0680    5.0637  -15.6053 C   0  0  0  0  0  0  0  0  0  0  0  0
   -4.8604    5.0472  -15.8417 O   0  0  0  0  0  0  0  0  0  0  0  0
   -6.4802    5.2298  -14.3058 O   0  0  0  0  0  0  0  0  0  0  0  0
   -7.8499    5.1206  -13.9013 C   0  0  0  0  0  0  0  0  0  0  0  0
  1  2  3  0
  2  3  1  0
  3  4  1  0
  4  5  2  0
  4  6  1  0
  6  7  1  0
  7  8  1  0
  8  9  1  0
  9 10  2  0
 10 11  1  0
 11 12  1  0
 12 13  2  0
 12 14  1  0
 14 15  1  0
 11  7  2  0
M  END
>  <energy_score>  (3636) 
-12.768065

>  <alias>  (3636) 
QFRFUHFZVMVLPY-UHFFFAOYSA-N-P86-P35-P86-601527

>  <HIPPO Pose ID>  (3636) 
79178

>  <smiles>  (3636) 
C#CCC(=O)Nc1[nH]cnc1C(=O)OC

>  <inchikey>  (3636) 
QFRFUHFZVMVLPY-UHFFFAOYSA-N

>  <distance_score>  (3636) 
1.825225

>  <ref_mols>  (3636) 
Z0719a,Z1597a

>  <ref_pdb>  (3636) 
Z0719a

>  <HIPPO Compound ID>  (3636) 
150374

>  <name>  (3636) 
QFRFUHFZVMVLPY-UHFFFAOYSA-N-P86-P35-P86-601527

>  <inspiration_score>  (3636) 
None

$$$$
ORVCFXFKXHKJQH-UHFFFAOYSA-N-P86-P35-P86-601527
     RDKit          3D

 15 16  0  0  0  0  0  0  0  0999 V2000
   -4.4209    5.7145  -18.0941 O   0  0  0  0  0  0  0  0  0  0  0  0
   -5.0217    5.4864  -19.0735 C   0  0  0  0  0  0  0  0  0  0  0  0
   -6.4945    5.0014  -19.2674 N   0  0  0  0  0  0  0  0  0  0  0  0
   -7.4307    4.6328  -18.3514 C   0  0  0  0  0  0  0  0  0  0  0  0
   -8.6968    4.1083  -18.5511 C   0  0  0  0  0  0  0  0  0  0  0  0
   -9.3382    3.8308  -17.3584 N   0  0  0  0  0  0  0  0  0  0  0  0
   -8.4795    4.2169  -16.4518 C   0  0  0  0  0  0  0  0  0  0  0  0
   -7.3324    4.6881  -17.0118 N   0  0  0  0  0  0  0  0  0  0  0  0
   -6.4104    5.2240  -16.0446 C   0  0  0  0  0  0  0  0  0  0  0  0
   -7.2559    5.2918  -14.7735 C   0  0  0  0  0  0  0  0  0  0  0  0
   -8.4412    4.3313  -14.9847 C   0  0  0  0  0  0  0  0  0  0  0  0
   -4.4240    5.6287  -20.4752 C   0  0  2  0  0  0  0  0  0  0  0  0
   -2.5627    4.9981  -20.3968 Br  0  0  0  0  0  0  0  0  0  0  0  0
   -4.4497    7.0804  -20.9133 C   0  0  0  0  0  0  0  0  0  0  0  0
   -4.3142    7.1891  -22.3312 O   0  0  0  0  0  0  0  0  0  0  0  0
  1  2  2  0
  2  3  1  0
  3  4  1  0
  4  5  2  0
  5  6  1  0
  6  7  2  0
  7  8  1  0
  8  9  1  0
  9 10  1  0
 10 11  1  0
  2 12  1  0
 12 13  1  1
 12 14  1  0
 14 15  1  0
  8  4  1  0
 11  7  1  0
M  END
>  <energy_score>  (3637) 
-29.227016

>  <alias>  (3637) 
ORVCFXFKXHKJQH-UHFFFAOYSA-N-P86-P35-P86-601527

>  <HIPPO Pose ID>  (3637) 
79190

>  <smiles>  (3637) 
O=C(Nc1cnc2n1CCC2)C(Br)CO

>  <inchikey>  (3637) 
ORVCFXFKXHKJQH-UHFFFAOYSA-N

>  <distance_score>  (3637) 
1.471263

>  <ref_mols>  (3637) 
Z0719a,Z1597a

>  <ref_pdb>  (3637) 
Z0719a

>  <HIPPO Compound ID>  (3637) 
150380

>  <name>  (3637) 
ORVCFXFKXHKJQH-UHFFFAOYSA-N-P86-P35-P86-601527

>  <inspiration_score>  (3637) 
None

$$$$
CYUVSYNFDZEZDS-UHFFFAOYSA-N-P86-P35-P86-601527
     RDKit          3D

 15 15  0  0  0  0  0  0  0  0999 V2000
   -4.3389    8.1505  -20.3905 C   0  0  0  0  0  0  0  0  0  0  0  0
   -4.5760    7.0287  -21.0877 C   0  0  0  0  0  0  0  0  0  0  0  0
   -4.8878    7.1406  -22.9397 Br  0  0  0  0  0  0  0  0  0  0  0  0
   -4.6227    5.6280  -20.5392 C   0  0  0  0  0  0  0  0  0  0  0  0
   -4.9240    5.5581  -19.0335 C   0  0  0  0  0  0  0  0  0  0  0  0
   -4.1045    5.7560  -18.2202 O   0  0  0  0  0  0  0  0  0  0  0  0
   -6.4286    5.1753  -18.8799 N   0  0  0  0  0  0  0  0  0  0  0  0
   -7.1632    4.8818  -17.7586 C   0  0  0  0  0  0  0  0  0  0  0  0
   -8.4395    4.3605  -17.7317 C   0  0  0  0  0  0  0  0  0  0  0  0
   -9.3160    3.9749  -18.8315 C   0  0  0  0  0  0  0  0  0  0  0  0
   -8.8815    4.1560  -16.4569 N   0  0  0  0  0  0  0  0  0  0  0  0
   -7.8939    4.5288  -15.6814 C   0  0  0  0  0  0  0  0  0  0  0  0
   -7.8940    4.4690  -14.2009 C   0  0  0  0  0  0  0  0  0  0  0  0
   -6.8325    4.9928  -16.4308 N   0  0  0  0  0  0  0  0  0  0  0  0
   -5.6421    5.5437  -15.8623 C   0  0  0  0  0  0  0  0  0  0  0  0
  1  2  2  0
  2  3  1  0
  2  4  1  0
  4  5  1  0
  5  6  2  0
  5  7  1  0
  7  8  1  0
  8  9  2  0
  9 10  1  0
  9 11  1  0
 11 12  2  0
 12 13  1  0
 12 14  1  0
 14 15  1  0
 14  8  1  0
M  END
>  <energy_score>  (3638) 
-16.417273

>  <alias>  (3638) 
CYUVSYNFDZEZDS-UHFFFAOYSA-N-P86-P35-P86-601527

>  <HIPPO Pose ID>  (3638) 
79192

>  <smiles>  (3638) 
C=C(Br)CC(=O)Nc1c(C)nc(C)n1C

>  <inchikey>  (3638) 
CYUVSYNFDZEZDS-UHFFFAOYSA-N

>  <distance_score>  (3638) 
1.454631

>  <ref_mols>  (3638) 
Z0719a,Z1597a

>  <ref_pdb>  (3638) 
Z0719a

>  <HIPPO Compound ID>  (3638) 
150381

>  <name>  (3638) 
CYUVSYNFDZEZDS-UHFFFAOYSA-N-P86-P35-P86-601527

>  <inspiration_score>  (3638) 
None

$$$$
BFOJNXQDWLBXTM-UHFFFAOYSA-N-P86-P35-P86-601527
     RDKit          3D

 15 16  0  0  0  0  0  0  0  0999 V2000
   -4.7542    7.4000  -22.5148 C   0  0  0  0  0  0  0  0  0  0  0  0
   -3.9332    6.8799  -21.8087 C   0  0  0  0  0  0  0  0  0  0  0  0
   -2.9314    6.2136  -20.9603 C   0  0  0  0  0  0  0  0  0  0  0  0
   -3.1971    6.3741  -19.4672 C   0  0  0  0  0  0  0  0  0  0  0  0
   -2.3716    6.7321  -18.7186 O   0  0  0  0  0  0  0  0  0  0  0  0
   -4.6583    5.9016  -19.2077 N   0  0  0  0  0  0  0  0  0  0  0  0
   -5.3216    5.6977  -18.0478 C   0  0  0  0  0  0  0  0  0  0  0  0
   -6.6491    5.3703  -17.9564 C   0  0  0  0  0  0  0  0  0  0  0  0
   -6.8513    5.1071  -16.6359 N   0  0  0  0  0  0  0  0  0  0  0  0
   -8.0447    4.6782  -15.9309 C   0  0  0  0  0  0  0  0  0  0  0  0
   -9.1012    3.9159  -16.6554 C   0  0  0  0  0  0  0  0  0  0  0  0
   -9.8398    4.3693  -17.8950 C   0  0  0  0  0  0  0  0  0  0  0  0
   -8.9552    3.1676  -17.9542 C   0  0  0  0  0  0  0  0  0  0  0  0
   -5.6783    5.3887  -15.9852 C   0  0  0  0  0  0  0  0  0  0  0  0
   -4.7424    5.7609  -16.8233 N   0  0  0  0  0  0  0  0  0  0  0  0
  1  2  3  0
  2  3  1  0
  3  4  1  0
  4  5  2  0
  4  6  1  0
  6  7  1  0
  7  8  2  0
  8  9  1  0
  9 10  1  0
 10 11  1  0
 11 12  1  0
 12 13  1  0
  9 14  1  0
 14 15  2  0
 15  7  1  0
 13 11  1  0
M  END
>  <energy_score>  (3639) 
-8.113379

>  <alias>  (3639) 
BFOJNXQDWLBXTM-UHFFFAOYSA-N-P86-P35-P86-601527

>  <HIPPO Pose ID>  (3639) 
79208

>  <smiles>  (3639) 
C#CCC(=O)Nc1cn(CC2CC2)cn1

>  <inchikey>  (3639) 
BFOJNXQDWLBXTM-UHFFFAOYSA-N

>  <distance_score>  (3639) 
1.788539

>  <ref_mols>  (3639) 
Z0719a,Z1597a

>  <ref_pdb>  (3639) 
Z0719a

>  <HIPPO Compound ID>  (3639) 
150389

>  <name>  (3639) 
BFOJNXQDWLBXTM-UHFFFAOYSA-N-P86-P35-P86-601527

>  <inspiration_score>  (3639) 
None

$$$$
ALLRQWJRTPOGID-UHFFFAOYSA-N-P86-P35-P86-601527
     RDKit          3D

 15 16  0  0  0  0  0  0  0  0999 V2000
   -4.7222    8.9390  -22.1093 C   0  0  0  0  0  0  0  0  0  0  0  0
   -4.5284    7.7617  -21.9702 C   0  0  0  0  0  0  0  0  0  0  0  0
   -4.2817    6.3262  -21.8187 C   0  0  0  0  0  0  0  0  0  0  0  0
   -4.2703    5.9492  -20.3469 C   0  0  0  0  0  0  0  0  0  0  0  0
   -3.3489    6.1513  -19.6544 O   0  0  0  0  0  0  0  0  0  0  0  0
   -5.6794    5.3821  -20.0102 N   0  0  0  0  0  0  0  0  0  0  0  0
   -6.2331    5.0611  -18.8231 C   0  0  0  0  0  0  0  0  0  0  0  0
   -7.4911    4.5448  -18.6377 C   0  0  0  0  0  0  0  0  0  0  0  0
   -7.6486    4.5027  -17.2879 N   0  0  0  0  0  0  0  0  0  0  0  0
   -8.7817    4.1438  -16.6372 N   0  0  0  0  0  0  0  0  0  0  0  0
   -8.6655    4.2912  -15.3584 C   0  0  0  0  0  0  0  0  0  0  0  0
   -7.4745    4.7591  -14.6175 C   0  0  0  0  0  0  0  0  0  0  0  0
   -6.4032    5.0991  -15.3346 C   0  0  0  0  0  0  0  0  0  0  0  0
   -6.4746    4.9937  -16.7348 C   0  0  0  0  0  0  0  0  0  0  0  0
   -5.5951    5.3116  -17.6526 N   0  0  0  0  0  0  0  0  0  0  0  0
  1  2  3  0
  2  3  1  0
  3  4  1  0
  4  5  2  0
  4  6  1  0
  6  7  1  0
  7  8  2  0
  8  9  1  0
  9 10  1  0
 10 11  2  0
 11 12  1  0
 12 13  2  0
 13 14  1  0
 14 15  2  0
 15  7  1  0
 14  9  1  0
M  END
>  <energy_score>  (3640) 
-34.886777

>  <alias>  (3640) 
ALLRQWJRTPOGID-UHFFFAOYSA-N-P86-P35-P86-601527

>  <HIPPO Pose ID>  (3640) 
79220

>  <smiles>  (3640) 
C#CCC(=O)Nc1cn2ncccc2n1

>  <inchikey>  (3640) 
ALLRQWJRTPOGID-UHFFFAOYSA-N

>  <distance_score>  (3640) 
1.597897

>  <ref_mols>  (3640) 
Z0719a,Z1597a

>  <ref_pdb>  (3640) 
Z0719a

>  <HIPPO Compound ID>  (3640) 
150395

>  <name>  (3640) 
ALLRQWJRTPOGID-UHFFFAOYSA-N-P86-P35-P86-601527

>  <inspiration_score>  (3640) 
None

$$$$
KWICHBWRXHDPGE-UHFFFAOYSA-N-P86-P35-P86-601527
     RDKit          3D

 15 16  0  0  0  0  0  0  0  0999 V2000
   -4.9472    7.2894  -22.9264 C   0  0  0  0  0  0  0  0  0  0  0  0
   -4.1234    6.8688  -22.1599 C   0  0  0  0  0  0  0  0  0  0  0  0
   -3.1130    6.3306  -21.2384 C   0  0  0  0  0  0  0  0  0  0  0  0
   -3.5750    6.3438  -19.7896 C   0  0  0  0  0  0  0  0  0  0  0  0
   -2.9282    6.8138  -18.9344 O   0  0  0  0  0  0  0  0  0  0  0  0
   -4.9268    5.5693  -19.7246 N   0  0  0  0  0  0  0  0  0  0  0  0
   -5.7453    5.3177  -18.6767 C   0  0  0  0  0  0  0  0  0  0  0  0
   -6.9318    4.6296  -18.7203 C   0  0  0  0  0  0  0  0  0  0  0  0
   -7.3772    4.6323  -17.4311 N   0  0  0  0  0  0  0  0  0  0  0  0
   -8.5460    4.1326  -16.8938 C   0  0  0  0  0  0  0  0  0  0  0  0
   -8.7429    4.2690  -15.5802 C   0  0  0  0  0  0  0  0  0  0  0  0
   -7.6519    4.9202  -14.8191 C   0  0  0  0  0  0  0  0  0  0  0  0
   -6.5673    5.4257  -15.3090 N   0  0  0  0  0  0  0  0  0  0  0  0
   -6.4190    5.2932  -16.6587 C   0  0  0  0  0  0  0  0  0  0  0  0
   -5.4482    5.7417  -17.4218 N   0  0  0  0  0  0  0  0  0  0  0  0
  1  2  3  0
  2  3  1  0
  3  4  1  0
  4  5  2  0
  4  6  1  0
  6  7  1  0
  7  8  2  0
  8  9  1  0
  9 10  1  0
 10 11  2  0
 11 12  1  0
 12 13  2  0
 13 14  1  0
 14 15  2  0
 15  7  1  0
 14  9  1  0
M  END
>  <energy_score>  (3641) 
-20.77408

>  <alias>  (3641) 
KWICHBWRXHDPGE-UHFFFAOYSA-N-P86-P35-P86-601527

>  <HIPPO Pose ID>  (3641) 
79222

>  <smiles>  (3641) 
C#CCC(=O)Nc1cn2cccnc2n1

>  <inchikey>  (3641) 
KWICHBWRXHDPGE-UHFFFAOYSA-N

>  <distance_score>  (3641) 
1.668997

>  <ref_mols>  (3641) 
Z0719a,Z1597a

>  <ref_pdb>  (3641) 
Z0719a

>  <HIPPO Compound ID>  (3641) 
150396

>  <name>  (3641) 
KWICHBWRXHDPGE-UHFFFAOYSA-N-P86-P35-P86-601527

>  <inspiration_score>  (3641) 
None

$$$$
XEIMYPSKDSAENN-UHFFFAOYSA-N-P86-P35-P86-601527
     RDKit          3D

 15 15  0  0  0  0  0  0  0  0999 V2000
   -8.6238    4.3341  -13.8811 C   0  0  0  0  0  0  0  0  0  0  0  0
   -8.1640    4.4227  -15.2444 N   0  0  0  0  0  0  0  0  0  0  0  0
   -8.9007    4.3715  -16.3798 C   0  0  0  0  0  0  0  0  0  0  0  0
   -8.1535    4.6247  -17.4277 N   0  0  0  0  0  0  0  0  0  0  0  0
   -6.8778    4.7614  -16.9565 C   0  0  0  0  0  0  0  0  0  0  0  0
   -5.9351    4.9857  -17.9049 N   0  0  0  0  0  0  0  0  0  0  0  0
   -4.4632    5.4519  -17.7705 C   0  0  0  0  0  0  0  0  0  0  0  0
   -3.8133    5.6402  -16.8195 O   0  0  0  0  0  0  0  0  0  0  0  0
   -3.9118    5.5557  -19.1961 C   0  0  0  0  0  0  0  0  0  0  0  0
   -4.4332    6.7634  -19.9761 C   0  0  0  0  0  0  0  0  0  0  0  0
   -4.1590    6.6187  -21.4706 C   0  0  0  0  0  0  0  0  0  0  0  0
   -4.7003    8.4003  -22.5236 I   0  0  0  0  0  0  0  0  0  0  0  0
   -6.8449    4.5717  -15.5938 C   0  0  0  0  0  0  0  0  0  0  0  0
   -5.8249    4.3811  -14.6245 C   0  0  0  0  0  0  0  0  0  0  0  0
   -5.1756    4.0949  -13.7062 N   0  0  0  0  0  0  0  0  0  0  0  0
  1  2  1  0
  2  3  1  0
  3  4  2  0
  4  5  1  0
  5  6  1  0
  6  7  1  0
  7  8  2  0
  7  9  1  0
  9 10  1  0
 10 11  1  0
 11 12  1  0
  5 13  2  0
 13 14  1  0
 14 15  3  0
 13  2  1  0
M  END
>  <energy_score>  (3642) 
-5.727884

>  <alias>  (3642) 
XEIMYPSKDSAENN-UHFFFAOYSA-N-P86-P35-P86-601527

>  <HIPPO Pose ID>  (3642) 
79226

>  <smiles>  (3642) 
Cn1cnc(NC(=O)CCCI)c1C#N

>  <inchikey>  (3642) 
XEIMYPSKDSAENN-UHFFFAOYSA-N

>  <distance_score>  (3642) 
1.770188

>  <ref_mols>  (3642) 
Z0719a,Z1597a

>  <ref_pdb>  (3642) 
Z0719a

>  <HIPPO Compound ID>  (3642) 
150398

>  <name>  (3642) 
XEIMYPSKDSAENN-UHFFFAOYSA-N-P86-P35-P86-601527

>  <inspiration_score>  (3642) 
None

$$$$
SGEUKLQHTAJURD-UHFFFAOYSA-N-P86-P35-P86-601527
     RDKit          3D

 15 16  0  0  0  0  0  0  0  0999 V2000
   -1.8731    5.6051  -21.3108 C   0  0  0  0  0  0  0  0  0  0  0  0
   -3.0631    6.1973  -21.1355 C   0  0  0  0  0  0  0  0  0  0  0  0
   -3.8752    6.8564  -22.1950 C   0  0  0  0  0  0  0  0  0  0  0  0
   -3.5790    6.2895  -19.7410 C   0  0  0  0  0  0  0  0  0  0  0  0
   -3.0296    6.9005  -18.9139 O   0  0  0  0  0  0  0  0  0  0  0  0
   -4.9160    5.5184  -19.6947 N   0  0  0  0  0  0  0  0  0  0  0  0
   -5.7542    5.2751  -18.6614 C   0  0  0  0  0  0  0  0  0  0  0  0
   -6.9409    4.5903  -18.7320 C   0  0  0  0  0  0  0  0  0  0  0  0
   -7.4132    4.5928  -17.4538 N   0  0  0  0  0  0  0  0  0  0  0  0
   -8.5931    4.0949  -16.9441 C   0  0  0  0  0  0  0  0  0  0  0  0
   -8.8161    4.2309  -15.6355 C   0  0  0  0  0  0  0  0  0  0  0  0
   -7.7432    4.8792  -14.8481 C   0  0  0  0  0  0  0  0  0  0  0  0
   -6.6483    5.3847  -15.3132 N   0  0  0  0  0  0  0  0  0  0  0  0
   -6.4726    5.2513  -16.6597 C   0  0  0  0  0  0  0  0  0  0  0  0
   -5.4856    5.7014  -17.4006 N   0  0  0  0  0  0  0  0  0  0  0  0
  1  2  2  0
  2  3  1  0
  2  4  1  0
  4  5  2  0
  4  6  1  0
  6  7  1  0
  7  8  2  0
  8  9  1  0
  9 10  1  0
 10 11  2  0
 11 12  1  0
 12 13  2  0
 13 14  1  0
 14 15  2  0
 15  7  1  0
 14  9  1  0
M  END
>  <energy_score>  (3643) 
-25.678253

>  <alias>  (3643) 
SGEUKLQHTAJURD-UHFFFAOYSA-N-P86-P35-P86-601527

>  <HIPPO Pose ID>  (3643) 
79230

>  <smiles>  (3643) 
C=C(C)C(=O)Nc1cn2cccnc2n1

>  <inchikey>  (3643) 
SGEUKLQHTAJURD-UHFFFAOYSA-N

>  <distance_score>  (3643) 
1.602045

>  <ref_mols>  (3643) 
Z0719a,Z1597a

>  <ref_pdb>  (3643) 
Z0719a

>  <HIPPO Compound ID>  (3643) 
150400

>  <name>  (3643) 
SGEUKLQHTAJURD-UHFFFAOYSA-N-P86-P35-P86-601527

>  <inspiration_score>  (3643) 
None

$$$$
DQONNOLBIWTLCQ-UHFFFAOYSA-N-P35-P35-P86-601527
     RDKit          3D

 15 15  0  0  0  0  0  0  0  0999 V2000
   -7.4061    3.3452  -12.6224 C   0  0  0  0  0  0  0  0  0  0  0  0
   -6.5302    3.0010  -13.8165 C   0  0  0  0  0  0  0  0  0  0  0  0
   -5.0746    2.8532  -13.3381 C   0  0  0  0  0  0  0  0  0  0  0  0
   -6.7246    3.9165  -14.9424 N   0  0  0  0  0  0  0  0  0  0  0  0
   -7.9071    4.1574  -15.6032 C   0  0  0  0  0  0  0  0  0  0  0  0
   -7.7139    4.7891  -16.7432 N   0  0  0  0  0  0  0  0  0  0  0  0
   -6.3746    4.9749  -16.8080 C   0  0  0  0  0  0  0  0  0  0  0  0
   -5.7607    5.4092  -17.9279 N   0  0  0  0  0  0  0  0  0  0  0  0
   -4.2528    5.7061  -18.2071 C   0  0  0  0  0  0  0  0  0  0  0  0
   -3.3305    5.6922  -17.4849 O   0  0  0  0  0  0  0  0  0  0  0  0
   -4.1324    5.9385  -19.7111 C   0  0  2  0  0  0  0  0  0  0  0  0
   -2.2351    6.0586  -20.2288 Br  0  0  0  0  0  0  0  0  0  0  0  0
   -4.8703    7.1264  -20.3004 C   0  0  0  0  0  0  0  0  0  0  0  0
   -4.4594    8.3677  -19.7233 O   0  0  0  0  0  0  0  0  0  0  0  0
   -5.7519    4.5396  -15.6729 C   0  0  0  0  0  0  0  0  0  0  0  0
  1  2  1  0
  2  3  1  0
  2  4  1  0
  4  5  1  0
  5  6  2  0
  6  7  1  0
  7  8  1  0
  8  9  1  0
  9 10  2  0
  9 11  1  0
 11 12  1  1
 11 13  1  0
 13 14  1  0
  7 15  2  0
 15  4  1  0
M  END
>  <energy_score>  (3644) 
-28.608584

>  <alias>  (3644) 
DQONNOLBIWTLCQ-UHFFFAOYSA-N-P35-P35-P86-601527

>  <HIPPO Pose ID>  (3644) 
79247

>  <smiles>  (3644) 
CC(C)n1cnc(NC(=O)C(Br)CO)c1

>  <inchikey>  (3644) 
DQONNOLBIWTLCQ-UHFFFAOYSA-N

>  <distance_score>  (3644) 
1.977051

>  <ref_mols>  (3644) 
Z0719a,Z1597a

>  <ref_pdb>  (3644) 
Z0719a

>  <HIPPO Compound ID>  (3644) 
150409

>  <name>  (3644) 
DQONNOLBIWTLCQ-UHFFFAOYSA-N-P35-P35-P86-601527

>  <inspiration_score>  (3644) 
None

$$$$
ZSHORSIYVVNFIG-UHFFFAOYSA-N-P35-P35-P86-601527
     RDKit          3D

 15 16  0  0  0  0  0  0  0  0999 V2000
   -4.5302    6.8448  -17.8171 O   0  0  0  0  0  0  0  0  0  0  0  0
   -4.9118    6.4206  -18.8392 C   0  0  0  0  0  0  0  0  0  0  0  0
   -4.1206    6.6223  -20.1221 C   0  0  0  0  0  0  0  0  0  0  0  0
   -4.8574    7.4994  -21.1270 C   0  0  0  0  0  0  0  0  0  0  0  0
   -4.0840    7.7571  -22.4186 C   0  0  0  0  0  0  0  0  0  0  0  0
   -2.4749    9.1339  -22.1520 I   0  0  0  0  0  0  0  0  0  0  0  0
   -6.1805    5.5810  -19.1728 N   0  0  0  0  0  0  0  0  0  0  0  0
   -7.1304    5.0444  -18.3504 C   0  0  0  0  0  0  0  0  0  0  0  0
   -8.2745    4.3147  -18.6456 C   0  0  0  0  0  0  0  0  0  0  0  0
   -8.9715    3.9476  -17.5062 N   0  0  0  0  0  0  0  0  0  0  0  0
   -8.2547    4.4551  -16.5395 C   0  0  0  0  0  0  0  0  0  0  0  0
   -7.1629    5.1154  -17.0062 N   0  0  0  0  0  0  0  0  0  0  0  0
   -6.3221    5.6403  -15.9580 C   0  0  0  0  0  0  0  0  0  0  0  0
   -6.8973    4.9865  -14.7022 C   0  0  0  0  0  0  0  0  0  0  0  0
   -8.3016    4.4725  -15.0719 C   0  0  0  0  0  0  0  0  0  0  0  0
  1  2  2  0
  2  3  1  0
  3  4  1  0
  4  5  1  0
  5  6  1  0
  2  7  1  0
  7  8  1  0
  8  9  2  0
  9 10  1  0
 10 11  2  0
 11 12  1  0
 12 13  1  0
 13 14  1  0
 14 15  1  0
 12  8  1  0
 15 11  1  0
M  END
>  <energy_score>  (3645) 
-24.93258

>  <alias>  (3645) 
ZSHORSIYVVNFIG-UHFFFAOYSA-N-P35-P35-P86-601527

>  <HIPPO Pose ID>  (3645) 
79251

>  <smiles>  (3645) 
O=C(CCCI)Nc1cnc2n1CCC2

>  <inchikey>  (3645) 
ZSHORSIYVVNFIG-UHFFFAOYSA-N

>  <distance_score>  (3645) 
1.341517

>  <ref_mols>  (3645) 
Z0719a,Z1597a

>  <ref_pdb>  (3645) 
Z0719a

>  <HIPPO Compound ID>  (3645) 
150411

>  <name>  (3645) 
ZSHORSIYVVNFIG-UHFFFAOYSA-N-P35-P35-P86-601527

>  <inspiration_score>  (3645) 
None

$$$$
PAUWXGNVTJDINQ-UHFFFAOYSA-N-P86-P35-P86-601527
     RDKit          3D

 15 16  0  0  0  0  0  0  0  0999 V2000
   -1.7782    5.6219  -21.2768 C   0  0  0  0  0  0  0  0  0  0  0  0
   -2.9895    6.1640  -21.0852 C   0  0  0  0  0  0  0  0  0  0  0  0
   -3.7982    6.8648  -22.1229 C   0  0  0  0  0  0  0  0  0  0  0  0
   -3.5315    6.1588  -19.6946 C   0  0  0  0  0  0  0  0  0  0  0  0
   -2.9586    6.6400  -18.8003 O   0  0  0  0  0  0  0  0  0  0  0  0
   -4.9202    5.4869  -19.7485 N   0  0  0  0  0  0  0  0  0  0  0  0
   -5.7967    5.2008  -18.7585 C   0  0  0  0  0  0  0  0  0  0  0  0
   -6.9631    4.4919  -18.8970 C   0  0  0  0  0  0  0  0  0  0  0  0
   -7.5152    4.4775  -17.6550 N   0  0  0  0  0  0  0  0  0  0  0  0
   -8.7142    3.9382  -17.3329 N   0  0  0  0  0  0  0  0  0  0  0  0
   -8.9689    4.0644  -16.0738 C   0  0  0  0  0  0  0  0  0  0  0  0
   -8.1059    4.6784  -15.0421 C   0  0  0  0  0  0  0  0  0  0  0  0
   -6.9504    5.2074  -15.4501 C   0  0  0  0  0  0  0  0  0  0  0  0
   -6.6286    5.1398  -16.8187 C   0  0  0  0  0  0  0  0  0  0  0  0
   -5.5980    5.6146  -17.4777 N   0  0  0  0  0  0  0  0  0  0  0  0
  1  2  2  0
  2  3  1  0
  2  4  1  0
  4  5  2  0
  4  6  1  0
  6  7  1  0
  7  8  2  0
  8  9  1  0
  9 10  1  0
 10 11  2  0
 11 12  1  0
 12 13  2  0
 13 14  1  0
 14 15  2  0
 15  7  1  0
 14  9  1  0
M  END
>  <energy_score>  (3646) 
-28.785425

>  <alias>  (3646) 
PAUWXGNVTJDINQ-UHFFFAOYSA-N-P86-P35-P86-601527

>  <HIPPO Pose ID>  (3646) 
79266

>  <smiles>  (3646) 
C=C(C)C(=O)Nc1cn2ncccc2n1

>  <inchikey>  (3646) 
PAUWXGNVTJDINQ-UHFFFAOYSA-N

>  <distance_score>  (3646) 
1.666659

>  <ref_mols>  (3646) 
Z0719a,Z1597a

>  <ref_pdb>  (3646) 
Z0719a

>  <HIPPO Compound ID>  (3646) 
150418

>  <name>  (3646) 
PAUWXGNVTJDINQ-UHFFFAOYSA-N-P86-P35-P86-601527

>  <inspiration_score>  (3646) 
None

$$$$
IKDFEJUMDGJVOF-UHFFFAOYSA-N-P86-P35-P86-601527
     RDKit          3D

 15 16  0  0  0  0  0  0  0  0999 V2000
   -3.1029    7.5009  -20.0628 C   0  0  0  0  0  0  0  0  0  0  0  0
   -4.2227    6.4884  -20.2542 C   0  0  0  0  0  0  0  0  0  0  0  0
   -3.6105    5.1479  -20.6352 C   0  0  0  0  0  0  0  0  0  0  0  0
   -5.2396    7.1000  -21.5856 Cl  0  0  0  0  0  0  0  0  0  0  0  0
   -5.0419    6.3135  -18.9437 C   0  0  0  0  0  0  0  0  0  0  0  0
   -4.6398    6.7305  -17.9236 O   0  0  0  0  0  0  0  0  0  0  0  0
   -6.3106    5.4565  -19.2571 N   0  0  0  0  0  0  0  0  0  0  0  0
   -7.2312    4.8946  -18.4177 C   0  0  0  0  0  0  0  0  0  0  0  0
   -8.3919    4.1863  -18.7003 C   0  0  0  0  0  0  0  0  0  0  0  0
   -9.0669    3.8089  -17.5508 N   0  0  0  0  0  0  0  0  0  0  0  0
   -8.3225    4.2886  -16.5907 C   0  0  0  0  0  0  0  0  0  0  0  0
   -7.2084    4.8980  -17.0717 N   0  0  0  0  0  0  0  0  0  0  0  0
   -6.3366    5.3885  -16.0391 C   0  0  0  0  0  0  0  0  0  0  0  0
   -6.9805    4.8765  -14.7537 C   0  0  0  0  0  0  0  0  0  0  0  0
   -8.3810    4.3557  -15.1239 C   0  0  0  0  0  0  0  0  0  0  0  0
  1  2  1  0
  2  3  1  0
  2  4  1  0
  2  5  1  0
  5  6  2  0
  5  7  1  0
  7  8  1  0
  8  9  2  0
  9 10  1  0
 10 11  2  0
 11 12  1  0
 12 13  1  0
 13 14  1  0
 14 15  1  0
 12  8  1  0
 15 11  1  0
M  END
>  <energy_score>  (3647) 
-33.037126

>  <alias>  (3647) 
IKDFEJUMDGJVOF-UHFFFAOYSA-N-P86-P35-P86-601527

>  <HIPPO Pose ID>  (3647) 
79272

>  <smiles>  (3647) 
CC(C)(Cl)C(=O)Nc1cnc2n1CCC2

>  <inchikey>  (3647) 
IKDFEJUMDGJVOF-UHFFFAOYSA-N

>  <distance_score>  (3647) 
1.57388

>  <ref_mols>  (3647) 
Z0719a,Z1597a

>  <ref_pdb>  (3647) 
Z0719a

>  <HIPPO Compound ID>  (3647) 
150421

>  <name>  (3647) 
IKDFEJUMDGJVOF-UHFFFAOYSA-N-P86-P35-P86-601527

>  <inspiration_score>  (3647) 
None

$$$$
ZSYFWVHUPFBGAB-UHFFFAOYSA-N-P35-P35-P86-601527
     RDKit          3D

 15 15  0  0  0  0  0  0  0  0999 V2000
   -8.8523    4.0968  -19.0009 C   0  0  0  0  0  0  0  0  0  0  0  0
   -8.2525    4.4826  -17.7186 C   0  0  0  0  0  0  0  0  0  0  0  0
   -8.7727    3.9533  -16.5636 N   0  0  0  0  0  0  0  0  0  0  0  0
   -8.0128    4.4182  -15.5985 C   0  0  0  0  0  0  0  0  0  0  0  0
   -7.9975    3.9772  -14.1839 C   0  0  0  0  0  0  0  0  0  0  0  0
   -7.1715    5.3890  -16.0843 N   0  0  0  0  0  0  0  0  0  0  0  0
   -6.4895    6.3245  -15.2443 C   0  0  0  0  0  0  0  0  0  0  0  0
   -7.1596    5.2875  -17.4491 C   0  0  0  0  0  0  0  0  0  0  0  0
   -6.2355    5.8025  -18.3207 N   0  0  0  0  0  0  0  0  0  0  0  0
   -4.9553    6.6674  -18.0525 C   0  0  0  0  0  0  0  0  0  0  0  0
   -4.5469    7.1310  -17.0547 O   0  0  0  0  0  0  0  0  0  0  0  0
   -4.1409    6.7689  -19.3815 C   0  0  0  0  0  0  0  0  0  0  0  0
   -4.9310    7.2249  -20.6026 C   0  0  0  0  0  0  0  0  0  0  0  0
   -3.4414    5.4269  -19.5964 C   0  0  0  0  0  0  0  0  0  0  0  0
   -2.8313    8.0117  -19.1476 Cl  0  0  0  0  0  0  0  0  0  0  0  0
  1  2  1  0
  2  3  1  0
  3  4  2  0
  4  5  1  0
  4  6  1  0
  6  7  1  0
  6  8  1  0
  8  9  1  0
  9 10  1  0
 10 11  2  0
 10 12  1  0
 12 13  1  0
 12 14  1  0
 12 15  1  0
  8  2  2  0
M  END
>  <energy_score>  (3648) 
-20.157893

>  <alias>  (3648) 
ZSYFWVHUPFBGAB-UHFFFAOYSA-N-P35-P35-P86-601527

>  <HIPPO Pose ID>  (3648) 
79273

>  <smiles>  (3648) 
Cc1nc(C)n(C)c1NC(=O)C(C)(C)Cl

>  <inchikey>  (3648) 
ZSYFWVHUPFBGAB-UHFFFAOYSA-N

>  <distance_score>  (3648) 
1.424695

>  <ref_mols>  (3648) 
Z0719a,Z1597a

>  <ref_pdb>  (3648) 
Z0719a

>  <HIPPO Compound ID>  (3648) 
150422

>  <name>  (3648) 
ZSYFWVHUPFBGAB-UHFFFAOYSA-N-P35-P35-P86-601527

>  <inspiration_score>  (3648) 
None

$$$$
WOUYRYLNFKLODW-UHFFFAOYSA-N-P35-P35-P86-601527
     RDKit          3D

 15 15  0  0  0  0  0  0  0  0999 V2000
   -5.7717    2.7342  -12.9097 C   0  0  0  0  0  0  0  0  0  0  0  0
   -5.7086    3.6322  -14.1283 C   0  0  0  0  0  0  0  0  0  0  0  0
   -7.1099    3.8299  -14.7394 C   0  0  0  0  0  0  0  0  0  0  0  0
   -7.1901    4.3337  -16.0959 N   0  0  0  0  0  0  0  0  0  0  0  0
   -8.3504    4.6833  -16.7287 C   0  0  0  0  0  0  0  0  0  0  0  0
   -8.1008    5.2915  -17.8691 N   0  0  0  0  0  0  0  0  0  0  0  0
   -6.7513    5.2569  -18.0145 C   0  0  0  0  0  0  0  0  0  0  0  0
   -6.1204    5.8947  -19.0302 N   0  0  0  0  0  0  0  0  0  0  0  0
   -4.5979    6.0853  -19.3168 C   0  0  0  0  0  0  0  0  0  0  0  0
   -3.6592    5.6530  -18.7593 O   0  0  0  0  0  0  0  0  0  0  0  0
   -4.3804    7.1101  -20.4890 C   0  0  0  0  0  0  0  0  0  0  0  0
   -3.9704    8.4115  -19.8076 C   0  0  0  0  0  0  0  0  0  0  0  0
   -5.5046    7.4475  -21.4581 C   0  0  0  0  0  0  0  0  0  0  0  0
   -2.9297    6.5857  -21.4410 Cl  0  0  0  0  0  0  0  0  0  0  0  0
   -6.1653    4.6395  -16.9441 C   0  0  0  0  0  0  0  0  0  0  0  0
  1  2  1  0
  2  3  1  0
  3  4  1  0
  4  5  1  0
  5  6  2  0
  6  7  1  0
  7  8  1  0
  8  9  1  0
  9 10  2  0
  9 11  1  0
 11 12  1  0
 11 13  1  0
 11 14  1  0
  7 15  2  0
 15  4  1  0
M  END
>  <energy_score>  (3649) 
-20.170713

>  <alias>  (3649) 
WOUYRYLNFKLODW-UHFFFAOYSA-N-P35-P35-P86-601527

>  <HIPPO Pose ID>  (3649) 
79279

>  <smiles>  (3649) 
CCCn1cnc(NC(=O)C(C)(C)Cl)c1

>  <inchikey>  (3649) 
WOUYRYLNFKLODW-UHFFFAOYSA-N

>  <distance_score>  (3649) 
1.688045

>  <ref_mols>  (3649) 
Z0719a,Z1597a

>  <ref_pdb>  (3649) 
Z0719a

>  <HIPPO Compound ID>  (3649) 
150425

>  <name>  (3649) 
WOUYRYLNFKLODW-UHFFFAOYSA-N-P35-P35-P86-601527

>  <inspiration_score>  (3649) 
None

$$$$
JPXKHNWSXPHSLC-UHFFFAOYSA-N-P86-P35-P86-601527
     RDKit          3D

 15 15  0  0  0  0  0  0  0  0999 V2000
   -5.0621    7.0582  -22.0447 C   0  0  0  0  0  0  0  0  0  0  0  0
   -4.4443    6.8102  -20.8806 C   0  0  0  0  0  0  0  0  0  0  0  0
   -3.4957    8.1703  -20.0121 Br  0  0  0  0  0  0  0  0  0  0  0  0
   -4.4097    5.4484  -20.2474 C   0  0  0  0  0  0  0  0  0  0  0  0
   -4.8801    5.4150  -18.7837 C   0  0  0  0  0  0  0  0  0  0  0  0
   -4.1425    5.5848  -17.8930 O   0  0  0  0  0  0  0  0  0  0  0  0
   -6.3942    5.0690  -18.7845 N   0  0  0  0  0  0  0  0  0  0  0  0
   -7.2342    4.7860  -17.7563 C   0  0  0  0  0  0  0  0  0  0  0  0
   -8.5278    4.4842  -18.0715 N   0  0  0  0  0  0  0  0  0  0  0  0
   -9.1378    4.2526  -16.9314 C   0  0  0  0  0  0  0  0  0  0  0  0
   -8.2885    4.4260  -15.8894 N   0  0  0  0  0  0  0  0  0  0  0  0
   -8.5944    4.3904  -14.4819 C   0  0  0  0  0  0  0  0  0  0  0  0
   -7.0504    4.7247  -16.3960 C   0  0  0  0  0  0  0  0  0  0  0  0
   -5.9313    4.8743  -15.5485 C   0  0  0  0  0  0  0  0  0  0  0  0
   -5.1293    4.9265  -14.7125 N   0  0  0  0  0  0  0  0  0  0  0  0
  1  2  2  0
  2  3  1  0
  2  4  1  0
  4  5  1  0
  5  6  2  0
  5  7  1  0
  7  8  1  0
  8  9  1  0
  9 10  2  0
 10 11  1  0
 11 12  1  0
 11 13  1  0
 13 14  1  0
 14 15  3  0
 13  8  2  0
M  END
>  <energy_score>  (3650) 
-5.498603

>  <alias>  (3650) 
JPXKHNWSXPHSLC-UHFFFAOYSA-N-P86-P35-P86-601527

>  <HIPPO Pose ID>  (3650) 
79310

>  <smiles>  (3650) 
C=C(Br)CC(=O)Nc1ncn(C)c1C#N

>  <inchikey>  (3650) 
JPXKHNWSXPHSLC-UHFFFAOYSA-N

>  <distance_score>  (3650) 
1.67233

>  <ref_mols>  (3650) 
Z0719a,Z1597a

>  <ref_pdb>  (3650) 
Z0719a

>  <HIPPO Compound ID>  (3650) 
150440

>  <name>  (3650) 
JPXKHNWSXPHSLC-UHFFFAOYSA-N-P86-P35-P86-601527

>  <inspiration_score>  (3650) 
None

$$$$
AMKPCVNIGDTTEM-UHFFFAOYSA-N-P35-P35-P86-601527
     RDKit          3D

 15 15  0  0  0  0  0  0  0  0999 V2000
   -3.2609    8.6790  -20.8352 C   0  0  0  0  0  0  0  0  0  0  0  0
   -4.4657    8.2708  -20.4098 C   0  0  0  0  0  0  0  0  0  0  0  0
   -5.5713    9.4299  -19.4333 Br  0  0  0  0  0  0  0  0  0  0  0  0
   -5.0432    6.9191  -20.6950 C   0  0  0  0  0  0  0  0  0  0  0  0
   -5.0393    6.0681  -19.4206 C   0  0  0  0  0  0  0  0  0  0  0  0
   -4.0436    5.8387  -18.8442 O   0  0  0  0  0  0  0  0  0  0  0  0
   -6.5172    5.7228  -19.0615 N   0  0  0  0  0  0  0  0  0  0  0  0
   -7.0406    5.1505  -17.9541 C   0  0  0  0  0  0  0  0  0  0  0  0
   -6.3656    4.7545  -16.8331 C   0  0  0  0  0  0  0  0  0  0  0  0
   -7.3264    4.3089  -15.9745 N   0  0  0  0  0  0  0  0  0  0  0  0
   -7.1579    3.8166  -14.6230 C   0  0  0  0  0  0  0  0  0  0  0  0
   -5.7193    3.6320  -14.1031 C   0  0  0  0  0  0  0  0  0  0  0  0
   -5.6883    2.6972  -12.9114 C   0  0  0  0  0  0  0  0  0  0  0  0
   -8.5295    4.4421  -16.6103 C   0  0  0  0  0  0  0  0  0  0  0  0
   -8.3776    4.9607  -17.8087 N   0  0  0  0  0  0  0  0  0  0  0  0
  1  2  2  0
  2  3  1  0
  2  4  1  0
  4  5  1  0
  5  6  2  0
  5  7  1  0
  7  8  1  0
  8  9  2  0
  9 10  1  0
 10 11  1  0
 11 12  1  0
 12 13  1  0
 10 14  1  0
 14 15  2  0
 15  8  1  0
M  END
>  <energy_score>  (3651) 
-35.861453

>  <alias>  (3651) 
AMKPCVNIGDTTEM-UHFFFAOYSA-N-P35-P35-P86-601527

>  <HIPPO Pose ID>  (3651) 
79311

>  <smiles>  (3651) 
C=C(Br)CC(=O)Nc1cn(CCC)cn1

>  <inchikey>  (3651) 
AMKPCVNIGDTTEM-UHFFFAOYSA-N

>  <distance_score>  (3651) 
1.769694

>  <ref_mols>  (3651) 
Z0719a,Z1597a

>  <ref_pdb>  (3651) 
Z0719a

>  <HIPPO Compound ID>  (3651) 
150441

>  <name>  (3651) 
AMKPCVNIGDTTEM-UHFFFAOYSA-N-P35-P35-P86-601527

>  <inspiration_score>  (3651) 
None

$$$$
JZORHYWNMYLNLX-UHFFFAOYSA-N-P35-P35-P86-601527
     RDKit          3D

 15 15  0  0  0  0  0  0  0  0999 V2000
   -3.9516    7.4506  -22.1560 C   0  0  0  0  0  0  0  0  0  0  0  0
   -4.2819    7.5627  -20.8612 C   0  0  0  0  0  0  0  0  0  0  0  0
   -3.3198    8.7271  -19.7444 Br  0  0  0  0  0  0  0  0  0  0  0  0
   -5.4915    6.9162  -20.2368 C   0  0  0  0  0  0  0  0  0  0  0  0
   -5.1629    5.9520  -19.0825 C   0  0  0  0  0  0  0  0  0  0  0  0
   -4.0804    5.5929  -18.8126 O   0  0  0  0  0  0  0  0  0  0  0  0
   -6.5246    5.6920  -18.3619 N   0  0  0  0  0  0  0  0  0  0  0  0
   -6.7946    5.0619  -17.1944 C   0  0  0  0  0  0  0  0  0  0  0  0
   -5.9062    4.5141  -16.3086 C   0  0  0  0  0  0  0  0  0  0  0  0
   -6.6510    4.1331  -15.2215 N   0  0  0  0  0  0  0  0  0  0  0  0
   -6.1753    3.6953  -13.9053 C   0  0  0  0  0  0  0  0  0  0  0  0
   -4.6598    3.4747  -13.7867 C   0  0  0  0  0  0  0  0  0  0  0  0
   -6.8925    2.4547  -13.3870 C   0  0  0  0  0  0  0  0  0  0  0  0
   -7.9584    4.4228  -15.5367 C   0  0  0  0  0  0  0  0  0  0  0  0
   -8.0622    5.0110  -16.7093 N   0  0  0  0  0  0  0  0  0  0  0  0
  1  2  2  0
  2  3  1  0
  2  4  1  0
  4  5  1  0
  5  6  2  0
  5  7  1  0
  7  8  1  0
  8  9  2  0
  9 10  1  0
 10 11  1  0
 11 12  1  0
 11 13  1  0
 10 14  1  0
 14 15  2  0
 15  8  1  0
M  END
>  <energy_score>  (3652) 
-22.478894

>  <alias>  (3652) 
JZORHYWNMYLNLX-UHFFFAOYSA-N-P35-P35-P86-601527

>  <HIPPO Pose ID>  (3652) 
79315

>  <smiles>  (3652) 
C=C(Br)CC(=O)Nc1cn(C(C)C)cn1

>  <inchikey>  (3652) 
JZORHYWNMYLNLX-UHFFFAOYSA-N

>  <distance_score>  (3652) 
1.589673

>  <ref_mols>  (3652) 
Z0719a,Z1597a

>  <ref_pdb>  (3652) 
Z0719a

>  <HIPPO Compound ID>  (3652) 
150443

>  <name>  (3652) 
JZORHYWNMYLNLX-UHFFFAOYSA-N-P35-P35-P86-601527

>  <inspiration_score>  (3652) 
None

$$$$
OXHLVEAIRIDWFX-UHFFFAOYSA-N-P86-P35-P86-601527
     RDKit          3D

 15 16  0  0  0  0  0  0  0  0999 V2000
   -2.3568    6.8975  -20.9035 C   0  0  0  0  0  0  0  0  0  0  0  0
   -3.6904    6.9584  -20.7772 C   0  0  0  0  0  0  0  0  0  0  0  0
   -4.5835    8.6038  -20.7584 Br  0  0  0  0  0  0  0  0  0  0  0  0
   -4.5682    5.7473  -20.6770 C   0  0  0  0  0  0  0  0  0  0  0  0
   -5.0336    5.4982  -19.2355 C   0  0  0  0  0  0  0  0  0  0  0  0
   -4.3281    5.6199  -18.3092 O   0  0  0  0  0  0  0  0  0  0  0  0
   -6.5026    4.9857  -19.3253 N   0  0  0  0  0  0  0  0  0  0  0  0
   -7.3754    4.6323  -18.3450 C   0  0  0  0  0  0  0  0  0  0  0  0
   -8.6507    4.1062  -18.4657 C   0  0  0  0  0  0  0  0  0  0  0  0
   -9.2438    3.9031  -17.2366 N   0  0  0  0  0  0  0  0  0  0  0  0
   -8.3429    4.3272  -16.3893 C   0  0  0  0  0  0  0  0  0  0  0  0
   -7.2025    4.7236  -17.0144 N   0  0  0  0  0  0  0  0  0  0  0  0
   -6.2171    5.2784  -16.1209 C   0  0  0  0  0  0  0  0  0  0  0  0
   -6.8241    5.0346  -14.7362 C   0  0  0  0  0  0  0  0  0  0  0  0
   -8.2812    4.5695  -14.9423 C   0  0  0  0  0  0  0  0  0  0  0  0
  1  2  2  0
  2  3  1  0
  2  4  1  0
  4  5  1  0
  5  6  2  0
  5  7  1  0
  7  8  1  0
  8  9  2  0
  9 10  1  0
 10 11  2  0
 11 12  1  0
 12 13  1  0
 13 14  1  0
 14 15  1  0
 12  8  1  0
 15 11  1  0
M  END
>  <energy_score>  (3653) 
-29.44097

>  <alias>  (3653) 
OXHLVEAIRIDWFX-UHFFFAOYSA-N-P86-P35-P86-601527

>  <HIPPO Pose ID>  (3653) 
79322

>  <smiles>  (3653) 
C=C(Br)CC(=O)Nc1cnc2n1CCC2

>  <inchikey>  (3653) 
OXHLVEAIRIDWFX-UHFFFAOYSA-N

>  <distance_score>  (3653) 
1.286426

>  <ref_mols>  (3653) 
Z0719a,Z1597a

>  <ref_pdb>  (3653) 
Z0719a

>  <HIPPO Compound ID>  (3653) 
150446

>  <name>  (3653) 
OXHLVEAIRIDWFX-UHFFFAOYSA-N-P86-P35-P86-601527

>  <inspiration_score>  (3653) 
None

$$$$
AUOKUSJUDJFPFS-UHFFFAOYSA-N-P86-P35-P86-601527
     RDKit          3D

 15 15  0  0  0  0  0  0  0  0999 V2000
   -6.0523    3.4349  -12.4499 C   0  0  0  0  0  0  0  0  0  0  0  0
   -6.0618    4.2370  -13.7355 C   0  0  0  0  0  0  0  0  0  0  0  0
   -7.4607    4.2921  -14.3860 C   0  0  0  0  0  0  0  0  0  0  0  0
   -7.5215    4.5134  -15.8175 N   0  0  0  0  0  0  0  0  0  0  0  0
   -8.6108    4.2836  -16.6110 C   0  0  0  0  0  0  0  0  0  0  0  0
   -8.3446    4.5415  -17.8750 N   0  0  0  0  0  0  0  0  0  0  0  0
   -7.0410    4.9181  -17.8922 C   0  0  0  0  0  0  0  0  0  0  0  0
   -6.3672    5.1657  -19.0360 N   0  0  0  0  0  0  0  0  0  0  0  0
   -4.8626    5.4796  -19.2736 C   0  0  0  0  0  0  0  0  0  0  0  0
   -3.9935    5.6475  -18.5090 O   0  0  0  0  0  0  0  0  0  0  0  0
   -4.6235    5.5147  -20.7716 C   0  0  0  0  0  0  0  0  0  0  0  0
   -4.8177    6.9124  -21.3333 C   0  0  2  0  0  0  0  0  0  0  0  0
   -4.8950    6.9009  -22.8553 C   0  0  0  0  0  0  0  0  0  0  0  0
   -3.4905    8.0128  -20.8467 Cl  0  0  0  0  0  0  0  0  0  0  0  0
   -6.5255    4.9660  -16.6281 C   0  0  0  0  0  0  0  0  0  0  0  0
  1  2  1  0
  2  3  1  0
  3  4  1  0
  4  5  1  0
  5  6  2  0
  6  7  1  0
  7  8  1  0
  8  9  1  0
  9 10  2  0
  9 11  1  0
 11 12  1  0
 12 13  1  6
 12 14  1  0
  7 15  2  0
 15  4  1  0
M  END
>  <energy_score>  (3654) 
-24.224033

>  <alias>  (3654) 
AUOKUSJUDJFPFS-UHFFFAOYSA-N-P86-P35-P86-601527

>  <HIPPO Pose ID>  (3654) 
79330

>  <smiles>  (3654) 
CCCn1cnc(NC(=O)CC(C)Cl)c1

>  <inchikey>  (3654) 
AUOKUSJUDJFPFS-UHFFFAOYSA-N

>  <distance_score>  (3654) 
1.606134

>  <ref_mols>  (3654) 
Z0719a,Z1597a

>  <ref_pdb>  (3654) 
Z0719a

>  <HIPPO Compound ID>  (3654) 
150450

>  <name>  (3654) 
AUOKUSJUDJFPFS-UHFFFAOYSA-N-P86-P35-P86-601527

>  <inspiration_score>  (3654) 
None

$$$$
KFOQSXRCAVSIQG-UHFFFAOYSA-N-P35-P35-P86-601527
     RDKit          3D

 15 15  0  0  0  0  0  0  0  0999 V2000
   -5.9492    2.4863  -13.0674 C   0  0  0  0  0  0  0  0  0  0  0  0
   -6.0388    3.6258  -14.0558 C   0  0  0  0  0  0  0  0  0  0  0  0
   -7.4611    3.7804  -14.6330 C   0  0  0  0  0  0  0  0  0  0  0  0
   -7.5050    4.7289  -15.7309 N   0  0  0  0  0  0  0  0  0  0  0  0
   -7.5417    6.0789  -15.5534 C   0  0  0  0  0  0  0  0  0  0  0  0
   -7.0053    6.7050  -16.5784 N   0  0  0  0  0  0  0  0  0  0  0  0
   -6.7030    5.7277  -17.4685 C   0  0  0  0  0  0  0  0  0  0  0  0
   -5.8887    5.8941  -18.5363 N   0  0  0  0  0  0  0  0  0  0  0  0
   -5.2246    7.1771  -19.1087 C   0  0  0  0  0  0  0  0  0  0  0  0
   -5.3413    8.2986  -18.7915 O   0  0  0  0  0  0  0  0  0  0  0  0
   -4.2188    6.7362  -20.1826 C   0  0  2  0  0  0  0  0  0  0  0  0
   -2.9092    7.1792  -19.7796 O   0  0  0  0  0  0  0  0  0  0  0  0
   -4.5772    7.3457  -21.5197 C   0  0  0  0  0  0  0  0  0  0  0  0
   -3.7271    6.8479  -22.4684 F   0  0  0  0  0  0  0  0  0  0  0  0
   -7.1545    4.5110  -17.0311 C   0  0  0  0  0  0  0  0  0  0  0  0
  1  2  1  0
  2  3  1  0
  3  4  1  0
  4  5  1  0
  5  6  2  0
  6  7  1  0
  7  8  1  0
  8  9  1  0
  9 10  2  0
  9 11  1  0
 11 12  1  1
 11 13  1  0
 13 14  1  0
  7 15  2  0
 15  4  1  0
M  END
>  <energy_score>  (3655) 
-15.490985

>  <alias>  (3655) 
KFOQSXRCAVSIQG-UHFFFAOYSA-N-P35-P35-P86-601527

>  <HIPPO Pose ID>  (3655) 
79339

>  <smiles>  (3655) 
CCCn1cnc(NC(=O)C(O)CF)c1

>  <inchikey>  (3655) 
KFOQSXRCAVSIQG-UHFFFAOYSA-N

>  <distance_score>  (3655) 
1.951461

>  <ref_mols>  (3655) 
Z0719a,Z1597a

>  <ref_pdb>  (3655) 
Z0719a

>  <HIPPO Compound ID>  (3655) 
150455

>  <name>  (3655) 
KFOQSXRCAVSIQG-UHFFFAOYSA-N-P35-P35-P86-601527

>  <inspiration_score>  (3655) 
None

$$$$
GXDZLZXLAHPRNN-UHFFFAOYSA-M-P35-P35-P86-601527
     RDKit          3D

 15 15  0  0  0  0  0  0  0  0999 V2000
   -1.8651    5.4888  -19.5775 C   0  0  0  0  0  0  0  0  0  0  0  0
   -3.1991    6.2047  -19.7405 C   0  0  0  0  0  0  0  0  0  0  0  0
   -4.3732    5.3621  -19.2600 C   0  0  0  0  0  0  0  0  0  0  0  0
   -4.5351    5.2485  -17.7393 C   0  0  0  0  0  0  0  0  0  0  0  0
   -3.7438    5.5666  -16.9419 O   0  0  0  0  0  0  0  0  0  0  0  0
   -5.9809    4.7077  -17.5631 N   0  0  0  0  0  0  0  0  0  0  0  0
   -6.7303    4.5490  -16.4471 C   0  0  0  0  0  0  0  0  0  0  0  0
   -8.0530    4.8284  -16.7242 N   0  0  0  0  0  0  0  0  0  0  0  0
   -8.6987    4.5988  -15.6156 C   0  0  0  0  0  0  0  0  0  0  0  0
   -7.8532    4.2499  -14.6197 N   0  0  0  0  0  0  0  0  0  0  0  0
   -8.1988    4.0886  -13.2283 C   0  0  0  0  0  0  0  0  0  0  0  0
   -6.5950    4.0965  -15.1525 C   0  0  0  0  0  0  0  0  0  0  0  0
   -5.4976    3.3085  -14.3637 C   0  0  0  0  0  0  0  0  0  0  0  0
   -5.9489    2.4401  -13.5460 O   0  0  0  0  0  0  0  0  0  0  0  0
   -4.2747    3.5449  -14.5690 O   0  0  0  0  0  0  0  0  0  0  0  0
  1  2  1  0
  2  3  1  0
  3  4  1  0
  4  5  2  0
  4  6  1  0
  6  7  1  0
  7  8  1  0
  8  9  2  0
  9 10  1  0
 10 11  1  0
 10 12  1  0
 12 13  1  0
 13 14  2  0
 13 15  1  0
 12  7  2  0
M  CHG  1  15  -1
M  END
>  <energy_score>  (3656) 
-12.149638

>  <alias>  (3656) 
GXDZLZXLAHPRNN-UHFFFAOYSA-M-P35-P35-P86-601527

>  <HIPPO Pose ID>  (3656) 
79343

>  <smiles>  (3656) 
CCCC(=O)Nc1ncn(C)c1C(=O)[O-]

>  <inchikey>  (3656) 
GXDZLZXLAHPRNN-UHFFFAOYSA-M

>  <distance_score>  (3656) 
1.715345

>  <ref_mols>  (3656) 
Z0719a,Z1597a

>  <ref_pdb>  (3656) 
Z0719a

>  <HIPPO Compound ID>  (3656) 
150457

>  <name>  (3656) 
GXDZLZXLAHPRNN-UHFFFAOYSA-M-P35-P35-P86-601527

>  <inspiration_score>  (3656) 
None

$$$$
LZXIRFGDDSLACM-UHFFFAOYSA-N-P86-P35-P86-601527
     RDKit          3D

 15 15  0  0  0  0  0  0  0  0999 V2000
   -3.5242    7.0662  -21.6363 C   0  0  0  0  0  0  0  0  0  0  0  0
   -4.3978    6.8762  -20.4075 C   0  0  0  0  0  0  0  0  0  0  0  0
   -3.8636    5.7732  -19.4989 C   0  0  0  0  0  0  0  0  0  0  0  0
   -4.5490    5.7261  -18.1322 C   0  0  0  0  0  0  0  0  0  0  0  0
   -3.9807    5.9496  -17.1346 O   0  0  0  0  0  0  0  0  0  0  0  0
   -6.0227    5.2883  -18.3772 N   0  0  0  0  0  0  0  0  0  0  0  0
   -7.0157    4.9619  -17.4864 C   0  0  0  0  0  0  0  0  0  0  0  0
   -8.1943    4.3144  -17.8022 C   0  0  0  0  0  0  0  0  0  0  0  0
   -8.6644    3.8441  -19.1034 C   0  0  0  0  0  0  0  0  0  0  0  0
   -8.9486    4.0530  -16.6931 N   0  0  0  0  0  0  0  0  0  0  0  0
   -8.2590    4.5317  -15.6852 C   0  0  0  0  0  0  0  0  0  0  0  0
   -8.6310    4.4431  -14.2509 C   0  0  0  0  0  0  0  0  0  0  0  0
   -7.1049    5.1487  -16.1316 N   0  0  0  0  0  0  0  0  0  0  0  0
   -6.3010    5.9644  -15.2656 C   0  0  0  0  0  0  0  0  0  0  0  0
   -5.4264    5.1615  -14.3303 C   0  0  0  0  0  0  0  0  0  0  0  0
  1  2  1  0
  2  3  1  0
  3  4  1  0
  4  5  2  0
  4  6  1  0
  6  7  1  0
  7  8  2  0
  8  9  1  0
  8 10  1  0
 10 11  2  0
 11 12  1  0
 11 13  1  0
 13 14  1  0
 14 15  1  0
 13  7  1  0
M  END
>  <energy_score>  (3657) 
-14.866275

>  <alias>  (3657) 
LZXIRFGDDSLACM-UHFFFAOYSA-N-P86-P35-P86-601527

>  <HIPPO Pose ID>  (3657) 
79346

>  <smiles>  (3657) 
CCCC(=O)Nc1c(C)nc(C)n1CC

>  <inchikey>  (3657) 
LZXIRFGDDSLACM-UHFFFAOYSA-N

>  <distance_score>  (3657) 
1.413919

>  <ref_mols>  (3657) 
Z0719a,Z1597a

>  <ref_pdb>  (3657) 
Z0719a

>  <HIPPO Compound ID>  (3657) 
150458

>  <name>  (3657) 
LZXIRFGDDSLACM-UHFFFAOYSA-N-P86-P35-P86-601527

>  <inspiration_score>  (3657) 
None

$$$$
JVJPFISTWULYKF-UHFFFAOYSA-N-P35-P35-P86-601527
     RDKit          3D

 15 15  0  0  0  0  0  0  0  0999 V2000
   -5.1943    8.6724  -19.2277 C   0  0  0  0  0  0  0  0  0  0  0  0
   -4.3993    7.8021  -20.1922 C   0  0  1  0  0  0  0  0  0  0  0  0
   -2.6499    8.1194  -19.9851 Cl  0  0  0  0  0  0  0  0  0  0  0  0
   -4.7199    6.3255  -20.0816 C   0  0  0  0  0  0  0  0  0  0  0  0
   -4.6177    5.7344  -18.6896 C   0  0  0  0  0  0  0  0  0  0  0  0
   -3.5829    5.4983  -18.1963 O   0  0  0  0  0  0  0  0  0  0  0  0
   -6.0607    5.5818  -18.1276 N   0  0  0  0  0  0  0  0  0  0  0  0
   -6.4968    5.0557  -16.9624 C   0  0  0  0  0  0  0  0  0  0  0  0
   -5.7123    4.5375  -15.9720 C   0  0  0  0  0  0  0  0  0  0  0  0
   -6.5714    4.1335  -14.9897 N   0  0  0  0  0  0  0  0  0  0  0  0
   -6.2147    3.6295  -13.6615 C   0  0  0  0  0  0  0  0  0  0  0  0
   -7.0940    2.4702  -13.2147 C   0  0  0  0  0  0  0  0  0  0  0  0
   -4.7404    3.2305  -13.4823 C   0  0  0  0  0  0  0  0  0  0  0  0
   -7.8366    4.4222  -15.4477 C   0  0  0  0  0  0  0  0  0  0  0  0
   -7.8114    5.0032  -16.6312 N   0  0  0  0  0  0  0  0  0  0  0  0
  2  1  1  1
  2  3  1  0
  2  4  1  0
  4  5  1  0
  5  6  2  0
  5  7  1  0
  7  8  1  0
  8  9  2  0
  9 10  1  0
 10 11  1  0
 11 12  1  0
 11 13  1  0
 10 14  1  0
 14 15  2  0
 15  8  1  0
M  END
>  <energy_score>  (3658) 
-17.66136

>  <alias>  (3658) 
JVJPFISTWULYKF-UHFFFAOYSA-N-P35-P35-P86-601527

>  <HIPPO Pose ID>  (3658) 
79351

>  <smiles>  (3658) 
CC(Cl)CC(=O)Nc1cn(C(C)C)cn1

>  <inchikey>  (3658) 
JVJPFISTWULYKF-UHFFFAOYSA-N

>  <distance_score>  (3658) 
1.896522

>  <ref_mols>  (3658) 
Z0719a,Z1597a

>  <ref_pdb>  (3658) 
Z0719a

>  <HIPPO Compound ID>  (3658) 
150461

>  <name>  (3658) 
JVJPFISTWULYKF-UHFFFAOYSA-N-P35-P35-P86-601527

>  <inspiration_score>  (3658) 
None

$$$$
YAVXZEXUNAYEAG-UHFFFAOYSA-N-P86-P35-P86-601527
     RDKit          3D

 15 15  0  0  0  0  0  0  0  0999 V2000
   -3.5663    7.6914  -20.2829 C   0  0  0  0  0  0  0  0  0  0  0  0
   -4.7241    6.8691  -20.8292 C   0  0  0  0  0  0  0  0  0  0  0  0
   -4.7248    5.4381  -20.3166 C   0  0  0  0  0  0  0  0  0  0  0  0
   -5.1377    5.3367  -18.8491 C   0  0  0  0  0  0  0  0  0  0  0  0
   -4.3576    5.4250  -17.9807 O   0  0  0  0  0  0  0  0  0  0  0  0
   -6.6608    5.0105  -18.8084 N   0  0  0  0  0  0  0  0  0  0  0  0
   -7.4654    4.6536  -17.7597 C   0  0  0  0  0  0  0  0  0  0  0  0
   -8.6854    4.0164  -17.8071 C   0  0  0  0  0  0  0  0  0  0  0  0
   -9.0727    3.6049  -16.5561 N   0  0  0  0  0  0  0  0  0  0  0  0
   -8.1355    4.0241  -15.7275 C   0  0  0  0  0  0  0  0  0  0  0  0
   -8.0307    3.7736  -14.2508 C   0  0  0  0  0  0  0  0  0  0  0  0
   -7.2089    4.7836  -16.4161 N   0  0  0  0  0  0  0  0  0  0  0  0
   -6.2305    5.6316  -15.7695 C   0  0  0  0  0  0  0  0  0  0  0  0
   -6.7492    6.2539  -14.5396 C   0  0  0  0  0  0  0  0  0  0  0  0
   -7.2185    6.6731  -13.5624 N   0  0  0  0  0  0  0  0  0  0  0  0
  1  2  1  0
  2  3  1  0
  3  4  1  0
  4  5  2  0
  4  6  1  0
  6  7  1  0
  7  8  2  0
  8  9  1  0
  9 10  2  0
 10 11  1  0
 10 12  1  0
 12 13  1  0
 13 14  1  0
 14 15  3  0
 12  7  1  0
M  END
>  <energy_score>  (3659) 
-13.917261

>  <alias>  (3659) 
YAVXZEXUNAYEAG-UHFFFAOYSA-N-P86-P35-P86-601527

>  <HIPPO Pose ID>  (3659) 
79366

>  <smiles>  (3659) 
CCCC(=O)Nc1cnc(C)n1CC#N

>  <inchikey>  (3659) 
YAVXZEXUNAYEAG-UHFFFAOYSA-N

>  <distance_score>  (3659) 
1.874631

>  <ref_mols>  (3659) 
Z0719a,Z1597a

>  <ref_pdb>  (3659) 
Z0719a

>  <HIPPO Compound ID>  (3659) 
150468

>  <name>  (3659) 
YAVXZEXUNAYEAG-UHFFFAOYSA-N-P86-P35-P86-601527

>  <inspiration_score>  (3659) 
None

$$$$
HUTJBOBOBWOZBG-UHFFFAOYSA-N-P35-P35-P86-601527
     RDKit          3D

 15 16  0  0  0  0  0  0  0  0999 V2000
   -4.4758    7.4803  -21.9043 C   0  0  0  0  0  0  0  0  0  0  0  0
   -3.4750    8.0256  -20.9051 C   0  0  0  0  0  0  0  0  0  0  0  0
   -2.6402    6.9718  -20.1810 C   0  0  0  0  0  0  0  0  0  0  0  0
   -3.4643    5.9607  -19.3977 C   0  0  0  0  0  0  0  0  0  0  0  0
   -3.5044    4.8275  -19.6830 O   0  0  0  0  0  0  0  0  0  0  0  0
   -4.2414    6.7534  -18.3112 N   0  0  0  0  0  0  0  0  0  0  0  0
   -5.0974    6.3257  -17.3568 C   0  0  0  0  0  0  0  0  0  0  0  0
   -5.7408    5.1217  -17.2534 C   0  0  0  0  0  0  0  0  0  0  0  0
   -6.5947    5.2916  -16.1982 N   0  0  0  0  0  0  0  0  0  0  0  0
   -7.6955    4.4201  -15.8438 C   0  0  0  0  0  0  0  0  0  0  0  0
   -8.9040    4.7896  -16.6465 C   0  0  0  0  0  0  0  0  0  0  0  0
   -8.8671    4.8299  -18.1684 C   0  0  0  0  0  0  0  0  0  0  0  0
   -9.6735    3.7982  -17.4699 C   0  0  0  0  0  0  0  0  0  0  0  0
   -6.3718    6.5267  -15.6665 C   0  0  0  0  0  0  0  0  0  0  0  0
   -5.4858    7.1890  -16.3727 N   0  0  0  0  0  0  0  0  0  0  0  0
  1  2  1  0
  2  3  1  0
  3  4  1  0
  4  5  2  0
  4  6  1  0
  6  7  1  0
  7  8  2  0
  8  9  1  0
  9 10  1  0
 10 11  1  0
 11 12  1  0
 12 13  1  0
  9 14  1  0
 14 15  2  0
 15  7  1  0
 13 11  1  0
M  END
>  <energy_score>  (3660) 
-17.447359

>  <alias>  (3660) 
HUTJBOBOBWOZBG-UHFFFAOYSA-N-P35-P35-P86-601527

>  <HIPPO Pose ID>  (3660) 
79367

>  <smiles>  (3660) 
CCCC(=O)Nc1cn(CC2CC2)cn1

>  <inchikey>  (3660) 
HUTJBOBOBWOZBG-UHFFFAOYSA-N

>  <distance_score>  (3660) 
1.978379

>  <ref_mols>  (3660) 
Z0719a,Z1597a

>  <ref_pdb>  (3660) 
Z0719a

>  <HIPPO Compound ID>  (3660) 
150469

>  <name>  (3660) 
HUTJBOBOBWOZBG-UHFFFAOYSA-N-P35-P35-P86-601527

>  <inspiration_score>  (3660) 
None

$$$$
RRCZXEBPVPPVNR-UHFFFAOYSA-N-P86-P35-P86-601527
     RDKit          3D

 15 16  0  0  0  0  0  0  0  0999 V2000
   -3.3961    7.4098  -23.7943 C   0  0  0  0  0  0  0  0  0  0  0  0
   -3.2930    7.0454  -22.3214 C   0  0  0  0  0  0  0  0  0  0  0  0
   -4.6512    6.6992  -21.7419 C   0  0  0  0  0  0  0  0  0  0  0  0
   -4.5395    6.4034  -20.2556 C   0  0  0  0  0  0  0  0  0  0  0  0
   -3.6198    6.6858  -19.5951 O   0  0  0  0  0  0  0  0  0  0  0  0
   -5.9022    5.7800  -19.8650 N   0  0  0  0  0  0  0  0  0  0  0  0
   -6.3459    5.3209  -18.6796 C   0  0  0  0  0  0  0  0  0  0  0  0
   -7.5390    4.6707  -18.4850 C   0  0  0  0  0  0  0  0  0  0  0  0
   -7.6491    4.5648  -17.1346 N   0  0  0  0  0  0  0  0  0  0  0  0
   -8.7530    4.1526  -16.4660 N   0  0  0  0  0  0  0  0  0  0  0  0
   -8.6093    4.2754  -15.1874 C   0  0  0  0  0  0  0  0  0  0  0  0
   -7.4042    4.7339  -14.4639 C   0  0  0  0  0  0  0  0  0  0  0  0
   -6.3658    5.1334  -15.1980 C   0  0  0  0  0  0  0  0  0  0  0  0
   -6.4856    5.0985  -16.5976 C   0  0  0  0  0  0  0  0  0  0  0  0
   -5.6779    5.5513  -17.5240 N   0  0  0  0  0  0  0  0  0  0  0  0
  1  2  1  0
  2  3  1  0
  3  4  1  0
  4  5  2  0
  4  6  1  0
  6  7  1  0
  7  8  2  0
  8  9  1  0
  9 10  1  0
 10 11  2  0
 11 12  1  0
 12 13  2  0
 13 14  1  0
 14 15  2  0
 15  7  1  0
 14  9  1  0
M  END
>  <energy_score>  (3661) 
-35.888204

>  <alias>  (3661) 
RRCZXEBPVPPVNR-UHFFFAOYSA-N-P86-P35-P86-601527

>  <HIPPO Pose ID>  (3661) 
79378

>  <smiles>  (3661) 
CCCC(=O)Nc1cn2ncccc2n1

>  <inchikey>  (3661) 
RRCZXEBPVPPVNR-UHFFFAOYSA-N

>  <distance_score>  (3661) 
1.642309

>  <ref_mols>  (3661) 
Z0719a,Z1597a

>  <ref_pdb>  (3661) 
Z0719a

>  <HIPPO Compound ID>  (3661) 
150474

>  <name>  (3661) 
RRCZXEBPVPPVNR-UHFFFAOYSA-N-P86-P35-P86-601527

>  <inspiration_score>  (3661) 
None

$$$$
FUBGHVKJIREQLU-UHFFFAOYSA-N-P86-P35-P86-601527
     RDKit          3D

 15 16  0  0  0  0  0  0  0  0999 V2000
   -5.0159    7.0879  -22.4561 C   0  0  0  0  0  0  0  0  0  0  0  0
   -3.5527    7.2468  -22.0811 C   0  0  0  0  0  0  0  0  0  0  0  0
   -3.0092    6.2013  -21.1198 C   0  0  0  0  0  0  0  0  0  0  0  0
   -3.5708    6.3692  -19.7224 C   0  0  0  0  0  0  0  0  0  0  0  0
   -3.0510    7.0279  -18.9090 O   0  0  0  0  0  0  0  0  0  0  0  0
   -4.8930    5.5547  -19.6649 N   0  0  0  0  0  0  0  0  0  0  0  0
   -5.7378    5.3242  -18.6344 C   0  0  0  0  0  0  0  0  0  0  0  0
   -6.9165    4.6249  -18.6954 C   0  0  0  0  0  0  0  0  0  0  0  0
   -7.3852    4.6354  -17.4148 N   0  0  0  0  0  0  0  0  0  0  0  0
   -8.5552    4.1237  -16.8937 C   0  0  0  0  0  0  0  0  0  0  0  0
   -8.7733    4.2652  -15.5844 C   0  0  0  0  0  0  0  0  0  0  0  0
   -7.7046    4.9357  -14.8093 C   0  0  0  0  0  0  0  0  0  0  0  0
   -6.6200    5.4538  -15.2851 N   0  0  0  0  0  0  0  0  0  0  0  0
   -6.4493    5.3151  -16.6312 C   0  0  0  0  0  0  0  0  0  0  0  0
   -5.4725    5.7714  -17.3812 N   0  0  0  0  0  0  0  0  0  0  0  0
  1  2  1  0
  2  3  1  0
  3  4  1  0
  4  5  2  0
  4  6  1  0
  6  7  1  0
  7  8  2  0
  8  9  1  0
  9 10  1  0
 10 11  2  0
 11 12  1  0
 12 13  2  0
 13 14  1  0
 14 15  2  0
 15  7  1  0
 14  9  1  0
M  END
>  <energy_score>  (3662) 
-17.766776

>  <alias>  (3662) 
FUBGHVKJIREQLU-UHFFFAOYSA-N-P86-P35-P86-601527

>  <HIPPO Pose ID>  (3662) 
79380

>  <smiles>  (3662) 
CCCC(=O)Nc1cn2cccnc2n1

>  <inchikey>  (3662) 
FUBGHVKJIREQLU-UHFFFAOYSA-N

>  <distance_score>  (3662) 
1.688705

>  <ref_mols>  (3662) 
Z0719a,Z1597a

>  <ref_pdb>  (3662) 
Z0719a

>  <HIPPO Compound ID>  (3662) 
150475

>  <name>  (3662) 
FUBGHVKJIREQLU-UHFFFAOYSA-N-P86-P35-P86-601527

>  <inspiration_score>  (3662) 
None

$$$$
VGMSWPFDQWXSBU-UHFFFAOYSA-N-P35-P35-P86-601527
     RDKit          3D

 15 15  0  0  0  0  0  0  0  0999 V2000
   -3.6999    7.7821  -21.9636 C   0  0  0  0  0  0  0  0  0  0  0  0
   -4.5606    7.3972  -20.7715 C   0  0  0  0  0  0  0  0  0  0  0  0
   -3.8386    6.4388  -19.8341 C   0  0  0  0  0  0  0  0  0  0  0  0
   -4.5866    6.2079  -18.5270 C   0  0  0  0  0  0  0  0  0  0  0  0
   -4.1351    6.5108  -17.4925 O   0  0  0  0  0  0  0  0  0  0  0  0
   -5.9014    5.4510  -18.8700 N   0  0  0  0  0  0  0  0  0  0  0  0
   -6.9146    5.0222  -18.0603 C   0  0  0  0  0  0  0  0  0  0  0  0
   -8.1639    4.8210  -18.5866 N   0  0  0  0  0  0  0  0  0  0  0  0
   -9.0099    4.4874  -17.5718 C   0  0  0  0  0  0  0  0  0  0  0  0
   -8.3682    4.3995  -16.4352 N   0  0  0  0  0  0  0  0  0  0  0  0
   -7.0332    4.7105  -16.7117 C   0  0  0  0  0  0  0  0  0  0  0  0
   -5.9514    4.5664  -15.7224 C   0  0  0  0  0  0  0  0  0  0  0  0
   -4.8134    4.2173  -16.0348 O   0  0  0  0  0  0  0  0  0  0  0  0
   -6.2385    4.7682  -14.3936 O   0  0  0  0  0  0  0  0  0  0  0  0
   -7.5050    5.2719  -13.9529 C   0  0  0  0  0  0  0  0  0  0  0  0
  1  2  1  0
  2  3  1  0
  3  4  1  0
  4  5  2  0
  4  6  1  0
  6  7  1  0
  7  8  1  0
  8  9  1  0
  9 10  2  0
 10 11  1  0
 11 12  1  0
 12 13  2  0
 12 14  1  0
 14 15  1  0
 11  7  2  0
M  END
>  <energy_score>  (3663) 
-11.623671

>  <alias>  (3663) 
VGMSWPFDQWXSBU-UHFFFAOYSA-N-P35-P35-P86-601527

>  <HIPPO Pose ID>  (3663) 
79383

>  <smiles>  (3663) 
CCCC(=O)Nc1[nH]cnc1C(=O)OC

>  <inchikey>  (3663) 
VGMSWPFDQWXSBU-UHFFFAOYSA-N

>  <distance_score>  (3663) 
1.627551

>  <ref_mols>  (3663) 
Z0719a,Z1597a

>  <ref_pdb>  (3663) 
Z0719a

>  <HIPPO Compound ID>  (3663) 
150477

>  <name>  (3663) 
VGMSWPFDQWXSBU-UHFFFAOYSA-N-P35-P35-P86-601527

>  <inspiration_score>  (3663) 
None

$$$$
HCQCJLPHLAMEQD-UHFFFAOYSA-N-P35-P35-P86-601527
     RDKit          3D

 15 15  0  0  0  0  0  0  0  0999 V2000
   -5.1945    7.4527  -20.4086 C   0  0  0  0  0  0  0  0  0  0  0  0
   -4.1058    6.7108  -20.1489 C   0  0  0  0  0  0  0  0  0  0  0  0
   -2.3065    7.2100  -21.1031 I   0  0  0  0  0  0  0  0  0  0  0  0
   -4.0517    5.5184  -19.2225 C   0  0  0  0  0  0  0  0  0  0  0  0
   -5.0285    5.5560  -18.0407 C   0  0  0  0  0  0  0  0  0  0  0  0
   -4.7381    6.0003  -16.9996 O   0  0  0  0  0  0  0  0  0  0  0  0
   -6.3469    4.8911  -18.5178 N   0  0  0  0  0  0  0  0  0  0  0  0
   -7.4699    4.5721  -17.8309 C   0  0  0  0  0  0  0  0  0  0  0  0
   -8.5808    4.2749  -18.5682 N   0  0  0  0  0  0  0  0  0  0  0  0
   -9.5706    4.1603  -17.7135 C   0  0  0  0  0  0  0  0  0  0  0  0
   -9.1238    4.2594  -16.4352 N   0  0  0  0  0  0  0  0  0  0  0  0
   -7.7804    4.5035  -16.5042 C   0  0  0  0  0  0  0  0  0  0  0  0
   -7.0558    4.5961  -15.3066 N   0  0  0  0  0  0  0  0  0  0  0  0
   -5.9682    4.0189  -15.2257 O   0  0  0  0  0  0  0  0  0  0  0  0
   -7.6405    5.2000  -14.4025 O   0  0  0  0  0  0  0  0  0  0  0  0
  1  2  2  0
  2  3  1  0
  2  4  1  0
  4  5  1  0
  5  6  2  0
  5  7  1  0
  7  8  1  0
  8  9  1  0
  9 10  2  0
 10 11  1  0
 11 12  1  0
 12 13  1  0
 13 14  2  0
 13 15  1  0
 12  8  2  0
M  CHG  2  13   1  15  -1
M  END
>  <energy_score>  (3664) 
-19.316508

>  <alias>  (3664) 
HCQCJLPHLAMEQD-UHFFFAOYSA-N-P35-P35-P86-601527

>  <HIPPO Pose ID>  (3664) 
79385

>  <smiles>  (3664) 
C=C(I)CC(=O)Nc1nc[nH]c1[N+](=O)[O-]

>  <inchikey>  (3664) 
HCQCJLPHLAMEQD-UHFFFAOYSA-N

>  <distance_score>  (3664) 
1.409121

>  <ref_mols>  (3664) 
Z0719a,Z1597a

>  <ref_pdb>  (3664) 
Z0719a

>  <HIPPO Compound ID>  (3664) 
150478

>  <name>  (3664) 
HCQCJLPHLAMEQD-UHFFFAOYSA-N-P35-P35-P86-601527

>  <inspiration_score>  (3664) 
None

$$$$
KRSZFNUKARVAGD-UHFFFAOYSA-N-P86-P35-P86-601527
     RDKit          3D

 15 15  0  0  0  0  0  0  0  0999 V2000
   -2.5758    5.9038  -21.2244 C   0  0  0  0  0  0  0  0  0  0  0  0
   -3.6693    6.6758  -21.1182 C   0  0  0  0  0  0  0  0  0  0  0  0
   -3.5422    8.7055  -21.5659 I   0  0  0  0  0  0  0  0  0  0  0  0
   -5.0180    6.1388  -20.7146 C   0  0  0  0  0  0  0  0  0  0  0  0
   -5.1912    6.0963  -19.1899 C   0  0  0  0  0  0  0  0  0  0  0  0
   -4.3868    6.4846  -18.4339 O   0  0  0  0  0  0  0  0  0  0  0  0
   -6.5702    5.4171  -18.9359 N   0  0  0  0  0  0  0  0  0  0  0  0
   -7.1537    5.0206  -17.7829 C   0  0  0  0  0  0  0  0  0  0  0  0
   -6.6322    5.1227  -16.5227 C   0  0  0  0  0  0  0  0  0  0  0  0
   -7.5508    4.5329  -15.7037 N   0  0  0  0  0  0  0  0  0  0  0  0
   -7.4513    4.3232  -14.2673 C   0  0  0  0  0  0  0  0  0  0  0  0
   -6.0249    4.2328  -13.6866 C   0  0  0  0  0  0  0  0  0  0  0  0
   -5.9595    3.3828  -12.4341 C   0  0  0  0  0  0  0  0  0  0  0  0
   -8.6096    4.1722  -16.4893 C   0  0  0  0  0  0  0  0  0  0  0  0
   -8.3840    4.4471  -17.7568 N   0  0  0  0  0  0  0  0  0  0  0  0
  1  2  2  0
  2  3  1  0
  2  4  1  0
  4  5  1  0
  5  6  2  0
  5  7  1  0
  7  8  1  0
  8  9  2  0
  9 10  1  0
 10 11  1  0
 11 12  1  0
 12 13  1  0
 10 14  1  0
 14 15  2  0
 15  8  1  0
M  END
>  <energy_score>  (3665) 
-31.517929

>  <alias>  (3665) 
KRSZFNUKARVAGD-UHFFFAOYSA-N-P86-P35-P86-601527

>  <HIPPO Pose ID>  (3665) 
79396

>  <smiles>  (3665) 
C=C(I)CC(=O)Nc1cn(CCC)cn1

>  <inchikey>  (3665) 
KRSZFNUKARVAGD-UHFFFAOYSA-N

>  <distance_score>  (3665) 
1.907228

>  <ref_mols>  (3665) 
Z0719a,Z1597a

>  <ref_pdb>  (3665) 
Z0719a

>  <HIPPO Compound ID>  (3665) 
150483

>  <name>  (3665) 
KRSZFNUKARVAGD-UHFFFAOYSA-N-P86-P35-P86-601527

>  <inspiration_score>  (3665) 
None

$$$$
BGJKTHFZDTUYLG-UHFFFAOYSA-N-P35-P35-P86-601527
     RDKit          3D

 15 15  0  0  0  0  0  0  0  0999 V2000
   -4.9983    7.1762  -20.5315 C   0  0  0  0  0  0  0  0  0  0  0  0
   -3.9964    6.6630  -19.8010 C   0  0  0  0  0  0  0  0  0  0  0  0
   -2.2984    7.8207  -19.4597 I   0  0  0  0  0  0  0  0  0  0  0  0
   -4.0014    5.2673  -19.2317 C   0  0  0  0  0  0  0  0  0  0  0  0
   -4.5513    5.2155  -17.8029 C   0  0  0  0  0  0  0  0  0  0  0  0
   -3.8753    5.3174  -16.8554 O   0  0  0  0  0  0  0  0  0  0  0  0
   -6.0828    4.9678  -17.9269 N   0  0  0  0  0  0  0  0  0  0  0  0
   -7.0226    4.7151  -16.9643 C   0  0  0  0  0  0  0  0  0  0  0  0
   -7.0055    4.4686  -15.6049 C   0  0  0  0  0  0  0  0  0  0  0  0
   -5.9080    4.2876  -14.7231 C   0  0  0  0  0  0  0  0  0  0  0  0
   -5.0299    4.0736  -13.9945 N   0  0  0  0  0  0  0  0  0  0  0  0
   -8.2748    4.2878  -15.1079 N   0  0  0  0  0  0  0  0  0  0  0  0
   -9.0525    4.3246  -16.1514 C   0  0  0  0  0  0  0  0  0  0  0  0
   -8.3495    4.5962  -17.2760 N   0  0  0  0  0  0  0  0  0  0  0  0
   -8.9551    4.7343  -18.5587 C   0  0  0  0  0  0  0  0  0  0  0  0
  1  2  2  0
  2  3  1  0
  2  4  1  0
  4  5  1  0
  5  6  2  0
  5  7  1  0
  7  8  1  0
  8  9  2  0
  9 10  1  0
 10 11  3  0
  9 12  1  0
 12 13  2  0
 13 14  1  0
 14 15  1  0
 14  8  1  0
M  END
>  <energy_score>  (3666) 
-3.70688

>  <alias>  (3666) 
BGJKTHFZDTUYLG-UHFFFAOYSA-N-P35-P35-P86-601527

>  <HIPPO Pose ID>  (3666) 
79397

>  <smiles>  (3666) 
C=C(I)CC(=O)Nc1c(C#N)ncn1C

>  <inchikey>  (3666) 
BGJKTHFZDTUYLG-UHFFFAOYSA-N

>  <distance_score>  (3666) 
1.975907

>  <ref_mols>  (3666) 
Z0719a,Z1597a

>  <ref_pdb>  (3666) 
Z0719a

>  <HIPPO Compound ID>  (3666) 
150484

>  <name>  (3666) 
BGJKTHFZDTUYLG-UHFFFAOYSA-N-P35-P35-P86-601527

>  <inspiration_score>  (3666) 
None

$$$$
OBEFWCRWDZSZRC-UHFFFAOYSA-N-P86-P35-P86-601527
     RDKit          3D

 15 15  0  0  0  0  0  0  0  0999 V2000
   -8.5890    4.3762  -14.3872 C   0  0  0  0  0  0  0  0  0  0  0  0
   -8.2555    4.4268  -15.7875 N   0  0  0  0  0  0  0  0  0  0  0  0
   -9.0812    4.2531  -16.8480 C   0  0  0  0  0  0  0  0  0  0  0  0
   -8.4432    4.4778  -17.9737 N   0  0  0  0  0  0  0  0  0  0  0  0
   -7.1568    4.7749  -17.6305 C   0  0  0  0  0  0  0  0  0  0  0  0
   -6.2917    5.0407  -18.6421 N   0  0  0  0  0  0  0  0  0  0  0  0
   -4.7613    5.3187  -18.6155 C   0  0  0  0  0  0  0  0  0  0  0  0
   -4.0283    5.4372  -17.7118 O   0  0  0  0  0  0  0  0  0  0  0  0
   -4.3275    5.4370  -20.0929 C   0  0  0  0  0  0  0  0  0  0  0  0
   -4.5502    6.8544  -20.5991 C   0  0  0  0  0  0  0  0  0  0  0  0
   -2.8658    5.0329  -20.2588 C   0  0  0  0  0  0  0  0  0  0  0  0
   -5.0911    4.6111  -20.8724 F   0  0  0  0  0  0  0  0  0  0  0  0
   -7.0067    4.7242  -16.2669 C   0  0  0  0  0  0  0  0  0  0  0  0
   -5.8998    4.8637  -15.4038 C   0  0  0  0  0  0  0  0  0  0  0  0
   -5.0901    4.9149  -14.5750 N   0  0  0  0  0  0  0  0  0  0  0  0
  1  2  1  0
  2  3  1  0
  3  4  2  0
  4  5  1  0
  5  6  1  0
  6  7  1  0
  7  8  2  0
  7  9  1  0
  9 10  1  0
  9 11  1  0
  9 12  1  0
  5 13  2  0
 13 14  1  0
 14 15  3  0
 13  2  1  0
M  END
>  <energy_score>  (3667) 
-30.251406

>  <alias>  (3667) 
OBEFWCRWDZSZRC-UHFFFAOYSA-N-P86-P35-P86-601527

>  <HIPPO Pose ID>  (3667) 
79410

>  <smiles>  (3667) 
Cn1cnc(NC(=O)C(C)(C)F)c1C#N

>  <inchikey>  (3667) 
OBEFWCRWDZSZRC-UHFFFAOYSA-N

>  <distance_score>  (3667) 
1.174909

>  <ref_mols>  (3667) 
Z0719a,Z1597a

>  <ref_pdb>  (3667) 
Z0719a

>  <HIPPO Compound ID>  (3667) 
150490

>  <name>  (3667) 
OBEFWCRWDZSZRC-UHFFFAOYSA-N-P86-P35-P86-601527

>  <inspiration_score>  (3667) 
None

$$$$
WCVNATFSZIERNF-UHFFFAOYSA-N-P86-P35-P86-601527
     RDKit          3D

 15 15  0  0  0  0  0  0  0  0999 V2000
   -6.2998    3.3231  -12.3036 C   0  0  0  0  0  0  0  0  0  0  0  0
   -6.1359    4.1118  -13.5854 C   0  0  0  0  0  0  0  0  0  0  0  0
   -7.4609    4.2434  -14.3684 C   0  0  0  0  0  0  0  0  0  0  0  0
   -7.3494    4.5691  -15.7758 N   0  0  0  0  0  0  0  0  0  0  0  0
   -8.3034    4.3678  -16.7327 C   0  0  0  0  0  0  0  0  0  0  0  0
   -7.8935    4.8002  -17.9098 N   0  0  0  0  0  0  0  0  0  0  0  0
   -6.6323    5.2582  -17.7032 C   0  0  0  0  0  0  0  0  0  0  0  0
   -5.8587    5.7674  -18.6871 N   0  0  0  0  0  0  0  0  0  0  0  0
   -4.3921    6.3110  -18.6470 C   0  0  0  0  0  0  0  0  0  0  0  0
   -3.6112    6.3261  -17.7716 O   0  0  0  0  0  0  0  0  0  0  0  0
   -4.0543    6.9784  -20.0078 C   0  0  0  0  0  0  0  0  0  0  0  0
   -4.2459    6.0487  -21.1912 C   0  0  0  0  0  0  0  0  0  0  0  0
   -4.8357    8.2760  -20.1490 C   0  0  0  0  0  0  0  0  0  0  0  0
   -2.7261    7.3461  -20.0430 F   0  0  0  0  0  0  0  0  0  0  0  0
   -6.2852    5.1579  -16.3878 C   0  0  0  0  0  0  0  0  0  0  0  0
  1  2  1  0
  2  3  1  0
  3  4  1  0
  4  5  1  0
  5  6  2  0
  6  7  1  0
  7  8  1  0
  8  9  1  0
  9 10  2  0
  9 11  1  0
 11 12  1  0
 11 13  1  0
 11 14  1  0
  7 15  2  0
 15  4  1  0
M  END
>  <energy_score>  (3668) 
-23.171295

>  <alias>  (3668) 
WCVNATFSZIERNF-UHFFFAOYSA-N-P86-P35-P86-601527

>  <HIPPO Pose ID>  (3668) 
79412

>  <smiles>  (3668) 
CCCn1cnc(NC(=O)C(C)(C)F)c1

>  <inchikey>  (3668) 
WCVNATFSZIERNF-UHFFFAOYSA-N

>  <distance_score>  (3668) 
1.824174

>  <ref_mols>  (3668) 
Z0719a,Z1597a

>  <ref_pdb>  (3668) 
Z0719a

>  <HIPPO Compound ID>  (3668) 
150491

>  <name>  (3668) 
WCVNATFSZIERNF-UHFFFAOYSA-N-P86-P35-P86-601527

>  <inspiration_score>  (3668) 
None

$$$$
LKVCNNGAKNXLFW-UHFFFAOYSA-N-P35-P35-P86-601527
     RDKit          3D

 15 16  0  0  0  0  0  0  0  0999 V2000
   -5.6282    2.6301  -12.8987 C   0  0  0  0  0  0  0  0  0  0  0  0
   -5.7429    3.5719  -14.0791 C   0  0  0  0  0  0  0  0  0  0  0  0
   -7.1961    3.6488  -14.5831 C   0  0  0  0  0  0  0  0  0  0  0  0
   -7.4180    4.2064  -15.9023 N   0  0  0  0  0  0  0  0  0  0  0  0
   -8.6410    4.3155  -16.5039 C   0  0  0  0  0  0  0  0  0  0  0  0
   -8.5426    4.8723  -17.6898 N   0  0  0  0  0  0  0  0  0  0  0  0
   -7.2219    5.1436  -17.8505 C   0  0  0  0  0  0  0  0  0  0  0  0
   -6.7648    5.7833  -18.9495 N   0  0  0  0  0  0  0  0  0  0  0  0
   -5.3347    6.2870  -19.3045 C   0  0  0  0  0  0  0  0  0  0  0  0
   -4.3205    6.1559  -18.7334 O   0  0  0  0  0  0  0  0  0  0  0  0
   -5.4783    7.1386  -20.5669 C   0  0  0  0  0  0  0  0  0  0  0  0
   -4.1582    7.5270  -21.1736 C   0  0  0  0  0  0  0  0  0  0  0  0
   -3.5412    8.8713  -20.8840 C   0  0  0  0  0  0  0  0  0  0  0  0
   -4.1099    8.5850  -22.2461 C   0  0  0  0  0  0  0  0  0  0  0  0
   -6.5022    4.7462  -16.7577 C   0  0  0  0  0  0  0  0  0  0  0  0
  1  2  1  0
  2  3  1  0
  3  4  1  0
  4  5  1  0
  5  6  2  0
  6  7  1  0
  7  8  1  0
  8  9  1  0
  9 10  2  0
  9 11  1  0
 11 12  1  0
 12 13  1  0
 13 14  1  0
  7 15  2  0
 15  4  1  0
 14 12  1  0
M  END
>  <energy_score>  (3669) 
-14.764064

>  <alias>  (3669) 
LKVCNNGAKNXLFW-UHFFFAOYSA-N-P35-P35-P86-601527

>  <HIPPO Pose ID>  (3669) 
79425

>  <smiles>  (3669) 
CCCn1cnc(NC(=O)CC2CC2)c1

>  <inchikey>  (3669) 
LKVCNNGAKNXLFW-UHFFFAOYSA-N

>  <distance_score>  (3669) 
1.716102

>  <ref_mols>  (3669) 
Z0719a,Z1597a

>  <ref_pdb>  (3669) 
Z0719a

>  <HIPPO Compound ID>  (3669) 
150498

>  <name>  (3669) 
LKVCNNGAKNXLFW-UHFFFAOYSA-N-P35-P35-P86-601527

>  <inspiration_score>  (3669) 
None

$$$$
SEVVLSOIXOSQOM-UHFFFAOYSA-N-P86-P35-P86-601527
     RDKit          3D

 15 16  0  0  0  0  0  0  0  0999 V2000
   -4.4801    7.1752  -20.7365 C   0  0  0  0  0  0  0  0  0  0  0  0
   -4.3837    5.6884  -20.4435 C   0  0  0  0  0  0  0  0  0  0  0  0
   -2.9439    5.2067  -20.5758 C   0  0  0  0  0  0  0  0  0  0  0  0
   -5.1460    5.0520  -21.3833 F   0  0  0  0  0  0  0  0  0  0  0  0
   -4.9292    5.4008  -19.0333 C   0  0  0  0  0  0  0  0  0  0  0  0
   -4.2900    5.4805  -18.0551 O   0  0  0  0  0  0  0  0  0  0  0  0
   -6.4346    5.0403  -19.2306 N   0  0  0  0  0  0  0  0  0  0  0  0
   -7.3728    4.6380  -18.3290 C   0  0  0  0  0  0  0  0  0  0  0  0
   -8.6445    4.1328  -18.5457 C   0  0  0  0  0  0  0  0  0  0  0  0
   -9.3269    3.9242  -17.3612 N   0  0  0  0  0  0  0  0  0  0  0  0
   -8.4827    4.3261  -16.4476 C   0  0  0  0  0  0  0  0  0  0  0  0
   -7.2825    4.6722  -16.9870 N   0  0  0  0  0  0  0  0  0  0  0  0
   -6.3643    5.2172  -16.0221 C   0  0  0  0  0  0  0  0  0  0  0  0
   -7.0600    4.9491  -14.6899 C   0  0  0  0  0  0  0  0  0  0  0  0
   -8.5326    4.6354  -15.0096 C   0  0  0  0  0  0  0  0  0  0  0  0
  1  2  1  0
  2  3  1  0
  2  4  1  0
  2  5  1  0
  5  6  2  0
  5  7  1  0
  7  8  1  0
  8  9  2  0
  9 10  1  0
 10 11  2  0
 11 12  1  0
 12 13  1  0
 13 14  1  0
 14 15  1  0
 12  8  1  0
 15 11  1  0
M  END
>  <energy_score>  (3670) 
-41.796663

>  <alias>  (3670) 
SEVVLSOIXOSQOM-UHFFFAOYSA-N-P86-P35-P86-601527

>  <HIPPO Pose ID>  (3670) 
79434

>  <smiles>  (3670) 
CC(C)(F)C(=O)Nc1cnc2n1CCC2

>  <inchikey>  (3670) 
SEVVLSOIXOSQOM-UHFFFAOYSA-N

>  <distance_score>  (3670) 
1.500819

>  <ref_mols>  (3670) 
Z0719a,Z1597a

>  <ref_pdb>  (3670) 
Z0719a

>  <HIPPO Compound ID>  (3670) 
150502

>  <name>  (3670) 
SEVVLSOIXOSQOM-UHFFFAOYSA-N-P86-P35-P86-601527

>  <inspiration_score>  (3670) 
None

$$$$
KLOCRZXXHSVAKF-UHFFFAOYSA-N-P35-P35-P86-601527
     RDKit          3D

 15 15  0  0  0  0  0  0  0  0999 V2000
   -8.8641    4.0937  -18.9955 C   0  0  0  0  0  0  0  0  0  0  0  0
   -8.2605    4.4814  -17.7157 C   0  0  0  0  0  0  0  0  0  0  0  0
   -8.7860    3.9652  -16.5573 N   0  0  0  0  0  0  0  0  0  0  0  0
   -8.0216    4.4287  -15.5949 C   0  0  0  0  0  0  0  0  0  0  0  0
   -8.0133    3.9974  -14.1773 C   0  0  0  0  0  0  0  0  0  0  0  0
   -7.1689    5.3859  -16.0875 N   0  0  0  0  0  0  0  0  0  0  0  0
   -6.4792    6.3228  -15.2555 C   0  0  0  0  0  0  0  0  0  0  0  0
   -7.1568    5.2728  -17.4511 C   0  0  0  0  0  0  0  0  0  0  0  0
   -6.2230    5.7636  -18.3259 N   0  0  0  0  0  0  0  0  0  0  0  0
   -4.9275    6.6034  -18.0639 C   0  0  0  0  0  0  0  0  0  0  0  0
   -4.5094    7.0653  -17.0694 O   0  0  0  0  0  0  0  0  0  0  0  0
   -4.1001    6.6911  -19.3726 C   0  0  0  0  0  0  0  0  0  0  0  0
   -4.8594    7.1957  -20.5876 C   0  0  0  0  0  0  0  0  0  0  0  0
   -3.4458    5.3327  -19.5946 C   0  0  0  0  0  0  0  0  0  0  0  0
   -3.0534    7.5761  -19.2126 F   0  0  0  0  0  0  0  0  0  0  0  0
  1  2  1  0
  2  3  1  0
  3  4  2  0
  4  5  1  0
  4  6  1  0
  6  7  1  0
  6  8  1  0
  8  9  1  0
  9 10  1  0
 10 11  2  0
 10 12  1  0
 12 13  1  0
 12 14  1  0
 12 15  1  0
  8  2  2  0
M  END
>  <energy_score>  (3671) 
-21.380998

>  <alias>  (3671) 
KLOCRZXXHSVAKF-UHFFFAOYSA-N-P35-P35-P86-601527

>  <HIPPO Pose ID>  (3671) 
79435

>  <smiles>  (3671) 
Cc1nc(C)n(C)c1NC(=O)C(C)(C)F

>  <inchikey>  (3671) 
KLOCRZXXHSVAKF-UHFFFAOYSA-N

>  <distance_score>  (3671) 
1.50216

>  <ref_mols>  (3671) 
Z0719a,Z1597a

>  <ref_pdb>  (3671) 
Z0719a

>  <HIPPO Compound ID>  (3671) 
150503

>  <name>  (3671) 
KLOCRZXXHSVAKF-UHFFFAOYSA-N-P35-P35-P86-601527

>  <inspiration_score>  (3671) 
None

$$$$
YCEOIOSVXMFFRG-UHFFFAOYSA-N-P86-P35-P86-601527
     RDKit          3D

 15 16  0  0  0  0  0  0  0  0999 V2000
   -6.9387    4.6156   -9.4624 C   0  0  0  0  0  0  0  0  0  0  0  0
   -7.5337    4.1848  -10.6949 N   0  0  0  0  0  0  0  0  0  0  0  0
   -8.6721    3.4453  -10.8028 C   0  0  0  0  0  0  0  0  0  0  0  0
   -9.0491    3.3495  -12.0581 N   0  0  0  0  0  0  0  0  0  0  0  0
   -8.1000    4.0010  -12.7843 C   0  0  0  0  0  0  0  0  0  0  0  0
   -8.1982    4.1034  -14.1360 N   0  0  0  0  0  0  0  0  0  0  0  0
   -7.4511    5.0184  -15.1289 C   0  0  0  0  0  0  0  0  0  0  0  0
   -6.6900    5.8814  -14.9361 O   0  0  0  0  0  0  0  0  0  0  0  0
   -7.8001    4.6467  -16.5242 C   0  0  0  0  0  0  0  0  0  0  0  0
   -8.8799    4.0842  -17.0890 C   0  0  0  0  0  0  0  0  0  0  0  0
   -8.3293    4.2430  -18.4904 C   0  0  0  0  0  0  0  0  0  0  0  0
   -7.1265    4.9491  -17.8359 C   0  0  0  0  0  0  0  0  0  0  0  0
   -7.0783    4.4144  -11.9667 C   0  0  0  0  0  0  0  0  0  0  0  0
   -5.7739    4.7767  -12.3784 C   0  0  0  0  0  0  0  0  0  0  0  0
   -4.7006    4.9616  -12.7770 N   0  0  0  0  0  0  0  0  0  0  0  0
  1  2  1  0
  2  3  1  0
  3  4  2  0
  4  5  1  0
  5  6  1  0
  6  7  1  0
  7  8  2  0
  7  9  1  0
  9 10  2  0
 10 11  1  0
 11 12  1  0
  5 13  2  0
 13 14  1  0
 14 15  3  0
 13  2  1  0
 12  9  1  0
M  END
>  <energy_score>  (3672) 
-19.946792

>  <alias>  (3672) 
YCEOIOSVXMFFRG-UHFFFAOYSA-N-P86-P35-P86-601527

>  <HIPPO Pose ID>  (3672) 
79440

>  <smiles>  (3672) 
Cn1cnc(NC(=O)C2=CCC2)c1C#N

>  <inchikey>  (3672) 
YCEOIOSVXMFFRG-UHFFFAOYSA-N

>  <distance_score>  (3672) 
1.804955

>  <ref_mols>  (3672) 
Z0719a,Z1597a

>  <ref_pdb>  (3672) 
Z0719a

>  <HIPPO Compound ID>  (3672) 
150505

>  <name>  (3672) 
YCEOIOSVXMFFRG-UHFFFAOYSA-N-P86-P35-P86-601527

>  <inspiration_score>  (3672) 
None

$$$$
IHCNWLMPWUVEMY-UHFFFAOYSA-N-P86-P35-P86-601527
     RDKit          3D

 15 16  0  0  0  0  0  0  0  0999 V2000
   -3.9013    2.0733  -12.1224 C   0  0  0  0  0  0  0  0  0  0  0  0
   -5.3553    2.4924  -12.1183 C   0  0  0  0  0  0  0  0  0  0  0  0
   -5.7622    3.2103  -10.8094 C   0  0  0  0  0  0  0  0  0  0  0  0
   -7.0661    3.8529  -10.9762 N   0  0  0  0  0  0  0  0  0  0  0  0
   -8.2448    3.1549  -10.9422 C   0  0  0  0  0  0  0  0  0  0  0  0
   -8.9339    3.3984  -12.0373 N   0  0  0  0  0  0  0  0  0  0  0  0
   -8.2072    4.3343  -12.7055 C   0  0  0  0  0  0  0  0  0  0  0  0
   -8.2724    4.4509  -14.0531 N   0  0  0  0  0  0  0  0  0  0  0  0
   -7.3744    5.2285  -15.0356 C   0  0  0  0  0  0  0  0  0  0  0  0
   -6.4829    5.9539  -14.8334 O   0  0  0  0  0  0  0  0  0  0  0  0
   -7.7239    4.8503  -16.4349 C   0  0  0  0  0  0  0  0  0  0  0  0
   -8.7444    4.1831  -17.0001 C   0  0  0  0  0  0  0  0  0  0  0  0
   -8.1960    4.3626  -18.3997 C   0  0  0  0  0  0  0  0  0  0  0  0
   -7.0137    5.0974  -17.7402 C   0  0  0  0  0  0  0  0  0  0  0  0
   -7.2331    4.8714  -11.8982 C   0  0  0  0  0  0  0  0  0  0  0  0
  1  2  1  0
  2  3  1  0
  3  4  1  0
  4  5  1  0
  5  6  2  0
  6  7  1  0
  7  8  1  0
  8  9  1  0
  9 10  2  0
  9 11  1  0
 11 12  2  0
 12 13  1  0
 13 14  1  0
  7 15  2  0
 15  4  1  0
 14 11  1  0
M  END
>  <energy_score>  (3673) 
-18.792481

>  <alias>  (3673) 
IHCNWLMPWUVEMY-UHFFFAOYSA-N-P86-P35-P86-601527

>  <HIPPO Pose ID>  (3673) 
79442

>  <smiles>  (3673) 
CCCn1cnc(NC(=O)C2=CCC2)c1

>  <inchikey>  (3673) 
IHCNWLMPWUVEMY-UHFFFAOYSA-N

>  <distance_score>  (3673) 
1.629135

>  <ref_mols>  (3673) 
Z0719a,Z1597a

>  <ref_pdb>  (3673) 
Z0719a

>  <HIPPO Compound ID>  (3673) 
150506

>  <name>  (3673) 
IHCNWLMPWUVEMY-UHFFFAOYSA-N-P86-P35-P86-601527

>  <inspiration_score>  (3673) 
None

$$$$
HMFRALGMRSLAQZ-UHFFFAOYSA-N-P86-P35-P86-601527
     RDKit          3D

 15 16  0  0  0  0  0  0  0  0999 V2000
   -8.8661    2.6968  -11.3651 C   0  0  0  0  0  0  0  0  0  0  0  0
   -8.0605    3.8772  -11.3235 N   0  0  0  0  0  0  0  0  0  0  0  0
   -7.5417    4.3995  -10.1666 C   0  0  0  0  0  0  0  0  0  0  0  0
   -6.5389    5.2105  -10.4201 N   0  0  0  0  0  0  0  0  0  0  0  0
   -6.4490    5.2105  -11.7940 C   0  0  0  0  0  0  0  0  0  0  0  0
   -5.2385    5.5206  -12.4953 C   0  0  0  0  0  0  0  0  0  0  0  0
   -4.2892    5.5620  -13.1649 N   0  0  0  0  0  0  0  0  0  0  0  0
   -7.5005    4.5372  -12.3890 C   0  0  0  0  0  0  0  0  0  0  0  0
   -7.8057    4.4512  -13.7308 N   0  0  0  0  0  0  0  0  0  0  0  0
   -7.3062    5.2953  -14.9330 C   0  0  0  0  0  0  0  0  0  0  0  0
   -6.6205    6.2399  -14.9609 O   0  0  0  0  0  0  0  0  0  0  0  0
   -7.7538    4.7191  -16.2264 C   0  0  0  0  0  0  0  0  0  0  0  0
   -8.8450    4.0530  -16.6291 C   0  0  0  0  0  0  0  0  0  0  0  0
   -8.4631    4.1496  -18.0964 C   0  0  0  0  0  0  0  0  0  0  0  0
   -7.2026    4.8929  -17.6201 C   0  0  0  0  0  0  0  0  0  0  0  0
  1  2  1  0
  2  3  1  0
  3  4  2  0
  4  5  1  0
  5  6  1  0
  6  7  3  0
  5  8  2  0
  8  9  1  0
  9 10  1  0
 10 11  2  0
 10 12  1  0
 12 13  2  0
 13 14  1  0
 14 15  1  0
  8  2  1  0
 15 12  1  0
M  END
>  <energy_score>  (3674) 
-2.212857

>  <alias>  (3674) 
HMFRALGMRSLAQZ-UHFFFAOYSA-N-P86-P35-P86-601527

>  <HIPPO Pose ID>  (3674) 
79444

>  <smiles>  (3674) 
Cn1cnc(C#N)c1NC(=O)C1=CCC1

>  <inchikey>  (3674) 
HMFRALGMRSLAQZ-UHFFFAOYSA-N

>  <distance_score>  (3674) 
1.849101

>  <ref_mols>  (3674) 
Z0719a,Z1597a

>  <ref_pdb>  (3674) 
Z0719a

>  <HIPPO Compound ID>  (3674) 
150507

>  <name>  (3674) 
HMFRALGMRSLAQZ-UHFFFAOYSA-N-P86-P35-P86-601527

>  <inspiration_score>  (3674) 
None

$$$$
SXWYALRIBWHSCZ-UHFFFAOYSA-N-P86-P35-P86-601527
     RDKit          3D

 15 15  0  0  0  0  0  0  0  0999 V2000
   -8.7070    3.8682  -19.2141 C   0  0  0  0  0  0  0  0  0  0  0  0
   -8.1113    4.3551  -17.9685 C   0  0  0  0  0  0  0  0  0  0  0  0
   -8.7728    4.1219  -16.7912 N   0  0  0  0  0  0  0  0  0  0  0  0
   -7.9658    4.5418  -15.8463 C   0  0  0  0  0  0  0  0  0  0  0  0
   -8.2325    4.4960  -14.3906 C   0  0  0  0  0  0  0  0  0  0  0  0
   -6.8017    5.0428  -16.3864 N   0  0  0  0  0  0  0  0  0  0  0  0
   -5.7489    5.6213  -15.6085 C   0  0  0  0  0  0  0  0  0  0  0  0
   -6.8892    4.9616  -17.7544 C   0  0  0  0  0  0  0  0  0  0  0  0
   -5.9692    5.3768  -18.6863 N   0  0  0  0  0  0  0  0  0  0  0  0
   -4.4278    5.5840  -18.5652 C   0  0  0  0  0  0  0  0  0  0  0  0
   -3.7217    5.5061  -17.6317 O   0  0  0  0  0  0  0  0  0  0  0  0
   -3.8504    6.0618  -19.9351 C   0  0  0  0  0  0  0  0  0  0  0  0
   -3.6314    7.5700  -19.8564 C   0  0  0  0  0  0  0  0  0  0  0  0
   -2.5209    5.3472  -20.2073 C   0  0  0  0  0  0  0  0  0  0  0  0
   -4.9472    5.8371  -21.3636 S   0  0  0  0  0  0  0  0  0  0  0  0
  1  2  1  0
  2  3  1  0
  3  4  2  0
  4  5  1  0
  4  6  1  0
  6  7  1  0
  6  8  1  0
  8  9  1  0
  9 10  1  0
 10 11  2  0
 10 12  1  0
 12 13  1  0
 12 14  1  0
 12 15  1  0
  8  2  2  0
M  END
>  <energy_score>  (3675) 
-23.160535

>  <alias>  (3675) 
SXWYALRIBWHSCZ-UHFFFAOYSA-N-P86-P35-P86-601527

>  <HIPPO Pose ID>  (3675) 
79452

>  <smiles>  (3675) 
Cc1nc(C)n(C)c1NC(=O)C(C)(C)S

>  <inchikey>  (3675) 
SXWYALRIBWHSCZ-UHFFFAOYSA-N

>  <distance_score>  (3675) 
1.32994

>  <ref_mols>  (3675) 
Z0719a,Z1597a

>  <ref_pdb>  (3675) 
Z0719a

>  <HIPPO Compound ID>  (3675) 
150511

>  <name>  (3675) 
SXWYALRIBWHSCZ-UHFFFAOYSA-N-P86-P35-P86-601527

>  <inspiration_score>  (3675) 
None

$$$$
VWGLFNKTEQHNOK-UHFFFAOYSA-N-P86-P35-P86-601527
     RDKit          3D

 15 15  0  0  0  0  0  0  0  0999 V2000
   -4.5767    6.5860  -20.4443 C   0  0  0  0  0  0  0  0  0  0  0  0
   -4.0254    6.4413  -19.0188 C   0  0  0  0  0  0  0  0  0  0  0  0
   -3.0024    5.3070  -18.9408 C   0  0  0  0  0  0  0  0  0  0  0  0
   -3.1310    8.0346  -18.6700 S   0  0  0  0  0  0  0  0  0  0  0  0
   -5.1068    6.2401  -17.8842 C   0  0  0  0  0  0  0  0  0  0  0  0
   -5.0347    6.8100  -16.8641 O   0  0  0  0  0  0  0  0  0  0  0  0
   -6.1040    5.1453  -18.3578 N   0  0  0  0  0  0  0  0  0  0  0  0
   -7.2002    4.6308  -17.7495 C   0  0  0  0  0  0  0  0  0  0  0  0
   -8.1458    4.0825  -18.5657 N   0  0  0  0  0  0  0  0  0  0  0  0
   -9.1748    3.8083  -17.7974 C   0  0  0  0  0  0  0  0  0  0  0  0
   -8.9017    4.0657  -16.4930 N   0  0  0  0  0  0  0  0  0  0  0  0
   -7.6290    4.5667  -16.4556 C   0  0  0  0  0  0  0  0  0  0  0  0
   -7.0616    4.8535  -15.2058 N   0  0  0  0  0  0  0  0  0  0  0  0
   -5.8628    4.6224  -15.0325 O   0  0  0  0  0  0  0  0  0  0  0  0
   -7.8627    5.2774  -14.3665 O   0  0  0  0  0  0  0  0  0  0  0  0
  1  2  1  0
  2  3  1  0
  2  4  1  0
  2  5  1  0
  5  6  2  0
  5  7  1  0
  7  8  1  0
  8  9  1  0
  9 10  2  0
 10 11  1  0
 11 12  1  0
 12 13  1  0
 13 14  2  0
 13 15  1  0
 12  8  2  0
M  CHG  2  13   1  15  -1
M  END
>  <energy_score>  (3676) 
-35.728764

>  <alias>  (3676) 
VWGLFNKTEQHNOK-UHFFFAOYSA-N-P86-P35-P86-601527

>  <HIPPO Pose ID>  (3676) 
79454

>  <smiles>  (3676) 
CC(C)(S)C(=O)Nc1nc[nH]c1[N+](=O)[O-]

>  <inchikey>  (3676) 
VWGLFNKTEQHNOK-UHFFFAOYSA-N

>  <distance_score>  (3676) 
1.569603

>  <ref_mols>  (3676) 
Z0719a,Z1597a

>  <ref_pdb>  (3676) 
Z0719a

>  <HIPPO Compound ID>  (3676) 
150512

>  <name>  (3676) 
VWGLFNKTEQHNOK-UHFFFAOYSA-N-P86-P35-P86-601527

>  <inspiration_score>  (3676) 
None

$$$$
FMWUOAORGMQPDA-UHFFFAOYSA-N-P86-P35-P86-601527
     RDKit          3D

 15 16  0  0  0  0  0  0  0  0999 V2000
   -7.0319    4.9892   -9.3755 C   0  0  0  0  0  0  0  0  0  0  0  0
   -7.6317    4.3890  -10.5316 N   0  0  0  0  0  0  0  0  0  0  0  0
   -8.6230    3.4524  -10.5105 C   0  0  0  0  0  0  0  0  0  0  0  0
   -9.0344    3.1807  -11.7281 N   0  0  0  0  0  0  0  0  0  0  0  0
   -8.2818    3.9588  -12.5515 C   0  0  0  0  0  0  0  0  0  0  0  0
   -8.4462    3.8913  -13.8932 N   0  0  0  0  0  0  0  0  0  0  0  0
   -7.9550    4.8414  -15.0188 C   0  0  0  0  0  0  0  0  0  0  0  0
   -7.3977    5.8722  -14.9544 O   0  0  0  0  0  0  0  0  0  0  0  0
   -8.2258    4.1423  -16.3926 C   0  0  2  0  0  0  0  0  0  0  0  0
   -7.3994    4.6280  -17.6012 C   0  0  0  0  0  0  0  0  0  0  0  0
   -8.6987    4.3942  -18.3609 C   0  0  0  0  0  0  0  0  0  0  0  0
   -9.4501    4.4883  -17.1112 O   0  0  0  0  0  0  0  0  0  0  0  0
   -7.3039    4.6077  -11.8439 C   0  0  0  0  0  0  0  0  0  0  0  0
   -6.1028    5.1301  -12.3823 C   0  0  0  0  0  0  0  0  0  0  0  0
   -5.0985    5.4202  -12.8860 N   0  0  0  0  0  0  0  0  0  0  0  0
  1  2  1  0
  2  3  1  0
  3  4  2  0
  4  5  1  0
  5  6  1  0
  6  7  1  0
  7  8  2  0
  9  7  1  1
  9 10  1  0
 10 11  1  0
 11 12  1  0
  5 13  2  0
 13 14  1  0
 14 15  3  0
 13  2  1  0
 12  9  1  0
M  END
>  <energy_score>  (3677) 
-24.980397

>  <alias>  (3677) 
FMWUOAORGMQPDA-UHFFFAOYSA-N-P86-P35-P86-601527

>  <HIPPO Pose ID>  (3677) 
79464

>  <smiles>  (3677) 
Cn1cnc(NC(=O)C2CCO2)c1C#N

>  <inchikey>  (3677) 
FMWUOAORGMQPDA-UHFFFAOYSA-N

>  <distance_score>  (3677) 
1.367592

>  <ref_mols>  (3677) 
Z0719a,Z1597a

>  <ref_pdb>  (3677) 
Z0719a

>  <HIPPO Compound ID>  (3677) 
150517

>  <name>  (3677) 
FMWUOAORGMQPDA-UHFFFAOYSA-N-P86-P35-P86-601527

>  <inspiration_score>  (3677) 
None

$$$$
DEQBSIXOHYSWEB-UHFFFAOYSA-N-P35-P35-P86-601527
     RDKit          3D

 15 16  0  0  0  0  0  0  0  0999 V2000
   -4.5988    2.4658  -12.7661 C   0  0  0  0  0  0  0  0  0  0  0  0
   -5.5900    1.8963  -11.7602 C   0  0  0  0  0  0  0  0  0  0  0  0
   -6.0221    2.8726  -10.6408 C   0  0  0  0  0  0  0  0  0  0  0  0
   -7.0610    3.7896  -11.0851 N   0  0  0  0  0  0  0  0  0  0  0  0
   -8.3866    3.4580  -11.1395 C   0  0  0  0  0  0  0  0  0  0  0  0
   -8.9127    3.9030  -12.2612 N   0  0  0  0  0  0  0  0  0  0  0  0
   -7.8882    4.5250  -12.8997 C   0  0  0  0  0  0  0  0  0  0  0  0
   -7.8160    4.5531  -14.2519 N   0  0  0  0  0  0  0  0  0  0  0  0
   -6.7271    5.1292  -15.1892 C   0  0  0  0  0  0  0  0  0  0  0  0
   -5.7570    5.7399  -14.9420 O   0  0  0  0  0  0  0  0  0  0  0  0
   -7.0587    4.6624  -16.6366 C   0  0  2  0  0  0  0  0  0  0  0  0
   -7.1104    5.6542  -17.7902 C   0  0  0  0  0  0  0  0  0  0  0  0
   -8.3238    4.8318  -18.2324 C   0  0  0  0  0  0  0  0  0  0  0  0
   -8.4569    4.2815  -16.8856 O   0  0  0  0  0  0  0  0  0  0  0  0
   -6.8475    4.7663  -12.0357 C   0  0  0  0  0  0  0  0  0  0  0  0
  1  2  1  0
  2  3  1  0
  3  4  1  0
  4  5  1  0
  5  6  2  0
  6  7  1  0
  7  8  1  0
  8  9  1  0
  9 10  2  0
 11  9  1  1
 11 12  1  0
 12 13  1  0
 13 14  1  0
  7 15  2  0
 15  4  1  0
 14 11  1  0
M  END
>  <energy_score>  (3678) 
-2.451003

>  <alias>  (3678) 
DEQBSIXOHYSWEB-UHFFFAOYSA-N-P35-P35-P86-601527

>  <HIPPO Pose ID>  (3678) 
79465

>  <smiles>  (3678) 
CCCn1cnc(NC(=O)C2CCO2)c1

>  <inchikey>  (3678) 
DEQBSIXOHYSWEB-UHFFFAOYSA-N

>  <distance_score>  (3678) 
1.768124

>  <ref_mols>  (3678) 
Z0719a,Z1597a

>  <ref_pdb>  (3678) 
Z0719a

>  <HIPPO Compound ID>  (3678) 
150518

>  <name>  (3678) 
DEQBSIXOHYSWEB-UHFFFAOYSA-N-P35-P35-P86-601527

>  <inspiration_score>  (3678) 
None

$$$$
YDIHCGPGGDYMSS-UHFFFAOYSA-N-P35-P35-P86-601527
     RDKit          3D

 15 16  0  0  0  0  0  0  0  0999 V2000
   -8.8091    2.6636  -11.0786 C   0  0  0  0  0  0  0  0  0  0  0  0
   -8.2756    3.9907  -11.1214 N   0  0  0  0  0  0  0  0  0  0  0  0
   -7.8417    4.6804  -10.0182 C   0  0  0  0  0  0  0  0  0  0  0  0
   -7.0263    5.6573  -10.3539 N   0  0  0  0  0  0  0  0  0  0  0  0
   -6.9735    5.5920  -11.7272 C   0  0  0  0  0  0  0  0  0  0  0  0
   -5.8550    6.0495  -12.5017 C   0  0  0  0  0  0  0  0  0  0  0  0
   -4.9572    6.1700  -13.2315 N   0  0  0  0  0  0  0  0  0  0  0  0
   -7.8736    4.6752  -12.2368 C   0  0  0  0  0  0  0  0  0  0  0  0
   -8.1027    4.3867  -13.5568 N   0  0  0  0  0  0  0  0  0  0  0  0
   -7.8966    5.2613  -14.8377 C   0  0  0  0  0  0  0  0  0  0  0  0
   -7.5732    6.3865  -14.9475 O   0  0  0  0  0  0  0  0  0  0  0  0
   -8.0801    4.3728  -16.1052 C   0  0  2  0  0  0  0  0  0  0  0  0
   -7.3397    4.8102  -17.3825 C   0  0  0  0  0  0  0  0  0  0  0  0
   -8.6778    4.5813  -18.0691 C   0  0  0  0  0  0  0  0  0  0  0  0
   -9.3571    4.4657  -16.7894 O   0  0  0  0  0  0  0  0  0  0  0  0
  1  2  1  0
  2  3  1  0
  3  4  2  0
  4  5  1  0
  5  6  1  0
  6  7  3  0
  5  8  2  0
  8  9  1  0
  9 10  1  0
 10 11  2  0
 12 10  1  1
 12 13  1  0
 13 14  1  0
 14 15  1  0
  8  2  1  0
 15 12  1  0
M  END
>  <energy_score>  (3679) 
-8.99861

>  <alias>  (3679) 
YDIHCGPGGDYMSS-UHFFFAOYSA-N-P35-P35-P86-601527

>  <HIPPO Pose ID>  (3679) 
79471

>  <smiles>  (3679) 
Cn1cnc(C#N)c1NC(=O)C1CCO1

>  <inchikey>  (3679) 
YDIHCGPGGDYMSS-UHFFFAOYSA-N

>  <distance_score>  (3679) 
1.388654

>  <ref_mols>  (3679) 
Z0719a,Z1597a

>  <ref_pdb>  (3679) 
Z0719a

>  <HIPPO Compound ID>  (3679) 
150521

>  <name>  (3679) 
YDIHCGPGGDYMSS-UHFFFAOYSA-N-P35-P35-P86-601527

>  <inspiration_score>  (3679) 
None

$$$$
OTWDQVPHKJUKLL-UHFFFAOYSA-N-P35-P35-P86-601527
     RDKit          3D

 15 16  0  0  0  0  0  0  0  0999 V2000
   -4.8581    2.4601  -11.1643 C   0  0  0  0  0  0  0  0  0  0  0  0
   -5.7976    3.1318  -10.1348 C   0  0  0  0  0  0  0  0  0  0  0  0
   -5.0548    4.1498   -9.2748 C   0  0  0  0  0  0  0  0  0  0  0  0
   -6.9436    3.7342  -10.8139 N   0  0  0  0  0  0  0  0  0  0  0  0
   -8.1898    3.1737  -10.8733 C   0  0  0  0  0  0  0  0  0  0  0  0
   -8.7545    3.4320  -12.0336 N   0  0  0  0  0  0  0  0  0  0  0  0
   -7.8483    4.1907  -12.7055 C   0  0  0  0  0  0  0  0  0  0  0  0
   -7.8383    4.2679  -14.0573 N   0  0  0  0  0  0  0  0  0  0  0  0
   -6.8730    5.0103  -15.0165 C   0  0  0  0  0  0  0  0  0  0  0  0
   -5.9801    5.7357  -14.7855 O   0  0  0  0  0  0  0  0  0  0  0  0
   -7.1922    4.5550  -16.4669 C   0  0  2  0  0  0  0  0  0  0  0  0
   -7.2037    5.5504  -17.6193 C   0  0  0  0  0  0  0  0  0  0  0  0
   -8.4250    4.7540  -18.0851 C   0  0  0  0  0  0  0  0  0  0  0  0
   -8.5861    4.1918  -16.7451 O   0  0  0  0  0  0  0  0  0  0  0  0
   -6.8400    4.6062  -11.8735 C   0  0  0  0  0  0  0  0  0  0  0  0
  1  2  1  0
  2  3  1  0
  2  4  1  0
  4  5  1  0
  5  6  2  0
  6  7  1  0
  7  8  1  0
  8  9  1  0
  9 10  2  0
 11  9  1  1
 11 12  1  0
 12 13  1  0
 13 14  1  0
  7 15  2  0
 15  4  1  0
 14 11  1  0
M  END
>  <energy_score>  (3680) 
-26.692337

>  <alias>  (3680) 
OTWDQVPHKJUKLL-UHFFFAOYSA-N-P35-P35-P86-601527

>  <HIPPO Pose ID>  (3680) 
79473

>  <smiles>  (3680) 
CC(C)n1cnc(NC(=O)C2CCO2)c1

>  <inchikey>  (3680) 
OTWDQVPHKJUKLL-UHFFFAOYSA-N

>  <distance_score>  (3680) 
1.534058

>  <ref_mols>  (3680) 
Z0719a,Z1597a

>  <ref_pdb>  (3680) 
Z0719a

>  <HIPPO Compound ID>  (3680) 
150522

>  <name>  (3680) 
OTWDQVPHKJUKLL-UHFFFAOYSA-N-P35-P35-P86-601527

>  <inspiration_score>  (3680) 
None

$$$$
IAFVVXQJXKSUSS-UHFFFAOYSA-N-P86-P35-P86-601527
     RDKit          3D

 15 17  0  0  0  0  0  0  0  0999 V2000
   -4.4798    6.2612  -17.7644 O   0  0  0  0  0  0  0  0  0  0  0  0
   -5.0661    6.2063  -18.7805 C   0  0  0  0  0  0  0  0  0  0  0  0
   -6.4214    5.5251  -19.1268 N   0  0  0  0  0  0  0  0  0  0  0  0
   -7.3269    4.8913  -18.3235 C   0  0  0  0  0  0  0  0  0  0  0  0
   -8.5172    4.2509  -18.6408 C   0  0  0  0  0  0  0  0  0  0  0  0
   -9.1863    3.8032  -17.5132 N   0  0  0  0  0  0  0  0  0  0  0  0
   -8.4156    4.1878  -16.5311 C   0  0  0  0  0  0  0  0  0  0  0  0
   -7.2772    4.7814  -16.9820 N   0  0  0  0  0  0  0  0  0  0  0  0
   -6.4558    5.2959  -15.9162 C   0  0  0  0  0  0  0  0  0  0  0  0
   -7.3831    5.2257  -14.7064 C   0  0  0  0  0  0  0  0  0  0  0  0
   -8.4796    4.2099  -15.0617 C   0  0  0  0  0  0  0  0  0  0  0  0
   -4.4940    6.9090  -20.0595 C   0  0  1  0  0  0  0  0  0  0  0  0
   -3.7707    6.0318  -21.0809 C   0  0  0  0  0  0  0  0  0  0  0  0
   -4.7544    6.6074  -22.0906 C   0  0  0  0  0  0  0  0  0  0  0  0
   -5.4754    7.3161  -21.0571 O   0  0  0  0  0  0  0  0  0  0  0  0
  1  2  2  0
  2  3  1  0
  3  4  1  0
  4  5  2  0
  5  6  1  0
  6  7  2  0
  7  8  1  0
  8  9  1  0
  9 10  1  0
 10 11  1  0
 12  2  1  1
 12 13  1  0
 13 14  1  0
 14 15  1  0
  8  4  1  0
 15 12  1  0
 11  7  1  0
M  END
>  <energy_score>  (3681) 
-11.054619

>  <alias>  (3681) 
IAFVVXQJXKSUSS-UHFFFAOYSA-N-P86-P35-P86-601527

>  <HIPPO Pose ID>  (3681) 
79480

>  <smiles>  (3681) 
O=C(Nc1cnc2n1CCC2)C1CCO1

>  <inchikey>  (3681) 
IAFVVXQJXKSUSS-UHFFFAOYSA-N

>  <distance_score>  (3681) 
1.564667

>  <ref_mols>  (3681) 
Z0719a,Z1597a

>  <ref_pdb>  (3681) 
Z0719a

>  <HIPPO Compound ID>  (3681) 
150525

>  <name>  (3681) 
IAFVVXQJXKSUSS-UHFFFAOYSA-N-P86-P35-P86-601527

>  <inspiration_score>  (3681) 
None

$$$$
WTCDXVZVNXRPBY-UHFFFAOYSA-N-P35-P35-P86-601527
     RDKit          3D

 15 16  0  0  0  0  0  0  0  0999 V2000
   -8.3165    7.1754  -12.2534 C   0  0  0  0  0  0  0  0  0  0  0  0
   -7.9844    5.7793  -11.9060 C   0  0  0  0  0  0  0  0  0  0  0  0
   -7.9967    5.3960  -10.5840 N   0  0  0  0  0  0  0  0  0  0  0  0
   -7.7407    4.1027  -10.5747 C   0  0  0  0  0  0  0  0  0  0  0  0
   -7.7324    3.2518   -9.3624 C   0  0  0  0  0  0  0  0  0  0  0  0
   -7.4621    3.6584  -11.8477 N   0  0  0  0  0  0  0  0  0  0  0  0
   -6.8749    2.3908  -12.2279 C   0  0  0  0  0  0  0  0  0  0  0  0
   -7.6920    4.7014  -12.7189 C   0  0  0  0  0  0  0  0  0  0  0  0
   -7.5935    4.5371  -14.0730 N   0  0  0  0  0  0  0  0  0  0  0  0
   -7.4951    5.5855  -15.2093 C   0  0  0  0  0  0  0  0  0  0  0  0
   -7.5604    6.7541  -15.1715 O   0  0  0  0  0  0  0  0  0  0  0  0
   -7.2393    4.7610  -16.5304 C   0  0  2  0  0  0  0  0  0  0  0  0
   -7.0985    5.4941  -17.8606 C   0  0  0  0  0  0  0  0  0  0  0  0
   -8.2913    4.6623  -18.3082 C   0  0  0  0  0  0  0  0  0  0  0  0
   -8.4156    4.0408  -17.0045 O   0  0  0  0  0  0  0  0  0  0  0  0
  1  2  1  0
  2  3  1  0
  3  4  2  0
  4  5  1  0
  4  6  1  0
  6  7  1  0
  6  8  1  0
  8  9  1  0
  9 10  1  0
 10 11  2  0
 12 10  1  1
 12 13  1  0
 13 14  1  0
 14 15  1  0
  8  2  2  0
 15 12  1  0
M  END
>  <energy_score>  (3682) 
-28.200819

>  <alias>  (3682) 
WTCDXVZVNXRPBY-UHFFFAOYSA-N-P35-P35-P86-601527

>  <HIPPO Pose ID>  (3682) 
79481

>  <smiles>  (3682) 
Cc1nc(C)n(C)c1NC(=O)C1CCO1

>  <inchikey>  (3682) 
WTCDXVZVNXRPBY-UHFFFAOYSA-N

>  <distance_score>  (3682) 
1.422613

>  <ref_mols>  (3682) 
Z0719a,Z1597a

>  <ref_pdb>  (3682) 
Z0719a

>  <HIPPO Compound ID>  (3682) 
150526

>  <name>  (3682) 
WTCDXVZVNXRPBY-UHFFFAOYSA-N-P35-P35-P86-601527

>  <inspiration_score>  (3682) 
None

$$$$
QCSCFCJSRQCUME-UHFFFAOYSA-N-P35-P35-P86-601527
     RDKit          3D

 15 15  0  0  0  0  0  0  0  0999 V2000
   -4.5523    8.5101  -20.8962 C   0  0  0  0  0  0  0  0  0  0  0  0
   -5.0221    7.2946  -20.5864 C   0  0  0  0  0  0  0  0  0  0  0  0
   -4.3809    6.3651  -19.6074 C   0  0  0  0  0  0  0  0  0  0  0  0
   -5.0968    6.2507  -18.2556 C   0  0  0  0  0  0  0  0  0  0  0  0
   -4.6062    6.6445  -17.2672 O   0  0  0  0  0  0  0  0  0  0  0  0
   -6.4278    5.4710  -18.4815 N   0  0  0  0  0  0  0  0  0  0  0  0
   -7.3235    4.9647  -17.5812 C   0  0  0  0  0  0  0  0  0  0  0  0
   -8.4538    4.2047  -17.7926 C   0  0  0  0  0  0  0  0  0  0  0  0
   -8.8278    3.5686  -16.6259 N   0  0  0  0  0  0  0  0  0  0  0  0
   -7.9271    3.9246  -15.7234 C   0  0  0  0  0  0  0  0  0  0  0  0
   -7.6347    3.3439  -14.3626 C   0  0  0  0  0  0  0  0  0  0  0  0
   -7.2266    5.0023  -16.2153 N   0  0  0  0  0  0  0  0  0  0  0  0
   -6.6777    6.0377  -15.3723 C   0  0  0  0  0  0  0  0  0  0  0  0
   -7.5174    6.2781  -14.1869 C   0  0  0  0  0  0  0  0  0  0  0  0
   -8.1971    6.3983  -13.2524 N   0  0  0  0  0  0  0  0  0  0  0  0
  1  2  2  0
  2  3  1  0
  3  4  1  0
  4  5  2  0
  4  6  1  0
  6  7  1  0
  7  8  2  0
  8  9  1  0
  9 10  2  0
 10 11  1  0
 10 12  1  0
 12 13  1  0
 13 14  1  0
 14 15  3  0
 12  7  1  0
M  END
>  <energy_score>  (3683) 
-8.442648

>  <alias>  (3683) 
QCSCFCJSRQCUME-UHFFFAOYSA-N-P35-P35-P86-601527

>  <HIPPO Pose ID>  (3683) 
79485

>  <smiles>  (3683) 
C=CCC(=O)Nc1cnc(C)n1CC#N

>  <inchikey>  (3683) 
QCSCFCJSRQCUME-UHFFFAOYSA-N

>  <distance_score>  (3683) 
1.797132

>  <ref_mols>  (3683) 
Z0719a,Z1597a

>  <ref_pdb>  (3683) 
Z0719a

>  <HIPPO Compound ID>  (3683) 
150528

>  <name>  (3683) 
QCSCFCJSRQCUME-UHFFFAOYSA-N-P35-P35-P86-601527

>  <inspiration_score>  (3683) 
None

$$$$
PJDDYASRESKWLP-UHFFFAOYSA-N-P86-P35-P86-601527
     RDKit          3D

 15 15  0  0  0  0  0  0  0  0999 V2000
   -4.9142    6.9196  -21.8008 C   0  0  0  0  0  0  0  0  0  0  0  0
   -4.3445    7.1118  -20.6048 C   0  0  0  0  0  0  0  0  0  0  0  0
   -3.9527    6.0151  -19.6631 C   0  0  0  0  0  0  0  0  0  0  0  0
   -4.7011    6.1245  -18.3250 C   0  0  0  0  0  0  0  0  0  0  0  0
   -4.2552    6.6620  -17.3850 O   0  0  0  0  0  0  0  0  0  0  0  0
   -6.0289    5.3236  -18.4963 N   0  0  0  0  0  0  0  0  0  0  0  0
   -6.9793    4.9608  -17.5697 C   0  0  0  0  0  0  0  0  0  0  0  0
   -8.1629    4.3162  -17.8595 C   0  0  0  0  0  0  0  0  0  0  0  0
   -8.6735    3.8590  -19.1471 C   0  0  0  0  0  0  0  0  0  0  0  0
   -8.9087    4.0938  -16.7436 N   0  0  0  0  0  0  0  0  0  0  0  0
   -8.2071    4.5822  -15.7481 C   0  0  0  0  0  0  0  0  0  0  0  0
   -8.6799    4.6088  -14.3468 C   0  0  0  0  0  0  0  0  0  0  0  0
   -6.9905    5.0643  -16.1921 N   0  0  0  0  0  0  0  0  0  0  0  0
   -5.8984    5.5222  -15.3778 C   0  0  0  0  0  0  0  0  0  0  0  0
   -5.8469    5.1685  -13.9009 C   0  0  0  0  0  0  0  0  0  0  0  0
  1  2  2  0
  2  3  1  0
  3  4  1  0
  4  5  2  0
  4  6  1  0
  6  7  1  0
  7  8  2  0
  8  9  1  0
  8 10  1  0
 10 11  2  0
 11 12  1  0
 11 13  1  0
 13 14  1  0
 14 15  1  0
 13  7  1  0
M  END
>  <energy_score>  (3684) 
-14.551465

>  <alias>  (3684) 
PJDDYASRESKWLP-UHFFFAOYSA-N-P86-P35-P86-601527

>  <HIPPO Pose ID>  (3684) 
79494

>  <smiles>  (3684) 
C=CCC(=O)Nc1c(C)nc(C)n1CC

>  <inchikey>  (3684) 
PJDDYASRESKWLP-UHFFFAOYSA-N

>  <distance_score>  (3684) 
1.299761

>  <ref_mols>  (3684) 
Z0719a,Z1597a

>  <ref_pdb>  (3684) 
Z0719a

>  <HIPPO Compound ID>  (3684) 
150532

>  <name>  (3684) 
PJDDYASRESKWLP-UHFFFAOYSA-N-P86-P35-P86-601527

>  <inspiration_score>  (3684) 
None

$$$$
OWEPZYDYTXAQIV-UHFFFAOYSA-N-P35-P35-P86-601527
     RDKit          3D

 15 15  0  0  0  0  0  0  0  0999 V2000
   -9.0665    4.3995  -15.4463 C   0  0  0  0  0  0  0  0  0  0  0  0
   -8.2178    4.4664  -16.5996 N   0  0  0  0  0  0  0  0  0  0  0  0
   -8.6301    4.3958  -17.8892 C   0  0  0  0  0  0  0  0  0  0  0  0
   -7.6197    4.5972  -18.7002 N   0  0  0  0  0  0  0  0  0  0  0  0
   -6.5400    4.8445  -17.9091 C   0  0  0  0  0  0  0  0  0  0  0  0
   -5.4088    5.2580  -18.5316 N   0  0  0  0  0  0  0  0  0  0  0  0
   -4.1662    6.0077  -17.9742 C   0  0  0  0  0  0  0  0  0  0  0  0
   -3.8947    6.3144  -16.8781 O   0  0  0  0  0  0  0  0  0  0  0  0
   -3.2507    6.4193  -19.1793 C   0  0  0  0  0  0  0  0  0  0  0  0
   -3.9923    7.1806  -20.2876 C   0  0  0  0  0  0  0  0  0  0  0  0
   -2.1036    7.3098  -18.6655 C   0  0  0  0  0  0  0  0  0  0  0  0
   -2.4696    4.9168  -19.8837 S   0  0  0  0  0  0  0  0  0  0  0  0
   -6.8624    4.6618  -16.5863 C   0  0  0  0  0  0  0  0  0  0  0  0
   -6.0773    4.5947  -15.4125 C   0  0  0  0  0  0  0  0  0  0  0  0
   -5.5192    4.4370  -14.4080 N   0  0  0  0  0  0  0  0  0  0  0  0
  1  2  1  0
  2  3  1  0
  3  4  2  0
  4  5  1  0
  5  6  1  0
  6  7  1  0
  7  8  2  0
  7  9  1  0
  9 10  1  0
  9 11  1  0
  9 12  1  0
  5 13  2  0
 13 14  1  0
 14 15  3  0
 13  2  1  0
M  END
>  <energy_score>  (3685) 
-28.203626

>  <alias>  (3685) 
OWEPZYDYTXAQIV-UHFFFAOYSA-N-P35-P35-P86-601527

>  <HIPPO Pose ID>  (3685) 
79509

>  <smiles>  (3685) 
Cn1cnc(NC(=O)C(C)(C)S)c1C#N

>  <inchikey>  (3685) 
OWEPZYDYTXAQIV-UHFFFAOYSA-N

>  <distance_score>  (3685) 
1.384172

>  <ref_mols>  (3685) 
Z0719a,Z1597a

>  <ref_pdb>  (3685) 
Z0719a

>  <HIPPO Compound ID>  (3685) 
150540

>  <name>  (3685) 
OWEPZYDYTXAQIV-UHFFFAOYSA-N-P35-P35-P86-601527

>  <inspiration_score>  (3685) 
None

$$$$
OMXOQZONHOOIAO-UHFFFAOYSA-N-P86-P35-P86-601527
     RDKit          3D

 15 16  0  0  0  0  0  0  0  0999 V2000
   -4.6868    6.7686  -21.3915 C   0  0  0  0  0  0  0  0  0  0  0  0
   -3.9671    6.4348  -20.0861 C   0  0  0  0  0  0  0  0  0  0  0  0
   -2.9408    7.5523  -19.8099 C   0  0  0  0  0  0  0  0  0  0  0  0
   -2.9930    4.8873  -20.2600 S   0  0  0  0  0  0  0  0  0  0  0  0
   -4.9136    6.2958  -18.8427 C   0  0  0  0  0  0  0  0  0  0  0  0
   -4.6744    6.8695  -17.8474 O   0  0  0  0  0  0  0  0  0  0  0  0
   -6.0817    5.3160  -19.1911 N   0  0  0  0  0  0  0  0  0  0  0  0
   -7.0735    4.8039  -18.4044 C   0  0  0  0  0  0  0  0  0  0  0  0
   -8.2117    4.0780  -18.7278 C   0  0  0  0  0  0  0  0  0  0  0  0
   -8.9731    3.7738  -17.6098 N   0  0  0  0  0  0  0  0  0  0  0  0
   -8.2960    4.3059  -16.6279 C   0  0  0  0  0  0  0  0  0  0  0  0
   -7.1581    4.9035  -17.0648 N   0  0  0  0  0  0  0  0  0  0  0  0
   -6.3351    5.4096  -15.9987 C   0  0  0  0  0  0  0  0  0  0  0  0
   -7.0216    4.8785  -14.7442 C   0  0  0  0  0  0  0  0  0  0  0  0
   -8.4284    4.4197  -15.1687 C   0  0  0  0  0  0  0  0  0  0  0  0
  1  2  1  0
  2  3  1  0
  2  4  1  0
  2  5  1  0
  5  6  2  0
  5  7  1  0
  7  8  1  0
  8  9  2  0
  9 10  1  0
 10 11  2  0
 11 12  1  0
 12 13  1  0
 13 14  1  0
 14 15  1  0
 12  8  1  0
 15 11  1  0
M  END
>  <energy_score>  (3686) 
-4.875906

>  <alias>  (3686) 
OMXOQZONHOOIAO-UHFFFAOYSA-N-P86-P35-P86-601527

>  <HIPPO Pose ID>  (3686) 
79522

>  <smiles>  (3686) 
CC(C)(S)C(=O)Nc1cnc2n1CCC2

>  <inchikey>  (3686) 
OMXOQZONHOOIAO-UHFFFAOYSA-N

>  <distance_score>  (3686) 
1.650095

>  <ref_mols>  (3686) 
Z0719a,Z1597a

>  <ref_pdb>  (3686) 
Z0719a

>  <HIPPO Compound ID>  (3686) 
150546

>  <name>  (3686) 
OMXOQZONHOOIAO-UHFFFAOYSA-N-P86-P35-P86-601527

>  <inspiration_score>  (3686) 
None

$$$$
SUPDYFUTOGPNCE-UHFFFAOYSA-N-P86-P35-P86-601527
     RDKit          3D

 15 15  0  0  0  0  0  0  0  0999 V2000
   -4.9620    7.6498  -22.3611 C   0  0  0  0  0  0  0  0  0  0  0  0
   -4.3464    7.0371  -21.3415 C   0  0  0  0  0  0  0  0  0  0  0  0
   -4.6890    5.6628  -20.8489 C   0  0  0  0  0  0  0  0  0  0  0  0
   -4.9425    5.6868  -19.3397 C   0  0  0  0  0  0  0  0  0  0  0  0
   -4.0888    5.9541  -18.5835 O   0  0  0  0  0  0  0  0  0  0  0  0
   -6.4080    5.2312  -19.0855 N   0  0  0  0  0  0  0  0  0  0  0  0
   -7.0483    4.9403  -17.9323 C   0  0  0  0  0  0  0  0  0  0  0  0
   -6.5077    5.0011  -16.6791 C   0  0  0  0  0  0  0  0  0  0  0  0
   -7.4718    4.5232  -15.8456 N   0  0  0  0  0  0  0  0  0  0  0  0
   -7.3859    4.3217  -14.4104 C   0  0  0  0  0  0  0  0  0  0  0  0
   -5.9737    4.3141  -13.7562 C   0  0  0  0  0  0  0  0  0  0  0  0
   -5.5762    5.7392  -13.3471 C   0  0  0  0  0  0  0  0  0  0  0  0
   -5.9324    3.4114  -12.5266 C   0  0  0  0  0  0  0  0  0  0  0  0
   -8.5687    4.2537  -16.6174 C   0  0  0  0  0  0  0  0  0  0  0  0
   -8.3334    4.5054  -17.8884 N   0  0  0  0  0  0  0  0  0  0  0  0
  1  2  2  0
  2  3  1  0
  3  4  1  0
  4  5  2  0
  4  6  1  0
  6  7  1  0
  7  8  2  0
  8  9  1  0
  9 10  1  0
 10 11  1  0
 11 12  1  0
 11 13  1  0
  9 14  1  0
 14 15  2  0
 15  7  1  0
M  END
>  <energy_score>  (3687) 
-13.186615

>  <alias>  (3687) 
SUPDYFUTOGPNCE-UHFFFAOYSA-N-P86-P35-P86-601527

>  <HIPPO Pose ID>  (3687) 
79524

>  <smiles>  (3687) 
C=CCC(=O)Nc1cn(CC(C)C)cn1

>  <inchikey>  (3687) 
SUPDYFUTOGPNCE-UHFFFAOYSA-N

>  <distance_score>  (3687) 
1.615999

>  <ref_mols>  (3687) 
Z0719a,Z1597a

>  <ref_pdb>  (3687) 
Z0719a

>  <HIPPO Compound ID>  (3687) 
150547

>  <name>  (3687) 
SUPDYFUTOGPNCE-UHFFFAOYSA-N-P86-P35-P86-601527

>  <inspiration_score>  (3687) 
None

$$$$
JPZTYFDCXAMGKA-UHFFFAOYSA-N-P86-P35-P86-601527
     RDKit          3D

 15 17  0  0  0  0  0  0  0  0999 V2000
   -4.2940    5.4977  -18.2598 O   0  0  0  0  0  0  0  0  0  0  0  0
   -5.0047    5.4791  -19.1827 C   0  0  0  0  0  0  0  0  0  0  0  0
   -6.5038    5.1501  -19.2803 N   0  0  0  0  0  0  0  0  0  0  0  0
   -7.3751    4.7079  -18.3340 C   0  0  0  0  0  0  0  0  0  0  0  0
   -8.6438    4.1737  -18.4903 C   0  0  0  0  0  0  0  0  0  0  0  0
   -9.2358    3.8851  -17.2762 N   0  0  0  0  0  0  0  0  0  0  0  0
   -8.3433    4.2707  -16.4023 C   0  0  0  0  0  0  0  0  0  0  0  0
   -7.2070    4.7230  -16.9998 N   0  0  0  0  0  0  0  0  0  0  0  0
   -6.2540    5.2792  -16.0690 C   0  0  0  0  0  0  0  0  0  0  0  0
   -7.0708    5.3744  -14.7762 C   0  0  0  0  0  0  0  0  0  0  0  0
   -8.2768    4.4243  -14.9419 C   0  0  0  0  0  0  0  0  0  0  0  0
   -4.4805    5.8221  -20.5349 C   0  0  1  0  0  0  0  0  0  0  0  0
   -4.4062    7.2750  -20.9378 C   0  0  0  0  0  0  0  0  0  0  0  0
   -3.1462    6.5019  -20.6869 C   0  0  2  0  0  0  0  0  0  0  0  0
   -2.1184    6.1422  -22.0542 Cl  0  0  0  0  0  0  0  0  0  0  0  0
  1  2  2  0
  2  3  1  0
  3  4  1  0
  4  5  2  0
  5  6  1  0
  6  7  2  0
  7  8  1  0
  8  9  1  0
  9 10  1  0
 10 11  1  0
 12  2  1  1
 12 13  1  0
 13 14  1  0
 14 15  1  6
  8  4  1  0
 14 12  1  0
 11  7  1  0
M  END
>  <energy_score>  (3688) 
-24.718515

>  <alias>  (3688) 
JPZTYFDCXAMGKA-UHFFFAOYSA-N-P86-P35-P86-601527

>  <HIPPO Pose ID>  (3688) 
79526

>  <smiles>  (3688) 
O=C(Nc1cnc2n1CCC2)C1CC1Cl

>  <inchikey>  (3688) 
JPZTYFDCXAMGKA-UHFFFAOYSA-N

>  <distance_score>  (3688) 
1.215016

>  <ref_mols>  (3688) 
Z0719a,Z1597a

>  <ref_pdb>  (3688) 
Z0719a

>  <HIPPO Compound ID>  (3688) 
150548

>  <name>  (3688) 
JPZTYFDCXAMGKA-UHFFFAOYSA-N-P86-P35-P86-601527

>  <inspiration_score>  (3688) 
None

$$$$
GDIHCEXSURJWEA-UHFFFAOYSA-N-P86-P35-P86-601527
     RDKit          3D

 15 16  0  0  0  0  0  0  0  0999 V2000
   -2.9570    8.0335  -19.8919 C   0  0  0  0  0  0  0  0  0  0  0  0
   -3.4786    7.6826  -21.1684 O   0  0  0  0  0  0  0  0  0  0  0  0
   -4.6727    6.8983  -21.1006 C   0  0  0  0  0  0  0  0  0  0  0  0
   -4.4474    5.5017  -20.5506 C   0  0  0  0  0  0  0  0  0  0  0  0
   -4.9946    5.3858  -19.1373 C   0  0  0  0  0  0  0  0  0  0  0  0
   -4.3357    5.5616  -18.1866 O   0  0  0  0  0  0  0  0  0  0  0  0
   -6.4959    4.9906  -19.2657 N   0  0  0  0  0  0  0  0  0  0  0  0
   -7.4056    4.6604  -18.3121 C   0  0  0  0  0  0  0  0  0  0  0  0
   -8.6933    4.1745  -18.4663 C   0  0  0  0  0  0  0  0  0  0  0  0
   -9.3048    3.9380  -17.2514 N   0  0  0  0  0  0  0  0  0  0  0  0
   -8.4007    4.2984  -16.3787 C   0  0  0  0  0  0  0  0  0  0  0  0
   -7.2544    4.7209  -16.9779 N   0  0  0  0  0  0  0  0  0  0  0  0
   -6.2864    5.2529  -16.0493 C   0  0  0  0  0  0  0  0  0  0  0  0
   -7.0933    5.3578  -14.7515 C   0  0  0  0  0  0  0  0  0  0  0  0
   -8.3203    4.4363  -14.9178 C   0  0  0  0  0  0  0  0  0  0  0  0
  1  2  1  0
  2  3  1  0
  3  4  1  0
  4  5  1  0
  5  6  2  0
  5  7  1  0
  7  8  1  0
  8  9  2  0
  9 10  1  0
 10 11  2  0
 11 12  1  0
 12 13  1  0
 13 14  1  0
 14 15  1  0
 12  8  1  0
 15 11  1  0
M  END
>  <energy_score>  (3689) 
-10.998386

>  <alias>  (3689) 
GDIHCEXSURJWEA-UHFFFAOYSA-N-P86-P35-P86-601527

>  <HIPPO Pose ID>  (3689) 
79556

>  <smiles>  (3689) 
COCCC(=O)Nc1cnc2n1CCC2

>  <inchikey>  (3689) 
GDIHCEXSURJWEA-UHFFFAOYSA-N

>  <distance_score>  (3689) 
1.108598

>  <ref_mols>  (3689) 
Z0719a,Z1597a

>  <ref_pdb>  (3689) 
Z0719a

>  <HIPPO Compound ID>  (3689) 
150563

>  <name>  (3689) 
GDIHCEXSURJWEA-UHFFFAOYSA-N-P86-P35-P86-601527

>  <inspiration_score>  (3689) 
None

$$$$
SSXFFVJNSRJDPA-UHFFFAOYSA-N-P35-P35-P86-601527
     RDKit          3D

 15 15  0  0  0  0  0  0  0  0999 V2000
   -3.0787    7.3859  -22.1443 C   0  0  0  0  0  0  0  0  0  0  0  0
   -3.0164    6.2807  -21.2430 O   0  0  0  0  0  0  0  0  0  0  0  0
   -3.9636    6.4542  -20.1715 C   0  0  0  0  0  0  0  0  0  0  0  0
   -3.8445    5.2613  -19.2411 C   0  0  0  0  0  0  0  0  0  0  0  0
   -4.7974    5.3216  -18.0570 C   0  0  0  0  0  0  0  0  0  0  0  0
   -4.4419    5.6301  -16.9883 O   0  0  0  0  0  0  0  0  0  0  0  0
   -6.1864    4.8459  -18.5556 N   0  0  0  0  0  0  0  0  0  0  0  0
   -7.3273    4.5779  -17.8668 C   0  0  0  0  0  0  0  0  0  0  0  0
   -8.4357    4.2966  -18.6184 N   0  0  0  0  0  0  0  0  0  0  0  0
   -9.4414    4.1903  -17.7816 C   0  0  0  0  0  0  0  0  0  0  0  0
   -9.0160    4.2959  -16.4976 N   0  0  0  0  0  0  0  0  0  0  0  0
   -7.6672    4.5253  -16.5452 C   0  0  0  0  0  0  0  0  0  0  0  0
   -6.9776    4.6262  -15.3285 N   0  0  0  0  0  0  0  0  0  0  0  0
   -5.9479    3.9663  -15.1724 O   0  0  0  0  0  0  0  0  0  0  0  0
   -7.5455    5.3210  -14.4802 O   0  0  0  0  0  0  0  0  0  0  0  0
  1  2  1  0
  2  3  1  0
  3  4  1  0
  4  5  1  0
  5  6  2  0
  5  7  1  0
  7  8  1  0
  8  9  1  0
  9 10  2  0
 10 11  1  0
 11 12  1  0
 12 13  1  0
 13 14  2  0
 13 15  1  0
 12  8  2  0
M  CHG  2  13   1  15  -1
M  END
>  <energy_score>  (3690) 
-31.822464

>  <alias>  (3690) 
SSXFFVJNSRJDPA-UHFFFAOYSA-N-P35-P35-P86-601527

>  <HIPPO Pose ID>  (3690) 
79557

>  <smiles>  (3690) 
COCCC(=O)Nc1nc[nH]c1[N+](=O)[O-]

>  <inchikey>  (3690) 
SSXFFVJNSRJDPA-UHFFFAOYSA-N

>  <distance_score>  (3690) 
1.432268

>  <ref_mols>  (3690) 
Z0719a,Z1597a

>  <ref_pdb>  (3690) 
Z0719a

>  <HIPPO Compound ID>  (3690) 
150564

>  <name>  (3690) 
SSXFFVJNSRJDPA-UHFFFAOYSA-N-P35-P35-P86-601527

>  <inspiration_score>  (3690) 
None

$$$$
SEPFIDIRCBNIIT-UHFFFAOYSA-N-P86-P35-P86-601527
     RDKit          3D

 15 16  0  0  0  0  0  0  0  0999 V2000
   -3.4041    8.5591  -22.5862 C   0  0  0  0  0  0  0  0  0  0  0  0
   -4.3382    7.7695  -22.0399 C   0  0  0  0  0  0  0  0  0  0  0  0
   -4.1574    6.3101  -21.7737 C   0  0  0  0  0  0  0  0  0  0  0  0
   -4.2330    6.0872  -20.2684 C   0  0  0  0  0  0  0  0  0  0  0  0
   -3.3649    6.3886  -19.5444 O   0  0  0  0  0  0  0  0  0  0  0  0
   -5.6499    5.5229  -19.9632 N   0  0  0  0  0  0  0  0  0  0  0  0
   -6.2113    5.1524  -18.7950 C   0  0  0  0  0  0  0  0  0  0  0  0
   -7.4495    4.5810  -18.6412 C   0  0  0  0  0  0  0  0  0  0  0  0
   -7.6323    4.5176  -17.2952 N   0  0  0  0  0  0  0  0  0  0  0  0
   -8.7705    4.1285  -16.6727 N   0  0  0  0  0  0  0  0  0  0  0  0
   -8.6846    4.2698  -15.3911 C   0  0  0  0  0  0  0  0  0  0  0  0
   -7.5170    4.7457  -14.6193 C   0  0  0  0  0  0  0  0  0  0  0  0
   -6.4380    5.1142  -15.3102 C   0  0  0  0  0  0  0  0  0  0  0  0
   -6.4826    5.0316  -16.7128 C   0  0  0  0  0  0  0  0  0  0  0  0
   -5.6009    5.3993  -17.6091 N   0  0  0  0  0  0  0  0  0  0  0  0
  1  2  2  0
  2  3  1  0
  3  4  1  0
  4  5  2  0
  4  6  1  0
  6  7  1  0
  7  8  2  0
  8  9  1  0
  9 10  1  0
 10 11  2  0
 11 12  1  0
 12 13  2  0
 13 14  1  0
 14 15  2  0
 15  7  1  0
 14  9  1  0
M  END
>  <energy_score>  (3691) 
-26.778431

>  <alias>  (3691) 
SEPFIDIRCBNIIT-UHFFFAOYSA-N-P86-P35-P86-601527

>  <HIPPO Pose ID>  (3691) 
79564

>  <smiles>  (3691) 
C=CCC(=O)Nc1cn2ncccc2n1

>  <inchikey>  (3691) 
SEPFIDIRCBNIIT-UHFFFAOYSA-N

>  <distance_score>  (3691) 
1.598324

>  <ref_mols>  (3691) 
Z0719a,Z1597a

>  <ref_pdb>  (3691) 
Z0719a

>  <HIPPO Compound ID>  (3691) 
150567

>  <name>  (3691) 
SEPFIDIRCBNIIT-UHFFFAOYSA-N-P86-P35-P86-601527

>  <inspiration_score>  (3691) 
None

$$$$
SJVMCWUHJGRQTO-UHFFFAOYSA-N-P86-P35-P86-601527
     RDKit          3D

 15 16  0  0  0  0  0  0  0  0999 V2000
   -2.2889    6.3370  -22.1887 C   0  0  0  0  0  0  0  0  0  0  0  0
   -3.3346    7.1579  -22.0212 C   0  0  0  0  0  0  0  0  0  0  0  0
   -4.7028    6.7288  -21.5898 C   0  0  0  0  0  0  0  0  0  0  0  0
   -4.8316    6.8244  -20.0673 C   0  0  0  0  0  0  0  0  0  0  0  0
   -4.1352    7.4758  -19.3911 O   0  0  0  0  0  0  0  0  0  0  0  0
   -6.0018    5.8749  -19.6882 N   0  0  0  0  0  0  0  0  0  0  0  0
   -6.4587    5.4883  -18.4807 C   0  0  0  0  0  0  0  0  0  0  0  0
   -7.5727    4.7200  -18.2504 C   0  0  0  0  0  0  0  0  0  0  0  0
   -7.6650    4.6729  -16.8889 N   0  0  0  0  0  0  0  0  0  0  0  0
   -8.6703    4.1918  -16.0726 C   0  0  0  0  0  0  0  0  0  0  0  0
   -8.5291    4.3195  -14.7479 C   0  0  0  0  0  0  0  0  0  0  0  0
   -7.2517    4.9076  -14.2860 C   0  0  0  0  0  0  0  0  0  0  0  0
   -6.3161    5.3943  -15.0307 N   0  0  0  0  0  0  0  0  0  0  0  0
   -6.5395    5.3172  -16.3716 C   0  0  0  0  0  0  0  0  0  0  0  0
   -5.8355    5.8562  -17.3376 N   0  0  0  0  0  0  0  0  0  0  0  0
  1  2  2  0
  2  3  1  0
  3  4  1  0
  4  5  2  0
  4  6  1  0
  6  7  1  0
  7  8  2  0
  8  9  1  0
  9 10  1  0
 10 11  2  0
 11 12  1  0
 12 13  2  0
 13 14  1  0
 14 15  2  0
 15  7  1  0
 14  9  1  0
M  END
>  <energy_score>  (3692) 
-25.264725

>  <alias>  (3692) 
SJVMCWUHJGRQTO-UHFFFAOYSA-N-P86-P35-P86-601527

>  <HIPPO Pose ID>  (3692) 
79566

>  <smiles>  (3692) 
C=CCC(=O)Nc1cn2cccnc2n1

>  <inchikey>  (3692) 
SJVMCWUHJGRQTO-UHFFFAOYSA-N

>  <distance_score>  (3692) 
1.636644

>  <ref_mols>  (3692) 
Z0719a,Z1597a

>  <ref_pdb>  (3692) 
Z0719a

>  <HIPPO Compound ID>  (3692) 
150568

>  <name>  (3692) 
SJVMCWUHJGRQTO-UHFFFAOYSA-N-P86-P35-P86-601527

>  <inspiration_score>  (3692) 
None

$$$$
LLXHTPQMBQAGDY-UHFFFAOYSA-N-P86-P35-P86-601527
     RDKit          3D

 15 16  0  0  0  0  0  0  0  0999 V2000
   -3.1789    8.0062  -18.3559 O   0  0  0  0  0  0  0  0  0  0  0  0
   -3.4970    7.0725  -18.9824 C   0  0  0  0  0  0  0  0  0  0  0  0
   -2.9402    6.7755  -20.3697 C   0  0  0  0  0  0  0  0  0  0  0  0
   -3.9705    6.8970  -21.4864 C   0  0  0  0  0  0  0  0  0  0  0  0
   -4.5675    8.6009  -21.7248 S   0  0  0  0  0  0  0  0  0  0  0  0
   -4.4912    5.9275  -18.6481 N   0  0  0  0  0  0  0  0  0  0  0  0
   -5.3130    5.7593  -17.5855 C   0  0  0  0  0  0  0  0  0  0  0  0
   -6.3025    4.8162  -17.5400 C   0  0  0  0  0  0  0  0  0  0  0  0
   -6.9636    5.0538  -16.3712 N   0  0  0  0  0  0  0  0  0  0  0  0
   -8.2262    4.4889  -15.9250 C   0  0  0  0  0  0  0  0  0  0  0  0
   -8.9768    3.7482  -16.9970 C   0  0  0  0  0  0  0  0  0  0  0  0
  -10.2858    4.2528  -17.5534 C   0  0  0  0  0  0  0  0  0  0  0  0
   -9.0943    4.2176  -18.4384 C   0  0  0  0  0  0  0  0  0  0  0  0
   -6.2648    6.0196  -15.7052 C   0  0  0  0  0  0  0  0  0  0  0  0
   -5.2932    6.5005  -16.4485 N   0  0  0  0  0  0  0  0  0  0  0  0
  1  2  2  0
  2  3  1  0
  3  4  1  0
  4  5  1  0
  2  6  1  0
  6  7  1  0
  7  8  2  0
  8  9  1  0
  9 10  1  0
 10 11  1  0
 11 12  1  0
 12 13  1  0
  9 14  1  0
 14 15  2  0
 15  7  1  0
 13 11  1  0
M  END
>  <energy_score>  (3693) 
-19.23429

>  <alias>  (3693) 
LLXHTPQMBQAGDY-UHFFFAOYSA-N-P86-P35-P86-601527

>  <HIPPO Pose ID>  (3693) 
79570

>  <smiles>  (3693) 
O=C(CCS)Nc1cn(CC2CC2)cn1

>  <inchikey>  (3693) 
LLXHTPQMBQAGDY-UHFFFAOYSA-N

>  <distance_score>  (3693) 
1.875297

>  <ref_mols>  (3693) 
Z0719a,Z1597a

>  <ref_pdb>  (3693) 
Z0719a

>  <HIPPO Compound ID>  (3693) 
150570

>  <name>  (3693) 
LLXHTPQMBQAGDY-UHFFFAOYSA-N-P86-P35-P86-601527

>  <inspiration_score>  (3693) 
None

$$$$
LYRJZZBGOGOSKZ-UHFFFAOYSA-N-P35-P35-P86-601527
     RDKit          3D

 15 15  0  0  0  0  0  0  0  0999 V2000
   -8.9275    4.6706  -17.7775 C   0  0  0  0  0  0  0  0  0  0  0  0
   -8.1719    4.5486  -16.5623 N   0  0  0  0  0  0  0  0  0  0  0  0
   -8.7408    4.5288  -15.3382 C   0  0  0  0  0  0  0  0  0  0  0  0
   -7.8709    4.2597  -14.4118 N   0  0  0  0  0  0  0  0  0  0  0  0
   -6.6741    4.0676  -15.0807 C   0  0  0  0  0  0  0  0  0  0  0  0
   -5.6552    3.3635  -14.3294 N   0  0  0  0  0  0  0  0  0  0  0  0
   -6.0515    2.4369  -13.5991 O   0  0  0  0  0  0  0  0  0  0  0  0
   -4.4709    3.6828  -14.4771 O   0  0  0  0  0  0  0  0  0  0  0  0
   -6.8036    4.4103  -16.4269 C   0  0  0  0  0  0  0  0  0  0  0  0
   -6.0639    4.5892  -17.5687 N   0  0  0  0  0  0  0  0  0  0  0  0
   -4.5867    5.0390  -17.7546 C   0  0  0  0  0  0  0  0  0  0  0  0
   -3.7556    5.2500  -16.9635 O   0  0  0  0  0  0  0  0  0  0  0  0
   -4.4751    5.2557  -19.2668 C   0  0  0  0  0  0  0  0  0  0  0  0
   -3.2878    6.0761  -19.7335 C   0  0  0  0  0  0  0  0  0  0  0  0
   -1.7836    5.0599  -19.8684 S   0  0  0  0  0  0  0  0  0  0  0  0
  1  2  1  0
  2  3  1  0
  3  4  2  0
  4  5  1  0
  5  6  1  0
  6  7  2  0
  6  8  1  0
  5  9  2  0
  9 10  1  0
 10 11  1  0
 11 12  2  0
 11 13  1  0
 13 14  1  0
 14 15  1  0
  9  2  1  0
M  CHG  2   6   1   8  -1
M  END
>  <energy_score>  (3694) 
-37.912297

>  <alias>  (3694) 
LYRJZZBGOGOSKZ-UHFFFAOYSA-N-P35-P35-P86-601527

>  <HIPPO Pose ID>  (3694) 
79571

>  <smiles>  (3694) 
Cn1cnc([N+](=O)[O-])c1NC(=O)CCS

>  <inchikey>  (3694) 
LYRJZZBGOGOSKZ-UHFFFAOYSA-N

>  <distance_score>  (3694) 
1.926164

>  <ref_mols>  (3694) 
Z0719a,Z1597a

>  <ref_pdb>  (3694) 
Z0719a

>  <HIPPO Compound ID>  (3694) 
150571

>  <name>  (3694) 
LYRJZZBGOGOSKZ-UHFFFAOYSA-N-P35-P35-P86-601527

>  <inspiration_score>  (3694) 
None

$$$$
IOIKESUJOMERTB-UHFFFAOYSA-N-P86-P35-P86-601527
     RDKit          3D

 15 16  0  0  0  0  0  0  0  0999 V2000
   -3.0581    6.7933  -18.8804 O   0  0  0  0  0  0  0  0  0  0  0  0
   -3.6035    6.2502  -19.7597 C   0  0  0  0  0  0  0  0  0  0  0  0
   -3.1021    6.3078  -21.1891 C   0  0  0  0  0  0  0  0  0  0  0  0
   -4.0691    7.0426  -22.1035 C   0  0  0  0  0  0  0  0  0  0  0  0
   -4.1385    8.8342  -21.7787 S   0  0  0  0  0  0  0  0  0  0  0  0
   -4.9084    5.4065  -19.7675 N   0  0  0  0  0  0  0  0  0  0  0  0
   -5.7975    5.1563  -18.7804 C   0  0  0  0  0  0  0  0  0  0  0  0
   -6.9596    4.4389  -18.9062 C   0  0  0  0  0  0  0  0  0  0  0  0
   -7.5198    4.4605  -17.6669 N   0  0  0  0  0  0  0  0  0  0  0  0
   -8.7116    3.9142  -17.3333 N   0  0  0  0  0  0  0  0  0  0  0  0
   -8.9717    4.0714  -16.0784 C   0  0  0  0  0  0  0  0  0  0  0  0
   -8.1181    4.7224  -15.0616 C   0  0  0  0  0  0  0  0  0  0  0  0
   -6.9680    5.2545  -15.4810 C   0  0  0  0  0  0  0  0  0  0  0  0
   -6.6424    5.1548  -16.8468 C   0  0  0  0  0  0  0  0  0  0  0  0
   -5.6137    5.6200  -17.5162 N   0  0  0  0  0  0  0  0  0  0  0  0
  1  2  2  0
  2  3  1  0
  3  4  1  0
  4  5  1  0
  2  6  1  0
  6  7  1  0
  7  8  2  0
  8  9  1  0
  9 10  1  0
 10 11  2  0
 11 12  1  0
 12 13  2  0
 13 14  1  0
 14 15  2  0
 15  7  1  0
 14  9  1  0
M  END
>  <energy_score>  (3695) 
-10.567592

>  <alias>  (3695) 
IOIKESUJOMERTB-UHFFFAOYSA-N-P86-P35-P86-601527

>  <HIPPO Pose ID>  (3695) 
79582

>  <smiles>  (3695) 
O=C(CCS)Nc1cn2ncccc2n1

>  <inchikey>  (3695) 
IOIKESUJOMERTB-UHFFFAOYSA-N

>  <distance_score>  (3695) 
1.68325

>  <ref_mols>  (3695) 
Z0719a,Z1597a

>  <ref_pdb>  (3695) 
Z0719a

>  <HIPPO Compound ID>  (3695) 
150576

>  <name>  (3695) 
IOIKESUJOMERTB-UHFFFAOYSA-N-P86-P35-P86-601527

>  <inspiration_score>  (3695) 
None

$$$$
IIQZYSWBARQEHX-UHFFFAOYSA-N-P35-P35-P86-601527
     RDKit          3D

 15 16  0  0  0  0  0  0  0  0999 V2000
   -4.1073    7.6566  -19.2073 O   0  0  0  0  0  0  0  0  0  0  0  0
   -4.8815    7.1958  -19.9520 C   0  0  0  0  0  0  0  0  0  0  0  0
   -4.9069    7.5695  -21.4224 C   0  0  0  0  0  0  0  0  0  0  0  0
   -3.5446    8.0596  -21.8797 C   0  0  0  0  0  0  0  0  0  0  0  0
   -2.2488    6.7810  -21.9397 S   0  0  0  0  0  0  0  0  0  0  0  0
   -6.0784    6.2430  -19.6960 N   0  0  0  0  0  0  0  0  0  0  0  0
   -6.4833    5.6286  -18.5636 C   0  0  0  0  0  0  0  0  0  0  0  0
   -7.6586    4.9424  -18.3846 C   0  0  0  0  0  0  0  0  0  0  0  0
   -7.7257    4.7577  -17.0342 N   0  0  0  0  0  0  0  0  0  0  0  0
   -8.7942    4.4010  -16.2345 C   0  0  0  0  0  0  0  0  0  0  0  0
   -8.6185    4.4046  -14.9084 C   0  0  0  0  0  0  0  0  0  0  0  0
   -7.2391    4.6685  -14.4379 C   0  0  0  0  0  0  0  0  0  0  0  0
   -6.2325    5.0232  -15.1657 N   0  0  0  0  0  0  0  0  0  0  0  0
   -6.4977    5.1476  -16.4968 C   0  0  0  0  0  0  0  0  0  0  0  0
   -5.7568    5.7126  -17.4206 N   0  0  0  0  0  0  0  0  0  0  0  0
  1  2  2  0
  2  3  1  0
  3  4  1  0
  4  5  1  0
  2  6  1  0
  6  7  1  0
  7  8  2  0
  8  9  1  0
  9 10  1  0
 10 11  2  0
 11 12  1  0
 12 13  2  0
 13 14  1  0
 14 15  2  0
 15  7  1  0
 14  9  1  0
M  END
>  <energy_score>  (3696) 
-31.563005

>  <alias>  (3696) 
IIQZYSWBARQEHX-UHFFFAOYSA-N-P35-P35-P86-601527

>  <HIPPO Pose ID>  (3696) 
79583

>  <smiles>  (3696) 
O=C(CCS)Nc1cn2cccnc2n1

>  <inchikey>  (3696) 
IIQZYSWBARQEHX-UHFFFAOYSA-N

>  <distance_score>  (3696) 
1.747579

>  <ref_mols>  (3696) 
Z0719a,Z1597a

>  <ref_pdb>  (3696) 
Z0719a

>  <HIPPO Compound ID>  (3696) 
150577

>  <name>  (3696) 
IIQZYSWBARQEHX-UHFFFAOYSA-N-P35-P35-P86-601527

>  <inspiration_score>  (3696) 
None

$$$$
APQUZJYICRRMOX-UHFFFAOYSA-N-P35-P35-P86-601527
     RDKit          3D

 15 16  0  0  0  0  0  0  0  0999 V2000
   -4.5694    2.6734  -12.6991 C   0  0  0  0  0  0  0  0  0  0  0  0
   -5.3900    2.0349  -11.5884 C   0  0  0  0  0  0  0  0  0  0  0  0
   -5.7960    2.9910  -10.4368 C   0  0  0  0  0  0  0  0  0  0  0  0
   -6.9998    3.7517  -10.7493 N   0  0  0  0  0  0  0  0  0  0  0  0
   -8.2538    3.2028  -10.7031 C   0  0  0  0  0  0  0  0  0  0  0  0
   -8.9011    3.4897  -11.8108 N   0  0  0  0  0  0  0  0  0  0  0  0
   -8.0547    4.2969  -12.5031 C   0  0  0  0  0  0  0  0  0  0  0  0
   -8.0442    4.2712  -13.8548 N   0  0  0  0  0  0  0  0  0  0  0  0
   -7.0870    4.9387  -14.8615 C   0  0  0  0  0  0  0  0  0  0  0  0
   -6.2026    5.6788  -14.6875 O   0  0  0  0  0  0  0  0  0  0  0  0
   -7.3530    4.4230  -16.2266 C   0  0  2  0  0  0  0  0  0  0  0  0
   -6.3275    4.6371  -17.3254 C   0  0  0  0  0  0  0  0  0  0  0  0
   -7.6702    5.2713  -17.4078 C   0  0  1  0  0  0  0  0  0  0  0  0
   -8.8742    4.6114  -18.4883 Cl  0  0  0  0  0  0  0  0  0  0  0  0
   -7.0275    4.7455  -11.7079 C   0  0  0  0  0  0  0  0  0  0  0  0
  1  2  1  0
  2  3  1  0
  3  4  1  0
  4  5  1  0
  5  6  2  0
  6  7  1  0
  7  8  1  0
  8  9  1  0
  9 10  2  0
 11  9  1  1
 11 12  1  0
 12 13  1  0
 13 14  1  6
  7 15  2  0
 15  4  1  0
 13 11  1  0
M  END
>  <energy_score>  (3697) 
-12.068731

>  <alias>  (3697) 
APQUZJYICRRMOX-UHFFFAOYSA-N-P35-P35-P86-601527

>  <HIPPO Pose ID>  (3697) 
79585

>  <smiles>  (3697) 
CCCn1cnc(NC(=O)C2CC2Cl)c1

>  <inchikey>  (3697) 
APQUZJYICRRMOX-UHFFFAOYSA-N

>  <distance_score>  (3697) 
1.650879

>  <ref_mols>  (3697) 
Z0719a,Z1597a

>  <ref_pdb>  (3697) 
Z0719a

>  <HIPPO Compound ID>  (3697) 
150578

>  <name>  (3697) 
APQUZJYICRRMOX-UHFFFAOYSA-N-P35-P35-P86-601527

>  <inspiration_score>  (3697) 
None

$$$$
UQOFIBWWQDGHTD-UHFFFAOYSA-N-P35-P35-P86-601527
     RDKit          3D

 15 15  0  0  0  0  0  0  0  0999 V2000
   -5.0429    7.3528  -20.9029 C   0  0  0  0  0  0  0  0  0  0  0  0
   -4.2849    6.6789  -19.7715 C   0  0  1  0  0  0  0  0  0  0  0  0
   -2.8059    7.0891  -19.7368 C   0  0  0  0  0  0  0  0  0  0  0  0
   -1.8417    6.2920  -21.0676 S   0  0  0  0  0  0  0  0  0  0  0  0
   -4.9100    7.0675  -18.4214 C   0  0  0  0  0  0  0  0  0  0  0  0
   -4.6407    8.0652  -17.8719 O   0  0  0  0  0  0  0  0  0  0  0  0
   -5.8046    5.8766  -17.9693 N   0  0  0  0  0  0  0  0  0  0  0  0
   -6.4314    5.6440  -16.7872 C   0  0  0  0  0  0  0  0  0  0  0  0
   -6.8997    4.4134  -16.4048 C   0  0  0  0  0  0  0  0  0  0  0  0
   -6.8846    4.4587  -15.0325 N   0  0  0  0  0  0  0  0  0  0  0  0
   -6.6811    3.3376  -14.1127 C   0  0  0  0  0  0  0  0  0  0  0  0
   -5.2059    3.1841  -13.7083 C   0  0  0  0  0  0  0  0  0  0  0  0
   -7.5548    3.3851  -12.8692 C   0  0  0  0  0  0  0  0  0  0  0  0
   -6.8271    5.7845  -14.7104 C   0  0  0  0  0  0  0  0  0  0  0  0
   -6.4966    6.5190  -15.7536 N   0  0  0  0  0  0  0  0  0  0  0  0
  2  1  1  6
  2  3  1  0
  3  4  1  0
  2  5  1  0
  5  6  2  0
  5  7  1  0
  7  8  1  0
  8  9  2  0
  9 10  1  0
 10 11  1  0
 11 12  1  0
 11 13  1  0
 10 14  1  0
 14 15  2  0
 15  8  1  0
M  END
>  <energy_score>  (3698) 
-36.356371

>  <alias>  (3698) 
UQOFIBWWQDGHTD-UHFFFAOYSA-N-P35-P35-P86-601527

>  <HIPPO Pose ID>  (3698) 
79605

>  <smiles>  (3698) 
CC(CS)C(=O)Nc1cn(C(C)C)cn1

>  <inchikey>  (3698) 
UQOFIBWWQDGHTD-UHFFFAOYSA-N

>  <distance_score>  (3698) 
1.913099

>  <ref_mols>  (3698) 
Z0719a,Z1597a

>  <ref_pdb>  (3698) 
Z0719a

>  <HIPPO Compound ID>  (3698) 
150588

>  <name>  (3698) 
UQOFIBWWQDGHTD-UHFFFAOYSA-N-P35-P35-P86-601527

>  <inspiration_score>  (3698) 
None

$$$$
WELCSQQAHYYPSM-UHFFFAOYSA-N-P86-P35-P86-601527
     RDKit          3D

 15 16  0  0  0  0  0  0  0  0999 V2000
   -4.6531    6.7035  -21.3146 C   0  0  0  0  0  0  0  0  0  0  0  0
   -3.8428    6.2659  -20.1003 C   0  0  2  0  0  0  0  0  0  0  0  0
   -2.8555    5.1276  -20.3765 C   0  0  0  0  0  0  0  0  0  0  0  0
   -1.5805    5.5651  -21.6084 S   0  0  0  0  0  0  0  0  0  0  0  0
   -4.6453    5.9297  -18.8219 C   0  0  0  0  0  0  0  0  0  0  0  0
   -4.1502    6.1288  -17.7780 O   0  0  0  0  0  0  0  0  0  0  0  0
   -6.0465    5.3477  -19.1806 N   0  0  0  0  0  0  0  0  0  0  0  0
   -7.0274    4.8345  -18.3768 C   0  0  0  0  0  0  0  0  0  0  0  0
   -8.2185    4.1972  -18.7033 C   0  0  0  0  0  0  0  0  0  0  0  0
   -8.9631    3.8712  -17.5826 N   0  0  0  0  0  0  0  0  0  0  0  0
   -8.2285    4.3054  -16.5943 C   0  0  0  0  0  0  0  0  0  0  0  0
   -7.0668    4.8635  -17.0293 N   0  0  0  0  0  0  0  0  0  0  0  0
   -6.2541    5.3883  -15.9585 C   0  0  0  0  0  0  0  0  0  0  0  0
   -7.2034    5.3406  -14.7584 C   0  0  0  0  0  0  0  0  0  0  0  0
   -8.3436    4.3734  -15.1312 C   0  0  0  0  0  0  0  0  0  0  0  0
  2  1  1  6
  2  3  1  0
  3  4  1  0
  2  5  1  0
  5  6  2  0
  5  7  1  0
  7  8  1  0
  8  9  2  0
  9 10  1  0
 10 11  2  0
 11 12  1  0
 12 13  1  0
 13 14  1  0
 14 15  1  0
 12  8  1  0
 15 11  1  0
M  END
>  <energy_score>  (3699) 
-34.721869

>  <alias>  (3699) 
WELCSQQAHYYPSM-UHFFFAOYSA-N-P86-P35-P86-601527

>  <HIPPO Pose ID>  (3699) 
79612

>  <smiles>  (3699) 
CC(CS)C(=O)Nc1cnc2n1CCC2

>  <inchikey>  (3699) 
WELCSQQAHYYPSM-UHFFFAOYSA-N

>  <distance_score>  (3699) 
1.299711

>  <ref_mols>  (3699) 
Z0719a,Z1597a

>  <ref_pdb>  (3699) 
Z0719a

>  <HIPPO Compound ID>  (3699) 
150591

>  <name>  (3699) 
WELCSQQAHYYPSM-UHFFFAOYSA-N-P86-P35-P86-601527

>  <inspiration_score>  (3699) 
None

$$$$
AWMOTKABIIEGIJ-UHFFFAOYSA-N-P86-P35-P86-601527
     RDKit          3D

 15 15  0  0  0  0  0  0  0  0999 V2000
   -4.5015    6.7700  -20.4113 C   0  0  0  0  0  0  0  0  0  0  0  0
   -4.0046    6.7643  -18.9612 C   0  0  2  0  0  0  0  0  0  0  0  0
   -2.6448    6.0894  -18.7405 C   0  0  0  0  0  0  0  0  0  0  0  0
   -2.4672    4.4403  -19.4727 S   0  0  0  0  0  0  0  0  0  0  0  0
   -5.0171    6.3731  -17.8533 C   0  0  0  0  0  0  0  0  0  0  0  0
   -4.9850    6.9202  -16.8206 O   0  0  0  0  0  0  0  0  0  0  0  0
   -5.9537    5.2524  -18.3661 N   0  0  0  0  0  0  0  0  0  0  0  0
   -7.0375    4.6744  -17.7866 C   0  0  0  0  0  0  0  0  0  0  0  0
   -7.9396    4.0891  -18.6298 N   0  0  0  0  0  0  0  0  0  0  0  0
   -8.9744    3.7587  -17.8911 C   0  0  0  0  0  0  0  0  0  0  0  0
   -8.7559    4.0380  -16.5813 N   0  0  0  0  0  0  0  0  0  0  0  0
   -7.5037    4.5863  -16.5062 C   0  0  0  0  0  0  0  0  0  0  0  0
   -6.9906    4.8886  -15.2374 N   0  0  0  0  0  0  0  0  0  0  0  0
   -5.8001    4.6603  -15.0107 O   0  0  0  0  0  0  0  0  0  0  0  0
   -7.8295    5.3120  -14.4349 O   0  0  0  0  0  0  0  0  0  0  0  0
  2  1  1  6
  2  3  1  0
  3  4  1  0
  2  5  1  0
  5  6  2  0
  5  7  1  0
  7  8  1  0
  8  9  1  0
  9 10  2  0
 10 11  1  0
 11 12  1  0
 12 13  1  0
 13 14  2  0
 13 15  1  0
 12  8  2  0
M  CHG  2  13   1  15  -1
M  END
>  <energy_score>  (3700) 
-33.298987

>  <alias>  (3700) 
AWMOTKABIIEGIJ-UHFFFAOYSA-N-P86-P35-P86-601527

>  <HIPPO Pose ID>  (3700) 
79614

>  <smiles>  (3700) 
CC(CS)C(=O)Nc1nc[nH]c1[N+](=O)[O-]

>  <inchikey>  (3700) 
AWMOTKABIIEGIJ-UHFFFAOYSA-N

>  <distance_score>  (3700) 
1.591555

>  <ref_mols>  (3700) 
Z0719a,Z1597a

>  <ref_pdb>  (3700) 
Z0719a

>  <HIPPO Compound ID>  (3700) 
150592

>  <name>  (3700) 
AWMOTKABIIEGIJ-UHFFFAOYSA-N-P86-P35-P86-601527

>  <inspiration_score>  (3700) 
None

$$$$
PKGKWYZMQJZQEC-UHFFFAOYSA-N-P86-P35-P86-601527
     RDKit          3D

 15 16  0  0  0  0  0  0  0  0999 V2000
   -2.0853    4.4131  -19.3777 C   0  0  0  0  0  0  0  0  0  0  0  0
   -2.8356    5.2229  -20.3868 C   0  0  0  0  0  0  0  0  0  0  0  0
   -4.0491    5.7933  -20.2568 C   0  0  0  0  0  0  0  0  0  0  0  0
   -4.6531    6.6260  -21.3407 C   0  0  0  0  0  0  0  0  0  0  0  0
   -4.7903    5.7151  -18.9545 C   0  0  0  0  0  0  0  0  0  0  0  0
   -4.3034    6.0725  -17.9547 O   0  0  0  0  0  0  0  0  0  0  0  0
   -6.1876    5.1037  -19.2289 N   0  0  0  0  0  0  0  0  0  0  0  0
   -7.1803    4.7391  -18.3664 C   0  0  0  0  0  0  0  0  0  0  0  0
   -8.4196    4.1710  -18.6275 C   0  0  0  0  0  0  0  0  0  0  0  0
   -9.1322    3.9177  -17.4686 N   0  0  0  0  0  0  0  0  0  0  0  0
   -8.3286    4.3279  -16.5234 C   0  0  0  0  0  0  0  0  0  0  0  0
   -7.1681    4.8314  -17.0234 N   0  0  0  0  0  0  0  0  0  0  0  0
   -6.2797    5.3359  -16.0052 C   0  0  0  0  0  0  0  0  0  0  0  0
   -7.1614    5.3288  -14.7536 C   0  0  0  0  0  0  0  0  0  0  0  0
   -8.3582    4.4060  -15.0567 C   0  0  0  0  0  0  0  0  0  0  0  0
  1  2  1  0
  2  3  2  3
  3  4  1  0
  3  5  1  0
  5  6  2  0
  5  7  1  0
  7  8  1  0
  8  9  2  0
  9 10  1  0
 10 11  2  0
 11 12  1  0
 12 13  1  0
 13 14  1  0
 14 15  1  0
 12  8  1  0
 15 11  1  0
M  END
>  <energy_score>  (3701) 
-9.507093

>  <alias>  (3701) 
PKGKWYZMQJZQEC-UHFFFAOYSA-N-P86-P35-P86-601527

>  <HIPPO Pose ID>  (3701) 
79616

>  <smiles>  (3701) 
CC=C(C)C(=O)Nc1cnc2n1CCC2

>  <inchikey>  (3701) 
PKGKWYZMQJZQEC-UHFFFAOYSA-N

>  <distance_score>  (3701) 
1.110724

>  <ref_mols>  (3701) 
Z0719a,Z1597a

>  <ref_pdb>  (3701) 
Z0719a

>  <HIPPO Compound ID>  (3701) 
150593

>  <name>  (3701) 
PKGKWYZMQJZQEC-UHFFFAOYSA-N-P86-P35-P86-601527

>  <inspiration_score>  (3701) 
None

$$$$
QAFGXAVYNVRFML-UHFFFAOYSA-N-P86-P35-P86-601527
     RDKit          3D

 15 17  0  0  0  0  0  0  0  0999 V2000
   -2.0611    6.7130  -21.3829 C   0  0  0  0  0  0  0  0  0  0  0  0
   -3.3479    6.8815  -20.6503 C   0  0  1  0  0  0  0  0  0  0  0  0
   -4.6612    6.7456  -21.3662 C   0  0  0  0  0  0  0  0  0  0  0  0
   -4.2274    5.6756  -20.3929 C   0  0  2  0  0  0  0  0  0  0  0  0
   -4.9007    5.5136  -19.0728 C   0  0  0  0  0  0  0  0  0  0  0  0
   -4.2898    5.6866  -18.0959 O   0  0  0  0  0  0  0  0  0  0  0  0
   -6.3652    5.0852  -19.2712 N   0  0  0  0  0  0  0  0  0  0  0  0
   -7.3078    4.7087  -18.3630 C   0  0  0  0  0  0  0  0  0  0  0  0
   -8.5801    4.1985  -18.5706 C   0  0  0  0  0  0  0  0  0  0  0  0
   -9.2332    3.9337  -17.3812 N   0  0  0  0  0  0  0  0  0  0  0  0
   -8.3685    4.2972  -16.4710 C   0  0  0  0  0  0  0  0  0  0  0  0
   -7.2091    4.7491  -17.0214 N   0  0  0  0  0  0  0  0  0  0  0  0
   -6.2823    5.2751  -16.0480 C   0  0  0  0  0  0  0  0  0  0  0  0
   -7.1327    5.3389  -14.7760 C   0  0  0  0  0  0  0  0  0  0  0  0
   -8.3426    4.4101  -15.0058 C   0  0  0  0  0  0  0  0  0  0  0  0
  2  1  1  6
  2  3  1  0
  3  4  1  0
  4  5  1  1
  5  6  2  0
  5  7  1  0
  7  8  1  0
  8  9  2  0
  9 10  1  0
 10 11  2  0
 11 12  1  0
 12 13  1  0
 13 14  1  0
 14 15  1  0
  4  2  1  0
 12  8  1  0
 15 11  1  0
M  END
>  <energy_score>  (3702) 
-15.731463

>  <alias>  (3702) 
QAFGXAVYNVRFML-UHFFFAOYSA-N-P86-P35-P86-601527

>  <HIPPO Pose ID>  (3702) 
79630

>  <smiles>  (3702) 
CC1CC1C(=O)Nc1cnc2n1CCC2

>  <inchikey>  (3702) 
QAFGXAVYNVRFML-UHFFFAOYSA-N

>  <distance_score>  (3702) 
1.238308

>  <ref_mols>  (3702) 
Z0719a,Z1597a

>  <ref_pdb>  (3702) 
Z0719a

>  <HIPPO Compound ID>  (3702) 
150600

>  <name>  (3702) 
QAFGXAVYNVRFML-UHFFFAOYSA-N-P86-P35-P86-601527

>  <inspiration_score>  (3702) 
None

$$$$
YIEJZUAIJMZYGA-UHFFFAOYSA-N-P35-P35-P86-601527
     RDKit          3D

 15 16  0  0  0  0  0  0  0  0999 V2000
   -4.2909    6.2430  -17.6275 O   0  0  0  0  0  0  0  0  0  0  0  0
   -4.7350    6.0017  -18.6831 C   0  0  0  0  0  0  0  0  0  0  0  0
   -3.9513    6.3031  -19.9503 C   0  0  0  0  0  0  0  0  0  0  0  0
   -4.6380    7.2602  -20.9207 C   0  0  0  0  0  0  0  0  0  0  0  0
   -4.9610    8.6366  -20.3379 C   0  0  0  0  0  0  0  0  0  0  0  0
   -3.4778    9.6216  -19.9862 S   0  0  0  0  0  0  0  0  0  0  0  0
   -6.0728    5.3112  -19.0811 N   0  0  0  0  0  0  0  0  0  0  0  0
   -7.1160    4.8888  -18.3086 C   0  0  0  0  0  0  0  0  0  0  0  0
   -8.3081    4.2649  -18.6519 C   0  0  0  0  0  0  0  0  0  0  0  0
   -9.0607    3.9218  -17.5390 N   0  0  0  0  0  0  0  0  0  0  0  0
   -8.3451    4.3706  -16.5436 C   0  0  0  0  0  0  0  0  0  0  0  0
   -7.2059    4.9796  -16.9684 N   0  0  0  0  0  0  0  0  0  0  0  0
   -6.4225    5.5275  -15.8852 C   0  0  0  0  0  0  0  0  0  0  0  0
   -7.4119    5.4839  -14.7188 C   0  0  0  0  0  0  0  0  0  0  0  0
   -8.4306    4.3854  -15.0763 C   0  0  0  0  0  0  0  0  0  0  0  0
  1  2  2  0
  2  3  1  0
  3  4  1  0
  4  5  1  0
  5  6  1  0
  2  7  1  0
  7  8  1  0
  8  9  2  0
  9 10  1  0
 10 11  2  0
 11 12  1  0
 12 13  1  0
 13 14  1  0
 14 15  1  0
 12  8  1  0
 15 11  1  0
M  END
>  <energy_score>  (3703) 
-32.4923

>  <alias>  (3703) 
YIEJZUAIJMZYGA-UHFFFAOYSA-N-P35-P35-P86-601527

>  <HIPPO Pose ID>  (3703) 
79653

>  <smiles>  (3703) 
O=C(CCCS)Nc1cnc2n1CCC2

>  <inchikey>  (3703) 
YIEJZUAIJMZYGA-UHFFFAOYSA-N

>  <distance_score>  (3703) 
1.252363

>  <ref_mols>  (3703) 
Z0719a,Z1597a

>  <ref_pdb>  (3703) 
Z0719a

>  <HIPPO Compound ID>  (3703) 
150612

>  <name>  (3703) 
YIEJZUAIJMZYGA-UHFFFAOYSA-N-P35-P35-P86-601527

>  <inspiration_score>  (3703) 
None

$$$$
FGQXLADBRBYKJA-UHFFFAOYSA-N-P35-P35-P86-601527
     RDKit          3D

 15 15  0  0  0  0  0  0  0  0999 V2000
   -4.5899    5.8073  -16.9747 O   0  0  0  0  0  0  0  0  0  0  0  0
   -4.9313    5.4349  -18.0278 C   0  0  0  0  0  0  0  0  0  0  0  0
   -4.0057    5.4297  -19.2399 C   0  0  0  0  0  0  0  0  0  0  0  0
   -3.9106    6.7321  -20.0359 C   0  0  0  0  0  0  0  0  0  0  0  0
   -5.2261    7.4103  -20.4076 C   0  0  0  0  0  0  0  0  0  0  0  0
   -5.7713    8.5938  -19.1363 S   0  0  0  0  0  0  0  0  0  0  0  0
   -6.2650    4.7824  -18.4803 N   0  0  0  0  0  0  0  0  0  0  0  0
   -7.4112    4.5566  -17.7942 C   0  0  0  0  0  0  0  0  0  0  0  0
   -8.5277    4.3027  -18.5427 N   0  0  0  0  0  0  0  0  0  0  0  0
   -9.5296    4.2214  -17.6988 C   0  0  0  0  0  0  0  0  0  0  0  0
   -9.0923    4.3161  -16.4171 N   0  0  0  0  0  0  0  0  0  0  0  0
   -7.7397    4.5136  -16.4715 C   0  0  0  0  0  0  0  0  0  0  0  0
   -7.0282    4.5843  -15.2650 N   0  0  0  0  0  0  0  0  0  0  0  0
   -5.9605    3.9744  -15.1667 O   0  0  0  0  0  0  0  0  0  0  0  0
   -7.6085    5.2038  -14.3683 O   0  0  0  0  0  0  0  0  0  0  0  0
  1  2  2  0
  2  3  1  0
  3  4  1  0
  4  5  1  0
  5  6  1  0
  2  7  1  0
  7  8  1  0
  8  9  1  0
  9 10  2  0
 10 11  1  0
 11 12  1  0
 12 13  1  0
 13 14  2  0
 13 15  1  0
 12  8  2  0
M  CHG  2  13   1  15  -1
M  END
>  <energy_score>  (3704) 
-29.834864

>  <alias>  (3704) 
FGQXLADBRBYKJA-UHFFFAOYSA-N-P35-P35-P86-601527

>  <HIPPO Pose ID>  (3704) 
79655

>  <smiles>  (3704) 
O=C(CCCS)Nc1nc[nH]c1[N+](=O)[O-]

>  <inchikey>  (3704) 
FGQXLADBRBYKJA-UHFFFAOYSA-N

>  <distance_score>  (3704) 
1.474437

>  <ref_mols>  (3704) 
Z0719a,Z1597a

>  <ref_pdb>  (3704) 
Z0719a

>  <HIPPO Compound ID>  (3704) 
150613

>  <name>  (3704) 
FGQXLADBRBYKJA-UHFFFAOYSA-N-P35-P35-P86-601527

>  <inspiration_score>  (3704) 
None

$$$$
NZKZFPDDEGOVEK-UHFFFAOYSA-N-P86-P35-P86-601527
     RDKit          3D

 15 15  0  0  0  0  0  0  0  0999 V2000
   -9.3487    3.9981  -18.7906 C   0  0  0  0  0  0  0  0  0  0  0  0
   -8.4645    4.3776  -17.6942 C   0  0  0  0  0  0  0  0  0  0  0  0
   -8.8991    4.1689  -16.4163 N   0  0  0  0  0  0  0  0  0  0  0  0
   -7.9021    4.5274  -15.6449 C   0  0  0  0  0  0  0  0  0  0  0  0
   -7.8785    4.4482  -14.1659 C   0  0  0  0  0  0  0  0  0  0  0  0
   -6.8504    5.0035  -16.3977 N   0  0  0  0  0  0  0  0  0  0  0  0
   -5.6761    5.5960  -15.8363 C   0  0  0  0  0  0  0  0  0  0  0  0
   -7.1838    4.8861  -17.7222 C   0  0  0  0  0  0  0  0  0  0  0  0
   -6.4302    5.1710  -18.8304 N   0  0  0  0  0  0  0  0  0  0  0  0
   -4.8901    5.3611  -18.9858 C   0  0  0  0  0  0  0  0  0  0  0  0
   -4.0430    5.3793  -18.1782 O   0  0  0  0  0  0  0  0  0  0  0  0
   -4.5859    5.4334  -20.4675 C   0  0  0  0  0  0  0  0  0  0  0  0
   -4.4455    6.8635  -20.9008 C   0  0  0  0  0  0  0  0  0  0  0  0
   -5.5466    7.5846  -20.5780 F   0  0  0  0  0  0  0  0  0  0  0  0
   -3.3949    7.4628  -20.2927 F   0  0  0  0  0  0  0  0  0  0  0  0
  1  2  1  0
  2  3  1  0
  3  4  2  0
  4  5  1  0
  4  6  1  0
  6  7  1  0
  6  8  1  0
  8  9  1  0
  9 10  1  0
 10 11  2  0
 10 12  1  0
 12 13  1  0
 13 14  1  0
 13 15  1  0
  8  2  2  0
M  END
>  <energy_score>  (3705) 
-16.425202

>  <alias>  (3705) 
NZKZFPDDEGOVEK-UHFFFAOYSA-N-P86-P35-P86-601527

>  <HIPPO Pose ID>  (3705) 
79660

>  <smiles>  (3705) 
Cc1nc(C)n(C)c1NC(=O)CC(F)F

>  <inchikey>  (3705) 
NZKZFPDDEGOVEK-UHFFFAOYSA-N

>  <distance_score>  (3705) 
1.449582

>  <ref_mols>  (3705) 
Z0719a,Z1597a

>  <ref_pdb>  (3705) 
Z0719a

>  <HIPPO Compound ID>  (3705) 
150615

>  <name>  (3705) 
NZKZFPDDEGOVEK-UHFFFAOYSA-N-P86-P35-P86-601527

>  <inspiration_score>  (3705) 
None

$$$$
KBLSITYFCDGJLJ-UHFFFAOYSA-N-P35-P35-P86-601527
     RDKit          3D

 15 15  0  0  0  0  0  0  0  0999 V2000
   -7.6553    3.3303  -14.3767 C   0  0  0  0  0  0  0  0  0  0  0  0
   -7.9504    3.8946  -15.7447 C   0  0  0  0  0  0  0  0  0  0  0  0
   -8.8465    3.5384  -16.6523 N   0  0  0  0  0  0  0  0  0  0  0  0
   -8.4544    4.1616  -17.8227 C   0  0  0  0  0  0  0  0  0  0  0  0
   -7.3229    4.9166  -17.6020 C   0  0  0  0  0  0  0  0  0  0  0  0
   -6.3886    5.3959  -18.4766 N   0  0  0  0  0  0  0  0  0  0  0  0
   -5.0206    6.0874  -18.2137 C   0  0  0  0  0  0  0  0  0  0  0  0
   -4.5205    6.4217  -17.2099 O   0  0  0  0  0  0  0  0  0  0  0  0
   -4.2741    6.2056  -19.5360 C   0  0  0  0  0  0  0  0  0  0  0  0
   -4.8932    7.1860  -20.5090 C   0  0  0  0  0  0  0  0  0  0  0  0
   -3.7391    7.5327  -21.8751 S   0  0  0  0  0  0  0  0  0  0  0  0
   -7.2555    4.9738  -16.2365 N   0  0  0  0  0  0  0  0  0  0  0  0
   -6.7682    6.0341  -15.3894 C   0  0  0  0  0  0  0  0  0  0  0  0
   -7.6933    6.2804  -14.2684 C   0  0  0  0  0  0  0  0  0  0  0  0
   -8.4244    6.4074  -13.3744 N   0  0  0  0  0  0  0  0  0  0  0  0
  1  2  1  0
  2  3  2  0
  3  4  1  0
  4  5  2  0
  5  6  1  0
  6  7  1  0
  7  8  2  0
  7  9  1  0
  9 10  1  0
 10 11  1  0
  5 12  1  0
 12 13  1  0
 13 14  1  0
 14 15  3  0
 12  2  1  0
M  END
>  <energy_score>  (3706) 
-17.788176

>  <alias>  (3706) 
KBLSITYFCDGJLJ-UHFFFAOYSA-N-P35-P35-P86-601527

>  <HIPPO Pose ID>  (3706) 
79677

>  <smiles>  (3706) 
Cc1ncc(NC(=O)CCS)n1CC#N

>  <inchikey>  (3706) 
KBLSITYFCDGJLJ-UHFFFAOYSA-N

>  <distance_score>  (3706) 
1.6831

>  <ref_mols>  (3706) 
Z0719a,Z1597a

>  <ref_pdb>  (3706) 
Z0719a

>  <HIPPO Compound ID>  (3706) 
150624

>  <name>  (3706) 
KBLSITYFCDGJLJ-UHFFFAOYSA-N-P35-P35-P86-601527

>  <inspiration_score>  (3706) 
None

$$$$
NTLIWMYOQOODPR-UHFFFAOYSA-N-P35-P35-P86-601527
     RDKit          3D

 15 16  0  0  0  0  0  0  0  0999 V2000
   -4.6170    4.5452  -12.5621 C   0  0  0  0  0  0  0  0  0  0  0  0
   -5.3494    5.7324  -11.9042 C   0  0  0  0  0  0  0  0  0  0  0  0
   -6.6609    5.3034  -11.3379 C   0  0  0  0  0  0  0  0  0  0  0  0
   -6.8847    5.3613   -9.9777 N   0  0  0  0  0  0  0  0  0  0  0  0
   -7.8658    4.5169   -9.7646 C   0  0  0  0  0  0  0  0  0  0  0  0
   -8.2708    3.9387  -10.9330 N   0  0  0  0  0  0  0  0  0  0  0  0
   -8.9079    2.6613  -11.0152 C   0  0  0  0  0  0  0  0  0  0  0  0
   -7.6633    4.5916  -11.9728 C   0  0  0  0  0  0  0  0  0  0  0  0
   -7.9123    4.3975  -13.3070 N   0  0  0  0  0  0  0  0  0  0  0  0
   -7.3367    5.1103  -14.5467 C   0  0  0  0  0  0  0  0  0  0  0  0
   -6.6190    6.0254  -14.6271 O   0  0  0  0  0  0  0  0  0  0  0  0
   -7.7231    4.4078  -15.8064 C   0  0  2  0  0  0  0  0  0  0  0  0
   -7.4611    5.1524  -17.1008 C   0  0  0  0  0  0  0  0  0  0  0  0
   -8.8713    4.8737  -16.6634 C   0  0  1  0  0  0  0  0  0  0  0  0
   -9.6588    4.0403  -17.6068 C   0  0  0  0  0  0  0  0  0  0  0  0
  1  2  1  0
  2  3  1  0
  3  4  1  0
  4  5  2  0
  5  6  1  0
  6  7  1  0
  6  8  1  0
  8  9  1  0
  9 10  1  0
 10 11  2  0
 12 10  1  1
 12 13  1  0
 13 14  1  0
 14 15  1  6
  8  3  2  0
 14 12  1  0
M  END
>  <energy_score>  (3707) 
-6.938936

>  <alias>  (3707) 
NTLIWMYOQOODPR-UHFFFAOYSA-N-P35-P35-P86-601527

>  <HIPPO Pose ID>  (3707) 
79689

>  <smiles>  (3707) 
CCc1ncn(C)c1NC(=O)C1CC1C

>  <inchikey>  (3707) 
NTLIWMYOQOODPR-UHFFFAOYSA-N

>  <distance_score>  (3707) 
1.413993

>  <ref_mols>  (3707) 
Z0719a,Z1597a

>  <ref_pdb>  (3707) 
Z0719a

>  <HIPPO Compound ID>  (3707) 
150630

>  <name>  (3707) 
NTLIWMYOQOODPR-UHFFFAOYSA-N-P35-P35-P86-601527

>  <inspiration_score>  (3707) 
None

$$$$
OBKWLFMBCKELHV-UHFFFAOYSA-N-P35-P35-P86-601527
     RDKit          3D

 15 16  0  0  0  0  0  0  0  0999 V2000
   -4.7921    4.8098  -12.7139 C   0  0  0  0  0  0  0  0  0  0  0  0
   -5.5821    5.9780  -12.0867 C   0  0  0  0  0  0  0  0  0  0  0  0
   -6.8478    5.4948  -11.4598 C   0  0  0  0  0  0  0  0  0  0  0  0
   -7.0295    5.5907  -10.0959 N   0  0  0  0  0  0  0  0  0  0  0  0
   -7.9505    4.6984   -9.8183 C   0  0  0  0  0  0  0  0  0  0  0  0
   -8.3447    4.0367  -10.9467 N   0  0  0  0  0  0  0  0  0  0  0  0
   -8.9359    2.7335  -10.9355 C   0  0  0  0  0  0  0  0  0  0  0  0
   -7.8113    4.6819  -12.0321 C   0  0  0  0  0  0  0  0  0  0  0  0
   -8.0384    4.3848  -13.3506 N   0  0  0  0  0  0  0  0  0  0  0  0
   -7.6034    5.1259  -14.6357 C   0  0  0  0  0  0  0  0  0  0  0  0
   -7.0510    6.1444  -14.7710 O   0  0  0  0  0  0  0  0  0  0  0  0
   -7.8823    4.3065  -15.8358 C   0  0  2  0  0  0  0  0  0  0  0  0
   -7.6453    4.9075  -17.2097 C   0  0  0  0  0  0  0  0  0  0  0  0
   -9.0221    4.5408  -16.7609 C   0  0  1  0  0  0  0  0  0  0  0  0
   -9.5731    3.4415  -17.3904 F   0  0  0  0  0  0  0  0  0  0  0  0
  1  2  1  0
  2  3  1  0
  3  4  1  0
  4  5  2  0
  5  6  1  0
  6  7  1  0
  6  8  1  0
  8  9  1  0
  9 10  1  0
 10 11  2  0
 12 10  1  1
 12 13  1  0
 13 14  1  0
 14 15  1  6
  8  3  2  0
 14 12  1  0
M  END
>  <energy_score>  (3708) 
-17.511248

>  <alias>  (3708) 
OBKWLFMBCKELHV-UHFFFAOYSA-N-P35-P35-P86-601527

>  <HIPPO Pose ID>  (3708) 
79691

>  <smiles>  (3708) 
CCc1ncn(C)c1NC(=O)C1CC1F

>  <inchikey>  (3708) 
OBKWLFMBCKELHV-UHFFFAOYSA-N

>  <distance_score>  (3708) 
1.390756

>  <ref_mols>  (3708) 
Z0719a,Z1597a

>  <ref_pdb>  (3708) 
Z0719a

>  <HIPPO Compound ID>  (3708) 
150631

>  <name>  (3708) 
OBKWLFMBCKELHV-UHFFFAOYSA-N-P35-P35-P86-601527

>  <inspiration_score>  (3708) 
None

$$$$
LVZOSWZFXXVPBJ-UHFFFAOYSA-N-P35-P35-P86-601527
     RDKit          3D

 15 16  0  0  0  0  0  0  0  0999 V2000
   -7.0638    4.9297   -9.2322 C   0  0  0  0  0  0  0  0  0  0  0  0
   -7.6223    4.3780  -10.4324 N   0  0  0  0  0  0  0  0  0  0  0  0
   -8.6429    3.4744  -10.4893 C   0  0  0  0  0  0  0  0  0  0  0  0
   -8.9885    3.2338  -11.7342 N   0  0  0  0  0  0  0  0  0  0  0  0
   -8.1603    3.9960  -12.4955 C   0  0  0  0  0  0  0  0  0  0  0  0
   -8.2234    3.9594  -13.8476 N   0  0  0  0  0  0  0  0  0  0  0  0
   -7.6698    4.9357  -14.9016 C   0  0  0  0  0  0  0  0  0  0  0  0
   -7.1391    5.9650  -14.7731 O   0  0  0  0  0  0  0  0  0  0  0  0
   -7.7932    4.3459  -16.2467 C   0  0  2  0  0  0  0  0  0  0  0  0
   -7.7054    5.1636  -17.5074 C   0  0  0  0  0  0  0  0  0  0  0  0
   -9.0079    4.5631  -17.0784 C   0  0  1  0  0  0  0  0  0  0  0  0
   -9.4721    3.4652  -17.7788 F   0  0  0  0  0  0  0  0  0  0  0  0
   -7.2146    4.6121  -11.7180 C   0  0  0  0  0  0  0  0  0  0  0  0
   -5.9736    5.1119  -12.1814 C   0  0  0  0  0  0  0  0  0  0  0  0
   -4.9457    5.3735  -12.6511 N   0  0  0  0  0  0  0  0  0  0  0  0
  1  2  1  0
  2  3  1  0
  3  4  2  0
  4  5  1  0
  5  6  1  0
  6  7  1  0
  7  8  2  0
  9  7  1  1
  9 10  1  0
 10 11  1  0
 11 12  1  6
  5 13  2  0
 13 14  1  0
 14 15  3  0
 13  2  1  0
 11  9  1  0
M  END
>  <energy_score>  (3709) 
-12.474801

>  <alias>  (3709) 
LVZOSWZFXXVPBJ-UHFFFAOYSA-N-P35-P35-P86-601527

>  <HIPPO Pose ID>  (3709) 
79693

>  <smiles>  (3709) 
Cn1cnc(NC(=O)C2CC2F)c1C#N

>  <inchikey>  (3709) 
LVZOSWZFXXVPBJ-UHFFFAOYSA-N

>  <distance_score>  (3709) 
1.247472

>  <ref_mols>  (3709) 
Z0719a,Z1597a

>  <ref_pdb>  (3709) 
Z0719a

>  <HIPPO Compound ID>  (3709) 
150632

>  <name>  (3709) 
LVZOSWZFXXVPBJ-UHFFFAOYSA-N-P35-P35-P86-601527

>  <inspiration_score>  (3709) 
None

$$$$
NVJARLPHYHBUTM-UHFFFAOYSA-N-P35-P35-P86-601527
     RDKit          3D

 15 15  0  0  0  0  0  0  0  0999 V2000
   -5.2762    8.9786  -18.5524 C   0  0  0  0  0  0  0  0  0  0  0  0
   -6.0459    8.2338  -19.4901 O   0  0  0  0  0  0  0  0  0  0  0  0
   -5.4295    7.0070  -19.9169 C   0  0  1  0  0  0  0  0  0  0  0  0
   -4.1595    7.2657  -20.7263 C   0  0  0  0  0  0  0  0  0  0  0  0
   -5.1768    5.9860  -18.7737 C   0  0  0  0  0  0  0  0  0  0  0  0
   -4.1298    5.5192  -18.5339 O   0  0  0  0  0  0  0  0  0  0  0  0
   -6.5474    5.8149  -18.0529 N   0  0  0  0  0  0  0  0  0  0  0  0
   -6.8648    5.1562  -16.9143 C   0  0  0  0  0  0  0  0  0  0  0  0
   -6.0349    4.4286  -16.1056 C   0  0  0  0  0  0  0  0  0  0  0  0
   -6.8208    3.9601  -15.0806 N   0  0  0  0  0  0  0  0  0  0  0  0
   -6.4204    3.0670  -13.9871 C   0  0  0  0  0  0  0  0  0  0  0  0
   -4.9289    3.1433  -13.6186 C   0  0  0  0  0  0  0  0  0  0  0  0
   -7.2356    3.2399  -12.7083 C   0  0  0  0  0  0  0  0  0  0  0  0
   -8.0900    4.4110  -15.3517 C   0  0  0  0  0  0  0  0  0  0  0  0
   -8.1284    5.1768  -16.4217 N   0  0  0  0  0  0  0  0  0  0  0  0
  1  2  1  0
  2  3  1  0
  3  4  1  1
  3  5  1  0
  5  6  2  0
  5  7  1  0
  7  8  1  0
  8  9  2  0
  9 10  1  0
 10 11  1  0
 11 12  1  0
 11 13  1  0
 10 14  1  0
 14 15  2  0
 15  8  1  0
M  END
>  <energy_score>  (3710) 
-27.490978

>  <alias>  (3710) 
NVJARLPHYHBUTM-UHFFFAOYSA-N-P35-P35-P86-601527

>  <HIPPO Pose ID>  (3710) 
79699

>  <smiles>  (3710) 
COC(C)C(=O)Nc1cn(C(C)C)cn1

>  <inchikey>  (3710) 
NVJARLPHYHBUTM-UHFFFAOYSA-N

>  <distance_score>  (3710) 
1.868311

>  <ref_mols>  (3710) 
Z0719a,Z1597a

>  <ref_pdb>  (3710) 
Z0719a

>  <HIPPO Compound ID>  (3710) 
150635

>  <name>  (3710) 
NVJARLPHYHBUTM-UHFFFAOYSA-N-P35-P35-P86-601527

>  <inspiration_score>  (3710) 
None

$$$$
JZMXQWVUHPXFRS-UHFFFAOYSA-N-P86-P35-P86-601527
     RDKit          3D

 15 15  0  0  0  0  0  0  0  0999 V2000
   -1.9241    5.7852  -18.1015 C   0  0  0  0  0  0  0  0  0  0  0  0
   -2.7552    6.5814  -18.9366 O   0  0  0  0  0  0  0  0  0  0  0  0
   -3.9958    5.9451  -19.2465 C   0  0  2  0  0  0  0  0  0  0  0  0
   -4.5413    6.6795  -20.4697 C   0  0  0  0  0  0  0  0  0  0  0  0
   -5.0301    5.9483  -18.0647 C   0  0  0  0  0  0  0  0  0  0  0  0
   -4.8513    6.5157  -17.0580 O   0  0  0  0  0  0  0  0  0  0  0  0
   -6.2076    5.0360  -18.5115 N   0  0  0  0  0  0  0  0  0  0  0  0
   -7.2860    4.5895  -17.8219 C   0  0  0  0  0  0  0  0  0  0  0  0
   -8.2992    4.0708  -18.5806 N   0  0  0  0  0  0  0  0  0  0  0  0
   -9.2964    3.8495  -17.7571 C   0  0  0  0  0  0  0  0  0  0  0  0
   -8.9348    4.0877  -16.4717 N   0  0  0  0  0  0  0  0  0  0  0  0
   -7.6490    4.5574  -16.5056 C   0  0  0  0  0  0  0  0  0  0  0  0
   -7.0330    4.8638  -15.2822 N   0  0  0  0  0  0  0  0  0  0  0  0
   -5.8431    4.5869  -15.1252 O   0  0  0  0  0  0  0  0  0  0  0  0
   -7.7953    5.3491  -14.4392 O   0  0  0  0  0  0  0  0  0  0  0  0
  1  2  1  0
  2  3  1  0
  3  4  1  6
  3  5  1  0
  5  6  2  0
  5  7  1  0
  7  8  1  0
  8  9  1  0
  9 10  2  0
 10 11  1  0
 11 12  1  0
 12 13  1  0
 13 14  2  0
 13 15  1  0
 12  8  2  0
M  CHG  2  13   1  15  -1
M  END
>  <energy_score>  (3711) 
-19.317265

>  <alias>  (3711) 
JZMXQWVUHPXFRS-UHFFFAOYSA-N-P86-P35-P86-601527

>  <HIPPO Pose ID>  (3711) 
79708

>  <smiles>  (3711) 
COC(C)C(=O)Nc1nc[nH]c1[N+](=O)[O-]

>  <inchikey>  (3711) 
JZMXQWVUHPXFRS-UHFFFAOYSA-N

>  <distance_score>  (3711) 
1.426842

>  <ref_mols>  (3711) 
Z0719a,Z1597a

>  <ref_pdb>  (3711) 
Z0719a

>  <HIPPO Compound ID>  (3711) 
150639

>  <name>  (3711) 
JZMXQWVUHPXFRS-UHFFFAOYSA-N-P86-P35-P86-601527

>  <inspiration_score>  (3711) 
None

$$$$
YDMIKBMRVFOEON-UHFFFAOYSA-N-P86-P35-P86-601527
     RDKit          3D

 15 15  0  0  0  0  0  0  0  0999 V2000
   -2.0949    4.4740  -19.3111 C   0  0  0  0  0  0  0  0  0  0  0  0
   -2.6994    5.2021  -20.4697 C   0  0  0  0  0  0  0  0  0  0  0  0
   -3.8246    5.9396  -20.4684 C   0  0  0  0  0  0  0  0  0  0  0  0
   -4.3491    6.6758  -21.6537 C   0  0  0  0  0  0  0  0  0  0  0  0
   -4.6012    6.1185  -19.2083 C   0  0  0  0  0  0  0  0  0  0  0  0
   -4.2632    6.8516  -18.3665 O   0  0  0  0  0  0  0  0  0  0  0  0
   -5.8154    5.1700  -19.2804 N   0  0  0  0  0  0  0  0  0  0  0  0
   -6.7526    4.8743  -18.3561 C   0  0  0  0  0  0  0  0  0  0  0  0
   -6.8164    5.3512  -17.0803 C   0  0  0  0  0  0  0  0  0  0  0  0
   -7.8903    4.7232  -16.5250 N   0  0  0  0  0  0  0  0  0  0  0  0
   -8.3997    4.9794  -15.2076 C   0  0  0  0  0  0  0  0  0  0  0  0
   -7.6956    4.2854  -14.0532 C   0  0  0  0  0  0  0  0  0  0  0  0
   -6.2049    4.5507  -13.9447 C   0  0  0  0  0  0  0  0  0  0  0  0
   -8.4743    3.9700  -17.4941 C   0  0  0  0  0  0  0  0  0  0  0  0
   -7.7785    4.0196  -18.6094 N   0  0  0  0  0  0  0  0  0  0  0  0
  1  2  1  0
  2  3  2  3
  3  4  1  0
  3  5  1  0
  5  6  2  0
  5  7  1  0
  7  8  1  0
  8  9  2  0
  9 10  1  0
 10 11  1  0
 11 12  1  0
 12 13  1  0
 10 14  1  0
 14 15  2  0
 15  8  1  0
M  END
>  <energy_score>  (3712) 
-12.181989

>  <alias>  (3712) 
YDMIKBMRVFOEON-UHFFFAOYSA-N-P86-P35-P86-601527

>  <HIPPO Pose ID>  (3712) 
79720

>  <smiles>  (3712) 
CC=C(C)C(=O)Nc1cn(CCC)cn1

>  <inchikey>  (3712) 
YDMIKBMRVFOEON-UHFFFAOYSA-N

>  <distance_score>  (3712) 
1.336208

>  <ref_mols>  (3712) 
Z0719a,Z1597a

>  <ref_pdb>  (3712) 
Z0719a

>  <HIPPO Compound ID>  (3712) 
150645

>  <name>  (3712) 
YDMIKBMRVFOEON-UHFFFAOYSA-N-P86-P35-P86-601527

>  <inspiration_score>  (3712) 
None

$$$$
SNSWXJYVLRDYPJ-UHFFFAOYSA-N-P86-P35-P86-601527
     RDKit          3D

 15 15  0  0  0  0  0  0  0  0999 V2000
   -6.3235    3.3315  -12.3093 C   0  0  0  0  0  0  0  0  0  0  0  0
   -6.1522    4.1147  -13.5935 C   0  0  0  0  0  0  0  0  0  0  0  0
   -7.4734    4.2473  -14.3831 C   0  0  0  0  0  0  0  0  0  0  0  0
   -7.3539    4.5780  -15.7887 N   0  0  0  0  0  0  0  0  0  0  0  0
   -8.3042    4.3880  -16.7512 C   0  0  0  0  0  0  0  0  0  0  0  0
   -7.8914    4.8378  -17.9209 N   0  0  0  0  0  0  0  0  0  0  0  0
   -6.6333    5.2992  -17.7048 C   0  0  0  0  0  0  0  0  0  0  0  0
   -5.8547    5.8317  -18.6731 N   0  0  0  0  0  0  0  0  0  0  0  0
   -4.3813    6.3484  -18.6198 C   0  0  0  0  0  0  0  0  0  0  0  0
   -3.5968    6.3184  -17.7481 O   0  0  0  0  0  0  0  0  0  0  0  0
   -4.0067    7.0015  -19.9777 C   0  0  0  0  0  0  0  0  0  0  0  0
   -4.3158    6.1582  -21.2029 C   0  0  0  0  0  0  0  0  0  0  0  0
   -2.5168    7.3802  -19.9913 C   0  0  0  0  0  0  0  0  0  0  0  0
   -5.0068    8.6957  -20.0567 Br  0  0  0  0  0  0  0  0  0  0  0  0
   -6.2862    5.1694  -16.3913 C   0  0  0  0  0  0  0  0  0  0  0  0
  1  2  1  0
  2  3  1  0
  3  4  1  0
  4  5  1  0
  5  6  2  0
  6  7  1  0
  7  8  1  0
  8  9  1  0
  9 10  2  0
  9 11  1  0
 11 12  1  0
 11 13  1  0
 11 14  1  0
  7 15  2  0
 15  4  1  0
M  END
>  <energy_score>  (3713) 
-29.518346

>  <alias>  (3713) 
SNSWXJYVLRDYPJ-UHFFFAOYSA-N-P86-P35-P86-601527

>  <HIPPO Pose ID>  (3713) 
79724

>  <smiles>  (3713) 
CCCn1cnc(NC(=O)C(C)(C)Br)c1

>  <inchikey>  (3713) 
SNSWXJYVLRDYPJ-UHFFFAOYSA-N

>  <distance_score>  (3713) 
1.808095

>  <ref_mols>  (3713) 
Z0719a,Z1597a

>  <ref_pdb>  (3713) 
Z0719a

>  <HIPPO Compound ID>  (3713) 
150647

>  <name>  (3713) 
SNSWXJYVLRDYPJ-UHFFFAOYSA-N-P86-P35-P86-601527

>  <inspiration_score>  (3713) 
None

$$$$
YQEBRVZBQUNQJZ-UHFFFAOYSA-N-P86-P35-P86-601527
     RDKit          3D

 15 17  0  0  0  0  0  0  0  0999 V2000
   -4.3091    5.8973  -18.2071 O   0  0  0  0  0  0  0  0  0  0  0  0
   -4.9064    5.6180  -19.1676 C   0  0  0  0  0  0  0  0  0  0  0  0
   -6.3367    5.0746  -19.3304 N   0  0  0  0  0  0  0  0  0  0  0  0
   -7.2505    4.6918  -18.3945 C   0  0  0  0  0  0  0  0  0  0  0  0
   -8.5140    4.1486  -18.5739 C   0  0  0  0  0  0  0  0  0  0  0  0
   -9.1576    3.9240  -17.3723 N   0  0  0  0  0  0  0  0  0  0  0  0
   -8.2975    4.3459  -16.4831 C   0  0  0  0  0  0  0  0  0  0  0  0
   -7.1371    4.7648  -17.0550 N   0  0  0  0  0  0  0  0  0  0  0  0
   -6.1920    5.3034  -16.1086 C   0  0  0  0  0  0  0  0  0  0  0  0
   -6.8401    4.9965  -14.7559 C   0  0  0  0  0  0  0  0  0  0  0  0
   -8.2951    4.5642  -15.0306 C   0  0  0  0  0  0  0  0  0  0  0  0
   -4.2535    5.7446  -20.4955 C   0  0  1  0  0  0  0  0  0  0  0  0
   -4.7258    6.7866  -21.4806 C   0  0  0  0  0  0  0  0  0  0  0  0
   -3.4083    6.9460  -20.7975 C   0  0  2  0  0  0  0  0  0  0  0  0
   -2.2847    6.7646  -21.5843 F   0  0  0  0  0  0  0  0  0  0  0  0
  1  2  2  0
  2  3  1  0
  3  4  1  0
  4  5  2  0
  5  6  1  0
  6  7  2  0
  7  8  1  0
  8  9  1  0
  9 10  1  0
 10 11  1  0
 12  2  1  1
 12 13  1  0
 13 14  1  0
 14 15  1  6
  8  4  1  0
 14 12  1  0
 11  7  1  0
M  END
>  <energy_score>  (3714) 
-31.232015

>  <alias>  (3714) 
YQEBRVZBQUNQJZ-UHFFFAOYSA-N-P86-P35-P86-601527

>  <HIPPO Pose ID>  (3714) 
79744

>  <smiles>  (3714) 
O=C(Nc1cnc2n1CCC2)C1CC1F

>  <inchikey>  (3714) 
YQEBRVZBQUNQJZ-UHFFFAOYSA-N

>  <distance_score>  (3714) 
1.130172

>  <ref_mols>  (3714) 
Z0719a,Z1597a

>  <ref_pdb>  (3714) 
Z0719a

>  <HIPPO Compound ID>  (3714) 
150657

>  <name>  (3714) 
YQEBRVZBQUNQJZ-UHFFFAOYSA-N-P86-P35-P86-601527

>  <inspiration_score>  (3714) 
None

$$$$
GUUOCPIFOHJFNP-UHFFFAOYSA-N-P86-P35-P86-601527
     RDKit          3D

 15 16  0  0  0  0  0  0  0  0999 V2000
   -4.8082    6.4773  -21.4738 C   0  0  0  0  0  0  0  0  0  0  0  0
   -4.0199    6.2743  -20.1899 C   0  0  0  0  0  0  0  0  0  0  0  0
   -2.8726    5.2859  -20.3896 C   0  0  0  0  0  0  0  0  0  0  0  0
   -3.1786    8.0709  -19.8431 Br  0  0  0  0  0  0  0  0  0  0  0  0
   -4.7821    5.9341  -18.8633 C   0  0  0  0  0  0  0  0  0  0  0  0
   -4.2632    6.1389  -17.8305 O   0  0  0  0  0  0  0  0  0  0  0  0
   -6.1498    5.2483  -19.1919 N   0  0  0  0  0  0  0  0  0  0  0  0
   -7.1345    4.7918  -18.3624 C   0  0  0  0  0  0  0  0  0  0  0  0
   -8.3537    4.1961  -18.6579 C   0  0  0  0  0  0  0  0  0  0  0  0
   -9.0701    3.8808  -17.5162 N   0  0  0  0  0  0  0  0  0  0  0  0
   -8.2981    4.2958  -16.5478 C   0  0  0  0  0  0  0  0  0  0  0  0
   -7.1368    4.8278  -17.0148 N   0  0  0  0  0  0  0  0  0  0  0  0
   -6.2929    5.3546  -15.9690 C   0  0  0  0  0  0  0  0  0  0  0  0
   -7.2103    5.3252  -14.7444 C   0  0  0  0  0  0  0  0  0  0  0  0
   -8.3710    4.3707  -15.0822 C   0  0  0  0  0  0  0  0  0  0  0  0
  1  2  1  0
  2  3  1  0
  2  4  1  0
  2  5  1  0
  5  6  2  0
  5  7  1  0
  7  8  1  0
  8  9  2  0
  9 10  1  0
 10 11  2  0
 11 12  1  0
 12 13  1  0
 13 14  1  0
 14 15  1  0
 12  8  1  0
 15 11  1  0
M  END
>  <energy_score>  (3715) 
-29.541178

>  <alias>  (3715) 
GUUOCPIFOHJFNP-UHFFFAOYSA-N-P86-P35-P86-601527

>  <HIPPO Pose ID>  (3715) 
79746

>  <smiles>  (3715) 
CC(C)(Br)C(=O)Nc1cnc2n1CCC2

>  <inchikey>  (3715) 
GUUOCPIFOHJFNP-UHFFFAOYSA-N

>  <distance_score>  (3715) 
1.365953

>  <ref_mols>  (3715) 
Z0719a,Z1597a

>  <ref_pdb>  (3715) 
Z0719a

>  <HIPPO Compound ID>  (3715) 
150658

>  <name>  (3715) 
GUUOCPIFOHJFNP-UHFFFAOYSA-N-P86-P35-P86-601527

>  <inspiration_score>  (3715) 
None

$$$$
XARUVMFIWGBKFI-UHFFFAOYSA-N-P35-P35-P86-601527
     RDKit          3D

 15 15  0  0  0  0  0  0  0  0999 V2000
   -8.8985    4.1332  -19.0218 C   0  0  0  0  0  0  0  0  0  0  0  0
   -8.2782    4.4961  -17.7445 C   0  0  0  0  0  0  0  0  0  0  0  0
   -8.9338    4.1636  -16.5862 N   0  0  0  0  0  0  0  0  0  0  0  0
   -8.1613    4.5841  -15.6132 C   0  0  0  0  0  0  0  0  0  0  0  0
   -8.4148    4.4511  -14.1624 C   0  0  0  0  0  0  0  0  0  0  0  0
   -7.0120    5.1465  -16.1119 N   0  0  0  0  0  0  0  0  0  0  0  0
   -5.8662    5.4296  -15.2987 C   0  0  0  0  0  0  0  0  0  0  0  0
   -7.1050    5.1765  -17.4788 C   0  0  0  0  0  0  0  0  0  0  0  0
   -6.1885    5.7061  -18.3481 N   0  0  0  0  0  0  0  0  0  0  0  0
   -4.9823    6.6739  -18.0896 C   0  0  0  0  0  0  0  0  0  0  0  0
   -4.6437    7.2202  -17.1084 O   0  0  0  0  0  0  0  0  0  0  0  0
   -4.1473    6.7462  -19.3998 C   0  0  0  0  0  0  0  0  0  0  0  0
   -4.9146    7.1976  -20.6356 C   0  0  0  0  0  0  0  0  0  0  0  0
   -3.4032    5.4252  -19.5890 C   0  0  0  0  0  0  0  0  0  0  0  0
   -2.7259    8.1314  -19.1330 Br  0  0  0  0  0  0  0  0  0  0  0  0
  1  2  1  0
  2  3  1  0
  3  4  2  0
  4  5  1  0
  4  6  1  0
  6  7  1  0
  6  8  1  0
  8  9  1  0
  9 10  1  0
 10 11  2  0
 10 12  1  0
 12 13  1  0
 12 14  1  0
 12 15  1  0
  8  2  2  0
M  END
>  <energy_score>  (3716) 
-22.621889

>  <alias>  (3716) 
XARUVMFIWGBKFI-UHFFFAOYSA-N-P35-P35-P86-601527

>  <HIPPO Pose ID>  (3716) 
79747

>  <smiles>  (3716) 
Cc1nc(C)n(C)c1NC(=O)C(C)(C)Br

>  <inchikey>  (3716) 
XARUVMFIWGBKFI-UHFFFAOYSA-N

>  <distance_score>  (3716) 
1.555172

>  <ref_mols>  (3716) 
Z0719a,Z1597a

>  <ref_pdb>  (3716) 
Z0719a

>  <HIPPO Compound ID>  (3716) 
150659

>  <name>  (3716) 
XARUVMFIWGBKFI-UHFFFAOYSA-N-P35-P35-P86-601527

>  <inspiration_score>  (3716) 
None

$$$$
JNEKUIHSWGVQNZ-UHFFFAOYSA-N-P86-P35-P86-601527
     RDKit          3D

 15 15  0  0  0  0  0  0  0  0999 V2000
   -4.2182    6.0289  -20.3426 C   0  0  0  0  0  0  0  0  0  0  0  0
   -4.2761    6.8287  -19.0408 C   0  0  0  0  0  0  0  0  0  0  0  0
   -2.8477    7.1894  -18.6058 C   0  0  0  0  0  0  0  0  0  0  0  0
   -5.2027    8.5417  -19.3932 Br  0  0  0  0  0  0  0  0  0  0  0  0
   -5.0538    6.2026  -17.8360 C   0  0  0  0  0  0  0  0  0  0  0  0
   -4.6699    6.3471  -16.7404 O   0  0  0  0  0  0  0  0  0  0  0  0
   -6.3473    5.5247  -18.3685 N   0  0  0  0  0  0  0  0  0  0  0  0
   -7.3223    4.8467  -17.7107 C   0  0  0  0  0  0  0  0  0  0  0  0
   -8.3521    4.4124  -18.4982 N   0  0  0  0  0  0  0  0  0  0  0  0
   -9.2643    3.9270  -17.6902 C   0  0  0  0  0  0  0  0  0  0  0  0
   -8.8412    3.9567  -16.4017 N   0  0  0  0  0  0  0  0  0  0  0  0
   -7.6044    4.5474  -16.4076 C   0  0  0  0  0  0  0  0  0  0  0  0
   -7.0063    4.8006  -15.1654 N   0  0  0  0  0  0  0  0  0  0  0  0
   -5.8291    4.4873  -14.9912 O   0  0  0  0  0  0  0  0  0  0  0  0
   -7.7750    5.2775  -14.3242 O   0  0  0  0  0  0  0  0  0  0  0  0
  1  2  1  0
  2  3  1  0
  2  4  1  0
  2  5  1  0
  5  6  2  0
  5  7  1  0
  7  8  1  0
  8  9  1  0
  9 10  2  0
 10 11  1  0
 11 12  1  0
 12 13  1  0
 13 14  2  0
 13 15  1  0
 12  8  2  0
M  CHG  2  13   1  15  -1
M  END
>  <energy_score>  (3717) 
-25.85309

>  <alias>  (3717) 
JNEKUIHSWGVQNZ-UHFFFAOYSA-N-P86-P35-P86-601527

>  <HIPPO Pose ID>  (3717) 
79750

>  <smiles>  (3717) 
CC(C)(Br)C(=O)Nc1nc[nH]c1[N+](=O)[O-]

>  <inchikey>  (3717) 
JNEKUIHSWGVQNZ-UHFFFAOYSA-N

>  <distance_score>  (3717) 
1.573456

>  <ref_mols>  (3717) 
Z0719a,Z1597a

>  <ref_pdb>  (3717) 
Z0719a

>  <HIPPO Compound ID>  (3717) 
150660

>  <name>  (3717) 
JNEKUIHSWGVQNZ-UHFFFAOYSA-N-P86-P35-P86-601527

>  <inspiration_score>  (3717) 
None

$$$$
OLNKGLXJPLWCEG-UHFFFAOYSA-N-P35-P35-P86-601527
     RDKit          3D

 15 15  0  0  0  0  0  0  0  0999 V2000
   -5.9196    2.6444  -12.8796 C   0  0  0  0  0  0  0  0  0  0  0  0
   -5.8810    3.6462  -14.0121 C   0  0  0  0  0  0  0  0  0  0  0  0
   -7.2939    3.9304  -14.5683 C   0  0  0  0  0  0  0  0  0  0  0  0
   -7.3357    4.4812  -15.9071 N   0  0  0  0  0  0  0  0  0  0  0  0
   -8.3165    4.2966  -16.8376 C   0  0  0  0  0  0  0  0  0  0  0  0
   -7.9404    4.7529  -18.0152 N   0  0  0  0  0  0  0  0  0  0  0  0
   -6.7214    5.3128  -17.8090 C   0  0  0  0  0  0  0  0  0  0  0  0
   -5.9531    5.8212  -18.7977 N   0  0  0  0  0  0  0  0  0  0  0  0
   -4.5959    6.5837  -18.7332 C   0  0  0  0  0  0  0  0  0  0  0  0
   -3.9772    6.9542  -17.8108 O   0  0  0  0  0  0  0  0  0  0  0  0
   -4.0528    6.7203  -20.1609 C   0  0  1  0  0  0  0  0  0  0  0  0
   -4.9665    7.4703  -21.1151 C   0  0  0  0  0  0  0  0  0  0  0  0
   -2.6817    7.3992  -20.1348 C   0  0  0  0  0  0  0  0  0  0  0  0
   -2.8272    8.7393  -19.9498 F   0  0  0  0  0  0  0  0  0  0  0  0
   -6.3626    5.2309  -16.4941 C   0  0  0  0  0  0  0  0  0  0  0  0
  1  2  1  0
  2  3  1  0
  3  4  1  0
  4  5  1  0
  5  6  2  0
  6  7  1  0
  7  8  1  0
  8  9  1  0
  9 10  2  0
  9 11  1  0
 11 12  1  6
 11 13  1  0
 13 14  1  0
  7 15  2  0
 15  4  1  0
M  END
>  <energy_score>  (3718) 
-27.69831

>  <alias>  (3718) 
OLNKGLXJPLWCEG-UHFFFAOYSA-N-P35-P35-P86-601527

>  <HIPPO Pose ID>  (3718) 
79751

>  <smiles>  (3718) 
CCCn1cnc(NC(=O)C(C)CF)c1

>  <inchikey>  (3718) 
OLNKGLXJPLWCEG-UHFFFAOYSA-N

>  <distance_score>  (3718) 
1.75817

>  <ref_mols>  (3718) 
Z0719a,Z1597a

>  <ref_pdb>  (3718) 
Z0719a

>  <HIPPO Compound ID>  (3718) 
150661

>  <name>  (3718) 
OLNKGLXJPLWCEG-UHFFFAOYSA-N-P35-P35-P86-601527

>  <inspiration_score>  (3718) 
None

$$$$
GZTYKLREFIJAMC-UHFFFAOYSA-N-P86-P35-P86-601527
     RDKit          3D

 15 17  0  0  0  0  0  0  0  0999 V2000
   -4.3554    5.6991  -18.2234 O   0  0  0  0  0  0  0  0  0  0  0  0
   -5.0152    5.5412  -19.1704 C   0  0  0  0  0  0  0  0  0  0  0  0
   -6.4493    5.0034  -19.3084 N   0  0  0  0  0  0  0  0  0  0  0  0
   -7.3585    4.6544  -18.3571 C   0  0  0  0  0  0  0  0  0  0  0  0
   -8.6356    4.1417  -18.5186 C   0  0  0  0  0  0  0  0  0  0  0  0
   -9.2527    3.8967  -17.3077 N   0  0  0  0  0  0  0  0  0  0  0  0
   -8.3671    4.2879  -16.4296 C   0  0  0  0  0  0  0  0  0  0  0  0
   -7.2232    4.7288  -17.0207 N   0  0  0  0  0  0  0  0  0  0  0  0
   -6.2719    5.2773  -16.0846 C   0  0  0  0  0  0  0  0  0  0  0  0
   -7.0847    5.3600  -14.7885 C   0  0  0  0  0  0  0  0  0  0  0  0
   -8.3071    4.4357  -14.9687 C   0  0  0  0  0  0  0  0  0  0  0  0
   -4.4656    5.8486  -20.5204 C   0  0  1  0  0  0  0  0  0  0  0  0
   -4.5989    7.2442  -21.0738 C   0  0  0  0  0  0  0  0  0  0  0  0
   -3.2472    6.7289  -20.6684 C   0  0  2  0  0  0  0  0  0  0  0  0
   -1.9977    6.3401  -22.0626 Br  0  0  0  0  0  0  0  0  0  0  0  0
  1  2  2  0
  2  3  1  0
  3  4  1  0
  4  5  2  0
  5  6  1  0
  6  7  2  0
  7  8  1  0
  8  9  1  0
  9 10  1  0
 10 11  1  0
 12  2  1  1
 12 13  1  0
 13 14  1  0
 14 15  1  6
  8  4  1  0
 14 12  1  0
 11  7  1  0
M  END
>  <energy_score>  (3719) 
-28.076336

>  <alias>  (3719) 
GZTYKLREFIJAMC-UHFFFAOYSA-N-P86-P35-P86-601527

>  <HIPPO Pose ID>  (3719) 
79764

>  <smiles>  (3719) 
O=C(Nc1cnc2n1CCC2)C1CC1Br

>  <inchikey>  (3719) 
GZTYKLREFIJAMC-UHFFFAOYSA-N

>  <distance_score>  (3719) 
1.311904

>  <ref_mols>  (3719) 
Z0719a,Z1597a

>  <ref_pdb>  (3719) 
Z0719a

>  <HIPPO Compound ID>  (3719) 
150667

>  <name>  (3719) 
GZTYKLREFIJAMC-UHFFFAOYSA-N-P86-P35-P86-601527

>  <inspiration_score>  (3719) 
None

$$$$
UIWCZRIXQVYZDC-UHFFFAOYSA-N-P35-P35-P86-601527
     RDKit          3D

 15 16  0  0  0  0  0  0  0  0999 V2000
   -8.0823    7.1620  -11.9657 C   0  0  0  0  0  0  0  0  0  0  0  0
   -7.7904    5.7599  -11.6023 C   0  0  0  0  0  0  0  0  0  0  0  0
   -7.9389    5.3534  -10.2966 N   0  0  0  0  0  0  0  0  0  0  0  0
   -7.7174    4.0535  -10.2902 C   0  0  0  0  0  0  0  0  0  0  0  0
   -7.8565    3.1772   -9.1075 C   0  0  0  0  0  0  0  0  0  0  0  0
   -7.3314    3.6245  -11.5372 N   0  0  0  0  0  0  0  0  0  0  0  0
   -6.7785    2.3412  -11.9054 C   0  0  0  0  0  0  0  0  0  0  0  0
   -7.4439    4.6870  -12.3981 C   0  0  0  0  0  0  0  0  0  0  0  0
   -7.2529    4.5442  -13.7395 N   0  0  0  0  0  0  0  0  0  0  0  0
   -6.9972    5.5919  -14.8243 C   0  0  0  0  0  0  0  0  0  0  0  0
   -6.8314    6.7402  -14.7403 O   0  0  0  0  0  0  0  0  0  0  0  0
   -7.0901    4.9348  -16.1610 C   0  0  2  0  0  0  0  0  0  0  0  0
   -7.1945    5.7715  -17.4031 C   0  0  0  0  0  0  0  0  0  0  0  0
   -8.4238    5.1080  -16.8320 C   0  0  1  0  0  0  0  0  0  0  0  0
   -9.2421    3.8222  -17.9315 Br  0  0  0  0  0  0  0  0  0  0  0  0
  1  2  1  0
  2  3  1  0
  3  4  2  0
  4  5  1  0
  4  6  1  0
  6  7  1  0
  6  8  1  0
  8  9  1  0
  9 10  1  0
 10 11  2  0
 12 10  1  1
 12 13  1  0
 13 14  1  0
 14 15  1  6
  8  2  2  0
 14 12  1  0
M  END
>  <energy_score>  (3720) 
-29.222462

>  <alias>  (3720) 
UIWCZRIXQVYZDC-UHFFFAOYSA-N-P35-P35-P86-601527

>  <HIPPO Pose ID>  (3720) 
79765

>  <smiles>  (3720) 
Cc1nc(C)n(C)c1NC(=O)C1CC1Br

>  <inchikey>  (3720) 
UIWCZRIXQVYZDC-UHFFFAOYSA-N

>  <distance_score>  (3720) 
1.395135

>  <ref_mols>  (3720) 
Z0719a,Z1597a

>  <ref_pdb>  (3720) 
Z0719a

>  <HIPPO Compound ID>  (3720) 
150668

>  <name>  (3720) 
UIWCZRIXQVYZDC-UHFFFAOYSA-N-P35-P35-P86-601527

>  <inspiration_score>  (3720) 
None

$$$$
RJVODZGXJUPULK-UHFFFAOYSA-N-P86-P35-P86-601527
     RDKit          3D

 15 16  0  0  0  0  0  0  0  0999 V2000
   -4.5918    4.2335  -12.7173 C   0  0  0  0  0  0  0  0  0  0  0  0
   -5.0497    5.3330  -11.7377 C   0  0  0  0  0  0  0  0  0  0  0  0
   -6.3451    4.9686  -11.0951 C   0  0  0  0  0  0  0  0  0  0  0  0
   -6.4209    4.7674   -9.7330 N   0  0  0  0  0  0  0  0  0  0  0  0
   -7.4952    4.0309   -9.5621 C   0  0  0  0  0  0  0  0  0  0  0  0
   -8.1034    3.7771  -10.7572 N   0  0  0  0  0  0  0  0  0  0  0  0
   -8.9685    2.6664  -11.0067 C   0  0  0  0  0  0  0  0  0  0  0  0
   -7.5046    4.5476  -11.7149 C   0  0  0  0  0  0  0  0  0  0  0  0
   -7.9278    4.7035  -13.0036 N   0  0  0  0  0  0  0  0  0  0  0  0
   -7.4656    5.6810  -14.0937 C   0  0  0  0  0  0  0  0  0  0  0  0
   -6.7044    6.5606  -14.0456 O   0  0  0  0  0  0  0  0  0  0  0  0
   -8.1329    5.4361  -15.3934 C   0  0  1  0  0  0  0  0  0  0  0  0
   -7.1452    5.2659  -16.5470 C   0  0  0  0  0  0  0  0  0  0  0  0
   -8.1046    4.1771  -16.1919 C   0  0  2  0  0  0  0  0  0  0  0  0
   -9.3866    3.8453  -17.5638 Br  0  0  0  0  0  0  0  0  0  0  0  0
  1  2  1  0
  2  3  1  0
  3  4  1  0
  4  5  2  0
  5  6  1  0
  6  7  1  0
  6  8  1  0
  8  9  1  0
  9 10  1  0
 10 11  2  0
 12 10  1  1
 12 13  1  0
 13 14  1  0
 14 15  1  6
  8  3  2  0
 14 12  1  0
M  END
>  <energy_score>  (3721) 
-15.270888

>  <alias>  (3721) 
RJVODZGXJUPULK-UHFFFAOYSA-N-P86-P35-P86-601527

>  <HIPPO Pose ID>  (3721) 
79768

>  <smiles>  (3721) 
CCc1ncn(C)c1NC(=O)C1CC1Br

>  <inchikey>  (3721) 
RJVODZGXJUPULK-UHFFFAOYSA-N

>  <distance_score>  (3721) 
1.549518

>  <ref_mols>  (3721) 
Z0719a,Z1597a

>  <ref_pdb>  (3721) 
Z0719a

>  <HIPPO Compound ID>  (3721) 
150669

>  <name>  (3721) 
RJVODZGXJUPULK-UHFFFAOYSA-N-P86-P35-P86-601527

>  <inspiration_score>  (3721) 
None

$$$$
NRUXPVHMQYQGKP-UHFFFAOYSA-N-P86-P35-P86-601527
     RDKit          3D

 15 16  0  0  0  0  0  0  0  0999 V2000
   -6.9883    4.2960   -8.9170 C   0  0  0  0  0  0  0  0  0  0  0  0
   -7.5753    3.8275  -10.1362 N   0  0  0  0  0  0  0  0  0  0  0  0
   -8.6852    3.0395  -10.2474 C   0  0  0  0  0  0  0  0  0  0  0  0
   -9.1022    2.9820  -11.4955 N   0  0  0  0  0  0  0  0  0  0  0  0
   -8.2254    3.7479  -12.1838 C   0  0  0  0  0  0  0  0  0  0  0  0
   -8.3948    4.0666  -13.4819 N   0  0  0  0  0  0  0  0  0  0  0  0
   -7.8921    5.2701  -14.2848 C   0  0  0  0  0  0  0  0  0  0  0  0
   -7.1870    6.1419  -13.9757 O   0  0  0  0  0  0  0  0  0  0  0  0
   -8.3641    5.2374  -15.6753 C   0  0  1  0  0  0  0  0  0  0  0  0
   -7.2675    5.3444  -16.7378 C   0  0  0  0  0  0  0  0  0  0  0  0
   -8.0948    4.1133  -16.6103 C   0  0  2  0  0  0  0  0  0  0  0  0
   -9.3065    3.7718  -18.0225 Br  0  0  0  0  0  0  0  0  0  0  0  0
   -7.1670    4.1255  -11.4030 C   0  0  0  0  0  0  0  0  0  0  0  0
   -5.9007    4.5478  -11.8791 C   0  0  0  0  0  0  0  0  0  0  0  0
   -4.8838    4.7788  -12.3896 N   0  0  0  0  0  0  0  0  0  0  0  0
  1  2  1  0
  2  3  1  0
  3  4  2  0
  4  5  1  0
  5  6  1  0
  6  7  1  0
  7  8  2  0
  9  7  1  1
  9 10  1  0
 10 11  1  0
 11 12  1  6
  5 13  2  0
 13 14  1  0
 14 15  3  0
 13  2  1  0
 11  9  1  0
M  END
>  <energy_score>  (3722) 
-9.248324

>  <alias>  (3722) 
NRUXPVHMQYQGKP-UHFFFAOYSA-N-P86-P35-P86-601527

>  <HIPPO Pose ID>  (3722) 
79770

>  <smiles>  (3722) 
Cn1cnc(NC(=O)C2CC2Br)c1C#N

>  <inchikey>  (3722) 
NRUXPVHMQYQGKP-UHFFFAOYSA-N

>  <distance_score>  (3722) 
1.255211

>  <ref_mols>  (3722) 
Z0719a,Z1597a

>  <ref_pdb>  (3722) 
Z0719a

>  <HIPPO Compound ID>  (3722) 
150670

>  <name>  (3722) 
NRUXPVHMQYQGKP-UHFFFAOYSA-N-P86-P35-P86-601527

>  <inspiration_score>  (3722) 
None

$$$$
PFEYNLLFQYWICW-UHFFFAOYSA-N-P86-P35-P86-601527
     RDKit          3D

 15 16  0  0  0  0  0  0  0  0999 V2000
   -3.8610    1.8810  -12.1332 C   0  0  0  0  0  0  0  0  0  0  0  0
   -5.3245    2.2540  -12.0365 C   0  0  0  0  0  0  0  0  0  0  0  0
   -5.6965    2.8304  -10.6480 C   0  0  0  0  0  0  0  0  0  0  0  0
   -6.9495    3.5787  -10.7345 N   0  0  0  0  0  0  0  0  0  0  0  0
   -8.1850    2.9865  -10.7239 C   0  0  0  0  0  0  0  0  0  0  0  0
   -8.8774    3.3786  -11.7742 N   0  0  0  0  0  0  0  0  0  0  0  0
   -8.0778    4.2918  -12.3802 C   0  0  0  0  0  0  0  0  0  0  0  0
   -8.1824    4.5707  -13.6955 N   0  0  0  0  0  0  0  0  0  0  0  0
   -7.2694    5.3917  -14.6165 C   0  0  0  0  0  0  0  0  0  0  0  0
   -6.3216    6.0232  -14.3728 O   0  0  0  0  0  0  0  0  0  0  0  0
   -7.7980    5.3815  -16.0014 C   0  0  1  0  0  0  0  0  0  0  0  0
   -6.8675    5.8160  -17.1331 C   0  0  0  0  0  0  0  0  0  0  0  0
   -7.3628    4.4193  -17.0619 C   0  0  2  0  0  0  0  0  0  0  0  0
   -8.6456    3.8918  -18.3708 Br  0  0  0  0  0  0  0  0  0  0  0  0
   -7.0448    4.6772  -11.5638 C   0  0  0  0  0  0  0  0  0  0  0  0
  1  2  1  0
  2  3  1  0
  3  4  1  0
  4  5  1  0
  5  6  2  0
  6  7  1  0
  7  8  1  0
  8  9  1  0
  9 10  2  0
 11  9  1  1
 11 12  1  0
 12 13  1  0
 13 14  1  6
  7 15  2  0
 15  4  1  0
 13 11  1  0
M  END
>  <energy_score>  (3723) 
-12.681015

>  <alias>  (3723) 
PFEYNLLFQYWICW-UHFFFAOYSA-N-P86-P35-P86-601527

>  <HIPPO Pose ID>  (3723) 
79772

>  <smiles>  (3723) 
CCCn1cnc(NC(=O)C2CC2Br)c1

>  <inchikey>  (3723) 
PFEYNLLFQYWICW-UHFFFAOYSA-N

>  <distance_score>  (3723) 
1.392601

>  <ref_mols>  (3723) 
Z0719a,Z1597a

>  <ref_pdb>  (3723) 
Z0719a

>  <HIPPO Compound ID>  (3723) 
150671

>  <name>  (3723) 
PFEYNLLFQYWICW-UHFFFAOYSA-N-P86-P35-P86-601527

>  <inspiration_score>  (3723) 
None

$$$$
KJLSXTSQRNXADK-UHFFFAOYSA-N-P35-P35-P86-601527
     RDKit          3D

 15 15  0  0  0  0  0  0  0  0999 V2000
   -7.5498    3.3827  -14.4184 C   0  0  0  0  0  0  0  0  0  0  0  0
   -7.9613    3.9204  -15.7668 C   0  0  0  0  0  0  0  0  0  0  0  0
   -8.9503    3.5165  -16.5474 N   0  0  0  0  0  0  0  0  0  0  0  0
   -8.8111    4.2041  -17.7270 C   0  0  0  0  0  0  0  0  0  0  0  0
   -7.7255    5.0460  -17.6702 C   0  0  0  0  0  0  0  0  0  0  0  0
   -7.1449    5.7627  -18.6766 N   0  0  0  0  0  0  0  0  0  0  0  0
   -5.7400    6.4309  -18.7617 C   0  0  0  0  0  0  0  0  0  0  0  0
   -4.8996    6.5338  -17.9544 O   0  0  0  0  0  0  0  0  0  0  0  0
   -5.6232    7.0128  -20.1664 C   0  0  0  0  0  0  0  0  0  0  0  0
   -4.1837    7.1553  -20.6160 C   0  0  0  0  0  0  0  0  0  0  0  0
   -3.4337    8.8518  -20.0100 Br  0  0  0  0  0  0  0  0  0  0  0  0
   -7.3403    5.0031  -16.3542 N   0  0  0  0  0  0  0  0  0  0  0  0
   -6.6486    6.0248  -15.5992 C   0  0  0  0  0  0  0  0  0  0  0  0
   -7.3694    6.3687  -14.3617 C   0  0  0  0  0  0  0  0  0  0  0  0
   -7.9721    6.5464  -13.3844 N   0  0  0  0  0  0  0  0  0  0  0  0
  1  2  1  0
  2  3  2  0
  3  4  1  0
  4  5  2  0
  5  6  1  0
  6  7  1  0
  7  8  2  0
  7  9  1  0
  9 10  1  0
 10 11  1  0
  5 12  1  0
 12 13  1  0
 13 14  1  0
 14 15  3  0
 12  2  1  0
M  END
>  <energy_score>  (3724) 
-5.699185

>  <alias>  (3724) 
KJLSXTSQRNXADK-UHFFFAOYSA-N-P35-P35-P86-601527

>  <HIPPO Pose ID>  (3724) 
79781

>  <smiles>  (3724) 
Cc1ncc(NC(=O)CCBr)n1CC#N

>  <inchikey>  (3724) 
KJLSXTSQRNXADK-UHFFFAOYSA-N

>  <distance_score>  (3724) 
1.834834

>  <ref_mols>  (3724) 
Z0719a,Z1597a

>  <ref_pdb>  (3724) 
Z0719a

>  <HIPPO Compound ID>  (3724) 
150676

>  <name>  (3724) 
KJLSXTSQRNXADK-UHFFFAOYSA-N-P35-P35-P86-601527

>  <inspiration_score>  (3724) 
None

$$$$
AWHCOFPWJGZSDJ-UHFFFAOYSA-N-P86-P35-P86-601527
     RDKit          3D

 16 16  0  0  0  0  0  0  0  0999 V2000
   -6.5990    5.7070  -12.6832 C   0  0  0  0  0  0  0  0  0  0  0  0
   -6.3894    6.1772  -14.1201 C   0  0  0  0  0  0  0  0  0  0  0  0
   -6.1291    5.0306  -15.0942 C   0  0  0  0  0  0  0  0  0  0  0  0
   -7.0969    4.9347  -16.1596 N   0  0  0  0  0  0  0  0  0  0  0  0
   -8.3777    4.4974  -15.9046 C   0  0  0  0  0  0  0  0  0  0  0  0
   -8.9450    4.4386  -14.5539 C   0  0  0  0  0  0  0  0  0  0  0  0
   -8.9777    4.0945  -16.9935 N   0  0  0  0  0  0  0  0  0  0  0  0
   -8.0667    4.2887  -17.9823 C   0  0  0  0  0  0  0  0  0  0  0  0
   -8.4178    3.8320  -19.3188 C   0  0  0  0  0  0  0  0  0  0  0  0
   -6.9124    4.8880  -17.5171 C   0  0  0  0  0  0  0  0  0  0  0  0
   -5.8319    5.2528  -18.2716 N   0  0  0  0  0  0  0  0  0  0  0  0
   -4.6361    6.1899  -17.9366 C   0  0  0  0  0  0  0  0  0  0  0  0
   -4.3536    6.7305  -16.9390 O   0  0  0  0  0  0  0  0  0  0  0  0
   -3.7435    6.2292  -19.1793 C   0  0  0  0  0  0  0  0  0  0  0  0
   -4.3844    6.8462  -20.4081 C   0  0  0  0  0  0  0  0  0  0  0  0
   -4.6468    8.7634  -20.1595 Br  0  0  0  0  0  0  0  0  0  0  0  0
  1  2  1  0
  2  3  1  0
  3  4  1  0
  4  5  1  0
  5  6  1  0
  5  7  2  0
  7  8  1  0
  8  9  1  0
  8 10  2  0
 10 11  1  0
 11 12  1  0
 12 13  2  0
 12 14  1  0
 14 15  1  0
 15 16  1  0
 10  4  1  0
M  END
>  <energy_score>  (3725) 
-15.215705

>  <alias>  (3725) 
AWHCOFPWJGZSDJ-UHFFFAOYSA-N-P86-P35-P86-601527

>  <HIPPO Pose ID>  (3725) 
79786

>  <smiles>  (3725) 
CCCn1c(C)nc(C)c1NC(=O)CCBr

>  <inchikey>  (3725) 
AWHCOFPWJGZSDJ-UHFFFAOYSA-N

>  <distance_score>  (3725) 
1.592766

>  <ref_mols>  (3725) 
Z0719a,Z1597a

>  <ref_pdb>  (3725) 
Z0719a

>  <HIPPO Compound ID>  (3725) 
150678

>  <name>  (3725) 
AWHCOFPWJGZSDJ-UHFFFAOYSA-N-P86-P35-P86-601527

>  <inspiration_score>  (3725) 
None

$$$$
GAZFDOKAZRCOFE-UHFFFAOYSA-N-P35-P35-P86-601527
     RDKit          3D

 16 17  0  0  0  0  0  0  0  0999 V2000
   -8.9416    4.1921  -18.9671 C   0  0  0  0  0  0  0  0  0  0  0  0
   -8.3398    4.4640  -17.6633 C   0  0  0  0  0  0  0  0  0  0  0  0
   -9.0826    4.2278  -16.5439 N   0  0  0  0  0  0  0  0  0  0  0  0
   -8.3088    4.5645  -15.5373 C   0  0  0  0  0  0  0  0  0  0  0  0
   -8.7296    4.5731  -14.1244 C   0  0  0  0  0  0  0  0  0  0  0  0
   -7.0592    4.9252  -15.9823 N   0  0  0  0  0  0  0  0  0  0  0  0
   -5.8728    5.1004  -15.1291 C   0  0  0  0  0  0  0  0  0  0  0  0
   -5.6755    6.3857  -14.3653 C   0  0  0  0  0  0  0  0  0  0  0  0
   -5.7686    5.0924  -13.6194 C   0  0  0  0  0  0  0  0  0  0  0  0
   -7.0848    4.9571  -17.3593 C   0  0  0  0  0  0  0  0  0  0  0  0
   -6.1430    5.3477  -18.2821 N   0  0  0  0  0  0  0  0  0  0  0  0
   -4.7203    5.9439  -18.0826 C   0  0  0  0  0  0  0  0  0  0  0  0
   -4.1635    6.2650  -17.1060 O   0  0  0  0  0  0  0  0  0  0  0  0
   -4.0600    6.0244  -19.4555 C   0  0  0  0  0  0  0  0  0  0  0  0
   -4.7404    6.9577  -20.4363 C   0  0  0  0  0  0  0  0  0  0  0  0
   -4.5982    8.8141  -19.8561 Br  0  0  0  0  0  0  0  0  0  0  0  0
  1  2  1  0
  2  3  1  0
  3  4  2  0
  4  5  1  0
  4  6  1  0
  6  7  1  0
  7  8  1  0
  8  9  1  0
  6 10  1  0
 10 11  1  0
 11 12  1  0
 12 13  2  0
 12 14  1  0
 14 15  1  0
 15 16  1  0
 10  2  2  0
  9  7  1  0
M  END
>  <energy_score>  (3726) 
-6.30337

>  <alias>  (3726) 
GAZFDOKAZRCOFE-UHFFFAOYSA-N-P35-P35-P86-601527

>  <HIPPO Pose ID>  (3726) 
79791

>  <smiles>  (3726) 
Cc1nc(C)n(C2CC2)c1NC(=O)CCBr

>  <inchikey>  (3726) 
GAZFDOKAZRCOFE-UHFFFAOYSA-N

>  <distance_score>  (3726) 
1.839774

>  <ref_mols>  (3726) 
Z0719a,Z1597a

>  <ref_pdb>  (3726) 
Z0719a

>  <HIPPO Compound ID>  (3726) 
150681

>  <name>  (3726) 
GAZFDOKAZRCOFE-UHFFFAOYSA-N-P35-P35-P86-601527

>  <inspiration_score>  (3726) 
None

$$$$
OLKBXPIUGSYIFF-UHFFFAOYSA-N-P86-P35-P86-601527
     RDKit          3D

 16 17  0  0  0  0  0  0  0  0999 V2000
   -3.1722    5.7956  -20.3529 O   0  0  0  0  0  0  0  0  0  0  0  0
   -4.2334    5.8228  -20.8416 C   0  0  0  0  0  0  0  0  0  0  0  0
   -4.4692    6.3595  -22.2308 C   0  0  0  0  0  0  0  0  0  0  0  0
   -4.6768    7.8415  -22.0594 C   0  0  0  0  0  0  0  0  0  0  0  0
   -5.3696    8.6055  -23.7127 Br  0  0  0  0  0  0  0  0  0  0  0  0
   -5.6236    5.4613  -20.2504 N   0  0  0  0  0  0  0  0  0  0  0  0
   -5.9770    5.1093  -18.9990 C   0  0  0  0  0  0  0  0  0  0  0  0
   -7.2306    4.7446  -18.5672 C   0  0  0  0  0  0  0  0  0  0  0  0
   -7.1297    4.7228  -17.2074 N   0  0  0  0  0  0  0  0  0  0  0  0
   -8.1531    4.5687  -16.3302 N   0  0  0  0  0  0  0  0  0  0  0  0
   -7.7587    4.7073  -15.1053 C   0  0  0  0  0  0  0  0  0  0  0  0
   -8.9562    4.6890  -13.8927 Cl  0  0  0  0  0  0  0  0  0  0  0  0
   -6.3763    4.9566  -14.6381 C   0  0  0  0  0  0  0  0  0  0  0  0
   -5.4387    5.1371  -15.5630 C   0  0  0  0  0  0  0  0  0  0  0  0
   -5.8131    5.0458  -16.9104 C   0  0  0  0  0  0  0  0  0  0  0  0
   -5.0954    5.2479  -17.9829 N   0  0  0  0  0  0  0  0  0  0  0  0
  1  2  2  0
  2  3  1  0
  3  4  1  0
  4  5  1  0
  2  6  1  0
  6  7  1  0
  7  8  2  0
  8  9  1  0
  9 10  1  0
 10 11  2  0
 11 12  1  0
 11 13  1  0
 13 14  2  0
 14 15  1  0
 15 16  2  0
 16  7  1  0
 15  9  1  0
M  END
>  <energy_score>  (3727) 
-16.60734

>  <alias>  (3727) 
OLKBXPIUGSYIFF-UHFFFAOYSA-N-P86-P35-P86-601527

>  <HIPPO Pose ID>  (3727) 
79794

>  <smiles>  (3727) 
O=C(CCBr)Nc1cn2nc(Cl)ccc2n1

>  <inchikey>  (3727) 
OLKBXPIUGSYIFF-UHFFFAOYSA-N

>  <distance_score>  (3727) 
1.919883

>  <ref_mols>  (3727) 
Z0719a,Z1597a

>  <ref_pdb>  (3727) 
Z0719a

>  <HIPPO Compound ID>  (3727) 
150682

>  <name>  (3727) 
OLKBXPIUGSYIFF-UHFFFAOYSA-N-P86-P35-P86-601527

>  <inspiration_score>  (3727) 
None

$$$$
AQKUIFXLHLQHNP-UHFFFAOYSA-N-P35-P35-P86-601527
     RDKit          3D

 16 17  0  0  0  0  0  0  0  0999 V2000
   -4.3922    5.8052  -17.1307 O   0  0  0  0  0  0  0  0  0  0  0  0
   -4.7679    5.6299  -18.2223 C   0  0  0  0  0  0  0  0  0  0  0  0
   -3.8527    5.7937  -19.4233 C   0  0  0  0  0  0  0  0  0  0  0  0
   -4.2617    6.9607  -20.2942 C   0  0  0  0  0  0  0  0  0  0  0  0
   -2.9196    7.2344  -21.6824 Br  0  0  0  0  0  0  0  0  0  0  0  0
   -6.1385    5.1192  -18.7453 N   0  0  0  0  0  0  0  0  0  0  0  0
   -7.2928    4.8272  -18.0721 C   0  0  0  0  0  0  0  0  0  0  0  0
   -8.4676    4.7613  -18.7777 N   0  0  0  0  0  0  0  0  0  0  0  0
   -9.4870    4.4896  -17.9194 C   0  0  0  0  0  0  0  0  0  0  0  0
   -9.0412    4.3211  -16.7059 N   0  0  0  0  0  0  0  0  0  0  0  0
   -7.6737    4.5539  -16.7693 C   0  0  0  0  0  0  0  0  0  0  0  0
   -6.9129    4.3635  -15.5327 C   0  0  0  0  0  0  0  0  0  0  0  0
   -5.6152    3.9185  -15.5211 N   0  0  0  0  0  0  0  0  0  0  0  0
   -5.3337    3.5967  -14.2632 N   0  0  0  0  0  0  0  0  0  0  0  0
   -6.4612    3.8656  -13.5944 N   0  0  0  0  0  0  0  0  0  0  0  0
   -7.4486    4.4244  -14.3007 N   0  0  0  0  0  0  0  0  0  0  0  0
  1  2  2  0
  2  3  1  0
  3  4  1  0
  4  5  1  0
  2  6  1  0
  6  7  1  0
  7  8  1  0
  8  9  1  0
  9 10  2  0
 10 11  1  0
 11 12  1  0
 12 13  1  0
 13 14  2  0
 14 15  1  0
 15 16  1  0
 11  7  2  0
 16 12  2  0
M  END
>  <energy_score>  (3728) 
-20.22057

>  <alias>  (3728) 
AQKUIFXLHLQHNP-UHFFFAOYSA-N-P35-P35-P86-601527

>  <HIPPO Pose ID>  (3728) 
79797

>  <smiles>  (3728) 
O=C(CCBr)Nc1[nH]cnc1-c1nn[nH]n1

>  <inchikey>  (3728) 
AQKUIFXLHLQHNP-UHFFFAOYSA-N

>  <distance_score>  (3728) 
1.933519

>  <ref_mols>  (3728) 
Z0719a,Z1597a

>  <ref_pdb>  (3728) 
Z0719a

>  <HIPPO Compound ID>  (3728) 
150684

>  <name>  (3728) 
AQKUIFXLHLQHNP-UHFFFAOYSA-N-P35-P35-P86-601527

>  <inspiration_score>  (3728) 
None

$$$$
PSTZMGLCEZVBIY-UHFFFAOYSA-N-P86-P35-P86-601527
     RDKit          3D

 16 17  0  0  0  0  0  0  0  0999 V2000
   -0.9724    5.9657  -22.5871 C   0  0  0  0  0  0  0  0  0  0  0  0
   -1.7362    5.8695  -21.3098 C   0  0  0  0  0  0  0  0  0  0  0  0
   -2.9960    6.2817  -21.0786 C   0  0  0  0  0  0  0  0  0  0  0  0
   -3.9149    6.9834  -22.0233 C   0  0  0  0  0  0  0  0  0  0  0  0
   -3.4911    6.1368  -19.6714 C   0  0  0  0  0  0  0  0  0  0  0  0
   -2.8944    6.5495  -18.7581 O   0  0  0  0  0  0  0  0  0  0  0  0
   -4.8563    5.4170  -19.7331 N   0  0  0  0  0  0  0  0  0  0  0  0
   -5.7570    5.1564  -18.7579 C   0  0  0  0  0  0  0  0  0  0  0  0
   -6.9393    4.4772  -18.9103 C   0  0  0  0  0  0  0  0  0  0  0  0
   -7.5039    4.4701  -17.6730 N   0  0  0  0  0  0  0  0  0  0  0  0
   -8.7105    3.9417  -17.3602 N   0  0  0  0  0  0  0  0  0  0  0  0
   -8.9736    4.0668  -16.1025 C   0  0  0  0  0  0  0  0  0  0  0  0
   -8.1150    4.6763  -15.0646 C   0  0  0  0  0  0  0  0  0  0  0  0
   -6.9510    5.1942  -15.4629 C   0  0  0  0  0  0  0  0  0  0  0  0
   -6.6157    5.1190  -16.8280 C   0  0  0  0  0  0  0  0  0  0  0  0
   -5.5670    5.5697  -17.4753 N   0  0  0  0  0  0  0  0  0  0  0  0
  1  2  1  0
  2  3  2  3
  3  4  1  0
  3  5  1  0
  5  6  2  0
  5  7  1  0
  7  8  1  0
  8  9  2  0
  9 10  1  0
 10 11  1  0
 11 12  2  0
 12 13  1  0
 13 14  2  0
 14 15  1  0
 15 16  2  0
 16  8  1  0
 15 10  1  0
M  END
>  <energy_score>  (3729) 
-16.211487

>  <alias>  (3729) 
PSTZMGLCEZVBIY-UHFFFAOYSA-N-P86-P35-P86-601527

>  <HIPPO Pose ID>  (3729) 
79816

>  <smiles>  (3729) 
CC=C(C)C(=O)Nc1cn2ncccc2n1

>  <inchikey>  (3729) 
PSTZMGLCEZVBIY-UHFFFAOYSA-N

>  <distance_score>  (3729) 
1.672982

>  <ref_mols>  (3729) 
Z0719a,Z1597a

>  <ref_pdb>  (3729) 
Z0719a

>  <HIPPO Compound ID>  (3729) 
150693

>  <name>  (3729) 
PSTZMGLCEZVBIY-UHFFFAOYSA-N-P86-P35-P86-601527

>  <inspiration_score>  (3729) 
None

$$$$
IUIWXSWQFIUCBM-UHFFFAOYSA-N-P35-P35-P86-601527
     RDKit          3D

 16 17  0  0  0  0  0  0  0  0999 V2000
   -0.5343    6.4936  -21.9349 C   0  0  0  0  0  0  0  0  0  0  0  0
   -1.3617    6.1062  -20.7516 C   0  0  0  0  0  0  0  0  0  0  0  0
   -2.6424    6.4478  -20.5138 C   0  0  0  0  0  0  0  0  0  0  0  0
   -3.4920    7.3601  -21.3457 C   0  0  0  0  0  0  0  0  0  0  0  0
   -3.2308    5.9665  -19.2175 C   0  0  0  0  0  0  0  0  0  0  0  0
   -2.6676    6.0846  -18.2035 O   0  0  0  0  0  0  0  0  0  0  0  0
   -4.6393    5.4174  -19.5206 N   0  0  0  0  0  0  0  0  0  0  0  0
   -5.6176    5.0153  -18.6901 C   0  0  0  0  0  0  0  0  0  0  0  0
   -5.6257    5.0284  -17.3253 C   0  0  0  0  0  0  0  0  0  0  0  0
   -6.9107    4.7306  -16.9935 N   0  0  0  0  0  0  0  0  0  0  0  0
   -7.5098    4.6968  -15.7490 C   0  0  0  0  0  0  0  0  0  0  0  0
   -8.8223    4.4722  -15.6750 C   0  0  0  0  0  0  0  0  0  0  0  0
   -9.4893    4.2596  -16.9867 C   0  0  0  0  0  0  0  0  0  0  0  0
   -8.9400    4.2485  -18.1574 N   0  0  0  0  0  0  0  0  0  0  0  0
   -7.6096    4.5070  -18.1764 C   0  0  0  0  0  0  0  0  0  0  0  0
   -6.8024    4.6203  -19.2063 N   0  0  0  0  0  0  0  0  0  0  0  0
  1  2  1  0
  2  3  2  3
  3  4  1  0
  3  5  1  0
  5  6  2  0
  5  7  1  0
  7  8  1  0
  8  9  2  0
  9 10  1  0
 10 11  1  0
 11 12  2  0
 12 13  1  0
 13 14  2  0
 14 15  1  0
 15 16  2  0
 16  8  1  0
 15 10  1  0
M  END
>  <energy_score>  (3730) 
-26.807237

>  <alias>  (3730) 
IUIWXSWQFIUCBM-UHFFFAOYSA-N-P35-P35-P86-601527

>  <HIPPO Pose ID>  (3730) 
79817

>  <smiles>  (3730) 
CC=C(C)C(=O)Nc1cn2cccnc2n1

>  <inchikey>  (3730) 
IUIWXSWQFIUCBM-UHFFFAOYSA-N

>  <distance_score>  (3730) 
1.848969

>  <ref_mols>  (3730) 
Z0719a,Z1597a

>  <ref_pdb>  (3730) 
Z0719a

>  <HIPPO Compound ID>  (3730) 
150694

>  <name>  (3730) 
IUIWXSWQFIUCBM-UHFFFAOYSA-N-P35-P35-P86-601527

>  <inspiration_score>  (3730) 
None

$$$$
YYHPVXVZUVQQBC-UHFFFAOYSA-N-P35-P35-P86-601527
     RDKit          3D

 16 16  0  0  0  0  0  0  0  0999 V2000
   -7.6845    5.0217  -13.8271 C   0  0  0  0  0  0  0  0  0  0  0  0
   -6.3974    4.6129  -14.3054 O   0  0  0  0  0  0  0  0  0  0  0  0
   -6.1045    4.5492  -15.6448 C   0  0  0  0  0  0  0  0  0  0  0  0
   -4.9521    4.2865  -15.9918 O   0  0  0  0  0  0  0  0  0  0  0  0
   -7.1906    4.7293  -16.6227 C   0  0  0  0  0  0  0  0  0  0  0  0
   -8.5088    4.3305  -16.3979 N   0  0  0  0  0  0  0  0  0  0  0  0
   -9.1325    4.4660  -17.5409 C   0  0  0  0  0  0  0  0  0  0  0  0
   -8.2844    4.9021  -18.5157 N   0  0  0  0  0  0  0  0  0  0  0  0
   -7.0672    5.1495  -17.9397 C   0  0  0  0  0  0  0  0  0  0  0  0
   -6.0534    5.6820  -18.6805 N   0  0  0  0  0  0  0  0  0  0  0  0
   -4.7708    6.4472  -18.2367 C   0  0  0  0  0  0  0  0  0  0  0  0
   -4.4296    6.8034  -17.1757 O   0  0  0  0  0  0  0  0  0  0  0  0
   -3.8503    6.6170  -19.4468 C   0  0  2  0  0  0  0  0  0  0  0  0
   -4.4985    7.2741  -20.6586 C   0  0  0  0  0  0  0  0  0  0  0  0
   -3.2274    5.2612  -19.7360 C   0  0  0  0  0  0  0  0  0  0  0  0
   -2.4760    5.3260  -20.8746 F   0  0  0  0  0  0  0  0  0  0  0  0
  1  2  1  0
  2  3  1  0
  3  4  2  0
  3  5  1  0
  5  6  1  0
  6  7  2  0
  7  8  1  0
  8  9  1  0
  9 10  1  0
 10 11  1  0
 11 12  2  0
 11 13  1  0
 13 14  1  6
 13 15  1  0
 15 16  1  0
  9  5  2  0
M  END
>  <energy_score>  (3731) 
-3.305626

>  <alias>  (3731) 
YYHPVXVZUVQQBC-UHFFFAOYSA-N-P35-P35-P86-601527

>  <HIPPO Pose ID>  (3731) 
79819

>  <smiles>  (3731) 
COC(=O)c1nc[nH]c1NC(=O)C(C)CF

>  <inchikey>  (3731) 
YYHPVXVZUVQQBC-UHFFFAOYSA-N

>  <distance_score>  (3731) 
1.71302

>  <ref_mols>  (3731) 
Z0719a,Z1597a

>  <ref_pdb>  (3731) 
Z0719a

>  <HIPPO Compound ID>  (3731) 
150695

>  <name>  (3731) 
YYHPVXVZUVQQBC-UHFFFAOYSA-N-P35-P35-P86-601527

>  <inspiration_score>  (3731) 
None

$$$$
RAZGCPHILGORBG-UHFFFAOYSA-N-P86-P35-P86-601527
     RDKit          3D

 16 17  0  0  0  0  0  0  0  0999 V2000
   -1.8752    4.5823  -19.3782 C   0  0  0  0  0  0  0  0  0  0  0  0
   -2.3736    5.4642  -20.4794 C   0  0  0  0  0  0  0  0  0  0  0  0
   -3.4878    6.2169  -20.4659 C   0  0  0  0  0  0  0  0  0  0  0  0
   -3.9547    7.0685  -21.5957 C   0  0  0  0  0  0  0  0  0  0  0  0
   -4.3812    6.2147  -19.2728 C   0  0  0  0  0  0  0  0  0  0  0  0
   -4.2209    6.9028  -18.3467 O   0  0  0  0  0  0  0  0  0  0  0  0
   -5.4424    5.1328  -19.5407 N   0  0  0  0  0  0  0  0  0  0  0  0
   -6.5148    4.7596  -18.8149 C   0  0  0  0  0  0  0  0  0  0  0  0
   -6.8603    5.1297  -17.5462 C   0  0  0  0  0  0  0  0  0  0  0  0
   -7.9774    4.4001  -17.2724 N   0  0  0  0  0  0  0  0  0  0  0  0
   -8.6831    4.2529  -16.0151 C   0  0  0  0  0  0  0  0  0  0  0  0
   -8.1129    5.0682  -14.8959 C   0  0  0  0  0  0  0  0  0  0  0  0
   -8.0785    4.5226  -13.4924 C   0  0  0  0  0  0  0  0  0  0  0  0
   -6.7944    4.7275  -14.2380 C   0  0  0  0  0  0  0  0  0  0  0  0
   -8.3208    3.7307  -18.4101 C   0  0  0  0  0  0  0  0  0  0  0  0
   -7.4013    3.8736  -19.3326 N   0  0  0  0  0  0  0  0  0  0  0  0
  1  2  1  0
  2  3  2  3
  3  4  1  0
  3  5  1  0
  5  6  2  0
  5  7  1  0
  7  8  1  0
  8  9  2  0
  9 10  1  0
 10 11  1  0
 11 12  1  0
 12 13  1  0
 13 14  1  0
 10 15  1  0
 15 16  2  0
 16  8  1  0
 14 12  1  0
M  END
>  <energy_score>  (3732) 
-17.487336

>  <alias>  (3732) 
RAZGCPHILGORBG-UHFFFAOYSA-N-P86-P35-P86-601527

>  <HIPPO Pose ID>  (3732) 
79826

>  <smiles>  (3732) 
CC=C(C)C(=O)Nc1cn(CC2CC2)cn1

>  <inchikey>  (3732) 
RAZGCPHILGORBG-UHFFFAOYSA-N

>  <distance_score>  (3732) 
1.472495

>  <ref_mols>  (3732) 
Z0719a,Z1597a

>  <ref_pdb>  (3732) 
Z0719a

>  <HIPPO Compound ID>  (3732) 
150698

>  <name>  (3732) 
RAZGCPHILGORBG-UHFFFAOYSA-N-P86-P35-P86-601527

>  <inspiration_score>  (3732) 
None

$$$$
FCEPZAIWLLYBGK-UHFFFAOYSA-M-P35-P35-P86-601527
     RDKit          3D

 16 16  0  0  0  0  0  0  0  0999 V2000
   -1.0018    6.2759  -19.0997 C   0  0  0  0  0  0  0  0  0  0  0  0
   -1.9228    5.5926  -18.1446 C   0  0  0  0  0  0  0  0  0  0  0  0
   -3.2453    5.3661  -18.2874 C   0  0  0  0  0  0  0  0  0  0  0  0
   -4.0403    5.7244  -19.5146 C   0  0  0  0  0  0  0  0  0  0  0  0
   -3.9059    4.6218  -17.1233 C   0  0  0  0  0  0  0  0  0  0  0  0
   -3.2987    3.8888  -16.4498 O   0  0  0  0  0  0  0  0  0  0  0  0
   -5.3878    5.0464  -17.0573 N   0  0  0  0  0  0  0  0  0  0  0  0
   -6.3521    4.7494  -16.1465 C   0  0  0  0  0  0  0  0  0  0  0  0
   -7.5562    5.3454  -16.4948 N   0  0  0  0  0  0  0  0  0  0  0  0
   -8.4214    4.9571  -15.5926 C   0  0  0  0  0  0  0  0  0  0  0  0
   -7.8058    4.2506  -14.6137 N   0  0  0  0  0  0  0  0  0  0  0  0
   -8.3166    4.0141  -13.2851 C   0  0  0  0  0  0  0  0  0  0  0  0
   -6.4986    4.0331  -14.9817 C   0  0  0  0  0  0  0  0  0  0  0  0
   -5.5787    3.1693  -14.0649 C   0  0  0  0  0  0  0  0  0  0  0  0
   -6.0918    2.0732  -13.6624 O   0  0  0  0  0  0  0  0  0  0  0  0
   -4.4581    3.6391  -13.7191 O   0  0  0  0  0  0  0  0  0  0  0  0
  1  2  1  0
  2  3  2  3
  3  4  1  0
  3  5  1  0
  5  6  2  0
  5  7  1  0
  7  8  1  0
  8  9  1  0
  9 10  2  0
 10 11  1  0
 11 12  1  0
 11 13  1  0
 13 14  1  0
 14 15  2  0
 14 16  1  0
 13  8  2  0
M  CHG  1  16  -1
M  END
>  <energy_score>  (3733) 
-4.531378

>  <alias>  (3733) 
FCEPZAIWLLYBGK-UHFFFAOYSA-M-P35-P35-P86-601527

>  <HIPPO Pose ID>  (3733) 
79831

>  <smiles>  (3733) 
CC=C(C)C(=O)Nc1ncn(C)c1C(=O)[O-]

>  <inchikey>  (3733) 
FCEPZAIWLLYBGK-UHFFFAOYSA-M

>  <distance_score>  (3733) 
1.95926

>  <ref_mols>  (3733) 
Z0719a,Z1597a

>  <ref_pdb>  (3733) 
Z0719a

>  <HIPPO Compound ID>  (3733) 
150701

>  <name>  (3733) 
FCEPZAIWLLYBGK-UHFFFAOYSA-M-P35-P35-P86-601527

>  <inspiration_score>  (3733) 
None

$$$$
HHSGSBHOPYSAEQ-UHFFFAOYSA-N-P86-P35-P86-601527
     RDKit          3D

 16 17  0  0  0  0  0  0  0  0999 V2000
   -3.5897    8.0378  -21.5957 C   0  0  0  0  0  0  0  0  0  0  0  0
   -3.8326    6.5445  -21.7340 C   0  0  2  0  0  0  0  0  0  0  0  0
   -5.0889    6.2996  -22.5457 C   0  0  0  0  0  0  0  0  0  0  0  0
   -4.7934    6.4400  -23.8690 F   0  0  0  0  0  0  0  0  0  0  0  0
   -3.7708    5.9458  -20.3265 C   0  0  0  0  0  0  0  0  0  0  0  0
   -2.7587    5.5450  -19.9006 O   0  0  0  0  0  0  0  0  0  0  0  0
   -5.1597    6.0862  -19.6516 N   0  0  0  0  0  0  0  0  0  0  0  0
   -5.5831    5.7013  -18.4289 C   0  0  0  0  0  0  0  0  0  0  0  0
   -6.8966    5.6075  -18.0652 C   0  0  0  0  0  0  0  0  0  0  0  0
   -6.8670    5.1071  -16.7986 N   0  0  0  0  0  0  0  0  0  0  0  0
   -7.9891    4.7013  -15.9813 C   0  0  0  0  0  0  0  0  0  0  0  0
   -8.9678    3.7761  -16.6281 C   0  0  0  0  0  0  0  0  0  0  0  0
   -9.9901    4.2314  -17.6479 C   0  0  0  0  0  0  0  0  0  0  0  0
   -8.9566    3.2302  -18.0414 C   0  0  0  0  0  0  0  0  0  0  0  0
   -5.5611    5.0730  -16.4050 C   0  0  0  0  0  0  0  0  0  0  0  0
   -4.7610    5.3975  -17.3928 N   0  0  0  0  0  0  0  0  0  0  0  0
  2  1  1  1
  2  3  1  0
  3  4  1  0
  2  5  1  0
  5  6  2  0
  5  7  1  0
  7  8  1  0
  8  9  2  0
  9 10  1  0
 10 11  1  0
 11 12  1  0
 12 13  1  0
 13 14  1  0
 10 15  1  0
 15 16  2  0
 16  8  1  0
 14 12  1  0
M  END
>  <energy_score>  (3734) 
-10.345607

>  <alias>  (3734) 
HHSGSBHOPYSAEQ-UHFFFAOYSA-N-P86-P35-P86-601527

>  <HIPPO Pose ID>  (3734) 
79834

>  <smiles>  (3734) 
CC(CF)C(=O)Nc1cn(CC2CC2)cn1

>  <inchikey>  (3734) 
HHSGSBHOPYSAEQ-UHFFFAOYSA-N

>  <distance_score>  (3734) 
1.76526

>  <ref_mols>  (3734) 
Z0719a,Z1597a

>  <ref_pdb>  (3734) 
Z0719a

>  <HIPPO Compound ID>  (3734) 
150702

>  <name>  (3734) 
HHSGSBHOPYSAEQ-UHFFFAOYSA-N-P86-P35-P86-601527

>  <inspiration_score>  (3734) 
None

$$$$
NRIMIPOLTCLFQH-UHFFFAOYSA-M-P35-P35-P86-601527
     RDKit          3D

 16 16  0  0  0  0  0  0  0  0999 V2000
   -4.4208    6.8753  -19.6829 C   0  0  0  0  0  0  0  0  0  0  0  0
   -3.5669    6.0238  -18.7401 C   0  0  2  0  0  0  0  0  0  0  0  0
   -3.2095    4.7014  -19.3801 C   0  0  0  0  0  0  0  0  0  0  0  0
   -2.5194    4.9231  -20.5431 F   0  0  0  0  0  0  0  0  0  0  0  0
   -4.1778    5.7740  -17.3473 C   0  0  0  0  0  0  0  0  0  0  0  0
   -3.6055    6.0779  -16.3734 O   0  0  0  0  0  0  0  0  0  0  0  0
   -5.5611    5.0902  -17.5309 N   0  0  0  0  0  0  0  0  0  0  0  0
   -6.5036    4.7493  -16.6167 C   0  0  0  0  0  0  0  0  0  0  0  0
   -7.7876    4.9238  -17.0884 N   0  0  0  0  0  0  0  0  0  0  0  0
   -8.5757    4.6425  -16.0813 C   0  0  0  0  0  0  0  0  0  0  0  0
   -7.8508    4.3284  -14.9784 N   0  0  0  0  0  0  0  0  0  0  0  0
   -8.3477    4.2309  -13.6291 C   0  0  0  0  0  0  0  0  0  0  0  0
   -6.5277    4.2284  -15.3425 C   0  0  0  0  0  0  0  0  0  0  0  0
   -5.4760    3.4711  -14.4555 C   0  0  0  0  0  0  0  0  0  0  0  0
   -5.9590    2.8127  -13.4788 O   0  0  0  0  0  0  0  0  0  0  0  0
   -4.2547    3.4858  -14.7847 O   0  0  0  0  0  0  0  0  0  0  0  0
  2  1  1  6
  2  3  1  0
  3  4  1  0
  2  5  1  0
  5  6  2  0
  5  7  1  0
  7  8  1  0
  8  9  1  0
  9 10  2  0
 10 11  1  0
 11 12  1  0
 11 13  1  0
 13 14  1  0
 14 15  2  0
 14 16  1  0
 13  8  2  0
M  CHG  1  16  -1
M  END
>  <energy_score>  (3735) 
-10.322937

>  <alias>  (3735) 
NRIMIPOLTCLFQH-UHFFFAOYSA-M-P35-P35-P86-601527

>  <HIPPO Pose ID>  (3735) 
79837

>  <smiles>  (3735) 
CC(CF)C(=O)Nc1ncn(C)c1C(=O)[O-]

>  <inchikey>  (3735) 
NRIMIPOLTCLFQH-UHFFFAOYSA-M

>  <distance_score>  (3735) 
1.795377

>  <ref_mols>  (3735) 
Z0719a,Z1597a

>  <ref_pdb>  (3735) 
Z0719a

>  <HIPPO Compound ID>  (3735) 
150704

>  <name>  (3735) 
NRIMIPOLTCLFQH-UHFFFAOYSA-M-P35-P35-P86-601527

>  <inspiration_score>  (3735) 
None

$$$$
KMHRKZFSWMUFAU-UHFFFAOYSA-N-P86-P35-P86-601527
     RDKit          3D

 16 17  0  0  0  0  0  0  0  0999 V2000
   -3.3357    6.8174  -21.7094 C   0  0  0  0  0  0  0  0  0  0  0  0
   -2.5298    6.4073  -20.4789 C   0  0  2  0  0  0  0  0  0  0  0  0
   -1.8964    5.0327  -20.5971 C   0  0  0  0  0  0  0  0  0  0  0  0
   -2.8678    4.1004  -20.7849 F   0  0  0  0  0  0  0  0  0  0  0  0
   -3.3660    6.4851  -19.2059 C   0  0  0  0  0  0  0  0  0  0  0  0
   -3.0414    7.1514  -18.3008 O   0  0  0  0  0  0  0  0  0  0  0  0
   -4.6317    5.6063  -19.4066 N   0  0  0  0  0  0  0  0  0  0  0  0
   -5.6410    5.3128  -18.5553 C   0  0  0  0  0  0  0  0  0  0  0  0
   -6.7420    4.5516  -18.8551 C   0  0  0  0  0  0  0  0  0  0  0  0
   -7.4717    4.5213  -17.7079 N   0  0  0  0  0  0  0  0  0  0  0  0
   -8.6834    3.9385  -17.5586 N   0  0  0  0  0  0  0  0  0  0  0  0
   -9.1164    4.0482  -16.3486 C   0  0  0  0  0  0  0  0  0  0  0  0
   -8.4184    4.6630  -15.1973 C   0  0  0  0  0  0  0  0  0  0  0  0
   -7.2416    5.2406  -15.4409 C   0  0  0  0  0  0  0  0  0  0  0  0
   -6.7387    5.2137  -16.7552 C   0  0  0  0  0  0  0  0  0  0  0  0
   -5.6547    5.7500  -17.2676 N   0  0  0  0  0  0  0  0  0  0  0  0
  2  1  1  6
  2  3  1  0
  3  4  1  0
  2  5  1  0
  5  6  2  0
  5  7  1  0
  7  8  1  0
  8  9  2  0
  9 10  1  0
 10 11  1  0
 11 12  2  0
 12 13  1  0
 13 14  2  0
 14 15  1  0
 15 16  2  0
 16  8  1  0
 15 10  1  0
M  END
>  <energy_score>  (3736) 
-38.314753

>  <alias>  (3736) 
KMHRKZFSWMUFAU-UHFFFAOYSA-N-P86-P35-P86-601527

>  <HIPPO Pose ID>  (3736) 
79844

>  <smiles>  (3736) 
CC(CF)C(=O)Nc1cn2ncccc2n1

>  <inchikey>  (3736) 
KMHRKZFSWMUFAU-UHFFFAOYSA-N

>  <distance_score>  (3736) 
1.71615

>  <ref_mols>  (3736) 
Z0719a,Z1597a

>  <ref_pdb>  (3736) 
Z0719a

>  <HIPPO Compound ID>  (3736) 
150707

>  <name>  (3736) 
KMHRKZFSWMUFAU-UHFFFAOYSA-N-P86-P35-P86-601527

>  <inspiration_score>  (3736) 
None

$$$$
CVXYWDDGYSXXMI-UHFFFAOYSA-N-P35-P35-P86-601527
     RDKit          3D

 16 17  0  0  0  0  0  0  0  0999 V2000
   -4.0425    7.6714  -21.8519 C   0  0  0  0  0  0  0  0  0  0  0  0
   -3.1094    7.1225  -20.7810 C   0  0  1  0  0  0  0  0  0  0  0  0
   -1.8364    7.9551  -20.7049 C   0  0  0  0  0  0  0  0  0  0  0  0
   -1.1744    7.8298  -21.8907 F   0  0  0  0  0  0  0  0  0  0  0  0
   -3.7798    7.0799  -19.4193 C   0  0  0  0  0  0  0  0  0  0  0  0
   -3.4214    7.7338  -18.5188 O   0  0  0  0  0  0  0  0  0  0  0  0
   -4.9407    6.0474  -19.5171 N   0  0  0  0  0  0  0  0  0  0  0  0
   -5.7753    5.5750  -18.5671 C   0  0  0  0  0  0  0  0  0  0  0  0
   -6.8786    4.7964  -18.7962 C   0  0  0  0  0  0  0  0  0  0  0  0
   -7.4759    4.6986  -17.5771 N   0  0  0  0  0  0  0  0  0  0  0  0
   -8.7115    4.1965  -17.2384 C   0  0  0  0  0  0  0  0  0  0  0  0
   -9.0629    4.2206  -15.9529 C   0  0  0  0  0  0  0  0  0  0  0  0
   -8.0456    4.7265  -15.0011 C   0  0  0  0  0  0  0  0  0  0  0  0
   -6.8967    5.2385  -15.3051 N   0  0  0  0  0  0  0  0  0  0  0  0
   -6.6156    5.2741  -16.6400 C   0  0  0  0  0  0  0  0  0  0  0  0
   -5.6055    5.8546  -17.2501 N   0  0  0  0  0  0  0  0  0  0  0  0
  2  1  1  6
  2  3  1  0
  3  4  1  0
  2  5  1  0
  5  6  2  0
  5  7  1  0
  7  8  1  0
  8  9  2  0
  9 10  1  0
 10 11  1  0
 11 12  2  0
 12 13  1  0
 13 14  2  0
 14 15  1  0
 15 16  2  0
 16  8  1  0
 15 10  1  0
M  END
>  <energy_score>  (3737) 
-1.221449

>  <alias>  (3737) 
CVXYWDDGYSXXMI-UHFFFAOYSA-N-P35-P35-P86-601527

>  <HIPPO Pose ID>  (3737) 
79845

>  <smiles>  (3737) 
CC(CF)C(=O)Nc1cn2cccnc2n1

>  <inchikey>  (3737) 
CVXYWDDGYSXXMI-UHFFFAOYSA-N

>  <distance_score>  (3737) 
1.785102

>  <ref_mols>  (3737) 
Z0719a,Z1597a

>  <ref_pdb>  (3737) 
Z0719a

>  <HIPPO Compound ID>  (3737) 
150708

>  <name>  (3737) 
CVXYWDDGYSXXMI-UHFFFAOYSA-N-P35-P35-P86-601527

>  <inspiration_score>  (3737) 
None

$$$$
HTTDNRTZAHVFEY-UHFFFAOYSA-N-P86-P35-P86-601527
     RDKit          3D

 16 17  0  0  0  0  0  0  0  0999 V2000
   -7.7655    5.8259   -9.2184 C   0  0  0  0  0  0  0  0  0  0  0  0
   -8.0296    4.8887  -10.3294 C   0  0  0  0  0  0  0  0  0  0  0  0
   -8.4670    3.6621  -10.1807 N   0  0  0  0  0  0  0  0  0  0  0  0
   -8.6625    3.1848  -11.4445 C   0  0  0  0  0  0  0  0  0  0  0  0
   -8.3365    4.1254  -12.4000 C   0  0  0  0  0  0  0  0  0  0  0  0
   -8.4071    4.0012  -13.7670 N   0  0  0  0  0  0  0  0  0  0  0  0
   -8.2056    5.0501  -14.8803 C   0  0  0  0  0  0  0  0  0  0  0  0
   -8.0244    6.1994  -14.8115 O   0  0  0  0  0  0  0  0  0  0  0  0
   -8.1527    4.3994  -16.2208 C   0  0  2  0  0  0  0  0  0  0  0  0
   -6.7993    4.3179  -16.8984 C   0  0  0  0  0  0  0  0  0  0  0  0
   -7.8373    5.1662  -17.4792 C   0  0  1  0  0  0  0  0  0  0  0  0
   -8.4315    4.7035  -18.6385 F   0  0  0  0  0  0  0  0  0  0  0  0
   -7.8276    5.1765  -11.6661 N   0  0  0  0  0  0  0  0  0  0  0  0
   -6.9802    6.2483  -12.1572 C   0  0  0  0  0  0  0  0  0  0  0  0
   -5.8870    5.7070  -12.9949 C   0  0  0  0  0  0  0  0  0  0  0  0
   -5.0835    5.2267  -13.6868 N   0  0  0  0  0  0  0  0  0  0  0  0
  1  2  1  0
  2  3  2  0
  3  4  1  0
  4  5  2  0
  5  6  1  0
  6  7  1  0
  7  8  2  0
  9  7  1  1
  9 10  1  0
 10 11  1  0
 11 12  1  6
  5 13  1  0
 13 14  1  0
 14 15  1  0
 15 16  3  0
 13  2  1  0
 11  9  1  0
M  END
>  <energy_score>  (3738) 
-10.993233

>  <alias>  (3738) 
HTTDNRTZAHVFEY-UHFFFAOYSA-N-P86-P35-P86-601527

>  <HIPPO Pose ID>  (3738) 
79848

>  <smiles>  (3738) 
Cc1ncc(NC(=O)C2CC2F)n1CC#N

>  <inchikey>  (3738) 
HTTDNRTZAHVFEY-UHFFFAOYSA-N

>  <distance_score>  (3738) 
1.009412

>  <ref_mols>  (3738) 
Z0719a,Z1597a

>  <ref_pdb>  (3738) 
Z0719a

>  <HIPPO Compound ID>  (3738) 
150709

>  <name>  (3738) 
HTTDNRTZAHVFEY-UHFFFAOYSA-N-P86-P35-P86-601527

>  <inspiration_score>  (3738) 
None

$$$$
SHZMKFNVOHQHRX-UHFFFAOYSA-N-P35-P35-P86-601527
     RDKit          3D

 16 17  0  0  0  0  0  0  0  0999 V2000
   -5.1274    2.6588  -12.5690 C   0  0  0  0  0  0  0  0  0  0  0  0
   -6.6463    2.7616  -12.5443 C   0  0  0  0  0  0  0  0  0  0  0  0
   -7.1292    3.9901  -11.9287 N   0  0  0  0  0  0  0  0  0  0  0  0
   -7.4403    4.1363  -10.5812 C   0  0  0  0  0  0  0  0  0  0  0  0
   -7.3165    3.0760   -9.5531 C   0  0  0  0  0  0  0  0  0  0  0  0
   -7.8955    5.3462  -10.3275 N   0  0  0  0  0  0  0  0  0  0  0  0
   -8.0285    5.9521  -11.5414 C   0  0  0  0  0  0  0  0  0  0  0  0
   -8.5789    7.3208  -11.6263 C   0  0  0  0  0  0  0  0  0  0  0  0
   -7.5621    5.1397  -12.5588 C   0  0  0  0  0  0  0  0  0  0  0  0
   -7.6159    5.4193  -13.8979 N   0  0  0  0  0  0  0  0  0  0  0  0
   -6.8143    4.8359  -15.0733 C   0  0  0  0  0  0  0  0  0  0  0  0
   -5.9278    4.0810  -15.0820 O   0  0  0  0  0  0  0  0  0  0  0  0
   -7.4068    5.3197  -16.3495 C   0  0  1  0  0  0  0  0  0  0  0  0
   -7.0285    4.7311  -17.6838 C   0  0  0  0  0  0  0  0  0  0  0  0
   -8.3199    4.3474  -17.0389 C   0  0  2  0  0  0  0  0  0  0  0  0
   -9.4757    4.8118  -17.6234 F   0  0  0  0  0  0  0  0  0  0  0  0
  1  2  1  0
  2  3  1  0
  3  4  1  0
  4  5  1  0
  4  6  2  0
  6  7  1  0
  7  8  1  0
  7  9  2  0
  9 10  1  0
 10 11  1  0
 11 12  2  0
 13 11  1  1
 13 14  1  0
 14 15  1  0
 15 16  1  6
  9  3  1  0
 15 13  1  0
M  END
>  <energy_score>  (3739) 
-14.592356

>  <alias>  (3739) 
SHZMKFNVOHQHRX-UHFFFAOYSA-N-P35-P35-P86-601527

>  <HIPPO Pose ID>  (3739) 
79849

>  <smiles>  (3739) 
CCn1c(C)nc(C)c1NC(=O)C1CC1F

>  <inchikey>  (3739) 
SHZMKFNVOHQHRX-UHFFFAOYSA-N

>  <distance_score>  (3739) 
1.22492

>  <ref_mols>  (3739) 
Z0719a,Z1597a

>  <ref_pdb>  (3739) 
Z0719a

>  <HIPPO Compound ID>  (3739) 
150710

>  <name>  (3739) 
SHZMKFNVOHQHRX-UHFFFAOYSA-N-P35-P35-P86-601527

>  <inspiration_score>  (3739) 
None

$$$$
USFUQAWCJQKKOM-UHFFFAOYSA-N-P35-P35-P86-601527
     RDKit          3D

 16 17  0  0  0  0  0  0  0  0999 V2000
   -4.1668    4.3507  -17.7436 O   0  0  0  0  0  0  0  0  0  0  0  0
   -4.8639    4.8705  -18.5251 C   0  0  0  0  0  0  0  0  0  0  0  0
   -4.3264    5.7279  -19.6483 C   0  0  0  0  0  0  0  0  0  0  0  0
   -3.6497    6.9718  -19.0782 C   0  0  0  0  0  0  0  0  0  0  0  0
   -4.5203    7.8542  -18.1587 C   0  0  0  0  0  0  0  0  0  0  0  0
   -4.8049    7.2293  -16.4512 S   0  0  0  0  0  0  0  0  0  0  0  0
   -6.4148    4.9430  -18.6006 N   0  0  0  0  0  0  0  0  0  0  0  0
   -7.3665    4.4978  -17.7287 C   0  0  0  0  0  0  0  0  0  0  0  0
   -8.7142    4.3553  -18.0078 C   0  0  0  0  0  0  0  0  0  0  0  0
   -9.4459    4.1818  -16.8680 N   0  0  0  0  0  0  0  0  0  0  0  0
   -8.5572    4.2785  -15.9066 C   0  0  0  0  0  0  0  0  0  0  0  0
   -8.7820    4.3977  -14.4974 C   0  0  0  0  0  0  0  0  0  0  0  0
   -7.8232    4.5059  -13.6206 N   0  0  0  0  0  0  0  0  0  0  0  0
   -6.5438    4.4041  -14.1052 C   0  0  0  0  0  0  0  0  0  0  0  0
   -6.2438    4.3279  -15.4116 C   0  0  0  0  0  0  0  0  0  0  0  0
   -7.2628    4.3245  -16.3572 N   0  0  0  0  0  0  0  0  0  0  0  0
  1  2  2  0
  2  3  1  0
  3  4  1  0
  4  5  1  0
  5  6  1  0
  2  7  1  0
  7  8  1  0
  8  9  2  0
  9 10  1  0
 10 11  2  0
 11 12  1  0
 12 13  2  0
 13 14  1  0
 14 15  2  0
 15 16  1  0
 16  8  1  0
 16 11  1  0
M  END
>  <energy_score>  (3740) 
-18.525348

>  <alias>  (3740) 
USFUQAWCJQKKOM-UHFFFAOYSA-N-P35-P35-P86-601527

>  <HIPPO Pose ID>  (3740) 
79859

>  <smiles>  (3740) 
O=C(CCCS)Nc1cnc2cnccn12

>  <inchikey>  (3740) 
USFUQAWCJQKKOM-UHFFFAOYSA-N

>  <distance_score>  (3740) 
1.957466

>  <ref_mols>  (3740) 
Z0719a,Z1597a

>  <ref_pdb>  (3740) 
Z0719a

>  <HIPPO Compound ID>  (3740) 
150715

>  <name>  (3740) 
USFUQAWCJQKKOM-UHFFFAOYSA-N-P35-P35-P86-601527

>  <inspiration_score>  (3740) 
None

$$$$
NXKOACRJCRZGKT-UHFFFAOYSA-N-P86-P35-P86-601527
     RDKit          3D

 16 16  0  0  0  0  0  0  0  0999 V2000
   -9.2915    4.0178  -15.5116 C   0  0  0  0  0  0  0  0  0  0  0  0
   -8.7445    4.0571  -16.8561 C   0  0  0  0  0  0  0  0  0  0  0  0
   -9.4336    3.7490  -17.9287 N   0  0  0  0  0  0  0  0  0  0  0  0
   -8.6479    4.1169  -18.9640 C   0  0  0  0  0  0  0  0  0  0  0  0
   -7.4299    4.5685  -18.5221 C   0  0  0  0  0  0  0  0  0  0  0  0
   -6.4372    5.1112  -19.2680 N   0  0  0  0  0  0  0  0  0  0  0  0
   -4.9142    5.1432  -19.0362 C   0  0  0  0  0  0  0  0  0  0  0  0
   -4.2657    4.6423  -18.2083 O   0  0  0  0  0  0  0  0  0  0  0  0
   -4.3205    6.0806  -20.0613 C   0  0  0  0  0  0  0  0  0  0  0  0
   -3.1181    6.8055  -19.4507 C   0  0  0  0  0  0  0  0  0  0  0  0
   -3.4138    7.6874  -18.2080 C   0  0  0  0  0  0  0  0  0  0  0  0
   -3.6744    6.8755  -16.5612 S   0  0  0  0  0  0  0  0  0  0  0  0
   -7.4853    4.5028  -17.1464 N   0  0  0  0  0  0  0  0  0  0  0  0
   -6.5254    5.0741  -16.2047 C   0  0  0  0  0  0  0  0  0  0  0  0
   -6.9086    5.2537  -14.7937 C   0  0  0  0  0  0  0  0  0  0  0  0
   -7.2435    5.4173  -13.6915 N   0  0  0  0  0  0  0  0  0  0  0  0
  1  2  1  0
  2  3  2  0
  3  4  1  0
  4  5  2  0
  5  6  1  0
  6  7  1  0
  7  8  2  0
  7  9  1  0
  9 10  1  0
 10 11  1  0
 11 12  1  0
  5 13  1  0
 13 14  1  0
 14 15  1  0
 15 16  3  0
 13  2  1  0
M  END
>  <energy_score>  (3741) 
-10.617627

>  <alias>  (3741) 
NXKOACRJCRZGKT-UHFFFAOYSA-N-P86-P35-P86-601527

>  <HIPPO Pose ID>  (3741) 
79864

>  <smiles>  (3741) 
Cc1ncc(NC(=O)CCCS)n1CC#N

>  <inchikey>  (3741) 
NXKOACRJCRZGKT-UHFFFAOYSA-N

>  <distance_score>  (3741) 
1.52865

>  <ref_mols>  (3741) 
Z0719a,Z1597a

>  <ref_pdb>  (3741) 
Z0719a

>  <HIPPO Compound ID>  (3741) 
150717

>  <name>  (3741) 
NXKOACRJCRZGKT-UHFFFAOYSA-N-P86-P35-P86-601527

>  <inspiration_score>  (3741) 
None

$$$$
BNTHSBBSZFAMHL-UHFFFAOYSA-N-P35-P35-P86-601527
     RDKit          3D

 16 16  0  0  0  0  0  0  0  0999 V2000
   -8.5630    4.8522  -18.0907 C   0  0  0  0  0  0  0  0  0  0  0  0
   -8.0079    4.6076  -16.7895 N   0  0  0  0  0  0  0  0  0  0  0  0
   -8.7687    4.4784  -15.6801 C   0  0  0  0  0  0  0  0  0  0  0  0
   -8.0461    4.1604  -14.6471 N   0  0  0  0  0  0  0  0  0  0  0  0
   -6.7498    4.0259  -15.1262 C   0  0  0  0  0  0  0  0  0  0  0  0
   -5.8303    3.3338  -14.2408 N   0  0  0  0  0  0  0  0  0  0  0  0
   -6.2789    2.3365  -13.6462 O   0  0  0  0  0  0  0  0  0  0  0  0
   -4.6721    3.7501  -14.1358 O   0  0  0  0  0  0  0  0  0  0  0  0
   -6.6754    4.4303  -16.4621 C   0  0  0  0  0  0  0  0  0  0  0  0
   -5.7714    4.6298  -17.4806 N   0  0  0  0  0  0  0  0  0  0  0  0
   -4.2239    4.7080  -17.4518 C   0  0  0  0  0  0  0  0  0  0  0  0
   -3.4832    4.6922  -16.5515 O   0  0  0  0  0  0  0  0  0  0  0  0
   -3.7860    4.8669  -18.9164 C   0  0  0  0  0  0  0  0  0  0  0  0
   -3.8235    6.2945  -19.4810 C   0  0  0  0  0  0  0  0  0  0  0  0
   -5.2209    6.9049  -19.5523 C   0  0  0  0  0  0  0  0  0  0  0  0
   -5.1784    8.5116  -20.3999 S   0  0  0  0  0  0  0  0  0  0  0  0
  1  2  1  0
  2  3  1  0
  3  4  2  0
  4  5  1  0
  5  6  1  0
  6  7  2  0
  6  8  1  0
  5  9  2  0
  9 10  1  0
 10 11  1  0
 11 12  2  0
 11 13  1  0
 13 14  1  0
 14 15  1  0
 15 16  1  0
  9  2  1  0
M  CHG  2   6   1   8  -1
M  END
>  <energy_score>  (3742) 
-20.269255

>  <alias>  (3742) 
BNTHSBBSZFAMHL-UHFFFAOYSA-N-P35-P35-P86-601527

>  <HIPPO Pose ID>  (3742) 
79869

>  <smiles>  (3742) 
Cn1cnc([N+](=O)[O-])c1NC(=O)CCCS

>  <inchikey>  (3742) 
BNTHSBBSZFAMHL-UHFFFAOYSA-N

>  <distance_score>  (3742) 
1.948549

>  <ref_mols>  (3742) 
Z0719a,Z1597a

>  <ref_pdb>  (3742) 
Z0719a

>  <HIPPO Compound ID>  (3742) 
150720

>  <name>  (3742) 
BNTHSBBSZFAMHL-UHFFFAOYSA-N-P35-P35-P86-601527

>  <inspiration_score>  (3742) 
None

$$$$
CYZQVOSYMGLMLE-UHFFFAOYSA-N-P35-P35-P86-601527
     RDKit          3D

 16 17  0  0  0  0  0  0  0  0999 V2000
   -3.3814    7.7460  -20.6579 C   0  0  0  0  0  0  0  0  0  0  0  0
   -4.1639    6.7442  -20.2359 C   0  0  0  0  0  0  0  0  0  0  0  0
   -3.7283    5.6811  -19.2687 C   0  0  0  0  0  0  0  0  0  0  0  0
   -4.4804    5.7484  -17.9309 C   0  0  0  0  0  0  0  0  0  0  0  0
   -4.0090    6.1943  -16.9575 O   0  0  0  0  0  0  0  0  0  0  0  0
   -5.8499    5.0431  -18.1571 N   0  0  0  0  0  0  0  0  0  0  0  0
   -6.9017    4.8394  -17.2959 C   0  0  0  0  0  0  0  0  0  0  0  0
   -8.1844    4.4498  -17.6643 C   0  0  0  0  0  0  0  0  0  0  0  0
   -8.7433    4.1862  -18.9923 C   0  0  0  0  0  0  0  0  0  0  0  0
   -9.0118    4.3032  -16.5880 N   0  0  0  0  0  0  0  0  0  0  0  0
   -8.2466    4.5925  -15.5704 C   0  0  0  0  0  0  0  0  0  0  0  0
   -8.6211    4.6172  -14.1923 C   0  0  0  0  0  0  0  0  0  0  0  0
   -7.7933    4.9458  -13.2400 N   0  0  0  0  0  0  0  0  0  0  0  0
   -6.4953    5.1970  -13.6166 C   0  0  0  0  0  0  0  0  0  0  0  0
   -6.0621    5.1883  -14.8886 C   0  0  0  0  0  0  0  0  0  0  0  0
   -6.9554    4.9141  -15.9148 N   0  0  0  0  0  0  0  0  0  0  0  0
  1  2  2  0
  2  3  1  0
  3  4  1  0
  4  5  2  0
  4  6  1  0
  6  7  1  0
  7  8  2  0
  8  9  1  0
  8 10  1  0
 10 11  2  0
 11 12  1  0
 12 13  2  0
 13 14  1  0
 14 15  2  0
 15 16  1  0
 16  7  1  0
 16 11  1  0
M  END
>  <energy_score>  (3743) 
-25.597167

>  <alias>  (3743) 
CYZQVOSYMGLMLE-UHFFFAOYSA-N-P35-P35-P86-601527

>  <HIPPO Pose ID>  (3743) 
79879

>  <smiles>  (3743) 
C=CCC(=O)Nc1c(C)nc2cnccn12

>  <inchikey>  (3743) 
CYZQVOSYMGLMLE-UHFFFAOYSA-N

>  <distance_score>  (3743) 
1.608306

>  <ref_mols>  (3743) 
Z0719a,Z1597a

>  <ref_pdb>  (3743) 
Z0719a

>  <HIPPO Compound ID>  (3743) 
150725

>  <name>  (3743) 
CYZQVOSYMGLMLE-UHFFFAOYSA-N-P35-P35-P86-601527

>  <inspiration_score>  (3743) 
None

$$$$
RALWPVCPUVWLFS-UHFFFAOYSA-N-P86-P35-P86-601527
     RDKit          3D

 16 17  0  0  0  0  0  0  0  0999 V2000
   -4.2719    8.6509  -21.2815 C   0  0  0  0  0  0  0  0  0  0  0  0
   -4.1050    7.3849  -21.7013 C   0  0  0  0  0  0  0  0  0  0  0  0
   -4.8807    6.8400  -22.8666 C   0  0  0  0  0  0  0  0  0  0  0  0
   -3.1076    6.4470  -21.0588 C   0  0  0  0  0  0  0  0  0  0  0  0
   -3.2454    6.3403  -19.5358 C   0  0  0  0  0  0  0  0  0  0  0  0
   -2.3569    6.5366  -18.8012 O   0  0  0  0  0  0  0  0  0  0  0  0
   -4.7004    5.8666  -19.2543 N   0  0  0  0  0  0  0  0  0  0  0  0
   -5.3403    5.6453  -18.0842 C   0  0  0  0  0  0  0  0  0  0  0  0
   -6.6841    5.4065  -17.9586 C   0  0  0  0  0  0  0  0  0  0  0  0
   -6.8536    5.0843  -16.6455 N   0  0  0  0  0  0  0  0  0  0  0  0
   -8.0515    4.6880  -15.9334 C   0  0  0  0  0  0  0  0  0  0  0  0
   -9.0760    3.8711  -16.6443 C   0  0  0  0  0  0  0  0  0  0  0  0
   -9.8961    4.3420  -17.8221 C   0  0  0  0  0  0  0  0  0  0  0  0
   -8.9629    3.1889  -17.9876 C   0  0  0  0  0  0  0  0  0  0  0  0
   -5.6483    5.2681  -16.0236 C   0  0  0  0  0  0  0  0  0  0  0  0
   -4.7182    5.6126  -16.8791 N   0  0  0  0  0  0  0  0  0  0  0  0
  1  2  2  0
  2  3  1  0
  2  4  1  0
  4  5  1  0
  5  6  2  0
  5  7  1  0
  7  8  1  0
  8  9  2  0
  9 10  1  0
 10 11  1  0
 11 12  1  0
 12 13  1  0
 13 14  1  0
 10 15  1  0
 15 16  2  0
 16  8  1  0
 14 12  1  0
M  END
>  <energy_score>  (3744) 
-18.963581

>  <alias>  (3744) 
RALWPVCPUVWLFS-UHFFFAOYSA-N-P86-P35-P86-601527

>  <HIPPO Pose ID>  (3744) 
79882

>  <smiles>  (3744) 
C=C(C)CC(=O)Nc1cn(CC2CC2)cn1

>  <inchikey>  (3744) 
RALWPVCPUVWLFS-UHFFFAOYSA-N

>  <distance_score>  (3744) 
1.780264

>  <ref_mols>  (3744) 
Z0719a,Z1597a

>  <ref_pdb>  (3744) 
Z0719a

>  <HIPPO Compound ID>  (3744) 
150726

>  <name>  (3744) 
RALWPVCPUVWLFS-UHFFFAOYSA-N-P86-P35-P86-601527

>  <inspiration_score>  (3744) 
None

$$$$
WAEGTIHAUNIOJI-UHFFFAOYSA-M-P35-P35-P86-601527
     RDKit          3D

 16 16  0  0  0  0  0  0  0  0999 V2000
   -2.4146    6.6520  -20.0860 C   0  0  0  0  0  0  0  0  0  0  0  0
   -3.7386    6.4761  -19.9279 C   0  0  0  0  0  0  0  0  0  0  0  0
   -4.7239    7.2165  -20.7925 C   0  0  0  0  0  0  0  0  0  0  0  0
   -4.2936    5.5218  -18.8752 C   0  0  0  0  0  0  0  0  0  0  0  0
   -5.4119    6.0885  -17.9715 C   0  0  0  0  0  0  0  0  0  0  0  0
   -5.9844    7.0870  -18.1993 O   0  0  0  0  0  0  0  0  0  0  0  0
   -5.6357    5.0259  -16.8436 N   0  0  0  0  0  0  0  0  0  0  0  0
   -6.5997    4.9392  -15.8976 C   0  0  0  0  0  0  0  0  0  0  0  0
   -7.7241    5.7140  -16.0031 N   0  0  0  0  0  0  0  0  0  0  0  0
   -8.5019    5.3180  -15.0247 C   0  0  0  0  0  0  0  0  0  0  0  0
   -7.8880    4.3864  -14.2465 N   0  0  0  0  0  0  0  0  0  0  0  0
   -8.2850    3.9913  -12.9171 C   0  0  0  0  0  0  0  0  0  0  0  0
   -6.6736    4.1054  -14.8087 C   0  0  0  0  0  0  0  0  0  0  0  0
   -5.6567    3.0952  -14.2195 C   0  0  0  0  0  0  0  0  0  0  0  0
   -6.1367    2.1621  -13.5036 O   0  0  0  0  0  0  0  0  0  0  0  0
   -4.4331    3.2651  -14.5118 O   0  0  0  0  0  0  0  0  0  0  0  0
  1  2  2  0
  2  3  1  0
  2  4  1  0
  4  5  1  0
  5  6  2  0
  5  7  1  0
  7  8  1  0
  8  9  1  0
  9 10  2  0
 10 11  1  0
 11 12  1  0
 11 13  1  0
 13 14  1  0
 14 15  2  0
 14 16  1  0
 13  8  2  0
M  CHG  1  16  -1
M  END
>  <energy_score>  (3745) 
-6.576966

>  <alias>  (3745) 
WAEGTIHAUNIOJI-UHFFFAOYSA-M-P35-P35-P86-601527

>  <HIPPO Pose ID>  (3745) 
79885

>  <smiles>  (3745) 
C=C(C)CC(=O)Nc1ncn(C)c1C(=O)[O-]

>  <inchikey>  (3745) 
WAEGTIHAUNIOJI-UHFFFAOYSA-M

>  <distance_score>  (3745) 
1.987617

>  <ref_mols>  (3745) 
Z0719a,Z1597a

>  <ref_pdb>  (3745) 
Z0719a

>  <HIPPO Compound ID>  (3745) 
150728

>  <name>  (3745) 
WAEGTIHAUNIOJI-UHFFFAOYSA-M-P35-P35-P86-601527

>  <inspiration_score>  (3745) 
None

$$$$
VOSXDUQGUWDUBE-UHFFFAOYSA-N-P86-P35-P86-601527
     RDKit          3D

 16 16  0  0  0  0  0  0  0  0999 V2000
   -2.7723    7.7076  -20.6747 C   0  0  0  0  0  0  0  0  0  0  0  0
   -3.7958    6.8511  -20.5217 C   0  0  0  0  0  0  0  0  0  0  0  0
   -5.0477    6.9684  -21.3337 C   0  0  0  0  0  0  0  0  0  0  0  0
   -3.7318    5.7027  -19.5471 C   0  0  0  0  0  0  0  0  0  0  0  0
   -4.5608    5.9411  -18.2680 C   0  0  0  0  0  0  0  0  0  0  0  0
   -4.1508    6.5391  -17.3475 O   0  0  0  0  0  0  0  0  0  0  0  0
   -5.9033    5.1643  -18.4536 N   0  0  0  0  0  0  0  0  0  0  0  0
   -6.9146    4.9016  -17.5580 C   0  0  0  0  0  0  0  0  0  0  0  0
   -8.1252    4.3197  -17.8715 C   0  0  0  0  0  0  0  0  0  0  0  0
   -8.6270    3.8549  -19.1612 C   0  0  0  0  0  0  0  0  0  0  0  0
   -8.9122    4.1622  -16.7731 N   0  0  0  0  0  0  0  0  0  0  0  0
   -8.2035    4.6070  -15.7627 C   0  0  0  0  0  0  0  0  0  0  0  0
   -8.6930    4.6237  -14.3678 C   0  0  0  0  0  0  0  0  0  0  0  0
   -6.9634    5.0462  -16.1844 N   0  0  0  0  0  0  0  0  0  0  0  0
   -5.8767    5.4860  -15.3533 C   0  0  0  0  0  0  0  0  0  0  0  0
   -5.8706    5.1756  -13.8661 C   0  0  0  0  0  0  0  0  0  0  0  0
  1  2  2  0
  2  3  1  0
  2  4  1  0
  4  5  1  0
  5  6  2  0
  5  7  1  0
  7  8  1  0
  8  9  2  0
  9 10  1  0
  9 11  1  0
 11 12  2  0
 12 13  1  0
 12 14  1  0
 14 15  1  0
 15 16  1  0
 14  8  1  0
M  END
>  <energy_score>  (3746) 
-5.61409

>  <alias>  (3746) 
VOSXDUQGUWDUBE-UHFFFAOYSA-N-P86-P35-P86-601527

>  <HIPPO Pose ID>  (3746) 
79888

>  <smiles>  (3746) 
C=C(C)CC(=O)Nc1c(C)nc(C)n1CC

>  <inchikey>  (3746) 
VOSXDUQGUWDUBE-UHFFFAOYSA-N

>  <distance_score>  (3746) 
1.314481

>  <ref_mols>  (3746) 
Z0719a,Z1597a

>  <ref_pdb>  (3746) 
Z0719a

>  <HIPPO Compound ID>  (3746) 
150729

>  <name>  (3746) 
VOSXDUQGUWDUBE-UHFFFAOYSA-N-P86-P35-P86-601527

>  <inspiration_score>  (3746) 
None

$$$$
CDVSCPQUIVYFJP-UHFFFAOYSA-N-P86-P35-P86-601527
     RDKit          3D

 16 18  0  0  0  0  0  0  0  0999 V2000
   -3.6244    6.3931  -19.6614 O   0  0  0  0  0  0  0  0  0  0  0  0
   -4.5909    6.1667  -20.2684 C   0  0  0  0  0  0  0  0  0  0  0  0
   -5.9273    5.5641  -19.8216 N   0  0  0  0  0  0  0  0  0  0  0  0
   -6.3672    5.2203  -18.5931 C   0  0  0  0  0  0  0  0  0  0  0  0
   -7.5887    4.6509  -18.3296 C   0  0  0  0  0  0  0  0  0  0  0  0
   -7.6510    4.6047  -16.9682 N   0  0  0  0  0  0  0  0  0  0  0  0
   -8.6894    4.2368  -16.1337 C   0  0  0  0  0  0  0  0  0  0  0  0
   -8.5141    4.3459  -14.8119 C   0  0  0  0  0  0  0  0  0  0  0  0
   -7.1777    4.8147  -14.3760 C   0  0  0  0  0  0  0  0  0  0  0  0
   -6.2050    5.1912  -15.1386 N   0  0  0  0  0  0  0  0  0  0  0  0
   -6.4429    5.1043  -16.4776 C   0  0  0  0  0  0  0  0  0  0  0  0
   -5.6672    5.4886  -17.4657 N   0  0  0  0  0  0  0  0  0  0  0  0
   -4.6663    6.5347  -21.7086 C   0  0  2  0  0  0  0  0  0  0  0  0
   -3.5074    7.2019  -22.4070 C   0  0  0  0  0  0  0  0  0  0  0  0
   -4.7156    7.9972  -22.0385 C   0  0  1  0  0  0  0  0  0  0  0  0
   -5.5694    8.3845  -23.0557 F   0  0  0  0  0  0  0  0  0  0  0  0
  1  2  2  0
  2  3  1  0
  3  4  1  0
  4  5  2  0
  5  6  1  0
  6  7  1  0
  7  8  2  0
  8  9  1  0
  9 10  2  0
 10 11  1  0
 11 12  2  0
 13  2  1  1
 13 14  1  0
 14 15  1  0
 15 16  1  6
 12  4  1  0
 15 13  1  0
 11  6  1  0
M  END
>  <energy_score>  (3747) 
-5.997181

>  <alias>  (3747) 
CDVSCPQUIVYFJP-UHFFFAOYSA-N-P86-P35-P86-601527

>  <HIPPO Pose ID>  (3747) 
79892

>  <smiles>  (3747) 
O=C(Nc1cn2cccnc2n1)C1CC1F

>  <inchikey>  (3747) 
CDVSCPQUIVYFJP-UHFFFAOYSA-N

>  <distance_score>  (3747) 
1.554756

>  <ref_mols>  (3747) 
Z0719a,Z1597a

>  <ref_pdb>  (3747) 
Z0719a

>  <HIPPO Compound ID>  (3747) 
150731

>  <name>  (3747) 
CDVSCPQUIVYFJP-UHFFFAOYSA-N-P86-P35-P86-601527

>  <inspiration_score>  (3747) 
None

$$$$
WWMDHQDBXWCGER-UHFFFAOYSA-N-P35-P35-P86-601527
     RDKit          3D

 16 16  0  0  0  0  0  0  0  0999 V2000
   -7.5986    3.3262  -14.3421 C   0  0  0  0  0  0  0  0  0  0  0  0
   -7.8885    3.9460  -15.6856 C   0  0  0  0  0  0  0  0  0  0  0  0
   -8.7269    3.5695  -16.6384 N   0  0  0  0  0  0  0  0  0  0  0  0
   -8.3382    4.2625  -17.7658 C   0  0  0  0  0  0  0  0  0  0  0  0
   -7.2864    5.1033  -17.4708 C   0  0  0  0  0  0  0  0  0  0  0  0
   -6.3978    5.7249  -18.3026 N   0  0  0  0  0  0  0  0  0  0  0  0
   -5.1307    6.5817  -17.9762 C   0  0  0  0  0  0  0  0  0  0  0  0
   -4.7054    6.9460  -16.9462 O   0  0  0  0  0  0  0  0  0  0  0  0
   -4.3557    6.8381  -19.3076 C   0  0  0  0  0  0  0  0  0  0  0  0
   -5.1639    7.2953  -20.5141 C   0  0  0  0  0  0  0  0  0  0  0  0
   -3.4996    5.6095  -19.6075 C   0  0  0  0  0  0  0  0  0  0  0  0
   -3.0756    8.3386  -18.9536 Br  0  0  0  0  0  0  0  0  0  0  0  0
   -7.2568    5.0951  -16.1017 N   0  0  0  0  0  0  0  0  0  0  0  0
   -6.7976    6.1164  -15.1918 C   0  0  0  0  0  0  0  0  0  0  0  0
   -7.7002    6.2658  -14.0405 C   0  0  0  0  0  0  0  0  0  0  0  0
   -8.4278    6.3219  -13.1368 N   0  0  0  0  0  0  0  0  0  0  0  0
  1  2  1  0
  2  3  2  0
  3  4  1  0
  4  5  2  0
  5  6  1  0
  6  7  1  0
  7  8  2  0
  7  9  1  0
  9 10  1  0
  9 11  1  0
  9 12  1  0
  5 13  1  0
 13 14  1  0
 14 15  1  0
 15 16  3  0
 13  2  1  0
M  END
>  <energy_score>  (3748) 
-10.912415

>  <alias>  (3748) 
WWMDHQDBXWCGER-UHFFFAOYSA-N-P35-P35-P86-601527

>  <HIPPO Pose ID>  (3748) 
79893

>  <smiles>  (3748) 
Cc1ncc(NC(=O)C(C)(C)Br)n1CC#N

>  <inchikey>  (3748) 
WWMDHQDBXWCGER-UHFFFAOYSA-N

>  <distance_score>  (3748) 
1.941905

>  <ref_mols>  (3748) 
Z0719a,Z1597a

>  <ref_pdb>  (3748) 
Z0719a

>  <HIPPO Compound ID>  (3748) 
150732

>  <name>  (3748) 
WWMDHQDBXWCGER-UHFFFAOYSA-N-P35-P35-P86-601527

>  <inspiration_score>  (3748) 
None

$$$$
GGQJWPZBEIYLBD-UHFFFAOYSA-N-P86-P35-P86-601527
     RDKit          3D

 16 17  0  0  0  0  0  0  0  0999 V2000
   -2.9607    6.6870  -18.7652 O   0  0  0  0  0  0  0  0  0  0  0  0
   -3.4864    6.1453  -19.6569 C   0  0  0  0  0  0  0  0  0  0  0  0
   -2.9147    6.1356  -21.0602 C   0  0  0  0  0  0  0  0  0  0  0  0
   -3.4742    7.2680  -21.9130 C   0  0  0  0  0  0  0  0  0  0  0  0
   -4.9533    7.1423  -22.2638 C   0  0  0  0  0  0  0  0  0  0  0  0
   -5.4306    8.4238  -23.4636 S   0  0  0  0  0  0  0  0  0  0  0  0
   -4.8174    5.3464  -19.7056 N   0  0  0  0  0  0  0  0  0  0  0  0
   -5.7562    5.1458  -18.7530 C   0  0  0  0  0  0  0  0  0  0  0  0
   -6.9280    4.4499  -18.9072 C   0  0  0  0  0  0  0  0  0  0  0  0
   -7.5142    4.4745  -17.6796 N   0  0  0  0  0  0  0  0  0  0  0  0
   -8.7109    3.9256  -17.3669 N   0  0  0  0  0  0  0  0  0  0  0  0
   -8.9882    4.0702  -16.1141 C   0  0  0  0  0  0  0  0  0  0  0  0
   -8.1512    4.7169  -15.0810 C   0  0  0  0  0  0  0  0  0  0  0  0
   -6.9972    5.2560  -15.4804 C   0  0  0  0  0  0  0  0  0  0  0  0
   -6.6495    5.1628  -16.8412 C   0  0  0  0  0  0  0  0  0  0  0  0
   -5.6037    5.6203  -17.4886 N   0  0  0  0  0  0  0  0  0  0  0  0
  1  2  2  0
  2  3  1  0
  3  4  1  0
  4  5  1  0
  5  6  1  0
  2  7  1  0
  7  8  1  0
  8  9  2  0
  9 10  1  0
 10 11  1  0
 11 12  2  0
 12 13  1  0
 13 14  2  0
 14 15  1  0
 15 16  2  0
 16  8  1  0
 15 10  1  0
M  END
>  <energy_score>  (3749) 
-32.553925

>  <alias>  (3749) 
GGQJWPZBEIYLBD-UHFFFAOYSA-N-P86-P35-P86-601527

>  <HIPPO Pose ID>  (3749) 
79898

>  <smiles>  (3749) 
O=C(CCCS)Nc1cn2ncccc2n1

>  <inchikey>  (3749) 
GGQJWPZBEIYLBD-UHFFFAOYSA-N

>  <distance_score>  (3749) 
1.694213

>  <ref_mols>  (3749) 
Z0719a,Z1597a

>  <ref_pdb>  (3749) 
Z0719a

>  <HIPPO Compound ID>  (3749) 
150734

>  <name>  (3749) 
GGQJWPZBEIYLBD-UHFFFAOYSA-N-P86-P35-P86-601527

>  <inspiration_score>  (3749) 
None

$$$$
JQUZUAKKXYAHNK-UHFFFAOYSA-N-P86-P35-P86-601527
     RDKit          3D

 16 17  0  0  0  0  0  0  0  0999 V2000
   -3.4258    7.1944  -19.1441 O   0  0  0  0  0  0  0  0  0  0  0  0
   -4.0249    6.5513  -19.9154 C   0  0  0  0  0  0  0  0  0  0  0  0
   -3.6227    6.4782  -21.3778 C   0  0  0  0  0  0  0  0  0  0  0  0
   -4.7368    6.9534  -22.2997 C   0  0  0  0  0  0  0  0  0  0  0  0
   -4.2001    7.4017  -23.6541 C   0  0  0  0  0  0  0  0  0  0  0  0
   -5.5735    7.8598  -24.7546 S   0  0  0  0  0  0  0  0  0  0  0  0
   -5.2958    5.6751  -19.7256 N   0  0  0  0  0  0  0  0  0  0  0  0
   -5.9841    5.3586  -18.6062 C   0  0  0  0  0  0  0  0  0  0  0  0
   -7.1596    4.6514  -18.5451 C   0  0  0  0  0  0  0  0  0  0  0  0
   -7.4788    4.6408  -17.2176 N   0  0  0  0  0  0  0  0  0  0  0  0
   -8.6065    4.1744  -16.5711 C   0  0  0  0  0  0  0  0  0  0  0  0
   -8.6778    4.3221  -15.2446 C   0  0  0  0  0  0  0  0  0  0  0  0
   -7.4965    4.9245  -14.5875 C   0  0  0  0  0  0  0  0  0  0  0  0
   -6.4481    5.3953  -15.1767 N   0  0  0  0  0  0  0  0  0  0  0  0
   -6.4417    5.2793  -16.5345 C   0  0  0  0  0  0  0  0  0  0  0  0
   -5.5571    5.7506  -17.3815 N   0  0  0  0  0  0  0  0  0  0  0  0
  1  2  2  0
  2  3  1  0
  3  4  1  0
  4  5  1  0
  5  6  1  0
  2  7  1  0
  7  8  1  0
  8  9  2  0
  9 10  1  0
 10 11  1  0
 11 12  2  0
 12 13  1  0
 13 14  2  0
 14 15  1  0
 15 16  2  0
 16  8  1  0
 15 10  1  0
M  END
>  <energy_score>  (3750) 
-52.811682

>  <alias>  (3750) 
JQUZUAKKXYAHNK-UHFFFAOYSA-N-P86-P35-P86-601527

>  <HIPPO Pose ID>  (3750) 
79900

>  <smiles>  (3750) 
O=C(CCCS)Nc1cn2cccnc2n1

>  <inchikey>  (3750) 
JQUZUAKKXYAHNK-UHFFFAOYSA-N

>  <distance_score>  (3750) 
1.583976

>  <ref_mols>  (3750) 
Z0719a,Z1597a

>  <ref_pdb>  (3750) 
Z0719a

>  <HIPPO Compound ID>  (3750) 
150735

>  <name>  (3750) 
JQUZUAKKXYAHNK-UHFFFAOYSA-N-P86-P35-P86-601527

>  <inspiration_score>  (3750) 
None

$$$$
IPQVCLRUJIHWTF-UHFFFAOYSA-N-P86-P35-P86-601527
     RDKit          3D

 16 17  0  0  0  0  0  0  0  0999 V2000
   -0.7945    6.1433  -20.9665 C   0  0  0  0  0  0  0  0  0  0  0  0
   -1.8645    6.9320  -21.4751 O   0  0  0  0  0  0  0  0  0  0  0  0
   -3.1363    6.3182  -21.2668 C   0  0  2  0  0  0  0  0  0  0  0  0
   -4.1106    7.0562  -22.1766 C   0  0  0  0  0  0  0  0  0  0  0  0
   -3.6717    6.3637  -19.8092 C   0  0  0  0  0  0  0  0  0  0  0  0
   -3.1305    6.9327  -18.9408 O   0  0  0  0  0  0  0  0  0  0  0  0
   -5.0091    5.5596  -19.8118 N   0  0  0  0  0  0  0  0  0  0  0  0
   -5.8414    5.2374  -18.7959 C   0  0  0  0  0  0  0  0  0  0  0  0
   -6.9800    4.4796  -18.9016 C   0  0  0  0  0  0  0  0  0  0  0  0
   -7.5144    4.4741  -17.6516 N   0  0  0  0  0  0  0  0  0  0  0  0
   -8.7006    3.9228  -17.3057 N   0  0  0  0  0  0  0  0  0  0  0  0
   -8.9431    4.0687  -16.0462 C   0  0  0  0  0  0  0  0  0  0  0  0
   -8.0732    4.7066  -15.0350 C   0  0  0  0  0  0  0  0  0  0  0  0
   -6.9310    5.2462  -15.4664 C   0  0  0  0  0  0  0  0  0  0  0  0
   -6.6299    5.1688  -16.8394 C   0  0  0  0  0  0  0  0  0  0  0  0
   -5.6276    5.6682  -17.5243 N   0  0  0  0  0  0  0  0  0  0  0  0
  1  2  1  0
  2  3  1  0
  3  4  1  6
  3  5  1  0
  5  6  2  0
  5  7  1  0
  7  8  1  0
  8  9  2  0
  9 10  1  0
 10 11  1  0
 11 12  2  0
 12 13  1  0
 13 14  2  0
 14 15  1  0
 15 16  2  0
 16  8  1  0
 15 10  1  0
M  END
>  <energy_score>  (3751) 
-18.98534

>  <alias>  (3751) 
IPQVCLRUJIHWTF-UHFFFAOYSA-N-P86-P35-P86-601527

>  <HIPPO Pose ID>  (3751) 
79916

>  <smiles>  (3751) 
COC(C)C(=O)Nc1cn2ncccc2n1

>  <inchikey>  (3751) 
IPQVCLRUJIHWTF-UHFFFAOYSA-N

>  <distance_score>  (3751) 
1.688086

>  <ref_mols>  (3751) 
Z0719a,Z1597a

>  <ref_pdb>  (3751) 
Z0719a

>  <HIPPO Compound ID>  (3751) 
150743

>  <name>  (3751) 
IPQVCLRUJIHWTF-UHFFFAOYSA-N-P86-P35-P86-601527

>  <inspiration_score>  (3751) 
None

$$$$
XJQYTABLUCYPJC-UHFFFAOYSA-N-P86-P35-P86-601527
     RDKit          3D

 16 17  0  0  0  0  0  0  0  0999 V2000
   -0.9822    6.0343  -20.8657 C   0  0  0  0  0  0  0  0  0  0  0  0
   -1.9905    6.7316  -21.5921 O   0  0  0  0  0  0  0  0  0  0  0  0
   -3.3014    6.2606  -21.2867 C   0  0  2  0  0  0  0  0  0  0  0  0
   -4.2448    6.9753  -22.2430 C   0  0  0  0  0  0  0  0  0  0  0  0
   -3.8150    6.4683  -19.8382 C   0  0  0  0  0  0  0  0  0  0  0  0
   -3.2646    7.1356  -19.0491 O   0  0  0  0  0  0  0  0  0  0  0  0
   -5.1146    5.6111  -19.7084 N   0  0  0  0  0  0  0  0  0  0  0  0
   -5.8872    5.3477  -18.6316 C   0  0  0  0  0  0  0  0  0  0  0  0
   -7.0589    4.6333  -18.6255 C   0  0  0  0  0  0  0  0  0  0  0  0
   -7.4505    4.6360  -17.3185 N   0  0  0  0  0  0  0  0  0  0  0  0
   -8.5961    4.1427  -16.7289 C   0  0  0  0  0  0  0  0  0  0  0  0
   -8.7379    4.2951  -15.4096 C   0  0  0  0  0  0  0  0  0  0  0  0
   -7.6130    4.9400  -14.6968 C   0  0  0  0  0  0  0  0  0  0  0  0
   -6.5490    5.4378  -15.2345 N   0  0  0  0  0  0  0  0  0  0  0  0
   -6.4660    5.3058  -16.5889 C   0  0  0  0  0  0  0  0  0  0  0  0
   -5.5420    5.7775  -17.3933 N   0  0  0  0  0  0  0  0  0  0  0  0
  1  2  1  0
  2  3  1  0
  3  4  1  6
  3  5  1  0
  5  6  2  0
  5  7  1  0
  7  8  1  0
  8  9  2  0
  9 10  1  0
 10 11  1  0
 11 12  2  0
 12 13  1  0
 13 14  2  0
 14 15  1  0
 15 16  2  0
 16  8  1  0
 15 10  1  0
M  END
>  <energy_score>  (3752) 
-3.087304

>  <alias>  (3752) 
XJQYTABLUCYPJC-UHFFFAOYSA-N-P86-P35-P86-601527

>  <HIPPO Pose ID>  (3752) 
79918

>  <smiles>  (3752) 
COC(C)C(=O)Nc1cn2cccnc2n1

>  <inchikey>  (3752) 
XJQYTABLUCYPJC-UHFFFAOYSA-N

>  <distance_score>  (3752) 
1.583887

>  <ref_mols>  (3752) 
Z0719a,Z1597a

>  <ref_pdb>  (3752) 
Z0719a

>  <HIPPO Compound ID>  (3752) 
150744

>  <name>  (3752) 
XJQYTABLUCYPJC-UHFFFAOYSA-N-P86-P35-P86-601527

>  <inspiration_score>  (3752) 
None

$$$$
UKNGYEJTTZHACX-UHFFFAOYSA-N-P86-P35-P86-601527
     RDKit          3D

 16 16  0  0  0  0  0  0  0  0999 V2000
   -5.4848    3.7547  -13.3889 C   0  0  0  0  0  0  0  0  0  0  0  0
   -6.7660    4.5664  -13.4399 C   0  0  0  0  0  0  0  0  0  0  0  0
   -7.4258    4.5240  -12.0521 C   0  0  0  0  0  0  0  0  0  0  0  0
   -7.8257    4.1495  -14.4991 C   0  0  0  0  0  0  0  0  0  0  0  0
   -7.6284    4.4255  -15.9067 N   0  0  0  0  0  0  0  0  0  0  0  0
   -8.5993    4.2603  -16.8595 C   0  0  0  0  0  0  0  0  0  0  0  0
   -8.2022    4.6994  -18.0347 N   0  0  0  0  0  0  0  0  0  0  0  0
   -6.9327    5.1354  -17.8426 C   0  0  0  0  0  0  0  0  0  0  0  0
   -6.2053    5.6934  -18.8404 N   0  0  0  0  0  0  0  0  0  0  0  0
   -4.6922    6.0635  -18.9047 C   0  0  0  0  0  0  0  0  0  0  0  0
   -3.8622    6.0132  -18.0777 O   0  0  0  0  0  0  0  0  0  0  0  0
   -4.3537    6.6779  -20.2981 C   0  0  0  0  0  0  0  0  0  0  0  0
   -2.8432    6.6345  -20.5321 C   0  0  0  0  0  0  0  0  0  0  0  0
   -5.0395    6.1205  -21.5318 C   0  0  0  0  0  0  0  0  0  0  0  0
   -4.8297    8.5984  -20.1083 Br  0  0  0  0  0  0  0  0  0  0  0  0
   -6.5532    4.9775  -16.5353 C   0  0  0  0  0  0  0  0  0  0  0  0
  1  2  1  0
  2  3  1  0
  2  4  1  0
  4  5  1  0
  5  6  1  0
  6  7  2  0
  7  8  1  0
  8  9  1  0
  9 10  1  0
 10 11  2  0
 10 12  1  0
 12 13  1  0
 12 14  1  0
 12 15  1  0
  8 16  2  0
 16  5  1  0
M  END
>  <energy_score>  (3753) 
-28.870212

>  <alias>  (3753) 
UKNGYEJTTZHACX-UHFFFAOYSA-N-P86-P35-P86-601527

>  <HIPPO Pose ID>  (3753) 
79922

>  <smiles>  (3753) 
CC(C)Cn1cnc(NC(=O)C(C)(C)Br)c1

>  <inchikey>  (3753) 
UKNGYEJTTZHACX-UHFFFAOYSA-N

>  <distance_score>  (3753) 
1.667348

>  <ref_mols>  (3753) 
Z0719a,Z1597a

>  <ref_pdb>  (3753) 
Z0719a

>  <HIPPO Compound ID>  (3753) 
150746

>  <name>  (3753) 
UKNGYEJTTZHACX-UHFFFAOYSA-N-P86-P35-P86-601527

>  <inspiration_score>  (3753) 
None

$$$$
IQGXHMGBZNHDQU-UHFFFAOYSA-N-P86-P35-P86-601527
     RDKit          3D

 16 16  0  0  0  0  0  0  0  0999 V2000
   -9.9385    4.2105  -16.7030 C   0  0  0  0  0  0  0  0  0  0  0  0
   -8.7447    4.1033  -17.5139 C   0  0  0  0  0  0  0  0  0  0  0  0
   -8.7243    3.5247  -18.6877 N   0  0  0  0  0  0  0  0  0  0  0  0
   -7.5275    3.8644  -19.2188 C   0  0  0  0  0  0  0  0  0  0  0  0
   -6.8081    4.6477  -18.3510 C   0  0  0  0  0  0  0  0  0  0  0  0
   -5.5833    5.1903  -18.5380 N   0  0  0  0  0  0  0  0  0  0  0  0
   -4.9147    6.4222  -17.8721 C   0  0  0  0  0  0  0  0  0  0  0  0
   -5.3468    7.2028  -17.1169 O   0  0  0  0  0  0  0  0  0  0  0  0
   -3.4596    6.4284  -18.2873 C   0  0  2  0  0  0  0  0  0  0  0  0
   -3.2498    6.5293  -19.8016 C   0  0  0  0  0  0  0  0  0  0  0  0
   -2.8161    5.2032  -17.6332 C   0  0  0  0  0  0  0  0  0  0  0  0
   -3.4879    4.8535  -16.4843 F   0  0  0  0  0  0  0  0  0  0  0  0
   -7.5409    4.6693  -17.1881 N   0  0  0  0  0  0  0  0  0  0  0  0
   -7.0641    5.1161  -15.8809 C   0  0  0  0  0  0  0  0  0  0  0  0
   -7.8328    4.7977  -14.6723 C   0  0  0  0  0  0  0  0  0  0  0  0
   -8.4393    4.6712  -13.6884 N   0  0  0  0  0  0  0  0  0  0  0  0
  1  2  1  0
  2  3  2  0
  3  4  1  0
  4  5  2  0
  5  6  1  0
  6  7  1  0
  7  8  2  0
  7  9  1  0
  9 10  1  6
  9 11  1  0
 11 12  1  0
  5 13  1  0
 13 14  1  0
 14 15  1  0
 15 16  3  0
 13  2  1  0
M  END
>  <energy_score>  (3754) 
-8.060518

>  <alias>  (3754) 
IQGXHMGBZNHDQU-UHFFFAOYSA-N-P86-P35-P86-601527

>  <HIPPO Pose ID>  (3754) 
79926

>  <smiles>  (3754) 
Cc1ncc(NC(=O)C(C)CF)n1CC#N

>  <inchikey>  (3754) 
IQGXHMGBZNHDQU-UHFFFAOYSA-N

>  <distance_score>  (3754) 
1.526085

>  <ref_mols>  (3754) 
Z0719a,Z1597a

>  <ref_pdb>  (3754) 
Z0719a

>  <HIPPO Compound ID>  (3754) 
150748

>  <name>  (3754) 
IQGXHMGBZNHDQU-UHFFFAOYSA-N-P86-P35-P86-601527

>  <inspiration_score>  (3754) 
None

$$$$
WXWKFDQHQXLAFR-UHFFFAOYSA-N-P35-P35-P86-601527
     RDKit          3D

 16 16  0  0  0  0  0  0  0  0999 V2000
   -5.6088    7.4764  -21.7356 C   0  0  0  0  0  0  0  0  0  0  0  0
   -4.2557    7.1049  -21.5627 O   0  0  0  0  0  0  0  0  0  0  0  0
   -3.8608    7.0545  -20.2033 C   0  0  2  0  0  0  0  0  0  0  0  0
   -2.3437    7.0055  -20.2721 C   0  0  0  0  0  0  0  0  0  0  0  0
   -4.3251    5.8563  -19.2964 C   0  0  0  0  0  0  0  0  0  0  0  0
   -3.7198    4.8559  -19.2070 O   0  0  0  0  0  0  0  0  0  0  0  0
   -5.6042    6.3362  -18.5389 N   0  0  0  0  0  0  0  0  0  0  0  0
   -6.2916    5.7620  -17.5228 C   0  0  0  0  0  0  0  0  0  0  0  0
   -6.0106    4.6032  -16.8564 C   0  0  0  0  0  0  0  0  0  0  0  0
   -6.8593    4.5871  -15.7847 N   0  0  0  0  0  0  0  0  0  0  0  0
   -6.8399    3.6934  -14.6498 C   0  0  0  0  0  0  0  0  0  0  0  0
   -5.6634    3.7803  -13.6476 C   0  0  0  0  0  0  0  0  0  0  0  0
   -4.2691    3.8756  -14.2639 C   0  0  0  0  0  0  0  0  0  0  0  0
   -5.7316    2.5610  -12.7295 C   0  0  0  0  0  0  0  0  0  0  0  0
   -7.7250    5.6254  -15.9524 C   0  0  0  0  0  0  0  0  0  0  0  0
   -7.3499    6.3966  -16.9524 N   0  0  0  0  0  0  0  0  0  0  0  0
  1  2  1  0
  2  3  1  0
  3  4  1  6
  3  5  1  0
  5  6  2  0
  5  7  1  0
  7  8  1  0
  8  9  2  0
  9 10  1  0
 10 11  1  0
 11 12  1  0
 12 13  1  0
 12 14  1  0
 10 15  1  0
 15 16  2  0
 16  8  1  0
M  END
>  <energy_score>  (3755) 
-22.650639

>  <alias>  (3755) 
WXWKFDQHQXLAFR-UHFFFAOYSA-N-P35-P35-P86-601527

>  <HIPPO Pose ID>  (3755) 
79929

>  <smiles>  (3755) 
COC(C)C(=O)Nc1cn(CC(C)C)cn1

>  <inchikey>  (3755) 
WXWKFDQHQXLAFR-UHFFFAOYSA-N

>  <distance_score>  (3755) 
1.925956

>  <ref_mols>  (3755) 
Z0719a,Z1597a

>  <ref_pdb>  (3755) 
Z0719a

>  <HIPPO Compound ID>  (3755) 
150750

>  <name>  (3755) 
WXWKFDQHQXLAFR-UHFFFAOYSA-N-P35-P35-P86-601527

>  <inspiration_score>  (3755) 
None

$$$$
JCAMNOGPUBIEJO-UHFFFAOYSA-N-P35-P35-P86-601527
     RDKit          3D

 16 17  0  0  0  0  0  0  0  0999 V2000
   -6.0416    1.8526  -12.9126 C   0  0  0  0  0  0  0  0  0  0  0  0
   -5.1897    3.0358  -12.4686 C   0  0  0  0  0  0  0  0  0  0  0  0
   -3.7409    2.5808  -12.3367 C   0  0  0  0  0  0  0  0  0  0  0  0
   -5.6824    3.6518  -11.1239 C   0  0  0  0  0  0  0  0  0  0  0  0
   -7.0245    4.2127  -11.2450 N   0  0  0  0  0  0  0  0  0  0  0  0
   -8.1614    3.4792  -11.0349 C   0  0  0  0  0  0  0  0  0  0  0  0
   -8.9750    3.6351  -12.0566 N   0  0  0  0  0  0  0  0  0  0  0  0
   -8.3687    4.5539  -12.8599 C   0  0  0  0  0  0  0  0  0  0  0  0
   -8.6348    4.6151  -14.1878 N   0  0  0  0  0  0  0  0  0  0  0  0
   -8.0802    5.5520  -15.2775 C   0  0  0  0  0  0  0  0  0  0  0  0
   -7.3650    6.4694  -15.1936 O   0  0  0  0  0  0  0  0  0  0  0  0
   -8.5696    5.1370  -16.6283 C   0  0  1  0  0  0  0  0  0  0  0  0
   -7.8863    5.6964  -17.8771 C   0  0  0  0  0  0  0  0  0  0  0  0
   -7.7379    4.2785  -17.5244 C   0  0  1  0  0  0  0  0  0  0  0  0
   -6.4744    3.9252  -17.1381 F   0  0  0  0  0  0  0  0  0  0  0  0
   -7.3237    5.1592  -12.2073 C   0  0  0  0  0  0  0  0  0  0  0  0
  1  2  1  0
  2  3  1  0
  2  4  1  0
  4  5  1  0
  5  6  1  0
  6  7  2  0
  7  8  1  0
  8  9  1  0
  9 10  1  0
 10 11  2  0
 12 10  1  1
 12 13  1  0
 13 14  1  0
 14 15  1  1
  8 16  2  0
 16  5  1  0
 14 12  1  0
M  END
>  <energy_score>  (3756) 
-13.065011

>  <alias>  (3756) 
JCAMNOGPUBIEJO-UHFFFAOYSA-N-P35-P35-P86-601527

>  <HIPPO Pose ID>  (3756) 
79933

>  <smiles>  (3756) 
CC(C)Cn1cnc(NC(=O)C2CC2F)c1

>  <inchikey>  (3756) 
JCAMNOGPUBIEJO-UHFFFAOYSA-N

>  <distance_score>  (3756) 
1.444149

>  <ref_mols>  (3756) 
Z0719a,Z1597a

>  <ref_pdb>  (3756) 
Z0719a

>  <HIPPO Compound ID>  (3756) 
150752

>  <name>  (3756) 
JCAMNOGPUBIEJO-UHFFFAOYSA-N-P35-P35-P86-601527

>  <inspiration_score>  (3756) 
None

$$$$
HEJSCEOVWPMMNJ-UHFFFAOYSA-N-P86-P35-P86-601527
     RDKit          3D

 16 17  0  0  0  0  0  0  0  0999 V2000
   -2.7170    8.1276  -21.5935 C   0  0  0  0  0  0  0  0  0  0  0  0
   -3.4864    6.8524  -21.3088 C   0  0  0  0  0  0  0  0  0  0  0  0
   -2.5697    5.6438  -21.4580 C   0  0  0  0  0  0  0  0  0  0  0  0
   -4.9395    6.7923  -22.6266 Br  0  0  0  0  0  0  0  0  0  0  0  0
   -4.0673    6.8902  -19.8877 C   0  0  0  0  0  0  0  0  0  0  0  0
   -3.6485    7.6254  -19.0790 O   0  0  0  0  0  0  0  0  0  0  0  0
   -5.1376    5.7697  -19.7719 N   0  0  0  0  0  0  0  0  0  0  0  0
   -5.9246    5.4129  -18.7338 C   0  0  0  0  0  0  0  0  0  0  0  0
   -7.0161    4.5851  -18.7721 C   0  0  0  0  0  0  0  0  0  0  0  0
   -7.4802    4.5822  -17.4904 N   0  0  0  0  0  0  0  0  0  0  0  0
   -8.6308    4.0382  -16.9647 C   0  0  0  0  0  0  0  0  0  0  0  0
   -8.8525    4.1928  -15.6582 C   0  0  0  0  0  0  0  0  0  0  0  0
   -7.7967    4.8814  -14.8831 C   0  0  0  0  0  0  0  0  0  0  0  0
   -6.7294    5.4288  -15.3641 N   0  0  0  0  0  0  0  0  0  0  0  0
   -6.5784    5.3127  -16.7145 C   0  0  0  0  0  0  0  0  0  0  0  0
   -5.6665    5.8649  -17.4801 N   0  0  0  0  0  0  0  0  0  0  0  0
  1  2  1  0
  2  3  1  0
  2  4  1  0
  2  5  1  0
  5  6  2  0
  5  7  1  0
  7  8  1  0
  8  9  2  0
  9 10  1  0
 10 11  1  0
 11 12  2  0
 12 13  1  0
 13 14  2  0
 14 15  1  0
 15 16  2  0
 16  8  1  0
 15 10  1  0
M  END
>  <energy_score>  (3757) 
-2.924925

>  <alias>  (3757) 
HEJSCEOVWPMMNJ-UHFFFAOYSA-N-P86-P35-P86-601527

>  <HIPPO Pose ID>  (3757) 
79948

>  <smiles>  (3757) 
CC(C)(Br)C(=O)Nc1cn2cccnc2n1

>  <inchikey>  (3757) 
HEJSCEOVWPMMNJ-UHFFFAOYSA-N

>  <distance_score>  (3757) 
1.750939

>  <ref_mols>  (3757) 
Z0719a,Z1597a

>  <ref_pdb>  (3757) 
Z0719a

>  <HIPPO Compound ID>  (3757) 
150759

>  <name>  (3757) 
HEJSCEOVWPMMNJ-UHFFFAOYSA-N-P86-P35-P86-601527

>  <inspiration_score>  (3757) 
None

$$$$
RGEOVCKBDODYEU-UHFFFAOYSA-N-P35-P35-P86-601527
     RDKit          3D

 16 16  0  0  0  0  0  0  0  0999 V2000
   -6.2897    2.2637  -13.2871 C   0  0  0  0  0  0  0  0  0  0  0  0
   -5.9920    3.7243  -13.5790 C   0  0  0  0  0  0  0  0  0  0  0  0
   -4.6341    3.8975  -14.2498 C   0  0  0  0  0  0  0  0  0  0  0  0
   -7.2063    4.4082  -14.2837 C   0  0  0  0  0  0  0  0  0  0  0  0
   -7.2229    4.5958  -15.7195 N   0  0  0  0  0  0  0  0  0  0  0  0
   -8.2202    4.2515  -16.5881 C   0  0  0  0  0  0  0  0  0  0  0  0
   -8.0177    4.7684  -17.7852 N   0  0  0  0  0  0  0  0  0  0  0  0
   -6.8974    5.5246  -17.6644 C   0  0  0  0  0  0  0  0  0  0  0  0
   -6.4010    6.3097  -18.6494 N   0  0  0  0  0  0  0  0  0  0  0  0
   -5.1919    7.2959  -18.6457 C   0  0  0  0  0  0  0  0  0  0  0  0
   -4.3978    7.5193  -17.8144 O   0  0  0  0  0  0  0  0  0  0  0  0
   -5.2049    8.0860  -19.9655 C   0  0  2  0  0  0  0  0  0  0  0  0
   -4.9180    7.2002  -21.1669 C   0  0  0  0  0  0  0  0  0  0  0  0
   -4.2568    9.3015  -19.8916 C   0  0  0  0  0  0  0  0  0  0  0  0
   -2.4814    8.9589  -20.1585 S   0  0  0  0  0  0  0  0  0  0  0  0
   -6.4008    5.4507  -16.3956 C   0  0  0  0  0  0  0  0  0  0  0  0
  1  2  1  0
  2  3  1  0
  2  4  1  0
  4  5  1  0
  5  6  1  0
  6  7  2  0
  7  8  1  0
  8  9  1  0
  9 10  1  0
 10 11  2  0
 10 12  1  0
 12 13  1  6
 12 14  1  0
 14 15  1  0
  8 16  2  0
 16  5  1  0
M  END
>  <energy_score>  (3758) 
-29.249606

>  <alias>  (3758) 
RGEOVCKBDODYEU-UHFFFAOYSA-N-P35-P35-P86-601527

>  <HIPPO Pose ID>  (3758) 
79957

>  <smiles>  (3758) 
CC(C)Cn1cnc(NC(=O)C(C)CS)c1

>  <inchikey>  (3758) 
RGEOVCKBDODYEU-UHFFFAOYSA-N

>  <distance_score>  (3758) 
1.76832

>  <ref_mols>  (3758) 
Z0719a,Z1597a

>  <ref_pdb>  (3758) 
Z0719a

>  <HIPPO Compound ID>  (3758) 
150764

>  <name>  (3758) 
RGEOVCKBDODYEU-UHFFFAOYSA-N-P35-P35-P86-601527

>  <inspiration_score>  (3758) 
None

$$$$
XAGRGFSGJWXZPP-UHFFFAOYSA-N-P86-P35-P86-601527
     RDKit          3D

 16 17  0  0  0  0  0  0  0  0999 V2000
   -3.7072    4.7693  -13.1530 C   0  0  0  0  0  0  0  0  0  0  0  0
   -4.9133    4.1383  -12.7370 O   0  0  0  0  0  0  0  0  0  0  0  0
   -5.4714    4.6881  -11.6138 C   0  0  0  0  0  0  0  0  0  0  0  0
   -4.9395    5.5770  -10.9523 O   0  0  0  0  0  0  0  0  0  0  0  0
   -6.7188    4.0273  -11.2393 C   0  0  0  0  0  0  0  0  0  0  0  0
   -6.9915    3.6815   -9.9195 N   0  0  0  0  0  0  0  0  0  0  0  0
   -8.0905    2.9682   -9.9639 C   0  0  0  0  0  0  0  0  0  0  0  0
   -8.5877    2.8961  -11.2335 N   0  0  0  0  0  0  0  0  0  0  0  0
   -7.7791    3.6407  -12.0523 C   0  0  0  0  0  0  0  0  0  0  0  0
   -8.1221    3.9277  -13.3483 N   0  0  0  0  0  0  0  0  0  0  0  0
   -7.5656    4.9816  -14.3178 C   0  0  0  0  0  0  0  0  0  0  0  0
   -6.6753    5.7231  -14.1977 O   0  0  0  0  0  0  0  0  0  0  0  0
   -8.3653    5.1237  -15.5542 C   0  0  1  0  0  0  0  0  0  0  0  0
   -7.6379    4.8228  -16.8597 C   0  0  0  0  0  0  0  0  0  0  0  0
   -8.9188    4.1461  -16.5223 C   0  0  1  0  0  0  0  0  0  0  0  0
   -8.8927    2.8092  -16.2464 F   0  0  0  0  0  0  0  0  0  0  0  0
  1  2  1  0
  2  3  1  0
  3  4  2  0
  3  5  1  0
  5  6  1  0
  6  7  2  0
  7  8  1  0
  8  9  1  0
  9 10  1  0
 10 11  1  0
 11 12  2  0
 13 11  1  1
 13 14  1  0
 14 15  1  0
 15 16  1  1
  9  5  2  0
 15 13  1  0
M  END
>  <energy_score>  (3759) 
-17.714664

>  <alias>  (3759) 
XAGRGFSGJWXZPP-UHFFFAOYSA-N-P86-P35-P86-601527

>  <HIPPO Pose ID>  (3759) 
79962

>  <smiles>  (3759) 
COC(=O)c1nc[nH]c1NC(=O)C1CC1F

>  <inchikey>  (3759) 
XAGRGFSGJWXZPP-UHFFFAOYSA-N

>  <distance_score>  (3759) 
1.64918

>  <ref_mols>  (3759) 
Z0719a,Z1597a

>  <ref_pdb>  (3759) 
Z0719a

>  <HIPPO Compound ID>  (3759) 
150766

>  <name>  (3759) 
XAGRGFSGJWXZPP-UHFFFAOYSA-N-P86-P35-P86-601527

>  <inspiration_score>  (3759) 
None

$$$$
JVAUJXXQCJMVSZ-UHFFFAOYSA-N-P35-P35-P86-601527
     RDKit          3D

 16 16  0  0  0  0  0  0  0  0999 V2000
   -4.1711    6.4404  -19.3502 C   0  0  0  0  0  0  0  0  0  0  0  0
   -3.6947    5.0626  -18.8611 C   0  0  1  0  0  0  0  0  0  0  0  0
   -2.1677    4.9110  -18.9161 C   0  0  0  0  0  0  0  0  0  0  0  0
   -1.4592    5.2144  -20.5689 S   0  0  0  0  0  0  0  0  0  0  0  0
   -4.1732    4.7354  -17.4181 C   0  0  0  0  0  0  0  0  0  0  0  0
   -3.4539    4.5785  -16.5133 O   0  0  0  0  0  0  0  0  0  0  0  0
   -5.7199    4.6447  -17.5003 N   0  0  0  0  0  0  0  0  0  0  0  0
   -6.6583    4.4452  -16.5110 C   0  0  0  0  0  0  0  0  0  0  0  0
   -6.7722    4.0267  -15.1812 C   0  0  0  0  0  0  0  0  0  0  0  0
   -5.8704    3.3542  -14.2618 N   0  0  0  0  0  0  0  0  0  0  0  0
   -6.3161    2.3451  -13.6850 O   0  0  0  0  0  0  0  0  0  0  0  0
   -4.7330    3.8090  -14.1013 O   0  0  0  0  0  0  0  0  0  0  0  0
   -8.0840    4.1530  -14.7396 N   0  0  0  0  0  0  0  0  0  0  0  0
   -8.7765    4.4836  -15.7893 C   0  0  0  0  0  0  0  0  0  0  0  0
   -7.9806    4.6329  -16.8722 N   0  0  0  0  0  0  0  0  0  0  0  0
   -8.4956    4.8944  -18.1859 C   0  0  0  0  0  0  0  0  0  0  0  0
  2  1  1  1
  2  3  1  0
  3  4  1  0
  2  5  1  0
  5  6  2  0
  5  7  1  0
  7  8  1  0
  8  9  2  0
  9 10  1  0
 10 11  2  0
 10 12  1  0
  9 13  1  0
 13 14  2  0
 14 15  1  0
 15 16  1  0
 15  8  1  0
M  CHG  2  10   1  12  -1
M  END
>  <energy_score>  (3760) 
-20.925882

>  <alias>  (3760) 
JVAUJXXQCJMVSZ-UHFFFAOYSA-N-P35-P35-P86-601527

>  <HIPPO Pose ID>  (3760) 
79967

>  <smiles>  (3760) 
CC(CS)C(=O)Nc1c([N+](=O)[O-])ncn1C

>  <inchikey>  (3760) 
JVAUJXXQCJMVSZ-UHFFFAOYSA-N

>  <distance_score>  (3760) 
1.987365

>  <ref_mols>  (3760) 
Z0719a,Z1597a

>  <ref_pdb>  (3760) 
Z0719a

>  <HIPPO Compound ID>  (3760) 
150769

>  <name>  (3760) 
JVAUJXXQCJMVSZ-UHFFFAOYSA-N-P35-P35-P86-601527

>  <inspiration_score>  (3760) 
None

$$$$
ZQMSVYRDZOSLAH-UHFFFAOYSA-N-P35-P35-P86-601527
     RDKit          3D

 16 16  0  0  0  0  0  0  0  0999 V2000
   -1.2218    6.4831  -21.2023 C   0  0  0  0  0  0  0  0  0  0  0  0
   -2.2990    6.3027  -20.1821 C   0  0  0  0  0  0  0  0  0  0  0  0
   -3.5906    6.6700  -20.2892 C   0  0  0  0  0  0  0  0  0  0  0  0
   -4.2467    7.3238  -21.4579 C   0  0  0  0  0  0  0  0  0  0  0  0
   -4.4162    6.5128  -19.0492 C   0  0  0  0  0  0  0  0  0  0  0  0
   -4.1422    7.0887  -18.0718 O   0  0  0  0  0  0  0  0  0  0  0  0
   -5.5522    5.5075  -19.3332 N   0  0  0  0  0  0  0  0  0  0  0  0
   -6.5781    5.0988  -18.5537 C   0  0  0  0  0  0  0  0  0  0  0  0
   -6.7809    5.4104  -17.2383 C   0  0  0  0  0  0  0  0  0  0  0  0
   -7.8800    4.6954  -16.8771 N   0  0  0  0  0  0  0  0  0  0  0  0
   -8.4253    4.5344  -15.5545 C   0  0  0  0  0  0  0  0  0  0  0  0
   -7.4475    4.6863  -14.3754 C   0  0  0  0  0  0  0  0  0  0  0  0
   -6.3112    3.6658  -14.3799 C   0  0  0  0  0  0  0  0  0  0  0  0
   -8.2148    4.5637  -13.0612 C   0  0  0  0  0  0  0  0  0  0  0  0
   -8.3818    4.1217  -18.0039 C   0  0  0  0  0  0  0  0  0  0  0  0
   -7.5609    4.2869  -19.0172 N   0  0  0  0  0  0  0  0  0  0  0  0
  1  2  1  0
  2  3  2  3
  3  4  1  0
  3  5  1  0
  5  6  2  0
  5  7  1  0
  7  8  1  0
  8  9  2  0
  9 10  1  0
 10 11  1  0
 11 12  1  0
 12 13  1  0
 12 14  1  0
 10 15  1  0
 15 16  2  0
 16  8  1  0
M  END
>  <energy_score>  (3761) 
-42.733483

>  <alias>  (3761) 
ZQMSVYRDZOSLAH-UHFFFAOYSA-N-P35-P35-P86-601527

>  <HIPPO Pose ID>  (3761) 
79979

>  <smiles>  (3761) 
CC=C(C)C(=O)Nc1cn(CC(C)C)cn1

>  <inchikey>  (3761) 
ZQMSVYRDZOSLAH-UHFFFAOYSA-N

>  <distance_score>  (3761) 
1.287651

>  <ref_mols>  (3761) 
Z0719a,Z1597a

>  <ref_pdb>  (3761) 
Z0719a

>  <HIPPO Compound ID>  (3761) 
150775

>  <name>  (3761) 
ZQMSVYRDZOSLAH-UHFFFAOYSA-N-P35-P35-P86-601527

>  <inspiration_score>  (3761) 
None

$$$$
WDQPKSIIFPARKK-UHFFFAOYSA-N-P86-P35-P86-601527
     RDKit          3D

 16 17  0  0  0  0  0  0  0  0999 V2000
   -3.1681    7.9494  -18.5902 O   0  0  0  0  0  0  0  0  0  0  0  0
   -3.4434    6.9633  -19.1536 C   0  0  0  0  0  0  0  0  0  0  0  0
   -2.7923    6.5601  -20.4577 C   0  0  0  0  0  0  0  0  0  0  0  0
   -3.7255    6.8341  -21.6080 C   0  0  0  0  0  0  0  0  0  0  0  0
   -3.1443    6.3869  -22.7566 F   0  0  0  0  0  0  0  0  0  0  0  0
   -3.8959    8.1695  -21.7736 F   0  0  0  0  0  0  0  0  0  0  0  0
   -4.4978    5.8715  -18.8170 N   0  0  0  0  0  0  0  0  0  0  0  0
   -5.3071    5.7333  -17.7400 C   0  0  0  0  0  0  0  0  0  0  0  0
   -6.2936    4.7912  -17.6454 C   0  0  0  0  0  0  0  0  0  0  0  0
   -6.9266    5.0570  -16.4657 N   0  0  0  0  0  0  0  0  0  0  0  0
   -8.1744    4.4975  -15.9701 C   0  0  0  0  0  0  0  0  0  0  0  0
   -8.9619    3.7522  -17.0120 C   0  0  0  0  0  0  0  0  0  0  0  0
   -9.1077    4.2141  -18.4529 C   0  0  0  0  0  0  0  0  0  0  0  0
  -10.2807    4.2570  -17.5444 C   0  0  0  0  0  0  0  0  0  0  0  0
   -6.2146    6.0426  -15.8445 C   0  0  0  0  0  0  0  0  0  0  0  0
   -5.2671    6.5092  -16.6271 N   0  0  0  0  0  0  0  0  0  0  0  0
  1  2  2  0
  2  3  1  0
  3  4  1  0
  4  5  1  0
  4  6  1  0
  2  7  1  0
  7  8  1  0
  8  9  2  0
  9 10  1  0
 10 11  1  0
 11 12  1  0
 12 13  1  0
 13 14  1  0
 10 15  1  0
 15 16  2  0
 16  8  1  0
 14 12  1  0
M  END
>  <energy_score>  (3762) 
-7.974526

>  <alias>  (3762) 
WDQPKSIIFPARKK-UHFFFAOYSA-N-P86-P35-P86-601527

>  <HIPPO Pose ID>  (3762) 
79982

>  <smiles>  (3762) 
O=C(CC(F)F)Nc1cn(CC2CC2)cn1

>  <inchikey>  (3762) 
WDQPKSIIFPARKK-UHFFFAOYSA-N

>  <distance_score>  (3762) 
1.999288

>  <ref_mols>  (3762) 
Z0719a,Z1597a

>  <ref_pdb>  (3762) 
Z0719a

>  <HIPPO Compound ID>  (3762) 
150776

>  <name>  (3762) 
WDQPKSIIFPARKK-UHFFFAOYSA-N-P86-P35-P86-601527

>  <inspiration_score>  (3762) 
None

$$$$
ACMSNBMKDXROCM-UHFFFAOYSA-N-P86-P35-P86-601527
     RDKit          3D

 16 17  0  0  0  0  0  0  0  0999 V2000
   -3.1213    6.9234  -18.9449 O   0  0  0  0  0  0  0  0  0  0  0  0
   -3.5495    6.2074  -19.7641 C   0  0  0  0  0  0  0  0  0  0  0  0
   -2.8344    5.9601  -21.0653 C   0  0  0  0  0  0  0  0  0  0  0  0
   -3.5438    6.6859  -22.1718 C   0  0  0  0  0  0  0  0  0  0  0  0
   -2.9865    6.3095  -23.3606 F   0  0  0  0  0  0  0  0  0  0  0  0
   -3.3359    8.0225  -22.0741 F   0  0  0  0  0  0  0  0  0  0  0  0
   -4.8535    5.3576  -19.7790 N   0  0  0  0  0  0  0  0  0  0  0  0
   -5.7827    5.1574  -18.8154 C   0  0  0  0  0  0  0  0  0  0  0  0
   -6.9415    4.4346  -18.9419 C   0  0  0  0  0  0  0  0  0  0  0  0
   -7.5161    4.4724  -17.7083 N   0  0  0  0  0  0  0  0  0  0  0  0
   -8.7028    3.9139  -17.3737 N   0  0  0  0  0  0  0  0  0  0  0  0
   -8.9691    4.0754  -16.1203 C   0  0  0  0  0  0  0  0  0  0  0  0
   -8.1260    4.7443  -15.1061 C   0  0  0  0  0  0  0  0  0  0  0  0
   -6.9821    5.2890  -15.5263 C   0  0  0  0  0  0  0  0  0  0  0  0
   -6.6499    5.1828  -16.8903 C   0  0  0  0  0  0  0  0  0  0  0  0
   -5.6192    5.6466  -17.5578 N   0  0  0  0  0  0  0  0  0  0  0  0
  1  2  2  0
  2  3  1  0
  3  4  1  0
  4  5  1  0
  4  6  1  0
  2  7  1  0
  7  8  1  0
  8  9  2  0
  9 10  1  0
 10 11  1  0
 11 12  2  0
 12 13  1  0
 13 14  2  0
 14 15  1  0
 15 16  2  0
 16  8  1  0
 15 10  1  0
M  END
>  <energy_score>  (3763) 
-26.285319

>  <alias>  (3763) 
ACMSNBMKDXROCM-UHFFFAOYSA-N-P86-P35-P86-601527

>  <HIPPO Pose ID>  (3763) 
79996

>  <smiles>  (3763) 
O=C(CC(F)F)Nc1cn2ncccc2n1

>  <inchikey>  (3763) 
ACMSNBMKDXROCM-UHFFFAOYSA-N

>  <distance_score>  (3763) 
1.703603

>  <ref_mols>  (3763) 
Z0719a,Z1597a

>  <ref_pdb>  (3763) 
Z0719a

>  <HIPPO Compound ID>  (3763) 
150783

>  <name>  (3763) 
ACMSNBMKDXROCM-UHFFFAOYSA-N-P86-P35-P86-601527

>  <inspiration_score>  (3763) 
None

$$$$
DENMHTRWKHTWDM-UHFFFAOYSA-N-P86-P35-P86-601527
     RDKit          3D

 16 17  0  0  0  0  0  0  0  0999 V2000
   -3.3330    5.7953  -19.5854 O   0  0  0  0  0  0  0  0  0  0  0  0
   -4.3049    5.7706  -20.2342 C   0  0  0  0  0  0  0  0  0  0  0  0
   -4.2954    6.2326  -21.6614 C   0  0  0  0  0  0  0  0  0  0  0  0
   -4.1882    7.7257  -21.6103 C   0  0  0  0  0  0  0  0  0  0  0  0
   -3.8895    8.1848  -22.8575 F   0  0  0  0  0  0  0  0  0  0  0  0
   -5.3962    8.2685  -21.3020 F   0  0  0  0  0  0  0  0  0  0  0  0
   -5.7627    5.4066  -19.8480 N   0  0  0  0  0  0  0  0  0  0  0  0
   -6.3035    5.1110  -18.6467 C   0  0  0  0  0  0  0  0  0  0  0  0
   -7.5784    4.6599  -18.4152 C   0  0  0  0  0  0  0  0  0  0  0  0
   -7.6707    4.5966  -17.0542 N   0  0  0  0  0  0  0  0  0  0  0  0
   -8.7427    4.2732  -16.2439 C   0  0  0  0  0  0  0  0  0  0  0  0
   -8.5878    4.3612  -14.9179 C   0  0  0  0  0  0  0  0  0  0  0  0
   -7.2428    4.7677  -14.4485 C   0  0  0  0  0  0  0  0  0  0  0  0
   -6.2364    5.0986  -15.1876 N   0  0  0  0  0  0  0  0  0  0  0  0
   -6.4459    5.0165  -16.5317 C   0  0  0  0  0  0  0  0  0  0  0  0
   -5.6133    5.3201  -17.4996 N   0  0  0  0  0  0  0  0  0  0  0  0
  1  2  2  0
  2  3  1  0
  3  4  1  0
  4  5  1  0
  4  6  1  0
  2  7  1  0
  7  8  1  0
  8  9  2  0
  9 10  1  0
 10 11  1  0
 11 12  2  0
 12 13  1  0
 13 14  2  0
 14 15  1  0
 15 16  2  0
 16  8  1  0
 15 10  1  0
M  END
>  <energy_score>  (3764) 
-28.842153

>  <alias>  (3764) 
DENMHTRWKHTWDM-UHFFFAOYSA-N-P86-P35-P86-601527

>  <HIPPO Pose ID>  (3764) 
79998

>  <smiles>  (3764) 
O=C(CC(F)F)Nc1cn2cccnc2n1

>  <inchikey>  (3764) 
DENMHTRWKHTWDM-UHFFFAOYSA-N

>  <distance_score>  (3764) 
1.469697

>  <ref_mols>  (3764) 
Z0719a,Z1597a

>  <ref_pdb>  (3764) 
Z0719a

>  <HIPPO Compound ID>  (3764) 
150784

>  <name>  (3764) 
DENMHTRWKHTWDM-UHFFFAOYSA-N-P86-P35-P86-601527

>  <inspiration_score>  (3764) 
None

$$$$
AXTMMAXTOVXIRS-UHFFFAOYSA-N-P86-P35-P86-601527
     RDKit          3D

 16 17  0  0  0  0  0  0  0  0999 V2000
   -5.7280    1.5579  -12.0785 C   0  0  0  0  0  0  0  0  0  0  0  0
   -5.2330    2.9800  -11.8956 C   0  0  0  0  0  0  0  0  0  0  0  0
   -3.7102    2.9776  -11.9018 C   0  0  0  0  0  0  0  0  0  0  0  0
   -5.8018    3.5908  -10.5796 C   0  0  0  0  0  0  0  0  0  0  0  0
   -7.1823    4.0341  -10.7776 N   0  0  0  0  0  0  0  0  0  0  0  0
   -8.2647    3.1936  -10.7295 C   0  0  0  0  0  0  0  0  0  0  0  0
   -8.9559    3.2970  -11.8478 N   0  0  0  0  0  0  0  0  0  0  0  0
   -8.3449    4.2963  -12.5360 C   0  0  0  0  0  0  0  0  0  0  0  0
   -8.4526    4.4335  -13.8761 N   0  0  0  0  0  0  0  0  0  0  0  0
   -7.6828    5.3352  -14.8516 C   0  0  0  0  0  0  0  0  0  0  0  0
   -6.8855    6.1603  -14.6490 O   0  0  0  0  0  0  0  0  0  0  0  0
   -8.1506    5.1330  -16.2537 C   0  0  1  0  0  0  0  0  0  0  0  0
   -7.1831    5.6385  -17.3472 C   0  0  0  0  0  0  0  0  0  0  0  0
   -7.5916    4.2203  -17.3005 C   0  0  2  0  0  0  0  0  0  0  0  0
   -8.4716    3.7237  -18.4041 C   0  0  0  0  0  0  0  0  0  0  0  0
   -7.4632    4.9829  -11.7378 C   0  0  0  0  0  0  0  0  0  0  0  0
  1  2  1  0
  2  3  1  0
  2  4  1  0
  4  5  1  0
  5  6  1  0
  6  7  2  0
  7  8  1  0
  8  9  1  0
  9 10  1  0
 10 11  2  0
 12 10  1  1
 12 13  1  0
 13 14  1  0
 14 15  1  6
  8 16  2  0
 16  5  1  0
 14 12  1  0
M  END
>  <energy_score>  (3765) 
-4.387894

>  <alias>  (3765) 
AXTMMAXTOVXIRS-UHFFFAOYSA-N-P86-P35-P86-601527

>  <HIPPO Pose ID>  (3765) 
80004

>  <smiles>  (3765) 
CC(C)Cn1cnc(NC(=O)C2CC2C)c1

>  <inchikey>  (3765) 
AXTMMAXTOVXIRS-UHFFFAOYSA-N

>  <distance_score>  (3765) 
1.292042

>  <ref_mols>  (3765) 
Z0719a,Z1597a

>  <ref_pdb>  (3765) 
Z0719a

>  <HIPPO Compound ID>  (3765) 
150787

>  <name>  (3765) 
AXTMMAXTOVXIRS-UHFFFAOYSA-N-P86-P35-P86-601527

>  <inspiration_score>  (3765) 
None

$$$$
UCVPJOSFBHDQPN-UHFFFAOYSA-N-P86-P35-P86-601527
     RDKit          3D

 16 17  0  0  0  0  0  0  0  0999 V2000
   -6.7117    2.1831  -10.3920 C   0  0  0  0  0  0  0  0  0  0  0  0
   -7.3820    3.1696  -11.2499 C   0  0  0  0  0  0  0  0  0  0  0  0
   -7.6348    2.9583  -12.5137 N   0  0  0  0  0  0  0  0  0  0  0  0
   -7.7487    4.1947  -13.0547 C   0  0  0  0  0  0  0  0  0  0  0  0
   -7.6159    4.2142  -14.3951 N   0  0  0  0  0  0  0  0  0  0  0  0
   -7.0913    5.3026  -15.3228 C   0  0  0  0  0  0  0  0  0  0  0  0
   -6.7581    6.3911  -15.0945 O   0  0  0  0  0  0  0  0  0  0  0  0
   -7.0073    4.7261  -16.6967 C   0  0  2  0  0  0  0  0  0  0  0  0
   -7.1895    5.5496  -17.9267 C   0  0  0  0  0  0  0  0  0  0  0  0
   -8.3046    4.6363  -17.4688 C   0  0  1  0  0  0  0  0  0  0  0  0
   -8.7093    3.5533  -18.3849 C   0  0  0  0  0  0  0  0  0  0  0  0
   -7.8683    5.1603  -12.0838 C   0  0  0  0  0  0  0  0  0  0  0  0
   -8.1038    6.5540  -12.1944 C   0  0  0  0  0  0  0  0  0  0  0  0
   -8.3243    7.6938  -12.2046 N   0  0  0  0  0  0  0  0  0  0  0  0
   -7.7211    4.4558  -10.9051 N   0  0  0  0  0  0  0  0  0  0  0  0
   -7.8069    4.9951   -9.5721 C   0  0  0  0  0  0  0  0  0  0  0  0
  1  2  1  0
  2  3  2  0
  3  4  1  0
  4  5  1  0
  5  6  1  0
  6  7  2  0
  8  6  1  1
  8  9  1  0
  9 10  1  0
 10 11  1  6
  4 12  2  0
 12 13  1  0
 13 14  3  0
 12 15  1  0
 15 16  1  0
 15  2  1  0
 10  8  1  0
M  END
>  <energy_score>  (3766) 
-18.582191

>  <alias>  (3766) 
UCVPJOSFBHDQPN-UHFFFAOYSA-N-P86-P35-P86-601527

>  <HIPPO Pose ID>  (3766) 
80012

>  <smiles>  (3766) 
Cc1nc(NC(=O)C2CC2C)c(C#N)n1C

>  <inchikey>  (3766) 
UCVPJOSFBHDQPN-UHFFFAOYSA-N

>  <distance_score>  (3766) 
1.861825

>  <ref_mols>  (3766) 
Z0719a,Z1597a

>  <ref_pdb>  (3766) 
Z0719a

>  <HIPPO Compound ID>  (3766) 
150791

>  <name>  (3766) 
UCVPJOSFBHDQPN-UHFFFAOYSA-N-P86-P35-P86-601527

>  <inspiration_score>  (3766) 
None

$$$$
UOFCYZHKJIMAFG-UHFFFAOYSA-N-P35-P35-P86-601527
     RDKit          3D

 16 17  0  0  0  0  0  0  0  0999 V2000
   -7.4067    3.1787   -9.4173 C   0  0  0  0  0  0  0  0  0  0  0  0
   -7.5913    4.2001  -10.4763 C   0  0  0  0  0  0  0  0  0  0  0  0
   -8.0554    5.4171  -10.2577 N   0  0  0  0  0  0  0  0  0  0  0  0
   -8.1940    5.9728  -11.4954 C   0  0  0  0  0  0  0  0  0  0  0  0
   -8.6843    7.3012  -11.6755 C   0  0  0  0  0  0  0  0  0  0  0  0
   -9.0694    8.3702  -11.9232 N   0  0  0  0  0  0  0  0  0  0  0  0
   -7.7524    5.1292  -12.4926 C   0  0  0  0  0  0  0  0  0  0  0  0
   -7.7960    5.3130  -13.8500 N   0  0  0  0  0  0  0  0  0  0  0  0
   -6.8784    4.7786  -14.9591 C   0  0  0  0  0  0  0  0  0  0  0  0
   -5.9844    4.0349  -14.9062 O   0  0  0  0  0  0  0  0  0  0  0  0
   -7.3670    5.2921  -16.2827 C   0  0  1  0  0  0  0  0  0  0  0  0
   -6.8221    4.7335  -17.5717 C   0  0  0  0  0  0  0  0  0  0  0  0
   -8.1857    4.3065  -17.0987 C   0  0  2  0  0  0  0  0  0  0  0  0
   -9.3717    4.6383  -17.9195 C   0  0  0  0  0  0  0  0  0  0  0  0
   -7.3102    4.0067  -11.8219 N   0  0  0  0  0  0  0  0  0  0  0  0
   -6.7779    2.7960  -12.4159 C   0  0  0  0  0  0  0  0  0  0  0  0
  1  2  1  0
  2  3  2  0
  3  4  1  0
  4  5  1  0
  5  6  3  0
  4  7  2  0
  7  8  1  0
  8  9  1  0
  9 10  2  0
 11  9  1  1
 11 12  1  0
 12 13  1  0
 13 14  1  6
  7 15  1  0
 15 16  1  0
 15  2  1  0
 13 11  1  0
M  END
>  <energy_score>  (3767) 
-17.805133

>  <alias>  (3767) 
UOFCYZHKJIMAFG-UHFFFAOYSA-N-P35-P35-P86-601527

>  <HIPPO Pose ID>  (3767) 
80013

>  <smiles>  (3767) 
Cc1nc(C#N)c(NC(=O)C2CC2C)n1C

>  <inchikey>  (3767) 
UOFCYZHKJIMAFG-UHFFFAOYSA-N

>  <distance_score>  (3767) 
1.29645

>  <ref_mols>  (3767) 
Z0719a,Z1597a

>  <ref_pdb>  (3767) 
Z0719a

>  <HIPPO Compound ID>  (3767) 
150792

>  <name>  (3767) 
UOFCYZHKJIMAFG-UHFFFAOYSA-N-P35-P35-P86-601527

>  <inspiration_score>  (3767) 
None

$$$$
OFNZNXLXAFCUDP-UHFFFAOYSA-N-P35-P35-P86-601527
     RDKit          3D

 16 16  0  0  0  0  0  0  0  0999 V2000
   -3.0374    7.3939  -20.6463 C   0  0  0  0  0  0  0  0  0  0  0  0
   -3.9948    6.5674  -20.2054 C   0  0  0  0  0  0  0  0  0  0  0  0
   -3.7925    5.5251  -19.1410 C   0  0  0  0  0  0  0  0  0  0  0  0
   -4.6564    5.8016  -17.9019 C   0  0  0  0  0  0  0  0  0  0  0  0
   -4.2809    6.4338  -16.9905 O   0  0  0  0  0  0  0  0  0  0  0  0
   -6.0320    5.1127  -18.1552 N   0  0  0  0  0  0  0  0  0  0  0  0
   -7.1269    4.9900  -17.3437 C   0  0  0  0  0  0  0  0  0  0  0  0
   -8.3928    4.5864  -17.7162 C   0  0  0  0  0  0  0  0  0  0  0  0
   -8.8798    4.0978  -19.0032 C   0  0  0  0  0  0  0  0  0  0  0  0
   -9.2941    4.7950  -16.7110 N   0  0  0  0  0  0  0  0  0  0  0  0
   -8.6075    5.3686  -15.7515 C   0  0  0  0  0  0  0  0  0  0  0  0
   -9.1663    6.1224  -14.6043 C   0  0  0  0  0  0  0  0  0  0  0  0
   -7.2613    5.2389  -16.0020 N   0  0  0  0  0  0  0  0  0  0  0  0
   -6.2676    5.1802  -14.9649 C   0  0  0  0  0  0  0  0  0  0  0  0
   -6.3897    3.9845  -14.0149 C   0  0  0  0  0  0  0  0  0  0  0  0
   -7.4695    4.0480  -12.9489 C   0  0  0  0  0  0  0  0  0  0  0  0
  1  2  2  0
  2  3  1  0
  3  4  1  0
  4  5  2  0
  4  6  1  0
  6  7  1  0
  7  8  2  0
  8  9  1  0
  8 10  1  0
 10 11  2  0
 11 12  1  0
 11 13  1  0
 13 14  1  0
 14 15  1  0
 15 16  1  0
 13  7  1  0
M  END
>  <energy_score>  (3768) 
-12.968419

>  <alias>  (3768) 
OFNZNXLXAFCUDP-UHFFFAOYSA-N-P35-P35-P86-601527

>  <HIPPO Pose ID>  (3768) 
80019

>  <smiles>  (3768) 
C=CCC(=O)Nc1c(C)nc(C)n1CCC

>  <inchikey>  (3768) 
OFNZNXLXAFCUDP-UHFFFAOYSA-N

>  <distance_score>  (3768) 
1.380219

>  <ref_mols>  (3768) 
Z0719a,Z1597a

>  <ref_pdb>  (3768) 
Z0719a

>  <HIPPO Compound ID>  (3768) 
150795

>  <name>  (3768) 
OFNZNXLXAFCUDP-UHFFFAOYSA-N-P35-P35-P86-601527

>  <inspiration_score>  (3768) 
None

$$$$
LXXGEZRCVYFQLN-UHFFFAOYSA-N-P86-P35-P86-601527
     RDKit          3D

 16 17  0  0  0  0  0  0  0  0999 V2000
   -4.0415    8.0041  -21.0918 C   0  0  0  0  0  0  0  0  0  0  0  0
   -4.5155    6.8665  -20.5669 C   0  0  0  0  0  0  0  0  0  0  0  0
   -3.8978    6.1603  -19.3931 C   0  0  0  0  0  0  0  0  0  0  0  0
   -4.7409    6.2623  -18.1088 C   0  0  0  0  0  0  0  0  0  0  0  0
   -4.4113    6.8867  -17.1757 O   0  0  0  0  0  0  0  0  0  0  0  0
   -5.9751    5.3335  -18.3175 N   0  0  0  0  0  0  0  0  0  0  0  0
   -6.9489    4.9327  -17.4353 C   0  0  0  0  0  0  0  0  0  0  0  0
   -8.1305    4.3014  -17.7710 C   0  0  0  0  0  0  0  0  0  0  0  0
   -8.6258    3.9011  -19.0869 C   0  0  0  0  0  0  0  0  0  0  0  0
   -8.9055    4.0532  -16.6752 N   0  0  0  0  0  0  0  0  0  0  0  0
   -8.2093    4.4910  -15.6479 C   0  0  0  0  0  0  0  0  0  0  0  0
   -8.6649    4.4510  -14.2451 C   0  0  0  0  0  0  0  0  0  0  0  0
   -6.9891    4.9795  -16.0578 N   0  0  0  0  0  0  0  0  0  0  0  0
   -5.8531    5.3081  -15.1755 C   0  0  0  0  0  0  0  0  0  0  0  0
   -5.8951    6.5222  -14.2823 C   0  0  0  0  0  0  0  0  0  0  0  0
   -5.7421    5.1619  -13.6749 C   0  0  0  0  0  0  0  0  0  0  0  0
  1  2  2  0
  2  3  1  0
  3  4  1  0
  4  5  2  0
  4  6  1  0
  6  7  1  0
  7  8  2  0
  8  9  1  0
  8 10  1  0
 10 11  2  0
 11 12  1  0
 11 13  1  0
 13 14  1  0
 14 15  1  0
 15 16  1  0
 13  7  1  0
 16 14  1  0
M  END
>  <energy_score>  (3769) 
-12.110251

>  <alias>  (3769) 
LXXGEZRCVYFQLN-UHFFFAOYSA-N-P86-P35-P86-601527

>  <HIPPO Pose ID>  (3769) 
80026

>  <smiles>  (3769) 
C=CCC(=O)Nc1c(C)nc(C)n1C1CC1

>  <inchikey>  (3769) 
LXXGEZRCVYFQLN-UHFFFAOYSA-N

>  <distance_score>  (3769) 
1.886131

>  <ref_mols>  (3769) 
Z0719a,Z1597a

>  <ref_pdb>  (3769) 
Z0719a

>  <HIPPO Compound ID>  (3769) 
150798

>  <name>  (3769) 
LXXGEZRCVYFQLN-UHFFFAOYSA-N-P86-P35-P86-601527

>  <inspiration_score>  (3769) 
None

$$$$
QSLFZPLLFQDFSH-UHFFFAOYSA-N-P35-P35-P86-601527
     RDKit          3D

 16 16  0  0  0  0  0  0  0  0999 V2000
   -3.0920    7.1673  -20.1825 C   0  0  0  0  0  0  0  0  0  0  0  0
   -4.0095    6.2783  -19.7801 C   0  0  0  0  0  0  0  0  0  0  0  0
   -3.7515    5.1939  -18.7656 C   0  0  0  0  0  0  0  0  0  0  0  0
   -4.5796    5.3627  -17.4787 C   0  0  0  0  0  0  0  0  0  0  0  0
   -4.1526    5.8356  -16.4977 O   0  0  0  0  0  0  0  0  0  0  0  0
   -6.0001    4.8120  -17.7974 N   0  0  0  0  0  0  0  0  0  0  0  0
   -7.1438    4.8185  -17.0474 C   0  0  0  0  0  0  0  0  0  0  0  0
   -8.4256    4.5996  -17.5107 C   0  0  0  0  0  0  0  0  0  0  0  0
   -8.8923    4.1977  -18.8417 C   0  0  0  0  0  0  0  0  0  0  0  0
   -9.3446    4.9154  -16.5524 N   0  0  0  0  0  0  0  0  0  0  0  0
   -8.6489    5.3579  -15.5311 C   0  0  0  0  0  0  0  0  0  0  0  0
   -9.1793    6.1262  -14.3819 C   0  0  0  0  0  0  0  0  0  0  0  0
   -7.3177    5.0512  -15.7013 N   0  0  0  0  0  0  0  0  0  0  0  0
   -6.4074    4.7414  -14.6094 C   0  0  0  0  0  0  0  0  0  0  0  0
   -7.0103    3.7394  -13.6102 C   0  0  0  0  0  0  0  0  0  0  0  0
   -5.8964    5.9807  -13.8836 C   0  0  0  0  0  0  0  0  0  0  0  0
  1  2  2  0
  2  3  1  0
  3  4  1  0
  4  5  2  0
  4  6  1  0
  6  7  1  0
  7  8  2  0
  8  9  1  0
  8 10  1  0
 10 11  2  0
 11 12  1  0
 11 13  1  0
 13 14  1  0
 14 15  1  0
 14 16  1  0
 13  7  1  0
M  END
>  <energy_score>  (3770) 
-28.975689

>  <alias>  (3770) 
QSLFZPLLFQDFSH-UHFFFAOYSA-N-P35-P35-P86-601527

>  <HIPPO Pose ID>  (3770) 
80029

>  <smiles>  (3770) 
C=CCC(=O)Nc1c(C)nc(C)n1C(C)C

>  <inchikey>  (3770) 
QSLFZPLLFQDFSH-UHFFFAOYSA-N

>  <distance_score>  (3770) 
1.644325

>  <ref_mols>  (3770) 
Z0719a,Z1597a

>  <ref_pdb>  (3770) 
Z0719a

>  <HIPPO Compound ID>  (3770) 
150800

>  <name>  (3770) 
QSLFZPLLFQDFSH-UHFFFAOYSA-N-P35-P35-P86-601527

>  <inspiration_score>  (3770) 
None

$$$$
ULLPESGSQDYTSY-UHFFFAOYSA-N-P86-P35-P86-601527
     RDKit          3D

 16 16  0  0  0  0  0  0  0  0999 V2000
   -7.9268    3.8225  -14.3213 C   0  0  0  0  0  0  0  0  0  0  0  0
   -8.0425    4.0618  -15.7973 C   0  0  0  0  0  0  0  0  0  0  0  0
   -8.9843    3.6077  -16.6014 N   0  0  0  0  0  0  0  0  0  0  0  0
   -8.6537    4.0452  -17.8555 C   0  0  0  0  0  0  0  0  0  0  0  0
   -7.4698    4.7495  -17.8404 C   0  0  0  0  0  0  0  0  0  0  0  0
   -6.7830    5.2372  -18.9205 N   0  0  0  0  0  0  0  0  0  0  0  0
   -5.2902    5.6674  -19.0608 C   0  0  0  0  0  0  0  0  0  0  0  0
   -4.4445    5.7422  -18.2561 O   0  0  0  0  0  0  0  0  0  0  0  0
   -5.0906    5.9891  -20.5280 C   0  0  0  0  0  0  0  0  0  0  0  0
   -3.6864    6.4644  -20.7859 C   0  0  0  0  0  0  0  0  0  0  0  0
   -3.4732    6.5157  -22.1298 F   0  0  0  0  0  0  0  0  0  0  0  0
   -3.5594    7.7461  -20.3470 F   0  0  0  0  0  0  0  0  0  0  0  0
   -7.1504    4.8473  -16.5050 N   0  0  0  0  0  0  0  0  0  0  0  0
   -6.1503    5.6972  -15.8889 C   0  0  0  0  0  0  0  0  0  0  0  0
   -6.5967    6.3165  -14.6306 C   0  0  0  0  0  0  0  0  0  0  0  0
   -7.0263    6.7212  -13.6295 N   0  0  0  0  0  0  0  0  0  0  0  0
  1  2  1  0
  2  3  2  0
  3  4  1  0
  4  5  2  0
  5  6  1  0
  6  7  1  0
  7  8  2  0
  7  9  1  0
  9 10  1  0
 10 11  1  0
 10 12  1  0
  5 13  1  0
 13 14  1  0
 14 15  1  0
 15 16  3  0
 13  2  1  0
M  END
>  <energy_score>  (3771) 
-14.067166

>  <alias>  (3771) 
ULLPESGSQDYTSY-UHFFFAOYSA-N-P86-P35-P86-601527

>  <HIPPO Pose ID>  (3771) 
80038

>  <smiles>  (3771) 
Cc1ncc(NC(=O)CC(F)F)n1CC#N

>  <inchikey>  (3771) 
ULLPESGSQDYTSY-UHFFFAOYSA-N

>  <distance_score>  (3771) 
1.797405

>  <ref_mols>  (3771) 
Z0719a,Z1597a

>  <ref_pdb>  (3771) 
Z0719a

>  <HIPPO Compound ID>  (3771) 
150804

>  <name>  (3771) 
ULLPESGSQDYTSY-UHFFFAOYSA-N-P86-P35-P86-601527

>  <inspiration_score>  (3771) 
None

$$$$
OIUWBGZNAWWDOV-UHFFFAOYSA-N-P35-P35-P86-601527
     RDKit          3D

 16 16  0  0  0  0  0  0  0  0999 V2000
   -5.1422    8.6926  -21.2156 C   0  0  0  0  0  0  0  0  0  0  0  0
   -4.9618    7.3965  -20.9264 C   0  0  0  0  0  0  0  0  0  0  0  0
   -3.7417    6.8696  -20.2483 C   0  0  0  0  0  0  0  0  0  0  0  0
   -3.8377    5.9225  -19.0351 C   0  0  0  0  0  0  0  0  0  0  0  0
   -2.8706    5.3546  -18.6911 O   0  0  0  0  0  0  0  0  0  0  0  0
   -5.2558    5.9743  -18.3991 N   0  0  0  0  0  0  0  0  0  0  0  0
   -5.7676    5.3093  -17.3367 C   0  0  0  0  0  0  0  0  0  0  0  0
   -5.0586    4.4802  -16.5164 C   0  0  0  0  0  0  0  0  0  0  0  0
   -5.8932    4.1871  -15.4709 N   0  0  0  0  0  0  0  0  0  0  0  0
   -5.4038    3.6275  -14.2188 C   0  0  0  0  0  0  0  0  0  0  0  0
   -6.3941    2.9075  -13.3474 C   0  0  0  0  0  0  0  0  0  0  0  0
   -5.8662    2.7503  -12.1083 F   0  0  0  0  0  0  0  0  0  0  0  0
   -6.7079    1.6787  -13.7967 F   0  0  0  0  0  0  0  0  0  0  0  0
   -7.5198    3.6260  -13.2113 F   0  0  0  0  0  0  0  0  0  0  0  0
   -7.1106    4.7342  -15.7836 C   0  0  0  0  0  0  0  0  0  0  0  0
   -7.0388    5.4713  -16.8793 N   0  0  0  0  0  0  0  0  0  0  0  0
  1  2  2  0
  2  3  1  0
  3  4  1  0
  4  5  2  0
  4  6  1  0
  6  7  1  0
  7  8  2  0
  8  9  1  0
  9 10  1  0
 10 11  1  0
 11 12  1  0
 11 13  1  0
 11 14  1  0
  9 15  1  0
 15 16  2  0
 16  7  1  0
M  END
>  <energy_score>  (3772) 
-0.996685

>  <alias>  (3772) 
OIUWBGZNAWWDOV-UHFFFAOYSA-N-P35-P35-P86-601527

>  <HIPPO Pose ID>  (3772) 
80047

>  <smiles>  (3772) 
C=CCC(=O)Nc1cn(CC(F)(F)F)cn1

>  <inchikey>  (3772) 
OIUWBGZNAWWDOV-UHFFFAOYSA-N

>  <distance_score>  (3772) 
1.852617

>  <ref_mols>  (3772) 
Z0719a,Z1597a

>  <ref_pdb>  (3772) 
Z0719a

>  <HIPPO Compound ID>  (3772) 
150809

>  <name>  (3772) 
OIUWBGZNAWWDOV-UHFFFAOYSA-N-P35-P35-P86-601527

>  <inspiration_score>  (3772) 
None

$$$$
LJCBZUCGHPHSPA-UHFFFAOYSA-N-P86-P35-P86-601527
     RDKit          3D

 16 17  0  0  0  0  0  0  0  0999 V2000
   -3.2578    2.2314  -12.6665 C   0  0  0  0  0  0  0  0  0  0  0  0
   -4.6405    2.3854  -12.3752 O   0  0  0  0  0  0  0  0  0  0  0  0
   -4.8978    3.1768  -11.2925 C   0  0  0  0  0  0  0  0  0  0  0  0
   -4.0287    3.7343  -10.6250 O   0  0  0  0  0  0  0  0  0  0  0  0
   -6.3162    3.1966  -10.9610 C   0  0  0  0  0  0  0  0  0  0  0  0
   -6.7561    2.9520   -9.6671 N   0  0  0  0  0  0  0  0  0  0  0  0
   -8.0601    2.8611   -9.7435 C   0  0  0  0  0  0  0  0  0  0  0  0
   -8.4998    3.1425  -11.0020 N   0  0  0  0  0  0  0  0  0  0  0  0
   -7.4100    3.4826  -11.7656 C   0  0  0  0  0  0  0  0  0  0  0  0
   -7.5694    4.0931  -12.9777 N   0  0  0  0  0  0  0  0  0  0  0  0
   -6.5260    4.6617  -13.9553 C   0  0  0  0  0  0  0  0  0  0  0  0
   -5.3623    4.6315  -13.9196 O   0  0  0  0  0  0  0  0  0  0  0  0
   -7.1869    5.4306  -15.0266 C   0  0  1  0  0  0  0  0  0  0  0  0
   -6.8860    5.3082  -16.4854 C   0  0  0  0  0  0  0  0  0  0  0  0
   -8.2561    4.9764  -15.9474 C   0  0  1  0  0  0  0  0  0  0  0  0
   -8.8459    3.4509  -16.4122 Cl  0  0  0  0  0  0  0  0  0  0  0  0
  1  2  1  0
  2  3  1  0
  3  4  2  0
  3  5  1  0
  5  6  1  0
  6  7  2  0
  7  8  1  0
  8  9  1  0
  9 10  1  0
 10 11  1  0
 11 12  2  0
 13 11  1  1
 13 14  1  0
 14 15  1  0
 15 16  1  1
  9  5  2  0
 15 13  1  0
M  END
>  <energy_score>  (3773) 
-7.886393

>  <alias>  (3773) 
LJCBZUCGHPHSPA-UHFFFAOYSA-N-P86-P35-P86-601527

>  <HIPPO Pose ID>  (3773) 
80054

>  <smiles>  (3773) 
COC(=O)c1nc[nH]c1NC(=O)C1CC1Cl

>  <inchikey>  (3773) 
LJCBZUCGHPHSPA-UHFFFAOYSA-N

>  <distance_score>  (3773) 
1.603491

>  <ref_mols>  (3773) 
Z0719a,Z1597a

>  <ref_pdb>  (3773) 
Z0719a

>  <HIPPO Compound ID>  (3773) 
150812

>  <name>  (3773) 
LJCBZUCGHPHSPA-UHFFFAOYSA-N-P86-P35-P86-601527

>  <inspiration_score>  (3773) 
None

$$$$
UNQPNHSSZUKVOH-UHFFFAOYSA-N-P86-P35-P86-601527
     RDKit          3D

 16 17  0  0  0  0  0  0  0  0999 V2000
   -5.7760    1.5468  -12.0637 C   0  0  0  0  0  0  0  0  0  0  0  0
   -5.2420    2.9507  -11.8536 C   0  0  0  0  0  0  0  0  0  0  0  0
   -3.7197    2.9090  -11.8672 C   0  0  0  0  0  0  0  0  0  0  0  0
   -5.7901    3.5468  -10.5222 C   0  0  0  0  0  0  0  0  0  0  0  0
   -7.1591    4.0307  -10.7053 N   0  0  0  0  0  0  0  0  0  0  0  0
   -8.2633    3.2178  -10.6753 C   0  0  0  0  0  0  0  0  0  0  0  0
   -8.9583    3.3732  -11.7852 N   0  0  0  0  0  0  0  0  0  0  0  0
   -8.3235    4.3735  -12.4470 C   0  0  0  0  0  0  0  0  0  0  0  0
   -8.4286    4.5386  -13.7836 N   0  0  0  0  0  0  0  0  0  0  0  0
   -7.5553    5.3385  -14.7621 C   0  0  0  0  0  0  0  0  0  0  0  0
   -6.6509    6.0454  -14.5631 O   0  0  0  0  0  0  0  0  0  0  0  0
   -8.0520    5.2005  -16.1536 C   0  0  1  0  0  0  0  0  0  0  0  0
   -7.1139    5.6936  -17.2707 C   0  0  0  0  0  0  0  0  0  0  0  0
   -7.5123    4.2750  -17.1875 C   0  0  2  0  0  0  0  0  0  0  0  0
   -8.5946    3.6796  -18.4212 Cl  0  0  0  0  0  0  0  0  0  0  0  0
   -7.4179    5.0133  -11.6379 C   0  0  0  0  0  0  0  0  0  0  0  0
  1  2  1  0
  2  3  1  0
  2  4  1  0
  4  5  1  0
  5  6  1  0
  6  7  2  0
  7  8  1  0
  8  9  1  0
  9 10  1  0
 10 11  2  0
 12 10  1  1
 12 13  1  0
 13 14  1  0
 14 15  1  6
  8 16  2  0
 16  5  1  0
 14 12  1  0
M  END
>  <energy_score>  (3774) 
-13.766427

>  <alias>  (3774) 
UNQPNHSSZUKVOH-UHFFFAOYSA-N-P86-P35-P86-601527

>  <HIPPO Pose ID>  (3774) 
80056

>  <smiles>  (3774) 
CC(C)Cn1cnc(NC(=O)C2CC2Cl)c1

>  <inchikey>  (3774) 
UNQPNHSSZUKVOH-UHFFFAOYSA-N

>  <distance_score>  (3774) 
1.30293

>  <ref_mols>  (3774) 
Z0719a,Z1597a

>  <ref_pdb>  (3774) 
Z0719a

>  <HIPPO Compound ID>  (3774) 
150813

>  <name>  (3774) 
UNQPNHSSZUKVOH-UHFFFAOYSA-N-P86-P35-P86-601527

>  <inspiration_score>  (3774) 
None

$$$$
SRTMPSVYXBHWOG-UHFFFAOYSA-N-P86-P35-P86-601527
     RDKit          3D

 16 18  0  0  0  0  0  0  0  0999 V2000
   -3.2688    6.5872  -19.4619 O   0  0  0  0  0  0  0  0  0  0  0  0
   -4.0480    6.2593  -20.2715 C   0  0  0  0  0  0  0  0  0  0  0  0
   -5.3935    5.5185  -20.1228 N   0  0  0  0  0  0  0  0  0  0  0  0
   -6.0672    5.1336  -19.0149 C   0  0  0  0  0  0  0  0  0  0  0  0
   -7.2226    4.3944  -19.0122 C   0  0  0  0  0  0  0  0  0  0  0  0
   -7.6363    4.3948  -17.7216 N   0  0  0  0  0  0  0  0  0  0  0  0
   -8.8135    3.8972  -17.2843 N   0  0  0  0  0  0  0  0  0  0  0  0
   -8.9546    4.0723  -16.0148 C   0  0  0  0  0  0  0  0  0  0  0  0
   -7.9896    4.6842  -15.0750 C   0  0  0  0  0  0  0  0  0  0  0  0
   -6.8592    5.1617  -15.5985 C   0  0  0  0  0  0  0  0  0  0  0  0
   -6.6629    5.0574  -16.9892 C   0  0  0  0  0  0  0  0  0  0  0  0
   -5.7007    5.5149  -17.7598 N   0  0  0  0  0  0  0  0  0  0  0  0
   -3.8530    6.5706  -21.7956 C   0  0  2  0  0  0  0  0  0  0  0  0
   -3.8233    8.0507  -22.1825 C   0  0  0  0  0  0  0  0  0  0  0  0
   -4.8863    7.6809  -23.2067 C   0  0  0  0  0  0  0  0  0  0  0  0
   -5.0369    6.3623  -22.6388 O   0  0  0  0  0  0  0  0  0  0  0  0
  1  2  2  0
  2  3  1  0
  3  4  1  0
  4  5  2  0
  5  6  1  0
  6  7  1  0
  7  8  2  0
  8  9  1  0
  9 10  2  0
 10 11  1  0
 11 12  2  0
 13  2  1  1
 13 14  1  0
 14 15  1  0
 15 16  1  0
 12  4  1  0
 16 13  1  0
 11  6  1  0
M  END
>  <energy_score>  (3775) 
-34.511359

>  <alias>  (3775) 
SRTMPSVYXBHWOG-UHFFFAOYSA-N-P86-P35-P86-601527

>  <HIPPO Pose ID>  (3775) 
80084

>  <smiles>  (3775) 
O=C(Nc1cn2ncccc2n1)C1CCO1

>  <inchikey>  (3775) 
SRTMPSVYXBHWOG-UHFFFAOYSA-N

>  <distance_score>  (3775) 
1.7339

>  <ref_mols>  (3775) 
Z0719a,Z1597a

>  <ref_pdb>  (3775) 
Z0719a

>  <HIPPO Compound ID>  (3775) 
150827

>  <name>  (3775) 
SRTMPSVYXBHWOG-UHFFFAOYSA-N-P86-P35-P86-601527

>  <inspiration_score>  (3775) 
None

$$$$
LYUHTIZXDDVQIU-UHFFFAOYSA-N-P86-P35-P86-601527
     RDKit          3D

 16 18  0  0  0  0  0  0  0  0999 V2000
   -3.3628    7.0353  -19.2911 O   0  0  0  0  0  0  0  0  0  0  0  0
   -4.0947    6.5428  -20.0642 C   0  0  0  0  0  0  0  0  0  0  0  0
   -5.4387    5.7894  -19.8420 N   0  0  0  0  0  0  0  0  0  0  0  0
   -6.0663    5.4291  -18.6968 C   0  0  0  0  0  0  0  0  0  0  0  0
   -7.2289    4.7036  -18.5976 C   0  0  0  0  0  0  0  0  0  0  0  0
   -7.4941    4.6633  -17.2587 N   0  0  0  0  0  0  0  0  0  0  0  0
   -8.5971    4.1842  -16.5778 C   0  0  0  0  0  0  0  0  0  0  0  0
   -8.6233    4.3143  -15.2475 C   0  0  0  0  0  0  0  0  0  0  0  0
   -7.4167    4.9068  -14.6265 C   0  0  0  0  0  0  0  0  0  0  0  0
   -6.3908    5.3877  -15.2472 N   0  0  0  0  0  0  0  0  0  0  0  0
   -6.4343    5.2956  -16.6064 C   0  0  0  0  0  0  0  0  0  0  0  0
   -5.5890    5.7916  -17.4808 N   0  0  0  0  0  0  0  0  0  0  0  0
   -3.7931    6.5489  -21.6080 C   0  0  1  0  0  0  0  0  0  0  0  0
   -4.9302    6.9151  -22.5748 C   0  0  0  0  0  0  0  0  0  0  0  0
   -3.8986    7.8100  -23.2441 C   0  0  0  0  0  0  0  0  0  0  0  0
   -3.0250    7.7053  -22.0979 O   0  0  0  0  0  0  0  0  0  0  0  0
  1  2  2  0
  2  3  1  0
  3  4  1  0
  4  5  2  0
  5  6  1  0
  6  7  1  0
  7  8  2  0
  8  9  1  0
  9 10  2  0
 10 11  1  0
 11 12  2  0
 13  2  1  1
 13 14  1  0
 14 15  1  0
 15 16  1  0
 12  4  1  0
 16 13  1  0
 11  6  1  0
M  END
>  <energy_score>  (3776) 
-31.452678

>  <alias>  (3776) 
LYUHTIZXDDVQIU-UHFFFAOYSA-N-P86-P35-P86-601527

>  <HIPPO Pose ID>  (3776) 
80086

>  <smiles>  (3776) 
O=C(Nc1cn2cccnc2n1)C1CCO1

>  <inchikey>  (3776) 
LYUHTIZXDDVQIU-UHFFFAOYSA-N

>  <distance_score>  (3776) 
1.611127

>  <ref_mols>  (3776) 
Z0719a,Z1597a

>  <ref_pdb>  (3776) 
Z0719a

>  <HIPPO Compound ID>  (3776) 
150828

>  <name>  (3776) 
LYUHTIZXDDVQIU-UHFFFAOYSA-N-P86-P35-P86-601527

>  <inspiration_score>  (3776) 
None

$$$$
USGGBHCQCZZUFI-UHFFFAOYSA-N-P86-P35-P86-601527
     RDKit          3D

 16 17  0  0  0  0  0  0  0  0999 V2000
   -3.8076    3.1039  -12.1314 C   0  0  0  0  0  0  0  0  0  0  0  0
   -5.3291    3.1266  -12.0325 C   0  0  0  0  0  0  0  0  0  0  0  0
   -5.8418    1.6934  -12.0245 C   0  0  0  0  0  0  0  0  0  0  0  0
   -5.7980    3.8995  -10.7603 C   0  0  0  0  0  0  0  0  0  0  0  0
   -7.2005    4.3058  -10.8698 N   0  0  0  0  0  0  0  0  0  0  0  0
   -8.2443    3.4449  -10.6486 C   0  0  0  0  0  0  0  0  0  0  0  0
   -9.0094    3.4099  -11.7190 N   0  0  0  0  0  0  0  0  0  0  0  0
   -8.5021    4.3690  -12.5409 C   0  0  0  0  0  0  0  0  0  0  0  0
   -8.5926    4.2279  -13.8828 N   0  0  0  0  0  0  0  0  0  0  0  0
   -7.8650    4.9820  -15.0268 C   0  0  0  0  0  0  0  0  0  0  0  0
   -7.1309    5.8970  -14.9883 O   0  0  0  0  0  0  0  0  0  0  0  0
   -8.1757    4.2386  -16.3608 C   0  0  2  0  0  0  0  0  0  0  0  0
   -7.4607    4.7029  -17.6402 C   0  0  0  0  0  0  0  0  0  0  0  0
   -8.7927    4.3574  -18.2988 C   0  0  0  0  0  0  0  0  0  0  0  0
   -9.4642    4.4524  -17.0028 O   0  0  0  0  0  0  0  0  0  0  0  0
   -7.6015    5.1682  -11.8782 C   0  0  0  0  0  0  0  0  0  0  0  0
  1  2  1  0
  2  3  1  0
  2  4  1  0
  4  5  1  0
  5  6  1  0
  6  7  2  0
  7  8  1  0
  8  9  1  0
  9 10  1  0
 10 11  2  0
 12 10  1  1
 12 13  1  0
 13 14  1  0
 14 15  1  0
  8 16  2  0
 16  5  1  0
 15 12  1  0
M  END
>  <energy_score>  (3777) 
-17.30611

>  <alias>  (3777) 
USGGBHCQCZZUFI-UHFFFAOYSA-N-P86-P35-P86-601527

>  <HIPPO Pose ID>  (3777) 
80090

>  <smiles>  (3777) 
CC(C)Cn1cnc(NC(=O)C2CCO2)c1

>  <inchikey>  (3777) 
USGGBHCQCZZUFI-UHFFFAOYSA-N

>  <distance_score>  (3777) 
1.286946

>  <ref_mols>  (3777) 
Z0719a,Z1597a

>  <ref_pdb>  (3777) 
Z0719a

>  <HIPPO Compound ID>  (3777) 
150830

>  <name>  (3777) 
USGGBHCQCZZUFI-UHFFFAOYSA-N-P86-P35-P86-601527

>  <inspiration_score>  (3777) 
None

$$$$
FQQNQQNOIMLQBD-UHFFFAOYSA-N-P35-P35-P86-601527
     RDKit          3D

 16 18  0  0  0  0  0  0  0  0999 V2000
   -3.8544    6.9906  -19.6736 O   0  0  0  0  0  0  0  0  0  0  0  0
   -4.8356    6.7982  -20.2717 C   0  0  0  0  0  0  0  0  0  0  0  0
   -6.1038    6.0285  -19.8818 N   0  0  0  0  0  0  0  0  0  0  0  0
   -6.4532    5.4490  -18.7164 C   0  0  0  0  0  0  0  0  0  0  0  0
   -7.6604    4.8351  -18.4892 C   0  0  0  0  0  0  0  0  0  0  0  0
   -7.6922    4.6379  -17.1468 N   0  0  0  0  0  0  0  0  0  0  0  0
   -8.7926    4.3021  -16.4306 N   0  0  0  0  0  0  0  0  0  0  0  0
   -8.5598    4.3217  -15.1598 C   0  0  0  0  0  0  0  0  0  0  0  0
   -7.2596    4.5662  -14.4984 C   0  0  0  0  0  0  0  0  0  0  0  0
   -6.2309    4.9071  -15.2761 C   0  0  0  0  0  0  0  0  0  0  0  0
   -6.4478    5.0159  -16.6611 C   0  0  0  0  0  0  0  0  0  0  0  0
   -5.6768    5.5036  -17.6045 N   0  0  0  0  0  0  0  0  0  0  0  0
   -4.9868    7.3922  -21.6340 C   0  0  2  0  0  0  0  0  0  0  0  0
   -3.7652    7.7129  -22.4581 C   0  0  0  0  0  0  0  0  0  0  0  0
   -4.5693    8.8207  -21.8432 C   0  0  1  0  0  0  0  0  0  0  0  0
   -5.5559    9.8440  -22.8556 Cl  0  0  0  0  0  0  0  0  0  0  0  0
  1  2  2  0
  2  3  1  0
  3  4  1  0
  4  5  2  0
  5  6  1  0
  6  7  1  0
  7  8  2  0
  8  9  1  0
  9 10  2  0
 10 11  1  0
 11 12  2  0
 13  2  1  1
 13 14  1  0
 14 15  1  0
 15 16  1  6
 12  4  1  0
 15 13  1  0
 11  6  1  0
M  END
>  <energy_score>  (3778) 
-35.32539

>  <alias>  (3778) 
FQQNQQNOIMLQBD-UHFFFAOYSA-N-P35-P35-P86-601527

>  <HIPPO Pose ID>  (3778) 
80103

>  <smiles>  (3778) 
O=C(Nc1cn2ncccc2n1)C1CC1Cl

>  <inchikey>  (3778) 
FQQNQQNOIMLQBD-UHFFFAOYSA-N

>  <distance_score>  (3778) 
1.752031

>  <ref_mols>  (3778) 
Z0719a,Z1597a

>  <ref_pdb>  (3778) 
Z0719a

>  <HIPPO Compound ID>  (3778) 
150837

>  <name>  (3778) 
FQQNQQNOIMLQBD-UHFFFAOYSA-N-P35-P35-P86-601527

>  <inspiration_score>  (3778) 
None

$$$$
HXBPSCQNODCKFY-UHFFFAOYSA-N-P35-P35-P86-601527
     RDKit          3D

 16 16  0  0  0  0  0  0  0  0999 V2000
   -7.5977    3.3190  -14.3293 C   0  0  0  0  0  0  0  0  0  0  0  0
   -7.9225    3.9409  -15.6638 C   0  0  0  0  0  0  0  0  0  0  0  0
   -8.7869    3.5632  -16.5926 N   0  0  0  0  0  0  0  0  0  0  0  0
   -8.4403    4.2665  -17.7266 C   0  0  0  0  0  0  0  0  0  0  0  0
   -7.3798    5.1063  -17.4619 C   0  0  0  0  0  0  0  0  0  0  0  0
   -6.5097    5.7040  -18.3284 N   0  0  0  0  0  0  0  0  0  0  0  0
   -5.2672    6.6112  -18.0536 C   0  0  0  0  0  0  0  0  0  0  0  0
   -4.8510    7.0444  -17.0464 O   0  0  0  0  0  0  0  0  0  0  0  0
   -4.5109    6.8082  -19.3940 C   0  0  0  0  0  0  0  0  0  0  0  0
   -3.4348    7.8834  -19.2924 C   0  0  0  0  0  0  0  0  0  0  0  0
   -3.8060    5.4821  -19.6921 C   0  0  0  0  0  0  0  0  0  0  0  0
   -5.5972    7.3684  -20.7432 S   0  0  0  0  0  0  0  0  0  0  0  0
   -7.3028    5.0912  -16.0959 N   0  0  0  0  0  0  0  0  0  0  0  0
   -6.8252    6.1160  -15.2007 C   0  0  0  0  0  0  0  0  0  0  0  0
   -7.6930    6.2574  -14.0223 C   0  0  0  0  0  0  0  0  0  0  0  0
   -8.3938    6.3082  -13.0974 N   0  0  0  0  0  0  0  0  0  0  0  0
  1  2  1  0
  2  3  2  0
  3  4  1  0
  4  5  2  0
  5  6  1  0
  6  7  1  0
  7  8  2  0
  7  9  1  0
  9 10  1  0
  9 11  1  0
  9 12  1  0
  5 13  1  0
 13 14  1  0
 14 15  1  0
 15 16  3  0
 13  2  1  0
M  END
>  <energy_score>  (3779) 
-14.8092

>  <alias>  (3779) 
HXBPSCQNODCKFY-UHFFFAOYSA-N-P35-P35-P86-601527

>  <HIPPO Pose ID>  (3779) 
80113

>  <smiles>  (3779) 
Cc1ncc(NC(=O)C(C)(C)S)n1CC#N

>  <inchikey>  (3779) 
HXBPSCQNODCKFY-UHFFFAOYSA-N

>  <distance_score>  (3779) 
1.967063

>  <ref_mols>  (3779) 
Z0719a,Z1597a

>  <ref_pdb>  (3779) 
Z0719a

>  <HIPPO Compound ID>  (3779) 
150842

>  <name>  (3779) 
HXBPSCQNODCKFY-UHFFFAOYSA-N-P35-P35-P86-601527

>  <inspiration_score>  (3779) 
None

$$$$
DPYMLGVIDODCIQ-UHFFFAOYSA-N-P86-P35-P86-601527
     RDKit          3D

 16 17  0  0  0  0  0  0  0  0999 V2000
   -3.9015    6.7265  -21.5606 C   0  0  0  0  0  0  0  0  0  0  0  0
   -2.8174    6.6140  -20.4811 C   0  0  0  0  0  0  0  0  0  0  0  0
   -2.1383    5.2417  -20.5007 C   0  0  0  0  0  0  0  0  0  0  0  0
   -1.5228    7.8717  -20.9089 S   0  0  0  0  0  0  0  0  0  0  0  0
   -3.3939    6.9421  -19.0597 C   0  0  0  0  0  0  0  0  0  0  0  0
   -3.0104    7.8394  -18.4119 O   0  0  0  0  0  0  0  0  0  0  0  0
   -4.5318    5.9125  -18.7858 N   0  0  0  0  0  0  0  0  0  0  0  0
   -5.3098    5.7333  -17.6939 C   0  0  0  0  0  0  0  0  0  0  0  0
   -6.3173    4.8110  -17.6356 C   0  0  0  0  0  0  0  0  0  0  0  0
   -6.9370    5.0378  -16.4424 N   0  0  0  0  0  0  0  0  0  0  0  0
   -8.1984    4.4906  -15.9684 C   0  0  0  0  0  0  0  0  0  0  0  0
   -8.9771    3.7516  -17.0206 C   0  0  0  0  0  0  0  0  0  0  0  0
  -10.2972    4.2558  -17.5507 C   0  0  0  0  0  0  0  0  0  0  0  0
   -9.1235    4.2230  -18.4583 C   0  0  0  0  0  0  0  0  0  0  0  0
   -6.1960    5.9752  -15.7799 C   0  0  0  0  0  0  0  0  0  0  0  0
   -5.2312    6.4443  -16.5403 N   0  0  0  0  0  0  0  0  0  0  0  0
  1  2  1  0
  2  3  1  0
  2  4  1  0
  2  5  1  0
  5  6  2  0
  5  7  1  0
  7  8  1  0
  8  9  2  0
  9 10  1  0
 10 11  1  0
 11 12  1  0
 12 13  1  0
 13 14  1  0
 10 15  1  0
 15 16  2  0
 16  8  1  0
 14 12  1  0
M  END
>  <energy_score>  (3780) 
-26.43235

>  <alias>  (3780) 
DPYMLGVIDODCIQ-UHFFFAOYSA-N-P86-P35-P86-601527

>  <HIPPO Pose ID>  (3780) 
80116

>  <smiles>  (3780) 
CC(C)(S)C(=O)Nc1cn(CC2CC2)cn1

>  <inchikey>  (3780) 
DPYMLGVIDODCIQ-UHFFFAOYSA-N

>  <distance_score>  (3780) 
1.866168

>  <ref_mols>  (3780) 
Z0719a,Z1597a

>  <ref_pdb>  (3780) 
Z0719a

>  <HIPPO Compound ID>  (3780) 
150843

>  <name>  (3780) 
DPYMLGVIDODCIQ-UHFFFAOYSA-N-P86-P35-P86-601527

>  <inspiration_score>  (3780) 
None

$$$$
FXCOFKOTCZLBRK-UHFFFAOYSA-N-P86-P35-P86-601527
     RDKit          3D

 16 17  0  0  0  0  0  0  0  0999 V2000
   -6.7906    2.2344  -10.4975 C   0  0  0  0  0  0  0  0  0  0  0  0
   -7.4466    3.2472  -11.3373 C   0  0  0  0  0  0  0  0  0  0  0  0
   -7.6767    3.0753  -12.6112 N   0  0  0  0  0  0  0  0  0  0  0  0
   -7.7803    4.3262  -13.1214 C   0  0  0  0  0  0  0  0  0  0  0  0
   -7.5853    4.3806  -14.4546 N   0  0  0  0  0  0  0  0  0  0  0  0
   -7.0074    5.5017  -15.3359 C   0  0  0  0  0  0  0  0  0  0  0  0
   -6.6786    6.5877  -15.0605 O   0  0  0  0  0  0  0  0  0  0  0  0
   -6.8314    4.8423  -16.7458 C   0  0  2  0  0  0  0  0  0  0  0  0
   -6.8324    5.6191  -18.0470 C   0  0  0  0  0  0  0  0  0  0  0  0
   -7.8919    4.6170  -18.4978 C   0  0  0  0  0  0  0  0  0  0  0  0
   -7.9899    4.0594  -17.1664 O   0  0  0  0  0  0  0  0  0  0  0  0
   -7.9136    5.2625  -12.1241 C   0  0  0  0  0  0  0  0  0  0  0  0
   -8.1298    6.6607  -12.2027 C   0  0  0  0  0  0  0  0  0  0  0  0
   -8.3323    7.8039  -12.1971 N   0  0  0  0  0  0  0  0  0  0  0  0
   -7.7871    4.5247  -10.9625 N   0  0  0  0  0  0  0  0  0  0  0  0
   -7.8815    5.0240   -9.6146 C   0  0  0  0  0  0  0  0  0  0  0  0
  1  2  1  0
  2  3  2  0
  3  4  1  0
  4  5  1  0
  5  6  1  0
  6  7  2  0
  8  6  1  1
  8  9  1  0
  9 10  1  0
 10 11  1  0
  4 12  2  0
 12 13  1  0
 13 14  3  0
 12 15  1  0
 15 16  1  0
 15  2  1  0
 11  8  1  0
M  END
>  <energy_score>  (3781) 
-13.848073

>  <alias>  (3781) 
FXCOFKOTCZLBRK-UHFFFAOYSA-N-P86-P35-P86-601527

>  <HIPPO Pose ID>  (3781) 
80124

>  <smiles>  (3781) 
Cc1nc(NC(=O)C2CCO2)c(C#N)n1C

>  <inchikey>  (3781) 
FXCOFKOTCZLBRK-UHFFFAOYSA-N

>  <distance_score>  (3781) 
1.745475

>  <ref_mols>  (3781) 
Z0719a,Z1597a

>  <ref_pdb>  (3781) 
Z0719a

>  <HIPPO Compound ID>  (3781) 
150847

>  <name>  (3781) 
FXCOFKOTCZLBRK-UHFFFAOYSA-N-P86-P35-P86-601527

>  <inspiration_score>  (3781) 
None

$$$$
YJAIXZNZWQQOKG-UHFFFAOYSA-N-P35-P35-P86-601527
     RDKit          3D

 16 16  0  0  0  0  0  0  0  0999 V2000
   -4.2202    6.2491  -18.5644 O   0  0  0  0  0  0  0  0  0  0  0  0
   -5.2547    6.2512  -19.1106 C   0  0  0  0  0  0  0  0  0  0  0  0
   -5.5004    6.9915  -20.4174 C   0  0  0  0  0  0  0  0  0  0  0  0
   -4.2104    7.2777  -21.1723 C   0  0  0  0  0  0  0  0  0  0  0  0
   -3.4522    8.8636  -20.6901 S   0  0  0  0  0  0  0  0  0  0  0  0
   -6.6246    5.6537  -18.6774 N   0  0  0  0  0  0  0  0  0  0  0  0
   -6.9962    5.0572  -17.5220 C   0  0  0  0  0  0  0  0  0  0  0  0
   -6.1887    4.7461  -16.4615 C   0  0  0  0  0  0  0  0  0  0  0  0
   -7.0300    4.2767  -15.4911 N   0  0  0  0  0  0  0  0  0  0  0  0
   -6.6988    4.0962  -14.0939 C   0  0  0  0  0  0  0  0  0  0  0  0
   -5.8301    2.9297  -13.7440 C   0  0  0  0  0  0  0  0  0  0  0  0
   -5.4248    3.0840  -12.4657 F   0  0  0  0  0  0  0  0  0  0  0  0
   -4.7036    2.8740  -14.4839 F   0  0  0  0  0  0  0  0  0  0  0  0
   -6.4755    1.7491  -13.8128 F   0  0  0  0  0  0  0  0  0  0  0  0
   -8.2932    4.2994  -16.0190 C   0  0  0  0  0  0  0  0  0  0  0  0
   -8.2939    4.7704  -17.2471 N   0  0  0  0  0  0  0  0  0  0  0  0
  1  2  2  0
  2  3  1  0
  3  4  1  0
  4  5  1  0
  2  6  1  0
  6  7  1  0
  7  8  2  0
  8  9  1  0
  9 10  1  0
 10 11  1  0
 11 12  1  0
 11 13  1  0
 11 14  1  0
  9 15  1  0
 15 16  2  0
 16  7  1  0
M  END
>  <energy_score>  (3782) 
-8.243253

>  <alias>  (3782) 
YJAIXZNZWQQOKG-UHFFFAOYSA-N-P35-P35-P86-601527

>  <HIPPO Pose ID>  (3782) 
80131

>  <smiles>  (3782) 
O=C(CCS)Nc1cn(CC(F)(F)F)cn1

>  <inchikey>  (3782) 
YJAIXZNZWQQOKG-UHFFFAOYSA-N

>  <distance_score>  (3782) 
1.855282

>  <ref_mols>  (3782) 
Z0719a,Z1597a

>  <ref_pdb>  (3782) 
Z0719a

>  <HIPPO Compound ID>  (3782) 
150851

>  <name>  (3782) 
YJAIXZNZWQQOKG-UHFFFAOYSA-N-P35-P35-P86-601527

>  <inspiration_score>  (3782) 
None

$$$$
BNNZUXCVHLGPJU-UHFFFAOYSA-N-P86-P35-P86-601527
     RDKit          3D

 16 17  0  0  0  0  0  0  0  0999 V2000
   -6.1686    2.1564  -10.4720 C   0  0  0  0  0  0  0  0  0  0  0  0
   -7.0487    3.1024  -11.1896 C   0  0  0  0  0  0  0  0  0  0  0  0
   -7.4387    2.9212  -12.4256 N   0  0  0  0  0  0  0  0  0  0  0  0
   -7.7366    4.1565  -12.8839 C   0  0  0  0  0  0  0  0  0  0  0  0
   -7.7702    4.2816  -14.2249 N   0  0  0  0  0  0  0  0  0  0  0  0
   -7.4217    5.4668  -15.1193 C   0  0  0  0  0  0  0  0  0  0  0  0
   -7.1217    6.5549  -14.8451 O   0  0  0  0  0  0  0  0  0  0  0  0
   -7.5082    4.9947  -16.5271 C   0  0  0  0  0  0  0  0  0  0  0  0
   -8.3710    4.1519  -17.1238 C   0  0  0  0  0  0  0  0  0  0  0  0
   -7.8394    4.4632  -18.5030 C   0  0  0  0  0  0  0  0  0  0  0  0
   -6.7855    5.3408  -17.7947 C   0  0  0  0  0  0  0  0  0  0  0  0
   -7.8191    5.0671  -11.8581 C   0  0  0  0  0  0  0  0  0  0  0  0
   -8.1650    6.4426  -11.8735 C   0  0  0  0  0  0  0  0  0  0  0  0
   -8.4520    7.5656  -11.8048 N   0  0  0  0  0  0  0  0  0  0  0  0
   -7.4896    4.3259  -10.7410 N   0  0  0  0  0  0  0  0  0  0  0  0
   -7.5218    4.7976   -9.3820 C   0  0  0  0  0  0  0  0  0  0  0  0
  1  2  1  0
  2  3  2  0
  3  4  1  0
  4  5  1  0
  5  6  1  0
  6  7  2  0
  6  8  1  0
  8  9  2  0
  9 10  1  0
 10 11  1  0
  4 12  2  0
 12 13  1  0
 13 14  3  0
 12 15  1  0
 15 16  1  0
 15  2  1  0
 11  8  1  0
M  END
>  <energy_score>  (3783) 
-16.040508

>  <alias>  (3783) 
BNNZUXCVHLGPJU-UHFFFAOYSA-N-P86-P35-P86-601527

>  <HIPPO Pose ID>  (3783) 
80146

>  <smiles>  (3783) 
Cc1nc(NC(=O)C2=CCC2)c(C#N)n1C

>  <inchikey>  (3783) 
BNNZUXCVHLGPJU-UHFFFAOYSA-N

>  <distance_score>  (3783) 
1.662738

>  <ref_mols>  (3783) 
Z0719a,Z1597a

>  <ref_pdb>  (3783) 
Z0719a

>  <HIPPO Compound ID>  (3783) 
150858

>  <name>  (3783) 
BNNZUXCVHLGPJU-UHFFFAOYSA-N-P86-P35-P86-601527

>  <inspiration_score>  (3783) 
None

$$$$
IHXVOBWXXNEDKG-UHFFFAOYSA-N-P35-P35-P86-601527
     RDKit          3D

 16 17  0  0  0  0  0  0  0  0999 V2000
   -7.4843    3.2636   -9.3951 C   0  0  0  0  0  0  0  0  0  0  0  0
   -7.6211    4.1687  -10.5624 C   0  0  0  0  0  0  0  0  0  0  0  0
   -8.1201    5.3888  -10.5015 N   0  0  0  0  0  0  0  0  0  0  0  0
   -8.1826    5.8160  -11.7987 C   0  0  0  0  0  0  0  0  0  0  0  0
   -8.6795    7.1134  -12.1283 C   0  0  0  0  0  0  0  0  0  0  0  0
   -9.0674    8.1539  -12.4736 N   0  0  0  0  0  0  0  0  0  0  0  0
   -7.6469    4.8911  -12.6724 C   0  0  0  0  0  0  0  0  0  0  0  0
   -7.5512    4.9295  -14.0418 N   0  0  0  0  0  0  0  0  0  0  0  0
   -6.5044    4.3110  -14.9906 C   0  0  0  0  0  0  0  0  0  0  0  0
   -5.6021    3.6078  -14.7650 O   0  0  0  0  0  0  0  0  0  0  0  0
   -6.8692    4.7308  -16.3699 C   0  0  0  0  0  0  0  0  0  0  0  0
   -8.0632    4.7306  -16.9933 C   0  0  0  0  0  0  0  0  0  0  0  0
   -7.4503    5.0970  -18.3296 C   0  0  0  0  0  0  0  0  0  0  0  0
   -6.0868    5.0213  -17.6152 C   0  0  0  0  0  0  0  0  0  0  0  0
   -7.2475    3.8497  -11.8590 N   0  0  0  0  0  0  0  0  0  0  0  0
   -6.6701    2.5946  -12.2919 C   0  0  0  0  0  0  0  0  0  0  0  0
  1  2  1  0
  2  3  2  0
  3  4  1  0
  4  5  1  0
  5  6  3  0
  4  7  2  0
  7  8  1  0
  8  9  1  0
  9 10  2  0
  9 11  1  0
 11 12  2  0
 12 13  1  0
 13 14  1  0
  7 15  1  0
 15 16  1  0
 15  2  1  0
 14 11  1  0
M  END
>  <energy_score>  (3784) 
-21.066989

>  <alias>  (3784) 
IHXVOBWXXNEDKG-UHFFFAOYSA-N-P35-P35-P86-601527

>  <HIPPO Pose ID>  (3784) 
80147

>  <smiles>  (3784) 
Cc1nc(C#N)c(NC(=O)C2=CCC2)n1C

>  <inchikey>  (3784) 
IHXVOBWXXNEDKG-UHFFFAOYSA-N

>  <distance_score>  (3784) 
1.52772

>  <ref_mols>  (3784) 
Z0719a,Z1597a

>  <ref_pdb>  (3784) 
Z0719a

>  <HIPPO Compound ID>  (3784) 
150859

>  <name>  (3784) 
IHXVOBWXXNEDKG-UHFFFAOYSA-N-P35-P35-P86-601527

>  <inspiration_score>  (3784) 
None

$$$$
FFFZXGBEVSIDNU-UHFFFAOYSA-N-P86-P35-P86-601527
     RDKit          3D

 16 17  0  0  0  0  0  0  0  0999 V2000
   -5.8492    1.5928  -12.0259 C   0  0  0  0  0  0  0  0  0  0  0  0
   -5.3077    3.0092  -11.9454 C   0  0  0  0  0  0  0  0  0  0  0  0
   -3.7849    2.9596  -11.9471 C   0  0  0  0  0  0  0  0  0  0  0  0
   -5.8566    3.7339  -10.6807 C   0  0  0  0  0  0  0  0  0  0  0  0
   -7.2103    4.2359  -10.9235 N   0  0  0  0  0  0  0  0  0  0  0  0
   -8.3275    3.4432  -10.8750 C   0  0  0  0  0  0  0  0  0  0  0  0
   -8.9841    3.5400  -12.0137 N   0  0  0  0  0  0  0  0  0  0  0  0
   -8.3155    4.4894  -12.7213 C   0  0  0  0  0  0  0  0  0  0  0  0
   -8.3418    4.5235  -14.0737 N   0  0  0  0  0  0  0  0  0  0  0  0
   -7.5206    5.3636  -15.0695 C   0  0  0  0  0  0  0  0  0  0  0  0
   -6.7457    6.2152  -14.8815 O   0  0  0  0  0  0  0  0  0  0  0  0
   -7.7734    4.8778  -16.4551 C   0  0  0  0  0  0  0  0  0  0  0  0
   -8.7464    4.1480  -17.0266 C   0  0  0  0  0  0  0  0  0  0  0  0
   -8.1734    4.3238  -18.4169 C   0  0  0  0  0  0  0  0  0  0  0  0
   -7.0211    5.0918  -17.7419 C   0  0  0  0  0  0  0  0  0  0  0  0
   -7.4301    5.1689  -11.9199 C   0  0  0  0  0  0  0  0  0  0  0  0
  1  2  1  0
  2  3  1  0
  2  4  1  0
  4  5  1  0
  5  6  1  0
  6  7  2  0
  7  8  1  0
  8  9  1  0
  9 10  1  0
 10 11  2  0
 10 12  1  0
 12 13  2  0
 13 14  1  0
 14 15  1  0
  8 16  2  0
 16  5  1  0
 15 12  1  0
M  END
>  <energy_score>  (3785) 
-19.408171

>  <alias>  (3785) 
FFFZXGBEVSIDNU-UHFFFAOYSA-N-P86-P35-P86-601527

>  <HIPPO Pose ID>  (3785) 
80150

>  <smiles>  (3785) 
CC(C)Cn1cnc(NC(=O)C2=CCC2)c1

>  <inchikey>  (3785) 
FFFZXGBEVSIDNU-UHFFFAOYSA-N

>  <distance_score>  (3785) 
1.629017

>  <ref_mols>  (3785) 
Z0719a,Z1597a

>  <ref_pdb>  (3785) 
Z0719a

>  <HIPPO Compound ID>  (3785) 
150860

>  <name>  (3785) 
FFFZXGBEVSIDNU-UHFFFAOYSA-N-P86-P35-P86-601527

>  <inspiration_score>  (3785) 
None

$$$$
LQJBQOAYIGJBRO-UHFFFAOYSA-N-P86-P35-P86-601527
     RDKit          3D

 16 17  0  0  0  0  0  0  0  0999 V2000
   -7.7515    5.5929   -9.1520 C   0  0  0  0  0  0  0  0  0  0  0  0
   -8.0180    4.7554  -10.3397 C   0  0  0  0  0  0  0  0  0  0  0  0
   -8.5295    3.5503  -10.3050 N   0  0  0  0  0  0  0  0  0  0  0  0
   -8.7107    3.1890  -11.6097 C   0  0  0  0  0  0  0  0  0  0  0  0
   -8.2981    4.1784  -12.4784 C   0  0  0  0  0  0  0  0  0  0  0  0
   -8.3449    4.1964  -13.8564 N   0  0  0  0  0  0  0  0  0  0  0  0
   -7.9161    5.2894  -14.8609 C   0  0  0  0  0  0  0  0  0  0  0  0
   -7.5281    6.3747  -14.6777 O   0  0  0  0  0  0  0  0  0  0  0  0
   -7.9503    4.7432  -16.2407 C   0  0  0  0  0  0  0  0  0  0  0  0
   -8.9013    4.0822  -16.9187 C   0  0  0  0  0  0  0  0  0  0  0  0
   -8.1941    4.2645  -18.2481 C   0  0  0  0  0  0  0  0  0  0  0  0
   -7.0929    4.9932  -17.4525 C   0  0  0  0  0  0  0  0  0  0  0  0
   -7.7336    5.1220  -11.6410 N   0  0  0  0  0  0  0  0  0  0  0  0
   -6.7522    6.1282  -12.0029 C   0  0  0  0  0  0  0  0  0  0  0  0
   -5.6667    5.5236  -12.8091 C   0  0  0  0  0  0  0  0  0  0  0  0
   -4.8790    4.9980  -13.4865 N   0  0  0  0  0  0  0  0  0  0  0  0
  1  2  1  0
  2  3  2  0
  3  4  1  0
  4  5  2  0
  5  6  1  0
  6  7  1  0
  7  8  2  0
  7  9  1  0
  9 10  2  0
 10 11  1  0
 11 12  1  0
  5 13  1  0
 13 14  1  0
 14 15  1  0
 15 16  3  0
 13  2  1  0
 12  9  1  0
M  END
>  <energy_score>  (3786) 
-18.471932

>  <alias>  (3786) 
LQJBQOAYIGJBRO-UHFFFAOYSA-N-P86-P35-P86-601527

>  <HIPPO Pose ID>  (3786) 
80154

>  <smiles>  (3786) 
Cc1ncc(NC(=O)C2=CCC2)n1CC#N

>  <inchikey>  (3786) 
LQJBQOAYIGJBRO-UHFFFAOYSA-N

>  <distance_score>  (3786) 
1.501815

>  <ref_mols>  (3786) 
Z0719a,Z1597a

>  <ref_pdb>  (3786) 
Z0719a

>  <HIPPO Compound ID>  (3786) 
150862

>  <name>  (3786) 
LQJBQOAYIGJBRO-UHFFFAOYSA-N-P86-P35-P86-601527

>  <inspiration_score>  (3786) 
None

$$$$
CZIFPJFBURTVBC-UHFFFAOYSA-N-P86-P35-P86-601527
     RDKit          3D

 16 18  0  0  0  0  0  0  0  0999 V2000
   -2.2819    6.5374  -18.7648 O   0  0  0  0  0  0  0  0  0  0  0  0
   -3.1483    6.3236  -19.5201 C   0  0  0  0  0  0  0  0  0  0  0  0
   -2.9647    6.4013  -21.0307 C   0  0  0  0  0  0  0  0  0  0  0  0
   -3.8209    7.4449  -21.6871 C   0  0  0  0  0  0  0  0  0  0  0  0
   -5.0329    7.0772  -22.5056 C   0  0  0  0  0  0  0  0  0  0  0  0
   -3.7930    7.5723  -23.1904 C   0  0  0  0  0  0  0  0  0  0  0  0
   -4.6076    5.8477  -19.2712 N   0  0  0  0  0  0  0  0  0  0  0  0
   -5.2804    5.6433  -18.1133 C   0  0  0  0  0  0  0  0  0  0  0  0
   -6.6226    5.3805  -18.0045 C   0  0  0  0  0  0  0  0  0  0  0  0
   -6.8141    5.0950  -16.6841 N   0  0  0  0  0  0  0  0  0  0  0  0
   -8.0132    4.7041  -15.9649 C   0  0  0  0  0  0  0  0  0  0  0  0
   -9.0729    3.9245  -16.6678 C   0  0  0  0  0  0  0  0  0  0  0  0
   -9.8306    4.3713  -17.8986 C   0  0  0  0  0  0  0  0  0  0  0  0
   -8.9395    3.1762  -17.9684 C   0  0  0  0  0  0  0  0  0  0  0  0
   -5.6201    5.3100  -16.0481 C   0  0  0  0  0  0  0  0  0  0  0  0
   -4.6812    5.6474  -16.8960 N   0  0  0  0  0  0  0  0  0  0  0  0
  1  2  2  0
  2  3  1  0
  3  4  1  0
  4  5  1  0
  5  6  1  0
  2  7  1  0
  7  8  1  0
  8  9  2  0
  9 10  1  0
 10 11  1  0
 11 12  1  0
 12 13  1  0
 13 14  1  0
 10 15  1  0
 15 16  2  0
  6  4  1  0
 16  8  1  0
 14 12  1  0
M  END
>  <energy_score>  (3787) 
-14.186679

>  <alias>  (3787) 
CZIFPJFBURTVBC-UHFFFAOYSA-N-P86-P35-P86-601527

>  <HIPPO Pose ID>  (3787) 
80156

>  <smiles>  (3787) 
O=C(CC1CC1)Nc1cn(CC2CC2)cn1

>  <inchikey>  (3787) 
CZIFPJFBURTVBC-UHFFFAOYSA-N

>  <distance_score>  (3787) 
1.800164

>  <ref_mols>  (3787) 
Z0719a,Z1597a

>  <ref_pdb>  (3787) 
Z0719a

>  <HIPPO Compound ID>  (3787) 
150863

>  <name>  (3787) 
CZIFPJFBURTVBC-UHFFFAOYSA-N-P86-P35-P86-601527

>  <inspiration_score>  (3787) 
None

$$$$
VMHAEZYOZQHKNE-UHFFFAOYSA-N-P86-P35-P86-601527
     RDKit          3D

 16 17  0  0  0  0  0  0  0  0999 V2000
   -2.6599    8.0356  -21.4593 C   0  0  0  0  0  0  0  0  0  0  0  0
   -3.4866    6.7814  -21.2320 C   0  0  0  0  0  0  0  0  0  0  0  0
   -2.5721    5.5529  -21.2650 C   0  0  0  0  0  0  0  0  0  0  0  0
   -4.7249    6.7427  -22.5945 S   0  0  0  0  0  0  0  0  0  0  0  0
   -4.1639    6.8611  -19.8443 C   0  0  0  0  0  0  0  0  0  0  0  0
   -3.7748    7.5717  -19.0003 O   0  0  0  0  0  0  0  0  0  0  0  0
   -5.2930    5.7963  -19.8215 N   0  0  0  0  0  0  0  0  0  0  0  0
   -6.0567    5.3521  -18.8034 C   0  0  0  0  0  0  0  0  0  0  0  0
   -7.1021    4.4748  -18.9191 C   0  0  0  0  0  0  0  0  0  0  0  0
   -7.6513    4.4342  -17.6797 N   0  0  0  0  0  0  0  0  0  0  0  0
   -8.8204    3.8401  -17.3684 N   0  0  0  0  0  0  0  0  0  0  0  0
   -9.1016    3.9913  -16.1198 C   0  0  0  0  0  0  0  0  0  0  0  0
   -8.2765    4.6383  -15.0763 C   0  0  0  0  0  0  0  0  0  0  0  0
   -7.1460    5.2183  -15.4799 C   0  0  0  0  0  0  0  0  0  0  0  0
   -6.8232    5.1744  -16.8489 C   0  0  0  0  0  0  0  0  0  0  0  0
   -5.8629    5.7637  -17.5224 N   0  0  0  0  0  0  0  0  0  0  0  0
  1  2  1  0
  2  3  1  0
  2  4  1  0
  2  5  1  0
  5  6  2  0
  5  7  1  0
  7  8  1  0
  8  9  2  0
  9 10  1  0
 10 11  1  0
 11 12  2  0
 12 13  1  0
 13 14  2  0
 14 15  1  0
 15 16  2  0
 16  8  1  0
 15 10  1  0
M  END
>  <energy_score>  (3788) 
-36.536251

>  <alias>  (3788) 
VMHAEZYOZQHKNE-UHFFFAOYSA-N-P86-P35-P86-601527

>  <HIPPO Pose ID>  (3788) 
80190

>  <smiles>  (3788) 
CC(C)(S)C(=O)Nc1cn2ncccc2n1

>  <inchikey>  (3788) 
VMHAEZYOZQHKNE-UHFFFAOYSA-N

>  <distance_score>  (3788) 
1.762775

>  <ref_mols>  (3788) 
Z0719a,Z1597a

>  <ref_pdb>  (3788) 
Z0719a

>  <HIPPO Compound ID>  (3788) 
150880

>  <name>  (3788) 
VMHAEZYOZQHKNE-UHFFFAOYSA-N-P86-P35-P86-601527

>  <inspiration_score>  (3788) 
None

$$$$
RAHVCKFXQJEXMB-UHFFFAOYSA-N-P86-P35-P86-601527
     RDKit          3D

 16 17  0  0  0  0  0  0  0  0999 V2000
   -2.9277    8.1478  -21.5205 C   0  0  0  0  0  0  0  0  0  0  0  0
   -3.5337    6.7716  -21.2921 C   0  0  0  0  0  0  0  0  0  0  0  0
   -2.4759    5.6918  -21.5400 C   0  0  0  0  0  0  0  0  0  0  0  0
   -4.9092    6.6354  -22.4964 S   0  0  0  0  0  0  0  0  0  0  0  0
   -3.9674    6.6626  -19.8131 C   0  0  0  0  0  0  0  0  0  0  0  0
   -3.3204    7.1533  -18.9699 O   0  0  0  0  0  0  0  0  0  0  0  0
   -5.2333    5.7685  -19.7183 N   0  0  0  0  0  0  0  0  0  0  0  0
   -5.9672    5.3984  -18.6466 C   0  0  0  0  0  0  0  0  0  0  0  0
   -7.1233    4.6605  -18.6415 C   0  0  0  0  0  0  0  0  0  0  0  0
   -7.4915    4.6212  -17.3275 N   0  0  0  0  0  0  0  0  0  0  0  0
   -8.6387    4.1354  -16.7359 C   0  0  0  0  0  0  0  0  0  0  0  0
   -8.7616    4.2634  -15.4121 C   0  0  0  0  0  0  0  0  0  0  0  0
   -7.6109    4.8543  -14.6945 C   0  0  0  0  0  0  0  0  0  0  0  0
   -6.5425    5.3409  -15.2328 N   0  0  0  0  0  0  0  0  0  0  0  0
   -6.4891    5.2567  -16.5920 C   0  0  0  0  0  0  0  0  0  0  0  0
   -5.5861    5.7626  -17.3968 N   0  0  0  0  0  0  0  0  0  0  0  0
  1  2  1  0
  2  3  1  0
  2  4  1  0
  2  5  1  0
  5  6  2  0
  5  7  1  0
  7  8  1  0
  8  9  2  0
  9 10  1  0
 10 11  1  0
 11 12  2  0
 12 13  1  0
 13 14  2  0
 14 15  1  0
 15 16  2  0
 16  8  1  0
 15 10  1  0
M  END
>  <energy_score>  (3789) 
-28.569859

>  <alias>  (3789) 
RAHVCKFXQJEXMB-UHFFFAOYSA-N-P86-P35-P86-601527

>  <HIPPO Pose ID>  (3789) 
80192

>  <smiles>  (3789) 
CC(C)(S)C(=O)Nc1cn2cccnc2n1

>  <inchikey>  (3789) 
RAHVCKFXQJEXMB-UHFFFAOYSA-N

>  <distance_score>  (3789) 
1.657917

>  <ref_mols>  (3789) 
Z0719a,Z1597a

>  <ref_pdb>  (3789) 
Z0719a

>  <HIPPO Compound ID>  (3789) 
150881

>  <name>  (3789) 
RAHVCKFXQJEXMB-UHFFFAOYSA-N-P86-P35-P86-601527

>  <inspiration_score>  (3789) 
None

$$$$
DUUNVMULVKNTFI-UHFFFAOYSA-N-P35-P35-P86-601527
     RDKit          3D

 16 16  0  0  0  0  0  0  0  0999 V2000
   -5.5402    7.7739  -21.5497 C   0  0  0  0  0  0  0  0  0  0  0  0
   -4.9965    7.7762  -20.3234 C   0  0  0  0  0  0  0  0  0  0  0  0
   -4.7589    9.6059  -19.3467 I   0  0  0  0  0  0  0  0  0  0  0  0
   -4.5089    6.5426  -19.6283 C   0  0  0  0  0  0  0  0  0  0  0  0
   -5.1255    6.2617  -18.2547 C   0  0  0  0  0  0  0  0  0  0  0  0
   -4.5275    6.4658  -17.2681 O   0  0  0  0  0  0  0  0  0  0  0  0
   -6.5257    5.6109  -18.4707 N   0  0  0  0  0  0  0  0  0  0  0  0
   -7.3804    5.0277  -17.5772 C   0  0  0  0  0  0  0  0  0  0  0  0
   -8.4960    4.2477  -17.7891 C   0  0  0  0  0  0  0  0  0  0  0  0
   -8.8341    3.5719  -16.6334 N   0  0  0  0  0  0  0  0  0  0  0  0
   -7.9308    3.9265  -15.7326 C   0  0  0  0  0  0  0  0  0  0  0  0
   -7.6299    3.3382  -14.3761 C   0  0  0  0  0  0  0  0  0  0  0  0
   -7.2421    5.0161  -16.2143 N   0  0  0  0  0  0  0  0  0  0  0  0
   -6.6673    6.0268  -15.3579 C   0  0  0  0  0  0  0  0  0  0  0  0
   -7.5105    6.2765  -14.1773 C   0  0  0  0  0  0  0  0  0  0  0  0
   -8.1946    6.4016  -13.2467 N   0  0  0  0  0  0  0  0  0  0  0  0
  1  2  2  0
  2  3  1  0
  2  4  1  0
  4  5  1  0
  5  6  2  0
  5  7  1  0
  7  8  1  0
  8  9  2  0
  9 10  1  0
 10 11  2  0
 11 12  1  0
 11 13  1  0
 13 14  1  0
 14 15  1  0
 15 16  3  0
 13  8  1  0
M  END
>  <energy_score>  (3790) 
-15.187102

>  <alias>  (3790) 
DUUNVMULVKNTFI-UHFFFAOYSA-N-P35-P35-P86-601527

>  <HIPPO Pose ID>  (3790) 
80193

>  <smiles>  (3790) 
C=C(I)CC(=O)Nc1cnc(C)n1CC#N

>  <inchikey>  (3790) 
DUUNVMULVKNTFI-UHFFFAOYSA-N

>  <distance_score>  (3790) 
1.818967

>  <ref_mols>  (3790) 
Z0719a,Z1597a

>  <ref_pdb>  (3790) 
Z0719a

>  <HIPPO Compound ID>  (3790) 
150882

>  <name>  (3790) 
DUUNVMULVKNTFI-UHFFFAOYSA-N-P35-P35-P86-601527

>  <inspiration_score>  (3790) 
None

$$$$
ZBBZDPWPFQBRCB-UHFFFAOYSA-N-P86-P35-P86-601527
     RDKit          3D

 16 17  0  0  0  0  0  0  0  0999 V2000
   -3.6942    8.7619  -21.0424 C   0  0  0  0  0  0  0  0  0  0  0  0
   -3.8153    7.5554  -21.6212 C   0  0  0  0  0  0  0  0  0  0  0  0
   -4.9280    7.3926  -23.3752 I   0  0  0  0  0  0  0  0  0  0  0  0
   -3.1553    6.3058  -21.1022 C   0  0  0  0  0  0  0  0  0  0  0  0
   -3.2628    6.1795  -19.5866 C   0  0  0  0  0  0  0  0  0  0  0  0
   -2.3387    6.2412  -18.8731 O   0  0  0  0  0  0  0  0  0  0  0  0
   -4.7696    5.9571  -19.2679 N   0  0  0  0  0  0  0  0  0  0  0  0
   -5.3880    5.6892  -18.0969 C   0  0  0  0  0  0  0  0  0  0  0  0
   -6.7304    5.4610  -17.9502 C   0  0  0  0  0  0  0  0  0  0  0  0
   -6.8737    5.0967  -16.6444 N   0  0  0  0  0  0  0  0  0  0  0  0
   -8.0658    4.6997  -15.9250 C   0  0  0  0  0  0  0  0  0  0  0  0
   -9.0741    3.8599  -16.6333 C   0  0  0  0  0  0  0  0  0  0  0  0
   -8.9596    3.1976  -17.9872 C   0  0  0  0  0  0  0  0  0  0  0  0
   -9.9195    4.3246  -17.7962 C   0  0  0  0  0  0  0  0  0  0  0  0
   -5.6527    5.2395  -16.0445 C   0  0  0  0  0  0  0  0  0  0  0  0
   -4.7383    5.6008  -16.9100 N   0  0  0  0  0  0  0  0  0  0  0  0
  1  2  2  0
  2  3  1  0
  2  4  1  0
  4  5  1  0
  5  6  2  0
  5  7  1  0
  7  8  1  0
  8  9  2  0
  9 10  1  0
 10 11  1  0
 11 12  1  0
 12 13  1  0
 13 14  1  0
 10 15  1  0
 15 16  2  0
 16  8  1  0
 14 12  1  0
M  END
>  <energy_score>  (3791) 
-14.156018

>  <alias>  (3791) 
ZBBZDPWPFQBRCB-UHFFFAOYSA-N-P86-P35-P86-601527

>  <HIPPO Pose ID>  (3791) 
80196

>  <smiles>  (3791) 
C=C(I)CC(=O)Nc1cn(CC2CC2)cn1

>  <inchikey>  (3791) 
ZBBZDPWPFQBRCB-UHFFFAOYSA-N

>  <distance_score>  (3791) 
1.788575

>  <ref_mols>  (3791) 
Z0719a,Z1597a

>  <ref_pdb>  (3791) 
Z0719a

>  <HIPPO Compound ID>  (3791) 
150883

>  <name>  (3791) 
ZBBZDPWPFQBRCB-UHFFFAOYSA-N-P86-P35-P86-601527

>  <inspiration_score>  (3791) 
None

$$$$
FQSWWEAQLNNPNI-UHFFFAOYSA-N-P86-P35-P86-601527
     RDKit          3D

 16 17  0  0  0  0  0  0  0  0999 V2000
   -4.5060    8.7258  -21.2583 C   0  0  0  0  0  0  0  0  0  0  0  0
   -4.6349    7.6419  -22.0416 C   0  0  0  0  0  0  0  0  0  0  0  0
   -5.2496    7.9311  -24.0331 I   0  0  0  0  0  0  0  0  0  0  0  0
   -4.3821    6.2122  -21.6527 C   0  0  0  0  0  0  0  0  0  0  0  0
   -4.3879    5.9965  -20.1466 C   0  0  0  0  0  0  0  0  0  0  0  0
   -3.4617    6.2416  -19.4751 O   0  0  0  0  0  0  0  0  0  0  0  0
   -5.8191    5.5266  -19.7576 N   0  0  0  0  0  0  0  0  0  0  0  0
   -6.3354    5.1954  -18.5569 C   0  0  0  0  0  0  0  0  0  0  0  0
   -7.5922    4.6951  -18.3277 C   0  0  0  0  0  0  0  0  0  0  0  0
   -7.6765    4.6157  -16.9672 N   0  0  0  0  0  0  0  0  0  0  0  0
   -8.7407    4.2719  -16.1557 C   0  0  0  0  0  0  0  0  0  0  0  0
   -8.5814    4.3524  -14.8297 C   0  0  0  0  0  0  0  0  0  0  0  0
   -7.2370    4.7623  -14.3623 C   0  0  0  0  0  0  0  0  0  0  0  0
   -6.2380    5.1118  -15.1024 N   0  0  0  0  0  0  0  0  0  0  0  0
   -6.4567    5.0510  -16.4457 C   0  0  0  0  0  0  0  0  0  0  0  0
   -5.6418    5.4000  -17.4125 N   0  0  0  0  0  0  0  0  0  0  0  0
  1  2  2  0
  2  3  1  0
  2  4  1  0
  4  5  1  0
  5  6  2  0
  5  7  1  0
  7  8  1  0
  8  9  2  0
  9 10  1  0
 10 11  1  0
 11 12  2  0
 12 13  1  0
 13 14  2  0
 14 15  1  0
 15 16  2  0
 16  8  1  0
 15 10  1  0
M  END
>  <energy_score>  (3792) 
-1.25568

>  <alias>  (3792) 
FQSWWEAQLNNPNI-UHFFFAOYSA-N-P86-P35-P86-601527

>  <HIPPO Pose ID>  (3792) 
80206

>  <smiles>  (3792) 
C=C(I)CC(=O)Nc1cn2cccnc2n1

>  <inchikey>  (3792) 
FQSWWEAQLNNPNI-UHFFFAOYSA-N

>  <distance_score>  (3792) 
1.497755

>  <ref_mols>  (3792) 
Z0719a,Z1597a

>  <ref_pdb>  (3792) 
Z0719a

>  <HIPPO Compound ID>  (3792) 
150888

>  <name>  (3792) 
FQSWWEAQLNNPNI-UHFFFAOYSA-N-P86-P35-P86-601527

>  <inspiration_score>  (3792) 
None

$$$$
QCJNOTTZXFJZSC-UHFFFAOYSA-N-P35-P35-P86-601527
     RDKit          3D

 16 16  0  0  0  0  0  0  0  0999 V2000
   -5.5241    7.8129  -22.0216 C   0  0  0  0  0  0  0  0  0  0  0  0
   -4.9042    7.8998  -20.8345 C   0  0  0  0  0  0  0  0  0  0  0  0
   -5.0878    9.6604  -19.7279 I   0  0  0  0  0  0  0  0  0  0  0  0
   -4.0247    6.8215  -20.2849 C   0  0  0  0  0  0  0  0  0  0  0  0
   -4.3811    6.2812  -18.9001 C   0  0  0  0  0  0  0  0  0  0  0  0
   -3.5659    6.2572  -18.0581 O   0  0  0  0  0  0  0  0  0  0  0  0
   -5.8504    5.7655  -18.8970 N   0  0  0  0  0  0  0  0  0  0  0  0
   -6.5944    5.2382  -17.8967 C   0  0  0  0  0  0  0  0  0  0  0  0
   -6.1106    4.8685  -16.6753 C   0  0  0  0  0  0  0  0  0  0  0  0
   -7.1807    4.3938  -15.9829 N   0  0  0  0  0  0  0  0  0  0  0  0
   -7.1842    3.8732  -14.6294 C   0  0  0  0  0  0  0  0  0  0  0  0
   -5.8051    3.6359  -13.9477 C   0  0  0  0  0  0  0  0  0  0  0  0
   -5.3071    4.9135  -13.2666 C   0  0  0  0  0  0  0  0  0  0  0  0
   -5.9117    2.5141  -12.9245 C   0  0  0  0  0  0  0  0  0  0  0  0
   -8.2697    4.5133  -16.8018 C   0  0  0  0  0  0  0  0  0  0  0  0
   -7.9328    5.0257  -17.9695 N   0  0  0  0  0  0  0  0  0  0  0  0
  1  2  2  0
  2  3  1  0
  2  4  1  0
  4  5  1  0
  5  6  2  0
  5  7  1  0
  7  8  1  0
  8  9  2  0
  9 10  1  0
 10 11  1  0
 11 12  1  0
 12 13  1  0
 12 14  1  0
 10 15  1  0
 15 16  2  0
 16  8  1  0
M  END
>  <energy_score>  (3793) 
-38.318639

>  <alias>  (3793) 
QCJNOTTZXFJZSC-UHFFFAOYSA-N-P35-P35-P86-601527

>  <HIPPO Pose ID>  (3793) 
80209

>  <smiles>  (3793) 
C=C(I)CC(=O)Nc1cn(CC(C)C)cn1

>  <inchikey>  (3793) 
QCJNOTTZXFJZSC-UHFFFAOYSA-N

>  <distance_score>  (3793) 
1.747783

>  <ref_mols>  (3793) 
Z0719a,Z1597a

>  <ref_pdb>  (3793) 
Z0719a

>  <HIPPO Compound ID>  (3793) 
150890

>  <name>  (3793) 
QCJNOTTZXFJZSC-UHFFFAOYSA-N-P35-P35-P86-601527

>  <inspiration_score>  (3793) 
None

$$$$
JXNDJRVRFJPUAA-UHFFFAOYSA-N-P35-P35-P86-601527
     RDKit          3D

 16 17  0  0  0  0  0  0  0  0999 V2000
   -3.5519    7.5254  -21.2846 C   0  0  0  0  0  0  0  0  0  0  0  0
   -4.4571    7.0539  -20.1594 C   0  0  0  0  0  0  0  0  0  0  0  0
   -3.8536    5.8966  -19.3656 C   0  0  0  0  0  0  0  0  0  0  0  0
   -4.4952    5.7288  -17.9886 C   0  0  0  0  0  0  0  0  0  0  0  0
   -3.9048    5.9084  -16.9961 O   0  0  0  0  0  0  0  0  0  0  0  0
   -5.9744    5.3137  -18.2191 N   0  0  0  0  0  0  0  0  0  0  0  0
   -6.9543    4.9600  -17.3191 C   0  0  0  0  0  0  0  0  0  0  0  0
   -8.2107    4.4732  -17.6649 C   0  0  0  0  0  0  0  0  0  0  0  0
   -8.7769    4.1935  -18.9867 C   0  0  0  0  0  0  0  0  0  0  0  0
   -8.9965    4.2341  -16.5748 N   0  0  0  0  0  0  0  0  0  0  0  0
   -8.2375    4.5757  -15.5690 C   0  0  0  0  0  0  0  0  0  0  0  0
   -8.6002    4.5890  -14.1867 C   0  0  0  0  0  0  0  0  0  0  0  0
   -7.7938    4.9996  -13.2476 N   0  0  0  0  0  0  0  0  0  0  0  0
   -6.5320    5.3711  -13.6439 C   0  0  0  0  0  0  0  0  0  0  0  0
   -6.1161    5.3927  -14.9212 C   0  0  0  0  0  0  0  0  0  0  0  0
   -6.9825    5.0063  -15.9345 N   0  0  0  0  0  0  0  0  0  0  0  0
  1  2  1  0
  2  3  1  0
  3  4  1  0
  4  5  2  0
  4  6  1  0
  6  7  1  0
  7  8  2  0
  8  9  1  0
  8 10  1  0
 10 11  2  0
 11 12  1  0
 12 13  2  0
 13 14  1  0
 14 15  2  0
 15 16  1  0
 16  7  1  0
 16 11  1  0
M  END
>  <energy_score>  (3794) 
-20.388226

>  <alias>  (3794) 
JXNDJRVRFJPUAA-UHFFFAOYSA-N-P35-P35-P86-601527

>  <HIPPO Pose ID>  (3794) 
80213

>  <smiles>  (3794) 
CCCC(=O)Nc1c(C)nc2cnccn12

>  <inchikey>  (3794) 
JXNDJRVRFJPUAA-UHFFFAOYSA-N

>  <distance_score>  (3794) 
1.604686

>  <ref_mols>  (3794) 
Z0719a,Z1597a

>  <ref_pdb>  (3794) 
Z0719a

>  <HIPPO Compound ID>  (3794) 
150892

>  <name>  (3794) 
JXNDJRVRFJPUAA-UHFFFAOYSA-N-P35-P35-P86-601527

>  <inspiration_score>  (3794) 
None

$$$$
LKWSIYASHDJFJL-UHFFFAOYSA-N-P35-P35-P86-601527
     RDKit          3D

 16 17  0  0  0  0  0  0  0  0999 V2000
   -3.8694    7.4505  -21.0567 C   0  0  0  0  0  0  0  0  0  0  0  0
   -2.8745    6.5501  -20.3328 C   0  0  0  0  0  0  0  0  0  0  0  0
   -1.7387    7.3386  -19.6938 C   0  0  0  0  0  0  0  0  0  0  0  0
   -2.2946    5.7735  -21.3180 F   0  0  0  0  0  0  0  0  0  0  0  0
   -3.5986    5.6408  -19.3098 C   0  0  0  0  0  0  0  0  0  0  0  0
   -3.6385    4.4809  -19.4595 O   0  0  0  0  0  0  0  0  0  0  0  0
   -4.2718    6.5423  -18.2346 N   0  0  0  0  0  0  0  0  0  0  0  0
   -5.1447    6.2323  -17.2531 C   0  0  0  0  0  0  0  0  0  0  0  0
   -5.7585    5.0281  -17.0416 C   0  0  0  0  0  0  0  0  0  0  0  0
   -6.6687    5.2859  -16.0581 N   0  0  0  0  0  0  0  0  0  0  0  0
   -7.7961    4.4432  -15.7191 C   0  0  0  0  0  0  0  0  0  0  0  0
   -8.9574    4.7984  -16.5971 C   0  0  0  0  0  0  0  0  0  0  0  0
   -8.8358    4.8306  -18.1165 C   0  0  0  0  0  0  0  0  0  0  0  0
   -9.6732    3.7981  -17.4572 C   0  0  0  0  0  0  0  0  0  0  0  0
   -6.4941    6.5763  -15.6520 C   0  0  0  0  0  0  0  0  0  0  0  0
   -5.5982    7.1879  -16.3943 N   0  0  0  0  0  0  0  0  0  0  0  0
  1  2  1  0
  2  3  1  0
  2  4  1  0
  2  5  1  0
  5  6  2  0
  5  7  1  0
  7  8  1  0
  8  9  2  0
  9 10  1  0
 10 11  1  0
 11 12  1  0
 12 13  1  0
 13 14  1  0
 10 15  1  0
 15 16  2  0
 16  8  1  0
 14 12  1  0
M  END
>  <energy_score>  (3795) 
-25.135244

>  <alias>  (3795) 
LKWSIYASHDJFJL-UHFFFAOYSA-N-P35-P35-P86-601527

>  <HIPPO Pose ID>  (3795) 
80215

>  <smiles>  (3795) 
CC(C)(F)C(=O)Nc1cn(CC2CC2)cn1

>  <inchikey>  (3795) 
LKWSIYASHDJFJL-UHFFFAOYSA-N

>  <distance_score>  (3795) 
1.980209

>  <ref_mols>  (3795) 
Z0719a,Z1597a

>  <ref_pdb>  (3795) 
Z0719a

>  <HIPPO Compound ID>  (3795) 
150893

>  <name>  (3795) 
LKWSIYASHDJFJL-UHFFFAOYSA-N-P35-P35-P86-601527

>  <inspiration_score>  (3795) 
None

$$$$
KPAIUCJDPQZDTA-UHFFFAOYSA-M-P35-P35-P86-601527
     RDKit          3D

 16 16  0  0  0  0  0  0  0  0999 V2000
   -4.3029    7.0196  -20.7701 C   0  0  0  0  0  0  0  0  0  0  0  0
   -3.4990    6.3533  -19.9270 C   0  0  0  0  0  0  0  0  0  0  0  0
   -1.4487    6.2388  -20.4060 I   0  0  0  0  0  0  0  0  0  0  0  0
   -3.9042    5.6296  -18.6498 C   0  0  0  0  0  0  0  0  0  0  0  0
   -5.1809    6.1062  -17.9294 C   0  0  0  0  0  0  0  0  0  0  0  0
   -5.7967    7.0514  -18.2484 O   0  0  0  0  0  0  0  0  0  0  0  0
   -5.4442    5.0602  -16.7961 N   0  0  0  0  0  0  0  0  0  0  0  0
   -6.4925    4.9254  -15.9529 C   0  0  0  0  0  0  0  0  0  0  0  0
   -7.6412    5.6393  -16.1582 N   0  0  0  0  0  0  0  0  0  0  0  0
   -8.4693    5.2219  -15.2300 C   0  0  0  0  0  0  0  0  0  0  0  0
   -7.8636    4.3461  -14.3827 N   0  0  0  0  0  0  0  0  0  0  0  0
   -8.3159    3.9837  -13.0627 C   0  0  0  0  0  0  0  0  0  0  0  0
   -6.6083    4.0989  -14.8634 C   0  0  0  0  0  0  0  0  0  0  0  0
   -5.5896    3.1271  -14.2161 C   0  0  0  0  0  0  0  0  0  0  0  0
   -6.0690    2.2183  -13.4707 O   0  0  0  0  0  0  0  0  0  0  0  0
   -4.3648    3.2969  -14.5056 O   0  0  0  0  0  0  0  0  0  0  0  0
  1  2  2  0
  2  3  1  0
  2  4  1  0
  4  5  1  0
  5  6  2  0
  5  7  1  0
  7  8  1  0
  8  9  1  0
  9 10  2  0
 10 11  1  0
 11 12  1  0
 11 13  1  0
 13 14  1  0
 14 15  2  0
 14 16  1  0
 13  8  2  0
M  CHG  1  16  -1
M  END
>  <energy_score>  (3796) 
-38.53261

>  <alias>  (3796) 
KPAIUCJDPQZDTA-UHFFFAOYSA-M-P35-P35-P86-601527

>  <HIPPO Pose ID>  (3796) 
80223

>  <smiles>  (3796) 
C=C(I)CC(=O)Nc1ncn(C)c1C(=O)[O-]

>  <inchikey>  (3796) 
KPAIUCJDPQZDTA-UHFFFAOYSA-M

>  <distance_score>  (3796) 
1.963595

>  <ref_mols>  (3796) 
Z0719a,Z1597a

>  <ref_pdb>  (3796) 
Z0719a

>  <HIPPO Compound ID>  (3796) 
150897

>  <name>  (3796) 
KPAIUCJDPQZDTA-UHFFFAOYSA-M-P35-P35-P86-601527

>  <inspiration_score>  (3796) 
None

$$$$
YAUSHTCBZIWJEG-UHFFFAOYSA-N-P35-P35-P86-601527
     RDKit          3D

 16 16  0  0  0  0  0  0  0  0999 V2000
   -4.9966    7.3880  -20.6057 C   0  0  0  0  0  0  0  0  0  0  0  0
   -3.9022    6.6990  -20.2437 C   0  0  0  0  0  0  0  0  0  0  0  0
   -2.0463    7.2974  -20.9947 I   0  0  0  0  0  0  0  0  0  0  0  0
   -3.9096    5.4811  -19.3523 C   0  0  0  0  0  0  0  0  0  0  0  0
   -4.6553    5.6858  -18.0320 C   0  0  0  0  0  0  0  0  0  0  0  0
   -4.1394    6.1121  -17.0713 O   0  0  0  0  0  0  0  0  0  0  0  0
   -6.1150    5.1841  -18.2572 N   0  0  0  0  0  0  0  0  0  0  0  0
   -7.1495    5.0256  -17.3696 C   0  0  0  0  0  0  0  0  0  0  0  0
   -8.3953    4.5169  -17.6866 C   0  0  0  0  0  0  0  0  0  0  0  0
   -8.9306    4.1100  -18.9842 C   0  0  0  0  0  0  0  0  0  0  0  0
   -9.1787    4.3563  -16.5806 N   0  0  0  0  0  0  0  0  0  0  0  0
   -8.4644    4.8141  -15.5838 C   0  0  0  0  0  0  0  0  0  0  0  0
   -8.8887    4.8903  -14.1659 C   0  0  0  0  0  0  0  0  0  0  0  0
   -7.2373    5.2656  -16.0251 N   0  0  0  0  0  0  0  0  0  0  0  0
   -6.3046    5.8830  -15.1270 C   0  0  0  0  0  0  0  0  0  0  0  0
   -5.4361    4.8607  -14.4308 C   0  0  0  0  0  0  0  0  0  0  0  0
  1  2  2  0
  2  3  1  0
  2  4  1  0
  4  5  1  0
  5  6  2  0
  5  7  1  0
  7  8  1  0
  8  9  2  0
  9 10  1  0
  9 11  1  0
 11 12  2  0
 12 13  1  0
 12 14  1  0
 14 15  1  0
 15 16  1  0
 14  8  1  0
M  END
>  <energy_score>  (3797) 
-16.2206

>  <alias>  (3797) 
YAUSHTCBZIWJEG-UHFFFAOYSA-N-P35-P35-P86-601527

>  <HIPPO Pose ID>  (3797) 
80225

>  <smiles>  (3797) 
C=C(I)CC(=O)Nc1c(C)nc(C)n1CC

>  <inchikey>  (3797) 
YAUSHTCBZIWJEG-UHFFFAOYSA-N

>  <distance_score>  (3797) 
1.415695

>  <ref_mols>  (3797) 
Z0719a,Z1597a

>  <ref_pdb>  (3797) 
Z0719a

>  <HIPPO Compound ID>  (3797) 
150898

>  <name>  (3797) 
YAUSHTCBZIWJEG-UHFFFAOYSA-N-P35-P35-P86-601527

>  <inspiration_score>  (3797) 
None

$$$$
DSMIYQHPXJKAOH-UHFFFAOYSA-N-P86-P35-P86-601527
     RDKit          3D

 16 16  0  0  0  0  0  0  0  0999 V2000
   -7.3804    4.9152  -13.5577 C   0  0  0  0  0  0  0  0  0  0  0  0
   -6.3535    5.6057  -14.2798 O   0  0  0  0  0  0  0  0  0  0  0  0
   -6.0406    5.2068  -15.5574 C   0  0  0  0  0  0  0  0  0  0  0  0
   -4.8596    5.1544  -15.8932 O   0  0  0  0  0  0  0  0  0  0  0  0
   -7.1551    4.9044  -16.4740 C   0  0  0  0  0  0  0  0  0  0  0  0
   -8.4423    4.5772  -16.0439 N   0  0  0  0  0  0  0  0  0  0  0  0
   -9.1120    4.2172  -17.1080 C   0  0  0  0  0  0  0  0  0  0  0  0
   -8.3318    4.2839  -18.2185 N   0  0  0  0  0  0  0  0  0  0  0  0
   -7.1190    4.8082  -17.8587 C   0  0  0  0  0  0  0  0  0  0  0  0
   -6.2173    5.0850  -18.8412 N   0  0  0  0  0  0  0  0  0  0  0  0
   -5.0168    6.0760  -18.8610 C   0  0  0  0  0  0  0  0  0  0  0  0
   -4.6678    6.8592  -18.0660 O   0  0  0  0  0  0  0  0  0  0  0  0
   -4.2776    5.7623  -20.1758 C   0  0  0  0  0  0  0  0  0  0  0  0
   -4.2052    7.0018  -21.0484 C   0  0  0  0  0  0  0  0  0  0  0  0
   -2.8951    5.2046  -19.8652 C   0  0  0  0  0  0  0  0  0  0  0  0
   -4.9532    4.8044  -20.8934 F   0  0  0  0  0  0  0  0  0  0  0  0
  1  2  1  0
  2  3  1  0
  3  4  2  0
  3  5  1  0
  5  6  1  0
  6  7  2  0
  7  8  1  0
  8  9  1  0
  9 10  1  0
 10 11  1  0
 11 12  2  0
 11 13  1  0
 13 14  1  0
 13 15  1  0
 13 16  1  0
  9  5  2  0
M  END
>  <energy_score>  (3798) 
-13.029633

>  <alias>  (3798) 
DSMIYQHPXJKAOH-UHFFFAOYSA-N-P86-P35-P86-601527

>  <HIPPO Pose ID>  (3798) 
80230

>  <smiles>  (3798) 
COC(=O)c1nc[nH]c1NC(=O)C(C)(C)F

>  <inchikey>  (3798) 
DSMIYQHPXJKAOH-UHFFFAOYSA-N

>  <distance_score>  (3798) 
1.909895

>  <ref_mols>  (3798) 
Z0719a,Z1597a

>  <ref_pdb>  (3798) 
Z0719a

>  <HIPPO Compound ID>  (3798) 
150900

>  <name>  (3798) 
DSMIYQHPXJKAOH-UHFFFAOYSA-N-P86-P35-P86-601527

>  <inspiration_score>  (3798) 
None

$$$$
YVTYHAJMIVPMLQ-UHFFFAOYSA-N-P86-P35-P86-601527
     RDKit          3D

 16 16  0  0  0  0  0  0  0  0999 V2000
   -5.6635    5.6185  -13.1368 C   0  0  0  0  0  0  0  0  0  0  0  0
   -6.1010    4.2174  -13.5869 C   0  0  0  0  0  0  0  0  0  0  0  0
   -6.1253    3.2963  -12.3709 C   0  0  0  0  0  0  0  0  0  0  0  0
   -7.4957    4.2840  -14.2796 C   0  0  0  0  0  0  0  0  0  0  0  0
   -7.5204    4.5257  -15.7123 N   0  0  0  0  0  0  0  0  0  0  0  0
   -8.5596    4.2408  -16.5546 C   0  0  0  0  0  0  0  0  0  0  0  0
   -8.2396    4.4838  -17.8097 N   0  0  0  0  0  0  0  0  0  0  0  0
   -6.9620    4.9376  -17.7674 C   0  0  0  0  0  0  0  0  0  0  0  0
   -6.2169    5.1835  -18.8660 N   0  0  0  0  0  0  0  0  0  0  0  0
   -4.7493    5.6889  -19.0000 C   0  0  0  0  0  0  0  0  0  0  0  0
   -3.9905    6.0420  -18.1805 O   0  0  0  0  0  0  0  0  0  0  0  0
   -4.3964    5.6228  -20.4924 C   0  0  0  0  0  0  0  0  0  0  0  0
   -4.6273    6.9802  -21.1320 C   0  0  0  0  0  0  0  0  0  0  0  0
   -2.9405    5.1936  -20.6616 C   0  0  0  0  0  0  0  0  0  0  0  0
   -5.1979    4.7219  -21.1351 F   0  0  0  0  0  0  0  0  0  0  0  0
   -6.5197    5.0379  -16.4794 C   0  0  0  0  0  0  0  0  0  0  0  0
  1  2  1  0
  2  3  1  0
  2  4  1  0
  4  5  1  0
  5  6  1  0
  6  7  2  0
  7  8  1  0
  8  9  1  0
  9 10  1  0
 10 11  2  0
 10 12  1  0
 12 13  1  0
 12 14  1  0
 12 15  1  0
  8 16  2  0
 16  5  1  0
M  END
>  <energy_score>  (3799) 
-37.928745

>  <alias>  (3799) 
YVTYHAJMIVPMLQ-UHFFFAOYSA-N-P86-P35-P86-601527

>  <HIPPO Pose ID>  (3799) 
80232

>  <smiles>  (3799) 
CC(C)Cn1cnc(NC(=O)C(C)(C)F)c1

>  <inchikey>  (3799) 
YVTYHAJMIVPMLQ-UHFFFAOYSA-N

>  <distance_score>  (3799) 
1.61623

>  <ref_mols>  (3799) 
Z0719a,Z1597a

>  <ref_pdb>  (3799) 
Z0719a

>  <HIPPO Compound ID>  (3799) 
150901

>  <name>  (3799) 
YVTYHAJMIVPMLQ-UHFFFAOYSA-N-P86-P35-P86-601527

>  <inspiration_score>  (3799) 
None

$$$$
XYCNGKJNOUBGKN-UHFFFAOYSA-N-P86-P35-P86-601527
     RDKit          3D

 16 17  0  0  0  0  0  0  0  0999 V2000
   -3.4023    8.3956  -21.6039 C   0  0  0  0  0  0  0  0  0  0  0  0
   -4.5477    7.4268  -21.3856 C   0  0  0  0  0  0  0  0  0  0  0  0
   -4.4630    6.3301  -22.4205 C   0  0  0  0  0  0  0  0  0  0  0  0
   -5.7078    8.1146  -21.6120 F   0  0  0  0  0  0  0  0  0  0  0  0
   -4.4909    6.8797  -19.9471 C   0  0  0  0  0  0  0  0  0  0  0  0
   -3.6043    7.1277  -19.2236 O   0  0  0  0  0  0  0  0  0  0  0  0
   -5.7903    6.0563  -19.7052 N   0  0  0  0  0  0  0  0  0  0  0  0
   -6.2737    5.4913  -18.5762 C   0  0  0  0  0  0  0  0  0  0  0  0
   -7.4797    4.8554  -18.4189 C   0  0  0  0  0  0  0  0  0  0  0  0
   -7.5874    4.6719  -17.0687 N   0  0  0  0  0  0  0  0  0  0  0  0
   -8.6679    4.2677  -16.3065 C   0  0  0  0  0  0  0  0  0  0  0  0
   -8.5479    4.2938  -14.9747 C   0  0  0  0  0  0  0  0  0  0  0  0
   -7.2151    4.6711  -14.4498 C   0  0  0  0  0  0  0  0  0  0  0  0
   -6.1987    5.0671  -15.1420 N   0  0  0  0  0  0  0  0  0  0  0  0
   -6.3933    5.1100  -16.4900 C   0  0  0  0  0  0  0  0  0  0  0  0
   -5.5936    5.5984  -17.4077 N   0  0  0  0  0  0  0  0  0  0  0  0
  1  2  1  0
  2  3  1  0
  2  4  1  0
  2  5  1  0
  5  6  2  0
  5  7  1  0
  7  8  1  0
  8  9  2  0
  9 10  1  0
 10 11  1  0
 11 12  2  0
 12 13  1  0
 13 14  2  0
 14 15  1  0
 15 16  2  0
 16  8  1  0
 15 10  1  0
M  END
>  <energy_score>  (3800) 
-4.59667

>  <alias>  (3800) 
XYCNGKJNOUBGKN-UHFFFAOYSA-N-P86-P35-P86-601527

>  <HIPPO Pose ID>  (3800) 
80242

>  <smiles>  (3800) 
CC(C)(F)C(=O)Nc1cn2cccnc2n1

>  <inchikey>  (3800) 
XYCNGKJNOUBGKN-UHFFFAOYSA-N

>  <distance_score>  (3800) 
1.757622

>  <ref_mols>  (3800) 
Z0719a,Z1597a

>  <ref_pdb>  (3800) 
Z0719a

>  <HIPPO Compound ID>  (3800) 
150906

>  <name>  (3800) 
XYCNGKJNOUBGKN-UHFFFAOYSA-N-P86-P35-P86-601527

>  <inspiration_score>  (3800) 
None

$$$$
BFSCLNUBRMCEOC-UHFFFAOYSA-N-P35-P35-P86-601527
     RDKit          3D

 16 17  0  0  0  0  0  0  0  0999 V2000
   -4.0872    8.1895  -19.6655 C   0  0  0  0  0  0  0  0  0  0  0  0
   -4.3700    6.8156  -20.2563 C   0  0  0  0  0  0  0  0  0  0  0  0
   -3.8688    5.6827  -19.3630 C   0  0  0  0  0  0  0  0  0  0  0  0
   -4.5386    5.6081  -17.9939 C   0  0  0  0  0  0  0  0  0  0  0  0
   -3.9557    5.8112  -17.0009 O   0  0  0  0  0  0  0  0  0  0  0  0
   -6.0224    5.2045  -18.2271 N   0  0  0  0  0  0  0  0  0  0  0  0
   -7.0160    4.8918  -17.3265 C   0  0  0  0  0  0  0  0  0  0  0  0
   -8.2939    4.4773  -17.6595 C   0  0  0  0  0  0  0  0  0  0  0  0
   -8.8826    4.2180  -18.9729 C   0  0  0  0  0  0  0  0  0  0  0  0
   -9.0750    4.2869  -16.5573 N   0  0  0  0  0  0  0  0  0  0  0  0
   -8.3066    4.5756  -15.5333 C   0  0  0  0  0  0  0  0  0  0  0  0
   -8.7564    4.5982  -14.1301 C   0  0  0  0  0  0  0  0  0  0  0  0
   -7.0315    4.8748  -15.9484 N   0  0  0  0  0  0  0  0  0  0  0  0
   -5.8722    5.0237  -15.0555 C   0  0  0  0  0  0  0  0  0  0  0  0
   -5.5613    6.3660  -14.4427 C   0  0  0  0  0  0  0  0  0  0  0  0
   -5.8418    5.2000  -13.5514 C   0  0  0  0  0  0  0  0  0  0  0  0
  1  2  1  0
  2  3  1  0
  3  4  1  0
  4  5  2  0
  4  6  1  0
  6  7  1  0
  7  8  2  0
  8  9  1  0
  8 10  1  0
 10 11  2  0
 11 12  1  0
 11 13  1  0
 13 14  1  0
 14 15  1  0
 15 16  1  0
 13  7  1  0
 16 14  1  0
M  END
>  <energy_score>  (3801) 
-12.118247

>  <alias>  (3801) 
BFSCLNUBRMCEOC-UHFFFAOYSA-N-P35-P35-P86-601527

>  <HIPPO Pose ID>  (3801) 
80251

>  <smiles>  (3801) 
CCCC(=O)Nc1c(C)nc(C)n1C1CC1

>  <inchikey>  (3801) 
BFSCLNUBRMCEOC-UHFFFAOYSA-N

>  <distance_score>  (3801) 
1.787445

>  <ref_mols>  (3801) 
Z0719a,Z1597a

>  <ref_pdb>  (3801) 
Z0719a

>  <HIPPO Compound ID>  (3801) 
150911

>  <name>  (3801) 
BFSCLNUBRMCEOC-UHFFFAOYSA-N-P35-P35-P86-601527

>  <inspiration_score>  (3801) 
None

$$$$
IRUNXWATCARBIT-UHFFFAOYSA-N-P86-P35-P86-601527
     RDKit          3D

 16 17  0  0  0  0  0  0  0  0999 V2000
   -3.8710    8.4190  -24.0061 C   0  0  0  0  0  0  0  0  0  0  0  0
   -4.8832    8.3364  -23.0111 O   0  0  0  0  0  0  0  0  0  0  0  0
   -4.3943    7.8467  -21.7578 C   0  0  0  0  0  0  0  0  0  0  0  0
   -4.1399    6.3546  -21.7991 C   0  0  0  0  0  0  0  0  0  0  0  0
   -4.1617    5.8690  -20.3707 C   0  0  0  0  0  0  0  0  0  0  0  0
   -3.2360    5.9563  -19.6634 O   0  0  0  0  0  0  0  0  0  0  0  0
   -5.6053    5.3816  -20.0814 N   0  0  0  0  0  0  0  0  0  0  0  0
   -6.1907    5.0172  -18.9225 C   0  0  0  0  0  0  0  0  0  0  0  0
   -7.4325    4.4459  -18.8126 C   0  0  0  0  0  0  0  0  0  0  0  0
   -7.6830    4.4232  -17.4803 N   0  0  0  0  0  0  0  0  0  0  0  0
   -8.8459    4.0334  -16.9152 N   0  0  0  0  0  0  0  0  0  0  0  0
   -8.8297    4.2117  -15.6379 C   0  0  0  0  0  0  0  0  0  0  0  0
   -7.7209    4.7339  -14.8105 C   0  0  0  0  0  0  0  0  0  0  0  0
   -6.6096    5.0919  -15.4531 C   0  0  0  0  0  0  0  0  0  0  0  0
   -6.5701    4.9637  -16.8533 C   0  0  0  0  0  0  0  0  0  0  0  0
   -5.6396    5.3028  -17.7147 N   0  0  0  0  0  0  0  0  0  0  0  0
  1  2  1  0
  2  3  1  0
  3  4  1  0
  4  5  1  0
  5  6  2  0
  5  7  1  0
  7  8  1  0
  8  9  2  0
  9 10  1  0
 10 11  1  0
 11 12  2  0
 12 13  1  0
 13 14  2  0
 14 15  1  0
 15 16  2  0
 16  8  1  0
 15 10  1  0
M  END
>  <energy_score>  (3802) 
-30.66604

>  <alias>  (3802) 
IRUNXWATCARBIT-UHFFFAOYSA-N-P86-P35-P86-601527

>  <HIPPO Pose ID>  (3802) 
80260

>  <smiles>  (3802) 
COCCC(=O)Nc1cn2ncccc2n1

>  <inchikey>  (3802) 
IRUNXWATCARBIT-UHFFFAOYSA-N

>  <distance_score>  (3802) 
1.70767

>  <ref_mols>  (3802) 
Z0719a,Z1597a

>  <ref_pdb>  (3802) 
Z0719a

>  <HIPPO Compound ID>  (3802) 
150915

>  <name>  (3802) 
IRUNXWATCARBIT-UHFFFAOYSA-N-P86-P35-P86-601527

>  <inspiration_score>  (3802) 
None

$$$$
SUPCFRLKNMNIPZ-UHFFFAOYSA-N-P86-P35-P86-601527
     RDKit          3D

 16 17  0  0  0  0  0  0  0  0999 V2000
   -3.9499    9.3704  -21.9470 C   0  0  0  0  0  0  0  0  0  0  0  0
   -4.9614    8.3735  -21.8752 O   0  0  0  0  0  0  0  0  0  0  0  0
   -4.5117    7.0701  -22.2466 C   0  0  0  0  0  0  0  0  0  0  0  0
   -3.4848    6.4638  -21.3103 C   0  0  0  0  0  0  0  0  0  0  0  0
   -3.9027    6.4890  -19.8553 C   0  0  0  0  0  0  0  0  0  0  0  0
   -3.2686    7.0516  -19.0489 O   0  0  0  0  0  0  0  0  0  0  0  0
   -5.1692    5.5993  -19.7010 N   0  0  0  0  0  0  0  0  0  0  0  0
   -5.9167    5.3181  -18.6099 C   0  0  0  0  0  0  0  0  0  0  0  0
   -7.1133    4.6457  -18.5861 C   0  0  0  0  0  0  0  0  0  0  0  0
   -7.4680    4.6327  -17.2679 N   0  0  0  0  0  0  0  0  0  0  0  0
   -8.6157    4.1712  -16.6555 C   0  0  0  0  0  0  0  0  0  0  0  0
   -8.7186    4.3077  -15.3304 C   0  0  0  0  0  0  0  0  0  0  0  0
   -7.5528    4.8995  -14.6374 C   0  0  0  0  0  0  0  0  0  0  0  0
   -6.4852    5.3654  -15.1949 N   0  0  0  0  0  0  0  0  0  0  0  0
   -6.4408    5.2514  -16.5524 C   0  0  0  0  0  0  0  0  0  0  0  0
   -5.5179    5.6977  -17.3710 N   0  0  0  0  0  0  0  0  0  0  0  0
  1  2  1  0
  2  3  1  0
  3  4  1  0
  4  5  1  0
  5  6  2  0
  5  7  1  0
  7  8  1  0
  8  9  2  0
  9 10  1  0
 10 11  1  0
 11 12  2  0
 12 13  1  0
 13 14  2  0
 14 15  1  0
 15 16  2  0
 16  8  1  0
 15 10  1  0
M  END
>  <energy_score>  (3803) 
-19.460255

>  <alias>  (3803) 
SUPCFRLKNMNIPZ-UHFFFAOYSA-N-P86-P35-P86-601527

>  <HIPPO Pose ID>  (3803) 
80262

>  <smiles>  (3803) 
COCCC(=O)Nc1cn2cccnc2n1

>  <inchikey>  (3803) 
SUPCFRLKNMNIPZ-UHFFFAOYSA-N

>  <distance_score>  (3803) 
1.576193

>  <ref_mols>  (3803) 
Z0719a,Z1597a

>  <ref_pdb>  (3803) 
Z0719a

>  <HIPPO Compound ID>  (3803) 
150916

>  <name>  (3803) 
SUPCFRLKNMNIPZ-UHFFFAOYSA-N-P86-P35-P86-601527

>  <inspiration_score>  (3803) 
None

$$$$
NJJOJLACECAPEL-UHFFFAOYSA-N-P86-P35-P86-601527
     RDKit          3D

 16 16  0  0  0  0  0  0  0  0999 V2000
   -8.3856    3.5899  -15.1771 C   0  0  0  0  0  0  0  0  0  0  0  0
   -8.2381    4.0893  -16.5547 C   0  0  0  0  0  0  0  0  0  0  0  0
   -9.0588    3.8192  -17.5447 N   0  0  0  0  0  0  0  0  0  0  0  0
   -8.4500    4.3224  -18.6525 C   0  0  0  0  0  0  0  0  0  0  0  0
   -7.2287    4.8855  -18.3401 C   0  0  0  0  0  0  0  0  0  0  0  0
   -6.2934    5.3211  -19.2346 N   0  0  0  0  0  0  0  0  0  0  0  0
   -4.8032    5.7078  -19.0281 C   0  0  0  0  0  0  0  0  0  0  0  0
   -4.1692    5.7866  -18.0479 O   0  0  0  0  0  0  0  0  0  0  0  0
   -4.2305    6.0031  -20.4343 C   0  0  1  0  0  0  0  0  0  0  0  0
   -5.0251    5.5786  -21.5343 O   0  0  0  0  0  0  0  0  0  0  0  0
   -3.9970    7.4978  -20.5446 C   0  0  0  0  0  0  0  0  0  0  0  0
   -5.1625    8.1769  -20.3321 F   0  0  0  0  0  0  0  0  0  0  0  0
   -7.1827    4.8621  -16.9681 N   0  0  0  0  0  0  0  0  0  0  0  0
   -6.2877    5.5511  -16.0570 C   0  0  0  0  0  0  0  0  0  0  0  0
   -6.9132    5.9340  -14.7720 C   0  0  0  0  0  0  0  0  0  0  0  0
   -7.4332    6.1854  -13.7622 N   0  0  0  0  0  0  0  0  0  0  0  0
  1  2  1  0
  2  3  2  0
  3  4  1  0
  4  5  2  0
  5  6  1  0
  6  7  1  0
  7  8  2  0
  7  9  1  0
  9 10  1  6
  9 11  1  0
 11 12  1  0
  5 13  1  0
 13 14  1  0
 14 15  1  0
 15 16  3  0
 13  2  1  0
M  END
>  <energy_score>  (3804) 
-15.106709

>  <alias>  (3804) 
NJJOJLACECAPEL-UHFFFAOYSA-N-P86-P35-P86-601527

>  <HIPPO Pose ID>  (3804) 
80264

>  <smiles>  (3804) 
Cc1ncc(NC(=O)C(O)CF)n1CC#N

>  <inchikey>  (3804) 
NJJOJLACECAPEL-UHFFFAOYSA-N

>  <distance_score>  (3804) 
1.844032

>  <ref_mols>  (3804) 
Z0719a,Z1597a

>  <ref_pdb>  (3804) 
Z0719a

>  <HIPPO Compound ID>  (3804) 
150917

>  <name>  (3804) 
NJJOJLACECAPEL-UHFFFAOYSA-N-P86-P35-P86-601527

>  <inspiration_score>  (3804) 
None

$$$$
WWVBSHSLBAMLDS-UHFFFAOYSA-N-P35-P35-P86-601527
     RDKit          3D

 16 16  0  0  0  0  0  0  0  0999 V2000
   -8.0122    5.0544  -18.2244 C   0  0  0  0  0  0  0  0  0  0  0  0
   -7.7291    4.8302  -16.8358 N   0  0  0  0  0  0  0  0  0  0  0  0
   -8.7165    4.5116  -15.9521 C   0  0  0  0  0  0  0  0  0  0  0  0
   -8.2252    3.9683  -14.8724 N   0  0  0  0  0  0  0  0  0  0  0  0
   -6.8610    3.9076  -15.0819 C   0  0  0  0  0  0  0  0  0  0  0  0
   -6.0372    3.1885  -14.1280 N   0  0  0  0  0  0  0  0  0  0  0  0
   -6.5818    2.3164  -13.4337 O   0  0  0  0  0  0  0  0  0  0  0  0
   -4.8206    3.4440  -14.1189 O   0  0  0  0  0  0  0  0  0  0  0  0
   -6.5056    4.5832  -16.2470 C   0  0  0  0  0  0  0  0  0  0  0  0
   -5.3080    4.9017  -16.8452 N   0  0  0  0  0  0  0  0  0  0  0  0
   -4.9828    5.9225  -17.9859 C   0  0  0  0  0  0  0  0  0  0  0  0
   -5.6728    6.6972  -18.5302 O   0  0  0  0  0  0  0  0  0  0  0  0
   -3.4808    5.7912  -18.3038 C   0  0  1  0  0  0  0  0  0  0  0  0
   -2.9551    4.4928  -18.0372 O   0  0  0  0  0  0  0  0  0  0  0  0
   -3.1906    6.2164  -19.7555 C   0  0  0  0  0  0  0  0  0  0  0  0
   -2.9978    5.1054  -20.5312 F   0  0  0  0  0  0  0  0  0  0  0  0
  1  2  1  0
  2  3  1  0
  3  4  2  0
  4  5  1  0
  5  6  1  0
  6  7  2  0
  6  8  1  0
  5  9  2  0
  9 10  1  0
 10 11  1  0
 11 12  2  0
 11 13  1  0
 13 14  1  6
 13 15  1  0
 15 16  1  0
  9  2  1  0
M  CHG  2   6   1   8  -1
M  END
>  <energy_score>  (3805) 
-9.903387

>  <alias>  (3805) 
WWVBSHSLBAMLDS-UHFFFAOYSA-N-P35-P35-P86-601527

>  <HIPPO Pose ID>  (3805) 
80267

>  <smiles>  (3805) 
Cn1cnc([N+](=O)[O-])c1NC(=O)C(O)CF

>  <inchikey>  (3805) 
WWVBSHSLBAMLDS-UHFFFAOYSA-N

>  <distance_score>  (3805) 
1.994052

>  <ref_mols>  (3805) 
Z0719a,Z1597a

>  <ref_pdb>  (3805) 
Z0719a

>  <HIPPO Compound ID>  (3805) 
150919

>  <name>  (3805) 
WWVBSHSLBAMLDS-UHFFFAOYSA-N-P35-P35-P86-601527

>  <inspiration_score>  (3805) 
None

$$$$
WCUGHLJFJXXOKB-UHFFFAOYSA-N-P86-P35-P86-601527
     RDKit          3D

 16 17  0  0  0  0  0  0  0  0999 V2000
   -3.1570    6.8903  -19.0058 O   0  0  0  0  0  0  0  0  0  0  0  0
   -3.7288    6.3328  -19.8627 C   0  0  0  0  0  0  0  0  0  0  0  0
   -5.0705    5.5436  -19.8332 N   0  0  0  0  0  0  0  0  0  0  0  0
   -5.8763    5.2219  -18.7974 C   0  0  0  0  0  0  0  0  0  0  0  0
   -7.0225    4.4735  -18.8808 C   0  0  0  0  0  0  0  0  0  0  0  0
   -7.5291    4.4712  -17.6197 N   0  0  0  0  0  0  0  0  0  0  0  0
   -8.7107    3.9274  -17.2514 N   0  0  0  0  0  0  0  0  0  0  0  0
   -8.9314    4.0842  -15.9892 C   0  0  0  0  0  0  0  0  0  0  0  0
   -8.0408    4.7222  -14.9963 C   0  0  0  0  0  0  0  0  0  0  0  0
   -6.9006    5.2482  -15.4490 C   0  0  0  0  0  0  0  0  0  0  0  0
   -6.6232    5.1603  -16.8262 C   0  0  0  0  0  0  0  0  0  0  0  0
   -5.6273    5.6450  -17.5310 N   0  0  0  0  0  0  0  0  0  0  0  0
   -3.1964    6.3081  -21.3025 C   0  0  2  0  0  0  0  0  0  0  0  0
   -1.9298    6.9667  -21.4130 O   0  0  0  0  0  0  0  0  0  0  0  0
   -4.1806    6.9653  -22.2550 C   0  0  0  0  0  0  0  0  0  0  0  0
   -4.5337    8.1992  -21.7971 F   0  0  0  0  0  0  0  0  0  0  0  0
  1  2  2  0
  2  3  1  0
  3  4  1  0
  4  5  2  0
  5  6  1  0
  6  7  1  0
  7  8  2  0
  8  9  1  0
  9 10  2  0
 10 11  1  0
 11 12  2  0
  2 13  1  0
 13 14  1  1
 13 15  1  0
 15 16  1  0
 12  4  1  0
 11  6  1  0
M  END
>  <energy_score>  (3806) 
-36.607708

>  <alias>  (3806) 
WCUGHLJFJXXOKB-UHFFFAOYSA-N-P86-P35-P86-601527

>  <HIPPO Pose ID>  (3806) 
80278

>  <smiles>  (3806) 
O=C(Nc1cn2ncccc2n1)C(O)CF

>  <inchikey>  (3806) 
WCUGHLJFJXXOKB-UHFFFAOYSA-N

>  <distance_score>  (3806) 
1.67247

>  <ref_mols>  (3806) 
Z0719a,Z1597a

>  <ref_pdb>  (3806) 
Z0719a

>  <HIPPO Compound ID>  (3806) 
150924

>  <name>  (3806) 
WCUGHLJFJXXOKB-UHFFFAOYSA-N-P86-P35-P86-601527

>  <inspiration_score>  (3806) 
None

$$$$
WVJHFCCMHCRXGP-UHFFFAOYSA-N-P86-P35-P86-601527
     RDKit          3D

 16 17  0  0  0  0  0  0  0  0999 V2000
   -2.7415    6.4888  -18.8514 O   0  0  0  0  0  0  0  0  0  0  0  0
   -3.3456    6.0016  -19.7281 C   0  0  0  0  0  0  0  0  0  0  0  0
   -4.7820    5.3922  -19.7499 N   0  0  0  0  0  0  0  0  0  0  0  0
   -5.6666    5.1881  -18.7427 C   0  0  0  0  0  0  0  0  0  0  0  0
   -6.8733    4.5429  -18.8408 C   0  0  0  0  0  0  0  0  0  0  0  0
   -7.3808    4.5630  -17.5744 N   0  0  0  0  0  0  0  0  0  0  0  0
   -8.5774    4.0775  -17.0900 C   0  0  0  0  0  0  0  0  0  0  0  0
   -8.8261    4.2070  -15.7849 C   0  0  0  0  0  0  0  0  0  0  0  0
   -7.7651    4.8524  -14.9766 C   0  0  0  0  0  0  0  0  0  0  0  0
   -6.6544    5.3464  -15.4195 N   0  0  0  0  0  0  0  0  0  0  0  0
   -6.4458    5.2042  -16.7605 C   0  0  0  0  0  0  0  0  0  0  0  0
   -5.4217    5.6140  -17.4775 N   0  0  0  0  0  0  0  0  0  0  0  0
   -2.7624    5.8678  -21.1460 C   0  0  2  0  0  0  0  0  0  0  0  0
   -1.3869    6.2546  -21.2070 O   0  0  0  0  0  0  0  0  0  0  0  0
   -3.5482    6.7507  -22.1045 C   0  0  0  0  0  0  0  0  0  0  0  0
   -3.2419    6.3891  -23.3891 F   0  0  0  0  0  0  0  0  0  0  0  0
  1  2  2  0
  2  3  1  0
  3  4  1  0
  4  5  2  0
  5  6  1  0
  6  7  1  0
  7  8  2  0
  8  9  1  0
  9 10  2  0
 10 11  1  0
 11 12  2  0
  2 13  1  0
 13 14  1  1
 13 15  1  0
 15 16  1  0
 12  4  1  0
 11  6  1  0
M  END
>  <energy_score>  (3807) 
-28.373255

>  <alias>  (3807) 
WVJHFCCMHCRXGP-UHFFFAOYSA-N-P86-P35-P86-601527

>  <HIPPO Pose ID>  (3807) 
80280

>  <smiles>  (3807) 
O=C(Nc1cn2cccnc2n1)C(O)CF

>  <inchikey>  (3807) 
WVJHFCCMHCRXGP-UHFFFAOYSA-N

>  <distance_score>  (3807) 
1.625803

>  <ref_mols>  (3807) 
Z0719a,Z1597a

>  <ref_pdb>  (3807) 
Z0719a

>  <HIPPO Compound ID>  (3807) 
150925

>  <name>  (3807) 
WVJHFCCMHCRXGP-UHFFFAOYSA-N-P86-P35-P86-601527

>  <inspiration_score>  (3807) 
None

$$$$
FOCYCAZUCCNHRJ-UHFFFAOYSA-N-P86-P35-P86-601527
     RDKit          3D

 16 17  0  0  0  0  0  0  0  0999 V2000
   -5.1907    8.3758  -23.5528 C   0  0  0  0  0  0  0  0  0  0  0  0
   -4.7491    7.8559  -22.1943 C   0  0  0  0  0  0  0  0  0  0  0  0
   -4.4490    6.3697  -22.2406 C   0  0  0  0  0  0  0  0  0  0  0  0
   -4.2199    5.9119  -20.8172 C   0  0  0  0  0  0  0  0  0  0  0  0
   -3.1803    6.0051  -20.2906 O   0  0  0  0  0  0  0  0  0  0  0  0
   -5.5930    5.4439  -20.2596 N   0  0  0  0  0  0  0  0  0  0  0  0
   -5.9609    5.1100  -19.0060 C   0  0  0  0  0  0  0  0  0  0  0  0
   -7.2175    4.7479  -18.5795 C   0  0  0  0  0  0  0  0  0  0  0  0
   -7.1244    4.7287  -17.2188 N   0  0  0  0  0  0  0  0  0  0  0  0
   -8.1520    4.5738  -16.3456 N   0  0  0  0  0  0  0  0  0  0  0  0
   -7.7625    4.7127  -15.1191 C   0  0  0  0  0  0  0  0  0  0  0  0
   -8.9643    4.6929  -13.9105 Cl  0  0  0  0  0  0  0  0  0  0  0  0
   -6.3827    4.9630  -14.6454 C   0  0  0  0  0  0  0  0  0  0  0  0
   -5.4412    5.1428  -15.5662 C   0  0  0  0  0  0  0  0  0  0  0  0
   -5.8094    5.0501  -16.9150 C   0  0  0  0  0  0  0  0  0  0  0  0
   -5.0853    5.2462  -17.9837 N   0  0  0  0  0  0  0  0  0  0  0  0
  1  2  1  0
  2  3  1  0
  3  4  1  0
  4  5  2  0
  4  6  1  0
  6  7  1  0
  7  8  2  0
  8  9  1  0
  9 10  1  0
 10 11  2  0
 11 12  1  0
 11 13  1  0
 13 14  2  0
 14 15  1  0
 15 16  2  0
 16  7  1  0
 15  9  1  0
M  END
>  <energy_score>  (3808) 
-29.583583

>  <alias>  (3808) 
FOCYCAZUCCNHRJ-UHFFFAOYSA-N-P86-P35-P86-601527

>  <HIPPO Pose ID>  (3808) 
80282

>  <smiles>  (3808) 
CCCC(=O)Nc1cn2nc(Cl)ccc2n1

>  <inchikey>  (3808) 
FOCYCAZUCCNHRJ-UHFFFAOYSA-N

>  <distance_score>  (3808) 
1.927461

>  <ref_mols>  (3808) 
Z0719a,Z1597a

>  <ref_pdb>  (3808) 
Z0719a

>  <HIPPO Compound ID>  (3808) 
150926

>  <name>  (3808) 
FOCYCAZUCCNHRJ-UHFFFAOYSA-N-P86-P35-P86-601527

>  <inspiration_score>  (3808) 
None

$$$$
WTAXCFMGAJSHTQ-UHFFFAOYSA-N-P86-P35-P86-601527
     RDKit          3D

 16 16  0  0  0  0  0  0  0  0999 V2000
   -4.8051    5.0361  -13.8990 C   0  0  0  0  0  0  0  0  0  0  0  0
   -6.0841    4.3740  -13.4080 C   0  0  0  0  0  0  0  0  0  0  0  0
   -5.7904    3.0414  -12.7235 C   0  0  0  0  0  0  0  0  0  0  0  0
   -7.3360    4.3795  -14.3553 C   0  0  0  0  0  0  0  0  0  0  0  0
   -7.3343    4.4357  -15.8034 N   0  0  0  0  0  0  0  0  0  0  0  0
   -8.4696    4.2598  -16.5620 C   0  0  0  0  0  0  0  0  0  0  0  0
   -8.2599    4.5421  -17.8311 N   0  0  0  0  0  0  0  0  0  0  0  0
   -6.9477    4.8689  -17.9064 C   0  0  0  0  0  0  0  0  0  0  0  0
   -6.3431    5.2184  -19.0667 N   0  0  0  0  0  0  0  0  0  0  0  0
   -4.8423    5.5151  -19.3778 C   0  0  0  0  0  0  0  0  0  0  0  0
   -3.9166    5.5773  -18.6618 O   0  0  0  0  0  0  0  0  0  0  0  0
   -4.7234    5.8530  -20.8799 C   0  0  2  0  0  0  0  0  0  0  0  0
   -3.4492    5.5165  -21.4296 O   0  0  0  0  0  0  0  0  0  0  0  0
   -4.8927    7.3562  -21.0016 C   0  0  0  0  0  0  0  0  0  0  0  0
   -5.4411    7.6558  -22.2161 F   0  0  0  0  0  0  0  0  0  0  0  0
   -6.3646    4.8373  -16.6690 C   0  0  0  0  0  0  0  0  0  0  0  0
  1  2  1  0
  2  3  1  0
  2  4  1  0
  4  5  1  0
  5  6  1  0
  6  7  2  0
  7  8  1  0
  8  9  1  0
  9 10  1  0
 10 11  2  0
 10 12  1  0
 12 13  1  1
 12 14  1  0
 14 15  1  0
  8 16  2  0
 16  5  1  0
M  END
>  <energy_score>  (3809) 
-8.219026

>  <alias>  (3809) 
WTAXCFMGAJSHTQ-UHFFFAOYSA-N-P86-P35-P86-601527

>  <HIPPO Pose ID>  (3809) 
80296

>  <smiles>  (3809) 
CC(C)Cn1cnc(NC(=O)C(O)CF)c1

>  <inchikey>  (3809) 
WTAXCFMGAJSHTQ-UHFFFAOYSA-N

>  <distance_score>  (3809) 
1.505499

>  <ref_mols>  (3809) 
Z0719a,Z1597a

>  <ref_pdb>  (3809) 
Z0719a

>  <HIPPO Compound ID>  (3809) 
150933

>  <name>  (3809) 
WTAXCFMGAJSHTQ-UHFFFAOYSA-N-P86-P35-P86-601527

>  <inspiration_score>  (3809) 
None

$$$$
BBSOICDSGCLCPS-UHFFFAOYSA-N-P35-P35-P86-601527
     RDKit          3D

 16 16  0  0  0  0  0  0  0  0999 V2000
   -5.0283    7.0438  -19.7174 C   0  0  0  0  0  0  0  0  0  0  0  0
   -3.6836    6.3506  -19.5683 C   0  0  0  0  0  0  0  0  0  0  0  0
   -3.7417    4.9224  -19.0174 C   0  0  0  0  0  0  0  0  0  0  0  0
   -4.2141    4.7853  -17.5638 C   0  0  0  0  0  0  0  0  0  0  0  0
   -3.4899    4.7279  -16.6489 O   0  0  0  0  0  0  0  0  0  0  0  0
   -5.7588    4.7732  -17.6213 N   0  0  0  0  0  0  0  0  0  0  0  0
   -6.6752    4.6036  -16.6379 C   0  0  0  0  0  0  0  0  0  0  0  0
   -7.9343    4.8991  -17.0860 N   0  0  0  0  0  0  0  0  0  0  0  0
   -8.7248    4.7173  -16.0667 C   0  0  0  0  0  0  0  0  0  0  0  0
   -8.0079    4.4192  -14.9577 N   0  0  0  0  0  0  0  0  0  0  0  0
   -8.5183    4.4524  -13.6075 C   0  0  0  0  0  0  0  0  0  0  0  0
   -6.6842    4.1972  -15.3128 C   0  0  0  0  0  0  0  0  0  0  0  0
   -5.6210    3.4904  -14.1094 S   0  0  0  0  0  0  0  0  0  0  0  0
   -4.1882    2.9597  -14.7382 N   0  0  0  0  0  0  0  0  0  0  0  0
   -5.2676    4.5460  -13.1944 O   0  0  0  0  0  0  0  0  0  0  0  0
   -6.3104    2.3117  -13.6462 O   0  0  0  0  0  0  0  0  0  0  0  0
  1  2  1  0
  2  3  1  0
  3  4  1  0
  4  5  2  0
  4  6  1  0
  6  7  1  0
  7  8  1  0
  8  9  2  0
  9 10  1  0
 10 11  1  0
 10 12  1  0
 12 13  1  0
 13 14  1  0
 13 15  2  0
 13 16  2  0
 12  7  2  0
M  END
>  <energy_score>  (3810) 
-55.28978

>  <alias>  (3810) 
BBSOICDSGCLCPS-UHFFFAOYSA-N-P35-P35-P86-601527

>  <HIPPO Pose ID>  (3810) 
80299

>  <smiles>  (3810) 
CCCC(=O)Nc1ncn(C)c1S(N)(=O)=O

>  <inchikey>  (3810) 
BBSOICDSGCLCPS-UHFFFAOYSA-N

>  <distance_score>  (3810) 
1.898336

>  <ref_mols>  (3810) 
Z0719a,Z1597a

>  <ref_pdb>  (3810) 
Z0719a

>  <HIPPO Compound ID>  (3810) 
150935

>  <name>  (3810) 
BBSOICDSGCLCPS-UHFFFAOYSA-N-P35-P35-P86-601527

>  <inspiration_score>  (3810) 
None

$$$$
KDFBHWJUXDOLDP-UHFFFAOYSA-N-P35-P35-P86-601527
     RDKit          3D

 16 17  0  0  0  0  0  0  0  0999 V2000
   -4.6767    9.1505  -21.8654 C   0  0  0  0  0  0  0  0  0  0  0  0
   -4.2874    7.6835  -22.0220 C   0  0  1  0  0  0  0  0  0  0  0  0
   -3.4391    7.4772  -23.5905 Cl  0  0  0  0  0  0  0  0  0  0  0  0
   -3.3648    7.2037  -20.9147 C   0  0  0  0  0  0  0  0  0  0  0  0
   -4.0664    7.1532  -19.5796 C   0  0  0  0  0  0  0  0  0  0  0  0
   -3.7929    7.8857  -18.7109 O   0  0  0  0  0  0  0  0  0  0  0  0
   -5.1395    6.0324  -19.6511 N   0  0  0  0  0  0  0  0  0  0  0  0
   -5.9715    5.5551  -18.7028 C   0  0  0  0  0  0  0  0  0  0  0  0
   -6.9954    4.6692  -18.9116 C   0  0  0  0  0  0  0  0  0  0  0  0
   -7.6470    4.6132  -17.7200 N   0  0  0  0  0  0  0  0  0  0  0  0
   -8.8313    4.0004  -17.4984 N   0  0  0  0  0  0  0  0  0  0  0  0
   -9.2101    4.1402  -16.2738 C   0  0  0  0  0  0  0  0  0  0  0  0
   -8.4685    4.7839  -15.1669 C   0  0  0  0  0  0  0  0  0  0  0  0
   -7.3197    5.3826  -15.4799 C   0  0  0  0  0  0  0  0  0  0  0  0
   -6.8938    5.3543  -16.8202 C   0  0  0  0  0  0  0  0  0  0  0  0
   -5.8867    5.9569  -17.4077 N   0  0  0  0  0  0  0  0  0  0  0  0
  2  1  1  1
  2  3  1  0
  2  4  1  0
  4  5  1  0
  5  6  2  0
  5  7  1  0
  7  8  1  0
  8  9  2  0
  9 10  1  0
 10 11  1  0
 11 12  2  0
 12 13  1  0
 13 14  2  0
 14 15  1  0
 15 16  2  0
 16  8  1  0
 15 10  1  0
M  END
>  <energy_score>  (3811) 
-12.250093

>  <alias>  (3811) 
KDFBHWJUXDOLDP-UHFFFAOYSA-N-P35-P35-P86-601527

>  <HIPPO Pose ID>  (3811) 
80305

>  <smiles>  (3811) 
CC(Cl)CC(=O)Nc1cn2ncccc2n1

>  <inchikey>  (3811) 
KDFBHWJUXDOLDP-UHFFFAOYSA-N

>  <distance_score>  (3811) 
1.786575

>  <ref_mols>  (3811) 
Z0719a,Z1597a

>  <ref_pdb>  (3811) 
Z0719a

>  <HIPPO Compound ID>  (3811) 
150938

>  <name>  (3811) 
KDFBHWJUXDOLDP-UHFFFAOYSA-N-P35-P35-P86-601527

>  <inspiration_score>  (3811) 
None

$$$$
GMQULILDXRTHMQ-UHFFFAOYSA-N-P86-P35-P86-601527
     RDKit          3D

 16 17  0  0  0  0  0  0  0  0999 V2000
   -3.3178    8.5093  -21.6514 C   0  0  0  0  0  0  0  0  0  0  0  0
   -4.5960    7.6936  -21.8189 C   0  0  1  0  0  0  0  0  0  0  0  0
   -5.2829    8.0366  -23.4438 Cl  0  0  0  0  0  0  0  0  0  0  0  0
   -4.3663    6.2006  -21.6780 C   0  0  0  0  0  0  0  0  0  0  0  0
   -4.3394    5.8773  -20.2034 C   0  0  0  0  0  0  0  0  0  0  0  0
   -3.3634    5.9568  -19.5660 O   0  0  0  0  0  0  0  0  0  0  0  0
   -5.7981    5.5585  -19.7753 N   0  0  0  0  0  0  0  0  0  0  0  0
   -6.3010    5.2041  -18.5739 C   0  0  0  0  0  0  0  0  0  0  0  0
   -7.5613    4.7154  -18.3394 C   0  0  0  0  0  0  0  0  0  0  0  0
   -7.6375    4.6251  -16.9793 N   0  0  0  0  0  0  0  0  0  0  0  0
   -8.7007    4.2799  -16.1663 C   0  0  0  0  0  0  0  0  0  0  0  0
   -8.5375    4.3508  -14.8404 C   0  0  0  0  0  0  0  0  0  0  0  0
   -7.1899    4.7565  -14.3764 C   0  0  0  0  0  0  0  0  0  0  0  0
   -6.1913    5.1071  -15.1177 N   0  0  0  0  0  0  0  0  0  0  0  0
   -6.4118    5.0518  -16.4611 C   0  0  0  0  0  0  0  0  0  0  0  0
   -5.5985    5.3966  -17.4318 N   0  0  0  0  0  0  0  0  0  0  0  0
  2  1  1  6
  2  3  1  0
  2  4  1  0
  4  5  1  0
  5  6  2  0
  5  7  1  0
  7  8  1  0
  8  9  2  0
  9 10  1  0
 10 11  1  0
 11 12  2  0
 12 13  1  0
 13 14  2  0
 14 15  1  0
 15 16  2  0
 16  8  1  0
 15 10  1  0
M  END
>  <energy_score>  (3812) 
-35.421532

>  <alias>  (3812) 
GMQULILDXRTHMQ-UHFFFAOYSA-N-P86-P35-P86-601527

>  <HIPPO Pose ID>  (3812) 
80308

>  <smiles>  (3812) 
CC(Cl)CC(=O)Nc1cn2cccnc2n1

>  <inchikey>  (3812) 
GMQULILDXRTHMQ-UHFFFAOYSA-N

>  <distance_score>  (3812) 
1.555992

>  <ref_mols>  (3812) 
Z0719a,Z1597a

>  <ref_pdb>  (3812) 
Z0719a

>  <HIPPO Compound ID>  (3812) 
150939

>  <name>  (3812) 
GMQULILDXRTHMQ-UHFFFAOYSA-N-P86-P35-P86-601527

>  <inspiration_score>  (3812) 
None

$$$$
TUSSAMSJMLQWOF-UHFFFAOYSA-N-P86-P35-P86-601527
     RDKit          3D

 16 16  0  0  0  0  0  0  0  0999 V2000
   -5.6110    5.7155  -13.2947 C   0  0  0  0  0  0  0  0  0  0  0  0
   -6.0096    4.2947  -13.7186 C   0  0  0  0  0  0  0  0  0  0  0  0
   -5.9540    3.3794  -12.4989 C   0  0  0  0  0  0  0  0  0  0  0  0
   -7.4280    4.3070  -14.3602 C   0  0  0  0  0  0  0  0  0  0  0  0
   -7.5173    4.5115  -15.7965 N   0  0  0  0  0  0  0  0  0  0  0  0
   -8.5995    4.2011  -16.5735 C   0  0  0  0  0  0  0  0  0  0  0  0
   -8.3701    4.4639  -17.8432 N   0  0  0  0  0  0  0  0  0  0  0  0
   -7.1108    4.9671  -17.8795 C   0  0  0  0  0  0  0  0  0  0  0  0
   -6.4964    5.3210  -19.0295 N   0  0  0  0  0  0  0  0  0  0  0  0
   -5.0835    5.9192  -19.2757 C   0  0  0  0  0  0  0  0  0  0  0  0
   -4.2077    6.1250  -18.5294 O   0  0  0  0  0  0  0  0  0  0  0  0
   -4.9573    6.1308  -20.7760 C   0  0  0  0  0  0  0  0  0  0  0  0
   -3.5847    6.6756  -21.1643 C   0  0  1  0  0  0  0  0  0  0  0  0
   -2.4302    5.6968  -20.9592 C   0  0  0  0  0  0  0  0  0  0  0  0
   -3.6210    7.1506  -22.9018 Cl  0  0  0  0  0  0  0  0  0  0  0  0
   -6.5747    5.0415  -16.6248 C   0  0  0  0  0  0  0  0  0  0  0  0
  1  2  1  0
  2  3  1  0
  2  4  1  0
  4  5  1  0
  5  6  1  0
  6  7  2  0
  7  8  1  0
  8  9  1  0
  9 10  1  0
 10 11  2  0
 10 12  1  0
 12 13  1  0
 13 14  1  6
 13 15  1  0
  8 16  2  0
 16  5  1  0
M  END
>  <energy_score>  (3813) 
-25.441967

>  <alias>  (3813) 
TUSSAMSJMLQWOF-UHFFFAOYSA-N-P86-P35-P86-601527

>  <HIPPO Pose ID>  (3813) 
80310

>  <smiles>  (3813) 
CC(C)Cn1cnc(NC(=O)CC(C)Cl)c1

>  <inchikey>  (3813) 
TUSSAMSJMLQWOF-UHFFFAOYSA-N

>  <distance_score>  (3813) 
1.63913

>  <ref_mols>  (3813) 
Z0719a,Z1597a

>  <ref_pdb>  (3813) 
Z0719a

>  <HIPPO Compound ID>  (3813) 
150940

>  <name>  (3813) 
TUSSAMSJMLQWOF-UHFFFAOYSA-N-P86-P35-P86-601527

>  <inspiration_score>  (3813) 
None

$$$$
FBBITJASEIBDPS-UHFFFAOYSA-N-P35-P35-P86-601527
     RDKit          3D

 16 16  0  0  0  0  0  0  0  0999 V2000
   -7.5794    3.3222  -14.3887 C   0  0  0  0  0  0  0  0  0  0  0  0
   -8.0183    3.8882  -15.7192 C   0  0  0  0  0  0  0  0  0  0  0  0
   -8.9684    3.4592  -16.5333 N   0  0  0  0  0  0  0  0  0  0  0  0
   -8.8064    4.1550  -17.7049 C   0  0  0  0  0  0  0  0  0  0  0  0
   -7.7655    5.0482  -17.5974 C   0  0  0  0  0  0  0  0  0  0  0  0
   -7.1532    5.7510  -18.5959 N   0  0  0  0  0  0  0  0  0  0  0  0
   -5.9037    6.6773  -18.5594 C   0  0  0  0  0  0  0  0  0  0  0  0
   -5.2554    7.0405  -17.6556 O   0  0  0  0  0  0  0  0  0  0  0  0
   -5.5540    7.0065  -20.0035 C   0  0  0  0  0  0  0  0  0  0  0  0
   -4.0428    7.1619  -20.1841 C   0  0  1  0  0  0  0  0  0  0  0  0
   -3.2339    5.9383  -19.7572 C   0  0  0  0  0  0  0  0  0  0  0  0
   -3.6774    7.5292  -21.9017 Cl  0  0  0  0  0  0  0  0  0  0  0  0
   -7.4530    5.0228  -16.2620 N   0  0  0  0  0  0  0  0  0  0  0  0
   -6.8620    6.0624  -15.4533 C   0  0  0  0  0  0  0  0  0  0  0  0
   -7.5901    6.2527  -14.1884 C   0  0  0  0  0  0  0  0  0  0  0  0
   -8.1845    6.3453  -13.1947 N   0  0  0  0  0  0  0  0  0  0  0  0
  1  2  1  0
  2  3  2  0
  3  4  1  0
  4  5  2  0
  5  6  1  0
  6  7  1  0
  7  8  2  0
  7  9  1  0
  9 10  1  0
 10 11  1  6
 10 12  1  0
  5 13  1  0
 13 14  1  0
 14 15  1  0
 15 16  3  0
 13  2  1  0
M  END
>  <energy_score>  (3814) 
-9.004621

>  <alias>  (3814) 
FBBITJASEIBDPS-UHFFFAOYSA-N-P35-P35-P86-601527

>  <HIPPO Pose ID>  (3814) 
80313

>  <smiles>  (3814) 
Cc1ncc(NC(=O)CC(C)Cl)n1CC#N

>  <inchikey>  (3814) 
FBBITJASEIBDPS-UHFFFAOYSA-N

>  <distance_score>  (3814) 
1.894484

>  <ref_mols>  (3814) 
Z0719a,Z1597a

>  <ref_pdb>  (3814) 
Z0719a

>  <HIPPO Compound ID>  (3814) 
150942

>  <name>  (3814) 
FBBITJASEIBDPS-UHFFFAOYSA-N-P35-P35-P86-601527

>  <inspiration_score>  (3814) 
None

$$$$
ARORTDLEEPJSET-UHFFFAOYSA-N-P35-P35-P86-601527
     RDKit          3D

 16 16  0  0  0  0  0  0  0  0999 V2000
   -5.7685    5.9405  -14.2806 C   0  0  0  0  0  0  0  0  0  0  0  0
   -5.9768    4.6819  -15.0941 C   0  0  0  0  0  0  0  0  0  0  0  0
   -7.0728    4.7978  -16.0167 N   0  0  0  0  0  0  0  0  0  0  0  0
   -8.3795    4.6333  -15.6085 C   0  0  0  0  0  0  0  0  0  0  0  0
   -8.8027    4.7226  -14.1916 C   0  0  0  0  0  0  0  0  0  0  0  0
   -9.1533    4.3776  -16.6338 N   0  0  0  0  0  0  0  0  0  0  0  0
   -8.3420    4.4723  -17.7290 C   0  0  0  0  0  0  0  0  0  0  0  0
   -8.9161    4.1942  -19.0402 C   0  0  0  0  0  0  0  0  0  0  0  0
   -7.0516    4.8236  -17.3874 C   0  0  0  0  0  0  0  0  0  0  0  0
   -6.0074    5.0694  -18.2427 N   0  0  0  0  0  0  0  0  0  0  0  0
   -4.5977    5.6664  -17.9698 C   0  0  0  0  0  0  0  0  0  0  0  0
   -4.0842    5.9679  -16.9630 O   0  0  0  0  0  0  0  0  0  0  0  0
   -3.8618    5.7562  -19.2975 C   0  0  0  0  0  0  0  0  0  0  0  0
   -4.3581    6.8765  -20.2065 C   0  0  1  0  0  0  0  0  0  0  0  0
   -4.4249    8.2327  -19.5113 C   0  0  0  0  0  0  0  0  0  0  0  0
   -3.2235    7.0141  -21.5976 Cl  0  0  0  0  0  0  0  0  0  0  0  0
  1  2  1  0
  2  3  1  0
  3  4  1  0
  4  5  1  0
  4  6  2  0
  6  7  1  0
  7  8  1  0
  7  9  2  0
  9 10  1  0
 10 11  1  0
 11 12  2  0
 11 13  1  0
 13 14  1  0
 14 15  1  1
 14 16  1  0
  9  3  1  0
M  END
>  <energy_score>  (3815) 
-29.601762

>  <alias>  (3815) 
ARORTDLEEPJSET-UHFFFAOYSA-N-P35-P35-P86-601527

>  <HIPPO Pose ID>  (3815) 
80321

>  <smiles>  (3815) 
CCn1c(C)nc(C)c1NC(=O)CC(C)Cl

>  <inchikey>  (3815) 
ARORTDLEEPJSET-UHFFFAOYSA-N

>  <distance_score>  (3815) 
1.453064

>  <ref_mols>  (3815) 
Z0719a,Z1597a

>  <ref_pdb>  (3815) 
Z0719a

>  <HIPPO Compound ID>  (3815) 
150946

>  <name>  (3815) 
ARORTDLEEPJSET-UHFFFAOYSA-N-P35-P35-P86-601527

>  <inspiration_score>  (3815) 
None

$$$$
CEUHCHOVASDZMN-UHFFFAOYSA-N-P86-P35-P86-601527
     RDKit          3D

 16 17  0  0  0  0  0  0  0  0999 V2000
   -3.1990    6.0034  -20.2956 O   0  0  0  0  0  0  0  0  0  0  0  0
   -4.2384    5.9002  -20.8204 C   0  0  0  0  0  0  0  0  0  0  0  0
   -4.4673    6.3535  -22.2421 C   0  0  0  0  0  0  0  0  0  0  0  0
   -4.7416    7.8378  -22.1573 C   0  0  0  0  0  0  0  0  0  0  0  0
   -5.2917    8.4874  -23.7656 S   0  0  0  0  0  0  0  0  0  0  0  0
   -5.6066    5.4221  -20.2597 N   0  0  0  0  0  0  0  0  0  0  0  0
   -5.9697    5.0884  -19.0052 C   0  0  0  0  0  0  0  0  0  0  0  0
   -7.2244    4.7246  -18.5753 C   0  0  0  0  0  0  0  0  0  0  0  0
   -7.1292    4.7158  -17.2144 N   0  0  0  0  0  0  0  0  0  0  0  0
   -8.1544    4.5618  -16.3391 N   0  0  0  0  0  0  0  0  0  0  0  0
   -7.7643    4.7110  -15.1140 C   0  0  0  0  0  0  0  0  0  0  0  0
   -8.9634    4.6909  -13.9031 Cl  0  0  0  0  0  0  0  0  0  0  0  0
   -6.3848    4.9718  -14.6443 C   0  0  0  0  0  0  0  0  0  0  0  0
   -5.4452    5.1491  -15.5675 C   0  0  0  0  0  0  0  0  0  0  0  0
   -5.8149    5.0453  -16.9151 C   0  0  0  0  0  0  0  0  0  0  0  0
   -5.0932    5.2378  -17.9865 N   0  0  0  0  0  0  0  0  0  0  0  0
  1  2  2  0
  2  3  1  0
  3  4  1  0
  4  5  1  0
  2  6  1  0
  6  7  1  0
  7  8  2  0
  8  9  1  0
  9 10  1  0
 10 11  2  0
 11 12  1  0
 11 13  1  0
 13 14  2  0
 14 15  1  0
 15 16  2  0
 16  7  1  0
 15  9  1  0
M  END
>  <energy_score>  (3816) 
-17.949473

>  <alias>  (3816) 
CEUHCHOVASDZMN-UHFFFAOYSA-N-P86-P35-P86-601527

>  <HIPPO Pose ID>  (3816) 
80326

>  <smiles>  (3816) 
O=C(CCS)Nc1cn2nc(Cl)ccc2n1

>  <inchikey>  (3816) 
CEUHCHOVASDZMN-UHFFFAOYSA-N

>  <distance_score>  (3816) 
1.921808

>  <ref_mols>  (3816) 
Z0719a,Z1597a

>  <ref_pdb>  (3816) 
Z0719a

>  <HIPPO Compound ID>  (3816) 
150948

>  <name>  (3816) 
CEUHCHOVASDZMN-UHFFFAOYSA-N-P86-P35-P86-601527

>  <inspiration_score>  (3816) 
None

$$$$
MHVHHFVLJOJTET-UHFFFAOYSA-N-P35-P35-P86-601527
     RDKit          3D

 16 16  0  0  0  0  0  0  0  0999 V2000
   -8.8895    4.2195  -18.7277 C   0  0  0  0  0  0  0  0  0  0  0  0
   -8.4780    4.6292  -17.3749 C   0  0  0  0  0  0  0  0  0  0  0  0
   -9.4399    4.9896  -16.4797 N   0  0  0  0  0  0  0  0  0  0  0  0
   -8.7895    5.4629  -15.4466 C   0  0  0  0  0  0  0  0  0  0  0  0
   -9.3363    6.2760  -14.3320 C   0  0  0  0  0  0  0  0  0  0  0  0
   -7.4533    5.1341  -15.5297 N   0  0  0  0  0  0  0  0  0  0  0  0
   -6.6756    5.0113  -14.3116 C   0  0  0  0  0  0  0  0  0  0  0  0
   -6.0391    3.6503  -14.1436 C   0  0  0  0  0  0  0  0  0  0  0  0
   -5.7820    6.2075  -14.0275 C   0  0  0  0  0  0  0  0  0  0  0  0
   -7.2114    4.8391  -16.8507 C   0  0  0  0  0  0  0  0  0  0  0  0
   -6.0737    4.8166  -17.6129 N   0  0  0  0  0  0  0  0  0  0  0  0
   -4.6091    5.1705  -17.2469 C   0  0  0  0  0  0  0  0  0  0  0  0
   -4.1347    5.4612  -16.2202 O   0  0  0  0  0  0  0  0  0  0  0  0
   -3.8172    5.1541  -18.5575 C   0  0  0  0  0  0  0  0  0  0  0  0
   -4.2189    6.2279  -19.5749 C   0  0  0  0  0  0  0  0  0  0  0  0
   -3.8858    7.9160  -18.9822 S   0  0  0  0  0  0  0  0  0  0  0  0
  1  2  1  0
  2  3  1  0
  3  4  2  0
  4  5  1  0
  4  6  1  0
  6  7  1  0
  7  8  1  0
  7  9  1  0
  6 10  1  0
 10 11  1  0
 11 12  1  0
 12 13  2  0
 12 14  1  0
 14 15  1  0
 15 16  1  0
 10  2  2  0
M  END
>  <energy_score>  (3817) 
-15.566241

>  <alias>  (3817) 
MHVHHFVLJOJTET-UHFFFAOYSA-N-P35-P35-P86-601527

>  <HIPPO Pose ID>  (3817) 
80327

>  <smiles>  (3817) 
Cc1nc(C)n(C(C)C)c1NC(=O)CCS

>  <inchikey>  (3817) 
MHVHHFVLJOJTET-UHFFFAOYSA-N

>  <distance_score>  (3817) 
1.928633

>  <ref_mols>  (3817) 
Z0719a,Z1597a

>  <ref_pdb>  (3817) 
Z0719a

>  <HIPPO Compound ID>  (3817) 
150949

>  <name>  (3817) 
MHVHHFVLJOJTET-UHFFFAOYSA-N-P35-P35-P86-601527

>  <inspiration_score>  (3817) 
None

$$$$
FIQMZBXVVGVKIG-UHFFFAOYSA-N-P86-P35-P86-601527
     RDKit          3D

 16 17  0  0  0  0  0  0  0  0999 V2000
   -4.7918    7.7941  -21.5732 C   0  0  0  0  0  0  0  0  0  0  0  0
   -3.3499    7.3075  -21.6796 C   0  0  2  0  0  0  0  0  0  0  0  0
   -2.9613    7.0922  -23.4627 S   0  0  0  0  0  0  0  0  0  0  0  0
   -3.0567    5.9973  -20.9605 C   0  0  0  0  0  0  0  0  0  0  0  0
   -3.2351    6.1294  -19.4601 C   0  0  0  0  0  0  0  0  0  0  0  0
   -2.3772    6.4573  -18.7389 O   0  0  0  0  0  0  0  0  0  0  0  0
   -4.7114    5.7527  -19.1617 N   0  0  0  0  0  0  0  0  0  0  0  0
   -5.3613    5.6202  -17.9867 C   0  0  0  0  0  0  0  0  0  0  0  0
   -6.7045    5.3809  -17.8823 C   0  0  0  0  0  0  0  0  0  0  0  0
   -6.9022    5.1115  -16.5635 N   0  0  0  0  0  0  0  0  0  0  0  0
   -8.1073    4.7016  -15.8712 C   0  0  0  0  0  0  0  0  0  0  0  0
   -9.1373    3.9138  -16.6107 C   0  0  0  0  0  0  0  0  0  0  0  0
   -9.8760    4.3532  -17.8566 C   0  0  0  0  0  0  0  0  0  0  0  0
   -8.9650    3.1714  -17.9117 C   0  0  0  0  0  0  0  0  0  0  0  0
   -5.7141    5.3405  -15.9217 C   0  0  0  0  0  0  0  0  0  0  0  0
   -4.7674    5.6614  -16.7705 N   0  0  0  0  0  0  0  0  0  0  0  0
  2  1  1  6
  2  3  1  0
  2  4  1  0
  4  5  1  0
  5  6  2  0
  5  7  1  0
  7  8  1  0
  8  9  2  0
  9 10  1  0
 10 11  1  0
 11 12  1  0
 12 13  1  0
 13 14  1  0
 10 15  1  0
 15 16  2  0
 16  8  1  0
 14 12  1  0
M  END
>  <energy_score>  (3818) 
-5.733248

>  <alias>  (3818) 
FIQMZBXVVGVKIG-UHFFFAOYSA-N-P86-P35-P86-601527

>  <HIPPO Pose ID>  (3818) 
80334

>  <smiles>  (3818) 
CC(S)CC(=O)Nc1cn(CC2CC2)cn1

>  <inchikey>  (3818) 
FIQMZBXVVGVKIG-UHFFFAOYSA-N

>  <distance_score>  (3818) 
1.781143

>  <ref_mols>  (3818) 
Z0719a,Z1597a

>  <ref_pdb>  (3818) 
Z0719a

>  <HIPPO Compound ID>  (3818) 
150952

>  <name>  (3818) 
FIQMZBXVVGVKIG-UHFFFAOYSA-N-P86-P35-P86-601527

>  <inspiration_score>  (3818) 
None

$$$$
MPEMYWNPNTWWNK-UHFFFAOYSA-M-P35-P35-P86-601527
     RDKit          3D

 16 16  0  0  0  0  0  0  0  0999 V2000
   -4.9382    7.0455  -19.7008 C   0  0  0  0  0  0  0  0  0  0  0  0
   -3.6186    6.3302  -19.4261 C   0  0  2  0  0  0  0  0  0  0  0  0
   -2.5477    6.4480  -20.9163 S   0  0  0  0  0  0  0  0  0  0  0  0
   -3.7776    4.8610  -19.0191 C   0  0  0  0  0  0  0  0  0  0  0  0
   -4.1618    4.6930  -17.5481 C   0  0  0  0  0  0  0  0  0  0  0  0
   -3.3692    4.6005  -16.6965 O   0  0  0  0  0  0  0  0  0  0  0  0
   -5.7083    4.7424  -17.4793 N   0  0  0  0  0  0  0  0  0  0  0  0
   -6.5499    4.6016  -16.4219 C   0  0  0  0  0  0  0  0  0  0  0  0
   -7.8126    5.0543  -16.7646 N   0  0  0  0  0  0  0  0  0  0  0  0
   -8.5708    4.8258  -15.7256 C   0  0  0  0  0  0  0  0  0  0  0  0
   -7.8448    4.3209  -14.7017 N   0  0  0  0  0  0  0  0  0  0  0  0
   -8.2826    4.1649  -13.3362 C   0  0  0  0  0  0  0  0  0  0  0  0
   -6.5612    4.0919  -15.1415 C   0  0  0  0  0  0  0  0  0  0  0  0
   -5.5833    3.2611  -14.2473 C   0  0  0  0  0  0  0  0  0  0  0  0
   -6.1052    2.2430  -13.6835 O   0  0  0  0  0  0  0  0  0  0  0  0
   -4.4010    3.6678  -14.0773 O   0  0  0  0  0  0  0  0  0  0  0  0
  2  1  1  6
  2  3  1  0
  2  4  1  0
  4  5  1  0
  5  6  2  0
  5  7  1  0
  7  8  1  0
  8  9  1  0
  9 10  2  0
 10 11  1  0
 11 12  1  0
 11 13  1  0
 13 14  1  0
 14 15  2  0
 14 16  1  0
 13  8  2  0
M  CHG  1  16  -1
M  END
>  <energy_score>  (3819) 
-18.797798

>  <alias>  (3819) 
MPEMYWNPNTWWNK-UHFFFAOYSA-M-P35-P35-P86-601527

>  <HIPPO Pose ID>  (3819) 
80337

>  <smiles>  (3819) 
CC(S)CC(=O)Nc1ncn(C)c1C(=O)[O-]

>  <inchikey>  (3819) 
MPEMYWNPNTWWNK-UHFFFAOYSA-M

>  <distance_score>  (3819) 
1.761435

>  <ref_mols>  (3819) 
Z0719a,Z1597a

>  <ref_pdb>  (3819) 
Z0719a

>  <HIPPO Compound ID>  (3819) 
150954

>  <name>  (3819) 
MPEMYWNPNTWWNK-UHFFFAOYSA-M-P35-P35-P86-601527

>  <inspiration_score>  (3819) 
None

$$$$
NVTYMUMDEICCJY-UHFFFAOYSA-N-P35-P35-P86-601527
     RDKit          3D

 16 17  0  0  0  0  0  0  0  0999 V2000
   -2.9107    7.4571  -23.4512 C   0  0  0  0  0  0  0  0  0  0  0  0
   -3.8590    7.4416  -22.7138 C   0  0  0  0  0  0  0  0  0  0  0  0
   -5.0331    7.4420  -21.8330 C   0  0  0  0  0  0  0  0  0  0  0  0
   -4.7083    6.7729  -20.5011 C   0  0  0  0  0  0  0  0  0  0  0  0
   -3.6417    6.8031  -20.0184 O   0  0  0  0  0  0  0  0  0  0  0  0
   -6.0464    6.1978  -19.9540 N   0  0  0  0  0  0  0  0  0  0  0  0
   -6.3056    5.5098  -18.8273 C   0  0  0  0  0  0  0  0  0  0  0  0
   -7.5394    5.0759  -18.4075 C   0  0  0  0  0  0  0  0  0  0  0  0
   -7.3392    4.7310  -17.1064 N   0  0  0  0  0  0  0  0  0  0  0  0
   -8.3084    4.6257  -16.1654 N   0  0  0  0  0  0  0  0  0  0  0  0
   -7.8040    4.4996  -14.9815 C   0  0  0  0  0  0  0  0  0  0  0  0
   -8.8704    4.7147  -13.6690 Cl  0  0  0  0  0  0  0  0  0  0  0  0
   -6.3776    4.2957  -14.6394 C   0  0  0  0  0  0  0  0  0  0  0  0
   -5.4891    4.4695  -15.6139 C   0  0  0  0  0  0  0  0  0  0  0  0
   -5.9698    4.7935  -16.8898 C   0  0  0  0  0  0  0  0  0  0  0  0
   -5.3264    5.2628  -17.9252 N   0  0  0  0  0  0  0  0  0  0  0  0
  1  2  3  0
  2  3  1  0
  3  4  1  0
  4  5  2  0
  4  6  1  0
  6  7  1  0
  7  8  2  0
  8  9  1  0
  9 10  1  0
 10 11  2  0
 11 12  1  0
 11 13  1  0
 13 14  2  0
 14 15  1  0
 15 16  2  0
 16  7  1  0
 15  9  1  0
M  END
>  <energy_score>  (3820) 
-25.94462

>  <alias>  (3820) 
NVTYMUMDEICCJY-UHFFFAOYSA-N-P35-P35-P86-601527

>  <HIPPO Pose ID>  (3820) 
80347

>  <smiles>  (3820) 
C#CCC(=O)Nc1cn2nc(Cl)ccc2n1

>  <inchikey>  (3820) 
NVTYMUMDEICCJY-UHFFFAOYSA-N

>  <distance_score>  (3820) 
1.958712

>  <ref_mols>  (3820) 
Z0719a,Z1597a

>  <ref_pdb>  (3820) 
Z0719a

>  <HIPPO Compound ID>  (3820) 
150959

>  <name>  (3820) 
NVTYMUMDEICCJY-UHFFFAOYSA-N-P35-P35-P86-601527

>  <inspiration_score>  (3820) 
None

$$$$
YDGZDJYTOMEFFK-UHFFFAOYSA-N-P35-P35-P86-601527
     RDKit          3D

 16 16  0  0  0  0  0  0  0  0999 V2000
   -4.3026    7.1492  -20.4783 C   0  0  0  0  0  0  0  0  0  0  0  0
   -4.0253    6.2952  -19.6810 C   0  0  0  0  0  0  0  0  0  0  0  0
   -3.6961    5.2393  -18.7045 C   0  0  0  0  0  0  0  0  0  0  0  0
   -4.5274    5.3069  -17.4198 C   0  0  0  0  0  0  0  0  0  0  0  0
   -4.0706    5.5943  -16.3812 O   0  0  0  0  0  0  0  0  0  0  0  0
   -5.9793    4.8940  -17.8042 N   0  0  0  0  0  0  0  0  0  0  0  0
   -7.1197    4.8464  -17.0480 C   0  0  0  0  0  0  0  0  0  0  0  0
   -8.3973    4.6101  -17.5190 C   0  0  0  0  0  0  0  0  0  0  0  0
   -8.8538    4.2137  -18.8555 C   0  0  0  0  0  0  0  0  0  0  0  0
   -9.3267    4.9004  -16.5622 N   0  0  0  0  0  0  0  0  0  0  0  0
   -8.6410    5.3437  -15.5349 C   0  0  0  0  0  0  0  0  0  0  0  0
   -9.1813    6.1070  -14.3875 C   0  0  0  0  0  0  0  0  0  0  0  0
   -7.3074    5.0421  -15.6971 N   0  0  0  0  0  0  0  0  0  0  0  0
   -6.4115    4.7170  -14.5980 C   0  0  0  0  0  0  0  0  0  0  0  0
   -7.0380    3.7381  -13.5900 C   0  0  0  0  0  0  0  0  0  0  0  0
   -5.8744    5.9514  -13.8829 C   0  0  0  0  0  0  0  0  0  0  0  0
  1  2  3  0
  2  3  1  0
  3  4  1  0
  4  5  2  0
  4  6  1  0
  6  7  1  0
  7  8  2  0
  8  9  1  0
  8 10  1  0
 10 11  2  0
 11 12  1  0
 11 13  1  0
 13 14  1  0
 14 15  1  0
 14 16  1  0
 13  7  1  0
M  END
>  <energy_score>  (3821) 
-33.74149

>  <alias>  (3821) 
YDGZDJYTOMEFFK-UHFFFAOYSA-N-P35-P35-P86-601527

>  <HIPPO Pose ID>  (3821) 
80349

>  <smiles>  (3821) 
C#CCC(=O)Nc1c(C)nc(C)n1C(C)C

>  <inchikey>  (3821) 
YDGZDJYTOMEFFK-UHFFFAOYSA-N

>  <distance_score>  (3821) 
1.689525

>  <ref_mols>  (3821) 
Z0719a,Z1597a

>  <ref_pdb>  (3821) 
Z0719a

>  <HIPPO Compound ID>  (3821) 
150960

>  <name>  (3821) 
YDGZDJYTOMEFFK-UHFFFAOYSA-N-P35-P35-P86-601527

>  <inspiration_score>  (3821) 
None

$$$$
MPNCQIIKCOGFGS-UHFFFAOYSA-N-P35-P35-P86-601527
     RDKit          3D

 16 17  0  0  0  0  0  0  0  0999 V2000
   -4.6517    7.6016  -20.8258 C   0  0  0  0  0  0  0  0  0  0  0  0
   -4.2213    6.7304  -20.1202 C   0  0  0  0  0  0  0  0  0  0  0  0
   -3.7003    5.6484  -19.2718 C   0  0  0  0  0  0  0  0  0  0  0  0
   -4.3872    5.5365  -17.9112 C   0  0  0  0  0  0  0  0  0  0  0  0
   -3.8111    5.6923  -16.9044 O   0  0  0  0  0  0  0  0  0  0  0  0
   -5.8590    5.0990  -18.1747 N   0  0  0  0  0  0  0  0  0  0  0  0
   -6.8938    4.8686  -17.2965 C   0  0  0  0  0  0  0  0  0  0  0  0
   -8.1756    4.4707  -17.6658 C   0  0  0  0  0  0  0  0  0  0  0  0
   -8.7337    4.2051  -18.9943 C   0  0  0  0  0  0  0  0  0  0  0  0
   -8.9970    4.2923  -16.5908 N   0  0  0  0  0  0  0  0  0  0  0  0
   -8.2355    4.5829  -15.5716 C   0  0  0  0  0  0  0  0  0  0  0  0
   -8.6199    4.6049  -14.1960 C   0  0  0  0  0  0  0  0  0  0  0  0
   -7.8098    4.9659  -13.2404 N   0  0  0  0  0  0  0  0  0  0  0  0
   -6.5217    5.2658  -13.6123 C   0  0  0  0  0  0  0  0  0  0  0  0
   -6.0807    5.2635  -14.8816 C   0  0  0  0  0  0  0  0  0  0  0  0
   -6.9502    4.9352  -15.9131 N   0  0  0  0  0  0  0  0  0  0  0  0
  1  2  3  0
  2  3  1  0
  3  4  1  0
  4  5  2  0
  4  6  1  0
  6  7  1  0
  7  8  2  0
  8  9  1  0
  8 10  1  0
 10 11  2  0
 11 12  1  0
 12 13  2  0
 13 14  1  0
 14 15  2  0
 15 16  1  0
 16  7  1  0
 16 11  1  0
M  END
>  <energy_score>  (3822) 
-19.49984

>  <alias>  (3822) 
MPNCQIIKCOGFGS-UHFFFAOYSA-N-P35-P35-P86-601527

>  <HIPPO Pose ID>  (3822) 
80353

>  <smiles>  (3822) 
C#CCC(=O)Nc1c(C)nc2cnccn12

>  <inchikey>  (3822) 
MPNCQIIKCOGFGS-UHFFFAOYSA-N

>  <distance_score>  (3822) 
1.600103

>  <ref_mols>  (3822) 
Z0719a,Z1597a

>  <ref_pdb>  (3822) 
Z0719a

>  <HIPPO Compound ID>  (3822) 
150962

>  <name>  (3822) 
MPNCQIIKCOGFGS-UHFFFAOYSA-N-P35-P35-P86-601527

>  <inspiration_score>  (3822) 
None

$$$$
DAKCIUHHIUZCOR-UHFFFAOYSA-N-P86-P35-P86-601527
     RDKit          3D

 16 17  0  0  0  0  0  0  0  0999 V2000
   -2.2516    8.1591  -21.7481 C   0  0  0  0  0  0  0  0  0  0  0  0
   -3.7061    7.8375  -22.0877 C   0  0  2  0  0  0  0  0  0  0  0  0
   -4.8085    9.1253  -21.3965 S   0  0  0  0  0  0  0  0  0  0  0  0
   -4.1403    6.4222  -21.7275 C   0  0  0  0  0  0  0  0  0  0  0  0
   -4.2493    6.1875  -20.2322 C   0  0  0  0  0  0  0  0  0  0  0  0
   -3.4229    6.5405  -19.4858 O   0  0  0  0  0  0  0  0  0  0  0  0
   -5.5915    5.4551  -19.9728 N   0  0  0  0  0  0  0  0  0  0  0  0
   -6.1940    5.1155  -18.8153 C   0  0  0  0  0  0  0  0  0  0  0  0
   -7.4200    4.5153  -18.6807 C   0  0  0  0  0  0  0  0  0  0  0  0
   -7.6410    4.4891  -17.3389 N   0  0  0  0  0  0  0  0  0  0  0  0
   -8.7840    4.0852  -16.7362 N   0  0  0  0  0  0  0  0  0  0  0  0
   -8.7302    4.2507  -15.4558 C   0  0  0  0  0  0  0  0  0  0  0  0
   -7.5931    4.7656  -14.6642 C   0  0  0  0  0  0  0  0  0  0  0  0
   -6.5085    5.1506  -15.3367 C   0  0  0  0  0  0  0  0  0  0  0  0
   -6.5202    5.0449  -16.7384 C   0  0  0  0  0  0  0  0  0  0  0  0
   -5.6285    5.4212  -17.6202 N   0  0  0  0  0  0  0  0  0  0  0  0
  2  1  1  1
  2  3  1  0
  2  4  1  0
  4  5  1  0
  5  6  2  0
  5  7  1  0
  7  8  1  0
  8  9  2  0
  9 10  1  0
 10 11  1  0
 11 12  2  0
 12 13  1  0
 13 14  2  0
 14 15  1  0
 15 16  2  0
 16  8  1  0
 15 10  1  0
M  END
>  <energy_score>  (3823) 
-23.947641

>  <alias>  (3823) 
DAKCIUHHIUZCOR-UHFFFAOYSA-N-P86-P35-P86-601527

>  <HIPPO Pose ID>  (3823) 
80362

>  <smiles>  (3823) 
CC(S)CC(=O)Nc1cn2ncccc2n1

>  <inchikey>  (3823) 
DAKCIUHHIUZCOR-UHFFFAOYSA-N

>  <distance_score>  (3823) 
1.614834

>  <ref_mols>  (3823) 
Z0719a,Z1597a

>  <ref_pdb>  (3823) 
Z0719a

>  <HIPPO Compound ID>  (3823) 
150966

>  <name>  (3823) 
DAKCIUHHIUZCOR-UHFFFAOYSA-N-P86-P35-P86-601527

>  <inspiration_score>  (3823) 
None

$$$$
BGXKVRLBRYSOSO-UHFFFAOYSA-N-P86-P35-P86-601527
     RDKit          3D

 16 17  0  0  0  0  0  0  0  0999 V2000
   -3.6374    8.6742  -21.1203 C   0  0  0  0  0  0  0  0  0  0  0  0
   -3.4759    7.3559  -21.8736 C   0  0  2  0  0  0  0  0  0  0  0  0
   -5.0595    6.8967  -22.6560 S   0  0  0  0  0  0  0  0  0  0  0  0
   -2.8388    6.2371  -21.0519 C   0  0  0  0  0  0  0  0  0  0  0  0
   -3.3721    6.1450  -19.6373 C   0  0  0  0  0  0  0  0  0  0  0  0
   -2.7941    6.5925  -18.7261 O   0  0  0  0  0  0  0  0  0  0  0  0
   -4.7433    5.4226  -19.7017 N   0  0  0  0  0  0  0  0  0  0  0  0
   -5.6669    5.2017  -18.7358 C   0  0  0  0  0  0  0  0  0  0  0  0
   -6.8529    4.5297  -18.8807 C   0  0  0  0  0  0  0  0  0  0  0  0
   -7.4096    4.5410  -17.6357 N   0  0  0  0  0  0  0  0  0  0  0  0
   -8.6111    4.0263  -17.1995 C   0  0  0  0  0  0  0  0  0  0  0  0
   -8.9126    4.1476  -15.9056 C   0  0  0  0  0  0  0  0  0  0  0  0
   -7.9022    4.8195  -15.0552 C   0  0  0  0  0  0  0  0  0  0  0  0
   -6.7900    5.3460  -15.4544 N   0  0  0  0  0  0  0  0  0  0  0  0
   -6.5253    5.2072  -16.7862 C   0  0  0  0  0  0  0  0  0  0  0  0
   -5.4882    5.6461  -17.4647 N   0  0  0  0  0  0  0  0  0  0  0  0
  2  1  1  1
  2  3  1  0
  2  4  1  0
  4  5  1  0
  5  6  2  0
  5  7  1  0
  7  8  1  0
  8  9  2  0
  9 10  1  0
 10 11  1  0
 11 12  2  0
 12 13  1  0
 13 14  2  0
 14 15  1  0
 15 16  2  0
 16  8  1  0
 15 10  1  0
M  END
>  <energy_score>  (3824) 
-35.04768

>  <alias>  (3824) 
BGXKVRLBRYSOSO-UHFFFAOYSA-N-P86-P35-P86-601527

>  <HIPPO Pose ID>  (3824) 
80364

>  <smiles>  (3824) 
CC(S)CC(=O)Nc1cn2cccnc2n1

>  <inchikey>  (3824) 
BGXKVRLBRYSOSO-UHFFFAOYSA-N

>  <distance_score>  (3824) 
1.656905

>  <ref_mols>  (3824) 
Z0719a,Z1597a

>  <ref_pdb>  (3824) 
Z0719a

>  <HIPPO Compound ID>  (3824) 
150967

>  <name>  (3824) 
BGXKVRLBRYSOSO-UHFFFAOYSA-N-P86-P35-P86-601527

>  <inspiration_score>  (3824) 
None

$$$$
JTLHFWSACXAVNR-UHFFFAOYSA-N-P86-P35-P86-601527
     RDKit          3D

 16 17  0  0  0  0  0  0  0  0999 V2000
   -2.9353    6.9846  -18.8852 O   0  0  0  0  0  0  0  0  0  0  0  0
   -3.3752    6.2819  -19.7111 C   0  0  0  0  0  0  0  0  0  0  0  0
   -4.6456    5.3727  -19.6946 N   0  0  0  0  0  0  0  0  0  0  0  0
   -5.6136    5.2306  -18.7557 C   0  0  0  0  0  0  0  0  0  0  0  0
   -6.7835    4.5277  -18.8905 C   0  0  0  0  0  0  0  0  0  0  0  0
   -7.3626    4.5804  -17.6557 N   0  0  0  0  0  0  0  0  0  0  0  0
   -8.5498    4.0382  -17.2092 C   0  0  0  0  0  0  0  0  0  0  0  0
   -8.8655    4.1862  -15.9208 C   0  0  0  0  0  0  0  0  0  0  0  0
   -7.8844    4.9232  -15.0892 C   0  0  0  0  0  0  0  0  0  0  0  0
   -6.7897    5.4782  -15.4996 N   0  0  0  0  0  0  0  0  0  0  0  0
   -6.5085    5.3083  -16.8247 C   0  0  0  0  0  0  0  0  0  0  0  0
   -5.4781    5.7540  -17.5098 N   0  0  0  0  0  0  0  0  0  0  0  0
   -2.7153    6.0557  -21.0700 C   0  0  2  0  0  0  0  0  0  0  0  0
   -0.8857    6.7908  -21.0354 Br  0  0  0  0  0  0  0  0  0  0  0  0
   -3.4881    6.7512  -22.1780 C   0  0  0  0  0  0  0  0  0  0  0  0
   -2.8502    6.5383  -23.4492 O   0  0  0  0  0  0  0  0  0  0  0  0
  1  2  2  0
  2  3  1  0
  3  4  1  0
  4  5  2  0
  5  6  1  0
  6  7  1  0
  7  8  2  0
  8  9  1  0
  9 10  2  0
 10 11  1  0
 11 12  2  0
  2 13  1  0
 13 14  1  1
 13 15  1  0
 15 16  1  0
 12  4  1  0
 11  6  1  0
M  END
>  <energy_score>  (3825) 
-26.561635

>  <alias>  (3825) 
JTLHFWSACXAVNR-UHFFFAOYSA-N-P86-P35-P86-601527

>  <HIPPO Pose ID>  (3825) 
80368

>  <smiles>  (3825) 
O=C(Nc1cn2cccnc2n1)C(Br)CO

>  <inchikey>  (3825) 
JTLHFWSACXAVNR-UHFFFAOYSA-N

>  <distance_score>  (3825) 
1.761491

>  <ref_mols>  (3825) 
Z0719a,Z1597a

>  <ref_pdb>  (3825) 
Z0719a

>  <HIPPO Compound ID>  (3825) 
150969

>  <name>  (3825) 
JTLHFWSACXAVNR-UHFFFAOYSA-N-P86-P35-P86-601527

>  <inspiration_score>  (3825) 
None

$$$$
YYXMAQXCYOCPCO-UHFFFAOYSA-N-P35-P35-P86-601527
     RDKit          3D

 16 16  0  0  0  0  0  0  0  0999 V2000
   -3.2747    7.7140  -22.1481 C   0  0  0  0  0  0  0  0  0  0  0  0
   -4.2018    7.3911  -21.4557 C   0  0  0  0  0  0  0  0  0  0  0  0
   -5.3573    7.0165  -20.6194 C   0  0  0  0  0  0  0  0  0  0  0  0
   -4.9620    6.1197  -19.4457 C   0  0  0  0  0  0  0  0  0  0  0  0
   -3.8482    5.8721  -19.1737 O   0  0  0  0  0  0  0  0  0  0  0  0
   -6.2897    5.7491  -18.7103 N   0  0  0  0  0  0  0  0  0  0  0  0
   -6.4935    5.1262  -17.5272 C   0  0  0  0  0  0  0  0  0  0  0  0
   -5.5157    4.6522  -16.6997 C   0  0  0  0  0  0  0  0  0  0  0  0
   -6.1639    4.1832  -15.5871 N   0  0  0  0  0  0  0  0  0  0  0  0
   -5.4596    3.7102  -14.4037 C   0  0  0  0  0  0  0  0  0  0  0  0
   -6.2685    2.9694  -13.3757 C   0  0  0  0  0  0  0  0  0  0  0  0
   -7.3457    3.6925  -13.0250 F   0  0  0  0  0  0  0  0  0  0  0  0
   -6.6723    1.7512  -13.7797 F   0  0  0  0  0  0  0  0  0  0  0  0
   -5.5214    2.7935  -12.2588 F   0  0  0  0  0  0  0  0  0  0  0  0
   -7.5035    4.3577  -15.8157 C   0  0  0  0  0  0  0  0  0  0  0  0
   -7.7211    4.9620  -16.9693 N   0  0  0  0  0  0  0  0  0  0  0  0
  1  2  3  0
  2  3  1  0
  3  4  1  0
  4  5  2  0
  4  6  1  0
  6  7  1  0
  7  8  2  0
  8  9  1  0
  9 10  1  0
 10 11  1  0
 11 12  1  0
 11 13  1  0
 11 14  1  0
  9 15  1  0
 15 16  2  0
 16  7  1  0
M  END
>  <energy_score>  (3826) 
-31.992392

>  <alias>  (3826) 
YYXMAQXCYOCPCO-UHFFFAOYSA-N-P35-P35-P86-601527

>  <HIPPO Pose ID>  (3826) 
80377

>  <smiles>  (3826) 
C#CCC(=O)Nc1cn(CC(F)(F)F)cn1

>  <inchikey>  (3826) 
YYXMAQXCYOCPCO-UHFFFAOYSA-N

>  <distance_score>  (3826) 
1.922196

>  <ref_mols>  (3826) 
Z0719a,Z1597a

>  <ref_pdb>  (3826) 
Z0719a

>  <HIPPO Compound ID>  (3826) 
150974

>  <name>  (3826) 
YYXMAQXCYOCPCO-UHFFFAOYSA-N-P35-P35-P86-601527

>  <inspiration_score>  (3826) 
None

$$$$
JSAXBLZPSNJQIK-UHFFFAOYSA-N-P86-P35-P86-601528
     RDKit          3D

 16 16  0  0  0  0  0  0  0  0999 V2000
   -4.6588    7.1138  -21.3321 C   0  0  0  0  0  0  0  0  0  0  0  0
   -4.1680    6.5668  -20.3822 C   0  0  0  0  0  0  0  0  0  0  0  0
   -3.5700    5.8641  -19.2312 C   0  0  0  0  0  0  0  0  0  0  0  0
   -4.4313    5.8807  -17.9611 C   0  0  0  0  0  0  0  0  0  0  0  0
   -4.0072    6.2072  -16.9193 O   0  0  0  0  0  0  0  0  0  0  0  0
   -5.8326    5.3145  -18.3496 N   0  0  0  0  0  0  0  0  0  0  0  0
   -6.9025    4.9658  -17.5631 C   0  0  0  0  0  0  0  0  0  0  0  0
   -8.0241    4.2985  -18.0281 C   0  0  0  0  0  0  0  0  0  0  0  0
   -8.3372    3.7934  -19.3579 C   0  0  0  0  0  0  0  0  0  0  0  0
   -8.9112    4.0194  -17.0408 N   0  0  0  0  0  0  0  0  0  0  0  0
   -8.3638    4.5048  -15.9601 C   0  0  0  0  0  0  0  0  0  0  0  0
   -8.9595    4.4408  -14.6211 C   0  0  0  0  0  0  0  0  0  0  0  0
   -7.1551    5.1160  -16.2236 N   0  0  0  0  0  0  0  0  0  0  0  0
   -6.4897    5.8664  -15.1901 C   0  0  0  0  0  0  0  0  0  0  0  0
   -5.9310    4.9994  -14.0636 C   0  0  0  0  0  0  0  0  0  0  0  0
   -6.4786    5.3784  -12.6913 C   0  0  0  0  0  0  0  0  0  0  0  0
  1  2  3  0
  2  3  1  0
  3  4  1  0
  4  5  2  0
  4  6  1  0
  6  7  1  0
  7  8  2  0
  8  9  1  0
  8 10  1  0
 10 11  2  0
 11 12  1  0
 11 13  1  0
 13 14  1  0
 14 15  1  0
 15 16  1  0
 13  7  1  0
M  END
>  <energy_score>  (3827) 
-19.418805

>  <alias>  (3827) 
JSAXBLZPSNJQIK-UHFFFAOYSA-N-P86-P35-P86-601528

>  <HIPPO Pose ID>  (3827) 
80382

>  <smiles>  (3827) 
C#CCC(=O)Nc1c(C)nc(C)n1CCC

>  <inchikey>  (3827) 
JSAXBLZPSNJQIK-UHFFFAOYSA-N

>  <distance_score>  (3827) 
1.479591

>  <ref_mols>  (3827) 
Z0719a,Z1597a

>  <ref_pdb>  (3827) 
Z0719a

>  <HIPPO Compound ID>  (3827) 
150976

>  <name>  (3827) 
JSAXBLZPSNJQIK-UHFFFAOYSA-N-P86-P35-P86-601528

>  <inspiration_score>  (3827) 
None

$$$$
DESOEPLVWZOWLY-UHFFFAOYSA-N-P35-P35-P86-601528
     RDKit          3D

 16 16  0  0  0  0  0  0  0  0999 V2000
   -7.5777    3.3162  -14.3583 C   0  0  0  0  0  0  0  0  0  0  0  0
   -7.8782    3.9183  -15.7079 C   0  0  0  0  0  0  0  0  0  0  0  0
   -8.7183    3.5348  -16.6560 N   0  0  0  0  0  0  0  0  0  0  0  0
   -8.3272    4.2180  -17.7892 C   0  0  0  0  0  0  0  0  0  0  0  0
   -7.2887    5.0762  -17.4961 C   0  0  0  0  0  0  0  0  0  0  0  0
   -6.4085    5.7079  -18.3287 N   0  0  0  0  0  0  0  0  0  0  0  0
   -5.1797    6.6157  -18.0046 C   0  0  0  0  0  0  0  0  0  0  0  0
   -4.7843    7.0209  -16.9769 O   0  0  0  0  0  0  0  0  0  0  0  0
   -4.3727    6.8854  -19.2839 C   0  0  1  0  0  0  0  0  0  0  0  0
   -3.2424    5.3057  -19.5497 Br  0  0  0  0  0  0  0  0  0  0  0  0
   -5.1372    7.2468  -20.5402 C   0  0  0  0  0  0  0  0  0  0  0  0
   -4.2548    7.7294  -21.5537 O   0  0  0  0  0  0  0  0  0  0  0  0
   -7.2703    5.0781  -16.1281 N   0  0  0  0  0  0  0  0  0  0  0  0
   -6.9135    6.1362  -15.2169 C   0  0  0  0  0  0  0  0  0  0  0  0
   -7.9012    6.2572  -14.1311 C   0  0  0  0  0  0  0  0  0  0  0  0
   -8.6789    6.2971  -13.2694 N   0  0  0  0  0  0  0  0  0  0  0  0
  1  2  1  0
  2  3  2  0
  3  4  1  0
  4  5  2  0
  5  6  1  0
  6  7  1  0
  7  8  2  0
  7  9  1  0
  9 10  1  6
  9 11  1  0
 11 12  1  0
  5 13  1  0
 13 14  1  0
 14 15  1  0
 15 16  3  0
 13  2  1  0
M  END
>  <energy_score>  (3828) 
-9.581749

>  <alias>  (3828) 
DESOEPLVWZOWLY-UHFFFAOYSA-N-P35-P35-P86-601528

>  <HIPPO Pose ID>  (3828) 
80387

>  <smiles>  (3828) 
Cc1ncc(NC(=O)C(Br)CO)n1CC#N

>  <inchikey>  (3828) 
DESOEPLVWZOWLY-UHFFFAOYSA-N

>  <distance_score>  (3828) 
1.799168

>  <ref_mols>  (3828) 
Z0719a,Z1597a

>  <ref_pdb>  (3828) 
Z0719a

>  <HIPPO Compound ID>  (3828) 
150979

>  <name>  (3828) 
DESOEPLVWZOWLY-UHFFFAOYSA-N-P35-P35-P86-601528

>  <inspiration_score>  (3828) 
None

$$$$
RUFWYNOFUSORNJ-UHFFFAOYSA-M-P35-P35-P86-601528
     RDKit          3D

 16 16  0  0  0  0  0  0  0  0999 V2000
   -8.2221    4.0352  -13.2550 C   0  0  0  0  0  0  0  0  0  0  0  0
   -7.8142    4.3016  -14.6140 N   0  0  0  0  0  0  0  0  0  0  0  0
   -8.5504    4.9340  -15.5552 C   0  0  0  0  0  0  0  0  0  0  0  0
   -7.8093    5.2685  -16.5759 N   0  0  0  0  0  0  0  0  0  0  0  0
   -6.5486    4.7538  -16.3232 C   0  0  0  0  0  0  0  0  0  0  0  0
   -5.7491    5.0017  -17.3948 N   0  0  0  0  0  0  0  0  0  0  0  0
   -4.2407    4.6918  -17.6243 C   0  0  0  0  0  0  0  0  0  0  0  0
   -3.4398    4.2468  -16.8982 O   0  0  0  0  0  0  0  0  0  0  0  0
   -3.9903    5.0022  -19.1210 C   0  0  2  0  0  0  0  0  0  0  0  0
   -2.0719    4.7673  -19.5233 Br  0  0  0  0  0  0  0  0  0  0  0  0
   -4.3724    6.3987  -19.6096 C   0  0  0  0  0  0  0  0  0  0  0  0
   -5.7829    6.5519  -19.7526 O   0  0  0  0  0  0  0  0  0  0  0  0
   -6.5381    4.1183  -15.0998 C   0  0  0  0  0  0  0  0  0  0  0  0
   -5.5251    3.2835  -14.2531 C   0  0  0  0  0  0  0  0  0  0  0  0
   -6.0078    2.2290  -13.7211 O   0  0  0  0  0  0  0  0  0  0  0  0
   -4.3579    3.7294  -14.0744 O   0  0  0  0  0  0  0  0  0  0  0  0
  1  2  1  0
  2  3  1  0
  3  4  2  0
  4  5  1  0
  5  6  1  0
  6  7  1  0
  7  8  2  0
  7  9  1  0
  9 10  1  1
  9 11  1  0
 11 12  1  0
  5 13  2  0
 13 14  1  0
 14 15  2  0
 14 16  1  0
 13  2  1  0
M  CHG  1  16  -1
M  END
>  <energy_score>  (3829) 
-16.597038

>  <alias>  (3829) 
RUFWYNOFUSORNJ-UHFFFAOYSA-M-P35-P35-P86-601528

>  <HIPPO Pose ID>  (3829) 
80393

>  <smiles>  (3829) 
Cn1cnc(NC(=O)C(Br)CO)c1C(=O)[O-]

>  <inchikey>  (3829) 
RUFWYNOFUSORNJ-UHFFFAOYSA-M

>  <distance_score>  (3829) 
1.768899

>  <ref_mols>  (3829) 
Z0719a,Z1597a

>  <ref_pdb>  (3829) 
Z0719a

>  <HIPPO Compound ID>  (3829) 
150982

>  <name>  (3829) 
RUFWYNOFUSORNJ-UHFFFAOYSA-M-P35-P35-P86-601528

>  <inspiration_score>  (3829) 
None

$$$$
XDQWDQAZKNUYNT-UHFFFAOYSA-N-P35-P35-P86-601528
     RDKit          3D

 16 16  0  0  0  0  0  0  0  0999 V2000
   -6.4800    3.8786  -12.0491 C   0  0  0  0  0  0  0  0  0  0  0  0
   -6.1202    3.9084  -13.5407 C   0  0  0  0  0  0  0  0  0  0  0  0
   -4.9686    2.9462  -13.7839 C   0  0  0  0  0  0  0  0  0  0  0  0
   -7.3799    3.5678  -14.3791 C   0  0  0  0  0  0  0  0  0  0  0  0
   -7.5177    4.1183  -15.7164 N   0  0  0  0  0  0  0  0  0  0  0  0
   -8.7232    4.2882  -16.3442 C   0  0  0  0  0  0  0  0  0  0  0  0
   -8.5824    4.8497  -17.5210 N   0  0  0  0  0  0  0  0  0  0  0  0
   -7.2494    5.0505  -17.6626 C   0  0  0  0  0  0  0  0  0  0  0  0
   -6.7764    5.6894  -18.7562 N   0  0  0  0  0  0  0  0  0  0  0  0
   -5.3282    6.1118  -19.1308 C   0  0  0  0  0  0  0  0  0  0  0  0
   -4.3133    5.9036  -18.5873 O   0  0  0  0  0  0  0  0  0  0  0  0
   -5.4556    6.9996  -20.3659 C   0  0  0  0  0  0  0  0  0  0  0  0
   -4.0922    7.3718  -20.9488 C   0  0  2  0  0  0  0  0  0  0  0  0
   -3.3682    8.4313  -20.1151 C   0  0  0  0  0  0  0  0  0  0  0  0
   -4.3279    8.0680  -22.6317 S   0  0  0  0  0  0  0  0  0  0  0  0
   -6.5621    4.6024  -16.5643 C   0  0  0  0  0  0  0  0  0  0  0  0
  1  2  1  0
  2  3  1  0
  2  4  1  0
  4  5  1  0
  5  6  1  0
  6  7  2  0
  7  8  1  0
  8  9  1  0
  9 10  1  0
 10 11  2  0
 10 12  1  0
 12 13  1  0
 13 14  1  1
 13 15  1  0
  8 16  2  0
 16  5  1  0
M  END
>  <energy_score>  (3830) 
-45.123341

>  <alias>  (3830) 
XDQWDQAZKNUYNT-UHFFFAOYSA-N-P35-P35-P86-601528

>  <HIPPO Pose ID>  (3830) 
80407

>  <smiles>  (3830) 
CC(C)Cn1cnc(NC(=O)CC(C)S)c1

>  <inchikey>  (3830) 
XDQWDQAZKNUYNT-UHFFFAOYSA-N

>  <distance_score>  (3830) 
1.705381

>  <ref_mols>  (3830) 
Z0719a,Z1597a

>  <ref_pdb>  (3830) 
Z0719a

>  <HIPPO Compound ID>  (3830) 
150989

>  <name>  (3830) 
XDQWDQAZKNUYNT-UHFFFAOYSA-N-P35-P35-P86-601528

>  <inspiration_score>  (3830) 
None

$$$$
DVCOARQCFCTKHX-UHFFFAOYSA-N-P35-P35-P86-601528
     RDKit          3D

 16 16  0  0  0  0  0  0  0  0999 V2000
   -5.6989    5.2908  -13.2262 C   0  0  0  0  0  0  0  0  0  0  0  0
   -6.1289    3.8299  -13.3516 C   0  0  0  0  0  0  0  0  0  0  0  0
   -4.9740    2.9267  -13.7418 C   0  0  0  0  0  0  0  0  0  0  0  0
   -7.3988    3.6396  -14.2194 C   0  0  0  0  0  0  0  0  0  0  0  0
   -7.5178    4.1679  -15.5663 N   0  0  0  0  0  0  0  0  0  0  0  0
   -8.7187    4.2955  -16.2169 C   0  0  0  0  0  0  0  0  0  0  0  0
   -8.5801    4.8505  -17.3971 N   0  0  0  0  0  0  0  0  0  0  0  0
   -7.2549    5.1014  -17.5135 C   0  0  0  0  0  0  0  0  0  0  0  0
   -6.7854    5.7764  -18.5857 N   0  0  0  0  0  0  0  0  0  0  0  0
   -5.3590    6.3050  -18.8992 C   0  0  0  0  0  0  0  0  0  0  0  0
   -4.3900    6.3052  -18.2444 O   0  0  0  0  0  0  0  0  0  0  0  0
   -5.4396    6.9721  -20.2655 C   0  0  0  0  0  0  0  0  0  0  0  0
   -4.0548    7.1731  -20.8737 C   0  0  0  0  0  0  0  0  0  0  0  0
   -4.1528    7.7363  -22.2891 C   0  0  0  0  0  0  0  0  0  0  0  0
   -2.2059    7.8990  -23.1613 I   0  0  0  0  0  0  0  0  0  0  0  0
   -6.5669    4.6553  -16.4154 C   0  0  0  0  0  0  0  0  0  0  0  0
  1  2  1  0
  2  3  1  0
  2  4  1  0
  4  5  1  0
  5  6  1  0
  6  7  2  0
  7  8  1  0
  8  9  1  0
  9 10  1  0
 10 11  2  0
 10 12  1  0
 12 13  1  0
 13 14  1  0
 14 15  1  0
  8 16  2  0
 16  5  1  0
M  END
>  <energy_score>  (3831) 
-31.282237

>  <alias>  (3831) 
DVCOARQCFCTKHX-UHFFFAOYSA-N-P35-P35-P86-601528

>  <HIPPO Pose ID>  (3831) 
80409

>  <smiles>  (3831) 
CC(C)Cn1cnc(NC(=O)CCCI)c1

>  <inchikey>  (3831) 
DVCOARQCFCTKHX-UHFFFAOYSA-N

>  <distance_score>  (3831) 
1.804562

>  <ref_mols>  (3831) 
Z0719a,Z1597a

>  <ref_pdb>  (3831) 
Z0719a

>  <HIPPO Compound ID>  (3831) 
150990

>  <name>  (3831) 
DVCOARQCFCTKHX-UHFFFAOYSA-N-P35-P35-P86-601528

>  <inspiration_score>  (3831) 
None

$$$$
UXENSGYTRRDLQU-UHFFFAOYSA-N-P35-P35-P86-601528
     RDKit          3D

 16 17  0  0  0  0  0  0  0  0999 V2000
   -4.1686    4.3716  -17.7604 O   0  0  0  0  0  0  0  0  0  0  0  0
   -4.8650    4.8914  -18.5427 C   0  0  0  0  0  0  0  0  0  0  0  0
   -4.3229    5.7499  -19.6646 C   0  0  0  0  0  0  0  0  0  0  0  0
   -3.6898    7.0207  -19.0991 C   0  0  0  0  0  0  0  0  0  0  0  0
   -4.6259    7.8825  -18.2297 C   0  0  0  0  0  0  0  0  0  0  0  0
   -4.6700    7.2926  -16.1089 I   0  0  0  0  0  0  0  0  0  0  0  0
   -6.4154    4.9629  -18.6203 N   0  0  0  0  0  0  0  0  0  0  0  0
   -7.3685    4.5165  -17.7498 C   0  0  0  0  0  0  0  0  0  0  0  0
   -8.7190    4.3975  -18.0290 C   0  0  0  0  0  0  0  0  0  0  0  0
   -9.4540    4.2267  -16.8909 N   0  0  0  0  0  0  0  0  0  0  0  0
   -8.5626    4.2974  -15.9301 C   0  0  0  0  0  0  0  0  0  0  0  0
   -8.7822    4.3984  -14.5188 C   0  0  0  0  0  0  0  0  0  0  0  0
   -7.8203    4.4478  -13.6401 N   0  0  0  0  0  0  0  0  0  0  0  0
   -6.5475    4.2968  -14.1292 C   0  0  0  0  0  0  0  0  0  0  0  0
   -6.2519    4.2440  -15.4380 C   0  0  0  0  0  0  0  0  0  0  0  0
   -7.2679    4.3147  -16.3825 N   0  0  0  0  0  0  0  0  0  0  0  0
  1  2  2  0
  2  3  1  0
  3  4  1  0
  4  5  1  0
  5  6  1  0
  2  7  1  0
  7  8  1  0
  8  9  2  0
  9 10  1  0
 10 11  2  0
 11 12  1  0
 12 13  2  0
 13 14  1  0
 14 15  2  0
 15 16  1  0
 16  8  1  0
 16 11  1  0
M  END
>  <energy_score>  (3832) 
-4.391388

>  <alias>  (3832) 
UXENSGYTRRDLQU-UHFFFAOYSA-N-P35-P35-P86-601528

>  <HIPPO Pose ID>  (3832) 
80413

>  <smiles>  (3832) 
O=C(CCCI)Nc1cnc2cnccn12

>  <inchikey>  (3832) 
UXENSGYTRRDLQU-UHFFFAOYSA-N

>  <distance_score>  (3832) 
1.927665

>  <ref_mols>  (3832) 
Z0719a,Z1597a

>  <ref_pdb>  (3832) 
Z0719a

>  <HIPPO Compound ID>  (3832) 
150992

>  <name>  (3832) 
UXENSGYTRRDLQU-UHFFFAOYSA-N-P35-P35-P86-601528

>  <inspiration_score>  (3832) 
None

$$$$
CQOFNDLBVYHKES-UHFFFAOYSA-N-P35-P35-P86-601528
     RDKit          3D

 16 17  0  0  0  0  0  0  0  0999 V2000
   -4.0113    4.2458  -18.5957 O   0  0  0  0  0  0  0  0  0  0  0  0
   -4.7339    5.0923  -18.9532 C   0  0  0  0  0  0  0  0  0  0  0  0
   -4.3186    6.1476  -19.9410 C   0  0  0  0  0  0  0  0  0  0  0  0
   -3.9446    7.4070  -19.1498 C   0  0  0  0  0  0  0  0  0  0  0  0
   -2.9430    7.1922  -17.9891 C   0  0  0  0  0  0  0  0  0  0  0  0
   -3.9249    6.6465  -16.0099 I   0  0  0  0  0  0  0  0  0  0  0  0
   -6.1724    5.4453  -18.4959 N   0  0  0  0  0  0  0  0  0  0  0  0
   -6.9285    4.9269  -17.5086 C   0  0  0  0  0  0  0  0  0  0  0  0
   -6.4866    4.1221  -16.4933 C   0  0  0  0  0  0  0  0  0  0  0  0
   -7.4052    4.2557  -15.4969 N   0  0  0  0  0  0  0  0  0  0  0  0
   -7.4232    3.8558  -14.1694 C   0  0  0  0  0  0  0  0  0  0  0  0
   -8.3578    4.3883  -13.3632 C   0  0  0  0  0  0  0  0  0  0  0  0
   -9.2825    5.3339  -13.7785 N   0  0  0  0  0  0  0  0  0  0  0  0
   -9.2659    5.6710  -15.0407 C   0  0  0  0  0  0  0  0  0  0  0  0
   -8.3358    5.1279  -15.9689 C   0  0  0  0  0  0  0  0  0  0  0  0
   -8.1123    5.5072  -17.2045 N   0  0  0  0  0  0  0  0  0  0  0  0
  1  2  2  0
  2  3  1  0
  3  4  1  0
  4  5  1  0
  5  6  1  0
  2  7  1  0
  7  8  1  0
  8  9  2  0
  9 10  1  0
 10 11  1  0
 11 12  2  0
 12 13  1  0
 13 14  2  0
 14 15  1  0
 15 16  2  0
 16  8  1  0
 15 10  1  0
M  END
>  <energy_score>  (3833) 
-37.966895

>  <alias>  (3833) 
CQOFNDLBVYHKES-UHFFFAOYSA-N-P35-P35-P86-601528

>  <HIPPO Pose ID>  (3833) 
80415

>  <smiles>  (3833) 
O=C(CCCI)Nc1cn2ccncc2n1

>  <inchikey>  (3833) 
CQOFNDLBVYHKES-UHFFFAOYSA-N

>  <distance_score>  (3833) 
1.941922

>  <ref_mols>  (3833) 
Z0719a,Z1597a

>  <ref_pdb>  (3833) 
Z0719a

>  <HIPPO Compound ID>  (3833) 
150993

>  <name>  (3833) 
CQOFNDLBVYHKES-UHFFFAOYSA-N-P35-P35-P86-601528

>  <inspiration_score>  (3833) 
None

$$$$
XNPVOXAVDQIJQP-UHFFFAOYSA-N-P35-P35-P86-601528
     RDKit          3D

 16 16  0  0  0  0  0  0  0  0999 V2000
   -9.4305    4.2204  -15.5101 C   0  0  0  0  0  0  0  0  0  0  0  0
   -8.8371    4.1959  -16.8346 C   0  0  0  0  0  0  0  0  0  0  0  0
   -9.4946    3.9290  -17.9362 N   0  0  0  0  0  0  0  0  0  0  0  0
   -8.6262    4.2242  -18.9336 C   0  0  0  0  0  0  0  0  0  0  0  0
   -7.3957    4.5745  -18.4358 C   0  0  0  0  0  0  0  0  0  0  0  0
   -6.2995    5.0185  -19.1012 N   0  0  0  0  0  0  0  0  0  0  0  0
   -4.7996    4.9116  -18.7473 C   0  0  0  0  0  0  0  0  0  0  0  0
   -4.2678    4.3587  -17.8691 O   0  0  0  0  0  0  0  0  0  0  0  0
   -4.0247    5.7782  -19.7115 C   0  0  0  0  0  0  0  0  0  0  0  0
   -3.0057    6.6371  -18.9568 C   0  0  0  0  0  0  0  0  0  0  0  0
   -3.5725    7.4604  -17.7800 C   0  0  0  0  0  0  0  0  0  0  0  0
   -3.2961    6.4694  -15.7691 I   0  0  0  0  0  0  0  0  0  0  0  0
   -7.5276    4.4992  -17.0672 N   0  0  0  0  0  0  0  0  0  0  0  0
   -6.5268    4.8471  -16.0661 C   0  0  0  0  0  0  0  0  0  0  0  0
   -6.9615    5.2360  -14.7141 C   0  0  0  0  0  0  0  0  0  0  0  0
   -7.3243    5.5463  -13.6534 N   0  0  0  0  0  0  0  0  0  0  0  0
  1  2  1  0
  2  3  2  0
  3  4  1  0
  4  5  2  0
  5  6  1  0
  6  7  1  0
  7  8  2  0
  7  9  1  0
  9 10  1  0
 10 11  1  0
 11 12  1  0
  5 13  1  0
 13 14  1  0
 14 15  1  0
 15 16  3  0
 13  2  1  0
M  END
>  <energy_score>  (3834) 
-1.674326

>  <alias>  (3834) 
XNPVOXAVDQIJQP-UHFFFAOYSA-N-P35-P35-P86-601528

>  <HIPPO Pose ID>  (3834) 
80417

>  <smiles>  (3834) 
Cc1ncc(NC(=O)CCCI)n1CC#N

>  <inchikey>  (3834) 
XNPVOXAVDQIJQP-UHFFFAOYSA-N

>  <distance_score>  (3834) 
1.499184

>  <ref_mols>  (3834) 
Z0719a,Z1597a

>  <ref_pdb>  (3834) 
Z0719a

>  <HIPPO Compound ID>  (3834) 
150994

>  <name>  (3834) 
XNPVOXAVDQIJQP-UHFFFAOYSA-N-P35-P35-P86-601528

>  <inspiration_score>  (3834) 
None

$$$$
VUWCAFGPULCSLB-UHFFFAOYSA-N-P35-P35-P86-601528
     RDKit          3D

 16 17  0  0  0  0  0  0  0  0999 V2000
   -4.0173    4.2269  -16.8328 O   0  0  0  0  0  0  0  0  0  0  0  0
   -4.5161    4.4900  -17.8576 C   0  0  0  0  0  0  0  0  0  0  0  0
   -3.7411    4.9582  -19.0741 C   0  0  0  0  0  0  0  0  0  0  0  0
   -3.6523    6.4883  -19.2176 C   0  0  0  0  0  0  0  0  0  0  0  0
   -4.8118    7.3506  -18.6908 C   0  0  0  0  0  0  0  0  0  0  0  0
   -4.8594    7.5025  -16.5002 I   0  0  0  0  0  0  0  0  0  0  0  0
   -6.0182    4.5541  -18.2615 N   0  0  0  0  0  0  0  0  0  0  0  0
   -7.1426    4.4096  -17.5084 C   0  0  0  0  0  0  0  0  0  0  0  0
   -8.4353    4.3980  -17.9962 C   0  0  0  0  0  0  0  0  0  0  0  0
   -9.3397    4.5048  -16.9837 N   0  0  0  0  0  0  0  0  0  0  0  0
   -8.6103    4.6580  -15.8995 C   0  0  0  0  0  0  0  0  0  0  0  0
   -7.2881    4.3761  -16.1482 N   0  0  0  0  0  0  0  0  0  0  0  0
   -6.3530    4.2395  -15.0478 C   0  0  0  0  0  0  0  0  0  0  0  0
   -7.0716    4.2027  -13.7084 C   0  0  0  0  0  0  0  0  0  0  0  0
   -7.9584    5.3184  -13.6660 O   0  0  0  0  0  0  0  0  0  0  0  0
   -9.0602    5.1021  -14.5587 C   0  0  0  0  0  0  0  0  0  0  0  0
  1  2  2  0
  2  3  1  0
  3  4  1  0
  4  5  1  0
  5  6  1  0
  2  7  1  0
  7  8  1  0
  8  9  2  0
  9 10  1  0
 10 11  2  0
 11 12  1  0
 12 13  1  0
 13 14  1  0
 14 15  1  0
 15 16  1  0
 12  8  1  0
 16 11  1  0
M  END
>  <energy_score>  (3835) 
-14.19419

>  <alias>  (3835) 
VUWCAFGPULCSLB-UHFFFAOYSA-N-P35-P35-P86-601528

>  <HIPPO Pose ID>  (3835) 
80419

>  <smiles>  (3835) 
O=C(CCCI)Nc1cnc2n1CCOC2

>  <inchikey>  (3835) 
VUWCAFGPULCSLB-UHFFFAOYSA-N

>  <distance_score>  (3835) 
1.877022

>  <ref_mols>  (3835) 
Z0719a,Z1597a

>  <ref_pdb>  (3835) 
Z0719a

>  <HIPPO Compound ID>  (3835) 
150995

>  <name>  (3835) 
VUWCAFGPULCSLB-UHFFFAOYSA-N-P35-P35-P86-601528

>  <inspiration_score>  (3835) 
None

$$$$
QTUYXHNRHXUTLI-UHFFFAOYSA-N-P35-P35-P86-601528
     RDKit          3D

 16 17  0  0  0  0  0  0  0  0999 V2000
   -2.8416    8.0366  -18.2743 O   0  0  0  0  0  0  0  0  0  0  0  0
   -3.3185    7.2405  -18.9835 C   0  0  0  0  0  0  0  0  0  0  0  0
   -2.9244    7.0904  -20.4435 C   0  0  0  0  0  0  0  0  0  0  0  0
   -4.0418    7.4441  -21.4277 C   0  0  0  0  0  0  0  0  0  0  0  0
   -4.1503    8.9441  -21.7281 C   0  0  0  0  0  0  0  0  0  0  0  0
   -5.2729   10.0271  -20.2755 I   0  0  0  0  0  0  0  0  0  0  0  0
   -4.4021    6.1647  -18.7042 N   0  0  0  0  0  0  0  0  0  0  0  0
   -5.1384    5.9280  -17.5954 C   0  0  0  0  0  0  0  0  0  0  0  0
   -6.0167    4.8866  -17.4657 C   0  0  0  0  0  0  0  0  0  0  0  0
   -6.6702    5.1424  -16.2946 N   0  0  0  0  0  0  0  0  0  0  0  0
   -7.8475    4.4506  -15.8219 C   0  0  0  0  0  0  0  0  0  0  0  0
   -9.0499    4.8247  -16.6345 C   0  0  0  0  0  0  0  0  0  0  0  0
   -9.0891    4.8906  -18.1610 C   0  0  0  0  0  0  0  0  0  0  0  0
   -9.7878    3.7995  -17.4482 C   0  0  0  0  0  0  0  0  0  0  0  0
   -6.0895    6.2310  -15.7194 C   0  0  0  0  0  0  0  0  0  0  0  0
   -5.1530    6.7264  -16.4953 N   0  0  0  0  0  0  0  0  0  0  0  0
  1  2  2  0
  2  3  1  0
  3  4  1  0
  4  5  1  0
  5  6  1  0
  2  7  1  0
  7  8  1  0
  8  9  2  0
  9 10  1  0
 10 11  1  0
 11 12  1  0
 12 13  1  0
 13 14  1  0
 10 15  1  0
 15 16  2  0
 16  8  1  0
 14 12  1  0
M  END
>  <energy_score>  (3836) 
-15.332445

>  <alias>  (3836) 
QTUYXHNRHXUTLI-UHFFFAOYSA-N-P35-P35-P86-601528

>  <HIPPO Pose ID>  (3836) 
80421

>  <smiles>  (3836) 
O=C(CCCI)Nc1cn(CC2CC2)cn1

>  <inchikey>  (3836) 
QTUYXHNRHXUTLI-UHFFFAOYSA-N

>  <distance_score>  (3836) 
1.969489

>  <ref_mols>  (3836) 
Z0719a,Z1597a

>  <ref_pdb>  (3836) 
Z0719a

>  <HIPPO Compound ID>  (3836) 
150996

>  <name>  (3836) 
QTUYXHNRHXUTLI-UHFFFAOYSA-N-P35-P35-P86-601528

>  <inspiration_score>  (3836) 
None

$$$$
OABPUEHWBMOYCZ-UHFFFAOYSA-N-P86-P35-P86-601528
     RDKit          3D

 16 17  0  0  0  0  0  0  0  0999 V2000
   -2.8879    6.7548  -18.8020 O   0  0  0  0  0  0  0  0  0  0  0  0
   -3.4734    6.2302  -19.6665 C   0  0  0  0  0  0  0  0  0  0  0  0
   -2.9770    6.2114  -21.0969 C   0  0  0  0  0  0  0  0  0  0  0  0
   -3.8352    7.0458  -22.0449 C   0  0  0  0  0  0  0  0  0  0  0  0
   -3.5375    8.5488  -21.9815 C   0  0  0  0  0  0  0  0  0  0  0  0
   -4.7195    9.5814  -20.5378 I   0  0  0  0  0  0  0  0  0  0  0  0
   -4.8117    5.4395  -19.6421 N   0  0  0  0  0  0  0  0  0  0  0  0
   -5.6895    5.2294  -18.6337 C   0  0  0  0  0  0  0  0  0  0  0  0
   -6.9002    4.5933  -18.7396 C   0  0  0  0  0  0  0  0  0  0  0  0
   -7.3967    4.5909  -17.4701 N   0  0  0  0  0  0  0  0  0  0  0  0
   -8.5934    4.1055  -16.9887 C   0  0  0  0  0  0  0  0  0  0  0  0
   -8.8351    4.2216  -15.6816 C   0  0  0  0  0  0  0  0  0  0  0  0
   -7.7678    4.8463  -14.8670 C   0  0  0  0  0  0  0  0  0  0  0  0
   -6.6563    5.3392  -15.3063 N   0  0  0  0  0  0  0  0  0  0  0  0
   -6.4551    5.2146  -16.6498 C   0  0  0  0  0  0  0  0  0  0  0  0
   -5.4334    5.6308  -17.3635 N   0  0  0  0  0  0  0  0  0  0  0  0
  1  2  2  0
  2  3  1  0
  3  4  1  0
  4  5  1  0
  5  6  1  0
  2  7  1  0
  7  8  1  0
  8  9  2  0
  9 10  1  0
 10 11  1  0
 11 12  2  0
 12 13  1  0
 13 14  2  0
 14 15  1  0
 15 16  2  0
 16  8  1  0
 15 10  1  0
M  END
>  <energy_score>  (3837) 
-13.634386

>  <alias>  (3837) 
OABPUEHWBMOYCZ-UHFFFAOYSA-N-P86-P35-P86-601528

>  <HIPPO Pose ID>  (3837) 
80424

>  <smiles>  (3837) 
O=C(CCCI)Nc1cn2cccnc2n1

>  <inchikey>  (3837) 
OABPUEHWBMOYCZ-UHFFFAOYSA-N

>  <distance_score>  (3837) 
1.612714

>  <ref_mols>  (3837) 
Z0719a,Z1597a

>  <ref_pdb>  (3837) 
Z0719a

>  <HIPPO Compound ID>  (3837) 
150997

>  <name>  (3837) 
OABPUEHWBMOYCZ-UHFFFAOYSA-N-P86-P35-P86-601528

>  <inspiration_score>  (3837) 
None

$$$$
FUAOUJOQADDLNI-UHFFFAOYSA-N-P86-P35-P86-601528
     RDKit          3D

 16 17  0  0  0  0  0  0  0  0999 V2000
   -5.2342    5.0486  -21.4251 O   0  0  0  0  0  0  0  0  0  0  0  0
   -4.4795    5.4920  -20.6590 C   0  0  0  0  0  0  0  0  0  0  0  0
   -3.1266    6.0383  -21.0730 C   0  0  0  0  0  0  0  0  0  0  0  0
   -3.3325    7.4531  -21.5938 C   0  0  0  0  0  0  0  0  0  0  0  0
   -2.0392    8.0943  -22.0972 C   0  0  0  0  0  0  0  0  0  0  0  0
   -1.4116    7.2923  -23.9829 I   0  0  0  0  0  0  0  0  0  0  0  0
   -4.6147    5.7194  -19.1410 N   0  0  0  0  0  0  0  0  0  0  0  0
   -5.6030    5.3844  -18.2923 C   0  0  0  0  0  0  0  0  0  0  0  0
   -6.7808    4.7639  -18.6128 C   0  0  0  0  0  0  0  0  0  0  0  0
   -7.4253    4.6122  -17.4317 N   0  0  0  0  0  0  0  0  0  0  0  0
   -8.6507    4.0680  -17.2725 N   0  0  0  0  0  0  0  0  0  0  0  0
   -9.0124    4.0628  -16.0351 C   0  0  0  0  0  0  0  0  0  0  0  0
   -8.2366    4.5527  -14.8765 C   0  0  0  0  0  0  0  0  0  0  0  0
   -7.0395    5.0897  -15.1228 C   0  0  0  0  0  0  0  0  0  0  0  0
   -6.5933    5.1498  -16.4562 C   0  0  0  0  0  0  0  0  0  0  0  0
   -5.4826    5.6394  -16.9641 N   0  0  0  0  0  0  0  0  0  0  0  0
  1  2  2  0
  2  3  1  0
  3  4  1  0
  4  5  1  0
  5  6  1  0
  2  7  1  0
  7  8  1  0
  8  9  2  0
  9 10  1  0
 10 11  1  0
 11 12  2  0
 12 13  1  0
 13 14  2  0
 14 15  1  0
 15 16  2  0
 16  8  1  0
 15 10  1  0
M  END
>  <energy_score>  (3838) 
-20.440999

>  <alias>  (3838) 
FUAOUJOQADDLNI-UHFFFAOYSA-N-P86-P35-P86-601528

>  <HIPPO Pose ID>  (3838) 
80430

>  <smiles>  (3838) 
O=C(CCCI)Nc1cn2ncccc2n1

>  <inchikey>  (3838) 
FUAOUJOQADDLNI-UHFFFAOYSA-N

>  <distance_score>  (3838) 
1.90106

>  <ref_mols>  (3838) 
Z0719a,Z1597a

>  <ref_pdb>  (3838) 
Z0719a

>  <HIPPO Compound ID>  (3838) 
151000

>  <name>  (3838) 
FUAOUJOQADDLNI-UHFFFAOYSA-N-P86-P35-P86-601528

>  <inspiration_score>  (3838) 
None

$$$$
FWLMWIQQHKONOB-UHFFFAOYSA-N-P35-P35-P86-601528
     RDKit          3D

 16 16  0  0  0  0  0  0  0  0999 V2000
   -7.6541    3.3495  -14.3731 C   0  0  0  0  0  0  0  0  0  0  0  0
   -7.9216    3.9268  -15.7403 C   0  0  0  0  0  0  0  0  0  0  0  0
   -8.8169    3.5834  -16.6529 N   0  0  0  0  0  0  0  0  0  0  0  0
   -8.4130    4.2039  -17.8194 C   0  0  0  0  0  0  0  0  0  0  0  0
   -7.2714    4.9436  -17.5963 C   0  0  0  0  0  0  0  0  0  0  0  0
   -6.3492    5.4377  -18.4776 N   0  0  0  0  0  0  0  0  0  0  0  0
   -4.9645    6.0993  -18.2248 C   0  0  0  0  0  0  0  0  0  0  0  0
   -4.4359    6.3926  -17.2225 O   0  0  0  0  0  0  0  0  0  0  0  0
   -4.2389    6.2533  -19.5569 C   0  0  0  0  0  0  0  0  0  0  0  0
   -4.8697    7.2227  -20.5478 C   0  0  1  0  0  0  0  0  0  0  0  0
   -5.1593    8.5910  -19.9346 C   0  0  0  0  0  0  0  0  0  0  0  0
   -3.7138    7.4577  -21.9547 S   0  0  0  0  0  0  0  0  0  0  0  0
   -7.1941    4.9871  -16.2290 N   0  0  0  0  0  0  0  0  0  0  0  0
   -6.6185    6.0043  -15.3819 C   0  0  0  0  0  0  0  0  0  0  0  0
   -7.4684    6.2804  -14.2114 C   0  0  0  0  0  0  0  0  0  0  0  0
   -8.1565    6.4263  -13.2867 N   0  0  0  0  0  0  0  0  0  0  0  0
  1  2  1  0
  2  3  2  0
  3  4  1  0
  4  5  2  0
  5  6  1  0
  6  7  1  0
  7  8  2  0
  7  9  1  0
  9 10  1  0
 10 11  1  1
 10 12  1  0
  5 13  1  0
 13 14  1  0
 14 15  1  0
 15 16  3  0
 13  2  1  0
M  END
>  <energy_score>  (3839) 
-10.836176

>  <alias>  (3839) 
FWLMWIQQHKONOB-UHFFFAOYSA-N-P35-P35-P86-601528

>  <HIPPO Pose ID>  (3839) 
80433

>  <smiles>  (3839) 
Cc1ncc(NC(=O)CC(C)S)n1CC#N

>  <inchikey>  (3839) 
FWLMWIQQHKONOB-UHFFFAOYSA-N

>  <distance_score>  (3839) 
1.777856

>  <ref_mols>  (3839) 
Z0719a,Z1597a

>  <ref_pdb>  (3839) 
Z0719a

>  <HIPPO Compound ID>  (3839) 
151002

>  <name>  (3839) 
FWLMWIQQHKONOB-UHFFFAOYSA-N-P35-P35-P86-601528

>  <inspiration_score>  (3839) 
None

$$$$
OTWHRIQXSHGWGV-UHFFFAOYSA-N-P35-P35-P86-601528
     RDKit          3D

 16 16  0  0  0  0  0  0  0  0999 V2000
   -8.5341    4.8625  -18.1259 C   0  0  0  0  0  0  0  0  0  0  0  0
   -7.9950    4.6228  -16.8175 N   0  0  0  0  0  0  0  0  0  0  0  0
   -8.7650    4.5298  -15.7102 C   0  0  0  0  0  0  0  0  0  0  0  0
   -8.0572    4.2032  -14.6692 N   0  0  0  0  0  0  0  0  0  0  0  0
   -6.7609    4.0343  -15.1388 C   0  0  0  0  0  0  0  0  0  0  0  0
   -5.8595    3.3166  -14.2526 N   0  0  0  0  0  0  0  0  0  0  0  0
   -6.3485    2.3699  -13.6098 O   0  0  0  0  0  0  0  0  0  0  0  0
   -4.6706    3.6504  -14.2082 O   0  0  0  0  0  0  0  0  0  0  0  0
   -6.6698    4.4263  -16.4773 C   0  0  0  0  0  0  0  0  0  0  0  0
   -5.7481    4.5894  -17.4849 N   0  0  0  0  0  0  0  0  0  0  0  0
   -4.2099    4.7750  -17.4222 C   0  0  0  0  0  0  0  0  0  0  0  0
   -3.5000    4.8947  -16.5048 O   0  0  0  0  0  0  0  0  0  0  0  0
   -3.7389    4.8653  -18.8809 C   0  0  0  0  0  0  0  0  0  0  0  0
   -3.7181    6.2810  -19.4698 C   0  0  0  0  0  0  0  0  0  0  0  0
   -5.0933    6.9365  -19.5849 C   0  0  0  0  0  0  0  0  0  0  0  0
   -4.9182    8.8677  -20.5032 I   0  0  0  0  0  0  0  0  0  0  0  0
  1  2  1  0
  2  3  1  0
  3  4  2  0
  4  5  1  0
  5  6  1  0
  6  7  2  0
  6  8  1  0
  5  9  2  0
  9 10  1  0
 10 11  1  0
 11 12  2  0
 11 13  1  0
 13 14  1  0
 14 15  1  0
 15 16  1  0
  9  2  1  0
M  CHG  2   6   1   8  -1
M  END
>  <energy_score>  (3840) 
-9.363155

>  <alias>  (3840) 
OTWHRIQXSHGWGV-UHFFFAOYSA-N-P35-P35-P86-601528

>  <HIPPO Pose ID>  (3840) 
80443

>  <smiles>  (3840) 
Cn1cnc([N+](=O)[O-])c1NC(=O)CCCI

>  <inchikey>  (3840) 
OTWHRIQXSHGWGV-UHFFFAOYSA-N

>  <distance_score>  (3840) 
1.944677

>  <ref_mols>  (3840) 
Z0719a,Z1597a

>  <ref_pdb>  (3840) 
Z0719a

>  <HIPPO Compound ID>  (3840) 
151007

>  <name>  (3840) 
OTWHRIQXSHGWGV-UHFFFAOYSA-N-P35-P35-P86-601528

>  <inspiration_score>  (3840) 
None

$$$$
UBOWXEFLRJQBJK-UHFFFAOYSA-N-P86-P35-P86-601528
     RDKit          3D

 16 16  0  0  0  0  0  0  0  0999 V2000
   -6.1882    5.9887  -14.0615 C   0  0  0  0  0  0  0  0  0  0  0  0
   -6.0156    4.8582  -15.0676 C   0  0  0  0  0  0  0  0  0  0  0  0
   -7.0877    4.6882  -16.0107 N   0  0  0  0  0  0  0  0  0  0  0  0
   -8.3820    4.4496  -15.5779 C   0  0  0  0  0  0  0  0  0  0  0  0
   -8.7808    4.4928  -14.1511 C   0  0  0  0  0  0  0  0  0  0  0  0
   -9.1786    4.1933  -16.5853 N   0  0  0  0  0  0  0  0  0  0  0  0
   -8.3959    4.2902  -17.6944 C   0  0  0  0  0  0  0  0  0  0  0  0
   -8.9666    3.9183  -18.9923 C   0  0  0  0  0  0  0  0  0  0  0  0
   -7.0992    4.6624  -17.3877 C   0  0  0  0  0  0  0  0  0  0  0  0
   -6.1480    4.9017  -18.3527 N   0  0  0  0  0  0  0  0  0  0  0  0
   -4.5940    4.9454  -18.2524 C   0  0  0  0  0  0  0  0  0  0  0  0
   -3.8852    4.7089  -17.3518 O   0  0  0  0  0  0  0  0  0  0  0  0
   -4.0821    5.4753  -19.5796 C   0  0  0  0  0  0  0  0  0  0  0  0
   -4.2633    6.9888  -19.6888 C   0  0  0  0  0  0  0  0  0  0  0  0
   -3.4804    7.7766  -18.6230 C   0  0  0  0  0  0  0  0  0  0  0  0
   -4.4888    7.8768  -16.6906 I   0  0  0  0  0  0  0  0  0  0  0  0
  1  2  1  0
  2  3  1  0
  3  4  1  0
  4  5  1  0
  4  6  2  0
  6  7  1  0
  7  8  1  0
  7  9  2  0
  9 10  1  0
 10 11  1  0
 11 12  2  0
 11 13  1  0
 13 14  1  0
 14 15  1  0
 15 16  1  0
  9  3  1  0
M  END
>  <energy_score>  (3841) 
-0.768681

>  <alias>  (3841) 
UBOWXEFLRJQBJK-UHFFFAOYSA-N-P86-P35-P86-601528

>  <HIPPO Pose ID>  (3841) 
80448

>  <smiles>  (3841) 
CCn1c(C)nc(C)c1NC(=O)CCCI

>  <inchikey>  (3841) 
UBOWXEFLRJQBJK-UHFFFAOYSA-N

>  <distance_score>  (3841) 
1.83799

>  <ref_mols>  (3841) 
Z0719a,Z1597a

>  <ref_pdb>  (3841) 
Z0719a

>  <HIPPO Compound ID>  (3841) 
151009

>  <name>  (3841) 
UBOWXEFLRJQBJK-UHFFFAOYSA-N-P86-P35-P86-601528

>  <inspiration_score>  (3841) 
None

$$$$
ZOSNXFVGRBZMJL-UHFFFAOYSA-N-P86-P35-P86-601528
     RDKit          3D

 16 17  0  0  0  0  0  0  0  0999 V2000
   -2.4178    5.2049  -19.3142 C   0  0  0  0  0  0  0  0  0  0  0  0
   -3.6686    5.6947  -19.2979 C   0  0  0  0  0  0  0  0  0  0  0  0
   -4.3054    6.3261  -20.4987 C   0  0  0  0  0  0  0  0  0  0  0  0
   -4.3902    5.6585  -17.9723 C   0  0  0  0  0  0  0  0  0  0  0  0
   -3.8480    5.9030  -16.9688 O   0  0  0  0  0  0  0  0  0  0  0  0
   -5.8448    5.2101  -18.2420 N   0  0  0  0  0  0  0  0  0  0  0  0
   -6.8592    4.8930  -17.3677 C   0  0  0  0  0  0  0  0  0  0  0  0
   -8.0733    4.3276  -17.7433 C   0  0  0  0  0  0  0  0  0  0  0  0
   -8.5448    3.9300  -19.0733 C   0  0  0  0  0  0  0  0  0  0  0  0
   -8.8954    4.1032  -16.6765 N   0  0  0  0  0  0  0  0  0  0  0  0
   -8.1934    4.5172  -15.6545 C   0  0  0  0  0  0  0  0  0  0  0  0
   -8.6008    4.5462  -14.2844 C   0  0  0  0  0  0  0  0  0  0  0  0
   -7.8584    5.0445  -13.3347 N   0  0  0  0  0  0  0  0  0  0  0  0
   -6.6115    5.4895  -13.7024 C   0  0  0  0  0  0  0  0  0  0  0  0
   -6.1498    5.4889  -14.9641 C   0  0  0  0  0  0  0  0  0  0  0  0
   -6.9507    5.0065  -15.9901 N   0  0  0  0  0  0  0  0  0  0  0  0
  1  2  2  0
  2  3  1  0
  2  4  1  0
  4  5  2  0
  4  6  1  0
  6  7  1  0
  7  8  2  0
  8  9  1  0
  8 10  1  0
 10 11  2  0
 11 12  1  0
 12 13  2  0
 13 14  1  0
 14 15  2  0
 15 16  1  0
 16  7  1  0
 16 11  1  0
M  END
>  <energy_score>  (3842) 
-8.093228

>  <alias>  (3842) 
ZOSNXFVGRBZMJL-UHFFFAOYSA-N-P86-P35-P86-601528

>  <HIPPO Pose ID>  (3842) 
80454

>  <smiles>  (3842) 
C=C(C)C(=O)Nc1c(C)nc2cnccn12

>  <inchikey>  (3842) 
ZOSNXFVGRBZMJL-UHFFFAOYSA-N

>  <distance_score>  (3842) 
1.582148

>  <ref_mols>  (3842) 
Z0719a,Z1597a

>  <ref_pdb>  (3842) 
Z0719a

>  <HIPPO Compound ID>  (3842) 
151012

>  <name>  (3842) 
ZOSNXFVGRBZMJL-UHFFFAOYSA-N-P86-P35-P86-601528

>  <inspiration_score>  (3842) 
None

$$$$
OBCRWTYBOIDAEK-UHFFFAOYSA-N-P86-P35-P86-601528
     RDKit          3D

 16 17  0  0  0  0  0  0  0  0999 V2000
   -3.8583    6.8920  -21.4380 C   0  0  0  0  0  0  0  0  0  0  0  0
   -2.7227    6.6601  -20.4353 C   0  0  0  0  0  0  0  0  0  0  0  0
   -1.5115    7.5210  -20.7970 C   0  0  0  0  0  0  0  0  0  0  0  0
   -2.2286    4.9283  -20.5107 Cl  0  0  0  0  0  0  0  0  0  0  0  0
   -3.2078    6.9710  -18.9930 C   0  0  0  0  0  0  0  0  0  0  0  0
   -2.8265    7.8849  -18.3695 O   0  0  0  0  0  0  0  0  0  0  0  0
   -4.2870    5.9014  -18.6574 N   0  0  0  0  0  0  0  0  0  0  0  0
   -5.1245    5.8013  -17.6016 C   0  0  0  0  0  0  0  0  0  0  0  0
   -6.0768    4.8281  -17.5003 C   0  0  0  0  0  0  0  0  0  0  0  0
   -6.7404    5.0990  -16.3434 N   0  0  0  0  0  0  0  0  0  0  0  0
   -7.9158    4.4094  -15.8619 C   0  0  0  0  0  0  0  0  0  0  0  0
   -9.0923    4.5810  -16.7661 C   0  0  0  0  0  0  0  0  0  0  0  0
   -9.0550    4.6161  -18.2963 C   0  0  0  0  0  0  0  0  0  0  0  0
   -9.6542    3.4664  -17.5961 C   0  0  0  0  0  0  0  0  0  0  0  0
   -6.1087    6.1509  -15.7516 C   0  0  0  0  0  0  0  0  0  0  0  0
   -5.1566    6.6280  -16.5249 N   0  0  0  0  0  0  0  0  0  0  0  0
  1  2  1  0
  2  3  1  0
  2  4  1  0
  2  5  1  0
  5  6  2  0
  5  7  1  0
  7  8  1  0
  8  9  2  0
  9 10  1  0
 10 11  1  0
 11 12  1  0
 12 13  1  0
 13 14  1  0
 10 15  1  0
 15 16  2  0
 16  8  1  0
 14 12  1  0
M  END
>  <energy_score>  (3843) 
-21.722079

>  <alias>  (3843) 
OBCRWTYBOIDAEK-UHFFFAOYSA-N-P86-P35-P86-601528

>  <HIPPO Pose ID>  (3843) 
80462

>  <smiles>  (3843) 
CC(C)(Cl)C(=O)Nc1cn(CC2CC2)cn1

>  <inchikey>  (3843) 
OBCRWTYBOIDAEK-UHFFFAOYSA-N

>  <distance_score>  (3843) 
1.999621

>  <ref_mols>  (3843) 
Z0719a,Z1597a

>  <ref_pdb>  (3843) 
Z0719a

>  <HIPPO Compound ID>  (3843) 
151016

>  <name>  (3843) 
OBCRWTYBOIDAEK-UHFFFAOYSA-N-P86-P35-P86-601528

>  <inspiration_score>  (3843) 
None

$$$$
ZYFYSZCOLSCJBH-UHFFFAOYSA-N-P86-P35-P86-601528
     RDKit          3D

 16 17  0  0  0  0  0  0  0  0999 V2000
   -3.7980    6.8442  -22.0645 C   0  0  0  0  0  0  0  0  0  0  0  0
   -2.8741    6.5229  -20.8889 C   0  0  0  0  0  0  0  0  0  0  0  0
   -2.2080    5.1534  -21.0152 C   0  0  0  0  0  0  0  0  0  0  0  0
   -1.5543    7.7682  -20.9274 Cl  0  0  0  0  0  0  0  0  0  0  0  0
   -3.6257    6.6360  -19.5290 C   0  0  0  0  0  0  0  0  0  0  0  0
   -3.2679    7.3447  -18.6670 O   0  0  0  0  0  0  0  0  0  0  0  0
   -4.8510    5.6660  -19.6001 N   0  0  0  0  0  0  0  0  0  0  0  0
   -5.7584    5.3295  -18.6576 C   0  0  0  0  0  0  0  0  0  0  0  0
   -6.8683    4.5467  -18.8484 C   0  0  0  0  0  0  0  0  0  0  0  0
   -7.4834    4.5115  -17.6352 N   0  0  0  0  0  0  0  0  0  0  0  0
   -8.6734    3.9252  -17.3709 N   0  0  0  0  0  0  0  0  0  0  0  0
   -8.9949    4.0413  -16.1258 C   0  0  0  0  0  0  0  0  0  0  0  0
   -8.2003    4.6751  -15.0521 C   0  0  0  0  0  0  0  0  0  0  0  0
   -7.0491    5.2514  -15.4044 C   0  0  0  0  0  0  0  0  0  0  0  0
   -6.6677    5.2116  -16.7584 C   0  0  0  0  0  0  0  0  0  0  0  0
   -5.6399    5.7496  -17.3716 N   0  0  0  0  0  0  0  0  0  0  0  0
  1  2  1  0
  2  3  1  0
  2  4  1  0
  2  5  1  0
  5  6  2  0
  5  7  1  0
  7  8  1  0
  8  9  2  0
  9 10  1  0
 10 11  1  0
 11 12  2  0
 12 13  1  0
 13 14  2  0
 14 15  1  0
 15 16  2  0
 16  8  1  0
 15 10  1  0
M  END
>  <energy_score>  (3844) 
-29.556798

>  <alias>  (3844) 
ZYFYSZCOLSCJBH-UHFFFAOYSA-N-P86-P35-P86-601528

>  <HIPPO Pose ID>  (3844) 
80472

>  <smiles>  (3844) 
CC(C)(Cl)C(=O)Nc1cn2ncccc2n1

>  <inchikey>  (3844) 
ZYFYSZCOLSCJBH-UHFFFAOYSA-N

>  <distance_score>  (3844) 
1.740075

>  <ref_mols>  (3844) 
Z0719a,Z1597a

>  <ref_pdb>  (3844) 
Z0719a

>  <HIPPO Compound ID>  (3844) 
151021

>  <name>  (3844) 
ZYFYSZCOLSCJBH-UHFFFAOYSA-N-P86-P35-P86-601528

>  <inspiration_score>  (3844) 
None

$$$$
SIODTADGWPSHHC-UHFFFAOYSA-N-P86-P35-P86-601528
     RDKit          3D

 16 17  0  0  0  0  0  0  0  0999 V2000
   -3.7015    7.1086  -21.8454 C   0  0  0  0  0  0  0  0  0  0  0  0
   -2.7080    6.6573  -20.7719 C   0  0  0  0  0  0  0  0  0  0  0  0
   -1.4899    7.5867  -20.7697 C   0  0  0  0  0  0  0  0  0  0  0  0
   -2.1361    4.9979  -21.1358 Cl  0  0  0  0  0  0  0  0  0  0  0  0
   -3.3753    6.6328  -19.3762 C   0  0  0  0  0  0  0  0  0  0  0  0
   -2.9873    7.2844  -18.4837 O   0  0  0  0  0  0  0  0  0  0  0  0
   -4.5927    5.6612  -19.4638 N   0  0  0  0  0  0  0  0  0  0  0  0
   -5.5643    5.3882  -18.5636 C   0  0  0  0  0  0  0  0  0  0  0  0
   -6.6759    4.6197  -18.7936 C   0  0  0  0  0  0  0  0  0  0  0  0
   -7.3346    4.6042  -17.6007 N   0  0  0  0  0  0  0  0  0  0  0  0
   -8.5347    4.0182  -17.2620 C   0  0  0  0  0  0  0  0  0  0  0  0
   -8.9476    4.1188  -15.9979 C   0  0  0  0  0  0  0  0  0  0  0  0
   -8.0442    4.8395  -15.0697 C   0  0  0  0  0  0  0  0  0  0  0  0
   -6.9366    5.4337  -15.3788 N   0  0  0  0  0  0  0  0  0  0  0  0
   -6.5659    5.3305  -16.6885 C   0  0  0  0  0  0  0  0  0  0  0  0
   -5.5254    5.8621  -17.2920 N   0  0  0  0  0  0  0  0  0  0  0  0
  1  2  1  0
  2  3  1  0
  2  4  1  0
  2  5  1  0
  5  6  2  0
  5  7  1  0
  7  8  1  0
  8  9  2  0
  9 10  1  0
 10 11  1  0
 11 12  2  0
 12 13  1  0
 13 14  2  0
 14 15  1  0
 15 16  2  0
 16  8  1  0
 15 10  1  0
M  END
>  <energy_score>  (3845) 
-9.605076

>  <alias>  (3845) 
SIODTADGWPSHHC-UHFFFAOYSA-N-P86-P35-P86-601528

>  <HIPPO Pose ID>  (3845) 
80474

>  <smiles>  (3845) 
CC(C)(Cl)C(=O)Nc1cn2cccnc2n1

>  <inchikey>  (3845) 
SIODTADGWPSHHC-UHFFFAOYSA-N

>  <distance_score>  (3845) 
1.822448

>  <ref_mols>  (3845) 
Z0719a,Z1597a

>  <ref_pdb>  (3845) 
Z0719a

>  <HIPPO Compound ID>  (3845) 
151022

>  <name>  (3845) 
SIODTADGWPSHHC-UHFFFAOYSA-N-P86-P35-P86-601528

>  <inspiration_score>  (3845) 
None

$$$$
IKJPAFUTPHYKNW-UHFFFAOYSA-N-P35-P35-P86-601528
     RDKit          3D

 16 16  0  0  0  0  0  0  0  0999 V2000
   -5.7875    4.6689  -13.2683 C   0  0  0  0  0  0  0  0  0  0  0  0
   -6.6922    4.8892  -14.3462 O   0  0  0  0  0  0  0  0  0  0  0  0
   -6.1827    4.5730  -15.5771 C   0  0  0  0  0  0  0  0  0  0  0  0
   -5.0330    4.1800  -15.7563 O   0  0  0  0  0  0  0  0  0  0  0  0
   -7.1881    4.7052  -16.6306 C   0  0  0  0  0  0  0  0  0  0  0  0
   -8.5381    4.4410  -16.3880 N   0  0  0  0  0  0  0  0  0  0  0  0
   -9.1383    4.5197  -17.5471 C   0  0  0  0  0  0  0  0  0  0  0  0
   -8.2520    4.8153  -18.5394 N   0  0  0  0  0  0  0  0  0  0  0  0
   -7.0122    4.9870  -17.9777 C   0  0  0  0  0  0  0  0  0  0  0  0
   -5.9699    5.3825  -18.7674 N   0  0  0  0  0  0  0  0  0  0  0  0
   -4.5836    5.9725  -18.3871 C   0  0  0  0  0  0  0  0  0  0  0  0
   -4.1521    6.2814  -17.3464 O   0  0  0  0  0  0  0  0  0  0  0  0
   -3.7681    6.0824  -19.6672 C   0  0  0  0  0  0  0  0  0  0  0  0
   -4.3050    7.1189  -20.6505 C   0  0  0  0  0  0  0  0  0  0  0  0
   -4.2309    8.5366  -20.0772 C   0  0  0  0  0  0  0  0  0  0  0  0
   -4.9360    9.9618  -21.5136 I   0  0  0  0  0  0  0  0  0  0  0  0
  1  2  1  0
  2  3  1  0
  3  4  2  0
  3  5  1  0
  5  6  1  0
  6  7  2  0
  7  8  1  0
  8  9  1  0
  9 10  1  0
 10 11  1  0
 11 12  2  0
 11 13  1  0
 13 14  1  0
 14 15  1  0
 15 16  1  0
  9  5  2  0
M  END
>  <energy_score>  (3846) 
-15.729088

>  <alias>  (3846) 
IKJPAFUTPHYKNW-UHFFFAOYSA-N-P35-P35-P86-601528

>  <HIPPO Pose ID>  (3846) 
80475

>  <smiles>  (3846) 
COC(=O)c1nc[nH]c1NC(=O)CCCI

>  <inchikey>  (3846) 
IKJPAFUTPHYKNW-UHFFFAOYSA-N

>  <distance_score>  (3846) 
1.902438

>  <ref_mols>  (3846) 
Z0719a,Z1597a

>  <ref_pdb>  (3846) 
Z0719a

>  <HIPPO Compound ID>  (3846) 
151023

>  <name>  (3846) 
IKJPAFUTPHYKNW-UHFFFAOYSA-N-P35-P35-P86-601528

>  <inspiration_score>  (3846) 
None

$$$$
FCIHBBWSDBSOPY-UHFFFAOYSA-N-P35-P35-P86-601528
     RDKit          3D

 16 16  0  0  0  0  0  0  0  0999 V2000
   -7.5866    3.3560  -14.3684 C   0  0  0  0  0  0  0  0  0  0  0  0
   -7.8848    3.9555  -15.7196 C   0  0  0  0  0  0  0  0  0  0  0  0
   -8.7423    3.5625  -16.6471 N   0  0  0  0  0  0  0  0  0  0  0  0
   -8.3648    4.2210  -17.7956 C   0  0  0  0  0  0  0  0  0  0  0  0
   -7.3089    5.0716  -17.5421 C   0  0  0  0  0  0  0  0  0  0  0  0
   -6.4653    5.6797  -18.4315 N   0  0  0  0  0  0  0  0  0  0  0  0
   -5.2329    6.6131  -18.1873 C   0  0  0  0  0  0  0  0  0  0  0  0
   -4.8051    7.0618  -17.1908 O   0  0  0  0  0  0  0  0  0  0  0  0
   -4.4891    6.8244  -19.5478 C   0  0  0  0  0  0  0  0  0  0  0  0
   -3.4181    7.9034  -19.4272 C   0  0  0  0  0  0  0  0  0  0  0  0
   -5.3814    7.2221  -20.7189 C   0  0  0  0  0  0  0  0  0  0  0  0
   -3.5905    5.2922  -19.8503 Cl  0  0  0  0  0  0  0  0  0  0  0  0
   -7.2481    5.0903  -16.1736 N   0  0  0  0  0  0  0  0  0  0  0  0
   -6.7563    6.1220  -15.2939 C   0  0  0  0  0  0  0  0  0  0  0  0
   -7.6118    6.2854  -14.1077 C   0  0  0  0  0  0  0  0  0  0  0  0
   -8.3033    6.3549  -13.1768 N   0  0  0  0  0  0  0  0  0  0  0  0
  1  2  1  0
  2  3  2  0
  3  4  1  0
  4  5  2  0
  5  6  1  0
  6  7  1  0
  7  8  2  0
  7  9  1  0
  9 10  1  0
  9 11  1  0
  9 12  1  0
  5 13  1  0
 13 14  1  0
 14 15  1  0
 15 16  3  0
 13  2  1  0
M  END
>  <energy_score>  (3847) 
-21.147348

>  <alias>  (3847) 
FCIHBBWSDBSOPY-UHFFFAOYSA-N-P35-P35-P86-601528

>  <HIPPO Pose ID>  (3847) 
80477

>  <smiles>  (3847) 
Cc1ncc(NC(=O)C(C)(C)Cl)n1CC#N

>  <inchikey>  (3847) 
FCIHBBWSDBSOPY-UHFFFAOYSA-N

>  <distance_score>  (3847) 
1.958123

>  <ref_mols>  (3847) 
Z0719a,Z1597a

>  <ref_pdb>  (3847) 
Z0719a

>  <HIPPO Compound ID>  (3847) 
151024

>  <name>  (3847) 
FCIHBBWSDBSOPY-UHFFFAOYSA-N-P35-P35-P86-601528

>  <inspiration_score>  (3847) 
None

$$$$
HONVZDRPNNCOPS-UHFFFAOYSA-N-P86-P35-P86-601528
     RDKit          3D

 16 17  0  0  0  0  0  0  0  0999 V2000
   -2.9873    8.5762  -21.4894 C   0  0  0  0  0  0  0  0  0  0  0  0
   -3.5205    7.3522  -21.6181 C   0  0  0  0  0  0  0  0  0  0  0  0
   -4.9959    7.0682  -22.7292 Br  0  0  0  0  0  0  0  0  0  0  0  0
   -2.9452    6.1357  -20.9562 C   0  0  0  0  0  0  0  0  0  0  0  0
   -3.1643    6.1994  -19.4510 C   0  0  0  0  0  0  0  0  0  0  0  0
   -2.3103    6.4588  -18.6951 O   0  0  0  0  0  0  0  0  0  0  0  0
   -4.6573    5.8428  -19.2011 N   0  0  0  0  0  0  0  0  0  0  0  0
   -5.3324    5.6529  -18.0459 C   0  0  0  0  0  0  0  0  0  0  0  0
   -6.6753    5.3988  -17.9465 C   0  0  0  0  0  0  0  0  0  0  0  0
   -6.8683    5.0951  -16.6321 N   0  0  0  0  0  0  0  0  0  0  0  0
   -8.0686    4.6828  -15.9331 C   0  0  0  0  0  0  0  0  0  0  0  0
   -9.0915    3.8761  -16.6545 C   0  0  0  0  0  0  0  0  0  0  0  0
   -9.8914    4.3508  -17.8435 C   0  0  0  0  0  0  0  0  0  0  0  0
   -8.9675    3.1872  -17.9923 C   0  0  0  0  0  0  0  0  0  0  0  0
   -5.6802    5.3103  -15.9865 C   0  0  0  0  0  0  0  0  0  0  0  0
   -4.7376    5.6575  -16.8263 N   0  0  0  0  0  0  0  0  0  0  0  0
  1  2  2  0
  2  3  1  0
  2  4  1  0
  4  5  1  0
  5  6  2  0
  5  7  1  0
  7  8  1  0
  8  9  2  0
  9 10  1  0
 10 11  1  0
 11 12  1  0
 12 13  1  0
 13 14  1  0
 10 15  1  0
 15 16  2  0
 16  8  1  0
 14 12  1  0
M  END
>  <energy_score>  (3848) 
-12.286505

>  <alias>  (3848) 
HONVZDRPNNCOPS-UHFFFAOYSA-N-P86-P35-P86-601528

>  <HIPPO Pose ID>  (3848) 
80488

>  <smiles>  (3848) 
C=C(Br)CC(=O)Nc1cn(CC2CC2)cn1

>  <inchikey>  (3848) 
HONVZDRPNNCOPS-UHFFFAOYSA-N

>  <distance_score>  (3848) 
1.808063

>  <ref_mols>  (3848) 
Z0719a,Z1597a

>  <ref_pdb>  (3848) 
Z0719a

>  <HIPPO Compound ID>  (3848) 
151029

>  <name>  (3848) 
HONVZDRPNNCOPS-UHFFFAOYSA-N-P86-P35-P86-601528

>  <inspiration_score>  (3848) 
None

$$$$
PYMZOCTWGYNGQH-UHFFFAOYSA-N-P86-P35-P86-601528
     RDKit          3D

 16 17  0  0  0  0  0  0  0  0999 V2000
   -3.2350    8.7129  -21.5937 C   0  0  0  0  0  0  0  0  0  0  0  0
   -3.6173    7.4373  -21.7550 C   0  0  0  0  0  0  0  0  0  0  0  0
   -4.9732    6.9974  -22.9654 Br  0  0  0  0  0  0  0  0  0  0  0  0
   -2.9487    6.2916  -21.0558 C   0  0  0  0  0  0  0  0  0  0  0  0
   -3.5018    6.1768  -19.6435 C   0  0  0  0  0  0  0  0  0  0  0  0
   -2.9373    6.5989  -18.7098 O   0  0  0  0  0  0  0  0  0  0  0  0
   -4.8626    5.4307  -19.7463 N   0  0  0  0  0  0  0  0  0  0  0  0
   -5.7870    5.1553  -18.7976 C   0  0  0  0  0  0  0  0  0  0  0  0
   -6.9470    4.4496  -18.9860 C   0  0  0  0  0  0  0  0  0  0  0  0
   -7.5587    4.4447  -17.7721 N   0  0  0  0  0  0  0  0  0  0  0  0
   -8.7714    3.9085  -17.5083 N   0  0  0  0  0  0  0  0  0  0  0  0
   -9.0832    4.0357  -16.2632 C   0  0  0  0  0  0  0  0  0  0  0  0
   -8.2675    4.6427  -15.1878 C   0  0  0  0  0  0  0  0  0  0  0  0
   -7.0942    5.1680  -15.5432 C   0  0  0  0  0  0  0  0  0  0  0  0
   -6.7088    5.1026  -16.8959 C   0  0  0  0  0  0  0  0  0  0  0  0
   -5.6440    5.5682  -17.5086 N   0  0  0  0  0  0  0  0  0  0  0  0
  1  2  2  0
  2  3  1  0
  2  4  1  0
  4  5  1  0
  5  6  2  0
  5  7  1  0
  7  8  1  0
  8  9  2  0
  9 10  1  0
 10 11  1  0
 11 12  2  0
 12 13  1  0
 13 14  2  0
 14 15  1  0
 15 16  2  0
 16  8  1  0
 15 10  1  0
M  END
>  <energy_score>  (3849) 
-16.732796

>  <alias>  (3849) 
PYMZOCTWGYNGQH-UHFFFAOYSA-N-P86-P35-P86-601528

>  <HIPPO Pose ID>  (3849) 
80496

>  <smiles>  (3849) 
C=C(Br)CC(=O)Nc1cn2ncccc2n1

>  <inchikey>  (3849) 
PYMZOCTWGYNGQH-UHFFFAOYSA-N

>  <distance_score>  (3849) 
1.636843

>  <ref_mols>  (3849) 
Z0719a,Z1597a

>  <ref_pdb>  (3849) 
Z0719a

>  <HIPPO Compound ID>  (3849) 
151033

>  <name>  (3849) 
PYMZOCTWGYNGQH-UHFFFAOYSA-N-P86-P35-P86-601528

>  <inspiration_score>  (3849) 
None

$$$$
KVWGTUYEXDXXTP-UHFFFAOYSA-N-P86-P35-P86-601528
     RDKit          3D

 16 17  0  0  0  0  0  0  0  0999 V2000
   -4.4040    8.6268  -20.8835 C   0  0  0  0  0  0  0  0  0  0  0  0
   -4.6416    7.6929  -21.8174 C   0  0  0  0  0  0  0  0  0  0  0  0
   -5.3399    8.2081  -23.4882 Br  0  0  0  0  0  0  0  0  0  0  0  0
   -4.4087    6.2151  -21.6969 C   0  0  0  0  0  0  0  0  0  0  0  0
   -4.3550    5.7554  -20.2466 C   0  0  0  0  0  0  0  0  0  0  0  0
   -3.3693    5.7779  -19.6171 O   0  0  0  0  0  0  0  0  0  0  0  0
   -5.8097    5.3952  -19.8292 N   0  0  0  0  0  0  0  0  0  0  0  0
   -6.3262    5.1028  -18.6177 C   0  0  0  0  0  0  0  0  0  0  0  0
   -7.5993    4.6538  -18.3720 C   0  0  0  0  0  0  0  0  0  0  0  0
   -7.6770    4.5945  -17.0105 N   0  0  0  0  0  0  0  0  0  0  0  0
   -8.7407    4.2735  -16.1889 C   0  0  0  0  0  0  0  0  0  0  0  0
   -8.5730    4.3643  -14.8646 C   0  0  0  0  0  0  0  0  0  0  0  0
   -7.2234    4.7732  -14.4104 C   0  0  0  0  0  0  0  0  0  0  0  0
   -6.2246    5.1026  -15.1605 N   0  0  0  0  0  0  0  0  0  0  0  0
   -6.4467    5.0160  -16.5022 C   0  0  0  0  0  0  0  0  0  0  0  0
   -5.6240    5.3171  -17.4795 N   0  0  0  0  0  0  0  0  0  0  0  0
  1  2  2  0
  2  3  1  0
  2  4  1  0
  4  5  1  0
  5  6  2  0
  5  7  1  0
  7  8  1  0
  8  9  2  0
  9 10  1  0
 10 11  1  0
 11 12  2  0
 12 13  1  0
 13 14  2  0
 14 15  1  0
 15 16  2  0
 16  8  1  0
 15 10  1  0
M  END
>  <energy_score>  (3850) 
-28.354155

>  <alias>  (3850) 
KVWGTUYEXDXXTP-UHFFFAOYSA-N-P86-P35-P86-601528

>  <HIPPO Pose ID>  (3850) 
80498

>  <smiles>  (3850) 
C=C(Br)CC(=O)Nc1cn2cccnc2n1

>  <inchikey>  (3850) 
KVWGTUYEXDXXTP-UHFFFAOYSA-N

>  <distance_score>  (3850) 
1.486388

>  <ref_mols>  (3850) 
Z0719a,Z1597a

>  <ref_pdb>  (3850) 
Z0719a

>  <HIPPO Compound ID>  (3850) 
151034

>  <name>  (3850) 
KVWGTUYEXDXXTP-UHFFFAOYSA-N-P86-P35-P86-601528

>  <inspiration_score>  (3850) 
None

$$$$
LTNSSOPRWHABGV-UHFFFAOYSA-N-P35-P35-P86-601528
     RDKit          3D

 16 16  0  0  0  0  0  0  0  0999 V2000
   -4.6535    8.5677  -20.9386 C   0  0  0  0  0  0  0  0  0  0  0  0
   -4.9772    7.3208  -20.5664 C   0  0  0  0  0  0  0  0  0  0  0  0
   -4.2192    6.5117  -19.5553 C   0  0  2  0  0  0  0  0  0  0  0  0
   -3.7964    5.2978  -20.1649 O   0  0  0  0  0  0  0  0  0  0  0  0
   -4.9640    6.2899  -18.1874 C   0  0  0  0  0  0  0  0  0  0  0  0
   -4.4494    6.5871  -17.1754 O   0  0  0  0  0  0  0  0  0  0  0  0
   -6.3241    5.5677  -18.4579 N   0  0  0  0  0  0  0  0  0  0  0  0
   -7.2247    5.0140  -17.5877 C   0  0  0  0  0  0  0  0  0  0  0  0
   -8.3415    4.2437  -17.8360 C   0  0  0  0  0  0  0  0  0  0  0  0
   -8.7466    3.5974  -16.6852 N   0  0  0  0  0  0  0  0  0  0  0  0
   -7.8718    3.9473  -15.7557 C   0  0  0  0  0  0  0  0  0  0  0  0
   -7.6204    3.3598  -14.3896 C   0  0  0  0  0  0  0  0  0  0  0  0
   -7.1603    5.0312  -16.2185 N   0  0  0  0  0  0  0  0  0  0  0  0
   -6.6238    6.0496  -15.3467 C   0  0  0  0  0  0  0  0  0  0  0  0
   -7.4984    6.2897  -14.1865 C   0  0  0  0  0  0  0  0  0  0  0  0
   -8.2057    6.4096  -13.2726 N   0  0  0  0  0  0  0  0  0  0  0  0
  1  2  2  0
  2  3  1  0
  3  4  1  6
  3  5  1  0
  5  6  2  0
  5  7  1  0
  7  8  1  0
  8  9  2  0
  9 10  1  0
 10 11  2  0
 11 12  1  0
 11 13  1  0
 13 14  1  0
 14 15  1  0
 15 16  3  0
 13  8  1  0
M  END
>  <energy_score>  (3851) 
-12.322676

>  <alias>  (3851) 
LTNSSOPRWHABGV-UHFFFAOYSA-N-P35-P35-P86-601528

>  <HIPPO Pose ID>  (3851) 
80509

>  <smiles>  (3851) 
C=CC(O)C(=O)Nc1cnc(C)n1CC#N

>  <inchikey>  (3851) 
LTNSSOPRWHABGV-UHFFFAOYSA-N

>  <distance_score>  (3851) 
1.790069

>  <ref_mols>  (3851) 
Z0719a,Z1597a

>  <ref_pdb>  (3851) 
Z0719a

>  <HIPPO Compound ID>  (3851) 
151040

>  <name>  (3851) 
LTNSSOPRWHABGV-UHFFFAOYSA-N-P35-P35-P86-601528

>  <inspiration_score>  (3851) 
None

$$$$
ZIRSYMFTACBPNO-UHFFFAOYSA-N-P86-P35-P86-601528
     RDKit          3D

 16 17  0  0  0  0  0  0  0  0999 V2000
   -5.5383    8.6654  -23.5055 C   0  0  0  0  0  0  0  0  0  0  0  0
   -4.6362    8.5466  -21.9417 S   0  0  0  0  0  0  0  0  0  0  0  0
   -4.1223    6.8040  -22.0610 C   0  0  0  0  0  0  0  0  0  0  0  0
   -3.0689    6.4048  -21.0404 C   0  0  0  0  0  0  0  0  0  0  0  0
   -3.3709    6.6131  -19.5585 C   0  0  0  0  0  0  0  0  0  0  0  0
   -2.5781    7.0803  -18.8372 O   0  0  0  0  0  0  0  0  0  0  0  0
   -4.7740    6.0193  -19.2623 N   0  0  0  0  0  0  0  0  0  0  0  0
   -5.4061    5.8063  -18.0877 C   0  0  0  0  0  0  0  0  0  0  0  0
   -6.7089    5.3986  -17.9771 C   0  0  0  0  0  0  0  0  0  0  0  0
   -6.8799    5.1409  -16.6525 N   0  0  0  0  0  0  0  0  0  0  0  0
   -8.0381    4.6526  -15.9301 C   0  0  0  0  0  0  0  0  0  0  0  0
   -9.0843    3.8695  -16.6460 C   0  0  0  0  0  0  0  0  0  0  0  0
   -8.9800    3.1693  -17.9795 C   0  0  0  0  0  0  0  0  0  0  0  0
   -9.8867    4.3478  -17.8319 C   0  0  0  0  0  0  0  0  0  0  0  0
   -5.7185    5.4990  -16.0188 C   0  0  0  0  0  0  0  0  0  0  0  0
   -4.8186    5.9229  -16.8719 N   0  0  0  0  0  0  0  0  0  0  0  0
  1  2  1  0
  2  3  1  0
  3  4  1  0
  4  5  1  0
  5  6  2  0
  5  7  1  0
  7  8  1  0
  8  9  2  0
  9 10  1  0
 10 11  1  0
 11 12  1  0
 12 13  1  0
 13 14  1  0
 10 15  1  0
 15 16  2  0
 16  8  1  0
 14 12  1  0
M  END
>  <energy_score>  (3852) 
-14.553141

>  <alias>  (3852) 
ZIRSYMFTACBPNO-UHFFFAOYSA-N-P86-P35-P86-601528

>  <HIPPO Pose ID>  (3852) 
80514

>  <smiles>  (3852) 
CSCCC(=O)Nc1cn(CC2CC2)cn1

>  <inchikey>  (3852) 
ZIRSYMFTACBPNO-UHFFFAOYSA-N

>  <distance_score>  (3852) 
1.755575

>  <ref_mols>  (3852) 
Z0719a,Z1597a

>  <ref_pdb>  (3852) 
Z0719a

>  <HIPPO Compound ID>  (3852) 
151042

>  <name>  (3852) 
ZIRSYMFTACBPNO-UHFFFAOYSA-N-P86-P35-P86-601528

>  <inspiration_score>  (3852) 
None

$$$$
TZXJFJRJKZEOKP-UHFFFAOYSA-M-P35-P35-P86-601528
     RDKit          3D

 16 16  0  0  0  0  0  0  0  0999 V2000
   -4.9688    6.9108  -20.1033 C   0  0  0  0  0  0  0  0  0  0  0  0
   -3.9313    6.2980  -19.5160 C   0  0  0  0  0  0  0  0  0  0  0  0
   -2.3064    7.1955  -19.2661 Br  0  0  0  0  0  0  0  0  0  0  0  0
   -3.9477    4.8622  -19.0589 C   0  0  0  0  0  0  0  0  0  0  0  0
   -4.2491    4.6832  -17.5625 C   0  0  0  0  0  0  0  0  0  0  0  0
   -3.4254    4.5145  -16.7512 O   0  0  0  0  0  0  0  0  0  0  0  0
   -5.7974    4.7036  -17.4365 N   0  0  0  0  0  0  0  0  0  0  0  0
   -6.5945    4.6205  -16.3400 C   0  0  0  0  0  0  0  0  0  0  0  0
   -7.8381    5.1585  -16.6234 N   0  0  0  0  0  0  0  0  0  0  0  0
   -8.5643    4.9609  -15.5563 C   0  0  0  0  0  0  0  0  0  0  0  0
   -7.8380    4.3734  -14.5776 N   0  0  0  0  0  0  0  0  0  0  0  0
   -8.2459    4.1863  -13.2064 C   0  0  0  0  0  0  0  0  0  0  0  0
   -6.5831    4.0932  -15.0668 C   0  0  0  0  0  0  0  0  0  0  0  0
   -5.6140    3.2034  -14.2227 C   0  0  0  0  0  0  0  0  0  0  0  0
   -6.1591    2.1949  -13.6631 O   0  0  0  0  0  0  0  0  0  0  0  0
   -4.4120    3.5611  -14.0797 O   0  0  0  0  0  0  0  0  0  0  0  0
  1  2  2  0
  2  3  1  0
  2  4  1  0
  4  5  1  0
  5  6  2  0
  5  7  1  0
  7  8  1  0
  8  9  1  0
  9 10  2  0
 10 11  1  0
 11 12  1  0
 11 13  1  0
 13 14  1  0
 14 15  2  0
 14 16  1  0
 13  8  2  0
M  CHG  1  16  -1
M  END
>  <energy_score>  (3853) 
-8.505967

>  <alias>  (3853) 
TZXJFJRJKZEOKP-UHFFFAOYSA-M-P35-P35-P86-601528

>  <HIPPO Pose ID>  (3853) 
80523

>  <smiles>  (3853) 
C=C(Br)CC(=O)Nc1ncn(C)c1C(=O)[O-]

>  <inchikey>  (3853) 
TZXJFJRJKZEOKP-UHFFFAOYSA-M

>  <distance_score>  (3853) 
1.765762

>  <ref_mols>  (3853) 
Z0719a,Z1597a

>  <ref_pdb>  (3853) 
Z0719a

>  <HIPPO Compound ID>  (3853) 
151047

>  <name>  (3853) 
TZXJFJRJKZEOKP-UHFFFAOYSA-M-P35-P35-P86-601528

>  <inspiration_score>  (3853) 
None

$$$$
XOGJULKTBGKYRU-UHFFFAOYSA-N-P86-P35-P86-601528
     RDKit          3D

 16 16  0  0  0  0  0  0  0  0999 V2000
   -4.9329    6.7166  -21.5725 C   0  0  0  0  0  0  0  0  0  0  0  0
   -4.4113    6.9470  -20.3603 C   0  0  0  0  0  0  0  0  0  0  0  0
   -4.3114    8.6904  -19.6824 Br  0  0  0  0  0  0  0  0  0  0  0  0
   -3.8590    5.8669  -19.4724 C   0  0  0  0  0  0  0  0  0  0  0  0
   -4.5448    5.7587  -18.0994 C   0  0  0  0  0  0  0  0  0  0  0  0
   -3.9610    5.9066  -17.0952 O   0  0  0  0  0  0  0  0  0  0  0  0
   -6.0298    5.3547  -18.3550 N   0  0  0  0  0  0  0  0  0  0  0  0
   -7.0149    4.9794  -17.4760 C   0  0  0  0  0  0  0  0  0  0  0  0
   -8.1813    4.3146  -17.7974 C   0  0  0  0  0  0  0  0  0  0  0  0
   -8.6522    3.8630  -19.1043 C   0  0  0  0  0  0  0  0  0  0  0  0
   -8.9194    4.0116  -16.6874 N   0  0  0  0  0  0  0  0  0  0  0  0
   -8.2472    4.5103  -15.6770 C   0  0  0  0  0  0  0  0  0  0  0  0
   -8.6313    4.4303  -14.2454 C   0  0  0  0  0  0  0  0  0  0  0  0
   -7.1009    5.1448  -16.1178 N   0  0  0  0  0  0  0  0  0  0  0  0
   -6.3107    5.9735  -15.2499 C   0  0  0  0  0  0  0  0  0  0  0  0
   -5.4425    5.1818  -14.2987 C   0  0  0  0  0  0  0  0  0  0  0  0
  1  2  2  0
  2  3  1  0
  2  4  1  0
  4  5  1  0
  5  6  2  0
  5  7  1  0
  7  8  1  0
  8  9  2  0
  9 10  1  0
  9 11  1  0
 11 12  2  0
 12 13  1  0
 12 14  1  0
 14 15  1  0
 15 16  1  0
 14  8  1  0
M  END
>  <energy_score>  (3854) 
-26.263514

>  <alias>  (3854) 
XOGJULKTBGKYRU-UHFFFAOYSA-N-P86-P35-P86-601528

>  <HIPPO Pose ID>  (3854) 
80532

>  <smiles>  (3854) 
C=C(Br)CC(=O)Nc1c(C)nc(C)n1CC

>  <inchikey>  (3854) 
XOGJULKTBGKYRU-UHFFFAOYSA-N

>  <distance_score>  (3854) 
1.452085

>  <ref_mols>  (3854) 
Z0719a,Z1597a

>  <ref_pdb>  (3854) 
Z0719a

>  <HIPPO Compound ID>  (3854) 
151051

>  <name>  (3854) 
XOGJULKTBGKYRU-UHFFFAOYSA-N-P86-P35-P86-601528

>  <inspiration_score>  (3854) 
None

$$$$
GPUIREKLLCZPSN-UHFFFAOYSA-N-P86-P35-P86-601528
     RDKit          3D

 16 17  0  0  0  0  0  0  0  0999 V2000
   -4.5305    7.0069  -22.9558 C   0  0  0  0  0  0  0  0  0  0  0  0
   -3.7872    6.8065  -22.0333 C   0  0  0  0  0  0  0  0  0  0  0  0
   -2.8787    6.5564  -20.8953 C   0  0  2  0  0  0  0  0  0  0  0  0
   -2.1521    5.2223  -21.0239 C   0  0  0  0  0  0  0  0  0  0  0  0
   -3.6131    6.6292  -19.5504 C   0  0  0  0  0  0  0  0  0  0  0  0
   -3.2070    7.2802  -18.6647 O   0  0  0  0  0  0  0  0  0  0  0  0
   -4.8655    5.7030  -19.6324 N   0  0  0  0  0  0  0  0  0  0  0  0
   -5.7541    5.3423  -18.6794 C   0  0  0  0  0  0  0  0  0  0  0  0
   -6.8697    4.5659  -18.8658 C   0  0  0  0  0  0  0  0  0  0  0  0
   -7.4712    4.5162  -17.6465 N   0  0  0  0  0  0  0  0  0  0  0  0
   -8.6646    3.9365  -17.3777 N   0  0  0  0  0  0  0  0  0  0  0  0
   -8.9756    4.0428  -16.1292 C   0  0  0  0  0  0  0  0  0  0  0  0
   -8.1676    4.6606  -15.0562 C   0  0  0  0  0  0  0  0  0  0  0  0
   -7.0132    5.2287  -15.4116 C   0  0  0  0  0  0  0  0  0  0  0  0
   -6.6415    5.1984  -16.7688 C   0  0  0  0  0  0  0  0  0  0  0  0
   -5.6132    5.7331  -17.3845 N   0  0  0  0  0  0  0  0  0  0  0  0
  1  2  3  0
  2  3  1  0
  3  4  1  6
  3  5  1  0
  5  6  2  0
  5  7  1  0
  7  8  1  0
  8  9  2  0
  9 10  1  0
 10 11  1  0
 11 12  2  0
 12 13  1  0
 13 14  2  0
 14 15  1  0
 15 16  2  0
 16  8  1  0
 15 10  1  0
M  END
>  <energy_score>  (3855) 
-30.873821

>  <alias>  (3855) 
GPUIREKLLCZPSN-UHFFFAOYSA-N-P86-P35-P86-601528

>  <HIPPO Pose ID>  (3855) 
80538

>  <smiles>  (3855) 
C#CC(C)C(=O)Nc1cn2ncccc2n1

>  <inchikey>  (3855) 
GPUIREKLLCZPSN-UHFFFAOYSA-N

>  <distance_score>  (3855) 
1.73557

>  <ref_mols>  (3855) 
Z0719a,Z1597a

>  <ref_pdb>  (3855) 
Z0719a

>  <HIPPO Compound ID>  (3855) 
151054

>  <name>  (3855) 
GPUIREKLLCZPSN-UHFFFAOYSA-N-P86-P35-P86-601528

>  <inspiration_score>  (3855) 
None

$$$$
XOLQNWRXFSZWBH-UHFFFAOYSA-N-P86-P35-P86-601528
     RDKit          3D

 16 17  0  0  0  0  0  0  0  0999 V2000
   -4.5304    7.0113  -22.9502 C   0  0  0  0  0  0  0  0  0  0  0  0
   -3.7738    6.8241  -22.0357 C   0  0  0  0  0  0  0  0  0  0  0  0
   -2.8465    6.5914  -20.9085 C   0  0  2  0  0  0  0  0  0  0  0  0
   -2.1270    5.2524  -21.0290 C   0  0  0  0  0  0  0  0  0  0  0  0
   -3.5590    6.6881  -19.5531 C   0  0  0  0  0  0  0  0  0  0  0  0
   -3.1409    7.3540  -18.6848 O   0  0  0  0  0  0  0  0  0  0  0  0
   -4.8106    5.7588  -19.6009 N   0  0  0  0  0  0  0  0  0  0  0  0
   -5.6845    5.4124  -18.6284 C   0  0  0  0  0  0  0  0  0  0  0  0
   -6.8033    4.6391  -18.8010 C   0  0  0  0  0  0  0  0  0  0  0  0
   -7.3808    4.5921  -17.5689 N   0  0  0  0  0  0  0  0  0  0  0  0
   -8.5767    4.0334  -17.1764 C   0  0  0  0  0  0  0  0  0  0  0  0
   -8.9164    4.1234  -15.8901 C   0  0  0  0  0  0  0  0  0  0  0  0
   -7.9370    4.7845  -14.9961 C   0  0  0  0  0  0  0  0  0  0  0  0
   -6.8275    5.3464  -15.3532 N   0  0  0  0  0  0  0  0  0  0  0  0
   -6.5408    5.2717  -16.6855 C   0  0  0  0  0  0  0  0  0  0  0  0
   -5.5319    5.8069  -17.3381 N   0  0  0  0  0  0  0  0  0  0  0  0
  1  2  3  0
  2  3  1  0
  3  4  1  6
  3  5  1  0
  5  6  2  0
  5  7  1  0
  7  8  1  0
  8  9  2  0
  9 10  1  0
 10 11  1  0
 11 12  2  0
 12 13  1  0
 13 14  2  0
 14 15  1  0
 15 16  2  0
 16  8  1  0
 15 10  1  0
M  END
>  <energy_score>  (3856) 
-2.744622

>  <alias>  (3856) 
XOLQNWRXFSZWBH-UHFFFAOYSA-N-P86-P35-P86-601528

>  <HIPPO Pose ID>  (3856) 
80540

>  <smiles>  (3856) 
C#CC(C)C(=O)Nc1cn2cccnc2n1

>  <inchikey>  (3856) 
XOLQNWRXFSZWBH-UHFFFAOYSA-N

>  <distance_score>  (3856) 
1.709619

>  <ref_mols>  (3856) 
Z0719a,Z1597a

>  <ref_pdb>  (3856) 
Z0719a

>  <HIPPO Compound ID>  (3856) 
151055

>  <name>  (3856) 
XOLQNWRXFSZWBH-UHFFFAOYSA-N-P86-P35-P86-601528

>  <inspiration_score>  (3856) 
None

$$$$
RAHLKOGLRVRFME-UHFFFAOYSA-N-P86-P35-P86-601528
     RDKit          3D

 16 16  0  0  0  0  0  0  0  0999 V2000
   -7.2960    5.4555  -13.9422 C   0  0  0  0  0  0  0  0  0  0  0  0
   -5.9683    5.4378  -14.4779 O   0  0  0  0  0  0  0  0  0  0  0  0
   -5.6842    5.0735  -15.7726 C   0  0  0  0  0  0  0  0  0  0  0  0
   -4.5113    4.8608  -16.0714 O   0  0  0  0  0  0  0  0  0  0  0  0
   -6.7882    4.9190  -16.7404 C   0  0  0  0  0  0  0  0  0  0  0  0
   -8.0803    4.5313  -16.3631 N   0  0  0  0  0  0  0  0  0  0  0  0
   -8.7530    4.3284  -17.4642 C   0  0  0  0  0  0  0  0  0  0  0  0
   -7.9832    4.5953  -18.5519 N   0  0  0  0  0  0  0  0  0  0  0  0
   -6.7330    4.9795  -18.1313 C   0  0  0  0  0  0  0  0  0  0  0  0
   -5.7921    5.2747  -19.0831 N   0  0  0  0  0  0  0  0  0  0  0  0
   -4.4264    6.0325  -18.9615 C   0  0  0  0  0  0  0  0  0  0  0  0
   -3.9428    6.5820  -18.0473 O   0  0  0  0  0  0  0  0  0  0  0  0
   -3.7143    5.8546  -20.3309 C   0  0  1  0  0  0  0  0  0  0  0  0
   -4.2815    6.8600  -21.3232 C   0  0  0  0  0  0  0  0  0  0  0  0
   -2.3037    6.0544  -20.1749 O   0  0  0  0  0  0  0  0  0  0  0  0
   -1.5884    5.4676  -21.3144 N   0  0  0  0  0  0  0  0  0  0  0  0
  1  2  1  0
  2  3  1  0
  3  4  2  0
  3  5  1  0
  5  6  1  0
  6  7  2  0
  7  8  1  0
  8  9  1  0
  9 10  1  0
 10 11  1  0
 11 12  2  0
 11 13  1  0
 13 14  1  6
 13 15  1  0
 15 16  1  0
  9  5  2  0
M  END
>  <energy_score>  (3857) 
-24.696349

>  <alias>  (3857) 
RAHLKOGLRVRFME-UHFFFAOYSA-N-P86-P35-P86-601528

>  <HIPPO Pose ID>  (3857) 
80542

>  <smiles>  (3857) 
COC(=O)c1nc[nH]c1NC(=O)C(C)ON

>  <inchikey>  (3857) 
RAHLKOGLRVRFME-UHFFFAOYSA-N

>  <distance_score>  (3857) 
1.860514

>  <ref_mols>  (3857) 
Z0719a,Z1597a

>  <ref_pdb>  (3857) 
Z0719a

>  <HIPPO Compound ID>  (3857) 
151056

>  <name>  (3857) 
RAHLKOGLRVRFME-UHFFFAOYSA-N-P86-P35-P86-601528

>  <inspiration_score>  (3857) 
None

$$$$
ZBEXPWXSXWCLGE-UHFFFAOYSA-N-P86-P35-P86-601528
     RDKit          3D

 16 17  0  0  0  0  0  0  0  0999 V2000
   -3.6670    6.7863  -22.0710 C   0  0  0  0  0  0  0  0  0  0  0  0
   -2.8832    5.8501  -21.1605 C   0  0  1  0  0  0  0  0  0  0  0  0
   -1.4928    6.1773  -21.2164 O   0  0  0  0  0  0  0  0  0  0  0  0
   -0.8617    5.4500  -22.3308 N   0  0  0  0  0  0  0  0  0  0  0  0
   -3.4323    5.9786  -19.7279 C   0  0  0  0  0  0  0  0  0  0  0  0
   -2.8607    6.5054  -18.8516 O   0  0  0  0  0  0  0  0  0  0  0  0
   -4.8116    5.2411  -19.7391 N   0  0  0  0  0  0  0  0  0  0  0  0
   -5.7389    5.0988  -18.7643 C   0  0  0  0  0  0  0  0  0  0  0  0
   -6.9495    4.4682  -18.9018 C   0  0  0  0  0  0  0  0  0  0  0  0
   -7.5019    4.4918  -17.6596 N   0  0  0  0  0  0  0  0  0  0  0  0
   -8.7041    3.9694  -17.3243 N   0  0  0  0  0  0  0  0  0  0  0  0
   -8.9494    4.1073  -16.0643 C   0  0  0  0  0  0  0  0  0  0  0  0
   -8.0770    4.7335  -15.0476 C   0  0  0  0  0  0  0  0  0  0  0  0
   -6.9149    5.2397  -15.4673 C   0  0  0  0  0  0  0  0  0  0  0  0
   -6.5919    5.1361  -16.8338 C   0  0  0  0  0  0  0  0  0  0  0  0
   -5.5303    5.5374  -17.4949 N   0  0  0  0  0  0  0  0  0  0  0  0
  2  1  1  6
  2  3  1  0
  3  4  1  0
  2  5  1  0
  5  6  2  0
  5  7  1  0
  7  8  1  0
  8  9  2  0
  9 10  1  0
 10 11  1  0
 11 12  2  0
 12 13  1  0
 13 14  2  0
 14 15  1  0
 15 16  2  0
 16  8  1  0
 15 10  1  0
M  END
>  <energy_score>  (3858) 
-42.922231

>  <alias>  (3858) 
ZBEXPWXSXWCLGE-UHFFFAOYSA-N-P86-P35-P86-601528

>  <HIPPO Pose ID>  (3858) 
80568

>  <smiles>  (3858) 
CC(ON)C(=O)Nc1cn2ncccc2n1

>  <inchikey>  (3858) 
ZBEXPWXSXWCLGE-UHFFFAOYSA-N

>  <distance_score>  (3858) 
1.966799

>  <ref_mols>  (3858) 
Z0719a,Z1597a

>  <ref_pdb>  (3858) 
Z0719a

>  <HIPPO Compound ID>  (3858) 
151069

>  <name>  (3858) 
ZBEXPWXSXWCLGE-UHFFFAOYSA-N-P86-P35-P86-601528

>  <inspiration_score>  (3858) 
None

$$$$
AEDSXAZHHDKKQR-UHFFFAOYSA-N-P86-P35-P86-601528
     RDKit          3D

 16 17  0  0  0  0  0  0  0  0999 V2000
   -3.7068    6.7515  -22.0773 C   0  0  0  0  0  0  0  0  0  0  0  0
   -2.9243    5.8225  -21.1583 C   0  0  1  0  0  0  0  0  0  0  0  0
   -1.5285    6.1175  -21.2603 O   0  0  0  0  0  0  0  0  0  0  0  0
   -0.9389    5.3526  -22.3733 N   0  0  0  0  0  0  0  0  0  0  0  0
   -3.4241    6.0010  -19.7129 C   0  0  0  0  0  0  0  0  0  0  0  0
   -2.7829    6.4780  -18.8565 O   0  0  0  0  0  0  0  0  0  0  0  0
   -4.8751    5.4148  -19.6864 N   0  0  0  0  0  0  0  0  0  0  0  0
   -5.7274    5.2265  -18.6519 C   0  0  0  0  0  0  0  0  0  0  0  0
   -6.9459    4.5983  -18.7151 C   0  0  0  0  0  0  0  0  0  0  0  0
   -7.4032    4.6078  -17.4304 N   0  0  0  0  0  0  0  0  0  0  0  0
   -8.5868    4.1335  -16.9049 C   0  0  0  0  0  0  0  0  0  0  0  0
   -8.7859    4.2627  -15.5911 C   0  0  0  0  0  0  0  0  0  0  0  0
   -7.6878    4.8863  -14.8179 C   0  0  0  0  0  0  0  0  0  0  0  0
   -6.5875    5.3663  -15.2975 N   0  0  0  0  0  0  0  0  0  0  0  0
   -6.4317    5.2320  -16.6458 C   0  0  0  0  0  0  0  0  0  0  0  0
   -5.4310    5.6384  -17.3945 N   0  0  0  0  0  0  0  0  0  0  0  0
  2  1  1  6
  2  3  1  0
  3  4  1  0
  2  5  1  0
  5  6  2  0
  5  7  1  0
  7  8  1  0
  8  9  2  0
  9 10  1  0
 10 11  1  0
 11 12  2  0
 12 13  1  0
 13 14  2  0
 14 15  1  0
 15 16  2  0
 16  8  1  0
 15 10  1  0
M  END
>  <energy_score>  (3859) 
-7.642899

>  <alias>  (3859) 
AEDSXAZHHDKKQR-UHFFFAOYSA-N-P86-P35-P86-601528

>  <HIPPO Pose ID>  (3859) 
80570

>  <smiles>  (3859) 
CC(ON)C(=O)Nc1cn2cccnc2n1

>  <inchikey>  (3859) 
AEDSXAZHHDKKQR-UHFFFAOYSA-N

>  <distance_score>  (3859) 
1.575193

>  <ref_mols>  (3859) 
Z0719a,Z1597a

>  <ref_pdb>  (3859) 
Z0719a

>  <HIPPO Compound ID>  (3859) 
151070

>  <name>  (3859) 
AEDSXAZHHDKKQR-UHFFFAOYSA-N-P86-P35-P86-601528

>  <inspiration_score>  (3859) 
None

$$$$
URJVEONHSMWJLB-UHFFFAOYSA-N-P35-P35-P86-601528
     RDKit          3D

 16 16  0  0  0  0  0  0  0  0999 V2000
   -4.7754    7.7918  -21.5870 C   0  0  0  0  0  0  0  0  0  0  0  0
   -4.2977    7.1219  -20.7118 C   0  0  0  0  0  0  0  0  0  0  0  0
   -3.7088    6.2865  -19.6448 C   0  0  1  0  0  0  0  0  0  0  0  0
   -2.3069    6.7950  -19.3078 C   0  0  0  0  0  0  0  0  0  0  0  0
   -4.5959    6.2378  -18.3845 C   0  0  0  0  0  0  0  0  0  0  0  0
   -4.2377    6.6243  -17.3390 O   0  0  0  0  0  0  0  0  0  0  0  0
   -5.9161    5.5116  -18.7967 N   0  0  0  0  0  0  0  0  0  0  0  0
   -6.9536    5.0586  -18.0333 C   0  0  0  0  0  0  0  0  0  0  0  0
   -8.1891    4.8718  -18.5933 N   0  0  0  0  0  0  0  0  0  0  0  0
   -9.0527    4.4938  -17.6087 C   0  0  0  0  0  0  0  0  0  0  0  0
   -8.4337    4.3630  -16.4633 N   0  0  0  0  0  0  0  0  0  0  0  0
   -7.0972    4.6958  -16.7001 C   0  0  0  0  0  0  0  0  0  0  0  0
   -6.0291    4.5221  -15.7006 C   0  0  0  0  0  0  0  0  0  0  0  0
   -4.8789    4.2148  -16.0143 O   0  0  0  0  0  0  0  0  0  0  0  0
   -6.3406    4.6435  -14.3682 O   0  0  0  0  0  0  0  0  0  0  0  0
   -7.6172    5.1167  -13.9232 C   0  0  0  0  0  0  0  0  0  0  0  0
  1  2  3  0
  2  3  1  0
  3  4  1  1
  3  5  1  0
  5  6  2  0
  5  7  1  0
  7  8  1  0
  8  9  1  0
  9 10  1  0
 10 11  2  0
 11 12  1  0
 12 13  1  0
 13 14  2  0
 13 15  1  0
 15 16  1  0
 12  8  2  0
M  END
>  <energy_score>  (3860) 
-11.166691

>  <alias>  (3860) 
URJVEONHSMWJLB-UHFFFAOYSA-N-P35-P35-P86-601528

>  <HIPPO Pose ID>  (3860) 
80579

>  <smiles>  (3860) 
C#CC(C)C(=O)Nc1[nH]cnc1C(=O)OC

>  <inchikey>  (3860) 
URJVEONHSMWJLB-UHFFFAOYSA-N

>  <distance_score>  (3860) 
1.674116

>  <ref_mols>  (3860) 
Z0719a,Z1597a

>  <ref_pdb>  (3860) 
Z0719a

>  <HIPPO Compound ID>  (3860) 
151075

>  <name>  (3860) 
URJVEONHSMWJLB-UHFFFAOYSA-N-P35-P35-P86-601528

>  <inspiration_score>  (3860) 
None

$$$$
CZGXYZZHDCQTBI-UHFFFAOYSA-N-P86-P35-P86-601528
     RDKit          3D

 16 16  0  0  0  0  0  0  0  0999 V2000
   -8.1684    4.8340  -12.8035 C   0  0  0  0  0  0  0  0  0  0  0  0
   -7.3885    4.9141  -14.1166 C   0  0  0  0  0  0  0  0  0  0  0  0
   -6.0075    4.3045  -13.8882 C   0  0  0  0  0  0  0  0  0  0  0  0
   -8.2308    4.2200  -15.1868 C   0  0  0  0  0  0  0  0  0  0  0  0
   -7.9100    4.4174  -16.5707 N   0  0  0  0  0  0  0  0  0  0  0  0
   -8.7959    4.1388  -17.5688 C   0  0  0  0  0  0  0  0  0  0  0  0
   -8.2952    4.4597  -18.7327 N   0  0  0  0  0  0  0  0  0  0  0  0
   -7.0522    4.9430  -18.4744 C   0  0  0  0  0  0  0  0  0  0  0  0
   -6.3151    5.4083  -19.5009 N   0  0  0  0  0  0  0  0  0  0  0  0
   -4.8159    5.8045  -19.5672 C   0  0  0  0  0  0  0  0  0  0  0  0
   -4.0099    5.8609  -18.7237 O   0  0  0  0  0  0  0  0  0  0  0  0
   -4.5854    6.2132  -21.0211 C   0  0  0  0  0  0  0  0  0  0  0  0
   -3.1655    6.6690  -21.3105 C   0  0  0  0  0  0  0  0  0  0  0  0
   -2.3016    5.5437  -21.8341 C   0  0  0  0  0  0  0  0  0  0  0  0
   -1.8861    5.4929  -22.9950 O   0  0  0  0  0  0  0  0  0  0  0  0
   -6.7855    4.9334  -17.1382 C   0  0  0  0  0  0  0  0  0  0  0  0
  1  2  1  0
  2  3  1  0
  2  4  1  0
  4  5  1  0
  5  6  1  0
  6  7  2  0
  7  8  1  0
  8  9  1  0
  9 10  1  0
 10 11  2  0
 10 12  1  0
 12 13  1  0
 13 14  1  0
 14 15  2  0
  8 16  2  0
 16  5  1  0
M  END
>  <energy_score>  (3861) 
-20.231838

>  <alias>  (3861) 
CZGXYZZHDCQTBI-UHFFFAOYSA-N-P86-P35-P86-601528

>  <HIPPO Pose ID>  (3861) 
80584

>  <smiles>  (3861) 
CC(C)Cn1cnc(NC(=O)CCC=O)c1

>  <inchikey>  (3861) 
CZGXYZZHDCQTBI-UHFFFAOYSA-N

>  <distance_score>  (3861) 
1.321141

>  <ref_mols>  (3861) 
Z0719a,Z1597a

>  <ref_pdb>  (3861) 
Z0719a

>  <HIPPO Compound ID>  (3861) 
151077

>  <name>  (3861) 
CZGXYZZHDCQTBI-UHFFFAOYSA-N-P86-P35-P86-601528

>  <inspiration_score>  (3861) 
None

$$$$
HDAVYMXRAFFVNQ-UHFFFAOYSA-N-P86-P35-P86-601528
     RDKit          3D

 16 17  0  0  0  0  0  0  0  0999 V2000
   -3.6425    7.4245  -24.1974 O   0  0  0  0  0  0  0  0  0  0  0  0
   -3.8731    8.1800  -23.2583 C   0  0  0  0  0  0  0  0  0  0  0  0
   -4.3550    7.7364  -21.8997 C   0  0  0  0  0  0  0  0  0  0  0  0
   -4.3281    6.2323  -21.7640 C   0  0  0  0  0  0  0  0  0  0  0  0
   -4.2600    5.8803  -20.3006 C   0  0  0  0  0  0  0  0  0  0  0  0
   -3.2477    5.8926  -19.7164 O   0  0  0  0  0  0  0  0  0  0  0  0
   -5.7085    5.6384  -19.7980 N   0  0  0  0  0  0  0  0  0  0  0  0
   -6.1655    5.2927  -18.5766 C   0  0  0  0  0  0  0  0  0  0  0  0
   -7.4411    4.9257  -18.2248 C   0  0  0  0  0  0  0  0  0  0  0  0
   -7.3583    4.6827  -16.8786 N   0  0  0  0  0  0  0  0  0  0  0  0
   -8.4668    4.3202  -16.0103 C   0  0  0  0  0  0  0  0  0  0  0  0
   -8.1124    4.3282  -14.5504 C   0  0  0  0  0  0  0  0  0  0  0  0
   -8.8192    5.2449  -13.5905 C   0  0  0  0  0  0  0  0  0  0  0  0
   -7.3694    5.4600  -13.8641 C   0  0  0  0  0  0  0  0  0  0  0  0
   -6.0565    4.8629  -16.5145 C   0  0  0  0  0  0  0  0  0  0  0  0
   -5.3297    5.2877  -17.5113 N   0  0  0  0  0  0  0  0  0  0  0  0
  1  2  2  0
  2  3  1  0
  3  4  1  0
  4  5  1  0
  5  6  2  0
  5  7  1  0
  7  8  1  0
  8  9  2  0
  9 10  1  0
 10 11  1  0
 11 12  1  0
 12 13  1  0
 13 14  1  0
 10 15  1  0
 15 16  2  0
 16  8  1  0
 14 12  1  0
M  END
>  <energy_score>  (3862) 
-17.311953

>  <alias>  (3862) 
HDAVYMXRAFFVNQ-UHFFFAOYSA-N-P86-P35-P86-601528

>  <HIPPO Pose ID>  (3862) 
80588

>  <smiles>  (3862) 
O=CCCC(=O)Nc1cn(CC2CC2)cn1

>  <inchikey>  (3862) 
HDAVYMXRAFFVNQ-UHFFFAOYSA-N

>  <distance_score>  (3862) 
1.74065

>  <ref_mols>  (3862) 
Z0719a,Z1597a

>  <ref_pdb>  (3862) 
Z0719a

>  <HIPPO Compound ID>  (3862) 
151079

>  <name>  (3862) 
HDAVYMXRAFFVNQ-UHFFFAOYSA-N-P86-P35-P86-601528

>  <inspiration_score>  (3862) 
None

$$$$
IVUXHAPQQBODGN-UHFFFAOYSA-M-P35-P35-P86-601528
     RDKit          3D

 16 16  0  0  0  0  0  0  0  0999 V2000
   -9.1845    4.4296  -15.5301 C   0  0  0  0  0  0  0  0  0  0  0  0
   -8.4063    4.4503  -16.7302 N   0  0  0  0  0  0  0  0  0  0  0  0
   -8.8483    4.2108  -17.9847 C   0  0  0  0  0  0  0  0  0  0  0  0
   -7.8592    4.2993  -18.8413 N   0  0  0  0  0  0  0  0  0  0  0  0
   -6.7678    4.6979  -18.1112 C   0  0  0  0  0  0  0  0  0  0  0  0
   -5.6773    5.0355  -18.8340 N   0  0  0  0  0  0  0  0  0  0  0  0
   -4.3915    5.7933  -18.4206 C   0  0  0  0  0  0  0  0  0  0  0  0
   -4.1087    6.3100  -17.4130 O   0  0  0  0  0  0  0  0  0  0  0  0
   -3.5032    5.8706  -19.6457 C   0  0  0  0  0  0  0  0  0  0  0  0
   -4.0270    6.9240  -20.6098 C   0  0  0  0  0  0  0  0  0  0  0  0
   -3.6647    8.2996  -20.1128 C   0  0  0  0  0  0  0  0  0  0  0  0
   -3.0279    9.1016  -20.7927 O   0  0  0  0  0  0  0  0  0  0  0  0
   -7.0691    4.7089  -16.7819 C   0  0  0  0  0  0  0  0  0  0  0  0
   -6.2518    4.9138  -15.5057 C   0  0  0  0  0  0  0  0  0  0  0  0
   -5.2362    4.1834  -15.3203 O   0  0  0  0  0  0  0  0  0  0  0  0
   -6.7553    5.7668  -14.7163 O   0  0  0  0  0  0  0  0  0  0  0  0
  1  2  1  0
  2  3  1  0
  3  4  2  0
  4  5  1  0
  5  6  1  0
  6  7  1  0
  7  8  2  0
  7  9  1  0
  9 10  1  0
 10 11  1  0
 11 12  2  0
  5 13  2  0
 13 14  1  0
 14 15  2  0
 14 16  1  0
 13  2  1  0
M  CHG  1  16  -1
M  END
>  <energy_score>  (3863) 
-29.772708

>  <alias>  (3863) 
IVUXHAPQQBODGN-UHFFFAOYSA-M-P35-P35-P86-601528

>  <HIPPO Pose ID>  (3863) 
80591

>  <smiles>  (3863) 
Cn1cnc(NC(=O)CCC=O)c1C(=O)[O-]

>  <inchikey>  (3863) 
IVUXHAPQQBODGN-UHFFFAOYSA-M

>  <distance_score>  (3863) 
1.652709

>  <ref_mols>  (3863) 
Z0719a,Z1597a

>  <ref_pdb>  (3863) 
Z0719a

>  <HIPPO Compound ID>  (3863) 
151081

>  <name>  (3863) 
IVUXHAPQQBODGN-UHFFFAOYSA-M-P35-P35-P86-601528

>  <inspiration_score>  (3863) 
None

$$$$
ZXASVENLCQCDIW-UHFFFAOYSA-N-P86-P35-P86-601528
     RDKit          3D

 16 17  0  0  0  0  0  0  0  0999 V2000
   -5.5548    9.3166  -20.2272 O   0  0  0  0  0  0  0  0  0  0  0  0
   -4.6158    8.6218  -20.6155 C   0  0  0  0  0  0  0  0  0  0  0  0
   -4.6816    7.8188  -21.8964 C   0  0  0  0  0  0  0  0  0  0  0  0
   -4.2913    6.3570  -21.7964 C   0  0  0  0  0  0  0  0  0  0  0  0
   -4.2971    5.8792  -20.3668 C   0  0  0  0  0  0  0  0  0  0  0  0
   -3.3561    5.9796  -19.6828 O   0  0  0  0  0  0  0  0  0  0  0  0
   -5.7283    5.3857  -20.0394 N   0  0  0  0  0  0  0  0  0  0  0  0
   -6.2839    5.0290  -18.8637 C   0  0  0  0  0  0  0  0  0  0  0  0
   -7.5603    4.5662  -18.6561 C   0  0  0  0  0  0  0  0  0  0  0  0
   -7.6890    4.5426  -17.2982 N   0  0  0  0  0  0  0  0  0  0  0  0
   -8.7759    4.2273  -16.5033 C   0  0  0  0  0  0  0  0  0  0  0  0
   -8.6523    4.3575  -15.1773 C   0  0  0  0  0  0  0  0  0  0  0  0
   -7.3314    4.8220  -14.6946 C   0  0  0  0  0  0  0  0  0  0  0  0
   -6.3181    5.1420  -15.4285 N   0  0  0  0  0  0  0  0  0  0  0  0
   -6.4881    4.9881  -16.7651 C   0  0  0  0  0  0  0  0  0  0  0  0
   -5.6173    5.2387  -17.7096 N   0  0  0  0  0  0  0  0  0  0  0  0
  1  2  2  0
  2  3  1  0
  3  4  1  0
  4  5  1  0
  5  6  2  0
  5  7  1  0
  7  8  1  0
  8  9  2  0
  9 10  1  0
 10 11  1  0
 11 12  2  0
 12 13  1  0
 13 14  2  0
 14 15  1  0
 15 16  2  0
 16  8  1  0
 15 10  1  0
M  END
>  <energy_score>  (3864) 
-25.171644

>  <alias>  (3864) 
ZXASVENLCQCDIW-UHFFFAOYSA-N-P86-P35-P86-601528

>  <HIPPO Pose ID>  (3864) 
80598

>  <smiles>  (3864) 
O=CCCC(=O)Nc1cn2cccnc2n1

>  <inchikey>  (3864) 
ZXASVENLCQCDIW-UHFFFAOYSA-N

>  <distance_score>  (3864) 
1.949476

>  <ref_mols>  (3864) 
Z0719a,Z1597a

>  <ref_pdb>  (3864) 
Z0719a

>  <HIPPO Compound ID>  (3864) 
151084

>  <name>  (3864) 
ZXASVENLCQCDIW-UHFFFAOYSA-N-P86-P35-P86-601528

>  <inspiration_score>  (3864) 
None

$$$$
UVSBPHFZDIVJDI-UHFFFAOYSA-N-P35-P35-P86-601528
     RDKit          3D

 16 16  0  0  0  0  0  0  0  0999 V2000
   -3.7097    7.5512  -23.8360 C   0  0  0  0  0  0  0  0  0  0  0  0
   -3.8985    7.4633  -22.5555 C   0  0  0  0  0  0  0  0  0  0  0  0
   -4.1075    7.3642  -21.2745 C   0  0  0  0  0  0  0  0  0  0  0  0
   -5.4596    7.1428  -20.6497 C   0  0  0  0  0  0  0  0  0  0  0  0
   -5.3334    6.4910  -19.2665 C   0  0  0  0  0  0  0  0  0  0  0  0
   -4.4035    6.6833  -18.5787 O   0  0  0  0  0  0  0  0  0  0  0  0
   -6.6460    5.6968  -18.9912 N   0  0  0  0  0  0  0  0  0  0  0  0
   -7.0914    5.1004  -17.8606 C   0  0  0  0  0  0  0  0  0  0  0  0
   -6.4089    5.0307  -16.6789 C   0  0  0  0  0  0  0  0  0  0  0  0
   -7.2729    4.4685  -15.7821 N   0  0  0  0  0  0  0  0  0  0  0  0
   -7.1242    4.5169  -14.3413 C   0  0  0  0  0  0  0  0  0  0  0  0
   -5.9694    3.7648  -13.6142 C   0  0  0  0  0  0  0  0  0  0  0  0
   -4.5948    3.8894  -14.2596 C   0  0  0  0  0  0  0  0  0  0  0  0
   -6.3390    2.3211  -13.3263 C   0  0  0  0  0  0  0  0  0  0  0  0
   -8.4377    4.2328  -16.4619 C   0  0  0  0  0  0  0  0  0  0  0  0
   -8.3396    4.5847  -17.7278 N   0  0  0  0  0  0  0  0  0  0  0  0
  1  2  2  0
  2  3  2  0
  3  4  1  0
  4  5  1  0
  5  6  2  0
  5  7  1  0
  7  8  1  0
  8  9  2  0
  9 10  1  0
 10 11  1  0
 11 12  1  0
 12 13  1  0
 12 14  1  0
 10 15  1  0
 15 16  2  0
 16  8  1  0
M  END
>  <energy_score>  (3865) 
-34.108597

>  <alias>  (3865) 
UVSBPHFZDIVJDI-UHFFFAOYSA-N-P35-P35-P86-601528

>  <HIPPO Pose ID>  (3865) 
80599

>  <smiles>  (3865) 
C=C=CCC(=O)Nc1cn(CC(C)C)cn1

>  <inchikey>  (3865) 
UVSBPHFZDIVJDI-UHFFFAOYSA-N

>  <distance_score>  (3865) 
1.676853

>  <ref_mols>  (3865) 
Z0719a,Z1597a

>  <ref_pdb>  (3865) 
Z0719a

>  <HIPPO Compound ID>  (3865) 
151085

>  <name>  (3865) 
UVSBPHFZDIVJDI-UHFFFAOYSA-N-P35-P35-P86-601528

>  <inspiration_score>  (3865) 
None

$$$$
FVZTZWWQEHSDFF-UHFFFAOYSA-N-P86-P35-P86-601528
     RDKit          3D

 16 17  0  0  0  0  0  0  0  0999 V2000
   -4.1381    7.7825  -24.6293 C   0  0  0  0  0  0  0  0  0  0  0  0
   -2.8403    6.9477  -23.6825 S   0  0  0  0  0  0  0  0  0  0  0  0
   -3.6749    6.9175  -22.0560 C   0  0  0  0  0  0  0  0  0  0  0  0
   -2.8618    6.0967  -21.0698 C   0  0  0  0  0  0  0  0  0  0  0  0
   -3.4890    6.1933  -19.6935 C   0  0  0  0  0  0  0  0  0  0  0  0
   -2.9907    6.7832  -18.8159 O   0  0  0  0  0  0  0  0  0  0  0  0
   -4.8465    5.4375  -19.7569 N   0  0  0  0  0  0  0  0  0  0  0  0
   -5.7611    5.1906  -18.7891 C   0  0  0  0  0  0  0  0  0  0  0  0
   -6.9156    4.4627  -18.9303 C   0  0  0  0  0  0  0  0  0  0  0  0
   -7.4955    4.4789  -17.6989 N   0  0  0  0  0  0  0  0  0  0  0  0
   -8.6882    3.9225  -17.3805 N   0  0  0  0  0  0  0  0  0  0  0  0
   -8.9623    4.0667  -16.1266 C   0  0  0  0  0  0  0  0  0  0  0  0
   -8.1223    4.7156  -15.0970 C   0  0  0  0  0  0  0  0  0  0  0  0
   -6.9736    5.2622  -15.5019 C   0  0  0  0  0  0  0  0  0  0  0  0
   -6.6339    5.1767  -16.8654 C   0  0  0  0  0  0  0  0  0  0  0  0
   -5.6030    5.6562  -17.5212 N   0  0  0  0  0  0  0  0  0  0  0  0
  1  2  1  0
  2  3  1  0
  3  4  1  0
  4  5  1  0
  5  6  2  0
  5  7  1  0
  7  8  1  0
  8  9  2  0
  9 10  1  0
 10 11  1  0
 11 12  2  0
 12 13  1  0
 13 14  2  0
 14 15  1  0
 15 16  2  0
 16  8  1  0
 15 10  1  0
M  END
>  <energy_score>  (3866) 
-28.538481

>  <alias>  (3866) 
FVZTZWWQEHSDFF-UHFFFAOYSA-N-P86-P35-P86-601528

>  <HIPPO Pose ID>  (3866) 
80604

>  <smiles>  (3866) 
CSCCC(=O)Nc1cn2ncccc2n1

>  <inchikey>  (3866) 
FVZTZWWQEHSDFF-UHFFFAOYSA-N

>  <distance_score>  (3866) 
1.696352

>  <ref_mols>  (3866) 
Z0719a,Z1597a

>  <ref_pdb>  (3866) 
Z0719a

>  <HIPPO Compound ID>  (3866) 
151087

>  <name>  (3866) 
FVZTZWWQEHSDFF-UHFFFAOYSA-N-P86-P35-P86-601528

>  <inspiration_score>  (3866) 
None

$$$$
SGECYJJKCAJYOB-UHFFFAOYSA-N-P35-P35-P86-601528
     RDKit          3D

 16 16  0  0  0  0  0  0  0  0999 V2000
   -4.2334    6.4942  -19.8055 C   0  0  0  0  0  0  0  0  0  0  0  0
   -3.7714    5.1981  -19.1433 C   0  0  1  0  0  0  0  0  0  0  0  0
   -1.9509    5.0976  -19.2248 S   0  0  0  0  0  0  0  0  0  0  0  0
   -4.2760    5.0705  -17.6825 C   0  0  0  0  0  0  0  0  0  0  0  0
   -3.6228    5.2762  -16.7344 O   0  0  0  0  0  0  0  0  0  0  0  0
   -5.7674    4.6481  -17.8060 N   0  0  0  0  0  0  0  0  0  0  0  0
   -6.7201    4.4956  -16.8554 C   0  0  0  0  0  0  0  0  0  0  0  0
   -7.9793    4.6924  -17.3537 N   0  0  0  0  0  0  0  0  0  0  0  0
   -8.7832    4.5945  -16.3315 C   0  0  0  0  0  0  0  0  0  0  0  0
   -8.0770    4.4004  -15.1906 N   0  0  0  0  0  0  0  0  0  0  0  0
   -8.6047    4.5556  -13.8579 C   0  0  0  0  0  0  0  0  0  0  0  0
   -6.7493    4.1566  -15.5122 C   0  0  0  0  0  0  0  0  0  0  0  0
   -5.6819    3.4889  -14.2825 S   0  0  0  0  0  0  0  0  0  0  0  0
   -5.4747    4.7067  -13.1586 N   0  0  0  0  0  0  0  0  0  0  0  0
   -6.4187    2.4410  -13.6115 O   0  0  0  0  0  0  0  0  0  0  0  0
   -4.3667    3.2571  -14.8176 O   0  0  0  0  0  0  0  0  0  0  0  0
  2  1  1  1
  2  3  1  0
  2  4  1  0
  4  5  2  0
  4  6  1  0
  6  7  1  0
  7  8  1  0
  8  9  2  0
  9 10  1  0
 10 11  1  0
 10 12  1  0
 12 13  1  0
 13 14  1  0
 13 15  2  0
 13 16  2  0
 12  7  2  0
M  END
>  <energy_score>  (3867) 
-33.964033

>  <alias>  (3867) 
SGECYJJKCAJYOB-UHFFFAOYSA-N-P35-P35-P86-601528

>  <HIPPO Pose ID>  (3867) 
80613

>  <smiles>  (3867) 
CC(S)C(=O)Nc1ncn(C)c1S(N)(=O)=O

>  <inchikey>  (3867) 
SGECYJJKCAJYOB-UHFFFAOYSA-N

>  <distance_score>  (3867) 
1.733969

>  <ref_mols>  (3867) 
Z0719a,Z1597a

>  <ref_pdb>  (3867) 
Z0719a

>  <HIPPO Compound ID>  (3867) 
151092

>  <name>  (3867) 
SGECYJJKCAJYOB-UHFFFAOYSA-N-P35-P35-P86-601528

>  <inspiration_score>  (3867) 
None

$$$$
IXCQAXPPEPNQSB-UHFFFAOYSA-N-P86-P35-P86-601528
     RDKit          3D

 16 17  0  0  0  0  0  0  0  0999 V2000
   -6.1343    8.9725  -23.1112 O   0  0  0  0  0  0  0  0  0  0  0  0
   -5.1393    8.2536  -23.0939 C   0  0  0  0  0  0  0  0  0  0  0  0
   -4.4667    7.8144  -21.8240 C   0  0  0  0  0  0  0  0  0  0  0  0
   -4.2972    6.3108  -21.8103 C   0  0  0  0  0  0  0  0  0  0  0  0
   -4.2795    5.8797  -20.3625 C   0  0  0  0  0  0  0  0  0  0  0  0
   -3.3386    6.0268  -19.6857 O   0  0  0  0  0  0  0  0  0  0  0  0
   -5.6973    5.3584  -20.0131 N   0  0  0  0  0  0  0  0  0  0  0  0
   -6.2390    5.0244  -18.8240 C   0  0  0  0  0  0  0  0  0  0  0  0
   -7.5056    4.5332  -18.6299 C   0  0  0  0  0  0  0  0  0  0  0  0
   -7.6526    4.4901  -17.2789 N   0  0  0  0  0  0  0  0  0  0  0  0
   -8.7859    4.1479  -16.6199 N   0  0  0  0  0  0  0  0  0  0  0  0
   -8.6599    4.2962  -15.3422 C   0  0  0  0  0  0  0  0  0  0  0  0
   -7.4589    4.7532  -14.6105 C   0  0  0  0  0  0  0  0  0  0  0  0
   -6.3871    5.0752  -15.3352 C   0  0  0  0  0  0  0  0  0  0  0  0
   -6.4671    4.9636  -16.7345 C   0  0  0  0  0  0  0  0  0  0  0  0
   -5.5865    5.2609  -17.6586 N   0  0  0  0  0  0  0  0  0  0  0  0
  1  2  2  0
  2  3  1  0
  3  4  1  0
  4  5  1  0
  5  6  2  0
  5  7  1  0
  7  8  1  0
  8  9  2  0
  9 10  1  0
 10 11  1  0
 11 12  2  0
 12 13  1  0
 13 14  2  0
 14 15  1  0
 15 16  2  0
 16  8  1  0
 15 10  1  0
M  END
>  <energy_score>  (3868) 
-42.229592

>  <alias>  (3868) 
IXCQAXPPEPNQSB-UHFFFAOYSA-N-P86-P35-P86-601528

>  <HIPPO Pose ID>  (3868) 
80618

>  <smiles>  (3868) 
O=CCCC(=O)Nc1cn2ncccc2n1

>  <inchikey>  (3868) 
IXCQAXPPEPNQSB-UHFFFAOYSA-N

>  <distance_score>  (3868) 
1.590375

>  <ref_mols>  (3868) 
Z0719a,Z1597a

>  <ref_pdb>  (3868) 
Z0719a

>  <HIPPO Compound ID>  (3868) 
151094

>  <name>  (3868) 
IXCQAXPPEPNQSB-UHFFFAOYSA-N-P86-P35-P86-601528

>  <inspiration_score>  (3868) 
None

$$$$
LVEBWKKOLNQQBO-UHFFFAOYSA-N-P86-P35-P86-601528
     RDKit          3D

 16 17  0  0  0  0  0  0  0  0999 V2000
   -4.1592    8.1564  -22.8029 C   0  0  0  0  0  0  0  0  0  0  0  0
   -4.2778    6.9629  -22.2013 C   0  0  0  0  0  0  0  0  0  0  0  0
   -3.2466    6.2945  -21.3317 C   0  0  1  0  0  0  0  0  0  0  0  0
   -1.9900    6.9484  -21.5015 O   0  0  0  0  0  0  0  0  0  0  0  0
   -3.6866    6.2981  -19.8436 C   0  0  0  0  0  0  0  0  0  0  0  0
   -3.0220    6.7846  -19.0092 O   0  0  0  0  0  0  0  0  0  0  0  0
   -5.0315    5.5146  -19.7363 N   0  0  0  0  0  0  0  0  0  0  0  0
   -5.8225    5.2712  -18.6668 C   0  0  0  0  0  0  0  0  0  0  0  0
   -7.0187    4.5981  -18.6755 C   0  0  0  0  0  0  0  0  0  0  0  0
   -7.4271    4.6116  -17.3734 N   0  0  0  0  0  0  0  0  0  0  0  0
   -8.5877    4.1365  -16.7977 C   0  0  0  0  0  0  0  0  0  0  0  0
   -8.7420    4.2869  -15.4796 C   0  0  0  0  0  0  0  0  0  0  0  0
   -7.6182    4.9216  -14.7546 C   0  0  0  0  0  0  0  0  0  0  0  0
   -6.5407    5.4037  -15.2805 N   0  0  0  0  0  0  0  0  0  0  0  0
   -6.4377    5.2609  -16.6325 C   0  0  0  0  0  0  0  0  0  0  0  0
   -5.4841    5.6955  -17.4245 N   0  0  0  0  0  0  0  0  0  0  0  0
  1  2  2  0
  2  3  1  0
  3  4  1  1
  3  5  1  0
  5  6  2  0
  5  7  1  0
  7  8  1  0
  8  9  2  0
  9 10  1  0
 10 11  1  0
 11 12  2  0
 12 13  1  0
 13 14  2  0
 14 15  1  0
 15 16  2  0
 16  8  1  0
 15 10  1  0
M  END
>  <energy_score>  (3869) 
-31.846773

>  <alias>  (3869) 
LVEBWKKOLNQQBO-UHFFFAOYSA-N-P86-P35-P86-601528

>  <HIPPO Pose ID>  (3869) 
80628

>  <smiles>  (3869) 
C=CC(O)C(=O)Nc1cn2cccnc2n1

>  <inchikey>  (3869) 
LVEBWKKOLNQQBO-UHFFFAOYSA-N

>  <distance_score>  (3869) 
1.578053

>  <ref_mols>  (3869) 
Z0719a,Z1597a

>  <ref_pdb>  (3869) 
Z0719a

>  <HIPPO Compound ID>  (3869) 
151099

>  <name>  (3869) 
LVEBWKKOLNQQBO-UHFFFAOYSA-N-P86-P35-P86-601528

>  <inspiration_score>  (3869) 
None

$$$$
KTEBDXXYVCYPNT-UHFFFAOYSA-N-P86-P35-P86-601528
     RDKit          3D

 16 17  0  0  0  0  0  0  0  0999 V2000
   -2.8700    7.3232  -24.5332 C   0  0  0  0  0  0  0  0  0  0  0  0
   -3.3374    7.1854  -23.4355 C   0  0  0  0  0  0  0  0  0  0  0  0
   -3.9274    7.0478  -22.0930 C   0  0  0  0  0  0  0  0  0  0  0  0
   -3.0207    6.2502  -21.1714 C   0  0  0  0  0  0  0  0  0  0  0  0
   -3.5773    6.2693  -19.7639 C   0  0  0  0  0  0  0  0  0  0  0  0
   -3.0857    6.8877  -18.9023 O   0  0  0  0  0  0  0  0  0  0  0  0
   -4.8478    5.3733  -19.7628 N   0  0  0  0  0  0  0  0  0  0  0  0
   -5.7629    5.1475  -18.7911 C   0  0  0  0  0  0  0  0  0  0  0  0
   -6.9337    4.4457  -18.9282 C   0  0  0  0  0  0  0  0  0  0  0  0
   -7.5041    4.4676  -17.6929 N   0  0  0  0  0  0  0  0  0  0  0  0
   -8.7014    3.9258  -17.3674 N   0  0  0  0  0  0  0  0  0  0  0  0
   -8.9653    4.0725  -16.1118 C   0  0  0  0  0  0  0  0  0  0  0  0
   -8.1133    4.7147  -15.0879 C   0  0  0  0  0  0  0  0  0  0  0  0
   -6.9597    5.2455  -15.4993 C   0  0  0  0  0  0  0  0  0  0  0  0
   -6.6266    5.1507  -16.8638 C   0  0  0  0  0  0  0  0  0  0  0  0
   -5.5869    5.6058  -17.5230 N   0  0  0  0  0  0  0  0  0  0  0  0
  1  2  3  0
  2  3  1  0
  3  4  1  0
  4  5  1  0
  5  6  2  0
  5  7  1  0
  7  8  1  0
  8  9  2  0
  9 10  1  0
 10 11  1  0
 11 12  2  0
 12 13  1  0
 13 14  2  0
 14 15  1  0
 15 16  2  0
 16  8  1  0
 15 10  1  0
M  END
>  <energy_score>  (3870) 
-23.706948

>  <alias>  (3870) 
KTEBDXXYVCYPNT-UHFFFAOYSA-N-P86-P35-P86-601528

>  <HIPPO Pose ID>  (3870) 
80656

>  <smiles>  (3870) 
C#CCCC(=O)Nc1cn2ncccc2n1

>  <inchikey>  (3870) 
KTEBDXXYVCYPNT-UHFFFAOYSA-N

>  <distance_score>  (3870) 
1.69912

>  <ref_mols>  (3870) 
Z0719a,Z1597a

>  <ref_pdb>  (3870) 
Z0719a

>  <HIPPO Compound ID>  (3870) 
151113

>  <name>  (3870) 
KTEBDXXYVCYPNT-UHFFFAOYSA-N-P86-P35-P86-601528

>  <inspiration_score>  (3870) 
None

$$$$
GNXZPSNJXWJJHX-UHFFFAOYSA-N-P86-P35-P86-601528
     RDKit          3D

 16 17  0  0  0  0  0  0  0  0999 V2000
   -5.3192    8.0023  -24.5060 C   0  0  0  0  0  0  0  0  0  0  0  0
   -4.9957    7.8590  -23.3585 C   0  0  0  0  0  0  0  0  0  0  0  0
   -4.6176    7.6586  -21.9497 C   0  0  0  0  0  0  0  0  0  0  0  0
   -4.3829    6.1932  -21.6589 C   0  0  0  0  0  0  0  0  0  0  0  0
   -4.3904    6.0060  -20.1623 C   0  0  0  0  0  0  0  0  0  0  0  0
   -3.4723    6.2818  -19.4939 O   0  0  0  0  0  0  0  0  0  0  0  0
   -5.8109    5.5149  -19.7690 N   0  0  0  0  0  0  0  0  0  0  0  0
   -6.3242    5.1951  -18.5632 C   0  0  0  0  0  0  0  0  0  0  0  0
   -7.5772    4.6847  -18.3334 C   0  0  0  0  0  0  0  0  0  0  0  0
   -7.6657    4.6156  -16.9730 N   0  0  0  0  0  0  0  0  0  0  0  0
   -8.7291    4.2666  -16.1625 C   0  0  0  0  0  0  0  0  0  0  0  0
   -8.5740    4.3544  -14.8365 C   0  0  0  0  0  0  0  0  0  0  0  0
   -7.2345    4.7790  -14.3681 C   0  0  0  0  0  0  0  0  0  0  0  0
   -6.2369    5.1345  -15.1074 N   0  0  0  0  0  0  0  0  0  0  0  0
   -6.4513    5.0657  -16.4511 C   0  0  0  0  0  0  0  0  0  0  0  0
   -5.6378    5.4185  -17.4181 N   0  0  0  0  0  0  0  0  0  0  0  0
  1  2  3  0
  2  3  1  0
  3  4  1  0
  4  5  1  0
  5  6  2  0
  5  7  1  0
  7  8  1  0
  8  9  2  0
  9 10  1  0
 10 11  1  0
 11 12  2  0
 12 13  1  0
 13 14  2  0
 14 15  1  0
 15 16  2  0
 16  8  1  0
 15 10  1  0
M  END
>  <energy_score>  (3871) 
-19.100018

>  <alias>  (3871) 
GNXZPSNJXWJJHX-UHFFFAOYSA-N-P86-P35-P86-601528

>  <HIPPO Pose ID>  (3871) 
80658

>  <smiles>  (3871) 
C#CCCC(=O)Nc1cn2cccnc2n1

>  <inchikey>  (3871) 
GNXZPSNJXWJJHX-UHFFFAOYSA-N

>  <distance_score>  (3871) 
1.497525

>  <ref_mols>  (3871) 
Z0719a,Z1597a

>  <ref_pdb>  (3871) 
Z0719a

>  <HIPPO Compound ID>  (3871) 
151114

>  <name>  (3871) 
GNXZPSNJXWJJHX-UHFFFAOYSA-N-P86-P35-P86-601528

>  <inspiration_score>  (3871) 
None

$$$$
BSGRNZQICQZLSL-UHFFFAOYSA-N-P86-P35-P86-601528
     RDKit          3D

 16 16  0  0  0  0  0  0  0  0999 V2000
   -4.9413    6.7185  -21.5682 C   0  0  0  0  0  0  0  0  0  0  0  0
   -4.3532    6.9331  -20.3844 C   0  0  0  0  0  0  0  0  0  0  0  0
   -3.7925    5.8687  -19.4901 C   0  0  1  0  0  0  0  0  0  0  0  0
   -2.4178    6.1977  -19.3191 O   0  0  0  0  0  0  0  0  0  0  0  0
   -4.5247    5.8013  -18.1063 C   0  0  0  0  0  0  0  0  0  0  0  0
   -3.9648    6.0118  -17.0974 O   0  0  0  0  0  0  0  0  0  0  0  0
   -5.9950    5.3452  -18.3716 N   0  0  0  0  0  0  0  0  0  0  0  0
   -6.9889    4.9843  -17.4944 C   0  0  0  0  0  0  0  0  0  0  0  0
   -8.1606    4.3312  -17.8251 C   0  0  0  0  0  0  0  0  0  0  0  0
   -8.6251    3.8765  -19.1332 C   0  0  0  0  0  0  0  0  0  0  0  0
   -8.9085    4.0287  -16.7221 N   0  0  0  0  0  0  0  0  0  0  0  0
   -8.2362    4.5106  -15.7043 C   0  0  0  0  0  0  0  0  0  0  0  0
   -8.6275    4.4186  -14.2749 C   0  0  0  0  0  0  0  0  0  0  0  0
   -7.0831    5.1410  -16.1346 N   0  0  0  0  0  0  0  0  0  0  0  0
   -6.3034    5.9650  -15.2529 C   0  0  0  0  0  0  0  0  0  0  0  0
   -5.4305    5.1678  -14.3112 C   0  0  0  0  0  0  0  0  0  0  0  0
  1  2  2  0
  2  3  1  0
  3  4  1  1
  3  5  1  0
  5  6  2  0
  5  7  1  0
  7  8  1  0
  8  9  2  0
  9 10  1  0
  9 11  1  0
 11 12  2  0
 12 13  1  0
 12 14  1  0
 14 15  1  0
 15 16  1  0
 14  8  1  0
M  END
>  <energy_score>  (3872) 
-19.257962

>  <alias>  (3872) 
BSGRNZQICQZLSL-UHFFFAOYSA-N-P86-P35-P86-601528

>  <HIPPO Pose ID>  (3872) 
80662

>  <smiles>  (3872) 
C=CC(O)C(=O)Nc1c(C)nc(C)n1CC

>  <inchikey>  (3872) 
BSGRNZQICQZLSL-UHFFFAOYSA-N

>  <distance_score>  (3872) 
1.299745

>  <ref_mols>  (3872) 
Z0719a,Z1597a

>  <ref_pdb>  (3872) 
Z0719a

>  <HIPPO Compound ID>  (3872) 
151116

>  <name>  (3872) 
BSGRNZQICQZLSL-UHFFFAOYSA-N-P86-P35-P86-601528

>  <inspiration_score>  (3872) 
None

$$$$
FTMNTRFHJDVCFQ-UHFFFAOYSA-N-P86-P35-P86-601528
     RDKit          3D

 16 17  0  0  0  0  0  0  0  0999 V2000
   -4.3609    7.6966  -21.7281 C   0  0  0  0  0  0  0  0  0  0  0  0
   -3.3574    6.8185  -21.8732 C   0  0  0  0  0  0  0  0  0  0  0  0
   -2.5197    6.1758  -20.7957 C   0  0  2  0  0  0  0  0  0  0  0  0
   -2.2217    4.8526  -21.2263 O   0  0  0  0  0  0  0  0  0  0  0  0
   -3.1993    6.1839  -19.3995 C   0  0  0  0  0  0  0  0  0  0  0  0
   -2.7625    6.7649  -18.4809 O   0  0  0  0  0  0  0  0  0  0  0  0
   -4.5079    5.3462  -19.5362 N   0  0  0  0  0  0  0  0  0  0  0  0
   -5.5210    5.1473  -18.6576 C   0  0  0  0  0  0  0  0  0  0  0  0
   -6.7097    4.5083  -18.9114 C   0  0  0  0  0  0  0  0  0  0  0  0
   -7.3768    4.5085  -17.7226 N   0  0  0  0  0  0  0  0  0  0  0  0
   -8.6049    3.9764  -17.4987 N   0  0  0  0  0  0  0  0  0  0  0  0
   -8.9575    4.0830  -16.2604 C   0  0  0  0  0  0  0  0  0  0  0  0
   -8.1739    4.6872  -15.1614 C   0  0  0  0  0  0  0  0  0  0  0  0
   -6.9862    5.2121  -15.4721 C   0  0  0  0  0  0  0  0  0  0  0  0
   -6.5490    5.1441  -16.8088 C   0  0  0  0  0  0  0  0  0  0  0  0
   -5.4411    5.5743  -17.3675 N   0  0  0  0  0  0  0  0  0  0  0  0
  1  2  2  0
  2  3  1  0
  3  4  1  6
  3  5  1  0
  5  6  2  0
  5  7  1  0
  7  8  1  0
  8  9  2  0
  9 10  1  0
 10 11  1  0
 11 12  2  0
 12 13  1  0
 13 14  2  0
 14 15  1  0
 15 16  2  0
 16  8  1  0
 15 10  1  0
M  END
>  <energy_score>  (3873) 
-34.443182

>  <alias>  (3873) 
FTMNTRFHJDVCFQ-UHFFFAOYSA-N-P86-P35-P86-601528

>  <HIPPO Pose ID>  (3873) 
80668

>  <smiles>  (3873) 
C=CC(O)C(=O)Nc1cn2ncccc2n1

>  <inchikey>  (3873) 
FTMNTRFHJDVCFQ-UHFFFAOYSA-N

>  <distance_score>  (3873) 
1.769416

>  <ref_mols>  (3873) 
Z0719a,Z1597a

>  <ref_pdb>  (3873) 
Z0719a

>  <HIPPO Compound ID>  (3873) 
151119

>  <name>  (3873) 
FTMNTRFHJDVCFQ-UHFFFAOYSA-N-P86-P35-P86-601528

>  <inspiration_score>  (3873) 
None

$$$$
VWPGONQHDGIPFP-UHFFFAOYSA-N-P86-P35-P86-601528
     RDKit          3D

 16 17  0  0  0  0  0  0  0  0999 V2000
   -4.0018    8.0363  -21.2422 C   0  0  0  0  0  0  0  0  0  0  0  0
   -3.6483    6.8215  -21.6871 C   0  0  0  0  0  0  0  0  0  0  0  0
   -2.8721    5.7675  -20.9435 C   0  0  1  0  0  0  0  0  0  0  0  0
   -1.5327    5.8537  -21.4020 O   0  0  0  0  0  0  0  0  0  0  0  0
   -3.0414    5.7819  -19.3915 C   0  0  0  0  0  0  0  0  0  0  0  0
   -2.1349    5.7635  -18.6496 O   0  0  0  0  0  0  0  0  0  0  0  0
   -4.5769    5.7193  -19.1145 N   0  0  0  0  0  0  0  0  0  0  0  0
   -5.2531    5.5384  -17.9579 C   0  0  0  0  0  0  0  0  0  0  0  0
   -6.6149    5.4096  -17.8612 C   0  0  0  0  0  0  0  0  0  0  0  0
   -6.8344    5.0727  -16.5583 N   0  0  0  0  0  0  0  0  0  0  0  0
   -8.0726    4.7316  -15.8854 C   0  0  0  0  0  0  0  0  0  0  0  0
   -9.0984    3.9373  -16.6255 C   0  0  0  0  0  0  0  0  0  0  0  0
   -8.9178    3.1989  -17.9273 C   0  0  0  0  0  0  0  0  0  0  0  0
   -9.8269    4.3796  -17.8772 C   0  0  0  0  0  0  0  0  0  0  0  0
   -5.6319    5.1595  -15.9100 C   0  0  0  0  0  0  0  0  0  0  0  0
   -4.6582    5.4298  -16.7449 N   0  0  0  0  0  0  0  0  0  0  0  0
  1  2  2  0
  2  3  1  0
  3  4  1  1
  3  5  1  0
  5  6  2  0
  5  7  1  0
  7  8  1  0
  8  9  2  0
  9 10  1  0
 10 11  1  0
 11 12  1  0
 12 13  1  0
 13 14  1  0
 10 15  1  0
 15 16  2  0
 16  8  1  0
 14 12  1  0
M  END
>  <energy_score>  (3874) 
-3.83173

>  <alias>  (3874) 
VWPGONQHDGIPFP-UHFFFAOYSA-N-P86-P35-P86-601528

>  <HIPPO Pose ID>  (3874) 
80678

>  <smiles>  (3874) 
C=CC(O)C(=O)Nc1cn(CC2CC2)cn1

>  <inchikey>  (3874) 
VWPGONQHDGIPFP-UHFFFAOYSA-N

>  <distance_score>  (3874) 
1.787569

>  <ref_mols>  (3874) 
Z0719a,Z1597a

>  <ref_pdb>  (3874) 
Z0719a

>  <HIPPO Compound ID>  (3874) 
151124

>  <name>  (3874) 
VWPGONQHDGIPFP-UHFFFAOYSA-N-P86-P35-P86-601528

>  <inspiration_score>  (3874) 
None

$$$$
WZYIUNPRZXXUIY-UHFFFAOYSA-N-P86-P35-P86-601528
     RDKit          3D

 16 17  0  0  0  0  0  0  0  0999 V2000
   -1.0973    5.9427  -22.5531 C   0  0  0  0  0  0  0  0  0  0  0  0
   -2.0951    5.8146  -21.6688 C   0  0  0  0  0  0  0  0  0  0  0  0
   -3.0280    6.9268  -21.2821 C   0  0  0  0  0  0  0  0  0  0  0  0
   -4.5002    6.5944  -21.4645 C   0  0  0  0  0  0  0  0  0  0  0  0
   -5.0340    5.5923  -20.4507 C   0  0  0  0  0  0  0  0  0  0  0  0
   -5.4228    4.5334  -20.7596 O   0  0  0  0  0  0  0  0  0  0  0  0
   -5.0350    6.3027  -19.0649 N   0  0  0  0  0  0  0  0  0  0  0  0
   -5.5631    5.9186  -17.8843 C   0  0  0  0  0  0  0  0  0  0  0  0
   -6.3438    4.8184  -17.6821 C   0  0  0  0  0  0  0  0  0  0  0  0
   -6.9189    5.0286  -16.4650 N   0  0  0  0  0  0  0  0  0  0  0  0
   -8.1454    4.4383  -15.9506 C   0  0  0  0  0  0  0  0  0  0  0  0
   -8.9617    3.7202  -16.9921 C   0  0  0  0  0  0  0  0  0  0  0  0
   -9.1189    4.1934  -18.4303 C   0  0  0  0  0  0  0  0  0  0  0  0
  -10.2784    4.2498  -17.5084 C   0  0  0  0  0  0  0  0  0  0  0  0
   -6.2468    6.0676  -15.8839 C   0  0  0  0  0  0  0  0  0  0  0  0
   -5.4648    6.6722  -16.7550 N   0  0  0  0  0  0  0  0  0  0  0  0
  1  2  2  0
  2  3  1  0
  3  4  1  0
  4  5  1  0
  5  6  2  0
  5  7  1  0
  7  8  1  0
  8  9  2  0
  9 10  1  0
 10 11  1  0
 11 12  1  0
 12 13  1  0
 13 14  1  0
 10 15  1  0
 15 16  2  0
 16  8  1  0
 14 12  1  0
M  END
>  <energy_score>  (3875) 
-6.053061

>  <alias>  (3875) 
WZYIUNPRZXXUIY-UHFFFAOYSA-N-P86-P35-P86-601528

>  <HIPPO Pose ID>  (3875) 
80682

>  <smiles>  (3875) 
C=CCCC(=O)Nc1cn(CC2CC2)cn1

>  <inchikey>  (3875) 
WZYIUNPRZXXUIY-UHFFFAOYSA-N

>  <distance_score>  (3875) 
1.869745

>  <ref_mols>  (3875) 
Z0719a,Z1597a

>  <ref_pdb>  (3875) 
Z0719a

>  <HIPPO Compound ID>  (3875) 
151126

>  <name>  (3875) 
WZYIUNPRZXXUIY-UHFFFAOYSA-N-P86-P35-P86-601528

>  <inspiration_score>  (3875) 
None

$$$$
QSZUBVRNZALKSD-UHFFFAOYSA-N-P35-P35-P86-601528
     RDKit          3D

 16 16  0  0  0  0  0  0  0  0999 V2000
   -2.7063    8.4049  -19.6577 C   0  0  0  0  0  0  0  0  0  0  0  0
   -3.4522    7.5585  -18.9367 C   0  0  0  0  0  0  0  0  0  0  0  0
   -3.9473    6.2316  -19.4389 C   0  0  0  0  0  0  0  0  0  0  0  0
   -3.4730    5.0685  -18.5531 C   0  0  0  0  0  0  0  0  0  0  0  0
   -4.1061    4.9985  -17.1553 C   0  0  0  0  0  0  0  0  0  0  0  0
   -3.5105    5.2028  -16.1729 O   0  0  0  0  0  0  0  0  0  0  0  0
   -5.6081    4.6755  -17.3715 N   0  0  0  0  0  0  0  0  0  0  0  0
   -6.6143    4.4553  -16.4602 C   0  0  0  0  0  0  0  0  0  0  0  0
   -6.7979    4.0223  -15.1447 C   0  0  0  0  0  0  0  0  0  0  0  0
   -5.9368    3.2971  -14.2194 N   0  0  0  0  0  0  0  0  0  0  0  0
   -6.4794    2.4311  -13.5106 O   0  0  0  0  0  0  0  0  0  0  0  0
   -4.7214    3.5235  -14.2278 O   0  0  0  0  0  0  0  0  0  0  0  0
   -8.1346    4.1386  -14.7789 N   0  0  0  0  0  0  0  0  0  0  0  0
   -8.7695    4.4750  -15.8646 C   0  0  0  0  0  0  0  0  0  0  0  0
   -7.9125    4.6278  -16.9013 N   0  0  0  0  0  0  0  0  0  0  0  0
   -8.3433    4.9304  -18.2353 C   0  0  0  0  0  0  0  0  0  0  0  0
  1  2  2  0
  2  3  1  0
  3  4  1  0
  4  5  1  0
  5  6  2  0
  5  7  1  0
  7  8  1  0
  8  9  2  0
  9 10  1  0
 10 11  2  0
 10 12  1  0
  9 13  1  0
 13 14  2  0
 14 15  1  0
 15 16  1  0
 15  8  1  0
M  CHG  2  10   1  12  -1
M  END
>  <energy_score>  (3876) 
-25.153172

>  <alias>  (3876) 
QSZUBVRNZALKSD-UHFFFAOYSA-N-P35-P35-P86-601528

>  <HIPPO Pose ID>  (3876) 
80683

>  <smiles>  (3876) 
C=CCCC(=O)Nc1c([N+](=O)[O-])ncn1C

>  <inchikey>  (3876) 
QSZUBVRNZALKSD-UHFFFAOYSA-N

>  <distance_score>  (3876) 
1.987408

>  <ref_mols>  (3876) 
Z0719a,Z1597a

>  <ref_pdb>  (3876) 
Z0719a

>  <HIPPO Compound ID>  (3876) 
151127

>  <name>  (3876) 
QSZUBVRNZALKSD-UHFFFAOYSA-N-P35-P35-P86-601528

>  <inspiration_score>  (3876) 
None

$$$$
KUVIFSBDSBHAEM-UHFFFAOYSA-M-P35-P35-P86-601528
     RDKit          3D

 16 16  0  0  0  0  0  0  0  0999 V2000
   -1.9814    7.7859  -19.9222 C   0  0  0  0  0  0  0  0  0  0  0  0
   -2.8094    7.1200  -19.1073 C   0  0  0  0  0  0  0  0  0  0  0  0
   -3.9739    6.2886  -19.5726 C   0  0  0  0  0  0  0  0  0  0  0  0
   -3.8697    4.8421  -19.0818 C   0  0  0  0  0  0  0  0  0  0  0  0
   -4.1952    4.6320  -17.6000 C   0  0  0  0  0  0  0  0  0  0  0  0
   -3.3884    4.3794  -16.7950 O   0  0  0  0  0  0  0  0  0  0  0  0
   -5.7281    4.8205  -17.4621 N   0  0  0  0  0  0  0  0  0  0  0  0
   -6.5454    4.6537  -16.3887 C   0  0  0  0  0  0  0  0  0  0  0  0
   -7.8028    5.1499  -16.6917 N   0  0  0  0  0  0  0  0  0  0  0  0
   -8.5530    4.8939  -15.6541 C   0  0  0  0  0  0  0  0  0  0  0  0
   -7.8269    4.3255  -14.6647 N   0  0  0  0  0  0  0  0  0  0  0  0
   -8.2529    4.1266  -13.3005 C   0  0  0  0  0  0  0  0  0  0  0  0
   -6.5490    4.1013  -15.1258 C   0  0  0  0  0  0  0  0  0  0  0  0
   -5.5613    3.2687  -14.2459 C   0  0  0  0  0  0  0  0  0  0  0  0
   -6.0681    2.2311  -13.7036 O   0  0  0  0  0  0  0  0  0  0  0  0
   -4.3908    3.7005  -14.0537 O   0  0  0  0  0  0  0  0  0  0  0  0
  1  2  2  0
  2  3  1  0
  3  4  1  0
  4  5  1  0
  5  6  2  0
  5  7  1  0
  7  8  1  0
  8  9  1  0
  9 10  2  0
 10 11  1  0
 11 12  1  0
 11 13  1  0
 13 14  1  0
 14 15  2  0
 14 16  1  0
 13  8  2  0
M  CHG  1  16  -1
M  END
>  <energy_score>  (3877) 
-14.660062

>  <alias>  (3877) 
KUVIFSBDSBHAEM-UHFFFAOYSA-M-P35-P35-P86-601528

>  <HIPPO Pose ID>  (3877) 
80685

>  <smiles>  (3877) 
C=CCCC(=O)Nc1ncn(C)c1C(=O)[O-]

>  <inchikey>  (3877) 
KUVIFSBDSBHAEM-UHFFFAOYSA-M

>  <distance_score>  (3877) 
1.756872

>  <ref_mols>  (3877) 
Z0719a,Z1597a

>  <ref_pdb>  (3877) 
Z0719a

>  <HIPPO Compound ID>  (3877) 
151128

>  <name>  (3877) 
KUVIFSBDSBHAEM-UHFFFAOYSA-M-P35-P35-P86-601528

>  <inspiration_score>  (3877) 
None

$$$$
SMDSIZIPNILUJQ-UHFFFAOYSA-N-P35-P35-P86-601528
     RDKit          3D

 16 16  0  0  0  0  0  0  0  0999 V2000
   -7.5328    4.2374  -13.2739 C   0  0  0  0  0  0  0  0  0  0  0  0
   -6.4906    5.1177  -13.9460 C   0  0  0  0  0  0  0  0  0  0  0  0
   -7.0036    5.9678  -15.1057 C   0  0  0  0  0  0  0  0  0  0  0  0
   -7.1714    5.2637  -16.3506 N   0  0  0  0  0  0  0  0  0  0  0  0
   -8.3056    4.5801  -16.7062 C   0  0  0  0  0  0  0  0  0  0  0  0
   -9.5510    4.6158  -15.9652 C   0  0  0  0  0  0  0  0  0  0  0  0
   -8.2015    4.0260  -17.8802 N   0  0  0  0  0  0  0  0  0  0  0  0
   -7.0100    4.4656  -18.3556 C   0  0  0  0  0  0  0  0  0  0  0  0
   -6.7068    4.2818  -19.7653 C   0  0  0  0  0  0  0  0  0  0  0  0
   -6.3289    5.2294  -17.4299 C   0  0  0  0  0  0  0  0  0  0  0  0
   -5.1828    5.9484  -17.6232 N   0  0  0  0  0  0  0  0  0  0  0  0
   -3.9701    5.6854  -18.5696 C   0  0  0  0  0  0  0  0  0  0  0  0
   -3.7355    4.7743  -19.2677 O   0  0  0  0  0  0  0  0  0  0  0  0
   -3.0865    6.9039  -18.5655 C   0  0  0  0  0  0  0  0  0  0  0  0
   -3.5626    7.7440  -19.7401 C   0  0  0  0  0  0  0  0  0  0  0  0
   -4.5789    8.5437  -19.3021 F   0  0  0  0  0  0  0  0  0  0  0  0
  1  2  1  0
  2  3  1  0
  3  4  1  0
  4  5  1  0
  5  6  1  0
  5  7  2  0
  7  8  1  0
  8  9  1  0
  8 10  2  0
 10 11  1  0
 11 12  1  0
 12 13  2  0
 12 14  1  0
 14 15  1  0
 15 16  1  0
 10  4  1  0
M  END
>  <energy_score>  (3878) 
-19.341939

>  <alias>  (3878) 
SMDSIZIPNILUJQ-UHFFFAOYSA-N-P35-P35-P86-601528

>  <HIPPO Pose ID>  (3878) 
80689

>  <smiles>  (3878) 
CCCn1c(C)nc(C)c1NC(=O)CCF

>  <inchikey>  (3878) 
SMDSIZIPNILUJQ-UHFFFAOYSA-N

>  <distance_score>  (3878) 
1.505671

>  <ref_mols>  (3878) 
Z0719a,Z1597a

>  <ref_pdb>  (3878) 
Z0719a

>  <HIPPO Compound ID>  (3878) 
151130

>  <name>  (3878) 
SMDSIZIPNILUJQ-UHFFFAOYSA-N-P35-P35-P86-601528

>  <inspiration_score>  (3878) 
None

$$$$
WZIHXGDXYZVKKP-UHFFFAOYSA-N-P86-P35-P86-601528
     RDKit          3D

 16 17  0  0  0  0  0  0  0  0999 V2000
   -8.6178    3.9091  -19.1102 C   0  0  0  0  0  0  0  0  0  0  0  0
   -8.1473    4.3674  -17.8033 C   0  0  0  0  0  0  0  0  0  0  0  0
   -8.9340    4.1390  -16.7128 N   0  0  0  0  0  0  0  0  0  0  0  0
   -8.2537    4.6040  -15.6892 C   0  0  0  0  0  0  0  0  0  0  0  0
   -8.7309    4.5963  -14.2949 C   0  0  0  0  0  0  0  0  0  0  0  0
   -7.0441    5.1202  -16.0960 N   0  0  0  0  0  0  0  0  0  0  0  0
   -6.1051    5.8612  -15.2333 C   0  0  0  0  0  0  0  0  0  0  0  0
   -5.1933    5.1118  -14.2951 C   0  0  0  0  0  0  0  0  0  0  0  0
   -6.1574    6.1076  -13.7391 C   0  0  0  0  0  0  0  0  0  0  0  0
   -6.9488    4.9691  -17.4640 C   0  0  0  0  0  0  0  0  0  0  0  0
   -5.9448    5.2730  -18.3548 N   0  0  0  0  0  0  0  0  0  0  0  0
   -4.4695    5.7028  -18.1066 C   0  0  0  0  0  0  0  0  0  0  0  0
   -3.9066    5.9384  -17.1092 O   0  0  0  0  0  0  0  0  0  0  0  0
   -3.7737    5.6916  -19.4607 C   0  0  0  0  0  0  0  0  0  0  0  0
   -4.0827    6.9393  -20.2500 C   0  0  0  0  0  0  0  0  0  0  0  0
   -5.3942    6.9388  -20.6035 F   0  0  0  0  0  0  0  0  0  0  0  0
  1  2  1  0
  2  3  1  0
  3  4  2  0
  4  5  1  0
  4  6  1  0
  6  7  1  0
  7  8  1  0
  8  9  1  0
  6 10  1  0
 10 11  1  0
 11 12  1  0
 12 13  2  0
 12 14  1  0
 14 15  1  0
 15 16  1  0
 10  2  2  0
  9  7  1  0
M  END
>  <energy_score>  (3879) 
-10.034741

>  <alias>  (3879) 
WZIHXGDXYZVKKP-UHFFFAOYSA-N-P86-P35-P86-601528

>  <HIPPO Pose ID>  (3879) 
80696

>  <smiles>  (3879) 
Cc1nc(C)n(C2CC2)c1NC(=O)CCF

>  <inchikey>  (3879) 
WZIHXGDXYZVKKP-UHFFFAOYSA-N

>  <distance_score>  (3879) 
1.521217

>  <ref_mols>  (3879) 
Z0719a,Z1597a

>  <ref_pdb>  (3879) 
Z0719a

>  <HIPPO Compound ID>  (3879) 
151133

>  <name>  (3879) 
WZIHXGDXYZVKKP-UHFFFAOYSA-N-P86-P35-P86-601528

>  <inspiration_score>  (3879) 
None

$$$$
VTBXMBXUHJPZAS-UHFFFAOYSA-N-P86-P35-P86-601528
     RDKit          3D

 16 17  0  0  0  0  0  0  0  0999 V2000
   -3.1431    5.9585  -20.2638 O   0  0  0  0  0  0  0  0  0  0  0  0
   -4.1815    5.9088  -20.7993 C   0  0  0  0  0  0  0  0  0  0  0  0
   -4.3531    6.4026  -22.2127 C   0  0  0  0  0  0  0  0  0  0  0  0
   -4.3784    7.9055  -22.1398 C   0  0  0  0  0  0  0  0  0  0  0  0
   -5.6287    8.3199  -21.7984 F   0  0  0  0  0  0  0  0  0  0  0  0
   -5.5720    5.4795  -20.2598 N   0  0  0  0  0  0  0  0  0  0  0  0
   -5.9608    5.1382  -19.0138 C   0  0  0  0  0  0  0  0  0  0  0  0
   -7.2221    4.7876  -18.5921 C   0  0  0  0  0  0  0  0  0  0  0  0
   -7.1298    4.7467  -17.2311 N   0  0  0  0  0  0  0  0  0  0  0  0
   -8.1591    4.5914  -16.3595 N   0  0  0  0  0  0  0  0  0  0  0  0
   -7.7693    4.7152  -15.1315 C   0  0  0  0  0  0  0  0  0  0  0  0
   -8.9717    4.6969  -13.9235 Cl  0  0  0  0  0  0  0  0  0  0  0  0
   -6.3878    4.9483  -14.6542 C   0  0  0  0  0  0  0  0  0  0  0  0
   -5.4438    5.1268  -15.5726 C   0  0  0  0  0  0  0  0  0  0  0  0
   -5.8116    5.0492  -16.9226 C   0  0  0  0  0  0  0  0  0  0  0  0
   -5.0834    5.2443  -17.9884 N   0  0  0  0  0  0  0  0  0  0  0  0
  1  2  2  0
  2  3  1  0
  3  4  1  0
  4  5  1  0
  2  6  1  0
  6  7  1  0
  7  8  2  0
  8  9  1  0
  9 10  1  0
 10 11  2  0
 11 12  1  0
 11 13  1  0
 13 14  2  0
 14 15  1  0
 15 16  2  0
 16  7  1  0
 15  9  1  0
M  END
>  <energy_score>  (3880) 
-11.87619

>  <alias>  (3880) 
VTBXMBXUHJPZAS-UHFFFAOYSA-N-P86-P35-P86-601528

>  <HIPPO Pose ID>  (3880) 
80698

>  <smiles>  (3880) 
O=C(CCF)Nc1cn2nc(Cl)ccc2n1

>  <inchikey>  (3880) 
VTBXMBXUHJPZAS-UHFFFAOYSA-N

>  <distance_score>  (3880) 
1.918798

>  <ref_mols>  (3880) 
Z0719a,Z1597a

>  <ref_pdb>  (3880) 
Z0719a

>  <HIPPO Compound ID>  (3880) 
151134

>  <name>  (3880) 
VTBXMBXUHJPZAS-UHFFFAOYSA-N-P86-P35-P86-601528

>  <inspiration_score>  (3880) 
None

$$$$
UGRVWAOCIVWVBH-UHFFFAOYSA-N-P86-P35-P86-601528
     RDKit          3D

 16 17  0  0  0  0  0  0  0  0999 V2000
   -2.8692    8.2043  -24.0811 C   0  0  0  0  0  0  0  0  0  0  0  0
   -3.5990    7.2614  -23.4726 C   0  0  0  0  0  0  0  0  0  0  0  0
   -3.9761    7.2968  -22.0186 C   0  0  0  0  0  0  0  0  0  0  0  0
   -3.1306    6.3466  -21.1836 C   0  0  0  0  0  0  0  0  0  0  0  0
   -3.6515    6.3431  -19.7622 C   0  0  0  0  0  0  0  0  0  0  0  0
   -3.1381    6.9380  -18.8966 O   0  0  0  0  0  0  0  0  0  0  0  0
   -4.9718    5.5209  -19.7753 N   0  0  0  0  0  0  0  0  0  0  0  0
   -5.8200    5.2070  -18.7706 C   0  0  0  0  0  0  0  0  0  0  0  0
   -6.9792    4.4841  -18.8931 C   0  0  0  0  0  0  0  0  0  0  0  0
   -7.5164    4.4695  -17.6443 N   0  0  0  0  0  0  0  0  0  0  0  0
   -8.7118    3.9316  -17.3100 N   0  0  0  0  0  0  0  0  0  0  0  0
   -8.9568    4.0657  -16.0495 C   0  0  0  0  0  0  0  0  0  0  0  0
   -8.0837    4.6821  -15.0279 C   0  0  0  0  0  0  0  0  0  0  0  0
   -6.9302    5.2066  -15.4477 C   0  0  0  0  0  0  0  0  0  0  0  0
   -6.6218    5.1350  -16.8192 C   0  0  0  0  0  0  0  0  0  0  0  0
   -5.6006    5.6119  -17.4915 N   0  0  0  0  0  0  0  0  0  0  0  0
  1  2  2  0
  2  3  1  0
  3  4  1  0
  4  5  1  0
  5  6  2  0
  5  7  1  0
  7  8  1  0
  8  9  2  0
  9 10  1  0
 10 11  1  0
 11 12  2  0
 12 13  1  0
 13 14  2  0
 14 15  1  0
 15 16  2  0
 16  8  1  0
 15 10  1  0
M  END
>  <energy_score>  (3881) 
-10.345526

>  <alias>  (3881) 
UGRVWAOCIVWVBH-UHFFFAOYSA-N-P86-P35-P86-601528

>  <HIPPO Pose ID>  (3881) 
80706

>  <smiles>  (3881) 
C=CCCC(=O)Nc1cn2ncccc2n1

>  <inchikey>  (3881) 
UGRVWAOCIVWVBH-UHFFFAOYSA-N

>  <distance_score>  (3881) 
1.68331

>  <ref_mols>  (3881) 
Z0719a,Z1597a

>  <ref_pdb>  (3881) 
Z0719a

>  <HIPPO Compound ID>  (3881) 
151138

>  <name>  (3881) 
UGRVWAOCIVWVBH-UHFFFAOYSA-N-P86-P35-P86-601528

>  <inspiration_score>  (3881) 
None

$$$$
CTSHBZZQILNHOX-UHFFFAOYSA-N-P86-P35-P86-601528
     RDKit          3D

 16 17  0  0  0  0  0  0  0  0999 V2000
   -7.5330    3.4535  -13.2280 N   0  0  0  0  0  0  0  0  0  0  0  0
   -6.4729    3.9133  -13.3133 C   0  0  0  0  0  0  0  0  0  0  0  0
   -5.2017    4.5085  -13.4956 C   0  0  0  0  0  0  0  0  0  0  0  0
   -4.1780    4.7523  -12.5948 C   0  0  0  0  0  0  0  0  0  0  0  0
   -4.1744    4.6454  -11.2382 N   0  0  0  0  0  0  0  0  0  0  0  0
   -5.3526    4.6344  -10.2237 C   0  0  0  0  0  0  0  0  0  0  0  0
   -6.5059    4.6378  -10.4041 O   0  0  0  0  0  0  0  0  0  0  0  0
   -4.7366    4.5977   -8.8357 C   0  0  0  0  0  0  0  0  0  0  0  0
   -5.8069    4.8263   -7.7834 C   0  0  0  0  0  0  0  0  0  0  0  0
   -5.2453    4.7063   -6.5436 F   0  0  0  0  0  0  0  0  0  0  0  0
   -3.0417    5.2169  -13.2257 N   0  0  0  0  0  0  0  0  0  0  0  0
   -3.4270    5.3710  -14.4625 C   0  0  0  0  0  0  0  0  0  0  0  0
   -4.7127    4.9932  -14.6649 N   0  0  0  0  0  0  0  0  0  0  0  0
   -5.2880    5.2721  -15.9622 C   0  0  0  0  0  0  0  0  0  0  0  0
   -4.1121    5.4798  -16.9239 C   0  0  0  0  0  0  0  0  0  0  0  0
   -2.6898    6.0112  -15.8746 S   0  0  0  0  0  0  0  0  0  0  0  0
  1  2  3  0
  2  3  1  0
  3  4  2  0
  4  5  1  0
  5  6  1  0
  6  7  2  0
  6  8  1  0
  8  9  1  0
  9 10  1  0
  4 11  1  0
 11 12  2  0
 12 13  1  0
 13 14  1  0
 14 15  1  0
 15 16  1  0
 13  3  1  0
 16 12  1  0
M  END
>  <energy_score>  (3882) 
-38.184005

>  <alias>  (3882) 
CTSHBZZQILNHOX-UHFFFAOYSA-N-P86-P35-P86-601528

>  <HIPPO Pose ID>  (3882) 
80716

>  <smiles>  (3882) 
N#Cc1c(NC(=O)CCF)nc2n1CCS2

>  <inchikey>  (3882) 
CTSHBZZQILNHOX-UHFFFAOYSA-N

>  <distance_score>  (3882) 
1.814712

>  <ref_mols>  (3882) 
Z0719a,Z1597a

>  <ref_pdb>  (3882) 
Z0719a

>  <HIPPO Compound ID>  (3882) 
151143

>  <name>  (3882) 
CTSHBZZQILNHOX-UHFFFAOYSA-N-P86-P35-P86-601528

>  <inspiration_score>  (3882) 
None

$$$$
VYSKJAZYEHRBBE-UHFFFAOYSA-N-P35-P35-P86-601528
     RDKit          3D

 16 16  0  0  0  0  0  0  0  0999 V2000
   -8.6386    4.7744  -14.0485 C   0  0  0  0  0  0  0  0  0  0  0  0
   -8.0424    4.5190  -15.3367 N   0  0  0  0  0  0  0  0  0  0  0  0
   -8.6815    4.6220  -16.5286 C   0  0  0  0  0  0  0  0  0  0  0  0
   -7.8121    4.6660  -17.5037 N   0  0  0  0  0  0  0  0  0  0  0  0
   -6.5806    4.5742  -16.9118 C   0  0  0  0  0  0  0  0  0  0  0  0
   -5.5467    4.7665  -17.7694 N   0  0  0  0  0  0  0  0  0  0  0  0
   -4.0545    5.0729  -17.4930 C   0  0  0  0  0  0  0  0  0  0  0  0
   -3.4991    5.2833  -16.4883 O   0  0  0  0  0  0  0  0  0  0  0  0
   -3.3283    5.0208  -18.8287 C   0  0  0  0  0  0  0  0  0  0  0  0
   -3.6873    6.1105  -19.8185 C   0  0  0  0  0  0  0  0  0  0  0  0
   -2.9596    5.8796  -20.9569 F   0  0  0  0  0  0  0  0  0  0  0  0
   -6.6943    4.2783  -15.5649 C   0  0  0  0  0  0  0  0  0  0  0  0
   -5.6926    3.6909  -14.2416 S   0  0  0  0  0  0  0  0  0  0  0  0
   -6.5283    2.3559  -13.6169 N   0  0  0  0  0  0  0  0  0  0  0  0
   -5.7432    4.7261  -13.2432 O   0  0  0  0  0  0  0  0  0  0  0  0
   -4.4548    3.1444  -14.7340 O   0  0  0  0  0  0  0  0  0  0  0  0
  1  2  1  0
  2  3  1  0
  3  4  2  0
  4  5  1  0
  5  6  1  0
  6  7  1  0
  7  8  2  0
  7  9  1  0
  9 10  1  0
 10 11  1  0
  5 12  2  0
 12 13  1  0
 13 14  1  0
 13 15  2  0
 13 16  2  0
 12  2  1  0
M  END
>  <energy_score>  (3883) 
-3.138786

>  <alias>  (3883) 
VYSKJAZYEHRBBE-UHFFFAOYSA-N-P35-P35-P86-601528

>  <HIPPO Pose ID>  (3883) 
80721

>  <smiles>  (3883) 
Cn1cnc(NC(=O)CCF)c1S(N)(=O)=O

>  <inchikey>  (3883) 
VYSKJAZYEHRBBE-UHFFFAOYSA-N

>  <distance_score>  (3883) 
1.682704

>  <ref_mols>  (3883) 
Z0719a,Z1597a

>  <ref_pdb>  (3883) 
Z0719a

>  <HIPPO Compound ID>  (3883) 
151146

>  <name>  (3883) 
VYSKJAZYEHRBBE-UHFFFAOYSA-N-P35-P35-P86-601528

>  <inspiration_score>  (3883) 
None

$$$$
SQNSUOCFCZOKGT-UHFFFAOYSA-N-P86-P35-P86-601528
     RDKit          3D

 16 17  0  0  0  0  0  0  0  0999 V2000
   -2.6537    7.5132  -24.7834 C   0  0  0  0  0  0  0  0  0  0  0  0
   -2.9491    7.1487  -23.5738 C   0  0  0  0  0  0  0  0  0  0  0  0
   -3.2500    6.7876  -22.3595 C   0  0  0  0  0  0  0  0  0  0  0  0
   -4.6437    6.7425  -21.8205 C   0  0  0  0  0  0  0  0  0  0  0  0
   -4.6120    6.5565  -20.3019 C   0  0  0  0  0  0  0  0  0  0  0  0
   -3.8079    7.0469  -19.6094 O   0  0  0  0  0  0  0  0  0  0  0  0
   -5.8187    5.6452  -19.9531 N   0  0  0  0  0  0  0  0  0  0  0  0
   -6.3043    5.2560  -18.7583 C   0  0  0  0  0  0  0  0  0  0  0  0
   -7.4765    4.5670  -18.5692 C   0  0  0  0  0  0  0  0  0  0  0  0
   -7.6344    4.5318  -17.2196 N   0  0  0  0  0  0  0  0  0  0  0  0
   -8.7397    4.0989  -16.5665 N   0  0  0  0  0  0  0  0  0  0  0  0
   -8.6366    4.2722  -15.2899 C   0  0  0  0  0  0  0  0  0  0  0  0
   -7.4726    4.8066  -14.5512 C   0  0  0  0  0  0  0  0  0  0  0  0
   -6.4324    5.2262  -15.2716 C   0  0  0  0  0  0  0  0  0  0  0  0
   -6.5112    5.1364  -16.6720 C   0  0  0  0  0  0  0  0  0  0  0  0
   -5.6953    5.5851  -17.5936 N   0  0  0  0  0  0  0  0  0  0  0  0
  1  2  2  0
  2  3  2  0
  3  4  1  0
  4  5  1  0
  5  6  2  0
  5  7  1  0
  7  8  1  0
  8  9  2  0
  9 10  1  0
 10 11  1  0
 11 12  2  0
 12 13  1  0
 13 14  2  0
 14 15  1  0
 15 16  2  0
 16  8  1  0
 15 10  1  0
M  END
>  <energy_score>  (3884) 
-29.090799

>  <alias>  (3884) 
SQNSUOCFCZOKGT-UHFFFAOYSA-N-P86-P35-P86-601528

>  <HIPPO Pose ID>  (3884) 
80740

>  <smiles>  (3884) 
C=C=CCC(=O)Nc1cn2ncccc2n1

>  <inchikey>  (3884) 
SQNSUOCFCZOKGT-UHFFFAOYSA-N

>  <distance_score>  (3884) 
1.674466

>  <ref_mols>  (3884) 
Z0719a,Z1597a

>  <ref_pdb>  (3884) 
Z0719a

>  <HIPPO Compound ID>  (3884) 
151155

>  <name>  (3884) 
SQNSUOCFCZOKGT-UHFFFAOYSA-N-P86-P35-P86-601528

>  <inspiration_score>  (3884) 
None

$$$$
NILGZDHZLSIJSI-UHFFFAOYSA-N-P86-P35-P86-601528
     RDKit          3D

 16 17  0  0  0  0  0  0  0  0999 V2000
   -5.7379    8.9655  -23.6600 C   0  0  0  0  0  0  0  0  0  0  0  0
   -5.1060    8.3445  -22.7126 C   0  0  0  0  0  0  0  0  0  0  0  0
   -4.4602    7.7081  -21.7790 C   0  0  0  0  0  0  0  0  0  0  0  0
   -4.3495    6.2219  -21.6989 C   0  0  0  0  0  0  0  0  0  0  0  0
   -4.3281    5.8252  -20.2315 C   0  0  0  0  0  0  0  0  0  0  0  0
   -3.3592    5.9018  -19.5805 O   0  0  0  0  0  0  0  0  0  0  0  0
   -5.7758    5.4173  -19.8390 N   0  0  0  0  0  0  0  0  0  0  0  0
   -6.3093    5.1325  -18.6322 C   0  0  0  0  0  0  0  0  0  0  0  0
   -7.5764    4.6597  -18.3988 C   0  0  0  0  0  0  0  0  0  0  0  0
   -7.6688    4.6030  -17.0378 N   0  0  0  0  0  0  0  0  0  0  0  0
   -8.7367    4.2683  -16.2267 C   0  0  0  0  0  0  0  0  0  0  0  0
   -8.5830    4.3616  -14.9010 C   0  0  0  0  0  0  0  0  0  0  0  0
   -7.2428    4.7846  -14.4329 C   0  0  0  0  0  0  0  0  0  0  0  0
   -6.2411    5.1273  -15.1728 N   0  0  0  0  0  0  0  0  0  0  0  0
   -6.4503    5.0422  -16.5168 C   0  0  0  0  0  0  0  0  0  0  0  0
   -5.6245    5.3609  -17.4855 N   0  0  0  0  0  0  0  0  0  0  0  0
  1  2  2  0
  2  3  2  0
  3  4  1  0
  4  5  1  0
  5  6  2  0
  5  7  1  0
  7  8  1  0
  8  9  2  0
  9 10  1  0
 10 11  1  0
 11 12  2  0
 12 13  1  0
 13 14  2  0
 14 15  1  0
 15 16  2  0
 16  8  1  0
 15 10  1  0
M  END
>  <energy_score>  (3885) 
-15.62431

>  <alias>  (3885) 
NILGZDHZLSIJSI-UHFFFAOYSA-N-P86-P35-P86-601528

>  <HIPPO Pose ID>  (3885) 
80742

>  <smiles>  (3885) 
C=C=CCC(=O)Nc1cn2cccnc2n1

>  <inchikey>  (3885) 
NILGZDHZLSIJSI-UHFFFAOYSA-N

>  <distance_score>  (3885) 
1.482238

>  <ref_mols>  (3885) 
Z0719a,Z1597a

>  <ref_pdb>  (3885) 
Z0719a

>  <HIPPO Compound ID>  (3885) 
151156

>  <name>  (3885) 
NILGZDHZLSIJSI-UHFFFAOYSA-N-P86-P35-P86-601528

>  <inspiration_score>  (3885) 
None

$$$$
BCXKXWQJTZJVNT-UHFFFAOYSA-N-P35-P35-P86-601528
     RDKit          3D

 16 17  0  0  0  0  0  0  0  0999 V2000
   -3.6560    6.9143  -19.4649 O   0  0  0  0  0  0  0  0  0  0  0  0
   -4.7031    7.0318  -19.9767 C   0  0  0  0  0  0  0  0  0  0  0  0
   -6.0770    6.3702  -19.6345 N   0  0  0  0  0  0  0  0  0  0  0  0
   -6.4314    5.5628  -18.6078 C   0  0  0  0  0  0  0  0  0  0  0  0
   -7.6904    5.0616  -18.3865 C   0  0  0  0  0  0  0  0  0  0  0  0
   -7.6762    4.7068  -17.0696 N   0  0  0  0  0  0  0  0  0  0  0  0
   -8.7329    4.4474  -16.2171 C   0  0  0  0  0  0  0  0  0  0  0  0
   -8.4726    4.3085  -14.9128 C   0  0  0  0  0  0  0  0  0  0  0  0
   -7.0371    4.3136  -14.5398 C   0  0  0  0  0  0  0  0  0  0  0  0
   -6.0358    4.5603  -15.3202 N   0  0  0  0  0  0  0  0  0  0  0  0
   -6.3623    4.8320  -16.6162 C   0  0  0  0  0  0  0  0  0  0  0  0
   -5.5989    5.3375  -17.5604 N   0  0  0  0  0  0  0  0  0  0  0  0
   -4.9677    8.0224  -21.1164 C   0  0  1  0  0  0  0  0  0  0  0  0
   -3.4829    9.3204  -21.1664 Br  0  0  0  0  0  0  0  0  0  0  0  0
   -5.1130    7.3466  -22.4484 C   0  0  0  0  0  0  0  0  0  0  0  0
   -5.7716    8.5971  -23.8129 Br  0  0  0  0  0  0  0  0  0  0  0  0
  1  2  2  0
  2  3  1  0
  3  4  1  0
  4  5  2  0
  5  6  1  0
  6  7  1  0
  7  8  2  0
  8  9  1  0
  9 10  2  0
 10 11  1  0
 11 12  2  0
  2 13  1  0
 13 14  1  6
 13 15  1  0
 15 16  1  0
 12  4  1  0
 11  6  1  0
M  END
>  <energy_score>  (3886) 
-20.329062

>  <alias>  (3886) 
BCXKXWQJTZJVNT-UHFFFAOYSA-N-P35-P35-P86-601528

>  <HIPPO Pose ID>  (3886) 
80745

>  <smiles>  (3886) 
O=C(Nc1cn2cccnc2n1)C(Br)CBr

>  <inchikey>  (3886) 
BCXKXWQJTZJVNT-UHFFFAOYSA-N

>  <distance_score>  (3886) 
1.746554

>  <ref_mols>  (3886) 
Z0719a,Z1597a

>  <ref_pdb>  (3886) 
Z0719a

>  <HIPPO Compound ID>  (3886) 
151158

>  <name>  (3886) 
BCXKXWQJTZJVNT-UHFFFAOYSA-N-P35-P35-P86-601528

>  <inspiration_score>  (3886) 
None

$$$$
VAMNKDVINGFLSZ-UHFFFAOYSA-N-P86-P35-P86-601528
     RDKit          3D

 16 16  0  0  0  0  0  0  0  0999 V2000
   -5.7962    2.8744  -12.6393 C   0  0  0  0  0  0  0  0  0  0  0  0
   -6.0619    4.2543  -13.2335 C   0  0  0  0  0  0  0  0  0  0  0  0
   -4.7592    4.9138  -13.6635 C   0  0  0  0  0  0  0  0  0  0  0  0
   -7.2991    4.3465  -14.1991 C   0  0  0  0  0  0  0  0  0  0  0  0
   -7.2467    4.4584  -15.6429 N   0  0  0  0  0  0  0  0  0  0  0  0
   -8.2985    4.1656  -16.4804 C   0  0  0  0  0  0  0  0  0  0  0  0
   -8.0711    4.5709  -17.7144 N   0  0  0  0  0  0  0  0  0  0  0  0
   -6.8473    5.1485  -17.6734 C   0  0  0  0  0  0  0  0  0  0  0  0
   -6.2710    5.7682  -18.7293 N   0  0  0  0  0  0  0  0  0  0  0  0
   -4.9044    6.5123  -18.8445 C   0  0  0  0  0  0  0  0  0  0  0  0
   -4.0382    6.6338  -18.0645 O   0  0  0  0  0  0  0  0  0  0  0  0
   -4.8565    7.2250  -20.1901 C   0  0  2  0  0  0  0  0  0  0  0  0
   -4.9466    5.9216  -21.5978 Br  0  0  0  0  0  0  0  0  0  0  0  0
   -3.5689    8.0030  -20.3517 C   0  0  0  0  0  0  0  0  0  0  0  0
   -3.7509    9.3599  -21.7575 Br  0  0  0  0  0  0  0  0  0  0  0  0
   -6.3300    5.1086  -16.4093 C   0  0  0  0  0  0  0  0  0  0  0  0
  1  2  1  0
  2  3  1  0
  2  4  1  0
  4  5  1  0
  5  6  1  0
  6  7  2  0
  7  8  1  0
  8  9  1  0
  9 10  1  0
 10 11  2  0
 10 12  1  0
 12 13  1  6
 12 14  1  0
 14 15  1  0
  8 16  2  0
 16  5  1  0
M  END
>  <energy_score>  (3887) 
-1.977716

>  <alias>  (3887) 
VAMNKDVINGFLSZ-UHFFFAOYSA-N-P86-P35-P86-601528

>  <HIPPO Pose ID>  (3887) 
80748

>  <smiles>  (3887) 
CC(C)Cn1cnc(NC(=O)C(Br)CBr)c1

>  <inchikey>  (3887) 
VAMNKDVINGFLSZ-UHFFFAOYSA-N

>  <distance_score>  (3887) 
1.777921

>  <ref_mols>  (3887) 
Z0719a,Z1597a

>  <ref_pdb>  (3887) 
Z0719a

>  <HIPPO Compound ID>  (3887) 
151159

>  <name>  (3887) 
VAMNKDVINGFLSZ-UHFFFAOYSA-N-P86-P35-P86-601528

>  <inspiration_score>  (3887) 
None

$$$$
FLFUVYCJYZFHIC-UHFFFAOYSA-N-P35-P35-P86-601528
     RDKit          3D

 16 16  0  0  0  0  0  0  0  0999 V2000
   -7.5713    3.3136  -14.3698 C   0  0  0  0  0  0  0  0  0  0  0  0
   -7.8801    3.9131  -15.7194 C   0  0  0  0  0  0  0  0  0  0  0  0
   -8.7277    3.5296  -16.6608 N   0  0  0  0  0  0  0  0  0  0  0  0
   -8.3504    4.2169  -17.7965 C   0  0  0  0  0  0  0  0  0  0  0  0
   -7.3103    5.0763  -17.5127 C   0  0  0  0  0  0  0  0  0  0  0  0
   -6.4418    5.7122  -18.3547 N   0  0  0  0  0  0  0  0  0  0  0  0
   -5.2613    6.6861  -18.0463 C   0  0  0  0  0  0  0  0  0  0  0  0
   -4.9051    7.1502  -17.0295 O   0  0  0  0  0  0  0  0  0  0  0  0
   -4.4363    6.9427  -19.3175 C   0  0  1  0  0  0  0  0  0  0  0  0
   -3.3062    5.3625  -19.5535 Br  0  0  0  0  0  0  0  0  0  0  0  0
   -5.2043    7.3068  -20.5609 C   0  0  0  0  0  0  0  0  0  0  0  0
   -4.0395    8.0931  -21.9169 Br  0  0  0  0  0  0  0  0  0  0  0  0
   -7.2774    5.0743  -16.1439 N   0  0  0  0  0  0  0  0  0  0  0  0
   -6.9331    6.1385  -15.2339 C   0  0  0  0  0  0  0  0  0  0  0  0
   -7.9090    6.2430  -14.1358 C   0  0  0  0  0  0  0  0  0  0  0  0
   -8.6768    6.2740  -13.2649 N   0  0  0  0  0  0  0  0  0  0  0  0
  1  2  1  0
  2  3  2  0
  3  4  1  0
  4  5  2  0
  5  6  1  0
  6  7  1  0
  7  8  2  0
  7  9  1  0
  9 10  1  6
  9 11  1  0
 11 12  1  0
  5 13  1  0
 13 14  1  0
 14 15  1  0
 15 16  3  0
 13  2  1  0
M  END
>  <energy_score>  (3888) 
-11.072652

>  <alias>  (3888) 
FLFUVYCJYZFHIC-UHFFFAOYSA-N-P35-P35-P86-601528

>  <HIPPO Pose ID>  (3888) 
80751

>  <smiles>  (3888) 
Cc1ncc(NC(=O)C(Br)CBr)n1CC#N

>  <inchikey>  (3888) 
FLFUVYCJYZFHIC-UHFFFAOYSA-N

>  <distance_score>  (3888) 
1.714827

>  <ref_mols>  (3888) 
Z0719a,Z1597a

>  <ref_pdb>  (3888) 
Z0719a

>  <HIPPO Compound ID>  (3888) 
151161

>  <name>  (3888) 
FLFUVYCJYZFHIC-UHFFFAOYSA-N-P35-P35-P86-601528

>  <inspiration_score>  (3888) 
None

$$$$
RWGHIAUUCUMSJO-UHFFFAOYSA-N-P86-P35-P86-601528
     RDKit          3D

 16 17  0  0  0  0  0  0  0  0999 V2000
   -3.6340    7.0082  -19.4654 O   0  0  0  0  0  0  0  0  0  0  0  0
   -4.4160    6.5789  -20.2224 C   0  0  0  0  0  0  0  0  0  0  0  0
   -5.6761    5.7040  -19.9801 N   0  0  0  0  0  0  0  0  0  0  0  0
   -6.2450    5.2870  -18.8298 C   0  0  0  0  0  0  0  0  0  0  0  0
   -7.4188    4.5885  -18.7032 C   0  0  0  0  0  0  0  0  0  0  0  0
   -7.6360    4.5264  -17.3620 N   0  0  0  0  0  0  0  0  0  0  0  0
   -8.7634    4.0705  -16.7678 N   0  0  0  0  0  0  0  0  0  0  0  0
   -8.7207    4.2276  -15.4861 C   0  0  0  0  0  0  0  0  0  0  0  0
   -7.5993    4.7606  -14.6841 C   0  0  0  0  0  0  0  0  0  0  0  0
   -6.5290    5.1961  -15.3491 C   0  0  0  0  0  0  0  0  0  0  0  0
   -6.5427    5.1260  -16.7531 C   0  0  0  0  0  0  0  0  0  0  0  0
   -5.6864    5.5875  -17.6302 N   0  0  0  0  0  0  0  0  0  0  0  0
   -4.2777    6.7890  -21.7240 C   0  0  1  0  0  0  0  0  0  0  0  0
   -5.0753    8.5414  -22.0901 Br  0  0  0  0  0  0  0  0  0  0  0  0
   -2.8006    6.8087  -22.0354 C   0  0  0  0  0  0  0  0  0  0  0  0
   -2.4491    6.9204  -23.9547 Br  0  0  0  0  0  0  0  0  0  0  0  0
  1  2  2  0
  2  3  1  0
  3  4  1  0
  4  5  2  0
  5  6  1  0
  6  7  1  0
  7  8  2  0
  8  9  1  0
  9 10  2  0
 10 11  1  0
 11 12  2  0
  2 13  1  0
 13 14  1  1
 13 15  1  0
 15 16  1  0
 12  4  1  0
 11  6  1  0
M  END
>  <energy_score>  (3889) 
-29.893335

>  <alias>  (3889) 
RWGHIAUUCUMSJO-UHFFFAOYSA-N-P86-P35-P86-601528

>  <HIPPO Pose ID>  (3889) 
80768

>  <smiles>  (3889) 
O=C(Nc1cn2ncccc2n1)C(Br)CBr

>  <inchikey>  (3889) 
RWGHIAUUCUMSJO-UHFFFAOYSA-N

>  <distance_score>  (3889) 
1.666818

>  <ref_mols>  (3889) 
Z0719a,Z1597a

>  <ref_pdb>  (3889) 
Z0719a

>  <HIPPO Compound ID>  (3889) 
151169

>  <name>  (3889) 
RWGHIAUUCUMSJO-UHFFFAOYSA-N-P86-P35-P86-601528

>  <inspiration_score>  (3889) 
None

$$$$
HPLLRNGVWYLFTO-UHFFFAOYSA-N-P35-P35-P86-601528
     RDKit          3D

 16 16  0  0  0  0  0  0  0  0999 V2000
   -9.1577    5.9710  -14.4379 C   0  0  0  0  0  0  0  0  0  0  0  0
   -7.9123    5.6536  -15.1193 C   0  0  0  0  0  0  0  0  0  0  0  0
   -6.8620    6.4308  -15.2787 N   0  0  0  0  0  0  0  0  0  0  0  0
   -5.9367    5.6100  -15.8596 C   0  0  0  0  0  0  0  0  0  0  0  0
   -5.1599    6.2214  -16.7891 N   0  0  0  0  0  0  0  0  0  0  0  0
   -4.3280    5.6257  -17.9583 C   0  0  0  0  0  0  0  0  0  0  0  0
   -4.1230    4.5135  -18.2517 O   0  0  0  0  0  0  0  0  0  0  0  0
   -3.8635    6.8447  -18.7953 C   0  0  1  0  0  0  0  0  0  0  0  0
   -3.1869    6.4338  -20.0943 C   0  0  0  0  0  0  0  0  0  0  0  0
   -5.2986    7.9142  -19.2349 S   0  0  0  0  0  0  0  0  0  0  0  0
   -6.3242    4.2930  -15.6845 C   0  0  0  0  0  0  0  0  0  0  0  0
   -5.8384    3.4406  -14.6108 N   0  0  0  0  0  0  0  0  0  0  0  0
   -6.6581    2.7088  -14.0335 O   0  0  0  0  0  0  0  0  0  0  0  0
   -4.6272    3.4866  -14.3527 O   0  0  0  0  0  0  0  0  0  0  0  0
   -7.6987    4.4576  -15.7653 N   0  0  0  0  0  0  0  0  0  0  0  0
   -8.5498    4.0238  -16.8498 C   0  0  0  0  0  0  0  0  0  0  0  0
  1  2  1  0
  2  3  2  0
  3  4  1  0
  4  5  1  0
  5  6  1  0
  6  7  2  0
  6  8  1  0
  8  9  1  6
  8 10  1  0
  4 11  2  0
 11 12  1  0
 12 13  2  0
 12 14  1  0
 11 15  1  0
 15 16  1  0
 15  2  1  0
M  CHG  2  12   1  14  -1
M  END
>  <energy_score>  (3890) 
-1.082538

>  <alias>  (3890) 
HPLLRNGVWYLFTO-UHFFFAOYSA-N-P35-P35-P86-601528

>  <HIPPO Pose ID>  (3890) 
80773

>  <smiles>  (3890) 
Cc1nc(NC(=O)C(C)S)c([N+](=O)[O-])n1C

>  <inchikey>  (3890) 
HPLLRNGVWYLFTO-UHFFFAOYSA-N

>  <distance_score>  (3890) 
1.950383

>  <ref_mols>  (3890) 
Z0719a,Z1597a

>  <ref_pdb>  (3890) 
Z0719a

>  <HIPPO Compound ID>  (3890) 
151172

>  <name>  (3890) 
HPLLRNGVWYLFTO-UHFFFAOYSA-N-P35-P35-P86-601528

>  <inspiration_score>  (3890) 
None

$$$$
JRVPEPOFTDYICQ-UHFFFAOYSA-N-P35-P35-P86-601528
     RDKit          3D

 16 17  0  0  0  0  0  0  0  0999 V2000
   -5.2716    2.5381  -12.7915 C   0  0  0  0  0  0  0  0  0  0  0  0
   -6.7595    2.4590  -12.4696 C   0  0  0  0  0  0  0  0  0  0  0  0
   -7.2902    3.7060  -11.9340 N   0  0  0  0  0  0  0  0  0  0  0  0
   -7.5838    3.9914  -10.6148 C   0  0  0  0  0  0  0  0  0  0  0  0
   -7.5788    3.0089   -9.5069 C   0  0  0  0  0  0  0  0  0  0  0  0
   -7.8726    5.2691  -10.4681 N   0  0  0  0  0  0  0  0  0  0  0  0
   -7.8702    5.8084  -11.7305 C   0  0  0  0  0  0  0  0  0  0  0  0
   -8.2535    7.2244  -11.9063 C   0  0  0  0  0  0  0  0  0  0  0  0
   -7.5333    4.8491  -12.6666 C   0  0  0  0  0  0  0  0  0  0  0  0
   -7.4329    4.8879  -14.0298 N   0  0  0  0  0  0  0  0  0  0  0  0
   -7.4275    6.0860  -14.9996 C   0  0  0  0  0  0  0  0  0  0  0  0
   -7.4304    7.2319  -14.7850 O   0  0  0  0  0  0  0  0  0  0  0  0
   -7.4233    5.6921  -16.4418 C   0  0  1  0  0  0  0  0  0  0  0  0
   -6.7981    4.4749  -16.8666 C   0  0  0  0  0  0  0  0  0  0  0  0
   -8.1330    4.5001  -16.8345 C   0  0  0  0  0  0  0  0  0  0  0  0
   -9.0462    4.2502  -17.9666 C   0  0  0  0  0  0  0  0  0  0  0  0
  1  2  1  0
  2  3  1  0
  3  4  1  0
  4  5  1  0
  4  6  2  0
  6  7  1  0
  7  8  1  0
  7  9  2  0
  9 10  1  0
 10 11  1  0
 11 12  2  0
 13 11  1  1
 13 14  1  0
 14 15  2  0
 15 16  1  0
  9  3  1  0
 15 13  1  0
M  END
>  <energy_score>  (3891) 
-28.60128

>  <alias>  (3891) 
JRVPEPOFTDYICQ-UHFFFAOYSA-N-P35-P35-P86-601528

>  <HIPPO Pose ID>  (3891) 
80779

>  <smiles>  (3891) 
CCn1c(C)nc(C)c1NC(=O)C1C=C1C

>  <inchikey>  (3891) 
JRVPEPOFTDYICQ-UHFFFAOYSA-N

>  <distance_score>  (3891) 
1.306914

>  <ref_mols>  (3891) 
Z0719a,Z1597a

>  <ref_pdb>  (3891) 
Z0719a

>  <HIPPO Compound ID>  (3891) 
151175

>  <name>  (3891) 
JRVPEPOFTDYICQ-UHFFFAOYSA-N-P35-P35-P86-601528

>  <inspiration_score>  (3891) 
None

$$$$
PHDSAMMMAGNQRP-UHFFFAOYSA-N-P86-P35-P86-601528
     RDKit          3D

 16 18  0  0  0  0  0  0  0  0999 V2000
   -2.1664    6.3907  -21.5885 C   0  0  0  0  0  0  0  0  0  0  0  0
   -3.2735    7.2417  -22.0728 C   0  0  0  0  0  0  0  0  0  0  0  0
   -4.4833    6.8348  -22.4472 C   0  0  0  0  0  0  0  0  0  0  0  0
   -4.4240    7.7992  -21.3897 C   0  0  1  0  0  0  0  0  0  0  0  0
   -4.6205    7.3841  -19.9746 C   0  0  0  0  0  0  0  0  0  0  0  0
   -3.9888    7.9306  -19.1611 O   0  0  0  0  0  0  0  0  0  0  0  0
   -5.7295    6.3234  -19.8330 N   0  0  0  0  0  0  0  0  0  0  0  0
   -6.1985    5.6842  -18.7384 C   0  0  0  0  0  0  0  0  0  0  0  0
   -7.2377    4.7866  -18.7198 C   0  0  0  0  0  0  0  0  0  0  0  0
   -7.5211    4.6188  -17.4023 N   0  0  0  0  0  0  0  0  0  0  0  0
   -8.6477    4.0512  -16.9139 N   0  0  0  0  0  0  0  0  0  0  0  0
   -8.7039    4.1483  -15.6277 C   0  0  0  0  0  0  0  0  0  0  0  0
   -7.6673    4.6907  -14.7241 C   0  0  0  0  0  0  0  0  0  0  0  0
   -6.5946    5.2451  -15.2918 C   0  0  0  0  0  0  0  0  0  0  0  0
   -6.5322    5.2875  -16.6963 C   0  0  0  0  0  0  0  0  0  0  0  0
   -5.7220    5.9434  -17.4931 N   0  0  0  0  0  0  0  0  0  0  0  0
  1  2  1  0
  2  3  2  0
  3  4  1  0
  4  5  1  1
  5  6  2  0
  5  7  1  0
  7  8  1  0
  8  9  2  0
  9 10  1  0
 10 11  1  0
 11 12  2  0
 12 13  1  0
 13 14  2  0
 14 15  1  0
 15 16  2  0
  4  2  1  0
 16  8  1  0
 15 10  1  0
M  END
>  <energy_score>  (3892) 
-19.237297

>  <alias>  (3892) 
PHDSAMMMAGNQRP-UHFFFAOYSA-N-P86-P35-P86-601528

>  <HIPPO Pose ID>  (3892) 
80786

>  <smiles>  (3892) 
CC1=CC1C(=O)Nc1cn2ncccc2n1

>  <inchikey>  (3892) 
PHDSAMMMAGNQRP-UHFFFAOYSA-N

>  <distance_score>  (3892) 
1.837259

>  <ref_mols>  (3892) 
Z0719a,Z1597a

>  <ref_pdb>  (3892) 
Z0719a

>  <HIPPO Compound ID>  (3892) 
151178

>  <name>  (3892) 
PHDSAMMMAGNQRP-UHFFFAOYSA-N-P86-P35-P86-601528

>  <inspiration_score>  (3892) 
None

$$$$
GEUXSSIXCGNSJW-UHFFFAOYSA-N-P86-P35-P86-601528
     RDKit          3D

 16 17  0  0  0  0  0  0  0  0999 V2000
   -3.1209    5.7758  -20.3212 O   0  0  0  0  0  0  0  0  0  0  0  0
   -4.1761    5.8658  -20.8173 C   0  0  0  0  0  0  0  0  0  0  0  0
   -4.3471    6.4545  -22.1996 C   0  0  0  0  0  0  0  0  0  0  0  0
   -4.1571    7.9500  -22.0763 C   0  0  0  0  0  0  0  0  0  0  0  0
   -5.4051    8.6048  -21.8632 O   0  0  0  0  0  0  0  0  0  0  0  0
   -5.5850    5.5558  -20.2469 N   0  0  0  0  0  0  0  0  0  0  0  0
   -5.9661    5.1882  -19.0066 C   0  0  0  0  0  0  0  0  0  0  0  0
   -7.2265    4.8340  -18.5851 C   0  0  0  0  0  0  0  0  0  0  0  0
   -7.1279    4.7664  -17.2261 N   0  0  0  0  0  0  0  0  0  0  0  0
   -8.1555    4.6053  -16.3534 N   0  0  0  0  0  0  0  0  0  0  0  0
   -7.7615    4.7110  -15.1252 C   0  0  0  0  0  0  0  0  0  0  0  0
   -8.9623    4.6906  -13.9154 Cl  0  0  0  0  0  0  0  0  0  0  0  0
   -6.3767    4.9270  -14.6493 C   0  0  0  0  0  0  0  0  0  0  0  0
   -5.4345    5.1125  -15.5684 C   0  0  0  0  0  0  0  0  0  0  0  0
   -5.8072    5.0578  -16.9181 C   0  0  0  0  0  0  0  0  0  0  0  0
   -5.0830    5.2710  -17.9833 N   0  0  0  0  0  0  0  0  0  0  0  0
  1  2  2  0
  2  3  1  0
  3  4  1  0
  4  5  1  0
  2  6  1  0
  6  7  1  0
  7  8  2  0
  8  9  1  0
  9 10  1  0
 10 11  2  0
 11 12  1  0
 11 13  1  0
 13 14  2  0
 14 15  1  0
 15 16  2  0
 16  7  1  0
 15  9  1  0
M  END
>  <energy_score>  (3893) 
-37.623394

>  <alias>  (3893) 
GEUXSSIXCGNSJW-UHFFFAOYSA-N-P86-P35-P86-601528

>  <HIPPO Pose ID>  (3893) 
80798

>  <smiles>  (3893) 
O=C(CCO)Nc1cn2nc(Cl)ccc2n1

>  <inchikey>  (3893) 
GEUXSSIXCGNSJW-UHFFFAOYSA-N

>  <distance_score>  (3893) 
1.925199

>  <ref_mols>  (3893) 
Z0719a,Z1597a

>  <ref_pdb>  (3893) 
Z0719a

>  <HIPPO Compound ID>  (3893) 
151184

>  <name>  (3893) 
GEUXSSIXCGNSJW-UHFFFAOYSA-N-P86-P35-P86-601528

>  <inspiration_score>  (3893) 
None

$$$$
GSMODFDSFURJIB-UHFFFAOYSA-N-P86-P35-P86-601528
     RDKit          3D

 16 16  0  0  0  0  0  0  0  0999 V2000
   -8.5895    4.0503  -18.6243 C   0  0  0  0  0  0  0  0  0  0  0  0
   -8.1448    4.3660  -17.2573 C   0  0  0  0  0  0  0  0  0  0  0  0
   -8.9609    4.0405  -16.2051 N   0  0  0  0  0  0  0  0  0  0  0  0
   -8.3994    4.5538  -15.1348 C   0  0  0  0  0  0  0  0  0  0  0  0
   -8.9246    4.4783  -13.7564 C   0  0  0  0  0  0  0  0  0  0  0  0
   -7.2357    5.2081  -15.4557 N   0  0  0  0  0  0  0  0  0  0  0  0
   -6.3422    5.8621  -14.5144 C   0  0  0  0  0  0  0  0  0  0  0  0
   -6.9924    6.6302  -13.3625 C   0  0  0  0  0  0  0  0  0  0  0  0
   -5.3219    4.8834  -13.9596 C   0  0  0  0  0  0  0  0  0  0  0  0
   -7.0345    5.0601  -16.8142 C   0  0  0  0  0  0  0  0  0  0  0  0
   -5.9660    5.5657  -17.5056 N   0  0  0  0  0  0  0  0  0  0  0  0
   -5.4960    5.3096  -18.9679 C   0  0  0  0  0  0  0  0  0  0  0  0
   -5.9047    4.5712  -19.7761 O   0  0  0  0  0  0  0  0  0  0  0  0
   -4.3743    6.2986  -19.2410 C   0  0  0  0  0  0  0  0  0  0  0  0
   -4.1997    6.4867  -20.7424 C   0  0  0  0  0  0  0  0  0  0  0  0
   -5.3420    7.1476  -21.2844 O   0  0  0  0  0  0  0  0  0  0  0  0
  1  2  1  0
  2  3  1  0
  3  4  2  0
  4  5  1  0
  4  6  1  0
  6  7  1  0
  7  8  1  0
  7  9  1  0
  6 10  1  0
 10 11  1  0
 11 12  1  0
 12 13  2  0
 12 14  1  0
 14 15  1  0
 15 16  1  0
 10  2  2  0
M  END
>  <energy_score>  (3894) 
-33.573092

>  <alias>  (3894) 
GSMODFDSFURJIB-UHFFFAOYSA-N-P86-P35-P86-601528

>  <HIPPO Pose ID>  (3894) 
80800

>  <smiles>  (3894) 
Cc1nc(C)n(C(C)C)c1NC(=O)CCO

>  <inchikey>  (3894) 
GSMODFDSFURJIB-UHFFFAOYSA-N

>  <distance_score>  (3894) 
1.850767

>  <ref_mols>  (3894) 
Z0719a,Z1597a

>  <ref_pdb>  (3894) 
Z0719a

>  <HIPPO Compound ID>  (3894) 
151185

>  <name>  (3894) 
GSMODFDSFURJIB-UHFFFAOYSA-N-P86-P35-P86-601528

>  <inspiration_score>  (3894) 
None

$$$$
AVJUBYHOIMBAAZ-UHFFFAOYSA-N-P86-P35-P86-601528
     RDKit          3D

 16 17  0  0  0  0  0  0  0  0999 V2000
   -9.2721    3.5629  -17.7350 C   0  0  0  0  0  0  0  0  0  0  0  0
   -8.4694    3.9572  -16.5452 C   0  0  0  0  0  0  0  0  0  0  0  0
   -7.6179    4.9759  -16.6396 C   0  0  0  0  0  0  0  0  0  0  0  0
   -8.6886    5.0849  -15.6773 C   0  0  2  0  0  0  0  0  0  0  0  0
   -8.1753    5.2876  -14.3153 C   0  0  0  0  0  0  0  0  0  0  0  0
   -7.5180    6.2285  -14.1174 O   0  0  0  0  0  0  0  0  0  0  0  0
   -8.7057    4.2261  -13.3489 N   0  0  0  0  0  0  0  0  0  0  0  0
   -8.4800    4.0496  -12.0328 C   0  0  0  0  0  0  0  0  0  0  0  0
   -7.5936    4.7899  -11.2887 C   0  0  0  0  0  0  0  0  0  0  0  0
   -7.1179    3.8199  -10.4340 N   0  0  0  0  0  0  0  0  0  0  0  0
   -5.6932    3.4839  -10.4325 C   0  0  0  0  0  0  0  0  0  0  0  0
   -5.2267    2.9965  -11.8409 C   0  0  0  0  0  0  0  0  0  0  0  0
   -3.7096    3.0512  -11.9725 C   0  0  0  0  0  0  0  0  0  0  0  0
   -5.6869    1.5723  -12.0944 C   0  0  0  0  0  0  0  0  0  0  0  0
   -8.1162    2.8863  -10.3133 C   0  0  0  0  0  0  0  0  0  0  0  0
   -8.9222    2.9624  -11.3543 N   0  0  0  0  0  0  0  0  0  0  0  0
  1  2  1  0
  2  3  2  0
  3  4  1  0
  4  5  1  1
  5  6  2  0
  5  7  1  0
  7  8  1  0
  8  9  2  0
  9 10  1  0
 10 11  1  0
 11 12  1  0
 12 13  1  0
 12 14  1  0
 10 15  1  0
 15 16  2  0
  4  2  1  0
 16  8  1  0
M  END
>  <energy_score>  (3895) 
-3.280091

>  <alias>  (3895) 
AVJUBYHOIMBAAZ-UHFFFAOYSA-N-P86-P35-P86-601528

>  <HIPPO Pose ID>  (3895) 
80806

>  <smiles>  (3895) 
CC1=CC1C(=O)Nc1cn(CC(C)C)cn1

>  <inchikey>  (3895) 
AVJUBYHOIMBAAZ-UHFFFAOYSA-N

>  <distance_score>  (3895) 
1.215595

>  <ref_mols>  (3895) 
Z0719a,Z1597a

>  <ref_pdb>  (3895) 
Z0719a

>  <HIPPO Compound ID>  (3895) 
151188

>  <name>  (3895) 
AVJUBYHOIMBAAZ-UHFFFAOYSA-N-P86-P35-P86-601528

>  <inspiration_score>  (3895) 
None

$$$$
CQUWCZHTKJXYEX-UHFFFAOYSA-N-P86-P35-P86-601528
     RDKit          3D

 16 17  0  0  0  0  0  0  0  0999 V2000
   -9.2337    3.3998  -17.8828 C   0  0  0  0  0  0  0  0  0  0  0  0
   -8.5339    3.8002  -16.6314 C   0  0  0  0  0  0  0  0  0  0  0  0
   -7.7130    4.8467  -16.6562 C   0  0  0  0  0  0  0  0  0  0  0  0
   -8.8724    4.9097  -15.7887 C   0  0  2  0  0  0  0  0  0  0  0  0
   -8.4552    5.2331  -14.4173 C   0  0  0  0  0  0  0  0  0  0  0  0
   -8.1108    6.3316  -14.2370 O   0  0  0  0  0  0  0  0  0  0  0  0
   -8.5701    4.0536  -13.4422 N   0  0  0  0  0  0  0  0  0  0  0  0
   -8.3862    3.9990  -12.0872 C   0  0  0  0  0  0  0  0  0  0  0  0
   -8.7622    3.0389  -11.1771 C   0  0  0  0  0  0  0  0  0  0  0  0
   -8.4813    3.4338   -9.8978 N   0  0  0  0  0  0  0  0  0  0  0  0
   -7.9392    4.6232  -10.0040 C   0  0  0  0  0  0  0  0  0  0  0  0
   -7.5925    5.5038   -8.8718 C   0  0  0  0  0  0  0  0  0  0  0  0
   -7.7272    4.9411  -11.3279 N   0  0  0  0  0  0  0  0  0  0  0  0
   -6.7928    5.9511  -11.7971 C   0  0  0  0  0  0  0  0  0  0  0  0
   -5.8436    5.3975  -12.7895 C   0  0  0  0  0  0  0  0  0  0  0  0
   -5.1358    4.9342  -13.5894 N   0  0  0  0  0  0  0  0  0  0  0  0
  1  2  1  0
  2  3  2  0
  3  4  1  0
  4  5  1  1
  5  6  2  0
  5  7  1  0
  7  8  1  0
  8  9  2  0
  9 10  1  0
 10 11  2  0
 11 12  1  0
 11 13  1  0
 13 14  1  0
 14 15  1  0
 15 16  3  0
  4  2  1  0
 13  8  1  0
M  END
>  <energy_score>  (3896) 
-19.008846

>  <alias>  (3896) 
CQUWCZHTKJXYEX-UHFFFAOYSA-N-P86-P35-P86-601528

>  <HIPPO Pose ID>  (3896) 
80810

>  <smiles>  (3896) 
CC1=CC1C(=O)Nc1cnc(C)n1CC#N

>  <inchikey>  (3896) 
CQUWCZHTKJXYEX-UHFFFAOYSA-N

>  <distance_score>  (3896) 
1.03997

>  <ref_mols>  (3896) 
Z0719a,Z1597a

>  <ref_pdb>  (3896) 
Z0719a

>  <HIPPO Compound ID>  (3896) 
151190

>  <name>  (3896) 
CQUWCZHTKJXYEX-UHFFFAOYSA-N-P86-P35-P86-601528

>  <inspiration_score>  (3896) 
None

$$$$
SIWGCXODZBYPFL-UHFFFAOYSA-N-P35-P35-P86-601528
     RDKit          3D

 16 16  0  0  0  0  0  0  0  0999 V2000
   -1.9223    4.8260  -19.8767 C   0  0  0  0  0  0  0  0  0  0  0  0
   -3.0636    5.5137  -19.6705 C   0  0  0  0  0  0  0  0  0  0  0  0
   -3.5992    6.5892  -20.5642 C   0  0  0  0  0  0  0  0  0  0  0  0
   -2.9673    6.5007  -21.8464 O   0  0  0  0  0  0  0  0  0  0  0  0
   -3.7218    5.2488  -18.3484 C   0  0  0  0  0  0  0  0  0  0  0  0
   -3.0590    5.1680  -17.3892 O   0  0  0  0  0  0  0  0  0  0  0  0
   -5.2470    5.0663  -18.5316 N   0  0  0  0  0  0  0  0  0  0  0  0
   -6.2221    4.8542  -17.6186 C   0  0  0  0  0  0  0  0  0  0  0  0
   -6.0001    4.6088  -16.2943 C   0  0  0  0  0  0  0  0  0  0  0  0
   -7.2136    4.3235  -15.7620 N   0  0  0  0  0  0  0  0  0  0  0  0
   -7.5112    3.8769  -14.4228 C   0  0  0  0  0  0  0  0  0  0  0  0
   -6.4288    3.7977  -13.3064 C   0  0  0  0  0  0  0  0  0  0  0  0
   -5.3895    2.7061  -13.5032 C   0  0  0  0  0  0  0  0  0  0  0  0
   -5.7956    5.1503  -12.9815 C   0  0  0  0  0  0  0  0  0  0  0  0
   -8.1331    4.4937  -16.7650 C   0  0  0  0  0  0  0  0  0  0  0  0
   -7.5479    4.8193  -17.9021 N   0  0  0  0  0  0  0  0  0  0  0  0
  1  2  2  0
  2  3  1  0
  3  4  1  0
  2  5  1  0
  5  6  2  0
  5  7  1  0
  7  8  1  0
  8  9  2  0
  9 10  1  0
 10 11  1  0
 11 12  1  0
 12 13  1  0
 12 14  1  0
 10 15  1  0
 15 16  2  0
 16  8  1  0
M  END
>  <energy_score>  (3897) 
-24.795347

>  <alias>  (3897) 
SIWGCXODZBYPFL-UHFFFAOYSA-N-P35-P35-P86-601528

>  <HIPPO Pose ID>  (3897) 
80813

>  <smiles>  (3897) 
C=C(CO)C(=O)Nc1cn(CC(C)C)cn1

>  <inchikey>  (3897) 
SIWGCXODZBYPFL-UHFFFAOYSA-N

>  <distance_score>  (3897) 
1.72709

>  <ref_mols>  (3897) 
Z0719a,Z1597a

>  <ref_pdb>  (3897) 
Z0719a

>  <HIPPO Compound ID>  (3897) 
151192

>  <name>  (3897) 
SIWGCXODZBYPFL-UHFFFAOYSA-N-P35-P35-P86-601528

>  <inspiration_score>  (3897) 
None

$$$$
VZHKIOMEHUXZPS-UHFFFAOYSA-N-P35-P35-P86-601528
     RDKit          3D

 16 17  0  0  0  0  0  0  0  0999 V2000
   -2.1057    6.5397  -20.5506 C   0  0  0  0  0  0  0  0  0  0  0  0
   -3.2919    7.1688  -20.5839 C   0  0  0  0  0  0  0  0  0  0  0  0
   -4.0135    7.6357  -21.7997 C   0  0  0  0  0  0  0  0  0  0  0  0
   -5.3805    7.2634  -21.7987 O   0  0  0  0  0  0  0  0  0  0  0  0
   -3.8991    7.5335  -19.2755 C   0  0  0  0  0  0  0  0  0  0  0  0
   -3.7846    8.5858  -18.7894 O   0  0  0  0  0  0  0  0  0  0  0  0
   -4.6664    6.2878  -18.7925 N   0  0  0  0  0  0  0  0  0  0  0  0
   -5.3325    6.0597  -17.6394 C   0  0  0  0  0  0  0  0  0  0  0  0
   -6.0254    4.9081  -17.3798 C   0  0  0  0  0  0  0  0  0  0  0  0
   -6.7295    5.1948  -16.2458 N   0  0  0  0  0  0  0  0  0  0  0  0
   -7.8845    4.4601  -15.7834 C   0  0  0  0  0  0  0  0  0  0  0  0
   -9.0796    4.8094  -16.6195 C   0  0  0  0  0  0  0  0  0  0  0  0
   -9.0715    4.8767  -18.1472 C   0  0  0  0  0  0  0  0  0  0  0  0
   -9.7895    3.7842  -17.4563 C   0  0  0  0  0  0  0  0  0  0  0  0
   -6.3129    6.4069  -15.7866 C   0  0  0  0  0  0  0  0  0  0  0  0
   -5.4638    6.9558  -16.6246 N   0  0  0  0  0  0  0  0  0  0  0  0
  1  2  2  0
  2  3  1  0
  3  4  1  0
  2  5  1  0
  5  6  2  0
  5  7  1  0
  7  8  1  0
  8  9  2  0
  9 10  1  0
 10 11  1  0
 11 12  1  0
 12 13  1  0
 13 14  1  0
 10 15  1  0
 15 16  2  0
 16  8  1  0
 14 12  1  0
M  END
>  <energy_score>  (3898) 
-1.356617

>  <alias>  (3898) 
VZHKIOMEHUXZPS-UHFFFAOYSA-N-P35-P35-P86-601528

>  <HIPPO Pose ID>  (3898) 
80819

>  <smiles>  (3898) 
C=C(CO)C(=O)Nc1cn(CC2CC2)cn1

>  <inchikey>  (3898) 
VZHKIOMEHUXZPS-UHFFFAOYSA-N

>  <distance_score>  (3898) 
1.992252

>  <ref_mols>  (3898) 
Z0719a,Z1597a

>  <ref_pdb>  (3898) 
Z0719a

>  <HIPPO Compound ID>  (3898) 
151195

>  <name>  (3898) 
VZHKIOMEHUXZPS-UHFFFAOYSA-N-P35-P35-P86-601528

>  <inspiration_score>  (3898) 
None

$$$$
JUCYPFVPSKSTCF-UHFFFAOYSA-N-P35-P35-P86-601528
     RDKit          3D

 16 16  0  0  0  0  0  0  0  0999 V2000
   -2.4553    4.4201  -18.4300 C   0  0  0  0  0  0  0  0  0  0  0  0
   -3.4725    5.2900  -18.5074 C   0  0  0  0  0  0  0  0  0  0  0  0
   -3.8399    6.1278  -19.6976 C   0  0  0  0  0  0  0  0  0  0  0  0
   -2.9032    5.9244  -20.7691 O   0  0  0  0  0  0  0  0  0  0  0  0
   -4.2406    5.4194  -17.2225 C   0  0  0  0  0  0  0  0  0  0  0  0
   -3.8045    5.9548  -16.2848 O   0  0  0  0  0  0  0  0  0  0  0  0
   -5.5674    4.6558  -17.4112 N   0  0  0  0  0  0  0  0  0  0  0  0
   -6.6258    4.4814  -16.5536 C   0  0  0  0  0  0  0  0  0  0  0  0
   -6.8284    4.0877  -15.2309 C   0  0  0  0  0  0  0  0  0  0  0  0
   -5.9490    3.4031  -14.2903 N   0  0  0  0  0  0  0  0  0  0  0  0
   -6.4813    2.6115  -13.4937 O   0  0  0  0  0  0  0  0  0  0  0  0
   -4.7262    3.5770  -14.3874 O   0  0  0  0  0  0  0  0  0  0  0  0
   -8.1775    4.1657  -14.9046 N   0  0  0  0  0  0  0  0  0  0  0  0
   -8.7901    4.4746  -16.0134 C   0  0  0  0  0  0  0  0  0  0  0  0
   -7.9077    4.6255  -17.0317 N   0  0  0  0  0  0  0  0  0  0  0  0
   -8.2938    4.9565  -18.3694 C   0  0  0  0  0  0  0  0  0  0  0  0
  1  2  2  0
  2  3  1  0
  3  4  1  0
  2  5  1  0
  5  6  2  0
  5  7  1  0
  7  8  1  0
  8  9  2  0
  9 10  1  0
 10 11  2  0
 10 12  1  0
  9 13  1  0
 13 14  2  0
 14 15  1  0
 15 16  1  0
 15  8  1  0
M  CHG  2  10   1  12  -1
M  END
>  <energy_score>  (3899) 
-14.842846

>  <alias>  (3899) 
JUCYPFVPSKSTCF-UHFFFAOYSA-N-P35-P35-P86-601528

>  <HIPPO Pose ID>  (3899) 
80821

>  <smiles>  (3899) 
C=C(CO)C(=O)Nc1c([N+](=O)[O-])ncn1C

>  <inchikey>  (3899) 
JUCYPFVPSKSTCF-UHFFFAOYSA-N

>  <distance_score>  (3899) 
1.978966

>  <ref_mols>  (3899) 
Z0719a,Z1597a

>  <ref_pdb>  (3899) 
Z0719a

>  <HIPPO Compound ID>  (3899) 
151196

>  <name>  (3899) 
JUCYPFVPSKSTCF-UHFFFAOYSA-N-P35-P35-P86-601528

>  <inspiration_score>  (3899) 
None

$$$$
WSWHXWBBRCVDFW-UHFFFAOYSA-N-P86-P35-P86-601528
     RDKit          3D

 16 17  0  0  0  0  0  0  0  0999 V2000
   -3.6628    9.0778  -21.3668 C   0  0  0  0  0  0  0  0  0  0  0  0
   -3.8898    7.8097  -20.9881 C   0  0  0  0  0  0  0  0  0  0  0  0
   -3.6007    6.6066  -21.8180 C   0  0  0  0  0  0  0  0  0  0  0  0
   -4.8362    6.0343  -22.2232 O   0  0  0  0  0  0  0  0  0  0  0  0
   -4.3495    7.5693  -19.5835 C   0  0  0  0  0  0  0  0  0  0  0  0
   -3.8643    8.1198  -18.6759 O   0  0  0  0  0  0  0  0  0  0  0  0
   -5.4485    6.4836  -19.6260 N   0  0  0  0  0  0  0  0  0  0  0  0
   -6.0710    5.8244  -18.6227 C   0  0  0  0  0  0  0  0  0  0  0  0
   -7.0031    4.8297  -18.7806 C   0  0  0  0  0  0  0  0  0  0  0  0
   -7.5037    4.6273  -17.5361 N   0  0  0  0  0  0  0  0  0  0  0  0
   -8.6392    3.9522  -17.2519 N   0  0  0  0  0  0  0  0  0  0  0  0
   -8.9104    3.9996  -15.9917 C   0  0  0  0  0  0  0  0  0  0  0  0
   -8.0832    4.5900  -14.9183 C   0  0  0  0  0  0  0  0  0  0  0  0
   -6.9878    5.2555  -15.2917 C   0  0  0  0  0  0  0  0  0  0  0  0
   -6.7080    5.3579  -16.6669 C   0  0  0  0  0  0  0  0  0  0  0  0
   -5.8491    6.1130  -17.3120 N   0  0  0  0  0  0  0  0  0  0  0  0
  1  2  2  0
  2  3  1  0
  3  4  1  0
  2  5  1  0
  5  6  2  0
  5  7  1  0
  7  8  1  0
  8  9  2  0
  9 10  1  0
 10 11  1  0
 11 12  2  0
 12 13  1  0
 13 14  2  0
 14 15  1  0
 15 16  2  0
 16  8  1  0
 15 10  1  0
M  END
>  <energy_score>  (3900) 
-9.453344

>  <alias>  (3900) 
WSWHXWBBRCVDFW-UHFFFAOYSA-N-P86-P35-P86-601528

>  <HIPPO Pose ID>  (3900) 
80830

>  <smiles>  (3900) 
C=C(CO)C(=O)Nc1cn2ncccc2n1

>  <inchikey>  (3900) 
WSWHXWBBRCVDFW-UHFFFAOYSA-N

>  <distance_score>  (3900) 
1.873058

>  <ref_mols>  (3900) 
Z0719a,Z1597a

>  <ref_pdb>  (3900) 
Z0719a

>  <HIPPO Compound ID>  (3900) 
151200

>  <name>  (3900) 
WSWHXWBBRCVDFW-UHFFFAOYSA-N-P86-P35-P86-601528

>  <inspiration_score>  (3900) 
None

$$$$
DZOPSLDXBMBBIY-UHFFFAOYSA-N-P86-P35-P86-601528
     RDKit          3D

 16 17  0  0  0  0  0  0  0  0999 V2000
   -1.7609    5.3068  -20.8841 C   0  0  0  0  0  0  0  0  0  0  0  0
   -2.7782    6.1770  -20.8006 C   0  0  0  0  0  0  0  0  0  0  0  0
   -3.3788    6.9841  -21.8991 C   0  0  0  0  0  0  0  0  0  0  0  0
   -3.2290    6.3091  -23.1466 O   0  0  0  0  0  0  0  0  0  0  0  0
   -3.4194    6.3338  -19.4730 C   0  0  0  0  0  0  0  0  0  0  0  0
   -2.9347    6.9279  -18.5960 O   0  0  0  0  0  0  0  0  0  0  0  0
   -4.7622    5.5758  -19.5470 N   0  0  0  0  0  0  0  0  0  0  0  0
   -5.6840    5.3279  -18.5900 C   0  0  0  0  0  0  0  0  0  0  0  0
   -6.8312    4.5986  -18.7648 C   0  0  0  0  0  0  0  0  0  0  0  0
   -7.4142    4.5840  -17.5352 N   0  0  0  0  0  0  0  0  0  0  0  0
   -8.6091    4.0313  -17.1351 C   0  0  0  0  0  0  0  0  0  0  0  0
   -8.9468    4.1409  -15.8503 C   0  0  0  0  0  0  0  0  0  0  0  0
   -7.9760    4.8280  -14.9680 C   0  0  0  0  0  0  0  0  0  0  0  0
   -6.8694    5.3888  -15.3341 N   0  0  0  0  0  0  0  0  0  0  0  0
   -6.5746    5.2773  -16.6618 C   0  0  0  0  0  0  0  0  0  0  0  0
   -5.5506    5.7776  -17.3169 N   0  0  0  0  0  0  0  0  0  0  0  0
  1  2  2  0
  2  3  1  0
  3  4  1  0
  2  5  1  0
  5  6  2  0
  5  7  1  0
  7  8  1  0
  8  9  2  0
  9 10  1  0
 10 11  1  0
 11 12  2  0
 12 13  1  0
 13 14  2  0
 14 15  1  0
 15 16  2  0
 16  8  1  0
 15 10  1  0
M  END
>  <energy_score>  (3901) 
-27.636468

>  <alias>  (3901) 
DZOPSLDXBMBBIY-UHFFFAOYSA-N-P86-P35-P86-601528

>  <HIPPO Pose ID>  (3901) 
80832

>  <smiles>  (3901) 
C=C(CO)C(=O)Nc1cn2cccnc2n1

>  <inchikey>  (3901) 
DZOPSLDXBMBBIY-UHFFFAOYSA-N

>  <distance_score>  (3901) 
1.655537

>  <ref_mols>  (3901) 
Z0719a,Z1597a

>  <ref_pdb>  (3901) 
Z0719a

>  <HIPPO Compound ID>  (3901) 
151201

>  <name>  (3901) 
DZOPSLDXBMBBIY-UHFFFAOYSA-N-P86-P35-P86-601528

>  <inspiration_score>  (3901) 
None

$$$$
GYMJCVRDBSPNPM-UHFFFAOYSA-N-P86-P35-P86-601528
     RDKit          3D

 16 16  0  0  0  0  0  0  0  0999 V2000
   -2.5815    4.9345  -19.6579 C   0  0  0  0  0  0  0  0  0  0  0  0
   -3.7715    5.5567  -19.5878 C   0  0  0  0  0  0  0  0  0  0  0  0
   -4.4181    6.3389  -20.7041 C   0  0  0  0  0  0  0  0  0  0  0  0
   -3.4617    6.9690  -21.7109 C   0  0  0  0  0  0  0  0  0  0  0  0
   -4.4447    5.5125  -18.2354 C   0  0  0  0  0  0  0  0  0  0  0  0
   -3.8444    5.6825  -17.2473 O   0  0  0  0  0  0  0  0  0  0  0  0
   -5.9428    5.1771  -18.4564 N   0  0  0  0  0  0  0  0  0  0  0  0
   -6.9412    4.9015  -17.5485 C   0  0  0  0  0  0  0  0  0  0  0  0
   -8.1677    4.3550  -17.8626 C   0  0  0  0  0  0  0  0  0  0  0  0
   -8.6795    3.9052  -19.1530 C   0  0  0  0  0  0  0  0  0  0  0  0
   -8.9392    4.1694  -16.7583 N   0  0  0  0  0  0  0  0  0  0  0  0
   -8.2097    4.5727  -15.7449 C   0  0  0  0  0  0  0  0  0  0  0  0
   -8.6678    4.5144  -14.3403 C   0  0  0  0  0  0  0  0  0  0  0  0
   -6.9833    5.0421  -16.1743 N   0  0  0  0  0  0  0  0  0  0  0  0
   -5.9264    5.5749  -15.3607 C   0  0  0  0  0  0  0  0  0  0  0  0
   -6.1956    6.0137  -13.9319 C   0  0  0  0  0  0  0  0  0  0  0  0
  1  2  2  0
  2  3  1  0
  3  4  1  0
  2  5  1  0
  5  6  2  0
  5  7  1  0
  7  8  1  0
  8  9  2  0
  9 10  1  0
  9 11  1  0
 11 12  2  0
 12 13  1  0
 12 14  1  0
 14 15  1  0
 15 16  1  0
 14  8  1  0
M  END
>  <energy_score>  (3902) 
-19.000201

>  <alias>  (3902) 
GYMJCVRDBSPNPM-UHFFFAOYSA-N-P86-P35-P86-601528

>  <HIPPO Pose ID>  (3902) 
80840

>  <smiles>  (3902) 
C=C(CC)C(=O)Nc1c(C)nc(C)n1CC

>  <inchikey>  (3902) 
GYMJCVRDBSPNPM-UHFFFAOYSA-N

>  <distance_score>  (3902) 
1.445828

>  <ref_mols>  (3902) 
Z0719a,Z1597a

>  <ref_pdb>  (3902) 
Z0719a

>  <HIPPO Compound ID>  (3902) 
151205

>  <name>  (3902) 
GYMJCVRDBSPNPM-UHFFFAOYSA-N-P86-P35-P86-601528

>  <inspiration_score>  (3902) 
None

$$$$
MNSOGWXCTHAVDR-UHFFFAOYSA-N-P86-P35-P86-601528
     RDKit          3D

 16 17  0  0  0  0  0  0  0  0999 V2000
   -2.0451    5.2287  -21.1124 C   0  0  0  0  0  0  0  0  0  0  0  0
   -2.9742    6.1864  -20.9781 C   0  0  0  0  0  0  0  0  0  0  0  0
   -3.3528    7.2013  -22.0077 C   0  0  0  0  0  0  0  0  0  0  0  0
   -4.8017    7.1360  -22.4722 C   0  0  0  0  0  0  0  0  0  0  0  0
   -3.6218    6.3076  -19.6469 C   0  0  0  0  0  0  0  0  0  0  0  0
   -3.1702    6.9315  -18.7732 O   0  0  0  0  0  0  0  0  0  0  0  0
   -4.9238    5.4874  -19.7200 N   0  0  0  0  0  0  0  0  0  0  0  0
   -5.8375    5.2036  -18.7649 C   0  0  0  0  0  0  0  0  0  0  0  0
   -6.9592    4.4352  -18.9414 C   0  0  0  0  0  0  0  0  0  0  0  0
   -7.5823    4.4441  -17.7348 N   0  0  0  0  0  0  0  0  0  0  0  0
   -8.7793    3.8769  -17.4671 N   0  0  0  0  0  0  0  0  0  0  0  0
   -9.1056    4.0292  -16.2291 C   0  0  0  0  0  0  0  0  0  0  0  0
   -8.3154    4.6792  -15.1602 C   0  0  0  0  0  0  0  0  0  0  0  0
   -7.1585    5.2357  -15.5203 C   0  0  0  0  0  0  0  0  0  0  0  0
   -6.7671    5.1594  -16.8704 C   0  0  0  0  0  0  0  0  0  0  0  0
   -5.7292    5.6703  -17.4913 N   0  0  0  0  0  0  0  0  0  0  0  0
  1  2  2  0
  2  3  1  0
  3  4  1  0
  2  5  1  0
  5  6  2  0
  5  7  1  0
  7  8  1  0
  8  9  2  0
  9 10  1  0
 10 11  1  0
 11 12  2  0
 12 13  1  0
 13 14  2  0
 14 15  1  0
 15 16  2  0
 16  8  1  0
 15 10  1  0
M  END
>  <energy_score>  (3903) 
-35.881972

>  <alias>  (3903) 
MNSOGWXCTHAVDR-UHFFFAOYSA-N-P86-P35-P86-601528

>  <HIPPO Pose ID>  (3903) 
80846

>  <smiles>  (3903) 
C=C(CC)C(=O)Nc1cn2ncccc2n1

>  <inchikey>  (3903) 
MNSOGWXCTHAVDR-UHFFFAOYSA-N

>  <distance_score>  (3903) 
1.64308

>  <ref_mols>  (3903) 
Z0719a,Z1597a

>  <ref_pdb>  (3903) 
Z0719a

>  <HIPPO Compound ID>  (3903) 
151208

>  <name>  (3903) 
MNSOGWXCTHAVDR-UHFFFAOYSA-N-P86-P35-P86-601528

>  <inspiration_score>  (3903) 
None

$$$$
SLKCMJDYRWKYAD-UHFFFAOYSA-N-P86-P35-P86-601528
     RDKit          3D

 16 17  0  0  0  0  0  0  0  0999 V2000
   -1.8659    5.7686  -21.4723 C   0  0  0  0  0  0  0  0  0  0  0  0
   -3.0930    6.2344  -21.1891 C   0  0  0  0  0  0  0  0  0  0  0  0
   -4.0480    6.9407  -22.1095 C   0  0  0  0  0  0  0  0  0  0  0  0
   -3.4333    7.5137  -23.3819 C   0  0  0  0  0  0  0  0  0  0  0  0
   -3.5118    6.1435  -19.7531 C   0  0  0  0  0  0  0  0  0  0  0  0
   -2.8559    6.5717  -18.8890 O   0  0  0  0  0  0  0  0  0  0  0  0
   -4.8876    5.4418  -19.7129 N   0  0  0  0  0  0  0  0  0  0  0  0
   -5.7312    5.2203  -18.6782 C   0  0  0  0  0  0  0  0  0  0  0  0
   -6.9375    4.5699  -18.7476 C   0  0  0  0  0  0  0  0  0  0  0  0
   -7.4065    4.5806  -17.4679 N   0  0  0  0  0  0  0  0  0  0  0  0
   -8.5915    4.0983  -16.9539 C   0  0  0  0  0  0  0  0  0  0  0  0
   -8.8087    4.2360  -15.6443 C   0  0  0  0  0  0  0  0  0  0  0  0
   -7.7273    4.8769  -14.8620 C   0  0  0  0  0  0  0  0  0  0  0  0
   -6.6277    5.3686  -15.3310 N   0  0  0  0  0  0  0  0  0  0  0  0
   -6.4534    5.2246  -16.6768 C   0  0  0  0  0  0  0  0  0  0  0  0
   -5.4546    5.6466  -17.4189 N   0  0  0  0  0  0  0  0  0  0  0  0
  1  2  2  0
  2  3  1  0
  3  4  1  0
  2  5  1  0
  5  6  2  0
  5  7  1  0
  7  8  1  0
  8  9  2  0
  9 10  1  0
 10 11  1  0
 11 12  2  0
 12 13  1  0
 13 14  2  0
 14 15  1  0
 15 16  2  0
 16  8  1  0
 15 10  1  0
M  END
>  <energy_score>  (3904) 
-29.253853

>  <alias>  (3904) 
SLKCMJDYRWKYAD-UHFFFAOYSA-N-P86-P35-P86-601528

>  <HIPPO Pose ID>  (3904) 
80848

>  <smiles>  (3904) 
C=C(CC)C(=O)Nc1cn2cccnc2n1

>  <inchikey>  (3904) 
SLKCMJDYRWKYAD-UHFFFAOYSA-N

>  <distance_score>  (3904) 
1.588555

>  <ref_mols>  (3904) 
Z0719a,Z1597a

>  <ref_pdb>  (3904) 
Z0719a

>  <HIPPO Compound ID>  (3904) 
151209

>  <name>  (3904) 
SLKCMJDYRWKYAD-UHFFFAOYSA-N-P86-P35-P86-601528

>  <inspiration_score>  (3904) 
None

$$$$
RRRCEWHPQUPNLD-UHFFFAOYSA-N-P35-P35-P86-601528
     RDKit          3D

 16 16  0  0  0  0  0  0  0  0999 V2000
   -7.4963    4.0392  -12.9463 C   0  0  0  0  0  0  0  0  0  0  0  0
   -6.4154    3.9438  -14.0084 C   0  0  0  0  0  0  0  0  0  0  0  0
   -6.2521    5.1369  -14.9558 C   0  0  0  0  0  0  0  0  0  0  0  0
   -7.2222    5.2166  -16.0141 N   0  0  0  0  0  0  0  0  0  0  0  0
   -8.5688    5.3885  -15.7818 C   0  0  0  0  0  0  0  0  0  0  0  0
   -9.1307    6.1412  -14.6347 C   0  0  0  0  0  0  0  0  0  0  0  0
   -9.2617    4.8445  -16.7521 N   0  0  0  0  0  0  0  0  0  0  0  0
   -8.3540    4.5807  -17.7371 C   0  0  0  0  0  0  0  0  0  0  0  0
   -8.8462    4.0887  -19.0215 C   0  0  0  0  0  0  0  0  0  0  0  0
   -7.0731    4.9201  -17.3474 C   0  0  0  0  0  0  0  0  0  0  0  0
   -5.9527    4.9218  -18.1388 N   0  0  0  0  0  0  0  0  0  0  0  0
   -4.5547    5.5707  -17.9115 C   0  0  0  0  0  0  0  0  0  0  0  0
   -4.1231    6.1358  -16.9817 O   0  0  0  0  0  0  0  0  0  0  0  0
   -3.7241    5.3037  -19.1598 C   0  0  0  0  0  0  0  0  0  0  0  0
   -3.8504    6.4233  -20.1763 C   0  0  0  0  0  0  0  0  0  0  0  0
   -2.9608    6.1656  -21.2737 O   0  0  0  0  0  0  0  0  0  0  0  0
  1  2  1  0
  2  3  1  0
  3  4  1  0
  4  5  1  0
  5  6  1  0
  5  7  2  0
  7  8  1  0
  8  9  1  0
  8 10  2  0
 10 11  1  0
 11 12  1  0
 12 13  2  0
 12 14  1  0
 14 15  1  0
 15 16  1  0
 10  4  1  0
M  END
>  <energy_score>  (3905) 
-12.700991

>  <alias>  (3905) 
RRRCEWHPQUPNLD-UHFFFAOYSA-N-P35-P35-P86-601528

>  <HIPPO Pose ID>  (3905) 
80865

>  <smiles>  (3905) 
CCCn1c(C)nc(C)c1NC(=O)CCO

>  <inchikey>  (3905) 
RRRCEWHPQUPNLD-UHFFFAOYSA-N

>  <distance_score>  (3905) 
1.305463

>  <ref_mols>  (3905) 
Z0719a,Z1597a

>  <ref_pdb>  (3905) 
Z0719a

>  <HIPPO Compound ID>  (3905) 
151218

>  <name>  (3905) 
RRRCEWHPQUPNLD-UHFFFAOYSA-N-P35-P35-P86-601528

>  <inspiration_score>  (3905) 
None

$$$$
PXHVXEGGGUMHFP-UHFFFAOYSA-N-P86-P35-P86-601528
     RDKit          3D

 16 16  0  0  0  0  0  0  0  0999 V2000
   -2.9477    7.3372  -18.3370 C   0  0  0  0  0  0  0  0  0  0  0  0
   -3.7140    6.8665  -19.3338 C   0  0  0  0  0  0  0  0  0  0  0  0
   -3.1955    6.4713  -20.6925 C   0  0  0  0  0  0  0  0  0  0  0  0
   -3.2827    7.5964  -21.7141 C   0  0  0  0  0  0  0  0  0  0  0  0
   -5.1909    6.6913  -19.1685 C   0  0  0  0  0  0  0  0  0  0  0  0
   -5.9292    7.1148  -19.9622 O   0  0  0  0  0  0  0  0  0  0  0  0
   -5.4543    5.8301  -17.9196 N   0  0  0  0  0  0  0  0  0  0  0  0
   -6.6038    5.2629  -17.4639 C   0  0  0  0  0  0  0  0  0  0  0  0
   -7.6826    5.0460  -18.2743 N   0  0  0  0  0  0  0  0  0  0  0  0
   -8.6189    4.3766  -17.5356 C   0  0  0  0  0  0  0  0  0  0  0  0
   -8.2311    4.2269  -16.2906 N   0  0  0  0  0  0  0  0  0  0  0  0
   -6.9526    4.7706  -16.2175 C   0  0  0  0  0  0  0  0  0  0  0  0
   -6.0845    4.8585  -15.0311 C   0  0  0  0  0  0  0  0  0  0  0  0
   -4.8966    5.1725  -15.1435 O   0  0  0  0  0  0  0  0  0  0  0  0
   -6.5943    4.6447  -13.7791 O   0  0  0  0  0  0  0  0  0  0  0  0
   -7.9845    4.3963  -13.5475 C   0  0  0  0  0  0  0  0  0  0  0  0
  1  2  2  0
  2  3  1  0
  3  4  1  0
  2  5  1  0
  5  6  2  0
  5  7  1  0
  7  8  1  0
  8  9  1  0
  9 10  1  0
 10 11  2  0
 11 12  1  0
 12 13  1  0
 13 14  2  0
 13 15  1  0
 15 16  1  0
 12  8  2  0
M  END
>  <energy_score>  (3906) 
-11.655188

>  <alias>  (3906) 
PXHVXEGGGUMHFP-UHFFFAOYSA-N-P86-P35-P86-601528

>  <HIPPO Pose ID>  (3906) 
80874

>  <smiles>  (3906) 
C=C(CC)C(=O)Nc1[nH]cnc1C(=O)OC

>  <inchikey>  (3906) 
PXHVXEGGGUMHFP-UHFFFAOYSA-N

>  <distance_score>  (3906) 
1.963035

>  <ref_mols>  (3906) 
Z0719a,Z1597a

>  <ref_pdb>  (3906) 
Z0719a

>  <HIPPO Compound ID>  (3906) 
151222

>  <name>  (3906) 
PXHVXEGGGUMHFP-UHFFFAOYSA-N-P86-P35-P86-601528

>  <inspiration_score>  (3906) 
None

$$$$
YBSUBYMEVUOQHZ-UHFFFAOYSA-N-P86-P35-P86-601528
     RDKit          3D

 16 17  0  0  0  0  0  0  0  0999 V2000
   -3.7195    7.3704  -23.4950 C   0  0  0  0  0  0  0  0  0  0  0  0
   -4.1593    7.3077  -22.0426 C   0  0  2  0  0  0  0  0  0  0  0  0
   -4.1605    8.5874  -21.5710 F   0  0  0  0  0  0  0  0  0  0  0  0
   -3.2129    6.4691  -21.2039 C   0  0  0  0  0  0  0  0  0  0  0  0
   -3.7049    6.3973  -19.7741 C   0  0  0  0  0  0  0  0  0  0  0  0
   -3.1500    6.9282  -18.8926 O   0  0  0  0  0  0  0  0  0  0  0  0
   -5.0391    5.5981  -19.7896 N   0  0  0  0  0  0  0  0  0  0  0  0
   -5.8561    5.2346  -18.7755 C   0  0  0  0  0  0  0  0  0  0  0  0
   -6.9955    4.4801  -18.8902 C   0  0  0  0  0  0  0  0  0  0  0  0
   -7.5266    4.4591  -17.6386 N   0  0  0  0  0  0  0  0  0  0  0  0
   -8.7174    3.9143  -17.3007 N   0  0  0  0  0  0  0  0  0  0  0  0
   -8.9619    4.0545  -16.0408 C   0  0  0  0  0  0  0  0  0  0  0  0
   -8.0893    4.6754  -15.0216 C   0  0  0  0  0  0  0  0  0  0  0  0
   -6.9399    5.2056  -15.4452 C   0  0  0  0  0  0  0  0  0  0  0  0
   -6.6375    5.1371  -16.8179 C   0  0  0  0  0  0  0  0  0  0  0  0
   -5.6316    5.6356  -17.4967 N   0  0  0  0  0  0  0  0  0  0  0  0
  2  1  1  6
  2  3  1  0
  2  4  1  0
  4  5  1  0
  5  6  2  0
  5  7  1  0
  7  8  1  0
  8  9  2  0
  9 10  1  0
 10 11  1  0
 11 12  2  0
 12 13  1  0
 13 14  2  0
 14 15  1  0
 15 16  2  0
 16  8  1  0
 15 10  1  0
M  END
>  <energy_score>  (3907) 
-25.594845

>  <alias>  (3907) 
YBSUBYMEVUOQHZ-UHFFFAOYSA-N-P86-P35-P86-601528

>  <HIPPO Pose ID>  (3907) 
80880

>  <smiles>  (3907) 
CC(F)CC(=O)Nc1cn2ncccc2n1

>  <inchikey>  (3907) 
YBSUBYMEVUOQHZ-UHFFFAOYSA-N

>  <distance_score>  (3907) 
1.682447

>  <ref_mols>  (3907) 
Z0719a,Z1597a

>  <ref_pdb>  (3907) 
Z0719a

>  <HIPPO Compound ID>  (3907) 
151225

>  <name>  (3907) 
YBSUBYMEVUOQHZ-UHFFFAOYSA-N-P86-P35-P86-601528

>  <inspiration_score>  (3907) 
None

$$$$
HEYTVMUHQCGMHJ-UHFFFAOYSA-N-P35-P35-P86-601528
     RDKit          3D

 16 16  0  0  0  0  0  0  0  0999 V2000
   -6.0453    2.4785  -13.0561 C   0  0  0  0  0  0  0  0  0  0  0  0
   -5.9199    3.7002  -13.9549 C   0  0  0  0  0  0  0  0  0  0  0  0
   -5.4412    4.8970  -13.1283 C   0  0  0  0  0  0  0  0  0  0  0  0
   -7.2838    4.0131  -14.6437 C   0  0  0  0  0  0  0  0  0  0  0  0
   -7.2123    4.4802  -16.0176 N   0  0  0  0  0  0  0  0  0  0  0  0
   -8.1510    4.2875  -16.9912 C   0  0  0  0  0  0  0  0  0  0  0  0
   -7.6937    4.6633  -18.1695 N   0  0  0  0  0  0  0  0  0  0  0  0
   -6.4622    5.1786  -17.9305 C   0  0  0  0  0  0  0  0  0  0  0  0
   -5.6414    5.6452  -18.9000 N   0  0  0  0  0  0  0  0  0  0  0  0
   -4.2820    6.4133  -18.7969 C   0  0  0  0  0  0  0  0  0  0  0  0
   -3.7097    6.8239  -17.8570 O   0  0  0  0  0  0  0  0  0  0  0  0
   -3.6873    6.6093  -20.2158 C   0  0  0  0  0  0  0  0  0  0  0  0
   -4.5936    7.3524  -21.1727 C   0  0  0  0  0  0  0  0  0  0  0  0
   -2.5230    7.3402  -20.1576 F   0  0  0  0  0  0  0  0  0  0  0  0
   -3.2899    5.4256  -20.7737 F   0  0  0  0  0  0  0  0  0  0  0  0
   -6.1749    5.1476  -16.5959 C   0  0  0  0  0  0  0  0  0  0  0  0
  1  2  1  0
  2  3  1  0
  2  4  1  0
  4  5  1  0
  5  6  1  0
  6  7  2  0
  7  8  1  0
  8  9  1  0
  9 10  1  0
 10 11  2  0
 10 12  1  0
 12 13  1  0
 12 14  1  0
 12 15  1  0
  8 16  2  0
 16  5  1  0
M  END
>  <energy_score>  (3908) 
-16.290027

>  <alias>  (3908) 
HEYTVMUHQCGMHJ-UHFFFAOYSA-N-P35-P35-P86-601528

>  <HIPPO Pose ID>  (3908) 
80891

>  <smiles>  (3908) 
CC(C)Cn1cnc(NC(=O)C(C)(F)F)c1

>  <inchikey>  (3908) 
HEYTVMUHQCGMHJ-UHFFFAOYSA-N

>  <distance_score>  (3908) 
1.675858

>  <ref_mols>  (3908) 
Z0719a,Z1597a

>  <ref_pdb>  (3908) 
Z0719a

>  <HIPPO Compound ID>  (3908) 
151231

>  <name>  (3908) 
HEYTVMUHQCGMHJ-UHFFFAOYSA-N-P35-P35-P86-601528

>  <inspiration_score>  (3908) 
None

$$$$
PBCOHCIFWCLQKA-UHFFFAOYSA-N-P35-P35-P86-601528
     RDKit          3D

 16 16  0  0  0  0  0  0  0  0999 V2000
   -7.6342    3.3348  -14.3835 C   0  0  0  0  0  0  0  0  0  0  0  0
   -7.9076    3.9050  -15.7537 C   0  0  0  0  0  0  0  0  0  0  0  0
   -8.7843    3.5474  -16.6790 N   0  0  0  0  0  0  0  0  0  0  0  0
   -8.3632    4.1652  -17.8409 C   0  0  0  0  0  0  0  0  0  0  0  0
   -7.2458    4.9351  -17.5950 C   0  0  0  0  0  0  0  0  0  0  0  0
   -6.3109    5.4388  -18.4575 N   0  0  0  0  0  0  0  0  0  0  0  0
   -4.9830    6.2196  -18.1743 C   0  0  0  0  0  0  0  0  0  0  0  0
   -4.5337    6.6141  -17.1636 O   0  0  0  0  0  0  0  0  0  0  0  0
   -4.1884    6.3381  -19.5105 C   0  0  0  0  0  0  0  0  0  0  0  0
   -4.8924    7.1376  -20.5845 C   0  0  0  0  0  0  0  0  0  0  0  0
   -2.9742    6.9453  -19.3070 F   0  0  0  0  0  0  0  0  0  0  0  0
   -3.8670    5.1048  -20.0039 F   0  0  0  0  0  0  0  0  0  0  0  0
   -7.2149    4.9948  -16.2272 N   0  0  0  0  0  0  0  0  0  0  0  0
   -6.7644    6.0583  -15.3632 C   0  0  0  0  0  0  0  0  0  0  0  0
   -7.7090    6.2783  -14.2528 C   0  0  0  0  0  0  0  0  0  0  0  0
   -8.4550    6.3907  -13.3692 N   0  0  0  0  0  0  0  0  0  0  0  0
  1  2  1  0
  2  3  2  0
  3  4  1  0
  4  5  2  0
  5  6  1  0
  6  7  1  0
  7  8  2  0
  7  9  1  0
  9 10  1  0
  9 11  1  0
  9 12  1  0
  5 13  1  0
 13 14  1  0
 14 15  1  0
 15 16  3  0
 13  2  1  0
M  END
>  <energy_score>  (3909) 
-2.220883

>  <alias>  (3909) 
PBCOHCIFWCLQKA-UHFFFAOYSA-N-P35-P35-P86-601528

>  <HIPPO Pose ID>  (3909) 
80895

>  <smiles>  (3909) 
Cc1ncc(NC(=O)C(C)(F)F)n1CC#N

>  <inchikey>  (3909) 
PBCOHCIFWCLQKA-UHFFFAOYSA-N

>  <distance_score>  (3909) 
1.823655

>  <ref_mols>  (3909) 
Z0719a,Z1597a

>  <ref_pdb>  (3909) 
Z0719a

>  <HIPPO Compound ID>  (3909) 
151233

>  <name>  (3909) 
PBCOHCIFWCLQKA-UHFFFAOYSA-N-P35-P35-P86-601528

>  <inspiration_score>  (3909) 
None

$$$$
RFWVHEVIFWARLZ-UHFFFAOYSA-N-P86-P35-P86-601528
     RDKit          3D

 16 17  0  0  0  0  0  0  0  0999 V2000
   -4.2748    7.9149  -21.9369 C   0  0  0  0  0  0  0  0  0  0  0  0
   -4.1727    6.4079  -21.9112 C   0  0  0  0  0  0  0  0  0  0  0  0
   -5.2447    5.9252  -22.6101 F   0  0  0  0  0  0  0  0  0  0  0  0
   -3.0524    6.0498  -22.6021 F   0  0  0  0  0  0  0  0  0  0  0  0
   -4.1659    5.9849  -20.4388 C   0  0  0  0  0  0  0  0  0  0  0  0
   -3.2612    6.1880  -19.7220 O   0  0  0  0  0  0  0  0  0  0  0  0
   -5.5727    5.3790  -20.1438 N   0  0  0  0  0  0  0  0  0  0  0  0
   -6.1436    5.0153  -18.9736 C   0  0  0  0  0  0  0  0  0  0  0  0
   -7.3894    4.4609  -18.8137 C   0  0  0  0  0  0  0  0  0  0  0  0
   -7.5958    4.4484  -17.4694 N   0  0  0  0  0  0  0  0  0  0  0  0
   -8.7438    4.0770  -16.8510 N   0  0  0  0  0  0  0  0  0  0  0  0
   -8.6761    4.2487  -15.5719 C   0  0  0  0  0  0  0  0  0  0  0  0
   -7.5217    4.7583  -14.8002 C   0  0  0  0  0  0  0  0  0  0  0  0
   -6.4332    5.1093  -15.4870 C   0  0  0  0  0  0  0  0  0  0  0  0
   -6.4524    4.9776  -16.8879 C   0  0  0  0  0  0  0  0  0  0  0  0
   -5.5512    5.3018  -17.7848 N   0  0  0  0  0  0  0  0  0  0  0  0
  1  2  1  0
  2  3  1  0
  2  4  1  0
  2  5  1  0
  5  6  2  0
  5  7  1  0
  7  8  1  0
  8  9  2  0
  9 10  1  0
 10 11  1  0
 11 12  2  0
 12 13  1  0
 13 14  2  0
 14 15  1  0
 15 16  2  0
 16  8  1  0
 15 10  1  0
M  END
>  <energy_score>  (3910) 
-11.61185

>  <alias>  (3910) 
RFWVHEVIFWARLZ-UHFFFAOYSA-N-P86-P35-P86-601528

>  <HIPPO Pose ID>  (3910) 
80910

>  <smiles>  (3910) 
CC(F)(F)C(=O)Nc1cn2ncccc2n1

>  <inchikey>  (3910) 
RFWVHEVIFWARLZ-UHFFFAOYSA-N

>  <distance_score>  (3910) 
1.645567

>  <ref_mols>  (3910) 
Z0719a,Z1597a

>  <ref_pdb>  (3910) 
Z0719a

>  <HIPPO Compound ID>  (3910) 
151240

>  <name>  (3910) 
RFWVHEVIFWARLZ-UHFFFAOYSA-N-P86-P35-P86-601528

>  <inspiration_score>  (3910) 
None

$$$$
BSXSPTNRZGFCAT-UHFFFAOYSA-N-P35-P35-P86-601528
     RDKit          3D

 16 17  0  0  0  0  0  0  0  0999 V2000
   -4.2012    6.7072  -20.1362 C   0  0  0  0  0  0  0  0  0  0  0  0
   -3.9755    5.3944  -19.3933 C   0  0  1  0  0  0  0  0  0  0  0  0
   -2.1997    5.2471  -18.9816 S   0  0  0  0  0  0  0  0  0  0  0  0
   -4.8573    5.2457  -18.1368 C   0  0  0  0  0  0  0  0  0  0  0  0
   -4.4319    5.2397  -17.0457 O   0  0  0  0  0  0  0  0  0  0  0  0
   -6.3235    5.0782  -18.6529 N   0  0  0  0  0  0  0  0  0  0  0  0
   -7.4746    4.7920  -17.9751 C   0  0  0  0  0  0  0  0  0  0  0  0
   -8.6654    4.7794  -18.6534 N   0  0  0  0  0  0  0  0  0  0  0  0
   -9.6492    4.3900  -17.7956 C   0  0  0  0  0  0  0  0  0  0  0  0
   -9.1708    4.1437  -16.6051 N   0  0  0  0  0  0  0  0  0  0  0  0
   -7.8276    4.4575  -16.6808 C   0  0  0  0  0  0  0  0  0  0  0  0
   -7.0311    4.4036  -15.4632 C   0  0  0  0  0  0  0  0  0  0  0  0
   -6.8229    3.2287  -14.7905 N   0  0  0  0  0  0  0  0  0  0  0  0
   -6.0335    3.5084  -13.7655 N   0  0  0  0  0  0  0  0  0  0  0  0
   -5.8679    4.8305  -13.8384 N   0  0  0  0  0  0  0  0  0  0  0  0
   -6.4949    5.4658  -14.8395 N   0  0  0  0  0  0  0  0  0  0  0  0
  2  1  1  1
  2  3  1  0
  2  4  1  0
  4  5  2  0
  4  6  1  0
  6  7  1  0
  7  8  1  0
  8  9  1  0
  9 10  2  0
 10 11  1  0
 11 12  1  0
 12 13  1  0
 13 14  2  0
 14 15  1  0
 15 16  1  0
 11  7  2  0
 16 12  2  0
M  END
>  <energy_score>  (3911) 
-21.078382

>  <alias>  (3911) 
BSXSPTNRZGFCAT-UHFFFAOYSA-N-P35-P35-P86-601528

>  <HIPPO Pose ID>  (3911) 
80915

>  <smiles>  (3911) 
CC(S)C(=O)Nc1[nH]cnc1-c1nn[nH]n1

>  <inchikey>  (3911) 
BSXSPTNRZGFCAT-UHFFFAOYSA-N

>  <distance_score>  (3911) 
1.950896

>  <ref_mols>  (3911) 
Z0719a,Z1597a

>  <ref_pdb>  (3911) 
Z0719a

>  <HIPPO Compound ID>  (3911) 
151243

>  <name>  (3911) 
BSXSPTNRZGFCAT-UHFFFAOYSA-N-P35-P35-P86-601528

>  <inspiration_score>  (3911) 
None

$$$$
OSXNCBZFKCCCGZ-UHFFFAOYSA-N-P86-P35-P86-601528
     RDKit          3D

 16 17  0  0  0  0  0  0  0  0999 V2000
   -4.1071    8.7200  -21.6260 C   0  0  0  0  0  0  0  0  0  0  0  0
   -4.0583    7.4145  -21.9436 C   0  0  0  0  0  0  0  0  0  0  0  0
   -4.8662    6.8621  -23.0825 C   0  0  0  0  0  0  0  0  0  0  0  0
   -3.1567    6.4560  -21.2033 C   0  0  0  0  0  0  0  0  0  0  0  0
   -3.6008    6.2904  -19.7510 C   0  0  0  0  0  0  0  0  0  0  0  0
   -2.9903    6.7162  -18.8484 O   0  0  0  0  0  0  0  0  0  0  0  0
   -4.9458    5.5085  -19.7795 N   0  0  0  0  0  0  0  0  0  0  0  0
   -5.8009    5.1966  -18.7797 C   0  0  0  0  0  0  0  0  0  0  0  0
   -6.9673    4.4860  -18.9079 C   0  0  0  0  0  0  0  0  0  0  0  0
   -7.5079    4.4695  -17.6603 N   0  0  0  0  0  0  0  0  0  0  0  0
   -8.7061    3.9340  -17.3297 N   0  0  0  0  0  0  0  0  0  0  0  0
   -8.9546    4.0669  -16.0697 C   0  0  0  0  0  0  0  0  0  0  0  0
   -8.0828    4.6805  -15.0451 C   0  0  0  0  0  0  0  0  0  0  0  0
   -6.9252    5.1995  -15.4605 C   0  0  0  0  0  0  0  0  0  0  0  0
   -6.6114    5.1266  -16.8307 C   0  0  0  0  0  0  0  0  0  0  0  0
   -5.5820    5.5937  -17.4974 N   0  0  0  0  0  0  0  0  0  0  0  0
  1  2  2  0
  2  3  1  0
  2  4  1  0
  4  5  1  0
  5  6  2  0
  5  7  1  0
  7  8  1  0
  8  9  2  0
  9 10  1  0
 10 11  1  0
 11 12  2  0
 12 13  1  0
 13 14  2  0
 14 15  1  0
 15 16  2  0
 16  8  1  0
 15 10  1  0
M  END
>  <energy_score>  (3912) 
-33.646832

>  <alias>  (3912) 
OSXNCBZFKCCCGZ-UHFFFAOYSA-N-P86-P35-P86-601528

>  <HIPPO Pose ID>  (3912) 
80922

>  <smiles>  (3912) 
C=C(C)CC(=O)Nc1cn2ncccc2n1

>  <inchikey>  (3912) 
OSXNCBZFKCCCGZ-UHFFFAOYSA-N

>  <distance_score>  (3912) 
1.980296

>  <ref_mols>  (3912) 
Z0719a,Z1597a

>  <ref_pdb>  (3912) 
Z0719a

>  <HIPPO Compound ID>  (3912) 
151246

>  <name>  (3912) 
OSXNCBZFKCCCGZ-UHFFFAOYSA-N-P86-P35-P86-601528

>  <inspiration_score>  (3912) 
None

$$$$
NMBRGKYHKRLECK-UHFFFAOYSA-N-P86-P35-P86-601528
     RDKit          3D

 16 17  0  0  0  0  0  0  0  0999 V2000
   -3.2515    7.5674  -23.2963 C   0  0  0  0  0  0  0  0  0  0  0  0
   -3.9786    7.0947  -22.0424 C   0  0  0  0  0  0  0  0  0  0  0  0
   -3.0302    6.8581  -20.8738 C   0  0  2  0  0  0  0  0  0  0  0  0
   -2.0747    5.1733  -21.0407 Br  0  0  0  0  0  0  0  0  0  0  0  0
   -3.7296    6.8366  -19.5177 C   0  0  0  0  0  0  0  0  0  0  0  0
   -3.3845    7.5318  -18.6408 O   0  0  0  0  0  0  0  0  0  0  0  0
   -4.9160    5.8307  -19.6011 N   0  0  0  0  0  0  0  0  0  0  0  0
   -5.7983    5.4346  -18.6571 C   0  0  0  0  0  0  0  0  0  0  0  0
   -6.8537    4.5785  -18.8437 C   0  0  0  0  0  0  0  0  0  0  0  0
   -7.4791    4.5286  -17.6363 N   0  0  0  0  0  0  0  0  0  0  0  0
   -8.6536    3.9077  -17.3783 N   0  0  0  0  0  0  0  0  0  0  0  0
   -8.9889    4.0227  -16.1367 C   0  0  0  0  0  0  0  0  0  0  0  0
   -8.2161    4.6736  -15.0575 C   0  0  0  0  0  0  0  0  0  0  0  0
   -7.0844    5.2896  -15.4051 C   0  0  0  0  0  0  0  0  0  0  0  0
   -6.7027    5.2717  -16.7593 C   0  0  0  0  0  0  0  0  0  0  0  0
   -5.7159    5.8783  -17.3754 N   0  0  0  0  0  0  0  0  0  0  0  0
  1  2  1  0
  2  3  1  0
  3  4  1  6
  3  5  1  0
  5  6  2  0
  5  7  1  0
  7  8  1  0
  8  9  2  0
  9 10  1  0
 10 11  1  0
 11 12  2  0
 12 13  1  0
 13 14  2  0
 14 15  1  0
 15 16  2  0
 16  8  1  0
 15 10  1  0
M  END
>  <energy_score>  (3913) 
-35.181364

>  <alias>  (3913) 
NMBRGKYHKRLECK-UHFFFAOYSA-N-P86-P35-P86-601528

>  <HIPPO Pose ID>  (3913) 
80924

>  <smiles>  (3913) 
CCC(Br)C(=O)Nc1cn2ncccc2n1

>  <inchikey>  (3913) 
NMBRGKYHKRLECK-UHFFFAOYSA-N

>  <distance_score>  (3913) 
1.774865

>  <ref_mols>  (3913) 
Z0719a,Z1597a

>  <ref_pdb>  (3913) 
Z0719a

>  <HIPPO Compound ID>  (3913) 
151247

>  <name>  (3913) 
NMBRGKYHKRLECK-UHFFFAOYSA-N-P86-P35-P86-601528

>  <inspiration_score>  (3913) 
None

$$$$
ACOHVOAIOCUMCC-UHFFFAOYSA-N-P35-P35-P86-601528
     RDKit          3D

 16 17  0  0  0  0  0  0  0  0999 V2000
   -5.3540    7.8041  -22.7044 C   0  0  0  0  0  0  0  0  0  0  0  0
   -4.6510    8.1278  -21.6060 C   0  0  0  0  0  0  0  0  0  0  0  0
   -4.9462    9.3862  -20.8347 C   0  0  0  0  0  0  0  0  0  0  0  0
   -3.5050    7.2957  -21.0992 C   0  0  0  0  0  0  0  0  0  0  0  0
   -3.7347    6.7793  -19.6784 C   0  0  0  0  0  0  0  0  0  0  0  0
   -3.0273    7.0688  -18.7926 O   0  0  0  0  0  0  0  0  0  0  0  0
   -5.0423    5.9378  -19.6902 N   0  0  0  0  0  0  0  0  0  0  0  0
   -5.7489    5.3979  -18.6700 C   0  0  0  0  0  0  0  0  0  0  0  0
   -6.9496    4.7474  -18.7951 C   0  0  0  0  0  0  0  0  0  0  0  0
   -7.4071    4.6344  -17.5170 N   0  0  0  0  0  0  0  0  0  0  0  0
   -8.6543    4.2726  -17.0525 C   0  0  0  0  0  0  0  0  0  0  0  0
   -8.8620    4.2908  -15.7344 C   0  0  0  0  0  0  0  0  0  0  0  0
   -7.6870    4.6223  -14.8931 C   0  0  0  0  0  0  0  0  0  0  0  0
   -6.5194    4.9924  -15.3109 N   0  0  0  0  0  0  0  0  0  0  0  0
   -6.3805    5.0516  -16.6678 C   0  0  0  0  0  0  0  0  0  0  0  0
   -5.3790    5.5382  -17.3700 N   0  0  0  0  0  0  0  0  0  0  0  0
  1  2  2  0
  2  3  1  0
  2  4  1  0
  4  5  1  0
  5  6  2  0
  5  7  1  0
  7  8  1  0
  8  9  2  0
  9 10  1  0
 10 11  1  0
 11 12  2  0
 12 13  1  0
 13 14  2  0
 14 15  1  0
 15 16  2  0
 16  8  1  0
 15 10  1  0
M  END
>  <energy_score>  (3914) 
-37.868599

>  <alias>  (3914) 
ACOHVOAIOCUMCC-UHFFFAOYSA-N-P35-P35-P86-601528

>  <HIPPO Pose ID>  (3914) 
80929

>  <smiles>  (3914) 
C=C(C)CC(=O)Nc1cn2cccnc2n1

>  <inchikey>  (3914) 
ACOHVOAIOCUMCC-UHFFFAOYSA-N

>  <distance_score>  (3914) 
1.727419

>  <ref_mols>  (3914) 
Z0719a,Z1597a

>  <ref_pdb>  (3914) 
Z0719a

>  <HIPPO Compound ID>  (3914) 
151250

>  <name>  (3914) 
ACOHVOAIOCUMCC-UHFFFAOYSA-N-P35-P35-P86-601528

>  <inspiration_score>  (3914) 
None

$$$$
BCSDNCUHZOLLHE-UHFFFAOYSA-N-P86-P35-P86-601528
     RDKit          3D

 16 17  0  0  0  0  0  0  0  0999 V2000
   -4.2013    8.5444  -21.5064 C   0  0  0  0  0  0  0  0  0  0  0  0
   -4.1288    7.0813  -21.9309 C   0  0  0  0  0  0  0  0  0  0  0  0
   -3.1517    6.2290  -21.1218 C   0  0  1  0  0  0  0  0  0  0  0  0
   -1.3176    6.6433  -21.6784 Br  0  0  0  0  0  0  0  0  0  0  0  0
   -3.2842    6.3361  -19.5948 C   0  0  0  0  0  0  0  0  0  0  0  0
   -2.4113    6.6299  -18.8736 O   0  0  0  0  0  0  0  0  0  0  0  0
   -4.7592    5.9273  -19.2837 N   0  0  0  0  0  0  0  0  0  0  0  0
   -5.3812    5.7214  -18.1022 C   0  0  0  0  0  0  0  0  0  0  0  0
   -6.7051    5.3951  -17.9739 C   0  0  0  0  0  0  0  0  0  0  0  0
   -6.8646    5.1169  -16.6509 N   0  0  0  0  0  0  0  0  0  0  0  0
   -8.0393    4.6761  -15.9252 C   0  0  0  0  0  0  0  0  0  0  0  0
   -9.0759    3.8703  -16.6330 C   0  0  0  0  0  0  0  0  0  0  0  0
   -8.9728    3.1754  -17.9707 C   0  0  0  0  0  0  0  0  0  0  0  0
   -9.8934    4.3405  -17.8129 C   0  0  0  0  0  0  0  0  0  0  0  0
   -5.6753    5.3998  -16.0328 C   0  0  0  0  0  0  0  0  0  0  0  0
   -4.7675    5.7832  -16.8970 N   0  0  0  0  0  0  0  0  0  0  0  0
  1  2  1  0
  2  3  1  0
  3  4  1  1
  3  5  1  0
  5  6  2  0
  5  7  1  0
  7  8  1  0
  8  9  2  0
  9 10  1  0
 10 11  1  0
 11 12  1  0
 12 13  1  0
 13 14  1  0
 10 15  1  0
 15 16  2  0
 16  8  1  0
 14 12  1  0
M  END
>  <energy_score>  (3915) 
-4.092901

>  <alias>  (3915) 
BCSDNCUHZOLLHE-UHFFFAOYSA-N-P86-P35-P86-601528

>  <HIPPO Pose ID>  (3915) 
80934

>  <smiles>  (3915) 
CCC(Br)C(=O)Nc1cn(CC2CC2)cn1

>  <inchikey>  (3915) 
BCSDNCUHZOLLHE-UHFFFAOYSA-N

>  <distance_score>  (3915) 
1.846168

>  <ref_mols>  (3915) 
Z0719a,Z1597a

>  <ref_pdb>  (3915) 
Z0719a

>  <HIPPO Compound ID>  (3915) 
151252

>  <name>  (3915) 
BCSDNCUHZOLLHE-UHFFFAOYSA-N-P86-P35-P86-601528

>  <inspiration_score>  (3915) 
None

$$$$
WTNOHYDPWCRZHG-UHFFFAOYSA-N-P35-P35-P86-601528
     RDKit          3D

 16 16  0  0  0  0  0  0  0  0999 V2000
   -3.9862    7.1127  -20.6330 C   0  0  0  0  0  0  0  0  0  0  0  0
   -3.9894    6.6755  -19.1766 C   0  0  0  0  0  0  0  0  0  0  0  0
   -3.7979    5.1709  -18.9466 C   0  0  1  0  0  0  0  0  0  0  0  0
   -1.9333    4.6963  -19.2977 Br  0  0  0  0  0  0  0  0  0  0  0  0
   -4.1936    4.7090  -17.5120 C   0  0  0  0  0  0  0  0  0  0  0  0
   -3.4518    4.3873  -16.6691 O   0  0  0  0  0  0  0  0  0  0  0  0
   -5.7490    4.8308  -17.4966 N   0  0  0  0  0  0  0  0  0  0  0  0
   -6.6635    4.5048  -16.5155 C   0  0  0  0  0  0  0  0  0  0  0  0
   -6.7513    4.0028  -15.2123 C   0  0  0  0  0  0  0  0  0  0  0  0
   -5.8102    3.3912  -14.2917 N   0  0  0  0  0  0  0  0  0  0  0  0
   -6.2001    2.3689  -13.6979 O   0  0  0  0  0  0  0  0  0  0  0  0
   -4.7029    3.9160  -14.1368 O   0  0  0  0  0  0  0  0  0  0  0  0
   -8.0665    4.0369  -14.7646 N   0  0  0  0  0  0  0  0  0  0  0  0
   -8.7822    4.3841  -15.7920 C   0  0  0  0  0  0  0  0  0  0  0  0
   -7.9988    4.6417  -16.8627 N   0  0  0  0  0  0  0  0  0  0  0  0
   -8.5373    4.9022  -18.1677 C   0  0  0  0  0  0  0  0  0  0  0  0
  1  2  1  0
  2  3  1  0
  3  4  1  1
  3  5  1  0
  5  6  2  0
  5  7  1  0
  7  8  1  0
  8  9  2  0
  9 10  1  0
 10 11  2  0
 10 12  1  0
  9 13  1  0
 13 14  2  0
 14 15  1  0
 15 16  1  0
 15  8  1  0
M  CHG  2  10   1  12  -1
M  END
>  <energy_score>  (3916) 
-9.210765

>  <alias>  (3916) 
WTNOHYDPWCRZHG-UHFFFAOYSA-N-P35-P35-P86-601528

>  <HIPPO Pose ID>  (3916) 
80935

>  <smiles>  (3916) 
CCC(Br)C(=O)Nc1c([N+](=O)[O-])ncn1C

>  <inchikey>  (3916) 
WTNOHYDPWCRZHG-UHFFFAOYSA-N

>  <distance_score>  (3916) 
1.964246

>  <ref_mols>  (3916) 
Z0719a,Z1597a

>  <ref_pdb>  (3916) 
Z0719a

>  <HIPPO Compound ID>  (3916) 
151253

>  <name>  (3916) 
WTNOHYDPWCRZHG-UHFFFAOYSA-N-P35-P35-P86-601528

>  <inspiration_score>  (3916) 
None

$$$$
IZIDOTHLDLJRPK-UHFFFAOYSA-N-P86-P35-P86-601528
     RDKit          3D

 16 16  0  0  0  0  0  0  0  0999 V2000
   -7.9761    5.1044  -13.8652 C   0  0  0  0  0  0  0  0  0  0  0  0
   -6.5930    5.2554  -14.2035 O   0  0  0  0  0  0  0  0  0  0  0  0
   -6.1043    5.0333  -15.4684 C   0  0  0  0  0  0  0  0  0  0  0  0
   -4.8856    4.9614  -15.6204 O   0  0  0  0  0  0  0  0  0  0  0  0
   -7.0470    4.8754  -16.5930 C   0  0  0  0  0  0  0  0  0  0  0  0
   -8.3508    4.3902  -16.4535 N   0  0  0  0  0  0  0  0  0  0  0  0
   -8.8253    4.2387  -17.6626 C   0  0  0  0  0  0  0  0  0  0  0  0
   -7.9020    4.5959  -18.5965 N   0  0  0  0  0  0  0  0  0  0  0  0
   -6.7775    5.0348  -17.9484 C   0  0  0  0  0  0  0  0  0  0  0  0
   -5.7141    5.4741  -18.6846 N   0  0  0  0  0  0  0  0  0  0  0  0
   -4.5602    6.4473  -18.3102 C   0  0  0  0  0  0  0  0  0  0  0  0
   -4.3869    7.0799  -17.3427 O   0  0  0  0  0  0  0  0  0  0  0  0
   -3.5337    6.3857  -19.4366 C   0  0  0  0  0  0  0  0  0  0  0  0
   -4.0706    6.7735  -20.8012 C   0  0  2  0  0  0  0  0  0  0  0  0
   -4.6544    8.1730  -20.8516 C   0  0  0  0  0  0  0  0  0  0  0  0
   -5.0354    5.8818  -21.1614 F   0  0  0  0  0  0  0  0  0  0  0  0
  1  2  1  0
  2  3  1  0
  3  4  2  0
  3  5  1  0
  5  6  1  0
  6  7  2  0
  7  8  1  0
  8  9  1  0
  9 10  1  0
 10 11  1  0
 11 12  2  0
 11 13  1  0
 13 14  1  0
 14 15  1  1
 14 16  1  0
  9  5  2  0
M  END
>  <energy_score>  (3917) 
-15.10171

>  <alias>  (3917) 
IZIDOTHLDLJRPK-UHFFFAOYSA-N-P86-P35-P86-601528

>  <HIPPO Pose ID>  (3917) 
80938

>  <smiles>  (3917) 
COC(=O)c1nc[nH]c1NC(=O)CC(C)F

>  <inchikey>  (3917) 
IZIDOTHLDLJRPK-UHFFFAOYSA-N

>  <distance_score>  (3917) 
1.797191

>  <ref_mols>  (3917) 
Z0719a,Z1597a

>  <ref_pdb>  (3917) 
Z0719a

>  <HIPPO Compound ID>  (3917) 
151254

>  <name>  (3917) 
IZIDOTHLDLJRPK-UHFFFAOYSA-N-P86-P35-P86-601528

>  <inspiration_score>  (3917) 
None

$$$$
OILHTPVPQBAOTQ-UHFFFAOYSA-N-P35-P35-P86-601528
     RDKit          3D

 16 16  0  0  0  0  0  0  0  0999 V2000
   -5.0659    3.2469  -13.8318 C   0  0  0  0  0  0  0  0  0  0  0  0
   -6.5672    3.0322  -13.7223 C   0  0  0  0  0  0  0  0  0  0  0  0
   -6.9399    2.8413  -12.2474 C   0  0  0  0  0  0  0  0  0  0  0  0
   -7.3934    4.2021  -14.3147 C   0  0  0  0  0  0  0  0  0  0  0  0
   -7.4836    4.3272  -15.7574 N   0  0  0  0  0  0  0  0  0  0  0  0
   -8.6323    4.2563  -16.4953 C   0  0  0  0  0  0  0  0  0  0  0  0
   -8.4357    4.6604  -17.7314 N   0  0  0  0  0  0  0  0  0  0  0  0
   -7.1310    5.0313  -17.7857 C   0  0  0  0  0  0  0  0  0  0  0  0
   -6.5891    5.5880  -18.8932 N   0  0  0  0  0  0  0  0  0  0  0  0
   -5.1465    6.1010  -19.1625 C   0  0  0  0  0  0  0  0  0  0  0  0
   -4.1854    6.0504  -18.4941 O   0  0  0  0  0  0  0  0  0  0  0  0
   -5.1120    6.7818  -20.5155 C   0  0  0  0  0  0  0  0  0  0  0  0
   -4.8438    8.2548  -20.3400 C   0  0  1  0  0  0  0  0  0  0  0  0
   -4.4947    8.9244  -21.6583 C   0  0  0  0  0  0  0  0  0  0  0  0
   -5.9812    8.8554  -19.8717 F   0  0  0  0  0  0  0  0  0  0  0  0
   -6.5152    4.8295  -16.5806 C   0  0  0  0  0  0  0  0  0  0  0  0
  1  2  1  0
  2  3  1  0
  2  4  1  0
  4  5  1  0
  5  6  1  0
  6  7  2  0
  7  8  1  0
  8  9  1  0
  9 10  1  0
 10 11  2  0
 10 12  1  0
 12 13  1  0
 13 14  1  6
 13 15  1  0
  8 16  2  0
 16  5  1  0
M  END
>  <energy_score>  (3918) 
-20.724578

>  <alias>  (3918) 
OILHTPVPQBAOTQ-UHFFFAOYSA-N-P35-P35-P86-601528

>  <HIPPO Pose ID>  (3918) 
80939

>  <smiles>  (3918) 
CC(C)Cn1cnc(NC(=O)CC(C)F)c1

>  <inchikey>  (3918) 
OILHTPVPQBAOTQ-UHFFFAOYSA-N

>  <distance_score>  (3918) 
1.619483

>  <ref_mols>  (3918) 
Z0719a,Z1597a

>  <ref_pdb>  (3918) 
Z0719a

>  <HIPPO Compound ID>  (3918) 
151255

>  <name>  (3918) 
OILHTPVPQBAOTQ-UHFFFAOYSA-N-P35-P35-P86-601528

>  <inspiration_score>  (3918) 
None

$$$$
DCTCMXIBRTXMNJ-UHFFFAOYSA-M-P35-P35-P86-601528
     RDKit          3D

 16 16  0  0  0  0  0  0  0  0999 V2000
   -2.9425    7.5618  -19.7675 C   0  0  0  0  0  0  0  0  0  0  0  0
   -3.6224    6.2383  -20.0835 C   0  0  1  0  0  0  0  0  0  0  0  0
   -2.7477    5.5223  -20.8701 F   0  0  0  0  0  0  0  0  0  0  0  0
   -3.9193    5.4108  -18.8319 C   0  0  0  0  0  0  0  0  0  0  0  0
   -5.1507    5.9295  -18.1068 C   0  0  0  0  0  0  0  0  0  0  0  0
   -5.7614    6.8577  -18.4788 O   0  0  0  0  0  0  0  0  0  0  0  0
   -5.4130    4.9590  -16.9138 N   0  0  0  0  0  0  0  0  0  0  0  0
   -6.4580    4.8832  -16.0561 C   0  0  0  0  0  0  0  0  0  0  0  0
   -7.5998    5.6012  -16.2914 N   0  0  0  0  0  0  0  0  0  0  0  0
   -8.4391    5.2214  -15.3568 C   0  0  0  0  0  0  0  0  0  0  0  0
   -7.8443    4.3760  -14.4722 N   0  0  0  0  0  0  0  0  0  0  0  0
   -8.3205    4.0507  -13.1515 C   0  0  0  0  0  0  0  0  0  0  0  0
   -6.5850    4.1064  -14.9308 C   0  0  0  0  0  0  0  0  0  0  0  0
   -5.5791    3.1491  -14.2402 C   0  0  0  0  0  0  0  0  0  0  0  0
   -6.0720    2.2688  -13.4701 O   0  0  0  0  0  0  0  0  0  0  0  0
   -4.3501    3.3018  -14.5205 O   0  0  0  0  0  0  0  0  0  0  0  0
  2  1  1  1
  2  3  1  0
  2  4  1  0
  4  5  1  0
  5  6  2  0
  5  7  1  0
  7  8  1  0
  8  9  1  0
  9 10  2  0
 10 11  1  0
 11 12  1  0
 11 13  1  0
 13 14  1  0
 14 15  2  0
 14 16  1  0
 13  8  2  0
M  CHG  1  16  -1
M  END
>  <energy_score>  (3919) 
-16.953706

>  <alias>  (3919) 
DCTCMXIBRTXMNJ-UHFFFAOYSA-M-P35-P35-P86-601528

>  <HIPPO Pose ID>  (3919) 
80953

>  <smiles>  (3919) 
CC(F)CC(=O)Nc1ncn(C)c1C(=O)[O-]

>  <inchikey>  (3919) 
DCTCMXIBRTXMNJ-UHFFFAOYSA-M

>  <distance_score>  (3919) 
1.890879

>  <ref_mols>  (3919) 
Z0719a,Z1597a

>  <ref_pdb>  (3919) 
Z0719a

>  <HIPPO Compound ID>  (3919) 
151262

>  <name>  (3919) 
DCTCMXIBRTXMNJ-UHFFFAOYSA-M-P35-P35-P86-601528

>  <inspiration_score>  (3919) 
None

$$$$
IAYRVVVYXAJTBF-UHFFFAOYSA-N-P86-P35-P86-601528
     RDKit          3D

 16 16  0  0  0  0  0  0  0  0999 V2000
   -6.0562    4.6664  -13.8369 C   0  0  0  0  0  0  0  0  0  0  0  0
   -5.9472    5.3465  -15.1975 C   0  0  0  0  0  0  0  0  0  0  0  0
   -7.0362    5.1378  -16.1149 N   0  0  0  0  0  0  0  0  0  0  0  0
   -8.3484    4.9375  -15.7506 C   0  0  0  0  0  0  0  0  0  0  0  0
   -8.9308    5.4245  -14.4786 C   0  0  0  0  0  0  0  0  0  0  0  0
   -9.0033    4.3382  -16.7196 N   0  0  0  0  0  0  0  0  0  0  0  0
   -8.1554    4.3578  -17.7921 C   0  0  0  0  0  0  0  0  0  0  0  0
   -8.6231    3.8447  -19.0777 C   0  0  0  0  0  0  0  0  0  0  0  0
   -6.9609    4.9716  -17.4766 C   0  0  0  0  0  0  0  0  0  0  0  0
   -5.9600    5.3231  -18.3450 N   0  0  0  0  0  0  0  0  0  0  0  0
   -4.6413    6.1148  -18.1009 C   0  0  0  0  0  0  0  0  0  0  0  0
   -4.2470    6.6528  -17.1393 O   0  0  0  0  0  0  0  0  0  0  0  0
   -3.8278    6.0613  -19.3898 C   0  0  0  0  0  0  0  0  0  0  0  0
   -4.4856    6.7940  -20.5492 C   0  0  2  0  0  0  0  0  0  0  0  0
   -3.5527    6.9106  -21.7413 C   0  0  0  0  0  0  0  0  0  0  0  0
   -4.8080    8.0595  -20.1558 F   0  0  0  0  0  0  0  0  0  0  0  0
  1  2  1  0
  2  3  1  0
  3  4  1  0
  4  5  1  0
  4  6  2  0
  6  7  1  0
  7  8  1  0
  7  9  2  0
  9 10  1  0
 10 11  1  0
 11 12  2  0
 11 13  1  0
 13 14  1  0
 14 15  1  6
 14 16  1  0
  9  3  1  0
M  END
>  <energy_score>  (3920) 
-13.337708

>  <alias>  (3920) 
IAYRVVVYXAJTBF-UHFFFAOYSA-N-P86-P35-P86-601528

>  <HIPPO Pose ID>  (3920) 
80956

>  <smiles>  (3920) 
CCn1c(C)nc(C)c1NC(=O)CC(C)F

>  <inchikey>  (3920) 
IAYRVVVYXAJTBF-UHFFFAOYSA-N

>  <distance_score>  (3920) 
1.375589

>  <ref_mols>  (3920) 
Z0719a,Z1597a

>  <ref_pdb>  (3920) 
Z0719a

>  <HIPPO Compound ID>  (3920) 
151263

>  <name>  (3920) 
IAYRVVVYXAJTBF-UHFFFAOYSA-N-P86-P35-P86-601528

>  <inspiration_score>  (3920) 
None

$$$$
OLQRHDAERIWYHW-UHFFFAOYSA-N-P35-P35-P86-601528
     RDKit          3D

 16 16  0  0  0  0  0  0  0  0999 V2000
   -4.5052    8.1914  -21.6983 C   0  0  0  0  0  0  0  0  0  0  0  0
   -4.6977    7.9860  -20.2008 C   0  0  0  0  0  0  0  0  0  0  0  0
   -4.9285    6.5355  -19.8280 C   0  0  1  0  0  0  0  0  0  0  0  0
   -3.2000    5.5757  -19.8495 Br  0  0  0  0  0  0  0  0  0  0  0  0
   -5.4616    6.3452  -18.4012 C   0  0  0  0  0  0  0  0  0  0  0  0
   -4.8663    6.6983  -17.4547 O   0  0  0  0  0  0  0  0  0  0  0  0
   -6.8004    5.5459  -18.5153 N   0  0  0  0  0  0  0  0  0  0  0  0
   -7.5755    4.9745  -17.5490 C   0  0  0  0  0  0  0  0  0  0  0  0
   -8.6705    4.1535  -17.6960 C   0  0  0  0  0  0  0  0  0  0  0  0
   -8.9377    3.4988  -16.5170 N   0  0  0  0  0  0  0  0  0  0  0  0
   -8.0030    3.8932  -15.6668 C   0  0  0  0  0  0  0  0  0  0  0  0
   -7.6192    3.3150  -14.3265 C   0  0  0  0  0  0  0  0  0  0  0  0
   -7.3688    4.9950  -16.1964 N   0  0  0  0  0  0  0  0  0  0  0  0
   -6.7602    6.0212  -15.3854 C   0  0  0  0  0  0  0  0  0  0  0  0
   -7.5325    6.2597  -14.1557 C   0  0  0  0  0  0  0  0  0  0  0  0
   -8.1676    6.3806  -13.1906 N   0  0  0  0  0  0  0  0  0  0  0  0
  1  2  1  0
  2  3  1  0
  3  4  1  1
  3  5  1  0
  5  6  2  0
  5  7  1  0
  7  8  1  0
  8  9  2  0
  9 10  1  0
 10 11  2  0
 11 12  1  0
 11 13  1  0
 13 14  1  0
 14 15  1  0
 15 16  3  0
 13  8  1  0
M  END
>  <energy_score>  (3921) 
-10.583148

>  <alias>  (3921) 
OLQRHDAERIWYHW-UHFFFAOYSA-N-P35-P35-P86-601528

>  <HIPPO Pose ID>  (3921) 
80965

>  <smiles>  (3921) 
CCC(Br)C(=O)Nc1cnc(C)n1CC#N

>  <inchikey>  (3921) 
OLQRHDAERIWYHW-UHFFFAOYSA-N

>  <distance_score>  (3921) 
1.821728

>  <ref_mols>  (3921) 
Z0719a,Z1597a

>  <ref_pdb>  (3921) 
Z0719a

>  <HIPPO Compound ID>  (3921) 
151268

>  <name>  (3921) 
OLQRHDAERIWYHW-UHFFFAOYSA-N-P35-P35-P86-601528

>  <inspiration_score>  (3921) 
None

$$$$
KDEUWMRJGUDAFC-UHFFFAOYSA-N-P86-P35-P86-601528
     RDKit          3D

 16 16  0  0  0  0  0  0  0  0999 V2000
   -4.0829    7.0418  -21.8766 C   0  0  0  0  0  0  0  0  0  0  0  0
   -4.5935    7.0297  -20.4459 C   0  0  0  0  0  0  0  0  0  0  0  0
   -3.9870    5.8981  -19.6227 C   0  0  1  0  0  0  0  0  0  0  0  0
   -2.6390    6.1191  -19.5494 F   0  0  0  0  0  0  0  0  0  0  0  0
   -4.6206    5.8142  -18.2143 C   0  0  0  0  0  0  0  0  0  0  0  0
   -4.0570    6.1316  -17.2375 O   0  0  0  0  0  0  0  0  0  0  0  0
   -6.0395    5.1857  -18.4059 N   0  0  0  0  0  0  0  0  0  0  0  0
   -7.0305    4.9250  -17.4907 C   0  0  0  0  0  0  0  0  0  0  0  0
   -8.2243    4.2962  -17.7869 C   0  0  0  0  0  0  0  0  0  0  0  0
   -8.7117    3.8220  -19.0804 C   0  0  0  0  0  0  0  0  0  0  0  0
   -8.9684    4.0527  -16.6679 N   0  0  0  0  0  0  0  0  0  0  0  0
   -8.2669    4.5409  -15.6737 C   0  0  0  0  0  0  0  0  0  0  0  0
   -8.6293    4.4757  -14.2350 C   0  0  0  0  0  0  0  0  0  0  0  0
   -7.1104    5.1418  -16.1394 N   0  0  0  0  0  0  0  0  0  0  0  0
   -6.2938    5.9567  -15.2852 C   0  0  0  0  0  0  0  0  0  0  0  0
   -5.3873    5.1500  -14.3864 C   0  0  0  0  0  0  0  0  0  0  0  0
  1  2  1  0
  2  3  1  0
  3  4  1  1
  3  5  1  0
  5  6  2  0
  5  7  1  0
  7  8  1  0
  8  9  2  0
  9 10  1  0
  9 11  1  0
 11 12  2  0
 12 13  1  0
 12 14  1  0
 14 15  1  0
 15 16  1  0
 14  8  1  0
M  END
>  <energy_score>  (3922) 
-15.952485

>  <alias>  (3922) 
KDEUWMRJGUDAFC-UHFFFAOYSA-N-P86-P35-P86-601528

>  <HIPPO Pose ID>  (3922) 
80990

>  <smiles>  (3922) 
CCC(F)C(=O)Nc1c(C)nc(C)n1CC

>  <inchikey>  (3922) 
KDEUWMRJGUDAFC-UHFFFAOYSA-N

>  <distance_score>  (3922) 
1.328107

>  <ref_mols>  (3922) 
Z0719a,Z1597a

>  <ref_pdb>  (3922) 
Z0719a

>  <HIPPO Compound ID>  (3922) 
151280

>  <name>  (3922) 
KDEUWMRJGUDAFC-UHFFFAOYSA-N-P86-P35-P86-601528

>  <inspiration_score>  (3922) 
None

$$$$
USUPZKSAXKGEEM-UHFFFAOYSA-N-P86-P35-P86-601528
     RDKit          3D

 16 16  0  0  0  0  0  0  0  0999 V2000
   -4.5265    6.8724  -22.7279 C   0  0  0  0  0  0  0  0  0  0  0  0
   -4.6934    6.8015  -21.2195 C   0  0  0  0  0  0  0  0  0  0  0  0
   -4.6502    5.3731  -20.6981 C   0  0  2  0  0  0  0  0  0  0  0  0
   -5.6205    4.6320  -21.3087 F   0  0  0  0  0  0  0  0  0  0  0  0
   -4.8248    5.3717  -19.1841 C   0  0  0  0  0  0  0  0  0  0  0  0
   -3.9413    5.5824  -18.4452 O   0  0  0  0  0  0  0  0  0  0  0  0
   -6.3165    5.0321  -18.9011 N   0  0  0  0  0  0  0  0  0  0  0  0
   -6.9583    4.8049  -17.7336 C   0  0  0  0  0  0  0  0  0  0  0  0
   -6.4254    4.9590  -16.4842 C   0  0  0  0  0  0  0  0  0  0  0  0
   -7.3547    4.4655  -15.6219 N   0  0  0  0  0  0  0  0  0  0  0  0
   -7.3469    4.4636  -14.1751 C   0  0  0  0  0  0  0  0  0  0  0  0
   -6.0791    4.3447  -13.2576 C   0  0  0  0  0  0  0  0  0  0  0  0
   -4.7893    4.9905  -13.7436 C   0  0  0  0  0  0  0  0  0  0  0  0
   -5.8154    2.9620  -12.6716 C   0  0  0  0  0  0  0  0  0  0  0  0
   -8.4572    4.1593  -16.3839 C   0  0  0  0  0  0  0  0  0  0  0  0
   -8.2339    4.3535  -17.6665 N   0  0  0  0  0  0  0  0  0  0  0  0
  1  2  1  0
  2  3  1  0
  3  4  1  6
  3  5  1  0
  5  6  2  0
  5  7  1  0
  7  8  1  0
  8  9  2  0
  9 10  1  0
 10 11  1  0
 11 12  1  0
 12 13  1  0
 12 14  1  0
 10 15  1  0
 15 16  2  0
 16  8  1  0
M  END
>  <energy_score>  (3923) 
-28.364511

>  <alias>  (3923) 
USUPZKSAXKGEEM-UHFFFAOYSA-N-P86-P35-P86-601528

>  <HIPPO Pose ID>  (3923) 
80998

>  <smiles>  (3923) 
CCC(F)C(=O)Nc1cn(CC(C)C)cn1

>  <inchikey>  (3923) 
USUPZKSAXKGEEM-UHFFFAOYSA-N

>  <distance_score>  (3923) 
1.595676

>  <ref_mols>  (3923) 
Z0719a,Z1597a

>  <ref_pdb>  (3923) 
Z0719a

>  <HIPPO Compound ID>  (3923) 
151284

>  <name>  (3923) 
USUPZKSAXKGEEM-UHFFFAOYSA-N-P86-P35-P86-601528

>  <inspiration_score>  (3923) 
None

$$$$
LXSBLJCQLWFTLW-UHFFFAOYSA-N-P35-P35-P86-601528
     RDKit          3D

 16 17  0  0  0  0  0  0  0  0999 V2000
   -3.7552    6.8351  -20.0208 O   0  0  0  0  0  0  0  0  0  0  0  0
   -4.8253    6.7684  -20.4862 C   0  0  0  0  0  0  0  0  0  0  0  0
   -5.2252    7.4908  -21.7569 C   0  0  0  0  0  0  0  0  0  0  0  0
   -3.9732    7.7952  -22.5544 C   0  0  0  0  0  0  0  0  0  0  0  0
   -4.5009    8.7714  -24.3952 I   0  0  0  0  0  0  0  0  0  0  0  0
   -6.1024    6.0583  -19.9706 N   0  0  0  0  0  0  0  0  0  0  0  0
   -6.3354    5.4118  -18.8162 C   0  0  0  0  0  0  0  0  0  0  0  0
   -7.5674    5.0075  -18.3643 C   0  0  0  0  0  0  0  0  0  0  0  0
   -7.3481    4.6934  -17.0599 N   0  0  0  0  0  0  0  0  0  0  0  0
   -8.3042    4.6034  -16.1050 N   0  0  0  0  0  0  0  0  0  0  0  0
   -7.7850    4.4936  -14.9261 C   0  0  0  0  0  0  0  0  0  0  0  0
   -8.8396    4.7025  -13.6035 Cl  0  0  0  0  0  0  0  0  0  0  0  0
   -6.3524    4.3085  -14.5987 C   0  0  0  0  0  0  0  0  0  0  0  0
   -5.4772    4.4649  -15.5880 C   0  0  0  0  0  0  0  0  0  0  0  0
   -5.9748    4.7550  -16.8656 C   0  0  0  0  0  0  0  0  0  0  0  0
   -5.3423    5.1822  -17.9260 N   0  0  0  0  0  0  0  0  0  0  0  0
  1  2  2  0
  2  3  1  0
  3  4  1  0
  4  5  1  0
  2  6  1  0
  6  7  1  0
  7  8  2  0
  8  9  1  0
  9 10  1  0
 10 11  2  0
 11 12  1  0
 11 13  1  0
 13 14  2  0
 14 15  1  0
 15 16  2  0
 16  7  1  0
 15  9  1  0
M  END
>  <energy_score>  (3924) 
-26.661254

>  <alias>  (3924) 
LXSBLJCQLWFTLW-UHFFFAOYSA-N-P35-P35-P86-601528

>  <HIPPO Pose ID>  (3924) 
81005

>  <smiles>  (3924) 
O=C(CCI)Nc1cn2nc(Cl)ccc2n1

>  <inchikey>  (3924) 
LXSBLJCQLWFTLW-UHFFFAOYSA-N

>  <distance_score>  (3924) 
1.96544

>  <ref_mols>  (3924) 
Z0719a,Z1597a

>  <ref_pdb>  (3924) 
Z0719a

>  <HIPPO Compound ID>  (3924) 
151288

>  <name>  (3924) 
LXSBLJCQLWFTLW-UHFFFAOYSA-N-P35-P35-P86-601528

>  <inspiration_score>  (3924) 
None

$$$$
QTAHXUNQRYZJMR-UHFFFAOYSA-N-P35-P35-P86-601528
     RDKit          3D

 16 16  0  0  0  0  0  0  0  0999 V2000
   -8.7468    4.1945  -18.7020 C   0  0  0  0  0  0  0  0  0  0  0  0
   -8.3678    4.6214  -17.3445 C   0  0  0  0  0  0  0  0  0  0  0  0
   -9.3548    4.9897  -16.4722 N   0  0  0  0  0  0  0  0  0  0  0  0
   -8.7352    5.5417  -15.4557 C   0  0  0  0  0  0  0  0  0  0  0  0
   -9.3217    6.3540  -14.3611 C   0  0  0  0  0  0  0  0  0  0  0  0
   -7.3871    5.2450  -15.5044 N   0  0  0  0  0  0  0  0  0  0  0  0
   -6.6878    4.9593  -14.2551 C   0  0  0  0  0  0  0  0  0  0  0  0
   -7.3098    3.7407  -13.5457 C   0  0  0  0  0  0  0  0  0  0  0  0
   -5.1867    4.7721  -14.3243 C   0  0  0  0  0  0  0  0  0  0  0  0
   -7.1245    4.9232  -16.8158 C   0  0  0  0  0  0  0  0  0  0  0  0
   -5.9570    4.9905  -17.5223 N   0  0  0  0  0  0  0  0  0  0  0  0
   -4.7357    5.9353  -17.3631 C   0  0  0  0  0  0  0  0  0  0  0  0
   -4.5078    6.7488  -16.5557 O   0  0  0  0  0  0  0  0  0  0  0  0
   -3.8054    5.6874  -18.5437 C   0  0  0  0  0  0  0  0  0  0  0  0
   -4.1488    6.6312  -19.6966 C   0  0  0  0  0  0  0  0  0  0  0  0
   -2.4634    6.8522  -21.0030 I   0  0  0  0  0  0  0  0  0  0  0  0
  1  2  1  0
  2  3  1  0
  3  4  2  0
  4  5  1  0
  4  6  1  0
  6  7  1  0
  7  8  1  0
  7  9  1  0
  6 10  1  0
 10 11  1  0
 11 12  1  0
 12 13  2  0
 12 14  1  0
 14 15  1  0
 15 16  1  0
 10  2  2  0
M  END
>  <energy_score>  (3925) 
-0.983733

>  <alias>  (3925) 
QTAHXUNQRYZJMR-UHFFFAOYSA-N-P35-P35-P86-601528

>  <HIPPO Pose ID>  (3925) 
81007

>  <smiles>  (3925) 
Cc1nc(C)n(C(C)C)c1NC(=O)CCI

>  <inchikey>  (3925) 
QTAHXUNQRYZJMR-UHFFFAOYSA-N

>  <distance_score>  (3925) 
1.606506

>  <ref_mols>  (3925) 
Z0719a,Z1597a

>  <ref_pdb>  (3925) 
Z0719a

>  <HIPPO Compound ID>  (3925) 
151289

>  <name>  (3925) 
QTAHXUNQRYZJMR-UHFFFAOYSA-N-P35-P35-P86-601528

>  <inspiration_score>  (3925) 
None

$$$$
QUZYDUZVEYSLEK-UHFFFAOYSA-N-P86-P35-P86-601528
     RDKit          3D

 16 17  0  0  0  0  0  0  0  0999 V2000
   -4.0056    8.0279  -23.4736 C   0  0  0  0  0  0  0  0  0  0  0  0
   -4.1276    7.7740  -21.9783 C   0  0  0  0  0  0  0  0  0  0  0  0
   -4.2575    6.2942  -21.6750 C   0  0  2  0  0  0  0  0  0  0  0  0
   -5.3826    5.8389  -22.3057 F   0  0  0  0  0  0  0  0  0  0  0  0
   -4.3108    6.1080  -20.1678 C   0  0  0  0  0  0  0  0  0  0  0  0
   -3.4350    6.4234  -19.4599 O   0  0  0  0  0  0  0  0  0  0  0  0
   -5.7226    5.5542  -19.8366 N   0  0  0  0  0  0  0  0  0  0  0  0
   -6.2736    5.2096  -18.6529 C   0  0  0  0  0  0  0  0  0  0  0  0
   -7.5199    4.6708  -18.4528 C   0  0  0  0  0  0  0  0  0  0  0  0
   -7.6443    4.6048  -17.0942 N   0  0  0  0  0  0  0  0  0  0  0  0
   -8.7244    4.2462  -16.3097 C   0  0  0  0  0  0  0  0  0  0  0  0
   -8.6036    4.3417  -14.9808 C   0  0  0  0  0  0  0  0  0  0  0  0
   -7.2811    4.7790  -14.4783 C   0  0  0  0  0  0  0  0  0  0  0  0
   -6.2691    5.1441  -15.1927 N   0  0  0  0  0  0  0  0  0  0  0  0
   -6.4505    5.0729  -16.5415 C   0  0  0  0  0  0  0  0  0  0  0  0
   -5.6207    5.4422  -17.4879 N   0  0  0  0  0  0  0  0  0  0  0  0
  1  2  1  0
  2  3  1  0
  3  4  1  6
  3  5  1  0
  5  6  2  0
  5  7  1  0
  7  8  1  0
  8  9  2  0
  9 10  1  0
 10 11  1  0
 11 12  2  0
 12 13  1  0
 13 14  2  0
 14 15  1  0
 15 16  2  0
 16  8  1  0
 15 10  1  0
M  END
>  <energy_score>  (3926) 
-18.772197

>  <alias>  (3926) 
QUZYDUZVEYSLEK-UHFFFAOYSA-N-P86-P35-P86-601528

>  <HIPPO Pose ID>  (3926) 
81016

>  <smiles>  (3926) 
CCC(F)C(=O)Nc1cn2cccnc2n1

>  <inchikey>  (3926) 
QUZYDUZVEYSLEK-UHFFFAOYSA-N

>  <distance_score>  (3926) 
1.504781

>  <ref_mols>  (3926) 
Z0719a,Z1597a

>  <ref_pdb>  (3926) 
Z0719a

>  <HIPPO Compound ID>  (3926) 
151293

>  <name>  (3926) 
QUZYDUZVEYSLEK-UHFFFAOYSA-N-P86-P35-P86-601528

>  <inspiration_score>  (3926) 
None

$$$$
PFLXOKOGCFEKDD-UHFFFAOYSA-N-P86-P35-P86-601528
     RDKit          3D

 16 18  0  0  0  0  0  0  0  0999 V2000
   -2.8733    6.5979  -18.6916 O   0  0  0  0  0  0  0  0  0  0  0  0
   -3.4918    6.2595  -19.6205 C   0  0  0  0  0  0  0  0  0  0  0  0
   -4.8601    5.5597  -19.7077 N   0  0  0  0  0  0  0  0  0  0  0  0
   -5.7440    5.2340  -18.7368 C   0  0  0  0  0  0  0  0  0  0  0  0
   -6.9164    4.5415  -18.9032 C   0  0  0  0  0  0  0  0  0  0  0  0
   -7.4799    4.4953  -17.6660 N   0  0  0  0  0  0  0  0  0  0  0  0
   -8.6872    3.9601  -17.3689 N   0  0  0  0  0  0  0  0  0  0  0  0
   -8.9582    4.0613  -16.1106 C   0  0  0  0  0  0  0  0  0  0  0  0
   -8.1019    4.6469  -15.0570 C   0  0  0  0  0  0  0  0  0  0  0  0
   -6.9331    5.1670  -15.4386 C   0  0  0  0  0  0  0  0  0  0  0  0
   -6.5921    5.1216  -16.8038 C   0  0  0  0  0  0  0  0  0  0  0  0
   -5.5415    5.5877  -17.4381 N   0  0  0  0  0  0  0  0  0  0  0  0
   -2.9545    6.4518  -21.0041 C   0  0  0  0  0  0  0  0  0  0  0  0
   -3.9233    6.5051  -22.0056 F   0  0  0  0  0  0  0  0  0  0  0  0
   -1.7268    7.2846  -21.2704 C   0  0  0  0  0  0  0  0  0  0  0  0
   -1.6595    5.7902  -21.4001 C   0  0  0  0  0  0  0  0  0  0  0  0
  1  2  2  0
  2  3  1  0
  3  4  1  0
  4  5  2  0
  5  6  1  0
  6  7  1  0
  7  8  2  0
  8  9  1  0
  9 10  2  0
 10 11  1  0
 11 12  2  0
  2 13  1  0
 13 14  1  0
 13 15  1  0
 15 16  1  0
 12  4  1  0
 16 13  1  0
 11  6  1  0
M  END
>  <energy_score>  (3927) 
-32.243948

>  <alias>  (3927) 
PFLXOKOGCFEKDD-UHFFFAOYSA-N-P86-P35-P86-601528

>  <HIPPO Pose ID>  (3927) 
81020

>  <smiles>  (3927) 
O=C(Nc1cn2ncccc2n1)C1(F)CC1

>  <inchikey>  (3927) 
PFLXOKOGCFEKDD-UHFFFAOYSA-N

>  <distance_score>  (3927) 
1.67934

>  <ref_mols>  (3927) 
Z0719a,Z1597a

>  <ref_pdb>  (3927) 
Z0719a

>  <HIPPO Compound ID>  (3927) 
151295

>  <name>  (3927) 
PFLXOKOGCFEKDD-UHFFFAOYSA-N-P86-P35-P86-601528

>  <inspiration_score>  (3927) 
None

$$$$
YXRKPQCXRJGEHH-UHFFFAOYSA-N-P35-P35-P86-601528
     RDKit          3D

 16 17  0  0  0  0  0  0  0  0999 V2000
   -7.4932    3.3111   -9.2936 C   0  0  0  0  0  0  0  0  0  0  0  0
   -7.6360    4.2470  -10.4356 C   0  0  0  0  0  0  0  0  0  0  0  0
   -8.0830    5.4840  -10.3295 N   0  0  0  0  0  0  0  0  0  0  0  0
   -8.1840    5.9364  -11.6129 C   0  0  0  0  0  0  0  0  0  0  0  0
   -8.6651    7.2479  -11.9077 C   0  0  0  0  0  0  0  0  0  0  0  0
   -9.0474    8.2926  -12.2464 N   0  0  0  0  0  0  0  0  0  0  0  0
   -7.7413    5.0040  -12.5305 C   0  0  0  0  0  0  0  0  0  0  0  0
   -7.7669    5.0807  -13.9022 N   0  0  0  0  0  0  0  0  0  0  0  0
   -6.9945    4.2766  -14.9629 C   0  0  0  0  0  0  0  0  0  0  0  0
   -6.2727    3.3716  -14.8456 O   0  0  0  0  0  0  0  0  0  0  0  0
   -7.3808    4.7616  -16.3332 C   0  0  1  0  0  0  0  0  0  0  0  0
   -8.7479    4.4356  -16.8598 C   0  0  0  0  0  0  0  0  0  0  0  0
   -6.6433    5.9546  -16.9087 C   0  0  0  0  0  0  0  0  0  0  0  0
   -6.3483    4.6248  -17.3311 O   0  0  0  0  0  0  0  0  0  0  0  0
   -7.3228    3.9408  -11.7526 N   0  0  0  0  0  0  0  0  0  0  0  0
   -6.7655    2.6853  -12.2122 C   0  0  0  0  0  0  0  0  0  0  0  0
  1  2  1  0
  2  3  2  0
  3  4  1  0
  4  5  1  0
  5  6  3  0
  4  7  2  0
  7  8  1  0
  8  9  1  0
  9 10  2  0
  9 11  1  0
 11 12  1  6
 11 13  1  0
 13 14  1  0
  7 15  1  0
 15 16  1  0
 15  2  1  0
 14 11  1  0
M  END
>  <energy_score>  (3928) 
-22.595653

>  <alias>  (3928) 
YXRKPQCXRJGEHH-UHFFFAOYSA-N-P35-P35-P86-601528

>  <HIPPO Pose ID>  (3928) 
81025

>  <smiles>  (3928) 
Cc1nc(C#N)c(NC(=O)C2(C)CO2)n1C

>  <inchikey>  (3928) 
YXRKPQCXRJGEHH-UHFFFAOYSA-N

>  <distance_score>  (3928) 
1.171519

>  <ref_mols>  (3928) 
Z0719a,Z1597a

>  <ref_pdb>  (3928) 
Z0719a

>  <HIPPO Compound ID>  (3928) 
151298

>  <name>  (3928) 
YXRKPQCXRJGEHH-UHFFFAOYSA-N-P35-P35-P86-601528

>  <inspiration_score>  (3928) 
None

$$$$
MMTSZAPRHWIJOW-UHFFFAOYSA-N-P86-P35-P86-601528
     RDKit          3D

 16 18  0  0  0  0  0  0  0  0999 V2000
   -3.3015    6.9519  -21.9868 C   0  0  0  0  0  0  0  0  0  0  0  0
   -2.7696    6.1618  -20.8358 C   0  0  2  0  0  0  0  0  0  0  0  0
   -3.5057    6.2316  -19.5433 C   0  0  0  0  0  0  0  0  0  0  0  0
   -3.1079    6.9117  -18.6853 O   0  0  0  0  0  0  0  0  0  0  0  0
   -4.7925    5.4007  -19.6398 N   0  0  0  0  0  0  0  0  0  0  0  0
   -5.7583    5.1679  -18.7236 C   0  0  0  0  0  0  0  0  0  0  0  0
   -6.9044    4.4469  -18.9388 C   0  0  0  0  0  0  0  0  0  0  0  0
   -7.5549    4.4570  -17.7461 N   0  0  0  0  0  0  0  0  0  0  0  0
   -8.7663    3.9061  -17.5086 N   0  0  0  0  0  0  0  0  0  0  0  0
   -9.1097    4.0369  -16.2726 C   0  0  0  0  0  0  0  0  0  0  0  0
   -8.3295    4.6618  -15.1814 C   0  0  0  0  0  0  0  0  0  0  0  0
   -7.1601    5.2102  -15.5131 C   0  0  0  0  0  0  0  0  0  0  0  0
   -6.7424    5.1436  -16.8558 C   0  0  0  0  0  0  0  0  0  0  0  0
   -5.6741    5.6292  -17.4459 N   0  0  0  0  0  0  0  0  0  0  0  0
   -1.3158    5.7332  -20.8163 C   0  0  0  0  0  0  0  0  0  0  0  0
   -2.3567    4.8334  -21.2098 O   0  0  0  0  0  0  0  0  0  0  0  0
  2  1  1  6
  2  3  1  0
  3  4  2  0
  3  5  1  0
  5  6  1  0
  6  7  2  0
  7  8  1  0
  8  9  1  0
  9 10  2  0
 10 11  1  0
 11 12  2  0
 12 13  1  0
 13 14  2  0
  2 15  1  0
 15 16  1  0
 16  2  1  0
 14  6  1  0
 13  8  1  0
M  END
>  <energy_score>  (3929) 
-38.495155

>  <alias>  (3929) 
MMTSZAPRHWIJOW-UHFFFAOYSA-N-P86-P35-P86-601528

>  <HIPPO Pose ID>  (3929) 
81028

>  <smiles>  (3929) 
CC1(C(=O)Nc2cn3ncccc3n2)CO1

>  <inchikey>  (3929) 
MMTSZAPRHWIJOW-UHFFFAOYSA-N

>  <distance_score>  (3929) 
1.657575

>  <ref_mols>  (3929) 
Z0719a,Z1597a

>  <ref_pdb>  (3929) 
Z0719a

>  <HIPPO Compound ID>  (3929) 
151299

>  <name>  (3929) 
MMTSZAPRHWIJOW-UHFFFAOYSA-N-P86-P35-P86-601528

>  <inspiration_score>  (3929) 
None

$$$$
DHWYCQXXLPIJKB-UHFFFAOYSA-N-P86-P35-P86-601528
     RDKit          3D

 16 17  0  0  0  0  0  0  0  0999 V2000
   -7.6767    5.7032   -9.2657 C   0  0  0  0  0  0  0  0  0  0  0  0
   -7.9799    4.8333  -10.4211 C   0  0  0  0  0  0  0  0  0  0  0  0
   -8.4889    3.6301  -10.3328 N   0  0  0  0  0  0  0  0  0  0  0  0
   -8.7089    3.2284  -11.6190 C   0  0  0  0  0  0  0  0  0  0  0  0
   -8.3245    4.1913  -12.5317 C   0  0  0  0  0  0  0  0  0  0  0  0
   -8.4273    4.1494  -13.9067 N   0  0  0  0  0  0  0  0  0  0  0  0
   -8.0162    5.1890  -14.9783 C   0  0  0  0  0  0  0  0  0  0  0  0
   -7.5978    6.2734  -14.8598 O   0  0  0  0  0  0  0  0  0  0  0  0
   -8.1062    4.6046  -16.3653 C   0  0  0  0  0  0  0  0  0  0  0  0
   -9.1443    3.7003  -16.5743 F   0  0  0  0  0  0  0  0  0  0  0  0
   -6.8406    4.2847  -17.1203 C   0  0  0  0  0  0  0  0  0  0  0  0
   -7.6647    5.4033  -17.5859 C   0  0  0  0  0  0  0  0  0  0  0  0
   -7.7401    5.1623  -11.7422 N   0  0  0  0  0  0  0  0  0  0  0  0
   -6.7887    6.1706  -12.1683 C   0  0  0  0  0  0  0  0  0  0  0  0
   -5.7107    5.5515  -12.9726 C   0  0  0  0  0  0  0  0  0  0  0  0
   -4.9290    5.0146  -13.6480 N   0  0  0  0  0  0  0  0  0  0  0  0
  1  2  1  0
  2  3  2  0
  3  4  1  0
  4  5  2  0
  5  6  1  0
  6  7  1  0
  7  8  2  0
  7  9  1  0
  9 10  1  0
  9 11  1  0
 11 12  1  0
  5 13  1  0
 13 14  1  0
 14 15  1  0
 15 16  3  0
 13  2  1  0
 12  9  1  0
M  END
>  <energy_score>  (3930) 
-19.425048

>  <alias>  (3930) 
DHWYCQXXLPIJKB-UHFFFAOYSA-N-P86-P35-P86-601528

>  <HIPPO Pose ID>  (3930) 
81034

>  <smiles>  (3930) 
Cc1ncc(NC(=O)C2(F)CC2)n1CC#N

>  <inchikey>  (3930) 
DHWYCQXXLPIJKB-UHFFFAOYSA-N

>  <distance_score>  (3930) 
1.241232

>  <ref_mols>  (3930) 
Z0719a,Z1597a

>  <ref_pdb>  (3930) 
Z0719a

>  <HIPPO Compound ID>  (3930) 
151302

>  <name>  (3930) 
DHWYCQXXLPIJKB-UHFFFAOYSA-N-P86-P35-P86-601528

>  <inspiration_score>  (3930) 
None

$$$$
DIXIASGBUOIYIG-UHFFFAOYSA-N-P35-P35-P86-601528
     RDKit          3D

 16 17  0  0  0  0  0  0  0  0999 V2000
   -6.3998    2.1185  -10.9102 C   0  0  0  0  0  0  0  0  0  0  0  0
   -7.1105    3.1789  -11.6450 C   0  0  0  0  0  0  0  0  0  0  0  0
   -7.2604    3.1632  -12.9466 N   0  0  0  0  0  0  0  0  0  0  0  0
   -7.6231    4.4272  -13.2813 C   0  0  0  0  0  0  0  0  0  0  0  0
   -7.5972    4.6958  -14.6040 N   0  0  0  0  0  0  0  0  0  0  0  0
   -7.4353    6.0293  -15.3488 C   0  0  0  0  0  0  0  0  0  0  0  0
   -7.3754    7.1181  -14.9421 O   0  0  0  0  0  0  0  0  0  0  0  0
   -7.2984    5.8328  -16.8479 C   0  0  0  0  0  0  0  0  0  0  0  0
   -7.0331    6.9957  -17.5783 F   0  0  0  0  0  0  0  0  0  0  0  0
   -6.6328    4.6311  -17.4571 C   0  0  0  0  0  0  0  0  0  0  0  0
   -8.1238    4.7897  -17.5694 C   0  0  0  0  0  0  0  0  0  0  0  0
   -7.8618    5.1987  -12.1677 C   0  0  0  0  0  0  0  0  0  0  0  0
   -8.2848    6.5487  -12.0561 C   0  0  0  0  0  0  0  0  0  0  0  0
   -8.6484    7.6380  -11.8899 N   0  0  0  0  0  0  0  0  0  0  0  0
   -7.6087    4.3472  -11.1110 N   0  0  0  0  0  0  0  0  0  0  0  0
   -7.7621    4.6690   -9.7126 C   0  0  0  0  0  0  0  0  0  0  0  0
  1  2  1  0
  2  3  2  0
  3  4  1  0
  4  5  1  0
  5  6  1  0
  6  7  2  0
  6  8  1  0
  8  9  1  0
  8 10  1  0
 10 11  1  0
  4 12  2  0
 12 13  1  0
 13 14  3  0
 12 15  1  0
 15 16  1  0
 15  2  1  0
 11  8  1  0
M  END
>  <energy_score>  (3931) 
-13.033294

>  <alias>  (3931) 
DIXIASGBUOIYIG-UHFFFAOYSA-N-P35-P35-P86-601528

>  <HIPPO Pose ID>  (3931) 
81035

>  <smiles>  (3931) 
Cc1nc(NC(=O)C2(F)CC2)c(C#N)n1C

>  <inchikey>  (3931) 
DIXIASGBUOIYIG-UHFFFAOYSA-N

>  <distance_score>  (3931) 
1.716626

>  <ref_mols>  (3931) 
Z0719a,Z1597a

>  <ref_pdb>  (3931) 
Z0719a

>  <HIPPO Compound ID>  (3931) 
151303

>  <name>  (3931) 
DIXIASGBUOIYIG-UHFFFAOYSA-N-P35-P35-P86-601528

>  <inspiration_score>  (3931) 
None

$$$$
KFMYVGJMEDQPAL-UHFFFAOYSA-N-P35-P35-P86-601528
     RDKit          3D

 16 18  0  0  0  0  0  0  0  0999 V2000
   -3.7034    7.4633  -21.3891 C   0  0  0  0  0  0  0  0  0  0  0  0
   -2.9284    7.0141  -20.1887 C   0  0  1  0  0  0  0  0  0  0  0  0
   -3.5747    6.0320  -19.2698 C   0  0  0  0  0  0  0  0  0  0  0  0
   -3.5384    4.8941  -19.5183 O   0  0  0  0  0  0  0  0  0  0  0  0
   -4.2949    6.7824  -18.1406 N   0  0  0  0  0  0  0  0  0  0  0  0
   -5.1461    6.3346  -17.1928 C   0  0  0  0  0  0  0  0  0  0  0  0
   -5.7623    5.1152  -17.1036 C   0  0  0  0  0  0  0  0  0  0  0  0
   -6.6558    5.2711  -16.0798 N   0  0  0  0  0  0  0  0  0  0  0  0
   -7.7685    4.3934  -15.7862 C   0  0  0  0  0  0  0  0  0  0  0  0
   -8.9398    4.7751  -16.6366 C   0  0  0  0  0  0  0  0  0  0  0  0
   -9.6842    3.7935  -17.4939 C   0  0  0  0  0  0  0  0  0  0  0  0
   -8.8428    4.8223  -18.1553 C   0  0  0  0  0  0  0  0  0  0  0  0
   -6.4715    6.5082  -15.5390 C   0  0  0  0  0  0  0  0  0  0  0  0
   -5.5795    7.1883  -16.2198 N   0  0  0  0  0  0  0  0  0  0  0  0
   -1.4205    7.1294  -20.1902 C   0  0  0  0  0  0  0  0  0  0  0  0
   -2.2430    8.0939  -19.5206 O   0  0  0  0  0  0  0  0  0  0  0  0
  2  1  1  6
  2  3  1  0
  3  4  2  0
  3  5  1  0
  5  6  1  0
  6  7  2  0
  7  8  1  0
  8  9  1  0
  9 10  1  0
 10 11  1  0
 11 12  1  0
  8 13  1  0
 13 14  2  0
  2 15  1  0
 15 16  1  0
 16  2  1  0
 14  6  1  0
 12 10  1  0
M  END
>  <energy_score>  (3932) 
-25.002603

>  <alias>  (3932) 
KFMYVGJMEDQPAL-UHFFFAOYSA-N-P35-P35-P86-601528

>  <HIPPO Pose ID>  (3932) 
81039

>  <smiles>  (3932) 
CC1(C(=O)Nc2cn(CC3CC3)cn2)CO1

>  <inchikey>  (3932) 
KFMYVGJMEDQPAL-UHFFFAOYSA-N

>  <distance_score>  (3932) 
1.952305

>  <ref_mols>  (3932) 
Z0719a,Z1597a

>  <ref_pdb>  (3932) 
Z0719a

>  <HIPPO Compound ID>  (3932) 
151305

>  <name>  (3932) 
KFMYVGJMEDQPAL-UHFFFAOYSA-N-P35-P35-P86-601528

>  <inspiration_score>  (3932) 
None

$$$$
XDPSWRLALHJZEN-UHFFFAOYSA-N-P35-P35-P86-601528
     RDKit          3D

 16 16  0  0  0  0  0  0  0  0999 V2000
   -7.5158    3.3009  -14.3894 C   0  0  0  0  0  0  0  0  0  0  0  0
   -7.8182    3.9489  -15.7193 C   0  0  0  0  0  0  0  0  0  0  0  0
   -8.6941    3.6075  -16.6508 N   0  0  0  0  0  0  0  0  0  0  0  0
   -8.4252    4.4127  -17.7388 C   0  0  0  0  0  0  0  0  0  0  0  0
   -7.3990    5.2869  -17.4530 C   0  0  0  0  0  0  0  0  0  0  0  0
   -6.7095    6.1449  -18.2662 N   0  0  0  0  0  0  0  0  0  0  0  0
   -5.3900    6.9422  -18.0126 C   0  0  0  0  0  0  0  0  0  0  0  0
   -4.6554    6.9239  -17.0988 O   0  0  0  0  0  0  0  0  0  0  0  0
   -5.1359    7.8873  -19.2377 C   0  0  0  0  0  0  0  0  0  0  0  0
   -4.9508    7.1082  -20.5404 C   0  0  0  0  0  0  0  0  0  0  0  0
   -3.8659    8.7201  -18.9921 C   0  0  0  0  0  0  0  0  0  0  0  0
   -6.2276    8.8080  -19.3674 O   0  0  0  0  0  0  0  0  0  0  0  0
   -7.1985    5.1160  -16.1071 N   0  0  0  0  0  0  0  0  0  0  0  0
   -6.7104    6.0860  -15.1543 C   0  0  0  0  0  0  0  0  0  0  0  0
   -7.6215    6.2288  -14.0080 C   0  0  0  0  0  0  0  0  0  0  0  0
   -8.3548    6.2896  -13.1094 N   0  0  0  0  0  0  0  0  0  0  0  0
  1  2  1  0
  2  3  2  0
  3  4  1  0
  4  5  2  0
  5  6  1  0
  6  7  1  0
  7  8  2  0
  7  9  1  0
  9 10  1  0
  9 11  1  0
  9 12  1  0
  5 13  1  0
 13 14  1  0
 14 15  1  0
 15 16  3  0
 13  2  1  0
M  END
>  <energy_score>  (3933) 
-17.737328

>  <alias>  (3933) 
XDPSWRLALHJZEN-UHFFFAOYSA-N-P35-P35-P86-601528

>  <HIPPO Pose ID>  (3933) 
81055

>  <smiles>  (3933) 
Cc1ncc(NC(=O)C(C)(C)O)n1CC#N

>  <inchikey>  (3933) 
XDPSWRLALHJZEN-UHFFFAOYSA-N

>  <distance_score>  (3933) 
1.971007

>  <ref_mols>  (3933) 
Z0719a,Z1597a

>  <ref_pdb>  (3933) 
Z0719a

>  <HIPPO Compound ID>  (3933) 
151313

>  <name>  (3933) 
XDPSWRLALHJZEN-UHFFFAOYSA-N-P35-P35-P86-601528

>  <inspiration_score>  (3933) 
None

$$$$
KGSPHXZIYNBZKV-UHFFFAOYSA-N-P86-P35-P86-601528
     RDKit          3D

 16 17  0  0  0  0  0  0  0  0999 V2000
   -3.7812    8.0482  -21.4623 C   0  0  0  0  0  0  0  0  0  0  0  0
   -3.5269    6.5492  -21.4154 C   0  0  0  0  0  0  0  0  0  0  0  0
   -2.2265    6.2022  -22.1361 C   0  0  0  0  0  0  0  0  0  0  0  0
   -4.6321    5.9517  -22.0910 O   0  0  0  0  0  0  0  0  0  0  0  0
   -3.4591    6.1373  -19.9237 C   0  0  0  0  0  0  0  0  0  0  0  0
   -2.4701    6.0245  -19.3119 O   0  0  0  0  0  0  0  0  0  0  0  0
   -4.9408    6.0315  -19.4702 N   0  0  0  0  0  0  0  0  0  0  0  0
   -5.4695    5.6949  -18.2739 C   0  0  0  0  0  0  0  0  0  0  0  0
   -6.8048    5.5222  -18.0303 C   0  0  0  0  0  0  0  0  0  0  0  0
   -6.8641    5.0907  -16.7392 N   0  0  0  0  0  0  0  0  0  0  0  0
   -8.0252    4.6943  -15.9725 C   0  0  0  0  0  0  0  0  0  0  0  0
   -9.0111    3.8003  -16.6444 C   0  0  0  0  0  0  0  0  0  0  0  0
   -9.9672    4.2650  -17.7200 C   0  0  0  0  0  0  0  0  0  0  0  0
   -8.9591    3.2110  -18.0367 C   0  0  0  0  0  0  0  0  0  0  0  0
   -5.5982    5.1524  -16.2291 C   0  0  0  0  0  0  0  0  0  0  0  0
   -4.7329    5.5064  -17.1477 N   0  0  0  0  0  0  0  0  0  0  0  0
  1  2  1  0
  2  3  1  0
  2  4  1  0
  2  5  1  0
  5  6  2  0
  5  7  1  0
  7  8  1  0
  8  9  2  0
  9 10  1  0
 10 11  1  0
 11 12  1  0
 12 13  1  0
 13 14  1  0
 10 15  1  0
 15 16  2  0
 16  8  1  0
 14 12  1  0
M  END
>  <energy_score>  (3934) 
-21.825488

>  <alias>  (3934) 
KGSPHXZIYNBZKV-UHFFFAOYSA-N-P86-P35-P86-601528

>  <HIPPO Pose ID>  (3934) 
81058

>  <smiles>  (3934) 
CC(C)(O)C(=O)Nc1cn(CC2CC2)cn1

>  <inchikey>  (3934) 
KGSPHXZIYNBZKV-UHFFFAOYSA-N

>  <distance_score>  (3934) 
1.775188

>  <ref_mols>  (3934) 
Z0719a,Z1597a

>  <ref_pdb>  (3934) 
Z0719a

>  <HIPPO Compound ID>  (3934) 
151314

>  <name>  (3934) 
KGSPHXZIYNBZKV-UHFFFAOYSA-N-P86-P35-P86-601528

>  <inspiration_score>  (3934) 
None

$$$$
XMGAFAOZBRRTHM-UHFFFAOYSA-N-P35-P35-P86-601528
     RDKit          3D

 16 16  0  0  0  0  0  0  0  0999 V2000
   -8.0403    5.0927  -18.1340 C   0  0  0  0  0  0  0  0  0  0  0  0
   -7.7556    4.8810  -16.7419 N   0  0  0  0  0  0  0  0  0  0  0  0
   -8.7335    4.5333  -15.8609 C   0  0  0  0  0  0  0  0  0  0  0  0
   -8.2317    3.9557  -14.8041 N   0  0  0  0  0  0  0  0  0  0  0  0
   -6.8693    3.8979  -15.0283 C   0  0  0  0  0  0  0  0  0  0  0  0
   -6.0393    3.1522  -14.1016 N   0  0  0  0  0  0  0  0  0  0  0  0
   -6.5808    2.2594  -13.4309 O   0  0  0  0  0  0  0  0  0  0  0  0
   -4.8230    3.4063  -14.0913 O   0  0  0  0  0  0  0  0  0  0  0  0
   -6.5276    4.6141  -16.1706 C   0  0  0  0  0  0  0  0  0  0  0  0
   -5.3543    4.9319  -16.8082 N   0  0  0  0  0  0  0  0  0  0  0  0
   -5.0440    6.0376  -17.8729 C   0  0  0  0  0  0  0  0  0  0  0  0
   -5.7251    6.8885  -18.3042 O   0  0  0  0  0  0  0  0  0  0  0  0
   -3.6115    5.7676  -18.4063 C   0  0  0  0  0  0  0  0  0  0  0  0
   -3.4216    6.4544  -19.7685 C   0  0  0  0  0  0  0  0  0  0  0  0
   -2.5713    6.2421  -17.3982 C   0  0  0  0  0  0  0  0  0  0  0  0
   -3.4381    4.3594  -18.5934 O   0  0  0  0  0  0  0  0  0  0  0  0
  1  2  1  0
  2  3  1  0
  3  4  2  0
  4  5  1  0
  5  6  1  0
  6  7  2  0
  6  8  1  0
  5  9  2  0
  9 10  1  0
 10 11  1  0
 11 12  2  0
 11 13  1  0
 13 14  1  0
 13 15  1  0
 13 16  1  0
  9  2  1  0
M  CHG  2   6   1   8  -1
M  END
>  <energy_score>  (3935) 
-15.681571

>  <alias>  (3935) 
XMGAFAOZBRRTHM-UHFFFAOYSA-N-P35-P35-P86-601528

>  <HIPPO Pose ID>  (3935) 
81059

>  <smiles>  (3935) 
Cn1cnc([N+](=O)[O-])c1NC(=O)C(C)(C)O

>  <inchikey>  (3935) 
XMGAFAOZBRRTHM-UHFFFAOYSA-N

>  <distance_score>  (3935) 
1.987566

>  <ref_mols>  (3935) 
Z0719a,Z1597a

>  <ref_pdb>  (3935) 
Z0719a

>  <HIPPO Compound ID>  (3935) 
151315

>  <name>  (3935) 
XMGAFAOZBRRTHM-UHFFFAOYSA-N-P35-P35-P86-601528

>  <inspiration_score>  (3935) 
None

$$$$
AMFAMQBXBCCYRG-UHFFFAOYSA-N-P86-P35-P86-601528
     RDKit          3D

 16 18  0  0  0  0  0  0  0  0999 V2000
   -3.3151    6.9621  -22.0106 C   0  0  0  0  0  0  0  0  0  0  0  0
   -2.7322    6.1803  -20.8783 C   0  0  2  0  0  0  0  0  0  0  0  0
   -3.4067    6.2601  -19.5531 C   0  0  0  0  0  0  0  0  0  0  0  0
   -2.9211    6.8706  -18.6884 O   0  0  0  0  0  0  0  0  0  0  0  0
   -4.7434    5.5072  -19.6121 N   0  0  0  0  0  0  0  0  0  0  0  0
   -5.6667    5.2791  -18.6504 C   0  0  0  0  0  0  0  0  0  0  0  0
   -6.8206    4.5559  -18.8088 C   0  0  0  0  0  0  0  0  0  0  0  0
   -7.4014    4.5651  -17.5775 N   0  0  0  0  0  0  0  0  0  0  0  0
   -8.5955    4.0199  -17.1621 C   0  0  0  0  0  0  0  0  0  0  0  0
   -8.9276    4.1474  -15.8770 C   0  0  0  0  0  0  0  0  0  0  0  0
   -7.9529    4.8513  -15.0118 C   0  0  0  0  0  0  0  0  0  0  0  0
   -6.8488    5.4077  -15.3923 N   0  0  0  0  0  0  0  0  0  0  0  0
   -6.5573    5.2717  -16.7190 C   0  0  0  0  0  0  0  0  0  0  0  0
   -5.5322    5.7556  -17.3855 N   0  0  0  0  0  0  0  0  0  0  0  0
   -1.2810    5.7440  -20.9242 C   0  0  0  0  0  0  0  0  0  0  0  0
   -2.3435    4.8467  -21.2604 O   0  0  0  0  0  0  0  0  0  0  0  0
  2  1  1  6
  2  3  1  0
  3  4  2  0
  3  5  1  0
  5  6  1  0
  6  7  2  0
  7  8  1  0
  8  9  1  0
  9 10  2  0
 10 11  1  0
 11 12  2  0
 12 13  1  0
 13 14  2  0
  2 15  1  0
 15 16  1  0
 16  2  1  0
 14  6  1  0
 13  8  1  0
M  END
>  <energy_score>  (3936) 
-20.425497

>  <alias>  (3936) 
AMFAMQBXBCCYRG-UHFFFAOYSA-N-P86-P35-P86-601528

>  <HIPPO Pose ID>  (3936) 
81068

>  <smiles>  (3936) 
CC1(C(=O)Nc2cn3cccnc3n2)CO1

>  <inchikey>  (3936) 
AMFAMQBXBCCYRG-UHFFFAOYSA-N

>  <distance_score>  (3936) 
1.66646

>  <ref_mols>  (3936) 
Z0719a,Z1597a

>  <ref_pdb>  (3936) 
Z0719a

>  <HIPPO Compound ID>  (3936) 
151319

>  <name>  (3936) 
AMFAMQBXBCCYRG-UHFFFAOYSA-N-P86-P35-P86-601528

>  <inspiration_score>  (3936) 
None

$$$$
PQLVAXFKMCGHSH-UHFFFAOYSA-N-P86-P35-P86-601528
     RDKit          3D

 16 17  0  0  0  0  0  0  0  0999 V2000
   -4.3266    8.0798  -21.5914 C   0  0  0  0  0  0  0  0  0  0  0  0
   -3.9521    6.6079  -21.6163 C   0  0  0  0  0  0  0  0  0  0  0  0
   -2.5476    6.4220  -22.1867 C   0  0  0  0  0  0  0  0  0  0  0  0
   -4.9028    5.9712  -22.4640 O   0  0  0  0  0  0  0  0  0  0  0  0
   -4.0162    6.1167  -20.1517 C   0  0  0  0  0  0  0  0  0  0  0  0
   -3.1446    6.2590  -19.3848 O   0  0  0  0  0  0  0  0  0  0  0  0
   -5.4473    5.5407  -19.9552 N   0  0  0  0  0  0  0  0  0  0  0  0
   -6.0844    5.1393  -18.8341 C   0  0  0  0  0  0  0  0  0  0  0  0
   -7.3340    4.5793  -18.7532 C   0  0  0  0  0  0  0  0  0  0  0  0
   -7.5925    4.4983  -17.4209 N   0  0  0  0  0  0  0  0  0  0  0  0
   -8.7633    4.1010  -16.8698 N   0  0  0  0  0  0  0  0  0  0  0  0
   -8.7497    4.2221  -15.5840 C   0  0  0  0  0  0  0  0  0  0  0  0
   -7.6316    4.6939  -14.7401 C   0  0  0  0  0  0  0  0  0  0  0  0
   -6.5132    5.0673  -15.3634 C   0  0  0  0  0  0  0  0  0  0  0  0
   -6.4741    4.9948  -16.7676 C   0  0  0  0  0  0  0  0  0  0  0  0
   -5.5347    5.3519  -17.6089 N   0  0  0  0  0  0  0  0  0  0  0  0
  1  2  1  0
  2  3  1  0
  2  4  1  0
  2  5  1  0
  5  6  2  0
  5  7  1  0
  7  8  1  0
  8  9  2  0
  9 10  1  0
 10 11  1  0
 11 12  2  0
 12 13  1  0
 13 14  2  0
 14 15  1  0
 15 16  2  0
 16  8  1  0
 15 10  1  0
M  END
>  <energy_score>  (3937) 
-42.924078

>  <alias>  (3937) 
PQLVAXFKMCGHSH-UHFFFAOYSA-N-P86-P35-P86-601528

>  <HIPPO Pose ID>  (3937) 
81076

>  <smiles>  (3937) 
CC(C)(O)C(=O)Nc1cn2ncccc2n1

>  <inchikey>  (3937) 
PQLVAXFKMCGHSH-UHFFFAOYSA-N

>  <distance_score>  (3937) 
1.6169

>  <ref_mols>  (3937) 
Z0719a,Z1597a

>  <ref_pdb>  (3937) 
Z0719a

>  <HIPPO Compound ID>  (3937) 
151323

>  <name>  (3937) 
PQLVAXFKMCGHSH-UHFFFAOYSA-N-P86-P35-P86-601528

>  <inspiration_score>  (3937) 
None

$$$$
ZDDSJPPMFWFDNI-UHFFFAOYSA-N-P86-P35-P86-601528
     RDKit          3D

 16 17  0  0  0  0  0  0  0  0999 V2000
   -3.8456    6.9037  -22.0615 C   0  0  0  0  0  0  0  0  0  0  0  0
   -2.8527    6.5940  -20.9465 C   0  0  0  0  0  0  0  0  0  0  0  0
   -2.1190    5.2733  -21.1544 C   0  0  0  0  0  0  0  0  0  0  0  0
   -1.8653    7.6373  -20.9999 O   0  0  0  0  0  0  0  0  0  0  0  0
   -3.5308    6.6129  -19.5475 C   0  0  0  0  0  0  0  0  0  0  0  0
   -3.1009    7.2728  -18.6799 O   0  0  0  0  0  0  0  0  0  0  0  0
   -4.7346    5.6257  -19.5627 N   0  0  0  0  0  0  0  0  0  0  0  0
   -5.6487    5.3409  -18.6075 C   0  0  0  0  0  0  0  0  0  0  0  0
   -6.7883    4.6014  -18.7905 C   0  0  0  0  0  0  0  0  0  0  0  0
   -7.3816    4.5792  -17.5648 N   0  0  0  0  0  0  0  0  0  0  0  0
   -8.5833    4.0304  -17.1769 C   0  0  0  0  0  0  0  0  0  0  0  0
   -8.9312    4.1316  -15.8937 C   0  0  0  0  0  0  0  0  0  0  0  0
   -7.9601    4.8043  -14.9993 C   0  0  0  0  0  0  0  0  0  0  0  0
   -6.8461    5.3591  -15.3534 N   0  0  0  0  0  0  0  0  0  0  0  0
   -6.5440    5.2610  -16.6805 C   0  0  0  0  0  0  0  0  0  0  0  0
   -5.5146    5.7653  -17.3258 N   0  0  0  0  0  0  0  0  0  0  0  0
  1  2  1  0
  2  3  1  0
  2  4  1  0
  2  5  1  0
  5  6  2  0
  5  7  1  0
  7  8  1  0
  8  9  2  0
  9 10  1  0
 10 11  1  0
 11 12  2  0
 12 13  1  0
 13 14  2  0
 14 15  1  0
 15 16  2  0
 16  8  1  0
 15 10  1  0
M  END
>  <energy_score>  (3938) 
-34.359252

>  <alias>  (3938) 
ZDDSJPPMFWFDNI-UHFFFAOYSA-N-P86-P35-P86-601528

>  <HIPPO Pose ID>  (3938) 
81078

>  <smiles>  (3938) 
CC(C)(O)C(=O)Nc1cn2cccnc2n1

>  <inchikey>  (3938) 
ZDDSJPPMFWFDNI-UHFFFAOYSA-N

>  <distance_score>  (3938) 
1.708108

>  <ref_mols>  (3938) 
Z0719a,Z1597a

>  <ref_pdb>  (3938) 
Z0719a

>  <HIPPO Compound ID>  (3938) 
151324

>  <name>  (3938) 
ZDDSJPPMFWFDNI-UHFFFAOYSA-N-P86-P35-P86-601528

>  <inspiration_score>  (3938) 
None

$$$$
LOMXGIRMIQZLSL-UHFFFAOYSA-N-P86-P35-P86-601528
     RDKit          3D

 16 17  0  0  0  0  0  0  0  0999 V2000
   -4.7733    7.9027  -22.0840 C   0  0  0  0  0  0  0  0  0  0  0  0
   -4.1575    6.5170  -22.1324 C   0  0  0  0  0  0  0  0  0  0  0  0
   -2.7929    6.5866  -22.8169 C   0  0  0  0  0  0  0  0  0  0  0  0
   -4.0196    6.0296  -20.6936 C   0  0  0  0  0  0  0  0  0  0  0  0
   -3.0153    6.1252  -20.1000 O   0  0  0  0  0  0  0  0  0  0  0  0
   -5.4236    5.5343  -20.2303 N   0  0  0  0  0  0  0  0  0  0  0  0
   -5.8656    5.1730  -19.0060 C   0  0  0  0  0  0  0  0  0  0  0  0
   -7.1335    4.8000  -18.6234 C   0  0  0  0  0  0  0  0  0  0  0  0
   -7.0833    4.7568  -17.2580 N   0  0  0  0  0  0  0  0  0  0  0  0
   -8.1356    4.5952  -16.4138 N   0  0  0  0  0  0  0  0  0  0  0  0
   -7.7796    4.7190  -15.1752 C   0  0  0  0  0  0  0  0  0  0  0  0
   -9.0096    4.7041  -13.9964 Cl  0  0  0  0  0  0  0  0  0  0  0  0
   -6.4124    4.9513  -14.6588 C   0  0  0  0  0  0  0  0  0  0  0  0
   -5.4452    5.1377  -15.5504 C   0  0  0  0  0  0  0  0  0  0  0  0
   -5.7773    5.0670  -16.9094 C   0  0  0  0  0  0  0  0  0  0  0  0
   -5.0220    5.2789  -17.9514 N   0  0  0  0  0  0  0  0  0  0  0  0
  1  2  1  0
  2  3  1  0
  2  4  1  0
  4  5  2  0
  4  6  1  0
  6  7  1  0
  7  8  2  0
  8  9  1  0
  9 10  1  0
 10 11  2  0
 11 12  1  0
 11 13  1  0
 13 14  2  0
 14 15  1  0
 15 16  2  0
 16  7  1  0
 15  9  1  0
M  END
>  <energy_score>  (3939) 
-17.120812

>  <alias>  (3939) 
LOMXGIRMIQZLSL-UHFFFAOYSA-N-P86-P35-P86-601528

>  <HIPPO Pose ID>  (3939) 
81080

>  <smiles>  (3939) 
CC(C)C(=O)Nc1cn2nc(Cl)ccc2n1

>  <inchikey>  (3939) 
LOMXGIRMIQZLSL-UHFFFAOYSA-N

>  <distance_score>  (3939) 
1.925133

>  <ref_mols>  (3939) 
Z0719a,Z1597a

>  <ref_pdb>  (3939) 
Z0719a

>  <HIPPO Compound ID>  (3939) 
151325

>  <name>  (3939) 
LOMXGIRMIQZLSL-UHFFFAOYSA-N-P86-P35-P86-601528

>  <inspiration_score>  (3939) 
None

$$$$
RKBPYTDOMAFXQP-UHFFFAOYSA-N-P35-P35-P86-601528
     RDKit          3D

 16 17  0  0  0  0  0  0  0  0999 V2000
   -4.3652    7.1036  -19.9582 C   0  0  0  0  0  0  0  0  0  0  0  0
   -3.7942    6.1866  -18.8778 C   0  0  0  0  0  0  0  0  0  0  0  0
   -3.0476    5.0110  -19.4874 C   0  0  0  0  0  0  0  0  0  0  0  0
   -4.7652    5.6575  -17.7998 C   0  0  0  0  0  0  0  0  0  0  0  0
   -4.3807    5.4737  -16.7109 O   0  0  0  0  0  0  0  0  0  0  0  0
   -6.1484    5.3617  -18.4423 N   0  0  0  0  0  0  0  0  0  0  0  0
   -7.3058    4.8934  -17.8828 C   0  0  0  0  0  0  0  0  0  0  0  0
   -8.4372    4.8115  -18.6540 N   0  0  0  0  0  0  0  0  0  0  0  0
   -9.4517    4.3198  -17.8887 C   0  0  0  0  0  0  0  0  0  0  0  0
   -9.0412    4.0300  -16.6834 N   0  0  0  0  0  0  0  0  0  0  0  0
   -7.7158    4.4309  -16.6433 C   0  0  0  0  0  0  0  0  0  0  0  0
   -7.0119    4.3536  -15.3653 C   0  0  0  0  0  0  0  0  0  0  0  0
   -6.5239    5.4844  -14.7646 N   0  0  0  0  0  0  0  0  0  0  0  0
   -6.0404    5.1057  -13.5871 N   0  0  0  0  0  0  0  0  0  0  0  0
   -6.3037    3.7967  -13.5210 N   0  0  0  0  0  0  0  0  0  0  0  0
   -6.9012    3.2646  -14.5847 N   0  0  0  0  0  0  0  0  0  0  0  0
  1  2  1  0
  2  3  1  0
  2  4  1  0
  4  5  2  0
  4  6  1  0
  6  7  1  0
  7  8  1  0
  8  9  1  0
  9 10  2  0
 10 11  1  0
 11 12  1  0
 12 13  1  0
 13 14  2  0
 14 15  1  0
 15 16  1  0
 11  7  2  0
 16 12  2  0
M  END
>  <energy_score>  (3940) 
-20.467592

>  <alias>  (3940) 
RKBPYTDOMAFXQP-UHFFFAOYSA-N-P35-P35-P86-601528

>  <HIPPO Pose ID>  (3940) 
81081

>  <smiles>  (3940) 
CC(C)C(=O)Nc1[nH]cnc1-c1nn[nH]n1

>  <inchikey>  (3940) 
RKBPYTDOMAFXQP-UHFFFAOYSA-N

>  <distance_score>  (3940) 
1.41784

>  <ref_mols>  (3940) 
Z0719a,Z1597a

>  <ref_pdb>  (3940) 
Z0719a

>  <HIPPO Compound ID>  (3940) 
151326

>  <name>  (3940) 
RKBPYTDOMAFXQP-UHFFFAOYSA-N-P35-P35-P86-601528

>  <inspiration_score>  (3940) 
None

$$$$
DFGTWSOIMBETRY-UHFFFAOYSA-N-P35-P35-P86-601528
     RDKit          3D

 16 16  0  0  0  0  0  0  0  0999 V2000
   -7.9510    5.1176  -13.8253 C   0  0  0  0  0  0  0  0  0  0  0  0
   -6.6565    4.6504  -14.2204 O   0  0  0  0  0  0  0  0  0  0  0  0
   -6.2938    4.5625  -15.5410 C   0  0  0  0  0  0  0  0  0  0  0  0
   -5.1212    4.3158  -15.8258 O   0  0  0  0  0  0  0  0  0  0  0  0
   -7.3329    4.7043  -16.5741 C   0  0  0  0  0  0  0  0  0  0  0  0
   -8.6539    4.2882  -16.4139 N   0  0  0  0  0  0  0  0  0  0  0  0
   -9.2202    4.4175  -17.5877 C   0  0  0  0  0  0  0  0  0  0  0  0
   -8.3283    4.8551  -18.5230 N   0  0  0  0  0  0  0  0  0  0  0  0
   -7.1471    5.1160  -17.8855 C   0  0  0  0  0  0  0  0  0  0  0  0
   -6.0962    5.6625  -18.5565 N   0  0  0  0  0  0  0  0  0  0  0  0
   -4.9076    6.5257  -18.0414 C   0  0  0  0  0  0  0  0  0  0  0  0
   -4.6931    6.9622  -16.9775 O   0  0  0  0  0  0  0  0  0  0  0  0
   -3.8815    6.6774  -19.1715 C   0  0  2  0  0  0  0  0  0  0  0  0
   -4.4562    7.2966  -20.4443 C   0  0  0  0  0  0  0  0  0  0  0  0
   -3.2190    5.3198  -19.3616 C   0  0  0  0  0  0  0  0  0  0  0  0
   -1.6006    5.4604  -20.4365 Br  0  0  0  0  0  0  0  0  0  0  0  0
  1  2  1  0
  2  3  1  0
  3  4  2  0
  3  5  1  0
  5  6  1  0
  6  7  2  0
  7  8  1  0
  8  9  1  0
  9 10  1  0
 10 11  1  0
 11 12  2  0
 11 13  1  0
 13 14  1  6
 13 15  1  0
 15 16  1  0
  9  5  2  0
M  END
>  <energy_score>  (3941) 
-11.047235

>  <alias>  (3941) 
DFGTWSOIMBETRY-UHFFFAOYSA-N-P35-P35-P86-601528

>  <HIPPO Pose ID>  (3941) 
81087

>  <smiles>  (3941) 
COC(=O)c1nc[nH]c1NC(=O)C(C)CBr

>  <inchikey>  (3941) 
DFGTWSOIMBETRY-UHFFFAOYSA-N

>  <distance_score>  (3941) 
1.694699

>  <ref_mols>  (3941) 
Z0719a,Z1597a

>  <ref_pdb>  (3941) 
Z0719a

>  <HIPPO Compound ID>  (3941) 
151329

>  <name>  (3941) 
DFGTWSOIMBETRY-UHFFFAOYSA-N-P35-P35-P86-601528

>  <inspiration_score>  (3941) 
None

$$$$
ZFUGLEWYNRAXKB-UHFFFAOYSA-N-P86-P35-P86-601528
     RDKit          3D

 16 16  0  0  0  0  0  0  0  0999 V2000
   -5.0727    4.4436  -13.5710 C   0  0  0  0  0  0  0  0  0  0  0  0
   -6.5088    4.0043  -13.3665 C   0  0  0  0  0  0  0  0  0  0  0  0
   -6.9327    4.2928  -11.9193 C   0  0  0  0  0  0  0  0  0  0  0  0
   -7.5491    4.6556  -14.3272 C   0  0  0  0  0  0  0  0  0  0  0  0
   -7.3295    4.6554  -15.7583 N   0  0  0  0  0  0  0  0  0  0  0  0
   -8.1402    4.1176  -16.7176 C   0  0  0  0  0  0  0  0  0  0  0  0
   -7.6850    4.3754  -17.9292 N   0  0  0  0  0  0  0  0  0  0  0  0
   -6.5851    5.1516  -17.7444 C   0  0  0  0  0  0  0  0  0  0  0  0
   -5.8146    5.6022  -18.7657 N   0  0  0  0  0  0  0  0  0  0  0  0
   -4.5064    6.4443  -18.7488 C   0  0  0  0  0  0  0  0  0  0  0  0
   -3.9362    6.9430  -17.8549 O   0  0  0  0  0  0  0  0  0  0  0  0
   -3.8832    6.5188  -20.1559 C   0  0  2  0  0  0  0  0  0  0  0  0
   -4.8628    6.6989  -21.3048 C   0  0  0  0  0  0  0  0  0  0  0  0
   -2.9416    5.3390  -20.3508 C   0  0  0  0  0  0  0  0  0  0  0  0
   -1.6622    5.7122  -21.7852 Br  0  0  0  0  0  0  0  0  0  0  0  0
   -6.3898    5.3992  -16.4150 C   0  0  0  0  0  0  0  0  0  0  0  0
  1  2  1  0
  2  3  1  0
  2  4  1  0
  4  5  1  0
  5  6  1  0
  6  7  2  0
  7  8  1  0
  8  9  1  0
  9 10  1  0
 10 11  2  0
 10 12  1  0
 12 13  1  6
 12 14  1  0
 14 15  1  0
  8 16  2  0
 16  5  1  0
M  END
>  <energy_score>  (3942) 
-15.427467

>  <alias>  (3942) 
ZFUGLEWYNRAXKB-UHFFFAOYSA-N-P86-P35-P86-601528

>  <HIPPO Pose ID>  (3942) 
81090

>  <smiles>  (3942) 
CC(C)Cn1cnc(NC(=O)C(C)CBr)c1

>  <inchikey>  (3942) 
ZFUGLEWYNRAXKB-UHFFFAOYSA-N

>  <distance_score>  (3942) 
1.799432

>  <ref_mols>  (3942) 
Z0719a,Z1597a

>  <ref_pdb>  (3942) 
Z0719a

>  <HIPPO Compound ID>  (3942) 
151330

>  <name>  (3942) 
ZFUGLEWYNRAXKB-UHFFFAOYSA-N-P86-P35-P86-601528

>  <inspiration_score>  (3942) 
None

$$$$
JYYCXZNHRIPPDZ-UHFFFAOYSA-N-P35-P35-P86-601528
     RDKit          3D

 16 16  0  0  0  0  0  0  0  0999 V2000
  -10.2572    4.3988  -17.1425 C   0  0  0  0  0  0  0  0  0  0  0  0
   -8.9502    4.3112  -17.7686 C   0  0  0  0  0  0  0  0  0  0  0  0
   -8.7791    3.7326  -18.9291 N   0  0  0  0  0  0  0  0  0  0  0  0
   -7.5283    4.0667  -19.3089 C   0  0  0  0  0  0  0  0  0  0  0  0
   -6.9004    4.8055  -18.3426 C   0  0  0  0  0  0  0  0  0  0  0  0
   -5.6351    5.2771  -18.4054 N   0  0  0  0  0  0  0  0  0  0  0  0
   -4.9468    6.4214  -17.6174 C   0  0  0  0  0  0  0  0  0  0  0  0
   -5.3874    7.1830  -16.8486 O   0  0  0  0  0  0  0  0  0  0  0  0
   -3.4602    6.3467  -17.9349 C   0  0  2  0  0  0  0  0  0  0  0  0
   -3.1917    6.5833  -19.4329 C   0  0  0  0  0  0  0  0  0  0  0  0
   -2.8679    5.0258  -17.4256 C   0  0  0  0  0  0  0  0  0  0  0  0
   -3.5903    4.4379  -15.6802 Br  0  0  0  0  0  0  0  0  0  0  0  0
   -7.7921    4.8814  -17.2978 N   0  0  0  0  0  0  0  0  0  0  0  0
   -7.5099    5.4474  -15.9842 C   0  0  0  0  0  0  0  0  0  0  0  0
   -8.3407    5.0931  -14.8337 C   0  0  0  0  0  0  0  0  0  0  0  0
   -8.9818    4.9348  -13.8777 N   0  0  0  0  0  0  0  0  0  0  0  0
  1  2  1  0
  2  3  2  0
  3  4  1  0
  4  5  2  0
  5  6  1  0
  6  7  1  0
  7  8  2  0
  7  9  1  0
  9 10  1  6
  9 11  1  0
 11 12  1  0
  5 13  1  0
 13 14  1  0
 14 15  1  0
 15 16  3  0
 13  2  1  0
M  END
>  <energy_score>  (3943) 
-15.649271

>  <alias>  (3943) 
JYYCXZNHRIPPDZ-UHFFFAOYSA-N-P35-P35-P86-601528

>  <HIPPO Pose ID>  (3943) 
81093

>  <smiles>  (3943) 
Cc1ncc(NC(=O)C(C)CBr)n1CC#N

>  <inchikey>  (3943) 
JYYCXZNHRIPPDZ-UHFFFAOYSA-N

>  <distance_score>  (3943) 
1.575621

>  <ref_mols>  (3943) 
Z0719a,Z1597a

>  <ref_pdb>  (3943) 
Z0719a

>  <HIPPO Compound ID>  (3943) 
151332

>  <name>  (3943) 
JYYCXZNHRIPPDZ-UHFFFAOYSA-N-P35-P35-P86-601528

>  <inspiration_score>  (3943) 
None

$$$$
PFUWCUTZSRCBSW-UHFFFAOYSA-N-P35-P35-P86-601528
     RDKit          3D

 16 16  0  0  0  0  0  0  0  0999 V2000
   -4.2163    6.3387  -19.4743 C   0  0  0  0  0  0  0  0  0  0  0  0
   -3.5909    5.1826  -18.6704 C   0  0  1  0  0  0  0  0  0  0  0  0
   -2.0763    5.3450  -18.5737 C   0  0  0  0  0  0  0  0  0  0  0  0
   -1.2327    4.9124  -20.2833 Br  0  0  0  0  0  0  0  0  0  0  0  0
   -4.1733    5.0666  -17.2389 C   0  0  0  0  0  0  0  0  0  0  0  0
   -3.5497    5.2405  -16.2683 O   0  0  0  0  0  0  0  0  0  0  0  0
   -5.6787    4.7361  -17.4212 N   0  0  0  0  0  0  0  0  0  0  0  0
   -6.6543    4.4719  -16.4884 C   0  0  0  0  0  0  0  0  0  0  0  0
   -6.8054    4.0370  -15.1691 C   0  0  0  0  0  0  0  0  0  0  0  0
   -5.9168    3.3352  -14.2514 N   0  0  0  0  0  0  0  0  0  0  0  0
   -6.4338    2.4659  -13.5274 O   0  0  0  0  0  0  0  0  0  0  0  0
   -4.7064    3.5832  -14.2800 O   0  0  0  0  0  0  0  0  0  0  0  0
   -8.1394    4.1159  -14.7850 N   0  0  0  0  0  0  0  0  0  0  0  0
   -8.7999    4.4256  -15.8627 C   0  0  0  0  0  0  0  0  0  0  0  0
   -7.9635    4.6033  -16.9108 N   0  0  0  0  0  0  0  0  0  0  0  0
   -8.4216    4.9046  -18.2361 C   0  0  0  0  0  0  0  0  0  0  0  0
  2  1  1  1
  2  3  1  0
  3  4  1  0
  2  5  1  0
  5  6  2  0
  5  7  1  0
  7  8  1  0
  8  9  2  0
  9 10  1  0
 10 11  2  0
 10 12  1  0
  9 13  1  0
 13 14  2  0
 14 15  1  0
 15 16  1  0
 15  8  1  0
M  CHG  2  10   1  12  -1
M  END
>  <energy_score>  (3944) 
-20.583359

>  <alias>  (3944) 
PFUWCUTZSRCBSW-UHFFFAOYSA-N-P35-P35-P86-601528

>  <HIPPO Pose ID>  (3944) 
81097

>  <smiles>  (3944) 
CC(CBr)C(=O)Nc1c([N+](=O)[O-])ncn1C

>  <inchikey>  (3944) 
PFUWCUTZSRCBSW-UHFFFAOYSA-N

>  <distance_score>  (3944) 
1.963776

>  <ref_mols>  (3944) 
Z0719a,Z1597a

>  <ref_pdb>  (3944) 
Z0719a

>  <HIPPO Compound ID>  (3944) 
151334

>  <name>  (3944) 
PFUWCUTZSRCBSW-UHFFFAOYSA-N-P35-P35-P86-601528

>  <inspiration_score>  (3944) 
None

$$$$
JGQAUHHRTHXHMY-UHFFFAOYSA-N-P86-P35-P86-601528
     RDKit          3D

 16 17  0  0  0  0  0  0  0  0999 V2000
   -3.6037    6.7238  -21.9951 C   0  0  0  0  0  0  0  0  0  0  0  0
   -2.7724    5.9267  -20.9886 C   0  0  1  0  0  0  0  0  0  0  0  0
   -1.2764    6.2426  -21.0301 C   0  0  0  0  0  0  0  0  0  0  0  0
   -0.8622    8.1487  -20.9982 Br  0  0  0  0  0  0  0  0  0  0  0  0
   -3.3433    6.0709  -19.5746 C   0  0  0  0  0  0  0  0  0  0  0  0
   -2.7548    6.5558  -18.6887 O   0  0  0  0  0  0  0  0  0  0  0  0
   -4.7757    5.4602  -19.6203 N   0  0  0  0  0  0  0  0  0  0  0  0
   -5.6735    5.2521  -18.6297 C   0  0  0  0  0  0  0  0  0  0  0  0
   -6.8704    4.5956  -18.7604 C   0  0  0  0  0  0  0  0  0  0  0  0
   -7.3958    4.5900  -17.5037 N   0  0  0  0  0  0  0  0  0  0  0  0
   -8.5933    4.0827  -17.0495 C   0  0  0  0  0  0  0  0  0  0  0  0
   -8.8672    4.1962  -15.7491 C   0  0  0  0  0  0  0  0  0  0  0  0
   -7.8316    4.8438  -14.9117 C   0  0  0  0  0  0  0  0  0  0  0  0
   -6.7204    5.3594  -15.3261 N   0  0  0  0  0  0  0  0  0  0  0  0
   -6.4856    5.2353  -16.6647 C   0  0  0  0  0  0  0  0  0  0  0  0
   -5.4576    5.6726  -17.3577 N   0  0  0  0  0  0  0  0  0  0  0  0
  2  1  1  6
  2  3  1  0
  3  4  1  0
  2  5  1  0
  5  6  2  0
  5  7  1  0
  7  8  1  0
  8  9  2  0
  9 10  1  0
 10 11  1  0
 11 12  2  0
 12 13  1  0
 13 14  2  0
 14 15  1  0
 15 16  2  0
 16  8  1  0
 15 10  1  0
M  END
>  <energy_score>  (3945) 
-2.086988

>  <alias>  (3945) 
JGQAUHHRTHXHMY-UHFFFAOYSA-N-P86-P35-P86-601528

>  <HIPPO Pose ID>  (3945) 
81112

>  <smiles>  (3945) 
CC(CBr)C(=O)Nc1cn2cccnc2n1

>  <inchikey>  (3945) 
JGQAUHHRTHXHMY-UHFFFAOYSA-N

>  <distance_score>  (3945) 
1.611921

>  <ref_mols>  (3945) 
Z0719a,Z1597a

>  <ref_pdb>  (3945) 
Z0719a

>  <HIPPO Compound ID>  (3945) 
151341

>  <name>  (3945) 
JGQAUHHRTHXHMY-UHFFFAOYSA-N-P86-P35-P86-601528

>  <inspiration_score>  (3945) 
None

$$$$
UUSRXKZUMFSXSR-UHFFFAOYSA-N-P86-P35-P86-601528
     RDKit          3D

 16 17  0  0  0  0  0  0  0  0999 V2000
   -4.9025    8.2627  -23.1435 C   0  0  0  0  0  0  0  0  0  0  0  0
   -4.5529    7.8162  -21.7305 C   0  0  0  0  0  0  0  0  0  0  0  0
   -3.9573    6.4089  -21.6823 C   0  0  1  0  0  0  0  0  0  0  0  0
   -2.5210    6.3760  -22.2032 C   0  0  0  0  0  0  0  0  0  0  0  0
   -4.0150    5.9323  -20.2302 C   0  0  0  0  0  0  0  0  0  0  0  0
   -3.1111    6.0221  -19.4934 O   0  0  0  0  0  0  0  0  0  0  0  0
   -5.4746    5.4501  -19.9821 N   0  0  0  0  0  0  0  0  0  0  0  0
   -6.0981    5.0967  -18.8382 C   0  0  0  0  0  0  0  0  0  0  0  0
   -7.3504    4.5458  -18.7328 C   0  0  0  0  0  0  0  0  0  0  0  0
   -7.5949    4.4955  -17.3964 N   0  0  0  0  0  0  0  0  0  0  0  0
   -8.7569    4.1026  -16.8232 N   0  0  0  0  0  0  0  0  0  0  0  0
   -8.7273    4.2455  -15.5397 C   0  0  0  0  0  0  0  0  0  0  0  0
   -7.6001    4.7377  -14.7195 C   0  0  0  0  0  0  0  0  0  0  0  0
   -6.4922    5.1065  -15.3638 C   0  0  0  0  0  0  0  0  0  0  0  0
   -6.4704    5.0089  -16.7667 C   0  0  0  0  0  0  0  0  0  0  0  0
   -5.5414    5.3518  -17.6255 N   0  0  0  0  0  0  0  0  0  0  0  0
  1  2  1  0
  2  3  1  0
  3  4  1  1
  3  5  1  0
  5  6  2  0
  5  7  1  0
  7  8  1  0
  8  9  2  0
  9 10  1  0
 10 11  1  0
 11 12  2  0
 12 13  1  0
 13 14  2  0
 14 15  1  0
 15 16  2  0
 16  8  1  0
 15 10  1  0
M  END
>  <energy_score>  (3946) 
-35.631287

>  <alias>  (3946) 
UUSRXKZUMFSXSR-UHFFFAOYSA-N-P86-P35-P86-601528

>  <HIPPO Pose ID>  (3946) 
81116

>  <smiles>  (3946) 
CCC(C)C(=O)Nc1cn2ncccc2n1

>  <inchikey>  (3946) 
UUSRXKZUMFSXSR-UHFFFAOYSA-N

>  <distance_score>  (3946) 
1.598081

>  <ref_mols>  (3946) 
Z0719a,Z1597a

>  <ref_pdb>  (3946) 
Z0719a

>  <HIPPO Compound ID>  (3946) 
151343

>  <name>  (3946) 
UUSRXKZUMFSXSR-UHFFFAOYSA-N-P86-P35-P86-601528

>  <inspiration_score>  (3946) 
None

$$$$
DQWMBBDEIWSBRJ-UHFFFAOYSA-N-P86-P35-P86-601528
     RDKit          3D

 16 17  0  0  0  0  0  0  0  0999 V2000
   -4.2784    8.4196  -21.7102 C   0  0  0  0  0  0  0  0  0  0  0  0
   -4.0236    6.9668  -22.0936 C   0  0  0  0  0  0  0  0  0  0  0  0
   -3.0249    6.2271  -21.1886 C   0  0  1  0  0  0  0  0  0  0  0  0
   -1.6103    6.7962  -21.3231 C   0  0  0  0  0  0  0  0  0  0  0  0
   -3.4750    6.2188  -19.7218 C   0  0  0  0  0  0  0  0  0  0  0  0
   -2.8543    6.7085  -18.8603 O   0  0  0  0  0  0  0  0  0  0  0  0
   -4.8327    5.4581  -19.6801 N   0  0  0  0  0  0  0  0  0  0  0  0
   -5.6883    5.2441  -18.6541 C   0  0  0  0  0  0  0  0  0  0  0  0
   -6.8905    4.5872  -18.7287 C   0  0  0  0  0  0  0  0  0  0  0  0
   -7.3700    4.6053  -17.4522 N   0  0  0  0  0  0  0  0  0  0  0  0
   -8.5557    4.1182  -16.9430 C   0  0  0  0  0  0  0  0  0  0  0  0
   -8.7807    4.2554  -15.6344 C   0  0  0  0  0  0  0  0  0  0  0  0
   -7.7047    4.9020  -14.8484 C   0  0  0  0  0  0  0  0  0  0  0  0
   -6.6034    5.3956  -15.3128 N   0  0  0  0  0  0  0  0  0  0  0  0
   -6.4221    5.2549  -16.6577 C   0  0  0  0  0  0  0  0  0  0  0  0
   -5.4203    5.6765  -17.3957 N   0  0  0  0  0  0  0  0  0  0  0  0
  1  2  1  0
  2  3  1  0
  3  4  1  1
  3  5  1  0
  5  6  2  0
  5  7  1  0
  7  8  1  0
  8  9  2  0
  9 10  1  0
 10 11  1  0
 11 12  2  0
 12 13  1  0
 13 14  2  0
 14 15  1  0
 15 16  2  0
 16  8  1  0
 15 10  1  0
M  END
>  <energy_score>  (3947) 
-34.368901

>  <alias>  (3947) 
DQWMBBDEIWSBRJ-UHFFFAOYSA-N-P86-P35-P86-601528

>  <HIPPO Pose ID>  (3947) 
81118

>  <smiles>  (3947) 
CCC(C)C(=O)Nc1cn2cccnc2n1

>  <inchikey>  (3947) 
DQWMBBDEIWSBRJ-UHFFFAOYSA-N

>  <distance_score>  (3947) 
1.670211

>  <ref_mols>  (3947) 
Z0719a,Z1597a

>  <ref_pdb>  (3947) 
Z0719a

>  <HIPPO Compound ID>  (3947) 
151344

>  <name>  (3947) 
DQWMBBDEIWSBRJ-UHFFFAOYSA-N-P86-P35-P86-601528

>  <inspiration_score>  (3947) 
None

$$$$
LCMNGFRLJFTWDJ-UHFFFAOYSA-N-P86-P35-P86-601528
     RDKit          3D

 16 17  0  0  0  0  0  0  0  0999 V2000
   -4.6523    6.7320  -22.3628 C   0  0  0  0  0  0  0  0  0  0  0  0
   -3.8049    7.5162  -21.3724 C   0  0  0  0  0  0  0  0  0  0  0  0
   -2.7867    6.7262  -20.5257 C   0  0  2  0  0  0  0  0  0  0  0  0
   -2.4654    5.3121  -20.9939 C   0  0  0  0  0  0  0  0  0  0  0  0
   -3.1416    6.6957  -19.0302 C   0  0  0  0  0  0  0  0  0  0  0  0
   -2.3734    7.0213  -18.2109 O   0  0  0  0  0  0  0  0  0  0  0  0
   -4.5860    6.1409  -18.8921 N   0  0  0  0  0  0  0  0  0  0  0  0
   -5.2961    5.8070  -17.7920 C   0  0  0  0  0  0  0  0  0  0  0  0
   -6.6324    5.5010  -17.7780 C   0  0  0  0  0  0  0  0  0  0  0  0
   -6.8748    5.0990  -16.4978 N   0  0  0  0  0  0  0  0  0  0  0  0
   -8.1207    4.6711  -15.9017 C   0  0  0  0  0  0  0  0  0  0  0  0
   -8.9529    3.7065  -16.6745 C   0  0  0  0  0  0  0  0  0  0  0  0
   -9.9780    4.1991  -17.6739 C   0  0  0  0  0  0  0  0  0  0  0  0
   -8.8983    3.2792  -18.1262 C   0  0  0  0  0  0  0  0  0  0  0  0
   -5.7215    5.2774  -15.7856 C   0  0  0  0  0  0  0  0  0  0  0  0
   -4.7549    5.7199  -16.5511 N   0  0  0  0  0  0  0  0  0  0  0  0
  1  2  1  0
  2  3  1  0
  3  4  1  6
  3  5  1  0
  5  6  2  0
  5  7  1  0
  7  8  1  0
  8  9  2  0
  9 10  1  0
 10 11  1  0
 11 12  1  0
 12 13  1  0
 13 14  1  0
 10 15  1  0
 15 16  2  0
 16  8  1  0
 14 12  1  0
M  END
>  <energy_score>  (3948) 
-16.665854

>  <alias>  (3948) 
LCMNGFRLJFTWDJ-UHFFFAOYSA-N-P86-P35-P86-601528

>  <HIPPO Pose ID>  (3948) 
81128

>  <smiles>  (3948) 
CCC(C)C(=O)Nc1cn(CC2CC2)cn1

>  <inchikey>  (3948) 
LCMNGFRLJFTWDJ-UHFFFAOYSA-N

>  <distance_score>  (3948) 
1.875999

>  <ref_mols>  (3948) 
Z0719a,Z1597a

>  <ref_pdb>  (3948) 
Z0719a

>  <HIPPO Compound ID>  (3948) 
151349

>  <name>  (3948) 
LCMNGFRLJFTWDJ-UHFFFAOYSA-N-P86-P35-P86-601528

>  <inspiration_score>  (3948) 
None

$$$$
KZSBQWDYMCOLIC-UHFFFAOYSA-N-P35-P35-P86-601528
     RDKit          3D

 16 17  0  0  0  0  0  0  0  0999 V2000
   -8.1893    5.2762   -9.1018 C   0  0  0  0  0  0  0  0  0  0  0  0
   -8.0144    4.5254  -10.3625 C   0  0  0  0  0  0  0  0  0  0  0  0
   -7.6472    3.2659  -10.4491 N   0  0  0  0  0  0  0  0  0  0  0  0
   -7.5444    2.9866  -11.7890 C   0  0  0  0  0  0  0  0  0  0  0  0
   -7.9306    4.0683  -12.5401 C   0  0  0  0  0  0  0  0  0  0  0  0
   -7.9354    4.3204  -13.8815 N   0  0  0  0  0  0  0  0  0  0  0  0
   -6.9315    3.9275  -14.9732 C   0  0  0  0  0  0  0  0  0  0  0  0
   -5.9011    3.3922  -14.8937 O   0  0  0  0  0  0  0  0  0  0  0  0
   -7.4455    4.4638  -16.2989 C   0  0  0  0  0  0  0  0  0  0  0  0
   -8.8888    4.4567  -16.4353 O   0  0  0  0  0  0  0  0  0  0  0  0
   -6.6411    4.4555  -17.5748 C   0  0  0  0  0  0  0  0  0  0  0  0
   -6.7949    5.7317  -16.8190 C   0  0  0  0  0  0  0  0  0  0  0  0
   -8.1283    5.0769  -11.6185 N   0  0  0  0  0  0  0  0  0  0  0  0
   -8.0472    6.4956  -11.9441 C   0  0  0  0  0  0  0  0  0  0  0  0
   -6.9147    6.7534  -12.8564 C   0  0  0  0  0  0  0  0  0  0  0  0
   -6.0586    6.8444  -13.6380 N   0  0  0  0  0  0  0  0  0  0  0  0
  1  2  1  0
  2  3  2  0
  3  4  1  0
  4  5  2  0
  5  6  1  0
  6  7  1  0
  7  8  2  0
  7  9  1  0
  9 10  1  0
  9 11  1  0
 11 12  1  0
  5 13  1  0
 13 14  1  0
 14 15  1  0
 15 16  3  0
 13  2  1  0
 12  9  1  0
M  END
>  <energy_score>  (3949) 
-13.706699

>  <alias>  (3949) 
KZSBQWDYMCOLIC-UHFFFAOYSA-N-P35-P35-P86-601528

>  <HIPPO Pose ID>  (3949) 
81133

>  <smiles>  (3949) 
Cc1ncc(NC(=O)C2(O)CC2)n1CC#N

>  <inchikey>  (3949) 
KZSBQWDYMCOLIC-UHFFFAOYSA-N

>  <distance_score>  (3949) 
1.299947

>  <ref_mols>  (3949) 
Z0719a,Z1597a

>  <ref_pdb>  (3949) 
Z0719a

>  <HIPPO Compound ID>  (3949) 
151352

>  <name>  (3949) 
KZSBQWDYMCOLIC-UHFFFAOYSA-N-P35-P35-P86-601528

>  <inspiration_score>  (3949) 
None

$$$$
YHNCRDVMXZHECH-UHFFFAOYSA-N-P86-P35-P86-601528
     RDKit          3D

 16 17  0  0  0  0  0  0  0  0999 V2000
   -5.2068    2.8856  -12.2323 C   0  0  0  0  0  0  0  0  0  0  0  0
   -6.7096    2.9159  -11.9852 C   0  0  0  0  0  0  0  0  0  0  0  0
   -7.1782    4.1669  -11.4037 N   0  0  0  0  0  0  0  0  0  0  0  0
   -7.3764    4.3962  -10.0544 C   0  0  0  0  0  0  0  0  0  0  0  0
   -7.1983    3.3773   -9.0083 C   0  0  0  0  0  0  0  0  0  0  0  0
   -7.7779    5.6308   -9.8268 N   0  0  0  0  0  0  0  0  0  0  0  0
   -8.0596    6.1463  -11.0572 C   0  0  0  0  0  0  0  0  0  0  0  0
   -8.6119    7.5079  -11.1943 C   0  0  0  0  0  0  0  0  0  0  0  0
   -7.7517    5.2381  -12.0457 C   0  0  0  0  0  0  0  0  0  0  0  0
   -8.0882    5.3188  -13.3575 N   0  0  0  0  0  0  0  0  0  0  0  0
   -7.4390    4.6925  -14.5886 C   0  0  0  0  0  0  0  0  0  0  0  0
   -6.4661    4.0679  -14.6913 O   0  0  0  0  0  0  0  0  0  0  0  0
   -8.3615    4.9258  -15.7481 C   0  0  0  0  0  0  0  0  0  0  0  0
   -9.4339    5.8450  -15.4329 O   0  0  0  0  0  0  0  0  0  0  0  0
   -7.8083    4.7938  -17.1468 C   0  0  0  0  0  0  0  0  0  0  0  0
   -8.8289    3.8183  -16.6486 C   0  0  0  0  0  0  0  0  0  0  0  0
  1  2  1  0
  2  3  1  0
  3  4  1  0
  4  5  1  0
  4  6  2  0
  6  7  1  0
  7  8  1  0
  7  9  2  0
  9 10  1  0
 10 11  1  0
 11 12  2  0
 11 13  1  0
 13 14  1  0
 13 15  1  0
 15 16  1  0
  9  3  1  0
 16 13  1  0
M  END
>  <energy_score>  (3950) 
-17.851841

>  <alias>  (3950) 
YHNCRDVMXZHECH-UHFFFAOYSA-N-P86-P35-P86-601528

>  <HIPPO Pose ID>  (3950) 
81148

>  <smiles>  (3950) 
CCn1c(C)nc(C)c1NC(=O)C1(O)CC1

>  <inchikey>  (3950) 
YHNCRDVMXZHECH-UHFFFAOYSA-N

>  <distance_score>  (3950) 
1.314272

>  <ref_mols>  (3950) 
Z0719a,Z1597a

>  <ref_pdb>  (3950) 
Z0719a

>  <HIPPO Compound ID>  (3950) 
151359

>  <name>  (3950) 
YHNCRDVMXZHECH-UHFFFAOYSA-N-P86-P35-P86-601528

>  <inspiration_score>  (3950) 
None

$$$$
QMORRVLMUSSSKM-UHFFFAOYSA-N-P86-P35-P86-601528
     RDKit          3D

 16 17  0  0  0  0  0  0  0  0999 V2000
   -3.4277    2.7471  -12.3672 C   0  0  0  0  0  0  0  0  0  0  0  0
   -4.8059    2.7126  -12.0186 O   0  0  0  0  0  0  0  0  0  0  0  0
   -5.1600    3.5893  -11.0301 C   0  0  0  0  0  0  0  0  0  0  0  0
   -4.3612    4.3145  -10.4408 O   0  0  0  0  0  0  0  0  0  0  0  0
   -6.5754    3.4845  -10.6894 C   0  0  0  0  0  0  0  0  0  0  0  0
   -7.0163    3.5123   -9.3716 N   0  0  0  0  0  0  0  0  0  0  0  0
   -8.2822    3.1767   -9.4191 C   0  0  0  0  0  0  0  0  0  0  0  0
   -8.7139    3.0392  -10.7048 N   0  0  0  0  0  0  0  0  0  0  0  0
   -7.6683    3.3460  -11.5341 C   0  0  0  0  0  0  0  0  0  0  0  0
   -7.8565    3.5323  -12.8742 N   0  0  0  0  0  0  0  0  0  0  0  0
   -6.9372    4.1646  -13.9346 C   0  0  0  0  0  0  0  0  0  0  0  0
   -5.8424    4.5574  -13.8491 O   0  0  0  0  0  0  0  0  0  0  0  0
   -7.6960    4.3460  -15.2204 C   0  0  0  0  0  0  0  0  0  0  0  0
   -8.5093    3.2641  -15.6935 O   0  0  0  0  0  0  0  0  0  0  0  0
   -7.2951    5.3648  -16.2495 C   0  0  0  0  0  0  0  0  0  0  0  0
   -8.4346    5.6421  -15.3066 C   0  0  0  0  0  0  0  0  0  0  0  0
  1  2  1  0
  2  3  1  0
  3  4  2  0
  3  5  1  0
  5  6  1  0
  6  7  2  0
  7  8  1  0
  8  9  1  0
  9 10  1  0
 10 11  1  0
 11 12  2  0
 11 13  1  0
 13 14  1  0
 13 15  1  0
 15 16  1  0
  9  5  2  0
 16 13  1  0
M  END
>  <energy_score>  (3951) 
-17.703491

>  <alias>  (3951) 
QMORRVLMUSSSKM-UHFFFAOYSA-N-P86-P35-P86-601528

>  <HIPPO Pose ID>  (3951) 
81160

>  <smiles>  (3951) 
COC(=O)c1nc[nH]c1NC(=O)C1(O)CC1

>  <inchikey>  (3951) 
QMORRVLMUSSSKM-UHFFFAOYSA-N

>  <distance_score>  (3951) 
1.969253

>  <ref_mols>  (3951) 
Z0719a,Z1597a

>  <ref_pdb>  (3951) 
Z0719a

>  <HIPPO Compound ID>  (3951) 
151365

>  <name>  (3951) 
QMORRVLMUSSSKM-UHFFFAOYSA-N-P86-P35-P86-601528

>  <inspiration_score>  (3951) 
None

$$$$
LGKKEYGMUFUKAC-UHFFFAOYSA-N-P35-P35-P86-601528
     RDKit          3D

 16 17  0  0  0  0  0  0  0  0999 V2000
   -3.9817    7.5539  -22.0500 C   0  0  0  0  0  0  0  0  0  0  0  0
   -2.8844    7.0636  -21.1301 C   0  0  2  0  0  0  0  0  0  0  0  0
   -2.2027    5.9280  -21.6656 O   0  0  0  0  0  0  0  0  0  0  0  0
   -3.3204    6.7503  -19.6939 C   0  0  0  0  0  0  0  0  0  0  0  0
   -2.6502    7.1041  -18.8004 O   0  0  0  0  0  0  0  0  0  0  0  0
   -4.6391    5.9232  -19.7000 N   0  0  0  0  0  0  0  0  0  0  0  0
   -5.3027    5.3251  -18.6882 C   0  0  0  0  0  0  0  0  0  0  0  0
   -6.6173    4.9231  -18.6294 C   0  0  0  0  0  0  0  0  0  0  0  0
   -6.8332    4.6897  -17.2963 N   0  0  0  0  0  0  0  0  0  0  0  0
   -8.0343    4.6686  -16.6580 N   0  0  0  0  0  0  0  0  0  0  0  0
   -7.8835    4.5904  -15.3745 C   0  0  0  0  0  0  0  0  0  0  0  0
   -9.2364    4.9367  -14.4026 Cl  0  0  0  0  0  0  0  0  0  0  0  0
   -6.6265    4.3380  -14.6380 C   0  0  0  0  0  0  0  0  0  0  0  0
   -5.4944    4.4474  -15.3252 C   0  0  0  0  0  0  0  0  0  0  0  0
   -5.5839    4.7359  -16.6931 C   0  0  0  0  0  0  0  0  0  0  0  0
   -4.6526    5.1385  -17.5137 N   0  0  0  0  0  0  0  0  0  0  0  0
  2  1  1  6
  2  3  1  0
  2  4  1  0
  4  5  2  0
  4  6  1  0
  6  7  1  0
  7  8  2  0
  8  9  1  0
  9 10  1  0
 10 11  2  0
 11 12  1  0
 11 13  1  0
 13 14  2  0
 14 15  1  0
 15 16  2  0
 16  7  1  0
 15  9  1  0
M  END
>  <energy_score>  (3952) 
-19.56686

>  <alias>  (3952) 
LGKKEYGMUFUKAC-UHFFFAOYSA-N-P35-P35-P86-601528

>  <HIPPO Pose ID>  (3952) 
81169

>  <smiles>  (3952) 
CC(O)C(=O)Nc1cn2nc(Cl)ccc2n1

>  <inchikey>  (3952) 
LGKKEYGMUFUKAC-UHFFFAOYSA-N

>  <distance_score>  (3952) 
1.977828

>  <ref_mols>  (3952) 
Z0719a,Z1597a

>  <ref_pdb>  (3952) 
Z0719a

>  <HIPPO Compound ID>  (3952) 
151370

>  <name>  (3952) 
LGKKEYGMUFUKAC-UHFFFAOYSA-N-P35-P35-P86-601528

>  <inspiration_score>  (3952) 
None

$$$$
KTJVYPVGEPSXMS-UHFFFAOYSA-N-P35-P35-P86-601528
     RDKit          3D

 16 16  0  0  0  0  0  0  0  0999 V2000
   -8.9601    4.2063  -18.8467 C   0  0  0  0  0  0  0  0  0  0  0  0
   -8.4258    4.5372  -17.5208 C   0  0  0  0  0  0  0  0  0  0  0  0
   -9.2147    4.3353  -16.4322 N   0  0  0  0  0  0  0  0  0  0  0  0
   -8.4916    4.6969  -15.4011 C   0  0  0  0  0  0  0  0  0  0  0  0
   -8.9650    4.6771  -14.0019 C   0  0  0  0  0  0  0  0  0  0  0  0
   -7.2415    5.1375  -15.7910 N   0  0  0  0  0  0  0  0  0  0  0  0
   -6.2560    5.6855  -14.8759 C   0  0  0  0  0  0  0  0  0  0  0  0
   -6.7967    6.6170  -13.7844 C   0  0  0  0  0  0  0  0  0  0  0  0
   -5.4241    4.5872  -14.2342 C   0  0  0  0  0  0  0  0  0  0  0  0
   -7.1711    4.9991  -17.1645 C   0  0  0  0  0  0  0  0  0  0  0  0
   -6.1606    5.2083  -18.0743 N   0  0  0  0  0  0  0  0  0  0  0  0
   -4.6317    5.4154  -17.8584 C   0  0  0  0  0  0  0  0  0  0  0  0
   -4.0113    5.5166  -16.8696 O   0  0  0  0  0  0  0  0  0  0  0  0
   -3.9675    5.3990  -19.2628 C   0  0  1  0  0  0  0  0  0  0  0  0
   -4.2955    6.6415  -20.0784 C   0  0  0  0  0  0  0  0  0  0  0  0
   -2.5434    5.2966  -19.1696 O   0  0  0  0  0  0  0  0  0  0  0  0
  1  2  1  0
  2  3  1  0
  3  4  2  0
  4  5  1  0
  4  6  1  0
  6  7  1  0
  7  8  1  0
  7  9  1  0
  6 10  1  0
 10 11  1  0
 11 12  1  0
 12 13  2  0
 12 14  1  0
 14 15  1  1
 14 16  1  0
 10  2  2  0
M  END
>  <energy_score>  (3953) 
-26.965686

>  <alias>  (3953) 
KTJVYPVGEPSXMS-UHFFFAOYSA-N-P35-P35-P86-601528

>  <HIPPO Pose ID>  (3953) 
81171

>  <smiles>  (3953) 
Cc1nc(C)n(C(C)C)c1NC(=O)C(C)O

>  <inchikey>  (3953) 
KTJVYPVGEPSXMS-UHFFFAOYSA-N

>  <distance_score>  (3953) 
1.703436

>  <ref_mols>  (3953) 
Z0719a,Z1597a

>  <ref_pdb>  (3953) 
Z0719a

>  <HIPPO Compound ID>  (3953) 
151371

>  <name>  (3953) 
KTJVYPVGEPSXMS-UHFFFAOYSA-N-P35-P35-P86-601528

>  <inspiration_score>  (3953) 
None

$$$$
GFBQHGLHYLKXAU-UHFFFAOYSA-N-P35-P35-P86-601528
     RDKit          3D

 16 17  0  0  0  0  0  0  0  0999 V2000
   -3.7725    2.6111  -12.2759 C   0  0  0  0  0  0  0  0  0  0  0  0
   -5.2379    3.0268  -12.3478 C   0  0  0  0  0  0  0  0  0  0  0  0
   -6.0587    1.8447  -12.8497 C   0  0  0  0  0  0  0  0  0  0  0  0
   -5.7200    3.5420  -10.9535 C   0  0  0  0  0  0  0  0  0  0  0  0
   -7.0692    4.1018  -11.0089 N   0  0  0  0  0  0  0  0  0  0  0  0
   -8.1948    3.3357  -10.8572 C   0  0  0  0  0  0  0  0  0  0  0  0
   -8.9827    3.5150  -11.8954 N   0  0  0  0  0  0  0  0  0  0  0  0
   -8.3837    4.4954  -12.6265 C   0  0  0  0  0  0  0  0  0  0  0  0
   -8.5350    4.5655  -13.9716 N   0  0  0  0  0  0  0  0  0  0  0  0
   -7.8260    5.4493  -15.0129 C   0  0  0  0  0  0  0  0  0  0  0  0
   -7.0538    6.3126  -14.8724 O   0  0  0  0  0  0  0  0  0  0  0  0
   -8.1746    4.9891  -16.4105 C   0  0  0  0  0  0  0  0  0  0  0  0
   -9.4301    4.2848  -16.5455 O   0  0  0  0  0  0  0  0  0  0  0  0
   -7.0603    4.4250  -17.2680 C   0  0  0  0  0  0  0  0  0  0  0  0
   -7.6661    5.7298  -17.6254 C   0  0  0  0  0  0  0  0  0  0  0  0
   -7.3890    5.1093  -11.9028 C   0  0  0  0  0  0  0  0  0  0  0  0
  1  2  1  0
  2  3  1  0
  2  4  1  0
  4  5  1  0
  5  6  1  0
  6  7  2  0
  7  8  1  0
  8  9  1  0
  9 10  1  0
 10 11  2  0
 10 12  1  0
 12 13  1  0
 12 14  1  0
 14 15  1  0
  8 16  2  0
 16  5  1  0
 15 12  1  0
M  END
>  <energy_score>  (3954) 
-14.242997

>  <alias>  (3954) 
GFBQHGLHYLKXAU-UHFFFAOYSA-N-P35-P35-P86-601528

>  <HIPPO Pose ID>  (3954) 
81179

>  <smiles>  (3954) 
CC(C)Cn1cnc(NC(=O)C2(O)CC2)c1

>  <inchikey>  (3954) 
GFBQHGLHYLKXAU-UHFFFAOYSA-N

>  <distance_score>  (3954) 
1.341584

>  <ref_mols>  (3954) 
Z0719a,Z1597a

>  <ref_pdb>  (3954) 
Z0719a

>  <HIPPO Compound ID>  (3954) 
151375

>  <name>  (3954) 
GFBQHGLHYLKXAU-UHFFFAOYSA-N-P35-P35-P86-601528

>  <inspiration_score>  (3954) 
None

$$$$
DIUFMWPMUGNNFU-UHFFFAOYSA-N-P86-P35-P86-601528
     RDKit          3D

 16 16  0  0  0  0  0  0  0  0999 V2000
   -5.7070    5.2019  -14.1113 C   0  0  0  0  0  0  0  0  0  0  0  0
   -5.9176    5.5859  -15.5663 C   0  0  0  0  0  0  0  0  0  0  0  0
   -7.0762    5.0983  -16.2610 N   0  0  0  0  0  0  0  0  0  0  0  0
   -8.2267    4.5703  -15.6975 C   0  0  0  0  0  0  0  0  0  0  0  0
   -8.5812    4.6061  -14.2591 C   0  0  0  0  0  0  0  0  0  0  0  0
   -8.9907    4.0299  -16.6188 N   0  0  0  0  0  0  0  0  0  0  0  0
   -8.3693    4.2893  -17.7958 C   0  0  0  0  0  0  0  0  0  0  0  0
   -8.9456    3.8083  -19.0401 C   0  0  0  0  0  0  0  0  0  0  0  0
   -7.2213    5.0250  -17.6291 C   0  0  0  0  0  0  0  0  0  0  0  0
   -6.4745    5.4955  -18.6788 N   0  0  0  0  0  0  0  0  0  0  0  0
   -5.1695    6.3419  -18.6906 C   0  0  0  0  0  0  0  0  0  0  0  0
   -4.5766    6.8307  -17.8109 O   0  0  0  0  0  0  0  0  0  0  0  0
   -4.7699    6.3777  -20.1714 C   0  0  0  0  0  0  0  0  0  0  0  0
   -3.4942    7.1668  -20.4638 C   0  0  0  0  0  0  0  0  0  0  0  0
   -3.7471    8.6747  -20.3842 C   0  0  0  0  0  0  0  0  0  0  0  0
   -2.9477    6.8070  -21.8464 C   0  0  0  0  0  0  0  0  0  0  0  0
  1  2  1  0
  2  3  1  0
  3  4  1  0
  4  5  1  0
  4  6  2  0
  6  7  1  0
  7  8  1  0
  7  9  2  0
  9 10  1  0
 10 11  1  0
 11 12  2  0
 11 13  1  0
 13 14  1  0
 14 15  1  0
 14 16  1  0
  9  3  1  0
M  END
>  <energy_score>  (3955) 
-25.811625

>  <alias>  (3955) 
DIUFMWPMUGNNFU-UHFFFAOYSA-N-P86-P35-P86-601528

>  <HIPPO Pose ID>  (3955) 
81184

>  <smiles>  (3955) 
CCn1c(C)nc(C)c1NC(=O)CC(C)C

>  <inchikey>  (3955) 
DIUFMWPMUGNNFU-UHFFFAOYSA-N

>  <distance_score>  (3955) 
1.521323

>  <ref_mols>  (3955) 
Z0719a,Z1597a

>  <ref_pdb>  (3955) 
Z0719a

>  <HIPPO Compound ID>  (3955) 
151377

>  <name>  (3955) 
DIUFMWPMUGNNFU-UHFFFAOYSA-N-P86-P35-P86-601528

>  <inspiration_score>  (3955) 
None

$$$$
GTFPBIVUVOHXAQ-UHFFFAOYSA-N-P86-P35-P86-601528
     RDKit          3D

 16 17  0  0  0  0  0  0  0  0999 V2000
   -2.6634    7.5770  -23.1543 C   0  0  0  0  0  0  0  0  0  0  0  0
   -3.5176    7.3650  -21.9002 C   0  0  0  0  0  0  0  0  0  0  0  0
   -4.9743    7.1625  -22.3140 C   0  0  0  0  0  0  0  0  0  0  0  0
   -2.9354    6.2119  -21.0770 C   0  0  0  0  0  0  0  0  0  0  0  0
   -3.4908    6.1794  -19.6644 C   0  0  0  0  0  0  0  0  0  0  0  0
   -2.9456    6.6829  -18.7616 O   0  0  0  0  0  0  0  0  0  0  0  0
   -4.8278    5.3915  -19.7203 N   0  0  0  0  0  0  0  0  0  0  0  0
   -5.7514    5.1598  -18.7595 C   0  0  0  0  0  0  0  0  0  0  0  0
   -6.9228    4.4627  -18.9143 C   0  0  0  0  0  0  0  0  0  0  0  0
   -7.5041    4.4739  -17.6842 N   0  0  0  0  0  0  0  0  0  0  0  0
   -8.7041    3.9293  -17.3739 N   0  0  0  0  0  0  0  0  0  0  0  0
   -8.9794    4.0668  -16.1198 C   0  0  0  0  0  0  0  0  0  0  0  0
   -8.1374    4.7009  -15.0830 C   0  0  0  0  0  0  0  0  0  0  0  0
   -6.9798    5.2343  -15.4794 C   0  0  0  0  0  0  0  0  0  0  0  0
   -6.6341    5.1496  -16.8413 C   0  0  0  0  0  0  0  0  0  0  0  0
   -5.5877    5.6086  -17.4862 N   0  0  0  0  0  0  0  0  0  0  0  0
  1  2  1  0
  2  3  1  0
  2  4  1  0
  4  5  1  0
  5  6  2  0
  5  7  1  0
  7  8  1  0
  8  9  2  0
  9 10  1  0
 10 11  1  0
 11 12  2  0
 12 13  1  0
 13 14  2  0
 14 15  1  0
 15 16  2  0
 16  8  1  0
 15 10  1  0
M  END
>  <energy_score>  (3956) 
-18.279812

>  <alias>  (3956) 
GTFPBIVUVOHXAQ-UHFFFAOYSA-N-P86-P35-P86-601528

>  <HIPPO Pose ID>  (3956) 
81196

>  <smiles>  (3956) 
CC(C)CC(=O)Nc1cn2ncccc2n1

>  <inchikey>  (3956) 
GTFPBIVUVOHXAQ-UHFFFAOYSA-N

>  <distance_score>  (3956) 
1.698757

>  <ref_mols>  (3956) 
Z0719a,Z1597a

>  <ref_pdb>  (3956) 
Z0719a

>  <HIPPO Compound ID>  (3956) 
151383

>  <name>  (3956) 
GTFPBIVUVOHXAQ-UHFFFAOYSA-N-P86-P35-P86-601528

>  <inspiration_score>  (3956) 
None

$$$$
KNTHTMZJXNYLEU-UHFFFAOYSA-N-P86-P35-P86-601528
     RDKit          3D

 16 17  0  0  0  0  0  0  0  0999 V2000
   -5.0212    8.5066  -21.8096 C   0  0  0  0  0  0  0  0  0  0  0  0
   -3.8109    7.6131  -22.0580 C   0  0  0  0  0  0  0  0  0  0  0  0
   -2.5400    8.2597  -21.5057 C   0  0  0  0  0  0  0  0  0  0  0  0
   -4.0322    6.1842  -21.5683 C   0  0  0  0  0  0  0  0  0  0  0  0
   -4.1750    6.0632  -20.0607 C   0  0  0  0  0  0  0  0  0  0  0  0
   -3.2831    6.2895  -19.3401 O   0  0  0  0  0  0  0  0  0  0  0  0
   -5.6342    5.6303  -19.7513 N   0  0  0  0  0  0  0  0  0  0  0  0
   -6.2259    5.3173  -18.5777 C   0  0  0  0  0  0  0  0  0  0  0  0
   -7.4659    4.7560  -18.4032 C   0  0  0  0  0  0  0  0  0  0  0  0
   -7.6097    4.6730  -17.0467 N   0  0  0  0  0  0  0  0  0  0  0  0
   -8.6903    4.2715  -16.2838 C   0  0  0  0  0  0  0  0  0  0  0  0
   -8.5912    4.3511  -14.9522 C   0  0  0  0  0  0  0  0  0  0  0  0
   -7.2887    4.8175  -14.4241 C   0  0  0  0  0  0  0  0  0  0  0  0
   -6.2777    5.2229  -15.1178 N   0  0  0  0  0  0  0  0  0  0  0  0
   -6.4372    5.1678  -16.4697 C   0  0  0  0  0  0  0  0  0  0  0  0
   -5.6056    5.5713  -17.3994 N   0  0  0  0  0  0  0  0  0  0  0  0
  1  2  1  0
  2  3  1  0
  2  4  1  0
  4  5  1  0
  5  6  2  0
  5  7  1  0
  7  8  1  0
  8  9  2  0
  9 10  1  0
 10 11  1  0
 11 12  2  0
 12 13  1  0
 13 14  2  0
 14 15  1  0
 15 16  2  0
 16  8  1  0
 15 10  1  0
M  END
>  <energy_score>  (3957) 
-6.845465

>  <alias>  (3957) 
KNTHTMZJXNYLEU-UHFFFAOYSA-N-P86-P35-P86-601528

>  <HIPPO Pose ID>  (3957) 
81198

>  <smiles>  (3957) 
CC(C)CC(=O)Nc1cn2cccnc2n1

>  <inchikey>  (3957) 
KNTHTMZJXNYLEU-UHFFFAOYSA-N

>  <distance_score>  (3957) 
1.555698

>  <ref_mols>  (3957) 
Z0719a,Z1597a

>  <ref_pdb>  (3957) 
Z0719a

>  <HIPPO Compound ID>  (3957) 
151384

>  <name>  (3957) 
KNTHTMZJXNYLEU-UHFFFAOYSA-N-P86-P35-P86-601528

>  <inspiration_score>  (3957) 
None

$$$$
WQKMROCACZQFOB-UHFFFAOYSA-N-P86-P35-P86-601528
     RDKit          3D

 16 17  0  0  0  0  0  0  0  0999 V2000
   -4.1813    6.6030  -20.5845 C   0  0  0  0  0  0  0  0  0  0  0  0
   -5.0095    7.4414  -19.6567 C   0  0  0  0  0  0  0  0  0  0  0  0
   -5.4911    8.5321  -19.9405 O   0  0  0  0  0  0  0  0  0  0  0  0
   -5.3175    6.8261  -18.2960 C   0  0  0  0  0  0  0  0  0  0  0  0
   -4.7041    7.1361  -17.3567 O   0  0  0  0  0  0  0  0  0  0  0  0
   -6.4860    5.8325  -18.4431 N   0  0  0  0  0  0  0  0  0  0  0  0
   -7.1745    5.1166  -17.4927 C   0  0  0  0  0  0  0  0  0  0  0  0
   -8.2421    4.2869  -17.7678 C   0  0  0  0  0  0  0  0  0  0  0  0
   -8.7554    3.8701  -19.0692 C   0  0  0  0  0  0  0  0  0  0  0  0
   -8.8801    3.8797  -16.6338 N   0  0  0  0  0  0  0  0  0  0  0  0
   -8.1963    4.4116  -15.6421 C   0  0  0  0  0  0  0  0  0  0  0  0
   -8.5949    4.3488  -14.2195 C   0  0  0  0  0  0  0  0  0  0  0  0
   -7.0658    5.0398  -16.1207 N   0  0  0  0  0  0  0  0  0  0  0  0
   -5.9089    5.4656  -15.3159 C   0  0  0  0  0  0  0  0  0  0  0  0
   -5.6281    5.1591  -13.8655 C   0  0  0  0  0  0  0  0  0  0  0  0
   -6.0237    6.5462  -14.2689 C   0  0  0  0  0  0  0  0  0  0  0  0
  1  2  1  0
  2  3  2  0
  2  4  1  0
  4  5  2  0
  4  6  1  0
  6  7  1  0
  7  8  2  0
  8  9  1  0
  8 10  1  0
 10 11  2  0
 11 12  1  0
 11 13  1  0
 13 14  1  0
 14 15  1  0
 15 16  1  0
 13  7  1  0
 16 14  1  0
M  END
>  <energy_score>  (3958) 
-12.146909

>  <alias>  (3958) 
WQKMROCACZQFOB-UHFFFAOYSA-N-P86-P35-P86-601528

>  <HIPPO Pose ID>  (3958) 
81210

>  <smiles>  (3958) 
CC(=O)C(=O)Nc1c(C)nc(C)n1C1CC1

>  <inchikey>  (3958) 
WQKMROCACZQFOB-UHFFFAOYSA-N

>  <distance_score>  (3958) 
1.831273

>  <ref_mols>  (3958) 
Z0719a,Z1597a

>  <ref_pdb>  (3958) 
Z0719a

>  <HIPPO Compound ID>  (3958) 
151390

>  <name>  (3958) 
WQKMROCACZQFOB-UHFFFAOYSA-N-P86-P35-P86-601528

>  <inspiration_score>  (3958) 
None

$$$$
BBTNUDIGYYNVNY-UHFFFAOYSA-N-P35-P35-P86-601528
     RDKit          3D

 16 17  0  0  0  0  0  0  0  0999 V2000
   -4.4582    7.8171  -21.9861 C   0  0  0  0  0  0  0  0  0  0  0  0
   -3.4932    6.8428  -21.4049 C   0  0  0  0  0  0  0  0  0  0  0  0
   -2.5944    6.2845  -22.0250 O   0  0  0  0  0  0  0  0  0  0  0  0
   -3.7218    6.4681  -19.9636 C   0  0  0  0  0  0  0  0  0  0  0  0
   -2.8962    6.7162  -19.1807 O   0  0  0  0  0  0  0  0  0  0  0  0
   -5.0971    5.8012  -19.7864 N   0  0  0  0  0  0  0  0  0  0  0  0
   -5.6674    5.2517  -18.7000 C   0  0  0  0  0  0  0  0  0  0  0  0
   -6.9706    4.8536  -18.5276 C   0  0  0  0  0  0  0  0  0  0  0  0
   -7.0696    4.6434  -17.1805 N   0  0  0  0  0  0  0  0  0  0  0  0
   -8.2135    4.6277  -16.4540 N   0  0  0  0  0  0  0  0  0  0  0  0
   -7.9605    4.5813  -15.1862 C   0  0  0  0  0  0  0  0  0  0  0  0
   -9.2382    4.9544  -14.1308 Cl  0  0  0  0  0  0  0  0  0  0  0  0
   -6.6484    4.3516  -14.5434 C   0  0  0  0  0  0  0  0  0  0  0  0
   -5.5746    4.4533  -15.3194 C   0  0  0  0  0  0  0  0  0  0  0  0
   -5.7768    4.7130  -16.6805 C   0  0  0  0  0  0  0  0  0  0  0  0
   -4.9208    5.1070  -17.5814 N   0  0  0  0  0  0  0  0  0  0  0  0
  1  2  1  0
  2  3  2  0
  2  4  1  0
  4  5  2  0
  4  6  1  0
  6  7  1  0
  7  8  2  0
  8  9  1  0
  9 10  1  0
 10 11  2  0
 11 12  1  0
 11 13  1  0
 13 14  2  0
 14 15  1  0
 15 16  2  0
 16  7  1  0
 15  9  1  0
M  END
>  <energy_score>  (3959) 
-16.110764

>  <alias>  (3959) 
BBTNUDIGYYNVNY-UHFFFAOYSA-N-P35-P35-P86-601528

>  <HIPPO Pose ID>  (3959) 
81211

>  <smiles>  (3959) 
CC(=O)C(=O)Nc1cn2nc(Cl)ccc2n1

>  <inchikey>  (3959) 
BBTNUDIGYYNVNY-UHFFFAOYSA-N

>  <distance_score>  (3959) 
1.845316

>  <ref_mols>  (3959) 
Z0719a,Z1597a

>  <ref_pdb>  (3959) 
Z0719a

>  <HIPPO Compound ID>  (3959) 
151391

>  <name>  (3959) 
BBTNUDIGYYNVNY-UHFFFAOYSA-N-P35-P35-P86-601528

>  <inspiration_score>  (3959) 
None

$$$$
FZCLBLBCSWTWRP-UHFFFAOYSA-N-P35-P35-P86-601528
     RDKit          3D

 16 16  0  0  0  0  0  0  0  0999 V2000
   -4.3641    6.6816  -19.9791 C   0  0  0  0  0  0  0  0  0  0  0  0
   -3.9501    5.4294  -19.2544 C   0  0  0  0  0  0  0  0  0  0  0  0
   -3.1201    4.6522  -19.7141 O   0  0  0  0  0  0  0  0  0  0  0  0
   -4.6178    5.1714  -17.8801 C   0  0  0  0  0  0  0  0  0  0  0  0
   -3.9610    5.0540  -16.9247 O   0  0  0  0  0  0  0  0  0  0  0  0
   -6.1524    5.1688  -18.0460 N   0  0  0  0  0  0  0  0  0  0  0  0
   -7.1520    4.9368  -17.1262 C   0  0  0  0  0  0  0  0  0  0  0  0
   -8.4240    4.5361  -17.5105 C   0  0  0  0  0  0  0  0  0  0  0  0
   -8.9517    4.2518  -18.8502 C   0  0  0  0  0  0  0  0  0  0  0  0
   -9.2449    4.3430  -16.4456 N   0  0  0  0  0  0  0  0  0  0  0  0
   -8.5276    4.6565  -15.3991 C   0  0  0  0  0  0  0  0  0  0  0  0
   -9.0017    4.6647  -13.9950 C   0  0  0  0  0  0  0  0  0  0  0  0
   -7.2372    5.0202  -15.7516 N   0  0  0  0  0  0  0  0  0  0  0  0
   -6.3243    5.4255  -14.6995 C   0  0  0  0  0  0  0  0  0  0  0  0
   -5.5166    4.2482  -14.1911 C   0  0  0  0  0  0  0  0  0  0  0  0
   -5.5916    6.7327  -14.9177 C   0  0  0  0  0  0  0  0  0  0  0  0
  1  2  1  0
  2  3  2  0
  2  4  1  0
  4  5  2  0
  4  6  1  0
  6  7  1  0
  7  8  2  0
  8  9  1  0
  8 10  1  0
 10 11  2  0
 11 12  1  0
 11 13  1  0
 13 14  1  0
 14 15  1  0
 14 16  1  0
 13  7  1  0
M  END
>  <energy_score>  (3960) 
-15.982037

>  <alias>  (3960) 
FZCLBLBCSWTWRP-UHFFFAOYSA-N-P35-P35-P86-601528

>  <HIPPO Pose ID>  (3960) 
81213

>  <smiles>  (3960) 
CC(=O)C(=O)Nc1c(C)nc(C)n1C(C)C

>  <inchikey>  (3960) 
FZCLBLBCSWTWRP-UHFFFAOYSA-N

>  <distance_score>  (3960) 
1.92405

>  <ref_mols>  (3960) 
Z0719a,Z1597a

>  <ref_pdb>  (3960) 
Z0719a

>  <HIPPO Compound ID>  (3960) 
151392

>  <name>  (3960) 
FZCLBLBCSWTWRP-UHFFFAOYSA-N-P35-P35-P86-601528

>  <inspiration_score>  (3960) 
None

$$$$
GUGQPVRVZQMOAD-UHFFFAOYSA-N-P86-P35-P86-601528
     RDKit          3D

 16 17  0  0  0  0  0  0  0  0999 V2000
   -3.3435    2.9107  -12.6062 C   0  0  0  0  0  0  0  0  0  0  0  0
   -4.6984    2.7952  -12.1897 O   0  0  0  0  0  0  0  0  0  0  0  0
   -5.0067    3.5405  -11.0853 C   0  0  0  0  0  0  0  0  0  0  0  0
   -4.1952    4.2391  -10.4811 O   0  0  0  0  0  0  0  0  0  0  0  0
   -6.3813    3.3278  -10.6481 C   0  0  0  0  0  0  0  0  0  0  0  0
   -6.7068    3.1879   -9.3080 N   0  0  0  0  0  0  0  0  0  0  0  0
   -7.9726    2.8472   -9.2801 C   0  0  0  0  0  0  0  0  0  0  0  0
   -8.5181    2.8647  -10.5264 N   0  0  0  0  0  0  0  0  0  0  0  0
   -7.5478    3.2903  -11.3939 C   0  0  0  0  0  0  0  0  0  0  0  0
   -7.8853    3.7233  -12.6375 N   0  0  0  0  0  0  0  0  0  0  0  0
   -7.0747    4.5176  -13.6707 C   0  0  0  0  0  0  0  0  0  0  0  0
   -5.9630    4.8623  -13.6551 O   0  0  0  0  0  0  0  0  0  0  0  0
   -7.9805    4.9426  -14.7854 C   0  0  0  0  0  0  0  0  0  0  0  0
   -8.9041    6.0430  -14.3493 C   0  0  0  0  0  0  0  0  0  0  0  0
   -7.3914    4.9255  -16.1900 C   0  0  0  0  0  0  0  0  0  0  0  0
   -8.5324    4.0212  -15.8416 C   0  0  0  0  0  0  0  0  0  0  0  0
  1  2  1  0
  2  3  1  0
  3  4  2  0
  3  5  1  0
  5  6  1  0
  6  7  2  0
  7  8  1  0
  8  9  1  0
  9 10  1  0
 10 11  1  0
 11 12  2  0
 11 13  1  0
 13 14  1  0
 13 15  1  0
 15 16  1  0
  9  5  2  0
 16 13  1  0
M  END
>  <energy_score>  (3961) 
-20.975547

>  <alias>  (3961) 
GUGQPVRVZQMOAD-UHFFFAOYSA-N-P86-P35-P86-601528

>  <HIPPO Pose ID>  (3961) 
81218

>  <smiles>  (3961) 
COC(=O)c1nc[nH]c1NC(=O)C1(C)CC1

>  <inchikey>  (3961) 
GUGQPVRVZQMOAD-UHFFFAOYSA-N

>  <distance_score>  (3961) 
1.929753

>  <ref_mols>  (3961) 
Z0719a,Z1597a

>  <ref_pdb>  (3961) 
Z0719a

>  <HIPPO Compound ID>  (3961) 
151394

>  <name>  (3961) 
GUGQPVRVZQMOAD-UHFFFAOYSA-N-P86-P35-P86-601528

>  <inspiration_score>  (3961) 
None

$$$$
VZKYJSSCRBSWQJ-UHFFFAOYSA-N-P86-P35-P86-601528
     RDKit          3D

 16 17  0  0  0  0  0  0  0  0999 V2000
   -4.9014    6.6384  -21.5678 C   0  0  0  0  0  0  0  0  0  0  0  0
   -3.4495    7.0832  -21.4222 C   0  0  0  0  0  0  0  0  0  0  0  0
   -3.3677    8.6116  -21.4140 C   0  0  0  0  0  0  0  0  0  0  0  0
   -2.7082    6.4736  -20.2205 C   0  0  0  0  0  0  0  0  0  0  0  0
   -3.2930    6.8409  -18.8570 C   0  0  0  0  0  0  0  0  0  0  0  0
   -2.8991    7.7257  -18.2043 O   0  0  0  0  0  0  0  0  0  0  0  0
   -4.4757    5.8657  -18.6201 N   0  0  0  0  0  0  0  0  0  0  0  0
   -5.3018    5.7283  -17.5572 C   0  0  0  0  0  0  0  0  0  0  0  0
   -6.3081    4.8036  -17.5138 C   0  0  0  0  0  0  0  0  0  0  0  0
   -6.9714    5.0548  -16.3503 N   0  0  0  0  0  0  0  0  0  0  0  0
   -8.2389    4.4983  -15.9078 C   0  0  0  0  0  0  0  0  0  0  0  0
   -8.9844    3.7519  -16.9803 C   0  0  0  0  0  0  0  0  0  0  0  0
  -10.2898    4.2535  -17.5484 C   0  0  0  0  0  0  0  0  0  0  0  0
   -9.0935    4.2119  -18.4262 C   0  0  0  0  0  0  0  0  0  0  0  0
   -6.2660    6.0188  -15.6883 C   0  0  0  0  0  0  0  0  0  0  0  0
   -5.2832    6.4823  -16.4291 N   0  0  0  0  0  0  0  0  0  0  0  0
  1  2  1  0
  2  3  1  0
  2  4  1  0
  4  5  1  0
  5  6  2  0
  5  7  1  0
  7  8  1  0
  8  9  2  0
  9 10  1  0
 10 11  1  0
 11 12  1  0
 12 13  1  0
 13 14  1  0
 10 15  1  0
 15 16  2  0
 16  8  1  0
 14 12  1  0
M  END
>  <energy_score>  (3962) 
-8.595209

>  <alias>  (3962) 
VZKYJSSCRBSWQJ-UHFFFAOYSA-N-P86-P35-P86-601528

>  <HIPPO Pose ID>  (3962) 
81222

>  <smiles>  (3962) 
CC(C)CC(=O)Nc1cn(CC2CC2)cn1

>  <inchikey>  (3962) 
VZKYJSSCRBSWQJ-UHFFFAOYSA-N

>  <distance_score>  (3962) 
1.959106

>  <ref_mols>  (3962) 
Z0719a,Z1597a

>  <ref_pdb>  (3962) 
Z0719a

>  <HIPPO Compound ID>  (3962) 
151396

>  <name>  (3962) 
VZKYJSSCRBSWQJ-UHFFFAOYSA-N-P86-P35-P86-601528

>  <inspiration_score>  (3962) 
None

$$$$
QLNGNJJQGWSTFT-UHFFFAOYSA-N-P35-P35-P86-601528
     RDKit          3D

 16 17  0  0  0  0  0  0  0  0999 V2000
   -5.1728    2.5665  -12.6405 C   0  0  0  0  0  0  0  0  0  0  0  0
   -6.6730    2.5354  -12.3741 C   0  0  0  0  0  0  0  0  0  0  0  0
   -7.1872    3.7855  -11.8336 N   0  0  0  0  0  0  0  0  0  0  0  0
   -7.5692    4.0401  -10.5320 C   0  0  0  0  0  0  0  0  0  0  0  0
   -7.5977    3.0425   -9.4384 C   0  0  0  0  0  0  0  0  0  0  0  0
   -7.9184    5.3024  -10.3890 N   0  0  0  0  0  0  0  0  0  0  0  0
   -7.8669    5.8596  -11.6431 C   0  0  0  0  0  0  0  0  0  0  0  0
   -8.3085    7.2575  -11.8275 C   0  0  0  0  0  0  0  0  0  0  0  0
   -7.4017    4.9382  -12.5609 C   0  0  0  0  0  0  0  0  0  0  0  0
   -7.1853    4.9987  -13.9095 N   0  0  0  0  0  0  0  0  0  0  0  0
   -7.2100    6.1943  -14.8703 C   0  0  0  0  0  0  0  0  0  0  0  0
   -7.4932    7.3068  -14.6830 O   0  0  0  0  0  0  0  0  0  0  0  0
   -6.8199    5.7891  -16.2830 C   0  0  0  0  0  0  0  0  0  0  0  0
   -5.7236    6.6151  -16.9184 C   0  0  0  0  0  0  0  0  0  0  0  0
   -6.9144    4.3586  -16.7726 C   0  0  0  0  0  0  0  0  0  0  0  0
   -7.9677    5.3219  -17.1810 C   0  0  0  0  0  0  0  0  0  0  0  0
  1  2  1  0
  2  3  1  0
  3  4  1  0
  4  5  1  0
  4  6  2  0
  6  7  1  0
  7  8  1  0
  7  9  2  0
  9 10  1  0
 10 11  1  0
 11 12  2  0
 11 13  1  0
 13 14  1  0
 13 15  1  0
 15 16  1  0
  9  3  1  0
 16 13  1  0
M  END
>  <energy_score>  (3963) 
-28.154347

>  <alias>  (3963) 
QLNGNJJQGWSTFT-UHFFFAOYSA-N-P35-P35-P86-601528

>  <HIPPO Pose ID>  (3963) 
81229

>  <smiles>  (3963) 
CCn1c(C)nc(C)c1NC(=O)C1(C)CC1

>  <inchikey>  (3963) 
QLNGNJJQGWSTFT-UHFFFAOYSA-N

>  <distance_score>  (3963) 
1.631378

>  <ref_mols>  (3963) 
Z0719a,Z1597a

>  <ref_pdb>  (3963) 
Z0719a

>  <HIPPO Compound ID>  (3963) 
151400

>  <name>  (3963) 
QLNGNJJQGWSTFT-UHFFFAOYSA-N-P35-P35-P86-601528

>  <inspiration_score>  (3963) 
None

$$$$
QITBJNMFNLJCHT-UHFFFAOYSA-N-P35-P35-P86-601528
     RDKit          3D

 16 17  0  0  0  0  0  0  0  0999 V2000
   -8.3383    2.4366   -8.8318 C   0  0  0  0  0  0  0  0  0  0  0  0
   -8.2773    3.4486   -9.9203 C   0  0  0  0  0  0  0  0  0  0  0  0
   -8.1665    3.1781  -11.2042 N   0  0  0  0  0  0  0  0  0  0  0  0
   -8.0890    4.3829  -11.8358 C   0  0  0  0  0  0  0  0  0  0  0  0
   -7.7782    4.3638  -13.1478 N   0  0  0  0  0  0  0  0  0  0  0  0
   -7.3017    5.4859  -14.0740 C   0  0  0  0  0  0  0  0  0  0  0  0
   -7.1733    6.6244  -13.8755 O   0  0  0  0  0  0  0  0  0  0  0  0
   -6.8767    4.8856  -15.3755 C   0  0  0  0  0  0  0  0  0  0  0  0
   -5.6323    4.0361  -15.2693 C   0  0  0  0  0  0  0  0  0  0  0  0
   -7.0423    5.6826  -16.6523 C   0  0  0  0  0  0  0  0  0  0  0  0
   -7.9732    4.5417  -16.3734 C   0  0  0  0  0  0  0  0  0  0  0  0
   -8.2340    5.4250  -10.9586 C   0  0  0  0  0  0  0  0  0  0  0  0
   -8.2875    6.8244  -11.1896 C   0  0  0  0  0  0  0  0  0  0  0  0
   -8.3750    7.9793  -11.2691 N   0  0  0  0  0  0  0  0  0  0  0  0
   -8.3027    4.8116   -9.7290 N   0  0  0  0  0  0  0  0  0  0  0  0
   -8.3217    5.4868   -8.4608 C   0  0  0  0  0  0  0  0  0  0  0  0
  1  2  1  0
  2  3  2  0
  3  4  1  0
  4  5  1  0
  5  6  1  0
  6  7  2  0
  6  8  1  0
  8  9  1  0
  8 10  1  0
 10 11  1  0
  4 12  2  0
 12 13  1  0
 13 14  3  0
 12 15  1  0
 15 16  1  0
 15  2  1  0
 11  8  1  0
M  END
>  <energy_score>  (3964) 
-27.194683

>  <alias>  (3964) 
QITBJNMFNLJCHT-UHFFFAOYSA-N-P35-P35-P86-601528

>  <HIPPO Pose ID>  (3964) 
81231

>  <smiles>  (3964) 
Cc1nc(NC(=O)C2(C)CC2)c(C#N)n1C

>  <inchikey>  (3964) 
QITBJNMFNLJCHT-UHFFFAOYSA-N

>  <distance_score>  (3964) 
1.277039

>  <ref_mols>  (3964) 
Z0719a,Z1597a

>  <ref_pdb>  (3964) 
Z0719a

>  <HIPPO Compound ID>  (3964) 
151401

>  <name>  (3964) 
QITBJNMFNLJCHT-UHFFFAOYSA-N-P35-P35-P86-601528

>  <inspiration_score>  (3964) 
None

$$$$
CQLJIRMTSNHLKX-UHFFFAOYSA-N-P86-P35-P86-601528
     RDKit          3D

 16 18  0  0  0  0  0  0  0  0999 V2000
   -3.6391    6.9608  -22.1183 C   0  0  0  0  0  0  0  0  0  0  0  0
   -2.9030    6.3917  -20.9355 C   0  0  0  0  0  0  0  0  0  0  0  0
   -3.6279    6.4531  -19.6170 C   0  0  0  0  0  0  0  0  0  0  0  0
   -3.2365    7.1512  -18.7712 O   0  0  0  0  0  0  0  0  0  0  0  0
   -4.8646    5.5442  -19.6658 N   0  0  0  0  0  0  0  0  0  0  0  0
   -5.7737    5.2466  -18.7112 C   0  0  0  0  0  0  0  0  0  0  0  0
   -6.9066    4.4919  -18.8802 C   0  0  0  0  0  0  0  0  0  0  0  0
   -7.5064    4.4818  -17.6592 N   0  0  0  0  0  0  0  0  0  0  0  0
   -8.6998    3.9132  -17.3713 N   0  0  0  0  0  0  0  0  0  0  0  0
   -9.0016    4.0462  -16.1231 C   0  0  0  0  0  0  0  0  0  0  0  0
   -8.1872    4.6861  -15.0682 C   0  0  0  0  0  0  0  0  0  0  0  0
   -7.0335    5.2429  -15.4427 C   0  0  0  0  0  0  0  0  0  0  0  0
   -6.6682    5.1774  -16.8002 C   0  0  0  0  0  0  0  0  0  0  0  0
   -5.6341    5.6820  -17.4301 N   0  0  0  0  0  0  0  0  0  0  0  0
   -1.9759    5.2078  -21.1625 C   0  0  0  0  0  0  0  0  0  0  0  0
   -1.3897    6.5636  -20.9184 C   0  0  0  0  0  0  0  0  0  0  0  0
  1  2  1  0
  2  3  1  0
  3  4  2  0
  3  5  1  0
  5  6  1  0
  6  7  2  0
  7  8  1  0
  8  9  1  0
  9 10  2  0
 10 11  1  0
 11 12  2  0
 12 13  1  0
 13 14  2  0
  2 15  1  0
 15 16  1  0
 16  2  1  0
 14  6  1  0
 13  8  1  0
M  END
>  <energy_score>  (3965) 
-27.735185

>  <alias>  (3965) 
CQLJIRMTSNHLKX-UHFFFAOYSA-N-P86-P35-P86-601528

>  <HIPPO Pose ID>  (3965) 
81236

>  <smiles>  (3965) 
CC1(C(=O)Nc2cn3ncccc3n2)CC1

>  <inchikey>  (3965) 
CQLJIRMTSNHLKX-UHFFFAOYSA-N

>  <distance_score>  (3965) 
1.719008

>  <ref_mols>  (3965) 
Z0719a,Z1597a

>  <ref_pdb>  (3965) 
Z0719a

>  <HIPPO Compound ID>  (3965) 
151403

>  <name>  (3965) 
CQLJIRMTSNHLKX-UHFFFAOYSA-N-P86-P35-P86-601528

>  <inspiration_score>  (3965) 
None

$$$$
AYAGVRAKKQBVKS-UHFFFAOYSA-N-P86-P35-P86-601528
     RDKit          3D

 16 17  0  0  0  0  0  0  0  0999 V2000
   -5.0043    2.8460  -12.0953 C   0  0  0  0  0  0  0  0  0  0  0  0
   -6.5204    2.9394  -12.1548 C   0  0  0  0  0  0  0  0  0  0  0  0
   -7.0646    4.1733  -11.6101 N   0  0  0  0  0  0  0  0  0  0  0  0
   -7.4601    4.3720  -10.2990 C   0  0  0  0  0  0  0  0  0  0  0  0
   -7.3603    3.3545   -9.2316 C   0  0  0  0  0  0  0  0  0  0  0  0
   -7.9670    5.5783  -10.1351 N   0  0  0  0  0  0  0  0  0  0  0  0
   -8.0843    6.1003  -11.3924 C   0  0  0  0  0  0  0  0  0  0  0  0
   -8.6675    7.4398  -11.5976 C   0  0  0  0  0  0  0  0  0  0  0  0
   -7.5588    5.2389  -12.3307 C   0  0  0  0  0  0  0  0  0  0  0  0
   -7.6217    5.3318  -13.6889 N   0  0  0  0  0  0  0  0  0  0  0  0
   -6.5996    4.9150  -14.7732 C   0  0  0  0  0  0  0  0  0  0  0  0
   -5.5774    4.3570  -14.6758 O   0  0  0  0  0  0  0  0  0  0  0  0
   -7.2377    5.2898  -16.1338 C   0  0  0  0  0  0  0  0  0  0  0  0
   -6.4215    5.1538  -17.4312 C   0  0  0  0  0  0  0  0  0  0  0  0
   -7.6751    4.6017  -18.1255 C   0  0  0  0  0  0  0  0  0  0  0  0
   -8.2763    4.3163  -16.7397 C   0  0  0  0  0  0  0  0  0  0  0  0
  1  2  1  0
  2  3  1  0
  3  4  1  0
  4  5  1  0
  4  6  2  0
  6  7  1  0
  7  8  1  0
  7  9  2  0
  9 10  1  0
 10 11  1  0
 11 12  2  0
 11 13  1  0
 13 14  1  0
 14 15  1  0
 15 16  1  0
  9  3  1  0
 16 13  1  0
M  END
>  <energy_score>  (3966) 
-14.820529

>  <alias>  (3966) 
AYAGVRAKKQBVKS-UHFFFAOYSA-N-P86-P35-P86-601528

>  <HIPPO Pose ID>  (3966) 
81238

>  <smiles>  (3966) 
CCn1c(C)nc(C)c1NC(=O)C1CCC1

>  <inchikey>  (3966) 
AYAGVRAKKQBVKS-UHFFFAOYSA-N

>  <distance_score>  (3966) 
1.263854

>  <ref_mols>  (3966) 
Z0719a,Z1597a

>  <ref_pdb>  (3966) 
Z0719a

>  <HIPPO Compound ID>  (3966) 
151404

>  <name>  (3966) 
AYAGVRAKKQBVKS-UHFFFAOYSA-N-P86-P35-P86-601528

>  <inspiration_score>  (3966) 
None

$$$$
MKBQWIMECRBBMH-UHFFFAOYSA-N-P35-P35-P86-601528
     RDKit          3D

 16 17  0  0  0  0  0  0  0  0999 V2000
   -7.4871    3.1187   -9.3049 C   0  0  0  0  0  0  0  0  0  0  0  0
   -7.6254    4.1298  -10.3794 C   0  0  0  0  0  0  0  0  0  0  0  0
   -8.0676    5.3587  -10.1862 N   0  0  0  0  0  0  0  0  0  0  0  0
   -8.1584    5.9033  -11.4330 C   0  0  0  0  0  0  0  0  0  0  0  0
   -8.6206    7.2387  -11.6386 C   0  0  0  0  0  0  0  0  0  0  0  0
   -8.9778    8.3138  -11.9010 N   0  0  0  0  0  0  0  0  0  0  0  0
   -7.7037    5.0393  -12.4081 C   0  0  0  0  0  0  0  0  0  0  0  0
   -7.6859    5.2296  -13.7647 N   0  0  0  0  0  0  0  0  0  0  0  0
   -6.7956    4.5907  -14.8582 C   0  0  0  0  0  0  0  0  0  0  0  0
   -5.9906    3.7455  -14.7821 O   0  0  0  0  0  0  0  0  0  0  0  0
   -7.2188    5.2665  -16.2046 C   0  0  0  0  0  0  0  0  0  0  0  0
   -6.3648    4.9978  -17.4639 C   0  0  0  0  0  0  0  0  0  0  0  0
   -7.6716    4.9307  -18.2681 C   0  0  0  0  0  0  0  0  0  0  0  0
   -8.4008    4.5948  -16.9567 C   0  0  0  0  0  0  0  0  0  0  0  0
   -7.3165    3.9124  -11.7146 N   0  0  0  0  0  0  0  0  0  0  0  0
   -6.7948    2.6841  -12.2778 C   0  0  0  0  0  0  0  0  0  0  0  0
  1  2  1  0
  2  3  2  0
  3  4  1  0
  4  5  1  0
  5  6  3  0
  4  7  2  0
  7  8  1  0
  8  9  1  0
  9 10  2  0
  9 11  1  0
 11 12  1  0
 12 13  1  0
 13 14  1  0
  7 15  1  0
 15 16  1  0
 15  2  1  0
 14 11  1  0
M  END
>  <energy_score>  (3967) 
-18.309778

>  <alias>  (3967) 
MKBQWIMECRBBMH-UHFFFAOYSA-N-P35-P35-P86-601528

>  <HIPPO Pose ID>  (3967) 
81241

>  <smiles>  (3967) 
Cc1nc(C#N)c(NC(=O)C2CCC2)n1C

>  <inchikey>  (3967) 
MKBQWIMECRBBMH-UHFFFAOYSA-N

>  <distance_score>  (3967) 
1.288186

>  <ref_mols>  (3967) 
Z0719a,Z1597a

>  <ref_pdb>  (3967) 
Z0719a

>  <HIPPO Compound ID>  (3967) 
151406

>  <name>  (3967) 
MKBQWIMECRBBMH-UHFFFAOYSA-N-P35-P35-P86-601528

>  <inspiration_score>  (3967) 
None

$$$$
XFNVOKFFGINVLL-UHFFFAOYSA-N-P86-P35-P86-601528
     RDKit          3D

 16 17  0  0  0  0  0  0  0  0999 V2000
   -7.8133    5.6621   -9.2232 C   0  0  0  0  0  0  0  0  0  0  0  0
   -8.0132    4.7996  -10.4067 C   0  0  0  0  0  0  0  0  0  0  0  0
   -8.4499    3.5648  -10.3673 N   0  0  0  0  0  0  0  0  0  0  0  0
   -8.5816    3.1783  -11.6704 C   0  0  0  0  0  0  0  0  0  0  0  0
   -8.2149    4.1818  -12.5429 C   0  0  0  0  0  0  0  0  0  0  0  0
   -8.2408    4.1844  -13.9208 N   0  0  0  0  0  0  0  0  0  0  0  0
   -7.9277    5.3127  -14.9278 C   0  0  0  0  0  0  0  0  0  0  0  0
   -7.6738    6.4363  -14.7485 O   0  0  0  0  0  0  0  0  0  0  0  0
   -7.8884    4.8142  -16.3698 C   0  0  0  0  0  0  0  0  0  0  0  0
   -9.0681    4.0349  -16.8855 C   0  0  0  0  0  0  0  0  0  0  0  0
   -7.1693    5.7009  -17.4099 C   0  0  0  0  0  0  0  0  0  0  0  0
   -6.5373    4.4568  -16.9470 C   0  0  0  0  0  0  0  0  0  0  0  0
   -7.7353    5.1731  -11.7078 N   0  0  0  0  0  0  0  0  0  0  0  0
   -6.8112    6.2327  -12.0715 C   0  0  0  0  0  0  0  0  0  0  0  0
   -5.6978    5.6831  -12.8788 C   0  0  0  0  0  0  0  0  0  0  0  0
   -4.8892    5.1808  -13.5493 N   0  0  0  0  0  0  0  0  0  0  0  0
  1  2  1  0
  2  3  2  0
  3  4  1  0
  4  5  2  0
  5  6  1  0
  6  7  1  0
  7  8  2  0
  7  9  1  0
  9 10  1  0
  9 11  1  0
 11 12  1  0
  5 13  1  0
 13 14  1  0
 14 15  1  0
 15 16  3  0
 13  2  1  0
 12  9  1  0
M  END
>  <energy_score>  (3968) 
-15.420214

>  <alias>  (3968) 
XFNVOKFFGINVLL-UHFFFAOYSA-N-P86-P35-P86-601528

>  <HIPPO Pose ID>  (3968) 
81246

>  <smiles>  (3968) 
Cc1ncc(NC(=O)C2(C)CC2)n1CC#N

>  <inchikey>  (3968) 
XFNVOKFFGINVLL-UHFFFAOYSA-N

>  <distance_score>  (3968) 
1.262628

>  <ref_mols>  (3968) 
Z0719a,Z1597a

>  <ref_pdb>  (3968) 
Z0719a

>  <HIPPO Compound ID>  (3968) 
151408

>  <name>  (3968) 
XFNVOKFFGINVLL-UHFFFAOYSA-N-P86-P35-P86-601528

>  <inspiration_score>  (3968) 
None

$$$$
LSGWPURRRNLRFF-UHFFFAOYSA-N-P35-P35-P86-601528
     RDKit          3D

 16 17  0  0  0  0  0  0  0  0999 V2000
   -6.0654    1.8104  -12.7504 C   0  0  0  0  0  0  0  0  0  0  0  0
   -5.2746    2.9990  -12.2175 C   0  0  0  0  0  0  0  0  0  0  0  0
   -3.7996    2.6139  -12.1624 C   0  0  0  0  0  0  0  0  0  0  0  0
   -5.7664    3.4682  -10.8071 C   0  0  0  0  0  0  0  0  0  0  0  0
   -7.1047    4.0626  -10.8466 N   0  0  0  0  0  0  0  0  0  0  0  0
   -8.2476    3.3109  -10.7492 C   0  0  0  0  0  0  0  0  0  0  0  0
   -8.9838    3.5083  -11.8228 N   0  0  0  0  0  0  0  0  0  0  0  0
   -8.3277    4.4815  -12.5130 C   0  0  0  0  0  0  0  0  0  0  0  0
   -8.2668    4.4411  -13.8670 N   0  0  0  0  0  0  0  0  0  0  0  0
   -7.3788    5.2344  -14.8589 C   0  0  0  0  0  0  0  0  0  0  0  0
   -6.6150    6.1034  -14.6675 O   0  0  0  0  0  0  0  0  0  0  0  0
   -7.5462    4.6262  -16.2676 C   0  0  0  0  0  0  0  0  0  0  0  0
   -7.1234    5.4810  -17.4858 C   0  0  0  0  0  0  0  0  0  0  0  0
   -8.2581    4.8096  -18.2724 C   0  0  0  0  0  0  0  0  0  0  0  0
   -8.9262    4.4863  -16.9308 C   0  0  0  0  0  0  0  0  0  0  0  0
   -7.3960    5.1070  -11.7149 C   0  0  0  0  0  0  0  0  0  0  0  0
  1  2  1  0
  2  3  1  0
  2  4  1  0
  4  5  1  0
  5  6  1  0
  6  7  2  0
  7  8  1  0
  8  9  1  0
  9 10  1  0
 10 11  2  0
 10 12  1  0
 12 13  1  0
 13 14  1  0
 14 15  1  0
  8 16  2  0
 16  5  1  0
 15 12  1  0
M  END
>  <energy_score>  (3969) 
-10.396335

>  <alias>  (3969) 
LSGWPURRRNLRFF-UHFFFAOYSA-N-P35-P35-P86-601528

>  <HIPPO Pose ID>  (3969) 
81249

>  <smiles>  (3969) 
CC(C)Cn1cnc(NC(=O)C2CCC2)c1

>  <inchikey>  (3969) 
LSGWPURRRNLRFF-UHFFFAOYSA-N

>  <distance_score>  (3969) 
1.517376

>  <ref_mols>  (3969) 
Z0719a,Z1597a

>  <ref_pdb>  (3969) 
Z0719a

>  <HIPPO Compound ID>  (3969) 
151410

>  <name>  (3969) 
LSGWPURRRNLRFF-UHFFFAOYSA-N-P35-P35-P86-601528

>  <inspiration_score>  (3969) 
None

$$$$
NKIXGWTXKPNLOD-UHFFFAOYSA-N-P86-P35-P86-601528
     RDKit          3D

 16 17  0  0  0  0  0  0  0  0999 V2000
   -8.6193    3.8569  -19.0524 C   0  0  0  0  0  0  0  0  0  0  0  0
   -8.1350    4.2932  -17.7410 C   0  0  0  0  0  0  0  0  0  0  0  0
   -8.8879    4.0089  -16.6379 N   0  0  0  0  0  0  0  0  0  0  0  0
   -8.2317    4.5334  -15.6276 C   0  0  0  0  0  0  0  0  0  0  0  0
   -8.6715    4.5184  -14.2142 C   0  0  0  0  0  0  0  0  0  0  0  0
   -7.0570    5.1132  -16.0548 N   0  0  0  0  0  0  0  0  0  0  0  0
   -6.1446    5.8079  -15.1317 C   0  0  0  0  0  0  0  0  0  0  0  0
   -4.7672    5.3215  -14.7850 C   0  0  0  0  0  0  0  0  0  0  0  0
   -5.8265    5.2690  -13.7411 C   0  0  0  0  0  0  0  0  0  0  0  0
   -6.9865    4.9997  -17.4242 C   0  0  0  0  0  0  0  0  0  0  0  0
   -6.0536    5.4136  -18.3451 N   0  0  0  0  0  0  0  0  0  0  0  0
   -4.7387    6.2281  -18.1571 C   0  0  0  0  0  0  0  0  0  0  0  0
   -4.2913    6.7351  -17.2027 O   0  0  0  0  0  0  0  0  0  0  0  0
   -3.9947    6.1853  -19.4862 C   0  0  0  0  0  0  0  0  0  0  0  0
   -4.5152    7.1865  -20.4122 C   0  0  0  0  0  0  0  0  0  0  0  0
   -4.9247    7.9918  -21.1416 N   0  0  0  0  0  0  0  0  0  0  0  0
  1  2  1  0
  2  3  1  0
  3  4  2  0
  4  5  1  0
  4  6  1  0
  6  7  1  0
  7  8  1  0
  8  9  1  0
  6 10  1  0
 10 11  1  0
 11 12  1  0
 12 13  2  0
 12 14  1  0
 14 15  1  0
 15 16  3  0
 10  2  2  0
  9  7  1  0
M  END
>  <energy_score>  (3970) 
-1.456614

>  <alias>  (3970) 
NKIXGWTXKPNLOD-UHFFFAOYSA-N-P86-P35-P86-601528

>  <HIPPO Pose ID>  (3970) 
81268

>  <smiles>  (3970) 
Cc1nc(C)n(C2CC2)c1NC(=O)CC#N

>  <inchikey>  (3970) 
NKIXGWTXKPNLOD-UHFFFAOYSA-N

>  <distance_score>  (3970) 
1.709025

>  <ref_mols>  (3970) 
Z0719a,Z1597a

>  <ref_pdb>  (3970) 
Z0719a

>  <HIPPO Compound ID>  (3970) 
151419

>  <name>  (3970) 
NKIXGWTXKPNLOD-UHFFFAOYSA-N-P86-P35-P86-601528

>  <inspiration_score>  (3970) 
None

$$$$
XRMXJMCWPGEXLB-UHFFFAOYSA-N-P86-P35-P86-601528
     RDKit          3D

 16 17  0  0  0  0  0  0  0  0999 V2000
   -2.4670    6.4532  -23.5611 N   0  0  0  0  0  0  0  0  0  0  0  0
   -3.4160    6.5645  -22.8968 C   0  0  0  0  0  0  0  0  0  0  0  0
   -4.6847    6.6464  -22.1797 C   0  0  0  0  0  0  0  0  0  0  0  0
   -4.4545    6.3906  -20.7085 C   0  0  0  0  0  0  0  0  0  0  0  0
   -3.5014    6.7691  -20.1469 O   0  0  0  0  0  0  0  0  0  0  0  0
   -5.6991    5.6242  -20.1775 N   0  0  0  0  0  0  0  0  0  0  0  0
   -6.0418    5.2774  -18.9232 C   0  0  0  0  0  0  0  0  0  0  0  0
   -7.2481    4.7708  -18.5018 C   0  0  0  0  0  0  0  0  0  0  0  0
   -7.1479    4.7546  -17.1411 N   0  0  0  0  0  0  0  0  0  0  0  0
   -8.1576    4.5329  -16.2635 N   0  0  0  0  0  0  0  0  0  0  0  0
   -7.7634    4.6761  -15.0388 C   0  0  0  0  0  0  0  0  0  0  0  0
   -8.9534    4.6232  -13.8219 Cl  0  0  0  0  0  0  0  0  0  0  0  0
   -6.3878    4.9612  -14.5720 C   0  0  0  0  0  0  0  0  0  0  0  0
   -5.4692    5.2193  -15.4967 C   0  0  0  0  0  0  0  0  0  0  0  0
   -5.8567    5.1662  -16.8413 C   0  0  0  0  0  0  0  0  0  0  0  0
   -5.1784    5.4913  -17.9075 N   0  0  0  0  0  0  0  0  0  0  0  0
  1  2  3  0
  2  3  1  0
  3  4  1  0
  4  5  2  0
  4  6  1  0
  6  7  1  0
  7  8  2  0
  8  9  1  0
  9 10  1  0
 10 11  2  0
 11 12  1  0
 11 13  1  0
 13 14  2  0
 14 15  1  0
 15 16  2  0
 16  7  1  0
 15  9  1  0
M  END
>  <energy_score>  (3971) 
-26.969639

>  <alias>  (3971) 
XRMXJMCWPGEXLB-UHFFFAOYSA-N-P86-P35-P86-601528

>  <HIPPO Pose ID>  (3971) 
81270

>  <smiles>  (3971) 
N#CCC(=O)Nc1cn2nc(Cl)ccc2n1

>  <inchikey>  (3971) 
XRMXJMCWPGEXLB-UHFFFAOYSA-N

>  <distance_score>  (3971) 
1.949272

>  <ref_mols>  (3971) 
Z0719a,Z1597a

>  <ref_pdb>  (3971) 
Z0719a

>  <HIPPO Compound ID>  (3971) 
151420

>  <name>  (3971) 
XRMXJMCWPGEXLB-UHFFFAOYSA-N-P86-P35-P86-601528

>  <inspiration_score>  (3971) 
None

$$$$
FIEWIKPFIFDTAY-UHFFFAOYSA-N-P35-P35-P86-601528
     RDKit          3D

 16 17  0  0  0  0  0  0  0  0999 V2000
   -7.6517    5.6024   -8.9511 C   0  0  0  0  0  0  0  0  0  0  0  0
   -8.0015    4.8154  -10.1502 C   0  0  0  0  0  0  0  0  0  0  0  0
   -8.4931    3.5995  -10.1391 N   0  0  0  0  0  0  0  0  0  0  0  0
   -8.7619    3.3004  -11.4457 C   0  0  0  0  0  0  0  0  0  0  0  0
   -8.4546    4.3541  -12.2793 C   0  0  0  0  0  0  0  0  0  0  0  0
   -8.6292    4.4848  -13.6350 N   0  0  0  0  0  0  0  0  0  0  0  0
   -8.4055    5.7105  -14.5706 C   0  0  0  0  0  0  0  0  0  0  0  0
   -8.1117    6.8200  -14.3153 O   0  0  0  0  0  0  0  0  0  0  0  0
   -8.5041    5.3118  -16.0580 C   0  0  0  0  0  0  0  0  0  0  0  0
   -7.2971    5.8011  -16.9493 C   0  0  0  0  0  0  0  0  0  0  0  0
   -7.5591    4.5848  -17.8396 C   0  0  0  0  0  0  0  0  0  0  0  0
   -8.1415    3.9220  -16.5788 C   0  0  0  0  0  0  0  0  0  0  0  0
   -7.8191    5.2511  -11.4468 N   0  0  0  0  0  0  0  0  0  0  0  0
   -6.8344    6.2426  -11.8479 C   0  0  0  0  0  0  0  0  0  0  0  0
   -5.8837    5.6658  -12.8278 C   0  0  0  0  0  0  0  0  0  0  0  0
   -5.2043    5.1501  -13.6210 N   0  0  0  0  0  0  0  0  0  0  0  0
  1  2  1  0
  2  3  2  0
  3  4  1  0
  4  5  2  0
  5  6  1  0
  6  7  1  0
  7  8  2  0
  7  9  1  0
  9 10  1  0
 10 11  1  0
 11 12  1  0
  5 13  1  0
 13 14  1  0
 14 15  1  0
 15 16  3  0
 13  2  1  0
 12  9  1  0
M  END
>  <energy_score>  (3972) 
-20.850088

>  <alias>  (3972) 
FIEWIKPFIFDTAY-UHFFFAOYSA-N-P35-P35-P86-601528

>  <HIPPO Pose ID>  (3972) 
81279

>  <smiles>  (3972) 
Cc1ncc(NC(=O)C2CCC2)n1CC#N

>  <inchikey>  (3972) 
FIEWIKPFIFDTAY-UHFFFAOYSA-N

>  <distance_score>  (3972) 
1.272437

>  <ref_mols>  (3972) 
Z0719a,Z1597a

>  <ref_pdb>  (3972) 
Z0719a

>  <HIPPO Compound ID>  (3972) 
151425

>  <name>  (3972) 
FIEWIKPFIFDTAY-UHFFFAOYSA-N-P35-P35-P86-601528

>  <inspiration_score>  (3972) 
None

$$$$
WCHREVYBHWIENB-UHFFFAOYSA-N-P35-P35-P86-601528
     RDKit          3D

 16 16  0  0  0  0  0  0  0  0999 V2000
   -6.3682    4.4447  -13.0445 C   0  0  0  0  0  0  0  0  0  0  0  0
   -7.1629    4.6910  -14.2005 O   0  0  0  0  0  0  0  0  0  0  0  0
   -6.4988    4.5186  -15.3848 C   0  0  0  0  0  0  0  0  0  0  0  0
   -5.3072    4.2293  -15.4635 O   0  0  0  0  0  0  0  0  0  0  0  0
   -7.3903    4.6648  -16.5349 C   0  0  0  0  0  0  0  0  0  0  0  0
   -8.7488    4.3570  -16.4641 N   0  0  0  0  0  0  0  0  0  0  0  0
   -9.2079    4.4704  -17.6836 C   0  0  0  0  0  0  0  0  0  0  0  0
   -8.2159    4.8090  -18.5574 N   0  0  0  0  0  0  0  0  0  0  0  0
   -7.0630    4.9942  -17.8415 C   0  0  0  0  0  0  0  0  0  0  0  0
   -5.9255    5.4291  -18.4563 N   0  0  0  0  0  0  0  0  0  0  0  0
   -4.7444    6.2866  -17.9089 C   0  0  0  0  0  0  0  0  0  0  0  0
   -4.5327    6.6832  -16.8284 O   0  0  0  0  0  0  0  0  0  0  0  0
   -3.7147    6.4906  -19.0655 C   0  0  0  0  0  0  0  0  0  0  0  0
   -4.3251    7.1736  -20.3002 C   0  0  0  0  0  0  0  0  0  0  0  0
   -3.1080    5.1309  -19.4365 C   0  0  0  0  0  0  0  0  0  0  0  0
   -2.5706    7.3931  -18.5535 C   0  0  0  0  0  0  0  0  0  0  0  0
  1  2  1  0
  2  3  1  0
  3  4  2  0
  3  5  1  0
  5  6  1  0
  6  7  2  0
  7  8  1  0
  8  9  1  0
  9 10  1  0
 10 11  1  0
 11 12  2  0
 11 13  1  0
 13 14  1  0
 13 15  1  0
 13 16  1  0
  9  5  2  0
M  END
>  <energy_score>  (3973) 
-13.725723

>  <alias>  (3973) 
WCHREVYBHWIENB-UHFFFAOYSA-N-P35-P35-P86-601528

>  <HIPPO Pose ID>  (3973) 
81283

>  <smiles>  (3973) 
COC(=O)c1nc[nH]c1NC(=O)C(C)(C)C

>  <inchikey>  (3973) 
WCHREVYBHWIENB-UHFFFAOYSA-N

>  <distance_score>  (3973) 
1.850224

>  <ref_mols>  (3973) 
Z0719a,Z1597a

>  <ref_pdb>  (3973) 
Z0719a

>  <HIPPO Compound ID>  (3973) 
151427

>  <name>  (3973) 
WCHREVYBHWIENB-UHFFFAOYSA-N-P35-P35-P86-601528

>  <inspiration_score>  (3973) 
None

$$$$
IOKSAHRTJGPEHY-UHFFFAOYSA-N-P86-P35-P86-601528
     RDKit          3D

 16 17  0  0  0  0  0  0  0  0999 V2000
   -0.8581    0.2187  -12.3201 N   0  0  0  0  0  0  0  0  0  0  0  0
   -1.5667    0.6737  -11.5204 C   0  0  0  0  0  0  0  0  0  0  0  0
   -2.4016    1.3514  -10.5285 C   0  0  0  0  0  0  0  0  0  0  0  0
   -3.5537    2.1097  -11.1694 C   0  0  0  0  0  0  0  0  0  0  0  0
   -4.6522    1.9715  -10.7963 O   0  0  0  0  0  0  0  0  0  0  0  0
   -2.9733    3.0429  -12.2710 N   0  0  0  0  0  0  0  0  0  0  0  0
   -3.6000    3.8707  -13.1437 C   0  0  0  0  0  0  0  0  0  0  0  0
   -2.7961    4.6263  -13.9722 N   0  0  0  0  0  0  0  0  0  0  0  0
   -3.6450    5.2484  -14.7373 C   0  0  0  0  0  0  0  0  0  0  0  0
   -4.9323    4.9611  -14.4330 N   0  0  0  0  0  0  0  0  0  0  0  0
   -4.9448    4.0576  -13.4175 C   0  0  0  0  0  0  0  0  0  0  0  0
   -6.1191    3.4519  -12.9064 C   0  0  0  0  0  0  0  0  0  0  0  0
   -7.1527    3.0539  -12.5633 N   0  0  0  0  0  0  0  0  0  0  0  0
   -5.9576    5.5095  -15.2908 C   0  0  0  0  0  0  0  0  0  0  0  0
   -5.2908    6.6276  -16.1008 C   0  0  0  0  0  0  0  0  0  0  0  0
   -3.4830    6.3019  -16.0789 S   0  0  0  0  0  0  0  0  0  0  0  0
  1  2  3  0
  2  3  1  0
  3  4  1  0
  4  5  2  0
  4  6  1  0
  6  7  1  0
  7  8  1  0
  8  9  2  0
  9 10  1  0
 10 11  1  0
 11 12  1  0
 12 13  3  0
 10 14  1  0
 14 15  1  0
 15 16  1  0
 11  7  2  0
 16  9  1  0
M  END
>  <energy_score>  (3974) 
-11.842807

>  <alias>  (3974) 
IOKSAHRTJGPEHY-UHFFFAOYSA-N-P86-P35-P86-601528

>  <HIPPO Pose ID>  (3974) 
81296

>  <smiles>  (3974) 
N#CCC(=O)Nc1nc2n(c1C#N)CCS2

>  <inchikey>  (3974) 
IOKSAHRTJGPEHY-UHFFFAOYSA-N

>  <distance_score>  (3974) 
1.730238

>  <ref_mols>  (3974) 
Z0719a,Z1597a

>  <ref_pdb>  (3974) 
Z0719a

>  <HIPPO Compound ID>  (3974) 
151433

>  <name>  (3974) 
IOKSAHRTJGPEHY-UHFFFAOYSA-N-P86-P35-P86-601528

>  <inspiration_score>  (3974) 
None

$$$$
CEGOUSYSXGBVSQ-UHFFFAOYSA-N-P86-P35-P86-601528
     RDKit          3D

 16 16  0  0  0  0  0  0  0  0999 V2000
   -8.6510    4.4078  -13.7557 C   0  0  0  0  0  0  0  0  0  0  0  0
   -8.0215    4.4016  -15.0528 N   0  0  0  0  0  0  0  0  0  0  0  0
   -8.6803    4.3251  -16.2347 C   0  0  0  0  0  0  0  0  0  0  0  0
   -7.8657    4.5685  -17.2247 N   0  0  0  0  0  0  0  0  0  0  0  0
   -6.6345    4.7801  -16.6596 C   0  0  0  0  0  0  0  0  0  0  0  0
   -5.7097    5.1286  -17.5925 N   0  0  0  0  0  0  0  0  0  0  0  0
   -4.2362    5.5894  -17.4287 C   0  0  0  0  0  0  0  0  0  0  0  0
   -3.6162    5.8137  -16.4645 O   0  0  0  0  0  0  0  0  0  0  0  0
   -3.6272    5.6450  -18.8285 C   0  0  0  0  0  0  0  0  0  0  0  0
   -4.1711    6.7490  -19.6267 C   0  0  0  0  0  0  0  0  0  0  0  0
   -4.6016    7.6316  -20.2470 N   0  0  0  0  0  0  0  0  0  0  0  0
   -6.6604    4.5497  -15.2919 C   0  0  0  0  0  0  0  0  0  0  0  0
   -5.5510    4.4176  -13.9256 S   0  0  0  0  0  0  0  0  0  0  0  0
   -6.0834    3.1432  -12.9557 N   0  0  0  0  0  0  0  0  0  0  0  0
   -4.2368    4.0167  -14.3510 O   0  0  0  0  0  0  0  0  0  0  0  0
   -5.7852    5.6191  -13.1696 O   0  0  0  0  0  0  0  0  0  0  0  0
  1  2  1  0
  2  3  1  0
  3  4  2  0
  4  5  1  0
  5  6  1  0
  6  7  1  0
  7  8  2  0
  7  9  1  0
  9 10  1  0
 10 11  3  0
  5 12  2  0
 12 13  1  0
 13 14  1  0
 13 15  2  0
 13 16  2  0
 12  2  1  0
M  END
>  <energy_score>  (3975) 
-11.556605

>  <alias>  (3975) 
CEGOUSYSXGBVSQ-UHFFFAOYSA-N-P86-P35-P86-601528

>  <HIPPO Pose ID>  (3975) 
81302

>  <smiles>  (3975) 
Cn1cnc(NC(=O)CC#N)c1S(N)(=O)=O

>  <inchikey>  (3975) 
CEGOUSYSXGBVSQ-UHFFFAOYSA-N

>  <distance_score>  (3975) 
1.861566

>  <ref_mols>  (3975) 
Z0719a,Z1597a

>  <ref_pdb>  (3975) 
Z0719a

>  <HIPPO Compound ID>  (3975) 
151436

>  <name>  (3975) 
CEGOUSYSXGBVSQ-UHFFFAOYSA-N-P86-P35-P86-601528

>  <inspiration_score>  (3975) 
None

$$$$
DOFBDLCMXZLNSS-UHFFFAOYSA-N-P86-P35-P86-601528
     RDKit          3D

 16 16  0  0  0  0  0  0  0  0999 V2000
   -5.0373    8.2435  -21.4888 N   0  0  0  0  0  0  0  0  0  0  0  0
   -4.8972    7.1191  -21.2319 C   0  0  0  0  0  0  0  0  0  0  0  0
   -4.7533    5.7047  -20.9156 C   0  0  0  0  0  0  0  0  0  0  0  0
   -4.6027    5.5339  -19.4231 C   0  0  0  0  0  0  0  0  0  0  0  0
   -3.5473    5.5853  -18.9180 O   0  0  0  0  0  0  0  0  0  0  0  0
   -6.0040    5.2444  -18.8062 N   0  0  0  0  0  0  0  0  0  0  0  0
   -6.3764    5.0662  -17.5173 C   0  0  0  0  0  0  0  0  0  0  0  0
   -5.5146    5.0152  -16.4599 C   0  0  0  0  0  0  0  0  0  0  0  0
   -6.2767    4.6965  -15.3680 N   0  0  0  0  0  0  0  0  0  0  0  0
   -5.7318    4.5967  -14.0227 C   0  0  0  0  0  0  0  0  0  0  0  0
   -6.3256    3.5921  -13.0695 C   0  0  0  0  0  0  0  0  0  0  0  0
   -6.2844    4.1059  -11.8111 F   0  0  0  0  0  0  0  0  0  0  0  0
   -7.6123    3.3363  -13.3432 F   0  0  0  0  0  0  0  0  0  0  0  0
   -5.6347    2.4408  -13.0320 F   0  0  0  0  0  0  0  0  0  0  0  0
   -7.5756    4.6578  -15.8059 C   0  0  0  0  0  0  0  0  0  0  0  0
   -7.6564    4.8897  -17.1051 N   0  0  0  0  0  0  0  0  0  0  0  0
  1  2  3  0
  2  3  1  0
  3  4  1  0
  4  5  2  0
  4  6  1  0
  6  7  1  0
  7  8  2  0
  8  9  1  0
  9 10  1  0
 10 11  1  0
 11 12  1  0
 11 13  1  0
 11 14  1  0
  9 15  1  0
 15 16  2  0
 16  7  1  0
M  END
>  <energy_score>  (3976) 
-15.494304

>  <alias>  (3976) 
DOFBDLCMXZLNSS-UHFFFAOYSA-N-P86-P35-P86-601528

>  <HIPPO Pose ID>  (3976) 
81304

>  <smiles>  (3976) 
N#CCC(=O)Nc1cn(CC(F)(F)F)cn1

>  <inchikey>  (3976) 
DOFBDLCMXZLNSS-UHFFFAOYSA-N

>  <distance_score>  (3976) 
1.995204

>  <ref_mols>  (3976) 
Z0719a,Z1597a

>  <ref_pdb>  (3976) 
Z0719a

>  <HIPPO Compound ID>  (3976) 
151437

>  <name>  (3976) 
DOFBDLCMXZLNSS-UHFFFAOYSA-N-P86-P35-P86-601528

>  <inspiration_score>  (3976) 
None

$$$$
KEVRRZXWHOQIRO-UHFFFAOYSA-M-P86-P35-P86-601528
     RDKit          3D

 16 16  0  0  0  0  0  0  0  0999 V2000
   -8.4805    4.1314  -13.4982 C   0  0  0  0  0  0  0  0  0  0  0  0
   -7.8607    4.3689  -14.7785 N   0  0  0  0  0  0  0  0  0  0  0  0
   -8.5111    4.6895  -15.9200 C   0  0  0  0  0  0  0  0  0  0  0  0
   -7.6839    5.2251  -16.7805 N   0  0  0  0  0  0  0  0  0  0  0  0
   -6.4177    5.0852  -16.2373 C   0  0  0  0  0  0  0  0  0  0  0  0
   -5.4879    5.5836  -17.0993 N   0  0  0  0  0  0  0  0  0  0  0  0
   -3.9639    5.3104  -17.2068 C   0  0  0  0  0  0  0  0  0  0  0  0
   -3.2590    4.6764  -16.5252 O   0  0  0  0  0  0  0  0  0  0  0  0
   -3.4149    6.1566  -18.4135 C   0  0  0  0  0  0  0  0  0  0  0  0
   -4.1221    5.8720  -19.7574 C   0  0  0  0  0  0  0  0  0  0  0  0
   -1.9198    5.8165  -18.5962 C   0  0  0  0  0  0  0  0  0  0  0  0
   -3.5313    7.6519  -18.0741 C   0  0  0  0  0  0  0  0  0  0  0  0
   -6.5038    4.5029  -14.9893 C   0  0  0  0  0  0  0  0  0  0  0  0
   -5.4876    4.0528  -13.8750 C   0  0  0  0  0  0  0  0  0  0  0  0
   -5.9590    3.2890  -12.9730 O   0  0  0  0  0  0  0  0  0  0  0  0
   -4.3111    4.5050  -13.8917 O   0  0  0  0  0  0  0  0  0  0  0  0
  1  2  1  0
  2  3  1  0
  3  4  2  0
  4  5  1  0
  5  6  1  0
  6  7  1  0
  7  8  2  0
  7  9  1  0
  9 10  1  0
  9 11  1  0
  9 12  1  0
  5 13  2  0
 13 14  1  0
 14 15  2  0
 14 16  1  0
 13  2  1  0
M  CHG  1  16  -1
M  END
>  <energy_score>  (3977) 
-16.647916

>  <alias>  (3977) 
KEVRRZXWHOQIRO-UHFFFAOYSA-M-P86-P35-P86-601528

>  <HIPPO Pose ID>  (3977) 
81310

>  <smiles>  (3977) 
Cn1cnc(NC(=O)C(C)(C)C)c1C(=O)[O-]

>  <inchikey>  (3977) 
KEVRRZXWHOQIRO-UHFFFAOYSA-M

>  <distance_score>  (3977) 
1.996841

>  <ref_mols>  (3977) 
Z0719a,Z1597a

>  <ref_pdb>  (3977) 
Z0719a

>  <HIPPO Compound ID>  (3977) 
151440

>  <name>  (3977) 
KEVRRZXWHOQIRO-UHFFFAOYSA-M-P86-P35-P86-601528

>  <inspiration_score>  (3977) 
None

$$$$
HABHTWUMDUFLIF-UHFFFAOYSA-N-P86-P35-P86-601528
     RDKit          3D

 16 17  0  0  0  0  0  0  0  0999 V2000
   -3.7178    6.9137  -21.9325 C   0  0  0  0  0  0  0  0  0  0  0  0
   -2.7338    6.5484  -20.8110 C   0  0  0  0  0  0  0  0  0  0  0  0
   -2.1139    5.1615  -21.0312 C   0  0  0  0  0  0  0  0  0  0  0  0
   -1.5934    7.5879  -20.8257 C   0  0  0  0  0  0  0  0  0  0  0  0
   -3.4388    6.5951  -19.4281 C   0  0  0  0  0  0  0  0  0  0  0  0
   -3.0415    7.2601  -18.5512 O   0  0  0  0  0  0  0  0  0  0  0  0
   -4.6474    5.6142  -19.4830 N   0  0  0  0  0  0  0  0  0  0  0  0
   -5.6017    5.3441  -18.5627 C   0  0  0  0  0  0  0  0  0  0  0  0
   -6.7387    4.6123  -18.7892 C   0  0  0  0  0  0  0  0  0  0  0  0
   -7.3717    4.5813  -17.5839 N   0  0  0  0  0  0  0  0  0  0  0  0
   -8.5815    4.0222  -17.2383 C   0  0  0  0  0  0  0  0  0  0  0  0
   -8.9690    4.1076  -15.9655 C   0  0  0  0  0  0  0  0  0  0  0  0
   -8.0312    4.7808  -15.0363 C   0  0  0  0  0  0  0  0  0  0  0  0
   -6.9105    5.3463  -15.3507 N   0  0  0  0  0  0  0  0  0  0  0  0
   -6.5651    5.2588  -16.6682 C   0  0  0  0  0  0  0  0  0  0  0  0
   -5.5145    5.7662  -17.2756 N   0  0  0  0  0  0  0  0  0  0  0  0
  1  2  1  0
  2  3  1  0
  2  4  1  0
  2  5  1  0
  5  6  2  0
  5  7  1  0
  7  8  1  0
  8  9  2  0
  9 10  1  0
 10 11  1  0
 11 12  2  0
 12 13  1  0
 13 14  2  0
 14 15  1  0
 15 16  2  0
 16  8  1  0
 15 10  1  0
M  END
>  <energy_score>  (3978) 
-2.586134

>  <alias>  (3978) 
HABHTWUMDUFLIF-UHFFFAOYSA-N-P86-P35-P86-601528

>  <HIPPO Pose ID>  (3978) 
81318

>  <smiles>  (3978) 
CC(C)(C)C(=O)Nc1cn2cccnc2n1

>  <inchikey>  (3978) 
HABHTWUMDUFLIF-UHFFFAOYSA-N

>  <distance_score>  (3978) 
1.727991

>  <ref_mols>  (3978) 
Z0719a,Z1597a

>  <ref_pdb>  (3978) 
Z0719a

>  <HIPPO Compound ID>  (3978) 
151444

>  <name>  (3978) 
HABHTWUMDUFLIF-UHFFFAOYSA-N-P86-P35-P86-601528

>  <inspiration_score>  (3978) 
None

$$$$
RPPWJLNABRFIKE-UHFFFAOYSA-N-P86-P35-P86-601528
     RDKit          3D

 16 17  0  0  0  0  0  0  0  0999 V2000
   -3.7386    6.8832  -21.6611 C   0  0  0  0  0  0  0  0  0  0  0  0
   -2.6653    6.5205  -20.6211 C   0  0  0  0  0  0  0  0  0  0  0  0
   -2.2539    5.0463  -20.7510 C   0  0  0  0  0  0  0  0  0  0  0  0
   -1.4213    7.3909  -20.8939 C   0  0  0  0  0  0  0  0  0  0  0  0
   -3.1600    6.8000  -19.1704 C   0  0  0  0  0  0  0  0  0  0  0  0
   -2.5449    7.4466  -18.4141 O   0  0  0  0  0  0  0  0  0  0  0  0
   -4.5116    6.0515  -18.9901 N   0  0  0  0  0  0  0  0  0  0  0  0
   -5.2806    5.8797  -17.8903 C   0  0  0  0  0  0  0  0  0  0  0  0
   -6.4502    5.1655  -17.8801 C   0  0  0  0  0  0  0  0  0  0  0  0
   -6.8601    5.1747  -16.5842 N   0  0  0  0  0  0  0  0  0  0  0  0
   -7.9922    4.5416  -15.9291 C   0  0  0  0  0  0  0  0  0  0  0  0
   -9.1181    3.9752  -16.7272 C   0  0  0  0  0  0  0  0  0  0  0  0
   -9.6520    4.4965  -18.0419 C   0  0  0  0  0  0  0  0  0  0  0  0
   -8.9987    3.1558  -17.9829 C   0  0  0  0  0  0  0  0  0  0  0  0
   -5.9363    5.9065  -15.8803 C   0  0  0  0  0  0  0  0  0  0  0  0
   -4.9890    6.3675  -16.6603 N   0  0  0  0  0  0  0  0  0  0  0  0
  1  2  1  0
  2  3  1  0
  2  4  1  0
  2  5  1  0
  5  6  2  0
  5  7  1  0
  7  8  1  0
  8  9  2  0
  9 10  1  0
 10 11  1  0
 11 12  1  0
 12 13  1  0
 13 14  1  0
 10 15  1  0
 15 16  2  0
 16  8  1  0
 14 12  1  0
M  END
>  <energy_score>  (3979) 
-15.613235

>  <alias>  (3979) 
RPPWJLNABRFIKE-UHFFFAOYSA-N-P86-P35-P86-601528

>  <HIPPO Pose ID>  (3979) 
81320

>  <smiles>  (3979) 
CC(C)(C)C(=O)Nc1cn(CC2CC2)cn1

>  <inchikey>  (3979) 
RPPWJLNABRFIKE-UHFFFAOYSA-N

>  <distance_score>  (3979) 
1.902873

>  <ref_mols>  (3979) 
Z0719a,Z1597a

>  <ref_pdb>  (3979) 
Z0719a

>  <HIPPO Compound ID>  (3979) 
151445

>  <name>  (3979) 
RPPWJLNABRFIKE-UHFFFAOYSA-N-P86-P35-P86-601528

>  <inspiration_score>  (3979) 
None

$$$$
RZMJTUKDZXFQKO-UHFFFAOYSA-N-P86-P35-P86-601528
     RDKit          3D

 16 17  0  0  0  0  0  0  0  0999 V2000
   -3.5124    6.5968  -20.1194 O   0  0  0  0  0  0  0  0  0  0  0  0
   -4.4979    6.2885  -20.6632 C   0  0  0  0  0  0  0  0  0  0  0  0
   -4.7880    6.6212  -22.1066 C   0  0  0  0  0  0  0  0  0  0  0  0
   -3.4823    7.0085  -22.7557 C   0  0  0  0  0  0  0  0  0  0  0  0
   -3.7255    7.3031  -24.4977 Cl  0  0  0  0  0  0  0  0  0  0  0  0
   -5.7627    5.5821  -20.1219 N   0  0  0  0  0  0  0  0  0  0  0  0
   -6.0918    5.2202  -18.8705 C   0  0  0  0  0  0  0  0  0  0  0  0
   -7.3084    4.7505  -18.4388 C   0  0  0  0  0  0  0  0  0  0  0  0
   -7.1915    4.7261  -17.0803 N   0  0  0  0  0  0  0  0  0  0  0  0
   -8.1960    4.5258  -16.1930 N   0  0  0  0  0  0  0  0  0  0  0  0
   -7.7876    4.6668  -14.9732 C   0  0  0  0  0  0  0  0  0  0  0  0
   -8.9659    4.6302  -13.7458 Cl  0  0  0  0  0  0  0  0  0  0  0  0
   -6.4047    4.9348  -14.5187 C   0  0  0  0  0  0  0  0  0  0  0  0
   -5.4889    5.1673  -15.4525 C   0  0  0  0  0  0  0  0  0  0  0  0
   -5.8878    5.1069  -16.7931 C   0  0  0  0  0  0  0  0  0  0  0  0
   -5.2070    5.3987  -17.8661 N   0  0  0  0  0  0  0  0  0  0  0  0
  1  2  2  0
  2  3  1  0
  3  4  1  0
  4  5  1  0
  2  6  1  0
  6  7  1  0
  7  8  2  0
  8  9  1  0
  9 10  1  0
 10 11  2  0
 11 12  1  0
 11 13  1  0
 13 14  2  0
 14 15  1  0
 15 16  2  0
 16  7  1  0
 15  9  1  0
M  END
>  <energy_score>  (3980) 
-16.992132

>  <alias>  (3980) 
RZMJTUKDZXFQKO-UHFFFAOYSA-N-P86-P35-P86-601528

>  <HIPPO Pose ID>  (3980) 
81330

>  <smiles>  (3980) 
O=C(CCCl)Nc1cn2nc(Cl)ccc2n1

>  <inchikey>  (3980) 
RZMJTUKDZXFQKO-UHFFFAOYSA-N

>  <distance_score>  (3980) 
1.911998

>  <ref_mols>  (3980) 
Z0719a,Z1597a

>  <ref_pdb>  (3980) 
Z0719a

>  <HIPPO Compound ID>  (3980) 
151450

>  <name>  (3980) 
RZMJTUKDZXFQKO-UHFFFAOYSA-N-P86-P35-P86-601528

>  <inspiration_score>  (3980) 
None

$$$$
GMASABBOPYYPLD-UHFFFAOYSA-N-P86-P35-P86-601528
     RDKit          3D

 16 16  0  0  0  0  0  0  0  0999 V2000
   -8.2789    3.9936  -18.7247 C   0  0  0  0  0  0  0  0  0  0  0  0
   -7.9863    4.4378  -17.3492 C   0  0  0  0  0  0  0  0  0  0  0  0
   -9.0174    4.5096  -16.4498 N   0  0  0  0  0  0  0  0  0  0  0  0
   -8.5254    5.1517  -15.4146 C   0  0  0  0  0  0  0  0  0  0  0  0
   -9.2735    5.7588  -14.2895 C   0  0  0  0  0  0  0  0  0  0  0  0
   -7.1514    5.2312  -15.4975 N   0  0  0  0  0  0  0  0  0  0  0  0
   -6.3496    5.3683  -14.2868 C   0  0  0  0  0  0  0  0  0  0  0  0
   -6.7134    4.3093  -13.2184 C   0  0  0  0  0  0  0  0  0  0  0  0
   -4.8398    5.3205  -14.4434 C   0  0  0  0  0  0  0  0  0  0  0  0
   -6.8453    5.0239  -16.8219 C   0  0  0  0  0  0  0  0  0  0  0  0
   -5.7177    5.3713  -17.5121 N   0  0  0  0  0  0  0  0  0  0  0  0
   -4.8289    6.6433  -17.4185 C   0  0  0  0  0  0  0  0  0  0  0  0
   -4.8811    7.5519  -16.6839 O   0  0  0  0  0  0  0  0  0  0  0  0
   -3.7264    6.5137  -18.4664 C   0  0  0  0  0  0  0  0  0  0  0  0
   -4.2160    6.7529  -19.8859 C   0  0  0  0  0  0  0  0  0  0  0  0
   -4.8955    5.2697  -20.5729 Cl  0  0  0  0  0  0  0  0  0  0  0  0
  1  2  1  0
  2  3  1  0
  3  4  2  0
  4  5  1  0
  4  6  1  0
  6  7  1  0
  7  8  1  0
  7  9  1  0
  6 10  1  0
 10 11  1  0
 11 12  1  0
 12 13  2  0
 12 14  1  0
 14 15  1  0
 15 16  1  0
 10  2  2  0
M  END
>  <energy_score>  (3981) 
-8.06654

>  <alias>  (3981) 
GMASABBOPYYPLD-UHFFFAOYSA-N-P86-P35-P86-601528

>  <HIPPO Pose ID>  (3981) 
81332

>  <smiles>  (3981) 
Cc1nc(C)n(C(C)C)c1NC(=O)CCCl

>  <inchikey>  (3981) 
GMASABBOPYYPLD-UHFFFAOYSA-N

>  <distance_score>  (3981) 
1.891307

>  <ref_mols>  (3981) 
Z0719a,Z1597a

>  <ref_pdb>  (3981) 
Z0719a

>  <HIPPO Compound ID>  (3981) 
151451

>  <name>  (3981) 
GMASABBOPYYPLD-UHFFFAOYSA-N-P86-P35-P86-601528

>  <inspiration_score>  (3981) 
None

$$$$
IZHLMFPAHZWUFB-UHFFFAOYSA-N-P35-P35-P86-601528
     RDKit          3D

 16 17  0  0  0  0  0  0  0  0999 V2000
   -8.8054    4.1639  -17.7810 C   0  0  0  0  0  0  0  0  0  0  0  0
   -7.9077    4.5363  -16.8514 C   0  0  0  0  0  0  0  0  0  0  0  0
   -7.1405    5.7777  -17.0391 C   0  0  0  0  0  0  0  0  0  0  0  0
   -8.1006    5.6774  -15.9251 C   0  0  2  0  0  0  0  0  0  0  0  0
   -7.5630    5.6925  -14.5463 C   0  0  0  0  0  0  0  0  0  0  0  0
   -6.6833    6.4181  -14.3079 O   0  0  0  0  0  0  0  0  0  0  0  0
   -8.3715    4.7717  -13.6230 N   0  0  0  0  0  0  0  0  0  0  0  0
   -8.2197    4.4924  -12.3104 C   0  0  0  0  0  0  0  0  0  0  0  0
   -7.1912    4.9480  -11.5237 C   0  0  0  0  0  0  0  0  0  0  0  0
   -6.9666    3.8387  -10.7362 N   0  0  0  0  0  0  0  0  0  0  0  0
   -5.6576    3.1880  -10.7245 C   0  0  0  0  0  0  0  0  0  0  0  0
   -5.1688    2.8450  -12.1699 C   0  0  0  0  0  0  0  0  0  0  0  0
   -6.0427    1.7866  -12.8261 C   0  0  0  0  0  0  0  0  0  0  0  0
   -3.7285    2.3481  -12.1380 C   0  0  0  0  0  0  0  0  0  0  0  0
   -8.1526    3.1536  -10.6768 C   0  0  0  0  0  0  0  0  0  0  0  0
   -8.9190    3.5085  -11.6882 N   0  0  0  0  0  0  0  0  0  0  0  0
  1  2  2  0
  2  3  1  0
  3  4  1  0
  4  5  1  1
  5  6  2  0
  5  7  1  0
  7  8  1  0
  8  9  2  0
  9 10  1  0
 10 11  1  0
 11 12  1  0
 12 13  1  0
 12 14  1  0
 10 15  1  0
 15 16  2  0
  4  2  1  0
 16  8  1  0
M  END
>  <energy_score>  (3982) 
-6.502557

>  <alias>  (3982) 
IZHLMFPAHZWUFB-UHFFFAOYSA-N-P35-P35-P86-601528

>  <HIPPO Pose ID>  (3982) 
81341

>  <smiles>  (3982) 
C=C1CC1C(=O)Nc1cn(CC(C)C)cn1

>  <inchikey>  (3982) 
IZHLMFPAHZWUFB-UHFFFAOYSA-N

>  <distance_score>  (3982) 
1.409857

>  <ref_mols>  (3982) 
Z0719a,Z1597a

>  <ref_pdb>  (3982) 
Z0719a

>  <HIPPO Compound ID>  (3982) 
151456

>  <name>  (3982) 
IZHLMFPAHZWUFB-UHFFFAOYSA-N-P35-P35-P86-601528

>  <inspiration_score>  (3982) 
None

$$$$
HURQIUJESKCHAI-UHFFFAOYSA-N-P86-P35-P86-601528
     RDKit          3D

 16 17  0  0  0  0  0  0  0  0999 V2000
   -8.5370    3.4381  -18.1964 C   0  0  0  0  0  0  0  0  0  0  0  0
   -8.1761    4.2261  -17.2032 C   0  0  0  0  0  0  0  0  0  0  0  0
   -7.2650    5.2252  -16.9696 C   0  0  0  0  0  0  0  0  0  0  0  0
   -8.7045    4.7957  -16.0349 C   0  0  2  0  0  0  0  0  0  0  0  0
   -8.2778    5.1487  -14.6585 C   0  0  0  0  0  0  0  0  0  0  0  0
   -7.8904    6.2369  -14.5064 O   0  0  0  0  0  0  0  0  0  0  0  0
   -8.4747    4.0116  -13.6462 N   0  0  0  0  0  0  0  0  0  0  0  0
   -8.3338    3.9988  -12.2801 C   0  0  0  0  0  0  0  0  0  0  0  0
   -8.7402    3.0556  -11.3625 C   0  0  0  0  0  0  0  0  0  0  0  0
   -8.4970    3.4662  -10.0813 N   0  0  0  0  0  0  0  0  0  0  0  0
   -7.9515    4.6531  -10.1868 C   0  0  0  0  0  0  0  0  0  0  0  0
   -7.6329    5.5421   -9.0514 C   0  0  0  0  0  0  0  0  0  0  0  0
   -7.7052    4.9558  -11.5101 N   0  0  0  0  0  0  0  0  0  0  0  0
   -6.7683    5.9698  -11.9611 C   0  0  0  0  0  0  0  0  0  0  0  0
   -5.7650    5.3994  -12.8880 C   0  0  0  0  0  0  0  0  0  0  0  0
   -5.0216    4.9197  -13.6447 N   0  0  0  0  0  0  0  0  0  0  0  0
  1  2  2  0
  2  3  1  0
  3  4  1  0
  4  5  1  1
  5  6  2  0
  5  7  1  0
  7  8  1  0
  8  9  2  0
  9 10  1  0
 10 11  2  0
 11 12  1  0
 11 13  1  0
 13 14  1  0
 14 15  1  0
 15 16  3  0
  4  2  1  0
 13  8  1  0
M  END
>  <energy_score>  (3983) 
-5.759727

>  <alias>  (3983) 
HURQIUJESKCHAI-UHFFFAOYSA-N-P86-P35-P86-601528

>  <HIPPO Pose ID>  (3983) 
81346

>  <smiles>  (3983) 
C=C1CC1C(=O)Nc1cnc(C)n1CC#N

>  <inchikey>  (3983) 
HURQIUJESKCHAI-UHFFFAOYSA-N

>  <distance_score>  (3983) 
1.132227

>  <ref_mols>  (3983) 
Z0719a,Z1597a

>  <ref_pdb>  (3983) 
Z0719a

>  <HIPPO Compound ID>  (3983) 
151458

>  <name>  (3983) 
HURQIUJESKCHAI-UHFFFAOYSA-N-P86-P35-P86-601528

>  <inspiration_score>  (3983) 
None

$$$$
HWCWSWWTOMNVSY-UHFFFAOYSA-N-P86-P35-P86-601528
     RDKit          3D

 16 17  0  0  0  0  0  0  0  0999 V2000
   -4.9288    8.3131  -21.5203 C   0  0  0  0  0  0  0  0  0  0  0  0
   -3.5330    7.7463  -21.7137 C   0  0  0  0  0  0  0  0  0  0  0  0
   -3.4652    6.2263  -21.6204 C   0  0  1  0  0  0  0  0  0  0  0  0
   -2.1709    5.8125  -22.0634 O   0  0  0  0  0  0  0  0  0  0  0  0
   -3.7315    5.7964  -20.1620 C   0  0  0  0  0  0  0  0  0  0  0  0
   -2.9220    5.9270  -19.3261 O   0  0  0  0  0  0  0  0  0  0  0  0
   -5.2063    5.3113  -20.0698 N   0  0  0  0  0  0  0  0  0  0  0  0
   -5.9630    5.0002  -18.9921 C   0  0  0  0  0  0  0  0  0  0  0  0
   -7.1844    4.3790  -19.0289 C   0  0  0  0  0  0  0  0  0  0  0  0
   -7.6221    4.3830  -17.7450 N   0  0  0  0  0  0  0  0  0  0  0  0
   -8.8248    3.9267  -17.3343 N   0  0  0  0  0  0  0  0  0  0  0  0
   -8.9779    4.0799  -16.0632 C   0  0  0  0  0  0  0  0  0  0  0  0
   -8.0114    4.6552  -15.1017 C   0  0  0  0  0  0  0  0  0  0  0  0
   -6.8517    5.0892  -15.5987 C   0  0  0  0  0  0  0  0  0  0  0  0
   -6.6255    4.9754  -16.9845 C   0  0  0  0  0  0  0  0  0  0  0  0
   -5.6037    5.3460  -17.7251 N   0  0  0  0  0  0  0  0  0  0  0  0
  1  2  1  0
  2  3  1  0
  3  4  1  1
  3  5  1  0
  5  6  2  0
  5  7  1  0
  7  8  1  0
  8  9  2  0
  9 10  1  0
 10 11  1  0
 11 12  2  0
 12 13  1  0
 13 14  2  0
 14 15  1  0
 15 16  2  0
 16  8  1  0
 15 10  1  0
M  END
>  <energy_score>  (3984) 
-14.535781

>  <alias>  (3984) 
HWCWSWWTOMNVSY-UHFFFAOYSA-N-P86-P35-P86-601528

>  <HIPPO Pose ID>  (3984) 
81364

>  <smiles>  (3984) 
CCC(O)C(=O)Nc1cn2ncccc2n1

>  <inchikey>  (3984) 
HWCWSWWTOMNVSY-UHFFFAOYSA-N

>  <distance_score>  (3984) 
1.658944

>  <ref_mols>  (3984) 
Z0719a,Z1597a

>  <ref_pdb>  (3984) 
Z0719a

>  <HIPPO Compound ID>  (3984) 
151467

>  <name>  (3984) 
HWCWSWWTOMNVSY-UHFFFAOYSA-N-P86-P35-P86-601528

>  <inspiration_score>  (3984) 
None

$$$$
IGPHQFWBPGOGTO-UHFFFAOYSA-N-P35-P35-P86-601528
     RDKit          3D

 16 17  0  0  0  0  0  0  0  0999 V2000
   -2.8893    7.8382  -22.9235 C   0  0  0  0  0  0  0  0  0  0  0  0
   -3.6228    7.4722  -21.6390 C   0  0  0  0  0  0  0  0  0  0  0  0
   -2.7004    6.7775  -20.6384 C   0  0  2  0  0  0  0  0  0  0  0  0
   -2.2711    5.5024  -21.1274 O   0  0  0  0  0  0  0  0  0  0  0  0
   -3.3572    6.6125  -19.2585 C   0  0  0  0  0  0  0  0  0  0  0  0
   -2.8688    7.0522  -18.2908 O   0  0  0  0  0  0  0  0  0  0  0  0
   -4.6444    5.7594  -19.4392 N   0  0  0  0  0  0  0  0  0  0  0  0
   -5.5793    5.3805  -18.5396 C   0  0  0  0  0  0  0  0  0  0  0  0
   -6.7545    4.7386  -18.8295 C   0  0  0  0  0  0  0  0  0  0  0  0
   -7.4007    4.6548  -17.6328 N   0  0  0  0  0  0  0  0  0  0  0  0
   -8.6727    4.2120  -17.3432 C   0  0  0  0  0  0  0  0  0  0  0  0
   -9.0636    4.2160  -16.0681 C   0  0  0  0  0  0  0  0  0  0  0  0
   -8.0571    4.6652  -15.0759 C   0  0  0  0  0  0  0  0  0  0  0  0
   -6.8739    5.1236  -15.3318 N   0  0  0  0  0  0  0  0  0  0  0  0
   -6.5358    5.1491  -16.6541 C   0  0  0  0  0  0  0  0  0  0  0  0
   -5.4472    5.6336  -17.2120 N   0  0  0  0  0  0  0  0  0  0  0  0
  1  2  1  0
  2  3  1  0
  3  4  1  6
  3  5  1  0
  5  6  2  0
  5  7  1  0
  7  8  1  0
  8  9  2  0
  9 10  1  0
 10 11  1  0
 11 12  2  0
 12 13  1  0
 13 14  2  0
 14 15  1  0
 15 16  2  0
 16  8  1  0
 15 10  1  0
M  END
>  <energy_score>  (3985) 
-7.490835

>  <alias>  (3985) 
IGPHQFWBPGOGTO-UHFFFAOYSA-N-P35-P35-P86-601528

>  <HIPPO Pose ID>  (3985) 
81365

>  <smiles>  (3985) 
CCC(O)C(=O)Nc1cn2cccnc2n1

>  <inchikey>  (3985) 
IGPHQFWBPGOGTO-UHFFFAOYSA-N

>  <distance_score>  (3985) 
1.757931

>  <ref_mols>  (3985) 
Z0719a,Z1597a

>  <ref_pdb>  (3985) 
Z0719a

>  <HIPPO Compound ID>  (3985) 
151468

>  <name>  (3985) 
IGPHQFWBPGOGTO-UHFFFAOYSA-N-P35-P35-P86-601528

>  <inspiration_score>  (3985) 
None

$$$$
VAOMADSLUANCIJ-UHFFFAOYSA-N-P86-P35-P86-601528
     RDKit          3D

 16 17  0  0  0  0  0  0  0  0999 V2000
   -3.6002    6.7859  -19.4671 O   0  0  0  0  0  0  0  0  0  0  0  0
   -4.4511    6.4285  -20.1844 C   0  0  0  0  0  0  0  0  0  0  0  0
   -5.8055    5.7349  -19.8724 N   0  0  0  0  0  0  0  0  0  0  0  0
   -6.3097    5.2868  -18.7077 C   0  0  0  0  0  0  0  0  0  0  0  0
   -7.4932    4.6119  -18.5490 C   0  0  0  0  0  0  0  0  0  0  0  0
   -7.6562    4.5337  -17.2006 N   0  0  0  0  0  0  0  0  0  0  0  0
   -8.7739    4.1085  -16.5665 N   0  0  0  0  0  0  0  0  0  0  0  0
   -8.6800    4.2589  -15.2865 C   0  0  0  0  0  0  0  0  0  0  0  0
   -7.5135    4.7527  -14.5248 C   0  0  0  0  0  0  0  0  0  0  0  0
   -6.4567    5.1606  -15.2267 C   0  0  0  0  0  0  0  0  0  0  0  0
   -6.5258    5.1010  -16.6286 C   0  0  0  0  0  0  0  0  0  0  0  0
   -5.6946    5.5560  -17.5316 N   0  0  0  0  0  0  0  0  0  0  0  0
   -4.4343    6.6566  -21.7043 C   0  0  1  0  0  0  0  0  0  0  0  0
   -5.4457    7.5859  -22.0974 O   0  0  0  0  0  0  0  0  0  0  0  0
   -3.0665    7.1859  -22.0766 C   0  0  0  0  0  0  0  0  0  0  0  0
   -2.8137    7.1531  -24.0187 Br  0  0  0  0  0  0  0  0  0  0  0  0
  1  2  2  0
  2  3  1  0
  3  4  1  0
  4  5  2  0
  5  6  1  0
  6  7  1  0
  7  8  2  0
  8  9  1  0
  9 10  2  0
 10 11  1  0
 11 12  2  0
  2 13  1  0
 13 14  1  1
 13 15  1  0
 15 16  1  0
 12  4  1  0
 11  6  1  0
M  END
>  <energy_score>  (3986) 
-33.966599

>  <alias>  (3986) 
VAOMADSLUANCIJ-UHFFFAOYSA-N-P86-P35-P86-601528

>  <HIPPO Pose ID>  (3986) 
81368

>  <smiles>  (3986) 
O=C(Nc1cn2ncccc2n1)C(O)CBr

>  <inchikey>  (3986) 
VAOMADSLUANCIJ-UHFFFAOYSA-N

>  <distance_score>  (3986) 
1.627681

>  <ref_mols>  (3986) 
Z0719a,Z1597a

>  <ref_pdb>  (3986) 
Z0719a

>  <HIPPO Compound ID>  (3986) 
151469

>  <name>  (3986) 
VAOMADSLUANCIJ-UHFFFAOYSA-N-P86-P35-P86-601528

>  <inspiration_score>  (3986) 
None

$$$$
DALYAHODZHBTAT-UHFFFAOYSA-N-P86-P35-P86-601528
     RDKit          3D

 16 17  0  0  0  0  0  0  0  0999 V2000
   -3.1846    5.7311  -19.5837 O   0  0  0  0  0  0  0  0  0  0  0  0
   -4.1483    5.7574  -20.2488 C   0  0  0  0  0  0  0  0  0  0  0  0
   -5.6302    5.4281  -19.8936 N   0  0  0  0  0  0  0  0  0  0  0  0
   -6.1996    5.1143  -18.7078 C   0  0  0  0  0  0  0  0  0  0  0  0
   -7.4830    4.6693  -18.5078 C   0  0  0  0  0  0  0  0  0  0  0  0
   -7.6104    4.5962  -17.1495 N   0  0  0  0  0  0  0  0  0  0  0  0
   -8.7039    4.2690  -16.3690 C   0  0  0  0  0  0  0  0  0  0  0  0
   -8.5835    4.3514  -15.0393 C   0  0  0  0  0  0  0  0  0  0  0  0
   -7.2512    4.7571  -14.5334 C   0  0  0  0  0  0  0  0  0  0  0  0
   -6.2258    5.0906  -15.2452 N   0  0  0  0  0  0  0  0  0  0  0  0
   -6.3983    5.0110  -16.5949 C   0  0  0  0  0  0  0  0  0  0  0  0
   -5.5387    5.3111  -17.5414 N   0  0  0  0  0  0  0  0  0  0  0  0
   -4.1029    6.2735  -21.6972 C   0  0  2  0  0  0  0  0  0  0  0  0
   -2.8016    6.1898  -22.2834 O   0  0  0  0  0  0  0  0  0  0  0  0
   -4.6176    7.6948  -21.7701 C   0  0  0  0  0  0  0  0  0  0  0  0
   -3.4901    8.9811  -20.8340 Br  0  0  0  0  0  0  0  0  0  0  0  0
  1  2  2  0
  2  3  1  0
  3  4  1  0
  4  5  2  0
  5  6  1  0
  6  7  1  0
  7  8  2  0
  8  9  1  0
  9 10  2  0
 10 11  1  0
 11 12  2  0
  2 13  1  0
 13 14  1  1
 13 15  1  0
 15 16  1  0
 12  4  1  0
 11  6  1  0
M  END
>  <energy_score>  (3987) 
-27.530248

>  <alias>  (3987) 
DALYAHODZHBTAT-UHFFFAOYSA-N-P86-P35-P86-601528

>  <HIPPO Pose ID>  (3987) 
81370

>  <smiles>  (3987) 
O=C(Nc1cn2cccnc2n1)C(O)CBr

>  <inchikey>  (3987) 
DALYAHODZHBTAT-UHFFFAOYSA-N

>  <distance_score>  (3987) 
1.494513

>  <ref_mols>  (3987) 
Z0719a,Z1597a

>  <ref_pdb>  (3987) 
Z0719a

>  <HIPPO Compound ID>  (3987) 
151470

>  <name>  (3987) 
DALYAHODZHBTAT-UHFFFAOYSA-N-P86-P35-P86-601528

>  <inspiration_score>  (3987) 
None

$$$$
MAOZHBFCYLMLTQ-UHFFFAOYSA-N-P35-P35-P86-601528
     RDKit          3D

 16 16  0  0  0  0  0  0  0  0999 V2000
   -7.6218    3.3293  -14.3921 C   0  0  0  0  0  0  0  0  0  0  0  0
   -7.9144    3.9029  -15.7577 C   0  0  0  0  0  0  0  0  0  0  0  0
   -8.8017    3.5438  -16.6723 N   0  0  0  0  0  0  0  0  0  0  0  0
   -8.4137    4.1833  -17.8334 C   0  0  0  0  0  0  0  0  0  0  0  0
   -7.3031    4.9667  -17.6006 C   0  0  0  0  0  0  0  0  0  0  0  0
   -6.3986    5.4977  -18.4786 N   0  0  0  0  0  0  0  0  0  0  0  0
   -5.1120    6.3427  -18.2203 C   0  0  0  0  0  0  0  0  0  0  0  0
   -4.6761    6.7764  -17.2222 O   0  0  0  0  0  0  0  0  0  0  0  0
   -4.3201    6.4823  -19.5520 C   0  0  1  0  0  0  0  0  0  0  0  0
   -3.8980    5.2167  -20.0613 O   0  0  0  0  0  0  0  0  0  0  0  0
   -5.0771    7.2921  -20.5896 C   0  0  0  0  0  0  0  0  0  0  0  0
   -3.8655    7.9127  -21.9923 Br  0  0  0  0  0  0  0  0  0  0  0  0
   -7.2378    5.0028  -16.2326 N   0  0  0  0  0  0  0  0  0  0  0  0
   -6.7941    6.0672  -15.3656 C   0  0  0  0  0  0  0  0  0  0  0  0
   -7.7274    6.2666  -14.2420 C   0  0  0  0  0  0  0  0  0  0  0  0
   -8.4655    6.3672  -13.3503 N   0  0  0  0  0  0  0  0  0  0  0  0
  1  2  1  0
  2  3  2  0
  3  4  1  0
  4  5  2  0
  5  6  1  0
  6  7  1  0
  7  8  2  0
  7  9  1  0
  9 10  1  6
  9 11  1  0
 11 12  1  0
  5 13  1  0
 13 14  1  0
 14 15  1  0
 15 16  3  0
 13  2  1  0
M  END
>  <energy_score>  (3988) 
-2.954748

>  <alias>  (3988) 
MAOZHBFCYLMLTQ-UHFFFAOYSA-N-P35-P35-P86-601528

>  <HIPPO Pose ID>  (3988) 
81389

>  <smiles>  (3988) 
Cc1ncc(NC(=O)C(O)CBr)n1CC#N

>  <inchikey>  (3988) 
MAOZHBFCYLMLTQ-UHFFFAOYSA-N

>  <distance_score>  (3988) 
1.839521

>  <ref_mols>  (3988) 
Z0719a,Z1597a

>  <ref_pdb>  (3988) 
Z0719a

>  <HIPPO Compound ID>  (3988) 
151480

>  <name>  (3988) 
MAOZHBFCYLMLTQ-UHFFFAOYSA-N-P35-P35-P86-601528

>  <inspiration_score>  (3988) 
None

$$$$
UVZRVFXZCLFNKI-UHFFFAOYSA-N-P86-P35-P86-601528
     RDKit          3D

 16 17  0  0  0  0  0  0  0  0999 V2000
   -4.9334    4.7234  -20.6531 O   0  0  0  0  0  0  0  0  0  0  0  0
   -4.3048    5.5788  -20.1646 C   0  0  0  0  0  0  0  0  0  0  0  0
   -4.4488    6.2693  -18.7803 N   0  0  0  0  0  0  0  0  0  0  0  0
   -5.2777    6.0016  -17.7501 C   0  0  0  0  0  0  0  0  0  0  0  0
   -6.3357    5.1349  -17.7524 C   0  0  0  0  0  0  0  0  0  0  0  0
   -6.8505    5.2055  -16.4972 N   0  0  0  0  0  0  0  0  0  0  0  0
   -7.9616    4.4948  -15.8885 C   0  0  0  0  0  0  0  0  0  0  0  0
   -9.0952    4.0068  -16.7307 C   0  0  0  0  0  0  0  0  0  0  0  0
   -8.9721    3.1828  -17.9838 C   0  0  0  0  0  0  0  0  0  0  0  0
   -9.5415    4.5569  -18.0676 C   0  0  0  0  0  0  0  0  0  0  0  0
   -6.0551    6.0732  -15.7892 C   0  0  0  0  0  0  0  0  0  0  0  0
   -5.1242    6.6075  -16.5459 N   0  0  0  0  0  0  0  0  0  0  0  0
   -3.1545    6.2768  -20.9177 C   0  0  1  0  0  0  0  0  0  0  0  0
   -2.6118    5.5032  -21.9828 O   0  0  0  0  0  0  0  0  0  0  0  0
   -3.6118    7.6293  -21.4327 C   0  0  0  0  0  0  0  0  0  0  0  0
   -4.9537    7.4990  -22.8465 Br  0  0  0  0  0  0  0  0  0  0  0  0
  1  2  2  0
  2  3  1  0
  3  4  1  0
  4  5  2  0
  5  6  1  0
  6  7  1  0
  7  8  1  0
  8  9  1  0
  9 10  1  0
  6 11  1  0
 11 12  2  0
  2 13  1  0
 13 14  1  6
 13 15  1  0
 15 16  1  0
 12  4  1  0
 10  8  1  0
M  END
>  <energy_score>  (3989) 
-11.778038

>  <alias>  (3989) 
UVZRVFXZCLFNKI-UHFFFAOYSA-N-P86-P35-P86-601528

>  <HIPPO Pose ID>  (3989) 
81392

>  <smiles>  (3989) 
O=C(Nc1cn(CC2CC2)cn1)C(O)CBr

>  <inchikey>  (3989) 
UVZRVFXZCLFNKI-UHFFFAOYSA-N

>  <distance_score>  (3989) 
1.815088

>  <ref_mols>  (3989) 
Z0719a,Z1597a

>  <ref_pdb>  (3989) 
Z0719a

>  <HIPPO Compound ID>  (3989) 
151481

>  <name>  (3989) 
UVZRVFXZCLFNKI-UHFFFAOYSA-N-P86-P35-P86-601528

>  <inspiration_score>  (3989) 
None

$$$$
GKHDRXYHIMBQII-UHFFFAOYSA-N-P86-P35-P86-601528
     RDKit          3D

 16 16  0  0  0  0  0  0  0  0999 V2000
   -5.3293    5.1412  -14.4858 C   0  0  0  0  0  0  0  0  0  0  0  0
   -6.2179    5.9334  -15.4157 C   0  0  0  0  0  0  0  0  0  0  0  0
   -7.0763    5.1123  -16.2205 N   0  0  0  0  0  0  0  0  0  0  0  0
   -8.2315    4.5434  -15.7073 C   0  0  0  0  0  0  0  0  0  0  0  0
   -8.5550    4.4925  -14.2585 C   0  0  0  0  0  0  0  0  0  0  0  0
   -8.9838    4.0718  -16.6716 N   0  0  0  0  0  0  0  0  0  0  0  0
   -8.2799    4.3003  -17.8175 C   0  0  0  0  0  0  0  0  0  0  0  0
   -8.8166    3.8313  -19.0898 C   0  0  0  0  0  0  0  0  0  0  0  0
   -7.0625    4.9016  -17.5744 C   0  0  0  0  0  0  0  0  0  0  0  0
   -6.1234    5.1427  -18.5467 N   0  0  0  0  0  0  0  0  0  0  0  0
   -4.6355    5.5755  -18.4277 C   0  0  0  0  0  0  0  0  0  0  0  0
   -4.0040    5.8676  -17.4876 O   0  0  0  0  0  0  0  0  0  0  0  0
   -4.0697    5.4770  -19.8774 C   0  0  1  0  0  0  0  0  0  0  0  0
   -5.0033    5.0054  -20.8490 O   0  0  0  0  0  0  0  0  0  0  0  0
   -3.4394    6.7797  -20.3319 C   0  0  0  0  0  0  0  0  0  0  0  0
   -4.7238    8.2469  -20.4071 Br  0  0  0  0  0  0  0  0  0  0  0  0
  1  2  1  0
  2  3  1  0
  3  4  1  0
  4  5  1  0
  4  6  2  0
  6  7  1  0
  7  8  1  0
  7  9  2  0
  9 10  1  0
 10 11  1  0
 11 12  2  0
 11 13  1  0
 13 14  1  6
 13 15  1  0
 15 16  1  0
  9  3  1  0
M  END
>  <energy_score>  (3990) 
-27.988283

>  <alias>  (3990) 
GKHDRXYHIMBQII-UHFFFAOYSA-N-P86-P35-P86-601528

>  <HIPPO Pose ID>  (3990) 
81398

>  <smiles>  (3990) 
CCn1c(C)nc(C)c1NC(=O)C(O)CBr

>  <inchikey>  (3990) 
GKHDRXYHIMBQII-UHFFFAOYSA-N

>  <distance_score>  (3990) 
1.444253

>  <ref_mols>  (3990) 
Z0719a,Z1597a

>  <ref_pdb>  (3990) 
Z0719a

>  <HIPPO Compound ID>  (3990) 
151484

>  <name>  (3990) 
GKHDRXYHIMBQII-UHFFFAOYSA-N-P86-P35-P86-601528

>  <inspiration_score>  (3990) 
None

$$$$
JIFUDRDXOCZQRB-UHFFFAOYSA-N-P86-P35-P86-601528
     RDKit          3D

 16 18  0  0  0  0  0  0  0  0999 V2000
   -3.3390    7.0219  -19.2631 O   0  0  0  0  0  0  0  0  0  0  0  0
   -3.8822    6.3675  -20.0687 C   0  0  0  0  0  0  0  0  0  0  0  0
   -5.1679    5.5097  -19.9650 N   0  0  0  0  0  0  0  0  0  0  0  0
   -5.9476    5.2208  -18.8984 C   0  0  0  0  0  0  0  0  0  0  0  0
   -7.0910    4.4628  -18.9213 C   0  0  0  0  0  0  0  0  0  0  0  0
   -7.5483    4.4799  -17.6418 N   0  0  0  0  0  0  0  0  0  0  0  0
   -8.7135    3.9395  -17.2165 N   0  0  0  0  0  0  0  0  0  0  0  0
   -8.8815    4.1112  -15.9479 C   0  0  0  0  0  0  0  0  0  0  0  0
   -7.9503    4.7620  -15.0014 C   0  0  0  0  0  0  0  0  0  0  0  0
   -6.8331    5.2871  -15.5092 C   0  0  0  0  0  0  0  0  0  0  0  0
   -6.6146    5.1847  -16.8961 C   0  0  0  0  0  0  0  0  0  0  0  0
   -5.6533    5.6677  -17.6484 N   0  0  0  0  0  0  0  0  0  0  0  0
   -3.3353    6.2545  -21.5150 C   0  0  0  0  0  0  0  0  0  0  0  0
   -2.7707    7.5499  -22.1509 C   0  0  0  0  0  0  0  0  0  0  0  0
   -1.6515    6.5142  -23.1791 S   0  0  0  0  0  0  0  0  0  0  0  0
   -1.9484    5.5466  -21.6525 C   0  0  0  0  0  0  0  0  0  0  0  0
  1  2  2  0
  2  3  1  0
  3  4  1  0
  4  5  2  0
  5  6  1  0
  6  7  1  0
  7  8  2  0
  8  9  1  0
  9 10  2  0
 10 11  1  0
 11 12  2  0
  2 13  1  0
 13 14  1  0
 14 15  1  0
 15 16  1  0
 12  4  1  0
 16 13  1  0
 11  6  1  0
M  END
>  <energy_score>  (3991) 
-38.675918

>  <alias>  (3991) 
JIFUDRDXOCZQRB-UHFFFAOYSA-N-P86-P35-P86-601528

>  <HIPPO Pose ID>  (3991) 
81412

>  <smiles>  (3991) 
O=C(Nc1cn2ncccc2n1)C1CSC1

>  <inchikey>  (3991) 
JIFUDRDXOCZQRB-UHFFFAOYSA-N

>  <distance_score>  (3991) 
1.733257

>  <ref_mols>  (3991) 
Z0719a,Z1597a

>  <ref_pdb>  (3991) 
Z0719a

>  <HIPPO Compound ID>  (3991) 
151491

>  <name>  (3991) 
JIFUDRDXOCZQRB-UHFFFAOYSA-N-P86-P35-P86-601528

>  <inspiration_score>  (3991) 
None

$$$$
HQGSTTFITZTUFA-UHFFFAOYSA-N-P35-P35-P86-601528
     RDKit          3D

 16 17  0  0  0  0  0  0  0  0999 V2000
   -7.8202    5.4948   -8.8185 C   0  0  0  0  0  0  0  0  0  0  0  0
   -8.0773    4.7250  -10.0512 C   0  0  0  0  0  0  0  0  0  0  0  0
   -8.5375    3.4976  -10.0959 N   0  0  0  0  0  0  0  0  0  0  0  0
   -8.7086    3.2124  -11.4227 C   0  0  0  0  0  0  0  0  0  0  0  0
   -8.3615    4.2815  -12.2141 C   0  0  0  0  0  0  0  0  0  0  0  0
   -8.3751    4.4498  -13.5728 N   0  0  0  0  0  0  0  0  0  0  0  0
   -8.2830    5.7428  -14.4309 C   0  0  0  0  0  0  0  0  0  0  0  0
   -8.2592    6.8722  -14.1062 O   0  0  0  0  0  0  0  0  0  0  0  0
   -8.0963    5.4511  -15.9145 C   0  0  0  0  0  0  0  0  0  0  0  0
   -6.8701    4.6337  -16.3872 C   0  0  0  0  0  0  0  0  0  0  0  0
   -7.7480    4.3640  -17.9684 S   0  0  0  0  0  0  0  0  0  0  0  0
   -9.0700    4.5595  -16.7194 C   0  0  0  0  0  0  0  0  0  0  0  0
   -7.8289    5.1927  -11.3231 N   0  0  0  0  0  0  0  0  0  0  0  0
   -6.8728    6.2437  -11.6437 C   0  0  0  0  0  0  0  0  0  0  0  0
   -5.8743    5.7662  -12.6294 C   0  0  0  0  0  0  0  0  0  0  0  0
   -5.1790    5.3220  -13.4520 N   0  0  0  0  0  0  0  0  0  0  0  0
  1  2  1  0
  2  3  2  0
  3  4  1  0
  4  5  2  0
  5  6  1  0
  6  7  1  0
  7  8  2  0
  7  9  1  0
  9 10  1  0
 10 11  1  0
 11 12  1  0
  5 13  1  0
 13 14  1  0
 14 15  1  0
 15 16  3  0
 13  2  1  0
 12  9  1  0
M  END
>  <energy_score>  (3992) 
-38.570898

>  <alias>  (3992) 
HQGSTTFITZTUFA-UHFFFAOYSA-N-P35-P35-P86-601528

>  <HIPPO Pose ID>  (3992) 
81415

>  <smiles>  (3992) 
Cc1ncc(NC(=O)C2CSC2)n1CC#N

>  <inchikey>  (3992) 
HQGSTTFITZTUFA-UHFFFAOYSA-N

>  <distance_score>  (3992) 
1.164881

>  <ref_mols>  (3992) 
Z0719a,Z1597a

>  <ref_pdb>  (3992) 
Z0719a

>  <HIPPO Compound ID>  (3992) 
151493

>  <name>  (3992) 
HQGSTTFITZTUFA-UHFFFAOYSA-N-P35-P35-P86-601528

>  <inspiration_score>  (3992) 
None

$$$$
JFDGTBIMAKBMDL-UHFFFAOYSA-N-P86-P35-P86-601528
     RDKit          3D

 16 16  0  0  0  0  0  0  0  0999 V2000
   -7.0923    4.3398  -11.8107 C   0  0  0  0  0  0  0  0  0  0  0  0
   -6.7360    3.9909  -13.2631 C   0  0  0  0  0  0  0  0  0  0  0  0
   -5.2374    4.1328  -13.4551 C   0  0  0  0  0  0  0  0  0  0  0  0
   -7.5824    4.8701  -14.2178 C   0  0  0  0  0  0  0  0  0  0  0  0
   -7.5584    4.6174  -15.6442 N   0  0  0  0  0  0  0  0  0  0  0  0
   -8.6016    4.1680  -16.4043 C   0  0  0  0  0  0  0  0  0  0  0  0
   -8.3433    4.2771  -17.6912 N   0  0  0  0  0  0  0  0  0  0  0  0
   -7.0947    4.8076  -17.7599 C   0  0  0  0  0  0  0  0  0  0  0  0
   -6.4702    5.0374  -18.9365 N   0  0  0  0  0  0  0  0  0  0  0  0
   -5.0363    5.5564  -19.2327 C   0  0  0  0  0  0  0  0  0  0  0  0
   -4.2029    5.9378  -18.5056 O   0  0  0  0  0  0  0  0  0  0  0  0
   -4.8002    5.4647  -20.7247 C   0  0  0  0  0  0  0  0  0  0  0  0
   -4.7438    6.8601  -21.3062 C   0  0  0  0  0  0  0  0  0  0  0  0
   -4.7681    6.7647  -22.7358 O   0  0  0  0  0  0  0  0  0  0  0  0
   -5.1401    8.0647  -23.2856 N   0  0  0  0  0  0  0  0  0  0  0  0
   -6.6001    5.0604  -16.5115 C   0  0  0  0  0  0  0  0  0  0  0  0
  1  2  1  0
  2  3  1  0
  2  4  1  0
  4  5  1  0
  5  6  1  0
  6  7  2  0
  7  8  1  0
  8  9  1  0
  9 10  1  0
 10 11  2  0
 10 12  1  0
 12 13  1  0
 13 14  1  0
 14 15  1  0
  8 16  2  0
 16  5  1  0
M  END
>  <energy_score>  (3993) 
-12.95195

>  <alias>  (3993) 
JFDGTBIMAKBMDL-UHFFFAOYSA-N-P86-P35-P86-601528

>  <HIPPO Pose ID>  (3993) 
81418

>  <smiles>  (3993) 
CC(C)Cn1cnc(NC(=O)CCON)c1

>  <inchikey>  (3993) 
JFDGTBIMAKBMDL-UHFFFAOYSA-N

>  <distance_score>  (3993) 
1.575419

>  <ref_mols>  (3993) 
Z0719a,Z1597a

>  <ref_pdb>  (3993) 
Z0719a

>  <HIPPO Compound ID>  (3993) 
151494

>  <name>  (3993) 
JFDGTBIMAKBMDL-UHFFFAOYSA-N-P86-P35-P86-601528

>  <inspiration_score>  (3993) 
None

$$$$
GIZYUKUJYFVPJQ-UHFFFAOYSA-N-P35-P35-P86-601528
     RDKit          3D

 16 17  0  0  0  0  0  0  0  0999 V2000
   -6.3378    2.0501  -10.8311 C   0  0  0  0  0  0  0  0  0  0  0  0
   -7.0805    3.0966  -11.5534 C   0  0  0  0  0  0  0  0  0  0  0  0
   -7.2191    3.0928  -12.8561 N   0  0  0  0  0  0  0  0  0  0  0  0
   -7.6367    4.3420  -13.1747 C   0  0  0  0  0  0  0  0  0  0  0  0
   -7.6040    4.6343  -14.4912 N   0  0  0  0  0  0  0  0  0  0  0  0
   -7.5991    5.9911  -15.2139 C   0  0  0  0  0  0  0  0  0  0  0  0
   -7.7004    7.0748  -14.7904 O   0  0  0  0  0  0  0  0  0  0  0  0
   -7.3308    5.7718  -16.7188 C   0  0  0  0  0  0  0  0  0  0  0  0
   -6.0032    5.0775  -17.1113 C   0  0  0  0  0  0  0  0  0  0  0  0
   -6.7773    4.5345  -18.6556 S   0  0  0  0  0  0  0  0  0  0  0  0
   -8.1873    4.7454  -17.5173 C   0  0  0  0  0  0  0  0  0  0  0  0
   -7.9037    5.0941  -12.0542 C   0  0  0  0  0  0  0  0  0  0  0  0
   -8.3417    6.4382  -11.9228 C   0  0  0  0  0  0  0  0  0  0  0  0
   -8.7032    7.5248  -11.7353 N   0  0  0  0  0  0  0  0  0  0  0  0
   -7.6206    4.2406  -11.0073 N   0  0  0  0  0  0  0  0  0  0  0  0
   -7.7721    4.5524   -9.6069 C   0  0  0  0  0  0  0  0  0  0  0  0
  1  2  1  0
  2  3  2  0
  3  4  1  0
  4  5  1  0
  5  6  1  0
  6  7  2  0
  6  8  1  0
  8  9  1  0
  9 10  1  0
 10 11  1  0
  4 12  2  0
 12 13  1  0
 13 14  3  0
 12 15  1  0
 15 16  1  0
 15  2  1  0
 11  8  1  0
M  END
>  <energy_score>  (3994) 
-26.803233

>  <alias>  (3994) 
GIZYUKUJYFVPJQ-UHFFFAOYSA-N-P35-P35-P86-601528

>  <HIPPO Pose ID>  (3994) 
81421

>  <smiles>  (3994) 
Cc1nc(NC(=O)C2CSC2)c(C#N)n1C

>  <inchikey>  (3994) 
GIZYUKUJYFVPJQ-UHFFFAOYSA-N

>  <distance_score>  (3994) 
1.95965

>  <ref_mols>  (3994) 
Z0719a,Z1597a

>  <ref_pdb>  (3994) 
Z0719a

>  <HIPPO Compound ID>  (3994) 
151496

>  <name>  (3994) 
GIZYUKUJYFVPJQ-UHFFFAOYSA-N-P35-P35-P86-601528

>  <inspiration_score>  (3994) 
None

$$$$
PZFWUUVRFTTZRS-UHFFFAOYSA-N-P35-P35-P86-601528
     RDKit          3D

 16 17  0  0  0  0  0  0  0  0999 V2000
   -9.2753    4.0039  -17.8713 C   0  0  0  0  0  0  0  0  0  0  0  0
   -8.5872    4.9292  -17.1963 C   0  0  0  0  0  0  0  0  0  0  0  0
   -7.3284    5.5045  -17.7359 C   0  0  0  0  0  0  0  0  0  0  0  0
   -7.3287    4.8241  -16.4456 C   0  0  1  0  0  0  0  0  0  0  0  0
   -7.3981    5.5547  -15.1434 C   0  0  0  0  0  0  0  0  0  0  0  0
   -7.3787    6.7189  -15.1053 O   0  0  0  0  0  0  0  0  0  0  0  0
   -7.5349    4.5234  -14.0138 N   0  0  0  0  0  0  0  0  0  0  0  0
   -7.5797    4.6914  -12.6602 C   0  0  0  0  0  0  0  0  0  0  0  0
   -7.8646    5.7670  -11.8433 C   0  0  0  0  0  0  0  0  0  0  0  0
   -8.2396    7.1534  -12.1890 C   0  0  0  0  0  0  0  0  0  0  0  0
   -7.8467    5.3802  -10.5224 N   0  0  0  0  0  0  0  0  0  0  0  0
   -7.5763    4.0898  -10.5214 C   0  0  0  0  0  0  0  0  0  0  0  0
   -7.5619    3.2319   -9.3151 C   0  0  0  0  0  0  0  0  0  0  0  0
   -7.2947    3.6568  -11.7983 N   0  0  0  0  0  0  0  0  0  0  0  0
   -6.6888    2.3944  -12.1924 C   0  0  0  0  0  0  0  0  0  0  0  0
   -5.2327    2.5329  -12.6269 C   0  0  0  0  0  0  0  0  0  0  0  0
  1  2  2  0
  2  3  1  0
  3  4  1  0
  4  5  1  1
  5  6  2  0
  5  7  1  0
  7  8  1  0
  8  9  2  0
  9 10  1  0
  9 11  1  0
 11 12  2  0
 12 13  1  0
 12 14  1  0
 14 15  1  0
 15 16  1  0
  4  2  1  0
 14  8  1  0
M  END
>  <energy_score>  (3995) 
-12.373829

>  <alias>  (3995) 
PZFWUUVRFTTZRS-UHFFFAOYSA-N-P35-P35-P86-601528

>  <HIPPO Pose ID>  (3995) 
81423

>  <smiles>  (3995) 
C=C1CC1C(=O)Nc1c(C)nc(C)n1CC

>  <inchikey>  (3995) 
PZFWUUVRFTTZRS-UHFFFAOYSA-N

>  <distance_score>  (3995) 
1.291687

>  <ref_mols>  (3995) 
Z0719a,Z1597a

>  <ref_pdb>  (3995) 
Z0719a

>  <HIPPO Compound ID>  (3995) 
151497

>  <name>  (3995) 
PZFWUUVRFTTZRS-UHFFFAOYSA-N-P35-P35-P86-601528

>  <inspiration_score>  (3995) 
None

$$$$
XEMOIVBLPZBFCS-UHFFFAOYSA-N-P35-P35-P86-601528
     RDKit          3D

 16 17  0  0  0  0  0  0  0  0999 V2000
   -9.1671    3.8547  -17.5950 C   0  0  0  0  0  0  0  0  0  0  0  0
   -8.2631    4.2947  -16.7007 C   0  0  0  0  0  0  0  0  0  0  0  0
   -7.4398    5.4722  -17.0350 C   0  0  0  0  0  0  0  0  0  0  0  0
   -8.4501    5.5578  -15.9683 C   0  0  2  0  0  0  0  0  0  0  0  0
   -7.9705    5.9142  -14.6238 C   0  0  0  0  0  0  0  0  0  0  0  0
   -7.6743    7.0234  -14.4526 O   0  0  0  0  0  0  0  0  0  0  0  0
   -8.0442    4.7484  -13.6453 N   0  0  0  0  0  0  0  0  0  0  0  0
   -7.8704    4.7140  -12.2945 C   0  0  0  0  0  0  0  0  0  0  0  0
   -7.9842    5.6928  -11.3269 C   0  0  0  0  0  0  0  0  0  0  0  0
   -8.3394    7.0721  -11.4755 C   0  0  0  0  0  0  0  0  0  0  0  0
   -8.6474    8.1903  -11.5669 N   0  0  0  0  0  0  0  0  0  0  0  0
   -7.8299    5.1565  -10.0731 N   0  0  0  0  0  0  0  0  0  0  0  0
   -7.6198    3.8673  -10.2620 C   0  0  0  0  0  0  0  0  0  0  0  0
   -7.5047    2.8710   -9.1769 C   0  0  0  0  0  0  0  0  0  0  0  0
   -7.5162    3.5812  -11.6062 N   0  0  0  0  0  0  0  0  0  0  0  0
   -6.9275    2.4103  -12.2194 C   0  0  0  0  0  0  0  0  0  0  0  0
  1  2  2  0
  2  3  1  0
  3  4  1  0
  4  5  1  1
  5  6  2  0
  5  7  1  0
  7  8  1  0
  8  9  2  0
  9 10  1  0
 10 11  3  0
  9 12  1  0
 12 13  2  0
 13 14  1  0
 13 15  1  0
 15 16  1  0
  4  2  1  0
 15  8  1  0
M  END
>  <energy_score>  (3996) 
-4.407445

>  <alias>  (3996) 
XEMOIVBLPZBFCS-UHFFFAOYSA-N-P35-P35-P86-601528

>  <HIPPO Pose ID>  (3996) 
81427

>  <smiles>  (3996) 
C=C1CC1C(=O)Nc1c(C#N)nc(C)n1C

>  <inchikey>  (3996) 
XEMOIVBLPZBFCS-UHFFFAOYSA-N

>  <distance_score>  (3996) 
1.496855

>  <ref_mols>  (3996) 
Z0719a,Z1597a

>  <ref_pdb>  (3996) 
Z0719a

>  <HIPPO Compound ID>  (3996) 
151499

>  <name>  (3996) 
XEMOIVBLPZBFCS-UHFFFAOYSA-N-P35-P35-P86-601528

>  <inspiration_score>  (3996) 
None

$$$$
LDZBERQKLVCWPK-UHFFFAOYSA-N-P86-P35-P86-601528
     RDKit          3D

 16 18  0  0  0  0  0  0  0  0999 V2000
   -5.2653    7.0516  -23.3443 C   0  0  0  0  0  0  0  0  0  0  0  0
   -4.2509    7.0546  -22.5095 C   0  0  0  0  0  0  0  0  0  0  0  0
   -3.0968    7.7491  -22.1164 C   0  0  0  0  0  0  0  0  0  0  0  0
   -3.5609    6.3779  -21.4825 C   0  0  1  0  0  0  0  0  0  0  0  0
   -4.0354    6.4351  -20.0777 C   0  0  0  0  0  0  0  0  0  0  0  0
   -3.3812    7.0048  -19.3003 O   0  0  0  0  0  0  0  0  0  0  0  0
   -5.3439    5.6502  -19.8947 N   0  0  0  0  0  0  0  0  0  0  0  0
   -6.0333    5.3384  -18.7709 C   0  0  0  0  0  0  0  0  0  0  0  0
   -7.2108    4.6364  -18.6873 C   0  0  0  0  0  0  0  0  0  0  0  0
   -7.5087    4.6226  -17.3545 N   0  0  0  0  0  0  0  0  0  0  0  0
   -8.6268    4.1548  -16.6920 C   0  0  0  0  0  0  0  0  0  0  0  0
   -8.6791    4.2982  -15.3641 C   0  0  0  0  0  0  0  0  0  0  0  0
   -7.4879    4.9003  -14.7236 C   0  0  0  0  0  0  0  0  0  0  0  0
   -6.4482    5.3726  -15.3277 N   0  0  0  0  0  0  0  0  0  0  0  0
   -6.4600    5.2562  -16.6862 C   0  0  0  0  0  0  0  0  0  0  0  0
   -5.5839    5.7188  -17.5471 N   0  0  0  0  0  0  0  0  0  0  0  0
  1  2  2  0
  2  3  1  0
  3  4  1  0
  4  5  1  1
  5  6  2  0
  5  7  1  0
  7  8  1  0
  8  9  2  0
  9 10  1  0
 10 11  1  0
 11 12  2  0
 12 13  1  0
 13 14  2  0
 14 15  1  0
 15 16  2  0
  4  2  1  0
 16  8  1  0
 15 10  1  0
M  END
>  <energy_score>  (3997) 
-6.835366

>  <alias>  (3997) 
LDZBERQKLVCWPK-UHFFFAOYSA-N-P86-P35-P86-601528

>  <HIPPO Pose ID>  (3997) 
81432

>  <smiles>  (3997) 
C=C1CC1C(=O)Nc1cn2cccnc2n1

>  <inchikey>  (3997) 
LDZBERQKLVCWPK-UHFFFAOYSA-N

>  <distance_score>  (3997) 
1.609496

>  <ref_mols>  (3997) 
Z0719a,Z1597a

>  <ref_pdb>  (3997) 
Z0719a

>  <HIPPO Compound ID>  (3997) 
151501

>  <name>  (3997) 
LDZBERQKLVCWPK-UHFFFAOYSA-N-P86-P35-P86-601528

>  <inspiration_score>  (3997) 
None

$$$$
FMYLWTOLFSXMCE-UHFFFAOYSA-N-P86-P35-P86-601528
     RDKit          3D

 16 18  0  0  0  0  0  0  0  0999 V2000
   -2.9544    6.8399  -18.4911 O   0  0  0  0  0  0  0  0  0  0  0  0
   -3.4236    6.2963  -19.4093 C   0  0  0  0  0  0  0  0  0  0  0  0
   -4.7067    5.4543  -19.5221 N   0  0  0  0  0  0  0  0  0  0  0  0
   -5.6715    5.1980  -18.6111 C   0  0  0  0  0  0  0  0  0  0  0  0
   -6.8449    4.5267  -18.8431 C   0  0  0  0  0  0  0  0  0  0  0  0
   -7.4753    4.4963  -17.6380 N   0  0  0  0  0  0  0  0  0  0  0  0
   -8.6928    3.9564  -17.3976 N   0  0  0  0  0  0  0  0  0  0  0  0
   -9.0191    4.0528  -16.1524 C   0  0  0  0  0  0  0  0  0  0  0  0
   -8.2173    4.6442  -15.0602 C   0  0  0  0  0  0  0  0  0  0  0  0
   -7.0387    5.1775  -15.3884 C   0  0  0  0  0  0  0  0  0  0  0  0
   -6.6346    5.1313  -16.7354 C   0  0  0  0  0  0  0  0  0  0  0  0
   -5.5535    5.5948  -17.3163 N   0  0  0  0  0  0  0  0  0  0  0  0
   -2.7513    6.3674  -20.7433 C   0  0  0  0  0  0  0  0  0  0  0  0
   -3.9311    7.2693  -22.2640 I   0  0  0  0  0  0  0  0  0  0  0  0
   -1.2577    6.5849  -20.8507 C   0  0  0  0  0  0  0  0  0  0  0  0
   -1.8408    5.2412  -21.1745 C   0  0  0  0  0  0  0  0  0  0  0  0
  1  2  2  0
  2  3  1  0
  3  4  1  0
  4  5  2  0
  5  6  1  0
  6  7  1  0
  7  8  2  0
  8  9  1  0
  9 10  2  0
 10 11  1  0
 11 12  2  0
  2 13  1  0
 13 14  1  0
 13 15  1  0
 15 16  1  0
 12  4  1  0
 16 13  1  0
 11  6  1  0
M  END
>  <energy_score>  (3998) 
-6.079096

>  <alias>  (3998) 
FMYLWTOLFSXMCE-UHFFFAOYSA-N-P86-P35-P86-601528

>  <HIPPO Pose ID>  (3998) 
81444

>  <smiles>  (3998) 
O=C(Nc1cn2ncccc2n1)C1(I)CC1

>  <inchikey>  (3998) 
FMYLWTOLFSXMCE-UHFFFAOYSA-N

>  <distance_score>  (3998) 
1.728053

>  <ref_mols>  (3998) 
Z0719a,Z1597a

>  <ref_pdb>  (3998) 
Z0719a

>  <HIPPO Compound ID>  (3998) 
151507

>  <name>  (3998) 
FMYLWTOLFSXMCE-UHFFFAOYSA-N-P86-P35-P86-601528

>  <inspiration_score>  (3998) 
None

$$$$
JARPWWAAWIBLCU-UHFFFAOYSA-N-P35-P35-P86-601528
     RDKit          3D

 16 16  0  0  0  0  0  0  0  0999 V2000
   -4.1472    8.0775  -21.7025 C   0  0  0  0  0  0  0  0  0  0  0  0
   -4.5519    7.9250  -20.2422 C   0  0  0  0  0  0  0  0  0  0  0  0
   -4.9176    6.4984  -19.8650 C   0  0  1  0  0  0  0  0  0  0  0  0
   -3.4346    5.4681  -19.8686 Cl  0  0  0  0  0  0  0  0  0  0  0  0
   -5.5012    6.3836  -18.4453 C   0  0  0  0  0  0  0  0  0  0  0  0
   -4.9680    6.8440  -17.5075 O   0  0  0  0  0  0  0  0  0  0  0  0
   -6.7853    5.4963  -18.5465 N   0  0  0  0  0  0  0  0  0  0  0  0
   -7.5658    4.9532  -17.5680 C   0  0  0  0  0  0  0  0  0  0  0  0
   -8.6681    4.1397  -17.7049 C   0  0  0  0  0  0  0  0  0  0  0  0
   -8.9391    3.4987  -16.5196 N   0  0  0  0  0  0  0  0  0  0  0  0
   -7.9991    3.8932  -15.6756 C   0  0  0  0  0  0  0  0  0  0  0  0
   -7.6151    3.3210  -14.3332 C   0  0  0  0  0  0  0  0  0  0  0  0
   -7.3629    4.9898  -16.2145 N   0  0  0  0  0  0  0  0  0  0  0  0
   -6.7713    6.0317  -15.4105 C   0  0  0  0  0  0  0  0  0  0  0  0
   -7.5353    6.2600  -14.1733 C   0  0  0  0  0  0  0  0  0  0  0  0
   -8.1629    6.3754  -13.2026 N   0  0  0  0  0  0  0  0  0  0  0  0
  1  2  1  0
  2  3  1  0
  3  4  1  1
  3  5  1  0
  5  6  2  0
  5  7  1  0
  7  8  1  0
  8  9  2  0
  9 10  1  0
 10 11  2  0
 11 12  1  0
 11 13  1  0
 13 14  1  0
 14 15  1  0
 15 16  3  0
 13  8  1  0
M  END
>  <energy_score>  (3999) 
-9.999066

>  <alias>  (3999) 
JARPWWAAWIBLCU-UHFFFAOYSA-N-P35-P35-P86-601528

>  <HIPPO Pose ID>  (3999) 
81447

>  <smiles>  (3999) 
CCC(Cl)C(=O)Nc1cnc(C)n1CC#N

>  <inchikey>  (3999) 
JARPWWAAWIBLCU-UHFFFAOYSA-N

>  <distance_score>  (3999) 
1.83957

>  <ref_mols>  (3999) 
Z0719a,Z1597a

>  <ref_pdb>  (3999) 
Z0719a

>  <HIPPO Compound ID>  (3999) 
151509

>  <name>  (3999) 
JARPWWAAWIBLCU-UHFFFAOYSA-N-P35-P35-P86-601528

>  <inspiration_score>  (3999) 
None

$$$$
PHBCUNWGOAERTI-UHFFFAOYSA-N-P86-P35-P86-601528
     RDKit          3D

 16 17  0  0  0  0  0  0  0  0999 V2000
   -4.5599    8.4437  -21.0685 C   0  0  0  0  0  0  0  0  0  0  0  0
   -3.8636    7.2697  -21.7475 C   0  0  0  0  0  0  0  0  0  0  0  0
   -3.2044    6.2640  -20.8041 C   0  0  1  0  0  0  0  0  0  0  0  0
   -1.9403    7.0226  -19.7975 Cl  0  0  0  0  0  0  0  0  0  0  0  0
   -4.2815    5.5328  -19.9997 C   0  0  0  0  0  0  0  0  0  0  0  0
   -4.9429    4.7163  -20.5112 O   0  0  0  0  0  0  0  0  0  0  0  0
   -4.3450    6.1249  -18.5700 N   0  0  0  0  0  0  0  0  0  0  0  0
   -5.2315    5.9184  -17.5754 C   0  0  0  0  0  0  0  0  0  0  0  0
   -6.3409    5.1206  -17.6368 C   0  0  0  0  0  0  0  0  0  0  0  0
   -6.8907    5.1855  -16.3978 N   0  0  0  0  0  0  0  0  0  0  0  0
   -8.0342    4.4890  -15.8371 C   0  0  0  0  0  0  0  0  0  0  0  0
   -9.1362    4.0095  -16.7248 C   0  0  0  0  0  0  0  0  0  0  0  0
   -8.9736    3.1874  -17.9743 C   0  0  0  0  0  0  0  0  0  0  0  0
   -9.5350    4.5639  -18.0749 C   0  0  0  0  0  0  0  0  0  0  0  0
   -6.0882    6.0111  -15.6489 C   0  0  0  0  0  0  0  0  0  0  0  0
   -5.0985    6.5027  -16.3588 N   0  0  0  0  0  0  0  0  0  0  0  0
  1  2  1  0
  2  3  1  0
  3  4  1  1
  3  5  1  0
  5  6  2  0
  5  7  1  0
  7  8  1  0
  8  9  2  0
  9 10  1  0
 10 11  1  0
 11 12  1  0
 12 13  1  0
 13 14  1  0
 10 15  1  0
 15 16  2  0
 16  8  1  0
 14 12  1  0
M  END
>  <energy_score>  (4000) 
-12.355275

>  <alias>  (4000) 
PHBCUNWGOAERTI-UHFFFAOYSA-N-P86-P35-P86-601528

>  <HIPPO Pose ID>  (4000) 
81450

>  <smiles>  (4000) 
CCC(Cl)C(=O)Nc1cn(CC2CC2)cn1

>  <inchikey>  (4000) 
PHBCUNWGOAERTI-UHFFFAOYSA-N

>  <distance_score>  (4000) 
1.854469

>  <ref_mols>  (4000) 
Z0719a,Z1597a

>  <ref_pdb>  (4000) 
Z0719a

>  <HIPPO Compound ID>  (4000) 
151510

>  <name>  (4000) 
PHBCUNWGOAERTI-UHFFFAOYSA-N-P86-P35-P86-601528

>  <inspiration_score>  (4000) 
None

$$$$
RDGPHLQKLGRHEG-UHFFFAOYSA-N-P35-P35-P86-601528
     RDKit          3D

 16 16  0  0  0  0  0  0  0  0999 V2000
   -3.5300    7.1059  -20.6950 C   0  0  0  0  0  0  0  0  0  0  0  0
   -4.0249    6.6292  -19.3379 C   0  0  0  0  0  0  0  0  0  0  0  0
   -3.8368    5.1330  -19.0354 C   0  0  1  0  0  0  0  0  0  0  0  0
   -2.1276    4.6421  -19.2406 Cl  0  0  0  0  0  0  0  0  0  0  0  0
   -4.3237    4.7533  -17.6020 C   0  0  0  0  0  0  0  0  0  0  0  0
   -3.6171    4.5206  -16.7006 O   0  0  0  0  0  0  0  0  0  0  0  0
   -5.8811    4.8189  -17.6744 N   0  0  0  0  0  0  0  0  0  0  0  0
   -6.8337    4.5318  -16.7210 C   0  0  0  0  0  0  0  0  0  0  0  0
   -6.9377    4.0882  -15.4025 C   0  0  0  0  0  0  0  0  0  0  0  0
   -5.9646    3.6629  -14.4329 N   0  0  0  0  0  0  0  0  0  0  0  0
   -6.1728    2.5852  -13.8485 O   0  0  0  0  0  0  0  0  0  0  0  0
   -5.0232    4.4313  -14.2210 O   0  0  0  0  0  0  0  0  0  0  0  0
   -8.2597    4.0448  -14.9922 N   0  0  0  0  0  0  0  0  0  0  0  0
   -8.9590    4.3250  -16.0517 C   0  0  0  0  0  0  0  0  0  0  0  0
   -8.1577    4.6283  -17.0977 N   0  0  0  0  0  0  0  0  0  0  0  0
   -8.6679    4.9104  -18.4050 C   0  0  0  0  0  0  0  0  0  0  0  0
  1  2  1  0
  2  3  1  0
  3  4  1  1
  3  5  1  0
  5  6  2  0
  5  7  1  0
  7  8  1  0
  8  9  2  0
  9 10  1  0
 10 11  2  0
 10 12  1  0
  9 13  1  0
 13 14  2  0
 14 15  1  0
 15 16  1  0
 15  8  1  0
M  CHG  2  10   1  12  -1
M  END
>  <energy_score>  (4001) 
-13.541759

>  <alias>  (4001) 
RDGPHLQKLGRHEG-UHFFFAOYSA-N-P35-P35-P86-601528

>  <HIPPO Pose ID>  (4001) 
81451

>  <smiles>  (4001) 
CCC(Cl)C(=O)Nc1c([N+](=O)[O-])ncn1C

>  <inchikey>  (4001) 
RDGPHLQKLGRHEG-UHFFFAOYSA-N

>  <distance_score>  (4001) 
1.973046

>  <ref_mols>  (4001) 
Z0719a,Z1597a

>  <ref_pdb>  (4001) 
Z0719a

>  <HIPPO Compound ID>  (4001) 
151511

>  <name>  (4001) 
RDGPHLQKLGRHEG-UHFFFAOYSA-N-P35-P35-P86-601528

>  <inspiration_score>  (4001) 
None

$$$$
SWLPCXMSDFNLJK-UHFFFAOYSA-N-P35-P35-P86-601528
     RDKit          3D

 16 16  0  0  0  0  0  0  0  0999 V2000
   -4.8572    8.0190  -22.3843 C   0  0  0  0  0  0  0  0  0  0  0  0
   -5.3697    7.3562  -21.1106 C   0  0  0  0  0  0  0  0  0  0  0  0
   -4.2633    6.8410  -20.2080 C   0  0  1  0  0  0  0  0  0  0  0  0
   -3.4275    8.2526  -19.4472 Cl  0  0  0  0  0  0  0  0  0  0  0  0
   -4.5639    5.8476  -19.0546 C   0  0  0  0  0  0  0  0  0  0  0  0
   -3.6581    5.3362  -18.5100 O   0  0  0  0  0  0  0  0  0  0  0  0
   -6.0915    5.7829  -18.7518 N   0  0  0  0  0  0  0  0  0  0  0  0
   -6.7606    5.1958  -17.7339 C   0  0  0  0  0  0  0  0  0  0  0  0
   -6.2077    4.4940  -16.7028 C   0  0  0  0  0  0  0  0  0  0  0  0
   -7.2396    4.2112  -15.8570 N   0  0  0  0  0  0  0  0  0  0  0  0
   -7.1653    3.6103  -14.5378 C   0  0  0  0  0  0  0  0  0  0  0  0
   -5.7648    3.5322  -13.8701 C   0  0  0  0  0  0  0  0  0  0  0  0
   -5.3437    4.8973  -13.3209 C   0  0  0  0  0  0  0  0  0  0  0  0
   -5.7840    2.5008  -12.7516 C   0  0  0  0  0  0  0  0  0  0  0  0
   -8.3786    4.6732  -16.4552 C   0  0  0  0  0  0  0  0  0  0  0  0
   -8.1015    5.3171  -17.5709 N   0  0  0  0  0  0  0  0  0  0  0  0
  1  2  1  0
  2  3  1  0
  3  4  1  1
  3  5  1  0
  5  6  2  0
  5  7  1  0
  7  8  1  0
  8  9  2  0
  9 10  1  0
 10 11  1  0
 11 12  1  0
 12 13  1  0
 12 14  1  0
 10 15  1  0
 15 16  2  0
 16  8  1  0
M  END
>  <energy_score>  (4002) 
-39.04621

>  <alias>  (4002) 
SWLPCXMSDFNLJK-UHFFFAOYSA-N-P35-P35-P86-601528

>  <HIPPO Pose ID>  (4002) 
81457

>  <smiles>  (4002) 
CCC(Cl)C(=O)Nc1cn(CC(C)C)cn1

>  <inchikey>  (4002) 
SWLPCXMSDFNLJK-UHFFFAOYSA-N

>  <distance_score>  (4002) 
1.577403

>  <ref_mols>  (4002) 
Z0719a,Z1597a

>  <ref_pdb>  (4002) 
Z0719a

>  <HIPPO Compound ID>  (4002) 
151514

>  <name>  (4002) 
SWLPCXMSDFNLJK-UHFFFAOYSA-N-P35-P35-P86-601528

>  <inspiration_score>  (4002) 
None

$$$$
IFRMDKZPGOJYGA-UHFFFAOYSA-N-P35-P35-P86-601528
     RDKit          3D

 16 16  0  0  0  0  0  0  0  0999 V2000
   -3.8793    7.5207  -21.4879 C   0  0  0  0  0  0  0  0  0  0  0  0
   -4.5668    7.1614  -20.1790 C   0  0  0  0  0  0  0  0  0  0  0  0
   -4.0615    5.9021  -19.4670 C   0  0  1  0  0  0  0  0  0  0  0  0
   -2.2753    5.8761  -19.3270 Cl  0  0  0  0  0  0  0  0  0  0  0  0
   -4.6917    5.7789  -18.0598 C   0  0  0  0  0  0  0  0  0  0  0  0
   -4.1286    6.0504  -17.0686 O   0  0  0  0  0  0  0  0  0  0  0  0
   -6.1509    5.2597  -18.2870 N   0  0  0  0  0  0  0  0  0  0  0  0
   -7.1197    4.9015  -17.3834 C   0  0  0  0  0  0  0  0  0  0  0  0
   -8.3997    4.4824  -17.6864 C   0  0  0  0  0  0  0  0  0  0  0  0
   -9.0071    4.2194  -18.9861 C   0  0  0  0  0  0  0  0  0  0  0  0
   -9.1593    4.3066  -16.5659 N   0  0  0  0  0  0  0  0  0  0  0  0
   -8.3638    4.5876  -15.5642 C   0  0  0  0  0  0  0  0  0  0  0  0
   -8.7411    4.6333  -14.1317 C   0  0  0  0  0  0  0  0  0  0  0  0
   -7.0829    4.8280  -16.0160 N   0  0  0  0  0  0  0  0  0  0  0  0
   -5.9512    4.7727  -15.1336 C   0  0  0  0  0  0  0  0  0  0  0  0
   -5.7560    6.0587  -14.3627 C   0  0  0  0  0  0  0  0  0  0  0  0
  1  2  1  0
  2  3  1  0
  3  4  1  1
  3  5  1  0
  5  6  2  0
  5  7  1  0
  7  8  1  0
  8  9  2  0
  9 10  1  0
  9 11  1  0
 11 12  2  0
 12 13  1  0
 12 14  1  0
 14 15  1  0
 15 16  1  0
 14  8  1  0
M  END
>  <energy_score>  (4003) 
-16.622731

>  <alias>  (4003) 
IFRMDKZPGOJYGA-UHFFFAOYSA-N-P35-P35-P86-601528

>  <HIPPO Pose ID>  (4003) 
81459

>  <smiles>  (4003) 
CCC(Cl)C(=O)Nc1c(C)nc(C)n1CC

>  <inchikey>  (4003) 
IFRMDKZPGOJYGA-UHFFFAOYSA-N

>  <distance_score>  (4003) 
1.469588

>  <ref_mols>  (4003) 
Z0719a,Z1597a

>  <ref_pdb>  (4003) 
Z0719a

>  <HIPPO Compound ID>  (4003) 
151515

>  <name>  (4003) 
IFRMDKZPGOJYGA-UHFFFAOYSA-N-P35-P35-P86-601528

>  <inspiration_score>  (4003) 
None

$$$$
QGVKYXZNKHHMEQ-UHFFFAOYSA-N-P35-P35-P86-601528
     RDKit          3D

 16 17  0  0  0  0  0  0  0  0999 V2000
   -3.5230    2.0086  -13.2318 C   0  0  0  0  0  0  0  0  0  0  0  0
   -4.8327    2.1641  -12.6971 O   0  0  0  0  0  0  0  0  0  0  0  0
   -4.8497    2.7404  -11.4537 C   0  0  0  0  0  0  0  0  0  0  0  0
   -3.8346    3.0693  -10.8430 O   0  0  0  0  0  0  0  0  0  0  0  0
   -6.2007    2.8372  -10.9092 C   0  0  0  0  0  0  0  0  0  0  0  0
   -6.4641    2.6660   -9.5575 N   0  0  0  0  0  0  0  0  0  0  0  0
   -7.7679    2.6393   -9.4390 C   0  0  0  0  0  0  0  0  0  0  0  0
   -8.3734    2.8750  -10.6344 N   0  0  0  0  0  0  0  0  0  0  0  0
   -7.3892    3.1367  -11.5535 C   0  0  0  0  0  0  0  0  0  0  0  0
   -7.7150    3.7251  -12.7358 N   0  0  0  0  0  0  0  0  0  0  0  0
   -6.8306    4.4411  -13.7743 C   0  0  0  0  0  0  0  0  0  0  0  0
   -5.6732    4.5728  -13.8193 O   0  0  0  0  0  0  0  0  0  0  0  0
   -7.7077    5.1104  -14.7787 C   0  0  0  0  0  0  0  0  0  0  0  0
   -8.8732    6.6442  -13.8417 I   0  0  0  0  0  0  0  0  0  0  0  0
   -7.2371    5.3387  -16.1937 C   0  0  0  0  0  0  0  0  0  0  0  0
   -8.3867    4.4110  -15.9220 C   0  0  0  0  0  0  0  0  0  0  0  0
  1  2  1  0
  2  3  1  0
  3  4  2  0
  3  5  1  0
  5  6  1  0
  6  7  2  0
  7  8  1  0
  8  9  1  0
  9 10  1  0
 10 11  1  0
 11 12  2  0
 11 13  1  0
 13 14  1  0
 13 15  1  0
 15 16  1  0
  9  5  2  0
 16 13  1  0
M  END
>  <energy_score>  (4004) 
-11.602108

>  <alias>  (4004) 
QGVKYXZNKHHMEQ-UHFFFAOYSA-N-P35-P35-P86-601528

>  <HIPPO Pose ID>  (4004) 
81469

>  <smiles>  (4004) 
COC(=O)c1nc[nH]c1NC(=O)C1(I)CC1

>  <inchikey>  (4004) 
QGVKYXZNKHHMEQ-UHFFFAOYSA-N

>  <distance_score>  (4004) 
1.66046

>  <ref_mols>  (4004) 
Z0719a,Z1597a

>  <ref_pdb>  (4004) 
Z0719a

>  <HIPPO Compound ID>  (4004) 
151520

>  <name>  (4004) 
QGVKYXZNKHHMEQ-UHFFFAOYSA-N-P35-P35-P86-601528

>  <inspiration_score>  (4004) 
None

$$$$
QJSAIESSACOGOI-UHFFFAOYSA-N-P35-P35-P86-601528
     RDKit          3D

 16 17  0  0  0  0  0  0  0  0999 V2000
   -6.1403    1.8666  -12.8684 C   0  0  0  0  0  0  0  0  0  0  0  0
   -5.2577    2.9689  -12.2988 C   0  0  0  0  0  0  0  0  0  0  0  0
   -3.8461    2.4246  -12.1121 C   0  0  0  0  0  0  0  0  0  0  0  0
   -5.8092    3.5247  -10.9472 C   0  0  0  0  0  0  0  0  0  0  0  0
   -7.0660    4.2484  -11.1339 N   0  0  0  0  0  0  0  0  0  0  0  0
   -8.2909    3.6351  -11.1229 C   0  0  0  0  0  0  0  0  0  0  0  0
   -8.9412    3.9422  -12.2270 N   0  0  0  0  0  0  0  0  0  0  0  0
   -8.1375    4.8288  -12.8735 C   0  0  0  0  0  0  0  0  0  0  0  0
   -8.1362    4.9239  -14.2260 N   0  0  0  0  0  0  0  0  0  0  0  0
   -7.1671    5.6532  -15.1779 C   0  0  0  0  0  0  0  0  0  0  0  0
   -6.2609    6.3518  -14.9458 O   0  0  0  0  0  0  0  0  0  0  0  0
   -7.4099    5.2959  -16.6399 C   0  0  0  0  0  0  0  0  0  0  0  0
   -9.2131    4.2935  -17.1959 I   0  0  0  0  0  0  0  0  0  0  0  0
   -6.2174    4.8426  -17.4737 C   0  0  0  0  0  0  0  0  0  0  0  0
   -6.8341    6.1806  -17.7302 C   0  0  0  0  0  0  0  0  0  0  0  0
   -7.1537    5.2956  -12.0356 C   0  0  0  0  0  0  0  0  0  0  0  0
  1  2  1  0
  2  3  1  0
  2  4  1  0
  4  5  1  0
  5  6  1  0
  6  7  2  0
  7  8  1  0
  8  9  1  0
  9 10  1  0
 10 11  2  0
 10 12  1  0
 12 13  1  0
 12 14  1  0
 14 15  1  0
  8 16  2  0
 16  5  1  0
 15 12  1  0
M  END
>  <energy_score>  (4005) 
-11.360908

>  <alias>  (4005) 
QJSAIESSACOGOI-UHFFFAOYSA-N-P35-P35-P86-601528

>  <HIPPO Pose ID>  (4005) 
81471

>  <smiles>  (4005) 
CC(C)Cn1cnc(NC(=O)C2(I)CC2)c1

>  <inchikey>  (4005) 
QJSAIESSACOGOI-UHFFFAOYSA-N

>  <distance_score>  (4005) 
1.49752

>  <ref_mols>  (4005) 
Z0719a,Z1597a

>  <ref_pdb>  (4005) 
Z0719a

>  <HIPPO Compound ID>  (4005) 
151521

>  <name>  (4005) 
QJSAIESSACOGOI-UHFFFAOYSA-N-P35-P35-P86-601528

>  <inspiration_score>  (4005) 
None

$$$$
LLYQJQVZAYWBIK-UHFFFAOYSA-N-P35-P35-P86-601528
     RDKit          3D

 16 17  0  0  0  0  0  0  0  0999 V2000
   -5.8623    7.4754  -24.2897 N   0  0  0  0  0  0  0  0  0  0  0  0
   -4.7002    7.1661  -23.4649 O   0  0  0  0  0  0  0  0  0  0  0  0
   -4.8902    7.7647  -22.1751 C   0  0  0  0  0  0  0  0  0  0  0  0
   -3.7432    7.3557  -21.2763 C   0  0  0  0  0  0  0  0  0  0  0  0
   -4.1932    7.1929  -19.8437 C   0  0  0  0  0  0  0  0  0  0  0  0
   -3.8136    7.8968  -18.9907 O   0  0  0  0  0  0  0  0  0  0  0  0
   -5.1853    5.9971  -19.7963 N   0  0  0  0  0  0  0  0  0  0  0  0
   -5.9330    5.5175  -18.7779 C   0  0  0  0  0  0  0  0  0  0  0  0
   -6.9900    4.6531  -18.9080 C   0  0  0  0  0  0  0  0  0  0  0  0
   -7.5533    4.6085  -17.6711 N   0  0  0  0  0  0  0  0  0  0  0  0
   -8.7365    4.0265  -17.3610 N   0  0  0  0  0  0  0  0  0  0  0  0
   -9.0237    4.1707  -16.1107 C   0  0  0  0  0  0  0  0  0  0  0  0
   -8.1866    4.8014  -15.0677 C   0  0  0  0  0  0  0  0  0  0  0  0
   -7.0452    5.3696  -15.4628 C   0  0  0  0  0  0  0  0  0  0  0  0
   -6.7157    5.3288  -16.8305 C   0  0  0  0  0  0  0  0  0  0  0  0
   -5.7389    5.9072  -17.4903 N   0  0  0  0  0  0  0  0  0  0  0  0
  1  2  1  0
  2  3  1  0
  3  4  1  0
  4  5  1  0
  5  6  2  0
  5  7  1  0
  7  8  1  0
  8  9  2  0
  9 10  1  0
 10 11  1  0
 11 12  2  0
 12 13  1  0
 13 14  2  0
 14 15  1  0
 15 16  2  0
 16  8  1  0
 15 10  1  0
M  END
>  <energy_score>  (4006) 
-11.7772

>  <alias>  (4006) 
LLYQJQVZAYWBIK-UHFFFAOYSA-N-P35-P35-P86-601528

>  <HIPPO Pose ID>  (4006) 
81481

>  <smiles>  (4006) 
NOCCC(=O)Nc1cn2ncccc2n1

>  <inchikey>  (4006) 
LLYQJQVZAYWBIK-UHFFFAOYSA-N

>  <distance_score>  (4006) 
1.87623

>  <ref_mols>  (4006) 
Z0719a,Z1597a

>  <ref_pdb>  (4006) 
Z0719a

>  <HIPPO Compound ID>  (4006) 
151526

>  <name>  (4006) 
LLYQJQVZAYWBIK-UHFFFAOYSA-N-P35-P35-P86-601528

>  <inspiration_score>  (4006) 
None

$$$$
UNQLKEVNZSPIQI-UHFFFAOYSA-N-P86-P35-P86-601528
     RDKit          3D

 16 17  0  0  0  0  0  0  0  0999 V2000
   -4.0195    9.0948  -20.0920 N   0  0  0  0  0  0  0  0  0  0  0  0
   -3.6202    8.5099  -21.3696 O   0  0  0  0  0  0  0  0  0  0  0  0
   -4.6797    7.6736  -21.8439 C   0  0  0  0  0  0  0  0  0  0  0  0
   -4.3292    6.2152  -21.6756 C   0  0  0  0  0  0  0  0  0  0  0  0
   -4.3222    5.8699  -20.2036 C   0  0  0  0  0  0  0  0  0  0  0  0
   -3.3817    6.0460  -19.5310 O   0  0  0  0  0  0  0  0  0  0  0  0
   -5.7476    5.3733  -19.8321 N   0  0  0  0  0  0  0  0  0  0  0  0
   -6.2954    5.1023  -18.6277 C   0  0  0  0  0  0  0  0  0  0  0  0
   -7.5694    4.6461  -18.3995 C   0  0  0  0  0  0  0  0  0  0  0  0
   -7.6691    4.5955  -17.0384 N   0  0  0  0  0  0  0  0  0  0  0  0
   -8.7429    4.2713  -16.2311 C   0  0  0  0  0  0  0  0  0  0  0  0
   -8.5939    4.3666  -14.9049 C   0  0  0  0  0  0  0  0  0  0  0  0
   -7.2532    4.7823  -14.4319 C   0  0  0  0  0  0  0  0  0  0  0  0
   -6.2454    5.1143  -15.1683 N   0  0  0  0  0  0  0  0  0  0  0  0
   -6.4490    5.0249  -16.5128 C   0  0  0  0  0  0  0  0  0  0  0  0
   -5.6136    5.3262  -17.4786 N   0  0  0  0  0  0  0  0  0  0  0  0
  1  2  1  0
  2  3  1  0
  3  4  1  0
  4  5  1  0
  5  6  2  0
  5  7  1  0
  7  8  1  0
  8  9  2  0
  9 10  1  0
 10 11  1  0
 11 12  2  0
 12 13  1  0
 13 14  2  0
 14 15  1  0
 15 16  2  0
 16  8  1  0
 15 10  1  0
M  END
>  <energy_score>  (4007) 
-37.955742

>  <alias>  (4007) 
UNQLKEVNZSPIQI-UHFFFAOYSA-N-P86-P35-P86-601528

>  <HIPPO Pose ID>  (4007) 
81484

>  <smiles>  (4007) 
NOCCC(=O)Nc1cn2cccnc2n1

>  <inchikey>  (4007) 
UNQLKEVNZSPIQI-UHFFFAOYSA-N

>  <distance_score>  (4007) 
1.483347

>  <ref_mols>  (4007) 
Z0719a,Z1597a

>  <ref_pdb>  (4007) 
Z0719a

>  <HIPPO Compound ID>  (4007) 
151527

>  <name>  (4007) 
UNQLKEVNZSPIQI-UHFFFAOYSA-N-P86-P35-P86-601528

>  <inspiration_score>  (4007) 
None

$$$$
JXBHEJSVMYGUII-UHFFFAOYSA-N-P86-P35-P86-601528
     RDKit          3D

 16 17  0  0  0  0  0  0  0  0999 V2000
   -3.9411    7.9549  -22.5946 C   0  0  0  0  0  0  0  0  0  0  0  0
   -3.9419    6.9713  -21.6829 C   0  0  0  0  0  0  0  0  0  0  0  0
   -2.8582    6.7623  -20.6567 C   0  0  2  0  0  0  0  0  0  0  0  0
   -2.2741    5.0777  -20.7453 Cl  0  0  0  0  0  0  0  0  0  0  0  0
   -3.3604    7.0593  -19.2285 C   0  0  0  0  0  0  0  0  0  0  0  0
   -2.9526    7.9506  -18.5872 O   0  0  0  0  0  0  0  0  0  0  0  0
   -4.4540    5.9987  -18.9028 N   0  0  0  0  0  0  0  0  0  0  0  0
   -5.2758    5.8853  -17.8364 C   0  0  0  0  0  0  0  0  0  0  0  0
   -6.2757    4.9555  -17.7463 C   0  0  0  0  0  0  0  0  0  0  0  0
   -6.8489    5.1656  -16.5320 N   0  0  0  0  0  0  0  0  0  0  0  0
   -7.9478    4.4660  -15.8928 C   0  0  0  0  0  0  0  0  0  0  0  0
   -9.1013    4.0083  -16.7290 C   0  0  0  0  0  0  0  0  0  0  0  0
   -9.0189    3.1779  -17.9837 C   0  0  0  0  0  0  0  0  0  0  0  0
   -9.5232    4.5754  -18.0677 C   0  0  0  0  0  0  0  0  0  0  0  0
   -6.1255    6.1534  -15.9184 C   0  0  0  0  0  0  0  0  0  0  0  0
   -5.2129    6.6509  -16.7200 N   0  0  0  0  0  0  0  0  0  0  0  0
  1  2  2  0
  2  3  1  0
  3  4  1  1
  3  5  1  0
  5  6  2  0
  5  7  1  0
  7  8  1  0
  8  9  2  0
  9 10  1  0
 10 11  1  0
 11 12  1  0
 12 13  1  0
 13 14  1  0
 10 15  1  0
 15 16  2  0
 16  8  1  0
 14 12  1  0
M  END
>  <energy_score>  (4008) 
-1.698531

>  <alias>  (4008) 
JXBHEJSVMYGUII-UHFFFAOYSA-N-P86-P35-P86-601528

>  <HIPPO Pose ID>  (4008) 
81490

>  <smiles>  (4008) 
C=CC(Cl)C(=O)Nc1cn(CC2CC2)cn1

>  <inchikey>  (4008) 
JXBHEJSVMYGUII-UHFFFAOYSA-N

>  <distance_score>  (4008) 
1.979885

>  <ref_mols>  (4008) 
Z0719a,Z1597a

>  <ref_pdb>  (4008) 
Z0719a

>  <HIPPO Compound ID>  (4008) 
151530

>  <name>  (4008) 
JXBHEJSVMYGUII-UHFFFAOYSA-N-P86-P35-P86-601528

>  <inspiration_score>  (4008) 
None

$$$$
GOQLTKVCKXNNMN-UHFFFAOYSA-N-P35-P35-P86-601528
     RDKit          3D

 16 16  0  0  0  0  0  0  0  0999 V2000
   -4.1931    8.1651  -21.0878 C   0  0  0  0  0  0  0  0  0  0  0  0
   -4.5806    7.0724  -20.4131 C   0  0  0  0  0  0  0  0  0  0  0  0
   -3.8872    6.5317  -19.1939 C   0  0  2  0  0  0  0  0  0  0  0  0
   -3.1449    4.9543  -19.5513 Cl  0  0  0  0  0  0  0  0  0  0  0  0
   -4.7652    6.4203  -17.9201 C   0  0  0  0  0  0  0  0  0  0  0  0
   -4.4884    7.0256  -16.9531 O   0  0  0  0  0  0  0  0  0  0  0  0
   -5.9593    5.4499  -18.2007 N   0  0  0  0  0  0  0  0  0  0  0  0
   -7.0395    5.1238  -17.4263 C   0  0  0  0  0  0  0  0  0  0  0  0
   -8.2614    4.5949  -17.7857 C   0  0  0  0  0  0  0  0  0  0  0  0
   -8.7421    4.1144  -19.0769 C   0  0  0  0  0  0  0  0  0  0  0  0
   -9.1475    4.6472  -16.7404 N   0  0  0  0  0  0  0  0  0  0  0  0
   -8.4828    5.1943  -15.7502 C   0  0  0  0  0  0  0  0  0  0  0  0
   -9.0473    5.6961  -14.4774 C   0  0  0  0  0  0  0  0  0  0  0  0
   -7.1490    5.2681  -16.0677 N   0  0  0  0  0  0  0  0  0  0  0  0
   -6.0843    5.2713  -15.0982 C   0  0  0  0  0  0  0  0  0  0  0  0
   -6.2628    4.2628  -13.9704 C   0  0  0  0  0  0  0  0  0  0  0  0
  1  2  2  0
  2  3  1  0
  3  4  1  6
  3  5  1  0
  5  6  2  0
  5  7  1  0
  7  8  1  0
  8  9  2  0
  9 10  1  0
  9 11  1  0
 11 12  2  0
 12 13  1  0
 12 14  1  0
 14 15  1  0
 15 16  1  0
 14  8  1  0
M  END
>  <energy_score>  (4009) 
-5.330426

>  <alias>  (4009) 
GOQLTKVCKXNNMN-UHFFFAOYSA-N-P35-P35-P86-601528

>  <HIPPO Pose ID>  (4009) 
81495

>  <smiles>  (4009) 
C=CC(Cl)C(=O)Nc1c(C)nc(C)n1CC

>  <inchikey>  (4009) 
GOQLTKVCKXNNMN-UHFFFAOYSA-N

>  <distance_score>  (4009) 
1.413602

>  <ref_mols>  (4009) 
Z0719a,Z1597a

>  <ref_pdb>  (4009) 
Z0719a

>  <HIPPO Compound ID>  (4009) 
151533

>  <name>  (4009) 
GOQLTKVCKXNNMN-UHFFFAOYSA-N-P35-P35-P86-601528

>  <inspiration_score>  (4009) 
None

$$$$
WKHVBKGBCHFGJR-UHFFFAOYSA-N-P86-P35-P86-601528
     RDKit          3D

 16 17  0  0  0  0  0  0  0  0999 V2000
   -4.7395    8.0798  -21.9876 C   0  0  0  0  0  0  0  0  0  0  0  0
   -4.0387    6.9534  -22.1876 C   0  0  0  0  0  0  0  0  0  0  0  0
   -3.1064    6.2871  -21.2094 C   0  0  1  0  0  0  0  0  0  0  0  0
   -1.4969    7.0382  -21.3681 Cl  0  0  0  0  0  0  0  0  0  0  0  0
   -3.6174    6.3306  -19.7522 C   0  0  0  0  0  0  0  0  0  0  0  0
   -3.0468    6.8409  -18.8650 O   0  0  0  0  0  0  0  0  0  0  0  0
   -4.9928    5.5807  -19.7763 N   0  0  0  0  0  0  0  0  0  0  0  0
   -5.8303    5.2523  -18.7674 C   0  0  0  0  0  0  0  0  0  0  0  0
   -6.9780    4.5107  -18.8855 C   0  0  0  0  0  0  0  0  0  0  0  0
   -7.5103    4.4880  -17.6348 N   0  0  0  0  0  0  0  0  0  0  0  0
   -8.6998    3.9393  -17.2980 N   0  0  0  0  0  0  0  0  0  0  0  0
   -8.9425    4.0695  -16.0367 C   0  0  0  0  0  0  0  0  0  0  0  0
   -8.0694    4.6883  -15.0164 C   0  0  0  0  0  0  0  0  0  0  0  0
   -6.9219    5.2240  -15.4389 C   0  0  0  0  0  0  0  0  0  0  0  0
   -6.6193    5.1616  -16.8123 C   0  0  0  0  0  0  0  0  0  0  0  0
   -5.6093    5.6565  -17.4892 N   0  0  0  0  0  0  0  0  0  0  0  0
  1  2  2  0
  2  3  1  0
  3  4  1  1
  3  5  1  0
  5  6  2  0
  5  7  1  0
  7  8  1  0
  8  9  2  0
  9 10  1  0
 10 11  1  0
 11 12  2  0
 12 13  1  0
 13 14  2  0
 14 15  1  0
 15 16  2  0
 16  8  1  0
 15 10  1  0
M  END
>  <energy_score>  (4010) 
-27.595062

>  <alias>  (4010) 
WKHVBKGBCHFGJR-UHFFFAOYSA-N-P86-P35-P86-601528

>  <HIPPO Pose ID>  (4010) 
81502

>  <smiles>  (4010) 
C=CC(Cl)C(=O)Nc1cn2ncccc2n1

>  <inchikey>  (4010) 
WKHVBKGBCHFGJR-UHFFFAOYSA-N

>  <distance_score>  (4010) 
1.677008

>  <ref_mols>  (4010) 
Z0719a,Z1597a

>  <ref_pdb>  (4010) 
Z0719a

>  <HIPPO Compound ID>  (4010) 
151536

>  <name>  (4010) 
WKHVBKGBCHFGJR-UHFFFAOYSA-N-P86-P35-P86-601528

>  <inspiration_score>  (4010) 
None

$$$$
MGXZLGCJFSBCDU-UHFFFAOYSA-N-P86-P35-P86-601528
     RDKit          3D

 16 16  0  0  0  0  0  0  0  0999 V2000
   -8.5764    4.0912  -18.7818 C   0  0  0  0  0  0  0  0  0  0  0  0
   -8.1719    4.4002  -17.3995 C   0  0  0  0  0  0  0  0  0  0  0  0
   -8.9467    3.9763  -16.3622 N   0  0  0  0  0  0  0  0  0  0  0  0
   -8.3350    4.3932  -15.2775 C   0  0  0  0  0  0  0  0  0  0  0  0
   -8.8263    4.2297  -13.8820 C   0  0  0  0  0  0  0  0  0  0  0  0
   -7.1392    5.0417  -15.5776 N   0  0  0  0  0  0  0  0  0  0  0  0
   -6.4256    5.7042  -14.4965 C   0  0  0  0  0  0  0  0  0  0  0  0
   -5.7350    4.7030  -13.5720 C   0  0  0  0  0  0  0  0  0  0  0  0
   -5.4944    6.8619  -14.7989 C   0  0  0  0  0  0  0  0  0  0  0  0
   -7.0473    5.0737  -16.9520 C   0  0  0  0  0  0  0  0  0  0  0  0
   -6.1441    5.6838  -17.7806 N   0  0  0  0  0  0  0  0  0  0  0  0
   -4.5934    5.7912  -17.6821 C   0  0  0  0  0  0  0  0  0  0  0  0
   -3.8612    5.4414  -16.8386 O   0  0  0  0  0  0  0  0  0  0  0  0
   -4.1009    6.5667  -18.9269 C   0  0  1  0  0  0  0  0  0  0  0  0
   -4.2347    5.8050  -20.2361 C   0  0  0  0  0  0  0  0  0  0  0  0
   -4.9956    8.1238  -19.0377 Cl  0  0  0  0  0  0  0  0  0  0  0  0
  1  2  1  0
  2  3  1  0
  3  4  2  0
  4  5  1  0
  4  6  1  0
  6  7  1  0
  7  8  1  0
  7  9  1  0
  6 10  1  0
 10 11  1  0
 11 12  1  0
 12 13  2  0
 12 14  1  0
 14 15  1  6
 14 16  1  0
 10  2  2  0
M  END
>  <energy_score>  (4011) 
-8.771203

>  <alias>  (4011) 
MGXZLGCJFSBCDU-UHFFFAOYSA-N-P86-P35-P86-601528

>  <HIPPO Pose ID>  (4011) 
81520

>  <smiles>  (4011) 
Cc1nc(C)n(C(C)C)c1NC(=O)C(C)Cl

>  <inchikey>  (4011) 
MGXZLGCJFSBCDU-UHFFFAOYSA-N

>  <distance_score>  (4011) 
1.960605

>  <ref_mols>  (4011) 
Z0719a,Z1597a

>  <ref_pdb>  (4011) 
Z0719a

>  <HIPPO Compound ID>  (4011) 
151545

>  <name>  (4011) 
MGXZLGCJFSBCDU-UHFFFAOYSA-N-P86-P35-P86-601528

>  <inspiration_score>  (4011) 
None

$$$$
QTIMAUQWVIPTRV-UHFFFAOYSA-N-P86-P35-P86-601528
     RDKit          3D

 16 16  0  0  0  0  0  0  0  0999 V2000
   -5.8231    5.0902  -14.0289 C   0  0  0  0  0  0  0  0  0  0  0  0
   -6.2799    5.8091  -15.2885 C   0  0  0  0  0  0  0  0  0  0  0  0
   -7.3199    5.1869  -16.0640 N   0  0  0  0  0  0  0  0  0  0  0  0
   -8.4025    4.5103  -15.5421 C   0  0  0  0  0  0  0  0  0  0  0  0
   -8.7395    4.5062  -14.1000 C   0  0  0  0  0  0  0  0  0  0  0  0
   -9.0504    3.8626  -16.4863 N   0  0  0  0  0  0  0  0  0  0  0  0
   -8.3897    4.1511  -17.6450 C   0  0  0  0  0  0  0  0  0  0  0  0
   -8.8346    3.5766  -18.9152 C   0  0  0  0  0  0  0  0  0  0  0  0
   -7.3746    5.0531  -17.4286 C   0  0  0  0  0  0  0  0  0  0  0  0
   -6.5850    5.6114  -18.3904 N   0  0  0  0  0  0  0  0  0  0  0  0
   -5.6786    6.8731  -18.3450 C   0  0  0  0  0  0  0  0  0  0  0  0
   -5.5301    7.6698  -17.5017 O   0  0  0  0  0  0  0  0  0  0  0  0
   -4.8659    6.8688  -19.6256 C   0  0  0  0  0  0  0  0  0  0  0  0
   -3.4527    6.3834  -19.3166 C   0  0  0  0  0  0  0  0  0  0  0  0
   -3.3848    5.0087  -18.6428 C   0  0  0  0  0  0  0  0  0  0  0  0
   -3.9598    4.9991  -17.4030 F   0  0  0  0  0  0  0  0  0  0  0  0
  1  2  1  0
  2  3  1  0
  3  4  1  0
  4  5  1  0
  4  6  2  0
  6  7  1  0
  7  8  1  0
  7  9  2  0
  9 10  1  0
 10 11  1  0
 11 12  2  0
 11 13  1  0
 13 14  1  0
 14 15  1  0
 15 16  1  0
  9  3  1  0
M  END
>  <energy_score>  (4012) 
-12.771709

>  <alias>  (4012) 
QTIMAUQWVIPTRV-UHFFFAOYSA-N-P86-P35-P86-601528

>  <HIPPO Pose ID>  (4012) 
81530

>  <smiles>  (4012) 
CCn1c(C)nc(C)c1NC(=O)CCCF

>  <inchikey>  (4012) 
QTIMAUQWVIPTRV-UHFFFAOYSA-N

>  <distance_score>  (4012) 
1.884538

>  <ref_mols>  (4012) 
Z0719a,Z1597a

>  <ref_pdb>  (4012) 
Z0719a

>  <HIPPO Compound ID>  (4012) 
151550

>  <name>  (4012) 
QTIMAUQWVIPTRV-UHFFFAOYSA-N-P86-P35-P86-601528

>  <inspiration_score>  (4012) 
None

$$$$
OPRIZCQAPKFGFX-UHFFFAOYSA-N-P35-P35-P86-601528
     RDKit          3D

 16 16  0  0  0  0  0  0  0  0999 V2000
   -5.3506    4.8466  -13.0588 C   0  0  0  0  0  0  0  0  0  0  0  0
   -5.8086    3.5839  -13.7933 C   0  0  0  0  0  0  0  0  0  0  0  0
   -5.8360    2.4071  -12.8302 C   0  0  0  0  0  0  0  0  0  0  0  0
   -7.2133    3.7939  -14.4279 C   0  0  0  0  0  0  0  0  0  0  0  0
   -7.2478    4.3441  -15.7742 N   0  0  0  0  0  0  0  0  0  0  0  0
   -8.3379    4.3865  -16.6002 C   0  0  0  0  0  0  0  0  0  0  0  0
   -8.0218    4.8748  -17.7837 N   0  0  0  0  0  0  0  0  0  0  0  0
   -6.6993    5.1708  -17.7076 C   0  0  0  0  0  0  0  0  0  0  0  0
   -5.9811    5.6770  -18.7362 N   0  0  0  0  0  0  0  0  0  0  0  0
   -4.5137    6.1888  -18.7875 C   0  0  0  0  0  0  0  0  0  0  0  0
   -3.6773    6.1794  -17.9672 O   0  0  0  0  0  0  0  0  0  0  0  0
   -4.1758    6.7030  -20.1827 C   0  0  0  0  0  0  0  0  0  0  0  0
   -5.2192    7.5646  -20.8597 C   0  0  0  0  0  0  0  0  0  0  0  0
   -4.6630    8.3287  -22.0453 C   0  0  0  0  0  0  0  0  0  0  0  0
   -5.6449    9.1355  -22.5341 F   0  0  0  0  0  0  0  0  0  0  0  0
   -6.2098    4.8923  -16.4645 C   0  0  0  0  0  0  0  0  0  0  0  0
  1  2  1  0
  2  3  1  0
  2  4  1  0
  4  5  1  0
  5  6  1  0
  6  7  2  0
  7  8  1  0
  8  9  1  0
  9 10  1  0
 10 11  2  0
 10 12  1  0
 12 13  1  0
 13 14  1  0
 14 15  1  0
  8 16  2  0
 16  5  1  0
M  END
>  <energy_score>  (4013) 
-10.95028

>  <alias>  (4013) 
OPRIZCQAPKFGFX-UHFFFAOYSA-N-P35-P35-P86-601528

>  <HIPPO Pose ID>  (4013) 
81553

>  <smiles>  (4013) 
CC(C)Cn1cnc(NC(=O)CCCF)c1

>  <inchikey>  (4013) 
OPRIZCQAPKFGFX-UHFFFAOYSA-N

>  <distance_score>  (4013) 
1.891358

>  <ref_mols>  (4013) 
Z0719a,Z1597a

>  <ref_pdb>  (4013) 
Z0719a

>  <HIPPO Compound ID>  (4013) 
151562

>  <name>  (4013) 
OPRIZCQAPKFGFX-UHFFFAOYSA-N-P35-P35-P86-601528

>  <inspiration_score>  (4013) 
None

$$$$
SDLZQFBYNNDPTP-UHFFFAOYSA-N-P86-P35-P86-601528
     RDKit          3D

 16 17  0  0  0  0  0  0  0  0999 V2000
   -4.2199    4.6718  -17.9483 O   0  0  0  0  0  0  0  0  0  0  0  0
   -4.9755    4.9881  -18.7822 C   0  0  0  0  0  0  0  0  0  0  0  0
   -4.5333    5.7087  -20.0323 C   0  0  0  0  0  0  0  0  0  0  0  0
   -4.0784    7.0999  -19.5865 C   0  0  0  0  0  0  0  0  0  0  0  0
   -5.0285    7.7864  -18.5859 C   0  0  0  0  0  0  0  0  0  0  0  0
   -5.1502    7.0810  -17.4173 F   0  0  0  0  0  0  0  0  0  0  0  0
   -6.5256    4.8872  -18.8277 N   0  0  0  0  0  0  0  0  0  0  0  0
   -7.4153    4.4881  -17.8741 C   0  0  0  0  0  0  0  0  0  0  0  0
   -8.7164    4.0773  -18.0890 C   0  0  0  0  0  0  0  0  0  0  0  0
   -9.3875    3.8871  -16.9143 N   0  0  0  0  0  0  0  0  0  0  0  0
   -8.5164    4.2315  -15.9918 C   0  0  0  0  0  0  0  0  0  0  0  0
   -8.7285    4.3836  -14.5813 C   0  0  0  0  0  0  0  0  0  0  0  0
   -7.8237    4.8435  -13.7601 N   0  0  0  0  0  0  0  0  0  0  0  0
   -6.5903    5.1065  -14.3014 C   0  0  0  0  0  0  0  0  0  0  0  0
   -6.3052    4.9946  -15.6085 C   0  0  0  0  0  0  0  0  0  0  0  0
   -7.2839    4.5661  -16.4972 N   0  0  0  0  0  0  0  0  0  0  0  0
  1  2  2  0
  2  3  1  0
  3  4  1  0
  4  5  1  0
  5  6  1  0
  2  7  1  0
  7  8  1  0
  8  9  2  0
  9 10  1  0
 10 11  2  0
 11 12  1  0
 12 13  2  0
 13 14  1  0
 14 15  2  0
 15 16  1  0
 16  8  1  0
 16 11  1  0
M  END
>  <energy_score>  (4014) 
-21.028242

>  <alias>  (4014) 
SDLZQFBYNNDPTP-UHFFFAOYSA-N-P86-P35-P86-601528

>  <HIPPO Pose ID>  (4014) 
81558

>  <smiles>  (4014) 
O=C(CCCF)Nc1cnc2cnccn12

>  <inchikey>  (4014) 
SDLZQFBYNNDPTP-UHFFFAOYSA-N

>  <distance_score>  (4014) 
1.922001

>  <ref_mols>  (4014) 
Z0719a,Z1597a

>  <ref_pdb>  (4014) 
Z0719a

>  <HIPPO Compound ID>  (4014) 
151564

>  <name>  (4014) 
SDLZQFBYNNDPTP-UHFFFAOYSA-N-P86-P35-P86-601528

>  <inspiration_score>  (4014) 
None

$$$$
VEMSARPAHXDLNY-UHFFFAOYSA-N-P35-P35-P86-601528
     RDKit          3D

 16 16  0  0  0  0  0  0  0  0999 V2000
   -9.3478    5.8258  -14.8430 C   0  0  0  0  0  0  0  0  0  0  0  0
   -8.9649    5.0687  -16.0635 C   0  0  0  0  0  0  0  0  0  0  0  0
   -9.7238    4.4649  -16.9588 N   0  0  0  0  0  0  0  0  0  0  0  0
   -8.9224    4.2720  -18.0559 C   0  0  0  0  0  0  0  0  0  0  0  0
   -7.6657    4.7492  -17.7934 C   0  0  0  0  0  0  0  0  0  0  0  0
   -6.5968    4.9651  -18.5870 N   0  0  0  0  0  0  0  0  0  0  0  0
   -5.3964    5.9271  -18.4162 C   0  0  0  0  0  0  0  0  0  0  0  0
   -5.1852    6.7370  -17.6014 O   0  0  0  0  0  0  0  0  0  0  0  0
   -4.4019    5.5689  -19.4919 C   0  0  0  0  0  0  0  0  0  0  0  0
   -2.9774    5.6665  -18.9731 C   0  0  0  0  0  0  0  0  0  0  0  0
   -2.7913    5.2504  -17.4953 C   0  0  0  0  0  0  0  0  0  0  0  0
   -3.6650    4.2703  -17.1116 F   0  0  0  0  0  0  0  0  0  0  0  0
   -7.6598    4.9798  -16.4480 N   0  0  0  0  0  0  0  0  0  0  0  0
   -6.5245    4.9957  -15.5492 C   0  0  0  0  0  0  0  0  0  0  0  0
   -6.8233    4.4452  -14.2191 C   0  0  0  0  0  0  0  0  0  0  0  0
   -7.0994    4.0858  -13.1499 N   0  0  0  0  0  0  0  0  0  0  0  0
  1  2  1  0
  2  3  2  0
  3  4  1  0
  4  5  2  0
  5  6  1  0
  6  7  1  0
  7  8  2  0
  7  9  1  0
  9 10  1  0
 10 11  1  0
 11 12  1  0
  5 13  1  0
 13 14  1  0
 14 15  1  0
 15 16  3  0
 13  2  1  0
M  END
>  <energy_score>  (4015) 
-16.834418

>  <alias>  (4015) 
VEMSARPAHXDLNY-UHFFFAOYSA-N-P35-P35-P86-601528

>  <HIPPO Pose ID>  (4015) 
81561

>  <smiles>  (4015) 
Cc1ncc(NC(=O)CCCF)n1CC#N

>  <inchikey>  (4015) 
VEMSARPAHXDLNY-UHFFFAOYSA-N

>  <distance_score>  (4015) 
1.543227

>  <ref_mols>  (4015) 
Z0719a,Z1597a

>  <ref_pdb>  (4015) 
Z0719a

>  <HIPPO Compound ID>  (4015) 
151566

>  <name>  (4015) 
VEMSARPAHXDLNY-UHFFFAOYSA-N-P35-P35-P86-601528

>  <inspiration_score>  (4015) 
None

$$$$
GSVWSRBBWKVJCU-UHFFFAOYSA-N-P35-P35-P86-601528
     RDKit          3D

 16 17  0  0  0  0  0  0  0  0999 V2000
   -4.0130    4.1545  -16.8345 O   0  0  0  0  0  0  0  0  0  0  0  0
   -4.4861    4.5026  -17.8470 C   0  0  0  0  0  0  0  0  0  0  0  0
   -3.6688    5.0500  -18.9978 C   0  0  0  0  0  0  0  0  0  0  0  0
   -3.9271    6.5592  -19.1179 C   0  0  0  0  0  0  0  0  0  0  0  0
   -3.8220    7.2661  -17.7517 C   0  0  0  0  0  0  0  0  0  0  0  0
   -4.7253    6.7587  -16.8565 F   0  0  0  0  0  0  0  0  0  0  0  0
   -5.9780    4.6178  -18.2767 N   0  0  0  0  0  0  0  0  0  0  0  0
   -7.1191    4.4314  -17.5620 C   0  0  0  0  0  0  0  0  0  0  0  0
   -8.4057    4.3765  -18.0596 C   0  0  0  0  0  0  0  0  0  0  0  0
   -9.3222    4.4545  -17.0515 N   0  0  0  0  0  0  0  0  0  0  0  0
   -8.6056    4.6510  -15.9647 C   0  0  0  0  0  0  0  0  0  0  0  0
   -7.2725    4.4211  -16.2033 N   0  0  0  0  0  0  0  0  0  0  0  0
   -6.3157    4.4295  -15.1130 C   0  0  0  0  0  0  0  0  0  0  0  0
   -7.0182    4.4134  -13.7650 C   0  0  0  0  0  0  0  0  0  0  0  0
   -7.9865    5.4584  -13.7660 O   0  0  0  0  0  0  0  0  0  0  0  0
   -9.0752    5.1205  -14.6392 C   0  0  0  0  0  0  0  0  0  0  0  0
  1  2  2  0
  2  3  1  0
  3  4  1  0
  4  5  1  0
  5  6  1  0
  2  7  1  0
  7  8  1  0
  8  9  2  0
  9 10  1  0
 10 11  2  0
 11 12  1  0
 12 13  1  0
 13 14  1  0
 14 15  1  0
 15 16  1  0
 12  8  1  0
 16 11  1  0
M  END
>  <energy_score>  (4016) 
-1.387817

>  <alias>  (4016) 
GSVWSRBBWKVJCU-UHFFFAOYSA-N-P35-P35-P86-601528

>  <HIPPO Pose ID>  (4016) 
81563

>  <smiles>  (4016) 
O=C(CCCF)Nc1cnc2n1CCOC2

>  <inchikey>  (4016) 
GSVWSRBBWKVJCU-UHFFFAOYSA-N

>  <distance_score>  (4016) 
1.839497

>  <ref_mols>  (4016) 
Z0719a,Z1597a

>  <ref_pdb>  (4016) 
Z0719a

>  <HIPPO Compound ID>  (4016) 
151567

>  <name>  (4016) 
GSVWSRBBWKVJCU-UHFFFAOYSA-N-P35-P35-P86-601528

>  <inspiration_score>  (4016) 
None

$$$$
TWWXKTFXXCYQPA-UHFFFAOYSA-N-P86-P35-P86-601528
     RDKit          3D

 16 18  0  0  0  0  0  0  0  0999 V2000
   -3.3818    7.0646  -19.3029 O   0  0  0  0  0  0  0  0  0  0  0  0
   -3.9084    6.4079  -20.1071 C   0  0  0  0  0  0  0  0  0  0  0  0
   -5.1710    5.5412  -20.0133 N   0  0  0  0  0  0  0  0  0  0  0  0
   -5.9546    5.2401  -18.9506 C   0  0  0  0  0  0  0  0  0  0  0  0
   -7.0840    4.4601  -18.9710 C   0  0  0  0  0  0  0  0  0  0  0  0
   -7.5480    4.4772  -17.6932 N   0  0  0  0  0  0  0  0  0  0  0  0
   -8.7090    3.9241  -17.2688 N   0  0  0  0  0  0  0  0  0  0  0  0
   -8.8826    4.0969  -16.0008 C   0  0  0  0  0  0  0  0  0  0  0  0
   -7.9596    4.7576  -15.0532 C   0  0  0  0  0  0  0  0  0  0  0  0
   -6.8468    5.2937  -15.5594 C   0  0  0  0  0  0  0  0  0  0  0  0
   -6.6249    5.1936  -16.9461 C   0  0  0  0  0  0  0  0  0  0  0  0
   -5.6691    5.6886  -17.6973 N   0  0  0  0  0  0  0  0  0  0  0  0
   -3.2941    6.2681  -21.4528 C   0  0  2  0  0  0  0  0  0  0  0  0
   -2.5192    7.4199  -22.0381 C   0  0  0  0  0  0  0  0  0  0  0  0
   -3.7987    6.9788  -22.6814 C   0  0  2  0  0  0  0  0  0  0  0  0
   -5.2522    8.2026  -22.6270 Br  0  0  0  0  0  0  0  0  0  0  0  0
  1  2  2  0
  2  3  1  0
  3  4  1  0
  4  5  2  0
  5  6  1  0
  6  7  1  0
  7  8  2  0
  8  9  1  0
  9 10  2  0
 10 11  1  0
 11 12  2  0
 13  2  1  1
 13 14  1  0
 14 15  1  0
 15 16  1  1
 12  4  1  0
 15 13  1  0
 11  6  1  0
M  END
>  <energy_score>  (4017) 
-33.052391

>  <alias>  (4017) 
TWWXKTFXXCYQPA-UHFFFAOYSA-N-P86-P35-P86-601528

>  <HIPPO Pose ID>  (4017) 
81580

>  <smiles>  (4017) 
O=C(Nc1cn2ncccc2n1)C1CC1Br

>  <inchikey>  (4017) 
TWWXKTFXXCYQPA-UHFFFAOYSA-N

>  <distance_score>  (4017) 
1.75176

>  <ref_mols>  (4017) 
Z0719a,Z1597a

>  <ref_pdb>  (4017) 
Z0719a

>  <HIPPO Compound ID>  (4017) 
151575

>  <name>  (4017) 
TWWXKTFXXCYQPA-UHFFFAOYSA-N-P86-P35-P86-601528

>  <inspiration_score>  (4017) 
None

$$$$
OOPMDYOSCNLJOB-UHFFFAOYSA-N-P86-P35-P86-601528
     RDKit          3D

 16 17  0  0  0  0  0  0  0  0999 V2000
   -2.9678    6.7191  -18.8131 O   0  0  0  0  0  0  0  0  0  0  0  0
   -3.5084    6.1848  -19.7010 C   0  0  0  0  0  0  0  0  0  0  0  0
   -2.9901    6.2099  -21.1229 C   0  0  0  0  0  0  0  0  0  0  0  0
   -3.7398    7.2643  -21.9253 C   0  0  0  0  0  0  0  0  0  0  0  0
   -3.8745    6.8968  -23.3920 C   0  0  0  0  0  0  0  0  0  0  0  0
   -2.6897    6.4243  -23.8676 F   0  0  0  0  0  0  0  0  0  0  0  0
   -4.8361    5.3748  -19.7322 N   0  0  0  0  0  0  0  0  0  0  0  0
   -5.7535    5.1541  -18.7619 C   0  0  0  0  0  0  0  0  0  0  0  0
   -6.9388    4.4796  -18.9106 C   0  0  0  0  0  0  0  0  0  0  0  0
   -7.5033    4.4825  -17.6728 N   0  0  0  0  0  0  0  0  0  0  0  0
   -8.7060    3.9492  -17.3550 N   0  0  0  0  0  0  0  0  0  0  0  0
   -8.9657    4.0766  -16.0965 C   0  0  0  0  0  0  0  0  0  0  0  0
   -8.1063    4.6943  -15.0639 C   0  0  0  0  0  0  0  0  0  0  0  0
   -6.9462    5.2170  -15.4679 C   0  0  0  0  0  0  0  0  0  0  0  0
   -6.6142    5.1373  -16.8335 C   0  0  0  0  0  0  0  0  0  0  0  0
   -5.5652    5.5818  -17.4852 N   0  0  0  0  0  0  0  0  0  0  0  0
  1  2  2  0
  2  3  1  0
  3  4  1  0
  4  5  1  0
  5  6  1  0
  2  7  1  0
  7  8  1  0
  8  9  2  0
  9 10  1  0
 10 11  1  0
 11 12  2  0
 12 13  1  0
 13 14  2  0
 14 15  1  0
 15 16  2  0
 16  8  1  0
 15 10  1  0
M  END
>  <energy_score>  (4018) 
-1.296443

>  <alias>  (4018) 
OOPMDYOSCNLJOB-UHFFFAOYSA-N-P86-P35-P86-601528

>  <HIPPO Pose ID>  (4018) 
81582

>  <smiles>  (4018) 
O=C(CCCF)Nc1cn2ncccc2n1

>  <inchikey>  (4018) 
OOPMDYOSCNLJOB-UHFFFAOYSA-N

>  <distance_score>  (4018) 
1.68647

>  <ref_mols>  (4018) 
Z0719a,Z1597a

>  <ref_pdb>  (4018) 
Z0719a

>  <HIPPO Compound ID>  (4018) 
151576

>  <name>  (4018) 
OOPMDYOSCNLJOB-UHFFFAOYSA-N-P86-P35-P86-601528

>  <inspiration_score>  (4018) 
None

$$$$
RLPKQLIFXFTKHA-UHFFFAOYSA-N-P35-P35-P86-601528
     RDKit          3D

 16 17  0  0  0  0  0  0  0  0999 V2000
   -3.3893    7.6481  -18.7326 O   0  0  0  0  0  0  0  0  0  0  0  0
   -3.8566    7.0618  -19.6289 C   0  0  0  0  0  0  0  0  0  0  0  0
   -3.3996    7.2895  -21.0524 C   0  0  0  0  0  0  0  0  0  0  0  0
   -4.3292    8.2474  -21.7794 C   0  0  0  0  0  0  0  0  0  0  0  0
   -5.2083    7.5862  -22.8242 C   0  0  0  0  0  0  0  0  0  0  0  0
   -4.4137    6.9032  -23.6909 F   0  0  0  0  0  0  0  0  0  0  0  0
   -5.0393    6.0574  -19.6668 N   0  0  0  0  0  0  0  0  0  0  0  0
   -5.7775    5.5324  -18.6630 C   0  0  0  0  0  0  0  0  0  0  0  0
   -6.9082    4.7732  -18.8157 C   0  0  0  0  0  0  0  0  0  0  0  0
   -7.4216    4.6821  -17.5569 N   0  0  0  0  0  0  0  0  0  0  0  0
   -8.6534    4.2304  -17.1350 C   0  0  0  0  0  0  0  0  0  0  0  0
   -8.9236    4.2747  -15.8294 C   0  0  0  0  0  0  0  0  0  0  0  0
   -7.8236    4.7365  -14.9494 C   0  0  0  0  0  0  0  0  0  0  0  0
   -6.6751    5.1970  -15.3290 N   0  0  0  0  0  0  0  0  0  0  0  0
   -6.4793    5.2244  -16.6797 C   0  0  0  0  0  0  0  0  0  0  0  0
   -5.4966    5.7771  -17.3568 N   0  0  0  0  0  0  0  0  0  0  0  0
  1  2  2  0
  2  3  1  0
  3  4  1  0
  4  5  1  0
  5  6  1  0
  2  7  1  0
  7  8  1  0
  8  9  2  0
  9 10  1  0
 10 11  1  0
 11 12  2  0
 12 13  1  0
 13 14  2  0
 14 15  1  0
 15 16  2  0
 16  8  1  0
 15 10  1  0
M  END
>  <energy_score>  (4019) 
-21.304768

>  <alias>  (4019) 
RLPKQLIFXFTKHA-UHFFFAOYSA-N-P35-P35-P86-601528

>  <HIPPO Pose ID>  (4019) 
81583

>  <smiles>  (4019) 
O=C(CCCF)Nc1cn2cccnc2n1

>  <inchikey>  (4019) 
RLPKQLIFXFTKHA-UHFFFAOYSA-N

>  <distance_score>  (4019) 
1.862388

>  <ref_mols>  (4019) 
Z0719a,Z1597a

>  <ref_pdb>  (4019) 
Z0719a

>  <HIPPO Compound ID>  (4019) 
151577

>  <name>  (4019) 
RLPKQLIFXFTKHA-UHFFFAOYSA-N-P35-P35-P86-601528

>  <inspiration_score>  (4019) 
None

$$$$
LGNYSZBJZZGPQZ-UHFFFAOYSA-N-P35-P35-P86-601528
     RDKit          3D

 16 17  0  0  0  0  0  0  0  0999 V2000
   -4.1604    4.3407  -17.7525 O   0  0  0  0  0  0  0  0  0  0  0  0
   -4.8559    4.8725  -18.5277 C   0  0  0  0  0  0  0  0  0  0  0  0
   -4.3160    5.7369  -19.6429 C   0  0  0  0  0  0  0  0  0  0  0  0
   -3.7175    7.0144  -19.0570 C   0  0  0  0  0  0  0  0  0  0  0  0
   -4.6406    7.8067  -18.1099 C   0  0  0  0  0  0  0  0  0  0  0  0
   -4.8146    7.0996  -16.4627 Cl  0  0  0  0  0  0  0  0  0  0  0  0
   -6.4064    4.9552  -18.5995 N   0  0  0  0  0  0  0  0  0  0  0  0
   -7.3583    4.5079  -17.7310 C   0  0  0  0  0  0  0  0  0  0  0  0
   -8.7044    4.3556  -18.0121 C   0  0  0  0  0  0  0  0  0  0  0  0
   -9.4376    4.1766  -16.8738 N   0  0  0  0  0  0  0  0  0  0  0  0
   -8.5516    4.2879  -15.9110 C   0  0  0  0  0  0  0  0  0  0  0  0
   -8.7809    4.4030  -14.5022 C   0  0  0  0  0  0  0  0  0  0  0  0
   -7.8264    4.5207  -13.6217 N   0  0  0  0  0  0  0  0  0  0  0  0
   -6.5447    4.4382  -14.1045 C   0  0  0  0  0  0  0  0  0  0  0  0
   -6.2410    4.3672  -15.4104 C   0  0  0  0  0  0  0  0  0  0  0  0
   -7.2566    4.3505  -16.3584 N   0  0  0  0  0  0  0  0  0  0  0  0
  1  2  2  0
  2  3  1  0
  3  4  1  0
  4  5  1  0
  5  6  1  0
  2  7  1  0
  7  8  1  0
  8  9  2  0
  9 10  1  0
 10 11  2  0
 11 12  1  0
 12 13  2  0
 13 14  1  0
 14 15  2  0
 15 16  1  0
 16  8  1  0
 16 11  1  0
M  END
>  <energy_score>  (4020) 
-8.024486

>  <alias>  (4020) 
LGNYSZBJZZGPQZ-UHFFFAOYSA-N-P35-P35-P86-601528

>  <HIPPO Pose ID>  (4020) 
81611

>  <smiles>  (4020) 
O=C(CCCCl)Nc1cnc2cnccn12

>  <inchikey>  (4020) 
LGNYSZBJZZGPQZ-UHFFFAOYSA-N

>  <distance_score>  (4020) 
1.911187

>  <ref_mols>  (4020) 
Z0719a,Z1597a

>  <ref_pdb>  (4020) 
Z0719a

>  <HIPPO Compound ID>  (4020) 
151591

>  <name>  (4020) 
LGNYSZBJZZGPQZ-UHFFFAOYSA-N-P35-P35-P86-601528

>  <inspiration_score>  (4020) 
None

$$$$
JVKVDUBGNMDGCR-UHFFFAOYSA-N-P86-P35-P86-601528
     RDKit          3D

 16 16  0  0  0  0  0  0  0  0999 V2000
  -10.0019    4.0821  -16.9007 C   0  0  0  0  0  0  0  0  0  0  0  0
   -8.6995    4.0330  -17.5445 C   0  0  0  0  0  0  0  0  0  0  0  0
   -8.5092    3.5274  -18.7370 N   0  0  0  0  0  0  0  0  0  0  0  0
   -7.3860    4.1400  -19.1900 C   0  0  0  0  0  0  0  0  0  0  0  0
   -6.8734    4.9864  -18.2377 C   0  0  0  0  0  0  0  0  0  0  0  0
   -5.8928    5.9191  -18.3361 N   0  0  0  0  0  0  0  0  0  0  0  0
   -5.0850    6.4060  -19.5704 C   0  0  0  0  0  0  0  0  0  0  0  0
   -5.1934    6.1347  -20.7001 O   0  0  0  0  0  0  0  0  0  0  0  0
   -3.9798    7.2807  -19.0346 C   0  0  0  0  0  0  0  0  0  0  0  0
   -2.7368    6.4270  -18.8571 C   0  0  0  0  0  0  0  0  0  0  0  0
   -2.9047    5.1172  -18.0704 C   0  0  0  0  0  0  0  0  0  0  0  0
   -3.6337    5.2899  -16.4252 Cl  0  0  0  0  0  0  0  0  0  0  0  0
   -7.5791    4.6843  -17.0949 N   0  0  0  0  0  0  0  0  0  0  0  0
   -7.1710    4.9694  -15.7239 C   0  0  0  0  0  0  0  0  0  0  0  0
   -8.1938    5.0694  -14.6822 C   0  0  0  0  0  0  0  0  0  0  0  0
   -8.9735    5.2169  -13.8332 N   0  0  0  0  0  0  0  0  0  0  0  0
  1  2  1  0
  2  3  2  0
  3  4  1  0
  4  5  2  0
  5  6  1  0
  6  7  1  0
  7  8  2  0
  7  9  1  0
  9 10  1  0
 10 11  1  0
 11 12  1  0
  5 13  1  0
 13 14  1  0
 14 15  1  0
 15 16  3  0
 13  2  1  0
M  END
>  <energy_score>  (4021) 
-22.849563

>  <alias>  (4021) 
JVKVDUBGNMDGCR-UHFFFAOYSA-N-P86-P35-P86-601528

>  <HIPPO Pose ID>  (4021) 
81616

>  <smiles>  (4021) 
Cc1ncc(NC(=O)CCCCl)n1CC#N

>  <inchikey>  (4021) 
JVKVDUBGNMDGCR-UHFFFAOYSA-N

>  <distance_score>  (4021) 
1.757224

>  <ref_mols>  (4021) 
Z0719a,Z1597a

>  <ref_pdb>  (4021) 
Z0719a

>  <HIPPO Compound ID>  (4021) 
151593

>  <name>  (4021) 
JVKVDUBGNMDGCR-UHFFFAOYSA-N-P86-P35-P86-601528

>  <inspiration_score>  (4021) 
None

$$$$
YOJRNOBAXGOJSG-UHFFFAOYSA-N-P86-P35-P86-601528
     RDKit          3D

 16 17  0  0  0  0  0  0  0  0999 V2000
   -3.9375    4.7654  -17.2189 O   0  0  0  0  0  0  0  0  0  0  0  0
   -4.5427    4.9505  -18.2025 C   0  0  0  0  0  0  0  0  0  0  0  0
   -3.9038    5.4879  -19.4674 C   0  0  0  0  0  0  0  0  0  0  0  0
   -4.2125    6.9763  -19.6391 C   0  0  0  0  0  0  0  0  0  0  0  0
   -3.7838    7.8353  -18.4350 C   0  0  0  0  0  0  0  0  0  0  0  0
   -4.8298    7.6356  -16.9867 Cl  0  0  0  0  0  0  0  0  0  0  0  0
   -6.0675    4.8294  -18.4860 N   0  0  0  0  0  0  0  0  0  0  0  0
   -7.1074    4.5638  -17.6425 C   0  0  0  0  0  0  0  0  0  0  0  0
   -8.3942    4.2511  -18.0375 C   0  0  0  0  0  0  0  0  0  0  0  0
   -9.2468    4.2196  -16.9739 N   0  0  0  0  0  0  0  0  0  0  0  0
   -8.5096    4.5714  -15.9399 C   0  0  0  0  0  0  0  0  0  0  0  0
   -7.1735    4.6191  -16.2734 N   0  0  0  0  0  0  0  0  0  0  0  0
   -6.1920    4.8915  -15.2408 C   0  0  0  0  0  0  0  0  0  0  0  0
   -6.7699    4.6714  -13.8535 C   0  0  0  0  0  0  0  0  0  0  0  0
   -7.9295    5.4904  -13.7581 O   0  0  0  0  0  0  0  0  0  0  0  0
   -8.9795    4.9645  -14.5836 C   0  0  0  0  0  0  0  0  0  0  0  0
  1  2  2  0
  2  3  1  0
  3  4  1  0
  4  5  1  0
  5  6  1  0
  2  7  1  0
  7  8  1  0
  8  9  2  0
  9 10  1  0
 10 11  2  0
 11 12  1  0
 12 13  1  0
 13 14  1  0
 14 15  1  0
 15 16  1  0
 12  8  1  0
 16 11  1  0
M  END
>  <energy_score>  (4022) 
-5.454259

>  <alias>  (4022) 
YOJRNOBAXGOJSG-UHFFFAOYSA-N-P86-P35-P86-601528

>  <HIPPO Pose ID>  (4022) 
81618

>  <smiles>  (4022) 
O=C(CCCCl)Nc1cnc2n1CCOC2

>  <inchikey>  (4022) 
YOJRNOBAXGOJSG-UHFFFAOYSA-N

>  <distance_score>  (4022) 
1.919131

>  <ref_mols>  (4022) 
Z0719a,Z1597a

>  <ref_pdb>  (4022) 
Z0719a

>  <HIPPO Compound ID>  (4022) 
151594

>  <name>  (4022) 
YOJRNOBAXGOJSG-UHFFFAOYSA-N-P86-P35-P86-601528

>  <inspiration_score>  (4022) 
None

$$$$
YDVZRGYEKKYJQF-UHFFFAOYSA-N-P86-P35-P86-601528
     RDKit          3D

 16 17  0  0  0  0  0  0  0  0999 V2000
   -2.3479    6.5228  -18.6934 O   0  0  0  0  0  0  0  0  0  0  0  0
   -3.1943    6.2016  -19.4314 C   0  0  0  0  0  0  0  0  0  0  0  0
   -3.0120    6.1299  -20.9372 C   0  0  0  0  0  0  0  0  0  0  0  0
   -3.7178    7.2937  -21.6268 C   0  0  0  0  0  0  0  0  0  0  0  0
   -3.8723    7.1175  -23.1324 C   0  0  0  0  0  0  0  0  0  0  0  0
   -2.3128    6.8936  -23.9589 Cl  0  0  0  0  0  0  0  0  0  0  0  0
   -4.6698    5.7995  -19.1576 N   0  0  0  0  0  0  0  0  0  0  0  0
   -5.3307    5.6310  -17.9919 C   0  0  0  0  0  0  0  0  0  0  0  0
   -6.6710    5.3650  -17.9008 C   0  0  0  0  0  0  0  0  0  0  0  0
   -6.8792    5.0958  -16.5831 N   0  0  0  0  0  0  0  0  0  0  0  0
   -8.0862    4.6858  -15.8928 C   0  0  0  0  0  0  0  0  0  0  0  0
   -9.1274    3.9150  -16.6321 C   0  0  0  0  0  0  0  0  0  0  0  0
   -8.9620    3.1697  -17.9313 C   0  0  0  0  0  0  0  0  0  0  0  0
   -9.8572    4.3637  -17.8793 C   0  0  0  0  0  0  0  0  0  0  0  0
   -5.6990    5.3370  -15.9305 C   0  0  0  0  0  0  0  0  0  0  0  0
   -4.7495    5.6748  -16.7687 N   0  0  0  0  0  0  0  0  0  0  0  0
  1  2  2  0
  2  3  1  0
  3  4  1  0
  4  5  1  0
  5  6  1  0
  2  7  1  0
  7  8  1  0
  8  9  2  0
  9 10  1  0
 10 11  1  0
 11 12  1  0
 12 13  1  0
 13 14  1  0
 10 15  1  0
 15 16  2  0
 16  8  1  0
 14 12  1  0
M  END
>  <energy_score>  (4023) 
-11.889954

>  <alias>  (4023) 
YDVZRGYEKKYJQF-UHFFFAOYSA-N-P86-P35-P86-601528

>  <HIPPO Pose ID>  (4023) 
81620

>  <smiles>  (4023) 
O=C(CCCCl)Nc1cn(CC2CC2)cn1

>  <inchikey>  (4023) 
YDVZRGYEKKYJQF-UHFFFAOYSA-N

>  <distance_score>  (4023) 
1.741581

>  <ref_mols>  (4023) 
Z0719a,Z1597a

>  <ref_pdb>  (4023) 
Z0719a

>  <HIPPO Compound ID>  (4023) 
151595

>  <name>  (4023) 
YDVZRGYEKKYJQF-UHFFFAOYSA-N-P86-P35-P86-601528

>  <inspiration_score>  (4023) 
None

$$$$
IZLUUNOISQDHGS-UHFFFAOYSA-N-P86-P35-P86-601528
     RDKit          3D

 16 16  0  0  0  0  0  0  0  0999 V2000
   -6.1304    6.0802  -14.1667 C   0  0  0  0  0  0  0  0  0  0  0  0
   -6.0133    4.8697  -15.0805 C   0  0  0  0  0  0  0  0  0  0  0  0
   -7.1493    4.6313  -15.9270 N   0  0  0  0  0  0  0  0  0  0  0  0
   -8.4002    4.3874  -15.3839 C   0  0  0  0  0  0  0  0  0  0  0  0
   -8.6852    4.4241  -13.9269 C   0  0  0  0  0  0  0  0  0  0  0  0
   -9.2846    4.1686  -16.3230 N   0  0  0  0  0  0  0  0  0  0  0  0
   -8.6174    4.3308  -17.4945 C   0  0  0  0  0  0  0  0  0  0  0  0
   -9.3580    4.1873  -18.7480 C   0  0  0  0  0  0  0  0  0  0  0  0
   -7.2806    4.6259  -17.2979 C   0  0  0  0  0  0  0  0  0  0  0  0
   -6.4025    4.8859  -18.3250 N   0  0  0  0  0  0  0  0  0  0  0  0
   -4.8450    4.9299  -18.3378 C   0  0  0  0  0  0  0  0  0  0  0  0
   -4.0719    4.6763  -17.4961 O   0  0  0  0  0  0  0  0  0  0  0  0
   -4.4212    5.4931  -19.6762 C   0  0  0  0  0  0  0  0  0  0  0  0
   -4.5707    7.0138  -19.6844 C   0  0  0  0  0  0  0  0  0  0  0  0
   -3.9229    7.7167  -18.4761 C   0  0  0  0  0  0  0  0  0  0  0  0
   -4.8583    7.5459  -16.9455 Cl  0  0  0  0  0  0  0  0  0  0  0  0
  1  2  1  0
  2  3  1  0
  3  4  1  0
  4  5  1  0
  4  6  2  0
  6  7  1  0
  7  8  1  0
  7  9  2  0
  9 10  1  0
 10 11  1  0
 11 12  2  0
 11 13  1  0
 13 14  1  0
 14 15  1  0
 15 16  1  0
  9  3  1  0
M  END
>  <energy_score>  (4024) 
-7.597072

>  <alias>  (4024) 
IZLUUNOISQDHGS-UHFFFAOYSA-N-P86-P35-P86-601528

>  <HIPPO Pose ID>  (4024) 
81626

>  <smiles>  (4024) 
CCn1c(C)nc(C)c1NC(=O)CCCCl

>  <inchikey>  (4024) 
IZLUUNOISQDHGS-UHFFFAOYSA-N

>  <distance_score>  (4024) 
1.853373

>  <ref_mols>  (4024) 
Z0719a,Z1597a

>  <ref_pdb>  (4024) 
Z0719a

>  <HIPPO Compound ID>  (4024) 
151598

>  <name>  (4024) 
IZLUUNOISQDHGS-UHFFFAOYSA-N-P86-P35-P86-601528

>  <inspiration_score>  (4024) 
None

$$$$
MORONVRUNQAMLB-UHFFFAOYSA-N-P86-P35-P86-601528
     RDKit          3D

 16 17  0  0  0  0  0  0  0  0999 V2000
   -3.0550    6.8516  -18.8159 O   0  0  0  0  0  0  0  0  0  0  0  0
   -3.5788    6.2918  -19.6978 C   0  0  0  0  0  0  0  0  0  0  0  0
   -3.0249    6.2893  -21.1081 C   0  0  0  0  0  0  0  0  0  0  0  0
   -3.8978    7.0337  -22.1128 C   0  0  0  0  0  0  0  0  0  0  0  0
   -3.8412    8.5548  -21.9776 C   0  0  0  0  0  0  0  0  0  0  0  0
   -4.9022    9.1664  -20.6912 Cl  0  0  0  0  0  0  0  0  0  0  0  0
   -4.8706    5.4289  -19.7170 N   0  0  0  0  0  0  0  0  0  0  0  0
   -5.7712    5.1750  -18.7406 C   0  0  0  0  0  0  0  0  0  0  0  0
   -6.9462    4.4832  -18.8905 C   0  0  0  0  0  0  0  0  0  0  0  0
   -7.5102    4.4781  -17.6532 N   0  0  0  0  0  0  0  0  0  0  0  0
   -8.7107    3.9386  -17.3390 N   0  0  0  0  0  0  0  0  0  0  0  0
   -8.9765    4.0710  -16.0825 C   0  0  0  0  0  0  0  0  0  0  0  0
   -8.1232    4.6922  -15.0471 C   0  0  0  0  0  0  0  0  0  0  0  0
   -6.9618    5.2148  -15.4467 C   0  0  0  0  0  0  0  0  0  0  0  0
   -6.6256    5.1355  -16.8111 C   0  0  0  0  0  0  0  0  0  0  0  0
   -5.5782    5.5871  -17.4599 N   0  0  0  0  0  0  0  0  0  0  0  0
  1  2  2  0
  2  3  1  0
  3  4  1  0
  4  5  1  0
  5  6  1  0
  2  7  1  0
  7  8  1  0
  8  9  2  0
  9 10  1  0
 10 11  1  0
 11 12  2  0
 12 13  1  0
 13 14  2  0
 14 15  1  0
 15 16  2  0
 16  8  1  0
 15 10  1  0
M  END
>  <energy_score>  (4025) 
-4.330795

>  <alias>  (4025) 
MORONVRUNQAMLB-UHFFFAOYSA-N-P86-P35-P86-601528

>  <HIPPO Pose ID>  (4025) 
81632

>  <smiles>  (4025) 
O=C(CCCCl)Nc1cn2ncccc2n1

>  <inchikey>  (4025) 
MORONVRUNQAMLB-UHFFFAOYSA-N

>  <distance_score>  (4025) 
1.686702

>  <ref_mols>  (4025) 
Z0719a,Z1597a

>  <ref_pdb>  (4025) 
Z0719a

>  <HIPPO Compound ID>  (4025) 
151601

>  <name>  (4025) 
MORONVRUNQAMLB-UHFFFAOYSA-N-P86-P35-P86-601528

>  <inspiration_score>  (4025) 
None

$$$$
YDNMXBBJTOCNRQ-UHFFFAOYSA-N-P35-P35-P86-601528
     RDKit          3D

 16 16  0  0  0  0  0  0  0  0999 V2000
   -8.9753    4.2439  -18.8097 C   0  0  0  0  0  0  0  0  0  0  0  0
   -8.3938    4.4707  -17.4820 C   0  0  0  0  0  0  0  0  0  0  0  0
   -9.1878    4.3285  -16.3873 N   0  0  0  0  0  0  0  0  0  0  0  0
   -8.4207    4.6006  -15.3595 C   0  0  0  0  0  0  0  0  0  0  0  0
   -8.8745    4.6296  -13.9541 C   0  0  0  0  0  0  0  0  0  0  0  0
   -7.1218    4.8471  -15.7533 N   0  0  0  0  0  0  0  0  0  0  0  0
   -6.0149    4.9926  -14.8238 C   0  0  0  0  0  0  0  0  0  0  0  0
   -6.0144    4.0168  -13.6378 C   0  0  0  0  0  0  0  0  0  0  0  0
   -5.8961    6.4285  -14.3256 C   0  0  0  0  0  0  0  0  0  0  0  0
   -7.1082    4.8434  -17.1343 C   0  0  0  0  0  0  0  0  0  0  0  0
   -6.1152    5.0891  -18.0506 N   0  0  0  0  0  0  0  0  0  0  0  0
   -4.6778    5.6725  -17.8573 C   0  0  0  0  0  0  0  0  0  0  0  0
   -4.1558    6.1014  -16.9011 O   0  0  0  0  0  0  0  0  0  0  0  0
   -4.0270    5.5810  -19.2484 C   0  0  1  0  0  0  0  0  0  0  0  0
   -4.3892    6.7505  -20.1448 C   0  0  0  0  0  0  0  0  0  0  0  0
   -2.0849    5.4905  -19.0545 Br  0  0  0  0  0  0  0  0  0  0  0  0
  1  2  1  0
  2  3  1  0
  3  4  2  0
  4  5  1  0
  4  6  1  0
  6  7  1  0
  7  8  1  0
  7  9  1  0
  6 10  1  0
 10 11  1  0
 11 12  1  0
 12 13  2  0
 12 14  1  0
 14 15  1  6
 14 16  1  0
 10  2  2  0
M  END
>  <energy_score>  (4026) 
-21.754286

>  <alias>  (4026) 
YDNMXBBJTOCNRQ-UHFFFAOYSA-N-P35-P35-P86-601528

>  <HIPPO Pose ID>  (4026) 
81635

>  <smiles>  (4026) 
Cc1nc(C)n(C(C)C)c1NC(=O)C(C)Br

>  <inchikey>  (4026) 
YDNMXBBJTOCNRQ-UHFFFAOYSA-N

>  <distance_score>  (4026) 
1.874016

>  <ref_mols>  (4026) 
Z0719a,Z1597a

>  <ref_pdb>  (4026) 
Z0719a

>  <HIPPO Compound ID>  (4026) 
151603

>  <name>  (4026) 
YDNMXBBJTOCNRQ-UHFFFAOYSA-N-P35-P35-P86-601528

>  <inspiration_score>  (4026) 
None

$$$$
LPWBHKVYFPJALJ-UHFFFAOYSA-N-P86-P35-P86-601528
     RDKit          3D

 16 17  0  0  0  0  0  0  0  0999 V2000
   -3.7731    6.9845  -19.3922 O   0  0  0  0  0  0  0  0  0  0  0  0
   -4.5883    6.5343  -20.0965 C   0  0  0  0  0  0  0  0  0  0  0  0
   -4.5797    6.7237  -21.6032 C   0  0  0  0  0  0  0  0  0  0  0  0
   -3.4521    7.6581  -22.0231 C   0  0  0  0  0  0  0  0  0  0  0  0
   -2.0448    7.0717  -21.9028 C   0  0  0  0  0  0  0  0  0  0  0  0
   -1.6492    6.0415  -23.3040 Cl  0  0  0  0  0  0  0  0  0  0  0  0
   -5.8348    5.6739  -19.7688 N   0  0  0  0  0  0  0  0  0  0  0  0
   -6.3511    5.2965  -18.5802 C   0  0  0  0  0  0  0  0  0  0  0  0
   -7.5458    4.6548  -18.3704 C   0  0  0  0  0  0  0  0  0  0  0  0
   -7.6635    4.6088  -17.0097 N   0  0  0  0  0  0  0  0  0  0  0  0
   -8.7206    4.2122  -16.2133 C   0  0  0  0  0  0  0  0  0  0  0  0
   -8.5969    4.3340  -14.8865 C   0  0  0  0  0  0  0  0  0  0  0  0
   -7.2901    4.8288  -14.3978 C   0  0  0  0  0  0  0  0  0  0  0  0
   -6.3023    5.2340  -15.1237 N   0  0  0  0  0  0  0  0  0  0  0  0
   -6.4964    5.1529  -16.4694 C   0  0  0  0  0  0  0  0  0  0  0  0
   -5.7128    5.5935  -17.4232 N   0  0  0  0  0  0  0  0  0  0  0  0
  1  2  2  0
  2  3  1  0
  3  4  1  0
  4  5  1  0
  5  6  1  0
  2  7  1  0
  7  8  1  0
  8  9  2  0
  9 10  1  0
 10 11  1  0
 11 12  2  0
 12 13  1  0
 13 14  2  0
 14 15  1  0
 15 16  2  0
 16  8  1  0
 15 10  1  0
M  END
>  <energy_score>  (4027) 
-26.581337

>  <alias>  (4027) 
LPWBHKVYFPJALJ-UHFFFAOYSA-N-P86-P35-P86-601528

>  <HIPPO Pose ID>  (4027) 
81642

>  <smiles>  (4027) 
O=C(CCCCl)Nc1cn2cccnc2n1

>  <inchikey>  (4027) 
LPWBHKVYFPJALJ-UHFFFAOYSA-N

>  <distance_score>  (4027) 
1.57505

>  <ref_mols>  (4027) 
Z0719a,Z1597a

>  <ref_pdb>  (4027) 
Z0719a

>  <HIPPO Compound ID>  (4027) 
151606

>  <name>  (4027) 
LPWBHKVYFPJALJ-UHFFFAOYSA-N-P86-P35-P86-601528

>  <inspiration_score>  (4027) 
None

$$$$
CFGDZJBFDLFKJX-UHFFFAOYSA-N-P35-P35-P86-601528
     RDKit          3D

 16 16  0  0  0  0  0  0  0  0999 V2000
   -5.3818    4.8394  -13.0079 C   0  0  0  0  0  0  0  0  0  0  0  0
   -5.8337    3.6021  -13.7879 C   0  0  0  0  0  0  0  0  0  0  0  0
   -5.8538    2.3915  -12.8674 C   0  0  0  0  0  0  0  0  0  0  0  0
   -7.2400    3.8291  -14.4148 C   0  0  0  0  0  0  0  0  0  0  0  0
   -7.2693    4.3797  -15.7614 N   0  0  0  0  0  0  0  0  0  0  0  0
   -8.3309    4.3511  -16.6237 C   0  0  0  0  0  0  0  0  0  0  0  0
   -7.9928    4.8125  -17.8119 N   0  0  0  0  0  0  0  0  0  0  0  0
   -6.6916    5.1805  -17.6955 C   0  0  0  0  0  0  0  0  0  0  0  0
   -5.9483    5.6549  -18.7211 N   0  0  0  0  0  0  0  0  0  0  0  0
   -4.5051    6.2326  -18.7390 C   0  0  0  0  0  0  0  0  0  0  0  0
   -3.7100    6.3154  -17.8829 O   0  0  0  0  0  0  0  0  0  0  0  0
   -4.1232    6.6410  -20.1555 C   0  0  0  0  0  0  0  0  0  0  0  0
   -5.1144    7.5185  -20.8962 C   0  0  0  0  0  0  0  0  0  0  0  0
   -4.5273    8.0537  -22.1946 C   0  0  0  0  0  0  0  0  0  0  0  0
   -5.6874    9.1371  -23.0010 Cl  0  0  0  0  0  0  0  0  0  0  0  0
   -6.2420    4.9811  -16.4225 C   0  0  0  0  0  0  0  0  0  0  0  0
  1  2  1  0
  2  3  1  0
  2  4  1  0
  4  5  1  0
  5  6  1  0
  6  7  2  0
  7  8  1  0
  8  9  1  0
  9 10  1  0
 10 11  2  0
 10 12  1  0
 12 13  1  0
 13 14  1  0
 14 15  1  0
  8 16  2  0
 16  5  1  0
M  END
>  <energy_score>  (4028) 
-26.779921

>  <alias>  (4028) 
CFGDZJBFDLFKJX-UHFFFAOYSA-N-P35-P35-P86-601528

>  <HIPPO Pose ID>  (4028) 
81643

>  <smiles>  (4028) 
CC(C)Cn1cnc(NC(=O)CCCCl)c1

>  <inchikey>  (4028) 
CFGDZJBFDLFKJX-UHFFFAOYSA-N

>  <distance_score>  (4028) 
1.740429

>  <ref_mols>  (4028) 
Z0719a,Z1597a

>  <ref_pdb>  (4028) 
Z0719a

>  <HIPPO Compound ID>  (4028) 
151607

>  <name>  (4028) 
CFGDZJBFDLFKJX-UHFFFAOYSA-N-P35-P35-P86-601528

>  <inspiration_score>  (4028) 
None

$$$$
PWJDOJZVSDGIDI-UHFFFAOYSA-N-P35-P35-P86-601528
     RDKit          3D

 16 16  0  0  0  0  0  0  0  0999 V2000
   -4.0659    7.4261  -21.3475 C   0  0  0  0  0  0  0  0  0  0  0  0
   -5.2500    7.1734  -20.4334 C   0  0  2  0  0  0  0  0  0  0  0  0
   -5.6969    8.8938  -19.5749 Br  0  0  0  0  0  0  0  0  0  0  0  0
   -4.9096    6.2278  -19.2830 C   0  0  0  0  0  0  0  0  0  0  0  0
   -3.8040    5.9694  -18.9891 O   0  0  0  0  0  0  0  0  0  0  0  0
   -6.2566    5.8281  -18.6028 N   0  0  0  0  0  0  0  0  0  0  0  0
   -6.4937    5.1587  -17.4537 C   0  0  0  0  0  0  0  0  0  0  0  0
   -5.5520    4.5977  -16.6397 C   0  0  0  0  0  0  0  0  0  0  0  0
   -6.2376    4.1478  -15.5424 N   0  0  0  0  0  0  0  0  0  0  0  0
   -5.5868    3.6173  -14.3532 C   0  0  0  0  0  0  0  0  0  0  0  0
   -6.4618    2.8229  -13.4256 C   0  0  0  0  0  0  0  0  0  0  0  0
   -7.4880    3.5823  -13.0061 F   0  0  0  0  0  0  0  0  0  0  0  0
   -5.7609    2.4525  -12.3353 F   0  0  0  0  0  0  0  0  0  0  0  0
   -6.9429    1.6894  -13.9555 F   0  0  0  0  0  0  0  0  0  0  0  0
   -7.5638    4.3999  -15.7783 C   0  0  0  0  0  0  0  0  0  0  0  0
   -7.7346    5.0506  -16.9126 N   0  0  0  0  0  0  0  0  0  0  0  0
  2  1  1  6
  2  3  1  0
  2  4  1  0
  4  5  2  0
  4  6  1  0
  6  7  1  0
  7  8  2  0
  8  9  1  0
  9 10  1  0
 10 11  1  0
 11 12  1  0
 11 13  1  0
 11 14  1  0
  9 15  1  0
 15 16  2  0
 16  7  1  0
M  END
>  <energy_score>  (4029) 
-23.889248

>  <alias>  (4029) 
PWJDOJZVSDGIDI-UHFFFAOYSA-N-P35-P35-P86-601528

>  <HIPPO Pose ID>  (4029) 
81647

>  <smiles>  (4029) 
CC(Br)C(=O)Nc1cn(CC(F)(F)F)cn1

>  <inchikey>  (4029) 
PWJDOJZVSDGIDI-UHFFFAOYSA-N

>  <distance_score>  (4029) 
1.762076

>  <ref_mols>  (4029) 
Z0719a,Z1597a

>  <ref_pdb>  (4029) 
Z0719a

>  <HIPPO Compound ID>  (4029) 
151609

>  <name>  (4029) 
PWJDOJZVSDGIDI-UHFFFAOYSA-N-P35-P35-P86-601528

>  <inspiration_score>  (4029) 
None

$$$$
NWPKWIIPOUDQFE-UHFFFAOYSA-N-P35-P35-P86-601528
     RDKit          3D

 17 18  0  0  0  0  0  0  0  0999 V2000
   -3.8260    3.7529  -14.7406 N   0  0  0  0  0  0  0  0  0  0  0  0
   -4.6769    4.1598  -15.4121 C   0  0  0  0  0  0  0  0  0  0  0  0
   -5.8794    4.5090  -16.0557 C   0  0  0  0  0  0  0  0  0  0  0  0
   -6.1689    4.9804  -17.3106 C   0  0  0  0  0  0  0  0  0  0  0  0
   -5.3691    5.3346  -18.3402 N   0  0  0  0  0  0  0  0  0  0  0  0
   -3.8401    5.5779  -18.3888 C   0  0  0  0  0  0  0  0  0  0  0  0
   -3.0474    5.5850  -17.5315 O   0  0  0  0  0  0  0  0  0  0  0  0
   -3.4442    5.7787  -19.8405 C   0  0  0  0  0  0  0  0  0  0  0  0
   -4.1069    6.9359  -20.5612 C   0  0  0  0  0  0  0  0  0  0  0  0
   -3.4532    8.6384  -19.8724 Br  0  0  0  0  0  0  0  0  0  0  0  0
   -7.5148    5.1071  -17.4864 N   0  0  0  0  0  0  0  0  0  0  0  0
   -8.0390    4.7555  -16.3366 C   0  0  0  0  0  0  0  0  0  0  0  0
   -7.0894    4.3466  -15.4624 N   0  0  0  0  0  0  0  0  0  0  0  0
   -7.4222    3.9255  -14.1178 C   0  0  0  0  0  0  0  0  0  0  0  0
   -8.5800    4.7485  -13.5712 C   0  0  0  0  0  0  0  0  0  0  0  0
   -9.4228    5.3817  -14.5436 O   0  0  0  0  0  0  0  0  0  0  0  0
   -9.4174    4.7993  -15.8648 C   0  0  0  0  0  0  0  0  0  0  0  0
  1  2  3  0
  2  3  1  0
  3  4  2  0
  4  5  1  0
  5  6  1  0
  6  7  2  0
  6  8  1  0
  8  9  1  0
  9 10  1  0
  4 11  1  0
 11 12  2  0
 12 13  1  0
 13 14  1  0
 14 15  1  0
 15 16  1  0
 16 17  1  0
 13  3  1  0
 17 12  1  0
M  END
>  <energy_score>  (4030) 
-8.792547

>  <alias>  (4030) 
NWPKWIIPOUDQFE-UHFFFAOYSA-N-P35-P35-P86-601528

>  <HIPPO Pose ID>  (4030) 
81667

>  <smiles>  (4030) 
N#Cc1c(NC(=O)CCBr)nc2n1CCOC2

>  <inchikey>  (4030) 
NWPKWIIPOUDQFE-UHFFFAOYSA-N

>  <distance_score>  (4030) 
1.799718

>  <ref_mols>  (4030) 
Z0719a,Z1597a

>  <ref_pdb>  (4030) 
Z0719a

>  <HIPPO Compound ID>  (4030) 
151619

>  <name>  (4030) 
NWPKWIIPOUDQFE-UHFFFAOYSA-N-P35-P35-P86-601528

>  <inspiration_score>  (4030) 
None

$$$$
DXJITZJHQDCAQA-UHFFFAOYSA-N-P35-P35-P86-601528
     RDKit          3D

 17 18  0  0  0  0  0  0  0  0999 V2000
   -5.8177    9.6141  -19.5152 N   0  0  0  0  0  0  0  0  0  0  0  0
   -4.6515    9.2460  -20.3207 O   0  0  0  0  0  0  0  0  0  0  0  0
   -5.0741    8.4637  -21.4420 C   0  0  0  0  0  0  0  0  0  0  0  0
   -4.1394    7.2975  -21.6433 C   0  0  0  0  0  0  0  0  0  0  0  0
   -4.0194    6.4503  -20.3863 C   0  0  0  0  0  0  0  0  0  0  0  0
   -2.9849    6.3077  -19.8561 O   0  0  0  0  0  0  0  0  0  0  0  0
   -5.4399    5.9695  -19.9713 N   0  0  0  0  0  0  0  0  0  0  0  0
   -5.8605    5.3435  -18.8535 C   0  0  0  0  0  0  0  0  0  0  0  0
   -7.1611    5.0301  -18.5396 C   0  0  0  0  0  0  0  0  0  0  0  0
   -7.1238    4.7218  -17.2145 N   0  0  0  0  0  0  0  0  0  0  0  0
   -8.1951    4.6953  -16.3848 N   0  0  0  0  0  0  0  0  0  0  0  0
   -7.8344    4.5823  -15.1489 C   0  0  0  0  0  0  0  0  0  0  0  0
   -9.0366    4.8706  -13.9764 Cl  0  0  0  0  0  0  0  0  0  0  0  0
   -6.4654    4.3342  -14.6434 C   0  0  0  0  0  0  0  0  0  0  0  0
   -5.4670    4.4268  -15.5183 C   0  0  0  0  0  0  0  0  0  0  0  0
   -5.7842    4.7126  -16.8544 C   0  0  0  0  0  0  0  0  0  0  0  0
   -5.0017    5.0687  -17.8407 N   0  0  0  0  0  0  0  0  0  0  0  0
  1  2  1  0
  2  3  1  0
  3  4  1  0
  4  5  1  0
  5  6  2  0
  5  7  1  0
  7  8  1  0
  8  9  2  0
  9 10  1  0
 10 11  1  0
 11 12  2  0
 12 13  1  0
 12 14  1  0
 14 15  2  0
 15 16  1  0
 16 17  2  0
 17  8  1  0
 16 10  1  0
M  END
>  <energy_score>  (4031) 
-35.514973

>  <alias>  (4031) 
DXJITZJHQDCAQA-UHFFFAOYSA-N-P35-P35-P86-601528

>  <HIPPO Pose ID>  (4031) 
81679

>  <smiles>  (4031) 
NOCCC(=O)Nc1cn2nc(Cl)ccc2n1

>  <inchikey>  (4031) 
DXJITZJHQDCAQA-UHFFFAOYSA-N

>  <distance_score>  (4031) 
1.951925

>  <ref_mols>  (4031) 
Z0719a,Z1597a

>  <ref_pdb>  (4031) 
Z0719a

>  <HIPPO Compound ID>  (4031) 
151625

>  <name>  (4031) 
DXJITZJHQDCAQA-UHFFFAOYSA-N-P35-P35-P86-601528

>  <inspiration_score>  (4031) 
None

$$$$
ZTJWEGJGBRYYTO-UHFFFAOYSA-N-P35-P35-P86-601528
     RDKit          3D

 17 18  0  0  0  0  0  0  0  0999 V2000
   -9.0173    4.4024  -17.7545 C   0  0  0  0  0  0  0  0  0  0  0  0
   -8.1374    4.5620  -16.7562 C   0  0  0  0  0  0  0  0  0  0  0  0
   -6.6711    4.5693  -16.9593 C   0  0  0  0  0  0  0  0  0  0  0  0
   -7.3289    5.7845  -16.4978 C   0  0  2  0  0  0  0  0  0  0  0  0
   -7.3196    6.2852  -15.0776 C   0  0  0  0  0  0  0  0  0  0  0  0
   -7.2955    7.4368  -14.9207 O   0  0  0  0  0  0  0  0  0  0  0  0
   -7.3137    5.1438  -14.0570 N   0  0  0  0  0  0  0  0  0  0  0  0
   -7.3695    5.1727  -12.6950 C   0  0  0  0  0  0  0  0  0  0  0  0
   -7.8433    6.0816  -11.7766 C   0  0  0  0  0  0  0  0  0  0  0  0
   -8.4427    7.4131  -11.9851 C   0  0  0  0  0  0  0  0  0  0  0  0
   -7.7959    5.5388  -10.5135 N   0  0  0  0  0  0  0  0  0  0  0  0
   -7.3026    4.3210  -10.6509 C   0  0  0  0  0  0  0  0  0  0  0  0
   -7.2321    3.3295   -9.5538 C   0  0  0  0  0  0  0  0  0  0  0  0
   -6.8609    4.1351  -11.9424 N   0  0  0  0  0  0  0  0  0  0  0  0
   -5.9182    3.1710  -12.5030 C   0  0  0  0  0  0  0  0  0  0  0  0
   -4.7357    2.7910  -11.6197 C   0  0  0  0  0  0  0  0  0  0  0  0
   -6.6350    1.9508  -13.0124 C   0  0  0  0  0  0  0  0  0  0  0  0
  1  2  2  0
  2  3  1  0
  3  4  1  0
  4  5  1  1
  5  6  2  0
  5  7  1  0
  7  8  1  0
  8  9  2  0
  9 10  1  0
  9 11  1  0
 11 12  2  0
 12 13  1  0
 12 14  1  0
 14 15  1  0
 15 16  1  0
 15 17  1  0
  4  2  1  0
 14  8  1  0
M  END
>  <energy_score>  (4032) 
-5.815732

>  <alias>  (4032) 
ZTJWEGJGBRYYTO-UHFFFAOYSA-N-P35-P35-P86-601528

>  <HIPPO Pose ID>  (4032) 
81687

>  <smiles>  (4032) 
C=C1CC1C(=O)Nc1c(C)nc(C)n1C(C)C

>  <inchikey>  (4032) 
ZTJWEGJGBRYYTO-UHFFFAOYSA-N

>  <distance_score>  (4032) 
1.371633

>  <ref_mols>  (4032) 
Z0719a,Z1597a

>  <ref_pdb>  (4032) 
Z0719a

>  <HIPPO Compound ID>  (4032) 
151629

>  <name>  (4032) 
ZTJWEGJGBRYYTO-UHFFFAOYSA-N-P35-P35-P86-601528

>  <inspiration_score>  (4032) 
None

$$$$
VSJGSHVYAAMYDD-UHFFFAOYSA-N-P86-P35-P86-601528
     RDKit          3D

 17 19  0  0  0  0  0  0  0  0999 V2000
   -3.3281    6.3586  -20.3510 O   0  0  0  0  0  0  0  0  0  0  0  0
   -4.3503    6.1437  -20.8646 C   0  0  0  0  0  0  0  0  0  0  0  0
   -5.6401    5.5353  -20.2986 N   0  0  0  0  0  0  0  0  0  0  0  0
   -5.9590    5.1723  -19.0386 C   0  0  0  0  0  0  0  0  0  0  0  0
   -7.1912    4.7394  -18.6039 C   0  0  0  0  0  0  0  0  0  0  0  0
   -7.0915    4.7304  -17.2444 N   0  0  0  0  0  0  0  0  0  0  0  0
   -8.1112    4.5490  -16.3667 N   0  0  0  0  0  0  0  0  0  0  0  0
   -7.7212    4.7008  -15.1419 C   0  0  0  0  0  0  0  0  0  0  0  0
   -8.9196    4.6599  -13.9291 Cl  0  0  0  0  0  0  0  0  0  0  0  0
   -6.3438    4.9808  -14.6761 C   0  0  0  0  0  0  0  0  0  0  0  0
   -5.4118    5.1874  -15.6017 C   0  0  0  0  0  0  0  0  0  0  0  0
   -5.7858    5.0967  -16.9495 C   0  0  0  0  0  0  0  0  0  0  0  0
   -5.0815    5.3416  -18.0230 N   0  0  0  0  0  0  0  0  0  0  0  0
   -4.5745    6.5798  -22.2717 C   0  0  1  0  0  0  0  0  0  0  0  0
   -4.9066    8.0362  -22.4820 C   0  0  0  0  0  0  0  0  0  0  0  0
   -3.5868    7.4967  -22.9527 C   0  0  2  0  0  0  0  0  0  0  0  0
   -3.3279    7.3336  -24.8372 Br  0  0  0  0  0  0  0  0  0  0  0  0
  1  2  2  0
  2  3  1  0
  3  4  1  0
  4  5  2  0
  5  6  1  0
  6  7  1  0
  7  8  2  0
  8  9  1  0
  8 10  1  0
 10 11  2  0
 11 12  1  0
 12 13  2  0
 14  2  1  1
 14 15  1  0
 15 16  1  0
 16 17  1  6
 13  4  1  0
 16 14  1  0
 12  6  1  0
M  END
>  <energy_score>  (4033) 
-13.331816

>  <alias>  (4033) 
VSJGSHVYAAMYDD-UHFFFAOYSA-N-P86-P35-P86-601528

>  <HIPPO Pose ID>  (4033) 
81692

>  <smiles>  (4033) 
O=C(Nc1cn2nc(Cl)ccc2n1)C1CC1Br

>  <inchikey>  (4033) 
VSJGSHVYAAMYDD-UHFFFAOYSA-N

>  <distance_score>  (4033) 
1.990917

>  <ref_mols>  (4033) 
Z0719a,Z1597a

>  <ref_pdb>  (4033) 
Z0719a

>  <HIPPO Compound ID>  (4033) 
151631

>  <name>  (4033) 
VSJGSHVYAAMYDD-UHFFFAOYSA-N-P86-P35-P86-601528

>  <inspiration_score>  (4033) 
None

$$$$
MXASWRIGDYTCKL-UHFFFAOYSA-N-P86-P35-P86-601528
     RDKit          3D

 17 18  0  0  0  0  0  0  0  0999 V2000
   -7.8072    8.8039   -8.7194 C   0  0  0  0  0  0  0  0  0  0  0  0
   -7.6247    7.4352   -9.3498 C   0  0  0  0  0  0  0  0  0  0  0  0
   -6.9063    6.6131   -8.4077 O   0  0  0  0  0  0  0  0  0  0  0  0
   -7.0066    5.2451   -8.3996 C   0  0  0  0  0  0  0  0  0  0  0  0
   -6.7579    4.6351   -7.3607 O   0  0  0  0  0  0  0  0  0  0  0  0
   -7.3837    4.6037   -9.6519 C   0  0  0  0  0  0  0  0  0  0  0  0
   -7.3709    5.1631  -10.8525 N   0  0  0  0  0  0  0  0  0  0  0  0
   -7.8246    4.2201  -11.7237 C   0  0  0  0  0  0  0  0  0  0  0  0
   -7.9705    4.4676  -13.0504 N   0  0  0  0  0  0  0  0  0  0  0  0
   -7.6293    5.7172  -13.8758 C   0  0  0  0  0  0  0  0  0  0  0  0
   -7.2400    6.7619  -13.5389 O   0  0  0  0  0  0  0  0  0  0  0  0
   -7.9560    5.5476  -15.3197 C   0  0  1  0  0  0  0  0  0  0  0  0
   -6.7894    5.7097  -16.2975 C   0  0  0  0  0  0  0  0  0  0  0  0
   -7.5337    4.4255  -16.2084 C   0  0  2  0  0  0  0  0  0  0  0  0
   -8.5789    4.0105  -17.7628 Br  0  0  0  0  0  0  0  0  0  0  0  0
   -8.1045    3.0518  -11.0712 C   0  0  0  0  0  0  0  0  0  0  0  0
   -7.7765    3.2852   -9.7592 N   0  0  0  0  0  0  0  0  0  0  0  0
  1  2  1  0
  2  3  1  0
  3  4  1  0
  4  5  2  0
  4  6  1  0
  6  7  2  0
  7  8  1  0
  8  9  1  0
  9 10  1  0
 10 11  2  0
 12 10  1  1
 12 13  1  0
 13 14  1  0
 14 15  1  6
  8 16  2  0
 16 17  1  0
 17  6  1  0
 14 12  1  0
M  END
>  <energy_score>  (4034) 
-24.309762

>  <alias>  (4034) 
MXASWRIGDYTCKL-UHFFFAOYSA-N-P86-P35-P86-601528

>  <HIPPO Pose ID>  (4034) 
81694

>  <smiles>  (4034) 
CCOC(=O)c1nc(NC(=O)C2CC2Br)c[nH]1

>  <inchikey>  (4034) 
MXASWRIGDYTCKL-UHFFFAOYSA-N

>  <distance_score>  (4034) 
1.798859

>  <ref_mols>  (4034) 
Z0719a,Z1597a

>  <ref_pdb>  (4034) 
Z0719a

>  <HIPPO Compound ID>  (4034) 
151632

>  <name>  (4034) 
MXASWRIGDYTCKL-UHFFFAOYSA-N-P86-P35-P86-601528

>  <inspiration_score>  (4034) 
None

$$$$
FSWWNHWUZKCJFT-UHFFFAOYSA-N-P35-P35-P86-601528
     RDKit          3D

 17 18  0  0  0  0  0  0  0  0999 V2000
   -7.1996    6.1796  -14.5453 O   0  0  0  0  0  0  0  0  0  0  0  0
   -7.6691    5.1262  -14.7193 C   0  0  0  0  0  0  0  0  0  0  0  0
   -8.3443    4.1582  -13.7302 N   0  0  0  0  0  0  0  0  0  0  0  0
   -8.4901    4.2338  -12.3948 C   0  0  0  0  0  0  0  0  0  0  0  0
   -8.0476    5.2366  -11.5754 C   0  0  0  0  0  0  0  0  0  0  0  0
   -7.7481    4.5375  -10.4304 N   0  0  0  0  0  0  0  0  0  0  0  0
   -6.5089    4.7522   -9.7262 C   0  0  0  0  0  0  0  0  0  0  0  0
   -5.3401    4.1062  -10.4806 C   0  0  0  0  0  0  0  0  0  0  0  0
   -4.1754    4.6792  -10.0750 F   0  0  0  0  0  0  0  0  0  0  0  0
   -5.3969    4.2470  -11.8344 F   0  0  0  0  0  0  0  0  0  0  0  0
   -5.2407    2.7877  -10.2084 F   0  0  0  0  0  0  0  0  0  0  0  0
   -8.4069    3.3420  -10.4739 C   0  0  0  0  0  0  0  0  0  0  0  0
   -8.8531    3.1281  -11.6897 N   0  0  0  0  0  0  0  0  0  0  0  0
   -7.5697    4.4801  -16.0524 C   0  0  2  0  0  0  0  0  0  0  0  0
   -6.3523    4.6967  -16.9232 C   0  0  0  0  0  0  0  0  0  0  0  0
   -7.6753    5.2532  -17.3311 C   0  0  1  0  0  0  0  0  0  0  0  0
   -8.7324    4.3720  -18.6448 Br  0  0  0  0  0  0  0  0  0  0  0  0
  1  2  2  0
  2  3  1  0
  3  4  1  0
  4  5  2  0
  5  6  1  0
  6  7  1  0
  7  8  1  0
  8  9  1  0
  8 10  1  0
  8 11  1  0
  6 12  1  0
 12 13  2  0
 14  2  1  1
 14 15  1  0
 15 16  1  0
 16 17  1  6
 13  4  1  0
 16 14  1  0
M  END
>  <energy_score>  (4035) 
-14.146714

>  <alias>  (4035) 
FSWWNHWUZKCJFT-UHFFFAOYSA-N-P35-P35-P86-601528

>  <HIPPO Pose ID>  (4035) 
81699

>  <smiles>  (4035) 
O=C(Nc1cn(CC(F)(F)F)cn1)C1CC1Br

>  <inchikey>  (4035) 
FSWWNHWUZKCJFT-UHFFFAOYSA-N

>  <distance_score>  (4035) 
1.126293

>  <ref_mols>  (4035) 
Z0719a,Z1597a

>  <ref_pdb>  (4035) 
Z0719a

>  <HIPPO Compound ID>  (4035) 
151635

>  <name>  (4035) 
FSWWNHWUZKCJFT-UHFFFAOYSA-N-P35-P35-P86-601528

>  <inspiration_score>  (4035) 
None

$$$$
MNIBCDATNNJFTJ-UHFFFAOYSA-N-P35-P35-P86-601528
     RDKit          3D

 17 18  0  0  0  0  0  0  0  0999 V2000
   -5.1721    2.6422  -13.4243 C   0  0  0  0  0  0  0  0  0  0  0  0
   -4.7292    3.1941  -12.0827 C   0  0  0  0  0  0  0  0  0  0  0  0
   -5.1391    4.5649  -11.9429 O   0  0  0  0  0  0  0  0  0  0  0  0
   -5.9046    4.8675  -10.8542 C   0  0  0  0  0  0  0  0  0  0  0  0
   -5.5138    5.6227   -9.9714 O   0  0  0  0  0  0  0  0  0  0  0  0
   -7.1452    4.1542  -10.8149 C   0  0  0  0  0  0  0  0  0  0  0  0
   -7.6212    3.5625   -9.6642 N   0  0  0  0  0  0  0  0  0  0  0  0
   -8.6907    2.7948  -10.0090 C   0  0  0  0  0  0  0  0  0  0  0  0
   -8.9803    2.9264  -11.2817 N   0  0  0  0  0  0  0  0  0  0  0  0
   -8.0843    3.8260  -11.7685 C   0  0  0  0  0  0  0  0  0  0  0  0
   -8.2260    4.2192  -13.0603 N   0  0  0  0  0  0  0  0  0  0  0  0
   -7.6616    5.4414  -13.7990 C   0  0  0  0  0  0  0  0  0  0  0  0
   -6.9226    6.2659  -13.4395 O   0  0  0  0  0  0  0  0  0  0  0  0
   -8.1696    5.5175  -15.1999 C   0  0  1  0  0  0  0  0  0  0  0  0
   -7.1290    5.5885  -16.3053 C   0  0  0  0  0  0  0  0  0  0  0  0
   -8.0058    4.3810  -16.1709 C   0  0  2  0  0  0  0  0  0  0  0  0
   -9.3005    4.1293  -17.5498 Br  0  0  0  0  0  0  0  0  0  0  0  0
  1  2  1  0
  2  3  1  0
  3  4  1  0
  4  5  2  0
  4  6  1  0
  6  7  1  0
  7  8  1  0
  8  9  2  0
  9 10  1  0
 10 11  1  0
 11 12  1  0
 12 13  2  0
 14 12  1  1
 14 15  1  0
 15 16  1  0
 16 17  1  6
 10  6  2  0
 16 14  1  0
M  END
>  <energy_score>  (4036) 
-2.215124

>  <alias>  (4036) 
MNIBCDATNNJFTJ-UHFFFAOYSA-N-P35-P35-P86-601528

>  <HIPPO Pose ID>  (4036) 
81703

>  <smiles>  (4036) 
CCOC(=O)c1[nH]cnc1NC(=O)C1CC1Br

>  <inchikey>  (4036) 
MNIBCDATNNJFTJ-UHFFFAOYSA-N

>  <distance_score>  (4036) 
1.476271

>  <ref_mols>  (4036) 
Z0719a,Z1597a

>  <ref_pdb>  (4036) 
Z0719a

>  <HIPPO Compound ID>  (4036) 
151637

>  <name>  (4036) 
MNIBCDATNNJFTJ-UHFFFAOYSA-N-P35-P35-P86-601528

>  <inspiration_score>  (4036) 
None

$$$$
KPMRFXNPZSWMDQ-UHFFFAOYSA-N-P86-P35-P86-601528
     RDKit          3D

 17 18  0  0  0  0  0  0  0  0999 V2000
   -8.4375    5.7910   -9.3620 C   0  0  0  0  0  0  0  0  0  0  0  0
   -8.0949    4.9430  -10.5229 C   0  0  0  0  0  0  0  0  0  0  0  0
   -8.3319    5.2429  -11.7926 N   0  0  0  0  0  0  0  0  0  0  0  0
   -7.6584    4.3067  -12.5114 C   0  0  0  0  0  0  0  0  0  0  0  0
   -7.5959    4.1948  -13.8590 N   0  0  0  0  0  0  0  0  0  0  0  0
   -8.1518    5.0936  -14.9530 C   0  0  0  0  0  0  0  0  0  0  0  0
   -8.8204    6.0376  -14.8834 O   0  0  0  0  0  0  0  0  0  0  0  0
   -7.6908    4.5094  -16.2283 C   0  0  2  0  0  0  0  0  0  0  0  0
   -6.3237    4.9068  -16.7408 C   0  0  0  0  0  0  0  0  0  0  0  0
   -7.5349    5.1696  -17.5607 C   0  0  1  0  0  0  0  0  0  0  0  0
   -8.0374    4.0187  -18.9889 Br  0  0  0  0  0  0  0  0  0  0  0  0
   -6.9736    3.4727  -11.6768 C   0  0  0  0  0  0  0  0  0  0  0  0
   -5.9148    2.6073  -12.0284 N   0  0  0  0  0  0  0  0  0  0  0  0
   -5.2825    2.9217  -13.0500 O   0  0  0  0  0  0  0  0  0  0  0  0
   -5.6614    1.6603  -11.2833 O   0  0  0  0  0  0  0  0  0  0  0  0
   -7.3935    3.7599  -10.4167 N   0  0  0  0  0  0  0  0  0  0  0  0
   -7.0855    3.0455   -9.2069 C   0  0  0  0  0  0  0  0  0  0  0  0
  1  2  1  0
  2  3  2  0
  3  4  1  0
  4  5  1  0
  5  6  1  0
  6  7  2  0
  8  6  1  1
  8  9  1  0
  9 10  1  0
 10 11  1  6
  4 12  2  0
 12 13  1  0
 13 14  2  0
 13 15  1  0
 12 16  1  0
 16 17  1  0
 16  2  1  0
 10  8  1  0
M  CHG  2  13   1  15  -1
M  END
>  <energy_score>  (4037) 
-32.626478

>  <alias>  (4037) 
KPMRFXNPZSWMDQ-UHFFFAOYSA-N-P86-P35-P86-601528

>  <HIPPO Pose ID>  (4037) 
81706

>  <smiles>  (4037) 
Cc1nc(NC(=O)C2CC2Br)c([N+](=O)[O-])n1C

>  <inchikey>  (4037) 
KPMRFXNPZSWMDQ-UHFFFAOYSA-N

>  <distance_score>  (4037) 
1.316364

>  <ref_mols>  (4037) 
Z0719a,Z1597a

>  <ref_pdb>  (4037) 
Z0719a

>  <HIPPO Compound ID>  (4037) 
151638

>  <name>  (4037) 
KPMRFXNPZSWMDQ-UHFFFAOYSA-N-P86-P35-P86-601528

>  <inspiration_score>  (4037) 
None

$$$$
QGTPDXDXOFFRTB-UHFFFAOYSA-N-P35-P35-P86-601528
     RDKit          3D

 17 18  0  0  0  0  0  0  0  0999 V2000
   -8.6336    4.4438  -18.3924 C   0  0  0  0  0  0  0  0  0  0  0  0
   -7.9584    5.1804  -17.5010 C   0  0  0  0  0  0  0  0  0  0  0  0
   -6.7999    6.0275  -17.8509 C   0  0  0  0  0  0  0  0  0  0  0  0
   -6.6183    4.8628  -16.9912 C   0  0  1  0  0  0  0  0  0  0  0  0
   -6.3189    5.0205  -15.5396 C   0  0  0  0  0  0  0  0  0  0  0  0
   -5.1956    5.1745  -15.2604 O   0  0  0  0  0  0  0  0  0  0  0  0
   -7.5581    4.8495  -14.6388 N   0  0  0  0  0  0  0  0  0  0  0  0
   -7.6598    4.7429  -13.2862 C   0  0  0  0  0  0  0  0  0  0  0  0
   -8.6062    5.4588  -12.6063 N   0  0  0  0  0  0  0  0  0  0  0  0
   -8.4679    5.0900  -11.3527 C   0  0  0  0  0  0  0  0  0  0  0  0
   -7.5501    4.0888  -11.2191 N   0  0  0  0  0  0  0  0  0  0  0  0
   -7.3153    3.3772   -9.9833 C   0  0  0  0  0  0  0  0  0  0  0  0
   -6.9686    3.8754  -12.4579 C   0  0  0  0  0  0  0  0  0  0  0  0
   -5.8195    2.5933  -12.7676 S   0  0  0  0  0  0  0  0  0  0  0  0
   -4.8723    2.9224  -14.0895 N   0  0  0  0  0  0  0  0  0  0  0  0
   -6.6190    1.4369  -13.0893 O   0  0  0  0  0  0  0  0  0  0  0  0
   -4.8867    2.6196  -11.6667 O   0  0  0  0  0  0  0  0  0  0  0  0
  1  2  2  0
  2  3  1  0
  3  4  1  0
  4  5  1  1
  5  6  2  0
  5  7  1  0
  7  8  1  0
  8  9  1  0
  9 10  2  0
 10 11  1  0
 11 12  1  0
 11 13  1  0
 13 14  1  0
 14 15  1  0
 14 16  2  0
 14 17  2  0
  4  2  1  0
 13  8  2  0
M  END
>  <energy_score>  (4038) 
-27.317591

>  <alias>  (4038) 
QGTPDXDXOFFRTB-UHFFFAOYSA-N-P35-P35-P86-601528

>  <HIPPO Pose ID>  (4038) 
81725

>  <smiles>  (4038) 
C=C1CC1C(=O)Nc1ncn(C)c1S(N)(=O)=O

>  <inchikey>  (4038) 
QGTPDXDXOFFRTB-UHFFFAOYSA-N

>  <distance_score>  (4038) 
1.541001

>  <ref_mols>  (4038) 
Z0719a,Z1597a

>  <ref_pdb>  (4038) 
Z0719a

>  <HIPPO Compound ID>  (4038) 
151648

>  <name>  (4038) 
QGTPDXDXOFFRTB-UHFFFAOYSA-N-P35-P35-P86-601528

>  <inspiration_score>  (4038) 
None

$$$$
FGFRDSMEXBBVEE-UHFFFAOYSA-N-P86-P35-P86-601528
     RDKit          3D

 17 18  0  0  0  0  0  0  0  0999 V2000
   -8.6450    4.3082  -18.6330 C   0  0  0  0  0  0  0  0  0  0  0  0
   -8.0431    4.9878  -17.6469 C   0  0  0  0  0  0  0  0  0  0  0  0
   -6.6129    4.8805  -17.3360 C   0  0  0  0  0  0  0  0  0  0  0  0
   -7.6110    4.3667  -16.3835 C   0  0  1  0  0  0  0  0  0  0  0  0
   -7.7925    5.0619  -15.0704 C   0  0  0  0  0  0  0  0  0  0  0  0
   -7.4567    6.1719  -14.9494 O   0  0  0  0  0  0  0  0  0  0  0  0
   -8.3433    4.0677  -14.0336 N   0  0  0  0  0  0  0  0  0  0  0  0
   -8.4982    4.1887  -12.7004 C   0  0  0  0  0  0  0  0  0  0  0  0
   -8.1023    5.2314  -11.9049 C   0  0  0  0  0  0  0  0  0  0  0  0
   -7.8568    4.5992  -10.7102 N   0  0  0  0  0  0  0  0  0  0  0  0
   -6.7204    4.9033   -9.8786 C   0  0  0  0  0  0  0  0  0  0  0  0
   -5.4348    5.0058  -10.7043 C   0  0  0  0  0  0  0  0  0  0  0  0
   -5.4107    4.2488  -11.8314 F   0  0  0  0  0  0  0  0  0  0  0  0
   -4.3668    4.6489   -9.9461 F   0  0  0  0  0  0  0  0  0  0  0  0
   -5.2226    6.2938  -11.0795 F   0  0  0  0  0  0  0  0  0  0  0  0
   -8.4747    3.3821  -10.7368 C   0  0  0  0  0  0  0  0  0  0  0  0
   -8.8602    3.1064  -11.9594 N   0  0  0  0  0  0  0  0  0  0  0  0
  1  2  2  0
  2  3  1  0
  3  4  1  0
  4  5  1  1
  5  6  2  0
  5  7  1  0
  7  8  1  0
  8  9  2  0
  9 10  1  0
 10 11  1  0
 11 12  1  0
 12 13  1  0
 12 14  1  0
 12 15  1  0
 10 16  1  0
 16 17  2  0
  4  2  1  0
 17  8  1  0
M  END
>  <energy_score>  (4039) 
-11.774677

>  <alias>  (4039) 
FGFRDSMEXBBVEE-UHFFFAOYSA-N-P86-P35-P86-601528

>  <HIPPO Pose ID>  (4039) 
81728

>  <smiles>  (4039) 
C=C1CC1C(=O)Nc1cn(CC(F)(F)F)cn1

>  <inchikey>  (4039) 
FGFRDSMEXBBVEE-UHFFFAOYSA-N

>  <distance_score>  (4039) 
1.228253

>  <ref_mols>  (4039) 
Z0719a,Z1597a

>  <ref_pdb>  (4039) 
Z0719a

>  <HIPPO Compound ID>  (4039) 
151649

>  <name>  (4039) 
FGFRDSMEXBBVEE-UHFFFAOYSA-N-P86-P35-P86-601528

>  <inspiration_score>  (4039) 
None

$$$$
QJKVTORGSYMDBA-UHFFFAOYSA-N-P35-P35-P86-601528
     RDKit          3D

 17 18  0  0  0  0  0  0  0  0999 V2000
   -9.1710    4.1082  -17.2661 C   0  0  0  0  0  0  0  0  0  0  0  0
   -8.2070    4.3206  -16.3557 C   0  0  0  0  0  0  0  0  0  0  0  0
   -7.2323    5.4124  -16.5370 C   0  0  0  0  0  0  0  0  0  0  0  0
   -8.1649    5.4451  -15.3983 C   0  0  2  0  0  0  0  0  0  0  0  0
   -7.5799    5.2982  -14.0338 C   0  0  0  0  0  0  0  0  0  0  0  0
   -6.8037    6.1023  -13.7056 O   0  0  0  0  0  0  0  0  0  0  0  0
   -8.1951    4.1295  -13.2499 N   0  0  0  0  0  0  0  0  0  0  0  0
   -8.0663    3.7771  -11.9429 C   0  0  0  0  0  0  0  0  0  0  0  0
   -8.9783    2.9059  -11.4309 N   0  0  0  0  0  0  0  0  0  0  0  0
   -8.7085    2.8203  -10.1502 C   0  0  0  0  0  0  0  0  0  0  0  0
   -7.6447    3.5998   -9.8182 N   0  0  0  0  0  0  0  0  0  0  0  0
   -7.1516    4.1520  -10.9816 C   0  0  0  0  0  0  0  0  0  0  0  0
   -5.9319    4.9006  -11.0124 C   0  0  0  0  0  0  0  0  0  0  0  0
   -5.6344    5.7576  -10.1873 O   0  0  0  0  0  0  0  0  0  0  0  0
   -5.0723    4.5257  -12.0035 O   0  0  0  0  0  0  0  0  0  0  0  0
   -4.7226    3.1340  -12.1068 C   0  0  0  0  0  0  0  0  0  0  0  0
   -5.1022    2.5906  -13.4690 C   0  0  0  0  0  0  0  0  0  0  0  0
  1  2  2  0
  2  3  1  0
  3  4  1  0
  4  5  1  1
  5  6  2  0
  5  7  1  0
  7  8  1  0
  8  9  1  0
  9 10  2  0
 10 11  1  0
 11 12  1  0
 12 13  1  0
 13 14  2  0
 13 15  1  0
 15 16  1  0
 16 17  1  0
  4  2  1  0
 12  8  2  0
M  END
>  <energy_score>  (4040) 
-16.240876

>  <alias>  (4040) 
QJKVTORGSYMDBA-UHFFFAOYSA-N-P35-P35-P86-601528

>  <HIPPO Pose ID>  (4040) 
81733

>  <smiles>  (4040) 
C=C1CC1C(=O)Nc1nc[nH]c1C(=O)OCC

>  <inchikey>  (4040) 
QJKVTORGSYMDBA-UHFFFAOYSA-N

>  <distance_score>  (4040) 
1.435817

>  <ref_mols>  (4040) 
Z0719a,Z1597a

>  <ref_pdb>  (4040) 
Z0719a

>  <HIPPO Compound ID>  (4040) 
151652

>  <name>  (4040) 
QJKVTORGSYMDBA-UHFFFAOYSA-N-P35-P35-P86-601528

>  <inspiration_score>  (4040) 
None

$$$$
UHKCVFZGKIWMGY-UHFFFAOYSA-N-P35-P35-P86-601528
     RDKit          3D

 17 18  0  0  0  0  0  0  0  0999 V2000
   -7.5045    4.3216  -18.1801 C   0  0  0  0  0  0  0  0  0  0  0  0
   -7.4160    4.7756  -16.9196 C   0  0  0  0  0  0  0  0  0  0  0  0
   -7.3039    6.2066  -16.6782 C   0  0  0  0  0  0  0  0  0  0  0  0
   -8.5269    5.4851  -16.2348 C   0  0  2  0  0  0  0  0  0  0  0  0
   -8.8016    5.5731  -14.7727 C   0  0  0  0  0  0  0  0  0  0  0  0
   -9.5302    6.3979  -14.4023 O   0  0  0  0  0  0  0  0  0  0  0  0
   -7.9616    4.5783  -13.9930 N   0  0  0  0  0  0  0  0  0  0  0  0
   -7.9030    4.3253  -12.6624 C   0  0  0  0  0  0  0  0  0  0  0  0
   -8.4717    5.0750  -11.6809 N   0  0  0  0  0  0  0  0  0  0  0  0
   -8.1160    4.4981  -10.5420 C   0  0  0  0  0  0  0  0  0  0  0  0
   -8.3959    5.0316   -9.1906 C   0  0  0  0  0  0  0  0  0  0  0  0
   -7.3927    3.3381  -10.7726 N   0  0  0  0  0  0  0  0  0  0  0  0
   -6.8875    2.4608   -9.7431 C   0  0  0  0  0  0  0  0  0  0  0  0
   -7.1942    3.3000  -12.1186 C   0  0  0  0  0  0  0  0  0  0  0  0
   -6.3793    2.4157  -12.8398 N   0  0  0  0  0  0  0  0  0  0  0  0
   -5.7102    2.9096  -13.7618 O   0  0  0  0  0  0  0  0  0  0  0  0
   -6.4273    1.2224  -12.5434 O   0  0  0  0  0  0  0  0  0  0  0  0
  1  2  2  0
  2  3  1  0
  3  4  1  0
  4  5  1  1
  5  6  2  0
  5  7  1  0
  7  8  1  0
  8  9  1  0
  9 10  2  0
 10 11  1  0
 10 12  1  0
 12 13  1  0
 12 14  1  0
 14 15  1  0
 15 16  2  0
 15 17  1  0
  4  2  1  0
 14  8  2  0
M  CHG  2  15   1  17  -1
M  END
>  <energy_score>  (4041) 
-17.528201

>  <alias>  (4041) 
UHKCVFZGKIWMGY-UHFFFAOYSA-N-P35-P35-P86-601528

>  <HIPPO Pose ID>  (4041) 
81735

>  <smiles>  (4041) 
C=C1CC1C(=O)Nc1nc(C)n(C)c1[N+](=O)[O-]

>  <inchikey>  (4041) 
UHKCVFZGKIWMGY-UHFFFAOYSA-N

>  <distance_score>  (4041) 
1.335629

>  <ref_mols>  (4041) 
Z0719a,Z1597a

>  <ref_pdb>  (4041) 
Z0719a

>  <HIPPO Compound ID>  (4041) 
151653

>  <name>  (4041) 
UHKCVFZGKIWMGY-UHFFFAOYSA-N-P35-P35-P86-601528

>  <inspiration_score>  (4041) 
None

$$$$
WMZARPNGWOVYCN-UHFFFAOYSA-N-P86-P35-P86-601528
     RDKit          3D

 17 18  0  0  0  0  0  0  0  0999 V2000
   -8.7301    3.8138  -19.0008 C   0  0  0  0  0  0  0  0  0  0  0  0
   -8.2327    4.1663  -17.6641 C   0  0  0  0  0  0  0  0  0  0  0  0
   -9.0631    4.0243  -16.5854 N   0  0  0  0  0  0  0  0  0  0  0  0
   -8.3111    4.3589  -15.5654 C   0  0  0  0  0  0  0  0  0  0  0  0
   -8.6930    4.4618  -14.1916 C   0  0  0  0  0  0  0  0  0  0  0  0
   -7.9072    4.9308  -13.2614 N   0  0  0  0  0  0  0  0  0  0  0  0
   -6.6296    5.2538  -13.6488 C   0  0  0  0  0  0  0  0  0  0  0  0
   -6.1814    5.1644  -14.9109 C   0  0  0  0  0  0  0  0  0  0  0  0
   -7.0306    4.7113  -15.9114 N   0  0  0  0  0  0  0  0  0  0  0  0
   -6.9678    4.5850  -17.2850 C   0  0  0  0  0  0  0  0  0  0  0  0
   -5.9309    4.8801  -18.1233 N   0  0  0  0  0  0  0  0  0  0  0  0
   -4.4056    5.0095  -17.8378 C   0  0  0  0  0  0  0  0  0  0  0  0
   -3.7978    4.8074  -16.8590 O   0  0  0  0  0  0  0  0  0  0  0  0
   -3.7859    5.5815  -19.0958 C   0  0  0  0  0  0  0  0  0  0  0  0
   -4.2659    7.0264  -19.2716 C   0  0  0  0  0  0  0  0  0  0  0  0
   -4.2596    7.8026  -17.9390 C   0  0  0  0  0  0  0  0  0  0  0  0
   -5.1194    7.2338  -17.0337 F   0  0  0  0  0  0  0  0  0  0  0  0
  1  2  1  0
  2  3  1  0
  3  4  2  0
  4  5  1  0
  5  6  2  0
  6  7  1  0
  7  8  2  0
  8  9  1  0
  9 10  1  0
 10 11  1  0
 11 12  1  0
 12 13  2  0
 12 14  1  0
 14 15  1  0
 15 16  1  0
 16 17  1  0
 10  2  2  0
  9  4  1  0
M  END
>  <energy_score>  (4042) 
-16.387771

>  <alias>  (4042) 
WMZARPNGWOVYCN-UHFFFAOYSA-N-P86-P35-P86-601528

>  <HIPPO Pose ID>  (4042) 
81738

>  <smiles>  (4042) 
Cc1nc2cnccn2c1NC(=O)CCCF

>  <inchikey>  (4042) 
WMZARPNGWOVYCN-UHFFFAOYSA-N

>  <distance_score>  (4042) 
1.96698

>  <ref_mols>  (4042) 
Z0719a,Z1597a

>  <ref_pdb>  (4042) 
Z0719a

>  <HIPPO Compound ID>  (4042) 
151654

>  <name>  (4042) 
WMZARPNGWOVYCN-UHFFFAOYSA-N-P86-P35-P86-601528

>  <inspiration_score>  (4042) 
None

$$$$
OWGVIPPSDFLSSY-UHFFFAOYSA-N-P86-P35-P86-601528
     RDKit          3D

 17 18  0  0  0  0  0  0  0  0999 V2000
   -4.4380    4.6302  -17.9967 O   0  0  0  0  0  0  0  0  0  0  0  0
   -5.1696    4.9863  -18.8352 C   0  0  0  0  0  0  0  0  0  0  0  0
   -4.6770    5.7378  -20.0490 C   0  0  0  0  0  0  0  0  0  0  0  0
   -4.0553    7.0374  -19.5334 C   0  0  0  0  0  0  0  0  0  0  0  0
   -4.9215    7.7772  -18.4950 C   0  0  0  0  0  0  0  0  0  0  0  0
   -5.1113    7.0396  -17.3559 F   0  0  0  0  0  0  0  0  0  0  0  0
   -6.7181    4.9151  -18.9162 N   0  0  0  0  0  0  0  0  0  0  0  0
   -7.6372    4.5013  -17.9926 C   0  0  0  0  0  0  0  0  0  0  0  0
   -8.9301    4.1222  -18.2606 C   0  0  0  0  0  0  0  0  0  0  0  0
   -9.6405    3.9180  -17.1186 N   0  0  0  0  0  0  0  0  0  0  0  0
   -8.8359    4.2374  -16.1247 C   0  0  0  0  0  0  0  0  0  0  0  0
   -9.1345    4.3449  -14.7900 N   0  0  0  0  0  0  0  0  0  0  0  0
   -8.1613    4.6600  -14.0000 C   0  0  0  0  0  0  0  0  0  0  0  0
   -6.7877    5.0138  -14.4239 C   0  0  0  0  0  0  0  0  0  0  0  0
   -5.5882    5.6231  -13.1714 Br  0  0  0  0  0  0  0  0  0  0  0  0
   -6.5527    4.9350  -15.7381 C   0  0  0  0  0  0  0  0  0  0  0  0
   -7.5546    4.5375  -16.6088 N   0  0  0  0  0  0  0  0  0  0  0  0
  1  2  2  0
  2  3  1  0
  3  4  1  0
  4  5  1  0
  5  6  1  0
  2  7  1  0
  7  8  1  0
  8  9  2  0
  9 10  1  0
 10 11  2  0
 11 12  1  0
 12 13  2  0
 13 14  1  0
 14 15  1  0
 14 16  2  0
 16 17  1  0
 17  8  1  0
 17 11  1  0
M  END
>  <energy_score>  (4043) 
-17.046629

>  <alias>  (4043) 
OWGVIPPSDFLSSY-UHFFFAOYSA-N-P86-P35-P86-601528

>  <HIPPO Pose ID>  (4043) 
81740

>  <smiles>  (4043) 
O=C(CCCF)Nc1cnc2ncc(Br)cn12

>  <inchikey>  (4043) 
OWGVIPPSDFLSSY-UHFFFAOYSA-N

>  <distance_score>  (4043) 
1.584223

>  <ref_mols>  (4043) 
Z0719a,Z1597a

>  <ref_pdb>  (4043) 
Z0719a

>  <HIPPO Compound ID>  (4043) 
151655

>  <name>  (4043) 
OWGVIPPSDFLSSY-UHFFFAOYSA-N-P86-P35-P86-601528

>  <inspiration_score>  (4043) 
None

$$$$
CJTGBPWOOBHTIH-UHFFFAOYSA-N-P35-P35-P86-601528
     RDKit          3D

 17 18  0  0  0  0  0  0  0  0999 V2000
   -6.1742    7.3320  -19.8651 O   0  0  0  0  0  0  0  0  0  0  0  0
   -5.5301    6.6941  -19.1273 C   0  0  0  0  0  0  0  0  0  0  0  0
   -4.0087    6.7317  -19.0801 C   0  0  0  0  0  0  0  0  0  0  0  0
   -3.4251    7.6818  -20.1231 C   0  0  0  0  0  0  0  0  0  0  0  0
   -3.4579    7.1314  -21.5314 C   0  0  0  0  0  0  0  0  0  0  0  0
   -2.6676    6.0175  -21.5734 F   0  0  0  0  0  0  0  0  0  0  0  0
   -5.9610    5.6507  -18.0560 N   0  0  0  0  0  0  0  0  0  0  0  0
   -7.1887    5.1436  -17.7609 C   0  0  0  0  0  0  0  0  0  0  0  0
   -8.2541    5.2527  -18.6055 N   0  0  0  0  0  0  0  0  0  0  0  0
   -9.3145    4.6050  -18.0333 C   0  0  0  0  0  0  0  0  0  0  0  0
   -8.9967    4.0887  -16.8726 N   0  0  0  0  0  0  0  0  0  0  0  0
   -7.6765    4.4407  -16.6805 C   0  0  0  0  0  0  0  0  0  0  0  0
   -6.9827    4.1062  -15.4418 C   0  0  0  0  0  0  0  0  0  0  0  0
   -5.6071    4.0827  -15.3727 N   0  0  0  0  0  0  0  0  0  0  0  0
   -5.3031    3.6283  -14.1612 N   0  0  0  0  0  0  0  0  0  0  0  0
   -6.4932    3.4328  -13.5683 N   0  0  0  0  0  0  0  0  0  0  0  0
   -7.5639    3.7988  -14.2764 N   0  0  0  0  0  0  0  0  0  0  0  0
  1  2  2  0
  2  3  1  0
  3  4  1  0
  4  5  1  0
  5  6  1  0
  2  7  1  0
  7  8  1  0
  8  9  1  0
  9 10  1  0
 10 11  2  0
 11 12  1  0
 12 13  1  0
 13 14  1  0
 14 15  2  0
 15 16  1  0
 16 17  1  0
 12  8  2  0
 17 13  2  0
M  END
>  <energy_score>  (4044) 
-30.976945

>  <alias>  (4044) 
CJTGBPWOOBHTIH-UHFFFAOYSA-N-P35-P35-P86-601528

>  <HIPPO Pose ID>  (4044) 
81757

>  <smiles>  (4044) 
O=C(CCCF)Nc1[nH]cnc1-c1nn[nH]n1

>  <inchikey>  (4044) 
CJTGBPWOOBHTIH-UHFFFAOYSA-N

>  <distance_score>  (4044) 
1.64299

>  <ref_mols>  (4044) 
Z0719a,Z1597a

>  <ref_pdb>  (4044) 
Z0719a

>  <HIPPO Compound ID>  (4044) 
151664

>  <name>  (4044) 
CJTGBPWOOBHTIH-UHFFFAOYSA-N-P35-P35-P86-601528

>  <inspiration_score>  (4044) 
None

$$$$
ANZIGMVBAIUOPR-UHFFFAOYSA-N-P86-P35-P86-601528
     RDKit          3D

 17 18  0  0  0  0  0  0  0  0999 V2000
   -8.7377    3.9978  -17.6512 C   0  0  0  0  0  0  0  0  0  0  0  0
   -8.1402    4.0452  -16.4508 C   0  0  0  0  0  0  0  0  0  0  0  0
   -6.7339    4.4748  -16.2447 C   0  0  0  0  0  0  0  0  0  0  0  0
   -7.8031    5.2865  -15.7318 C   0  0  2  0  0  0  0  0  0  0  0  0
   -8.3726    5.3804  -14.3645 C   0  0  0  0  0  0  0  0  0  0  0  0
   -9.3105    6.0646  -14.2578 O   0  0  0  0  0  0  0  0  0  0  0  0
   -7.5581    4.6303  -13.2959 N   0  0  0  0  0  0  0  0  0  0  0  0
   -7.6604    4.6382  -11.9489 C   0  0  0  0  0  0  0  0  0  0  0  0
   -8.6033    5.4595  -11.4153 N   0  0  0  0  0  0  0  0  0  0  0  0
   -8.5096    5.3096  -10.1268 C   0  0  0  0  0  0  0  0  0  0  0  0
   -7.5699    4.3931   -9.8167 N   0  0  0  0  0  0  0  0  0  0  0  0
   -7.3903    3.8837   -8.4945 C   0  0  0  0  0  0  0  0  0  0  0  0
   -6.9130    4.0139  -10.9692 C   0  0  0  0  0  0  0  0  0  0  0  0
   -5.7532    3.1689  -10.9903 C   0  0  0  0  0  0  0  0  0  0  0  0
   -5.1019    2.8494  -10.0001 O   0  0  0  0  0  0  0  0  0  0  0  0
   -5.4159    2.8266  -12.2651 O   0  0  0  0  0  0  0  0  0  0  0  0
   -4.3350    1.8945  -12.3084 C   0  0  0  0  0  0  0  0  0  0  0  0
  1  2  2  0
  2  3  1  0
  3  4  1  0
  4  5  1  1
  5  6  2  0
  5  7  1  0
  7  8  1  0
  8  9  1  0
  9 10  2  0
 10 11  1  0
 11 12  1  0
 11 13  1  0
 13 14  1  0
 14 15  2  0
 14 16  1  0
 16 17  1  0
  4  2  1  0
 13  8  2  0
M  END
>  <energy_score>  (4045) 
-5.531912

>  <alias>  (4045) 
ANZIGMVBAIUOPR-UHFFFAOYSA-N-P86-P35-P86-601528

>  <HIPPO Pose ID>  (4045) 
81760

>  <smiles>  (4045) 
C=C1CC1C(=O)Nc1ncn(C)c1C(=O)OC

>  <inchikey>  (4045) 
ANZIGMVBAIUOPR-UHFFFAOYSA-N

>  <distance_score>  (4045) 
1.67306

>  <ref_mols>  (4045) 
Z0719a,Z1597a

>  <ref_pdb>  (4045) 
Z0719a

>  <HIPPO Compound ID>  (4045) 
151665

>  <name>  (4045) 
ANZIGMVBAIUOPR-UHFFFAOYSA-N-P86-P35-P86-601528

>  <inspiration_score>  (4045) 
None

$$$$
HFXATALFHOSMAC-UHFFFAOYSA-N-P86-P35-P86-601528
     RDKit          3D

 17 17  0  0  0  0  0  0  0  0999 V2000
   -8.6380    4.2223  -13.5119 C   0  0  0  0  0  0  0  0  0  0  0  0
   -7.9399    4.3793  -14.7627 N   0  0  0  0  0  0  0  0  0  0  0  0
   -8.5202    4.6329  -15.9621 C   0  0  0  0  0  0  0  0  0  0  0  0
   -7.6353    5.0972  -16.8071 N   0  0  0  0  0  0  0  0  0  0  0  0
   -6.4319    5.0117  -16.1710 C   0  0  0  0  0  0  0  0  0  0  0  0
   -5.3127    5.4027  -16.8377 N   0  0  0  0  0  0  0  0  0  0  0  0
   -5.1545    6.1886  -18.1751 C   0  0  0  0  0  0  0  0  0  0  0  0
   -5.9606    6.6839  -18.8629 O   0  0  0  0  0  0  0  0  0  0  0  0
   -3.6758    6.1563  -18.5364 C   0  0  0  0  0  0  0  0  0  0  0  0
   -3.4020    6.7621  -19.9187 C   0  0  0  0  0  0  0  0  0  0  0  0
   -3.8956    5.9048  -21.0685 C   0  0  0  0  0  0  0  0  0  0  0  0
   -3.4191    6.4456  -22.2283 F   0  0  0  0  0  0  0  0  0  0  0  0
   -6.5699    4.4938  -14.8972 C   0  0  0  0  0  0  0  0  0  0  0  0
   -5.4996    4.1675  -13.5518 S   0  0  0  0  0  0  0  0  0  0  0  0
   -5.9932    2.7787  -12.7638 N   0  0  0  0  0  0  0  0  0  0  0  0
   -5.7436    5.2655  -12.6561 O   0  0  0  0  0  0  0  0  0  0  0  0
   -4.1836    3.9093  -14.0820 O   0  0  0  0  0  0  0  0  0  0  0  0
  1  2  1  0
  2  3  1  0
  3  4  2  0
  4  5  1  0
  5  6  1  0
  6  7  1  0
  7  8  2  0
  7  9  1  0
  9 10  1  0
 10 11  1  0
 11 12  1  0
  5 13  2  0
 13 14  1  0
 14 15  1  0
 14 16  2  0
 14 17  2  0
 13  2  1  0
M  END
>  <energy_score>  (4046) 
-32.827992

>  <alias>  (4046) 
HFXATALFHOSMAC-UHFFFAOYSA-N-P86-P35-P86-601528

>  <HIPPO Pose ID>  (4046) 
81768

>  <smiles>  (4046) 
Cn1cnc(NC(=O)CCCF)c1S(N)(=O)=O

>  <inchikey>  (4046) 
HFXATALFHOSMAC-UHFFFAOYSA-N

>  <distance_score>  (4046) 
1.988649

>  <ref_mols>  (4046) 
Z0719a,Z1597a

>  <ref_pdb>  (4046) 
Z0719a

>  <HIPPO Compound ID>  (4046) 
151669

>  <name>  (4046) 
HFXATALFHOSMAC-UHFFFAOYSA-N-P86-P35-P86-601528

>  <inspiration_score>  (4046) 
None

$$$$
AQVNIHUCQGPWQB-UHFFFAOYSA-N-P35-P35-P86-601528
     RDKit          3D

 17 17  0  0  0  0  0  0  0  0999 V2000
   -7.0608    3.5962  -13.5875 C   0  0  0  0  0  0  0  0  0  0  0  0
   -6.4889    5.0005  -13.6946 C   0  0  0  0  0  0  0  0  0  0  0  0
   -6.3703    5.5693  -15.1181 C   0  0  0  0  0  0  0  0  0  0  0  0
   -7.5335    5.5071  -15.9600 N   0  0  0  0  0  0  0  0  0  0  0  0
   -8.8276    5.4435  -15.5308 C   0  0  0  0  0  0  0  0  0  0  0  0
   -9.2996    6.1675  -14.3289 C   0  0  0  0  0  0  0  0  0  0  0  0
   -9.5210    4.7019  -16.3684 N   0  0  0  0  0  0  0  0  0  0  0  0
   -8.7482    4.6090  -17.4969 C   0  0  0  0  0  0  0  0  0  0  0  0
   -9.2992    4.0271  -18.7205 C   0  0  0  0  0  0  0  0  0  0  0  0
   -7.5738    5.2932  -17.3069 C   0  0  0  0  0  0  0  0  0  0  0  0
   -6.6544    5.6991  -18.2126 N   0  0  0  0  0  0  0  0  0  0  0  0
   -5.6049    6.8422  -18.1413 C   0  0  0  0  0  0  0  0  0  0  0  0
   -5.3223    7.5573  -17.2608 O   0  0  0  0  0  0  0  0  0  0  0  0
   -4.8670    6.8277  -19.4624 C   0  0  0  0  0  0  0  0  0  0  0  0
   -3.6085    5.9760  -19.3291 C   0  0  0  0  0  0  0  0  0  0  0  0
   -3.8333    4.5973  -18.6953 C   0  0  0  0  0  0  0  0  0  0  0  0
   -4.1515    4.6802  -17.3689 F   0  0  0  0  0  0  0  0  0  0  0  0
  1  2  1  0
  2  3  1  0
  3  4  1  0
  4  5  1  0
  5  6  1  0
  5  7  2  0
  7  8  1  0
  8  9  1  0
  8 10  2  0
 10 11  1  0
 11 12  1  0
 12 13  2  0
 12 14  1  0
 14 15  1  0
 15 16  1  0
 16 17  1  0
 10  4  1  0
M  END
>  <energy_score>  (4047) 
-19.173532

>  <alias>  (4047) 
AQVNIHUCQGPWQB-UHFFFAOYSA-N-P35-P35-P86-601528

>  <HIPPO Pose ID>  (4047) 
81775

>  <smiles>  (4047) 
CCCn1c(C)nc(C)c1NC(=O)CCCF

>  <inchikey>  (4047) 
AQVNIHUCQGPWQB-UHFFFAOYSA-N

>  <distance_score>  (4047) 
1.968323

>  <ref_mols>  (4047) 
Z0719a,Z1597a

>  <ref_pdb>  (4047) 
Z0719a

>  <HIPPO Compound ID>  (4047) 
151673

>  <name>  (4047) 
AQVNIHUCQGPWQB-UHFFFAOYSA-N-P35-P35-P86-601528

>  <inspiration_score>  (4047) 
None

$$$$
CJJBPNSSTCVPJM-UHFFFAOYSA-N-P35-P35-P86-601528
     RDKit          3D

 17 18  0  0  0  0  0  0  0  0999 V2000
   -2.7004    7.9952  -22.7140 C   0  0  0  0  0  0  0  0  0  0  0  0
   -3.8956    7.3868  -22.7593 C   0  0  0  0  0  0  0  0  0  0  0  0
   -5.0070    7.4722  -21.7503 C   0  0  2  0  0  0  0  0  0  0  0  0
   -5.3237    9.1648  -21.2646 Cl  0  0  0  0  0  0  0  0  0  0  0  0
   -4.6741    6.6701  -20.4784 C   0  0  0  0  0  0  0  0  0  0  0  0
   -3.5881    6.5874  -20.0426 O   0  0  0  0  0  0  0  0  0  0  0  0
   -6.0233    6.0919  -19.9479 N   0  0  0  0  0  0  0  0  0  0  0  0
   -6.3015    5.4287  -18.8139 C   0  0  0  0  0  0  0  0  0  0  0  0
   -7.5478    5.0479  -18.3826 C   0  0  0  0  0  0  0  0  0  0  0  0
   -7.3519    4.7095  -17.0793 N   0  0  0  0  0  0  0  0  0  0  0  0
   -8.3211    4.6320  -16.1369 N   0  0  0  0  0  0  0  0  0  0  0  0
   -7.8185    4.5059  -14.9525 C   0  0  0  0  0  0  0  0  0  0  0  0
   -8.8835    4.7375  -13.6428 Cl  0  0  0  0  0  0  0  0  0  0  0  0
   -6.3951    4.2872  -14.6078 C   0  0  0  0  0  0  0  0  0  0  0  0
   -5.5048    4.4306  -15.5852 C   0  0  0  0  0  0  0  0  0  0  0  0
   -5.9806    4.7388  -16.8668 C   0  0  0  0  0  0  0  0  0  0  0  0
   -5.3258    5.1594  -17.9156 N   0  0  0  0  0  0  0  0  0  0  0  0
  1  2  2  0
  2  3  1  0
  3  4  1  1
  3  5  1  0
  5  6  2  0
  5  7  1  0
  7  8  1  0
  8  9  2  0
  9 10  1  0
 10 11  1  0
 11 12  2  0
 12 13  1  0
 12 14  1  0
 14 15  2  0
 15 16  1  0
 16 17  2  0
 17  8  1  0
 16 10  1  0
M  END
>  <energy_score>  (4048) 
-28.608041

>  <alias>  (4048) 
CJJBPNSSTCVPJM-UHFFFAOYSA-N-P35-P35-P86-601528

>  <HIPPO Pose ID>  (4048) 
81791

>  <smiles>  (4048) 
C=CC(Cl)C(=O)Nc1cn2nc(Cl)ccc2n1

>  <inchikey>  (4048) 
CJJBPNSSTCVPJM-UHFFFAOYSA-N

>  <distance_score>  (4048) 
1.940189

>  <ref_mols>  (4048) 
Z0719a,Z1597a

>  <ref_pdb>  (4048) 
Z0719a

>  <HIPPO Compound ID>  (4048) 
151681

>  <name>  (4048) 
CJJBPNSSTCVPJM-UHFFFAOYSA-N-P35-P35-P86-601528

>  <inspiration_score>  (4048) 
None

$$$$
CTJNTRUEWCPVRW-UHFFFAOYSA-N-P35-P35-P86-601528
     RDKit          3D

 17 17  0  0  0  0  0  0  0  0999 V2000
   -5.4521    7.2750  -20.0248 C   0  0  0  0  0  0  0  0  0  0  0  0
   -4.2708    6.6691  -19.8376 C   0  0  0  0  0  0  0  0  0  0  0  0
   -3.6991    6.1521  -18.5375 C   0  0  2  0  0  0  0  0  0  0  0  0
   -2.9294    4.5663  -18.8194 Cl  0  0  0  0  0  0  0  0  0  0  0  0
   -4.6174    6.0201  -17.2848 C   0  0  0  0  0  0  0  0  0  0  0  0
   -4.3414    6.5534  -16.2778 O   0  0  0  0  0  0  0  0  0  0  0  0
   -5.8880    5.2053  -17.6823 N   0  0  0  0  0  0  0  0  0  0  0  0
   -7.0477    4.9771  -16.9937 C   0  0  0  0  0  0  0  0  0  0  0  0
   -8.2835    4.6153  -17.4955 C   0  0  0  0  0  0  0  0  0  0  0  0
   -8.6821    4.2130  -18.8495 C   0  0  0  0  0  0  0  0  0  0  0  0
   -9.2611    4.8480  -16.5624 N   0  0  0  0  0  0  0  0  0  0  0  0
   -8.6378    5.3595  -15.5254 C   0  0  0  0  0  0  0  0  0  0  0  0
   -9.2362    6.1127  -14.4018 C   0  0  0  0  0  0  0  0  0  0  0  0
   -7.2859    5.1556  -15.6507 N   0  0  0  0  0  0  0  0  0  0  0  0
   -6.3994    4.8616  -14.5344 C   0  0  0  0  0  0  0  0  0  0  0  0
   -6.9655    3.7542  -13.6295 C   0  0  0  0  0  0  0  0  0  0  0  0
   -6.0382    6.0877  -13.7032 C   0  0  0  0  0  0  0  0  0  0  0  0
  1  2  2  0
  2  3  1  0
  3  4  1  6
  3  5  1  0
  5  6  2  0
  5  7  1  0
  7  8  1  0
  8  9  2  0
  9 10  1  0
  9 11  1  0
 11 12  2  0
 12 13  1  0
 12 14  1  0
 14 15  1  0
 15 16  1  0
 15 17  1  0
 14  8  1  0
M  END
>  <energy_score>  (4049) 
-23.595405

>  <alias>  (4049) 
CTJNTRUEWCPVRW-UHFFFAOYSA-N-P35-P35-P86-601528

>  <HIPPO Pose ID>  (4049) 
81793

>  <smiles>  (4049) 
C=CC(Cl)C(=O)Nc1c(C)nc(C)n1C(C)C

>  <inchikey>  (4049) 
CTJNTRUEWCPVRW-UHFFFAOYSA-N

>  <distance_score>  (4049) 
1.707717

>  <ref_mols>  (4049) 
Z0719a,Z1597a

>  <ref_pdb>  (4049) 
Z0719a

>  <HIPPO Compound ID>  (4049) 
151682

>  <name>  (4049) 
CTJNTRUEWCPVRW-UHFFFAOYSA-N-P35-P35-P86-601528

>  <inspiration_score>  (4049) 
None

$$$$
ZBHNEMNJRUCRLH-UHFFFAOYSA-N-P35-P35-P86-601528
     RDKit          3D

 17 18  0  0  0  0  0  0  0  0999 V2000
   -3.3974    7.8035  -20.4996 C   0  0  0  0  0  0  0  0  0  0  0  0
   -4.1683    6.7378  -20.2363 C   0  0  0  0  0  0  0  0  0  0  0  0
   -3.8432    5.5323  -19.3889 C   0  0  1  0  0  0  0  0  0  0  0  0
   -2.0888    5.2458  -19.2078 Cl  0  0  0  0  0  0  0  0  0  0  0  0
   -4.5149    5.6094  -17.9916 C   0  0  0  0  0  0  0  0  0  0  0  0
   -3.9930    6.0261  -17.0291 O   0  0  0  0  0  0  0  0  0  0  0  0
   -5.9282    4.9641  -18.1794 N   0  0  0  0  0  0  0  0  0  0  0  0
   -6.9579    4.8003  -17.2876 C   0  0  0  0  0  0  0  0  0  0  0  0
   -8.2575    4.4469  -17.6286 C   0  0  0  0  0  0  0  0  0  0  0  0
   -8.8457    4.1954  -18.9467 C   0  0  0  0  0  0  0  0  0  0  0  0
   -9.0618    4.3163  -16.5344 N   0  0  0  0  0  0  0  0  0  0  0  0
   -8.2659    4.5823  -15.5335 C   0  0  0  0  0  0  0  0  0  0  0  0
   -8.6070    4.6090  -14.1467 C   0  0  0  0  0  0  0  0  0  0  0  0
   -7.7509    4.9208  -13.2141 N   0  0  0  0  0  0  0  0  0  0  0  0
   -6.4579    5.1501  -13.6209 C   0  0  0  0  0  0  0  0  0  0  0  0
   -6.0544    5.1344  -14.9025 C   0  0  0  0  0  0  0  0  0  0  0  0
   -6.9762    4.8769  -15.9069 N   0  0  0  0  0  0  0  0  0  0  0  0
  1  2  2  0
  2  3  1  0
  3  4  1  1
  3  5  1  0
  5  6  2  0
  5  7  1  0
  7  8  1  0
  8  9  2  0
  9 10  1  0
  9 11  1  0
 11 12  2  0
 12 13  1  0
 13 14  2  0
 14 15  1  0
 15 16  2  0
 16 17  1  0
 17  8  1  0
 17 12  1  0
M  END
>  <energy_score>  (4050) 
-19.473715

>  <alias>  (4050) 
ZBHNEMNJRUCRLH-UHFFFAOYSA-N-P35-P35-P86-601528

>  <HIPPO Pose ID>  (4050) 
81797

>  <smiles>  (4050) 
C=CC(Cl)C(=O)Nc1c(C)nc2cnccn12

>  <inchikey>  (4050) 
ZBHNEMNJRUCRLH-UHFFFAOYSA-N

>  <distance_score>  (4050) 
1.601629

>  <ref_mols>  (4050) 
Z0719a,Z1597a

>  <ref_pdb>  (4050) 
Z0719a

>  <HIPPO Compound ID>  (4050) 
151684

>  <name>  (4050) 
ZBHNEMNJRUCRLH-UHFFFAOYSA-N-P35-P35-P86-601528

>  <inspiration_score>  (4050) 
None

$$$$
VHGBPEYROZPGLH-UHFFFAOYSA-N-P35-P35-P86-601528
     RDKit          3D

 17 18  0  0  0  0  0  0  0  0999 V2000
   -1.0877    1.6174   -8.8113 C   0  0  0  0  0  0  0  0  0  0  0  0
   -1.6233    1.2409   -9.9816 C   0  0  0  0  0  0  0  0  0  0  0  0
   -1.5786    2.0427  -11.2488 C   0  0  1  0  0  0  0  0  0  0  0  0
   -0.5320    1.1899  -12.4315 Cl  0  0  0  0  0  0  0  0  0  0  0  0
   -2.9714    2.2604  -11.9000 C   0  0  0  0  0  0  0  0  0  0  0  0
   -3.9618    1.7967  -11.4877 O   0  0  0  0  0  0  0  0  0  0  0  0
   -2.7238    3.1771  -13.1380 N   0  0  0  0  0  0  0  0  0  0  0  0
   -3.6021    3.7456  -14.0032 C   0  0  0  0  0  0  0  0  0  0  0  0
   -3.0763    4.6317  -14.9231 N   0  0  0  0  0  0  0  0  0  0  0  0
   -4.1117    4.9915  -15.6252 C   0  0  0  0  0  0  0  0  0  0  0  0
   -5.2568    4.3944  -15.2171 N   0  0  0  0  0  0  0  0  0  0  0  0
   -4.9670    3.5719  -14.1734 C   0  0  0  0  0  0  0  0  0  0  0  0
   -5.8997    2.6935  -13.5639 C   0  0  0  0  0  0  0  0  0  0  0  0
   -6.7155    1.9508  -13.2067 N   0  0  0  0  0  0  0  0  0  0  0  0
   -6.4599    4.7047  -15.9579 C   0  0  0  0  0  0  0  0  0  0  0  0
   -6.0031    5.2980  -17.2965 C   0  0  0  0  0  0  0  0  0  0  0  0
   -4.3294    6.0085  -16.9895 S   0  0  0  0  0  0  0  0  0  0  0  0
  1  2  2  0
  2  3  1  0
  3  4  1  6
  3  5  1  0
  5  6  2  0
  5  7  1  0
  7  8  1  0
  8  9  1  0
  9 10  2  0
 10 11  1  0
 11 12  1  0
 12 13  1  0
 13 14  3  0
 11 15  1  0
 15 16  1  0
 16 17  1  0
 12  8  2  0
 17 10  1  0
M  END
>  <energy_score>  (4051) 
-20.157338

>  <alias>  (4051) 
VHGBPEYROZPGLH-UHFFFAOYSA-N-P35-P35-P86-601528

>  <HIPPO Pose ID>  (4051) 
81799

>  <smiles>  (4051) 
C=CC(Cl)C(=O)Nc1nc2n(c1C#N)CCS2

>  <inchikey>  (4051) 
VHGBPEYROZPGLH-UHFFFAOYSA-N

>  <distance_score>  (4051) 
1.24219

>  <ref_mols>  (4051) 
Z0719a,Z1597a

>  <ref_pdb>  (4051) 
Z0719a

>  <HIPPO Compound ID>  (4051) 
151685

>  <name>  (4051) 
VHGBPEYROZPGLH-UHFFFAOYSA-N-P35-P35-P86-601528

>  <inspiration_score>  (4051) 
None

$$$$
SYHNCXYONZEIKO-UHFFFAOYSA-N-P35-P35-P86-601528
     RDKit          3D

 17 17  0  0  0  0  0  0  0  0999 V2000
   -3.1147    7.4912  -20.5809 C   0  0  0  0  0  0  0  0  0  0  0  0
   -4.0445    6.5927  -20.2237 C   0  0  0  0  0  0  0  0  0  0  0  0
   -3.9146    5.4142  -19.2870 C   0  0  1  0  0  0  0  0  0  0  0  0
   -2.2233    4.9759  -18.9145 Cl  0  0  0  0  0  0  0  0  0  0  0  0
   -4.6819    5.6659  -17.9606 C   0  0  0  0  0  0  0  0  0  0  0  0
   -4.2260    6.2216  -17.0337 O   0  0  0  0  0  0  0  0  0  0  0  0
   -6.1162    5.0771  -18.1860 N   0  0  0  0  0  0  0  0  0  0  0  0
   -7.1792    4.9774  -17.3313 C   0  0  0  0  0  0  0  0  0  0  0  0
   -8.4564    4.5860  -17.6758 C   0  0  0  0  0  0  0  0  0  0  0  0
   -8.9694    4.0976  -18.9536 C   0  0  0  0  0  0  0  0  0  0  0  0
   -9.3345    4.8162  -16.6574 N   0  0  0  0  0  0  0  0  0  0  0  0
   -8.6242    5.3918  -15.7170 C   0  0  0  0  0  0  0  0  0  0  0  0
   -9.1577    6.1606  -14.5672 C   0  0  0  0  0  0  0  0  0  0  0  0
   -7.2834    5.2444  -15.9910 N   0  0  0  0  0  0  0  0  0  0  0  0
   -6.2780    5.1676  -14.9668 C   0  0  0  0  0  0  0  0  0  0  0  0
   -6.4060    3.9693  -14.0204 C   0  0  0  0  0  0  0  0  0  0  0  0
   -7.4759    4.0405  -12.9451 C   0  0  0  0  0  0  0  0  0  0  0  0
  1  2  2  0
  2  3  1  0
  3  4  1  1
  3  5  1  0
  5  6  2  0
  5  7  1  0
  7  8  1  0
  8  9  2  0
  9 10  1  0
  9 11  1  0
 11 12  2  0
 12 13  1  0
 12 14  1  0
 14 15  1  0
 15 16  1  0
 16 17  1  0
 14  8  1  0
M  END
>  <energy_score>  (4052) 
-13.627208

>  <alias>  (4052) 
SYHNCXYONZEIKO-UHFFFAOYSA-N-P35-P35-P86-601528

>  <HIPPO Pose ID>  (4052) 
81801

>  <smiles>  (4052) 
C=CC(Cl)C(=O)Nc1c(C)nc(C)n1CCC

>  <inchikey>  (4052) 
SYHNCXYONZEIKO-UHFFFAOYSA-N

>  <distance_score>  (4052) 
1.272223

>  <ref_mols>  (4052) 
Z0719a,Z1597a

>  <ref_pdb>  (4052) 
Z0719a

>  <HIPPO Compound ID>  (4052) 
151686

>  <name>  (4052) 
SYHNCXYONZEIKO-UHFFFAOYSA-N-P35-P35-P86-601528

>  <inspiration_score>  (4052) 
None

$$$$
YJMNNJPCHDXWEN-UHFFFAOYSA-N-P35-P35-P86-601528
     RDKit          3D

 17 17  0  0  0  0  0  0  0  0999 V2000
   -3.9153    7.6148  -21.2380 C   0  0  0  0  0  0  0  0  0  0  0  0
   -4.7775    7.0997  -20.0943 C   0  0  0  0  0  0  0  0  0  0  0  0
   -3.9620    6.5209  -18.9350 C   0  0  2  0  0  0  0  0  0  0  0  0
   -3.1665    4.9839  -19.3716 Cl  0  0  0  0  0  0  0  0  0  0  0  0
   -4.7563    6.3268  -17.6249 C   0  0  0  0  0  0  0  0  0  0  0  0
   -4.4332    6.8749  -16.6403 O   0  0  0  0  0  0  0  0  0  0  0  0
   -5.9565    5.3684  -17.9010 N   0  0  0  0  0  0  0  0  0  0  0  0
   -6.9995    4.9872  -17.0900 C   0  0  0  0  0  0  0  0  0  0  0  0
   -8.2131    4.4800  -17.5203 C   0  0  0  0  0  0  0  0  0  0  0  0
   -8.6993    4.2250  -18.8816 C   0  0  0  0  0  0  0  0  0  0  0  0
   -9.0628    4.2644  -16.4752 N   0  0  0  0  0  0  0  0  0  0  0  0
   -8.3962    4.6157  -15.4019 C   0  0  0  0  0  0  0  0  0  0  0  0
   -8.9310    4.6018  -14.0264 C   0  0  0  0  0  0  0  0  0  0  0  0
   -7.1077    4.9912  -15.7130 N   0  0  0  0  0  0  0  0  0  0  0  0
   -6.0677    5.2089  -14.7207 C   0  0  0  0  0  0  0  0  0  0  0  0
   -6.0105    4.1577  -13.6032 C   0  0  0  0  0  0  0  0  0  0  0  0
   -6.1387    6.6096  -14.1223 C   0  0  0  0  0  0  0  0  0  0  0  0
  1  2  1  0
  2  3  1  0
  3  4  1  6
  3  5  1  0
  5  6  2  0
  5  7  1  0
  7  8  1  0
  8  9  2  0
  9 10  1  0
  9 11  1  0
 11 12  2  0
 12 13  1  0
 12 14  1  0
 14 15  1  0
 15 16  1  0
 15 17  1  0
 14  8  1  0
M  END
>  <energy_score>  (4053) 
-23.428968

>  <alias>  (4053) 
YJMNNJPCHDXWEN-UHFFFAOYSA-N-P35-P35-P86-601528

>  <HIPPO Pose ID>  (4053) 
81811

>  <smiles>  (4053) 
CCC(Cl)C(=O)Nc1c(C)nc(C)n1C(C)C

>  <inchikey>  (4053) 
YJMNNJPCHDXWEN-UHFFFAOYSA-N

>  <distance_score>  (4053) 
1.900546

>  <ref_mols>  (4053) 
Z0719a,Z1597a

>  <ref_pdb>  (4053) 
Z0719a

>  <HIPPO Compound ID>  (4053) 
151691

>  <name>  (4053) 
YJMNNJPCHDXWEN-UHFFFAOYSA-N-P35-P35-P86-601528

>  <inspiration_score>  (4053) 
None

$$$$
JYWCSDHKDMBFMX-UHFFFAOYSA-N-P35-P35-P86-601528
     RDKit          3D

 17 18  0  0  0  0  0  0  0  0999 V2000
   -3.7960    7.7021  -21.4142 C   0  0  0  0  0  0  0  0  0  0  0  0
   -4.6594    7.2053  -20.2631 C   0  0  0  0  0  0  0  0  0  0  0  0
   -3.8494    6.5808  -19.1241 C   0  0  2  0  0  0  0  0  0  0  0  0
   -3.0983    5.0328  -19.5946 Cl  0  0  0  0  0  0  0  0  0  0  0  0
   -4.6345    6.3769  -17.8113 C   0  0  0  0  0  0  0  0  0  0  0  0
   -4.2573    6.8491  -16.8078 O   0  0  0  0  0  0  0  0  0  0  0  0
   -5.9212    5.5521  -18.1183 N   0  0  0  0  0  0  0  0  0  0  0  0
   -6.9055    5.0845  -17.2765 C   0  0  0  0  0  0  0  0  0  0  0  0
   -8.0970    4.4847  -17.6740 C   0  0  0  0  0  0  0  0  0  0  0  0
   -8.6008    4.1864  -19.0174 C   0  0  0  0  0  0  0  0  0  0  0  0
   -8.9203    4.2129  -16.6173 N   0  0  0  0  0  0  0  0  0  0  0  0
   -8.2362    4.6194  -15.5822 C   0  0  0  0  0  0  0  0  0  0  0  0
   -8.6536    4.6148  -14.2162 C   0  0  0  0  0  0  0  0  0  0  0  0
   -7.8980    5.0429  -13.2432 N   0  0  0  0  0  0  0  0  0  0  0  0
   -6.6282    5.4419  -13.5839 C   0  0  0  0  0  0  0  0  0  0  0  0
   -6.1668    5.4940  -14.8444 C   0  0  0  0  0  0  0  0  0  0  0  0
   -6.9930    5.1159  -15.8943 N   0  0  0  0  0  0  0  0  0  0  0  0
  1  2  1  0
  2  3  1  0
  3  4  1  6
  3  5  1  0
  5  6  2  0
  5  7  1  0
  7  8  1  0
  8  9  2  0
  9 10  1  0
  9 11  1  0
 11 12  2  0
 12 13  1  0
 13 14  2  0
 14 15  1  0
 15 16  2  0
 16 17  1  0
 17  8  1  0
 17 12  1  0
M  END
>  <energy_score>  (4054) 
-19.954043

>  <alias>  (4054) 
JYWCSDHKDMBFMX-UHFFFAOYSA-N-P35-P35-P86-601528

>  <HIPPO Pose ID>  (4054) 
81815

>  <smiles>  (4054) 
CCC(Cl)C(=O)Nc1c(C)nc2cnccn12

>  <inchikey>  (4054) 
JYWCSDHKDMBFMX-UHFFFAOYSA-N

>  <distance_score>  (4054) 
1.689261

>  <ref_mols>  (4054) 
Z0719a,Z1597a

>  <ref_pdb>  (4054) 
Z0719a

>  <HIPPO Compound ID>  (4054) 
151693

>  <name>  (4054) 
JYWCSDHKDMBFMX-UHFFFAOYSA-N-P35-P35-P86-601528

>  <inspiration_score>  (4054) 
None

$$$$
WEMYDYHAGXDIAL-UHFFFAOYSA-N-P35-P35-P86-601528
     RDKit          3D

 17 17  0  0  0  0  0  0  0  0999 V2000
   -2.9926    8.3182  -20.8381 C   0  0  0  0  0  0  0  0  0  0  0  0
   -4.1157    7.4293  -21.3659 C   0  0  0  0  0  0  0  0  0  0  0  0
   -5.2815    7.1548  -20.4084 C   0  0  2  0  0  0  0  0  0  0  0  0
   -5.8671    8.6770  -19.6490 Cl  0  0  0  0  0  0  0  0  0  0  0  0
   -4.9147    6.1843  -19.2767 C   0  0  0  0  0  0  0  0  0  0  0  0
   -3.8067    5.8897  -19.0292 O   0  0  0  0  0  0  0  0  0  0  0  0
   -6.2461    5.8189  -18.5461 N   0  0  0  0  0  0  0  0  0  0  0  0
   -6.4577    5.1462  -17.3945 C   0  0  0  0  0  0  0  0  0  0  0  0
   -5.4931    4.5741  -16.6171 C   0  0  0  0  0  0  0  0  0  0  0  0
   -6.1403    4.1387  -15.4908 N   0  0  0  0  0  0  0  0  0  0  0  0
   -5.4369    3.6454  -14.3163 C   0  0  0  0  0  0  0  0  0  0  0  0
   -6.2528    2.8893  -13.3067 C   0  0  0  0  0  0  0  0  0  0  0  0
   -5.5066    2.6705  -12.1970 F   0  0  0  0  0  0  0  0  0  0  0  0
   -6.6741    1.6886  -13.7445 F   0  0  0  0  0  0  0  0  0  0  0  0
   -7.3199    3.6160  -12.9342 F   0  0  0  0  0  0  0  0  0  0  0  0
   -7.4730    4.3929  -15.6831 C   0  0  0  0  0  0  0  0  0  0  0  0
   -7.6798    5.0467  -16.8104 N   0  0  0  0  0  0  0  0  0  0  0  0
  1  2  1  0
  2  3  1  0
  3  4  1  1
  3  5  1  0
  5  6  2  0
  5  7  1  0
  7  8  1  0
  8  9  2  0
  9 10  1  0
 10 11  1  0
 11 12  1  0
 12 13  1  0
 12 14  1  0
 12 15  1  0
 10 16  1  0
 16 17  2  0
 17  8  1  0
M  END
>  <energy_score>  (4055) 
-10.599723

>  <alias>  (4055) 
WEMYDYHAGXDIAL-UHFFFAOYSA-N-P35-P35-P86-601528

>  <HIPPO Pose ID>  (4055) 
81821

>  <smiles>  (4055) 
CCC(Cl)C(=O)Nc1cn(CC(F)(F)F)cn1

>  <inchikey>  (4055) 
WEMYDYHAGXDIAL-UHFFFAOYSA-N

>  <distance_score>  (4055) 
1.939369

>  <ref_mols>  (4055) 
Z0719a,Z1597a

>  <ref_pdb>  (4055) 
Z0719a

>  <HIPPO Compound ID>  (4055) 
151696

>  <name>  (4055) 
WEMYDYHAGXDIAL-UHFFFAOYSA-N-P35-P35-P86-601528

>  <inspiration_score>  (4055) 
None

$$$$
ZRLIOZDIVXWMAI-UHFFFAOYSA-N-P86-P35-P86-601528
     RDKit          3D

 17 17  0  0  0  0  0  0  0  0999 V2000
   -7.6963    6.7417  -13.4400 C   0  0  0  0  0  0  0  0  0  0  0  0
   -6.3546    6.1298  -13.8075 C   0  0  0  0  0  0  0  0  0  0  0  0
   -6.0835    5.8548  -15.2947 C   0  0  0  0  0  0  0  0  0  0  0  0
   -7.0013    5.1217  -16.1224 N   0  0  0  0  0  0  0  0  0  0  0  0
   -8.0436    4.3331  -15.6902 C   0  0  0  0  0  0  0  0  0  0  0  0
   -8.2322    3.8563  -14.3077 C   0  0  0  0  0  0  0  0  0  0  0  0
   -8.8118    3.9756  -16.6925 N   0  0  0  0  0  0  0  0  0  0  0  0
   -8.1439    4.3622  -17.8111 C   0  0  0  0  0  0  0  0  0  0  0  0
   -8.6670    3.9482  -19.1111 C   0  0  0  0  0  0  0  0  0  0  0  0
   -6.9759    5.0305  -17.5018 C   0  0  0  0  0  0  0  0  0  0  0  0
   -6.0216    5.4139  -18.4141 N   0  0  0  0  0  0  0  0  0  0  0  0
   -4.5916    6.0130  -18.1975 C   0  0  0  0  0  0  0  0  0  0  0  0
   -4.0470    6.3397  -17.2129 O   0  0  0  0  0  0  0  0  0  0  0  0
   -3.9121    6.0114  -19.5948 C   0  0  2  0  0  0  0  0  0  0  0  0
   -2.1636    6.3714  -19.4222 Cl  0  0  0  0  0  0  0  0  0  0  0  0
   -4.5464    6.9519  -20.6218 C   0  0  0  0  0  0  0  0  0  0  0  0
   -4.6077    8.4107  -20.1846 C   0  0  0  0  0  0  0  0  0  0  0  0
  1  2  1  0
  2  3  1  0
  3  4  1  0
  4  5  1  0
  5  6  1  0
  5  7  2  0
  7  8  1  0
  8  9  1  0
  8 10  2  0
 10 11  1  0
 11 12  1  0
 12 13  2  0
 12 14  1  0
 14 15  1  1
 14 16  1  0
 16 17  1  0
 10  4  1  0
M  END
>  <energy_score>  (4056) 
-10.175944

>  <alias>  (4056) 
ZRLIOZDIVXWMAI-UHFFFAOYSA-N-P86-P35-P86-601528

>  <HIPPO Pose ID>  (4056) 
81826

>  <smiles>  (4056) 
CCCn1c(C)nc(C)c1NC(=O)C(Cl)CC

>  <inchikey>  (4056) 
ZRLIOZDIVXWMAI-UHFFFAOYSA-N

>  <distance_score>  (4056) 
1.669336

>  <ref_mols>  (4056) 
Z0719a,Z1597a

>  <ref_pdb>  (4056) 
Z0719a

>  <HIPPO Compound ID>  (4056) 
151698

>  <name>  (4056) 
ZRLIOZDIVXWMAI-UHFFFAOYSA-N-P86-P35-P86-601528

>  <inspiration_score>  (4056) 
None

$$$$
YWYJITNABPZTPE-UHFFFAOYSA-N-P86-P35-P86-601528
     RDKit          3D

 17 18  0  0  0  0  0  0  0  0999 V2000
   -8.2235    4.3478  -17.8736 C   0  0  0  0  0  0  0  0  0  0  0  0
   -7.1609    4.9074  -17.3402 C   0  0  0  0  0  0  0  0  0  0  0  0
   -6.1463    5.8500  -17.5673 C   0  0  0  0  0  0  0  0  0  0  0  0
   -6.2695    4.9954  -16.2499 C   0  0  1  0  0  0  0  0  0  0  0  0
   -6.7653    5.5614  -14.9644 C   0  0  0  0  0  0  0  0  0  0  0  0
   -6.6501    6.7040  -14.7568 O   0  0  0  0  0  0  0  0  0  0  0  0
   -7.2860    4.4262  -14.0561 N   0  0  0  0  0  0  0  0  0  0  0  0
   -7.6622    4.4429  -12.7494 C   0  0  0  0  0  0  0  0  0  0  0  0
   -7.9841    3.3543  -11.9804 C   0  0  0  0  0  0  0  0  0  0  0  0
   -8.2311    3.8580  -10.7316 N   0  0  0  0  0  0  0  0  0  0  0  0
   -8.0428    5.2251  -10.7817 C   0  0  0  0  0  0  0  0  0  0  0  0
   -8.1886    6.0763   -9.6126 C   0  0  0  0  0  0  0  0  0  0  0  0
   -8.4361    5.6256   -8.4946 O   0  0  0  0  0  0  0  0  0  0  0  0
   -8.0552    7.4311   -9.7636 O   0  0  0  0  0  0  0  0  0  0  0  0
   -7.5791    8.1260  -10.9354 C   0  0  0  0  0  0  0  0  0  0  0  0
   -8.7347    8.4984  -11.8447 C   0  0  0  0  0  0  0  0  0  0  0  0
   -7.7194    5.5853  -12.0130 N   0  0  0  0  0  0  0  0  0  0  0  0
  1  2  2  0
  2  3  1  0
  3  4  1  0
  4  5  1  1
  5  6  2  0
  5  7  1  0
  7  8  1  0
  8  9  2  0
  9 10  1  0
 10 11  1  0
 11 12  1  0
 12 13  2  0
 12 14  1  0
 14 15  1  0
 15 16  1  0
 11 17  2  0
  4  2  1  0
 17  8  1  0
M  END
>  <energy_score>  (4057) 
-1.764339

>  <alias>  (4057) 
YWYJITNABPZTPE-UHFFFAOYSA-N-P86-P35-P86-601528

>  <HIPPO Pose ID>  (4057) 
81836

>  <smiles>  (4057) 
C=C1CC1C(=O)Nc1c[nH]c(C(=O)OCC)n1

>  <inchikey>  (4057) 
YWYJITNABPZTPE-UHFFFAOYSA-N

>  <distance_score>  (4057) 
1.636562

>  <ref_mols>  (4057) 
Z0719a,Z1597a

>  <ref_pdb>  (4057) 
Z0719a

>  <HIPPO Compound ID>  (4057) 
151703

>  <name>  (4057) 
YWYJITNABPZTPE-UHFFFAOYSA-N-P86-P35-P86-601528

>  <inspiration_score>  (4057) 
None

$$$$
KBJYJGFNIQYGRQ-UHFFFAOYSA-N-P86-P35-P86-601528
     RDKit          3D

 17 18  0  0  0  0  0  0  0  0999 V2000
   -3.5490    2.5582  -12.0914 C   0  0  0  0  0  0  0  0  0  0  0  0
   -4.8021    3.2534  -11.6035 C   0  0  0  0  0  0  0  0  0  0  0  0
   -4.6201    3.7094  -10.2386 O   0  0  0  0  0  0  0  0  0  0  0  0
   -5.6993    4.0751   -9.4538 C   0  0  0  0  0  0  0  0  0  0  0  0
   -5.5539    4.3196   -8.2587 O   0  0  0  0  0  0  0  0  0  0  0  0
   -6.9708    4.0690  -10.1483 C   0  0  0  0  0  0  0  0  0  0  0  0
   -7.2004    4.7285  -11.2722 N   0  0  0  0  0  0  0  0  0  0  0  0
   -8.1517    4.0019  -11.9085 C   0  0  0  0  0  0  0  0  0  0  0  0
   -8.2315    4.0148  -13.2623 N   0  0  0  0  0  0  0  0  0  0  0  0
   -7.5257    4.9240  -14.3059 C   0  0  0  0  0  0  0  0  0  0  0  0
   -6.8261    5.8531  -14.1548 O   0  0  0  0  0  0  0  0  0  0  0  0
   -7.7877    4.3541  -15.7017 C   0  0  0  0  0  0  0  0  0  0  0  0
   -7.0641    5.0145  -16.9053 C   0  0  0  0  0  0  0  0  0  0  0  0
   -8.3474    4.3537  -18.0089 S   0  0  0  0  0  0  0  0  0  0  0  0
   -9.1538    4.4312  -16.3743 C   0  0  0  0  0  0  0  0  0  0  0  0
   -8.7178    3.0872  -11.0597 C   0  0  0  0  0  0  0  0  0  0  0  0
   -8.0107    3.2067   -9.8838 N   0  0  0  0  0  0  0  0  0  0  0  0
  1  2  1  0
  2  3  1  0
  3  4  1  0
  4  5  2  0
  4  6  1  0
  6  7  2  0
  7  8  1  0
  8  9  1  0
  9 10  1  0
 10 11  2  0
 10 12  1  0
 12 13  1  0
 13 14  1  0
 14 15  1  0
  8 16  2  0
 16 17  1  0
 17  6  1  0
 15 12  1  0
M  END
>  <energy_score>  (4058) 
-14.511704

>  <alias>  (4058) 
KBJYJGFNIQYGRQ-UHFFFAOYSA-N-P86-P35-P86-601528

>  <HIPPO Pose ID>  (4058) 
81840

>  <smiles>  (4058) 
CCOC(=O)c1nc(NC(=O)C2CSC2)c[nH]1

>  <inchikey>  (4058) 
KBJYJGFNIQYGRQ-UHFFFAOYSA-N

>  <distance_score>  (4058) 
1.913792

>  <ref_mols>  (4058) 
Z0719a,Z1597a

>  <ref_pdb>  (4058) 
Z0719a

>  <HIPPO Compound ID>  (4058) 
151705

>  <name>  (4058) 
KBJYJGFNIQYGRQ-UHFFFAOYSA-N-P86-P35-P86-601528

>  <inspiration_score>  (4058) 
None

$$$$
NNYJQFNQMKCHLY-UHFFFAOYSA-N-P35-P35-P86-601528
     RDKit          3D

 17 18  0  0  0  0  0  0  0  0999 V2000
   -3.7699    9.1275  -20.2585 C   0  0  0  0  0  0  0  0  0  0  0  0
   -4.0963    7.9740  -20.3322 C   0  0  0  0  0  0  0  0  0  0  0  0
   -4.4913    6.5683  -20.4274 C   0  0  0  0  0  0  0  0  0  0  0  0
   -4.4747    5.8768  -19.0672 C   0  0  0  0  0  0  0  0  0  0  0  0
   -3.4807    5.5911  -18.5206 O   0  0  0  0  0  0  0  0  0  0  0  0
   -5.9499    5.7649  -18.5963 N   0  0  0  0  0  0  0  0  0  0  0  0
   -6.4746    5.2277  -17.4713 C   0  0  0  0  0  0  0  0  0  0  0  0
   -7.8114    5.4058  -17.2914 N   0  0  0  0  0  0  0  0  0  0  0  0
   -8.0570    4.9972  -16.0705 C   0  0  0  0  0  0  0  0  0  0  0  0
   -6.9508    4.4772  -15.4872 N   0  0  0  0  0  0  0  0  0  0  0  0
   -5.9181    4.6213  -16.3739 C   0  0  0  0  0  0  0  0  0  0  0  0
   -4.6059    4.2524  -16.0211 C   0  0  0  0  0  0  0  0  0  0  0  0
   -3.6511    3.8447  -15.5072 N   0  0  0  0  0  0  0  0  0  0  0  0
   -6.8580    4.1908  -14.0607 C   0  0  0  0  0  0  0  0  0  0  0  0
   -8.1618    4.4451  -13.3153 C   0  0  0  0  0  0  0  0  0  0  0  0
   -8.9387    5.4721  -13.9338 O   0  0  0  0  0  0  0  0  0  0  0  0
   -9.2795    5.1368  -15.2898 C   0  0  0  0  0  0  0  0  0  0  0  0
  1  2  3  0
  2  3  1  0
  3  4  1  0
  4  5  2  0
  4  6  1  0
  6  7  1  0
  7  8  1  0
  8  9  2  0
  9 10  1  0
 10 11  1  0
 11 12  1  0
 12 13  3  0
 10 14  1  0
 14 15  1  0
 15 16  1  0
 16 17  1  0
 11  7  2  0
 17  9  1  0
M  END
>  <energy_score>  (4059) 
-25.664079

>  <alias>  (4059) 
NNYJQFNQMKCHLY-UHFFFAOYSA-N-P35-P35-P86-601528

>  <HIPPO Pose ID>  (4059) 
81841

>  <smiles>  (4059) 
C#CCC(=O)Nc1nc2n(c1C#N)CCOC2

>  <inchikey>  (4059) 
NNYJQFNQMKCHLY-UHFFFAOYSA-N

>  <distance_score>  (4059) 
1.93204

>  <ref_mols>  (4059) 
Z0719a,Z1597a

>  <ref_pdb>  (4059) 
Z0719a

>  <HIPPO Compound ID>  (4059) 
151706

>  <name>  (4059) 
NNYJQFNQMKCHLY-UHFFFAOYSA-N-P35-P35-P86-601528

>  <inspiration_score>  (4059) 
None

$$$$
GWUIAWKJAUEVJH-UHFFFAOYSA-N-P35-P35-P86-601528
     RDKit          3D

 17 17  0  0  0  0  0  0  0  0999 V2000
   -3.8823    7.4585  -21.4040 C   0  0  0  0  0  0  0  0  0  0  0  0
   -3.5078    6.6999  -20.5516 C   0  0  0  0  0  0  0  0  0  0  0  0
   -3.0453    5.7646  -19.5115 C   0  0  0  0  0  0  0  0  0  0  0  0
   -3.9061    5.7767  -18.2546 C   0  0  0  0  0  0  0  0  0  0  0  0
   -3.4748    6.0356  -17.1984 O   0  0  0  0  0  0  0  0  0  0  0  0
   -5.3409    5.3567  -18.6818 N   0  0  0  0  0  0  0  0  0  0  0  0
   -6.4397    5.0951  -17.9345 C   0  0  0  0  0  0  0  0  0  0  0  0
   -7.6181    4.6467  -18.4607 C   0  0  0  0  0  0  0  0  0  0  0  0
   -8.4872    4.6505  -17.4142 N   0  0  0  0  0  0  0  0  0  0  0  0
   -9.8779    4.3152  -17.5316 C   0  0  0  0  0  0  0  0  0  0  0  0
   -7.8004    5.0115  -16.2763 C   0  0  0  0  0  0  0  0  0  0  0  0
   -8.3798    5.1575  -14.9532 C   0  0  0  0  0  0  0  0  0  0  0  0
   -9.5103    5.5719  -14.7080 O   0  0  0  0  0  0  0  0  0  0  0  0
   -7.5115    4.7377  -13.9851 O   0  0  0  0  0  0  0  0  0  0  0  0
   -8.1033    4.7383  -12.6813 C   0  0  0  0  0  0  0  0  0  0  0  0
   -7.2400    3.9352  -11.7414 C   0  0  0  0  0  0  0  0  0  0  0  0
   -6.5356    5.2787  -16.5861 N   0  0  0  0  0  0  0  0  0  0  0  0
  1  2  3  0
  2  3  1  0
  3  4  1  0
  4  5  2  0
  4  6  1  0
  6  7  1  0
  7  8  2  0
  8  9  1  0
  9 10  1  0
  9 11  1  0
 11 12  1  0
 12 13  2  0
 12 14  1  0
 14 15  1  0
 15 16  1  0
 11 17  2  0
 17  7  1  0
M  END
>  <energy_score>  (4060) 
-42.273774

>  <alias>  (4060) 
GWUIAWKJAUEVJH-UHFFFAOYSA-N-P35-P35-P86-601528

>  <HIPPO Pose ID>  (4060) 
81843

>  <smiles>  (4060) 
C#CCC(=O)Nc1cn(C)c(C(=O)OCC)n1

>  <inchikey>  (4060) 
GWUIAWKJAUEVJH-UHFFFAOYSA-N

>  <distance_score>  (4060) 
1.296179

>  <ref_mols>  (4060) 
Z0719a,Z1597a

>  <ref_pdb>  (4060) 
Z0719a

>  <HIPPO Compound ID>  (4060) 
151707

>  <name>  (4060) 
GWUIAWKJAUEVJH-UHFFFAOYSA-N-P35-P35-P86-601528

>  <inspiration_score>  (4060) 
None

$$$$
NPTHKXYXMSTWMR-UHFFFAOYSA-N-P35-P35-P86-601528
     RDKit          3D

 17 18  0  0  0  0  0  0  0  0999 V2000
   -3.3094    7.3666  -21.0998 C   0  0  0  0  0  0  0  0  0  0  0  0
   -4.2292    6.9011  -19.9806 C   0  0  0  0  0  0  0  0  0  0  0  0
   -3.8995    5.5064  -19.4414 C   0  0  1  0  0  0  0  0  0  0  0  0
   -2.5139    5.4520  -19.0803 O   0  0  0  0  0  0  0  0  0  0  0  0
   -4.7851    5.0983  -18.2353 C   0  0  0  0  0  0  0  0  0  0  0  0
   -4.3135    4.8435  -17.1933 O   0  0  0  0  0  0  0  0  0  0  0  0
   -6.2673    5.0419  -18.7142 N   0  0  0  0  0  0  0  0  0  0  0  0
   -7.4147    4.7678  -18.0211 C   0  0  0  0  0  0  0  0  0  0  0  0
   -8.6168    4.7945  -18.6806 N   0  0  0  0  0  0  0  0  0  0  0  0
   -9.5965    4.4031  -17.8190 C   0  0  0  0  0  0  0  0  0  0  0  0
   -9.1078    4.1321  -16.6384 N   0  0  0  0  0  0  0  0  0  0  0  0
   -7.7599    4.4244  -16.7260 C   0  0  0  0  0  0  0  0  0  0  0  0
   -6.9584    4.3585  -15.5111 C   0  0  0  0  0  0  0  0  0  0  0  0
   -6.9151    3.2272  -14.7383 N   0  0  0  0  0  0  0  0  0  0  0  0
   -6.0760    3.4745  -13.7446 N   0  0  0  0  0  0  0  0  0  0  0  0
   -5.7281    4.7494  -13.9255 N   0  0  0  0  0  0  0  0  0  0  0  0
   -6.2637    5.3795  -14.9815 N   0  0  0  0  0  0  0  0  0  0  0  0
  1  2  1  0
  2  3  1  0
  3  4  1  1
  3  5  1  0
  5  6  2  0
  5  7  1  0
  7  8  1  0
  8  9  1  0
  9 10  1  0
 10 11  2  0
 11 12  1  0
 12 13  1  0
 13 14  1  0
 14 15  2  0
 15 16  1  0
 16 17  1  0
 12  8  2  0
 17 13  2  0
M  END
>  <energy_score>  (4061) 
-35.602345

>  <alias>  (4061) 
NPTHKXYXMSTWMR-UHFFFAOYSA-N-P35-P35-P86-601528

>  <HIPPO Pose ID>  (4061) 
81847

>  <smiles>  (4061) 
CCC(O)C(=O)Nc1[nH]cnc1-c1nn[nH]n1

>  <inchikey>  (4061) 
NPTHKXYXMSTWMR-UHFFFAOYSA-N

>  <distance_score>  (4061) 
1.957935

>  <ref_mols>  (4061) 
Z0719a,Z1597a

>  <ref_pdb>  (4061) 
Z0719a

>  <HIPPO Compound ID>  (4061) 
151709

>  <name>  (4061) 
NPTHKXYXMSTWMR-UHFFFAOYSA-N-P35-P35-P86-601528

>  <inspiration_score>  (4061) 
None

$$$$
DBDJNEUMGXBCHG-UHFFFAOYSA-N-P35-P35-P86-601528
     RDKit          3D

 17 18  0  0  0  0  0  0  0  0999 V2000
   -4.6138    8.5199  -20.0375 C   0  0  0  0  0  0  0  0  0  0  0  0
   -4.7027    7.0801  -20.5312 C   0  0  0  0  0  0  0  0  0  0  0  0
   -4.0931    6.0721  -19.5588 C   0  0  1  0  0  0  0  0  0  0  0  0
   -2.6898    6.3309  -19.4615 O   0  0  0  0  0  0  0  0  0  0  0  0
   -4.7665    6.0435  -18.1600 C   0  0  0  0  0  0  0  0  0  0  0  0
   -4.1871    6.3555  -17.1910 O   0  0  0  0  0  0  0  0  0  0  0  0
   -6.1978    5.4569  -18.3347 N   0  0  0  0  0  0  0  0  0  0  0  0
   -7.1191    5.0677  -17.3999 C   0  0  0  0  0  0  0  0  0  0  0  0
   -8.3222    4.4314  -17.6203 C   0  0  0  0  0  0  0  0  0  0  0  0
   -9.0028    4.1624  -18.8858 C   0  0  0  0  0  0  0  0  0  0  0  0
   -8.8354    3.9214  -16.4548 N   0  0  0  0  0  0  0  0  0  0  0  0
   -7.9713    4.2593  -15.5180 C   0  0  0  0  0  0  0  0  0  0  0  0
   -7.9424    3.7329  -14.1317 C   0  0  0  0  0  0  0  0  0  0  0  0
   -7.0546    5.1477  -16.0306 N   0  0  0  0  0  0  0  0  0  0  0  0
   -6.4945    6.3012  -15.2931 C   0  0  0  0  0  0  0  0  0  0  0  0
   -5.5888    6.1815  -14.1013 C   0  0  0  0  0  0  0  0  0  0  0  0
   -6.9678    6.7530  -13.9270 C   0  0  0  0  0  0  0  0  0  0  0  0
  1  2  1  0
  2  3  1  0
  3  4  1  1
  3  5  1  0
  5  6  2  0
  5  7  1  0
  7  8  1  0
  8  9  2  0
  9 10  1  0
  9 11  1  0
 11 12  2  0
 12 13  1  0
 12 14  1  0
 14 15  1  0
 15 16  1  0
 16 17  1  0
 14  8  1  0
 17 15  1  0
M  END
>  <energy_score>  (4062) 
-26.065917

>  <alias>  (4062) 
DBDJNEUMGXBCHG-UHFFFAOYSA-N-P35-P35-P86-601528

>  <HIPPO Pose ID>  (4062) 
81855

>  <smiles>  (4062) 
CCC(O)C(=O)Nc1c(C)nc(C)n1C1CC1

>  <inchikey>  (4062) 
DBDJNEUMGXBCHG-UHFFFAOYSA-N

>  <distance_score>  (4062) 
1.569148

>  <ref_mols>  (4062) 
Z0719a,Z1597a

>  <ref_pdb>  (4062) 
Z0719a

>  <HIPPO Compound ID>  (4062) 
151713

>  <name>  (4062) 
DBDJNEUMGXBCHG-UHFFFAOYSA-N-P35-P35-P86-601528

>  <inspiration_score>  (4062) 
None

$$$$
IIALYNHCGUUSOH-UHFFFAOYSA-N-P86-P35-P86-601528
     RDKit          3D

 17 18  0  0  0  0  0  0  0  0999 V2000
   -5.2114    8.3860  -23.5247 C   0  0  0  0  0  0  0  0  0  0  0  0
   -4.7453    7.8483  -22.1778 C   0  0  0  0  0  0  0  0  0  0  0  0
   -4.2760    6.4022  -22.2772 C   0  0  1  0  0  0  0  0  0  0  0  0
   -3.0305    6.3756  -22.9834 O   0  0  0  0  0  0  0  0  0  0  0  0
   -4.1113    5.8939  -20.8369 C   0  0  0  0  0  0  0  0  0  0  0  0
   -3.0742    5.9436  -20.2936 O   0  0  0  0  0  0  0  0  0  0  0  0
   -5.5096    5.4591  -20.3056 N   0  0  0  0  0  0  0  0  0  0  0  0
   -5.9058    5.1130  -19.0617 C   0  0  0  0  0  0  0  0  0  0  0  0
   -7.1686    4.7584  -18.6460 C   0  0  0  0  0  0  0  0  0  0  0  0
   -7.0900    4.7345  -17.2829 N   0  0  0  0  0  0  0  0  0  0  0  0
   -8.1263    4.5804  -16.4187 N   0  0  0  0  0  0  0  0  0  0  0  0
   -7.7496    4.7191  -15.1879 C   0  0  0  0  0  0  0  0  0  0  0  0
   -8.9616    4.6974  -13.9886 Cl  0  0  0  0  0  0  0  0  0  0  0  0
   -6.3740    4.9698  -14.7018 C   0  0  0  0  0  0  0  0  0  0  0  0
   -5.4228    5.1452  -15.6136 C   0  0  0  0  0  0  0  0  0  0  0  0
   -5.7769    5.0503  -16.9664 C   0  0  0  0  0  0  0  0  0  0  0  0
   -5.0403    5.2394  -18.0285 N   0  0  0  0  0  0  0  0  0  0  0  0
  1  2  1  0
  2  3  1  0
  3  4  1  1
  3  5  1  0
  5  6  2  0
  5  7  1  0
  7  8  1  0
  8  9  2  0
  9 10  1  0
 10 11  1  0
 11 12  2  0
 12 13  1  0
 12 14  1  0
 14 15  2  0
 15 16  1  0
 16 17  2  0
 17  8  1  0
 16 10  1  0
M  END
>  <energy_score>  (4063) 
-27.058048

>  <alias>  (4063) 
IIALYNHCGUUSOH-UHFFFAOYSA-N-P86-P35-P86-601528

>  <HIPPO Pose ID>  (4063) 
81858

>  <smiles>  (4063) 
CCC(O)C(=O)Nc1cn2nc(Cl)ccc2n1

>  <inchikey>  (4063) 
IIALYNHCGUUSOH-UHFFFAOYSA-N

>  <distance_score>  (4063) 
1.945266

>  <ref_mols>  (4063) 
Z0719a,Z1597a

>  <ref_pdb>  (4063) 
Z0719a

>  <HIPPO Compound ID>  (4063) 
151714

>  <name>  (4063) 
IIALYNHCGUUSOH-UHFFFAOYSA-N-P86-P35-P86-601528

>  <inspiration_score>  (4063) 
None

$$$$
UHEWNZJHXABJCO-UHFFFAOYSA-N-P35-P35-P86-601528
     RDKit          3D

 17 17  0  0  0  0  0  0  0  0999 V2000
   -4.8018    8.4437  -19.5607 C   0  0  0  0  0  0  0  0  0  0  0  0
   -4.6913    7.0427  -20.1416 C   0  0  0  0  0  0  0  0  0  0  0  0
   -3.9678    6.0627  -19.2102 C   0  0  2  0  0  0  0  0  0  0  0  0
   -3.7777    4.8336  -19.9103 O   0  0  0  0  0  0  0  0  0  0  0  0
   -4.6534    5.8973  -17.8121 C   0  0  0  0  0  0  0  0  0  0  0  0
   -4.1522    6.2781  -16.8244 O   0  0  0  0  0  0  0  0  0  0  0  0
   -6.0166    5.1774  -18.0402 N   0  0  0  0  0  0  0  0  0  0  0  0
   -7.0299    4.8806  -17.1564 C   0  0  0  0  0  0  0  0  0  0  0  0
   -8.2913    4.4547  -17.5359 C   0  0  0  0  0  0  0  0  0  0  0  0
   -8.8374    4.2137  -18.8759 C   0  0  0  0  0  0  0  0  0  0  0  0
   -9.1128    4.2910  -16.4627 N   0  0  0  0  0  0  0  0  0  0  0  0
   -8.3877    4.6016  -15.4160 C   0  0  0  0  0  0  0  0  0  0  0  0
   -8.8829    4.6250  -14.0244 C   0  0  0  0  0  0  0  0  0  0  0  0
   -7.0876    4.8938  -15.7749 N   0  0  0  0  0  0  0  0  0  0  0  0
   -6.0116    5.0693  -14.8143 C   0  0  0  0  0  0  0  0  0  0  0  0
   -6.0114    4.0864  -13.6336 C   0  0  0  0  0  0  0  0  0  0  0  0
   -5.9526    6.5044  -14.3034 C   0  0  0  0  0  0  0  0  0  0  0  0
  1  2  1  0
  2  3  1  0
  3  4  1  6
  3  5  1  0
  5  6  2  0
  5  7  1  0
  7  8  1  0
  8  9  2  0
  9 10  1  0
  9 11  1  0
 11 12  2  0
 12 13  1  0
 12 14  1  0
 14 15  1  0
 15 16  1  0
 15 17  1  0
 14  8  1  0
M  END
>  <energy_score>  (4064) 
-16.846018

>  <alias>  (4064) 
UHEWNZJHXABJCO-UHFFFAOYSA-N-P35-P35-P86-601528

>  <HIPPO Pose ID>  (4064) 
81859

>  <smiles>  (4064) 
CCC(O)C(=O)Nc1c(C)nc(C)n1C(C)C

>  <inchikey>  (4064) 
UHEWNZJHXABJCO-UHFFFAOYSA-N

>  <distance_score>  (4064) 
1.832913

>  <ref_mols>  (4064) 
Z0719a,Z1597a

>  <ref_pdb>  (4064) 
Z0719a

>  <HIPPO Compound ID>  (4064) 
151715

>  <name>  (4064) 
UHEWNZJHXABJCO-UHFFFAOYSA-N-P35-P35-P86-601528

>  <inspiration_score>  (4064) 
None

$$$$
WIFCXUXYPZBKCE-UHFFFAOYSA-N-P35-P35-P86-601528
     RDKit          3D

 17 17  0  0  0  0  0  0  0  0999 V2000
   -7.2253    3.4575  -13.4126 C   0  0  0  0  0  0  0  0  0  0  0  0
   -6.4897    4.7727  -13.6024 C   0  0  0  0  0  0  0  0  0  0  0  0
   -6.1645    5.1291  -15.0592 C   0  0  0  0  0  0  0  0  0  0  0  0
   -7.2362    5.1845  -16.0144 N   0  0  0  0  0  0  0  0  0  0  0  0
   -8.5702    5.3630  -15.7247 C   0  0  0  0  0  0  0  0  0  0  0  0
   -9.0915    6.1088  -14.5543 C   0  0  0  0  0  0  0  0  0  0  0  0
   -9.3050    4.8314  -16.6721 N   0  0  0  0  0  0  0  0  0  0  0  0
   -8.4460    4.6087  -17.7062 C   0  0  0  0  0  0  0  0  0  0  0  0
   -8.9806    4.1306  -18.9780 C   0  0  0  0  0  0  0  0  0  0  0  0
   -7.1565    4.9591  -17.3669 C   0  0  0  0  0  0  0  0  0  0  0  0
   -6.1007    5.0729  -18.2308 N   0  0  0  0  0  0  0  0  0  0  0  0
   -4.6010    5.3971  -17.9586 C   0  0  0  0  0  0  0  0  0  0  0  0
   -4.0563    5.6919  -16.9640 O   0  0  0  0  0  0  0  0  0  0  0  0
   -3.8722    5.3377  -19.3250 C   0  0  2  0  0  0  0  0  0  0  0  0
   -2.4997    4.9625  -19.1416 O   0  0  0  0  0  0  0  0  0  0  0  0
   -3.8824    6.6811  -20.0667 C   0  0  0  0  0  0  0  0  0  0  0  0
   -5.2507    7.2908  -20.3160 C   0  0  0  0  0  0  0  0  0  0  0  0
  1  2  1  0
  2  3  1  0
  3  4  1  0
  4  5  1  0
  5  6  1  0
  5  7  2  0
  7  8  1  0
  8  9  1  0
  8 10  2  0
 10 11  1  0
 11 12  1  0
 12 13  2  0
 12 14  1  0
 14 15  1  1
 14 16  1  0
 16 17  1  0
 10  4  1  0
M  END
>  <energy_score>  (4065) 
-26.586

>  <alias>  (4065) 
WIFCXUXYPZBKCE-UHFFFAOYSA-N-P35-P35-P86-601528

>  <HIPPO Pose ID>  (4065) 
81875

>  <smiles>  (4065) 
CCCn1c(C)nc(C)c1NC(=O)C(O)CC

>  <inchikey>  (4065) 
WIFCXUXYPZBKCE-UHFFFAOYSA-N

>  <distance_score>  (4065) 
1.615921

>  <ref_mols>  (4065) 
Z0719a,Z1597a

>  <ref_pdb>  (4065) 
Z0719a

>  <HIPPO Compound ID>  (4065) 
151723

>  <name>  (4065) 
WIFCXUXYPZBKCE-UHFFFAOYSA-N-P35-P35-P86-601528

>  <inspiration_score>  (4065) 
None

$$$$
OXOJFALTZDYFLJ-UHFFFAOYSA-N-P35-P35-P86-601528
     RDKit          3D

 17 17  0  0  0  0  0  0  0  0999 V2000
   -8.6244    4.5577  -13.9625 C   0  0  0  0  0  0  0  0  0  0  0  0
   -8.0490    4.3779  -15.2714 N   0  0  0  0  0  0  0  0  0  0  0  0
   -8.7049    4.5529  -16.4469 C   0  0  0  0  0  0  0  0  0  0  0  0
   -7.8531    4.6414  -17.4344 N   0  0  0  0  0  0  0  0  0  0  0  0
   -6.6165    4.4957  -16.8684 C   0  0  0  0  0  0  0  0  0  0  0  0
   -5.5889    4.7172  -17.7237 N   0  0  0  0  0  0  0  0  0  0  0  0
   -4.1754    5.2986  -17.4695 C   0  0  0  0  0  0  0  0  0  0  0  0
   -3.6503    5.6049  -16.4706 O   0  0  0  0  0  0  0  0  0  0  0  0
   -3.5084    5.5148  -18.8698 C   0  0  1  0  0  0  0  0  0  0  0  0
   -3.8224    4.6156  -19.9202 O   0  0  0  0  0  0  0  0  0  0  0  0
   -3.6319    6.9507  -19.3670 C   0  0  0  0  0  0  0  0  0  0  0  0
   -5.4597    7.4537  -19.7946 Br  0  0  0  0  0  0  0  0  0  0  0  0
   -6.7071    4.1516  -15.5315 C   0  0  0  0  0  0  0  0  0  0  0  0
   -5.6685    3.5071  -14.2697 S   0  0  0  0  0  0  0  0  0  0  0  0
   -5.4896    4.7436  -13.1643 N   0  0  0  0  0  0  0  0  0  0  0  0
   -4.3449    3.2683  -14.7849 O   0  0  0  0  0  0  0  0  0  0  0  0
   -6.4128    2.4614  -13.6036 O   0  0  0  0  0  0  0  0  0  0  0  0
  1  2  1  0
  2  3  1  0
  3  4  2  0
  4  5  1  0
  5  6  1  0
  6  7  1  0
  7  8  2  0
  7  9  1  0
  9 10  1  6
  9 11  1  0
 11 12  1  0
  5 13  2  0
 13 14  1  0
 14 15  1  0
 14 16  2  0
 14 17  2  0
 13  2  1  0
M  END
>  <energy_score>  (4066) 
-15.80504

>  <alias>  (4066) 
OXOJFALTZDYFLJ-UHFFFAOYSA-N-P35-P35-P86-601528

>  <HIPPO Pose ID>  (4066) 
81889

>  <smiles>  (4066) 
Cn1cnc(NC(=O)C(O)CBr)c1S(N)(=O)=O

>  <inchikey>  (4066) 
OXOJFALTZDYFLJ-UHFFFAOYSA-N

>  <distance_score>  (4066) 
1.737338

>  <ref_mols>  (4066) 
Z0719a,Z1597a

>  <ref_pdb>  (4066) 
Z0719a

>  <HIPPO Compound ID>  (4066) 
151730

>  <name>  (4066) 
OXOJFALTZDYFLJ-UHFFFAOYSA-N-P35-P35-P86-601528

>  <inspiration_score>  (4066) 
None

$$$$
ITNRSQKPZBTJBB-UHFFFAOYSA-N-P86-P35-P86-601528
     RDKit          3D

 17 17  0  0  0  0  0  0  0  0999 V2000
   -6.0054    4.6278  -13.1387 C   0  0  0  0  0  0  0  0  0  0  0  0
   -5.4055    5.2400  -14.3951 C   0  0  0  0  0  0  0  0  0  0  0  0
   -6.3672    5.9227  -15.3544 C   0  0  0  0  0  0  0  0  0  0  0  0
   -7.1526    5.0594  -16.1903 N   0  0  0  0  0  0  0  0  0  0  0  0
   -8.3408    4.4943  -15.7625 C   0  0  0  0  0  0  0  0  0  0  0  0
   -8.7984    4.4805  -14.3605 C   0  0  0  0  0  0  0  0  0  0  0  0
   -9.0242    4.0080  -16.7687 N   0  0  0  0  0  0  0  0  0  0  0  0
   -8.2614    4.2541  -17.8665 C   0  0  0  0  0  0  0  0  0  0  0  0
   -8.7261    3.7936  -19.1683 C   0  0  0  0  0  0  0  0  0  0  0  0
   -7.0736    4.8768  -17.5490 C   0  0  0  0  0  0  0  0  0  0  0  0
   -6.1050    5.1740  -18.4734 N   0  0  0  0  0  0  0  0  0  0  0  0
   -4.6084    5.5417  -18.2833 C   0  0  0  0  0  0  0  0  0  0  0  0
   -3.9908    5.7230  -17.3073 O   0  0  0  0  0  0  0  0  0  0  0  0
   -4.0119    5.5231  -19.7260 C   0  0  1  0  0  0  0  0  0  0  0  0
   -4.9145    5.0459  -20.7272 O   0  0  0  0  0  0  0  0  0  0  0  0
   -3.4377    6.8665  -20.1300 C   0  0  0  0  0  0  0  0  0  0  0  0
   -4.7765    8.2862  -20.1394 Br  0  0  0  0  0  0  0  0  0  0  0  0
  1  2  1  0
  2  3  1  0
  3  4  1  0
  4  5  1  0
  5  6  1  0
  5  7  2  0
  7  8  1  0
  8  9  1  0
  8 10  2  0
 10 11  1  0
 11 12  1  0
 12 13  2  0
 12 14  1  0
 14 15  1  6
 14 16  1  0
 16 17  1  0
 10  4  1  0
M  END
>  <energy_score>  (4067) 
-23.919844

>  <alias>  (4067) 
ITNRSQKPZBTJBB-UHFFFAOYSA-N-P86-P35-P86-601528

>  <HIPPO Pose ID>  (4067) 
81894

>  <smiles>  (4067) 
CCCn1c(C)nc(C)c1NC(=O)C(O)CBr

>  <inchikey>  (4067) 
ITNRSQKPZBTJBB-UHFFFAOYSA-N

>  <distance_score>  (4067) 
1.553256

>  <ref_mols>  (4067) 
Z0719a,Z1597a

>  <ref_pdb>  (4067) 
Z0719a

>  <HIPPO Compound ID>  (4067) 
151732

>  <name>  (4067) 
ITNRSQKPZBTJBB-UHFFFAOYSA-N-P86-P35-P86-601528

>  <inspiration_score>  (4067) 
None

$$$$
RERQQMDEMYSDSM-UHFFFAOYSA-N-P35-P35-P86-601528
     RDKit          3D

 17 18  0  0  0  0  0  0  0  0999 V2000
   -3.1689    6.1872  -19.9780 O   0  0  0  0  0  0  0  0  0  0  0  0
   -4.2186    6.3671  -20.4692 C   0  0  0  0  0  0  0  0  0  0  0  0
   -5.6423    5.9640  -19.9842 N   0  0  0  0  0  0  0  0  0  0  0  0
   -6.0433    5.3854  -18.8373 C   0  0  0  0  0  0  0  0  0  0  0  0
   -7.3325    5.0928  -18.4684 C   0  0  0  0  0  0  0  0  0  0  0  0
   -7.2372    4.7586  -17.1524 N   0  0  0  0  0  0  0  0  0  0  0  0
   -8.2693    4.7187  -16.2778 N   0  0  0  0  0  0  0  0  0  0  0  0
   -7.8542    4.5739  -15.0624 C   0  0  0  0  0  0  0  0  0  0  0  0
   -9.0003    4.8432  -13.8325 Cl  0  0  0  0  0  0  0  0  0  0  0  0
   -6.4662    4.3076  -14.6226 C   0  0  0  0  0  0  0  0  0  0  0  0
   -5.5071    4.4202  -15.5377 C   0  0  0  0  0  0  0  0  0  0  0  0
   -5.8834    4.7364  -16.8508 C   0  0  0  0  0  0  0  0  0  0  0  0
   -5.1439    5.1075  -17.8627 N   0  0  0  0  0  0  0  0  0  0  0  0
   -4.3620    7.2025  -21.7447 C   0  0  2  0  0  0  0  0  0  0  0  0
   -3.1155    7.1628  -22.4553 O   0  0  0  0  0  0  0  0  0  0  0  0
   -4.6745    8.6069  -21.2876 C   0  0  0  0  0  0  0  0  0  0  0  0
   -5.4184    9.6559  -22.7628 Br  0  0  0  0  0  0  0  0  0  0  0  0
  1  2  2  0
  2  3  1  0
  3  4  1  0
  4  5  2  0
  5  6  1  0
  6  7  1  0
  7  8  2  0
  8  9  1  0
  8 10  1  0
 10 11  2  0
 11 12  1  0
 12 13  2  0
  2 14  1  0
 14 15  1  1
 14 16  1  0
 16 17  1  0
 13  4  1  0
 12  6  1  0
M  END
>  <energy_score>  (4068) 
-5.035013

>  <alias>  (4068) 
RERQQMDEMYSDSM-UHFFFAOYSA-N-P35-P35-P86-601528

>  <HIPPO Pose ID>  (4068) 
81901

>  <smiles>  (4068) 
O=C(Nc1cn2nc(Cl)ccc2n1)C(O)CBr

>  <inchikey>  (4068) 
RERQQMDEMYSDSM-UHFFFAOYSA-N

>  <distance_score>  (4068) 
1.926648

>  <ref_mols>  (4068) 
Z0719a,Z1597a

>  <ref_pdb>  (4068) 
Z0719a

>  <HIPPO Compound ID>  (4068) 
151736

>  <name>  (4068) 
RERQQMDEMYSDSM-UHFFFAOYSA-N-P35-P35-P86-601528

>  <inspiration_score>  (4068) 
None

$$$$
WIGKEASTSLGCEW-UHFFFAOYSA-N-P35-P35-P86-601528
     RDKit          3D

 17 18  0  0  0  0  0  0  0  0999 V2000
   -5.3578    7.5969  -12.3363 C   0  0  0  0  0  0  0  0  0  0  0  0
   -6.0120    6.3462  -12.1386 O   0  0  0  0  0  0  0  0  0  0  0  0
   -7.0997    6.4132  -11.3218 C   0  0  0  0  0  0  0  0  0  0  0  0
   -7.4492    7.4141  -10.7072 O   0  0  0  0  0  0  0  0  0  0  0  0
   -7.7085    5.1213  -11.2109 C   0  0  0  0  0  0  0  0  0  0  0  0
   -7.9941    4.1392  -12.1341 C   0  0  0  0  0  0  0  0  0  0  0  0
   -7.9156    4.1100  -13.4842 N   0  0  0  0  0  0  0  0  0  0  0  0
   -7.7017    5.2530  -14.5034 C   0  0  0  0  0  0  0  0  0  0  0  0
   -7.6365    6.4113  -14.3425 O   0  0  0  0  0  0  0  0  0  0  0  0
   -7.5051    4.5980  -15.8933 C   0  0  0  0  0  0  0  0  0  0  0  0
   -6.8218    5.4740  -16.9790 C   0  0  0  0  0  0  0  0  0  0  0  0
   -7.7860    4.6226  -18.2559 S   0  0  0  0  0  0  0  0  0  0  0  0
   -8.7834    4.4214  -16.7520 C   0  0  0  0  0  0  0  0  0  0  0  0
   -8.4234    2.9944  -11.5342 N   0  0  0  0  0  0  0  0  0  0  0  0
   -8.4796    3.2658  -10.2543 C   0  0  0  0  0  0  0  0  0  0  0  0
   -8.1154    4.5559  -10.0196 N   0  0  0  0  0  0  0  0  0  0  0  0
   -8.0847    5.1946   -8.7339 C   0  0  0  0  0  0  0  0  0  0  0  0
  1  2  1  0
  2  3  1  0
  3  4  2  0
  3  5  1  0
  5  6  2  0
  6  7  1  0
  7  8  1  0
  8  9  2  0
  8 10  1  0
 10 11  1  0
 11 12  1  0
 12 13  1  0
  6 14  1  0
 14 15  2  0
 15 16  1  0
 16 17  1  0
 16  5  1  0
 13 10  1  0
M  END
>  <energy_score>  (4069) 
-28.282342

>  <alias>  (4069) 
WIGKEASTSLGCEW-UHFFFAOYSA-N-P35-P35-P86-601528

>  <HIPPO Pose ID>  (4069) 
81917

>  <smiles>  (4069) 
COC(=O)c1c(NC(=O)C2CSC2)ncn1C

>  <inchikey>  (4069) 
WIGKEASTSLGCEW-UHFFFAOYSA-N

>  <distance_score>  (4069) 
1.818147

>  <ref_mols>  (4069) 
Z0719a,Z1597a

>  <ref_pdb>  (4069) 
Z0719a

>  <HIPPO Compound ID>  (4069) 
151744

>  <name>  (4069) 
WIGKEASTSLGCEW-UHFFFAOYSA-N-P35-P35-P86-601528

>  <inspiration_score>  (4069) 
None

$$$$
JEDQYXGTRCZVPR-UHFFFAOYSA-N-P35-P35-P86-601528
     RDKit          3D

 17 18  0  0  0  0  0  0  0  0999 V2000
   -8.3024    7.4587  -10.8622 C   0  0  0  0  0  0  0  0  0  0  0  0
   -7.1701    8.0446  -11.6904 C   0  0  0  0  0  0  0  0  0  0  0  0
   -7.2096    7.5959  -13.1518 C   0  0  1  0  0  0  0  0  0  0  0  0
   -6.2521    8.3781  -13.8752 O   0  0  0  0  0  0  0  0  0  0  0  0
   -6.8813    6.0939  -13.2971 C   0  0  0  0  0  0  0  0  0  0  0  0
   -7.6906    5.2653  -13.4349 O   0  0  0  0  0  0  0  0  0  0  0  0
   -5.3377    5.9845  -13.2013 N   0  0  0  0  0  0  0  0  0  0  0  0
   -4.5319    4.8925  -13.1626 C   0  0  0  0  0  0  0  0  0  0  0  0
   -3.1731    5.1357  -13.0531 N   0  0  0  0  0  0  0  0  0  0  0  0
   -2.6536    3.9460  -12.9643 C   0  0  0  0  0  0  0  0  0  0  0  0
   -3.5848    2.9697  -13.0205 N   0  0  0  0  0  0  0  0  0  0  0  0
   -4.8095    3.5353  -13.1819 C   0  0  0  0  0  0  0  0  0  0  0  0
   -5.9979    2.7719  -13.2853 C   0  0  0  0  0  0  0  0  0  0  0  0
   -6.8466    1.9844  -13.3444 N   0  0  0  0  0  0  0  0  0  0  0  0
   -3.1344    1.6027  -12.9079 C   0  0  0  0  0  0  0  0  0  0  0  0
   -1.6902    1.6543  -12.3989 C   0  0  0  0  0  0  0  0  0  0  0  0
   -1.0612    3.3489  -12.7475 S   0  0  0  0  0  0  0  0  0  0  0  0
  1  2  1  0
  2  3  1  0
  3  4  1  6
  3  5  1  0
  5  6  2  0
  5  7  1  0
  7  8  1  0
  8  9  1  0
  9 10  2  0
 10 11  1  0
 11 12  1  0
 12 13  1  0
 13 14  3  0
 11 15  1  0
 15 16  1  0
 16 17  1  0
 12  8  2  0
 17 10  1  0
M  END
>  <energy_score>  (4070) 
-44.37753

>  <alias>  (4070) 
JEDQYXGTRCZVPR-UHFFFAOYSA-N-P35-P35-P86-601528

>  <HIPPO Pose ID>  (4070) 
81919

>  <smiles>  (4070) 
CCC(O)C(=O)Nc1nc2n(c1C#N)CCS2

>  <inchikey>  (4070) 
JEDQYXGTRCZVPR-UHFFFAOYSA-N

>  <distance_score>  (4070) 
1.409602

>  <ref_mols>  (4070) 
Z0719a,Z1597a

>  <ref_pdb>  (4070) 
Z0719a

>  <HIPPO Compound ID>  (4070) 
151745

>  <name>  (4070) 
JEDQYXGTRCZVPR-UHFFFAOYSA-N-P35-P35-P86-601528

>  <inspiration_score>  (4070) 
None

$$$$
MSCFCNROPKDOAJ-UHFFFAOYSA-N-P35-P35-P86-601528
     RDKit          3D

 17 18  0  0  0  0  0  0  0  0999 V2000
   -3.2970    7.6340  -18.9811 C   0  0  0  0  0  0  0  0  0  0  0  0
   -4.4027    6.6443  -19.3512 C   0  0  0  0  0  0  0  0  0  0  0  0
   -3.7192    5.2982  -19.6180 C   0  0  0  0  0  0  0  0  0  0  0  0
   -5.0939    7.2451  -20.5863 C   0  0  0  0  0  0  0  0  0  0  0  0
   -5.3656    6.4291  -18.1467 C   0  0  0  0  0  0  0  0  0  0  0  0
   -5.0995    6.7760  -17.0622 O   0  0  0  0  0  0  0  0  0  0  0  0
   -6.5871    5.6224  -18.6759 N   0  0  0  0  0  0  0  0  0  0  0  0
   -7.6148    5.0348  -18.0056 C   0  0  0  0  0  0  0  0  0  0  0  0
   -8.7763    4.7868  -18.6868 N   0  0  0  0  0  0  0  0  0  0  0  0
   -9.6989    4.3151  -17.8059 C   0  0  0  0  0  0  0  0  0  0  0  0
   -9.1671    4.1169  -16.6301 N   0  0  0  0  0  0  0  0  0  0  0  0
   -7.8674    4.5911  -16.7248 C   0  0  0  0  0  0  0  0  0  0  0  0
   -6.9921    4.4359  -15.5654 C   0  0  0  0  0  0  0  0  0  0  0  0
   -5.6573    4.1331  -15.6940 N   0  0  0  0  0  0  0  0  0  0  0  0
   -5.2326    3.7849  -14.4830 N   0  0  0  0  0  0  0  0  0  0  0  0
   -6.3147    3.9098  -13.7034 N   0  0  0  0  0  0  0  0  0  0  0  0
   -7.4197    4.3730  -14.2934 N   0  0  0  0  0  0  0  0  0  0  0  0
  1  2  1  0
  2  3  1  0
  2  4  1  0
  2  5  1  0
  5  6  2  0
  5  7  1  0
  7  8  1  0
  8  9  1  0
  9 10  1  0
 10 11  2  0
 11 12  1  0
 12 13  1  0
 13 14  1  0
 14 15  2  0
 15 16  1  0
 16 17  1  0
 12  8  2  0
 17 13  2  0
M  END
>  <energy_score>  (4071) 
-24.905575

>  <alias>  (4071) 
MSCFCNROPKDOAJ-UHFFFAOYSA-N-P35-P35-P86-601528

>  <HIPPO Pose ID>  (4071) 
81925

>  <smiles>  (4071) 
CC(C)(C)C(=O)Nc1[nH]cnc1-c1nn[nH]n1

>  <inchikey>  (4071) 
MSCFCNROPKDOAJ-UHFFFAOYSA-N

>  <distance_score>  (4071) 
1.51116

>  <ref_mols>  (4071) 
Z0719a,Z1597a

>  <ref_pdb>  (4071) 
Z0719a

>  <HIPPO Compound ID>  (4071) 
151748

>  <name>  (4071) 
MSCFCNROPKDOAJ-UHFFFAOYSA-N-P35-P35-P86-601528

>  <inspiration_score>  (4071) 
None

$$$$
YUZCBKZKIKMNQT-UHFFFAOYSA-N-P35-P35-P86-601528
     RDKit          3D

 17 17  0  0  0  0  0  0  0  0999 V2000
   -8.1878    6.1564  -14.1177 C   0  0  0  0  0  0  0  0  0  0  0  0
   -6.9509    5.4356  -13.6127 C   0  0  0  0  0  0  0  0  0  0  0  0
   -6.8354    4.1661  -14.2570 O   0  0  0  0  0  0  0  0  0  0  0  0
   -6.1880    4.2529  -15.4541 C   0  0  0  0  0  0  0  0  0  0  0  0
   -4.9752    4.1281  -15.5541 O   0  0  0  0  0  0  0  0  0  0  0  0
   -7.1478    4.4037  -16.5087 C   0  0  0  0  0  0  0  0  0  0  0  0
   -8.4673    3.9984  -16.4097 N   0  0  0  0  0  0  0  0  0  0  0  0
   -9.0555    4.1662  -17.6191 C   0  0  0  0  0  0  0  0  0  0  0  0
   -8.1903    4.6144  -18.4941 N   0  0  0  0  0  0  0  0  0  0  0  0
   -7.0414    4.8491  -17.8041 C   0  0  0  0  0  0  0  0  0  0  0  0
   -6.0180    5.4503  -18.4575 N   0  0  0  0  0  0  0  0  0  0  0  0
   -4.8057    6.2582  -17.9105 C   0  0  0  0  0  0  0  0  0  0  0  0
   -4.5481    6.5931  -16.8189 O   0  0  0  0  0  0  0  0  0  0  0  0
   -3.8114    6.5123  -19.0866 C   0  0  0  0  0  0  0  0  0  0  0  0
   -4.4627    7.1831  -20.3058 C   0  0  0  0  0  0  0  0  0  0  0  0
   -3.1677    5.1740  -19.4732 C   0  0  0  0  0  0  0  0  0  0  0  0
   -2.6876    7.4481  -18.5888 C   0  0  0  0  0  0  0  0  0  0  0  0
  1  2  1  0
  2  3  1  0
  3  4  1  0
  4  5  2  0
  4  6  1  0
  6  7  1  0
  7  8  1  0
  8  9  2  0
  9 10  1  0
 10 11  1  0
 11 12  1  0
 12 13  2  0
 12 14  1  0
 14 15  1  0
 14 16  1  0
 14 17  1  0
 10  6  2  0
M  END
>  <energy_score>  (4072) 
-13.816811

>  <alias>  (4072) 
YUZCBKZKIKMNQT-UHFFFAOYSA-N-P35-P35-P86-601528

>  <HIPPO Pose ID>  (4072) 
81927

>  <smiles>  (4072) 
CCOC(=O)c1[nH]cnc1NC(=O)C(C)(C)C

>  <inchikey>  (4072) 
YUZCBKZKIKMNQT-UHFFFAOYSA-N

>  <distance_score>  (4072) 
1.847348

>  <ref_mols>  (4072) 
Z0719a,Z1597a

>  <ref_pdb>  (4072) 
Z0719a

>  <HIPPO Compound ID>  (4072) 
151749

>  <name>  (4072) 
YUZCBKZKIKMNQT-UHFFFAOYSA-N-P35-P35-P86-601528

>  <inspiration_score>  (4072) 
None

$$$$
RKJJXQSTFLUORE-UHFFFAOYSA-N-P35-P35-P86-601528
     RDKit          3D

 17 18  0  0  0  0  0  0  0  0999 V2000
   -4.6793    7.5820  -20.9978 C   0  0  0  0  0  0  0  0  0  0  0  0
   -3.7043    7.2179  -20.1553 C   0  0  0  0  0  0  0  0  0  0  0  0
   -3.3697    5.8133  -19.7570 C   0  0  0  0  0  0  0  0  0  0  0  0
   -3.7366    5.4951  -18.3115 C   0  0  0  0  0  0  0  0  0  0  0  0
   -2.9359    5.3167  -17.4793 O   0  0  0  0  0  0  0  0  0  0  0  0
   -5.2860    5.4284  -18.2474 N   0  0  0  0  0  0  0  0  0  0  0  0
   -6.1086    5.0604  -17.2380 C   0  0  0  0  0  0  0  0  0  0  0  0
   -7.4503    5.2515  -17.4108 N   0  0  0  0  0  0  0  0  0  0  0  0
   -8.0017    4.8211  -16.3004 C   0  0  0  0  0  0  0  0  0  0  0  0
   -7.0708    4.3489  -15.4380 N   0  0  0  0  0  0  0  0  0  0  0  0
   -5.8498    4.5078  -16.0091 C   0  0  0  0  0  0  0  0  0  0  0  0
   -4.6660    4.1063  -15.3613 C   0  0  0  0  0  0  0  0  0  0  0  0
   -3.8367    3.6683  -14.6823 N   0  0  0  0  0  0  0  0  0  0  0  0
   -7.4346    3.8848  -14.1151 C   0  0  0  0  0  0  0  0  0  0  0  0
   -8.5543    4.7479  -13.5525 C   0  0  0  0  0  0  0  0  0  0  0  0
   -9.4402    5.3487  -14.5085 O   0  0  0  0  0  0  0  0  0  0  0  0
   -9.3910    4.8224  -15.8529 C   0  0  0  0  0  0  0  0  0  0  0  0
  1  2  2  0
  2  3  1  0
  3  4  1  0
  4  5  2  0
  4  6  1  0
  6  7  1  0
  7  8  1  0
  8  9  2  0
  9 10  1  0
 10 11  1  0
 11 12  1  0
 12 13  3  0
 10 14  1  0
 14 15  1  0
 15 16  1  0
 16 17  1  0
 11  7  2  0
 17  9  1  0
M  END
>  <energy_score>  (4073) 
-14.63762

>  <alias>  (4073) 
RKJJXQSTFLUORE-UHFFFAOYSA-N-P35-P35-P86-601528

>  <HIPPO Pose ID>  (4073) 
81943

>  <smiles>  (4073) 
C=CCC(=O)Nc1nc2n(c1C#N)CCOC2

>  <inchikey>  (4073) 
RKJJXQSTFLUORE-UHFFFAOYSA-N

>  <distance_score>  (4073) 
1.843714

>  <ref_mols>  (4073) 
Z0719a,Z1597a

>  <ref_pdb>  (4073) 
Z0719a

>  <HIPPO Compound ID>  (4073) 
151757

>  <name>  (4073) 
RKJJXQSTFLUORE-UHFFFAOYSA-N-P35-P35-P86-601528

>  <inspiration_score>  (4073) 
None

$$$$
DKVYERKWFUOWTQ-UHFFFAOYSA-N-P35-P35-P86-601528
     RDKit          3D

 17 17  0  0  0  0  0  0  0  0999 V2000
   -7.5739    3.1337  -14.4144 C   0  0  0  0  0  0  0  0  0  0  0  0
   -8.0143    3.8127  -15.6901 C   0  0  0  0  0  0  0  0  0  0  0  0
   -9.0540    3.5111  -16.4498 N   0  0  0  0  0  0  0  0  0  0  0  0
   -8.8990    4.2190  -17.6127 C   0  0  0  0  0  0  0  0  0  0  0  0
   -7.7490    4.9728  -17.5746 C   0  0  0  0  0  0  0  0  0  0  0  0
   -7.1726    5.6722  -18.6025 N   0  0  0  0  0  0  0  0  0  0  0  0
   -5.7908    6.3936  -18.6877 C   0  0  0  0  0  0  0  0  0  0  0  0
   -4.9727    6.5638  -17.8681 O   0  0  0  0  0  0  0  0  0  0  0  0
   -5.6683    6.9285  -20.1101 C   0  0  0  0  0  0  0  0  0  0  0  0
   -4.2252    7.0818  -20.5720 C   0  0  0  0  0  0  0  0  0  0  0  0
   -3.4986    8.6817  -20.0934 S   0  0  0  0  0  0  0  0  0  0  0  0
   -7.3158    4.8471  -16.2737 N   0  0  0  0  0  0  0  0  0  0  0  0
   -6.4313    5.7379  -15.5770 C   0  0  0  0  0  0  0  0  0  0  0  0
   -6.6416    5.8747  -14.0867 C   0  0  0  0  0  0  0  0  0  0  0  0
   -7.9397    5.8603  -13.7122 F   0  0  0  0  0  0  0  0  0  0  0  0
   -6.1306    7.0498  -13.6585 F   0  0  0  0  0  0  0  0  0  0  0  0
   -5.9829    4.9089  -13.4062 F   0  0  0  0  0  0  0  0  0  0  0  0
  1  2  1  0
  2  3  2  0
  3  4  1  0
  4  5  2  0
  5  6  1  0
  6  7  1  0
  7  8  2  0
  7  9  1  0
  9 10  1  0
 10 11  1  0
  5 12  1  0
 12 13  1  0
 13 14  1  0
 14 15  1  0
 14 16  1  0
 14 17  1  0
 12  2  1  0
M  END
>  <energy_score>  (4074) 
-8.847345

>  <alias>  (4074) 
DKVYERKWFUOWTQ-UHFFFAOYSA-N-P35-P35-P86-601528

>  <HIPPO Pose ID>  (4074) 
81969

>  <smiles>  (4074) 
Cc1ncc(NC(=O)CCS)n1CC(F)(F)F

>  <inchikey>  (4074) 
DKVYERKWFUOWTQ-UHFFFAOYSA-N

>  <distance_score>  (4074) 
1.739203

>  <ref_mols>  (4074) 
Z0719a,Z1597a

>  <ref_pdb>  (4074) 
Z0719a

>  <HIPPO Compound ID>  (4074) 
151770

>  <name>  (4074) 
DKVYERKWFUOWTQ-UHFFFAOYSA-N-P35-P35-P86-601528

>  <inspiration_score>  (4074) 
None

$$$$
LUHPWEKWJCGFAI-UHFFFAOYSA-N-P86-P35-P86-601528
     RDKit          3D

 17 18  0  0  0  0  0  0  0  0999 V2000
   -8.4892    5.6956   -9.4396 C   0  0  0  0  0  0  0  0  0  0  0  0
   -8.0945    5.0195  -10.6930 C   0  0  0  0  0  0  0  0  0  0  0  0
   -8.4298    5.3903  -11.9194 N   0  0  0  0  0  0  0  0  0  0  0  0
   -7.6248    4.6689  -12.7648 C   0  0  0  0  0  0  0  0  0  0  0  0
   -7.7379    4.8574  -14.1108 N   0  0  0  0  0  0  0  0  0  0  0  0
   -6.6806    4.7611  -15.2274 C   0  0  0  0  0  0  0  0  0  0  0  0
   -5.5317    4.5815  -15.1655 O   0  0  0  0  0  0  0  0  0  0  0  0
   -7.3105    4.8193  -16.6262 C   0  0  0  0  0  0  0  0  0  0  0  0
   -8.6901    4.2185  -16.8201 C   0  0  0  0  0  0  0  0  0  0  0  0
   -6.3552    4.5944  -17.8071 C   0  0  0  0  0  0  0  0  0  0  0  0
   -6.8712    5.9529  -17.5436 C   0  0  0  0  0  0  0  0  0  0  0  0
   -6.8765    3.7864  -12.0322 C   0  0  0  0  0  0  0  0  0  0  0  0
   -5.9370    2.8132  -12.4141 N   0  0  0  0  0  0  0  0  0  0  0  0
   -4.9360    3.2094  -13.0125 O   0  0  0  0  0  0  0  0  0  0  0  0
   -6.1436    1.6618  -12.0148 O   0  0  0  0  0  0  0  0  0  0  0  0
   -7.2573    3.9302  -10.7252 N   0  0  0  0  0  0  0  0  0  0  0  0
   -6.8201    3.1476   -9.5908 C   0  0  0  0  0  0  0  0  0  0  0  0
  1  2  1  0
  2  3  2  0
  3  4  1  0
  4  5  1  0
  5  6  1  0
  6  7  2  0
  6  8  1  0
  8  9  1  0
  8 10  1  0
 10 11  1  0
  4 12  2  0
 12 13  1  0
 13 14  2  0
 13 15  1  0
 12 16  1  0
 16 17  1  0
 16  2  1  0
 11  8  1  0
M  CHG  2  13   1  15  -1
M  END
>  <energy_score>  (4075) 
-2.7606

>  <alias>  (4075) 
LUHPWEKWJCGFAI-UHFFFAOYSA-N-P86-P35-P86-601528

>  <HIPPO Pose ID>  (4075) 
81982

>  <smiles>  (4075) 
Cc1nc(NC(=O)C2(C)CC2)c([N+](=O)[O-])n1C

>  <inchikey>  (4075) 
LUHPWEKWJCGFAI-UHFFFAOYSA-N

>  <distance_score>  (4075) 
1.388792

>  <ref_mols>  (4075) 
Z0719a,Z1597a

>  <ref_pdb>  (4075) 
Z0719a

>  <HIPPO Compound ID>  (4075) 
151776

>  <name>  (4075) 
LUHPWEKWJCGFAI-UHFFFAOYSA-N-P86-P35-P86-601528

>  <inspiration_score>  (4075) 
None

$$$$
IHVIOITXPKHXRH-UHFFFAOYSA-N-P86-P35-P86-601528
     RDKit          3D

 17 19  0  0  0  0  0  0  0  0999 V2000
   -5.0933    6.8998  -22.7726 C   0  0  0  0  0  0  0  0  0  0  0  0
   -3.8349    6.8181  -21.9647 C   0  0  0  0  0  0  0  0  0  0  0  0
   -3.8814    6.2423  -20.5418 C   0  0  0  0  0  0  0  0  0  0  0  0
   -2.8997    6.3305  -19.9161 O   0  0  0  0  0  0  0  0  0  0  0  0
   -5.2818    5.7209  -20.1417 N   0  0  0  0  0  0  0  0  0  0  0  0
   -5.7578    5.3163  -18.9443 C   0  0  0  0  0  0  0  0  0  0  0  0
   -7.0205    4.8801  -18.6124 C   0  0  0  0  0  0  0  0  0  0  0  0
   -7.0126    4.8058  -17.2462 N   0  0  0  0  0  0  0  0  0  0  0  0
   -8.0875    4.6127  -16.4369 N   0  0  0  0  0  0  0  0  0  0  0  0
   -7.7675    4.7112  -15.1859 C   0  0  0  0  0  0  0  0  0  0  0  0
   -9.0296    4.6882  -14.0431 Cl  0  0  0  0  0  0  0  0  0  0  0  0
   -6.4156    4.9250  -14.6243 C   0  0  0  0  0  0  0  0  0  0  0  0
   -5.4268    5.1501  -15.4821 C   0  0  0  0  0  0  0  0  0  0  0  0
   -5.7243    5.1316  -16.8504 C   0  0  0  0  0  0  0  0  0  0  0  0
   -4.9515    5.4178  -17.8603 N   0  0  0  0  0  0  0  0  0  0  0  0
   -2.5414    6.6353  -22.7514 C   0  0  0  0  0  0  0  0  0  0  0  0
   -2.8629    7.9813  -22.1782 C   0  0  0  0  0  0  0  0  0  0  0  0
  1  2  1  0
  2  3  1  0
  3  4  2  0
  3  5  1  0
  5  6  1  0
  6  7  2  0
  7  8  1  0
  8  9  1  0
  9 10  2  0
 10 11  1  0
 10 12  1  0
 12 13  2  0
 13 14  1  0
 14 15  2  0
  2 16  1  0
 16 17  1  0
 17  2  1  0
 15  6  1  0
 14  8  1  0
M  END
>  <energy_score>  (4076) 
-31.972966

>  <alias>  (4076) 
IHVIOITXPKHXRH-UHFFFAOYSA-N-P86-P35-P86-601528

>  <HIPPO Pose ID>  (4076) 
81984

>  <smiles>  (4076) 
CC1(C(=O)Nc2cn3nc(Cl)ccc3n2)CC1

>  <inchikey>  (4076) 
IHVIOITXPKHXRH-UHFFFAOYSA-N

>  <distance_score>  (4076) 
1.959131

>  <ref_mols>  (4076) 
Z0719a,Z1597a

>  <ref_pdb>  (4076) 
Z0719a

>  <HIPPO Compound ID>  (4076) 
151777

>  <name>  (4076) 
IHVIOITXPKHXRH-UHFFFAOYSA-N-P86-P35-P86-601528

>  <inspiration_score>  (4076) 
None

$$$$
UWGNMTVIKRALBC-UHFFFAOYSA-N-P35-P35-P86-601528
     RDKit          3D

 17 18  0  0  0  0  0  0  0  0999 V2000
   -8.3847    7.4446  -12.2830 C   0  0  0  0  0  0  0  0  0  0  0  0
   -7.8182    6.1177  -11.9797 C   0  0  0  0  0  0  0  0  0  0  0  0
   -7.8904    5.6160  -10.6986 N   0  0  0  0  0  0  0  0  0  0  0  0
   -7.3959    4.3923  -10.7470 C   0  0  0  0  0  0  0  0  0  0  0  0
   -7.4217    3.4419   -9.6103 C   0  0  0  0  0  0  0  0  0  0  0  0
   -6.8508    4.1562  -11.9892 N   0  0  0  0  0  0  0  0  0  0  0  0
   -5.8978    3.1443  -12.4369 C   0  0  0  0  0  0  0  0  0  0  0  0
   -6.6139    1.9447  -12.9957 C   0  0  0  0  0  0  0  0  0  0  0  0
   -4.8182    2.7343  -11.4442 C   0  0  0  0  0  0  0  0  0  0  0  0
   -7.2635    5.1817  -12.8221 C   0  0  0  0  0  0  0  0  0  0  0  0
   -7.0420    5.1001  -14.1688 N   0  0  0  0  0  0  0  0  0  0  0  0
   -6.7930    6.1990  -15.2041 C   0  0  0  0  0  0  0  0  0  0  0  0
   -6.8115    7.3564  -15.0949 O   0  0  0  0  0  0  0  0  0  0  0  0
   -6.3805    5.5203  -16.4929 C   0  0  0  0  0  0  0  0  0  0  0  0
   -4.9940    4.9205  -16.5229 C   0  0  0  0  0  0  0  0  0  0  0  0
   -6.8780    6.0328  -17.8193 C   0  0  0  0  0  0  0  0  0  0  0  0
   -7.5126    4.8091  -17.2341 C   0  0  0  0  0  0  0  0  0  0  0  0
  1  2  1  0
  2  3  1  0
  3  4  2  0
  4  5  1  0
  4  6  1  0
  6  7  1  0
  7  8  1  0
  7  9  1  0
  6 10  1  0
 10 11  1  0
 11 12  1  0
 12 13  2  0
 12 14  1  0
 14 15  1  0
 14 16  1  0
 16 17  1  0
 10  2  2  0
 17 14  1  0
M  END
>  <energy_score>  (4077) 
-35.45309

>  <alias>  (4077) 
UWGNMTVIKRALBC-UHFFFAOYSA-N-P35-P35-P86-601528

>  <HIPPO Pose ID>  (4077) 
81985

>  <smiles>  (4077) 
Cc1nc(C)n(C(C)C)c1NC(=O)C1(C)CC1

>  <inchikey>  (4077) 
UWGNMTVIKRALBC-UHFFFAOYSA-N

>  <distance_score>  (4077) 
1.699467

>  <ref_mols>  (4077) 
Z0719a,Z1597a

>  <ref_pdb>  (4077) 
Z0719a

>  <HIPPO Compound ID>  (4077) 
151778

>  <name>  (4077) 
UWGNMTVIKRALBC-UHFFFAOYSA-N-P35-P35-P86-601528

>  <inspiration_score>  (4077) 
None

$$$$
SKQISEDLLABPQK-UHFFFAOYSA-N-P35-P35-P86-601528
     RDKit          3D

 17 18  0  0  0  0  0  0  0  0999 V2000
   -5.4123    7.7034  -12.3315 C   0  0  0  0  0  0  0  0  0  0  0  0
   -6.0130    6.4243  -12.1482 O   0  0  0  0  0  0  0  0  0  0  0  0
   -7.1308    6.4417  -11.3716 C   0  0  0  0  0  0  0  0  0  0  0  0
   -7.5421    7.4227  -10.7616 O   0  0  0  0  0  0  0  0  0  0  0  0
   -7.6919    5.1265  -11.2938 C   0  0  0  0  0  0  0  0  0  0  0  0
   -7.9318    4.1528  -12.2396 C   0  0  0  0  0  0  0  0  0  0  0  0
   -7.8420    4.1449  -13.5909 N   0  0  0  0  0  0  0  0  0  0  0  0
   -7.6177    5.3035  -14.5898 C   0  0  0  0  0  0  0  0  0  0  0  0
   -7.5520    6.4588  -14.4100 O   0  0  0  0  0  0  0  0  0  0  0  0
   -7.4350    4.6527  -15.9952 C   0  0  0  0  0  0  0  0  0  0  0  0
   -6.9136    5.5460  -17.1472 C   0  0  0  0  0  0  0  0  0  0  0  0
   -7.8931    4.8210  -18.0810 C   0  0  0  0  0  0  0  0  0  0  0  0
   -8.7121    4.4328  -16.8391 C   0  0  0  0  0  0  0  0  0  0  0  0
   -8.3339    2.9851  -11.6628 N   0  0  0  0  0  0  0  0  0  0  0  0
   -8.4247    3.2336  -10.3804 C   0  0  0  0  0  0  0  0  0  0  0  0
   -8.0997    4.5282  -10.1181 N   0  0  0  0  0  0  0  0  0  0  0  0
   -8.1078    5.1426   -8.8201 C   0  0  0  0  0  0  0  0  0  0  0  0
  1  2  1  0
  2  3  1  0
  3  4  2  0
  3  5  1  0
  5  6  2  0
  6  7  1  0
  7  8  1  0
  8  9  2  0
  8 10  1  0
 10 11  1  0
 11 12  1  0
 12 13  1  0
  6 14  1  0
 14 15  2  0
 15 16  1  0
 16 17  1  0
 16  5  1  0
 13 10  1  0
M  END
>  <energy_score>  (4078) 
-19.77935

>  <alias>  (4078) 
SKQISEDLLABPQK-UHFFFAOYSA-N-P35-P35-P86-601528

>  <HIPPO Pose ID>  (4078) 
81993

>  <smiles>  (4078) 
COC(=O)c1c(NC(=O)C2CCC2)ncn1C

>  <inchikey>  (4078) 
SKQISEDLLABPQK-UHFFFAOYSA-N

>  <distance_score>  (4078) 
1.827044

>  <ref_mols>  (4078) 
Z0719a,Z1597a

>  <ref_pdb>  (4078) 
Z0719a

>  <HIPPO Compound ID>  (4078) 
151782

>  <name>  (4078) 
SKQISEDLLABPQK-UHFFFAOYSA-N-P35-P35-P86-601528

>  <inspiration_score>  (4078) 
None

$$$$
APNCJHZRKWDWLZ-UHFFFAOYSA-N-P86-P35-P86-601528
     RDKit          3D

 17 18  0  0  0  0  0  0  0  0999 V2000
   -8.7144    7.4240  -11.8094 C   0  0  0  0  0  0  0  0  0  0  0  0
   -8.0483    6.1276  -11.5789 C   0  0  0  0  0  0  0  0  0  0  0  0
   -7.8989    5.6489  -10.3148 N   0  0  0  0  0  0  0  0  0  0  0  0
   -7.2794    4.4915  -10.4376 C   0  0  0  0  0  0  0  0  0  0  0  0
   -7.0657    3.5907   -9.2825 C   0  0  0  0  0  0  0  0  0  0  0  0
   -6.8902    4.2661  -11.7549 N   0  0  0  0  0  0  0  0  0  0  0  0
   -6.1779    3.1100  -12.3022 C   0  0  0  0  0  0  0  0  0  0  0  0
   -6.6893    1.7692  -11.8048 C   0  0  0  0  0  0  0  0  0  0  0  0
   -4.6643    3.2093  -12.1318 C   0  0  0  0  0  0  0  0  0  0  0  0
   -7.4507    5.2910  -12.4977 C   0  0  0  0  0  0  0  0  0  0  0  0
   -7.5004    5.4199  -13.8569 N   0  0  0  0  0  0  0  0  0  0  0  0
   -6.4695    5.0216  -14.9449 C   0  0  0  0  0  0  0  0  0  0  0  0
   -5.3857    4.5923  -14.8418 O   0  0  0  0  0  0  0  0  0  0  0  0
   -7.1691    5.2918  -16.2999 C   0  0  0  0  0  0  0  0  0  0  0  0
   -6.4313    5.0660  -17.6271 C   0  0  0  0  0  0  0  0  0  0  0  0
   -7.7412    4.5195  -18.2172 C   0  0  0  0  0  0  0  0  0  0  0  0
   -8.2515    4.2996  -16.7836 C   0  0  0  0  0  0  0  0  0  0  0  0
  1  2  1  0
  2  3  1  0
  3  4  2  0
  4  5  1  0
  4  6  1  0
  6  7  1  0
  7  8  1  0
  7  9  1  0
  6 10  1  0
 10 11  1  0
 11 12  1  0
 12 13  2  0
 12 14  1  0
 14 15  1  0
 15 16  1  0
 16 17  1  0
 10  2  2  0
 17 14  1  0
M  END
>  <energy_score>  (4079) 
-26.168271

>  <alias>  (4079) 
APNCJHZRKWDWLZ-UHFFFAOYSA-N-P86-P35-P86-601528

>  <HIPPO Pose ID>  (4079) 
81998

>  <smiles>  (4079) 
Cc1nc(C)n(C(C)C)c1NC(=O)C1CCC1

>  <inchikey>  (4079) 
APNCJHZRKWDWLZ-UHFFFAOYSA-N

>  <distance_score>  (4079) 
1.289804

>  <ref_mols>  (4079) 
Z0719a,Z1597a

>  <ref_pdb>  (4079) 
Z0719a

>  <HIPPO Compound ID>  (4079) 
151784

>  <name>  (4079) 
APNCJHZRKWDWLZ-UHFFFAOYSA-N-P86-P35-P86-601528

>  <inspiration_score>  (4079) 
None

$$$$
SNSGSRWPIJKSRT-UHFFFAOYSA-N-P35-P35-P86-601528
     RDKit          3D

 17 18  0  0  0  0  0  0  0  0999 V2000
   -2.9331    6.0755  -19.9535 O   0  0  0  0  0  0  0  0  0  0  0  0
   -3.9553    6.4925  -20.3518 C   0  0  0  0  0  0  0  0  0  0  0  0
   -5.4174    6.2014  -19.8855 N   0  0  0  0  0  0  0  0  0  0  0  0
   -5.8773    5.4669  -18.8498 C   0  0  0  0  0  0  0  0  0  0  0  0
   -7.1914    5.2519  -18.5146 C   0  0  0  0  0  0  0  0  0  0  0  0
   -7.1488    4.8034  -17.2290 N   0  0  0  0  0  0  0  0  0  0  0  0
   -8.2017    4.7952  -16.3764 N   0  0  0  0  0  0  0  0  0  0  0  0
   -7.8273    4.5804  -15.1583 C   0  0  0  0  0  0  0  0  0  0  0  0
   -8.9948    4.8653  -13.9489 Cl  0  0  0  0  0  0  0  0  0  0  0  0
   -6.4656    4.2253  -14.7002 C   0  0  0  0  0  0  0  0  0  0  0  0
   -5.4820    4.3010  -15.5942 C   0  0  0  0  0  0  0  0  0  0  0  0
   -5.8066    4.6687  -16.9092 C   0  0  0  0  0  0  0  0  0  0  0  0
   -5.0225    5.0144  -17.8993 N   0  0  0  0  0  0  0  0  0  0  0  0
   -3.9571    7.5799  -21.4408 C   0  0  1  0  0  0  0  0  0  0  0  0
   -2.5153    7.1913  -22.7230 Br  0  0  0  0  0  0  0  0  0  0  0  0
   -5.2115    7.9417  -22.1997 C   0  0  0  0  0  0  0  0  0  0  0  0
   -5.7936    6.9168  -22.9837 O   0  0  0  0  0  0  0  0  0  0  0  0
  1  2  2  0
  2  3  1  0
  3  4  1  0
  4  5  2  0
  5  6  1  0
  6  7  1  0
  7  8  2  0
  8  9  1  0
  8 10  1  0
 10 11  2  0
 11 12  1  0
 12 13  2  0
  2 14  1  0
 14 15  1  6
 14 16  1  0
 16 17  1  0
 13  4  1  0
 12  6  1  0
M  END
>  <energy_score>  (4080) 
-14.346131

>  <alias>  (4080) 
SNSGSRWPIJKSRT-UHFFFAOYSA-N-P35-P35-P86-601528

>  <HIPPO Pose ID>  (4080) 
82005

>  <smiles>  (4080) 
O=C(Nc1cn2nc(Cl)ccc2n1)C(Br)CO

>  <inchikey>  (4080) 
SNSGSRWPIJKSRT-UHFFFAOYSA-N

>  <distance_score>  (4080) 
1.982556

>  <ref_mols>  (4080) 
Z0719a,Z1597a

>  <ref_pdb>  (4080) 
Z0719a

>  <HIPPO Compound ID>  (4080) 
151788

>  <name>  (4080) 
SNSGSRWPIJKSRT-UHFFFAOYSA-N-P35-P35-P86-601528

>  <inspiration_score>  (4080) 
None

$$$$
JXXUUFNPUJWKGK-UHFFFAOYSA-N-P35-P35-P86-601528
     RDKit          3D

 17 18  0  0  0  0  0  0  0  0999 V2000
   -4.9396    2.4934  -13.3083 C   0  0  0  0  0  0  0  0  0  0  0  0
   -4.7001    3.0814  -11.9293 C   0  0  0  0  0  0  0  0  0  0  0  0
   -5.0214    4.4854  -11.9157 O   0  0  0  0  0  0  0  0  0  0  0  0
   -5.9132    4.9453  -10.9894 C   0  0  0  0  0  0  0  0  0  0  0  0
   -5.6241    5.8398  -10.2020 O   0  0  0  0  0  0  0  0  0  0  0  0
   -7.1580    4.2380  -10.9692 C   0  0  0  0  0  0  0  0  0  0  0  0
   -7.7421    3.8100   -9.7954 N   0  0  0  0  0  0  0  0  0  0  0  0
   -8.7599    2.9690  -10.1248 C   0  0  0  0  0  0  0  0  0  0  0  0
   -8.9348    2.9241  -11.4238 N   0  0  0  0  0  0  0  0  0  0  0  0
   -8.0002    3.7619  -11.9500 C   0  0  0  0  0  0  0  0  0  0  0  0
   -7.9780    3.9137  -13.2982 N   0  0  0  0  0  0  0  0  0  0  0  0
   -7.2333    4.9445  -14.1830 C   0  0  0  0  0  0  0  0  0  0  0  0
   -6.5838    5.8723  -13.8843 O   0  0  0  0  0  0  0  0  0  0  0  0
   -7.3846    4.4910  -15.6589 C   0  0  0  0  0  0  0  0  0  0  0  0
   -6.8506    5.4246  -16.7806 C   0  0  0  0  0  0  0  0  0  0  0  0
   -7.9704    4.8642  -17.6754 C   0  0  0  0  0  0  0  0  0  0  0  0
   -8.7530    4.5779  -16.3727 C   0  0  0  0  0  0  0  0  0  0  0  0
  1  2  1  0
  2  3  1  0
  3  4  1  0
  4  5  2  0
  4  6  1  0
  6  7  1  0
  7  8  1  0
  8  9  2  0
  9 10  1  0
 10 11  1  0
 11 12  1  0
 12 13  2  0
 12 14  1  0
 14 15  1  0
 15 16  1  0
 16 17  1  0
 10  6  2  0
 17 14  1  0
M  END
>  <energy_score>  (4081) 
-17.169451

>  <alias>  (4081) 
JXXUUFNPUJWKGK-UHFFFAOYSA-N-P35-P35-P86-601528

>  <HIPPO Pose ID>  (4081) 
82009

>  <smiles>  (4081) 
CCOC(=O)c1[nH]cnc1NC(=O)C1CCC1

>  <inchikey>  (4081) 
JXXUUFNPUJWKGK-UHFFFAOYSA-N

>  <distance_score>  (4081) 
1.381121

>  <ref_mols>  (4081) 
Z0719a,Z1597a

>  <ref_pdb>  (4081) 
Z0719a

>  <HIPPO Compound ID>  (4081) 
151790

>  <name>  (4081) 
JXXUUFNPUJWKGK-UHFFFAOYSA-N-P35-P35-P86-601528

>  <inspiration_score>  (4081) 
None

$$$$
HOFLVSHPZKRIFM-UHFFFAOYSA-N-P35-P35-P86-601528
     RDKit          3D

 17 17  0  0  0  0  0  0  0  0999 V2000
   -7.1123    3.4947  -13.5642 C   0  0  0  0  0  0  0  0  0  0  0  0
   -6.5275    4.8953  -13.6102 C   0  0  0  0  0  0  0  0  0  0  0  0
   -6.2194    5.4427  -15.0132 C   0  0  0  0  0  0  0  0  0  0  0  0
   -7.2578    5.3865  -16.0063 N   0  0  0  0  0  0  0  0  0  0  0  0
   -8.6046    5.3879  -15.7499 C   0  0  0  0  0  0  0  0  0  0  0  0
   -9.2098    6.0773  -14.5878 C   0  0  0  0  0  0  0  0  0  0  0  0
   -9.2353    4.7432  -16.7042 N   0  0  0  0  0  0  0  0  0  0  0  0
   -8.3201    4.6192  -17.7177 C   0  0  0  0  0  0  0  0  0  0  0  0
   -8.7703    4.1003  -19.0075 C   0  0  0  0  0  0  0  0  0  0  0  0
   -7.1110    5.1741  -17.3529 C   0  0  0  0  0  0  0  0  0  0  0  0
   -6.0453    5.5068  -18.1417 N   0  0  0  0  0  0  0  0  0  0  0  0
   -4.8151    6.4224  -17.8496 C   0  0  0  0  0  0  0  0  0  0  0  0
   -4.4906    6.9668  -16.8627 O   0  0  0  0  0  0  0  0  0  0  0  0
   -3.9890    6.6021  -19.1334 C   0  0  1  0  0  0  0  0  0  0  0  0
   -2.9564    4.9654  -19.3719 Br  0  0  0  0  0  0  0  0  0  0  0  0
   -4.7291    6.9765  -20.4104 C   0  0  0  0  0  0  0  0  0  0  0  0
   -5.0095    8.3794  -20.4276 O   0  0  0  0  0  0  0  0  0  0  0  0
  1  2  1  0
  2  3  1  0
  3  4  1  0
  4  5  1  0
  5  6  1  0
  5  7  2  0
  7  8  1  0
  8  9  1  0
  8 10  2  0
 10 11  1  0
 11 12  1  0
 12 13  2  0
 12 14  1  0
 14 15  1  6
 14 16  1  0
 16 17  1  0
 10  4  1  0
M  END
>  <energy_score>  (4082) 
-17.086322

>  <alias>  (4082) 
HOFLVSHPZKRIFM-UHFFFAOYSA-N-P35-P35-P86-601528

>  <HIPPO Pose ID>  (4082) 
82019

>  <smiles>  (4082) 
CCCn1c(C)nc(C)c1NC(=O)C(Br)CO

>  <inchikey>  (4082) 
HOFLVSHPZKRIFM-UHFFFAOYSA-N

>  <distance_score>  (4082) 
1.620307

>  <ref_mols>  (4082) 
Z0719a,Z1597a

>  <ref_pdb>  (4082) 
Z0719a

>  <HIPPO Compound ID>  (4082) 
151795

>  <name>  (4082) 
HOFLVSHPZKRIFM-UHFFFAOYSA-N-P35-P35-P86-601528

>  <inspiration_score>  (4082) 
None

$$$$
KQLNABALVRRXOY-UHFFFAOYSA-N-P86-P35-P86-601528
     RDKit          3D

 17 18  0  0  0  0  0  0  0  0999 V2000
   -8.4336    5.8739   -9.2744 C   0  0  0  0  0  0  0  0  0  0  0  0
   -8.1075    5.0325  -10.4438 C   0  0  0  0  0  0  0  0  0  0  0  0
   -8.4972    5.2537  -11.6909 N   0  0  0  0  0  0  0  0  0  0  0  0
   -7.8277    4.3423  -12.4427 C   0  0  0  0  0  0  0  0  0  0  0  0
   -7.9447    4.1499  -13.7772 N   0  0  0  0  0  0  0  0  0  0  0  0
   -8.7171    4.9494  -14.8375 C   0  0  0  0  0  0  0  0  0  0  0  0
   -9.4391    5.8573  -14.7219 O   0  0  0  0  0  0  0  0  0  0  0  0
   -8.3439    4.2642  -16.1915 C   0  0  0  0  0  0  0  0  0  0  0  0
   -7.2092    4.9647  -16.9772 C   0  0  0  0  0  0  0  0  0  0  0  0
   -7.8925    4.3613  -18.5304 S   0  0  0  0  0  0  0  0  0  0  0  0
   -9.3092    4.2409  -17.3895 C   0  0  0  0  0  0  0  0  0  0  0  0
   -6.9612    3.6369  -11.6622 C   0  0  0  0  0  0  0  0  0  0  0  0
   -5.8479    2.8876  -12.0937 N   0  0  0  0  0  0  0  0  0  0  0  0
   -5.4108    3.1691  -13.2203 O   0  0  0  0  0  0  0  0  0  0  0  0
   -5.3480    2.0779  -11.3059 O   0  0  0  0  0  0  0  0  0  0  0  0
   -7.2771    3.9351  -10.3746 N   0  0  0  0  0  0  0  0  0  0  0  0
   -6.8046    3.2894   -9.1787 C   0  0  0  0  0  0  0  0  0  0  0  0
  1  2  1  0
  2  3  2  0
  3  4  1  0
  4  5  1  0
  5  6  1  0
  6  7  2  0
  6  8  1  0
  8  9  1  0
  9 10  1  0
 10 11  1  0
  4 12  2  0
 12 13  1  0
 13 14  2  0
 13 15  1  0
 12 16  1  0
 16 17  1  0
 16  2  1  0
 11  8  1  0
M  CHG  2  13   1  15  -1
M  END
>  <energy_score>  (4083) 
-24.320697

>  <alias>  (4083) 
KQLNABALVRRXOY-UHFFFAOYSA-N-P86-P35-P86-601528

>  <HIPPO Pose ID>  (4083) 
82026

>  <smiles>  (4083) 
Cc1nc(NC(=O)C2CSC2)c([N+](=O)[O-])n1C

>  <inchikey>  (4083) 
KQLNABALVRRXOY-UHFFFAOYSA-N

>  <distance_score>  (4083) 
1.477928

>  <ref_mols>  (4083) 
Z0719a,Z1597a

>  <ref_pdb>  (4083) 
Z0719a

>  <HIPPO Compound ID>  (4083) 
151798

>  <name>  (4083) 
KQLNABALVRRXOY-UHFFFAOYSA-N-P86-P35-P86-601528

>  <inspiration_score>  (4083) 
None

$$$$
NLRHKRFPANZQIL-UHFFFAOYSA-N-P35-P35-P86-601528
     RDKit          3D

 17 18  0  0  0  0  0  0  0  0999 V2000
   -8.5513    7.2739  -12.0480 C   0  0  0  0  0  0  0  0  0  0  0  0
   -7.9307    5.9686  -11.7536 C   0  0  0  0  0  0  0  0  0  0  0  0
   -7.7938    5.5407  -10.4509 N   0  0  0  0  0  0  0  0  0  0  0  0
   -7.2777    4.3252  -10.5122 C   0  0  0  0  0  0  0  0  0  0  0  0
   -7.1381    3.4154   -9.3547 C   0  0  0  0  0  0  0  0  0  0  0  0
   -6.8844    4.0513  -11.8002 N   0  0  0  0  0  0  0  0  0  0  0  0
   -5.8772    3.1322  -12.3270 C   0  0  0  0  0  0  0  0  0  0  0  0
   -6.4882    1.8267  -12.7618 C   0  0  0  0  0  0  0  0  0  0  0  0
   -4.6504    2.8995  -11.4551 C   0  0  0  0  0  0  0  0  0  0  0  0
   -7.5053    4.9800  -12.6086 C   0  0  0  0  0  0  0  0  0  0  0  0
   -7.5459    4.7825  -13.9531 N   0  0  0  0  0  0  0  0  0  0  0  0
   -7.6012    5.7911  -15.1081 C   0  0  0  0  0  0  0  0  0  0  0  0
   -7.6984    6.9519  -15.0931 O   0  0  0  0  0  0  0  0  0  0  0  0
   -7.4582    4.9263  -16.3938 C   0  0  0  0  0  0  0  0  0  0  0  0
   -7.0312    5.6123  -17.7091 C   0  0  0  0  0  0  0  0  0  0  0  0
   -8.0065    4.3820  -18.6242 S   0  0  0  0  0  0  0  0  0  0  0  0
   -8.7997    4.4319  -16.9999 C   0  0  0  0  0  0  0  0  0  0  0  0
  1  2  1  0
  2  3  1  0
  3  4  2  0
  4  5  1  0
  4  6  1  0
  6  7  1  0
  7  8  1  0
  7  9  1  0
  6 10  1  0
 10 11  1  0
 11 12  1  0
 12 13  2  0
 12 14  1  0
 14 15  1  0
 15 16  1  0
 16 17  1  0
 10  2  2  0
 17 14  1  0
M  END
>  <energy_score>  (4084) 
-21.411241

>  <alias>  (4084) 
NLRHKRFPANZQIL-UHFFFAOYSA-N-P35-P35-P86-601528

>  <HIPPO Pose ID>  (4084) 
82029

>  <smiles>  (4084) 
Cc1nc(C)n(C(C)C)c1NC(=O)C1CSC1

>  <inchikey>  (4084) 
NLRHKRFPANZQIL-UHFFFAOYSA-N

>  <distance_score>  (4084) 
1.25848

>  <ref_mols>  (4084) 
Z0719a,Z1597a

>  <ref_pdb>  (4084) 
Z0719a

>  <HIPPO Compound ID>  (4084) 
151800

>  <name>  (4084) 
NLRHKRFPANZQIL-UHFFFAOYSA-N-P35-P35-P86-601528

>  <inspiration_score>  (4084) 
None

$$$$
ZLWOPCRJDCJTSC-UHFFFAOYSA-N-P86-P35-P86-601528
     RDKit          3D

 17 17  0  0  0  0  0  0  0  0999 V2000
   -8.5498    3.9660  -18.7661 C   0  0  0  0  0  0  0  0  0  0  0  0
   -8.1156    4.3139  -17.4016 C   0  0  0  0  0  0  0  0  0  0  0  0
   -8.9523    4.0719  -16.3520 N   0  0  0  0  0  0  0  0  0  0  0  0
   -8.3177    4.5047  -15.2859 C   0  0  0  0  0  0  0  0  0  0  0  0
   -8.8307    4.4335  -13.9003 C   0  0  0  0  0  0  0  0  0  0  0  0
   -7.0723    5.0089  -15.6087 N   0  0  0  0  0  0  0  0  0  0  0  0
   -6.0642    5.3782  -14.6265 C   0  0  0  0  0  0  0  0  0  0  0  0
   -5.9393    4.4468  -13.4119 C   0  0  0  0  0  0  0  0  0  0  0  0
   -6.2436    6.8054  -14.1245 C   0  0  0  0  0  0  0  0  0  0  0  0
   -6.9543    4.9424  -16.9835 C   0  0  0  0  0  0  0  0  0  0  0  0
   -5.9594    5.3560  -17.8345 N   0  0  0  0  0  0  0  0  0  0  0  0
   -4.7920    6.3616  -17.6122 C   0  0  0  0  0  0  0  0  0  0  0  0
   -4.5459    7.0483  -16.6955 O   0  0  0  0  0  0  0  0  0  0  0  0
   -3.9485    6.4127  -18.9037 C   0  0  1  0  0  0  0  0  0  0  0  0
   -2.6791    4.9393  -18.8298 Br  0  0  0  0  0  0  0  0  0  0  0  0
   -4.7063    6.4292  -20.2314 C   0  0  0  0  0  0  0  0  0  0  0  0
   -5.4917    5.2482  -20.3969 O   0  0  0  0  0  0  0  0  0  0  0  0
  1  2  1  0
  2  3  1  0
  3  4  2  0
  4  5  1  0
  4  6  1  0
  6  7  1  0
  7  8  1  0
  7  9  1  0
  6 10  1  0
 10 11  1  0
 11 12  1  0
 12 13  2  0
 12 14  1  0
 14 15  1  6
 14 16  1  0
 16 17  1  0
 10  2  2  0
M  END
>  <energy_score>  (4085) 
-28.824041

>  <alias>  (4085) 
ZLWOPCRJDCJTSC-UHFFFAOYSA-N-P86-P35-P86-601528

>  <HIPPO Pose ID>  (4085) 
82036

>  <smiles>  (4085) 
Cc1nc(C)n(C(C)C)c1NC(=O)C(Br)CO

>  <inchikey>  (4085) 
ZLWOPCRJDCJTSC-UHFFFAOYSA-N

>  <distance_score>  (4085) 
1.614612

>  <ref_mols>  (4085) 
Z0719a,Z1597a

>  <ref_pdb>  (4085) 
Z0719a

>  <HIPPO Compound ID>  (4085) 
151803

>  <name>  (4085) 
ZLWOPCRJDCJTSC-UHFFFAOYSA-N-P86-P35-P86-601528

>  <inspiration_score>  (4085) 
None

$$$$
DARDCJFHBMSJMI-UHFFFAOYSA-N-P35-P35-P86-601528
     RDKit          3D

 17 18  0  0  0  0  0  0  0  0999 V2000
   -6.7653    4.5158  -18.9037 C   0  0  0  0  0  0  0  0  0  0  0  0
   -7.6738    5.3315  -18.0009 C   0  0  0  0  0  0  0  0  0  0  0  0
   -8.9313    4.5381  -17.6448 C   0  0  0  0  0  0  0  0  0  0  0  0
   -6.9090    5.8853  -16.7870 C   0  0  0  0  0  0  0  0  0  0  0  0
   -6.6489    4.8883  -15.6561 C   0  0  0  0  0  0  0  0  0  0  0  0
   -7.5209    4.4283  -15.0313 O   0  0  0  0  0  0  0  0  0  0  0  0
   -5.1125    4.7129  -15.5197 N   0  0  0  0  0  0  0  0  0  0  0  0
   -4.3792    4.0517  -14.5851 C   0  0  0  0  0  0  0  0  0  0  0  0
   -3.0107    4.2569  -14.5462 N   0  0  0  0  0  0  0  0  0  0  0  0
   -2.6243    3.5345  -13.5306 C   0  0  0  0  0  0  0  0  0  0  0  0
   -3.6426    2.8589  -12.9502 N   0  0  0  0  0  0  0  0  0  0  0  0
   -4.7850    3.1457  -13.6208 C   0  0  0  0  0  0  0  0  0  0  0  0
   -6.0185    2.5001  -13.3761 C   0  0  0  0  0  0  0  0  0  0  0  0
   -6.9190    1.8176  -13.1210 N   0  0  0  0  0  0  0  0  0  0  0  0
   -3.3189    1.9363  -11.8841 C   0  0  0  0  0  0  0  0  0  0  0  0
   -1.9245    2.3299  -11.3892 C   0  0  0  0  0  0  0  0  0  0  0  0
   -1.1098    3.2264  -12.7816 S   0  0  0  0  0  0  0  0  0  0  0  0
  1  2  1  0
  2  3  1  0
  2  4  1  0
  4  5  1  0
  5  6  2  0
  5  7  1  0
  7  8  1  0
  8  9  1  0
  9 10  2  0
 10 11  1  0
 11 12  1  0
 12 13  1  0
 13 14  3  0
 11 15  1  0
 15 16  1  0
 16 17  1  0
 12  8  2  0
 17 10  1  0
M  END
>  <energy_score>  (4086) 
-37.549779

>  <alias>  (4086) 
DARDCJFHBMSJMI-UHFFFAOYSA-N-P35-P35-P86-601528

>  <HIPPO Pose ID>  (4086) 
82053

>  <smiles>  (4086) 
CC(C)CC(=O)Nc1nc2n(c1C#N)CCS2

>  <inchikey>  (4086) 
DARDCJFHBMSJMI-UHFFFAOYSA-N

>  <distance_score>  (4086) 
1.446168

>  <ref_mols>  (4086) 
Z0719a,Z1597a

>  <ref_pdb>  (4086) 
Z0719a

>  <HIPPO Compound ID>  (4086) 
151812

>  <name>  (4086) 
DARDCJFHBMSJMI-UHFFFAOYSA-N-P35-P35-P86-601528

>  <inspiration_score>  (4086) 
None

$$$$
ZRWVJMZMKZQIFD-UHFFFAOYSA-N-P35-P35-P86-601528
     RDKit          3D

 17 18  0  0  0  0  0  0  0  0999 V2000
   -5.1887    2.5339  -13.3738 C   0  0  0  0  0  0  0  0  0  0  0  0
   -4.7086    2.9490  -11.9968 C   0  0  0  0  0  0  0  0  0  0  0  0
   -4.9502    4.3505  -11.7817 O   0  0  0  0  0  0  0  0  0  0  0  0
   -5.7157    4.7039  -10.7083 C   0  0  0  0  0  0  0  0  0  0  0  0
   -5.2915    5.4341   -9.8199 O   0  0  0  0  0  0  0  0  0  0  0  0
   -7.0050    4.0824  -10.6899 C   0  0  0  0  0  0  0  0  0  0  0  0
   -7.5070    3.4610   -9.5651 N   0  0  0  0  0  0  0  0  0  0  0  0
   -8.6452    2.8087   -9.9284 C   0  0  0  0  0  0  0  0  0  0  0  0
   -8.9477    3.0439  -11.1825 N   0  0  0  0  0  0  0  0  0  0  0  0
   -7.9836    3.8876  -11.6400 C   0  0  0  0  0  0  0  0  0  0  0  0
   -8.1263    4.3495  -12.9082 N   0  0  0  0  0  0  0  0  0  0  0  0
   -7.3559    5.4593  -13.6688 C   0  0  0  0  0  0  0  0  0  0  0  0
   -6.5289    6.2021  -13.2960 O   0  0  0  0  0  0  0  0  0  0  0  0
   -7.8374    5.5265  -15.1495 C   0  0  0  0  0  0  0  0  0  0  0  0
   -6.6850    5.8022  -16.1754 C   0  0  0  0  0  0  0  0  0  0  0  0
   -7.5915    4.8964  -17.4537 S   0  0  0  0  0  0  0  0  0  0  0  0
   -8.2237    4.2210  -15.8918 C   0  0  0  0  0  0  0  0  0  0  0  0
  1  2  1  0
  2  3  1  0
  3  4  1  0
  4  5  2  0
  4  6  1  0
  6  7  1  0
  7  8  1  0
  8  9  2  0
  9 10  1  0
 10 11  1  0
 11 12  1  0
 12 13  2  0
 12 14  1  0
 14 15  1  0
 15 16  1  0
 16 17  1  0
 10  6  2  0
 17 14  1  0
M  END
>  <energy_score>  (4087) 
-16.297831

>  <alias>  (4087) 
ZRWVJMZMKZQIFD-UHFFFAOYSA-N-P35-P35-P86-601528

>  <HIPPO Pose ID>  (4087) 
82059

>  <smiles>  (4087) 
CCOC(=O)c1[nH]cnc1NC(=O)C1CSC1

>  <inchikey>  (4087) 
ZRWVJMZMKZQIFD-UHFFFAOYSA-N

>  <distance_score>  (4087) 
1.508691

>  <ref_mols>  (4087) 
Z0719a,Z1597a

>  <ref_pdb>  (4087) 
Z0719a

>  <HIPPO Compound ID>  (4087) 
151815

>  <name>  (4087) 
ZRWVJMZMKZQIFD-UHFFFAOYSA-N-P35-P35-P86-601528

>  <inspiration_score>  (4087) 
None

$$$$
WTEKPFWZARFVIQ-UHFFFAOYSA-N-P86-P35-P86-601528
     RDKit          3D

 17 18  0  0  0  0  0  0  0  0999 V2000
   -8.4455    3.9416  -19.0923 C   0  0  0  0  0  0  0  0  0  0  0  0
   -8.0362    4.3640  -17.7503 C   0  0  0  0  0  0  0  0  0  0  0  0
   -8.8105    3.9881  -16.6866 N   0  0  0  0  0  0  0  0  0  0  0  0
   -8.1953    4.5108  -15.6567 C   0  0  0  0  0  0  0  0  0  0  0  0
   -8.6079    4.4933  -14.2876 C   0  0  0  0  0  0  0  0  0  0  0  0
   -7.9004    5.0201  -13.3262 N   0  0  0  0  0  0  0  0  0  0  0  0
   -6.6809    5.5450  -13.6785 C   0  0  0  0  0  0  0  0  0  0  0  0
   -6.2387    5.6368  -14.9433 C   0  0  0  0  0  0  0  0  0  0  0  0
   -7.0256    5.1575  -15.9810 N   0  0  0  0  0  0  0  0  0  0  0  0
   -6.9786    5.1796  -17.3653 C   0  0  0  0  0  0  0  0  0  0  0  0
   -6.1603    5.8905  -18.2129 N   0  0  0  0  0  0  0  0  0  0  0  0
   -5.0824    6.9648  -17.9074 C   0  0  0  0  0  0  0  0  0  0  0  0
   -4.6701    7.3547  -16.8860 O   0  0  0  0  0  0  0  0  0  0  0  0
   -4.6484    7.5922  -19.2345 C   0  0  0  0  0  0  0  0  0  0  0  0
   -3.8885    6.7347  -20.2577 C   0  0  0  0  0  0  0  0  0  0  0  0
   -4.7965    6.1602  -21.3376 C   0  0  0  0  0  0  0  0  0  0  0  0
   -3.0187    5.6500  -19.6262 C   0  0  0  0  0  0  0  0  0  0  0  0
  1  2  1  0
  2  3  1  0
  3  4  2  0
  4  5  1  0
  5  6  2  0
  6  7  1  0
  7  8  2  0
  8  9  1  0
  9 10  1  0
 10 11  1  0
 11 12  1  0
 12 13  2  0
 12 14  1  0
 14 15  1  0
 15 16  1  0
 15 17  1  0
 10  2  2  0
  9  4  1  0
M  END
>  <energy_score>  (4088) 
-26.655638

>  <alias>  (4088) 
WTEKPFWZARFVIQ-UHFFFAOYSA-N-P86-P35-P86-601528

>  <HIPPO Pose ID>  (4088) 
82062

>  <smiles>  (4088) 
Cc1nc2cnccn2c1NC(=O)CC(C)C

>  <inchikey>  (4088) 
WTEKPFWZARFVIQ-UHFFFAOYSA-N

>  <distance_score>  (4088) 
1.813659

>  <ref_mols>  (4088) 
Z0719a,Z1597a

>  <ref_pdb>  (4088) 
Z0719a

>  <HIPPO Compound ID>  (4088) 
151816

>  <name>  (4088) 
WTEKPFWZARFVIQ-UHFFFAOYSA-N-P86-P35-P86-601528

>  <inspiration_score>  (4088) 
None

$$$$
URNYEVRHGIFLAQ-UHFFFAOYSA-N-P86-P35-P86-601528
     RDKit          3D

 17 18  0  0  0  0  0  0  0  0999 V2000
   -5.1513    8.6765  -21.8057 C   0  0  0  0  0  0  0  0  0  0  0  0
   -3.9632    7.8977  -22.3502 C   0  0  0  0  0  0  0  0  0  0  0  0
   -2.6520    8.4549  -21.7930 C   0  0  0  0  0  0  0  0  0  0  0  0
   -4.1197    6.3869  -22.1814 C   0  0  0  0  0  0  0  0  0  0  0  0
   -4.0296    5.9323  -20.7343 C   0  0  0  0  0  0  0  0  0  0  0  0
   -3.0244    6.0156  -20.1419 O   0  0  0  0  0  0  0  0  0  0  0  0
   -5.4447    5.4942  -20.2611 N   0  0  0  0  0  0  0  0  0  0  0  0
   -5.8994    5.1827  -19.0275 C   0  0  0  0  0  0  0  0  0  0  0  0
   -7.1662    4.8186  -18.6336 C   0  0  0  0  0  0  0  0  0  0  0  0
   -7.1053    4.7751  -17.2683 N   0  0  0  0  0  0  0  0  0  0  0  0
   -8.1491    4.6034  -16.4156 N   0  0  0  0  0  0  0  0  0  0  0  0
   -7.7819    4.7211  -15.1795 C   0  0  0  0  0  0  0  0  0  0  0  0
   -9.0014    4.6957  -13.9895 Cl  0  0  0  0  0  0  0  0  0  0  0  0
   -6.4107    4.9542  -14.6743 C   0  0  0  0  0  0  0  0  0  0  0  0
   -5.4529    5.1508  -15.5737 C   0  0  0  0  0  0  0  0  0  0  0  0
   -5.7979    5.0884  -16.9297 C   0  0  0  0  0  0  0  0  0  0  0  0
   -5.0527    5.3059  -17.9773 N   0  0  0  0  0  0  0  0  0  0  0  0
  1  2  1  0
  2  3  1  0
  2  4  1  0
  4  5  1  0
  5  6  2  0
  5  7  1  0
  7  8  1  0
  8  9  2  0
  9 10  1  0
 10 11  1  0
 11 12  2  0
 12 13  1  0
 12 14  1  0
 14 15  2  0
 15 16  1  0
 16 17  2  0
 17  8  1  0
 16 10  1  0
M  END
>  <energy_score>  (4089) 
-24.992811

>  <alias>  (4089) 
URNYEVRHGIFLAQ-UHFFFAOYSA-N-P86-P35-P86-601528

>  <HIPPO Pose ID>  (4089) 
82078

>  <smiles>  (4089) 
CC(C)CC(=O)Nc1cn2nc(Cl)ccc2n1

>  <inchikey>  (4089) 
URNYEVRHGIFLAQ-UHFFFAOYSA-N

>  <distance_score>  (4089) 
1.926203

>  <ref_mols>  (4089) 
Z0719a,Z1597a

>  <ref_pdb>  (4089) 
Z0719a

>  <HIPPO Compound ID>  (4089) 
151824

>  <name>  (4089) 
URNYEVRHGIFLAQ-UHFFFAOYSA-N-P86-P35-P86-601528

>  <inspiration_score>  (4089) 
None

$$$$
LDMPHEZHVNLQGE-UHFFFAOYSA-N-P35-P35-P86-601528
     RDKit          3D

 17 18  0  0  0  0  0  0  0  0999 V2000
   -4.1766    7.0976  -20.4556 C   0  0  0  0  0  0  0  0  0  0  0  0
   -3.1899    6.4872  -19.4746 C   0  0  2  0  0  0  0  0  0  0  0  0
   -1.9821    5.4563  -20.4146 S   0  0  0  0  0  0  0  0  0  0  0  0
   -3.6871    5.6450  -18.2576 C   0  0  0  0  0  0  0  0  0  0  0  0
   -2.9011    5.0821  -17.5959 O   0  0  0  0  0  0  0  0  0  0  0  0
   -5.2227    5.7989  -18.0842 N   0  0  0  0  0  0  0  0  0  0  0  0
   -6.0661    5.2498  -17.1745 C   0  0  0  0  0  0  0  0  0  0  0  0
   -7.4037    5.4895  -17.3250 N   0  0  0  0  0  0  0  0  0  0  0  0
   -7.9755    4.9009  -16.2987 C   0  0  0  0  0  0  0  0  0  0  0  0
   -7.0565    4.3252  -15.4863 N   0  0  0  0  0  0  0  0  0  0  0  0
   -5.8288    4.5270  -16.0315 C   0  0  0  0  0  0  0  0  0  0  0  0
   -4.6519    4.0864  -15.3963 C   0  0  0  0  0  0  0  0  0  0  0  0
   -3.8265    3.6349  -14.7214 N   0  0  0  0  0  0  0  0  0  0  0  0
   -7.4342    3.8133  -14.1819 C   0  0  0  0  0  0  0  0  0  0  0  0
   -8.4946    4.7223  -13.5758 C   0  0  0  0  0  0  0  0  0  0  0  0
   -9.4511    5.2833  -14.4886 O   0  0  0  0  0  0  0  0  0  0  0  0
   -9.3707    4.8462  -15.8644 C   0  0  0  0  0  0  0  0  0  0  0  0
  2  1  1  6
  2  3  1  0
  2  4  1  0
  4  5  2  0
  4  6  1  0
  6  7  1  0
  7  8  1  0
  8  9  2  0
  9 10  1  0
 10 11  1  0
 11 12  1  0
 12 13  3  0
 10 14  1  0
 14 15  1  0
 15 16  1  0
 16 17  1  0
 11  7  2  0
 17  9  1  0
M  END
>  <energy_score>  (4090) 
-15.343964

>  <alias>  (4090) 
LDMPHEZHVNLQGE-UHFFFAOYSA-N-P35-P35-P86-601528

>  <HIPPO Pose ID>  (4090) 
82081

>  <smiles>  (4090) 
CC(S)C(=O)Nc1nc2n(c1C#N)CCOC2

>  <inchikey>  (4090) 
LDMPHEZHVNLQGE-UHFFFAOYSA-N

>  <distance_score>  (4090) 
1.879766

>  <ref_mols>  (4090) 
Z0719a,Z1597a

>  <ref_pdb>  (4090) 
Z0719a

>  <HIPPO Compound ID>  (4090) 
151826

>  <name>  (4090) 
LDMPHEZHVNLQGE-UHFFFAOYSA-N-P35-P35-P86-601528

>  <inspiration_score>  (4090) 
None

$$$$
NJGOPHVJTDKMDF-UHFFFAOYSA-N-P35-P35-P86-601528
     RDKit          3D

 17 19  0  0  0  0  0  0  0  0999 V2000
   -3.1218    6.6763  -19.8100 O   0  0  0  0  0  0  0  0  0  0  0  0
   -4.1392    6.7151  -20.3803 C   0  0  0  0  0  0  0  0  0  0  0  0
   -5.5390    6.2253  -19.9613 N   0  0  0  0  0  0  0  0  0  0  0  0
   -5.9387    5.5444  -18.8652 C   0  0  0  0  0  0  0  0  0  0  0  0
   -7.2212    5.1679  -18.5444 C   0  0  0  0  0  0  0  0  0  0  0  0
   -7.1506    4.7998  -17.2348 N   0  0  0  0  0  0  0  0  0  0  0  0
   -8.2036    4.7201  -16.3844 N   0  0  0  0  0  0  0  0  0  0  0  0
   -7.8136    4.5705  -15.1611 C   0  0  0  0  0  0  0  0  0  0  0  0
   -8.9901    4.8157  -13.9517 Cl  0  0  0  0  0  0  0  0  0  0  0  0
   -6.4310    4.3162  -14.6965 C   0  0  0  0  0  0  0  0  0  0  0  0
   -5.4535    4.4612  -15.5881 C   0  0  0  0  0  0  0  0  0  0  0  0
   -5.8048    4.8065  -16.9014 C   0  0  0  0  0  0  0  0  0  0  0  0
   -5.0547    5.2446  -17.8797 N   0  0  0  0  0  0  0  0  0  0  0  0
   -4.2155    7.4019  -21.7082 C   0  0  0  0  0  0  0  0  0  0  0  0
   -5.4176    7.2421  -22.3824 F   0  0  0  0  0  0  0  0  0  0  0  0
   -3.5662    8.7488  -21.9066 C   0  0  0  0  0  0  0  0  0  0  0  0
   -3.0032    7.5380  -22.5945 C   0  0  0  0  0  0  0  0  0  0  0  0
  1  2  2  0
  2  3  1  0
  3  4  1  0
  4  5  2  0
  5  6  1  0
  6  7  1  0
  7  8  2  0
  8  9  1  0
  8 10  1  0
 10 11  2  0
 11 12  1  0
 12 13  2  0
  2 14  1  0
 14 15  1  0
 14 16  1  0
 16 17  1  0
 13  4  1  0
 17 14  1  0
 12  6  1  0
M  END
>  <energy_score>  (4091) 
-26.491478

>  <alias>  (4091) 
NJGOPHVJTDKMDF-UHFFFAOYSA-N-P35-P35-P86-601528

>  <HIPPO Pose ID>  (4091) 
82087

>  <smiles>  (4091) 
O=C(Nc1cn2nc(Cl)ccc2n1)C1(F)CC1

>  <inchikey>  (4091) 
NJGOPHVJTDKMDF-UHFFFAOYSA-N

>  <distance_score>  (4091) 
1.965013

>  <ref_mols>  (4091) 
Z0719a,Z1597a

>  <ref_pdb>  (4091) 
Z0719a

>  <HIPPO Compound ID>  (4091) 
151829

>  <name>  (4091) 
NJGOPHVJTDKMDF-UHFFFAOYSA-N-P35-P35-P86-601528

>  <inspiration_score>  (4091) 
None

$$$$
VDJCFDQMQRMOIV-UHFFFAOYSA-N-P86-P35-P86-601528
     RDKit          3D

 17 18  0  0  0  0  0  0  0  0999 V2000
   -8.1281    7.4339  -12.2849 C   0  0  0  0  0  0  0  0  0  0  0  0
   -7.6569    6.0886  -11.9070 C   0  0  0  0  0  0  0  0  0  0  0  0
   -7.8127    5.6612  -10.6127 N   0  0  0  0  0  0  0  0  0  0  0  0
   -7.4041    4.4087  -10.5816 C   0  0  0  0  0  0  0  0  0  0  0  0
   -7.4943    3.5565   -9.3729 C   0  0  0  0  0  0  0  0  0  0  0  0
   -6.8802    4.0416  -11.8077 N   0  0  0  0  0  0  0  0  0  0  0  0
   -6.0650    2.8776  -12.1498 C   0  0  0  0  0  0  0  0  0  0  0  0
   -4.6136    3.0062  -11.7022 C   0  0  0  0  0  0  0  0  0  0  0  0
   -6.6854    1.5759  -11.7105 C   0  0  0  0  0  0  0  0  0  0  0  0
   -7.1247    5.0822  -12.6843 C   0  0  0  0  0  0  0  0  0  0  0  0
   -6.8332    4.9829  -14.0163 N   0  0  0  0  0  0  0  0  0  0  0  0
   -6.4153    6.0573  -15.0277 C   0  0  0  0  0  0  0  0  0  0  0  0
   -6.3258    7.2115  -14.9092 O   0  0  0  0  0  0  0  0  0  0  0  0
   -6.0736    5.3610  -16.3117 C   0  0  0  0  0  0  0  0  0  0  0  0
   -4.8785    4.6447  -16.2761 F   0  0  0  0  0  0  0  0  0  0  0  0
   -6.4473    5.8369  -17.6818 C   0  0  0  0  0  0  0  0  0  0  0  0
   -7.2252    4.7161  -17.0669 C   0  0  0  0  0  0  0  0  0  0  0  0
  1  2  1  0
  2  3  1  0
  3  4  2  0
  4  5  1  0
  4  6  1  0
  6  7  1  0
  7  8  1  0
  7  9  1  0
  6 10  1  0
 10 11  1  0
 11 12  1  0
 12 13  2  0
 12 14  1  0
 14 15  1  0
 14 16  1  0
 16 17  1  0
 10  2  2  0
 17 14  1  0
M  END
>  <energy_score>  (4092) 
-2.525373

>  <alias>  (4092) 
VDJCFDQMQRMOIV-UHFFFAOYSA-N-P86-P35-P86-601528

>  <HIPPO Pose ID>  (4092) 
82090

>  <smiles>  (4092) 
Cc1nc(C)n(C(C)C)c1NC(=O)C1(F)CC1

>  <inchikey>  (4092) 
VDJCFDQMQRMOIV-UHFFFAOYSA-N

>  <distance_score>  (4092) 
1.642599

>  <ref_mols>  (4092) 
Z0719a,Z1597a

>  <ref_pdb>  (4092) 
Z0719a

>  <HIPPO Compound ID>  (4092) 
151830

>  <name>  (4092) 
VDJCFDQMQRMOIV-UHFFFAOYSA-N-P86-P35-P86-601528

>  <inspiration_score>  (4092) 
None

$$$$
FFPSNNXOCQMITR-UHFFFAOYSA-N-P86-P35-P86-601528
     RDKit          3D

 17 18  0  0  0  0  0  0  0  0999 V2000
   -7.4070    6.2445  -14.8903 O   0  0  0  0  0  0  0  0  0  0  0  0
   -7.9367    5.2251  -15.0854 C   0  0  0  0  0  0  0  0  0  0  0  0
   -8.4996    4.1907  -14.1000 N   0  0  0  0  0  0  0  0  0  0  0  0
   -8.4504    4.1462  -12.7521 C   0  0  0  0  0  0  0  0  0  0  0  0
   -7.9100    5.0871  -11.9191 C   0  0  0  0  0  0  0  0  0  0  0  0
   -7.7111    4.3903  -10.7566 N   0  0  0  0  0  0  0  0  0  0  0  0
   -6.5860    4.6409   -9.8963 C   0  0  0  0  0  0  0  0  0  0  0  0
   -5.3200    4.0472  -10.5166 C   0  0  0  0  0  0  0  0  0  0  0  0
   -5.1765    2.7420  -10.2006 F   0  0  0  0  0  0  0  0  0  0  0  0
   -4.2313    4.6912  -10.0176 F   0  0  0  0  0  0  0  0  0  0  0  0
   -5.2596    4.1600  -11.8726 F   0  0  0  0  0  0  0  0  0  0  0  0
   -8.3901    3.2117  -10.8391 C   0  0  0  0  0  0  0  0  0  0  0  0
   -8.8373    3.0380  -12.0619 N   0  0  0  0  0  0  0  0  0  0  0  0
   -8.1512    4.7516  -16.5006 C   0  0  0  0  0  0  0  0  0  0  0  0
   -9.3950    4.0491  -16.7250 O   0  0  0  0  0  0  0  0  0  0  0  0
   -6.9815    4.2270  -17.2855 C   0  0  0  0  0  0  0  0  0  0  0  0
   -7.5800    5.5047  -17.6926 C   0  0  0  0  0  0  0  0  0  0  0  0
  1  2  2  0
  2  3  1  0
  3  4  1  0
  4  5  2  0
  5  6  1  0
  6  7  1  0
  7  8  1  0
  8  9  1  0
  8 10  1  0
  8 11  1  0
  6 12  1  0
 12 13  2  0
  2 14  1  0
 14 15  1  0
 14 16  1  0
 16 17  1  0
 13  4  1  0
 17 14  1  0
M  END
>  <energy_score>  (4093) 
-28.573184

>  <alias>  (4093) 
FFPSNNXOCQMITR-UHFFFAOYSA-N-P86-P35-P86-601528

>  <HIPPO Pose ID>  (4093) 
82106

>  <smiles>  (4093) 
O=C(Nc1cn(CC(F)(F)F)cn1)C1(O)CC1

>  <inchikey>  (4093) 
FFPSNNXOCQMITR-UHFFFAOYSA-N

>  <distance_score>  (4093) 
1.388392

>  <ref_mols>  (4093) 
Z0719a,Z1597a

>  <ref_pdb>  (4093) 
Z0719a

>  <HIPPO Compound ID>  (4093) 
151838

>  <name>  (4093) 
FFPSNNXOCQMITR-UHFFFAOYSA-N-P86-P35-P86-601528

>  <inspiration_score>  (4093) 
None

$$$$
WRTYIRICHPNJOY-UHFFFAOYSA-N-P86-P35-P86-601528
     RDKit          3D

 17 18  0  0  0  0  0  0  0  0999 V2000
   -4.0401    5.2619  -12.3170 C   0  0  0  0  0  0  0  0  0  0  0  0
   -5.2032    4.4840  -12.0515 O   0  0  0  0  0  0  0  0  0  0  0  0
   -6.0318    5.0198  -11.1144 C   0  0  0  0  0  0  0  0  0  0  0  0
   -5.7751    6.0091  -10.4360 O   0  0  0  0  0  0  0  0  0  0  0  0
   -7.1951    4.1989  -10.9720 C   0  0  0  0  0  0  0  0  0  0  0  0
   -8.0585    3.6204  -11.8772 C   0  0  0  0  0  0  0  0  0  0  0  0
   -8.3088    3.8914  -13.1760 N   0  0  0  0  0  0  0  0  0  0  0  0
   -7.6598    4.9033  -14.1251 C   0  0  0  0  0  0  0  0  0  0  0  0
   -6.7519    5.6150  -13.9649 O   0  0  0  0  0  0  0  0  0  0  0  0
   -8.4449    4.9808  -15.3914 C   0  0  0  0  0  0  0  0  0  0  0  0
   -9.5166    5.9288  -15.2817 O   0  0  0  0  0  0  0  0  0  0  0  0
   -7.6985    4.8186  -16.6946 C   0  0  0  0  0  0  0  0  0  0  0  0
   -8.7552    3.8340  -16.3022 C   0  0  0  0  0  0  0  0  0  0  0  0
   -8.9093    2.7447  -11.2757 N   0  0  0  0  0  0  0  0  0  0  0  0
   -8.7019    2.8988   -9.9905 C   0  0  0  0  0  0  0  0  0  0  0  0
   -7.7782    3.8714   -9.7676 N   0  0  0  0  0  0  0  0  0  0  0  0
   -7.5088    4.4944   -8.5036 C   0  0  0  0  0  0  0  0  0  0  0  0
  1  2  1  0
  2  3  1  0
  3  4  2  0
  3  5  1  0
  5  6  2  0
  6  7  1  0
  7  8  1  0
  8  9  2  0
  8 10  1  0
 10 11  1  0
 10 12  1  0
 12 13  1  0
  6 14  1  0
 14 15  2  0
 15 16  1  0
 16 17  1  0
 16  5  1  0
 13 10  1  0
M  END
>  <energy_score>  (4094) 
-6.573427

>  <alias>  (4094) 
WRTYIRICHPNJOY-UHFFFAOYSA-N-P86-P35-P86-601528

>  <HIPPO Pose ID>  (4094) 
82108

>  <smiles>  (4094) 
COC(=O)c1c(NC(=O)C2(O)CC2)ncn1C

>  <inchikey>  (4094) 
WRTYIRICHPNJOY-UHFFFAOYSA-N

>  <distance_score>  (4094) 
1.835304

>  <ref_mols>  (4094) 
Z0719a,Z1597a

>  <ref_pdb>  (4094) 
Z0719a

>  <HIPPO Compound ID>  (4094) 
151839

>  <name>  (4094) 
WRTYIRICHPNJOY-UHFFFAOYSA-N-P86-P35-P86-601528

>  <inspiration_score>  (4094) 
None

$$$$
CXXOLVPODVWKHF-UHFFFAOYSA-N-P35-P35-P86-601528
     RDKit          3D

 17 18  0  0  0  0  0  0  0  0999 V2000
   -8.6339    7.3259  -11.3387 C   0  0  0  0  0  0  0  0  0  0  0  0
   -7.9725    6.0056  -11.3091 C   0  0  0  0  0  0  0  0  0  0  0  0
   -7.6480    5.4300  -10.1160 N   0  0  0  0  0  0  0  0  0  0  0  0
   -7.1463    4.2491  -10.4227 C   0  0  0  0  0  0  0  0  0  0  0  0
   -6.8996    3.1886   -9.4240 C   0  0  0  0  0  0  0  0  0  0  0  0
   -6.8851    4.1709  -11.7824 N   0  0  0  0  0  0  0  0  0  0  0  0
   -5.9491    3.2877  -12.4717 C   0  0  0  0  0  0  0  0  0  0  0  0
   -6.5774    1.9573  -12.8208 C   0  0  0  0  0  0  0  0  0  0  0  0
   -4.6063    3.0609  -11.7741 C   0  0  0  0  0  0  0  0  0  0  0  0
   -7.6395    5.1728  -12.3615 C   0  0  0  0  0  0  0  0  0  0  0  0
   -8.0609    5.3236  -13.6556 N   0  0  0  0  0  0  0  0  0  0  0  0
   -7.7376    4.5017  -14.9136 C   0  0  0  0  0  0  0  0  0  0  0  0
   -7.0018    3.6128  -15.0660 O   0  0  0  0  0  0  0  0  0  0  0  0
   -8.5715    5.0266  -16.0414 C   0  0  0  0  0  0  0  0  0  0  0  0
   -9.5170    6.0464  -15.6306 O   0  0  0  0  0  0  0  0  0  0  0  0
   -7.9134    5.1322  -17.3983 C   0  0  0  0  0  0  0  0  0  0  0  0
   -9.0524    4.1805  -17.1840 C   0  0  0  0  0  0  0  0  0  0  0  0
  1  2  1  0
  2  3  1  0
  3  4  2  0
  4  5  1  0
  4  6  1  0
  6  7  1  0
  7  8  1  0
  7  9  1  0
  6 10  1  0
 10 11  1  0
 11 12  1  0
 12 13  2  0
 12 14  1  0
 14 15  1  0
 14 16  1  0
 16 17  1  0
 10  2  2  0
 17 14  1  0
M  END
>  <energy_score>  (4095) 
-19.385068

>  <alias>  (4095) 
CXXOLVPODVWKHF-UHFFFAOYSA-N-P35-P35-P86-601528

>  <HIPPO Pose ID>  (4095) 
82111

>  <smiles>  (4095) 
Cc1nc(C)n(C(C)C)c1NC(=O)C1(O)CC1

>  <inchikey>  (4095) 
CXXOLVPODVWKHF-UHFFFAOYSA-N

>  <distance_score>  (4095) 
1.199798

>  <ref_mols>  (4095) 
Z0719a,Z1597a

>  <ref_pdb>  (4095) 
Z0719a

>  <HIPPO Compound ID>  (4095) 
151841

>  <name>  (4095) 
CXXOLVPODVWKHF-UHFFFAOYSA-N-P35-P35-P86-601528

>  <inspiration_score>  (4095) 
None

$$$$
VYHAAHLTAQHDOL-UHFFFAOYSA-N-P86-P35-P86-601528
     RDKit          3D

 17 18  0  0  0  0  0  0  0  0999 V2000
   -4.1965    2.8847  -12.2816 C   0  0  0  0  0  0  0  0  0  0  0  0
   -4.1206    4.3371  -11.8300 C   0  0  0  0  0  0  0  0  0  0  0  0
   -4.4453    4.5099  -10.4287 O   0  0  0  0  0  0  0  0  0  0  0  0
   -5.6891    4.3663   -9.8673 C   0  0  0  0  0  0  0  0  0  0  0  0
   -5.8095    4.3711   -8.6440 O   0  0  0  0  0  0  0  0  0  0  0  0
   -6.7912    4.1570  -10.7814 C   0  0  0  0  0  0  0  0  0  0  0  0
   -6.9359    4.7302  -11.9642 N   0  0  0  0  0  0  0  0  0  0  0  0
   -7.9307    4.0489  -12.5915 C   0  0  0  0  0  0  0  0  0  0  0  0
   -8.1705    4.1897  -13.9229 N   0  0  0  0  0  0  0  0  0  0  0  0
   -7.4846    5.0868  -14.9761 C   0  0  0  0  0  0  0  0  0  0  0  0
   -6.6578    5.9023  -14.8531 O   0  0  0  0  0  0  0  0  0  0  0  0
   -7.9593    4.7235  -16.3701 C   0  0  0  0  0  0  0  0  0  0  0  0
   -9.2446    4.0607  -16.4404 O   0  0  0  0  0  0  0  0  0  0  0  0
   -6.9393    4.2129  -17.3583 C   0  0  0  0  0  0  0  0  0  0  0  0
   -7.5473    5.5271  -17.5933 C   0  0  0  0  0  0  0  0  0  0  0  0
   -8.5289    3.1715  -11.7242 C   0  0  0  0  0  0  0  0  0  0  0  0
   -7.8354    3.2923  -10.5465 N   0  0  0  0  0  0  0  0  0  0  0  0
  1  2  1  0
  2  3  1  0
  3  4  1  0
  4  5  2  0
  4  6  1  0
  6  7  2  0
  7  8  1  0
  8  9  1  0
  9 10  1  0
 10 11  2  0
 10 12  1  0
 12 13  1  0
 12 14  1  0
 14 15  1  0
  8 16  2  0
 16 17  1  0
 17  6  1  0
 15 12  1  0
M  END
>  <energy_score>  (4096) 
-4.920815

>  <alias>  (4096) 
VYHAAHLTAQHDOL-UHFFFAOYSA-N-P86-P35-P86-601528

>  <HIPPO Pose ID>  (4096) 
82116

>  <smiles>  (4096) 
CCOC(=O)c1nc(NC(=O)C2(O)CC2)c[nH]1

>  <inchikey>  (4096) 
VYHAAHLTAQHDOL-UHFFFAOYSA-N

>  <distance_score>  (4096) 
1.784537

>  <ref_mols>  (4096) 
Z0719a,Z1597a

>  <ref_pdb>  (4096) 
Z0719a

>  <HIPPO Compound ID>  (4096) 
151843

>  <name>  (4096) 
VYHAAHLTAQHDOL-UHFFFAOYSA-N-P86-P35-P86-601528

>  <inspiration_score>  (4096) 
None

$$$$
ABDBOMKPJQPXSZ-UHFFFAOYSA-N-P35-P35-P86-601528
     RDKit          3D

 17 18  0  0  0  0  0  0  0  0999 V2000
    0.3574    2.0689  -12.3200 C   0  0  0  0  0  0  0  0  0  0  0  0
   -0.7684    1.7838  -11.6442 C   0  0  0  0  0  0  0  0  0  0  0  0
   -1.1814    0.3671  -11.3507 C   0  0  0  0  0  0  0  0  0  0  0  0
   -1.6747    2.8568  -11.0875 C   0  0  0  0  0  0  0  0  0  0  0  0
   -3.0156    2.9057  -11.8314 C   0  0  0  0  0  0  0  0  0  0  0  0
   -4.0044    2.4629  -11.3974 O   0  0  0  0  0  0  0  0  0  0  0  0
   -2.7396    3.6140  -13.1852 N   0  0  0  0  0  0  0  0  0  0  0  0
   -3.5903    3.9825  -14.1764 C   0  0  0  0  0  0  0  0  0  0  0  0
   -3.0438    4.7194  -15.2101 N   0  0  0  0  0  0  0  0  0  0  0  0
   -4.0594    4.9483  -15.9899 C   0  0  0  0  0  0  0  0  0  0  0  0
   -5.2160    4.4270  -15.5137 N   0  0  0  0  0  0  0  0  0  0  0  0
   -4.9425    3.7409  -14.3702 C   0  0  0  0  0  0  0  0  0  0  0  0
   -5.8737    2.9194  -13.6801 C   0  0  0  0  0  0  0  0  0  0  0  0
   -6.6877    2.2090  -13.2570 N   0  0  0  0  0  0  0  0  0  0  0  0
   -6.4093    4.6717  -16.2942 C   0  0  0  0  0  0  0  0  0  0  0  0
   -5.9317    5.0344  -17.7072 C   0  0  0  0  0  0  0  0  0  0  0  0
   -4.2396    5.7326  -17.5052 S   0  0  0  0  0  0  0  0  0  0  0  0
  1  2  2  0
  2  3  1  0
  2  4  1  0
  4  5  1  0
  5  6  2  0
  5  7  1  0
  7  8  1  0
  8  9  1  0
  9 10  2  0
 10 11  1  0
 11 12  1  0
 12 13  1  0
 13 14  3  0
 11 15  1  0
 15 16  1  0
 16 17  1  0
 12  8  2  0
 17 10  1  0
M  END
>  <energy_score>  (4097) 
-22.061247

>  <alias>  (4097) 
ABDBOMKPJQPXSZ-UHFFFAOYSA-N-P35-P35-P86-601528

>  <HIPPO Pose ID>  (4097) 
82117

>  <smiles>  (4097) 
C=C(C)CC(=O)Nc1nc2n(c1C#N)CCS2

>  <inchikey>  (4097) 
ABDBOMKPJQPXSZ-UHFFFAOYSA-N

>  <distance_score>  (4097) 
1.310779

>  <ref_mols>  (4097) 
Z0719a,Z1597a

>  <ref_pdb>  (4097) 
Z0719a

>  <HIPPO Compound ID>  (4097) 
151844

>  <name>  (4097) 
ABDBOMKPJQPXSZ-UHFFFAOYSA-N-P35-P35-P86-601528

>  <inspiration_score>  (4097) 
None

$$$$
SETRHSPLEOTAOA-UHFFFAOYSA-N-P35-P35-P86-601528
     RDKit          3D

 17 18  0  0  0  0  0  0  0  0999 V2000
   -4.1310    2.6910  -12.3359 C   0  0  0  0  0  0  0  0  0  0  0  0
   -3.9535    4.1032  -11.7923 C   0  0  0  0  0  0  0  0  0  0  0  0
   -4.2833    4.2186  -10.3848 O   0  0  0  0  0  0  0  0  0  0  0  0
   -5.5481    4.2420   -9.8487 C   0  0  0  0  0  0  0  0  0  0  0  0
   -5.7016    4.3619   -8.6359 O   0  0  0  0  0  0  0  0  0  0  0  0
   -6.6459    4.0590  -10.7721 C   0  0  0  0  0  0  0  0  0  0  0  0
   -6.7085    4.5510  -11.9943 N   0  0  0  0  0  0  0  0  0  0  0  0
   -7.7427    3.9204  -12.6033 C   0  0  0  0  0  0  0  0  0  0  0  0
   -7.8951    3.9908  -13.9492 N   0  0  0  0  0  0  0  0  0  0  0  0
   -7.0680    4.7447  -15.0146 C   0  0  0  0  0  0  0  0  0  0  0  0
   -6.0808    5.3609  -14.9107 O   0  0  0  0  0  0  0  0  0  0  0  0
   -7.6613    4.5557  -16.3897 C   0  0  0  0  0  0  0  0  0  0  0  0
   -8.8624    3.8447  -16.4484 F   0  0  0  0  0  0  0  0  0  0  0  0
   -6.7392    4.3881  -17.5806 C   0  0  0  0  0  0  0  0  0  0  0  0
   -7.5180    5.6444  -17.4272 C   0  0  0  0  0  0  0  0  0  0  0  0
   -8.4616    3.1921  -11.6932 C   0  0  0  0  0  0  0  0  0  0  0  0
   -7.7732    3.3143  -10.5110 N   0  0  0  0  0  0  0  0  0  0  0  0
  1  2  1  0
  2  3  1  0
  3  4  1  0
  4  5  2  0
  4  6  1  0
  6  7  2  0
  7  8  1  0
  8  9  1  0
  9 10  1  0
 10 11  2  0
 10 12  1  0
 12 13  1  0
 12 14  1  0
 14 15  1  0
  8 16  2  0
 16 17  1  0
 17  6  1  0
 15 12  1  0
M  END
>  <energy_score>  (4098) 
-26.042653

>  <alias>  (4098) 
SETRHSPLEOTAOA-UHFFFAOYSA-N-P35-P35-P86-601528

>  <HIPPO Pose ID>  (4098) 
82129

>  <smiles>  (4098) 
CCOC(=O)c1nc(NC(=O)C2(F)CC2)c[nH]1

>  <inchikey>  (4098) 
SETRHSPLEOTAOA-UHFFFAOYSA-N

>  <distance_score>  (4098) 
1.730091

>  <ref_mols>  (4098) 
Z0719a,Z1597a

>  <ref_pdb>  (4098) 
Z0719a

>  <HIPPO Compound ID>  (4098) 
151850

>  <name>  (4098) 
SETRHSPLEOTAOA-UHFFFAOYSA-N-P35-P35-P86-601528

>  <inspiration_score>  (4098) 
None

$$$$
WHLXFOHAUUEHEE-UHFFFAOYSA-N-P35-P35-P86-601528
     RDKit          3D

 17 18  0  0  0  0  0  0  0  0999 V2000
   -7.4956    6.4794  -14.9177 O   0  0  0  0  0  0  0  0  0  0  0  0
   -7.9684    5.4280  -15.1014 C   0  0  0  0  0  0  0  0  0  0  0  0
   -8.5130    4.3898  -14.1030 N   0  0  0  0  0  0  0  0  0  0  0  0
   -8.5059    4.3831  -12.7523 C   0  0  0  0  0  0  0  0  0  0  0  0
   -8.0089    5.3397  -11.9069 C   0  0  0  0  0  0  0  0  0  0  0  0
   -7.7258    4.6149  -10.7741 N   0  0  0  0  0  0  0  0  0  0  0  0
   -6.5489    4.8268   -9.9704 C   0  0  0  0  0  0  0  0  0  0  0  0
   -5.2948    4.9054  -10.8446 C   0  0  0  0  0  0  0  0  0  0  0  0
   -5.0614    6.1925  -11.2121 F   0  0  0  0  0  0  0  0  0  0  0  0
   -5.3447    4.1670  -11.9844 F   0  0  0  0  0  0  0  0  0  0  0  0
   -4.2049    4.5067  -10.1429 F   0  0  0  0  0  0  0  0  0  0  0  0
   -8.3768    3.4191  -10.8591 C   0  0  0  0  0  0  0  0  0  0  0  0
   -8.8423    3.2540  -12.0728 N   0  0  0  0  0  0  0  0  0  0  0  0
   -8.0133    4.8584  -16.4950 C   0  0  0  0  0  0  0  0  0  0  0  0
   -8.9896    3.8864  -16.7213 F   0  0  0  0  0  0  0  0  0  0  0  0
   -7.5808    5.6537  -17.7042 C   0  0  0  0  0  0  0  0  0  0  0  0
   -6.6882    4.5867  -17.1780 C   0  0  0  0  0  0  0  0  0  0  0  0
  1  2  2  0
  2  3  1  0
  3  4  1  0
  4  5  2  0
  5  6  1  0
  6  7  1  0
  7  8  1  0
  8  9  1  0
  8 10  1  0
  8 11  1  0
  6 12  1  0
 12 13  2  0
  2 14  1  0
 14 15  1  0
 14 16  1  0
 16 17  1  0
 13  4  1  0
 17 14  1  0
M  END
>  <energy_score>  (4099) 
-11.89673

>  <alias>  (4099) 
WHLXFOHAUUEHEE-UHFFFAOYSA-N-P35-P35-P86-601528

>  <HIPPO Pose ID>  (4099) 
82137

>  <smiles>  (4099) 
O=C(Nc1cn(CC(F)(F)F)cn1)C1(F)CC1

>  <inchikey>  (4099) 
WHLXFOHAUUEHEE-UHFFFAOYSA-N

>  <distance_score>  (4099) 
1.374931

>  <ref_mols>  (4099) 
Z0719a,Z1597a

>  <ref_pdb>  (4099) 
Z0719a

>  <HIPPO Compound ID>  (4099) 
151854

>  <name>  (4099) 
WHLXFOHAUUEHEE-UHFFFAOYSA-N-P35-P35-P86-601528

>  <inspiration_score>  (4099) 
None

$$$$
AWRDKLPSJRPAEF-UHFFFAOYSA-N-P86-P35-P86-601528
     RDKit          3D

 17 18  0  0  0  0  0  0  0  0999 V2000
   -3.0495    6.8059  -20.4899 C   0  0  0  0  0  0  0  0  0  0  0  0
   -3.6741    6.5065  -19.1221 C   0  0  1  0  0  0  0  0  0  0  0  0
   -3.2913    7.5187  -18.0496 C   0  0  0  0  0  0  0  0  0  0  0  0
   -4.0132    9.3009  -18.3706 Br  0  0  0  0  0  0  0  0  0  0  0  0
   -5.1886    6.3713  -19.2810 C   0  0  0  0  0  0  0  0  0  0  0  0
   -5.7505    6.7836  -20.2175 O   0  0  0  0  0  0  0  0  0  0  0  0
   -5.7208    5.5767  -18.0579 N   0  0  0  0  0  0  0  0  0  0  0  0
   -6.9593    5.0765  -17.8011 C   0  0  0  0  0  0  0  0  0  0  0  0
   -7.9206    4.9820  -18.7637 N   0  0  0  0  0  0  0  0  0  0  0  0
   -9.0138    4.3791  -18.2073 C   0  0  0  0  0  0  0  0  0  0  0  0
   -8.8230    4.0997  -16.9428 N   0  0  0  0  0  0  0  0  0  0  0  0
   -7.5541    4.5626  -16.6697 C   0  0  0  0  0  0  0  0  0  0  0  0
   -6.9951    4.5004  -15.3262 C   0  0  0  0  0  0  0  0  0  0  0  0
   -5.6571    4.7489  -15.1086 N   0  0  0  0  0  0  0  0  0  0  0  0
   -5.4243    4.4385  -13.8395 N   0  0  0  0  0  0  0  0  0  0  0  0
   -6.6190    4.0498  -13.3691 N   0  0  0  0  0  0  0  0  0  0  0  0
   -7.6537    4.1824  -14.2046 N   0  0  0  0  0  0  0  0  0  0  0  0
  2  1  1  6
  2  3  1  0
  3  4  1  0
  2  5  1  0
  5  6  2  0
  5  7  1  0
  7  8  1  0
  8  9  1  0
  9 10  1  0
 10 11  2  0
 11 12  1  0
 12 13  1  0
 13 14  1  0
 14 15  2  0
 15 16  1  0
 16 17  1  0
 12  8  2  0
 17 13  2  0
M  END
>  <energy_score>  (4100) 
-38.315233

>  <alias>  (4100) 
AWRDKLPSJRPAEF-UHFFFAOYSA-N-P86-P35-P86-601528

>  <HIPPO Pose ID>  (4100) 
82172

>  <smiles>  (4100) 
CC(CBr)C(=O)Nc1[nH]cnc1-c1nn[nH]n1

>  <inchikey>  (4100) 
AWRDKLPSJRPAEF-UHFFFAOYSA-N

>  <distance_score>  (4100) 
1.600508

>  <ref_mols>  (4100) 
Z0719a,Z1597a

>  <ref_pdb>  (4100) 
Z0719a

>  <HIPPO Compound ID>  (4100) 
151871

>  <name>  (4100) 
AWRDKLPSJRPAEF-UHFFFAOYSA-N-P86-P35-P86-601528

>  <inspiration_score>  (4100) 
None

$$$$
OGHSXWNSTUIKKW-UHFFFAOYSA-N-P35-P35-P86-601528
     RDKit          3D

 17 18  0  0  0  0  0  0  0  0999 V2000
   -5.3728    7.4974  -20.5122 C   0  0  0  0  0  0  0  0  0  0  0  0
   -3.9914    7.0642  -20.0492 C   0  0  0  0  0  0  0  0  0  0  0  0
   -3.9114    5.7121  -19.3219 C   0  0  1  0  0  0  0  0  0  0  0  0
   -2.4675    5.4539  -18.8752 C   0  0  0  0  0  0  0  0  0  0  0  0
   -4.8489    5.6163  -18.1029 C   0  0  0  0  0  0  0  0  0  0  0  0
   -4.5099    5.8576  -17.0102 O   0  0  0  0  0  0  0  0  0  0  0  0
   -6.2046    5.0672  -18.6416 N   0  0  0  0  0  0  0  0  0  0  0  0
   -7.3796    4.8096  -17.9905 C   0  0  0  0  0  0  0  0  0  0  0  0
   -8.5383    4.7667  -18.7235 N   0  0  0  0  0  0  0  0  0  0  0  0
   -9.5780    4.4974  -17.8890 C   0  0  0  0  0  0  0  0  0  0  0  0
   -9.1628    4.3242  -16.6647 N   0  0  0  0  0  0  0  0  0  0  0  0
   -7.7963    4.5491  -16.6962 C   0  0  0  0  0  0  0  0  0  0  0  0
   -7.0703    4.3931  -15.4380 C   0  0  0  0  0  0  0  0  0  0  0  0
   -7.6924    4.6489  -14.2373 N   0  0  0  0  0  0  0  0  0  0  0  0
   -6.8323    4.3071  -13.2864 N   0  0  0  0  0  0  0  0  0  0  0  0
   -5.7640    3.8660  -13.9494 N   0  0  0  0  0  0  0  0  0  0  0  0
   -5.8285    3.9110  -15.2832 N   0  0  0  0  0  0  0  0  0  0  0  0
  1  2  1  0
  2  3  1  0
  3  4  1  1
  3  5  1  0
  5  6  2  0
  5  7  1  0
  7  8  1  0
  8  9  1  0
  9 10  1  0
 10 11  2  0
 11 12  1  0
 12 13  1  0
 13 14  1  0
 14 15  2  0
 15 16  1  0
 16 17  1  0
 12  8  2  0
 17 13  2  0
M  END
>  <energy_score>  (4101) 
-21.611604

>  <alias>  (4101) 
OGHSXWNSTUIKKW-UHFFFAOYSA-N-P35-P35-P86-601528

>  <HIPPO Pose ID>  (4101) 
82175

>  <smiles>  (4101) 
CCC(C)C(=O)Nc1[nH]cnc1-c1nn[nH]n1

>  <inchikey>  (4101) 
OGHSXWNSTUIKKW-UHFFFAOYSA-N

>  <distance_score>  (4101) 
1.361065

>  <ref_mols>  (4101) 
Z0719a,Z1597a

>  <ref_pdb>  (4101) 
Z0719a

>  <HIPPO Compound ID>  (4101) 
151873

>  <name>  (4101) 
OGHSXWNSTUIKKW-UHFFFAOYSA-N-P35-P35-P86-601528

>  <inspiration_score>  (4101) 
None

$$$$
JVIOJNDFWPLSBG-UHFFFAOYSA-N-P35-P35-P86-601528
     RDKit          3D

 17 17  0  0  0  0  0  0  0  0999 V2000
   -7.9487    6.3019  -14.1541 C   0  0  0  0  0  0  0  0  0  0  0  0
   -6.9386    5.3230  -13.5819 C   0  0  0  0  0  0  0  0  0  0  0  0
   -7.0129    4.1006  -14.3123 O   0  0  0  0  0  0  0  0  0  0  0  0
   -6.3375    4.1787  -15.4959 C   0  0  0  0  0  0  0  0  0  0  0  0
   -5.1216    4.0713  -15.5625 O   0  0  0  0  0  0  0  0  0  0  0  0
   -7.2880    4.3243  -16.5606 C   0  0  0  0  0  0  0  0  0  0  0  0
   -8.6381    4.0565  -16.4064 N   0  0  0  0  0  0  0  0  0  0  0  0
   -9.2461    4.2072  -17.6065 C   0  0  0  0  0  0  0  0  0  0  0  0
   -8.3678    4.4979  -18.5321 N   0  0  0  0  0  0  0  0  0  0  0  0
   -7.1728    4.6420  -17.8940 C   0  0  0  0  0  0  0  0  0  0  0  0
   -6.1106    5.0176  -18.6477 N   0  0  0  0  0  0  0  0  0  0  0  0
   -4.8135    5.7808  -18.2554 C   0  0  0  0  0  0  0  0  0  0  0  0
   -4.4290    6.1332  -17.2090 O   0  0  0  0  0  0  0  0  0  0  0  0
   -3.9857    5.9307  -19.5367 C   0  0  1  0  0  0  0  0  0  0  0  0
   -4.5823    7.0059  -20.4449 C   0  0  0  0  0  0  0  0  0  0  0  0
   -2.5380    6.2430  -19.1647 C   0  0  0  0  0  0  0  0  0  0  0  0
   -1.3591    5.8937  -20.6872 Br  0  0  0  0  0  0  0  0  0  0  0  0
  1  2  1  0
  2  3  1  0
  3  4  1  0
  4  5  2  0
  4  6  1  0
  6  7  1  0
  7  8  1  0
  8  9  2  0
  9 10  1  0
 10 11  1  0
 11 12  1  0
 12 13  2  0
 12 14  1  0
 14 15  1  6
 14 16  1  0
 16 17  1  0
 10  6  2  0
M  END
>  <energy_score>  (4102) 
-20.405444

>  <alias>  (4102) 
JVIOJNDFWPLSBG-UHFFFAOYSA-N-P35-P35-P86-601528

>  <HIPPO Pose ID>  (4102) 
82179

>  <smiles>  (4102) 
CCOC(=O)c1[nH]cnc1NC(=O)C(C)CBr

>  <inchikey>  (4102) 
JVIOJNDFWPLSBG-UHFFFAOYSA-N

>  <distance_score>  (4102) 
1.96942

>  <ref_mols>  (4102) 
Z0719a,Z1597a

>  <ref_pdb>  (4102) 
Z0719a

>  <HIPPO Compound ID>  (4102) 
151875

>  <name>  (4102) 
JVIOJNDFWPLSBG-UHFFFAOYSA-N-P35-P35-P86-601528

>  <inspiration_score>  (4102) 
None

$$$$
PDTXAPYGBNPVNI-UHFFFAOYSA-N-P86-P35-P86-601528
     RDKit          3D

 17 18  0  0  0  0  0  0  0  0999 V2000
   -5.5647    8.4395  -22.9416 C   0  0  0  0  0  0  0  0  0  0  0  0
   -4.5445    7.8802  -22.2686 C   0  0  0  0  0  0  0  0  0  0  0  0
   -3.4959    8.7329  -21.6043 C   0  0  0  0  0  0  0  0  0  0  0  0
   -4.3538    6.3867  -22.2287 C   0  0  0  0  0  0  0  0  0  0  0  0
   -4.1745    5.9125  -20.7913 C   0  0  0  0  0  0  0  0  0  0  0  0
   -3.1419    5.9830  -20.2449 O   0  0  0  0  0  0  0  0  0  0  0  0
   -5.5674    5.4709  -20.2601 N   0  0  0  0  0  0  0  0  0  0  0  0
   -5.9650    5.1409  -19.0140 C   0  0  0  0  0  0  0  0  0  0  0  0
   -7.2253    4.7846  -18.5942 C   0  0  0  0  0  0  0  0  0  0  0  0
   -7.1354    4.7475  -17.2324 N   0  0  0  0  0  0  0  0  0  0  0  0
   -8.1645    4.5874  -16.3614 N   0  0  0  0  0  0  0  0  0  0  0  0
   -7.7761    4.7146  -15.1332 C   0  0  0  0  0  0  0  0  0  0  0  0
   -8.9781    4.6938  -13.9251 Cl  0  0  0  0  0  0  0  0  0  0  0  0
   -6.3959    4.9531  -14.6547 C   0  0  0  0  0  0  0  0  0  0  0  0
   -5.4523    5.1358  -15.5724 C   0  0  0  0  0  0  0  0  0  0  0  0
   -5.8195    5.0573  -16.9221 C   0  0  0  0  0  0  0  0  0  0  0  0
   -5.0916    5.2575  -17.9865 N   0  0  0  0  0  0  0  0  0  0  0  0
  1  2  2  0
  2  3  1  0
  2  4  1  0
  4  5  1  0
  5  6  2  0
  5  7  1  0
  7  8  1  0
  8  9  2  0
  9 10  1  0
 10 11  1  0
 11 12  2  0
 12 13  1  0
 12 14  1  0
 14 15  2  0
 15 16  1  0
 16 17  2  0
 17  8  1  0
 16 10  1  0
M  END
>  <energy_score>  (4103) 
-33.345763

>  <alias>  (4103) 
PDTXAPYGBNPVNI-UHFFFAOYSA-N-P86-P35-P86-601528

>  <HIPPO Pose ID>  (4103) 
82188

>  <smiles>  (4103) 
C=C(C)CC(=O)Nc1cn2nc(Cl)ccc2n1

>  <inchikey>  (4103) 
PDTXAPYGBNPVNI-UHFFFAOYSA-N

>  <distance_score>  (4103) 
1.921584

>  <ref_mols>  (4103) 
Z0719a,Z1597a

>  <ref_pdb>  (4103) 
Z0719a

>  <HIPPO Compound ID>  (4103) 
151879

>  <name>  (4103) 
PDTXAPYGBNPVNI-UHFFFAOYSA-N-P86-P35-P86-601528

>  <inspiration_score>  (4103) 
None

$$$$
HHRLIAWMADQVLL-UHFFFAOYSA-N-P35-P35-P86-601528
     RDKit          3D

 17 17  0  0  0  0  0  0  0  0999 V2000
   -3.7839    6.1957  -19.5180 C   0  0  0  0  0  0  0  0  0  0  0  0
   -2.9829    5.8349  -18.2526 C   0  0  1  0  0  0  0  0  0  0  0  0
   -2.3417    7.0308  -17.5640 C   0  0  0  0  0  0  0  0  0  0  0  0
   -0.8492    7.7182  -18.6168 Br  0  0  0  0  0  0  0  0  0  0  0  0
   -3.8309    5.0329  -17.2460 C   0  0  0  0  0  0  0  0  0  0  0  0
   -3.5476    3.9395  -16.9536 O   0  0  0  0  0  0  0  0  0  0  0  0
   -5.0598    5.8903  -16.8542 N   0  0  0  0  0  0  0  0  0  0  0  0
   -6.1696    5.5668  -16.1444 C   0  0  0  0  0  0  0  0  0  0  0  0
   -7.1120    6.5630  -16.0477 N   0  0  0  0  0  0  0  0  0  0  0  0
   -8.1797    5.9620  -15.5757 C   0  0  0  0  0  0  0  0  0  0  0  0
   -8.0067    4.6149  -15.6994 N   0  0  0  0  0  0  0  0  0  0  0  0
   -8.8369    3.9099  -16.6482 C   0  0  0  0  0  0  0  0  0  0  0  0
   -6.6380    4.4221  -15.5140 C   0  0  0  0  0  0  0  0  0  0  0  0
   -6.0493    3.5098  -14.1025 S   0  0  0  0  0  0  0  0  0  0  0  0
   -7.0645    2.1959  -13.8492 N   0  0  0  0  0  0  0  0  0  0  0  0
   -6.3251    4.4124  -13.0124 O   0  0  0  0  0  0  0  0  0  0  0  0
   -4.7204    3.0241  -14.3654 O   0  0  0  0  0  0  0  0  0  0  0  0
  2  1  1  6
  2  3  1  0
  3  4  1  0
  2  5  1  0
  5  6  2  0
  5  7  1  0
  7  8  1  0
  8  9  1  0
  9 10  2  0
 10 11  1  0
 11 12  1  0
 11 13  1  0
 13 14  1  0
 14 15  1  0
 14 16  2  0
 14 17  2  0
 13  8  2  0
M  END
>  <energy_score>  (4104) 
-2.735837

>  <alias>  (4104) 
HHRLIAWMADQVLL-UHFFFAOYSA-N-P35-P35-P86-601528

>  <HIPPO Pose ID>  (4104) 
82197

>  <smiles>  (4104) 
CC(CBr)C(=O)Nc1ncn(C)c1S(N)(=O)=O

>  <inchikey>  (4104) 
HHRLIAWMADQVLL-UHFFFAOYSA-N

>  <distance_score>  (4104) 
1.921723

>  <ref_mols>  (4104) 
Z0719a,Z1597a

>  <ref_pdb>  (4104) 
Z0719a

>  <HIPPO Compound ID>  (4104) 
151884

>  <name>  (4104) 
HHRLIAWMADQVLL-UHFFFAOYSA-N-P35-P35-P86-601528

>  <inspiration_score>  (4104) 
None

$$$$
DOLGFPAXBAWNSB-UHFFFAOYSA-N-P86-P35-P86-601528
     RDKit          3D

 17 17  0  0  0  0  0  0  0  0999 V2000
   -8.4469    3.7340  -15.0722 C   0  0  0  0  0  0  0  0  0  0  0  0
   -8.3182    4.2330  -16.4428 C   0  0  0  0  0  0  0  0  0  0  0  0
   -9.1533    3.9556  -17.4192 N   0  0  0  0  0  0  0  0  0  0  0  0
   -8.5331    4.3892  -18.5464 C   0  0  0  0  0  0  0  0  0  0  0  0
   -7.2948    4.9231  -18.2539 C   0  0  0  0  0  0  0  0  0  0  0  0
   -6.3411    5.2482  -19.1732 N   0  0  0  0  0  0  0  0  0  0  0  0
   -4.8389    5.6363  -18.9827 C   0  0  0  0  0  0  0  0  0  0  0  0
   -4.2188    5.8097  -18.0049 O   0  0  0  0  0  0  0  0  0  0  0  0
   -4.2514    5.6863  -20.4003 C   0  0  1  0  0  0  0  0  0  0  0  0
   -4.4515    7.0333  -21.0542 C   0  0  0  0  0  0  0  0  0  0  0  0
   -2.3418    5.2830  -20.3139 Br  0  0  0  0  0  0  0  0  0  0  0  0
   -7.2485    4.9651  -16.8798 N   0  0  0  0  0  0  0  0  0  0  0  0
   -6.2925    5.6285  -16.0315 C   0  0  0  0  0  0  0  0  0  0  0  0
   -6.7150    6.1277  -14.6493 C   0  0  0  0  0  0  0  0  0  0  0  0
   -8.0441    6.1771  -14.4265 F   0  0  0  0  0  0  0  0  0  0  0  0
   -6.1740    5.3731  -13.6677 F   0  0  0  0  0  0  0  0  0  0  0  0
   -6.2502    7.3917  -14.4568 F   0  0  0  0  0  0  0  0  0  0  0  0
  1  2  1  0
  2  3  2  0
  3  4  1  0
  4  5  2  0
  5  6  1  0
  6  7  1  0
  7  8  2  0
  7  9  1  0
  9 10  1  1
  9 11  1  0
  5 12  1  0
 12 13  1  0
 13 14  1  0
 14 15  1  0
 14 16  1  0
 14 17  1  0
 12  2  1  0
M  END
>  <energy_score>  (4105) 
-12.200706

>  <alias>  (4105) 
DOLGFPAXBAWNSB-UHFFFAOYSA-N-P86-P35-P86-601528

>  <HIPPO Pose ID>  (4105) 
82218

>  <smiles>  (4105) 
Cc1ncc(NC(=O)C(C)Br)n1CC(F)(F)F

>  <inchikey>  (4105) 
DOLGFPAXBAWNSB-UHFFFAOYSA-N

>  <distance_score>  (4105) 
1.372631

>  <ref_mols>  (4105) 
Z0719a,Z1597a

>  <ref_pdb>  (4105) 
Z0719a

>  <HIPPO Compound ID>  (4105) 
151894

>  <name>  (4105) 
DOLGFPAXBAWNSB-UHFFFAOYSA-N-P86-P35-P86-601528

>  <inspiration_score>  (4105) 
None

$$$$
CXVUNWPXWHSOTB-UHFFFAOYSA-N-P35-P35-P86-601528
     RDKit          3D

 17 19  0  0  0  0  0  0  0  0999 V2000
   -4.4034    7.7871  -21.9786 C   0  0  0  0  0  0  0  0  0  0  0  0
   -3.2643    7.1512  -21.2511 C   0  0  2  0  0  0  0  0  0  0  0  0
   -3.4727    6.5946  -19.8736 C   0  0  0  0  0  0  0  0  0  0  0  0
   -2.7120    6.8960  -19.0429 O   0  0  0  0  0  0  0  0  0  0  0  0
   -4.7553    5.7436  -19.7932 N   0  0  0  0  0  0  0  0  0  0  0  0
   -5.3808    5.2000  -18.7286 C   0  0  0  0  0  0  0  0  0  0  0  0
   -6.7017    4.8309  -18.6156 C   0  0  0  0  0  0  0  0  0  0  0  0
   -6.8816    4.6487  -17.2712 N   0  0  0  0  0  0  0  0  0  0  0  0
   -8.0668    4.6433  -16.6055 N   0  0  0  0  0  0  0  0  0  0  0  0
   -7.8872    4.6077  -15.3242 C   0  0  0  0  0  0  0  0  0  0  0  0
   -9.2292    4.9499  -14.3361 Cl  0  0  0  0  0  0  0  0  0  0  0  0
   -6.6098    4.4023  -14.6077 C   0  0  0  0  0  0  0  0  0  0  0  0
   -5.4947    4.4865  -15.3255 C   0  0  0  0  0  0  0  0  0  0  0  0
   -5.6169    4.7113  -16.7028 C   0  0  0  0  0  0  0  0  0  0  0  0
   -4.7013    5.0578  -17.5657 N   0  0  0  0  0  0  0  0  0  0  0  0
   -1.8480    7.5645  -21.6431 C   0  0  0  0  0  0  0  0  0  0  0  0
   -2.4240    6.3392  -22.0921 O   0  0  0  0  0  0  0  0  0  0  0  0
  2  1  1  6
  2  3  1  0
  3  4  2  0
  3  5  1  0
  5  6  1  0
  6  7  2  0
  7  8  1  0
  8  9  1  0
  9 10  2  0
 10 11  1  0
 10 12  1  0
 12 13  2  0
 13 14  1  0
 14 15  2  0
  2 16  1  0
 16 17  1  0
 17  2  1  0
 15  6  1  0
 14  8  1  0
M  END
>  <energy_score>  (4106) 
-24.272504

>  <alias>  (4106) 
CXVUNWPXWHSOTB-UHFFFAOYSA-N-P35-P35-P86-601528

>  <HIPPO Pose ID>  (4106) 
82221

>  <smiles>  (4106) 
CC1(C(=O)Nc2cn3nc(Cl)ccc3n2)CO1

>  <inchikey>  (4106) 
CXVUNWPXWHSOTB-UHFFFAOYSA-N

>  <distance_score>  (4106) 
1.944606

>  <ref_mols>  (4106) 
Z0719a,Z1597a

>  <ref_pdb>  (4106) 
Z0719a

>  <HIPPO Compound ID>  (4106) 
151896

>  <name>  (4106) 
CXVUNWPXWHSOTB-UHFFFAOYSA-N-P35-P35-P86-601528

>  <inspiration_score>  (4106) 
None

$$$$
KVYXNHKBILKJQO-UHFFFAOYSA-N-P86-P35-P86-601528
     RDKit          3D

 17 18  0  0  0  0  0  0  0  0999 V2000
   -8.2578    7.3367  -12.0553 C   0  0  0  0  0  0  0  0  0  0  0  0
   -7.7636    5.9903  -11.7060 C   0  0  0  0  0  0  0  0  0  0  0  0
   -7.6982    5.5998  -10.3919 N   0  0  0  0  0  0  0  0  0  0  0  0
   -7.3205    4.3353  -10.4063 C   0  0  0  0  0  0  0  0  0  0  0  0
   -7.2718    3.4774   -9.2053 C   0  0  0  0  0  0  0  0  0  0  0  0
   -6.9791    3.9516  -11.6856 N   0  0  0  0  0  0  0  0  0  0  0  0
   -6.1144    2.8674  -12.1407 C   0  0  0  0  0  0  0  0  0  0  0  0
   -4.6466    3.0505  -11.7691 C   0  0  0  0  0  0  0  0  0  0  0  0
   -6.6431    1.5218  -11.7277 C   0  0  0  0  0  0  0  0  0  0  0  0
   -7.4328    4.9340  -12.5252 C   0  0  0  0  0  0  0  0  0  0  0  0
   -7.4625    4.7829  -13.8739 N   0  0  0  0  0  0  0  0  0  0  0  0
   -7.1489    5.7738  -14.9889 C   0  0  0  0  0  0  0  0  0  0  0  0
   -6.8877    6.9029  -14.9403 O   0  0  0  0  0  0  0  0  0  0  0  0
   -7.3253    5.1078  -16.3434 C   0  0  2  0  0  0  0  0  0  0  0  0
   -8.5648    4.2962  -16.6315 C   0  0  0  0  0  0  0  0  0  0  0  0
   -6.1018    4.9000  -17.2111 C   0  0  0  0  0  0  0  0  0  0  0  0
   -6.9923    5.9766  -17.4584 O   0  0  0  0  0  0  0  0  0  0  0  0
  1  2  1  0
  2  3  1  0
  3  4  2  0
  4  5  1  0
  4  6  1  0
  6  7  1  0
  7  8  1  0
  7  9  1  0
  6 10  1  0
 10 11  1  0
 11 12  1  0
 12 13  2  0
 12 14  1  0
 14 15  1  6
 14 16  1  0
 16 17  1  0
 10  2  2  0
 17 14  1  0
M  END
>  <energy_score>  (4107) 
-25.740844

>  <alias>  (4107) 
KVYXNHKBILKJQO-UHFFFAOYSA-N-P86-P35-P86-601528

>  <HIPPO Pose ID>  (4107) 
82224

>  <smiles>  (4107) 
Cc1nc(C)n(C(C)C)c1NC(=O)C1(C)CO1

>  <inchikey>  (4107) 
KVYXNHKBILKJQO-UHFFFAOYSA-N

>  <distance_score>  (4107) 
1.269513

>  <ref_mols>  (4107) 
Z0719a,Z1597a

>  <ref_pdb>  (4107) 
Z0719a

>  <HIPPO Compound ID>  (4107) 
151897

>  <name>  (4107) 
KVYXNHKBILKJQO-UHFFFAOYSA-N-P86-P35-P86-601528

>  <inspiration_score>  (4107) 
None

$$$$
AIHDLTMYHBSAMI-UHFFFAOYSA-N-P35-P35-P86-601528
     RDKit          3D

 17 17  0  0  0  0  0  0  0  0999 V2000
   -4.9779    8.6096  -19.7582 C   0  0  0  0  0  0  0  0  0  0  0  0
   -4.9667    7.1645  -20.2369 C   0  0  0  0  0  0  0  0  0  0  0  0
   -4.2912    6.2289  -19.2434 C   0  0  1  0  0  0  0  0  0  0  0  0
   -2.9687    6.5878  -19.1764 F   0  0  0  0  0  0  0  0  0  0  0  0
   -4.9357    6.1489  -17.8347 C   0  0  0  0  0  0  0  0  0  0  0  0
   -4.3669    6.4543  -16.8582 O   0  0  0  0  0  0  0  0  0  0  0  0
   -6.3475    5.5166  -18.0249 N   0  0  0  0  0  0  0  0  0  0  0  0
   -7.2523    5.0704  -17.1014 C   0  0  0  0  0  0  0  0  0  0  0  0
   -8.4162    4.3827  -17.3745 C   0  0  0  0  0  0  0  0  0  0  0  0
   -9.0887    4.1981  -18.6656 C   0  0  0  0  0  0  0  0  0  0  0  0
   -8.8611    3.7263  -16.2564 N   0  0  0  0  0  0  0  0  0  0  0  0
   -7.9768    4.0037  -15.3180 C   0  0  0  0  0  0  0  0  0  0  0  0
   -7.8028    3.3442  -13.9947 C   0  0  0  0  0  0  0  0  0  0  0  0
   -7.1918    5.0593  -15.7277 N   0  0  0  0  0  0  0  0  0  0  0  0
   -6.7833    6.1327  -14.8355 C   0  0  0  0  0  0  0  0  0  0  0  0
   -7.9179    6.5510  -13.8808 C   0  0  0  0  0  0  0  0  0  0  0  0
   -5.5182    5.8257  -14.0454 C   0  0  0  0  0  0  0  0  0  0  0  0
  1  2  1  0
  2  3  1  0
  3  4  1  1
  3  5  1  0
  5  6  2  0
  5  7  1  0
  7  8  1  0
  8  9  2  0
  9 10  1  0
  9 11  1  0
 11 12  2  0
 12 13  1  0
 12 14  1  0
 14 15  1  0
 15 16  1  0
 15 17  1  0
 14  8  1  0
M  END
>  <energy_score>  (4108) 
-25.308371

>  <alias>  (4108) 
AIHDLTMYHBSAMI-UHFFFAOYSA-N-P35-P35-P86-601528

>  <HIPPO Pose ID>  (4108) 
82237

>  <smiles>  (4108) 
CCC(F)C(=O)Nc1c(C)nc(C)n1C(C)C

>  <inchikey>  (4108) 
AIHDLTMYHBSAMI-UHFFFAOYSA-N

>  <distance_score>  (4108) 
1.773851

>  <ref_mols>  (4108) 
Z0719a,Z1597a

>  <ref_pdb>  (4108) 
Z0719a

>  <HIPPO Compound ID>  (4108) 
151904

>  <name>  (4108) 
AIHDLTMYHBSAMI-UHFFFAOYSA-N-P35-P35-P86-601528

>  <inspiration_score>  (4108) 
None

$$$$
JVFSCBSBNBJIQZ-UHFFFAOYSA-N-P35-P35-P86-601528
     RDKit          3D

 17 18  0  0  0  0  0  0  0  0999 V2000
   -3.6135    7.5780  -21.3226 C   0  0  0  0  0  0  0  0  0  0  0  0
   -4.4967    7.1060  -20.1790 C   0  0  0  0  0  0  0  0  0  0  0  0
   -3.7591    6.1613  -19.2320 C   0  0  2  0  0  0  0  0  0  0  0  0
   -3.5700    4.9633  -19.8646 F   0  0  0  0  0  0  0  0  0  0  0  0
   -4.4959    6.0100  -17.8881 C   0  0  0  0  0  0  0  0  0  0  0  0
   -4.1056    6.5165  -16.9074 O   0  0  0  0  0  0  0  0  0  0  0  0
   -5.7802    5.1681  -18.1466 N   0  0  0  0  0  0  0  0  0  0  0  0
   -6.8383    4.8739  -17.3163 C   0  0  0  0  0  0  0  0  0  0  0  0
   -8.0971    4.4310  -17.7078 C   0  0  0  0  0  0  0  0  0  0  0  0
   -8.6324    4.1666  -19.0442 C   0  0  0  0  0  0  0  0  0  0  0  0
   -8.9434    4.2632  -16.6472 N   0  0  0  0  0  0  0  0  0  0  0  0
   -8.2111    4.5839  -15.6154 C   0  0  0  0  0  0  0  0  0  0  0  0
   -8.6166    4.6140  -14.2462 C   0  0  0  0  0  0  0  0  0  0  0  0
   -7.8148    4.9655  -13.2793 N   0  0  0  0  0  0  0  0  0  0  0  0
   -6.5128    5.2352  -13.6297 C   0  0  0  0  0  0  0  0  0  0  0  0
   -6.0539    5.2314  -14.8927 C   0  0  0  0  0  0  0  0  0  0  0  0
   -6.9225    4.9382  -15.9351 N   0  0  0  0  0  0  0  0  0  0  0  0
  1  2  1  0
  2  3  1  0
  3  4  1  6
  3  5  1  0
  5  6  2  0
  5  7  1  0
  7  8  1  0
  8  9  2  0
  9 10  1  0
  9 11  1  0
 11 12  2  0
 12 13  1  0
 13 14  2  0
 14 15  1  0
 15 16  2  0
 16 17  1  0
 17  8  1  0
 17 12  1  0
M  END
>  <energy_score>  (4109) 
-22.699308

>  <alias>  (4109) 
JVFSCBSBNBJIQZ-UHFFFAOYSA-N-P35-P35-P86-601528

>  <HIPPO Pose ID>  (4109) 
82241

>  <smiles>  (4109) 
CCC(F)C(=O)Nc1c(C)nc2cnccn12

>  <inchikey>  (4109) 
JVFSCBSBNBJIQZ-UHFFFAOYSA-N

>  <distance_score>  (4109) 
1.643144

>  <ref_mols>  (4109) 
Z0719a,Z1597a

>  <ref_pdb>  (4109) 
Z0719a

>  <HIPPO Compound ID>  (4109) 
151906

>  <name>  (4109) 
JVFSCBSBNBJIQZ-UHFFFAOYSA-N-P35-P35-P86-601528

>  <inspiration_score>  (4109) 
None

$$$$
ORYZGNKDJVCVLY-UHFFFAOYSA-N-P35-P35-P86-601528
     RDKit          3D

 17 17  0  0  0  0  0  0  0  0999 V2000
   -7.6405    6.5369  -14.3970 C   0  0  0  0  0  0  0  0  0  0  0  0
   -7.5780    5.2452  -13.6074 C   0  0  0  0  0  0  0  0  0  0  0  0
   -6.5897    4.3024  -14.0680 O   0  0  0  0  0  0  0  0  0  0  0  0
   -6.1662    4.1886  -15.3623 C   0  0  0  0  0  0  0  0  0  0  0  0
   -5.0029    3.8850  -15.5951 O   0  0  0  0  0  0  0  0  0  0  0  0
   -7.2037    4.3507  -16.3461 C   0  0  0  0  0  0  0  0  0  0  0  0
   -8.5194    3.9535  -16.1628 N   0  0  0  0  0  0  0  0  0  0  0  0
   -9.2120    4.2123  -17.2994 C   0  0  0  0  0  0  0  0  0  0  0  0
   -8.4096    4.6449  -18.2359 N   0  0  0  0  0  0  0  0  0  0  0  0
   -7.1750    4.7432  -17.6678 C   0  0  0  0  0  0  0  0  0  0  0  0
   -6.1776    5.1531  -18.4885 N   0  0  0  0  0  0  0  0  0  0  0  0
   -4.7747    5.7526  -18.1575 C   0  0  0  0  0  0  0  0  0  0  0  0
   -4.3019    6.0536  -17.1295 O   0  0  0  0  0  0  0  0  0  0  0  0
   -3.9964    5.8004  -19.4842 C   0  0  2  0  0  0  0  0  0  0  0  0
   -2.6544    5.5661  -19.2933 F   0  0  0  0  0  0  0  0  0  0  0  0
   -4.0991    7.1316  -20.2178 C   0  0  0  0  0  0  0  0  0  0  0  0
   -5.5002    7.5596  -20.6071 C   0  0  0  0  0  0  0  0  0  0  0  0
  1  2  1  0
  2  3  1  0
  3  4  1  0
  4  5  2  0
  4  6  1  0
  6  7  1  0
  7  8  1  0
  8  9  2  0
  9 10  1  0
 10 11  1  0
 11 12  1  0
 12 13  2  0
 12 14  1  0
 14 15  1  1
 14 16  1  0
 16 17  1  0
 10  6  2  0
M  END
>  <energy_score>  (4110) 
-6.186751

>  <alias>  (4110) 
ORYZGNKDJVCVLY-UHFFFAOYSA-N-P35-P35-P86-601528

>  <HIPPO Pose ID>  (4110) 
82247

>  <smiles>  (4110) 
CCOC(=O)c1[nH]cnc1NC(=O)C(F)CC

>  <inchikey>  (4110) 
ORYZGNKDJVCVLY-UHFFFAOYSA-N

>  <distance_score>  (4110) 
1.833122

>  <ref_mols>  (4110) 
Z0719a,Z1597a

>  <ref_pdb>  (4110) 
Z0719a

>  <HIPPO Compound ID>  (4110) 
151909

>  <name>  (4110) 
ORYZGNKDJVCVLY-UHFFFAOYSA-N-P35-P35-P86-601528

>  <inspiration_score>  (4110) 
None

$$$$
ANOHVNSEVLFSNC-UHFFFAOYSA-N-P86-P35-P86-601528
     RDKit          3D

 17 17  0  0  0  0  0  0  0  0999 V2000
   -2.7680    7.7560  -20.3624 C   0  0  0  0  0  0  0  0  0  0  0  0
   -3.7311    6.8208  -20.3021 C   0  0  0  0  0  0  0  0  0  0  0  0
   -4.9814    6.9355  -21.1211 C   0  0  0  0  0  0  0  0  0  0  0  0
   -3.5760    5.5877  -19.4425 C   0  0  0  0  0  0  0  0  0  0  0  0
   -4.3672    5.6394  -18.1191 C   0  0  0  0  0  0  0  0  0  0  0  0
   -3.8816    5.9322  -17.0945 O   0  0  0  0  0  0  0  0  0  0  0  0
   -5.8168    5.1683  -18.4527 N   0  0  0  0  0  0  0  0  0  0  0  0
   -6.8774    4.8864  -17.6233 C   0  0  0  0  0  0  0  0  0  0  0  0
   -8.0526    4.2986  -18.0440 C   0  0  0  0  0  0  0  0  0  0  0  0
   -8.4429    3.7977  -19.3537 C   0  0  0  0  0  0  0  0  0  0  0  0
   -8.9172    4.1025  -17.0248 N   0  0  0  0  0  0  0  0  0  0  0  0
   -8.2967    4.5301  -15.9552 C   0  0  0  0  0  0  0  0  0  0  0  0
   -8.9144    4.4323  -14.6301 C   0  0  0  0  0  0  0  0  0  0  0  0
   -7.0512    5.0372  -16.2582 N   0  0  0  0  0  0  0  0  0  0  0  0
   -6.0969    5.6045  -15.3422 C   0  0  0  0  0  0  0  0  0  0  0  0
   -6.5116    6.0405  -13.9334 C   0  0  0  0  0  0  0  0  0  0  0  0
   -6.5097    4.9284  -12.8915 C   0  0  0  0  0  0  0  0  0  0  0  0
  1  2  2  0
  2  3  1  0
  2  4  1  0
  4  5  1  0
  5  6  2  0
  5  7  1  0
  7  8  1  0
  8  9  2  0
  9 10  1  0
  9 11  1  0
 11 12  2  0
 12 13  1  0
 12 14  1  0
 14 15  1  0
 15 16  1  0
 16 17  1  0
 14  8  1  0
M  END
>  <energy_score>  (4111) 
-9.49001

>  <alias>  (4111) 
ANOHVNSEVLFSNC-UHFFFAOYSA-N-P86-P35-P86-601528

>  <HIPPO Pose ID>  (4111) 
82252

>  <smiles>  (4111) 
C=C(C)CC(=O)Nc1c(C)nc(C)n1CCC

>  <inchikey>  (4111) 
ANOHVNSEVLFSNC-UHFFFAOYSA-N

>  <distance_score>  (4111) 
1.612415

>  <ref_mols>  (4111) 
Z0719a,Z1597a

>  <ref_pdb>  (4111) 
Z0719a

>  <HIPPO Compound ID>  (4111) 
151911

>  <name>  (4111) 
ANOHVNSEVLFSNC-UHFFFAOYSA-N-P86-P35-P86-601528

>  <inspiration_score>  (4111) 
None

$$$$
FOKGBUUAVSXZID-UHFFFAOYSA-N-P35-P35-P86-601528
     RDKit          3D

 17 18  0  0  0  0  0  0  0  0999 V2000
   -4.5156    4.3537  -17.7427 O   0  0  0  0  0  0  0  0  0  0  0  0
   -5.1788    4.8875  -18.5447 C   0  0  0  0  0  0  0  0  0  0  0  0
   -4.5782    5.7401  -19.6386 C   0  0  0  0  0  0  0  0  0  0  0  0
   -3.8649    6.9491  -19.0359 C   0  0  0  0  0  0  0  0  0  0  0  0
   -4.7048    7.7861  -18.0530 C   0  0  0  0  0  0  0  0  0  0  0  0
   -4.8639    7.0708  -16.4088 Cl  0  0  0  0  0  0  0  0  0  0  0  0
   -6.7258    4.9821  -18.6723 N   0  0  0  0  0  0  0  0  0  0  0  0
   -7.7147    4.5448  -17.8340 C   0  0  0  0  0  0  0  0  0  0  0  0
   -9.0341    4.3583  -18.1740 C   0  0  0  0  0  0  0  0  0  0  0  0
   -9.8139    4.2081  -17.0689 N   0  0  0  0  0  0  0  0  0  0  0  0
   -9.0250    4.4225  -16.0358 C   0  0  0  0  0  0  0  0  0  0  0  0
   -9.3680    4.6301  -14.7197 N   0  0  0  0  0  0  0  0  0  0  0  0
   -8.3868    4.6934  -13.8775 C   0  0  0  0  0  0  0  0  0  0  0  0
   -6.9474    4.6441  -14.2200 C   0  0  0  0  0  0  0  0  0  0  0  0
   -5.6959    4.9433  -12.9073 Br  0  0  0  0  0  0  0  0  0  0  0  0
   -6.6693    4.4957  -15.5189 C   0  0  0  0  0  0  0  0  0  0  0  0
   -7.6878    4.4340  -16.4515 N   0  0  0  0  0  0  0  0  0  0  0  0
  1  2  2  0
  2  3  1  0
  3  4  1  0
  4  5  1  0
  5  6  1  0
  2  7  1  0
  7  8  1  0
  8  9  2  0
  9 10  1  0
 10 11  2  0
 11 12  1  0
 12 13  2  0
 13 14  1  0
 14 15  1  0
 14 16  2  0
 16 17  1  0
 17  8  1  0
 17 11  1  0
M  END
>  <energy_score>  (4112) 
-17.938905

>  <alias>  (4112) 
FOKGBUUAVSXZID-UHFFFAOYSA-N-P35-P35-P86-601528

>  <HIPPO Pose ID>  (4112) 
82259

>  <smiles>  (4112) 
O=C(CCCCl)Nc1cnc2ncc(Br)cn12

>  <inchikey>  (4112) 
FOKGBUUAVSXZID-UHFFFAOYSA-N

>  <distance_score>  (4112) 
1.591722

>  <ref_mols>  (4112) 
Z0719a,Z1597a

>  <ref_pdb>  (4112) 
Z0719a

>  <HIPPO Compound ID>  (4112) 
151915

>  <name>  (4112) 
FOKGBUUAVSXZID-UHFFFAOYSA-N-P35-P35-P86-601528

>  <inspiration_score>  (4112) 
None

$$$$
ILXHRTAIDQDGEE-UHFFFAOYSA-N-P86-P35-P86-601528
     RDKit          3D

 17 18  0  0  0  0  0  0  0  0999 V2000
   -8.7263    3.6256  -18.8495 C   0  0  0  0  0  0  0  0  0  0  0  0
   -8.2797    4.1656  -17.5588 C   0  0  0  0  0  0  0  0  0  0  0  0
   -9.0402    3.8975  -16.4424 N   0  0  0  0  0  0  0  0  0  0  0  0
   -8.4598    4.5292  -15.4451 C   0  0  0  0  0  0  0  0  0  0  0  0
   -8.9157    4.5627  -14.0454 C   0  0  0  0  0  0  0  0  0  0  0  0
   -7.3491    5.1946  -15.8825 N   0  0  0  0  0  0  0  0  0  0  0  0
   -6.3862    5.9455  -15.0340 C   0  0  0  0  0  0  0  0  0  0  0  0
   -5.5818    5.2144  -13.9831 C   0  0  0  0  0  0  0  0  0  0  0  0
   -6.4924    6.3275  -13.5740 C   0  0  0  0  0  0  0  0  0  0  0  0
   -7.2326    5.0076  -17.2433 C   0  0  0  0  0  0  0  0  0  0  0  0
   -6.2701    5.5997  -18.0136 N   0  0  0  0  0  0  0  0  0  0  0  0
   -5.7105    5.2049  -19.4079 C   0  0  0  0  0  0  0  0  0  0  0  0
   -6.0394    4.3601  -20.1437 O   0  0  0  0  0  0  0  0  0  0  0  0
   -4.6177    6.2054  -19.7460 C   0  0  0  0  0  0  0  0  0  0  0  0
   -3.2353    5.6266  -19.4941 C   0  0  0  0  0  0  0  0  0  0  0  0
   -2.6756    5.8698  -18.0845 C   0  0  0  0  0  0  0  0  0  0  0  0
   -3.5810    5.0755  -16.7612 Cl  0  0  0  0  0  0  0  0  0  0  0  0
  1  2  1  0
  2  3  1  0
  3  4  2  0
  4  5  1  0
  4  6  1  0
  6  7  1  0
  7  8  1  0
  8  9  1  0
  6 10  1  0
 10 11  1  0
 11 12  1  0
 12 13  2  0
 12 14  1  0
 14 15  1  0
 15 16  1  0
 16 17  1  0
 10  2  2  0
  9  7  1  0
M  END
>  <energy_score>  (4113) 
-8.839876

>  <alias>  (4113) 
ILXHRTAIDQDGEE-UHFFFAOYSA-N-P86-P35-P86-601528

>  <HIPPO Pose ID>  (4113) 
82262

>  <smiles>  (4113) 
Cc1nc(C)n(C2CC2)c1NC(=O)CCCCl

>  <inchikey>  (4113) 
ILXHRTAIDQDGEE-UHFFFAOYSA-N

>  <distance_score>  (4113) 
1.967437

>  <ref_mols>  (4113) 
Z0719a,Z1597a

>  <ref_pdb>  (4113) 
Z0719a

>  <HIPPO Compound ID>  (4113) 
151916

>  <name>  (4113) 
ILXHRTAIDQDGEE-UHFFFAOYSA-N-P86-P35-P86-601528

>  <inspiration_score>  (4113) 
None

$$$$
VJAICZBTLFOKDU-UHFFFAOYSA-N-P86-P35-P86-601528
     RDKit          3D

 17 17  0  0  0  0  0  0  0  0999 V2000
   -4.4463    7.0282  -22.1993 C   0  0  0  0  0  0  0  0  0  0  0  0
   -4.4920    6.2558  -20.8890 C   0  0  0  0  0  0  0  0  0  0  0  0
   -4.6807    7.1942  -19.7045 C   0  0  1  0  0  0  0  0  0  0  0  0
   -5.8309    7.9124  -19.8806 F   0  0  0  0  0  0  0  0  0  0  0  0
   -4.7089    6.4517  -18.3680 C   0  0  0  0  0  0  0  0  0  0  0  0
   -3.7855    6.4262  -17.6483 O   0  0  0  0  0  0  0  0  0  0  0  0
   -6.1357    5.8498  -18.2007 N   0  0  0  0  0  0  0  0  0  0  0  0
   -6.7052    5.2207  -17.1475 C   0  0  0  0  0  0  0  0  0  0  0  0
   -6.1669    5.0518  -15.9018 C   0  0  0  0  0  0  0  0  0  0  0  0
   -7.1189    4.3988  -15.1707 N   0  0  0  0  0  0  0  0  0  0  0  0
   -7.1094    4.1181  -13.7463 C   0  0  0  0  0  0  0  0  0  0  0  0
   -5.8542    3.5909  -13.0979 C   0  0  0  0  0  0  0  0  0  0  0  0
   -5.9676    2.3005  -12.7307 F   0  0  0  0  0  0  0  0  0  0  0  0
   -5.6154    4.2911  -11.9547 F   0  0  0  0  0  0  0  0  0  0  0  0
   -4.7580    3.7344  -13.8606 F   0  0  0  0  0  0  0  0  0  0  0  0
   -8.2036    4.2462  -15.9984 C   0  0  0  0  0  0  0  0  0  0  0  0
   -7.9689    4.7319  -17.1993 N   0  0  0  0  0  0  0  0  0  0  0  0
  1  2  1  0
  2  3  1  0
  3  4  1  6
  3  5  1  0
  5  6  2  0
  5  7  1  0
  7  8  1  0
  8  9  2  0
  9 10  1  0
 10 11  1  0
 11 12  1  0
 12 13  1  0
 12 14  1  0
 12 15  1  0
 10 16  1  0
 16 17  2  0
 17  8  1  0
M  END
>  <energy_score>  (4114) 
-8.472071

>  <alias>  (4114) 
VJAICZBTLFOKDU-UHFFFAOYSA-N-P86-P35-P86-601528

>  <HIPPO Pose ID>  (4114) 
82272

>  <smiles>  (4114) 
CCC(F)C(=O)Nc1cn(CC(F)(F)F)cn1

>  <inchikey>  (4114) 
VJAICZBTLFOKDU-UHFFFAOYSA-N

>  <distance_score>  (4114) 
1.674114

>  <ref_mols>  (4114) 
Z0719a,Z1597a

>  <ref_pdb>  (4114) 
Z0719a

>  <HIPPO Compound ID>  (4114) 
151921

>  <name>  (4114) 
VJAICZBTLFOKDU-UHFFFAOYSA-N-P86-P35-P86-601528

>  <inspiration_score>  (4114) 
None

$$$$
UKACWVVTLSWLSR-UHFFFAOYSA-N-P86-P35-P86-601528
     RDKit          3D

 17 17  0  0  0  0  0  0  0  0999 V2000
   -6.5195    5.2842  -12.6086 C   0  0  0  0  0  0  0  0  0  0  0  0
   -6.0088    4.5737  -13.8563 C   0  0  0  0  0  0  0  0  0  0  0  0
   -6.2454    5.3564  -15.1493 C   0  0  0  0  0  0  0  0  0  0  0  0
   -7.1000    4.7460  -16.1367 N   0  0  0  0  0  0  0  0  0  0  0  0
   -8.4040    4.4054  -15.8451 C   0  0  0  0  0  0  0  0  0  0  0  0
   -8.9805    4.4905  -14.4994 C   0  0  0  0  0  0  0  0  0  0  0  0
   -9.0688    4.0514  -16.9148 N   0  0  0  0  0  0  0  0  0  0  0  0
   -8.1847    4.1837  -17.9357 C   0  0  0  0  0  0  0  0  0  0  0  0
   -8.6006    3.7531  -19.2695 C   0  0  0  0  0  0  0  0  0  0  0  0
   -6.9532    4.6333  -17.4998 C   0  0  0  0  0  0  0  0  0  0  0  0
   -5.8963    4.8932  -18.3312 N   0  0  0  0  0  0  0  0  0  0  0  0
   -4.3715    4.9954  -18.0274 C   0  0  0  0  0  0  0  0  0  0  0  0
   -3.7805    4.7970  -17.0369 O   0  0  0  0  0  0  0  0  0  0  0  0
   -3.7189    5.5339  -19.2880 C   0  0  0  0  0  0  0  0  0  0  0  0
   -4.0984    6.9930  -19.5479 C   0  0  0  0  0  0  0  0  0  0  0  0
   -3.7519    7.9287  -18.3774 C   0  0  0  0  0  0  0  0  0  0  0  0
   -4.8319    7.7416  -16.9549 Cl  0  0  0  0  0  0  0  0  0  0  0  0
  1  2  1  0
  2  3  1  0
  3  4  1  0
  4  5  1  0
  5  6  1  0
  5  7  2  0
  7  8  1  0
  8  9  1  0
  8 10  2  0
 10 11  1  0
 11 12  1  0
 12 13  2  0
 12 14  1  0
 14 15  1  0
 15 16  1  0
 16 17  1  0
 10  4  1  0
M  END
>  <energy_score>  (4115) 
-6.953914

>  <alias>  (4115) 
UKACWVVTLSWLSR-UHFFFAOYSA-N-P86-P35-P86-601528

>  <HIPPO Pose ID>  (4115) 
82282

>  <smiles>  (4115) 
CCCn1c(C)nc(C)c1NC(=O)CCCCl

>  <inchikey>  (4115) 
UKACWVVTLSWLSR-UHFFFAOYSA-N

>  <distance_score>  (4115) 
1.849642

>  <ref_mols>  (4115) 
Z0719a,Z1597a

>  <ref_pdb>  (4115) 
Z0719a

>  <HIPPO Compound ID>  (4115) 
151926

>  <name>  (4115) 
UKACWVVTLSWLSR-UHFFFAOYSA-N-P86-P35-P86-601528

>  <inspiration_score>  (4115) 
None

$$$$
UREPZHITNIOCIY-UHFFFAOYSA-N-P86-P35-P86-601528
     RDKit          3D

 17 17  0  0  0  0  0  0  0  0999 V2000
   -6.8354    3.8605  -13.0938 C   0  0  0  0  0  0  0  0  0  0  0  0
   -6.2837    5.1899  -13.5732 C   0  0  0  0  0  0  0  0  0  0  0  0
   -6.0715    5.3554  -15.0866 C   0  0  0  0  0  0  0  0  0  0  0  0
   -7.1384    5.1039  -16.0159 N   0  0  0  0  0  0  0  0  0  0  0  0
   -8.4809    5.0304  -15.7181 C   0  0  0  0  0  0  0  0  0  0  0  0
   -9.1159    5.6826  -14.5491 C   0  0  0  0  0  0  0  0  0  0  0  0
   -9.1290    4.4139  -16.6813 N   0  0  0  0  0  0  0  0  0  0  0  0
   -8.2473    4.3462  -17.7177 C   0  0  0  0  0  0  0  0  0  0  0  0
   -8.6983    3.8285  -19.0088 C   0  0  0  0  0  0  0  0  0  0  0  0
   -7.0269    4.8878  -17.3720 C   0  0  0  0  0  0  0  0  0  0  0  0
   -6.0002    5.1388  -18.2434 N   0  0  0  0  0  0  0  0  0  0  0  0
   -4.6059    5.8044  -18.0041 C   0  0  0  0  0  0  0  0  0  0  0  0
   -4.1598    6.3056  -17.0449 O   0  0  0  0  0  0  0  0  0  0  0  0
   -3.9087    5.7607  -19.3797 C   0  0  2  0  0  0  0  0  0  0  0  0
   -1.9757    5.7832  -19.1034 Br  0  0  0  0  0  0  0  0  0  0  0  0
   -4.3434    6.9314  -20.2607 C   0  0  0  0  0  0  0  0  0  0  0  0
   -4.1498    6.6709  -21.7456 C   0  0  0  0  0  0  0  0  0  0  0  0
  1  2  1  0
  2  3  1  0
  3  4  1  0
  4  5  1  0
  5  6  1  0
  5  7  2  0
  7  8  1  0
  8  9  1  0
  8 10  2  0
 10 11  1  0
 11 12  1  0
 12 13  2  0
 12 14  1  0
 14 15  1  1
 14 16  1  0
 16 17  1  0
 10  4  1  0
M  END
>  <energy_score>  (4116) 
-13.899975

>  <alias>  (4116) 
UREPZHITNIOCIY-UHFFFAOYSA-N-P86-P35-P86-601528

>  <HIPPO Pose ID>  (4116) 
82290

>  <smiles>  (4116) 
CCCn1c(C)nc(C)c1NC(=O)C(Br)CC

>  <inchikey>  (4116) 
UREPZHITNIOCIY-UHFFFAOYSA-N

>  <distance_score>  (4116) 
1.425746

>  <ref_mols>  (4116) 
Z0719a,Z1597a

>  <ref_pdb>  (4116) 
Z0719a

>  <HIPPO Compound ID>  (4116) 
151930

>  <name>  (4116) 
UREPZHITNIOCIY-UHFFFAOYSA-N-P86-P35-P86-601528

>  <inspiration_score>  (4116) 
None

$$$$
UDDOBCNBLHIYLL-UHFFFAOYSA-N-P35-P35-P86-601528
     RDKit          3D

 17 18  0  0  0  0  0  0  0  0999 V2000
   -4.5403    8.4201  -19.9101 C   0  0  0  0  0  0  0  0  0  0  0  0
   -4.5895    6.9900  -20.4375 C   0  0  0  0  0  0  0  0  0  0  0  0
   -4.0728    5.9358  -19.4627 C   0  0  1  0  0  0  0  0  0  0  0  0
   -2.1248    6.0416  -19.3027 Br  0  0  0  0  0  0  0  0  0  0  0  0
   -4.7190    5.9724  -18.0682 C   0  0  0  0  0  0  0  0  0  0  0  0
   -4.1884    6.3652  -17.1021 O   0  0  0  0  0  0  0  0  0  0  0  0
   -6.1394    5.3505  -18.2609 N   0  0  0  0  0  0  0  0  0  0  0  0
   -7.0998    5.0190  -17.3374 C   0  0  0  0  0  0  0  0  0  0  0  0
   -8.3394    4.4818  -17.6361 C   0  0  0  0  0  0  0  0  0  0  0  0
   -8.9228    4.1568  -18.9383 C   0  0  0  0  0  0  0  0  0  0  0  0
   -9.0850    4.2568  -16.5138 N   0  0  0  0  0  0  0  0  0  0  0  0
   -8.3365    4.6624  -15.5144 C   0  0  0  0  0  0  0  0  0  0  0  0
   -8.7400    4.6743  -14.0933 C   0  0  0  0  0  0  0  0  0  0  0  0
   -7.1102    5.0863  -15.9656 N   0  0  0  0  0  0  0  0  0  0  0  0
   -6.0414    5.5493  -15.0703 C   0  0  0  0  0  0  0  0  0  0  0  0
   -4.8291    4.7026  -14.7884 C   0  0  0  0  0  0  0  0  0  0  0  0
   -5.7813    4.9903  -13.6793 C   0  0  0  0  0  0  0  0  0  0  0  0
  1  2  1  0
  2  3  1  0
  3  4  1  1
  3  5  1  0
  5  6  2  0
  5  7  1  0
  7  8  1  0
  8  9  2  0
  9 10  1  0
  9 11  1  0
 11 12  2  0
 12 13  1  0
 12 14  1  0
 14 15  1  0
 15 16  1  0
 16 17  1  0
 14  8  1  0
 17 15  1  0
M  END
>  <energy_score>  (4117) 
-13.765289

>  <alias>  (4117) 
UDDOBCNBLHIYLL-UHFFFAOYSA-N-P35-P35-P86-601528

>  <HIPPO Pose ID>  (4117) 
82295

>  <smiles>  (4117) 
CCC(Br)C(=O)Nc1c(C)nc(C)n1C1CC1

>  <inchikey>  (4117) 
UDDOBCNBLHIYLL-UHFFFAOYSA-N

>  <distance_score>  (4117) 
1.636452

>  <ref_mols>  (4117) 
Z0719a,Z1597a

>  <ref_pdb>  (4117) 
Z0719a

>  <HIPPO Compound ID>  (4117) 
151933

>  <name>  (4117) 
UDDOBCNBLHIYLL-UHFFFAOYSA-N-P35-P35-P86-601528

>  <inspiration_score>  (4117) 
None

$$$$
XKFVXYXMFGLDSB-UHFFFAOYSA-N-P86-P35-P86-601528
     RDKit          3D

 17 18  0  0  0  0  0  0  0  0999 V2000
   -2.0572    2.9433   -9.2587 C   0  0  0  0  0  0  0  0  0  0  0  0
   -2.5838    1.5129   -9.2763 C   0  0  0  0  0  0  0  0  0  0  0  0
   -2.9199    0.9552  -10.6569 C   0  0  2  0  0  0  0  0  0  0  0  0
   -1.2848    0.6578  -11.7042 Br  0  0  0  0  0  0  0  0  0  0  0  0
   -3.9605    1.7957  -11.4080 C   0  0  0  0  0  0  0  0  0  0  0  0
   -5.1004    1.6626  -11.1908 O   0  0  0  0  0  0  0  0  0  0  0  0
   -3.2289    2.7537  -12.3832 N   0  0  0  0  0  0  0  0  0  0  0  0
   -3.7120    3.7457  -13.1707 C   0  0  0  0  0  0  0  0  0  0  0  0
   -2.8047    4.4932  -13.8951 N   0  0  0  0  0  0  0  0  0  0  0  0
   -3.5577    5.2821  -14.6055 C   0  0  0  0  0  0  0  0  0  0  0  0
   -4.8776    5.0964  -14.3713 N   0  0  0  0  0  0  0  0  0  0  0  0
   -5.0187    4.1056  -13.4537 C   0  0  0  0  0  0  0  0  0  0  0  0
   -6.2652    3.5786  -13.0362 C   0  0  0  0  0  0  0  0  0  0  0  0
   -7.3509    3.2693  -12.7714 N   0  0  0  0  0  0  0  0  0  0  0  0
   -5.8113    5.8238  -15.1992 C   0  0  0  0  0  0  0  0  0  0  0  0
   -5.0140    6.9526  -15.8627 C   0  0  0  0  0  0  0  0  0  0  0  0
   -3.2447    6.4549  -15.8163 S   0  0  0  0  0  0  0  0  0  0  0  0
  1  2  1  0
  2  3  1  0
  3  4  1  6
  3  5  1  0
  5  6  2  0
  5  7  1  0
  7  8  1  0
  8  9  1  0
  9 10  2  0
 10 11  1  0
 11 12  1  0
 12 13  1  0
 13 14  3  0
 11 15  1  0
 15 16  1  0
 16 17  1  0
 12  8  2  0
 17 10  1  0
M  END
>  <energy_score>  (4118) 
-34.541963

>  <alias>  (4118) 
XKFVXYXMFGLDSB-UHFFFAOYSA-N-P86-P35-P86-601528

>  <HIPPO Pose ID>  (4118) 
82298

>  <smiles>  (4118) 
CCC(Br)C(=O)Nc1nc2n(c1C#N)CCS2

>  <inchikey>  (4118) 
XKFVXYXMFGLDSB-UHFFFAOYSA-N

>  <distance_score>  (4118) 
1.707192

>  <ref_mols>  (4118) 
Z0719a,Z1597a

>  <ref_pdb>  (4118) 
Z0719a

>  <HIPPO Compound ID>  (4118) 
151934

>  <name>  (4118) 
XKFVXYXMFGLDSB-UHFFFAOYSA-N-P86-P35-P86-601528

>  <inspiration_score>  (4118) 
None

$$$$
WQWZNUXEEUNHBP-UHFFFAOYSA-N-P35-P35-P86-601528
     RDKit          3D

 17 17  0  0  0  0  0  0  0  0999 V2000
   -4.1756    7.7674  -22.4779 C   0  0  0  0  0  0  0  0  0  0  0  0
   -3.9618    7.2029  -21.0791 C   0  0  0  0  0  0  0  0  0  0  0  0
   -5.2652    7.0656  -20.2946 C   0  0  2  0  0  0  0  0  0  0  0  0
   -5.7284    8.8380  -19.5524 Br  0  0  0  0  0  0  0  0  0  0  0  0
   -5.0976    6.1720  -19.0625 C   0  0  0  0  0  0  0  0  0  0  0  0
   -4.0516    5.9868  -18.5660 O   0  0  0  0  0  0  0  0  0  0  0  0
   -6.5217    5.7159  -18.6188 N   0  0  0  0  0  0  0  0  0  0  0  0
   -6.9279    5.0679  -17.5045 C   0  0  0  0  0  0  0  0  0  0  0  0
   -6.1472    4.7003  -16.4426 C   0  0  0  0  0  0  0  0  0  0  0  0
   -7.0190    4.2408  -15.4945 N   0  0  0  0  0  0  0  0  0  0  0  0
   -6.7216    4.0499  -14.0911 C   0  0  0  0  0  0  0  0  0  0  0  0
   -5.8390    2.8982  -13.7271 C   0  0  0  0  0  0  0  0  0  0  0  0
   -5.4502    3.0652  -12.4458 F   0  0  0  0  0  0  0  0  0  0  0  0
   -6.4696    1.7096  -13.7981 F   0  0  0  0  0  0  0  0  0  0  0  0
   -4.7047    2.8538  -14.4556 F   0  0  0  0  0  0  0  0  0  0  0  0
   -8.2713    4.3043  -16.0456 C   0  0  0  0  0  0  0  0  0  0  0  0
   -8.2375    4.8089  -17.2602 N   0  0  0  0  0  0  0  0  0  0  0  0
  1  2  1  0
  2  3  1  0
  3  4  1  1
  3  5  1  0
  5  6  2  0
  5  7  1  0
  7  8  1  0
  8  9  2  0
  9 10  1  0
 10 11  1  0
 11 12  1  0
 12 13  1  0
 12 14  1  0
 12 15  1  0
 10 16  1  0
 16 17  2  0
 17  8  1  0
M  END
>  <energy_score>  (4119) 
-12.674327

>  <alias>  (4119) 
WQWZNUXEEUNHBP-UHFFFAOYSA-N-P35-P35-P86-601528

>  <HIPPO Pose ID>  (4119) 
82311

>  <smiles>  (4119) 
CCC(Br)C(=O)Nc1cn(CC(F)(F)F)cn1

>  <inchikey>  (4119) 
WQWZNUXEEUNHBP-UHFFFAOYSA-N

>  <distance_score>  (4119) 
1.844806

>  <ref_mols>  (4119) 
Z0719a,Z1597a

>  <ref_pdb>  (4119) 
Z0719a

>  <HIPPO Compound ID>  (4119) 
151941

>  <name>  (4119) 
WQWZNUXEEUNHBP-UHFFFAOYSA-N-P35-P35-P86-601528

>  <inspiration_score>  (4119) 
None

$$$$
ZMBUATQHXGPUCC-UHFFFAOYSA-N-P86-P35-P86-601528
     RDKit          3D

 17 18  0  0  0  0  0  0  0  0999 V2000
   -3.1574    5.7802  -20.3367 O   0  0  0  0  0  0  0  0  0  0  0  0
   -4.2156    5.8191  -20.8306 C   0  0  0  0  0  0  0  0  0  0  0  0
   -4.4349    6.3604  -22.2277 C   0  0  0  0  0  0  0  0  0  0  0  0
   -4.6279    7.8656  -22.1156 C   0  0  0  0  0  0  0  0  0  0  0  0
   -3.3204    8.6423  -21.9608 C   0  0  0  0  0  0  0  0  0  0  0  0
   -2.3575    8.5975  -23.4604 Cl  0  0  0  0  0  0  0  0  0  0  0  0
   -5.6120    5.4743  -20.2464 N   0  0  0  0  0  0  0  0  0  0  0  0
   -5.9758    5.1274  -18.9962 C   0  0  0  0  0  0  0  0  0  0  0  0
   -7.2311    4.7652  -18.5676 C   0  0  0  0  0  0  0  0  0  0  0  0
   -7.1319    4.7343  -17.2076 N   0  0  0  0  0  0  0  0  0  0  0  0
   -8.1567    4.5779  -16.3322 N   0  0  0  0  0  0  0  0  0  0  0  0
   -7.7629    4.7078  -15.1061 C   0  0  0  0  0  0  0  0  0  0  0  0
   -8.9617    4.6895  -13.8949 Cl  0  0  0  0  0  0  0  0  0  0  0  0
   -6.3802    4.9485  -14.6357 C   0  0  0  0  0  0  0  0  0  0  0  0
   -5.4415    5.1329  -15.5586 C   0  0  0  0  0  0  0  0  0  0  0  0
   -5.8151    5.0522  -16.9068 C   0  0  0  0  0  0  0  0  0  0  0  0
   -5.0961    5.2601  -17.9770 N   0  0  0  0  0  0  0  0  0  0  0  0
  1  2  2  0
  2  3  1  0
  3  4  1  0
  4  5  1  0
  5  6  1  0
  2  7  1  0
  7  8  1  0
  8  9  2  0
  9 10  1  0
 10 11  1  0
 11 12  2  0
 12 13  1  0
 12 14  1  0
 14 15  2  0
 15 16  1  0
 16 17  2  0
 17  8  1  0
 16 10  1  0
M  END
>  <energy_score>  (4120) 
-9.648006

>  <alias>  (4120) 
ZMBUATQHXGPUCC-UHFFFAOYSA-N-P86-P35-P86-601528

>  <HIPPO Pose ID>  (4120) 
82316

>  <smiles>  (4120) 
O=C(CCCCl)Nc1cn2nc(Cl)ccc2n1

>  <inchikey>  (4120) 
ZMBUATQHXGPUCC-UHFFFAOYSA-N

>  <distance_score>  (4120) 
1.920236

>  <ref_mols>  (4120) 
Z0719a,Z1597a

>  <ref_pdb>  (4120) 
Z0719a

>  <HIPPO Compound ID>  (4120) 
151943

>  <name>  (4120) 
ZMBUATQHXGPUCC-UHFFFAOYSA-N-P86-P35-P86-601528

>  <inspiration_score>  (4120) 
None

$$$$
RHTAQQXNSZGNTF-UHFFFAOYSA-N-P35-P35-P86-601528
     RDKit          3D

 17 18  0  0  0  0  0  0  0  0999 V2000
    1.4673    6.9020  -12.7907 N   0  0  0  0  0  0  0  0  0  0  0  0
    1.5886    5.7532  -12.8832 C   0  0  0  0  0  0  0  0  0  0  0  0
    1.7429    4.3530  -12.9934 C   0  0  0  0  0  0  0  0  0  0  0  0
    0.7854    3.3557  -13.0849 C   0  0  0  0  0  0  0  0  0  0  0  0
   -0.5678    3.5203  -13.0970 N   0  0  0  0  0  0  0  0  0  0  0  0
   -1.7144    2.4664  -13.0727 C   0  0  0  0  0  0  0  0  0  0  0  0
   -1.6710    1.2997  -13.1163 O   0  0  0  0  0  0  0  0  0  0  0  0
   -3.0097    3.2830  -13.0640 C   0  0  0  0  0  0  0  0  0  0  0  0
   -4.2560    2.4033  -12.9846 C   0  0  0  0  0  0  0  0  0  0  0  0
   -5.5161    3.1857  -13.3097 C   0  0  0  0  0  0  0  0  0  0  0  0
   -6.9275    2.1342  -13.1932 Cl  0  0  0  0  0  0  0  0  0  0  0  0
    1.3627    2.1111  -13.1987 N   0  0  0  0  0  0  0  0  0  0  0  0
    2.6410    2.3566  -13.1722 C   0  0  0  0  0  0  0  0  0  0  0  0
    2.9172    3.6765  -13.0453 N   0  0  0  0  0  0  0  0  0  0  0  0
    4.3082    4.0688  -13.0543 C   0  0  0  0  0  0  0  0  0  0  0  0
    5.1229    2.7957  -12.7935 C   0  0  0  0  0  0  0  0  0  0  0  0
    4.0473    1.3803  -13.2669 S   0  0  0  0  0  0  0  0  0  0  0  0
  1  2  3  0
  2  3  1  0
  3  4  2  0
  4  5  1  0
  5  6  1  0
  6  7  2  0
  6  8  1  0
  8  9  1  0
  9 10  1  0
 10 11  1  0
  4 12  1  0
 12 13  2  0
 13 14  1  0
 14 15  1  0
 15 16  1  0
 16 17  1  0
 14  3  1  0
 17 13  1  0
M  END
>  <energy_score>  (4121) 
-33.08347

>  <alias>  (4121) 
RHTAQQXNSZGNTF-UHFFFAOYSA-N-P35-P35-P86-601528

>  <HIPPO Pose ID>  (4121) 
82323

>  <smiles>  (4121) 
N#Cc1c(NC(=O)CCCCl)nc2n1CCS2

>  <inchikey>  (4121) 
RHTAQQXNSZGNTF-UHFFFAOYSA-N

>  <distance_score>  (4121) 
1.268301

>  <ref_mols>  (4121) 
Z0719a,Z1597a

>  <ref_pdb>  (4121) 
Z0719a

>  <HIPPO Compound ID>  (4121) 
151947

>  <name>  (4121) 
RHTAQQXNSZGNTF-UHFFFAOYSA-N-P35-P35-P86-601528

>  <inspiration_score>  (4121) 
None

$$$$
SYXOKBLJWPYOKR-UHFFFAOYSA-N-P35-P35-P86-601528
     RDKit          3D

 17 17  0  0  0  0  0  0  0  0999 V2000
   -8.8185    4.2059  -18.8660 C   0  0  0  0  0  0  0  0  0  0  0  0
   -8.2872    4.4495  -17.5201 C   0  0  0  0  0  0  0  0  0  0  0  0
   -9.1217    4.3052  -16.4537 N   0  0  0  0  0  0  0  0  0  0  0  0
   -8.4041    4.6124  -15.4002 C   0  0  0  0  0  0  0  0  0  0  0  0
   -8.9061    4.6277  -14.0114 C   0  0  0  0  0  0  0  0  0  0  0  0
   -7.1024    4.9063  -15.7477 N   0  0  0  0  0  0  0  0  0  0  0  0
   -6.0340    5.0957  -14.7806 C   0  0  0  0  0  0  0  0  0  0  0  0
   -6.0166    4.0919  -13.6189 C   0  0  0  0  0  0  0  0  0  0  0  0
   -6.0108    6.5231  -14.2454 C   0  0  0  0  0  0  0  0  0  0  0  0
   -7.0272    4.8630  -17.1267 C   0  0  0  0  0  0  0  0  0  0  0  0
   -5.9869    5.1230  -17.9862 N   0  0  0  0  0  0  0  0  0  0  0  0
   -4.6422    5.8888  -17.7515 C   0  0  0  0  0  0  0  0  0  0  0  0
   -4.2570    6.4775  -16.8127 O   0  0  0  0  0  0  0  0  0  0  0  0
   -3.8560    5.8107  -19.0884 C   0  0  0  0  0  0  0  0  0  0  0  0
   -4.3923    6.7836  -20.1239 C   0  0  0  0  0  0  0  0  0  0  0  0
   -3.8982    4.5535  -19.6227 F   0  0  0  0  0  0  0  0  0  0  0  0
   -2.5245    6.0738  -18.9183 F   0  0  0  0  0  0  0  0  0  0  0  0
  1  2  1  0
  2  3  1  0
  3  4  2  0
  4  5  1  0
  4  6  1  0
  6  7  1  0
  7  8  1  0
  7  9  1  0
  6 10  1  0
 10 11  1  0
 11 12  1  0
 12 13  2  0
 12 14  1  0
 14 15  1  0
 14 16  1  0
 14 17  1  0
 10  2  2  0
M  END
>  <energy_score>  (4122) 
-22.795858

>  <alias>  (4122) 
SYXOKBLJWPYOKR-UHFFFAOYSA-N-P35-P35-P86-601528

>  <HIPPO Pose ID>  (4122) 
82341

>  <smiles>  (4122) 
Cc1nc(C)n(C(C)C)c1NC(=O)C(C)(F)F

>  <inchikey>  (4122) 
SYXOKBLJWPYOKR-UHFFFAOYSA-N

>  <distance_score>  (4122) 
1.814408

>  <ref_mols>  (4122) 
Z0719a,Z1597a

>  <ref_pdb>  (4122) 
Z0719a

>  <HIPPO Compound ID>  (4122) 
151956

>  <name>  (4122) 
SYXOKBLJWPYOKR-UHFFFAOYSA-N-P35-P35-P86-601528

>  <inspiration_score>  (4122) 
None

$$$$
PJOONOOOAVKFHL-UHFFFAOYSA-N-P35-P35-P86-601528
     RDKit          3D

 17 18  0  0  0  0  0  0  0  0999 V2000
   -0.1689    1.2057  -10.9431 C   0  0  0  0  0  0  0  0  0  0  0  0
   -1.1163    1.1055  -12.1188 C   0  0  0  0  0  0  0  0  0  0  0  0
   -0.5816    0.2366  -13.0305 F   0  0  0  0  0  0  0  0  0  0  0  0
   -2.2779    0.5291  -11.6979 F   0  0  0  0  0  0  0  0  0  0  0  0
   -1.3839    2.4826  -12.7621 C   0  0  0  0  0  0  0  0  0  0  0  0
   -0.5513    3.2781  -12.9822 O   0  0  0  0  0  0  0  0  0  0  0  0
   -2.9159    2.5069  -13.0743 N   0  0  0  0  0  0  0  0  0  0  0  0
   -3.6639    3.4154  -13.7609 C   0  0  0  0  0  0  0  0  0  0  0  0
   -3.0992    4.4864  -14.4192 N   0  0  0  0  0  0  0  0  0  0  0  0
   -4.1085    5.0469  -15.0249 C   0  0  0  0  0  0  0  0  0  0  0  0
   -5.2810    4.4166  -14.7795 N   0  0  0  0  0  0  0  0  0  0  0  0
   -5.0353    3.3787  -13.9449 C   0  0  0  0  0  0  0  0  0  0  0  0
   -5.9946    2.4610  -13.4679 C   0  0  0  0  0  0  0  0  0  0  0  0
   -6.7839    1.6838  -13.1314 N   0  0  0  0  0  0  0  0  0  0  0  0
   -6.4532    4.8696  -15.4918 C   0  0  0  0  0  0  0  0  0  0  0  0
   -6.1112    6.2518  -16.0568 C   0  0  0  0  0  0  0  0  0  0  0  0
   -4.2747    6.3784  -16.0943 S   0  0  0  0  0  0  0  0  0  0  0  0
  1  2  1  0
  2  3  1  0
  2  4  1  0
  2  5  1  0
  5  6  2  0
  5  7  1  0
  7  8  1  0
  8  9  1  0
  9 10  2  0
 10 11  1  0
 11 12  1  0
 12 13  1  0
 13 14  3  0
 11 15  1  0
 15 16  1  0
 16 17  1  0
 12  8  2  0
 17 10  1  0
M  END
>  <energy_score>  (4123) 
-34.018174

>  <alias>  (4123) 
PJOONOOOAVKFHL-UHFFFAOYSA-N-P35-P35-P86-601528

>  <HIPPO Pose ID>  (4123) 
82347

>  <smiles>  (4123) 
CC(F)(F)C(=O)Nc1nc2n(c1C#N)CCS2

>  <inchikey>  (4123) 
PJOONOOOAVKFHL-UHFFFAOYSA-N

>  <distance_score>  (4123) 
1.416583

>  <ref_mols>  (4123) 
Z0719a,Z1597a

>  <ref_pdb>  (4123) 
Z0719a

>  <HIPPO Compound ID>  (4123) 
151959

>  <name>  (4123) 
PJOONOOOAVKFHL-UHFFFAOYSA-N-P35-P35-P86-601528

>  <inspiration_score>  (4123) 
None

$$$$
YLJCDTYLVNXJCT-UHFFFAOYSA-N-P35-P35-P86-601528
     RDKit          3D

 17 17  0  0  0  0  0  0  0  0999 V2000
   -4.4607    7.2692  -21.0625 C   0  0  0  0  0  0  0  0  0  0  0  0
   -3.4857    6.4904  -20.1943 C   0  0  2  0  0  0  0  0  0  0  0  0
   -2.6915    5.7358  -21.0323 F   0  0  0  0  0  0  0  0  0  0  0  0
   -4.0412    5.5328  -19.1399 C   0  0  0  0  0  0  0  0  0  0  0  0
   -5.2082    6.0658  -18.3284 C   0  0  0  0  0  0  0  0  0  0  0  0
   -5.7607    7.0650  -18.5857 O   0  0  0  0  0  0  0  0  0  0  0  0
   -5.5200    4.9878  -17.2407 N   0  0  0  0  0  0  0  0  0  0  0  0
   -6.5598    4.8859  -16.3755 C   0  0  0  0  0  0  0  0  0  0  0  0
   -7.7278    5.4717  -16.7621 N   0  0  0  0  0  0  0  0  0  0  0  0
   -8.6031    5.1591  -15.8467 C   0  0  0  0  0  0  0  0  0  0  0  0
   -8.0031    4.5194  -14.8136 N   0  0  0  0  0  0  0  0  0  0  0  0
   -8.5799    4.4032  -13.4959 C   0  0  0  0  0  0  0  0  0  0  0  0
   -6.6912    4.2459  -15.1571 C   0  0  0  0  0  0  0  0  0  0  0  0
   -5.6383    3.4261  -14.0265 S   0  0  0  0  0  0  0  0  0  0  0  0
   -6.3747    1.9640  -13.6340 N   0  0  0  0  0  0  0  0  0  0  0  0
   -5.6586    4.2559  -12.8519 O   0  0  0  0  0  0  0  0  0  0  0  0
   -4.4050    3.1131  -14.7051 O   0  0  0  0  0  0  0  0  0  0  0  0
  2  1  1  6
  2  3  1  0
  2  4  1  0
  4  5  1  0
  5  6  2  0
  5  7  1  0
  7  8  1  0
  8  9  1  0
  9 10  2  0
 10 11  1  0
 11 12  1  0
 11 13  1  0
 13 14  1  0
 14 15  1  0
 14 16  2  0
 14 17  2  0
 13  8  2  0
M  END
>  <energy_score>  (4124) 
-7.985721

>  <alias>  (4124) 
YLJCDTYLVNXJCT-UHFFFAOYSA-N-P35-P35-P86-601528

>  <HIPPO Pose ID>  (4124) 
82369

>  <smiles>  (4124) 
CC(F)CC(=O)Nc1ncn(C)c1S(N)(=O)=O

>  <inchikey>  (4124) 
YLJCDTYLVNXJCT-UHFFFAOYSA-N

>  <distance_score>  (4124) 
1.777127

>  <ref_mols>  (4124) 
Z0719a,Z1597a

>  <ref_pdb>  (4124) 
Z0719a

>  <HIPPO Compound ID>  (4124) 
151970

>  <name>  (4124) 
YLJCDTYLVNXJCT-UHFFFAOYSA-N-P35-P35-P86-601528

>  <inspiration_score>  (4124) 
None

$$$$
JCHJJBYZHWFAKB-UHFFFAOYSA-N-P86-P35-P86-601529
     RDKit          3D

 17 17  0  0  0  0  0  0  0  0999 V2000
   -7.9751    3.7496  -14.0093 C   0  0  0  0  0  0  0  0  0  0  0  0
   -8.0052    4.0451  -15.4716 C   0  0  0  0  0  0  0  0  0  0  0  0
   -8.8231    3.5609  -16.3879 N   0  0  0  0  0  0  0  0  0  0  0  0
   -8.3503    4.0204  -17.5926 C   0  0  0  0  0  0  0  0  0  0  0  0
   -7.2211    4.7889  -17.4104 C   0  0  0  0  0  0  0  0  0  0  0  0
   -6.3497    5.2530  -18.3555 N   0  0  0  0  0  0  0  0  0  0  0  0
   -4.9040    5.8199  -18.2085 C   0  0  0  0  0  0  0  0  0  0  0  0
   -4.2712    6.0467  -17.2478 O   0  0  0  0  0  0  0  0  0  0  0  0
   -4.3170    6.0777  -19.6096 C   0  0  2  0  0  0  0  0  0  0  0  0
   -4.4836    7.5191  -20.0354 C   0  0  0  0  0  0  0  0  0  0  0  0
   -5.0491    5.0416  -20.8403 Cl  0  0  0  0  0  0  0  0  0  0  0  0
   -7.1312    4.9428  -16.0466 N   0  0  0  0  0  0  0  0  0  0  0  0
   -6.6615    6.1098  -15.3506 C   0  0  0  0  0  0  0  0  0  0  0  0
   -5.8719    5.9461  -14.0816 C   0  0  0  0  0  0  0  0  0  0  0  0
   -6.7148    5.8062  -13.0244 F   0  0  0  0  0  0  0  0  0  0  0  0
   -5.0474    4.8918  -14.1005 F   0  0  0  0  0  0  0  0  0  0  0  0
   -5.1314    7.0539  -13.8359 F   0  0  0  0  0  0  0  0  0  0  0  0
  1  2  1  0
  2  3  2  0
  3  4  1  0
  4  5  2  0
  5  6  1  0
  6  7  1  0
  7  8  2  0
  7  9  1  0
  9 10  1  6
  9 11  1  0
  5 12  1  0
 12 13  1  0
 13 14  1  0
 14 15  1  0
 14 16  1  0
 14 17  1  0
 12  2  1  0
M  END
>  <energy_score>  (4125) 
-15.302787

>  <alias>  (4125) 
JCHJJBYZHWFAKB-UHFFFAOYSA-N-P86-P35-P86-601529

>  <HIPPO Pose ID>  (4125) 
82382

>  <smiles>  (4125) 
Cc1ncc(NC(=O)C(C)Cl)n1CC(F)(F)F

>  <inchikey>  (4125) 
JCHJJBYZHWFAKB-UHFFFAOYSA-N

>  <distance_score>  (4125) 
1.726052

>  <ref_mols>  (4125) 
Z0719a,Z1597a

>  <ref_pdb>  (4125) 
Z0719a

>  <HIPPO Compound ID>  (4125) 
151976

>  <name>  (4125) 
JCHJJBYZHWFAKB-UHFFFAOYSA-N-P86-P35-P86-601529

>  <inspiration_score>  (4125) 
None

$$$$
UMLXMCNXDXWUQR-UHFFFAOYSA-N-P35-P35-P86-601529
     RDKit          3D

 17 18  0  0  0  0  0  0  0  0999 V2000
   -3.7462    7.0923  -20.8822 C   0  0  0  0  0  0  0  0  0  0  0  0
   -5.0919    6.8879  -20.2144 C   0  0  2  0  0  0  0  0  0  0  0  0
   -5.7142    8.4937  -19.6845 Cl  0  0  0  0  0  0  0  0  0  0  0  0
   -4.9852    5.9961  -18.9669 C   0  0  0  0  0  0  0  0  0  0  0  0
   -3.9715    5.6902  -18.4716 O   0  0  0  0  0  0  0  0  0  0  0  0
   -6.4461    5.7271  -18.5167 N   0  0  0  0  0  0  0  0  0  0  0  0
   -6.9262    5.1491  -17.3929 C   0  0  0  0  0  0  0  0  0  0  0  0
   -8.2247    5.4412  -17.1292 N   0  0  0  0  0  0  0  0  0  0  0  0
   -8.3739    5.1744  -15.8561 C   0  0  0  0  0  0  0  0  0  0  0  0
   -7.3879    4.3373  -15.4330 N   0  0  0  0  0  0  0  0  0  0  0  0
   -6.3544    4.5078  -16.3208 C   0  0  0  0  0  0  0  0  0  0  0  0
   -5.0239    4.1827  -15.9900 C   0  0  0  0  0  0  0  0  0  0  0  0
   -4.0266    3.8602  -15.4958 N   0  0  0  0  0  0  0  0  0  0  0  0
   -7.3824    3.7828  -14.0859 C   0  0  0  0  0  0  0  0  0  0  0  0
   -8.2094    4.6379  -13.1305 C   0  0  0  0  0  0  0  0  0  0  0  0
   -9.4242    5.0870  -13.7448 O   0  0  0  0  0  0  0  0  0  0  0  0
   -9.1629    5.9245  -14.8662 C   0  0  0  0  0  0  0  0  0  0  0  0
  2  1  1  1
  2  3  1  0
  2  4  1  0
  4  5  2  0
  4  6  1  0
  6  7  1  0
  7  8  1  0
  8  9  2  0
  9 10  1  0
 10 11  1  0
 11 12  1  0
 12 13  3  0
 10 14  1  0
 14 15  1  0
 15 16  1  0
 16 17  1  0
 11  7  2  0
 17  9  1  0
M  END
>  <energy_score>  (4126) 
-4.526668

>  <alias>  (4126) 
UMLXMCNXDXWUQR-UHFFFAOYSA-N-P35-P35-P86-601529

>  <HIPPO Pose ID>  (4126) 
82385

>  <smiles>  (4126) 
CC(Cl)C(=O)Nc1nc2n(c1C#N)CCOC2

>  <inchikey>  (4126) 
UMLXMCNXDXWUQR-UHFFFAOYSA-N

>  <distance_score>  (4126) 
1.788342

>  <ref_mols>  (4126) 
Z0719a,Z1597a

>  <ref_pdb>  (4126) 
Z0719a

>  <HIPPO Compound ID>  (4126) 
151978

>  <name>  (4126) 
UMLXMCNXDXWUQR-UHFFFAOYSA-N-P35-P35-P86-601529

>  <inspiration_score>  (4126) 
None

$$$$
IMIKKXLXVLOERB-UHFFFAOYSA-N-P35-P35-P86-601529
     RDKit          3D

 17 18  0  0  0  0  0  0  0  0999 V2000
   -2.1501    7.0939  -21.9549 C   0  0  0  0  0  0  0  0  0  0  0  0
   -3.3721    7.0590  -21.3913 C   0  0  0  0  0  0  0  0  0  0  0  0
   -4.5535    7.7404  -22.0155 C   0  0  0  0  0  0  0  0  0  0  0  0
   -5.0919    8.8832  -21.1630 C   0  0  0  0  0  0  0  0  0  0  0  0
   -3.4668    6.4134  -20.0309 C   0  0  0  0  0  0  0  0  0  0  0  0
   -2.5658    6.4803  -19.2914 O   0  0  0  0  0  0  0  0  0  0  0  0
   -4.8704    5.7925  -19.8467 N   0  0  0  0  0  0  0  0  0  0  0  0
   -5.4511    5.2463  -18.7576 C   0  0  0  0  0  0  0  0  0  0  0  0
   -6.7757    4.9078  -18.6029 C   0  0  0  0  0  0  0  0  0  0  0  0
   -6.9130    4.6899  -17.2617 N   0  0  0  0  0  0  0  0  0  0  0  0
   -8.0789    4.6794  -16.5653 N   0  0  0  0  0  0  0  0  0  0  0  0
   -7.8670    4.6186  -15.2906 C   0  0  0  0  0  0  0  0  0  0  0  0
   -9.1898    4.9398  -14.2685 Cl  0  0  0  0  0  0  0  0  0  0  0  0
   -6.5701    4.3995  -14.6135 C   0  0  0  0  0  0  0  0  0  0  0  0
   -5.4740    4.4817  -15.3618 C   0  0  0  0  0  0  0  0  0  0  0  0
   -5.6304    4.7230  -16.7334 C   0  0  0  0  0  0  0  0  0  0  0  0
   -4.7348    5.0595  -17.6231 N   0  0  0  0  0  0  0  0  0  0  0  0
  1  2  2  0
  2  3  1  0
  3  4  1  0
  2  5  1  0
  5  6  2  0
  5  7  1  0
  7  8  1  0
  8  9  2  0
  9 10  1  0
 10 11  1  0
 11 12  2  0
 12 13  1  0
 12 14  1  0
 14 15  2  0
 15 16  1  0
 16 17  2  0
 17  8  1  0
 16 10  1  0
M  END
>  <energy_score>  (4127) 
-31.794375

>  <alias>  (4127) 
IMIKKXLXVLOERB-UHFFFAOYSA-N-P35-P35-P86-601529

>  <HIPPO Pose ID>  (4127) 
82387

>  <smiles>  (4127) 
C=C(CC)C(=O)Nc1cn2nc(Cl)ccc2n1

>  <inchikey>  (4127) 
IMIKKXLXVLOERB-UHFFFAOYSA-N

>  <distance_score>  (4127) 
1.937475

>  <ref_mols>  (4127) 
Z0719a,Z1597a

>  <ref_pdb>  (4127) 
Z0719a

>  <HIPPO Compound ID>  (4127) 
151979

>  <name>  (4127) 
IMIKKXLXVLOERB-UHFFFAOYSA-N-P35-P35-P86-601529

>  <inspiration_score>  (4127) 
None

$$$$
VILFJGFSVNPHCG-UHFFFAOYSA-N-P86-P35-P86-601529
     RDKit          3D

 17 18  0  0  0  0  0  0  0  0999 V2000
   -2.4910    5.4604  -19.1167 C   0  0  0  0  0  0  0  0  0  0  0  0
   -3.7339    5.9534  -19.2473 C   0  0  0  0  0  0  0  0  0  0  0  0
   -4.3633    6.4870  -20.5102 C   0  0  0  0  0  0  0  0  0  0  0  0
   -3.3925    6.9398  -21.5947 C   0  0  0  0  0  0  0  0  0  0  0  0
   -4.5341    6.0147  -17.9721 C   0  0  0  0  0  0  0  0  0  0  0  0
   -4.1681    6.5897  -17.0263 O   0  0  0  0  0  0  0  0  0  0  0  0
   -5.7840    5.1331  -18.1866 N   0  0  0  0  0  0  0  0  0  0  0  0
   -6.8413    4.8653  -17.3512 C   0  0  0  0  0  0  0  0  0  0  0  0
   -8.0517    4.3049  -17.7410 C   0  0  0  0  0  0  0  0  0  0  0  0
   -8.5068    3.9012  -19.0745 C   0  0  0  0  0  0  0  0  0  0  0  0
   -8.9008    4.1214  -16.6862 N   0  0  0  0  0  0  0  0  0  0  0  0
   -8.2100    4.5399  -15.6576 C   0  0  0  0  0  0  0  0  0  0  0  0
   -8.6235    4.5689  -14.2898 C   0  0  0  0  0  0  0  0  0  0  0  0
   -7.8711    5.0348  -13.3313 N   0  0  0  0  0  0  0  0  0  0  0  0
   -6.6028    5.4300  -13.6847 C   0  0  0  0  0  0  0  0  0  0  0  0
   -6.1325    5.4228  -14.9431 C   0  0  0  0  0  0  0  0  0  0  0  0
   -6.9539    5.0002  -15.9788 N   0  0  0  0  0  0  0  0  0  0  0  0
  1  2  2  0
  2  3  1  0
  3  4  1  0
  2  5  1  0
  5  6  2  0
  5  7  1  0
  7  8  1  0
  8  9  2  0
  9 10  1  0
  9 11  1  0
 11 12  2  0
 12 13  1  0
 13 14  2  0
 14 15  1  0
 15 16  2  0
 16 17  1  0
 17  8  1  0
 17 12  1  0
M  END
>  <energy_score>  (4128) 
-33.039839

>  <alias>  (4128) 
VILFJGFSVNPHCG-UHFFFAOYSA-N-P86-P35-P86-601529

>  <HIPPO Pose ID>  (4128) 
82392

>  <smiles>  (4128) 
C=C(CC)C(=O)Nc1c(C)nc2cnccn12

>  <inchikey>  (4128) 
VILFJGFSVNPHCG-UHFFFAOYSA-N

>  <distance_score>  (4128) 
1.62036

>  <ref_mols>  (4128) 
Z0719a,Z1597a

>  <ref_pdb>  (4128) 
Z0719a

>  <HIPPO Compound ID>  (4128) 
151981

>  <name>  (4128) 
VILFJGFSVNPHCG-UHFFFAOYSA-N-P86-P35-P86-601529

>  <inspiration_score>  (4128) 
None

$$$$
JHKXTVRWYZMBKF-UHFFFAOYSA-N-P35-P35-P86-601529
     RDKit          3D

 17 18  0  0  0  0  0  0  0  0999 V2000
   -1.5918    0.9301  -10.9437 C   0  0  0  0  0  0  0  0  0  0  0  0
   -2.0985    2.1484  -10.7025 C   0  0  0  0  0  0  0  0  0  0  0  0
   -1.5510    3.1397   -9.7221 C   0  0  0  0  0  0  0  0  0  0  0  0
   -2.3459    3.1786   -8.4251 C   0  0  0  0  0  0  0  0  0  0  0  0
   -3.3201    2.5402  -11.4637 C   0  0  0  0  0  0  0  0  0  0  0  0
   -4.3914    2.4501  -11.0199 O   0  0  0  0  0  0  0  0  0  0  0  0
   -2.8497    3.0302  -12.8477 N   0  0  0  0  0  0  0  0  0  0  0  0
   -3.5518    3.5684  -13.8784 C   0  0  0  0  0  0  0  0  0  0  0  0
   -2.8524    4.2415  -14.8606 N   0  0  0  0  0  0  0  0  0  0  0  0
   -3.7876    4.6527  -15.6695 C   0  0  0  0  0  0  0  0  0  0  0  0
   -5.0300    4.2885  -15.2685 N   0  0  0  0  0  0  0  0  0  0  0  0
   -4.9097    3.5255  -14.1506 C   0  0  0  0  0  0  0  0  0  0  0  0
   -5.9529    2.7647  -13.5636 C   0  0  0  0  0  0  0  0  0  0  0  0
   -6.8237    2.0711  -13.2397 N   0  0  0  0  0  0  0  0  0  0  0  0
   -6.1415    4.7060  -16.0945 C   0  0  0  0  0  0  0  0  0  0  0  0
   -5.5526    5.0916  -17.4583 C   0  0  0  0  0  0  0  0  0  0  0  0
   -3.7802    5.5050  -17.1588 S   0  0  0  0  0  0  0  0  0  0  0  0
  1  2  2  0
  2  3  1  0
  3  4  1  0
  2  5  1  0
  5  6  2  0
  5  7  1  0
  7  8  1  0
  8  9  1  0
  9 10  2  0
 10 11  1  0
 11 12  1  0
 12 13  1  0
 13 14  3  0
 11 15  1  0
 15 16  1  0
 16 17  1  0
 12  8  2  0
 17 10  1  0
M  END
>  <energy_score>  (4129) 
-40.440638

>  <alias>  (4129) 
JHKXTVRWYZMBKF-UHFFFAOYSA-N-P35-P35-P86-601529

>  <HIPPO Pose ID>  (4129) 
82395

>  <smiles>  (4129) 
C=C(CC)C(=O)Nc1nc2n(c1C#N)CCS2

>  <inchikey>  (4129) 
JHKXTVRWYZMBKF-UHFFFAOYSA-N

>  <distance_score>  (4129) 
1.254397

>  <ref_mols>  (4129) 
Z0719a,Z1597a

>  <ref_pdb>  (4129) 
Z0719a

>  <HIPPO Compound ID>  (4129) 
151983

>  <name>  (4129) 
JHKXTVRWYZMBKF-UHFFFAOYSA-N-P35-P35-P86-601529

>  <inspiration_score>  (4129) 
None

$$$$
SWDBMYGLBYRCHN-UHFFFAOYSA-N-P86-P35-P86-601529
     RDKit          3D

 17 17  0  0  0  0  0  0  0  0999 V2000
   -2.6581    5.1861  -19.5219 C   0  0  0  0  0  0  0  0  0  0  0  0
   -3.8280    5.8466  -19.4834 C   0  0  0  0  0  0  0  0  0  0  0  0
   -4.3984    6.5748  -20.6686 C   0  0  0  0  0  0  0  0  0  0  0  0
   -4.6873    8.0400  -20.3719 C   0  0  0  0  0  0  0  0  0  0  0  0
   -4.5317    5.8519  -18.1527 C   0  0  0  0  0  0  0  0  0  0  0  0
   -3.9760    6.1361  -17.1657 O   0  0  0  0  0  0  0  0  0  0  0  0
   -5.9747    5.3373  -18.3798 N   0  0  0  0  0  0  0  0  0  0  0  0
   -6.9528    4.9924  -17.4762 C   0  0  0  0  0  0  0  0  0  0  0  0
   -8.1396    4.3614  -17.7933 C   0  0  0  0  0  0  0  0  0  0  0  0
   -8.6597    3.9538  -19.0972 C   0  0  0  0  0  0  0  0  0  0  0  0
   -8.8305    4.0032  -16.6774 N   0  0  0  0  0  0  0  0  0  0  0  0
   -8.0586    4.3397  -15.6703 C   0  0  0  0  0  0  0  0  0  0  0  0
   -8.2777    3.8782  -14.2870 C   0  0  0  0  0  0  0  0  0  0  0  0
   -6.9889    5.0929  -16.0983 N   0  0  0  0  0  0  0  0  0  0  0  0
   -6.0596    5.8132  -15.2738 C   0  0  0  0  0  0  0  0  0  0  0  0
   -6.3309    6.1181  -13.7931 C   0  0  0  0  0  0  0  0  0  0  0  0
   -7.6638    6.7555  -13.4380 C   0  0  0  0  0  0  0  0  0  0  0  0
  1  2  2  0
  2  3  1  0
  3  4  1  0
  2  5  1  0
  5  6  2  0
  5  7  1  0
  7  8  1  0
  8  9  2  0
  9 10  1  0
  9 11  1  0
 11 12  2  0
 12 13  1  0
 12 14  1  0
 14 15  1  0
 15 16  1  0
 16 17  1  0
 14  8  1  0
M  END
>  <energy_score>  (4130) 
-10.465381

>  <alias>  (4130) 
SWDBMYGLBYRCHN-UHFFFAOYSA-N-P86-P35-P86-601529

>  <HIPPO Pose ID>  (4130) 
82410

>  <smiles>  (4130) 
C=C(CC)C(=O)Nc1c(C)nc(C)n1CCC

>  <inchikey>  (4130) 
SWDBMYGLBYRCHN-UHFFFAOYSA-N

>  <distance_score>  (4130) 
1.611182

>  <ref_mols>  (4130) 
Z0719a,Z1597a

>  <ref_pdb>  (4130) 
Z0719a

>  <HIPPO Compound ID>  (4130) 
151990

>  <name>  (4130) 
SWDBMYGLBYRCHN-UHFFFAOYSA-N-P86-P35-P86-601529

>  <inspiration_score>  (4130) 
None

$$$$
KLHTUKKPNZOHAH-UHFFFAOYSA-N-P86-P35-P86-601529
     RDKit          3D

 17 18  0  0  0  0  0  0  0  0999 V2000
   -4.8137    6.6074  -21.3747 C   0  0  0  0  0  0  0  0  0  0  0  0
   -4.2016    6.9133  -20.2198 C   0  0  0  0  0  0  0  0  0  0  0  0
   -3.9850    8.3394  -19.7962 C   0  0  0  0  0  0  0  0  0  0  0  0
   -3.6612    5.8557  -19.2841 C   0  0  0  0  0  0  0  0  0  0  0  0
   -4.3887    5.8048  -17.9264 C   0  0  0  0  0  0  0  0  0  0  0  0
   -3.8601    6.0446  -16.9113 O   0  0  0  0  0  0  0  0  0  0  0  0
   -5.8367    5.3122  -18.2180 N   0  0  0  0  0  0  0  0  0  0  0  0
   -6.8456    4.9428  -17.3571 C   0  0  0  0  0  0  0  0  0  0  0  0
   -8.0390    4.3424  -17.7464 C   0  0  0  0  0  0  0  0  0  0  0  0
   -8.4932    3.9433  -19.0820 C   0  0  0  0  0  0  0  0  0  0  0  0
   -8.8639    4.0887  -16.6884 N   0  0  0  0  0  0  0  0  0  0  0  0
   -8.1858    4.5215  -15.6580 C   0  0  0  0  0  0  0  0  0  0  0  0
   -8.6107    4.5425  -14.2930 C   0  0  0  0  0  0  0  0  0  0  0  0
   -7.8896    5.0537  -13.3341 N   0  0  0  0  0  0  0  0  0  0  0  0
   -6.6473    5.5231  -13.6854 C   0  0  0  0  0  0  0  0  0  0  0  0
   -6.1723    5.5369  -14.9420 C   0  0  0  0  0  0  0  0  0  0  0  0
   -6.9518    5.0417  -15.9786 N   0  0  0  0  0  0  0  0  0  0  0  0
  1  2  2  0
  2  3  1  0
  2  4  1  0
  4  5  1  0
  5  6  2  0
  5  7  1  0
  7  8  1  0
  8  9  2  0
  9 10  1  0
  9 11  1  0
 11 12  2  0
 12 13  1  0
 13 14  2  0
 14 15  1  0
 15 16  2  0
 16 17  1  0
 17  8  1  0
 17 12  1  0
M  END
>  <energy_score>  (4131) 
-26.091583

>  <alias>  (4131) 
KLHTUKKPNZOHAH-UHFFFAOYSA-N-P86-P35-P86-601529

>  <HIPPO Pose ID>  (4131) 
82416

>  <smiles>  (4131) 
C=C(C)CC(=O)Nc1c(C)nc2cnccn12

>  <inchikey>  (4131) 
KLHTUKKPNZOHAH-UHFFFAOYSA-N

>  <distance_score>  (4131) 
1.609038

>  <ref_mols>  (4131) 
Z0719a,Z1597a

>  <ref_pdb>  (4131) 
Z0719a

>  <HIPPO Compound ID>  (4131) 
151993

>  <name>  (4131) 
KLHTUKKPNZOHAH-UHFFFAOYSA-N-P86-P35-P86-601529

>  <inspiration_score>  (4131) 
None

$$$$
BSAFUZCTBMGOHS-UHFFFAOYSA-N-P86-P35-P86-601529
     RDKit          3D

 17 18  0  0  0  0  0  0  0  0999 V2000
   -2.6223    4.8503  -19.4375 C   0  0  0  0  0  0  0  0  0  0  0  0
   -3.7199    5.6264  -19.4322 C   0  0  0  0  0  0  0  0  0  0  0  0
   -4.2412    6.4285  -20.5901 C   0  0  0  0  0  0  0  0  0  0  0  0
   -3.5611    6.1236  -21.8052 O   0  0  0  0  0  0  0  0  0  0  0  0
   -4.4449    5.7263  -18.1163 C   0  0  0  0  0  0  0  0  0  0  0  0
   -3.9289    6.1169  -17.1466 O   0  0  0  0  0  0  0  0  0  0  0  0
   -5.8643    5.1554  -18.3354 N   0  0  0  0  0  0  0  0  0  0  0  0
   -6.8639    4.8717  -17.4314 C   0  0  0  0  0  0  0  0  0  0  0  0
   -8.0847    4.3023  -17.7775 C   0  0  0  0  0  0  0  0  0  0  0  0
   -8.5800    3.8922  -19.0938 C   0  0  0  0  0  0  0  0  0  0  0  0
   -8.8932    4.0999  -16.6975 N   0  0  0  0  0  0  0  0  0  0  0  0
   -8.1773    4.5307  -15.6929 C   0  0  0  0  0  0  0  0  0  0  0  0
   -8.5641    4.5702  -14.3168 C   0  0  0  0  0  0  0  0  0  0  0  0
   -7.8021    5.0700  -13.3838 N   0  0  0  0  0  0  0  0  0  0  0  0
   -6.5575    5.5026  -13.7751 C   0  0  0  0  0  0  0  0  0  0  0  0
   -6.1150    5.4904  -15.0441 C   0  0  0  0  0  0  0  0  0  0  0  0
   -6.9380    5.0133  -16.0545 N   0  0  0  0  0  0  0  0  0  0  0  0
  1  2  2  0
  2  3  1  0
  3  4  1  0
  2  5  1  0
  5  6  2  0
  5  7  1  0
  7  8  1  0
  8  9  2  0
  9 10  1  0
  9 11  1  0
 11 12  2  0
 12 13  1  0
 13 14  2  0
 14 15  1  0
 15 16  2  0
 16 17  1  0
 17  8  1  0
 17 12  1  0
M  END
>  <energy_score>  (4132) 
-15.713757

>  <alias>  (4132) 
BSAFUZCTBMGOHS-UHFFFAOYSA-N-P86-P35-P86-601529

>  <HIPPO Pose ID>  (4132) 
82432

>  <smiles>  (4132) 
C=C(CO)C(=O)Nc1c(C)nc2cnccn12

>  <inchikey>  (4132) 
BSAFUZCTBMGOHS-UHFFFAOYSA-N

>  <distance_score>  (4132) 
1.590453

>  <ref_mols>  (4132) 
Z0719a,Z1597a

>  <ref_pdb>  (4132) 
Z0719a

>  <HIPPO Compound ID>  (4132) 
152001

>  <name>  (4132) 
BSAFUZCTBMGOHS-UHFFFAOYSA-N-P86-P35-P86-601529

>  <inspiration_score>  (4132) 
None

$$$$
IEYSWLHOEPOFNO-UHFFFAOYSA-N-P35-P35-P86-601529
     RDKit          3D

 17 18  0  0  0  0  0  0  0  0999 V2000
   -7.2154    3.2170   -9.9940 C   0  0  0  0  0  0  0  0  0  0  0  0
   -7.5079    4.0475  -11.1364 N   0  0  0  0  0  0  0  0  0  0  0  0
   -8.4016    5.0819  -11.1023 C   0  0  0  0  0  0  0  0  0  0  0  0
   -8.6072    5.5857  -12.2971 N   0  0  0  0  0  0  0  0  0  0  0  0
   -7.7430    4.9123  -13.1103 C   0  0  0  0  0  0  0  0  0  0  0  0
   -7.7859    5.0886  -14.4556 N   0  0  0  0  0  0  0  0  0  0  0  0
   -6.6532    5.3445  -15.4685 C   0  0  0  0  0  0  0  0  0  0  0  0
   -5.5123    5.5213  -15.2987 O   0  0  0  0  0  0  0  0  0  0  0  0
   -7.1540    5.2402  -16.8987 C   0  0  0  0  0  0  0  0  0  0  0  0
   -9.0810    4.3206  -17.2578 I   0  0  0  0  0  0  0  0  0  0  0  0
   -6.1626    4.8983  -18.0039 C   0  0  0  0  0  0  0  0  0  0  0  0
   -6.7392    6.2776  -17.9135 C   0  0  0  0  0  0  0  0  0  0  0  0
   -7.0419    3.9279  -12.4336 C   0  0  0  0  0  0  0  0  0  0  0  0
   -6.0252    2.6360  -13.0305 S   0  0  0  0  0  0  0  0  0  0  0  0
   -4.8420    2.2657  -11.9042 N   0  0  0  0  0  0  0  0  0  0  0  0
   -6.8603    1.4651  -13.1165 O   0  0  0  0  0  0  0  0  0  0  0  0
   -5.2834    3.1284  -14.1598 O   0  0  0  0  0  0  0  0  0  0  0  0
  1  2  1  0
  2  3  1  0
  3  4  2  0
  4  5  1  0
  5  6  1  0
  6  7  1  0
  7  8  2  0
  7  9  1  0
  9 10  1  0
  9 11  1  0
 11 12  1  0
  5 13  2  0
 13 14  1  0
 14 15  1  0
 14 16  2  0
 14 17  2  0
 13  2  1  0
 12  9  1  0
M  END
>  <energy_score>  (4133) 
-27.629082

>  <alias>  (4133) 
IEYSWLHOEPOFNO-UHFFFAOYSA-N-P35-P35-P86-601529

>  <HIPPO Pose ID>  (4133) 
82439

>  <smiles>  (4133) 
Cn1cnc(NC(=O)C2(I)CC2)c1S(N)(=O)=O

>  <inchikey>  (4133) 
IEYSWLHOEPOFNO-UHFFFAOYSA-N

>  <distance_score>  (4133) 
1.360645

>  <ref_mols>  (4133) 
Z0719a,Z1597a

>  <ref_pdb>  (4133) 
Z0719a

>  <HIPPO Compound ID>  (4133) 
152005

>  <name>  (4133) 
IEYSWLHOEPOFNO-UHFFFAOYSA-N-P35-P35-P86-601529

>  <inspiration_score>  (4133) 
None

$$$$
SSFYZXDOASTBOW-UHFFFAOYSA-N-P86-P35-P86-601529
     RDKit          3D

 17 18  0  0  0  0  0  0  0  0999 V2000
   -6.7985    6.4472  -14.8713 O   0  0  0  0  0  0  0  0  0  0  0  0
   -7.3850    5.4806  -15.1616 C   0  0  0  0  0  0  0  0  0  0  0  0
   -8.1573    4.4788  -14.2819 N   0  0  0  0  0  0  0  0  0  0  0  0
   -8.2840    4.4057  -12.9373 C   0  0  0  0  0  0  0  0  0  0  0  0
   -7.8063    5.2920  -12.0070 C   0  0  0  0  0  0  0  0  0  0  0  0
   -7.7297    4.5258  -10.8705 N   0  0  0  0  0  0  0  0  0  0  0  0
   -6.6571    4.6283   -9.9152 C   0  0  0  0  0  0  0  0  0  0  0  0
   -5.3005    4.6040  -10.6223 C   0  0  0  0  0  0  0  0  0  0  0  0
   -4.3634    4.0350   -9.8235 F   0  0  0  0  0  0  0  0  0  0  0  0
   -4.8785    5.8729  -10.8627 F   0  0  0  0  0  0  0  0  0  0  0  0
   -5.2885    3.9463  -11.8110 F   0  0  0  0  0  0  0  0  0  0  0  0
   -8.4618    3.3935  -11.0723 C   0  0  0  0  0  0  0  0  0  0  0  0
   -8.8032    3.3036  -12.3354 N   0  0  0  0  0  0  0  0  0  0  0  0
   -7.3766    5.0707  -16.6270 C   0  0  0  0  0  0  0  0  0  0  0  0
   -9.0580    3.9746  -17.3757 I   0  0  0  0  0  0  0  0  0  0  0  0
   -6.0760    4.7400  -17.3260 C   0  0  0  0  0  0  0  0  0  0  0  0
   -6.7544    6.0135  -17.6589 C   0  0  0  0  0  0  0  0  0  0  0  0
  1  2  2  0
  2  3  1  0
  3  4  1  0
  4  5  2  0
  5  6  1  0
  6  7  1  0
  7  8  1  0
  8  9  1  0
  8 10  1  0
  8 11  1  0
  6 12  1  0
 12 13  2  0
  2 14  1  0
 14 15  1  0
 14 16  1  0
 16 17  1  0
 13  4  1  0
 17 14  1  0
M  END
>  <energy_score>  (4134) 
-7.893587

>  <alias>  (4134) 
SSFYZXDOASTBOW-UHFFFAOYSA-N-P86-P35-P86-601529

>  <HIPPO Pose ID>  (4134) 
82442

>  <smiles>  (4134) 
O=C(Nc1cn(CC(F)(F)F)cn1)C1(I)CC1

>  <inchikey>  (4134) 
SSFYZXDOASTBOW-UHFFFAOYSA-N

>  <distance_score>  (4134) 
1.514731

>  <ref_mols>  (4134) 
Z0719a,Z1597a

>  <ref_pdb>  (4134) 
Z0719a

>  <HIPPO Compound ID>  (4134) 
152006

>  <name>  (4134) 
SSFYZXDOASTBOW-UHFFFAOYSA-N-P86-P35-P86-601529

>  <inspiration_score>  (4134) 
None

$$$$
CMFDINQZSIACLM-UHFFFAOYSA-N-P86-P35-P86-601529
     RDKit          3D

 17 18  0  0  0  0  0  0  0  0999 V2000
   -4.1567    8.5337  -23.5081 C   0  0  0  0  0  0  0  0  0  0  0  0
   -4.3835    7.9094  -22.1414 C   0  0  1  0  0  0  0  0  0  0  0  0
   -5.6195    8.3044  -21.7216 F   0  0  0  0  0  0  0  0  0  0  0  0
   -4.3532    6.4001  -22.2130 C   0  0  0  0  0  0  0  0  0  0  0  0
   -4.1801    5.9078  -20.7984 C   0  0  0  0  0  0  0  0  0  0  0  0
   -3.1413    5.9577  -20.2636 O   0  0  0  0  0  0  0  0  0  0  0  0
   -5.5706    5.4793  -20.2576 N   0  0  0  0  0  0  0  0  0  0  0  0
   -5.9588    5.1396  -19.0110 C   0  0  0  0  0  0  0  0  0  0  0  0
   -7.2204    4.7896  -18.5897 C   0  0  0  0  0  0  0  0  0  0  0  0
   -7.1283    4.7482  -17.2288 N   0  0  0  0  0  0  0  0  0  0  0  0
   -8.1577    4.5927  -16.3576 N   0  0  0  0  0  0  0  0  0  0  0  0
   -7.7681    4.7156  -15.1294 C   0  0  0  0  0  0  0  0  0  0  0  0
   -8.9710    4.6969  -13.9219 Cl  0  0  0  0  0  0  0  0  0  0  0  0
   -6.3866    4.9480  -14.6518 C   0  0  0  0  0  0  0  0  0  0  0  0
   -5.4424    5.1266  -15.5699 C   0  0  0  0  0  0  0  0  0  0  0  0
   -5.8099    5.0498  -16.9199 C   0  0  0  0  0  0  0  0  0  0  0  0
   -5.0813    5.2448  -17.9856 N   0  0  0  0  0  0  0  0  0  0  0  0
  2  1  1  6
  2  3  1  0
  2  4  1  0
  4  5  1  0
  5  6  2  0
  5  7  1  0
  7  8  1  0
  8  9  2  0
  9 10  1  0
 10 11  1  0
 11 12  2  0
 12 13  1  0
 12 14  1  0
 14 15  2  0
 15 16  1  0
 16 17  2  0
 17  8  1  0
 16 10  1  0
M  END
>  <energy_score>  (4135) 
-30.911744

>  <alias>  (4135) 
CMFDINQZSIACLM-UHFFFAOYSA-N-P86-P35-P86-601529

>  <HIPPO Pose ID>  (4135) 
82444

>  <smiles>  (4135) 
CC(F)CC(=O)Nc1cn2nc(Cl)ccc2n1

>  <inchikey>  (4135) 
CMFDINQZSIACLM-UHFFFAOYSA-N

>  <distance_score>  (4135) 
1.919563

>  <ref_mols>  (4135) 
Z0719a,Z1597a

>  <ref_pdb>  (4135) 
Z0719a

>  <HIPPO Compound ID>  (4135) 
152007

>  <name>  (4135) 
CMFDINQZSIACLM-UHFFFAOYSA-N-P86-P35-P86-601529

>  <inspiration_score>  (4135) 
None

$$$$
KCUZHXDWFHRAFI-UHFFFAOYSA-N-P35-P35-P86-601529
     RDKit          3D

 17 18  0  0  0  0  0  0  0  0999 V2000
   -5.1157    2.5230  -13.4334 C   0  0  0  0  0  0  0  0  0  0  0  0
   -4.8125    2.9099  -12.0015 C   0  0  0  0  0  0  0  0  0  0  0  0
   -4.9552    4.3340  -11.8190 O   0  0  0  0  0  0  0  0  0  0  0  0
   -5.9079    4.8526  -10.9892 C   0  0  0  0  0  0  0  0  0  0  0  0
   -5.6742    5.8244  -10.2773 O   0  0  0  0  0  0  0  0  0  0  0  0
   -7.1371    4.1234  -10.9463 C   0  0  0  0  0  0  0  0  0  0  0  0
   -7.6156    3.5545   -9.7852 N   0  0  0  0  0  0  0  0  0  0  0  0
   -8.7139    2.8206  -10.1074 C   0  0  0  0  0  0  0  0  0  0  0  0
   -9.0154    2.9500  -11.3767 N   0  0  0  0  0  0  0  0  0  0  0  0
   -8.0760    3.7865  -11.8977 C   0  0  0  0  0  0  0  0  0  0  0  0
   -8.2105    4.1414  -13.2026 N   0  0  0  0  0  0  0  0  0  0  0  0
   -7.4752    5.2098  -14.0283 C   0  0  0  0  0  0  0  0  0  0  0  0
   -6.5836    5.9040  -13.7431 O   0  0  0  0  0  0  0  0  0  0  0  0
   -8.0964    5.3971  -15.3691 C   0  0  1  0  0  0  0  0  0  0  0  0
   -7.1961    5.1194  -16.4597 C   0  0  0  0  0  0  0  0  0  0  0  0
   -8.2577    4.3263  -16.3220 C   0  0  0  0  0  0  0  0  0  0  0  0
   -9.2493    4.1396  -17.4079 C   0  0  0  0  0  0  0  0  0  0  0  0
  1  2  1  0
  2  3  1  0
  3  4  1  0
  4  5  2  0
  4  6  1  0
  6  7  1  0
  7  8  1  0
  8  9  2  0
  9 10  1  0
 10 11  1  0
 11 12  1  0
 12 13  2  0
 14 12  1  1
 14 15  1  0
 15 16  2  0
 16 17  1  0
 10  6  2  0
 16 14  1  0
M  END
>  <energy_score>  (4136) 
-29.582977

>  <alias>  (4136) 
KCUZHXDWFHRAFI-UHFFFAOYSA-N-P35-P35-P86-601529

>  <HIPPO Pose ID>  (4136) 
82461

>  <smiles>  (4136) 
CCOC(=O)c1[nH]cnc1NC(=O)C1C=C1C

>  <inchikey>  (4136) 
KCUZHXDWFHRAFI-UHFFFAOYSA-N

>  <distance_score>  (4136) 
1.296115

>  <ref_mols>  (4136) 
Z0719a,Z1597a

>  <ref_pdb>  (4136) 
Z0719a

>  <HIPPO Compound ID>  (4136) 
152016

>  <name>  (4136) 
KCUZHXDWFHRAFI-UHFFFAOYSA-N-P35-P35-P86-601529

>  <inspiration_score>  (4136) 
None

$$$$
BKJZJCRXVMEZSI-UHFFFAOYSA-N-P35-P35-P86-601529
     RDKit          3D

 17 18  0  0  0  0  0  0  0  0999 V2000
   -9.2214    4.0387  -18.1447 C   0  0  0  0  0  0  0  0  0  0  0  0
   -8.5340    4.9698  -17.2514 C   0  0  0  0  0  0  0  0  0  0  0  0
   -7.4229    5.6734  -17.4709 C   0  0  0  0  0  0  0  0  0  0  0  0
   -7.4832    4.8532  -16.2930 C   0  0  1  0  0  0  0  0  0  0  0  0
   -7.7824    5.4625  -14.9627 C   0  0  0  0  0  0  0  0  0  0  0  0
   -7.9567    6.6044  -14.8179 O   0  0  0  0  0  0  0  0  0  0  0  0
   -7.7350    4.3274  -13.9372 N   0  0  0  0  0  0  0  0  0  0  0  0
   -7.7939    4.3599  -12.5800 C   0  0  0  0  0  0  0  0  0  0  0  0
   -8.2434    5.3796  -11.8016 N   0  0  0  0  0  0  0  0  0  0  0  0
   -8.0819    4.9697  -10.5500 C   0  0  0  0  0  0  0  0  0  0  0  0
   -8.3505    5.7873   -9.3466 C   0  0  0  0  0  0  0  0  0  0  0  0
   -7.5603    3.6899  -10.5025 N   0  0  0  0  0  0  0  0  0  0  0  0
   -7.2756    2.9272   -9.3083 C   0  0  0  0  0  0  0  0  0  0  0  0
   -7.2935    3.3557  -11.7975 C   0  0  0  0  0  0  0  0  0  0  0  0
   -6.4703    2.2918  -12.2337 N   0  0  0  0  0  0  0  0  0  0  0  0
   -6.4443    2.0685  -13.4571 O   0  0  0  0  0  0  0  0  0  0  0  0
   -5.7749    1.7177  -11.3916 O   0  0  0  0  0  0  0  0  0  0  0  0
  1  2  1  0
  2  3  2  0
  3  4  1  0
  4  5  1  1
  5  6  2  0
  5  7  1  0
  7  8  1  0
  8  9  1  0
  9 10  2  0
 10 11  1  0
 10 12  1  0
 12 13  1  0
 12 14  1  0
 14 15  1  0
 15 16  2  0
 15 17  1  0
  4  2  1  0
 14  8  2  0
M  CHG  2  15   1  17  -1
M  END
>  <energy_score>  (4137) 
-27.695534

>  <alias>  (4137) 
BKJZJCRXVMEZSI-UHFFFAOYSA-N-P35-P35-P86-601529

>  <HIPPO Pose ID>  (4137) 
82463

>  <smiles>  (4137) 
CC1=CC1C(=O)Nc1nc(C)n(C)c1[N+](=O)[O-]

>  <inchikey>  (4137) 
BKJZJCRXVMEZSI-UHFFFAOYSA-N

>  <distance_score>  (4137) 
1.208076

>  <ref_mols>  (4137) 
Z0719a,Z1597a

>  <ref_pdb>  (4137) 
Z0719a

>  <HIPPO Compound ID>  (4137) 
152017

>  <name>  (4137) 
BKJZJCRXVMEZSI-UHFFFAOYSA-N-P35-P35-P86-601529

>  <inspiration_score>  (4137) 
None

$$$$
ITFJRKKNPFJENH-UHFFFAOYSA-N-P86-P35-P86-601529
     RDKit          3D

 17 18  0  0  0  0  0  0  0  0999 V2000
   -4.2182    2.7699  -12.0244 C   0  0  0  0  0  0  0  0  0  0  0  0
   -4.0531    4.1389  -11.3750 C   0  0  0  0  0  0  0  0  0  0  0  0
   -4.4258    4.1572   -9.9727 O   0  0  0  0  0  0  0  0  0  0  0  0
   -5.7054    4.2194   -9.4729 C   0  0  0  0  0  0  0  0  0  0  0  0
   -5.8827    4.3193   -8.2606 O   0  0  0  0  0  0  0  0  0  0  0  0
   -6.7758    4.0826  -10.4368 C   0  0  0  0  0  0  0  0  0  0  0  0
   -6.8034    4.6565  -11.6244 N   0  0  0  0  0  0  0  0  0  0  0  0
   -7.7631    4.0085  -12.3284 C   0  0  0  0  0  0  0  0  0  0  0  0
   -7.7963    4.0912  -13.6817 N   0  0  0  0  0  0  0  0  0  0  0  0
   -6.8555    4.8200  -14.6649 C   0  0  0  0  0  0  0  0  0  0  0  0
   -5.9492    5.5271  -14.4617 O   0  0  0  0  0  0  0  0  0  0  0  0
   -7.1417    4.4460  -16.0693 C   0  0  2  0  0  0  0  0  0  0  0  0
   -7.4567    5.5162  -16.9597 C   0  0  0  0  0  0  0  0  0  0  0  0
   -8.4337    4.6597  -16.6462 C   0  0  0  0  0  0  0  0  0  0  0  0
   -9.2126    3.9035  -17.6461 C   0  0  0  0  0  0  0  0  0  0  0  0
   -8.4981    3.1945  -11.5078 C   0  0  0  0  0  0  0  0  0  0  0  0
   -7.8908    3.2902  -10.2762 N   0  0  0  0  0  0  0  0  0  0  0  0
  1  2  1  0
  2  3  1  0
  3  4  1  0
  4  5  2  0
  4  6  1  0
  6  7  2  0
  7  8  1  0
  8  9  1  0
  9 10  1  0
 10 11  2  0
 12 10  1  1
 12 13  1  0
 13 14  2  0
 14 15  1  0
  8 16  2  0
 16 17  1  0
 17  6  1  0
 14 12  1  0
M  END
>  <energy_score>  (4138) 
-26.314139

>  <alias>  (4138) 
ITFJRKKNPFJENH-UHFFFAOYSA-N-P86-P35-P86-601529

>  <HIPPO Pose ID>  (4138) 
82466

>  <smiles>  (4138) 
CCOC(=O)c1nc(NC(=O)C2C=C2C)c[nH]1

>  <inchikey>  (4138) 
ITFJRKKNPFJENH-UHFFFAOYSA-N

>  <distance_score>  (4138) 
1.64865

>  <ref_mols>  (4138) 
Z0719a,Z1597a

>  <ref_pdb>  (4138) 
Z0719a

>  <HIPPO Compound ID>  (4138) 
152018

>  <name>  (4138) 
ITFJRKKNPFJENH-UHFFFAOYSA-N-P86-P35-P86-601529

>  <inspiration_score>  (4138) 
None

$$$$
LDEPLAXAFMDNNU-UHFFFAOYSA-N-P86-P35-P86-601529
     RDKit          3D

 17 19  0  0  0  0  0  0  0  0999 V2000
   -5.7224    7.2678  -24.1311 C   0  0  0  0  0  0  0  0  0  0  0  0
   -5.2310    7.5140  -22.7480 C   0  0  0  0  0  0  0  0  0  0  0  0
   -4.0785    8.1110  -22.4461 C   0  0  0  0  0  0  0  0  0  0  0  0
   -4.1936    6.6774  -22.1832 C   0  0  1  0  0  0  0  0  0  0  0  0
   -4.1795    6.3401  -20.7362 C   0  0  0  0  0  0  0  0  0  0  0  0
   -3.2169    6.6085  -20.1356 O   0  0  0  0  0  0  0  0  0  0  0  0
   -5.5258    5.7645  -20.2596 N   0  0  0  0  0  0  0  0  0  0  0  0
   -5.9144    5.3368  -19.0377 C   0  0  0  0  0  0  0  0  0  0  0  0
   -7.1465    4.8626  -18.6472 C   0  0  0  0  0  0  0  0  0  0  0  0
   -7.0735    4.7903  -17.2845 N   0  0  0  0  0  0  0  0  0  0  0  0
   -8.1099    4.5825  -16.4299 N   0  0  0  0  0  0  0  0  0  0  0  0
   -7.7401    4.6934  -15.1939 C   0  0  0  0  0  0  0  0  0  0  0  0
   -8.9585    4.6544  -14.0019 Cl  0  0  0  0  0  0  0  0  0  0  0  0
   -6.3680    4.9320  -14.6928 C   0  0  0  0  0  0  0  0  0  0  0  0
   -5.4195    5.1669  -15.5937 C   0  0  0  0  0  0  0  0  0  0  0  0
   -5.7747    5.1416  -16.9487 C   0  0  0  0  0  0  0  0  0  0  0  0
   -5.0572    5.4491  -17.9944 N   0  0  0  0  0  0  0  0  0  0  0  0
  1  2  1  0
  2  3  2  0
  3  4  1  0
  4  5  1  1
  5  6  2  0
  5  7  1  0
  7  8  1  0
  8  9  2  0
  9 10  1  0
 10 11  1  0
 11 12  2  0
 12 13  1  0
 12 14  1  0
 14 15  2  0
 15 16  1  0
 16 17  2  0
  4  2  1  0
 17  8  1  0
 16 10  1  0
M  END
>  <energy_score>  (4139) 
-36.122635

>  <alias>  (4139) 
LDEPLAXAFMDNNU-UHFFFAOYSA-N-P86-P35-P86-601529

>  <HIPPO Pose ID>  (4139) 
82468

>  <smiles>  (4139) 
CC1=CC1C(=O)Nc1cn2nc(Cl)ccc2n1

>  <inchikey>  (4139) 
LDEPLAXAFMDNNU-UHFFFAOYSA-N

>  <distance_score>  (4139) 
1.982231

>  <ref_mols>  (4139) 
Z0719a,Z1597a

>  <ref_pdb>  (4139) 
Z0719a

>  <HIPPO Compound ID>  (4139) 
152019

>  <name>  (4139) 
LDEPLAXAFMDNNU-UHFFFAOYSA-N-P86-P35-P86-601529

>  <inspiration_score>  (4139) 
None

$$$$
REYJMLQILSNXSL-UHFFFAOYSA-N-P35-P35-P86-601529
     RDKit          3D

 17 18  0  0  0  0  0  0  0  0999 V2000
   -9.1621    4.0188  -18.0133 C   0  0  0  0  0  0  0  0  0  0  0  0
   -8.3716    5.0495  -17.3424 C   0  0  0  0  0  0  0  0  0  0  0  0
   -7.3253    5.7305  -17.8073 C   0  0  0  0  0  0  0  0  0  0  0  0
   -7.1853    5.0687  -16.5421 C   0  0  1  0  0  0  0  0  0  0  0  0
   -7.3248    5.8428  -15.2746 C   0  0  0  0  0  0  0  0  0  0  0  0
   -7.3144    7.0055  -15.2487 O   0  0  0  0  0  0  0  0  0  0  0  0
   -7.4346    4.8255  -14.1366 N   0  0  0  0  0  0  0  0  0  0  0  0
   -7.4590    5.0067  -12.7845 C   0  0  0  0  0  0  0  0  0  0  0  0
   -7.9081    5.9990  -11.9436 C   0  0  0  0  0  0  0  0  0  0  0  0
   -8.5097    7.3073  -12.2616 C   0  0  0  0  0  0  0  0  0  0  0  0
   -7.8278    5.5734  -10.6348 N   0  0  0  0  0  0  0  0  0  0  0  0
   -7.3255    4.3520  -10.6723 C   0  0  0  0  0  0  0  0  0  0  0  0
   -7.2332    3.4495   -9.5022 C   0  0  0  0  0  0  0  0  0  0  0  0
   -6.8941    4.0669  -11.9468 N   0  0  0  0  0  0  0  0  0  0  0  0
   -5.8793    3.1347  -12.4285 C   0  0  0  0  0  0  0  0  0  0  0  0
   -6.4963    1.8327  -12.8555 C   0  0  0  0  0  0  0  0  0  0  0  0
   -4.6823    2.9043  -11.5155 C   0  0  0  0  0  0  0  0  0  0  0  0
  1  2  1  0
  2  3  2  0
  3  4  1  0
  4  5  1  1
  5  6  2  0
  5  7  1  0
  7  8  1  0
  8  9  2  0
  9 10  1  0
  9 11  1  0
 11 12  2  0
 12 13  1  0
 12 14  1  0
 14 15  1  0
 15 16  1  0
 15 17  1  0
  4  2  1  0
 14  8  1  0
M  END
>  <energy_score>  (4140) 
-24.180999

>  <alias>  (4140) 
REYJMLQILSNXSL-UHFFFAOYSA-N-P35-P35-P86-601529

>  <HIPPO Pose ID>  (4140) 
82469

>  <smiles>  (4140) 
CC1=CC1C(=O)Nc1c(C)nc(C)n1C(C)C

>  <inchikey>  (4140) 
REYJMLQILSNXSL-UHFFFAOYSA-N

>  <distance_score>  (4140) 
1.310785

>  <ref_mols>  (4140) 
Z0719a,Z1597a

>  <ref_pdb>  (4140) 
Z0719a

>  <HIPPO Compound ID>  (4140) 
152020

>  <name>  (4140) 
REYJMLQILSNXSL-UHFFFAOYSA-N-P35-P35-P86-601529

>  <inspiration_score>  (4140) 
None

$$$$
BWQRIKVSPGXXLO-UHFFFAOYSA-N-P35-P35-P86-601529
     RDKit          3D

 17 18  0  0  0  0  0  0  0  0999 V2000
   -3.2853    7.5815  -20.7461 C   0  0  0  0  0  0  0  0  0  0  0  0
   -4.1511    6.6578  -20.3030 C   0  0  0  0  0  0  0  0  0  0  0  0
   -3.8407    5.4637  -19.4369 C   0  0  1  0  0  0  0  0  0  0  0  0
   -2.4266    5.3428  -19.2735 O   0  0  0  0  0  0  0  0  0  0  0  0
   -4.5551    5.5620  -18.0548 C   0  0  0  0  0  0  0  0  0  0  0  0
   -3.9985    5.9110  -17.0837 O   0  0  0  0  0  0  0  0  0  0  0  0
   -6.0235    5.0731  -18.2586 N   0  0  0  0  0  0  0  0  0  0  0  0
   -7.0213    4.8371  -17.3422 C   0  0  0  0  0  0  0  0  0  0  0  0
   -8.3197    4.4765  -17.6532 C   0  0  0  0  0  0  0  0  0  0  0  0
   -8.9356    4.2258  -18.9556 C   0  0  0  0  0  0  0  0  0  0  0  0
   -9.0896    4.3266  -16.5381 N   0  0  0  0  0  0  0  0  0  0  0  0
   -8.2923    4.5778  -15.5263 C   0  0  0  0  0  0  0  0  0  0  0  0
   -8.7181    4.5960  -14.1151 C   0  0  0  0  0  0  0  0  0  0  0  0
   -7.0136    4.8284  -15.9638 N   0  0  0  0  0  0  0  0  0  0  0  0
   -5.8263    4.9245  -15.0993 C   0  0  0  0  0  0  0  0  0  0  0  0
   -5.5190    6.2174  -14.3859 C   0  0  0  0  0  0  0  0  0  0  0  0
   -5.7440    4.9728  -13.5886 C   0  0  0  0  0  0  0  0  0  0  0  0
  1  2  2  0
  2  3  1  0
  3  4  1  1
  3  5  1  0
  5  6  2  0
  5  7  1  0
  7  8  1  0
  8  9  2  0
  9 10  1  0
  9 11  1  0
 11 12  2  0
 12 13  1  0
 12 14  1  0
 14 15  1  0
 15 16  1  0
 16 17  1  0
 14  8  1  0
 17 15  1  0
M  END
>  <energy_score>  (4141) 
-27.954311

>  <alias>  (4141) 
BWQRIKVSPGXXLO-UHFFFAOYSA-N-P35-P35-P86-601529

>  <HIPPO Pose ID>  (4141) 
82489

>  <smiles>  (4141) 
C=CC(O)C(=O)Nc1c(C)nc(C)n1C1CC1

>  <inchikey>  (4141) 
BWQRIKVSPGXXLO-UHFFFAOYSA-N

>  <distance_score>  (4141) 
1.815238

>  <ref_mols>  (4141) 
Z0719a,Z1597a

>  <ref_pdb>  (4141) 
Z0719a

>  <HIPPO Compound ID>  (4141) 
152030

>  <name>  (4141) 
BWQRIKVSPGXXLO-UHFFFAOYSA-N-P35-P35-P86-601529

>  <inspiration_score>  (4141) 
None

$$$$
PEPDVGAFYVGSJC-UHFFFAOYSA-N-P35-P35-P86-601529
     RDKit          3D

 17 17  0  0  0  0  0  0  0  0999 V2000
   -5.2986    7.1909  -20.1112 C   0  0  0  0  0  0  0  0  0  0  0  0
   -4.1805    6.4803  -19.9050 C   0  0  0  0  0  0  0  0  0  0  0  0
   -3.8501    5.6180  -18.7143 C   0  0  1  0  0  0  0  0  0  0  0  0
   -2.4827    5.8911  -18.3978 O   0  0  0  0  0  0  0  0  0  0  0  0
   -4.7372    5.8701  -17.4489 C   0  0  0  0  0  0  0  0  0  0  0  0
   -4.4474    6.6492  -16.6231 O   0  0  0  0  0  0  0  0  0  0  0  0
   -6.0007    4.9693  -17.5880 N   0  0  0  0  0  0  0  0  0  0  0  0
   -7.1408    4.9166  -16.8347 C   0  0  0  0  0  0  0  0  0  0  0  0
   -8.3972    4.6211  -17.3374 C   0  0  0  0  0  0  0  0  0  0  0  0
   -8.8048    4.1893  -18.6857 C   0  0  0  0  0  0  0  0  0  0  0  0
   -9.3644    4.9951  -16.4485 N   0  0  0  0  0  0  0  0  0  0  0  0
   -8.7240    5.5468  -15.4458 C   0  0  0  0  0  0  0  0  0  0  0  0
   -9.2965    6.3528  -14.3387 C   0  0  0  0  0  0  0  0  0  0  0  0
   -7.3760    5.2463  -15.5194 N   0  0  0  0  0  0  0  0  0  0  0  0
   -6.6652    4.9497  -14.2793 C   0  0  0  0  0  0  0  0  0  0  0  0
   -7.2760    3.7223  -13.5761 C   0  0  0  0  0  0  0  0  0  0  0  0
   -5.1640    4.7773  -14.3620 C   0  0  0  0  0  0  0  0  0  0  0  0
  1  2  2  0
  2  3  1  0
  3  4  1  1
  3  5  1  0
  5  6  2  0
  5  7  1  0
  7  8  1  0
  8  9  2  0
  9 10  1  0
  9 11  1  0
 11 12  2  0
 12 13  1  0
 12 14  1  0
 14 15  1  0
 15 16  1  0
 15 17  1  0
 14  8  1  0
M  END
>  <energy_score>  (4142) 
-11.7502

>  <alias>  (4142) 
PEPDVGAFYVGSJC-UHFFFAOYSA-N-P35-P35-P86-601529

>  <HIPPO Pose ID>  (4142) 
82495

>  <smiles>  (4142) 
C=CC(O)C(=O)Nc1c(C)nc(C)n1C(C)C

>  <inchikey>  (4142) 
PEPDVGAFYVGSJC-UHFFFAOYSA-N

>  <distance_score>  (4142) 
1.597207

>  <ref_mols>  (4142) 
Z0719a,Z1597a

>  <ref_pdb>  (4142) 
Z0719a

>  <HIPPO Compound ID>  (4142) 
152033

>  <name>  (4142) 
PEPDVGAFYVGSJC-UHFFFAOYSA-N-P35-P35-P86-601529

>  <inspiration_score>  (4142) 
None

$$$$
LUDMBOTWBZFHRZ-UHFFFAOYSA-N-P35-P35-P86-601529
     RDKit          3D

 17 18  0  0  0  0  0  0  0  0999 V2000
   -4.8853    7.9908  -19.9012 C   0  0  0  0  0  0  0  0  0  0  0  0
   -4.2593    6.8731  -20.2978 C   0  0  0  0  0  0  0  0  0  0  0  0
   -3.8799    5.6884  -19.4533 C   0  0  1  0  0  0  0  0  0  0  0  0
   -2.4581    5.6654  -19.4170 O   0  0  0  0  0  0  0  0  0  0  0  0
   -4.5246    5.6507  -18.0290 C   0  0  0  0  0  0  0  0  0  0  0  0
   -3.9387    5.9216  -17.0516 O   0  0  0  0  0  0  0  0  0  0  0  0
   -6.0022    5.1929  -18.2274 N   0  0  0  0  0  0  0  0  0  0  0  0
   -6.9771    4.9000  -17.3044 C   0  0  0  0  0  0  0  0  0  0  0  0
   -8.2604    4.4755  -17.6314 C   0  0  0  0  0  0  0  0  0  0  0  0
   -8.8531    4.2164  -18.9462 C   0  0  0  0  0  0  0  0  0  0  0  0
   -9.0382    4.2723  -16.5298 N   0  0  0  0  0  0  0  0  0  0  0  0
   -8.2441    4.5650  -15.5355 C   0  0  0  0  0  0  0  0  0  0  0  0
   -8.5778    4.5757  -14.1459 C   0  0  0  0  0  0  0  0  0  0  0  0
   -7.7304    4.9262  -13.2190 N   0  0  0  0  0  0  0  0  0  0  0  0
   -6.4551    5.2233  -13.6355 C   0  0  0  0  0  0  0  0  0  0  0  0
   -6.0630    5.2381  -14.9206 C   0  0  0  0  0  0  0  0  0  0  0  0
   -6.9741    4.9292  -15.9204 N   0  0  0  0  0  0  0  0  0  0  0  0
  1  2  2  0
  2  3  1  0
  3  4  1  1
  3  5  1  0
  5  6  2  0
  5  7  1  0
  7  8  1  0
  8  9  2  0
  9 10  1  0
  9 11  1  0
 11 12  2  0
 12 13  1  0
 13 14  2  0
 14 15  1  0
 15 16  2  0
 16 17  1  0
 17  8  1  0
 17 12  1  0
M  END
>  <energy_score>  (4143) 
-6.813621

>  <alias>  (4143) 
LUDMBOTWBZFHRZ-UHFFFAOYSA-N-P35-P35-P86-601529

>  <HIPPO Pose ID>  (4143) 
82499

>  <smiles>  (4143) 
C=CC(O)C(=O)Nc1c(C)nc2cnccn12

>  <inchikey>  (4143) 
LUDMBOTWBZFHRZ-UHFFFAOYSA-N

>  <distance_score>  (4143) 
1.595295

>  <ref_mols>  (4143) 
Z0719a,Z1597a

>  <ref_pdb>  (4143) 
Z0719a

>  <HIPPO Compound ID>  (4143) 
152035

>  <name>  (4143) 
LUDMBOTWBZFHRZ-UHFFFAOYSA-N-P35-P35-P86-601529

>  <inspiration_score>  (4143) 
None

$$$$
JMMLMHPJLCXQTN-UHFFFAOYSA-N-P35-P35-P86-601529
     RDKit          3D

 17 18  0  0  0  0  0  0  0  0999 V2000
   -4.9254    2.5789  -13.4084 C   0  0  0  0  0  0  0  0  0  0  0  0
   -4.5926    3.3197  -12.1276 C   0  0  0  0  0  0  0  0  0  0  0  0
   -5.0096    4.6946  -12.2147 O   0  0  0  0  0  0  0  0  0  0  0  0
   -5.8907    5.1282  -11.2649 C   0  0  0  0  0  0  0  0  0  0  0  0
   -5.6003    5.9978  -10.4520 O   0  0  0  0  0  0  0  0  0  0  0  0
   -7.1209    4.3962  -11.2628 C   0  0  0  0  0  0  0  0  0  0  0  0
   -7.6823    3.8983  -10.1056 N   0  0  0  0  0  0  0  0  0  0  0  0
   -8.6681    3.0341  -10.4697 C   0  0  0  0  0  0  0  0  0  0  0  0
   -8.8511    3.0473  -11.7689 N   0  0  0  0  0  0  0  0  0  0  0  0
   -7.9551    3.9463  -12.2643 C   0  0  0  0  0  0  0  0  0  0  0  0
   -7.9636    4.2099  -13.6005 N   0  0  0  0  0  0  0  0  0  0  0  0
   -7.2831    5.3372  -14.4039 C   0  0  0  0  0  0  0  0  0  0  0  0
   -6.6714    6.2621  -14.0402 O   0  0  0  0  0  0  0  0  0  0  0  0
   -7.3675    5.1089  -15.9060 C   0  0  0  0  0  0  0  0  0  0  0  0
   -9.1511    4.3593  -16.7627 I   0  0  0  0  0  0  0  0  0  0  0  0
   -6.6169    6.0540  -16.8380 C   0  0  0  0  0  0  0  0  0  0  0  0
   -6.1260    4.6561  -16.6390 C   0  0  0  0  0  0  0  0  0  0  0  0
  1  2  1  0
  2  3  1  0
  3  4  1  0
  4  5  2  0
  4  6  1  0
  6  7  1  0
  7  8  1  0
  8  9  2  0
  9 10  1  0
 10 11  1  0
 11 12  1  0
 12 13  2  0
 12 14  1  0
 14 15  1  0
 14 16  1  0
 16 17  1  0
 10  6  2  0
 17 14  1  0
M  END
>  <energy_score>  (4144) 
-9.71495

>  <alias>  (4144) 
JMMLMHPJLCXQTN-UHFFFAOYSA-N-P35-P35-P86-601529

>  <HIPPO Pose ID>  (4144) 
82501

>  <smiles>  (4144) 
CCOC(=O)c1[nH]cnc1NC(=O)C1(I)CC1

>  <inchikey>  (4144) 
JMMLMHPJLCXQTN-UHFFFAOYSA-N

>  <distance_score>  (4144) 
1.672268

>  <ref_mols>  (4144) 
Z0719a,Z1597a

>  <ref_pdb>  (4144) 
Z0719a

>  <HIPPO Compound ID>  (4144) 
152036

>  <name>  (4144) 
JMMLMHPJLCXQTN-UHFFFAOYSA-N-P35-P35-P86-601529

>  <inspiration_score>  (4144) 
None

$$$$
KFMUCAAEKCTVEH-UHFFFAOYSA-N-P35-P35-P86-601529
     RDKit          3D

 17 17  0  0  0  0  0  0  0  0999 V2000
   -7.4364    4.0570  -12.9556 C   0  0  0  0  0  0  0  0  0  0  0  0
   -6.3838    3.9705  -14.0470 C   0  0  0  0  0  0  0  0  0  0  0  0
   -6.2569    5.1599  -15.0052 C   0  0  0  0  0  0  0  0  0  0  0  0
   -7.2669    5.2369  -16.0242 N   0  0  0  0  0  0  0  0  0  0  0  0
   -8.6103    5.3530  -15.7547 C   0  0  0  0  0  0  0  0  0  0  0  0
   -9.1601    6.0992  -14.5991 C   0  0  0  0  0  0  0  0  0  0  0  0
   -9.3022    4.7812  -16.7117 N   0  0  0  0  0  0  0  0  0  0  0  0
   -8.4115    4.6091  -17.7342 C   0  0  0  0  0  0  0  0  0  0  0  0
   -8.9002    4.1140  -19.0174 C   0  0  0  0  0  0  0  0  0  0  0  0
   -7.1512    5.0431  -17.3764 C   0  0  0  0  0  0  0  0  0  0  0  0
   -6.0807    5.2373  -18.2076 N   0  0  0  0  0  0  0  0  0  0  0  0
   -4.7316    5.9716  -17.9621 C   0  0  0  0  0  0  0  0  0  0  0  0
   -4.2976    6.4553  -16.9888 O   0  0  0  0  0  0  0  0  0  0  0  0
   -3.9729    5.9792  -19.2801 C   0  0  0  0  0  0  0  0  0  0  0  0
   -4.2671    7.2714  -20.0209 C   0  0  1  0  0  0  0  0  0  0  0  0
   -3.3496    7.4910  -21.2082 C   0  0  0  0  0  0  0  0  0  0  0  0
   -5.5463    7.2503  -20.4784 F   0  0  0  0  0  0  0  0  0  0  0  0
  1  2  1  0
  2  3  1  0
  3  4  1  0
  4  5  1  0
  5  6  1  0
  5  7  2  0
  7  8  1  0
  8  9  1  0
  8 10  2  0
 10 11  1  0
 11 12  1  0
 12 13  2  0
 12 14  1  0
 14 15  1  0
 15 16  1  6
 15 17  1  0
 10  4  1  0
M  END
>  <energy_score>  (4145) 
-13.231731

>  <alias>  (4145) 
KFMUCAAEKCTVEH-UHFFFAOYSA-N-P35-P35-P86-601529

>  <HIPPO Pose ID>  (4145) 
82511

>  <smiles>  (4145) 
CCCn1c(C)nc(C)c1NC(=O)CC(C)F

>  <inchikey>  (4145) 
KFMUCAAEKCTVEH-UHFFFAOYSA-N

>  <distance_score>  (4145) 
1.315679

>  <ref_mols>  (4145) 
Z0719a,Z1597a

>  <ref_pdb>  (4145) 
Z0719a

>  <HIPPO Compound ID>  (4145) 
152041

>  <name>  (4145) 
KFMUCAAEKCTVEH-UHFFFAOYSA-N-P35-P35-P86-601529

>  <inspiration_score>  (4145) 
None

$$$$
XZDUWKYBLVJXON-UHFFFAOYSA-N-P35-P35-P86-601529
     RDKit          3D

 17 18  0  0  0  0  0  0  0  0999 V2000
   -6.5359    2.2122  -13.1972 N   0  0  0  0  0  0  0  0  0  0  0  0
   -5.6300    2.8389  -13.5613 C   0  0  0  0  0  0  0  0  0  0  0  0
   -4.6219    3.5945  -14.2185 C   0  0  0  0  0  0  0  0  0  0  0  0
   -3.2686    3.7868  -13.9815 C   0  0  0  0  0  0  0  0  0  0  0  0
   -2.4512    3.4198  -12.9639 N   0  0  0  0  0  0  0  0  0  0  0  0
   -2.7603    2.6483  -11.6467 C   0  0  0  0  0  0  0  0  0  0  0  0
   -3.7480    2.1475  -11.2785 O   0  0  0  0  0  0  0  0  0  0  0  0
   -1.4613    2.7070  -10.8092 C   0  0  1  0  0  0  0  0  0  0  0  0
   -1.7583    1.8880   -9.0511 Br  0  0  0  0  0  0  0  0  0  0  0  0
   -0.1868    2.1482  -11.4164 C   0  0  0  0  0  0  0  0  0  0  0  0
   -0.4019    0.4228  -12.2817 Br  0  0  0  0  0  0  0  0  0  0  0  0
   -2.6585    4.4877  -15.0039 N   0  0  0  0  0  0  0  0  0  0  0  0
   -3.6338    4.7337  -15.8267 C   0  0  0  0  0  0  0  0  0  0  0  0
   -4.8291    4.2962  -15.3673 N   0  0  0  0  0  0  0  0  0  0  0  0
   -5.9976    4.6459  -16.1423 C   0  0  0  0  0  0  0  0  0  0  0  0
   -5.4976    5.0226  -17.5431 C   0  0  0  0  0  0  0  0  0  0  0  0
   -3.7210    5.4848  -17.3630 S   0  0  0  0  0  0  0  0  0  0  0  0
  1  2  3  0
  2  3  1  0
  3  4  2  0
  4  5  1  0
  5  6  1  0
  6  7  2  0
  6  8  1  0
  8  9  1  1
  8 10  1  0
 10 11  1  0
  4 12  1  0
 12 13  2  0
 13 14  1  0
 14 15  1  0
 15 16  1  0
 16 17  1  0
 14  3  1  0
 17 13  1  0
M  END
>  <energy_score>  (4146) 
-6.24366

>  <alias>  (4146) 
XZDUWKYBLVJXON-UHFFFAOYSA-N-P35-P35-P86-601529

>  <HIPPO Pose ID>  (4146) 
82535

>  <smiles>  (4146) 
N#Cc1c(NC(=O)C(Br)CBr)nc2n1CCS2

>  <inchikey>  (4146) 
XZDUWKYBLVJXON-UHFFFAOYSA-N

>  <distance_score>  (4146) 
1.254836

>  <ref_mols>  (4146) 
Z0719a,Z1597a

>  <ref_pdb>  (4146) 
Z0719a

>  <HIPPO Compound ID>  (4146) 
152053

>  <name>  (4146) 
XZDUWKYBLVJXON-UHFFFAOYSA-N-P35-P35-P86-601529

>  <inspiration_score>  (4146) 
None

$$$$
ZTQQBOPHTIHBAN-UHFFFAOYSA-N-P35-P35-P86-601529
     RDKit          3D

 17 17  0  0  0  0  0  0  0  0999 V2000
   -3.4158    7.8996  -20.7326 C   0  0  0  0  0  0  0  0  0  0  0  0
   -4.2524    6.9654  -20.2597 C   0  0  0  0  0  0  0  0  0  0  0  0
   -3.8899    5.9340  -19.2237 C   0  0  2  0  0  0  0  0  0  0  0  0
   -3.9558    4.6604  -19.8427 O   0  0  0  0  0  0  0  0  0  0  0  0
   -4.7656    6.1145  -17.9341 C   0  0  0  0  0  0  0  0  0  0  0  0
   -4.5059    6.8900  -17.0944 O   0  0  0  0  0  0  0  0  0  0  0  0
   -5.9835    5.1500  -18.0775 N   0  0  0  0  0  0  0  0  0  0  0  0
   -7.1074    5.0211  -17.3118 C   0  0  0  0  0  0  0  0  0  0  0  0
   -8.3551    4.5771  -17.6946 C   0  0  0  0  0  0  0  0  0  0  0  0
   -8.8180    4.0718  -18.9854 C   0  0  0  0  0  0  0  0  0  0  0  0
   -9.2758    4.7923  -16.7050 N   0  0  0  0  0  0  0  0  0  0  0  0
   -8.6178    5.4000  -15.7456 C   0  0  0  0  0  0  0  0  0  0  0  0
   -9.2073    6.1272  -14.5963 C   0  0  0  0  0  0  0  0  0  0  0  0
   -7.2676    5.3263  -15.9868 N   0  0  0  0  0  0  0  0  0  0  0  0
   -6.2709    5.3529  -14.9510 C   0  0  0  0  0  0  0  0  0  0  0  0
   -6.2844    4.1350  -14.0232 C   0  0  0  0  0  0  0  0  0  0  0  0
   -7.4196    4.0451  -13.0170 C   0  0  0  0  0  0  0  0  0  0  0  0
  1  2  2  0
  2  3  1  0
  3  4  1  6
  3  5  1  0
  5  6  2  0
  5  7  1  0
  7  8  1  0
  8  9  2  0
  9 10  1  0
  9 11  1  0
 11 12  2  0
 12 13  1  0
 12 14  1  0
 14 15  1  0
 15 16  1  0
 16 17  1  0
 14  8  1  0
M  END
>  <energy_score>  (4147) 
-25.546245

>  <alias>  (4147) 
ZTQQBOPHTIHBAN-UHFFFAOYSA-N-P35-P35-P86-601529

>  <HIPPO Pose ID>  (4147) 
82557

>  <smiles>  (4147) 
C=CC(O)C(=O)Nc1c(C)nc(C)n1CCC

>  <inchikey>  (4147) 
ZTQQBOPHTIHBAN-UHFFFAOYSA-N

>  <distance_score>  (4147) 
1.37979

>  <ref_mols>  (4147) 
Z0719a,Z1597a

>  <ref_pdb>  (4147) 
Z0719a

>  <HIPPO Compound ID>  (4147) 
152064

>  <name>  (4147) 
ZTQQBOPHTIHBAN-UHFFFAOYSA-N-P35-P35-P86-601529

>  <inspiration_score>  (4147) 
None

$$$$
RPAKVTHYNRWXBX-UHFFFAOYSA-N-P86-P35-P86-601529
     RDKit          3D

 17 17  0  0  0  0  0  0  0  0999 V2000
   -2.6897    7.7121  -21.4063 C   0  0  0  0  0  0  0  0  0  0  0  0
   -3.3150    6.6140  -20.9642 C   0  0  0  0  0  0  0  0  0  0  0  0
   -4.1163    6.5546  -19.6957 C   0  0  0  0  0  0  0  0  0  0  0  0
   -3.4841    5.6015  -18.6749 C   0  0  0  0  0  0  0  0  0  0  0  0
   -4.1672    5.6024  -17.3003 C   0  0  0  0  0  0  0  0  0  0  0  0
   -3.6156    5.9112  -16.3195 O   0  0  0  0  0  0  0  0  0  0  0  0
   -5.6091    5.0830  -17.5195 N   0  0  0  0  0  0  0  0  0  0  0  0
   -6.5786    4.7661  -16.6227 C   0  0  0  0  0  0  0  0  0  0  0  0
   -7.8000    4.5684  -17.2154 N   0  0  0  0  0  0  0  0  0  0  0  0
   -8.6390    4.3419  -16.2407 C   0  0  0  0  0  0  0  0  0  0  0  0
   -8.0042    4.4143  -15.0447 N   0  0  0  0  0  0  0  0  0  0  0  0
   -8.6564    4.4233  -13.7597 C   0  0  0  0  0  0  0  0  0  0  0  0
   -6.6384    4.5468  -15.2552 C   0  0  0  0  0  0  0  0  0  0  0  0
   -5.5508    4.3951  -13.8746 S   0  0  0  0  0  0  0  0  0  0  0  0
   -6.1077    3.1142  -12.9264 N   0  0  0  0  0  0  0  0  0  0  0  0
   -4.2328    3.9862  -14.2805 O   0  0  0  0  0  0  0  0  0  0  0  0
   -5.7915    5.5892  -13.1081 O   0  0  0  0  0  0  0  0  0  0  0  0
  1  2  2  0
  2  3  1  0
  3  4  1  0
  4  5  1  0
  5  6  2  0
  5  7  1  0
  7  8  1  0
  8  9  1  0
  9 10  2  0
 10 11  1  0
 11 12  1  0
 11 13  1  0
 13 14  1  0
 14 15  1  0
 14 16  2  0
 14 17  2  0
 13  8  2  0
M  END
>  <energy_score>  (4148) 
-12.79761

>  <alias>  (4148) 
RPAKVTHYNRWXBX-UHFFFAOYSA-N-P86-P35-P86-601529

>  <HIPPO Pose ID>  (4148) 
82570

>  <smiles>  (4148) 
C=CCCC(=O)Nc1ncn(C)c1S(N)(=O)=O

>  <inchikey>  (4148) 
RPAKVTHYNRWXBX-UHFFFAOYSA-N

>  <distance_score>  (4148) 
1.931089

>  <ref_mols>  (4148) 
Z0719a,Z1597a

>  <ref_pdb>  (4148) 
Z0719a

>  <HIPPO Compound ID>  (4148) 
152070

>  <name>  (4148) 
RPAKVTHYNRWXBX-UHFFFAOYSA-N-P86-P35-P86-601529

>  <inspiration_score>  (4148) 
None

$$$$
BVLUTPRTMUEMDX-UHFFFAOYSA-N-P86-P35-P86-601529
     RDKit          3D

 17 18  0  0  0  0  0  0  0  0999 V2000
   -1.7050    5.3388  -21.1625 C   0  0  0  0  0  0  0  0  0  0  0  0
   -2.8788    5.9601  -21.0055 C   0  0  0  0  0  0  0  0  0  0  0  0
   -3.0674    7.2054  -20.1921 C   0  0  0  0  0  0  0  0  0  0  0  0
   -3.7908    6.9230  -18.8729 C   0  0  0  0  0  0  0  0  0  0  0  0
   -5.2653    6.6469  -19.1199 C   0  0  0  0  0  0  0  0  0  0  0  0
   -5.8287    7.0375  -20.0642 O   0  0  0  0  0  0  0  0  0  0  0  0
   -5.7676    5.7767  -17.9386 N   0  0  0  0  0  0  0  0  0  0  0  0
   -6.9672    5.1674  -17.7383 C   0  0  0  0  0  0  0  0  0  0  0  0
   -7.8884    5.0254  -18.7339 N   0  0  0  0  0  0  0  0  0  0  0  0
   -8.9594    4.3488  -18.2207 C   0  0  0  0  0  0  0  0  0  0  0  0
   -8.7857    4.0484  -16.9588 N   0  0  0  0  0  0  0  0  0  0  0  0
   -7.5520    4.5750  -16.6410 C   0  0  0  0  0  0  0  0  0  0  0  0
   -7.0152    4.4971  -15.2896 C   0  0  0  0  0  0  0  0  0  0  0  0
   -5.6835    4.7532  -15.0466 N   0  0  0  0  0  0  0  0  0  0  0  0
   -5.4678    4.4223  -13.7799 N   0  0  0  0  0  0  0  0  0  0  0  0
   -6.6657    4.0148  -13.3356 N   0  0  0  0  0  0  0  0  0  0  0  0
   -7.6891    4.1558  -14.1842 N   0  0  0  0  0  0  0  0  0  0  0  0
  1  2  2  0
  2  3  1  0
  3  4  1  0
  4  5  1  0
  5  6  2  0
  5  7  1  0
  7  8  1  0
  8  9  1  0
  9 10  1  0
 10 11  2  0
 11 12  1  0
 12 13  1  0
 13 14  1  0
 14 15  2  0
 15 16  1  0
 16 17  1  0
 12  8  2  0
 17 13  2  0
M  END
>  <energy_score>  (4149) 
-7.28457

>  <alias>  (4149) 
BVLUTPRTMUEMDX-UHFFFAOYSA-N-P86-P35-P86-601529

>  <HIPPO Pose ID>  (4149) 
82594

>  <smiles>  (4149) 
C=CCCC(=O)Nc1[nH]cnc1-c1nn[nH]n1

>  <inchikey>  (4149) 
BVLUTPRTMUEMDX-UHFFFAOYSA-N

>  <distance_score>  (4149) 
1.686179

>  <ref_mols>  (4149) 
Z0719a,Z1597a

>  <ref_pdb>  (4149) 
Z0719a

>  <HIPPO Compound ID>  (4149) 
152082

>  <name>  (4149) 
BVLUTPRTMUEMDX-UHFFFAOYSA-N-P86-P35-P86-601529

>  <inspiration_score>  (4149) 
None

$$$$
FKALYDCLPWGWRR-UHFFFAOYSA-N-P86-P35-P86-601529
     RDKit          3D

 17 18  0  0  0  0  0  0  0  0999 V2000
   -5.7398    8.7353  -24.4952 C   0  0  0  0  0  0  0  0  0  0  0  0
   -5.2939    8.3448  -23.4509 C   0  0  0  0  0  0  0  0  0  0  0  0
   -4.7525    7.8515  -22.1743 C   0  0  0  0  0  0  0  0  0  0  0  0
   -4.4778    6.3637  -22.2427 C   0  0  0  0  0  0  0  0  0  0  0  0
   -4.2425    5.9102  -20.8236 C   0  0  0  0  0  0  0  0  0  0  0  0
   -3.2019    6.0126  -20.3009 O   0  0  0  0  0  0  0  0  0  0  0  0
   -5.6095    5.4318  -20.2607 N   0  0  0  0  0  0  0  0  0  0  0  0
   -5.9700    5.0967  -19.0058 C   0  0  0  0  0  0  0  0  0  0  0  0
   -7.2243    4.7318  -18.5755 C   0  0  0  0  0  0  0  0  0  0  0  0
   -7.1281    4.7196  -17.2150 N   0  0  0  0  0  0  0  0  0  0  0  0
   -8.1533    4.5661  -16.3392 N   0  0  0  0  0  0  0  0  0  0  0  0
   -7.7616    4.7105  -15.1141 C   0  0  0  0  0  0  0  0  0  0  0  0
   -8.9609    4.6916  -13.9030 Cl  0  0  0  0  0  0  0  0  0  0  0  0
   -6.3812    4.9663  -14.6446 C   0  0  0  0  0  0  0  0  0  0  0  0
   -5.4422    5.1453  -15.5682 C   0  0  0  0  0  0  0  0  0  0  0  0
   -5.8132    5.0465  -16.9159 C   0  0  0  0  0  0  0  0  0  0  0  0
   -5.0923    5.2419  -17.9872 N   0  0  0  0  0  0  0  0  0  0  0  0
  1  2  3  0
  2  3  1  0
  3  4  1  0
  4  5  1  0
  5  6  2  0
  5  7  1  0
  7  8  1  0
  8  9  2  0
  9 10  1  0
 10 11  1  0
 11 12  2  0
 12 13  1  0
 12 14  1  0
 14 15  2  0
 15 16  1  0
 16 17  2  0
 17  8  1  0
 16 10  1  0
M  END
>  <energy_score>  (4150) 
-27.214033

>  <alias>  (4150) 
FKALYDCLPWGWRR-UHFFFAOYSA-N-P86-P35-P86-601529

>  <HIPPO Pose ID>  (4150) 
82606

>  <smiles>  (4150) 
C#CCCC(=O)Nc1cn2nc(Cl)ccc2n1

>  <inchikey>  (4150) 
FKALYDCLPWGWRR-UHFFFAOYSA-N

>  <distance_score>  (4150) 
1.925524

>  <ref_mols>  (4150) 
Z0719a,Z1597a

>  <ref_pdb>  (4150) 
Z0719a

>  <HIPPO Compound ID>  (4150) 
152088

>  <name>  (4150) 
FKALYDCLPWGWRR-UHFFFAOYSA-N-P86-P35-P86-601529

>  <inspiration_score>  (4150) 
None

$$$$
IZCBBLRYQZGIMW-UHFFFAOYSA-N-P86-P35-P86-601529
     RDKit          3D

 17 17  0  0  0  0  0  0  0  0999 V2000
   -2.5556    7.0363  -21.8015 C   0  0  0  0  0  0  0  0  0  0  0  0
   -3.2840    6.8280  -20.8699 C   0  0  0  0  0  0  0  0  0  0  0  0
   -4.1668    6.5879  -19.7189 C   0  0  0  0  0  0  0  0  0  0  0  0
   -3.4711    5.7393  -18.6520 C   0  0  0  0  0  0  0  0  0  0  0  0
   -4.1910    5.7197  -17.2980 C   0  0  0  0  0  0  0  0  0  0  0  0
   -3.7080    6.1395  -16.3222 O   0  0  0  0  0  0  0  0  0  0  0  0
   -5.5408    4.9933  -17.5174 N   0  0  0  0  0  0  0  0  0  0  0  0
   -6.5533    4.7345  -16.6518 C   0  0  0  0  0  0  0  0  0  0  0  0
   -7.7654    4.5427  -17.2618 N   0  0  0  0  0  0  0  0  0  0  0  0
   -8.6239    4.3625  -16.2919 C   0  0  0  0  0  0  0  0  0  0  0  0
   -8.0045    4.4418  -15.0870 N   0  0  0  0  0  0  0  0  0  0  0  0
   -8.6661    4.4677  -13.8077 C   0  0  0  0  0  0  0  0  0  0  0  0
   -6.6367    4.5526  -15.2816 C   0  0  0  0  0  0  0  0  0  0  0  0
   -5.5570    4.4086  -13.8950 S   0  0  0  0  0  0  0  0  0  0  0  0
   -6.1099    3.1269  -12.9476 N   0  0  0  0  0  0  0  0  0  0  0  0
   -5.8072    5.6021  -13.1315 O   0  0  0  0  0  0  0  0  0  0  0  0
   -4.2362    4.0125  -14.3066 O   0  0  0  0  0  0  0  0  0  0  0  0
  1  2  3  0
  2  3  1  0
  3  4  1  0
  4  5  1  0
  5  6  2  0
  5  7  1  0
  7  8  1  0
  8  9  1  0
  9 10  2  0
 10 11  1  0
 11 12  1  0
 11 13  1  0
 13 14  1  0
 14 15  1  0
 14 16  2  0
 14 17  2  0
 13  8  2  0
M  END
>  <energy_score>  (4151) 
-31.887933

>  <alias>  (4151) 
IZCBBLRYQZGIMW-UHFFFAOYSA-N-P86-P35-P86-601529

>  <HIPPO Pose ID>  (4151) 
82634

>  <smiles>  (4151) 
C#CCCC(=O)Nc1ncn(C)c1S(N)(=O)=O

>  <inchikey>  (4151) 
IZCBBLRYQZGIMW-UHFFFAOYSA-N

>  <distance_score>  (4151) 
1.897442

>  <ref_mols>  (4151) 
Z0719a,Z1597a

>  <ref_pdb>  (4151) 
Z0719a

>  <HIPPO Compound ID>  (4151) 
152102

>  <name>  (4151) 
IZCBBLRYQZGIMW-UHFFFAOYSA-N-P86-P35-P86-601529

>  <inspiration_score>  (4151) 
None

$$$$
BAAIMNARZQOOIT-UHFFFAOYSA-N-P86-P35-P86-601529
     RDKit          3D

 17 17  0  0  0  0  0  0  0  0999 V2000
   -9.6375    4.2196  -16.5401 C   0  0  0  0  0  0  0  0  0  0  0  0
   -8.4281    4.2000  -17.3022 N   0  0  0  0  0  0  0  0  0  0  0  0
   -8.3861    3.9020  -18.6161 C   0  0  0  0  0  0  0  0  0  0  0  0
   -7.1972    4.1308  -19.0944 N   0  0  0  0  0  0  0  0  0  0  0  0
   -6.4764    4.6447  -18.0597 C   0  0  0  0  0  0  0  0  0  0  0  0
   -5.2786    5.0959  -18.4960 N   0  0  0  0  0  0  0  0  0  0  0  0
   -4.1184    5.7678  -17.7281 C   0  0  0  0  0  0  0  0  0  0  0  0
   -4.0449    6.1068  -16.6140 O   0  0  0  0  0  0  0  0  0  0  0  0
   -3.0139    5.9833  -18.7725 C   0  0  0  0  0  0  0  0  0  0  0  0
   -3.4379    6.9058  -19.9239 C   0  0  0  0  0  0  0  0  0  0  0  0
   -3.4235    6.1994  -21.2564 C   0  0  0  0  0  0  0  0  0  0  0  0
   -2.6408    6.4772  -22.1610 O   0  0  0  0  0  0  0  0  0  0  0  0
   -7.1721    4.5785  -16.8686 C   0  0  0  0  0  0  0  0  0  0  0  0
   -6.8875    4.9153  -15.1795 S   0  0  0  0  0  0  0  0  0  0  0  0
   -5.3155    4.5797  -14.7633 N   0  0  0  0  0  0  0  0  0  0  0  0
   -7.7395    4.0524  -14.3965 O   0  0  0  0  0  0  0  0  0  0  0  0
   -7.0527    6.3425  -15.1073 O   0  0  0  0  0  0  0  0  0  0  0  0
  1  2  1  0
  2  3  1  0
  3  4  2  0
  4  5  1  0
  5  6  1  0
  6  7  1  0
  7  8  2  0
  7  9  1  0
  9 10  1  0
 10 11  1  0
 11 12  2  0
  5 13  2  0
 13 14  1  0
 14 15  1  0
 14 16  2  0
 14 17  2  0
 13  2  1  0
M  END
>  <energy_score>  (4152) 
-50.066335

>  <alias>  (4152) 
BAAIMNARZQOOIT-UHFFFAOYSA-N-P86-P35-P86-601529

>  <HIPPO Pose ID>  (4152) 
82658

>  <smiles>  (4152) 
Cn1cnc(NC(=O)CCC=O)c1S(N)(=O)=O

>  <inchikey>  (4152) 
BAAIMNARZQOOIT-UHFFFAOYSA-N

>  <distance_score>  (4152) 
1.656562

>  <ref_mols>  (4152) 
Z0719a,Z1597a

>  <ref_pdb>  (4152) 
Z0719a

>  <HIPPO Compound ID>  (4152) 
152114

>  <name>  (4152) 
BAAIMNARZQOOIT-UHFFFAOYSA-N-P86-P35-P86-601529

>  <inspiration_score>  (4152) 
None

$$$$
NMSPYFKXVVDDIW-UHFFFAOYSA-N-P35-P35-P86-601529
     RDKit          3D

 17 17  0  0  0  0  0  0  0  0999 V2000
   -6.3781    9.5341  -19.5403 O   0  0  0  0  0  0  0  0  0  0  0  0
   -5.2833    9.0458  -19.8170 C   0  0  0  0  0  0  0  0  0  0  0  0
   -5.0693    8.0714  -20.9560 C   0  0  0  0  0  0  0  0  0  0  0  0
   -3.9962    7.0536  -20.6378 C   0  0  0  0  0  0  0  0  0  0  0  0
   -4.1834    6.3491  -19.3049 C   0  0  0  0  0  0  0  0  0  0  0  0
   -3.3599    6.4100  -18.4776 O   0  0  0  0  0  0  0  0  0  0  0  0
   -5.5869    5.6944  -19.2782 N   0  0  0  0  0  0  0  0  0  0  0  0
   -6.2583    5.1036  -18.2695 C   0  0  0  0  0  0  0  0  0  0  0  0
   -5.8170    4.8992  -16.9926 C   0  0  0  0  0  0  0  0  0  0  0  0
   -6.8728    4.3333  -16.3472 N   0  0  0  0  0  0  0  0  0  0  0  0
   -6.9100    3.9523  -14.9547 C   0  0  0  0  0  0  0  0  0  0  0  0
   -7.9230    4.7769  -14.2242 C   0  0  0  0  0  0  0  0  0  0  0  0
   -7.4896    6.0470  -14.0607 F   0  0  0  0  0  0  0  0  0  0  0  0
   -9.1018    4.8318  -14.8771 F   0  0  0  0  0  0  0  0  0  0  0  0
   -8.1653    4.2657  -13.0027 F   0  0  0  0  0  0  0  0  0  0  0  0
   -7.8999    4.2342  -17.2434 C   0  0  0  0  0  0  0  0  0  0  0  0
   -7.5374    4.6825  -18.4216 N   0  0  0  0  0  0  0  0  0  0  0  0
  1  2  2  0
  2  3  1  0
  3  4  1  0
  4  5  1  0
  5  6  2  0
  5  7  1  0
  7  8  1  0
  8  9  2  0
  9 10  1  0
 10 11  1  0
 11 12  1  0
 12 13  1  0
 12 14  1  0
 12 15  1  0
 10 16  1  0
 16 17  2  0
 17  8  1  0
M  END
>  <energy_score>  (4153) 
-23.995137

>  <alias>  (4153) 
NMSPYFKXVVDDIW-UHFFFAOYSA-N-P35-P35-P86-601529

>  <HIPPO Pose ID>  (4153) 
82659

>  <smiles>  (4153) 
O=CCCC(=O)Nc1cn(CC(F)(F)F)cn1

>  <inchikey>  (4153) 
NMSPYFKXVVDDIW-UHFFFAOYSA-N

>  <distance_score>  (4153) 
1.456051

>  <ref_mols>  (4153) 
Z0719a,Z1597a

>  <ref_pdb>  (4153) 
Z0719a

>  <HIPPO Compound ID>  (4153) 
152115

>  <name>  (4153) 
NMSPYFKXVVDDIW-UHFFFAOYSA-N-P35-P35-P86-601529

>  <inspiration_score>  (4153) 
None

$$$$
RQELNUAYINPLJJ-UHFFFAOYSA-N-P86-P35-P86-601529
     RDKit          3D

 17 18  0  0  0  0  0  0  0  0999 V2000
   -8.3879    3.8897  -19.0932 C   0  0  0  0  0  0  0  0  0  0  0  0
   -7.9724    4.3061  -17.7488 C   0  0  0  0  0  0  0  0  0  0  0  0
   -8.8206    4.0511  -16.7069 N   0  0  0  0  0  0  0  0  0  0  0  0
   -8.1948    4.5415  -15.6697 C   0  0  0  0  0  0  0  0  0  0  0  0
   -8.6452    4.5606  -14.3138 C   0  0  0  0  0  0  0  0  0  0  0  0
   -7.9451    5.0763  -13.3409 N   0  0  0  0  0  0  0  0  0  0  0  0
   -6.6963    5.5471  -13.6668 C   0  0  0  0  0  0  0  0  0  0  0  0
   -6.2012    5.5703  -14.9154 C   0  0  0  0  0  0  0  0  0  0  0  0
   -6.9713    5.0935  -15.9679 N   0  0  0  0  0  0  0  0  0  0  0  0
   -6.8255    4.9795  -17.3404 C   0  0  0  0  0  0  0  0  0  0  0  0
   -5.8064    5.3960  -18.1637 N   0  0  0  0  0  0  0  0  0  0  0  0
   -4.6324    6.3835  -17.8990 C   0  0  0  0  0  0  0  0  0  0  0  0
   -4.3097    6.9334  -16.9156 O   0  0  0  0  0  0  0  0  0  0  0  0
   -3.7583    6.5071  -19.1994 C   0  0  0  0  0  0  0  0  0  0  0  0
   -4.5431    6.7403  -20.4895 C   0  0  0  0  0  0  0  0  0  0  0  0
   -2.8501    5.2863  -19.3201 C   0  0  0  0  0  0  0  0  0  0  0  0
   -2.9073    7.6569  -19.0418 O   0  0  0  0  0  0  0  0  0  0  0  0
  1  2  1  0
  2  3  1  0
  3  4  2  0
  4  5  1  0
  5  6  2  0
  6  7  1  0
  7  8  2  0
  8  9  1  0
  9 10  1  0
 10 11  1  0
 11 12  1  0
 12 13  2  0
 12 14  1  0
 14 15  1  0
 14 16  1  0
 14 17  1  0
 10  2  2  0
  9  4  1  0
M  END
>  <energy_score>  (4154) 
-24.870743

>  <alias>  (4154) 
RQELNUAYINPLJJ-UHFFFAOYSA-N-P86-P35-P86-601529

>  <HIPPO Pose ID>  (4154) 
82680

>  <smiles>  (4154) 
Cc1nc2cnccn2c1NC(=O)C(C)(C)O

>  <inchikey>  (4154) 
RQELNUAYINPLJJ-UHFFFAOYSA-N

>  <distance_score>  (4154) 
1.672436

>  <ref_mols>  (4154) 
Z0719a,Z1597a

>  <ref_pdb>  (4154) 
Z0719a

>  <HIPPO Compound ID>  (4154) 
152125

>  <name>  (4154) 
RQELNUAYINPLJJ-UHFFFAOYSA-N-P86-P35-P86-601529

>  <inspiration_score>  (4154) 
None

$$$$
SVVURXKGZNSKTG-UHFFFAOYSA-N-P86-P35-P86-601529
     RDKit          3D

 17 18  0  0  0  0  0  0  0  0999 V2000
   -1.8927    5.6616  -23.4695 O   0  0  0  0  0  0  0  0  0  0  0  0
   -2.3712    5.9365  -22.3655 C   0  0  0  0  0  0  0  0  0  0  0  0
   -3.4072    7.0209  -22.1675 C   0  0  0  0  0  0  0  0  0  0  0  0
   -4.7214    6.4910  -21.6192 C   0  0  0  0  0  0  0  0  0  0  0  0
   -4.5911    6.1352  -20.1507 C   0  0  0  0  0  0  0  0  0  0  0  0
   -3.6015    6.2760  -19.5461 O   0  0  0  0  0  0  0  0  0  0  0  0
   -5.9742    5.5945  -19.7032 N   0  0  0  0  0  0  0  0  0  0  0  0
   -6.4190    5.2311  -18.4836 C   0  0  0  0  0  0  0  0  0  0  0  0
   -7.6537    4.7204  -18.1614 C   0  0  0  0  0  0  0  0  0  0  0  0
   -7.6028    4.5497  -16.8021 N   0  0  0  0  0  0  0  0  0  0  0  0
   -8.6973    4.1089  -15.9558 C   0  0  0  0  0  0  0  0  0  0  0  0
   -8.6353    4.4737  -14.4772 C   0  0  0  0  0  0  0  0  0  0  0  0
   -8.2372    5.8926  -14.0314 C   0  0  0  0  0  0  0  0  0  0  0  0
   -7.5976    5.2676  -12.7814 C   0  0  0  0  0  0  0  0  0  0  0  0
   -7.5620    3.9151  -13.5038 C   0  0  0  0  0  0  0  0  0  0  0  0
   -6.3562    4.9129  -16.4046 C   0  0  0  0  0  0  0  0  0  0  0  0
   -5.6375    5.3765  -17.3916 N   0  0  0  0  0  0  0  0  0  0  0  0
  1  2  2  0
  2  3  1  0
  3  4  1  0
  4  5  1  0
  5  6  2  0
  5  7  1  0
  7  8  1  0
  8  9  2  0
  9 10  1  0
 10 11  1  0
 11 12  1  0
 12 13  1  0
 13 14  1  0
 14 15  1  0
 10 16  1  0
 16 17  2  0
 17  8  1  0
 15 12  1  0
M  END
>  <energy_score>  (4155) 
-18.508635

>  <alias>  (4155) 
SVVURXKGZNSKTG-UHFFFAOYSA-N-P86-P35-P86-601529

>  <HIPPO Pose ID>  (4155) 
82682

>  <smiles>  (4155) 
O=CCCC(=O)Nc1cn(CC2CCC2)cn1

>  <inchikey>  (4155) 
SVVURXKGZNSKTG-UHFFFAOYSA-N

>  <distance_score>  (4155) 
1.850147

>  <ref_mols>  (4155) 
Z0719a,Z1597a

>  <ref_pdb>  (4155) 
Z0719a

>  <HIPPO Compound ID>  (4155) 
152126

>  <name>  (4155) 
SVVURXKGZNSKTG-UHFFFAOYSA-N-P86-P35-P86-601529

>  <inspiration_score>  (4155) 
None

$$$$
YRANMBPQEHQDPL-UHFFFAOYSA-N-P86-P35-P86-601529
     RDKit          3D

 17 18  0  0  0  0  0  0  0  0999 V2000
   -3.2512    6.4818  -19.6366 C   0  0  0  0  0  0  0  0  0  0  0  0
   -3.3937    6.4781  -18.1095 C   0  0  2  0  0  0  0  0  0  0  0  0
   -2.9083    5.2224  -17.5711 O   0  0  0  0  0  0  0  0  0  0  0  0
   -3.3533    5.0502  -16.1704 N   0  0  0  0  0  0  0  0  0  0  0  0
   -4.8561    6.6662  -17.6970 C   0  0  0  0  0  0  0  0  0  0  0  0
   -5.2584    7.5879  -17.0993 O   0  0  0  0  0  0  0  0  0  0  0  0
   -5.5787    5.3641  -18.1489 N   0  0  0  0  0  0  0  0  0  0  0  0
   -6.8268    4.9216  -17.8928 C   0  0  0  0  0  0  0  0  0  0  0  0
   -7.6856    4.1681  -18.6663 C   0  0  0  0  0  0  0  0  0  0  0  0
   -8.7940    3.7988  -17.9584 N   0  0  0  0  0  0  0  0  0  0  0  0
   -8.5555    4.2767  -16.7625 C   0  0  0  0  0  0  0  0  0  0  0  0
   -9.3560    4.1374  -15.6111 C   0  0  0  0  0  0  0  0  0  0  0  0
   -9.0316    4.6014  -14.4415 N   0  0  0  0  0  0  0  0  0  0  0  0
   -7.7808    5.1581  -14.3225 C   0  0  0  0  0  0  0  0  0  0  0  0
   -7.3131    5.5204  -12.5535 Br  0  0  0  0  0  0  0  0  0  0  0  0
   -6.9641    5.3750  -15.3739 C   0  0  0  0  0  0  0  0  0  0  0  0
   -7.3824    4.9547  -16.6362 N   0  0  0  0  0  0  0  0  0  0  0  0
  2  1  1  6
  2  3  1  0
  3  4  1  0
  2  5  1  0
  5  6  2  0
  5  7  1  0
  7  8  1  0
  8  9  2  0
  9 10  1  0
 10 11  2  0
 11 12  1  0
 12 13  2  0
 13 14  1  0
 14 15  1  0
 14 16  2  0
 16 17  1  0
 17  8  1  0
 17 11  1  0
M  END
>  <energy_score>  (4156) 
-18.925898

>  <alias>  (4156) 
YRANMBPQEHQDPL-UHFFFAOYSA-N-P86-P35-P86-601529

>  <HIPPO Pose ID>  (4156) 
82700

>  <smiles>  (4156) 
CC(ON)C(=O)Nc1cnc2cnc(Br)cn12

>  <inchikey>  (4156) 
YRANMBPQEHQDPL-UHFFFAOYSA-N

>  <distance_score>  (4156) 
1.79807

>  <ref_mols>  (4156) 
Z0719a,Z1597a

>  <ref_pdb>  (4156) 
Z0719a

>  <HIPPO Compound ID>  (4156) 
152135

>  <name>  (4156) 
YRANMBPQEHQDPL-UHFFFAOYSA-N-P86-P35-P86-601529

>  <inspiration_score>  (4156) 
None

$$$$
HSIWKJDTLCKZIW-UHFFFAOYSA-N-P86-P35-P86-601529
     RDKit          3D

 17 18  0  0  0  0  0  0  0  0999 V2000
   -4.2714    5.9914  -20.3798 C   0  0  0  0  0  0  0  0  0  0  0  0
   -4.0973    6.1089  -18.8722 C   0  0  2  0  0  0  0  0  0  0  0  0
   -3.5480    4.8821  -18.3344 O   0  0  0  0  0  0  0  0  0  0  0  0
   -3.5277    4.8462  -16.8560 N   0  0  0  0  0  0  0  0  0  0  0  0
   -5.4118    6.3889  -18.1424 C   0  0  0  0  0  0  0  0  0  0  0  0
   -5.6120    7.3952  -17.5780 O   0  0  0  0  0  0  0  0  0  0  0  0
   -6.2742    5.0940  -18.2345 N   0  0  0  0  0  0  0  0  0  0  0  0
   -7.4381    4.7618  -17.6122 C   0  0  0  0  0  0  0  0  0  0  0  0
   -8.4973    3.9880  -18.0163 C   0  0  0  0  0  0  0  0  0  0  0  0
   -9.3759    3.7847  -16.9808 N   0  0  0  0  0  0  0  0  0  0  0  0
   -8.8484    4.3715  -15.9212 C   0  0  0  0  0  0  0  0  0  0  0  0
   -9.2923    4.4135  -14.6231 N   0  0  0  0  0  0  0  0  0  0  0  0
   -8.4711    4.8678  -13.7321 C   0  0  0  0  0  0  0  0  0  0  0  0
   -7.1434    5.4587  -14.0086 C   0  0  0  0  0  0  0  0  0  0  0  0
   -6.1124    6.1124  -12.6393 Br  0  0  0  0  0  0  0  0  0  0  0  0
   -6.8003    5.5010  -15.2973 C   0  0  0  0  0  0  0  0  0  0  0  0
   -7.6368    4.9623  -16.2613 N   0  0  0  0  0  0  0  0  0  0  0  0
  2  1  1  6
  2  3  1  0
  3  4  1  0
  2  5  1  0
  5  6  2  0
  5  7  1  0
  7  8  1  0
  8  9  2  0
  9 10  1  0
 10 11  2  0
 11 12  1  0
 12 13  2  0
 13 14  1  0
 14 15  1  0
 14 16  2  0
 16 17  1  0
 17  8  1  0
 17 11  1  0
M  END
>  <energy_score>  (4157) 
-18.085765

>  <alias>  (4157) 
HSIWKJDTLCKZIW-UHFFFAOYSA-N-P86-P35-P86-601529

>  <HIPPO Pose ID>  (4157) 
82704

>  <smiles>  (4157) 
CC(ON)C(=O)Nc1cnc2ncc(Br)cn12

>  <inchikey>  (4157) 
HSIWKJDTLCKZIW-UHFFFAOYSA-N

>  <distance_score>  (4157) 
1.799009

>  <ref_mols>  (4157) 
Z0719a,Z1597a

>  <ref_pdb>  (4157) 
Z0719a

>  <HIPPO Compound ID>  (4157) 
152137

>  <name>  (4157) 
HSIWKJDTLCKZIW-UHFFFAOYSA-N-P86-P35-P86-601529

>  <inspiration_score>  (4157) 
None

$$$$
AUQPGDVCYIJFSJ-UHFFFAOYSA-N-P86-P35-P86-601529
     RDKit          3D

 17 17  0  0  0  0  0  0  0  0999 V2000
   -4.5593    7.0757  -21.0512 C   0  0  0  0  0  0  0  0  0  0  0  0
   -4.5583    5.7538  -20.2932 C   0  0  0  0  0  0  0  0  0  0  0  0
   -3.1516    5.1458  -20.3334 C   0  0  0  0  0  0  0  0  0  0  0  0
   -5.4592    4.8533  -20.9370 O   0  0  0  0  0  0  0  0  0  0  0  0
   -4.9074    6.0044  -18.7947 C   0  0  0  0  0  0  0  0  0  0  0  0
   -4.2213    6.6148  -18.0697 O   0  0  0  0  0  0  0  0  0  0  0  0
   -6.2163    5.2163  -18.5166 N   0  0  0  0  0  0  0  0  0  0  0  0
   -6.8518    4.9568  -17.3570 C   0  0  0  0  0  0  0  0  0  0  0  0
   -6.3805    5.1835  -16.0938 C   0  0  0  0  0  0  0  0  0  0  0  0
   -7.2061    4.4552  -15.2842 N   0  0  0  0  0  0  0  0  0  0  0  0
   -7.0586    4.2124  -13.8654 C   0  0  0  0  0  0  0  0  0  0  0  0
   -5.7190    3.7498  -13.3519 C   0  0  0  0  0  0  0  0  0  0  0  0
   -4.6820    3.9924  -14.1760 F   0  0  0  0  0  0  0  0  0  0  0  0
   -5.7081    2.4530  -12.9972 F   0  0  0  0  0  0  0  0  0  0  0  0
   -5.4464    4.4503  -12.2276 F   0  0  0  0  0  0  0  0  0  0  0  0
   -8.2675    4.0680  -16.0568 C   0  0  0  0  0  0  0  0  0  0  0  0
   -8.0473    4.3196  -17.3277 N   0  0  0  0  0  0  0  0  0  0  0  0
  1  2  1  0
  2  3  1  0
  2  4  1  0
  2  5  1  0
  5  6  2  0
  5  7  1  0
  7  8  1  0
  8  9  2  0
  9 10  1  0
 10 11  1  0
 11 12  1  0
 12 13  1  0
 12 14  1  0
 12 15  1  0
 10 16  1  0
 16 17  2  0
 17  8  1  0
M  END
>  <energy_score>  (4158) 
-9.817051

>  <alias>  (4158) 
AUQPGDVCYIJFSJ-UHFFFAOYSA-N-P86-P35-P86-601529

>  <HIPPO Pose ID>  (4158) 
82708

>  <smiles>  (4158) 
CC(C)(O)C(=O)Nc1cn(CC(F)(F)F)cn1

>  <inchikey>  (4158) 
AUQPGDVCYIJFSJ-UHFFFAOYSA-N

>  <distance_score>  (4158) 
1.918078

>  <ref_mols>  (4158) 
Z0719a,Z1597a

>  <ref_pdb>  (4158) 
Z0719a

>  <HIPPO Compound ID>  (4158) 
152139

>  <name>  (4158) 
AUQPGDVCYIJFSJ-UHFFFAOYSA-N-P86-P35-P86-601529

>  <inspiration_score>  (4158) 
None

$$$$
DBTGBSFZBQTXDY-UHFFFAOYSA-N-P86-P35-P86-601529
     RDKit          3D

 17 17  0  0  0  0  0  0  0  0999 V2000
   -4.5488    6.7988  -20.9007 C   0  0  0  0  0  0  0  0  0  0  0  0
   -4.0593    5.5661  -20.1591 C   0  0  1  0  0  0  0  0  0  0  0  0
   -2.6370    5.4992  -20.3486 O   0  0  0  0  0  0  0  0  0  0  0  0
   -2.1640    4.1486  -20.0470 N   0  0  0  0  0  0  0  0  0  0  0  0
   -4.4124    5.6795  -18.6523 C   0  0  0  0  0  0  0  0  0  0  0  0
   -3.6229    6.0023  -17.8474 O   0  0  0  0  0  0  0  0  0  0  0  0
   -5.8929    5.2067  -18.4854 N   0  0  0  0  0  0  0  0  0  0  0  0
   -6.6167    4.9625  -17.3672 C   0  0  0  0  0  0  0  0  0  0  0  0
   -6.1751    5.0302  -16.0732 C   0  0  0  0  0  0  0  0  0  0  0  0
   -7.1607    4.4567  -15.3198 N   0  0  0  0  0  0  0  0  0  0  0  0
   -7.1793    4.2443  -13.8840 C   0  0  0  0  0  0  0  0  0  0  0  0
   -5.9504    3.7137  -13.1856 C   0  0  0  0  0  0  0  0  0  0  0  0
   -6.1066    2.4465  -12.7574 F   0  0  0  0  0  0  0  0  0  0  0  0
   -5.7172    4.4628  -12.0720 F   0  0  0  0  0  0  0  0  0  0  0  0
   -4.8350    3.7920  -13.9286 F   0  0  0  0  0  0  0  0  0  0  0  0
   -8.2161    4.2367  -16.1700 C   0  0  0  0  0  0  0  0  0  0  0  0
   -7.9013    4.5272  -17.4163 N   0  0  0  0  0  0  0  0  0  0  0  0
  2  1  1  6
  2  3  1  0
  3  4  1  0
  2  5  1  0
  5  6  2  0
  5  7  1  0
  7  8  1  0
  8  9  2  0
  9 10  1  0
 10 11  1  0
 11 12  1  0
 12 13  1  0
 12 14  1  0
 12 15  1  0
 10 16  1  0
 16 17  2  0
 17  8  1  0
M  END
>  <energy_score>  (4159) 
-32.956458

>  <alias>  (4159) 
DBTGBSFZBQTXDY-UHFFFAOYSA-N-P86-P35-P86-601529

>  <HIPPO Pose ID>  (4159) 
82712

>  <smiles>  (4159) 
CC(ON)C(=O)Nc1cn(CC(F)(F)F)cn1

>  <inchikey>  (4159) 
DBTGBSFZBQTXDY-UHFFFAOYSA-N

>  <distance_score>  (4159) 
1.866413

>  <ref_mols>  (4159) 
Z0719a,Z1597a

>  <ref_pdb>  (4159) 
Z0719a

>  <HIPPO Compound ID>  (4159) 
152141

>  <name>  (4159) 
DBTGBSFZBQTXDY-UHFFFAOYSA-N-P86-P35-P86-601529

>  <inspiration_score>  (4159) 
None

$$$$
LSYONDYBMVOBML-UHFFFAOYSA-N-P35-P35-P86-601529
     RDKit          3D

 17 17  0  0  0  0  0  0  0  0999 V2000
   -7.7524    6.4157  -14.5120 C   0  0  0  0  0  0  0  0  0  0  0  0
   -7.4301    5.1135  -13.8121 C   0  0  0  0  0  0  0  0  0  0  0  0
   -6.2517    4.4446  -14.3069 O   0  0  0  0  0  0  0  0  0  0  0  0
   -5.8394    4.3233  -15.6035 C   0  0  0  0  0  0  0  0  0  0  0  0
   -4.6689    4.0412  -15.8368 O   0  0  0  0  0  0  0  0  0  0  0  0
   -6.8655    4.4428  -16.6051 C   0  0  0  0  0  0  0  0  0  0  0  0
   -8.1618    3.9701  -16.4748 N   0  0  0  0  0  0  0  0  0  0  0  0
   -8.8121    4.1529  -17.6497 C   0  0  0  0  0  0  0  0  0  0  0  0
   -7.9904    4.6102  -18.5577 N   0  0  0  0  0  0  0  0  0  0  0  0
   -6.8006    4.8271  -17.9299 C   0  0  0  0  0  0  0  0  0  0  0  0
   -5.7917    5.3448  -18.6801 N   0  0  0  0  0  0  0  0  0  0  0  0
   -4.4859    6.0748  -18.2518 C   0  0  0  0  0  0  0  0  0  0  0  0
   -4.1166    6.4102  -17.1920 O   0  0  0  0  0  0  0  0  0  0  0  0
   -3.6116    6.3073  -19.5088 C   0  0  2  0  0  0  0  0  0  0  0  0
   -4.3053    7.1495  -20.5723 C   0  0  0  0  0  0  0  0  0  0  0  0
   -3.1951    5.0336  -20.0235 O   0  0  0  0  0  0  0  0  0  0  0  0
   -1.9749    5.1380  -20.8380 N   0  0  0  0  0  0  0  0  0  0  0  0
  1  2  1  0
  2  3  1  0
  3  4  1  0
  4  5  2  0
  4  6  1  0
  6  7  1  0
  7  8  1  0
  8  9  2  0
  9 10  1  0
 10 11  1  0
 11 12  1  0
 12 13  2  0
 12 14  1  0
 14 15  1  6
 14 16  1  0
 16 17  1  0
 10  6  2  0
M  END
>  <energy_score>  (4160) 
-6.261601

>  <alias>  (4160) 
LSYONDYBMVOBML-UHFFFAOYSA-N-P35-P35-P86-601529

>  <HIPPO Pose ID>  (4160) 
82719

>  <smiles>  (4160) 
CCOC(=O)c1[nH]cnc1NC(=O)C(C)ON

>  <inchikey>  (4160) 
LSYONDYBMVOBML-UHFFFAOYSA-N

>  <distance_score>  (4160) 
1.908454

>  <ref_mols>  (4160) 
Z0719a,Z1597a

>  <ref_pdb>  (4160) 
Z0719a

>  <HIPPO Compound ID>  (4160) 
152145

>  <name>  (4160) 
LSYONDYBMVOBML-UHFFFAOYSA-N-P35-P35-P86-601529

>  <inspiration_score>  (4160) 
None

$$$$
HPURPISEEAAJTH-UHFFFAOYSA-N-P35-P35-P86-601529
     RDKit          3D

 17 18  0  0  0  0  0  0  0  0999 V2000
   -4.3754    7.6247  -20.7354 C   0  0  0  0  0  0  0  0  0  0  0  0
   -4.1402    6.6375  -20.0927 C   0  0  0  0  0  0  0  0  0  0  0  0
   -3.8450    5.4136  -19.3133 C   0  0  1  0  0  0  0  0  0  0  0  0
   -2.3726    5.4100  -18.9007 C   0  0  0  0  0  0  0  0  0  0  0  0
   -4.7624    5.2303  -18.0854 C   0  0  0  0  0  0  0  0  0  0  0  0
   -4.3452    5.1013  -16.9986 O   0  0  0  0  0  0  0  0  0  0  0  0
   -6.2283    5.1598  -18.6218 N   0  0  0  0  0  0  0  0  0  0  0  0
   -7.3940    4.8405  -17.9805 C   0  0  0  0  0  0  0  0  0  0  0  0
   -8.5734    4.8480  -18.6780 N   0  0  0  0  0  0  0  0  0  0  0  0
   -9.5689    4.4115  -17.8560 C   0  0  0  0  0  0  0  0  0  0  0  0
   -9.1107    4.1203  -16.6677 N   0  0  0  0  0  0  0  0  0  0  0  0
   -7.7700    4.4543  -16.7060 C   0  0  0  0  0  0  0  0  0  0  0  0
   -7.0003    4.3878  -15.4711 C   0  0  0  0  0  0  0  0  0  0  0  0
   -6.8389    3.2138  -14.7842 N   0  0  0  0  0  0  0  0  0  0  0  0
   -6.0531    3.4783  -13.7523 N   0  0  0  0  0  0  0  0  0  0  0  0
   -5.8460    4.7942  -13.8343 N   0  0  0  0  0  0  0  0  0  0  0  0
   -6.4416    5.4388  -14.8483 N   0  0  0  0  0  0  0  0  0  0  0  0
  1  2  3  0
  2  3  1  0
  3  4  1  1
  3  5  1  0
  5  6  2  0
  5  7  1  0
  7  8  1  0
  8  9  1  0
  9 10  1  0
 10 11  2  0
 11 12  1  0
 12 13  1  0
 13 14  1  0
 14 15  2  0
 15 16  1  0
 16 17  1  0
 12  8  2  0
 17 13  2  0
M  END
>  <energy_score>  (4161) 
-21.954839

>  <alias>  (4161) 
HPURPISEEAAJTH-UHFFFAOYSA-N-P35-P35-P86-601529

>  <HIPPO Pose ID>  (4161) 
82755

>  <smiles>  (4161) 
C#CC(C)C(=O)Nc1[nH]cnc1-c1nn[nH]n1

>  <inchikey>  (4161) 
HPURPISEEAAJTH-UHFFFAOYSA-N

>  <distance_score>  (4161) 
1.225519

>  <ref_mols>  (4161) 
Z0719a,Z1597a

>  <ref_pdb>  (4161) 
Z0719a

>  <HIPPO Compound ID>  (4161) 
152163

>  <name>  (4161) 
HPURPISEEAAJTH-UHFFFAOYSA-N-P35-P35-P86-601529

>  <inspiration_score>  (4161) 
None

$$$$
ARKWVERYSSHYEZ-UHFFFAOYSA-N-P35-P35-P86-601529
     RDKit          3D

 17 17  0  0  0  0  0  0  0  0999 V2000
   -7.6147    3.1519  -14.3408 C   0  0  0  0  0  0  0  0  0  0  0  0
   -7.9169    3.8564  -15.6366 C   0  0  0  0  0  0  0  0  0  0  0  0
   -8.8649    3.6008  -16.5234 N   0  0  0  0  0  0  0  0  0  0  0  0
   -8.4744    4.2423  -17.6778 C   0  0  0  0  0  0  0  0  0  0  0  0
   -7.2889    4.9184  -17.4774 C   0  0  0  0  0  0  0  0  0  0  0  0
   -6.4135    5.4117  -18.4118 N   0  0  0  0  0  0  0  0  0  0  0  0
   -5.0501    6.1441  -18.2329 C   0  0  0  0  0  0  0  0  0  0  0  0
   -4.5051    6.5061  -17.2619 O   0  0  0  0  0  0  0  0  0  0  0  0
   -4.3776    6.2649  -19.5919 C   0  0  0  0  0  0  0  0  0  0  0  0
   -5.0511    7.2618  -20.5130 C   0  0  0  0  0  0  0  0  0  0  0  0
   -3.7428    7.8598  -22.1005 I   0  0  0  0  0  0  0  0  0  0  0  0
   -7.1348    4.8827  -16.1108 N   0  0  0  0  0  0  0  0  0  0  0  0
   -6.3606    5.7665  -15.2865 C   0  0  0  0  0  0  0  0  0  0  0  0
   -6.8132    5.9396  -13.8500 C   0  0  0  0  0  0  0  0  0  0  0  0
   -8.1557    5.9577  -13.7019 F   0  0  0  0  0  0  0  0  0  0  0  0
   -6.3454    7.1082  -13.3633 F   0  0  0  0  0  0  0  0  0  0  0  0
   -6.3185    4.9673  -13.0476 F   0  0  0  0  0  0  0  0  0  0  0  0
  1  2  1  0
  2  3  2  0
  3  4  1  0
  4  5  2  0
  5  6  1  0
  6  7  1  0
  7  8  2  0
  7  9  1  0
  9 10  1  0
 10 11  1  0
  5 12  1  0
 12 13  1  0
 13 14  1  0
 14 15  1  0
 14 16  1  0
 14 17  1  0
 12  2  1  0
M  END
>  <energy_score>  (4162) 
-10.253941

>  <alias>  (4162) 
ARKWVERYSSHYEZ-UHFFFAOYSA-N-P35-P35-P86-601529

>  <HIPPO Pose ID>  (4162) 
82769

>  <smiles>  (4162) 
Cc1ncc(NC(=O)CCI)n1CC(F)(F)F

>  <inchikey>  (4162) 
ARKWVERYSSHYEZ-UHFFFAOYSA-N

>  <distance_score>  (4162) 
1.964422

>  <ref_mols>  (4162) 
Z0719a,Z1597a

>  <ref_pdb>  (4162) 
Z0719a

>  <HIPPO Compound ID>  (4162) 
152170

>  <name>  (4162) 
ARKWVERYSSHYEZ-UHFFFAOYSA-N-P35-P35-P86-601529

>  <inspiration_score>  (4162) 
None

$$$$
JUZFLEHIFPFFMG-UHFFFAOYSA-N-P35-P35-P86-601529
     RDKit          3D

 17 17  0  0  0  0  0  0  0  0999 V2000
   -7.9073    5.1158  -11.5279 C   0  0  0  0  0  0  0  0  0  0  0  0
   -8.0718    3.9858  -12.5155 C   0  0  0  0  0  0  0  0  0  0  0  0
   -7.8333    4.4388  -13.8542 O   0  0  0  0  0  0  0  0  0  0  0  0
   -8.8992    4.9858  -14.5007 C   0  0  0  0  0  0  0  0  0  0  0  0
   -9.9490    5.3352  -13.9807 O   0  0  0  0  0  0  0  0  0  0  0  0
   -8.6506    5.0111  -15.9103 C   0  0  0  0  0  0  0  0  0  0  0  0
   -7.5504    5.4843  -16.4460 N   0  0  0  0  0  0  0  0  0  0  0  0
   -7.5709    5.0323  -17.7226 C   0  0  0  0  0  0  0  0  0  0  0  0
   -6.4017    5.0543  -18.3726 N   0  0  0  0  0  0  0  0  0  0  0  0
   -5.2260    6.0648  -18.2975 C   0  0  0  0  0  0  0  0  0  0  0  0
   -5.1301    7.0753  -17.7144 O   0  0  0  0  0  0  0  0  0  0  0  0
   -4.0723    5.4515  -19.0790 C   0  0  1  0  0  0  0  0  0  0  0  0
   -3.5051    6.4562  -20.0702 C   0  0  0  0  0  0  0  0  0  0  0  0
   -3.0719    5.1448  -18.0641 O   0  0  0  0  0  0  0  0  0  0  0  0
   -3.6370    4.2484  -17.0259 N   0  0  0  0  0  0  0  0  0  0  0  0
   -8.7467    4.4056  -18.0322 C   0  0  0  0  0  0  0  0  0  0  0  0
   -9.4958    4.5444  -16.8923 N   0  0  0  0  0  0  0  0  0  0  0  0
  1  2  1  0
  2  3  1  0
  3  4  1  0
  4  5  2  0
  4  6  1  0
  6  7  2  0
  7  8  1  0
  8  9  1  0
  9 10  1  0
 10 11  2  0
 10 12  1  0
 12 13  1  6
 12 14  1  0
 14 15  1  0
  8 16  2  0
 16 17  1  0
 17  6  1  0
M  END
>  <energy_score>  (4163) 
-17.451437

>  <alias>  (4163) 
JUZFLEHIFPFFMG-UHFFFAOYSA-N-P35-P35-P86-601529

>  <HIPPO Pose ID>  (4163) 
82779

>  <smiles>  (4163) 
CCOC(=O)c1nc(NC(=O)C(C)ON)c[nH]1

>  <inchikey>  (4163) 
JUZFLEHIFPFFMG-UHFFFAOYSA-N

>  <distance_score>  (4163) 
1.746238

>  <ref_mols>  (4163) 
Z0719a,Z1597a

>  <ref_pdb>  (4163) 
Z0719a

>  <HIPPO Compound ID>  (4163) 
152175

>  <name>  (4163) 
JUZFLEHIFPFFMG-UHFFFAOYSA-N-P35-P35-P86-601529

>  <inspiration_score>  (4163) 
None

$$$$
FZGYIGFPRSUWTP-UHFFFAOYSA-N-P35-P35-P86-601529
     RDKit          3D

 17 18  0  0  0  0  0  0  0  0999 V2000
   -1.2175    2.7971  -10.6241 C   0  0  0  0  0  0  0  0  0  0  0  0
   -1.0212    2.4862  -12.1096 C   0  0  0  0  0  0  0  0  0  0  0  0
   -0.2977    1.1459  -12.2691 C   0  0  0  0  0  0  0  0  0  0  0  0
    0.0057    3.7643  -12.8544 Cl  0  0  0  0  0  0  0  0  0  0  0  0
   -2.3914    2.4584  -12.8441 C   0  0  0  0  0  0  0  0  0  0  0  0
   -2.8695    1.4606  -13.2215 O   0  0  0  0  0  0  0  0  0  0  0  0
   -2.9527    3.9090  -12.8480 N   0  0  0  0  0  0  0  0  0  0  0  0
   -4.1016    4.4073  -13.3693 C   0  0  0  0  0  0  0  0  0  0  0  0
   -4.1696    5.7629  -13.6237 N   0  0  0  0  0  0  0  0  0  0  0  0
   -5.3545    5.9125  -14.1454 C   0  0  0  0  0  0  0  0  0  0  0  0
   -6.0428    4.7523  -14.2213 N   0  0  0  0  0  0  0  0  0  0  0  0
   -5.2921    3.7708  -13.6693 C   0  0  0  0  0  0  0  0  0  0  0  0
   -5.7948    2.4774  -13.4114 C   0  0  0  0  0  0  0  0  0  0  0  0
   -6.3682    1.4859  -13.2356 N   0  0  0  0  0  0  0  0  0  0  0  0
   -7.3992    4.7914  -14.7107 C   0  0  0  0  0  0  0  0  0  0  0  0
   -7.5689    6.1474  -15.3894 C   0  0  0  0  0  0  0  0  0  0  0  0
   -6.2451    7.2520  -14.7315 S   0  0  0  0  0  0  0  0  0  0  0  0
  1  2  1  0
  2  3  1  0
  2  4  1  0
  2  5  1  0
  5  6  2  0
  5  7  1  0
  7  8  1  0
  8  9  1  0
  9 10  2  0
 10 11  1  0
 11 12  1  0
 12 13  1  0
 13 14  3  0
 11 15  1  0
 15 16  1  0
 16 17  1  0
 12  8  2  0
 17 10  1  0
M  END
>  <energy_score>  (4164) 
-37.040119

>  <alias>  (4164) 
FZGYIGFPRSUWTP-UHFFFAOYSA-N-P35-P35-P86-601529

>  <HIPPO Pose ID>  (4164) 
82811

>  <smiles>  (4164) 
CC(C)(Cl)C(=O)Nc1nc2n(c1C#N)CCS2

>  <inchikey>  (4164) 
FZGYIGFPRSUWTP-UHFFFAOYSA-N

>  <distance_score>  (4164) 
1.187333

>  <ref_mols>  (4164) 
Z0719a,Z1597a

>  <ref_pdb>  (4164) 
Z0719a

>  <HIPPO Compound ID>  (4164) 
152191

>  <name>  (4164) 
FZGYIGFPRSUWTP-UHFFFAOYSA-N-P35-P35-P86-601529

>  <inspiration_score>  (4164) 
None

$$$$
AKTNCFPUMRNLFA-UHFFFAOYSA-N-P86-P35-P86-601529
     RDKit          3D

 17 18  0  0  0  0  0  0  0  0999 V2000
   -3.1595    5.9665  -20.2838 O   0  0  0  0  0  0  0  0  0  0  0  0
   -4.1985    5.8906  -20.8141 C   0  0  0  0  0  0  0  0  0  0  0  0
   -4.4091    6.3636  -22.2352 C   0  0  0  0  0  0  0  0  0  0  0  0
   -4.8275    7.8223  -22.2037 C   0  0  0  0  0  0  0  0  0  0  0  0
   -3.6971    8.7726  -21.8035 C   0  0  0  0  0  0  0  0  0  0  0  0
   -4.4172   10.8028  -21.8435 I   0  0  0  0  0  0  0  0  0  0  0  0
   -5.5787    5.4371  -20.2642 N   0  0  0  0  0  0  0  0  0  0  0  0
   -5.9548    5.0993  -19.0140 C   0  0  0  0  0  0  0  0  0  0  0  0
   -7.2139    4.7438  -18.5895 C   0  0  0  0  0  0  0  0  0  0  0  0
   -7.1233    4.7254  -17.2282 N   0  0  0  0  0  0  0  0  0  0  0  0
   -8.1526    4.5739  -16.3562 N   0  0  0  0  0  0  0  0  0  0  0  0
   -7.7651    4.7145  -15.1292 C   0  0  0  0  0  0  0  0  0  0  0  0
   -8.9683    4.6972  -13.9221 Cl  0  0  0  0  0  0  0  0  0  0  0  0
   -6.3858    4.9648  -14.6538 C   0  0  0  0  0  0  0  0  0  0  0  0
   -5.4422    5.1402  -15.5733 C   0  0  0  0  0  0  0  0  0  0  0  0
   -5.8079    5.0436  -16.9225 C   0  0  0  0  0  0  0  0  0  0  0  0
   -5.0805    5.2329  -17.9902 N   0  0  0  0  0  0  0  0  0  0  0  0
  1  2  2  0
  2  3  1  0
  3  4  1  0
  4  5  1  0
  5  6  1  0
  2  7  1  0
  7  8  1  0
  8  9  2  0
  9 10  1  0
 10 11  1  0
 11 12  2  0
 12 13  1  0
 12 14  1  0
 14 15  2  0
 15 16  1  0
 16 17  2  0
 17  8  1  0
 16 10  1  0
M  END
>  <energy_score>  (4165) 
-12.218151

>  <alias>  (4165) 
AKTNCFPUMRNLFA-UHFFFAOYSA-N-P86-P35-P86-601529

>  <HIPPO Pose ID>  (4165) 
82828

>  <smiles>  (4165) 
O=C(CCCI)Nc1cn2nc(Cl)ccc2n1

>  <inchikey>  (4165) 
AKTNCFPUMRNLFA-UHFFFAOYSA-N

>  <distance_score>  (4165) 
1.92592

>  <ref_mols>  (4165) 
Z0719a,Z1597a

>  <ref_pdb>  (4165) 
Z0719a

>  <HIPPO Compound ID>  (4165) 
152199

>  <name>  (4165) 
AKTNCFPUMRNLFA-UHFFFAOYSA-N-P86-P35-P86-601529

>  <inspiration_score>  (4165) 
None

$$$$
GXVGNNBJGAOEEA-UHFFFAOYSA-N-P86-P35-P86-601529
     RDKit          3D

 17 18  0  0  0  0  0  0  0  0999 V2000
   -3.6668    5.1447  -16.7880 C   0  0  0  0  0  0  0  0  0  0  0  0
   -3.6390    5.3638  -18.0744 C   0  0  0  0  0  0  0  0  0  0  0  0
   -3.6563    5.5589  -19.3691 C   0  0  0  0  0  0  0  0  0  0  0  0
   -4.8745    5.6904  -20.2414 C   0  0  0  0  0  0  0  0  0  0  0  0
   -6.0106    4.7160  -19.8967 C   0  0  0  0  0  0  0  0  0  0  0  0
   -6.3523    3.8399  -20.5939 O   0  0  0  0  0  0  0  0  0  0  0  0
   -6.5825    5.2009  -18.5300 N   0  0  0  0  0  0  0  0  0  0  0  0
   -7.5679    4.6788  -17.7497 C   0  0  0  0  0  0  0  0  0  0  0  0
   -8.6095    3.8430  -18.0627 C   0  0  0  0  0  0  0  0  0  0  0  0
   -9.3847    3.6001  -16.9565 N   0  0  0  0  0  0  0  0  0  0  0  0
   -8.8175    4.2413  -15.9528 C   0  0  0  0  0  0  0  0  0  0  0  0
   -9.1828    4.3134  -14.6330 N   0  0  0  0  0  0  0  0  0  0  0  0
   -8.3483    4.8719  -13.8185 C   0  0  0  0  0  0  0  0  0  0  0  0
   -7.0950    5.5582  -14.2117 C   0  0  0  0  0  0  0  0  0  0  0  0
   -6.0474    6.3655  -12.9395 Br  0  0  0  0  0  0  0  0  0  0  0  0
   -6.8412    5.5720  -15.5235 C   0  0  0  0  0  0  0  0  0  0  0  0
   -7.6744    4.8939  -16.3958 N   0  0  0  0  0  0  0  0  0  0  0  0
  1  2  2  0
  2  3  2  0
  3  4  1  0
  4  5  1  0
  5  6  2  0
  5  7  1  0
  7  8  1  0
  8  9  2  0
  9 10  1  0
 10 11  2  0
 11 12  1  0
 12 13  2  0
 13 14  1  0
 14 15  1  0
 14 16  2  0
 16 17  1  0
 17  8  1  0
 17 11  1  0
M  END
>  <energy_score>  (4166) 
-22.63123

>  <alias>  (4166) 
GXVGNNBJGAOEEA-UHFFFAOYSA-N-P86-P35-P86-601529

>  <HIPPO Pose ID>  (4166) 
82840

>  <smiles>  (4166) 
C=C=CCC(=O)Nc1cnc2ncc(Br)cn12

>  <inchikey>  (4166) 
GXVGNNBJGAOEEA-UHFFFAOYSA-N

>  <distance_score>  (4166) 
1.938982

>  <ref_mols>  (4166) 
Z0719a,Z1597a

>  <ref_pdb>  (4166) 
Z0719a

>  <HIPPO Compound ID>  (4166) 
152205

>  <name>  (4166) 
GXVGNNBJGAOEEA-UHFFFAOYSA-N-P86-P35-P86-601529

>  <inspiration_score>  (4166) 
None

$$$$
PYJCMOBAVRTLLW-UHFFFAOYSA-N-P86-P35-P86-601529
     RDKit          3D

 17 17  0  0  0  0  0  0  0  0999 V2000
   -6.5371    5.2890  -12.6240 C   0  0  0  0  0  0  0  0  0  0  0  0
   -6.0310    4.5404  -13.8511 C   0  0  0  0  0  0  0  0  0  0  0  0
   -6.2369    5.2964  -15.1655 C   0  0  0  0  0  0  0  0  0  0  0  0
   -7.1223    4.7210  -16.1449 N   0  0  0  0  0  0  0  0  0  0  0  0
   -8.4212    4.3782  -15.8404 C   0  0  0  0  0  0  0  0  0  0  0  0
   -8.9895    4.4759  -14.4925 C   0  0  0  0  0  0  0  0  0  0  0  0
   -9.0933    4.0188  -16.9042 N   0  0  0  0  0  0  0  0  0  0  0  0
   -8.2302    4.1892  -17.9374 C   0  0  0  0  0  0  0  0  0  0  0  0
   -8.6515    3.7710  -19.2718 C   0  0  0  0  0  0  0  0  0  0  0  0
   -7.0076    4.6701  -17.5157 C   0  0  0  0  0  0  0  0  0  0  0  0
   -5.9845    5.0202  -18.3564 N   0  0  0  0  0  0  0  0  0  0  0  0
   -4.4428    4.9959  -18.1376 C   0  0  0  0  0  0  0  0  0  0  0  0
   -3.8166    4.7468  -17.1811 O   0  0  0  0  0  0  0  0  0  0  0  0
   -3.8150    5.4824  -19.4309 C   0  0  0  0  0  0  0  0  0  0  0  0
   -3.9921    6.9926  -19.6051 C   0  0  0  0  0  0  0  0  0  0  0  0
   -3.2715    7.8184  -18.5225 C   0  0  0  0  0  0  0  0  0  0  0  0
   -4.3824    7.9836  -16.6469 I   0  0  0  0  0  0  0  0  0  0  0  0
  1  2  1  0
  2  3  1  0
  3  4  1  0
  4  5  1  0
  5  6  1  0
  5  7  2  0
  7  8  1  0
  8  9  1  0
  8 10  2  0
 10 11  1  0
 11 12  1  0
 12 13  2  0
 12 14  1  0
 14 15  1  0
 15 16  1  0
 16 17  1  0
 10  4  1  0
M  END
>  <energy_score>  (4167) 
-7.979413

>  <alias>  (4167) 
PYJCMOBAVRTLLW-UHFFFAOYSA-N-P86-P35-P86-601529

>  <HIPPO Pose ID>  (4167) 
82850

>  <smiles>  (4167) 
CCCn1c(C)nc(C)c1NC(=O)CCCI

>  <inchikey>  (4167) 
PYJCMOBAVRTLLW-UHFFFAOYSA-N

>  <distance_score>  (4167) 
1.961662

>  <ref_mols>  (4167) 
Z0719a,Z1597a

>  <ref_pdb>  (4167) 
Z0719a

>  <HIPPO Compound ID>  (4167) 
152210

>  <name>  (4167) 
PYJCMOBAVRTLLW-UHFFFAOYSA-N-P86-P35-P86-601529

>  <inspiration_score>  (4167) 
None

$$$$
DPMDKWAKILVBRV-UHFFFAOYSA-N-P35-P35-P86-601529
     RDKit          3D

 17 17  0  0  0  0  0  0  0  0999 V2000
   -5.0360    7.5518  -21.2378 C   0  0  0  0  0  0  0  0  0  0  0  0
   -4.2453    7.0165  -20.3602 C   0  0  0  0  0  0  0  0  0  0  0  0
   -3.4654    6.4813  -19.4693 C   0  0  0  0  0  0  0  0  0  0  0  0
   -3.5254    5.0640  -18.9784 C   0  0  0  0  0  0  0  0  0  0  0  0
   -4.1490    4.9851  -17.5758 C   0  0  0  0  0  0  0  0  0  0  0  0
   -3.5362    5.1223  -16.5911 O   0  0  0  0  0  0  0  0  0  0  0  0
   -5.6676    4.7613  -17.7910 N   0  0  0  0  0  0  0  0  0  0  0  0
   -6.6663    4.5774  -16.8933 C   0  0  0  0  0  0  0  0  0  0  0  0
   -7.9065    4.7305  -17.4606 N   0  0  0  0  0  0  0  0  0  0  0  0
   -8.7618    4.6738  -16.4784 C   0  0  0  0  0  0  0  0  0  0  0  0
   -8.1047    4.5561  -15.2997 N   0  0  0  0  0  0  0  0  0  0  0  0
   -8.6718    4.8722  -14.0125 C   0  0  0  0  0  0  0  0  0  0  0  0
   -6.7691    4.2575  -15.5485 C   0  0  0  0  0  0  0  0  0  0  0  0
   -5.7847    3.5998  -14.2344 S   0  0  0  0  0  0  0  0  0  0  0  0
   -6.6270    2.2247  -13.7146 N   0  0  0  0  0  0  0  0  0  0  0  0
   -4.5081    3.1518  -14.7210 O   0  0  0  0  0  0  0  0  0  0  0  0
   -5.9141    4.5596  -13.1673 O   0  0  0  0  0  0  0  0  0  0  0  0
  1  2  2  0
  2  3  2  0
  3  4  1  0
  4  5  1  0
  5  6  2  0
  5  7  1  0
  7  8  1  0
  8  9  1  0
  9 10  2  0
 10 11  1  0
 11 12  1  0
 11 13  1  0
 13 14  1  0
 14 15  1  0
 14 16  2  0
 14 17  2  0
 13  8  2  0
M  END
>  <energy_score>  (4168) 
-12.96236

>  <alias>  (4168) 
DPMDKWAKILVBRV-UHFFFAOYSA-N-P35-P35-P86-601529

>  <HIPPO Pose ID>  (4168) 
82853

>  <smiles>  (4168) 
C=C=CCC(=O)Nc1ncn(C)c1S(N)(=O)=O

>  <inchikey>  (4168) 
DPMDKWAKILVBRV-UHFFFAOYSA-N

>  <distance_score>  (4168) 
1.611076

>  <ref_mols>  (4168) 
Z0719a,Z1597a

>  <ref_pdb>  (4168) 
Z0719a

>  <HIPPO Compound ID>  (4168) 
152212

>  <name>  (4168) 
DPMDKWAKILVBRV-UHFFFAOYSA-N-P35-P35-P86-601529

>  <inspiration_score>  (4168) 
None

$$$$
QCTZPEWBALVNKE-UHFFFAOYSA-N-P86-P35-P86-601529
     RDKit          3D

 17 18  0  0  0  0  0  0  0  0999 V2000
   -4.5348    4.6419  -18.0916 O   0  0  0  0  0  0  0  0  0  0  0  0
   -5.2777    5.0285  -18.9035 C   0  0  0  0  0  0  0  0  0  0  0  0
   -4.7989    5.8217  -20.1033 C   0  0  0  0  0  0  0  0  0  0  0  0
   -3.7587    6.8579  -19.6575 C   0  0  0  0  0  0  0  0  0  0  0  0
   -4.3075    7.9373  -18.7019 C   0  0  0  0  0  0  0  0  0  0  0  0
   -4.2536    7.4038  -16.5593 I   0  0  0  0  0  0  0  0  0  0  0  0
   -6.8228    4.9664  -18.9599 N   0  0  0  0  0  0  0  0  0  0  0  0
   -7.7303    4.5239  -18.0331 C   0  0  0  0  0  0  0  0  0  0  0  0
   -9.0377    4.1998  -18.3061 C   0  0  0  0  0  0  0  0  0  0  0  0
   -9.7556    3.9981  -17.1695 N   0  0  0  0  0  0  0  0  0  0  0  0
   -8.9395    4.2659  -16.1705 C   0  0  0  0  0  0  0  0  0  0  0  0
   -9.2354    4.3894  -14.8358 N   0  0  0  0  0  0  0  0  0  0  0  0
   -8.2435    4.5984  -14.0346 C   0  0  0  0  0  0  0  0  0  0  0  0
   -6.8382    4.8018  -14.4445 C   0  0  0  0  0  0  0  0  0  0  0  0
   -5.5860    5.2304  -13.1687 Br  0  0  0  0  0  0  0  0  0  0  0  0
   -6.6086    4.7195  -15.7597 C   0  0  0  0  0  0  0  0  0  0  0  0
   -7.6392    4.4745  -16.6482 N   0  0  0  0  0  0  0  0  0  0  0  0
  1  2  2  0
  2  3  1  0
  3  4  1  0
  4  5  1  0
  5  6  1  0
  2  7  1  0
  7  8  1  0
  8  9  2  0
  9 10  1  0
 10 11  2  0
 11 12  1  0
 12 13  2  0
 13 14  1  0
 14 15  1  0
 14 16  2  0
 16 17  1  0
 17  8  1  0
 17 11  1  0
M  END
>  <energy_score>  (4169) 
-19.221768

>  <alias>  (4169) 
QCTZPEWBALVNKE-UHFFFAOYSA-N-P86-P35-P86-601529

>  <HIPPO Pose ID>  (4169) 
82866

>  <smiles>  (4169) 
O=C(CCCI)Nc1cnc2ncc(Br)cn12

>  <inchikey>  (4169) 
QCTZPEWBALVNKE-UHFFFAOYSA-N

>  <distance_score>  (4169) 
1.617797

>  <ref_mols>  (4169) 
Z0719a,Z1597a

>  <ref_pdb>  (4169) 
Z0719a

>  <HIPPO Compound ID>  (4169) 
152218

>  <name>  (4169) 
QCTZPEWBALVNKE-UHFFFAOYSA-N-P86-P35-P86-601529

>  <inspiration_score>  (4169) 
None

$$$$
WXKOGJAPYHBBSG-UHFFFAOYSA-N-P35-P35-P86-601529
     RDKit          3D

 17 17  0  0  0  0  0  0  0  0999 V2000
   -4.7386    6.7892  -16.3300 C   0  0  0  0  0  0  0  0  0  0  0  0
   -4.4712    7.0844  -17.5771 C   0  0  0  0  0  0  0  0  0  0  0  0
   -4.2917    7.1190  -18.8802 C   0  0  0  0  0  0  0  0  0  0  0  0
   -4.7116    5.9848  -19.8026 C   0  0  0  0  0  0  0  0  0  0  0  0
   -5.2994    4.9400  -18.8668 C   0  0  0  0  0  0  0  0  0  0  0  0
   -4.6219    4.2038  -18.2592 O   0  0  0  0  0  0  0  0  0  0  0  0
   -6.8384    5.1491  -18.8373 N   0  0  0  0  0  0  0  0  0  0  0  0
   -7.7817    4.6022  -18.0426 C   0  0  0  0  0  0  0  0  0  0  0  0
   -9.1350    4.6605  -18.2372 C   0  0  0  0  0  0  0  0  0  0  0  0
   -9.6690    4.4886  -16.9892 N   0  0  0  0  0  0  0  0  0  0  0  0
   -8.6245    4.3809  -16.0958 C   0  0  0  0  0  0  0  0  0  0  0  0
   -8.7844    4.4590  -14.6618 C   0  0  0  0  0  0  0  0  0  0  0  0
   -9.7698    4.9484  -14.1144 O   0  0  0  0  0  0  0  0  0  0  0  0
   -7.7120    3.9270  -14.0115 O   0  0  0  0  0  0  0  0  0  0  0  0
   -7.8905    3.6950  -12.6076 C   0  0  0  0  0  0  0  0  0  0  0  0
   -7.6928    4.9617  -11.8044 C   0  0  0  0  0  0  0  0  0  0  0  0
   -7.4755    4.3253  -16.7423 N   0  0  0  0  0  0  0  0  0  0  0  0
  1  2  2  0
  2  3  2  0
  3  4  1  0
  4  5  1  0
  5  6  2  0
  5  7  1  0
  7  8  1  0
  8  9  2  0
  9 10  1  0
 10 11  1  0
 11 12  1  0
 12 13  2  0
 12 14  1  0
 14 15  1  0
 15 16  1  0
 11 17  2  0
 17  8  1  0
M  END
>  <energy_score>  (4170) 
-18.262889

>  <alias>  (4170) 
WXKOGJAPYHBBSG-UHFFFAOYSA-N-P35-P35-P86-601529

>  <HIPPO Pose ID>  (4170) 
82875

>  <smiles>  (4170) 
C=C=CCC(=O)Nc1c[nH]c(C(=O)OCC)n1

>  <inchikey>  (4170) 
WXKOGJAPYHBBSG-UHFFFAOYSA-N

>  <distance_score>  (4170) 
1.607414

>  <ref_mols>  (4170) 
Z0719a,Z1597a

>  <ref_pdb>  (4170) 
Z0719a

>  <HIPPO Compound ID>  (4170) 
152223

>  <name>  (4170) 
WXKOGJAPYHBBSG-UHFFFAOYSA-N-P35-P35-P86-601529

>  <inspiration_score>  (4170) 
None

$$$$
LIJKLMXJNJOZAH-UHFFFAOYSA-N-P35-P35-P86-601529
     RDKit          3D

 17 18  0  0  0  0  0  0  0  0999 V2000
   -2.1585    2.4365   -8.7840 C   0  0  0  0  0  0  0  0  0  0  0  0
   -1.9619    1.2573   -9.7359 C   0  0  2  0  0  0  0  0  0  0  0  0
   -0.4342    0.3716   -9.2502 S   0  0  0  0  0  0  0  0  0  0  0  0
   -1.8364    1.7173  -11.1917 C   0  0  0  0  0  0  0  0  0  0  0  0
   -3.1878    2.1456  -11.7565 C   0  0  0  0  0  0  0  0  0  0  0  0
   -4.2073    1.8095  -11.3003 O   0  0  0  0  0  0  0  0  0  0  0  0
   -2.8819    2.9855  -13.0278 N   0  0  0  0  0  0  0  0  0  0  0  0
   -3.7203    3.6215  -13.8876 C   0  0  0  0  0  0  0  0  0  0  0  0
   -3.1753    4.5034  -14.8015 N   0  0  0  0  0  0  0  0  0  0  0  0
   -4.2163    4.9618  -15.4386 C   0  0  0  0  0  0  0  0  0  0  0  0
   -5.3765    4.4038  -15.0196 N   0  0  0  0  0  0  0  0  0  0  0  0
   -5.0926    3.5108  -14.0381 C   0  0  0  0  0  0  0  0  0  0  0  0
   -6.0327    2.6135  -13.4758 C   0  0  0  0  0  0  0  0  0  0  0  0
   -6.8477    1.8497  -13.1672 N   0  0  0  0  0  0  0  0  0  0  0  0
   -6.5862    4.7610  -15.7244 C   0  0  0  0  0  0  0  0  0  0  0  0
   -6.2680    6.0364  -16.5103 C   0  0  0  0  0  0  0  0  0  0  0  0
   -4.4366    6.1045  -16.7002 S   0  0  0  0  0  0  0  0  0  0  0  0
  2  1  1  1
  2  3  1  0
  2  4  1  0
  4  5  1  0
  5  6  2  0
  5  7  1  0
  7  8  1  0
  8  9  1  0
  9 10  2  0
 10 11  1  0
 11 12  1  0
 12 13  1  0
 13 14  3  0
 11 15  1  0
 15 16  1  0
 16 17  1  0
 12  8  2  0
 17 10  1  0
M  END
>  <energy_score>  (4171) 
-40.2886

>  <alias>  (4171) 
LIJKLMXJNJOZAH-UHFFFAOYSA-N-P35-P35-P86-601529

>  <HIPPO Pose ID>  (4171) 
82897

>  <smiles>  (4171) 
CC(S)CC(=O)Nc1nc2n(c1C#N)CCS2

>  <inchikey>  (4171) 
LIJKLMXJNJOZAH-UHFFFAOYSA-N

>  <distance_score>  (4171) 
1.1965

>  <ref_mols>  (4171) 
Z0719a,Z1597a

>  <ref_pdb>  (4171) 
Z0719a

>  <HIPPO Compound ID>  (4171) 
152234

>  <name>  (4171) 
LIJKLMXJNJOZAH-UHFFFAOYSA-N-P35-P35-P86-601529

>  <inspiration_score>  (4171) 
None

$$$$
PKISJKQULCWAHB-UHFFFAOYSA-N-P35-P35-P86-601529
     RDKit          3D

 17 18  0  0  0  0  0  0  0  0999 V2000
   -6.0718    3.5203  -13.4319 C   0  0  0  0  0  0  0  0  0  0  0  0
   -6.4378    1.8747  -12.8039 S   0  0  0  0  0  0  0  0  0  0  0  0
   -5.8575    2.0464  -11.0700 C   0  0  0  0  0  0  0  0  0  0  0  0
   -6.7592    2.9017  -10.1811 C   0  0  0  0  0  0  0  0  0  0  0  0
   -6.0440    4.1884   -9.7604 C   0  0  0  0  0  0  0  0  0  0  0  0
   -5.8650    5.0612  -10.5188 O   0  0  0  0  0  0  0  0  0  0  0  0
   -5.6320    4.0514   -8.2645 N   0  0  0  0  0  0  0  0  0  0  0  0
   -5.0366    4.9454   -7.4249 C   0  0  0  0  0  0  0  0  0  0  0  0
   -4.7501    4.5315   -6.1258 N   0  0  0  0  0  0  0  0  0  0  0  0
   -4.1994    5.5774   -5.5844 C   0  0  0  0  0  0  0  0  0  0  0  0
   -4.1141    6.6244   -6.4352 N   0  0  0  0  0  0  0  0  0  0  0  0
   -4.6458    6.2601   -7.6319 C   0  0  0  0  0  0  0  0  0  0  0  0
   -4.7332    7.1296   -8.7467 C   0  0  0  0  0  0  0  0  0  0  0  0
   -4.7304    7.9617   -9.5554 N   0  0  0  0  0  0  0  0  0  0  0  0
   -3.5591    7.8563   -5.9213 C   0  0  0  0  0  0  0  0  0  0  0  0
   -2.8271    7.4957   -4.6228 C   0  0  0  0  0  0  0  0  0  0  0  0
   -3.5508    5.9076   -4.0321 S   0  0  0  0  0  0  0  0  0  0  0  0
  1  2  1  0
  2  3  1  0
  3  4  1  0
  4  5  1  0
  5  6  2  0
  5  7  1  0
  7  8  1  0
  8  9  1  0
  9 10  2  0
 10 11  1  0
 11 12  1  0
 12 13  1  0
 13 14  3  0
 11 15  1  0
 15 16  1  0
 16 17  1  0
 12  8  2  0
 17 10  1  0
M  END
>  <energy_score>  (4172) 
-47.938086

>  <alias>  (4172) 
PKISJKQULCWAHB-UHFFFAOYSA-N-P35-P35-P86-601529

>  <HIPPO Pose ID>  (4172) 
82899

>  <smiles>  (4172) 
CSCCC(=O)Nc1nc2n(c1C#N)CCS2

>  <inchikey>  (4172) 
PKISJKQULCWAHB-UHFFFAOYSA-N

>  <distance_score>  (4172) 
1.225955

>  <ref_mols>  (4172) 
Z0719a,Z1597a

>  <ref_pdb>  (4172) 
Z0719a

>  <HIPPO Compound ID>  (4172) 
152235

>  <name>  (4172) 
PKISJKQULCWAHB-UHFFFAOYSA-N-P35-P35-P86-601529

>  <inspiration_score>  (4172) 
None

$$$$
XTWDVVWKIYNVMR-UHFFFAOYSA-N-P35-P35-P86-601529
     RDKit          3D

 17 18  0  0  0  0  0  0  0  0999 V2000
   -3.8337    3.6822  -14.7217 N   0  0  0  0  0  0  0  0  0  0  0  0
   -4.6679    4.1073  -15.4032 C   0  0  0  0  0  0  0  0  0  0  0  0
   -5.8556    4.5018  -16.0482 C   0  0  0  0  0  0  0  0  0  0  0  0
   -6.1234    5.0259  -17.2883 C   0  0  0  0  0  0  0  0  0  0  0  0
   -5.3027    5.3517  -18.3160 N   0  0  0  0  0  0  0  0  0  0  0  0
   -3.7614    5.5033  -18.3637 C   0  0  0  0  0  0  0  0  0  0  0  0
   -2.9546    5.2959  -17.5449 O   0  0  0  0  0  0  0  0  0  0  0  0
   -3.3794    5.8968  -19.7738 C   0  0  0  0  0  0  0  0  0  0  0  0
   -3.9357    7.2333  -20.1960 C   0  0  0  0  0  0  0  0  0  0  0  0
   -5.2874    7.1642  -20.2842 F   0  0  0  0  0  0  0  0  0  0  0  0
   -7.4652    5.2251  -17.4485 N   0  0  0  0  0  0  0  0  0  0  0  0
   -8.0085    4.8173  -16.3256 C   0  0  0  0  0  0  0  0  0  0  0  0
   -7.0718    4.3581  -15.4628 N   0  0  0  0  0  0  0  0  0  0  0  0
   -7.4252    3.9050  -14.1333 C   0  0  0  0  0  0  0  0  0  0  0  0
   -8.5556    4.7551  -13.5713 C   0  0  0  0  0  0  0  0  0  0  0  0
   -9.4276    5.3710  -14.5298 O   0  0  0  0  0  0  0  0  0  0  0  0
   -9.3944    4.8274  -15.8678 C   0  0  0  0  0  0  0  0  0  0  0  0
  1  2  3  0
  2  3  1  0
  3  4  2  0
  4  5  1  0
  5  6  1  0
  6  7  2  0
  6  8  1  0
  8  9  1  0
  9 10  1  0
  4 11  1  0
 11 12  2  0
 12 13  1  0
 13 14  1  0
 14 15  1  0
 15 16  1  0
 16 17  1  0
 13  3  1  0
 17 12  1  0
M  END
>  <energy_score>  (4173) 
-27.933678

>  <alias>  (4173) 
XTWDVVWKIYNVMR-UHFFFAOYSA-N-P35-P35-P86-601529

>  <HIPPO Pose ID>  (4173) 
82901

>  <smiles>  (4173) 
N#Cc1c(NC(=O)CCF)nc2n1CCOC2

>  <inchikey>  (4173) 
XTWDVVWKIYNVMR-UHFFFAOYSA-N

>  <distance_score>  (4173) 
1.831969

>  <ref_mols>  (4173) 
Z0719a,Z1597a

>  <ref_pdb>  (4173) 
Z0719a

>  <HIPPO Compound ID>  (4173) 
152236

>  <name>  (4173) 
XTWDVVWKIYNVMR-UHFFFAOYSA-N-P35-P35-P86-601529

>  <inspiration_score>  (4173) 
None

$$$$
XVRCGXVFLYHKID-UHFFFAOYSA-N-P86-P35-P86-601529
     RDKit          3D

 17 18  0  0  0  0  0  0  0  0999 V2000
   -9.0139    3.8496  -18.8864 C   0  0  0  0  0  0  0  0  0  0  0  0
   -8.3422    4.2737  -17.6638 C   0  0  0  0  0  0  0  0  0  0  0  0
   -8.8182    3.8686  -16.4546 N   0  0  0  0  0  0  0  0  0  0  0  0
   -7.9899    4.3740  -15.5632 C   0  0  0  0  0  0  0  0  0  0  0  0
   -8.1130    4.1488  -14.1015 C   0  0  0  0  0  0  0  0  0  0  0  0
   -7.0134    5.1323  -16.1856 N   0  0  0  0  0  0  0  0  0  0  0  0
   -6.1194    6.1028  -15.5228 C   0  0  0  0  0  0  0  0  0  0  0  0
   -5.1745    5.7284  -14.4159 C   0  0  0  0  0  0  0  0  0  0  0  0
   -6.3051    6.6799  -14.1378 C   0  0  0  0  0  0  0  0  0  0  0  0
   -7.1977    5.0292  -17.5477 C   0  0  0  0  0  0  0  0  0  0  0  0
   -6.4939    5.5150  -18.6221 N   0  0  0  0  0  0  0  0  0  0  0  0
   -5.0249    6.0153  -18.7240 C   0  0  0  0  0  0  0  0  0  0  0  0
   -4.2165    6.1619  -17.8944 O   0  0  0  0  0  0  0  0  0  0  0  0
   -4.8049    6.2551  -20.2158 C   0  0  0  0  0  0  0  0  0  0  0  0
   -3.3571    6.5765  -20.5578 C   0  0  1  0  0  0  0  0  0  0  0  0
   -2.4223    5.3804  -20.3951 C   0  0  0  0  0  0  0  0  0  0  0  0
   -3.2756    7.1364  -22.2652 Cl  0  0  0  0  0  0  0  0  0  0  0  0
  1  2  1  0
  2  3  1  0
  3  4  2  0
  4  5  1  0
  4  6  1  0
  6  7  1  0
  7  8  1  0
  8  9  1  0
  6 10  1  0
 10 11  1  0
 11 12  1  0
 12 13  2  0
 12 14  1  0
 14 15  1  0
 15 16  1  6
 15 17  1  0
 10  2  2  0
  9  7  1  0
M  END
>  <energy_score>  (4174) 
-2.728037

>  <alias>  (4174) 
XVRCGXVFLYHKID-UHFFFAOYSA-N-P86-P35-P86-601529

>  <HIPPO Pose ID>  (4174) 
82930

>  <smiles>  (4174) 
Cc1nc(C)n(C2CC2)c1NC(=O)CC(C)Cl

>  <inchikey>  (4174) 
XVRCGXVFLYHKID-UHFFFAOYSA-N

>  <distance_score>  (4174) 
1.667048

>  <ref_mols>  (4174) 
Z0719a,Z1597a

>  <ref_pdb>  (4174) 
Z0719a

>  <HIPPO Compound ID>  (4174) 
152250

>  <name>  (4174) 
XVRCGXVFLYHKID-UHFFFAOYSA-N-P86-P35-P86-601529

>  <inspiration_score>  (4174) 
None

$$$$
ULBTZYLKWAONMP-UHFFFAOYSA-N-P86-P35-P86-601529
     RDKit          3D

 17 18  0  0  0  0  0  0  0  0999 V2000
   -2.1196    6.3876  -22.2189 C   0  0  0  0  0  0  0  0  0  0  0  0
   -3.3162    7.2739  -22.5600 C   0  0  1  0  0  0  0  0  0  0  0  0
   -3.4498    7.3541  -24.3553 Cl  0  0  0  0  0  0  0  0  0  0  0  0
   -4.6520    6.8032  -22.0066 C   0  0  0  0  0  0  0  0  0  0  0  0
   -4.6111    6.8062  -20.4979 C   0  0  0  0  0  0  0  0  0  0  0  0
   -3.7910    7.3623  -19.8811 O   0  0  0  0  0  0  0  0  0  0  0  0
   -5.7936    5.9243  -20.0289 N   0  0  0  0  0  0  0  0  0  0  0  0
   -6.1302    5.4985  -18.8005 C   0  0  0  0  0  0  0  0  0  0  0  0
   -7.2898    4.8729  -18.4112 C   0  0  0  0  0  0  0  0  0  0  0  0
   -7.1835    4.7998  -17.0521 N   0  0  0  0  0  0  0  0  0  0  0  0
   -8.1818    4.5183  -16.1788 N   0  0  0  0  0  0  0  0  0  0  0  0
   -7.7810    4.6284  -14.9526 C   0  0  0  0  0  0  0  0  0  0  0  0
   -8.9626    4.5629  -13.7309 Cl  0  0  0  0  0  0  0  0  0  0  0  0
   -6.4033    4.8935  -14.4815 C   0  0  0  0  0  0  0  0  0  0  0  0
   -5.5006    5.2219  -15.3983 C   0  0  0  0  0  0  0  0  0  0  0  0
   -5.9090    5.2501  -16.7363 C   0  0  0  0  0  0  0  0  0  0  0  0
   -5.2722    5.7043  -17.7779 N   0  0  0  0  0  0  0  0  0  0  0  0
  2  1  1  6
  2  3  1  0
  2  4  1  0
  4  5  1  0
  5  6  2  0
  5  7  1  0
  7  8  1  0
  8  9  2  0
  9 10  1  0
 10 11  1  0
 11 12  2  0
 12 13  1  0
 12 14  1  0
 14 15  2  0
 15 16  1  0
 16 17  2  0
 17  8  1  0
 16 10  1  0
M  END
>  <energy_score>  (4175) 
-27.916834

>  <alias>  (4175) 
ULBTZYLKWAONMP-UHFFFAOYSA-N-P86-P35-P86-601529

>  <HIPPO Pose ID>  (4175) 
82932

>  <smiles>  (4175) 
CC(Cl)CC(=O)Nc1cn2nc(Cl)ccc2n1

>  <inchikey>  (4175) 
ULBTZYLKWAONMP-UHFFFAOYSA-N

>  <distance_score>  (4175) 
1.949547

>  <ref_mols>  (4175) 
Z0719a,Z1597a

>  <ref_pdb>  (4175) 
Z0719a

>  <HIPPO Compound ID>  (4175) 
152251

>  <name>  (4175) 
ULBTZYLKWAONMP-UHFFFAOYSA-N-P86-P35-P86-601529

>  <inspiration_score>  (4175) 
None

$$$$
FPZVLSKTUOJWSZ-UHFFFAOYSA-N-P86-P35-P86-601529
     RDKit          3D

 17 17  0  0  0  0  0  0  0  0999 V2000
   -2.2750    7.1177  -19.7743 C   0  0  0  0  0  0  0  0  0  0  0  0
   -3.5394    6.7250  -19.5627 C   0  0  0  0  0  0  0  0  0  0  0  0
   -4.9619    7.9094  -19.8118 Br  0  0  0  0  0  0  0  0  0  0  0  0
   -3.8988    5.3359  -19.1267 C   0  0  0  0  0  0  0  0  0  0  0  0
   -4.5174    5.2575  -17.7127 C   0  0  0  0  0  0  0  0  0  0  0  0
   -3.8825    5.2037  -16.7321 O   0  0  0  0  0  0  0  0  0  0  0  0
   -6.0571    5.1647  -17.9237 N   0  0  0  0  0  0  0  0  0  0  0  0
   -7.0651    4.9054  -17.0292 C   0  0  0  0  0  0  0  0  0  0  0  0
   -8.2806    4.3734  -17.4356 C   0  0  0  0  0  0  0  0  0  0  0  0
   -8.7268    3.9975  -18.7878 C   0  0  0  0  0  0  0  0  0  0  0  0
   -9.1136    4.1539  -16.3826 N   0  0  0  0  0  0  0  0  0  0  0  0
   -8.4582    4.5769  -15.3298 C   0  0  0  0  0  0  0  0  0  0  0  0
   -8.9810    4.6406  -13.9402 C   0  0  0  0  0  0  0  0  0  0  0  0
   -7.1887    5.0390  -15.6649 N   0  0  0  0  0  0  0  0  0  0  0  0
   -6.3787    5.6360  -14.6164 C   0  0  0  0  0  0  0  0  0  0  0  0
   -5.6600    4.5852  -13.7814 C   0  0  0  0  0  0  0  0  0  0  0  0
   -5.4960    6.8176  -14.9708 C   0  0  0  0  0  0  0  0  0  0  0  0
  1  2  2  0
  2  3  1  0
  2  4  1  0
  4  5  1  0
  5  6  2  0
  5  7  1  0
  7  8  1  0
  8  9  2  0
  9 10  1  0
  9 11  1  0
 11 12  2  0
 12 13  1  0
 12 14  1  0
 14 15  1  0
 15 16  1  0
 15 17  1  0
 14  8  1  0
M  END
>  <energy_score>  (4176) 
-17.809542

>  <alias>  (4176) 
FPZVLSKTUOJWSZ-UHFFFAOYSA-N-P86-P35-P86-601529

>  <HIPPO Pose ID>  (4176) 
82938

>  <smiles>  (4176) 
C=C(Br)CC(=O)Nc1c(C)nc(C)n1C(C)C

>  <inchikey>  (4176) 
FPZVLSKTUOJWSZ-UHFFFAOYSA-N

>  <distance_score>  (4176) 
1.800769

>  <ref_mols>  (4176) 
Z0719a,Z1597a

>  <ref_pdb>  (4176) 
Z0719a

>  <HIPPO Compound ID>  (4176) 
152254

>  <name>  (4176) 
FPZVLSKTUOJWSZ-UHFFFAOYSA-N-P86-P35-P86-601529

>  <inspiration_score>  (4176) 
None

$$$$
KKIKXOGGQQYRGA-UHFFFAOYSA-N-P52-P7-P52-601529
     RDKit          3D

 11 12  0  0  0  0  0  0  0  0999 V2000
   -8.7952    4.5193  -18.8848 O   0  0  0  0  0  0  0  0  0  0  0  0
   -7.5763    4.7318  -18.3312 C   0  0  0  0  0  0  0  0  0  0  0  0
   -7.4259    5.0059  -16.9873 C   0  0  0  0  0  0  0  0  0  0  0  0
   -6.2266    5.3436  -16.4598 N   0  0  0  0  0  0  0  0  0  0  0  0
   -5.1972    5.3305  -17.3458 C   0  0  0  0  0  0  0  0  0  0  0  0
   -5.3472    5.0360  -18.7041 C   0  0  0  0  0  0  0  0  0  0  0  0
   -4.2932    4.9716  -19.6260 N   0  0  0  0  0  0  0  0  0  0  0  0
   -3.1197    5.8255  -19.5407 C   0  0  0  0  0  0  0  0  0  0  0  0
   -1.7791    5.2523  -19.9268 C   0  0  0  0  0  0  0  0  0  0  0  0
   -2.0417    5.6657  -18.5119 C   0  0  0  0  0  0  0  0  0  0  0  0
   -6.5610    4.7399  -19.2092 N   0  0  0  0  0  0  0  0  0  0  0  0
  1  2  1  0
  2  3  2  0
  3  4  1  0
  4  5  2  0
  5  6  1  0
  6  7  1  0
  7  8  1  0
  8  9  1  0
  9 10  1  0
  6 11  2  0
 11  2  1  0
 10  8  1  0
M  END
>  <energy_score>  (4177) 
-28.705508

>  <alias>  (4177) 
KKIKXOGGQQYRGA-UHFFFAOYSA-N-P52-P7-P52-601529

>  <HIPPO Pose ID>  (4177) 
82952

>  <smiles>  (4177) 
Oc1cncc(NC2CC2)n1

>  <inchikey>  (4177) 
KKIKXOGGQQYRGA-UHFFFAOYSA-N

>  <distance_score>  (4177) 
1.081705

>  <ref_mols>  (4177) 
Z0875a,Z0089a

>  <ref_pdb>  (4177) 
Z0719a

>  <HIPPO Compound ID>  (4177) 
143997

>  <name>  (4177) 
KKIKXOGGQQYRGA-UHFFFAOYSA-N-P52-P7-P52-601529

>  <inspiration_score>  (4177) 
None

$$$$
FNZHMFGOBRZWHZ-UHFFFAOYSA-N-P52-P7-P52-601529
     RDKit          3D

 11 12  0  0  0  0  0  0  0  0999 V2000
   -8.8754    4.2248  -18.7701 C   0  0  0  0  0  0  0  0  0  0  0  0
   -7.5684    4.6593  -18.1911 C   0  0  0  0  0  0  0  0  0  0  0  0
   -7.4871    5.0429  -16.8607 C   0  0  0  0  0  0  0  0  0  0  0  0
   -6.3387    5.4659  -16.2905 N   0  0  0  0  0  0  0  0  0  0  0  0
   -5.2603    5.4471  -17.1116 C   0  0  0  0  0  0  0  0  0  0  0  0
   -5.3099    5.0712  -18.4539 C   0  0  0  0  0  0  0  0  0  0  0  0
   -4.2158    5.0507  -19.3172 N   0  0  0  0  0  0  0  0  0  0  0  0
   -2.8631    5.4611  -19.0040 C   0  0  0  0  0  0  0  0  0  0  0  0
   -1.6888    4.8374  -19.7027 C   0  0  0  0  0  0  0  0  0  0  0  0
   -2.0707    6.2609  -19.9952 C   0  0  0  0  0  0  0  0  0  0  0  0
   -6.4779    4.6751  -18.9985 N   0  0  0  0  0  0  0  0  0  0  0  0
  1  2  1  0
  2  3  2  0
  3  4  1  0
  4  5  2  0
  5  6  1  0
  6  7  1  0
  7  8  1  0
  8  9  1  0
  9 10  1  0
  6 11  2  0
 11  2  1  0
 10  8  1  0
M  END
>  <energy_score>  (4178) 
-15.988442

>  <alias>  (4178) 
FNZHMFGOBRZWHZ-UHFFFAOYSA-N-P52-P7-P52-601529

>  <HIPPO Pose ID>  (4178) 
82954

>  <smiles>  (4178) 
Cc1cncc(NC2CC2)n1

>  <inchikey>  (4178) 
FNZHMFGOBRZWHZ-UHFFFAOYSA-N

>  <distance_score>  (4178) 
0.765964

>  <ref_mols>  (4178) 
Z0875a,Z0089a

>  <ref_pdb>  (4178) 
Z0719a

>  <HIPPO Compound ID>  (4178) 
143998

>  <name>  (4178) 
FNZHMFGOBRZWHZ-UHFFFAOYSA-N-P52-P7-P52-601529

>  <inspiration_score>  (4178) 
None

$$$$
ZMGZHJIBYLFJLY-UHFFFAOYSA-N-P52-P7-P52-601529
     RDKit          3D

 12 13  0  0  0  0  0  0  0  0999 V2000
   -9.7730    4.6076  -16.9450 O   0  0  0  0  0  0  0  0  0  0  0  0
   -8.5686    4.7343  -16.2000 C   0  0  0  0  0  0  0  0  0  0  0  0
   -7.3866    4.9515  -17.1047 C   0  0  0  0  0  0  0  0  0  0  0  0
   -7.4045    4.5205  -18.4270 C   0  0  0  0  0  0  0  0  0  0  0  0
   -6.3427    4.6454  -19.2578 N   0  0  0  0  0  0  0  0  0  0  0  0
   -5.2479    5.2233  -18.7409 C   0  0  0  0  0  0  0  0  0  0  0  0
   -4.1607    5.3565  -19.6210 N   0  0  0  0  0  0  0  0  0  0  0  0
   -2.8335    4.9934  -19.1323 C   0  0  0  0  0  0  0  0  0  0  0  0
   -1.6063    5.2808  -19.9441 C   0  0  0  0  0  0  0  0  0  0  0  0
   -1.8698    6.0552  -18.6855 C   0  0  0  0  0  0  0  0  0  0  0  0
   -5.2274    5.6583  -17.4158 C   0  0  0  0  0  0  0  0  0  0  0  0
   -6.2831    5.5446  -16.5724 N   0  0  0  0  0  0  0  0  0  0  0  0
  1  2  1  0
  2  3  1  0
  3  4  2  0
  4  5  1  0
  5  6  2  0
  6  7  1  0
  7  8  1  0
  8  9  1  0
  9 10  1  0
  6 11  1  0
 11 12  2  0
 12  3  1  0
 10  8  1  0
M  END
>  <energy_score>  (4179) 
-18.899361

>  <alias>  (4179) 
ZMGZHJIBYLFJLY-UHFFFAOYSA-N-P52-P7-P52-601529

>  <HIPPO Pose ID>  (4179) 
82956

>  <smiles>  (4179) 
OCc1cnc(NC2CC2)cn1

>  <inchikey>  (4179) 
ZMGZHJIBYLFJLY-UHFFFAOYSA-N

>  <distance_score>  (4179) 
0.901706

>  <ref_mols>  (4179) 
Z0875a,Z0089a

>  <ref_pdb>  (4179) 
Z0719a

>  <HIPPO Compound ID>  (4179) 
143999

>  <name>  (4179) 
ZMGZHJIBYLFJLY-UHFFFAOYSA-N-P52-P7-P52-601529

>  <inspiration_score>  (4179) 
None

$$$$
WRTLXDPCCOIMAZ-UHFFFAOYSA-N-P52-P7-P52-601529
     RDKit          3D

 12 13  0  0  0  0  0  0  0  0999 V2000
   -9.9612    4.2073  -18.1155 C   0  0  0  0  0  0  0  0  0  0  0  0
   -8.7786    4.4049  -18.0779 C   0  0  0  0  0  0  0  0  0  0  0  0
   -7.4221    4.7602  -17.8274 C   0  0  0  0  0  0  0  0  0  0  0  0
   -7.0765    5.2253  -16.5671 C   0  0  0  0  0  0  0  0  0  0  0  0
   -5.8348    5.6548  -16.2639 N   0  0  0  0  0  0  0  0  0  0  0  0
   -4.9521    5.5541  -17.2857 C   0  0  0  0  0  0  0  0  0  0  0  0
   -5.2771    5.0846  -18.5652 C   0  0  0  0  0  0  0  0  0  0  0  0
   -4.3324    4.9479  -19.5973 N   0  0  0  0  0  0  0  0  0  0  0  0
   -3.1354    5.7737  -19.6871 C   0  0  0  0  0  0  0  0  0  0  0  0
   -1.8328    5.1397  -20.1099 C   0  0  0  0  0  0  0  0  0  0  0  0
   -1.9825    5.6892  -18.7279 C   0  0  0  0  0  0  0  0  0  0  0  0
   -6.5365    4.6821  -18.8466 N   0  0  0  0  0  0  0  0  0  0  0  0
  1  2  3  0
  2  3  1  0
  3  4  2  0
  4  5  1  0
  5  6  2  0
  6  7  1  0
  7  8  1  0
  8  9  1  0
  9 10  1  0
 10 11  1  0
  7 12  2  0
 12  3  1  0
 11  9  1  0
M  END
>  <energy_score>  (4180) 
-9.822452

>  <alias>  (4180) 
WRTLXDPCCOIMAZ-UHFFFAOYSA-N-P52-P7-P52-601529

>  <HIPPO Pose ID>  (4180) 
82958

>  <smiles>  (4180) 
C#Cc1cncc(NC2CC2)n1

>  <inchikey>  (4180) 
WRTLXDPCCOIMAZ-UHFFFAOYSA-N

>  <distance_score>  (4180) 
1.117711

>  <ref_mols>  (4180) 
Z0875a,Z0089a

>  <ref_pdb>  (4180) 
Z0719a

>  <HIPPO Compound ID>  (4180) 
144000

>  <name>  (4180) 
WRTLXDPCCOIMAZ-UHFFFAOYSA-N-P52-P7-P52-601529

>  <inspiration_score>  (4180) 
None

$$$$
VCMFSHIOJGFWJP-UHFFFAOYSA-N-P52-P7-P52-601529
     RDKit          3D

 12 13  0  0  0  0  0  0  0  0999 V2000
   -8.7937    5.5443  -14.9479 Br  0  0  0  0  0  0  0  0  0  0  0  0
   -7.9315    4.0883  -15.8653 C   0  0  0  0  0  0  0  0  0  0  0  0
   -6.9448    4.6043  -16.8590 C   0  0  0  0  0  0  0  0  0  0  0  0
   -7.2159    4.5542  -18.2204 C   0  0  0  0  0  0  0  0  0  0  0  0
   -6.2910    4.8529  -19.1599 N   0  0  0  0  0  0  0  0  0  0  0  0
   -5.0818    5.2324  -18.7135 C   0  0  0  0  0  0  0  0  0  0  0  0
   -4.1064    5.4684  -19.6949 N   0  0  0  0  0  0  0  0  0  0  0  0
   -2.7262    5.0865  -19.4118 C   0  0  0  0  0  0  0  0  0  0  0  0
   -1.5966    5.5416  -20.2837 C   0  0  0  0  0  0  0  0  0  0  0  0
   -1.7489    6.1091  -18.9036 C   0  0  0  0  0  0  0  0  0  0  0  0
   -4.8355    5.3518  -17.3469 C   0  0  0  0  0  0  0  0  0  0  0  0
   -5.7425    5.0352  -16.3974 N   0  0  0  0  0  0  0  0  0  0  0  0
  1  2  1  0
  2  3  1  0
  3  4  2  0
  4  5  1  0
  5  6  2  0
  6  7  1  0
  7  8  1  0
  8  9  1  0
  9 10  1  0
  6 11  1  0
 11 12  2  0
 12  3  1  0
 10  8  1  0
M  END
>  <energy_score>  (4181) 
-17.128072

>  <alias>  (4181) 
VCMFSHIOJGFWJP-UHFFFAOYSA-N-P52-P7-P52-601529

>  <HIPPO Pose ID>  (4181) 
82966

>  <smiles>  (4181) 
BrCc1cnc(NC2CC2)cn1

>  <inchikey>  (4181) 
VCMFSHIOJGFWJP-UHFFFAOYSA-N

>  <distance_score>  (4181) 
0.96784

>  <ref_mols>  (4181) 
Z0875a,Z0089a

>  <ref_pdb>  (4181) 
Z0719a

>  <HIPPO Compound ID>  (4181) 
144004

>  <name>  (4181) 
VCMFSHIOJGFWJP-UHFFFAOYSA-N-P52-P7-P52-601529

>  <inspiration_score>  (4181) 
None

$$$$
SJIHWUYKHMGFCK-UHFFFAOYSA-N-P7-P7-P52-601529
     RDKit          3D

 12 12  0  0  0  0  0  0  0  0999 V2000
   -1.7464    4.5327  -19.5659 C   0  0  0  0  0  0  0  0  0  0  0  0
   -2.8079    5.4125  -18.9047 C   0  0  1  0  0  0  0  0  0  0  0  0
   -2.6267    6.8243  -19.3099 C   0  0  0  0  0  0  0  0  0  0  0  0
   -2.4804    7.9306  -19.6333 N   0  0  0  0  0  0  0  0  0  0  0  0
   -4.1168    4.8961  -19.2725 N   0  0  0  0  0  0  0  0  0  0  0  0
   -5.2261    4.9485  -18.4600 C   0  0  0  0  0  0  0  0  0  0  0  0
   -5.2130    5.0398  -17.0636 C   0  0  0  0  0  0  0  0  0  0  0  0
   -6.3277    5.0085  -16.2931 N   0  0  0  0  0  0  0  0  0  0  0  0
   -7.4760    4.8059  -16.9752 C   0  0  0  0  0  0  0  0  0  0  0  0
   -7.4965    4.7258  -18.3522 C   0  0  0  0  0  0  0  0  0  0  0  0
   -8.6664    4.6069  -19.0299 O   0  0  0  0  0  0  0  0  0  0  0  0
   -6.3948    4.8203  -19.1169 N   0  0  0  0  0  0  0  0  0  0  0  0
  2  1  1  6
  2  3  1  0
  3  4  3  0
  2  5  1  0
  5  6  1  0
  6  7  2  0
  7  8  1  0
  8  9  2  0
  9 10  1  0
 10 11  1  0
 10 12  2  0
 12  6  1  0
M  END
>  <energy_score>  (4182) 
-32.010779

>  <alias>  (4182) 
SJIHWUYKHMGFCK-UHFFFAOYSA-N-P7-P7-P52-601529

>  <HIPPO Pose ID>  (4182) 
82967

>  <smiles>  (4182) 
CC(C#N)Nc1cncc(O)n1

>  <inchikey>  (4182) 
SJIHWUYKHMGFCK-UHFFFAOYSA-N

>  <distance_score>  (4182) 
0.69595

>  <ref_mols>  (4182) 
Z0875a,Z0089a

>  <ref_pdb>  (4182) 
Z0719a

>  <HIPPO Compound ID>  (4182) 
144005

>  <name>  (4182) 
SJIHWUYKHMGFCK-UHFFFAOYSA-N-P7-P7-P52-601529

>  <inspiration_score>  (4182) 
None

$$$$
XMPUTYBAMCJIDQ-UHFFFAOYSA-N-P7-P7-P52-601529
     RDKit          3D

 12 12  0  0  0  0  0  0  0  0999 V2000
   -8.3271    4.6598  -16.0681 C   0  0  0  0  0  0  0  0  0  0  0  0
   -7.1940    4.9060  -17.0093 C   0  0  0  0  0  0  0  0  0  0  0  0
   -7.2654    4.5202  -18.3381 C   0  0  0  0  0  0  0  0  0  0  0  0
   -6.2413    4.6991  -19.2040 N   0  0  0  0  0  0  0  0  0  0  0  0
   -5.1298    5.2876  -18.7328 C   0  0  0  0  0  0  0  0  0  0  0  0
   -4.1930    5.5119  -19.7049 N   0  0  0  0  0  0  0  0  0  0  0  0
   -2.7543    5.6502  -19.5488 C   0  0  2  0  0  0  0  0  0  0  0  0
   -2.1021    4.3760  -19.0362 C   0  0  0  0  0  0  0  0  0  0  0  0
   -2.3383    6.8304  -18.7589 C   0  0  0  0  0  0  0  0  0  0  0  0
   -2.0031    7.7509  -18.1338 N   0  0  0  0  0  0  0  0  0  0  0  0
   -5.0600    5.6563  -17.3918 C   0  0  0  0  0  0  0  0  0  0  0  0
   -6.0755    5.4823  -16.5085 N   0  0  0  0  0  0  0  0  0  0  0  0
  1  2  1  0
  2  3  2  0
  3  4  1  0
  4  5  2  0
  5  6  1  0
  6  7  1  0
  7  8  1  1
  7  9  1  0
  9 10  3  0
  5 11  1  0
 11 12  2  0
 12  2  1  0
M  END
>  <energy_score>  (4183) 
-15.663614

>  <alias>  (4183) 
XMPUTYBAMCJIDQ-UHFFFAOYSA-N-P7-P7-P52-601529

>  <HIPPO Pose ID>  (4183) 
82971

>  <smiles>  (4183) 
Cc1cnc(NC(C)C#N)cn1

>  <inchikey>  (4183) 
XMPUTYBAMCJIDQ-UHFFFAOYSA-N

>  <distance_score>  (4183) 
0.699279

>  <ref_mols>  (4183) 
Z0875a,Z0089a

>  <ref_pdb>  (4183) 
Z0719a

>  <HIPPO Compound ID>  (4183) 
144007

>  <name>  (4183) 
XMPUTYBAMCJIDQ-UHFFFAOYSA-N-P7-P7-P52-601529

>  <inspiration_score>  (4183) 
None

$$$$
ATPWHFCXMLMEOJ-UHFFFAOYSA-N-P7-P7-P52-601529
     RDKit          3D

 12 13  0  0  0  0  0  0  0  0999 V2000
   -8.4096    4.7362  -15.8549 C   0  0  0  0  0  0  0  0  0  0  0  0
   -7.3296    4.9327  -16.8706 C   0  0  0  0  0  0  0  0  0  0  0  0
   -6.1547    5.4286  -16.4034 N   0  0  0  0  0  0  0  0  0  0  0  0
   -5.1657    5.5431  -17.3176 C   0  0  0  0  0  0  0  0  0  0  0  0
   -5.3143    5.1936  -18.6560 C   0  0  0  0  0  0  0  0  0  0  0  0
   -4.2883    5.3259  -19.6070 N   0  0  0  0  0  0  0  0  0  0  0  0
   -2.9291    4.9579  -19.2218 C   0  0  0  0  0  0  0  0  0  0  0  0
   -1.7541    5.3434  -20.0683 C   0  0  0  0  0  0  0  0  0  0  0  0
   -1.9638    6.0042  -18.7384 C   0  0  0  0  0  0  0  0  0  0  0  0
   -6.4856    4.7183  -19.1106 N   0  0  0  0  0  0  0  0  0  0  0  0
   -7.4991    4.5877  -18.2148 C   0  0  0  0  0  0  0  0  0  0  0  0
   -8.8097    4.1026  -18.7565 C   0  0  0  0  0  0  0  0  0  0  0  0
  1  2  1  0
  2  3  2  0
  3  4  1  0
  4  5  2  0
  5  6  1  0
  6  7  1  0
  7  8  1  0
  8  9  1  0
  5 10  1  0
 10 11  2  0
 11 12  1  0
 11  2  1  0
  9  7  1  0
M  END
>  <energy_score>  (4184) 
-32.015719

>  <alias>  (4184) 
ATPWHFCXMLMEOJ-UHFFFAOYSA-N-P7-P7-P52-601529

>  <HIPPO Pose ID>  (4184) 
82977

>  <smiles>  (4184) 
Cc1ncc(NC2CC2)nc1C

>  <inchikey>  (4184) 
ATPWHFCXMLMEOJ-UHFFFAOYSA-N

>  <distance_score>  (4184) 
0.853716

>  <ref_mols>  (4184) 
Z0875a,Z0089a

>  <ref_pdb>  (4184) 
Z0719a

>  <HIPPO Compound ID>  (4184) 
144010

>  <name>  (4184) 
ATPWHFCXMLMEOJ-UHFFFAOYSA-N-P7-P7-P52-601529

>  <inspiration_score>  (4184) 
None

$$$$
OBOAZTOBMGWYJP-UHFFFAOYSA-N-P7-P7-P52-601529
     RDKit          3D

 12 12  0  0  0  0  0  0  0  0999 V2000
   -8.7619    4.1190  -18.8155 C   0  0  0  0  0  0  0  0  0  0  0  0
   -7.4515    4.5612  -18.2454 C   0  0  0  0  0  0  0  0  0  0  0  0
   -7.3291    4.8554  -16.8962 C   0  0  0  0  0  0  0  0  0  0  0  0
   -6.1803    5.3098  -16.3477 N   0  0  0  0  0  0  0  0  0  0  0  0
   -5.1491    5.4352  -17.2196 C   0  0  0  0  0  0  0  0  0  0  0  0
   -5.2399    5.1560  -18.5823 C   0  0  0  0  0  0  0  0  0  0  0  0
   -4.2517    5.3609  -19.5062 N   0  0  0  0  0  0  0  0  0  0  0  0
   -2.8330    5.5213  -19.2489 C   0  0  1  0  0  0  0  0  0  0  0  0
   -2.1186    4.1772  -19.2899 C   0  0  0  0  0  0  0  0  0  0  0  0
   -2.2480    6.4770  -20.3044 C   0  0  0  0  0  0  0  0  0  0  0  0
   -2.3405    5.9263  -21.6333 O   0  0  0  0  0  0  0  0  0  0  0  0
   -6.4031    4.7127  -19.0928 N   0  0  0  0  0  0  0  0  0  0  0  0
  1  2  1  0
  2  3  2  0
  3  4  1  0
  4  5  2  0
  5  6  1  0
  6  7  1  0
  7  8  1  0
  8  9  1  6
  8 10  1  0
 10 11  1  0
  6 12  2  0
 12  2  1  0
M  END
>  <energy_score>  (4185) 
-31.687575

>  <alias>  (4185) 
OBOAZTOBMGWYJP-UHFFFAOYSA-N-P7-P7-P52-601529

>  <HIPPO Pose ID>  (4185) 
82987

>  <smiles>  (4185) 
Cc1cncc(NC(C)CO)n1

>  <inchikey>  (4185) 
OBOAZTOBMGWYJP-UHFFFAOYSA-N

>  <distance_score>  (4185) 
0.828154

>  <ref_mols>  (4185) 
Z0875a,Z0089a

>  <ref_pdb>  (4185) 
Z0719a

>  <HIPPO Compound ID>  (4185) 
144015

>  <name>  (4185) 
OBOAZTOBMGWYJP-UHFFFAOYSA-N-P7-P7-P52-601529

>  <inspiration_score>  (4185) 
None

$$$$
XPXIGWMKQMGPKL-UHFFFAOYSA-N-P7-P7-P52-601529
     RDKit          3D

 12 12  0  0  0  0  0  0  0  0999 V2000
   -1.5833    4.5974  -19.8974 C   0  0  0  0  0  0  0  0  0  0  0  0
   -2.6005    5.2743  -18.9915 C   0  0  1  0  0  0  0  0  0  0  0  0
   -2.3417    6.7883  -18.9019 C   0  0  0  0  0  0  0  0  0  0  0  0
   -3.0923    7.3576  -17.8199 O   0  0  0  0  0  0  0  0  0  0  0  0
   -3.9395    5.0025  -19.4943 N   0  0  0  0  0  0  0  0  0  0  0  0
   -5.0778    4.9385  -18.7435 C   0  0  0  0  0  0  0  0  0  0  0  0
   -5.1225    5.0562  -17.3667 C   0  0  0  0  0  0  0  0  0  0  0  0
   -6.2931    4.9143  -16.7097 N   0  0  0  0  0  0  0  0  0  0  0  0
   -6.2824    5.0025  -15.2544 C   0  0  0  0  0  0  0  0  0  0  0  0
   -7.4288    4.6436  -17.3903 C   0  0  0  0  0  0  0  0  0  0  0  0
   -7.3599    4.5439  -18.7639 C   0  0  0  0  0  0  0  0  0  0  0  0
   -6.1997    4.6910  -19.4328 N   0  0  0  0  0  0  0  0  0  0  0  0
  2  1  1  6
  2  3  1  0
  3  4  1  0
  2  5  1  0
  5  6  1  0
  6  7  2  0
  7  8  1  0
  8  9  1  0
  8 10  2  0
 10 11  1  0
 11 12  2  0
 12  6  1  0
M  CHG  1   8   1
M  END
>  <energy_score>  (4186) 
-37.220445

>  <alias>  (4186) 
XPXIGWMKQMGPKL-UHFFFAOYSA-N-P7-P7-P52-601529

>  <HIPPO Pose ID>  (4186) 
82989

>  <smiles>  (4186) 
CC(CO)Nc1c[n+](C)ccn1

>  <inchikey>  (4186) 
XPXIGWMKQMGPKL-UHFFFAOYSA-N

>  <distance_score>  (4186) 
0.978518

>  <ref_mols>  (4186) 
Z0875a,Z0089a

>  <ref_pdb>  (4186) 
Z0719a

>  <HIPPO Compound ID>  (4186) 
144016

>  <name>  (4186) 
XPXIGWMKQMGPKL-UHFFFAOYSA-N-P7-P7-P52-601529

>  <inspiration_score>  (4186) 
None

$$$$
YUCAHBJCQFWEAA-UHFFFAOYSA-N-P7-P7-P52-601529
     RDKit          3D

 12 12  0  0  0  0  0  0  0  0999 V2000
   -2.1530    4.4389  -18.8446 C   0  0  0  0  0  0  0  0  0  0  0  0
   -2.9416    5.5117  -19.5696 C   0  0  2  0  0  0  0  0  0  0  0  0
   -2.6540    6.9303  -19.0550 C   0  0  0  0  0  0  0  0  0  0  0  0
   -3.4668    7.8726  -19.7604 O   0  0  0  0  0  0  0  0  0  0  0  0
   -4.3718    5.2413  -19.6284 N   0  0  0  0  0  0  0  0  0  0  0  0
   -5.3044    5.0778  -18.6441 C   0  0  0  0  0  0  0  0  0  0  0  0
   -5.1426    5.3648  -17.2891 C   0  0  0  0  0  0  0  0  0  0  0  0
   -6.1347    5.2656  -16.3679 N   0  0  0  0  0  0  0  0  0  0  0  0
   -7.3114    4.8160  -16.8572 C   0  0  0  0  0  0  0  0  0  0  0  0
   -7.4902    4.5192  -18.1969 C   0  0  0  0  0  0  0  0  0  0  0  0
   -8.6882    4.0876  -18.6889 O   0  0  0  0  0  0  0  0  0  0  0  0
   -6.4974    4.6450  -19.0963 N   0  0  0  0  0  0  0  0  0  0  0  0
  2  1  1  1
  2  3  1  0
  3  4  1  0
  2  5  1  0
  5  6  1  0
  6  7  2  0
  7  8  1  0
  8  9  2  0
  9 10  1  0
 10 11  1  0
 10 12  2  0
 12  6  1  0
M  END
>  <energy_score>  (4187) 
-14.170355

>  <alias>  (4187) 
YUCAHBJCQFWEAA-UHFFFAOYSA-N-P7-P7-P52-601529

>  <HIPPO Pose ID>  (4187) 
82991

>  <smiles>  (4187) 
CC(CO)Nc1cncc(O)n1

>  <inchikey>  (4187) 
YUCAHBJCQFWEAA-UHFFFAOYSA-N

>  <distance_score>  (4187) 
0.67074

>  <ref_mols>  (4187) 
Z0875a,Z0089a

>  <ref_pdb>  (4187) 
Z0719a

>  <HIPPO Compound ID>  (4187) 
144017

>  <name>  (4187) 
YUCAHBJCQFWEAA-UHFFFAOYSA-N-P7-P7-P52-601529

>  <inspiration_score>  (4187) 
None

$$$$
JVASLQMHRLGYHV-UHFFFAOYSA-N-P7-P7-P52-601529
     RDKit          3D

 12 12  0  0  0  0  0  0  0  0999 V2000
   -1.6003    4.5283  -19.6388 C   0  0  0  0  0  0  0  0  0  0  0  0
   -2.6479    5.3637  -18.9046 C   0  0  1  0  0  0  0  0  0  0  0  0
   -2.5019    6.8608  -19.2226 C   0  0  0  0  0  0  0  0  0  0  0  0
   -1.2621    7.3680  -18.7394 O   0  0  0  0  0  0  0  0  0  0  0  0
   -3.9629    4.8854  -19.2855 N   0  0  0  0  0  0  0  0  0  0  0  0
   -5.0725    4.9402  -18.4824 C   0  0  0  0  0  0  0  0  0  0  0  0
   -5.0713    5.0508  -17.0892 C   0  0  0  0  0  0  0  0  0  0  0  0
   -6.1941    5.0616  -16.3296 N   0  0  0  0  0  0  0  0  0  0  0  0
   -7.3246    4.8992  -17.0319 C   0  0  0  0  0  0  0  0  0  0  0  0
   -8.4400    4.8548  -16.2693 O   0  0  0  0  0  0  0  0  0  0  0  0
   -7.3641    4.7868  -18.4056 C   0  0  0  0  0  0  0  0  0  0  0  0
   -6.2345    4.8219  -19.1494 N   0  0  0  0  0  0  0  0  0  0  0  0
  2  1  1  6
  2  3  1  0
  3  4  1  0
  2  5  1  0
  5  6  1  0
  6  7  2  0
  7  8  1  0
  8  9  2  0
  9 10  1  0
  9 11  1  0
 11 12  2  0
 12  6  1  0
M  END
>  <energy_score>  (4188) 
-35.673982

>  <alias>  (4188) 
JVASLQMHRLGYHV-UHFFFAOYSA-N-P7-P7-P52-601529

>  <HIPPO Pose ID>  (4188) 
82997

>  <smiles>  (4188) 
CC(CO)Nc1cnc(O)cn1

>  <inchikey>  (4188) 
JVASLQMHRLGYHV-UHFFFAOYSA-N

>  <distance_score>  (4188) 
0.781233

>  <ref_mols>  (4188) 
Z0875a,Z0089a

>  <ref_pdb>  (4188) 
Z0719a

>  <HIPPO Compound ID>  (4188) 
144020

>  <name>  (4188) 
JVASLQMHRLGYHV-UHFFFAOYSA-N-P7-P7-P52-601529

>  <inspiration_score>  (4188) 
None

$$$$
DBTGRDSHAGGVAW-UHFFFAOYSA-N-P7-P7-P52-601529
     RDKit          3D

 12 12  0  0  0  0  0  0  0  0999 V2000
   -8.3273    4.6690  -16.0500 C   0  0  0  0  0  0  0  0  0  0  0  0
   -7.1931    4.8870  -16.9965 C   0  0  0  0  0  0  0  0  0  0  0  0
   -7.3037    4.5644  -18.3394 C   0  0  0  0  0  0  0  0  0  0  0  0
   -6.2822    4.7235  -19.2111 N   0  0  0  0  0  0  0  0  0  0  0  0
   -5.1251    5.2065  -18.7300 C   0  0  0  0  0  0  0  0  0  0  0  0
   -4.1833    5.4039  -19.6967 N   0  0  0  0  0  0  0  0  0  0  0  0
   -2.7479    5.6117  -19.6008 C   0  0  2  0  0  0  0  0  0  0  0  0
   -2.0456    4.3988  -19.0050 C   0  0  0  0  0  0  0  0  0  0  0  0
   -2.3985    6.9223  -18.8955 C   0  0  0  0  0  0  0  0  0  0  0  0
   -0.6496    7.5872  -19.4632 Br  0  0  0  0  0  0  0  0  0  0  0  0
   -5.0164    5.4986  -17.3748 C   0  0  0  0  0  0  0  0  0  0  0  0
   -6.0345    5.3690  -16.4866 N   0  0  0  0  0  0  0  0  0  0  0  0
  1  2  1  0
  2  3  2  0
  3  4  1  0
  4  5  2  0
  5  6  1  0
  6  7  1  0
  7  8  1  1
  7  9  1  0
  9 10  1  0
  5 11  1  0
 11 12  2  0
 12  2  1  0
M  END
>  <energy_score>  (4189) 
-27.416374

>  <alias>  (4189) 
DBTGRDSHAGGVAW-UHFFFAOYSA-N-P7-P7-P52-601529

>  <HIPPO Pose ID>  (4189) 
83009

>  <smiles>  (4189) 
Cc1cnc(NC(C)CBr)cn1

>  <inchikey>  (4189) 
DBTGRDSHAGGVAW-UHFFFAOYSA-N

>  <distance_score>  (4189) 
0.662067

>  <ref_mols>  (4189) 
Z0875a,Z0089a

>  <ref_pdb>  (4189) 
Z0719a

>  <HIPPO Compound ID>  (4189) 
144026

>  <name>  (4189) 
DBTGRDSHAGGVAW-UHFFFAOYSA-N-P7-P7-P52-601529

>  <inspiration_score>  (4189) 
None

$$$$
QUYXBMANIKUKOV-UHFFFAOYSA-N-P7-P7-P52-601529
     RDKit          3D

 12 12  0  0  0  0  0  0  0  0999 V2000
   -1.7266    4.3928  -19.6851 C   0  0  0  0  0  0  0  0  0  0  0  0
   -2.6064    5.2778  -18.8034 C   0  0  1  0  0  0  0  0  0  0  0  0
   -2.0471    6.7032  -18.7266 C   0  0  0  0  0  0  0  0  0  0  0  0
   -0.5272    6.8010  -17.5067 Br  0  0  0  0  0  0  0  0  0  0  0  0
   -3.9515    5.3465  -19.3655 N   0  0  0  0  0  0  0  0  0  0  0  0
   -5.0640    5.1869  -18.5609 C   0  0  0  0  0  0  0  0  0  0  0  0
   -5.1507    5.5702  -17.2177 C   0  0  0  0  0  0  0  0  0  0  0  0
   -6.2673    5.4367  -16.4618 N   0  0  0  0  0  0  0  0  0  0  0  0
   -7.3073    4.9051  -17.1232 C   0  0  0  0  0  0  0  0  0  0  0  0
   -8.4187    4.7549  -16.3679 O   0  0  0  0  0  0  0  0  0  0  0  0
   -7.2659    4.5437  -18.4540 C   0  0  0  0  0  0  0  0  0  0  0  0
   -6.1341    4.6686  -19.1876 N   0  0  0  0  0  0  0  0  0  0  0  0
  2  1  1  6
  2  3  1  0
  3  4  1  0
  2  5  1  0
  5  6  1  0
  6  7  2  0
  7  8  1  0
  8  9  2  0
  9 10  1  0
  9 11  1  0
 11 12  2  0
 12  6  1  0
M  END
>  <energy_score>  (4190) 
-40.679943

>  <alias>  (4190) 
QUYXBMANIKUKOV-UHFFFAOYSA-N-P7-P7-P52-601529

>  <HIPPO Pose ID>  (4190) 
83011

>  <smiles>  (4190) 
CC(CBr)Nc1cnc(O)cn1

>  <inchikey>  (4190) 
QUYXBMANIKUKOV-UHFFFAOYSA-N

>  <distance_score>  (4190) 
0.74824

>  <ref_mols>  (4190) 
Z0875a,Z0089a

>  <ref_pdb>  (4190) 
Z0719a

>  <HIPPO Compound ID>  (4190) 
144027

>  <name>  (4190) 
QUYXBMANIKUKOV-UHFFFAOYSA-N-P7-P7-P52-601529

>  <inspiration_score>  (4190) 
None

$$$$
AOICOGWBRZAIEM-UHFFFAOYSA-N-P7-P7-P52-601529
     RDKit          3D

 12 12  0  0  0  0  0  0  0  0999 V2000
   -4.5170    6.2593  -16.0607 C   0  0  0  0  0  0  0  0  0  0  0  0
   -5.4539    5.5736  -17.0032 C   0  0  0  0  0  0  0  0  0  0  0  0
   -6.6309    5.1983  -16.4281 N   0  0  0  0  0  0  0  0  0  0  0  0
   -7.5429    4.6325  -17.2452 C   0  0  0  0  0  0  0  0  0  0  0  0
   -7.3053    4.4502  -18.5876 C   0  0  0  0  0  0  0  0  0  0  0  0
   -6.1357    4.8018  -19.1600 N   0  0  0  0  0  0  0  0  0  0  0  0
   -5.2027    5.3741  -18.3730 C   0  0  0  0  0  0  0  0  0  0  0  0
   -4.1319    5.8200  -19.1144 N   0  0  0  0  0  0  0  0  0  0  0  0
   -2.7340    5.6053  -18.7619 C   0  0  1  0  0  0  0  0  0  0  0  0
   -2.2444    4.2287  -19.1997 C   0  0  0  0  0  0  0  0  0  0  0  0
   -1.8884    6.7298  -19.3732 C   0  0  0  0  0  0  0  0  0  0  0  0
   -1.9783    6.7724  -21.3293 Br  0  0  0  0  0  0  0  0  0  0  0  0
  1  2  1  0
  2  3  2  0
  3  4  1  0
  4  5  2  0
  5  6  1  0
  6  7  2  0
  7  8  1  0
  8  9  1  0
  9 10  1  6
  9 11  1  0
 11 12  1  0
  7  2  1  0
M  END
>  <energy_score>  (4191) 
-17.93083

>  <alias>  (4191) 
AOICOGWBRZAIEM-UHFFFAOYSA-N-P7-P7-P52-601529

>  <HIPPO Pose ID>  (4191) 
83013

>  <smiles>  (4191) 
Cc1nccnc1NC(C)CBr

>  <inchikey>  (4191) 
AOICOGWBRZAIEM-UHFFFAOYSA-N

>  <distance_score>  (4191) 
1.020234

>  <ref_mols>  (4191) 
Z0875a,Z0089a

>  <ref_pdb>  (4191) 
Z0719a

>  <HIPPO Compound ID>  (4191) 
144028

>  <name>  (4191) 
AOICOGWBRZAIEM-UHFFFAOYSA-N-P7-P7-P52-601529

>  <inspiration_score>  (4191) 
None

$$$$
MFJZFSSGYCPVHI-UHFFFAOYSA-N-P7-P7-P52-601529
     RDKit          3D

 12 12  0  0  0  0  0  0  0  0999 V2000
   -2.0243    4.3933  -19.0628 C   0  0  0  0  0  0  0  0  0  0  0  0
   -2.8226    5.5837  -19.5824 C   0  0  2  0  0  0  0  0  0  0  0  0
   -2.5737    6.8845  -18.8031 C   0  0  0  0  0  0  0  0  0  0  0  0
   -0.7285    7.8397  -19.3830 I   0  0  0  0  0  0  0  0  0  0  0  0
   -4.2358    5.2550  -19.6782 N   0  0  0  0  0  0  0  0  0  0  0  0
   -5.1989    5.0915  -18.7274 C   0  0  0  0  0  0  0  0  0  0  0  0
   -5.0321    5.1345  -17.3430 C   0  0  0  0  0  0  0  0  0  0  0  0
   -6.0487    4.9981  -16.4519 N   0  0  0  0  0  0  0  0  0  0  0  0
   -7.2578    4.7534  -17.0064 C   0  0  0  0  0  0  0  0  0  0  0  0
   -7.4286    4.7102  -18.3728 C   0  0  0  0  0  0  0  0  0  0  0  0
   -8.6521    4.5682  -18.9410 O   0  0  0  0  0  0  0  0  0  0  0  0
   -6.4254    4.8890  -19.2459 N   0  0  0  0  0  0  0  0  0  0  0  0
  2  1  1  1
  2  3  1  0
  3  4  1  0
  2  5  1  0
  5  6  1  0
  6  7  2  0
  7  8  1  0
  8  9  2  0
  9 10  1  0
 10 11  1  0
 10 12  2  0
 12  6  1  0
M  END
>  <energy_score>  (4192) 
-38.082477

>  <alias>  (4192) 
MFJZFSSGYCPVHI-UHFFFAOYSA-N-P7-P7-P52-601529

>  <HIPPO Pose ID>  (4192) 
83019

>  <smiles>  (4192) 
CC(CI)Nc1cncc(O)n1

>  <inchikey>  (4192) 
MFJZFSSGYCPVHI-UHFFFAOYSA-N

>  <distance_score>  (4192) 
0.667254

>  <ref_mols>  (4192) 
Z0875a,Z0089a

>  <ref_pdb>  (4192) 
Z0719a

>  <HIPPO Compound ID>  (4192) 
144031

>  <name>  (4192) 
MFJZFSSGYCPVHI-UHFFFAOYSA-N-P7-P7-P52-601529

>  <inspiration_score>  (4192) 
None

$$$$
QHGGDCGKFSNYGS-UHFFFAOYSA-N-P7-P7-P52-601529
     RDKit          3D

 12 12  0  0  0  0  0  0  0  0999 V2000
   -8.2880    4.4425  -16.0782 C   0  0  0  0  0  0  0  0  0  0  0  0
   -7.1210    4.7600  -16.9512 C   0  0  0  0  0  0  0  0  0  0  0  0
   -7.1409    4.5144  -18.3164 C   0  0  0  0  0  0  0  0  0  0  0  0
   -6.0676    4.7287  -19.1127 N   0  0  0  0  0  0  0  0  0  0  0  0
   -4.9702    5.2302  -18.5253 C   0  0  0  0  0  0  0  0  0  0  0  0
   -3.8994    5.4354  -19.3755 N   0  0  0  0  0  0  0  0  0  0  0  0
   -2.5327    5.3479  -18.8684 C   0  0  1  0  0  0  0  0  0  0  0  0
   -1.7032    4.4450  -19.7779 C   0  0  0  0  0  0  0  0  0  0  0  0
   -1.9553    6.7763  -18.8138 C   0  0  0  0  0  0  0  0  0  0  0  0
   -0.2242    6.9113  -17.5475 I   0  0  0  0  0  0  0  0  0  0  0  0
   -4.9831    5.5384  -17.1654 C   0  0  0  0  0  0  0  0  0  0  0  0
   -6.0381    5.3077  -16.3536 N   0  0  0  0  0  0  0  0  0  0  0  0
  1  2  1  0
  2  3  2  0
  3  4  1  0
  4  5  2  0
  5  6  1  0
  6  7  1  0
  7  8  1  6
  7  9  1  0
  9 10  1  0
  5 11  1  0
 11 12  2  0
 12  2  1  0
M  END
>  <energy_score>  (4193) 
-34.12776

>  <alias>  (4193) 
QHGGDCGKFSNYGS-UHFFFAOYSA-N-P7-P7-P52-601529

>  <HIPPO Pose ID>  (4193) 
83023

>  <smiles>  (4193) 
Cc1cnc(NC(C)CI)cn1

>  <inchikey>  (4193) 
QHGGDCGKFSNYGS-UHFFFAOYSA-N

>  <distance_score>  (4193) 
0.705079

>  <ref_mols>  (4193) 
Z0875a,Z0089a

>  <ref_pdb>  (4193) 
Z0719a

>  <HIPPO Compound ID>  (4193) 
144033

>  <name>  (4193) 
QHGGDCGKFSNYGS-UHFFFAOYSA-N-P7-P7-P52-601529

>  <inspiration_score>  (4193) 
None

$$$$
AEMDXAROPLYTRE-UHFFFAOYSA-N-P7-P7-P52-601529
     RDKit          3D

 12 12  0  0  0  0  0  0  0  0999 V2000
   -4.5635    6.2775  -16.0545 C   0  0  0  0  0  0  0  0  0  0  0  0
   -5.4877    5.5839  -17.0050 C   0  0  0  0  0  0  0  0  0  0  0  0
   -6.6967    5.2715  -16.4588 N   0  0  0  0  0  0  0  0  0  0  0  0
   -7.5936    4.6895  -17.2811 C   0  0  0  0  0  0  0  0  0  0  0  0
   -7.3151    4.4406  -18.6045 C   0  0  0  0  0  0  0  0  0  0  0  0
   -6.1149    4.7288  -19.1490 N   0  0  0  0  0  0  0  0  0  0  0  0
   -5.1909    5.3039  -18.3523 C   0  0  0  0  0  0  0  0  0  0  0  0
   -4.0659    5.6460  -19.0715 N   0  0  0  0  0  0  0  0  0  0  0  0
   -2.7047    5.4506  -18.5825 C   0  0  1  0  0  0  0  0  0  0  0  0
   -2.0440    4.2958  -19.3384 C   0  0  0  0  0  0  0  0  0  0  0  0
   -1.9434    6.7713  -18.8119 C   0  0  0  0  0  0  0  0  0  0  0  0
   -0.1699    6.9117  -17.6022 I   0  0  0  0  0  0  0  0  0  0  0  0
  1  2  1  0
  2  3  2  0
  3  4  1  0
  4  5  2  0
  5  6  1  0
  6  7  2  0
  7  8  1  0
  8  9  1  0
  9 10  1  6
  9 11  1  0
 11 12  1  0
  7  2  1  0
M  END
>  <energy_score>  (4194) 
-20.689951

>  <alias>  (4194) 
AEMDXAROPLYTRE-UHFFFAOYSA-N-P7-P7-P52-601529

>  <HIPPO Pose ID>  (4194) 
83027

>  <smiles>  (4194) 
Cc1nccnc1NC(C)CI

>  <inchikey>  (4194) 
AEMDXAROPLYTRE-UHFFFAOYSA-N

>  <distance_score>  (4194) 
1.093686

>  <ref_mols>  (4194) 
Z0875a,Z0089a

>  <ref_pdb>  (4194) 
Z0719a

>  <HIPPO Compound ID>  (4194) 
144035

>  <name>  (4194) 
AEMDXAROPLYTRE-UHFFFAOYSA-N-P7-P7-P52-601529

>  <inspiration_score>  (4194) 
None

$$$$
FRHDEWMSOIFEMF-UHFFFAOYSA-N-P7-P7-P52-601529
     RDKit          3D

 12 12  0  0  0  0  0  0  0  0999 V2000
   -1.6587    3.6433  -19.7489 C   0  0  0  0  0  0  0  0  0  0  0  0
   -2.4469    4.4271  -19.0075 C   0  0  0  0  0  0  0  0  0  0  0  0
   -3.0155    5.7214  -19.4926 C   0  0  2  0  0  0  0  0  0  0  0  0
   -2.5152    6.9292  -18.7128 C   0  0  0  0  0  0  0  0  0  0  0  0
   -4.4554    5.6406  -19.5769 N   0  0  0  0  0  0  0  0  0  0  0  0
   -5.3668    5.3294  -18.6045 C   0  0  0  0  0  0  0  0  0  0  0  0
   -5.2410    5.5556  -17.2376 C   0  0  0  0  0  0  0  0  0  0  0  0
   -6.2258    5.3183  -16.3352 N   0  0  0  0  0  0  0  0  0  0  0  0
   -7.3665    4.8180  -16.8596 C   0  0  0  0  0  0  0  0  0  0  0  0
   -7.5222    4.5742  -18.2141 C   0  0  0  0  0  0  0  0  0  0  0  0
   -8.8272    4.0975  -18.7666 C   0  0  0  0  0  0  0  0  0  0  0  0
   -6.5171    4.8252  -19.0878 N   0  0  0  0  0  0  0  0  0  0  0  0
  1  2  2  0
  2  3  1  0
  3  4  1  1
  3  5  1  0
  5  6  1  0
  6  7  2  0
  7  8  1  0
  8  9  2  0
  9 10  1  0
 10 11  1  0
 10 12  2  0
 12  6  1  0
M  END
>  <energy_score>  (4195) 
-27.344043

>  <alias>  (4195) 
FRHDEWMSOIFEMF-UHFFFAOYSA-N-P7-P7-P52-601529

>  <HIPPO Pose ID>  (4195) 
83045

>  <smiles>  (4195) 
C=CC(C)Nc1cncc(C)n1

>  <inchikey>  (4195) 
FRHDEWMSOIFEMF-UHFFFAOYSA-N

>  <distance_score>  (4195) 
0.728064

>  <ref_mols>  (4195) 
Z0875a,Z0089a

>  <ref_pdb>  (4195) 
Z0719a

>  <HIPPO Compound ID>  (4195) 
144044

>  <name>  (4195) 
FRHDEWMSOIFEMF-UHFFFAOYSA-N-P7-P7-P52-601529

>  <inspiration_score>  (4195) 
None

$$$$
ZETOSTHVPKEOKT-UHFFFAOYSA-N-P7-P7-P52-601529
     RDKit          3D

 12 12  0  0  0  0  0  0  0  0999 V2000
   -1.8517    3.6888  -19.3275 C   0  0  0  0  0  0  0  0  0  0  0  0
   -1.8080    4.9253  -19.8313 C   0  0  0  0  0  0  0  0  0  0  0  0
   -2.9048    5.9482  -19.8597 C   0  0  2  0  0  0  0  0  0  0  0  0
   -2.7071    7.0433  -18.8258 C   0  0  0  0  0  0  0  0  0  0  0  0
   -4.2037    5.3084  -19.8691 N   0  0  0  0  0  0  0  0  0  0  0  0
   -5.1447    5.0884  -18.9199 C   0  0  0  0  0  0  0  0  0  0  0  0
   -4.9586    5.0917  -17.5536 C   0  0  0  0  0  0  0  0  0  0  0  0
   -6.0054    4.8656  -16.7251 N   0  0  0  0  0  0  0  0  0  0  0  0
   -5.7703    4.8681  -15.2837 C   0  0  0  0  0  0  0  0  0  0  0  0
   -7.2339    4.6008  -17.2275 C   0  0  0  0  0  0  0  0  0  0  0  0
   -7.3887    4.5763  -18.5949 C   0  0  0  0  0  0  0  0  0  0  0  0
   -6.3558    4.8116  -19.4229 N   0  0  0  0  0  0  0  0  0  0  0  0
  1  2  2  0
  2  3  1  0
  3  4  1  1
  3  5  1  0
  5  6  1  0
  6  7  2  0
  7  8  1  0
  8  9  1  0
  8 10  2  0
 10 11  1  0
 11 12  2  0
 12  6  1  0
M  CHG  1   8   1
M  END
>  <energy_score>  (4196) 
-8.766317

>  <alias>  (4196) 
ZETOSTHVPKEOKT-UHFFFAOYSA-N-P7-P7-P52-601529

>  <HIPPO Pose ID>  (4196) 
83047

>  <smiles>  (4196) 
C=CC(C)Nc1c[n+](C)ccn1

>  <inchikey>  (4196) 
ZETOSTHVPKEOKT-UHFFFAOYSA-N

>  <distance_score>  (4196) 
0.94247

>  <ref_mols>  (4196) 
Z0875a,Z0089a

>  <ref_pdb>  (4196) 
Z0719a

>  <HIPPO Compound ID>  (4196) 
144045

>  <name>  (4196) 
ZETOSTHVPKEOKT-UHFFFAOYSA-N-P7-P7-P52-601529

>  <inspiration_score>  (4196) 
None

$$$$
DCBZUMWAIBUWEH-UHFFFAOYSA-N-P7-P7-P52-601529
     RDKit          3D

 12 12  0  0  0  0  0  0  0  0999 V2000
   -1.7513    4.4789  -19.5939 C   0  0  0  0  0  0  0  0  0  0  0  0
   -2.7627    5.3751  -18.8750 C   0  0  1  0  0  0  0  0  0  0  0  0
   -2.5776    6.8663  -19.2062 C   0  0  0  0  0  0  0  0  0  0  0  0
   -1.0266    7.5693  -18.5630 S   0  0  0  0  0  0  0  0  0  0  0  0
   -4.0986    4.9499  -19.2671 N   0  0  0  0  0  0  0  0  0  0  0  0
   -5.2110    4.9701  -18.4610 C   0  0  0  0  0  0  0  0  0  0  0  0
   -5.2029    5.0815  -17.0660 C   0  0  0  0  0  0  0  0  0  0  0  0
   -6.3191    5.0418  -16.2961 N   0  0  0  0  0  0  0  0  0  0  0  0
   -7.4618    4.8128  -16.9784 C   0  0  0  0  0  0  0  0  0  0  0  0
   -7.4786    4.7195  -18.3548 C   0  0  0  0  0  0  0  0  0  0  0  0
   -8.6473    4.5879  -19.0331 O   0  0  0  0  0  0  0  0  0  0  0  0
   -6.3776    4.8219  -19.1196 N   0  0  0  0  0  0  0  0  0  0  0  0
  2  1  1  6
  2  3  1  0
  3  4  1  0
  2  5  1  0
  5  6  1  0
  6  7  2  0
  7  8  1  0
  8  9  2  0
  9 10  1  0
 10 11  1  0
 10 12  2  0
 12  6  1  0
M  END
>  <energy_score>  (4197) 
-32.512892

>  <alias>  (4197) 
DCBZUMWAIBUWEH-UHFFFAOYSA-N-P7-P7-P52-601529

>  <HIPPO Pose ID>  (4197) 
83055

>  <smiles>  (4197) 
CC(CS)Nc1cncc(O)n1

>  <inchikey>  (4197) 
DCBZUMWAIBUWEH-UHFFFAOYSA-N

>  <distance_score>  (4197) 
0.682846

>  <ref_mols>  (4197) 
Z0875a,Z0089a

>  <ref_pdb>  (4197) 
Z0719a

>  <HIPPO Compound ID>  (4197) 
144049

>  <name>  (4197) 
DCBZUMWAIBUWEH-UHFFFAOYSA-N-P7-P7-P52-601529

>  <inspiration_score>  (4197) 
None

$$$$
KUCCEGXMIYRZCQ-UHFFFAOYSA-N-P7-P7-P52-601529
     RDKit          3D

 12 12  0  0  0  0  0  0  0  0999 V2000
   -2.2204    4.2063  -19.0673 C   0  0  0  0  0  0  0  0  0  0  0  0
   -2.7754    5.6073  -18.8327 C   0  0  1  0  0  0  0  0  0  0  0  0
   -1.9596    6.6821  -19.5843 C   0  0  0  0  0  0  0  0  0  0  0  0
   -1.7334    6.3717  -21.3803 S   0  0  0  0  0  0  0  0  0  0  0  0
   -4.1658    5.6922  -19.2540 N   0  0  0  0  0  0  0  0  0  0  0  0
   -5.2299    5.3064  -18.4697 C   0  0  0  0  0  0  0  0  0  0  0  0
   -6.2325    4.7670  -19.1927 N   0  0  0  0  0  0  0  0  0  0  0  0
   -7.3744    4.4626  -18.5384 C   0  0  0  0  0  0  0  0  0  0  0  0
   -7.5198    4.6654  -17.1803 C   0  0  0  0  0  0  0  0  0  0  0  0
   -6.5408    5.2020  -16.4192 N   0  0  0  0  0  0  0  0  0  0  0  0
   -5.4088    5.5036  -17.0887 C   0  0  0  0  0  0  0  0  0  0  0  0
   -4.5031    6.0801  -16.2584 O   0  0  0  0  0  0  0  0  0  0  0  0
  2  1  1  6
  2  3  1  0
  3  4  1  0
  2  5  1  0
  5  6  1  0
  6  7  2  0
  7  8  1  0
  8  9  2  0
  9 10  1  0
 10 11  2  0
 11 12  1  0
 11  6  1  0
M  END
>  <energy_score>  (4198) 
-33.94426

>  <alias>  (4198) 
KUCCEGXMIYRZCQ-UHFFFAOYSA-N-P7-P7-P52-601529

>  <HIPPO Pose ID>  (4198) 
83057

>  <smiles>  (4198) 
CC(CS)Nc1nccnc1O

>  <inchikey>  (4198) 
KUCCEGXMIYRZCQ-UHFFFAOYSA-N

>  <distance_score>  (4198) 
0.899633

>  <ref_mols>  (4198) 
Z0875a,Z0089a

>  <ref_pdb>  (4198) 
Z0719a

>  <HIPPO Compound ID>  (4198) 
144050

>  <name>  (4198) 
KUCCEGXMIYRZCQ-UHFFFAOYSA-N-P7-P7-P52-601529

>  <inspiration_score>  (4198) 
None

$$$$
GONKTWSIIYDNGX-UHFFFAOYSA-N-P7-P7-P52-601529
     RDKit          3D

 12 12  0  0  0  0  0  0  0  0999 V2000
   -0.5538    5.3233  -19.2266 C   0  0  0  0  0  0  0  0  0  0  0  0
   -1.9569    4.7461  -19.0839 C   0  0  0  0  0  0  0  0  0  0  0  0
   -3.0311    5.6826  -19.6498 C   0  0  2  0  0  0  0  0  0  0  0  0
   -3.0275    7.0832  -19.0473 C   0  0  0  0  0  0  0  0  0  0  0  0
   -4.3353    5.0472  -19.6332 N   0  0  0  0  0  0  0  0  0  0  0  0
   -5.2727    4.9804  -18.6383 C   0  0  0  0  0  0  0  0  0  0  0  0
   -5.0538    5.1964  -17.2784 C   0  0  0  0  0  0  0  0  0  0  0  0
   -6.0304    5.1531  -16.3359 N   0  0  0  0  0  0  0  0  0  0  0  0
   -7.2475    4.8020  -16.8080 C   0  0  0  0  0  0  0  0  0  0  0  0
   -7.4794    4.5529  -18.1498 C   0  0  0  0  0  0  0  0  0  0  0  0
   -8.7098    4.1911  -18.6184 O   0  0  0  0  0  0  0  0  0  0  0  0
   -6.5058    4.6494  -19.0724 N   0  0  0  0  0  0  0  0  0  0  0  0
  1  2  1  0
  2  3  1  0
  3  4  1  1
  3  5  1  0
  5  6  1  0
  6  7  2  0
  7  8  1  0
  8  9  2  0
  9 10  1  0
 10 11  1  0
 10 12  2  0
 12  6  1  0
M  END
>  <energy_score>  (4199) 
-19.981269

>  <alias>  (4199) 
GONKTWSIIYDNGX-UHFFFAOYSA-N-P7-P7-P52-601529

>  <HIPPO Pose ID>  (4199) 
83065

>  <smiles>  (4199) 
CCC(C)Nc1cncc(O)n1

>  <inchikey>  (4199) 
GONKTWSIIYDNGX-UHFFFAOYSA-N

>  <distance_score>  (4199) 
0.71231

>  <ref_mols>  (4199) 
Z0875a,Z0089a

>  <ref_pdb>  (4199) 
Z0719a

>  <HIPPO Compound ID>  (4199) 
144054

>  <name>  (4199) 
GONKTWSIIYDNGX-UHFFFAOYSA-N-P7-P7-P52-601529

>  <inspiration_score>  (4199) 
None

$$$$
OWQJJMSMUHUKRV-UHFFFAOYSA-N-P52-P7-P52-601529
     RDKit          3D

 12 12  0  0  0  0  0  0  0  0999 V2000
   -0.2798    5.3863  -19.0444 C   0  0  0  0  0  0  0  0  0  0  0  0
   -1.6600    4.8701  -19.4319 C   0  0  0  0  0  0  0  0  0  0  0  0
   -2.8027    5.5889  -18.6866 C   0  0  1  0  0  0  0  0  0  0  0  0
   -2.8474    7.0761  -19.0259 C   0  0  0  0  0  0  0  0  0  0  0  0
   -4.0452    4.9580  -19.0734 N   0  0  0  0  0  0  0  0  0  0  0  0
   -5.2356    5.0263  -18.3948 C   0  0  0  0  0  0  0  0  0  0  0  0
   -6.2760    4.6458  -19.1670 N   0  0  0  0  0  0  0  0  0  0  0  0
   -7.4945    4.5990  -18.5867 C   0  0  0  0  0  0  0  0  0  0  0  0
   -7.6902    4.9377  -17.2632 C   0  0  0  0  0  0  0  0  0  0  0  0
   -6.6857    5.3641  -16.4662 N   0  0  0  0  0  0  0  0  0  0  0  0
   -5.4694    5.3739  -17.0527 C   0  0  0  0  0  0  0  0  0  0  0  0
   -4.5197    5.7826  -16.1732 O   0  0  0  0  0  0  0  0  0  0  0  0
  1  2  1  0
  2  3  1  0
  3  4  1  6
  3  5  1  0
  5  6  1  0
  6  7  2  0
  7  8  1  0
  8  9  2  0
  9 10  1  0
 10 11  2  0
 11 12  1  0
 11  6  1  0
M  END
>  <energy_score>  (4200) 
-40.335475

>  <alias>  (4200) 
OWQJJMSMUHUKRV-UHFFFAOYSA-N-P52-P7-P52-601529

>  <HIPPO Pose ID>  (4200) 
83068

>  <smiles>  (4200) 
CCC(C)Nc1nccnc1O

>  <inchikey>  (4200) 
OWQJJMSMUHUKRV-UHFFFAOYSA-N

>  <distance_score>  (4200) 
0.949301

>  <ref_mols>  (4200) 
Z0875a,Z0089a

>  <ref_pdb>  (4200) 
Z0719a

>  <HIPPO Compound ID>  (4200) 
144055

>  <name>  (4200) 
OWQJJMSMUHUKRV-UHFFFAOYSA-N-P52-P7-P52-601529

>  <inspiration_score>  (4200) 
None

$$$$
WGZONKAZJTWLLE-UHFFFAOYSA-N-P7-P7-P52-601529
     RDKit          3D

 12 12  0  0  0  0  0  0  0  0999 V2000
   -1.5643    4.5354  -19.6722 C   0  0  0  0  0  0  0  0  0  0  0  0
   -2.5259    5.3423  -18.8011 C   0  0  0  0  0  0  0  0  0  0  0  0
   -2.1099    6.8093  -18.7328 C   0  0  0  0  0  0  0  0  0  0  0  0
   -3.8874    5.2205  -19.3234 N   0  0  0  0  0  0  0  0  0  0  0  0
   -4.0331    5.7185  -20.6252 O   0  0  0  0  0  0  0  0  0  0  0  0
   -5.0219    5.0869  -18.5230 C   0  0  0  0  0  0  0  0  0  0  0  0
   -4.9909    5.0248  -17.1233 C   0  0  0  0  0  0  0  0  0  0  0  0
   -6.0825    4.8356  -16.3418 N   0  0  0  0  0  0  0  0  0  0  0  0
   -7.2388    4.6724  -17.0182 C   0  0  0  0  0  0  0  0  0  0  0  0
   -7.2908    4.7574  -18.3940 C   0  0  0  0  0  0  0  0  0  0  0  0
   -8.4738    4.6494  -19.0524 O   0  0  0  0  0  0  0  0  0  0  0  0
   -6.2143    4.9874  -19.1681 N   0  0  0  0  0  0  0  0  0  0  0  0
  1  2  1  0
  2  3  1  0
  2  4  1  0
  4  5  1  0
  4  6  1  0
  6  7  2  0
  7  8  1  0
  8  9  2  0
  9 10  1  0
 10 11  1  0
 10 12  2  0
 12  6  1  0
M  END
>  <energy_score>  (4201) 
-28.088581

>  <alias>  (4201) 
WGZONKAZJTWLLE-UHFFFAOYSA-N-P7-P7-P52-601529

>  <HIPPO Pose ID>  (4201) 
83075

>  <smiles>  (4201) 
CC(C)N(O)c1cncc(O)n1

>  <inchikey>  (4201) 
WGZONKAZJTWLLE-UHFFFAOYSA-N

>  <distance_score>  (4201) 
0.707573

>  <ref_mols>  (4201) 
Z0875a,Z0089a

>  <ref_pdb>  (4201) 
Z0719a

>  <HIPPO Compound ID>  (4201) 
144059

>  <name>  (4201) 
WGZONKAZJTWLLE-UHFFFAOYSA-N-P7-P7-P52-601529

>  <inspiration_score>  (4201) 
None

$$$$
FBBHXYADOVEFSM-UHFFFAOYSA-N-P7-P7-P52-601529
     RDKit          3D

 12 12  0  0  0  0  0  0  0  0999 V2000
   -8.4919    4.6303  -16.2944 C   0  0  0  0  0  0  0  0  0  0  0  0
   -7.2546    4.8644  -17.0969 C   0  0  0  0  0  0  0  0  0  0  0  0
   -7.2299    4.6885  -18.4731 C   0  0  0  0  0  0  0  0  0  0  0  0
   -6.1025    4.8390  -19.2100 N   0  0  0  0  0  0  0  0  0  0  0  0
   -4.9614    5.1278  -18.5426 C   0  0  0  0  0  0  0  0  0  0  0  0
   -3.8082    5.2211  -19.3119 N   0  0  0  0  0  0  0  0  0  0  0  0
   -3.9225    5.5869  -20.6582 O   0  0  0  0  0  0  0  0  0  0  0  0
   -2.4642    5.3731  -18.7675 C   0  0  0  0  0  0  0  0  0  0  0  0
   -1.4897    4.5096  -19.5680 C   0  0  0  0  0  0  0  0  0  0  0  0
   -2.0457    6.8403  -18.7870 C   0  0  0  0  0  0  0  0  0  0  0  0
   -5.0095    5.3144  -17.1606 C   0  0  0  0  0  0  0  0  0  0  0  0
   -6.1388    5.2154  -16.4164 N   0  0  0  0  0  0  0  0  0  0  0  0
  1  2  1  0
  2  3  2  0
  3  4  1  0
  4  5  2  0
  5  6  1  0
  6  7  1  0
  6  8  1  0
  8  9  1  0
  8 10  1  0
  5 11  1  0
 11 12  2  0
 12  2  1  0
M  END
>  <energy_score>  (4202) 
-22.858401

>  <alias>  (4202) 
FBBHXYADOVEFSM-UHFFFAOYSA-N-P7-P7-P52-601529

>  <HIPPO Pose ID>  (4202) 
83077

>  <smiles>  (4202) 
Cc1cnc(N(O)C(C)C)cn1

>  <inchikey>  (4202) 
FBBHXYADOVEFSM-UHFFFAOYSA-N

>  <distance_score>  (4202) 
0.766458

>  <ref_mols>  (4202) 
Z0875a,Z0089a

>  <ref_pdb>  (4202) 
Z0719a

>  <HIPPO Compound ID>  (4202) 
144060

>  <name>  (4202) 
FBBHXYADOVEFSM-UHFFFAOYSA-N-P7-P7-P52-601529

>  <inspiration_score>  (4202) 
None

$$$$
LZHXFIZXUMCSAU-UHFFFAOYSA-N-P7-P7-P52-601529
     RDKit          3D

 12 12  0  0  0  0  0  0  0  0999 V2000
   -1.7221    3.6020  -19.5844 C   0  0  0  0  0  0  0  0  0  0  0  0
   -1.6956    5.1148  -19.5781 C   0  0  0  0  0  0  0  0  0  0  0  0
   -2.7804    5.7465  -18.6929 C   0  0  1  0  0  0  0  0  0  0  0  0
   -2.7534    7.2588  -18.8852 C   0  0  0  0  0  0  0  0  0  0  0  0
   -4.0751    5.2267  -19.0511 N   0  0  0  0  0  0  0  0  0  0  0  0
   -5.2355    5.1377  -18.3453 C   0  0  0  0  0  0  0  0  0  0  0  0
   -6.2353    4.7292  -19.1564 N   0  0  0  0  0  0  0  0  0  0  0  0
   -7.4548    4.5395  -18.6152 C   0  0  0  0  0  0  0  0  0  0  0  0
   -7.6973    4.7614  -17.2823 C   0  0  0  0  0  0  0  0  0  0  0  0
   -6.7386    5.2090  -16.4483 N   0  0  0  0  0  0  0  0  0  0  0  0
   -5.4926    5.3704  -16.9822 C   0  0  0  0  0  0  0  0  0  0  0  0
   -4.4775    5.7987  -15.9717 C   0  0  0  0  0  0  0  0  0  0  0  0
  1  2  1  0
  2  3  1  0
  3  4  1  6
  3  5  1  0
  5  6  1  0
  6  7  2  0
  7  8  1  0
  8  9  2  0
  9 10  1  0
 10 11  2  0
 11 12  1  0
 11  6  1  0
M  END
>  <energy_score>  (4203) 
-17.921915

>  <alias>  (4203) 
LZHXFIZXUMCSAU-UHFFFAOYSA-N-P7-P7-P52-601529

>  <HIPPO Pose ID>  (4203) 
83089

>  <smiles>  (4203) 
CCC(C)Nc1nccnc1C

>  <inchikey>  (4203) 
LZHXFIZXUMCSAU-UHFFFAOYSA-N

>  <distance_score>  (4203) 
1.066251

>  <ref_mols>  (4203) 
Z0875a,Z0089a

>  <ref_pdb>  (4203) 
Z0719a

>  <HIPPO Compound ID>  (4203) 
144066

>  <name>  (4203) 
LZHXFIZXUMCSAU-UHFFFAOYSA-N-P7-P7-P52-601529

>  <inspiration_score>  (4203) 
None

$$$$
AHLCPGGQIRJEMF-UHFFFAOYSA-N-P7-P7-P52-601529
     RDKit          3D

 12 12  0  0  0  0  0  0  0  0999 V2000
   -8.5652    4.5500  -16.2996 C   0  0  0  0  0  0  0  0  0  0  0  0
   -7.3302    4.8914  -17.0644 C   0  0  0  0  0  0  0  0  0  0  0  0
   -7.1579    4.4995  -18.3842 C   0  0  0  0  0  0  0  0  0  0  0  0
   -6.0259    4.7554  -19.0850 N   0  0  0  0  0  0  0  0  0  0  0  0
   -5.0534    5.4263  -18.4437 C   0  0  0  0  0  0  0  0  0  0  0  0
   -3.9865    5.7719  -19.2429 N   0  0  0  0  0  0  0  0  0  0  0  0
   -2.5617    5.5926  -18.9309 C   0  0  0  0  0  0  0  0  0  0  0  0
   -2.1061    4.1900  -19.3446 C   0  0  0  0  0  0  0  0  0  0  0  0
   -1.8192    6.6288  -19.7918 C   0  0  0  0  0  0  0  0  0  0  0  0
   -2.1631    5.8402  -17.4734 C   0  0  0  0  0  0  0  0  0  0  0  0
   -5.2460    5.8295  -17.1253 C   0  0  0  0  0  0  0  0  0  0  0  0
   -6.3662    5.5747  -16.4074 N   0  0  0  0  0  0  0  0  0  0  0  0
  1  2  1  0
  2  3  2  0
  3  4  1  0
  4  5  2  0
  5  6  1  0
  6  7  1  0
  7  8  1  0
  7  9  1  0
  7 10  1  0
  5 11  1  0
 11 12  2  0
 12  2  1  0
M  END
>  <energy_score>  (4204) 
-26.256718

>  <alias>  (4204) 
AHLCPGGQIRJEMF-UHFFFAOYSA-N-P7-P7-P52-601529

>  <HIPPO Pose ID>  (4204) 
83091

>  <smiles>  (4204) 
Cc1cnc(NC(C)(C)C)cn1

>  <inchikey>  (4204) 
AHLCPGGQIRJEMF-UHFFFAOYSA-N

>  <distance_score>  (4204) 
0.80379

>  <ref_mols>  (4204) 
Z0875a,Z0089a

>  <ref_pdb>  (4204) 
Z0719a

>  <HIPPO Compound ID>  (4204) 
144067

>  <name>  (4204) 
AHLCPGGQIRJEMF-UHFFFAOYSA-N-P7-P7-P52-601529

>  <inspiration_score>  (4204) 
None

$$$$
WTEDBYLJIMWYAI-UHFFFAOYSA-N-P52-P7-P52-601529
     RDKit          3D

 12 12  0  0  0  0  0  0  0  0999 V2000
   -1.9571    4.5131  -19.4446 C   0  0  0  0  0  0  0  0  0  0  0  0
   -2.6683    5.8677  -19.4210 C   0  0  0  0  0  0  0  0  0  0  0  0
   -2.2451    6.6602  -18.1860 C   0  0  0  0  0  0  0  0  0  0  0  0
   -2.2283    6.7079  -20.6395 C   0  0  0  0  0  0  0  0  0  0  0  0
   -4.1070    5.6708  -19.5454 N   0  0  0  0  0  0  0  0  0  0  0  0
   -5.0874    5.3324  -18.6606 C   0  0  0  0  0  0  0  0  0  0  0  0
   -5.0973    5.5160  -17.2786 C   0  0  0  0  0  0  0  0  0  0  0  0
   -6.1733    5.2818  -16.4802 N   0  0  0  0  0  0  0  0  0  0  0  0
   -7.2568    4.8448  -17.1384 C   0  0  0  0  0  0  0  0  0  0  0  0
   -8.3398    4.6439  -16.3536 O   0  0  0  0  0  0  0  0  0  0  0  0
   -7.2809    4.6258  -18.4967 C   0  0  0  0  0  0  0  0  0  0  0  0
   -6.1896    4.8500  -19.2671 N   0  0  0  0  0  0  0  0  0  0  0  0
  1  2  1  0
  2  3  1  0
  2  4  1  0
  2  5  1  0
  5  6  1  0
  6  7  2  0
  7  8  1  0
  8  9  2  0
  9 10  1  0
  9 11  1  0
 11 12  2  0
 12  6  1  0
M  END
>  <energy_score>  (4205) 
-46.204328

>  <alias>  (4205) 
WTEDBYLJIMWYAI-UHFFFAOYSA-N-P52-P7-P52-601529

>  <HIPPO Pose ID>  (4205) 
83094

>  <smiles>  (4205) 
CC(C)(C)Nc1cnc(O)cn1

>  <inchikey>  (4205) 
WTEDBYLJIMWYAI-UHFFFAOYSA-N

>  <distance_score>  (4205) 
0.723128

>  <ref_mols>  (4205) 
Z0875a,Z0089a

>  <ref_pdb>  (4205) 
Z0719a

>  <HIPPO Compound ID>  (4205) 
144068

>  <name>  (4205) 
WTEDBYLJIMWYAI-UHFFFAOYSA-N-P52-P7-P52-601529

>  <inspiration_score>  (4205) 
None

$$$$
JJRMJXKHUNYVKS-UHFFFAOYSA-N-P52-P7-P52-601529
     RDKit          3D

 12 12  0  0  0  0  0  0  0  0999 V2000
   -6.0534    4.8457  -15.3548 C   0  0  0  0  0  0  0  0  0  0  0  0
   -6.1249    4.8644  -16.8133 N   0  0  0  0  0  0  0  0  0  0  0  0
   -7.2653    4.5243  -17.4542 C   0  0  0  0  0  0  0  0  0  0  0  0
   -7.2589    4.5154  -18.8296 C   0  0  0  0  0  0  0  0  0  0  0  0
   -6.1610    4.8524  -19.5336 N   0  0  0  0  0  0  0  0  0  0  0  0
   -5.0460    5.2323  -18.8938 C   0  0  0  0  0  0  0  0  0  0  0  0
   -4.0620    5.6689  -19.7252 N   0  0  0  0  0  0  0  0  0  0  0  0
   -2.6274    5.8937  -19.5506 C   0  0  0  0  0  0  0  0  0  0  0  0
   -1.8916    4.5526  -19.5037 C   0  0  0  0  0  0  0  0  0  0  0  0
   -2.2895    6.7318  -18.3149 C   0  0  0  0  0  0  0  0  0  0  0  0
   -2.1446    6.7182  -20.7636 C   0  0  0  0  0  0  0  0  0  0  0  0
   -5.0216    5.2143  -17.5148 C   0  0  0  0  0  0  0  0  0  0  0  0
  1  2  1  0
  2  3  2  0
  3  4  1  0
  4  5  2  0
  5  6  1  0
  6  7  1  0
  7  8  1  0
  8  9  1  0
  8 10  1  0
  8 11  1  0
  6 12  2  0
 12  2  1  0
M  CHG  1   2   1
M  END
>  <energy_score>  (4206) 
-31.085455

>  <alias>  (4206) 
JJRMJXKHUNYVKS-UHFFFAOYSA-N-P52-P7-P52-601529

>  <HIPPO Pose ID>  (4206) 
83098

>  <smiles>  (4206) 
C[n+]1ccnc(NC(C)(C)C)c1

>  <inchikey>  (4206) 
JJRMJXKHUNYVKS-UHFFFAOYSA-N

>  <distance_score>  (4206) 
1.046949

>  <ref_mols>  (4206) 
Z0875a,Z0089a

>  <ref_pdb>  (4206) 
Z0719a

>  <HIPPO Compound ID>  (4206) 
144070

>  <name>  (4206) 
JJRMJXKHUNYVKS-UHFFFAOYSA-N-P52-P7-P52-601529

>  <inspiration_score>  (4206) 
None

$$$$
UOVYIBKUUCWIRU-UHFFFAOYSA-N-P7-P7-P52-601529
     RDKit          3D

 12 12  0  0  0  0  0  0  0  0999 V2000
   -1.9110    4.3306  -19.1606 C   0  0  0  0  0  0  0  0  0  0  0  0
   -2.3973    5.7371  -19.4707 C   0  0  0  0  0  0  0  0  0  0  0  0
   -1.9564    6.7871  -18.4619 C   0  0  0  0  0  0  0  0  0  0  0  0
   -3.8462    5.7962  -19.7334 N   0  0  0  0  0  0  0  0  0  0  0  0
   -4.2247    6.3773  -20.9787 N   0  0  0  0  0  0  0  0  0  0  0  0
   -4.8870    5.3400  -18.9238 C   0  0  0  0  0  0  0  0  0  0  0  0
   -4.7776    5.1244  -17.5607 C   0  0  0  0  0  0  0  0  0  0  0  0
   -5.8610    4.7747  -16.8249 N   0  0  0  0  0  0  0  0  0  0  0  0
   -5.7123    4.6169  -15.3792 C   0  0  0  0  0  0  0  0  0  0  0  0
   -7.0595    4.5724  -17.4155 C   0  0  0  0  0  0  0  0  0  0  0  0
   -7.1533    4.7576  -18.7728 C   0  0  0  0  0  0  0  0  0  0  0  0
   -6.0958    5.1599  -19.5036 N   0  0  0  0  0  0  0  0  0  0  0  0
  1  2  1  0
  2  3  1  0
  2  4  1  0
  4  5  1  0
  4  6  1  0
  6  7  2  0
  7  8  1  0
  8  9  1  0
  8 10  2  0
 10 11  1  0
 11 12  2  0
 12  6  1  0
M  CHG  1   8   1
M  END
>  <energy_score>  (4207) 
-4.76122

>  <alias>  (4207) 
UOVYIBKUUCWIRU-UHFFFAOYSA-N-P7-P7-P52-601529

>  <HIPPO Pose ID>  (4207) 
83105

>  <smiles>  (4207) 
CC(C)N(N)c1c[n+](C)ccn1

>  <inchikey>  (4207) 
UOVYIBKUUCWIRU-UHFFFAOYSA-N

>  <distance_score>  (4207) 
0.999341

>  <ref_mols>  (4207) 
Z0875a,Z0089a

>  <ref_pdb>  (4207) 
Z0719a

>  <HIPPO Compound ID>  (4207) 
144074

>  <name>  (4207) 
UOVYIBKUUCWIRU-UHFFFAOYSA-N-P7-P7-P52-601529

>  <inspiration_score>  (4207) 
None

$$$$
GPNQTQTXMAYTAF-UHFFFAOYSA-N-P7-P7-P52-601529
     RDKit          3D

 12 12  0  0  0  0  0  0  0  0999 V2000
   -1.4992    4.4907  -19.5983 C   0  0  0  0  0  0  0  0  0  0  0  0
   -2.4354    5.3280  -18.7270 C   0  0  0  0  0  0  0  0  0  0  0  0
   -1.9131    6.7547  -18.5734 C   0  0  0  0  0  0  0  0  0  0  0  0
   -3.7800    5.3442  -19.3106 N   0  0  0  0  0  0  0  0  0  0  0  0
   -3.9600    5.8486  -20.6338 N   0  0  0  0  0  0  0  0  0  0  0  0
   -4.9434    5.1617  -18.5479 C   0  0  0  0  0  0  0  0  0  0  0  0
   -4.9785    5.1806  -17.1466 C   0  0  0  0  0  0  0  0  0  0  0  0
   -6.1066    5.0455  -16.4004 N   0  0  0  0  0  0  0  0  0  0  0  0
   -7.2197    4.8557  -17.1236 C   0  0  0  0  0  0  0  0  0  0  0  0
   -8.3435    4.7140  -16.3846 O   0  0  0  0  0  0  0  0  0  0  0  0
   -7.2378    4.8276  -18.5006 C   0  0  0  0  0  0  0  0  0  0  0  0
   -6.1073    4.9966  -19.2269 N   0  0  0  0  0  0  0  0  0  0  0  0
  1  2  1  0
  2  3  1  0
  2  4  1  0
  4  5  1  0
  4  6  1  0
  6  7  2  0
  7  8  1  0
  8  9  2  0
  9 10  1  0
  9 11  1  0
 11 12  2  0
 12  6  1  0
M  END
>  <energy_score>  (4208) 
-40.280958

>  <alias>  (4208) 
GPNQTQTXMAYTAF-UHFFFAOYSA-N-P7-P7-P52-601529

>  <HIPPO Pose ID>  (4208) 
83111

>  <smiles>  (4208) 
CC(C)N(N)c1cnc(O)cn1

>  <inchikey>  (4208) 
GPNQTQTXMAYTAF-UHFFFAOYSA-N

>  <distance_score>  (4208) 
0.732141

>  <ref_mols>  (4208) 
Z0875a,Z0089a

>  <ref_pdb>  (4208) 
Z0719a

>  <HIPPO Compound ID>  (4208) 
144077

>  <name>  (4208) 
GPNQTQTXMAYTAF-UHFFFAOYSA-N-P7-P7-P52-601529

>  <inspiration_score>  (4208) 
None

$$$$
NEWCOIXZNCXSIX-UHFFFAOYSA-N-P52-P7-P52-601529
     RDKit          3D

 12 12  0  0  0  0  0  0  0  0999 V2000
   -4.4270    5.7911  -16.0335 C   0  0  0  0  0  0  0  0  0  0  0  0
   -5.4721    5.3992  -17.0272 C   0  0  0  0  0  0  0  0  0  0  0  0
   -6.7362    5.4174  -16.5117 N   0  0  0  0  0  0  0  0  0  0  0  0
   -7.7212    4.9899  -17.3268 C   0  0  0  0  0  0  0  0  0  0  0  0
   -7.4827    4.6305  -18.6300 C   0  0  0  0  0  0  0  0  0  0  0  0
   -6.2438    4.6597  -19.1591 N   0  0  0  0  0  0  0  0  0  0  0  0
   -5.2197    5.0290  -18.3601 C   0  0  0  0  0  0  0  0  0  0  0  0
   -4.0404    4.8999  -19.0321 N   0  0  0  0  0  0  0  0  0  0  0  0
   -2.7358    5.4701  -18.7767 C   0  0  1  0  0  0  0  0  0  0  0  0
   -1.6910    4.5697  -19.4413 C   0  0  0  0  0  0  0  0  0  0  0  0
   -2.6282    6.8918  -19.3292 C   0  0  0  0  0  0  0  0  0  0  0  0
   -2.7150    6.8646  -20.6909 F   0  0  0  0  0  0  0  0  0  0  0  0
  1  2  1  0
  2  3  2  0
  3  4  1  0
  4  5  2  0
  5  6  1  0
  6  7  2  0
  7  8  1  0
  8  9  1  0
  9 10  1  6
  9 11  1  0
 11 12  1  0
  7  2  1  0
M  END
>  <energy_score>  (4209) 
-16.970143

>  <alias>  (4209) 
NEWCOIXZNCXSIX-UHFFFAOYSA-N-P52-P7-P52-601529

>  <HIPPO Pose ID>  (4209) 
83116

>  <smiles>  (4209) 
Cc1nccnc1NC(C)CF

>  <inchikey>  (4209) 
NEWCOIXZNCXSIX-UHFFFAOYSA-N

>  <distance_score>  (4209) 
1.12202

>  <ref_mols>  (4209) 
Z0875a,Z0089a

>  <ref_pdb>  (4209) 
Z0719a

>  <HIPPO Compound ID>  (4209) 
144079

>  <name>  (4209) 
NEWCOIXZNCXSIX-UHFFFAOYSA-N-P52-P7-P52-601529

>  <inspiration_score>  (4209) 
None

$$$$
ADNSXUKUUXAUAX-UHFFFAOYSA-N-P7-P7-P52-601529
     RDKit          3D

 12 12  0  0  0  0  0  0  0  0999 V2000
   -1.9521    4.4515  -19.1066 C   0  0  0  0  0  0  0  0  0  0  0  0
   -2.7511    5.6035  -19.7007 C   0  0  2  0  0  0  0  0  0  0  0  0
   -2.5041    6.9323  -18.9865 C   0  0  0  0  0  0  0  0  0  0  0  0
   -1.1874    7.2556  -19.0705 F   0  0  0  0  0  0  0  0  0  0  0  0
   -4.1628    5.2681  -19.8238 N   0  0  0  0  0  0  0  0  0  0  0  0
   -5.1383    5.0412  -18.9083 C   0  0  0  0  0  0  0  0  0  0  0  0
   -5.0074    5.0774  -17.5340 C   0  0  0  0  0  0  0  0  0  0  0  0
   -6.0837    4.8620  -16.7413 N   0  0  0  0  0  0  0  0  0  0  0  0
   -5.9046    4.8936  -15.2913 C   0  0  0  0  0  0  0  0  0  0  0  0
   -7.2924    4.5897  -17.2853 C   0  0  0  0  0  0  0  0  0  0  0  0
   -7.3947    4.5453  -18.6575 C   0  0  0  0  0  0  0  0  0  0  0  0
   -6.3301    4.7630  -19.4516 N   0  0  0  0  0  0  0  0  0  0  0  0
  2  1  1  1
  2  3  1  0
  3  4  1  0
  2  5  1  0
  5  6  1  0
  6  7  2  0
  7  8  1  0
  8  9  1  0
  8 10  2  0
 10 11  1  0
 11 12  2  0
 12  6  1  0
M  CHG  1   8   1
M  END
>  <energy_score>  (4210) 
-14.556995

>  <alias>  (4210) 
ADNSXUKUUXAUAX-UHFFFAOYSA-N-P7-P7-P52-601529

>  <HIPPO Pose ID>  (4210) 
83119

>  <smiles>  (4210) 
CC(CF)Nc1c[n+](C)ccn1

>  <inchikey>  (4210) 
ADNSXUKUUXAUAX-UHFFFAOYSA-N

>  <distance_score>  (4210) 
0.717583

>  <ref_mols>  (4210) 
Z0875a,Z0089a

>  <ref_pdb>  (4210) 
Z0719a

>  <HIPPO Compound ID>  (4210) 
144081

>  <name>  (4210) 
ADNSXUKUUXAUAX-UHFFFAOYSA-N-P7-P7-P52-601529

>  <inspiration_score>  (4210) 
None

$$$$
HDZFBJSAYARUHR-UHFFFAOYSA-N-P7-P7-P52-601529
     RDKit          3D

 12 12  0  0  0  0  0  0  0  0999 V2000
   -1.6855    3.5074  -19.4692 C   0  0  0  0  0  0  0  0  0  0  0  0
   -2.2398    4.5650  -19.5754 C   0  0  0  0  0  0  0  0  0  0  0  0
   -2.8905    5.8526  -19.8140 C   0  0  2  0  0  0  0  0  0  0  0  0
   -2.4143    6.9377  -18.8608 C   0  0  0  0  0  0  0  0  0  0  0  0
   -4.3314    5.7245  -19.8626 N   0  0  0  0  0  0  0  0  0  0  0  0
   -5.2065    5.2464  -18.9370 C   0  0  0  0  0  0  0  0  0  0  0  0
   -5.0145    5.1965  -17.5715 C   0  0  0  0  0  0  0  0  0  0  0  0
   -6.0306    4.8278  -16.7564 N   0  0  0  0  0  0  0  0  0  0  0  0
   -5.7954    4.7890  -15.3157 C   0  0  0  0  0  0  0  0  0  0  0  0
   -7.2357    4.4905  -17.2709 C   0  0  0  0  0  0  0  0  0  0  0  0
   -7.3917    4.5148  -18.6378 C   0  0  0  0  0  0  0  0  0  0  0  0
   -6.3865    4.8790  -19.4530 N   0  0  0  0  0  0  0  0  0  0  0  0
  1  2  3  0
  2  3  1  0
  3  4  1  1
  3  5  1  0
  5  6  1  0
  6  7  2  0
  7  8  1  0
  8  9  1  0
  8 10  2  0
 10 11  1  0
 11 12  2  0
 12  6  1  0
M  CHG  1   8   1
M  END
>  <energy_score>  (4211) 
-6.7057

>  <alias>  (4211) 
HDZFBJSAYARUHR-UHFFFAOYSA-N-P7-P7-P52-601529

>  <HIPPO Pose ID>  (4211) 
83127

>  <smiles>  (4211) 
C#CC(C)Nc1c[n+](C)ccn1

>  <inchikey>  (4211) 
HDZFBJSAYARUHR-UHFFFAOYSA-N

>  <distance_score>  (4211) 
0.750279

>  <ref_mols>  (4211) 
Z0875a,Z0089a

>  <ref_pdb>  (4211) 
Z0719a

>  <HIPPO Compound ID>  (4211) 
144085

>  <name>  (4211) 
HDZFBJSAYARUHR-UHFFFAOYSA-N-P7-P7-P52-601529

>  <inspiration_score>  (4211) 
None

$$$$
IARMRUUYLNLQPU-UHFFFAOYSA-N-P7-P7-P52-601529
     RDKit          3D

 12 12  0  0  0  0  0  0  0  0999 V2000
   -8.3454    4.6672  -16.0434 C   0  0  0  0  0  0  0  0  0  0  0  0
   -7.2083    4.8739  -16.9889 C   0  0  0  0  0  0  0  0  0  0  0  0
   -7.3302    4.5808  -18.3373 C   0  0  0  0  0  0  0  0  0  0  0  0
   -6.3074    4.7335  -19.2082 N   0  0  0  0  0  0  0  0  0  0  0  0
   -5.1363    5.1738  -18.7208 C   0  0  0  0  0  0  0  0  0  0  0  0
   -4.1917    5.3558  -19.6854 N   0  0  0  0  0  0  0  0  0  0  0  0
   -2.7623    5.6021  -19.6002 C   0  0  2  0  0  0  0  0  0  0  0  0
   -2.0288    4.4305  -18.9629 C   0  0  0  0  0  0  0  0  0  0  0  0
   -2.4404    6.9603  -18.9624 C   0  0  0  0  0  0  0  0  0  0  0  0
   -0.7663    7.4820  -19.3002 Cl  0  0  0  0  0  0  0  0  0  0  0  0
   -5.0164    5.4330  -17.3601 C   0  0  0  0  0  0  0  0  0  0  0  0
   -6.0366    5.3158  -16.4726 N   0  0  0  0  0  0  0  0  0  0  0  0
  1  2  1  0
  2  3  2  0
  3  4  1  0
  4  5  2  0
  5  6  1  0
  6  7  1  0
  7  8  1  1
  7  9  1  0
  9 10  1  0
  5 11  1  0
 11 12  2  0
 12  2  1  0
M  END
>  <energy_score>  (4212) 
-29.253976

>  <alias>  (4212) 
IARMRUUYLNLQPU-UHFFFAOYSA-N-P7-P7-P52-601529

>  <HIPPO Pose ID>  (4212) 
83129

>  <smiles>  (4212) 
Cc1cnc(NC(C)CCl)cn1

>  <inchikey>  (4212) 
IARMRUUYLNLQPU-UHFFFAOYSA-N

>  <distance_score>  (4212) 
0.69044

>  <ref_mols>  (4212) 
Z0875a,Z0089a

>  <ref_pdb>  (4212) 
Z0719a

>  <HIPPO Compound ID>  (4212) 
144086

>  <name>  (4212) 
IARMRUUYLNLQPU-UHFFFAOYSA-N-P7-P7-P52-601529

>  <inspiration_score>  (4212) 
None

$$$$
DXIAMQZPRHJSTN-UHFFFAOYSA-N-P7-P7-P52-601529
     RDKit          3D

 12 12  0  0  0  0  0  0  0  0999 V2000
   -8.7016    4.1752  -18.8475 C   0  0  0  0  0  0  0  0  0  0  0  0
   -7.4041    4.5616  -18.2128 C   0  0  0  0  0  0  0  0  0  0  0  0
   -7.3275    4.7911  -16.8482 C   0  0  0  0  0  0  0  0  0  0  0  0
   -6.1825    5.1505  -16.2311 N   0  0  0  0  0  0  0  0  0  0  0  0
   -5.1037    5.2364  -17.0443 C   0  0  0  0  0  0  0  0  0  0  0  0
   -5.1456    5.0126  -18.4193 C   0  0  0  0  0  0  0  0  0  0  0  0
   -4.0755    5.0471  -19.2725 N   0  0  0  0  0  0  0  0  0  0  0  0
   -2.7130    5.4178  -18.9382 C   0  0  1  0  0  0  0  0  0  0  0  0
   -1.7724    4.3857  -19.5622 C   0  0  0  0  0  0  0  0  0  0  0  0
   -2.3684    6.8224  -19.4513 C   0  0  0  0  0  0  0  0  0  0  0  0
   -3.2326    8.1009  -18.5530 Cl  0  0  0  0  0  0  0  0  0  0  0  0
   -6.3125    4.6896  -19.0078 N   0  0  0  0  0  0  0  0  0  0  0  0
  1  2  1  0
  2  3  2  0
  3  4  1  0
  4  5  2  0
  5  6  1  0
  6  7  1  0
  7  8  1  0
  8  9  1  6
  8 10  1  0
 10 11  1  0
  6 12  2  0
 12  2  1  0
M  END
>  <energy_score>  (4213) 
-38.052891

>  <alias>  (4213) 
DXIAMQZPRHJSTN-UHFFFAOYSA-N-P7-P7-P52-601529

>  <HIPPO Pose ID>  (4213) 
83135

>  <smiles>  (4213) 
Cc1cncc(NC(C)CCl)n1

>  <inchikey>  (4213) 
DXIAMQZPRHJSTN-UHFFFAOYSA-N

>  <distance_score>  (4213) 
0.692113

>  <ref_mols>  (4213) 
Z0875a,Z0089a

>  <ref_pdb>  (4213) 
Z0719a

>  <HIPPO Compound ID>  (4213) 
144089

>  <name>  (4213) 
DXIAMQZPRHJSTN-UHFFFAOYSA-N-P7-P7-P52-601529

>  <inspiration_score>  (4213) 
None

$$$$
RHPCYNFKNFIIGM-UHFFFAOYSA-N-P7-P7-P52-601529
     RDKit          3D

 12 12  0  0  0  0  0  0  0  0999 V2000
   -1.9007    4.5115  -18.9747 C   0  0  0  0  0  0  0  0  0  0  0  0
   -2.7238    5.5705  -19.6902 C   0  0  2  0  0  0  0  0  0  0  0  0
   -2.4749    7.0196  -19.2383 C   0  0  0  0  0  0  0  0  0  0  0  0
   -2.7077    7.3256  -17.4996 Cl  0  0  0  0  0  0  0  0  0  0  0  0
   -4.1299    5.2031  -19.8002 N   0  0  0  0  0  0  0  0  0  0  0  0
   -5.1172    5.0015  -18.8925 C   0  0  0  0  0  0  0  0  0  0  0  0
   -4.9942    4.9581  -17.5203 C   0  0  0  0  0  0  0  0  0  0  0  0
   -6.0860    4.7897  -16.7396 N   0  0  0  0  0  0  0  0  0  0  0  0
   -5.9115    4.7903  -15.2898 C   0  0  0  0  0  0  0  0  0  0  0  0
   -7.3035    4.6027  -17.2961 C   0  0  0  0  0  0  0  0  0  0  0  0
   -7.3988    4.6122  -18.6692 C   0  0  0  0  0  0  0  0  0  0  0  0
   -6.3212    4.8155  -19.4503 N   0  0  0  0  0  0  0  0  0  0  0  0
  2  1  1  1
  2  3  1  0
  3  4  1  0
  2  5  1  0
  5  6  1  0
  6  7  2  0
  7  8  1  0
  8  9  1  0
  8 10  2  0
 10 11  1  0
 11 12  2  0
 12  6  1  0
M  CHG  1   8   1
M  END
>  <energy_score>  (4214) 
-23.290021

>  <alias>  (4214) 
RHPCYNFKNFIIGM-UHFFFAOYSA-N-P7-P7-P52-601529

>  <HIPPO Pose ID>  (4214) 
83137

>  <smiles>  (4214) 
CC(CCl)Nc1c[n+](C)ccn1

>  <inchikey>  (4214) 
RHPCYNFKNFIIGM-UHFFFAOYSA-N

>  <distance_score>  (4214) 
0.901951

>  <ref_mols>  (4214) 
Z0875a,Z0089a

>  <ref_pdb>  (4214) 
Z0719a

>  <HIPPO Compound ID>  (4214) 
144090

>  <name>  (4214) 
RHPCYNFKNFIIGM-UHFFFAOYSA-N-P7-P7-P52-601529

>  <inspiration_score>  (4214) 
None

$$$$
XKQDZERTOKJKQM-UHFFFAOYSA-N-P7-P7-P52-601529
     RDKit          3D

 12 12  0  0  0  0  0  0  0  0999 V2000
   -1.6673    3.4709  -19.4788 C   0  0  0  0  0  0  0  0  0  0  0  0
   -2.2339    4.5259  -19.5289 C   0  0  0  0  0  0  0  0  0  0  0  0
   -2.9078    5.8150  -19.6751 C   0  0  2  0  0  0  0  0  0  0  0  0
   -2.3910    6.8605  -18.7018 C   0  0  0  0  0  0  0  0  0  0  0  0
   -4.3424    5.6742  -19.7005 N   0  0  0  0  0  0  0  0  0  0  0  0
   -5.2210    5.3013  -18.7278 C   0  0  0  0  0  0  0  0  0  0  0  0
   -5.0755    5.4466  -17.3495 C   0  0  0  0  0  0  0  0  0  0  0  0
   -6.0697    5.2187  -16.4506 N   0  0  0  0  0  0  0  0  0  0  0  0
   -7.2236    4.8138  -17.0048 C   0  0  0  0  0  0  0  0  0  0  0  0
   -8.2356    4.6434  -16.1237 O   0  0  0  0  0  0  0  0  0  0  0  0
   -7.3922    4.6186  -18.3563 C   0  0  0  0  0  0  0  0  0  0  0  0
   -6.3863    4.8501  -19.2281 N   0  0  0  0  0  0  0  0  0  0  0  0
  1  2  3  0
  2  3  1  0
  3  4  1  1
  3  5  1  0
  5  6  1  0
  6  7  2  0
  7  8  1  0
  8  9  2  0
  9 10  1  0
  9 11  1  0
 11 12  2  0
 12  6  1  0
M  END
>  <energy_score>  (4215) 
-33.159965

>  <alias>  (4215) 
XKQDZERTOKJKQM-UHFFFAOYSA-N-P7-P7-P52-601529

>  <HIPPO Pose ID>  (4215) 
83151

>  <smiles>  (4215) 
C#CC(C)Nc1cnc(O)cn1

>  <inchikey>  (4215) 
XKQDZERTOKJKQM-UHFFFAOYSA-N

>  <distance_score>  (4215) 
0.72479

>  <ref_mols>  (4215) 
Z0875a,Z0089a

>  <ref_pdb>  (4215) 
Z0719a

>  <HIPPO Compound ID>  (4215) 
144097

>  <name>  (4215) 
XKQDZERTOKJKQM-UHFFFAOYSA-N-P7-P7-P52-601529

>  <inspiration_score>  (4215) 
None

$$$$
OXFDLTXJCIJDOY-UHFFFAOYSA-N-P7-P7-P52-601529
     RDKit          3D

 12 12  0  0  0  0  0  0  0  0999 V2000
   -1.7019    3.5641  -19.6025 C   0  0  0  0  0  0  0  0  0  0  0  0
   -2.2582    4.5291  -19.1610 C   0  0  0  0  0  0  0  0  0  0  0  0
   -2.8684    5.7130  -18.5491 C   0  0  1  0  0  0  0  0  0  0  0  0
   -2.0600    6.9541  -18.9246 C   0  0  0  0  0  0  0  0  0  0  0  0
   -4.2209    5.9128  -19.0225 N   0  0  0  0  0  0  0  0  0  0  0  0
   -5.3106    5.4380  -18.3196 C   0  0  0  0  0  0  0  0  0  0  0  0
   -6.1893    4.8167  -19.1314 N   0  0  0  0  0  0  0  0  0  0  0  0
   -7.3635    4.4274  -18.5946 C   0  0  0  0  0  0  0  0  0  0  0  0
   -7.6559    4.6178  -17.2640 C   0  0  0  0  0  0  0  0  0  0  0  0
   -6.7997    5.2349  -16.4239 N   0  0  0  0  0  0  0  0  0  0  0  0
   -5.6217    5.6537  -16.9629 C   0  0  0  0  0  0  0  0  0  0  0  0
   -4.7511    6.3927  -15.9955 C   0  0  0  0  0  0  0  0  0  0  0  0
  1  2  3  0
  2  3  1  0
  3  4  1  6
  3  5  1  0
  5  6  1  0
  6  7  2  0
  7  8  1  0
  8  9  2  0
  9 10  1  0
 10 11  2  0
 11 12  1  0
 11  6  1  0
M  END
>  <energy_score>  (4216) 
-15.260625

>  <alias>  (4216) 
OXFDLTXJCIJDOY-UHFFFAOYSA-N-P7-P7-P52-601529

>  <HIPPO Pose ID>  (4216) 
83153

>  <smiles>  (4216) 
C#CC(C)Nc1nccnc1C

>  <inchikey>  (4216) 
OXFDLTXJCIJDOY-UHFFFAOYSA-N

>  <distance_score>  (4216) 
1.106028

>  <ref_mols>  (4216) 
Z0875a,Z0089a

>  <ref_pdb>  (4216) 
Z0719a

>  <HIPPO Compound ID>  (4216) 
144098

>  <name>  (4216) 
OXFDLTXJCIJDOY-UHFFFAOYSA-N-P7-P7-P52-601529

>  <inspiration_score>  (4216) 
None

$$$$
MPFZQDCJQWWLNY-UHFFFAOYSA-N-P7-P7-P52-601529
     RDKit          3D

 12 13  0  0  0  0  0  0  0  0999 V2000
   -9.2013    4.2630  -16.2951 C   0  0  0  0  0  0  0  0  0  0  0  0
   -8.1377    5.1732  -16.0790 O   0  0  0  0  0  0  0  0  0  0  0  0
   -7.1550    5.1439  -17.0179 C   0  0  0  0  0  0  0  0  0  0  0  0
   -7.2953    4.7103  -18.3311 C   0  0  0  0  0  0  0  0  0  0  0  0
   -6.2771    4.7377  -19.2233 N   0  0  0  0  0  0  0  0  0  0  0  0
   -5.1135    5.2375  -18.7777 C   0  0  0  0  0  0  0  0  0  0  0  0
   -4.0794    5.3059  -19.7210 N   0  0  0  0  0  0  0  0  0  0  0  0
   -2.7275    4.9684  -19.2950 C   0  0  0  0  0  0  0  0  0  0  0  0
   -1.5399    5.3573  -20.1190 C   0  0  0  0  0  0  0  0  0  0  0  0
   -1.7943    6.0441  -18.8109 C   0  0  0  0  0  0  0  0  0  0  0  0
   -4.9829    5.6803  -17.4630 C   0  0  0  0  0  0  0  0  0  0  0  0
   -5.9910    5.6550  -16.5655 N   0  0  0  0  0  0  0  0  0  0  0  0
  1  2  1  0
  2  3  1  0
  3  4  2  0
  4  5  1  0
  5  6  2  0
  6  7  1  0
  7  8  1  0
  8  9  1  0
  9 10  1  0
  6 11  1  0
 11 12  2  0
 12  3  1  0
 10  8  1  0
M  END
>  <energy_score>  (4217) 
-18.333092

>  <alias>  (4217) 
MPFZQDCJQWWLNY-UHFFFAOYSA-N-P7-P7-P52-601529

>  <HIPPO Pose ID>  (4217) 
83157

>  <smiles>  (4217) 
COc1cnc(NC2CC2)cn1

>  <inchikey>  (4217) 
MPFZQDCJQWWLNY-UHFFFAOYSA-N

>  <distance_score>  (4217) 
0.801804

>  <ref_mols>  (4217) 
Z0875a,Z0089a

>  <ref_pdb>  (4217) 
Z0719a

>  <HIPPO Compound ID>  (4217) 
144100

>  <name>  (4217) 
MPFZQDCJQWWLNY-UHFFFAOYSA-N-P7-P7-P52-601529

>  <inspiration_score>  (4217) 
None

$$$$
HXHKZPTWFAFQQT-UHFFFAOYSA-N-P52-P7-P52-601529
     RDKit          3D

 13 13  0  0  0  0  0  0  0  0999 V2000
   -1.5755    4.4409  -19.5985 C   0  0  0  0  0  0  0  0  0  0  0  0
   -2.5939    5.4597  -19.0880 C   0  0  1  0  0  0  0  0  0  0  0  0
   -2.3538    6.8677  -19.6474 C   0  0  0  0  0  0  0  0  0  0  0  0
   -2.4603    6.9311  -21.4327 Cl  0  0  0  0  0  0  0  0  0  0  0  0
   -3.9246    4.9857  -19.4121 N   0  0  0  0  0  0  0  0  0  0  0  0
   -5.0179    5.0074  -18.5925 C   0  0  0  0  0  0  0  0  0  0  0  0
   -5.0087    5.1986  -17.2092 C   0  0  0  0  0  0  0  0  0  0  0  0
   -6.1152    5.1475  -16.4296 N   0  0  0  0  0  0  0  0  0  0  0  0
   -7.2493    4.8267  -17.0994 C   0  0  0  0  0  0  0  0  0  0  0  0
   -8.4480    4.6378  -16.2814 C   0  0  0  0  0  0  0  0  0  0  0  0
   -9.5327    4.3699  -16.7805 O   0  0  0  0  0  0  0  0  0  0  0  0
   -7.2910    4.6494  -18.4684 C   0  0  0  0  0  0  0  0  0  0  0  0
   -6.1744    4.7508  -19.2279 N   0  0  0  0  0  0  0  0  0  0  0  0
  2  1  1  6
  2  3  1  0
  3  4  1  0
  2  5  1  0
  5  6  1  0
  6  7  2  0
  7  8  1  0
  8  9  2  0
  9 10  1  0
 10 11  2  0
  9 12  1  0
 12 13  2  0
 13  6  1  0
M  END
>  <energy_score>  (4218) 
-28.023385

>  <alias>  (4218) 
HXHKZPTWFAFQQT-UHFFFAOYSA-N-P52-P7-P52-601529

>  <HIPPO Pose ID>  (4218) 
83160

>  <smiles>  (4218) 
CC(CCl)Nc1cnc(C=O)cn1

>  <inchikey>  (4218) 
HXHKZPTWFAFQQT-UHFFFAOYSA-N

>  <distance_score>  (4218) 
0.69679

>  <ref_mols>  (4218) 
Z0875a,Z0089a

>  <ref_pdb>  (4218) 
Z0719a

>  <HIPPO Compound ID>  (4218) 
144101

>  <name>  (4218) 
HXHKZPTWFAFQQT-UHFFFAOYSA-N-P52-P7-P52-601529

>  <inspiration_score>  (4218) 
None

$$$$
YYSJTQJCJMIVFQ-UHFFFAOYSA-N-P52-P7-P52-601529
     RDKit          3D

 13 13  0  0  0  0  0  0  0  0999 V2000
   -8.3229    4.6291  -16.1544 C   0  0  0  0  0  0  0  0  0  0  0  0
   -7.1392    4.9115  -17.0173 C   0  0  0  0  0  0  0  0  0  0  0  0
   -7.1088    4.5239  -18.3493 C   0  0  0  0  0  0  0  0  0  0  0  0
   -6.0161    4.6811  -19.1336 N   0  0  0  0  0  0  0  0  0  0  0  0
   -4.9408    5.2458  -18.5623 C   0  0  0  0  0  0  0  0  0  0  0  0
   -3.8508    5.3940  -19.4000 N   0  0  0  0  0  0  0  0  0  0  0  0
   -2.4919    5.4015  -18.8633 C   0  0  1  0  0  0  0  0  0  0  0  0
   -1.5966    4.4814  -19.6931 C   0  0  0  0  0  0  0  0  0  0  0  0
   -1.9925    6.8641  -18.8187 C   0  0  2  0  0  0  0  0  0  0  0  0
   -1.6050    7.4663  -20.1626 C   0  0  0  0  0  0  0  0  0  0  0  0
   -0.4508    7.0090  -17.6039 Br  0  0  0  0  0  0  0  0  0  0  0  0
   -4.9936    5.6647  -17.2326 C   0  0  0  0  0  0  0  0  0  0  0  0
   -6.0732    5.5070  -16.4351 N   0  0  0  0  0  0  0  0  0  0  0  0
  1  2  1  0
  2  3  2  0
  3  4  1  0
  4  5  2  0
  5  6  1  0
  6  7  1  0
  7  8  1  6
  7  9  1  0
  9 10  1  6
  9 11  1  0
  5 12  1  0
 12 13  2  0
 13  2  1  0
M  END
>  <energy_score>  (4219) 
-27.635677

>  <alias>  (4219) 
YYSJTQJCJMIVFQ-UHFFFAOYSA-N-P52-P7-P52-601529

>  <HIPPO Pose ID>  (4219) 
83176

>  <smiles>  (4219) 
Cc1cnc(NC(C)C(C)Br)cn1

>  <inchikey>  (4219) 
YYSJTQJCJMIVFQ-UHFFFAOYSA-N

>  <distance_score>  (4219) 
0.701754

>  <ref_mols>  (4219) 
Z0875a,Z0089a

>  <ref_pdb>  (4219) 
Z0719a

>  <HIPPO Compound ID>  (4219) 
144109

>  <name>  (4219) 
YYSJTQJCJMIVFQ-UHFFFAOYSA-N-P52-P7-P52-601529

>  <inspiration_score>  (4219) 
None

$$$$
ZACWUEPYJCWEQL-UHFFFAOYSA-N-P7-P7-P52-601529
     RDKit          3D

 13 13  0  0  0  0  0  0  0  0999 V2000
   -1.6593    3.6072  -19.6499 C   0  0  0  0  0  0  0  0  0  0  0  0
   -1.5734    5.1188  -19.5652 C   0  0  1  0  0  0  0  0  0  0  0  0
   -1.4412    5.8602  -21.3783 Br  0  0  0  0  0  0  0  0  0  0  0  0
   -2.7476    5.7204  -18.7750 C   0  0  1  0  0  0  0  0  0  0  0  0
   -2.7573    7.2456  -18.7589 C   0  0  0  0  0  0  0  0  0  0  0  0
   -4.0182    5.2012  -19.2475 N   0  0  0  0  0  0  0  0  0  0  0  0
   -5.1467    5.0932  -18.4742 C   0  0  0  0  0  0  0  0  0  0  0  0
   -5.1871    5.1325  -17.0766 C   0  0  0  0  0  0  0  0  0  0  0  0
   -6.3207    5.0146  -16.3444 N   0  0  0  0  0  0  0  0  0  0  0  0
   -7.4208    4.8079  -17.0828 C   0  0  0  0  0  0  0  0  0  0  0  0
   -8.5527    4.6713  -16.3570 O   0  0  0  0  0  0  0  0  0  0  0  0
   -7.4182    4.7481  -18.4604 C   0  0  0  0  0  0  0  0  0  0  0  0
   -6.2765    4.8972  -19.1721 N   0  0  0  0  0  0  0  0  0  0  0  0
  2  1  1  6
  2  3  1  0
  2  4  1  0
  4  5  1  6
  4  6  1  0
  6  7  1  0
  7  8  2  0
  8  9  1  0
  9 10  2  0
 10 11  1  0
 10 12  1  0
 12 13  2  0
 13  7  1  0
M  END
>  <energy_score>  (4220) 
-37.468288

>  <alias>  (4220) 
ZACWUEPYJCWEQL-UHFFFAOYSA-N-P7-P7-P52-601529

>  <HIPPO Pose ID>  (4220) 
83177

>  <smiles>  (4220) 
CC(Br)C(C)Nc1cnc(O)cn1

>  <inchikey>  (4220) 
ZACWUEPYJCWEQL-UHFFFAOYSA-N

>  <distance_score>  (4220) 
0.751522

>  <ref_mols>  (4220) 
Z0875a,Z0089a

>  <ref_pdb>  (4220) 
Z0719a

>  <HIPPO Compound ID>  (4220) 
144110

>  <name>  (4220) 
ZACWUEPYJCWEQL-UHFFFAOYSA-N-P7-P7-P52-601529

>  <inspiration_score>  (4220) 
None

$$$$
MDYCEKOPHVOPIS-UHFFFAOYSA-N-P52-P7-P52-601529
     RDKit          3D

 13 13  0  0  0  0  0  0  0  0999 V2000
   -1.3570    4.5286  -19.6551 C   0  0  0  0  0  0  0  0  0  0  0  0
   -2.3826    5.4836  -19.0470 C   0  0  1  0  0  0  0  0  0  0  0  0
   -2.1743    6.9382  -19.4872 C   0  0  0  0  0  0  0  0  0  0  0  0
   -2.3160    7.1586  -21.2580 Cl  0  0  0  0  0  0  0  0  0  0  0  0
   -3.6971    5.0111  -19.4071 N   0  0  0  0  0  0  0  0  0  0  0  0
   -4.8216    5.0575  -18.6430 C   0  0  0  0  0  0  0  0  0  0  0  0
   -4.9066    5.3408  -17.2854 C   0  0  0  0  0  0  0  0  0  0  0  0
   -6.0642    5.3000  -16.5833 N   0  0  0  0  0  0  0  0  0  0  0  0
   -7.1594    4.8896  -17.2775 C   0  0  0  0  0  0  0  0  0  0  0  0
   -8.3927    4.6625  -16.4660 C   0  0  0  0  0  0  0  0  0  0  0  0
   -9.9847    4.4231  -17.5396 Br  0  0  0  0  0  0  0  0  0  0  0  0
   -7.0669    4.6161  -18.6361 C   0  0  0  0  0  0  0  0  0  0  0  0
   -5.9161    4.7177  -19.3284 N   0  0  0  0  0  0  0  0  0  0  0  0
  2  1  1  6
  2  3  1  0
  3  4  1  0
  2  5  1  0
  5  6  1  0
  6  7  2  0
  7  8  1  0
  8  9  2  0
  9 10  1  0
 10 11  1  0
  9 12  1  0
 12 13  2  0
 13  6  1  0
M  END
>  <energy_score>  (4221) 
-16.748945

>  <alias>  (4221) 
MDYCEKOPHVOPIS-UHFFFAOYSA-N-P52-P7-P52-601529

>  <HIPPO Pose ID>  (4221) 
83190

>  <smiles>  (4221) 
CC(CCl)Nc1cnc(CBr)cn1

>  <inchikey>  (4221) 
MDYCEKOPHVOPIS-UHFFFAOYSA-N

>  <distance_score>  (4221) 
0.881056

>  <ref_mols>  (4221) 
Z0875a,Z0089a

>  <ref_pdb>  (4221) 
Z0719a

>  <HIPPO Compound ID>  (4221) 
144116

>  <name>  (4221) 
MDYCEKOPHVOPIS-UHFFFAOYSA-N-P52-P7-P52-601529

>  <inspiration_score>  (4221) 
None

$$$$
LSRZYENCTUGHQG-UHFFFAOYSA-N-P7-P7-P52-601529
     RDKit          3D

 13 13  0  0  0  0  0  0  0  0999 V2000
   -9.5863    4.0735  -17.5955 C   0  0  0  0  0  0  0  0  0  0  0  0
   -8.5704    4.4023  -18.5277 O   0  0  0  0  0  0  0  0  0  0  0  0
   -7.3222    4.6198  -18.0201 C   0  0  0  0  0  0  0  0  0  0  0  0
   -6.9850    4.6395  -16.6758 C   0  0  0  0  0  0  0  0  0  0  0  0
   -5.7238    4.8514  -16.2356 N   0  0  0  0  0  0  0  0  0  0  0  0
   -4.8038    5.0170  -17.2134 C   0  0  0  0  0  0  0  0  0  0  0  0
   -5.1067    5.0211  -18.5694 C   0  0  0  0  0  0  0  0  0  0  0  0
   -4.2323    5.1724  -19.6046 N   0  0  0  0  0  0  0  0  0  0  0  0
   -2.8383    5.5842  -19.6377 C   0  0  2  0  0  0  0  0  0  0  0  0
   -1.9087    4.5065  -19.0994 C   0  0  0  0  0  0  0  0  0  0  0  0
   -2.5793    7.0203  -19.1503 C   0  0  0  0  0  0  0  0  0  0  0  0
   -2.1435    7.1945  -17.4347 Cl  0  0  0  0  0  0  0  0  0  0  0  0
   -6.3799    4.8284  -18.9660 N   0  0  0  0  0  0  0  0  0  0  0  0
  1  2  1  0
  2  3  1  0
  3  4  2  0
  4  5  1  0
  5  6  2  0
  6  7  1  0
  7  8  1  0
  8  9  1  0
  9 10  1  1
  9 11  1  0
 11 12  1  0
  7 13  2  0
 13  3  1  0
M  END
>  <energy_score>  (4222) 
-25.340495

>  <alias>  (4222) 
LSRZYENCTUGHQG-UHFFFAOYSA-N-P7-P7-P52-601529

>  <HIPPO Pose ID>  (4222) 
83193

>  <smiles>  (4222) 
COc1cncc(NC(C)CCl)n1

>  <inchikey>  (4222) 
LSRZYENCTUGHQG-UHFFFAOYSA-N

>  <distance_score>  (4222) 
0.744126

>  <ref_mols>  (4222) 
Z0875a,Z0089a

>  <ref_pdb>  (4222) 
Z0719a

>  <HIPPO Compound ID>  (4222) 
144118

>  <name>  (4222) 
LSRZYENCTUGHQG-UHFFFAOYSA-N-P7-P7-P52-601529

>  <inspiration_score>  (4222) 
None

$$$$
GVLXEUIZLAYPTC-UHFFFAOYSA-N-P7-P7-P52-601529
     RDKit          3D

 13 13  0  0  0  0  0  0  0  0999 V2000
   -9.3141    4.2093  -16.5598 C   0  0  0  0  0  0  0  0  0  0  0  0
   -8.2921    5.1251  -16.2015 O   0  0  0  0  0  0  0  0  0  0  0  0
   -7.2040    5.0731  -17.0166 C   0  0  0  0  0  0  0  0  0  0  0  0
   -7.2430    4.8586  -18.3874 C   0  0  0  0  0  0  0  0  0  0  0  0
   -6.1255    4.8322  -19.1503 N   0  0  0  0  0  0  0  0  0  0  0  0
   -4.9588    5.0270  -18.5155 C   0  0  0  0  0  0  0  0  0  0  0  0
   -3.8665    4.9359  -19.3355 N   0  0  0  0  0  0  0  0  0  0  0  0
   -2.5321    5.3953  -19.0012 C   0  0  1  0  0  0  0  0  0  0  0  0
   -1.5478    4.4170  -19.6417 C   0  0  0  0  0  0  0  0  0  0  0  0
   -2.2637    6.8178  -19.5112 C   0  0  0  0  0  0  0  0  0  0  0  0
   -3.1583    8.0565  -18.5910 Cl  0  0  0  0  0  0  0  0  0  0  0  0
   -4.9376    5.2496  -17.1403 C   0  0  0  0  0  0  0  0  0  0  0  0
   -6.0465    5.3082  -16.3708 N   0  0  0  0  0  0  0  0  0  0  0  0
  1  2  1  0
  2  3  1  0
  3  4  2  0
  4  5  1  0
  5  6  2  0
  6  7  1  0
  7  8  1  0
  8  9  1  6
  8 10  1  0
 10 11  1  0
  6 12  1  0
 12 13  2  0
 13  3  1  0
M  END
>  <energy_score>  (4223) 
-33.998802

>  <alias>  (4223) 
GVLXEUIZLAYPTC-UHFFFAOYSA-N-P7-P7-P52-601529

>  <HIPPO Pose ID>  (4223) 
83195

>  <smiles>  (4223) 
COc1cnc(NC(C)CCl)cn1

>  <inchikey>  (4223) 
GVLXEUIZLAYPTC-UHFFFAOYSA-N

>  <distance_score>  (4223) 
0.741384

>  <ref_mols>  (4223) 
Z0875a,Z0089a

>  <ref_pdb>  (4223) 
Z0719a

>  <HIPPO Compound ID>  (4223) 
144119

>  <name>  (4223) 
GVLXEUIZLAYPTC-UHFFFAOYSA-N-P7-P7-P52-601529

>  <inspiration_score>  (4223) 
None

$$$$
XXTGLSZCGRZXGD-UHFFFAOYSA-N-P52-P7-P52-601529
     RDKit          3D

 13 13  0  0  0  0  0  0  0  0999 V2000
   -1.5513    4.5249  -19.6037 C   0  0  0  0  0  0  0  0  0  0  0  0
   -2.5706    5.3380  -18.8016 C   0  0  1  0  0  0  0  0  0  0  0  0
   -2.2481    6.8406  -18.8384 C   0  0  0  0  0  0  0  0  0  0  0  0
   -0.7009    7.2353  -18.0448 Cl  0  0  0  0  0  0  0  0  0  0  0  0
   -3.8871    5.1167  -19.3723 N   0  0  0  0  0  0  0  0  0  0  0  0
   -5.0854    5.0599  -18.6996 C   0  0  0  0  0  0  0  0  0  0  0  0
   -6.0770    4.5244  -19.3646 N   0  0  0  0  0  0  0  0  0  0  0  0
   -7.3047    4.4929  -18.7645 C   0  0  0  0  0  0  0  0  0  0  0  0
   -7.5820    5.0254  -17.5726 C   0  0  0  0  0  0  0  0  0  0  0  0
   -6.6014    5.6509  -16.8452 N   0  0  0  0  0  0  0  0  0  0  0  0
   -6.8793    6.2437  -15.5751 C   0  0  0  0  0  0  0  0  0  0  0  0
   -5.2814    5.6263  -17.2603 C   0  0  0  0  0  0  0  0  0  0  0  0
   -4.3495    6.0476  -16.5850 O   0  0  0  0  0  0  0  0  0  0  0  0
  2  1  1  6
  2  3  1  0
  3  4  1  0
  2  5  1  0
  5  6  1  0
  6  7  2  0
  7  8  1  0
  8  9  2  0
  9 10  1  0
 10 11  1  0
 10 12  1  0
 12 13  2  0
 12  6  1  0
M  END
>  <energy_score>  (4224) 
-119.477384

>  <alias>  (4224) 
XXTGLSZCGRZXGD-UHFFFAOYSA-N-P52-P7-P52-601529

>  <HIPPO Pose ID>  (4224) 
83198

>  <smiles>  (4224) 
CC(CCl)Nc1nccn(C)c1=O

>  <inchikey>  (4224) 
XXTGLSZCGRZXGD-UHFFFAOYSA-N

>  <distance_score>  (4224) 
1.146336

>  <ref_mols>  (4224) 
Z0875a,Z0089a

>  <ref_pdb>  (4224) 
Z0719a

>  <HIPPO Compound ID>  (4224) 
144120

>  <name>  (4224) 
XXTGLSZCGRZXGD-UHFFFAOYSA-N-P52-P7-P52-601529

>  <inspiration_score>  (4224) 
None

$$$$
XRRCLTDOQICAQI-UHFFFAOYSA-N-P7-P7-P52-601529
     RDKit          3D

 13 13  0  0  0  0  0  0  0  0999 V2000
   -9.8641    4.0967  -18.1920 C   0  0  0  0  0  0  0  0  0  0  0  0
   -8.6824    4.2867  -18.1032 C   0  0  0  0  0  0  0  0  0  0  0  0
   -7.3230    4.6043  -17.8106 C   0  0  0  0  0  0  0  0  0  0  0  0
   -6.9468    4.8222  -16.4955 C   0  0  0  0  0  0  0  0  0  0  0  0
   -5.6958    5.1886  -16.1494 N   0  0  0  0  0  0  0  0  0  0  0  0
   -4.8389    5.2948  -17.1938 C   0  0  0  0  0  0  0  0  0  0  0  0
   -5.1936    5.0878  -18.5317 C   0  0  0  0  0  0  0  0  0  0  0  0
   -4.3504    5.2155  -19.6013 N   0  0  0  0  0  0  0  0  0  0  0  0
   -2.9517    5.5795  -19.6400 C   0  0  2  0  0  0  0  0  0  0  0  0
   -2.0564    4.4524  -19.1418 C   0  0  0  0  0  0  0  0  0  0  0  0
   -2.6675    6.8545  -18.9604 C   0  0  0  0  0  0  0  0  0  0  0  0
   -2.4316    7.8983  -18.4137 C   0  0  0  0  0  0  0  0  0  0  0  0
   -6.4618    4.7397  -18.8444 N   0  0  0  0  0  0  0  0  0  0  0  0
  1  2  3  0
  2  3  1  0
  3  4  2  0
  4  5  1  0
  5  6  2  0
  6  7  1  0
  7  8  1  0
  8  9  1  0
  9 10  1  1
  9 11  1  0
 11 12  3  0
  7 13  2  0
 13  3  1  0
M  END
>  <energy_score>  (4225) 
-12.590786

>  <alias>  (4225) 
XRRCLTDOQICAQI-UHFFFAOYSA-N-P7-P7-P52-601529

>  <HIPPO Pose ID>  (4225) 
83205

>  <smiles>  (4225) 
C#Cc1cncc(NC(C)C#C)n1

>  <inchikey>  (4225) 
XRRCLTDOQICAQI-UHFFFAOYSA-N

>  <distance_score>  (4225) 
1.044477

>  <ref_mols>  (4225) 
Z0875a,Z0089a

>  <ref_pdb>  (4225) 
Z0719a

>  <HIPPO Compound ID>  (4225) 
144124

>  <name>  (4225) 
XRRCLTDOQICAQI-UHFFFAOYSA-N-P7-P7-P52-601529

>  <inspiration_score>  (4225) 
None

$$$$
GYLOOVFFKUQZLB-UHFFFAOYSA-N-P7-P7-P52-601529
     RDKit          3D

 13 13  0  0  0  0  0  0  0  0999 V2000
   -1.7237    3.6156  -19.6362 C   0  0  0  0  0  0  0  0  0  0  0  0
   -2.2595    4.5480  -19.1080 C   0  0  0  0  0  0  0  0  0  0  0  0
   -2.8476    5.6863  -18.3899 C   0  0  1  0  0  0  0  0  0  0  0  0
   -2.0085    6.9354  -18.6501 C   0  0  0  0  0  0  0  0  0  0  0  0
   -4.1900    5.9523  -18.8665 N   0  0  0  0  0  0  0  0  0  0  0  0
   -5.2935    5.4609  -18.2045 C   0  0  0  0  0  0  0  0  0  0  0  0
   -6.1544    4.8982  -19.0862 N   0  0  0  0  0  0  0  0  0  0  0  0
   -7.3458    4.4647  -18.6243 C   0  0  0  0  0  0  0  0  0  0  0  0
   -7.6845    4.5564  -17.2947 C   0  0  0  0  0  0  0  0  0  0  0  0
   -6.8565    5.1041  -16.3812 N   0  0  0  0  0  0  0  0  0  0  0  0
   -5.6556    5.5585  -16.8497 C   0  0  0  0  0  0  0  0  0  0  0  0
   -4.8985    6.2227  -15.7482 C   0  0  0  0  0  0  0  0  0  0  0  0
   -3.8764    6.8886  -15.8411 O   0  0  0  0  0  0  0  0  0  0  0  0
  1  2  3  0
  2  3  1  0
  3  4  1  6
  3  5  1  0
  5  6  1  0
  6  7  2  0
  7  8  1  0
  8  9  2  0
  9 10  1  0
 10 11  2  0
 11 12  1  0
 12 13  2  0
 11  6  1  0
M  END
>  <energy_score>  (4226) 
-25.394258

>  <alias>  (4226) 
GYLOOVFFKUQZLB-UHFFFAOYSA-N-P7-P7-P52-601529

>  <HIPPO Pose ID>  (4226) 
83213

>  <smiles>  (4226) 
C#CC(C)Nc1nccnc1C=O

>  <inchikey>  (4226) 
GYLOOVFFKUQZLB-UHFFFAOYSA-N

>  <distance_score>  (4226) 
0.954509

>  <ref_mols>  (4226) 
Z0875a,Z0089a

>  <ref_pdb>  (4226) 
Z0719a

>  <HIPPO Compound ID>  (4226) 
144128

>  <name>  (4226) 
GYLOOVFFKUQZLB-UHFFFAOYSA-N-P7-P7-P52-601529

>  <inspiration_score>  (4226) 
None

$$$$
KPMGYIQDUFBBGC-UHFFFAOYSA-N-P52-P7-P52-601529
     RDKit          3D

 13 13  0  0  0  0  0  0  0  0999 V2000
   -1.5593    3.6843  -19.7075 C   0  0  0  0  0  0  0  0  0  0  0  0
   -2.1750    4.7104  -19.6548 C   0  0  0  0  0  0  0  0  0  0  0  0
   -2.9451    5.9519  -19.6838 C   0  0  2  0  0  0  0  0  0  0  0  0
   -2.4927    6.9518  -18.6447 C   0  0  0  0  0  0  0  0  0  0  0  0
   -4.3511    5.6732  -19.7664 N   0  0  0  0  0  0  0  0  0  0  0  0
   -5.2955    5.2950  -18.8462 C   0  0  0  0  0  0  0  0  0  0  0  0
   -6.2913    4.6208  -19.3722 N   0  0  0  0  0  0  0  0  0  0  0  0
   -7.4060    4.4185  -18.6096 C   0  0  0  0  0  0  0  0  0  0  0  0
   -7.5921    4.9345  -17.3930 C   0  0  0  0  0  0  0  0  0  0  0  0
   -6.5954    5.6592  -16.7891 N   0  0  0  0  0  0  0  0  0  0  0  0
   -6.7711    6.2093  -15.4816 C   0  0  0  0  0  0  0  0  0  0  0  0
   -5.3270    5.7169  -17.3464 C   0  0  0  0  0  0  0  0  0  0  0  0
   -4.3484    6.1032  -16.7239 O   0  0  0  0  0  0  0  0  0  0  0  0
  1  2  3  0
  2  3  1  0
  3  4  1  1
  3  5  1  0
  5  6  1  0
  6  7  2  0
  7  8  1  0
  8  9  2  0
  9 10  1  0
 10 11  1  0
 10 12  1  0
 12 13  2  0
 12  6  1  0
M  END
>  <energy_score>  (4227) 
-11.181044

>  <alias>  (4227) 
KPMGYIQDUFBBGC-UHFFFAOYSA-N-P52-P7-P52-601529

>  <HIPPO Pose ID>  (4227) 
83224

>  <smiles>  (4227) 
C#CC(C)Nc1nccn(C)c1=O

>  <inchikey>  (4227) 
KPMGYIQDUFBBGC-UHFFFAOYSA-N

>  <distance_score>  (4227) 
1.185783

>  <ref_mols>  (4227) 
Z0875a,Z0089a

>  <ref_pdb>  (4227) 
Z0719a

>  <HIPPO Compound ID>  (4227) 
144133

>  <name>  (4227) 
KPMGYIQDUFBBGC-UHFFFAOYSA-N-P52-P7-P52-601529

>  <inspiration_score>  (4227) 
None

$$$$
CYFCMWUOJZZWBJ-UHFFFAOYSA-N-P7-P7-P52-601529
     RDKit          3D

 13 13  0  0  0  0  0  0  0  0999 V2000
   -1.6939    3.5620  -19.5884 C   0  0  0  0  0  0  0  0  0  0  0  0
   -2.2464    4.5303  -19.1493 C   0  0  0  0  0  0  0  0  0  0  0  0
   -2.8591    5.7176  -18.5469 C   0  0  1  0  0  0  0  0  0  0  0  0
   -2.0819    6.9651  -18.9601 C   0  0  0  0  0  0  0  0  0  0  0  0
   -4.2256    5.8762  -19.0034 N   0  0  0  0  0  0  0  0  0  0  0  0
   -5.3083    5.4076  -18.2878 C   0  0  0  0  0  0  0  0  0  0  0  0
   -6.2151    4.8209  -19.0995 N   0  0  0  0  0  0  0  0  0  0  0  0
   -7.3909    4.4377  -18.5561 C   0  0  0  0  0  0  0  0  0  0  0  0
   -7.6641    4.6060  -17.2164 C   0  0  0  0  0  0  0  0  0  0  0  0
   -6.7853    5.1871  -16.3720 N   0  0  0  0  0  0  0  0  0  0  0  0
   -5.6031    5.5812  -16.9243 C   0  0  0  0  0  0  0  0  0  0  0  0
   -4.7536    6.2722  -15.9948 C   0  0  0  0  0  0  0  0  0  0  0  0
   -4.0509    6.8325  -15.2545 N   0  0  0  0  0  0  0  0  0  0  0  0
  1  2  3  0
  2  3  1  0
  3  4  1  6
  3  5  1  0
  5  6  1  0
  6  7  2  0
  7  8  1  0
  8  9  2  0
  9 10  1  0
 10 11  2  0
 11 12  1  0
 12 13  3  0
 11  6  1  0
M  END
>  <energy_score>  (4228) 
-18.664001

>  <alias>  (4228) 
CYFCMWUOJZZWBJ-UHFFFAOYSA-N-P7-P7-P52-601529

>  <HIPPO Pose ID>  (4228) 
83225

>  <smiles>  (4228) 
C#CC(C)Nc1nccnc1C#N

>  <inchikey>  (4228) 
CYFCMWUOJZZWBJ-UHFFFAOYSA-N

>  <distance_score>  (4228) 
0.849445

>  <ref_mols>  (4228) 
Z0875a,Z0089a

>  <ref_pdb>  (4228) 
Z0719a

>  <HIPPO Compound ID>  (4228) 
144134

>  <name>  (4228) 
CYFCMWUOJZZWBJ-UHFFFAOYSA-N-P7-P7-P52-601529

>  <inspiration_score>  (4228) 
None

$$$$
MPESXQFFBTZQLO-UHFFFAOYSA-N-P7-P7-P52-601529
     RDKit          3D

 13 13  0  0  0  0  0  0  0  0999 V2000
   -1.6578    3.4706  -19.4845 C   0  0  0  0  0  0  0  0  0  0  0  0
   -2.2024    4.5364  -19.5475 C   0  0  0  0  0  0  0  0  0  0  0  0
   -2.8507    5.8372  -19.7061 C   0  0  2  0  0  0  0  0  0  0  0  0
   -2.3012    6.8905  -18.7582 C   0  0  0  0  0  0  0  0  0  0  0  0
   -4.2885    5.7336  -19.7006 N   0  0  0  0  0  0  0  0  0  0  0  0
   -5.1282    5.3089  -18.7132 C   0  0  0  0  0  0  0  0  0  0  0  0
   -4.9146    5.3501  -17.3417 C   0  0  0  0  0  0  0  0  0  0  0  0
   -5.8640    5.0492  -16.4190 N   0  0  0  0  0  0  0  0  0  0  0  0
   -7.0711    4.6726  -16.9153 C   0  0  0  0  0  0  0  0  0  0  0  0
   -8.1723    4.4012  -15.9275 C   0  0  0  0  0  0  0  0  0  0  0  0
   -9.3957    4.0358  -16.5609 O   0  0  0  0  0  0  0  0  0  0  0  0
   -7.2782    4.5958  -18.2824 C   0  0  0  0  0  0  0  0  0  0  0  0
   -6.3186    4.9047  -19.1832 N   0  0  0  0  0  0  0  0  0  0  0  0
  1  2  3  0
  2  3  1  0
  3  4  1  1
  3  5  1  0
  5  6  1  0
  6  7  2  0
  7  8  1  0
  8  9  2  0
  9 10  1  0
 10 11  1  0
  9 12  1  0
 12 13  2  0
 13  6  1  0
M  END
>  <energy_score>  (4229) 
-12.345962

>  <alias>  (4229) 
MPESXQFFBTZQLO-UHFFFAOYSA-N-P7-P7-P52-601529

>  <HIPPO Pose ID>  (4229) 
83227

>  <smiles>  (4229) 
C#CC(C)Nc1cnc(CO)cn1

>  <inchikey>  (4229) 
MPESXQFFBTZQLO-UHFFFAOYSA-N

>  <distance_score>  (4229) 
0.720426

>  <ref_mols>  (4229) 
Z0875a,Z0089a

>  <ref_pdb>  (4229) 
Z0719a

>  <HIPPO Compound ID>  (4229) 
144135

>  <name>  (4229) 
MPESXQFFBTZQLO-UHFFFAOYSA-N-P7-P7-P52-601529

>  <inspiration_score>  (4229) 
None

$$$$
KSCQBCRXQYGPBH-UHFFFAOYSA-N-P7-P7-P52-601529
     RDKit          3D

 13 13  0  0  0  0  0  0  0  0999 V2000
   -1.7803    3.5203  -19.4391 C   0  0  0  0  0  0  0  0  0  0  0  0
   -2.3249    4.5875  -19.3884 C   0  0  0  0  0  0  0  0  0  0  0  0
   -2.9052    5.9327  -19.3965 C   0  0  2  0  0  0  0  0  0  0  0  0
   -2.2454    6.8543  -18.3919 C   0  0  0  0  0  0  0  0  0  0  0  0
   -4.3531    5.9495  -19.4033 N   0  0  0  0  0  0  0  0  0  0  0  0
   -5.2354    5.4648  -18.4701 C   0  0  0  0  0  0  0  0  0  0  0  0
   -6.2620    4.8348  -19.0878 N   0  0  0  0  0  0  0  0  0  0  0  0
   -7.3057    4.4428  -18.3308 C   0  0  0  0  0  0  0  0  0  0  0  0
   -7.3303    4.6387  -16.9683 C   0  0  0  0  0  0  0  0  0  0  0  0
   -6.3247    5.2535  -16.3093 N   0  0  0  0  0  0  0  0  0  0  0  0
   -5.2768    5.6623  -17.0727 C   0  0  0  0  0  0  0  0  0  0  0  0
   -4.2997    6.3977  -16.4415 O   0  0  0  0  0  0  0  0  0  0  0  0
   -4.4283    6.4835  -15.0278 C   0  0  0  0  0  0  0  0  0  0  0  0
  1  2  3  0
  2  3  1  0
  3  4  1  1
  3  5  1  0
  5  6  1  0
  6  7  2  0
  7  8  1  0
  8  9  2  0
  9 10  1  0
 10 11  2  0
 11 12  1  0
 12 13  1  0
 11  6  1  0
M  END
>  <energy_score>  (4230) 
-11.821523

>  <alias>  (4230) 
KSCQBCRXQYGPBH-UHFFFAOYSA-N-P7-P7-P52-601529

>  <HIPPO Pose ID>  (4230) 
83231

>  <smiles>  (4230) 
C#CC(C)Nc1nccnc1OC

>  <inchikey>  (4230) 
KSCQBCRXQYGPBH-UHFFFAOYSA-N

>  <distance_score>  (4230) 
0.899257

>  <ref_mols>  (4230) 
Z0875a,Z0089a

>  <ref_pdb>  (4230) 
Z0719a

>  <HIPPO Compound ID>  (4230) 
144137

>  <name>  (4230) 
KSCQBCRXQYGPBH-UHFFFAOYSA-N-P7-P7-P52-601529

>  <inspiration_score>  (4230) 
None

$$$$
OEIRCDZLEONBGI-UHFFFAOYSA-N-P52-P7-P52-601529
     RDKit          3D

 13 14  0  0  0  0  0  0  0  0999 V2000
   -8.9260    4.2398  -18.7198 C   0  0  0  0  0  0  0  0  0  0  0  0
   -7.5874    4.5932  -18.1582 C   0  0  0  0  0  0  0  0  0  0  0  0
   -7.4157    4.7427  -16.7899 C   0  0  0  0  0  0  0  0  0  0  0  0
   -6.2265    5.0583  -16.2328 N   0  0  0  0  0  0  0  0  0  0  0  0
   -5.2098    5.1998  -17.1164 C   0  0  0  0  0  0  0  0  0  0  0  0
   -5.3614    5.1064  -18.4992 C   0  0  0  0  0  0  0  0  0  0  0  0
   -4.3457    5.3454  -19.4236 N   0  0  0  0  0  0  0  0  0  0  0  0
   -3.0449    5.9701  -19.1380 C   0  0  0  0  0  0  0  0  0  0  0  0
   -1.8620    5.0146  -19.2270 C   0  0  0  0  0  0  0  0  0  0  0  0
   -1.3267    4.9013  -20.9535 S   0  0  0  0  0  0  0  0  0  0  0  0
   -2.8335    7.3915  -19.6505 C   0  0  0  0  0  0  0  0  0  0  0  0
   -2.9354    7.1575  -18.1860 C   0  0  0  0  0  0  0  0  0  0  0  0
   -6.5587    4.7807  -19.0216 N   0  0  0  0  0  0  0  0  0  0  0  0
  1  2  1  0
  2  3  2  0
  3  4  1  0
  4  5  2  0
  5  6  1  0
  6  7  1  0
  7  8  1  0
  8  9  1  0
  9 10  1  0
  8 11  1  0
 11 12  1  0
  6 13  2  0
 13  2  1  0
 12  8  1  0
M  END
>  <energy_score>  (4231) 
-26.859168

>  <alias>  (4231) 
OEIRCDZLEONBGI-UHFFFAOYSA-N-P52-P7-P52-601529

>  <HIPPO Pose ID>  (4231) 
83236

>  <smiles>  (4231) 
Cc1cncc(NC2(CS)CC2)n1

>  <inchikey>  (4231) 
OEIRCDZLEONBGI-UHFFFAOYSA-N

>  <distance_score>  (4231) 
0.801225

>  <ref_mols>  (4231) 
Z0875a,Z0089a

>  <ref_pdb>  (4231) 
Z0719a

>  <HIPPO Compound ID>  (4231) 
144139

>  <name>  (4231) 
OEIRCDZLEONBGI-UHFFFAOYSA-N-P52-P7-P52-601529

>  <inspiration_score>  (4231) 
None

$$$$
GUKSQVRCERHVOX-UHFFFAOYSA-N-P52-P7-P52-601529
     RDKit          3D

 13 14  0  0  0  0  0  0  0  0999 V2000
   -8.7244    4.2332  -18.4675 O   0  0  0  0  0  0  0  0  0  0  0  0
   -7.4608    4.5565  -18.0655 C   0  0  0  0  0  0  0  0  0  0  0  0
   -7.1341    4.7350  -16.7305 C   0  0  0  0  0  0  0  0  0  0  0  0
   -5.8845    5.0590  -16.3252 N   0  0  0  0  0  0  0  0  0  0  0  0
   -4.9811    5.1713  -17.3277 C   0  0  0  0  0  0  0  0  0  0  0  0
   -5.2974    5.0049  -18.6779 C   0  0  0  0  0  0  0  0  0  0  0  0
   -4.3739    5.1344  -19.7184 N   0  0  0  0  0  0  0  0  0  0  0  0
   -3.0487    5.7681  -19.6013 C   0  0  0  0  0  0  0  0  0  0  0  0
   -1.9157    4.7570  -19.4354 C   0  0  0  0  0  0  0  0  0  0  0  0
   -0.2279    5.3877  -19.3872 S   0  0  0  0  0  0  0  0  0  0  0  0
   -2.8228    6.9906  -20.4770 C   0  0  0  0  0  0  0  0  0  0  0  0
   -2.9468    7.1629  -18.9969 C   0  0  0  0  0  0  0  0  0  0  0  0
   -6.5528    4.6838  -19.0491 N   0  0  0  0  0  0  0  0  0  0  0  0
  1  2  1  0
  2  3  2  0
  3  4  1  0
  4  5  2  0
  5  6  1  0
  6  7  1  0
  7  8  1  0
  8  9  1  0
  9 10  1  0
  8 11  1  0
 11 12  1  0
  6 13  2  0
 13  2  1  0
 12  8  1  0
M  END
>  <energy_score>  (4232) 
-23.512867

>  <alias>  (4232) 
GUKSQVRCERHVOX-UHFFFAOYSA-N-P52-P7-P52-601529

>  <HIPPO Pose ID>  (4232) 
83238

>  <smiles>  (4232) 
Oc1cncc(NC2(CS)CC2)n1

>  <inchikey>  (4232) 
GUKSQVRCERHVOX-UHFFFAOYSA-N

>  <distance_score>  (4232) 
0.799547

>  <ref_mols>  (4232) 
Z0875a,Z0089a

>  <ref_pdb>  (4232) 
Z0719a

>  <HIPPO Compound ID>  (4232) 
144140

>  <name>  (4232) 
GUKSQVRCERHVOX-UHFFFAOYSA-N-P52-P7-P52-601529

>  <inspiration_score>  (4232) 
None

$$$$
RGRLHIPPVRARCO-UHFFFAOYSA-N-P7-P7-P52-601529
     RDKit          3D

 13 13  0  0  0  0  0  0  0  0999 V2000
   -1.9024    4.3930  -19.4244 C   0  0  0  0  0  0  0  0  0  0  0  0
   -2.7618    5.3576  -18.6065 C   0  0  1  0  0  0  0  0  0  0  0  0
   -2.1576    6.7737  -18.5680 C   0  0  0  0  0  0  0  0  0  0  0  0
   -2.0174    7.4332  -19.9388 C   0  0  0  0  0  0  0  0  0  0  0  0
   -1.3356    9.1127  -19.7734 S   0  0  0  0  0  0  0  0  0  0  0  0
   -4.0992    5.4325  -19.1656 N   0  0  0  0  0  0  0  0  0  0  0  0
   -5.2325    5.1924  -18.4176 C   0  0  0  0  0  0  0  0  0  0  0  0
   -6.2289    4.6635  -19.1564 N   0  0  0  0  0  0  0  0  0  0  0  0
   -7.4113    4.4532  -18.5376 C   0  0  0  0  0  0  0  0  0  0  0  0
   -7.6025    4.7414  -17.2005 C   0  0  0  0  0  0  0  0  0  0  0  0
   -6.6348    5.2856  -16.4292 N   0  0  0  0  0  0  0  0  0  0  0  0
   -5.4626    5.4927  -17.0632 C   0  0  0  0  0  0  0  0  0  0  0  0
   -4.5546    6.0583  -16.2269 O   0  0  0  0  0  0  0  0  0  0  0  0
  2  1  1  6
  2  3  1  0
  3  4  1  0
  4  5  1  0
  2  6  1  0
  6  7  1  0
  7  8  2  0
  8  9  1  0
  9 10  2  0
 10 11  1  0
 11 12  2  0
 12 13  1  0
 12  7  1  0
M  END
>  <energy_score>  (4233) 
-56.396064

>  <alias>  (4233) 
RGRLHIPPVRARCO-UHFFFAOYSA-N-P7-P7-P52-601529

>  <HIPPO Pose ID>  (4233) 
83243

>  <smiles>  (4233) 
CC(CCS)Nc1nccnc1O

>  <inchikey>  (4233) 
RGRLHIPPVRARCO-UHFFFAOYSA-N

>  <distance_score>  (4233) 
0.8951

>  <ref_mols>  (4233) 
Z0875a,Z0089a

>  <ref_pdb>  (4233) 
Z0719a

>  <HIPPO Compound ID>  (4233) 
144143

>  <name>  (4233) 
RGRLHIPPVRARCO-UHFFFAOYSA-N-P7-P7-P52-601529

>  <inspiration_score>  (4233) 
None

$$$$
QGBSLQCOTCLUOT-UHFFFAOYSA-N-P7-P7-P52-601529
     RDKit          3D

 13 13  0  0  0  0  0  0  0  0999 V2000
   -3.8986    6.7590  -15.2741 C   0  0  0  0  0  0  0  0  0  0  0  0
   -4.6065    6.2072  -16.0742 C   0  0  0  0  0  0  0  0  0  0  0  0
   -5.4887    5.5474  -16.9945 C   0  0  0  0  0  0  0  0  0  0  0  0
   -6.6908    5.2856  -16.4189 N   0  0  0  0  0  0  0  0  0  0  0  0
   -7.6139    4.7183  -17.2237 C   0  0  0  0  0  0  0  0  0  0  0  0
   -7.3638    4.4457  -18.5513 C   0  0  0  0  0  0  0  0  0  0  0  0
   -6.1646    4.6944  -19.1216 N   0  0  0  0  0  0  0  0  0  0  0  0
   -5.2114    5.2574  -18.3462 C   0  0  0  0  0  0  0  0  0  0  0  0
   -4.0843    5.5450  -19.0869 N   0  0  0  0  0  0  0  0  0  0  0  0
   -2.7303    5.4255  -18.5643 C   0  0  1  0  0  0  0  0  0  0  0  0
   -1.9358    4.4120  -19.3887 C   0  0  0  0  0  0  0  0  0  0  0  0
   -2.0474    6.7954  -18.6336 C   0  0  0  0  0  0  0  0  0  0  0  0
   -0.8261    6.7263  -18.0357 F   0  0  0  0  0  0  0  0  0  0  0  0
  1  2  3  0
  2  3  1  0
  3  4  2  0
  4  5  1  0
  5  6  2  0
  6  7  1  0
  7  8  2  0
  8  9  1  0
  9 10  1  0
 10 11  1  6
 10 12  1  0
 12 13  1  0
  8  3  1  0
M  END
>  <energy_score>  (4234) 
-17.383928

>  <alias>  (4234) 
QGBSLQCOTCLUOT-UHFFFAOYSA-N-P7-P7-P52-601529

>  <HIPPO Pose ID>  (4234) 
83255

>  <smiles>  (4234) 
C#Cc1nccnc1NC(C)CF

>  <inchikey>  (4234) 
QGBSLQCOTCLUOT-UHFFFAOYSA-N

>  <distance_score>  (4234) 
0.834685

>  <ref_mols>  (4234) 
Z0875a,Z0089a

>  <ref_pdb>  (4234) 
Z0719a

>  <HIPPO Compound ID>  (4234) 
144149

>  <name>  (4234) 
QGBSLQCOTCLUOT-UHFFFAOYSA-N-P7-P7-P52-601529

>  <inspiration_score>  (4234) 
None

$$$$
PRLXYCSUVGLIMR-UHFFFAOYSA-N-P7-P7-P52-601529
     RDKit          3D

 13 13  0  0  0  0  0  0  0  0999 V2000
   -9.6264    3.9109  -17.8167 C   0  0  0  0  0  0  0  0  0  0  0  0
   -8.4762    4.0226  -18.6397 O   0  0  0  0  0  0  0  0  0  0  0  0
   -7.3716    4.6000  -18.0782 C   0  0  0  0  0  0  0  0  0  0  0  0
   -7.3106    5.1200  -16.7913 C   0  0  0  0  0  0  0  0  0  0  0  0
   -6.2120    5.7239  -16.2824 N   0  0  0  0  0  0  0  0  0  0  0  0
   -5.1567    5.7612  -17.1260 C   0  0  0  0  0  0  0  0  0  0  0  0
   -5.1674    5.2174  -18.4123 C   0  0  0  0  0  0  0  0  0  0  0  0
   -4.0948    5.2569  -19.2874 N   0  0  0  0  0  0  0  0  0  0  0  0
   -2.7151    5.2875  -18.8050 C   0  0  1  0  0  0  0  0  0  0  0  0
   -1.8591    4.3004  -19.5916 C   0  0  0  0  0  0  0  0  0  0  0  0
   -2.1383    6.7031  -18.9543 C   0  0  0  0  0  0  0  0  0  0  0  0
   -2.7157    7.5349  -18.0420 F   0  0  0  0  0  0  0  0  0  0  0  0
   -6.2872    4.6387  -18.8918 N   0  0  0  0  0  0  0  0  0  0  0  0
  1  2  1  0
  2  3  1  0
  3  4  2  0
  4  5  1  0
  5  6  2  0
  6  7  1  0
  7  8  1  0
  8  9  1  0
  9 10  1  6
  9 11  1  0
 11 12  1  0
  7 13  2  0
 13  3  1  0
M  END
>  <energy_score>  (4235) 
-26.425738

>  <alias>  (4235) 
PRLXYCSUVGLIMR-UHFFFAOYSA-N-P7-P7-P52-601529

>  <HIPPO Pose ID>  (4235) 
83271

>  <smiles>  (4235) 
COc1cncc(NC(C)CF)n1

>  <inchikey>  (4235) 
PRLXYCSUVGLIMR-UHFFFAOYSA-N

>  <distance_score>  (4235) 
0.743551

>  <ref_mols>  (4235) 
Z0875a,Z0089a

>  <ref_pdb>  (4235) 
Z0719a

>  <HIPPO Compound ID>  (4235) 
144157

>  <name>  (4235) 
PRLXYCSUVGLIMR-UHFFFAOYSA-N-P7-P7-P52-601529

>  <inspiration_score>  (4235) 
None

$$$$
DVVCFNPSFJFCRS-UHFFFAOYSA-N-P7-P7-P52-601529
     RDKit          3D

 13 13  0  0  0  0  0  0  0  0999 V2000
   -9.2549    4.2406  -16.4623 C   0  0  0  0  0  0  0  0  0  0  0  0
   -8.2574    5.2096  -16.1811 O   0  0  0  0  0  0  0  0  0  0  0  0
   -7.1694    5.1090  -16.9911 C   0  0  0  0  0  0  0  0  0  0  0  0
   -7.2180    4.8774  -18.3587 C   0  0  0  0  0  0  0  0  0  0  0  0
   -6.1016    4.8077  -19.1214 N   0  0  0  0  0  0  0  0  0  0  0  0
   -4.9299    4.9656  -18.4859 C   0  0  0  0  0  0  0  0  0  0  0  0
   -3.8324    4.8151  -19.2985 N   0  0  0  0  0  0  0  0  0  0  0  0
   -2.5367    5.3924  -18.9842 C   0  0  1  0  0  0  0  0  0  0  0  0
   -1.4722    4.5828  -19.7177 C   0  0  0  0  0  0  0  0  0  0  0  0
   -2.4675    6.8716  -19.3653 C   0  0  0  0  0  0  0  0  0  0  0  0
   -1.2615    7.3810  -18.9951 F   0  0  0  0  0  0  0  0  0  0  0  0
   -4.8989    5.2041  -17.1133 C   0  0  0  0  0  0  0  0  0  0  0  0
   -6.0050    5.3184  -16.3490 N   0  0  0  0  0  0  0  0  0  0  0  0
  1  2  1  0
  2  3  1  0
  3  4  2  0
  4  5  1  0
  5  6  2  0
  6  7  1  0
  7  8  1  0
  8  9  1  6
  8 10  1  0
 10 11  1  0
  6 12  1  0
 12 13  2  0
 13  3  1  0
M  END
>  <energy_score>  (4236) 
-28.982583

>  <alias>  (4236) 
DVVCFNPSFJFCRS-UHFFFAOYSA-N-P7-P7-P52-601529

>  <HIPPO Pose ID>  (4236) 
83273

>  <smiles>  (4236) 
COc1cnc(NC(C)CF)cn1

>  <inchikey>  (4236) 
DVVCFNPSFJFCRS-UHFFFAOYSA-N

>  <distance_score>  (4236) 
0.722429

>  <ref_mols>  (4236) 
Z0875a,Z0089a

>  <ref_pdb>  (4236) 
Z0719a

>  <HIPPO Compound ID>  (4236) 
144158

>  <name>  (4236) 
DVVCFNPSFJFCRS-UHFFFAOYSA-N-P7-P7-P52-601529

>  <inspiration_score>  (4236) 
None

$$$$
CCQJSJMGALOSHM-UHFFFAOYSA-N-P52-P7-P52-601529
     RDKit          3D

 13 13  0  0  0  0  0  0  0  0999 V2000
   -1.5389    4.6025  -19.5719 C   0  0  0  0  0  0  0  0  0  0  0  0
   -2.6316    5.4338  -18.9004 C   0  0  1  0  0  0  0  0  0  0  0  0
   -2.4588    6.9132  -19.2530 C   0  0  0  0  0  0  0  0  0  0  0  0
   -3.4047    7.6708  -18.6354 F   0  0  0  0  0  0  0  0  0  0  0  0
   -3.9131    4.9314  -19.3453 N   0  0  0  0  0  0  0  0  0  0  0  0
   -5.1091    4.9625  -18.6691 C   0  0  0  0  0  0  0  0  0  0  0  0
   -6.1341    4.5150  -19.3519 N   0  0  0  0  0  0  0  0  0  0  0  0
   -7.3606    4.5392  -18.7516 C   0  0  0  0  0  0  0  0  0  0  0  0
   -7.6088    5.0745  -17.5551 C   0  0  0  0  0  0  0  0  0  0  0  0
   -6.5963    5.6364  -16.8201 N   0  0  0  0  0  0  0  0  0  0  0  0
   -6.8448    6.2566  -15.5578 C   0  0  0  0  0  0  0  0  0  0  0  0
   -5.2737    5.5104  -17.2154 C   0  0  0  0  0  0  0  0  0  0  0  0
   -4.3273    5.8233  -16.5025 O   0  0  0  0  0  0  0  0  0  0  0  0
  2  1  1  6
  2  3  1  0
  3  4  1  0
  2  5  1  0
  5  6  1  0
  6  7  2  0
  7  8  1  0
  8  9  2  0
  9 10  1  0
 10 11  1  0
 10 12  1  0
 12 13  2  0
 12  6  1  0
M  END
>  <energy_score>  (4237) 
-22.678777

>  <alias>  (4237) 
CCQJSJMGALOSHM-UHFFFAOYSA-N-P52-P7-P52-601529

>  <HIPPO Pose ID>  (4237) 
83276

>  <smiles>  (4237) 
CC(CF)Nc1nccn(C)c1=O

>  <inchikey>  (4237) 
CCQJSJMGALOSHM-UHFFFAOYSA-N

>  <distance_score>  (4237) 
1.135999

>  <ref_mols>  (4237) 
Z0875a,Z0089a

>  <ref_pdb>  (4237) 
Z0719a

>  <HIPPO Compound ID>  (4237) 
144159

>  <name>  (4237) 
CCQJSJMGALOSHM-UHFFFAOYSA-N-P52-P7-P52-601529

>  <inspiration_score>  (4237) 
None

$$$$
UFILDLGZNLVSOX-UHFFFAOYSA-N-P7-P7-P52-601529
     RDKit          3D

 13 13  0  0  0  0  0  0  0  0999 V2000
   -4.5951    6.5338  -14.9629 C   0  0  0  0  0  0  0  0  0  0  0  0
   -4.3214    6.2590  -16.3305 O   0  0  0  0  0  0  0  0  0  0  0  0
   -5.3417    5.6206  -17.0099 C   0  0  0  0  0  0  0  0  0  0  0  0
   -6.5085    5.4126  -16.3509 N   0  0  0  0  0  0  0  0  0  0  0  0
   -7.4856    4.8219  -17.0757 C   0  0  0  0  0  0  0  0  0  0  0  0
   -7.3262    4.4853  -18.4048 C   0  0  0  0  0  0  0  0  0  0  0  0
   -6.1651    4.6876  -19.0617 N   0  0  0  0  0  0  0  0  0  0  0  0
   -5.1579    5.2574  -18.3662 C   0  0  0  0  0  0  0  0  0  0  0  0
   -4.0460    5.4762  -19.1617 N   0  0  0  0  0  0  0  0  0  0  0  0
   -2.6950    5.3703  -18.6241 C   0  0  1  0  0  0  0  0  0  0  0  0
   -1.8556    4.4370  -19.4975 C   0  0  0  0  0  0  0  0  0  0  0  0
   -2.0533    6.7618  -18.5985 C   0  0  0  0  0  0  0  0  0  0  0  0
   -0.8245    6.6890  -18.0146 F   0  0  0  0  0  0  0  0  0  0  0  0
  1  2  1  0
  2  3  1  0
  3  4  2  0
  4  5  1  0
  5  6  2  0
  6  7  1  0
  7  8  2  0
  8  9  1  0
  9 10  1  0
 10 11  1  6
 10 12  1  0
 12 13  1  0
  8  3  1  0
M  END
>  <energy_score>  (4238) 
-24.363264

>  <alias>  (4238) 
UFILDLGZNLVSOX-UHFFFAOYSA-N-P7-P7-P52-601529

>  <HIPPO Pose ID>  (4238) 
83283

>  <smiles>  (4238) 
COc1nccnc1NC(C)CF

>  <inchikey>  (4238) 
UFILDLGZNLVSOX-UHFFFAOYSA-N

>  <distance_score>  (4238) 
0.848986

>  <ref_mols>  (4238) 
Z0875a,Z0089a

>  <ref_pdb>  (4238) 
Z0719a

>  <HIPPO Compound ID>  (4238) 
144163

>  <name>  (4238) 
UFILDLGZNLVSOX-UHFFFAOYSA-N-P7-P7-P52-601529

>  <inspiration_score>  (4238) 
None

$$$$
ACONVVJYMMFRGG-UHFFFAOYSA-N-P52-P7-P52-601529
     RDKit          3D

 13 13  0  0  0  0  0  0  0  0999 V2000
   -0.4248    5.3909  -19.2372 C   0  0  0  0  0  0  0  0  0  0  0  0
   -1.8323    4.8725  -18.9621 C   0  0  0  0  0  0  0  0  0  0  0  0
   -2.9133    5.7394  -19.6145 C   0  0  2  0  0  0  0  0  0  0  0  0
   -2.9871    7.2265  -19.2132 C   0  0  0  0  0  0  0  0  0  0  0  0
   -2.7702    7.6603  -17.4578 S   0  0  0  0  0  0  0  0  0  0  0  0
   -4.1976    5.0457  -19.6501 N   0  0  0  0  0  0  0  0  0  0  0  0
   -5.1763    5.0213  -18.6895 C   0  0  0  0  0  0  0  0  0  0  0  0
   -5.0023    5.0476  -17.3068 C   0  0  0  0  0  0  0  0  0  0  0  0
   -6.0272    4.9978  -16.4146 N   0  0  0  0  0  0  0  0  0  0  0  0
   -7.2523    4.8455  -16.9664 C   0  0  0  0  0  0  0  0  0  0  0  0
   -7.4268    4.8044  -18.3320 C   0  0  0  0  0  0  0  0  0  0  0  0
   -8.6557    4.7209  -18.8987 O   0  0  0  0  0  0  0  0  0  0  0  0
   -6.4148    4.9067  -19.2082 N   0  0  0  0  0  0  0  0  0  0  0  0
  1  2  1  0
  3  2  1  1
  3  4  1  0
  4  5  1  0
  3  6  1  0
  6  7  1  0
  7  8  2  0
  8  9  1  0
  9 10  2  0
 10 11  1  0
 11 12  1  0
 11 13  2  0
 13  7  1  0
M  END
>  <energy_score>  (4239) 
-57.592314

>  <alias>  (4239) 
ACONVVJYMMFRGG-UHFFFAOYSA-N-P52-P7-P52-601529

>  <HIPPO Pose ID>  (4239) 
83290

>  <smiles>  (4239) 
CCC(CS)Nc1cncc(O)n1

>  <inchikey>  (4239) 
ACONVVJYMMFRGG-UHFFFAOYSA-N

>  <distance_score>  (4239) 
0.75536

>  <ref_mols>  (4239) 
Z0875a,Z0089a

>  <ref_pdb>  (4239) 
Z0719a

>  <HIPPO Compound ID>  (4239) 
144166

>  <name>  (4239) 
ACONVVJYMMFRGG-UHFFFAOYSA-N-P52-P7-P52-601529

>  <inspiration_score>  (4239) 
None

$$$$
CXOSUSIWCGBOKW-UHFFFAOYSA-N-P7-P7-P52-601529
     RDKit          3D

 13 13  0  0  0  0  0  0  0  0999 V2000
   -1.7088    4.1102  -19.8476 C   0  0  0  0  0  0  0  0  0  0  0  0
   -2.1211    4.7226  -18.5257 C   0  0  0  0  0  0  0  0  0  0  0  0
   -2.9574    6.0044  -18.6257 C   0  0  1  0  0  0  0  0  0  0  0  0
   -2.2781    7.0557  -19.5243 C   0  0  0  0  0  0  0  0  0  0  0  0
   -3.0511    8.7086  -19.4092 S   0  0  0  0  0  0  0  0  0  0  0  0
   -4.2820    5.6976  -19.1242 N   0  0  0  0  0  0  0  0  0  0  0  0
   -5.3657    5.3170  -18.3809 C   0  0  0  0  0  0  0  0  0  0  0  0
   -6.3342    4.7704  -19.1444 N   0  0  0  0  0  0  0  0  0  0  0  0
   -7.4944    4.4446  -18.5355 C   0  0  0  0  0  0  0  0  0  0  0  0
   -7.6892    4.6273  -17.1812 C   0  0  0  0  0  0  0  0  0  0  0  0
   -6.7424    5.1599  -16.3785 N   0  0  0  0  0  0  0  0  0  0  0  0
   -5.5914    5.4833  -17.0031 C   0  0  0  0  0  0  0  0  0  0  0  0
   -4.7090    6.0161  -16.1208 O   0  0  0  0  0  0  0  0  0  0  0  0
  1  2  1  0
  3  2  1  6
  3  4  1  0
  4  5  1  0
  3  6  1  0
  6  7  1  0
  7  8  2  0
  8  9  1  0
  9 10  2  0
 10 11  1  0
 11 12  2  0
 12 13  1  0
 12  7  1  0
M  END
>  <energy_score>  (4240) 
-136.52176

>  <alias>  (4240) 
CXOSUSIWCGBOKW-UHFFFAOYSA-N-P7-P7-P52-601529

>  <HIPPO Pose ID>  (4240) 
83291

>  <smiles>  (4240) 
CCC(CS)Nc1nccnc1O

>  <inchikey>  (4240) 
CXOSUSIWCGBOKW-UHFFFAOYSA-N

>  <distance_score>  (4240) 
0.980105

>  <ref_mols>  (4240) 
Z0875a,Z0089a

>  <ref_pdb>  (4240) 
Z0719a

>  <HIPPO Compound ID>  (4240) 
144167

>  <name>  (4240) 
CXOSUSIWCGBOKW-UHFFFAOYSA-N-P7-P7-P52-601529

>  <inspiration_score>  (4240) 
None

$$$$
WXOWNJNLEKKBBK-UHFFFAOYSA-N-P52-P7-P52-601529
     RDKit          3D

 13 13  0  0  0  0  0  0  0  0999 V2000
   -1.1717    5.7648  -20.9524 C   0  0  0  0  0  0  0  0  0  0  0  0
   -1.4822    4.9061  -19.7310 C   0  0  0  0  0  0  0  0  0  0  0  0
   -2.5713    5.4711  -18.7931 C   0  0  1  0  0  0  0  0  0  0  0  0
   -2.5418    7.0013  -18.6060 C   0  0  0  0  0  0  0  0  0  0  0  0
   -1.0366    7.5951  -17.7656 S   0  0  0  0  0  0  0  0  0  0  0  0
   -3.8753    5.0280  -19.2742 N   0  0  0  0  0  0  0  0  0  0  0  0
   -5.0134    5.0152  -18.4983 C   0  0  0  0  0  0  0  0  0  0  0  0
   -5.0495    5.0459  -17.0999 C   0  0  0  0  0  0  0  0  0  0  0  0
   -6.1895    5.0263  -16.3672 N   0  0  0  0  0  0  0  0  0  0  0  0
   -7.3061    4.9219  -17.1026 C   0  0  0  0  0  0  0  0  0  0  0  0
   -8.4425    4.8586  -16.3727 O   0  0  0  0  0  0  0  0  0  0  0  0
   -7.3094    4.8731  -18.4803 C   0  0  0  0  0  0  0  0  0  0  0  0
   -6.1586    4.9290  -19.1951 N   0  0  0  0  0  0  0  0  0  0  0  0
  1  2  1  0
  3  2  1  6
  3  4  1  0
  4  5  1  0
  3  6  1  0
  6  7  1  0
  7  8  2  0
  8  9  1  0
  9 10  2  0
 10 11  1  0
 10 12  1  0
 12 13  2  0
 13  7  1  0
M  END
>  <energy_score>  (4241) 
-57.791005

>  <alias>  (4241) 
WXOWNJNLEKKBBK-UHFFFAOYSA-N-P52-P7-P52-601529

>  <HIPPO Pose ID>  (4241) 
83296

>  <smiles>  (4241) 
CCC(CS)Nc1cnc(O)cn1

>  <inchikey>  (4241) 
WXOWNJNLEKKBBK-UHFFFAOYSA-N

>  <distance_score>  (4241) 
0.757275

>  <ref_mols>  (4241) 
Z0875a,Z0089a

>  <ref_pdb>  (4241) 
Z0719a

>  <HIPPO Compound ID>  (4241) 
144169

>  <name>  (4241) 
WXOWNJNLEKKBBK-UHFFFAOYSA-N-P52-P7-P52-601529

>  <inspiration_score>  (4241) 
None

$$$$
HPNMNXUTWZYJAB-UHFFFAOYSA-N-P7-P7-P52-601529
     RDKit          3D

 13 13  0  0  0  0  0  0  0  0999 V2000
   -1.6597    3.6577  -19.5382 C   0  0  0  0  0  0  0  0  0  0  0  0
   -2.5031    4.8604  -19.8827 C   0  0  0  0  0  0  0  0  0  0  0  0
   -2.9251    5.7019  -18.6670 C   0  0  1  0  0  0  0  0  0  0  0  0
   -2.0079    6.9287  -18.4615 C   0  0  0  0  0  0  0  0  0  0  0  0
   -0.3259    6.5492  -17.8792 S   0  0  0  0  0  0  0  0  0  0  0  0
   -4.2766    6.2331  -18.9186 N   0  0  0  0  0  0  0  0  0  0  0  0
   -5.3290    5.6093  -18.2528 C   0  0  0  0  0  0  0  0  0  0  0  0
   -6.2061    5.0352  -19.0971 N   0  0  0  0  0  0  0  0  0  0  0  0
   -7.3291    4.5211  -18.5538 C   0  0  0  0  0  0  0  0  0  0  0  0
   -7.5673    4.5580  -17.1972 C   0  0  0  0  0  0  0  0  0  0  0  0
   -6.6991    5.1205  -16.3291 N   0  0  0  0  0  0  0  0  0  0  0  0
   -5.5690    5.6489  -16.8676 C   0  0  0  0  0  0  0  0  0  0  0  0
   -4.6684    6.3372  -15.8901 C   0  0  0  0  0  0  0  0  0  0  0  0
  1  2  1  0
  3  2  1  6
  3  4  1  0
  4  5  1  0
  3  6  1  0
  6  7  1  0
  7  8  2  0
  8  9  1  0
  9 10  2  0
 10 11  1  0
 11 12  2  0
 12 13  1  0
 12  7  1  0
M  END
>  <energy_score>  (4242) 
-40.420588

>  <alias>  (4242) 
HPNMNXUTWZYJAB-UHFFFAOYSA-N-P7-P7-P52-601529

>  <HIPPO Pose ID>  (4242) 
83297

>  <smiles>  (4242) 
CCC(CS)Nc1nccnc1C

>  <inchikey>  (4242) 
HPNMNXUTWZYJAB-UHFFFAOYSA-N

>  <distance_score>  (4242) 
1.042226

>  <ref_mols>  (4242) 
Z0875a,Z0089a

>  <ref_pdb>  (4242) 
Z0719a

>  <HIPPO Compound ID>  (4242) 
144170

>  <name>  (4242) 
HPNMNXUTWZYJAB-UHFFFAOYSA-N-P7-P7-P52-601529

>  <inspiration_score>  (4242) 
None

$$$$
RHEKXVPLRZQSRA-UHFFFAOYSA-N-P52-P7-P52-601529
     RDKit          3D

 13 13  0  0  0  0  0  0  0  0999 V2000
   -9.6052    4.2478  -17.8617 C   0  0  0  0  0  0  0  0  0  0  0  0
   -8.4772    4.4704  -18.6947 O   0  0  0  0  0  0  0  0  0  0  0  0
   -7.2948    4.7386  -18.0613 C   0  0  0  0  0  0  0  0  0  0  0  0
   -7.1355    4.8394  -16.6859 C   0  0  0  0  0  0  0  0  0  0  0  0
   -5.9572    5.1399  -16.0954 N   0  0  0  0  0  0  0  0  0  0  0  0
   -4.9192    5.2780  -16.9522 C   0  0  0  0  0  0  0  0  0  0  0  0
   -5.0204    5.1720  -18.3442 C   0  0  0  0  0  0  0  0  0  0  0  0
   -3.9191    5.3520  -19.2084 N   0  0  0  0  0  0  0  0  0  0  0  0
   -4.2107    5.8842  -20.4942 N   0  0  0  0  0  0  0  0  0  0  0  0
   -2.5354    5.4124  -18.7107 C   0  0  0  0  0  0  0  0  0  0  0  0
   -1.5896    4.6618  -19.6513 C   0  0  0  0  0  0  0  0  0  0  0  0
   -2.0887    6.8647  -18.5519 C   0  0  0  0  0  0  0  0  0  0  0  0
   -6.2413    4.9270  -18.8950 N   0  0  0  0  0  0  0  0  0  0  0  0
  1  2  1  0
  2  3  1  0
  3  4  2  0
  4  5  1  0
  5  6  2  0
  6  7  1  0
  7  8  1  0
  8  9  1  0
  8 10  1  0
 10 11  1  0
 10 12  1  0
  7 13  2  0
 13  3  1  0
M  END
>  <energy_score>  (4243) 
-22.070285

>  <alias>  (4243) 
RHEKXVPLRZQSRA-UHFFFAOYSA-N-P52-P7-P52-601529

>  <HIPPO Pose ID>  (4243) 
83300

>  <smiles>  (4243) 
COc1cncc(N(N)C(C)C)n1

>  <inchikey>  (4243) 
RHEKXVPLRZQSRA-UHFFFAOYSA-N

>  <distance_score>  (4243) 
0.777818

>  <ref_mols>  (4243) 
Z0875a,Z0089a

>  <ref_pdb>  (4243) 
Z0719a

>  <HIPPO Compound ID>  (4243) 
144171

>  <name>  (4243) 
RHEKXVPLRZQSRA-UHFFFAOYSA-N-P52-P7-P52-601529

>  <inspiration_score>  (4243) 
None

$$$$
AKRYLJDNWKJLEZ-UHFFFAOYSA-N-P7-P7-P52-601529
     RDKit          3D

 13 13  0  0  0  0  0  0  0  0999 V2000
   -9.2849    4.1862  -16.7000 C   0  0  0  0  0  0  0  0  0  0  0  0
   -8.2306    5.0267  -16.2595 O   0  0  0  0  0  0  0  0  0  0  0  0
   -7.1414    5.0496  -17.0745 C   0  0  0  0  0  0  0  0  0  0  0  0
   -7.1581    4.8990  -18.4528 C   0  0  0  0  0  0  0  0  0  0  0  0
   -6.0374    4.9932  -19.2119 N   0  0  0  0  0  0  0  0  0  0  0  0
   -4.8661    5.2190  -18.5692 C   0  0  0  0  0  0  0  0  0  0  0  0
   -3.7118    5.3405  -19.3577 N   0  0  0  0  0  0  0  0  0  0  0  0
   -3.8996    5.8283  -20.6846 N   0  0  0  0  0  0  0  0  0  0  0  0
   -2.3673    5.3437  -18.7743 C   0  0  0  0  0  0  0  0  0  0  0  0
   -1.4333    4.4883  -19.6280 C   0  0  0  0  0  0  0  0  0  0  0  0
   -1.8465    6.7738  -18.6514 C   0  0  0  0  0  0  0  0  0  0  0  0
   -4.8806    5.3711  -17.1804 C   0  0  0  0  0  0  0  0  0  0  0  0
   -5.9976    5.3187  -16.4161 N   0  0  0  0  0  0  0  0  0  0  0  0
  1  2  1  0
  2  3  1  0
  3  4  2  0
  4  5  1  0
  5  6  2  0
  6  7  1  0
  7  8  1  0
  7  9  1  0
  9 10  1  0
  9 11  1  0
  6 12  1  0
 12 13  2  0
 13  3  1  0
M  END
>  <energy_score>  (4244) 
-14.885322

>  <alias>  (4244) 
AKRYLJDNWKJLEZ-UHFFFAOYSA-N-P7-P7-P52-601529

>  <HIPPO Pose ID>  (4244) 
83301

>  <smiles>  (4244) 
COc1cnc(N(N)C(C)C)cn1

>  <inchikey>  (4244) 
AKRYLJDNWKJLEZ-UHFFFAOYSA-N

>  <distance_score>  (4244) 
0.770325

>  <ref_mols>  (4244) 
Z0875a,Z0089a

>  <ref_pdb>  (4244) 
Z0719a

>  <HIPPO Compound ID>  (4244) 
144172

>  <name>  (4244) 
AKRYLJDNWKJLEZ-UHFFFAOYSA-N-P7-P7-P52-601529

>  <inspiration_score>  (4244) 
None

$$$$
HLHBDATXZZLXMM-UHFFFAOYSA-N-P52-P7-P52-601529
     RDKit          3D

 13 13  0  0  0  0  0  0  0  0999 V2000
   -1.9992    4.5628  -18.9588 C   0  0  0  0  0  0  0  0  0  0  0  0
   -2.6022    5.9011  -19.3384 C   0  0  0  0  0  0  0  0  0  0  0  0
   -2.2224    7.0389  -18.4045 C   0  0  0  0  0  0  0  0  0  0  0  0
   -4.0459    5.8208  -19.5805 N   0  0  0  0  0  0  0  0  0  0  0  0
   -4.5136    6.4086  -20.8042 N   0  0  0  0  0  0  0  0  0  0  0  0
   -5.0494    5.4008  -18.7031 C   0  0  0  0  0  0  0  0  0  0  0  0
   -4.9383    5.3325  -17.3162 C   0  0  0  0  0  0  0  0  0  0  0  0
   -5.9824    5.1055  -16.4677 N   0  0  0  0  0  0  0  0  0  0  0  0
   -7.1866    4.8735  -17.0542 C   0  0  0  0  0  0  0  0  0  0  0  0
   -8.3776    4.6646  -16.1540 C   0  0  0  0  0  0  0  0  0  0  0  0
   -9.5943    4.5105  -16.8798 O   0  0  0  0  0  0  0  0  0  0  0  0
   -7.3023    4.8697  -18.4323 C   0  0  0  0  0  0  0  0  0  0  0  0
   -6.2602    5.1430  -19.2536 N   0  0  0  0  0  0  0  0  0  0  0  0
  1  2  1  0
  2  3  1  0
  2  4  1  0
  4  5  1  0
  4  6  1  0
  6  7  2  0
  7  8  1  0
  8  9  2  0
  9 10  1  0
 10 11  1  0
  9 12  1  0
 12 13  2  0
 13  6  1  0
M  END
>  <energy_score>  (4245) 
-13.145908

>  <alias>  (4245) 
HLHBDATXZZLXMM-UHFFFAOYSA-N-P52-P7-P52-601529

>  <HIPPO Pose ID>  (4245) 
83304

>  <smiles>  (4245) 
CC(C)N(N)c1cnc(CO)cn1

>  <inchikey>  (4245) 
HLHBDATXZZLXMM-UHFFFAOYSA-N

>  <distance_score>  (4245) 
0.872991

>  <ref_mols>  (4245) 
Z0875a,Z0089a

>  <ref_pdb>  (4245) 
Z0719a

>  <HIPPO Compound ID>  (4245) 
144173

>  <name>  (4245) 
HLHBDATXZZLXMM-UHFFFAOYSA-N-P52-P7-P52-601529

>  <inspiration_score>  (4245) 
None

$$$$
NCKLWFFCHFBURM-UHFFFAOYSA-N-P7-P7-P52-601529
     RDKit          3D

 13 13  0  0  0  0  0  0  0  0999 V2000
   -9.0391    4.3664  -15.7930 C   0  0  0  0  0  0  0  0  0  0  0  0
   -8.1153    4.6604  -16.4930 C   0  0  0  0  0  0  0  0  0  0  0  0
   -6.9791    4.9320  -17.2880 C   0  0  0  0  0  0  0  0  0  0  0  0
   -6.9787    4.7660  -18.6573 C   0  0  0  0  0  0  0  0  0  0  0  0
   -5.8652    4.9775  -19.3926 N   0  0  0  0  0  0  0  0  0  0  0  0
   -4.7353    5.3159  -18.7236 C   0  0  0  0  0  0  0  0  0  0  0  0
   -3.5784    5.5138  -19.4844 N   0  0  0  0  0  0  0  0  0  0  0  0
   -3.7499    5.9017  -20.8433 N   0  0  0  0  0  0  0  0  0  0  0  0
   -2.2452    5.4537  -18.8868 C   0  0  0  0  0  0  0  0  0  0  0  0
   -1.3588    4.5086  -19.6897 C   0  0  0  0  0  0  0  0  0  0  0  0
   -1.6497    6.8561  -18.8144 C   0  0  0  0  0  0  0  0  0  0  0  0
   -4.7831    5.4927  -17.3361 C   0  0  0  0  0  0  0  0  0  0  0  0
   -5.8959    5.3287  -16.5897 N   0  0  0  0  0  0  0  0  0  0  0  0
  1  2  3  0
  2  3  1  0
  3  4  2  0
  4  5  1  0
  5  6  2  0
  6  7  1  0
  7  8  1  0
  7  9  1  0
  9 10  1  0
  9 11  1  0
  6 12  1  0
 12 13  2  0
 13  3  1  0
M  END
>  <energy_score>  (4246) 
-18.217424

>  <alias>  (4246) 
NCKLWFFCHFBURM-UHFFFAOYSA-N-P7-P7-P52-601529

>  <HIPPO Pose ID>  (4246) 
83309

>  <smiles>  (4246) 
C#Cc1cnc(N(N)C(C)C)cn1

>  <inchikey>  (4246) 
NCKLWFFCHFBURM-UHFFFAOYSA-N

>  <distance_score>  (4246) 
0.984212

>  <ref_mols>  (4246) 
Z0875a,Z0089a

>  <ref_pdb>  (4246) 
Z0719a

>  <HIPPO Compound ID>  (4246) 
144176

>  <name>  (4246) 
NCKLWFFCHFBURM-UHFFFAOYSA-N-P7-P7-P52-601529

>  <inspiration_score>  (4246) 
None

$$$$
PKQVLGFMZGWEKY-UHFFFAOYSA-N-P7-P7-P52-601529
     RDKit          3D

 13 13  0  0  0  0  0  0  0  0999 V2000
   -8.2145    4.4796  -15.8753 C   0  0  0  0  0  0  0  0  0  0  0  0
   -7.0678    4.7277  -16.8012 C   0  0  0  0  0  0  0  0  0  0  0  0
   -5.8976    5.0678  -16.2104 N   0  0  0  0  0  0  0  0  0  0  0  0
   -4.8524    5.2640  -17.0444 C   0  0  0  0  0  0  0  0  0  0  0  0
   -4.9268    5.1785  -18.4340 C   0  0  0  0  0  0  0  0  0  0  0  0
   -3.8273    5.4108  -19.2780 N   0  0  0  0  0  0  0  0  0  0  0  0
   -4.1032    5.9041  -20.5816 N   0  0  0  0  0  0  0  0  0  0  0  0
   -2.4454    5.3796  -18.7845 C   0  0  0  0  0  0  0  0  0  0  0  0
   -1.5747    4.5125  -19.6917 C   0  0  0  0  0  0  0  0  0  0  0  0
   -1.8929    6.7996  -18.6863 C   0  0  0  0  0  0  0  0  0  0  0  0
   -6.1248    4.8959  -19.0047 N   0  0  0  0  0  0  0  0  0  0  0  0
   -7.1828    4.6288  -18.1885 C   0  0  0  0  0  0  0  0  0  0  0  0
   -8.4700    4.2435  -18.8555 C   0  0  0  0  0  0  0  0  0  0  0  0
  1  2  1  0
  2  3  2  0
  3  4  1  0
  4  5  2  0
  5  6  1  0
  6  7  1  0
  6  8  1  0
  8  9  1  0
  8 10  1  0
  5 11  1  0
 11 12  2  0
 12 13  1  0
 12  2  1  0
M  END
>  <energy_score>  (4247) 
-22.827

>  <alias>  (4247) 
PKQVLGFMZGWEKY-UHFFFAOYSA-N-P7-P7-P52-601529

>  <HIPPO Pose ID>  (4247) 
83317

>  <smiles>  (4247) 
Cc1ncc(N(N)C(C)C)nc1C

>  <inchikey>  (4247) 
PKQVLGFMZGWEKY-UHFFFAOYSA-N

>  <distance_score>  (4247) 
0.771575

>  <ref_mols>  (4247) 
Z0875a,Z0089a

>  <ref_pdb>  (4247) 
Z0719a

>  <HIPPO Compound ID>  (4247) 
144180

>  <name>  (4247) 
PKQVLGFMZGWEKY-UHFFFAOYSA-N-P7-P7-P52-601529

>  <inspiration_score>  (4247) 
None

$$$$
RLZLWPBFIWRLCW-UHFFFAOYSA-N-P7-P7-P52-601529
     RDKit          3D

 13 13  0  0  0  0  0  0  0  0999 V2000
   -0.6734    5.6930  -22.1636 C   0  0  0  0  0  0  0  0  0  0  0  0
   -1.4755    6.0184  -20.9460 C   0  0  0  0  0  0  0  0  0  0  0  0
   -1.9541    5.1335  -20.0474 C   0  0  0  0  0  0  0  0  0  0  0  0
   -2.7323    5.5054  -18.7944 C   0  0  1  0  0  0  0  0  0  0  0  0
   -2.1906    6.8002  -18.1807 C   0  0  0  0  0  0  0  0  0  0  0  0
   -4.1100    5.6939  -19.1968 N   0  0  0  0  0  0  0  0  0  0  0  0
   -5.1742    5.2816  -18.4235 C   0  0  0  0  0  0  0  0  0  0  0  0
   -6.2161    4.8608  -19.1697 N   0  0  0  0  0  0  0  0  0  0  0  0
   -7.3499    4.5166  -18.5217 C   0  0  0  0  0  0  0  0  0  0  0  0
   -7.4513    4.5647  -17.1469 C   0  0  0  0  0  0  0  0  0  0  0  0
   -6.4328    4.9782  -16.3638 N   0  0  0  0  0  0  0  0  0  0  0  0
   -5.3133    5.3293  -17.0270 C   0  0  0  0  0  0  0  0  0  0  0  0
   -4.3728    5.7689  -16.1577 O   0  0  0  0  0  0  0  0  0  0  0  0
  1  2  1  0
  2  3  2  3
  3  4  1  0
  4  5  1  6
  4  6  1  0
  6  7  1  0
  7  8  2  0
  8  9  1  0
  9 10  2  0
 10 11  1  0
 11 12  2  0
 12 13  1  0
 12  7  1  0
M  END
>  <energy_score>  (4248) 
-37.597652

>  <alias>  (4248) 
RLZLWPBFIWRLCW-UHFFFAOYSA-N-P7-P7-P52-601529

>  <HIPPO Pose ID>  (4248) 
83325

>  <smiles>  (4248) 
CC=CC(C)Nc1nccnc1O

>  <inchikey>  (4248) 
RLZLWPBFIWRLCW-UHFFFAOYSA-N

>  <distance_score>  (4248) 
0.96545

>  <ref_mols>  (4248) 
Z0875a,Z0089a

>  <ref_pdb>  (4248) 
Z0719a

>  <HIPPO Compound ID>  (4248) 
144184

>  <name>  (4248) 
RLZLWPBFIWRLCW-UHFFFAOYSA-N-P7-P7-P52-601529

>  <inspiration_score>  (4248) 
None

$$$$
ZPNLFQPTMBYNQR-UHFFFAOYSA-N-P7-P7-P52-601529
     RDKit          3D

 13 13  0  0  0  0  0  0  0  0999 V2000
    0.0481    6.3357  -20.3073 C   0  0  0  0  0  0  0  0  0  0  0  0
   -0.5383    5.2504  -19.4631 C   0  0  0  0  0  0  0  0  0  0  0  0
   -1.8357    5.0250  -19.1934 C   0  0  0  0  0  0  0  0  0  0  0  0
   -2.9930    5.8432  -19.6857 C   0  0  2  0  0  0  0  0  0  0  0  0
   -3.1316    7.1819  -18.9727 C   0  0  0  0  0  0  0  0  0  0  0  0
   -4.1753    5.0065  -19.6804 N   0  0  0  0  0  0  0  0  0  0  0  0
   -5.1452    4.9768  -18.7085 C   0  0  0  0  0  0  0  0  0  0  0  0
   -4.9587    5.1235  -17.3382 C   0  0  0  0  0  0  0  0  0  0  0  0
   -5.9708    5.1067  -16.4356 N   0  0  0  0  0  0  0  0  0  0  0  0
   -7.1997    4.8479  -16.9444 C   0  0  0  0  0  0  0  0  0  0  0  0
   -8.3309    4.7223  -15.9781 C   0  0  0  0  0  0  0  0  0  0  0  0
   -7.3877    4.6588  -18.3045 C   0  0  0  0  0  0  0  0  0  0  0  0
   -6.3738    4.7353  -19.1941 N   0  0  0  0  0  0  0  0  0  0  0  0
  1  2  1  0
  2  3  2  3
  3  4  1  0
  4  5  1  1
  4  6  1  0
  6  7  1  0
  7  8  2  0
  8  9  1  0
  9 10  2  0
 10 11  1  0
 10 12  1  0
 12 13  2  0
 13  7  1  0
M  END
>  <energy_score>  (4249) 
-31.975954

>  <alias>  (4249) 
ZPNLFQPTMBYNQR-UHFFFAOYSA-N-P7-P7-P52-601529

>  <HIPPO Pose ID>  (4249) 
83327

>  <smiles>  (4249) 
CC=CC(C)Nc1cnc(C)cn1

>  <inchikey>  (4249) 
ZPNLFQPTMBYNQR-UHFFFAOYSA-N

>  <distance_score>  (4249) 
0.763114

>  <ref_mols>  (4249) 
Z0875a,Z0089a

>  <ref_pdb>  (4249) 
Z0719a

>  <HIPPO Compound ID>  (4249) 
144185

>  <name>  (4249) 
ZPNLFQPTMBYNQR-UHFFFAOYSA-N-P7-P7-P52-601529

>  <inspiration_score>  (4249) 
None

$$$$
LBVGNRVOLIINDB-UHFFFAOYSA-N-P52-P7-P52-601529
     RDKit          3D

 13 13  0  0  0  0  0  0  0  0999 V2000
   -0.2949    5.5761  -22.1783 C   0  0  0  0  0  0  0  0  0  0  0  0
   -1.1846    5.9925  -21.0519 C   0  0  0  0  0  0  0  0  0  0  0  0
   -1.7436    5.1559  -20.1561 C   0  0  0  0  0  0  0  0  0  0  0  0
   -2.6863    5.5433  -19.0377 C   0  0  1  0  0  0  0  0  0  0  0  0
   -2.8166    7.0515  -18.8202 C   0  0  0  0  0  0  0  0  0  0  0  0
   -3.9574    4.9461  -19.3862 N   0  0  0  0  0  0  0  0  0  0  0  0
   -5.0501    4.9646  -18.5464 C   0  0  0  0  0  0  0  0  0  0  0  0
   -5.0061    5.0034  -17.1499 C   0  0  0  0  0  0  0  0  0  0  0  0
   -6.1061    5.0219  -16.3568 N   0  0  0  0  0  0  0  0  0  0  0  0
   -7.2638    4.9424  -17.0320 C   0  0  0  0  0  0  0  0  0  0  0  0
   -8.3622    4.9198  -16.2426 O   0  0  0  0  0  0  0  0  0  0  0  0
   -7.3444    4.8810  -18.4067 C   0  0  0  0  0  0  0  0  0  0  0  0
   -6.2339    4.9006  -19.1806 N   0  0  0  0  0  0  0  0  0  0  0  0
  1  2  1  0
  2  3  2  3
  3  4  1  0
  4  5  1  6
  4  6  1  0
  6  7  1  0
  7  8  2  0
  8  9  1  0
  9 10  2  0
 10 11  1  0
 10 12  1  0
 12 13  2  0
 13  7  1  0
M  END
>  <energy_score>  (4250) 
-45.399431

>  <alias>  (4250) 
LBVGNRVOLIINDB-UHFFFAOYSA-N-P52-P7-P52-601529

>  <HIPPO Pose ID>  (4250) 
83330

>  <smiles>  (4250) 
CC=CC(C)Nc1cnc(O)cn1

>  <inchikey>  (4250) 
LBVGNRVOLIINDB-UHFFFAOYSA-N

>  <distance_score>  (4250) 
0.800797

>  <ref_mols>  (4250) 
Z0875a,Z0089a

>  <ref_pdb>  (4250) 
Z0719a

>  <HIPPO Compound ID>  (4250) 
144186

>  <name>  (4250) 
LBVGNRVOLIINDB-UHFFFAOYSA-N-P52-P7-P52-601529

>  <inspiration_score>  (4250) 
None

$$$$
SYQSNOPWWRGOIX-UHFFFAOYSA-N-P7-P7-P52-601529
     RDKit          3D

 13 13  0  0  0  0  0  0  0  0999 V2000
   -2.4444    4.3391  -19.1879 C   0  0  0  0  0  0  0  0  0  0  0  0
   -2.5790    5.7319  -18.5689 C   0  0  0  0  0  0  0  0  0  0  0  0
   -1.7253    6.7095  -19.4019 C   0  0  0  0  0  0  0  0  0  0  0  0
   -2.0180    5.7272  -17.1489 C   0  0  0  0  0  0  0  0  0  0  0  0
   -3.9611    6.2440  -18.6641 N   0  0  0  0  0  0  0  0  0  0  0  0
   -5.0613    5.6061  -18.1244 C   0  0  0  0  0  0  0  0  0  0  0  0
   -5.8314    5.0780  -19.1082 N   0  0  0  0  0  0  0  0  0  0  0  0
   -7.0215    4.5397  -18.7609 C   0  0  0  0  0  0  0  0  0  0  0  0
   -7.4436    4.4915  -17.4531 C   0  0  0  0  0  0  0  0  0  0  0  0
   -6.6996    4.9871  -16.4441 N   0  0  0  0  0  0  0  0  0  0  0  0
   -5.5079    5.5587  -16.7947 C   0  0  0  0  0  0  0  0  0  0  0  0
   -4.8957    6.2171  -15.6091 C   0  0  0  0  0  0  0  0  0  0  0  0
   -4.1008    7.1460  -15.6055 O   0  0  0  0  0  0  0  0  0  0  0  0
  1  2  1  0
  2  3  1  0
  2  4  1  0
  2  5  1  0
  5  6  1  0
  6  7  2  0
  7  8  1  0
  8  9  2  0
  9 10  1  0
 10 11  2  0
 11 12  1  0
 12 13  2  0
 11  6  1  0
M  END
>  <energy_score>  (4251) 
-20.620232

>  <alias>  (4251) 
SYQSNOPWWRGOIX-UHFFFAOYSA-N-P7-P7-P52-601529

>  <HIPPO Pose ID>  (4251) 
83339

>  <smiles>  (4251) 
CC(C)(C)Nc1nccnc1C=O

>  <inchikey>  (4251) 
SYQSNOPWWRGOIX-UHFFFAOYSA-N

>  <distance_score>  (4251) 
1.005213

>  <ref_mols>  (4251) 
Z0875a,Z0089a

>  <ref_pdb>  (4251) 
Z0719a

>  <HIPPO Compound ID>  (4251) 
144191

>  <name>  (4251) 
SYQSNOPWWRGOIX-UHFFFAOYSA-N-P7-P7-P52-601529

>  <inspiration_score>  (4251) 
None

$$$$
XCWXERZPWYYEFT-UHFFFAOYSA-N-P7-P7-P52-601529
     RDKit          3D

 13 13  0  0  0  0  0  0  0  0999 V2000
   -9.2272    4.2133  -16.6015 C   0  0  0  0  0  0  0  0  0  0  0  0
   -8.1454    5.0599  -16.2457 O   0  0  0  0  0  0  0  0  0  0  0  0
   -7.0939    5.0144  -17.1100 C   0  0  0  0  0  0  0  0  0  0  0  0
   -7.1942    4.8935  -18.4867 C   0  0  0  0  0  0  0  0  0  0  0  0
   -6.1126    4.9421  -19.3047 N   0  0  0  0  0  0  0  0  0  0  0  0
   -4.9102    5.1058  -18.7279 C   0  0  0  0  0  0  0  0  0  0  0  0
   -3.8738    5.1806  -19.6276 N   0  0  0  0  0  0  0  0  0  0  0  0
   -2.5537    5.7733  -19.4208 C   0  0  0  0  0  0  0  0  0  0  0  0
   -1.6652    4.7760  -18.6807 C   0  0  0  0  0  0  0  0  0  0  0  0
   -2.6170    7.1308  -18.7130 C   0  0  0  0  0  0  0  0  0  0  0  0
   -1.8922    6.0253  -20.7896 C   0  0  0  0  0  0  0  0  0  0  0  0
   -4.8279    5.1788  -17.3398 C   0  0  0  0  0  0  0  0  0  0  0  0
   -5.9005    5.1819  -16.5110 N   0  0  0  0  0  0  0  0  0  0  0  0
  1  2  1  0
  2  3  1  0
  3  4  2  0
  4  5  1  0
  5  6  2  0
  6  7  1  0
  7  8  1  0
  8  9  1  0
  8 10  1  0
  8 11  1  0
  6 12  1  0
 12 13  2  0
 13  3  1  0
M  END
>  <energy_score>  (4252) 
-25.42799

>  <alias>  (4252) 
XCWXERZPWYYEFT-UHFFFAOYSA-N-P7-P7-P52-601529

>  <HIPPO Pose ID>  (4252) 
83347

>  <smiles>  (4252) 
COc1cnc(NC(C)(C)C)cn1

>  <inchikey>  (4252) 
XCWXERZPWYYEFT-UHFFFAOYSA-N

>  <distance_score>  (4252) 
0.800606

>  <ref_mols>  (4252) 
Z0875a,Z0089a

>  <ref_pdb>  (4252) 
Z0719a

>  <HIPPO Compound ID>  (4252) 
144195

>  <name>  (4252) 
XCWXERZPWYYEFT-UHFFFAOYSA-N-P7-P7-P52-601529

>  <inspiration_score>  (4252) 
None

$$$$
BKUGHIQLGHYQRR-UHFFFAOYSA-N-P52-P7-P52-601529
     RDKit          3D

 13 13  0  0  0  0  0  0  0  0999 V2000
   -6.9201    6.2807  -15.5686 C   0  0  0  0  0  0  0  0  0  0  0  0
   -6.5862    5.6990  -16.8299 N   0  0  0  0  0  0  0  0  0  0  0  0
   -7.5455    5.1356  -17.6325 C   0  0  0  0  0  0  0  0  0  0  0  0
   -7.2130    4.5847  -18.8005 C   0  0  0  0  0  0  0  0  0  0  0  0
   -5.9429    4.5334  -19.2987 N   0  0  0  0  0  0  0  0  0  0  0  0
   -4.9696    4.9927  -18.5489 C   0  0  0  0  0  0  0  0  0  0  0  0
   -3.7252    4.8489  -19.1204 N   0  0  0  0  0  0  0  0  0  0  0  0
   -2.7013    5.8577  -19.3513 C   0  0  0  0  0  0  0  0  0  0  0  0
   -1.4531    5.0825  -19.8174 C   0  0  0  0  0  0  0  0  0  0  0  0
   -2.3088    6.6727  -18.1287 C   0  0  0  0  0  0  0  0  0  0  0  0
   -3.1717    6.8166  -20.4549 C   0  0  0  0  0  0  0  0  0  0  0  0
   -5.2382    5.5582  -17.1251 C   0  0  0  0  0  0  0  0  0  0  0  0
   -4.3480    5.8464  -16.3355 O   0  0  0  0  0  0  0  0  0  0  0  0
  1  2  1  0
  2  3  1  0
  3  4  2  0
  4  5  1  0
  5  6  2  0
  6  7  1  0
  7  8  1  0
  8  9  1  0
  8 10  1  0
  8 11  1  0
  6 12  1  0
 12 13  2  0
 12  2  1  0
M  END
>  <energy_score>  (4253) 
-25.347095

>  <alias>  (4253) 
BKUGHIQLGHYQRR-UHFFFAOYSA-N-P52-P7-P52-601529

>  <HIPPO Pose ID>  (4253) 
83350

>  <smiles>  (4253) 
Cn1ccnc(NC(C)(C)C)c1=O

>  <inchikey>  (4253) 
BKUGHIQLGHYQRR-UHFFFAOYSA-N

>  <distance_score>  (4253) 
1.22949

>  <ref_mols>  (4253) 
Z0875a,Z0089a

>  <ref_pdb>  (4253) 
Z0719a

>  <HIPPO Compound ID>  (4253) 
144196

>  <name>  (4253) 
BKUGHIQLGHYQRR-UHFFFAOYSA-N-P52-P7-P52-601529

>  <inspiration_score>  (4253) 
None

$$$$
CUXZDFXGWZRQFR-UHFFFAOYSA-N-P7-P7-P52-601529
     RDKit          3D

 13 13  0  0  0  0  0  0  0  0999 V2000
   -1.7457    4.7071  -18.7286 C   0  0  0  0  0  0  0  0  0  0  0  0
   -2.5761    5.7991  -19.4000 C   0  0  0  0  0  0  0  0  0  0  0  0
   -2.5552    7.1123  -18.6112 C   0  0  0  0  0  0  0  0  0  0  0  0
   -1.9172    6.0974  -20.7610 C   0  0  0  0  0  0  0  0  0  0  0  0
   -3.9332    5.3146  -19.6192 N   0  0  0  0  0  0  0  0  0  0  0  0
   -4.9557    5.1206  -18.7320 C   0  0  0  0  0  0  0  0  0  0  0  0
   -4.8828    5.1403  -17.3387 C   0  0  0  0  0  0  0  0  0  0  0  0
   -5.9467    4.9714  -16.5121 N   0  0  0  0  0  0  0  0  0  0  0  0
   -7.1123    4.7090  -17.1497 C   0  0  0  0  0  0  0  0  0  0  0  0
   -8.2757    4.4650  -16.2911 C   0  0  0  0  0  0  0  0  0  0  0  0
   -9.3971    4.2867  -16.7482 O   0  0  0  0  0  0  0  0  0  0  0  0
   -7.2154    4.6649  -18.5248 C   0  0  0  0  0  0  0  0  0  0  0  0
   -6.1397    4.8785  -19.3235 N   0  0  0  0  0  0  0  0  0  0  0  0
  1  2  1  0
  2  3  1  0
  2  4  1  0
  2  5  1  0
  5  6  1  0
  6  7  2  0
  7  8  1  0
  8  9  2  0
  9 10  1  0
 10 11  2  0
  9 12  1  0
 12 13  2  0
 13  6  1  0
M  END
>  <energy_score>  (4254) 
-27.786253

>  <alias>  (4254) 
CUXZDFXGWZRQFR-UHFFFAOYSA-N-P7-P7-P52-601529

>  <HIPPO Pose ID>  (4254) 
83355

>  <smiles>  (4254) 
CC(C)(C)Nc1cnc(C=O)cn1

>  <inchikey>  (4254) 
CUXZDFXGWZRQFR-UHFFFAOYSA-N

>  <distance_score>  (4254) 
0.757354

>  <ref_mols>  (4254) 
Z0875a,Z0089a

>  <ref_pdb>  (4254) 
Z0719a

>  <HIPPO Compound ID>  (4254) 
144199

>  <name>  (4254) 
CUXZDFXGWZRQFR-UHFFFAOYSA-N-P7-P7-P52-601529

>  <inspiration_score>  (4254) 
None

$$$$
TVRSRANXBVDUMV-UHFFFAOYSA-N-P52-P7-P52-601529
     RDKit          3D

 13 13  0  0  0  0  0  0  0  0999 V2000
   -9.7962    4.1794  -18.2463 C   0  0  0  0  0  0  0  0  0  0  0  0
   -8.6277    4.4247  -18.1315 C   0  0  0  0  0  0  0  0  0  0  0  0
   -7.3386    4.8533  -17.7047 C   0  0  0  0  0  0  0  0  0  0  0  0
   -7.2381    5.3886  -16.4311 C   0  0  0  0  0  0  0  0  0  0  0  0
   -6.0857    5.8669  -15.9360 N   0  0  0  0  0  0  0  0  0  0  0  0
   -5.0268    5.7183  -16.7673 C   0  0  0  0  0  0  0  0  0  0  0  0
   -5.0858    5.1756  -18.0544 C   0  0  0  0  0  0  0  0  0  0  0  0
   -4.0145    4.9549  -18.8806 N   0  0  0  0  0  0  0  0  0  0  0  0
   -2.6425    5.4666  -18.8866 C   0  0  0  0  0  0  0  0  0  0  0  0
   -1.7783    4.4245  -19.6179 C   0  0  0  0  0  0  0  0  0  0  0  0
   -2.6102    6.7901  -19.6553 C   0  0  0  0  0  0  0  0  0  0  0  0
   -1.9990    5.6634  -17.5094 C   0  0  0  0  0  0  0  0  0  0  0  0
   -6.2783    4.7529  -18.5430 N   0  0  0  0  0  0  0  0  0  0  0  0
  1  2  3  0
  2  3  1  0
  3  4  2  0
  4  5  1  0
  5  6  2  0
  6  7  1  0
  7  8  1  0
  8  9  1  0
  9 10  1  0
  9 11  1  0
  9 12  1  0
  7 13  2  0
 13  3  1  0
M  END
>  <energy_score>  (4255) 
-21.886478

>  <alias>  (4255) 
TVRSRANXBVDUMV-UHFFFAOYSA-N-P52-P7-P52-601529

>  <HIPPO Pose ID>  (4255) 
83362

>  <smiles>  (4255) 
C#Cc1cncc(NC(C)(C)C)n1

>  <inchikey>  (4255) 
TVRSRANXBVDUMV-UHFFFAOYSA-N

>  <distance_score>  (4255) 
1.122709

>  <ref_mols>  (4255) 
Z0875a,Z0089a

>  <ref_pdb>  (4255) 
Z0719a

>  <HIPPO Compound ID>  (4255) 
144202

>  <name>  (4255) 
TVRSRANXBVDUMV-UHFFFAOYSA-N-P52-P7-P52-601529

>  <inspiration_score>  (4255) 
None

$$$$
YHOITQATJUVYJQ-UHFFFAOYSA-N-P7-P7-P52-601529
     RDKit          3D

 13 13  0  0  0  0  0  0  0  0999 V2000
   -9.3792    4.0681  -16.7808 C   0  0  0  0  0  0  0  0  0  0  0  0
   -8.1431    4.7041  -16.1781 C   0  0  0  0  0  0  0  0  0  0  0  0
   -6.9864    4.8733  -17.1155 C   0  0  0  0  0  0  0  0  0  0  0  0
   -7.1042    4.8777  -18.4970 C   0  0  0  0  0  0  0  0  0  0  0  0
   -6.0380    5.0092  -19.3211 N   0  0  0  0  0  0  0  0  0  0  0  0
   -4.8267    5.1290  -18.7584 C   0  0  0  0  0  0  0  0  0  0  0  0
   -3.8070    5.2287  -19.6755 N   0  0  0  0  0  0  0  0  0  0  0  0
   -2.4898    5.8268  -19.4701 C   0  0  0  0  0  0  0  0  0  0  0  0
   -1.5803    4.8118  -18.7786 C   0  0  0  0  0  0  0  0  0  0  0  0
   -2.5548    7.1567  -18.7124 C   0  0  0  0  0  0  0  0  0  0  0  0
   -1.8585    6.1319  -20.8433 C   0  0  0  0  0  0  0  0  0  0  0  0
   -4.7182    5.1128  -17.3727 C   0  0  0  0  0  0  0  0  0  0  0  0
   -5.7749    5.0232  -16.5293 N   0  0  0  0  0  0  0  0  0  0  0  0
  1  2  1  0
  2  3  1  0
  3  4  2  0
  4  5  1  0
  5  6  2  0
  6  7  1  0
  7  8  1  0
  8  9  1  0
  8 10  1  0
  8 11  1  0
  6 12  1  0
 12 13  2  0
 13  3  1  0
M  END
>  <energy_score>  (4256) 
-31.784254

>  <alias>  (4256) 
YHOITQATJUVYJQ-UHFFFAOYSA-N-P7-P7-P52-601529

>  <HIPPO Pose ID>  (4256) 
83365

>  <smiles>  (4256) 
CCc1cnc(NC(C)(C)C)cn1

>  <inchikey>  (4256) 
YHOITQATJUVYJQ-UHFFFAOYSA-N

>  <distance_score>  (4256) 
0.847356

>  <ref_mols>  (4256) 
Z0875a,Z0089a

>  <ref_pdb>  (4256) 
Z0719a

>  <HIPPO Compound ID>  (4256) 
144204

>  <name>  (4256) 
YHOITQATJUVYJQ-UHFFFAOYSA-N-P7-P7-P52-601529

>  <inspiration_score>  (4256) 
None

$$$$
RAXFRWUDWKDKPV-UHFFFAOYSA-N-P7-P7-P52-601529
     RDKit          3D

 13 13  0  0  0  0  0  0  0  0999 V2000
   -4.8492    6.4866  -15.8361 C   0  0  0  0  0  0  0  0  0  0  0  0
   -5.5294    5.6833  -16.8966 C   0  0  0  0  0  0  0  0  0  0  0  0
   -6.7145    5.1528  -16.4845 N   0  0  0  0  0  0  0  0  0  0  0  0
   -7.4636    4.5453  -17.4257 C   0  0  0  0  0  0  0  0  0  0  0  0
   -7.0504    4.4518  -18.7334 C   0  0  0  0  0  0  0  0  0  0  0  0
   -5.8597    4.9380  -19.1454 N   0  0  0  0  0  0  0  0  0  0  0  0
   -5.0952    5.5684  -18.2293 C   0  0  0  0  0  0  0  0  0  0  0  0
   -4.0370    6.2203  -18.8348 N   0  0  0  0  0  0  0  0  0  0  0  0
   -2.5998    5.8523  -18.7140 C   0  0  0  0  0  0  0  0  0  0  0  0
   -2.3680    4.3985  -19.1438 C   0  0  0  0  0  0  0  0  0  0  0  0
   -1.9023    6.7748  -19.7416 C   0  0  0  0  0  0  0  0  0  0  0  0
   -2.0578    6.1231  -17.3018 C   0  0  0  0  0  0  0  0  0  0  0  0
   -0.1102    6.1598  -17.1362 Br  0  0  0  0  0  0  0  0  0  0  0  0
  1  2  1  0
  2  3  2  0
  3  4  1  0
  4  5  2  0
  5  6  1  0
  6  7  2  0
  7  8  1  0
  8  9  1  0
  9 10  1  0
  9 11  1  0
  9 12  1  0
 12 13  1  0
  7  2  1  0
M  END
>  <energy_score>  (4257) 
-27.055834

>  <alias>  (4257) 
RAXFRWUDWKDKPV-UHFFFAOYSA-N-P7-P7-P52-601529

>  <HIPPO Pose ID>  (4257) 
83367

>  <smiles>  (4257) 
Cc1nccnc1NC(C)(C)CBr

>  <inchikey>  (4257) 
RAXFRWUDWKDKPV-UHFFFAOYSA-N

>  <distance_score>  (4257) 
1.101155

>  <ref_mols>  (4257) 
Z0875a,Z0089a

>  <ref_pdb>  (4257) 
Z0719a

>  <HIPPO Compound ID>  (4257) 
144205

>  <name>  (4257) 
RAXFRWUDWKDKPV-UHFFFAOYSA-N-P7-P7-P52-601529

>  <inspiration_score>  (4257) 
None

$$$$
CYRNMCHXUGYYAV-UHFFFAOYSA-N-P7-P7-P52-601529
     RDKit          3D

 13 13  0  0  0  0  0  0  0  0999 V2000
   -9.0428    4.4004  -15.7308 C   0  0  0  0  0  0  0  0  0  0  0  0
   -8.1396    4.6843  -16.4609 C   0  0  0  0  0  0  0  0  0  0  0  0
   -7.0090    4.9331  -17.2700 C   0  0  0  0  0  0  0  0  0  0  0  0
   -7.0180    4.7486  -18.6373 C   0  0  0  0  0  0  0  0  0  0  0  0
   -5.8973    4.9042  -19.3759 N   0  0  0  0  0  0  0  0  0  0  0  0
   -4.7587    5.2069  -18.7070 C   0  0  0  0  0  0  0  0  0  0  0  0
   -3.6123    5.2957  -19.4793 N   0  0  0  0  0  0  0  0  0  0  0  0
   -3.7329    5.6372  -20.8314 O   0  0  0  0  0  0  0  0  0  0  0  0
   -2.2737    5.4491  -18.9288 C   0  0  0  0  0  0  0  0  0  0  0  0
   -1.3069    4.5620  -19.7035 C   0  0  0  0  0  0  0  0  0  0  0  0
   -1.8497    6.9130  -18.9669 C   0  0  0  0  0  0  0  0  0  0  0  0
   -4.7943    5.4102  -17.3256 C   0  0  0  0  0  0  0  0  0  0  0  0
   -5.9118    5.3031  -16.5787 N   0  0  0  0  0  0  0  0  0  0  0  0
  1  2  3  0
  2  3  1  0
  3  4  2  0
  4  5  1  0
  5  6  2  0
  6  7  1  0
  7  8  1  0
  7  9  1  0
  9 10  1  0
  9 11  1  0
  6 12  1  0
 12 13  2  0
 13  3  1  0
M  END
>  <energy_score>  (4258) 
-32.427883

>  <alias>  (4258) 
CYRNMCHXUGYYAV-UHFFFAOYSA-N-P7-P7-P52-601529

>  <HIPPO Pose ID>  (4258) 
83371

>  <smiles>  (4258) 
C#Cc1cnc(N(O)C(C)C)cn1

>  <inchikey>  (4258) 
CYRNMCHXUGYYAV-UHFFFAOYSA-N

>  <distance_score>  (4258) 
0.982371

>  <ref_mols>  (4258) 
Z0875a,Z0089a

>  <ref_pdb>  (4258) 
Z0719a

>  <HIPPO Compound ID>  (4258) 
144207

>  <name>  (4258) 
CYRNMCHXUGYYAV-UHFFFAOYSA-N-P7-P7-P52-601529

>  <inspiration_score>  (4258) 
None

$$$$
DPVPHTJZDIQNHQ-UHFFFAOYSA-N-P52-P7-P52-601529
     RDKit          3D

 13 13  0  0  0  0  0  0  0  0999 V2000
   -8.4277    4.8100  -15.9970 C   0  0  0  0  0  0  0  0  0  0  0  0
   -7.2402    4.9843  -16.8907 C   0  0  0  0  0  0  0  0  0  0  0  0
   -6.0936    5.3777  -16.2867 N   0  0  0  0  0  0  0  0  0  0  0  0
   -4.9978    5.4209  -17.0809 C   0  0  0  0  0  0  0  0  0  0  0  0
   -5.0021    5.1397  -18.4468 C   0  0  0  0  0  0  0  0  0  0  0  0
   -3.8652    5.1867  -19.2569 N   0  0  0  0  0  0  0  0  0  0  0  0
   -4.0148    5.5939  -20.5868 O   0  0  0  0  0  0  0  0  0  0  0  0
   -2.5150    5.4037  -18.7381 C   0  0  0  0  0  0  0  0  0  0  0  0
   -1.5074    4.6111  -19.5743 C   0  0  0  0  0  0  0  0  0  0  0  0
   -2.1657    6.8902  -18.7403 C   0  0  0  0  0  0  0  0  0  0  0  0
   -6.1707    4.7967  -19.0421 N   0  0  0  0  0  0  0  0  0  0  0  0
   -7.2806    4.6888  -18.2547 C   0  0  0  0  0  0  0  0  0  0  0  0
   -8.5505    4.2399  -18.9147 C   0  0  0  0  0  0  0  0  0  0  0  0
  1  2  1  0
  2  3  2  0
  3  4  1  0
  4  5  2  0
  5  6  1  0
  6  7  1  0
  6  8  1  0
  8  9  1  0
  8 10  1  0
  5 11  1  0
 11 12  2  0
 12 13  1  0
 12  2  1  0
M  END
>  <energy_score>  (4259) 
-32.267113

>  <alias>  (4259) 
DPVPHTJZDIQNHQ-UHFFFAOYSA-N-P52-P7-P52-601529

>  <HIPPO Pose ID>  (4259) 
83380

>  <smiles>  (4259) 
Cc1ncc(N(O)C(C)C)nc1C

>  <inchikey>  (4259) 
DPVPHTJZDIQNHQ-UHFFFAOYSA-N

>  <distance_score>  (4259) 
0.770255

>  <ref_mols>  (4259) 
Z0875a,Z0089a

>  <ref_pdb>  (4259) 
Z0719a

>  <HIPPO Compound ID>  (4259) 
144211

>  <name>  (4259) 
DPVPHTJZDIQNHQ-UHFFFAOYSA-N-P52-P7-P52-601529

>  <inspiration_score>  (4259) 
None

$$$$
DESQGRFKFOGKPY-UHFFFAOYSA-N-P7-P7-P52-601529
     RDKit          3D

 13 13  0  0  0  0  0  0  0  0999 V2000
   -1.9471    4.4330  -18.8751 C   0  0  0  0  0  0  0  0  0  0  0  0
   -2.5690    5.7166  -19.3921 C   0  0  0  0  0  0  0  0  0  0  0  0
   -2.2233    6.9488  -18.5709 C   0  0  0  0  0  0  0  0  0  0  0  0
   -4.0020    5.5740  -19.6257 N   0  0  0  0  0  0  0  0  0  0  0  0
   -4.3761    6.1587  -20.8471 O   0  0  0  0  0  0  0  0  0  0  0  0
   -5.0163    5.2706  -18.7320 C   0  0  0  0  0  0  0  0  0  0  0  0
   -4.9134    5.2684  -17.3439 C   0  0  0  0  0  0  0  0  0  0  0  0
   -5.9594    5.0709  -16.4936 N   0  0  0  0  0  0  0  0  0  0  0  0
   -7.1589    4.8077  -17.0765 C   0  0  0  0  0  0  0  0  0  0  0  0
   -8.3387    4.5898  -16.1628 C   0  0  0  0  0  0  0  0  0  0  0  0
   -9.5729    4.4648  -16.8630 O   0  0  0  0  0  0  0  0  0  0  0  0
   -7.2691    4.7609  -18.4564 C   0  0  0  0  0  0  0  0  0  0  0  0
   -6.2212    5.0021  -19.2857 N   0  0  0  0  0  0  0  0  0  0  0  0
  1  2  1  0
  2  3  1  0
  2  4  1  0
  4  5  1  0
  4  6  1  0
  6  7  2  0
  7  8  1  0
  8  9  2  0
  9 10  1  0
 10 11  1  0
  9 12  1  0
 12 13  2  0
 13  6  1  0
M  END
>  <energy_score>  (4260) 
-27.596073

>  <alias>  (4260) 
DESQGRFKFOGKPY-UHFFFAOYSA-N-P7-P7-P52-601529

>  <HIPPO Pose ID>  (4260) 
83385

>  <smiles>  (4260) 
CC(C)N(O)c1cnc(CO)cn1

>  <inchikey>  (4260) 
DESQGRFKFOGKPY-UHFFFAOYSA-N

>  <distance_score>  (4260) 
0.852169

>  <ref_mols>  (4260) 
Z0875a,Z0089a

>  <ref_pdb>  (4260) 
Z0719a

>  <HIPPO Compound ID>  (4260) 
144214

>  <name>  (4260) 
DESQGRFKFOGKPY-UHFFFAOYSA-N-P7-P7-P52-601529

>  <inspiration_score>  (4260) 
None

$$$$
MDYOKPFFEXUWMN-UHFFFAOYSA-N-P52-P7-P52-601529
     RDKit          3D

 13 13  0  0  0  0  0  0  0  0999 V2000
   -5.9859    4.8095  -15.3960 C   0  0  0  0  0  0  0  0  0  0  0  0
   -6.0568    4.8287  -16.8549 N   0  0  0  0  0  0  0  0  0  0  0  0
   -7.2289    4.6089  -17.4905 C   0  0  0  0  0  0  0  0  0  0  0  0
   -7.2306    4.6116  -18.8656 C   0  0  0  0  0  0  0  0  0  0  0  0
   -6.1102    4.8514  -19.5765 N   0  0  0  0  0  0  0  0  0  0  0  0
   -4.9541    5.0885  -18.9442 C   0  0  0  0  0  0  0  0  0  0  0  0
   -3.8946    5.3213  -19.7796 N   0  0  0  0  0  0  0  0  0  0  0  0
   -2.5807    5.9214  -19.5012 C   0  0  0  0  0  0  0  0  0  0  0  0
   -1.7052    4.8575  -18.8297 C   0  0  0  0  0  0  0  0  0  0  0  0
   -2.6869    7.1757  -18.6231 C   0  0  0  0  0  0  0  0  0  0  0  0
   -1.8417    6.3192  -20.8048 C   0  0  0  0  0  0  0  0  0  0  0  0
   -2.9542    7.3564  -22.0221 Br  0  0  0  0  0  0  0  0  0  0  0  0
   -4.9233    5.0444  -17.5630 C   0  0  0  0  0  0  0  0  0  0  0  0
  1  2  1  0
  2  3  2  0
  3  4  1  0
  4  5  2  0
  5  6  1  0
  6  7  1  0
  7  8  1  0
  8  9  1  0
  8 10  1  0
  8 11  1  0
 11 12  1  0
  6 13  2  0
 13  2  1  0
M  CHG  1   2   1
M  END
>  <energy_score>  (4261) 
-27.300755

>  <alias>  (4261) 
MDYOKPFFEXUWMN-UHFFFAOYSA-N-P52-P7-P52-601529

>  <HIPPO Pose ID>  (4261) 
83390

>  <smiles>  (4261) 
C[n+]1ccnc(NC(C)(C)CBr)c1

>  <inchikey>  (4261) 
MDYOKPFFEXUWMN-UHFFFAOYSA-N

>  <distance_score>  (4261) 
1.242364

>  <ref_mols>  (4261) 
Z0875a,Z0089a

>  <ref_pdb>  (4261) 
Z0719a

>  <HIPPO Compound ID>  (4261) 
144216

>  <name>  (4261) 
MDYOKPFFEXUWMN-UHFFFAOYSA-N-P52-P7-P52-601529

>  <inspiration_score>  (4261) 
None

$$$$
PEOHJQBQWPWXAV-UHFFFAOYSA-N-P7-P7-P52-601529
     RDKit          3D

 13 13  0  0  0  0  0  0  0  0999 V2000
   -1.6075    4.7014  -19.5261 C   0  0  0  0  0  0  0  0  0  0  0  0
   -2.6019    5.5887  -18.7383 C   0  0  0  0  0  0  0  0  0  0  0  0
   -2.7593    6.9319  -19.4661 C   0  0  0  0  0  0  0  0  0  0  0  0
   -2.1212    5.8037  -17.2958 C   0  0  0  0  0  0  0  0  0  0  0  0
   -0.2941    6.4937  -17.1290 Br  0  0  0  0  0  0  0  0  0  0  0  0
   -3.8747    4.8633  -18.8381 N   0  0  0  0  0  0  0  0  0  0  0  0
   -5.0819    4.9935  -18.2182 C   0  0  0  0  0  0  0  0  0  0  0  0
   -6.0788    4.6843  -19.0785 N   0  0  0  0  0  0  0  0  0  0  0  0
   -7.3324    4.5962  -18.5856 C   0  0  0  0  0  0  0  0  0  0  0  0
   -7.6074    4.8236  -17.2565 C   0  0  0  0  0  0  0  0  0  0  0  0
   -6.6547    5.2019  -16.3810 N   0  0  0  0  0  0  0  0  0  0  0  0
   -5.4046    5.2623  -16.8828 C   0  0  0  0  0  0  0  0  0  0  0  0
   -4.5351    5.5569  -15.8917 O   0  0  0  0  0  0  0  0  0  0  0  0
  1  2  1  0
  2  3  1  0
  2  4  1  0
  4  5  1  0
  2  6  1  0
  6  7  1  0
  7  8  2  0
  8  9  1  0
  9 10  2  0
 10 11  1  0
 11 12  2  0
 12 13  1  0
 12  7  1  0
M  END
>  <energy_score>  (4262) 
-31.309601

>  <alias>  (4262) 
PEOHJQBQWPWXAV-UHFFFAOYSA-N-P7-P7-P52-601529

>  <HIPPO Pose ID>  (4262) 
83393

>  <smiles>  (4262) 
CC(C)(CBr)Nc1nccnc1O

>  <inchikey>  (4262) 
PEOHJQBQWPWXAV-UHFFFAOYSA-N

>  <distance_score>  (4262) 
0.934506

>  <ref_mols>  (4262) 
Z0875a,Z0089a

>  <ref_pdb>  (4262) 
Z0719a

>  <HIPPO Compound ID>  (4262) 
144218

>  <name>  (4262) 
PEOHJQBQWPWXAV-UHFFFAOYSA-N-P7-P7-P52-601529

>  <inspiration_score>  (4262) 
None

$$$$
MTUYGPFMVGPWNE-UHFFFAOYSA-N-P7-P7-P52-601529
     RDKit          3D

 13 13  0  0  0  0  0  0  0  0999 V2000
   -8.9895    4.4488  -15.6144 C   0  0  0  0  0  0  0  0  0  0  0  0
   -8.1310    4.7412  -16.3942 C   0  0  0  0  0  0  0  0  0  0  0  0
   -7.0501    5.0197  -17.2621 C   0  0  0  0  0  0  0  0  0  0  0  0
   -6.9944    4.5269  -18.5512 C   0  0  0  0  0  0  0  0  0  0  0  0
   -5.8905    4.6718  -19.3170 N   0  0  0  0  0  0  0  0  0  0  0  0
   -4.8715    5.3565  -18.7703 C   0  0  0  0  0  0  0  0  0  0  0  0
   -3.7648    5.4921  -19.5913 N   0  0  0  0  0  0  0  0  0  0  0  0
   -2.4447    5.3695  -18.9835 C   0  0  1  0  0  0  0  0  0  0  0  0
   -1.6149    4.3587  -19.7655 C   0  0  0  0  0  0  0  0  0  0  0  0
   -1.8002    6.7666  -18.9875 C   0  0  0  0  0  0  0  0  0  0  0  0
   -0.4803    6.8259  -18.2312 C   0  0  0  0  0  0  0  0  0  0  0  0
   -4.9741    5.8943  -17.4854 C   0  0  0  0  0  0  0  0  0  0  0  0
   -6.0541    5.7343  -16.6961 N   0  0  0  0  0  0  0  0  0  0  0  0
  1  2  3  0
  2  3  1  0
  3  4  2  0
  4  5  1  0
  5  6  2  0
  6  7  1  0
  7  8  1  0
  8  9  1  6
  8 10  1  0
 10 11  1  0
  6 12  1  0
 12 13  2  0
 13  3  1  0
M  END
>  <energy_score>  (4263) 
-20.754063

>  <alias>  (4263) 
MTUYGPFMVGPWNE-UHFFFAOYSA-N-P7-P7-P52-601529

>  <HIPPO Pose ID>  (4263) 
83407

>  <smiles>  (4263) 
C#Cc1cnc(NC(C)CC)cn1

>  <inchikey>  (4263) 
MTUYGPFMVGPWNE-UHFFFAOYSA-N

>  <distance_score>  (4263) 
1.001575

>  <ref_mols>  (4263) 
Z0875a,Z0089a

>  <ref_pdb>  (4263) 
Z0719a

>  <HIPPO Compound ID>  (4263) 
144225

>  <name>  (4263) 
MTUYGPFMVGPWNE-UHFFFAOYSA-N-P7-P7-P52-601529

>  <inspiration_score>  (4263) 
None

$$$$
UNUIRYLLFPYMJC-UHFFFAOYSA-N-P7-P7-P52-601529
     RDKit          3D

 13 13  0  0  0  0  0  0  0  0999 V2000
   -9.3604    4.0781  -16.6313 C   0  0  0  0  0  0  0  0  0  0  0  0
   -8.0973    4.7098  -16.0845 C   0  0  0  0  0  0  0  0  0  0  0  0
   -6.9998    4.9355  -17.0780 C   0  0  0  0  0  0  0  0  0  0  0  0
   -7.1338    4.7098  -18.4396 C   0  0  0  0  0  0  0  0  0  0  0  0
   -6.1151    4.8806  -19.3085 N   0  0  0  0  0  0  0  0  0  0  0  0
   -4.9416    5.3002  -18.8139 C   0  0  0  0  0  0  0  0  0  0  0  0
   -4.0056    5.5074  -19.7825 N   0  0  0  0  0  0  0  0  0  0  0  0
   -2.5658    5.6131  -19.6853 C   0  0  2  0  0  0  0  0  0  0  0  0
   -1.9384    4.3819  -19.0512 C   0  0  0  0  0  0  0  0  0  0  0  0
   -2.0981    6.9171  -19.0256 C   0  0  0  0  0  0  0  0  0  0  0  0
   -2.6343    8.1631  -19.7198 C   0  0  0  0  0  0  0  0  0  0  0  0
   -4.8126    5.5247  -17.4501 C   0  0  0  0  0  0  0  0  0  0  0  0
   -5.8233    5.3679  -16.5613 N   0  0  0  0  0  0  0  0  0  0  0  0
  1  2  1  0
  2  3  1  0
  3  4  2  0
  4  5  1  0
  5  6  2  0
  6  7  1  0
  7  8  1  0
  8  9  1  1
  8 10  1  0
 10 11  1  0
  6 12  1  0
 12 13  2  0
 13  3  1  0
M  END
>  <energy_score>  (4264) 
-25.65497

>  <alias>  (4264) 
UNUIRYLLFPYMJC-UHFFFAOYSA-N-P7-P7-P52-601529

>  <HIPPO Pose ID>  (4264) 
83409

>  <smiles>  (4264) 
CCc1cnc(NC(C)CC)cn1

>  <inchikey>  (4264) 
UNUIRYLLFPYMJC-UHFFFAOYSA-N

>  <distance_score>  (4264) 
0.764133

>  <ref_mols>  (4264) 
Z0875a,Z0089a

>  <ref_pdb>  (4264) 
Z0719a

>  <HIPPO Compound ID>  (4264) 
144226

>  <name>  (4264) 
UNUIRYLLFPYMJC-UHFFFAOYSA-N-P7-P7-P52-601529

>  <inspiration_score>  (4264) 
None

$$$$
AILSACLGJCMPBZ-UHFFFAOYSA-N-P52-P7-P52-601529
     RDKit          3D

 13 13  0  0  0  0  0  0  0  0999 V2000
   -0.3100    5.3227  -19.2159 C   0  0  0  0  0  0  0  0  0  0  0  0
   -1.6863    4.7707  -19.5729 C   0  0  0  0  0  0  0  0  0  0  0  0
   -2.8215    5.6366  -19.0049 C   0  0  1  0  0  0  0  0  0  0  0  0
   -2.8785    7.0175  -19.6476 C   0  0  0  0  0  0  0  0  0  0  0  0
   -4.0926    4.9537  -19.1988 N   0  0  0  0  0  0  0  0  0  0  0  0
   -5.1425    5.0503  -18.3037 C   0  0  0  0  0  0  0  0  0  0  0  0
   -4.9982    5.4024  -16.9537 C   0  0  0  0  0  0  0  0  0  0  0  0
   -6.0202    5.4804  -16.0694 N   0  0  0  0  0  0  0  0  0  0  0  0
   -7.2130    5.1045  -16.5681 C   0  0  0  0  0  0  0  0  0  0  0  0
   -7.3830    4.7292  -17.8909 C   0  0  0  0  0  0  0  0  0  0  0  0
   -8.6902    4.3196  -18.2922 C   0  0  0  0  0  0  0  0  0  0  0  0
   -9.8040    4.0132  -18.4033 N   0  0  0  0  0  0  0  0  0  0  0  0
   -6.3599    4.7173  -18.7865 N   0  0  0  0  0  0  0  0  0  0  0  0
  1  2  1  0
  2  3  1  0
  3  4  1  6
  3  5  1  0
  5  6  1  0
  6  7  2  0
  7  8  1  0
  8  9  2  0
  9 10  1  0
 10 11  1  0
 11 12  3  0
 10 13  2  0
 13  6  1  0
M  END
>  <energy_score>  (4265) 
-17.307816

>  <alias>  (4265) 
AILSACLGJCMPBZ-UHFFFAOYSA-N-P52-P7-P52-601529

>  <HIPPO Pose ID>  (4265) 
83412

>  <smiles>  (4265) 
CCC(C)Nc1cncc(C#N)n1

>  <inchikey>  (4265) 
AILSACLGJCMPBZ-UHFFFAOYSA-N

>  <distance_score>  (4265) 
0.798375

>  <ref_mols>  (4265) 
Z0875a,Z0089a

>  <ref_pdb>  (4265) 
Z0719a

>  <HIPPO Compound ID>  (4265) 
144227

>  <name>  (4265) 
AILSACLGJCMPBZ-UHFFFAOYSA-N-P52-P7-P52-601529

>  <inspiration_score>  (4265) 
None

$$$$
MKXOKPMMBPOSTI-UHFFFAOYSA-N-P7-P7-P52-601529
     RDKit          3D

 13 13  0  0  0  0  0  0  0  0999 V2000
   -1.7847    3.6053  -19.5394 C   0  0  0  0  0  0  0  0  0  0  0  0
   -1.6269    5.1026  -19.4024 C   0  0  0  0  0  0  0  0  0  0  0  0
   -2.6915    5.7666  -18.5101 C   0  0  1  0  0  0  0  0  0  0  0  0
   -2.5075    7.2793  -18.5980 C   0  0  0  0  0  0  0  0  0  0  0  0
   -4.0180    5.4266  -18.9588 N   0  0  0  0  0  0  0  0  0  0  0  0
   -5.1796    5.2476  -18.2784 C   0  0  0  0  0  0  0  0  0  0  0  0
   -6.1174    4.7928  -19.1484 N   0  0  0  0  0  0  0  0  0  0  0  0
   -7.3543    4.5135  -18.6872 C   0  0  0  0  0  0  0  0  0  0  0  0
   -7.6820    4.6694  -17.3645 C   0  0  0  0  0  0  0  0  0  0  0  0
   -6.7957    5.1372  -16.4647 N   0  0  0  0  0  0  0  0  0  0  0  0
   -5.5369    5.4197  -16.9304 C   0  0  0  0  0  0  0  0  0  0  0  0
   -4.7163    5.9424  -15.7968 C   0  0  0  0  0  0  0  0  0  0  0  0
   -3.6867    6.5995  -15.8457 O   0  0  0  0  0  0  0  0  0  0  0  0
  1  2  1  0
  2  3  1  0
  3  4  1  6
  3  5  1  0
  5  6  1  0
  6  7  2  0
  7  8  1  0
  8  9  2  0
  9 10  1  0
 10 11  2  0
 11 12  1  0
 12 13  2  0
 11  6  1  0
M  END
>  <energy_score>  (4266) 
-12.335856

>  <alias>  (4266) 
MKXOKPMMBPOSTI-UHFFFAOYSA-N-P7-P7-P52-601529

>  <HIPPO Pose ID>  (4266) 
83413

>  <smiles>  (4266) 
CCC(C)Nc1nccnc1C=O

>  <inchikey>  (4266) 
MKXOKPMMBPOSTI-UHFFFAOYSA-N

>  <distance_score>  (4266) 
0.945042

>  <ref_mols>  (4266) 
Z0875a,Z0089a

>  <ref_pdb>  (4266) 
Z0719a

>  <HIPPO Compound ID>  (4266) 
144228

>  <name>  (4266) 
MKXOKPMMBPOSTI-UHFFFAOYSA-N-P7-P7-P52-601529

>  <inspiration_score>  (4266) 
None

$$$$
GPNVUVQMRREYFD-UHFFFAOYSA-N-P52-P7-P52-601529
     RDKit          3D

 13 13  0  0  0  0  0  0  0  0999 V2000
   -0.3041    5.3404  -19.1963 C   0  0  0  0  0  0  0  0  0  0  0  0
   -1.6745    4.7830  -19.5667 C   0  0  0  0  0  0  0  0  0  0  0  0
   -2.8220    5.6117  -18.9662 C   0  0  1  0  0  0  0  0  0  0  0  0
   -2.8960    7.0136  -19.5607 C   0  0  0  0  0  0  0  0  0  0  0  0
   -4.0776    4.9134  -19.1865 N   0  0  0  0  0  0  0  0  0  0  0  0
   -5.1660    5.0358  -18.3393 C   0  0  0  0  0  0  0  0  0  0  0  0
   -5.0873    5.4221  -16.9986 C   0  0  0  0  0  0  0  0  0  0  0  0
   -6.1538    5.5287  -16.1763 N   0  0  0  0  0  0  0  0  0  0  0  0
   -7.3227    5.1444  -16.7355 C   0  0  0  0  0  0  0  0  0  0  0  0
   -7.4399    4.7228  -18.0556 C   0  0  0  0  0  0  0  0  0  0  0  0
   -8.6044    4.3044  -18.6413 O   0  0  0  0  0  0  0  0  0  0  0  0
   -9.7301    4.2117  -17.7806 C   0  0  0  0  0  0  0  0  0  0  0  0
   -6.3571    4.6923  -18.8712 N   0  0  0  0  0  0  0  0  0  0  0  0
  1  2  1  0
  2  3  1  0
  3  4  1  6
  3  5  1  0
  5  6  1  0
  6  7  2  0
  7  8  1  0
  8  9  2  0
  9 10  1  0
 10 11  1  0
 11 12  1  0
 10 13  2  0
 13  6  1  0
M  END
>  <energy_score>  (4267) 
-24.386983

>  <alias>  (4267) 
GPNVUVQMRREYFD-UHFFFAOYSA-N-P52-P7-P52-601529

>  <HIPPO Pose ID>  (4267) 
83420

>  <smiles>  (4267) 
CCC(C)Nc1cncc(OC)n1

>  <inchikey>  (4267) 
GPNVUVQMRREYFD-UHFFFAOYSA-N

>  <distance_score>  (4267) 
0.76339

>  <ref_mols>  (4267) 
Z0875a,Z0089a

>  <ref_pdb>  (4267) 
Z0719a

>  <HIPPO Compound ID>  (4267) 
144231

>  <name>  (4267) 
GPNVUVQMRREYFD-UHFFFAOYSA-N-P52-P7-P52-601529

>  <inspiration_score>  (4267) 
None

$$$$
GNJSDHUDCNHYDD-UHFFFAOYSA-N-P7-P7-P52-601529
     RDKit          3D

 13 13  0  0  0  0  0  0  0  0999 V2000
   -1.4041    5.5889  -20.7655 C   0  0  0  0  0  0  0  0  0  0  0  0
   -1.8730    4.7472  -19.5818 C   0  0  0  0  0  0  0  0  0  0  0  0
   -2.6992    5.5227  -18.5342 C   0  0  1  0  0  0  0  0  0  0  0  0
   -2.0510    6.8705  -18.2148 C   0  0  0  0  0  0  0  0  0  0  0  0
   -4.0501    5.7720  -19.0284 N   0  0  0  0  0  0  0  0  0  0  0  0
   -5.1765    5.3629  -18.3373 C   0  0  0  0  0  0  0  0  0  0  0  0
   -6.0864    4.8205  -19.1771 N   0  0  0  0  0  0  0  0  0  0  0  0
   -7.2901    4.4766  -18.6672 C   0  0  0  0  0  0  0  0  0  0  0  0
   -7.5917    4.6427  -17.3343 C   0  0  0  0  0  0  0  0  0  0  0  0
   -6.7118    5.1788  -16.4630 N   0  0  0  0  0  0  0  0  0  0  0  0
   -5.4976    5.5293  -16.9790 C   0  0  0  0  0  0  0  0  0  0  0  0
   -4.6422    6.1427  -16.0026 C   0  0  0  0  0  0  0  0  0  0  0  0
   -3.9583    6.6359  -15.1993 N   0  0  0  0  0  0  0  0  0  0  0  0
  1  2  1  0
  2  3  1  0
  3  4  1  6
  3  5  1  0
  5  6  1  0
  6  7  2  0
  7  8  1  0
  8  9  2  0
  9 10  1  0
 10 11  2  0
 11 12  1  0
 12 13  3  0
 11  6  1  0
M  END
>  <energy_score>  (4268) 
-22.851336

>  <alias>  (4268) 
GNJSDHUDCNHYDD-UHFFFAOYSA-N-P7-P7-P52-601529

>  <HIPPO Pose ID>  (4268) 
83425

>  <smiles>  (4268) 
CCC(C)Nc1nccnc1C#N

>  <inchikey>  (4268) 
GNJSDHUDCNHYDD-UHFFFAOYSA-N

>  <distance_score>  (4268) 
0.873255

>  <ref_mols>  (4268) 
Z0875a,Z0089a

>  <ref_pdb>  (4268) 
Z0719a

>  <HIPPO Compound ID>  (4268) 
144234

>  <name>  (4268) 
GNJSDHUDCNHYDD-UHFFFAOYSA-N-P7-P7-P52-601529

>  <inspiration_score>  (4268) 
None

$$$$
CLZRZVMCUKDNSQ-UHFFFAOYSA-N-P52-P7-P52-601529
     RDKit          3D

 13 14  0  0  0  0  0  0  0  0999 V2000
   -8.9825    5.2610  -15.0030 C   0  0  0  0  0  0  0  0  0  0  0  0
   -8.4034    5.0006  -16.3285 C   0  0  0  0  0  0  0  0  0  0  0  0
   -9.0911    4.3693  -17.3512 C   0  0  0  0  0  0  0  0  0  0  0  0
   -8.5141    4.1166  -18.5392 N   0  0  0  0  0  0  0  0  0  0  0  0
   -7.2192    4.5257  -18.6474 C   0  0  0  0  0  0  0  0  0  0  0  0
   -6.5243    5.1649  -17.6184 C   0  0  0  0  0  0  0  0  0  0  0  0
   -5.1520    5.4697  -17.7103 N   0  0  0  0  0  0  0  0  0  0  0  0
   -4.5617    6.4200  -16.7266 C   0  0  2  0  0  0  0  0  0  0  0  0
   -4.7257    7.8636  -17.1546 C   0  0  0  0  0  0  0  0  0  0  0  0
   -3.2233    6.0753  -16.1025 C   0  0  0  0  0  0  0  0  0  0  0  0
   -4.4358    6.1545  -15.2265 C   0  0  2  0  0  0  0  0  0  0  0  0
   -4.8920    4.9237  -14.5216 C   0  0  0  0  0  0  0  0  0  0  0  0
   -7.1498    5.4558  -16.4738 N   0  0  0  0  0  0  0  0  0  0  0  0
  1  2  1  0
  2  3  2  0
  3  4  1  0
  4  5  2  0
  5  6  1  0
  6  7  1  0
  7  8  1  0
  8  9  1  1
  8 10  1  0
 10 11  1  0
 11 12  1  6
  6 13  2  0
 13  2  1  0
 11  8  1  0
M  END
>  <energy_score>  (4269) 
-7.490834

>  <alias>  (4269) 
CLZRZVMCUKDNSQ-UHFFFAOYSA-N-P52-P7-P52-601529

>  <HIPPO Pose ID>  (4269) 
83434

>  <smiles>  (4269) 
Cc1cncc(NC2(C)CC2C)n1

>  <inchikey>  (4269) 
CLZRZVMCUKDNSQ-UHFFFAOYSA-N

>  <distance_score>  (4269) 
1.495121

>  <ref_mols>  (4269) 
Z0875a,Z0089a

>  <ref_pdb>  (4269) 
Z0719a

>  <HIPPO Compound ID>  (4269) 
144238

>  <name>  (4269) 
CLZRZVMCUKDNSQ-UHFFFAOYSA-N-P52-P7-P52-601529

>  <inspiration_score>  (4269) 
None

$$$$
LFOGJDSRIRFTIR-UHFFFAOYSA-N-P7-P7-P52-601529
     RDKit          3D

 13 13  0  0  0  0  0  0  0  0999 V2000
   -9.3249    4.2030  -16.5764 C   0  0  0  0  0  0  0  0  0  0  0  0
   -8.2948    5.1040  -16.2033 O   0  0  0  0  0  0  0  0  0  0  0  0
   -7.2080    5.0616  -17.0206 C   0  0  0  0  0  0  0  0  0  0  0  0
   -7.2466    4.8516  -18.3921 C   0  0  0  0  0  0  0  0  0  0  0  0
   -6.1297    4.8333  -19.1559 N   0  0  0  0  0  0  0  0  0  0  0  0
   -4.9632    5.0354  -18.5224 C   0  0  0  0  0  0  0  0  0  0  0  0
   -3.8720    4.9545  -19.3439 N   0  0  0  0  0  0  0  0  0  0  0  0
   -2.5340    5.3987  -19.0075 C   0  0  1  0  0  0  0  0  0  0  0  0
   -1.5606    4.3969  -19.6301 C   0  0  0  0  0  0  0  0  0  0  0  0
   -2.2441    6.8113  -19.5423 C   0  0  0  0  0  0  0  0  0  0  0  0
   -3.0927    8.1343  -18.6190 S   0  0  0  0  0  0  0  0  0  0  0  0
   -4.9423    5.2541  -17.1467 C   0  0  0  0  0  0  0  0  0  0  0  0
   -6.0508    5.2999  -16.3750 N   0  0  0  0  0  0  0  0  0  0  0  0
  1  2  1  0
  2  3  1  0
  3  4  2  0
  4  5  1  0
  5  6  2  0
  6  7  1  0
  7  8  1  0
  8  9  1  6
  8 10  1  0
 10 11  1  0
  6 12  1  0
 12 13  2  0
 13  3  1  0
M  END
>  <energy_score>  (4270) 
-33.563181

>  <alias>  (4270) 
LFOGJDSRIRFTIR-UHFFFAOYSA-N-P7-P7-P52-601529

>  <HIPPO Pose ID>  (4270) 
83437

>  <smiles>  (4270) 
COc1cnc(NC(C)CS)cn1

>  <inchikey>  (4270) 
LFOGJDSRIRFTIR-UHFFFAOYSA-N

>  <distance_score>  (4270) 
0.714058

>  <ref_mols>  (4270) 
Z0875a,Z0089a

>  <ref_pdb>  (4270) 
Z0719a

>  <HIPPO Compound ID>  (4270) 
144240

>  <name>  (4270) 
LFOGJDSRIRFTIR-UHFFFAOYSA-N-P7-P7-P52-601529

>  <inspiration_score>  (4270) 
None

$$$$
CTPPVOAOPWKRTQ-UHFFFAOYSA-N-P52-P7-P52-601529
     RDKit          3D

 13 13  0  0  0  0  0  0  0  0999 V2000
   -1.5427    4.5453  -19.5976 C   0  0  0  0  0  0  0  0  0  0  0  0
   -2.5876    5.3787  -18.8497 C   0  0  1  0  0  0  0  0  0  0  0  0
   -2.3969    6.8926  -19.0580 C   0  0  0  0  0  0  0  0  0  0  0  0
   -0.8234    7.5590  -18.4219 S   0  0  0  0  0  0  0  0  0  0  0  0
   -3.8935    4.9871  -19.3372 N   0  0  0  0  0  0  0  0  0  0  0  0
   -5.0945    4.9958  -18.6714 C   0  0  0  0  0  0  0  0  0  0  0  0
   -6.1065    4.5152  -19.3479 N   0  0  0  0  0  0  0  0  0  0  0  0
   -7.3351    4.5195  -18.7505 C   0  0  0  0  0  0  0  0  0  0  0  0
   -7.5955    5.0519  -17.5550 C   0  0  0  0  0  0  0  0  0  0  0  0
   -6.5961    5.6420  -16.8237 N   0  0  0  0  0  0  0  0  0  0  0  0
   -6.8596    6.2612  -15.5629 C   0  0  0  0  0  0  0  0  0  0  0  0
   -5.2752    5.5705  -17.2333 C   0  0  0  0  0  0  0  0  0  0  0  0
   -4.3346    5.9660  -16.5548 O   0  0  0  0  0  0  0  0  0  0  0  0
  2  1  1  6
  2  3  1  0
  3  4  1  0
  2  5  1  0
  5  6  1  0
  6  7  2  0
  7  8  1  0
  8  9  2  0
  9 10  1  0
 10 11  1  0
 10 12  1  0
 12 13  2  0
 12  6  1  0
M  END
>  <energy_score>  (4271) 
-19.391736

>  <alias>  (4271) 
CTPPVOAOPWKRTQ-UHFFFAOYSA-N-P52-P7-P52-601529

>  <HIPPO Pose ID>  (4271) 
83440

>  <smiles>  (4271) 
CC(CS)Nc1nccn(C)c1=O

>  <inchikey>  (4271) 
CTPPVOAOPWKRTQ-UHFFFAOYSA-N

>  <distance_score>  (4271) 
1.139061

>  <ref_mols>  (4271) 
Z0875a,Z0089a

>  <ref_pdb>  (4271) 
Z0719a

>  <HIPPO Compound ID>  (4271) 
144241

>  <name>  (4271) 
CTPPVOAOPWKRTQ-UHFFFAOYSA-N-P52-P7-P52-601529

>  <inspiration_score>  (4271) 
None

$$$$
IAAFDIUCBGBZIC-UHFFFAOYSA-N-P7-P7-P52-601529
     RDKit          3D

 13 13  0  0  0  0  0  0  0  0999 V2000
   -1.7882    4.4121  -19.6460 C   0  0  0  0  0  0  0  0  0  0  0  0
   -2.6622    5.3338  -18.7957 C   0  0  1  0  0  0  0  0  0  0  0  0
   -2.0921    6.7676  -18.7560 C   0  0  0  0  0  0  0  0  0  0  0  0
   -0.5734    6.9174  -17.7578 S   0  0  0  0  0  0  0  0  0  0  0  0
   -4.0105    5.3972  -19.3584 N   0  0  0  0  0  0  0  0  0  0  0  0
   -5.1117    5.2376  -18.5317 C   0  0  0  0  0  0  0  0  0  0  0  0
   -5.2053    5.7065  -17.2212 C   0  0  0  0  0  0  0  0  0  0  0  0
   -6.2991    5.5527  -16.4362 N   0  0  0  0  0  0  0  0  0  0  0  0
   -7.3424    4.8994  -17.0134 C   0  0  0  0  0  0  0  0  0  0  0  0
   -8.5427    4.6225  -16.1484 C   0  0  0  0  0  0  0  0  0  0  0  0
   -9.7388    4.4764  -16.9055 O   0  0  0  0  0  0  0  0  0  0  0  0
   -7.2672    4.4630  -18.3299 C   0  0  0  0  0  0  0  0  0  0  0  0
   -6.1576    4.6186  -19.0976 N   0  0  0  0  0  0  0  0  0  0  0  0
  2  1  1  6
  2  3  1  0
  3  4  1  0
  2  5  1  0
  5  6  1  0
  6  7  2  0
  7  8  1  0
  8  9  2  0
  9 10  1  0
 10 11  1  0
  9 12  1  0
 12 13  2  0
 13  6  1  0
M  END
>  <energy_score>  (4272) 
-37.044076

>  <alias>  (4272) 
IAAFDIUCBGBZIC-UHFFFAOYSA-N-P7-P7-P52-601529

>  <HIPPO Pose ID>  (4272) 
83443

>  <smiles>  (4272) 
CC(CS)Nc1cnc(CO)cn1

>  <inchikey>  (4272) 
IAAFDIUCBGBZIC-UHFFFAOYSA-N

>  <distance_score>  (4272) 
0.859411

>  <ref_mols>  (4272) 
Z0875a,Z0089a

>  <ref_pdb>  (4272) 
Z0719a

>  <HIPPO Compound ID>  (4272) 
144243

>  <name>  (4272) 
IAAFDIUCBGBZIC-UHFFFAOYSA-N-P7-P7-P52-601529

>  <inspiration_score>  (4272) 
None

$$$$
CRYOLUVEXCFAGV-UHFFFAOYSA-N-P7-P7-P52-601529
     RDKit          3D

 13 13  0  0  0  0  0  0  0  0999 V2000
   -4.8407    5.6924  -14.6900 C   0  0  0  0  0  0  0  0  0  0  0  0
   -4.5621    5.8894  -16.0805 O   0  0  0  0  0  0  0  0  0  0  0  0
   -5.5397    5.3656  -16.9056 C   0  0  0  0  0  0  0  0  0  0  0  0
   -6.7287    5.0628  -16.3224 N   0  0  0  0  0  0  0  0  0  0  0  0
   -7.6909    4.5951  -17.1453 C   0  0  0  0  0  0  0  0  0  0  0  0
   -7.4956    4.4525  -18.5005 C   0  0  0  0  0  0  0  0  0  0  0  0
   -6.3218    4.7606  -19.0866 N   0  0  0  0  0  0  0  0  0  0  0  0
   -5.3324    5.2349  -18.2967 C   0  0  0  0  0  0  0  0  0  0  0  0
   -4.2624    5.6236  -19.0615 N   0  0  0  0  0  0  0  0  0  0  0  0
   -2.8594    5.5693  -18.6887 C   0  0  1  0  0  0  0  0  0  0  0  0
   -2.2327    4.2504  -19.1373 C   0  0  0  0  0  0  0  0  0  0  0  0
   -2.1339    6.7739  -19.3288 C   0  0  0  0  0  0  0  0  0  0  0  0
   -2.3204    6.8778  -21.1517 S   0  0  0  0  0  0  0  0  0  0  0  0
  1  2  1  0
  2  3  1  0
  3  4  2  0
  4  5  1  0
  5  6  2  0
  6  7  1  0
  7  8  2  0
  8  9  1  0
  9 10  1  0
 10 11  1  6
 10 12  1  0
 12 13  1  0
  8  3  1  0
M  END
>  <energy_score>  (4273) 
-117.183246

>  <alias>  (4273) 
CRYOLUVEXCFAGV-UHFFFAOYSA-N-P7-P7-P52-601529

>  <HIPPO Pose ID>  (4273) 
83447

>  <smiles>  (4273) 
COc1nccnc1NC(C)CS

>  <inchikey>  (4273) 
CRYOLUVEXCFAGV-UHFFFAOYSA-N

>  <distance_score>  (4273) 
0.901246

>  <ref_mols>  (4273) 
Z0875a,Z0089a

>  <ref_pdb>  (4273) 
Z0719a

>  <HIPPO Compound ID>  (4273) 
144245

>  <name>  (4273) 
CRYOLUVEXCFAGV-UHFFFAOYSA-N-P7-P7-P52-601529

>  <inspiration_score>  (4273) 
None

$$$$
HWRMHKDSWRQIMI-UHFFFAOYSA-N-P7-P7-P52-601529
     RDKit          3D

 13 13  0  0  0  0  0  0  0  0999 V2000
   -9.3595    4.0720  -16.6700 C   0  0  0  0  0  0  0  0  0  0  0  0
   -8.0915    4.6796  -16.1070 C   0  0  0  0  0  0  0  0  0  0  0  0
   -6.9948    4.9435  -17.0925 C   0  0  0  0  0  0  0  0  0  0  0  0
   -7.0763    4.6380  -18.4426 C   0  0  0  0  0  0  0  0  0  0  0  0
   -6.0514    4.8400  -19.2998 N   0  0  0  0  0  0  0  0  0  0  0  0
   -4.9262    5.3740  -18.8018 C   0  0  0  0  0  0  0  0  0  0  0  0
   -3.9900    5.6330  -19.7671 N   0  0  0  0  0  0  0  0  0  0  0  0
   -2.5391    5.6409  -19.6188 C   0  0  2  0  0  0  0  0  0  0  0  0
   -1.9915    4.3043  -19.1453 C   0  0  0  0  0  0  0  0  0  0  0  0
   -2.0180    6.9165  -18.9180 C   0  0  0  0  0  0  0  0  0  0  0  0
   -1.2314    6.7360  -17.2805 S   0  0  0  0  0  0  0  0  0  0  0  0
   -4.8487    5.6793  -17.4504 C   0  0  0  0  0  0  0  0  0  0  0  0
   -5.8663    5.4886  -16.5763 N   0  0  0  0  0  0  0  0  0  0  0  0
  1  2  1  0
  2  3  1  0
  3  4  2  0
  4  5  1  0
  5  6  2  0
  6  7  1  0
  7  8  1  0
  8  9  1  1
  8 10  1  0
 10 11  1  0
  6 12  1  0
 12 13  2  0
 13  3  1  0
M  END
>  <energy_score>  (4274) 
-33.676275

>  <alias>  (4274) 
HWRMHKDSWRQIMI-UHFFFAOYSA-N-P7-P7-P52-601529

>  <HIPPO Pose ID>  (4274) 
83455

>  <smiles>  (4274) 
CCc1cnc(NC(C)CS)cn1

>  <inchikey>  (4274) 
HWRMHKDSWRQIMI-UHFFFAOYSA-N

>  <distance_score>  (4274) 
0.746647

>  <ref_mols>  (4274) 
Z0875a,Z0089a

>  <ref_pdb>  (4274) 
Z0719a

>  <HIPPO Compound ID>  (4274) 
144249

>  <name>  (4274) 
HWRMHKDSWRQIMI-UHFFFAOYSA-N-P7-P7-P52-601529

>  <inspiration_score>  (4274) 
None

$$$$
DZRRDRFVCVUMSM-UHFFFAOYSA-N-P7-P7-P52-601529
     RDKit          3D

 13 13  0  0  0  0  0  0  0  0999 V2000
   -1.5771    4.5543  -19.2052 C   0  0  0  0  0  0  0  0  0  0  0  0
   -2.4766    5.6573  -19.7487 C   0  0  2  0  0  0  0  0  0  0  0  0
   -2.3673    6.9994  -19.0068 C   0  0  0  0  0  0  0  0  0  0  0  0
   -0.7735    7.8414  -19.2788 S   0  0  0  0  0  0  0  0  0  0  0  0
   -3.8401    5.1641  -19.8373 N   0  0  0  0  0  0  0  0  0  0  0  0
   -4.7822    5.1217  -18.8516 C   0  0  0  0  0  0  0  0  0  0  0  0
   -4.5836    5.0456  -17.4801 C   0  0  0  0  0  0  0  0  0  0  0  0
   -5.5928    4.9940  -16.5781 N   0  0  0  0  0  0  0  0  0  0  0  0
   -6.8457    4.9335  -17.0964 C   0  0  0  0  0  0  0  0  0  0  0  0
   -7.9535    4.8030  -16.1058 C   0  0  0  0  0  0  0  0  0  0  0  0
   -9.5453    4.0343  -16.8723 Br  0  0  0  0  0  0  0  0  0  0  0  0
   -7.0419    5.0314  -18.4665 C   0  0  0  0  0  0  0  0  0  0  0  0
   -6.0246    5.1385  -19.3423 N   0  0  0  0  0  0  0  0  0  0  0  0
  2  1  1  1
  2  3  1  0
  3  4  1  0
  2  5  1  0
  5  6  1  0
  6  7  2  0
  7  8  1  0
  8  9  2  0
  9 10  1  0
 10 11  1  0
  9 12  1  0
 12 13  2  0
 13  6  1  0
M  END
>  <energy_score>  (4275) 
-26.277673

>  <alias>  (4275) 
DZRRDRFVCVUMSM-UHFFFAOYSA-N-P7-P7-P52-601529

>  <HIPPO Pose ID>  (4275) 
83461

>  <smiles>  (4275) 
CC(CS)Nc1cnc(CBr)cn1

>  <inchikey>  (4275) 
DZRRDRFVCVUMSM-UHFFFAOYSA-N

>  <distance_score>  (4275) 
0.860453

>  <ref_mols>  (4275) 
Z0875a,Z0089a

>  <ref_pdb>  (4275) 
Z0719a

>  <HIPPO Compound ID>  (4275) 
144252

>  <name>  (4275) 
DZRRDRFVCVUMSM-UHFFFAOYSA-N-P7-P7-P52-601529

>  <inspiration_score>  (4275) 
None

$$$$
DPRAUGLYRLIIMT-UHFFFAOYSA-N-P52-P7-P52-601529
     RDKit          3D

 13 13  0  0  0  0  0  0  0  0999 V2000
   -1.4091    4.1549  -20.1100 C   0  0  0  0  0  0  0  0  0  0  0  0
   -2.3536    4.6874  -19.3308 C   0  0  0  0  0  0  0  0  0  0  0  0
   -2.9644    6.0621  -19.4169 C   0  0  0  0  0  0  0  0  0  0  0  0
   -2.4540    6.9335  -18.2660 C   0  0  0  0  0  0  0  0  0  0  0  0
   -2.6227    6.8380  -20.7124 C   0  0  0  0  0  0  0  0  0  0  0  0
   -4.4077    5.8891  -19.4275 N   0  0  0  0  0  0  0  0  0  0  0  0
   -5.2750    5.4346  -18.4755 C   0  0  0  0  0  0  0  0  0  0  0  0
   -5.0928    5.4388  -17.0977 C   0  0  0  0  0  0  0  0  0  0  0  0
   -6.0342    5.0469  -16.2053 N   0  0  0  0  0  0  0  0  0  0  0  0
   -7.2029    4.6483  -16.7487 C   0  0  0  0  0  0  0  0  0  0  0  0
   -7.4177    4.6247  -18.1157 C   0  0  0  0  0  0  0  0  0  0  0  0
   -8.7462    4.2368  -18.6787 C   0  0  0  0  0  0  0  0  0  0  0  0
   -6.4490    5.0109  -18.9810 N   0  0  0  0  0  0  0  0  0  0  0  0
  1  2  2  0
  2  3  1  0
  3  4  1  0
  3  5  1  0
  3  6  1  0
  6  7  1  0
  7  8  2  0
  8  9  1  0
  9 10  2  0
 10 11  1  0
 11 12  1  0
 11 13  2  0
 13  7  1  0
M  END
>  <energy_score>  (4276) 
-25.859578

>  <alias>  (4276) 
DPRAUGLYRLIIMT-UHFFFAOYSA-N-P52-P7-P52-601529

>  <HIPPO Pose ID>  (4276) 
83466

>  <smiles>  (4276) 
C=CC(C)(C)Nc1cncc(C)n1

>  <inchikey>  (4276) 
DPRAUGLYRLIIMT-UHFFFAOYSA-N

>  <distance_score>  (4276) 
1.001779

>  <ref_mols>  (4276) 
Z0875a,Z0089a

>  <ref_pdb>  (4276) 
Z0719a

>  <HIPPO Compound ID>  (4276) 
144254

>  <name>  (4276) 
DPRAUGLYRLIIMT-UHFFFAOYSA-N-P52-P7-P52-601529

>  <inspiration_score>  (4276) 
None

$$$$
CNQKTKUFDRGMCG-UHFFFAOYSA-N-P52-P7-P52-601529
     RDKit          3D

 13 13  0  0  0  0  0  0  0  0999 V2000
   -1.1312    5.5248  -20.8367 C   0  0  0  0  0  0  0  0  0  0  0  0
   -1.8476    4.9684  -19.8474 C   0  0  0  0  0  0  0  0  0  0  0  0
   -2.8302    5.6608  -18.9102 C   0  0  0  0  0  0  0  0  0  0  0  0
   -3.0597    7.1382  -19.2520 C   0  0  0  0  0  0  0  0  0  0  0  0
   -2.2250    5.5574  -17.5058 C   0  0  0  0  0  0  0  0  0  0  0  0
   -4.0716    4.9142  -19.0909 N   0  0  0  0  0  0  0  0  0  0  0  0
   -5.2268    5.0069  -18.3443 C   0  0  0  0  0  0  0  0  0  0  0  0
   -5.3081    5.1441  -16.9557 C   0  0  0  0  0  0  0  0  0  0  0  0
   -6.4701    5.1554  -16.2526 N   0  0  0  0  0  0  0  0  0  0  0  0
   -7.5741    4.9329  -16.9933 C   0  0  0  0  0  0  0  0  0  0  0  0
   -7.5068    4.7960  -18.3625 C   0  0  0  0  0  0  0  0  0  0  0  0
   -8.6359    4.6550  -19.1020 O   0  0  0  0  0  0  0  0  0  0  0  0
   -6.3588    4.8550  -19.0642 N   0  0  0  0  0  0  0  0  0  0  0  0
  1  2  2  0
  2  3  1  0
  3  4  1  0
  3  5  1  0
  3  6  1  0
  6  7  1  0
  7  8  2  0
  8  9  1  0
  9 10  2  0
 10 11  1  0
 11 12  1  0
 11 13  2  0
 13  7  1  0
M  END
>  <energy_score>  (4277) 
-43.831186

>  <alias>  (4277) 
CNQKTKUFDRGMCG-UHFFFAOYSA-N-P52-P7-P52-601529

>  <HIPPO Pose ID>  (4277) 
83470

>  <smiles>  (4277) 
C=CC(C)(C)Nc1cncc(O)n1

>  <inchikey>  (4277) 
CNQKTKUFDRGMCG-UHFFFAOYSA-N

>  <distance_score>  (4277) 
0.804526

>  <ref_mols>  (4277) 
Z0875a,Z0089a

>  <ref_pdb>  (4277) 
Z0719a

>  <HIPPO Compound ID>  (4277) 
144256

>  <name>  (4277) 
CNQKTKUFDRGMCG-UHFFFAOYSA-N-P52-P7-P52-601529

>  <inspiration_score>  (4277) 
None

$$$$
YFJXKEGHSPRFCV-UHFFFAOYSA-N-P7-P7-P52-601529
     RDKit          3D

 13 13  0  0  0  0  0  0  0  0999 V2000
   -1.6049    4.0092  -19.9094 C   0  0  0  0  0  0  0  0  0  0  0  0
   -2.4559    4.4436  -18.9755 C   0  0  0  0  0  0  0  0  0  0  0  0
   -2.7382    5.8698  -18.5671 C   0  0  0  0  0  0  0  0  0  0  0  0
   -1.9674    6.9095  -19.4111 C   0  0  0  0  0  0  0  0  0  0  0  0
   -2.2942    6.0687  -17.1156 C   0  0  0  0  0  0  0  0  0  0  0  0
   -4.1518    6.1450  -18.8296 N   0  0  0  0  0  0  0  0  0  0  0  0
   -5.2199    5.5493  -18.1938 C   0  0  0  0  0  0  0  0  0  0  0  0
   -6.0903    5.0043  -19.0701 N   0  0  0  0  0  0  0  0  0  0  0  0
   -7.2397    4.5003  -18.5707 C   0  0  0  0  0  0  0  0  0  0  0  0
   -7.5148    4.5032  -17.2193 C   0  0  0  0  0  0  0  0  0  0  0  0
   -6.6684    5.0364  -16.3142 N   0  0  0  0  0  0  0  0  0  0  0  0
   -5.5409    5.5627  -16.8289 C   0  0  0  0  0  0  0  0  0  0  0  0
   -4.8418    6.2042  -15.8626 O   0  0  0  0  0  0  0  0  0  0  0  0
  1  2  2  0
  2  3  1  0
  3  4  1  0
  3  5  1  0
  3  6  1  0
  6  7  1  0
  7  8  2  0
  8  9  1  0
  9 10  2  0
 10 11  1  0
 11 12  2  0
 12 13  1  0
 12  7  1  0
M  END
>  <energy_score>  (4278) 
-37.999469

>  <alias>  (4278) 
YFJXKEGHSPRFCV-UHFFFAOYSA-N-P7-P7-P52-601529

>  <HIPPO Pose ID>  (4278) 
83471

>  <smiles>  (4278) 
C=CC(C)(C)Nc1nccnc1O

>  <inchikey>  (4278) 
YFJXKEGHSPRFCV-UHFFFAOYSA-N

>  <distance_score>  (4278) 
0.985721

>  <ref_mols>  (4278) 
Z0875a,Z0089a

>  <ref_pdb>  (4278) 
Z0719a

>  <HIPPO Compound ID>  (4278) 
144257

>  <name>  (4278) 
YFJXKEGHSPRFCV-UHFFFAOYSA-N-P7-P7-P52-601529

>  <inspiration_score>  (4278) 
None

$$$$
XXLICIWCQBQRQL-UHFFFAOYSA-N-P7-P7-P52-601529
     RDKit          3D

 13 13  0  0  0  0  0  0  0  0999 V2000
   -1.6611    4.1667  -20.1357 C   0  0  0  0  0  0  0  0  0  0  0  0
   -2.4816    4.5036  -19.1363 C   0  0  0  0  0  0  0  0  0  0  0  0
   -2.6536    5.8602  -18.4966 C   0  0  0  0  0  0  0  0  0  0  0  0
   -1.8121    6.9623  -19.1769 C   0  0  0  0  0  0  0  0  0  0  0  0
   -2.1823    5.7705  -17.0442 C   0  0  0  0  0  0  0  0  0  0  0  0
   -4.0479    6.2945  -18.6694 N   0  0  0  0  0  0  0  0  0  0  0  0
   -5.1364    5.6418  -18.1199 C   0  0  0  0  0  0  0  0  0  0  0  0
   -5.8926    5.0447  -19.0645 N   0  0  0  0  0  0  0  0  0  0  0  0
   -7.0598    4.4963  -18.6680 C   0  0  0  0  0  0  0  0  0  0  0  0
   -7.4554    4.4965  -17.3515 C   0  0  0  0  0  0  0  0  0  0  0  0
   -6.7191    5.0827  -16.3882 N   0  0  0  0  0  0  0  0  0  0  0  0
   -5.5697    5.6907  -16.7850 C   0  0  0  0  0  0  0  0  0  0  0  0
   -4.9242    6.4999  -15.7061 C   0  0  0  0  0  0  0  0  0  0  0  0
  1  2  2  0
  2  3  1  0
  3  4  1  0
  3  5  1  0
  3  6  1  0
  6  7  1  0
  7  8  2  0
  8  9  1  0
  9 10  2  0
 10 11  1  0
 11 12  2  0
 12 13  1  0
 12  7  1  0
M  END
>  <energy_score>  (4279) 
-27.978359

>  <alias>  (4279) 
XXLICIWCQBQRQL-UHFFFAOYSA-N-P7-P7-P52-601529

>  <HIPPO Pose ID>  (4279) 
83477

>  <smiles>  (4279) 
C=CC(C)(C)Nc1nccnc1C

>  <inchikey>  (4279) 
XXLICIWCQBQRQL-UHFFFAOYSA-N

>  <distance_score>  (4279) 
1.12098

>  <ref_mols>  (4279) 
Z0875a,Z0089a

>  <ref_pdb>  (4279) 
Z0719a

>  <HIPPO Compound ID>  (4279) 
144260

>  <name>  (4279) 
XXLICIWCQBQRQL-UHFFFAOYSA-N-P7-P7-P52-601529

>  <inspiration_score>  (4279) 
None

$$$$
QIXHPZMJJQKXSU-UHFFFAOYSA-N-P52-P7-P52-601529
     RDKit          3D

 13 13  0  0  0  0  0  0  0  0999 V2000
   -1.5746    3.7954  -19.7725 C   0  0  0  0  0  0  0  0  0  0  0  0
   -2.1458    4.8483  -19.7336 C   0  0  0  0  0  0  0  0  0  0  0  0
   -2.8483    6.1373  -19.7210 C   0  0  0  0  0  0  0  0  0  0  0  0
   -2.4011    6.9849  -18.5285 C   0  0  0  0  0  0  0  0  0  0  0  0
   -2.4865    6.9414  -20.9890 C   0  0  0  0  0  0  0  0  0  0  0  0
   -4.2836    5.9070  -19.7622 N   0  0  0  0  0  0  0  0  0  0  0  0
   -5.1447    5.3495  -18.8714 C   0  0  0  0  0  0  0  0  0  0  0  0
   -4.9584    5.2106  -17.5119 C   0  0  0  0  0  0  0  0  0  0  0  0
   -5.9734    4.7830  -16.7260 N   0  0  0  0  0  0  0  0  0  0  0  0
   -5.7594    4.6885  -15.2844 C   0  0  0  0  0  0  0  0  0  0  0  0
   -7.1743    4.4711  -17.2633 C   0  0  0  0  0  0  0  0  0  0  0  0
   -7.3248    4.5772  -18.6261 C   0  0  0  0  0  0  0  0  0  0  0  0
   -6.3199    5.0014  -19.4129 N   0  0  0  0  0  0  0  0  0  0  0  0
  1  2  3  0
  2  3  1  0
  3  4  1  0
  3  5  1  0
  3  6  1  0
  6  7  1  0
  7  8  2  0
  8  9  1  0
  9 10  1  0
  9 11  2  0
 11 12  1  0
 12 13  2  0
 13  7  1  0
M  CHG  1   9   1
M  END
>  <energy_score>  (4280) 
-21.235298

>  <alias>  (4280) 
QIXHPZMJJQKXSU-UHFFFAOYSA-N-P52-P7-P52-601529

>  <HIPPO Pose ID>  (4280) 
83482

>  <smiles>  (4280) 
C#CC(C)(C)Nc1c[n+](C)ccn1

>  <inchikey>  (4280) 
QIXHPZMJJQKXSU-UHFFFAOYSA-N

>  <distance_score>  (4280) 
0.928767

>  <ref_mols>  (4280) 
Z0875a,Z0089a

>  <ref_pdb>  (4280) 
Z0719a

>  <HIPPO Compound ID>  (4280) 
144262

>  <name>  (4280) 
QIXHPZMJJQKXSU-UHFFFAOYSA-N-P52-P7-P52-601529

>  <inspiration_score>  (4280) 
None

$$$$
UGRMVHOVIWQSGG-UHFFFAOYSA-N-P52-P7-P52-601529
     RDKit          3D

 13 13  0  0  0  0  0  0  0  0999 V2000
   -1.5841    3.7886  -19.7745 C   0  0  0  0  0  0  0  0  0  0  0  0
   -2.2025    4.8089  -19.6612 C   0  0  0  0  0  0  0  0  0  0  0  0
   -2.9660    6.0581  -19.5374 C   0  0  0  0  0  0  0  0  0  0  0  0
   -2.4955    6.8523  -18.3217 C   0  0  0  0  0  0  0  0  0  0  0  0
   -2.6884    6.9412  -20.7759 C   0  0  0  0  0  0  0  0  0  0  0  0
   -4.3830    5.7615  -19.5581 N   0  0  0  0  0  0  0  0  0  0  0  0
   -5.2857    5.3560  -18.6268 C   0  0  0  0  0  0  0  0  0  0  0  0
   -5.1416    5.3290  -17.2420 C   0  0  0  0  0  0  0  0  0  0  0  0
   -6.1463    5.0231  -16.3777 N   0  0  0  0  0  0  0  0  0  0  0  0
   -7.3233    4.7050  -16.9625 C   0  0  0  0  0  0  0  0  0  0  0  0
   -7.4708    4.7205  -18.3304 C   0  0  0  0  0  0  0  0  0  0  0  0
   -8.6654    4.5071  -18.9336 O   0  0  0  0  0  0  0  0  0  0  0  0
   -6.4755    5.0358  -19.1731 N   0  0  0  0  0  0  0  0  0  0  0  0
  1  2  3  0
  2  3  1  0
  3  4  1  0
  3  5  1  0
  3  6  1  0
  6  7  1  0
  7  8  2  0
  8  9  1  0
  9 10  2  0
 10 11  1  0
 11 12  1  0
 11 13  2  0
 13  7  1  0
M  END
>  <energy_score>  (4281) 
-33.503139

>  <alias>  (4281) 
UGRMVHOVIWQSGG-UHFFFAOYSA-N-P52-P7-P52-601529

>  <HIPPO Pose ID>  (4281) 
83484

>  <smiles>  (4281) 
C#CC(C)(C)Nc1cncc(O)n1

>  <inchikey>  (4281) 
UGRMVHOVIWQSGG-UHFFFAOYSA-N

>  <distance_score>  (4281) 
1.054872

>  <ref_mols>  (4281) 
Z0875a,Z0089a

>  <ref_pdb>  (4281) 
Z0719a

>  <HIPPO Compound ID>  (4281) 
144263

>  <name>  (4281) 
UGRMVHOVIWQSGG-UHFFFAOYSA-N-P52-P7-P52-601529

>  <inspiration_score>  (4281) 
None

$$$$
IVSXYFIXTWDUKP-UHFFFAOYSA-N-P7-P7-P52-601529
     RDKit          3D

 13 13  0  0  0  0  0  0  0  0999 V2000
   -8.7022    4.1410  -18.9333 C   0  0  0  0  0  0  0  0  0  0  0  0
   -7.4666    4.5897  -18.2193 C   0  0  0  0  0  0  0  0  0  0  0  0
   -7.5311    4.9542  -16.8857 C   0  0  0  0  0  0  0  0  0  0  0  0
   -6.4538    5.3764  -16.1959 N   0  0  0  0  0  0  0  0  0  0  0  0
   -5.2881    5.3520  -16.8900 C   0  0  0  0  0  0  0  0  0  0  0  0
   -5.1807    4.9972  -18.2300 C   0  0  0  0  0  0  0  0  0  0  0  0
   -4.0429    4.8731  -18.9748 N   0  0  0  0  0  0  0  0  0  0  0  0
   -2.7180    5.4941  -18.8938 C   0  0  0  0  0  0  0  0  0  0  0  0
   -1.7603    4.5250  -19.6200 C   0  0  0  0  0  0  0  0  0  0  0  0
   -2.7476    6.8246  -19.6556 C   0  0  0  0  0  0  0  0  0  0  0  0
   -2.1818    5.7366  -17.4619 C   0  0  0  0  0  0  0  0  0  0  0  0
   -0.8166    6.1588  -17.4304 O   0  0  0  0  0  0  0  0  0  0  0  0
   -6.2925    4.6301  -18.9019 N   0  0  0  0  0  0  0  0  0  0  0  0
  1  2  1  0
  2  3  2  0
  3  4  1  0
  4  5  2  0
  5  6  1  0
  6  7  1  0
  7  8  1  0
  8  9  1  0
  8 10  1  0
  8 11  1  0
 11 12  1  0
  6 13  2  0
 13  2  1  0
M  END
>  <energy_score>  (4282) 
-26.191383

>  <alias>  (4282) 
IVSXYFIXTWDUKP-UHFFFAOYSA-N-P7-P7-P52-601529

>  <HIPPO Pose ID>  (4282) 
83487

>  <smiles>  (4282) 
Cc1cncc(NC(C)(C)CO)n1

>  <inchikey>  (4282) 
IVSXYFIXTWDUKP-UHFFFAOYSA-N

>  <distance_score>  (4282) 
0.794834

>  <ref_mols>  (4282) 
Z0875a,Z0089a

>  <ref_pdb>  (4282) 
Z0719a

>  <HIPPO Compound ID>  (4282) 
144265

>  <name>  (4282) 
IVSXYFIXTWDUKP-UHFFFAOYSA-N-P7-P7-P52-601529

>  <inspiration_score>  (4282) 
None

$$$$
GXYWYGBOZRURSA-UHFFFAOYSA-N-P52-P7-P52-601529
     RDKit          3D

 13 13  0  0  0  0  0  0  0  0999 V2000
   -5.8808    4.7138  -15.3470 C   0  0  0  0  0  0  0  0  0  0  0  0
   -5.9772    4.7861  -16.8025 N   0  0  0  0  0  0  0  0  0  0  0  0
   -7.1449    4.5160  -17.4262 C   0  0  0  0  0  0  0  0  0  0  0  0
   -7.1818    4.5993  -18.7979 C   0  0  0  0  0  0  0  0  0  0  0  0
   -6.0980    4.9558  -19.5136 N   0  0  0  0  0  0  0  0  0  0  0  0
   -4.9483    5.2473  -18.8906 C   0  0  0  0  0  0  0  0  0  0  0  0
   -3.9650    5.6972  -19.7159 N   0  0  0  0  0  0  0  0  0  0  0  0
   -2.5165    5.8611  -19.5409 C   0  0  0  0  0  0  0  0  0  0  0  0
   -1.8509    4.4904  -19.4035 C   0  0  0  0  0  0  0  0  0  0  0  0
   -2.1740    6.7655  -18.3526 C   0  0  0  0  0  0  0  0  0  0  0  0
   -1.9610    6.5953  -20.8009 C   0  0  0  0  0  0  0  0  0  0  0  0
   -2.1964    5.8443  -21.9892 O   0  0  0  0  0  0  0  0  0  0  0  0
   -4.8839    5.1413  -17.5160 C   0  0  0  0  0  0  0  0  0  0  0  0
  1  2  1  0
  2  3  2  0
  3  4  1  0
  4  5  2  0
  5  6  1  0
  6  7  1  0
  7  8  1  0
  8  9  1  0
  8 10  1  0
  8 11  1  0
 11 12  1  0
  6 13  2  0
 13  2  1  0
M  CHG  1   2   1
M  END
>  <energy_score>  (4283) 
-27.074212

>  <alias>  (4283) 
GXYWYGBOZRURSA-UHFFFAOYSA-N-P52-P7-P52-601529

>  <HIPPO Pose ID>  (4283) 
83490

>  <smiles>  (4283) 
C[n+]1ccnc(NC(C)(C)CO)c1

>  <inchikey>  (4283) 
GXYWYGBOZRURSA-UHFFFAOYSA-N

>  <distance_score>  (4283) 
0.936408

>  <ref_mols>  (4283) 
Z0875a,Z0089a

>  <ref_pdb>  (4283) 
Z0719a

>  <HIPPO Compound ID>  (4283) 
144266

>  <name>  (4283) 
GXYWYGBOZRURSA-UHFFFAOYSA-N-P52-P7-P52-601529

>  <inspiration_score>  (4283) 
None

$$$$
NZAPINURHWYAFW-UHFFFAOYSA-N-P7-P7-P52-601529
     RDKit          3D

 13 13  0  0  0  0  0  0  0  0999 V2000
   -8.8981    4.4711  -15.5328 C   0  0  0  0  0  0  0  0  0  0  0  0
   -8.0278    4.7093  -16.3191 C   0  0  0  0  0  0  0  0  0  0  0  0
   -6.9622    4.9371  -17.2233 C   0  0  0  0  0  0  0  0  0  0  0  0
   -7.0441    4.5874  -18.5548 C   0  0  0  0  0  0  0  0  0  0  0  0
   -6.0103    4.7845  -19.4004 N   0  0  0  0  0  0  0  0  0  0  0  0
   -4.9049    5.3618  -18.8940 C   0  0  0  0  0  0  0  0  0  0  0  0
   -3.9575    5.6335  -19.8471 N   0  0  0  0  0  0  0  0  0  0  0  0
   -2.5210    5.6353  -19.6574 C   0  0  2  0  0  0  0  0  0  0  0  0
   -1.9891    4.2989  -19.1604 C   0  0  0  0  0  0  0  0  0  0  0  0
   -2.1215    6.8709  -18.8949 C   0  0  0  0  0  0  0  0  0  0  0  0
   -1.3373    6.9458  -17.8095 C   0  0  0  0  0  0  0  0  0  0  0  0
   -4.8451    5.6984  -17.5431 C   0  0  0  0  0  0  0  0  0  0  0  0
   -5.8660    5.5049  -16.6764 N   0  0  0  0  0  0  0  0  0  0  0  0
  1  2  3  0
  2  3  1  0
  3  4  2  0
  4  5  1  0
  5  6  2  0
  6  7  1  0
  7  8  1  0
  8  9  1  1
  8 10  1  0
 10 11  2  0
  6 12  1  0
 12 13  2  0
 13  3  1  0
M  END
>  <energy_score>  (4284) 
-25.109937

>  <alias>  (4284) 
NZAPINURHWYAFW-UHFFFAOYSA-N-P7-P7-P52-601529

>  <HIPPO Pose ID>  (4284) 
83505

>  <smiles>  (4284) 
C#Cc1cnc(NC(C)C=C)cn1

>  <inchikey>  (4284) 
NZAPINURHWYAFW-UHFFFAOYSA-N

>  <distance_score>  (4284) 
1.011178

>  <ref_mols>  (4284) 
Z0875a,Z0089a

>  <ref_pdb>  (4284) 
Z0719a

>  <HIPPO Compound ID>  (4284) 
144274

>  <name>  (4284) 
NZAPINURHWYAFW-UHFFFAOYSA-N-P7-P7-P52-601529

>  <inspiration_score>  (4284) 
None

$$$$
CASNOQPTZFFNNI-UHFFFAOYSA-N-P7-P7-P52-601529
     RDKit          3D

 13 13  0  0  0  0  0  0  0  0999 V2000
   -1.7954    3.6489  -19.3471 C   0  0  0  0  0  0  0  0  0  0  0  0
   -1.6890    4.8844  -19.8459 C   0  0  0  0  0  0  0  0  0  0  0  0
   -2.7461    5.9510  -19.8478 C   0  0  2  0  0  0  0  0  0  0  0  0
   -2.4679    7.0589  -18.8473 C   0  0  0  0  0  0  0  0  0  0  0  0
   -4.0555    5.3511  -19.8041 N   0  0  0  0  0  0  0  0  0  0  0  0
   -4.9709    5.2330  -18.8094 C   0  0  0  0  0  0  0  0  0  0  0  0
   -4.7617    5.3152  -17.4412 C   0  0  0  0  0  0  0  0  0  0  0  0
   -5.7518    5.2078  -16.5232 N   0  0  0  0  0  0  0  0  0  0  0  0
   -6.9856    4.9379  -17.0162 C   0  0  0  0  0  0  0  0  0  0  0  0
   -8.0692    4.7545  -15.9996 C   0  0  0  0  0  0  0  0  0  0  0  0
   -9.3316    4.0968  -16.5166 C   0  0  0  0  0  0  0  0  0  0  0  0
   -7.1959    4.8370  -18.3822 C   0  0  0  0  0  0  0  0  0  0  0  0
   -6.2012    4.9822  -19.2796 N   0  0  0  0  0  0  0  0  0  0  0  0
  1  2  2  0
  2  3  1  0
  3  4  1  1
  3  5  1  0
  5  6  1  0
  6  7  2  0
  7  8  1  0
  8  9  2  0
  9 10  1  0
 10 11  1  0
  9 12  1  0
 12 13  2  0
 13  6  1  0
M  END
>  <energy_score>  (4285) 
-25.119607

>  <alias>  (4285) 
CASNOQPTZFFNNI-UHFFFAOYSA-N-P7-P7-P52-601529

>  <HIPPO Pose ID>  (4285) 
83507

>  <smiles>  (4285) 
C=CC(C)Nc1cnc(CC)cn1

>  <inchikey>  (4285) 
CASNOQPTZFFNNI-UHFFFAOYSA-N

>  <distance_score>  (4285) 
0.790386

>  <ref_mols>  (4285) 
Z0875a,Z0089a

>  <ref_pdb>  (4285) 
Z0719a

>  <HIPPO Compound ID>  (4285) 
144275

>  <name>  (4285) 
CASNOQPTZFFNNI-UHFFFAOYSA-N-P7-P7-P52-601529

>  <inspiration_score>  (4285) 
None

$$$$
MNVPIBNYVRORBP-UHFFFAOYSA-N-P7-P7-P52-601529
     RDKit          3D

 13 13  0  0  0  0  0  0  0  0999 V2000
   -1.9026    3.6285  -19.4873 C   0  0  0  0  0  0  0  0  0  0  0  0
   -2.0909    4.9458  -19.5868 C   0  0  0  0  0  0  0  0  0  0  0  0
   -2.7951    5.7766  -18.5445 C   0  0  1  0  0  0  0  0  0  0  0  0
   -2.1046    7.1376  -18.4781 C   0  0  0  0  0  0  0  0  0  0  0  0
   -4.1624    5.9750  -18.9765 N   0  0  0  0  0  0  0  0  0  0  0  0
   -5.2384    5.4699  -18.2804 C   0  0  0  0  0  0  0  0  0  0  0  0
   -6.1188    4.9154  -19.1497 N   0  0  0  0  0  0  0  0  0  0  0  0
   -7.3051    4.4814  -18.6748 C   0  0  0  0  0  0  0  0  0  0  0  0
   -7.6240    4.5643  -17.3415 C   0  0  0  0  0  0  0  0  0  0  0  0
   -6.7759    5.0947  -16.4379 N   0  0  0  0  0  0  0  0  0  0  0  0
   -5.5748    5.5439  -16.9173 C   0  0  0  0  0  0  0  0  0  0  0  0
   -4.7965    6.1568  -15.8009 C   0  0  0  0  0  0  0  0  0  0  0  0
   -3.7068    6.7073  -15.8558 O   0  0  0  0  0  0  0  0  0  0  0  0
  1  2  2  0
  2  3  1  0
  3  4  1  6
  3  5  1  0
  5  6  1  0
  6  7  2  0
  7  8  1  0
  8  9  2  0
  9 10  1  0
 10 11  2  0
 11 12  1  0
 12 13  2  0
 11  6  1  0
M  END
>  <energy_score>  (4286) 
-14.433028

>  <alias>  (4286) 
MNVPIBNYVRORBP-UHFFFAOYSA-N-P7-P7-P52-601529

>  <HIPPO Pose ID>  (4286) 
83511

>  <smiles>  (4286) 
C=CC(C)Nc1nccnc1C=O

>  <inchikey>  (4286) 
MNVPIBNYVRORBP-UHFFFAOYSA-N

>  <distance_score>  (4286) 
0.965967

>  <ref_mols>  (4286) 
Z0875a,Z0089a

>  <ref_pdb>  (4286) 
Z0719a

>  <HIPPO Compound ID>  (4286) 
144277

>  <name>  (4286) 
MNVPIBNYVRORBP-UHFFFAOYSA-N-P7-P7-P52-601529

>  <inspiration_score>  (4286) 
None

$$$$
UXDBKFQIAYAEEM-UHFFFAOYSA-N-P7-P7-P52-601529
     RDKit          3D

 13 13  0  0  0  0  0  0  0  0999 V2000
   -1.6435    3.5884  -19.7856 C   0  0  0  0  0  0  0  0  0  0  0  0
   -2.3158    4.4709  -19.0418 C   0  0  0  0  0  0  0  0  0  0  0  0
   -2.9184    5.7265  -19.5878 C   0  0  2  0  0  0  0  0  0  0  0  0
   -2.4387    6.9875  -18.8807 C   0  0  0  0  0  0  0  0  0  0  0  0
   -4.3566    5.6129  -19.6355 N   0  0  0  0  0  0  0  0  0  0  0  0
   -5.2329    5.2955  -18.6364 C   0  0  0  0  0  0  0  0  0  0  0  0
   -5.0237    5.4445  -17.2736 C   0  0  0  0  0  0  0  0  0  0  0  0
   -5.9574    5.1742  -16.3351 N   0  0  0  0  0  0  0  0  0  0  0  0
   -7.1552    4.7427  -16.8004 C   0  0  0  0  0  0  0  0  0  0  0  0
   -8.2067    4.4931  -15.7693 C   0  0  0  0  0  0  0  0  0  0  0  0
   -7.3886    4.5752  -18.1646 C   0  0  0  0  0  0  0  0  0  0  0  0
   -8.7148    4.1496  -18.7168 C   0  0  0  0  0  0  0  0  0  0  0  0
   -6.4206    4.8462  -19.0766 N   0  0  0  0  0  0  0  0  0  0  0  0
  1  2  2  0
  2  3  1  0
  3  4  1  1
  3  5  1  0
  5  6  1  0
  6  7  2  0
  7  8  1  0
  8  9  2  0
  9 10  1  0
  9 11  1  0
 11 12  1  0
 11 13  2  0
 13  6  1  0
M  END
>  <energy_score>  (4287) 
-26.261025

>  <alias>  (4287) 
UXDBKFQIAYAEEM-UHFFFAOYSA-N-P7-P7-P52-601529

>  <HIPPO Pose ID>  (4287) 
83515

>  <smiles>  (4287) 
C=CC(C)Nc1cnc(C)c(C)n1

>  <inchikey>  (4287) 
UXDBKFQIAYAEEM-UHFFFAOYSA-N

>  <distance_score>  (4287) 
0.742588

>  <ref_mols>  (4287) 
Z0875a,Z0089a

>  <ref_pdb>  (4287) 
Z0719a

>  <HIPPO Compound ID>  (4287) 
144279

>  <name>  (4287) 
UXDBKFQIAYAEEM-UHFFFAOYSA-N-P7-P7-P52-601529

>  <inspiration_score>  (4287) 
None

$$$$
KNIHFFKLLAJBOE-UHFFFAOYSA-N-P52-P7-P52-601529
     RDKit          3D

 13 13  0  0  0  0  0  0  0  0999 V2000
   -0.9625    5.5251  -20.8222 C   0  0  0  0  0  0  0  0  0  0  0  0
   -1.6903    4.9132  -19.8749 C   0  0  0  0  0  0  0  0  0  0  0  0
   -2.7324    5.5409  -18.9786 C   0  0  1  0  0  0  0  0  0  0  0  0
   -2.7952    7.0646  -19.0670 C   0  0  0  0  0  0  0  0  0  0  0  0
   -3.9839    4.9619  -19.3849 N   0  0  0  0  0  0  0  0  0  0  0  0
   -5.1658    4.9489  -18.6847 C   0  0  0  0  0  0  0  0  0  0  0  0
   -6.2021    4.4969  -19.3449 N   0  0  0  0  0  0  0  0  0  0  0  0
   -7.4152    4.5095  -18.7175 C   0  0  0  0  0  0  0  0  0  0  0  0
   -7.6411    5.0424  -17.5152 C   0  0  0  0  0  0  0  0  0  0  0  0
   -6.6154    5.6082  -16.8011 N   0  0  0  0  0  0  0  0  0  0  0  0
   -6.8427    6.2380  -15.5387 C   0  0  0  0  0  0  0  0  0  0  0  0
   -5.3024    5.4859  -17.2252 C   0  0  0  0  0  0  0  0  0  0  0  0
   -4.3398    5.8206  -16.5443 O   0  0  0  0  0  0  0  0  0  0  0  0
  1  2  2  0
  2  3  1  0
  3  4  1  6
  3  5  1  0
  5  6  1  0
  6  7  2  0
  7  8  1  0
  8  9  2  0
  9 10  1  0
 10 11  1  0
 10 12  1  0
 12 13  2  0
 12  6  1  0
M  END
>  <energy_score>  (4288) 
-25.681832

>  <alias>  (4288) 
KNIHFFKLLAJBOE-UHFFFAOYSA-N-P52-P7-P52-601529

>  <HIPPO Pose ID>  (4288) 
83522

>  <smiles>  (4288) 
C=CC(C)Nc1nccn(C)c1=O

>  <inchikey>  (4288) 
KNIHFFKLLAJBOE-UHFFFAOYSA-N

>  <distance_score>  (4288) 
1.154402

>  <ref_mols>  (4288) 
Z0875a,Z0089a

>  <ref_pdb>  (4288) 
Z0719a

>  <HIPPO Compound ID>  (4288) 
144282

>  <name>  (4288) 
KNIHFFKLLAJBOE-UHFFFAOYSA-N-P52-P7-P52-601529

>  <inspiration_score>  (4288) 
None

$$$$
ZLPSQRAVMJQKPF-UHFFFAOYSA-N-P7-P7-P52-601529
     RDKit          3D

 13 13  0  0  0  0  0  0  0  0999 V2000
   -1.2316    5.6075  -20.7058 C   0  0  0  0  0  0  0  0  0  0  0  0
   -1.8687    5.0076  -19.6882 C   0  0  0  0  0  0  0  0  0  0  0  0
   -2.8333    5.6533  -18.7181 C   0  0  1  0  0  0  0  0  0  0  0  0
   -2.9030    7.1742  -18.8377 C   0  0  0  0  0  0  0  0  0  0  0  0
   -4.1130    5.0641  -19.0129 N   0  0  0  0  0  0  0  0  0  0  0  0
   -5.2734    5.0532  -18.2983 C   0  0  0  0  0  0  0  0  0  0  0  0
   -6.2906    4.6248  -19.0824 N   0  0  0  0  0  0  0  0  0  0  0  0
   -7.5121    4.4852  -18.5256 C   0  0  0  0  0  0  0  0  0  0  0  0
   -7.7394    4.7694  -17.1994 C   0  0  0  0  0  0  0  0  0  0  0  0
   -6.7693    5.2485  -16.3936 N   0  0  0  0  0  0  0  0  0  0  0  0
   -5.5291    5.3650  -16.9539 C   0  0  0  0  0  0  0  0  0  0  0  0
   -4.5652    5.9023  -16.0357 C   0  0  0  0  0  0  0  0  0  0  0  0
   -3.7949    6.3828  -15.3062 N   0  0  0  0  0  0  0  0  0  0  0  0
  1  2  2  0
  2  3  1  0
  3  4  1  6
  3  5  1  0
  5  6  1  0
  6  7  2  0
  7  8  1  0
  8  9  2  0
  9 10  1  0
 10 11  2  0
 11 12  1  0
 12 13  3  0
 11  6  1  0
M  END
>  <energy_score>  (4289) 
-20.783123

>  <alias>  (4289) 
ZLPSQRAVMJQKPF-UHFFFAOYSA-N-P7-P7-P52-601529

>  <HIPPO Pose ID>  (4289) 
83523

>  <smiles>  (4289) 
C=CC(C)Nc1nccnc1C#N

>  <inchikey>  (4289) 
ZLPSQRAVMJQKPF-UHFFFAOYSA-N

>  <distance_score>  (4289) 
0.870521

>  <ref_mols>  (4289) 
Z0875a,Z0089a

>  <ref_pdb>  (4289) 
Z0719a

>  <HIPPO Compound ID>  (4289) 
144283

>  <name>  (4289) 
ZLPSQRAVMJQKPF-UHFFFAOYSA-N-P7-P7-P52-601529

>  <inspiration_score>  (4289) 
None

$$$$
AWHBBZTVZZWZKP-UHFFFAOYSA-N-P52-P7-P52-601529
     RDKit          3D

 13 13  0  0  0  0  0  0  0  0999 V2000
   -2.3455    4.5237  -19.2980 C   0  0  0  0  0  0  0  0  0  0  0  0
   -2.6509    6.0068  -19.1229 C   0  0  0  0  0  0  0  0  0  0  0  0
   -1.9727    6.5382  -17.8651 C   0  0  0  0  0  0  0  0  0  0  0  0
   -2.0401    6.7786  -20.3375 C   0  0  0  0  0  0  0  0  0  0  0  0
   -2.4035    8.1601  -20.2866 O   0  0  0  0  0  0  0  0  0  0  0  0
   -4.1086    6.3124  -19.1531 N   0  0  0  0  0  0  0  0  0  0  0  0
   -5.0614    5.6312  -18.4028 C   0  0  0  0  0  0  0  0  0  0  0  0
   -5.9572    4.9855  -19.1725 N   0  0  0  0  0  0  0  0  0  0  0  0
   -7.0309    4.4578  -18.5399 C   0  0  0  0  0  0  0  0  0  0  0  0
   -7.1877    4.5233  -17.1693 C   0  0  0  0  0  0  0  0  0  0  0  0
   -6.2970    5.1482  -16.3731 N   0  0  0  0  0  0  0  0  0  0  0  0
   -5.2586    5.7170  -17.0105 C   0  0  0  0  0  0  0  0  0  0  0  0
   -4.5356    6.5535  -16.2109 O   0  0  0  0  0  0  0  0  0  0  0  0
  1  2  1  0
  2  3  1  0
  2  4  1  0
  4  5  1  0
  2  6  1  0
  6  7  1  0
  7  8  2  0
  8  9  1  0
  9 10  2  0
 10 11  1  0
 11 12  2  0
 12 13  1  0
 12  7  1  0
M  END
>  <energy_score>  (4290) 
-32.1969

>  <alias>  (4290) 
AWHBBZTVZZWZKP-UHFFFAOYSA-N-P52-P7-P52-601529

>  <HIPPO Pose ID>  (4290) 
83530

>  <smiles>  (4290) 
CC(C)(CO)Nc1nccnc1O

>  <inchikey>  (4290) 
AWHBBZTVZZWZKP-UHFFFAOYSA-N

>  <distance_score>  (4290) 
1.09731

>  <ref_mols>  (4290) 
Z0875a,Z0089a

>  <ref_pdb>  (4290) 
Z0719a

>  <HIPPO Compound ID>  (4290) 
144286

>  <name>  (4290) 
AWHBBZTVZZWZKP-UHFFFAOYSA-N-P52-P7-P52-601529

>  <inspiration_score>  (4290) 
None

$$$$
YABOOOOHSWDJOG-UHFFFAOYSA-N-P7-P7-P52-601529
     RDKit          3D

 13 13  0  0  0  0  0  0  0  0999 V2000
   -8.5747    4.5373  -16.3234 C   0  0  0  0  0  0  0  0  0  0  0  0
   -7.3371    4.8913  -17.0778 C   0  0  0  0  0  0  0  0  0  0  0  0
   -7.1504    4.5051  -18.3975 C   0  0  0  0  0  0  0  0  0  0  0  0
   -6.0174    4.7770  -19.0907 N   0  0  0  0  0  0  0  0  0  0  0  0
   -5.0514    5.4460  -18.4356 C   0  0  0  0  0  0  0  0  0  0  0  0
   -3.9948    5.8275  -19.2358 N   0  0  0  0  0  0  0  0  0  0  0  0
   -2.5615    5.6340  -18.9334 C   0  0  0  0  0  0  0  0  0  0  0  0
   -2.1371    4.2075  -19.2982 C   0  0  0  0  0  0  0  0  0  0  0  0
   -1.8336    6.6166  -19.8729 C   0  0  0  0  0  0  0  0  0  0  0  0
   -2.1024    5.9891  -17.4956 C   0  0  0  0  0  0  0  0  0  0  0  0
   -2.4784    5.0052  -16.5382 O   0  0  0  0  0  0  0  0  0  0  0  0
   -5.2562    5.8364  -17.1157 C   0  0  0  0  0  0  0  0  0  0  0  0
   -6.3857    5.5809  -16.4108 N   0  0  0  0  0  0  0  0  0  0  0  0
  1  2  1  0
  2  3  2  0
  3  4  1  0
  4  5  2  0
  5  6  1  0
  6  7  1  0
  7  8  1  0
  7  9  1  0
  7 10  1  0
 10 11  1  0
  5 12  1  0
 12 13  2  0
 13  2  1  0
M  END
>  <energy_score>  (4291) 
-39.528199

>  <alias>  (4291) 
YABOOOOHSWDJOG-UHFFFAOYSA-N-P7-P7-P52-601529

>  <HIPPO Pose ID>  (4291) 
83531

>  <smiles>  (4291) 
Cc1cnc(NC(C)(C)CO)cn1

>  <inchikey>  (4291) 
YABOOOOHSWDJOG-UHFFFAOYSA-N

>  <distance_score>  (4291) 
0.825426

>  <ref_mols>  (4291) 
Z0875a,Z0089a

>  <ref_pdb>  (4291) 
Z0719a

>  <HIPPO Compound ID>  (4291) 
144287

>  <name>  (4291) 
YABOOOOHSWDJOG-UHFFFAOYSA-N-P7-P7-P52-601529

>  <inspiration_score>  (4291) 
None

$$$$
ZHILZMIUGSOKCU-UHFFFAOYSA-N-P52-P7-P52-601529
     RDKit          3D

 13 13  0  0  0  0  0  0  0  0999 V2000
   -1.9618    4.5174  -19.4268 C   0  0  0  0  0  0  0  0  0  0  0  0
   -2.6717    5.8708  -19.3885 C   0  0  0  0  0  0  0  0  0  0  0  0
   -2.2681    6.6390  -18.1302 C   0  0  0  0  0  0  0  0  0  0  0  0
   -2.2168    6.7387  -20.6013 C   0  0  0  0  0  0  0  0  0  0  0  0
   -2.9767    7.9483  -20.6618 O   0  0  0  0  0  0  0  0  0  0  0  0
   -4.1206    5.6866  -19.5380 N   0  0  0  0  0  0  0  0  0  0  0  0
   -5.1033    5.3411  -18.6552 C   0  0  0  0  0  0  0  0  0  0  0  0
   -5.1436    5.5682  -17.2798 C   0  0  0  0  0  0  0  0  0  0  0  0
   -6.2270    5.3294  -16.4940 N   0  0  0  0  0  0  0  0  0  0  0  0
   -7.2861    4.8434  -17.1569 C   0  0  0  0  0  0  0  0  0  0  0  0
   -8.3752    4.6321  -16.3838 O   0  0  0  0  0  0  0  0  0  0  0  0
   -7.2813    4.5885  -18.5094 C   0  0  0  0  0  0  0  0  0  0  0  0
   -6.1826    4.8189  -19.2686 N   0  0  0  0  0  0  0  0  0  0  0  0
  1  2  1  0
  2  3  1  0
  2  4  1  0
  4  5  1  0
  2  6  1  0
  6  7  1  0
  7  8  2  0
  8  9  1  0
  9 10  2  0
 10 11  1  0
 10 12  1  0
 12 13  2  0
 13  7  1  0
M  END
>  <energy_score>  (4292) 
-45.409875

>  <alias>  (4292) 
ZHILZMIUGSOKCU-UHFFFAOYSA-N-P52-P7-P52-601529

>  <HIPPO Pose ID>  (4292) 
83534

>  <smiles>  (4292) 
CC(C)(CO)Nc1cnc(O)cn1

>  <inchikey>  (4292) 
ZHILZMIUGSOKCU-UHFFFAOYSA-N

>  <distance_score>  (4292) 
0.726287

>  <ref_mols>  (4292) 
Z0875a,Z0089a

>  <ref_pdb>  (4292) 
Z0719a

>  <HIPPO Compound ID>  (4292) 
144288

>  <name>  (4292) 
ZHILZMIUGSOKCU-UHFFFAOYSA-N-P52-P7-P52-601529

>  <inspiration_score>  (4292) 
None

$$$$
GARARKPUARDCRA-UHFFFAOYSA-N-P52-P7-P52-601529
     RDKit          3D

 13 13  0  0  0  0  0  0  0  0999 V2000
   -0.2906    5.4883  -19.3954 C   0  0  0  0  0  0  0  0  0  0  0  0
   -1.6989    4.9153  -19.5010 C   0  0  0  0  0  0  0  0  0  0  0  0
   -2.8429    5.9603  -19.4989 C   0  0  0  0  0  0  0  0  0  0  0  0
   -2.7405    6.9015  -18.2934 C   0  0  0  0  0  0  0  0  0  0  0  0
   -2.7720    6.8701  -20.7471 C   0  0  0  0  0  0  0  0  0  0  0  0
   -4.0929    5.1969  -19.5884 N   0  0  0  0  0  0  0  0  0  0  0  0
   -5.1063    5.0900  -18.6718 C   0  0  0  0  0  0  0  0  0  0  0  0
   -4.9877    5.0216  -17.2841 C   0  0  0  0  0  0  0  0  0  0  0  0
   -6.0427    4.9636  -16.4294 N   0  0  0  0  0  0  0  0  0  0  0  0
   -7.2351    4.9029  -17.0408 C   0  0  0  0  0  0  0  0  0  0  0  0
   -8.2902    4.8248  -16.1972 O   0  0  0  0  0  0  0  0  0  0  0  0
   -7.3892    4.9128  -18.4086 C   0  0  0  0  0  0  0  0  0  0  0  0
   -6.3239    5.0107  -19.2373 N   0  0  0  0  0  0  0  0  0  0  0  0
  1  2  1  0
  2  3  1  0
  3  4  1  0
  3  5  1  0
  3  6  1  0
  6  7  1  0
  7  8  2  0
  8  9  1  0
  9 10  2  0
 10 11  1  0
 10 12  1  0
 12 13  2  0
 13  7  1  0
M  END
>  <energy_score>  (4293) 
-42.034913

>  <alias>  (4293) 
GARARKPUARDCRA-UHFFFAOYSA-N-P52-P7-P52-601529

>  <HIPPO Pose ID>  (4293) 
83538

>  <smiles>  (4293) 
CCC(C)(C)Nc1cnc(O)cn1

>  <inchikey>  (4293) 
GARARKPUARDCRA-UHFFFAOYSA-N

>  <distance_score>  (4293) 
0.799585

>  <ref_mols>  (4293) 
Z0875a,Z0089a

>  <ref_pdb>  (4293) 
Z0719a

>  <HIPPO Compound ID>  (4293) 
144290

>  <name>  (4293) 
GARARKPUARDCRA-UHFFFAOYSA-N-P52-P7-P52-601529

>  <inspiration_score>  (4293) 
None

$$$$
FCAYJKHMLRWPAU-UHFFFAOYSA-N-P52-P7-P52-601529
     RDKit          3D

 13 13  0  0  0  0  0  0  0  0999 V2000
   -0.3584    5.4444  -19.4104 C   0  0  0  0  0  0  0  0  0  0  0  0
   -1.7981    4.9470  -19.4632 C   0  0  0  0  0  0  0  0  0  0  0  0
   -2.8742    6.0585  -19.5263 C   0  0  0  0  0  0  0  0  0  0  0  0
   -2.7225    7.0671  -18.3800 C   0  0  0  0  0  0  0  0  0  0  0  0
   -2.7503    6.8939  -20.8224 C   0  0  0  0  0  0  0  0  0  0  0  0
   -4.1776    5.3989  -19.5714 N   0  0  0  0  0  0  0  0  0  0  0  0
   -5.0932    5.1416  -18.5901 C   0  0  0  0  0  0  0  0  0  0  0  0
   -4.8631    5.0819  -17.2203 C   0  0  0  0  0  0  0  0  0  0  0  0
   -5.8290    4.8694  -16.2940 N   0  0  0  0  0  0  0  0  0  0  0  0
   -7.0588    4.6365  -16.8026 C   0  0  0  0  0  0  0  0  0  0  0  0
   -7.3137    4.6284  -18.1639 C   0  0  0  0  0  0  0  0  0  0  0  0
   -8.6819    4.3266  -18.6866 C   0  0  0  0  0  0  0  0  0  0  0  0
   -6.3330    4.9073  -19.0585 N   0  0  0  0  0  0  0  0  0  0  0  0
  1  2  1  0
  2  3  1  0
  3  4  1  0
  3  5  1  0
  3  6  1  0
  6  7  1  0
  7  8  2  0
  8  9  1  0
  9 10  2  0
 10 11  1  0
 11 12  1  0
 11 13  2  0
 13  7  1  0
M  END
>  <energy_score>  (4294) 
-33.42158

>  <alias>  (4294) 
FCAYJKHMLRWPAU-UHFFFAOYSA-N-P52-P7-P52-601529

>  <HIPPO Pose ID>  (4294) 
83542

>  <smiles>  (4294) 
CCC(C)(C)Nc1cncc(C)n1

>  <inchikey>  (4294) 
FCAYJKHMLRWPAU-UHFFFAOYSA-N

>  <distance_score>  (4294) 
0.794296

>  <ref_mols>  (4294) 
Z0875a,Z0089a

>  <ref_pdb>  (4294) 
Z0719a

>  <HIPPO Compound ID>  (4294) 
144292

>  <name>  (4294) 
FCAYJKHMLRWPAU-UHFFFAOYSA-N-P52-P7-P52-601529

>  <inspiration_score>  (4294) 
None

$$$$
PXTRBEQSIHPACF-UHFFFAOYSA-N-P7-P7-P52-601529
     RDKit          3D

 13 13  0  0  0  0  0  0  0  0999 V2000
   -1.1180    4.6529  -18.9853 C   0  0  0  0  0  0  0  0  0  0  0  0
   -1.7207    5.5673  -20.0282 C   0  0  0  0  0  0  0  0  0  0  0  0
   -3.0989    6.1609  -19.6456 C   0  0  0  0  0  0  0  0  0  0  0  0
   -2.9603    7.0269  -18.3895 C   0  0  0  0  0  0  0  0  0  0  0  0
   -3.5582    7.0994  -20.7868 C   0  0  0  0  0  0  0  0  0  0  0  0
   -4.0559    5.0414  -19.5721 N   0  0  0  0  0  0  0  0  0  0  0  0
   -5.0971    4.9977  -18.6583 C   0  0  0  0  0  0  0  0  0  0  0  0
   -4.9413    4.9230  -17.2726 C   0  0  0  0  0  0  0  0  0  0  0  0
   -5.9757    4.8038  -16.4061 N   0  0  0  0  0  0  0  0  0  0  0  0
   -7.1905    4.6930  -16.9915 C   0  0  0  0  0  0  0  0  0  0  0  0
   -7.3441    4.7543  -18.3617 C   0  0  0  0  0  0  0  0  0  0  0  0
   -8.5655    4.6887  -18.9479 O   0  0  0  0  0  0  0  0  0  0  0  0
   -6.3204    4.9240  -19.2131 N   0  0  0  0  0  0  0  0  0  0  0  0
  1  2  1  0
  2  3  1  0
  3  4  1  0
  3  5  1  0
  3  6  1  0
  6  7  1  0
  7  8  2  0
  8  9  1  0
  9 10  2  0
 10 11  1  0
 11 12  1  0
 11 13  2  0
 13  7  1  0
M  END
>  <energy_score>  (4295) 
-42.74531

>  <alias>  (4295) 
PXTRBEQSIHPACF-UHFFFAOYSA-N-P7-P7-P52-601529

>  <HIPPO Pose ID>  (4295) 
83545

>  <smiles>  (4295) 
CCC(C)(C)Nc1cncc(O)n1

>  <inchikey>  (4295) 
PXTRBEQSIHPACF-UHFFFAOYSA-N

>  <distance_score>  (4295) 
0.899002

>  <ref_mols>  (4295) 
Z0875a,Z0089a

>  <ref_pdb>  (4295) 
Z0719a

>  <HIPPO Compound ID>  (4295) 
144294

>  <name>  (4295) 
PXTRBEQSIHPACF-UHFFFAOYSA-N-P7-P7-P52-601529

>  <inspiration_score>  (4295) 
None

$$$$
RRSRFVNOPSPCFZ-UHFFFAOYSA-N-P7-P7-P52-601529
     RDKit          3D

 13 13  0  0  0  0  0  0  0  0999 V2000
   -1.8645    4.4277  -19.4844 C   0  0  0  0  0  0  0  0  0  0  0  0
   -2.7119    5.3683  -18.6276 C   0  0  1  0  0  0  0  0  0  0  0  0
   -2.1102    6.7819  -18.5592 C   0  0  0  0  0  0  0  0  0  0  0  0
   -2.0307    7.4939  -19.9037 C   0  0  0  0  0  0  0  0  0  0  0  0
   -1.3135    9.1153  -19.7030 Cl  0  0  0  0  0  0  0  0  0  0  0  0
   -4.0589    5.4544  -19.1601 N   0  0  0  0  0  0  0  0  0  0  0  0
   -5.1751    5.1956  -18.3927 C   0  0  0  0  0  0  0  0  0  0  0  0
   -6.1974    4.7065  -19.1233 N   0  0  0  0  0  0  0  0  0  0  0  0
   -7.3589    4.4669  -18.4763 C   0  0  0  0  0  0  0  0  0  0  0  0
   -7.5022    4.6801  -17.1198 C   0  0  0  0  0  0  0  0  0  0  0  0
   -6.5070    5.1837  -16.3582 N   0  0  0  0  0  0  0  0  0  0  0  0
   -5.3622    5.4358  -17.0207 C   0  0  0  0  0  0  0  0  0  0  0  0
   -4.4374    5.9824  -16.1916 O   0  0  0  0  0  0  0  0  0  0  0  0
  2  1  1  6
  2  3  1  0
  3  4  1  0
  4  5  1  0
  2  6  1  0
  6  7  1  0
  7  8  2  0
  8  9  1  0
  9 10  2  0
 10 11  1  0
 11 12  2  0
 12 13  1  0
 12  7  1  0
M  END
>  <energy_score>  (4296) 
-29.407427

>  <alias>  (4296) 
RRSRFVNOPSPCFZ-UHFFFAOYSA-N-P7-P7-P52-601529

>  <HIPPO Pose ID>  (4296) 
83567

>  <smiles>  (4296) 
CC(CCCl)Nc1nccnc1O

>  <inchikey>  (4296) 
RRSRFVNOPSPCFZ-UHFFFAOYSA-N

>  <distance_score>  (4296) 
0.90504

>  <ref_mols>  (4296) 
Z0875a,Z0089a

>  <ref_pdb>  (4296) 
Z0719a

>  <HIPPO Compound ID>  (4296) 
144305

>  <name>  (4296) 
RRSRFVNOPSPCFZ-UHFFFAOYSA-N-P7-P7-P52-601529

>  <inspiration_score>  (4296) 
None

$$$$
YCVNJABGYWKKAF-UHFFFAOYSA-N-P7-P7-P52-601529
     RDKit          3D

 13 13  0  0  0  0  0  0  0  0999 V2000
   -1.9560    4.4096  -18.9810 C   0  0  0  0  0  0  0  0  0  0  0  0
   -2.7573    5.5393  -19.6100 C   0  0  2  0  0  0  0  0  0  0  0  0
   -2.5278    6.9138  -18.9695 C   0  0  0  0  0  0  0  0  0  0  0  0
   -1.1160    7.4366  -19.2113 C   0  0  0  0  0  0  0  0  0  0  0  0
   -0.9403    9.0749  -18.5350 Cl  0  0  0  0  0  0  0  0  0  0  0  0
   -4.1609    5.1957  -19.6864 N   0  0  0  0  0  0  0  0  0  0  0  0
   -5.1252    5.0773  -18.7333 C   0  0  0  0  0  0  0  0  0  0  0  0
   -4.9767    5.2107  -17.3532 C   0  0  0  0  0  0  0  0  0  0  0  0
   -6.0028    5.1378  -16.4650 N   0  0  0  0  0  0  0  0  0  0  0  0
   -7.1942    4.8854  -17.0298 C   0  0  0  0  0  0  0  0  0  0  0  0
   -8.2233    4.8256  -16.1535 O   0  0  0  0  0  0  0  0  0  0  0  0
   -7.3757    4.7193  -18.3843 C   0  0  0  0  0  0  0  0  0  0  0  0
   -6.3398    4.8131  -19.2477 N   0  0  0  0  0  0  0  0  0  0  0  0
  2  1  1  1
  2  3  1  0
  3  4  1  0
  4  5  1  0
  2  6  1  0
  6  7  1  0
  7  8  2  0
  8  9  1  0
  9 10  2  0
 10 11  1  0
 10 12  1  0
 12 13  2  0
 13  7  1  0
M  END
>  <energy_score>  (4297) 
-36.596445

>  <alias>  (4297) 
YCVNJABGYWKKAF-UHFFFAOYSA-N-P7-P7-P52-601529

>  <HIPPO Pose ID>  (4297) 
83571

>  <smiles>  (4297) 
CC(CCCl)Nc1cnc(O)cn1

>  <inchikey>  (4297) 
YCVNJABGYWKKAF-UHFFFAOYSA-N

>  <distance_score>  (4297) 
0.71305

>  <ref_mols>  (4297) 
Z0875a,Z0089a

>  <ref_pdb>  (4297) 
Z0719a

>  <HIPPO Compound ID>  (4297) 
144307

>  <name>  (4297) 
YCVNJABGYWKKAF-UHFFFAOYSA-N-P7-P7-P52-601529

>  <inspiration_score>  (4297) 
None

$$$$
MDPIHOOJGAYZNO-UHFFFAOYSA-N-P52-P7-P52-601529
     RDKit          3D

 13 13  0  0  0  0  0  0  0  0999 V2000
   -4.4438    6.2745  -16.0114 C   0  0  0  0  0  0  0  0  0  0  0  0
   -5.3501    5.5821  -16.9787 C   0  0  0  0  0  0  0  0  0  0  0  0
   -6.5069    5.1396  -16.4145 N   0  0  0  0  0  0  0  0  0  0  0  0
   -7.4146    4.5981  -17.2500 C   0  0  0  0  0  0  0  0  0  0  0  0
   -7.1827    4.4878  -18.6006 C   0  0  0  0  0  0  0  0  0  0  0  0
   -6.0216    4.8833  -19.1630 N   0  0  0  0  0  0  0  0  0  0  0  0
   -5.0958    5.4398  -18.3557 C   0  0  0  0  0  0  0  0  0  0  0  0
   -4.0177    5.9175  -19.0702 N   0  0  0  0  0  0  0  0  0  0  0  0
   -2.6333    5.7006  -18.6835 C   0  0  1  0  0  0  0  0  0  0  0  0
   -2.1008    4.3813  -19.2223 C   0  0  0  0  0  0  0  0  0  0  0  0
   -1.8001    6.9168  -19.1322 C   0  0  0  0  0  0  0  0  0  0  0  0
   -1.2381    6.9067  -20.5526 C   0  0  0  0  0  0  0  0  0  0  0  0
   -2.4903    6.8266  -21.8077 Cl  0  0  0  0  0  0  0  0  0  0  0  0
  1  2  1  0
  2  3  2  0
  3  4  1  0
  4  5  2  0
  5  6  1  0
  6  7  2  0
  7  8  1  0
  8  9  1  0
  9 10  1  6
  9 11  1  0
 11 12  1  0
 12 13  1  0
  7  2  1  0
M  END
>  <energy_score>  (4298) 
-27.740166

>  <alias>  (4298) 
MDPIHOOJGAYZNO-UHFFFAOYSA-N-P52-P7-P52-601529

>  <HIPPO Pose ID>  (4298) 
83574

>  <smiles>  (4298) 
Cc1nccnc1NC(C)CCCl

>  <inchikey>  (4298) 
MDPIHOOJGAYZNO-UHFFFAOYSA-N

>  <distance_score>  (4298) 
1.025862

>  <ref_mols>  (4298) 
Z0875a,Z0089a

>  <ref_pdb>  (4298) 
Z0719a

>  <HIPPO Compound ID>  (4298) 
144308

>  <name>  (4298) 
MDPIHOOJGAYZNO-UHFFFAOYSA-N-P52-P7-P52-601529

>  <inspiration_score>  (4298) 
None

$$$$
POTOHMRKYLQQFH-UHFFFAOYSA-N-P7-P7-P52-601529
     RDKit          3D

 13 14  0  0  0  0  0  0  0  0999 V2000
   -8.8528    4.5301  -15.3915 C   0  0  0  0  0  0  0  0  0  0  0  0
   -8.0157    4.7446  -16.2201 C   0  0  0  0  0  0  0  0  0  0  0  0
   -6.9925    4.9365  -17.1810 C   0  0  0  0  0  0  0  0  0  0  0  0
   -7.1645    4.5854  -18.5050 C   0  0  0  0  0  0  0  0  0  0  0  0
   -6.1778    4.7443  -19.4107 N   0  0  0  0  0  0  0  0  0  0  0  0
   -5.0241    5.2757  -18.9646 C   0  0  0  0  0  0  0  0  0  0  0  0
   -4.0726    5.5017  -19.9565 N   0  0  0  0  0  0  0  0  0  0  0  0
   -2.6296    5.5467  -19.7193 C   0  0  0  0  0  0  0  0  0  0  0  0
   -1.9744    4.2272  -19.3922 C   0  0  0  0  0  0  0  0  0  0  0  0
   -2.0123    6.8065  -19.1546 C   0  0  0  0  0  0  0  0  0  0  0  0
   -1.8226    6.4753  -20.6030 C   0  0  0  0  0  0  0  0  0  0  0  0
   -4.8672    5.6128  -17.6213 C   0  0  0  0  0  0  0  0  0  0  0  0
   -5.8461    5.4672  -16.6987 N   0  0  0  0  0  0  0  0  0  0  0  0
  1  2  3  0
  2  3  1  0
  3  4  2  0
  4  5  1  0
  5  6  2  0
  6  7  1  0
  7  8  1  0
  8  9  1  0
  8 10  1  0
 10 11  1  0
  6 12  1  0
 12 13  2  0
 13  3  1  0
 11  8  1  0
M  END
>  <energy_score>  (4299) 
-24.44627

>  <alias>  (4299) 
POTOHMRKYLQQFH-UHFFFAOYSA-N-P7-P7-P52-601529

>  <HIPPO Pose ID>  (4299) 
83579

>  <smiles>  (4299) 
C#Cc1cnc(NC2(C)CC2)cn1

>  <inchikey>  (4299) 
POTOHMRKYLQQFH-UHFFFAOYSA-N

>  <distance_score>  (4299) 
1.030424

>  <ref_mols>  (4299) 
Z0875a,Z0089a

>  <ref_pdb>  (4299) 
Z0719a

>  <HIPPO Compound ID>  (4299) 
144311

>  <name>  (4299) 
POTOHMRKYLQQFH-UHFFFAOYSA-N-P7-P7-P52-601529

>  <inspiration_score>  (4299) 
None

$$$$
UJVMGDGHCHCNLW-UHFFFAOYSA-N-P52-P7-P52-601529
     RDKit          3D

 13 14  0  0  0  0  0  0  0  0999 V2000
   -9.7208    4.1972  -17.6528 C   0  0  0  0  0  0  0  0  0  0  0  0
   -8.6562    4.1698  -18.5877 O   0  0  0  0  0  0  0  0  0  0  0  0
   -7.4464    4.6214  -18.1417 C   0  0  0  0  0  0  0  0  0  0  0  0
   -7.1460    4.9799  -16.8327 C   0  0  0  0  0  0  0  0  0  0  0  0
   -5.9278    5.4304  -16.4426 N   0  0  0  0  0  0  0  0  0  0  0  0
   -5.0081    5.4821  -17.4341 C   0  0  0  0  0  0  0  0  0  0  0  0
   -5.2813    5.1451  -18.7589 C   0  0  0  0  0  0  0  0  0  0  0  0
   -4.3624    5.2635  -19.8018 N   0  0  0  0  0  0  0  0  0  0  0  0
   -2.9550    5.6308  -19.6838 C   0  0  0  0  0  0  0  0  0  0  0  0
   -2.0223    4.4984  -19.3314 C   0  0  0  0  0  0  0  0  0  0  0  0
   -2.5759    7.0275  -19.2425 C   0  0  0  0  0  0  0  0  0  0  0  0
   -2.4205    6.6405  -20.6795 C   0  0  0  0  0  0  0  0  0  0  0  0
   -6.5052    4.6990  -19.1081 N   0  0  0  0  0  0  0  0  0  0  0  0
  1  2  1  0
  2  3  1  0
  3  4  2  0
  4  5  1  0
  5  6  2  0
  6  7  1  0
  7  8  1  0
  8  9  1  0
  9 10  1  0
  9 11  1  0
 11 12  1  0
  7 13  2  0
 13  3  1  0
 12  9  1  0
M  END
>  <energy_score>  (4300) 
-19.004387

>  <alias>  (4300) 
UJVMGDGHCHCNLW-UHFFFAOYSA-N-P52-P7-P52-601529

>  <HIPPO Pose ID>  (4300) 
83590

>  <smiles>  (4300) 
COc1cncc(NC2(C)CC2)n1

>  <inchikey>  (4300) 
UJVMGDGHCHCNLW-UHFFFAOYSA-N

>  <distance_score>  (4300) 
0.684792

>  <ref_mols>  (4300) 
Z0875a,Z0089a

>  <ref_pdb>  (4300) 
Z0719a

>  <HIPPO Compound ID>  (4300) 
144316

>  <name>  (4300) 
UJVMGDGHCHCNLW-UHFFFAOYSA-N-P52-P7-P52-601529

>  <inspiration_score>  (4300) 
None

$$$$
GBEFVHAJJAPBFB-UHFFFAOYSA-N-P7-P7-P52-601529
     RDKit          3D

 13 14  0  0  0  0  0  0  0  0999 V2000
   -2.0977    4.2840  -19.2675 C   0  0  0  0  0  0  0  0  0  0  0  0
   -2.8298    5.5731  -19.5494 C   0  0  0  0  0  0  0  0  0  0  0  0
   -4.2662    5.4488  -19.7951 N   0  0  0  0  0  0  0  0  0  0  0  0
   -5.2330    5.2006  -18.8210 C   0  0  0  0  0  0  0  0  0  0  0  0
   -5.1206    5.5319  -17.4734 C   0  0  0  0  0  0  0  0  0  0  0  0
   -6.1287    5.3807  -16.5726 N   0  0  0  0  0  0  0  0  0  0  0  0
   -7.2765    4.8399  -17.0662 C   0  0  0  0  0  0  0  0  0  0  0  0
   -8.4195    4.6192  -16.1100 C   0  0  0  0  0  0  0  0  0  0  0  0
   -9.6619    4.4624  -16.7913 O   0  0  0  0  0  0  0  0  0  0  0  0
   -7.3778    4.4853  -18.4043 C   0  0  0  0  0  0  0  0  0  0  0  0
   -6.3690    4.6581  -19.2891 N   0  0  0  0  0  0  0  0  0  0  0  0
   -2.2827    6.8499  -18.9515 C   0  0  0  0  0  0  0  0  0  0  0  0
   -2.0801    6.5715  -20.4087 C   0  0  0  0  0  0  0  0  0  0  0  0
  1  2  1  0
  2  3  1  0
  3  4  1  0
  4  5  2  0
  5  6  1  0
  6  7  2  0
  7  8  1  0
  8  9  1  0
  7 10  1  0
 10 11  2  0
  2 12  1  0
 12 13  1  0
 13  2  1  0
 11  4  1  0
M  END
>  <energy_score>  (4301) 
-21.624621

>  <alias>  (4301) 
GBEFVHAJJAPBFB-UHFFFAOYSA-N-P7-P7-P52-601529

>  <HIPPO Pose ID>  (4301) 
83593

>  <smiles>  (4301) 
CC1(Nc2cnc(CO)cn2)CC1

>  <inchikey>  (4301) 
GBEFVHAJJAPBFB-UHFFFAOYSA-N

>  <distance_score>  (4301) 
0.826656

>  <ref_mols>  (4301) 
Z0875a,Z0089a

>  <ref_pdb>  (4301) 
Z0719a

>  <HIPPO Compound ID>  (4301) 
144318

>  <name>  (4301) 
GBEFVHAJJAPBFB-UHFFFAOYSA-N-P7-P7-P52-601529

>  <inspiration_score>  (4301) 
None

$$$$
LKEWPVJFOPDELH-UHFFFAOYSA-N-P7-P7-P52-601529
     RDKit          3D

 13 13  0  0  0  0  0  0  0  0999 V2000
   -1.6546    3.6197  -19.7699 C   0  0  0  0  0  0  0  0  0  0  0  0
   -2.3869    4.4485  -19.0206 C   0  0  0  0  0  0  0  0  0  0  0  0
   -2.9818    5.7189  -19.5347 C   0  0  2  0  0  0  0  0  0  0  0  0
   -2.5184    6.9883  -18.7965 C   0  0  0  0  0  0  0  0  0  0  0  0
   -3.2822    8.1196  -19.2291 O   0  0  0  0  0  0  0  0  0  0  0  0
   -4.4317    5.6248  -19.5957 N   0  0  0  0  0  0  0  0  0  0  0  0
   -5.3124    5.2765  -18.6079 C   0  0  0  0  0  0  0  0  0  0  0  0
   -5.1229    5.4017  -17.2357 C   0  0  0  0  0  0  0  0  0  0  0  0
   -6.0684    5.1042  -16.3133 N   0  0  0  0  0  0  0  0  0  0  0  0
   -7.2424    4.6687  -16.8200 C   0  0  0  0  0  0  0  0  0  0  0  0
   -7.4642    4.5369  -18.1804 C   0  0  0  0  0  0  0  0  0  0  0  0
   -8.7938    4.1128  -18.7153 C   0  0  0  0  0  0  0  0  0  0  0  0
   -6.4948    4.8409  -19.0755 N   0  0  0  0  0  0  0  0  0  0  0  0
  1  2  2  0
  2  3  1  0
  3  4  1  1
  4  5  1  0
  3  6  1  0
  6  7  1  0
  7  8  2  0
  8  9  1  0
  9 10  2  0
 10 11  1  0
 11 12  1  0
 11 13  2  0
 13  7  1  0
M  END
>  <energy_score>  (4302) 
-36.81552

>  <alias>  (4302) 
LKEWPVJFOPDELH-UHFFFAOYSA-N-P7-P7-P52-601529

>  <HIPPO Pose ID>  (4302) 
83595

>  <smiles>  (4302) 
C=CC(CO)Nc1cncc(C)n1

>  <inchikey>  (4302) 
LKEWPVJFOPDELH-UHFFFAOYSA-N

>  <distance_score>  (4302) 
0.722536

>  <ref_mols>  (4302) 
Z0875a,Z0089a

>  <ref_pdb>  (4302) 
Z0719a

>  <HIPPO Compound ID>  (4302) 
144319

>  <name>  (4302) 
LKEWPVJFOPDELH-UHFFFAOYSA-N-P7-P7-P52-601529

>  <inspiration_score>  (4302) 
None

$$$$
IXMXYKJMIOCCSD-UHFFFAOYSA-N-P7-P7-P52-601529
     RDKit          3D

 13 13  0  0  0  0  0  0  0  0999 V2000
   -1.3291    5.4732  -20.7089 C   0  0  0  0  0  0  0  0  0  0  0  0
   -2.0265    4.8479  -19.7480 C   0  0  0  0  0  0  0  0  0  0  0  0
   -2.8896    5.5068  -18.6908 C   0  0  1  0  0  0  0  0  0  0  0  0
   -2.5221    6.9906  -18.4169 C   0  0  0  0  0  0  0  0  0  0  0  0
   -3.0375    7.8578  -19.4394 O   0  0  0  0  0  0  0  0  0  0  0  0
   -4.2498    5.4569  -19.1937 N   0  0  0  0  0  0  0  0  0  0  0  0
   -5.3453    5.1721  -18.4152 C   0  0  0  0  0  0  0  0  0  0  0  0
   -6.3675    4.6749  -19.1387 N   0  0  0  0  0  0  0  0  0  0  0  0
   -7.5294    4.4408  -18.4913 C   0  0  0  0  0  0  0  0  0  0  0  0
   -7.6758    4.6778  -17.1388 C   0  0  0  0  0  0  0  0  0  0  0  0
   -6.6782    5.1817  -16.3788 N   0  0  0  0  0  0  0  0  0  0  0  0
   -5.5267    5.4068  -17.0417 C   0  0  0  0  0  0  0  0  0  0  0  0
   -4.5828    5.9132  -16.2086 O   0  0  0  0  0  0  0  0  0  0  0  0
  1  2  2  0
  2  3  1  0
  3  4  1  6
  4  5  1  0
  3  6  1  0
  6  7  1  0
  7  8  2  0
  8  9  1  0
  9 10  2  0
 10 11  1  0
 11 12  2  0
 12 13  1  0
 12  7  1  0
M  END
>  <energy_score>  (4303) 
-44.081925

>  <alias>  (4303) 
IXMXYKJMIOCCSD-UHFFFAOYSA-N-P7-P7-P52-601529

>  <HIPPO Pose ID>  (4303) 
83601

>  <smiles>  (4303) 
C=CC(CO)Nc1nccnc1O

>  <inchikey>  (4303) 
IXMXYKJMIOCCSD-UHFFFAOYSA-N

>  <distance_score>  (4303) 
0.938419

>  <ref_mols>  (4303) 
Z0875a,Z0089a

>  <ref_pdb>  (4303) 
Z0719a

>  <HIPPO Compound ID>  (4303) 
144322

>  <name>  (4303) 
IXMXYKJMIOCCSD-UHFFFAOYSA-N-P7-P7-P52-601529

>  <inspiration_score>  (4303) 
None

$$$$
WHFBCVTXKSEUTA-UHFFFAOYSA-N-P7-P7-P52-601529
     RDKit          3D

 13 13  0  0  0  0  0  0  0  0999 V2000
   -1.8169    3.5114  -19.4735 C   0  0  0  0  0  0  0  0  0  0  0  0
   -1.9167    4.8175  -19.7336 C   0  0  0  0  0  0  0  0  0  0  0  0
   -2.7769    5.7347  -18.9083 C   0  0  1  0  0  0  0  0  0  0  0  0
   -2.2439    7.1834  -18.9402 C   0  0  0  0  0  0  0  0  0  0  0  0
   -1.0481    7.3146  -18.1713 O   0  0  0  0  0  0  0  0  0  0  0  0
   -4.1212    5.7028  -19.4584 N   0  0  0  0  0  0  0  0  0  0  0  0
   -5.1760    5.4335  -18.5984 C   0  0  0  0  0  0  0  0  0  0  0  0
   -5.2809    5.9123  -17.2915 C   0  0  0  0  0  0  0  0  0  0  0  0
   -6.3441    5.6819  -16.4870 N   0  0  0  0  0  0  0  0  0  0  0  0
   -7.3380    4.9482  -17.0411 C   0  0  0  0  0  0  0  0  0  0  0  0
   -8.5124    4.6202  -16.1795 C   0  0  0  0  0  0  0  0  0  0  0  0
   -7.2490    4.4840  -18.3464 C   0  0  0  0  0  0  0  0  0  0  0  0
   -6.1699    4.7076  -19.1330 N   0  0  0  0  0  0  0  0  0  0  0  0
  1  2  2  0
  2  3  1  0
  3  4  1  6
  4  5  1  0
  3  6  1  0
  6  7  1  0
  7  8  2  0
  8  9  1  0
  9 10  2  0
 10 11  1  0
 10 12  1  0
 12 13  2  0
 13  7  1  0
M  END
>  <energy_score>  (4304) 
-20.06187

>  <alias>  (4304) 
WHFBCVTXKSEUTA-UHFFFAOYSA-N-P7-P7-P52-601529

>  <HIPPO Pose ID>  (4304) 
83603

>  <smiles>  (4304) 
C=CC(CO)Nc1cnc(C)cn1

>  <inchikey>  (4304) 
WHFBCVTXKSEUTA-UHFFFAOYSA-N

>  <distance_score>  (4304) 
0.74299

>  <ref_mols>  (4304) 
Z0875a,Z0089a

>  <ref_pdb>  (4304) 
Z0719a

>  <HIPPO Compound ID>  (4304) 
144323

>  <name>  (4304) 
WHFBCVTXKSEUTA-UHFFFAOYSA-N-P7-P7-P52-601529

>  <inspiration_score>  (4304) 
None

$$$$
HAQQAGOBCBGNLE-UHFFFAOYSA-N-P52-P7-P52-601529
     RDKit          3D

 13 13  0  0  0  0  0  0  0  0999 V2000
   -0.5483    5.3399  -19.4785 C   0  0  0  0  0  0  0  0  0  0  0  0
   -1.7433    4.7338  -19.4332 C   0  0  0  0  0  0  0  0  0  0  0  0
   -3.1094    5.3853  -19.4343 C   0  0  2  0  0  0  0  0  0  0  0  0
   -3.1257    6.8790  -19.8514 C   0  0  0  0  0  0  0  0  0  0  0  0
   -2.5944    7.7244  -18.8225 O   0  0  0  0  0  0  0  0  0  0  0  0
   -3.6197    5.2943  -18.0688 N   0  0  0  0  0  0  0  0  0  0  0  0
   -5.0173    5.1933  -17.9383 C   0  0  0  0  0  0  0  0  0  0  0  0
   -5.7564    4.8266  -19.0034 N   0  0  0  0  0  0  0  0  0  0  0  0
   -7.0843    4.6709  -18.7958 C   0  0  0  0  0  0  0  0  0  0  0  0
   -7.6751    4.9073  -17.5733 C   0  0  0  0  0  0  0  0  0  0  0  0
   -6.9674    5.3185  -16.5010 N   0  0  0  0  0  0  0  0  0  0  0  0
   -5.6272    5.4305  -16.6876 C   0  0  0  0  0  0  0  0  0  0  0  0
   -4.8336    5.8643  -15.4907 C   0  0  0  0  0  0  0  0  0  0  0  0
  1  2  2  0
  2  3  1  0
  3  4  1  1
  4  5  1  0
  3  6  1  0
  6  7  1  0
  7  8  2  0
  8  9  1  0
  9 10  2  0
 10 11  1  0
 11 12  2  0
 12 13  1  0
 12  7  1  0
M  END
>  <energy_score>  (4305) 
-27.214707

>  <alias>  (4305) 
HAQQAGOBCBGNLE-UHFFFAOYSA-N-P52-P7-P52-601529

>  <HIPPO Pose ID>  (4305) 
83608

>  <smiles>  (4305) 
C=CC(CO)Nc1nccnc1C

>  <inchikey>  (4305) 
HAQQAGOBCBGNLE-UHFFFAOYSA-N

>  <distance_score>  (4305) 
1.176531

>  <ref_mols>  (4305) 
Z0875a,Z0089a

>  <ref_pdb>  (4305) 
Z0719a

>  <HIPPO Compound ID>  (4305) 
144325

>  <name>  (4305) 
HAQQAGOBCBGNLE-UHFFFAOYSA-N-P52-P7-P52-601529

>  <inspiration_score>  (4305) 
None

$$$$
ULHLGBLJAZUFTH-UHFFFAOYSA-N-P7-P7-P52-601529
     RDKit          3D

 13 13  0  0  0  0  0  0  0  0999 V2000
   -6.0038    4.8316  -15.3627 C   0  0  0  0  0  0  0  0  0  0  0  0
   -6.0677    4.8326  -16.8220 N   0  0  0  0  0  0  0  0  0  0  0  0
   -7.2340    4.6035  -17.4649 C   0  0  0  0  0  0  0  0  0  0  0  0
   -7.2246    4.5926  -18.8402 C   0  0  0  0  0  0  0  0  0  0  0  0
   -6.0956    4.8113  -19.5435 N   0  0  0  0  0  0  0  0  0  0  0  0
   -4.9408    5.0369  -18.9041 C   0  0  0  0  0  0  0  0  0  0  0  0
   -3.8686    5.2133  -19.7333 N   0  0  0  0  0  0  0  0  0  0  0  0
   -2.5167    5.7257  -19.4603 C   0  0  0  0  0  0  0  0  0  0  0  0
   -1.7347    4.6770  -18.6683 C   0  0  0  0  0  0  0  0  0  0  0  0
   -2.5668    7.0676  -18.7186 C   0  0  0  0  0  0  0  0  0  0  0  0
   -1.7107    5.9271  -20.7765 C   0  0  0  0  0  0  0  0  0  0  0  0
   -2.6018    6.8690  -21.9990 Cl  0  0  0  0  0  0  0  0  0  0  0  0
   -4.9259    5.0299  -17.5224 C   0  0  0  0  0  0  0  0  0  0  0  0
  1  2  1  0
  2  3  2  0
  3  4  1  0
  4  5  2  0
  5  6  1  0
  6  7  1  0
  7  8  1  0
  8  9  1  0
  8 10  1  0
  8 11  1  0
 11 12  1  0
  6 13  2  0
 13  2  1  0
M  CHG  1   2   1
M  END
>  <energy_score>  (4306) 
-32.429262

>  <alias>  (4306) 
ULHLGBLJAZUFTH-UHFFFAOYSA-N-P7-P7-P52-601529

>  <HIPPO Pose ID>  (4306) 
83609

>  <smiles>  (4306) 
C[n+]1ccnc(NC(C)(C)CCl)c1

>  <inchikey>  (4306) 
ULHLGBLJAZUFTH-UHFFFAOYSA-N

>  <distance_score>  (4306) 
1.036698

>  <ref_mols>  (4306) 
Z0875a,Z0089a

>  <ref_pdb>  (4306) 
Z0719a

>  <HIPPO Compound ID>  (4306) 
144326

>  <name>  (4306) 
ULHLGBLJAZUFTH-UHFFFAOYSA-N-P7-P7-P52-601529

>  <inspiration_score>  (4306) 
None

$$$$
ONHVOLUBUXJDAZ-UHFFFAOYSA-N-P7-P7-P52-601529
     RDKit          3D

 13 13  0  0  0  0  0  0  0  0999 V2000
   -1.7346    4.7436  -18.5088 C   0  0  0  0  0  0  0  0  0  0  0  0
   -2.5600    5.7229  -19.3417 C   0  0  0  0  0  0  0  0  0  0  0  0
   -2.6372    7.1024  -18.6779 C   0  0  0  0  0  0  0  0  0  0  0  0
   -1.7696    5.8622  -20.6732 C   0  0  0  0  0  0  0  0  0  0  0  0
   -2.6354    6.7913  -21.9242 Cl  0  0  0  0  0  0  0  0  0  0  0  0
   -3.8882    5.1468  -19.5752 N   0  0  0  0  0  0  0  0  0  0  0  0
   -4.9515    5.0679  -18.7079 C   0  0  0  0  0  0  0  0  0  0  0  0
   -4.9164    5.1084  -17.3120 C   0  0  0  0  0  0  0  0  0  0  0  0
   -6.0126    5.0368  -16.5108 N   0  0  0  0  0  0  0  0  0  0  0  0
   -7.1631    4.8693  -17.1778 C   0  0  0  0  0  0  0  0  0  0  0  0
   -8.2563    4.7850  -16.3855 O   0  0  0  0  0  0  0  0  0  0  0  0
   -7.2393    4.7977  -18.5504 C   0  0  0  0  0  0  0  0  0  0  0  0
   -6.1335    4.9028  -19.3268 N   0  0  0  0  0  0  0  0  0  0  0  0
  1  2  1  0
  2  3  1  0
  2  4  1  0
  4  5  1  0
  2  6  1  0
  6  7  1  0
  7  8  2  0
  8  9  1  0
  9 10  2  0
 10 11  1  0
 10 12  1  0
 12 13  2  0
 13  7  1  0
M  END
>  <energy_score>  (4307) 
-44.656641

>  <alias>  (4307) 
ONHVOLUBUXJDAZ-UHFFFAOYSA-N-P7-P7-P52-601529

>  <HIPPO Pose ID>  (4307) 
83617

>  <smiles>  (4307) 
CC(C)(CCl)Nc1cnc(O)cn1

>  <inchikey>  (4307) 
ONHVOLUBUXJDAZ-UHFFFAOYSA-N

>  <distance_score>  (4307) 
0.786594

>  <ref_mols>  (4307) 
Z0875a,Z0089a

>  <ref_pdb>  (4307) 
Z0719a

>  <HIPPO Compound ID>  (4307) 
144330

>  <name>  (4307) 
ONHVOLUBUXJDAZ-UHFFFAOYSA-N-P7-P7-P52-601529

>  <inspiration_score>  (4307) 
None

$$$$
WOLDGOCHBHNNGP-UHFFFAOYSA-N-P52-P7-P52-601529
     RDKit          3D

 13 13  0  0  0  0  0  0  0  0999 V2000
   -1.9882    4.6334  -18.8823 C   0  0  0  0  0  0  0  0  0  0  0  0
   -2.8356    5.6684  -19.6025 C   0  0  2  0  0  0  0  0  0  0  0  0
   -2.7226    7.0753  -19.0034 C   0  0  0  0  0  0  0  0  0  0  0  0
   -1.1134    8.2058  -19.9355 I   0  0  0  0  0  0  0  0  0  0  0  0
   -4.1955    5.1983  -19.7427 N   0  0  0  0  0  0  0  0  0  0  0  0
   -5.2404    5.0659  -18.8616 C   0  0  0  0  0  0  0  0  0  0  0  0
   -6.3095    4.5195  -19.3876 N   0  0  0  0  0  0  0  0  0  0  0  0
   -7.4471    4.4716  -18.6339 C   0  0  0  0  0  0  0  0  0  0  0  0
   -7.5787    5.0295  -17.4288 C   0  0  0  0  0  0  0  0  0  0  0  0
   -6.5136    5.6614  -16.8372 N   0  0  0  0  0  0  0  0  0  0  0  0
   -6.6377    6.2823  -15.5555 C   0  0  0  0  0  0  0  0  0  0  0  0
   -5.2448    5.5745  -17.3886 C   0  0  0  0  0  0  0  0  0  0  0  0
   -4.2304    5.9101  -16.7916 O   0  0  0  0  0  0  0  0  0  0  0  0
  2  1  1  1
  2  3  1  0
  3  4  1  0
  2  5  1  0
  5  6  1  0
  6  7  2  0
  7  8  1  0
  8  9  2  0
  9 10  1  0
 10 11  1  0
 10 12  1  0
 12 13  2  0
 12  6  1  0
M  END
>  <energy_score>  (4308) 
-140.404268

>  <alias>  (4308) 
WOLDGOCHBHNNGP-UHFFFAOYSA-N-P52-P7-P52-601529

>  <HIPPO Pose ID>  (4308) 
83626

>  <smiles>  (4308) 
CC(CI)Nc1nccn(C)c1=O

>  <inchikey>  (4308) 
WOLDGOCHBHNNGP-UHFFFAOYSA-N

>  <distance_score>  (4308) 
1.145381

>  <ref_mols>  (4308) 
Z0875a,Z0089a

>  <ref_pdb>  (4308) 
Z0719a

>  <HIPPO Compound ID>  (4308) 
144334

>  <name>  (4308) 
WOLDGOCHBHNNGP-UHFFFAOYSA-N-P52-P7-P52-601529

>  <inspiration_score>  (4308) 
None

$$$$
QGYVRIYWUVCWNL-UHFFFAOYSA-N-P7-P7-P52-601529
     RDKit          3D

 13 13  0  0  0  0  0  0  0  0999 V2000
   -2.1668    4.2447  -19.2271 C   0  0  0  0  0  0  0  0  0  0  0  0
   -2.7450    5.5520  -18.6891 C   0  0  1  0  0  0  0  0  0  0  0  0
   -1.9418    6.7835  -19.1533 C   0  0  0  0  0  0  0  0  0  0  0  0
   -1.9660    7.0959  -21.2936 I   0  0  0  0  0  0  0  0  0  0  0  0
   -4.1409    5.7093  -19.0803 N   0  0  0  0  0  0  0  0  0  0  0  0
   -5.2284    5.3169  -18.3362 C   0  0  0  0  0  0  0  0  0  0  0  0
   -6.1736    4.7560  -19.1224 N   0  0  0  0  0  0  0  0  0  0  0  0
   -7.3594    4.4400  -18.5567 C   0  0  0  0  0  0  0  0  0  0  0  0
   -7.6035    4.6414  -17.2164 C   0  0  0  0  0  0  0  0  0  0  0  0
   -6.6843    5.1934  -16.3961 N   0  0  0  0  0  0  0  0  0  0  0  0
   -5.4941    5.5268  -16.9732 C   0  0  0  0  0  0  0  0  0  0  0  0
   -4.6060    6.2031  -16.0706 C   0  0  0  0  0  0  0  0  0  0  0  0
   -3.8779    6.7526  -15.3469 N   0  0  0  0  0  0  0  0  0  0  0  0
  2  1  1  6
  2  3  1  0
  3  4  1  0
  2  5  1  0
  5  6  1  0
  6  7  2  0
  7  8  1  0
  8  9  2  0
  9 10  1  0
 10 11  2  0
 11 12  1  0
 12 13  3  0
 11  6  1  0
M  END
>  <energy_score>  (4309) 
-27.266716

>  <alias>  (4309) 
QGYVRIYWUVCWNL-UHFFFAOYSA-N-P7-P7-P52-601529

>  <HIPPO Pose ID>  (4309) 
83627

>  <smiles>  (4309) 
CC(CI)Nc1nccnc1C#N

>  <inchikey>  (4309) 
QGYVRIYWUVCWNL-UHFFFAOYSA-N

>  <distance_score>  (4309) 
0.812002

>  <ref_mols>  (4309) 
Z0875a,Z0089a

>  <ref_pdb>  (4309) 
Z0719a

>  <HIPPO Compound ID>  (4309) 
144335

>  <name>  (4309) 
QGYVRIYWUVCWNL-UHFFFAOYSA-N-P7-P7-P52-601529

>  <inspiration_score>  (4309) 
None

$$$$
REIYXOJERIBZIE-UHFFFAOYSA-N-P7-P7-P52-601529
     RDKit          3D

 13 13  0  0  0  0  0  0  0  0999 V2000
   -1.5841    4.4310  -19.6465 C   0  0  0  0  0  0  0  0  0  0  0  0
   -2.5835    5.3955  -19.0123 C   0  0  1  0  0  0  0  0  0  0  0  0
   -2.3543    6.8671  -19.3893 C   0  0  0  0  0  0  0  0  0  0  0  0
   -2.6417    7.3066  -21.4741 I   0  0  0  0  0  0  0  0  0  0  0  0
   -3.9256    4.9552  -19.3364 N   0  0  0  0  0  0  0  0  0  0  0  0
   -4.9850    4.9516  -18.4665 C   0  0  0  0  0  0  0  0  0  0  0  0
   -4.9009    4.9615  -17.0771 C   0  0  0  0  0  0  0  0  0  0  0  0
   -5.9725    4.8749  -16.2559 N   0  0  0  0  0  0  0  0  0  0  0  0
   -7.1706    4.7093  -16.8713 C   0  0  0  0  0  0  0  0  0  0  0  0
   -8.3697    4.5428  -15.9813 C   0  0  0  0  0  0  0  0  0  0  0  0
   -9.5397    4.1627  -16.6969 O   0  0  0  0  0  0  0  0  0  0  0  0
   -7.2646    4.7208  -18.2555 C   0  0  0  0  0  0  0  0  0  0  0  0
   -6.1837    4.8579  -19.0609 N   0  0  0  0  0  0  0  0  0  0  0  0
  2  1  1  6
  2  3  1  0
  3  4  1  0
  2  5  1  0
  5  6  1  0
  6  7  2  0
  7  8  1  0
  8  9  2  0
  9 10  1  0
 10 11  1  0
  9 12  1  0
 12 13  2  0
 13  6  1  0
M  END
>  <energy_score>  (4310) 
-34.839431

>  <alias>  (4310) 
REIYXOJERIBZIE-UHFFFAOYSA-N-P7-P7-P52-601529

>  <HIPPO Pose ID>  (4310) 
83629

>  <smiles>  (4310) 
CC(CI)Nc1cnc(CO)cn1

>  <inchikey>  (4310) 
REIYXOJERIBZIE-UHFFFAOYSA-N

>  <distance_score>  (4310) 
0.742274

>  <ref_mols>  (4310) 
Z0875a,Z0089a

>  <ref_pdb>  (4310) 
Z0719a

>  <HIPPO Compound ID>  (4310) 
144336

>  <name>  (4310) 
REIYXOJERIBZIE-UHFFFAOYSA-N-P7-P7-P52-601529

>  <inspiration_score>  (4310) 
None

$$$$
FCXXSBIRIMGOMU-UHFFFAOYSA-N-P7-P7-P52-601529
     RDKit          3D

 13 13  0  0  0  0  0  0  0  0999 V2000
   -9.5061    4.0523  -16.8173 C   0  0  0  0  0  0  0  0  0  0  0  0
   -8.3219    4.7098  -16.1419 C   0  0  0  0  0  0  0  0  0  0  0  0
   -7.1299    4.9112  -17.0238 C   0  0  0  0  0  0  0  0  0  0  0  0
   -7.1726    4.8263  -18.4095 C   0  0  0  0  0  0  0  0  0  0  0  0
   -6.0671    4.9188  -19.1791 N   0  0  0  0  0  0  0  0  0  0  0  0
   -4.8995    5.0951  -18.5457 C   0  0  0  0  0  0  0  0  0  0  0  0
   -3.8232    5.0999  -19.3858 N   0  0  0  0  0  0  0  0  0  0  0  0
   -2.4741    5.4906  -19.0399 C   0  0  1  0  0  0  0  0  0  0  0  0
   -1.5404    4.4238  -19.6123 C   0  0  0  0  0  0  0  0  0  0  0  0
   -2.1246    6.8679  -19.6234 C   0  0  0  0  0  0  0  0  0  0  0  0
   -3.0551    8.4862  -18.5568 I   0  0  0  0  0  0  0  0  0  0  0  0
   -4.8659    5.2114  -17.1601 C   0  0  0  0  0  0  0  0  0  0  0  0
   -5.9649    5.1519  -16.3774 N   0  0  0  0  0  0  0  0  0  0  0  0
  1  2  1  0
  2  3  1  0
  3  4  2  0
  4  5  1  0
  5  6  2  0
  6  7  1  0
  7  8  1  0
  8  9  1  6
  8 10  1  0
 10 11  1  0
  6 12  1  0
 12 13  2  0
 13  3  1  0
M  END
>  <energy_score>  (4311) 
-19.880358

>  <alias>  (4311) 
FCXXSBIRIMGOMU-UHFFFAOYSA-N-P7-P7-P52-601529

>  <HIPPO Pose ID>  (4311) 
83639

>  <smiles>  (4311) 
CCc1cnc(NC(C)CI)cn1

>  <inchikey>  (4311) 
FCXXSBIRIMGOMU-UHFFFAOYSA-N

>  <distance_score>  (4311) 
0.789227

>  <ref_mols>  (4311) 
Z0875a,Z0089a

>  <ref_pdb>  (4311) 
Z0719a

>  <HIPPO Compound ID>  (4311) 
144341

>  <name>  (4311) 
FCXXSBIRIMGOMU-UHFFFAOYSA-N-P7-P7-P52-601529

>  <inspiration_score>  (4311) 
None

$$$$
PBVSNTGDJLCWDT-UHFFFAOYSA-N-P7-P7-P52-601529
     RDKit          3D

 13 13  0  0  0  0  0  0  0  0999 V2000
   -1.8196    4.2736  -19.6107 C   0  0  0  0  0  0  0  0  0  0  0  0
   -2.7343    5.3288  -18.9922 C   0  0  1  0  0  0  0  0  0  0  0  0
   -2.3896    6.7687  -19.4052 C   0  0  0  0  0  0  0  0  0  0  0  0
   -2.6554    7.1848  -21.4921 I   0  0  0  0  0  0  0  0  0  0  0  0
   -4.1262    5.0030  -19.2591 N   0  0  0  0  0  0  0  0  0  0  0  0
   -5.1606    5.0636  -18.3590 C   0  0  0  0  0  0  0  0  0  0  0  0
   -5.0285    5.4783  -17.0278 C   0  0  0  0  0  0  0  0  0  0  0  0
   -6.0421    5.5041  -16.1318 N   0  0  0  0  0  0  0  0  0  0  0  0
   -7.2180    5.0485  -16.6083 C   0  0  0  0  0  0  0  0  0  0  0  0
   -7.3827    4.6426  -17.9225 C   0  0  0  0  0  0  0  0  0  0  0  0
   -8.6777    4.1838  -18.3159 C   0  0  0  0  0  0  0  0  0  0  0  0
   -9.7804    3.8361  -18.4214 N   0  0  0  0  0  0  0  0  0  0  0  0
   -6.3623    4.6550  -18.8203 N   0  0  0  0  0  0  0  0  0  0  0  0
  2  1  1  6
  2  3  1  0
  3  4  1  0
  2  5  1  0
  5  6  1  0
  6  7  2  0
  7  8  1  0
  8  9  2  0
  9 10  1  0
 10 11  1  0
 11 12  3  0
 10 13  2  0
 13  6  1  0
M  END
>  <energy_score>  (4312) 
-21.251454

>  <alias>  (4312) 
PBVSNTGDJLCWDT-UHFFFAOYSA-N-P7-P7-P52-601529

>  <HIPPO Pose ID>  (4312) 
83641

>  <smiles>  (4312) 
CC(CI)Nc1cncc(C#N)n1

>  <inchikey>  (4312) 
PBVSNTGDJLCWDT-UHFFFAOYSA-N

>  <distance_score>  (4312) 
0.726406

>  <ref_mols>  (4312) 
Z0875a,Z0089a

>  <ref_pdb>  (4312) 
Z0719a

>  <HIPPO Compound ID>  (4312) 
144342

>  <name>  (4312) 
PBVSNTGDJLCWDT-UHFFFAOYSA-N-P7-P7-P52-601529

>  <inspiration_score>  (4312) 
None

$$$$
HIHPDJNNSIHUQR-UHFFFAOYSA-N-P7-P7-P52-601529
     RDKit          3D

 13 13  0  0  0  0  0  0  0  0999 V2000
   -2.1007    4.3609  -19.2701 C   0  0  0  0  0  0  0  0  0  0  0  0
   -2.7114    5.5079  -18.4569 C   0  0  1  0  0  0  0  0  0  0  0  0
   -1.9213    6.8164  -18.6567 C   0  0  0  0  0  0  0  0  0  0  0  0
   -0.0427    6.8258  -17.6100 I   0  0  0  0  0  0  0  0  0  0  0  0
   -4.0756    5.7526  -18.9251 N   0  0  0  0  0  0  0  0  0  0  0  0
   -5.1988    5.3579  -18.2378 C   0  0  0  0  0  0  0  0  0  0  0  0
   -6.0960    4.8234  -19.1020 N   0  0  0  0  0  0  0  0  0  0  0  0
   -7.3067    4.4648  -18.6236 C   0  0  0  0  0  0  0  0  0  0  0  0
   -7.6301    4.5992  -17.2942 C   0  0  0  0  0  0  0  0  0  0  0  0
   -6.7678    5.1225  -16.3991 N   0  0  0  0  0  0  0  0  0  0  0  0
   -5.5478    5.5055  -16.8848 C   0  0  0  0  0  0  0  0  0  0  0  0
   -4.7532    6.1564  -15.8053 C   0  0  0  0  0  0  0  0  0  0  0  0
   -3.7290    6.8123  -15.9336 O   0  0  0  0  0  0  0  0  0  0  0  0
  2  1  1  6
  2  3  1  0
  3  4  1  0
  2  5  1  0
  5  6  1  0
  6  7  2  0
  7  8  1  0
  8  9  2  0
  9 10  1  0
 10 11  2  0
 11 12  1  0
 12 13  2  0
 11  6  1  0
M  END
>  <energy_score>  (4313) 
-31.757382

>  <alias>  (4313) 
HIHPDJNNSIHUQR-UHFFFAOYSA-N-P7-P7-P52-601529

>  <HIPPO Pose ID>  (4313) 
83643

>  <smiles>  (4313) 
CC(CI)Nc1nccnc1C=O

>  <inchikey>  (4313) 
HIHPDJNNSIHUQR-UHFFFAOYSA-N

>  <distance_score>  (4313) 
0.922743

>  <ref_mols>  (4313) 
Z0875a,Z0089a

>  <ref_pdb>  (4313) 
Z0719a

>  <HIPPO Compound ID>  (4313) 
144343

>  <name>  (4313) 
HIHPDJNNSIHUQR-UHFFFAOYSA-N-P7-P7-P52-601529

>  <inspiration_score>  (4313) 
None

$$$$
NBZITWRDGCEFTA-UHFFFAOYSA-N-P7-P7-P52-601529
     RDKit          3D

 13 13  0  0  0  0  0  0  0  0999 V2000
   -1.6323    4.4223  -19.6849 C   0  0  0  0  0  0  0  0  0  0  0  0
   -2.4516    5.4136  -18.8589 C   0  0  1  0  0  0  0  0  0  0  0  0
   -1.7760    6.7974  -18.8071 C   0  0  0  0  0  0  0  0  0  0  0  0
   -0.1526    6.8608  -17.3996 I   0  0  0  0  0  0  0  0  0  0  0  0
   -3.7625    5.5857  -19.4843 N   0  0  0  0  0  0  0  0  0  0  0  0
   -4.8753    5.3868  -18.6833 C   0  0  0  0  0  0  0  0  0  0  0  0
   -5.0496    5.8927  -17.3977 C   0  0  0  0  0  0  0  0  0  0  0  0
   -6.1570    5.6710  -16.6520 N   0  0  0  0  0  0  0  0  0  0  0  0
   -7.1208    4.9147  -17.2422 C   0  0  0  0  0  0  0  0  0  0  0  0
   -8.2862    4.5475  -16.3810 C   0  0  0  0  0  0  0  0  0  0  0  0
   -9.8802    4.1398  -17.4007 Br  0  0  0  0  0  0  0  0  0  0  0  0
   -6.9503    4.4433  -18.5394 C   0  0  0  0  0  0  0  0  0  0  0  0
   -5.8345    4.6637  -19.2665 N   0  0  0  0  0  0  0  0  0  0  0  0
  2  1  1  6
  2  3  1  0
  3  4  1  0
  2  5  1  0
  5  6  1  0
  6  7  2  0
  7  8  1  0
  8  9  2  0
  9 10  1  0
 10 11  1  0
  9 12  1  0
 12 13  2  0
 13  6  1  0
M  END
>  <energy_score>  (4314) 
-19.401625

>  <alias>  (4314) 
NBZITWRDGCEFTA-UHFFFAOYSA-N-P7-P7-P52-601529

>  <HIPPO Pose ID>  (4314) 
83645

>  <smiles>  (4314) 
CC(CI)Nc1cnc(CBr)cn1

>  <inchikey>  (4314) 
NBZITWRDGCEFTA-UHFFFAOYSA-N

>  <distance_score>  (4314) 
0.884035

>  <ref_mols>  (4314) 
Z0875a,Z0089a

>  <ref_pdb>  (4314) 
Z0719a

>  <HIPPO Compound ID>  (4314) 
144344

>  <name>  (4314) 
NBZITWRDGCEFTA-UHFFFAOYSA-N-P7-P7-P52-601529

>  <inspiration_score>  (4314) 
None

$$$$
UESHVDWHDIBFLE-UHFFFAOYSA-N-P7-P7-P52-601529
     RDKit          3D

 13 13  0  0  0  0  0  0  0  0999 V2000
   -9.3149    4.2087  -16.5494 C   0  0  0  0  0  0  0  0  0  0  0  0
   -8.2863    5.1174  -16.1913 O   0  0  0  0  0  0  0  0  0  0  0  0
   -7.2024    5.0564  -17.0117 C   0  0  0  0  0  0  0  0  0  0  0  0
   -7.2556    4.8746  -18.3866 C   0  0  0  0  0  0  0  0  0  0  0  0
   -6.1450    4.8522  -19.1585 N   0  0  0  0  0  0  0  0  0  0  0  0
   -4.9707    5.0140  -18.5291 C   0  0  0  0  0  0  0  0  0  0  0  0
   -3.8884    4.9539  -19.3644 N   0  0  0  0  0  0  0  0  0  0  0  0
   -2.5567    5.4297  -19.0454 C   0  0  1  0  0  0  0  0  0  0  0  0
   -1.5745    4.3967  -19.6011 C   0  0  0  0  0  0  0  0  0  0  0  0
   -2.2789    6.8053  -19.6718 C   0  0  0  0  0  0  0  0  0  0  0  0
   -3.2490    8.4164  -18.6336 I   0  0  0  0  0  0  0  0  0  0  0  0
   -4.9343    5.1899  -17.1474 C   0  0  0  0  0  0  0  0  0  0  0  0
   -6.0361    5.2505  -16.3682 N   0  0  0  0  0  0  0  0  0  0  0  0
  1  2  1  0
  2  3  1  0
  3  4  2  0
  4  5  1  0
  5  6  2  0
  6  7  1  0
  7  8  1  0
  8  9  1  6
  8 10  1  0
 10 11  1  0
  6 12  1  0
 12 13  2  0
 13  3  1  0
M  END
>  <energy_score>  (4315) 
-42.371668

>  <alias>  (4315) 
UESHVDWHDIBFLE-UHFFFAOYSA-N-P7-P7-P52-601529

>  <HIPPO Pose ID>  (4315) 
83651

>  <smiles>  (4315) 
COc1cnc(NC(C)CI)cn1

>  <inchikey>  (4315) 
UESHVDWHDIBFLE-UHFFFAOYSA-N

>  <distance_score>  (4315) 
0.746889

>  <ref_mols>  (4315) 
Z0875a,Z0089a

>  <ref_pdb>  (4315) 
Z0719a

>  <HIPPO Compound ID>  (4315) 
144347

>  <name>  (4315) 
UESHVDWHDIBFLE-UHFFFAOYSA-N-P7-P7-P52-601529

>  <inspiration_score>  (4315) 
None

$$$$
NMHJZQLPFXUBKZ-UHFFFAOYSA-N-P7-P7-P52-601529
     RDKit          3D

 13 13  0  0  0  0  0  0  0  0999 V2000
   -1.9233    4.2412  -19.4375 C   0  0  0  0  0  0  0  0  0  0  0  0
   -2.6211    5.5090  -18.9480 C   0  0  1  0  0  0  0  0  0  0  0  0
   -1.9106    6.7510  -19.5138 C   0  0  0  0  0  0  0  0  0  0  0  0
   -2.5552    8.5657  -18.5437 I   0  0  0  0  0  0  0  0  0  0  0  0
   -4.0069    5.4979  -19.3910 N   0  0  0  0  0  0  0  0  0  0  0  0
   -5.0701    5.2369  -18.5630 C   0  0  0  0  0  0  0  0  0  0  0  0
   -5.1365    5.5481  -17.2026 C   0  0  0  0  0  0  0  0  0  0  0  0
   -6.2267    5.3293  -16.4293 N   0  0  0  0  0  0  0  0  0  0  0  0
   -7.2750    4.7776  -17.0888 C   0  0  0  0  0  0  0  0  0  0  0  0
   -8.4688    4.5036  -16.2845 C   0  0  0  0  0  0  0  0  0  0  0  0
   -9.4950    4.0576  -16.7810 O   0  0  0  0  0  0  0  0  0  0  0  0
   -7.2431    4.4843  -18.4389 C   0  0  0  0  0  0  0  0  0  0  0  0
   -6.1317    4.6964  -19.1863 N   0  0  0  0  0  0  0  0  0  0  0  0
  2  1  1  6
  2  3  1  0
  3  4  1  0
  2  5  1  0
  5  6  1  0
  6  7  2  0
  7  8  1  0
  8  9  2  0
  9 10  1  0
 10 11  2  0
  9 12  1  0
 12 13  2  0
 13  6  1  0
M  END
>  <energy_score>  (4316) 
-29.553101

>  <alias>  (4316) 
NMHJZQLPFXUBKZ-UHFFFAOYSA-N-P7-P7-P52-601529

>  <HIPPO Pose ID>  (4316) 
83653

>  <smiles>  (4316) 
CC(CI)Nc1cnc(C=O)cn1

>  <inchikey>  (4316) 
NMHJZQLPFXUBKZ-UHFFFAOYSA-N

>  <distance_score>  (4316) 
0.695164

>  <ref_mols>  (4316) 
Z0875a,Z0089a

>  <ref_pdb>  (4316) 
Z0719a

>  <HIPPO Compound ID>  (4316) 
144348

>  <name>  (4316) 
NMHJZQLPFXUBKZ-UHFFFAOYSA-N-P7-P7-P52-601529

>  <inspiration_score>  (4316) 
None

$$$$
BQGOADLHLQYNDY-UHFFFAOYSA-N-P52-P7-P52-601529
     RDKit          3D

 13 14  0  0  0  0  0  0  0  0999 V2000
   -9.0065    4.3237  -15.5057 C   0  0  0  0  0  0  0  0  0  0  0  0
   -8.3640    4.7132  -16.7649 C   0  0  0  0  0  0  0  0  0  0  0  0
   -8.5787    4.0239  -17.9426 C   0  0  0  0  0  0  0  0  0  0  0  0
   -7.7702    4.1765  -19.0008 N   0  0  0  0  0  0  0  0  0  0  0  0
   -6.7494    5.0557  -18.8293 C   0  0  0  0  0  0  0  0  0  0  0  0
   -6.5877    5.7963  -17.6654 C   0  0  0  0  0  0  0  0  0  0  0  0
   -5.5604    6.7070  -17.4111 N   0  0  0  0  0  0  0  0  0  0  0  0
   -4.2735    6.1845  -16.9064 C   0  0  2  0  0  0  0  0  0  0  0  0
   -3.9734    4.8220  -16.3698 C   0  0  0  0  0  0  0  0  0  0  0  0
   -4.0608    5.9768  -15.3992 C   0  0  0  0  0  0  0  0  0  0  0  0
   -2.8128    6.5909  -14.8328 C   0  0  0  0  0  0  0  0  0  0  0  0
   -5.1909    5.9035  -14.3954 C   0  0  0  0  0  0  0  0  0  0  0  0
   -7.4271    5.6646  -16.6346 N   0  0  0  0  0  0  0  0  0  0  0  0
  1  2  1  0
  2  3  2  0
  3  4  1  0
  4  5  2  0
  5  6  1  0
  6  7  1  0
  8  7  1  1
  8  9  1  0
  9 10  1  0
 10 11  1  0
 10 12  1  0
  6 13  2  0
 13  2  1  0
 10  8  1  0
M  END
>  <energy_score>  (4317) 
-5.451956

>  <alias>  (4317) 
BQGOADLHLQYNDY-UHFFFAOYSA-N-P52-P7-P52-601529

>  <HIPPO Pose ID>  (4317) 
83658

>  <smiles>  (4317) 
Cc1cncc(NC2CC2(C)C)n1

>  <inchikey>  (4317) 
BQGOADLHLQYNDY-UHFFFAOYSA-N

>  <distance_score>  (4317) 
1.976947

>  <ref_mols>  (4317) 
Z0875a,Z0089a

>  <ref_pdb>  (4317) 
Z0719a

>  <HIPPO Compound ID>  (4317) 
144350

>  <name>  (4317) 
BQGOADLHLQYNDY-UHFFFAOYSA-N-P52-P7-P52-601529

>  <inspiration_score>  (4317) 
None

$$$$
RIZILDYIQUIODD-UHFFFAOYSA-N-P7-P7-P52-601529
     RDKit          3D

 13 13  0  0  0  0  0  0  0  0999 V2000
   -9.3149    4.2102  -16.5587 C   0  0  0  0  0  0  0  0  0  0  0  0
   -8.2905    5.1228  -16.1988 O   0  0  0  0  0  0  0  0  0  0  0  0
   -7.2033    5.0668  -17.0149 C   0  0  0  0  0  0  0  0  0  0  0  0
   -7.2473    4.8692  -18.3881 C   0  0  0  0  0  0  0  0  0  0  0  0
   -6.1320    4.8440  -19.1536 N   0  0  0  0  0  0  0  0  0  0  0  0
   -4.9622    5.0204  -18.5193 C   0  0  0  0  0  0  0  0  0  0  0  0
   -3.8736    4.9407  -19.3450 N   0  0  0  0  0  0  0  0  0  0  0  0
   -2.5408    5.4099  -19.0191 C   0  0  1  0  0  0  0  0  0  0  0  0
   -1.5563    4.4097  -19.6251 C   0  0  0  0  0  0  0  0  0  0  0  0
   -2.2759    6.8060  -19.5820 C   0  0  0  0  0  0  0  0  0  0  0  0
   -3.1539    8.1948  -18.5307 Br  0  0  0  0  0  0  0  0  0  0  0  0
   -4.9355    5.2198  -17.1407 C   0  0  0  0  0  0  0  0  0  0  0  0
   -6.0422    5.2808  -16.3683 N   0  0  0  0  0  0  0  0  0  0  0  0
  1  2  1  0
  2  3  1  0
  3  4  2  0
  4  5  1  0
  5  6  2  0
  6  7  1  0
  7  8  1  0
  8  9  1  6
  8 10  1  0
 10 11  1  0
  6 12  1  0
 12 13  2  0
 13  3  1  0
M  END
>  <energy_score>  (4318) 
-36.707672

>  <alias>  (4318) 
RIZILDYIQUIODD-UHFFFAOYSA-N-P7-P7-P52-601529

>  <HIPPO Pose ID>  (4318) 
83667

>  <smiles>  (4318) 
COc1cnc(NC(C)CBr)cn1

>  <inchikey>  (4318) 
RIZILDYIQUIODD-UHFFFAOYSA-N

>  <distance_score>  (4318) 
0.744373

>  <ref_mols>  (4318) 
Z0875a,Z0089a

>  <ref_pdb>  (4318) 
Z0719a

>  <HIPPO Compound ID>  (4318) 
144355

>  <name>  (4318) 
RIZILDYIQUIODD-UHFFFAOYSA-N-P7-P7-P52-601529

>  <inspiration_score>  (4318) 
None

$$$$
KKJRNXPXZJSOOK-UHFFFAOYSA-N-P7-P7-P52-601529
     RDKit          3D

 13 13  0  0  0  0  0  0  0  0999 V2000
   -2.2175    4.2354  -19.1904 C   0  0  0  0  0  0  0  0  0  0  0  0
   -2.7508    5.5886  -18.7274 C   0  0  1  0  0  0  0  0  0  0  0  0
   -1.9356    6.7511  -19.3084 C   0  0  0  0  0  0  0  0  0  0  0  0
   -2.0175    6.8279  -21.2647 Br  0  0  0  0  0  0  0  0  0  0  0  0
   -4.1536    5.7585  -19.0931 N   0  0  0  0  0  0  0  0  0  0  0  0
   -5.2275    5.3378  -18.3432 C   0  0  0  0  0  0  0  0  0  0  0  0
   -6.1749    4.7802  -19.1286 N   0  0  0  0  0  0  0  0  0  0  0  0
   -7.3509    4.4416  -18.5562 C   0  0  0  0  0  0  0  0  0  0  0  0
   -7.5856    4.6245  -17.2116 C   0  0  0  0  0  0  0  0  0  0  0  0
   -6.6658    5.1769  -16.3922 N   0  0  0  0  0  0  0  0  0  0  0  0
   -5.4825    5.5260  -16.9749 C   0  0  0  0  0  0  0  0  0  0  0  0
   -4.5945    6.2015  -16.0718 C   0  0  0  0  0  0  0  0  0  0  0  0
   -3.8702    6.7543  -15.3465 N   0  0  0  0  0  0  0  0  0  0  0  0
  2  1  1  6
  2  3  1  0
  3  4  1  0
  2  5  1  0
  5  6  1  0
  6  7  2  0
  7  8  1  0
  8  9  2  0
  9 10  1  0
 10 11  2  0
 11 12  1  0
 12 13  3  0
 11  6  1  0
M  END
>  <energy_score>  (4319) 
-26.644487

>  <alias>  (4319) 
KKJRNXPXZJSOOK-UHFFFAOYSA-N-P7-P7-P52-601529

>  <HIPPO Pose ID>  (4319) 
83671

>  <smiles>  (4319) 
CC(CBr)Nc1nccnc1C#N

>  <inchikey>  (4319) 
KKJRNXPXZJSOOK-UHFFFAOYSA-N

>  <distance_score>  (4319) 
0.816008

>  <ref_mols>  (4319) 
Z0875a,Z0089a

>  <ref_pdb>  (4319) 
Z0719a

>  <HIPPO Compound ID>  (4319) 
144357

>  <name>  (4319) 
KKJRNXPXZJSOOK-UHFFFAOYSA-N-P7-P7-P52-601529

>  <inspiration_score>  (4319) 
None

$$$$
HTJXBLXTFOYERY-UHFFFAOYSA-N-P7-P7-P52-601529
     RDKit          3D

 13 13  0  0  0  0  0  0  0  0999 V2000
   -1.8328    4.5198  -19.0898 C   0  0  0  0  0  0  0  0  0  0  0  0
   -2.7412    5.6053  -19.6548 C   0  0  2  0  0  0  0  0  0  0  0  0
   -2.5543    6.9444  -18.9455 C   0  0  0  0  0  0  0  0  0  0  0  0
   -3.4628    8.3831  -19.9091 Br  0  0  0  0  0  0  0  0  0  0  0  0
   -4.1098    5.1265  -19.7147 N   0  0  0  0  0  0  0  0  0  0  0  0
   -5.0466    5.0112  -18.7296 C   0  0  0  0  0  0  0  0  0  0  0  0
   -4.8366    5.0105  -17.3557 C   0  0  0  0  0  0  0  0  0  0  0  0
   -5.8261    4.8769  -16.4371 N   0  0  0  0  0  0  0  0  0  0  0  0
   -7.0727    4.6823  -16.9409 C   0  0  0  0  0  0  0  0  0  0  0  0
   -8.1997    4.5101  -15.9596 C   0  0  0  0  0  0  0  0  0  0  0  0
   -9.4116    4.1010  -16.5879 O   0  0  0  0  0  0  0  0  0  0  0  0
   -7.2884    4.6806  -18.3095 C   0  0  0  0  0  0  0  0  0  0  0  0
   -6.2896    4.8496  -19.2054 N   0  0  0  0  0  0  0  0  0  0  0  0
  2  1  1  1
  2  3  1  0
  3  4  1  0
  2  5  1  0
  5  6  1  0
  6  7  2  0
  7  8  1  0
  8  9  2  0
  9 10  1  0
 10 11  1  0
  9 12  1  0
 12 13  2  0
 13  6  1  0
M  END
>  <energy_score>  (4320) 
-42.735447

>  <alias>  (4320) 
HTJXBLXTFOYERY-UHFFFAOYSA-N-P7-P7-P52-601529

>  <HIPPO Pose ID>  (4320) 
83673

>  <smiles>  (4320) 
CC(CBr)Nc1cnc(CO)cn1

>  <inchikey>  (4320) 
HTJXBLXTFOYERY-UHFFFAOYSA-N

>  <distance_score>  (4320) 
0.722473

>  <ref_mols>  (4320) 
Z0875a,Z0089a

>  <ref_pdb>  (4320) 
Z0719a

>  <HIPPO Compound ID>  (4320) 
144358

>  <name>  (4320) 
HTJXBLXTFOYERY-UHFFFAOYSA-N-P7-P7-P52-601529

>  <inspiration_score>  (4320) 
None

$$$$
GOCNONRLAUKTLJ-UHFFFAOYSA-N-P7-P7-P52-601529
     RDKit          3D

 13 13  0  0  0  0  0  0  0  0999 V2000
   -1.9189    4.2142  -19.4563 C   0  0  0  0  0  0  0  0  0  0  0  0
   -2.6113    5.4608  -18.9112 C   0  0  1  0  0  0  0  0  0  0  0  0
   -1.8685    6.7132  -19.3840 C   0  0  0  0  0  0  0  0  0  0  0  0
   -2.4535    8.2963  -18.3974 Br  0  0  0  0  0  0  0  0  0  0  0  0
   -3.9889    5.5064  -19.3872 N   0  0  0  0  0  0  0  0  0  0  0  0
   -5.0622    5.2517  -18.5644 C   0  0  0  0  0  0  0  0  0  0  0  0
   -5.1421    5.5880  -17.2102 C   0  0  0  0  0  0  0  0  0  0  0  0
   -6.2352    5.3711  -16.4400 N   0  0  0  0  0  0  0  0  0  0  0  0
   -7.2699    4.7909  -17.0964 C   0  0  0  0  0  0  0  0  0  0  0  0
   -8.4632    4.5093  -16.2933 C   0  0  0  0  0  0  0  0  0  0  0  0
   -9.4903    4.0648  -16.7896 O   0  0  0  0  0  0  0  0  0  0  0  0
   -7.2278    4.4808  -18.4427 C   0  0  0  0  0  0  0  0  0  0  0  0
   -6.1168    4.6982  -19.1889 N   0  0  0  0  0  0  0  0  0  0  0  0
  2  1  1  6
  2  3  1  0
  3  4  1  0
  2  5  1  0
  5  6  1  0
  6  7  2  0
  7  8  1  0
  8  9  2  0
  9 10  1  0
 10 11  2  0
  9 12  1  0
 12 13  2  0
 13  6  1  0
M  END
>  <energy_score>  (4321) 
-18.466942

>  <alias>  (4321) 
GOCNONRLAUKTLJ-UHFFFAOYSA-N-P7-P7-P52-601529

>  <HIPPO Pose ID>  (4321) 
83675

>  <smiles>  (4321) 
CC(CBr)Nc1cnc(C=O)cn1

>  <inchikey>  (4321) 
GOCNONRLAUKTLJ-UHFFFAOYSA-N

>  <distance_score>  (4321) 
0.694576

>  <ref_mols>  (4321) 
Z0875a,Z0089a

>  <ref_pdb>  (4321) 
Z0719a

>  <HIPPO Compound ID>  (4321) 
144359

>  <name>  (4321) 
GOCNONRLAUKTLJ-UHFFFAOYSA-N-P7-P7-P52-601529

>  <inspiration_score>  (4321) 
None

$$$$
XBPNZQWIYXHLDS-UHFFFAOYSA-N-P7-P7-P52-601529
     RDKit          3D

 13 13  0  0  0  0  0  0  0  0999 V2000
   -3.7621    6.7552  -15.4092 C   0  0  0  0  0  0  0  0  0  0  0  0
   -4.4651    6.2105  -16.2189 C   0  0  0  0  0  0  0  0  0  0  0  0
   -5.3928    5.5513  -17.0899 C   0  0  0  0  0  0  0  0  0  0  0  0
   -6.5129    5.2090  -16.3945 N   0  0  0  0  0  0  0  0  0  0  0  0
   -7.5070    4.6442  -17.1092 C   0  0  0  0  0  0  0  0  0  0  0  0
   -7.4032    4.4400  -18.4647 C   0  0  0  0  0  0  0  0  0  0  0  0
   -6.2905    4.7728  -19.1511 N   0  0  0  0  0  0  0  0  0  0  0  0
   -5.2685    5.3492  -18.4755 C   0  0  0  0  0  0  0  0  0  0  0  0
   -4.3036    5.7262  -19.3680 N   0  0  0  0  0  0  0  0  0  0  0  0
   -2.8494    5.7099  -19.2841 C   0  0  2  0  0  0  0  0  0  0  0  0
   -2.2887    4.4381  -18.6742 C   0  0  0  0  0  0  0  0  0  0  0  0
   -2.3015    6.9815  -18.6446 C   0  0  0  0  0  0  0  0  0  0  0  0
   -0.5558    7.4530  -19.3960 Br  0  0  0  0  0  0  0  0  0  0  0  0
  1  2  3  0
  2  3  1  0
  3  4  2  0
  4  5  1  0
  5  6  2  0
  6  7  1  0
  7  8  2  0
  8  9  1  0
  9 10  1  0
 10 11  1  1
 10 12  1  0
 12 13  1  0
  8  3  1  0
M  END
>  <energy_score>  (4322) 
-16.496846

>  <alias>  (4322) 
XBPNZQWIYXHLDS-UHFFFAOYSA-N-P7-P7-P52-601529

>  <HIPPO Pose ID>  (4322) 
83679

>  <smiles>  (4322) 
C#Cc1nccnc1NC(C)CBr

>  <inchikey>  (4322) 
XBPNZQWIYXHLDS-UHFFFAOYSA-N

>  <distance_score>  (4322) 
0.861624

>  <ref_mols>  (4322) 
Z0875a,Z0089a

>  <ref_pdb>  (4322) 
Z0719a

>  <HIPPO Compound ID>  (4322) 
144361

>  <name>  (4322) 
XBPNZQWIYXHLDS-UHFFFAOYSA-N-P7-P7-P52-601529

>  <inspiration_score>  (4322) 
None

$$$$
WTGKHNDJUBQQJD-UHFFFAOYSA-N-P7-P7-P52-601529
     RDKit          3D

 13 13  0  0  0  0  0  0  0  0999 V2000
   -1.8855    4.2290  -19.5787 C   0  0  0  0  0  0  0  0  0  0  0  0
   -2.7272    5.3233  -18.9243 C   0  0  1  0  0  0  0  0  0  0  0  0
   -2.2939    6.7236  -19.3648 C   0  0  0  0  0  0  0  0  0  0  0  0
   -0.6331    7.2619  -18.4971 Br  0  0  0  0  0  0  0  0  0  0  0  0
   -4.1330    5.1357  -19.2675 N   0  0  0  0  0  0  0  0  0  0  0  0
   -5.1653    5.1365  -18.3579 C   0  0  0  0  0  0  0  0  0  0  0  0
   -5.0574    5.6200  -17.0470 C   0  0  0  0  0  0  0  0  0  0  0  0
   -6.0694    5.6208  -16.1490 N   0  0  0  0  0  0  0  0  0  0  0  0
   -7.2210    5.0911  -16.6082 C   0  0  0  0  0  0  0  0  0  0  0  0
   -7.3669    4.6355  -17.9085 C   0  0  0  0  0  0  0  0  0  0  0  0
   -8.6523    4.1444  -18.2953 C   0  0  0  0  0  0  0  0  0  0  0  0
   -9.7500    3.7803  -18.3989 N   0  0  0  0  0  0  0  0  0  0  0  0
   -6.3449    4.6541  -18.8051 N   0  0  0  0  0  0  0  0  0  0  0  0
  2  1  1  6
  2  3  1  0
  3  4  1  0
  2  5  1  0
  5  6  1  0
  6  7  2  0
  7  8  1  0
  8  9  2  0
  9 10  1  0
 10 11  1  0
 11 12  3  0
 10 13  2  0
 13  6  1  0
M  END
>  <energy_score>  (4323) 
-19.739808

>  <alias>  (4323) 
WTGKHNDJUBQQJD-UHFFFAOYSA-N-P7-P7-P52-601529

>  <HIPPO Pose ID>  (4323) 
83687

>  <smiles>  (4323) 
CC(CBr)Nc1cncc(C#N)n1

>  <inchikey>  (4323) 
WTGKHNDJUBQQJD-UHFFFAOYSA-N

>  <distance_score>  (4323) 
0.726676

>  <ref_mols>  (4323) 
Z0875a,Z0089a

>  <ref_pdb>  (4323) 
Z0719a

>  <HIPPO Compound ID>  (4323) 
144365

>  <name>  (4323) 
WTGKHNDJUBQQJD-UHFFFAOYSA-N-P7-P7-P52-601529

>  <inspiration_score>  (4323) 
None

$$$$
XKBGAXGAKDHTPL-UHFFFAOYSA-N-P7-P7-P52-601529
     RDKit          3D

 13 14  0  0  0  0  0  0  0  0999 V2000
   -9.0372    4.3045  -15.3611 C   0  0  0  0  0  0  0  0  0  0  0  0
   -8.3561    4.5202  -16.6392 C   0  0  0  0  0  0  0  0  0  0  0  0
   -8.8495    4.0659  -17.8461 C   0  0  0  0  0  0  0  0  0  0  0  0
   -8.1340    4.1730  -18.9731 N   0  0  0  0  0  0  0  0  0  0  0  0
   -6.9250    4.7815  -18.8408 C   0  0  0  0  0  0  0  0  0  0  0  0
   -6.4370    5.2565  -17.6244 C   0  0  0  0  0  0  0  0  0  0  0  0
   -5.1698    5.8537  -17.4817 N   0  0  0  0  0  0  0  0  0  0  0  0
   -4.8469    6.3236  -16.1130 C   0  0  2  0  0  0  0  0  0  0  0  0
   -3.4369    6.3034  -15.6022 C   0  0  1  0  0  0  0  0  0  0  0  0
   -2.9106    7.4859  -14.8694 C   0  0  0  0  0  0  0  0  0  0  0  0
   -4.4575    5.3805  -14.9876 C   0  0  1  0  0  0  0  0  0  0  0  0
   -4.9375    5.5919  -13.5873 C   0  0  0  0  0  0  0  0  0  0  0  0
   -7.1844    5.1564  -16.5210 N   0  0  0  0  0  0  0  0  0  0  0  0
  1  2  1  0
  2  3  2  0
  3  4  1  0
  4  5  2  0
  5  6  1  0
  6  7  1  0
  8  7  1  6
  8  9  1  0
  9 10  1  1
  9 11  1  0
 11 12  1  1
  6 13  2  0
 13  2  1  0
 11  8  1  0
M  END
>  <energy_score>  (4324) 
-6.3947

>  <alias>  (4324) 
XKBGAXGAKDHTPL-UHFFFAOYSA-N-P7-P7-P52-601529

>  <HIPPO Pose ID>  (4324) 
83689

>  <smiles>  (4324) 
Cc1cncc(NC2C(C)C2C)n1

>  <inchikey>  (4324) 
XKBGAXGAKDHTPL-UHFFFAOYSA-N

>  <distance_score>  (4324) 
1.276745

>  <ref_mols>  (4324) 
Z0875a,Z0089a

>  <ref_pdb>  (4324) 
Z0719a

>  <HIPPO Compound ID>  (4324) 
144366

>  <name>  (4324) 
XKBGAXGAKDHTPL-UHFFFAOYSA-N-P7-P7-P52-601529

>  <inspiration_score>  (4324) 
None

$$$$
ZOKILLYCSAWBCJ-UHFFFAOYSA-N-P52-P7-P52-601529
     RDKit          3D

 13 13  0  0  0  0  0  0  0  0999 V2000
   -2.0132    4.3358  -19.2725 C   0  0  0  0  0  0  0  0  0  0  0  0
   -2.7260    5.6779  -19.3152 C   0  0  1  0  0  0  0  0  0  0  0  0
   -2.1122    6.5725  -20.4034 C   0  0  0  0  0  0  0  0  0  0  0  0
   -2.1835    5.9372  -21.6940 O   0  0  0  0  0  0  0  0  0  0  0  0
   -4.1342    5.5052  -19.6103 N   0  0  0  0  0  0  0  0  0  0  0  0
   -5.1239    5.2298  -18.7108 C   0  0  0  0  0  0  0  0  0  0  0  0
   -5.0764    5.5002  -17.3412 C   0  0  0  0  0  0  0  0  0  0  0  0
   -6.1160    5.3078  -16.4932 N   0  0  0  0  0  0  0  0  0  0  0  0
   -7.2263    4.8024  -17.0867 C   0  0  0  0  0  0  0  0  0  0  0  0
   -8.3758    4.5648  -16.2117 C   0  0  0  0  0  0  0  0  0  0  0  0
   -9.4593    4.2031  -16.6514 O   0  0  0  0  0  0  0  0  0  0  0  0
   -7.2994    4.5241  -18.4376 C   0  0  0  0  0  0  0  0  0  0  0  0
   -6.2432    4.7257  -19.2595 N   0  0  0  0  0  0  0  0  0  0  0  0
  2  1  1  6
  2  3  1  0
  3  4  1  0
  2  5  1  0
  5  6  1  0
  6  7  2  0
  7  8  1  0
  8  9  2  0
  9 10  1  0
 10 11  2  0
  9 12  1  0
 12 13  2  0
 13  6  1  0
M  END
>  <energy_score>  (4325) 
-29.422408

>  <alias>  (4325) 
ZOKILLYCSAWBCJ-UHFFFAOYSA-N-P52-P7-P52-601529

>  <HIPPO Pose ID>  (4325) 
83692

>  <smiles>  (4325) 
CC(CO)Nc1cnc(C=O)cn1

>  <inchikey>  (4325) 
ZOKILLYCSAWBCJ-UHFFFAOYSA-N

>  <distance_score>  (4325) 
0.742392

>  <ref_mols>  (4325) 
Z0875a,Z0089a

>  <ref_pdb>  (4325) 
Z0719a

>  <HIPPO Compound ID>  (4325) 
144367

>  <name>  (4325) 
ZOKILLYCSAWBCJ-UHFFFAOYSA-N-P52-P7-P52-601529

>  <inspiration_score>  (4325) 
None

$$$$
PJINAPGITUMQTJ-UHFFFAOYSA-N-P7-P7-P52-601529
     RDKit          3D

 13 13  0  0  0  0  0  0  0  0999 V2000
   -8.6494    4.1121  -18.9403 C   0  0  0  0  0  0  0  0  0  0  0  0
   -7.4161    4.5691  -18.2265 C   0  0  0  0  0  0  0  0  0  0  0  0
   -7.4573    4.8103  -16.8638 C   0  0  0  0  0  0  0  0  0  0  0  0
   -6.4006    5.2926  -16.1815 N   0  0  0  0  0  0  0  0  0  0  0  0
   -5.2844    5.4968  -16.9264 C   0  0  0  0  0  0  0  0  0  0  0  0
   -5.2006    5.2646  -18.2958 C   0  0  0  0  0  0  0  0  0  0  0  0
   -4.1590    5.5780  -19.1288 N   0  0  0  0  0  0  0  0  0  0  0  0
   -2.7035    5.5704  -18.9181 C   0  0  0  0  0  0  0  0  0  0  0  0
   -2.1317    4.2106  -19.3309 C   0  0  0  0  0  0  0  0  0  0  0  0
   -2.1495    6.6496  -19.8684 C   0  0  0  0  0  0  0  0  0  0  0  0
   -2.1970    5.9287  -17.5110 C   0  0  0  0  0  0  0  0  0  0  0  0
   -2.4721    4.9312  -16.6283 F   0  0  0  0  0  0  0  0  0  0  0  0
   -6.2865    4.7989  -18.9492 N   0  0  0  0  0  0  0  0  0  0  0  0
  1  2  1  0
  2  3  2  0
  3  4  1  0
  4  5  2  0
  5  6  1  0
  6  7  1  0
  7  8  1  0
  8  9  1  0
  8 10  1  0
  8 11  1  0
 11 12  1  0
  6 13  2  0
 13  2  1  0
M  END
>  <energy_score>  (4326) 
-30.566516

>  <alias>  (4326) 
PJINAPGITUMQTJ-UHFFFAOYSA-N-P7-P7-P52-601529

>  <HIPPO Pose ID>  (4326) 
83699

>  <smiles>  (4326) 
Cc1cncc(NC(C)(C)CF)n1

>  <inchikey>  (4326) 
PJINAPGITUMQTJ-UHFFFAOYSA-N

>  <distance_score>  (4326) 
0.776315

>  <ref_mols>  (4326) 
Z0875a,Z0089a

>  <ref_pdb>  (4326) 
Z0719a

>  <HIPPO Compound ID>  (4326) 
144371

>  <name>  (4326) 
PJINAPGITUMQTJ-UHFFFAOYSA-N-P7-P7-P52-601529

>  <inspiration_score>  (4326) 
None

$$$$
OLQMOGCYMGQPAS-UHFFFAOYSA-N-P52-P7-P52-601529
     RDKit          3D

 13 13  0  0  0  0  0  0  0  0999 V2000
   -1.9616    4.6291  -19.3663 C   0  0  0  0  0  0  0  0  0  0  0  0
   -2.7746    5.9284  -19.3881 C   0  0  0  0  0  0  0  0  0  0  0  0
   -2.4457    6.7907  -18.1684 C   0  0  0  0  0  0  0  0  0  0  0  0
   -2.3540    6.7666  -20.6254 C   0  0  0  0  0  0  0  0  0  0  0  0
   -2.9778    7.9780  -20.6105 F   0  0  0  0  0  0  0  0  0  0  0  0
   -4.1925    5.5879  -19.5095 N   0  0  0  0  0  0  0  0  0  0  0  0
   -5.1692    5.2698  -18.6142 C   0  0  0  0  0  0  0  0  0  0  0  0
   -5.0581    5.1737  -17.2279 C   0  0  0  0  0  0  0  0  0  0  0  0
   -6.1021    4.9270  -16.3920 N   0  0  0  0  0  0  0  0  0  0  0  0
   -7.2833    4.7103  -17.0098 C   0  0  0  0  0  0  0  0  0  0  0  0
   -7.3991    4.7808  -18.3794 C   0  0  0  0  0  0  0  0  0  0  0  0
   -8.5946    4.6379  -19.0035 O   0  0  0  0  0  0  0  0  0  0  0  0
   -6.3691    5.0657  -19.1949 N   0  0  0  0  0  0  0  0  0  0  0  0
  1  2  1  0
  2  3  1  0
  2  4  1  0
  4  5  1  0
  2  6  1  0
  6  7  1  0
  7  8  2  0
  8  9  1  0
  9 10  2  0
 10 11  1  0
 11 12  1  0
 11 13  2  0
 13  7  1  0
M  END
>  <energy_score>  (4327) 
-41.092831

>  <alias>  (4327) 
OLQMOGCYMGQPAS-UHFFFAOYSA-N-P52-P7-P52-601529

>  <HIPPO Pose ID>  (4327) 
83704

>  <smiles>  (4327) 
CC(C)(CF)Nc1cncc(O)n1

>  <inchikey>  (4327) 
OLQMOGCYMGQPAS-UHFFFAOYSA-N

>  <distance_score>  (4327) 
1.070792

>  <ref_mols>  (4327) 
Z0875a,Z0089a

>  <ref_pdb>  (4327) 
Z0719a

>  <HIPPO Compound ID>  (4327) 
144373

>  <name>  (4327) 
OLQMOGCYMGQPAS-UHFFFAOYSA-N-P52-P7-P52-601529

>  <inspiration_score>  (4327) 
None

$$$$
NBCYYJUDQUENGO-UHFFFAOYSA-N-P7-P7-P52-601529
     RDKit          3D

 13 13  0  0  0  0  0  0  0  0999 V2000
   -8.3543    4.6007  -16.2430 C   0  0  0  0  0  0  0  0  0  0  0  0
   -7.1748    4.9172  -17.1024 C   0  0  0  0  0  0  0  0  0  0  0  0
   -7.1168    4.5246  -18.4305 C   0  0  0  0  0  0  0  0  0  0  0  0
   -6.0456    4.7746  -19.2221 N   0  0  0  0  0  0  0  0  0  0  0  0
   -5.0189    5.4485  -18.6772 C   0  0  0  0  0  0  0  0  0  0  0  0
   -4.0443    5.8009  -19.5821 N   0  0  0  0  0  0  0  0  0  0  0  0
   -2.5843    5.7497  -19.4019 C   0  0  0  0  0  0  0  0  0  0  0  0
   -2.1003    4.3039  -19.2726 C   0  0  0  0  0  0  0  0  0  0  0  0
   -2.0953    6.5893  -18.2224 C   0  0  0  0  0  0  0  0  0  0  0  0
   -1.9405    6.3736  -20.6678 C   0  0  0  0  0  0  0  0  0  0  0  0
   -2.3096    5.6635  -21.7717 F   0  0  0  0  0  0  0  0  0  0  0  0
   -5.0871    5.8307  -17.3406 C   0  0  0  0  0  0  0  0  0  0  0  0
   -6.1449    5.5796  -16.5274 N   0  0  0  0  0  0  0  0  0  0  0  0
  1  2  1  0
  2  3  2  0
  3  4  1  0
  4  5  2  0
  5  6  1  0
  6  7  1  0
  7  8  1  0
  7  9  1  0
  7 10  1  0
 10 11  1  0
  5 12  1  0
 12 13  2  0
 13  2  1  0
M  END
>  <energy_score>  (4328) 
-27.924144

>  <alias>  (4328) 
NBCYYJUDQUENGO-UHFFFAOYSA-N-P7-P7-P52-601529

>  <HIPPO Pose ID>  (4328) 
83707

>  <smiles>  (4328) 
Cc1cnc(NC(C)(C)CF)cn1

>  <inchikey>  (4328) 
NBCYYJUDQUENGO-UHFFFAOYSA-N

>  <distance_score>  (4328) 
0.761427

>  <ref_mols>  (4328) 
Z0875a,Z0089a

>  <ref_pdb>  (4328) 
Z0719a

>  <HIPPO Compound ID>  (4328) 
144375

>  <name>  (4328) 
NBCYYJUDQUENGO-UHFFFAOYSA-N-P7-P7-P52-601529

>  <inspiration_score>  (4328) 
None

$$$$
MASDFWZQSMKUFV-UHFFFAOYSA-N-P7-P7-P52-601529
     RDKit          3D

 13 13  0  0  0  0  0  0  0  0999 V2000
   -2.0357    4.4215  -19.4662 C   0  0  0  0  0  0  0  0  0  0  0  0
   -2.6675    5.8151  -19.3808 C   0  0  0  0  0  0  0  0  0  0  0  0
   -2.2005    6.5182  -18.1077 C   0  0  0  0  0  0  0  0  0  0  0  0
   -2.1749    6.6927  -20.5614 C   0  0  0  0  0  0  0  0  0  0  0  0
   -0.8172    6.7562  -20.5771 F   0  0  0  0  0  0  0  0  0  0  0  0
   -4.1245    5.7078  -19.5066 N   0  0  0  0  0  0  0  0  0  0  0  0
   -5.0963    5.3409  -18.6210 C   0  0  0  0  0  0  0  0  0  0  0  0
   -5.1220    5.5414  -17.2419 C   0  0  0  0  0  0  0  0  0  0  0  0
   -6.1977    5.2843  -16.4516 N   0  0  0  0  0  0  0  0  0  0  0  0
   -7.2620    4.8089  -17.1149 C   0  0  0  0  0  0  0  0  0  0  0  0
   -8.3486    4.5942  -16.3396 O   0  0  0  0  0  0  0  0  0  0  0  0
   -7.2713    4.5831  -18.4725 C   0  0  0  0  0  0  0  0  0  0  0  0
   -6.1814    4.8334  -19.2358 N   0  0  0  0  0  0  0  0  0  0  0  0
  1  2  1  0
  2  3  1  0
  2  4  1  0
  4  5  1  0
  2  6  1  0
  6  7  1  0
  7  8  2  0
  8  9  1  0
  9 10  2  0
 10 11  1  0
 10 12  1  0
 12 13  2  0
 13  7  1  0
M  END
>  <energy_score>  (4329) 
-37.843551

>  <alias>  (4329) 
MASDFWZQSMKUFV-UHFFFAOYSA-N-P7-P7-P52-601529

>  <HIPPO Pose ID>  (4329) 
83709

>  <smiles>  (4329) 
CC(C)(CF)Nc1cnc(O)cn1

>  <inchikey>  (4329) 
MASDFWZQSMKUFV-UHFFFAOYSA-N

>  <distance_score>  (4329) 
0.73126

>  <ref_mols>  (4329) 
Z0875a,Z0089a

>  <ref_pdb>  (4329) 
Z0719a

>  <HIPPO Compound ID>  (4329) 
144376

>  <name>  (4329) 
MASDFWZQSMKUFV-UHFFFAOYSA-N-P7-P7-P52-601529

>  <inspiration_score>  (4329) 
None

$$$$
RKXWTWBNXMHKAZ-UHFFFAOYSA-N-P7-P7-P52-601529
     RDKit          3D

 13 13  0  0  0  0  0  0  0  0999 V2000
   -4.8824    6.5083  -15.8377 C   0  0  0  0  0  0  0  0  0  0  0  0
   -5.5604    5.6981  -16.8955 C   0  0  0  0  0  0  0  0  0  0  0  0
   -6.7565    5.1853  -16.4961 N   0  0  0  0  0  0  0  0  0  0  0  0
   -7.4917    4.5685  -17.4423 C   0  0  0  0  0  0  0  0  0  0  0  0
   -7.0575    4.4568  -18.7426 C   0  0  0  0  0  0  0  0  0  0  0  0
   -5.8569    4.9290  -19.1431 N   0  0  0  0  0  0  0  0  0  0  0  0
   -5.1026    5.5579  -18.2188 C   0  0  0  0  0  0  0  0  0  0  0  0
   -4.0089    6.1841  -18.7935 N   0  0  0  0  0  0  0  0  0  0  0  0
   -2.6063    5.7306  -18.6181 C   0  0  0  0  0  0  0  0  0  0  0  0
   -2.3853    4.3351  -19.2077 C   0  0  0  0  0  0  0  0  0  0  0  0
   -1.7650    6.7319  -19.4371 C   0  0  0  0  0  0  0  0  0  0  0  0
   -2.0999    5.7723  -17.1704 C   0  0  0  0  0  0  0  0  0  0  0  0
   -0.7536    5.5612  -17.1366 F   0  0  0  0  0  0  0  0  0  0  0  0
  1  2  1  0
  2  3  2  0
  3  4  1  0
  4  5  2  0
  5  6  1  0
  6  7  2  0
  7  8  1  0
  8  9  1  0
  9 10  1  0
  9 11  1  0
  9 12  1  0
 12 13  1  0
  7  2  1  0
M  END
>  <energy_score>  (4330) 
-21.277602

>  <alias>  (4330) 
RKXWTWBNXMHKAZ-UHFFFAOYSA-N-P7-P7-P52-601529

>  <HIPPO Pose ID>  (4330) 
83711

>  <smiles>  (4330) 
Cc1nccnc1NC(C)(C)CF

>  <inchikey>  (4330) 
RKXWTWBNXMHKAZ-UHFFFAOYSA-N

>  <distance_score>  (4330) 
1.132927

>  <ref_mols>  (4330) 
Z0875a,Z0089a

>  <ref_pdb>  (4330) 
Z0719a

>  <HIPPO Compound ID>  (4330) 
144377

>  <name>  (4330) 
RKXWTWBNXMHKAZ-UHFFFAOYSA-N-P7-P7-P52-601529

>  <inspiration_score>  (4330) 
None

$$$$
GJWCKEAWYDFSRX-UHFFFAOYSA-N-P52-P7-P52-601529
     RDKit          3D

 13 13  0  0  0  0  0  0  0  0999 V2000
   -8.5109    4.8750  -15.9480 C   0  0  0  0  0  0  0  0  0  0  0  0
   -7.3323    5.0261  -16.8553 C   0  0  0  0  0  0  0  0  0  0  0  0
   -6.1889    5.4619  -16.2762 N   0  0  0  0  0  0  0  0  0  0  0  0
   -5.0952    5.4649  -17.0744 C   0  0  0  0  0  0  0  0  0  0  0  0
   -5.1076    5.0894  -18.4149 C   0  0  0  0  0  0  0  0  0  0  0  0
   -4.0058    5.0008  -19.2313 N   0  0  0  0  0  0  0  0  0  0  0  0
   -2.6654    5.4411  -18.8771 C   0  0  1  0  0  0  0  0  0  0  0  0
   -1.6511    4.5806  -19.6271 C   0  0  0  0  0  0  0  0  0  0  0  0
   -2.4597    6.9278  -19.2151 C   0  0  0  0  0  0  0  0  0  0  0  0
   -3.1002    7.7598  -18.2486 O   0  0  0  0  0  0  0  0  0  0  0  0
   -6.2647    4.7069  -18.9879 N   0  0  0  0  0  0  0  0  0  0  0  0
   -7.3756    4.6615  -18.2022 C   0  0  0  0  0  0  0  0  0  0  0  0
   -8.6469    4.2032  -18.8492 C   0  0  0  0  0  0  0  0  0  0  0  0
  1  2  1  0
  2  3  2  0
  3  4  1  0
  4  5  2  0
  5  6  1  0
  6  7  1  0
  7  8  1  6
  7  9  1  0
  9 10  1  0
  5 11  1  0
 11 12  2  0
 12 13  1  0
 12  2  1  0
M  END
>  <energy_score>  (4331) 
-35.752068

>  <alias>  (4331) 
GJWCKEAWYDFSRX-UHFFFAOYSA-N-P52-P7-P52-601529

>  <HIPPO Pose ID>  (4331) 
83726

>  <smiles>  (4331) 
Cc1ncc(NC(C)CO)nc1C

>  <inchikey>  (4331) 
GJWCKEAWYDFSRX-UHFFFAOYSA-N

>  <distance_score>  (4331) 
0.755031

>  <ref_mols>  (4331) 
Z0875a,Z0089a

>  <ref_pdb>  (4331) 
Z0719a

>  <HIPPO Compound ID>  (4331) 
144384

>  <name>  (4331) 
GJWCKEAWYDFSRX-UHFFFAOYSA-N-P52-P7-P52-601529

>  <inspiration_score>  (4331) 
None

$$$$
NMGPZFWTTLPMIM-UHFFFAOYSA-N-P52-P7-P52-601529
     RDKit          3D

 13 13  0  0  0  0  0  0  0  0999 V2000
   -1.9892    4.6265  -18.8879 C   0  0  0  0  0  0  0  0  0  0  0  0
   -2.8315    5.6758  -19.5862 C   0  0  2  0  0  0  0  0  0  0  0  0
   -2.6809    7.1089  -19.0445 C   0  0  0  0  0  0  0  0  0  0  0  0
   -2.2184    7.1836  -17.7017 O   0  0  0  0  0  0  0  0  0  0  0  0
   -4.1997    5.2285  -19.7302 N   0  0  0  0  0  0  0  0  0  0  0  0
   -5.2463    5.0803  -18.8550 C   0  0  0  0  0  0  0  0  0  0  0  0
   -6.3078    4.5256  -19.3874 N   0  0  0  0  0  0  0  0  0  0  0  0
   -7.4490    4.4672  -18.6392 C   0  0  0  0  0  0  0  0  0  0  0  0
   -7.5907    5.0208  -17.4331 C   0  0  0  0  0  0  0  0  0  0  0  0
   -6.5323    5.6573  -16.8344 N   0  0  0  0  0  0  0  0  0  0  0  0
   -6.6665    6.2766  -15.5525 C   0  0  0  0  0  0  0  0  0  0  0  0
   -5.2625    5.5800  -17.3822 C   0  0  0  0  0  0  0  0  0  0  0  0
   -4.2496    5.9192  -16.7827 O   0  0  0  0  0  0  0  0  0  0  0  0
  2  1  1  1
  2  3  1  0
  3  4  1  0
  2  5  1  0
  5  6  1  0
  6  7  2  0
  7  8  1  0
  8  9  2  0
  9 10  1  0
 10 11  1  0
 10 12  1  0
 12 13  2  0
 12  6  1  0
M  END
>  <energy_score>  (4332) 
-28.080978

>  <alias>  (4332) 
NMGPZFWTTLPMIM-UHFFFAOYSA-N-P52-P7-P52-601529

>  <HIPPO Pose ID>  (4332) 
83732

>  <smiles>  (4332) 
CC(CO)Nc1nccn(C)c1=O

>  <inchikey>  (4332) 
NMGPZFWTTLPMIM-UHFFFAOYSA-N

>  <distance_score>  (4332) 
1.147482

>  <ref_mols>  (4332) 
Z0875a,Z0089a

>  <ref_pdb>  (4332) 
Z0719a

>  <HIPPO Compound ID>  (4332) 
144387

>  <name>  (4332) 
NMGPZFWTTLPMIM-UHFFFAOYSA-N-P52-P7-P52-601529

>  <inspiration_score>  (4332) 
None

$$$$
GYTJGKWYLWUDST-UHFFFAOYSA-N-P7-P7-P52-601529
     RDKit          3D

 13 13  0  0  0  0  0  0  0  0999 V2000
   -0.3469    5.3945  -19.7142 C   0  0  0  0  0  0  0  0  0  0  0  0
   -1.8023    5.3436  -20.1000 C   0  0  0  0  0  0  0  0  0  0  0  0
   -2.1521    5.1459  -21.2682 O   0  0  0  0  0  0  0  0  0  0  0  0
   -2.8122    5.6332  -18.9877 C   0  0  1  0  0  0  0  0  0  0  0  0
   -2.9832    7.1452  -18.9134 C   0  0  0  0  0  0  0  0  0  0  0  0
   -4.0709    4.9697  -19.2865 N   0  0  0  0  0  0  0  0  0  0  0  0
   -5.1438    4.9359  -18.4291 C   0  0  0  0  0  0  0  0  0  0  0  0
   -5.0700    5.0944  -17.0458 C   0  0  0  0  0  0  0  0  0  0  0  0
   -6.1394    5.0313  -16.2205 N   0  0  0  0  0  0  0  0  0  0  0  0
   -7.3065    4.7338  -16.8319 C   0  0  0  0  0  0  0  0  0  0  0  0
   -7.4097    4.5448  -18.2015 C   0  0  0  0  0  0  0  0  0  0  0  0
   -8.7197    4.1905  -18.8293 C   0  0  0  0  0  0  0  0  0  0  0  0
   -6.3279    4.6720  -19.0086 N   0  0  0  0  0  0  0  0  0  0  0  0
  1  2  1  0
  2  3  2  0
  2  4  1  0
  4  5  1  6
  4  6  1  0
  6  7  1  0
  7  8  2  0
  8  9  1  0
  9 10  2  0
 10 11  1  0
 11 12  1  0
 11 13  2  0
 13  7  1  0
M  END
>  <energy_score>  (4333) 
-27.737191

>  <alias>  (4333) 
GYTJGKWYLWUDST-UHFFFAOYSA-N-P7-P7-P52-601529

>  <HIPPO Pose ID>  (4333) 
83737

>  <smiles>  (4333) 
CC(=O)C(C)Nc1cncc(C)n1

>  <inchikey>  (4333) 
GYTJGKWYLWUDST-UHFFFAOYSA-N

>  <distance_score>  (4333) 
0.814221

>  <ref_mols>  (4333) 
Z0875a,Z0089a

>  <ref_pdb>  (4333) 
Z0719a

>  <HIPPO Compound ID>  (4333) 
144390

>  <name>  (4333) 
GYTJGKWYLWUDST-UHFFFAOYSA-N-P7-P7-P52-601529

>  <inspiration_score>  (4333) 
None

$$$$
CLHIANUFXWACSC-UHFFFAOYSA-N-P7-P7-P52-601529
     RDKit          3D

 13 13  0  0  0  0  0  0  0  0999 V2000
   -1.5310    3.6723  -19.5623 C   0  0  0  0  0  0  0  0  0  0  0  0
   -2.1897    4.9142  -20.0546 C   0  0  0  0  0  0  0  0  0  0  0  0
   -2.2820    5.1692  -21.2574 O   0  0  0  0  0  0  0  0  0  0  0  0
   -2.7616    5.8483  -19.0039 C   0  0  1  0  0  0  0  0  0  0  0  0
   -1.9992    7.1629  -19.0364 C   0  0  0  0  0  0  0  0  0  0  0  0
   -4.1662    6.1075  -19.3161 N   0  0  0  0  0  0  0  0  0  0  0  0
   -5.1694    5.4661  -18.6290 C   0  0  0  0  0  0  0  0  0  0  0  0
   -5.1993    5.3465  -17.2503 C   0  0  0  0  0  0  0  0  0  0  0  0
   -6.2771    4.8061  -16.6443 N   0  0  0  0  0  0  0  0  0  0  0  0
   -6.2776    4.6775  -15.1904 C   0  0  0  0  0  0  0  0  0  0  0  0
   -7.3471    4.4160  -17.3735 C   0  0  0  0  0  0  0  0  0  0  0  0
   -7.2857    4.5447  -18.7447 C   0  0  0  0  0  0  0  0  0  0  0  0
   -6.2013    5.0489  -19.3648 N   0  0  0  0  0  0  0  0  0  0  0  0
  1  2  1  0
  2  3  2  0
  2  4  1  0
  4  5  1  6
  4  6  1  0
  6  7  1  0
  7  8  2  0
  8  9  1  0
  9 10  1  0
  9 11  2  0
 11 12  1  0
 12 13  2  0
 13  7  1  0
M  CHG  1   9   1
M  END
>  <energy_score>  (4334) 
-24.898047

>  <alias>  (4334) 
CLHIANUFXWACSC-UHFFFAOYSA-N-P7-P7-P52-601529

>  <HIPPO Pose ID>  (4334) 
83739

>  <smiles>  (4334) 
CC(=O)C(C)Nc1c[n+](C)ccn1

>  <inchikey>  (4334) 
CLHIANUFXWACSC-UHFFFAOYSA-N

>  <distance_score>  (4334) 
1.066974

>  <ref_mols>  (4334) 
Z0875a,Z0089a

>  <ref_pdb>  (4334) 
Z0719a

>  <HIPPO Compound ID>  (4334) 
144391

>  <name>  (4334) 
CLHIANUFXWACSC-UHFFFAOYSA-N-P7-P7-P52-601529

>  <inspiration_score>  (4334) 
None

$$$$
ROFCWPMRMUTIAC-UHFFFAOYSA-N-P7-P7-P52-601529
     RDKit          3D

 13 13  0  0  0  0  0  0  0  0999 V2000
   -1.3807    4.0970  -19.4929 C   0  0  0  0  0  0  0  0  0  0  0  0
   -2.1851    5.1323  -20.2223 C   0  0  0  0  0  0  0  0  0  0  0  0
   -2.0319    5.3320  -21.4326 O   0  0  0  0  0  0  0  0  0  0  0  0
   -3.2901    5.8524  -19.4512 C   0  0  2  0  0  0  0  0  0  0  0  0
   -2.7068    6.5164  -18.2206 C   0  0  0  0  0  0  0  0  0  0  0  0
   -4.3208    4.8391  -19.2535 N   0  0  0  0  0  0  0  0  0  0  0  0
   -5.4140    4.9848  -18.4330 C   0  0  0  0  0  0  0  0  0  0  0  0
   -5.3715    5.1748  -17.0516 C   0  0  0  0  0  0  0  0  0  0  0  0
   -6.4729    5.1664  -16.2627 N   0  0  0  0  0  0  0  0  0  0  0  0
   -7.6263    4.8827  -16.9107 C   0  0  0  0  0  0  0  0  0  0  0  0
   -7.6683    4.7111  -18.2794 C   0  0  0  0  0  0  0  0  0  0  0  0
   -8.8381    4.5456  -18.9443 O   0  0  0  0  0  0  0  0  0  0  0  0
   -6.5828    4.7747  -19.0631 N   0  0  0  0  0  0  0  0  0  0  0  0
  1  2  1  0
  2  3  2  0
  2  4  1  0
  4  5  1  1
  4  6  1  0
  6  7  1  0
  7  8  2  0
  8  9  1  0
  9 10  2  0
 10 11  1  0
 11 12  1  0
 11 13  2  0
 13  7  1  0
M  END
>  <energy_score>  (4335) 
-31.335302

>  <alias>  (4335) 
ROFCWPMRMUTIAC-UHFFFAOYSA-N-P7-P7-P52-601529

>  <HIPPO Pose ID>  (4335) 
83741

>  <smiles>  (4335) 
CC(=O)C(C)Nc1cncc(O)n1

>  <inchikey>  (4335) 
ROFCWPMRMUTIAC-UHFFFAOYSA-N

>  <distance_score>  (4335) 
0.870542

>  <ref_mols>  (4335) 
Z0875a,Z0089a

>  <ref_pdb>  (4335) 
Z0719a

>  <HIPPO Compound ID>  (4335) 
144392

>  <name>  (4335) 
ROFCWPMRMUTIAC-UHFFFAOYSA-N-P7-P7-P52-601529

>  <inspiration_score>  (4335) 
None

$$$$
VBRCGHFSNYQEHX-UHFFFAOYSA-N-P7-P7-P52-601529
     RDKit          3D

 13 13  0  0  0  0  0  0  0  0999 V2000
   -1.2286    5.5268  -20.6090 C   0  0  0  0  0  0  0  0  0  0  0  0
   -1.9758    4.7007  -19.5901 C   0  0  0  0  0  0  0  0  0  0  0  0
   -1.9431    3.4702  -19.6379 O   0  0  0  0  0  0  0  0  0  0  0  0
   -2.8409    5.4341  -18.5556 C   0  0  1  0  0  0  0  0  0  0  0  0
   -2.2032    6.7648  -18.1630 C   0  0  0  0  0  0  0  0  0  0  0  0
   -4.1638    5.6885  -19.1239 N   0  0  0  0  0  0  0  0  0  0  0  0
   -5.2828    5.3191  -18.3885 C   0  0  0  0  0  0  0  0  0  0  0  0
   -6.2498    4.7830  -19.1585 N   0  0  0  0  0  0  0  0  0  0  0  0
   -7.4169    4.4733  -18.5519 C   0  0  0  0  0  0  0  0  0  0  0  0
   -7.6206    4.6764  -17.2005 C   0  0  0  0  0  0  0  0  0  0  0  0
   -6.6783    5.2194  -16.3977 N   0  0  0  0  0  0  0  0  0  0  0  0
   -5.5201    5.5199  -17.0172 C   0  0  0  0  0  0  0  0  0  0  0  0
   -4.6314    6.0620  -16.1467 O   0  0  0  0  0  0  0  0  0  0  0  0
  1  2  1  0
  2  3  2  0
  2  4  1  0
  4  5  1  6
  4  6  1  0
  6  7  1  0
  7  8  2  0
  8  9  1  0
  9 10  2  0
 10 11  1  0
 11 12  2  0
 12 13  1  0
 12  7  1  0
M  END
>  <energy_score>  (4336) 
-39.208759

>  <alias>  (4336) 
VBRCGHFSNYQEHX-UHFFFAOYSA-N-P7-P7-P52-601529

>  <HIPPO Pose ID>  (4336) 
83743

>  <smiles>  (4336) 
CC(=O)C(C)Nc1nccnc1O

>  <inchikey>  (4336) 
VBRCGHFSNYQEHX-UHFFFAOYSA-N

>  <distance_score>  (4336) 
0.947551

>  <ref_mols>  (4336) 
Z0875a,Z0089a

>  <ref_pdb>  (4336) 
Z0719a

>  <HIPPO Compound ID>  (4336) 
144393

>  <name>  (4336) 
VBRCGHFSNYQEHX-UHFFFAOYSA-N-P7-P7-P52-601529

>  <inspiration_score>  (4336) 
None

$$$$
GIHVWYHXSVKLMV-UHFFFAOYSA-N-P7-P7-P52-601529
     RDKit          3D

 13 13  0  0  0  0  0  0  0  0999 V2000
   -1.5361    3.6371  -19.5531 C   0  0  0  0  0  0  0  0  0  0  0  0
   -2.2527    4.8484  -20.0414 C   0  0  0  0  0  0  0  0  0  0  0  0
   -2.2630    5.1497  -21.2390 O   0  0  0  0  0  0  0  0  0  0  0  0
   -2.9634    5.6887  -18.9935 C   0  0  1  0  0  0  0  0  0  0  0  0
   -2.2625    7.0359  -18.8914 C   0  0  0  0  0  0  0  0  0  0  0  0
   -4.3480    5.8889  -19.4104 N   0  0  0  0  0  0  0  0  0  0  0  0
   -5.3413    5.5113  -18.5227 C   0  0  0  0  0  0  0  0  0  0  0  0
   -5.3623    5.8953  -17.1802 C   0  0  0  0  0  0  0  0  0  0  0  0
   -6.3842    5.6280  -16.3406 N   0  0  0  0  0  0  0  0  0  0  0  0
   -7.4079    4.9589  -16.8971 C   0  0  0  0  0  0  0  0  0  0  0  0
   -8.4695    4.7774  -16.0685 O   0  0  0  0  0  0  0  0  0  0  0  0
   -7.4003    4.5560  -18.2236 C   0  0  0  0  0  0  0  0  0  0  0  0
   -6.3573    4.8106  -19.0488 N   0  0  0  0  0  0  0  0  0  0  0  0
  1  2  1  0
  2  3  2  0
  2  4  1  0
  4  5  1  6
  4  6  1  0
  6  7  1  0
  7  8  2  0
  8  9  1  0
  9 10  2  0
 10 11  1  0
 10 12  1  0
 12 13  2  0
 13  7  1  0
M  END
>  <energy_score>  (4337) 
-25.912121

>  <alias>  (4337) 
GIHVWYHXSVKLMV-UHFFFAOYSA-N-P7-P7-P52-601529

>  <HIPPO Pose ID>  (4337) 
83747

>  <smiles>  (4337) 
CC(=O)C(C)Nc1cnc(O)cn1

>  <inchikey>  (4337) 
GIHVWYHXSVKLMV-UHFFFAOYSA-N

>  <distance_score>  (4337) 
0.743076

>  <ref_mols>  (4337) 
Z0875a,Z0089a

>  <ref_pdb>  (4337) 
Z0719a

>  <HIPPO Compound ID>  (4337) 
144395

>  <name>  (4337) 
GIHVWYHXSVKLMV-UHFFFAOYSA-N-P7-P7-P52-601529

>  <inspiration_score>  (4337) 
None

$$$$
JMBHGKBTMFMZHT-UHFFFAOYSA-N-P7-P7-P52-601529
     RDKit          3D

 13 14  0  0  0  0  0  0  0  0999 V2000
   -8.8197    4.1261  -18.7328 C   0  0  0  0  0  0  0  0  0  0  0  0
   -7.4677    4.5427  -18.2477 C   0  0  0  0  0  0  0  0  0  0  0  0
   -7.2377    4.8197  -16.9090 C   0  0  0  0  0  0  0  0  0  0  0  0
   -6.0330    5.2210  -16.4404 N   0  0  0  0  0  0  0  0  0  0  0  0
   -5.0619    5.3250  -17.3825 C   0  0  0  0  0  0  0  0  0  0  0  0
   -5.2707    5.0857  -18.7374 C   0  0  0  0  0  0  0  0  0  0  0  0
   -4.3244    5.2582  -19.7399 N   0  0  0  0  0  0  0  0  0  0  0  0
   -2.9380    5.7103  -19.6096 C   0  0  0  0  0  0  0  0  0  0  0  0
   -1.8878    4.6098  -19.6990 C   0  0  0  0  0  0  0  0  0  0  0  0
   -1.6954    4.2759  -21.0760 O   0  0  0  0  0  0  0  0  0  0  0  0
   -2.5915    6.9838  -18.8607 C   0  0  0  0  0  0  0  0  0  0  0  0
   -2.5893    6.9939  -20.3522 C   0  0  0  0  0  0  0  0  0  0  0  0
   -6.4802    4.6757  -19.1655 N   0  0  0  0  0  0  0  0  0  0  0  0
  1  2  1  0
  2  3  2  0
  3  4  1  0
  4  5  2  0
  5  6  1  0
  6  7  1  0
  7  8  1  0
  8  9  1  0
  9 10  1  0
  8 11  1  0
 11 12  1  0
  6 13  2  0
 13  2  1  0
 12  8  1  0
M  END
>  <energy_score>  (4338) 
-28.704304

>  <alias>  (4338) 
JMBHGKBTMFMZHT-UHFFFAOYSA-N-P7-P7-P52-601529

>  <HIPPO Pose ID>  (4338) 
83751

>  <smiles>  (4338) 
Cc1cncc(NC2(CO)CC2)n1

>  <inchikey>  (4338) 
JMBHGKBTMFMZHT-UHFFFAOYSA-N

>  <distance_score>  (4338) 
0.680628

>  <ref_mols>  (4338) 
Z0875a,Z0089a

>  <ref_pdb>  (4338) 
Z0719a

>  <HIPPO Compound ID>  (4338) 
144397

>  <name>  (4338) 
JMBHGKBTMFMZHT-UHFFFAOYSA-N-P7-P7-P52-601529

>  <inspiration_score>  (4338) 
None

$$$$
BJCHSOZAIJGZKO-UHFFFAOYSA-N-P7-P7-P52-601529
     RDKit          3D

 13 14  0  0  0  0  0  0  0  0999 V2000
   -0.5418    4.7243  -19.5135 O   0  0  0  0  0  0  0  0  0  0  0  0
   -1.9098    4.3320  -19.5707 C   0  0  0  0  0  0  0  0  0  0  0  0
   -2.8432    5.5435  -19.6547 C   0  0  0  0  0  0  0  0  0  0  0  0
   -4.2599    5.2029  -19.8037 N   0  0  0  0  0  0  0  0  0  0  0  0
   -5.2182    5.0757  -18.8055 C   0  0  0  0  0  0  0  0  0  0  0  0
   -4.9833    5.1800  -17.4348 C   0  0  0  0  0  0  0  0  0  0  0  0
   -5.9587    5.0590  -16.4956 N   0  0  0  0  0  0  0  0  0  0  0  0
   -7.1915    4.7903  -16.9891 C   0  0  0  0  0  0  0  0  0  0  0  0
   -7.4247    4.6963  -18.3449 C   0  0  0  0  0  0  0  0  0  0  0  0
   -8.6700    4.5383  -18.8576 O   0  0  0  0  0  0  0  0  0  0  0  0
   -6.4626    4.8375  -19.2666 N   0  0  0  0  0  0  0  0  0  0  0  0
   -2.4577    6.8488  -18.9195 C   0  0  0  0  0  0  0  0  0  0  0  0
   -2.3713    6.7008  -20.4339 C   0  0  0  0  0  0  0  0  0  0  0  0
  1  2  1  0
  2  3  1  0
  3  4  1  0
  4  5  1  0
  5  6  2  0
  6  7  1  0
  7  8  2  0
  8  9  1  0
  9 10  1  0
  9 11  2  0
  3 12  1  0
 12 13  1  0
 13  3  1  0
 11  5  1  0
M  END
>  <energy_score>  (4339) 
-6.528025

>  <alias>  (4339) 
BJCHSOZAIJGZKO-UHFFFAOYSA-N-P7-P7-P52-601529

>  <HIPPO Pose ID>  (4339) 
83753

>  <smiles>  (4339) 
OCC1(Nc2cncc(O)n2)CC1

>  <inchikey>  (4339) 
BJCHSOZAIJGZKO-UHFFFAOYSA-N

>  <distance_score>  (4339) 
0.645077

>  <ref_mols>  (4339) 
Z0875a,Z0089a

>  <ref_pdb>  (4339) 
Z0719a

>  <HIPPO Compound ID>  (4339) 
144398

>  <name>  (4339) 
BJCHSOZAIJGZKO-UHFFFAOYSA-N-P7-P7-P52-601529

>  <inspiration_score>  (4339) 
None

$$$$
SXEVECLQLFIQGB-UHFFFAOYSA-N-P52-P7-P52-601529
     RDKit          3D

 13 14  0  0  0  0  0  0  0  0999 V2000
  -10.5795    4.7173  -18.6261 C   0  0  0  0  0  0  0  0  0  0  0  0
   -9.2105    4.4709  -18.1389 C   0  0  0  0  0  0  0  0  0  0  0  0
   -9.0430    4.3975  -16.7827 C   0  0  0  0  0  0  0  0  0  0  0  0
   -7.8518    4.5816  -16.2331 N   0  0  0  0  0  0  0  0  0  0  0  0
   -6.8072    4.8183  -17.0444 C   0  0  0  0  0  0  0  0  0  0  0  0
   -5.5871    5.2283  -16.4796 N   0  0  0  0  0  0  0  0  0  0  0  0
   -5.4241    5.3589  -14.9924 C   0  0  0  0  0  0  0  0  0  0  0  0
   -4.0460    5.8449  -14.5868 C   0  0  0  0  0  0  0  0  0  0  0  0
   -3.8171    7.1585  -15.0848 O   0  0  0  0  0  0  0  0  0  0  0  0
   -6.1026    4.3754  -14.0532 C   0  0  0  0  0  0  0  0  0  0  0  0
   -6.5566    5.8084  -14.0872 C   0  0  0  0  0  0  0  0  0  0  0  0
   -6.9733    4.7629  -18.4216 C   0  0  0  0  0  0  0  0  0  0  0  0
   -8.1728    4.5632  -18.9961 N   0  0  0  0  0  0  0  0  0  0  0  0
  1  2  1  0
  2  3  2  0
  3  4  1  0
  4  5  2  0
  5  6  1  0
  6  7  1  0
  7  8  1  0
  8  9  1  0
  7 10  1  0
 10 11  1  0
  5 12  1  0
 12 13  2  0
 13  2  1  0
 11  7  1  0
M  END
>  <energy_score>  (4340) 
-8.979536

>  <alias>  (4340) 
SXEVECLQLFIQGB-UHFFFAOYSA-N-P52-P7-P52-601529

>  <HIPPO Pose ID>  (4340) 
83756

>  <smiles>  (4340) 
Cc1cnc(NC2(CO)CC2)cn1

>  <inchikey>  (4340) 
SXEVECLQLFIQGB-UHFFFAOYSA-N

>  <distance_score>  (4340) 
1.995718

>  <ref_mols>  (4340) 
Z0875a,Z0089a

>  <ref_pdb>  (4340) 
Z0719a

>  <HIPPO Compound ID>  (4340) 
144399

>  <name>  (4340) 
SXEVECLQLFIQGB-UHFFFAOYSA-N-P52-P7-P52-601529

>  <inspiration_score>  (4340) 
None

$$$$
NZSXECPKVUFFBI-UHFFFAOYSA-N-P7-P7-P52-601529
     RDKit          3D

 13 14  0  0  0  0  0  0  0  0999 V2000
   -4.3005    6.1172  -12.7901 C   0  0  0  0  0  0  0  0  0  0  0  0
   -4.9118    5.7304  -13.9168 C   0  0  0  0  0  0  0  0  0  0  0  0
   -4.8571    6.4149  -15.2147 C   0  0  1  0  0  0  0  0  0  0  0  0
   -3.5454    6.6990  -15.8892 C   0  0  0  0  0  0  0  0  0  0  0  0
   -4.4184    5.5967  -16.4135 C   0  0  2  0  0  0  0  0  0  0  0  0
   -5.1052    5.6944  -17.7279 N   0  0  0  0  0  0  0  0  0  0  0  0
   -6.3956    5.1202  -17.7648 C   0  0  0  0  0  0  0  0  0  0  0  0
   -7.0218    4.7515  -18.9542 C   0  0  0  0  0  0  0  0  0  0  0  0
   -8.2686    4.2102  -19.0167 N   0  0  0  0  0  0  0  0  0  0  0  0
   -8.9008    4.1013  -17.8388 C   0  0  0  0  0  0  0  0  0  0  0  0
   -8.2852    4.4677  -16.6560 C   0  0  0  0  0  0  0  0  0  0  0  0
   -8.9311    4.3373  -15.3447 C   0  0  0  0  0  0  0  0  0  0  0  0
   -7.0502    4.9898  -16.6064 N   0  0  0  0  0  0  0  0  0  0  0  0
  1  2  2  0
  3  2  1  1
  3  4  1  0
  4  5  1  0
  5  6  1  6
  6  7  1  0
  7  8  2  0
  8  9  1  0
  9 10  2  0
 10 11  1  0
 11 12  1  0
 11 13  2  0
  5  3  1  0
 13  7  1  0
M  END
>  <energy_score>  (4341) 
-4.55516

>  <alias>  (4341) 
NZSXECPKVUFFBI-UHFFFAOYSA-N-P7-P7-P52-601529

>  <HIPPO Pose ID>  (4341) 
83759

>  <smiles>  (4341) 
C=CC1CC1Nc1cncc(C)n1

>  <inchikey>  (4341) 
NZSXECPKVUFFBI-UHFFFAOYSA-N

>  <distance_score>  (4341) 
1.182452

>  <ref_mols>  (4341) 
Z0875a,Z0089a

>  <ref_pdb>  (4341) 
Z0719a

>  <HIPPO Compound ID>  (4341) 
144401

>  <name>  (4341) 
NZSXECPKVUFFBI-UHFFFAOYSA-N-P7-P7-P52-601529

>  <inspiration_score>  (4341) 
None

$$$$
PLMGMKIUEGDYOZ-UHFFFAOYSA-N-P7-P7-P52-601529
     RDKit          3D

 13 13  0  0  0  0  0  0  0  0999 V2000
   -1.6754    3.4992  -19.5063 C   0  0  0  0  0  0  0  0  0  0  0  0
   -2.2398    4.5531  -19.5934 C   0  0  0  0  0  0  0  0  0  0  0  0
   -2.9042    5.8434  -19.7748 C   0  0  2  0  0  0  0  0  0  0  0  0
   -2.4586    6.8900  -18.7299 C   0  0  0  0  0  0  0  0  0  0  0  0
   -3.5075    7.8028  -18.3804 O   0  0  0  0  0  0  0  0  0  0  0  0
   -4.3484    5.6947  -19.8785 N   0  0  0  0  0  0  0  0  0  0  0  0
   -5.2262    5.2266  -18.9430 C   0  0  0  0  0  0  0  0  0  0  0  0
   -5.0580    5.2602  -17.5715 C   0  0  0  0  0  0  0  0  0  0  0  0
   -6.0738    4.8981  -16.7547 N   0  0  0  0  0  0  0  0  0  0  0  0
   -5.8577    4.9404  -15.3112 C   0  0  0  0  0  0  0  0  0  0  0  0
   -7.2598    4.5013  -17.2701 C   0  0  0  0  0  0  0  0  0  0  0  0
   -7.3934    4.4534  -18.6400 C   0  0  0  0  0  0  0  0  0  0  0  0
   -6.3836    4.7950  -19.4605 N   0  0  0  0  0  0  0  0  0  0  0  0
  1  2  3  0
  3  2  1  1
  3  4  1  0
  4  5  1  0
  3  6  1  0
  6  7  1  0
  7  8  2  0
  8  9  1  0
  9 10  1  0
  9 11  2  0
 11 12  1  0
 12 13  2  0
 13  7  1  0
M  CHG  1   9   1
M  END
>  <energy_score>  (4342) 
-26.305389

>  <alias>  (4342) 
PLMGMKIUEGDYOZ-UHFFFAOYSA-N-P7-P7-P52-601529

>  <HIPPO Pose ID>  (4342) 
83777

>  <smiles>  (4342) 
C#CC(CO)Nc1c[n+](C)ccn1

>  <inchikey>  (4342) 
PLMGMKIUEGDYOZ-UHFFFAOYSA-N

>  <distance_score>  (4342) 
0.730551

>  <ref_mols>  (4342) 
Z0875a,Z0089a

>  <ref_pdb>  (4342) 
Z0719a

>  <HIPPO Compound ID>  (4342) 
144410

>  <name>  (4342) 
PLMGMKIUEGDYOZ-UHFFFAOYSA-N-P7-P7-P52-601529

>  <inspiration_score>  (4342) 
None

$$$$
NSWGBSRUZKCHBS-UHFFFAOYSA-N-P7-P7-P52-601529
     RDKit          3D

 13 13  0  0  0  0  0  0  0  0999 V2000
   -1.7075    3.5465  -19.4552 C   0  0  0  0  0  0  0  0  0  0  0  0
   -2.3447    4.5598  -19.5226 C   0  0  0  0  0  0  0  0  0  0  0  0
   -3.1056    5.7914  -19.7219 C   0  0  2  0  0  0  0  0  0  0  0  0
   -2.6222    6.9596  -18.8499 C   0  0  0  0  0  0  0  0  0  0  0  0
   -3.4815    8.0963  -18.9975 O   0  0  0  0  0  0  0  0  0  0  0  0
   -4.5413    5.5835  -19.6702 N   0  0  0  0  0  0  0  0  0  0  0  0
   -5.3598    5.2031  -18.6444 C   0  0  0  0  0  0  0  0  0  0  0  0
   -5.1089    5.3361  -17.2803 C   0  0  0  0  0  0  0  0  0  0  0  0
   -6.0302    5.0928  -16.3135 N   0  0  0  0  0  0  0  0  0  0  0  0
   -7.2290    4.6668  -16.7697 C   0  0  0  0  0  0  0  0  0  0  0  0
   -7.4906    4.5081  -18.1182 C   0  0  0  0  0  0  0  0  0  0  0  0
   -8.7091    4.1027  -18.5794 O   0  0  0  0  0  0  0  0  0  0  0  0
   -6.5646    4.7656  -19.0586 N   0  0  0  0  0  0  0  0  0  0  0  0
  1  2  3  0
  3  2  1  1
  3  4  1  0
  4  5  1  0
  3  6  1  0
  6  7  1  0
  7  8  2  0
  8  9  1  0
  9 10  2  0
 10 11  1  0
 11 12  1  0
 11 13  2  0
 13  7  1  0
M  END
>  <energy_score>  (4343) 
-14.653183

>  <alias>  (4343) 
NSWGBSRUZKCHBS-UHFFFAOYSA-N-P7-P7-P52-601529

>  <HIPPO Pose ID>  (4343) 
83779

>  <smiles>  (4343) 
C#CC(CO)Nc1cncc(O)n1

>  <inchikey>  (4343) 
NSWGBSRUZKCHBS-UHFFFAOYSA-N

>  <distance_score>  (4343) 
0.708902

>  <ref_mols>  (4343) 
Z0875a,Z0089a

>  <ref_pdb>  (4343) 
Z0719a

>  <HIPPO Compound ID>  (4343) 
144411

>  <name>  (4343) 
NSWGBSRUZKCHBS-UHFFFAOYSA-N-P7-P7-P52-601529

>  <inspiration_score>  (4343) 
None

$$$$
IHGKQXOUQGZMAK-UHFFFAOYSA-N-P7-P7-P52-601529
     RDKit          3D

 13 13  0  0  0  0  0  0  0  0999 V2000
   -1.6403    3.4706  -19.5569 C   0  0  0  0  0  0  0  0  0  0  0  0
   -2.1627    4.5207  -19.3119 C   0  0  0  0  0  0  0  0  0  0  0  0
   -2.7523    5.8180  -18.9623 C   0  0  1  0  0  0  0  0  0  0  0  0
   -2.0194    6.9534  -19.7064 C   0  0  0  0  0  0  0  0  0  0  0  0
   -0.6658    7.1063  -19.2694 O   0  0  0  0  0  0  0  0  0  0  0  0
   -4.1526    5.8419  -19.3208 N   0  0  0  0  0  0  0  0  0  0  0  0
   -5.1361    5.3706  -18.4849 C   0  0  0  0  0  0  0  0  0  0  0  0
   -5.0925    5.3795  -17.0878 C   0  0  0  0  0  0  0  0  0  0  0  0
   -6.1186    4.9857  -16.2978 N   0  0  0  0  0  0  0  0  0  0  0  0
   -7.2111    4.6046  -16.9766 C   0  0  0  0  0  0  0  0  0  0  0  0
   -8.2482    4.2311  -16.1952 O   0  0  0  0  0  0  0  0  0  0  0  0
   -7.2931    4.5940  -18.3523 C   0  0  0  0  0  0  0  0  0  0  0  0
   -6.2465    4.9650  -19.1231 N   0  0  0  0  0  0  0  0  0  0  0  0
  1  2  3  0
  3  2  1  6
  3  4  1  0
  4  5  1  0
  3  6  1  0
  6  7  1  0
  7  8  2  0
  8  9  1  0
  9 10  2  0
 10 11  1  0
 10 12  1  0
 12 13  2  0
 13  7  1  0
M  END
>  <energy_score>  (4344) 
-41.753909

>  <alias>  (4344) 
IHGKQXOUQGZMAK-UHFFFAOYSA-N-P7-P7-P52-601529

>  <HIPPO Pose ID>  (4344) 
83787

>  <smiles>  (4344) 
C#CC(CO)Nc1cnc(O)cn1

>  <inchikey>  (4344) 
IHGKQXOUQGZMAK-UHFFFAOYSA-N

>  <distance_score>  (4344) 
0.738982

>  <ref_mols>  (4344) 
Z0875a,Z0089a

>  <ref_pdb>  (4344) 
Z0719a

>  <HIPPO Compound ID>  (4344) 
144415

>  <name>  (4344) 
IHGKQXOUQGZMAK-UHFFFAOYSA-N-P7-P7-P52-601529

>  <inspiration_score>  (4344) 
None

$$$$
GUWMNMIKKNFXNO-UHFFFAOYSA-N-P7-P7-P52-601529
     RDKit          3D

 13 14  0  0  0  0  0  0  0  0999 V2000
   -1.5265    4.0027  -19.9301 C   0  0  0  0  0  0  0  0  0  0  0  0
   -2.1167    4.8107  -18.8012 C   0  0  0  0  0  0  0  0  0  0  0  0
   -3.0937    5.8508  -19.3124 C   0  0  0  0  0  0  0  0  0  0  0  0
   -4.4240    5.3380  -19.6187 N   0  0  0  0  0  0  0  0  0  0  0  0
   -5.4409    5.1362  -18.6892 C   0  0  0  0  0  0  0  0  0  0  0  0
   -5.2890    5.2639  -17.3050 C   0  0  0  0  0  0  0  0  0  0  0  0
   -6.3004    5.0894  -16.4169 N   0  0  0  0  0  0  0  0  0  0  0  0
   -7.4831    4.7414  -16.9752 C   0  0  0  0  0  0  0  0  0  0  0  0
   -7.6352    4.6288  -18.3422 C   0  0  0  0  0  0  0  0  0  0  0  0
   -8.8438    4.4210  -18.9191 O   0  0  0  0  0  0  0  0  0  0  0  0
   -6.6371    4.8191  -19.2159 N   0  0  0  0  0  0  0  0  0  0  0  0
   -2.9445    7.2675  -18.7980 C   0  0  0  0  0  0  0  0  0  0  0  0
   -2.5447    6.9519  -20.2022 C   0  0  0  0  0  0  0  0  0  0  0  0
  1  2  1  0
  2  3  1  0
  3  4  1  0
  4  5  1  0
  5  6  2  0
  6  7  1  0
  7  8  2  0
  8  9  1  0
  9 10  1  0
  9 11  2  0
  3 12  1  0
 12 13  1  0
 13  3  1  0
 11  5  1  0
M  END
>  <energy_score>  (4345) 
-24.809844

>  <alias>  (4345) 
GUWMNMIKKNFXNO-UHFFFAOYSA-N-P7-P7-P52-601529

>  <HIPPO Pose ID>  (4345) 
83791

>  <smiles>  (4345) 
CCC1(Nc2cncc(O)n2)CC1

>  <inchikey>  (4345) 
GUWMNMIKKNFXNO-UHFFFAOYSA-N

>  <distance_score>  (4345) 
0.755352

>  <ref_mols>  (4345) 
Z0875a,Z0089a

>  <ref_pdb>  (4345) 
Z0719a

>  <HIPPO Compound ID>  (4345) 
144417

>  <name>  (4345) 
GUWMNMIKKNFXNO-UHFFFAOYSA-N-P7-P7-P52-601529

>  <inspiration_score>  (4345) 
None

$$$$
FUZCOBBZHHWAPI-UHFFFAOYSA-N-P7-P7-P52-601529
     RDKit          3D

 13 13  0  0  0  0  0  0  0  0999 V2000
   -8.5598    4.1361  -18.8525 C   0  0  0  0  0  0  0  0  0  0  0  0
   -7.2832    4.5974  -18.2227 C   0  0  0  0  0  0  0  0  0  0  0  0
   -7.2561    4.9579  -16.8843 C   0  0  0  0  0  0  0  0  0  0  0  0
   -6.1604    5.4760  -16.2892 N   0  0  0  0  0  0  0  0  0  0  0  0
   -5.0821    5.5998  -17.0970 C   0  0  0  0  0  0  0  0  0  0  0  0
   -5.0610    5.1983  -18.4326 C   0  0  0  0  0  0  0  0  0  0  0  0
   -3.9738    5.3033  -19.2829 N   0  0  0  0  0  0  0  0  0  0  0  0
   -2.6010    5.2645  -18.7613 C   0  0  0  0  0  0  0  0  0  0  0  0
   -1.7116    4.3300  -19.5832 C   0  0  0  0  0  0  0  0  0  0  0  0
   -2.0874    3.0432  -19.3588 F   0  0  0  0  0  0  0  0  0  0  0  0
   -2.0082    6.6777  -18.8029 C   0  0  0  0  0  0  0  0  0  0  0  0
   -2.6022    7.4542  -17.8537 F   0  0  0  0  0  0  0  0  0  0  0  0
   -6.1764    4.7064  -19.0025 N   0  0  0  0  0  0  0  0  0  0  0  0
  1  2  1  0
  2  3  2  0
  3  4  1  0
  4  5  2  0
  5  6  1  0
  6  7  1  0
  7  8  1  0
  8  9  1  0
  9 10  1  0
  8 11  1  0
 11 12  1  0
  6 13  2  0
 13  2  1  0
M  END
>  <energy_score>  (4346) 
-21.132095

>  <alias>  (4346) 
FUZCOBBZHHWAPI-UHFFFAOYSA-N-P7-P7-P52-601529

>  <HIPPO Pose ID>  (4346) 
83793

>  <smiles>  (4346) 
Cc1cncc(NC(CF)CF)n1

>  <inchikey>  (4346) 
FUZCOBBZHHWAPI-UHFFFAOYSA-N

>  <distance_score>  (4346) 
0.697417

>  <ref_mols>  (4346) 
Z0875a,Z0089a

>  <ref_pdb>  (4346) 
Z0719a

>  <HIPPO Compound ID>  (4346) 
144418

>  <name>  (4346) 
FUZCOBBZHHWAPI-UHFFFAOYSA-N-P7-P7-P52-601529

>  <inspiration_score>  (4346) 
None

$$$$
ZLRGNTWSBGIYNH-UHFFFAOYSA-N-P52-P7-P52-601529
     RDKit          3D

 13 14  0  0  0  0  0  0  0  0999 V2000
   -4.0860    5.8974  -19.3144 C   0  0  0  0  0  0  0  0  0  0  0  0
   -4.2127    4.9101  -18.1696 C   0  0  0  0  0  0  0  0  0  0  0  0
   -4.5776    5.5586  -16.8394 C   0  0  0  0  0  0  0  0  0  0  0  0
   -5.8046    6.3997  -16.8237 N   0  0  0  0  0  0  0  0  0  0  0  0
   -6.9914    5.7029  -17.0971 C   0  0  0  0  0  0  0  0  0  0  0  0
   -7.3371    5.3063  -18.3842 C   0  0  0  0  0  0  0  0  0  0  0  0
   -8.4831    4.6853  -18.6625 N   0  0  0  0  0  0  0  0  0  0  0  0
   -9.2904    4.4836  -17.6127 C   0  0  0  0  0  0  0  0  0  0  0  0
  -10.6017    3.9522  -17.9784 C   0  0  0  0  0  0  0  0  0  0  0  0
   -8.9286    4.8077  -16.3174 C   0  0  0  0  0  0  0  0  0  0  0  0
   -7.7850    5.4611  -16.0344 N   0  0  0  0  0  0  0  0  0  0  0  0
   -3.4511    5.9908  -15.9242 C   0  0  0  0  0  0  0  0  0  0  0  0
   -4.2596    4.7825  -15.5674 C   0  0  0  0  0  0  0  0  0  0  0  0
  1  2  1  0
  2  3  1  0
  3  4  1  0
  4  5  1  0
  5  6  2  0
  6  7  1  0
  7  8  2  0
  8  9  1  0
  8 10  1  0
 10 11  2  0
  3 12  1  0
 12 13  1  0
 13  3  1  0
 11  5  1  0
M  END
>  <energy_score>  (4347) 
-17.494018

>  <alias>  (4347) 
ZLRGNTWSBGIYNH-UHFFFAOYSA-N-P52-P7-P52-601529

>  <HIPPO Pose ID>  (4347) 
83796

>  <smiles>  (4347) 
CCC1(Nc2cnc(C)cn2)CC1

>  <inchikey>  (4347) 
ZLRGNTWSBGIYNH-UHFFFAOYSA-N

>  <distance_score>  (4347) 
1.857333

>  <ref_mols>  (4347) 
Z0875a,Z0089a

>  <ref_pdb>  (4347) 
Z0719a

>  <HIPPO Compound ID>  (4347) 
144419

>  <name>  (4347) 
ZLRGNTWSBGIYNH-UHFFFAOYSA-N-P52-P7-P52-601529

>  <inspiration_score>  (4347) 
None

$$$$
DWIFNVJRQZHNNO-UHFFFAOYSA-N-P7-P7-P52-601529
     RDKit          3D

 13 14  0  0  0  0  0  0  0  0999 V2000
   -4.5170    4.9294  -19.3338 C   0  0  0  0  0  0  0  0  0  0  0  0
   -3.8521    5.0570  -17.9727 C   0  0  0  0  0  0  0  0  0  0  0  0
   -4.7512    5.4728  -16.8118 C   0  0  0  0  0  0  0  0  0  0  0  0
   -5.9981    6.1494  -17.1871 N   0  0  0  0  0  0  0  0  0  0  0  0
   -7.1600    5.3674  -17.2627 C   0  0  0  0  0  0  0  0  0  0  0  0
   -7.6848    4.9916  -18.5024 C   0  0  0  0  0  0  0  0  0  0  0  0
   -8.8560    4.3534  -18.6529 N   0  0  0  0  0  0  0  0  0  0  0  0
   -9.4678    4.0863  -17.5019 C   0  0  0  0  0  0  0  0  0  0  0  0
  -10.6920    3.5925  -17.7024 O   0  0  0  0  0  0  0  0  0  0  0  0
   -8.9561    4.3777  -16.2569 C   0  0  0  0  0  0  0  0  0  0  0  0
   -7.7901    5.0411  -16.1141 N   0  0  0  0  0  0  0  0  0  0  0  0
   -4.0386    6.0620  -15.6012 C   0  0  0  0  0  0  0  0  0  0  0  0
   -4.6503    4.7078  -15.4978 C   0  0  0  0  0  0  0  0  0  0  0  0
  1  2  1  0
  2  3  1  0
  3  4  1  0
  4  5  1  0
  5  6  2  0
  6  7  1  0
  7  8  2  0
  8  9  1  0
  8 10  1  0
 10 11  2  0
  3 12  1  0
 12 13  1  0
 13  3  1  0
 11  5  1  0
M  END
>  <energy_score>  (4348) 
-24.359129

>  <alias>  (4348) 
DWIFNVJRQZHNNO-UHFFFAOYSA-N-P7-P7-P52-601529

>  <HIPPO Pose ID>  (4348) 
83797

>  <smiles>  (4348) 
CCC1(Nc2cnc(O)cn2)CC1

>  <inchikey>  (4348) 
DWIFNVJRQZHNNO-UHFFFAOYSA-N

>  <distance_score>  (4348) 
1.550554

>  <ref_mols>  (4348) 
Z0875a,Z0089a

>  <ref_pdb>  (4348) 
Z0719a

>  <HIPPO Compound ID>  (4348) 
144420

>  <name>  (4348) 
DWIFNVJRQZHNNO-UHFFFAOYSA-N-P7-P7-P52-601529

>  <inspiration_score>  (4348) 
None

$$$$
BBZPTFUPNIYBFD-UHFFFAOYSA-N-P7-P7-P52-601529
     RDKit          3D

 13 13  0  0  0  0  0  0  0  0999 V2000
   -4.3841    5.7363  -16.2627 O   0  0  0  0  0  0  0  0  0  0  0  0
   -5.3992    5.3113  -17.0591 C   0  0  0  0  0  0  0  0  0  0  0  0
   -6.5551    5.2449  -16.3671 N   0  0  0  0  0  0  0  0  0  0  0  0
   -7.6176    4.8244  -17.0891 C   0  0  0  0  0  0  0  0  0  0  0  0
   -7.5346    4.5496  -18.4393 C   0  0  0  0  0  0  0  0  0  0  0  0
   -6.3720    4.6456  -19.1176 N   0  0  0  0  0  0  0  0  0  0  0  0
   -5.2754    5.0158  -18.4262 C   0  0  0  0  0  0  0  0  0  0  0  0
   -4.1533    5.0019  -19.1975 N   0  0  0  0  0  0  0  0  0  0  0  0
   -2.7924    5.3627  -18.8439 C   0  0  0  0  0  0  0  0  0  0  0  0
   -1.8271    4.6150  -19.7779 C   0  0  0  0  0  0  0  0  0  0  0  0
   -2.1537    4.8679  -21.0825 F   0  0  0  0  0  0  0  0  0  0  0  0
   -2.5703    6.8719  -18.9487 C   0  0  0  0  0  0  0  0  0  0  0  0
   -2.7264    7.2978  -20.2318 F   0  0  0  0  0  0  0  0  0  0  0  0
  1  2  1  0
  2  3  2  0
  3  4  1  0
  4  5  2  0
  5  6  1  0
  6  7  2  0
  7  8  1  0
  8  9  1  0
  9 10  1  0
 10 11  1  0
  9 12  1  0
 12 13  1  0
  7  2  1  0
M  END
>  <energy_score>  (4349) 
-39.328445

>  <alias>  (4349) 
BBZPTFUPNIYBFD-UHFFFAOYSA-N-P7-P7-P52-601529

>  <HIPPO Pose ID>  (4349) 
83799

>  <smiles>  (4349) 
Oc1nccnc1NC(CF)CF

>  <inchikey>  (4349) 
BBZPTFUPNIYBFD-UHFFFAOYSA-N

>  <distance_score>  (4349) 
0.896538

>  <ref_mols>  (4349) 
Z0875a,Z0089a

>  <ref_pdb>  (4349) 
Z0719a

>  <HIPPO Compound ID>  (4349) 
144421

>  <name>  (4349) 
BBZPTFUPNIYBFD-UHFFFAOYSA-N-P7-P7-P52-601529

>  <inspiration_score>  (4349) 
None

$$$$
UBSJQWSSPPJJEB-UHFFFAOYSA-N-P7-P7-P52-601529
     RDKit          3D

 13 13  0  0  0  0  0  0  0  0999 V2000
   -8.4189    5.0268  -16.1272 O   0  0  0  0  0  0  0  0  0  0  0  0
   -7.3255    5.0074  -16.9375 C   0  0  0  0  0  0  0  0  0  0  0  0
   -7.3873    4.6752  -18.2805 C   0  0  0  0  0  0  0  0  0  0  0  0
   -6.2901    4.6770  -19.0721 N   0  0  0  0  0  0  0  0  0  0  0  0
   -5.1223    5.0027  -18.4895 C   0  0  0  0  0  0  0  0  0  0  0  0
   -4.0440    4.9086  -19.3239 N   0  0  0  0  0  0  0  0  0  0  0  0
   -2.6859    5.3507  -19.0350 C   0  0  0  0  0  0  0  0  0  0  0  0
   -1.7290    4.6363  -19.9918 C   0  0  0  0  0  0  0  0  0  0  0  0
   -2.0392    5.0040  -21.2740 F   0  0  0  0  0  0  0  0  0  0  0  0
   -2.5382    6.8634  -19.2065 C   0  0  0  0  0  0  0  0  0  0  0  0
   -3.1337    7.5007  -18.1591 F   0  0  0  0  0  0  0  0  0  0  0  0
   -5.0871    5.3385  -17.1367 C   0  0  0  0  0  0  0  0  0  0  0  0
   -6.1813    5.3752  -16.3393 N   0  0  0  0  0  0  0  0  0  0  0  0
  1  2  1  0
  2  3  2  0
  3  4  1  0
  4  5  2  0
  5  6  1  0
  6  7  1  0
  7  8  1  0
  8  9  1  0
  7 10  1  0
 10 11  1  0
  5 12  1  0
 12 13  2  0
 13  2  1  0
M  END
>  <energy_score>  (4350) 
-21.540982

>  <alias>  (4350) 
UBSJQWSSPPJJEB-UHFFFAOYSA-N-P7-P7-P52-601529

>  <HIPPO Pose ID>  (4350) 
83803

>  <smiles>  (4350) 
Oc1cnc(NC(CF)CF)cn1

>  <inchikey>  (4350) 
UBSJQWSSPPJJEB-UHFFFAOYSA-N

>  <distance_score>  (4350) 
0.670518

>  <ref_mols>  (4350) 
Z0875a,Z0089a

>  <ref_pdb>  (4350) 
Z0719a

>  <HIPPO Compound ID>  (4350) 
144423

>  <name>  (4350) 
UBSJQWSSPPJJEB-UHFFFAOYSA-N-P7-P7-P52-601529

>  <inspiration_score>  (4350) 
None

$$$$
BPYXTMFGFSKDDT-UHFFFAOYSA-N-P7-P7-P52-601529
     RDKit          3D

 13 13  0  0  0  0  0  0  0  0999 V2000
   -6.0421    4.8054  -15.2681 C   0  0  0  0  0  0  0  0  0  0  0  0
   -6.1707    4.8382  -16.7212 N   0  0  0  0  0  0  0  0  0  0  0  0
   -7.3294    4.4925  -17.3278 C   0  0  0  0  0  0  0  0  0  0  0  0
   -7.3706    4.4880  -18.7054 C   0  0  0  0  0  0  0  0  0  0  0  0
   -6.2970    4.8170  -19.4477 N   0  0  0  0  0  0  0  0  0  0  0  0
   -5.1640    5.1814  -18.8370 C   0  0  0  0  0  0  0  0  0  0  0  0
   -4.1715    5.5975  -19.6785 N   0  0  0  0  0  0  0  0  0  0  0  0
   -2.7446    5.6820  -19.3529 C   0  0  0  0  0  0  0  0  0  0  0  0
   -2.1011    4.3088  -19.1778 C   0  0  0  0  0  0  0  0  0  0  0  0
   -2.6600    3.7214  -18.0788 F   0  0  0  0  0  0  0  0  0  0  0  0
   -2.0347    6.4282  -20.4757 C   0  0  0  0  0  0  0  0  0  0  0  0
   -2.2147    5.7229  -21.6361 F   0  0  0  0  0  0  0  0  0  0  0  0
   -5.0924    5.1879  -17.4567 C   0  0  0  0  0  0  0  0  0  0  0  0
  1  2  1  0
  2  3  2  0
  3  4  1  0
  4  5  2  0
  5  6  1  0
  6  7  1  0
  7  8  1  0
  8  9  1  0
  9 10  1  0
  8 11  1  0
 11 12  1  0
  6 13  2  0
 13  2  1  0
M  CHG  1   2   1
M  END
>  <energy_score>  (4351) 
-30.698773

>  <alias>  (4351) 
BPYXTMFGFSKDDT-UHFFFAOYSA-N-P7-P7-P52-601529

>  <HIPPO Pose ID>  (4351) 
83807

>  <smiles>  (4351) 
C[n+]1ccnc(NC(CF)CF)c1

>  <inchikey>  (4351) 
BPYXTMFGFSKDDT-UHFFFAOYSA-N

>  <distance_score>  (4351) 
0.845298

>  <ref_mols>  (4351) 
Z0875a,Z0089a

>  <ref_pdb>  (4351) 
Z0719a

>  <HIPPO Compound ID>  (4351) 
144425

>  <name>  (4351) 
BPYXTMFGFSKDDT-UHFFFAOYSA-N-P7-P7-P52-601529

>  <inspiration_score>  (4351) 
None

$$$$
QPRXMWCVQVDTMN-UHFFFAOYSA-N-P7-P7-P52-601529
     RDKit          3D

 13 13  0  0  0  0  0  0  0  0999 V2000
   -1.4790    5.8569  -20.9255 C   0  0  0  0  0  0  0  0  0  0  0  0
   -1.8485    4.8611  -19.8248 C   0  0  1  0  0  0  0  0  0  0  0  0
   -0.6309    4.3511  -19.2863 O   0  0  0  0  0  0  0  0  0  0  0  0
   -2.7367    5.4674  -18.6953 C   0  0  1  0  0  0  0  0  0  0  0  0
   -2.1567    6.7973  -18.2051 C   0  0  0  0  0  0  0  0  0  0  0  0
   -4.0957    5.7008  -19.1851 N   0  0  0  0  0  0  0  0  0  0  0  0
   -5.1957    5.3142  -18.4380 C   0  0  0  0  0  0  0  0  0  0  0  0
   -6.1769    4.8023  -19.2090 N   0  0  0  0  0  0  0  0  0  0  0  0
   -7.3429    4.4912  -18.6003 C   0  0  0  0  0  0  0  0  0  0  0  0
   -7.5324    4.6629  -17.2434 C   0  0  0  0  0  0  0  0  0  0  0  0
   -6.5736    5.1683  -16.4367 N   0  0  0  0  0  0  0  0  0  0  0  0
   -5.4160    5.4740  -17.0588 C   0  0  0  0  0  0  0  0  0  0  0  0
   -4.5217    5.9873  -16.1789 O   0  0  0  0  0  0  0  0  0  0  0  0
  2  1  1  6
  2  3  1  0
  2  4  1  0
  4  5  1  6
  4  6  1  0
  6  7  1  0
  7  8  2  0
  8  9  1  0
  9 10  2  0
 10 11  1  0
 11 12  2  0
 12 13  1  0
 12  7  1  0
M  END
>  <energy_score>  (4352) 
-30.983622

>  <alias>  (4352) 
QPRXMWCVQVDTMN-UHFFFAOYSA-N-P7-P7-P52-601529

>  <HIPPO Pose ID>  (4352) 
83823

>  <smiles>  (4352) 
CC(O)C(C)Nc1nccnc1O

>  <inchikey>  (4352) 
QPRXMWCVQVDTMN-UHFFFAOYSA-N

>  <distance_score>  (4352) 
0.953072

>  <ref_mols>  (4352) 
Z0875a,Z0089a

>  <ref_pdb>  (4352) 
Z0719a

>  <HIPPO Compound ID>  (4352) 
144433

>  <name>  (4352) 
QPRXMWCVQVDTMN-UHFFFAOYSA-N-P7-P7-P52-601529

>  <inspiration_score>  (4352) 
None

$$$$
ZRRZNQUDOUTNJK-UHFFFAOYSA-N-P7-P7-P52-601529
     RDKit          3D

 13 13  0  0  0  0  0  0  0  0999 V2000
   -1.1639    6.4058  -22.1088 C   0  0  0  0  0  0  0  0  0  0  0  0
   -1.3228    5.7129  -21.1404 C   0  0  0  0  0  0  0  0  0  0  0  0
   -1.4810    4.8676  -19.9407 C   0  0  0  0  0  0  0  0  0  0  0  0
   -2.5582    5.3896  -18.9714 C   0  0  1  0  0  0  0  0  0  0  0  0
   -2.4059    6.8793  -18.6638 C   0  0  0  0  0  0  0  0  0  0  0  0
   -3.8964    5.1132  -19.4761 N   0  0  0  0  0  0  0  0  0  0  0  0
   -5.0358    4.9705  -18.7383 C   0  0  0  0  0  0  0  0  0  0  0  0
   -5.0904    4.9900  -17.3564 C   0  0  0  0  0  0  0  0  0  0  0  0
   -6.2681    4.8166  -16.7175 N   0  0  0  0  0  0  0  0  0  0  0  0
   -6.2765    4.8259  -15.2583 C   0  0  0  0  0  0  0  0  0  0  0  0
   -7.4004    4.5942  -17.4217 C   0  0  0  0  0  0  0  0  0  0  0  0
   -7.3187    4.5717  -18.7970 C   0  0  0  0  0  0  0  0  0  0  0  0
   -6.1529    4.7644  -19.4458 N   0  0  0  0  0  0  0  0  0  0  0  0
  1  2  3  0
  2  3  1  0
  3  4  1  0
  4  5  1  6
  4  6  1  0
  6  7  1  0
  7  8  2  0
  8  9  1  0
  9 10  1  0
  9 11  2  0
 11 12  1  0
 12 13  2  0
 13  7  1  0
M  CHG  1   9   1
M  END
>  <energy_score>  (4353) 
-20.316557

>  <alias>  (4353) 
ZRRZNQUDOUTNJK-UHFFFAOYSA-N-P7-P7-P52-601529

>  <HIPPO Pose ID>  (4353) 
83827

>  <smiles>  (4353) 
C#CCC(C)Nc1c[n+](C)ccn1

>  <inchikey>  (4353) 
ZRRZNQUDOUTNJK-UHFFFAOYSA-N

>  <distance_score>  (4353) 
0.855452

>  <ref_mols>  (4353) 
Z0875a,Z0089a

>  <ref_pdb>  (4353) 
Z0719a

>  <HIPPO Compound ID>  (4353) 
144435

>  <name>  (4353) 
ZRRZNQUDOUTNJK-UHFFFAOYSA-N-P7-P7-P52-601529

>  <inspiration_score>  (4353) 
None

$$$$
RUBVGVVVSIQKNR-UHFFFAOYSA-N-P52-P7-P52-601529
     RDKit          3D

 13 13  0  0  0  0  0  0  0  0999 V2000
    0.7381    5.7118  -18.7246 C   0  0  0  0  0  0  0  0  0  0  0  0
   -0.3326    5.3092  -19.0904 C   0  0  0  0  0  0  0  0  0  0  0  0
   -1.6429    4.8081  -19.5440 C   0  0  0  0  0  0  0  0  0  0  0  0
   -2.8115    5.5836  -18.9007 C   0  0  1  0  0  0  0  0  0  0  0  0
   -2.8388    7.0429  -19.3541 C   0  0  0  0  0  0  0  0  0  0  0  0
   -4.0704    4.9412  -19.2638 N   0  0  0  0  0  0  0  0  0  0  0  0
   -5.1940    4.9925  -18.4590 C   0  0  0  0  0  0  0  0  0  0  0  0
   -5.1854    5.0998  -17.0630 C   0  0  0  0  0  0  0  0  0  0  0  0
   -6.3044    5.1006  -16.2956 N   0  0  0  0  0  0  0  0  0  0  0  0
   -7.4527    4.9070  -16.9795 C   0  0  0  0  0  0  0  0  0  0  0  0
   -7.4671    4.8003  -18.3546 C   0  0  0  0  0  0  0  0  0  0  0  0
   -8.6347    4.6889  -19.0373 O   0  0  0  0  0  0  0  0  0  0  0  0
   -6.3620    4.8639  -19.1196 N   0  0  0  0  0  0  0  0  0  0  0  0
  1  2  3  0
  2  3  1  0
  3  4  1  0
  4  5  1  6
  4  6  1  0
  6  7  1  0
  7  8  2  0
  8  9  1  0
  9 10  2  0
 10 11  1  0
 11 12  1  0
 11 13  2  0
 13  7  1  0
M  END
>  <energy_score>  (4354) 
-37.554381

>  <alias>  (4354) 
RUBVGVVVSIQKNR-UHFFFAOYSA-N-P52-P7-P52-601529

>  <HIPPO Pose ID>  (4354) 
83830

>  <smiles>  (4354) 
C#CCC(C)Nc1cncc(O)n1

>  <inchikey>  (4354) 
RUBVGVVVSIQKNR-UHFFFAOYSA-N

>  <distance_score>  (4354) 
0.728999

>  <ref_mols>  (4354) 
Z0875a,Z0089a

>  <ref_pdb>  (4354) 
Z0719a

>  <HIPPO Compound ID>  (4354) 
144436

>  <name>  (4354) 
RUBVGVVVSIQKNR-UHFFFAOYSA-N-P52-P7-P52-601529

>  <inspiration_score>  (4354) 
None

$$$$
UVKLIXVSXXTLQY-UHFFFAOYSA-N-P7-P7-P52-601529
     RDKit          3D

 13 13  0  0  0  0  0  0  0  0999 V2000
    0.7804    5.7917  -18.6927 C   0  0  0  0  0  0  0  0  0  0  0  0
   -0.2963    5.3603  -19.0043 C   0  0  0  0  0  0  0  0  0  0  0  0
   -1.6151    4.8280  -19.3937 C   0  0  0  0  0  0  0  0  0  0  0  0
   -2.7749    5.5669  -18.6877 C   0  0  1  0  0  0  0  0  0  0  0  0
   -2.8292    7.0396  -19.0941 C   0  0  0  0  0  0  0  0  0  0  0  0
   -4.0187    4.9184  -19.0582 N   0  0  0  0  0  0  0  0  0  0  0  0
   -5.2029    4.9834  -18.3698 C   0  0  0  0  0  0  0  0  0  0  0  0
   -6.2469    4.6156  -19.1421 N   0  0  0  0  0  0  0  0  0  0  0  0
   -7.4583    4.5362  -18.5511 C   0  0  0  0  0  0  0  0  0  0  0  0
   -7.6413    4.8291  -17.2148 C   0  0  0  0  0  0  0  0  0  0  0  0
   -6.6356    5.2584  -16.4213 N   0  0  0  0  0  0  0  0  0  0  0  0
   -5.4274    5.3047  -17.0206 C   0  0  0  0  0  0  0  0  0  0  0  0
   -4.4761    5.7177  -16.1459 O   0  0  0  0  0  0  0  0  0  0  0  0
  1  2  3  0
  2  3  1  0
  3  4  1  0
  4  5  1  6
  4  6  1  0
  6  7  1  0
  7  8  2  0
  8  9  1  0
  9 10  2  0
 10 11  1  0
 11 12  2  0
 12 13  1  0
 12  7  1  0
M  END
>  <energy_score>  (4355) 
-32.826484

>  <alias>  (4355) 
UVKLIXVSXXTLQY-UHFFFAOYSA-N-P7-P7-P52-601529

>  <HIPPO Pose ID>  (4355) 
83831

>  <smiles>  (4355) 
C#CCC(C)Nc1nccnc1O

>  <inchikey>  (4355) 
UVKLIXVSXXTLQY-UHFFFAOYSA-N

>  <distance_score>  (4355) 
0.936883

>  <ref_mols>  (4355) 
Z0875a,Z0089a

>  <ref_pdb>  (4355) 
Z0719a

>  <HIPPO Compound ID>  (4355) 
144437

>  <name>  (4355) 
UVKLIXVSXXTLQY-UHFFFAOYSA-N-P7-P7-P52-601529

>  <inspiration_score>  (4355) 
None

$$$$
KGAXNJNHCULSFX-UHFFFAOYSA-N-P7-P7-P52-601529
     RDKit          3D

 13 13  0  0  0  0  0  0  0  0999 V2000
    0.6714    5.7526  -19.0854 C   0  0  0  0  0  0  0  0  0  0  0  0
   -0.4441    5.3128  -19.0195 C   0  0  0  0  0  0  0  0  0  0  0  0
   -1.8115    4.7680  -18.9383 C   0  0  0  0  0  0  0  0  0  0  0  0
   -2.8364    5.6802  -19.6284 C   0  0  2  0  0  0  0  0  0  0  0  0
   -2.8763    7.1052  -19.0805 C   0  0  0  0  0  0  0  0  0  0  0  0
   -4.1488    5.0559  -19.6734 N   0  0  0  0  0  0  0  0  0  0  0  0
   -5.1231    5.0185  -18.7149 C   0  0  0  0  0  0  0  0  0  0  0  0
   -4.9725    5.2244  -17.3478 C   0  0  0  0  0  0  0  0  0  0  0  0
   -5.9973    5.1850  -16.4582 N   0  0  0  0  0  0  0  0  0  0  0  0
   -7.2054    4.8606  -16.9784 C   0  0  0  0  0  0  0  0  0  0  0  0
   -8.3461    4.7088  -16.0270 C   0  0  0  0  0  0  0  0  0  0  0  0
   -7.3613    4.6263  -18.3351 C   0  0  0  0  0  0  0  0  0  0  0  0
   -6.3343    4.7147  -19.2090 N   0  0  0  0  0  0  0  0  0  0  0  0
  1  2  3  0
  2  3  1  0
  3  4  1  0
  4  5  1  1
  4  6  1  0
  6  7  1  0
  7  8  2  0
  8  9  1  0
  9 10  2  0
 10 11  1  0
 10 12  1  0
 12 13  2  0
 13  7  1  0
M  END
>  <energy_score>  (4356) 
-31.507236

>  <alias>  (4356) 
KGAXNJNHCULSFX-UHFFFAOYSA-N-P7-P7-P52-601529

>  <HIPPO Pose ID>  (4356) 
83833

>  <smiles>  (4356) 
C#CCC(C)Nc1cnc(C)cn1

>  <inchikey>  (4356) 
KGAXNJNHCULSFX-UHFFFAOYSA-N

>  <distance_score>  (4356) 
0.765271

>  <ref_mols>  (4356) 
Z0875a,Z0089a

>  <ref_pdb>  (4356) 
Z0719a

>  <HIPPO Compound ID>  (4356) 
144438

>  <name>  (4356) 
KGAXNJNHCULSFX-UHFFFAOYSA-N-P7-P7-P52-601529

>  <inspiration_score>  (4356) 
None

$$$$
NCNRVIOMDBPHNJ-UHFFFAOYSA-N-P7-P7-P52-601529
     RDKit          3D

 13 13  0  0  0  0  0  0  0  0999 V2000
   -1.4856    3.0348  -19.5010 C   0  0  0  0  0  0  0  0  0  0  0  0
   -1.6567    4.2074  -19.6506 C   0  0  0  0  0  0  0  0  0  0  0  0
   -1.9059    5.6338  -19.7569 C   0  0  0  0  0  0  0  0  0  0  0  0
   -2.9980    6.0696  -18.7658 C   0  0  1  0  0  0  0  0  0  0  0  0
   -3.2075    7.5692  -18.9167 C   0  0  0  0  0  0  0  0  0  0  0  0
   -4.2260    5.3558  -19.0458 N   0  0  0  0  0  0  0  0  0  0  0  0
   -5.3556    5.2054  -18.3022 C   0  0  0  0  0  0  0  0  0  0  0  0
   -6.3665    4.7711  -19.0861 N   0  0  0  0  0  0  0  0  0  0  0  0
   -7.5601    4.5385  -18.5070 C   0  0  0  0  0  0  0  0  0  0  0  0
   -7.7647    4.7427  -17.1644 C   0  0  0  0  0  0  0  0  0  0  0  0
   -6.7915    5.2090  -16.3574 N   0  0  0  0  0  0  0  0  0  0  0  0
   -5.5684    5.4057  -16.9279 C   0  0  0  0  0  0  0  0  0  0  0  0
   -4.5222    5.8292  -15.9478 C   0  0  0  0  0  0  0  0  0  0  0  0
  1  2  3  0
  2  3  1  0
  3  4  1  0
  4  5  1  6
  4  6  1  0
  6  7  1  0
  7  8  2  0
  8  9  1  0
  9 10  2  0
 10 11  1  0
 11 12  2  0
 12 13  1  0
 12  7  1  0
M  END
>  <energy_score>  (4357) 
-17.312391

>  <alias>  (4357) 
NCNRVIOMDBPHNJ-UHFFFAOYSA-N-P7-P7-P52-601529

>  <HIPPO Pose ID>  (4357) 
83837

>  <smiles>  (4357) 
C#CCC(C)Nc1nccnc1C

>  <inchikey>  (4357) 
NCNRVIOMDBPHNJ-UHFFFAOYSA-N

>  <distance_score>  (4357) 
1.115035

>  <ref_mols>  (4357) 
Z0875a,Z0089a

>  <ref_pdb>  (4357) 
Z0719a

>  <HIPPO Compound ID>  (4357) 
144440

>  <name>  (4357) 
NCNRVIOMDBPHNJ-UHFFFAOYSA-N-P7-P7-P52-601529

>  <inspiration_score>  (4357) 
None

$$$$
DKHOAKDANJOVMV-UHFFFAOYSA-N-P52-P7-P52-601529
     RDKit          3D

 13 13  0  0  0  0  0  0  0  0999 V2000
   -2.1121    4.8927  -18.7926 C   0  0  0  0  0  0  0  0  0  0  0  0
   -3.1230    5.8900  -19.3452 C   0  0  1  0  0  0  0  0  0  0  0  0
   -4.4198    5.2463  -19.4701 N   0  0  0  0  0  0  0  0  0  0  0  0
   -5.4400    5.1295  -18.5724 C   0  0  0  0  0  0  0  0  0  0  0  0
   -6.5655    4.6792  -19.1658 N   0  0  0  0  0  0  0  0  0  0  0  0
   -7.6627    4.5241  -18.3955 C   0  0  0  0  0  0  0  0  0  0  0  0
   -7.6525    4.8015  -17.0444 C   0  0  0  0  0  0  0  0  0  0  0  0
   -6.5513    5.2554  -16.4068 N   0  0  0  0  0  0  0  0  0  0  0  0
   -5.4600    5.3850  -17.1916 C   0  0  0  0  0  0  0  0  0  0  0  0
   -4.4021    5.8186  -16.4630 O   0  0  0  0  0  0  0  0  0  0  0  0
   -3.1006    7.2309  -18.6094 C   0  0  0  0  0  0  0  0  0  0  0  0
   -2.1986    7.6600  -17.9026 O   0  0  0  0  0  0  0  0  0  0  0  0
   -4.1628    8.0272  -18.8685 O   0  0  0  0  0  0  0  0  0  0  0  0
  2  1  1  1
  2  3  1  0
  3  4  1  0
  4  5  2  0
  5  6  1  0
  6  7  2  0
  7  8  1  0
  8  9  2  0
  9 10  1  0
  2 11  1  0
 11 12  2  0
 11 13  1  0
  9  4  1  0
M  END
>  <energy_score>  (4358) 
-45.402208

>  <alias>  (4358) 
DKHOAKDANJOVMV-UHFFFAOYSA-N-P52-P7-P52-601529

>  <HIPPO Pose ID>  (4358) 
83844

>  <smiles>  (4358) 
CC(Nc1nccnc1O)C(=O)O

>  <inchikey>  (4358) 
DKHOAKDANJOVMV-UHFFFAOYSA-N

>  <distance_score>  (4358) 
1.020954

>  <ref_mols>  (4358) 
Z0875a,Z0089a

>  <ref_pdb>  (4358) 
Z0719a

>  <HIPPO Compound ID>  (4358) 
144443

>  <name>  (4358) 
DKHOAKDANJOVMV-UHFFFAOYSA-N-P52-P7-P52-601529

>  <inspiration_score>  (4358) 
None

$$$$
HYCBMCCPEIKCAQ-UHFFFAOYSA-N-P52-P7-P52-601529
     RDKit          3D

 13 13  0  0  0  0  0  0  0  0999 V2000
    0.8114    5.5676  -19.7628 C   0  0  0  0  0  0  0  0  0  0  0  0
   -0.3789    6.0163  -19.1325 O   0  0  0  0  0  0  0  0  0  0  0  0
   -1.4999    5.1758  -19.4307 C   0  0  0  0  0  0  0  0  0  0  0  0
   -2.7449    5.7515  -18.7219 C   0  0  1  0  0  0  0  0  0  0  0  0
   -3.0489    7.1530  -19.2457 C   0  0  0  0  0  0  0  0  0  0  0  0
   -3.8758    4.8632  -18.9325 N   0  0  0  0  0  0  0  0  0  0  0  0
   -5.0903    4.9864  -18.2929 C   0  0  0  0  0  0  0  0  0  0  0  0
   -6.0983    4.6781  -19.1378 N   0  0  0  0  0  0  0  0  0  0  0  0
   -7.3481    4.6432  -18.6335 C   0  0  0  0  0  0  0  0  0  0  0  0
   -7.6075    4.9274  -17.3154 C   0  0  0  0  0  0  0  0  0  0  0  0
   -6.6332    5.2894  -16.4587 N   0  0  0  0  0  0  0  0  0  0  0  0
   -5.3614    5.2870  -16.9464 C   0  0  0  0  0  0  0  0  0  0  0  0
   -4.3318    5.6162  -15.9150 C   0  0  0  0  0  0  0  0  0  0  0  0
  1  2  1  0
  2  3  1  0
  3  4  1  0
  4  5  1  6
  4  6  1  0
  6  7  1  0
  7  8  2  0
  8  9  1  0
  9 10  2  0
 10 11  1  0
 11 12  2  0
 12 13  1  0
 12  7  1  0
M  END
>  <energy_score>  (4359) 
-19.809166

>  <alias>  (4359) 
HYCBMCCPEIKCAQ-UHFFFAOYSA-N-P52-P7-P52-601529

>  <HIPPO Pose ID>  (4359) 
83852

>  <smiles>  (4359) 
COCC(C)Nc1nccnc1C

>  <inchikey>  (4359) 
HYCBMCCPEIKCAQ-UHFFFAOYSA-N

>  <distance_score>  (4359) 
1.180069

>  <ref_mols>  (4359) 
Z0875a,Z0089a

>  <ref_pdb>  (4359) 
Z0719a

>  <HIPPO Compound ID>  (4359) 
144447

>  <name>  (4359) 
HYCBMCCPEIKCAQ-UHFFFAOYSA-N-P52-P7-P52-601529

>  <inspiration_score>  (4359) 
None

$$$$
BZMJUYVTAQPEMB-UHFFFAOYSA-N-P7-P7-P52-601529
     RDKit          3D

 13 13  0  0  0  0  0  0  0  0999 V2000
   -8.8431    4.1520  -18.7555 C   0  0  0  0  0  0  0  0  0  0  0  0
   -7.4960    4.5633  -18.2532 C   0  0  0  0  0  0  0  0  0  0  0  0
   -7.2852    4.8485  -16.9145 C   0  0  0  0  0  0  0  0  0  0  0  0
   -6.0784    5.2177  -16.4286 N   0  0  0  0  0  0  0  0  0  0  0  0
   -5.0809    5.2604  -17.3473 C   0  0  0  0  0  0  0  0  0  0  0  0
   -5.2697    5.0179  -18.7055 C   0  0  0  0  0  0  0  0  0  0  0  0
   -4.3233    5.0546  -19.6951 N   0  0  0  0  0  0  0  0  0  0  0  0
   -3.0253    5.7139  -19.6637 C   0  0  2  0  0  0  0  0  0  0  0  0
   -1.9811    4.7670  -19.0787 C   0  0  0  0  0  0  0  0  0  0  0  0
   -3.0270    7.0819  -18.9839 C   0  0  0  0  0  0  0  0  0  0  0  0
   -2.4634    7.3861  -17.9439 O   0  0  0  0  0  0  0  0  0  0  0  0
   -3.7414    8.0101  -19.6572 O   0  0  0  0  0  0  0  0  0  0  0  0
   -6.4873    4.6625  -19.1527 N   0  0  0  0  0  0  0  0  0  0  0  0
  1  2  1  0
  2  3  2  0
  3  4  1  0
  4  5  2  0
  5  6  1  0
  6  7  1  0
  7  8  1  0
  8  9  1  1
  8 10  1  0
 10 11  2  0
 10 12  1  0
  6 13  2  0
 13  2  1  0
M  END
>  <energy_score>  (4360) 
-32.764212

>  <alias>  (4360) 
BZMJUYVTAQPEMB-UHFFFAOYSA-N-P7-P7-P52-601529

>  <HIPPO Pose ID>  (4360) 
83853

>  <smiles>  (4360) 
Cc1cncc(NC(C)C(=O)O)n1

>  <inchikey>  (4360) 
BZMJUYVTAQPEMB-UHFFFAOYSA-N

>  <distance_score>  (4360) 
0.729058

>  <ref_mols>  (4360) 
Z0875a,Z0089a

>  <ref_pdb>  (4360) 
Z0719a

>  <HIPPO Compound ID>  (4360) 
144448

>  <name>  (4360) 
BZMJUYVTAQPEMB-UHFFFAOYSA-N-P7-P7-P52-601529

>  <inspiration_score>  (4360) 
None

$$$$
SPJSMDVELMMLKD-UHFFFAOYSA-N-P7-P7-P52-601529
     RDKit          3D

 13 13  0  0  0  0  0  0  0  0999 V2000
   -1.5410    3.0968  -19.5952 C   0  0  0  0  0  0  0  0  0  0  0  0
   -2.3496    4.0842  -18.9844 O   0  0  0  0  0  0  0  0  0  0  0  0
   -1.9783    5.3415  -19.5408 C   0  0  0  0  0  0  0  0  0  0  0  0
   -2.9197    6.4117  -19.0142 C   0  0  1  0  0  0  0  0  0  0  0  0
   -2.4811    7.7741  -19.5282 C   0  0  0  0  0  0  0  0  0  0  0  0
   -4.2897    6.1742  -19.4521 N   0  0  0  0  0  0  0  0  0  0  0  0
   -5.2267    5.4847  -18.7307 C   0  0  0  0  0  0  0  0  0  0  0  0
   -5.2058    5.3273  -17.3572 C   0  0  0  0  0  0  0  0  0  0  0  0
   -6.2665    4.7873  -16.7202 N   0  0  0  0  0  0  0  0  0  0  0  0
   -6.2021    4.6270  -15.2718 C   0  0  0  0  0  0  0  0  0  0  0  0
   -7.3558    4.3968  -17.4183 C   0  0  0  0  0  0  0  0  0  0  0  0
   -7.3338    4.5255  -18.7897 C   0  0  0  0  0  0  0  0  0  0  0  0
   -6.2778    5.0538  -19.4368 N   0  0  0  0  0  0  0  0  0  0  0  0
  1  2  1  0
  2  3  1  0
  3  4  1  0
  4  5  1  6
  4  6  1  0
  6  7  1  0
  7  8  2  0
  8  9  1  0
  9 10  1  0
  9 11  2  0
 11 12  1  0
 12 13  2  0
 13  7  1  0
M  CHG  1   9   1
M  END
>  <energy_score>  (4361) 
-27.007252

>  <alias>  (4361) 
SPJSMDVELMMLKD-UHFFFAOYSA-N-P7-P7-P52-601529

>  <HIPPO Pose ID>  (4361) 
83857

>  <smiles>  (4361) 
COCC(C)Nc1c[n+](C)ccn1

>  <inchikey>  (4361) 
SPJSMDVELMMLKD-UHFFFAOYSA-N

>  <distance_score>  (4361) 
1.024375

>  <ref_mols>  (4361) 
Z0875a,Z0089a

>  <ref_pdb>  (4361) 
Z0719a

>  <HIPPO Compound ID>  (4361) 
144450

>  <name>  (4361) 
SPJSMDVELMMLKD-UHFFFAOYSA-N-P7-P7-P52-601529

>  <inspiration_score>  (4361) 
None

$$$$
BMHCIOZZEFPWQZ-UHFFFAOYSA-N-P7-P7-P52-601529
     RDKit          3D

 13 13  0  0  0  0  0  0  0  0999 V2000
    0.3522    5.6851  -19.3631 C   0  0  0  0  0  0  0  0  0  0  0  0
   -0.6595    5.5983  -18.3701 O   0  0  0  0  0  0  0  0  0  0  0  0
   -1.7926    4.8297  -18.7874 C   0  0  0  0  0  0  0  0  0  0  0  0
   -2.8155    5.6732  -19.5720 C   0  0  2  0  0  0  0  0  0  0  0  0
   -2.9171    7.1243  -19.1120 C   0  0  0  0  0  0  0  0  0  0  0  0
   -4.1070    5.0093  -19.6564 N   0  0  0  0  0  0  0  0  0  0  0  0
   -5.1045    5.0027  -18.7138 C   0  0  0  0  0  0  0  0  0  0  0  0
   -4.9762    5.2295  -17.3465 C   0  0  0  0  0  0  0  0  0  0  0  0
   -6.0152    5.2017  -16.4739 N   0  0  0  0  0  0  0  0  0  0  0  0
   -7.2144    4.8699  -17.0078 C   0  0  0  0  0  0  0  0  0  0  0  0
   -8.3657    4.7188  -16.0689 C   0  0  0  0  0  0  0  0  0  0  0  0
   -7.3499    4.6246  -18.3650 C   0  0  0  0  0  0  0  0  0  0  0  0
   -6.3088    4.6989  -19.2250 N   0  0  0  0  0  0  0  0  0  0  0  0
  1  2  1  0
  2  3  1  0
  3  4  1  0
  4  5  1  1
  4  6  1  0
  6  7  1  0
  7  8  2  0
  8  9  1  0
  9 10  2  0
 10 11  1  0
 10 12  1  0
 12 13  2  0
 13  7  1  0
M  END
>  <energy_score>  (4362) 
-15.577059

>  <alias>  (4362) 
BMHCIOZZEFPWQZ-UHFFFAOYSA-N-P7-P7-P52-601529

>  <HIPPO Pose ID>  (4362) 
83863

>  <smiles>  (4362) 
COCC(C)Nc1cnc(C)cn1

>  <inchikey>  (4362) 
BMHCIOZZEFPWQZ-UHFFFAOYSA-N

>  <distance_score>  (4362) 
0.72818

>  <ref_mols>  (4362) 
Z0875a,Z0089a

>  <ref_pdb>  (4362) 
Z0719a

>  <HIPPO Compound ID>  (4362) 
144453

>  <name>  (4362) 
BMHCIOZZEFPWQZ-UHFFFAOYSA-N-P7-P7-P52-601529

>  <inspiration_score>  (4362) 
None

$$$$
AELIUGUBGSGRLO-UHFFFAOYSA-N-P7-P7-P52-601529
     RDKit          3D

 13 13  0  0  0  0  0  0  0  0999 V2000
    0.5583    6.1273  -19.8298 C   0  0  0  0  0  0  0  0  0  0  0  0
   -0.2382    5.3954  -18.9089 O   0  0  0  0  0  0  0  0  0  0  0  0
   -1.4376    4.8728  -19.4947 C   0  0  0  0  0  0  0  0  0  0  0  0
   -2.6654    5.5480  -18.8496 C   0  0  1  0  0  0  0  0  0  0  0  0
   -2.7557    7.0233  -19.2317 C   0  0  0  0  0  0  0  0  0  0  0  0
   -3.8785    4.8503  -19.2528 N   0  0  0  0  0  0  0  0  0  0  0  0
   -5.0178    4.9002  -18.4709 C   0  0  0  0  0  0  0  0  0  0  0  0
   -5.0451    4.9542  -17.0736 C   0  0  0  0  0  0  0  0  0  0  0  0
   -6.1838    4.9682  -16.3391 N   0  0  0  0  0  0  0  0  0  0  0  0
   -7.3025    4.8649  -17.0711 C   0  0  0  0  0  0  0  0  0  0  0  0
   -8.4367    4.8271  -16.3364 O   0  0  0  0  0  0  0  0  0  0  0  0
   -7.3124    4.7976  -18.4488 C   0  0  0  0  0  0  0  0  0  0  0  0
   -6.1650    4.8277  -19.1677 N   0  0  0  0  0  0  0  0  0  0  0  0
  1  2  1  0
  2  3  1  0
  3  4  1  0
  4  5  1  6
  4  6  1  0
  6  7  1  0
  7  8  2  0
  8  9  1  0
  9 10  2  0
 10 11  1  0
 10 12  1  0
 12 13  2  0
 13  7  1  0
M  END
>  <energy_score>  (4363) 
-27.887945

>  <alias>  (4363) 
AELIUGUBGSGRLO-UHFFFAOYSA-N-P7-P7-P52-601529

>  <HIPPO Pose ID>  (4363) 
83865

>  <smiles>  (4363) 
COCC(C)Nc1cnc(O)cn1

>  <inchikey>  (4363) 
AELIUGUBGSGRLO-UHFFFAOYSA-N

>  <distance_score>  (4363) 
0.761887

>  <ref_mols>  (4363) 
Z0875a,Z0089a

>  <ref_pdb>  (4363) 
Z0719a

>  <HIPPO Compound ID>  (4363) 
144454

>  <name>  (4363) 
AELIUGUBGSGRLO-UHFFFAOYSA-N-P7-P7-P52-601529

>  <inspiration_score>  (4363) 
None

$$$$
XNYXRQQRJWYZPA-UHFFFAOYSA-N-P7-P7-P52-601529
     RDKit          3D

 13 13  0  0  0  0  0  0  0  0999 V2000
   -1.6322    3.4783  -19.5600 C   0  0  0  0  0  0  0  0  0  0  0  0
   -2.1955    4.5014  -19.2929 C   0  0  0  0  0  0  0  0  0  0  0  0
   -2.8508    5.7549  -18.9151 C   0  0  1  0  0  0  0  0  0  0  0  0
   -2.1080    6.9745  -19.4826 C   0  0  0  0  0  0  0  0  0  0  0  0
   -2.0449    7.0438  -21.0061 C   0  0  0  0  0  0  0  0  0  0  0  0
   -4.2237    5.7745  -19.3698 N   0  0  0  0  0  0  0  0  0  0  0  0
   -5.2569    5.3874  -18.5429 C   0  0  0  0  0  0  0  0  0  0  0  0
   -5.3459    5.6794  -17.1773 C   0  0  0  0  0  0  0  0  0  0  0  0
   -6.4231    5.3910  -16.4085 N   0  0  0  0  0  0  0  0  0  0  0  0
   -7.4242    4.8031  -17.0825 C   0  0  0  0  0  0  0  0  0  0  0  0
   -8.5163    4.5426  -16.3302 O   0  0  0  0  0  0  0  0  0  0  0  0
   -7.3740    4.5082  -18.4290 C   0  0  0  0  0  0  0  0  0  0  0  0
   -6.2774    4.7817  -19.1729 N   0  0  0  0  0  0  0  0  0  0  0  0
  1  2  3  0
  3  2  1  6
  3  4  1  0
  4  5  1  0
  3  6  1  0
  6  7  1  0
  7  8  2  0
  8  9  1  0
  9 10  2  0
 10 11  1  0
 10 12  1  0
 12 13  2  0
 13  7  1  0
M  END
>  <energy_score>  (4364) 
-30.806183

>  <alias>  (4364) 
XNYXRQQRJWYZPA-UHFFFAOYSA-N-P7-P7-P52-601529

>  <HIPPO Pose ID>  (4364) 
83867

>  <smiles>  (4364) 
C#CC(CC)Nc1cnc(O)cn1

>  <inchikey>  (4364) 
XNYXRQQRJWYZPA-UHFFFAOYSA-N

>  <distance_score>  (4364) 
0.693347

>  <ref_mols>  (4364) 
Z0875a,Z0089a

>  <ref_pdb>  (4364) 
Z0719a

>  <HIPPO Compound ID>  (4364) 
144455

>  <name>  (4364) 
XNYXRQQRJWYZPA-UHFFFAOYSA-N-P7-P7-P52-601529

>  <inspiration_score>  (4364) 
None

$$$$
ULWJQOKZVVDCJZ-UHFFFAOYSA-N-P7-P7-P52-601529
     RDKit          3D

 13 13  0  0  0  0  0  0  0  0999 V2000
   -8.9053    4.4692  -15.5277 C   0  0  0  0  0  0  0  0  0  0  0  0
   -8.0411    4.7125  -16.3191 C   0  0  0  0  0  0  0  0  0  0  0  0
   -6.9795    4.9490  -17.2250 C   0  0  0  0  0  0  0  0  0  0  0  0
   -7.0442    4.5670  -18.5480 C   0  0  0  0  0  0  0  0  0  0  0  0
   -6.0067    4.7646  -19.3899 N   0  0  0  0  0  0  0  0  0  0  0  0
   -4.9215    5.3830  -18.8917 C   0  0  0  0  0  0  0  0  0  0  0  0
   -3.9746    5.6361  -19.8498 N   0  0  0  0  0  0  0  0  0  0  0  0
   -2.5326    5.6550  -19.6430 C   0  0  2  0  0  0  0  0  0  0  0  0
   -1.9942    4.3128  -19.1747 C   0  0  0  0  0  0  0  0  0  0  0  0
   -2.0585    6.7647  -18.7869 C   0  0  0  0  0  0  0  0  0  0  0  0
   -1.6839    7.6298  -18.1075 N   0  0  0  0  0  0  0  0  0  0  0  0
   -4.8803    5.7607  -17.5502 C   0  0  0  0  0  0  0  0  0  0  0  0
   -5.9007    5.5568  -16.6872 N   0  0  0  0  0  0  0  0  0  0  0  0
  1  2  3  0
  2  3  1  0
  3  4  2  0
  4  5  1  0
  5  6  2  0
  6  7  1  0
  7  8  1  0
  8  9  1  1
  8 10  1  0
 10 11  3  0
  6 12  1  0
 12 13  2  0
 13  3  1  0
M  END
>  <energy_score>  (4365) 
-15.736365

>  <alias>  (4365) 
ULWJQOKZVVDCJZ-UHFFFAOYSA-N-P7-P7-P52-601529

>  <HIPPO Pose ID>  (4365) 
83891

>  <smiles>  (4365) 
C#Cc1cnc(NC(C)C#N)cn1

>  <inchikey>  (4365) 
ULWJQOKZVVDCJZ-UHFFFAOYSA-N

>  <distance_score>  (4365) 
1.016289

>  <ref_mols>  (4365) 
Z0875a,Z0089a

>  <ref_pdb>  (4365) 
Z0719a

>  <HIPPO Compound ID>  (4365) 
144467

>  <name>  (4365) 
ULWJQOKZVVDCJZ-UHFFFAOYSA-N-P7-P7-P52-601529

>  <inspiration_score>  (4365) 
None

$$$$
DDXZOSXTSQDXIG-UHFFFAOYSA-N-P52-P7-P52-601529
     RDKit          3D

 13 13  0  0  0  0  0  0  0  0999 V2000
   -1.9474    4.5333  -19.3130 C   0  0  0  0  0  0  0  0  0  0  0  0
   -2.7584    5.5121  -18.4661 C   0  0  1  0  0  0  0  0  0  0  0  0
   -2.1367    6.8553  -18.5675 C   0  0  0  0  0  0  0  0  0  0  0  0
   -1.6499    7.9080  -18.6338 N   0  0  0  0  0  0  0  0  0  0  0  0
   -4.1329    5.5729  -18.9361 N   0  0  0  0  0  0  0  0  0  0  0  0
   -5.2753    5.2539  -18.2534 C   0  0  0  0  0  0  0  0  0  0  0  0
   -6.1962    4.7643  -19.1140 N   0  0  0  0  0  0  0  0  0  0  0  0
   -7.4253    4.4719  -18.6308 C   0  0  0  0  0  0  0  0  0  0  0  0
   -7.7463    4.6424  -17.3038 C   0  0  0  0  0  0  0  0  0  0  0  0
   -6.8583    5.1252  -16.4133 N   0  0  0  0  0  0  0  0  0  0  0  0
   -5.6201    5.4198  -16.8997 C   0  0  0  0  0  0  0  0  0  0  0  0
   -4.7304    6.0310  -15.8824 C   0  0  0  0  0  0  0  0  0  0  0  0
   -4.8147    5.8145  -14.6766 O   0  0  0  0  0  0  0  0  0  0  0  0
  2  1  1  6
  2  3  1  0
  3  4  3  0
  2  5  1  0
  5  6  1  0
  6  7  2  0
  7  8  1  0
  8  9  2  0
  9 10  1  0
 10 11  2  0
 11 12  1  0
 12 13  2  0
 11  6  1  0
M  END
>  <energy_score>  (4366) 
-7.305891

>  <alias>  (4366) 
DDXZOSXTSQDXIG-UHFFFAOYSA-N-P52-P7-P52-601529

>  <HIPPO Pose ID>  (4366) 
83898

>  <smiles>  (4366) 
CC(C#N)Nc1nccnc1C=O

>  <inchikey>  (4366) 
DDXZOSXTSQDXIG-UHFFFAOYSA-N

>  <distance_score>  (4366) 
0.947653

>  <ref_mols>  (4366) 
Z0875a,Z0089a

>  <ref_pdb>  (4366) 
Z0719a

>  <HIPPO Compound ID>  (4366) 
144470

>  <name>  (4366) 
DDXZOSXTSQDXIG-UHFFFAOYSA-N-P52-P7-P52-601529

>  <inspiration_score>  (4366) 
None

$$$$
GGSHWHVOXQEPAJ-UHFFFAOYSA-N-P52-P7-P52-601529
     RDKit          3D

 13 13  0  0  0  0  0  0  0  0999 V2000
   -1.5466    4.6330  -19.5906 C   0  0  0  0  0  0  0  0  0  0  0  0
   -2.6483    5.3914  -18.8478 C   0  0  1  0  0  0  0  0  0  0  0  0
   -2.4918    6.8459  -19.0719 C   0  0  0  0  0  0  0  0  0  0  0  0
   -2.3603    7.9810  -19.2852 N   0  0  0  0  0  0  0  0  0  0  0  0
   -3.9256    4.9047  -19.3223 N   0  0  0  0  0  0  0  0  0  0  0  0
   -5.1294    4.9514  -18.6636 C   0  0  0  0  0  0  0  0  0  0  0  0
   -6.1540    4.5018  -19.3410 N   0  0  0  0  0  0  0  0  0  0  0  0
   -7.3798    4.5325  -18.7379 C   0  0  0  0  0  0  0  0  0  0  0  0
   -7.6224    5.0670  -17.5393 C   0  0  0  0  0  0  0  0  0  0  0  0
   -6.6069    5.6339  -16.8116 N   0  0  0  0  0  0  0  0  0  0  0  0
   -6.8511    6.2719  -15.5562 C   0  0  0  0  0  0  0  0  0  0  0  0
   -5.2918    5.5302  -17.2266 C   0  0  0  0  0  0  0  0  0  0  0  0
   -4.3330    5.8976  -16.5574 O   0  0  0  0  0  0  0  0  0  0  0  0
  2  1  1  6
  2  3  1  0
  3  4  3  0
  2  5  1  0
  5  6  1  0
  6  7  2  0
  7  8  1  0
  8  9  2  0
  9 10  1  0
 10 11  1  0
 10 12  1  0
 12 13  2  0
 12  6  1  0
M  END
>  <energy_score>  (4367) 
-17.001301

>  <alias>  (4367) 
GGSHWHVOXQEPAJ-UHFFFAOYSA-N-P52-P7-P52-601529

>  <HIPPO Pose ID>  (4367) 
83908

>  <smiles>  (4367) 
CC(C#N)Nc1nccn(C)c1=O

>  <inchikey>  (4367) 
GGSHWHVOXQEPAJ-UHFFFAOYSA-N

>  <distance_score>  (4367) 
1.138316

>  <ref_mols>  (4367) 
Z0875a,Z0089a

>  <ref_pdb>  (4367) 
Z0719a

>  <HIPPO Compound ID>  (4367) 
144475

>  <name>  (4367) 
GGSHWHVOXQEPAJ-UHFFFAOYSA-N-P52-P7-P52-601529

>  <inspiration_score>  (4367) 
None

$$$$
GXYYMOINOLLVGU-UHFFFAOYSA-N-P7-P7-P52-601529
     RDKit          3D

 13 13  0  0  0  0  0  0  0  0999 V2000
   -1.7581    4.5666  -19.3980 C   0  0  0  0  0  0  0  0  0  0  0  0
   -2.7479    5.4547  -18.6376 C   0  0  1  0  0  0  0  0  0  0  0  0
   -2.5172    6.8743  -18.9874 C   0  0  0  0  0  0  0  0  0  0  0  0
   -2.3458    7.9857  -19.2796 N   0  0  0  0  0  0  0  0  0  0  0  0
   -4.0873    5.0281  -18.9877 N   0  0  0  0  0  0  0  0  0  0  0  0
   -5.2565    5.0539  -18.2942 C   0  0  0  0  0  0  0  0  0  0  0  0
   -6.2596    4.6096  -19.0853 N   0  0  0  0  0  0  0  0  0  0  0  0
   -7.4914    4.4849  -18.5469 C   0  0  0  0  0  0  0  0  0  0  0  0
   -7.7399    4.7956  -17.2305 C   0  0  0  0  0  0  0  0  0  0  0  0
   -6.7834    5.2954  -16.4205 N   0  0  0  0  0  0  0  0  0  0  0  0
   -5.5372    5.4063  -16.9652 C   0  0  0  0  0  0  0  0  0  0  0  0
   -4.5862    5.9690  -16.0499 C   0  0  0  0  0  0  0  0  0  0  0  0
   -3.8051    6.4443  -15.3295 N   0  0  0  0  0  0  0  0  0  0  0  0
  2  1  1  6
  2  3  1  0
  3  4  3  0
  2  5  1  0
  5  6  1  0
  6  7  2  0
  7  8  1  0
  8  9  2  0
  9 10  1  0
 10 11  2  0
 11 12  1  0
 12 13  3  0
 11  6  1  0
M  END
>  <energy_score>  (4368) 
-13.164452

>  <alias>  (4368) 
GXYYMOINOLLVGU-UHFFFAOYSA-N-P7-P7-P52-601529

>  <HIPPO Pose ID>  (4368) 
83909

>  <smiles>  (4368) 
CC(C#N)Nc1nccnc1C#N

>  <inchikey>  (4368) 
GXYYMOINOLLVGU-UHFFFAOYSA-N

>  <distance_score>  (4368) 
0.826381

>  <ref_mols>  (4368) 
Z0875a,Z0089a

>  <ref_pdb>  (4368) 
Z0719a

>  <HIPPO Compound ID>  (4368) 
144476

>  <name>  (4368) 
GXYYMOINOLLVGU-UHFFFAOYSA-N-P7-P7-P52-601529

>  <inspiration_score>  (4368) 
None

$$$$
RFTOKOVVIKFJPX-UHFFFAOYSA-N-P52-P7-P52-601529
     RDKit          3D

 13 15  0  0  0  0  0  0  0  0999 V2000
   -7.4689    4.5906  -18.4858 C   0  0  0  0  0  0  0  0  0  0  0  0
   -7.4088    4.7821  -17.1594 C   0  0  0  0  0  0  0  0  0  0  0  0
   -6.1987    5.1608  -16.6210 N   0  0  0  0  0  0  0  0  0  0  0  0
   -5.8082    5.4134  -15.3354 C   0  0  0  0  0  0  0  0  0  0  0  0
   -4.4770    5.7556  -15.4211 C   0  0  0  0  0  0  0  0  0  0  0  0
   -4.0399    5.7160  -16.7186 N   0  0  0  0  0  0  0  0  0  0  0  0
   -5.0989    5.3495  -17.4158 C   0  0  0  0  0  0  0  0  0  0  0  0
   -5.2281    5.1309  -18.8491 C   0  0  0  0  0  0  0  0  0  0  0  0
   -4.2187    5.2873  -19.7795 N   0  0  0  0  0  0  0  0  0  0  0  0
   -2.8404    5.0330  -19.3720 C   0  0  0  0  0  0  0  0  0  0  0  0
   -1.6748    5.4404  -20.2243 C   0  0  0  0  0  0  0  0  0  0  0  0
   -1.9488    6.1644  -18.9415 C   0  0  0  0  0  0  0  0  0  0  0  0
   -6.3914    4.7473  -19.3352 N   0  0  0  0  0  0  0  0  0  0  0  0
  1  2  2  0
  2  3  1  0
  3  4  1  0
  4  5  2  0
  5  6  1  0
  6  7  2  0
  7  8  1  0
  8  9  1  0
  9 10  1  0
 10 11  1  0
 11 12  1  0
  8 13  2  0
 13  1  1  0
  7  3  1  0
 12 10  1  0
M  END
>  <energy_score>  (4369) 
-11.231196

>  <alias>  (4369) 
RFTOKOVVIKFJPX-UHFFFAOYSA-N-P52-P7-P52-601529

>  <HIPPO Pose ID>  (4369) 
83914

>  <smiles>  (4369) 
c1cn2ccnc2c(NC2CC2)n1

>  <inchikey>  (4369) 
RFTOKOVVIKFJPX-UHFFFAOYSA-N

>  <distance_score>  (4369) 
0.827109

>  <ref_mols>  (4369) 
Z0875a,Z0089a

>  <ref_pdb>  (4369) 
Z0719a

>  <HIPPO Compound ID>  (4369) 
144478

>  <name>  (4369) 
RFTOKOVVIKFJPX-UHFFFAOYSA-N-P52-P7-P52-601529

>  <inspiration_score>  (4369) 
None

$$$$
ZNXOTKRXAATPHS-UHFFFAOYSA-N-P52-P7-P52-601529
     RDKit          3D

 13 15  0  0  0  0  0  0  0  0999 V2000
   -5.1456    5.5814  -17.1697 C   0  0  0  0  0  0  0  0  0  0  0  0
   -5.9747    5.6515  -16.0645 N   0  0  0  0  0  0  0  0  0  0  0  0
   -7.1848    5.1838  -16.1849 C   0  0  0  0  0  0  0  0  0  0  0  0
   -7.6521    4.6556  -17.4124 C   0  0  0  0  0  0  0  0  0  0  0  0
   -8.8394    4.1950  -17.7093 N   0  0  0  0  0  0  0  0  0  0  0  0
   -8.7358    3.8105  -19.0134 N   0  0  0  0  0  0  0  0  0  0  0  0
   -7.5057    4.0073  -19.4826 N   0  0  0  0  0  0  0  0  0  0  0  0
   -6.8020    4.5892  -18.4877 N   0  0  0  0  0  0  0  0  0  0  0  0
   -5.4724    5.0686  -18.3833 C   0  0  0  0  0  0  0  0  0  0  0  0
   -4.6177    4.9551  -19.4887 N   0  0  0  0  0  0  0  0  0  0  0  0
   -3.3789    5.7376  -19.5772 C   0  0  0  0  0  0  0  0  0  0  0  0
   -2.0963    5.0770  -20.0222 C   0  0  0  0  0  0  0  0  0  0  0  0
   -2.2241    5.5898  -18.6257 C   0  0  0  0  0  0  0  0  0  0  0  0
  1  2  1  0
  2  3  2  0
  3  4  1  0
  4  5  2  0
  5  6  1  0
  6  7  2  0
  7  8  1  0
  8  9  1  0
  9 10  1  0
 10 11  1  0
 11 12  1  0
 12 13  1  0
  9  1  2  0
 13 11  1  0
  8  4  1  0
M  END
>  <energy_score>  (4370) 
-20.560742

>  <alias>  (4370) 
ZNXOTKRXAATPHS-UHFFFAOYSA-N-P52-P7-P52-601529

>  <HIPPO Pose ID>  (4370) 
83918

>  <smiles>  (4370) 
c1ncc2nnnn2c1NC1CC1

>  <inchikey>  (4370) 
ZNXOTKRXAATPHS-UHFFFAOYSA-N

>  <distance_score>  (4370) 
1.446352

>  <ref_mols>  (4370) 
Z0875a,Z0089a

>  <ref_pdb>  (4370) 
Z0719a

>  <HIPPO Compound ID>  (4370) 
144480

>  <name>  (4370) 
ZNXOTKRXAATPHS-UHFFFAOYSA-N-P52-P7-P52-601529

>  <inspiration_score>  (4370) 
None

$$$$
BMFFWDNLNXIIMC-UHFFFAOYSA-N-P52-P7-P52-601529
     RDKit          3D

 13 13  0  0  0  0  0  0  0  0999 V2000
   -0.2473    5.4213  -19.1493 C   0  0  0  0  0  0  0  0  0  0  0  0
   -1.6065    4.8897  -19.5973 C   0  0  0  0  0  0  0  0  0  0  0  0
   -2.7755    5.6393  -18.9307 C   0  0  1  0  0  0  0  0  0  0  0  0
   -2.8366    7.0437  -19.3976 C   0  0  0  0  0  0  0  0  0  0  0  0
   -2.8646    8.1461  -19.7636 N   0  0  0  0  0  0  0  0  0  0  0  0
   -4.0042    4.9081  -19.2155 N   0  0  0  0  0  0  0  0  0  0  0  0
   -5.0959    4.9703  -18.3688 C   0  0  0  0  0  0  0  0  0  0  0  0
   -5.0427    5.1614  -16.9877 C   0  0  0  0  0  0  0  0  0  0  0  0
   -6.1282    5.1529  -16.1831 N   0  0  0  0  0  0  0  0  0  0  0  0
   -7.2934    4.8767  -16.8070 C   0  0  0  0  0  0  0  0  0  0  0  0
   -7.3765    4.6558  -18.1729 C   0  0  0  0  0  0  0  0  0  0  0  0
   -8.6906    4.3171  -18.8010 C   0  0  0  0  0  0  0  0  0  0  0  0
   -6.2756    4.7280  -18.9657 N   0  0  0  0  0  0  0  0  0  0  0  0
  1  2  1  0
  3  2  1  6
  3  4  1  0
  4  5  3  0
  3  6  1  0
  6  7  1  0
  7  8  2  0
  8  9  1  0
  9 10  2  0
 10 11  1  0
 11 12  1  0
 11 13  2  0
 13  7  1  0
M  END
>  <energy_score>  (4371) 
-32.225392

>  <alias>  (4371) 
BMFFWDNLNXIIMC-UHFFFAOYSA-N-P52-P7-P52-601529

>  <HIPPO Pose ID>  (4371) 
83924

>  <smiles>  (4371) 
CCC(C#N)Nc1cncc(C)n1

>  <inchikey>  (4371) 
BMFFWDNLNXIIMC-UHFFFAOYSA-N

>  <distance_score>  (4371) 
0.755557

>  <ref_mols>  (4371) 
Z0875a,Z0089a

>  <ref_pdb>  (4371) 
Z0719a

>  <HIPPO Compound ID>  (4371) 
144483

>  <name>  (4371) 
BMFFWDNLNXIIMC-UHFFFAOYSA-N-P52-P7-P52-601529

>  <inspiration_score>  (4371) 
None

$$$$
PWNBJUQTOFEQNK-UHFFFAOYSA-N-P7-P7-P52-601529
     RDKit          3D

 13 14  0  0  0  0  0  0  0  0999 V2000
   -8.8478    4.0874  -18.7032 C   0  0  0  0  0  0  0  0  0  0  0  0
   -7.5136    4.5618  -18.2227 C   0  0  0  0  0  0  0  0  0  0  0  0
   -7.2879    4.8320  -16.8815 C   0  0  0  0  0  0  0  0  0  0  0  0
   -6.1163    5.3301  -16.4217 N   0  0  0  0  0  0  0  0  0  0  0  0
   -5.1706    5.5308  -17.3710 C   0  0  0  0  0  0  0  0  0  0  0  0
   -5.3761    5.2810  -18.7260 C   0  0  0  0  0  0  0  0  0  0  0  0
   -4.4739    5.5950  -19.7441 N   0  0  0  0  0  0  0  0  0  0  0  0
   -3.0217    5.6785  -19.5595 C   0  0  0  0  0  0  0  0  0  0  0  0
   -2.3292    4.4164  -19.3971 C   0  0  0  0  0  0  0  0  0  0  0  0
   -1.7813    3.3998  -19.3110 N   0  0  0  0  0  0  0  0  0  0  0  0
   -2.4097    6.9099  -18.9246 C   0  0  0  0  0  0  0  0  0  0  0  0
   -2.2896    6.7133  -20.4029 C   0  0  0  0  0  0  0  0  0  0  0  0
   -6.5514    4.7841  -19.1505 N   0  0  0  0  0  0  0  0  0  0  0  0
  1  2  1  0
  2  3  2  0
  3  4  1  0
  4  5  2  0
  5  6  1  0
  6  7  1  0
  7  8  1  0
  8  9  1  0
  9 10  3  0
  8 11  1  0
 11 12  1  0
  6 13  2  0
 13  2  1  0
 12  8  1  0
M  END
>  <energy_score>  (4372) 
-24.790903

>  <alias>  (4372) 
PWNBJUQTOFEQNK-UHFFFAOYSA-N-P7-P7-P52-601529

>  <HIPPO Pose ID>  (4372) 
83929

>  <smiles>  (4372) 
Cc1cncc(NC2(C#N)CC2)n1

>  <inchikey>  (4372) 
PWNBJUQTOFEQNK-UHFFFAOYSA-N

>  <distance_score>  (4372) 
0.684597

>  <ref_mols>  (4372) 
Z0875a,Z0089a

>  <ref_pdb>  (4372) 
Z0719a

>  <HIPPO Compound ID>  (4372) 
144486

>  <name>  (4372) 
PWNBJUQTOFEQNK-UHFFFAOYSA-N-P7-P7-P52-601529

>  <inspiration_score>  (4372) 
None

$$$$
LRTGKWYCZRDCLD-UHFFFAOYSA-N-P7-P7-P52-601529
     RDKit          3D

 13 13  0  0  0  0  0  0  0  0999 V2000
   -1.6595    3.6215  -19.6284 C   0  0  0  0  0  0  0  0  0  0  0  0
   -1.6726    5.1335  -19.7140 C   0  0  0  0  0  0  0  0  0  0  0  0
   -2.8303    5.7621  -18.9305 C   0  0  1  0  0  0  0  0  0  0  0  0
   -2.8490    7.2235  -19.1597 C   0  0  0  0  0  0  0  0  0  0  0  0
   -2.8525    8.3720  -19.3356 N   0  0  0  0  0  0  0  0  0  0  0  0
   -4.0745    5.1177  -19.3096 N   0  0  0  0  0  0  0  0  0  0  0  0
   -5.1792    5.0821  -18.4933 C   0  0  0  0  0  0  0  0  0  0  0  0
   -5.1885    5.2737  -17.1123 C   0  0  0  0  0  0  0  0  0  0  0  0
   -6.3010    5.1905  -16.3485 N   0  0  0  0  0  0  0  0  0  0  0  0
   -7.4308    4.8422  -17.0066 C   0  0  0  0  0  0  0  0  0  0  0  0
   -8.6567    4.6322  -16.1832 C   0  0  0  0  0  0  0  0  0  0  0  0
   -7.4306    4.6405  -18.3791 C   0  0  0  0  0  0  0  0  0  0  0  0
   -6.3146    4.7694  -19.1333 N   0  0  0  0  0  0  0  0  0  0  0  0
  1  2  1  0
  3  2  1  6
  3  4  1  0
  4  5  3  0
  3  6  1  0
  6  7  1  0
  7  8  2  0
  8  9  1  0
  9 10  2  0
 10 11  1  0
 10 12  1  0
 12 13  2  0
 13  7  1  0
M  END
>  <energy_score>  (4373) 
-15.839339

>  <alias>  (4373) 
LRTGKWYCZRDCLD-UHFFFAOYSA-N-P7-P7-P52-601529

>  <HIPPO Pose ID>  (4373) 
83933

>  <smiles>  (4373) 
CCC(C#N)Nc1cnc(C)cn1

>  <inchikey>  (4373) 
LRTGKWYCZRDCLD-UHFFFAOYSA-N

>  <distance_score>  (4373) 
0.76504

>  <ref_mols>  (4373) 
Z0875a,Z0089a

>  <ref_pdb>  (4373) 
Z0719a

>  <HIPPO Compound ID>  (4373) 
144488

>  <name>  (4373) 
LRTGKWYCZRDCLD-UHFFFAOYSA-N-P7-P7-P52-601529

>  <inspiration_score>  (4373) 
None

$$$$
JIWDTOXLGFZHFG-UHFFFAOYSA-N-P7-P7-P52-601529
     RDKit          3D

 13 14  0  0  0  0  0  0  0  0999 V2000
   -4.1058    6.8684  -14.0425 N   0  0  0  0  0  0  0  0  0  0  0  0
   -5.0302    6.2533  -14.3834 C   0  0  0  0  0  0  0  0  0  0  0  0
   -6.1589    5.5283  -14.9435 C   0  0  0  0  0  0  0  0  0  0  0  0
   -5.9065    5.1959  -16.3636 N   0  0  0  0  0  0  0  0  0  0  0  0
   -6.9236    4.7335  -17.2086 C   0  0  0  0  0  0  0  0  0  0  0  0
   -6.6232    4.5061  -18.5466 C   0  0  0  0  0  0  0  0  0  0  0  0
   -7.5573    4.2202  -19.4559 N   0  0  0  0  0  0  0  0  0  0  0  0
   -8.7989    4.1593  -18.9571 C   0  0  0  0  0  0  0  0  0  0  0  0
   -9.7433    4.3439  -19.8880 O   0  0  0  0  0  0  0  0  0  0  0  0
   -9.1222    4.2410  -17.6311 C   0  0  0  0  0  0  0  0  0  0  0  0
   -8.1708    4.5329  -16.7355 N   0  0  0  0  0  0  0  0  0  0  0  0
   -6.8951    4.5462  -14.0519 C   0  0  0  0  0  0  0  0  0  0  0  0
   -7.5171    5.8771  -14.3555 C   0  0  0  0  0  0  0  0  0  0  0  0
  1  2  3  0
  2  3  1  0
  3  4  1  0
  4  5  1  0
  5  6  2  0
  6  7  1  0
  7  8  2  0
  8  9  1  0
  8 10  1  0
 10 11  2  0
  3 12  1  0
 12 13  1  0
 13  3  1  0
 11  5  1  0
M  END
>  <energy_score>  (4374) 
-11.172686

>  <alias>  (4374) 
JIWDTOXLGFZHFG-UHFFFAOYSA-N-P7-P7-P52-601529

>  <HIPPO Pose ID>  (4374) 
83943

>  <smiles>  (4374) 
N#CC1(Nc2cnc(O)cn2)CC1

>  <inchikey>  (4374) 
JIWDTOXLGFZHFG-UHFFFAOYSA-N

>  <distance_score>  (4374) 
1.77901

>  <ref_mols>  (4374) 
Z0875a,Z0089a

>  <ref_pdb>  (4374) 
Z0719a

>  <HIPPO Compound ID>  (4374) 
144493

>  <name>  (4374) 
JIWDTOXLGFZHFG-UHFFFAOYSA-N-P7-P7-P52-601529

>  <inspiration_score>  (4374) 
None

$$$$
CQQRZFGHZUVINR-UHFFFAOYSA-N-P52-P7-P52-601529
     RDKit          3D

 13 13  0  0  0  0  0  0  0  0999 V2000
   -2.0027    4.4046  -19.3041 C   0  0  0  0  0  0  0  0  0  0  0  0
   -2.5402    5.7980  -18.9782 C   0  0  0  0  0  0  0  0  0  0  0  0
   -1.9391    6.8030  -19.9753 C   0  0  0  0  0  0  0  0  0  0  0  0
   -2.0783    6.2139  -17.6285 C   0  0  0  0  0  0  0  0  0  0  0  0
   -1.6980    6.5333  -16.5777 N   0  0  0  0  0  0  0  0  0  0  0  0
   -3.9861    5.8312  -19.1893 N   0  0  0  0  0  0  0  0  0  0  0  0
   -4.9949    5.3561  -18.4014 C   0  0  0  0  0  0  0  0  0  0  0  0
   -4.9907    5.1899  -17.0164 C   0  0  0  0  0  0  0  0  0  0  0  0
   -6.0737    4.8038  -16.2984 N   0  0  0  0  0  0  0  0  0  0  0  0
   -7.1766    4.5966  -17.0296 C   0  0  0  0  0  0  0  0  0  0  0  0
   -8.2611    4.2184  -16.3169 O   0  0  0  0  0  0  0  0  0  0  0  0
   -7.2176    4.7459  -18.3970 C   0  0  0  0  0  0  0  0  0  0  0  0
   -6.1222    5.1212  -19.0981 N   0  0  0  0  0  0  0  0  0  0  0  0
  1  2  1  0
  2  3  1  0
  2  4  1  0
  4  5  3  0
  2  6  1  0
  6  7  1  0
  7  8  2  0
  8  9  1  0
  9 10  2  0
 10 11  1  0
 10 12  1  0
 12 13  2  0
 13  7  1  0
M  END
>  <energy_score>  (4375) 
-45.736653

>  <alias>  (4375) 
CQQRZFGHZUVINR-UHFFFAOYSA-N-P52-P7-P52-601529

>  <HIPPO Pose ID>  (4375) 
83946

>  <smiles>  (4375) 
CC(C)(C#N)Nc1cnc(O)cn1

>  <inchikey>  (4375) 
CQQRZFGHZUVINR-UHFFFAOYSA-N

>  <distance_score>  (4375) 
0.844996

>  <ref_mols>  (4375) 
Z0875a,Z0089a

>  <ref_pdb>  (4375) 
Z0719a

>  <HIPPO Compound ID>  (4375) 
144494

>  <name>  (4375) 
CQQRZFGHZUVINR-UHFFFAOYSA-N-P52-P7-P52-601529

>  <inspiration_score>  (4375) 
None

$$$$
QLRHBDLAKUUTTF-UHFFFAOYSA-N-P52-P7-P52-601529
     RDKit          3D

 13 13  0  0  0  0  0  0  0  0999 V2000
   -4.6498    5.8688  -15.7556 C   0  0  0  0  0  0  0  0  0  0  0  0
   -5.5190    5.4810  -16.9063 C   0  0  0  0  0  0  0  0  0  0  0  0
   -6.8521    5.5643  -16.6271 N   0  0  0  0  0  0  0  0  0  0  0  0
   -7.6954    5.0831  -17.5621 C   0  0  0  0  0  0  0  0  0  0  0  0
   -7.2501    4.6283  -18.7769 C   0  0  0  0  0  0  0  0  0  0  0  0
   -5.9387    4.6055  -19.0905 N   0  0  0  0  0  0  0  0  0  0  0  0
   -5.0594    5.0054  -18.1439 C   0  0  0  0  0  0  0  0  0  0  0  0
   -3.7859    4.7365  -18.5757 N   0  0  0  0  0  0  0  0  0  0  0  0
   -2.6127    5.6138  -18.5852 C   0  0  0  0  0  0  0  0  0  0  0  0
   -1.5965    4.9444  -19.5410 C   0  0  0  0  0  0  0  0  0  0  0  0
   -2.9567    6.9986  -19.1388 C   0  0  0  0  0  0  0  0  0  0  0  0
   -1.9331    5.7454  -17.2720 C   0  0  0  0  0  0  0  0  0  0  0  0
   -1.3694    5.8771  -16.2638 N   0  0  0  0  0  0  0  0  0  0  0  0
  1  2  1  0
  2  3  2  0
  3  4  1  0
  4  5  2  0
  5  6  1  0
  6  7  2  0
  7  8  1  0
  8  9  1  0
  9 10  1  0
  9 11  1  0
  9 12  1  0
 12 13  3  0
  7  2  1  0
M  END
>  <energy_score>  (4376) 
-12.751246

>  <alias>  (4376) 
QLRHBDLAKUUTTF-UHFFFAOYSA-N-P52-P7-P52-601529

>  <HIPPO Pose ID>  (4376) 
83948

>  <smiles>  (4376) 
Cc1nccnc1NC(C)(C)C#N

>  <inchikey>  (4376) 
QLRHBDLAKUUTTF-UHFFFAOYSA-N

>  <distance_score>  (4376) 
1.124916

>  <ref_mols>  (4376) 
Z0875a,Z0089a

>  <ref_pdb>  (4376) 
Z0719a

>  <HIPPO Compound ID>  (4376) 
144495

>  <name>  (4376) 
QLRHBDLAKUUTTF-UHFFFAOYSA-N-P52-P7-P52-601529

>  <inspiration_score>  (4376) 
None

$$$$
YODXZDYWTAUKBM-UHFFFAOYSA-N-P52-P7-P52-601529
     RDKit          3D

 13 13  0  0  0  0  0  0  0  0999 V2000
   -1.6854    4.6069  -19.4621 C   0  0  0  0  0  0  0  0  0  0  0  0
   -2.6090    5.5112  -18.6438 C   0  0  1  0  0  0  0  0  0  0  0  0
   -2.0651    6.9501  -18.6325 C   0  0  0  0  0  0  0  0  0  0  0  0
   -2.9270    7.8144  -17.8882 O   0  0  0  0  0  0  0  0  0  0  0  0
   -3.9785    5.4926  -19.1926 N   0  0  0  0  0  0  0  0  0  0  0  0
   -4.2083    5.9141  -20.5284 N   0  0  0  0  0  0  0  0  0  0  0  0
   -5.1144    5.2085  -18.4127 C   0  0  0  0  0  0  0  0  0  0  0  0
   -5.1535    5.3896  -17.0233 C   0  0  0  0  0  0  0  0  0  0  0  0
   -6.2627    5.2150  -16.2598 N   0  0  0  0  0  0  0  0  0  0  0  0
   -7.3531    4.7956  -16.9375 C   0  0  0  0  0  0  0  0  0  0  0  0
   -7.3459    4.6091  -18.3085 C   0  0  0  0  0  0  0  0  0  0  0  0
   -8.4543    4.1836  -18.9810 O   0  0  0  0  0  0  0  0  0  0  0  0
   -6.2478    4.8282  -19.0595 N   0  0  0  0  0  0  0  0  0  0  0  0
  2  1  1  6
  2  3  1  0
  3  4  1  0
  2  5  1  0
  5  6  1  0
  5  7  1  0
  7  8  2  0
  8  9  1  0
  9 10  2  0
 10 11  1  0
 11 12  1  0
 11 13  2  0
 13  7  1  0
M  END
>  <energy_score>  (4377) 
-36.370365

>  <alias>  (4377) 
YODXZDYWTAUKBM-UHFFFAOYSA-N-P52-P7-P52-601529

>  <HIPPO Pose ID>  (4377) 
83954

>  <smiles>  (4377) 
CC(CO)N(N)c1cncc(O)n1

>  <inchikey>  (4377) 
YODXZDYWTAUKBM-UHFFFAOYSA-N

>  <distance_score>  (4377) 
0.72127

>  <ref_mols>  (4377) 
Z0875a,Z0089a

>  <ref_pdb>  (4377) 
Z0719a

>  <HIPPO Compound ID>  (4377) 
144498

>  <name>  (4377) 
YODXZDYWTAUKBM-UHFFFAOYSA-N-P52-P7-P52-601529

>  <inspiration_score>  (4377) 
None

$$$$
RGUOKJOMZZKYQD-UHFFFAOYSA-N-P7-P7-P52-601529
     RDKit          3D

 13 13  0  0  0  0  0  0  0  0999 V2000
   -8.2474    4.4090  -16.1356 C   0  0  0  0  0  0  0  0  0  0  0  0
   -7.0537    4.7119  -16.9772 C   0  0  0  0  0  0  0  0  0  0  0  0
   -7.1362    4.7953  -18.3583 C   0  0  0  0  0  0  0  0  0  0  0  0
   -6.0621    5.0562  -19.1402 N   0  0  0  0  0  0  0  0  0  0  0  0
   -4.8640    5.2180  -18.5230 C   0  0  0  0  0  0  0  0  0  0  0  0
   -3.7414    5.4221  -19.3402 N   0  0  0  0  0  0  0  0  0  0  0  0
   -3.9762    5.9315  -20.6526 N   0  0  0  0  0  0  0  0  0  0  0  0
   -2.3704    5.3476  -18.8101 C   0  0  1  0  0  0  0  0  0  0  0  0
   -1.4995    4.5187  -19.7515 C   0  0  0  0  0  0  0  0  0  0  0  0
   -1.7839    6.7562  -18.6202 C   0  0  0  0  0  0  0  0  0  0  0  0
   -2.3697    7.4026  -17.4864 O   0  0  0  0  0  0  0  0  0  0  0  0
   -4.8176    5.1821  -17.1270 C   0  0  0  0  0  0  0  0  0  0  0  0
   -5.8896    4.9420  -16.3333 N   0  0  0  0  0  0  0  0  0  0  0  0
  1  2  1  0
  2  3  2  0
  3  4  1  0
  4  5  2  0
  5  6  1  0
  6  7  1  0
  6  8  1  0
  8  9  1  6
  8 10  1  0
 10 11  1  0
  5 12  1  0
 12 13  2  0
 13  2  1  0
M  END
>  <energy_score>  (4378) 
-25.320584

>  <alias>  (4378) 
RGUOKJOMZZKYQD-UHFFFAOYSA-N-P7-P7-P52-601529

>  <HIPPO Pose ID>  (4378) 
83955

>  <smiles>  (4378) 
Cc1cnc(N(N)C(C)CO)cn1

>  <inchikey>  (4378) 
RGUOKJOMZZKYQD-UHFFFAOYSA-N

>  <distance_score>  (4378) 
0.804358

>  <ref_mols>  (4378) 
Z0875a,Z0089a

>  <ref_pdb>  (4378) 
Z0719a

>  <HIPPO Compound ID>  (4378) 
144499

>  <name>  (4378) 
RGUOKJOMZZKYQD-UHFFFAOYSA-N-P7-P7-P52-601529

>  <inspiration_score>  (4378) 
None

$$$$
NFLDDHNYXLXRLT-UHFFFAOYSA-N-P7-P7-P52-601529
     RDKit          3D

 13 13  0  0  0  0  0  0  0  0999 V2000
   -1.5290    4.4581  -19.5945 C   0  0  0  0  0  0  0  0  0  0  0  0
   -2.4404    5.3342  -18.7304 C   0  0  1  0  0  0  0  0  0  0  0  0
   -1.8881    6.7627  -18.5963 C   0  0  0  0  0  0  0  0  0  0  0  0
   -0.6800    6.7888  -17.8351 O   0  0  0  0  0  0  0  0  0  0  0  0
   -3.7888    5.3604  -19.3069 N   0  0  0  0  0  0  0  0  0  0  0  0
   -3.9747    5.8630  -20.6294 N   0  0  0  0  0  0  0  0  0  0  0  0
   -4.9471    5.1725  -18.5394 C   0  0  0  0  0  0  0  0  0  0  0  0
   -4.9793    5.2026  -17.1383 C   0  0  0  0  0  0  0  0  0  0  0  0
   -6.1056    5.0593  -16.3917 N   0  0  0  0  0  0  0  0  0  0  0  0
   -7.2188    4.8578  -17.1119 C   0  0  0  0  0  0  0  0  0  0  0  0
   -8.3410    4.7151  -16.3709 O   0  0  0  0  0  0  0  0  0  0  0  0
   -7.2384    4.8199  -18.4884 C   0  0  0  0  0  0  0  0  0  0  0  0
   -6.1090    4.9895  -19.2163 N   0  0  0  0  0  0  0  0  0  0  0  0
  2  1  1  6
  2  3  1  0
  3  4  1  0
  2  5  1  0
  5  6  1  0
  5  7  1  0
  7  8  2  0
  8  9  1  0
  9 10  2  0
 10 11  1  0
 10 12  1  0
 12 13  2  0
 13  7  1  0
M  END
>  <energy_score>  (4379) 
-31.996639

>  <alias>  (4379) 
NFLDDHNYXLXRLT-UHFFFAOYSA-N-P7-P7-P52-601529

>  <HIPPO Pose ID>  (4379) 
83957

>  <smiles>  (4379) 
CC(CO)N(N)c1cnc(O)cn1

>  <inchikey>  (4379) 
NFLDDHNYXLXRLT-UHFFFAOYSA-N

>  <distance_score>  (4379) 
0.728227

>  <ref_mols>  (4379) 
Z0875a,Z0089a

>  <ref_pdb>  (4379) 
Z0719a

>  <HIPPO Compound ID>  (4379) 
144500

>  <name>  (4379) 
NFLDDHNYXLXRLT-UHFFFAOYSA-N-P7-P7-P52-601529

>  <inspiration_score>  (4379) 
None

$$$$
BUFZDZXHRDETLE-UHFFFAOYSA-N-P7-P7-P52-601529
     RDKit          3D

 13 13  0  0  0  0  0  0  0  0999 V2000
   -8.7722    4.1239  -18.8042 C   0  0  0  0  0  0  0  0  0  0  0  0
   -7.4755    4.5622  -18.2012 C   0  0  0  0  0  0  0  0  0  0  0  0
   -7.3587    4.7716  -16.8378 C   0  0  0  0  0  0  0  0  0  0  0  0
   -6.2144    5.2039  -16.2633 N   0  0  0  0  0  0  0  0  0  0  0  0
   -5.1826    5.3996  -17.1203 C   0  0  0  0  0  0  0  0  0  0  0  0
   -5.2720    5.2222  -18.4957 C   0  0  0  0  0  0  0  0  0  0  0  0
   -4.3175    5.4829  -19.4291 N   0  0  0  0  0  0  0  0  0  0  0  0
   -2.8796    5.7117  -19.3324 C   0  0  0  0  0  0  0  0  0  0  0  0
   -2.1682    4.4913  -18.7491 C   0  0  0  0  0  0  0  0  0  0  0  0
   -2.5521    6.9838  -18.5459 C   0  0  0  0  0  0  0  0  0  0  0  0
   -2.3559    5.9169  -20.7080 C   0  0  0  0  0  0  0  0  0  0  0  0
   -2.0251    5.9932  -21.8196 N   0  0  0  0  0  0  0  0  0  0  0  0
   -6.4294    4.7947  -19.0326 N   0  0  0  0  0  0  0  0  0  0  0  0
  1  2  1  0
  2  3  2  0
  3  4  1  0
  4  5  2  0
  5  6  1  0
  6  7  1  0
  7  8  1  0
  8  9  1  0
  8 10  1  0
  8 11  1  0
 11 12  3  0
  6 13  2  0
 13  2  1  0
M  END
>  <energy_score>  (4380) 
-23.671201

>  <alias>  (4380) 
BUFZDZXHRDETLE-UHFFFAOYSA-N-P7-P7-P52-601529

>  <HIPPO Pose ID>  (4380) 
83959

>  <smiles>  (4380) 
Cc1cncc(NC(C)(C)C#N)n1

>  <inchikey>  (4380) 
BUFZDZXHRDETLE-UHFFFAOYSA-N

>  <distance_score>  (4380) 
0.739306

>  <ref_mols>  (4380) 
Z0875a,Z0089a

>  <ref_pdb>  (4380) 
Z0719a

>  <HIPPO Compound ID>  (4380) 
144501

>  <name>  (4380) 
BUFZDZXHRDETLE-UHFFFAOYSA-N-P7-P7-P52-601529

>  <inspiration_score>  (4380) 
None

$$$$
BWJUMMSHXRMAHG-UHFFFAOYSA-N-P52-P7-P52-601529
     RDKit          3D

 13 13  0  0  0  0  0  0  0  0999 V2000
   -5.9191    4.7328  -15.2471 C   0  0  0  0  0  0  0  0  0  0  0  0
   -6.0657    4.7811  -16.6999 N   0  0  0  0  0  0  0  0  0  0  0  0
   -7.2686    4.5514  -17.2741 C   0  0  0  0  0  0  0  0  0  0  0  0
   -7.3553    4.6037  -18.6461 C   0  0  0  0  0  0  0  0  0  0  0  0
   -6.2817    4.8793  -19.4099 N   0  0  0  0  0  0  0  0  0  0  0  0
   -5.0974    5.1234  -18.8356 C   0  0  0  0  0  0  0  0  0  0  0  0
   -4.1173    5.4184  -19.7234 N   0  0  0  0  0  0  0  0  0  0  0  0
   -2.7185    5.8289  -19.5795 C   0  0  0  0  0  0  0  0  0  0  0  0
   -1.8892    4.6535  -19.0597 C   0  0  0  0  0  0  0  0  0  0  0  0
   -2.5737    7.0601  -18.6825 C   0  0  0  0  0  0  0  0  0  0  0  0
   -2.1894    6.1954  -20.9185 C   0  0  0  0  0  0  0  0  0  0  0  0
   -1.8455    6.3788  -22.0110 N   0  0  0  0  0  0  0  0  0  0  0  0
   -4.9827    5.0594  -17.4612 C   0  0  0  0  0  0  0  0  0  0  0  0
  1  2  1  0
  2  3  2  0
  3  4  1  0
  4  5  2  0
  5  6  1  0
  6  7  1  0
  7  8  1  0
  8  9  1  0
  8 10  1  0
  8 11  1  0
 11 12  3  0
  6 13  2  0
 13  2  1  0
M  CHG  1   2   1
M  END
>  <energy_score>  (4381) 
-23.56373

>  <alias>  (4381) 
BWJUMMSHXRMAHG-UHFFFAOYSA-N-P52-P7-P52-601529

>  <HIPPO Pose ID>  (4381) 
83962

>  <smiles>  (4381) 
C[n+]1ccnc(NC(C)(C)C#N)c1

>  <inchikey>  (4381) 
BWJUMMSHXRMAHG-UHFFFAOYSA-N

>  <distance_score>  (4381) 
0.904759

>  <ref_mols>  (4381) 
Z0875a,Z0089a

>  <ref_pdb>  (4381) 
Z0719a

>  <HIPPO Compound ID>  (4381) 
144502

>  <name>  (4381) 
BWJUMMSHXRMAHG-UHFFFAOYSA-N-P52-P7-P52-601529

>  <inspiration_score>  (4381) 
None

$$$$
XWWSDRWSBNXDMT-UHFFFAOYSA-N-P7-P7-P52-601529
     RDKit          3D

 13 13  0  0  0  0  0  0  0  0999 V2000
   -2.2964    4.3039  -19.2017 C   0  0  0  0  0  0  0  0  0  0  0  0
   -2.6106    5.6934  -18.6308 C   0  0  0  0  0  0  0  0  0  0  0  0
   -1.7725    6.7270  -19.4130 C   0  0  0  0  0  0  0  0  0  0  0  0
   -2.1523    5.7501  -17.2165 C   0  0  0  0  0  0  0  0  0  0  0  0
   -1.6977    5.7678  -16.1459 N   0  0  0  0  0  0  0  0  0  0  0  0
   -4.0140    6.0560  -18.9083 N   0  0  0  0  0  0  0  0  0  0  0  0
   -5.0927    5.4814  -18.2650 C   0  0  0  0  0  0  0  0  0  0  0  0
   -5.9766    4.9454  -19.1297 N   0  0  0  0  0  0  0  0  0  0  0  0
   -7.1397    4.4868  -18.6126 C   0  0  0  0  0  0  0  0  0  0  0  0
   -7.4075    4.5205  -17.2587 C   0  0  0  0  0  0  0  0  0  0  0  0
   -6.5398    5.0425  -16.3667 N   0  0  0  0  0  0  0  0  0  0  0  0
   -5.4036    5.5274  -16.8985 C   0  0  0  0  0  0  0  0  0  0  0  0
   -4.6679    6.1781  -15.9678 O   0  0  0  0  0  0  0  0  0  0  0  0
  1  2  1  0
  2  3  1  0
  2  4  1  0
  4  5  3  0
  2  6  1  0
  6  7  1  0
  7  8  2  0
  8  9  1  0
  9 10  2  0
 10 11  1  0
 11 12  2  0
 12 13  1  0
 12  7  1  0
M  END
>  <energy_score>  (4382) 
-33.326832

>  <alias>  (4382) 
XWWSDRWSBNXDMT-UHFFFAOYSA-N-P7-P7-P52-601529

>  <HIPPO Pose ID>  (4382) 
83965

>  <smiles>  (4382) 
CC(C)(C#N)Nc1nccnc1O

>  <inchikey>  (4382) 
XWWSDRWSBNXDMT-UHFFFAOYSA-N

>  <distance_score>  (4382) 
0.981843

>  <ref_mols>  (4382) 
Z0875a,Z0089a

>  <ref_pdb>  (4382) 
Z0719a

>  <HIPPO Compound ID>  (4382) 
144504

>  <name>  (4382) 
XWWSDRWSBNXDMT-UHFFFAOYSA-N-P7-P7-P52-601529

>  <inspiration_score>  (4382) 
None

$$$$
BYYLPEHVUBEWIG-UHFFFAOYSA-N-P52-P7-P52-601529
     RDKit          3D

 13 13  0  0  0  0  0  0  0  0999 V2000
   -8.5253    4.6481  -16.2748 C   0  0  0  0  0  0  0  0  0  0  0  0
   -7.2514    4.8698  -17.0154 C   0  0  0  0  0  0  0  0  0  0  0  0
   -7.1779    4.7426  -18.3923 C   0  0  0  0  0  0  0  0  0  0  0  0
   -6.0077    4.8278  -19.0677 N   0  0  0  0  0  0  0  0  0  0  0  0
   -4.8898    5.0042  -18.3407 C   0  0  0  0  0  0  0  0  0  0  0  0
   -3.7507    4.9060  -19.0962 N   0  0  0  0  0  0  0  0  0  0  0  0
   -2.4706    5.5871  -18.8916 C   0  0  0  0  0  0  0  0  0  0  0  0
   -1.4320    4.8000  -19.7130 C   0  0  0  0  0  0  0  0  0  0  0  0
   -2.5750    7.0159  -19.4371 C   0  0  0  0  0  0  0  0  0  0  0  0
   -1.9597    5.6453  -17.4978 C   0  0  0  0  0  0  0  0  0  0  0  0
   -1.5390    5.7236  -16.4170 N   0  0  0  0  0  0  0  0  0  0  0  0
   -4.9799    5.1477  -16.9605 C   0  0  0  0  0  0  0  0  0  0  0  0
   -6.1469    5.1125  -16.2777 N   0  0  0  0  0  0  0  0  0  0  0  0
  1  2  1  0
  2  3  2  0
  3  4  1  0
  4  5  2  0
  5  6  1  0
  6  7  1  0
  7  8  1  0
  7  9  1  0
  7 10  1  0
 10 11  3  0
  5 12  1  0
 12 13  2  0
 13  2  1  0
M  END
>  <energy_score>  (4383) 
-25.183592

>  <alias>  (4383) 
BYYLPEHVUBEWIG-UHFFFAOYSA-N-P52-P7-P52-601529

>  <HIPPO Pose ID>  (4383) 
83968

>  <smiles>  (4383) 
Cc1cnc(NC(C)(C)C#N)cn1

>  <inchikey>  (4383) 
BYYLPEHVUBEWIG-UHFFFAOYSA-N

>  <distance_score>  (4383) 
0.815772

>  <ref_mols>  (4383) 
Z0875a,Z0089a

>  <ref_pdb>  (4383) 
Z0719a

>  <HIPPO Compound ID>  (4383) 
144505

>  <name>  (4383) 
BYYLPEHVUBEWIG-UHFFFAOYSA-N-P52-P7-P52-601529

>  <inspiration_score>  (4383) 
None

$$$$
VXQXUWAFKAOFGJ-UHFFFAOYSA-N-P52-P7-P52-601529
     RDKit          3D

 13 13  0  0  0  0  0  0  0  0999 V2000
   -5.6469    4.7761  -15.3541 C   0  0  0  0  0  0  0  0  0  0  0  0
   -5.9067    4.8205  -16.7907 N   0  0  0  0  0  0  0  0  0  0  0  0
   -7.1334    4.5279  -17.2780 C   0  0  0  0  0  0  0  0  0  0  0  0
   -7.3189    4.5681  -18.6408 C   0  0  0  0  0  0  0  0  0  0  0  0
   -6.3193    4.8967  -19.4798 N   0  0  0  0  0  0  0  0  0  0  0  0
   -5.1141    5.2180  -18.9907 C   0  0  0  0  0  0  0  0  0  0  0  0
   -4.2285    5.6226  -19.9404 N   0  0  0  0  0  0  0  0  0  0  0  0
   -2.8033    5.9476  -19.8703 C   0  0  2  0  0  0  0  0  0  0  0  0
   -1.9214    4.7146  -19.6497 C   0  0  0  0  0  0  0  0  0  0  0  0
   -2.3894    3.9481  -18.5479 O   0  0  0  0  0  0  0  0  0  0  0  0
   -2.4655    7.0742  -18.8991 C   0  0  0  0  0  0  0  0  0  0  0  0
   -1.2159    7.5375  -19.1774 F   0  0  0  0  0  0  0  0  0  0  0  0
   -4.8993    5.1607  -17.6271 C   0  0  0  0  0  0  0  0  0  0  0  0
  1  2  1  0
  2  3  2  0
  3  4  1  0
  4  5  2  0
  5  6  1  0
  6  7  1  0
  7  8  1  0
  8  9  1  1
  9 10  1  0
  8 11  1  0
 11 12  1  0
  6 13  2  0
 13  2  1  0
M  CHG  1   2   1
M  END
>  <energy_score>  (4384) 
-23.97927

>  <alias>  (4384) 
VXQXUWAFKAOFGJ-UHFFFAOYSA-N-P52-P7-P52-601529

>  <HIPPO Pose ID>  (4384) 
83972

>  <smiles>  (4384) 
C[n+]1ccnc(NC(CO)CF)c1

>  <inchikey>  (4384) 
VXQXUWAFKAOFGJ-UHFFFAOYSA-N

>  <distance_score>  (4384) 
0.850104

>  <ref_mols>  (4384) 
Z0875a,Z0089a

>  <ref_pdb>  (4384) 
Z0719a

>  <HIPPO Compound ID>  (4384) 
144507

>  <name>  (4384) 
VXQXUWAFKAOFGJ-UHFFFAOYSA-N-P52-P7-P52-601529

>  <inspiration_score>  (4384) 
None

$$$$
WYPQAPVUWHHSJL-UHFFFAOYSA-N-P7-P7-P52-601529
     RDKit          3D

 13 13  0  0  0  0  0  0  0  0999 V2000
   -1.6259    4.5839  -21.1844 O   0  0  0  0  0  0  0  0  0  0  0  0
   -1.6874    4.3388  -19.7748 C   0  0  0  0  0  0  0  0  0  0  0  0
   -2.5392    5.3777  -19.0300 C   0  0  1  0  0  0  0  0  0  0  0  0
   -1.9865    6.7881  -19.2510 C   0  0  0  0  0  0  0  0  0  0  0  0
   -2.5235    7.6323  -18.3222 F   0  0  0  0  0  0  0  0  0  0  0  0
   -3.9311    5.3269  -19.4701 N   0  0  0  0  0  0  0  0  0  0  0  0
   -4.9819    5.2046  -18.5949 C   0  0  0  0  0  0  0  0  0  0  0  0
   -4.9685    5.6315  -17.2653 C   0  0  0  0  0  0  0  0  0  0  0  0
   -6.0066    5.4810  -16.4130 N   0  0  0  0  0  0  0  0  0  0  0  0
   -7.0911    4.9004  -16.9471 C   0  0  0  0  0  0  0  0  0  0  0  0
   -8.1268    4.7397  -16.0818 O   0  0  0  0  0  0  0  0  0  0  0  0
   -7.1488    4.5176  -18.2762 C   0  0  0  0  0  0  0  0  0  0  0  0
   -6.0920    4.6498  -19.1118 N   0  0  0  0  0  0  0  0  0  0  0  0
  1  2  1  0
  3  2  1  6
  3  4  1  0
  4  5  1  0
  3  6  1  0
  6  7  1  0
  7  8  2  0
  8  9  1  0
  9 10  2  0
 10 11  1  0
 10 12  1  0
 12 13  2  0
 13  7  1  0
M  END
>  <energy_score>  (4385) 
-31.835342

>  <alias>  (4385) 
WYPQAPVUWHHSJL-UHFFFAOYSA-N-P7-P7-P52-601529

>  <HIPPO Pose ID>  (4385) 
83979

>  <smiles>  (4385) 
OCC(CF)Nc1cnc(O)cn1

>  <inchikey>  (4385) 
WYPQAPVUWHHSJL-UHFFFAOYSA-N

>  <distance_score>  (4385) 
0.661011

>  <ref_mols>  (4385) 
Z0875a,Z0089a

>  <ref_pdb>  (4385) 
Z0719a

>  <HIPPO Compound ID>  (4385) 
144511

>  <name>  (4385) 
WYPQAPVUWHHSJL-UHFFFAOYSA-N-P7-P7-P52-601529

>  <inspiration_score>  (4385) 
None

$$$$
NIXFPKOIZOXTBI-UHFFFAOYSA-N-P7-P7-P52-601529
     RDKit          3D

 13 13  0  0  0  0  0  0  0  0999 V2000
   -4.4537    6.2199  -16.1847 C   0  0  0  0  0  0  0  0  0  0  0  0
   -5.4040    5.5467  -17.1235 C   0  0  0  0  0  0  0  0  0  0  0  0
   -6.6142    5.2745  -16.5554 N   0  0  0  0  0  0  0  0  0  0  0  0
   -7.5385    4.7070  -17.3556 C   0  0  0  0  0  0  0  0  0  0  0  0
   -7.2841    4.4321  -18.6775 C   0  0  0  0  0  0  0  0  0  0  0  0
   -6.0835    4.6796  -19.2414 N   0  0  0  0  0  0  0  0  0  0  0  0
   -5.1305    5.2440  -18.4728 C   0  0  0  0  0  0  0  0  0  0  0  0
   -4.0133    5.5417  -19.2158 N   0  0  0  0  0  0  0  0  0  0  0  0
   -2.6349    5.4302  -18.7541 C   0  0  1  0  0  0  0  0  0  0  0  0
   -1.8523    4.3381  -19.5157 C   0  0  0  0  0  0  0  0  0  0  0  0
   -1.8124    4.5501  -20.9352 O   0  0  0  0  0  0  0  0  0  0  0  0
   -1.9408    6.7811  -18.9417 C   0  0  0  0  0  0  0  0  0  0  0  0
   -0.7221    6.7465  -18.3313 F   0  0  0  0  0  0  0  0  0  0  0  0
  1  2  1  0
  2  3  2  0
  3  4  1  0
  4  5  2  0
  5  6  1  0
  6  7  2  0
  7  8  1  0
  8  9  1  0
  9 10  1  6
 10 11  1  0
  9 12  1  0
 12 13  1  0
  7  2  1  0
M  END
>  <energy_score>  (4386) 
-19.254829

>  <alias>  (4386) 
NIXFPKOIZOXTBI-UHFFFAOYSA-N-P7-P7-P52-601529

>  <HIPPO Pose ID>  (4386) 
83981

>  <smiles>  (4386) 
Cc1nccnc1NC(CO)CF

>  <inchikey>  (4386) 
NIXFPKOIZOXTBI-UHFFFAOYSA-N

>  <distance_score>  (4386) 
1.040981

>  <ref_mols>  (4386) 
Z0875a,Z0089a

>  <ref_pdb>  (4386) 
Z0719a

>  <HIPPO Compound ID>  (4386) 
144512

>  <name>  (4386) 
NIXFPKOIZOXTBI-UHFFFAOYSA-N-P7-P7-P52-601529

>  <inspiration_score>  (4386) 
None

$$$$
LGPIWWBXXOOEDT-UHFFFAOYSA-N-P7-P7-P52-601529
     RDKit          3D

 13 13  0  0  0  0  0  0  0  0999 V2000
   -1.8625    4.4631  -19.4745 C   0  0  0  0  0  0  0  0  0  0  0  0
   -2.7716    5.3439  -18.6153 C   0  0  2  0  0  0  0  0  0  0  0  0
   -4.1180    5.3562  -19.1791 N   0  0  0  0  0  0  0  0  0  0  0  0
   -5.2534    5.1535  -18.4309 C   0  0  0  0  0  0  0  0  0  0  0  0
   -6.2656    4.6384  -19.1547 N   0  0  0  0  0  0  0  0  0  0  0  0
   -7.4444    4.4510  -18.5215 C   0  0  0  0  0  0  0  0  0  0  0  0
   -7.6162    4.7521  -17.1841 C   0  0  0  0  0  0  0  0  0  0  0  0
   -6.6324    5.2895  -16.4279 N   0  0  0  0  0  0  0  0  0  0  0  0
   -5.4658    5.4702  -17.0774 C   0  0  0  0  0  0  0  0  0  0  0  0
   -4.5352    6.0345  -16.2634 O   0  0  0  0  0  0  0  0  0  0  0  0
   -2.2017    6.7696  -18.5385 C   0  0  0  0  0  0  0  0  0  0  0  0
   -1.9611    7.2606  -19.7847 F   0  0  0  0  0  0  0  0  0  0  0  0
   -1.0043    6.7596  -17.8938 F   0  0  0  0  0  0  0  0  0  0  0  0
  2  1  1  6
  2  3  1  0
  3  4  1  0
  4  5  2  0
  5  6  1  0
  6  7  2  0
  7  8  1  0
  8  9  2  0
  9 10  1  0
  2 11  1  0
 11 12  1  0
 11 13  1  0
  9  4  1  0
M  END
>  <energy_score>  (4387) 
-36.534158

>  <alias>  (4387) 
LGPIWWBXXOOEDT-UHFFFAOYSA-N-P7-P7-P52-601529

>  <HIPPO Pose ID>  (4387) 
83985

>  <smiles>  (4387) 
CC(Nc1nccnc1O)C(F)F

>  <inchikey>  (4387) 
LGPIWWBXXOOEDT-UHFFFAOYSA-N

>  <distance_score>  (4387) 
0.808885

>  <ref_mols>  (4387) 
Z0875a,Z0089a

>  <ref_pdb>  (4387) 
Z0719a

>  <HIPPO Compound ID>  (4387) 
144514

>  <name>  (4387) 
LGPIWWBXXOOEDT-UHFFFAOYSA-N-P7-P7-P52-601529

>  <inspiration_score>  (4387) 
None

$$$$
ROVWTPQJXZUWTA-UHFFFAOYSA-N-P7-P7-P52-601529
     RDKit          3D

 13 13  0  0  0  0  0  0  0  0999 V2000
   -8.4962    4.6550  -16.2190 C   0  0  0  0  0  0  0  0  0  0  0  0
   -7.3014    4.9430  -17.0674 C   0  0  0  0  0  0  0  0  0  0  0  0
   -7.2117    4.4719  -18.3699 C   0  0  0  0  0  0  0  0  0  0  0  0
   -6.1027    4.6278  -19.1317 N   0  0  0  0  0  0  0  0  0  0  0  0
   -5.0750    5.2847  -18.5724 C   0  0  0  0  0  0  0  0  0  0  0  0
   -3.9725    5.4284  -19.4021 N   0  0  0  0  0  0  0  0  0  0  0  0
   -2.6295    5.3484  -18.8124 C   0  0  1  0  0  0  0  0  0  0  0  0
   -1.7586    4.4101  -19.6450 C   0  0  0  0  0  0  0  0  0  0  0  0
   -1.9746    6.7418  -18.7606 C   0  0  0  0  0  0  0  0  0  0  0  0
   -0.7148    6.6472  -18.2586 F   0  0  0  0  0  0  0  0  0  0  0  0
   -2.6523    7.5534  -17.9052 F   0  0  0  0  0  0  0  0  0  0  0  0
   -5.1859    5.7891  -17.2765 C   0  0  0  0  0  0  0  0  0  0  0  0
   -6.2827    5.6295  -16.4980 N   0  0  0  0  0  0  0  0  0  0  0  0
  1  2  1  0
  2  3  2  0
  3  4  1  0
  4  5  2  0
  5  6  1  0
  6  7  1  0
  7  8  1  6
  7  9  1  0
  9 10  1  0
  9 11  1  0
  5 12  1  0
 12 13  2  0
 13  2  1  0
M  END
>  <energy_score>  (4388) 
-16.522947

>  <alias>  (4388) 
ROVWTPQJXZUWTA-UHFFFAOYSA-N-P7-P7-P52-601529

>  <HIPPO Pose ID>  (4388) 
83987

>  <smiles>  (4388) 
Cc1cnc(NC(C)C(F)F)cn1

>  <inchikey>  (4388) 
ROVWTPQJXZUWTA-UHFFFAOYSA-N

>  <distance_score>  (4388) 
0.703402

>  <ref_mols>  (4388) 
Z0875a,Z0089a

>  <ref_pdb>  (4388) 
Z0719a

>  <HIPPO Compound ID>  (4388) 
144515

>  <name>  (4388) 
ROVWTPQJXZUWTA-UHFFFAOYSA-N-P7-P7-P52-601529

>  <inspiration_score>  (4388) 
None

$$$$
JLNAVMVETKTGFP-UHFFFAOYSA-N-P7-P7-P52-601529
     RDKit          3D

 13 13  0  0  0  0  0  0  0  0999 V2000
   -8.6955    4.1820  -18.7539 C   0  0  0  0  0  0  0  0  0  0  0  0
   -7.3502    4.5596  -18.2217 C   0  0  0  0  0  0  0  0  0  0  0  0
   -7.1227    4.6883  -16.8623 C   0  0  0  0  0  0  0  0  0  0  0  0
   -5.9145    5.0183  -16.3543 N   0  0  0  0  0  0  0  0  0  0  0  0
   -4.9364    5.1980  -17.2766 C   0  0  0  0  0  0  0  0  0  0  0  0
   -5.1355    5.0982  -18.6483 C   0  0  0  0  0  0  0  0  0  0  0  0
   -4.2153    5.2568  -19.6385 N   0  0  0  0  0  0  0  0  0  0  0  0
   -2.8019    5.6053  -19.6046 C   0  0  2  0  0  0  0  0  0  0  0  0
   -1.9721    4.4769  -19.0096 C   0  0  0  0  0  0  0  0  0  0  0  0
   -2.4512    6.9731  -18.9962 C   0  0  0  0  0  0  0  0  0  0  0  0
   -3.2024    7.9574  -19.5529 F   0  0  0  0  0  0  0  0  0  0  0  0
   -2.6688    7.0135  -17.6610 F   0  0  0  0  0  0  0  0  0  0  0  0
   -6.3577    4.7861  -19.1157 N   0  0  0  0  0  0  0  0  0  0  0  0
  1  2  1  0
  2  3  2  0
  3  4  1  0
  4  5  2  0
  5  6  1  0
  6  7  1  0
  7  8  1  0
  8  9  1  1
  8 10  1  0
 10 11  1  0
 10 12  1  0
  6 13  2  0
 13  2  1  0
M  END
>  <energy_score>  (4389) 
-25.938237

>  <alias>  (4389) 
JLNAVMVETKTGFP-UHFFFAOYSA-N-P7-P7-P52-601529

>  <HIPPO Pose ID>  (4389) 
83993

>  <smiles>  (4389) 
Cc1cncc(NC(C)C(F)F)n1

>  <inchikey>  (4389) 
JLNAVMVETKTGFP-UHFFFAOYSA-N

>  <distance_score>  (4389) 
0.692457

>  <ref_mols>  (4389) 
Z0875a,Z0089a

>  <ref_pdb>  (4389) 
Z0719a

>  <HIPPO Compound ID>  (4389) 
144518

>  <name>  (4389) 
JLNAVMVETKTGFP-UHFFFAOYSA-N-P7-P7-P52-601529

>  <inspiration_score>  (4389) 
None

$$$$
YSEZYWLOOHTAFS-UHFFFAOYSA-N-P7-P7-P52-601529
     RDKit          3D

 13 13  0  0  0  0  0  0  0  0999 V2000
    0.3283    5.9028  -18.0733 C   0  0  0  0  0  0  0  0  0  0  0  0
   -0.3886    5.3601  -19.0659 C   0  0  0  0  0  0  0  0  0  0  0  0
   -1.7888    4.8222  -18.9143 C   0  0  0  0  0  0  0  0  0  0  0  0
   -2.8356    5.6853  -19.6383 C   0  0  2  0  0  0  0  0  0  0  0  0
   -2.9063    7.1256  -19.1390 C   0  0  0  0  0  0  0  0  0  0  0  0
   -4.1317    5.0291  -19.6684 N   0  0  0  0  0  0  0  0  0  0  0  0
   -5.1075    5.0107  -18.7095 C   0  0  0  0  0  0  0  0  0  0  0  0
   -4.9548    5.2292  -17.3448 C   0  0  0  0  0  0  0  0  0  0  0  0
   -5.9789    5.1994  -16.4537 N   0  0  0  0  0  0  0  0  0  0  0  0
   -7.1885    4.8733  -16.9697 C   0  0  0  0  0  0  0  0  0  0  0  0
   -8.3276    4.7250  -16.0154 C   0  0  0  0  0  0  0  0  0  0  0  0
   -7.3471    4.6303  -18.3247 C   0  0  0  0  0  0  0  0  0  0  0  0
   -6.3209    4.7081  -19.2007 N   0  0  0  0  0  0  0  0  0  0  0  0
  1  2  2  0
  2  3  1  0
  3  4  1  0
  4  5  1  1
  4  6  1  0
  6  7  1  0
  7  8  2  0
  8  9  1  0
  9 10  2  0
 10 11  1  0
 10 12  1  0
 12 13  2  0
 13  7  1  0
M  END
>  <energy_score>  (4390) 
-30.307543

>  <alias>  (4390) 
YSEZYWLOOHTAFS-UHFFFAOYSA-N-P7-P7-P52-601529

>  <HIPPO Pose ID>  (4390) 
84005

>  <smiles>  (4390) 
C=CCC(C)Nc1cnc(C)cn1

>  <inchikey>  (4390) 
YSEZYWLOOHTAFS-UHFFFAOYSA-N

>  <distance_score>  (4390) 
0.743898

>  <ref_mols>  (4390) 
Z0875a,Z0089a

>  <ref_pdb>  (4390) 
Z0719a

>  <HIPPO Compound ID>  (4390) 
144524

>  <name>  (4390) 
YSEZYWLOOHTAFS-UHFFFAOYSA-N-P7-P7-P52-601529

>  <inspiration_score>  (4390) 
None

$$$$
TUYGEYWMUQECLC-UHFFFAOYSA-N-P52-P7-P52-601529
     RDKit          3D

 13 13  0  0  0  0  0  0  0  0999 V2000
    0.2580    6.0729  -18.1455 C   0  0  0  0  0  0  0  0  0  0  0  0
   -0.1193    5.3186  -19.1860 C   0  0  0  0  0  0  0  0  0  0  0  0
   -1.5127    4.8831  -19.5745 C   0  0  0  0  0  0  0  0  0  0  0  0
   -2.7083    5.6053  -18.9132 C   0  0  1  0  0  0  0  0  0  0  0  0
   -2.8135    7.0593  -19.3704 C   0  0  0  0  0  0  0  0  0  0  0  0
   -3.9303    4.8944  -19.2692 N   0  0  0  0  0  0  0  0  0  0  0  0
   -5.0640    4.9634  -18.4827 C   0  0  0  0  0  0  0  0  0  0  0  0
   -5.0820    5.0762  -17.0891 C   0  0  0  0  0  0  0  0  0  0  0  0
   -6.2152    5.1051  -16.3455 N   0  0  0  0  0  0  0  0  0  0  0  0
   -7.3386    4.9616  -17.0645 C   0  0  0  0  0  0  0  0  0  0  0  0
   -8.4651    4.9340  -16.3172 O   0  0  0  0  0  0  0  0  0  0  0  0
   -7.3585    4.8369  -18.4377 C   0  0  0  0  0  0  0  0  0  0  0  0
   -6.2162    4.8438  -19.1653 N   0  0  0  0  0  0  0  0  0  0  0  0
  1  2  2  0
  2  3  1  0
  3  4  1  0
  4  5  1  6
  4  6  1  0
  6  7  1  0
  7  8  2  0
  8  9  1  0
  9 10  2  0
 10 11  1  0
 10 12  1  0
 12 13  2  0
 13  7  1  0
M  END
>  <energy_score>  (4391) 
-43.423728

>  <alias>  (4391) 
TUYGEYWMUQECLC-UHFFFAOYSA-N-P52-P7-P52-601529

>  <HIPPO Pose ID>  (4391) 
84008

>  <smiles>  (4391) 
C=CCC(C)Nc1cnc(O)cn1

>  <inchikey>  (4391) 
TUYGEYWMUQECLC-UHFFFAOYSA-N

>  <distance_score>  (4391) 
0.82252

>  <ref_mols>  (4391) 
Z0875a,Z0089a

>  <ref_pdb>  (4391) 
Z0719a

>  <HIPPO Compound ID>  (4391) 
144525

>  <name>  (4391) 
TUYGEYWMUQECLC-UHFFFAOYSA-N-P52-P7-P52-601529

>  <inspiration_score>  (4391) 
None

$$$$
KXMNFBVUYQGAHE-UHFFFAOYSA-N-P7-P7-P52-601529
     RDKit          3D

 13 13  0  0  0  0  0  0  0  0999 V2000
   -0.3011    5.6498  -18.9832 C   0  0  0  0  0  0  0  0  0  0  0  0
   -1.6645    5.1846  -19.5106 C   0  0  0  0  0  0  0  0  0  0  0  0
   -1.7201    3.6605  -19.5559 C   0  0  0  0  0  0  0  0  0  0  0  0
   -2.8318    5.7739  -18.6745 C   0  0  1  0  0  0  0  0  0  0  0  0
   -2.8895    7.2941  -18.8069 C   0  0  0  0  0  0  0  0  0  0  0  0
   -4.0838    5.2090  -19.1283 N   0  0  0  0  0  0  0  0  0  0  0  0
   -5.2493    5.1152  -18.4162 C   0  0  0  0  0  0  0  0  0  0  0  0
   -6.2771    4.6941  -19.1819 N   0  0  0  0  0  0  0  0  0  0  0  0
   -7.4713    4.5167  -18.5767 C   0  0  0  0  0  0  0  0  0  0  0  0
   -7.6536    4.7556  -17.2296 C   0  0  0  0  0  0  0  0  0  0  0  0
   -6.6628    5.2141  -16.4340 N   0  0  0  0  0  0  0  0  0  0  0  0
   -5.4715    5.3638  -17.0500 C   0  0  0  0  0  0  0  0  0  0  0  0
   -4.5388    5.8200  -16.1754 O   0  0  0  0  0  0  0  0  0  0  0  0
  1  2  1  0
  2  3  1  0
  2  4  1  0
  4  5  1  6
  4  6  1  0
  6  7  1  0
  7  8  2  0
  8  9  1  0
  9 10  2  0
 10 11  1  0
 11 12  2  0
 12 13  1  0
 12  7  1  0
M  END
>  <energy_score>  (4392) 
-37.31388

>  <alias>  (4392) 
KXMNFBVUYQGAHE-UHFFFAOYSA-N-P7-P7-P52-601529

>  <HIPPO Pose ID>  (4392) 
84015

>  <smiles>  (4392) 
CC(C)C(C)Nc1nccnc1O

>  <inchikey>  (4392) 
KXMNFBVUYQGAHE-UHFFFAOYSA-N

>  <distance_score>  (4392) 
0.979106

>  <ref_mols>  (4392) 
Z0875a,Z0089a

>  <ref_pdb>  (4392) 
Z0719a

>  <HIPPO Compound ID>  (4392) 
144529

>  <name>  (4392) 
KXMNFBVUYQGAHE-UHFFFAOYSA-N-P7-P7-P52-601529

>  <inspiration_score>  (4392) 
None

$$$$
MDYJAGJHZIZXCO-UHFFFAOYSA-N-P7-P7-P52-601529
     RDKit          3D

 13 13  0  0  0  0  0  0  0  0999 V2000
   -1.1621    5.8163  -20.8277 C   0  0  0  0  0  0  0  0  0  0  0  0
   -1.4458    5.1048  -19.5007 C   0  0  0  0  0  0  0  0  0  0  0  0
   -1.7589    3.6291  -19.6981 C   0  0  0  0  0  0  0  0  0  0  0  0
   -2.5387    5.7951  -18.6595 C   0  0  1  0  0  0  0  0  0  0  0  0
   -2.2687    7.2910  -18.5004 C   0  0  0  0  0  0  0  0  0  0  0  0
   -3.8662    5.6218  -19.2246 N   0  0  0  0  0  0  0  0  0  0  0  0
   -4.9660    5.3446  -18.4443 C   0  0  0  0  0  0  0  0  0  0  0  0
   -5.0614    5.6216  -17.0785 C   0  0  0  0  0  0  0  0  0  0  0  0
   -6.1552    5.3693  -16.3302 N   0  0  0  0  0  0  0  0  0  0  0  0
   -7.1818    4.8290  -17.0008 C   0  0  0  0  0  0  0  0  0  0  0  0
   -8.2800    4.5927  -16.2388 O   0  0  0  0  0  0  0  0  0  0  0  0
   -7.1245    4.5684  -18.3600 C   0  0  0  0  0  0  0  0  0  0  0  0
   -6.0124    4.8089  -19.0964 N   0  0  0  0  0  0  0  0  0  0  0  0
  1  2  1  0
  2  3  1  0
  2  4  1  0
  4  5  1  6
  4  6  1  0
  6  7  1  0
  7  8  2  0
  8  9  1  0
  9 10  2  0
 10 11  1  0
 10 12  1  0
 12 13  2  0
 13  7  1  0
M  END
>  <energy_score>  (4393) 
-27.296092

>  <alias>  (4393) 
MDYJAGJHZIZXCO-UHFFFAOYSA-N-P7-P7-P52-601529

>  <HIPPO Pose ID>  (4393) 
84019

>  <smiles>  (4393) 
CC(C)C(C)Nc1cnc(O)cn1

>  <inchikey>  (4393) 
MDYJAGJHZIZXCO-UHFFFAOYSA-N

>  <distance_score>  (4393) 
0.792007

>  <ref_mols>  (4393) 
Z0875a,Z0089a

>  <ref_pdb>  (4393) 
Z0719a

>  <HIPPO Compound ID>  (4393) 
144531

>  <name>  (4393) 
MDYJAGJHZIZXCO-UHFFFAOYSA-N-P7-P7-P52-601529

>  <inspiration_score>  (4393) 
None

$$$$
HQYXFCCHWWSQOQ-UHFFFAOYSA-N-P7-P7-P52-601529
     RDKit          3D

 13 13  0  0  0  0  0  0  0  0999 V2000
   -4.5428    6.2587  -16.0078 C   0  0  0  0  0  0  0  0  0  0  0  0
   -5.4597    5.5846  -16.9774 C   0  0  0  0  0  0  0  0  0  0  0  0
   -6.6468    5.1993  -16.4293 N   0  0  0  0  0  0  0  0  0  0  0  0
   -7.5385    4.6339  -17.2681 C   0  0  0  0  0  0  0  0  0  0  0  0
   -7.2754    4.4679  -18.6078 C   0  0  0  0  0  0  0  0  0  0  0  0
   -6.1001    4.8373  -19.1574 N   0  0  0  0  0  0  0  0  0  0  0  0
   -5.1830    5.4027  -18.3449 C   0  0  0  0  0  0  0  0  0  0  0  0
   -4.0977    5.8612  -19.0622 N   0  0  0  0  0  0  0  0  0  0  0  0
   -2.7097    5.6213  -18.6767 C   0  0  1  0  0  0  0  0  0  0  0  0
   -2.2570    4.2640  -19.2135 C   0  0  0  0  0  0  0  0  0  0  0  0
   -1.8587    6.7888  -19.2533 C   0  0  0  0  0  0  0  0  0  0  0  0
   -0.3542    6.5946  -19.0298 C   0  0  0  0  0  0  0  0  0  0  0  0
   -2.2725    8.1363  -18.6438 C   0  0  0  0  0  0  0  0  0  0  0  0
  1  2  1  0
  2  3  2  0
  3  4  1  0
  4  5  2  0
  5  6  1  0
  6  7  2  0
  7  8  1  0
  8  9  1  0
  9 10  1  6
  9 11  1  0
 11 12  1  0
 11 13  1  0
  7  2  1  0
M  END
>  <energy_score>  (4394) 
-30.000052

>  <alias>  (4394) 
HQYXFCCHWWSQOQ-UHFFFAOYSA-N-P7-P7-P52-601529

>  <HIPPO Pose ID>  (4394) 
84021

>  <smiles>  (4394) 
Cc1nccnc1NC(C)C(C)C

>  <inchikey>  (4394) 
HQYXFCCHWWSQOQ-UHFFFAOYSA-N

>  <distance_score>  (4394) 
1.108451

>  <ref_mols>  (4394) 
Z0875a,Z0089a

>  <ref_pdb>  (4394) 
Z0719a

>  <HIPPO Compound ID>  (4394) 
144532

>  <name>  (4394) 
HQYXFCCHWWSQOQ-UHFFFAOYSA-N-P7-P7-P52-601529

>  <inspiration_score>  (4394) 
None

$$$$
WZLFLPDSAVMMHL-UHFFFAOYSA-N-P7-P7-P52-601529
     RDKit          3D

 13 13  0  0  0  0  0  0  0  0999 V2000
    0.4478    6.4987  -20.5123 C   0  0  0  0  0  0  0  0  0  0  0  0
    0.0951    5.6381  -18.9604 S   0  0  0  0  0  0  0  0  0  0  0  0
   -1.5367    4.9117  -19.3866 C   0  0  0  0  0  0  0  0  0  0  0  0
   -2.7233    5.6283  -18.6983 C   0  0  1  0  0  0  0  0  0  0  0  0
   -2.8411    7.0952  -19.1082 C   0  0  0  0  0  0  0  0  0  0  0  0
   -3.9461    4.9323  -19.0648 N   0  0  0  0  0  0  0  0  0  0  0  0
   -5.1238    4.9819  -18.3583 C   0  0  0  0  0  0  0  0  0  0  0  0
   -6.1841    4.6624  -19.1300 N   0  0  0  0  0  0  0  0  0  0  0  0
   -7.3863    4.5647  -18.5228 C   0  0  0  0  0  0  0  0  0  0  0  0
   -7.5433    4.7847  -17.1700 C   0  0  0  0  0  0  0  0  0  0  0  0
   -6.5193    5.1622  -16.3757 N   0  0  0  0  0  0  0  0  0  0  0  0
   -5.3240    5.2414  -16.9925 C   0  0  0  0  0  0  0  0  0  0  0  0
   -4.3637    5.6235  -16.1156 O   0  0  0  0  0  0  0  0  0  0  0  0
  1  2  1  0
  2  3  1  0
  3  4  1  0
  4  5  1  6
  4  6  1  0
  6  7  1  0
  7  8  2  0
  8  9  1  0
  9 10  2  0
 10 11  1  0
 11 12  2  0
 12 13  1  0
 12  7  1  0
M  END
>  <energy_score>  (4395) 
-53.991248

>  <alias>  (4395) 
WZLFLPDSAVMMHL-UHFFFAOYSA-N-P7-P7-P52-601529

>  <HIPPO Pose ID>  (4395) 
84031

>  <smiles>  (4395) 
CSCC(C)Nc1nccnc1O

>  <inchikey>  (4395) 
WZLFLPDSAVMMHL-UHFFFAOYSA-N

>  <distance_score>  (4395) 
0.954638

>  <ref_mols>  (4395) 
Z0875a,Z0089a

>  <ref_pdb>  (4395) 
Z0719a

>  <HIPPO Compound ID>  (4395) 
144537

>  <name>  (4395) 
WZLFLPDSAVMMHL-UHFFFAOYSA-N-P7-P7-P52-601529

>  <inspiration_score>  (4395) 
None

$$$$
URDQRYKXNYOSSH-UHFFFAOYSA-N-P52-P7-P52-601529
     RDKit          3D

 13 13  0  0  0  0  0  0  0  0999 V2000
   -0.4401    7.3308  -21.1702 C   0  0  0  0  0  0  0  0  0  0  0  0
   -1.2397    5.7820  -21.6557 S   0  0  0  0  0  0  0  0  0  0  0  0
   -1.6337    5.1118  -19.9942 C   0  0  0  0  0  0  0  0  0  0  0  0
   -2.8567    5.8327  -19.3641 C   0  0  2  0  0  0  0  0  0  0  0  0
   -2.4010    6.5540  -18.1058 C   0  0  0  0  0  0  0  0  0  0  0  0
   -3.9012    4.8261  -19.1754 N   0  0  0  0  0  0  0  0  0  0  0  0
   -5.0552    5.0120  -18.4439 C   0  0  0  0  0  0  0  0  0  0  0  0
   -5.1238    5.3293  -17.0911 C   0  0  0  0  0  0  0  0  0  0  0  0
   -6.2790    5.3688  -16.3839 N   0  0  0  0  0  0  0  0  0  0  0  0
   -7.3876    4.9988  -17.0680 C   0  0  0  0  0  0  0  0  0  0  0  0
   -8.6500    4.8339  -16.2888 C   0  0  0  0  0  0  0  0  0  0  0  0
   -7.3291    4.6808  -18.4172 C   0  0  0  0  0  0  0  0  0  0  0  0
   -6.1727    4.6971  -19.1198 N   0  0  0  0  0  0  0  0  0  0  0  0
  1  2  1  0
  2  3  1  0
  3  4  1  0
  4  5  1  1
  4  6  1  0
  6  7  1  0
  7  8  2  0
  8  9  1  0
  9 10  2  0
 10 11  1  0
 10 12  1  0
 12 13  2  0
 13  7  1  0
M  END
>  <energy_score>  (4396) 
-23.265052

>  <alias>  (4396) 
URDQRYKXNYOSSH-UHFFFAOYSA-N-P52-P7-P52-601529

>  <HIPPO Pose ID>  (4396) 
84034

>  <smiles>  (4396) 
CSCC(C)Nc1cnc(C)cn1

>  <inchikey>  (4396) 
URDQRYKXNYOSSH-UHFFFAOYSA-N

>  <distance_score>  (4396) 
0.890074

>  <ref_mols>  (4396) 
Z0875a,Z0089a

>  <ref_pdb>  (4396) 
Z0719a

>  <HIPPO Compound ID>  (4396) 
144538

>  <name>  (4396) 
URDQRYKXNYOSSH-UHFFFAOYSA-N-P52-P7-P52-601529

>  <inspiration_score>  (4396) 
None

$$$$
PILQIUOYLATWQS-UHFFFAOYSA-N-P52-P7-P52-601529
     RDKit          3D

 13 13  0  0  0  0  0  0  0  0999 V2000
    0.2146    6.3780  -21.2300 C   0  0  0  0  0  0  0  0  0  0  0  0
   -1.4131    5.5996  -21.3737 S   0  0  0  0  0  0  0  0  0  0  0  0
   -1.5058    4.8073  -19.7198 C   0  0  0  0  0  0  0  0  0  0  0  0
   -2.5913    5.4030  -18.7965 C   0  0  1  0  0  0  0  0  0  0  0  0
   -2.5034    6.9228  -18.6649 C   0  0  0  0  0  0  0  0  0  0  0  0
   -3.9100    5.0013  -19.2541 N   0  0  0  0  0  0  0  0  0  0  0  0
   -5.0462    5.0140  -18.4833 C   0  0  0  0  0  0  0  0  0  0  0  0
   -5.0811    5.0849  -17.0868 C   0  0  0  0  0  0  0  0  0  0  0  0
   -6.2195    5.0736  -16.3503 N   0  0  0  0  0  0  0  0  0  0  0  0
   -7.3350    4.9373  -17.0825 C   0  0  0  0  0  0  0  0  0  0  0  0
   -8.4685    4.8755  -16.3476 O   0  0  0  0  0  0  0  0  0  0  0  0
   -7.3409    4.8549  -18.4587 C   0  0  0  0  0  0  0  0  0  0  0  0
   -6.1927    4.9021  -19.1758 N   0  0  0  0  0  0  0  0  0  0  0  0
  1  2  1  0
  2  3  1  0
  3  4  1  0
  4  5  1  6
  4  6  1  0
  6  7  1  0
  7  8  2  0
  8  9  1  0
  9 10  2  0
 10 11  1  0
 10 12  1  0
 12 13  2  0
 13  7  1  0
M  END
>  <energy_score>  (4397) 
-33.985648

>  <alias>  (4397) 
PILQIUOYLATWQS-UHFFFAOYSA-N-P52-P7-P52-601529

>  <HIPPO Pose ID>  (4397) 
84036

>  <smiles>  (4397) 
CSCC(C)Nc1cnc(O)cn1

>  <inchikey>  (4397) 
PILQIUOYLATWQS-UHFFFAOYSA-N

>  <distance_score>  (4397) 
0.735698

>  <ref_mols>  (4397) 
Z0875a,Z0089a

>  <ref_pdb>  (4397) 
Z0719a

>  <HIPPO Compound ID>  (4397) 
144539

>  <name>  (4397) 
PILQIUOYLATWQS-UHFFFAOYSA-N-P52-P7-P52-601529

>  <inspiration_score>  (4397) 
None

$$$$
WWUXXAIEDMNTQG-UHFFFAOYSA-N-P7-P7-P52-601529
     RDKit          3D

 13 13  0  0  0  0  0  0  0  0999 V2000
   -8.5148    4.5229  -16.3833 C   0  0  0  0  0  0  0  0  0  0  0  0
   -7.2770    4.8987  -17.1283 C   0  0  0  0  0  0  0  0  0  0  0  0
   -7.0753    4.5235  -18.4491 C   0  0  0  0  0  0  0  0  0  0  0  0
   -5.9441    4.8229  -19.1361 N   0  0  0  0  0  0  0  0  0  0  0  0
   -4.9824    5.5135  -18.4745 C   0  0  0  0  0  0  0  0  0  0  0  0
   -3.8715    5.9959  -19.2047 N   0  0  0  0  0  0  0  0  0  0  0  0
   -4.1328    6.1213  -20.6212 N   0  0  0  0  0  0  0  0  0  0  0  0
   -2.4693    5.6299  -18.8180 C   0  0  0  0  0  0  0  0  0  0  0  0
   -2.1097    4.2260  -19.3231 C   0  0  0  0  0  0  0  0  0  0  0  0
   -1.5254    6.6593  -19.4789 C   0  0  0  0  0  0  0  0  0  0  0  0
   -2.1776    5.6977  -17.3103 C   0  0  0  0  0  0  0  0  0  0  0  0
   -5.2216    5.9018  -17.1533 C   0  0  0  0  0  0  0  0  0  0  0  0
   -6.3438    5.6055  -16.4527 N   0  0  0  0  0  0  0  0  0  0  0  0
  1  2  1  0
  2  3  2  0
  3  4  1  0
  4  5  2  0
  5  6  1  0
  6  7  1  0
  6  8  1  0
  8  9  1  0
  8 10  1  0
  8 11  1  0
  5 12  1  0
 12 13  2  0
 13  2  1  0
M  END
>  <energy_score>  (4398) 
-27.078225

>  <alias>  (4398) 
WWUXXAIEDMNTQG-UHFFFAOYSA-N-P7-P7-P52-601529

>  <HIPPO Pose ID>  (4398) 
84039

>  <smiles>  (4398) 
Cc1cnc(N(N)C(C)(C)C)cn1

>  <inchikey>  (4398) 
WWUXXAIEDMNTQG-UHFFFAOYSA-N

>  <distance_score>  (4398) 
0.876031

>  <ref_mols>  (4398) 
Z0875a,Z0089a

>  <ref_pdb>  (4398) 
Z0719a

>  <HIPPO Compound ID>  (4398) 
144541

>  <name>  (4398) 
WWUXXAIEDMNTQG-UHFFFAOYSA-N-P7-P7-P52-601529

>  <inspiration_score>  (4398) 
None

$$$$
IIIVUYNWUUGLTC-UHFFFAOYSA-N-P7-P7-P52-601529
     RDKit          3D

 13 13  0  0  0  0  0  0  0  0999 V2000
   -1.8272    4.4702  -19.5266 C   0  0  0  0  0  0  0  0  0  0  0  0
   -2.6861    5.3704  -18.6371 C   0  0  1  0  0  0  0  0  0  0  0  0
   -2.1499    6.8079  -18.6032 C   0  0  0  0  0  0  0  0  0  0  0  0
   -0.8370    6.9339  -17.8409 C   0  0  0  0  0  0  0  0  0  0  0  0
   -0.4440    8.3008  -17.7775 O   0  0  0  0  0  0  0  0  0  0  0  0
   -4.0387    5.4149  -19.1611 N   0  0  0  0  0  0  0  0  0  0  0  0
   -5.1579    5.1752  -18.3989 C   0  0  0  0  0  0  0  0  0  0  0  0
   -6.1905    4.7052  -19.1276 N   0  0  0  0  0  0  0  0  0  0  0  0
   -7.3540    4.4802  -18.4790 C   0  0  0  0  0  0  0  0  0  0  0  0
   -7.4894    4.6866  -17.1207 C   0  0  0  0  0  0  0  0  0  0  0  0
   -6.4832    5.1682  -16.3591 N   0  0  0  0  0  0  0  0  0  0  0  0
   -5.3372    5.4079  -17.0243 C   0  0  0  0  0  0  0  0  0  0  0  0
   -4.4027    5.9384  -16.1944 O   0  0  0  0  0  0  0  0  0  0  0  0
  2  1  1  6
  2  3  1  0
  3  4  1  0
  4  5  1  0
  2  6  1  0
  6  7  1  0
  7  8  2  0
  8  9  1  0
  9 10  2  0
 10 11  1  0
 11 12  2  0
 12 13  1  0
 12  7  1  0
M  END
>  <energy_score>  (4399) 
-40.366736

>  <alias>  (4399) 
IIIVUYNWUUGLTC-UHFFFAOYSA-N-P7-P7-P52-601529

>  <HIPPO Pose ID>  (4399) 
84049

>  <smiles>  (4399) 
CC(CCO)Nc1nccnc1O

>  <inchikey>  (4399) 
IIIVUYNWUUGLTC-UHFFFAOYSA-N

>  <distance_score>  (4399) 
0.878412

>  <ref_mols>  (4399) 
Z0875a,Z0089a

>  <ref_pdb>  (4399) 
Z0719a

>  <HIPPO Compound ID>  (4399) 
144546

>  <name>  (4399) 
IIIVUYNWUUGLTC-UHFFFAOYSA-N-P7-P7-P52-601529

>  <inspiration_score>  (4399) 
None

$$$$
QBLUCHPUYKCSGR-UHFFFAOYSA-N-P7-P7-P52-601529
     RDKit          3D

 13 13  0  0  0  0  0  0  0  0999 V2000
   -5.7308    4.5973  -15.4131 C   0  0  0  0  0  0  0  0  0  0  0  0
   -5.8529    4.7641  -16.8607 N   0  0  0  0  0  0  0  0  0  0  0  0
   -7.0406    4.5688  -17.4725 C   0  0  0  0  0  0  0  0  0  0  0  0
   -7.1076    4.7624  -18.8290 C   0  0  0  0  0  0  0  0  0  0  0  0
   -6.0367    5.1743  -19.5360 N   0  0  0  0  0  0  0  0  0  0  0  0
   -4.8357    5.3540  -18.9367 C   0  0  0  0  0  0  0  0  0  0  0  0
   -3.7839    5.8294  -19.7339 N   0  0  0  0  0  0  0  0  0  0  0  0
   -4.1886    6.3835  -20.9886 N   0  0  0  0  0  0  0  0  0  0  0  0
   -2.3233    5.8274  -19.4121 C   0  0  0  0  0  0  0  0  0  0  0  0
   -1.8513    4.4044  -19.0961 C   0  0  0  0  0  0  0  0  0  0  0  0
   -2.0090    6.8263  -18.2915 C   0  0  0  0  0  0  0  0  0  0  0  0
   -1.4721    6.3024  -20.6245 C   0  0  0  0  0  0  0  0  0  0  0  0
   -4.7551    5.1152  -17.5754 C   0  0  0  0  0  0  0  0  0  0  0  0
  1  2  1  0
  2  3  2  0
  3  4  1  0
  4  5  2  0
  5  6  1  0
  6  7  1  0
  7  8  1  0
  7  9  1  0
  9 10  1  0
  9 11  1  0
  9 12  1  0
  6 13  2  0
 13  2  1  0
M  CHG  1   2   1
M  END
>  <energy_score>  (4400) 
-26.207192

>  <alias>  (4400) 
QBLUCHPUYKCSGR-UHFFFAOYSA-N-P7-P7-P52-601529

>  <HIPPO Pose ID>  (4400) 
84059

>  <smiles>  (4400) 
C[n+]1ccnc(N(N)C(C)(C)C)c1

>  <inchikey>  (4400) 
QBLUCHPUYKCSGR-UHFFFAOYSA-N

>  <distance_score>  (4400) 
1.041786

>  <ref_mols>  (4400) 
Z0875a,Z0089a

>  <ref_pdb>  (4400) 
Z0719a

>  <HIPPO Compound ID>  (4400) 
144551

>  <name>  (4400) 
QBLUCHPUYKCSGR-UHFFFAOYSA-N-P7-P7-P52-601529

>  <inspiration_score>  (4400) 
None

$$$$
PZTWDFQUZRPNOX-UHFFFAOYSA-N-P7-P7-P52-601529
     RDKit          3D

 13 13  0  0  0  0  0  0  0  0999 V2000
   -2.1819    4.2553  -19.3132 C   0  0  0  0  0  0  0  0  0  0  0  0
   -2.6058    5.6320  -18.7841 C   0  0  0  0  0  0  0  0  0  0  0  0
   -1.7537    6.7169  -19.4885 C   0  0  0  0  0  0  0  0  0  0  0  0
   -2.2295    5.7201  -17.2993 C   0  0  0  0  0  0  0  0  0  0  0  0
   -4.0519    5.8950  -19.1052 N   0  0  0  0  0  0  0  0  0  0  0  0
   -4.3496    6.1795  -20.4940 N   0  0  0  0  0  0  0  0  0  0  0  0
   -5.1620    5.3991  -18.3879 C   0  0  0  0  0  0  0  0  0  0  0  0
   -5.2631    5.4095  -16.9916 C   0  0  0  0  0  0  0  0  0  0  0  0
   -6.3640    5.0349  -16.2855 N   0  0  0  0  0  0  0  0  0  0  0  0
   -7.4106    4.6390  -17.0360 C   0  0  0  0  0  0  0  0  0  0  0  0
   -7.3592    4.6694  -18.4110 C   0  0  0  0  0  0  0  0  0  0  0  0
   -8.4707    4.4163  -19.1502 O   0  0  0  0  0  0  0  0  0  0  0  0
   -6.2695    5.0474  -19.1063 N   0  0  0  0  0  0  0  0  0  0  0  0
  1  2  1  0
  2  3  1  0
  2  4  1  0
  2  5  1  0
  5  6  1  0
  5  7  1  0
  7  8  2  0
  8  9  1  0
  9 10  2  0
 10 11  1  0
 11 12  1  0
 11 13  2  0
 13  7  1  0
M  END
>  <energy_score>  (4401) 
-40.700332

>  <alias>  (4401) 
PZTWDFQUZRPNOX-UHFFFAOYSA-N-P7-P7-P52-601529

>  <HIPPO Pose ID>  (4401) 
84061

>  <smiles>  (4401) 
CC(C)(C)N(N)c1cncc(O)n1

>  <inchikey>  (4401) 
PZTWDFQUZRPNOX-UHFFFAOYSA-N

>  <distance_score>  (4401) 
0.751587

>  <ref_mols>  (4401) 
Z0875a,Z0089a

>  <ref_pdb>  (4401) 
Z0719a

>  <HIPPO Compound ID>  (4401) 
144552

>  <name>  (4401) 
PZTWDFQUZRPNOX-UHFFFAOYSA-N-P7-P7-P52-601529

>  <inspiration_score>  (4401) 
None

$$$$
ZHXMSXFHPQPSJP-UHFFFAOYSA-N-P7-P7-P52-601529
     RDKit          3D

 13 13  0  0  0  0  0  0  0  0999 V2000
   -1.5835    4.6093  -19.7946 C   0  0  0  0  0  0  0  0  0  0  0  0
   -2.6508    5.3946  -19.0379 C   0  0  1  0  0  0  0  0  0  0  0  0
   -2.4804    6.9081  -19.2521 C   0  0  0  0  0  0  0  0  0  0  0  0
   -3.3114    7.6454  -18.2888 C   0  0  0  0  0  0  0  0  0  0  0  0
   -4.0030    8.1298  -17.4909 N   0  0  0  0  0  0  0  0  0  0  0  0
   -3.9586    4.9334  -19.4845 N   0  0  0  0  0  0  0  0  0  0  0  0
   -5.0995    4.8719  -18.7309 C   0  0  0  0  0  0  0  0  0  0  0  0
   -5.1536    4.9776  -17.3522 C   0  0  0  0  0  0  0  0  0  0  0  0
   -6.3367    4.8872  -16.7088 N   0  0  0  0  0  0  0  0  0  0  0  0
   -6.3452    5.0135  -15.2553 C   0  0  0  0  0  0  0  0  0  0  0  0
   -7.4729    4.6500  -17.4006 C   0  0  0  0  0  0  0  0  0  0  0  0
   -7.3901    4.5371  -18.7725 C   0  0  0  0  0  0  0  0  0  0  0  0
   -6.2185    4.6505  -19.4304 N   0  0  0  0  0  0  0  0  0  0  0  0
  2  1  1  6
  2  3  1  0
  3  4  1  0
  4  5  3  0
  2  6  1  0
  6  7  1  0
  7  8  2  0
  8  9  1  0
  9 10  1  0
  9 11  2  0
 11 12  1  0
 12 13  2  0
 13  7  1  0
M  CHG  1   9   1
M  END
>  <energy_score>  (4402) 
-25.206657

>  <alias>  (4402) 
ZHXMSXFHPQPSJP-UHFFFAOYSA-N-P7-P7-P52-601529

>  <HIPPO Pose ID>  (4402) 
84065

>  <smiles>  (4402) 
CC(CC#N)Nc1c[n+](C)ccn1

>  <inchikey>  (4402) 
ZHXMSXFHPQPSJP-UHFFFAOYSA-N

>  <distance_score>  (4402) 
1.029152

>  <ref_mols>  (4402) 
Z0875a,Z0089a

>  <ref_pdb>  (4402) 
Z0719a

>  <HIPPO Compound ID>  (4402) 
144554

>  <name>  (4402) 
ZHXMSXFHPQPSJP-UHFFFAOYSA-N-P7-P7-P52-601529

>  <inspiration_score>  (4402) 
None

$$$$
MJOTYMISSBBUHL-UHFFFAOYSA-N-P7-P7-P52-601529
     RDKit          3D

 13 13  0  0  0  0  0  0  0  0999 V2000
   -2.2413    4.2324  -19.0735 C   0  0  0  0  0  0  0  0  0  0  0  0
   -2.8389    5.6046  -18.7658 C   0  0  1  0  0  0  0  0  0  0  0  0
   -2.0593    6.7263  -19.4767 C   0  0  0  0  0  0  0  0  0  0  0  0
   -2.0419    6.5167  -20.9312 C   0  0  0  0  0  0  0  0  0  0  0  0
   -2.0685    6.2550  -22.0629 N   0  0  0  0  0  0  0  0  0  0  0  0
   -4.2328    5.6658  -19.1789 N   0  0  0  0  0  0  0  0  0  0  0  0
   -5.2921    5.2897  -18.3857 C   0  0  0  0  0  0  0  0  0  0  0  0
   -6.2940    4.7454  -19.1044 N   0  0  0  0  0  0  0  0  0  0  0  0
   -7.4359    4.4468  -18.4486 C   0  0  0  0  0  0  0  0  0  0  0  0
   -7.5790    4.6613  -17.0920 C   0  0  0  0  0  0  0  0  0  0  0  0
   -6.5986    5.2050  -16.3359 N   0  0  0  0  0  0  0  0  0  0  0  0
   -5.4682    5.5009  -17.0086 C   0  0  0  0  0  0  0  0  0  0  0  0
   -4.5592    6.0868  -16.1882 O   0  0  0  0  0  0  0  0  0  0  0  0
  2  1  1  6
  2  3  1  0
  3  4  1  0
  4  5  3  0
  2  6  1  0
  6  7  1  0
  7  8  2  0
  8  9  1  0
  9 10  2  0
 10 11  1  0
 11 12  2  0
 12 13  1  0
 12  7  1  0
M  END
>  <energy_score>  (4403) 
-38.286819

>  <alias>  (4403) 
MJOTYMISSBBUHL-UHFFFAOYSA-N-P7-P7-P52-601529

>  <HIPPO Pose ID>  (4403) 
84069

>  <smiles>  (4403) 
CC(CC#N)Nc1nccnc1O

>  <inchikey>  (4403) 
MJOTYMISSBBUHL-UHFFFAOYSA-N

>  <distance_score>  (4403) 
0.89366

>  <ref_mols>  (4403) 
Z0875a,Z0089a

>  <ref_pdb>  (4403) 
Z0719a

>  <HIPPO Compound ID>  (4403) 
144556

>  <name>  (4403) 
MJOTYMISSBBUHL-UHFFFAOYSA-N-P7-P7-P52-601529

>  <inspiration_score>  (4403) 
None

$$$$
MHIIQORKSNPYPZ-UHFFFAOYSA-N-P7-P7-P52-601529
     RDKit          3D

 13 13  0  0  0  0  0  0  0  0999 V2000
   -8.3449    4.6607  -16.0564 C   0  0  0  0  0  0  0  0  0  0  0  0
   -7.2046    4.8711  -16.9973 C   0  0  0  0  0  0  0  0  0  0  0  0
   -7.3189    4.5762  -18.3460 C   0  0  0  0  0  0  0  0  0  0  0  0
   -6.2929    4.7343  -19.2127 N   0  0  0  0  0  0  0  0  0  0  0  0
   -5.1273    5.1835  -18.7211 C   0  0  0  0  0  0  0  0  0  0  0  0
   -4.1828    5.3802  -19.6842 N   0  0  0  0  0  0  0  0  0  0  0  0
   -2.7515    5.6155  -19.5993 C   0  0  2  0  0  0  0  0  0  0  0  0
   -2.0225    4.4163  -19.0073 C   0  0  0  0  0  0  0  0  0  0  0  0
   -2.4159    6.9395  -18.9015 C   0  0  0  0  0  0  0  0  0  0  0  0
   -1.0957    7.4416  -19.3062 C   0  0  0  0  0  0  0  0  0  0  0  0
   -0.0575    7.8493  -19.6253 N   0  0  0  0  0  0  0  0  0  0  0  0
   -5.0147    5.4437  -17.3601 C   0  0  0  0  0  0  0  0  0  0  0  0
   -6.0373    5.3197  -16.4767 N   0  0  0  0  0  0  0  0  0  0  0  0
  1  2  1  0
  2  3  2  0
  3  4  1  0
  4  5  2  0
  5  6  1  0
  6  7  1  0
  7  8  1  1
  7  9  1  0
  9 10  1  0
 10 11  3  0
  5 12  1  0
 12 13  2  0
 13  2  1  0
M  END
>  <energy_score>  (4404) 
-15.010248

>  <alias>  (4404) 
MHIIQORKSNPYPZ-UHFFFAOYSA-N-P7-P7-P52-601529

>  <HIPPO Pose ID>  (4404) 
84071

>  <smiles>  (4404) 
Cc1cnc(NC(C)CC#N)cn1

>  <inchikey>  (4404) 
MHIIQORKSNPYPZ-UHFFFAOYSA-N

>  <distance_score>  (4404) 
0.688231

>  <ref_mols>  (4404) 
Z0875a,Z0089a

>  <ref_pdb>  (4404) 
Z0719a

>  <HIPPO Compound ID>  (4404) 
144557

>  <name>  (4404) 
MHIIQORKSNPYPZ-UHFFFAOYSA-N-P7-P7-P52-601529

>  <inspiration_score>  (4404) 
None

$$$$
RIUJMHIAMBDPMF-UHFFFAOYSA-N-P52-P7-P52-601529
     RDKit          3D

 13 13  0  0  0  0  0  0  0  0999 V2000
   -0.0504    5.3127  -19.0108 C   0  0  0  0  0  0  0  0  0  0  0  0
   -1.4609    4.9526  -19.4666 C   0  0  0  0  0  0  0  0  0  0  0  0
   -2.5599    5.6349  -18.6198 C   0  0  1  0  0  0  0  0  0  0  0  0
   -2.3612    7.1500  -18.5194 C   0  0  0  0  0  0  0  0  0  0  0  0
   -3.8851    5.3432  -19.1971 N   0  0  0  0  0  0  0  0  0  0  0  0
   -4.1397    5.8014  -20.5228 N   0  0  0  0  0  0  0  0  0  0  0  0
   -5.0317    5.1776  -18.3888 C   0  0  0  0  0  0  0  0  0  0  0  0
   -5.0455    5.3929  -17.0058 C   0  0  0  0  0  0  0  0  0  0  0  0
   -6.1488    5.2983  -16.2213 N   0  0  0  0  0  0  0  0  0  0  0  0
   -7.2711    4.9182  -16.8662 C   0  0  0  0  0  0  0  0  0  0  0  0
   -7.3054    4.6768  -18.2301 C   0  0  0  0  0  0  0  0  0  0  0  0
   -8.5875    4.2579  -18.8793 C   0  0  0  0  0  0  0  0  0  0  0  0
   -6.1956    4.8293  -19.0025 N   0  0  0  0  0  0  0  0  0  0  0  0
  1  2  1  0
  2  3  1  0
  3  4  1  6
  3  5  1  0
  5  6  1  0
  5  7  1  0
  7  8  2  0
  8  9  1  0
  9 10  2  0
 10 11  1  0
 11 12  1  0
 11 13  2  0
 13  7  1  0
M  END
>  <energy_score>  (4405) 
-31.966769

>  <alias>  (4405) 
RIUJMHIAMBDPMF-UHFFFAOYSA-N-P52-P7-P52-601529

>  <HIPPO Pose ID>  (4405) 
84078

>  <smiles>  (4405) 
CCC(C)N(N)c1cncc(C)n1

>  <inchikey>  (4405) 
RIUJMHIAMBDPMF-UHFFFAOYSA-N

>  <distance_score>  (4405) 
0.774887

>  <ref_mols>  (4405) 
Z0875a,Z0089a

>  <ref_pdb>  (4405) 
Z0719a

>  <HIPPO Compound ID>  (4405) 
144560

>  <name>  (4405) 
RIUJMHIAMBDPMF-UHFFFAOYSA-N-P52-P7-P52-601529

>  <inspiration_score>  (4405) 
None

$$$$
NWMJQTBXALVWLZ-UHFFFAOYSA-N-P7-P7-P52-601529
     RDKit          3D

 13 13  0  0  0  0  0  0  0  0999 V2000
   -2.3210    3.8537  -18.7069 C   0  0  0  0  0  0  0  0  0  0  0  0
   -1.8949    4.9270  -19.6704 C   0  0  0  0  0  0  0  0  0  0  0  0
   -2.5916    6.2761  -19.4803 C   0  0  2  0  0  0  0  0  0  0  0  0
   -2.1677    7.0313  -18.2323 C   0  0  0  0  0  0  0  0  0  0  0  0
   -4.0575    6.2291  -19.6986 N   0  0  0  0  0  0  0  0  0  0  0  0
   -4.4754    6.5767  -21.0222 N   0  0  0  0  0  0  0  0  0  0  0  0
   -5.0372    5.6350  -18.9004 C   0  0  0  0  0  0  0  0  0  0  0  0
   -4.9561    5.5013  -17.5251 C   0  0  0  0  0  0  0  0  0  0  0  0
   -5.9775    4.9605  -16.8170 N   0  0  0  0  0  0  0  0  0  0  0  0
   -5.8294    4.8122  -15.3697 C   0  0  0  0  0  0  0  0  0  0  0  0
   -7.1030    4.5447  -17.4381 C   0  0  0  0  0  0  0  0  0  0  0  0
   -7.1762    4.6748  -18.8029 C   0  0  0  0  0  0  0  0  0  0  0  0
   -6.1662    5.2123  -19.5131 N   0  0  0  0  0  0  0  0  0  0  0  0
  1  2  1  0
  2  3  1  0
  3  4  1  1
  3  5  1  0
  5  6  1  0
  5  7  1  0
  7  8  2  0
  8  9  1  0
  9 10  1  0
  9 11  2  0
 11 12  1  0
 12 13  2  0
 13  7  1  0
M  CHG  1   9   1
M  END
>  <energy_score>  (4406) 
-31.806599

>  <alias>  (4406) 
NWMJQTBXALVWLZ-UHFFFAOYSA-N-P7-P7-P52-601529

>  <HIPPO Pose ID>  (4406) 
84079

>  <smiles>  (4406) 
CCC(C)N(N)c1c[n+](C)ccn1

>  <inchikey>  (4406) 
NWMJQTBXALVWLZ-UHFFFAOYSA-N

>  <distance_score>  (4406) 
0.908168

>  <ref_mols>  (4406) 
Z0875a,Z0089a

>  <ref_pdb>  (4406) 
Z0719a

>  <HIPPO Compound ID>  (4406) 
144561

>  <name>  (4406) 
NWMJQTBXALVWLZ-UHFFFAOYSA-N-P7-P7-P52-601529

>  <inspiration_score>  (4406) 
None

$$$$
BYTNBPCVLVBTER-UHFFFAOYSA-N-P7-P7-P52-601529
     RDKit          3D

 13 13  0  0  0  0  0  0  0  0999 V2000
   -0.9018    5.8519  -20.8034 C   0  0  0  0  0  0  0  0  0  0  0  0
   -1.4628    4.8589  -19.7853 C   0  0  0  0  0  0  0  0  0  0  0  0
   -2.4950    5.4339  -18.7894 C   0  0  1  0  0  0  0  0  0  0  0  0
   -2.1579    6.8493  -18.3234 C   0  0  0  0  0  0  0  0  0  0  0  0
   -3.8526    5.3901  -19.3543 N   0  0  0  0  0  0  0  0  0  0  0  0
   -4.1020    5.9874  -20.6256 N   0  0  0  0  0  0  0  0  0  0  0  0
   -4.9910    5.1598  -18.5621 C   0  0  0  0  0  0  0  0  0  0  0  0
   -4.9827    5.0930  -17.1621 C   0  0  0  0  0  0  0  0  0  0  0  0
   -6.0914    4.9424  -16.3901 N   0  0  0  0  0  0  0  0  0  0  0  0
   -7.2300    4.8163  -17.0872 C   0  0  0  0  0  0  0  0  0  0  0  0
   -8.3369    4.6689  -16.3240 O   0  0  0  0  0  0  0  0  0  0  0  0
   -7.2888    4.8554  -18.4621 C   0  0  0  0  0  0  0  0  0  0  0  0
   -6.1778    5.0444  -19.2111 N   0  0  0  0  0  0  0  0  0  0  0  0
  1  2  1  0
  2  3  1  0
  3  4  1  6
  3  5  1  0
  5  6  1  0
  5  7  1  0
  7  8  2  0
  8  9  1  0
  9 10  2  0
 10 11  1  0
 10 12  1  0
 12 13  2  0
 13  7  1  0
M  END
>  <energy_score>  (4407) 
-39.486358

>  <alias>  (4407) 
BYTNBPCVLVBTER-UHFFFAOYSA-N-P7-P7-P52-601529

>  <HIPPO Pose ID>  (4407) 
84085

>  <smiles>  (4407) 
CCC(C)N(N)c1cnc(O)cn1

>  <inchikey>  (4407) 
BYTNBPCVLVBTER-UHFFFAOYSA-N

>  <distance_score>  (4407) 
0.767693

>  <ref_mols>  (4407) 
Z0875a,Z0089a

>  <ref_pdb>  (4407) 
Z0719a

>  <HIPPO Compound ID>  (4407) 
144564

>  <name>  (4407) 
BYTNBPCVLVBTER-UHFFFAOYSA-N-P7-P7-P52-601529

>  <inspiration_score>  (4407) 
None

$$$$
JAXBKLQYVHWRSP-UHFFFAOYSA-N-P7-P7-P52-601529
     RDKit          3D

 13 13  0  0  0  0  0  0  0  0999 V2000
   -1.5356    3.2802  -19.7889 C   0  0  0  0  0  0  0  0  0  0  0  0
   -2.1768    4.6218  -19.9411 C   0  0  0  0  0  0  0  0  0  0  0  0
   -2.2518    5.2869  -18.5877 C   0  0  0  0  0  0  0  0  0  0  0  0
   -3.0245    6.5982  -18.6430 C   0  0  1  0  0  0  0  0  0  0  0  0
   -2.3069    7.6471  -19.4846 C   0  0  0  0  0  0  0  0  0  0  0  0
   -4.3678    6.4127  -19.1731 N   0  0  0  0  0  0  0  0  0  0  0  0
   -5.3372    5.6768  -18.5436 C   0  0  0  0  0  0  0  0  0  0  0  0
   -5.4179    5.5082  -17.1739 C   0  0  0  0  0  0  0  0  0  0  0  0
   -6.4641    4.8503  -16.6348 N   0  0  0  0  0  0  0  0  0  0  0  0
   -6.4808    4.6313  -15.1931 C   0  0  0  0  0  0  0  0  0  0  0  0
   -7.4572    4.3844  -17.4246 C   0  0  0  0  0  0  0  0  0  0  0  0
   -7.3392    4.5467  -18.7883 C   0  0  0  0  0  0  0  0  0  0  0  0
   -6.2815    5.1706  -19.3418 N   0  0  0  0  0  0  0  0  0  0  0  0
  1  2  1  0
  2  3  1  0
  3  4  1  0
  4  5  1  6
  4  6  1  0
  6  7  1  0
  7  8  2  0
  8  9  1  0
  9 10  1  0
  9 11  2  0
 11 12  1  0
 12 13  2  0
 13  7  1  0
M  CHG  1   9   1
M  END
>  <energy_score>  (4408) 
-27.873926

>  <alias>  (4408) 
JAXBKLQYVHWRSP-UHFFFAOYSA-N-P7-P7-P52-601529

>  <HIPPO Pose ID>  (4408) 
84089

>  <smiles>  (4408) 
CCCC(C)Nc1c[n+](C)ccn1

>  <inchikey>  (4408) 
JAXBKLQYVHWRSP-UHFFFAOYSA-N

>  <distance_score>  (4408) 
1.194913

>  <ref_mols>  (4408) 
Z0875a,Z0089a

>  <ref_pdb>  (4408) 
Z0719a

>  <HIPPO Compound ID>  (4408) 
144566

>  <name>  (4408) 
JAXBKLQYVHWRSP-UHFFFAOYSA-N-P7-P7-P52-601529

>  <inspiration_score>  (4408) 
None

$$$$
CADWPJSZNQJJBQ-UHFFFAOYSA-N-P52-P7-P52-601529
     RDKit          3D

 13 13  0  0  0  0  0  0  0  0999 V2000
    0.2932    6.3778  -20.3752 C   0  0  0  0  0  0  0  0  0  0  0  0
   -0.1827    5.4552  -19.2619 C   0  0  0  0  0  0  0  0  0  0  0  0
   -1.5873    4.8901  -19.5098 C   0  0  0  0  0  0  0  0  0  0  0  0
   -2.7044    5.6219  -18.7342 C   0  0  1  0  0  0  0  0  0  0  0  0
   -2.8398    7.0813  -19.1496 C   0  0  0  0  0  0  0  0  0  0  0  0
   -3.9418    4.9149  -18.9871 N   0  0  0  0  0  0  0  0  0  0  0  0
   -5.1283    5.0189  -18.3101 C   0  0  0  0  0  0  0  0  0  0  0  0
   -6.1567    4.7023  -19.1275 N   0  0  0  0  0  0  0  0  0  0  0  0
   -7.3927    4.6478  -18.5930 C   0  0  0  0  0  0  0  0  0  0  0  0
   -7.6209    4.9206  -17.2673 C   0  0  0  0  0  0  0  0  0  0  0  0
   -6.6290    5.2932  -16.4358 N   0  0  0  0  0  0  0  0  0  0  0  0
   -5.3705    5.3151  -16.9579 C   0  0  0  0  0  0  0  0  0  0  0  0
   -4.3237    5.6636  -15.9509 C   0  0  0  0  0  0  0  0  0  0  0  0
  1  2  1  0
  2  3  1  0
  3  4  1  0
  4  5  1  6
  4  6  1  0
  6  7  1  0
  7  8  2  0
  8  9  1  0
  9 10  2  0
 10 11  1  0
 11 12  2  0
 12 13  1  0
 12  7  1  0
M  END
>  <energy_score>  (4409) 
-22.571631

>  <alias>  (4409) 
CADWPJSZNQJJBQ-UHFFFAOYSA-N-P52-P7-P52-601529

>  <HIPPO Pose ID>  (4409) 
84100

>  <smiles>  (4409) 
CCCC(C)Nc1nccnc1C

>  <inchikey>  (4409) 
CADWPJSZNQJJBQ-UHFFFAOYSA-N

>  <distance_score>  (4409) 
1.077982

>  <ref_mols>  (4409) 
Z0875a,Z0089a

>  <ref_pdb>  (4409) 
Z0719a

>  <HIPPO Compound ID>  (4409) 
144571

>  <name>  (4409) 
CADWPJSZNQJJBQ-UHFFFAOYSA-N-P52-P7-P52-601529

>  <inspiration_score>  (4409) 
None

$$$$
UXKCAJUOVYCPSB-UHFFFAOYSA-N-P52-P7-P52-601529
     RDKit          3D

 13 15  0  0  0  0  0  0  0  0999 V2000
   -9.7289    4.1692  -17.9922 C   0  0  0  0  0  0  0  0  0  0  0  0
   -8.9293    4.3818  -16.8524 C   0  0  0  0  0  0  0  0  0  0  0  0
   -7.6461    4.6217  -17.2947 C   0  0  0  0  0  0  0  0  0  0  0  0
   -6.4182    4.9564  -16.6100 C   0  0  0  0  0  0  0  0  0  0  0  0
   -6.3770    4.9853  -15.2367 N   0  0  0  0  0  0  0  0  0  0  0  0
   -5.0767    5.0846  -14.5887 C   0  0  0  0  0  0  0  0  0  0  0  0
   -4.4527    6.4268  -14.3408 C   0  0  0  0  0  0  0  0  0  0  0  0
   -4.9698    5.6151  -13.1887 C   0  0  0  0  0  0  0  0  0  0  0  0
   -5.3356    5.2308  -17.2990 N   0  0  0  0  0  0  0  0  0  0  0  0
   -5.3678    5.1105  -18.6663 C   0  0  0  0  0  0  0  0  0  0  0  0
   -6.4584    4.7499  -19.3501 C   0  0  0  0  0  0  0  0  0  0  0  0
   -7.6264    4.5218  -18.6585 N   0  0  0  0  0  0  0  0  0  0  0  0
   -8.8922    4.2227  -19.0846 C   0  0  0  0  0  0  0  0  0  0  0  0
  1  2  1  0
  2  3  2  0
  3  4  1  0
  4  5  1  0
  5  6  1  0
  6  7  1  0
  7  8  1  0
  4  9  2  0
  9 10  1  0
 10 11  2  0
 11 12  1  0
 12 13  1  0
 13  1  2  0
 12  3  1  0
  8  6  1  0
M  END
>  <energy_score>  (4410) 
-14.945128

>  <alias>  (4410) 
UXKCAJUOVYCPSB-UHFFFAOYSA-N-P52-P7-P52-601529

>  <HIPPO Pose ID>  (4410) 
84104

>  <smiles>  (4410) 
c1cc2c(NC3CC3)nccn2c1

>  <inchikey>  (4410) 
UXKCAJUOVYCPSB-UHFFFAOYSA-N

>  <distance_score>  (4410) 
1.92183

>  <ref_mols>  (4410) 
Z0875a,Z0089a

>  <ref_pdb>  (4410) 
Z0719a

>  <HIPPO Compound ID>  (4410) 
144573

>  <name>  (4410) 
UXKCAJUOVYCPSB-UHFFFAOYSA-N-P52-P7-P52-601529

>  <inspiration_score>  (4410) 
None

$$$$
KEYWTUPEAIXZPL-UHFFFAOYSA-N-P52-P7-P52-601529
     RDKit          3D

 13 15  0  0  0  0  0  0  0  0999 V2000
   -9.4097    4.3102  -17.4269 C   0  0  0  0  0  0  0  0  0  0  0  0
   -8.7547    4.2834  -18.6396 C   0  0  0  0  0  0  0  0  0  0  0  0
   -7.4129    4.6427  -18.4008 C   0  0  0  0  0  0  0  0  0  0  0  0
   -6.3721    4.7647  -19.2570 N   0  0  0  0  0  0  0  0  0  0  0  0
   -5.2343    5.1845  -18.6820 C   0  0  0  0  0  0  0  0  0  0  0  0
   -4.1497    5.3460  -19.5654 N   0  0  0  0  0  0  0  0  0  0  0  0
   -2.8117    4.9711  -19.1267 C   0  0  0  0  0  0  0  0  0  0  0  0
   -1.6077    5.2975  -19.9583 C   0  0  0  0  0  0  0  0  0  0  0  0
   -1.8426    6.0217  -18.6651 C   0  0  0  0  0  0  0  0  0  0  0  0
   -5.1505    5.4631  -17.3092 C   0  0  0  0  0  0  0  0  0  0  0  0
   -6.1701    5.3408  -16.4156 N   0  0  0  0  0  0  0  0  0  0  0  0
   -7.2844    4.9074  -17.0418 C   0  0  0  0  0  0  0  0  0  0  0  0
   -8.4927    4.6445  -16.4575 N   0  0  0  0  0  0  0  0  0  0  0  0
  1  2  2  0
  2  3  1  0
  3  4  2  0
  4  5  1  0
  5  6  1  0
  6  7  1  0
  7  8  1  0
  8  9  1  0
  5 10  2  0
 10 11  1  0
 11 12  2  0
 12 13  1  0
 13  1  1  0
 12  3  1  0
  9  7  1  0
M  END
>  <energy_score>  (4411) 
-20.714606

>  <alias>  (4411) 
KEYWTUPEAIXZPL-UHFFFAOYSA-N-P52-P7-P52-601529

>  <HIPPO Pose ID>  (4411) 
84108

>  <smiles>  (4411) 
c1cc2nc(NC3CC3)cnc2[nH]1

>  <inchikey>  (4411) 
KEYWTUPEAIXZPL-UHFFFAOYSA-N

>  <distance_score>  (4411) 
0.80953

>  <ref_mols>  (4411) 
Z0875a,Z0089a

>  <ref_pdb>  (4411) 
Z0719a

>  <HIPPO Compound ID>  (4411) 
144575

>  <name>  (4411) 
KEYWTUPEAIXZPL-UHFFFAOYSA-N-P52-P7-P52-601529

>  <inspiration_score>  (4411) 
None

$$$$
TXXUHXMQSDIMMF-UHFFFAOYSA-N-P52-P7-P52-601529
     RDKit          3D

 13 14  0  0  0  0  0  0  0  0999 V2000
   -8.7248    4.7475  -15.9627 C   0  0  0  0  0  0  0  0  0  0  0  0
   -7.5303    4.9709  -16.8283 C   0  0  0  0  0  0  0  0  0  0  0  0
   -6.4383    5.4788  -16.2149 N   0  0  0  0  0  0  0  0  0  0  0  0
   -5.3263    5.6447  -16.9734 C   0  0  0  0  0  0  0  0  0  0  0  0
   -4.1746    6.2312  -16.2268 C   0  0  0  0  0  0  0  0  0  0  0  0
   -5.3076    5.3091  -18.3364 C   0  0  0  0  0  0  0  0  0  0  0  0
   -4.2232    5.4687  -19.2169 N   0  0  0  0  0  0  0  0  0  0  0  0
   -2.8954    4.9982  -18.8323 C   0  0  0  0  0  0  0  0  0  0  0  0
   -1.7416    5.1113  -19.7888 C   0  0  0  0  0  0  0  0  0  0  0  0
   -1.7857    5.9761  -18.5664 C   0  0  0  0  0  0  0  0  0  0  0  0
   -6.4121    4.8209  -18.9394 N   0  0  0  0  0  0  0  0  0  0  0  0
   -7.5247    4.6542  -18.1822 C   0  0  0  0  0  0  0  0  0  0  0  0
   -8.7536    4.1568  -18.8759 C   0  0  0  0  0  0  0  0  0  0  0  0
  1  2  1  0
  2  3  2  0
  3  4  1  0
  4  5  1  0
  4  6  2  0
  6  7  1  0
  7  8  1  0
  8  9  1  0
  9 10  1  0
  6 11  1  0
 11 12  2  0
 12 13  1  0
 12  2  1  0
 10  8  1  0
M  END
>  <energy_score>  (4412) 
-28.458119

>  <alias>  (4412) 
TXXUHXMQSDIMMF-UHFFFAOYSA-N-P52-P7-P52-601529

>  <HIPPO Pose ID>  (4412) 
84110

>  <smiles>  (4412) 
Cc1nc(C)c(NC2CC2)nc1C

>  <inchikey>  (4412) 
TXXUHXMQSDIMMF-UHFFFAOYSA-N

>  <distance_score>  (4412) 
1.168281

>  <ref_mols>  (4412) 
Z0875a,Z0089a

>  <ref_pdb>  (4412) 
Z0719a

>  <HIPPO Compound ID>  (4412) 
144576

>  <name>  (4412) 
TXXUHXMQSDIMMF-UHFFFAOYSA-N-P52-P7-P52-601529

>  <inspiration_score>  (4412) 
None

$$$$
XBNFLJPQVCXOHB-UHFFFAOYSA-N-P7-P7-P52-601529
     RDKit          3D

 13 15  0  0  0  0  0  0  0  0999 V2000
   -7.6720    4.2938  -19.0043 C   0  0  0  0  0  0  0  0  0  0  0  0
   -6.4953    4.4904  -19.5271 N   0  0  0  0  0  0  0  0  0  0  0  0
   -5.4579    4.9782  -18.7462 C   0  0  0  0  0  0  0  0  0  0  0  0
   -4.2825    5.2522  -19.4226 N   0  0  0  0  0  0  0  0  0  0  0  0
   -2.9967    4.8987  -18.8292 C   0  0  0  0  0  0  0  0  0  0  0  0
   -1.7261    5.0914  -19.6070 C   0  0  0  0  0  0  0  0  0  0  0  0
   -2.0281    5.9758  -18.4329 C   0  0  0  0  0  0  0  0  0  0  0  0
   -5.6176    5.1945  -17.4180 C   0  0  0  0  0  0  0  0  0  0  0  0
   -6.8576    4.9588  -16.8607 N   0  0  0  0  0  0  0  0  0  0  0  0
   -7.3862    5.0813  -15.6115 C   0  0  0  0  0  0  0  0  0  0  0  0
   -8.6681    4.7838  -15.6286 N   0  0  0  0  0  0  0  0  0  0  0  0
   -8.9902    4.4104  -16.9137 N   0  0  0  0  0  0  0  0  0  0  0  0
   -7.8970    4.5297  -17.6238 C   0  0  0  0  0  0  0  0  0  0  0  0
  1  2  2  0
  2  3  1  0
  3  4  1  0
  4  5  1  0
  5  6  1  0
  6  7  1  0
  3  8  2  0
  8  9  1  0
  9 10  1  0
 10 11  2  0
 11 12  1  0
 12 13  2  0
 13  1  1  0
  7  5  1  0
 13  9  1  0
M  END
>  <energy_score>  (4413) 
-16.142395

>  <alias>  (4413) 
XBNFLJPQVCXOHB-UHFFFAOYSA-N-P7-P7-P52-601529

>  <HIPPO Pose ID>  (4413) 
84111

>  <smiles>  (4413) 
c1nc(NC2CC2)cn2cnnc12

>  <inchikey>  (4413) 
XBNFLJPQVCXOHB-UHFFFAOYSA-N

>  <distance_score>  (4413) 
1.703894

>  <ref_mols>  (4413) 
Z0875a,Z0089a

>  <ref_pdb>  (4413) 
Z0719a

>  <HIPPO Compound ID>  (4413) 
144577

>  <name>  (4413) 
XBNFLJPQVCXOHB-UHFFFAOYSA-N-P7-P7-P52-601529

>  <inspiration_score>  (4413) 
None

$$$$
SVELKHVCINPSOH-UHFFFAOYSA-N-P52-P7-P52-601529
     RDKit          3D

 13 15  0  0  0  0  0  0  0  0999 V2000
   -8.5393    4.8533  -15.7360 C   0  0  0  0  0  0  0  0  0  0  0  0
   -8.9945    4.4058  -16.9340 N   0  0  0  0  0  0  0  0  0  0  0  0
   -7.9362    4.5583  -17.6888 C   0  0  0  0  0  0  0  0  0  0  0  0
   -7.7468    4.2243  -19.0532 C   0  0  0  0  0  0  0  0  0  0  0  0
   -6.5855    4.3580  -19.6213 N   0  0  0  0  0  0  0  0  0  0  0  0
   -5.5155    4.8803  -18.9095 C   0  0  0  0  0  0  0  0  0  0  0  0
   -4.3423    4.9708  -19.6348 N   0  0  0  0  0  0  0  0  0  0  0  0
   -3.2557    5.8775  -19.3097 C   0  0  0  0  0  0  0  0  0  0  0  0
   -1.8445    5.4246  -19.5922 C   0  0  0  0  0  0  0  0  0  0  0  0
   -2.2978    5.6478  -18.1818 C   0  0  0  0  0  0  0  0  0  0  0  0
   -5.6528    5.2388  -17.6125 C   0  0  0  0  0  0  0  0  0  0  0  0
   -6.8782    5.0716  -16.9930 N   0  0  0  0  0  0  0  0  0  0  0  0
   -7.2905    5.3305  -15.7294 N   0  0  0  0  0  0  0  0  0  0  0  0
  1  2  1  0
  2  3  2  0
  3  4  1  0
  4  5  2  0
  5  6  1  0
  6  7  1  0
  7  8  1  0
  8  9  1  0
  9 10  1  0
  6 11  2  0
 11 12  1  0
 12 13  1  0
 13  1  2  0
 12  3  1  0
 10  8  1  0
M  END
>  <energy_score>  (4414) 
-21.286362

>  <alias>  (4414) 
SVELKHVCINPSOH-UHFFFAOYSA-N-P52-P7-P52-601529

>  <HIPPO Pose ID>  (4414) 
84114

>  <smiles>  (4414) 
c1nc2cnc(NC3CC3)cn2n1

>  <inchikey>  (4414) 
SVELKHVCINPSOH-UHFFFAOYSA-N

>  <distance_score>  (4414) 
1.331635

>  <ref_mols>  (4414) 
Z0875a,Z0089a

>  <ref_pdb>  (4414) 
Z0719a

>  <HIPPO Compound ID>  (4414) 
144578

>  <name>  (4414) 
SVELKHVCINPSOH-UHFFFAOYSA-N-P52-P7-P52-601529

>  <inspiration_score>  (4414) 
None

$$$$
RGPNOXJOTNQWES-UHFFFAOYSA-N-P52-P7-P52-601529
     RDKit          3D

 13 15  0  0  0  0  0  0  0  0999 V2000
   -9.2463    4.2150  -17.3338 C   0  0  0  0  0  0  0  0  0  0  0  0
   -8.6824    4.1954  -18.5221 N   0  0  0  0  0  0  0  0  0  0  0  0
   -7.3847    4.5605  -18.2941 C   0  0  0  0  0  0  0  0  0  0  0  0
   -6.4065    4.7176  -19.2129 N   0  0  0  0  0  0  0  0  0  0  0  0
   -5.2331    5.1232  -18.6948 C   0  0  0  0  0  0  0  0  0  0  0  0
   -4.1960    5.3275  -19.6273 N   0  0  0  0  0  0  0  0  0  0  0  0
   -2.8234    4.9988  -19.2624 C   0  0  0  0  0  0  0  0  0  0  0  0
   -1.6696    5.4259  -20.1182 C   0  0  0  0  0  0  0  0  0  0  0  0
   -1.8866    6.0709  -18.7814 C   0  0  0  0  0  0  0  0  0  0  0  0
   -5.0548    5.3432  -17.3162 C   0  0  0  0  0  0  0  0  0  0  0  0
   -6.0059    5.1688  -16.3592 N   0  0  0  0  0  0  0  0  0  0  0  0
   -7.1560    4.7727  -16.9389 C   0  0  0  0  0  0  0  0  0  0  0  0
   -8.3462    4.4921  -16.3388 N   0  0  0  0  0  0  0  0  0  0  0  0
  1  2  2  0
  2  3  1  0
  3  4  2  0
  4  5  1  0
  5  6  1  0
  6  7  1  0
  7  8  1  0
  8  9  1  0
  5 10  2  0
 10 11  1  0
 11 12  2  0
 12 13  1  0
 13  1  1  0
 12  3  1  0
  9  7  1  0
M  END
>  <energy_score>  (4415) 
-27.929715

>  <alias>  (4415) 
RGPNOXJOTNQWES-UHFFFAOYSA-N-P52-P7-P52-601529

>  <HIPPO Pose ID>  (4415) 
84116

>  <smiles>  (4415) 
c1nc2nc(NC3CC3)cnc2[nH]1

>  <inchikey>  (4415) 
RGPNOXJOTNQWES-UHFFFAOYSA-N

>  <distance_score>  (4415) 
0.832924

>  <ref_mols>  (4415) 
Z0875a,Z0089a

>  <ref_pdb>  (4415) 
Z0719a

>  <HIPPO Compound ID>  (4415) 
144579

>  <name>  (4415) 
RGPNOXJOTNQWES-UHFFFAOYSA-N-P52-P7-P52-601529

>  <inspiration_score>  (4415) 
None

$$$$
HEPIDPHCFPVBAA-UHFFFAOYSA-N-P7-P7-P52-601529
     RDKit          3D

 13 14  0  0  0  0  0  0  0  0999 V2000
   -9.5658    3.7903  -18.1043 O   0  0  0  0  0  0  0  0  0  0  0  0
   -8.5431    3.9762  -18.7395 C   0  0  0  0  0  0  0  0  0  0  0  0
   -8.3897    3.5604  -20.0071 O   0  0  0  0  0  0  0  0  0  0  0  0
   -7.3035    4.5979  -18.2343 C   0  0  0  0  0  0  0  0  0  0  0  0
   -7.2270    4.9824  -16.9080 C   0  0  0  0  0  0  0  0  0  0  0  0
   -6.1102    5.5493  -16.3865 N   0  0  0  0  0  0  0  0  0  0  0  0
   -5.0750    5.6702  -17.2566 C   0  0  0  0  0  0  0  0  0  0  0  0
   -5.1431    5.2725  -18.5934 C   0  0  0  0  0  0  0  0  0  0  0  0
   -4.0868    5.3929  -19.5053 N   0  0  0  0  0  0  0  0  0  0  0  0
   -2.7502    5.0074  -19.0671 C   0  0  0  0  0  0  0  0  0  0  0  0
   -1.5511    5.2991  -19.9156 C   0  0  0  0  0  0  0  0  0  0  0  0
   -1.7650    6.0568  -18.6380 C   0  0  0  0  0  0  0  0  0  0  0  0
   -6.2629    4.7400  -19.0938 N   0  0  0  0  0  0  0  0  0  0  0  0
  1  2  2  0
  2  3  1  0
  2  4  1  0
  4  5  2  0
  5  6  1  0
  6  7  2  0
  7  8  1  0
  8  9  1  0
  9 10  1  0
 10 11  1  0
 11 12  1  0
  8 13  2  0
 13  4  1  0
 12 10  1  0
M  END
>  <energy_score>  (4416) 
-27.016806

>  <alias>  (4416) 
HEPIDPHCFPVBAA-UHFFFAOYSA-N-P7-P7-P52-601529

>  <HIPPO Pose ID>  (4416) 
84121

>  <smiles>  (4416) 
O=C(O)c1cncc(NC2CC2)n1

>  <inchikey>  (4416) 
HEPIDPHCFPVBAA-UHFFFAOYSA-N

>  <distance_score>  (4416) 
0.746006

>  <ref_mols>  (4416) 
Z0875a,Z0089a

>  <ref_pdb>  (4416) 
Z0719a

>  <HIPPO Compound ID>  (4416) 
144582

>  <name>  (4416) 
HEPIDPHCFPVBAA-UHFFFAOYSA-N-P7-P7-P52-601529

>  <inspiration_score>  (4416) 
None

$$$$
XCBFFOIICBIBCA-UHFFFAOYSA-N-P52-P7-P52-601529
     RDKit          3D

 13 15  0  0  0  0  0  0  0  0999 V2000
   -9.3937    4.5127  -17.1802 C   0  0  0  0  0  0  0  0  0  0  0  0
   -8.8325    4.4481  -18.4356 C   0  0  0  0  0  0  0  0  0  0  0  0
   -7.5015    4.6798  -18.2364 N   0  0  0  0  0  0  0  0  0  0  0  0
   -6.4298    4.7559  -19.0924 C   0  0  0  0  0  0  0  0  0  0  0  0
   -5.1891    4.9877  -18.6162 C   0  0  0  0  0  0  0  0  0  0  0  0
   -4.1485    5.0684  -19.5273 N   0  0  0  0  0  0  0  0  0  0  0  0
   -2.8217    5.4935  -19.1032 C   0  0  0  0  0  0  0  0  0  0  0  0
   -1.5927    4.8702  -19.7006 C   0  0  0  0  0  0  0  0  0  0  0  0
   -1.9489    6.2929  -20.0255 C   0  0  0  0  0  0  0  0  0  0  0  0
   -4.9834    5.1251  -17.2497 N   0  0  0  0  0  0  0  0  0  0  0  0
   -6.0006    5.0514  -16.4362 C   0  0  0  0  0  0  0  0  0  0  0  0
   -7.3289    4.8452  -16.8994 C   0  0  0  0  0  0  0  0  0  0  0  0
   -8.4502    4.7928  -16.2201 N   0  0  0  0  0  0  0  0  0  0  0  0
  1  2  2  0
  2  3  1  0
  3  4  1  0
  4  5  2  0
  5  6  1  0
  6  7  1  0
  7  8  1  0
  8  9  1  0
  5 10  1  0
 10 11  2  0
 11 12  1  0
 12 13  2  0
 13  1  1  0
 12  3  1  0
  9  7  1  0
M  END
>  <energy_score>  (4417) 
-14.129103

>  <alias>  (4417) 
XCBFFOIICBIBCA-UHFFFAOYSA-N-P52-P7-P52-601529

>  <HIPPO Pose ID>  (4417) 
84124

>  <smiles>  (4417) 
c1cn2cc(NC3CC3)ncc2n1

>  <inchikey>  (4417) 
XCBFFOIICBIBCA-UHFFFAOYSA-N

>  <distance_score>  (4417) 
1.635154

>  <ref_mols>  (4417) 
Z0875a,Z0089a

>  <ref_pdb>  (4417) 
Z0719a

>  <HIPPO Compound ID>  (4417) 
144583

>  <name>  (4417) 
XCBFFOIICBIBCA-UHFFFAOYSA-N-P52-P7-P52-601529

>  <inspiration_score>  (4417) 
None

$$$$
GSQZZGRGJSFSHJ-UHFFFAOYSA-N-P7-P7-P52-601529
     RDKit          3D

 13 15  0  0  0  0  0  0  0  0999 V2000
   -8.6576    4.0877  -18.8274 C   0  0  0  0  0  0  0  0  0  0  0  0
   -8.7318    4.3212  -17.4933 N   0  0  0  0  0  0  0  0  0  0  0  0
   -7.4855    4.6200  -17.2209 C   0  0  0  0  0  0  0  0  0  0  0  0
   -6.9236    5.0118  -15.9763 C   0  0  0  0  0  0  0  0  0  0  0  0
   -5.6834    5.3985  -15.8783 N   0  0  0  0  0  0  0  0  0  0  0  0
   -4.9132    5.3793  -17.0268 C   0  0  0  0  0  0  0  0  0  0  0  0
   -5.3253    4.9800  -18.2551 C   0  0  0  0  0  0  0  0  0  0  0  0
   -4.5496    4.9147  -19.4172 N   0  0  0  0  0  0  0  0  0  0  0  0
   -3.3118    5.6838  -19.5579 C   0  0  0  0  0  0  0  0  0  0  0  0
   -2.0780    5.0175  -20.1156 C   0  0  0  0  0  0  0  0  0  0  0  0
   -2.0961    5.4843  -18.6973 C   0  0  0  0  0  0  0  0  0  0  0  0
   -6.6817    4.5801  -18.3329 N   0  0  0  0  0  0  0  0  0  0  0  0
   -7.4357    4.1427  -19.3635 N   0  0  0  0  0  0  0  0  0  0  0  0
  1  2  1  0
  2  3  2  0
  3  4  1  0
  4  5  2  0
  5  6  1  0
  6  7  2  0
  7  8  1  0
  8  9  1  0
  9 10  1  0
 10 11  1  0
  7 12  1  0
 12 13  1  0
 13  1  2  0
 12  3  1  0
 11  9  1  0
M  END
>  <energy_score>  (4418) 
-19.945964

>  <alias>  (4418) 
GSQZZGRGJSFSHJ-UHFFFAOYSA-N-P7-P7-P52-601529

>  <HIPPO Pose ID>  (4418) 
84125

>  <smiles>  (4418) 
c1nc2cncc(NC3CC3)n2n1

>  <inchikey>  (4418) 
GSQZZGRGJSFSHJ-UHFFFAOYSA-N

>  <distance_score>  (4418) 
1.482435

>  <ref_mols>  (4418) 
Z0875a,Z0089a

>  <ref_pdb>  (4418) 
Z0719a

>  <HIPPO Compound ID>  (4418) 
144584

>  <name>  (4418) 
GSQZZGRGJSFSHJ-UHFFFAOYSA-N-P7-P7-P52-601529

>  <inspiration_score>  (4418) 
None

$$$$
PKEASTPXBCLMMX-UHFFFAOYSA-N-P52-P7-P52-601529
     RDKit          3D

 14 14  0  0  0  0  0  0  0  0999 V2000
   -2.5124    4.1926  -18.4630 C   0  0  0  0  0  0  0  0  0  0  0  0
   -2.7806    5.0476  -19.6695 C   0  0  0  0  0  0  0  0  0  0  0  0
   -3.1867    6.4892  -19.3421 C   0  0  0  0  0  0  0  0  0  0  0  0
   -2.3198    7.1389  -18.2647 C   0  0  0  0  0  0  0  0  0  0  0  0
   -2.9552    7.3205  -20.6378 C   0  0  0  0  0  0  0  0  0  0  0  0
   -4.6255    6.6505  -19.0437 N   0  0  0  0  0  0  0  0  0  0  0  0
   -5.4318    5.8031  -18.3077 C   0  0  0  0  0  0  0  0  0  0  0  0
   -6.2958    5.1616  -19.1269 N   0  0  0  0  0  0  0  0  0  0  0  0
   -7.3160    4.4816  -18.5602 C   0  0  0  0  0  0  0  0  0  0  0  0
   -7.4682    4.4044  -17.1953 C   0  0  0  0  0  0  0  0  0  0  0  0
   -6.6006    4.9877  -16.3473 N   0  0  0  0  0  0  0  0  0  0  0  0
   -5.5804    5.6876  -16.9163 C   0  0  0  0  0  0  0  0  0  0  0  0
   -4.7797    6.4442  -15.9293 C   0  0  0  0  0  0  0  0  0  0  0  0
   -4.7245    6.1618  -14.7342 O   0  0  0  0  0  0  0  0  0  0  0  0
  1  2  1  0
  2  3  1  0
  3  4  1  0
  3  5  1  0
  3  6  1  0
  6  7  1  0
  7  8  2  0
  8  9  1  0
  9 10  2  0
 10 11  1  0
 11 12  2  0
 12 13  1  0
 13 14  2  0
 12  7  1  0
M  END
>  <energy_score>  (4419) 
-16.656413

>  <alias>  (4419) 
PKEASTPXBCLMMX-UHFFFAOYSA-N-P52-P7-P52-601529

>  <HIPPO Pose ID>  (4419) 
84132

>  <smiles>  (4419) 
CCC(C)(C)Nc1nccnc1C=O

>  <inchikey>  (4419) 
PKEASTPXBCLMMX-UHFFFAOYSA-N

>  <distance_score>  (4419) 
1.146183

>  <ref_mols>  (4419) 
Z0875a,Z0089a

>  <ref_pdb>  (4419) 
Z0719a

>  <HIPPO Compound ID>  (4419) 
144587

>  <name>  (4419) 
PKEASTPXBCLMMX-UHFFFAOYSA-N-P52-P7-P52-601529

>  <inspiration_score>  (4419) 
None

$$$$
GNUOIVRDKUPCAZ-UHFFFAOYSA-N-P7-P7-P52-601529
     RDKit          3D

 14 14  0  0  0  0  0  0  0  0999 V2000
   -1.6642    3.7084  -19.7474 C   0  0  0  0  0  0  0  0  0  0  0  0
   -1.9263    5.1949  -19.8872 C   0  0  0  0  0  0  0  0  0  0  0  0
   -2.8114    5.7871  -18.7695 C   0  0  0  0  0  0  0  0  0  0  0  0
   -2.9190    7.2971  -19.0071 C   0  0  0  0  0  0  0  0  0  0  0  0
   -2.1299    5.5150  -17.4196 C   0  0  0  0  0  0  0  0  0  0  0  0
   -4.1366    5.1764  -18.9040 N   0  0  0  0  0  0  0  0  0  0  0  0
   -5.2287    5.2142  -18.0807 C   0  0  0  0  0  0  0  0  0  0  0  0
   -5.2336    5.6623  -16.7584 C   0  0  0  0  0  0  0  0  0  0  0  0
   -6.3108    5.6285  -15.9392 N   0  0  0  0  0  0  0  0  0  0  0  0
   -7.4103    5.0820  -16.4886 C   0  0  0  0  0  0  0  0  0  0  0  0
   -7.4480    4.6552  -17.8045 C   0  0  0  0  0  0  0  0  0  0  0  0
   -8.6901    4.1450  -18.2878 C   0  0  0  0  0  0  0  0  0  0  0  0
   -9.7733    3.7653  -18.4593 N   0  0  0  0  0  0  0  0  0  0  0  0
   -6.3655    4.7214  -18.6239 N   0  0  0  0  0  0  0  0  0  0  0  0
  1  2  1  0
  2  3  1  0
  3  4  1  0
  3  5  1  0
  3  6  1  0
  6  7  1  0
  7  8  2  0
  8  9  1  0
  9 10  2  0
 10 11  1  0
 11 12  1  0
 12 13  3  0
 11 14  2  0
 14  7  1  0
M  END
>  <energy_score>  (4420) 
-25.727149

>  <alias>  (4420) 
GNUOIVRDKUPCAZ-UHFFFAOYSA-N-P7-P7-P52-601529

>  <HIPPO Pose ID>  (4420) 
84133

>  <smiles>  (4420) 
CCC(C)(C)Nc1cncc(C#N)n1

>  <inchikey>  (4420) 
GNUOIVRDKUPCAZ-UHFFFAOYSA-N

>  <distance_score>  (4420) 
0.916768

>  <ref_mols>  (4420) 
Z0875a,Z0089a

>  <ref_pdb>  (4420) 
Z0719a

>  <HIPPO Compound ID>  (4420) 
144588

>  <name>  (4420) 
GNUOIVRDKUPCAZ-UHFFFAOYSA-N-P7-P7-P52-601529

>  <inspiration_score>  (4420) 
None

$$$$
HCPJXKUGADZSGM-UHFFFAOYSA-N-P7-P7-P52-601529
     RDKit          3D

 14 16  0  0  0  0  0  0  0  0999 V2000
   -4.3977    6.0395  -20.5419 N   0  0  0  0  0  0  0  0  0  0  0  0
   -4.0785    5.7113  -19.2148 N   0  0  0  0  0  0  0  0  0  0  0  0
   -5.1619    5.3982  -18.3378 C   0  0  0  0  0  0  0  0  0  0  0  0
   -4.9642    5.4467  -16.9565 C   0  0  0  0  0  0  0  0  0  0  0  0
   -5.9395    5.2217  -16.0539 N   0  0  0  0  0  0  0  0  0  0  0  0
   -7.1357    4.8923  -16.5940 C   0  0  0  0  0  0  0  0  0  0  0  0
   -7.3945    4.8157  -17.9653 C   0  0  0  0  0  0  0  0  0  0  0  0
   -8.7361    4.3878  -18.5205 C   0  0  0  0  0  0  0  0  0  0  0  0
   -9.5019    3.2933  -17.8351 C   0  0  0  0  0  0  0  0  0  0  0  0
  -10.0632    4.6573  -17.8335 C   0  0  0  0  0  0  0  0  0  0  0  0
   -6.3915    5.1069  -18.8400 N   0  0  0  0  0  0  0  0  0  0  0  0
   -2.7552    5.1262  -18.9418 C   0  0  0  0  0  0  0  0  0  0  0  0
   -1.5494    5.3719  -19.8060 C   0  0  0  0  0  0  0  0  0  0  0  0
   -1.6393    6.0118  -18.4537 C   0  0  0  0  0  0  0  0  0  0  0  0
  1  2  1  0
  2  3  1  0
  3  4  2  0
  4  5  1  0
  5  6  2  0
  6  7  1  0
  7  8  1  0
  8  9  1  0
  9 10  1  0
  7 11  2  0
  2 12  1  0
 12 13  1  0
 13 14  1  0
 11  3  1  0
 14 12  1  0
 10  8  1  0
M  END
>  <energy_score>  (4421) 
-27.679857

>  <alias>  (4421) 
HCPJXKUGADZSGM-UHFFFAOYSA-N-P7-P7-P52-601529

>  <HIPPO Pose ID>  (4421) 
84139

>  <smiles>  (4421) 
NN(c1cncc(C2CC2)n1)C1CC1

>  <inchikey>  (4421) 
HCPJXKUGADZSGM-UHFFFAOYSA-N

>  <distance_score>  (4421) 
1.006708

>  <ref_mols>  (4421) 
Z0875a,Z0089a

>  <ref_pdb>  (4421) 
Z0719a

>  <HIPPO Compound ID>  (4421) 
144591

>  <name>  (4421) 
HCPJXKUGADZSGM-UHFFFAOYSA-N-P7-P7-P52-601529

>  <inspiration_score>  (4421) 
None

$$$$
OZJHRJDDLFHGQR-UHFFFAOYSA-N-P52-P7-P52-601529
     RDKit          3D

 14 16  0  0  0  0  0  0  0  0999 V2000
   -5.4812    6.1468  -20.3272 N   0  0  0  0  0  0  0  0  0  0  0  0
   -4.8205    5.4823  -19.2606 N   0  0  0  0  0  0  0  0  0  0  0  0
   -5.5911    5.2418  -18.1040 C   0  0  0  0  0  0  0  0  0  0  0  0
   -5.2047    5.5085  -16.8289 C   0  0  0  0  0  0  0  0  0  0  0  0
   -5.9420    5.2655  -15.6847 N   0  0  0  0  0  0  0  0  0  0  0  0
   -7.1348    4.7609  -15.8279 C   0  0  0  0  0  0  0  0  0  0  0  0
   -7.6628    4.4731  -17.1097 C   0  0  0  0  0  0  0  0  0  0  0  0
   -8.8477    4.0160  -17.4248 N   0  0  0  0  0  0  0  0  0  0  0  0
   -8.8143    3.8893  -18.7805 N   0  0  0  0  0  0  0  0  0  0  0  0
   -7.6262    4.2331  -19.2671 N   0  0  0  0  0  0  0  0  0  0  0  0
   -6.8840    4.6722  -18.2231 N   0  0  0  0  0  0  0  0  0  0  0  0
   -3.4105    5.9393  -19.1035 C   0  0  0  0  0  0  0  0  0  0  0  0
   -2.2850    5.2031  -19.7930 C   0  0  0  0  0  0  0  0  0  0  0  0
   -2.3672    5.2125  -18.3034 C   0  0  0  0  0  0  0  0  0  0  0  0
  1  2  1  0
  2  3  1  0
  3  4  2  0
  4  5  1  0
  5  6  2  0
  6  7  1  0
  7  8  2  0
  8  9  1  0
  9 10  2  0
 10 11  1  0
  2 12  1  0
 12 13  1  0
 13 14  1  0
 11  3  1  0
 14 12  1  0
 11  7  1  0
M  END
>  <energy_score>  (4422) 
-16.350914

>  <alias>  (4422) 
OZJHRJDDLFHGQR-UHFFFAOYSA-N-P52-P7-P52-601529

>  <HIPPO Pose ID>  (4422) 
84142

>  <smiles>  (4422) 
NN(c1cncc2nnnn12)C1CC1

>  <inchikey>  (4422) 
OZJHRJDDLFHGQR-UHFFFAOYSA-N

>  <distance_score>  (4422) 
1.528409

>  <ref_mols>  (4422) 
Z0875a,Z0089a

>  <ref_pdb>  (4422) 
Z0719a

>  <HIPPO Compound ID>  (4422) 
144592

>  <name>  (4422) 
OZJHRJDDLFHGQR-UHFFFAOYSA-N-P52-P7-P52-601529

>  <inspiration_score>  (4422) 
None

$$$$
UBGNDNFLKXEVFA-UHFFFAOYSA-N-P52-P7-P52-601529
     RDKit          3D

 14 16  0  0  0  0  0  0  0  0999 V2000
   -5.1184    6.1337  -20.1924 N   0  0  0  0  0  0  0  0  0  0  0  0
   -4.6016    5.2292  -19.2311 N   0  0  0  0  0  0  0  0  0  0  0  0
   -5.3053    5.0761  -18.0202 C   0  0  0  0  0  0  0  0  0  0  0  0
   -4.7571    5.2252  -16.7868 C   0  0  0  0  0  0  0  0  0  0  0  0
   -5.4128    5.0943  -15.5797 N   0  0  0  0  0  0  0  0  0  0  0  0
   -6.6827    4.8185  -15.6117 C   0  0  0  0  0  0  0  0  0  0  0  0
   -7.3890    4.6471  -16.8399 C   0  0  0  0  0  0  0  0  0  0  0  0
   -8.7158    4.3936  -17.0993 C   0  0  0  0  0  0  0  0  0  0  0  0
   -8.8274    4.2532  -18.4899 C   0  0  0  0  0  0  0  0  0  0  0  0
   -7.5606    4.3841  -19.0147 C   0  0  0  0  0  0  0  0  0  0  0  0
   -6.6802    4.7300  -18.0188 N   0  0  0  0  0  0  0  0  0  0  0  0
   -3.1208    5.0574  -19.2024 C   0  0  0  0  0  0  0  0  0  0  0  0
   -2.1834    6.1335  -18.7263 C   0  0  0  0  0  0  0  0  0  0  0  0
   -2.1775    5.7372  -20.1657 C   0  0  0  0  0  0  0  0  0  0  0  0
  1  2  1  0
  2  3  1  0
  3  4  2  0
  4  5  1  0
  5  6  2  0
  6  7  1  0
  7  8  2  0
  8  9  1  0
  9 10  2  0
 10 11  1  0
  2 12  1  0
 12 13  1  0
 13 14  1  0
 11  3  1  0
 14 12  1  0
 11  7  1  0
M  END
>  <energy_score>  (4423) 
-25.398805

>  <alias>  (4423) 
UBGNDNFLKXEVFA-UHFFFAOYSA-N-P52-P7-P52-601529

>  <HIPPO Pose ID>  (4423) 
84144

>  <smiles>  (4423) 
NN(c1cncc2cccn12)C1CC1

>  <inchikey>  (4423) 
UBGNDNFLKXEVFA-UHFFFAOYSA-N

>  <distance_score>  (4423) 
1.881817

>  <ref_mols>  (4423) 
Z0875a,Z0089a

>  <ref_pdb>  (4423) 
Z0719a

>  <HIPPO Compound ID>  (4423) 
144593

>  <name>  (4423) 
UBGNDNFLKXEVFA-UHFFFAOYSA-N-P52-P7-P52-601529

>  <inspiration_score>  (4423) 
None

$$$$
FMLRZWWQPIWRLV-UHFFFAOYSA-N-P7-P7-P52-601529
     RDKit          3D

 14 15  0  0  0  0  0  0  0  0999 V2000
   -1.6171    3.4730  -19.5134 C   0  0  0  0  0  0  0  0  0  0  0  0
   -2.1214    4.5595  -19.5210 C   0  0  0  0  0  0  0  0  0  0  0  0
   -2.7311    5.8571  -19.5694 C   0  0  0  0  0  0  0  0  0  0  0  0
   -4.1647    5.8353  -19.8166 N   0  0  0  0  0  0  0  0  0  0  0  0
   -5.0889    5.4760  -18.8370 C   0  0  0  0  0  0  0  0  0  0  0  0
   -4.9442    5.7284  -17.4770 C   0  0  0  0  0  0  0  0  0  0  0  0
   -5.9148    5.4856  -16.5679 N   0  0  0  0  0  0  0  0  0  0  0  0
   -7.0551    4.9397  -17.0604 C   0  0  0  0  0  0  0  0  0  0  0  0
   -8.1175    4.6488  -16.0475 C   0  0  0  0  0  0  0  0  0  0  0  0
   -9.3979    4.0589  -16.5967 C   0  0  0  0  0  0  0  0  0  0  0  0
   -7.1903    4.6689  -18.4161 C   0  0  0  0  0  0  0  0  0  0  0  0
   -6.2150    4.9251  -19.3109 N   0  0  0  0  0  0  0  0  0  0  0  0
   -1.9196    6.9306  -20.2609 C   0  0  0  0  0  0  0  0  0  0  0  0
   -2.0915    6.9748  -18.7776 C   0  0  0  0  0  0  0  0  0  0  0  0
  1  2  3  0
  2  3  1  0
  3  4  1  0
  4  5  1  0
  5  6  2  0
  6  7  1  0
  7  8  2  0
  8  9  1  0
  9 10  1  0
  8 11  1  0
 11 12  2  0
  3 13  1  0
 13 14  1  0
 14  3  1  0
 12  5  1  0
M  END
>  <energy_score>  (4424) 
-23.445286

>  <alias>  (4424) 
FMLRZWWQPIWRLV-UHFFFAOYSA-N-P7-P7-P52-601529

>  <HIPPO Pose ID>  (4424) 
84149

>  <smiles>  (4424) 
C#CC1(Nc2cnc(CC)cn2)CC1

>  <inchikey>  (4424) 
FMLRZWWQPIWRLV-UHFFFAOYSA-N

>  <distance_score>  (4424) 
0.811752

>  <ref_mols>  (4424) 
Z0875a,Z0089a

>  <ref_pdb>  (4424) 
Z0719a

>  <HIPPO Compound ID>  (4424) 
144596

>  <name>  (4424) 
FMLRZWWQPIWRLV-UHFFFAOYSA-N-P7-P7-P52-601529

>  <inspiration_score>  (4424) 
None

$$$$
ODNDPXDCBZTGRL-UHFFFAOYSA-N-P7-P7-P52-601529
     RDKit          3D

 14 15  0  0  0  0  0  0  0  0999 V2000
   -9.9859    4.0752  -18.1254 C   0  0  0  0  0  0  0  0  0  0  0  0
   -8.8012    4.2495  -18.0501 C   0  0  0  0  0  0  0  0  0  0  0  0
   -7.4345    4.5597  -17.7912 C   0  0  0  0  0  0  0  0  0  0  0  0
   -7.0022    4.7056  -16.4823 C   0  0  0  0  0  0  0  0  0  0  0  0
   -5.7491    5.0985  -16.1693 N   0  0  0  0  0  0  0  0  0  0  0  0
   -4.9522    5.3166  -17.2419 C   0  0  0  0  0  0  0  0  0  0  0  0
   -5.3712    5.1836  -18.5720 C   0  0  0  0  0  0  0  0  0  0  0  0
   -4.5637    5.5050  -19.6652 N   0  0  0  0  0  0  0  0  0  0  0  0
   -3.1334    5.7576  -19.5913 C   0  0  0  0  0  0  0  0  0  0  0  0
   -2.3209    4.5740  -19.5490 C   0  0  0  0  0  0  0  0  0  0  0  0
   -1.6551    3.5777  -19.5450 C   0  0  0  0  0  0  0  0  0  0  0  0
   -2.5711    6.9051  -20.4019 C   0  0  0  0  0  0  0  0  0  0  0  0
   -2.6041    7.0023  -18.9122 C   0  0  0  0  0  0  0  0  0  0  0  0
   -6.6337    4.7960  -18.8530 N   0  0  0  0  0  0  0  0  0  0  0  0
  1  2  3  0
  2  3  1  0
  3  4  2  0
  4  5  1  0
  5  6  2  0
  6  7  1  0
  7  8  1  0
  8  9  1  0
  9 10  1  0
 10 11  3  0
  9 12  1  0
 12 13  1  0
  7 14  2  0
 14  3  1  0
 13  9  1  0
M  END
>  <energy_score>  (4425) 
-23.937193

>  <alias>  (4425) 
ODNDPXDCBZTGRL-UHFFFAOYSA-N-P7-P7-P52-601529

>  <HIPPO Pose ID>  (4425) 
84153

>  <smiles>  (4425) 
C#Cc1cncc(NC2(C#C)CC2)n1

>  <inchikey>  (4425) 
ODNDPXDCBZTGRL-UHFFFAOYSA-N

>  <distance_score>  (4425) 
1.123111

>  <ref_mols>  (4425) 
Z0875a,Z0089a

>  <ref_pdb>  (4425) 
Z0719a

>  <HIPPO Compound ID>  (4425) 
144598

>  <name>  (4425) 
ODNDPXDCBZTGRL-UHFFFAOYSA-N-P7-P7-P52-601529

>  <inspiration_score>  (4425) 
None

$$$$
AZHAUYDEYBTNNJ-UHFFFAOYSA-N-P52-P7-P52-601529
     RDKit          3D

 14 16  0  0  0  0  0  0  0  0999 V2000
   -1.6780    7.1953  -18.4456 F   0  0  0  0  0  0  0  0  0  0  0  0
   -2.0106    6.5155  -19.6055 C   0  0  1  0  0  0  0  0  0  0  0  0
   -1.6109    5.0780  -19.6934 C   0  0  0  0  0  0  0  0  0  0  0  0
   -3.0593    5.4460  -19.5029 C   0  0  1  0  0  0  0  0  0  0  0  0
   -3.7057    5.1753  -18.2241 N   0  0  0  0  0  0  0  0  0  0  0  0
   -5.0737    4.9917  -18.1333 C   0  0  0  0  0  0  0  0  0  0  0  0
   -5.6464    5.1040  -16.9081 C   0  0  0  0  0  0  0  0  0  0  0  0
   -7.0011    4.8903  -16.7818 N   0  0  0  0  0  0  0  0  0  0  0  0
   -7.8737    4.8886  -15.7353 C   0  0  0  0  0  0  0  0  0  0  0  0
   -9.0915    4.6469  -16.1673 N   0  0  0  0  0  0  0  0  0  0  0  0
   -9.0187    4.4444  -17.5285 N   0  0  0  0  0  0  0  0  0  0  0  0
   -7.7609    4.5845  -17.8631 C   0  0  0  0  0  0  0  0  0  0  0  0
   -7.1176    4.4468  -19.1217 C   0  0  0  0  0  0  0  0  0  0  0  0
   -5.8347    4.6525  -19.2494 N   0  0  0  0  0  0  0  0  0  0  0  0
  2  1  1  1
  2  3  1  0
  3  4  1  0
  4  5  1  1
  5  6  1  0
  6  7  2  0
  7  8  1  0
  8  9  1  0
  9 10  2  0
 10 11  1  0
 11 12  2  0
 12 13  1  0
 13 14  2  0
  4  2  1  0
 14  6  1  0
 12  8  1  0
M  END
>  <energy_score>  (4426) 
-15.028954

>  <alias>  (4426) 
AZHAUYDEYBTNNJ-UHFFFAOYSA-N-P52-P7-P52-601529

>  <HIPPO Pose ID>  (4426) 
84166

>  <smiles>  (4426) 
FC1CC1Nc1cn2cnnc2cn1

>  <inchikey>  (4426) 
AZHAUYDEYBTNNJ-UHFFFAOYSA-N

>  <distance_score>  (4426) 
1.648258

>  <ref_mols>  (4426) 
Z0875a,Z0089a

>  <ref_pdb>  (4426) 
Z0719a

>  <HIPPO Compound ID>  (4426) 
144604

>  <name>  (4426) 
AZHAUYDEYBTNNJ-UHFFFAOYSA-N-P52-P7-P52-601529

>  <inspiration_score>  (4426) 
None

$$$$
HHEPFJOROADMNZ-UHFFFAOYSA-N-P7-P7-P52-601529
     RDKit          3D

 14 15  0  0  0  0  0  0  0  0999 V2000
   -1.6546    3.5301  -19.5069 C   0  0  0  0  0  0  0  0  0  0  0  0
   -2.2612    4.5632  -19.5264 C   0  0  0  0  0  0  0  0  0  0  0  0
   -2.9922    5.7958  -19.6118 C   0  0  0  0  0  0  0  0  0  0  0  0
   -4.4209    5.6359  -19.8188 N   0  0  0  0  0  0  0  0  0  0  0  0
   -5.3343    5.2886  -18.8258 C   0  0  0  0  0  0  0  0  0  0  0  0
   -5.2116    5.6037  -17.4750 C   0  0  0  0  0  0  0  0  0  0  0  0
   -6.1976    5.4002  -16.5621 N   0  0  0  0  0  0  0  0  0  0  0  0
   -7.3317    4.8252  -17.0475 C   0  0  0  0  0  0  0  0  0  0  0  0
   -8.4677    4.5874  -16.0888 C   0  0  0  0  0  0  0  0  0  0  0  0
   -9.7062    4.4196  -16.7737 O   0  0  0  0  0  0  0  0  0  0  0  0
   -7.4340    4.4681  -18.3847 C   0  0  0  0  0  0  0  0  0  0  0  0
   -6.4452    4.6875  -19.2797 N   0  0  0  0  0  0  0  0  0  0  0  0
   -2.4308    7.0098  -18.9150 C   0  0  0  0  0  0  0  0  0  0  0  0
   -2.3024    6.8937  -20.4009 C   0  0  0  0  0  0  0  0  0  0  0  0
  1  2  3  0
  2  3  1  0
  3  4  1  0
  4  5  1  0
  5  6  2  0
  6  7  1  0
  7  8  2  0
  8  9  1  0
  9 10  1  0
  8 11  1  0
 11 12  2  0
  3 13  1  0
 13 14  1  0
 14  3  1  0
 12  5  1  0
M  END
>  <energy_score>  (4427) 
-24.142391

>  <alias>  (4427) 
HHEPFJOROADMNZ-UHFFFAOYSA-N-P7-P7-P52-601529

>  <HIPPO Pose ID>  (4427) 
84181

>  <smiles>  (4427) 
C#CC1(Nc2cnc(CO)cn2)CC1

>  <inchikey>  (4427) 
HHEPFJOROADMNZ-UHFFFAOYSA-N

>  <distance_score>  (4427) 
0.868611

>  <ref_mols>  (4427) 
Z0875a,Z0089a

>  <ref_pdb>  (4427) 
Z0719a

>  <HIPPO Compound ID>  (4427) 
144612

>  <name>  (4427) 
HHEPFJOROADMNZ-UHFFFAOYSA-N-P7-P7-P52-601529

>  <inspiration_score>  (4427) 
None

$$$$
GGOIBPVHIKLLFU-UHFFFAOYSA-N-P7-P7-P52-601529
     RDKit          3D

 14 15  0  0  0  0  0  0  0  0999 V2000
   -1.6193    3.4813  -19.5248 C   0  0  0  0  0  0  0  0  0  0  0  0
   -2.1867    4.5318  -19.6214 C   0  0  0  0  0  0  0  0  0  0  0  0
   -2.8855    5.7719  -19.7976 C   0  0  0  0  0  0  0  0  0  0  0  0
   -4.3233    5.6322  -19.9407 N   0  0  0  0  0  0  0  0  0  0  0  0
   -5.1926    5.3643  -18.8868 C   0  0  0  0  0  0  0  0  0  0  0  0
   -4.9623    5.7236  -17.5626 C   0  0  0  0  0  0  0  0  0  0  0  0
   -5.8931    5.6161  -16.5875 N   0  0  0  0  0  0  0  0  0  0  0  0
   -7.0779    5.0918  -16.9681 C   0  0  0  0  0  0  0  0  0  0  0  0
   -7.9951    5.0920  -15.9648 O   0  0  0  0  0  0  0  0  0  0  0  0
   -9.1376    4.2829  -16.1781 C   0  0  0  0  0  0  0  0  0  0  0  0
   -7.2991    4.6880  -18.2774 C   0  0  0  0  0  0  0  0  0  0  0  0
   -6.3614    4.8073  -19.2449 N   0  0  0  0  0  0  0  0  0  0  0  0
   -2.2769    7.0234  -19.2157 C   0  0  0  0  0  0  0  0  0  0  0  0
   -2.1932    6.7834  -20.6906 C   0  0  0  0  0  0  0  0  0  0  0  0
  1  2  3  0
  2  3  1  0
  3  4  1  0
  4  5  1  0
  5  6  2  0
  6  7  1  0
  7  8  2  0
  8  9  1  0
  9 10  1  0
  8 11  1  0
 11 12  2  0
  3 13  1  0
 13 14  1  0
 14  3  1  0
 12  5  1  0
M  END
>  <energy_score>  (4428) 
-23.1729

>  <alias>  (4428) 
GGOIBPVHIKLLFU-UHFFFAOYSA-N-P7-P7-P52-601529

>  <HIPPO Pose ID>  (4428) 
84183

>  <smiles>  (4428) 
C#CC1(Nc2cnc(OC)cn2)CC1

>  <inchikey>  (4428) 
GGOIBPVHIKLLFU-UHFFFAOYSA-N

>  <distance_score>  (4428) 
0.777305

>  <ref_mols>  (4428) 
Z0875a,Z0089a

>  <ref_pdb>  (4428) 
Z0719a

>  <HIPPO Compound ID>  (4428) 
144613

>  <name>  (4428) 
GGOIBPVHIKLLFU-UHFFFAOYSA-N-P7-P7-P52-601529

>  <inspiration_score>  (4428) 
None

$$$$
BHHXUPBNOOPJNJ-UHFFFAOYSA-N-P7-P7-P52-601529
     RDKit          3D

 14 15  0  0  0  0  0  0  0  0999 V2000
   -1.6578    3.5664  -19.5332 C   0  0  0  0  0  0  0  0  0  0  0  0
   -2.3087    4.5712  -19.5839 C   0  0  0  0  0  0  0  0  0  0  0  0
   -3.0998    5.7641  -19.7001 C   0  0  0  0  0  0  0  0  0  0  0  0
   -4.5295    5.5338  -19.7970 N   0  0  0  0  0  0  0  0  0  0  0  0
   -5.3771    5.2406  -18.7303 C   0  0  0  0  0  0  0  0  0  0  0  0
   -5.0690    5.4792  -17.3925 C   0  0  0  0  0  0  0  0  0  0  0  0
   -5.9457    5.2911  -16.3790 N   0  0  0  0  0  0  0  0  0  0  0  0
   -7.1576    4.8194  -16.7645 C   0  0  0  0  0  0  0  0  0  0  0  0
   -7.4908    4.5630  -18.0885 C   0  0  0  0  0  0  0  0  0  0  0  0
   -8.7002    4.1208  -18.5396 O   0  0  0  0  0  0  0  0  0  0  0  0
   -9.7262    3.9851  -17.5731 C   0  0  0  0  0  0  0  0  0  0  0  0
   -6.5896    4.7642  -19.0727 N   0  0  0  0  0  0  0  0  0  0  0  0
   -2.5543    7.0371  -19.1007 C   0  0  0  0  0  0  0  0  0  0  0  0
   -2.5109    6.8470  -20.5842 C   0  0  0  0  0  0  0  0  0  0  0  0
  1  2  3  0
  2  3  1  0
  3  4  1  0
  4  5  1  0
  5  6  2  0
  6  7  1  0
  7  8  2  0
  8  9  1  0
  9 10  1  0
 10 11  1  0
  9 12  2  0
  3 13  1  0
 13 14  1  0
 14  3  1  0
 12  5  1  0
M  END
>  <energy_score>  (4429) 
-16.901321

>  <alias>  (4429) 
BHHXUPBNOOPJNJ-UHFFFAOYSA-N-P7-P7-P52-601529

>  <HIPPO Pose ID>  (4429) 
84185

>  <smiles>  (4429) 
C#CC1(Nc2cncc(OC)n2)CC1

>  <inchikey>  (4429) 
BHHXUPBNOOPJNJ-UHFFFAOYSA-N

>  <distance_score>  (4429) 
0.704599

>  <ref_mols>  (4429) 
Z0875a,Z0089a

>  <ref_pdb>  (4429) 
Z0719a

>  <HIPPO Compound ID>  (4429) 
144614

>  <name>  (4429) 
BHHXUPBNOOPJNJ-UHFFFAOYSA-N-P7-P7-P52-601529

>  <inspiration_score>  (4429) 
None

$$$$
GSTBGTOMXFCABX-UHFFFAOYSA-N-P7-P7-P52-601529
     RDKit          3D

 14 15  0  0  0  0  0  0  0  0999 V2000
   -1.6153    3.4871  -19.4961 C   0  0  0  0  0  0  0  0  0  0  0  0
   -2.0679    4.5951  -19.4458 C   0  0  0  0  0  0  0  0  0  0  0  0
   -2.6117    5.9232  -19.4239 C   0  0  0  0  0  0  0  0  0  0  0  0
   -4.0352    5.9909  -19.7413 N   0  0  0  0  0  0  0  0  0  0  0  0
   -4.9931    5.5583  -18.8241 C   0  0  0  0  0  0  0  0  0  0  0  0
   -5.0037    5.8808  -17.4718 C   0  0  0  0  0  0  0  0  0  0  0  0
   -6.0228    5.5612  -16.6396 N   0  0  0  0  0  0  0  0  0  0  0  0
   -7.0472    4.8670  -17.2032 C   0  0  0  0  0  0  0  0  0  0  0  0
   -8.1600    4.4841  -16.2840 C   0  0  0  0  0  0  0  0  0  0  0  0
   -9.8109    4.1228  -17.2242 Br  0  0  0  0  0  0  0  0  0  0  0  0
   -7.0029    4.5084  -18.5460 C   0  0  0  0  0  0  0  0  0  0  0  0
   -5.9895    4.8490  -19.3648 N   0  0  0  0  0  0  0  0  0  0  0  0
   -1.7201    6.9961  -20.0099 C   0  0  0  0  0  0  0  0  0  0  0  0
   -1.9537    6.9518  -18.5344 C   0  0  0  0  0  0  0  0  0  0  0  0
  1  2  3  0
  2  3  1  0
  3  4  1  0
  4  5  1  0
  5  6  2  0
  6  7  1  0
  7  8  2  0
  8  9  1  0
  9 10  1  0
  8 11  1  0
 11 12  2  0
  3 13  1  0
 13 14  1  0
 14  3  1  0
 12  5  1  0
M  END
>  <energy_score>  (4430) 
-10.09929

>  <alias>  (4430) 
GSTBGTOMXFCABX-UHFFFAOYSA-N-P7-P7-P52-601529

>  <HIPPO Pose ID>  (4430) 
84189

>  <smiles>  (4430) 
C#CC1(Nc2cnc(CBr)cn2)CC1

>  <inchikey>  (4430) 
GSTBGTOMXFCABX-UHFFFAOYSA-N

>  <distance_score>  (4430) 
0.913973

>  <ref_mols>  (4430) 
Z0875a,Z0089a

>  <ref_pdb>  (4430) 
Z0719a

>  <HIPPO Compound ID>  (4430) 
144616

>  <name>  (4430) 
GSTBGTOMXFCABX-UHFFFAOYSA-N-P7-P7-P52-601529

>  <inspiration_score>  (4430) 
None

$$$$
SWQKQGJNYSHNME-UHFFFAOYSA-N-P7-P7-P52-601529
     RDKit          3D

 14 16  0  0  0  0  0  0  0  0999 V2000
   -4.2742    6.3789  -20.3884 N   0  0  0  0  0  0  0  0  0  0  0  0
   -4.1897    5.8217  -19.0927 N   0  0  0  0  0  0  0  0  0  0  0  0
   -5.3740    5.2460  -18.6055 C   0  0  0  0  0  0  0  0  0  0  0  0
   -5.6846    5.3555  -17.2916 C   0  0  0  0  0  0  0  0  0  0  0  0
   -6.9274    4.9507  -16.8519 N   0  0  0  0  0  0  0  0  0  0  0  0
   -7.5053    5.0141  -15.6304 N   0  0  0  0  0  0  0  0  0  0  0  0
   -8.6942    4.4460  -15.8511 C   0  0  0  0  0  0  0  0  0  0  0  0
   -8.9541    4.1009  -17.1398 N   0  0  0  0  0  0  0  0  0  0  0  0
   -7.8338    4.4327  -17.7316 C   0  0  0  0  0  0  0  0  0  0  0  0
   -7.4553    4.3056  -19.0939 C   0  0  0  0  0  0  0  0  0  0  0  0
   -6.2761    4.6709  -19.5036 N   0  0  0  0  0  0  0  0  0  0  0  0
   -2.8922    5.3401  -18.5702 C   0  0  0  0  0  0  0  0  0  0  0  0
   -1.8674    4.6479  -19.4292 C   0  0  0  0  0  0  0  0  0  0  0  0
   -1.5974    6.0317  -18.9069 C   0  0  0  0  0  0  0  0  0  0  0  0
  1  2  1  0
  2  3  1  0
  3  4  2  0
  4  5  1  0
  5  6  1  0
  6  7  2  0
  7  8  1  0
  8  9  2  0
  9 10  1  0
 10 11  2  0
  2 12  1  0
 12 13  1  0
 13 14  1  0
 11  3  1  0
 14 12  1  0
  9  5  1  0
M  END
>  <energy_score>  (4431) 
-18.840364

>  <alias>  (4431) 
SWQKQGJNYSHNME-UHFFFAOYSA-N-P7-P7-P52-601529

>  <HIPPO Pose ID>  (4431) 
84191

>  <smiles>  (4431) 
NN(c1cn2ncnc2cn1)C1CC1

>  <inchikey>  (4431) 
SWQKQGJNYSHNME-UHFFFAOYSA-N

>  <distance_score>  (4431) 
1.235123

>  <ref_mols>  (4431) 
Z0875a,Z0089a

>  <ref_pdb>  (4431) 
Z0719a

>  <HIPPO Compound ID>  (4431) 
144617

>  <name>  (4431) 
SWQKQGJNYSHNME-UHFFFAOYSA-N-P7-P7-P52-601529

>  <inspiration_score>  (4431) 
None

$$$$
TZOTUGRFOACCPX-UHFFFAOYSA-N-P7-P7-P52-601529
     RDKit          3D

 14 14  0  0  0  0  0  0  0  0999 V2000
   -2.1021    4.2874  -19.3879 C   0  0  0  0  0  0  0  0  0  0  0  0
   -2.4665    5.7722  -19.4856 C   0  0  0  0  0  0  0  0  0  0  0  0
   -1.9113    6.5375  -18.2873 C   0  0  0  0  0  0  0  0  0  0  0  0
   -1.7976    6.3685  -20.7624 C   0  0  0  0  0  0  0  0  0  0  0  0
   -2.5411    6.0040  -21.9350 O   0  0  0  0  0  0  0  0  0  0  0  0
   -3.9193    5.9554  -19.6688 N   0  0  0  0  0  0  0  0  0  0  0  0
   -4.8656    5.5761  -18.7438 C   0  0  0  0  0  0  0  0  0  0  0  0
   -4.9862    6.0427  -17.4414 C   0  0  0  0  0  0  0  0  0  0  0  0
   -6.0231    5.7306  -16.6260 N   0  0  0  0  0  0  0  0  0  0  0  0
   -6.9758    4.9254  -17.1651 C   0  0  0  0  0  0  0  0  0  0  0  0
   -8.0934    4.5250  -16.2579 C   0  0  0  0  0  0  0  0  0  0  0  0
   -9.7269    4.1295  -17.2157 Br  0  0  0  0  0  0  0  0  0  0  0  0
   -6.8467    4.4614  -18.4677 C   0  0  0  0  0  0  0  0  0  0  0  0
   -5.7985    4.7687  -19.2599 N   0  0  0  0  0  0  0  0  0  0  0  0
  1  2  1  0
  2  3  1  0
  2  4  1  0
  4  5  1  0
  2  6  1  0
  6  7  1  0
  7  8  2  0
  8  9  1  0
  9 10  2  0
 10 11  1  0
 11 12  1  0
 10 13  1  0
 13 14  2  0
 14  7  1  0
M  END
>  <energy_score>  (4432) 
-37.450918

>  <alias>  (4432) 
TZOTUGRFOACCPX-UHFFFAOYSA-N-P7-P7-P52-601529

>  <HIPPO Pose ID>  (4432) 
84193

>  <smiles>  (4432) 
CC(C)(CO)Nc1cnc(CBr)cn1

>  <inchikey>  (4432) 
TZOTUGRFOACCPX-UHFFFAOYSA-N

>  <distance_score>  (4432) 
0.92925

>  <ref_mols>  (4432) 
Z0875a,Z0089a

>  <ref_pdb>  (4432) 
Z0719a

>  <HIPPO Compound ID>  (4432) 
144618

>  <name>  (4432) 
TZOTUGRFOACCPX-UHFFFAOYSA-N-P7-P7-P52-601529

>  <inspiration_score>  (4432) 
None

$$$$
HFNQKQGPMUCBCN-UHFFFAOYSA-N-P52-P7-P52-601529
     RDKit          3D

 14 14  0  0  0  0  0  0  0  0999 V2000
   -1.8512    4.7096  -19.3740 C   0  0  0  0  0  0  0  0  0  0  0  0
   -2.7284    5.6070  -18.4682 C   0  0  0  0  0  0  0  0  0  0  0  0
   -2.5560    7.0596  -18.9178 C   0  0  0  0  0  0  0  0  0  0  0  0
   -2.2307    5.4285  -17.0176 C   0  0  0  0  0  0  0  0  0  0  0  0
   -2.7949    4.2869  -16.3881 O   0  0  0  0  0  0  0  0  0  0  0  0
   -4.1097    5.1919  -18.7000 N   0  0  0  0  0  0  0  0  0  0  0  0
   -5.3341    5.1931  -18.1262 C   0  0  0  0  0  0  0  0  0  0  0  0
   -6.2069    4.6810  -19.0308 N   0  0  0  0  0  0  0  0  0  0  0  0
   -7.4935    4.5009  -18.6580 C   0  0  0  0  0  0  0  0  0  0  0  0
   -7.9359    4.8268  -17.4004 C   0  0  0  0  0  0  0  0  0  0  0  0
   -7.1201    5.3801  -16.4854 N   0  0  0  0  0  0  0  0  0  0  0  0
   -5.8140    5.5392  -16.8544 C   0  0  0  0  0  0  0  0  0  0  0  0
   -5.0266    6.2210  -15.8055 C   0  0  0  0  0  0  0  0  0  0  0  0
   -5.1807    6.0537  -14.5994 O   0  0  0  0  0  0  0  0  0  0  0  0
  1  2  1  0
  2  3  1  0
  2  4  1  0
  4  5  1  0
  2  6  1  0
  6  7  1  0
  7  8  2  0
  8  9  1  0
  9 10  2  0
 10 11  1  0
 11 12  2  0
 12 13  1  0
 13 14  2  0
 12  7  1  0
M  END
>  <energy_score>  (4433) 
-9.653977

>  <alias>  (4433) 
HFNQKQGPMUCBCN-UHFFFAOYSA-N-P52-P7-P52-601529

>  <HIPPO Pose ID>  (4433) 
84196

>  <smiles>  (4433) 
CC(C)(CO)Nc1nccnc1C=O

>  <inchikey>  (4433) 
HFNQKQGPMUCBCN-UHFFFAOYSA-N

>  <distance_score>  (4433) 
1.005106

>  <ref_mols>  (4433) 
Z0875a,Z0089a

>  <ref_pdb>  (4433) 
Z0719a

>  <HIPPO Compound ID>  (4433) 
144619

>  <name>  (4433) 
HFNQKQGPMUCBCN-UHFFFAOYSA-N-P52-P7-P52-601529

>  <inspiration_score>  (4433) 
None

$$$$
DIUNMEACSKWFOA-UHFFFAOYSA-N-P52-P7-P52-601529
     RDKit          3D

 14 16  0  0  0  0  0  0  0  0999 V2000
   -5.2951    6.0109  -20.1748 N   0  0  0  0  0  0  0  0  0  0  0  0
   -4.7001    5.1875  -19.1871 N   0  0  0  0  0  0  0  0  0  0  0  0
   -5.4215    4.9925  -17.9946 C   0  0  0  0  0  0  0  0  0  0  0  0
   -4.8976    5.0661  -16.7441 C   0  0  0  0  0  0  0  0  0  0  0  0
   -5.5829    4.8626  -15.5618 N   0  0  0  0  0  0  0  0  0  0  0  0
   -6.8556    4.5930  -15.6416 C   0  0  0  0  0  0  0  0  0  0  0  0
   -7.5250    4.5156  -16.8932 C   0  0  0  0  0  0  0  0  0  0  0  0
   -8.8007    4.3197  -17.1203 N   0  0  0  0  0  0  0  0  0  0  0  0
   -8.8360    4.3373  -18.4739 C   0  0  0  0  0  0  0  0  0  0  0  0
   -7.6575    4.4756  -19.0810 N   0  0  0  0  0  0  0  0  0  0  0  0
   -6.8016    4.6749  -18.0503 N   0  0  0  0  0  0  0  0  0  0  0  0
   -3.2150    5.1571  -19.1083 C   0  0  0  0  0  0  0  0  0  0  0  0
   -2.2907    5.7254  -20.1480 C   0  0  0  0  0  0  0  0  0  0  0  0
   -2.4100    6.3950  -18.8107 C   0  0  0  0  0  0  0  0  0  0  0  0
  1  2  1  0
  2  3  1  0
  3  4  2  0
  4  5  1  0
  5  6  2  0
  6  7  1  0
  7  8  2  0
  8  9  1  0
  9 10  2  0
 10 11  1  0
  2 12  1  0
 12 13  1  0
 13 14  1  0
 11  3  1  0
 14 12  1  0
 11  7  1  0
M  END
>  <energy_score>  (4434) 
-30.673796

>  <alias>  (4434) 
DIUNMEACSKWFOA-UHFFFAOYSA-N-P52-P7-P52-601529

>  <HIPPO Pose ID>  (4434) 
84200

>  <smiles>  (4434) 
NN(c1cncc2ncnn12)C1CC1

>  <inchikey>  (4434) 
DIUNMEACSKWFOA-UHFFFAOYSA-N

>  <distance_score>  (4434) 
1.548689

>  <ref_mols>  (4434) 
Z0875a,Z0089a

>  <ref_pdb>  (4434) 
Z0719a

>  <HIPPO Compound ID>  (4434) 
144621

>  <name>  (4434) 
DIUNMEACSKWFOA-UHFFFAOYSA-N-P52-P7-P52-601529

>  <inspiration_score>  (4434) 
None

$$$$
IBBZHQITVWOJJK-UHFFFAOYSA-N-P7-P7-P52-601529
     RDKit          3D

 14 16  0  0  0  0  0  0  0  0999 V2000
   -3.6704    5.7528  -20.7664 N   0  0  0  0  0  0  0  0  0  0  0  0
   -3.5251    5.2186  -19.4607 N   0  0  0  0  0  0  0  0  0  0  0  0
   -4.7062    5.1640  -18.6714 C   0  0  0  0  0  0  0  0  0  0  0  0
   -4.6834    5.2084  -17.2757 C   0  0  0  0  0  0  0  0  0  0  0  0
   -5.7922    5.1883  -16.4963 N   0  0  0  0  0  0  0  0  0  0  0  0
   -6.9737    5.0644  -17.1459 C   0  0  0  0  0  0  0  0  0  0  0  0
   -8.2358    5.0338  -16.3440 C   0  0  0  0  0  0  0  0  0  0  0  0
   -8.5703    3.9232  -15.4084 C   0  0  0  0  0  0  0  0  0  0  0  0
   -9.2962    4.0257  -16.7189 C   0  0  0  0  0  0  0  0  0  0  0  0
   -6.9975    5.0212  -18.5396 C   0  0  0  0  0  0  0  0  0  0  0  0
   -5.8920    5.0904  -19.3141 N   0  0  0  0  0  0  0  0  0  0  0  0
   -2.1934    5.1809  -18.8542 C   0  0  0  0  0  0  0  0  0  0  0  0
   -0.9299    5.4144  -19.6293 C   0  0  0  0  0  0  0  0  0  0  0  0
   -1.3972    6.4358  -18.6300 C   0  0  0  0  0  0  0  0  0  0  0  0
  1  2  1  0
  2  3  1  0
  3  4  2  0
  4  5  1  0
  5  6  2  0
  6  7  1  0
  7  8  1  0
  8  9  1  0
  6 10  1  0
 10 11  2  0
  2 12  1  0
 12 13  1  0
 13 14  1  0
 11  3  1  0
 14 12  1  0
  9  7  1  0
M  END
>  <energy_score>  (4435) 
-23.156488

>  <alias>  (4435) 
IBBZHQITVWOJJK-UHFFFAOYSA-N-P7-P7-P52-601529

>  <HIPPO Pose ID>  (4435) 
84203

>  <smiles>  (4435) 
NN(c1cnc(C2CC2)cn1)C1CC1

>  <inchikey>  (4435) 
IBBZHQITVWOJJK-UHFFFAOYSA-N

>  <distance_score>  (4435) 
0.972783

>  <ref_mols>  (4435) 
Z0875a,Z0089a

>  <ref_pdb>  (4435) 
Z0719a

>  <HIPPO Compound ID>  (4435) 
144623

>  <name>  (4435) 
IBBZHQITVWOJJK-UHFFFAOYSA-N-P7-P7-P52-601529

>  <inspiration_score>  (4435) 
None

$$$$
CELLGMNZJVVNJI-UHFFFAOYSA-N-P7-P7-P52-601529
     RDKit          3D

 14 16  0  0  0  0  0  0  0  0999 V2000
   -4.1677    5.8501  -20.5114 N   0  0  0  0  0  0  0  0  0  0  0  0
   -4.0041    5.2914  -19.2293 N   0  0  0  0  0  0  0  0  0  0  0  0
   -5.1859    5.0841  -18.4500 C   0  0  0  0  0  0  0  0  0  0  0  0
   -5.1341    5.1806  -17.0437 C   0  0  0  0  0  0  0  0  0  0  0  0
   -6.1849    5.0222  -16.1917 N   0  0  0  0  0  0  0  0  0  0  0  0
   -7.2877    4.7047  -16.8954 C   0  0  0  0  0  0  0  0  0  0  0  0
   -8.5249    4.3980  -16.4130 N   0  0  0  0  0  0  0  0  0  0  0  0
   -9.3363    4.1634  -17.4912 C   0  0  0  0  0  0  0  0  0  0  0  0
   -8.6838    4.2654  -18.6293 N   0  0  0  0  0  0  0  0  0  0  0  0
   -7.4032    4.6015  -18.2771 C   0  0  0  0  0  0  0  0  0  0  0  0
   -6.3501    4.8230  -19.0991 N   0  0  0  0  0  0  0  0  0  0  0  0
   -2.6519    5.1429  -18.6773 C   0  0  0  0  0  0  0  0  0  0  0  0
   -1.4120    5.2256  -19.5262 C   0  0  0  0  0  0  0  0  0  0  0  0
   -1.7236    6.3174  -18.5413 C   0  0  0  0  0  0  0  0  0  0  0  0
  1  2  1  0
  2  3  1  0
  3  4  2  0
  4  5  1  0
  5  6  2  0
  6  7  1  0
  7  8  1  0
  8  9  2  0
  9 10  1  0
 10 11  2  0
  2 12  1  0
 12 13  1  0
 13 14  1  0
 11  3  1  0
 14 12  1  0
 10  6  1  0
M  END
>  <energy_score>  (4436) 
-35.220191

>  <alias>  (4436) 
CELLGMNZJVVNJI-UHFFFAOYSA-N-P7-P7-P52-601529

>  <HIPPO Pose ID>  (4436) 
84205

>  <smiles>  (4436) 
NN(c1cnc2[nH]cnc2n1)C1CC1

>  <inchikey>  (4436) 
CELLGMNZJVVNJI-UHFFFAOYSA-N

>  <distance_score>  (4436) 
0.849122

>  <ref_mols>  (4436) 
Z0875a,Z0089a

>  <ref_pdb>  (4436) 
Z0719a

>  <HIPPO Compound ID>  (4436) 
144624

>  <name>  (4436) 
CELLGMNZJVVNJI-UHFFFAOYSA-N-P7-P7-P52-601529

>  <inspiration_score>  (4436) 
None

$$$$
YPTCYGUKVLDMTP-UHFFFAOYSA-N-P7-P7-P52-601529
     RDKit          3D

 14 14  0  0  0  0  0  0  0  0999 V2000
   -8.7255    4.7621  -16.0050 C   0  0  0  0  0  0  0  0  0  0  0  0
   -7.5222    4.9928  -16.8591 C   0  0  0  0  0  0  0  0  0  0  0  0
   -6.4589    5.5454  -16.2364 N   0  0  0  0  0  0  0  0  0  0  0  0
   -5.3148    5.5923  -16.9550 C   0  0  0  0  0  0  0  0  0  0  0  0
   -5.1939    5.1333  -18.2590 C   0  0  0  0  0  0  0  0  0  0  0  0
   -4.0513    4.9828  -18.9891 N   0  0  0  0  0  0  0  0  0  0  0  0
   -2.6963    5.5301  -18.8872 C   0  0  0  0  0  0  0  0  0  0  0  0
   -1.7687    4.5049  -19.5724 C   0  0  0  0  0  0  0  0  0  0  0  0
   -2.6335    6.8594  -19.6420 C   0  0  0  0  0  0  0  0  0  0  0  0
   -2.1772    5.7413  -17.4467 C   0  0  0  0  0  0  0  0  0  0  0  0
   -2.4079    4.6105  -16.6122 O   0  0  0  0  0  0  0  0  0  0  0  0
   -6.2876    4.6667  -18.8914 N   0  0  0  0  0  0  0  0  0  0  0  0
   -7.4531    4.5917  -18.1910 C   0  0  0  0  0  0  0  0  0  0  0  0
   -8.6582    4.0828  -18.9216 C   0  0  0  0  0  0  0  0  0  0  0  0
  1  2  1  0
  2  3  2  0
  3  4  1  0
  4  5  2  0
  5  6  1  0
  6  7  1  0
  7  8  1  0
  7  9  1  0
  7 10  1  0
 10 11  1  0
  5 12  1  0
 12 13  2  0
 13 14  1  0
 13  2  1  0
M  END
>  <energy_score>  (4437) 
-28.56682

>  <alias>  (4437) 
YPTCYGUKVLDMTP-UHFFFAOYSA-N-P7-P7-P52-601529

>  <HIPPO Pose ID>  (4437) 
84207

>  <smiles>  (4437) 
Cc1ncc(NC(C)(C)CO)nc1C

>  <inchikey>  (4437) 
YPTCYGUKVLDMTP-UHFFFAOYSA-N

>  <distance_score>  (4437) 
0.792251

>  <ref_mols>  (4437) 
Z0875a,Z0089a

>  <ref_pdb>  (4437) 
Z0719a

>  <HIPPO Compound ID>  (4437) 
144625

>  <name>  (4437) 
YPTCYGUKVLDMTP-UHFFFAOYSA-N-P7-P7-P52-601529

>  <inspiration_score>  (4437) 
None

$$$$
VSKFWUNXJGTAJG-UHFFFAOYSA-N-P52-P7-P52-601529
     RDKit          3D

 14 16  0  0  0  0  0  0  0  0999 V2000
   -5.2812    6.1541  -20.2261 N   0  0  0  0  0  0  0  0  0  0  0  0
   -4.7917    5.2394  -19.2618 N   0  0  0  0  0  0  0  0  0  0  0  0
   -5.5351    5.0878  -18.0795 C   0  0  0  0  0  0  0  0  0  0  0  0
   -5.0603    5.2983  -16.8230 C   0  0  0  0  0  0  0  0  0  0  0  0
   -5.7726    5.1452  -15.6455 N   0  0  0  0  0  0  0  0  0  0  0  0
   -7.0174    4.7645  -15.7365 C   0  0  0  0  0  0  0  0  0  0  0  0
   -7.6211    4.5184  -16.9983 C   0  0  0  0  0  0  0  0  0  0  0  0
   -8.8434    4.1242  -17.2585 N   0  0  0  0  0  0  0  0  0  0  0  0
   -8.9099    3.9389  -18.6130 N   0  0  0  0  0  0  0  0  0  0  0  0
   -7.7255    4.2320  -19.1097 C   0  0  0  0  0  0  0  0  0  0  0  0
   -6.8741    4.6556  -18.1335 N   0  0  0  0  0  0  0  0  0  0  0  0
   -3.3088    5.0894  -19.1675 C   0  0  0  0  0  0  0  0  0  0  0  0
   -2.4017    6.1885  -18.6877 C   0  0  0  0  0  0  0  0  0  0  0  0
   -2.3342    5.7492  -20.1134 C   0  0  0  0  0  0  0  0  0  0  0  0
  1  2  1  0
  2  3  1  0
  3  4  2  0
  4  5  1  0
  5  6  2  0
  6  7  1  0
  7  8  2  0
  8  9  1  0
  9 10  2  0
 10 11  1  0
  2 12  1  0
 12 13  1  0
 13 14  1  0
 11  3  1  0
 14 12  1  0
 11  7  1  0
M  END
>  <energy_score>  (4438) 
-22.407995

>  <alias>  (4438) 
VSKFWUNXJGTAJG-UHFFFAOYSA-N-P52-P7-P52-601529

>  <HIPPO Pose ID>  (4438) 
84214

>  <smiles>  (4438) 
NN(c1cncc2nncn12)C1CC1

>  <inchikey>  (4438) 
VSKFWUNXJGTAJG-UHFFFAOYSA-N

>  <distance_score>  (4438) 
1.866722

>  <ref_mols>  (4438) 
Z0875a,Z0089a

>  <ref_pdb>  (4438) 
Z0719a

>  <HIPPO Compound ID>  (4438) 
144628

>  <name>  (4438) 
VSKFWUNXJGTAJG-UHFFFAOYSA-N-P52-P7-P52-601529

>  <inspiration_score>  (4438) 
None

$$$$
DGXNYTBVSVYJMD-UHFFFAOYSA-N-P52-P7-P52-601529
     RDKit          3D

 14 16  0  0  0  0  0  0  0  0999 V2000
   -5.3977    7.6250  -16.4130 N   0  0  0  0  0  0  0  0  0  0  0  0
   -5.9979    6.3653  -16.0200 N   0  0  0  0  0  0  0  0  0  0  0  0
   -6.1978    5.5774  -17.1586 C   0  0  0  0  0  0  0  0  0  0  0  0
   -5.1740    5.4746  -17.9898 N   0  0  0  0  0  0  0  0  0  0  0  0
   -5.3629    4.8422  -19.1877 C   0  0  0  0  0  0  0  0  0  0  0  0
   -6.5401    4.3509  -19.5822 C   0  0  0  0  0  0  0  0  0  0  0  0
   -7.6103    4.4328  -18.7284 N   0  0  0  0  0  0  0  0  0  0  0  0
   -8.9184    4.0846  -18.9045 C   0  0  0  0  0  0  0  0  0  0  0  0
   -9.5931    4.2858  -17.7236 C   0  0  0  0  0  0  0  0  0  0  0  0
   -8.6544    4.8052  -16.8021 C   0  0  0  0  0  0  0  0  0  0  0  0
   -7.4657    4.9673  -17.4811 C   0  0  0  0  0  0  0  0  0  0  0  0
   -5.1949    5.6423  -14.9990 C   0  0  0  0  0  0  0  0  0  0  0  0
   -5.1041    6.1679  -13.5934 C   0  0  0  0  0  0  0  0  0  0  0  0
   -5.8548    4.8996  -13.8718 C   0  0  0  0  0  0  0  0  0  0  0  0
  1  2  1  0
  2  3  1  0
  3  4  2  0
  4  5  1  0
  5  6  2  0
  6  7  1  0
  7  8  1  0
  8  9  2  0
  9 10  1  0
 10 11  2  0
  2 12  1  0
 12 13  1  0
 13 14  1  0
 11  3  1  0
 14 12  1  0
 11  7  1  0
M  END
>  <energy_score>  (4439) 
-22.060357

>  <alias>  (4439) 
DGXNYTBVSVYJMD-UHFFFAOYSA-N-P52-P7-P52-601529

>  <HIPPO Pose ID>  (4439) 
84216

>  <smiles>  (4439) 
NN(c1nccn2cccc12)C1CC1

>  <inchikey>  (4439) 
DGXNYTBVSVYJMD-UHFFFAOYSA-N

>  <distance_score>  (4439) 
1.812675

>  <ref_mols>  (4439) 
Z0875a,Z0089a

>  <ref_pdb>  (4439) 
Z0719a

>  <HIPPO Compound ID>  (4439) 
144629

>  <name>  (4439) 
DGXNYTBVSVYJMD-UHFFFAOYSA-N-P52-P7-P52-601529

>  <inspiration_score>  (4439) 
None

$$$$
LEJHKJMKPDQKGQ-UHFFFAOYSA-N-P7-P7-P52-601529
     RDKit          3D

 14 14  0  0  0  0  0  0  0  0999 V2000
   -8.7985    4.2828  -15.6048 C   0  0  0  0  0  0  0  0  0  0  0  0
   -7.8863    4.5079  -16.3470 C   0  0  0  0  0  0  0  0  0  0  0  0
   -6.7982    4.7979  -17.2053 C   0  0  0  0  0  0  0  0  0  0  0  0
   -6.8738    4.6536  -18.5745 C   0  0  0  0  0  0  0  0  0  0  0  0
   -5.8339    4.9705  -19.3786 N   0  0  0  0  0  0  0  0  0  0  0  0
   -4.7281    5.4629  -18.7915 C   0  0  0  0  0  0  0  0  0  0  0  0
   -3.7718    5.8868  -19.6804 N   0  0  0  0  0  0  0  0  0  0  0  0
   -2.3159    5.7386  -19.5499 C   0  0  0  0  0  0  0  0  0  0  0  0
   -1.9209    4.2615  -19.4775 C   0  0  0  0  0  0  0  0  0  0  0  0
   -1.7516    6.5118  -18.3553 C   0  0  0  0  0  0  0  0  0  0  0  0
   -1.6747    6.3913  -20.8158 C   0  0  0  0  0  0  0  0  0  0  0  0
   -2.1351    5.7916  -22.0303 O   0  0  0  0  0  0  0  0  0  0  0  0
   -4.6863    5.6047  -17.4065 C   0  0  0  0  0  0  0  0  0  0  0  0
   -5.7026    5.2713  -16.5810 N   0  0  0  0  0  0  0  0  0  0  0  0
  1  2  3  0
  2  3  1  0
  3  4  2  0
  4  5  1  0
  5  6  2  0
  6  7  1  0
  7  8  1  0
  8  9  1  0
  8 10  1  0
  8 11  1  0
 11 12  1  0
  6 13  1  0
 13 14  2  0
 14  3  1  0
M  END
>  <energy_score>  (4440) 
-34.446286

>  <alias>  (4440) 
LEJHKJMKPDQKGQ-UHFFFAOYSA-N-P7-P7-P52-601529

>  <HIPPO Pose ID>  (4440) 
84221

>  <smiles>  (4440) 
C#Cc1cnc(NC(C)(C)CO)cn1

>  <inchikey>  (4440) 
LEJHKJMKPDQKGQ-UHFFFAOYSA-N

>  <distance_score>  (4440) 
1.062862

>  <ref_mols>  (4440) 
Z0875a,Z0089a

>  <ref_pdb>  (4440) 
Z0719a

>  <HIPPO Compound ID>  (4440) 
144632

>  <name>  (4440) 
LEJHKJMKPDQKGQ-UHFFFAOYSA-N-P7-P7-P52-601529

>  <inspiration_score>  (4440) 
None

$$$$
JHSPRMKWXACYRB-UHFFFAOYSA-N-P7-P7-P52-601529
     RDKit          3D

 14 14  0  0  0  0  0  0  0  0999 V2000
   -9.7601    4.1966  -18.3848 C   0  0  0  0  0  0  0  0  0  0  0  0
   -8.5750    4.3493  -18.2730 C   0  0  0  0  0  0  0  0  0  0  0  0
   -7.2237    4.6115  -17.8995 C   0  0  0  0  0  0  0  0  0  0  0  0
   -6.9235    4.6859  -16.5495 C   0  0  0  0  0  0  0  0  0  0  0  0
   -5.6889    4.9726  -16.1000 N   0  0  0  0  0  0  0  0  0  0  0  0
   -4.7722    5.1523  -17.0810 C   0  0  0  0  0  0  0  0  0  0  0  0
   -5.0432    5.1165  -18.4551 C   0  0  0  0  0  0  0  0  0  0  0  0
   -4.1235    5.3646  -19.4477 N   0  0  0  0  0  0  0  0  0  0  0  0
   -2.7224    5.8024  -19.3561 C   0  0  0  0  0  0  0  0  0  0  0  0
   -1.8624    4.6568  -18.8157 C   0  0  0  0  0  0  0  0  0  0  0  0
   -2.5825    7.0793  -18.5115 C   0  0  0  0  0  0  0  0  0  0  0  0
   -2.1947    6.2108  -20.7679 C   0  0  0  0  0  0  0  0  0  0  0  0
   -1.8879    5.0966  -21.6020 O   0  0  0  0  0  0  0  0  0  0  0  0
   -6.3010    4.8373  -18.8690 N   0  0  0  0  0  0  0  0  0  0  0  0
  1  2  3  0
  2  3  1  0
  3  4  2  0
  4  5  1  0
  5  6  2  0
  6  7  1  0
  7  8  1  0
  8  9  1  0
  9 10  1  0
  9 11  1  0
  9 12  1  0
 12 13  1  0
  7 14  2  0
 14  3  1  0
M  END
>  <energy_score>  (4441) 
-17.533362

>  <alias>  (4441) 
JHSPRMKWXACYRB-UHFFFAOYSA-N-P7-P7-P52-601529

>  <HIPPO Pose ID>  (4441) 
84223

>  <smiles>  (4441) 
C#Cc1cncc(NC(C)(C)CO)n1

>  <inchikey>  (4441) 
JHSPRMKWXACYRB-UHFFFAOYSA-N

>  <distance_score>  (4441) 
1.091441

>  <ref_mols>  (4441) 
Z0875a,Z0089a

>  <ref_pdb>  (4441) 
Z0719a

>  <HIPPO Compound ID>  (4441) 
144633

>  <name>  (4441) 
JHSPRMKWXACYRB-UHFFFAOYSA-N-P7-P7-P52-601529

>  <inspiration_score>  (4441) 
None

$$$$
BXRYUWLDUXVZNO-UHFFFAOYSA-N-P7-P7-P52-601529
     RDKit          3D

 14 14  0  0  0  0  0  0  0  0999 V2000
   -4.7725    6.5400  -14.8245 C   0  0  0  0  0  0  0  0  0  0  0  0
   -4.3320    5.8074  -15.9595 O   0  0  0  0  0  0  0  0  0  0  0  0
   -5.3266    5.4634  -16.8443 C   0  0  0  0  0  0  0  0  0  0  0  0
   -6.5994    5.4808  -16.3701 N   0  0  0  0  0  0  0  0  0  0  0  0
   -7.5417    4.9983  -17.2088 C   0  0  0  0  0  0  0  0  0  0  0  0
   -7.2578    4.6133  -18.4995 C   0  0  0  0  0  0  0  0  0  0  0  0
   -6.0000    4.6317  -18.9834 N   0  0  0  0  0  0  0  0  0  0  0  0
   -5.0102    5.0218  -18.1443 C   0  0  0  0  0  0  0  0  0  0  0  0
   -3.7938    4.7935  -18.7289 N   0  0  0  0  0  0  0  0  0  0  0  0
   -2.5583    5.5811  -18.7568 C   0  0  0  0  0  0  0  0  0  0  0  0
   -1.5704    4.7356  -19.5968 C   0  0  0  0  0  0  0  0  0  0  0  0
   -2.8000    6.9083  -19.4832 C   0  0  0  0  0  0  0  0  0  0  0  0
   -1.9273    5.8467  -17.3715 C   0  0  0  0  0  0  0  0  0  0  0  0
   -0.5568    6.2493  -17.4617 O   0  0  0  0  0  0  0  0  0  0  0  0
  1  2  1  0
  2  3  1  0
  3  4  2  0
  4  5  1  0
  5  6  2  0
  6  7  1  0
  7  8  2  0
  8  9  1  0
  9 10  1  0
 10 11  1  0
 10 12  1  0
 10 13  1  0
 13 14  1  0
  8  3  1  0
M  END
>  <energy_score>  (4442) 
-17.046522

>  <alias>  (4442) 
BXRYUWLDUXVZNO-UHFFFAOYSA-N-P7-P7-P52-601529

>  <HIPPO Pose ID>  (4442) 
84227

>  <smiles>  (4442) 
COc1nccnc1NC(C)(C)CO

>  <inchikey>  (4442) 
BXRYUWLDUXVZNO-UHFFFAOYSA-N

>  <distance_score>  (4442) 
1.11633

>  <ref_mols>  (4442) 
Z0875a,Z0089a

>  <ref_pdb>  (4442) 
Z0719a

>  <HIPPO Compound ID>  (4442) 
144635

>  <name>  (4442) 
BXRYUWLDUXVZNO-UHFFFAOYSA-N-P7-P7-P52-601529

>  <inspiration_score>  (4442) 
None

$$$$
JFBNTZXMVIEFJJ-UHFFFAOYSA-N-P7-P7-P52-601529
     RDKit          3D

 14 14  0  0  0  0  0  0  0  0999 V2000
   -2.1634    4.2980  -19.3663 C   0  0  0  0  0  0  0  0  0  0  0  0
   -2.7107    5.7286  -19.3903 C   0  0  0  0  0  0  0  0  0  0  0  0
   -2.1993    6.5052  -18.1802 C   0  0  0  0  0  0  0  0  0  0  0  0
   -2.1594    6.4654  -20.6496 C   0  0  0  0  0  0  0  0  0  0  0  0
   -2.8170    6.0154  -21.8389 O   0  0  0  0  0  0  0  0  0  0  0  0
   -4.1767    5.7181  -19.5278 N   0  0  0  0  0  0  0  0  0  0  0  0
   -5.1314    5.3902  -18.5979 C   0  0  0  0  0  0  0  0  0  0  0  0
   -5.1922    5.8013  -17.2716 C   0  0  0  0  0  0  0  0  0  0  0  0
   -6.2459    5.5635  -16.4464 N   0  0  0  0  0  0  0  0  0  0  0  0
   -7.2847    4.8856  -17.0007 C   0  0  0  0  0  0  0  0  0  0  0  0
   -8.4680    4.5856  -16.1201 C   0  0  0  0  0  0  0  0  0  0  0  0
   -9.6762    4.4616  -16.8639 O   0  0  0  0  0  0  0  0  0  0  0  0
   -7.2312    4.4722  -18.3228 C   0  0  0  0  0  0  0  0  0  0  0  0
   -6.1613    4.7068  -19.1242 N   0  0  0  0  0  0  0  0  0  0  0  0
  1  2  1  0
  2  3  1  0
  2  4  1  0
  4  5  1  0
  2  6  1  0
  6  7  1  0
  7  8  2  0
  8  9  1  0
  9 10  2  0
 10 11  1  0
 11 12  1  0
 10 13  1  0
 13 14  2  0
 14  7  1  0
M  END
>  <energy_score>  (4443) 
-34.505469

>  <alias>  (4443) 
JFBNTZXMVIEFJJ-UHFFFAOYSA-N-P7-P7-P52-601529

>  <HIPPO Pose ID>  (4443) 
84231

>  <smiles>  (4443) 
CC(C)(CO)Nc1cnc(CO)cn1

>  <inchikey>  (4443) 
JFBNTZXMVIEFJJ-UHFFFAOYSA-N

>  <distance_score>  (4443) 
0.89776

>  <ref_mols>  (4443) 
Z0875a,Z0089a

>  <ref_pdb>  (4443) 
Z0719a

>  <HIPPO Compound ID>  (4443) 
144637

>  <name>  (4443) 
JFBNTZXMVIEFJJ-UHFFFAOYSA-N-P7-P7-P52-601529

>  <inspiration_score>  (4443) 
None

$$$$
ICLVCDCYKKXHOZ-UHFFFAOYSA-N-P52-P7-P52-601529
     RDKit          3D

 14 14  0  0  0  0  0  0  0  0999 V2000
   -6.8104    6.1887  -15.6083 C   0  0  0  0  0  0  0  0  0  0  0  0
   -6.5424    5.6586  -16.9083 N   0  0  0  0  0  0  0  0  0  0  0  0
   -7.5150    5.0020  -17.6191 C   0  0  0  0  0  0  0  0  0  0  0  0
   -7.2379    4.4814  -18.8157 C   0  0  0  0  0  0  0  0  0  0  0  0
   -6.0405    4.6149  -19.4601 N   0  0  0  0  0  0  0  0  0  0  0  0
   -5.0577    5.2116  -18.8292 C   0  0  0  0  0  0  0  0  0  0  0  0
   -3.9639    5.4762  -19.6241 N   0  0  0  0  0  0  0  0  0  0  0  0
   -2.5996    5.8837  -19.3335 C   0  0  0  0  0  0  0  0  0  0  0  0
   -1.9034    4.7959  -18.5324 C   0  0  0  0  0  0  0  0  0  0  0  0
   -2.5374    7.2556  -18.6598 C   0  0  0  0  0  0  0  0  0  0  0  0
   -1.8336    6.0645  -20.6821 C   0  0  0  0  0  0  0  0  0  0  0  0
   -1.7029    4.8398  -21.4037 O   0  0  0  0  0  0  0  0  0  0  0  0
   -5.2206    5.6244  -17.3293 C   0  0  0  0  0  0  0  0  0  0  0  0
   -4.2856    5.9084  -16.5928 O   0  0  0  0  0  0  0  0  0  0  0  0
  1  2  1  0
  2  3  1  0
  3  4  2  0
  4  5  1  0
  5  6  2  0
  6  7  1  0
  7  8  1  0
  8  9  1  0
  8 10  1  0
  8 11  1  0
 11 12  1  0
  6 13  1  0
 13 14  2  0
 13  2  1  0
M  END
>  <energy_score>  (4444) 
-28.307327

>  <alias>  (4444) 
ICLVCDCYKKXHOZ-UHFFFAOYSA-N-P52-P7-P52-601529

>  <HIPPO Pose ID>  (4444) 
84236

>  <smiles>  (4444) 
Cn1ccnc(NC(C)(C)CO)c1=O

>  <inchikey>  (4444) 
ICLVCDCYKKXHOZ-UHFFFAOYSA-N

>  <distance_score>  (4444) 
1.205037

>  <ref_mols>  (4444) 
Z0875a,Z0089a

>  <ref_pdb>  (4444) 
Z0719a

>  <HIPPO Compound ID>  (4444) 
144639

>  <name>  (4444) 
ICLVCDCYKKXHOZ-UHFFFAOYSA-N-P52-P7-P52-601529

>  <inspiration_score>  (4444) 
None

$$$$
LZKXGSNOOGDLFI-UHFFFAOYSA-N-P52-P7-P52-601529
     RDKit          3D

 14 14  0  0  0  0  0  0  0  0999 V2000
   -9.8712    4.3583  -18.1967 C   0  0  0  0  0  0  0  0  0  0  0  0
   -8.6803    4.4719  -18.1007 C   0  0  0  0  0  0  0  0  0  0  0  0
   -7.3072    4.6784  -17.7757 C   0  0  0  0  0  0  0  0  0  0  0  0
   -6.9247    4.6717  -16.4458 C   0  0  0  0  0  0  0  0  0  0  0  0
   -5.6582    4.9192  -16.0572 N   0  0  0  0  0  0  0  0  0  0  0  0
   -4.7974    5.1517  -17.0777 C   0  0  0  0  0  0  0  0  0  0  0  0
   -5.1585    5.2024  -18.4253 C   0  0  0  0  0  0  0  0  0  0  0  0
   -4.3337    5.5265  -19.4661 N   0  0  0  0  0  0  0  0  0  0  0  0
   -2.9295    5.9379  -19.5439 C   0  0  0  0  0  0  0  0  0  0  0  0
   -2.0445    4.6846  -19.4863 C   0  0  0  0  0  0  0  0  0  0  0  0
   -2.5198    6.9175  -18.4328 C   0  0  0  0  0  0  0  0  0  0  0  0
   -2.7787    6.7170  -20.8915 C   0  0  0  0  0  0  0  0  0  0  0  0
   -1.3588    6.8582  -21.4296 C   0  0  0  0  0  0  0  0  0  0  0  0
   -6.4402    4.9518  -18.7795 N   0  0  0  0  0  0  0  0  0  0  0  0
  1  2  3  0
  2  3  1  0
  3  4  2  0
  4  5  1  0
  5  6  2  0
  6  7  1  0
  7  8  1  0
  8  9  1  0
  9 10  1  0
  9 11  1  0
  9 12  1  0
 12 13  1  0
  7 14  2  0
 14  3  1  0
M  END
>  <energy_score>  (4445) 
-31.696904

>  <alias>  (4445) 
LZKXGSNOOGDLFI-UHFFFAOYSA-N-P52-P7-P52-601529

>  <HIPPO Pose ID>  (4445) 
84242

>  <smiles>  (4445) 
C#Cc1cncc(NC(C)(C)CC)n1

>  <inchikey>  (4445) 
LZKXGSNOOGDLFI-UHFFFAOYSA-N

>  <distance_score>  (4445) 
1.097369

>  <ref_mols>  (4445) 
Z0875a,Z0089a

>  <ref_pdb>  (4445) 
Z0719a

>  <HIPPO Compound ID>  (4445) 
144642

>  <name>  (4445) 
LZKXGSNOOGDLFI-UHFFFAOYSA-N-P52-P7-P52-601529

>  <inspiration_score>  (4445) 
None

$$$$
IYCNBRBTOADINB-UHFFFAOYSA-N-P7-P7-P52-601529
     RDKit          3D

 14 14  0  0  0  0  0  0  0  0999 V2000
   -4.2931    7.0239  -15.2285 C   0  0  0  0  0  0  0  0  0  0  0  0
   -4.9035    6.3975  -16.0549 C   0  0  0  0  0  0  0  0  0  0  0  0
   -5.6926    5.6442  -16.9902 C   0  0  0  0  0  0  0  0  0  0  0  0
   -6.9307    5.4258  -16.4663 N   0  0  0  0  0  0  0  0  0  0  0  0
   -7.8032    4.7760  -17.2615 C   0  0  0  0  0  0  0  0  0  0  0  0
   -7.4865    4.4122  -18.5480 C   0  0  0  0  0  0  0  0  0  0  0  0
   -6.2589    4.6216  -19.0650 N   0  0  0  0  0  0  0  0  0  0  0  0
   -5.3290    5.2258  -18.2848 C   0  0  0  0  0  0  0  0  0  0  0  0
   -4.1634    5.2907  -18.9756 N   0  0  0  0  0  0  0  0  0  0  0  0
   -2.8034    5.7265  -18.7145 C   0  0  0  0  0  0  0  0  0  0  0  0
   -1.9326    5.1652  -19.8669 C   0  0  0  0  0  0  0  0  0  0  0  0
   -2.7472    7.2542  -18.7900 C   0  0  0  0  0  0  0  0  0  0  0  0
   -2.2561    5.1288  -17.4087 C   0  0  0  0  0  0  0  0  0  0  0  0
   -0.9978    5.7947  -16.8606 C   0  0  0  0  0  0  0  0  0  0  0  0
  1  2  3  0
  2  3  1  0
  3  4  2  0
  4  5  1  0
  5  6  2  0
  6  7  1  0
  7  8  2  0
  8  9  1  0
  9 10  1  0
 10 11  1  0
 10 12  1  0
 10 13  1  0
 13 14  1  0
  8  3  1  0
M  END
>  <energy_score>  (4446) 
-16.025634

>  <alias>  (4446) 
IYCNBRBTOADINB-UHFFFAOYSA-N-P7-P7-P52-601529

>  <HIPPO Pose ID>  (4446) 
84243

>  <smiles>  (4446) 
C#Cc1nccnc1NC(C)(C)CC

>  <inchikey>  (4446) 
IYCNBRBTOADINB-UHFFFAOYSA-N

>  <distance_score>  (4446) 
0.958584

>  <ref_mols>  (4446) 
Z0875a,Z0089a

>  <ref_pdb>  (4446) 
Z0719a

>  <HIPPO Compound ID>  (4446) 
144643

>  <name>  (4446) 
IYCNBRBTOADINB-UHFFFAOYSA-N-P7-P7-P52-601529

>  <inspiration_score>  (4446) 
None

$$$$
KAWYFDMOVZBYHJ-UHFFFAOYSA-N-P52-P7-P52-601529
     RDKit          3D

 14 14  0  0  0  0  0  0  0  0999 V2000
   -0.2287    5.4745  -19.3187 C   0  0  0  0  0  0  0  0  0  0  0  0
   -1.6546    4.9514  -19.4451 C   0  0  0  0  0  0  0  0  0  0  0  0
   -2.7453    6.0427  -19.5641 C   0  0  0  0  0  0  0  0  0  0  0  0
   -2.6804    7.0511  -18.4100 C   0  0  0  0  0  0  0  0  0  0  0  0
   -2.5574    6.8783  -20.8524 C   0  0  0  0  0  0  0  0  0  0  0  0
   -4.0282    5.3482  -19.6825 N   0  0  0  0  0  0  0  0  0  0  0  0
   -5.0056    5.1326  -18.7522 C   0  0  0  0  0  0  0  0  0  0  0  0
   -4.8602    5.0640  -17.3680 C   0  0  0  0  0  0  0  0  0  0  0  0
   -5.8920    4.9106  -16.4996 N   0  0  0  0  0  0  0  0  0  0  0  0
   -7.0981    4.7382  -17.0922 C   0  0  0  0  0  0  0  0  0  0  0  0
   -8.2371    4.5207  -16.1974 C   0  0  0  0  0  0  0  0  0  0  0  0
   -9.3842    4.4452  -16.6182 O   0  0  0  0  0  0  0  0  0  0  0  0
   -7.2669    4.7540  -18.4610 C   0  0  0  0  0  0  0  0  0  0  0  0
   -6.2221    4.9565  -19.2993 N   0  0  0  0  0  0  0  0  0  0  0  0
  1  2  1  0
  2  3  1  0
  3  4  1  0
  3  5  1  0
  3  6  1  0
  6  7  1  0
  7  8  2  0
  8  9  1  0
  9 10  2  0
 10 11  1  0
 11 12  2  0
 10 13  1  0
 13 14  2  0
 14  7  1  0
M  END
>  <energy_score>  (4447) 
-28.341486

>  <alias>  (4447) 
KAWYFDMOVZBYHJ-UHFFFAOYSA-N-P52-P7-P52-601529

>  <HIPPO Pose ID>  (4447) 
84248

>  <smiles>  (4447) 
CCC(C)(C)Nc1cnc(C=O)cn1

>  <inchikey>  (4447) 
KAWYFDMOVZBYHJ-UHFFFAOYSA-N

>  <distance_score>  (4447) 
0.773651

>  <ref_mols>  (4447) 
Z0875a,Z0089a

>  <ref_pdb>  (4447) 
Z0719a

>  <HIPPO Compound ID>  (4447) 
144645

>  <name>  (4447) 
KAWYFDMOVZBYHJ-UHFFFAOYSA-N-P52-P7-P52-601529

>  <inspiration_score>  (4447) 
None

$$$$
FWLDIENZMDKKKK-UHFFFAOYSA-N-P7-P7-P52-601529
     RDKit          3D

 14 14  0  0  0  0  0  0  0  0999 V2000
   -1.2475    5.2699  -20.8289 C   0  0  0  0  0  0  0  0  0  0  0  0
   -1.2019    5.4003  -19.3211 C   0  0  0  0  0  0  0  0  0  0  0  0
   -2.4963    5.9031  -18.6297 C   0  0  0  0  0  0  0  0  0  0  0  0
   -2.9214    7.2708  -19.1830 C   0  0  0  0  0  0  0  0  0  0  0  0
   -2.1230    6.0812  -17.1453 C   0  0  0  0  0  0  0  0  0  0  0  0
   -3.5600    4.9117  -18.8806 N   0  0  0  0  0  0  0  0  0  0  0  0
   -4.7642    4.9477  -18.1892 C   0  0  0  0  0  0  0  0  0  0  0  0
   -4.8865    4.8122  -16.8095 C   0  0  0  0  0  0  0  0  0  0  0  0
   -6.0662    4.7942  -16.1520 N   0  0  0  0  0  0  0  0  0  0  0  0
   -7.1677    4.8147  -16.9341 C   0  0  0  0  0  0  0  0  0  0  0  0
   -8.4837    4.6365  -16.2340 C   0  0  0  0  0  0  0  0  0  0  0  0
   -9.4475    3.9851  -17.0501 O   0  0  0  0  0  0  0  0  0  0  0  0
   -7.0601    4.9565  -18.3137 C   0  0  0  0  0  0  0  0  0  0  0  0
   -5.8654    5.0338  -18.9554 N   0  0  0  0  0  0  0  0  0  0  0  0
  1  2  1  0
  2  3  1  0
  3  4  1  0
  3  5  1  0
  3  6  1  0
  6  7  1  0
  7  8  2  0
  8  9  1  0
  9 10  2  0
 10 11  1  0
 11 12  1  0
 10 13  1  0
 13 14  2  0
 14  7  1  0
M  END
>  <energy_score>  (4448) 
-30.008262

>  <alias>  (4448) 
FWLDIENZMDKKKK-UHFFFAOYSA-N-P7-P7-P52-601529

>  <HIPPO Pose ID>  (4448) 
84249

>  <smiles>  (4448) 
CCC(C)(C)Nc1cnc(CO)cn1

>  <inchikey>  (4448) 
FWLDIENZMDKKKK-UHFFFAOYSA-N

>  <distance_score>  (4448) 
1.044748

>  <ref_mols>  (4448) 
Z0875a,Z0089a

>  <ref_pdb>  (4448) 
Z0719a

>  <HIPPO Compound ID>  (4448) 
144646

>  <name>  (4448) 
FWLDIENZMDKKKK-UHFFFAOYSA-N-P7-P7-P52-601529

>  <inspiration_score>  (4448) 
None

$$$$
KCBHSUONZZNDLU-UHFFFAOYSA-N-P52-P7-P52-601529
     RDKit          3D

 14 14  0  0  0  0  0  0  0  0999 V2000
   -0.4966    5.9355  -20.2781 C   0  0  0  0  0  0  0  0  0  0  0  0
   -1.5538    5.0651  -19.6048 C   0  0  0  0  0  0  0  0  0  0  0  0
   -2.6434    5.8245  -18.7781 C   0  0  0  0  0  0  0  0  0  0  0  0
   -3.2627    6.9470  -19.6148 C   0  0  0  0  0  0  0  0  0  0  0  0
   -1.9964    6.4139  -17.5198 C   0  0  0  0  0  0  0  0  0  0  0  0
   -3.6451    4.7960  -18.4240 N   0  0  0  0  0  0  0  0  0  0  0  0
   -4.9621    5.0496  -18.0840 C   0  0  0  0  0  0  0  0  0  0  0  0
   -5.7961    4.5894  -19.0477 N   0  0  0  0  0  0  0  0  0  0  0  0
   -7.1218    4.6155  -18.7906 C   0  0  0  0  0  0  0  0  0  0  0  0
   -7.6228    5.1123  -17.6102 C   0  0  0  0  0  0  0  0  0  0  0  0
   -6.8273    5.6386  -16.6533 N   0  0  0  0  0  0  0  0  0  0  0  0
   -5.4835    5.5691  -16.8920 C   0  0  0  0  0  0  0  0  0  0  0  0
   -4.6927    6.0103  -15.7793 C   0  0  0  0  0  0  0  0  0  0  0  0
   -4.0757    6.4147  -14.8780 N   0  0  0  0  0  0  0  0  0  0  0  0
  1  2  1  0
  2  3  1  0
  3  4  1  0
  3  5  1  0
  3  6  1  0
  6  7  1  0
  7  8  2  0
  8  9  1  0
  9 10  2  0
 10 11  1  0
 11 12  2  0
 12 13  1  0
 13 14  3  0
 12  7  1  0
M  END
>  <energy_score>  (4449) 
-20.185654

>  <alias>  (4449) 
KCBHSUONZZNDLU-UHFFFAOYSA-N-P52-P7-P52-601529

>  <HIPPO Pose ID>  (4449) 
84252

>  <smiles>  (4449) 
CCC(C)(C)Nc1nccnc1C#N

>  <inchikey>  (4449) 
KCBHSUONZZNDLU-UHFFFAOYSA-N

>  <distance_score>  (4449) 
1.049519

>  <ref_mols>  (4449) 
Z0875a,Z0089a

>  <ref_pdb>  (4449) 
Z0719a

>  <HIPPO Compound ID>  (4449) 
144647

>  <name>  (4449) 
KCBHSUONZZNDLU-UHFFFAOYSA-N-P52-P7-P52-601529

>  <inspiration_score>  (4449) 
None

$$$$
CQPRGFIYFWXOHL-UHFFFAOYSA-N-P7-P7-P52-601529
     RDKit          3D

 14 14  0  0  0  0  0  0  0  0999 V2000
   -1.7776    3.6767  -19.4455 C   0  0  0  0  0  0  0  0  0  0  0  0
   -1.6963    5.0491  -18.8002 C   0  0  0  0  0  0  0  0  0  0  0  0
   -2.6386    6.0974  -19.4154 C   0  0  0  0  0  0  0  0  0  0  0  0
   -2.6645    7.3878  -18.5903 C   0  0  0  0  0  0  0  0  0  0  0  0
   -2.0749    6.5308  -20.7941 C   0  0  0  0  0  0  0  0  0  0  0  0
   -3.9653    5.5491  -19.6292 N   0  0  0  0  0  0  0  0  0  0  0  0
   -5.0173    5.2311  -18.8015 C   0  0  0  0  0  0  0  0  0  0  0  0
   -6.0360    4.7072  -19.4416 N   0  0  0  0  0  0  0  0  0  0  0  0
   -7.1986    4.4997  -18.7567 C   0  0  0  0  0  0  0  0  0  0  0  0
   -7.4075    4.8749  -17.4942 C   0  0  0  0  0  0  0  0  0  0  0  0
   -6.3998    5.4606  -16.7716 N   0  0  0  0  0  0  0  0  0  0  0  0
   -6.6004    5.8414  -15.4085 C   0  0  0  0  0  0  0  0  0  0  0  0
   -5.1039    5.5034  -17.2673 C   0  0  0  0  0  0  0  0  0  0  0  0
   -4.1347    5.7517  -16.5641 O   0  0  0  0  0  0  0  0  0  0  0  0
  1  2  1  0
  2  3  1  0
  3  4  1  0
  3  5  1  0
  3  6  1  0
  6  7  1  0
  7  8  2  0
  8  9  1  0
  9 10  2  0
 10 11  1  0
 11 12  1  0
 11 13  1  0
 13 14  2  0
 13  7  1  0
M  END
>  <energy_score>  (4450) 
-25.332194

>  <alias>  (4450) 
CQPRGFIYFWXOHL-UHFFFAOYSA-N-P7-P7-P52-601529

>  <HIPPO Pose ID>  (4450) 
84253

>  <smiles>  (4450) 
CCC(C)(C)Nc1nccn(C)c1=O

>  <inchikey>  (4450) 
CQPRGFIYFWXOHL-UHFFFAOYSA-N

>  <distance_score>  (4450) 
1.239852

>  <ref_mols>  (4450) 
Z0875a,Z0089a

>  <ref_pdb>  (4450) 
Z0719a

>  <HIPPO Compound ID>  (4450) 
144648

>  <name>  (4450) 
CQPRGFIYFWXOHL-UHFFFAOYSA-N-P7-P7-P52-601529

>  <inspiration_score>  (4450) 
None

$$$$
SGUYVYWZHPTFCP-UHFFFAOYSA-N-P7-P7-P52-601529
     RDKit          3D

 14 14  0  0  0  0  0  0  0  0999 V2000
   -0.1530    5.6528  -18.7128 C   0  0  0  0  0  0  0  0  0  0  0  0
   -1.5340    5.0130  -18.8432 C   0  0  0  0  0  0  0  0  0  0  0  0
   -2.6086    5.9154  -19.4941 C   0  0  0  0  0  0  0  0  0  0  0  0
   -2.8296    7.2272  -18.7271 C   0  0  0  0  0  0  0  0  0  0  0  0
   -2.1286    6.3218  -20.9065 C   0  0  0  0  0  0  0  0  0  0  0  0
   -3.8408    5.1225  -19.6427 N   0  0  0  0  0  0  0  0  0  0  0  0
   -4.8708    5.0607  -18.7261 C   0  0  0  0  0  0  0  0  0  0  0  0
   -4.7632    5.1223  -17.3401 C   0  0  0  0  0  0  0  0  0  0  0  0
   -5.8246    5.1452  -16.4977 N   0  0  0  0  0  0  0  0  0  0  0  0
   -7.0317    5.0100  -17.0816 C   0  0  0  0  0  0  0  0  0  0  0  0
   -8.0734    5.0893  -16.2070 O   0  0  0  0  0  0  0  0  0  0  0  0
   -9.1638    4.2376  -16.5263 C   0  0  0  0  0  0  0  0  0  0  0  0
   -7.1546    4.8915  -18.4568 C   0  0  0  0  0  0  0  0  0  0  0  0
   -6.0824    4.9172  -19.2882 N   0  0  0  0  0  0  0  0  0  0  0  0
  1  2  1  0
  2  3  1  0
  3  4  1  0
  3  5  1  0
  3  6  1  0
  6  7  1  0
  7  8  2  0
  8  9  1  0
  9 10  2  0
 10 11  1  0
 11 12  1  0
 10 13  1  0
 13 14  2  0
 14  7  1  0
M  END
>  <energy_score>  (4451) 
-33.62029

>  <alias>  (4451) 
SGUYVYWZHPTFCP-UHFFFAOYSA-N-P7-P7-P52-601529

>  <HIPPO Pose ID>  (4451) 
84255

>  <smiles>  (4451) 
CCC(C)(C)Nc1cnc(OC)cn1

>  <inchikey>  (4451) 
SGUYVYWZHPTFCP-UHFFFAOYSA-N

>  <distance_score>  (4451) 
0.844137

>  <ref_mols>  (4451) 
Z0875a,Z0089a

>  <ref_pdb>  (4451) 
Z0719a

>  <HIPPO Compound ID>  (4451) 
144649

>  <name>  (4451) 
SGUYVYWZHPTFCP-UHFFFAOYSA-N-P7-P7-P52-601529

>  <inspiration_score>  (4451) 
None

$$$$
MDGWYXZQIWOJJH-UHFFFAOYSA-N-P7-P7-P52-601529
     RDKit          3D

 14 14  0  0  0  0  0  0  0  0999 V2000
   -9.6280    4.0341  -17.7055 C   0  0  0  0  0  0  0  0  0  0  0  0
   -8.5513    4.3299  -18.5789 O   0  0  0  0  0  0  0  0  0  0  0  0
   -7.3493    4.5988  -17.9880 C   0  0  0  0  0  0  0  0  0  0  0  0
   -7.1298    4.6951  -16.6199 C   0  0  0  0  0  0  0  0  0  0  0  0
   -5.9211    4.9687  -16.0797 N   0  0  0  0  0  0  0  0  0  0  0  0
   -4.9282    5.1145  -16.9824 C   0  0  0  0  0  0  0  0  0  0  0  0
   -5.1097    5.0286  -18.3624 C   0  0  0  0  0  0  0  0  0  0  0  0
   -4.1193    5.1728  -19.2988 N   0  0  0  0  0  0  0  0  0  0  0  0
   -2.7370    5.5057  -19.0476 C   0  0  1  0  0  0  0  0  0  0  0  0
   -1.8638    4.3545  -19.5486 C   0  0  0  0  0  0  0  0  0  0  0  0
   -2.3542    6.8199  -19.7421 C   0  0  0  0  0  0  0  0  0  0  0  0
   -2.8918    8.0751  -19.0551 C   0  0  0  0  0  0  0  0  0  0  0  0
   -4.5868    8.4335  -19.4562 Cl  0  0  0  0  0  0  0  0  0  0  0  0
   -6.3342    4.7755  -18.8634 N   0  0  0  0  0  0  0  0  0  0  0  0
  1  2  1  0
  2  3  1  0
  3  4  2  0
  4  5  1  0
  5  6  2  0
  6  7  1  0
  7  8  1  0
  8  9  1  0
  9 10  1  6
  9 11  1  0
 11 12  1  0
 12 13  1  0
  7 14  2  0
 14  3  1  0
M  END
>  <energy_score>  (4452) 
-28.00265

>  <alias>  (4452) 
MDGWYXZQIWOJJH-UHFFFAOYSA-N-P7-P7-P52-601529

>  <HIPPO Pose ID>  (4452) 
84257

>  <smiles>  (4452) 
COc1cncc(NC(C)CCCl)n1

>  <inchikey>  (4452) 
MDGWYXZQIWOJJH-UHFFFAOYSA-N

>  <distance_score>  (4452) 
0.750024

>  <ref_mols>  (4452) 
Z0875a,Z0089a

>  <ref_pdb>  (4452) 
Z0719a

>  <HIPPO Compound ID>  (4452) 
144650

>  <name>  (4452) 
MDGWYXZQIWOJJH-UHFFFAOYSA-N-P7-P7-P52-601529

>  <inspiration_score>  (4452) 
None

$$$$
OEXLRFYPOCTLQF-UHFFFAOYSA-N-P7-P7-P52-601529
     RDKit          3D

 14 14  0  0  0  0  0  0  0  0999 V2000
   -4.9375    5.6693  -14.6472 C   0  0  0  0  0  0  0  0  0  0  0  0
   -4.5980    5.8297  -16.0275 O   0  0  0  0  0  0  0  0  0  0  0  0
   -5.5643    5.3362  -16.8859 C   0  0  0  0  0  0  0  0  0  0  0  0
   -6.7775    5.0591  -16.3414 N   0  0  0  0  0  0  0  0  0  0  0  0
   -7.7215    4.6163  -17.1985 C   0  0  0  0  0  0  0  0  0  0  0  0
   -7.4843    4.4712  -18.5472 C   0  0  0  0  0  0  0  0  0  0  0  0
   -6.2840    4.7483  -19.0941 N   0  0  0  0  0  0  0  0  0  0  0  0
   -5.3110    5.1982  -18.2703 C   0  0  0  0  0  0  0  0  0  0  0  0
   -4.1898    5.5314  -18.9859 N   0  0  0  0  0  0  0  0  0  0  0  0
   -2.8262    5.5084  -18.5180 C   0  0  1  0  0  0  0  0  0  0  0  0
   -2.0741    4.3836  -19.2372 C   0  0  0  0  0  0  0  0  0  0  0  0
   -2.1555    6.8569  -18.8359 C   0  0  0  0  0  0  0  0  0  0  0  0
   -2.6490    8.0222  -17.9788 C   0  0  0  0  0  0  0  0  0  0  0  0
   -4.1578    8.7542  -18.5776 Cl  0  0  0  0  0  0  0  0  0  0  0  0
  1  2  1  0
  2  3  1  0
  3  4  2  0
  4  5  1  0
  5  6  2  0
  6  7  1  0
  7  8  2  0
  8  9  1  0
  9 10  1  0
 10 11  1  6
 10 12  1  0
 12 13  1  0
 13 14  1  0
  8  3  1  0
M  END
>  <energy_score>  (4453) 
-27.604449

>  <alias>  (4453) 
OEXLRFYPOCTLQF-UHFFFAOYSA-N-P7-P7-P52-601529

>  <HIPPO Pose ID>  (4453) 
84275

>  <smiles>  (4453) 
COc1nccnc1NC(C)CCCl

>  <inchikey>  (4453) 
OEXLRFYPOCTLQF-UHFFFAOYSA-N

>  <distance_score>  (4453) 
0.896186

>  <ref_mols>  (4453) 
Z0875a,Z0089a

>  <ref_pdb>  (4453) 
Z0719a

>  <HIPPO Compound ID>  (4453) 
144659

>  <name>  (4453) 
OEXLRFYPOCTLQF-UHFFFAOYSA-N-P7-P7-P52-601529

>  <inspiration_score>  (4453) 
None

$$$$
UKJFYNLNXFALFL-UHFFFAOYSA-N-P52-P7-P52-601529
     RDKit          3D

 14 14  0  0  0  0  0  0  0  0999 V2000
   -1.9860    4.6879  -18.7811 C   0  0  0  0  0  0  0  0  0  0  0  0
   -2.8256    5.6450  -19.6053 C   0  0  2  0  0  0  0  0  0  0  0  0
   -2.7511    7.1199  -19.1993 C   0  0  0  0  0  0  0  0  0  0  0  0
   -1.3518    7.7273  -19.2203 C   0  0  0  0  0  0  0  0  0  0  0  0
   -0.6551    7.7511  -20.8575 Cl  0  0  0  0  0  0  0  0  0  0  0  0
   -4.1815    5.1669  -19.7282 N   0  0  0  0  0  0  0  0  0  0  0  0
   -5.2270    5.0491  -18.8453 C   0  0  0  0  0  0  0  0  0  0  0  0
   -6.3041    4.5231  -19.3778 N   0  0  0  0  0  0  0  0  0  0  0  0
   -7.4448    4.4884  -18.6289 C   0  0  0  0  0  0  0  0  0  0  0  0
   -7.5745    5.0495  -17.4253 C   0  0  0  0  0  0  0  0  0  0  0  0
   -6.5034    5.6655  -16.8279 N   0  0  0  0  0  0  0  0  0  0  0  0
   -6.6270    6.2913  -15.5483 C   0  0  0  0  0  0  0  0  0  0  0  0
   -5.2296    5.5465  -17.3653 C   0  0  0  0  0  0  0  0  0  0  0  0
   -4.2163    5.8442  -16.7462 O   0  0  0  0  0  0  0  0  0  0  0  0
  2  1  1  1
  2  3  1  0
  3  4  1  0
  4  5  1  0
  2  6  1  0
  6  7  1  0
  7  8  2  0
  8  9  1  0
  9 10  2  0
 10 11  1  0
 11 12  1  0
 11 13  1  0
 13 14  2  0
 13  7  1  0
M  END
>  <energy_score>  (4454) 
-24.514935

>  <alias>  (4454) 
UKJFYNLNXFALFL-UHFFFAOYSA-N-P52-P7-P52-601529

>  <HIPPO Pose ID>  (4454) 
84282

>  <smiles>  (4454) 
CC(CCCl)Nc1nccn(C)c1=O

>  <inchikey>  (4454) 
UKJFYNLNXFALFL-UHFFFAOYSA-N

>  <distance_score>  (4454) 
1.14726

>  <ref_mols>  (4454) 
Z0875a,Z0089a

>  <ref_pdb>  (4454) 
Z0719a

>  <HIPPO Compound ID>  (4454) 
144662

>  <name>  (4454) 
UKJFYNLNXFALFL-UHFFFAOYSA-N-P52-P7-P52-601529

>  <inspiration_score>  (4454) 
None

$$$$
DQTSCQZJTIUNBN-UHFFFAOYSA-N-P7-P7-P52-601529
     RDKit          3D

 14 14  0  0  0  0  0  0  0  0999 V2000
   -9.2540    4.2190  -16.4454 C   0  0  0  0  0  0  0  0  0  0  0  0
   -8.2223    5.1427  -16.1497 O   0  0  0  0  0  0  0  0  0  0  0  0
   -7.1734    5.1381  -17.0135 C   0  0  0  0  0  0  0  0  0  0  0  0
   -7.1846    4.6581  -18.3167 C   0  0  0  0  0  0  0  0  0  0  0  0
   -6.0910    4.6886  -19.1160 N   0  0  0  0  0  0  0  0  0  0  0  0
   -4.9835    5.2372  -18.5949 C   0  0  0  0  0  0  0  0  0  0  0  0
   -3.9203    5.3035  -19.4617 N   0  0  0  0  0  0  0  0  0  0  0  0
   -2.5425    5.3155  -19.0155 C   0  0  1  0  0  0  0  0  0  0  0  0
   -1.7764    4.1335  -19.5954 C   0  0  0  0  0  0  0  0  0  0  0  0
   -1.9149    6.6851  -19.3282 C   0  0  0  0  0  0  0  0  0  0  0  0
   -2.2484    7.3176  -20.6787 C   0  0  0  0  0  0  0  0  0  0  0  0
   -1.5928    6.4200  -22.0631 Cl  0  0  0  0  0  0  0  0  0  0  0  0
   -4.9949    5.7482  -17.2995 C   0  0  0  0  0  0  0  0  0  0  0  0
   -6.0740    5.7177  -16.4896 N   0  0  0  0  0  0  0  0  0  0  0  0
  1  2  1  0
  2  3  1  0
  3  4  2  0
  4  5  1  0
  5  6  2  0
  6  7  1  0
  7  8  1  0
  8  9  1  6
  8 10  1  0
 10 11  1  0
 11 12  1  0
  6 13  1  0
 13 14  2  0
 14  3  1  0
M  END
>  <energy_score>  (4455) 
-26.798881

>  <alias>  (4455) 
DQTSCQZJTIUNBN-UHFFFAOYSA-N-P7-P7-P52-601529

>  <HIPPO Pose ID>  (4455) 
84283

>  <smiles>  (4455) 
COc1cnc(NC(C)CCCl)cn1

>  <inchikey>  (4455) 
DQTSCQZJTIUNBN-UHFFFAOYSA-N

>  <distance_score>  (4455) 
0.668938

>  <ref_mols>  (4455) 
Z0875a,Z0089a

>  <ref_pdb>  (4455) 
Z0719a

>  <HIPPO Compound ID>  (4455) 
144663

>  <name>  (4455) 
DQTSCQZJTIUNBN-UHFFFAOYSA-N-P7-P7-P52-601529

>  <inspiration_score>  (4455) 
None

$$$$
BLRBAZZVZIPTTJ-UHFFFAOYSA-N-P52-P7-P52-601529
     RDKit          3D

 14 16  0  0  0  0  0  0  0  0999 V2000
   -4.3804    6.1736  -20.8658 O   0  0  0  0  0  0  0  0  0  0  0  0
   -3.9984    5.5373  -19.6744 N   0  0  0  0  0  0  0  0  0  0  0  0
   -5.0940    5.2825  -18.8391 C   0  0  0  0  0  0  0  0  0  0  0  0
   -6.2022    4.8535  -19.4268 N   0  0  0  0  0  0  0  0  0  0  0  0
   -7.3306    4.5929  -18.6755 C   0  0  0  0  0  0  0  0  0  0  0  0
   -7.3873    4.7229  -17.3432 C   0  0  0  0  0  0  0  0  0  0  0  0
   -6.2506    5.1465  -16.6944 N   0  0  0  0  0  0  0  0  0  0  0  0
   -5.9887    5.3601  -15.3700 C   0  0  0  0  0  0  0  0  0  0  0  0
   -4.6897    5.8095  -15.3246 C   0  0  0  0  0  0  0  0  0  0  0  0
   -4.1481    5.8715  -16.5829 N   0  0  0  0  0  0  0  0  0  0  0  0
   -5.1039    5.4427  -17.3866 C   0  0  0  0  0  0  0  0  0  0  0  0
   -2.7527    6.1162  -19.1817 C   0  0  0  0  0  0  0  0  0  0  0  0
   -1.4398    5.5876  -19.7153 C   0  0  0  0  0  0  0  0  0  0  0  0
   -1.8120    5.3794  -18.2841 C   0  0  0  0  0  0  0  0  0  0  0  0
  1  2  1  0
  2  3  1  0
  3  4  2  0
  4  5  1  0
  5  6  2  0
  6  7  1  0
  7  8  1  0
  8  9  2  0
  9 10  1  0
 10 11  2  0
  2 12  1  0
 12 13  1  0
 13 14  1  0
 11  3  1  0
 14 12  1  0
 11  7  1  0
M  END
>  <energy_score>  (4456) 
-33.007767

>  <alias>  (4456) 
BLRBAZZVZIPTTJ-UHFFFAOYSA-N-P52-P7-P52-601529

>  <HIPPO Pose ID>  (4456) 
84288

>  <smiles>  (4456) 
ON(c1nccn2ccnc12)C1CC1

>  <inchikey>  (4456) 
BLRBAZZVZIPTTJ-UHFFFAOYSA-N

>  <distance_score>  (4456) 
1.022687

>  <ref_mols>  (4456) 
Z0875a,Z0089a

>  <ref_pdb>  (4456) 
Z0719a

>  <HIPPO Compound ID>  (4456) 
144665

>  <name>  (4456) 
BLRBAZZVZIPTTJ-UHFFFAOYSA-N-P52-P7-P52-601529

>  <inspiration_score>  (4456) 
None

$$$$
HMHOVCORBVHPRH-UHFFFAOYSA-N-P52-P7-P52-601529
     RDKit          3D

 14 16  0  0  0  0  0  0  0  0999 V2000
   -5.0314    4.3346  -20.0101 O   0  0  0  0  0  0  0  0  0  0  0  0
   -4.7245    5.2044  -18.9864 N   0  0  0  0  0  0  0  0  0  0  0  0
   -5.5719    5.1625  -17.8692 C   0  0  0  0  0  0  0  0  0  0  0  0
   -5.1943    5.5331  -16.6174 C   0  0  0  0  0  0  0  0  0  0  0  0
   -5.9712    5.4593  -15.4766 N   0  0  0  0  0  0  0  0  0  0  0  0
   -7.1853    4.9992  -15.6015 C   0  0  0  0  0  0  0  0  0  0  0  0
   -7.7057    4.6241  -16.8678 C   0  0  0  0  0  0  0  0  0  0  0  0
   -8.9056    4.1820  -17.1506 N   0  0  0  0  0  0  0  0  0  0  0  0
   -8.9258    3.9540  -18.4969 N   0  0  0  0  0  0  0  0  0  0  0  0
   -7.7371    4.2722  -18.9689 C   0  0  0  0  0  0  0  0  0  0  0  0
   -6.9078    4.7087  -17.9757 N   0  0  0  0  0  0  0  0  0  0  0  0
   -3.2605    5.1646  -18.7517 C   0  0  0  0  0  0  0  0  0  0  0  0
   -2.2861    5.5649  -19.8268 C   0  0  0  0  0  0  0  0  0  0  0  0
   -2.4451    6.4201  -18.6055 C   0  0  0  0  0  0  0  0  0  0  0  0
  1  2  1  0
  2  3  1  0
  3  4  2  0
  4  5  1  0
  5  6  2  0
  6  7  1  0
  7  8  2  0
  8  9  1  0
  9 10  2  0
 10 11  1  0
  2 12  1  0
 12 13  1  0
 13 14  1  0
 11  3  1  0
 14 12  1  0
 11  7  1  0
M  END
>  <energy_score>  (4457) 
-24.949635

>  <alias>  (4457) 
HMHOVCORBVHPRH-UHFFFAOYSA-N-P52-P7-P52-601529

>  <HIPPO Pose ID>  (4457) 
84290

>  <smiles>  (4457) 
ON(c1cncc2nncn12)C1CC1

>  <inchikey>  (4457) 
HMHOVCORBVHPRH-UHFFFAOYSA-N

>  <distance_score>  (4457) 
1.789758

>  <ref_mols>  (4457) 
Z0875a,Z0089a

>  <ref_pdb>  (4457) 
Z0719a

>  <HIPPO Compound ID>  (4457) 
144666

>  <name>  (4457) 
HMHOVCORBVHPRH-UHFFFAOYSA-N-P52-P7-P52-601529

>  <inspiration_score>  (4457) 
None

$$$$
ZEOSNWCHUSKZOI-UHFFFAOYSA-N-P52-P7-P52-601529
     RDKit          3D

 14 16  0  0  0  0  0  0  0  0999 V2000
   -5.3488    7.4862  -16.4173 O   0  0  0  0  0  0  0  0  0  0  0  0
   -6.0200    6.2978  -16.0195 N   0  0  0  0  0  0  0  0  0  0  0  0
   -6.2238    5.5284  -17.1555 C   0  0  0  0  0  0  0  0  0  0  0  0
   -5.2037    5.4716  -17.9944 N   0  0  0  0  0  0  0  0  0  0  0  0
   -5.3852    4.8505  -19.1999 C   0  0  0  0  0  0  0  0  0  0  0  0
   -6.5581    4.3524  -19.5990 C   0  0  0  0  0  0  0  0  0  0  0  0
   -7.6301    4.4163  -18.7455 N   0  0  0  0  0  0  0  0  0  0  0  0
   -8.9396    4.0812  -18.9316 C   0  0  0  0  0  0  0  0  0  0  0  0
   -9.6156    4.2570  -17.7472 C   0  0  0  0  0  0  0  0  0  0  0  0
   -8.6771    4.7529  -16.8129 C   0  0  0  0  0  0  0  0  0  0  0  0
   -7.4875    4.9241  -17.4874 C   0  0  0  0  0  0  0  0  0  0  0  0
   -5.1795    5.6237  -15.0073 C   0  0  0  0  0  0  0  0  0  0  0  0
   -5.0351    6.2175  -13.6349 C   0  0  0  0  0  0  0  0  0  0  0  0
   -5.7916    4.9353  -13.8202 C   0  0  0  0  0  0  0  0  0  0  0  0
  1  2  1  0
  2  3  1  0
  3  4  2  0
  4  5  1  0
  5  6  2  0
  6  7  1  0
  7  8  1  0
  8  9  2  0
  9 10  1  0
 10 11  2  0
  2 12  1  0
 12 13  1  0
 13 14  1  0
 11  3  1  0
 14 12  1  0
 11  7  1  0
M  END
>  <energy_score>  (4458) 
-18.582554

>  <alias>  (4458) 
ZEOSNWCHUSKZOI-UHFFFAOYSA-N-P52-P7-P52-601529

>  <HIPPO Pose ID>  (4458) 
84292

>  <smiles>  (4458) 
ON(c1nccn2cccc12)C1CC1

>  <inchikey>  (4458) 
ZEOSNWCHUSKZOI-UHFFFAOYSA-N

>  <distance_score>  (4458) 
1.80075

>  <ref_mols>  (4458) 
Z0875a,Z0089a

>  <ref_pdb>  (4458) 
Z0719a

>  <HIPPO Compound ID>  (4458) 
144667

>  <name>  (4458) 
ZEOSNWCHUSKZOI-UHFFFAOYSA-N-P52-P7-P52-601529

>  <inspiration_score>  (4458) 
None

$$$$
XBYVDLMBSWTYTL-UHFFFAOYSA-N-P7-P7-P52-601529
     RDKit          3D

 14 16  0  0  0  0  0  0  0  0999 V2000
   -4.1601    5.6641  -20.5370 O   0  0  0  0  0  0  0  0  0  0  0  0
   -4.0004    5.0944  -19.2730 N   0  0  0  0  0  0  0  0  0  0  0  0
   -5.1137    5.1165  -18.3945 C   0  0  0  0  0  0  0  0  0  0  0  0
   -4.9722    5.4004  -17.0353 C   0  0  0  0  0  0  0  0  0  0  0  0
   -5.9989    5.4180  -16.1602 N   0  0  0  0  0  0  0  0  0  0  0  0
   -7.1936    5.0822  -16.6962 C   0  0  0  0  0  0  0  0  0  0  0  0
   -7.4031    4.7899  -18.0458 C   0  0  0  0  0  0  0  0  0  0  0  0
   -8.7523    4.3621  -18.5822 C   0  0  0  0  0  0  0  0  0  0  0  0
   -9.5076    3.2904  -17.8490 C   0  0  0  0  0  0  0  0  0  0  0  0
  -10.0841    4.6470  -17.9083 C   0  0  0  0  0  0  0  0  0  0  0  0
   -6.3437    4.8415  -18.9038 N   0  0  0  0  0  0  0  0  0  0  0  0
   -2.6176    5.1509  -18.7824 C   0  0  0  0  0  0  0  0  0  0  0  0
   -1.4295    5.2603  -19.6953 C   0  0  0  0  0  0  0  0  0  0  0  0
   -1.8097    6.4173  -18.8124 C   0  0  0  0  0  0  0  0  0  0  0  0
  1  2  1  0
  2  3  1  0
  3  4  2  0
  4  5  1  0
  5  6  2  0
  6  7  1  0
  7  8  1  0
  8  9  1  0
  9 10  1  0
  7 11  2  0
  2 12  1  0
 12 13  1  0
 13 14  1  0
 11  3  1  0
 14 12  1  0
 10  8  1  0
M  END
>  <energy_score>  (4459) 
-24.902717

>  <alias>  (4459) 
XBYVDLMBSWTYTL-UHFFFAOYSA-N-P7-P7-P52-601529

>  <HIPPO Pose ID>  (4459) 
84295

>  <smiles>  (4459) 
ON(c1cncc(C2CC2)n1)C1CC1

>  <inchikey>  (4459) 
XBYVDLMBSWTYTL-UHFFFAOYSA-N

>  <distance_score>  (4459) 
0.964774

>  <ref_mols>  (4459) 
Z0875a,Z0089a

>  <ref_pdb>  (4459) 
Z0719a

>  <HIPPO Compound ID>  (4459) 
144669

>  <name>  (4459) 
XBYVDLMBSWTYTL-UHFFFAOYSA-N-P7-P7-P52-601529

>  <inspiration_score>  (4459) 
None

$$$$
MKFXUKBGJSUADU-UHFFFAOYSA-N-P52-P7-P52-601529
     RDKit          3D

 14 16  0  0  0  0  0  0  0  0999 V2000
   -5.6979    6.3822  -20.1793 O   0  0  0  0  0  0  0  0  0  0  0  0
   -4.9735    5.4627  -19.4031 N   0  0  0  0  0  0  0  0  0  0  0  0
   -5.5580    5.1158  -18.1842 C   0  0  0  0  0  0  0  0  0  0  0  0
   -5.0077    5.1878  -16.9470 C   0  0  0  0  0  0  0  0  0  0  0  0
   -5.6396    4.8857  -15.7534 N   0  0  0  0  0  0  0  0  0  0  0  0
   -6.8879    4.5140  -15.8038 C   0  0  0  0  0  0  0  0  0  0  0  0
   -7.5732    4.4065  -17.0381 C   0  0  0  0  0  0  0  0  0  0  0  0
   -8.8117    4.0482  -17.2628 N   0  0  0  0  0  0  0  0  0  0  0  0
   -8.9257    4.0463  -18.6202 N   0  0  0  0  0  0  0  0  0  0  0  0
   -7.7752    4.3746  -19.1979 N   0  0  0  0  0  0  0  0  0  0  0  0
   -6.9022    4.6667  -18.2066 N   0  0  0  0  0  0  0  0  0  0  0  0
   -3.5376    5.6156  -19.6965 C   0  0  0  0  0  0  0  0  0  0  0  0
   -2.4180    4.8799  -19.0229 C   0  0  0  0  0  0  0  0  0  0  0  0
   -2.5292    6.3811  -18.8970 C   0  0  0  0  0  0  0  0  0  0  0  0
  1  2  1  0
  2  3  1  0
  3  4  2  0
  4  5  1  0
  5  6  2  0
  6  7  1  0
  7  8  2  0
  8  9  1  0
  9 10  2  0
 10 11  1  0
  2 12  1  0
 12 13  1  0
 13 14  1  0
 11  3  1  0
 14 12  1  0
 11  7  1  0
M  END
>  <energy_score>  (4460) 
-24.560224

>  <alias>  (4460) 
MKFXUKBGJSUADU-UHFFFAOYSA-N-P52-P7-P52-601529

>  <HIPPO Pose ID>  (4460) 
84298

>  <smiles>  (4460) 
ON(c1cncc2nnnn12)C1CC1

>  <inchikey>  (4460) 
MKFXUKBGJSUADU-UHFFFAOYSA-N

>  <distance_score>  (4460) 
1.474755

>  <ref_mols>  (4460) 
Z0875a,Z0089a

>  <ref_pdb>  (4460) 
Z0719a

>  <HIPPO Compound ID>  (4460) 
144670

>  <name>  (4460) 
MKFXUKBGJSUADU-UHFFFAOYSA-N-P52-P7-P52-601529

>  <inspiration_score>  (4460) 
None

$$$$
WNJFGDOGMSSOKA-UHFFFAOYSA-N-P7-P7-P52-601529
     RDKit          3D

 14 16  0  0  0  0  0  0  0  0999 V2000
   -9.4358    3.3325  -16.1957 F   0  0  0  0  0  0  0  0  0  0  0  0
   -9.8299    4.3769  -17.0030 C   0  0  2  0  0  0  0  0  0  0  0  0
  -10.6053    3.9401  -18.1803 C   0  0  0  0  0  0  0  0  0  0  0  0
   -9.2550    4.5373  -18.3736 C   0  0  2  0  0  0  0  0  0  0  0  0
   -8.0621    3.8257  -18.7915 N   0  0  0  0  0  0  0  0  0  0  0  0
   -6.8572    4.4302  -18.4894 C   0  0  0  0  0  0  0  0  0  0  0  0
   -6.0622    4.6292  -19.5168 N   0  0  0  0  0  0  0  0  0  0  0  0
   -4.8850    5.3183  -19.3523 C   0  0  0  0  0  0  0  0  0  0  0  0
   -4.4873    5.8229  -18.1822 C   0  0  0  0  0  0  0  0  0  0  0  0
   -5.2729    5.6043  -17.0703 N   0  0  0  0  0  0  0  0  0  0  0  0
   -5.0676    6.0355  -15.8021 N   0  0  0  0  0  0  0  0  0  0  0  0
   -6.0292    5.4374  -15.0965 C   0  0  0  0  0  0  0  0  0  0  0  0
   -6.8667    4.6557  -15.8903 C   0  0  0  0  0  0  0  0  0  0  0  0
   -6.4317    4.8677  -17.1762 C   0  0  0  0  0  0  0  0  0  0  0  0
  2  1  1  1
  2  3  1  0
  3  4  1  0
  4  5  1  1
  5  6  1  0
  6  7  2  0
  7  8  1  0
  8  9  2  0
  9 10  1  0
 10 11  1  0
 11 12  2  0
 12 13  1  0
 13 14  2  0
  4  2  1  0
 14  6  1  0
 14 10  1  0
M  END
>  <energy_score>  (4461) 
-20.372492

>  <alias>  (4461) 
WNJFGDOGMSSOKA-UHFFFAOYSA-N-P7-P7-P52-601529

>  <HIPPO Pose ID>  (4461) 
84301

>  <smiles>  (4461) 
FC1CC1Nc1nccn2nccc12

>  <inchikey>  (4461) 
WNJFGDOGMSSOKA-UHFFFAOYSA-N

>  <distance_score>  (4461) 
1.298377

>  <ref_mols>  (4461) 
Z0875a,Z0089a

>  <ref_pdb>  (4461) 
Z0719a

>  <HIPPO Compound ID>  (4461) 
144672

>  <name>  (4461) 
WNJFGDOGMSSOKA-UHFFFAOYSA-N-P7-P7-P52-601529

>  <inspiration_score>  (4461) 
None

$$$$
LSSVYPCVEHKLTF-UHFFFAOYSA-N-P7-P7-P52-601529
     RDKit          3D

 14 16  0  0  0  0  0  0  0  0999 V2000
   -1.0429    5.6781  -17.7160 F   0  0  0  0  0  0  0  0  0  0  0  0
   -1.8958    6.0117  -18.7509 C   0  0  1  0  0  0  0  0  0  0  0  0
   -1.7098    5.3188  -20.0592 C   0  0  0  0  0  0  0  0  0  0  0  0
   -2.8801    4.9648  -19.1891 C   0  0  2  0  0  0  0  0  0  0  0  0
   -4.2481    5.3269  -19.5584 N   0  0  0  0  0  0  0  0  0  0  0  0
   -5.2505    5.2587  -18.5760 C   0  0  0  0  0  0  0  0  0  0  0  0
   -5.0409    5.6022  -17.2415 C   0  0  0  0  0  0  0  0  0  0  0  0
   -6.0085    5.5537  -16.3034 N   0  0  0  0  0  0  0  0  0  0  0  0
   -7.2076    5.1242  -16.7608 C   0  0  0  0  0  0  0  0  0  0  0  0
   -7.4723    4.7901  -18.0906 C   0  0  0  0  0  0  0  0  0  0  0  0
   -8.8282    4.3402  -18.5757 C   0  0  0  0  0  0  0  0  0  0  0  0
   -9.5504    3.2760  -17.8091 C   0  0  0  0  0  0  0  0  0  0  0  0
  -10.1368    4.6305  -17.8656 C   0  0  0  0  0  0  0  0  0  0  0  0
   -6.4634    4.8589  -18.9989 N   0  0  0  0  0  0  0  0  0  0  0  0
  2  1  1  1
  2  3  1  0
  3  4  1  0
  4  5  1  6
  5  6  1  0
  6  7  2  0
  7  8  1  0
  8  9  2  0
  9 10  1  0
 10 11  1  0
 11 12  1  0
 12 13  1  0
 10 14  2  0
  4  2  1  0
 14  6  1  0
 13 11  1  0
M  END
>  <energy_score>  (4462) 
-14.100631

>  <alias>  (4462) 
LSSVYPCVEHKLTF-UHFFFAOYSA-N-P7-P7-P52-601529

>  <HIPPO Pose ID>  (4462) 
84303

>  <smiles>  (4462) 
FC1CC1Nc1cncc(C2CC2)n1

>  <inchikey>  (4462) 
LSSVYPCVEHKLTF-UHFFFAOYSA-N

>  <distance_score>  (4462) 
0.965557

>  <ref_mols>  (4462) 
Z0875a,Z0089a

>  <ref_pdb>  (4462) 
Z0719a

>  <HIPPO Compound ID>  (4462) 
144673

>  <name>  (4462) 
LSSVYPCVEHKLTF-UHFFFAOYSA-N-P7-P7-P52-601529

>  <inspiration_score>  (4462) 
None

$$$$
FGTMCAUZDQGUNQ-UHFFFAOYSA-N-P7-P7-P52-601529
     RDKit          3D

 14 16  0  0  0  0  0  0  0  0999 V2000
   -1.8352    7.3596  -19.6267 F   0  0  0  0  0  0  0  0  0  0  0  0
   -2.5744    6.3699  -18.9988 C   0  0  2  0  0  0  0  0  0  0  0  0
   -2.2680    4.9566  -19.3908 C   0  0  0  0  0  0  0  0  0  0  0  0
   -3.5436    5.6162  -19.8509 C   0  0  1  0  0  0  0  0  0  0  0  0
   -4.8428    5.0100  -19.5435 N   0  0  0  0  0  0  0  0  0  0  0  0
   -5.4932    4.9195  -18.3165 C   0  0  0  0  0  0  0  0  0  0  0  0
   -4.9665    5.1053  -17.0819 C   0  0  0  0  0  0  0  0  0  0  0  0
   -5.6480    5.0121  -15.8818 N   0  0  0  0  0  0  0  0  0  0  0  0
   -6.9103    4.6894  -15.9208 C   0  0  0  0  0  0  0  0  0  0  0  0
   -7.5701    4.4525  -17.1505 C   0  0  0  0  0  0  0  0  0  0  0  0
   -8.8166    4.1201  -17.3689 N   0  0  0  0  0  0  0  0  0  0  0  0
   -8.8972    3.9704  -18.7226 N   0  0  0  0  0  0  0  0  0  0  0  0
   -7.7186    4.1845  -19.3005 N   0  0  0  0  0  0  0  0  0  0  0  0
   -6.8630    4.5447  -18.3212 N   0  0  0  0  0  0  0  0  0  0  0  0
  2  1  1  6
  2  3  1  0
  3  4  1  0
  4  5  1  1
  5  6  1  0
  6  7  2  0
  7  8  1  0
  8  9  2  0
  9 10  1  0
 10 11  2  0
 11 12  1  0
 12 13  2  0
 13 14  1  0
  4  2  1  0
 14  6  1  0
 14 10  1  0
M  END
>  <energy_score>  (4463) 
-9.08359

>  <alias>  (4463) 
FGTMCAUZDQGUNQ-UHFFFAOYSA-N-P7-P7-P52-601529

>  <HIPPO Pose ID>  (4463) 
84305

>  <smiles>  (4463) 
FC1CC1Nc1cncc2nnnn12

>  <inchikey>  (4463) 
FGTMCAUZDQGUNQ-UHFFFAOYSA-N

>  <distance_score>  (4463) 
1.445051

>  <ref_mols>  (4463) 
Z0875a,Z0089a

>  <ref_pdb>  (4463) 
Z0719a

>  <HIPPO Compound ID>  (4463) 
144674

>  <name>  (4463) 
FGTMCAUZDQGUNQ-UHFFFAOYSA-N-P7-P7-P52-601529

>  <inspiration_score>  (4463) 
None

$$$$
LBQBSTVOUJTGBX-UHFFFAOYSA-N-P7-P7-P52-601529
     RDKit          3D

 14 16  0  0  0  0  0  0  0  0999 V2000
   -4.5979    6.2691  -20.6478 O   0  0  0  0  0  0  0  0  0  0  0  0
   -4.2199    5.4138  -19.5998 N   0  0  0  0  0  0  0  0  0  0  0  0
   -5.2013    5.0950  -18.6392 C   0  0  0  0  0  0  0  0  0  0  0  0
   -6.4591    4.8221  -19.0552 C   0  0  0  0  0  0  0  0  0  0  0  0
   -7.4700    4.6043  -18.1510 N   0  0  0  0  0  0  0  0  0  0  0  0
   -8.7993    4.3128  -18.2894 C   0  0  0  0  0  0  0  0  0  0  0  0
   -9.2865    4.2694  -17.0005 C   0  0  0  0  0  0  0  0  0  0  0  0
   -8.2987    4.5332  -16.0816 N   0  0  0  0  0  0  0  0  0  0  0  0
   -7.2235    4.6766  -16.8181 C   0  0  0  0  0  0  0  0  0  0  0  0
   -5.8760    4.8800  -16.4153 C   0  0  0  0  0  0  0  0  0  0  0  0
   -4.9113    5.0602  -17.2744 N   0  0  0  0  0  0  0  0  0  0  0  0
   -2.8801    5.7770  -19.0977 C   0  0  0  0  0  0  0  0  0  0  0  0
   -1.7077    4.8649  -19.3462 C   0  0  0  0  0  0  0  0  0  0  0  0
   -1.7689    6.2017  -20.0205 C   0  0  0  0  0  0  0  0  0  0  0  0
  1  2  1  0
  2  3  1  0
  3  4  2  0
  4  5  1  0
  5  6  1  0
  6  7  2  0
  7  8  1  0
  8  9  2  0
  9 10  1  0
 10 11  2  0
  2 12  1  0
 12 13  1  0
 13 14  1  0
 11  3  1  0
 14 12  1  0
  9  5  1  0
M  END
>  <energy_score>  (4464) 
-33.620796

>  <alias>  (4464) 
LBQBSTVOUJTGBX-UHFFFAOYSA-N-P7-P7-P52-601529

>  <HIPPO Pose ID>  (4464) 
84315

>  <smiles>  (4464) 
ON(c1cn2ccnc2cn1)C1CC1

>  <inchikey>  (4464) 
LBQBSTVOUJTGBX-UHFFFAOYSA-N

>  <distance_score>  (4464) 
1.622002

>  <ref_mols>  (4464) 
Z0875a,Z0089a

>  <ref_pdb>  (4464) 
Z0719a

>  <HIPPO Compound ID>  (4464) 
144679

>  <name>  (4464) 
LBQBSTVOUJTGBX-UHFFFAOYSA-N-P7-P7-P52-601529

>  <inspiration_score>  (4464) 
None

$$$$
CXEDBOFWTCCIQN-UHFFFAOYSA-N-P52-P7-P52-601529
     RDKit          3D

 14 16  0  0  0  0  0  0  0  0999 V2000
   -3.6496    5.5270  -20.8325 O   0  0  0  0  0  0  0  0  0  0  0  0
   -3.5914    5.6851  -19.4474 N   0  0  0  0  0  0  0  0  0  0  0  0
   -4.7608    5.4037  -18.7003 C   0  0  0  0  0  0  0  0  0  0  0  0
   -4.8016    5.5934  -17.3192 C   0  0  0  0  0  0  0  0  0  0  0  0
   -5.8806    5.3119  -16.5565 N   0  0  0  0  0  0  0  0  0  0  0  0
   -6.9510    4.7915  -17.2090 C   0  0  0  0  0  0  0  0  0  0  0  0
   -8.1077    4.3099  -16.3949 C   0  0  0  0  0  0  0  0  0  0  0  0
   -8.9469    5.2546  -15.5921 C   0  0  0  0  0  0  0  0  0  0  0  0
   -9.5112    4.6121  -16.8320 C   0  0  0  0  0  0  0  0  0  0  0  0
   -6.9180    4.6413  -18.5969 C   0  0  0  0  0  0  0  0  0  0  0  0
   -5.8440    4.9469  -19.3622 N   0  0  0  0  0  0  0  0  0  0  0  0
   -2.3106    5.1973  -18.9219 C   0  0  0  0  0  0  0  0  0  0  0  0
   -1.0097    5.4588  -19.6264 C   0  0  0  0  0  0  0  0  0  0  0  0
   -1.3188    6.1642  -18.3391 C   0  0  0  0  0  0  0  0  0  0  0  0
  1  2  1  0
  2  3  1  0
  3  4  2  0
  4  5  1  0
  5  6  2  0
  6  7  1  0
  7  8  1  0
  8  9  1  0
  6 10  1  0
 10 11  2  0
  2 12  1  0
 12 13  1  0
 13 14  1  0
 11  3  1  0
 14 12  1  0
  9  7  1  0
M  END
>  <energy_score>  (4465) 
-33.06846

>  <alias>  (4465) 
CXEDBOFWTCCIQN-UHFFFAOYSA-N-P52-P7-P52-601529

>  <HIPPO Pose ID>  (4465) 
84318

>  <smiles>  (4465) 
ON(c1cnc(C2CC2)cn1)C1CC1

>  <inchikey>  (4465) 
CXEDBOFWTCCIQN-UHFFFAOYSA-N

>  <distance_score>  (4465) 
1.005154

>  <ref_mols>  (4465) 
Z0875a,Z0089a

>  <ref_pdb>  (4465) 
Z0719a

>  <HIPPO Compound ID>  (4465) 
144680

>  <name>  (4465) 
CXEDBOFWTCCIQN-UHFFFAOYSA-N-P52-P7-P52-601529

>  <inspiration_score>  (4465) 
None

$$$$
VFLNWKBUQFENKB-UHFFFAOYSA-N-P7-P7-P52-601529
     RDKit          3D

 14 16  0  0  0  0  0  0  0  0999 V2000
   -3.9262    5.5161  -20.6065 O   0  0  0  0  0  0  0  0  0  0  0  0
   -4.0488    5.5316  -19.2129 N   0  0  0  0  0  0  0  0  0  0  0  0
   -5.2835    5.1381  -18.6785 C   0  0  0  0  0  0  0  0  0  0  0  0
   -5.5632    5.2884  -17.3613 C   0  0  0  0  0  0  0  0  0  0  0  0
   -6.8206    4.9605  -16.8907 N   0  0  0  0  0  0  0  0  0  0  0  0
   -7.3668    5.0492  -15.6556 N   0  0  0  0  0  0  0  0  0  0  0  0
   -8.5828    4.5269  -15.8438 C   0  0  0  0  0  0  0  0  0  0  0  0
   -8.8888    4.1951  -17.1255 N   0  0  0  0  0  0  0  0  0  0  0  0
   -7.7706    4.4790  -17.7454 C   0  0  0  0  0  0  0  0  0  0  0  0
   -7.4330    4.3314  -19.1158 C   0  0  0  0  0  0  0  0  0  0  0  0
   -6.2473    4.6396  -19.5558 N   0  0  0  0  0  0  0  0  0  0  0  0
   -2.8037    5.0794  -18.5701 C   0  0  0  0  0  0  0  0  0  0  0  0
   -1.4684    5.1585  -19.2684 C   0  0  0  0  0  0  0  0  0  0  0  0
   -1.7772    6.0902  -18.1352 C   0  0  0  0  0  0  0  0  0  0  0  0
  1  2  1  0
  2  3  1  0
  3  4  2  0
  4  5  1  0
  5  6  1  0
  6  7  2  0
  7  8  1  0
  8  9  2  0
  9 10  1  0
 10 11  2  0
  2 12  1  0
 12 13  1  0
 13 14  1  0
 11  3  1  0
 14 12  1  0
  9  5  1  0
M  END
>  <energy_score>  (4466) 
-22.83852

>  <alias>  (4466) 
VFLNWKBUQFENKB-UHFFFAOYSA-N-P7-P7-P52-601529

>  <HIPPO Pose ID>  (4466) 
84319

>  <smiles>  (4466) 
ON(c1cn2ncnc2cn1)C1CC1

>  <inchikey>  (4466) 
VFLNWKBUQFENKB-UHFFFAOYSA-N

>  <distance_score>  (4466) 
1.2702

>  <ref_mols>  (4466) 
Z0875a,Z0089a

>  <ref_pdb>  (4466) 
Z0719a

>  <HIPPO Compound ID>  (4466) 
144681

>  <name>  (4466) 
VFLNWKBUQFENKB-UHFFFAOYSA-N-P7-P7-P52-601529

>  <inspiration_score>  (4466) 
None

$$$$
QEWUDNMDOUROLA-UHFFFAOYSA-N-P7-P7-P52-601529
     RDKit          3D

 14 15  0  0  0  0  0  0  0  0999 V2000
   -2.0988    4.4830  -19.0720 C   0  0  0  0  0  0  0  0  0  0  0  0
   -3.1297    5.4863  -19.5841 C   0  0  2  0  0  0  0  0  0  0  0  0
   -2.9028    6.9203  -19.0725 C   0  0  0  0  0  0  0  0  0  0  0  0
   -1.4546    7.7379  -19.8247 S   0  0  0  0  0  0  0  0  0  0  0  0
   -4.4939    5.0108  -19.3453 N   0  0  0  0  0  0  0  0  0  0  0  0
   -5.2343    4.9183  -18.1656 C   0  0  0  0  0  0  0  0  0  0  0  0
   -4.7781    5.1246  -16.9075 C   0  0  0  0  0  0  0  0  0  0  0  0
   -5.5294    5.0436  -15.7500 N   0  0  0  0  0  0  0  0  0  0  0  0
   -6.7929    4.7434  -15.8663 C   0  0  0  0  0  0  0  0  0  0  0  0
   -7.3956    4.5252  -17.1343 C   0  0  0  0  0  0  0  0  0  0  0  0
   -8.6557    4.2943  -17.4140 N   0  0  0  0  0  0  0  0  0  0  0  0
   -8.6068    4.1815  -18.7665 C   0  0  0  0  0  0  0  0  0  0  0  0
   -7.3920    4.2710  -19.3129 N   0  0  0  0  0  0  0  0  0  0  0  0
   -6.6109    4.5779  -18.2583 N   0  0  0  0  0  0  0  0  0  0  0  0
  2  1  1  1
  2  3  1  0
  3  4  1  0
  2  5  1  0
  5  6  1  0
  6  7  2  0
  7  8  1  0
  8  9  2  0
  9 10  1  0
 10 11  2  0
 11 12  1  0
 12 13  2  0
 13 14  1  0
 14  6  1  0
 14 10  1  0
M  END
>  <energy_score>  (4467) 
-55.750868

>  <alias>  (4467) 
QEWUDNMDOUROLA-UHFFFAOYSA-N-P7-P7-P52-601529

>  <HIPPO Pose ID>  (4467) 
84335

>  <smiles>  (4467) 
CC(CS)Nc1cncc2ncnn12

>  <inchikey>  (4467) 
QEWUDNMDOUROLA-UHFFFAOYSA-N

>  <distance_score>  (4467) 
1.469331

>  <ref_mols>  (4467) 
Z0875a,Z0089a

>  <ref_pdb>  (4467) 
Z0719a

>  <HIPPO Compound ID>  (4467) 
144689

>  <name>  (4467) 
QEWUDNMDOUROLA-UHFFFAOYSA-N-P7-P7-P52-601529

>  <inspiration_score>  (4467) 
None

$$$$
VNODPYZDNZFQNU-UHFFFAOYSA-N-P52-P7-P52-601529
     RDKit          3D

 14 15  0  0  0  0  0  0  0  0999 V2000
   -1.6832    4.4650  -19.4381 C   0  0  0  0  0  0  0  0  0  0  0  0
   -2.8517    5.4418  -19.5270 C   0  0  2  0  0  0  0  0  0  0  0  0
   -2.3982    6.8895  -19.7749 C   0  0  0  0  0  0  0  0  0  0  0  0
   -1.5586    7.1218  -21.3797 S   0  0  0  0  0  0  0  0  0  0  0  0
   -3.5961    5.3886  -18.2826 N   0  0  0  0  0  0  0  0  0  0  0  0
   -4.9420    5.1271  -18.1638 C   0  0  0  0  0  0  0  0  0  0  0  0
   -5.5079    5.2087  -16.9369 C   0  0  0  0  0  0  0  0  0  0  0  0
   -6.8481    4.9215  -16.7973 N   0  0  0  0  0  0  0  0  0  0  0  0
   -7.6762    4.8722  -15.7116 C   0  0  0  0  0  0  0  0  0  0  0  0
   -8.8875    4.4486  -16.2050 C   0  0  0  0  0  0  0  0  0  0  0  0
   -8.8458    4.2947  -17.5618 N   0  0  0  0  0  0  0  0  0  0  0  0
   -7.6015    4.5669  -17.8755 C   0  0  0  0  0  0  0  0  0  0  0  0
   -6.9535    4.4861  -19.1435 C   0  0  0  0  0  0  0  0  0  0  0  0
   -5.6853    4.7633  -19.2759 N   0  0  0  0  0  0  0  0  0  0  0  0
  2  1  1  1
  2  3  1  0
  3  4  1  0
  2  5  1  0
  5  6  1  0
  6  7  2  0
  7  8  1  0
  8  9  1  0
  9 10  2  0
 10 11  1  0
 11 12  2  0
 12 13  1  0
 13 14  2  0
 14  6  1  0
 12  8  1  0
M  END
>  <energy_score>  (4468) 
-34.27434

>  <alias>  (4468) 
VNODPYZDNZFQNU-UHFFFAOYSA-N-P52-P7-P52-601529

>  <HIPPO Pose ID>  (4468) 
84338

>  <smiles>  (4468) 
CC(CS)Nc1cn2ccnc2cn1

>  <inchikey>  (4468) 
VNODPYZDNZFQNU-UHFFFAOYSA-N

>  <distance_score>  (4468) 
1.654859

>  <ref_mols>  (4468) 
Z0875a,Z0089a

>  <ref_pdb>  (4468) 
Z0719a

>  <HIPPO Compound ID>  (4468) 
144690

>  <name>  (4468) 
VNODPYZDNZFQNU-UHFFFAOYSA-N-P52-P7-P52-601529

>  <inspiration_score>  (4468) 
None

$$$$
WYYMOQIXVOGSAP-UHFFFAOYSA-N-P52-P7-P52-601529
     RDKit          3D

 14 14  0  0  0  0  0  0  0  0999 V2000
   -2.0800    4.7010  -18.6839 C   0  0  0  0  0  0  0  0  0  0  0  0
   -2.8292    5.7048  -19.5361 C   0  0  2  0  0  0  0  0  0  0  0  0
   -2.4351    7.1745  -19.3090 C   0  0  0  0  0  0  0  0  0  0  0  0
   -2.7796    7.8970  -17.6782 S   0  0  0  0  0  0  0  0  0  0  0  0
   -4.2625    5.4913  -19.5962 N   0  0  0  0  0  0  0  0  0  0  0  0
   -5.2050    5.1883  -18.6666 C   0  0  0  0  0  0  0  0  0  0  0  0
   -5.1041    5.2447  -17.2782 C   0  0  0  0  0  0  0  0  0  0  0  0
   -6.1241    4.9599  -16.4242 N   0  0  0  0  0  0  0  0  0  0  0  0
   -7.2757    4.5612  -17.0240 C   0  0  0  0  0  0  0  0  0  0  0  0
   -8.4124    4.0758  -16.2072 C   0  0  0  0  0  0  0  0  0  0  0  0
   -9.4802    3.7178  -16.6746 O   0  0  0  0  0  0  0  0  0  0  0  0
   -8.1583    3.9820  -14.8859 O   0  0  0  0  0  0  0  0  0  0  0  0
   -7.3982    4.5104  -18.4000 C   0  0  0  0  0  0  0  0  0  0  0  0
   -6.3709    4.8216  -19.2272 N   0  0  0  0  0  0  0  0  0  0  0  0
  2  1  1  1
  2  3  1  0
  3  4  1  0
  2  5  1  0
  5  6  1  0
  6  7  2  0
  7  8  1  0
  8  9  2  0
  9 10  1  0
 10 11  2  0
 10 12  1  0
  9 13  1  0
 13 14  2  0
 14  6  1  0
M  END
>  <energy_score>  (4469) 
-30.191299

>  <alias>  (4469) 
WYYMOQIXVOGSAP-UHFFFAOYSA-N-P52-P7-P52-601529

>  <HIPPO Pose ID>  (4469) 
84344

>  <smiles>  (4469) 
CC(CS)Nc1cnc(C(=O)O)cn1

>  <inchikey>  (4469) 
WYYMOQIXVOGSAP-UHFFFAOYSA-N

>  <distance_score>  (4469) 
0.779518

>  <ref_mols>  (4469) 
Z0875a,Z0089a

>  <ref_pdb>  (4469) 
Z0719a

>  <HIPPO Compound ID>  (4469) 
144693

>  <name>  (4469) 
WYYMOQIXVOGSAP-UHFFFAOYSA-N-P52-P7-P52-601529

>  <inspiration_score>  (4469) 
None

$$$$
HLBUVZZWYJUZFB-UHFFFAOYSA-N-P7-P7-P52-601529
     RDKit          3D

 14 15  0  0  0  0  0  0  0  0999 V2000
   -1.7986    4.4522  -19.3903 C   0  0  0  0  0  0  0  0  0  0  0  0
   -2.8158    5.3839  -18.7234 C   0  0  1  0  0  0  0  0  0  0  0  0
   -2.4495    6.8480  -19.0262 C   0  0  0  0  0  0  0  0  0  0  0  0
   -3.3919    8.0548  -18.0305 S   0  0  0  0  0  0  0  0  0  0  0  0
   -4.1236    5.0501  -19.2472 N   0  0  0  0  0  0  0  0  0  0  0  0
   -5.3378    4.8822  -18.6327 C   0  0  0  0  0  0  0  0  0  0  0  0
   -5.5527    5.0569  -17.3076 C   0  0  0  0  0  0  0  0  0  0  0  0
   -6.8319    4.8799  -16.8206 N   0  0  0  0  0  0  0  0  0  0  0  0
   -7.4117    4.9789  -15.5918 C   0  0  0  0  0  0  0  0  0  0  0  0
   -8.7045    4.7480  -15.6780 N   0  0  0  0  0  0  0  0  0  0  0  0
   -8.9836    4.4416  -16.9910 N   0  0  0  0  0  0  0  0  0  0  0  0
   -7.8538    4.5356  -17.6463 C   0  0  0  0  0  0  0  0  0  0  0  0
   -7.5731    4.3420  -19.0229 C   0  0  0  0  0  0  0  0  0  0  0  0
   -6.3659    4.5073  -19.4838 N   0  0  0  0  0  0  0  0  0  0  0  0
  2  1  1  6
  2  3  1  0
  3  4  1  0
  2  5  1  0
  5  6  1  0
  6  7  2  0
  7  8  1  0
  8  9  1  0
  9 10  2  0
 10 11  1  0
 11 12  2  0
 12 13  1  0
 13 14  2  0
 14  6  1  0
 12  8  1  0
M  END
>  <energy_score>  (4470) 
-31.214624

>  <alias>  (4470) 
HLBUVZZWYJUZFB-UHFFFAOYSA-N-P7-P7-P52-601529

>  <HIPPO Pose ID>  (4470) 
84349

>  <smiles>  (4470) 
CC(CS)Nc1cn2cnnc2cn1

>  <inchikey>  (4470) 
HLBUVZZWYJUZFB-UHFFFAOYSA-N

>  <distance_score>  (4470) 
1.656424

>  <ref_mols>  (4470) 
Z0875a,Z0089a

>  <ref_pdb>  (4470) 
Z0719a

>  <HIPPO Compound ID>  (4470) 
144696

>  <name>  (4470) 
HLBUVZZWYJUZFB-UHFFFAOYSA-N-P7-P7-P52-601529

>  <inspiration_score>  (4470) 
None

$$$$
LBXPJSNWDZSPRC-UHFFFAOYSA-N-P52-P7-P52-601529
     RDKit          3D

 14 15  0  0  0  0  0  0  0  0999 V2000
   -1.5134    4.7615  -19.6495 C   0  0  0  0  0  0  0  0  0  0  0  0
   -2.6837    5.7237  -19.8235 C   0  0  2  0  0  0  0  0  0  0  0  0
   -2.4090    7.0998  -19.1929 C   0  0  0  0  0  0  0  0  0  0  0  0
   -3.7170    8.3140  -19.5875 S   0  0  0  0  0  0  0  0  0  0  0  0
   -3.9406    5.0982  -19.4063 N   0  0  0  0  0  0  0  0  0  0  0  0
   -4.4320    4.9720  -18.1073 C   0  0  0  0  0  0  0  0  0  0  0  0
   -3.6895    4.9566  -16.9700 C   0  0  0  0  0  0  0  0  0  0  0  0
   -4.1728    4.9087  -15.6711 N   0  0  0  0  0  0  0  0  0  0  0  0
   -5.4686    4.9012  -15.5222 C   0  0  0  0  0  0  0  0  0  0  0  0
   -6.3493    4.9251  -16.6472 C   0  0  0  0  0  0  0  0  0  0  0  0
   -7.6589    4.9964  -16.6391 N   0  0  0  0  0  0  0  0  0  0  0  0
   -8.0060    4.8849  -17.9617 C   0  0  0  0  0  0  0  0  0  0  0  0
   -6.8913    4.8265  -18.7668 C   0  0  0  0  0  0  0  0  0  0  0  0
   -5.8233    4.8951  -17.9143 N   0  0  0  0  0  0  0  0  0  0  0  0
  2  1  1  1
  2  3  1  0
  3  4  1  0
  2  5  1  0
  5  6  1  0
  6  7  2  0
  7  8  1  0
  8  9  2  0
  9 10  1  0
 10 11  2  0
 11 12  1  0
 12 13  2  0
 13 14  1  0
 14  6  1  0
 14 10  1  0
M  END
>  <energy_score>  (4471) 
-40.975091

>  <alias>  (4471) 
LBXPJSNWDZSPRC-UHFFFAOYSA-N-P52-P7-P52-601529

>  <HIPPO Pose ID>  (4471) 
84354

>  <smiles>  (4471) 
CC(CS)Nc1cncc2nccn12

>  <inchikey>  (4471) 
LBXPJSNWDZSPRC-UHFFFAOYSA-N

>  <distance_score>  (4471) 
1.544068

>  <ref_mols>  (4471) 
Z0875a,Z0089a

>  <ref_pdb>  (4471) 
Z0719a

>  <HIPPO Compound ID>  (4471) 
144698

>  <name>  (4471) 
LBXPJSNWDZSPRC-UHFFFAOYSA-N-P52-P7-P52-601529

>  <inspiration_score>  (4471) 
None

$$$$
BTONONNLORXWEV-UHFFFAOYSA-N-P7-P7-P52-601529
     RDKit          3D

 14 14  0  0  0  0  0  0  0  0999 V2000
   -4.1854    6.2231  -16.0753 C   0  0  0  0  0  0  0  0  0  0  0  0
   -5.2358    5.5551  -16.9151 C   0  0  0  0  0  0  0  0  0  0  0  0
   -6.3882    5.3097  -16.2088 N   0  0  0  0  0  0  0  0  0  0  0  0
   -7.5341    4.8635  -16.7924 C   0  0  0  0  0  0  0  0  0  0  0  0
   -8.5865    4.7538  -16.1882 O   0  0  0  0  0  0  0  0  0  0  0  0
   -7.3994    4.5720  -18.2699 C   0  0  0  0  0  0  0  0  0  0  0  0
   -8.6400    4.0900  -18.9597 C   0  0  0  0  0  0  0  0  0  0  0  0
   -6.2859    4.7660  -18.9154 N   0  0  0  0  0  0  0  0  0  0  0  0
   -5.1854    5.2777  -18.2505 C   0  0  0  0  0  0  0  0  0  0  0  0
   -4.1143    5.5266  -19.0905 N   0  0  0  0  0  0  0  0  0  0  0  0
   -2.6808    5.4537  -18.8476 C   0  0  1  0  0  0  0  0  0  0  0  0
   -2.1231    4.0972  -19.2634 C   0  0  0  0  0  0  0  0  0  0  0  0
   -1.9794    6.6298  -19.5579 C   0  0  0  0  0  0  0  0  0  0  0  0
   -1.8692    6.4863  -21.3818 S   0  0  0  0  0  0  0  0  0  0  0  0
  1  2  1  0
  2  3  1  0
  3  4  1  0
  4  5  2  0
  4  6  1  0
  6  7  1  0
  6  8  2  0
  8  9  1  0
  9 10  1  0
 10 11  1  0
 11 12  1  6
 11 13  1  0
 13 14  1  0
  9  2  2  0
M  END
>  <energy_score>  (4472) 
-32.187072

>  <alias>  (4472) 
BTONONNLORXWEV-UHFFFAOYSA-N-P7-P7-P52-601529

>  <HIPPO Pose ID>  (4472) 
84359

>  <smiles>  (4472) 
Cc1[nH]c(=O)c(C)nc1NC(C)CS

>  <inchikey>  (4472) 
BTONONNLORXWEV-UHFFFAOYSA-N

>  <distance_score>  (4472) 
1.341237

>  <ref_mols>  (4472) 
Z0875a,Z0089a

>  <ref_pdb>  (4472) 
Z0719a

>  <HIPPO Compound ID>  (4472) 
144701

>  <name>  (4472) 
BTONONNLORXWEV-UHFFFAOYSA-N-P7-P7-P52-601529

>  <inspiration_score>  (4472) 
None

$$$$
XNPRXLFKWHSOKB-UHFFFAOYSA-N-P52-P7-P52-601529
     RDKit          3D

 14 14  0  0  0  0  0  0  0  0999 V2000
   -1.6205    4.6738  -19.5559 C   0  0  0  0  0  0  0  0  0  0  0  0
   -2.7444    5.5001  -18.9208 C   0  0  1  0  0  0  0  0  0  0  0  0
   -2.8029    6.9392  -19.4621 C   0  0  0  0  0  0  0  0  0  0  0  0
   -1.3491    7.9546  -19.0456 S   0  0  0  0  0  0  0  0  0  0  0  0
   -3.9941    4.8022  -19.2001 N   0  0  0  0  0  0  0  0  0  0  0  0
   -5.1422    4.8869  -18.4474 C   0  0  0  0  0  0  0  0  0  0  0  0
   -6.2356    4.7530  -19.2322 N   0  0  0  0  0  0  0  0  0  0  0  0
   -7.4498    4.7665  -18.6354 C   0  0  0  0  0  0  0  0  0  0  0  0
   -7.5980    4.9589  -17.2805 C   0  0  0  0  0  0  0  0  0  0  0  0
   -6.5406    5.1322  -16.4657 N   0  0  0  0  0  0  0  0  0  0  0  0
   -5.3126    5.0351  -17.0655 C   0  0  0  0  0  0  0  0  0  0  0  0
   -4.1856    4.9719  -16.1067 C   0  0  0  0  0  0  0  0  0  0  0  0
   -3.2998    4.1367  -16.0554 O   0  0  0  0  0  0  0  0  0  0  0  0
   -4.2299    5.9943  -15.2238 O   0  0  0  0  0  0  0  0  0  0  0  0
  2  1  1  6
  2  3  1  0
  3  4  1  0
  2  5  1  0
  5  6  1  0
  6  7  2  0
  7  8  1  0
  8  9  2  0
  9 10  1  0
 10 11  2  0
 11 12  1  0
 12 13  2  0
 12 14  1  0
 11  6  1  0
M  END
>  <energy_score>  (4473) 
-35.478019

>  <alias>  (4473) 
XNPRXLFKWHSOKB-UHFFFAOYSA-N-P52-P7-P52-601529

>  <HIPPO Pose ID>  (4473) 
84364

>  <smiles>  (4473) 
CC(CS)Nc1nccnc1C(=O)O

>  <inchikey>  (4473) 
XNPRXLFKWHSOKB-UHFFFAOYSA-N

>  <distance_score>  (4473) 
1.234449

>  <ref_mols>  (4473) 
Z0875a,Z0089a

>  <ref_pdb>  (4473) 
Z0719a

>  <HIPPO Compound ID>  (4473) 
144703

>  <name>  (4473) 
XNPRXLFKWHSOKB-UHFFFAOYSA-N-P52-P7-P52-601529

>  <inspiration_score>  (4473) 
None

$$$$
ROCLHBPQRJAQDT-UHFFFAOYSA-N-P52-P7-P52-601529
     RDKit          3D

 14 14  0  0  0  0  0  0  0  0999 V2000
   -4.4669    5.6918  -14.5187 C   0  0  0  0  0  0  0  0  0  0  0  0
   -4.9366    5.5715  -15.6192 C   0  0  0  0  0  0  0  0  0  0  0  0
   -5.6573    5.3642  -16.8410 C   0  0  0  0  0  0  0  0  0  0  0  0
   -6.9961    5.4566  -16.6056 N   0  0  0  0  0  0  0  0  0  0  0  0
   -7.7994    5.0344  -17.6020 C   0  0  0  0  0  0  0  0  0  0  0  0
   -7.3069    4.6281  -18.8187 C   0  0  0  0  0  0  0  0  0  0  0  0
   -5.9847    4.6120  -19.0866 N   0  0  0  0  0  0  0  0  0  0  0  0
   -5.1398    4.9580  -18.0834 C   0  0  0  0  0  0  0  0  0  0  0  0
   -3.8417    4.7038  -18.4727 N   0  0  0  0  0  0  0  0  0  0  0  0
   -2.7504    5.6718  -18.5182 C   0  0  0  0  0  0  0  0  0  0  0  0
   -1.6585    5.0293  -19.4081 C   0  0  0  0  0  0  0  0  0  0  0  0
   -3.1838    6.9830  -19.1832 C   0  0  0  0  0  0  0  0  0  0  0  0
   -2.1641    5.8181  -17.1337 C   0  0  0  0  0  0  0  0  0  0  0  0
   -1.7903    6.9479  -16.5140 C   0  0  0  0  0  0  0  0  0  0  0  0
  1  2  3  0
  2  3  1  0
  3  4  2  0
  4  5  1  0
  5  6  2  0
  6  7  1  0
  7  8  2  0
  8  9  1  0
  9 10  1  0
 10 11  1  0
 10 12  1  0
 10 13  1  0
 13 14  2  0
  8  3  1  0
M  END
>  <energy_score>  (4474) 
-20.22418

>  <alias>  (4474) 
ROCLHBPQRJAQDT-UHFFFAOYSA-N-P52-P7-P52-601529

>  <HIPPO Pose ID>  (4474) 
84366

>  <smiles>  (4474) 
C#Cc1nccnc1NC(C)(C)C=C

>  <inchikey>  (4474) 
ROCLHBPQRJAQDT-UHFFFAOYSA-N

>  <distance_score>  (4474) 
1.199415

>  <ref_mols>  (4474) 
Z0875a,Z0089a

>  <ref_pdb>  (4474) 
Z0719a

>  <HIPPO Compound ID>  (4474) 
144704

>  <name>  (4474) 
ROCLHBPQRJAQDT-UHFFFAOYSA-N-P52-P7-P52-601529

>  <inspiration_score>  (4474) 
None

$$$$
ZFKRHZCZHLMPOE-UHFFFAOYSA-N-P7-P7-P52-601529
     RDKit          3D

 14 14  0  0  0  0  0  0  0  0999 V2000
   -1.7627    3.5281  -19.4753 C   0  0  0  0  0  0  0  0  0  0  0  0
   -1.7907    4.8497  -19.6843 C   0  0  0  0  0  0  0  0  0  0  0  0
   -2.7630    5.7933  -18.9990 C   0  0  0  0  0  0  0  0  0  0  0  0
   -2.8375    7.1110  -19.7740 C   0  0  0  0  0  0  0  0  0  0  0  0
   -2.2097    6.0696  -17.5994 C   0  0  0  0  0  0  0  0  0  0  0  0
   -4.0619    5.1437  -19.0692 N   0  0  0  0  0  0  0  0  0  0  0  0
   -5.1645    5.1582  -18.2717 C   0  0  0  0  0  0  0  0  0  0  0  0
   -5.2264    5.4750  -16.9239 C   0  0  0  0  0  0  0  0  0  0  0  0
   -6.3512    5.3994  -16.1757 N   0  0  0  0  0  0  0  0  0  0  0  0
   -7.4497    4.9319  -16.8115 C   0  0  0  0  0  0  0  0  0  0  0  0
   -8.6502    4.7080  -15.9519 C   0  0  0  0  0  0  0  0  0  0  0  0
   -7.4225    4.6085  -18.1665 C   0  0  0  0  0  0  0  0  0  0  0  0
   -8.6439    4.1271  -18.8902 C   0  0  0  0  0  0  0  0  0  0  0  0
   -6.2820    4.7382  -18.8973 N   0  0  0  0  0  0  0  0  0  0  0  0
  1  2  2  0
  2  3  1  0
  3  4  1  0
  3  5  1  0
  3  6  1  0
  6  7  1  0
  7  8  2  0
  8  9  1  0
  9 10  2  0
 10 11  1  0
 10 12  1  0
 12 13  1  0
 12 14  2  0
 14  7  1  0
M  END
>  <energy_score>  (4475) 
-31.37903

>  <alias>  (4475) 
ZFKRHZCZHLMPOE-UHFFFAOYSA-N-P7-P7-P52-601529

>  <HIPPO Pose ID>  (4475) 
84367

>  <smiles>  (4475) 
C=CC(C)(C)Nc1cnc(C)c(C)n1

>  <inchikey>  (4475) 
ZFKRHZCZHLMPOE-UHFFFAOYSA-N

>  <distance_score>  (4475) 
0.837655

>  <ref_mols>  (4475) 
Z0875a,Z0089a

>  <ref_pdb>  (4475) 
Z0719a

>  <HIPPO Compound ID>  (4475) 
144705

>  <name>  (4475) 
ZFKRHZCZHLMPOE-UHFFFAOYSA-N-P7-P7-P52-601529

>  <inspiration_score>  (4475) 
None

$$$$
CCLQAKSUPGBLSY-UHFFFAOYSA-N-P7-P7-P52-601529
     RDKit          3D

 14 14  0  0  0  0  0  0  0  0999 V2000
   -1.8771    3.6797  -19.3845 C   0  0  0  0  0  0  0  0  0  0  0  0
   -1.7174    4.9046  -19.8991 C   0  0  0  0  0  0  0  0  0  0  0  0
   -2.6344    6.0893  -19.6898 C   0  0  0  0  0  0  0  0  0  0  0  0
   -2.1753    6.8779  -18.4676 C   0  0  0  0  0  0  0  0  0  0  0  0
   -2.5285    7.0403  -20.9046 C   0  0  0  0  0  0  0  0  0  0  0  0
   -4.0035    5.6209  -19.6665 N   0  0  0  0  0  0  0  0  0  0  0  0
   -4.9478    5.4049  -18.7228 C   0  0  0  0  0  0  0  0  0  0  0  0
   -4.8846    5.6450  -17.3591 C   0  0  0  0  0  0  0  0  0  0  0  0
   -5.9196    5.4463  -16.5068 N   0  0  0  0  0  0  0  0  0  0  0  0
   -7.0514    4.9473  -17.0583 C   0  0  0  0  0  0  0  0  0  0  0  0
   -8.1673    4.6712  -16.0996 C   0  0  0  0  0  0  0  0  0  0  0  0
   -9.4131    4.0568  -16.7016 C   0  0  0  0  0  0  0  0  0  0  0  0
   -7.1213    4.6983  -18.4193 C   0  0  0  0  0  0  0  0  0  0  0  0
   -6.0808    4.9150  -19.2512 N   0  0  0  0  0  0  0  0  0  0  0  0
  1  2  2  0
  2  3  1  0
  3  4  1  0
  3  5  1  0
  3  6  1  0
  6  7  1  0
  7  8  2  0
  8  9  1  0
  9 10  2  0
 10 11  1  0
 11 12  1  0
 10 13  1  0
 13 14  2  0
 14  7  1  0
M  END
>  <energy_score>  (4476) 
-27.097782

>  <alias>  (4476) 
CCLQAKSUPGBLSY-UHFFFAOYSA-N-P7-P7-P52-601529

>  <HIPPO Pose ID>  (4476) 
84375

>  <smiles>  (4476) 
C=CC(C)(C)Nc1cnc(CC)cn1

>  <inchikey>  (4476) 
CCLQAKSUPGBLSY-UHFFFAOYSA-N

>  <distance_score>  (4476) 
0.82983

>  <ref_mols>  (4476) 
Z0875a,Z0089a

>  <ref_pdb>  (4476) 
Z0719a

>  <HIPPO Compound ID>  (4476) 
144709

>  <name>  (4476) 
CCLQAKSUPGBLSY-UHFFFAOYSA-N-P7-P7-P52-601529

>  <inspiration_score>  (4476) 
None

$$$$
PWSLNZZNHOFCIR-UHFFFAOYSA-N-P7-P7-P52-601529
     RDKit          3D

 14 14  0  0  0  0  0  0  0  0999 V2000
   -9.8387    3.8842  -18.2023 C   0  0  0  0  0  0  0  0  0  0  0  0
   -8.6829    4.1808  -18.0842 C   0  0  0  0  0  0  0  0  0  0  0  0
   -7.4168    4.7051  -17.7000 C   0  0  0  0  0  0  0  0  0  0  0  0
   -7.3397    5.3551  -16.4790 C   0  0  0  0  0  0  0  0  0  0  0  0
   -6.2587    6.0568  -16.0986 N   0  0  0  0  0  0  0  0  0  0  0  0
   -5.2334    5.9967  -16.9772 C   0  0  0  0  0  0  0  0  0  0  0  0
   -5.2357    5.2419  -18.1564 C   0  0  0  0  0  0  0  0  0  0  0  0
   -4.1287    4.9871  -18.9220 N   0  0  0  0  0  0  0  0  0  0  0  0
   -2.7469    5.4304  -18.7914 C   0  0  0  0  0  0  0  0  0  0  0  0
   -1.8521    4.4581  -19.5783 C   0  0  0  0  0  0  0  0  0  0  0  0
   -2.6294    6.8339  -19.4022 C   0  0  0  0  0  0  0  0  0  0  0  0
   -2.2157    5.4387  -17.3656 C   0  0  0  0  0  0  0  0  0  0  0  0
   -2.5734    4.6482  -16.3415 C   0  0  0  0  0  0  0  0  0  0  0  0
   -6.3731    4.6288  -18.5571 N   0  0  0  0  0  0  0  0  0  0  0  0
  1  2  3  0
  2  3  1  0
  3  4  2  0
  4  5  1  0
  5  6  2  0
  6  7  1  0
  7  8  1  0
  8  9  1  0
  9 10  1  0
  9 11  1  0
  9 12  1  0
 12 13  2  0
  7 14  2  0
 14  3  1  0
M  END
>  <energy_score>  (4477) 
-26.331455

>  <alias>  (4477) 
PWSLNZZNHOFCIR-UHFFFAOYSA-N-P7-P7-P52-601529

>  <HIPPO Pose ID>  (4477) 
84379

>  <smiles>  (4477) 
C#Cc1cncc(NC(C)(C)C=C)n1

>  <inchikey>  (4477) 
PWSLNZZNHOFCIR-UHFFFAOYSA-N

>  <distance_score>  (4477) 
1.120544

>  <ref_mols>  (4477) 
Z0875a,Z0089a

>  <ref_pdb>  (4477) 
Z0719a

>  <HIPPO Compound ID>  (4477) 
144711

>  <name>  (4477) 
PWSLNZZNHOFCIR-UHFFFAOYSA-N-P7-P7-P52-601529

>  <inspiration_score>  (4477) 
None

$$$$
JGUQWXFUPWJNDU-UHFFFAOYSA-N-P52-P7-P52-601530
     RDKit          3D

 14 14  0  0  0  0  0  0  0  0999 V2000
   -1.4254    4.0430  -20.0745 C   0  0  0  0  0  0  0  0  0  0  0  0
   -2.3439    4.6470  -19.3166 C   0  0  0  0  0  0  0  0  0  0  0  0
   -2.8383    6.0660  -19.4236 C   0  0  0  0  0  0  0  0  0  0  0  0
   -2.3649    6.8628  -18.2079 C   0  0  0  0  0  0  0  0  0  0  0  0
   -2.3159    6.8331  -20.6629 C   0  0  0  0  0  0  0  0  0  0  0  0
   -4.2880    6.0107  -19.5798 N   0  0  0  0  0  0  0  0  0  0  0  0
   -5.2235    5.5777  -18.6743 C   0  0  0  0  0  0  0  0  0  0  0  0
   -5.2901    5.9183  -17.3234 C   0  0  0  0  0  0  0  0  0  0  0  0
   -6.3118    5.5750  -16.5008 N   0  0  0  0  0  0  0  0  0  0  0  0
   -7.3005    4.8734  -17.1053 C   0  0  0  0  0  0  0  0  0  0  0  0
   -8.4522    4.5322  -16.2685 C   0  0  0  0  0  0  0  0  0  0  0  0
   -9.4603    4.0193  -16.7360 O   0  0  0  0  0  0  0  0  0  0  0  0
   -7.2617    4.5216  -18.4396 C   0  0  0  0  0  0  0  0  0  0  0  0
   -6.2094    4.8476  -19.2288 N   0  0  0  0  0  0  0  0  0  0  0  0
  1  2  2  0
  2  3  1  0
  3  4  1  0
  3  5  1  0
  3  6  1  0
  6  7  1  0
  7  8  2  0
  8  9  1  0
  9 10  2  0
 10 11  1  0
 11 12  2  0
 10 13  1  0
 13 14  2  0
 14  7  1  0
M  END
>  <energy_score>  (4478) 
-31.487133

>  <alias>  (4478) 
JGUQWXFUPWJNDU-UHFFFAOYSA-N-P52-P7-P52-601530

>  <HIPPO Pose ID>  (4478) 
84384

>  <smiles>  (4478) 
C=CC(C)(C)Nc1cnc(C=O)cn1

>  <inchikey>  (4478) 
JGUQWXFUPWJNDU-UHFFFAOYSA-N

>  <distance_score>  (4478) 
0.812103

>  <ref_mols>  (4478) 
Z0875a,Z0089a

>  <ref_pdb>  (4478) 
Z0089a

>  <HIPPO Compound ID>  (4478) 
144713

>  <name>  (4478) 
JGUQWXFUPWJNDU-UHFFFAOYSA-N-P52-P7-P52-601530

>  <inspiration_score>  (4478) 
None

$$$$
JVBQOFNQOFUTBR-UHFFFAOYSA-N-P52-P7-P52-601530
     RDKit          3D

 14 14  0  0  0  0  0  0  0  0999 V2000
   -1.1399    5.5295  -20.7812 C   0  0  0  0  0  0  0  0  0  0  0  0
   -1.7481    4.9979  -19.7094 C   0  0  0  0  0  0  0  0  0  0  0  0
   -2.6689    5.7017  -18.7115 C   0  0  0  0  0  0  0  0  0  0  0  0
   -2.9803    7.1490  -19.1049 C   0  0  0  0  0  0  0  0  0  0  0  0
   -1.9482    5.6568  -17.3606 C   0  0  0  0  0  0  0  0  0  0  0  0
   -3.8764    4.8907  -18.7378 N   0  0  0  0  0  0  0  0  0  0  0  0
   -5.1224    5.0690  -18.2063 C   0  0  0  0  0  0  0  0  0  0  0  0
   -6.0407    4.6006  -19.0897 N   0  0  0  0  0  0  0  0  0  0  0  0
   -7.3370    4.5697  -18.7143 C   0  0  0  0  0  0  0  0  0  0  0  0
   -7.7420    5.0178  -17.4821 C   0  0  0  0  0  0  0  0  0  0  0  0
   -6.8754    5.5492  -16.5963 N   0  0  0  0  0  0  0  0  0  0  0  0
   -5.5556    5.5407  -16.9606 C   0  0  0  0  0  0  0  0  0  0  0  0
   -4.7217    6.0648  -15.9186 C   0  0  0  0  0  0  0  0  0  0  0  0
   -4.0926    6.5398  -15.0612 N   0  0  0  0  0  0  0  0  0  0  0  0
  1  2  2  0
  2  3  1  0
  3  4  1  0
  3  5  1  0
  3  6  1  0
  6  7  1  0
  7  8  2  0
  8  9  1  0
  9 10  2  0
 10 11  1  0
 11 12  2  0
 12 13  1  0
 13 14  3  0
 12  7  1  0
M  END
>  <energy_score>  (4479) 
-16.464905

>  <alias>  (4479) 
JVBQOFNQOFUTBR-UHFFFAOYSA-N-P52-P7-P52-601530

>  <HIPPO Pose ID>  (4479) 
84388

>  <smiles>  (4479) 
C=CC(C)(C)Nc1nccnc1C#N

>  <inchikey>  (4479) 
JVBQOFNQOFUTBR-UHFFFAOYSA-N

>  <distance_score>  (4479) 
0.937407

>  <ref_mols>  (4479) 
Z0875a,Z0089a

>  <ref_pdb>  (4479) 
Z0089a

>  <HIPPO Compound ID>  (4479) 
144715

>  <name>  (4479) 
JVBQOFNQOFUTBR-UHFFFAOYSA-N-P52-P7-P52-601530

>  <inspiration_score>  (4479) 
None

$$$$
KVCHECGAXHSKEP-UHFFFAOYSA-N-P52-P7-P52-601530
     RDKit          3D

 14 14  0  0  0  0  0  0  0  0999 V2000
   -0.7709    5.6168  -20.8751 C   0  0  0  0  0  0  0  0  0  0  0  0
   -1.2790    5.0468  -19.7704 C   0  0  0  0  0  0  0  0  0  0  0  0
   -2.3172    5.6266  -18.8181 C   0  0  0  0  0  0  0  0  0  0  0  0
   -2.6805    7.0721  -19.1751 C   0  0  0  0  0  0  0  0  0  0  0  0
   -1.7564    5.5858  -17.3935 C   0  0  0  0  0  0  0  0  0  0  0  0
   -3.4447    4.7391  -19.0107 N   0  0  0  0  0  0  0  0  0  0  0  0
   -4.7074    4.7898  -18.4842 C   0  0  0  0  0  0  0  0  0  0  0  0
   -5.6464    4.3203  -19.2710 N   0  0  0  0  0  0  0  0  0  0  0  0
   -6.9382    4.4791  -18.8504 C   0  0  0  0  0  0  0  0  0  0  0  0
   -7.2902    5.3572  -17.9082 C   0  0  0  0  0  0  0  0  0  0  0  0
   -6.3247    6.1065  -17.2432 N   0  0  0  0  0  0  0  0  0  0  0  0
   -6.0703    7.3931  -17.8643 C   0  0  0  0  0  0  0  0  0  0  0  0
   -5.0887    5.4576  -17.1275 C   0  0  0  0  0  0  0  0  0  0  0  0
   -4.3642    5.5326  -16.1497 O   0  0  0  0  0  0  0  0  0  0  0  0
  1  2  2  0
  2  3  1  0
  3  4  1  0
  3  5  1  0
  3  6  1  0
  6  7  1  0
  7  8  2  0
  8  9  1  0
  9 10  2  0
 10 11  1  0
 11 12  1  0
 11 13  1  0
 13 14  2  0
 13  7  1  0
M  END
>  <energy_score>  (4480) 
-96.342851

>  <alias>  (4480) 
KVCHECGAXHSKEP-UHFFFAOYSA-N-P52-P7-P52-601530

>  <HIPPO Pose ID>  (4480) 
84390

>  <smiles>  (4480) 
C=CC(C)(C)Nc1nccn(C)c1=O

>  <inchikey>  (4480) 
KVCHECGAXHSKEP-UHFFFAOYSA-N

>  <distance_score>  (4480) 
1.043845

>  <ref_mols>  (4480) 
Z0875a,Z0089a

>  <ref_pdb>  (4480) 
Z0089a

>  <HIPPO Compound ID>  (4480) 
144716

>  <name>  (4480) 
KVCHECGAXHSKEP-UHFFFAOYSA-N-P52-P7-P52-601530

>  <inspiration_score>  (4480) 
None

$$$$
RSFFEBWLBIOROK-UHFFFAOYSA-N-P52-P7-P52-601530
     RDKit          3D

 14 14  0  0  0  0  0  0  0  0999 V2000
   -1.1149    5.6113  -21.0830 C   0  0  0  0  0  0  0  0  0  0  0  0
   -1.9117    5.1773  -20.0936 C   0  0  0  0  0  0  0  0  0  0  0  0
   -3.0781    5.9301  -19.4640 C   0  0  0  0  0  0  0  0  0  0  0  0
   -2.4959    6.6089  -18.2243 C   0  0  0  0  0  0  0  0  0  0  0  0
   -3.6930    7.0066  -20.3790 C   0  0  0  0  0  0  0  0  0  0  0  0
   -4.0772    4.8878  -19.2183 N   0  0  0  0  0  0  0  0  0  0  0  0
   -5.1568    5.0297  -18.3587 C   0  0  0  0  0  0  0  0  0  0  0  0
   -5.0613    5.3675  -17.0097 C   0  0  0  0  0  0  0  0  0  0  0  0
   -6.1227    5.4817  -16.1811 N   0  0  0  0  0  0  0  0  0  0  0  0
   -7.3030    5.1345  -16.7408 C   0  0  0  0  0  0  0  0  0  0  0  0
   -7.4334    4.7363  -18.0661 C   0  0  0  0  0  0  0  0  0  0  0  0
   -8.6056    4.3417  -18.6523 O   0  0  0  0  0  0  0  0  0  0  0  0
   -9.7211    4.2182  -17.7816 C   0  0  0  0  0  0  0  0  0  0  0  0
   -6.3553    4.7065  -18.8884 N   0  0  0  0  0  0  0  0  0  0  0  0
  1  2  2  0
  2  3  1  0
  3  4  1  0
  3  5  1  0
  3  6  1  0
  6  7  1  0
  7  8  2  0
  8  9  1  0
  9 10  2  0
 10 11  1  0
 11 12  1  0
 12 13  1  0
 11 14  2  0
 14  7  1  0
M  END
>  <energy_score>  (4481) 
-19.933412

>  <alias>  (4481) 
RSFFEBWLBIOROK-UHFFFAOYSA-N-P52-P7-P52-601530

>  <HIPPO Pose ID>  (4481) 
84394

>  <smiles>  (4481) 
C=CC(C)(C)Nc1cncc(OC)n1

>  <inchikey>  (4481) 
RSFFEBWLBIOROK-UHFFFAOYSA-N

>  <distance_score>  (4481) 
0.838634

>  <ref_mols>  (4481) 
Z0875a,Z0089a

>  <ref_pdb>  (4481) 
Z0089a

>  <HIPPO Compound ID>  (4481) 
144718

>  <name>  (4481) 
RSFFEBWLBIOROK-UHFFFAOYSA-N-P52-P7-P52-601530

>  <inspiration_score>  (4481) 
None

$$$$
GXPFHYHGTCZCAC-UHFFFAOYSA-N-P7-P7-P52-601530
     RDKit          3D

 14 16  0  0  0  0  0  0  0  0999 V2000
   -4.6733    5.3445  -17.4480 C   0  0  0  0  0  0  0  0  0  0  0  0
   -5.5935    5.0339  -16.5054 N   0  0  0  0  0  0  0  0  0  0  0  0
   -6.8012    4.6155  -16.9570 C   0  0  0  0  0  0  0  0  0  0  0  0
   -7.8051    4.1449  -15.9500 C   0  0  0  0  0  0  0  0  0  0  0  0
   -8.6187    5.1119  -15.1418 C   0  0  0  0  0  0  0  0  0  0  0  0
   -9.2776    4.3002  -16.2152 C   0  0  0  0  0  0  0  0  0  0  0  0
   -7.0390    4.5603  -18.3278 C   0  0  0  0  0  0  0  0  0  0  0  0
   -6.1168    4.8825  -19.2594 N   0  0  0  0  0  0  0  0  0  0  0  0
   -4.9153    5.2692  -18.8136 C   0  0  0  0  0  0  0  0  0  0  0  0
   -4.0199    5.5638  -19.8300 N   0  0  0  0  0  0  0  0  0  0  0  0
   -2.6107    5.7720  -19.8634 C   0  0  0  0  0  0  0  0  0  0  0  0
   -1.7564    4.7163  -19.1206 C   0  0  0  0  0  0  0  0  0  0  0  0
   -0.5706    6.0241  -18.6409 S   0  0  0  0  0  0  0  0  0  0  0  0
   -2.0909    6.9592  -19.0166 C   0  0  0  0  0  0  0  0  0  0  0  0
  1  2  2  0
  2  3  1  0
  3  4  1  0
  4  5  1  0
  5  6  1  0
  3  7  2  0
  7  8  1  0
  8  9  2  0
  9 10  1  0
 10 11  1  0
 11 12  1  0
 12 13  1  0
 13 14  1  0
  9  1  1  0
 14 11  1  0
  6  4  1  0
M  END
>  <energy_score>  (4482) 
-19.849124

>  <alias>  (4482) 
GXPFHYHGTCZCAC-UHFFFAOYSA-N-P7-P7-P52-601530

>  <HIPPO Pose ID>  (4482) 
84397

>  <smiles>  (4482) 
c1nc(C2CC2)cnc1NC1CSC1

>  <inchikey>  (4482) 
GXPFHYHGTCZCAC-UHFFFAOYSA-N

>  <distance_score>  (4482) 
0.912086

>  <ref_mols>  (4482) 
Z0875a,Z0089a

>  <ref_pdb>  (4482) 
Z0089a

>  <HIPPO Compound ID>  (4482) 
144720

>  <name>  (4482) 
GXPFHYHGTCZCAC-UHFFFAOYSA-N-P7-P7-P52-601530

>  <inspiration_score>  (4482) 
None

$$$$
JDPAZZPTGAFRPM-UHFFFAOYSA-N-P7-P7-P52-601530
     RDKit          3D

 14 16  0  0  0  0  0  0  0  0999 V2000
   -7.5881    4.3551  -19.0174 C   0  0  0  0  0  0  0  0  0  0  0  0
   -6.3742    4.5066  -19.4663 N   0  0  0  0  0  0  0  0  0  0  0  0
   -5.3424    4.8284  -18.5972 C   0  0  0  0  0  0  0  0  0  0  0  0
   -4.1034    4.9302  -19.1819 N   0  0  0  0  0  0  0  0  0  0  0  0
   -2.8559    5.3408  -18.6239 C   0  0  0  0  0  0  0  0  0  0  0  0
   -1.6409    4.8790  -19.4838 C   0  0  0  0  0  0  0  0  0  0  0  0
   -0.7781    6.4348  -19.0508 S   0  0  0  0  0  0  0  0  0  0  0  0
   -2.5498    6.8418  -18.8855 C   0  0  0  0  0  0  0  0  0  0  0  0
   -5.5682    4.9995  -17.2725 C   0  0  0  0  0  0  0  0  0  0  0  0
   -6.8562    4.8459  -16.8001 N   0  0  0  0  0  0  0  0  0  0  0  0
   -7.4443    4.9335  -15.5745 C   0  0  0  0  0  0  0  0  0  0  0  0
   -8.7413    4.7368  -15.6778 N   0  0  0  0  0  0  0  0  0  0  0  0
   -9.0141    4.4567  -16.9976 N   0  0  0  0  0  0  0  0  0  0  0  0
   -7.8765    4.5341  -17.6404 C   0  0  0  0  0  0  0  0  0  0  0  0
  1  2  2  0
  2  3  1  0
  3  4  1  0
  4  5  1  0
  5  6  1  0
  6  7  1  0
  7  8  1  0
  3  9  2  0
  9 10  1  0
 10 11  1  0
 11 12  2  0
 12 13  1  0
 13 14  2  0
 14  1  1  0
  8  5  1  0
 14 10  1  0
M  END
>  <energy_score>  (4483) 
-23.642849

>  <alias>  (4483) 
JDPAZZPTGAFRPM-UHFFFAOYSA-N-P7-P7-P52-601530

>  <HIPPO Pose ID>  (4483) 
84403

>  <smiles>  (4483) 
c1nc(NC2CSC2)cn2cnnc12

>  <inchikey>  (4483) 
JDPAZZPTGAFRPM-UHFFFAOYSA-N

>  <distance_score>  (4483) 
1.670366

>  <ref_mols>  (4483) 
Z0875a,Z0089a

>  <ref_pdb>  (4483) 
Z0089a

>  <HIPPO Compound ID>  (4483) 
144723

>  <name>  (4483) 
JDPAZZPTGAFRPM-UHFFFAOYSA-N-P7-P7-P52-601530

>  <inspiration_score>  (4483) 
None

$$$$
QNMPKNIVEHOZGN-UHFFFAOYSA-N-P7-P7-P52-601530
     RDKit          3D

 14 16  0  0  0  0  0  0  0  0999 V2000
   -9.2110    4.1328  -17.1463 C   0  0  0  0  0  0  0  0  0  0  0  0
   -8.7021    4.2926  -18.4194 C   0  0  0  0  0  0  0  0  0  0  0  0
   -7.3287    4.5892  -18.2832 C   0  0  0  0  0  0  0  0  0  0  0  0
   -6.3828    4.8307  -19.2179 N   0  0  0  0  0  0  0  0  0  0  0  0
   -5.1582    5.0886  -18.7321 C   0  0  0  0  0  0  0  0  0  0  0  0
   -4.2174    5.3319  -19.7296 N   0  0  0  0  0  0  0  0  0  0  0  0
   -2.8352    5.6742  -19.7407 C   0  0  0  0  0  0  0  0  0  0  0  0
   -1.8978    4.6834  -19.0111 C   0  0  0  0  0  0  0  0  0  0  0  0
   -0.8337    6.0809  -18.4980 S   0  0  0  0  0  0  0  0  0  0  0  0
   -2.4286    6.8858  -18.8675 C   0  0  0  0  0  0  0  0  0  0  0  0
   -4.9088    5.1051  -17.3545 C   0  0  0  0  0  0  0  0  0  0  0  0
   -5.8319    4.8828  -16.3802 N   0  0  0  0  0  0  0  0  0  0  0  0
   -7.0345    4.6156  -16.9263 C   0  0  0  0  0  0  0  0  0  0  0  0
   -8.1807    4.3038  -16.2497 N   0  0  0  0  0  0  0  0  0  0  0  0
  1  2  2  0
  2  3  1  0
  3  4  2  0
  4  5  1  0
  5  6  1  0
  6  7  1  0
  7  8  1  0
  8  9  1  0
  9 10  1  0
  5 11  2  0
 11 12  1  0
 12 13  2  0
 13 14  1  0
 14  1  1  0
 13  3  1  0
 10  7  1  0
M  END
>  <energy_score>  (4484) 
-24.326407

>  <alias>  (4484) 
QNMPKNIVEHOZGN-UHFFFAOYSA-N-P7-P7-P52-601530

>  <HIPPO Pose ID>  (4484) 
84405

>  <smiles>  (4484) 
c1cc2nc(NC3CSC3)cnc2[nH]1

>  <inchikey>  (4484) 
QNMPKNIVEHOZGN-UHFFFAOYSA-N

>  <distance_score>  (4484) 
0.77387

>  <ref_mols>  (4484) 
Z0875a,Z0089a

>  <ref_pdb>  (4484) 
Z0089a

>  <HIPPO Compound ID>  (4484) 
144724

>  <name>  (4484) 
QNMPKNIVEHOZGN-UHFFFAOYSA-N-P7-P7-P52-601530

>  <inspiration_score>  (4484) 
None

$$$$
NRLHRDQTKQRYQO-UHFFFAOYSA-N-P52-P7-P52-601530
     RDKit          3D

 14 15  0  0  0  0  0  0  0  0999 V2000
   -1.6760    4.5172  -19.5669 C   0  0  0  0  0  0  0  0  0  0  0  0
   -2.6818    5.5498  -19.0528 C   0  0  1  0  0  0  0  0  0  0  0  0
   -2.4901    6.8802  -19.7988 C   0  0  0  0  0  0  0  0  0  0  0  0
   -3.5737    8.2232  -19.2118 S   0  0  0  0  0  0  0  0  0  0  0  0
   -4.0175    5.0048  -19.2390 N   0  0  0  0  0  0  0  0  0  0  0  0
   -5.0443    5.1252  -18.3316 C   0  0  0  0  0  0  0  0  0  0  0  0
   -4.9014    5.4780  -16.9905 C   0  0  0  0  0  0  0  0  0  0  0  0
   -5.9334    5.5967  -16.1302 N   0  0  0  0  0  0  0  0  0  0  0  0
   -7.1336    5.2779  -16.6579 C   0  0  0  0  0  0  0  0  0  0  0  0
   -7.3334    4.8946  -17.9841 C   0  0  0  0  0  0  0  0  0  0  0  0
   -8.6799    4.4706  -18.5113 C   0  0  0  0  0  0  0  0  0  0  0  0
   -9.4291    3.4145  -17.7475 C   0  0  0  0  0  0  0  0  0  0  0  0
  -10.0004    4.7829  -17.8424 C   0  0  0  0  0  0  0  0  0  0  0  0
   -6.2647    4.8424  -18.8257 N   0  0  0  0  0  0  0  0  0  0  0  0
  2  1  1  6
  2  3  1  0
  3  4  1  0
  2  5  1  0
  5  6  1  0
  6  7  2  0
  7  8  1  0
  8  9  2  0
  9 10  1  0
 10 11  1  0
 11 12  1  0
 12 13  1  0
 10 14  2  0
 14  6  1  0
 13 11  1  0
M  END
>  <energy_score>  (4485) 
-47.587837

>  <alias>  (4485) 
NRLHRDQTKQRYQO-UHFFFAOYSA-N-P52-P7-P52-601530

>  <HIPPO Pose ID>  (4485) 
84414

>  <smiles>  (4485) 
CC(CS)Nc1cncc(C2CC2)n1

>  <inchikey>  (4485) 
NRLHRDQTKQRYQO-UHFFFAOYSA-N

>  <distance_score>  (4485) 
1.00497

>  <ref_mols>  (4485) 
Z0875a,Z0089a

>  <ref_pdb>  (4485) 
Z0089a

>  <HIPPO Compound ID>  (4485) 
144728

>  <name>  (4485) 
NRLHRDQTKQRYQO-UHFFFAOYSA-N-P52-P7-P52-601530

>  <inspiration_score>  (4485) 
None

$$$$
SKXAIMDFLYSFCQ-UHFFFAOYSA-N-P7-P7-P52-601530
     RDKit          3D

 14 14  0  0  0  0  0  0  0  0999 V2000
   -1.6492    3.4200  -19.5305 C   0  0  0  0  0  0  0  0  0  0  0  0
   -2.0960    4.5116  -19.3206 C   0  0  0  0  0  0  0  0  0  0  0  0
   -2.5691    5.8703  -19.0235 C   0  0  0  0  0  0  0  0  0  0  0  0
   -1.8870    6.8494  -19.9930 C   0  0  0  0  0  0  0  0  0  0  0  0
   -2.1281    6.2615  -17.6103 C   0  0  0  0  0  0  0  0  0  0  0  0
   -3.9974    5.9716  -19.3017 N   0  0  0  0  0  0  0  0  0  0  0  0
   -5.0201    5.5720  -18.4774 C   0  0  0  0  0  0  0  0  0  0  0  0
   -5.1774    5.9298  -17.1436 C   0  0  0  0  0  0  0  0  0  0  0  0
   -6.2765    5.6520  -16.4110 N   0  0  0  0  0  0  0  0  0  0  0  0
   -7.2619    5.0023  -17.0592 C   0  0  0  0  0  0  0  0  0  0  0  0
   -8.3495    4.8162  -16.2705 O   0  0  0  0  0  0  0  0  0  0  0  0
   -9.4221    4.0974  -16.8457 C   0  0  0  0  0  0  0  0  0  0  0  0
   -7.1245    4.6488  -18.3938 C   0  0  0  0  0  0  0  0  0  0  0  0
   -6.0021    4.9103  -19.1107 N   0  0  0  0  0  0  0  0  0  0  0  0
  1  2  3  0
  2  3  1  0
  3  4  1  0
  3  5  1  0
  3  6  1  0
  6  7  1  0
  7  8  2  0
  8  9  1  0
  9 10  2  0
 10 11  1  0
 11 12  1  0
 10 13  1  0
 13 14  2  0
 14  7  1  0
M  END
>  <energy_score>  (4486) 
-24.185406

>  <alias>  (4486) 
SKXAIMDFLYSFCQ-UHFFFAOYSA-N-P7-P7-P52-601530

>  <HIPPO Pose ID>  (4486) 
84415

>  <smiles>  (4486) 
C#CC(C)(C)Nc1cnc(OC)cn1

>  <inchikey>  (4486) 
SKXAIMDFLYSFCQ-UHFFFAOYSA-N

>  <distance_score>  (4486) 
0.908355

>  <ref_mols>  (4486) 
Z0875a,Z0089a

>  <ref_pdb>  (4486) 
Z0089a

>  <HIPPO Compound ID>  (4486) 
144729

>  <name>  (4486) 
SKXAIMDFLYSFCQ-UHFFFAOYSA-N-P7-P7-P52-601530

>  <inspiration_score>  (4486) 
None

$$$$
VPHGVLKZGNVHAO-UHFFFAOYSA-N-P7-P7-P52-601530
     RDKit          3D

 14 14  0  0  0  0  0  0  0  0999 V2000
   -1.6972    3.5734  -19.5804 C   0  0  0  0  0  0  0  0  0  0  0  0
   -2.2378    4.6429  -19.5348 C   0  0  0  0  0  0  0  0  0  0  0  0
   -2.8591    5.9749  -19.4629 C   0  0  0  0  0  0  0  0  0  0  0  0
   -2.3477    6.7188  -18.2319 C   0  0  0  0  0  0  0  0  0  0  0  0
   -2.4139    6.8072  -20.6870 C   0  0  0  0  0  0  0  0  0  0  0  0
   -4.3070    5.8658  -19.5553 N   0  0  0  0  0  0  0  0  0  0  0  0
   -5.2188    5.4546  -18.6194 C   0  0  0  0  0  0  0  0  0  0  0  0
   -5.2453    5.7859  -17.2692 C   0  0  0  0  0  0  0  0  0  0  0  0
   -6.2793    5.5051  -16.4332 N   0  0  0  0  0  0  0  0  0  0  0  0
   -7.3330    4.8616  -16.9979 C   0  0  0  0  0  0  0  0  0  0  0  0
   -8.5120    4.5602  -16.1126 C   0  0  0  0  0  0  0  0  0  0  0  0
   -9.7119    4.3596  -16.8534 O   0  0  0  0  0  0  0  0  0  0  0  0
   -7.3044    4.5043  -18.3368 C   0  0  0  0  0  0  0  0  0  0  0  0
   -6.2542    4.7816  -19.1496 N   0  0  0  0  0  0  0  0  0  0  0  0
  1  2  3  0
  2  3  1  0
  3  4  1  0
  3  5  1  0
  3  6  1  0
  6  7  1  0
  7  8  2  0
  8  9  1  0
  9 10  2  0
 10 11  1  0
 11 12  1  0
 10 13  1  0
 13 14  2  0
 14  7  1  0
M  END
>  <energy_score>  (4487) 
-28.417275

>  <alias>  (4487) 
VPHGVLKZGNVHAO-UHFFFAOYSA-N-P7-P7-P52-601530

>  <HIPPO Pose ID>  (4487) 
84421

>  <smiles>  (4487) 
C#CC(C)(C)Nc1cnc(CO)cn1

>  <inchikey>  (4487) 
VPHGVLKZGNVHAO-UHFFFAOYSA-N

>  <distance_score>  (4487) 
0.908347

>  <ref_mols>  (4487) 
Z0875a,Z0089a

>  <ref_pdb>  (4487) 
Z0089a

>  <HIPPO Compound ID>  (4487) 
144732

>  <name>  (4487) 
VPHGVLKZGNVHAO-UHFFFAOYSA-N-P7-P7-P52-601530

>  <inspiration_score>  (4487) 
None

$$$$
RMHHMCZLTNBLGY-UHFFFAOYSA-N-P52-P7-P52-601530
     RDKit          3D

 14 14  0  0  0  0  0  0  0  0999 V2000
   -1.0205    5.0390  -20.2841 C   0  0  0  0  0  0  0  0  0  0  0  0
   -1.8549    5.3323  -19.4732 C   0  0  0  0  0  0  0  0  0  0  0  0
   -2.8733    5.8130  -18.5061 C   0  0  0  0  0  0  0  0  0  0  0  0
   -3.4700    7.1011  -19.0779 C   0  0  0  0  0  0  0  0  0  0  0  0
   -2.1715    6.0983  -17.1756 C   0  0  0  0  0  0  0  0  0  0  0  0
   -3.8536    4.7338  -18.3740 N   0  0  0  0  0  0  0  0  0  0  0  0
   -5.1764    4.9295  -18.0256 C   0  0  0  0  0  0  0  0  0  0  0  0
   -5.9884    4.5989  -19.0574 N   0  0  0  0  0  0  0  0  0  0  0  0
   -7.3197    4.6003  -18.8311 C   0  0  0  0  0  0  0  0  0  0  0  0
   -7.8519    4.9774  -17.6216 C   0  0  0  0  0  0  0  0  0  0  0  0
   -7.0777    5.3732  -16.5905 N   0  0  0  0  0  0  0  0  0  0  0  0
   -5.7290    5.2909  -16.7892 C   0  0  0  0  0  0  0  0  0  0  0  0
   -4.9928    5.4815  -15.5723 C   0  0  0  0  0  0  0  0  0  0  0  0
   -4.4632    5.6314  -14.5462 N   0  0  0  0  0  0  0  0  0  0  0  0
  1  2  3  0
  2  3  1  0
  3  4  1  0
  3  5  1  0
  3  6  1  0
  6  7  1  0
  7  8  2  0
  8  9  1  0
  9 10  2  0
 10 11  1  0
 11 12  2  0
 12 13  1  0
 13 14  3  0
 12  7  1  0
M  END
>  <energy_score>  (4488) 
-13.500533

>  <alias>  (4488) 
RMHHMCZLTNBLGY-UHFFFAOYSA-N-P52-P7-P52-601530

>  <HIPPO Pose ID>  (4488) 
84424

>  <smiles>  (4488) 
C#CC(C)(C)Nc1nccnc1C#N

>  <inchikey>  (4488) 
RMHHMCZLTNBLGY-UHFFFAOYSA-N

>  <distance_score>  (4488) 
1.141277

>  <ref_mols>  (4488) 
Z0875a,Z0089a

>  <ref_pdb>  (4488) 
Z0089a

>  <HIPPO Compound ID>  (4488) 
144733

>  <name>  (4488) 
RMHHMCZLTNBLGY-UHFFFAOYSA-N-P52-P7-P52-601530

>  <inspiration_score>  (4488) 
None

$$$$
LDIKXYYRMHWITG-UHFFFAOYSA-N-P52-P7-P52-601530
     RDKit          3D

 14 14  0  0  0  0  0  0  0  0999 V2000
   -1.5986    3.8318  -19.8079 C   0  0  0  0  0  0  0  0  0  0  0  0
   -2.2413    4.8398  -19.7201 C   0  0  0  0  0  0  0  0  0  0  0  0
   -3.0324    6.0746  -19.6099 C   0  0  0  0  0  0  0  0  0  0  0  0
   -2.5046    6.9293  -18.4581 C   0  0  0  0  0  0  0  0  0  0  0  0
   -2.8494    6.9170  -20.8933 C   0  0  0  0  0  0  0  0  0  0  0  0
   -4.4412    5.7432  -19.5386 N   0  0  0  0  0  0  0  0  0  0  0  0
   -5.2734    5.3596  -18.5315 C   0  0  0  0  0  0  0  0  0  0  0  0
   -5.0479    5.4716  -17.1643 C   0  0  0  0  0  0  0  0  0  0  0  0
   -5.9740    5.1936  -16.2165 N   0  0  0  0  0  0  0  0  0  0  0  0
   -7.1604    4.7599  -16.6996 C   0  0  0  0  0  0  0  0  0  0  0  0
   -7.4229    4.6268  -18.0549 C   0  0  0  0  0  0  0  0  0  0  0  0
   -8.6122    4.2251  -18.5960 O   0  0  0  0  0  0  0  0  0  0  0  0
   -9.7189    4.2230  -17.7098 C   0  0  0  0  0  0  0  0  0  0  0  0
   -6.4692    4.9131  -18.9690 N   0  0  0  0  0  0  0  0  0  0  0  0
  1  2  3  0
  2  3  1  0
  3  4  1  0
  3  5  1  0
  3  6  1  0
  6  7  1  0
  7  8  2  0
  8  9  1  0
  9 10  2  0
 10 11  1  0
 11 12  1  0
 12 13  1  0
 11 14  2  0
 14  7  1  0
M  END
>  <energy_score>  (4489) 
-28.840574

>  <alias>  (4489) 
LDIKXYYRMHWITG-UHFFFAOYSA-N-P52-P7-P52-601530

>  <HIPPO Pose ID>  (4489) 
84430

>  <smiles>  (4489) 
C#CC(C)(C)Nc1cncc(OC)n1

>  <inchikey>  (4489) 
LDIKXYYRMHWITG-UHFFFAOYSA-N

>  <distance_score>  (4489) 
0.799971

>  <ref_mols>  (4489) 
Z0875a,Z0089a

>  <ref_pdb>  (4489) 
Z0089a

>  <HIPPO Compound ID>  (4489) 
144736

>  <name>  (4489) 
LDIKXYYRMHWITG-UHFFFAOYSA-N-P52-P7-P52-601530

>  <inspiration_score>  (4489) 
None

$$$$
PQQSZOIKDKGIRW-UHFFFAOYSA-N-P52-P7-P52-601530
     RDKit          3D

 14 14  0  0  0  0  0  0  0  0999 V2000
   -1.5824    3.6663  -19.8238 C   0  0  0  0  0  0  0  0  0  0  0  0
   -2.1336    4.6597  -19.4452 C   0  0  0  0  0  0  0  0  0  0  0  0
   -2.7709    5.8804  -18.9304 C   0  0  0  0  0  0  0  0  0  0  0  0
   -2.2796    7.0735  -19.7647 C   0  0  0  0  0  0  0  0  0  0  0  0
   -2.3002    6.0967  -17.4910 C   0  0  0  0  0  0  0  0  0  0  0  0
   -4.2057    5.7861  -19.1493 N   0  0  0  0  0  0  0  0  0  0  0  0
   -5.2354    5.4863  -18.3037 C   0  0  0  0  0  0  0  0  0  0  0  0
   -5.3350    5.8229  -16.9604 C   0  0  0  0  0  0  0  0  0  0  0  0
   -6.4267    5.5973  -16.1949 N   0  0  0  0  0  0  0  0  0  0  0  0
   -7.4692    5.0109  -16.8248 C   0  0  0  0  0  0  0  0  0  0  0  0
   -8.6748    4.7339  -15.9892 C   0  0  0  0  0  0  0  0  0  0  0  0
   -7.4100    4.6807  -18.1774 C   0  0  0  0  0  0  0  0  0  0  0  0
   -8.6017    4.1344  -18.9018 C   0  0  0  0  0  0  0  0  0  0  0  0
   -6.2883    4.9103  -18.9136 N   0  0  0  0  0  0  0  0  0  0  0  0
  1  2  3  0
  2  3  1  0
  3  4  1  0
  3  5  1  0
  3  6  1  0
  6  7  1  0
  7  8  2  0
  8  9  1  0
  9 10  2  0
 10 11  1  0
 10 12  1  0
 12 13  1  0
 12 14  2  0
 14  7  1  0
M  END
>  <energy_score>  (4490) 
-20.986656

>  <alias>  (4490) 
PQQSZOIKDKGIRW-UHFFFAOYSA-N-P52-P7-P52-601530

>  <HIPPO Pose ID>  (4490) 
84432

>  <smiles>  (4490) 
C#CC(C)(C)Nc1cnc(C)c(C)n1

>  <inchikey>  (4490) 
PQQSZOIKDKGIRW-UHFFFAOYSA-N

>  <distance_score>  (4490) 
0.938394

>  <ref_mols>  (4490) 
Z0875a,Z0089a

>  <ref_pdb>  (4490) 
Z0089a

>  <HIPPO Compound ID>  (4490) 
144737

>  <name>  (4490) 
PQQSZOIKDKGIRW-UHFFFAOYSA-N-P52-P7-P52-601530

>  <inspiration_score>  (4490) 
None

$$$$
YLLBCMVGCROQHX-UHFFFAOYSA-N-P7-P7-P52-601530
     RDKit          3D

 14 16  0  0  0  0  0  0  0  0999 V2000
   -4.9344    5.1721  -16.9595 C   0  0  0  0  0  0  0  0  0  0  0  0
   -5.6067    5.0363  -15.7570 N   0  0  0  0  0  0  0  0  0  0  0  0
   -6.8646    4.6959  -15.8012 C   0  0  0  0  0  0  0  0  0  0  0  0
   -7.5231    4.4796  -17.0390 C   0  0  0  0  0  0  0  0  0  0  0  0
   -8.7675    4.1293  -17.2512 N   0  0  0  0  0  0  0  0  0  0  0  0
   -8.8980    3.9710  -18.6041 N   0  0  0  0  0  0  0  0  0  0  0  0
   -7.7269    4.2375  -19.1473 C   0  0  0  0  0  0  0  0  0  0  0  0
   -6.8183    4.6085  -18.2023 N   0  0  0  0  0  0  0  0  0  0  0  0
   -5.4589    4.9963  -18.2004 C   0  0  0  0  0  0  0  0  0  0  0  0
   -4.7851    5.1578  -19.4100 N   0  0  0  0  0  0  0  0  0  0  0  0
   -3.4307    5.5042  -19.7173 C   0  0  0  0  0  0  0  0  0  0  0  0
   -2.3418    4.6065  -19.1050 C   0  0  0  0  0  0  0  0  0  0  0  0
   -1.4957    5.8837  -18.9119 C   0  0  0  0  0  0  0  0  0  0  0  0
   -2.7982    6.7115  -19.0076 C   0  0  0  0  0  0  0  0  0  0  0  0
  1  2  1  0
  2  3  2  0
  3  4  1  0
  4  5  2  0
  5  6  1  0
  6  7  2  0
  7  8  1  0
  8  9  1  0
  9 10  1  0
 10 11  1  0
 11 12  1  0
 12 13  1  0
 13 14  1  0
  9  1  2  0
 14 11  1  0
  8  4  1  0
M  END
>  <energy_score>  (4491) 
-8.937019

>  <alias>  (4491) 
YLLBCMVGCROQHX-UHFFFAOYSA-N-P7-P7-P52-601530

>  <HIPPO Pose ID>  (4491) 
84439

>  <smiles>  (4491) 
c1ncc2nncn2c1NC1CCC1

>  <inchikey>  (4491) 
YLLBCMVGCROQHX-UHFFFAOYSA-N

>  <distance_score>  (4491) 
1.763653

>  <ref_mols>  (4491) 
Z0875a,Z0089a

>  <ref_pdb>  (4491) 
Z0089a

>  <HIPPO Compound ID>  (4491) 
144741

>  <name>  (4491) 
YLLBCMVGCROQHX-UHFFFAOYSA-N-P7-P7-P52-601530

>  <inspiration_score>  (4491) 
None

$$$$
VCAGNXWLTZYGFM-UHFFFAOYSA-N-P7-P7-P52-601530
     RDKit          3D

 14 16  0  0  0  0  0  0  0  0999 V2000
   -4.8780    5.7778  -19.4043 C   0  0  0  0  0  0  0  0  0  0  0  0
   -4.2724    6.0601  -18.2476 C   0  0  0  0  0  0  0  0  0  0  0  0
   -4.8382    5.5983  -17.0766 N   0  0  0  0  0  0  0  0  0  0  0  0
   -4.4144    5.7874  -15.8045 N   0  0  0  0  0  0  0  0  0  0  0  0
   -5.2391    5.0372  -15.0707 C   0  0  0  0  0  0  0  0  0  0  0  0
   -6.1844    4.3684  -15.8434 C   0  0  0  0  0  0  0  0  0  0  0  0
   -5.9851    4.8416  -17.1190 C   0  0  0  0  0  0  0  0  0  0  0  0
   -6.6432    4.6529  -18.3897 C   0  0  0  0  0  0  0  0  0  0  0  0
   -7.8310    3.9961  -18.5818 N   0  0  0  0  0  0  0  0  0  0  0  0
   -9.0337    4.6363  -18.1360 C   0  0  0  0  0  0  0  0  0  0  0  0
  -10.0971    3.5784  -17.8362 C   0  0  0  0  0  0  0  0  0  0  0  0
   -9.5886    3.6043  -16.3814 C   0  0  0  0  0  0  0  0  0  0  0  0
   -9.1485    5.0079  -16.6256 C   0  0  0  0  0  0  0  0  0  0  0  0
   -6.0611    5.0860  -19.4827 N   0  0  0  0  0  0  0  0  0  0  0  0
  1  2  2  0
  2  3  1  0
  3  4  1  0
  4  5  2  0
  5  6  1  0
  6  7  2  0
  7  8  1  0
  8  9  1  0
  9 10  1  0
 10 11  1  0
 11 12  1  0
 12 13  1  0
  8 14  2  0
 14  1  1  0
  7  3  1  0
 13 10  1  0
M  END
>  <energy_score>  (4492) 
-5.125965

>  <alias>  (4492) 
VCAGNXWLTZYGFM-UHFFFAOYSA-N-P7-P7-P52-601530

>  <HIPPO Pose ID>  (4492) 
84443

>  <smiles>  (4492) 
c1cn2nccc2c(NC2CCC2)n1

>  <inchikey>  (4492) 
VCAGNXWLTZYGFM-UHFFFAOYSA-N

>  <distance_score>  (4492) 
1.619589

>  <ref_mols>  (4492) 
Z0875a,Z0089a

>  <ref_pdb>  (4492) 
Z0089a

>  <HIPPO Compound ID>  (4492) 
144743

>  <name>  (4492) 
VCAGNXWLTZYGFM-UHFFFAOYSA-N-P7-P7-P52-601530

>  <inspiration_score>  (4492) 
None

$$$$
JIKJDWLWXMVRNH-UHFFFAOYSA-N-P7-P7-P52-601530
     RDKit          3D

 14 14  0  0  0  0  0  0  0  0999 V2000
   -8.9417    4.4103  -15.6657 C   0  0  0  0  0  0  0  0  0  0  0  0
   -8.0503    4.6804  -16.4169 C   0  0  0  0  0  0  0  0  0  0  0  0
   -6.9635    4.9558  -17.2804 C   0  0  0  0  0  0  0  0  0  0  0  0
   -6.9489    4.5514  -18.5983 C   0  0  0  0  0  0  0  0  0  0  0  0
   -5.8862    4.7897  -19.3989 N   0  0  0  0  0  0  0  0  0  0  0  0
   -4.8628    5.4851  -18.8698 C   0  0  0  0  0  0  0  0  0  0  0  0
   -3.9018    5.8186  -19.7908 N   0  0  0  0  0  0  0  0  0  0  0  0
   -2.4566    5.7359  -19.6057 C   0  0  0  0  0  0  0  0  0  0  0  0
   -2.0043    4.2991  -19.3379 C   0  0  0  0  0  0  0  0  0  0  0  0
   -1.9375    6.6791  -18.5181 C   0  0  0  0  0  0  0  0  0  0  0  0
   -1.8540    6.1881  -20.8902 C   0  0  0  0  0  0  0  0  0  0  0  0
   -1.3544    6.5666  -21.9158 C   0  0  0  0  0  0  0  0  0  0  0  0
   -4.9095    5.8902  -17.5379 C   0  0  0  0  0  0  0  0  0  0  0  0
   -5.9466    5.6337  -16.7093 N   0  0  0  0  0  0  0  0  0  0  0  0
  1  2  3  0
  2  3  1  0
  3  4  2  0
  4  5  1  0
  5  6  2  0
  6  7  1  0
  7  8  1  0
  8  9  1  0
  8 10  1  0
  8 11  1  0
 11 12  3  0
  6 13  1  0
 13 14  2  0
 14  3  1  0
M  END
>  <energy_score>  (4493) 
-24.079787

>  <alias>  (4493) 
JIKJDWLWXMVRNH-UHFFFAOYSA-N-P7-P7-P52-601530

>  <HIPPO Pose ID>  (4493) 
84447

>  <smiles>  (4493) 
C#Cc1cnc(NC(C)(C)C#C)cn1

>  <inchikey>  (4493) 
JIKJDWLWXMVRNH-UHFFFAOYSA-N

>  <distance_score>  (4493) 
1.021037

>  <ref_mols>  (4493) 
Z0875a,Z0089a

>  <ref_pdb>  (4493) 
Z0089a

>  <HIPPO Compound ID>  (4493) 
144745

>  <name>  (4493) 
JIKJDWLWXMVRNH-UHFFFAOYSA-N-P7-P7-P52-601530

>  <inspiration_score>  (4493) 
None

$$$$
QWFUDDXPGQMWAX-UHFFFAOYSA-N-P52-P7-P52-601530
     RDKit          3D

 14 14  0  0  0  0  0  0  0  0999 V2000
   -9.7867    4.3701  -18.1709 C   0  0  0  0  0  0  0  0  0  0  0  0
   -8.5998    4.4801  -18.0346 C   0  0  0  0  0  0  0  0  0  0  0  0
   -7.2341    4.6559  -17.6685 C   0  0  0  0  0  0  0  0  0  0  0  0
   -6.8670    4.4959  -16.3433 C   0  0  0  0  0  0  0  0  0  0  0  0
   -5.6030    4.6807  -15.9172 N   0  0  0  0  0  0  0  0  0  0  0  0
   -4.7332    5.0310  -16.8919 C   0  0  0  0  0  0  0  0  0  0  0  0
   -5.0801    5.2290  -18.2328 C   0  0  0  0  0  0  0  0  0  0  0  0
   -4.2296    5.6651  -19.2137 N   0  0  0  0  0  0  0  0  0  0  0  0
   -2.7957    5.9083  -19.1630 C   0  0  0  0  0  0  0  0  0  0  0  0
   -2.0403    4.5817  -19.2727 C   0  0  0  0  0  0  0  0  0  0  0  0
   -2.4323    6.7930  -20.3634 C   0  0  0  0  0  0  0  0  0  0  0  0
   -2.3669    6.6618  -17.9610 C   0  0  0  0  0  0  0  0  0  0  0  0
   -1.9978    7.2929  -17.0066 C   0  0  0  0  0  0  0  0  0  0  0  0
   -6.3578    5.0322  -18.6293 N   0  0  0  0  0  0  0  0  0  0  0  0
  1  2  3  0
  2  3  1  0
  3  4  2  0
  4  5  1  0
  5  6  2  0
  6  7  1  0
  7  8  1  0
  8  9  1  0
  9 10  1  0
  9 11  1  0
  9 12  1  0
 12 13  3  0
  7 14  2  0
 14  3  1  0
M  END
>  <energy_score>  (4494) 
-26.584665

>  <alias>  (4494) 
QWFUDDXPGQMWAX-UHFFFAOYSA-N-P52-P7-P52-601530

>  <HIPPO Pose ID>  (4494) 
84450

>  <smiles>  (4494) 
C#Cc1cncc(NC(C)(C)C#C)n1

>  <inchikey>  (4494) 
QWFUDDXPGQMWAX-UHFFFAOYSA-N

>  <distance_score>  (4494) 
1.178937

>  <ref_mols>  (4494) 
Z0875a,Z0089a

>  <ref_pdb>  (4494) 
Z0089a

>  <HIPPO Compound ID>  (4494) 
144746

>  <name>  (4494) 
QWFUDDXPGQMWAX-UHFFFAOYSA-N-P52-P7-P52-601530

>  <inspiration_score>  (4494) 
None

$$$$
SNJKAGNCZDFFHD-UHFFFAOYSA-N-P7-P7-P52-601530
     RDKit          3D

 14 16  0  0  0  0  0  0  0  0999 V2000
   -4.9259    5.3515  -17.0186 C   0  0  0  0  0  0  0  0  0  0  0  0
   -5.9197    5.2971  -16.1103 N   0  0  0  0  0  0  0  0  0  0  0  0
   -7.1290    4.9787  -16.6241 C   0  0  0  0  0  0  0  0  0  0  0  0
   -7.3749    4.7480  -17.9781 C   0  0  0  0  0  0  0  0  0  0  0  0
   -8.7268    4.3390  -18.5124 C   0  0  0  0  0  0  0  0  0  0  0  0
  -10.0562    4.6353  -17.8472 C   0  0  0  0  0  0  0  0  0  0  0  0
   -9.4901    3.2756  -17.7762 C   0  0  0  0  0  0  0  0  0  0  0  0
   -6.3424    4.8433  -18.8584 N   0  0  0  0  0  0  0  0  0  0  0  0
   -5.1173    5.1371  -18.3803 C   0  0  0  0  0  0  0  0  0  0  0  0
   -4.0975    5.2025  -19.3243 N   0  0  0  0  0  0  0  0  0  0  0  0
   -2.7322    5.5279  -19.1390 C   0  0  0  0  0  0  0  0  0  0  0  0
   -1.7703    4.5155  -19.7924 C   0  0  0  0  0  0  0  0  0  0  0  0
   -0.9405    5.7259  -20.2712 C   0  0  0  0  0  0  0  0  0  0  0  0
   -2.2280    6.5678  -20.1590 C   0  0  0  0  0  0  0  0  0  0  0  0
  1  2  2  0
  2  3  1  0
  3  4  2  0
  4  5  1  0
  5  6  1  0
  6  7  1  0
  4  8  1  0
  8  9  2  0
  9 10  1  0
 10 11  1  0
 11 12  1  0
 12 13  1  0
 13 14  1  0
  9  1  1  0
 14 11  1  0
  7  5  1  0
M  END
>  <energy_score>  (4495) 
-23.259196

>  <alias>  (4495) 
SNJKAGNCZDFFHD-UHFFFAOYSA-N-P7-P7-P52-601530

>  <HIPPO Pose ID>  (4495) 
84451

>  <smiles>  (4495) 
c1ncc(C2CC2)nc1NC1CCC1

>  <inchikey>  (4495) 
SNJKAGNCZDFFHD-UHFFFAOYSA-N

>  <distance_score>  (4495) 
1.089743

>  <ref_mols>  (4495) 
Z0875a,Z0089a

>  <ref_pdb>  (4495) 
Z0089a

>  <HIPPO Compound ID>  (4495) 
144747

>  <name>  (4495) 
SNJKAGNCZDFFHD-UHFFFAOYSA-N-P7-P7-P52-601530

>  <inspiration_score>  (4495) 
None

$$$$
UIJKQHFHNLYBQL-UHFFFAOYSA-N-P52-P7-P52-601530
     RDKit          3D

 14 16  0  0  0  0  0  0  0  0999 V2000
   -5.0170    5.2140  -17.0257 C   0  0  0  0  0  0  0  0  0  0  0  0
   -5.7313    5.0737  -15.8497 N   0  0  0  0  0  0  0  0  0  0  0  0
   -6.9798    4.7090  -15.9360 C   0  0  0  0  0  0  0  0  0  0  0  0
   -7.5914    4.4673  -17.1899 C   0  0  0  0  0  0  0  0  0  0  0  0
   -8.8204    4.1033  -17.4527 N   0  0  0  0  0  0  0  0  0  0  0  0
   -8.8479    3.9549  -18.8083 N   0  0  0  0  0  0  0  0  0  0  0  0
   -7.6556    4.2000  -19.3447 N   0  0  0  0  0  0  0  0  0  0  0  0
   -6.8472    4.5868  -18.3356 N   0  0  0  0  0  0  0  0  0  0  0  0
   -5.4939    5.0112  -18.2789 C   0  0  0  0  0  0  0  0  0  0  0  0
   -4.7949    5.1703  -19.4751 N   0  0  0  0  0  0  0  0  0  0  0  0
   -3.4677    5.6078  -19.7695 C   0  0  0  0  0  0  0  0  0  0  0  0
   -2.3338    4.7784  -19.1413 C   0  0  0  0  0  0  0  0  0  0  0  0
   -1.5687    6.1043  -18.9420 C   0  0  0  0  0  0  0  0  0  0  0  0
   -2.9197    6.8480  -19.0451 C   0  0  0  0  0  0  0  0  0  0  0  0
  1  2  1  0
  2  3  2  0
  3  4  1  0
  4  5  2  0
  5  6  1  0
  6  7  2  0
  7  8  1  0
  8  9  1  0
  9 10  1  0
 10 11  1  0
 11 12  1  0
 12 13  1  0
 13 14  1  0
  9  1  2  0
 14 11  1  0
  8  4  1  0
M  END
>  <energy_score>  (4496) 
-14.950617

>  <alias>  (4496) 
UIJKQHFHNLYBQL-UHFFFAOYSA-N-P52-P7-P52-601530

>  <HIPPO Pose ID>  (4496) 
84454

>  <smiles>  (4496) 
c1ncc2nnnn2c1NC1CCC1

>  <inchikey>  (4496) 
UIJKQHFHNLYBQL-UHFFFAOYSA-N

>  <distance_score>  (4496) 
1.439741

>  <ref_mols>  (4496) 
Z0875a,Z0089a

>  <ref_pdb>  (4496) 
Z0089a

>  <HIPPO Compound ID>  (4496) 
144748

>  <name>  (4496) 
UIJKQHFHNLYBQL-UHFFFAOYSA-N-P52-P7-P52-601530

>  <inspiration_score>  (4496) 
None

$$$$
YKCZZQUJHRVSBO-UHFFFAOYSA-N-P7-P7-P52-601530
     RDKit          3D

 14 15  0  0  0  0  0  0  0  0999 V2000
   -2.2005    4.5214  -18.9679 C   0  0  0  0  0  0  0  0  0  0  0  0
   -3.2206    5.4759  -19.5821 C   0  0  2  0  0  0  0  0  0  0  0  0
   -2.9830    6.9318  -19.1459 C   0  0  0  0  0  0  0  0  0  0  0  0
   -4.1066    8.0923  -20.0019 S   0  0  0  0  0  0  0  0  0  0  0  0
   -4.5989    5.0068  -19.3896 N   0  0  0  0  0  0  0  0  0  0  0  0
   -5.3794    4.9279  -18.2321 C   0  0  0  0  0  0  0  0  0  0  0  0
   -4.9612    5.1924  -16.9699 C   0  0  0  0  0  0  0  0  0  0  0  0
   -5.7350    5.1270  -15.8263 N   0  0  0  0  0  0  0  0  0  0  0  0
   -6.9816    4.7686  -15.9546 C   0  0  0  0  0  0  0  0  0  0  0  0
   -7.5385    4.4768  -17.2230 C   0  0  0  0  0  0  0  0  0  0  0  0
   -8.7640    4.1328  -17.5266 N   0  0  0  0  0  0  0  0  0  0  0  0
   -8.7387    3.9479  -18.8784 N   0  0  0  0  0  0  0  0  0  0  0  0
   -7.5187    4.1515  -19.3705 N   0  0  0  0  0  0  0  0  0  0  0  0
   -6.7416    4.5357  -18.3376 N   0  0  0  0  0  0  0  0  0  0  0  0
  2  1  1  1
  2  3  1  0
  3  4  1  0
  2  5  1  0
  5  6  1  0
  6  7  2  0
  7  8  1  0
  8  9  2  0
  9 10  1  0
 10 11  2  0
 11 12  1  0
 12 13  2  0
 13 14  1  0
 14  6  1  0
 14 10  1  0
M  END
>  <energy_score>  (4497) 
-35.226269

>  <alias>  (4497) 
YKCZZQUJHRVSBO-UHFFFAOYSA-N-P7-P7-P52-601530

>  <HIPPO Pose ID>  (4497) 
84459

>  <smiles>  (4497) 
CC(CS)Nc1cncc2nnnn12

>  <inchikey>  (4497) 
YKCZZQUJHRVSBO-UHFFFAOYSA-N

>  <distance_score>  (4497) 
1.433913

>  <ref_mols>  (4497) 
Z0875a,Z0089a

>  <ref_pdb>  (4497) 
Z0089a

>  <HIPPO Compound ID>  (4497) 
144751

>  <name>  (4497) 
YKCZZQUJHRVSBO-UHFFFAOYSA-N-P7-P7-P52-601530

>  <inspiration_score>  (4497) 
None

$$$$
BWHFRRFJEFCMJI-UHFFFAOYSA-N-P7-P7-P52-601530
     RDKit          3D

 14 16  0  0  0  0  0  0  0  0999 V2000
   -8.5786    4.1738  -18.8704 C   0  0  0  0  0  0  0  0  0  0  0  0
   -8.7240    4.2326  -17.5225 N   0  0  0  0  0  0  0  0  0  0  0  0
   -7.4903    4.4706  -17.1478 C   0  0  0  0  0  0  0  0  0  0  0  0
   -6.9828    4.6508  -15.8325 C   0  0  0  0  0  0  0  0  0  0  0  0
   -5.7375    4.9693  -15.6171 N   0  0  0  0  0  0  0  0  0  0  0  0
   -4.9104    5.1065  -16.7160 C   0  0  0  0  0  0  0  0  0  0  0  0
   -5.2758    4.9364  -18.0102 C   0  0  0  0  0  0  0  0  0  0  0  0
   -4.4419    5.0955  -19.1170 N   0  0  0  0  0  0  0  0  0  0  0  0
   -3.1097    5.6102  -19.1019 C   0  0  0  0  0  0  0  0  0  0  0  0
   -2.0625    4.6458  -19.6982 C   0  0  0  0  0  0  0  0  0  0  0  0
   -1.4195    5.8804  -20.3651 C   0  0  0  0  0  0  0  0  0  0  0  0
   -2.8040    6.5588  -20.2774 C   0  0  0  0  0  0  0  0  0  0  0  0
   -6.6296    4.5759  -18.2125 N   0  0  0  0  0  0  0  0  0  0  0  0
   -7.3297    4.2954  -19.3280 N   0  0  0  0  0  0  0  0  0  0  0  0
  1  2  1  0
  2  3  2  0
  3  4  1  0
  4  5  2  0
  5  6  1  0
  6  7  2  0
  7  8  1  0
  8  9  1  0
  9 10  1  0
 10 11  1  0
 11 12  1  0
  7 13  1  0
 13 14  1  0
 14  1  2  0
 13  3  1  0
 12  9  1  0
M  END
>  <energy_score>  (4498) 
-19.948905

>  <alias>  (4498) 
BWHFRRFJEFCMJI-UHFFFAOYSA-N-P7-P7-P52-601530

>  <HIPPO Pose ID>  (4498) 
84465

>  <smiles>  (4498) 
c1nc2cncc(NC3CCC3)n2n1

>  <inchikey>  (4498) 
BWHFRRFJEFCMJI-UHFFFAOYSA-N

>  <distance_score>  (4498) 
1.511798

>  <ref_mols>  (4498) 
Z0875a,Z0089a

>  <ref_pdb>  (4498) 
Z0089a

>  <HIPPO Compound ID>  (4498) 
144754

>  <name>  (4498) 
BWHFRRFJEFCMJI-UHFFFAOYSA-N-P7-P7-P52-601530

>  <inspiration_score>  (4498) 
None

$$$$
QYWZKPWVHVVEBE-UHFFFAOYSA-N-P52-P7-P52-601530
     RDKit          3D

 14 16  0  0  0  0  0  0  0  0999 V2000
   -8.6077    4.8262  -15.7854 C   0  0  0  0  0  0  0  0  0  0  0  0
   -9.0021    4.3777  -17.0049 N   0  0  0  0  0  0  0  0  0  0  0  0
   -7.9157    4.5577  -17.7125 C   0  0  0  0  0  0  0  0  0  0  0  0
   -7.6589    4.2385  -19.0698 C   0  0  0  0  0  0  0  0  0  0  0  0
   -6.4761    4.3986  -19.5856 N   0  0  0  0  0  0  0  0  0  0  0  0
   -5.4480    4.9251  -18.8190 C   0  0  0  0  0  0  0  0  0  0  0  0
   -4.2412    5.0264  -19.4819 N   0  0  0  0  0  0  0  0  0  0  0  0
   -3.1611    5.9214  -19.2444 C   0  0  0  0  0  0  0  0  0  0  0  0
   -1.8668    5.4109  -19.9377 C   0  0  0  0  0  0  0  0  0  0  0  0
   -1.0976    5.9244  -18.7067 C   0  0  0  0  0  0  0  0  0  0  0  0
   -2.4055    5.7329  -17.9135 C   0  0  0  0  0  0  0  0  0  0  0  0
   -5.6511    5.2777  -17.5302 C   0  0  0  0  0  0  0  0  0  0  0  0
   -6.9002    5.0871  -16.9679 N   0  0  0  0  0  0  0  0  0  0  0  0
   -7.3728    5.3338  -15.7232 N   0  0  0  0  0  0  0  0  0  0  0  0
  1  2  1  0
  2  3  2  0
  3  4  1  0
  4  5  2  0
  5  6  1  0
  6  7  1  0
  7  8  1  0
  8  9  1  0
  9 10  1  0
 10 11  1  0
  6 12  2  0
 12 13  1  0
 13 14  1  0
 14  1  2  0
 13  3  1  0
 11  8  1  0
M  END
>  <energy_score>  (4499) 
-17.137986

>  <alias>  (4499) 
QYWZKPWVHVVEBE-UHFFFAOYSA-N-P52-P7-P52-601530

>  <HIPPO Pose ID>  (4499) 
84472

>  <smiles>  (4499) 
c1nc2cnc(NC3CCC3)cn2n1

>  <inchikey>  (4499) 
QYWZKPWVHVVEBE-UHFFFAOYSA-N

>  <distance_score>  (4499) 
1.332208

>  <ref_mols>  (4499) 
Z0875a,Z0089a

>  <ref_pdb>  (4499) 
Z0089a

>  <HIPPO Compound ID>  (4499) 
144757

>  <name>  (4499) 
QYWZKPWVHVVEBE-UHFFFAOYSA-N-P52-P7-P52-601530

>  <inspiration_score>  (4499) 
None

$$$$
FGAIQCWREJGHQO-UHFFFAOYSA-N-P52-P7-P52-601530
     RDKit          3D

 14 16  0  0  0  0  0  0  0  0999 V2000
   -7.7006    4.3216  -19.0192 C   0  0  0  0  0  0  0  0  0  0  0  0
   -6.5081    4.4226  -19.5341 N   0  0  0  0  0  0  0  0  0  0  0  0
   -5.4495    4.8846  -18.7617 C   0  0  0  0  0  0  0  0  0  0  0  0
   -4.2451    4.9663  -19.4328 N   0  0  0  0  0  0  0  0  0  0  0  0
   -3.1725    5.8793  -19.2251 C   0  0  0  0  0  0  0  0  0  0  0  0
   -1.8811    5.3756  -19.9281 C   0  0  0  0  0  0  0  0  0  0  0  0
   -1.1019    5.9193  -18.7165 C   0  0  0  0  0  0  0  0  0  0  0  0
   -2.3961    5.7251  -17.9022 C   0  0  0  0  0  0  0  0  0  0  0  0
   -5.6203    5.1926  -17.4540 C   0  0  0  0  0  0  0  0  0  0  0  0
   -6.8798    5.0589  -16.9054 N   0  0  0  0  0  0  0  0  0  0  0  0
   -7.4109    5.2572  -15.6668 C   0  0  0  0  0  0  0  0  0  0  0  0
   -8.7073    5.0307  -15.6851 N   0  0  0  0  0  0  0  0  0  0  0  0
   -9.0383    4.6256  -16.9591 N   0  0  0  0  0  0  0  0  0  0  0  0
   -7.9324    4.6490  -17.6593 C   0  0  0  0  0  0  0  0  0  0  0  0
  1  2  2  0
  2  3  1  0
  3  4  1  0
  4  5  1  0
  5  6  1  0
  6  7  1  0
  7  8  1  0
  3  9  2  0
  9 10  1  0
 10 11  1  0
 11 12  2  0
 12 13  1  0
 13 14  2  0
 14  1  1  0
  8  5  1  0
 14 10  1  0
M  END
>  <energy_score>  (4500) 
-11.329305

>  <alias>  (4500) 
FGAIQCWREJGHQO-UHFFFAOYSA-N-P52-P7-P52-601530

>  <HIPPO Pose ID>  (4500) 
84474

>  <smiles>  (4500) 
c1nc(NC2CCC2)cn2cnnc12

>  <inchikey>  (4500) 
FGAIQCWREJGHQO-UHFFFAOYSA-N

>  <distance_score>  (4500) 
1.762706

>  <ref_mols>  (4500) 
Z0875a,Z0089a

>  <ref_pdb>  (4500) 
Z0089a

>  <HIPPO Compound ID>  (4500) 
144758

>  <name>  (4500) 
FGAIQCWREJGHQO-UHFFFAOYSA-N-P52-P7-P52-601530

>  <inspiration_score>  (4500) 
None

$$$$
ZNULNMQTSZWUAJ-UHFFFAOYSA-N-P7-P7-P52-601530
     RDKit          3D

 14 16  0  0  0  0  0  0  0  0999 V2000
   -9.4882    4.1442  -17.4972 C   0  0  0  0  0  0  0  0  0  0  0  0
   -8.7609    4.1524  -18.6703 C   0  0  0  0  0  0  0  0  0  0  0  0
   -7.4412    4.5418  -18.3490 C   0  0  0  0  0  0  0  0  0  0  0  0
   -6.3440    4.6857  -19.1323 N   0  0  0  0  0  0  0  0  0  0  0  0
   -5.2467    5.0905  -18.4701 C   0  0  0  0  0  0  0  0  0  0  0  0
   -4.0877    5.2126  -19.2492 N   0  0  0  0  0  0  0  0  0  0  0  0
   -2.7474    5.1065  -18.7696 C   0  0  0  0  0  0  0  0  0  0  0  0
   -1.7572    4.5525  -19.8116 C   0  0  0  0  0  0  0  0  0  0  0  0
   -1.4861    6.0023  -20.2586 C   0  0  0  0  0  0  0  0  0  0  0  0
   -1.9983    6.4554  -18.8759 C   0  0  0  0  0  0  0  0  0  0  0  0
   -5.2691    5.3802  -17.0974 C   0  0  0  0  0  0  0  0  0  0  0  0
   -6.3505    5.2602  -16.2825 N   0  0  0  0  0  0  0  0  0  0  0  0
   -7.4076    4.8018  -16.9829 C   0  0  0  0  0  0  0  0  0  0  0  0
   -8.6410    4.5034  -16.4740 N   0  0  0  0  0  0  0  0  0  0  0  0
  1  2  2  0
  2  3  1  0
  3  4  2  0
  4  5  1  0
  5  6  1  0
  6  7  1  0
  7  8  1  0
  8  9  1  0
  9 10  1  0
  5 11  2  0
 11 12  1  0
 12 13  2  0
 13 14  1  0
 14  1  1  0
 13  3  1  0
 10  7  1  0
M  END
>  <energy_score>  (4501) 
-18.196836

>  <alias>  (4501) 
ZNULNMQTSZWUAJ-UHFFFAOYSA-N-P7-P7-P52-601530

>  <HIPPO Pose ID>  (4501) 
84475

>  <smiles>  (4501) 
c1cc2nc(NC3CCC3)cnc2[nH]1

>  <inchikey>  (4501) 
ZNULNMQTSZWUAJ-UHFFFAOYSA-N

>  <distance_score>  (4501) 
0.781992

>  <ref_mols>  (4501) 
Z0875a,Z0089a

>  <ref_pdb>  (4501) 
Z0089a

>  <HIPPO Compound ID>  (4501) 
144759

>  <name>  (4501) 
ZNULNMQTSZWUAJ-UHFFFAOYSA-N-P7-P7-P52-601530

>  <inspiration_score>  (4501) 
None

$$$$
VMDVTTBZMBDEOM-UHFFFAOYSA-N-P7-P7-P52-601530
     RDKit          3D

 14 14  0  0  0  0  0  0  0  0999 V2000
   -8.5603    4.6295  -15.9673 C   0  0  0  0  0  0  0  0  0  0  0  0
   -7.3663    4.8929  -16.8257 C   0  0  0  0  0  0  0  0  0  0  0  0
   -6.2860    5.4023  -16.1926 N   0  0  0  0  0  0  0  0  0  0  0  0
   -5.1872    5.5930  -16.9606 C   0  0  0  0  0  0  0  0  0  0  0  0
   -5.1258    5.3154  -18.3188 C   0  0  0  0  0  0  0  0  0  0  0  0
   -4.0970    5.6122  -19.1751 N   0  0  0  0  0  0  0  0  0  0  0  0
   -2.6394    5.5731  -18.9747 C   0  0  0  0  0  0  0  0  0  0  0  0
   -2.1038    4.1912  -19.3603 C   0  0  0  0  0  0  0  0  0  0  0  0
   -2.0697    6.6190  -19.9517 C   0  0  0  0  0  0  0  0  0  0  0  0
   -2.1088    5.9509  -17.5811 C   0  0  0  0  0  0  0  0  0  0  0  0
   -2.4015    4.9829  -16.6716 F   0  0  0  0  0  0  0  0  0  0  0  0
   -6.2187    4.8223  -18.9358 N   0  0  0  0  0  0  0  0  0  0  0  0
   -7.3389    4.6055  -18.1894 C   0  0  0  0  0  0  0  0  0  0  0  0
   -8.5587    4.1173  -18.9129 C   0  0  0  0  0  0  0  0  0  0  0  0
  1  2  1  0
  2  3  2  0
  3  4  1  0
  4  5  2  0
  5  6  1  0
  6  7  1  0
  7  8  1  0
  7  9  1  0
  7 10  1  0
 10 11  1  0
  5 12  1  0
 12 13  2  0
 13 14  1  0
 13  2  1  0
M  END
>  <energy_score>  (4502) 
-34.856037

>  <alias>  (4502) 
VMDVTTBZMBDEOM-UHFFFAOYSA-N-P7-P7-P52-601530

>  <HIPPO Pose ID>  (4502) 
84477

>  <smiles>  (4502) 
Cc1ncc(NC(C)(C)CF)nc1C

>  <inchikey>  (4502) 
VMDVTTBZMBDEOM-UHFFFAOYSA-N

>  <distance_score>  (4502) 
0.800829

>  <ref_mols>  (4502) 
Z0875a,Z0089a

>  <ref_pdb>  (4502) 
Z0089a

>  <HIPPO Compound ID>  (4502) 
144760

>  <name>  (4502) 
VMDVTTBZMBDEOM-UHFFFAOYSA-N-P7-P7-P52-601530

>  <inspiration_score>  (4502) 
None

$$$$
IVDVYZALDXIGSX-UHFFFAOYSA-N-P7-P7-P52-601530
     RDKit          3D

 14 14  0  0  0  0  0  0  0  0999 V2000
   -9.7646    4.0585  -18.3280 C   0  0  0  0  0  0  0  0  0  0  0  0
   -8.5936    4.2650  -18.1695 C   0  0  0  0  0  0  0  0  0  0  0  0
   -7.2962    4.6429  -17.7177 C   0  0  0  0  0  0  0  0  0  0  0  0
   -7.1502    4.9569  -16.3776 C   0  0  0  0  0  0  0  0  0  0  0  0
   -6.0119    5.4647  -15.8782 N   0  0  0  0  0  0  0  0  0  0  0  0
   -5.0186    5.6060  -16.7890 C   0  0  0  0  0  0  0  0  0  0  0  0
   -5.1131    5.2524  -18.1378 C   0  0  0  0  0  0  0  0  0  0  0  0
   -4.1316    5.3946  -19.0804 N   0  0  0  0  0  0  0  0  0  0  0  0
   -2.6639    5.4974  -19.0013 C   0  0  0  0  0  0  0  0  0  0  0  0
   -2.0597    4.1782  -19.5032 C   0  0  0  0  0  0  0  0  0  0  0  0
   -2.2591    6.6357  -19.9507 C   0  0  0  0  0  0  0  0  0  0  0  0
   -2.0249    5.7878  -17.6321 C   0  0  0  0  0  0  0  0  0  0  0  0
   -2.3880    7.0200  -17.1819 F   0  0  0  0  0  0  0  0  0  0  0  0
   -6.2904    4.7798  -18.6168 N   0  0  0  0  0  0  0  0  0  0  0  0
  1  2  3  0
  2  3  1  0
  3  4  2  0
  4  5  1  0
  5  6  2  0
  6  7  1  0
  7  8  1  0
  8  9  1  0
  9 10  1  0
  9 11  1  0
  9 12  1  0
 12 13  1  0
  7 14  2  0
 14  3  1  0
M  END
>  <energy_score>  (4503) 
-20.894497

>  <alias>  (4503) 
IVDVYZALDXIGSX-UHFFFAOYSA-N-P7-P7-P52-601530

>  <HIPPO Pose ID>  (4503) 
84489

>  <smiles>  (4503) 
C#Cc1cncc(NC(C)(C)CF)n1

>  <inchikey>  (4503) 
IVDVYZALDXIGSX-UHFFFAOYSA-N

>  <distance_score>  (4503) 
1.106496

>  <ref_mols>  (4503) 
Z0875a,Z0089a

>  <ref_pdb>  (4503) 
Z0089a

>  <HIPPO Compound ID>  (4503) 
144766

>  <name>  (4503) 
IVDVYZALDXIGSX-UHFFFAOYSA-N-P7-P7-P52-601530

>  <inspiration_score>  (4503) 
None

$$$$
OAOCIHBRSKZWNN-UHFFFAOYSA-N-P7-P7-P52-601530
     RDKit          3D

 14 14  0  0  0  0  0  0  0  0999 V2000
   -9.6320    4.0121  -17.7858 C   0  0  0  0  0  0  0  0  0  0  0  0
   -8.5467    4.2911  -18.6550 O   0  0  0  0  0  0  0  0  0  0  0  0
   -7.3590    4.6171  -18.0626 C   0  0  0  0  0  0  0  0  0  0  0  0
   -7.1367    4.6840  -16.6958 C   0  0  0  0  0  0  0  0  0  0  0  0
   -5.9558    5.0650  -16.1597 N   0  0  0  0  0  0  0  0  0  0  0  0
   -4.9899    5.3502  -17.0648 C   0  0  0  0  0  0  0  0  0  0  0  0
   -5.1680    5.2937  -18.4424 C   0  0  0  0  0  0  0  0  0  0  0  0
   -4.2672    5.6512  -19.4045 N   0  0  0  0  0  0  0  0  0  0  0  0
   -2.8162    5.8649  -19.3985 C   0  0  0  0  0  0  0  0  0  0  0  0
   -2.1062    4.5068  -19.4770 C   0  0  0  0  0  0  0  0  0  0  0  0
   -2.2998    6.6553  -18.1952 C   0  0  0  0  0  0  0  0  0  0  0  0
   -2.4471    6.7112  -20.6476 C   0  0  0  0  0  0  0  0  0  0  0  0
   -2.8994    7.9895  -20.5052 F   0  0  0  0  0  0  0  0  0  0  0  0
   -6.3670    4.9176  -18.9356 N   0  0  0  0  0  0  0  0  0  0  0  0
  1  2  1  0
  2  3  1  0
  3  4  2  0
  4  5  1  0
  5  6  2  0
  6  7  1  0
  7  8  1  0
  8  9  1  0
  9 10  1  0
  9 11  1  0
  9 12  1  0
 12 13  1  0
  7 14  2  0
 14  3  1  0
M  END
>  <energy_score>  (4504) 
-22.392981

>  <alias>  (4504) 
OAOCIHBRSKZWNN-UHFFFAOYSA-N-P7-P7-P52-601530

>  <HIPPO Pose ID>  (4504) 
84491

>  <smiles>  (4504) 
COc1cncc(NC(C)(C)CF)n1

>  <inchikey>  (4504) 
OAOCIHBRSKZWNN-UHFFFAOYSA-N

>  <distance_score>  (4504) 
0.771631

>  <ref_mols>  (4504) 
Z0875a,Z0089a

>  <ref_pdb>  (4504) 
Z0089a

>  <HIPPO Compound ID>  (4504) 
144767

>  <name>  (4504) 
OAOCIHBRSKZWNN-UHFFFAOYSA-N-P7-P7-P52-601530

>  <inspiration_score>  (4504) 
None

$$$$
LPXJBBGQTMCXSQ-UHFFFAOYSA-N-P52-P7-P52-601530
     RDKit          3D

 14 14  0  0  0  0  0  0  0  0999 V2000
   -3.9627    6.9435  -15.2592 C   0  0  0  0  0  0  0  0  0  0  0  0
   -4.5494    6.3634  -16.1345 C   0  0  0  0  0  0  0  0  0  0  0  0
   -5.3411    5.6541  -17.0959 C   0  0  0  0  0  0  0  0  0  0  0  0
   -6.4858    5.2167  -16.4990 N   0  0  0  0  0  0  0  0  0  0  0  0
   -7.3889    4.6256  -17.3055 C   0  0  0  0  0  0  0  0  0  0  0  0
   -7.1663    4.4682  -18.6527 C   0  0  0  0  0  0  0  0  0  0  0  0
   -6.0255    4.8868  -19.2429 N   0  0  0  0  0  0  0  0  0  0  0  0
   -5.1001    5.5119  -18.4763 C   0  0  0  0  0  0  0  0  0  0  0  0
   -4.1211    6.0384  -19.2860 N   0  0  0  0  0  0  0  0  0  0  0  0
   -2.6566    5.9300  -19.2057 C   0  0  0  0  0  0  0  0  0  0  0  0
   -2.1887    4.4829  -19.0975 C   0  0  0  0  0  0  0  0  0  0  0  0
   -2.0731    6.7761  -18.0830 C   0  0  0  0  0  0  0  0  0  0  0  0
   -2.0827    6.5121  -20.5288 C   0  0  0  0  0  0  0  0  0  0  0  0
   -2.4811    5.7401  -21.5825 F   0  0  0  0  0  0  0  0  0  0  0  0
  1  2  3  0
  2  3  1  0
  3  4  2  0
  4  5  1  0
  5  6  2  0
  6  7  1  0
  7  8  2  0
  8  9  1  0
  9 10  1  0
 10 11  1  0
 10 12  1  0
 10 13  1  0
 13 14  1  0
  8  3  1  0
M  END
>  <energy_score>  (4505) 
-10.621625

>  <alias>  (4505) 
LPXJBBGQTMCXSQ-UHFFFAOYSA-N-P52-P7-P52-601530

>  <HIPPO Pose ID>  (4505) 
84494

>  <smiles>  (4505) 
C#Cc1nccnc1NC(C)(C)CF

>  <inchikey>  (4505) 
LPXJBBGQTMCXSQ-UHFFFAOYSA-N

>  <distance_score>  (4505) 
0.921209

>  <ref_mols>  (4505) 
Z0875a,Z0089a

>  <ref_pdb>  (4505) 
Z0089a

>  <HIPPO Compound ID>  (4505) 
144768

>  <name>  (4505) 
LPXJBBGQTMCXSQ-UHFFFAOYSA-N-P52-P7-P52-601530

>  <inspiration_score>  (4505) 
None

$$$$
OJIWNTNMTFJTSW-UHFFFAOYSA-N-P7-P7-P52-601530
     RDKit          3D

 14 14  0  0  0  0  0  0  0  0999 V2000
   -4.6935    6.4051  -14.7528 C   0  0  0  0  0  0  0  0  0  0  0  0
   -4.5859    6.6117  -16.1540 O   0  0  0  0  0  0  0  0  0  0  0  0
   -5.3696    5.7522  -16.8969 C   0  0  0  0  0  0  0  0  0  0  0  0
   -6.5349    5.3433  -16.3338 N   0  0  0  0  0  0  0  0  0  0  0  0
   -7.3796    4.6890  -17.1605 C   0  0  0  0  0  0  0  0  0  0  0  0
   -7.0930    4.4713  -18.4933 C   0  0  0  0  0  0  0  0  0  0  0  0
   -5.9280    4.8634  -19.0539 N   0  0  0  0  0  0  0  0  0  0  0  0
   -5.0553    5.5158  -18.2538 C   0  0  0  0  0  0  0  0  0  0  0  0
   -3.9830    6.0251  -18.9696 N   0  0  0  0  0  0  0  0  0  0  0  0
   -2.5697    5.6633  -18.7231 C   0  0  0  0  0  0  0  0  0  0  0  0
   -2.2678    4.2636  -19.2674 C   0  0  0  0  0  0  0  0  0  0  0  0
   -1.7627    6.6877  -19.5469 C   0  0  0  0  0  0  0  0  0  0  0  0
   -2.0695    5.7650  -17.2725 C   0  0  0  0  0  0  0  0  0  0  0  0
   -2.5935    4.7706  -16.5055 F   0  0  0  0  0  0  0  0  0  0  0  0
  1  2  1  0
  2  3  1  0
  3  4  2  0
  4  5  1  0
  5  6  2  0
  6  7  1  0
  7  8  2  0
  8  9  1  0
  9 10  1  0
 10 11  1  0
 10 12  1  0
 10 13  1  0
 13 14  1  0
  8  3  1  0
M  END
>  <energy_score>  (4506) 
-22.003559

>  <alias>  (4506) 
OJIWNTNMTFJTSW-UHFFFAOYSA-N-P7-P7-P52-601530

>  <HIPPO Pose ID>  (4506) 
84495

>  <smiles>  (4506) 
COc1nccnc1NC(C)(C)CF

>  <inchikey>  (4506) 
OJIWNTNMTFJTSW-UHFFFAOYSA-N

>  <distance_score>  (4506) 
0.929949

>  <ref_mols>  (4506) 
Z0875a,Z0089a

>  <ref_pdb>  (4506) 
Z0089a

>  <HIPPO Compound ID>  (4506) 
144769

>  <name>  (4506) 
OJIWNTNMTFJTSW-UHFFFAOYSA-N-P7-P7-P52-601530

>  <inspiration_score>  (4506) 
None

$$$$
IAOFVIVGXTXWRQ-UHFFFAOYSA-N-P52-P7-P52-601530
     RDKit          3D

 14 14  0  0  0  0  0  0  0  0999 V2000
   -2.3756    4.4682  -19.1269 C   0  0  0  0  0  0  0  0  0  0  0  0
   -2.6720    5.7867  -18.4121 C   0  0  0  0  0  0  0  0  0  0  0  0
   -1.8813    6.8979  -19.1373 C   0  0  0  0  0  0  0  0  0  0  0  0
   -2.1768    5.7304  -16.9592 C   0  0  0  0  0  0  0  0  0  0  0  0
   -0.8260    5.5458  -16.9389 F   0  0  0  0  0  0  0  0  0  0  0  0
   -4.0955    6.1707  -18.5614 N   0  0  0  0  0  0  0  0  0  0  0  0
   -5.1916    5.4691  -18.0973 C   0  0  0  0  0  0  0  0  0  0  0  0
   -5.9300    5.0048  -19.1310 N   0  0  0  0  0  0  0  0  0  0  0  0
   -7.1579    4.5083  -18.8535 C   0  0  0  0  0  0  0  0  0  0  0  0
   -7.6567    4.4659  -17.5732 C   0  0  0  0  0  0  0  0  0  0  0  0
   -6.9381    4.8937  -16.5180 N   0  0  0  0  0  0  0  0  0  0  0  0
   -5.6929    5.3785  -16.7892 C   0  0  0  0  0  0  0  0  0  0  0  0
   -5.0468    5.8577  -15.6031 C   0  0  0  0  0  0  0  0  0  0  0  0
   -4.5603    6.1833  -14.5971 N   0  0  0  0  0  0  0  0  0  0  0  0
  1  2  1  0
  2  3  1  0
  2  4  1  0
  4  5  1  0
  2  6  1  0
  6  7  1  0
  7  8  2  0
  8  9  1  0
  9 10  2  0
 10 11  1  0
 11 12  2  0
 12 13  1  0
 13 14  3  0
 12  7  1  0
M  END
>  <energy_score>  (4507) 
-18.465478

>  <alias>  (4507) 
IAOFVIVGXTXWRQ-UHFFFAOYSA-N-P52-P7-P52-601530

>  <HIPPO Pose ID>  (4507) 
84502

>  <smiles>  (4507) 
CC(C)(CF)Nc1nccnc1C#N

>  <inchikey>  (4507) 
IAOFVIVGXTXWRQ-UHFFFAOYSA-N

>  <distance_score>  (4507) 
1.086894

>  <ref_mols>  (4507) 
Z0875a,Z0089a

>  <ref_pdb>  (4507) 
Z0089a

>  <HIPPO Compound ID>  (4507) 
144772

>  <name>  (4507) 
IAOFVIVGXTXWRQ-UHFFFAOYSA-N-P52-P7-P52-601530

>  <inspiration_score>  (4507) 
None

$$$$
QINZYQXATUXGIU-UHFFFAOYSA-N-P52-P7-P52-601530
     RDKit          3D

 14 14  0  0  0  0  0  0  0  0999 V2000
   -6.8740    6.1522  -15.5752 C   0  0  0  0  0  0  0  0  0  0  0  0
   -6.5722    5.6459  -16.8776 N   0  0  0  0  0  0  0  0  0  0  0  0
   -7.5034    4.9363  -17.5918 C   0  0  0  0  0  0  0  0  0  0  0  0
   -7.1993    4.4511  -18.7965 C   0  0  0  0  0  0  0  0  0  0  0  0
   -6.0153    4.6678  -19.4429 N   0  0  0  0  0  0  0  0  0  0  0  0
   -5.0735    5.3284  -18.8121 C   0  0  0  0  0  0  0  0  0  0  0  0
   -4.0324    5.7098  -19.6320 N   0  0  0  0  0  0  0  0  0  0  0  0
   -2.5985    5.8610  -19.4077 C   0  0  0  0  0  0  0  0  0  0  0  0
   -1.9673    4.4885  -19.1876 C   0  0  0  0  0  0  0  0  0  0  0  0
   -2.2411    6.8224  -18.2805 C   0  0  0  0  0  0  0  0  0  0  0  0
   -1.9924    6.4811  -20.6927 C   0  0  0  0  0  0  0  0  0  0  0  0
   -2.2464    5.6662  -21.7552 F   0  0  0  0  0  0  0  0  0  0  0  0
   -5.2579    5.7311  -17.3136 C   0  0  0  0  0  0  0  0  0  0  0  0
   -4.3508    6.1218  -16.5929 O   0  0  0  0  0  0  0  0  0  0  0  0
  1  2  1  0
  2  3  1  0
  3  4  2  0
  4  5  1  0
  5  6  2  0
  6  7  1  0
  7  8  1  0
  8  9  1  0
  8 10  1  0
  8 11  1  0
 11 12  1  0
  6 13  1  0
 13 14  2  0
 13  2  1  0
M  END
>  <energy_score>  (4508) 
-18.041917

>  <alias>  (4508) 
QINZYQXATUXGIU-UHFFFAOYSA-N-P52-P7-P52-601530

>  <HIPPO Pose ID>  (4508) 
84504

>  <smiles>  (4508) 
Cn1ccnc(NC(C)(C)CF)c1=O

>  <inchikey>  (4508) 
QINZYQXATUXGIU-UHFFFAOYSA-N

>  <distance_score>  (4508) 
1.199686

>  <ref_mols>  (4508) 
Z0875a,Z0089a

>  <ref_pdb>  (4508) 
Z0089a

>  <HIPPO Compound ID>  (4508) 
144773

>  <name>  (4508) 
QINZYQXATUXGIU-UHFFFAOYSA-N-P52-P7-P52-601530

>  <inspiration_score>  (4508) 
None

$$$$
NKCCQPWQYMNJTD-UHFFFAOYSA-N-P7-P7-P52-601530
     RDKit          3D

 14 14  0  0  0  0  0  0  0  0999 V2000
   -1.5860    3.6359  -19.5745 C   0  0  0  0  0  0  0  0  0  0  0  0
   -2.3819    4.8537  -19.8998 C   0  0  0  0  0  0  0  0  0  0  0  0
   -2.5610    5.2001  -21.0725 O   0  0  0  0  0  0  0  0  0  0  0  0
   -2.9190    5.6611  -18.7198 C   0  0  1  0  0  0  0  0  0  0  0  0
   -2.0237    6.8811  -18.5516 C   0  0  0  0  0  0  0  0  0  0  0  0
   -4.2803    6.1172  -19.0174 N   0  0  0  0  0  0  0  0  0  0  0  0
   -5.3317    5.5366  -18.3200 C   0  0  0  0  0  0  0  0  0  0  0  0
   -6.2303    4.9500  -19.1346 N   0  0  0  0  0  0  0  0  0  0  0  0
   -7.3676    4.4833  -18.5734 C   0  0  0  0  0  0  0  0  0  0  0  0
   -7.5999    4.5660  -17.2166 C   0  0  0  0  0  0  0  0  0  0  0  0
   -6.7121    5.1281  -16.3670 N   0  0  0  0  0  0  0  0  0  0  0  0
   -5.5731    5.6079  -16.9370 C   0  0  0  0  0  0  0  0  0  0  0  0
   -4.6901    6.2548  -16.0077 C   0  0  0  0  0  0  0  0  0  0  0  0
   -3.9557    6.7642  -15.2618 N   0  0  0  0  0  0  0  0  0  0  0  0
  1  2  1  0
  2  3  2  0
  2  4  1  0
  4  5  1  6
  4  6  1  0
  6  7  1  0
  7  8  2  0
  8  9  1  0
  9 10  2  0
 10 11  1  0
 11 12  2  0
 12 13  1  0
 13 14  3  0
 12  7  1  0
M  END
>  <energy_score>  (4509) 
-27.017522

>  <alias>  (4509) 
NKCCQPWQYMNJTD-UHFFFAOYSA-N-P7-P7-P52-601530

>  <HIPPO Pose ID>  (4509) 
84509

>  <smiles>  (4509) 
CC(=O)C(C)Nc1nccnc1C#N

>  <inchikey>  (4509) 
NKCCQPWQYMNJTD-UHFFFAOYSA-N

>  <distance_score>  (4509) 
0.885365

>  <ref_mols>  (4509) 
Z0875a,Z0089a

>  <ref_pdb>  (4509) 
Z0089a

>  <HIPPO Compound ID>  (4509) 
144776

>  <name>  (4509) 
NKCCQPWQYMNJTD-UHFFFAOYSA-N-P7-P7-P52-601530

>  <inspiration_score>  (4509) 
None

$$$$
CUTVBUYIKDTVMW-UHFFFAOYSA-N-P52-P7-P52-601530
     RDKit          3D

 14 14  0  0  0  0  0  0  0  0999 V2000
   -9.1054    4.4277  -16.2454 C   0  0  0  0  0  0  0  0  0  0  0  0
   -8.0454    5.3590  -16.0955 O   0  0  0  0  0  0  0  0  0  0  0  0
   -7.0577    5.2079  -17.0195 C   0  0  0  0  0  0  0  0  0  0  0  0
   -7.2646    4.9118  -18.3574 C   0  0  0  0  0  0  0  0  0  0  0  0
   -6.2481    4.8346  -19.2471 N   0  0  0  0  0  0  0  0  0  0  0  0
   -5.0116    5.0710  -18.7807 C   0  0  0  0  0  0  0  0  0  0  0  0
   -4.0548    5.0191  -19.7624 N   0  0  0  0  0  0  0  0  0  0  0  0
   -2.7594    5.6791  -19.7239 C   0  0  2  0  0  0  0  0  0  0  0  0
   -1.7342    4.7640  -19.0750 C   0  0  0  0  0  0  0  0  0  0  0  0
   -2.7845    7.0860  -19.1220 C   0  0  0  0  0  0  0  0  0  0  0  0
   -3.6153    8.1172  -19.8465 C   0  0  0  0  0  0  0  0  0  0  0  0
   -2.1504    7.3877  -18.1095 O   0  0  0  0  0  0  0  0  0  0  0  0
   -4.8149    5.3378  -17.4279 C   0  0  0  0  0  0  0  0  0  0  0  0
   -5.8240    5.4449  -16.5334 N   0  0  0  0  0  0  0  0  0  0  0  0
  1  2  1  0
  2  3  1  0
  3  4  2  0
  4  5  1  0
  5  6  2  0
  6  7  1  0
  7  8  1  0
  8  9  1  1
  8 10  1  0
 10 11  1  0
 10 12  2  0
  6 13  1  0
 13 14  2  0
 14  3  1  0
M  END
>  <energy_score>  (4510) 
-16.549031

>  <alias>  (4510) 
CUTVBUYIKDTVMW-UHFFFAOYSA-N-P52-P7-P52-601530

>  <HIPPO Pose ID>  (4510) 
84514

>  <smiles>  (4510) 
COc1cnc(NC(C)C(C)=O)cn1

>  <inchikey>  (4510) 
CUTVBUYIKDTVMW-UHFFFAOYSA-N

>  <distance_score>  (4510) 
0.804455

>  <ref_mols>  (4510) 
Z0875a,Z0089a

>  <ref_pdb>  (4510) 
Z0089a

>  <HIPPO Compound ID>  (4510) 
144778

>  <name>  (4510) 
CUTVBUYIKDTVMW-UHFFFAOYSA-N-P52-P7-P52-601530

>  <inspiration_score>  (4510) 
None

$$$$
YXDFIMGFOPEZQP-UHFFFAOYSA-N-P7-P7-P52-601530
     RDKit          3D

 14 15  0  0  0  0  0  0  0  0999 V2000
   -1.9833    4.2386  -19.5547 C   0  0  0  0  0  0  0  0  0  0  0  0
   -2.8536    5.3162  -18.9148 C   0  0  1  0  0  0  0  0  0  0  0  0
   -2.5939    6.7221  -19.4535 C   0  0  0  0  0  0  0  0  0  0  0  0
   -2.9739    6.8942  -21.3561 Br  0  0  0  0  0  0  0  0  0  0  0  0
   -4.2681    4.9439  -18.9950 N   0  0  0  0  0  0  0  0  0  0  0  0
   -5.1970    4.9304  -17.9480 C   0  0  0  0  0  0  0  0  0  0  0  0
   -4.9214    5.2061  -16.6495 C   0  0  0  0  0  0  0  0  0  0  0  0
   -5.8235    5.1745  -15.6043 N   0  0  0  0  0  0  0  0  0  0  0  0
   -7.0558    4.8507  -15.8760 C   0  0  0  0  0  0  0  0  0  0  0  0
   -7.4775    4.5712  -17.2031 C   0  0  0  0  0  0  0  0  0  0  0  0
   -8.6866    4.3066  -17.6322 N   0  0  0  0  0  0  0  0  0  0  0  0
   -8.4611    4.1574  -18.9618 C   0  0  0  0  0  0  0  0  0  0  0  0
   -7.1855    4.2437  -19.3520 N   0  0  0  0  0  0  0  0  0  0  0  0
   -6.5504    4.5918  -18.2166 N   0  0  0  0  0  0  0  0  0  0  0  0
  2  1  1  6
  2  3  1  0
  3  4  1  0
  2  5  1  0
  5  6  1  0
  6  7  2  0
  7  8  1  0
  8  9  2  0
  9 10  1  0
 10 11  2  0
 11 12  1  0
 12 13  2  0
 13 14  1  0
 14  6  1  0
 14 10  1  0
M  END
>  <energy_score>  (4511) 
-36.932178

>  <alias>  (4511) 
YXDFIMGFOPEZQP-UHFFFAOYSA-N-P7-P7-P52-601530

>  <HIPPO Pose ID>  (4511) 
84517

>  <smiles>  (4511) 
CC(CBr)Nc1cncc2ncnn12

>  <inchikey>  (4511) 
YXDFIMGFOPEZQP-UHFFFAOYSA-N

>  <distance_score>  (4511) 
1.476209

>  <ref_mols>  (4511) 
Z0875a,Z0089a

>  <ref_pdb>  (4511) 
Z0089a

>  <HIPPO Compound ID>  (4511) 
144780

>  <name>  (4511) 
YXDFIMGFOPEZQP-UHFFFAOYSA-N-P7-P7-P52-601530

>  <inspiration_score>  (4511) 
None

$$$$
ZJDWMFDOZOIAMU-UHFFFAOYSA-N-P52-P7-P52-601530
     RDKit          3D

 14 14  0  0  0  0  0  0  0  0999 V2000
   -1.6209    4.6472  -19.5708 C   0  0  0  0  0  0  0  0  0  0  0  0
   -2.6412    5.5768  -18.9091 C   0  0  1  0  0  0  0  0  0  0  0  0
   -2.3941    7.0176  -19.3551 C   0  0  0  0  0  0  0  0  0  0  0  0
   -3.3492    8.2904  -18.2240 Br  0  0  0  0  0  0  0  0  0  0  0  0
   -3.9657    5.1195  -19.2907 N   0  0  0  0  0  0  0  0  0  0  0  0
   -5.0550    5.0417  -18.4629 C   0  0  0  0  0  0  0  0  0  0  0  0
   -5.0344    5.0545  -17.0669 C   0  0  0  0  0  0  0  0  0  0  0  0
   -6.1236    4.8383  -16.2898 N   0  0  0  0  0  0  0  0  0  0  0  0
   -7.2692    4.5792  -16.9719 C   0  0  0  0  0  0  0  0  0  0  0  0
   -8.4649    4.1010  -16.2373 C   0  0  0  0  0  0  0  0  0  0  0  0
   -9.5001    3.7508  -16.7772 O   0  0  0  0  0  0  0  0  0  0  0  0
   -8.2876    3.9906  -14.9040 O   0  0  0  0  0  0  0  0  0  0  0  0
   -7.3179    4.6163  -18.3549 C   0  0  0  0  0  0  0  0  0  0  0  0
   -6.2163    4.8513  -19.1124 N   0  0  0  0  0  0  0  0  0  0  0  0
  2  1  1  6
  2  3  1  0
  3  4  1  0
  2  5  1  0
  5  6  1  0
  6  7  2  0
  7  8  1  0
  8  9  2  0
  9 10  1  0
 10 11  2  0
 10 12  1  0
  9 13  1  0
 13 14  2  0
 14  6  1  0
M  END
>  <energy_score>  (4512) 
-33.395996

>  <alias>  (4512) 
ZJDWMFDOZOIAMU-UHFFFAOYSA-N-P52-P7-P52-601530

>  <HIPPO Pose ID>  (4512) 
84526

>  <smiles>  (4512) 
CC(CBr)Nc1cnc(C(=O)O)cn1

>  <inchikey>  (4512) 
ZJDWMFDOZOIAMU-UHFFFAOYSA-N

>  <distance_score>  (4512) 
0.771772

>  <ref_mols>  (4512) 
Z0875a,Z0089a

>  <ref_pdb>  (4512) 
Z0089a

>  <HIPPO Compound ID>  (4512) 
144784

>  <name>  (4512) 
ZJDWMFDOZOIAMU-UHFFFAOYSA-N-P52-P7-P52-601530

>  <inspiration_score>  (4512) 
None

$$$$
GLHIBDMJJCSABQ-UHFFFAOYSA-N-P7-P7-P52-601530
     RDKit          3D

 14 15  0  0  0  0  0  0  0  0999 V2000
   -2.0087    4.2598  -19.4291 C   0  0  0  0  0  0  0  0  0  0  0  0
   -2.8183    5.4431  -18.9020 C   0  0  1  0  0  0  0  0  0  0  0  0
   -2.2395    6.7503  -19.4489 C   0  0  0  0  0  0  0  0  0  0  0  0
   -2.9558    8.2954  -18.4899 Br  0  0  0  0  0  0  0  0  0  0  0  0
   -4.2063    5.3001  -19.3136 N   0  0  0  0  0  0  0  0  0  0  0  0
   -5.2859    5.1104  -18.4781 C   0  0  0  0  0  0  0  0  0  0  0  0
   -5.2961    5.4370  -17.1093 C   0  0  0  0  0  0  0  0  0  0  0  0
   -6.3545    5.3031  -16.2610 N   0  0  0  0  0  0  0  0  0  0  0  0
   -7.4050    4.8025  -16.9371 C   0  0  0  0  0  0  0  0  0  0  0  0
   -8.6434    4.5041  -16.4551 N   0  0  0  0  0  0  0  0  0  0  0  0
   -9.4082    4.1023  -17.5178 C   0  0  0  0  0  0  0  0  0  0  0  0
   -8.7114    4.0431  -18.6319 N   0  0  0  0  0  0  0  0  0  0  0  0
   -7.4590    4.4821  -18.2886 C   0  0  0  0  0  0  0  0  0  0  0  0
   -6.3802    4.6229  -19.0944 N   0  0  0  0  0  0  0  0  0  0  0  0
  2  1  1  6
  2  3  1  0
  3  4  1  0
  2  5  1  0
  5  6  1  0
  6  7  2  0
  7  8  1  0
  8  9  2  0
  9 10  1  0
 10 11  1  0
 11 12  2  0
 12 13  1  0
 13 14  2  0
 14  6  1  0
 13  9  1  0
M  END
>  <energy_score>  (4513) 
-28.688139

>  <alias>  (4513) 
GLHIBDMJJCSABQ-UHFFFAOYSA-N-P7-P7-P52-601530

>  <HIPPO Pose ID>  (4513) 
84527

>  <smiles>  (4513) 
CC(CBr)Nc1cnc2[nH]cnc2n1

>  <inchikey>  (4513) 
GLHIBDMJJCSABQ-UHFFFAOYSA-N

>  <distance_score>  (4513) 
0.780963

>  <ref_mols>  (4513) 
Z0875a,Z0089a

>  <ref_pdb>  (4513) 
Z0089a

>  <HIPPO Compound ID>  (4513) 
144785

>  <name>  (4513) 
GLHIBDMJJCSABQ-UHFFFAOYSA-N-P7-P7-P52-601530

>  <inspiration_score>  (4513) 
None

$$$$
JDXUUWVGFLQFKP-UHFFFAOYSA-N-P52-P7-P52-601530
     RDKit          3D

 14 15  0  0  0  0  0  0  0  0999 V2000
   -2.1359    4.7294  -19.0548 C   0  0  0  0  0  0  0  0  0  0  0  0
   -3.2306    5.6495  -19.5880 C   0  0  2  0  0  0  0  0  0  0  0  0
   -3.0473    7.0851  -19.0948 C   0  0  0  0  0  0  0  0  0  0  0  0
   -4.2724    8.3016  -20.0180 Br  0  0  0  0  0  0  0  0  0  0  0  0
   -4.5736    5.0849  -19.3725 N   0  0  0  0  0  0  0  0  0  0  0  0
   -5.3210    5.0041  -18.1910 C   0  0  0  0  0  0  0  0  0  0  0  0
   -4.8494    5.2333  -16.9382 C   0  0  0  0  0  0  0  0  0  0  0  0
   -5.5776    5.1668  -15.7633 N   0  0  0  0  0  0  0  0  0  0  0  0
   -6.8366    4.8355  -15.8487 C   0  0  0  0  0  0  0  0  0  0  0  0
   -7.4444    4.5700  -17.1031 C   0  0  0  0  0  0  0  0  0  0  0  0
   -8.6826    4.2230  -17.3544 N   0  0  0  0  0  0  0  0  0  0  0  0
   -8.7561    4.0139  -18.7054 N   0  0  0  0  0  0  0  0  0  0  0  0
   -7.5612    4.2542  -19.2087 C   0  0  0  0  0  0  0  0  0  0  0  0
   -6.6873    4.6402  -18.2384 N   0  0  0  0  0  0  0  0  0  0  0  0
  2  1  1  1
  2  3  1  0
  3  4  1  0
  2  5  1  0
  5  6  1  0
  6  7  2  0
  7  8  1  0
  8  9  2  0
  9 10  1  0
 10 11  2  0
 11 12  1  0
 12 13  2  0
 13 14  1  0
 14  6  1  0
 14 10  1  0
M  END
>  <energy_score>  (4514) 
-32.336233

>  <alias>  (4514) 
JDXUUWVGFLQFKP-UHFFFAOYSA-N-P52-P7-P52-601530

>  <HIPPO Pose ID>  (4514) 
84544

>  <smiles>  (4514) 
CC(CBr)Nc1cncc2nncn12

>  <inchikey>  (4514) 
JDXUUWVGFLQFKP-UHFFFAOYSA-N

>  <distance_score>  (4514) 
1.783059

>  <ref_mols>  (4514) 
Z0875a,Z0089a

>  <ref_pdb>  (4514) 
Z0089a

>  <HIPPO Compound ID>  (4514) 
144793

>  <name>  (4514) 
JDXUUWVGFLQFKP-UHFFFAOYSA-N-P52-P7-P52-601530

>  <inspiration_score>  (4514) 
None

$$$$
QCPMIQNCWWUSDL-UHFFFAOYSA-N-P52-P7-P52-601530
     RDKit          3D

 14 14  0  0  0  0  0  0  0  0999 V2000
   -1.6604    4.5905  -19.5914 C   0  0  0  0  0  0  0  0  0  0  0  0
   -2.9169    5.4531  -19.4385 C   0  0  2  0  0  0  0  0  0  0  0  0
   -2.5007    6.9297  -19.4638 C   0  0  0  0  0  0  0  0  0  0  0  0
   -4.0334    8.1262  -19.6415 Br  0  0  0  0  0  0  0  0  0  0  0  0
   -3.5344    5.0953  -18.1634 N   0  0  0  0  0  0  0  0  0  0  0  0
   -4.9367    5.1169  -18.1019 C   0  0  0  0  0  0  0  0  0  0  0  0
   -5.6196    4.6305  -19.1619 N   0  0  0  0  0  0  0  0  0  0  0  0
   -6.9669    4.5565  -19.0418 C   0  0  0  0  0  0  0  0  0  0  0  0
   -7.6404    4.9666  -17.9096 C   0  0  0  0  0  0  0  0  0  0  0  0
   -7.0021    5.4812  -16.8406 N   0  0  0  0  0  0  0  0  0  0  0  0
   -5.6428    5.5212  -16.9469 C   0  0  0  0  0  0  0  0  0  0  0  0
   -4.9009    6.0857  -15.7816 C   0  0  0  0  0  0  0  0  0  0  0  0
   -3.6957    6.2824  -15.7265 O   0  0  0  0  0  0  0  0  0  0  0  0
   -5.6922    6.4030  -14.7350 O   0  0  0  0  0  0  0  0  0  0  0  0
  2  1  1  1
  2  3  1  0
  3  4  1  0
  2  5  1  0
  5  6  1  0
  6  7  2  0
  7  8  1  0
  8  9  2  0
  9 10  1  0
 10 11  2  0
 11 12  1  0
 12 13  2  0
 12 14  1  0
 11  6  1  0
M  END
>  <energy_score>  (4515) 
-25.359548

>  <alias>  (4515) 
QCPMIQNCWWUSDL-UHFFFAOYSA-N-P52-P7-P52-601530

>  <HIPPO Pose ID>  (4515) 
84550

>  <smiles>  (4515) 
CC(CBr)Nc1nccnc1C(=O)O

>  <inchikey>  (4515) 
QCPMIQNCWWUSDL-UHFFFAOYSA-N

>  <distance_score>  (4515) 
1.225892

>  <ref_mols>  (4515) 
Z0875a,Z0089a

>  <ref_pdb>  (4515) 
Z0089a

>  <HIPPO Compound ID>  (4515) 
144796

>  <name>  (4515) 
QCPMIQNCWWUSDL-UHFFFAOYSA-N-P52-P7-P52-601530

>  <inspiration_score>  (4515) 
None

$$$$
SODYGZGOPRNJGX-UHFFFAOYSA-N-P7-P7-P52-601530
     RDKit          3D

 14 15  0  0  0  0  0  0  0  0999 V2000
   -2.0946    4.5555  -19.1073 C   0  0  0  0  0  0  0  0  0  0  0  0
   -3.1643    5.5378  -19.5778 C   0  0  2  0  0  0  0  0  0  0  0  0
   -2.9009    6.9556  -19.0694 C   0  0  0  0  0  0  0  0  0  0  0  0
   -4.0922    8.2422  -19.9427 Br  0  0  0  0  0  0  0  0  0  0  0  0
   -4.5158    5.0306  -19.3125 N   0  0  0  0  0  0  0  0  0  0  0  0
   -5.2137    4.9440  -18.1035 C   0  0  0  0  0  0  0  0  0  0  0  0
   -4.6817    5.1235  -16.8703 C   0  0  0  0  0  0  0  0  0  0  0  0
   -5.3607    5.0600  -15.6713 N   0  0  0  0  0  0  0  0  0  0  0  0
   -6.6323    4.7923  -15.7118 C   0  0  0  0  0  0  0  0  0  0  0  0
   -7.3249    4.5825  -16.9416 C   0  0  0  0  0  0  0  0  0  0  0  0
   -8.6467    4.3081  -17.2112 C   0  0  0  0  0  0  0  0  0  0  0  0
   -8.7473    4.1749  -18.6051 C   0  0  0  0  0  0  0  0  0  0  0  0
   -7.4782    4.3361  -19.1206 C   0  0  0  0  0  0  0  0  0  0  0  0
   -6.6013    4.6392  -18.1118 N   0  0  0  0  0  0  0  0  0  0  0  0
  2  1  1  1
  2  3  1  0
  3  4  1  0
  2  5  1  0
  5  6  1  0
  6  7  2  0
  7  8  1  0
  8  9  2  0
  9 10  1  0
 10 11  2  0
 11 12  1  0
 12 13  2  0
 13 14  1  0
 14  6  1  0
 14 10  1  0
M  END
>  <energy_score>  (4516) 
-23.15939

>  <alias>  (4516) 
SODYGZGOPRNJGX-UHFFFAOYSA-N-P7-P7-P52-601530

>  <HIPPO Pose ID>  (4516) 
84553

>  <smiles>  (4516) 
CC(CBr)Nc1cncc2cccn12

>  <inchikey>  (4516) 
SODYGZGOPRNJGX-UHFFFAOYSA-N

>  <distance_score>  (4516) 
1.797362

>  <ref_mols>  (4516) 
Z0875a,Z0089a

>  <ref_pdb>  (4516) 
Z0089a

>  <HIPPO Compound ID>  (4516) 
144798

>  <name>  (4516) 
SODYGZGOPRNJGX-UHFFFAOYSA-N-P7-P7-P52-601530

>  <inspiration_score>  (4516) 
None

$$$$
YVONBGYVMYLGAM-UHFFFAOYSA-N-P7-P7-P52-601530
     RDKit          3D

 14 14  0  0  0  0  0  0  0  0999 V2000
   -1.6482    3.5483  -19.5403 C   0  0  0  0  0  0  0  0  0  0  0  0
   -1.5902    4.9806  -19.0954 C   0  0  0  0  0  0  0  0  0  0  0  0
   -0.7987    5.3592  -18.2308 O   0  0  0  0  0  0  0  0  0  0  0  0
   -2.5689    5.9329  -19.7724 C   0  0  2  0  0  0  0  0  0  0  0  0
   -2.5943    7.3175  -19.1465 C   0  0  0  0  0  0  0  0  0  0  0  0
   -3.8830    5.3274  -19.8879 N   0  0  0  0  0  0  0  0  0  0  0  0
   -4.8025    5.2274  -18.8806 C   0  0  0  0  0  0  0  0  0  0  0  0
   -4.5672    5.1544  -17.5137 C   0  0  0  0  0  0  0  0  0  0  0  0
   -5.5560    5.0494  -16.5947 N   0  0  0  0  0  0  0  0  0  0  0  0
   -6.8174    4.9442  -17.0872 C   0  0  0  0  0  0  0  0  0  0  0  0
   -7.8999    4.7970  -16.0712 C   0  0  0  0  0  0  0  0  0  0  0  0
   -9.5102    4.0346  -16.8020 Br  0  0  0  0  0  0  0  0  0  0  0  0
   -7.0451    5.0258  -18.4536 C   0  0  0  0  0  0  0  0  0  0  0  0
   -6.0513    5.1732  -19.3495 N   0  0  0  0  0  0  0  0  0  0  0  0
  1  2  1  0
  2  3  2  0
  2  4  1  0
  4  5  1  1
  4  6  1  0
  6  7  1  0
  7  8  2  0
  8  9  1  0
  9 10  2  0
 10 11  1  0
 11 12  1  0
 10 13  1  0
 13 14  2  0
 14  7  1  0
M  END
>  <energy_score>  (4517) 
-11.470004

>  <alias>  (4517) 
YVONBGYVMYLGAM-UHFFFAOYSA-N-P7-P7-P52-601530

>  <HIPPO Pose ID>  (4517) 
84559

>  <smiles>  (4517) 
CC(=O)C(C)Nc1cnc(CBr)cn1

>  <inchikey>  (4517) 
YVONBGYVMYLGAM-UHFFFAOYSA-N

>  <distance_score>  (4517) 
0.895571

>  <ref_mols>  (4517) 
Z0875a,Z0089a

>  <ref_pdb>  (4517) 
Z0089a

>  <HIPPO Compound ID>  (4517) 
144801

>  <name>  (4517) 
YVONBGYVMYLGAM-UHFFFAOYSA-N-P7-P7-P52-601530

>  <inspiration_score>  (4517) 
None

$$$$
YLSACKQHMQAODA-UHFFFAOYSA-N-P52-P7-P52-601530
     RDKit          3D

 14 14  0  0  0  0  0  0  0  0999 V2000
   -0.3119    5.3592  -19.6168 C   0  0  0  0  0  0  0  0  0  0  0  0
   -1.7644    5.2757  -20.0104 C   0  0  0  0  0  0  0  0  0  0  0  0
   -2.0934    4.9732  -21.1601 O   0  0  0  0  0  0  0  0  0  0  0  0
   -2.7913    5.6773  -18.9515 C   0  0  1  0  0  0  0  0  0  0  0  0
   -2.9481    7.1913  -19.0213 C   0  0  0  0  0  0  0  0  0  0  0  0
   -4.0647    5.0032  -19.1904 N   0  0  0  0  0  0  0  0  0  0  0  0
   -5.1142    5.0387  -18.2936 C   0  0  0  0  0  0  0  0  0  0  0  0
   -4.9597    5.3267  -16.9297 C   0  0  0  0  0  0  0  0  0  0  0  0
   -5.9738    5.3640  -16.0364 N   0  0  0  0  0  0  0  0  0  0  0  0
   -7.1732    5.0191  -16.5457 C   0  0  0  0  0  0  0  0  0  0  0  0
   -7.3538    4.7056  -17.8836 C   0  0  0  0  0  0  0  0  0  0  0  0
   -8.6679    4.3296  -18.2975 C   0  0  0  0  0  0  0  0  0  0  0  0
   -9.7877    4.0471  -18.4124 N   0  0  0  0  0  0  0  0  0  0  0  0
   -6.3336    4.7293  -18.7828 N   0  0  0  0  0  0  0  0  0  0  0  0
  1  2  1  0
  2  3  2  0
  2  4  1  0
  4  5  1  6
  4  6  1  0
  6  7  1  0
  7  8  2  0
  8  9  1  0
  9 10  2  0
 10 11  1  0
 11 12  1  0
 12 13  3  0
 11 14  2  0
 14  7  1  0
M  END
>  <energy_score>  (4518) 
-37.744099

>  <alias>  (4518) 
YLSACKQHMQAODA-UHFFFAOYSA-N-P52-P7-P52-601530

>  <HIPPO Pose ID>  (4518) 
84564

>  <smiles>  (4518) 
CC(=O)C(C)Nc1cncc(C#N)n1

>  <inchikey>  (4518) 
YLSACKQHMQAODA-UHFFFAOYSA-N

>  <distance_score>  (4518) 
0.848727

>  <ref_mols>  (4518) 
Z0875a,Z0089a

>  <ref_pdb>  (4518) 
Z0089a

>  <HIPPO Compound ID>  (4518) 
144803

>  <name>  (4518) 
YLSACKQHMQAODA-UHFFFAOYSA-N-P52-P7-P52-601530

>  <inspiration_score>  (4518) 
None

$$$$
UVRNZEXLHGEKIX-UHFFFAOYSA-N-P7-P7-P52-601530
     RDKit          3D

 14 14  0  0  0  0  0  0  0  0999 V2000
   -3.7561    6.7383  -15.4325 C   0  0  0  0  0  0  0  0  0  0  0  0
   -4.5071    6.1932  -16.1974 C   0  0  0  0  0  0  0  0  0  0  0  0
   -5.4619    5.5414  -17.0471 C   0  0  0  0  0  0  0  0  0  0  0  0
   -6.5865    5.2254  -16.3511 N   0  0  0  0  0  0  0  0  0  0  0  0
   -7.5790    4.6564  -17.0671 C   0  0  0  0  0  0  0  0  0  0  0  0
   -7.4685    4.4277  -18.4204 C   0  0  0  0  0  0  0  0  0  0  0  0
   -6.3493    4.7368  -19.1070 N   0  0  0  0  0  0  0  0  0  0  0  0
   -5.3314    5.3121  -18.4301 C   0  0  0  0  0  0  0  0  0  0  0  0
   -4.3293    5.6746  -19.2902 N   0  0  0  0  0  0  0  0  0  0  0  0
   -2.9052    5.7050  -19.0212 C   0  0  1  0  0  0  0  0  0  0  0  0
   -2.3154    4.3256  -18.7992 C   0  0  0  0  0  0  0  0  0  0  0  0
   -2.2203    6.2770  -20.2677 C   0  0  0  0  0  0  0  0  0  0  0  0
   -1.2976    7.4477  -20.0619 C   0  0  0  0  0  0  0  0  0  0  0  0
   -2.4016    5.7897  -21.3928 O   0  0  0  0  0  0  0  0  0  0  0  0
  1  2  3  0
  2  3  1  0
  3  4  2  0
  4  5  1  0
  5  6  2  0
  6  7  1  0
  7  8  2  0
  8  9  1  0
  9 10  1  0
 10 11  1  6
 10 12  1  0
 12 13  1  0
 12 14  2  0
  8  3  1  0
M  END
>  <energy_score>  (4519) 
-12.108573

>  <alias>  (4519) 
UVRNZEXLHGEKIX-UHFFFAOYSA-N-P7-P7-P52-601530

>  <HIPPO Pose ID>  (4519) 
84571

>  <smiles>  (4519) 
C#Cc1nccnc1NC(C)C(C)=O

>  <inchikey>  (4519) 
UVRNZEXLHGEKIX-UHFFFAOYSA-N

>  <distance_score>  (4519) 
0.907122

>  <ref_mols>  (4519) 
Z0875a,Z0089a

>  <ref_pdb>  (4519) 
Z0089a

>  <HIPPO Compound ID>  (4519) 
144807

>  <name>  (4519) 
UVRNZEXLHGEKIX-UHFFFAOYSA-N-P7-P7-P52-601530

>  <inspiration_score>  (4519) 
None

$$$$
IMZINTCELXCHSW-UHFFFAOYSA-N-P7-P7-P52-601530
     RDKit          3D

 14 15  0  0  0  0  0  0  0  0999 V2000
   -8.3240    4.6598  -15.8606 C   0  0  0  0  0  0  0  0  0  0  0  0
   -7.2361    4.8290  -16.8728 C   0  0  0  0  0  0  0  0  0  0  0  0
   -6.0275    5.2191  -16.3934 N   0  0  0  0  0  0  0  0  0  0  0  0
   -5.0423    5.3404  -17.3152 C   0  0  0  0  0  0  0  0  0  0  0  0
   -5.2272    5.1355  -18.6764 C   0  0  0  0  0  0  0  0  0  0  0  0
   -4.2695    5.3733  -19.6577 N   0  0  0  0  0  0  0  0  0  0  0  0
   -2.8500    5.6887  -19.4626 C   0  0  0  0  0  0  0  0  0  0  0  0
   -1.8924    4.5171  -19.6400 C   0  0  0  0  0  0  0  0  0  0  0  0
   -1.7178    4.2752  -21.0396 O   0  0  0  0  0  0  0  0  0  0  0  0
   -2.3699    6.9996  -20.0661 C   0  0  0  0  0  0  0  0  0  0  0  0
   -2.4176    6.8527  -18.5845 C   0  0  0  0  0  0  0  0  0  0  0  0
   -6.4274    4.7299  -19.1296 N   0  0  0  0  0  0  0  0  0  0  0  0
   -7.4327    4.5672  -18.2296 C   0  0  0  0  0  0  0  0  0  0  0  0
   -8.7589    4.1372  -18.7805 C   0  0  0  0  0  0  0  0  0  0  0  0
  1  2  1  0
  2  3  2  0
  3  4  1  0
  4  5  2  0
  5  6  1  0
  6  7  1  0
  7  8  1  0
  8  9  1  0
  7 10  1  0
 10 11  1  0
  5 12  1  0
 12 13  2  0
 13 14  1  0
 13  2  1  0
 11  7  1  0
M  END
>  <energy_score>  (4520) 
-30.253108

>  <alias>  (4520) 
IMZINTCELXCHSW-UHFFFAOYSA-N-P7-P7-P52-601530

>  <HIPPO Pose ID>  (4520) 
84579

>  <smiles>  (4520) 
Cc1ncc(NC2(CO)CC2)nc1C

>  <inchikey>  (4520) 
IMZINTCELXCHSW-UHFFFAOYSA-N

>  <distance_score>  (4520) 
0.780092

>  <ref_mols>  (4520) 
Z0875a,Z0089a

>  <ref_pdb>  (4520) 
Z0089a

>  <HIPPO Compound ID>  (4520) 
144811

>  <name>  (4520) 
IMZINTCELXCHSW-UHFFFAOYSA-N-P7-P7-P52-601530

>  <inspiration_score>  (4520) 
None

$$$$
XDIFQMJLGKUABW-UHFFFAOYSA-N-P7-P7-P52-601530
     RDKit          3D

 14 15  0  0  0  0  0  0  0  0999 V2000
   -9.3460    4.0876  -16.5421 C   0  0  0  0  0  0  0  0  0  0  0  0
   -8.0678    4.7183  -16.0322 C   0  0  0  0  0  0  0  0  0  0  0  0
   -6.9944    4.9206  -17.0561 C   0  0  0  0  0  0  0  0  0  0  0  0
   -7.1759    4.6938  -18.4136 C   0  0  0  0  0  0  0  0  0  0  0  0
   -6.1868    4.8541  -19.3160 N   0  0  0  0  0  0  0  0  0  0  0  0
   -4.9998    5.2710  -18.8513 C   0  0  0  0  0  0  0  0  0  0  0  0
   -4.0551    5.5050  -19.8413 N   0  0  0  0  0  0  0  0  0  0  0  0
   -2.6164    5.6665  -19.6259 C   0  0  0  0  0  0  0  0  0  0  0  0
   -1.8356    4.3611  -19.5011 C   0  0  0  0  0  0  0  0  0  0  0  0
   -0.4344    4.5944  -19.4069 O   0  0  0  0  0  0  0  0  0  0  0  0
   -1.9572    6.8077  -20.3791 C   0  0  0  0  0  0  0  0  0  0  0  0
   -2.1069    6.8967  -18.8942 C   0  0  0  0  0  0  0  0  0  0  0  0
   -4.8137    5.4882  -17.4915 C   0  0  0  0  0  0  0  0  0  0  0  0
   -5.7965    5.3375  -16.5733 N   0  0  0  0  0  0  0  0  0  0  0  0
  1  2  1  0
  2  3  1  0
  3  4  2  0
  4  5  1  0
  5  6  2  0
  6  7  1  0
  7  8  1  0
  8  9  1  0
  9 10  1  0
  8 11  1  0
 11 12  1  0
  6 13  1  0
 13 14  2  0
 14  3  1  0
 12  8  1  0
M  END
>  <energy_score>  (4521) 
-11.122479

>  <alias>  (4521) 
XDIFQMJLGKUABW-UHFFFAOYSA-N-P7-P7-P52-601530

>  <HIPPO Pose ID>  (4521) 
84585

>  <smiles>  (4521) 
CCc1cnc(NC2(CO)CC2)cn1

>  <inchikey>  (4521) 
XDIFQMJLGKUABW-UHFFFAOYSA-N

>  <distance_score>  (4521) 
0.820899

>  <ref_mols>  (4521) 
Z0875a,Z0089a

>  <ref_pdb>  (4521) 
Z0089a

>  <HIPPO Compound ID>  (4521) 
144814

>  <name>  (4521) 
XDIFQMJLGKUABW-UHFFFAOYSA-N-P7-P7-P52-601530

>  <inspiration_score>  (4521) 
None

$$$$
HPMUBIQBLPYVPD-UHFFFAOYSA-N-P7-P7-P52-601530
     RDKit          3D

 14 15  0  0  0  0  0  0  0  0999 V2000
   -8.9288    4.4523  -15.4761 C   0  0  0  0  0  0  0  0  0  0  0  0
   -8.0718    4.6633  -16.2837 C   0  0  0  0  0  0  0  0  0  0  0  0
   -7.0065    4.8731  -17.1901 C   0  0  0  0  0  0  0  0  0  0  0  0
   -7.1250    4.6205  -18.5413 C   0  0  0  0  0  0  0  0  0  0  0  0
   -6.0985    4.8393  -19.3897 N   0  0  0  0  0  0  0  0  0  0  0  0
   -4.9626    5.3295  -18.8589 C   0  0  0  0  0  0  0  0  0  0  0  0
   -3.9895    5.6804  -19.7891 N   0  0  0  0  0  0  0  0  0  0  0  0
   -2.5510    5.7717  -19.5058 C   0  0  0  0  0  0  0  0  0  0  0  0
   -1.7752    4.4769  -19.6778 C   0  0  0  0  0  0  0  0  0  0  0  0
   -1.6821    4.1987  -21.0766 O   0  0  0  0  0  0  0  0  0  0  0  0
   -1.8525    7.0108  -20.0397 C   0  0  0  0  0  0  0  0  0  0  0  0
   -2.0024    6.8327  -18.5671 C   0  0  0  0  0  0  0  0  0  0  0  0
   -4.8585    5.5437  -17.4860 C   0  0  0  0  0  0  0  0  0  0  0  0
   -5.8744    5.3394  -16.6202 N   0  0  0  0  0  0  0  0  0  0  0  0
  1  2  3  0
  2  3  1  0
  3  4  2  0
  4  5  1  0
  5  6  2  0
  6  7  1  0
  7  8  1  0
  8  9  1  0
  9 10  1  0
  8 11  1  0
 11 12  1  0
  6 13  1  0
 13 14  2  0
 14  3  1  0
 12  8  1  0
M  END
>  <energy_score>  (4522) 
-15.708817

>  <alias>  (4522) 
HPMUBIQBLPYVPD-UHFFFAOYSA-N-P7-P7-P52-601530

>  <HIPPO Pose ID>  (4522) 
84587

>  <smiles>  (4522) 
C#Cc1cnc(NC2(CO)CC2)cn1

>  <inchikey>  (4522) 
HPMUBIQBLPYVPD-UHFFFAOYSA-N

>  <distance_score>  (4522) 
1.049135

>  <ref_mols>  (4522) 
Z0875a,Z0089a

>  <ref_pdb>  (4522) 
Z0089a

>  <HIPPO Compound ID>  (4522) 
144815

>  <name>  (4522) 
HPMUBIQBLPYVPD-UHFFFAOYSA-N-P7-P7-P52-601530

>  <inspiration_score>  (4522) 
None

$$$$
XNZSJSVCWLZWGE-UHFFFAOYSA-N-P7-P7-P52-601530
     RDKit          3D

 14 15  0  0  0  0  0  0  0  0999 V2000
   -9.4113    4.1833  -16.6122 O   0  0  0  0  0  0  0  0  0  0  0  0
   -8.2933    4.4429  -16.1863 C   0  0  0  0  0  0  0  0  0  0  0  0
   -7.1618    4.6925  -17.0829 C   0  0  0  0  0  0  0  0  0  0  0  0
   -7.2995    4.5515  -18.4496 C   0  0  0  0  0  0  0  0  0  0  0  0
   -6.2669    4.7888  -19.2918 N   0  0  0  0  0  0  0  0  0  0  0  0
   -5.1005    5.1825  -18.7466 C   0  0  0  0  0  0  0  0  0  0  0  0
   -4.1172    5.5265  -19.6663 N   0  0  0  0  0  0  0  0  0  0  0  0
   -2.6855    5.7013  -19.3970 C   0  0  0  0  0  0  0  0  0  0  0  0
   -1.8224    4.4720  -19.6410 C   0  0  0  0  0  0  0  0  0  0  0  0
   -1.7009    4.2740  -21.0526 O   0  0  0  0  0  0  0  0  0  0  0  0
   -2.0788    7.0099  -19.8767 C   0  0  0  0  0  0  0  0  0  0  0  0
   -2.1956    6.7503  -18.4131 C   0  0  0  0  0  0  0  0  0  0  0  0
   -4.9814    5.2950  -17.3611 C   0  0  0  0  0  0  0  0  0  0  0  0
   -6.0009    5.0741  -16.4932 N   0  0  0  0  0  0  0  0  0  0  0  0
  1  2  2  0
  2  3  1  0
  3  4  2  0
  4  5  1  0
  5  6  2  0
  6  7  1  0
  7  8  1  0
  8  9  1  0
  9 10  1  0
  8 11  1  0
 11 12  1  0
  6 13  1  0
 13 14  2  0
 14  3  1  0
 12  8  1  0
M  END
>  <energy_score>  (4523) 
-23.765695

>  <alias>  (4523) 
XNZSJSVCWLZWGE-UHFFFAOYSA-N-P7-P7-P52-601530

>  <HIPPO Pose ID>  (4523) 
84591

>  <smiles>  (4523) 
O=Cc1cnc(NC2(CO)CC2)cn1

>  <inchikey>  (4523) 
XNZSJSVCWLZWGE-UHFFFAOYSA-N

>  <distance_score>  (4523) 
0.699232

>  <ref_mols>  (4523) 
Z0875a,Z0089a

>  <ref_pdb>  (4523) 
Z0089a

>  <HIPPO Compound ID>  (4523) 
144817

>  <name>  (4523) 
XNZSJSVCWLZWGE-UHFFFAOYSA-N-P7-P7-P52-601530

>  <inspiration_score>  (4523) 
None

$$$$
ASJIXYUZNVLSSC-UHFFFAOYSA-N-P52-P7-P52-601530
     RDKit          3D

 14 15  0  0  0  0  0  0  0  0999 V2000
   -9.7089    4.2133  -17.6862 C   0  0  0  0  0  0  0  0  0  0  0  0
   -8.6445    4.2551  -18.6217 O   0  0  0  0  0  0  0  0  0  0  0  0
   -7.4219    4.6187  -18.1310 C   0  0  0  0  0  0  0  0  0  0  0  0
   -7.1300    4.8764  -16.7968 C   0  0  0  0  0  0  0  0  0  0  0  0
   -5.8963    5.2253  -16.3581 N   0  0  0  0  0  0  0  0  0  0  0  0
   -4.9558    5.2880  -17.3285 C   0  0  0  0  0  0  0  0  0  0  0  0
   -5.2190    5.0676  -18.6796 C   0  0  0  0  0  0  0  0  0  0  0  0
   -4.2727    5.2050  -19.6947 N   0  0  0  0  0  0  0  0  0  0  0  0
   -2.8889    5.6792  -19.5601 C   0  0  0  0  0  0  0  0  0  0  0  0
   -1.8198    4.5945  -19.6354 C   0  0  0  0  0  0  0  0  0  0  0  0
   -1.6067    4.2413  -21.0059 O   0  0  0  0  0  0  0  0  0  0  0  0
   -2.5454    6.9715  -20.2823 C   0  0  0  0  0  0  0  0  0  0  0  0
   -2.5707    6.9542  -18.7932 C   0  0  0  0  0  0  0  0  0  0  0  0
   -6.4587    4.7119  -19.0758 N   0  0  0  0  0  0  0  0  0  0  0  0
  1  2  1  0
  2  3  1  0
  3  4  2  0
  4  5  1  0
  5  6  2  0
  6  7  1  0
  7  8  1  0
  8  9  1  0
  9 10  1  0
 10 11  1  0
  9 12  1  0
 12 13  1  0
  7 14  2  0
 14  3  1  0
 13  9  1  0
M  END
>  <energy_score>  (4524) 
-11.516527

>  <alias>  (4524) 
ASJIXYUZNVLSSC-UHFFFAOYSA-N-P52-P7-P52-601530

>  <HIPPO Pose ID>  (4524) 
84596

>  <smiles>  (4524) 
COc1cncc(NC2(CO)CC2)n1

>  <inchikey>  (4524) 
ASJIXYUZNVLSSC-UHFFFAOYSA-N

>  <distance_score>  (4524) 
0.76552

>  <ref_mols>  (4524) 
Z0875a,Z0089a

>  <ref_pdb>  (4524) 
Z0089a

>  <HIPPO Compound ID>  (4524) 
144819

>  <name>  (4524) 
ASJIXYUZNVLSSC-UHFFFAOYSA-N-P52-P7-P52-601530

>  <inspiration_score>  (4524) 
None

$$$$
KSYZSUPEQOUQRL-UHFFFAOYSA-N-P52-P7-P52-601530
     RDKit          3D

 14 14  0  0  0  0  0  0  0  0999 V2000
   -9.2553    4.2717  -16.6858 C   0  0  0  0  0  0  0  0  0  0  0  0
   -8.1566    5.0470  -16.2471 O   0  0  0  0  0  0  0  0  0  0  0  0
   -7.1143    5.1450  -17.1108 C   0  0  0  0  0  0  0  0  0  0  0  0
   -7.0796    4.7143  -18.4279 C   0  0  0  0  0  0  0  0  0  0  0  0
   -5.9941    4.8796  -19.2261 N   0  0  0  0  0  0  0  0  0  0  0  0
   -4.9377    5.5214  -18.6983 C   0  0  0  0  0  0  0  0  0  0  0  0
   -3.9695    5.7940  -19.6239 N   0  0  0  0  0  0  0  0  0  0  0  0
   -2.5067    5.8923  -19.4990 C   0  0  0  0  0  0  0  0  0  0  0  0
   -1.9132    4.4774  -19.5054 C   0  0  0  0  0  0  0  0  0  0  0  0
   -2.0392    6.6286  -18.2423 C   0  0  0  0  0  0  0  0  0  0  0  0
   -2.0374    6.7288  -20.7323 C   0  0  0  0  0  0  0  0  0  0  0  0
   -0.2755    6.7833  -20.9914 Cl  0  0  0  0  0  0  0  0  0  0  0  0
   -4.9866    5.9416  -17.3751 C   0  0  0  0  0  0  0  0  0  0  0  0
   -6.0558    5.7717  -16.5629 N   0  0  0  0  0  0  0  0  0  0  0  0
  1  2  1  0
  2  3  1  0
  3  4  2  0
  4  5  1  0
  5  6  2  0
  6  7  1  0
  7  8  1  0
  8  9  1  0
  8 10  1  0
  8 11  1  0
 11 12  1  0
  6 13  1  0
 13 14  2  0
 14  3  1  0
M  END
>  <energy_score>  (4525) 
-30.655182

>  <alias>  (4525) 
KSYZSUPEQOUQRL-UHFFFAOYSA-N-P52-P7-P52-601530

>  <HIPPO Pose ID>  (4525) 
84598

>  <smiles>  (4525) 
COc1cnc(NC(C)(C)CCl)cn1

>  <inchikey>  (4525) 
KSYZSUPEQOUQRL-UHFFFAOYSA-N

>  <distance_score>  (4525) 
0.807944

>  <ref_mols>  (4525) 
Z0875a,Z0089a

>  <ref_pdb>  (4525) 
Z0089a

>  <HIPPO Compound ID>  (4525) 
144820

>  <name>  (4525) 
KSYZSUPEQOUQRL-UHFFFAOYSA-N-P52-P7-P52-601530

>  <inspiration_score>  (4525) 
None

$$$$
XUAIOIRVWIVOCC-UHFFFAOYSA-N-P7-P7-P52-601530
     RDKit          3D

 14 14  0  0  0  0  0  0  0  0999 V2000
   -4.7713    6.4574  -14.7370 C   0  0  0  0  0  0  0  0  0  0  0  0
   -4.5240    6.5092  -16.1343 O   0  0  0  0  0  0  0  0  0  0  0  0
   -5.3534    5.7164  -16.8984 C   0  0  0  0  0  0  0  0  0  0  0  0
   -6.4988    5.2792  -16.3189 N   0  0  0  0  0  0  0  0  0  0  0  0
   -7.3668    4.6525  -17.1433 C   0  0  0  0  0  0  0  0  0  0  0  0
   -7.1148    4.4779  -18.4883 C   0  0  0  0  0  0  0  0  0  0  0  0
   -5.9661    4.8949  -19.0636 N   0  0  0  0  0  0  0  0  0  0  0  0
   -5.0745    5.5290  -18.2707 C   0  0  0  0  0  0  0  0  0  0  0  0
   -4.0324    6.0575  -19.0097 N   0  0  0  0  0  0  0  0  0  0  0  0
   -2.5866    5.7935  -18.8131 C   0  0  0  0  0  0  0  0  0  0  0  0
   -2.2629    4.3412  -19.1885 C   0  0  0  0  0  0  0  0  0  0  0  0
   -1.8977    6.7204  -19.8401 C   0  0  0  0  0  0  0  0  0  0  0  0
   -2.0705    6.1373  -17.3970 C   0  0  0  0  0  0  0  0  0  0  0  0
   -0.2859    6.1311  -17.2163 Cl  0  0  0  0  0  0  0  0  0  0  0  0
  1  2  1  0
  2  3  1  0
  3  4  2  0
  4  5  1  0
  5  6  2  0
  6  7  1  0
  7  8  2  0
  8  9  1  0
  9 10  1  0
 10 11  1  0
 10 12  1  0
 10 13  1  0
 13 14  1  0
  8  3  1  0
M  END
>  <energy_score>  (4526) 
-29.709551

>  <alias>  (4526) 
XUAIOIRVWIVOCC-UHFFFAOYSA-N-P7-P7-P52-601530

>  <HIPPO Pose ID>  (4526) 
84607

>  <smiles>  (4526) 
COc1nccnc1NC(C)(C)CCl

>  <inchikey>  (4526) 
XUAIOIRVWIVOCC-UHFFFAOYSA-N

>  <distance_score>  (4526) 
0.940222

>  <ref_mols>  (4526) 
Z0875a,Z0089a

>  <ref_pdb>  (4526) 
Z0089a

>  <HIPPO Compound ID>  (4526) 
144825

>  <name>  (4526) 
XUAIOIRVWIVOCC-UHFFFAOYSA-N-P7-P7-P52-601530

>  <inspiration_score>  (4526) 
None

$$$$
NSCYZRUQQKAIJV-UHFFFAOYSA-N-P52-P7-P52-601530
     RDKit          3D

 14 14  0  0  0  0  0  0  0  0999 V2000
   -2.0247    4.5396  -19.4542 C   0  0  0  0  0  0  0  0  0  0  0  0
   -2.7374    5.8996  -19.4271 C   0  0  0  0  0  0  0  0  0  0  0  0
   -2.3051    6.6656  -18.1765 C   0  0  0  0  0  0  0  0  0  0  0  0
   -2.3748    6.7780  -20.6662 C   0  0  0  0  0  0  0  0  0  0  0  0
   -0.6309    6.9548  -20.9863 Cl  0  0  0  0  0  0  0  0  0  0  0  0
   -4.1842    5.6708  -19.5178 N   0  0  0  0  0  0  0  0  0  0  0  0
   -5.1549    5.3832  -18.6051 C   0  0  0  0  0  0  0  0  0  0  0  0
   -5.2134    5.7530  -17.2668 C   0  0  0  0  0  0  0  0  0  0  0  0
   -6.2900    5.5488  -16.4627 N   0  0  0  0  0  0  0  0  0  0  0  0
   -7.3504    4.9347  -17.0460 C   0  0  0  0  0  0  0  0  0  0  0  0
   -8.5587    4.6766  -16.1886 C   0  0  0  0  0  0  0  0  0  0  0  0
   -9.7458    4.5408  -16.9621 O   0  0  0  0  0  0  0  0  0  0  0  0
   -7.2937    4.5415  -18.3736 C   0  0  0  0  0  0  0  0  0  0  0  0
   -6.2045    4.7490  -19.1562 N   0  0  0  0  0  0  0  0  0  0  0  0
  1  2  1  0
  2  3  1  0
  2  4  1  0
  4  5  1  0
  2  6  1  0
  6  7  1  0
  7  8  2  0
  8  9  1  0
  9 10  2  0
 10 11  1  0
 11 12  1  0
 10 13  1  0
 13 14  2  0
 14  7  1  0
M  END
>  <energy_score>  (4527) 
-29.760796

>  <alias>  (4527) 
NSCYZRUQQKAIJV-UHFFFAOYSA-N-P52-P7-P52-601530

>  <HIPPO Pose ID>  (4527) 
84612

>  <smiles>  (4527) 
CC(C)(CCl)Nc1cnc(CO)cn1

>  <inchikey>  (4527) 
NSCYZRUQQKAIJV-UHFFFAOYSA-N

>  <distance_score>  (4527) 
0.901431

>  <ref_mols>  (4527) 
Z0875a,Z0089a

>  <ref_pdb>  (4527) 
Z0089a

>  <HIPPO Compound ID>  (4527) 
144827

>  <name>  (4527) 
NSCYZRUQQKAIJV-UHFFFAOYSA-N-P52-P7-P52-601530

>  <inspiration_score>  (4527) 
None

$$$$
HKGFGMQRSKMYFZ-UHFFFAOYSA-N-P7-P7-P52-601530
     RDKit          3D

 14 14  0  0  0  0  0  0  0  0999 V2000
   -9.6522    4.0287  -17.8038 C   0  0  0  0  0  0  0  0  0  0  0  0
   -8.5568    4.2836  -18.6674 O   0  0  0  0  0  0  0  0  0  0  0  0
   -7.3738    4.6159  -18.0693 C   0  0  0  0  0  0  0  0  0  0  0  0
   -7.1626    4.6971  -16.7015 C   0  0  0  0  0  0  0  0  0  0  0  0
   -5.9827    5.0716  -16.1594 N   0  0  0  0  0  0  0  0  0  0  0  0
   -5.0075    5.3396  -17.0597 C   0  0  0  0  0  0  0  0  0  0  0  0
   -5.1764    5.2753  -18.4382 C   0  0  0  0  0  0  0  0  0  0  0  0
   -4.2692    5.6189  -19.3980 N   0  0  0  0  0  0  0  0  0  0  0  0
   -2.8267    5.8763  -19.3896 C   0  0  0  0  0  0  0  0  0  0  0  0
   -2.0885    4.5309  -19.4990 C   0  0  0  0  0  0  0  0  0  0  0  0
   -2.3143    6.6229  -18.1548 C   0  0  0  0  0  0  0  0  0  0  0  0
   -2.4767    6.7434  -20.6377 C   0  0  0  0  0  0  0  0  0  0  0  0
   -3.1836    8.3888  -20.6038 Cl  0  0  0  0  0  0  0  0  0  0  0  0
   -6.3733    4.9004  -18.9375 N   0  0  0  0  0  0  0  0  0  0  0  0
  1  2  1  0
  2  3  1  0
  3  4  2  0
  4  5  1  0
  5  6  2  0
  6  7  1  0
  7  8  1  0
  8  9  1  0
  9 10  1  0
  9 11  1  0
  9 12  1  0
 12 13  1  0
  7 14  2  0
 14  3  1  0
M  END
>  <energy_score>  (4528) 
-19.799081

>  <alias>  (4528) 
HKGFGMQRSKMYFZ-UHFFFAOYSA-N-P7-P7-P52-601530

>  <HIPPO Pose ID>  (4528) 
84617

>  <smiles>  (4528) 
COc1cncc(NC(C)(C)CCl)n1

>  <inchikey>  (4528) 
HKGFGMQRSKMYFZ-UHFFFAOYSA-N

>  <distance_score>  (4528) 
0.776398

>  <ref_mols>  (4528) 
Z0875a,Z0089a

>  <ref_pdb>  (4528) 
Z0089a

>  <HIPPO Compound ID>  (4528) 
144830

>  <name>  (4528) 
HKGFGMQRSKMYFZ-UHFFFAOYSA-N-P7-P7-P52-601530

>  <inspiration_score>  (4528) 
None

$$$$
BTSPXHSOGPCMKU-UHFFFAOYSA-N-P7-P7-P52-601530
     RDKit          3D

 14 16  0  0  0  0  0  0  0  0999 V2000
   -8.8620    4.1496  -18.5120 C   0  0  0  0  0  0  0  0  0  0  0  0
   -8.7126    4.2738  -17.1220 C   0  0  0  0  0  0  0  0  0  0  0  0
   -7.3848    4.5569  -16.8970 C   0  0  0  0  0  0  0  0  0  0  0  0
   -6.6500    4.7504  -15.6894 C   0  0  0  0  0  0  0  0  0  0  0  0
   -5.3826    5.0364  -15.6942 N   0  0  0  0  0  0  0  0  0  0  0  0
   -4.7515    5.1456  -16.9162 C   0  0  0  0  0  0  0  0  0  0  0  0
   -5.3287    4.9827  -18.1324 C   0  0  0  0  0  0  0  0  0  0  0  0
   -4.6947    5.1211  -19.3674 N   0  0  0  0  0  0  0  0  0  0  0  0
   -3.3590    5.5363  -19.7069 C   0  0  0  0  0  0  0  0  0  0  0  0
   -2.2119    4.7291  -19.0972 C   0  0  0  0  0  0  0  0  0  0  0  0
   -1.6967    5.9019  -18.4139 O   0  0  0  0  0  0  0  0  0  0  0  0
   -2.7508    6.7274  -18.9703 C   0  0  0  0  0  0  0  0  0  0  0  0
   -6.7071    4.6437  -18.0919 N   0  0  0  0  0  0  0  0  0  0  0  0
   -7.6139    4.3261  -19.0705 C   0  0  0  0  0  0  0  0  0  0  0  0
  1  2  1  0
  2  3  2  0
  3  4  1  0
  4  5  2  0
  5  6  1  0
  6  7  2  0
  7  8  1  0
  8  9  1  0
  9 10  1  0
 10 11  1  0
 11 12  1  0
  7 13  1  0
 13 14  1  0
 14  1  2  0
 13  3  1  0
 12  9  1  0
M  END
>  <energy_score>  (4529) 
-19.168081

>  <alias>  (4529) 
BTSPXHSOGPCMKU-UHFFFAOYSA-N-P7-P7-P52-601530

>  <HIPPO Pose ID>  (4529) 
84621

>  <smiles>  (4529) 
c1cc2cncc(NC3COC3)n2c1

>  <inchikey>  (4529) 
BTSPXHSOGPCMKU-UHFFFAOYSA-N

>  <distance_score>  (4529) 
1.780891

>  <ref_mols>  (4529) 
Z0875a,Z0089a

>  <ref_pdb>  (4529) 
Z0089a

>  <HIPPO Compound ID>  (4529) 
144832

>  <name>  (4529) 
BTSPXHSOGPCMKU-UHFFFAOYSA-N-P7-P7-P52-601530

>  <inspiration_score>  (4529) 
None

$$$$
OULULVHMVPZLGQ-UHFFFAOYSA-N-P7-P7-P52-601530
     RDKit          3D

 14 16  0  0  0  0  0  0  0  0999 V2000
   -1.3899    6.6873  -18.0919 O   0  0  0  0  0  0  0  0  0  0  0  0
   -2.0964    5.5360  -18.5789 C   0  0  2  0  0  0  0  0  0  0  0  0
   -1.7843    5.1155  -19.9795 C   0  0  0  0  0  0  0  0  0  0  0  0
   -3.0897    5.8033  -19.6768 C   0  0  1  0  0  0  0  0  0  0  0  0
   -4.3476    5.0754  -19.8194 N   0  0  0  0  0  0  0  0  0  0  0  0
   -5.2786    5.0871  -18.7908 C   0  0  0  0  0  0  0  0  0  0  0  0
   -6.5266    4.6444  -19.0584 C   0  0  0  0  0  0  0  0  0  0  0  0
   -7.4742    4.5890  -18.0651 N   0  0  0  0  0  0  0  0  0  0  0  0
   -8.7752    4.1682  -18.0415 C   0  0  0  0  0  0  0  0  0  0  0  0
   -9.1658    4.3174  -16.7281 C   0  0  0  0  0  0  0  0  0  0  0  0
   -8.1688    4.8770  -15.9642 N   0  0  0  0  0  0  0  0  0  0  0  0
   -7.1665    4.9838  -16.8024 C   0  0  0  0  0  0  0  0  0  0  0  0
   -5.8439    5.4480  -16.5662 C   0  0  0  0  0  0  0  0  0  0  0  0
   -4.9478    5.5098  -17.5109 N   0  0  0  0  0  0  0  0  0  0  0  0
  2  1  1  6
  2  3  1  0
  3  4  1  0
  4  5  1  1
  5  6  1  0
  6  7  2  0
  7  8  1  0
  8  9  1  0
  9 10  2  0
 10 11  1  0
 11 12  2  0
 12 13  1  0
 13 14  2  0
  4  2  1  0
 14  6  1  0
 12  8  1  0
M  END
>  <energy_score>  (4530) 
-18.130011

>  <alias>  (4530) 
OULULVHMVPZLGQ-UHFFFAOYSA-N-P7-P7-P52-601530

>  <HIPPO Pose ID>  (4530) 
84627

>  <smiles>  (4530) 
OC1CC1Nc1cn2ccnc2cn1

>  <inchikey>  (4530) 
OULULVHMVPZLGQ-UHFFFAOYSA-N

>  <distance_score>  (4530) 
1.631631

>  <ref_mols>  (4530) 
Z0875a,Z0089a

>  <ref_pdb>  (4530) 
Z0089a

>  <HIPPO Compound ID>  (4530) 
144835

>  <name>  (4530) 
OULULVHMVPZLGQ-UHFFFAOYSA-N-P7-P7-P52-601530

>  <inspiration_score>  (4530) 
None

$$$$
LELPQGHCHZYMED-UHFFFAOYSA-N-P7-P7-P52-601530
     RDKit          3D

 14 16  0  0  0  0  0  0  0  0999 V2000
   -0.7880    5.9383  -17.5516 O   0  0  0  0  0  0  0  0  0  0  0  0
   -1.5987    6.1666  -18.7124 C   0  0  1  0  0  0  0  0  0  0  0  0
   -1.2746    5.3241  -19.9081 C   0  0  0  0  0  0  0  0  0  0  0  0
   -2.5059    5.0300  -19.1141 C   0  0  2  0  0  0  0  0  0  0  0  0
   -3.8362    5.3219  -19.6251 N   0  0  0  0  0  0  0  0  0  0  0  0
   -4.9271    5.2514  -18.7569 C   0  0  0  0  0  0  0  0  0  0  0  0
   -4.8802    5.5911  -17.4070 C   0  0  0  0  0  0  0  0  0  0  0  0
   -5.9529    5.5356  -16.5865 N   0  0  0  0  0  0  0  0  0  0  0  0
   -7.1074    5.1070  -17.1542 C   0  0  0  0  0  0  0  0  0  0  0  0
   -8.3291    5.0118  -16.2978 C   0  0  0  0  0  0  0  0  0  0  0  0
   -8.5245    3.9078  -15.3152 C   0  0  0  0  0  0  0  0  0  0  0  0
   -9.3217    3.9155  -16.5883 C   0  0  0  0  0  0  0  0  0  0  0  0
   -7.1443    4.7977  -18.5160 C   0  0  0  0  0  0  0  0  0  0  0  0
   -6.0678    4.8483  -19.3256 N   0  0  0  0  0  0  0  0  0  0  0  0
  2  1  1  1
  2  3  1  0
  3  4  1  0
  4  5  1  6
  5  6  1  0
  6  7  2  0
  7  8  1  0
  8  9  2  0
  9 10  1  0
 10 11  1  0
 11 12  1  0
  9 13  1  0
 13 14  2  0
  4  2  1  0
 14  6  1  0
 12 10  1  0
M  END
>  <energy_score>  (4531) 
-25.978709

>  <alias>  (4531) 
LELPQGHCHZYMED-UHFFFAOYSA-N-P7-P7-P52-601530

>  <HIPPO Pose ID>  (4531) 
84629

>  <smiles>  (4531) 
OC1CC1Nc1cnc(C2CC2)cn1

>  <inchikey>  (4531) 
LELPQGHCHZYMED-UHFFFAOYSA-N

>  <distance_score>  (4531) 
0.874727

>  <ref_mols>  (4531) 
Z0875a,Z0089a

>  <ref_pdb>  (4531) 
Z0089a

>  <HIPPO Compound ID>  (4531) 
144836

>  <name>  (4531) 
LELPQGHCHZYMED-UHFFFAOYSA-N-P7-P7-P52-601530

>  <inspiration_score>  (4531) 
None

$$$$
BPBIWAZJPXYDQS-UHFFFAOYSA-N-P7-P7-P52-601530
     RDKit          3D

 14 16  0  0  0  0  0  0  0  0999 V2000
   -1.2210    5.7386  -17.6124 O   0  0  0  0  0  0  0  0  0  0  0  0
   -2.0703    6.0645  -18.7198 C   0  0  1  0  0  0  0  0  0  0  0  0
   -1.8083    5.3247  -19.9956 C   0  0  0  0  0  0  0  0  0  0  0  0
   -3.0025    4.9661  -19.1647 C   0  0  2  0  0  0  0  0  0  0  0  0
   -4.3638    5.2812  -19.5935 N   0  0  0  0  0  0  0  0  0  0  0  0
   -5.4209    5.1044  -18.6746 C   0  0  0  0  0  0  0  0  0  0  0  0
   -5.2921    5.4368  -17.3120 C   0  0  0  0  0  0  0  0  0  0  0  0
   -6.2725    5.3164  -16.3742 N   0  0  0  0  0  0  0  0  0  0  0  0
   -7.3833    4.8174  -16.9513 C   0  0  0  0  0  0  0  0  0  0  0  0
   -8.5761    4.5277  -16.3603 N   0  0  0  0  0  0  0  0  0  0  0  0
   -9.4323    4.1211  -17.3494 C   0  0  0  0  0  0  0  0  0  0  0  0
   -8.8377    4.0485  -18.5200 N   0  0  0  0  0  0  0  0  0  0  0  0
   -7.5612    4.4866  -18.2908 C   0  0  0  0  0  0  0  0  0  0  0  0
   -6.5630    4.6165  -19.1937 N   0  0  0  0  0  0  0  0  0  0  0  0
  2  1  1  1
  2  3  1  0
  3  4  1  0
  4  5  1  6
  5  6  1  0
  6  7  2  0
  7  8  1  0
  8  9  2  0
  9 10  1  0
 10 11  1  0
 11 12  2  0
 12 13  1  0
 13 14  2  0
  4  2  1  0
 14  6  1  0
 13  9  1  0
M  END
>  <energy_score>  (4532) 
-25.884076

>  <alias>  (4532) 
BPBIWAZJPXYDQS-UHFFFAOYSA-N-P7-P7-P52-601530

>  <HIPPO Pose ID>  (4532) 
84631

>  <smiles>  (4532) 
OC1CC1Nc1cnc2[nH]cnc2n1

>  <inchikey>  (4532) 
BPBIWAZJPXYDQS-UHFFFAOYSA-N

>  <distance_score>  (4532) 
0.838145

>  <ref_mols>  (4532) 
Z0875a,Z0089a

>  <ref_pdb>  (4532) 
Z0089a

>  <HIPPO Compound ID>  (4532) 
144837

>  <name>  (4532) 
BPBIWAZJPXYDQS-UHFFFAOYSA-N-P7-P7-P52-601530

>  <inspiration_score>  (4532) 
None

$$$$
UNKULXKYGSRHAR-UHFFFAOYSA-N-P52-P7-P52-601530
     RDKit          3D

 14 16  0  0  0  0  0  0  0  0999 V2000
   -4.8481    5.5934  -17.4230 C   0  0  0  0  0  0  0  0  0  0  0  0
   -5.8990    5.4273  -16.5903 N   0  0  0  0  0  0  0  0  0  0  0  0
   -6.9796    4.8068  -17.1230 C   0  0  0  0  0  0  0  0  0  0  0  0
   -8.0707    4.3641  -16.2089 C   0  0  0  0  0  0  0  0  0  0  0  0
   -8.9063    5.3320  -15.4309 C   0  0  0  0  0  0  0  0  0  0  0  0
   -9.4950    4.6036  -16.6083 C   0  0  0  0  0  0  0  0  0  0  0  0
   -7.0048    4.4881  -18.4795 C   0  0  0  0  0  0  0  0  0  0  0  0
   -5.9570    4.6767  -19.3084 N   0  0  0  0  0  0  0  0  0  0  0  0
   -4.8559    5.2043  -18.7581 C   0  0  0  0  0  0  0  0  0  0  0  0
   -3.7635    5.2248  -19.6194 N   0  0  0  0  0  0  0  0  0  0  0  0
   -2.6216    6.0740  -19.5919 C   0  0  0  0  0  0  0  0  0  0  0  0
   -1.3695    5.3958  -20.1861 C   0  0  0  0  0  0  0  0  0  0  0  0
   -0.5567    5.9174  -19.0975 O   0  0  0  0  0  0  0  0  0  0  0  0
   -1.7700    6.0938  -18.3157 C   0  0  0  0  0  0  0  0  0  0  0  0
  1  2  2  0
  2  3  1  0
  3  4  1  0
  4  5  1  0
  5  6  1  0
  3  7  2  0
  7  8  1  0
  8  9  2  0
  9 10  1  0
 10 11  1  0
 11 12  1  0
 12 13  1  0
 13 14  1  0
  9  1  1  0
 14 11  1  0
  6  4  1  0
M  END
>  <energy_score>  (4533) 
-22.040252

>  <alias>  (4533) 
UNKULXKYGSRHAR-UHFFFAOYSA-N-P52-P7-P52-601530

>  <HIPPO Pose ID>  (4533) 
84644

>  <smiles>  (4533) 
c1nc(C2CC2)cnc1NC1COC1

>  <inchikey>  (4533) 
UNKULXKYGSRHAR-UHFFFAOYSA-N

>  <distance_score>  (4533) 
0.995992

>  <ref_mols>  (4533) 
Z0875a,Z0089a

>  <ref_pdb>  (4533) 
Z0089a

>  <HIPPO Compound ID>  (4533) 
144843

>  <name>  (4533) 
UNKULXKYGSRHAR-UHFFFAOYSA-N-P52-P7-P52-601530

>  <inspiration_score>  (4533) 
None

$$$$
CDNFBROYMIWNIY-UHFFFAOYSA-N-P7-P7-P52-601530
     RDKit          3D

 14 16  0  0  0  0  0  0  0  0999 V2000
   -9.4754    4.1586  -17.3479 C   0  0  0  0  0  0  0  0  0  0  0  0
   -8.8591    4.0864  -18.5068 N   0  0  0  0  0  0  0  0  0  0  0  0
   -7.5714    4.4670  -18.2420 C   0  0  0  0  0  0  0  0  0  0  0  0
   -6.5415    4.5454  -19.1129 N   0  0  0  0  0  0  0  0  0  0  0  0
   -5.3780    4.9274  -18.5553 C   0  0  0  0  0  0  0  0  0  0  0  0
   -4.2935    4.9361  -19.4316 N   0  0  0  0  0  0  0  0  0  0  0  0
   -2.9957    5.5112  -19.2920 C   0  0  0  0  0  0  0  0  0  0  0  0
   -1.9151    4.7113  -20.0465 C   0  0  0  0  0  0  0  0  0  0  0  0
   -2.1540    5.5214  -21.2472 O   0  0  0  0  0  0  0  0  0  0  0  0
   -2.7154    6.5619  -20.3794 C   0  0  0  0  0  0  0  0  0  0  0  0
   -5.2700    5.2402  -17.1899 C   0  0  0  0  0  0  0  0  0  0  0  0
   -6.2898    5.2092  -16.2867 N   0  0  0  0  0  0  0  0  0  0  0  0
   -7.4123    4.7795  -16.8964 C   0  0  0  0  0  0  0  0  0  0  0  0
   -8.6303    4.5348  -16.3373 N   0  0  0  0  0  0  0  0  0  0  0  0
  1  2  2  0
  2  3  1  0
  3  4  2  0
  4  5  1  0
  5  6  1  0
  6  7  1  0
  7  8  1  0
  8  9  1  0
  9 10  1  0
  5 11  2  0
 11 12  1  0
 12 13  2  0
 13 14  1  0
 14  1  1  0
 13  3  1  0
 10  7  1  0
M  END
>  <energy_score>  (4534) 
-28.021218

>  <alias>  (4534) 
CDNFBROYMIWNIY-UHFFFAOYSA-N-P7-P7-P52-601530

>  <HIPPO Pose ID>  (4534) 
84645

>  <smiles>  (4534) 
c1nc2nc(NC3COC3)cnc2[nH]1

>  <inchikey>  (4534) 
CDNFBROYMIWNIY-UHFFFAOYSA-N

>  <distance_score>  (4534) 
0.878059

>  <ref_mols>  (4534) 
Z0875a,Z0089a

>  <ref_pdb>  (4534) 
Z0089a

>  <HIPPO Compound ID>  (4534) 
144844

>  <name>  (4534) 
CDNFBROYMIWNIY-UHFFFAOYSA-N-P7-P7-P52-601530

>  <inspiration_score>  (4534) 
None

$$$$
NNBZLICQGYZUAD-UHFFFAOYSA-N-P52-P7-P52-601530
     RDKit          3D

 14 16  0  0  0  0  0  0  0  0999 V2000
   -8.6344    4.8112  -15.8025 C   0  0  0  0  0  0  0  0  0  0  0  0
   -9.0117    4.3693  -17.0299 N   0  0  0  0  0  0  0  0  0  0  0  0
   -7.9155    4.5532  -17.7212 C   0  0  0  0  0  0  0  0  0  0  0  0
   -7.6381    4.2430  -19.0767 C   0  0  0  0  0  0  0  0  0  0  0  0
   -6.4483    4.4114  -19.5748 N   0  0  0  0  0  0  0  0  0  0  0  0
   -5.4310    4.9269  -18.7880 C   0  0  0  0  0  0  0  0  0  0  0  0
   -4.2123    5.0210  -19.4291 N   0  0  0  0  0  0  0  0  0  0  0  0
   -3.1347    5.9238  -19.1733 C   0  0  0  0  0  0  0  0  0  0  0  0
   -1.7911    5.4052  -19.7275 C   0  0  0  0  0  0  0  0  0  0  0  0
   -1.1217    5.7771  -18.4905 O   0  0  0  0  0  0  0  0  0  0  0  0
   -2.4158    5.7998  -17.8269 C   0  0  0  0  0  0  0  0  0  0  0  0
   -5.6542    5.2738  -17.5009 C   0  0  0  0  0  0  0  0  0  0  0  0
   -6.9121    5.0802  -16.9593 N   0  0  0  0  0  0  0  0  0  0  0  0
   -7.4026    5.3235  -15.7214 N   0  0  0  0  0  0  0  0  0  0  0  0
  1  2  1  0
  2  3  2  0
  3  4  1  0
  4  5  2  0
  5  6  1  0
  6  7  1  0
  7  8  1  0
  8  9  1  0
  9 10  1  0
 10 11  1  0
  6 12  2  0
 12 13  1  0
 13 14  1  0
 14  1  2  0
 13  3  1  0
 11  8  1  0
M  END
>  <energy_score>  (4535) 
-24.496902

>  <alias>  (4535) 
NNBZLICQGYZUAD-UHFFFAOYSA-N-P52-P7-P52-601530

>  <HIPPO Pose ID>  (4535) 
84648

>  <smiles>  (4535) 
c1nc2cnc(NC3COC3)cn2n1

>  <inchikey>  (4535) 
NNBZLICQGYZUAD-UHFFFAOYSA-N

>  <distance_score>  (4535) 
1.326608

>  <ref_mols>  (4535) 
Z0875a,Z0089a

>  <ref_pdb>  (4535) 
Z0089a

>  <HIPPO Compound ID>  (4535) 
144845

>  <name>  (4535) 
NNBZLICQGYZUAD-UHFFFAOYSA-N-P52-P7-P52-601530

>  <inspiration_score>  (4535) 
None

$$$$
YZGCKQLRYVNZQC-UHFFFAOYSA-N-P52-P7-P52-601530
     RDKit          3D

 14 16  0  0  0  0  0  0  0  0999 V2000
   -9.3530    4.3038  -17.3387 C   0  0  0  0  0  0  0  0  0  0  0  0
   -8.7643    4.3422  -18.5844 C   0  0  0  0  0  0  0  0  0  0  0  0
   -7.4038    4.6561  -18.3933 C   0  0  0  0  0  0  0  0  0  0  0  0
   -6.4074    4.8196  -19.2909 N   0  0  0  0  0  0  0  0  0  0  0  0
   -5.2248    5.1726  -18.7655 C   0  0  0  0  0  0  0  0  0  0  0  0
   -4.2549    5.3992  -19.7395 N   0  0  0  0  0  0  0  0  0  0  0  0
   -2.8662    5.6978  -19.7205 C   0  0  0  0  0  0  0  0  0  0  0  0
   -2.0009    4.7632  -18.8823 C   0  0  0  0  0  0  0  0  0  0  0  0
   -1.7004    5.8230  -17.9356 O   0  0  0  0  0  0  0  0  0  0  0  0
   -2.3927    6.7904  -18.7659 C   0  0  0  0  0  0  0  0  0  0  0  0
   -5.0539    5.3155  -17.3823 C   0  0  0  0  0  0  0  0  0  0  0  0
   -6.0311    5.1645  -16.4426 N   0  0  0  0  0  0  0  0  0  0  0  0
   -7.1948    4.8202  -17.0307 C   0  0  0  0  0  0  0  0  0  0  0  0
   -8.3792    4.5558  -16.4001 N   0  0  0  0  0  0  0  0  0  0  0  0
  1  2  2  0
  2  3  1  0
  3  4  2  0
  4  5  1  0
  5  6  1  0
  6  7  1  0
  7  8  1  0
  8  9  1  0
  9 10  1  0
  5 11  2  0
 11 12  1  0
 12 13  2  0
 13 14  1  0
 14  1  1  0
 13  3  1  0
 10  7  1  0
M  END
>  <energy_score>  (4536) 
-25.49508

>  <alias>  (4536) 
YZGCKQLRYVNZQC-UHFFFAOYSA-N-P52-P7-P52-601530

>  <HIPPO Pose ID>  (4536) 
84652

>  <smiles>  (4536) 
c1cc2nc(NC3COC3)cnc2[nH]1

>  <inchikey>  (4536) 
YZGCKQLRYVNZQC-UHFFFAOYSA-N

>  <distance_score>  (4536) 
0.759211

>  <ref_mols>  (4536) 
Z0875a,Z0089a

>  <ref_pdb>  (4536) 
Z0089a

>  <HIPPO Compound ID>  (4536) 
144847

>  <name>  (4536) 
YZGCKQLRYVNZQC-UHFFFAOYSA-N-P52-P7-P52-601530

>  <inspiration_score>  (4536) 
None

$$$$
SOSIYEXZZGLMDU-UHFFFAOYSA-N-P7-P7-P52-601530
     RDKit          3D

 14 14  0  0  0  0  0  0  0  0999 V2000
   -1.7552    3.5561  -19.4344 C   0  0  0  0  0  0  0  0  0  0  0  0
   -1.8215    4.8737  -19.6549 C   0  0  0  0  0  0  0  0  0  0  0  0
   -2.8906    5.7616  -19.0668 C   0  0  1  0  0  0  0  0  0  0  0  0
   -2.8817    7.1702  -19.6880 C   0  0  0  0  0  0  0  0  0  0  0  0
   -1.7158    7.9017  -19.3094 O   0  0  0  0  0  0  0  0  0  0  0  0
   -4.1613    5.1134  -19.3066 N   0  0  0  0  0  0  0  0  0  0  0  0
   -5.2197    5.1042  -18.4388 C   0  0  0  0  0  0  0  0  0  0  0  0
   -5.1608    5.4034  -17.0828 C   0  0  0  0  0  0  0  0  0  0  0  0
   -6.2269    5.3461  -16.2544 N   0  0  0  0  0  0  0  0  0  0  0  0
   -7.3834    4.9148  -16.8150 C   0  0  0  0  0  0  0  0  0  0  0  0
   -8.5315    4.7269  -15.8772 C   0  0  0  0  0  0  0  0  0  0  0  0
   -7.4646    4.5987  -18.1720 C   0  0  0  0  0  0  0  0  0  0  0  0
   -8.7396    4.1365  -18.8100 C   0  0  0  0  0  0  0  0  0  0  0  0
   -6.3830    4.7140  -18.9868 N   0  0  0  0  0  0  0  0  0  0  0  0
  1  2  2  0
  2  3  1  0
  3  4  1  6
  4  5  1  0
  3  6  1  0
  6  7  1  0
  7  8  2  0
  8  9  1  0
  9 10  2  0
 10 11  1  0
 10 12  1  0
 12 13  1  0
 12 14  2  0
 14  7  1  0
M  END
>  <energy_score>  (4537) 
-21.187067

>  <alias>  (4537) 
SOSIYEXZZGLMDU-UHFFFAOYSA-N-P7-P7-P52-601530

>  <HIPPO Pose ID>  (4537) 
84657

>  <smiles>  (4537) 
C=CC(CO)Nc1cnc(C)c(C)n1

>  <inchikey>  (4537) 
SOSIYEXZZGLMDU-UHFFFAOYSA-N

>  <distance_score>  (4537) 
0.859101

>  <ref_mols>  (4537) 
Z0875a,Z0089a

>  <ref_pdb>  (4537) 
Z0089a

>  <HIPPO Compound ID>  (4537) 
144850

>  <name>  (4537) 
SOSIYEXZZGLMDU-UHFFFAOYSA-N-P7-P7-P52-601530

>  <inspiration_score>  (4537) 
None

$$$$
KKFPZVWWVOTTPC-UHFFFAOYSA-N-P52-P7-P52-601530
     RDKit          3D

 14 14  0  0  0  0  0  0  0  0999 V2000
   -1.4671    3.8334  -20.0397 C   0  0  0  0  0  0  0  0  0  0  0  0
   -2.2298    4.6440  -19.3037 C   0  0  0  0  0  0  0  0  0  0  0  0
   -2.6211    6.0188  -19.7401 C   0  0  2  0  0  0  0  0  0  0  0  0
   -1.9859    7.1414  -18.9019 C   0  0  0  0  0  0  0  0  0  0  0  0
   -2.6255    8.3939  -19.1659 O   0  0  0  0  0  0  0  0  0  0  0  0
   -4.0768    6.1503  -19.8446 N   0  0  0  0  0  0  0  0  0  0  0  0
   -4.8941    5.7544  -18.8026 C   0  0  0  0  0  0  0  0  0  0  0  0
   -4.7961    6.1962  -17.4865 C   0  0  0  0  0  0  0  0  0  0  0  0
   -5.6090    5.7767  -16.4968 N   0  0  0  0  0  0  0  0  0  0  0  0
   -6.5871    4.9197  -16.8699 C   0  0  0  0  0  0  0  0  0  0  0  0
   -7.4852    4.4399  -15.7828 C   0  0  0  0  0  0  0  0  0  0  0  0
   -9.2952    4.3258  -16.4135 Br  0  0  0  0  0  0  0  0  0  0  0  0
   -6.6977    4.4980  -18.1907 C   0  0  0  0  0  0  0  0  0  0  0  0
   -5.8517    4.8930  -19.1623 N   0  0  0  0  0  0  0  0  0  0  0  0
  1  2  2  0
  2  3  1  0
  3  4  1  1
  4  5  1  0
  3  6  1  0
  6  7  1  0
  7  8  2  0
  8  9  1  0
  9 10  2  0
 10 11  1  0
 11 12  1  0
 10 13  1  0
 13 14  2  0
 14  7  1  0
M  END
>  <energy_score>  (4538) 
-24.404771

>  <alias>  (4538) 
KKFPZVWWVOTTPC-UHFFFAOYSA-N-P52-P7-P52-601530

>  <HIPPO Pose ID>  (4538) 
84660

>  <smiles>  (4538) 
C=CC(CO)Nc1cnc(CBr)cn1

>  <inchikey>  (4538) 
KKFPZVWWVOTTPC-UHFFFAOYSA-N

>  <distance_score>  (4538) 
0.956382

>  <ref_mols>  (4538) 
Z0875a,Z0089a

>  <ref_pdb>  (4538) 
Z0089a

>  <HIPPO Compound ID>  (4538) 
144851

>  <name>  (4538) 
KKFPZVWWVOTTPC-UHFFFAOYSA-N-P52-P7-P52-601530

>  <inspiration_score>  (4538) 
None

$$$$
OKBDPQCDDOFPBQ-UHFFFAOYSA-N-P7-P7-P52-601530
     RDKit          3D

 14 14  0  0  0  0  0  0  0  0999 V2000
   -1.6700    3.6748  -19.6112 C   0  0  0  0  0  0  0  0  0  0  0  0
   -2.5152    4.3163  -18.7975 C   0  0  0  0  0  0  0  0  0  0  0  0
   -2.8920    5.7719  -18.8193 C   0  0  1  0  0  0  0  0  0  0  0  0
   -2.1573    6.6273  -19.8879 C   0  0  0  0  0  0  0  0  0  0  0  0
   -2.4691    6.2164  -21.2402 O   0  0  0  0  0  0  0  0  0  0  0  0
   -4.3142    5.8976  -19.0806 N   0  0  0  0  0  0  0  0  0  0  0  0
   -5.3428    5.4410  -18.3043 C   0  0  0  0  0  0  0  0  0  0  0  0
   -6.2972    4.8968  -19.0993 N   0  0  0  0  0  0  0  0  0  0  0  0
   -7.4431    4.4663  -18.5352 C   0  0  0  0  0  0  0  0  0  0  0  0
   -7.6514    4.5424  -17.1802 C   0  0  0  0  0  0  0  0  0  0  0  0
   -6.7315    5.0678  -16.3465 N   0  0  0  0  0  0  0  0  0  0  0  0
   -5.5740    5.5201  -16.9220 C   0  0  0  0  0  0  0  0  0  0  0  0
   -4.7178    6.1459  -15.8741 C   0  0  0  0  0  0  0  0  0  0  0  0
   -3.7710    6.9033  -16.0317 O   0  0  0  0  0  0  0  0  0  0  0  0
  1  2  2  0
  2  3  1  0
  3  4  1  6
  4  5  1  0
  3  6  1  0
  6  7  1  0
  7  8  2  0
  8  9  1  0
  9 10  2  0
 10 11  1  0
 11 12  2  0
 12 13  1  0
 13 14  2  0
 12  7  1  0
M  END
>  <energy_score>  (4539) 
-23.779336

>  <alias>  (4539) 
OKBDPQCDDOFPBQ-UHFFFAOYSA-N-P7-P7-P52-601530

>  <HIPPO Pose ID>  (4539) 
84661

>  <smiles>  (4539) 
C=CC(CO)Nc1nccnc1C=O

>  <inchikey>  (4539) 
OKBDPQCDDOFPBQ-UHFFFAOYSA-N

>  <distance_score>  (4539) 
0.945834

>  <ref_mols>  (4539) 
Z0875a,Z0089a

>  <ref_pdb>  (4539) 
Z0089a

>  <HIPPO Compound ID>  (4539) 
144852

>  <name>  (4539) 
OKBDPQCDDOFPBQ-UHFFFAOYSA-N-P7-P7-P52-601530

>  <inspiration_score>  (4539) 
None

$$$$
GLUKPRMUNWEUHQ-UHFFFAOYSA-N-P7-P7-P52-601530
     RDKit          3D

 14 14  0  0  0  0  0  0  0  0999 V2000
   -1.8056    3.6809  -19.3397 C   0  0  0  0  0  0  0  0  0  0  0  0
   -1.7772    4.9339  -19.8035 C   0  0  0  0  0  0  0  0  0  0  0  0
   -2.9027    5.9352  -19.8031 C   0  0  2  0  0  0  0  0  0  0  0  0
   -2.6929    7.0683  -18.7876 C   0  0  0  0  0  0  0  0  0  0  0  0
   -1.7043    7.9912  -19.2572 O   0  0  0  0  0  0  0  0  0  0  0  0
   -4.1752    5.2442  -19.7661 N   0  0  0  0  0  0  0  0  0  0  0  0
   -5.0960    5.0995  -18.7786 C   0  0  0  0  0  0  0  0  0  0  0  0
   -4.8851    5.1637  -17.4041 C   0  0  0  0  0  0  0  0  0  0  0  0
   -5.8693    5.0231  -16.4807 N   0  0  0  0  0  0  0  0  0  0  0  0
   -7.0897    4.7405  -17.0036 C   0  0  0  0  0  0  0  0  0  0  0  0
   -8.1788    4.5316  -16.0476 C   0  0  0  0  0  0  0  0  0  0  0  0
   -9.3336    4.3604  -16.4146 O   0  0  0  0  0  0  0  0  0  0  0  0
   -7.3211    4.6460  -18.3596 C   0  0  0  0  0  0  0  0  0  0  0  0
   -6.3248    4.8303  -19.2536 N   0  0  0  0  0  0  0  0  0  0  0  0
  1  2  2  0
  2  3  1  0
  3  4  1  1
  4  5  1  0
  3  6  1  0
  6  7  1  0
  7  8  2  0
  8  9  1  0
  9 10  2  0
 10 11  1  0
 11 12  2  0
 10 13  1  0
 13 14  2  0
 14  7  1  0
M  END
>  <energy_score>  (4540) 
-12.669974

>  <alias>  (4540) 
GLUKPRMUNWEUHQ-UHFFFAOYSA-N-P7-P7-P52-601530

>  <HIPPO Pose ID>  (4540) 
84675

>  <smiles>  (4540) 
C=CC(CO)Nc1cnc(C=O)cn1

>  <inchikey>  (4540) 
GLUKPRMUNWEUHQ-UHFFFAOYSA-N

>  <distance_score>  (4540) 
0.738194

>  <ref_mols>  (4540) 
Z0875a,Z0089a

>  <ref_pdb>  (4540) 
Z0089a

>  <HIPPO Compound ID>  (4540) 
144859

>  <name>  (4540) 
GLUKPRMUNWEUHQ-UHFFFAOYSA-N-P7-P7-P52-601530

>  <inspiration_score>  (4540) 
None

$$$$
MTBLNNZDXAYBAS-UHFFFAOYSA-N-P52-P7-P52-601530
     RDKit          3D

 14 14  0  0  0  0  0  0  0  0999 V2000
   -0.9966    5.5166  -20.8566 C   0  0  0  0  0  0  0  0  0  0  0  0
   -1.7004    4.9230  -19.8805 C   0  0  0  0  0  0  0  0  0  0  0  0
   -2.7668    5.5551  -19.0129 C   0  0  1  0  0  0  0  0  0  0  0  0
   -2.9351    7.0841  -19.1754 C   0  0  0  0  0  0  0  0  0  0  0  0
   -3.5303    7.4339  -20.4340 O   0  0  0  0  0  0  0  0  0  0  0  0
   -3.9929    4.8764  -19.3625 N   0  0  0  0  0  0  0  0  0  0  0  0
   -5.1801    4.9057  -18.6724 C   0  0  0  0  0  0  0  0  0  0  0  0
   -6.2184    4.4624  -19.3324 N   0  0  0  0  0  0  0  0  0  0  0  0
   -7.4342    4.5018  -18.7109 C   0  0  0  0  0  0  0  0  0  0  0  0
   -7.6551    5.0466  -17.5127 C   0  0  0  0  0  0  0  0  0  0  0  0
   -6.6238    5.6068  -16.8018 N   0  0  0  0  0  0  0  0  0  0  0  0
   -6.8456    6.2567  -15.5482 C   0  0  0  0  0  0  0  0  0  0  0  0
   -5.3140    5.4746  -17.2273 C   0  0  0  0  0  0  0  0  0  0  0  0
   -4.3444    5.8238  -16.5639 O   0  0  0  0  0  0  0  0  0  0  0  0
  1  2  2  0
  2  3  1  0
  3  4  1  6
  4  5  1  0
  3  6  1  0
  6  7  1  0
  7  8  2  0
  8  9  1  0
  9 10  2  0
 10 11  1  0
 11 12  1  0
 11 13  1  0
 13 14  2  0
 13  7  1  0
M  END
>  <energy_score>  (4541) 
-39.005358

>  <alias>  (4541) 
MTBLNNZDXAYBAS-UHFFFAOYSA-N-P52-P7-P52-601530

>  <HIPPO Pose ID>  (4541) 
84682

>  <smiles>  (4541) 
C=CC(CO)Nc1nccn(C)c1=O

>  <inchikey>  (4541) 
MTBLNNZDXAYBAS-UHFFFAOYSA-N

>  <distance_score>  (4541) 
1.162243

>  <ref_mols>  (4541) 
Z0875a,Z0089a

>  <ref_pdb>  (4541) 
Z0089a

>  <HIPPO Compound ID>  (4541) 
144862

>  <name>  (4541) 
MTBLNNZDXAYBAS-UHFFFAOYSA-N-P52-P7-P52-601530

>  <inspiration_score>  (4541) 
None

$$$$
NBBGKQODYVEYHG-UHFFFAOYSA-N-P7-P7-P52-601530
     RDKit          3D

 14 14  0  0  0  0  0  0  0  0999 V2000
   -1.7851    3.4730  -19.4729 C   0  0  0  0  0  0  0  0  0  0  0  0
   -1.8362    4.7694  -19.7881 C   0  0  0  0  0  0  0  0  0  0  0  0
   -2.6467    5.7464  -18.9872 C   0  0  1  0  0  0  0  0  0  0  0  0
   -2.0400    7.1639  -19.0716 C   0  0  0  0  0  0  0  0  0  0  0  0
   -2.5135    7.9970  -18.0098 O   0  0  0  0  0  0  0  0  0  0  0  0
   -3.9953    5.7462  -19.5315 N   0  0  0  0  0  0  0  0  0  0  0  0
   -5.0475    5.5196  -18.6596 C   0  0  0  0  0  0  0  0  0  0  0  0
   -5.1313    6.0200  -17.3615 C   0  0  0  0  0  0  0  0  0  0  0  0
   -6.1887    5.8172  -16.5464 N   0  0  0  0  0  0  0  0  0  0  0  0
   -7.2057    5.1079  -17.0761 C   0  0  0  0  0  0  0  0  0  0  0  0
   -8.2422    4.9772  -16.2087 O   0  0  0  0  0  0  0  0  0  0  0  0
   -9.3140    4.1576  -16.6333 C   0  0  0  0  0  0  0  0  0  0  0  0
   -7.1444    4.6330  -18.3797 C   0  0  0  0  0  0  0  0  0  0  0  0
   -6.0596    4.8055  -19.1756 N   0  0  0  0  0  0  0  0  0  0  0  0
  1  2  2  0
  2  3  1  0
  3  4  1  6
  4  5  1  0
  3  6  1  0
  6  7  1  0
  7  8  2  0
  8  9  1  0
  9 10  2  0
 10 11  1  0
 11 12  1  0
 10 13  1  0
 13 14  2  0
 14  7  1  0
M  END
>  <energy_score>  (4542) 
-39.004885

>  <alias>  (4542) 
NBBGKQODYVEYHG-UHFFFAOYSA-N-P7-P7-P52-601530

>  <HIPPO Pose ID>  (4542) 
84683

>  <smiles>  (4542) 
C=CC(CO)Nc1cnc(OC)cn1

>  <inchikey>  (4542) 
NBBGKQODYVEYHG-UHFFFAOYSA-N

>  <distance_score>  (4542) 
0.737411

>  <ref_mols>  (4542) 
Z0875a,Z0089a

>  <ref_pdb>  (4542) 
Z0089a

>  <HIPPO Compound ID>  (4542) 
144863

>  <name>  (4542) 
NBBGKQODYVEYHG-UHFFFAOYSA-N-P7-P7-P52-601530

>  <inspiration_score>  (4542) 
None

$$$$
ZFKIPVUREGRJGR-UHFFFAOYSA-N-P7-P7-P52-601530
     RDKit          3D

 14 14  0  0  0  0  0  0  0  0999 V2000
   -1.5079    4.7887  -18.6538 C   0  0  0  0  0  0  0  0  0  0  0  0
   -2.3279    5.7818  -19.4750 C   0  0  0  0  0  0  0  0  0  0  0  0
   -2.3723    7.1626  -18.8103 C   0  0  0  0  0  0  0  0  0  0  0  0
   -1.5678    5.9033  -20.8264 C   0  0  0  0  0  0  0  0  0  0  0  0
   -2.4603    6.8304  -22.0630 Cl  0  0  0  0  0  0  0  0  0  0  0  0
   -3.6685    5.2362  -19.6849 N   0  0  0  0  0  0  0  0  0  0  0  0
   -4.7036    5.1538  -18.7912 C   0  0  0  0  0  0  0  0  0  0  0  0
   -4.6441    5.1709  -17.4035 C   0  0  0  0  0  0  0  0  0  0  0  0
   -5.7282    5.0686  -16.5945 N   0  0  0  0  0  0  0  0  0  0  0  0
   -6.9161    4.8611  -17.2157 C   0  0  0  0  0  0  0  0  0  0  0  0
   -8.0842    4.6686  -16.3056 C   0  0  0  0  0  0  0  0  0  0  0  0
   -9.6850    4.0622  -17.1964 Br  0  0  0  0  0  0  0  0  0  0  0  0
   -6.9790    4.8521  -18.6013 C   0  0  0  0  0  0  0  0  0  0  0  0
   -5.8913    5.0092  -19.3890 N   0  0  0  0  0  0  0  0  0  0  0  0
  1  2  1  0
  2  3  1  0
  2  4  1  0
  4  5  1  0
  2  6  1  0
  6  7  1  0
  7  8  2  0
  8  9  1  0
  9 10  2  0
 10 11  1  0
 11 12  1  0
 10 13  1  0
 13 14  2  0
 14  7  1  0
M  END
>  <energy_score>  (4543) 
-25.558916

>  <alias>  (4543) 
ZFKIPVUREGRJGR-UHFFFAOYSA-N-P7-P7-P52-601530

>  <HIPPO Pose ID>  (4543) 
84689

>  <smiles>  (4543) 
CC(C)(CCl)Nc1cnc(CBr)cn1

>  <inchikey>  (4543) 
ZFKIPVUREGRJGR-UHFFFAOYSA-N

>  <distance_score>  (4543) 
0.90586

>  <ref_mols>  (4543) 
Z0875a,Z0089a

>  <ref_pdb>  (4543) 
Z0089a

>  <HIPPO Compound ID>  (4543) 
144866

>  <name>  (4543) 
ZFKIPVUREGRJGR-UHFFFAOYSA-N-P7-P7-P52-601530

>  <inspiration_score>  (4543) 
None

$$$$
CWBGHTXWRVKTIR-UHFFFAOYSA-N-P7-P7-P52-601530
     RDKit          3D

 14 14  0  0  0  0  0  0  0  0999 V2000
   -2.4090    4.4151  -19.0680 C   0  0  0  0  0  0  0  0  0  0  0  0
   -2.5851    5.8821  -18.6573 C   0  0  0  0  0  0  0  0  0  0  0  0
   -1.9009    6.7584  -19.7354 C   0  0  0  0  0  0  0  0  0  0  0  0
   -1.9396    6.1853  -17.2859 C   0  0  0  0  0  0  0  0  0  0  0  0
   -0.1558    6.0160  -17.2354 Cl  0  0  0  0  0  0  0  0  0  0  0  0
   -4.0168    6.2893  -18.7141 N   0  0  0  0  0  0  0  0  0  0  0  0
   -5.0740    5.6154  -18.1391 C   0  0  0  0  0  0  0  0  0  0  0  0
   -5.8521    5.0797  -19.1121 N   0  0  0  0  0  0  0  0  0  0  0  0
   -7.0321    4.5266  -18.7542 C   0  0  0  0  0  0  0  0  0  0  0  0
   -7.4357    4.4672  -17.4423 C   0  0  0  0  0  0  0  0  0  0  0  0
   -6.6792    4.9610  -16.4421 N   0  0  0  0  0  0  0  0  0  0  0  0
   -5.4984    5.5476  -16.8033 C   0  0  0  0  0  0  0  0  0  0  0  0
   -4.8829    6.1956  -15.6151 C   0  0  0  0  0  0  0  0  0  0  0  0
   -4.0416    7.0820  -15.6113 O   0  0  0  0  0  0  0  0  0  0  0  0
  1  2  1  0
  2  3  1  0
  2  4  1  0
  4  5  1  0
  2  6  1  0
  6  7  1  0
  7  8  2  0
  8  9  1  0
  9 10  2  0
 10 11  1  0
 11 12  2  0
 12 13  1  0
 13 14  2  0
 12  7  1  0
M  END
>  <energy_score>  (4544) 
-22.092741

>  <alias>  (4544) 
CWBGHTXWRVKTIR-UHFFFAOYSA-N-P7-P7-P52-601530

>  <HIPPO Pose ID>  (4544) 
84691

>  <smiles>  (4544) 
CC(C)(CCl)Nc1nccnc1C=O

>  <inchikey>  (4544) 
CWBGHTXWRVKTIR-UHFFFAOYSA-N

>  <distance_score>  (4544) 
1.010084

>  <ref_mols>  (4544) 
Z0875a,Z0089a

>  <ref_pdb>  (4544) 
Z0089a

>  <HIPPO Compound ID>  (4544) 
144867

>  <name>  (4544) 
CWBGHTXWRVKTIR-UHFFFAOYSA-N-P7-P7-P52-601530

>  <inspiration_score>  (4544) 
None

$$$$
SRHXKWGCGROGER-UHFFFAOYSA-N-P7-P7-P52-601530
     RDKit          3D

 14 16  0  0  0  0  0  0  0  0999 V2000
   -4.6887    5.2825  -19.0620 C   0  0  0  0  0  0  0  0  0  0  0  0
   -4.1946    5.1375  -17.8307 C   0  0  0  0  0  0  0  0  0  0  0  0
   -5.0707    4.9058  -16.7889 N   0  0  0  0  0  0  0  0  0  0  0  0
   -4.7802    4.7634  -15.4733 N   0  0  0  0  0  0  0  0  0  0  0  0
   -5.9569    4.5019  -14.9025 C   0  0  0  0  0  0  0  0  0  0  0  0
   -7.0103    4.4932  -15.8161 C   0  0  0  0  0  0  0  0  0  0  0  0
   -6.4266    4.8020  -17.0253 C   0  0  0  0  0  0  0  0  0  0  0  0
   -6.9005    5.0045  -18.3802 C   0  0  0  0  0  0  0  0  0  0  0  0
   -8.2001    5.0344  -18.7893 N   0  0  0  0  0  0  0  0  0  0  0  0
   -9.2774    4.6747  -17.9607 C   0  0  0  0  0  0  0  0  0  0  0  0
  -10.6629    4.8517  -18.5689 C   0  0  0  0  0  0  0  0  0  0  0  0
  -11.0443    3.5573  -18.0215 O   0  0  0  0  0  0  0  0  0  0  0  0
   -9.6282    3.2242  -18.0086 C   0  0  0  0  0  0  0  0  0  0  0  0
   -6.0303    5.2376  -19.3381 N   0  0  0  0  0  0  0  0  0  0  0  0
  1  2  2  0
  2  3  1  0
  3  4  1  0
  4  5  2  0
  5  6  1  0
  6  7  2  0
  7  8  1  0
  8  9  1  0
  9 10  1  0
 10 11  1  0
 11 12  1  0
 12 13  1  0
  8 14  2  0
 14  1  1  0
  7  3  1  0
 13 10  1  0
M  END
>  <energy_score>  (4545) 
-24.677052

>  <alias>  (4545) 
SRHXKWGCGROGER-UHFFFAOYSA-N-P7-P7-P52-601530

>  <HIPPO Pose ID>  (4545) 
84695

>  <smiles>  (4545) 
c1cn2nccc2c(NC2COC2)n1

>  <inchikey>  (4545) 
SRHXKWGCGROGER-UHFFFAOYSA-N

>  <distance_score>  (4545) 
1.407594

>  <ref_mols>  (4545) 
Z0875a,Z0089a

>  <ref_pdb>  (4545) 
Z0089a

>  <HIPPO Compound ID>  (4545) 
144869

>  <name>  (4545) 
SRHXKWGCGROGER-UHFFFAOYSA-N-P7-P7-P52-601530

>  <inspiration_score>  (4545) 
None

$$$$
BEKZFMIUVRKPPM-UHFFFAOYSA-N-P7-P7-P52-601530
     RDKit          3D

 14 14  0  0  0  0  0  0  0  0999 V2000
   -4.2312    6.1870  -15.9926 C   0  0  0  0  0  0  0  0  0  0  0  0
   -5.2794    5.5438  -16.8556 C   0  0  0  0  0  0  0  0  0  0  0  0
   -6.4540    5.3358  -16.1749 N   0  0  0  0  0  0  0  0  0  0  0  0
   -7.5841    4.8698  -16.7715 C   0  0  0  0  0  0  0  0  0  0  0  0
   -8.6455    4.7479  -16.1867 O   0  0  0  0  0  0  0  0  0  0  0  0
   -7.4240    4.5652  -18.2428 C   0  0  0  0  0  0  0  0  0  0  0  0
   -8.6561    4.0908  -18.9527 C   0  0  0  0  0  0  0  0  0  0  0  0
   -6.2968    4.7391  -18.8690 N   0  0  0  0  0  0  0  0  0  0  0  0
   -5.2010    5.2328  -18.1821 C   0  0  0  0  0  0  0  0  0  0  0  0
   -4.0953    5.4014  -18.9949 N   0  0  0  0  0  0  0  0  0  0  0  0
   -2.6750    5.3665  -18.6706 C   0  0  1  0  0  0  0  0  0  0  0  0
   -2.0082    4.2043  -19.4068 C   0  0  0  0  0  0  0  0  0  0  0  0
   -2.0598    6.7191  -19.0757 C   0  0  0  0  0  0  0  0  0  0  0  0
   -0.1690    7.0788  -18.1153 I   0  0  0  0  0  0  0  0  0  0  0  0
  1  2  1  0
  2  3  1  0
  3  4  1  0
  4  5  2  0
  4  6  1  0
  6  7  1  0
  6  8  2  0
  8  9  1  0
  9 10  1  0
 10 11  1  0
 11 12  1  6
 11 13  1  0
 13 14  1  0
  9  2  2  0
M  END
>  <energy_score>  (4546) 
-19.527389

>  <alias>  (4546) 
BEKZFMIUVRKPPM-UHFFFAOYSA-N-P7-P7-P52-601530

>  <HIPPO Pose ID>  (4546) 
84701

>  <smiles>  (4546) 
Cc1[nH]c(=O)c(C)nc1NC(C)CI

>  <inchikey>  (4546) 
BEKZFMIUVRKPPM-UHFFFAOYSA-N

>  <distance_score>  (4546) 
1.300897

>  <ref_mols>  (4546) 
Z0875a,Z0089a

>  <ref_pdb>  (4546) 
Z0089a

>  <HIPPO Compound ID>  (4546) 
144872

>  <name>  (4546) 
BEKZFMIUVRKPPM-UHFFFAOYSA-N-P7-P7-P52-601530

>  <inspiration_score>  (4546) 
None

$$$$
IUWWGNFCXUXHOT-UHFFFAOYSA-N-P52-P7-P52-601530
     RDKit          3D

 14 14  0  0  0  0  0  0  0  0999 V2000
   -1.6080    4.6306  -19.6266 C   0  0  0  0  0  0  0  0  0  0  0  0
   -2.6625    5.4101  -18.8330 C   0  0  1  0  0  0  0  0  0  0  0  0
   -2.6109    6.9178  -19.1304 C   0  0  0  0  0  0  0  0  0  0  0  0
   -0.9484    7.8869  -18.1798 I   0  0  0  0  0  0  0  0  0  0  0  0
   -3.9665    4.8737  -19.1851 N   0  0  0  0  0  0  0  0  0  0  0  0
   -5.1355    4.9346  -18.4744 C   0  0  0  0  0  0  0  0  0  0  0  0
   -6.1931    4.6579  -19.2708 N   0  0  0  0  0  0  0  0  0  0  0  0
   -7.4239    4.6361  -18.7085 C   0  0  0  0  0  0  0  0  0  0  0  0
   -7.6276    4.9224  -17.3769 C   0  0  0  0  0  0  0  0  0  0  0  0
   -6.6126    5.2442  -16.5523 N   0  0  0  0  0  0  0  0  0  0  0  0
   -5.3666    5.1986  -17.1195 C   0  0  0  0  0  0  0  0  0  0  0  0
   -4.2770    5.4277  -16.1540 C   0  0  0  0  0  0  0  0  0  0  0  0
   -3.5117    4.6031  -15.6876 O   0  0  0  0  0  0  0  0  0  0  0  0
   -4.2087    6.7315  -15.8040 O   0  0  0  0  0  0  0  0  0  0  0  0
  2  1  1  6
  2  3  1  0
  3  4  1  0
  2  5  1  0
  5  6  1  0
  6  7  2  0
  7  8  1  0
  8  9  2  0
  9 10  1  0
 10 11  2  0
 11 12  1  0
 12 13  2  0
 12 14  1  0
 11  6  1  0
M  END
>  <energy_score>  (4547) 
-35.683769

>  <alias>  (4547) 
IUWWGNFCXUXHOT-UHFFFAOYSA-N-P52-P7-P52-601530

>  <HIPPO Pose ID>  (4547) 
84706

>  <smiles>  (4547) 
CC(CI)Nc1nccnc1C(=O)O

>  <inchikey>  (4547) 
IUWWGNFCXUXHOT-UHFFFAOYSA-N

>  <distance_score>  (4547) 
1.258876

>  <ref_mols>  (4547) 
Z0875a,Z0089a

>  <ref_pdb>  (4547) 
Z0089a

>  <HIPPO Compound ID>  (4547) 
144874

>  <name>  (4547) 
IUWWGNFCXUXHOT-UHFFFAOYSA-N-P52-P7-P52-601530

>  <inspiration_score>  (4547) 
None

$$$$
VIBYNNXPJVMRJG-UHFFFAOYSA-N-P7-P7-P52-601530
     RDKit          3D

 14 15  0  0  0  0  0  0  0  0999 V2000
   -2.0475    4.2756  -19.5551 C   0  0  0  0  0  0  0  0  0  0  0  0
   -2.9424    5.3128  -18.8834 C   0  0  1  0  0  0  0  0  0  0  0  0
   -2.6408    6.7619  -19.2959 C   0  0  0  0  0  0  0  0  0  0  0  0
   -3.0184    7.2033  -21.3532 I   0  0  0  0  0  0  0  0  0  0  0  0
   -4.3594    4.9692  -19.0456 N   0  0  0  0  0  0  0  0  0  0  0  0
   -5.3423    4.9849  -18.0473 C   0  0  0  0  0  0  0  0  0  0  0  0
   -5.1296    5.3572  -16.7595 C   0  0  0  0  0  0  0  0  0  0  0  0
   -6.0674    5.3516  -15.7452 N   0  0  0  0  0  0  0  0  0  0  0  0
   -7.2699    4.9407  -16.0331 C   0  0  0  0  0  0  0  0  0  0  0  0
   -7.6214    4.5516  -17.3476 C   0  0  0  0  0  0  0  0  0  0  0  0
   -8.7809    4.1513  -17.8006 N   0  0  0  0  0  0  0  0  0  0  0  0
   -8.5546    3.8980  -19.1215 N   0  0  0  0  0  0  0  0  0  0  0  0
   -7.2806    4.1135  -19.4467 N   0  0  0  0  0  0  0  0  0  0  0  0
   -6.6695    4.5694  -18.3368 N   0  0  0  0  0  0  0  0  0  0  0  0
  2  1  1  6
  2  3  1  0
  3  4  1  0
  2  5  1  0
  5  6  1  0
  6  7  2  0
  7  8  1  0
  8  9  2  0
  9 10  1  0
 10 11  2  0
 11 12  1  0
 12 13  2  0
 13 14  1  0
 14  6  1  0
 14 10  1  0
M  END
>  <energy_score>  (4548) 
-20.815016

>  <alias>  (4548) 
VIBYNNXPJVMRJG-UHFFFAOYSA-N-P7-P7-P52-601530

>  <HIPPO Pose ID>  (4548) 
84709

>  <smiles>  (4548) 
CC(CI)Nc1cncc2nnnn12

>  <inchikey>  (4548) 
VIBYNNXPJVMRJG-UHFFFAOYSA-N

>  <distance_score>  (4548) 
1.432023

>  <ref_mols>  (4548) 
Z0875a,Z0089a

>  <ref_pdb>  (4548) 
Z0089a

>  <HIPPO Compound ID>  (4548) 
144876

>  <name>  (4548) 
VIBYNNXPJVMRJG-UHFFFAOYSA-N-P7-P7-P52-601530

>  <inspiration_score>  (4548) 
None

$$$$
ZIXGYNHCZJIADF-UHFFFAOYSA-N-P7-P7-P52-601530
     RDKit          3D

 14 15  0  0  0  0  0  0  0  0999 V2000
   -1.9970    4.3867  -19.1881 C   0  0  0  0  0  0  0  0  0  0  0  0
   -2.7642    5.5934  -19.7155 C   0  0  2  0  0  0  0  0  0  0  0  0
   -2.4528    6.8924  -18.9561 C   0  0  0  0  0  0  0  0  0  0  0  0
   -0.8355    7.9968  -19.9140 I   0  0  0  0  0  0  0  0  0  0  0  0
   -4.1847    5.3165  -19.8159 N   0  0  0  0  0  0  0  0  0  0  0  0
   -5.1319    5.1207  -18.8439 C   0  0  0  0  0  0  0  0  0  0  0  0
   -6.3098    4.7681  -19.3193 N   0  0  0  0  0  0  0  0  0  0  0  0
   -7.3708    4.5749  -18.4588 C   0  0  0  0  0  0  0  0  0  0  0  0
   -7.2845    4.7133  -17.1278 C   0  0  0  0  0  0  0  0  0  0  0  0
   -6.0625    5.0690  -16.6011 N   0  0  0  0  0  0  0  0  0  0  0  0
   -5.6514    5.2851  -15.3155 C   0  0  0  0  0  0  0  0  0  0  0  0
   -4.3230    5.6331  -15.4140 C   0  0  0  0  0  0  0  0  0  0  0  0
   -3.9086    5.6350  -16.7202 N   0  0  0  0  0  0  0  0  0  0  0  0
   -4.9751    5.2814  -17.4097 C   0  0  0  0  0  0  0  0  0  0  0  0
  2  1  1  1
  2  3  1  0
  3  4  1  0
  2  5  1  0
  5  6  1  0
  6  7  2  0
  7  8  1  0
  8  9  2  0
  9 10  1  0
 10 11  1  0
 11 12  2  0
 12 13  1  0
 13 14  2  0
 14  6  1  0
 14 10  1  0
M  END
>  <energy_score>  (4549) 
-23.88072

>  <alias>  (4549) 
ZIXGYNHCZJIADF-UHFFFAOYSA-N-P7-P7-P52-601530

>  <HIPPO Pose ID>  (4549) 
84713

>  <smiles>  (4549) 
CC(CI)Nc1nccn2ccnc12

>  <inchikey>  (4549) 
ZIXGYNHCZJIADF-UHFFFAOYSA-N

>  <distance_score>  (4549) 
0.720308

>  <ref_mols>  (4549) 
Z0875a,Z0089a

>  <ref_pdb>  (4549) 
Z0089a

>  <HIPPO Compound ID>  (4549) 
144878

>  <name>  (4549) 
ZIXGYNHCZJIADF-UHFFFAOYSA-N-P7-P7-P52-601530

>  <inspiration_score>  (4549) 
None

$$$$
WIGIVQYYQDLAKD-UHFFFAOYSA-N-P52-P7-P52-601530
     RDKit          3D

 14 16  0  0  0  0  0  0  0  0999 V2000
   -0.8057    5.7282  -17.8726 O   0  0  0  0  0  0  0  0  0  0  0  0
   -1.7357    6.1082  -18.8948 C   0  0  1  0  0  0  0  0  0  0  0  0
   -1.5801    5.4222  -20.2169 C   0  0  0  0  0  0  0  0  0  0  0  0
   -2.7106    5.0362  -19.3142 C   0  0  2  0  0  0  0  0  0  0  0  0
   -4.0952    5.3769  -19.6218 N   0  0  0  0  0  0  0  0  0  0  0  0
   -5.0544    5.2999  -18.5997 C   0  0  0  0  0  0  0  0  0  0  0  0
   -4.7759    5.5814  -17.2635 C   0  0  0  0  0  0  0  0  0  0  0  0
   -5.6993    5.5116  -16.2843 N   0  0  0  0  0  0  0  0  0  0  0  0
   -6.9311    5.1402  -16.7032 C   0  0  0  0  0  0  0  0  0  0  0  0
   -7.2612    4.8619  -18.0305 C   0  0  0  0  0  0  0  0  0  0  0  0
   -8.6349    4.4299  -18.4690 C   0  0  0  0  0  0  0  0  0  0  0  0
   -9.9145    4.7712  -17.7434 C   0  0  0  0  0  0  0  0  0  0  0  0
   -9.3615    3.3956  -17.6570 C   0  0  0  0  0  0  0  0  0  0  0  0
   -6.2940    4.9441  -18.9814 N   0  0  0  0  0  0  0  0  0  0  0  0
  2  1  1  1
  2  3  1  0
  3  4  1  0
  4  5  1  6
  5  6  1  0
  6  7  2  0
  7  8  1  0
  8  9  2  0
  9 10  1  0
 10 11  1  0
 11 12  1  0
 12 13  1  0
 10 14  2  0
  4  2  1  0
 14  6  1  0
 13 11  1  0
M  END
>  <energy_score>  (4550) 
-19.447008

>  <alias>  (4550) 
WIGIVQYYQDLAKD-UHFFFAOYSA-N-P52-P7-P52-601530

>  <HIPPO Pose ID>  (4550) 
84726

>  <smiles>  (4550) 
OC1CC1Nc1cncc(C2CC2)n1

>  <inchikey>  (4550) 
WIGIVQYYQDLAKD-UHFFFAOYSA-N

>  <distance_score>  (4550) 
1.080291

>  <ref_mols>  (4550) 
Z0875a,Z0089a

>  <ref_pdb>  (4550) 
Z0089a

>  <HIPPO Compound ID>  (4550) 
144884

>  <name>  (4550) 
WIGIVQYYQDLAKD-UHFFFAOYSA-N-P52-P7-P52-601530

>  <inspiration_score>  (4550) 
None

$$$$
WIZHGOADHOOHBM-UHFFFAOYSA-N-P98-P5-P98-601530
     RDKit          3D

 23 26  0  0  0  0  0  0  0  0999 V2000
   -6.6169    8.8713  -25.3958 C   0  0  0  0  0  0  0  0  0  0  0  0
   -6.4624    7.5773  -25.7115 C   0  0  0  0  0  0  0  0  0  0  0  0
   -5.4784    6.5978  -25.1488 C   0  0  0  0  0  0  0  0  0  0  0  0
   -4.8606    7.0989  -23.9627 N   0  0  0  0  0  0  0  0  0  0  0  0
   -3.3685    7.3423  -23.6329 C   0  0  0  0  0  0  0  0  0  0  0  0
   -2.4081    7.0992  -24.2502 O   0  0  0  0  0  0  0  0  0  0  0  0
   -3.3538    8.1210  -22.2799 C   0  0  2  0  0  0  0  0  0  0  0  0
   -1.9255    8.5452  -21.9563 C   0  0  0  0  0  0  0  0  0  0  0  0
   -4.0862    7.3669  -21.2327 N   0  0  0  0  0  0  0  0  0  0  0  0
   -4.4547    8.1883  -20.0657 C   0  0  0  0  0  0  0  0  0  0  0  0
   -3.5537    7.7717  -18.9503 C   0  0  2  0  0  0  0  0  0  0  0  0
   -2.8757    6.5151  -19.3758 C   0  0  2  0  0  0  0  0  0  0  0  0
   -3.3680    6.1737  -20.7407 C   0  0  0  0  0  0  0  0  0  0  0  0
   -3.6800    6.5262  -18.0992 C   0  0  2  0  0  0  0  0  0  0  0  0
   -5.0366    5.7978  -17.8545 C   0  0  0  0  0  0  0  0  0  0  0  0
   -6.0002    5.4165  -18.7593 C   0  0  0  0  0  0  0  0  0  0  0  0
   -7.1014    4.8773  -18.0382 C   0  0  0  0  0  0  0  0  0  0  0  0
   -8.3691    4.3920  -18.4132 C   0  0  0  0  0  0  0  0  0  0  0  0
   -9.2698    3.9963  -17.4228 C   0  0  0  0  0  0  0  0  0  0  0  0
   -8.9058    4.0511  -16.0801 C   0  0  0  0  0  0  0  0  0  0  0  0
   -7.6404    4.4939  -15.6830 C   0  0  0  0  0  0  0  0  0  0  0  0
   -6.7636    4.9148  -16.6876 C   0  0  0  0  0  0  0  0  0  0  0  0
   -5.4866    5.4234  -16.6091 N   0  0  0  0  0  0  0  0  0  0  0  0
  1  2  2  0
  2  3  1  0
  3  4  1  0
  4  5  1  0
  5  6  2  0
  5  7  1  0
  7  8  1  1
  7  9  1  0
  9 10  1  0
 11 10  1  6
 11 12  1  0
 12 13  1  6
 12 14  1  0
 14 15  1  6
 15 16  2  0
 16 17  1  0
 17 18  2  0
 18 19  1  0
 19 20  2  0
 20 21  1  0
 21 22  2  0
 22 23  1  0
 13  9  1  0
 23 15  1  0
 14 11  1  0
 22 17  1  0
M  END
>  <energy_score>  (4551) 
-13.12093

>  <alias>  (4551) 
WIZHGOADHOOHBM-UHFFFAOYSA-N-P98-P5-P98-601530

>  <HIPPO Pose ID>  (4551) 
84728

>  <smiles>  (4551) 
C=CCNC(=O)C(C)N1CC2C(C1)C2c1cc2ccccc2[nH]1

>  <inchikey>  (4551) 
WIZHGOADHOOHBM-UHFFFAOYSA-N

>  <distance_score>  (4551) 
1.388138

>  <ref_mols>  (4551) 
Z1729a,Z2971a

>  <ref_pdb>  (4551) 
Z0089a

>  <HIPPO Compound ID>  (4551) 
147736

>  <name>  (4551) 
WIZHGOADHOOHBM-UHFFFAOYSA-N-P98-P5-P98-601530

>  <inspiration_score>  (4551) 
None

$$$$
CLOCCLVEOROIDG-UHFFFAOYSA-N-P98-P5-P98-601530
     RDKit          3D

 24 26  0  0  0  0  0  0  0  0999 V2000
   -5.5577    8.3812  -27.4386 C   0  0  0  0  0  0  0  0  0  0  0  0
   -5.6978    8.7597  -26.1611 C   0  0  0  0  0  0  0  0  0  0  0  0
   -6.3898    7.9536  -25.1125 C   0  0  0  0  0  0  0  0  0  0  0  0
   -5.4076    7.5812  -24.1433 N   0  0  0  0  0  0  0  0  0  0  0  0
   -5.0817    8.1927  -22.7453 C   0  0  0  0  0  0  0  0  0  0  0  0
   -5.6189    9.0424  -22.1460 O   0  0  0  0  0  0  0  0  0  0  0  0
   -3.7612    7.4848  -22.2666 C   0  0  1  0  0  0  0  0  0  0  0  0
   -2.5621    8.2663  -22.8084 C   0  0  0  0  0  0  0  0  0  0  0  0
   -3.7680    7.2490  -20.8090 N   0  0  0  0  0  0  0  0  0  0  0  0
   -3.5262    8.3938  -19.9475 C   0  0  0  0  0  0  0  0  0  0  0  0
   -4.0340    8.0846  -18.5283 C   0  0  0  0  0  0  0  0  0  0  0  0
   -3.6751    6.6674  -18.0156 C   0  0  0  0  0  0  0  0  0  0  0  0
   -4.9100    5.8202  -17.8220 C   0  0  0  0  0  0  0  0  0  0  0  0
   -5.8472    5.4031  -18.7457 C   0  0  0  0  0  0  0  0  0  0  0  0
   -6.9495    4.8671  -18.0416 C   0  0  0  0  0  0  0  0  0  0  0  0
   -8.2248    4.4505  -18.4430 C   0  0  0  0  0  0  0  0  0  0  0  0
   -9.1572    4.1320  -17.4639 C   0  0  0  0  0  0  0  0  0  0  0  0
  -10.7821    3.9212  -17.9542 Cl  0  0  0  0  0  0  0  0  0  0  0  0
   -8.8147    4.1091  -16.1152 C   0  0  0  0  0  0  0  0  0  0  0  0
   -7.5257    4.4598  -15.6980 C   0  0  0  0  0  0  0  0  0  0  0  0
   -6.6258    4.8767  -16.6868 C   0  0  0  0  0  0  0  0  0  0  0  0
   -5.3455    5.3808  -16.5889 N   0  0  0  0  0  0  0  0  0  0  0  0
   -2.6359    6.0041  -18.9227 C   0  0  0  0  0  0  0  0  0  0  0  0
   -2.9744    6.0799  -20.4174 C   0  0  0  0  0  0  0  0  0  0  0  0
  1  2  2  0
  2  3  1  0
  3  4  1  0
  4  5  1  0
  5  6  2  0
  5  7  1  0
  7  8  1  1
  7  9  1  0
  9 10  1  0
 10 11  1  0
 11 12  1  0
 12 13  1  0
 13 14  2  0
 14 15  1  0
 15 16  2  0
 16 17  1  0
 17 18  1  0
 17 19  2  0
 19 20  1  0
 20 21  2  0
 21 22  1  0
 12 23  1  0
 23 24  1  0
 24  9  1  0
 22 13  1  0
 21 15  1  0
M  END
>  <energy_score>  (4552) 
-18.50203

>  <alias>  (4552) 
CLOCCLVEOROIDG-UHFFFAOYSA-N-P98-P5-P98-601530

>  <HIPPO Pose ID>  (4552) 
84730

>  <smiles>  (4552) 
C=CCNC(=O)C(C)N1CCC(c2cc3cc(Cl)ccc3[nH]2)CC1

>  <inchikey>  (4552) 
CLOCCLVEOROIDG-UHFFFAOYSA-N

>  <distance_score>  (4552) 
1.200344

>  <ref_mols>  (4552) 
Z1729a,Z2971a

>  <ref_pdb>  (4552) 
Z0089a

>  <HIPPO Compound ID>  (4552) 
147737

>  <name>  (4552) 
CLOCCLVEOROIDG-UHFFFAOYSA-N-P98-P5-P98-601530

>  <inspiration_score>  (4552) 
None

$$$$
JHDCCWAPHABEBD-UHFFFAOYSA-N-P56-P56-P159-601530
     RDKit          3D

 22 24  0  0  0  0  0  0  0  0999 V2000
   -4.1902    5.4438  -19.1675 C   0  0  0  0  0  0  0  0  0  0  0  0
   -4.1306    5.7977  -17.7887 O   0  0  0  0  0  0  0  0  0  0  0  0
   -5.3281    5.5908  -17.1520 C   0  0  0  0  0  0  0  0  0  0  0  0
   -5.3185    5.5557  -15.7713 C   0  0  0  0  0  0  0  0  0  0  0  0
   -6.5062    5.3428  -15.0541 C   0  0  0  0  0  0  0  0  0  0  0  0
   -6.4010    5.3256  -13.6439 N   0  0  0  0  0  0  0  0  0  0  0  0
   -7.5796    5.5760  -12.8176 C   0  0  0  0  0  0  0  0  0  0  0  0
   -8.0723    4.2967  -12.1177 C   0  0  0  0  0  0  0  0  0  0  0  0
   -7.4592    4.0347  -10.7907 N   0  0  0  0  0  0  0  0  0  0  0  0
   -7.8064    2.6718  -10.3512 C   0  0  0  0  0  0  0  0  0  0  0  0
   -9.1429    2.5399   -9.6274 C   0  0  0  0  0  0  0  0  0  0  0  0
   -9.0287    2.7018   -8.1223 C   0  0  0  0  0  0  0  0  0  0  0  0
   -8.8193    4.0921   -7.6815 N   0  0  0  0  0  0  0  0  0  0  0  0
   -8.6828    4.0806   -6.2252 C   0  0  0  0  0  0  0  0  0  0  0  0
   -7.6353    4.7121   -8.3056 C   0  0  0  0  0  0  0  0  0  0  0  0
   -7.8268    5.0680   -9.8024 C   0  0  0  0  0  0  0  0  0  0  0  0
   -7.6286    5.0507  -15.8752 C   0  0  0  0  0  0  0  0  0  0  0  0
   -9.2239    4.5785  -15.5001 S   0  0  0  0  0  0  0  0  0  0  0  0
   -9.7320    4.4760  -17.1123 C   0  0  0  0  0  0  0  0  0  0  0  0
   -8.7177    4.7871  -17.9655 C   0  0  0  0  0  0  0  0  0  0  0  0
   -7.5308    5.1177  -17.2655 C   0  0  0  0  0  0  0  0  0  0  0  0
   -6.4043    5.4542  -17.9076 N   0  0  0  0  0  0  0  0  0  0  0  0
  1  2  1  0
  2  3  1  0
  3  4  2  0
  4  5  1  0
  5  6  1  0
  6  7  1  0
  7  8  1  0
  8  9  1  0
  9 10  1  0
 10 11  1  0
 11 12  1  0
 12 13  1  0
 13 14  1  0
 13 15  1  0
 15 16  1  0
  5 17  2  0
 17 18  1  0
 18 19  1  0
 19 20  2  0
 20 21  1  0
 21 22  2  0
 22  3  1  0
 16  9  1  0
 21 17  1  0
M  END
>  <energy_score>  (4553) 
-58.205901

>  <alias>  (4553) 
JHDCCWAPHABEBD-UHFFFAOYSA-N-P56-P56-P159-601530

>  <HIPPO Pose ID>  (4553) 
84745

>  <smiles>  (4553) 
COc1cc(NCCN2CCCN(C)CC2)c2sccc2n1

>  <inchikey>  (4553) 
JHDCCWAPHABEBD-UHFFFAOYSA-N

>  <distance_score>  (4553) 
1.403177

>  <ref_mols>  (4553) 
Z0917a,Z3515a

>  <ref_pdb>  (4553) 
Z0089a

>  <HIPPO Compound ID>  (4553) 
145795

>  <name>  (4553) 
JHDCCWAPHABEBD-UHFFFAOYSA-N-P56-P56-P159-601530

>  <inspiration_score>  (4553) 
None

$$$$
QRBIIECLOMNZDW-UHFFFAOYSA-N-P8-P8-P48-601530
     RDKit          3D

 28 30  0  0  0  0  0  0  0  0999 V2000
   -1.5542   11.4988  -16.8923 C   0  0  0  0  0  0  0  0  0  0  0  0
   -2.8389   10.8926  -16.9490 O   0  0  0  0  0  0  0  0  0  0  0  0
   -3.0700    9.9635  -17.9280 C   0  0  0  0  0  0  0  0  0  0  0  0
   -2.1075    9.5748  -18.8692 C   0  0  0  0  0  0  0  0  0  0  0  0
   -2.4195    8.6662  -19.8863 C   0  0  0  0  0  0  0  0  0  0  0  0
   -3.7023    8.1253  -19.9863 C   0  0  0  0  0  0  0  0  0  0  0  0
   -4.0573    7.1759  -21.1108 C   0  0  0  0  0  0  0  0  0  0  0  0
   -4.0434    5.6568  -20.7747 C   0  0  2  0  0  0  0  0  0  0  0  0
   -2.6391    5.2214  -20.3131 C   0  0  0  0  0  0  0  0  0  0  0  0
   -4.3546    4.8491  -22.0565 C   0  0  0  0  0  0  0  0  0  0  0  0
   -5.4980    5.3443  -22.7362 O   0  0  0  0  0  0  0  0  0  0  0  0
   -5.0367    5.3773  -19.7223 N   0  0  0  0  0  0  0  0  0  0  0  0
   -4.8660    4.7524  -18.3284 C   0  0  0  0  0  0  0  0  0  0  0  0
   -3.9260    4.2877  -17.8184 O   0  0  0  0  0  0  0  0  0  0  0  0
   -6.0854    4.8603  -17.4861 C   0  0  0  0  0  0  0  0  0  0  0  0
   -7.3530    4.3609  -17.8259 C   0  0  0  0  0  0  0  0  0  0  0  0
   -8.3722    4.3106  -16.8625 C   0  0  0  0  0  0  0  0  0  0  0  0
   -8.1286    4.7994  -15.5762 C   0  0  0  0  0  0  0  0  0  0  0  0
   -9.1990    4.7264  -14.2651 Cl  0  0  0  0  0  0  0  0  0  0  0  0
   -6.9155    5.4068  -15.2377 C   0  0  0  0  0  0  0  0  0  0  0  0
   -6.3914    6.0439  -14.0746 C   0  0  0  0  0  0  0  0  0  0  0  0
   -5.1004    6.4183  -14.3522 C   0  0  0  0  0  0  0  0  0  0  0  0
   -4.8122    6.0087  -15.6276 N   0  0  0  0  0  0  0  0  0  0  0  0
   -5.9169    5.4169  -16.2029 C   0  0  0  0  0  0  0  0  0  0  0  0
   -4.6586    8.4972  -19.0352 C   0  0  0  0  0  0  0  0  0  0  0  0
   -4.3535    9.3958  -18.0038 C   0  0  0  0  0  0  0  0  0  0  0  0
   -5.4240    9.6607  -17.1855 O   0  0  0  0  0  0  0  0  0  0  0  0
   -5.1160    9.9350  -15.8217 C   0  0  0  0  0  0  0  0  0  0  0  0
  1  2  1  0
  2  3  1  0
  3  4  2  0
  4  5  1  0
  5  6  2  0
  6  7  1  0
  7  8  1  0
  8  9  1  1
  8 10  1  0
 10 11  1  0
  8 12  1  0
 12 13  1  0
 13 14  2  0
 13 15  1  0
 15 16  2  0
 16 17  1  0
 17 18  2  0
 18 19  1  0
 18 20  1  0
 20 21  1  0
 21 22  2  0
 22 23  1  0
 23 24  1  0
  6 25  1  0
 25 26  2  0
 26 27  1  0
 27 28  1  0
 26  3  1  0
 24 15  1  0
 24 20  2  0
M  END
>  <energy_score>  (4554) 
-23.854401

>  <alias>  (4554) 
QRBIIECLOMNZDW-UHFFFAOYSA-N-P8-P8-P48-601530

>  <HIPPO Pose ID>  (4554) 
84757

>  <smiles>  (4554) 
COc1ccc(CC(C)(CO)NC(=O)c2ccc(Cl)c3cc[nH]c23)cc1OC

>  <inchikey>  (4554) 
QRBIIECLOMNZDW-UHFFFAOYSA-N

>  <distance_score>  (4554) 
1.191486

>  <ref_mols>  (4554) 
Z0101a,Z0827a

>  <ref_pdb>  (4554) 
Z0089a

>  <HIPPO Compound ID>  (4554) 
145825

>  <name>  (4554) 
QRBIIECLOMNZDW-UHFFFAOYSA-N-P8-P8-P48-601530

>  <inspiration_score>  (4554) 
None

$$$$
KMEFJWRTTYTIBB-UHFFFAOYSA-N-P8-P8-P48-601530
     RDKit          3D

 28 30  0  0  0  0  0  0  0  0999 V2000
   -0.7940   10.1360  -25.4664 C   0  0  0  0  0  0  0  0  0  0  0  0
   -0.2884    9.3068  -24.4300 O   0  0  0  0  0  0  0  0  0  0  0  0
   -1.1792    8.8589  -23.4898 C   0  0  0  0  0  0  0  0  0  0  0  0
   -2.5608    9.0514  -23.5406 C   0  0  0  0  0  0  0  0  0  0  0  0
   -3.3845    8.5384  -22.5318 C   0  0  0  0  0  0  0  0  0  0  0  0
   -2.8483    7.8182  -21.4546 C   0  0  0  0  0  0  0  0  0  0  0  0
   -3.7549    7.2878  -20.3658 C   0  0  0  0  0  0  0  0  0  0  0  0
   -3.9713    5.7528  -20.2592 C   0  0  2  0  0  0  0  0  0  0  0  0
   -2.7253    5.0286  -19.7195 C   0  0  0  0  0  0  0  0  0  0  0  0
   -4.3162    5.0868  -21.6315 C   0  0  0  0  0  0  0  0  0  0  0  0
   -5.2277    5.8293  -22.4342 O   0  0  0  0  0  0  0  0  0  0  0  0
   -5.0883    5.5500  -19.3079 N   0  0  0  0  0  0  0  0  0  0  0  0
   -5.0741    5.2971  -17.7671 C   0  0  0  0  0  0  0  0  0  0  0  0
   -4.1829    5.2883  -17.0093 O   0  0  0  0  0  0  0  0  0  0  0  0
   -6.4458    4.9644  -17.2205 C   0  0  0  0  0  0  0  0  0  0  0  0
   -7.3868    4.3782  -18.1065 C   0  0  0  0  0  0  0  0  0  0  0  0
   -8.6634    4.0143  -17.7178 C   0  0  0  0  0  0  0  0  0  0  0  0
   -9.0372    4.1718  -16.3980 C   0  0  0  0  0  0  0  0  0  0  0  0
   -8.1550    4.7368  -15.4602 C   0  0  0  0  0  0  0  0  0  0  0  0
   -8.3324    5.0204  -14.0833 C   0  0  0  0  0  0  0  0  0  0  0  0
   -7.1795    5.5880  -13.6278 C   0  0  0  0  0  0  0  0  0  0  0  0
   -6.2647    5.5633  -14.6535 N   0  0  0  0  0  0  0  0  0  0  0  0
   -4.8908    5.8981  -14.3753 C   0  0  0  0  0  0  0  0  0  0  0  0
   -6.8517    5.1237  -15.8468 C   0  0  0  0  0  0  0  0  0  0  0  0
   -1.4619    7.6505  -21.3922 C   0  0  0  0  0  0  0  0  0  0  0  0
   -0.6383    8.1396  -22.4140 C   0  0  0  0  0  0  0  0  0  0  0  0
    0.7261    7.9852  -22.3533 O   0  0  0  0  0  0  0  0  0  0  0  0
    1.1020    6.6156  -22.2367 C   0  0  0  0  0  0  0  0  0  0  0  0
  1  2  1  0
  2  3  1  0
  3  4  2  0
  4  5  1  0
  5  6  2  0
  6  7  1  0
  7  8  1  0
  8  9  1  1
  8 10  1  0
 10 11  1  0
  8 12  1  0
 12 13  1  0
 13 14  2  0
 13 15  1  0
 15 16  2  0
 16 17  1  0
 17 18  2  0
 18 19  1  0
 19 20  1  0
 20 21  2  0
 21 22  1  0
 22 23  1  0
 22 24  1  0
  6 25  1  0
 25 26  2  0
 26 27  1  0
 27 28  1  0
 26  3  1  0
 24 15  1  0
 24 19  2  0
M  END
>  <energy_score>  (4555) 
-10.446613

>  <alias>  (4555) 
KMEFJWRTTYTIBB-UHFFFAOYSA-N-P8-P8-P48-601530

>  <HIPPO Pose ID>  (4555) 
84759

>  <smiles>  (4555) 
COc1ccc(CC(C)(CO)NC(=O)c2cccc3ccn(C)c23)cc1OC

>  <inchikey>  (4555) 
KMEFJWRTTYTIBB-UHFFFAOYSA-N

>  <distance_score>  (4555) 
1.345004

>  <ref_mols>  (4555) 
Z0101a,Z0827a

>  <ref_pdb>  (4555) 
Z0089a

>  <HIPPO Compound ID>  (4555) 
145826

>  <name>  (4555) 
KMEFJWRTTYTIBB-UHFFFAOYSA-N-P8-P8-P48-601530

>  <inspiration_score>  (4555) 
None

$$$$
RHRXQYAUCHWILK-UHFFFAOYSA-N-P8-P8-P48-601530
     RDKit          3D

 29 31  0  0  0  0  0  0  0  0999 V2000
   -1.4556   11.3064  -16.6781 C   0  0  0  0  0  0  0  0  0  0  0  0
   -2.7716   10.7867  -16.8142 O   0  0  0  0  0  0  0  0  0  0  0  0
   -3.0029    9.8860  -17.8197 C   0  0  0  0  0  0  0  0  0  0  0  0
   -2.0405    9.5055  -18.7626 C   0  0  0  0  0  0  0  0  0  0  0  0
   -2.3618    8.6256  -19.8022 C   0  0  0  0  0  0  0  0  0  0  0  0
   -3.6551    8.1122  -19.9269 C   0  0  0  0  0  0  0  0  0  0  0  0
   -4.0114    7.1884  -21.0713 C   0  0  0  0  0  0  0  0  0  0  0  0
   -4.0755    5.6660  -20.7587 C   0  0  2  0  0  0  0  0  0  0  0  0
   -2.7251    5.1575  -20.2190 C   0  0  0  0  0  0  0  0  0  0  0  0
   -4.3421    4.8911  -22.0749 C   0  0  0  0  0  0  0  0  0  0  0  0
   -5.4469    5.4155  -22.7987 O   0  0  0  0  0  0  0  0  0  0  0  0
   -5.1527    5.4011  -19.7900 N   0  0  0  0  0  0  0  0  0  0  0  0
   -5.0875    5.0630  -18.2876 C   0  0  0  0  0  0  0  0  0  0  0  0
   -4.1746    5.0161  -17.5616 O   0  0  0  0  0  0  0  0  0  0  0  0
   -6.4367    4.8535  -17.6683 C   0  0  0  0  0  0  0  0  0  0  0  0
   -7.5548    4.3258  -18.3285 C   0  0  0  0  0  0  0  0  0  0  0  0
   -8.7331    4.0461  -17.6337 C   0  0  0  0  0  0  0  0  0  0  0  0
   -8.8164    4.2565  -16.2527 C   0  0  0  0  0  0  0  0  0  0  0  0
   -7.7319    4.8330  -15.5655 C   0  0  0  0  0  0  0  0  0  0  0  0
   -7.4806    5.2016  -14.2063 C   0  0  0  0  0  0  0  0  0  0  0  0
   -8.3285    4.9976  -13.0500 C   0  0  0  0  0  0  0  0  0  0  0  0
   -8.2057    5.6297  -12.0048 O   0  0  0  0  0  0  0  0  0  0  0  0
   -6.2342    5.7984  -14.1694 C   0  0  0  0  0  0  0  0  0  0  0  0
   -5.6838    5.6998  -15.4150 N   0  0  0  0  0  0  0  0  0  0  0  0
   -6.5839    5.1351  -16.2948 C   0  0  0  0  0  0  0  0  0  0  0  0
   -4.6152    8.4848  -18.9798 C   0  0  0  0  0  0  0  0  0  0  0  0
   -4.2957    9.3443  -17.9215 C   0  0  0  0  0  0  0  0  0  0  0  0
   -5.3526    9.6178  -17.0868 O   0  0  0  0  0  0  0  0  0  0  0  0
   -5.0202    9.6455  -15.6992 C   0  0  0  0  0  0  0  0  0  0  0  0
  1  2  1  0
  2  3  1  0
  3  4  2  0
  4  5  1  0
  5  6  2  0
  6  7  1  0
  7  8  1  0
  8  9  1  1
  8 10  1  0
 10 11  1  0
  8 12  1  0
 12 13  1  0
 13 14  2  0
 13 15  1  0
 15 16  2  0
 16 17  1  0
 17 18  2  0
 18 19  1  0
 19 20  1  0
 20 21  1  0
 21 22  2  0
 20 23  2  0
 23 24  1  0
 24 25  1  0
  6 26  1  0
 26 27  2  0
 27 28  1  0
 28 29  1  0
 27  3  1  0
 25 15  1  0
 25 19  2  0
M  END
>  <energy_score>  (4556) 
-13.93417

>  <alias>  (4556) 
RHRXQYAUCHWILK-UHFFFAOYSA-N-P8-P8-P48-601530

>  <HIPPO Pose ID>  (4556) 
84777

>  <smiles>  (4556) 
COc1ccc(CC(C)(CO)NC(=O)c2cccc3c(C=O)c[nH]c23)cc1OC

>  <inchikey>  (4556) 
RHRXQYAUCHWILK-UHFFFAOYSA-N

>  <distance_score>  (4556) 
0.575859

>  <ref_mols>  (4556) 
Z0101a,Z0827a

>  <ref_pdb>  (4556) 
Z0089a

>  <HIPPO Compound ID>  (4556) 
145835

>  <name>  (4556) 
RHRXQYAUCHWILK-UHFFFAOYSA-N-P8-P8-P48-601530

>  <inspiration_score>  (4556) 
None

$$$$
ACAQSIDENPBCPT-UHFFFAOYSA-N-P8-P8-P48-601530
     RDKit          3D

 29 31  0  0  0  0  0  0  0  0999 V2000
   -0.4649    9.6774  -25.6509 C   0  0  0  0  0  0  0  0  0  0  0  0
   -0.1110    9.3780  -24.3087 O   0  0  0  0  0  0  0  0  0  0  0  0
   -1.0821    8.8374  -23.5020 C   0  0  0  0  0  0  0  0  0  0  0  0
   -2.3877    8.5554  -23.9158 C   0  0  0  0  0  0  0  0  0  0  0  0
   -3.3091    7.9984  -23.0251 C   0  0  0  0  0  0  0  0  0  0  0  0
   -2.9441    7.7163  -21.7057 C   0  0  0  0  0  0  0  0  0  0  0  0
   -3.9386    7.1046  -20.7435 C   0  0  0  0  0  0  0  0  0  0  0  0
   -3.9722    5.5505  -20.6606 C   0  0  2  0  0  0  0  0  0  0  0  0
   -2.6233    4.9912  -20.1817 C   0  0  0  0  0  0  0  0  0  0  0  0
   -4.3048    4.8986  -22.0254 C   0  0  0  0  0  0  0  0  0  0  0  0
   -5.4485    5.4757  -22.6442 O   0  0  0  0  0  0  0  0  0  0  0  0
   -4.9880    5.1779  -19.6585 N   0  0  0  0  0  0  0  0  0  0  0  0
   -5.0158    5.3940  -18.1327 C   0  0  0  0  0  0  0  0  0  0  0  0
   -4.2052    5.8323  -17.4157 O   0  0  0  0  0  0  0  0  0  0  0  0
   -6.3113    4.9831  -17.4883 C   0  0  0  0  0  0  0  0  0  0  0  0
   -7.3989    4.4115  -18.1557 C   0  0  0  0  0  0  0  0  0  0  0  0
   -7.2978    4.1221  -19.4612 F   0  0  0  0  0  0  0  0  0  0  0  0
   -8.5927    4.1268  -17.4956 C   0  0  0  0  0  0  0  0  0  0  0  0
   -9.9817    3.6336  -18.3796 Cl  0  0  0  0  0  0  0  0  0  0  0  0
   -8.7186    4.3132  -16.1191 C   0  0  0  0  0  0  0  0  0  0  0  0
   -7.6560    4.8929  -15.4129 C   0  0  0  0  0  0  0  0  0  0  0  0
   -7.4764    5.2895  -14.0594 C   0  0  0  0  0  0  0  0  0  0  0  0
   -6.2311    5.8645  -13.9559 C   0  0  0  0  0  0  0  0  0  0  0  0
   -5.6370    5.7948  -15.1867 N   0  0  0  0  0  0  0  0  0  0  0  0
   -6.4923    5.2205  -16.1064 C   0  0  0  0  0  0  0  0  0  0  0  0
   -1.6367    8.0079  -21.2883 C   0  0  0  0  0  0  0  0  0  0  0  0
   -0.7005    8.5529  -22.1766 C   0  0  0  0  0  0  0  0  0  0  0  0
    0.5978    8.8528  -21.8404 O   0  0  0  0  0  0  0  0  0  0  0  0
    1.0807    8.3475  -20.6037 C   0  0  0  0  0  0  0  0  0  0  0  0
  1  2  1  0
  2  3  1  0
  3  4  2  0
  4  5  1  0
  5  6  2  0
  6  7  1  0
  7  8  1  0
  8  9  1  1
  8 10  1  0
 10 11  1  0
  8 12  1  0
 12 13  1  0
 13 14  2  0
 13 15  1  0
 15 16  2  0
 16 17  1  0
 16 18  1  0
 18 19  1  0
 18 20  2  0
 20 21  1  0
 21 22  1  0
 22 23  2  0
 23 24  1  0
 24 25  1  0
  6 26  1  0
 26 27  2  0
 27 28  1  0
 28 29  1  0
 27  3  1  0
 25 15  1  0
 25 21  2  0
M  END
>  <energy_score>  (4557) 
-43.326869

>  <alias>  (4557) 
ACAQSIDENPBCPT-UHFFFAOYSA-N-P8-P8-P48-601530

>  <HIPPO Pose ID>  (4557) 
84781

>  <smiles>  (4557) 
COc1ccc(CC(C)(CO)NC(=O)c2c(F)c(Cl)cc3cc[nH]c23)cc1OC

>  <inchikey>  (4557) 
ACAQSIDENPBCPT-UHFFFAOYSA-N

>  <distance_score>  (4557) 
0.573682

>  <ref_mols>  (4557) 
Z0101a,Z0827a

>  <ref_pdb>  (4557) 
Z0089a

>  <HIPPO Compound ID>  (4557) 
145837

>  <name>  (4557) 
ACAQSIDENPBCPT-UHFFFAOYSA-N-P8-P8-P48-601530

>  <inspiration_score>  (4557) 
None

$$$$
PJKROGFIGMFAJW-UHFFFAOYSA-N-P8-P8-P48-601530
     RDKit          3D

 32 34  0  0  0  0  0  0  0  0999 V2000
   -7.7786    3.7464  -11.6725 C   0  0  0  0  0  0  0  0  0  0  0  0
   -7.8498    5.2492  -11.5019 C   0  0  0  0  0  0  0  0  0  0  0  0
   -6.6244    5.9131  -11.8661 O   0  0  0  0  0  0  0  0  0  0  0  0
   -6.0373    6.0316  -13.0894 C   0  0  0  0  0  0  0  0  0  0  0  0
   -4.9270    6.5507  -13.1727 O   0  0  0  0  0  0  0  0  0  0  0  0
   -6.7317    5.5543  -14.2697 C   0  0  0  0  0  0  0  0  0  0  0  0
   -8.0235    5.1550  -14.5654 C   0  0  0  0  0  0  0  0  0  0  0  0
   -8.0828    4.7276  -15.9154 C   0  0  0  0  0  0  0  0  0  0  0  0
   -9.1018    4.1916  -16.7195 C   0  0  0  0  0  0  0  0  0  0  0  0
   -8.8628    3.9611  -18.0712 C   0  0  0  0  0  0  0  0  0  0  0  0
   -7.6059    4.2128  -18.6112 C   0  0  0  0  0  0  0  0  0  0  0  0
   -6.5594    4.7225  -17.8280 C   0  0  0  0  0  0  0  0  0  0  0  0
   -5.1902    4.9837  -18.3543 C   0  0  0  0  0  0  0  0  0  0  0  0
   -4.2888    4.8325  -17.6297 O   0  0  0  0  0  0  0  0  0  0  0  0
   -5.2260    5.4708  -19.8139 N   0  0  0  0  0  0  0  0  0  0  0  0
   -4.1277    5.7926  -20.7440 C   0  0  1  0  0  0  0  0  0  0  0  0
   -4.0895    7.3257  -20.8411 C   0  0  0  0  0  0  0  0  0  0  0  0
   -2.7522    5.2657  -20.2382 C   0  0  0  0  0  0  0  0  0  0  0  0
   -2.3129    5.9368  -19.0546 O   0  0  0  0  0  0  0  0  0  0  0  0
   -4.4747    5.1178  -22.1029 C   0  0  0  0  0  0  0  0  0  0  0  0
   -3.7954    5.6569  -23.3358 C   0  0  0  0  0  0  0  0  0  0  0  0
   -4.4065    6.6602  -24.1012 C   0  0  0  0  0  0  0  0  0  0  0  0
   -3.7750    7.1645  -25.2377 C   0  0  0  0  0  0  0  0  0  0  0  0
   -2.5283    6.6686  -25.6236 C   0  0  0  0  0  0  0  0  0  0  0  0
   -1.9413    7.2389  -26.7231 O   0  0  0  0  0  0  0  0  0  0  0  0
   -1.0375    8.2640  -26.3025 C   0  0  0  0  0  0  0  0  0  0  0  0
   -1.9349    5.6195  -24.9145 C   0  0  0  0  0  0  0  0  0  0  0  0
   -0.7514    5.0053  -25.2291 O   0  0  0  0  0  0  0  0  0  0  0  0
   -0.5571    4.7655  -26.6203 C   0  0  0  0  0  0  0  0  0  0  0  0
   -2.5549    5.1484  -23.7520 C   0  0  0  0  0  0  0  0  0  0  0  0
   -6.8359    4.9644  -16.4737 C   0  0  0  0  0  0  0  0  0  0  0  0
   -6.0350    5.4397  -15.4631 N   0  0  0  0  0  0  0  0  0  0  0  0
  1  2  1  0
  2  3  1  0
  3  4  1  0
  4  5  2  0
  4  6  1  0
  6  7  2  0
  7  8  1  0
  8  9  2  0
  9 10  1  0
 10 11  2  0
 11 12  1  0
 12 13  1  0
 13 14  2  0
 13 15  1  0
 15 16  1  0
 16 17  1  6
 16 18  1  0
 18 19  1  0
 16 20  1  0
 20 21  1  0
 21 22  2  0
 22 23  1  0
 23 24  2  0
 24 25  1  0
 25 26  1  0
 24 27  1  0
 27 28  1  0
 28 29  1  0
 27 30  2  0
 12 31  2  0
 31 32  1  0
 32  6  1  0
 31  8  1  0
 30 21  1  0
M  END
>  <energy_score>  (4558) 
-19.88859

>  <alias>  (4558) 
PJKROGFIGMFAJW-UHFFFAOYSA-N-P8-P8-P48-601530

>  <HIPPO Pose ID>  (4558) 
84799

>  <smiles>  (4558) 
CCOC(=O)c1cc2cccc(C(=O)NC(C)(CO)Cc3ccc(OC)c(OC)c3)c2[nH]1

>  <inchikey>  (4558) 
PJKROGFIGMFAJW-UHFFFAOYSA-N

>  <distance_score>  (4558) 
0.795142

>  <ref_mols>  (4558) 
Z0101a,Z0827a

>  <ref_pdb>  (4558) 
Z0089a

>  <HIPPO Compound ID>  (4558) 
145846

>  <name>  (4558) 
PJKROGFIGMFAJW-UHFFFAOYSA-N-P8-P8-P48-601530

>  <inspiration_score>  (4558) 
None

$$$$
VTXNVIUETNJNOJ-UHFFFAOYSA-N-P8-P8-P48-601530
     RDKit          3D

 26 29  0  0  0  0  0  0  0  0999 V2000
   -3.6871    4.9461  -18.0948 O   0  0  0  0  0  0  0  0  0  0  0  0
   -4.7668    5.0824  -18.5105 C   0  0  0  0  0  0  0  0  0  0  0  0
   -5.2517    5.4516  -19.9203 N   0  0  0  0  0  0  0  0  0  0  0  0
   -4.4930    5.8335  -21.1242 C   0  0  0  0  0  0  0  0  0  0  0  0
   -4.3256    7.3542  -21.1092 C   0  0  0  0  0  0  0  0  0  0  0  0
   -3.8402    7.9565  -22.4058 C   0  0  0  0  0  0  0  0  0  0  0  0
   -4.7444    8.2958  -23.4254 C   0  0  0  0  0  0  0  0  0  0  0  0
   -4.2810    8.8412  -24.6241 C   0  0  0  0  0  0  0  0  0  0  0  0
   -2.9182    9.0572  -24.8017 C   0  0  0  0  0  0  0  0  0  0  0  0
   -2.4812    9.5849  -25.9526 F   0  0  0  0  0  0  0  0  0  0  0  0
   -2.0079    8.7440  -23.8040 C   0  0  0  0  0  0  0  0  0  0  0  0
   -2.4765    8.1998  -22.6147 C   0  0  0  0  0  0  0  0  0  0  0  0
   -1.5947    7.9239  -21.6440 F   0  0  0  0  0  0  0  0  0  0  0  0
   -3.2094    4.9993  -21.3849 C   0  0  0  0  0  0  0  0  0  0  0  0
   -3.6658    4.7000  -22.7424 O   0  0  0  0  0  0  0  0  0  0  0  0
   -5.0047    5.0890  -22.3715 C   0  0  0  0  0  0  0  0  0  0  0  0
   -5.8953    4.9871  -17.5369 C   0  0  0  0  0  0  0  0  0  0  0  0
   -7.1593    4.4315  -17.8054 C   0  0  0  0  0  0  0  0  0  0  0  0
   -8.1286    4.3343  -16.7970 C   0  0  0  0  0  0  0  0  0  0  0  0
   -7.8519    4.8146  -15.5130 C   0  0  0  0  0  0  0  0  0  0  0  0
   -9.0588    4.7127  -14.0874 Br  0  0  0  0  0  0  0  0  0  0  0  0
   -6.6241    5.4235  -15.2323 C   0  0  0  0  0  0  0  0  0  0  0  0
   -6.0697    6.0552  -14.0814 C   0  0  0  0  0  0  0  0  0  0  0  0
   -4.8011    6.4656  -14.4048 C   0  0  0  0  0  0  0  0  0  0  0  0
   -4.5555    6.0779  -15.6948 N   0  0  0  0  0  0  0  0  0  0  0  0
   -5.6726    5.4814  -16.2398 C   0  0  0  0  0  0  0  0  0  0  0  0
  1  2  2  0
  2  3  1  0
  3  4  1  0
  4  5  1  0
  5  6  1  0
  6  7  2  0
  7  8  1  0
  8  9  2  0
  9 10  1  0
  9 11  1  0
 11 12  2  0
 12 13  1  0
  4 14  1  0
 14 15  1  0
 15 16  1  0
  2 17  1  0
 17 18  2  0
 18 19  1  0
 19 20  2  0
 20 21  1  0
 20 22  1  0
 22 23  1  0
 23 24  2  0
 24 25  1  0
 25 26  1  0
 16  4  1  0
 26 17  1  0
 12  6  1  0
 26 22  2  0
M  END
>  <energy_score>  (4559) 
-12.577436

>  <alias>  (4559) 
VTXNVIUETNJNOJ-UHFFFAOYSA-N-P8-P8-P48-601530

>  <HIPPO Pose ID>  (4559) 
84815

>  <smiles>  (4559) 
O=C(NC1(Cc2ccc(F)cc2F)COC1)c1ccc(Br)c2cc[nH]c12

>  <inchikey>  (4559) 
VTXNVIUETNJNOJ-UHFFFAOYSA-N

>  <distance_score>  (4559) 
1.447958

>  <ref_mols>  (4559) 
Z0101a,Z0827a

>  <ref_pdb>  (4559) 
Z0089a

>  <HIPPO Compound ID>  (4559) 
145856

>  <name>  (4559) 
VTXNVIUETNJNOJ-UHFFFAOYSA-N-P8-P8-P48-601530

>  <inspiration_score>  (4559) 
None

$$$$
JHULSTIRYADVKH-UHFFFAOYSA-N-P8-P8-P48-601530
     RDKit          3D

 26 29  0  0  0  0  0  0  0  0999 V2000
   -4.0977    4.5251  -17.8434 O   0  0  0  0  0  0  0  0  0  0  0  0
   -5.1005    4.9329  -18.2776 C   0  0  0  0  0  0  0  0  0  0  0  0
   -5.3925    5.6597  -19.6087 N   0  0  0  0  0  0  0  0  0  0  0  0
   -4.5032    5.9604  -20.7578 C   0  0  0  0  0  0  0  0  0  0  0  0
   -4.1813    7.4563  -20.7278 C   0  0  0  0  0  0  0  0  0  0  0  0
   -3.5949    8.0099  -22.0046 C   0  0  0  0  0  0  0  0  0  0  0  0
   -2.2103    8.0074  -22.2278 C   0  0  0  0  0  0  0  0  0  0  0  0
   -1.6880    8.5150  -23.4195 C   0  0  0  0  0  0  0  0  0  0  0  0
   -2.5460    9.0304  -24.3850 C   0  0  0  0  0  0  0  0  0  0  0  0
   -2.0389    9.5178  -25.5247 F   0  0  0  0  0  0  0  0  0  0  0  0
   -3.9178    9.0528  -24.1842 C   0  0  0  0  0  0  0  0  0  0  0  0
   -4.4289    8.5454  -22.9964 C   0  0  0  0  0  0  0  0  0  0  0  0
   -5.7560    8.5738  -22.8038 F   0  0  0  0  0  0  0  0  0  0  0  0
   -3.2901    5.0104  -20.9466 C   0  0  0  0  0  0  0  0  0  0  0  0
   -3.6814    4.7505  -22.3303 O   0  0  0  0  0  0  0  0  0  0  0  0
   -4.9977    5.2726  -22.0553 C   0  0  0  0  0  0  0  0  0  0  0  0
   -6.3304    4.7761  -17.4442 C   0  0  0  0  0  0  0  0  0  0  0  0
   -6.2291    4.9947  -16.0608 C   0  0  0  0  0  0  0  0  0  0  0  0
   -7.3375    4.8438  -15.2345 C   0  0  0  0  0  0  0  0  0  0  0  0
   -7.2334    5.3128  -13.4093 Br  0  0  0  0  0  0  0  0  0  0  0  0
   -8.5666    4.4289  -15.7368 C   0  0  0  0  0  0  0  0  0  0  0  0
   -8.7085    4.2366  -17.1173 C   0  0  0  0  0  0  0  0  0  0  0  0
   -9.8333    3.9636  -17.9405 C   0  0  0  0  0  0  0  0  0  0  0  0
   -9.3849    3.9724  -19.2315 C   0  0  0  0  0  0  0  0  0  0  0  0
   -8.0262    4.1022  -19.2124 N   0  0  0  0  0  0  0  0  0  0  0  0
   -7.5921    4.4065  -17.9460 C   0  0  0  0  0  0  0  0  0  0  0  0
  1  2  2  0
  2  3  1  0
  3  4  1  0
  4  5  1  0
  5  6  1  0
  6  7  2  0
  7  8  1  0
  8  9  2  0
  9 10  1  0
  9 11  1  0
 11 12  2  0
 12 13  1  0
  4 14  1  0
 14 15  1  0
 15 16  1  0
  2 17  1  0
 17 18  2  0
 18 19  1  0
 19 20  1  0
 19 21  2  0
 21 22  1  0
 22 23  1  0
 23 24  2  0
 24 25  1  0
 25 26  1  0
 16  4  1  0
 26 17  1  0
 12  6  1  0
 26 22  2  0
M  END
>  <energy_score>  (4560) 
-25.098705

>  <alias>  (4560) 
JHULSTIRYADVKH-UHFFFAOYSA-N-P8-P8-P48-601530

>  <HIPPO Pose ID>  (4560) 
84817

>  <smiles>  (4560) 
O=C(NC1(Cc2ccc(F)cc2F)COC1)c1cc(Br)cc2cc[nH]c12

>  <inchikey>  (4560) 
JHULSTIRYADVKH-UHFFFAOYSA-N

>  <distance_score>  (4560) 
0.884403

>  <ref_mols>  (4560) 
Z0101a,Z0827a

>  <ref_pdb>  (4560) 
Z0089a

>  <HIPPO Compound ID>  (4560) 
145857

>  <name>  (4560) 
JHULSTIRYADVKH-UHFFFAOYSA-N-P8-P8-P48-601530

>  <inspiration_score>  (4560) 
None

$$$$
WVIRNHZESRFREK-UHFFFAOYSA-N-P8-P8-P48-601530
     RDKit          3D

 26 29  0  0  0  0  0  0  0  0999 V2000
   -4.1641    5.4444  -17.8808 O   0  0  0  0  0  0  0  0  0  0  0  0
   -5.1085    5.3493  -18.5613 C   0  0  0  0  0  0  0  0  0  0  0  0
   -5.2693    5.5520  -20.0847 N   0  0  0  0  0  0  0  0  0  0  0  0
   -4.2963    6.0190  -21.1027 C   0  0  0  0  0  0  0  0  0  0  0  0
   -3.7938    7.3928  -20.6699 C   0  0  0  0  0  0  0  0  0  0  0  0
   -3.0686    8.1610  -21.7457 C   0  0  0  0  0  0  0  0  0  0  0  0
   -1.6822    8.0368  -21.9136 C   0  0  0  0  0  0  0  0  0  0  0  0
   -1.0313    8.7551  -22.9185 C   0  0  0  0  0  0  0  0  0  0  0  0
   -1.7627    9.5974  -23.7501 C   0  0  0  0  0  0  0  0  0  0  0  0
   -1.1315   10.2835  -24.7116 F   0  0  0  0  0  0  0  0  0  0  0  0
   -3.1345    9.7390  -23.5999 C   0  0  0  0  0  0  0  0  0  0  0  0
   -3.7754    9.0212  -22.5986 C   0  0  0  0  0  0  0  0  0  0  0  0
   -5.1038    9.1498  -22.4587 F   0  0  0  0  0  0  0  0  0  0  0  0
   -3.2575    4.9134  -21.4415 C   0  0  0  0  0  0  0  0  0  0  0  0
   -4.0962    4.4574  -22.5535 O   0  0  0  0  0  0  0  0  0  0  0  0
   -4.7568    5.7496  -22.5583 C   0  0  0  0  0  0  0  0  0  0  0  0
   -6.3926    4.9662  -17.8847 C   0  0  0  0  0  0  0  0  0  0  0  0
   -7.4719    4.3467  -18.5364 C   0  0  0  0  0  0  0  0  0  0  0  0
   -8.6259    3.9830  -17.8478 C   0  0  0  0  0  0  0  0  0  0  0  0
   -8.7081    4.1806  -16.4748 C   0  0  0  0  0  0  0  0  0  0  0  0
   -9.7919    3.7461  -15.8332 F   0  0  0  0  0  0  0  0  0  0  0  0
   -7.6688    4.8128  -15.7772 C   0  0  0  0  0  0  0  0  0  0  0  0
   -7.4671    5.2010  -14.4227 C   0  0  0  0  0  0  0  0  0  0  0  0
   -6.2280    5.7950  -14.3395 C   0  0  0  0  0  0  0  0  0  0  0  0
   -5.6562    5.7413  -15.5846 N   0  0  0  0  0  0  0  0  0  0  0  0
   -6.5319    5.1853  -16.4953 C   0  0  0  0  0  0  0  0  0  0  0  0
  1  2  2  0
  2  3  1  0
  3  4  1  0
  4  5  1  0
  5  6  1  0
  6  7  2  0
  7  8  1  0
  8  9  2  0
  9 10  1  0
  9 11  1  0
 11 12  2  0
 12 13  1  0
  4 14  1  0
 14 15  1  0
 15 16  1  0
  2 17  1  0
 17 18  2  0
 18 19  1  0
 19 20  2  0
 20 21  1  0
 20 22  1  0
 22 23  1  0
 23 24  2  0
 24 25  1  0
 25 26  1  0
 16  4  1  0
 26 17  1  0
 12  6  1  0
 26 22  2  0
M  END
>  <energy_score>  (4561) 
-16.908318

>  <alias>  (4561) 
WVIRNHZESRFREK-UHFFFAOYSA-N-P8-P8-P48-601530

>  <HIPPO Pose ID>  (4561) 
84823

>  <smiles>  (4561) 
O=C(NC1(Cc2ccc(F)cc2F)COC1)c1ccc(F)c2cc[nH]c12

>  <inchikey>  (4561) 
WVIRNHZESRFREK-UHFFFAOYSA-N

>  <distance_score>  (4561) 
0.834295

>  <ref_mols>  (4561) 
Z0101a,Z0827a

>  <ref_pdb>  (4561) 
Z0089a

>  <HIPPO Compound ID>  (4561) 
145860

>  <name>  (4561) 
WVIRNHZESRFREK-UHFFFAOYSA-N-P8-P8-P48-601530

>  <inspiration_score>  (4561) 
None

$$$$
DMVAWDBAWDVSAQ-UHFFFAOYSA-N-P8-P8-P48-601530
     RDKit          3D

 26 29  0  0  0  0  0  0  0  0999 V2000
   -4.1238    5.0570  -17.9106 O   0  0  0  0  0  0  0  0  0  0  0  0
   -5.1043    5.1323  -18.5401 C   0  0  0  0  0  0  0  0  0  0  0  0
   -5.3240    5.5858  -19.9994 N   0  0  0  0  0  0  0  0  0  0  0  0
   -4.3506    5.9599  -21.0438 C   0  0  0  0  0  0  0  0  0  0  0  0
   -3.9928    7.4440  -20.9707 C   0  0  0  0  0  0  0  0  0  0  0  0
   -3.4447    7.8589  -19.6259 C   0  0  0  0  0  0  0  0  0  0  0  0
   -4.2885    8.4021  -18.6433 C   0  0  0  0  0  0  0  0  0  0  0  0
   -3.7803    8.7424  -17.3888 C   0  0  0  0  0  0  0  0  0  0  0  0
   -2.4301    8.5445  -17.1174 C   0  0  0  0  0  0  0  0  0  0  0  0
   -1.9502    8.8714  -15.9103 F   0  0  0  0  0  0  0  0  0  0  0  0
   -1.5751    8.0213  -18.0756 C   0  0  0  0  0  0  0  0  0  0  0  0
   -2.0893    7.6848  -19.3216 C   0  0  0  0  0  0  0  0  0  0  0  0
   -1.2561    7.2010  -20.2527 F   0  0  0  0  0  0  0  0  0  0  0  0
   -3.2111    4.9324  -21.2591 C   0  0  0  0  0  0  0  0  0  0  0  0
   -3.8979    4.3789  -22.4232 O   0  0  0  0  0  0  0  0  0  0  0  0
   -4.7628    5.5303  -22.4638 C   0  0  0  0  0  0  0  0  0  0  0  0
   -6.3866    4.8453  -17.8254 C   0  0  0  0  0  0  0  0  0  0  0  0
   -7.5364    4.3235  -18.4298 C   0  0  0  0  0  0  0  0  0  0  0  0
   -8.6818    4.0528  -17.6802 C   0  0  0  0  0  0  0  0  0  0  0  0
   -8.7031    4.2731  -16.2981 C   0  0  0  0  0  0  0  0  0  0  0  0
   -7.5739    4.8223  -15.6622 C   0  0  0  0  0  0  0  0  0  0  0  0
   -7.2381    5.1918  -14.3358 C   0  0  0  0  0  0  0  0  0  0  0  0
   -8.3348    4.9655  -12.8389 Br  0  0  0  0  0  0  0  0  0  0  0  0
   -5.9687    5.7105  -14.3190 C   0  0  0  0  0  0  0  0  0  0  0  0
   -5.4824    5.6077  -15.5940 N   0  0  0  0  0  0  0  0  0  0  0  0
   -6.4487    5.0967  -16.4400 C   0  0  0  0  0  0  0  0  0  0  0  0
  1  2  2  0
  2  3  1  0
  3  4  1  0
  4  5  1  0
  5  6  1  0
  6  7  2  0
  7  8  1  0
  8  9  2  0
  9 10  1  0
  9 11  1  0
 11 12  2  0
 12 13  1  0
  4 14  1  0
 14 15  1  0
 15 16  1  0
  2 17  1  0
 17 18  2  0
 18 19  1  0
 19 20  2  0
 20 21  1  0
 21 22  1  0
 22 23  1  0
 22 24  2  0
 24 25  1  0
 25 26  1  0
 16  4  1  0
 26 17  1  0
 12  6  1  0
 26 21  2  0
M  END
>  <energy_score>  (4562) 
-28.128184

>  <alias>  (4562) 
DMVAWDBAWDVSAQ-UHFFFAOYSA-N-P8-P8-P48-601530

>  <HIPPO Pose ID>  (4562) 
84825

>  <smiles>  (4562) 
O=C(NC1(Cc2ccc(F)cc2F)COC1)c1cccc2c(Br)c[nH]c12

>  <inchikey>  (4562) 
DMVAWDBAWDVSAQ-UHFFFAOYSA-N

>  <distance_score>  (4562) 
0.842411

>  <ref_mols>  (4562) 
Z0101a,Z0827a

>  <ref_pdb>  (4562) 
Z0089a

>  <HIPPO Compound ID>  (4562) 
145861

>  <name>  (4562) 
DMVAWDBAWDVSAQ-UHFFFAOYSA-N-P8-P8-P48-601530

>  <inspiration_score>  (4562) 
None

$$$$
GFSLUJHUJDQALZ-UHFFFAOYSA-N-P8-P8-P48-601530
     RDKit          3D

 27 29  0  0  0  0  0  0  0  0999 V2000
   -2.8255    9.2046  -21.1135 C   0  0  0  0  0  0  0  0  0  0  0  0
   -2.8874    7.7833  -21.0094 O   0  0  0  0  0  0  0  0  0  0  0  0
   -4.1215    7.2882  -20.7047 C   0  0  0  0  0  0  0  0  0  0  0  0
   -5.1139    7.9934  -20.5313 O   0  0  0  0  0  0  0  0  0  0  0  0
   -4.1263    5.7391  -20.6681 C   0  0  2  0  0  0  0  0  0  0  0  0
   -2.7651    5.1745  -20.2337 C   0  0  0  0  0  0  0  0  0  0  0  0
   -4.5556    5.1598  -22.0370 C   0  0  0  0  0  0  0  0  0  0  0  0
   -3.9070    5.7467  -23.2651 C   0  0  0  0  0  0  0  0  0  0  0  0
   -4.5590    6.7555  -23.9939 C   0  0  0  0  0  0  0  0  0  0  0  0
   -3.9633    7.3009  -25.1311 C   0  0  0  0  0  0  0  0  0  0  0  0
   -2.7164    6.8432  -25.5380 C   0  0  0  0  0  0  0  0  0  0  0  0
   -2.1433    7.3703  -26.6279 F   0  0  0  0  0  0  0  0  0  0  0  0
   -2.0546    5.8474  -24.8309 C   0  0  0  0  0  0  0  0  0  0  0  0
   -2.6499    5.2963  -23.6961 C   0  0  0  0  0  0  0  0  0  0  0  0
   -5.1497    5.3719  -19.6772 N   0  0  0  0  0  0  0  0  0  0  0  0
   -5.0418    5.1735  -18.1555 C   0  0  0  0  0  0  0  0  0  0  0  0
   -4.1099    5.1937  -17.4547 O   0  0  0  0  0  0  0  0  0  0  0  0
   -6.3690    4.9088  -17.5075 C   0  0  0  0  0  0  0  0  0  0  0  0
   -7.4973    4.4068  -18.1710 C   0  0  0  0  0  0  0  0  0  0  0  0
   -8.6751    4.1537  -17.4733 C   0  0  0  0  0  0  0  0  0  0  0  0
  -10.0820    3.6784  -18.3359 Cl  0  0  0  0  0  0  0  0  0  0  0  0
   -8.7620    4.3384  -16.0941 C   0  0  0  0  0  0  0  0  0  0  0  0
   -7.6684    4.8847  -15.4096 C   0  0  0  0  0  0  0  0  0  0  0  0
   -7.4445    5.2772  -14.0614 C   0  0  0  0  0  0  0  0  0  0  0  0
   -6.1662    5.7800  -13.9814 C   0  0  0  0  0  0  0  0  0  0  0  0
   -5.5949    5.6625  -15.2208 N   0  0  0  0  0  0  0  0  0  0  0  0
   -6.5047    5.1540  -16.1250 C   0  0  0  0  0  0  0  0  0  0  0  0
  1  2  1  0
  2  3  1  0
  3  4  2  0
  3  5  1  0
  5  6  1  1
  5  7  1  0
  7  8  1  0
  8  9  2  0
  9 10  1  0
 10 11  2  0
 11 12  1  0
 11 13  1  0
 13 14  2  0
  5 15  1  0
 15 16  1  0
 16 17  2  0
 16 18  1  0
 18 19  2  0
 19 20  1  0
 20 21  1  0
 20 22  2  0
 22 23  1  0
 23 24  1  0
 24 25  2  0
 25 26  1  0
 26 27  1  0
 14  8  1  0
 27 18  1  0
 27 23  2  0
M  END
>  <energy_score>  (4563) 
-18.361612

>  <alias>  (4563) 
GFSLUJHUJDQALZ-UHFFFAOYSA-N-P8-P8-P48-601530

>  <HIPPO Pose ID>  (4563) 
84829

>  <smiles>  (4563) 
COC(=O)C(C)(Cc1ccc(F)cc1)NC(=O)c1cc(Cl)cc2cc[nH]c12

>  <inchikey>  (4563) 
GFSLUJHUJDQALZ-UHFFFAOYSA-N

>  <distance_score>  (4563) 
0.67486

>  <ref_mols>  (4563) 
Z0101a,Z0827a

>  <ref_pdb>  (4563) 
Z0089a

>  <HIPPO Compound ID>  (4563) 
145863

>  <name>  (4563) 
GFSLUJHUJDQALZ-UHFFFAOYSA-N-P8-P8-P48-601530

>  <inspiration_score>  (4563) 
None

$$$$
YHFSJDIRFAZNCB-UHFFFAOYSA-N-P8-P8-P48-601530
     RDKit          3D

 27 29  0  0  0  0  0  0  0  0999 V2000
   -4.5716    9.7475  -20.9827 C   0  0  0  0  0  0  0  0  0  0  0  0
   -4.6789    8.3354  -20.8048 O   0  0  0  0  0  0  0  0  0  0  0  0
   -3.5697    7.6443  -21.2221 C   0  0  0  0  0  0  0  0  0  0  0  0
   -2.6036    8.1817  -21.7527 O   0  0  0  0  0  0  0  0  0  0  0  0
   -3.7388    6.1172  -21.0314 C   0  0  2  0  0  0  0  0  0  0  0  0
   -2.3954    5.4921  -20.6467 C   0  0  0  0  0  0  0  0  0  0  0  0
   -4.3230    5.4687  -22.3143 C   0  0  0  0  0  0  0  0  0  0  0  0
   -3.6966    5.8481  -23.6304 C   0  0  0  0  0  0  0  0  0  0  0  0
   -4.3187    6.7929  -24.4638 C   0  0  0  0  0  0  0  0  0  0  0  0
   -3.7431    7.1455  -25.6850 C   0  0  0  0  0  0  0  0  0  0  0  0
   -2.5448    6.5601  -26.0726 C   0  0  0  0  0  0  0  0  0  0  0  0
   -1.9926    6.8998  -27.2448 F   0  0  0  0  0  0  0  0  0  0  0  0
   -1.9126    5.6248  -25.2639 C   0  0  0  0  0  0  0  0  0  0  0  0
   -2.4892    5.2648  -24.0455 C   0  0  0  0  0  0  0  0  0  0  0  0
   -4.7143    5.8594  -19.9717 N   0  0  0  0  0  0  0  0  0  0  0  0
   -4.5178    5.6590  -18.4603 C   0  0  0  0  0  0  0  0  0  0  0  0
   -3.5575    5.7431  -17.8057 O   0  0  0  0  0  0  0  0  0  0  0  0
   -5.7891    5.2468  -17.8109 C   0  0  0  0  0  0  0  0  0  0  0  0
   -6.7968    4.5688  -18.5095 C   0  0  0  0  0  0  0  0  0  0  0  0
   -7.9734    4.2130  -17.8878 C   0  0  0  0  0  0  0  0  0  0  0  0
   -8.1573    4.4628  -16.5240 C   0  0  0  0  0  0  0  0  0  0  0  0
   -9.4091    3.9568  -15.9255 C   0  0  0  0  0  0  0  0  0  0  0  0
   -7.1535    5.1115  -15.7811 C   0  0  0  0  0  0  0  0  0  0  0  0
   -7.0212    5.5236  -14.4230 C   0  0  0  0  0  0  0  0  0  0  0  0
   -5.7973    6.1377  -14.2904 C   0  0  0  0  0  0  0  0  0  0  0  0
   -5.1729    6.0870  -15.5099 N   0  0  0  0  0  0  0  0  0  0  0  0
   -5.9903    5.4881  -16.4426 C   0  0  0  0  0  0  0  0  0  0  0  0
  1  2  1  0
  2  3  1  0
  3  4  2  0
  3  5  1  0
  5  6  1  1
  5  7  1  0
  7  8  1  0
  8  9  2  0
  9 10  1  0
 10 11  2  0
 11 12  1  0
 11 13  1  0
 13 14  2  0
  5 15  1  0
 15 16  1  0
 16 17  2  0
 16 18  1  0
 18 19  2  0
 19 20  1  0
 20 21  2  0
 21 22  1  0
 21 23  1  0
 23 24  1  0
 24 25  2  0
 25 26  1  0
 26 27  1  0
 14  8  1  0
 27 18  1  0
 27 23  2  0
M  END
>  <energy_score>  (4564) 
-23.687252

>  <alias>  (4564) 
YHFSJDIRFAZNCB-UHFFFAOYSA-N-P8-P8-P48-601530

>  <HIPPO Pose ID>  (4564) 
84831

>  <smiles>  (4564) 
COC(=O)C(C)(Cc1ccc(F)cc1)NC(=O)c1ccc(C)c2cc[nH]c12

>  <inchikey>  (4564) 
YHFSJDIRFAZNCB-UHFFFAOYSA-N

>  <distance_score>  (4564) 
1.146649

>  <ref_mols>  (4564) 
Z0101a,Z0827a

>  <ref_pdb>  (4564) 
Z0089a

>  <HIPPO Compound ID>  (4564) 
145864

>  <name>  (4564) 
YHFSJDIRFAZNCB-UHFFFAOYSA-N-P8-P8-P48-601530

>  <inspiration_score>  (4564) 
None

$$$$
IDILWGAGURJTJU-UHFFFAOYSA-N-P8-P8-P48-601530
     RDKit          3D

 27 29  0  0  0  0  0  0  0  0999 V2000
   -2.9623    9.2754  -21.1017 C   0  0  0  0  0  0  0  0  0  0  0  0
   -2.9802    7.8604  -20.9213 O   0  0  0  0  0  0  0  0  0  0  0  0
   -4.1853    7.3494  -20.5413 C   0  0  0  0  0  0  0  0  0  0  0  0
   -5.1896    8.0358  -20.3578 O   0  0  0  0  0  0  0  0  0  0  0  0
   -4.1520    5.8053  -20.4231 C   0  0  2  0  0  0  0  0  0  0  0  0
   -2.7641    5.3040  -19.9942 C   0  0  0  0  0  0  0  0  0  0  0  0
   -4.5823    5.1353  -21.7518 C   0  0  0  0  0  0  0  0  0  0  0  0
   -4.0034    5.6949  -23.0270 C   0  0  0  0  0  0  0  0  0  0  0  0
   -4.7189    6.6457  -23.7730 C   0  0  0  0  0  0  0  0  0  0  0  0
   -4.1815    7.1674  -24.9498 C   0  0  0  0  0  0  0  0  0  0  0  0
   -2.9291    6.7445  -25.3778 C   0  0  0  0  0  0  0  0  0  0  0  0
   -2.4122    7.2490  -26.5057 F   0  0  0  0  0  0  0  0  0  0  0  0
   -2.2047    5.8066  -24.6529 C   0  0  0  0  0  0  0  0  0  0  0  0
   -2.7419    5.2790  -23.4787 C   0  0  0  0  0  0  0  0  0  0  0  0
   -5.1603    5.4901  -19.3904 N   0  0  0  0  0  0  0  0  0  0  0  0
   -5.0221    4.7391  -18.0543 C   0  0  0  0  0  0  0  0  0  0  0  0
   -4.1086    4.1829  -17.5914 O   0  0  0  0  0  0  0  0  0  0  0  0
   -6.2992    4.7158  -17.2882 C   0  0  0  0  0  0  0  0  0  0  0  0
   -6.2426    4.9363  -15.9008 C   0  0  0  0  0  0  0  0  0  0  0  0
   -7.3823    4.8492  -15.0999 C   0  0  0  0  0  0  0  0  0  0  0  0
   -7.3223    5.1171  -13.6279 C   0  0  0  0  0  0  0  0  0  0  0  0
   -8.5953    4.4571  -15.6730 C   0  0  0  0  0  0  0  0  0  0  0  0
   -8.6982    4.2643  -17.0594 C   0  0  0  0  0  0  0  0  0  0  0  0
   -9.7954    3.9897  -17.9192 C   0  0  0  0  0  0  0  0  0  0  0  0
   -9.3048    3.9797  -19.1959 C   0  0  0  0  0  0  0  0  0  0  0  0
   -7.9494    4.1446  -19.1355 N   0  0  0  0  0  0  0  0  0  0  0  0
   -7.5518    4.4084  -17.8481 C   0  0  0  0  0  0  0  0  0  0  0  0
  1  2  1  0
  2  3  1  0
  3  4  2  0
  3  5  1  0
  5  6  1  1
  5  7  1  0
  7  8  1  0
  8  9  2  0
  9 10  1  0
 10 11  2  0
 11 12  1  0
 11 13  1  0
 13 14  2  0
  5 15  1  0
 15 16  1  0
 16 17  2  0
 16 18  1  0
 18 19  2  0
 19 20  1  0
 20 21  1  0
 20 22  2  0
 22 23  1  0
 23 24  1  0
 24 25  2  0
 25 26  1  0
 26 27  1  0
 14  8  1  0
 27 18  1  0
 27 23  2  0
M  END
>  <energy_score>  (4565) 
-13.299993

>  <alias>  (4565) 
IDILWGAGURJTJU-UHFFFAOYSA-N-P8-P8-P48-601530

>  <HIPPO Pose ID>  (4565) 
84833

>  <smiles>  (4565) 
COC(=O)C(C)(Cc1ccc(F)cc1)NC(=O)c1cc(C)cc2cc[nH]c12

>  <inchikey>  (4565) 
IDILWGAGURJTJU-UHFFFAOYSA-N

>  <distance_score>  (4565) 
1.030354

>  <ref_mols>  (4565) 
Z0101a,Z0827a

>  <ref_pdb>  (4565) 
Z0089a

>  <HIPPO Compound ID>  (4565) 
145865

>  <name>  (4565) 
IDILWGAGURJTJU-UHFFFAOYSA-N-P8-P8-P48-601530

>  <inspiration_score>  (4565) 
None

$$$$
VZTNALKZKVXMNE-UHFFFAOYSA-N-P8-P8-P48-601530
     RDKit          3D

 27 29  0  0  0  0  0  0  0  0999 V2000
   -4.8024    9.3494  -20.2252 C   0  0  0  0  0  0  0  0  0  0  0  0
   -4.9145    7.9261  -20.2252 O   0  0  0  0  0  0  0  0  0  0  0  0
   -3.8835    7.2989  -20.8782 C   0  0  0  0  0  0  0  0  0  0  0  0
   -3.0026    7.9106  -21.4735 O   0  0  0  0  0  0  0  0  0  0  0  0
   -4.0025    5.7500  -20.8133 C   0  0  2  0  0  0  0  0  0  0  0  0
   -2.5992    5.1894  -20.5425 C   0  0  0  0  0  0  0  0  0  0  0  0
   -4.5847    5.1683  -22.1183 C   0  0  0  0  0  0  0  0  0  0  0  0
   -4.1205    5.7887  -23.4129 C   0  0  0  0  0  0  0  0  0  0  0  0
   -2.8817    5.4388  -23.9739 C   0  0  0  0  0  0  0  0  0  0  0  0
   -2.4584    6.0206  -25.1696 C   0  0  0  0  0  0  0  0  0  0  0  0
   -3.2726    6.9472  -25.8079 C   0  0  0  0  0  0  0  0  0  0  0  0
   -2.8668    7.5008  -26.9582 F   0  0  0  0  0  0  0  0  0  0  0  0
   -4.5035    7.3054  -25.2730 C   0  0  0  0  0  0  0  0  0  0  0  0
   -4.9271    6.7303  -24.0746 C   0  0  0  0  0  0  0  0  0  0  0  0
   -4.8954    5.4026  -19.6955 N   0  0  0  0  0  0  0  0  0  0  0  0
   -4.5743    5.0055  -18.2514 C   0  0  0  0  0  0  0  0  0  0  0  0
   -3.5505    4.8134  -17.7310 O   0  0  0  0  0  0  0  0  0  0  0  0
   -5.7802    4.9626  -17.3838 C   0  0  0  0  0  0  0  0  0  0  0  0
   -7.0319    4.4357  -17.7392 C   0  0  0  0  0  0  0  0  0  0  0  0
   -8.0597    4.3530  -16.7889 C   0  0  0  0  0  0  0  0  0  0  0  0
   -7.8511    4.8312  -15.4896 C   0  0  0  0  0  0  0  0  0  0  0  0
   -9.1099    4.7104  -14.1170 Br  0  0  0  0  0  0  0  0  0  0  0  0
   -6.6448    5.4443  -15.1393 C   0  0  0  0  0  0  0  0  0  0  0  0
   -6.1556    6.0839  -13.9629 C   0  0  0  0  0  0  0  0  0  0  0  0
   -4.8676    6.4843  -14.2140 C   0  0  0  0  0  0  0  0  0  0  0  0
   -4.5498    6.0808  -15.4826 N   0  0  0  0  0  0  0  0  0  0  0  0
   -5.6357    5.4823  -16.0855 C   0  0  0  0  0  0  0  0  0  0  0  0
  1  2  1  0
  2  3  1  0
  3  4  2  0
  3  5  1  0
  5  6  1  1
  5  7  1  0
  7  8  1  0
  8  9  2  0
  9 10  1  0
 10 11  2  0
 11 12  1  0
 11 13  1  0
 13 14  2  0
  5 15  1  0
 15 16  1  0
 16 17  2  0
 16 18  1  0
 18 19  2  0
 19 20  1  0
 20 21  2  0
 21 22  1  0
 21 23  1  0
 23 24  1  0
 24 25  2  0
 25 26  1  0
 26 27  1  0
 14  8  1  0
 27 18  1  0
 27 23  2  0
M  END
>  <energy_score>  (4566) 
-6.789863

>  <alias>  (4566) 
VZTNALKZKVXMNE-UHFFFAOYSA-N-P8-P8-P48-601530

>  <HIPPO Pose ID>  (4566) 
84835

>  <smiles>  (4566) 
COC(=O)C(C)(Cc1ccc(F)cc1)NC(=O)c1ccc(Br)c2cc[nH]c12

>  <inchikey>  (4566) 
VZTNALKZKVXMNE-UHFFFAOYSA-N

>  <distance_score>  (4566) 
1.397017

>  <ref_mols>  (4566) 
Z0101a,Z0827a

>  <ref_pdb>  (4566) 
Z0089a

>  <HIPPO Compound ID>  (4566) 
145866

>  <name>  (4566) 
VZTNALKZKVXMNE-UHFFFAOYSA-N-P8-P8-P48-601530

>  <inspiration_score>  (4566) 
None

$$$$
VJFAPMXZUZCTKP-UHFFFAOYSA-N-P8-P8-P48-601530
     RDKit          3D

 27 29  0  0  0  0  0  0  0  0999 V2000
   -4.9255    9.4195  -19.7603 C   0  0  0  0  0  0  0  0  0  0  0  0
   -5.0750    7.9996  -19.8065 O   0  0  0  0  0  0  0  0  0  0  0  0
   -4.0636    7.3684  -20.4870 C   0  0  0  0  0  0  0  0  0  0  0  0
   -3.1843    7.9776  -21.0857 O   0  0  0  0  0  0  0  0  0  0  0  0
   -4.1972    5.8226  -20.4359 C   0  0  2  0  0  0  0  0  0  0  0  0
   -2.8319    5.2480  -20.0313 C   0  0  0  0  0  0  0  0  0  0  0  0
   -4.6662    5.2757  -21.8088 C   0  0  0  0  0  0  0  0  0  0  0  0
   -3.8685    5.6231  -23.0402 C   0  0  0  0  0  0  0  0  0  0  0  0
   -4.3063    6.6358  -23.9100 C   0  0  0  0  0  0  0  0  0  0  0  0
   -3.5649    6.9610  -25.0471 C   0  0  0  0  0  0  0  0  0  0  0  0
   -2.3838    6.2805  -25.3139 C   0  0  0  0  0  0  0  0  0  0  0  0
   -1.6711    6.5955  -26.4034 F   0  0  0  0  0  0  0  0  0  0  0  0
   -1.9340    5.2753  -24.4689 C   0  0  0  0  0  0  0  0  0  0  0  0
   -2.6806    4.9401  -23.3389 C   0  0  0  0  0  0  0  0  0  0  0  0
   -5.2293    5.4607  -19.4354 N   0  0  0  0  0  0  0  0  0  0  0  0
   -5.0913    4.8142  -18.0450 C   0  0  0  0  0  0  0  0  0  0  0  0
   -4.1524    4.3932  -17.4976 O   0  0  0  0  0  0  0  0  0  0  0  0
   -6.3824    4.7623  -17.3046 C   0  0  0  0  0  0  0  0  0  0  0  0
   -6.3544    5.0282  -15.9265 C   0  0  0  0  0  0  0  0  0  0  0  0
   -7.4994    4.8987  -15.1543 C   0  0  0  0  0  0  0  0  0  0  0  0
   -7.4736    5.3799  -13.3311 Br  0  0  0  0  0  0  0  0  0  0  0  0
   -8.6947    4.4596  -15.7099 C   0  0  0  0  0  0  0  0  0  0  0  0
   -8.7753    4.2519  -17.0942 C   0  0  0  0  0  0  0  0  0  0  0  0
   -9.8557    3.9591  -17.9675 C   0  0  0  0  0  0  0  0  0  0  0  0
   -9.3471    3.9608  -19.2370 C   0  0  0  0  0  0  0  0  0  0  0  0
   -7.9929    4.1226  -19.1593 N   0  0  0  0  0  0  0  0  0  0  0  0
   -7.6207    4.4122  -17.8708 C   0  0  0  0  0  0  0  0  0  0  0  0
  1  2  1  0
  2  3  1  0
  3  4  2  0
  3  5  1  0
  5  6  1  1
  5  7  1  0
  7  8  1  0
  8  9  2  0
  9 10  1  0
 10 11  2  0
 11 12  1  0
 11 13  1  0
 13 14  2  0
  5 15  1  0
 15 16  1  0
 16 17  2  0
 16 18  1  0
 18 19  2  0
 19 20  1  0
 20 21  1  0
 20 22  2  0
 22 23  1  0
 23 24  1  0
 24 25  2  0
 25 26  1  0
 26 27  1  0
 14  8  1  0
 27 18  1  0
 27 23  2  0
M  END
>  <energy_score>  (4567) 
-9.823583

>  <alias>  (4567) 
VJFAPMXZUZCTKP-UHFFFAOYSA-N-P8-P8-P48-601530

>  <HIPPO Pose ID>  (4567) 
84837

>  <smiles>  (4567) 
COC(=O)C(C)(Cc1ccc(F)cc1)NC(=O)c1cc(Br)cc2cc[nH]c12

>  <inchikey>  (4567) 
VJFAPMXZUZCTKP-UHFFFAOYSA-N

>  <distance_score>  (4567) 
0.811953

>  <ref_mols>  (4567) 
Z0101a,Z0827a

>  <ref_pdb>  (4567) 
Z0089a

>  <HIPPO Compound ID>  (4567) 
145867

>  <name>  (4567) 
VJFAPMXZUZCTKP-UHFFFAOYSA-N-P8-P8-P48-601530

>  <inspiration_score>  (4567) 
None

$$$$
DZQAMTUFHQKHSR-UHFFFAOYSA-N-P8-P8-P48-601530
     RDKit          3D

 27 29  0  0  0  0  0  0  0  0999 V2000
   -2.9050    9.2144  -21.2995 C   0  0  0  0  0  0  0  0  0  0  0  0
   -2.9178    7.7928  -21.1829 O   0  0  0  0  0  0  0  0  0  0  0  0
   -4.1087    7.2659  -20.7772 C   0  0  0  0  0  0  0  0  0  0  0  0
   -5.1024    7.9448  -20.5226 O   0  0  0  0  0  0  0  0  0  0  0  0
   -4.0711    5.7154  -20.7329 C   0  0  2  0  0  0  0  0  0  0  0  0
   -2.6595    5.1956  -20.4191 C   0  0  0  0  0  0  0  0  0  0  0  0
   -4.5940    5.1113  -22.0522 C   0  0  0  0  0  0  0  0  0  0  0  0
   -4.0987    5.7585  -23.3231 C   0  0  0  0  0  0  0  0  0  0  0  0
   -4.8781    6.7324  -23.9696 C   0  0  0  0  0  0  0  0  0  0  0  0
   -4.4220    7.3386  -25.1402 C   0  0  0  0  0  0  0  0  0  0  0  0
   -3.1862    6.9780  -25.6619 C   0  0  0  0  0  0  0  0  0  0  0  0
   -2.7469    7.5638  -26.7834 F   0  0  0  0  0  0  0  0  0  0  0  0
   -2.3985    6.0194  -25.0372 C   0  0  0  0  0  0  0  0  0  0  0  0
   -2.8539    5.4074  -23.8690 C   0  0  0  0  0  0  0  0  0  0  0  0
   -4.9783    5.3591  -19.6312 N   0  0  0  0  0  0  0  0  0  0  0  0
   -4.6834    5.0447  -18.1595 C   0  0  0  0  0  0  0  0  0  0  0  0
   -3.6678    4.9413  -17.5981 O   0  0  0  0  0  0  0  0  0  0  0  0
   -5.9169    4.9599  -17.3248 C   0  0  0  0  0  0  0  0  0  0  0  0
   -7.1486    4.4177  -17.7345 C   0  0  0  0  0  0  0  0  0  0  0  0
   -8.2113    4.2990  -16.8288 C   0  0  0  0  0  0  0  0  0  0  0  0
   -8.0478    4.7488  -15.5186 C   0  0  0  0  0  0  0  0  0  0  0  0
   -9.2035    4.6580  -14.2866 Cl  0  0  0  0  0  0  0  0  0  0  0  0
   -6.8670    5.3608  -15.0909 C   0  0  0  0  0  0  0  0  0  0  0  0
   -6.4233    5.9719  -13.8808 C   0  0  0  0  0  0  0  0  0  0  0  0
   -5.1331    6.3969  -14.0780 C   0  0  0  0  0  0  0  0  0  0  0  0
   -4.7689    6.0370  -15.3471 N   0  0  0  0  0  0  0  0  0  0  0  0
   -5.8250    5.4403  -16.0034 C   0  0  0  0  0  0  0  0  0  0  0  0
  1  2  1  0
  2  3  1  0
  3  4  2  0
  3  5  1  0
  5  6  1  1
  5  7  1  0
  7  8  1  0
  8  9  2  0
  9 10  1  0
 10 11  2  0
 11 12  1  0
 11 13  1  0
 13 14  2  0
  5 15  1  0
 15 16  1  0
 16 17  2  0
 16 18  1  0
 18 19  2  0
 19 20  1  0
 20 21  2  0
 21 22  1  0
 21 23  1  0
 23 24  1  0
 24 25  2  0
 25 26  1  0
 26 27  1  0
 14  8  1  0
 27 18  1  0
 27 23  2  0
M  END
>  <energy_score>  (4568) 
-12.094131

>  <alias>  (4568) 
DZQAMTUFHQKHSR-UHFFFAOYSA-N-P8-P8-P48-601530

>  <HIPPO Pose ID>  (4568) 
84839

>  <smiles>  (4568) 
COC(=O)C(C)(Cc1ccc(F)cc1)NC(=O)c1ccc(Cl)c2cc[nH]c12

>  <inchikey>  (4568) 
DZQAMTUFHQKHSR-UHFFFAOYSA-N

>  <distance_score>  (4568) 
1.231268

>  <ref_mols>  (4568) 
Z0101a,Z0827a

>  <ref_pdb>  (4568) 
Z0089a

>  <HIPPO Compound ID>  (4568) 
145868

>  <name>  (4568) 
DZQAMTUFHQKHSR-UHFFFAOYSA-N-P8-P8-P48-601530

>  <inspiration_score>  (4568) 
None

$$$$
OGADVFKBUFAHTD-UHFFFAOYSA-N-P8-P8-P48-601530
     RDKit          3D

 27 29  0  0  0  0  0  0  0  0999 V2000
   -2.6969    9.1961  -21.1775 C   0  0  0  0  0  0  0  0  0  0  0  0
   -2.7976    7.7847  -20.9982 O   0  0  0  0  0  0  0  0  0  0  0  0
   -4.0751    7.3214  -20.8678 C   0  0  0  0  0  0  0  0  0  0  0  0
   -5.0678    8.0444  -20.9167 O   0  0  0  0  0  0  0  0  0  0  0  0
   -4.1107    5.7750  -20.7198 C   0  0  2  0  0  0  0  0  0  0  0  0
   -2.7875    5.1975  -20.1988 C   0  0  0  0  0  0  0  0  0  0  0  0
   -4.5203    5.1435  -22.0705 C   0  0  0  0  0  0  0  0  0  0  0  0
   -3.7968    5.6458  -23.2946 C   0  0  0  0  0  0  0  0  0  0  0  0
   -2.5391    5.1326  -23.6435 C   0  0  0  0  0  0  0  0  0  0  0  0
   -1.8693    5.6108  -24.7699 C   0  0  0  0  0  0  0  0  0  0  0  0
   -2.4581    6.5966  -25.5514 C   0  0  0  0  0  0  0  0  0  0  0  0
   -1.8138    7.0526  -26.6335 F   0  0  0  0  0  0  0  0  0  0  0  0
   -3.7042    7.1171  -25.2260 C   0  0  0  0  0  0  0  0  0  0  0  0
   -4.3733    6.6450  -24.0966 C   0  0  0  0  0  0  0  0  0  0  0  0
   -5.1497    5.4810  -19.7280 N   0  0  0  0  0  0  0  0  0  0  0  0
   -5.2740    5.9046  -18.2595 C   0  0  0  0  0  0  0  0  0  0  0  0
   -4.6110    6.6189  -17.6207 O   0  0  0  0  0  0  0  0  0  0  0  0
   -6.4501    5.2640  -17.5630 C   0  0  0  0  0  0  0  0  0  0  0  0
   -7.5415    4.6387  -18.1896 C   0  0  0  0  0  0  0  0  0  0  0  0
   -8.6044    4.1127  -17.4528 C   0  0  0  0  0  0  0  0  0  0  0  0
   -8.6159    4.1922  -16.0591 C   0  0  0  0  0  0  0  0  0  0  0  0
   -7.5553    4.8305  -15.3929 C   0  0  0  0  0  0  0  0  0  0  0  0
   -7.2462    5.1282  -14.0430 C   0  0  0  0  0  0  0  0  0  0  0  0
   -8.2719    4.6246  -12.5643 Br  0  0  0  0  0  0  0  0  0  0  0  0
   -6.0734    5.8358  -13.9924 C   0  0  0  0  0  0  0  0  0  0  0  0
   -5.6207    5.9387  -15.2773 N   0  0  0  0  0  0  0  0  0  0  0  0
   -6.5079    5.3450  -16.1563 C   0  0  0  0  0  0  0  0  0  0  0  0
  1  2  1  0
  2  3  1  0
  3  4  2  0
  3  5  1  0
  5  6  1  1
  5  7  1  0
  7  8  1  0
  8  9  2  0
  9 10  1  0
 10 11  2  0
 11 12  1  0
 11 13  1  0
 13 14  2  0
  5 15  1  0
 15 16  1  0
 16 17  2  0
 16 18  1  0
 18 19  2  0
 19 20  1  0
 20 21  2  0
 21 22  1  0
 22 23  1  0
 23 24  1  0
 23 25  2  0
 25 26  1  0
 26 27  1  0
 14  8  1  0
 27 18  1  0
 27 22  2  0
M  END
>  <energy_score>  (4569) 
-17.892966

>  <alias>  (4569) 
OGADVFKBUFAHTD-UHFFFAOYSA-N-P8-P8-P48-601530

>  <HIPPO Pose ID>  (4569) 
84843

>  <smiles>  (4569) 
COC(=O)C(C)(Cc1ccc(F)cc1)NC(=O)c1cccc2c(Br)c[nH]c12

>  <inchikey>  (4569) 
OGADVFKBUFAHTD-UHFFFAOYSA-N

>  <distance_score>  (4569) 
0.746615

>  <ref_mols>  (4569) 
Z0101a,Z0827a

>  <ref_pdb>  (4569) 
Z0089a

>  <HIPPO Compound ID>  (4569) 
145870

>  <name>  (4569) 
OGADVFKBUFAHTD-UHFFFAOYSA-N-P8-P8-P48-601530

>  <inspiration_score>  (4569) 
None

$$$$
ZLYFZZDUYFMSLJ-UHFFFAOYSA-N-P8-P8-P48-601530
     RDKit          3D

 27 29  0  0  0  0  0  0  0  0999 V2000
   -4.7392    9.5805  -20.3523 C   0  0  0  0  0  0  0  0  0  0  0  0
   -4.9208    8.1649  -20.3200 O   0  0  0  0  0  0  0  0  0  0  0  0
   -3.8695    7.4652  -20.8533 C   0  0  0  0  0  0  0  0  0  0  0  0
   -2.9036    8.0095  -21.3779 O   0  0  0  0  0  0  0  0  0  0  0  0
   -4.0815    5.9307  -20.7719 C   0  0  2  0  0  0  0  0  0  0  0  0
   -2.7679    5.2769  -20.3190 C   0  0  0  0  0  0  0  0  0  0  0  0
   -4.5562    5.3782  -22.1404 C   0  0  0  0  0  0  0  0  0  0  0  0
   -3.7554    5.7319  -23.3668 C   0  0  0  0  0  0  0  0  0  0  0  0
   -4.2032    6.7374  -24.2401 C   0  0  0  0  0  0  0  0  0  0  0  0
   -3.4648    7.0670  -25.3776 C   0  0  0  0  0  0  0  0  0  0  0  0
   -2.2768    6.3980  -25.6418 C   0  0  0  0  0  0  0  0  0  0  0  0
   -1.5673    6.7165  -26.7325 F   0  0  0  0  0  0  0  0  0  0  0  0
   -1.8158    5.4010  -24.7928 C   0  0  0  0  0  0  0  0  0  0  0  0
   -2.5576    5.0628  -23.6605 C   0  0  0  0  0  0  0  0  0  0  0  0
   -5.1419    5.6248  -19.7983 N   0  0  0  0  0  0  0  0  0  0  0  0
   -5.0767    5.4492  -18.2716 C   0  0  0  0  0  0  0  0  0  0  0  0
   -4.1875    5.5942  -17.5314 O   0  0  0  0  0  0  0  0  0  0  0  0
   -6.3903    5.0247  -17.6855 C   0  0  0  0  0  0  0  0  0  0  0  0
   -7.4180    4.3986  -18.4124 C   0  0  0  0  0  0  0  0  0  0  0  0
   -8.5990    3.9966  -17.7979 C   0  0  0  0  0  0  0  0  0  0  0  0
   -8.7593    4.1608  -16.4281 C   0  0  0  0  0  0  0  0  0  0  0  0
   -9.8677    3.6875  -15.8622 F   0  0  0  0  0  0  0  0  0  0  0  0
   -7.7744    4.7968  -15.6581 C   0  0  0  0  0  0  0  0  0  0  0  0
   -7.6505    5.1553  -14.2864 C   0  0  0  0  0  0  0  0  0  0  0  0
   -6.4331    5.7781  -14.1248 C   0  0  0  0  0  0  0  0  0  0  0  0
   -5.7985    5.7712  -15.3391 N   0  0  0  0  0  0  0  0  0  0  0  0
   -6.6100    5.2098  -16.3038 C   0  0  0  0  0  0  0  0  0  0  0  0
  1  2  1  0
  2  3  1  0
  3  4  2  0
  3  5  1  0
  5  6  1  1
  5  7  1  0
  7  8  1  0
  8  9  2  0
  9 10  1  0
 10 11  2  0
 11 12  1  0
 11 13  1  0
 13 14  2  0
  5 15  1  0
 15 16  1  0
 16 17  2  0
 16 18  1  0
 18 19  2  0
 19 20  1  0
 20 21  2  0
 21 22  1  0
 21 23  1  0
 23 24  1  0
 24 25  2  0
 25 26  1  0
 26 27  1  0
 14  8  1  0
 27 18  1  0
 27 23  2  0
M  END
>  <energy_score>  (4570) 
-12.316948

>  <alias>  (4570) 
ZLYFZZDUYFMSLJ-UHFFFAOYSA-N-P8-P8-P48-601530

>  <HIPPO Pose ID>  (4570) 
84845

>  <smiles>  (4570) 
COC(=O)C(C)(Cc1ccc(F)cc1)NC(=O)c1ccc(F)c2cc[nH]c12

>  <inchikey>  (4570) 
ZLYFZZDUYFMSLJ-UHFFFAOYSA-N

>  <distance_score>  (4570) 
0.737915

>  <ref_mols>  (4570) 
Z0101a,Z0827a

>  <ref_pdb>  (4570) 
Z0089a

>  <HIPPO Compound ID>  (4570) 
145871

>  <name>  (4570) 
ZLYFZZDUYFMSLJ-UHFFFAOYSA-N-P8-P8-P48-601530

>  <inspiration_score>  (4570) 
None

$$$$
BLIGESBWLWHCGL-UHFFFAOYSA-N-P8-P8-P48-601530
     RDKit          3D

 27 30  0  0  0  0  0  0  0  0999 V2000
   -8.4000    5.0482  -11.9344 N   0  0  0  0  0  0  0  0  0  0  0  0
   -7.8689    5.0814  -12.9652 C   0  0  0  0  0  0  0  0  0  0  0  0
   -7.1289    5.2055  -14.1794 C   0  0  0  0  0  0  0  0  0  0  0  0
   -5.8511    5.7220  -14.2382 C   0  0  0  0  0  0  0  0  0  0  0  0
   -5.4190    5.6143  -15.5311 N   0  0  0  0  0  0  0  0  0  0  0  0
   -6.4223    5.1046  -16.3285 C   0  0  0  0  0  0  0  0  0  0  0  0
   -6.4200    4.8496  -17.7129 C   0  0  0  0  0  0  0  0  0  0  0  0
   -5.1601    5.1018  -18.4778 C   0  0  0  0  0  0  0  0  0  0  0  0
   -4.1514    4.9482  -17.9125 O   0  0  0  0  0  0  0  0  0  0  0  0
   -5.4383    5.6319  -19.8966 N   0  0  0  0  0  0  0  0  0  0  0  0
   -4.5128    6.0030  -20.9750 C   0  0  0  0  0  0  0  0  0  0  0  0
   -4.2350    7.5075  -20.9930 C   0  0  0  0  0  0  0  0  0  0  0  0
   -3.7909    8.0344  -19.6457 C   0  0  0  0  0  0  0  0  0  0  0  0
   -2.4561    7.9118  -19.2311 C   0  0  0  0  0  0  0  0  0  0  0  0
   -2.0682    8.3498  -17.9630 C   0  0  0  0  0  0  0  0  0  0  0  0
   -3.0099    8.9147  -17.1109 C   0  0  0  0  0  0  0  0  0  0  0  0
   -2.6356    9.3266  -15.8928 F   0  0  0  0  0  0  0  0  0  0  0  0
   -4.3322    9.0601  -17.5014 C   0  0  0  0  0  0  0  0  0  0  0  0
   -4.7116    8.6214  -18.7643 C   0  0  0  0  0  0  0  0  0  0  0  0
   -5.9951    8.7701  -19.1287 F   0  0  0  0  0  0  0  0  0  0  0  0
   -3.2804    5.0865  -21.1742 C   0  0  0  0  0  0  0  0  0  0  0  0
   -3.6141    4.9071  -22.5843 O   0  0  0  0  0  0  0  0  0  0  0  0
   -4.9355    5.4265  -22.3399 C   0  0  0  0  0  0  0  0  0  0  0  0
   -7.5973    4.3351  -18.2704 C   0  0  0  0  0  0  0  0  0  0  0  0
   -8.7091    4.0675  -17.4707 C   0  0  0  0  0  0  0  0  0  0  0  0
   -8.6707    4.2914  -16.0887 C   0  0  0  0  0  0  0  0  0  0  0  0
   -7.5140    4.8379  -15.5011 C   0  0  0  0  0  0  0  0  0  0  0  0
  1  2  3  0
  2  3  1  0
  3  4  2  0
  4  5  1  0
  5  6  1  0
  6  7  2  0
  7  8  1  0
  8  9  2  0
  8 10  1  0
 10 11  1  0
 11 12  1  0
 12 13  1  0
 13 14  2  0
 14 15  1  0
 15 16  2  0
 16 17  1  0
 16 18  1  0
 18 19  2  0
 19 20  1  0
 11 21  1  0
 21 22  1  0
 22 23  1  0
  7 24  1  0
 24 25  2  0
 25 26  1  0
 26 27  2  0
 27  3  1  0
 27  6  1  0
 23 11  1  0
 19 13  1  0
M  END
>  <energy_score>  (4571) 
-38.999694

>  <alias>  (4571) 
BLIGESBWLWHCGL-UHFFFAOYSA-N-P8-P8-P48-601530

>  <HIPPO Pose ID>  (4571) 
84849

>  <smiles>  (4571) 
N#Cc1c[nH]c2c(C(=O)NC3(Cc4ccc(F)cc4F)COC3)cccc12

>  <inchikey>  (4571) 
BLIGESBWLWHCGL-UHFFFAOYSA-N

>  <distance_score>  (4571) 
0.84132

>  <ref_mols>  (4571) 
Z0101a,Z0827a

>  <ref_pdb>  (4571) 
Z0089a

>  <HIPPO Compound ID>  (4571) 
145873

>  <name>  (4571) 
BLIGESBWLWHCGL-UHFFFAOYSA-N-P8-P8-P48-601530

>  <inspiration_score>  (4571) 
None

$$$$
DZRQDSNQAZRNGI-UHFFFAOYSA-N-P8-P8-P48-601530
     RDKit          3D

 28 30  0  0  0  0  0  0  0  0999 V2000
   -4.7869    9.4952  -20.3910 C   0  0  0  0  0  0  0  0  0  0  0  0
   -4.9800    8.0818  -20.3511 O   0  0  0  0  0  0  0  0  0  0  0  0
   -3.9011    7.3697  -20.8015 C   0  0  0  0  0  0  0  0  0  0  0  0
   -2.9085    7.9006  -21.2908 O   0  0  0  0  0  0  0  0  0  0  0  0
   -4.1093    5.8339  -20.6882 C   0  0  2  0  0  0  0  0  0  0  0  0
   -2.8019    5.1957  -20.1994 C   0  0  0  0  0  0  0  0  0  0  0  0
   -4.5623    5.2636  -22.0560 C   0  0  0  0  0  0  0  0  0  0  0  0
   -3.7786    5.6546  -23.2819 C   0  0  0  0  0  0  0  0  0  0  0  0
   -4.2673    6.6461  -24.1494 C   0  0  0  0  0  0  0  0  0  0  0  0
   -3.5433    7.0109  -25.2853 C   0  0  0  0  0  0  0  0  0  0  0  0
   -2.3290    6.3917  -25.5525 C   0  0  0  0  0  0  0  0  0  0  0  0
   -1.6336    6.7434  -26.6421 F   0  0  0  0  0  0  0  0  0  0  0  0
   -1.8273    5.4106  -24.7079 C   0  0  0  0  0  0  0  0  0  0  0  0
   -2.5541    5.0376  -23.5769 C   0  0  0  0  0  0  0  0  0  0  0  0
   -5.1652    5.5300  -19.7097 N   0  0  0  0  0  0  0  0  0  0  0  0
   -5.2357    5.8036  -18.2001 C   0  0  0  0  0  0  0  0  0  0  0  0
   -4.5028    6.3821  -17.5020 O   0  0  0  0  0  0  0  0  0  0  0  0
   -6.4598    5.2023  -17.5400 C   0  0  0  0  0  0  0  0  0  0  0  0
   -7.5409    4.5843  -18.1915 C   0  0  0  0  0  0  0  0  0  0  0  0
   -8.6332    4.0810  -17.4822 C   0  0  0  0  0  0  0  0  0  0  0  0
   -8.6826    4.1639  -16.0899 C   0  0  0  0  0  0  0  0  0  0  0  0
   -7.6349    4.7910  -15.3939 C   0  0  0  0  0  0  0  0  0  0  0  0
   -7.3829    5.0826  -14.0155 C   0  0  0  0  0  0  0  0  0  0  0  0
   -8.1721    4.7160  -12.8545 C   0  0  0  0  0  0  0  0  0  0  0  0
   -7.9971    5.2074  -11.7427 O   0  0  0  0  0  0  0  0  0  0  0  0
   -6.2080    5.8083  -13.9651 C   0  0  0  0  0  0  0  0  0  0  0  0
   -5.7062    5.8887  -15.2305 N   0  0  0  0  0  0  0  0  0  0  0  0
   -6.5652    5.2953  -16.1333 C   0  0  0  0  0  0  0  0  0  0  0  0
  1  2  1  0
  2  3  1  0
  3  4  2  0
  3  5  1  0
  5  6  1  1
  5  7  1  0
  7  8  1  0
  8  9  2  0
  9 10  1  0
 10 11  2  0
 11 12  1  0
 11 13  1  0
 13 14  2  0
  5 15  1  0
 15 16  1  0
 16 17  2  0
 16 18  1  0
 18 19  2  0
 19 20  1  0
 20 21  2  0
 21 22  1  0
 22 23  1  0
 23 24  1  0
 24 25  2  0
 23 26  2  0
 26 27  1  0
 27 28  1  0
 14  8  1  0
 28 18  1  0
 28 22  2  0
M  END
>  <energy_score>  (4572) 
-9.060078

>  <alias>  (4572) 
DZRQDSNQAZRNGI-UHFFFAOYSA-N-P8-P8-P48-601530

>  <HIPPO Pose ID>  (4572) 
84857

>  <smiles>  (4572) 
COC(=O)C(C)(Cc1ccc(F)cc1)NC(=O)c1cccc2c(C=O)c[nH]c12

>  <inchikey>  (4572) 
DZRQDSNQAZRNGI-UHFFFAOYSA-N

>  <distance_score>  (4572) 
0.703299

>  <ref_mols>  (4572) 
Z0101a,Z0827a

>  <ref_pdb>  (4572) 
Z0089a

>  <HIPPO Compound ID>  (4572) 
145877

>  <name>  (4572) 
DZRQDSNQAZRNGI-UHFFFAOYSA-N-P8-P8-P48-601530

>  <inspiration_score>  (4572) 
None

$$$$
YXCMJSDOLBFYQJ-UHFFFAOYSA-N-P8-P8-P48-601530
     RDKit          3D

 28 30  0  0  0  0  0  0  0  0999 V2000
   -4.8775    9.4074  -20.0130 C   0  0  0  0  0  0  0  0  0  0  0  0
   -5.0248    7.9891  -20.0835 O   0  0  0  0  0  0  0  0  0  0  0  0
   -4.0403    7.3730  -20.8118 C   0  0  0  0  0  0  0  0  0  0  0  0
   -3.1794    7.9967  -21.4236 O   0  0  0  0  0  0  0  0  0  0  0  0
   -4.1603    5.8246  -20.7864 C   0  0  2  0  0  0  0  0  0  0  0  0
   -2.7895    5.2543  -20.3863 C   0  0  0  0  0  0  0  0  0  0  0  0
   -4.6228    5.2841  -22.1592 C   0  0  0  0  0  0  0  0  0  0  0  0
   -3.8585    5.7132  -23.3862 C   0  0  0  0  0  0  0  0  0  0  0  0
   -2.6326    5.1143  -23.7164 C   0  0  0  0  0  0  0  0  0  0  0  0
   -1.9297    5.5184  -24.8520 C   0  0  0  0  0  0  0  0  0  0  0  0
   -2.4558    6.5119  -25.6666 C   0  0  0  0  0  0  0  0  0  0  0  0
   -1.7831    6.8937  -26.7603 F   0  0  0  0  0  0  0  0  0  0  0  0
   -3.6713    7.1125  -25.3657 C   0  0  0  0  0  0  0  0  0  0  0  0
   -4.3722    6.7163  -24.2257 C   0  0  0  0  0  0  0  0  0  0  0  0
   -5.1629    5.4181  -19.7855 N   0  0  0  0  0  0  0  0  0  0  0  0
   -5.0342    5.2180  -18.2686 C   0  0  0  0  0  0  0  0  0  0  0  0
   -4.0972    5.2673  -17.5767 O   0  0  0  0  0  0  0  0  0  0  0  0
   -6.3440    4.9343  -17.5898 C   0  0  0  0  0  0  0  0  0  0  0  0
   -7.4848    4.3961  -18.1996 C   0  0  0  0  0  0  0  0  0  0  0  0
   -8.6243    4.0936  -17.4493 C   0  0  0  0  0  0  0  0  0  0  0  0
   -8.6525    4.2974  -16.0633 C   0  0  0  0  0  0  0  0  0  0  0  0
   -7.5356    4.8626  -15.4209 C   0  0  0  0  0  0  0  0  0  0  0  0
   -7.2018    5.2090  -14.0790 C   0  0  0  0  0  0  0  0  0  0  0  0
   -7.9573    5.0291  -12.8838 C   0  0  0  0  0  0  0  0  0  0  0  0
   -8.4818    4.9537  -11.8523 N   0  0  0  0  0  0  0  0  0  0  0  0
   -5.9401    5.7654  -14.0814 C   0  0  0  0  0  0  0  0  0  0  0  0
   -5.4660    5.6987  -15.3582 N   0  0  0  0  0  0  0  0  0  0  0  0
   -6.4228    5.1720  -16.2021 C   0  0  0  0  0  0  0  0  0  0  0  0
  1  2  1  0
  2  3  1  0
  3  4  2  0
  3  5  1  0
  5  6  1  1
  5  7  1  0
  7  8  1  0
  8  9  2  0
  9 10  1  0
 10 11  2  0
 11 12  1  0
 11 13  1  0
 13 14  2  0
  5 15  1  0
 15 16  1  0
 16 17  2  0
 16 18  1  0
 18 19  2  0
 19 20  1  0
 20 21  2  0
 21 22  1  0
 22 23  1  0
 23 24  1  0
 24 25  3  0
 23 26  2  0
 26 27  1  0
 27 28  1  0
 14  8  1  0
 28 18  1  0
 28 22  2  0
M  END
>  <energy_score>  (4573) 
-14.978505

>  <alias>  (4573) 
YXCMJSDOLBFYQJ-UHFFFAOYSA-N-P8-P8-P48-601530

>  <HIPPO Pose ID>  (4573) 
84859

>  <smiles>  (4573) 
COC(=O)C(C)(Cc1ccc(F)cc1)NC(=O)c1cccc2c(C#N)c[nH]c12

>  <inchikey>  (4573) 
YXCMJSDOLBFYQJ-UHFFFAOYSA-N

>  <distance_score>  (4573) 
0.745368

>  <ref_mols>  (4573) 
Z0101a,Z0827a

>  <ref_pdb>  (4573) 
Z0089a

>  <HIPPO Compound ID>  (4573) 
145878

>  <name>  (4573) 
YXCMJSDOLBFYQJ-UHFFFAOYSA-N-P8-P8-P48-601530

>  <inspiration_score>  (4573) 
None

$$$$
AGNHHOWCPJCURN-UHFFFAOYSA-N-P8-P8-P48-601530
     RDKit          3D

 28 30  0  0  0  0  0  0  0  0999 V2000
   -2.7329    9.1874  -21.1274 C   0  0  0  0  0  0  0  0  0  0  0  0
   -2.8260    7.7748  -20.9514 O   0  0  0  0  0  0  0  0  0  0  0  0
   -4.0839    7.3158  -20.6908 C   0  0  0  0  0  0  0  0  0  0  0  0
   -5.0695    8.0466  -20.6046 O   0  0  0  0  0  0  0  0  0  0  0  0
   -4.1244    5.7695  -20.5830 C   0  0  2  0  0  0  0  0  0  0  0  0
   -2.7787    5.1957  -20.1150 C   0  0  0  0  0  0  0  0  0  0  0  0
   -4.5496    5.1448  -21.9355 C   0  0  0  0  0  0  0  0  0  0  0  0
   -3.8895    5.6867  -23.1784 C   0  0  0  0  0  0  0  0  0  0  0  0
   -4.5239    6.6836  -23.9383 C   0  0  0  0  0  0  0  0  0  0  0  0
   -3.9143    7.1903  -25.0862 C   0  0  0  0  0  0  0  0  0  0  0  0
   -2.6707    6.7060  -25.4722 C   0  0  0  0  0  0  0  0  0  0  0  0
   -2.0840    7.1961  -26.5721 F   0  0  0  0  0  0  0  0  0  0  0  0
   -2.0263    5.7217  -24.7339 C   0  0  0  0  0  0  0  0  0  0  0  0
   -2.6359    5.2091  -23.5887 C   0  0  0  0  0  0  0  0  0  0  0  0
   -5.1783    5.4873  -19.5917 N   0  0  0  0  0  0  0  0  0  0  0  0
   -5.0796    4.9483  -18.1508 C   0  0  0  0  0  0  0  0  0  0  0  0
   -4.1445    4.7148  -17.4931 O   0  0  0  0  0  0  0  0  0  0  0  0
   -6.4281    4.7569  -17.5401 C   0  0  0  0  0  0  0  0  0  0  0  0
   -7.5473    4.3111  -18.2658 C   0  0  0  0  0  0  0  0  0  0  0  0
   -8.7704    4.0939  -17.6409 C   0  0  0  0  0  0  0  0  0  0  0  0
   -8.9102    4.3417  -16.2761 C   0  0  0  0  0  0  0  0  0  0  0  0
   -7.8272    4.8349  -15.5276 C   0  0  0  0  0  0  0  0  0  0  0  0
   -7.6623    5.2610  -14.1795 C   0  0  0  0  0  0  0  0  0  0  0  0
   -8.7038    5.4209  -13.1578 C   0  0  0  0  0  0  0  0  0  0  0  0
   -6.3194    5.4663  -13.9684 C   0  0  0  0  0  0  0  0  0  0  0  0
   -5.6275    5.7659  -12.6910 C   0  0  0  0  0  0  0  0  0  0  0  0
   -5.6905    5.3509  -15.1859 N   0  0  0  0  0  0  0  0  0  0  0  0
   -6.5988    4.9878  -16.1618 C   0  0  0  0  0  0  0  0  0  0  0  0
  1  2  1  0
  2  3  1  0
  3  4  2  0
  3  5  1  0
  5  6  1  1
  5  7  1  0
  7  8  1  0
  8  9  2  0
  9 10  1  0
 10 11  2  0
 11 12  1  0
 11 13  1  0
 13 14  2  0
  5 15  1  0
 15 16  1  0
 16 17  2  0
 16 18  1  0
 18 19  2  0
 19 20  1  0
 20 21  2  0
 21 22  1  0
 22 23  1  0
 23 24  1  0
 23 25  2  0
 25 26  1  0
 25 27  1  0
 27 28  1  0
 14  8  1  0
 28 18  1  0
 28 22  2  0
M  END
>  <energy_score>  (4574) 
-19.540999

>  <alias>  (4574) 
AGNHHOWCPJCURN-UHFFFAOYSA-N-P8-P8-P48-601530

>  <HIPPO Pose ID>  (4574) 
84861

>  <smiles>  (4574) 
COC(=O)C(C)(Cc1ccc(F)cc1)NC(=O)c1cccc2c(C)c(C)[nH]c12

>  <inchikey>  (4574) 
AGNHHOWCPJCURN-UHFFFAOYSA-N

>  <distance_score>  (4574) 
1.268619

>  <ref_mols>  (4574) 
Z0101a,Z0827a

>  <ref_pdb>  (4574) 
Z0089a

>  <HIPPO Compound ID>  (4574) 
145879

>  <name>  (4574) 
AGNHHOWCPJCURN-UHFFFAOYSA-N-P8-P8-P48-601530

>  <inspiration_score>  (4574) 
None

$$$$
KVIGAVQUYDBNNO-UHFFFAOYSA-N-P8-P8-P48-601530
     RDKit          3D

 28 30  0  0  0  0  0  0  0  0999 V2000
   -4.8463    9.3126  -19.9002 C   0  0  0  0  0  0  0  0  0  0  0  0
   -4.9854    7.8933  -19.9561 O   0  0  0  0  0  0  0  0  0  0  0  0
   -3.9602    7.2702  -20.6191 C   0  0  0  0  0  0  0  0  0  0  0  0
   -3.0630    7.8875  -21.1845 O   0  0  0  0  0  0  0  0  0  0  0  0
   -4.0876    5.7226  -20.5997 C   0  0  2  0  0  0  0  0  0  0  0  0
   -2.7247    5.1331  -20.2137 C   0  0  0  0  0  0  0  0  0  0  0  0
   -4.5678    5.2032  -21.9798 C   0  0  0  0  0  0  0  0  0  0  0  0
   -3.8492    5.6747  -23.2181 C   0  0  0  0  0  0  0  0  0  0  0  0
   -2.6211    5.1101  -23.5943 C   0  0  0  0  0  0  0  0  0  0  0  0
   -1.9610    5.5514  -24.7415 C   0  0  0  0  0  0  0  0  0  0  0  0
   -2.5322    6.5490  -25.5204 C   0  0  0  0  0  0  0  0  0  0  0  0
   -1.9001    6.9670  -26.6250 F   0  0  0  0  0  0  0  0  0  0  0  0
   -3.7513    7.1163  -25.1726 C   0  0  0  0  0  0  0  0  0  0  0  0
   -4.4096    6.6822  -24.0213 C   0  0  0  0  0  0  0  0  0  0  0  0
   -5.0941    5.3147  -19.6051 N   0  0  0  0  0  0  0  0  0  0  0  0
   -5.0080    5.2333  -18.0718 C   0  0  0  0  0  0  0  0  0  0  0  0
   -4.1033    5.4023  -17.3553 O   0  0  0  0  0  0  0  0  0  0  0  0
   -6.3213    4.9055  -17.4308 C   0  0  0  0  0  0  0  0  0  0  0  0
   -7.4259    4.3753  -18.1039 C   0  0  0  0  0  0  0  0  0  0  0  0
   -7.3288    4.0842  -19.4098 F   0  0  0  0  0  0  0  0  0  0  0  0
   -8.6264    4.1258  -17.4463 C   0  0  0  0  0  0  0  0  0  0  0  0
  -10.0221    3.6537  -18.3318 Cl  0  0  0  0  0  0  0  0  0  0  0  0
   -8.7456    4.3242  -16.0707 C   0  0  0  0  0  0  0  0  0  0  0  0
   -7.6702    4.8827  -15.3649 C   0  0  0  0  0  0  0  0  0  0  0  0
   -7.4815    5.2883  -14.0155 C   0  0  0  0  0  0  0  0  0  0  0  0
   -6.2155    5.8174  -13.9127 C   0  0  0  0  0  0  0  0  0  0  0  0
   -5.6165    5.7077  -15.1389 N   0  0  0  0  0  0  0  0  0  0  0  0
   -6.4929    5.1628  -16.0549 C   0  0  0  0  0  0  0  0  0  0  0  0
  1  2  1  0
  2  3  1  0
  3  4  2  0
  3  5  1  0
  5  6  1  1
  5  7  1  0
  7  8  1  0
  8  9  2  0
  9 10  1  0
 10 11  2  0
 11 12  1  0
 11 13  1  0
 13 14  2  0
  5 15  1  0
 15 16  1  0
 16 17  2  0
 16 18  1  0
 18 19  2  0
 19 20  1  0
 19 21  1  0
 21 22  1  0
 21 23  2  0
 23 24  1  0
 24 25  1  0
 25 26  2  0
 26 27  1  0
 27 28  1  0
 14  8  1  0
 28 18  1  0
 28 24  2  0
M  END
>  <energy_score>  (4575) 
-11.36887

>  <alias>  (4575) 
KVIGAVQUYDBNNO-UHFFFAOYSA-N-P8-P8-P48-601530

>  <HIPPO Pose ID>  (4575) 
84863

>  <smiles>  (4575) 
COC(=O)C(C)(Cc1ccc(F)cc1)NC(=O)c1c(F)c(Cl)cc2cc[nH]c12

>  <inchikey>  (4575) 
KVIGAVQUYDBNNO-UHFFFAOYSA-N

>  <distance_score>  (4575) 
0.69241

>  <ref_mols>  (4575) 
Z0101a,Z0827a

>  <ref_pdb>  (4575) 
Z0089a

>  <HIPPO Compound ID>  (4575) 
145880

>  <name>  (4575) 
KVIGAVQUYDBNNO-UHFFFAOYSA-N-P8-P8-P48-601530

>  <inspiration_score>  (4575) 
None

$$$$
XCJMRSJFVSOEHR-UHFFFAOYSA-N-P8-P8-P48-601530
     RDKit          3D

 28 32  0  0  0  0  0  0  0  0999 V2000
   -4.2897    5.1289  -17.7842 O   0  0  0  0  0  0  0  0  0  0  0  0
   -5.2383    5.1276  -18.4665 C   0  0  0  0  0  0  0  0  0  0  0  0
   -5.3898    5.4455  -19.9728 N   0  0  0  0  0  0  0  0  0  0  0  0
   -4.3936    5.9374  -20.9607 C   0  0  0  0  0  0  0  0  0  0  0  0
   -3.9608    7.3334  -20.5181 C   0  0  0  0  0  0  0  0  0  0  0  0
   -3.2283    8.1297  -21.5685 C   0  0  0  0  0  0  0  0  0  0  0  0
   -1.8335    8.0568  -21.6901 C   0  0  0  0  0  0  0  0  0  0  0  0
   -1.1756    8.7999  -22.6723 C   0  0  0  0  0  0  0  0  0  0  0  0
   -1.9088    9.6168  -23.5273 C   0  0  0  0  0  0  0  0  0  0  0  0
   -1.2711   10.3276  -24.4663 F   0  0  0  0  0  0  0  0  0  0  0  0
   -3.2888    9.7088  -23.4223 C   0  0  0  0  0  0  0  0  0  0  0  0
   -3.9364    8.9664  -22.4434 C   0  0  0  0  0  0  0  0  0  0  0  0
   -5.2720    9.0511  -22.3457 F   0  0  0  0  0  0  0  0  0  0  0  0
   -3.2906    4.8833  -21.2529 C   0  0  0  0  0  0  0  0  0  0  0  0
   -4.0416    4.3999  -22.4121 O   0  0  0  0  0  0  0  0  0  0  0  0
   -4.7838    5.6447  -22.4317 C   0  0  0  0  0  0  0  0  0  0  0  0
   -6.5527    4.8281  -17.7954 C   0  0  0  0  0  0  0  0  0  0  0  0
   -7.6838    4.3115  -18.4497 C   0  0  0  0  0  0  0  0  0  0  0  0
   -8.8646    4.0309  -17.7600 C   0  0  0  0  0  0  0  0  0  0  0  0
   -8.9527    4.2468  -16.3843 C   0  0  0  0  0  0  0  0  0  0  0  0
   -7.8559    4.7783  -15.6921 C   0  0  0  0  0  0  0  0  0  0  0  0
   -7.6043    5.1378  -14.3594 C   0  0  0  0  0  0  0  0  0  0  0  0
   -6.2981    5.5045  -14.2585 C   0  0  0  0  0  0  0  0  0  0  0  0
   -5.7182    5.4647  -15.4804 N   0  0  0  0  0  0  0  0  0  0  0  0
   -6.6707    5.0355  -16.4024 C   0  0  0  0  0  0  0  0  0  0  0  0
   -5.8383    5.8167  -12.8961 C   0  0  0  0  0  0  0  0  0  0  0  0
   -7.2007    5.9077  -12.1535 C   0  0  0  0  0  0  0  0  0  0  0  0
   -8.2674    5.1880  -13.0475 C   0  0  0  0  0  0  0  0  0  0  0  0
  1  2  2  0
  2  3  1  0
  3  4  1  0
  4  5  1  0
  5  6  1  0
  6  7  2  0
  7  8  1  0
  8  9  2  0
  9 10  1  0
  9 11  1  0
 11 12  2  0
 12 13  1  0
  4 14  1  0
 14 15  1  0
 15 16  1  0
  2 17  1  0
 17 18  2  0
 18 19  1  0
 19 20  2  0
 20 21  1  0
 21 22  1  0
 22 23  2  0
 23 24  1  0
 24 25  1  0
 23 26  1  0
 26 27  1  0
 27 28  1  0
 16  4  1  0
 25 17  1  0
 12  6  1  0
 25 21  2  0
 28 22  1  0
M  END
>  <energy_score>  (4576) 
-39.609424

>  <alias>  (4576) 
XCJMRSJFVSOEHR-UHFFFAOYSA-N-P8-P8-P48-601530

>  <HIPPO Pose ID>  (4576) 
84867

>  <smiles>  (4576) 
O=C(NC1(Cc2ccc(F)cc2F)COC1)c1cccc2c3c([nH]c12)CCC3

>  <inchikey>  (4576) 
XCJMRSJFVSOEHR-UHFFFAOYSA-N

>  <distance_score>  (4576) 
1.166648

>  <ref_mols>  (4576) 
Z0101a,Z0827a

>  <ref_pdb>  (4576) 
Z0089a

>  <HIPPO Compound ID>  (4576) 
145882

>  <name>  (4576) 
XCJMRSJFVSOEHR-UHFFFAOYSA-N-P8-P8-P48-601530

>  <inspiration_score>  (4576) 
None

$$$$
QSZWWCYUPYIBOT-UHFFFAOYSA-N-P8-P8-P48-601530
     RDKit          3D

 28 31  0  0  0  0  0  0  0  0999 V2000
   -6.3844    4.9872  -11.3426 C   0  0  0  0  0  0  0  0  0  0  0  0
   -6.1802    5.9559  -12.4925 C   0  0  0  0  0  0  0  0  0  0  0  0
   -6.7240    5.4589  -13.7894 C   0  0  0  0  0  0  0  0  0  0  0  0
   -7.9474    4.8927  -14.0472 C   0  0  0  0  0  0  0  0  0  0  0  0
   -8.0209    4.6416  -15.4328 C   0  0  0  0  0  0  0  0  0  0  0  0
   -9.0409    4.1250  -16.2277 C   0  0  0  0  0  0  0  0  0  0  0  0
   -8.8649    4.0660  -17.5952 C   0  0  0  0  0  0  0  0  0  0  0  0
  -10.2048    3.6542  -18.5618 Cl  0  0  0  0  0  0  0  0  0  0  0  0
   -7.6604    4.4112  -18.1852 C   0  0  0  0  0  0  0  0  0  0  0  0
   -6.6069    4.9496  -17.4257 C   0  0  0  0  0  0  0  0  0  0  0  0
   -5.3131    5.3958  -18.0543 C   0  0  0  0  0  0  0  0  0  0  0  0
   -4.3700    5.4677  -17.3674 O   0  0  0  0  0  0  0  0  0  0  0  0
   -5.4764    5.6822  -19.5721 N   0  0  0  0  0  0  0  0  0  0  0  0
   -4.4694    6.0315  -20.5971 C   0  0  0  0  0  0  0  0  0  0  0  0
   -4.1283    7.5146  -20.4610 C   0  0  0  0  0  0  0  0  0  0  0  0
   -3.4501    8.1257  -21.6636 C   0  0  0  0  0  0  0  0  0  0  0  0
   -2.0569    8.0758  -21.8152 C   0  0  0  0  0  0  0  0  0  0  0  0
   -1.4506    8.6396  -22.9399 C   0  0  0  0  0  0  0  0  0  0  0  0
   -2.2331    9.2581  -23.9091 C   0  0  0  0  0  0  0  0  0  0  0  0
   -1.6454    9.7992  -24.9841 F   0  0  0  0  0  0  0  0  0  0  0  0
   -3.6117    9.3280  -23.7778 C   0  0  0  0  0  0  0  0  0  0  0  0
   -4.2072    8.7637  -22.6568 C   0  0  0  0  0  0  0  0  0  0  0  0
   -5.5413    8.8357  -22.5327 F   0  0  0  0  0  0  0  0  0  0  0  0
   -3.2780    5.0493  -20.7059 C   0  0  0  0  0  0  0  0  0  0  0  0
   -3.5612    4.8058  -22.1147 O   0  0  0  0  0  0  0  0  0  0  0  0
   -4.8560    5.4234  -21.9747 C   0  0  0  0  0  0  0  0  0  0  0  0
   -6.8264    5.0501  -16.0284 C   0  0  0  0  0  0  0  0  0  0  0  0
   -6.0355    5.5152  -14.9916 N   0  0  0  0  0  0  0  0  0  0  0  0
  1  2  1  0
  2  3  1  0
  3  4  2  0
  4  5  1  0
  5  6  2  0
  6  7  1  0
  7  8  1  0
  7  9  2  0
  9 10  1  0
 10 11  1  0
 11 12  2  0
 11 13  1  0
 13 14  1  0
 14 15  1  0
 15 16  1  0
 16 17  2  0
 17 18  1  0
 18 19  2  0
 19 20  1  0
 19 21  1  0
 21 22  2  0
 22 23  1  0
 14 24  1  0
 24 25  1  0
 25 26  1  0
 10 27  2  0
 27 28  1  0
 28  3  1  0
 27  5  1  0
 26 14  1  0
 22 16  1  0
M  END
>  <energy_score>  (4577) 
-32.277048

>  <alias>  (4577) 
QSZWWCYUPYIBOT-UHFFFAOYSA-N-P8-P8-P48-601530

>  <HIPPO Pose ID>  (4577) 
84871

>  <smiles>  (4577) 
CCc1cc2cc(Cl)cc(C(=O)NC3(Cc4ccc(F)cc4F)COC3)c2[nH]1

>  <inchikey>  (4577) 
QSZWWCYUPYIBOT-UHFFFAOYSA-N

>  <distance_score>  (4577) 
1.234081

>  <ref_mols>  (4577) 
Z0101a,Z0827a

>  <ref_pdb>  (4577) 
Z0089a

>  <HIPPO Compound ID>  (4577) 
145884

>  <name>  (4577) 
QSZWWCYUPYIBOT-UHFFFAOYSA-N-P8-P8-P48-601530

>  <inspiration_score>  (4577) 
None

$$$$
CSVZMMGQPGIBDX-UHFFFAOYSA-N-P8-P8-P48-601530
     RDKit          3D

 28 31  0  0  0  0  0  0  0  0999 V2000
   -5.8958    5.6456  -13.0780 C   0  0  0  0  0  0  0  0  0  0  0  0
   -6.3429    5.3832  -14.4773 C   0  0  0  0  0  0  0  0  0  0  0  0
   -5.5003    5.3479  -15.5650 N   0  0  0  0  0  0  0  0  0  0  0  0
   -6.1971    4.9882  -16.6989 C   0  0  0  0  0  0  0  0  0  0  0  0
   -5.7825    4.8285  -18.0304 C   0  0  0  0  0  0  0  0  0  0  0  0
   -4.4485    5.1703  -18.5607 C   0  0  0  0  0  0  0  0  0  0  0  0
   -3.4765    4.8687  -17.9891 O   0  0  0  0  0  0  0  0  0  0  0  0
   -4.6320    5.8436  -19.9488 N   0  0  0  0  0  0  0  0  0  0  0  0
   -3.6445    6.2006  -20.9710 C   0  0  0  0  0  0  0  0  0  0  0  0
   -2.9665    7.5284  -20.6975 C   0  0  0  0  0  0  0  0  0  0  0  0
   -2.1973    7.5313  -19.4000 C   0  0  0  0  0  0  0  0  0  0  0  0
   -0.9683    6.8631  -19.2854 C   0  0  0  0  0  0  0  0  0  0  0  0
   -0.2893    6.8478  -18.0652 C   0  0  0  0  0  0  0  0  0  0  0  0
   -0.8329    7.5022  -16.9647 C   0  0  0  0  0  0  0  0  0  0  0  0
   -0.1753    7.4867  -15.7976 F   0  0  0  0  0  0  0  0  0  0  0  0
   -2.0425    8.1747  -17.0559 C   0  0  0  0  0  0  0  0  0  0  0  0
   -2.7158    8.1812  -18.2710 C   0  0  0  0  0  0  0  0  0  0  0  0
   -3.8920    8.8233  -18.3507 F   0  0  0  0  0  0  0  0  0  0  0  0
   -2.8492    4.9840  -21.5044 C   0  0  0  0  0  0  0  0  0  0  0  0
   -3.8418    4.7742  -22.5642 O   0  0  0  0  0  0  0  0  0  0  0  0
   -4.2791    6.1446  -22.3912 C   0  0  0  0  0  0  0  0  0  0  0  0
   -6.6780    4.2910  -18.9588 C   0  0  0  0  0  0  0  0  0  0  0  0
   -7.9846    4.0774  -18.6382 C   0  0  0  0  0  0  0  0  0  0  0  0
   -8.4183    4.3234  -17.3461 C   0  0  0  0  0  0  0  0  0  0  0  0
  -10.2479    4.0319  -17.2251 Br  0  0  0  0  0  0  0  0  0  0  0  0
   -7.5341    4.7690  -16.3249 C   0  0  0  0  0  0  0  0  0  0  0  0
   -7.6211    5.1370  -14.9372 C   0  0  0  0  0  0  0  0  0  0  0  0
   -8.8127    5.2190  -14.0786 C   0  0  0  0  0  0  0  0  0  0  0  0
  1  2  1  0
  2  3  1  0
  3  4  1  0
  4  5  2  0
  5  6  1  0
  6  7  2  0
  6  8  1  0
  8  9  1  0
  9 10  1  0
 10 11  1  0
 11 12  2  0
 12 13  1  0
 13 14  2  0
 14 15  1  0
 14 16  1  0
 16 17  2  0
 17 18  1  0
  9 19  1  0
 19 20  1  0
 20 21  1  0
  5 22  1  0
 22 23  2  0
 23 24  1  0
 24 25  1  0
 24 26  2  0
 26 27  1  0
 27 28  1  0
 27  2  2  0
 26  4  1  0
 21  9  1  0
 17 11  1  0
M  END
>  <energy_score>  (4578) 
-18.986819

>  <alias>  (4578) 
CSVZMMGQPGIBDX-UHFFFAOYSA-N-P8-P8-P48-601530

>  <HIPPO Pose ID>  (4578) 
84877

>  <smiles>  (4578) 
Cc1[nH]c2c(C(=O)NC3(Cc4ccc(F)cc4F)COC3)ccc(Br)c2c1C

>  <inchikey>  (4578) 
CSVZMMGQPGIBDX-UHFFFAOYSA-N

>  <distance_score>  (4578) 
1.633495

>  <ref_mols>  (4578) 
Z0101a,Z0827a

>  <ref_pdb>  (4578) 
Z0089a

>  <HIPPO Compound ID>  (4578) 
145887

>  <name>  (4578) 
CSVZMMGQPGIBDX-UHFFFAOYSA-N-P8-P8-P48-601530

>  <inspiration_score>  (4578) 
None

$$$$
JACGMNOJMMBRFC-UHFFFAOYSA-N-P8-P8-P48-601530
     RDKit          3D

 29 32  0  0  0  0  0  0  0  0999 V2000
   -4.8914    9.3370  -19.8483 C   0  0  0  0  0  0  0  0  0  0  0  0
   -5.0514    7.9226  -19.9563 O   0  0  0  0  0  0  0  0  0  0  0  0
   -4.0553    7.3131  -20.6739 C   0  0  0  0  0  0  0  0  0  0  0  0
   -3.1736    7.9415  -21.2505 O   0  0  0  0  0  0  0  0  0  0  0  0
   -4.1879    5.7661  -20.6830 C   0  0  2  0  0  0  0  0  0  0  0  0
   -2.8332    5.1814  -20.2550 C   0  0  0  0  0  0  0  0  0  0  0  0
   -4.6179    5.2606  -22.0823 C   0  0  0  0  0  0  0  0  0  0  0  0
   -3.8056    5.6788  -23.2813 C   0  0  0  0  0  0  0  0  0  0  0  0
   -2.5937    5.0400  -23.5849 C   0  0  0  0  0  0  0  0  0  0  0  0
   -1.8441    5.4314  -24.6946 C   0  0  0  0  0  0  0  0  0  0  0  0
   -2.3110    6.4523  -25.5113 C   0  0  0  0  0  0  0  0  0  0  0  0
   -1.5938    6.8228  -26.5804 F   0  0  0  0  0  0  0  0  0  0  0  0
   -3.5128    7.0923  -25.2372 C   0  0  0  0  0  0  0  0  0  0  0  0
   -4.2595    6.7085  -24.1223 C   0  0  0  0  0  0  0  0  0  0  0  0
   -5.2373    5.3494  -19.7339 N   0  0  0  0  0  0  0  0  0  0  0  0
   -5.1512    5.0022  -18.2371 C   0  0  0  0  0  0  0  0  0  0  0  0
   -4.2251    4.9153  -17.5330 O   0  0  0  0  0  0  0  0  0  0  0  0
   -6.5009    4.7832  -17.6224 C   0  0  0  0  0  0  0  0  0  0  0  0
   -7.6264    4.3106  -18.3187 C   0  0  0  0  0  0  0  0  0  0  0  0
   -8.8306    4.0569  -17.6629 C   0  0  0  0  0  0  0  0  0  0  0  0
   -8.9469    4.2702  -16.2882 C   0  0  0  0  0  0  0  0  0  0  0  0
   -7.8619    4.7846  -15.5648 C   0  0  0  0  0  0  0  0  0  0  0  0
   -7.6349    5.1441  -14.2281 C   0  0  0  0  0  0  0  0  0  0  0  0
   -6.3224    5.4774  -14.0937 C   0  0  0  0  0  0  0  0  0  0  0  0
   -5.7134    5.4206  -15.2989 N   0  0  0  0  0  0  0  0  0  0  0  0
   -6.6525    5.0083  -16.2400 C   0  0  0  0  0  0  0  0  0  0  0  0
   -5.8880    5.7787  -12.7211 C   0  0  0  0  0  0  0  0  0  0  0  0
   -7.2650    5.9098  -12.0145 C   0  0  0  0  0  0  0  0  0  0  0  0
   -8.3281    5.2168  -12.9333 C   0  0  0  0  0  0  0  0  0  0  0  0
  1  2  1  0
  2  3  1  0
  3  4  2  0
  3  5  1  0
  5  6  1  1
  5  7  1  0
  7  8  1  0
  8  9  2  0
  9 10  1  0
 10 11  2  0
 11 12  1  0
 11 13  1  0
 13 14  2  0
  5 15  1  0
 15 16  1  0
 16 17  2  0
 16 18  1  0
 18 19  2  0
 19 20  1  0
 20 21  2  0
 21 22  1  0
 22 23  1  0
 23 24  2  0
 24 25  1  0
 25 26  1  0
 24 27  1  0
 27 28  1  0
 28 29  1  0
 14  8  1  0
 26 18  1  0
 26 22  2  0
 29 23  1  0
M  END
>  <energy_score>  (4579) 
-28.720481

>  <alias>  (4579) 
JACGMNOJMMBRFC-UHFFFAOYSA-N-P8-P8-P48-601530

>  <HIPPO Pose ID>  (4579) 
84879

>  <smiles>  (4579) 
COC(=O)C(C)(Cc1ccc(F)cc1)NC(=O)c1cccc2c3c([nH]c12)CCC3

>  <inchikey>  (4579) 
JACGMNOJMMBRFC-UHFFFAOYSA-N

>  <distance_score>  (4579) 
1.124418

>  <ref_mols>  (4579) 
Z0101a,Z0827a

>  <ref_pdb>  (4579) 
Z0089a

>  <HIPPO Compound ID>  (4579) 
145888

>  <name>  (4579) 
JACGMNOJMMBRFC-UHFFFAOYSA-N-P8-P8-P48-601530

>  <inspiration_score>  (4579) 
None

$$$$
HUEBXJIZLLPOHQ-UHFFFAOYSA-N-P8-P8-P48-601530
     RDKit          3D

 29 31  0  0  0  0  0  0  0  0999 V2000
   -6.1194    5.5860  -11.4745 C   0  0  0  0  0  0  0  0  0  0  0  0
   -5.5974    6.1528  -12.7873 C   0  0  0  0  0  0  0  0  0  0  0  0
   -6.3501    5.6658  -13.9795 C   0  0  0  0  0  0  0  0  0  0  0  0
   -7.6286    5.1663  -14.1136 C   0  0  0  0  0  0  0  0  0  0  0  0
   -7.8244    4.8226  -15.4755 C   0  0  0  0  0  0  0  0  0  0  0  0
   -8.8976    4.2790  -16.1844 C   0  0  0  0  0  0  0  0  0  0  0  0
   -8.7919    4.1393  -17.5643 C   0  0  0  0  0  0  0  0  0  0  0  0
  -10.1874    3.6813  -18.4420 Cl  0  0  0  0  0  0  0  0  0  0  0  0
   -7.6123    4.4312  -18.2459 C   0  0  0  0  0  0  0  0  0  0  0  0
   -6.4981    4.9351  -17.5612 C   0  0  0  0  0  0  0  0  0  0  0  0
   -5.1720    5.2893  -18.1793 C   0  0  0  0  0  0  0  0  0  0  0  0
   -4.2824    5.3990  -17.4313 O   0  0  0  0  0  0  0  0  0  0  0  0
   -5.2275    5.5072  -19.7045 N   0  0  0  0  0  0  0  0  0  0  0  0
   -4.2043    6.0078  -20.6367 C   0  0  1  0  0  0  0  0  0  0  0  0
   -4.0800    7.5135  -20.3505 C   0  0  0  0  0  0  0  0  0  0  0  0
   -2.8751    5.2046  -20.4634 C   0  0  0  0  0  0  0  0  0  0  0  0
   -1.6333    6.0108  -20.1382 C   0  0  0  0  0  0  0  0  0  0  0  0
   -0.8548    6.5651  -21.1670 C   0  0  0  0  0  0  0  0  0  0  0  0
    0.2897    7.3043  -20.8660 C   0  0  0  0  0  0  0  0  0  0  0  0
    0.6543    7.4922  -19.5388 C   0  0  0  0  0  0  0  0  0  0  0  0
    1.7541    8.2006  -19.2502 F   0  0  0  0  0  0  0  0  0  0  0  0
   -0.1029    6.9544  -18.5057 C   0  0  0  0  0  0  0  0  0  0  0  0
   -1.2462    6.2133  -18.8049 C   0  0  0  0  0  0  0  0  0  0  0  0
   -4.6928    5.7554  -22.0854 C   0  0  0  0  0  0  0  0  0  0  0  0
   -5.1280    4.6816  -22.4906 O   0  0  0  0  0  0  0  0  0  0  0  0
   -4.5474    6.8656  -22.8656 O   0  0  0  0  0  0  0  0  0  0  0  0
   -4.9842    6.7347  -24.2178 C   0  0  0  0  0  0  0  0  0  0  0  0
   -6.6596    5.1342  -16.1678 C   0  0  0  0  0  0  0  0  0  0  0  0
   -5.7754    5.6297  -15.2291 N   0  0  0  0  0  0  0  0  0  0  0  0
  1  2  1  0
  2  3  1  0
  3  4  2  0
  4  5  1  0
  5  6  2  0
  6  7  1  0
  7  8  1  0
  7  9  2  0
  9 10  1  0
 10 11  1  0
 11 12  2  0
 11 13  1  0
 13 14  1  0
 14 15  1  6
 14 16  1  0
 16 17  1  0
 17 18  2  0
 18 19  1  0
 19 20  2  0
 20 21  1  0
 20 22  1  0
 22 23  2  0
 14 24  1  0
 24 25  2  0
 24 26  1  0
 26 27  1  0
 10 28  2  0
 28 29  1  0
 29  3  1  0
 28  5  1  0
 23 17  1  0
M  END
>  <energy_score>  (4580) 
-14.887831

>  <alias>  (4580) 
HUEBXJIZLLPOHQ-UHFFFAOYSA-N-P8-P8-P48-601530

>  <HIPPO Pose ID>  (4580) 
84881

>  <smiles>  (4580) 
CCc1cc2cc(Cl)cc(C(=O)NC(C)(Cc3ccc(F)cc3)C(=O)OC)c2[nH]1

>  <inchikey>  (4580) 
HUEBXJIZLLPOHQ-UHFFFAOYSA-N

>  <distance_score>  (4580) 
0.693042

>  <ref_mols>  (4580) 
Z0101a,Z0827a

>  <ref_pdb>  (4580) 
Z0089a

>  <HIPPO Compound ID>  (4580) 
145889

>  <name>  (4580) 
HUEBXJIZLLPOHQ-UHFFFAOYSA-N-P8-P8-P48-601530

>  <inspiration_score>  (4580) 
None

$$$$
JVXAIRBOHXHWEX-UHFFFAOYSA-N-P8-P8-P48-601530
     RDKit          3D

 29 31  0  0  0  0  0  0  0  0999 V2000
   -4.8453    9.3193  -20.5299 C   0  0  0  0  0  0  0  0  0  0  0  0
   -5.0128    7.9033  -20.4697 O   0  0  0  0  0  0  0  0  0  0  0  0
   -3.8597    7.2146  -20.7201 C   0  0  0  0  0  0  0  0  0  0  0  0
   -2.8273    7.7565  -21.1075 O   0  0  0  0  0  0  0  0  0  0  0  0
   -4.0234    5.6773  -20.5497 C   0  0  2  0  0  0  0  0  0  0  0  0
   -2.6881    5.1011  -20.0644 C   0  0  0  0  0  0  0  0  0  0  0  0
   -4.4681    5.0458  -21.8952 C   0  0  0  0  0  0  0  0  0  0  0  0
   -3.8953    5.6208  -23.1650 C   0  0  0  0  0  0  0  0  0  0  0  0
   -4.6329    6.5506  -23.9171 C   0  0  0  0  0  0  0  0  0  0  0  0
   -4.1037    7.0847  -25.0921 C   0  0  0  0  0  0  0  0  0  0  0  0
   -2.8373    6.6965  -25.5114 C   0  0  0  0  0  0  0  0  0  0  0  0
   -2.3298    7.2096  -26.6400 F   0  0  0  0  0  0  0  0  0  0  0  0
   -2.0901    5.7827  -24.7789 C   0  0  0  0  0  0  0  0  0  0  0  0
   -2.6184    5.2429  -23.6061 C   0  0  0  0  0  0  0  0  0  0  0  0
   -5.0412    5.3415  -19.5419 N   0  0  0  0  0  0  0  0  0  0  0  0
   -5.3311    5.9666  -18.1710 C   0  0  0  0  0  0  0  0  0  0  0  0
   -4.8621    6.8964  -17.6515 O   0  0  0  0  0  0  0  0  0  0  0  0
   -6.3903    5.2077  -17.4373 C   0  0  0  0  0  0  0  0  0  0  0  0
   -7.5310    4.7463  -18.1193 C   0  0  0  0  0  0  0  0  0  0  0  0
   -8.6079    4.1903  -17.4422 C   0  0  0  0  0  0  0  0  0  0  0  0
   -8.5896    4.1131  -16.0521 C   0  0  0  0  0  0  0  0  0  0  0  0
   -7.4572    4.5403  -15.3277 C   0  0  0  0  0  0  0  0  0  0  0  0
   -7.1657    4.6215  -13.9321 C   0  0  0  0  0  0  0  0  0  0  0  0
   -8.0074    4.2743  -12.8030 C   0  0  0  0  0  0  0  0  0  0  0  0
   -7.7454    4.5995  -11.6478 O   0  0  0  0  0  0  0  0  0  0  0  0
   -5.8869    5.1217  -13.8214 C   0  0  0  0  0  0  0  0  0  0  0  0
   -5.3779    5.3035  -15.0786 N   0  0  0  0  0  0  0  0  0  0  0  0
   -3.9862    5.6345  -15.3019 C   0  0  0  0  0  0  0  0  0  0  0  0
   -6.3512    5.0518  -16.0303 C   0  0  0  0  0  0  0  0  0  0  0  0
  1  2  1  0
  2  3  1  0
  3  4  2  0
  3  5  1  0
  5  6  1  1
  5  7  1  0
  7  8  1  0
  8  9  2  0
  9 10  1  0
 10 11  2  0
 11 12  1  0
 11 13  1  0
 13 14  2  0
  5 15  1  0
 15 16  1  0
 16 17  2  0
 16 18  1  0
 18 19  2  0
 19 20  1  0
 20 21  2  0
 21 22  1  0
 22 23  1  0
 23 24  1  0
 24 25  2  0
 23 26  2  0
 26 27  1  0
 27 28  1  0
 27 29  1  0
 14  8  1  0
 29 18  1  0
 29 22  2  0
M  END
>  <energy_score>  (4581) 
-20.065567

>  <alias>  (4581) 
JVXAIRBOHXHWEX-UHFFFAOYSA-N-P8-P8-P48-601530

>  <HIPPO Pose ID>  (4581) 
84885

>  <smiles>  (4581) 
COC(=O)C(C)(Cc1ccc(F)cc1)NC(=O)c1cccc2c(C=O)cn(C)c12

>  <inchikey>  (4581) 
JVXAIRBOHXHWEX-UHFFFAOYSA-N

>  <distance_score>  (4581) 
0.874909

>  <ref_mols>  (4581) 
Z0101a,Z0827a

>  <ref_pdb>  (4581) 
Z0089a

>  <HIPPO Compound ID>  (4581) 
145891

>  <name>  (4581) 
JVXAIRBOHXHWEX-UHFFFAOYSA-N-P8-P8-P48-601530

>  <inspiration_score>  (4581) 
None

$$$$
LCZHBEWDUSYCBU-UHFFFAOYSA-N-P8-P8-P48-601530
     RDKit          3D

 29 31  0  0  0  0  0  0  0  0999 V2000
   -2.6732    9.4455  -21.6849 C   0  0  0  0  0  0  0  0  0  0  0  0
   -2.7198    8.0329  -21.4911 O   0  0  0  0  0  0  0  0  0  0  0  0
   -3.9495    7.5471  -21.1585 C   0  0  0  0  0  0  0  0  0  0  0  0
   -4.9523    8.2484  -21.0335 O   0  0  0  0  0  0  0  0  0  0  0  0
   -3.9422    6.0050  -21.0225 C   0  0  2  0  0  0  0  0  0  0  0  0
   -2.5650    5.4412  -20.6444 C   0  0  0  0  0  0  0  0  0  0  0  0
   -4.4766    5.3496  -22.3149 C   0  0  0  0  0  0  0  0  0  0  0  0
   -3.8858    5.8585  -23.6059 C   0  0  0  0  0  0  0  0  0  0  0  0
   -2.6519    5.3773  -24.0710 C   0  0  0  0  0  0  0  0  0  0  0  0
   -2.1098    5.8610  -25.2620 C   0  0  0  0  0  0  0  0  0  0  0  0
   -2.8007    6.8205  -25.9911 C   0  0  0  0  0  0  0  0  0  0  0  0
   -2.2783    7.2823  -27.1347 F   0  0  0  0  0  0  0  0  0  0  0  0
   -4.0247    7.3079  -25.5514 C   0  0  0  0  0  0  0  0  0  0  0  0
   -4.5675    6.8299  -24.3585 C   0  0  0  0  0  0  0  0  0  0  0  0
   -4.8759    5.7026  -19.9377 N   0  0  0  0  0  0  0  0  0  0  0  0
   -4.6819    5.7386  -18.4166 C   0  0  0  0  0  0  0  0  0  0  0  0
   -3.7260    5.9402  -17.7816 O   0  0  0  0  0  0  0  0  0  0  0  0
   -5.9279    5.3817  -17.6690 C   0  0  0  0  0  0  0  0  0  0  0  0
   -7.0173    4.6895  -18.2214 C   0  0  0  0  0  0  0  0  0  0  0  0
   -8.0861    4.2972  -17.4314 C   0  0  0  0  0  0  0  0  0  0  0  0
   -8.0862    4.5574  -16.0552 C   0  0  0  0  0  0  0  0  0  0  0  0
   -9.1158    3.9282  -15.2067 C   0  0  0  0  0  0  0  0  0  0  0  0
   -7.0316    5.2786  -15.4685 C   0  0  0  0  0  0  0  0  0  0  0  0
   -6.7157    5.6919  -14.1371 C   0  0  0  0  0  0  0  0  0  0  0  0
   -7.4646    5.4786  -12.9342 C   0  0  0  0  0  0  0  0  0  0  0  0
   -8.0490    5.3659  -11.9376 N   0  0  0  0  0  0  0  0  0  0  0  0
   -5.5101    6.3561  -14.1884 C   0  0  0  0  0  0  0  0  0  0  0  0
   -5.0630    6.3059  -15.4814 N   0  0  0  0  0  0  0  0  0  0  0  0
   -5.9821    5.6697  -16.2900 C   0  0  0  0  0  0  0  0  0  0  0  0
  1  2  1  0
  2  3  1  0
  3  4  2  0
  3  5  1  0
  5  6  1  1
  5  7  1  0
  7  8  1  0
  8  9  2  0
  9 10  1  0
 10 11  2  0
 11 12  1  0
 11 13  1  0
 13 14  2  0
  5 15  1  0
 15 16  1  0
 16 17  2  0
 16 18  1  0
 18 19  2  0
 19 20  1  0
 20 21  2  0
 21 22  1  0
 21 23  1  0
 23 24  1  0
 24 25  1  0
 25 26  3  0
 24 27  2  0
 27 28  1  0
 28 29  1  0
 14  8  1  0
 29 18  1  0
 29 23  2  0
M  END
>  <energy_score>  (4582) 
-12.47679

>  <alias>  (4582) 
LCZHBEWDUSYCBU-UHFFFAOYSA-N-P8-P8-P48-601530

>  <HIPPO Pose ID>  (4582) 
84887

>  <smiles>  (4582) 
COC(=O)C(C)(Cc1ccc(F)cc1)NC(=O)c1ccc(C)c2c(C#N)c[nH]c12

>  <inchikey>  (4582) 
LCZHBEWDUSYCBU-UHFFFAOYSA-N

>  <distance_score>  (4582) 
1.088718

>  <ref_mols>  (4582) 
Z0101a,Z0827a

>  <ref_pdb>  (4582) 
Z0089a

>  <HIPPO Compound ID>  (4582) 
145892

>  <name>  (4582) 
LCZHBEWDUSYCBU-UHFFFAOYSA-N-P8-P8-P48-601530

>  <inspiration_score>  (4582) 
None

$$$$
VWGBZMNGSGRBAO-UHFFFAOYSA-N-P8-P8-P48-601530
     RDKit          3D

 29 31  0  0  0  0  0  0  0  0999 V2000
   -1.6440    9.2441  -21.6559 C   0  0  0  0  0  0  0  0  0  0  0  0
   -1.7729    7.8520  -21.3701 O   0  0  0  0  0  0  0  0  0  0  0  0
   -2.9502    7.5119  -20.7682 C   0  0  0  0  0  0  0  0  0  0  0  0
   -3.8361    8.3155  -20.4833 O   0  0  0  0  0  0  0  0  0  0  0  0
   -3.0528    5.9832  -20.5561 C   0  0  2  0  0  0  0  0  0  0  0  0
   -1.7801    5.4622  -19.8911 C   0  0  0  0  0  0  0  0  0  0  0  0
   -3.3022    5.2100  -21.8913 C   0  0  0  0  0  0  0  0  0  0  0  0
   -3.8302    5.9871  -23.0788 C   0  0  0  0  0  0  0  0  0  0  0  0
   -5.0873    6.5984  -23.0587 C   0  0  0  0  0  0  0  0  0  0  0  0
   -5.5400    7.3223  -24.1633 C   0  0  0  0  0  0  0  0  0  0  0  0
   -4.7383    7.4327  -25.2912 C   0  0  0  0  0  0  0  0  0  0  0  0
   -5.1729    8.1358  -26.3449 F   0  0  0  0  0  0  0  0  0  0  0  0
   -3.4881    6.8328  -25.3361 C   0  0  0  0  0  0  0  0  0  0  0  0
   -3.0339    6.1115  -24.2315 C   0  0  0  0  0  0  0  0  0  0  0  0
   -4.1968    5.7386  -19.6779 N   0  0  0  0  0  0  0  0  0  0  0  0
   -4.2525    5.2244  -18.2200 C   0  0  0  0  0  0  0  0  0  0  0  0
   -3.3923    4.9896  -17.4678 O   0  0  0  0  0  0  0  0  0  0  0  0
   -5.6543    4.9261  -17.8468 C   0  0  0  0  0  0  0  0  0  0  0  0
   -6.5184    4.4473  -18.8368 C   0  0  0  0  0  0  0  0  0  0  0  0
   -7.8359    4.1986  -18.5653 C   0  0  0  0  0  0  0  0  0  0  0  0
   -8.3230    4.3793  -17.2783 C   0  0  0  0  0  0  0  0  0  0  0  0
  -10.1458    4.0151  -17.1964 Br  0  0  0  0  0  0  0  0  0  0  0  0
   -7.4839    4.8106  -16.2167 C   0  0  0  0  0  0  0  0  0  0  0  0
   -7.6242    5.1519  -14.8269 C   0  0  0  0  0  0  0  0  0  0  0  0
   -8.8490    5.2373  -14.0210 C   0  0  0  0  0  0  0  0  0  0  0  0
   -6.3657    5.3783  -14.3078 C   0  0  0  0  0  0  0  0  0  0  0  0
   -5.9706    5.6159  -12.8895 C   0  0  0  0  0  0  0  0  0  0  0  0
   -5.4825    5.3570  -15.3598 N   0  0  0  0  0  0  0  0  0  0  0  0
   -6.1375    5.0414  -16.5320 C   0  0  0  0  0  0  0  0  0  0  0  0
  1  2  1  0
  2  3  1  0
  3  4  2  0
  3  5  1  0
  5  6  1  1
  5  7  1  0
  7  8  1  0
  8  9  2  0
  9 10  1  0
 10 11  2  0
 11 12  1  0
 11 13  1  0
 13 14  2  0
  5 15  1  0
 15 16  1  0
 16 17  2  0
 16 18  1  0
 18 19  2  0
 19 20  1  0
 20 21  2  0
 21 22  1  0
 21 23  1  0
 23 24  1  0
 24 25  1  0
 24 26  2  0
 26 27  1  0
 26 28  1  0
 28 29  1  0
 14  8  1  0
 29 18  1  0
 29 23  2  0
M  END
>  <energy_score>  (4583) 
-9.966888

>  <alias>  (4583) 
VWGBZMNGSGRBAO-UHFFFAOYSA-N-P8-P8-P48-601530

>  <HIPPO Pose ID>  (4583) 
84889

>  <smiles>  (4583) 
COC(=O)C(C)(Cc1ccc(F)cc1)NC(=O)c1ccc(Br)c2c(C)c(C)[nH]c12

>  <inchikey>  (4583) 
VWGBZMNGSGRBAO-UHFFFAOYSA-N

>  <distance_score>  (4583) 
1.803699

>  <ref_mols>  (4583) 
Z0101a,Z0827a

>  <ref_pdb>  (4583) 
Z0089a

>  <HIPPO Compound ID>  (4583) 
145893

>  <name>  (4583) 
VWGBZMNGSGRBAO-UHFFFAOYSA-N-P8-P8-P48-601530

>  <inspiration_score>  (4583) 
None

$$$$
AMIYWLWIULQINH-UHFFFAOYSA-N-P8-P8-P48-601530
     RDKit          3D

 30 33  0  0  0  0  0  0  0  0999 V2000
   -4.8293    9.4839  -20.1014 C   0  0  0  0  0  0  0  0  0  0  0  0
   -5.0078    8.0678  -20.1181 O   0  0  0  0  0  0  0  0  0  0  0  0
   -3.9979    7.3945  -20.7547 C   0  0  0  0  0  0  0  0  0  0  0  0
   -3.0788    7.9676  -21.3308 O   0  0  0  0  0  0  0  0  0  0  0  0
   -4.1782    5.8527  -20.6932 C   0  0  2  0  0  0  0  0  0  0  0  0
   -2.8362    5.2470  -20.2511 C   0  0  0  0  0  0  0  0  0  0  0  0
   -4.6303    5.3006  -22.0675 C   0  0  0  0  0  0  0  0  0  0  0  0
   -3.8238    5.6713  -23.2864 C   0  0  0  0  0  0  0  0  0  0  0  0
   -4.2750    6.6788  -24.1558 C   0  0  0  0  0  0  0  0  0  0  0  0
   -3.5306    7.0251  -25.2845 C   0  0  0  0  0  0  0  0  0  0  0  0
   -2.3330    6.3711  -25.5435 C   0  0  0  0  0  0  0  0  0  0  0  0
   -1.6177    6.7057  -26.6255 F   0  0  0  0  0  0  0  0  0  0  0  0
   -1.8685    5.3725  -24.6983 C   0  0  0  0  0  0  0  0  0  0  0  0
   -2.6167    5.0170  -23.5755 C   0  0  0  0  0  0  0  0  0  0  0  0
   -5.2304    5.5230  -19.7106 N   0  0  0  0  0  0  0  0  0  0  0  0
   -5.1218    5.0404  -18.2532 C   0  0  0  0  0  0  0  0  0  0  0  0
   -4.1861    4.8996  -17.5712 O   0  0  0  0  0  0  0  0  0  0  0  0
   -6.4609    4.8036  -17.6257 C   0  0  0  0  0  0  0  0  0  0  0  0
   -7.5983    4.3416  -18.3071 C   0  0  0  0  0  0  0  0  0  0  0  0
   -8.7913    4.0910  -17.6292 C   0  0  0  0  0  0  0  0  0  0  0  0
   -8.8825    4.3059  -16.2513 C   0  0  0  0  0  0  0  0  0  0  0  0
   -7.7772    4.8051  -15.5427 C   0  0  0  0  0  0  0  0  0  0  0  0
   -7.5347    5.1645  -14.1893 C   0  0  0  0  0  0  0  0  0  0  0  0
   -6.1982    5.4628  -14.0716 C   0  0  0  0  0  0  0  0  0  0  0  0
   -5.6371    5.3992  -15.3137 N   0  0  0  0  0  0  0  0  0  0  0  0
   -6.5884    5.0137  -16.2392 C   0  0  0  0  0  0  0  0  0  0  0  0
   -5.4774    5.8025  -12.8166 C   0  0  0  0  0  0  0  0  0  0  0  0
   -6.3285    5.4202  -11.6008 C   0  0  0  0  0  0  0  0  0  0  0  0
   -7.7853    5.8529  -11.7964 C   0  0  0  0  0  0  0  0  0  0  0  0
   -8.4390    5.1774  -13.0164 C   0  0  0  0  0  0  0  0  0  0  0  0
  1  2  1  0
  2  3  1  0
  3  4  2  0
  3  5  1  0
  5  6  1  1
  5  7  1  0
  7  8  1  0
  8  9  2  0
  9 10  1  0
 10 11  2  0
 11 12  1  0
 11 13  1  0
 13 14  2  0
  5 15  1  0
 15 16  1  0
 16 17  2  0
 16 18  1  0
 18 19  2  0
 19 20  1  0
 20 21  2  0
 21 22  1  0
 22 23  1  0
 23 24  2  0
 24 25  1  0
 25 26  1  0
 24 27  1  0
 27 28  1  0
 28 29  1  0
 29 30  1  0
 14  8  1  0
 26 18  1  0
 26 22  2  0
 30 23  1  0
M  END
>  <energy_score>  (4584) 
-21.846454

>  <alias>  (4584) 
AMIYWLWIULQINH-UHFFFAOYSA-N-P8-P8-P48-601530

>  <HIPPO Pose ID>  (4584) 
84893

>  <smiles>  (4584) 
COC(=O)C(C)(Cc1ccc(F)cc1)NC(=O)c1cccc2c3c([nH]c12)CCCC3

>  <inchikey>  (4584) 
AMIYWLWIULQINH-UHFFFAOYSA-N

>  <distance_score>  (4584) 
1.214068

>  <ref_mols>  (4584) 
Z0101a,Z0827a

>  <ref_pdb>  (4584) 
Z0089a

>  <HIPPO Compound ID>  (4584) 
145895

>  <name>  (4584) 
AMIYWLWIULQINH-UHFFFAOYSA-N-P8-P8-P48-601530

>  <inspiration_score>  (4584) 
None

$$$$
INYWNEVOOHYGLT-UHFFFAOYSA-N-P8-P8-P48-601530
     RDKit          3D

 30 33  0  0  0  0  0  0  0  0999 V2000
   -6.8334    7.9134  -12.2637 C   0  0  0  0  0  0  0  0  0  0  0  0
   -6.2051    6.7884  -11.4537 C   0  0  0  0  0  0  0  0  0  0  0  0
   -6.3264    5.5834  -12.2060 O   0  0  0  0  0  0  0  0  0  0  0  0
   -5.4828    5.5444  -13.2709 C   0  0  0  0  0  0  0  0  0  0  0  0
   -4.3125    5.9007  -13.2569 O   0  0  0  0  0  0  0  0  0  0  0  0
   -6.2087    5.1168  -14.4307 C   0  0  0  0  0  0  0  0  0  0  0  0
   -7.5276    4.7233  -14.5719 C   0  0  0  0  0  0  0  0  0  0  0  0
   -7.7790    4.5157  -15.9511 C   0  0  0  0  0  0  0  0  0  0  0  0
   -8.9095    4.1241  -16.6841 C   0  0  0  0  0  0  0  0  0  0  0  0
   -8.8120    4.0035  -18.0705 C   0  0  0  0  0  0  0  0  0  0  0  0
   -7.6054    4.2635  -18.7236 C   0  0  0  0  0  0  0  0  0  0  0  0
   -6.4704    4.7014  -18.0306 C   0  0  0  0  0  0  0  0  0  0  0  0
   -5.1504    5.0412  -18.6608 C   0  0  0  0  0  0  0  0  0  0  0  0
   -4.2037    4.9468  -17.9840 O   0  0  0  0  0  0  0  0  0  0  0  0
   -5.2991    5.5646  -20.1054 N   0  0  0  0  0  0  0  0  0  0  0  0
   -4.2761    6.0035  -21.0773 C   0  0  0  0  0  0  0  0  0  0  0  0
   -3.4365    7.1593  -20.5489 C   0  0  0  0  0  0  0  0  0  0  0  0
   -4.2544    8.3716  -20.1736 C   0  0  0  0  0  0  0  0  0  0  0  0
   -4.6202    8.5962  -18.8367 C   0  0  0  0  0  0  0  0  0  0  0  0
   -5.3432    9.7366  -18.4858 C   0  0  0  0  0  0  0  0  0  0  0  0
   -5.7016   10.6508  -19.4703 C   0  0  0  0  0  0  0  0  0  0  0  0
   -6.4238   11.7271  -19.1349 F   0  0  0  0  0  0  0  0  0  0  0  0
   -5.3470   10.4524  -20.7969 C   0  0  0  0  0  0  0  0  0  0  0  0
   -4.6296    9.3124  -21.1380 C   0  0  0  0  0  0  0  0  0  0  0  0
   -4.2962    9.1229  -22.4217 F   0  0  0  0  0  0  0  0  0  0  0  0
   -3.3989    4.8386  -21.5989 C   0  0  0  0  0  0  0  0  0  0  0  0
   -4.2959    4.6695  -22.7441 O   0  0  0  0  0  0  0  0  0  0  0  0
   -4.7447    6.0394  -22.5474 C   0  0  0  0  0  0  0  0  0  0  0  0
   -6.5970    4.7907  -16.6332 C   0  0  0  0  0  0  0  0  0  0  0  0
   -5.6551    5.1132  -15.6846 N   0  0  0  0  0  0  0  0  0  0  0  0
  1  2  1  0
  2  3  1  0
  3  4  1  0
  4  5  2  0
  4  6  1  0
  6  7  2  0
  7  8  1  0
  8  9  2  0
  9 10  1  0
 10 11  2  0
 11 12  1  0
 12 13  1  0
 13 14  2  0
 13 15  1  0
 15 16  1  0
 16 17  1  0
 17 18  1  0
 18 19  2  0
 19 20  1  0
 20 21  2  0
 21 22  1  0
 21 23  1  0
 23 24  2  0
 24 25  1  0
 16 26  1  0
 26 27  1  0
 27 28  1  0
 12 29  2  0
 29 30  1  0
 30  6  1  0
 29  8  1  0
 28 16  1  0
 24 18  1  0
M  END
>  <energy_score>  (4585) 
-36.161452

>  <alias>  (4585) 
INYWNEVOOHYGLT-UHFFFAOYSA-N-P8-P8-P48-601530

>  <HIPPO Pose ID>  (4585) 
84897

>  <smiles>  (4585) 
CCOC(=O)c1cc2cccc(C(=O)NC3(Cc4ccc(F)cc4F)COC3)c2[nH]1

>  <inchikey>  (4585) 
INYWNEVOOHYGLT-UHFFFAOYSA-N

>  <distance_score>  (4585) 
1.289964

>  <ref_mols>  (4585) 
Z0101a,Z0827a

>  <ref_pdb>  (4585) 
Z0089a

>  <HIPPO Compound ID>  (4585) 
145897

>  <name>  (4585) 
INYWNEVOOHYGLT-UHFFFAOYSA-N-P8-P8-P48-601530

>  <inspiration_score>  (4585) 
None

$$$$
FRSDMJUZNVFIDR-UHFFFAOYSA-N-P8-P8-P48-601530
     RDKit          3D

 31 34  0  0  0  0  0  0  0  0999 V2000
   -2.8455    9.1723  -21.0417 C   0  0  0  0  0  0  0  0  0  0  0  0
   -2.8879    7.7485  -20.9659 O   0  0  0  0  0  0  0  0  0  0  0  0
   -4.1179    7.2301  -20.6842 C   0  0  0  0  0  0  0  0  0  0  0  0
   -5.1211    7.9185  -20.5053 O   0  0  0  0  0  0  0  0  0  0  0  0
   -4.1042    5.6803  -20.6824 C   0  0  2  0  0  0  0  0  0  0  0  0
   -2.7358    5.1274  -20.2596 C   0  0  0  0  0  0  0  0  0  0  0  0
   -4.5284    5.1276  -22.0633 C   0  0  0  0  0  0  0  0  0  0  0  0
   -3.8913    5.7522  -23.2784 C   0  0  0  0  0  0  0  0  0  0  0  0
   -2.6300    5.3275  -23.7231 C   0  0  0  0  0  0  0  0  0  0  0  0
   -2.0455    5.9116  -24.8469 C   0  0  0  0  0  0  0  0  0  0  0  0
   -2.7217    6.9153  -25.5287 C   0  0  0  0  0  0  0  0  0  0  0  0
   -2.1588    7.4746  -26.6078 F   0  0  0  0  0  0  0  0  0  0  0  0
   -3.9728    7.3482  -25.1075 C   0  0  0  0  0  0  0  0  0  0  0  0
   -4.5582    6.7692  -23.9815 C   0  0  0  0  0  0  0  0  0  0  0  0
   -5.1335    5.2837  -19.7107 N   0  0  0  0  0  0  0  0  0  0  0  0
   -5.0073    4.8643  -18.2352 C   0  0  0  0  0  0  0  0  0  0  0  0
   -4.0601    4.6919  -17.5764 O   0  0  0  0  0  0  0  0  0  0  0  0
   -6.3463    4.6975  -17.5905 C   0  0  0  0  0  0  0  0  0  0  0  0
   -7.5021    4.2950  -18.2786 C   0  0  0  0  0  0  0  0  0  0  0  0
   -8.7090    4.1131  -17.6099 C   0  0  0  0  0  0  0  0  0  0  0  0
   -8.7973    4.3525  -16.2368 C   0  0  0  0  0  0  0  0  0  0  0  0
   -7.6700    4.7943  -15.5218 C   0  0  0  0  0  0  0  0  0  0  0  0
   -7.4355    5.1997  -14.1721 C   0  0  0  0  0  0  0  0  0  0  0  0
   -6.0728    5.3648  -14.0274 C   0  0  0  0  0  0  0  0  0  0  0  0
   -5.5097    5.2478  -15.2732 N   0  0  0  0  0  0  0  0  0  0  0  0
   -6.4659    4.9163  -16.2063 C   0  0  0  0  0  0  0  0  0  0  0  0
   -5.2566    5.6446  -12.8084 C   0  0  0  0  0  0  0  0  0  0  0  0
   -5.8678    5.0565  -11.5394 C   0  0  0  0  0  0  0  0  0  0  0  0
   -7.0478    5.8569  -10.9919 C   0  0  0  0  0  0  0  0  0  0  0  0
   -8.0198    6.4009  -12.0371 C   0  0  0  0  0  0  0  0  0  0  0  0
   -8.4453    5.3828  -13.0967 C   0  0  0  0  0  0  0  0  0  0  0  0
  1  2  1  0
  2  3  1  0
  3  4  2  0
  3  5  1  0
  5  6  1  1
  5  7  1  0
  7  8  1  0
  8  9  2  0
  9 10  1  0
 10 11  2  0
 11 12  1  0
 11 13  1  0
 13 14  2  0
  5 15  1  0
 15 16  1  0
 16 17  2  0
 16 18  1  0
 18 19  2  0
 19 20  1  0
 20 21  2  0
 21 22  1  0
 22 23  1  0
 23 24  2  0
 24 25  1  0
 25 26  1  0
 24 27  1  0
 27 28  1  0
 28 29  1  0
 29 30  1  0
 30 31  1  0
 14  8  1  0
 26 18  1  0
 26 22  2  0
 31 23  1  0
M  END
>  <energy_score>  (4586) 
-32.484331

>  <alias>  (4586) 
FRSDMJUZNVFIDR-UHFFFAOYSA-N-P8-P8-P48-601530

>  <HIPPO Pose ID>  (4586) 
84901

>  <smiles>  (4586) 
COC(=O)C(C)(Cc1ccc(F)cc1)NC(=O)c1cccc2c3c([nH]c12)CCCCC3

>  <inchikey>  (4586) 
FRSDMJUZNVFIDR-UHFFFAOYSA-N

>  <distance_score>  (4586) 
1.269877

>  <ref_mols>  (4586) 
Z0101a,Z0827a

>  <ref_pdb>  (4586) 
Z0089a

>  <HIPPO Compound ID>  (4586) 
145899

>  <name>  (4586) 
FRSDMJUZNVFIDR-UHFFFAOYSA-N-P8-P8-P48-601530

>  <inspiration_score>  (4586) 
None

$$$$
YSOOFNMTJHRRDL-UHFFFAOYSA-N-P8-P8-P48-601530
     RDKit          3D

 31 33  0  0  0  0  0  0  0  0999 V2000
   -7.8060    3.9223  -11.6390 C   0  0  0  0  0  0  0  0  0  0  0  0
   -7.8041    5.4360  -11.5857 C   0  0  0  0  0  0  0  0  0  0  0  0
   -6.5288    5.9879  -11.9608 O   0  0  0  0  0  0  0  0  0  0  0  0
   -5.9646    6.0904  -13.1972 C   0  0  0  0  0  0  0  0  0  0  0  0
   -4.8550    6.6079  -13.3028 O   0  0  0  0  0  0  0  0  0  0  0  0
   -6.6731    5.5917  -14.3612 C   0  0  0  0  0  0  0  0  0  0  0  0
   -7.9477    5.1229  -14.6272 C   0  0  0  0  0  0  0  0  0  0  0  0
   -8.0264    4.7199  -15.9837 C   0  0  0  0  0  0  0  0  0  0  0  0
   -9.0485    4.1599  -16.7651 C   0  0  0  0  0  0  0  0  0  0  0  0
   -8.8242    3.9366  -18.1203 C   0  0  0  0  0  0  0  0  0  0  0  0
   -7.5866    4.2335  -18.6882 C   0  0  0  0  0  0  0  0  0  0  0  0
   -6.5471    4.8048  -17.9397 C   0  0  0  0  0  0  0  0  0  0  0  0
   -5.2170    5.2054  -18.5027 C   0  0  0  0  0  0  0  0  0  0  0  0
   -4.3267    5.2912  -17.7543 O   0  0  0  0  0  0  0  0  0  0  0  0
   -5.2937    5.5371  -20.0045 N   0  0  0  0  0  0  0  0  0  0  0  0
   -4.3018    6.1446  -20.8982 C   0  0  1  0  0  0  0  0  0  0  0  0
   -4.1746    7.6149  -20.4806 C   0  0  0  0  0  0  0  0  0  0  0  0
   -2.9389    5.4057  -20.7975 C   0  0  0  0  0  0  0  0  0  0  0  0
   -1.8242    6.0658  -21.5916 C   0  0  0  0  0  0  0  0  0  0  0  0
   -0.9238    6.9352  -20.9536 C   0  0  0  0  0  0  0  0  0  0  0  0
    0.0895    7.5608  -21.6803 C   0  0  0  0  0  0  0  0  0  0  0  0
    0.2080    7.3140  -23.0422 C   0  0  0  0  0  0  0  0  0  0  0  0
    1.1789    7.9189  -23.7397 F   0  0  0  0  0  0  0  0  0  0  0  0
   -0.6639    6.4494  -23.6917 C   0  0  0  0  0  0  0  0  0  0  0  0
   -1.6785    5.8226  -22.9674 C   0  0  0  0  0  0  0  0  0  0  0  0
   -4.8318    5.9681  -22.3382 C   0  0  0  0  0  0  0  0  0  0  0  0
   -5.1198    4.8806  -22.8315 O   0  0  0  0  0  0  0  0  0  0  0  0
   -4.9368    7.1556  -23.0010 O   0  0  0  0  0  0  0  0  0  0  0  0
   -5.3453    7.0473  -24.3648 C   0  0  0  0  0  0  0  0  0  0  0  0
   -6.8069    5.0173  -16.5730 C   0  0  0  0  0  0  0  0  0  0  0  0
   -6.0060    5.5225  -15.5754 N   0  0  0  0  0  0  0  0  0  0  0  0
  1  2  1  0
  2  3  1  0
  3  4  1  0
  4  5  2  0
  4  6  1  0
  6  7  2  0
  7  8  1  0
  8  9  2  0
  9 10  1  0
 10 11  2  0
 11 12  1  0
 12 13  1  0
 13 14  2  0
 13 15  1  0
 15 16  1  0
 16 17  1  1
 16 18  1  0
 18 19  1  0
 19 20  2  0
 20 21  1  0
 21 22  2  0
 22 23  1  0
 22 24  1  0
 24 25  2  0
 16 26  1  0
 26 27  2  0
 26 28  1  0
 28 29  1  0
 12 30  2  0
 30 31  1  0
 31  6  1  0
 30  8  1  0
 25 19  1  0
M  END
>  <energy_score>  (4587) 
-8.988788

>  <alias>  (4587) 
YSOOFNMTJHRRDL-UHFFFAOYSA-N-P8-P8-P48-601530

>  <HIPPO Pose ID>  (4587) 
84903

>  <smiles>  (4587) 
CCOC(=O)c1cc2cccc(C(=O)NC(C)(Cc3ccc(F)cc3)C(=O)OC)c2[nH]1

>  <inchikey>  (4587) 
YSOOFNMTJHRRDL-UHFFFAOYSA-N

>  <distance_score>  (4587) 
0.853129

>  <ref_mols>  (4587) 
Z0101a,Z0827a

>  <ref_pdb>  (4587) 
Z0089a

>  <HIPPO Compound ID>  (4587) 
145900

>  <name>  (4587) 
YSOOFNMTJHRRDL-UHFFFAOYSA-N-P8-P8-P48-601530

>  <inspiration_score>  (4587) 
None

$$$$
WRZWTHSRQGLLKN-UHFFFAOYSA-N-P8-P8-P48-601530
     RDKit          3D

 31 34  0  0  0  0  0  0  0  0999 V2000
   -4.8896    9.3225  -19.8455 C   0  0  0  0  0  0  0  0  0  0  0  0
   -5.0466    7.9084  -19.9626 O   0  0  0  0  0  0  0  0  0  0  0  0
   -4.0563    7.3072  -20.6950 C   0  0  0  0  0  0  0  0  0  0  0  0
   -3.1843    7.9423  -21.2788 O   0  0  0  0  0  0  0  0  0  0  0  0
   -4.1812    5.7593  -20.7085 C   0  0  2  0  0  0  0  0  0  0  0  0
   -2.8202    5.1831  -20.2887 C   0  0  0  0  0  0  0  0  0  0  0  0
   -4.6151    5.2536  -22.1053 C   0  0  0  0  0  0  0  0  0  0  0  0
   -3.8159    5.6859  -23.3081 C   0  0  0  0  0  0  0  0  0  0  0  0
   -2.5970    5.0648  -23.6212 C   0  0  0  0  0  0  0  0  0  0  0  0
   -1.8610    5.4688  -24.7355 C   0  0  0  0  0  0  0  0  0  0  0  0
   -2.3478    6.4849  -25.5467 C   0  0  0  0  0  0  0  0  0  0  0  0
   -1.6435    6.8672  -26.6202 F   0  0  0  0  0  0  0  0  0  0  0  0
   -3.5562    7.1078  -25.2627 C   0  0  0  0  0  0  0  0  0  0  0  0
   -4.2897    6.7114  -24.1434 C   0  0  0  0  0  0  0  0  0  0  0  0
   -5.2235    5.3367  -19.7543 N   0  0  0  0  0  0  0  0  0  0  0  0
   -5.1186    4.9326  -18.2736 C   0  0  0  0  0  0  0  0  0  0  0  0
   -4.1822    4.7948  -17.5921 O   0  0  0  0  0  0  0  0  0  0  0  0
   -6.4618    4.7488  -17.6377 C   0  0  0  0  0  0  0  0  0  0  0  0
   -7.6107    4.3082  -18.3150 C   0  0  0  0  0  0  0  0  0  0  0  0
   -8.8069    4.0860  -17.6344 C   0  0  0  0  0  0  0  0  0  0  0  0
   -8.8893    4.3105  -16.2581 C   0  0  0  0  0  0  0  0  0  0  0  0
   -7.7749    4.7974  -15.5554 C   0  0  0  0  0  0  0  0  0  0  0  0
   -7.5266    5.1639  -14.2051 C   0  0  0  0  0  0  0  0  0  0  0  0
   -6.1851    5.4387  -14.0902 C   0  0  0  0  0  0  0  0  0  0  0  0
   -5.6256    5.3564  -15.3324 N   0  0  0  0  0  0  0  0  0  0  0  0
   -6.5829    4.9782  -16.2542 C   0  0  0  0  0  0  0  0  0  0  0  0
   -5.4569    5.7801  -12.8407 C   0  0  0  0  0  0  0  0  0  0  0  0
   -6.3262    5.4627  -11.6186 C   0  0  0  0  0  0  0  0  0  0  0  0
   -7.7944    5.8939  -11.8072 C   0  0  1  0  0  0  0  0  0  0  0  0
   -7.9345    7.4185  -11.8889 C   0  0  0  0  0  0  0  0  0  0  0  0
   -8.4371    5.2032  -13.0356 C   0  0  0  0  0  0  0  0  0  0  0  0
  1  2  1  0
  2  3  1  0
  3  4  2  0
  3  5  1  0
  5  6  1  1
  5  7  1  0
  7  8  1  0
  8  9  2  0
  9 10  1  0
 10 11  2  0
 11 12  1  0
 11 13  1  0
 13 14  2  0
  5 15  1  0
 15 16  1  0
 16 17  2  0
 16 18  1  0
 18 19  2  0
 19 20  1  0
 20 21  2  0
 21 22  1  0
 22 23  1  0
 23 24  2  0
 24 25  1  0
 25 26  1  0
 24 27  1  0
 27 28  1  0
 28 29  1  0
 29 30  1  6
 29 31  1  0
 14  8  1  0
 26 18  1  0
 26 22  2  0
 31 23  1  0
M  END
>  <energy_score>  (4588) 
-34.094371

>  <alias>  (4588) 
WRZWTHSRQGLLKN-UHFFFAOYSA-N-P8-P8-P48-601530

>  <HIPPO Pose ID>  (4588) 
84905

>  <smiles>  (4588) 
COC(=O)C(C)(Cc1ccc(F)cc1)NC(=O)c1cccc2c3c([nH]c12)CCC(C)C3

>  <inchikey>  (4588) 
WRZWTHSRQGLLKN-UHFFFAOYSA-N

>  <distance_score>  (4588) 
1.214842

>  <ref_mols>  (4588) 
Z0101a,Z0827a

>  <ref_pdb>  (4588) 
Z0089a

>  <HIPPO Compound ID>  (4588) 
145901

>  <name>  (4588) 
WRZWTHSRQGLLKN-UHFFFAOYSA-N-P8-P8-P48-601530

>  <inspiration_score>  (4588) 
None

$$$$
XIXYJAYOJFELHL-UHFFFAOYSA-N-P8-P8-P48-601530
     RDKit          3D

 32 36  0  0  0  0  0  0  0  0999 V2000
   -4.0442    4.4562  -18.0923 O   0  0  0  0  0  0  0  0  0  0  0  0
   -5.0404    4.9037  -18.4986 C   0  0  0  0  0  0  0  0  0  0  0  0
   -5.3338    5.6655  -19.8095 N   0  0  0  0  0  0  0  0  0  0  0  0
   -4.4604    5.9595  -20.9650 C   0  0  0  0  0  0  0  0  0  0  0  0
   -4.1329    7.4531  -20.9490 C   0  0  0  0  0  0  0  0  0  0  0  0
   -3.6302    8.0114  -22.2593 C   0  0  0  0  0  0  0  0  0  0  0  0
   -2.2662    7.9825  -22.5846 C   0  0  0  0  0  0  0  0  0  0  0  0
   -1.8225    8.4953  -23.8054 C   0  0  0  0  0  0  0  0  0  0  0  0
   -2.7383    9.0411  -24.6985 C   0  0  0  0  0  0  0  0  0  0  0  0
   -2.3060    9.5335  -25.8666 F   0  0  0  0  0  0  0  0  0  0  0  0
   -4.0907    9.0882  -24.3968 C   0  0  0  0  0  0  0  0  0  0  0  0
   -4.5239    8.5758  -23.1805 C   0  0  0  0  0  0  0  0  0  0  0  0
   -5.8324    8.6283  -22.8912 F   0  0  0  0  0  0  0  0  0  0  0  0
   -3.2534    5.0065  -21.1710 C   0  0  0  0  0  0  0  0  0  0  0  0
   -3.6589    4.7633  -22.5549 O   0  0  0  0  0  0  0  0  0  0  0  0
   -4.9782    5.2661  -22.2482 C   0  0  0  0  0  0  0  0  0  0  0  0
   -6.2886    4.7526  -17.6865 C   0  0  0  0  0  0  0  0  0  0  0  0
   -7.4623    4.3278  -18.3483 C   0  0  0  0  0  0  0  0  0  0  0  0
   -8.6472    4.0878  -17.6689 C   0  0  0  0  0  0  0  0  0  0  0  0
   -8.6854    4.2247  -16.2880 C   0  0  0  0  0  0  0  0  0  0  0  0
   -7.5392    4.6394  -15.5830 C   0  0  0  0  0  0  0  0  0  0  0  0
   -7.3091    4.8255  -14.1973 C   0  0  0  0  0  0  0  0  0  0  0  0
   -6.0148    5.2440  -14.0512 C   0  0  0  0  0  0  0  0  0  0  0  0
   -5.4383    5.3306  -15.3031 N   0  0  0  0  0  0  0  0  0  0  0  0
   -4.0611    5.7951  -15.4615 C   0  0  0  0  0  0  0  0  0  0  0  0
   -3.9575    7.1904  -16.0333 C   0  0  0  0  0  0  0  0  0  0  0  0
   -3.0355    7.4585  -17.0551 C   0  0  0  0  0  0  0  0  0  0  0  0
   -2.8702    8.7562  -17.5439 C   0  0  0  0  0  0  0  0  0  0  0  0
   -3.6248    9.8031  -17.0203 C   0  0  0  0  0  0  0  0  0  0  0  0
   -4.5370    9.5554  -15.9980 C   0  0  0  0  0  0  0  0  0  0  0  0
   -4.6953    8.2600  -15.5011 C   0  0  0  0  0  0  0  0  0  0  0  0
   -6.3437    4.9209  -16.2763 C   0  0  0  0  0  0  0  0  0  0  0  0
  1  2  2  0
  2  3  1  0
  3  4  1  0
  4  5  1  0
  5  6  1  0
  6  7  2  0
  7  8  1  0
  8  9  2  0
  9 10  1  0
  9 11  1  0
 11 12  2  0
 12 13  1  0
  4 14  1  0
 14 15  1  0
 15 16  1  0
  2 17  1  0
 17 18  2  0
 18 19  1  0
 19 20  2  0
 20 21  1  0
 21 22  1  0
 22 23  2  0
 23 24  1  0
 24 25  1  0
 25 26  1  0
 26 27  2  0
 27 28  1  0
 28 29  2  0
 29 30  1  0
 30 31  2  0
 24 32  1  0
 16  4  1  0
 32 17  1  0
 12  6  1  0
 32 21  2  0
 31 26  1  0
M  END
>  <energy_score>  (4589) 
-33.317261

>  <alias>  (4589) 
XIXYJAYOJFELHL-UHFFFAOYSA-N-P8-P8-P48-601530

>  <HIPPO Pose ID>  (4589) 
84907

>  <smiles>  (4589) 
O=C(NC1(Cc2ccc(F)cc2F)COC1)c1cccc2ccn(Cc3ccccc3)c12

>  <inchikey>  (4589) 
XIXYJAYOJFELHL-UHFFFAOYSA-N

>  <distance_score>  (4589) 
0.927725

>  <ref_mols>  (4589) 
Z0101a,Z0827a

>  <ref_pdb>  (4589) 
Z0089a

>  <HIPPO Compound ID>  (4589) 
145902

>  <name>  (4589) 
XIXYJAYOJFELHL-UHFFFAOYSA-N-P8-P8-P48-601530

>  <inspiration_score>  (4589) 
None

$$$$
IMKRJOBKGSTMOE-UHFFFAOYSA-N-P8-P8-P48-601530
     RDKit          3D

 33 36  0  0  0  0  0  0  0  0999 V2000
   -2.8289    9.1951  -21.3615 C   0  0  0  0  0  0  0  0  0  0  0  0
   -2.8715    7.7915  -21.1099 O   0  0  0  0  0  0  0  0  0  0  0  0
   -4.0901    7.3112  -20.7316 C   0  0  0  0  0  0  0  0  0  0  0  0
   -5.0766    8.0225  -20.5496 O   0  0  0  0  0  0  0  0  0  0  0  0
   -4.0936    5.7656  -20.6203 C   0  0  2  0  0  0  0  0  0  0  0  0
   -2.7226    5.2309  -20.1816 C   0  0  0  0  0  0  0  0  0  0  0  0
   -4.5349    5.1255  -21.9591 C   0  0  0  0  0  0  0  0  0  0  0  0
   -3.9343    5.6970  -23.2189 C   0  0  0  0  0  0  0  0  0  0  0  0
   -2.6680    5.2819  -23.6584 C   0  0  0  0  0  0  0  0  0  0  0  0
   -2.1125    5.8232  -24.8178 C   0  0  0  0  0  0  0  0  0  0  0  0
   -2.8228    6.7738  -25.5400 C   0  0  0  0  0  0  0  0  0  0  0  0
   -2.2873    7.2922  -26.6529 F   0  0  0  0  0  0  0  0  0  0  0  0
   -4.0797    7.1956  -25.1247 C   0  0  0  0  0  0  0  0  0  0  0  0
   -4.6360    6.6602  -23.9630 C   0  0  0  0  0  0  0  0  0  0  0  0
   -5.1199    5.4473  -19.6126 N   0  0  0  0  0  0  0  0  0  0  0  0
   -4.9933    4.7731  -18.2345 C   0  0  0  0  0  0  0  0  0  0  0  0
   -4.0699    4.2934  -17.7107 O   0  0  0  0  0  0  0  0  0  0  0  0
   -6.3093    4.7327  -17.5337 C   0  0  0  0  0  0  0  0  0  0  0  0
   -7.4466    4.3430  -18.2724 C   0  0  0  0  0  0  0  0  0  0  0  0
   -8.6661    4.0988  -17.6597 C   0  0  0  0  0  0  0  0  0  0  0  0
   -8.7698    4.1909  -16.2769 C   0  0  0  0  0  0  0  0  0  0  0  0
   -7.6644    4.5942  -15.5035 C   0  0  0  0  0  0  0  0  0  0  0  0
   -7.4867    4.7241  -14.1034 C   0  0  0  0  0  0  0  0  0  0  0  0
   -6.2107    5.1747  -13.8925 C   0  0  0  0  0  0  0  0  0  0  0  0
   -5.6087    5.3644  -15.1202 N   0  0  0  0  0  0  0  0  0  0  0  0
   -4.3236    6.0493  -15.2310 C   0  0  0  0  0  0  0  0  0  0  0  0
   -4.4925    7.5048  -15.6014 C   0  0  0  0  0  0  0  0  0  0  0  0
   -4.1341    7.9639  -16.8752 C   0  0  0  0  0  0  0  0  0  0  0  0
   -4.3048    9.3055  -17.2215 C   0  0  0  0  0  0  0  0  0  0  0  0
   -4.8230   10.2075  -16.2951 C   0  0  0  0  0  0  0  0  0  0  0  0
   -5.1731    9.7684  -15.0208 C   0  0  0  0  0  0  0  0  0  0  0  0
   -5.0103    8.4254  -14.6758 C   0  0  0  0  0  0  0  0  0  0  0  0
   -6.4455    4.9094  -16.1326 C   0  0  0  0  0  0  0  0  0  0  0  0
  1  2  1  0
  2  3  1  0
  3  4  2  0
  3  5  1  0
  5  6  1  1
  5  7  1  0
  7  8  1  0
  8  9  2  0
  9 10  1  0
 10 11  2  0
 11 12  1  0
 11 13  1  0
 13 14  2  0
  5 15  1  0
 15 16  1  0
 16 17  2  0
 16 18  1  0
 18 19  2  0
 19 20  1  0
 20 21  2  0
 21 22  1  0
 22 23  1  0
 23 24  2  0
 24 25  1  0
 25 26  1  0
 26 27  1  0
 27 28  2  0
 28 29  1  0
 29 30  2  0
 30 31  1  0
 31 32  2  0
 25 33  1  0
 14  8  1  0
 33 18  1  0
 33 22  2  0
 32 27  1  0
M  END
>  <energy_score>  (4590) 
-19.445071

>  <alias>  (4590) 
IMKRJOBKGSTMOE-UHFFFAOYSA-N-P8-P8-P48-601530

>  <HIPPO Pose ID>  (4590) 
84909

>  <smiles>  (4590) 
COC(=O)C(C)(Cc1ccc(F)cc1)NC(=O)c1cccc2ccn(Cc3ccccc3)c12

>  <inchikey>  (4590) 
IMKRJOBKGSTMOE-UHFFFAOYSA-N

>  <distance_score>  (4590) 
0.84829

>  <ref_mols>  (4590) 
Z0101a,Z0827a

>  <ref_pdb>  (4590) 
Z0089a

>  <HIPPO Compound ID>  (4590) 
145903

>  <name>  (4590) 
IMKRJOBKGSTMOE-UHFFFAOYSA-N-P8-P8-P48-601530

>  <inspiration_score>  (4590) 
None

$$$$
OGNFBPCOEUDHHR-UHFFFAOYSA-N-P8-P8-P268-601530
     RDKit          3D

 20 22  0  0  0  0  0  0  0  0999 V2000
   -8.7596    3.9225  -19.2259 C   0  0  0  0  0  0  0  0  0  0  0  0
   -7.6841    4.2668  -18.3389 N   0  0  0  0  0  0  0  0  0  0  0  0
   -6.4049    4.7053  -18.7073 C   0  0  0  0  0  0  0  0  0  0  0  0
   -5.9309    4.8116  -19.8280 O   0  0  0  0  0  0  0  0  0  0  0  0
   -5.7167    5.0425  -17.5102 N   0  0  0  0  0  0  0  0  0  0  0  0
   -4.6593    6.0334  -17.4028 C   0  0  0  0  0  0  0  0  0  0  0  0
   -3.2269    5.6418  -17.7897 C   0  0  0  0  0  0  0  0  0  0  0  0
   -2.2993    5.8622  -17.1209 O   0  0  0  0  0  0  0  0  0  0  0  0
   -3.3173    5.0423  -19.2013 N   0  0  0  0  0  0  0  0  0  0  0  0
   -2.2896    4.6772  -20.1213 C   0  0  0  0  0  0  0  0  0  0  0  0
   -2.6387    5.4867  -21.3261 C   0  0  1  0  0  0  0  0  0  0  0  0
   -2.6816    5.0135  -22.7461 C   0  0  0  0  0  0  0  0  0  0  0  0
   -3.9570    5.1668  -21.9869 C   0  0  2  0  0  0  0  0  0  0  0  0
   -4.7762    6.3305  -22.1569 O   0  0  0  0  0  0  0  0  0  0  0  0
   -6.5921    4.8120  -16.4425 C   0  0  0  0  0  0  0  0  0  0  0  0
   -6.3896    5.0122  -15.0937 C   0  0  0  0  0  0  0  0  0  0  0  0
   -7.4607    4.7569  -14.2483 C   0  0  0  0  0  0  0  0  0  0  0  0
   -8.6898    4.3297  -14.7706 C   0  0  0  0  0  0  0  0  0  0  0  0
   -8.8812    4.1252  -16.1391 C   0  0  0  0  0  0  0  0  0  0  0  0
   -7.8047    4.3598  -16.9547 C   0  0  0  0  0  0  0  0  0  0  0  0
  1  2  1  0
  2  3  1  0
  3  4  2  0
  3  5  1  0
  5  6  1  0
  6  7  1  0
  7  8  2  0
  7  9  1  0
  9 10  1  0
 11 10  1  1
 11 12  1  0
 12 13  1  0
 13 14  1  6
  5 15  1  0
 15 16  2  0
 16 17  1  0
 17 18  2  0
 18 19  1  0
 19 20  2  0
 20  2  1  0
 13 11  1  0
 20 15  1  0
M  END
>  <energy_score>  (4591) 
-9.790497

>  <alias>  (4591) 
OGNFBPCOEUDHHR-UHFFFAOYSA-N-P8-P8-P268-601530

>  <HIPPO Pose ID>  (4591) 
84911

>  <smiles>  (4591) 
Cn1c(=O)n(CC(=O)NCC2CC2O)c2ccccc21

>  <inchikey>  (4591) 
OGNFBPCOEUDHHR-UHFFFAOYSA-N

>  <distance_score>  (4591) 
1.808534

>  <ref_mols>  (4591) 
Z0101a,Z4245a

>  <ref_pdb>  (4591) 
Z0089a

>  <HIPPO Compound ID>  (4591) 
146702

>  <name>  (4591) 
OGNFBPCOEUDHHR-UHFFFAOYSA-N-P8-P8-P268-601530

>  <inspiration_score>  (4591) 
None

$$$$
YMHLXCWPAMRQNL-UHFFFAOYSA-N-P8-P8-P268-601530
     RDKit          3D

 20 22  0  0  0  0  0  0  0  0999 V2000
   -8.8406    3.8433  -19.4925 C   0  0  0  0  0  0  0  0  0  0  0  0
   -7.6870    4.2082  -18.7246 N   0  0  0  0  0  0  0  0  0  0  0  0
   -6.3641    4.3518  -19.1899 C   0  0  0  0  0  0  0  0  0  0  0  0
   -5.9043    4.1895  -20.3138 O   0  0  0  0  0  0  0  0  0  0  0  0
   -5.5896    4.7145  -18.0641 N   0  0  0  0  0  0  0  0  0  0  0  0
   -4.1543    4.8227  -18.0523 C   0  0  0  0  0  0  0  0  0  0  0  0
   -3.6685    6.2037  -18.5232 C   0  0  0  0  0  0  0  0  0  0  0  0
   -3.0631    6.9264  -17.8330 O   0  0  0  0  0  0  0  0  0  0  0  0
   -4.0497    6.3292  -20.0224 N   0  0  0  0  0  0  0  0  0  0  0  0
   -3.6846    7.3192  -20.9981 C   0  0  0  0  0  0  0  0  0  0  0  0
   -4.5765    7.1221  -22.1974 C   0  0  0  0  0  0  0  0  0  0  0  0
   -4.1588    7.8624  -23.4712 C   0  0  0  0  0  0  0  0  0  0  0  0
   -4.2306    6.6426  -24.2491 O   0  0  0  0  0  0  0  0  0  0  0  0
   -4.3451    5.8608  -23.0347 C   0  0  0  0  0  0  0  0  0  0  0  0
   -6.4153    4.7179  -16.9323 C   0  0  0  0  0  0  0  0  0  0  0  0
   -6.1154    4.9329  -15.6052 C   0  0  0  0  0  0  0  0  0  0  0  0
   -7.1551    4.7869  -14.6824 C   0  0  0  0  0  0  0  0  0  0  0  0
   -8.4542    4.4466  -15.1013 C   0  0  0  0  0  0  0  0  0  0  0  0
   -8.7493    4.2584  -16.4511 C   0  0  0  0  0  0  0  0  0  0  0  0
   -7.7080    4.3962  -17.3426 C   0  0  0  0  0  0  0  0  0  0  0  0
  1  2  1  0
  2  3  1  0
  3  4  2  0
  3  5  1  0
  5  6  1  0
  6  7  1  0
  7  8  2  0
  7  9  1  0
  9 10  1  0
 10 11  1  0
 11 12  1  0
 12 13  1  0
 13 14  1  0
  5 15  1  0
 15 16  2  0
 16 17  1  0
 17 18  2  0
 18 19  1  0
 19 20  2  0
 20  2  1  0
 14 11  1  0
 20 15  1  0
M  END
>  <energy_score>  (4592) 
-13.474168

>  <alias>  (4592) 
YMHLXCWPAMRQNL-UHFFFAOYSA-N-P8-P8-P268-601530

>  <HIPPO Pose ID>  (4592) 
84913

>  <smiles>  (4592) 
Cn1c(=O)n(CC(=O)NCC2COC2)c2ccccc21

>  <inchikey>  (4592) 
YMHLXCWPAMRQNL-UHFFFAOYSA-N

>  <distance_score>  (4592) 
1.661559

>  <ref_mols>  (4592) 
Z0101a,Z4245a

>  <ref_pdb>  (4592) 
Z0089a

>  <HIPPO Compound ID>  (4592) 
146703

>  <name>  (4592) 
YMHLXCWPAMRQNL-UHFFFAOYSA-N-P8-P8-P268-601530

>  <inspiration_score>  (4592) 
None

$$$$
WXFJMXOGWDKRAA-UHFFFAOYSA-N-P268-P8-P268-601530
     RDKit          3D

 20 22  0  0  0  0  0  0  0  0999 V2000
   -8.4128    3.7198  -19.3198 C   0  0  0  0  0  0  0  0  0  0  0  0
   -7.4389    4.2865  -18.4561 N   0  0  0  0  0  0  0  0  0  0  0  0
   -6.2583    4.9278  -18.8591 C   0  0  0  0  0  0  0  0  0  0  0  0
   -5.8679    5.0798  -20.0070 O   0  0  0  0  0  0  0  0  0  0  0  0
   -5.6412    5.3935  -17.6706 N   0  0  0  0  0  0  0  0  0  0  0  0
   -4.6408    6.4330  -17.6116 C   0  0  0  0  0  0  0  0  0  0  0  0
   -3.1921    6.0116  -17.8839 C   0  0  0  0  0  0  0  0  0  0  0  0
   -2.3130    6.2259  -17.1272 O   0  0  0  0  0  0  0  0  0  0  0  0
   -3.1635    5.4125  -19.2736 N   0  0  0  0  0  0  0  0  0  0  0  0
   -2.0232    4.8190  -20.0672 C   0  0  0  0  0  0  0  0  0  0  0  0
   -2.6441    5.4038  -21.3253 C   0  0  0  0  0  0  0  0  0  0  0  0
   -3.7383    4.5753  -21.9763 C   0  0  0  0  0  0  0  0  0  0  0  0
   -4.7794    5.4084  -22.4798 O   0  0  0  0  0  0  0  0  0  0  0  0
   -2.9897    6.5051  -20.3589 C   0  0  0  0  0  0  0  0  0  0  0  0
   -6.4710    5.0612  -16.5865 C   0  0  0  0  0  0  0  0  0  0  0  0
   -6.3326    5.3215  -15.2416 C   0  0  0  0  0  0  0  0  0  0  0  0
   -7.3734    4.9201  -14.4007 C   0  0  0  0  0  0  0  0  0  0  0  0
   -8.5213    4.2930  -14.9165 C   0  0  0  0  0  0  0  0  0  0  0  0
   -8.6451    4.0291  -16.2787 C   0  0  0  0  0  0  0  0  0  0  0  0
   -7.5935    4.4069  -17.0821 C   0  0  0  0  0  0  0  0  0  0  0  0
  1  2  1  0
  2  3  1  0
  3  4  2  0
  3  5  1  0
  5  6  1  0
  6  7  1  0
  7  8  2  0
  7  9  1  0
  9 10  1  0
 10 11  1  0
 11 12  1  0
 12 13  1  0
 11 14  1  0
  5 15  1  0
 15 16  2  0
 16 17  1  0
 17 18  2  0
 18 19  1  0
 19 20  2  0
 20  2  1  0
 14  9  1  0
 20 15  1  0
M  END
>  <energy_score>  (4593) 
-2.538543

>  <alias>  (4593) 
WXFJMXOGWDKRAA-UHFFFAOYSA-N-P268-P8-P268-601530

>  <HIPPO Pose ID>  (4593) 
84916

>  <smiles>  (4593) 
Cn1c(=O)n(CC(=O)N2CC(CO)C2)c2ccccc21

>  <inchikey>  (4593) 
WXFJMXOGWDKRAA-UHFFFAOYSA-N

>  <distance_score>  (4593) 
1.127922

>  <ref_mols>  (4593) 
Z0101a,Z4245a

>  <ref_pdb>  (4593) 
Z0089a

>  <HIPPO Compound ID>  (4593) 
146704

>  <name>  (4593) 
WXFJMXOGWDKRAA-UHFFFAOYSA-N-P268-P8-P268-601530

>  <inspiration_score>  (4593) 
None

$$$$
NIRHINPACPZTCZ-UHFFFAOYSA-N-P8-P8-P268-601530
     RDKit          3D

 21 22  0  0  0  0  0  0  0  0999 V2000
   -8.7839    3.8928  -19.3760 C   0  0  0  0  0  0  0  0  0  0  0  0
   -7.6790    4.2636  -18.5386 N   0  0  0  0  0  0  0  0  0  0  0  0
   -6.3268    4.3883  -18.9240 C   0  0  0  0  0  0  0  0  0  0  0  0
   -5.8395    4.2409  -20.0362 O   0  0  0  0  0  0  0  0  0  0  0  0
   -5.6069    4.6923  -17.7372 N   0  0  0  0  0  0  0  0  0  0  0  0
   -4.1719    4.6432  -17.6036 C   0  0  0  0  0  0  0  0  0  0  0  0
   -3.5735    5.8719  -18.2910 C   0  0  0  0  0  0  0  0  0  0  0  0
   -3.6959    6.9578  -17.8772 O   0  0  0  0  0  0  0  0  0  0  0  0
   -2.9242    5.3643  -19.6058 N   0  0  0  0  0  0  0  0  0  0  0  0
   -2.3818    6.0902  -20.7166 C   0  0  0  0  0  0  0  0  0  0  0  0
   -3.4845    6.4331  -21.7398 C   0  0  1  0  0  0  0  0  0  0  0  0
   -4.5764    7.3140  -21.1246 C   0  0  0  0  0  0  0  0  0  0  0  0
   -2.8693    7.2225  -22.7857 O   0  0  0  0  0  0  0  0  0  0  0  0
   -4.0316    5.1421  -22.3958 C   0  0  0  0  0  0  0  0  0  0  0  0
   -5.3532    5.3008  -22.9040 O   0  0  0  0  0  0  0  0  0  0  0  0
   -6.4965    4.6750  -16.6595 C   0  0  0  0  0  0  0  0  0  0  0  0
   -6.2572    4.8340  -15.3119 C   0  0  0  0  0  0  0  0  0  0  0  0
   -7.3419    4.6881  -14.4509 C   0  0  0  0  0  0  0  0  0  0  0  0
   -8.6209    4.3992  -14.9527 C   0  0  0  0  0  0  0  0  0  0  0  0
   -8.8545    4.2616  -16.3216 C   0  0  0  0  0  0  0  0  0  0  0  0
   -7.7698    4.4043  -17.1538 C   0  0  0  0  0  0  0  0  0  0  0  0
  1  2  1  0
  2  3  1  0
  3  4  2  0
  3  5  1  0
  5  6  1  0
  6  7  1  0
  7  8  2  0
  7  9  1  0
  9 10  1  0
 10 11  1  0
 11 12  1  1
 11 13  1  0
 11 14  1  0
 14 15  1  0
  5 16  1  0
 16 17  2  0
 17 18  1  0
 18 19  2  0
 19 20  1  0
 20 21  2  0
 21  2  1  0
 21 16  1  0
M  END
>  <energy_score>  (4594) 
-3.835255

>  <alias>  (4594) 
NIRHINPACPZTCZ-UHFFFAOYSA-N-P8-P8-P268-601530

>  <HIPPO Pose ID>  (4594) 
84921

>  <smiles>  (4594) 
Cn1c(=O)n(CC(=O)NCC(C)(O)CO)c2ccccc21

>  <inchikey>  (4594) 
NIRHINPACPZTCZ-UHFFFAOYSA-N

>  <distance_score>  (4594) 
1.061667

>  <ref_mols>  (4594) 
Z0101a,Z4245a

>  <ref_pdb>  (4594) 
Z0089a

>  <HIPPO Compound ID>  (4594) 
146707

>  <name>  (4594) 
NIRHINPACPZTCZ-UHFFFAOYSA-N-P8-P8-P268-601530

>  <inspiration_score>  (4594) 
None

$$$$
AXMISGZYUVCDAK-UHFFFAOYSA-N-P268-P8-P268-601530
     RDKit          3D

 21 23  0  0  0  0  0  0  0  0999 V2000
   -8.4130    3.7411  -19.4219 C   0  0  0  0  0  0  0  0  0  0  0  0
   -7.3920    4.3221  -18.6297 N   0  0  0  0  0  0  0  0  0  0  0  0
   -6.0844    4.6146  -19.0481 C   0  0  0  0  0  0  0  0  0  0  0  0
   -5.5979    4.4864  -20.1648 O   0  0  0  0  0  0  0  0  0  0  0  0
   -5.4019    5.0518  -17.8916 N   0  0  0  0  0  0  0  0  0  0  0  0
   -3.9855    5.2887  -17.8194 C   0  0  0  0  0  0  0  0  0  0  0  0
   -3.6397    6.6900  -18.3462 C   0  0  0  0  0  0  0  0  0  0  0  0
   -3.4243    7.5927  -17.6359 O   0  0  0  0  0  0  0  0  0  0  0  0
   -3.5842    6.5932  -19.8954 N   0  0  0  0  0  0  0  0  0  0  0  0
   -3.3455    7.6097  -20.8882 C   0  0  0  0  0  0  0  0  0  0  0  0
   -3.9196    7.1388  -22.2127 C   0  0  0  0  0  0  0  0  0  0  0  0
   -3.3336    5.9782  -22.6044 F   0  0  0  0  0  0  0  0  0  0  0  0
   -5.4492    7.1936  -22.3018 C   0  0  0  0  0  0  0  0  0  0  0  0
   -5.4015    8.4551  -23.0237 O   0  0  0  0  0  0  0  0  0  0  0  0
   -3.9861    8.2477  -23.2749 C   0  0  0  0  0  0  0  0  0  0  0  0
   -6.2740    4.9593  -16.7920 C   0  0  0  0  0  0  0  0  0  0  0  0
   -6.0719    5.1920  -15.4510 C   0  0  0  0  0  0  0  0  0  0  0  0
   -7.1415    4.9323  -14.5828 C   0  0  0  0  0  0  0  0  0  0  0  0
   -8.3793    4.4634  -15.0637 C   0  0  0  0  0  0  0  0  0  0  0  0
   -8.5772    4.2516  -16.4251 C   0  0  0  0  0  0  0  0  0  0  0  0
   -7.5043    4.5029  -17.2565 C   0  0  0  0  0  0  0  0  0  0  0  0
  1  2  1  0
  2  3  1  0
  3  4  2  0
  3  5  1  0
  5  6  1  0
  6  7  1  0
  7  8  2  0
  7  9  1  0
  9 10  1  0
 10 11  1  0
 11 12  1  0
 11 13  1  0
 13 14  1  0
 14 15  1  0
  5 16  1  0
 16 17  2  0
 17 18  1  0
 18 19  2  0
 19 20  1  0
 20 21  2  0
 21  2  1  0
 15 11  1  0
 21 16  1  0
M  END
>  <energy_score>  (4595) 
-21.359997

>  <alias>  (4595) 
AXMISGZYUVCDAK-UHFFFAOYSA-N-P268-P8-P268-601530

>  <HIPPO Pose ID>  (4595) 
84930

>  <smiles>  (4595) 
Cn1c(=O)n(CC(=O)NCC2(F)COC2)c2ccccc21

>  <inchikey>  (4595) 
AXMISGZYUVCDAK-UHFFFAOYSA-N

>  <distance_score>  (4595) 
1.833938

>  <ref_mols>  (4595) 
Z0101a,Z4245a

>  <ref_pdb>  (4595) 
Z0089a

>  <HIPPO Compound ID>  (4595) 
146711

>  <name>  (4595) 
AXMISGZYUVCDAK-UHFFFAOYSA-N-P268-P8-P268-601530

>  <inspiration_score>  (4595) 
None

$$$$
WKCYDZQAQKZTAU-UHFFFAOYSA-N-P8-P8-P268-601530
     RDKit          3D

 21 23  0  0  0  0  0  0  0  0999 V2000
   -9.0014    3.8725  -19.3218 C   0  0  0  0  0  0  0  0  0  0  0  0
   -7.8433    4.2123  -18.5492 N   0  0  0  0  0  0  0  0  0  0  0  0
   -6.5185    4.2724  -19.0096 C   0  0  0  0  0  0  0  0  0  0  0  0
   -6.0890    4.0202  -20.1280 O   0  0  0  0  0  0  0  0  0  0  0  0
   -5.7208    4.6453  -17.8941 N   0  0  0  0  0  0  0  0  0  0  0  0
   -4.2751    4.6160  -17.8489 C   0  0  0  0  0  0  0  0  0  0  0  0
   -3.6580    5.8057  -18.5843 C   0  0  0  0  0  0  0  0  0  0  0  0
   -2.9973    6.6230  -18.0708 O   0  0  0  0  0  0  0  0  0  0  0  0
   -4.0187    5.5965  -20.0831 N   0  0  0  0  0  0  0  0  0  0  0  0
   -3.7253    6.3848  -21.2132 C   0  0  1  0  0  0  0  0  0  0  0  0
   -3.8756    7.8638  -21.0045 C   0  0  0  0  0  0  0  0  0  0  0  0
   -2.6813    5.9256  -22.1929 C   0  0  0  0  0  0  0  0  0  0  0  0
   -4.1369    5.7336  -22.5343 C   0  0  2  0  0  0  0  0  0  0  0  0
   -4.8418    6.4934  -23.5962 C   0  0  0  0  0  0  0  0  0  0  0  0
   -4.1888    6.2647  -24.8384 O   0  0  0  0  0  0  0  0  0  0  0  0
   -6.5443    4.6790  -16.7622 C   0  0  0  0  0  0  0  0  0  0  0  0
   -6.2281    4.8808  -15.4364 C   0  0  0  0  0  0  0  0  0  0  0  0
   -7.2623    4.7590  -14.5085 C   0  0  0  0  0  0  0  0  0  0  0  0
   -8.5696    4.4530  -14.9227 C   0  0  0  0  0  0  0  0  0  0  0  0
   -8.8816    4.2803  -16.2713 C   0  0  0  0  0  0  0  0  0  0  0  0
   -7.8475    4.3983  -17.1687 C   0  0  0  0  0  0  0  0  0  0  0  0
  1  2  1  0
  2  3  1  0
  3  4  2  0
  3  5  1  0
  5  6  1  0
  6  7  1  0
  7  8  2  0
  7  9  1  0
  9 10  1  0
 10 11  1  1
 10 12  1  0
 12 13  1  0
 13 14  1  6
 14 15  1  0
  5 16  1  0
 16 17  2  0
 17 18  1  0
 18 19  2  0
 19 20  1  0
 20 21  2  0
 21  2  1  0
 13 10  1  0
 21 16  1  0
M  END
>  <energy_score>  (4596) 
-8.988839

>  <alias>  (4596) 
WKCYDZQAQKZTAU-UHFFFAOYSA-N-P8-P8-P268-601530

>  <HIPPO Pose ID>  (4596) 
84935

>  <smiles>  (4596) 
Cn1c(=O)n(CC(=O)NC2(C)CC2CO)c2ccccc21

>  <inchikey>  (4596) 
WKCYDZQAQKZTAU-UHFFFAOYSA-N

>  <distance_score>  (4596) 
1.270396

>  <ref_mols>  (4596) 
Z0101a,Z4245a

>  <ref_pdb>  (4596) 
Z0089a

>  <HIPPO Compound ID>  (4596) 
146714

>  <name>  (4596) 
WKCYDZQAQKZTAU-UHFFFAOYSA-N-P8-P8-P268-601530

>  <inspiration_score>  (4596) 
None

$$$$
AREBHSMNPJYVFR-UHFFFAOYSA-N-P8-P8-P268-601530
     RDKit          3D

 21 23  0  0  0  0  0  0  0  0999 V2000
  -10.0965    4.4410  -19.2077 C   0  0  0  0  0  0  0  0  0  0  0  0
   -8.7520    3.7588  -19.2269 C   0  0  0  0  0  0  0  0  0  0  0  0
   -7.7149    4.3339  -18.4070 N   0  0  0  0  0  0  0  0  0  0  0  0
   -6.3462    4.4315  -18.7750 C   0  0  0  0  0  0  0  0  0  0  0  0
   -5.8400    4.1893  -19.8633 O   0  0  0  0  0  0  0  0  0  0  0  0
   -5.6408    4.8027  -17.5907 N   0  0  0  0  0  0  0  0  0  0  0  0
   -4.2067    4.7168  -17.3985 C   0  0  0  0  0  0  0  0  0  0  0  0
   -3.5037    5.8509  -18.1375 C   0  0  0  0  0  0  0  0  0  0  0  0
   -3.2532    6.8948  -17.6766 O   0  0  0  0  0  0  0  0  0  0  0  0
   -3.3249    5.3220  -19.5855 N   0  0  0  0  0  0  0  0  0  0  0  0
   -2.9041    5.9778  -20.7459 C   0  0  2  0  0  0  0  0  0  0  0  0
   -3.1364    7.4035  -21.1299 C   0  0  0  0  0  0  0  0  0  0  0  0
   -4.0973    6.3496  -21.5947 C   0  0  1  0  0  0  0  0  0  0  0  0
   -4.1527    5.7125  -22.9278 C   0  0  0  0  0  0  0  0  0  0  0  0
   -5.4669    5.8343  -23.4420 O   0  0  0  0  0  0  0  0  0  0  0  0
   -6.5406    4.7735  -16.5209 C   0  0  0  0  0  0  0  0  0  0  0  0
   -6.3031    4.9408  -15.1720 C   0  0  0  0  0  0  0  0  0  0  0  0
   -7.3723    4.7470  -14.3044 C   0  0  0  0  0  0  0  0  0  0  0  0
   -8.6346    4.3975  -14.8005 C   0  0  0  0  0  0  0  0  0  0  0  0
   -8.8654    4.2486  -16.1690 C   0  0  0  0  0  0  0  0  0  0  0  0
   -7.8009    4.4545  -17.0148 C   0  0  0  0  0  0  0  0  0  0  0  0
  1  2  1  0
  2  3  1  0
  3  4  1  0
  4  5  2  0
  4  6  1  0
  6  7  1  0
  7  8  1  0
  8  9  2  0
  8 10  1  0
 11 10  1  1
 11 12  1  0
 12 13  1  0
 13 14  1  6
 14 15  1  0
  6 16  1  0
 16 17  2  0
 17 18  1  0
 18 19  2  0
 19 20  1  0
 20 21  2  0
 21  3  1  0
 13 11  1  0
 21 16  1  0
M  END
>  <energy_score>  (4597) 
-1.206913

>  <alias>  (4597) 
AREBHSMNPJYVFR-UHFFFAOYSA-N-P8-P8-P268-601530

>  <HIPPO Pose ID>  (4597) 
84937

>  <smiles>  (4597) 
CCn1c(=O)n(CC(=O)NC2CC2CO)c2ccccc21

>  <inchikey>  (4597) 
AREBHSMNPJYVFR-UHFFFAOYSA-N

>  <distance_score>  (4597) 
1.177561

>  <ref_mols>  (4597) 
Z0101a,Z4245a

>  <ref_pdb>  (4597) 
Z0089a

>  <HIPPO Compound ID>  (4597) 
146715

>  <name>  (4597) 
AREBHSMNPJYVFR-UHFFFAOYSA-N-P8-P8-P268-601530

>  <inspiration_score>  (4597) 
None

$$$$
BEBDLEFEUKACRZ-UHFFFAOYSA-N-P8-P8-P268-601530
     RDKit          3D

 21 23  0  0  0  0  0  0  0  0999 V2000
  -10.4323    4.2499  -18.6155 C   0  0  0  0  0  0  0  0  0  0  0  0
   -9.0959    3.8444  -19.2094 C   0  0  0  0  0  0  0  0  0  0  0  0
   -7.8922    4.2646  -18.5267 N   0  0  0  0  0  0  0  0  0  0  0  0
   -6.5954    4.3148  -19.1226 C   0  0  0  0  0  0  0  0  0  0  0  0
   -6.2388    4.0373  -20.2618 O   0  0  0  0  0  0  0  0  0  0  0  0
   -5.7012    4.7017  -18.0962 N   0  0  0  0  0  0  0  0  0  0  0  0
   -4.2648    4.6534  -18.2155 C   0  0  0  0  0  0  0  0  0  0  0  0
   -3.6949    5.9142  -18.8768 C   0  0  0  0  0  0  0  0  0  0  0  0
   -3.1359    6.7428  -18.2709 O   0  0  0  0  0  0  0  0  0  0  0  0
   -3.9313    5.7720  -20.4051 N   0  0  0  0  0  0  0  0  0  0  0  0
   -3.6121    6.6642  -21.4855 C   0  0  0  0  0  0  0  0  0  0  0  0
   -4.7360    7.6642  -21.5458 C   0  0  0  0  0  0  0  0  0  0  0  0
   -4.6063    8.8295  -22.5332 C   0  0  0  0  0  0  0  0  0  0  0  0
   -5.0848    9.7588  -21.5162 O   0  0  0  0  0  0  0  0  0  0  0  0
   -4.7343    8.7822  -20.4921 C   0  0  0  0  0  0  0  0  0  0  0  0
   -6.3987    4.7196  -16.8828 C   0  0  0  0  0  0  0  0  0  0  0  0
   -5.9296    4.9262  -15.6007 C   0  0  0  0  0  0  0  0  0  0  0  0
   -6.8344    4.7792  -14.5480 C   0  0  0  0  0  0  0  0  0  0  0  0
   -8.1684    4.4303  -14.7944 C   0  0  0  0  0  0  0  0  0  0  0  0
   -8.6277    4.2467  -16.0986 C   0  0  0  0  0  0  0  0  0  0  0  0
   -7.7338    4.4092  -17.1377 C   0  0  0  0  0  0  0  0  0  0  0  0
  1  2  1  0
  2  3  1  0
  3  4  1  0
  4  5  2  0
  4  6  1  0
  6  7  1  0
  7  8  1  0
  8  9  2  0
  8 10  1  0
 10 11  1  0
 11 12  1  0
 12 13  1  0
 13 14  1  0
 14 15  1  0
  6 16  1  0
 16 17  2  0
 17 18  1  0
 18 19  2  0
 19 20  1  0
 20 21  2  0
 21  3  1  0
 15 12  1  0
 21 16  1  0
M  END
>  <energy_score>  (4598) 
-11.10686

>  <alias>  (4598) 
BEBDLEFEUKACRZ-UHFFFAOYSA-N-P8-P8-P268-601530

>  <HIPPO Pose ID>  (4598) 
84941

>  <smiles>  (4598) 
CCn1c(=O)n(CC(=O)NCC2COC2)c2ccccc21

>  <inchikey>  (4598) 
BEBDLEFEUKACRZ-UHFFFAOYSA-N

>  <distance_score>  (4598) 
1.580883

>  <ref_mols>  (4598) 
Z0101a,Z4245a

>  <ref_pdb>  (4598) 
Z0089a

>  <HIPPO Compound ID>  (4598) 
146717

>  <name>  (4598) 
BEBDLEFEUKACRZ-UHFFFAOYSA-N-P8-P8-P268-601530

>  <inspiration_score>  (4598) 
None

$$$$
WYGFZKIQWNETHV-UHFFFAOYSA-N-P8-P8-P268-601530
     RDKit          3D

 21 24  0  0  0  0  0  0  0  0999 V2000
   -9.0452    3.8645  -19.3094 C   0  0  0  0  0  0  0  0  0  0  0  0
   -7.8807    4.2167  -18.5528 N   0  0  0  0  0  0  0  0  0  0  0  0
   -6.5624    4.2800  -19.0282 C   0  0  0  0  0  0  0  0  0  0  0  0
   -6.1450    3.9819  -20.1402 O   0  0  0  0  0  0  0  0  0  0  0  0
   -5.7581    4.7064  -17.9359 N   0  0  0  0  0  0  0  0  0  0  0  0
   -4.3115    4.6890  -17.9029 C   0  0  0  0  0  0  0  0  0  0  0  0
   -3.6837    5.7846  -18.7717 C   0  0  0  0  0  0  0  0  0  0  0  0
   -3.0226    6.6532  -18.3506 O   0  0  0  0  0  0  0  0  0  0  0  0
   -4.0347    5.4054  -20.2396 N   0  0  0  0  0  0  0  0  0  0  0  0
   -3.5805    5.9442  -21.4539 C   0  0  1  0  0  0  0  0  0  0  0  0
   -4.3103    5.4686  -22.6818 C   0  0  0  0  0  0  0  0  0  0  0  0
   -4.2546    6.5301  -23.6489 O   0  0  0  0  0  0  0  0  0  0  0  0
   -3.9827    7.7537  -22.9403 C   0  0  0  0  0  0  0  0  0  0  0  0
   -3.3360    7.3826  -21.6516 C   0  0  2  0  0  0  0  0  0  0  0  0
   -2.1657    6.4285  -21.5894 C   0  0  0  0  0  0  0  0  0  0  0  0
   -6.5658    4.7231  -16.7897 C   0  0  0  0  0  0  0  0  0  0  0  0
   -6.2361    4.9313  -15.4679 C   0  0  0  0  0  0  0  0  0  0  0  0
   -7.2549    4.7913  -14.5249 C   0  0  0  0  0  0  0  0  0  0  0  0
   -8.5623    4.4616  -14.9195 C   0  0  0  0  0  0  0  0  0  0  0  0
   -8.8888    4.2806  -16.2632 C   0  0  0  0  0  0  0  0  0  0  0  0
   -7.8690    4.4144  -17.1749 C   0  0  0  0  0  0  0  0  0  0  0  0
  1  2  1  0
  2  3  1  0
  3  4  2  0
  3  5  1  0
  5  6  1  0
  6  7  1  0
  7  8  2  0
  7  9  1  0
 10  9  1  1
 10 11  1  0
 11 12  1  0
 12 13  1  0
 14 13  1  6
 14 15  1  0
  5 16  1  0
 16 17  2  0
 17 18  1  0
 18 19  2  0
 19 20  1  0
 20 21  2  0
 21  2  1  0
 14 10  1  0
 21 16  1  0
 15 10  1  0
M  END
>  <energy_score>  (4599) 
-16.844759

>  <alias>  (4599) 
WYGFZKIQWNETHV-UHFFFAOYSA-N-P8-P8-P268-601530

>  <HIPPO Pose ID>  (4599) 
84949

>  <smiles>  (4599) 
Cn1c(=O)n(CC(=O)NC23COCC2C3)c2ccccc21

>  <inchikey>  (4599) 
WYGFZKIQWNETHV-UHFFFAOYSA-N

>  <distance_score>  (4599) 
1.1862

>  <ref_mols>  (4599) 
Z0101a,Z4245a

>  <ref_pdb>  (4599) 
Z0089a

>  <HIPPO Compound ID>  (4599) 
146721

>  <name>  (4599) 
WYGFZKIQWNETHV-UHFFFAOYSA-N-P8-P8-P268-601530

>  <inspiration_score>  (4599) 
None

$$$$
JBZNKZIRPIHHGX-UHFFFAOYSA-N-P8-P8-P268-601530
     RDKit          3D

 21 23  0  0  0  0  0  0  0  0999 V2000
   -8.7543    3.8909  -19.3945 C   0  0  0  0  0  0  0  0  0  0  0  0
   -7.6465    4.2617  -18.5600 N   0  0  0  0  0  0  0  0  0  0  0  0
   -6.2969    4.3960  -18.9457 C   0  0  0  0  0  0  0  0  0  0  0  0
   -5.8010    4.2630  -20.0567 O   0  0  0  0  0  0  0  0  0  0  0  0
   -5.5756    4.7056  -17.7642 N   0  0  0  0  0  0  0  0  0  0  0  0
   -4.1397    4.6462  -17.6351 C   0  0  0  0  0  0  0  0  0  0  0  0
   -3.4986    5.8591  -18.3127 C   0  0  0  0  0  0  0  0  0  0  0  0
   -3.3567    6.8910  -17.7842 O   0  0  0  0  0  0  0  0  0  0  0  0
   -3.1933    5.4262  -19.7709 N   0  0  0  0  0  0  0  0  0  0  0  0
   -2.7421    6.1958  -20.8976 C   0  0  0  0  0  0  0  0  0  0  0  0
   -3.9831    6.4531  -21.7458 C   0  0  0  0  0  0  0  0  0  0  0  0
   -5.0042    7.1455  -20.9779 O   0  0  0  0  0  0  0  0  0  0  0  0
   -3.6696    7.0644  -23.1220 C   0  0  0  0  0  0  0  0  0  0  0  0
   -3.9947    5.8311  -23.8051 O   0  0  0  0  0  0  0  0  0  0  0  0
   -4.4553    5.2395  -22.5710 C   0  0  0  0  0  0  0  0  0  0  0  0
   -6.4637    4.6814  -16.6835 C   0  0  0  0  0  0  0  0  0  0  0  0
   -6.2252    4.8398  -15.3359 C   0  0  0  0  0  0  0  0  0  0  0  0
   -7.3102    4.6903  -14.4742 C   0  0  0  0  0  0  0  0  0  0  0  0
   -8.5899    4.3990  -14.9742 C   0  0  0  0  0  0  0  0  0  0  0  0
   -8.8227    4.2606  -16.3429 C   0  0  0  0  0  0  0  0  0  0  0  0
   -7.7373    4.4054  -17.1754 C   0  0  0  0  0  0  0  0  0  0  0  0
  1  2  1  0
  2  3  1  0
  3  4  2  0
  3  5  1  0
  5  6  1  0
  6  7  1  0
  7  8  2  0
  7  9  1  0
  9 10  1  0
 10 11  1  0
 11 12  1  0
 11 13  1  0
 13 14  1  0
 14 15  1  0
  5 16  1  0
 16 17  2  0
 17 18  1  0
 18 19  2  0
 19 20  1  0
 20 21  2  0
 21  2  1  0
 15 11  1  0
 21 16  1  0
M  END
>  <energy_score>  (4600) 
-49.878534

>  <alias>  (4600) 
JBZNKZIRPIHHGX-UHFFFAOYSA-N-P8-P8-P268-601530

>  <HIPPO Pose ID>  (4600) 
84951

>  <smiles>  (4600) 
Cn1c(=O)n(CC(=O)NCC2(O)COC2)c2ccccc21

>  <inchikey>  (4600) 
JBZNKZIRPIHHGX-UHFFFAOYSA-N

>  <distance_score>  (4600) 
1.155838

>  <ref_mols>  (4600) 
Z0101a,Z4245a

>  <ref_pdb>  (4600) 
Z0089a

>  <HIPPO Compound ID>  (4600) 
146722

>  <name>  (4600) 
JBZNKZIRPIHHGX-UHFFFAOYSA-N-P8-P8-P268-601530

>  <inspiration_score>  (4600) 
None

$$$$
PIHXMGGBTHXTGD-UHFFFAOYSA-N-P8-P8-P268-601530
     RDKit          3D

 21 23  0  0  0  0  0  0  0  0999 V2000
   -8.7513    3.9016  -19.4062 C   0  0  0  0  0  0  0  0  0  0  0  0
   -7.6472    4.2793  -18.5692 N   0  0  0  0  0  0  0  0  0  0  0  0
   -6.2939    4.4039  -18.9478 C   0  0  0  0  0  0  0  0  0  0  0  0
   -5.7899    4.2825  -20.0581 O   0  0  0  0  0  0  0  0  0  0  0  0
   -5.5718    4.6764  -17.7549 N   0  0  0  0  0  0  0  0  0  0  0  0
   -4.1418    4.5366  -17.5884 C   0  0  0  0  0  0  0  0  0  0  0  0
   -3.3784    5.7802  -18.0381 C   0  0  0  0  0  0  0  0  0  0  0  0
   -2.8222    6.5079  -17.3138 O   0  0  0  0  0  0  0  0  0  0  0  0
   -3.4414    5.7583  -19.5874 N   0  0  0  0  0  0  0  0  0  0  0  0
   -2.9073    6.6896  -20.5667 C   0  0  2  0  0  0  0  0  0  0  0  0
   -3.5831    8.0814  -20.5198 C   0  0  0  0  0  0  0  0  0  0  0  0
   -4.6239    7.5257  -21.5114 C   0  0  0  0  0  0  0  0  0  0  0  0
   -3.5271    6.5286  -21.9894 C   0  0  2  0  0  0  0  0  0  0  0  0
   -3.8943    5.1416  -22.4956 C   0  0  0  0  0  0  0  0  0  0  0  0
   -5.2830    5.0608  -22.7719 O   0  0  0  0  0  0  0  0  0  0  0  0
   -6.4705    4.6659  -16.6819 C   0  0  0  0  0  0  0  0  0  0  0  0
   -6.2354    4.8098  -15.3317 C   0  0  0  0  0  0  0  0  0  0  0  0
   -7.3252    4.6653  -14.4763 C   0  0  0  0  0  0  0  0  0  0  0  0
   -8.6052    4.3930  -14.9854 C   0  0  0  0  0  0  0  0  0  0  0  0
   -8.8339    4.2697  -16.3565 C   0  0  0  0  0  0  0  0  0  0  0  0
   -7.7440    4.4115  -17.1835 C   0  0  0  0  0  0  0  0  0  0  0  0
  1  2  1  0
  2  3  1  0
  3  4  2  0
  3  5  1  0
  5  6  1  0
  6  7  1  0
  7  8  2  0
  7  9  1  0
 10  9  1  1
 10 11  1  0
 11 12  1  0
 12 13  1  0
 13 14  1  1
 14 15  1  0
  5 16  1  0
 16 17  2  0
 17 18  1  0
 18 19  2  0
 19 20  1  0
 20 21  2  0
 21  2  1  0
 13 10  1  0
 21 16  1  0
M  END
>  <energy_score>  (4601) 
-11.458132

>  <alias>  (4601) 
PIHXMGGBTHXTGD-UHFFFAOYSA-N-P8-P8-P268-601530

>  <HIPPO Pose ID>  (4601) 
84953

>  <smiles>  (4601) 
Cn1c(=O)n(CC(=O)NC2CCC2CO)c2ccccc21

>  <inchikey>  (4601) 
PIHXMGGBTHXTGD-UHFFFAOYSA-N

>  <distance_score>  (4601) 
1.163237

>  <ref_mols>  (4601) 
Z0101a,Z4245a

>  <ref_pdb>  (4601) 
Z0089a

>  <HIPPO Compound ID>  (4601) 
146723

>  <name>  (4601) 
PIHXMGGBTHXTGD-UHFFFAOYSA-N-P8-P8-P268-601530

>  <inspiration_score>  (4601) 
None

$$$$
UXKQTNLDSASQRY-UHFFFAOYSA-N-P8-P8-P268-601530
     RDKit          3D

 21 23  0  0  0  0  0  0  0  0999 V2000
   -2.4452    5.6519  -21.1719 C   0  0  0  0  0  0  0  0  0  0  0  0
   -3.2229    6.6523  -22.0053 C   0  0  1  0  0  0  0  0  0  0  0  0
   -3.8577    6.1406  -23.3252 C   0  0  2  0  0  0  0  0  0  0  0  0
   -3.1513    6.4055  -24.5368 O   0  0  0  0  0  0  0  0  0  0  0  0
   -5.0314    7.1071  -23.0633 C   0  0  0  0  0  0  0  0  0  0  0  0
   -4.6379    7.0979  -21.5763 C   0  0  1  0  0  0  0  0  0  0  0  0
   -5.3995    6.1499  -20.7923 N   0  0  0  0  0  0  0  0  0  0  0  0
   -5.7471    4.6515  -21.0698 C   0  0  0  0  0  0  0  0  0  0  0  0
   -5.5342    3.9841  -22.0102 O   0  0  0  0  0  0  0  0  0  0  0  0
   -6.5781    4.1187  -19.8886 C   0  0  0  0  0  0  0  0  0  0  0  0
   -6.3579    4.7707  -18.6487 N   0  0  0  0  0  0  0  0  0  0  0  0
   -5.0351    4.7870  -18.1822 C   0  0  0  0  0  0  0  0  0  0  0  0
   -4.0450    4.5648  -18.8559 O   0  0  0  0  0  0  0  0  0  0  0  0
   -5.0826    5.0575  -16.8247 N   0  0  0  0  0  0  0  0  0  0  0  0
   -3.9218    5.0671  -16.0062 C   0  0  0  0  0  0  0  0  0  0  0  0
   -6.3959    4.8563  -16.3945 C   0  0  0  0  0  0  0  0  0  0  0  0
   -6.8918    4.7437  -15.1177 C   0  0  0  0  0  0  0  0  0  0  0  0
   -8.2265    4.3646  -14.9990 C   0  0  0  0  0  0  0  0  0  0  0  0
   -9.0127    4.1187  -16.1435 C   0  0  0  0  0  0  0  0  0  0  0  0
   -8.5025    4.2601  -17.4326 C   0  0  0  0  0  0  0  0  0  0  0  0
   -7.1866    4.6396  -17.5282 C   0  0  0  0  0  0  0  0  0  0  0  0
  2  1  1  1
  2  3  1  0
  3  4  1  6
  3  5  1  0
  5  6  1  0
  6  7  1  1
  7  8  1  0
  8  9  2  0
  8 10  1  0
 10 11  1  0
 11 12  1  0
 12 13  2  0
 12 14  1  0
 14 15  1  0
 14 16  1  0
 16 17  2  0
 17 18  1  0
 18 19  2  0
 19 20  1  0
 20 21  2  0
  6  2  1  0
 21 11  1  0
 21 16  1  0
M  END
>  <energy_score>  (4602) 
-19.792898

>  <alias>  (4602) 
UXKQTNLDSASQRY-UHFFFAOYSA-N-P8-P8-P268-601530

>  <HIPPO Pose ID>  (4602) 
84961

>  <smiles>  (4602) 
CC1C(O)CC1NC(=O)Cn1c(=O)n(C)c2ccccc21

>  <inchikey>  (4602) 
UXKQTNLDSASQRY-UHFFFAOYSA-N

>  <distance_score>  (4602) 
1.628629

>  <ref_mols>  (4602) 
Z0101a,Z4245a

>  <ref_pdb>  (4602) 
Z0089a

>  <HIPPO Compound ID>  (4602) 
146727

>  <name>  (4602) 
UXKQTNLDSASQRY-UHFFFAOYSA-N-P8-P8-P268-601530

>  <inspiration_score>  (4602) 
None

$$$$
TWZLTRSCXLCPHM-UHFFFAOYSA-N-P8-P8-P268-601530
     RDKit          3D

 21 23  0  0  0  0  0  0  0  0999 V2000
   -8.9285    3.8831  -19.3668 C   0  0  0  0  0  0  0  0  0  0  0  0
   -7.7828    4.2385  -18.5812 N   0  0  0  0  0  0  0  0  0  0  0  0
   -6.4426    4.2789  -19.0229 C   0  0  0  0  0  0  0  0  0  0  0  0
   -6.0215    4.0597  -20.1516 O   0  0  0  0  0  0  0  0  0  0  0  0
   -5.6619    4.6067  -17.8756 N   0  0  0  0  0  0  0  0  0  0  0  0
   -4.2374    4.4011  -17.7645 C   0  0  0  0  0  0  0  0  0  0  0  0
   -3.3574    5.6161  -18.0513 C   0  0  0  0  0  0  0  0  0  0  0  0
   -2.7826    6.2370  -17.2304 O   0  0  0  0  0  0  0  0  0  0  0  0
   -3.3372    5.7332  -19.5584 N   0  0  0  0  0  0  0  0  0  0  0  0
   -2.5086    6.6028  -20.4641 C   0  0  0  0  0  0  0  0  0  0  0  0
   -3.7188    6.6450  -21.3970 C   0  0  0  0  0  0  0  0  0  0  0  0
   -3.8615    7.9291  -22.1842 C   0  0  0  0  0  0  0  0  0  0  0  0
   -3.9548    5.3883  -22.2438 C   0  0  0  0  0  0  0  0  0  0  0  0
   -5.2962    5.3653  -22.7199 O   0  0  0  0  0  0  0  0  0  0  0  0
   -4.4259    6.7134  -20.0664 C   0  0  0  0  0  0  0  0  0  0  0  0
   -6.5120    4.6574  -16.7644 C   0  0  0  0  0  0  0  0  0  0  0  0
   -6.2120    4.8344  -15.4310 C   0  0  0  0  0  0  0  0  0  0  0  0
   -7.2630    4.7231  -14.5219 C   0  0  0  0  0  0  0  0  0  0  0  0
   -8.5687    4.4481  -14.9625 C   0  0  0  0  0  0  0  0  0  0  0  0
   -8.8615    4.2984  -16.3188 C   0  0  0  0  0  0  0  0  0  0  0  0
   -7.8109    4.4104  -17.1987 C   0  0  0  0  0  0  0  0  0  0  0  0
  1  2  1  0
  2  3  1  0
  3  4  2  0
  3  5  1  0
  5  6  1  0
  6  7  1  0
  7  8  2  0
  7  9  1  0
  9 10  1  0
 10 11  1  0
 11 12  1  0
 11 13  1  0
 13 14  1  0
 11 15  1  0
  5 16  1  0
 16 17  2  0
 17 18  1  0
 18 19  2  0
 19 20  1  0
 20 21  2  0
 21  2  1  0
 15  9  1  0
 21 16  1  0
M  END
>  <energy_score>  (4603) 
-10.325021

>  <alias>  (4603) 
TWZLTRSCXLCPHM-UHFFFAOYSA-N-P8-P8-P268-601530

>  <HIPPO Pose ID>  (4603) 
84973

>  <smiles>  (4603) 
Cn1c(=O)n(CC(=O)N2CC(C)(CO)C2)c2ccccc21

>  <inchikey>  (4603) 
TWZLTRSCXLCPHM-UHFFFAOYSA-N

>  <distance_score>  (4603) 
1.248687

>  <ref_mols>  (4603) 
Z0101a,Z4245a

>  <ref_pdb>  (4603) 
Z0089a

>  <HIPPO Compound ID>  (4603) 
146733

>  <name>  (4603) 
TWZLTRSCXLCPHM-UHFFFAOYSA-N-P8-P8-P268-601530

>  <inspiration_score>  (4603) 
None

$$$$
PMOQFLWZLDIFLA-UHFFFAOYSA-N-P8-P8-P268-601530
     RDKit          3D

 21 23  0  0  0  0  0  0  0  0999 V2000
   -9.0107    3.8877  -19.2950 C   0  0  0  0  0  0  0  0  0  0  0  0
   -7.8517    4.2000  -18.5119 N   0  0  0  0  0  0  0  0  0  0  0  0
   -6.5300    4.2889  -18.9686 C   0  0  0  0  0  0  0  0  0  0  0  0
   -6.0960    4.1488  -20.1032 O   0  0  0  0  0  0  0  0  0  0  0  0
   -5.7328    4.6125  -17.8457 N   0  0  0  0  0  0  0  0  0  0  0  0
   -4.2880    4.6064  -17.8067 C   0  0  0  0  0  0  0  0  0  0  0  0
   -3.6422    5.9333  -18.2348 C   0  0  0  0  0  0  0  0  0  0  0  0
   -2.7638    6.4324  -17.6502 O   0  0  0  0  0  0  0  0  0  0  0  0
   -4.3158    6.3358  -19.5686 N   0  0  0  0  0  0  0  0  0  0  0  0
   -3.9901    7.3669  -20.4946 C   0  0  0  0  0  0  0  0  0  0  0  0
   -3.4841    6.6849  -21.7512 C   0  0  1  0  0  0  0  0  0  0  0  0
   -2.1257    5.9321  -21.7362 C   0  0  0  0  0  0  0  0  0  0  0  0
   -2.7011    5.0882  -22.9073 C   0  0  0  0  0  0  0  0  0  0  0  0
   -4.0820    5.3272  -22.2607 C   0  0  2  0  0  0  0  0  0  0  0  0
   -5.2297    5.4390  -23.1124 O   0  0  0  0  0  0  0  0  0  0  0  0
   -6.5549    4.6431  -16.7165 C   0  0  0  0  0  0  0  0  0  0  0  0
   -6.2355    4.8411  -15.3918 C   0  0  0  0  0  0  0  0  0  0  0  0
   -7.2720    4.7286  -14.4667 C   0  0  0  0  0  0  0  0  0  0  0  0
   -8.5815    4.4345  -14.8845 C   0  0  0  0  0  0  0  0  0  0  0  0
   -8.8940    4.2624  -16.2337 C   0  0  0  0  0  0  0  0  0  0  0  0
   -7.8587    4.3720  -17.1287 C   0  0  0  0  0  0  0  0  0  0  0  0
  1  2  1  0
  2  3  1  0
  3  4  2  0
  3  5  1  0
  5  6  1  0
  6  7  1  0
  7  8  2  0
  7  9  1  0
  9 10  1  0
 11 10  1  1
 11 12  1  0
 12 13  1  0
 13 14  1  0
 14 15  1  6
  5 16  1  0
 16 17  2  0
 17 18  1  0
 18 19  2  0
 19 20  1  0
 20 21  2  0
 21  2  1  0
 14 11  1  0
 21 16  1  0
M  END
>  <energy_score>  (4604) 
-23.170185

>  <alias>  (4604) 
PMOQFLWZLDIFLA-UHFFFAOYSA-N-P8-P8-P268-601530

>  <HIPPO Pose ID>  (4604) 
84977

>  <smiles>  (4604) 
Cn1c(=O)n(CC(=O)NCC2CCC2O)c2ccccc21

>  <inchikey>  (4604) 
PMOQFLWZLDIFLA-UHFFFAOYSA-N

>  <distance_score>  (4604) 
1.072179

>  <ref_mols>  (4604) 
Z0101a,Z4245a

>  <ref_pdb>  (4604) 
Z0089a

>  <HIPPO Compound ID>  (4604) 
146735

>  <name>  (4604) 
PMOQFLWZLDIFLA-UHFFFAOYSA-N-P8-P8-P268-601530

>  <inspiration_score>  (4604) 
None

$$$$
NEOWRBCXIWXGNJ-UHFFFAOYSA-N-P8-P8-P268-601530
     RDKit          3D

 21 23  0  0  0  0  0  0  0  0999 V2000
   -8.6893    3.8717  -19.2878 C   0  0  0  0  0  0  0  0  0  0  0  0
   -7.6180    4.2552  -18.4117 N   0  0  0  0  0  0  0  0  0  0  0  0
   -6.3751    4.7792  -18.8059 C   0  0  0  0  0  0  0  0  0  0  0  0
   -5.9220    4.8605  -19.9352 O   0  0  0  0  0  0  0  0  0  0  0  0
   -5.7341    5.2753  -17.6319 N   0  0  0  0  0  0  0  0  0  0  0  0
   -5.0453    6.5595  -17.6259 C   0  0  0  0  0  0  0  0  0  0  0  0
   -3.7123    6.6568  -18.3679 C   0  0  0  0  0  0  0  0  0  0  0  0
   -2.6808    6.6741  -17.8216 O   0  0  0  0  0  0  0  0  0  0  0  0
   -4.0530    6.7863  -19.8732 N   0  0  0  0  0  0  0  0  0  0  0  0
   -3.1954    6.8676  -21.0168 C   0  0  0  0  0  0  0  0  0  0  0  0
   -3.1590    5.4577  -21.5881 C   0  0  0  0  0  0  0  0  0  0  0  0
   -2.6619    4.4157  -20.5961 C   0  0  0  0  0  0  0  0  0  0  0  0
   -4.4149    5.0715  -22.3947 C   0  0  0  0  0  0  0  0  0  0  0  0
   -3.7576    5.4220  -23.6395 O   0  0  0  0  0  0  0  0  0  0  0  0
   -2.4698    5.4048  -22.9650 C   0  0  0  0  0  0  0  0  0  0  0  0
   -6.5837    4.9775  -16.5500 C   0  0  0  0  0  0  0  0  0  0  0  0
   -6.4021    5.2464  -15.2095 C   0  0  0  0  0  0  0  0  0  0  0  0
   -7.4419    4.9173  -14.3472 C   0  0  0  0  0  0  0  0  0  0  0  0
   -8.6291    4.3608  -14.8451 C   0  0  0  0  0  0  0  0  0  0  0  0
   -8.8019    4.0980  -16.2056 C   0  0  0  0  0  0  0  0  0  0  0  0
   -7.7473    4.3919  -17.0342 C   0  0  0  0  0  0  0  0  0  0  0  0
  1  2  1  0
  2  3  1  0
  3  4  2  0
  3  5  1  0
  5  6  1  0
  6  7  1  0
  7  8  2  0
  7  9  1  0
  9 10  1  0
 10 11  1  0
 11 12  1  0
 11 13  1  0
 13 14  1  0
 14 15  1  0
  5 16  1  0
 16 17  2  0
 17 18  1  0
 18 19  2  0
 19 20  1  0
 20 21  2  0
 21  2  1  0
 15 11  1  0
 21 16  1  0
M  END
>  <energy_score>  (4605) 
-26.383037

>  <alias>  (4605) 
NEOWRBCXIWXGNJ-UHFFFAOYSA-N-P8-P8-P268-601530

>  <HIPPO Pose ID>  (4605) 
84979

>  <smiles>  (4605) 
Cn1c(=O)n(CC(=O)NCC2(C)COC2)c2ccccc21

>  <inchikey>  (4605) 
NEOWRBCXIWXGNJ-UHFFFAOYSA-N

>  <distance_score>  (4605) 
1.129045

>  <ref_mols>  (4605) 
Z0101a,Z4245a

>  <ref_pdb>  (4605) 
Z0089a

>  <HIPPO Compound ID>  (4605) 
146736

>  <name>  (4605) 
NEOWRBCXIWXGNJ-UHFFFAOYSA-N-P8-P8-P268-601530

>  <inspiration_score>  (4605) 
None

$$$$
RBABGFUCMJRGAA-UHFFFAOYSA-N-P8-P8-P268-601530
     RDKit          3D

 21 24  0  0  0  0  0  0  0  0999 V2000
   -8.8118    3.8829  -19.4145 C   0  0  0  0  0  0  0  0  0  0  0  0
   -7.6976    4.2646  -18.5957 N   0  0  0  0  0  0  0  0  0  0  0  0
   -6.3513    4.3729  -18.9968 C   0  0  0  0  0  0  0  0  0  0  0  0
   -5.8517    4.2007  -20.1003 O   0  0  0  0  0  0  0  0  0  0  0  0
   -5.6125    4.6920  -17.8293 N   0  0  0  0  0  0  0  0  0  0  0  0
   -4.1821    4.5558  -17.7062 C   0  0  0  0  0  0  0  0  0  0  0  0
   -3.3910    5.7813  -18.1629 C   0  0  0  0  0  0  0  0  0  0  0  0
   -2.6763    6.3792  -17.4563 O   0  0  0  0  0  0  0  0  0  0  0  0
   -3.6687    5.9412  -19.6840 N   0  0  0  0  0  0  0  0  0  0  0  0
   -3.0697    6.7831  -20.6376 C   0  0  1  0  0  0  0  0  0  0  0  0
   -2.7501    6.2396  -22.0033 C   0  0  1  0  0  0  0  0  0  0  0  0
   -3.4425    5.0713  -22.6176 C   0  0  0  0  0  0  0  0  0  0  0  0
   -4.6876    5.5696  -23.1347 O   0  0  0  0  0  0  0  0  0  0  0  0
   -5.0422    6.7346  -22.3725 C   0  0  0  0  0  0  0  0  0  0  0  0
   -3.7729    7.3054  -21.8541 C   0  0  1  0  0  0  0  0  0  0  0  0
   -6.4881    4.6883  -16.7377 C   0  0  0  0  0  0  0  0  0  0  0  0
   -6.2276    4.8467  -15.3939 C   0  0  0  0  0  0  0  0  0  0  0  0
   -7.2997    4.6994  -14.5157 C   0  0  0  0  0  0  0  0  0  0  0  0
   -8.5879    4.4108  -14.9963 C   0  0  0  0  0  0  0  0  0  0  0  0
   -8.8421    4.2739  -16.3617 C   0  0  0  0  0  0  0  0  0  0  0  0
   -7.7696    4.4167  -17.2109 C   0  0  0  0  0  0  0  0  0  0  0  0
  1  2  1  0
  2  3  1  0
  3  4  2  0
  3  5  1  0
  5  6  1  0
  6  7  1  0
  7  8  2  0
  7  9  1  0
 10  9  1  1
 10 11  1  0
 11 12  1  1
 12 13  1  0
 13 14  1  0
 15 14  1  1
  5 16  1  0
 16 17  2  0
 17 18  1  0
 18 19  2  0
 19 20  1  0
 20 21  2  0
 21  2  1  0
 15 10  1  0
 21 16  1  0
 15 11  1  0
M  END
>  <energy_score>  (4606) 
-14.426865

>  <alias>  (4606) 
RBABGFUCMJRGAA-UHFFFAOYSA-N-P8-P8-P268-601530

>  <HIPPO Pose ID>  (4606) 
84983

>  <smiles>  (4606) 
Cn1c(=O)n(CC(=O)NC2C3COCC32)c2ccccc21

>  <inchikey>  (4606) 
RBABGFUCMJRGAA-UHFFFAOYSA-N

>  <distance_score>  (4606) 
1.154795

>  <ref_mols>  (4606) 
Z0101a,Z4245a

>  <ref_pdb>  (4606) 
Z0089a

>  <HIPPO Compound ID>  (4606) 
146738

>  <name>  (4606) 
RBABGFUCMJRGAA-UHFFFAOYSA-N-P8-P8-P268-601530

>  <inspiration_score>  (4606) 
None

$$$$
CVKNWENGKMUEHV-UHFFFAOYSA-N-P8-P8-P268-601530
     RDKit          3D

 21 22  0  0  0  0  0  0  0  0999 V2000
   -8.7913    3.8713  -19.1927 C   0  0  0  0  0  0  0  0  0  0  0  0
   -7.7058    4.2197  -18.3199 N   0  0  0  0  0  0  0  0  0  0  0  0
   -6.4578    4.7068  -18.7263 C   0  0  0  0  0  0  0  0  0  0  0  0
   -6.0140    4.7641  -19.8574 O   0  0  0  0  0  0  0  0  0  0  0  0
   -5.7893    5.2018  -17.5723 N   0  0  0  0  0  0  0  0  0  0  0  0
   -5.1453    6.5060  -17.6059 C   0  0  0  0  0  0  0  0  0  0  0  0
   -3.8519    6.6673  -18.4016 C   0  0  0  0  0  0  0  0  0  0  0  0
   -2.8077    6.7594  -17.8866 O   0  0  0  0  0  0  0  0  0  0  0  0
   -4.2480    6.7786  -19.8956 N   0  0  0  0  0  0  0  0  0  0  0  0
   -3.4359    6.9301  -21.0624 C   0  0  0  0  0  0  0  0  0  0  0  0
   -3.1300    5.5772  -21.7251 C   0  0  0  0  0  0  0  0  0  0  0  0
   -1.9656    5.8048  -22.7150 C   0  0  0  0  0  0  0  0  0  0  0  0
   -2.6895    4.5363  -20.6802 C   0  0  0  0  0  0  0  0  0  0  0  0
   -4.3364    5.0218  -22.5028 C   0  0  0  0  0  0  0  0  0  0  0  0
   -4.8624    5.9484  -23.4468 O   0  0  0  0  0  0  0  0  0  0  0  0
   -6.6296    4.9272  -16.4779 C   0  0  0  0  0  0  0  0  0  0  0  0
   -6.4198    5.2037  -15.1435 C   0  0  0  0  0  0  0  0  0  0  0  0
   -7.4516    4.9016  -14.2637 C   0  0  0  0  0  0  0  0  0  0  0  0
   -8.6567    4.3651  -14.7407 C   0  0  0  0  0  0  0  0  0  0  0  0
   -8.8581    4.0981  -16.0971 C   0  0  0  0  0  0  0  0  0  0  0  0
   -7.8128    4.3649  -16.9428 C   0  0  0  0  0  0  0  0  0  0  0  0
  1  2  1  0
  2  3  1  0
  3  4  2  0
  3  5  1  0
  5  6  1  0
  6  7  1  0
  7  8  2  0
  7  9  1  0
  9 10  1  0
 10 11  1  0
 11 12  1  0
 11 13  1  0
 11 14  1  0
 14 15  1  0
  5 16  1  0
 16 17  2  0
 17 18  1  0
 18 19  2  0
 19 20  1  0
 20 21  2  0
 21  2  1  0
 21 16  1  0
M  END
>  <energy_score>  (4607) 
-5.796944

>  <alias>  (4607) 
CVKNWENGKMUEHV-UHFFFAOYSA-N-P8-P8-P268-601530

>  <HIPPO Pose ID>  (4607) 
84985

>  <smiles>  (4607) 
Cn1c(=O)n(CC(=O)NCC(C)(C)CO)c2ccccc21

>  <inchikey>  (4607) 
CVKNWENGKMUEHV-UHFFFAOYSA-N

>  <distance_score>  (4607) 
1.115426

>  <ref_mols>  (4607) 
Z0101a,Z4245a

>  <ref_pdb>  (4607) 
Z0089a

>  <HIPPO Compound ID>  (4607) 
146739

>  <name>  (4607) 
CVKNWENGKMUEHV-UHFFFAOYSA-N-P8-P8-P268-601530

>  <inspiration_score>  (4607) 
None

$$$$
DALKIHJUXADJPQ-UHFFFAOYSA-N-P8-P8-P268-601530
     RDKit          3D

 21 23  0  0  0  0  0  0  0  0999 V2000
   -8.9025    3.8679  -19.4083 C   0  0  0  0  0  0  0  0  0  0  0  0
   -7.7543    4.2426  -18.6355 N   0  0  0  0  0  0  0  0  0  0  0  0
   -6.4200    4.3147  -19.0901 C   0  0  0  0  0  0  0  0  0  0  0  0
   -5.9951    4.0889  -20.2165 O   0  0  0  0  0  0  0  0  0  0  0  0
   -5.6389    4.6837  -17.9571 N   0  0  0  0  0  0  0  0  0  0  0  0
   -4.2076    4.5267  -17.8716 C   0  0  0  0  0  0  0  0  0  0  0  0
   -3.3518    5.7514  -18.2191 C   0  0  0  0  0  0  0  0  0  0  0  0
   -2.7901    6.4110  -17.4189 O   0  0  0  0  0  0  0  0  0  0  0  0
   -3.3320    5.8186  -19.7315 N   0  0  0  0  0  0  0  0  0  0  0  0
   -4.4415    6.7616  -20.2741 C   0  0  0  0  0  0  0  0  0  0  0  0
   -3.7275    6.6726  -21.6038 C   0  0  0  0  0  0  0  0  0  0  0  0
   -3.8433    7.7566  -22.4116 F   0  0  0  0  0  0  0  0  0  0  0  0
   -3.9589    5.3875  -22.4054 C   0  0  0  0  0  0  0  0  0  0  0  0
   -5.3147    5.3012  -22.8400 O   0  0  0  0  0  0  0  0  0  0  0  0
   -2.5201    6.6732  -20.6645 C   0  0  0  0  0  0  0  0  0  0  0  0
   -6.4787    4.7091  -16.8346 C   0  0  0  0  0  0  0  0  0  0  0  0
   -6.1750    4.8978  -15.5037 C   0  0  0  0  0  0  0  0  0  0  0  0
   -7.2173    4.7632  -14.5852 C   0  0  0  0  0  0  0  0  0  0  0  0
   -8.5207    4.4558  -15.0127 C   0  0  0  0  0  0  0  0  0  0  0  0
   -8.8185    4.2934  -16.3658 C   0  0  0  0  0  0  0  0  0  0  0  0
   -7.7755    4.4247  -17.2542 C   0  0  0  0  0  0  0  0  0  0  0  0
  1  2  1  0
  2  3  1  0
  3  4  2  0
  3  5  1  0
  5  6  1  0
  6  7  1  0
  7  8  2  0
  7  9  1  0
  9 10  1  0
 10 11  1  0
 11 12  1  0
 11 13  1  0
 13 14  1  0
 11 15  1  0
  5 16  1  0
 16 17  2  0
 17 18  1  0
 18 19  2  0
 19 20  1  0
 20 21  2  0
 21  2  1  0
 15  9  1  0
 21 16  1  0
M  END
>  <energy_score>  (4608) 
-6.135852

>  <alias>  (4608) 
DALKIHJUXADJPQ-UHFFFAOYSA-N-P8-P8-P268-601530

>  <HIPPO Pose ID>  (4608) 
84987

>  <smiles>  (4608) 
Cn1c(=O)n(CC(=O)N2CC(F)(CO)C2)c2ccccc21

>  <inchikey>  (4608) 
DALKIHJUXADJPQ-UHFFFAOYSA-N

>  <distance_score>  (4608) 
1.043059

>  <ref_mols>  (4608) 
Z0101a,Z4245a

>  <ref_pdb>  (4608) 
Z0089a

>  <HIPPO Compound ID>  (4608) 
146740

>  <name>  (4608) 
DALKIHJUXADJPQ-UHFFFAOYSA-N-P8-P8-P268-601530

>  <inspiration_score>  (4608) 
None

$$$$
HZAFZRQTHKQXFB-UHFFFAOYSA-N-P268-P8-P268-601530
     RDKit          3D

 21 22  0  0  0  0  0  0  0  0999 V2000
   -8.5665    3.7541  -19.1352 C   0  0  0  0  0  0  0  0  0  0  0  0
   -7.5541    4.2790  -18.2823 N   0  0  0  0  0  0  0  0  0  0  0  0
   -6.4443    5.0076  -18.7057 C   0  0  0  0  0  0  0  0  0  0  0  0
   -6.1237    5.2362  -19.8602 O   0  0  0  0  0  0  0  0  0  0  0  0
   -5.7936    5.5036  -17.5497 N   0  0  0  0  0  0  0  0  0  0  0  0
   -5.0871    6.7738  -17.5279 C   0  0  0  0  0  0  0  0  0  0  0  0
   -3.7865    6.8566  -18.3326 C   0  0  0  0  0  0  0  0  0  0  0  0
   -2.7356    6.9222  -17.8285 O   0  0  0  0  0  0  0  0  0  0  0  0
   -4.1902    6.9362  -19.8271 N   0  0  0  0  0  0  0  0  0  0  0  0
   -3.3803    7.0167  -21.0068 C   0  0  0  0  0  0  0  0  0  0  0  0
   -3.0000    5.6398  -21.5485 C   0  0  0  0  0  0  0  0  0  0  0  0
   -4.1513    4.6887  -21.8467 C   0  0  0  0  0  0  0  0  0  0  0  0
   -5.2590    5.3315  -22.4575 O   0  0  0  0  0  0  0  0  0  0  0  0
   -1.9956    4.9360  -20.6407 C   0  0  0  0  0  0  0  0  0  0  0  0
   -0.7293    5.5677  -20.7834 O   0  0  0  0  0  0  0  0  0  0  0  0
   -6.5731    5.1083  -16.4431 C   0  0  0  0  0  0  0  0  0  0  0  0
   -6.4160    5.3945  -15.1052 C   0  0  0  0  0  0  0  0  0  0  0  0
   -7.4159    4.9594  -14.2358 C   0  0  0  0  0  0  0  0  0  0  0  0
   -8.5454    4.2783  -14.7186 C   0  0  0  0  0  0  0  0  0  0  0  0
   -8.6874    3.9870  -16.0737 C   0  0  0  0  0  0  0  0  0  0  0  0
   -7.6719    4.3921  -16.9057 C   0  0  0  0  0  0  0  0  0  0  0  0
  1  2  1  0
  2  3  1  0
  3  4  2  0
  3  5  1  0
  5  6  1  0
  6  7  1  0
  7  8  2  0
  7  9  1  0
  9 10  1  0
 10 11  1  0
 11 12  1  0
 12 13  1  0
 11 14  1  0
 14 15  1  0
  5 16  1  0
 16 17  2  0
 17 18  1  0
 18 19  2  0
 19 20  1  0
 20 21  2  0
 21  2  1  0
 21 16  1  0
M  END
>  <energy_score>  (4609) 
-4.183983

>  <alias>  (4609) 
HZAFZRQTHKQXFB-UHFFFAOYSA-N-P268-P8-P268-601530

>  <HIPPO Pose ID>  (4609) 
84990

>  <smiles>  (4609) 
Cn1c(=O)n(CC(=O)NCC(CO)CO)c2ccccc21

>  <inchikey>  (4609) 
HZAFZRQTHKQXFB-UHFFFAOYSA-N

>  <distance_score>  (4609) 
1.254962

>  <ref_mols>  (4609) 
Z0101a,Z4245a

>  <ref_pdb>  (4609) 
Z0089a

>  <HIPPO Compound ID>  (4609) 
146741

>  <name>  (4609) 
HZAFZRQTHKQXFB-UHFFFAOYSA-N-P268-P8-P268-601530

>  <inspiration_score>  (4609) 
None

$$$$
PTIPMPRKLACHDU-UHFFFAOYSA-N-P8-P8-P268-601530
     RDKit          3D

 22 23  0  0  0  0  0  0  0  0999 V2000
   -2.5146    3.7608  -19.1086 C   0  0  0  0  0  0  0  0  0  0  0  0
   -2.5261    4.0962  -20.4772 O   0  0  0  0  0  0  0  0  0  0  0  0
   -2.4319    5.5060  -20.6434 C   0  0  0  0  0  0  0  0  0  0  0  0
   -3.0889    5.9079  -21.9719 C   0  0  1  0  0  0  0  0  0  0  0  0
   -3.3856    7.4077  -21.9584 C   0  0  0  0  0  0  0  0  0  0  0  0
   -2.1320    5.6593  -23.0252 O   0  0  0  0  0  0  0  0  0  0  0  0
   -4.3511    5.1016  -22.3115 C   0  0  0  0  0  0  0  0  0  0  0  0
   -5.2322    4.9710  -21.1958 N   0  0  0  0  0  0  0  0  0  0  0  0
   -6.3065    3.9275  -20.8956 C   0  0  0  0  0  0  0  0  0  0  0  0
   -6.7042    3.0461  -21.5431 O   0  0  0  0  0  0  0  0  0  0  0  0
   -6.8308    4.0690  -19.4507 C   0  0  0  0  0  0  0  0  0  0  0  0
   -6.9079    5.1988  -18.5549 N   0  0  0  0  0  0  0  0  0  0  0  0
   -5.7291    5.9086  -18.2923 C   0  0  0  0  0  0  0  0  0  0  0  0
   -4.9925    6.3751  -19.1436 O   0  0  0  0  0  0  0  0  0  0  0  0
   -5.5421    5.9896  -16.9189 N   0  0  0  0  0  0  0  0  0  0  0  0
   -4.4280    6.5953  -16.2488 C   0  0  0  0  0  0  0  0  0  0  0  0
   -6.6009    5.3482  -16.2917 C   0  0  0  0  0  0  0  0  0  0  0  0
   -6.8511    5.1570  -14.9539 C   0  0  0  0  0  0  0  0  0  0  0  0
   -8.0364    4.5057  -14.6314 C   0  0  0  0  0  0  0  0  0  0  0  0
   -8.9101    4.0721  -15.6454 C   0  0  0  0  0  0  0  0  0  0  0  0
   -8.6214    4.2264  -16.9940 C   0  0  0  0  0  0  0  0  0  0  0  0
   -7.4552    4.8842  -17.2880 C   0  0  0  0  0  0  0  0  0  0  0  0
  1  2  1  0
  2  3  1  0
  3  4  1  0
  4  5  1  1
  4  6  1  0
  4  7  1  0
  7  8  1  0
  8  9  1  0
  9 10  2  0
  9 11  1  0
 11 12  1  0
 12 13  1  0
 13 14  2  0
 13 15  1  0
 15 16  1  0
 15 17  1  0
 17 18  2  0
 18 19  1  0
 19 20  2  0
 20 21  1  0
 21 22  2  0
 22 12  1  0
 22 17  1  0
M  END
>  <energy_score>  (4610) 
-15.568213

>  <alias>  (4610) 
PTIPMPRKLACHDU-UHFFFAOYSA-N-P8-P8-P268-601530

>  <HIPPO Pose ID>  (4610) 
84993

>  <smiles>  (4610) 
COCC(C)(O)CNC(=O)Cn1c(=O)n(C)c2ccccc21

>  <inchikey>  (4610) 
PTIPMPRKLACHDU-UHFFFAOYSA-N

>  <distance_score>  (4610) 
1.550516

>  <ref_mols>  (4610) 
Z0101a,Z4245a

>  <ref_pdb>  (4610) 
Z0089a

>  <HIPPO Compound ID>  (4610) 
146743

>  <name>  (4610) 
PTIPMPRKLACHDU-UHFFFAOYSA-N-P8-P8-P268-601530

>  <inspiration_score>  (4610) 
None

$$$$
HUWQJNZPUSDQOL-UHFFFAOYSA-N-P8-P8-P268-601530
     RDKit          3D

 22 24  0  0  0  0  0  0  0  0999 V2000
   -8.6725    3.8781  -19.3093 C   0  0  0  0  0  0  0  0  0  0  0  0
   -7.6022    4.2489  -18.4262 N   0  0  0  0  0  0  0  0  0  0  0  0
   -6.3415    4.7401  -18.8074 C   0  0  0  0  0  0  0  0  0  0  0  0
   -5.8887    4.8433  -19.9346 O   0  0  0  0  0  0  0  0  0  0  0  0
   -5.6807    5.1724  -17.6195 N   0  0  0  0  0  0  0  0  0  0  0  0
   -4.8968    6.3965  -17.5596 C   0  0  0  0  0  0  0  0  0  0  0  0
   -3.6621    6.5379  -18.4534 C   0  0  0  0  0  0  0  0  0  0  0  0
   -2.5714    6.4252  -18.0514 O   0  0  0  0  0  0  0  0  0  0  0  0
   -4.1783    6.9388  -19.8601 N   0  0  0  0  0  0  0  0  0  0  0  0
   -3.4639    7.1888  -21.0770 C   0  0  0  0  0  0  0  0  0  0  0  0
   -3.4466    5.8764  -21.8491 C   0  0  0  0  0  0  0  0  0  0  0  0
   -2.8095    4.7423  -21.0676 C   0  0  0  0  0  0  0  0  0  0  0  0
   -2.5761    3.6326  -21.9267 O   0  0  0  0  0  0  0  0  0  0  0  0
   -4.7686    5.5457  -22.5571 C   0  0  0  0  0  0  0  0  0  0  0  0
   -4.2869    6.1163  -23.8019 O   0  0  0  0  0  0  0  0  0  0  0  0
   -2.9284    6.0950  -23.2864 C   0  0  0  0  0  0  0  0  0  0  0  0
   -6.5537    4.9009  -16.5474 C   0  0  0  0  0  0  0  0  0  0  0  0
   -6.3785    5.1536  -15.2024 C   0  0  0  0  0  0  0  0  0  0  0  0
   -7.4392    4.8574  -14.3537 C   0  0  0  0  0  0  0  0  0  0  0  0
   -8.6398    4.3476  -14.8684 C   0  0  0  0  0  0  0  0  0  0  0  0
   -8.8078    4.1024  -16.2323 C   0  0  0  0  0  0  0  0  0  0  0  0
   -7.7354    4.3682  -17.0480 C   0  0  0  0  0  0  0  0  0  0  0  0
  1  2  1  0
  2  3  1  0
  3  4  2  0
  3  5  1  0
  5  6  1  0
  6  7  1  0
  7  8  2  0
  7  9  1  0
  9 10  1  0
 10 11  1  0
 11 12  1  0
 12 13  1  0
 11 14  1  0
 14 15  1  0
 15 16  1  0
  5 17  1  0
 17 18  2  0
 18 19  1  0
 19 20  2  0
 20 21  1  0
 21 22  2  0
 22  2  1  0
 16 11  1  0
 22 17  1  0
M  END
>  <energy_score>  (4611) 
-21.248679

>  <alias>  (4611) 
HUWQJNZPUSDQOL-UHFFFAOYSA-N-P8-P8-P268-601530

>  <HIPPO Pose ID>  (4611) 
84995

>  <smiles>  (4611) 
Cn1c(=O)n(CC(=O)NCC2(CO)COC2)c2ccccc21

>  <inchikey>  (4611) 
HUWQJNZPUSDQOL-UHFFFAOYSA-N

>  <distance_score>  (4611) 
1.152765

>  <ref_mols>  (4611) 
Z0101a,Z4245a

>  <ref_pdb>  (4611) 
Z0089a

>  <HIPPO Compound ID>  (4611) 
146744

>  <name>  (4611) 
HUWQJNZPUSDQOL-UHFFFAOYSA-N-P8-P8-P268-601530

>  <inspiration_score>  (4611) 
None

$$$$
VSSHFPUXFYCHFI-UHFFFAOYSA-N-P268-P8-P268-601530
     RDKit          3D

 22 23  0  0  0  0  0  0  0  0999 V2000
   -2.9627    8.8899  -18.8119 C   0  0  0  0  0  0  0  0  0  0  0  0
   -2.8143    8.2231  -20.0638 O   0  0  0  0  0  0  0  0  0  0  0  0
   -3.9725    8.0685  -20.7619 C   0  0  0  0  0  0  0  0  0  0  0  0
   -5.0484    8.5606  -20.4286 O   0  0  0  0  0  0  0  0  0  0  0  0
   -3.7442    7.3030  -22.0583 C   0  0  1  0  0  0  0  0  0  0  0  0
   -2.6147    6.2753  -21.9848 C   0  0  0  0  0  0  0  0  0  0  0  0
   -5.0531    6.6639  -22.5296 C   0  0  0  0  0  0  0  0  0  0  0  0
   -5.6799    5.8194  -21.5488 N   0  0  0  0  0  0  0  0  0  0  0  0
   -5.5901    4.2907  -21.3351 C   0  0  0  0  0  0  0  0  0  0  0  0
   -4.9337    3.4890  -21.8731 O   0  0  0  0  0  0  0  0  0  0  0  0
   -6.5978    3.9102  -20.1978 C   0  0  0  0  0  0  0  0  0  0  0  0
   -6.4285    4.6682  -18.9916 N   0  0  0  0  0  0  0  0  0  0  0  0
   -5.1406    4.9888  -18.5298 C   0  0  0  0  0  0  0  0  0  0  0  0
   -4.1210    4.9812  -19.1967 O   0  0  0  0  0  0  0  0  0  0  0  0
   -5.2437    5.2831  -17.1691 N   0  0  0  0  0  0  0  0  0  0  0  0
   -4.1401    5.5742  -16.3008 C   0  0  0  0  0  0  0  0  0  0  0  0
   -6.5314    4.9522  -16.7461 C   0  0  0  0  0  0  0  0  0  0  0  0
   -7.0457    4.9103  -15.4694 C   0  0  0  0  0  0  0  0  0  0  0  0
   -8.3562    4.4615  -15.3360 C   0  0  0  0  0  0  0  0  0  0  0  0
   -9.1013    4.0792  -16.4689 C   0  0  0  0  0  0  0  0  0  0  0  0
   -8.5591    4.1094  -17.7564 C   0  0  0  0  0  0  0  0  0  0  0  0
   -7.2662    4.5595  -17.8693 C   0  0  0  0  0  0  0  0  0  0  0  0
  1  2  1  0
  2  3  1  0
  3  4  2  0
  3  5  1  0
  5  6  1  1
  5  7  1  0
  7  8  1  0
  8  9  1  0
  9 10  2  0
  9 11  1  0
 11 12  1  0
 12 13  1  0
 13 14  2  0
 13 15  1  0
 15 16  1  0
 15 17  1  0
 17 18  2  0
 18 19  1  0
 19 20  2  0
 20 21  1  0
 21 22  2  0
 22 12  1  0
 22 17  1  0
M  END
>  <energy_score>  (4612) 
-8.524975

>  <alias>  (4612) 
VSSHFPUXFYCHFI-UHFFFAOYSA-N-P268-P8-P268-601530

>  <HIPPO Pose ID>  (4612) 
85000

>  <smiles>  (4612) 
COC(=O)C(C)CNC(=O)Cn1c(=O)n(C)c2ccccc21

>  <inchikey>  (4612) 
VSSHFPUXFYCHFI-UHFFFAOYSA-N

>  <distance_score>  (4612) 
1.747503

>  <ref_mols>  (4612) 
Z0101a,Z4245a

>  <ref_pdb>  (4612) 
Z0089a

>  <HIPPO Compound ID>  (4612) 
146746

>  <name>  (4612) 
VSSHFPUXFYCHFI-UHFFFAOYSA-N-P268-P8-P268-601530

>  <inspiration_score>  (4612) 
None

$$$$
JFQHHSKWTMDQHX-UHFFFAOYSA-N-P268-P8-P268-601530
     RDKit          3D

 22 24  0  0  0  0  0  0  0  0999 V2000
   -8.4192    3.7376  -19.3173 C   0  0  0  0  0  0  0  0  0  0  0  0
   -7.4437    4.2997  -18.4512 N   0  0  0  0  0  0  0  0  0  0  0  0
   -6.2664    4.9499  -18.8493 C   0  0  0  0  0  0  0  0  0  0  0  0
   -5.8826    5.1274  -19.9956 O   0  0  0  0  0  0  0  0  0  0  0  0
   -5.6408    5.3923  -17.6567 N   0  0  0  0  0  0  0  0  0  0  0  0
   -4.6306    6.4212  -17.5863 C   0  0  0  0  0  0  0  0  0  0  0  0
   -3.1841    5.9914  -17.8627 C   0  0  0  0  0  0  0  0  0  0  0  0
   -2.3037    6.1961  -17.1047 O   0  0  0  0  0  0  0  0  0  0  0  0
   -3.1589    5.3995  -19.2561 N   0  0  0  0  0  0  0  0  0  0  0  0
   -2.0194    4.8020  -20.0548 C   0  0  0  0  0  0  0  0  0  0  0  0
   -2.6411    5.3959  -21.3145 C   0  0  0  0  0  0  0  0  0  0  0  0
   -1.6521    5.8526  -22.3785 C   0  0  0  0  0  0  0  0  0  0  0  0
   -2.2775    6.7866  -23.2583 O   0  0  0  0  0  0  0  0  0  0  0  0
   -3.7684    4.5571  -21.9112 C   0  0  0  0  0  0  0  0  0  0  0  0
   -4.7569    5.4021  -22.5010 O   0  0  0  0  0  0  0  0  0  0  0  0
   -2.9785    6.4965  -20.3349 C   0  0  0  0  0  0  0  0  0  0  0  0
   -6.4704    5.0526  -16.5749 C   0  0  0  0  0  0  0  0  0  0  0  0
   -6.3306    5.3025  -15.2282 C   0  0  0  0  0  0  0  0  0  0  0  0
   -7.3735    4.9009  -14.3904 C   0  0  0  0  0  0  0  0  0  0  0  0
   -8.5240    4.2826  -14.9109 C   0  0  0  0  0  0  0  0  0  0  0  0
   -8.6484    4.0272  -16.2747 C   0  0  0  0  0  0  0  0  0  0  0  0
   -7.5957    4.4068  -17.0755 C   0  0  0  0  0  0  0  0  0  0  0  0
  1  2  1  0
  2  3  1  0
  3  4  2  0
  3  5  1  0
  5  6  1  0
  6  7  1  0
  7  8  2  0
  7  9  1  0
  9 10  1  0
 10 11  1  0
 11 12  1  0
 12 13  1  0
 11 14  1  0
 14 15  1  0
 11 16  1  0
  5 17  1  0
 17 18  2  0
 18 19  1  0
 19 20  2  0
 20 21  1  0
 21 22  2  0
 22  2  1  0
 16  9  1  0
 22 17  1  0
M  END
>  <energy_score>  (4613) 
-12.910118

>  <alias>  (4613) 
JFQHHSKWTMDQHX-UHFFFAOYSA-N-P268-P8-P268-601530

>  <HIPPO Pose ID>  (4613) 
85002

>  <smiles>  (4613) 
Cn1c(=O)n(CC(=O)N2CC(CO)(CO)C2)c2ccccc21

>  <inchikey>  (4613) 
JFQHHSKWTMDQHX-UHFFFAOYSA-N

>  <distance_score>  (4613) 
1.133632

>  <ref_mols>  (4613) 
Z0101a,Z4245a

>  <ref_pdb>  (4613) 
Z0089a

>  <HIPPO Compound ID>  (4613) 
146747

>  <name>  (4613) 
JFQHHSKWTMDQHX-UHFFFAOYSA-N-P268-P8-P268-601530

>  <inspiration_score>  (4613) 
None

$$$$
QQSDVFCXRLIJGJ-UHFFFAOYSA-N-P8-P8-P268-601530
     RDKit          3D

 22 25  0  0  0  0  0  0  0  0999 V2000
   -8.8180    3.8665  -19.4276 C   0  0  0  0  0  0  0  0  0  0  0  0
   -7.7000    4.2761  -18.6276 N   0  0  0  0  0  0  0  0  0  0  0  0
   -6.3581    4.3825  -19.0449 C   0  0  0  0  0  0  0  0  0  0  0  0
   -5.8804    4.1377  -20.1455 O   0  0  0  0  0  0  0  0  0  0  0  0
   -5.6104    4.7731  -17.8968 N   0  0  0  0  0  0  0  0  0  0  0  0
   -4.1791    4.6125  -17.7680 C   0  0  0  0  0  0  0  0  0  0  0  0
   -3.3489    5.6158  -18.5734 C   0  0  0  0  0  0  0  0  0  0  0  0
   -2.7511    6.4937  -18.0853 O   0  0  0  0  0  0  0  0  0  0  0  0
   -3.4126    5.1409  -20.0506 N   0  0  0  0  0  0  0  0  0  0  0  0
   -2.6806    5.5895  -21.2124 C   0  0  1  0  0  0  0  0  0  0  0  0
   -3.0278    4.8115  -22.4970 C   0  0  0  0  0  0  0  0  0  0  0  0
   -3.6489    6.0825  -23.0907 C   0  0  1  0  0  0  0  0  0  0  0  0
   -5.1494    6.2645  -23.1090 C   0  0  0  0  0  0  0  0  0  0  0  0
   -5.3726    7.5420  -22.5059 O   0  0  0  0  0  0  0  0  0  0  0  0
   -4.4778    7.5729  -21.3872 C   0  0  0  0  0  0  0  0  0  0  0  0
   -3.2118    6.8816  -21.8572 C   0  0  1  0  0  0  0  0  0  0  0  0
   -6.4790    4.7500  -16.7922 C   0  0  0  0  0  0  0  0  0  0  0  0
   -6.2145    4.9197  -15.4494 C   0  0  0  0  0  0  0  0  0  0  0  0
   -7.2754    4.7516  -14.5590 C   0  0  0  0  0  0  0  0  0  0  0  0
   -8.5608    4.4302  -15.0241 C   0  0  0  0  0  0  0  0  0  0  0  0
   -8.8217    4.2821  -16.3860 C   0  0  0  0  0  0  0  0  0  0  0  0
   -7.7592    4.4449  -17.2463 C   0  0  0  0  0  0  0  0  0  0  0  0
  1  2  1  0
  2  3  1  0
  3  4  2  0
  3  5  1  0
  5  6  1  0
  6  7  1  0
  7  8  2  0
  7  9  1  0
 10  9  1  1
 10 11  1  0
 12 11  1  1
 12 13  1  0
 13 14  1  0
 14 15  1  0
 16 15  1  1
  5 17  1  0
 17 18  2  0
 18 19  1  0
 19 20  2  0
 20 21  1  0
 21 22  2  0
 22  2  1  0
 16 10  1  0
 22 17  1  0
 16 12  1  0
M  END
>  <energy_score>  (4614) 
-5.470727

>  <alias>  (4614) 
QQSDVFCXRLIJGJ-UHFFFAOYSA-N-P8-P8-P268-601530

>  <HIPPO Pose ID>  (4614) 
85007

>  <smiles>  (4614) 
Cn1c(=O)n(CC(=O)NC2CC3COCC32)c2ccccc21

>  <inchikey>  (4614) 
QQSDVFCXRLIJGJ-UHFFFAOYSA-N

>  <distance_score>  (4614) 
1.151747

>  <ref_mols>  (4614) 
Z0101a,Z4245a

>  <ref_pdb>  (4614) 
Z0089a

>  <HIPPO Compound ID>  (4614) 
146750

>  <name>  (4614) 
QQSDVFCXRLIJGJ-UHFFFAOYSA-N-P8-P8-P268-601530

>  <inspiration_score>  (4614) 
None

$$$$
HFADJQFNGFCUTC-UHFFFAOYSA-N-P8-P8-P268-601530
     RDKit          3D

 22 25  0  0  0  0  0  0  0  0999 V2000
   -9.0451    3.8303  -19.2503 C   0  0  0  0  0  0  0  0  0  0  0  0
   -7.8895    4.1216  -18.4564 N   0  0  0  0  0  0  0  0  0  0  0  0
   -6.6099    4.4120  -18.9421 C   0  0  0  0  0  0  0  0  0  0  0  0
   -6.2027    4.3421  -20.0905 O   0  0  0  0  0  0  0  0  0  0  0  0
   -5.8314    4.8470  -17.8381 N   0  0  0  0  0  0  0  0  0  0  0  0
   -4.8428    5.8945  -17.9539 C   0  0  0  0  0  0  0  0  0  0  0  0
   -3.4901    5.5804  -18.5933 C   0  0  0  0  0  0  0  0  0  0  0  0
   -2.4825    5.8151  -18.0491 O   0  0  0  0  0  0  0  0  0  0  0  0
   -3.7584    5.0424  -20.0211 N   0  0  0  0  0  0  0  0  0  0  0  0
   -2.8773    4.7808  -21.0718 C   0  0  2  0  0  0  0  0  0  0  0  0
   -2.4631    5.9188  -21.9613 C   0  0  2  0  0  0  0  0  0  0  0  0
   -3.0493    7.2959  -21.8505 C   0  0  0  0  0  0  0  0  0  0  0  0
   -4.5438    7.3656  -22.1526 C   0  0  0  0  0  0  0  0  0  0  0  0
   -4.9082    6.3962  -23.2632 C   0  0  0  0  0  0  0  0  0  0  0  0
   -4.6742    5.0628  -22.8187 O   0  0  0  0  0  0  0  0  0  0  0  0
   -3.2855    4.7927  -22.5252 C   0  0  2  0  0  0  0  0  0  0  0  0
   -6.6395    4.7520  -16.6941 C   0  0  0  0  0  0  0  0  0  0  0  0
   -6.3354    5.0375  -15.3802 C   0  0  0  0  0  0  0  0  0  0  0  0
   -7.3438    4.8476  -14.4390 C   0  0  0  0  0  0  0  0  0  0  0  0
   -8.6174    4.4074  -14.8339 C   0  0  0  0  0  0  0  0  0  0  0  0
   -8.9170    4.1463  -16.1724 C   0  0  0  0  0  0  0  0  0  0  0  0
   -7.9009    4.3097  -17.0792 C   0  0  0  0  0  0  0  0  0  0  0  0
  1  2  1  0
  2  3  1  0
  3  4  2  0
  3  5  1  0
  5  6  1  0
  6  7  1  0
  7  8  2  0
  7  9  1  0
 10  9  1  1
 10 11  1  0
 11 12  1  1
 12 13  1  0
 13 14  1  0
 14 15  1  0
 16 15  1  1
  5 17  1  0
 17 18  2  0
 18 19  1  0
 19 20  2  0
 20 21  1  0
 21 22  2  0
 22  2  1  0
 16 10  1  0
 22 17  1  0
 16 11  1  0
M  END
>  <energy_score>  (4615) 
-11.290875

>  <alias>  (4615) 
HFADJQFNGFCUTC-UHFFFAOYSA-N-P8-P8-P268-601530

>  <HIPPO Pose ID>  (4615) 
85009

>  <smiles>  (4615) 
Cn1c(=O)n(CC(=O)NC2C3CCCOC32)c2ccccc21

>  <inchikey>  (4615) 
HFADJQFNGFCUTC-UHFFFAOYSA-N

>  <distance_score>  (4615) 
1.158777

>  <ref_mols>  (4615) 
Z0101a,Z4245a

>  <ref_pdb>  (4615) 
Z0089a

>  <HIPPO Compound ID>  (4615) 
146751

>  <name>  (4615) 
HFADJQFNGFCUTC-UHFFFAOYSA-N-P8-P8-P268-601530

>  <inspiration_score>  (4615) 
None

$$$$
NSMBXXDPCJZWCO-UHFFFAOYSA-N-P8-P8-P268-601530
     RDKit          3D

 22 23  0  0  0  0  0  0  0  0999 V2000
  -10.1143    4.4407  -19.2028 C   0  0  0  0  0  0  0  0  0  0  0  0
   -8.7726    3.7536  -19.2292 C   0  0  0  0  0  0  0  0  0  0  0  0
   -7.7329    4.3244  -18.4122 N   0  0  0  0  0  0  0  0  0  0  0  0
   -6.3624    4.3906  -18.7830 C   0  0  0  0  0  0  0  0  0  0  0  0
   -5.8606    4.1194  -19.8655 O   0  0  0  0  0  0  0  0  0  0  0  0
   -5.6481    4.7543  -17.6032 N   0  0  0  0  0  0  0  0  0  0  0  0
   -4.2223    4.5938  -17.4157 C   0  0  0  0  0  0  0  0  0  0  0  0
   -3.4648    5.6943  -18.1451 C   0  0  0  0  0  0  0  0  0  0  0  0
   -3.1815    6.7202  -17.6668 O   0  0  0  0  0  0  0  0  0  0  0  0
   -3.2838    5.1789  -19.5920 N   0  0  0  0  0  0  0  0  0  0  0  0
   -2.8099    5.8444  -20.7581 C   0  0  0  0  0  0  0  0  0  0  0  0
   -4.0426    6.3831  -21.4880 C   0  0  1  0  0  0  0  0  0  0  0  0
   -3.9145    7.8871  -21.6809 C   0  0  0  0  0  0  0  0  0  0  0  0
   -4.2534    5.6019  -22.7873 C   0  0  0  0  0  0  0  0  0  0  0  0
   -5.4327    6.0238  -23.4668 O   0  0  0  0  0  0  0  0  0  0  0  0
   -5.1835    6.8292  -24.6096 C   0  0  0  0  0  0  0  0  0  0  0  0
   -6.5456    4.7514  -16.5318 C   0  0  0  0  0  0  0  0  0  0  0  0
   -6.2998    4.9213  -15.1848 C   0  0  0  0  0  0  0  0  0  0  0  0
   -7.3672    4.7434  -14.3119 C   0  0  0  0  0  0  0  0  0  0  0  0
   -8.6351    4.4044  -14.8014 C   0  0  0  0  0  0  0  0  0  0  0  0
   -8.8739    4.2554  -16.1687 C   0  0  0  0  0  0  0  0  0  0  0  0
   -7.8121    4.4499  -17.0202 C   0  0  0  0  0  0  0  0  0  0  0  0
  1  2  1  0
  2  3  1  0
  3  4  1  0
  4  5  2  0
  4  6  1  0
  6  7  1  0
  7  8  1  0
  8  9  2  0
  8 10  1  0
 10 11  1  0
 11 12  1  0
 12 13  1  6
 12 14  1  0
 14 15  1  0
 15 16  1  0
  6 17  1  0
 17 18  2  0
 18 19  1  0
 19 20  2  0
 20 21  1  0
 21 22  2  0
 22  3  1  0
 22 17  1  0
M  END
>  <energy_score>  (4616) 
-4.24464

>  <alias>  (4616) 
NSMBXXDPCJZWCO-UHFFFAOYSA-N-P8-P8-P268-601530

>  <HIPPO Pose ID>  (4616) 
85017

>  <smiles>  (4616) 
CCn1c(=O)n(CC(=O)NCC(C)COC)c2ccccc21

>  <inchikey>  (4616) 
NSMBXXDPCJZWCO-UHFFFAOYSA-N

>  <distance_score>  (4616) 
1.184712

>  <ref_mols>  (4616) 
Z0101a,Z4245a

>  <ref_pdb>  (4616) 
Z0089a

>  <HIPPO Compound ID>  (4616) 
146755

>  <name>  (4616) 
NSMBXXDPCJZWCO-UHFFFAOYSA-N-P8-P8-P268-601530

>  <inspiration_score>  (4616) 
None

$$$$
OUIVPHWJCSFTJG-UHFFFAOYSA-N-P8-P8-P268-601530
     RDKit          3D

 22 23  0  0  0  0  0  0  0  0999 V2000
  -10.2263    4.4487  -19.0879 C   0  0  0  0  0  0  0  0  0  0  0  0
   -8.9085    3.7170  -19.0410 C   0  0  0  0  0  0  0  0  0  0  0  0
   -7.8427    4.3491  -18.3041 N   0  0  0  0  0  0  0  0  0  0  0  0
   -6.4950    4.4156  -18.7283 C   0  0  0  0  0  0  0  0  0  0  0  0
   -6.0488    4.0718  -19.8145 O   0  0  0  0  0  0  0  0  0  0  0  0
   -5.7294    4.8671  -17.6053 N   0  0  0  0  0  0  0  0  0  0  0  0
   -4.2892    4.7088  -17.4380 C   0  0  0  0  0  0  0  0  0  0  0  0
   -3.4438    5.5612  -18.3855 C   0  0  0  0  0  0  0  0  0  0  0  0
   -2.8239    6.4940  -18.0623 O   0  0  0  0  0  0  0  0  0  0  0  0
   -3.6103    4.9021  -19.7701 N   0  0  0  0  0  0  0  0  0  0  0  0
   -3.1269    5.3070  -21.0601 C   0  0  1  0  0  0  0  0  0  0  0  0
   -2.8606    4.0407  -21.8638 C   0  0  0  0  0  0  0  0  0  0  0  0
   -4.2438    6.1691  -21.6675 C   0  0  1  0  0  0  0  0  0  0  0  0
   -4.2250    7.5917  -21.0974 C   0  0  0  0  0  0  0  0  0  0  0  0
   -4.2264    6.2039  -23.1884 C   0  0  0  0  0  0  0  0  0  0  0  0
   -5.4874    6.6548  -23.6685 O   0  0  0  0  0  0  0  0  0  0  0  0
   -6.5844    4.8499  -16.4910 C   0  0  0  0  0  0  0  0  0  0  0  0
   -6.2928    5.0313  -15.1542 C   0  0  0  0  0  0  0  0  0  0  0  0
   -7.3195    4.8243  -14.2364 C   0  0  0  0  0  0  0  0  0  0  0  0
   -8.5971    4.4461  -14.6687 C   0  0  0  0  0  0  0  0  0  0  0  0
   -8.8834    4.2854  -16.0236 C   0  0  0  0  0  0  0  0  0  0  0  0
   -7.8614    4.5049  -16.9166 C   0  0  0  0  0  0  0  0  0  0  0  0
  1  2  1  0
  2  3  1  0
  3  4  1  0
  4  5  2  0
  4  6  1  0
  6  7  1  0
  7  8  1  0
  8  9  2  0
  8 10  1  0
 10 11  1  0
 11 12  1  6
 11 13  1  0
 13 14  1  1
 13 15  1  0
 15 16  1  0
  6 17  1  0
 17 18  2  0
 18 19  1  0
 19 20  2  0
 20 21  1  0
 21 22  2  0
 22  3  1  0
 22 17  1  0
M  END
>  <energy_score>  (4617) 
-7.466584

>  <alias>  (4617) 
OUIVPHWJCSFTJG-UHFFFAOYSA-N-P8-P8-P268-601530

>  <HIPPO Pose ID>  (4617) 
85021

>  <smiles>  (4617) 
CCn1c(=O)n(CC(=O)NC(C)C(C)CO)c2ccccc21

>  <inchikey>  (4617) 
OUIVPHWJCSFTJG-UHFFFAOYSA-N

>  <distance_score>  (4617) 
1.259774

>  <ref_mols>  (4617) 
Z0101a,Z4245a

>  <ref_pdb>  (4617) 
Z0089a

>  <HIPPO Compound ID>  (4617) 
146757

>  <name>  (4617) 
OUIVPHWJCSFTJG-UHFFFAOYSA-N-P8-P8-P268-601530

>  <inspiration_score>  (4617) 
None

$$$$
SWIWQPFIZMVZIJ-UHFFFAOYSA-N-P8-P8-P268-601530
     RDKit          3D

 22 23  0  0  0  0  0  0  0  0999 V2000
  -10.1890    4.4394  -19.0673 C   0  0  0  0  0  0  0  0  0  0  0  0
   -8.8893    3.6757  -18.9943 C   0  0  0  0  0  0  0  0  0  0  0  0
   -7.8362    4.2788  -18.2178 N   0  0  0  0  0  0  0  0  0  0  0  0
   -6.5842    4.7161  -18.6810 C   0  0  0  0  0  0  0  0  0  0  0  0
   -6.1332    4.6743  -19.8109 O   0  0  0  0  0  0  0  0  0  0  0  0
   -5.8845    5.2602  -17.5641 N   0  0  0  0  0  0  0  0  0  0  0  0
   -5.2780    6.5746  -17.6626 C   0  0  0  0  0  0  0  0  0  0  0  0
   -3.9682    6.7085  -18.4298 C   0  0  0  0  0  0  0  0  0  0  0  0
   -2.9345    6.8012  -17.8943 O   0  0  0  0  0  0  0  0  0  0  0  0
   -4.3310    6.7943  -19.9336 N   0  0  0  0  0  0  0  0  0  0  0  0
   -3.4926    6.9158  -21.0854 C   0  0  0  0  0  0  0  0  0  0  0  0
   -3.1751    5.5507  -21.7124 C   0  0  0  0  0  0  0  0  0  0  0  0
   -2.0167    5.7609  -22.7124 C   0  0  0  0  0  0  0  0  0  0  0  0
   -2.7218    4.5421  -20.6421 C   0  0  0  0  0  0  0  0  0  0  0  0
   -4.3853    4.9744  -22.4662 C   0  0  0  0  0  0  0  0  0  0  0  0
   -4.9113    5.8771  -23.4338 O   0  0  0  0  0  0  0  0  0  0  0  0
   -6.6727    4.9981  -16.4312 C   0  0  0  0  0  0  0  0  0  0  0  0
   -6.3983    5.2785  -15.1093 C   0  0  0  0  0  0  0  0  0  0  0  0
   -7.3723    4.9464  -14.1743 C   0  0  0  0  0  0  0  0  0  0  0  0
   -8.5834    4.3695  -14.5833 C   0  0  0  0  0  0  0  0  0  0  0  0
   -8.8458    4.0991  -15.9279 C   0  0  0  0  0  0  0  0  0  0  0  0
   -7.8636    4.4104  -16.8325 C   0  0  0  0  0  0  0  0  0  0  0  0
  1  2  1  0
  2  3  1  0
  3  4  1  0
  4  5  2  0
  4  6  1  0
  6  7  1  0
  7  8  1  0
  8  9  2  0
  8 10  1  0
 10 11  1  0
 11 12  1  0
 12 13  1  0
 12 14  1  0
 12 15  1  0
 15 16  1  0
  6 17  1  0
 17 18  2  0
 18 19  1  0
 19 20  2  0
 20 21  1  0
 21 22  2  0
 22  3  1  0
 22 17  1  0
M  END
>  <energy_score>  (4618) 
-17.166241

>  <alias>  (4618) 
SWIWQPFIZMVZIJ-UHFFFAOYSA-N-P8-P8-P268-601530

>  <HIPPO Pose ID>  (4618) 
85023

>  <smiles>  (4618) 
CCn1c(=O)n(CC(=O)NCC(C)(C)CO)c2ccccc21

>  <inchikey>  (4618) 
SWIWQPFIZMVZIJ-UHFFFAOYSA-N

>  <distance_score>  (4618) 
1.20041

>  <ref_mols>  (4618) 
Z0101a,Z4245a

>  <ref_pdb>  (4618) 
Z0089a

>  <HIPPO Compound ID>  (4618) 
146758

>  <name>  (4618) 
SWIWQPFIZMVZIJ-UHFFFAOYSA-N-P8-P8-P268-601530

>  <inspiration_score>  (4618) 
None

$$$$
AMKQYECIHYAHKD-UHFFFAOYSA-N-P268-P8-P268-601530
     RDKit          3D

 22 23  0  0  0  0  0  0  0  0999 V2000
   -9.1561    2.5920  -18.2618 C   0  0  0  0  0  0  0  0  0  0  0  0
   -8.6429    3.9037  -18.8255 C   0  0  0  0  0  0  0  0  0  0  0  0
   -7.5940    4.4435  -18.0153 N   0  0  0  0  0  0  0  0  0  0  0  0
   -6.3252    4.8655  -18.4494 C   0  0  0  0  0  0  0  0  0  0  0  0
   -5.9133    4.8992  -19.6030 O   0  0  0  0  0  0  0  0  0  0  0  0
   -5.6268    5.2656  -17.2741 N   0  0  0  0  0  0  0  0  0  0  0  0
   -4.5141    6.1856  -17.2001 C   0  0  0  0  0  0  0  0  0  0  0  0
   -3.1807    5.6297  -17.6879 C   0  0  0  0  0  0  0  0  0  0  0  0
   -2.2512    5.4522  -17.0091 O   0  0  0  0  0  0  0  0  0  0  0  0
   -3.3466    5.4825  -19.2116 N   0  0  0  0  0  0  0  0  0  0  0  0
   -2.3930    5.1821  -20.2176 C   0  0  0  0  0  0  0  0  0  0  0  0
   -2.8324    5.8003  -21.5482 C   0  0  0  0  0  0  0  0  0  0  0  0
   -3.8382    4.9253  -22.2968 C   0  0  0  0  0  0  0  0  0  0  0  0
   -5.1972    5.2980  -22.1403 O   0  0  0  0  0  0  0  0  0  0  0  0
   -3.2722    7.2729  -21.4341 C   0  0  0  0  0  0  0  0  0  0  0  0
   -4.5286    7.4568  -20.7866 O   0  0  0  0  0  0  0  0  0  0  0  0
   -6.4724    5.0723  -16.1728 C   0  0  0  0  0  0  0  0  0  0  0  0
   -6.2428    5.2749  -14.8293 C   0  0  0  0  0  0  0  0  0  0  0  0
   -7.2871    4.9987  -13.9462 C   0  0  0  0  0  0  0  0  0  0  0  0
   -8.5350    4.5707  -14.4190 C   0  0  0  0  0  0  0  0  0  0  0  0
   -8.7583    4.4044  -15.7817 C   0  0  0  0  0  0  0  0  0  0  0  0
   -7.6939    4.6163  -16.6337 C   0  0  0  0  0  0  0  0  0  0  0  0
  1  2  1  0
  2  3  1  0
  3  4  1  0
  4  5  2  0
  4  6  1  0
  6  7  1  0
  7  8  1  0
  8  9  2  0
  8 10  1  0
 10 11  1  0
 11 12  1  0
 12 13  1  0
 13 14  1  0
 12 15  1  0
 15 16  1  0
  6 17  1  0
 17 18  2  0
 18 19  1  0
 19 20  2  0
 20 21  1  0
 21 22  2  0
 22  3  1  0
 22 17  1  0
M  END
>  <energy_score>  (4619) 
-1.497551

>  <alias>  (4619) 
AMKQYECIHYAHKD-UHFFFAOYSA-N-P268-P8-P268-601530

>  <HIPPO Pose ID>  (4619) 
85028

>  <smiles>  (4619) 
CCn1c(=O)n(CC(=O)NCC(CO)CO)c2ccccc21

>  <inchikey>  (4619) 
AMKQYECIHYAHKD-UHFFFAOYSA-N

>  <distance_score>  (4619) 
1.413874

>  <ref_mols>  (4619) 
Z0101a,Z4245a

>  <ref_pdb>  (4619) 
Z0089a

>  <HIPPO Compound ID>  (4619) 
146760

>  <name>  (4619) 
AMKQYECIHYAHKD-UHFFFAOYSA-N-P268-P8-P268-601530

>  <inspiration_score>  (4619) 
None

$$$$
IQGKVCZJKKLOGV-UHFFFAOYSA-N-P8-P8-P268-601530
     RDKit          3D

 22 24  0  0  0  0  0  0  0  0999 V2000
  -10.2387    3.9646  -18.4833 C   0  0  0  0  0  0  0  0  0  0  0  0
   -8.8697    4.2225  -19.0673 C   0  0  0  0  0  0  0  0  0  0  0  0
   -7.7068    4.1964  -18.2225 N   0  0  0  0  0  0  0  0  0  0  0  0
   -6.4117    4.4688  -18.7517 C   0  0  0  0  0  0  0  0  0  0  0  0
   -6.0772    4.4816  -19.9290 O   0  0  0  0  0  0  0  0  0  0  0  0
   -5.5803    4.7800  -17.6417 N   0  0  0  0  0  0  0  0  0  0  0  0
   -4.3382    5.5307  -17.7100 C   0  0  0  0  0  0  0  0  0  0  0  0
   -3.4875    5.0980  -18.9007 C   0  0  0  0  0  0  0  0  0  0  0  0
   -3.3186    3.9669  -19.1887 O   0  0  0  0  0  0  0  0  0  0  0  0
   -3.0480    6.3756  -19.6150 N   0  0  0  0  0  0  0  0  0  0  0  0
   -2.1833    6.5713  -20.8441 C   0  0  0  0  0  0  0  0  0  0  0  0
   -3.3505    6.3290  -21.7942 C   0  0  0  0  0  0  0  0  0  0  0  0
   -3.3422    7.1385  -22.8894 F   0  0  0  0  0  0  0  0  0  0  0  0
   -3.7237    4.9225  -22.2453 C   0  0  0  0  0  0  0  0  0  0  0  0
   -5.1034    4.8715  -22.6280 O   0  0  0  0  0  0  0  0  0  0  0  0
   -4.1277    6.8612  -20.6346 C   0  0  0  0  0  0  0  0  0  0  0  0
   -6.3621    4.7181  -16.4824 C   0  0  0  0  0  0  0  0  0  0  0  0
   -6.0028    4.9870  -15.1772 C   0  0  0  0  0  0  0  0  0  0  0  0
   -6.9761    4.8229  -14.1930 C   0  0  0  0  0  0  0  0  0  0  0  0
   -8.2682    4.4029  -14.5307 C   0  0  0  0  0  0  0  0  0  0  0  0
   -8.6177    4.1610  -15.8592 C   0  0  0  0  0  0  0  0  0  0  0  0
   -7.6562    4.3364  -16.8304 C   0  0  0  0  0  0  0  0  0  0  0  0
  1  2  1  0
  2  3  1  0
  3  4  1  0
  4  5  2  0
  4  6  1  0
  6  7  1  0
  7  8  1  0
  8  9  2  0
  8 10  1  0
 10 11  1  0
 11 12  1  0
 12 13  1  0
 12 14  1  0
 14 15  1  0
 12 16  1  0
  6 17  1  0
 17 18  2  0
 18 19  1  0
 19 20  2  0
 20 21  1  0
 21 22  2  0
 22  3  1  0
 16 10  1  0
 22 17  1  0
M  END
>  <energy_score>  (4620) 
-11.728324

>  <alias>  (4620) 
IQGKVCZJKKLOGV-UHFFFAOYSA-N-P8-P8-P268-601530

>  <HIPPO Pose ID>  (4620) 
85029

>  <smiles>  (4620) 
CCn1c(=O)n(CC(=O)N2CC(F)(CO)C2)c2ccccc21

>  <inchikey>  (4620) 
IQGKVCZJKKLOGV-UHFFFAOYSA-N

>  <distance_score>  (4620) 
1.370543

>  <ref_mols>  (4620) 
Z0101a,Z4245a

>  <ref_pdb>  (4620) 
Z0089a

>  <HIPPO Compound ID>  (4620) 
146761

>  <name>  (4620) 
IQGKVCZJKKLOGV-UHFFFAOYSA-N-P8-P8-P268-601530

>  <inspiration_score>  (4620) 
None

$$$$
SGQKIHNFOSQJFN-UHFFFAOYSA-N-P8-P8-P268-601530
     RDKit          3D

 22 24  0  0  0  0  0  0  0  0999 V2000
  -10.2206    4.4517  -19.1598 C   0  0  0  0  0  0  0  0  0  0  0  0
   -8.9175    3.6990  -19.2139 C   0  0  0  0  0  0  0  0  0  0  0  0
   -7.8083    4.2844  -18.5104 N   0  0  0  0  0  0  0  0  0  0  0  0
   -6.4770    4.3184  -18.9993 C   0  0  0  0  0  0  0  0  0  0  0  0
   -6.0786    4.0314  -20.1196 O   0  0  0  0  0  0  0  0  0  0  0  0
   -5.6604    4.7096  -17.9000 N   0  0  0  0  0  0  0  0  0  0  0  0
   -4.2268    4.5328  -17.8657 C   0  0  0  0  0  0  0  0  0  0  0  0
   -3.3805    5.7433  -18.2713 C   0  0  0  0  0  0  0  0  0  0  0  0
   -2.6999    6.3451  -17.5181 O   0  0  0  0  0  0  0  0  0  0  0  0
   -3.5451    5.8845  -19.7702 N   0  0  0  0  0  0  0  0  0  0  0  0
   -2.8222    6.7603  -20.7595 C   0  0  0  0  0  0  0  0  0  0  0  0
   -4.1285    6.8755  -21.5271 C   0  0  0  0  0  0  0  0  0  0  0  0
   -4.5745    5.6937  -22.3837 C   0  0  0  0  0  0  0  0  0  0  0  0
   -4.2411    5.9366  -23.7515 O   0  0  0  0  0  0  0  0  0  0  0  0
   -5.1893    6.7505  -24.4310 C   0  0  0  0  0  0  0  0  0  0  0  0
   -4.6754    6.8851  -20.1255 C   0  0  0  0  0  0  0  0  0  0  0  0
   -6.4619    4.7448  -16.7516 C   0  0  0  0  0  0  0  0  0  0  0  0
   -6.1090    4.9338  -15.4325 C   0  0  0  0  0  0  0  0  0  0  0  0
   -7.1114    4.7837  -14.4722 C   0  0  0  0  0  0  0  0  0  0  0  0
   -8.4236    4.4501  -14.8458 C   0  0  0  0  0  0  0  0  0  0  0  0
   -8.7673    4.2812  -16.1862 C   0  0  0  0  0  0  0  0  0  0  0  0
   -7.7700    4.4474  -17.1221 C   0  0  0  0  0  0  0  0  0  0  0  0
  1  2  1  0
  2  3  1  0
  3  4  1  0
  4  5  2  0
  4  6  1  0
  6  7  1  0
  7  8  1  0
  8  9  2  0
  8 10  1  0
 10 11  1  0
 11 12  1  0
 12 13  1  0
 13 14  1  0
 14 15  1  0
 12 16  1  0
  6 17  1  0
 17 18  2  0
 18 19  1  0
 19 20  2  0
 20 21  1  0
 21 22  2  0
 22  3  1  0
 16 10  1  0
 22 17  1  0
M  END
>  <energy_score>  (4621) 
-3.142094

>  <alias>  (4621) 
SGQKIHNFOSQJFN-UHFFFAOYSA-N-P8-P8-P268-601530

>  <HIPPO Pose ID>  (4621) 
85031

>  <smiles>  (4621) 
CCn1c(=O)n(CC(=O)N2CC(COC)C2)c2ccccc21

>  <inchikey>  (4621) 
SGQKIHNFOSQJFN-UHFFFAOYSA-N

>  <distance_score>  (4621) 
1.214994

>  <ref_mols>  (4621) 
Z0101a,Z4245a

>  <ref_pdb>  (4621) 
Z0089a

>  <HIPPO Compound ID>  (4621) 
146762

>  <name>  (4621) 
SGQKIHNFOSQJFN-UHFFFAOYSA-N-P8-P8-P268-601530

>  <inspiration_score>  (4621) 
None

$$$$
BXWDGKFDNFCANN-UHFFFAOYSA-N-P268-P8-P268-601530
     RDKit          3D

 22 24  0  0  0  0  0  0  0  0999 V2000
   -9.5004    4.5896  -19.1852 C   0  0  0  0  0  0  0  0  0  0  0  0
   -8.4233    3.5361  -19.1116 C   0  0  0  0  0  0  0  0  0  0  0  0
   -7.3585    3.9842  -18.2783 N   0  0  0  0  0  0  0  0  0  0  0  0
   -6.1403    4.4882  -18.7600 C   0  0  0  0  0  0  0  0  0  0  0  0
   -5.7173    4.4095  -19.9058 O   0  0  0  0  0  0  0  0  0  0  0  0
   -5.5149    5.1028  -17.6515 N   0  0  0  0  0  0  0  0  0  0  0  0
   -4.2568    5.7922  -17.6976 C   0  0  0  0  0  0  0  0  0  0  0  0
   -4.4519    7.1599  -18.3692 C   0  0  0  0  0  0  0  0  0  0  0  0
   -4.6780    8.1655  -17.7947 O   0  0  0  0  0  0  0  0  0  0  0  0
   -4.3818    6.8743  -19.8592 N   0  0  0  0  0  0  0  0  0  0  0  0
   -2.9532    7.0783  -20.4072 C   0  0  0  0  0  0  0  0  0  0  0  0
   -3.5776    7.0099  -21.7909 C   0  0  0  0  0  0  0  0  0  0  0  0
   -3.8850    5.6676  -22.4715 C   0  0  1  0  0  0  0  0  0  0  0  0
   -3.0413    4.5164  -21.9538 C   0  0  0  0  0  0  0  0  0  0  0  0
   -5.2662    5.3372  -22.4144 O   0  0  0  0  0  0  0  0  0  0  0  0
   -4.6760    7.7568  -21.0422 C   0  0  0  0  0  0  0  0  0  0  0  0
   -6.3499    4.9798  -16.5340 C   0  0  0  0  0  0  0  0  0  0  0  0
   -6.1933    5.4129  -15.2381 C   0  0  0  0  0  0  0  0  0  0  0  0
   -7.2272    5.1309  -14.3371 C   0  0  0  0  0  0  0  0  0  0  0  0
   -8.3874    4.4493  -14.7472 C   0  0  0  0  0  0  0  0  0  0  0  0
   -8.5379    4.0334  -16.0663 C   0  0  0  0  0  0  0  0  0  0  0  0
   -7.4957    4.2965  -16.9285 C   0  0  0  0  0  0  0  0  0  0  0  0
  1  2  1  0
  2  3  1  0
  3  4  1  0
  4  5  2  0
  4  6  1  0
  6  7  1  0
  7  8  1  0
  8  9  2  0
  8 10  1  0
 10 11  1  0
 11 12  1  0
 12 13  1  0
 13 14  1  1
 13 15  1  0
 12 16  1  0
  6 17  1  0
 17 18  2  0
 18 19  1  0
 19 20  2  0
 20 21  1  0
 21 22  2  0
 22  3  1  0
 16 10  1  0
 22 17  1  0
M  END
>  <energy_score>  (4622) 
-0.040281

>  <alias>  (4622) 
BXWDGKFDNFCANN-UHFFFAOYSA-N-P268-P8-P268-601530

>  <HIPPO Pose ID>  (4622) 
85034

>  <smiles>  (4622) 
CCn1c(=O)n(CC(=O)N2CC(C(C)O)C2)c2ccccc21

>  <inchikey>  (4622) 
BXWDGKFDNFCANN-UHFFFAOYSA-N

>  <distance_score>  (4622) 
1.369329

>  <ref_mols>  (4622) 
Z0101a,Z4245a

>  <ref_pdb>  (4622) 
Z0089a

>  <HIPPO Compound ID>  (4622) 
146763

>  <name>  (4622) 
BXWDGKFDNFCANN-UHFFFAOYSA-N-P268-P8-P268-601530

>  <inspiration_score>  (4622) 
None

$$$$
MOSNSACXYMUVJM-UHFFFAOYSA-N-P268-P8-P268-601530
     RDKit          3D

 22 23  0  0  0  0  0  0  0  0999 V2000
   -3.8990    8.8079  -20.8760 C   0  0  0  0  0  0  0  0  0  0  0  0
   -3.2350    7.5379  -20.3602 C   0  0  0  0  0  0  0  0  0  0  0  0
   -2.9365    6.4961  -21.4515 C   0  0  1  0  0  0  0  0  0  0  0  0
   -2.1466    5.3108  -20.8757 C   0  0  0  0  0  0  0  0  0  0  0  0
   -1.2177    4.8643  -21.8666 O   0  0  0  0  0  0  0  0  0  0  0  0
   -4.1513    6.0355  -22.2633 C   0  0  0  0  0  0  0  0  0  0  0  0
   -5.0889    5.2843  -21.4805 N   0  0  0  0  0  0  0  0  0  0  0  0
   -6.0220    5.7327  -20.3094 C   0  0  0  0  0  0  0  0  0  0  0  0
   -6.2203    6.7992  -19.8611 O   0  0  0  0  0  0  0  0  0  0  0  0
   -6.6373    4.4192  -19.7194 C   0  0  0  0  0  0  0  0  0  0  0  0
   -6.3199    4.4917  -18.3440 N   0  0  0  0  0  0  0  0  0  0  0  0
   -5.0118    4.7209  -17.9244 C   0  0  0  0  0  0  0  0  0  0  0  0
   -4.0326    4.7067  -18.6517 O   0  0  0  0  0  0  0  0  0  0  0  0
   -5.0658    4.9619  -16.5512 N   0  0  0  0  0  0  0  0  0  0  0  0
   -3.9436    5.3072  -15.7219 C   0  0  0  0  0  0  0  0  0  0  0  0
   -3.7934    6.8125  -15.5811 C   0  0  0  0  0  0  0  0  0  0  0  0
   -6.3887    4.7786  -16.1268 C   0  0  0  0  0  0  0  0  0  0  0  0
   -6.9181    4.8071  -14.8596 C   0  0  0  0  0  0  0  0  0  0  0  0
   -8.2606    4.4588  -14.7351 C   0  0  0  0  0  0  0  0  0  0  0  0
   -9.0272    4.1259  -15.8697 C   0  0  0  0  0  0  0  0  0  0  0  0
   -8.4959    4.1501  -17.1557 C   0  0  0  0  0  0  0  0  0  0  0  0
   -7.1662    4.4677  -17.2481 C   0  0  0  0  0  0  0  0  0  0  0  0
  1  2  1  0
  3  2  1  1
  3  4  1  0
  4  5  1  0
  3  6  1  0
  6  7  1  0
  7  8  1  0
  8  9  2  0
  8 10  1  0
 10 11  1  0
 11 12  1  0
 12 13  2  0
 12 14  1  0
 14 15  1  0
 15 16  1  0
 14 17  1  0
 17 18  2  0
 18 19  1  0
 19 20  2  0
 20 21  1  0
 21 22  2  0
 22 11  1  0
 22 17  1  0
M  END
>  <energy_score>  (4623) 
-5.476841

>  <alias>  (4623) 
MOSNSACXYMUVJM-UHFFFAOYSA-N-P268-P8-P268-601530

>  <HIPPO Pose ID>  (4623) 
85038

>  <smiles>  (4623) 
CCC(CO)CNC(=O)Cn1c(=O)n(CC)c2ccccc21

>  <inchikey>  (4623) 
MOSNSACXYMUVJM-UHFFFAOYSA-N

>  <distance_score>  (4623) 
1.551749

>  <ref_mols>  (4623) 
Z0101a,Z4245a

>  <ref_pdb>  (4623) 
Z0089a

>  <HIPPO Compound ID>  (4623) 
146765

>  <name>  (4623) 
MOSNSACXYMUVJM-UHFFFAOYSA-N-P268-P8-P268-601530

>  <inspiration_score>  (4623) 
None

$$$$
DVHNMBVMJPPJIS-UHFFFAOYSA-N-P8-P8-P268-601530
     RDKit          3D

 22 24  0  0  0  0  0  0  0  0999 V2000
   -8.8745    3.8541  -19.4477 C   0  0  0  0  0  0  0  0  0  0  0  0
   -7.7403    4.1913  -18.6413 N   0  0  0  0  0  0  0  0  0  0  0  0
   -6.4044    4.3501  -19.0778 C   0  0  0  0  0  0  0  0  0  0  0  0
   -5.9436    4.2272  -20.2053 O   0  0  0  0  0  0  0  0  0  0  0  0
   -5.6612    4.6679  -17.9142 N   0  0  0  0  0  0  0  0  0  0  0  0
   -4.2496    4.9166  -17.8800 C   0  0  0  0  0  0  0  0  0  0  0  0
   -4.0239    6.3985  -18.1832 C   0  0  0  0  0  0  0  0  0  0  0  0
   -3.9553    7.2482  -17.3680 O   0  0  0  0  0  0  0  0  0  0  0  0
   -4.0089    6.4880  -19.6964 N   0  0  0  0  0  0  0  0  0  0  0  0
   -4.0031    7.6858  -20.6091 C   0  0  0  0  0  0  0  0  0  0  0  0
   -3.1404    6.8821  -21.5712 C   0  0  0  0  0  0  0  0  0  0  0  0
   -3.8040    5.9161  -22.5740 C   0  0  0  0  0  0  0  0  0  0  0  0
   -3.5351    6.4609  -23.9855 C   0  0  0  0  0  0  0  0  0  0  0  0
   -3.2626    4.5010  -22.4564 C   0  0  0  0  0  0  0  0  0  0  0  0
   -5.2217    5.8904  -22.4412 O   0  0  0  0  0  0  0  0  0  0  0  0
   -2.5733    6.3974  -20.2529 C   0  0  0  0  0  0  0  0  0  0  0  0
   -6.5126    4.6732  -16.8098 C   0  0  0  0  0  0  0  0  0  0  0  0
   -6.2371    4.8951  -15.4786 C   0  0  0  0  0  0  0  0  0  0  0  0
   -7.2935    4.7555  -14.5802 C   0  0  0  0  0  0  0  0  0  0  0  0
   -8.5815    4.4189  -15.0318 C   0  0  0  0  0  0  0  0  0  0  0  0
   -8.8513    4.2301  -16.3886 C   0  0  0  0  0  0  0  0  0  0  0  0
   -7.7930    4.3601  -17.2567 C   0  0  0  0  0  0  0  0  0  0  0  0
  1  2  1  0
  2  3  1  0
  3  4  2  0
  3  5  1  0
  5  6  1  0
  6  7  1  0
  7  8  2  0
  7  9  1  0
  9 10  1  0
 10 11  1  0
 11 12  1  0
 12 13  1  0
 12 14  1  0
 12 15  1  0
 11 16  1  0
  5 17  1  0
 17 18  2  0
 18 19  1  0
 19 20  2  0
 20 21  1  0
 21 22  2  0
 22  2  1  0
 16  9  1  0
 22 17  1  0
M  END
>  <energy_score>  (4624) 
-10.175658

>  <alias>  (4624) 
DVHNMBVMJPPJIS-UHFFFAOYSA-N-P8-P8-P268-601530

>  <HIPPO Pose ID>  (4624) 
85061

>  <smiles>  (4624) 
Cn1c(=O)n(CC(=O)N2CC(C(C)(C)O)C2)c2ccccc21

>  <inchikey>  (4624) 
DVHNMBVMJPPJIS-UHFFFAOYSA-N

>  <distance_score>  (4624) 
1.068603

>  <ref_mols>  (4624) 
Z0101a,Z4245a

>  <ref_pdb>  (4624) 
Z0089a

>  <HIPPO Compound ID>  (4624) 
146777

>  <name>  (4624) 
DVHNMBVMJPPJIS-UHFFFAOYSA-N-P8-P8-P268-601530

>  <inspiration_score>  (4624) 
None

$$$$
DWPRWYKIGHGWIA-UHFFFAOYSA-N-P8-P8-P268-601530
     RDKit          3D

 22 24  0  0  0  0  0  0  0  0999 V2000
   -8.8225    3.8231  -19.2814 C   0  0  0  0  0  0  0  0  0  0  0  0
   -7.7210    4.1857  -18.4363 N   0  0  0  0  0  0  0  0  0  0  0  0
   -6.4703    4.6387  -18.8750 C   0  0  0  0  0  0  0  0  0  0  0  0
   -6.0242    4.6233  -20.0095 O   0  0  0  0  0  0  0  0  0  0  0  0
   -5.7941    5.1970  -17.7479 N   0  0  0  0  0  0  0  0  0  0  0  0
   -5.2576    6.5516  -17.8399 C   0  0  0  0  0  0  0  0  0  0  0  0
   -4.0164    6.8340  -18.6895 C   0  0  0  0  0  0  0  0  0  0  0  0
   -2.9998    7.1543  -18.2131 O   0  0  0  0  0  0  0  0  0  0  0  0
   -4.4335    6.7118  -20.1749 N   0  0  0  0  0  0  0  0  0  0  0  0
   -3.6602    6.8660  -21.3781 C   0  0  2  0  0  0  0  0  0  0  0  0
   -4.5358    7.2148  -22.5798 C   0  0  0  0  0  0  0  0  0  0  0  0
   -4.8655    5.9907  -23.2571 O   0  0  0  0  0  0  0  0  0  0  0  0
   -4.1492    4.9216  -22.6228 C   0  0  0  0  0  0  0  0  0  0  0  0
   -3.0338    5.5386  -21.7902 C   0  0  0  0  0  0  0  0  0  0  0  0
   -1.8103    5.8076  -22.6911 C   0  0  0  0  0  0  0  0  0  0  0  0
   -2.6301    4.6100  -20.6402 C   0  0  0  0  0  0  0  0  0  0  0  0
   -6.6172    4.9344  -16.6309 C   0  0  0  0  0  0  0  0  0  0  0  0
   -6.3870    5.2328  -15.3040 C   0  0  0  0  0  0  0  0  0  0  0  0
   -7.4009    4.9338  -14.3994 C   0  0  0  0  0  0  0  0  0  0  0  0
   -8.6121    4.3813  -14.8438 C   0  0  0  0  0  0  0  0  0  0  0  0
   -8.8360    4.0989  -16.1930 C   0  0  0  0  0  0  0  0  0  0  0  0
   -7.8062    4.3594  -17.0619 C   0  0  0  0  0  0  0  0  0  0  0  0
  1  2  1  0
  2  3  1  0
  3  4  2  0
  3  5  1  0
  5  6  1  0
  6  7  1  0
  7  8  2  0
  7  9  1  0
 10  9  1  1
 10 11  1  0
 11 12  1  0
 12 13  1  0
 13 14  1  0
 14 15  1  0
 14 16  1  0
  5 17  1  0
 17 18  2  0
 18 19  1  0
 19 20  2  0
 20 21  1  0
 21 22  2  0
 22  2  1  0
 14 10  1  0
 22 17  1  0
M  END
>  <energy_score>  (4625) 
-4.029788

>  <alias>  (4625) 
DWPRWYKIGHGWIA-UHFFFAOYSA-N-P8-P8-P268-601530

>  <HIPPO Pose ID>  (4625) 
85077

>  <smiles>  (4625) 
Cn1c(=O)n(CC(=O)NC2COCC2(C)C)c2ccccc21

>  <inchikey>  (4625) 
DWPRWYKIGHGWIA-UHFFFAOYSA-N

>  <distance_score>  (4625) 
1.054984

>  <ref_mols>  (4625) 
Z0101a,Z4245a

>  <ref_pdb>  (4625) 
Z0089a

>  <HIPPO Compound ID>  (4625) 
146785

>  <name>  (4625) 
DWPRWYKIGHGWIA-UHFFFAOYSA-N-P8-P8-P268-601530

>  <inspiration_score>  (4625) 
None

$$$$
XVPJZOFPICPTKY-UHFFFAOYSA-N-P268-P8-P268-601530
     RDKit          3D

 22 23  0  0  0  0  0  0  0  0999 V2000
   -1.4461    7.7097  -22.3155 C   0  0  0  0  0  0  0  0  0  0  0  0
   -2.8210    7.7553  -21.9664 O   0  0  0  0  0  0  0  0  0  0  0  0
   -3.4727    6.4998  -21.6054 C   0  0  2  0  0  0  0  0  0  0  0  0
   -2.5985    5.6772  -20.6456 C   0  0  0  0  0  0  0  0  0  0  0  0
   -3.7371    5.6696  -22.8797 C   0  0  0  0  0  0  0  0  0  0  0  0
   -4.9637    6.0131  -23.5280 O   0  0  0  0  0  0  0  0  0  0  0  0
   -4.7883    7.0011  -20.9590 C   0  0  0  0  0  0  0  0  0  0  0  0
   -5.6438    6.0500  -20.3102 N   0  0  0  0  0  0  0  0  0  0  0  0
   -6.0407    4.6020  -20.7215 C   0  0  0  0  0  0  0  0  0  0  0  0
   -5.7917    3.9940  -21.6900 O   0  0  0  0  0  0  0  0  0  0  0  0
   -6.9265    4.0045  -19.5975 C   0  0  0  0  0  0  0  0  0  0  0  0
   -6.5704    4.5498  -18.3214 N   0  0  0  0  0  0  0  0  0  0  0  0
   -5.2342    4.6854  -17.9021 C   0  0  0  0  0  0  0  0  0  0  0  0
   -4.2473    4.5010  -18.5890 O   0  0  0  0  0  0  0  0  0  0  0  0
   -5.2603    5.0828  -16.5677 N   0  0  0  0  0  0  0  0  0  0  0  0
   -4.1067    5.3173  -15.7469 C   0  0  0  0  0  0  0  0  0  0  0  0
   -6.5566    4.8848  -16.0947 C   0  0  0  0  0  0  0  0  0  0  0  0
   -7.0151    4.8993  -14.8010 C   0  0  0  0  0  0  0  0  0  0  0  0
   -8.3232    4.4766  -14.6073 C   0  0  0  0  0  0  0  0  0  0  0  0
   -9.1177    4.0829  -15.7019 C   0  0  0  0  0  0  0  0  0  0  0  0
   -8.6613    4.1198  -17.0150 C   0  0  0  0  0  0  0  0  0  0  0  0
   -7.3640    4.5200  -17.1787 C   0  0  0  0  0  0  0  0  0  0  0  0
  1  2  1  0
  2  3  1  0
  3  4  1  1
  3  5  1  0
  5  6  1  0
  3  7  1  0
  7  8  1  0
  8  9  1  0
  9 10  2  0
  9 11  1  0
 11 12  1  0
 12 13  1  0
 13 14  2  0
 13 15  1  0
 15 16  1  0
 15 17  1  0
 17 18  2  0
 18 19  1  0
 19 20  2  0
 20 21  1  0
 21 22  2  0
 22 12  1  0
 22 17  1  0
M  END
>  <energy_score>  (4626) 
-5.408242

>  <alias>  (4626) 
XVPJZOFPICPTKY-UHFFFAOYSA-N-P268-P8-P268-601530

>  <HIPPO Pose ID>  (4626) 
85082

>  <smiles>  (4626) 
COC(C)(CO)CNC(=O)Cn1c(=O)n(C)c2ccccc21

>  <inchikey>  (4626) 
XVPJZOFPICPTKY-UHFFFAOYSA-N

>  <distance_score>  (4626) 
1.528246

>  <ref_mols>  (4626) 
Z0101a,Z4245a

>  <ref_pdb>  (4626) 
Z0089a

>  <HIPPO Compound ID>  (4626) 
146787

>  <name>  (4626) 
XVPJZOFPICPTKY-UHFFFAOYSA-N-P268-P8-P268-601530

>  <inspiration_score>  (4626) 
None

$$$$
SOJZDLKUPZWDSY-UHFFFAOYSA-N-P268-P8-P268-601530
     RDKit          3D

 22 23  0  0  0  0  0  0  0  0999 V2000
   -1.9052    5.6142  -20.5090 C   0  0  0  0  0  0  0  0  0  0  0  0
   -3.1130    6.4067  -21.0139 C   0  0  0  0  0  0  0  0  0  0  0  0
   -2.8277    7.9021  -21.0014 C   0  0  0  0  0  0  0  0  0  0  0  0
   -3.6064    5.8438  -22.3723 C   0  0  2  0  0  0  0  0  0  0  0  0
   -2.8103    6.3279  -23.5914 C   0  0  0  0  0  0  0  0  0  0  0  0
   -3.1559    7.6582  -23.9552 O   0  0  0  0  0  0  0  0  0  0  0  0
   -5.0944    6.1428  -22.5357 C   0  0  0  0  0  0  0  0  0  0  0  0
   -5.8547    5.4282  -21.5473 N   0  0  0  0  0  0  0  0  0  0  0  0
   -5.8448    3.9385  -21.1635 C   0  0  0  0  0  0  0  0  0  0  0  0
   -5.2755    3.0405  -21.6388 O   0  0  0  0  0  0  0  0  0  0  0  0
   -6.8745    3.7258  -20.0051 C   0  0  0  0  0  0  0  0  0  0  0  0
   -6.6079    4.5250  -18.8421 N   0  0  0  0  0  0  0  0  0  0  0  0
   -5.2928    4.7618  -18.4149 C   0  0  0  0  0  0  0  0  0  0  0  0
   -4.2816    4.5444  -19.0542 O   0  0  0  0  0  0  0  0  0  0  0  0
   -5.3448    5.2185  -17.0986 N   0  0  0  0  0  0  0  0  0  0  0  0
   -4.1965    5.4812  -16.2789 C   0  0  0  0  0  0  0  0  0  0  0  0
   -6.6262    4.9609  -16.6171 C   0  0  0  0  0  0  0  0  0  0  0  0
   -7.0819    4.9866  -15.3192 C   0  0  0  0  0  0  0  0  0  0  0  0
   -8.3750    4.5268  -15.1073 C   0  0  0  0  0  0  0  0  0  0  0  0
   -9.1590    4.0785  -16.1882 C   0  0  0  0  0  0  0  0  0  0  0  0
   -8.6903    4.0699  -17.5023 C   0  0  0  0  0  0  0  0  0  0  0  0
   -7.4089    4.5181  -17.6904 C   0  0  0  0  0  0  0  0  0  0  0  0
  1  2  1  0
  2  3  1  0
  2  4  1  0
  4  5  1  6
  5  6  1  0
  4  7  1  0
  7  8  1  0
  8  9  1  0
  9 10  2  0
  9 11  1  0
 11 12  1  0
 12 13  1  0
 13 14  2  0
 13 15  1  0
 15 16  1  0
 15 17  1  0
 17 18  2  0
 18 19  1  0
 19 20  2  0
 20 21  1  0
 21 22  2  0
 22 12  1  0
 22 17  1  0
M  END
>  <energy_score>  (4627) 
-1.703692

>  <alias>  (4627) 
SOJZDLKUPZWDSY-UHFFFAOYSA-N-P268-P8-P268-601530

>  <HIPPO Pose ID>  (4627) 
85096

>  <smiles>  (4627) 
CC(C)C(CO)CNC(=O)Cn1c(=O)n(C)c2ccccc21

>  <inchikey>  (4627) 
SOJZDLKUPZWDSY-UHFFFAOYSA-N

>  <distance_score>  (4627) 
1.388499

>  <ref_mols>  (4627) 
Z0101a,Z4245a

>  <ref_pdb>  (4627) 
Z0089a

>  <HIPPO Compound ID>  (4627) 
146794

>  <name>  (4627) 
SOJZDLKUPZWDSY-UHFFFAOYSA-N-P268-P8-P268-601530

>  <inspiration_score>  (4627) 
None

$$$$
FPGLHACLFVFULQ-UHFFFAOYSA-N-P268-P8-P268-601530
     RDKit          3D

 22 24  0  0  0  0  0  0  0  0999 V2000
   -9.4724    4.5710  -19.1427 C   0  0  0  0  0  0  0  0  0  0  0  0
   -8.4119    3.5028  -19.0310 C   0  0  0  0  0  0  0  0  0  0  0  0
   -7.3558    3.9551  -18.1826 N   0  0  0  0  0  0  0  0  0  0  0  0
   -6.2462    4.6586  -18.6632 C   0  0  0  0  0  0  0  0  0  0  0  0
   -5.9210    4.7816  -19.8351 O   0  0  0  0  0  0  0  0  0  0  0  0
   -5.6266    5.2759  -17.5461 N   0  0  0  0  0  0  0  0  0  0  0  0
   -4.9199    6.5376  -17.6384 C   0  0  0  0  0  0  0  0  0  0  0  0
   -3.5957    6.5556  -18.4071 C   0  0  0  0  0  0  0  0  0  0  0  0
   -2.5641    6.7424  -17.8883 O   0  0  0  0  0  0  0  0  0  0  0  0
   -3.9516    6.3914  -19.9129 N   0  0  0  0  0  0  0  0  0  0  0  0
   -3.1161    6.3301  -21.0526 C   0  0  1  0  0  0  0  0  0  0  0  0
   -2.0012    7.3269  -21.0411 C   0  0  0  0  0  0  0  0  0  0  0  0
   -2.8917    4.9640  -21.6507 C   0  0  0  0  0  0  0  0  0  0  0  0
   -3.6756    5.9960  -22.4246 C   0  0  1  0  0  0  0  0  0  0  0  0
   -5.1490    5.9016  -22.6382 C   0  0  0  0  0  0  0  0  0  0  0  0
   -5.4376    6.1586  -24.0083 O   0  0  0  0  0  0  0  0  0  0  0  0
   -6.4337    4.9973  -16.4217 C   0  0  0  0  0  0  0  0  0  0  0  0
   -6.3233    5.4318  -15.1188 C   0  0  0  0  0  0  0  0  0  0  0  0
   -7.3399    5.0739  -14.2298 C   0  0  0  0  0  0  0  0  0  0  0  0
   -8.4435    4.3197  -14.6592 C   0  0  0  0  0  0  0  0  0  0  0  0
   -8.5416    3.8883  -15.9788 C   0  0  0  0  0  0  0  0  0  0  0  0
   -7.5092    4.2185  -16.8270 C   0  0  0  0  0  0  0  0  0  0  0  0
  1  2  1  0
  2  3  1  0
  3  4  1  0
  4  5  2  0
  4  6  1  0
  6  7  1  0
  7  8  1  0
  8  9  2  0
  8 10  1  0
 10 11  1  0
 11 12  1  6
 11 13  1  0
 13 14  1  0
 14 15  1  1
 15 16  1  0
  6 17  1  0
 17 18  2  0
 18 19  1  0
 19 20  2  0
 20 21  1  0
 21 22  2  0
 22  3  1  0
 14 11  1  0
 22 17  1  0
M  END
>  <energy_score>  (4628) 
-3.090337

>  <alias>  (4628) 
FPGLHACLFVFULQ-UHFFFAOYSA-N-P268-P8-P268-601530

>  <HIPPO Pose ID>  (4628) 
85104

>  <smiles>  (4628) 
CCn1c(=O)n(CC(=O)NC2(C)CC2CO)c2ccccc21

>  <inchikey>  (4628) 
FPGLHACLFVFULQ-UHFFFAOYSA-N

>  <distance_score>  (4628) 
1.459289

>  <ref_mols>  (4628) 
Z0101a,Z4245a

>  <ref_pdb>  (4628) 
Z0089a

>  <HIPPO Compound ID>  (4628) 
146798

>  <name>  (4628) 
FPGLHACLFVFULQ-UHFFFAOYSA-N-P268-P8-P268-601530

>  <inspiration_score>  (4628) 
None

$$$$
GZAHIIVQJFMKDL-UHFFFAOYSA-N-P8-P8-P268-601530
     RDKit          3D

 22 25  0  0  0  0  0  0  0  0999 V2000
   -9.3131    3.6376  -19.7425 C   0  0  0  0  0  0  0  0  0  0  0  0
   -8.9137    4.6002  -18.6950 C   0  0  0  0  0  0  0  0  0  0  0  0
   -7.7054    4.2367  -18.0394 N   0  0  0  0  0  0  0  0  0  0  0  0
   -6.4504    4.2814  -18.6744 C   0  0  0  0  0  0  0  0  0  0  0  0
   -6.1926    4.1212  -19.8555 O   0  0  0  0  0  0  0  0  0  0  0  0
   -5.5109    4.5612  -17.6661 N   0  0  0  0  0  0  0  0  0  0  0  0
   -4.1161    4.7050  -17.9478 C   0  0  0  0  0  0  0  0  0  0  0  0
   -3.9053    5.9376  -18.8448 C   0  0  0  0  0  0  0  0  0  0  0  0
   -4.5453    6.9266  -18.7768 O   0  0  0  0  0  0  0  0  0  0  0  0
   -2.6956    5.6050  -19.7073 N   0  0  0  0  0  0  0  0  0  0  0  0
   -1.8703    6.4948  -20.6817 C   0  0  0  0  0  0  0  0  0  0  0  0
   -2.7119    7.0676  -21.8205 C   0  0  2  0  0  0  0  0  0  0  0  0
   -3.7027    7.9822  -21.3699 O   0  0  0  0  0  0  0  0  0  0  0  0
   -3.3069    5.8336  -22.3139 C   0  0  2  0  0  0  0  0  0  0  0  0
   -4.5082    5.1826  -21.7271 C   0  0  0  0  0  0  0  0  0  0  0  0
   -3.1401    4.9589  -21.1146 C   0  0  2  0  0  0  0  0  0  0  0  0
   -6.1683    4.6129  -16.4357 C   0  0  0  0  0  0  0  0  0  0  0  0
   -5.7004    4.8109  -15.1606 C   0  0  0  0  0  0  0  0  0  0  0  0
   -6.6398    4.7670  -14.1206 C   0  0  0  0  0  0  0  0  0  0  0  0
   -8.0072    4.5390  -14.3701 C   0  0  0  0  0  0  0  0  0  0  0  0
   -8.4679    4.3698  -15.6691 C   0  0  0  0  0  0  0  0  0  0  0  0
   -7.5258    4.4102  -16.6727 C   0  0  0  0  0  0  0  0  0  0  0  0
  1  2  1  0
  2  3  1  0
  3  4  1  0
  4  5  2  0
  4  6  1  0
  6  7  1  0
  7  8  1  0
  8  9  2  0
  8 10  1  0
 10 11  1  0
 11 12  1  0
 12 13  1  1
 12 14  1  0
 14 15  1  1
 16 15  1  1
  6 17  1  0
 17 18  2  0
 18 19  1  0
 19 20  2  0
 20 21  1  0
 21 22  2  0
 22  3  1  0
 16 10  1  0
 22 17  1  0
 16 14  1  0
M  END
>  <energy_score>  (4629) 
-3.74047

>  <alias>  (4629) 
GZAHIIVQJFMKDL-UHFFFAOYSA-N-P8-P8-P268-601530

>  <HIPPO Pose ID>  (4629) 
85105

>  <smiles>  (4629) 
CCn1c(=O)n(CC(=O)N2CC(O)C3CC32)c2ccccc21

>  <inchikey>  (4629) 
GZAHIIVQJFMKDL-UHFFFAOYSA-N

>  <distance_score>  (4629) 
1.939201

>  <ref_mols>  (4629) 
Z0101a,Z4245a

>  <ref_pdb>  (4629) 
Z0089a

>  <HIPPO Compound ID>  (4629) 
146799

>  <name>  (4629) 
GZAHIIVQJFMKDL-UHFFFAOYSA-N-P8-P8-P268-601530

>  <inspiration_score>  (4629) 
None

$$$$
YFZJVSOGVNDLTM-UHFFFAOYSA-N-P8-P8-P268-601530
     RDKit          3D

 22 24  0  0  0  0  0  0  0  0999 V2000
  -10.5163    4.2413  -18.5428 C   0  0  0  0  0  0  0  0  0  0  0  0
   -9.2033    3.8372  -19.1893 C   0  0  0  0  0  0  0  0  0  0  0  0
   -7.9755    4.2372  -18.5428 N   0  0  0  0  0  0  0  0  0  0  0  0
   -6.7045    4.2869  -19.1901 C   0  0  0  0  0  0  0  0  0  0  0  0
   -6.3902    3.9547  -20.3265 O   0  0  0  0  0  0  0  0  0  0  0  0
   -5.7855    4.7294  -18.2122 N   0  0  0  0  0  0  0  0  0  0  0  0
   -4.3757    4.8334  -18.4543 C   0  0  0  0  0  0  0  0  0  0  0  0
   -4.0019    6.1850  -19.1053 C   0  0  0  0  0  0  0  0  0  0  0  0
   -4.5618    7.1888  -18.8828 O   0  0  0  0  0  0  0  0  0  0  0  0
   -2.7311    5.9060  -19.9691 N   0  0  0  0  0  0  0  0  0  0  0  0
   -1.9555    6.7884  -20.8044 C   0  0  0  0  0  0  0  0  0  0  0  0
   -0.7051    7.2843  -20.0859 C   0  0  0  0  0  0  0  0  0  0  0  0
   -0.0128    8.0776  -20.9488 F   0  0  0  0  0  0  0  0  0  0  0  0
    0.1539    6.2338  -19.3570 C   0  0  0  0  0  0  0  0  0  0  0  0
   -0.2266    6.7465  -18.0564 O   0  0  0  0  0  0  0  0  0  0  0  0
   -0.8815    7.8811  -18.6766 C   0  0  0  0  0  0  0  0  0  0  0  0
   -6.4258    4.7591  -16.9716 C   0  0  0  0  0  0  0  0  0  0  0  0
   -5.9084    5.0027  -15.7157 C   0  0  0  0  0  0  0  0  0  0  0  0
   -6.7674    4.8584  -14.6239 C   0  0  0  0  0  0  0  0  0  0  0  0
   -8.1042    4.4789  -14.8078 C   0  0  0  0  0  0  0  0  0  0  0  0
   -8.6129    4.2602  -16.0879 C   0  0  0  0  0  0  0  0  0  0  0  0
   -7.7646    4.4150  -17.1649 C   0  0  0  0  0  0  0  0  0  0  0  0
  1  2  1  0
  2  3  1  0
  3  4  1  0
  4  5  2  0
  4  6  1  0
  6  7  1  0
  7  8  1  0
  8  9  2  0
  8 10  1  0
 10 11  1  0
 11 12  1  0
 12 13  1  0
 12 14  1  0
 14 15  1  0
 15 16  1  0
  6 17  1  0
 17 18  2  0
 18 19  1  0
 19 20  2  0
 20 21  1  0
 21 22  2  0
 22  3  1  0
 16 12  1  0
 22 17  1  0
M  END
>  <energy_score>  (4630) 
-3.141911

>  <alias>  (4630) 
YFZJVSOGVNDLTM-UHFFFAOYSA-N-P8-P8-P268-601530

>  <HIPPO Pose ID>  (4630) 
85109

>  <smiles>  (4630) 
CCn1c(=O)n(CC(=O)NCC2(F)COC2)c2ccccc21

>  <inchikey>  (4630) 
YFZJVSOGVNDLTM-UHFFFAOYSA-N

>  <distance_score>  (4630) 
1.79216

>  <ref_mols>  (4630) 
Z0101a,Z4245a

>  <ref_pdb>  (4630) 
Z0089a

>  <HIPPO Compound ID>  (4630) 
146801

>  <name>  (4630) 
YFZJVSOGVNDLTM-UHFFFAOYSA-N-P8-P8-P268-601530

>  <inspiration_score>  (4630) 
None

$$$$
GVPQEVCJCABEHT-UHFFFAOYSA-N-P268-P8-P268-601530
     RDKit          3D

 22 24  0  0  0  0  0  0  0  0999 V2000
   -9.4554    4.5503  -19.2335 C   0  0  0  0  0  0  0  0  0  0  0  0
   -8.2878    3.6011  -19.1421 C   0  0  0  0  0  0  0  0  0  0  0  0
   -7.2934    4.1320  -18.2654 N   0  0  0  0  0  0  0  0  0  0  0  0
   -6.0035    4.5307  -18.6443 C   0  0  0  0  0  0  0  0  0  0  0  0
   -5.4909    4.3922  -19.7455 O   0  0  0  0  0  0  0  0  0  0  0  0
   -5.4035    5.0816  -17.4838 N   0  0  0  0  0  0  0  0  0  0  0  0
   -3.9881    5.3102  -17.3146 C   0  0  0  0  0  0  0  0  0  0  0  0
   -3.4912    6.4768  -18.1760 C   0  0  0  0  0  0  0  0  0  0  0  0
   -3.4752    7.5856  -17.8071 O   0  0  0  0  0  0  0  0  0  0  0  0
   -3.1371    5.8722  -19.5624 N   0  0  0  0  0  0  0  0  0  0  0  0
   -2.6057    6.4914  -20.7371 C   0  0  0  0  0  0  0  0  0  0  0  0
   -3.7965    6.7457  -21.6458 C   0  0  0  0  0  0  0  0  0  0  0  0
   -4.7986    7.7472  -21.0840 C   0  0  0  0  0  0  0  0  0  0  0  0
   -3.3779    7.0718  -23.0901 C   0  0  0  0  0  0  0  0  0  0  0  0
   -4.2517    6.0447  -23.6164 O   0  0  0  0  0  0  0  0  0  0  0  0
   -4.4587    5.5115  -22.2837 C   0  0  0  0  0  0  0  0  0  0  0  0
   -6.3113    4.9480  -16.4187 C   0  0  0  0  0  0  0  0  0  0  0  0
   -6.1812    5.2611  -15.0844 C   0  0  0  0  0  0  0  0  0  0  0  0
   -7.2650    4.9796  -14.2463 C   0  0  0  0  0  0  0  0  0  0  0  0
   -8.4436    4.4041  -14.7503 C   0  0  0  0  0  0  0  0  0  0  0  0
   -8.5646    4.0985  -16.1025 C   0  0  0  0  0  0  0  0  0  0  0  0
   -7.4804    4.3746  -16.9083 C   0  0  0  0  0  0  0  0  0  0  0  0
  1  2  1  0
  2  3  1  0
  3  4  1  0
  4  5  2  0
  4  6  1  0
  6  7  1  0
  7  8  1  0
  8  9  2  0
  8 10  1  0
 10 11  1  0
 11 12  1  0
 12 13  1  0
 12 14  1  0
 14 15  1  0
 15 16  1  0
  6 17  1  0
 17 18  2  0
 18 19  1  0
 19 20  2  0
 20 21  1  0
 21 22  2  0
 22  3  1  0
 16 12  1  0
 22 17  1  0
M  END
>  <energy_score>  (4631) 
-18.787231

>  <alias>  (4631) 
GVPQEVCJCABEHT-UHFFFAOYSA-N-P268-P8-P268-601530

>  <HIPPO Pose ID>  (4631) 
85120

>  <smiles>  (4631) 
CCn1c(=O)n(CC(=O)NCC2(C)COC2)c2ccccc21

>  <inchikey>  (4631) 
GVPQEVCJCABEHT-UHFFFAOYSA-N

>  <distance_score>  (4631) 
1.315109

>  <ref_mols>  (4631) 
Z0101a,Z4245a

>  <ref_pdb>  (4631) 
Z0089a

>  <HIPPO Compound ID>  (4631) 
146806

>  <name>  (4631) 
GVPQEVCJCABEHT-UHFFFAOYSA-N-P268-P8-P268-601530

>  <inspiration_score>  (4631) 
None

$$$$
JHTJLMXMHZWXOH-UHFFFAOYSA-N-P8-P8-P268-601530
     RDKit          3D

 22 24  0  0  0  0  0  0  0  0999 V2000
   -9.0447    3.6158  -19.7882 C   0  0  0  0  0  0  0  0  0  0  0  0
   -8.7249    4.6572  -18.7811 C   0  0  0  0  0  0  0  0  0  0  0  0
   -7.5392    4.3943  -18.0359 N   0  0  0  0  0  0  0  0  0  0  0  0
   -6.2190    4.4988  -18.5260 C   0  0  0  0  0  0  0  0  0  0  0  0
   -5.8343    4.5164  -19.6876 O   0  0  0  0  0  0  0  0  0  0  0  0
   -5.3922    4.6286  -17.3861 N   0  0  0  0  0  0  0  0  0  0  0  0
   -3.9540    4.6009  -17.4013 C   0  0  0  0  0  0  0  0  0  0  0  0
   -3.4036    5.8427  -18.1181 C   0  0  0  0  0  0  0  0  0  0  0  0
   -3.3260    6.8928  -17.6111 O   0  0  0  0  0  0  0  0  0  0  0  0
   -3.0912    5.4027  -19.5758 N   0  0  0  0  0  0  0  0  0  0  0  0
   -2.7124    6.1811  -20.7259 C   0  0  0  0  0  0  0  0  0  0  0  0
   -3.9769    6.3531  -21.5646 C   0  0  0  0  0  0  0  0  0  0  0  0
   -5.0139    7.0287  -20.8034 O   0  0  0  0  0  0  0  0  0  0  0  0
   -3.7117    6.9389  -22.9624 C   0  0  0  0  0  0  0  0  0  0  0  0
   -4.0722    5.7001  -23.6155 O   0  0  0  0  0  0  0  0  0  0  0  0
   -4.4107    5.0968  -22.3486 C   0  0  0  0  0  0  0  0  0  0  0  0
   -6.1935    4.5543  -16.2407 C   0  0  0  0  0  0  0  0  0  0  0  0
   -5.8629    4.6020  -14.9072 C   0  0  0  0  0  0  0  0  0  0  0  0
   -6.9053    4.4841  -13.9824 C   0  0  0  0  0  0  0  0  0  0  0  0
   -8.2377    4.3265  -14.4003 C   0  0  0  0  0  0  0  0  0  0  0  0
   -8.5584    4.2938  -15.7528 C   0  0  0  0  0  0  0  0  0  0  0  0
   -7.5157    4.4107  -16.6457 C   0  0  0  0  0  0  0  0  0  0  0  0
  1  2  1  0
  2  3  1  0
  3  4  1  0
  4  5  2  0
  4  6  1  0
  6  7  1  0
  7  8  1  0
  8  9  2  0
  8 10  1  0
 10 11  1  0
 11 12  1  0
 12 13  1  0
 12 14  1  0
 14 15  1  0
 15 16  1  0
  6 17  1  0
 17 18  2  0
 18 19  1  0
 19 20  2  0
 20 21  1  0
 21 22  2  0
 22  3  1  0
 16 12  1  0
 22 17  1  0
M  END
>  <energy_score>  (4632) 
-19.606612

>  <alias>  (4632) 
JHTJLMXMHZWXOH-UHFFFAOYSA-N-P8-P8-P268-601530

>  <HIPPO Pose ID>  (4632) 
85125

>  <smiles>  (4632) 
CCn1c(=O)n(CC(=O)NCC2(O)COC2)c2ccccc21

>  <inchikey>  (4632) 
JHTJLMXMHZWXOH-UHFFFAOYSA-N

>  <distance_score>  (4632) 
1.452712

>  <ref_mols>  (4632) 
Z0101a,Z4245a

>  <ref_pdb>  (4632) 
Z0089a

>  <HIPPO Compound ID>  (4632) 
146809

>  <name>  (4632) 
JHTJLMXMHZWXOH-UHFFFAOYSA-N-P8-P8-P268-601530

>  <inspiration_score>  (4632) 
None

$$$$
TWZWZNVWQGAXBO-UHFFFAOYSA-N-P268-P8-P268-601530
     RDKit          3D

 22 25  0  0  0  0  0  0  0  0999 V2000
   -9.2071    2.6100  -18.2017 C   0  0  0  0  0  0  0  0  0  0  0  0
   -8.8086    3.9370  -18.8148 C   0  0  0  0  0  0  0  0  0  0  0  0
   -7.6512    4.4726  -18.1663 N   0  0  0  0  0  0  0  0  0  0  0  0
   -6.3514    4.5463  -18.6871 C   0  0  0  0  0  0  0  0  0  0  0  0
   -5.9671    4.2110  -19.8002 O   0  0  0  0  0  0  0  0  0  0  0  0
   -5.5386    5.0535  -17.6354 N   0  0  0  0  0  0  0  0  0  0  0  0
   -4.1013    5.1934  -17.6592 C   0  0  0  0  0  0  0  0  0  0  0  0
   -3.6794    6.3285  -18.5941 C   0  0  0  0  0  0  0  0  0  0  0  0
   -3.2802    7.3677  -18.2394 O   0  0  0  0  0  0  0  0  0  0  0  0
   -3.8437    5.7486  -20.0264 N   0  0  0  0  0  0  0  0  0  0  0  0
   -3.6452    6.3477  -21.2809 C   0  0  2  0  0  0  0  0  0  0  0  0
   -4.0416    7.7869  -21.4530 C   0  0  0  0  0  0  0  0  0  0  0  0
   -4.4753    7.9394  -22.8222 O   0  0  0  0  0  0  0  0  0  0  0  0
   -4.8966    6.6452  -23.2872 C   0  0  0  0  0  0  0  0  0  0  0  0
   -4.1635    5.6387  -22.4756 C   0  0  1  0  0  0  0  0  0  0  0  0
   -2.6775    5.7073  -22.2420 C   0  0  0  0  0  0  0  0  0  0  0  0
   -6.3150    5.1049  -16.4681 C   0  0  0  0  0  0  0  0  0  0  0  0
   -5.9692    5.3625  -15.1611 C   0  0  0  0  0  0  0  0  0  0  0  0
   -6.9719    5.2477  -14.1903 C   0  0  0  0  0  0  0  0  0  0  0  0
   -8.2907    4.9123  -14.5377 C   0  0  0  0  0  0  0  0  0  0  0  0
   -8.6312    4.6916  -15.8660 C   0  0  0  0  0  0  0  0  0  0  0  0
   -7.6183    4.7688  -16.8030 C   0  0  0  0  0  0  0  0  0  0  0  0
  1  2  1  0
  2  3  1  0
  3  4  1  0
  4  5  2  0
  4  6  1  0
  6  7  1  0
  7  8  1  0
  8  9  2  0
  8 10  1  0
 11 10  1  1
 11 12  1  0
 12 13  1  0
 13 14  1  0
 15 14  1  6
 15 16  1  0
  6 17  1  0
 17 18  2  0
 18 19  1  0
 19 20  2  0
 20 21  1  0
 21 22  2  0
 22  3  1  0
 15 11  1  0
 22 17  1  0
 16 11  1  0
M  END
>  <energy_score>  (4633) 
-9.095689

>  <alias>  (4633) 
TWZWZNVWQGAXBO-UHFFFAOYSA-N-P268-P8-P268-601530

>  <HIPPO Pose ID>  (4633) 
85128

>  <smiles>  (4633) 
CCn1c(=O)n(CC(=O)NC23COCC2C3)c2ccccc21

>  <inchikey>  (4633) 
TWZWZNVWQGAXBO-UHFFFAOYSA-N

>  <distance_score>  (4633) 
1.446956

>  <ref_mols>  (4633) 
Z0101a,Z4245a

>  <ref_pdb>  (4633) 
Z0089a

>  <HIPPO Compound ID>  (4633) 
146810

>  <name>  (4633) 
TWZWZNVWQGAXBO-UHFFFAOYSA-N-P268-P8-P268-601530

>  <inspiration_score>  (4633) 
None

$$$$
HVPIGQZRMFQIIU-UHFFFAOYSA-N-P8-P8-P268-601530
     RDKit          3D

 23 25  0  0  0  0  0  0  0  0999 V2000
  -10.1990    4.4399  -19.1026 C   0  0  0  0  0  0  0  0  0  0  0  0
   -8.9212    3.6406  -19.0426 C   0  0  0  0  0  0  0  0  0  0  0  0
   -7.8408    4.2367  -18.3008 N   0  0  0  0  0  0  0  0  0  0  0  0
   -6.5950    4.6489  -18.8003 C   0  0  0  0  0  0  0  0  0  0  0  0
   -6.1577    4.5549  -19.9348 O   0  0  0  0  0  0  0  0  0  0  0  0
   -5.8770    5.2451  -17.7162 N   0  0  0  0  0  0  0  0  0  0  0  0
   -5.3736    6.6042  -17.8658 C   0  0  0  0  0  0  0  0  0  0  0  0
   -4.1393    6.8788  -18.7241 C   0  0  0  0  0  0  0  0  0  0  0  0
   -3.1327    7.2441  -18.2590 O   0  0  0  0  0  0  0  0  0  0  0  0
   -4.5473    6.6824  -20.2034 N   0  0  0  0  0  0  0  0  0  0  0  0
   -3.7729    6.8033  -21.4102 C   0  0  2  0  0  0  0  0  0  0  0  0
   -4.6517    7.0749  -22.6296 C   0  0  0  0  0  0  0  0  0  0  0  0
   -4.9247    5.8145  -23.2642 O   0  0  0  0  0  0  0  0  0  0  0  0
   -4.2086    4.7951  -22.5524 C   0  0  0  0  0  0  0  0  0  0  0  0
   -3.1043    5.4797  -21.7612 C   0  0  0  0  0  0  0  0  0  0  0  0
   -1.8966    5.7430  -22.6846 C   0  0  0  0  0  0  0  0  0  0  0  0
   -2.6643    4.6200  -20.5720 C   0  0  0  0  0  0  0  0  0  0  0  0
   -6.6423    4.9945  -16.5577 C   0  0  0  0  0  0  0  0  0  0  0  0
   -6.3443    5.2973  -15.2456 C   0  0  0  0  0  0  0  0  0  0  0  0
   -7.2983    4.9746  -14.2836 C   0  0  0  0  0  0  0  0  0  0  0  0
   -8.5173    4.3868  -14.6551 C   0  0  0  0  0  0  0  0  0  0  0  0
   -8.8058    4.0991  -15.9897 C   0  0  0  0  0  0  0  0  0  0  0  0
   -7.8407    4.3975  -16.9196 C   0  0  0  0  0  0  0  0  0  0  0  0
  1  2  1  0
  2  3  1  0
  3  4  1  0
  4  5  2  0
  4  6  1  0
  6  7  1  0
  7  8  1  0
  8  9  2  0
  8 10  1  0
 11 10  1  1
 11 12  1  0
 12 13  1  0
 13 14  1  0
 14 15  1  0
 15 16  1  0
 15 17  1  0
  6 18  1  0
 18 19  2  0
 19 20  1  0
 20 21  2  0
 21 22  1  0
 22 23  2  0
 23  3  1  0
 15 11  1  0
 23 18  1  0
M  END
>  <energy_score>  (4634) 
-9.182024

>  <alias>  (4634) 
HVPIGQZRMFQIIU-UHFFFAOYSA-N-P8-P8-P268-601530

>  <HIPPO Pose ID>  (4634) 
85143

>  <smiles>  (4634) 
CCn1c(=O)n(CC(=O)NC2COCC2(C)C)c2ccccc21

>  <inchikey>  (4634) 
HVPIGQZRMFQIIU-UHFFFAOYSA-N

>  <distance_score>  (4634) 
1.137129

>  <ref_mols>  (4634) 
Z0101a,Z4245a

>  <ref_pdb>  (4634) 
Z0089a

>  <HIPPO Compound ID>  (4634) 
146818

>  <name>  (4634) 
HVPIGQZRMFQIIU-UHFFFAOYSA-N-P8-P8-P268-601530

>  <inspiration_score>  (4634) 
None

$$$$
TUGCREUMFOLKOE-UHFFFAOYSA-N-P8-P8-P268-601530
     RDKit          3D

 23 24  0  0  0  0  0  0  0  0999 V2000
  -10.2311    4.0116  -18.5222 C   0  0  0  0  0  0  0  0  0  0  0  0
   -8.8459    4.2659  -19.0681 C   0  0  0  0  0  0  0  0  0  0  0  0
   -7.7103    4.2412  -18.1915 N   0  0  0  0  0  0  0  0  0  0  0  0
   -6.3771    4.3701  -18.6771 C   0  0  0  0  0  0  0  0  0  0  0  0
   -5.9768    4.2737  -19.8291 O   0  0  0  0  0  0  0  0  0  0  0  0
   -5.5711    4.6298  -17.5448 N   0  0  0  0  0  0  0  0  0  0  0  0
   -4.1320    4.5964  -17.5302 C   0  0  0  0  0  0  0  0  0  0  0  0
   -3.5769    5.8496  -18.2139 C   0  0  0  0  0  0  0  0  0  0  0  0
   -3.7368    6.9300  -17.7970 O   0  0  0  0  0  0  0  0  0  0  0  0
   -2.9099    5.3677  -19.5324 N   0  0  0  0  0  0  0  0  0  0  0  0
   -2.3933    6.1154  -20.6418 C   0  0  0  0  0  0  0  0  0  0  0  0
   -3.4947    6.4157  -21.6854 C   0  0  0  0  0  0  0  0  0  0  0  0
   -4.5995    7.2869  -21.0626 C   0  0  0  0  0  0  0  0  0  0  0  0
   -4.0533    5.0887  -22.2577 C   0  0  0  0  0  0  0  0  0  0  0  0
   -5.3394    5.2193  -22.8408 O   0  0  0  0  0  0  0  0  0  0  0  0
   -2.8054    7.2233  -22.8178 C   0  0  0  0  0  0  0  0  0  0  0  0
   -3.7215    7.6711  -23.8064 O   0  0  0  0  0  0  0  0  0  0  0  0
   -6.3774    4.6260  -16.4063 C   0  0  0  0  0  0  0  0  0  0  0  0
   -6.0224    4.8032  -15.0847 C   0  0  0  0  0  0  0  0  0  0  0  0
   -7.0268    4.6906  -14.1270 C   0  0  0  0  0  0  0  0  0  0  0  0
   -8.3420    4.4022  -14.5067 C   0  0  0  0  0  0  0  0  0  0  0  0
   -8.6831    4.2436  -15.8505 C   0  0  0  0  0  0  0  0  0  0  0  0
   -7.6912    4.3749  -16.7968 C   0  0  0  0  0  0  0  0  0  0  0  0
  1  2  1  0
  2  3  1  0
  3  4  1  0
  4  5  2  0
  4  6  1  0
  6  7  1  0
  7  8  1  0
  8  9  2  0
  8 10  1  0
 10 11  1  0
 11 12  1  0
 12 13  1  0
 12 14  1  0
 14 15  1  0
 12 16  1  0
 16 17  1  0
  6 18  1  0
 18 19  2  0
 19 20  1  0
 20 21  2  0
 21 22  1  0
 22 23  2  0
 23  3  1  0
 23 18  1  0
M  END
>  <energy_score>  (4635) 
-11.734022

>  <alias>  (4635) 
TUGCREUMFOLKOE-UHFFFAOYSA-N-P8-P8-P268-601530

>  <HIPPO Pose ID>  (4635) 
85149

>  <smiles>  (4635) 
CCn1c(=O)n(CC(=O)NCC(C)(CO)CO)c2ccccc21

>  <inchikey>  (4635) 
TUGCREUMFOLKOE-UHFFFAOYSA-N

>  <distance_score>  (4635) 
1.304519

>  <ref_mols>  (4635) 
Z0101a,Z4245a

>  <ref_pdb>  (4635) 
Z0089a

>  <HIPPO Compound ID>  (4635) 
146821

>  <name>  (4635) 
TUGCREUMFOLKOE-UHFFFAOYSA-N-P8-P8-P268-601530

>  <inspiration_score>  (4635) 
None

$$$$
FVGIXSDIEVFZRI-UHFFFAOYSA-N-P8-P8-P268-601530
     RDKit          3D

 23 26  0  0  0  0  0  0  0  0999 V2000
  -10.1757    4.4450  -19.1820 C   0  0  0  0  0  0  0  0  0  0  0  0
   -8.8539    3.7284  -19.2635 C   0  0  0  0  0  0  0  0  0  0  0  0
   -7.7739    4.2706  -18.4833 N   0  0  0  0  0  0  0  0  0  0  0  0
   -6.4292    4.3511  -18.9132 C   0  0  0  0  0  0  0  0  0  0  0  0
   -5.9564    4.1704  -20.0286 O   0  0  0  0  0  0  0  0  0  0  0  0
   -5.6580    4.6614  -17.7655 N   0  0  0  0  0  0  0  0  0  0  0  0
   -4.2155    4.5956  -17.6844 C   0  0  0  0  0  0  0  0  0  0  0  0
   -3.5751    5.9138  -18.1152 C   0  0  0  0  0  0  0  0  0  0  0  0
   -2.8942    6.5689  -17.4276 O   0  0  0  0  0  0  0  0  0  0  0  0
   -3.9723    6.0961  -19.6050 N   0  0  0  0  0  0  0  0  0  0  0  0
   -3.5492    7.0417  -20.5518 C   0  0  1  0  0  0  0  0  0  0  0  0
   -3.4398    6.5739  -21.9695 C   0  0  1  0  0  0  0  0  0  0  0  0
   -4.1583    5.6851  -22.9164 C   0  0  0  0  0  0  0  0  0  0  0  0
   -4.9775    6.5893  -23.8823 C   0  0  0  0  0  0  0  0  0  0  0  0
   -4.5980    8.1027  -23.8268 C   0  0  0  0  0  0  0  0  0  0  0  0
   -4.4155    8.6346  -22.4876 O   0  0  0  0  0  0  0  0  0  0  0  0
   -4.5139    7.5756  -21.5278 C   0  0  2  0  0  0  0  0  0  0  0  0
   -6.5030    4.6790  -16.6540 C   0  0  0  0  0  0  0  0  0  0  0  0
   -6.2002    4.8569  -15.3211 C   0  0  0  0  0  0  0  0  0  0  0  0
   -7.2409    4.7127  -14.4064 C   0  0  0  0  0  0  0  0  0  0  0  0
   -8.5372    4.3964  -14.8409 C   0  0  0  0  0  0  0  0  0  0  0  0
   -8.8298    4.2357  -16.1961 C   0  0  0  0  0  0  0  0  0  0  0  0
   -7.7959    4.3977  -17.0886 C   0  0  0  0  0  0  0  0  0  0  0  0
  1  2  1  0
  2  3  1  0
  3  4  1  0
  4  5  2  0
  4  6  1  0
  6  7  1  0
  7  8  1  0
  8  9  2  0
  8 10  1  0
 11 10  1  1
 11 12  1  0
 12 13  1  1
 13 14  1  0
 14 15  1  0
 15 16  1  0
 17 16  1  6
  6 18  1  0
 18 19  2  0
 19 20  1  0
 20 21  2  0
 21 22  1  0
 22 23  2  0
 23  3  1  0
 17 11  1  0
 23 18  1  0
 17 12  1  0
M  END
>  <energy_score>  (4636) 
-21.318069

>  <alias>  (4636) 
FVGIXSDIEVFZRI-UHFFFAOYSA-N-P8-P8-P268-601530

>  <HIPPO Pose ID>  (4636) 
85161

>  <smiles>  (4636) 
CCn1c(=O)n(CC(=O)NC2C3CCCOC32)c2ccccc21

>  <inchikey>  (4636) 
FVGIXSDIEVFZRI-UHFFFAOYSA-N

>  <distance_score>  (4636) 
1.264704

>  <ref_mols>  (4636) 
Z0101a,Z4245a

>  <ref_pdb>  (4636) 
Z0089a

>  <HIPPO Compound ID>  (4636) 
146827

>  <name>  (4636) 
FVGIXSDIEVFZRI-UHFFFAOYSA-N-P8-P8-P268-601530

>  <inspiration_score>  (4636) 
None

$$$$
DKJSYABDRUVDPC-UHFFFAOYSA-N-P268-P8-P268-601530
     RDKit          3D

 23 26  0  0  0  0  0  0  0  0999 V2000
   -9.5174    4.6198  -19.1464 C   0  0  0  0  0  0  0  0  0  0  0  0
   -8.4668    3.5455  -19.0447 C   0  0  0  0  0  0  0  0  0  0  0  0
   -7.4040    3.9791  -18.1996 N   0  0  0  0  0  0  0  0  0  0  0  0
   -6.2351    4.5866  -18.6720 C   0  0  0  0  0  0  0  0  0  0  0  0
   -5.9077    4.7047  -19.8438 O   0  0  0  0  0  0  0  0  0  0  0  0
   -5.5441    5.0775  -17.5374 N   0  0  0  0  0  0  0  0  0  0  0  0
   -4.5126    6.0895  -17.5635 C   0  0  0  0  0  0  0  0  0  0  0  0
   -3.1891    5.7289  -18.2606 C   0  0  0  0  0  0  0  0  0  0  0  0
   -2.1630    5.6835  -17.7047 O   0  0  0  0  0  0  0  0  0  0  0  0
   -3.5239    5.5681  -19.7647 N   0  0  0  0  0  0  0  0  0  0  0  0
   -2.6769    5.2240  -20.8826 C   0  0  1  0  0  0  0  0  0  0  0  0
   -3.3943    4.3709  -21.9490 C   0  0  0  0  0  0  0  0  0  0  0  0
   -3.6320    5.6358  -22.7919 C   0  0  1  0  0  0  0  0  0  0  0  0
   -4.9237    6.4226  -22.6423 C   0  0  0  0  0  0  0  0  0  0  0  0
   -4.6961    7.4450  -21.6636 O   0  0  0  0  0  0  0  0  0  0  0  0
   -3.2879    7.6942  -21.6506 C   0  0  0  0  0  0  0  0  0  0  0  0
   -2.6067    6.3707  -21.9284 C   0  0  1  0  0  0  0  0  0  0  0  0
   -6.3789    4.8809  -16.4188 C   0  0  0  0  0  0  0  0  0  0  0  0
   -6.2254    5.2679  -15.1059 C   0  0  0  0  0  0  0  0  0  0  0  0
   -7.2677    4.9776  -14.2204 C   0  0  0  0  0  0  0  0  0  0  0  0
   -8.4350    4.3318  -14.6600 C   0  0  0  0  0  0  0  0  0  0  0  0
   -8.5792    3.9501  -15.9902 C   0  0  0  0  0  0  0  0  0  0  0  0
   -7.5279    4.2199  -16.8374 C   0  0  0  0  0  0  0  0  0  0  0  0
  1  2  1  0
  2  3  1  0
  3  4  1  0
  4  5  2  0
  4  6  1  0
  6  7  1  0
  7  8  1  0
  8  9  2  0
  8 10  1  0
 11 10  1  1
 11 12  1  0
 13 12  1  1
 13 14  1  0
 14 15  1  0
 15 16  1  0
 17 16  1  1
  6 18  1  0
 18 19  2  0
 19 20  1  0
 20 21  2  0
 21 22  1  0
 22 23  2  0
 23  3  1  0
 17 11  1  0
 23 18  1  0
 17 13  1  0
M  END
>  <energy_score>  (4637) 
-2.706169

>  <alias>  (4637) 
DKJSYABDRUVDPC-UHFFFAOYSA-N-P268-P8-P268-601530

>  <HIPPO Pose ID>  (4637) 
85164

>  <smiles>  (4637) 
CCn1c(=O)n(CC(=O)NC2CC3COCC32)c2ccccc21

>  <inchikey>  (4637) 
DKJSYABDRUVDPC-UHFFFAOYSA-N

>  <distance_score>  (4637) 
1.336326

>  <ref_mols>  (4637) 
Z0101a,Z4245a

>  <ref_pdb>  (4637) 
Z0089a

>  <HIPPO Compound ID>  (4637) 
146828

>  <name>  (4637) 
DKJSYABDRUVDPC-UHFFFAOYSA-N-P268-P8-P268-601530

>  <inspiration_score>  (4637) 
None

$$$$
HKBSUKPLEWUBHG-UHFFFAOYSA-N-P8-P8-P268-601530
     RDKit          3D

 23 25  0  0  0  0  0  0  0  0999 V2000
  -10.1590    4.4404  -19.1620 C   0  0  0  0  0  0  0  0  0  0  0  0
   -8.8501    3.6919  -19.1755 C   0  0  0  0  0  0  0  0  0  0  0  0
   -7.7867    4.2610  -18.3916 N   0  0  0  0  0  0  0  0  0  0  0  0
   -6.5201    4.6709  -18.8633 C   0  0  0  0  0  0  0  0  0  0  0  0
   -6.0920    4.6286  -20.0052 O   0  0  0  0  0  0  0  0  0  0  0  0
   -5.8180    5.1719  -17.7340 N   0  0  0  0  0  0  0  0  0  0  0  0
   -4.8347    6.2268  -17.7993 C   0  0  0  0  0  0  0  0  0  0  0  0
   -3.4078    5.8116  -18.1509 C   0  0  0  0  0  0  0  0  0  0  0  0
   -2.4967    5.9504  -17.4148 O   0  0  0  0  0  0  0  0  0  0  0  0
   -3.4433    5.3272  -19.5824 N   0  0  0  0  0  0  0  0  0  0  0  0
   -2.3520    4.7857  -20.4605 C   0  0  0  0  0  0  0  0  0  0  0  0
   -2.9864    5.4809  -21.6572 C   0  0  0  0  0  0  0  0  0  0  0  0
   -4.1580    4.7411  -22.2957 C   0  0  0  0  0  0  0  0  0  0  0  0
   -5.2342    5.6339  -22.5699 O   0  0  0  0  0  0  0  0  0  0  0  0
   -2.0045    6.0060  -22.6976 C   0  0  0  0  0  0  0  0  0  0  0  0
   -1.4106    4.9219  -23.4100 O   0  0  0  0  0  0  0  0  0  0  0  0
   -3.2906    6.5036  -20.5846 C   0  0  0  0  0  0  0  0  0  0  0  0
   -6.6083    4.9600  -16.5999 C   0  0  0  0  0  0  0  0  0  0  0  0
   -6.3350    5.2363  -15.2773 C   0  0  0  0  0  0  0  0  0  0  0  0
   -7.3222    4.9272  -14.3452 C   0  0  0  0  0  0  0  0  0  0  0  0
   -8.5449    4.3740  -14.7556 C   0  0  0  0  0  0  0  0  0  0  0  0
   -8.8078    4.1079  -16.1004 C   0  0  0  0  0  0  0  0  0  0  0  0
   -7.8146    4.3994  -17.0034 C   0  0  0  0  0  0  0  0  0  0  0  0
  1  2  1  0
  2  3  1  0
  3  4  1  0
  4  5  2  0
  4  6  1  0
  6  7  1  0
  7  8  1  0
  8  9  2  0
  8 10  1  0
 10 11  1  0
 11 12  1  0
 12 13  1  0
 13 14  1  0
 12 15  1  0
 15 16  1  0
 12 17  1  0
  6 18  1  0
 18 19  2  0
 19 20  1  0
 20 21  2  0
 21 22  1  0
 22 23  2  0
 23  3  1  0
 17 10  1  0
 23 18  1  0
M  END
>  <energy_score>  (4638) 
-6.26983

>  <alias>  (4638) 
HKBSUKPLEWUBHG-UHFFFAOYSA-N-P8-P8-P268-601530

>  <HIPPO Pose ID>  (4638) 
85167

>  <smiles>  (4638) 
CCn1c(=O)n(CC(=O)N2CC(CO)(CO)C2)c2ccccc21

>  <inchikey>  (4638) 
HKBSUKPLEWUBHG-UHFFFAOYSA-N

>  <distance_score>  (4638) 
1.093241

>  <ref_mols>  (4638) 
Z0101a,Z4245a

>  <ref_pdb>  (4638) 
Z0089a

>  <HIPPO Compound ID>  (4638) 
146830

>  <name>  (4638) 
HKBSUKPLEWUBHG-UHFFFAOYSA-N-P8-P8-P268-601530

>  <inspiration_score>  (4638) 
None

$$$$
JDVZAUFNPFFFJF-UHFFFAOYSA-N-P8-P8-P268-601530
     RDKit          3D

 23 25  0  0  0  0  0  0  0  0999 V2000
   -9.1019    3.6081  -19.7635 C   0  0  0  0  0  0  0  0  0  0  0  0
   -8.7667    4.6167  -18.7294 C   0  0  0  0  0  0  0  0  0  0  0  0
   -7.6125    4.2946  -17.9558 N   0  0  0  0  0  0  0  0  0  0  0  0
   -6.2865    4.3410  -18.4496 C   0  0  0  0  0  0  0  0  0  0  0  0
   -5.9371    4.1972  -19.6111 O   0  0  0  0  0  0  0  0  0  0  0  0
   -5.4627    4.5942  -17.3160 N   0  0  0  0  0  0  0  0  0  0  0  0
   -4.0166    4.6746  -17.2962 C   0  0  0  0  0  0  0  0  0  0  0  0
   -3.4536    6.0045  -17.8393 C   0  0  0  0  0  0  0  0  0  0  0  0
   -2.6704    6.6844  -17.2795 O   0  0  0  0  0  0  0  0  0  0  0  0
   -4.0492    6.1348  -19.2200 N   0  0  0  0  0  0  0  0  0  0  0  0
   -3.9017    7.2197  -20.2568 C   0  0  0  0  0  0  0  0  0  0  0  0
   -4.0927    6.0863  -21.2755 C   0  0  0  0  0  0  0  0  0  0  0  0
   -3.6462    6.1566  -22.7167 C   0  0  0  0  0  0  0  0  0  0  0  0
   -4.8340    6.6012  -23.5703 C   0  0  0  0  0  0  0  0  0  0  0  0
   -3.1336    4.8028  -23.1942 C   0  0  0  0  0  0  0  0  0  0  0  0
   -2.6089    7.1263  -22.8652 O   0  0  0  0  0  0  0  0  0  0  0  0
   -3.2008    5.3894  -20.2751 C   0  0  0  0  0  0  0  0  0  0  0  0
   -6.2742    4.6227  -16.1761 C   0  0  0  0  0  0  0  0  0  0  0  0
   -5.9545    4.7936  -14.8497 C   0  0  0  0  0  0  0  0  0  0  0  0
   -6.9992    4.7220  -13.9229 C   0  0  0  0  0  0  0  0  0  0  0  0
   -8.3233    4.4921  -14.3334 C   0  0  0  0  0  0  0  0  0  0  0  0
   -8.6341    4.3533  -15.6810 C   0  0  0  0  0  0  0  0  0  0  0  0
   -7.5899    4.4256  -16.5740 C   0  0  0  0  0  0  0  0  0  0  0  0
  1  2  1  0
  2  3  1  0
  3  4  1  0
  4  5  2  0
  4  6  1  0
  6  7  1  0
  7  8  1  0
  8  9  2  0
  8 10  1  0
 10 11  1  0
 11 12  1  0
 12 13  1  0
 13 14  1  0
 13 15  1  0
 13 16  1  0
 12 17  1  0
  6 18  1  0
 18 19  2  0
 19 20  1  0
 20 21  2  0
 21 22  1  0
 22 23  2  0
 23  3  1  0
 17 10  1  0
 23 18  1  0
M  END
>  <energy_score>  (4639) 
-0.313989

>  <alias>  (4639) 
JDVZAUFNPFFFJF-UHFFFAOYSA-N-P8-P8-P268-601530

>  <HIPPO Pose ID>  (4639) 
85181

>  <smiles>  (4639) 
CCn1c(=O)n(CC(=O)N2CC(C(C)(C)O)C2)c2ccccc21

>  <inchikey>  (4639) 
JDVZAUFNPFFFJF-UHFFFAOYSA-N

>  <distance_score>  (4639) 
1.431101

>  <ref_mols>  (4639) 
Z0101a,Z4245a

>  <ref_pdb>  (4639) 
Z0089a

>  <HIPPO Compound ID>  (4639) 
146837

>  <name>  (4639) 
JDVZAUFNPFFFJF-UHFFFAOYSA-N-P8-P8-P268-601530

>  <inspiration_score>  (4639) 
None

$$$$
COVSUWNXCNOBOV-UHFFFAOYSA-N-P8-P8-P268-601530
     RDKit          3D

 23 25  0  0  0  0  0  0  0  0999 V2000
  -10.3039    4.4560  -19.0801 C   0  0  0  0  0  0  0  0  0  0  0  0
   -9.0289    3.6565  -19.1177 C   0  0  0  0  0  0  0  0  0  0  0  0
   -7.9075    4.2080  -18.4090 N   0  0  0  0  0  0  0  0  0  0  0  0
   -6.5942    4.3091  -18.9053 C   0  0  0  0  0  0  0  0  0  0  0  0
   -6.1728    4.1335  -20.0429 O   0  0  0  0  0  0  0  0  0  0  0  0
   -5.7769    4.6871  -17.8141 N   0  0  0  0  0  0  0  0  0  0  0  0
   -4.3340    4.7622  -17.8260 C   0  0  0  0  0  0  0  0  0  0  0  0
   -3.8383    6.1265  -18.3276 C   0  0  0  0  0  0  0  0  0  0  0  0
   -3.0875    6.7984  -17.7389 O   0  0  0  0  0  0  0  0  0  0  0  0
   -4.4529    6.3062  -19.7373 N   0  0  0  0  0  0  0  0  0  0  0  0
   -4.2009    7.2872  -20.7377 C   0  0  0  0  0  0  0  0  0  0  0  0
   -3.4328    6.5766  -21.8411 C   0  0  0  0  0  0  0  0  0  0  0  0
   -3.9883    5.2427  -22.3254 C   0  0  0  0  0  0  0  0  0  0  0  0
   -5.3303    5.4004  -22.7685 O   0  0  0  0  0  0  0  0  0  0  0  0
   -3.1279    7.5627  -22.9736 C   0  0  0  0  0  0  0  0  0  0  0  0
   -1.7817    7.7744  -22.4768 O   0  0  0  0  0  0  0  0  0  0  0  0
   -1.9036    6.5893  -21.6435 C   0  0  0  0  0  0  0  0  0  0  0  0
   -6.5604    4.7051  -16.6588 C   0  0  0  0  0  0  0  0  0  0  0  0
   -6.2013    4.9241  -15.3471 C   0  0  0  0  0  0  0  0  0  0  0  0
   -7.1955    4.7728  -14.3813 C   0  0  0  0  0  0  0  0  0  0  0  0
   -8.5037    4.4149  -14.7451 C   0  0  0  0  0  0  0  0  0  0  0  0
   -8.8533    4.2158  -16.0806 C   0  0  0  0  0  0  0  0  0  0  0  0
   -7.8642    4.3767  -17.0210 C   0  0  0  0  0  0  0  0  0  0  0  0
  1  2  1  0
  2  3  1  0
  3  4  1  0
  4  5  2  0
  4  6  1  0
  6  7  1  0
  7  8  1  0
  8  9  2  0
  8 10  1  0
 10 11  1  0
 11 12  1  0
 12 13  1  0
 13 14  1  0
 12 15  1  0
 15 16  1  0
 16 17  1  0
  6 18  1  0
 18 19  2  0
 19 20  1  0
 20 21  2  0
 21 22  1  0
 22 23  2  0
 23  3  1  0
 17 12  1  0
 23 18  1  0
M  END
>  <energy_score>  (4640) 
-17.236187

>  <alias>  (4640) 
COVSUWNXCNOBOV-UHFFFAOYSA-N-P8-P8-P268-601530

>  <HIPPO Pose ID>  (4640) 
85197

>  <smiles>  (4640) 
CCn1c(=O)n(CC(=O)NCC2(CO)COC2)c2ccccc21

>  <inchikey>  (4640) 
COVSUWNXCNOBOV-UHFFFAOYSA-N

>  <distance_score>  (4640) 
1.340237

>  <ref_mols>  (4640) 
Z0101a,Z4245a

>  <ref_pdb>  (4640) 
Z0089a

>  <HIPPO Compound ID>  (4640) 
146845

>  <name>  (4640) 
COVSUWNXCNOBOV-UHFFFAOYSA-N-P8-P8-P268-601530

>  <inspiration_score>  (4640) 
None

$$$$
FPVKRKDGPLBXBX-UHFFFAOYSA-N-P8-P8-P268-601530
     RDKit          3D

 23 24  0  0  0  0  0  0  0  0999 V2000
  -10.2105    4.0068  -18.5365 C   0  0  0  0  0  0  0  0  0  0  0  0
   -8.8228    4.2678  -19.0732 C   0  0  0  0  0  0  0  0  0  0  0  0
   -7.6929    4.2381  -18.1899 N   0  0  0  0  0  0  0  0  0  0  0  0
   -6.3563    4.3520  -18.6680 C   0  0  0  0  0  0  0  0  0  0  0  0
   -5.9376    4.2206  -19.8090 O   0  0  0  0  0  0  0  0  0  0  0  0
   -5.5568    4.6311  -17.5365 N   0  0  0  0  0  0  0  0  0  0  0  0
   -4.1220    4.5440  -17.5122 C   0  0  0  0  0  0  0  0  0  0  0  0
   -3.4912    5.7456  -18.2159 C   0  0  0  0  0  0  0  0  0  0  0  0
   -3.4068    6.8024  -17.7248 O   0  0  0  0  0  0  0  0  0  0  0  0
   -3.0458    5.2496  -19.6175 N   0  0  0  0  0  0  0  0  0  0  0  0
   -2.4972    5.9686  -20.7261 C   0  0  0  0  0  0  0  0  0  0  0  0
   -3.5696    6.5331  -21.6777 C   0  0  1  0  0  0  0  0  0  0  0  0
   -4.6149    7.3697  -20.9409 C   0  0  0  0  0  0  0  0  0  0  0  0
   -2.8760    7.4279  -22.5831 O   0  0  0  0  0  0  0  0  0  0  0  0
   -4.2055    5.3955  -22.5118 C   0  0  0  0  0  0  0  0  0  0  0  0
   -5.3317    5.7854  -23.3073 O   0  0  0  0  0  0  0  0  0  0  0  0
   -5.0231    6.6705  -24.3742 C   0  0  0  0  0  0  0  0  0  0  0  0
   -6.3688    4.6337  -16.4015 C   0  0  0  0  0  0  0  0  0  0  0  0
   -6.0192    4.8112  -15.0786 C   0  0  0  0  0  0  0  0  0  0  0  0
   -7.0278    4.7008  -14.1249 C   0  0  0  0  0  0  0  0  0  0  0  0
   -8.3424    4.4152  -14.5096 C   0  0  0  0  0  0  0  0  0  0  0  0
   -8.6782    4.2564  -15.8546 C   0  0  0  0  0  0  0  0  0  0  0  0
   -7.6814    4.3836  -16.7966 C   0  0  0  0  0  0  0  0  0  0  0  0
  1  2  1  0
  2  3  1  0
  3  4  1  0
  4  5  2  0
  4  6  1  0
  6  7  1  0
  7  8  1  0
  8  9  2  0
  8 10  1  0
 10 11  1  0
 11 12  1  0
 12 13  1  1
 12 14  1  0
 12 15  1  0
 15 16  1  0
 16 17  1  0
  6 18  1  0
 18 19  2  0
 19 20  1  0
 20 21  2  0
 21 22  1  0
 22 23  2  0
 23  3  1  0
 23 18  1  0
M  END
>  <energy_score>  (4641) 
-0.800914

>  <alias>  (4641) 
FPVKRKDGPLBXBX-UHFFFAOYSA-N-P8-P8-P268-601530

>  <HIPPO Pose ID>  (4641) 
85199

>  <smiles>  (4641) 
CCn1c(=O)n(CC(=O)NCC(C)(O)COC)c2ccccc21

>  <inchikey>  (4641) 
FPVKRKDGPLBXBX-UHFFFAOYSA-N

>  <distance_score>  (4641) 
1.357993

>  <ref_mols>  (4641) 
Z0101a,Z4245a

>  <ref_pdb>  (4641) 
Z0089a

>  <HIPPO Compound ID>  (4641) 
146846

>  <name>  (4641) 
FPVKRKDGPLBXBX-UHFFFAOYSA-N-P8-P8-P268-601530

>  <inspiration_score>  (4641) 
None

$$$$
BNMAJOWIAKGFNK-UHFFFAOYSA-N-P268-P8-P268-601530
     RDKit          3D

 23 25  0  0  0  0  0  0  0  0999 V2000
  -10.6499    4.5342  -18.2056 C   0  0  0  0  0  0  0  0  0  0  0  0
   -9.4616    4.5555  -19.1481 C   0  0  0  0  0  0  0  0  0  0  0  0
   -8.4180    3.4901  -18.8843 C   0  0  0  0  0  0  0  0  0  0  0  0
   -7.3538    4.0328  -18.1024 N   0  0  0  0  0  0  0  0  0  0  0  0
   -6.1159    4.4638  -18.6136 C   0  0  0  0  0  0  0  0  0  0  0  0
   -5.6998    4.2943  -19.7501 O   0  0  0  0  0  0  0  0  0  0  0  0
   -5.4403    5.0756  -17.5282 N   0  0  0  0  0  0  0  0  0  0  0  0
   -4.0238    5.3471  -17.4863 C   0  0  0  0  0  0  0  0  0  0  0  0
   -3.6053    6.6829  -18.1134 C   0  0  0  0  0  0  0  0  0  0  0  0
   -3.0485    7.5314  -17.5111 O   0  0  0  0  0  0  0  0  0  0  0  0
   -3.9581    6.5955  -19.5849 N   0  0  0  0  0  0  0  0  0  0  0  0
   -3.7958    7.6011  -20.6959 C   0  0  0  0  0  0  0  0  0  0  0  0
   -3.4841    6.4589  -21.6442 C   0  0  0  0  0  0  0  0  0  0  0  0
   -4.6684    5.6730  -22.1894 C   0  0  0  0  0  0  0  0  0  0  0  0
   -4.9252    6.0359  -23.5505 O   0  0  0  0  0  0  0  0  0  0  0  0
   -5.4999    7.3251  -23.6977 C   0  0  0  0  0  0  0  0  0  0  0  0
   -2.8239    5.9180  -20.4024 C   0  0  0  0  0  0  0  0  0  0  0  0
   -6.2559    4.9775  -16.3891 C   0  0  0  0  0  0  0  0  0  0  0  0
   -6.0337    5.3744  -15.0899 C   0  0  0  0  0  0  0  0  0  0  0  0
   -7.0279    5.0875  -14.1470 C   0  0  0  0  0  0  0  0  0  0  0  0
   -8.2027    4.4085  -14.5108 C   0  0  0  0  0  0  0  0  0  0  0  0
   -8.4094    4.0144  -15.8282 C   0  0  0  0  0  0  0  0  0  0  0  0
   -7.4301    4.3259  -16.7464 C   0  0  0  0  0  0  0  0  0  0  0  0
  1  2  1  0
  2  3  1  0
  3  4  1  0
  4  5  1  0
  5  6  2  0
  5  7  1  0
  7  8  1  0
  8  9  1  0
  9 10  2  0
  9 11  1  0
 11 12  1  0
 12 13  1  0
 13 14  1  0
 14 15  1  0
 15 16  1  0
 13 17  1  0
  7 18  1  0
 18 19  2  0
 19 20  1  0
 20 21  2  0
 21 22  1  0
 22 23  2  0
 23  4  1  0
 17 11  1  0
 23 18  1  0
M  END
>  <energy_score>  (4642) 
-6.123196

>  <alias>  (4642) 
BNMAJOWIAKGFNK-UHFFFAOYSA-N-P268-P8-P268-601530

>  <HIPPO Pose ID>  (4642) 
85206

>  <smiles>  (4642) 
CCCn1c(=O)n(CC(=O)N2CC(COC)C2)c2ccccc21

>  <inchikey>  (4642) 
BNMAJOWIAKGFNK-UHFFFAOYSA-N

>  <distance_score>  (4642) 
1.360536

>  <ref_mols>  (4642) 
Z0101a,Z4245a

>  <ref_pdb>  (4642) 
Z0089a

>  <HIPPO Compound ID>  (4642) 
146849

>  <name>  (4642) 
BNMAJOWIAKGFNK-UHFFFAOYSA-N-P268-P8-P268-601530

>  <inspiration_score>  (4642) 
None

$$$$
DTZNCYONKDCHGC-UHFFFAOYSA-N-P268-P8-P268-601530
     RDKit          3D

 23 24  0  0  0  0  0  0  0  0999 V2000
  -10.0215    4.8629  -19.1446 C   0  0  0  0  0  0  0  0  0  0  0  0
   -9.8437    3.7872  -18.1329 C   0  0  0  0  0  0  0  0  0  0  0  0
   -8.4778    3.1640  -18.3231 C   0  0  0  0  0  0  0  0  0  0  0  0
   -7.4436    3.9725  -17.7318 N   0  0  0  0  0  0  0  0  0  0  0  0
   -6.5139    4.8019  -18.3975 C   0  0  0  0  0  0  0  0  0  0  0  0
   -6.2574    4.8277  -19.5940 O   0  0  0  0  0  0  0  0  0  0  0  0
   -5.9469    5.6379  -17.3804 N   0  0  0  0  0  0  0  0  0  0  0  0
   -5.4417    6.9768  -17.6070 C   0  0  0  0  0  0  0  0  0  0  0  0
   -4.1228    6.9133  -18.3394 C   0  0  0  0  0  0  0  0  0  0  0  0
   -3.1026    6.7134  -17.8098 O   0  0  0  0  0  0  0  0  0  0  0  0
   -4.4610    7.0577  -19.8426 N   0  0  0  0  0  0  0  0  0  0  0  0
   -3.6392    6.8928  -20.9965 C   0  0  0  0  0  0  0  0  0  0  0  0
   -3.3153    5.3949  -21.0001 C   0  0  0  0  0  0  0  0  0  0  0  0
   -1.8280    5.1140  -20.8602 C   0  0  0  0  0  0  0  0  0  0  0  0
   -1.2166    5.9414  -19.8789 O   0  0  0  0  0  0  0  0  0  0  0  0
   -3.9307    4.7011  -22.1974 C   0  0  0  0  0  0  0  0  0  0  0  0
   -5.3224    4.9787  -22.3090 O   0  0  0  0  0  0  0  0  0  0  0  0
   -6.5267    5.2879  -16.1522 C   0  0  0  0  0  0  0  0  0  0  0  0
   -6.3439    5.8184  -14.8936 C   0  0  0  0  0  0  0  0  0  0  0  0
   -7.1453    5.3300  -13.8572 C   0  0  0  0  0  0  0  0  0  0  0  0
   -8.1019    4.3341  -14.0923 C   0  0  0  0  0  0  0  0  0  0  0  0
   -8.2541    3.8005  -15.3652 C   0  0  0  0  0  0  0  0  0  0  0  0
   -7.4512    4.2882  -16.3739 C   0  0  0  0  0  0  0  0  0  0  0  0
  1  2  1  0
  2  3  1  0
  3  4  1  0
  4  5  1  0
  5  6  2  0
  5  7  1  0
  7  8  1  0
  8  9  1  0
  9 10  2  0
  9 11  1  0
 11 12  1  0
 12 13  1  0
 13 14  1  0
 14 15  1  0
 13 16  1  0
 16 17  1  0
  7 18  1  0
 18 19  2  0
 19 20  1  0
 20 21  2  0
 21 22  1  0
 22 23  2  0
 23  4  1  0
 23 18  1  0
M  END
>  <energy_score>  (4643) 
-7.639347

>  <alias>  (4643) 
DTZNCYONKDCHGC-UHFFFAOYSA-N-P268-P8-P268-601530

>  <HIPPO Pose ID>  (4643) 
85210

>  <smiles>  (4643) 
CCCn1c(=O)n(CC(=O)NCC(CO)CO)c2ccccc21

>  <inchikey>  (4643) 
DTZNCYONKDCHGC-UHFFFAOYSA-N

>  <distance_score>  (4643) 
1.621794

>  <ref_mols>  (4643) 
Z0101a,Z4245a

>  <ref_pdb>  (4643) 
Z0089a

>  <HIPPO Compound ID>  (4643) 
146851

>  <name>  (4643) 
DTZNCYONKDCHGC-UHFFFAOYSA-N-P268-P8-P268-601530

>  <inspiration_score>  (4643) 
None

$$$$
CYGPXAHZFLGPOE-UHFFFAOYSA-N-P8-P8-P268-601530
     RDKit          3D

 23 26  0  0  0  0  0  0  0  0999 V2000
  -10.9808    4.1050  -18.2978 C   0  0  0  0  0  0  0  0  0  0  0  0
   -9.6921    3.3427  -18.4389 C   0  0  0  0  0  0  0  0  0  0  0  0
   -8.6149    4.1872  -19.0821 C   0  0  0  0  0  0  0  0  0  0  0  0
   -7.4358    4.4055  -18.3033 N   0  0  0  0  0  0  0  0  0  0  0  0
   -6.1379    4.4284  -18.8508 C   0  0  0  0  0  0  0  0  0  0  0  0
   -5.7862    4.1838  -19.9963 O   0  0  0  0  0  0  0  0  0  0  0  0
   -5.2635    4.7497  -17.7901 N   0  0  0  0  0  0  0  0  0  0  0  0
   -3.8450    4.5184  -17.8411 C   0  0  0  0  0  0  0  0  0  0  0  0
   -3.0500    5.5318  -18.6698 C   0  0  0  0  0  0  0  0  0  0  0  0
   -2.3867    6.3626  -18.1784 O   0  0  0  0  0  0  0  0  0  0  0  0
   -3.2389    5.1453  -20.1686 N   0  0  0  0  0  0  0  0  0  0  0  0
   -2.7381    5.7466  -21.3356 C   0  0  1  0  0  0  0  0  0  0  0  0
   -3.5322    5.9919  -22.5913 C   0  0  1  0  0  0  0  0  0  0  0  0
   -5.0135    6.0883  -22.6898 C   0  0  0  0  0  0  0  0  0  0  0  0
   -5.3580    7.4152  -22.2479 O   0  0  0  0  0  0  0  0  0  0  0  0
   -4.3698    7.7964  -21.2805 C   0  0  0  0  0  0  0  0  0  0  0  0
   -3.1191    7.1334  -21.7254 C   0  0  1  0  0  0  0  0  0  0  0  0
   -6.0151    4.8161  -16.6065 C   0  0  0  0  0  0  0  0  0  0  0  0
   -5.6034    4.9836  -15.3007 C   0  0  0  0  0  0  0  0  0  0  0  0
   -6.5791    4.9586  -14.2997 C   0  0  0  0  0  0  0  0  0  0  0  0
   -7.9325    4.7925  -14.6174 C   0  0  0  0  0  0  0  0  0  0  0  0
   -8.3312    4.6522  -15.9435 C   0  0  0  0  0  0  0  0  0  0  0  0
   -7.3580    4.6395  -16.9255 C   0  0  0  0  0  0  0  0  0  0  0  0
  1  2  1  0
  2  3  1  0
  3  4  1  0
  4  5  1  0
  5  6  2  0
  5  7  1  0
  7  8  1  0
  8  9  1  0
  9 10  2  0
  9 11  1  0
 12 11  1  1
 12 13  1  0
 13 14  1  1
 14 15  1  0
 15 16  1  0
 17 16  1  1
  7 18  1  0
 18 19  2  0
 19 20  1  0
 20 21  2  0
 21 22  1  0
 22 23  2  0
 23  4  1  0
 17 12  1  0
 23 18  1  0
 17 13  1  0
M  END
>  <energy_score>  (4644) 
-5.97889

>  <alias>  (4644) 
CYGPXAHZFLGPOE-UHFFFAOYSA-N-P8-P8-P268-601530

>  <HIPPO Pose ID>  (4644) 
85211

>  <smiles>  (4644) 
CCCn1c(=O)n(CC(=O)NC2C3COCC32)c2ccccc21

>  <inchikey>  (4644) 
CYGPXAHZFLGPOE-UHFFFAOYSA-N

>  <distance_score>  (4644) 
1.481164

>  <ref_mols>  (4644) 
Z0101a,Z4245a

>  <ref_pdb>  (4644) 
Z0089a

>  <HIPPO Compound ID>  (4644) 
146852

>  <name>  (4644) 
CYGPXAHZFLGPOE-UHFFFAOYSA-N-P8-P8-P268-601530

>  <inspiration_score>  (4644) 
None

$$$$
SSFSTOSNYGVOQH-UHFFFAOYSA-N-P8-P8-P268-601530
     RDKit          3D

 23 24  0  0  0  0  0  0  0  0999 V2000
  -10.1847    2.8708  -18.3408 C   0  0  0  0  0  0  0  0  0  0  0  0
   -9.3362    3.6012  -19.3510 C   0  0  0  0  0  0  0  0  0  0  0  0
   -8.8019    4.7897  -18.6350 C   0  0  0  0  0  0  0  0  0  0  0  0
   -7.5761    4.6113  -17.9194 N   0  0  0  0  0  0  0  0  0  0  0  0
   -6.3683    5.1576  -18.3777 C   0  0  0  0  0  0  0  0  0  0  0  0
   -6.1544    5.6216  -19.4858 O   0  0  0  0  0  0  0  0  0  0  0  0
   -5.4892    5.2637  -17.2718 N   0  0  0  0  0  0  0  0  0  0  0  0
   -4.5699    6.3928  -17.1513 C   0  0  0  0  0  0  0  0  0  0  0  0
   -3.3564    6.4061  -18.0922 C   0  0  0  0  0  0  0  0  0  0  0  0
   -2.2646    6.2483  -17.7078 O   0  0  0  0  0  0  0  0  0  0  0  0
   -3.8874    6.6905  -19.5214 N   0  0  0  0  0  0  0  0  0  0  0  0
   -3.1988    6.7442  -20.7752 C   0  0  0  0  0  0  0  0  0  0  0  0
   -3.1337    5.3566  -21.4436 C   0  0  0  0  0  0  0  0  0  0  0  0
   -2.5322    4.3400  -20.4612 C   0  0  0  0  0  0  0  0  0  0  0  0
   -2.2218    5.4963  -22.6803 C   0  0  0  0  0  0  0  0  0  0  0  0
   -4.4876    4.7959  -21.9131 C   0  0  0  0  0  0  0  0  0  0  0  0
   -5.2988    5.7780  -22.5378 O   0  0  0  0  0  0  0  0  0  0  0  0
   -6.2164    4.8388  -16.1407 C   0  0  0  0  0  0  0  0  0  0  0  0
   -5.8510    4.8535  -14.8121 C   0  0  0  0  0  0  0  0  0  0  0  0
   -6.8240    4.5192  -13.8693 C   0  0  0  0  0  0  0  0  0  0  0  0
   -8.1338    4.2148  -14.2630 C   0  0  0  0  0  0  0  0  0  0  0  0
   -8.4883    4.2138  -15.6085 C   0  0  0  0  0  0  0  0  0  0  0  0
   -7.5024    4.4866  -16.5330 C   0  0  0  0  0  0  0  0  0  0  0  0
  1  2  1  0
  2  3  1  0
  3  4  1  0
  4  5  1  0
  5  6  2  0
  5  7  1  0
  7  8  1  0
  8  9  1  0
  9 10  2  0
  9 11  1  0
 11 12  1  0
 12 13  1  0
 13 14  1  0
 13 15  1  0
 13 16  1  0
 16 17  1  0
  7 18  1  0
 18 19  2  0
 19 20  1  0
 20 21  2  0
 21 22  1  0
 22 23  2  0
 23  4  1  0
 23 18  1  0
M  END
>  <energy_score>  (4645) 
-7.969171

>  <alias>  (4645) 
SSFSTOSNYGVOQH-UHFFFAOYSA-N-P8-P8-P268-601530

>  <HIPPO Pose ID>  (4645) 
85213

>  <smiles>  (4645) 
CCCn1c(=O)n(CC(=O)NCC(C)(C)CO)c2ccccc21

>  <inchikey>  (4645) 
SSFSTOSNYGVOQH-UHFFFAOYSA-N

>  <distance_score>  (4645) 
1.509741

>  <ref_mols>  (4645) 
Z0101a,Z4245a

>  <ref_pdb>  (4645) 
Z0089a

>  <HIPPO Compound ID>  (4645) 
146853

>  <name>  (4645) 
SSFSTOSNYGVOQH-UHFFFAOYSA-N-P8-P8-P268-601530

>  <inspiration_score>  (4645) 
None

$$$$
SCHNJDYLLVKXHR-UHFFFAOYSA-N-P8-P8-P268-601530
     RDKit          3D

 23 24  0  0  0  0  0  0  0  0999 V2000
  -10.8822    4.5731  -18.3988 C   0  0  0  0  0  0  0  0  0  0  0  0
   -9.7146    4.5601  -19.3454 C   0  0  0  0  0  0  0  0  0  0  0  0
   -8.6810    3.5487  -18.9933 C   0  0  0  0  0  0  0  0  0  0  0  0
   -7.5916    4.1216  -18.2492 N   0  0  0  0  0  0  0  0  0  0  0  0
   -6.3036    4.3472  -18.7582 C   0  0  0  0  0  0  0  0  0  0  0  0
   -5.8995    4.0861  -19.8816 O   0  0  0  0  0  0  0  0  0  0  0  0
   -5.5177    4.8605  -17.6898 N   0  0  0  0  0  0  0  0  0  0  0  0
   -4.0795    4.6693  -17.6058 C   0  0  0  0  0  0  0  0  0  0  0  0
   -3.2098    5.5058  -18.5513 C   0  0  0  0  0  0  0  0  0  0  0  0
   -2.4757    6.3297  -18.1675 O   0  0  0  0  0  0  0  0  0  0  0  0
   -3.4464    4.9590  -19.9817 N   0  0  0  0  0  0  0  0  0  0  0  0
   -2.8975    5.3786  -21.2472 C   0  0  1  0  0  0  0  0  0  0  0  0
   -2.9088    4.2022  -22.2203 C   0  0  0  0  0  0  0  0  0  0  0  0
   -3.6539    6.5980  -21.8049 C   0  0  2  0  0  0  0  0  0  0  0  0
   -3.7133    7.7539  -20.8045 C   0  0  0  0  0  0  0  0  0  0  0  0
   -5.0662    6.2676  -22.2782 C   0  0  0  0  0  0  0  0  0  0  0  0
   -5.0590    5.8570  -23.6370 O   0  0  0  0  0  0  0  0  0  0  0  0
   -6.3242    4.8343  -16.5335 C   0  0  0  0  0  0  0  0  0  0  0  0
   -6.0045    5.1295  -15.2245 C   0  0  0  0  0  0  0  0  0  0  0  0
   -6.9854    4.9172  -14.2525 C   0  0  0  0  0  0  0  0  0  0  0  0
   -8.2423    4.4023  -14.5990 C   0  0  0  0  0  0  0  0  0  0  0  0
   -8.5494    4.1133  -15.9259 C   0  0  0  0  0  0  0  0  0  0  0  0
   -7.5859    4.3620  -16.8781 C   0  0  0  0  0  0  0  0  0  0  0  0
  1  2  1  0
  2  3  1  0
  3  4  1  0
  4  5  1  0
  5  6  2  0
  5  7  1  0
  7  8  1  0
  8  9  1  0
  9 10  2  0
  9 11  1  0
 11 12  1  0
 12 13  1  6
 12 14  1  0
 14 15  1  1
 14 16  1  0
 16 17  1  0
  7 18  1  0
 18 19  2  0
 19 20  1  0
 20 21  2  0
 21 22  1  0
 22 23  2  0
 23  4  1  0
 23 18  1  0
M  END
>  <energy_score>  (4646) 
-8.554873

>  <alias>  (4646) 
SCHNJDYLLVKXHR-UHFFFAOYSA-N-P8-P8-P268-601530

>  <HIPPO Pose ID>  (4646) 
85215

>  <smiles>  (4646) 
CCCn1c(=O)n(CC(=O)NC(C)C(C)CO)c2ccccc21

>  <inchikey>  (4646) 
SCHNJDYLLVKXHR-UHFFFAOYSA-N

>  <distance_score>  (4646) 
1.316167

>  <ref_mols>  (4646) 
Z0101a,Z4245a

>  <ref_pdb>  (4646) 
Z0089a

>  <HIPPO Compound ID>  (4646) 
146854

>  <name>  (4646) 
SCHNJDYLLVKXHR-UHFFFAOYSA-N-P8-P8-P268-601530

>  <inspiration_score>  (4646) 
None

$$$$
VVYOGDIAPSSCAD-UHFFFAOYSA-N-P268-P8-P268-601530
     RDKit          3D

 23 24  0  0  0  0  0  0  0  0999 V2000
  -10.5655    4.4797  -18.1378 C   0  0  0  0  0  0  0  0  0  0  0  0
   -9.4099    4.5172  -19.1195 C   0  0  0  0  0  0  0  0  0  0  0  0
   -8.3518    3.4500  -18.8971 C   0  0  0  0  0  0  0  0  0  0  0  0
   -7.2731    3.9784  -18.1178 N   0  0  0  0  0  0  0  0  0  0  0  0
   -6.2651    4.7762  -18.6807 C   0  0  0  0  0  0  0  0  0  0  0  0
   -5.9886    4.8675  -19.8647 O   0  0  0  0  0  0  0  0  0  0  0  0
   -5.6549    5.5077  -17.6134 N   0  0  0  0  0  0  0  0  0  0  0  0
   -5.4043    6.9281  -17.8171 C   0  0  0  0  0  0  0  0  0  0  0  0
   -4.4197    7.4251  -18.8766 C   0  0  0  0  0  0  0  0  0  0  0  0
   -4.4543    8.5279  -19.2564 O   0  0  0  0  0  0  0  0  0  0  0  0
   -3.4562    6.2780  -19.2297 N   0  0  0  0  0  0  0  0  0  0  0  0
   -2.3958    6.2162  -20.1895 C   0  0  0  0  0  0  0  0  0  0  0  0
   -2.8840    5.6501  -21.5262 C   0  0  1  0  0  0  0  0  0  0  0  0
   -3.1596    4.1630  -21.4118 C   0  0  0  0  0  0  0  0  0  0  0  0
   -4.0889    6.4045  -22.0999 C   0  0  0  0  0  0  0  0  0  0  0  0
   -4.4087    5.9187  -23.4041 O   0  0  0  0  0  0  0  0  0  0  0  0
   -5.3752    6.7471  -24.0394 C   0  0  0  0  0  0  0  0  0  0  0  0
   -6.3589    5.1437  -16.4356 C   0  0  0  0  0  0  0  0  0  0  0  0
   -6.2291    5.6247  -15.1500 C   0  0  0  0  0  0  0  0  0  0  0  0
   -7.1456    5.1783  -14.1921 C   0  0  0  0  0  0  0  0  0  0  0  0
   -8.1689    4.2804  -14.5320 C   0  0  0  0  0  0  0  0  0  0  0  0
   -8.2813    3.8000  -15.8325 C   0  0  0  0  0  0  0  0  0  0  0  0
   -7.3599    4.2407  -16.7580 C   0  0  0  0  0  0  0  0  0  0  0  0
  1  2  1  0
  2  3  1  0
  3  4  1  0
  4  5  1  0
  5  6  2  0
  5  7  1  0
  7  8  1  0
  8  9  1  0
  9 10  2  0
  9 11  1  0
 11 12  1  0
 12 13  1  0
 13 14  1  1
 13 15  1  0
 15 16  1  0
 16 17  1  0
  7 18  1  0
 18 19  2  0
 19 20  1  0
 20 21  2  0
 21 22  1  0
 22 23  2  0
 23  4  1  0
 23 18  1  0
M  END
>  <energy_score>  (4647) 
-18.843795

>  <alias>  (4647) 
VVYOGDIAPSSCAD-UHFFFAOYSA-N-P268-P8-P268-601530

>  <HIPPO Pose ID>  (4647) 
85220

>  <smiles>  (4647) 
CCCn1c(=O)n(CC(=O)NCC(C)COC)c2ccccc21

>  <inchikey>  (4647) 
VVYOGDIAPSSCAD-UHFFFAOYSA-N

>  <distance_score>  (4647) 
1.541875

>  <ref_mols>  (4647) 
Z0101a,Z4245a

>  <ref_pdb>  (4647) 
Z0089a

>  <HIPPO Compound ID>  (4647) 
146856

>  <name>  (4647) 
VVYOGDIAPSSCAD-UHFFFAOYSA-N-P268-P8-P268-601530

>  <inspiration_score>  (4647) 
None

$$$$
ODPBDWSNZYOIPY-UHFFFAOYSA-N-P8-P8-P268-601530
     RDKit          3D

 23 25  0  0  0  0  0  0  0  0999 V2000
   -9.8163    4.5322  -19.8378 C   0  0  0  0  0  0  0  0  0  0  0  0
  -10.2118    4.1096  -18.4635 C   0  0  0  0  0  0  0  0  0  0  0  0
   -8.9580    3.4637  -17.9525 C   0  0  0  0  0  0  0  0  0  0  0  0
   -7.8856    4.3376  -17.5547 N   0  0  0  0  0  0  0  0  0  0  0  0
   -6.6263    4.4929  -18.1984 C   0  0  0  0  0  0  0  0  0  0  0  0
   -6.2842    4.1969  -19.3358 O   0  0  0  0  0  0  0  0  0  0  0  0
   -5.7470    5.0329  -17.2065 N   0  0  0  0  0  0  0  0  0  0  0  0
   -4.3116    4.8504  -17.2281 C   0  0  0  0  0  0  0  0  0  0  0  0
   -3.5144    5.9042  -17.9968 C   0  0  0  0  0  0  0  0  0  0  0  0
   -2.6400    6.5135  -17.5234 O   0  0  0  0  0  0  0  0  0  0  0  0
   -4.0415    5.8738  -19.4447 N   0  0  0  0  0  0  0  0  0  0  0  0
   -3.5472    6.5099  -20.6278 C   0  0  0  0  0  0  0  0  0  0  0  0
   -3.3056    5.3507  -21.5943 C   0  0  0  0  0  0  0  0  0  0  0  0
   -2.6118    4.2466  -20.9472 O   0  0  0  0  0  0  0  0  0  0  0  0
   -4.5884    4.9493  -22.3448 C   0  0  0  0  0  0  0  0  0  0  0  0
   -4.1638    5.6621  -23.5340 O   0  0  0  0  0  0  0  0  0  0  0  0
   -2.8223    5.7703  -22.9927 C   0  0  0  0  0  0  0  0  0  0  0  0
   -6.4498    5.1026  -15.9967 C   0  0  0  0  0  0  0  0  0  0  0  0
   -6.0164    5.4260  -14.7312 C   0  0  0  0  0  0  0  0  0  0  0  0
   -6.9231    5.2706  -13.6785 C   0  0  0  0  0  0  0  0  0  0  0  0
   -8.2259    4.8007  -13.9042 C   0  0  0  0  0  0  0  0  0  0  0  0
   -8.6486    4.5023  -15.1911 C   0  0  0  0  0  0  0  0  0  0  0  0
   -7.7440    4.6693  -16.2137 C   0  0  0  0  0  0  0  0  0  0  0  0
  1  2  1  0
  2  3  1  0
  3  4  1  0
  4  5  1  0
  5  6  2  0
  5  7  1  0
  7  8  1  0
  8  9  1  0
  9 10  2  0
  9 11  1  0
 11 12  1  0
 12 13  1  0
 13 14  1  0
 13 15  1  0
 15 16  1  0
 16 17  1  0
  7 18  1  0
 18 19  2  0
 19 20  1  0
 20 21  2  0
 21 22  1  0
 22 23  2  0
 23  4  1  0
 17 13  1  0
 23 18  1  0
M  END
>  <energy_score>  (4648) 
-38.460298

>  <alias>  (4648) 
ODPBDWSNZYOIPY-UHFFFAOYSA-N-P8-P8-P268-601530

>  <HIPPO Pose ID>  (4648) 
85225

>  <smiles>  (4648) 
CCCn1c(=O)n(CC(=O)NCC2(O)COC2)c2ccccc21

>  <inchikey>  (4648) 
ODPBDWSNZYOIPY-UHFFFAOYSA-N

>  <distance_score>  (4648) 
1.638376

>  <ref_mols>  (4648) 
Z0101a,Z4245a

>  <ref_pdb>  (4648) 
Z0089a

>  <HIPPO Compound ID>  (4648) 
146859

>  <name>  (4648) 
ODPBDWSNZYOIPY-UHFFFAOYSA-N-P8-P8-P268-601530

>  <inspiration_score>  (4648) 
None

$$$$
NZEKGEIAYJITFA-UHFFFAOYSA-N-P8-P8-P268-601530
     RDKit          3D

 23 26  0  0  0  0  0  0  0  0999 V2000
  -11.0496    4.0670  -18.2775 C   0  0  0  0  0  0  0  0  0  0  0  0
   -9.7602    3.3093  -18.3966 C   0  0  0  0  0  0  0  0  0  0  0  0
   -8.6920    4.1619  -19.0327 C   0  0  0  0  0  0  0  0  0  0  0  0
   -7.5166    4.3530  -18.2468 N   0  0  0  0  0  0  0  0  0  0  0  0
   -6.2307    4.3501  -18.7989 C   0  0  0  0  0  0  0  0  0  0  0  0
   -5.9171    4.0810  -19.9509 O   0  0  0  0  0  0  0  0  0  0  0  0
   -5.3417    4.7038  -17.7585 N   0  0  0  0  0  0  0  0  0  0  0  0
   -3.9000    4.6258  -17.8332 C   0  0  0  0  0  0  0  0  0  0  0  0
   -3.2973    5.7116  -18.7379 C   0  0  0  0  0  0  0  0  0  0  0  0
   -2.5901    6.5630  -18.3569 O   0  0  0  0  0  0  0  0  0  0  0  0
   -3.7768    5.3677  -20.1797 N   0  0  0  0  0  0  0  0  0  0  0  0
   -3.4184    5.9265  -21.4182 C   0  0  1  0  0  0  0  0  0  0  0  0
   -4.1915    5.4059  -22.6052 C   0  0  0  0  0  0  0  0  0  0  0  0
   -4.2657    6.4729  -23.5673 O   0  0  0  0  0  0  0  0  0  0  0  0
   -4.0464    7.7086  -22.8625 C   0  0  0  0  0  0  0  0  0  0  0  0
   -3.2938    7.3809  -21.6204 C   0  0  2  0  0  0  0  0  0  0  0  0
   -2.0561    6.5140  -21.6371 C   0  0  0  0  0  0  0  0  0  0  0  0
   -6.0822    4.8049  -16.5714 C   0  0  0  0  0  0  0  0  0  0  0  0
   -5.6636    5.0161  -15.2750 C   0  0  0  0  0  0  0  0  0  0  0  0
   -6.6351    5.0170  -14.2696 C   0  0  0  0  0  0  0  0  0  0  0  0
   -7.9901    4.8339  -14.5749 C   0  0  0  0  0  0  0  0  0  0  0  0
   -8.3968    4.6528  -15.8932 C   0  0  0  0  0  0  0  0  0  0  0  0
   -7.4282    4.6162  -16.8769 C   0  0  0  0  0  0  0  0  0  0  0  0
  1  2  1  0
  2  3  1  0
  3  4  1  0
  4  5  1  0
  5  6  2  0
  5  7  1  0
  7  8  1  0
  8  9  1  0
  9 10  2  0
  9 11  1  0
 12 11  1  1
 12 13  1  0
 13 14  1  0
 14 15  1  0
 16 15  1  6
 16 17  1  0
  7 18  1  0
 18 19  2  0
 19 20  1  0
 20 21  2  0
 21 22  1  0
 22 23  2  0
 23  4  1  0
 16 12  1  0
 23 18  1  0
 17 12  1  0
M  END
>  <energy_score>  (4649) 
-6.601282

>  <alias>  (4649) 
NZEKGEIAYJITFA-UHFFFAOYSA-N-P8-P8-P268-601530

>  <HIPPO Pose ID>  (4649) 
85227

>  <smiles>  (4649) 
CCCn1c(=O)n(CC(=O)NC23COCC2C3)c2ccccc21

>  <inchikey>  (4649) 
NZEKGEIAYJITFA-UHFFFAOYSA-N

>  <distance_score>  (4649) 
1.481394

>  <ref_mols>  (4649) 
Z0101a,Z4245a

>  <ref_pdb>  (4649) 
Z0089a

>  <HIPPO Compound ID>  (4649) 
146860

>  <name>  (4649) 
NZEKGEIAYJITFA-UHFFFAOYSA-N-P8-P8-P268-601530

>  <inspiration_score>  (4649) 
None

$$$$
GGRIHWJZGKWNQA-UHFFFAOYSA-N-P268-P8-P268-601530
     RDKit          3D

 23 24  0  0  0  0  0  0  0  0999 V2000
   -7.3470    3.1154  -19.7711 C   0  0  0  0  0  0  0  0  0  0  0  0
   -8.4587    3.1538  -18.7476 C   0  0  0  0  0  0  0  0  0  0  0  0
   -8.8137    4.5697  -18.4253 C   0  0  0  0  0  0  0  0  0  0  0  0
   -7.7191    5.1131  -17.6782 N   0  0  0  0  0  0  0  0  0  0  0  0
   -6.6020    5.7990  -18.1683 C   0  0  0  0  0  0  0  0  0  0  0  0
   -6.4173    6.2361  -19.2927 O   0  0  0  0  0  0  0  0  0  0  0  0
   -5.7233    5.9825  -17.0704 N   0  0  0  0  0  0  0  0  0  0  0  0
   -4.8508    7.1366  -16.9490 C   0  0  0  0  0  0  0  0  0  0  0  0
   -3.5721    7.1509  -17.7990 C   0  0  0  0  0  0  0  0  0  0  0  0
   -2.5115    7.2113  -17.3134 O   0  0  0  0  0  0  0  0  0  0  0  0
   -3.9971    7.1771  -19.2892 N   0  0  0  0  0  0  0  0  0  0  0  0
   -3.2055    7.1870  -20.4810 C   0  0  0  0  0  0  0  0  0  0  0  0
   -3.0356    5.7753  -21.0475 C   0  0  2  0  0  0  0  0  0  0  0  0
   -4.3097    5.1502  -21.6525 C   0  0  0  0  0  0  0  0  0  0  0  0
   -5.0016    6.0475  -22.6674 C   0  0  0  0  0  0  0  0  0  0  0  0
   -2.4403    4.8695  -19.9648 C   0  0  0  0  0  0  0  0  0  0  0  0
   -1.9378    3.6908  -20.5591 O   0  0  0  0  0  0  0  0  0  0  0  0
   -6.3297    5.3872  -15.9441 C   0  0  0  0  0  0  0  0  0  0  0  0
   -5.9261    5.3303  -14.6325 C   0  0  0  0  0  0  0  0  0  0  0  0
   -6.7900    4.7153  -13.7180 C   0  0  0  0  0  0  0  0  0  0  0  0
   -8.0257    4.1772  -14.1197 C   0  0  0  0  0  0  0  0  0  0  0  0
   -8.4177    4.2321  -15.4494 C   0  0  0  0  0  0  0  0  0  0  0  0
   -7.5483    4.8454  -16.3278 C   0  0  0  0  0  0  0  0  0  0  0  0
  1  2  1  0
  2  3  1  0
  3  4  1  0
  4  5  1  0
  5  6  2  0
  5  7  1  0
  7  8  1  0
  8  9  1  0
  9 10  2  0
  9 11  1  0
 11 12  1  0
 13 12  1  1
 13 14  1  0
 14 15  1  0
 13 16  1  0
 16 17  1  0
  7 18  1  0
 18 19  2  0
 19 20  1  0
 20 21  2  0
 21 22  1  0
 22 23  2  0
 23  4  1  0
 23 18  1  0
M  END
>  <energy_score>  (4650) 
-6.034871

>  <alias>  (4650) 
GGRIHWJZGKWNQA-UHFFFAOYSA-N-P268-P8-P268-601530

>  <HIPPO Pose ID>  (4650) 
85246

>  <smiles>  (4650) 
CCCn1c(=O)n(CC(=O)NCC(CC)CO)c2ccccc21

>  <inchikey>  (4650) 
GGRIHWJZGKWNQA-UHFFFAOYSA-N

>  <distance_score>  (4650) 
1.770833

>  <ref_mols>  (4650) 
Z0101a,Z4245a

>  <ref_pdb>  (4650) 
Z0089a

>  <HIPPO Compound ID>  (4650) 
146869

>  <name>  (4650) 
GGRIHWJZGKWNQA-UHFFFAOYSA-N-P268-P8-P268-601530

>  <inspiration_score>  (4650) 
None

$$$$
NUEBLVHFAYTBIZ-UHFFFAOYSA-N-P268-P8-P268-601530
     RDKit          3D

 23 25  0  0  0  0  0  0  0  0999 V2000
  -10.0089    4.8615  -19.1330 C   0  0  0  0  0  0  0  0  0  0  0  0
   -9.8461    3.7818  -18.1221 C   0  0  0  0  0  0  0  0  0  0  0  0
   -8.5003    3.1197  -18.3254 C   0  0  0  0  0  0  0  0  0  0  0  0
   -7.4260    3.9177  -17.7961 N   0  0  0  0  0  0  0  0  0  0  0  0
   -6.4938    4.6890  -18.5207 C   0  0  0  0  0  0  0  0  0  0  0  0
   -6.2658    4.6773  -19.7213 O   0  0  0  0  0  0  0  0  0  0  0  0
   -5.8717    5.5561  -17.5713 N   0  0  0  0  0  0  0  0  0  0  0  0
   -5.5035    6.9137  -17.9107 C   0  0  0  0  0  0  0  0  0  0  0  0
   -4.1468    7.0957  -18.5744 C   0  0  0  0  0  0  0  0  0  0  0  0
   -3.2262    7.5396  -18.0124 O   0  0  0  0  0  0  0  0  0  0  0  0
   -4.3153    6.6898  -20.0550 N   0  0  0  0  0  0  0  0  0  0  0  0
   -3.3594    6.6568  -21.1290 C   0  0  2  0  0  0  0  0  0  0  0  0
   -4.0273    6.8165  -22.4842 C   0  0  0  0  0  0  0  0  0  0  0  0
   -4.4500    5.5048  -22.8898 O   0  0  0  0  0  0  0  0  0  0  0  0
   -3.7980    4.5393  -22.0460 C   0  0  0  0  0  0  0  0  0  0  0  0
   -2.7424    5.2804  -21.2517 C   0  0  2  0  0  0  0  0  0  0  0  0
   -2.3599    4.5919  -19.9546 C   0  0  0  0  0  0  0  0  0  0  0  0
   -6.4228    5.2706  -16.3083 C   0  0  0  0  0  0  0  0  0  0  0  0
   -6.1876    5.8499  -15.0806 C   0  0  0  0  0  0  0  0  0  0  0  0
   -6.9683    5.4263  -13.9989 C   0  0  0  0  0  0  0  0  0  0  0  0
   -7.9579    4.4457  -14.1584 C   0  0  0  0  0  0  0  0  0  0  0  0
   -8.1655    3.8625  -15.4008 C   0  0  0  0  0  0  0  0  0  0  0  0
   -7.3815    4.2873  -16.4540 C   0  0  0  0  0  0  0  0  0  0  0  0
  1  2  1  0
  2  3  1  0
  3  4  1  0
  4  5  1  0
  5  6  2  0
  5  7  1  0
  7  8  1  0
  8  9  1  0
  9 10  2  0
  9 11  1  0
 12 11  1  1
 12 13  1  0
 13 14  1  0
 14 15  1  0
 15 16  1  0
 16 17  1  1
  7 18  1  0
 18 19  2  0
 19 20  1  0
 20 21  2  0
 21 22  1  0
 22 23  2  0
 23  4  1  0
 16 12  1  0
 23 18  1  0
M  END
>  <energy_score>  (4651) 
-9.486403

>  <alias>  (4651) 
NUEBLVHFAYTBIZ-UHFFFAOYSA-N-P268-P8-P268-601530

>  <HIPPO Pose ID>  (4651) 
85248

>  <smiles>  (4651) 
CCCn1c(=O)n(CC(=O)NC2COCC2C)c2ccccc21

>  <inchikey>  (4651) 
NUEBLVHFAYTBIZ-UHFFFAOYSA-N

>  <distance_score>  (4651) 
1.586415

>  <ref_mols>  (4651) 
Z0101a,Z4245a

>  <ref_pdb>  (4651) 
Z0089a

>  <HIPPO Compound ID>  (4651) 
146870

>  <name>  (4651) 
NUEBLVHFAYTBIZ-UHFFFAOYSA-N-P268-P8-P268-601530

>  <inspiration_score>  (4651) 
None

$$$$
MMNCQIFOBDMNJG-UHFFFAOYSA-N-P8-P8-P268-601530
     RDKit          3D

 23 24  0  0  0  0  0  0  0  0999 V2000
  -10.9061    4.2030  -18.4361 C   0  0  0  0  0  0  0  0  0  0  0  0
   -9.7280    4.5179  -19.3282 C   0  0  0  0  0  0  0  0  0  0  0  0
   -8.5204    3.6624  -19.0954 C   0  0  0  0  0  0  0  0  0  0  0  0
   -7.5136    4.2476  -18.2479 N   0  0  0  0  0  0  0  0  0  0  0  0
   -6.1656    4.4364  -18.6146 C   0  0  0  0  0  0  0  0  0  0  0  0
   -5.6225    4.1885  -19.6803 O   0  0  0  0  0  0  0  0  0  0  0  0
   -5.4919    4.8943  -17.4562 N   0  0  0  0  0  0  0  0  0  0  0  0
   -4.0649    4.8097  -17.2750 C   0  0  0  0  0  0  0  0  0  0  0  0
   -3.3345    5.9786  -17.9322 C   0  0  0  0  0  0  0  0  0  0  0  0
   -2.9601    6.9154  -17.3453 O   0  0  0  0  0  0  0  0  0  0  0  0
   -3.1513    5.5868  -19.4180 N   0  0  0  0  0  0  0  0  0  0  0  0
   -2.5558    6.3064  -20.5021 C   0  0  0  0  0  0  0  0  0  0  0  0
   -3.5735    6.6858  -21.5784 C   0  0  2  0  0  0  0  0  0  0  0  0
   -4.5615    7.7183  -21.0306 C   0  0  0  0  0  0  0  0  0  0  0  0
   -4.3387    5.5123  -22.2137 C   0  0  2  0  0  0  0  0  0  0  0  0
   -3.4873    4.2926  -22.5069 C   0  0  0  0  0  0  0  0  0  0  0  0
   -4.9419    5.9388  -23.4414 O   0  0  0  0  0  0  0  0  0  0  0  0
   -6.3935    4.8685  -16.3884 C   0  0  0  0  0  0  0  0  0  0  0  0
   -6.1724    5.1312  -15.0520 C   0  0  0  0  0  0  0  0  0  0  0  0
   -7.2269    4.9098  -14.1708 C   0  0  0  0  0  0  0  0  0  0  0  0
   -8.4530    4.4228  -14.6390 C   0  0  0  0  0  0  0  0  0  0  0  0
   -8.6592    4.1747  -15.9966 C   0  0  0  0  0  0  0  0  0  0  0  0
   -7.6249    4.4325  -16.8649 C   0  0  0  0  0  0  0  0  0  0  0  0
  1  2  1  0
  2  3  1  0
  3  4  1  0
  4  5  1  0
  5  6  2  0
  5  7  1  0
  7  8  1  0
  8  9  1  0
  9 10  2  0
  9 11  1  0
 11 12  1  0
 12 13  1  0
 13 14  1  1
 13 15  1  0
 15 16  1  6
 15 17  1  0
  7 18  1  0
 18 19  2  0
 19 20  1  0
 20 21  2  0
 21 22  1  0
 22 23  2  0
 23  4  1  0
 23 18  1  0
M  END
>  <energy_score>  (4652) 
-17.824578

>  <alias>  (4652) 
MMNCQIFOBDMNJG-UHFFFAOYSA-N-P8-P8-P268-601530

>  <HIPPO Pose ID>  (4652) 
85261

>  <smiles>  (4652) 
CCCn1c(=O)n(CC(=O)NCC(C)C(C)O)c2ccccc21

>  <inchikey>  (4652) 
MMNCQIFOBDMNJG-UHFFFAOYSA-N

>  <distance_score>  (4652) 
1.30474

>  <ref_mols>  (4652) 
Z0101a,Z4245a

>  <ref_pdb>  (4652) 
Z0089a

>  <HIPPO Compound ID>  (4652) 
146877

>  <name>  (4652) 
MMNCQIFOBDMNJG-UHFFFAOYSA-N-P8-P8-P268-601530

>  <inspiration_score>  (4652) 
None

$$$$
AJSBKIKCXKPWIU-UHFFFAOYSA-N-P8-P8-P268-601530
     RDKit          3D

 23 24  0  0  0  0  0  0  0  0999 V2000
  -10.9776    4.1194  -18.3153 C   0  0  0  0  0  0  0  0  0  0  0  0
   -9.6866    3.3582  -18.4369 C   0  0  0  0  0  0  0  0  0  0  0  0
   -8.5914    4.2158  -19.0295 C   0  0  0  0  0  0  0  0  0  0  0  0
   -7.4339    4.4117  -18.2129 N   0  0  0  0  0  0  0  0  0  0  0  0
   -6.1236    4.4460  -18.7243 C   0  0  0  0  0  0  0  0  0  0  0  0
   -5.7677    4.2684  -19.8808 O   0  0  0  0  0  0  0  0  0  0  0  0
   -5.2739    4.7158  -17.6292 N   0  0  0  0  0  0  0  0  0  0  0  0
   -3.8484    4.5111  -17.6404 C   0  0  0  0  0  0  0  0  0  0  0  0
   -3.1034    5.5768  -18.4502 C   0  0  0  0  0  0  0  0  0  0  0  0
   -2.6077    6.5152  -17.9615 O   0  0  0  0  0  0  0  0  0  0  0  0
   -3.1301    5.1095  -19.9297 N   0  0  0  0  0  0  0  0  0  0  0  0
   -2.6377    5.7449  -21.1139 C   0  0  0  0  0  0  0  0  0  0  0  0
   -3.6951    6.6149  -21.8187 C   0  0  1  0  0  0  0  0  0  0  0  0
   -4.5895    7.3868  -20.8474 C   0  0  0  0  0  0  0  0  0  0  0  0
   -2.9978    7.6326  -22.5821 O   0  0  0  0  0  0  0  0  0  0  0  0
   -4.5294    5.8124  -22.8392 C   0  0  0  0  0  0  0  0  0  0  0  0
   -5.0839    4.5960  -22.3845 O   0  0  0  0  0  0  0  0  0  0  0  0
   -6.0581    4.7679  -16.4676 C   0  0  0  0  0  0  0  0  0  0  0  0
   -5.6819    4.9106  -15.1485 C   0  0  0  0  0  0  0  0  0  0  0  0
   -6.6866    4.8816  -14.1778 C   0  0  0  0  0  0  0  0  0  0  0  0
   -8.0316    4.7360  -14.5384 C   0  0  0  0  0  0  0  0  0  0  0  0
   -8.3938    4.6224  -15.8774 C   0  0  0  0  0  0  0  0  0  0  0  0
   -7.3929    4.6137  -16.8293 C   0  0  0  0  0  0  0  0  0  0  0  0
  1  2  1  0
  2  3  1  0
  3  4  1  0
  4  5  1  0
  5  6  2  0
  5  7  1  0
  7  8  1  0
  8  9  1  0
  9 10  2  0
  9 11  1  0
 11 12  1  0
 12 13  1  0
 13 14  1  1
 13 15  1  0
 13 16  1  0
 16 17  1  0
  7 18  1  0
 18 19  2  0
 19 20  1  0
 20 21  2  0
 21 22  1  0
 22 23  2  0
 23  4  1  0
 23 18  1  0
M  END
>  <energy_score>  (4653) 
-28.240088

>  <alias>  (4653) 
AJSBKIKCXKPWIU-UHFFFAOYSA-N-P8-P8-P268-601530

>  <HIPPO Pose ID>  (4653) 
85265

>  <smiles>  (4653) 
CCCn1c(=O)n(CC(=O)NCC(C)(O)CO)c2ccccc21

>  <inchikey>  (4653) 
AJSBKIKCXKPWIU-UHFFFAOYSA-N

>  <distance_score>  (4653) 
1.465091

>  <ref_mols>  (4653) 
Z0101a,Z4245a

>  <ref_pdb>  (4653) 
Z0089a

>  <HIPPO Compound ID>  (4653) 
146879

>  <name>  (4653) 
AJSBKIKCXKPWIU-UHFFFAOYSA-N-P8-P8-P268-601530

>  <inspiration_score>  (4653) 
None

$$$$
FLSHHTXFZQJLMD-UHFFFAOYSA-N-P8-P8-P268-601530
     RDKit          3D

 23 25  0  0  0  0  0  0  0  0999 V2000
  -11.0054    4.1186  -18.3217 C   0  0  0  0  0  0  0  0  0  0  0  0
   -9.7275    3.3370  -18.4263 C   0  0  0  0  0  0  0  0  0  0  0  0
   -8.6131    4.1840  -18.9893 C   0  0  0  0  0  0  0  0  0  0  0  0
   -7.4719    4.3283  -18.1447 N   0  0  0  0  0  0  0  0  0  0  0  0
   -6.1642    4.3921  -18.6398 C   0  0  0  0  0  0  0  0  0  0  0  0
   -5.7885    4.2812  -19.7991 O   0  0  0  0  0  0  0  0  0  0  0  0
   -5.3284    4.6624  -17.5397 N   0  0  0  0  0  0  0  0  0  0  0  0
   -3.8864    4.7198  -17.5632 C   0  0  0  0  0  0  0  0  0  0  0  0
   -3.3589    6.0725  -18.0717 C   0  0  0  0  0  0  0  0  0  0  0  0
   -2.6097    6.7401  -17.4759 O   0  0  0  0  0  0  0  0  0  0  0  0
   -3.9423    6.2442  -19.4954 N   0  0  0  0  0  0  0  0  0  0  0  0
   -3.7998    7.3080  -20.4311 C   0  0  0  0  0  0  0  0  0  0  0  0
   -3.4399    6.6843  -21.7650 C   0  0  1  0  0  0  0  0  0  0  0  0
   -2.0846    5.9421  -21.8932 C   0  0  0  0  0  0  0  0  0  0  0  0
   -2.7464    5.1295  -23.0356 C   0  0  0  0  0  0  0  0  0  0  0  0
   -4.0804    5.3497  -22.2878 C   0  0  2  0  0  0  0  0  0  0  0  0
   -5.2747    5.4992  -23.0680 O   0  0  0  0  0  0  0  0  0  0  0  0
   -6.1210    4.7492  -16.3913 C   0  0  0  0  0  0  0  0  0  0  0  0
   -5.7583    4.9619  -15.0792 C   0  0  0  0  0  0  0  0  0  0  0  0
   -6.7724    4.9508  -14.1195 C   0  0  0  0  0  0  0  0  0  0  0  0
   -8.1101    4.7556  -14.4872 C   0  0  0  0  0  0  0  0  0  0  0  0
   -8.4585    4.5792  -15.8237 C   0  0  0  0  0  0  0  0  0  0  0  0
   -7.4492    4.5565  -16.7637 C   0  0  0  0  0  0  0  0  0  0  0  0
  1  2  1  0
  2  3  1  0
  3  4  1  0
  4  5  1  0
  5  6  2  0
  5  7  1  0
  7  8  1  0
  8  9  1  0
  9 10  2  0
  9 11  1  0
 11 12  1  0
 13 12  1  1
 13 14  1  0
 14 15  1  0
 15 16  1  0
 16 17  1  6
  7 18  1  0
 18 19  2  0
 19 20  1  0
 20 21  2  0
 21 22  1  0
 22 23  2  0
 23  4  1  0
 16 13  1  0
 23 18  1  0
M  END
>  <energy_score>  (4654) 
-14.161452

>  <alias>  (4654) 
FLSHHTXFZQJLMD-UHFFFAOYSA-N-P8-P8-P268-601530

>  <HIPPO Pose ID>  (4654) 
85271

>  <smiles>  (4654) 
CCCn1c(=O)n(CC(=O)NCC2CCC2O)c2ccccc21

>  <inchikey>  (4654) 
FLSHHTXFZQJLMD-UHFFFAOYSA-N

>  <distance_score>  (4654) 
1.438735

>  <ref_mols>  (4654) 
Z0101a,Z4245a

>  <ref_pdb>  (4654) 
Z0089a

>  <HIPPO Compound ID>  (4654) 
146882

>  <name>  (4654) 
FLSHHTXFZQJLMD-UHFFFAOYSA-N-P8-P8-P268-601530

>  <inspiration_score>  (4654) 
None

$$$$
XVNAUBFCUHMXIP-UHFFFAOYSA-N-P8-P8-P268-601530
     RDKit          3D

 24 25  0  0  0  0  0  0  0  0999 V2000
  -10.8120    4.5490  -18.3516 C   0  0  0  0  0  0  0  0  0  0  0  0
   -9.6499    4.5604  -19.3098 C   0  0  0  0  0  0  0  0  0  0  0  0
   -8.5974    3.5561  -18.9744 C   0  0  0  0  0  0  0  0  0  0  0  0
   -7.5331    4.1020  -18.1707 N   0  0  0  0  0  0  0  0  0  0  0  0
   -6.3963    4.7398  -18.6813 C   0  0  0  0  0  0  0  0  0  0  0  0
   -6.0528    4.8071  -19.8503 O   0  0  0  0  0  0  0  0  0  0  0  0
   -5.7347    5.3852  -17.5955 N   0  0  0  0  0  0  0  0  0  0  0  0
   -5.3470    6.7887  -17.6980 C   0  0  0  0  0  0  0  0  0  0  0  0
   -4.2678    7.3152  -18.6424 C   0  0  0  0  0  0  0  0  0  0  0  0
   -3.3259    7.8829  -18.2524 O   0  0  0  0  0  0  0  0  0  0  0  0
   -4.7425    7.0363  -20.0860 N   0  0  0  0  0  0  0  0  0  0  0  0
   -4.1163    7.3117  -21.3351 C   0  0  0  0  0  0  0  0  0  0  0  0
   -3.3332    6.1210  -21.8866 C   0  0  2  0  0  0  0  0  0  0  0  0
   -4.1739    4.8872  -22.2218 C   0  0  0  0  0  0  0  0  0  0  0  0
   -5.4102    5.2522  -22.8104 O   0  0  0  0  0  0  0  0  0  0  0  0
   -2.0502    5.7323  -21.1168 C   0  0  0  0  0  0  0  0  0  0  0  0
   -2.2245    4.8373  -19.8894 C   0  0  0  0  0  0  0  0  0  0  0  0
   -1.1473    6.9273  -20.7949 C   0  0  0  0  0  0  0  0  0  0  0  0
   -6.4661    5.0384  -16.4338 C   0  0  0  0  0  0  0  0  0  0  0  0
   -6.2392    5.4119  -15.1241 C   0  0  0  0  0  0  0  0  0  0  0  0
   -7.1751    5.0206  -14.1686 C   0  0  0  0  0  0  0  0  0  0  0  0
   -8.3073    4.2841  -14.5394 C   0  0  0  0  0  0  0  0  0  0  0  0
   -8.5169    3.9135  -15.8667 C   0  0  0  0  0  0  0  0  0  0  0  0
   -7.5775    4.2926  -16.7951 C   0  0  0  0  0  0  0  0  0  0  0  0
  1  2  1  0
  2  3  1  0
  3  4  1  0
  4  5  1  0
  5  6  2  0
  5  7  1  0
  7  8  1  0
  8  9  1  0
  9 10  2  0
  9 11  1  0
 11 12  1  0
 13 12  1  1
 13 14  1  0
 14 15  1  0
 13 16  1  0
 16 17  1  0
 16 18  1  0
  7 19  1  0
 19 20  2  0
 20 21  1  0
 21 22  2  0
 22 23  1  0
 23 24  2  0
 24  4  1  0
 24 19  1  0
M  END
>  <energy_score>  (4655) 
-9.448335

>  <alias>  (4655) 
XVNAUBFCUHMXIP-UHFFFAOYSA-N-P8-P8-P268-601530

>  <HIPPO Pose ID>  (4655) 
85275

>  <smiles>  (4655) 
CCCn1c(=O)n(CC(=O)NCC(CO)C(C)C)c2ccccc21

>  <inchikey>  (4655) 
XVNAUBFCUHMXIP-UHFFFAOYSA-N

>  <distance_score>  (4655) 
1.575885

>  <ref_mols>  (4655) 
Z0101a,Z4245a

>  <ref_pdb>  (4655) 
Z0089a

>  <HIPPO Compound ID>  (4655) 
146884

>  <name>  (4655) 
XVNAUBFCUHMXIP-UHFFFAOYSA-N-P8-P8-P268-601530

>  <inspiration_score>  (4655) 
None

$$$$
OAUGMMXULQXDTG-UHFFFAOYSA-N-P268-P8-P268-601530
     RDKit          3D

 24 25  0  0  0  0  0  0  0  0999 V2000
  -10.6907    4.5739  -18.2210 C   0  0  0  0  0  0  0  0  0  0  0  0
   -9.4738    4.5492  -19.1256 C   0  0  0  0  0  0  0  0  0  0  0  0
   -8.4713    3.4669  -18.7914 C   0  0  0  0  0  0  0  0  0  0  0  0
   -7.4409    3.9983  -17.9591 N   0  0  0  0  0  0  0  0  0  0  0  0
   -6.1894    4.4305  -18.4103 C   0  0  0  0  0  0  0  0  0  0  0  0
   -5.7297    4.3451  -19.5414 O   0  0  0  0  0  0  0  0  0  0  0  0
   -5.5344    4.9966  -17.2933 N   0  0  0  0  0  0  0  0  0  0  0  0
   -4.1128    5.2252  -17.1749 C   0  0  0  0  0  0  0  0  0  0  0  0
   -3.6255    6.5472  -17.7664 C   0  0  0  0  0  0  0  0  0  0  0  0
   -2.9415    7.2952  -17.1889 O   0  0  0  0  0  0  0  0  0  0  0  0
   -4.1344    6.5770  -19.2253 N   0  0  0  0  0  0  0  0  0  0  0  0
   -3.8344    7.4719  -20.2912 C   0  0  0  0  0  0  0  0  0  0  0  0
   -3.1043    6.7326  -21.4362 C   0  0  2  0  0  0  0  0  0  0  0  0
   -3.0309    7.7364  -22.5900 C   0  0  0  0  0  0  0  0  0  0  0  0
   -3.8075    5.4382  -21.9264 C   0  0  0  0  0  0  0  0  0  0  0  0
   -5.2367    5.6366  -22.3902 C   0  0  0  0  0  0  0  0  0  0  0  0
   -1.6698    6.3413  -20.9973 C   0  0  0  0  0  0  0  0  0  0  0  0
   -0.8955    7.4868  -20.6626 O   0  0  0  0  0  0  0  0  0  0  0  0
   -6.3922    4.9023  -16.1904 C   0  0  0  0  0  0  0  0  0  0  0  0
   -6.2030    5.2856  -14.8822 C   0  0  0  0  0  0  0  0  0  0  0  0
   -7.2322    5.0127  -13.9792 C   0  0  0  0  0  0  0  0  0  0  0  0
   -8.4061    4.3649  -14.3947 C   0  0  0  0  0  0  0  0  0  0  0  0
   -8.5795    3.9875  -15.7232 C   0  0  0  0  0  0  0  0  0  0  0  0
   -7.5640    4.2792  -16.6027 C   0  0  0  0  0  0  0  0  0  0  0  0
  1  2  1  0
  2  3  1  0
  3  4  1  0
  4  5  1  0
  5  6  2  0
  5  7  1  0
  7  8  1  0
  8  9  1  0
  9 10  2  0
  9 11  1  0
 11 12  1  0
 12 13  1  0
 13 14  1  6
 13 15  1  0
 15 16  1  0
 13 17  1  0
 17 18  1  0
  7 19  1  0
 19 20  2  0
 20 21  1  0
 21 22  2  0
 22 23  1  0
 23 24  2  0
 24  4  1  0
 24 19  1  0
M  END
>  <energy_score>  (4656) 
-24.798044

>  <alias>  (4656) 
OAUGMMXULQXDTG-UHFFFAOYSA-N-P268-P8-P268-601530

>  <HIPPO Pose ID>  (4656) 
85280

>  <smiles>  (4656) 
CCCn1c(=O)n(CC(=O)NCC(C)(CC)CO)c2ccccc21

>  <inchikey>  (4656) 
OAUGMMXULQXDTG-UHFFFAOYSA-N

>  <distance_score>  (4656) 
1.594103

>  <ref_mols>  (4656) 
Z0101a,Z4245a

>  <ref_pdb>  (4656) 
Z0089a

>  <HIPPO Compound ID>  (4656) 
146886

>  <name>  (4656) 
OAUGMMXULQXDTG-UHFFFAOYSA-N-P268-P8-P268-601530

>  <inspiration_score>  (4656) 
None

$$$$
GFYGQKKXWRPNQA-UHFFFAOYSA-N-P268-P8-P268-601530
     RDKit          3D

 24 25  0  0  0  0  0  0  0  0999 V2000
   -6.9550    3.4602  -20.1676 C   0  0  0  0  0  0  0  0  0  0  0  0
   -8.3118    3.6103  -19.5155 C   0  0  0  0  0  0  0  0  0  0  0  0
   -8.4849    4.7860  -18.6106 C   0  0  0  0  0  0  0  0  0  0  0  0
   -7.4069    4.9343  -17.7078 N   0  0  0  0  0  0  0  0  0  0  0  0
   -6.1727    5.5202  -18.0231 C   0  0  0  0  0  0  0  0  0  0  0  0
   -5.8292    5.9933  -19.0996 O   0  0  0  0  0  0  0  0  0  0  0  0
   -5.4161    5.5111  -16.8326 N   0  0  0  0  0  0  0  0  0  0  0  0
   -4.2008    6.2606  -16.6006 C   0  0  0  0  0  0  0  0  0  0  0  0
   -2.9592    5.7105  -17.3260 C   0  0  0  0  0  0  0  0  0  0  0  0
   -2.0056    5.3354  -16.7705 O   0  0  0  0  0  0  0  0  0  0  0  0
   -3.2383    5.8742  -18.8348 N   0  0  0  0  0  0  0  0  0  0  0  0
   -2.4399    5.5228  -19.9739 C   0  0  0  0  0  0  0  0  0  0  0  0
   -3.1045    6.0823  -21.2670 C   0  0  2  0  0  0  0  0  0  0  0  0
   -1.9852    6.5888  -22.1875 C   0  0  0  0  0  0  0  0  0  0  0  0
   -3.9343    7.2193  -20.9357 O   0  0  0  0  0  0  0  0  0  0  0  0
   -3.9687    5.0078  -21.9691 C   0  0  0  0  0  0  0  0  0  0  0  0
   -5.1154    5.5056  -22.6728 O   0  0  0  0  0  0  0  0  0  0  0  0
   -4.8563    6.4042  -23.7392 C   0  0  0  0  0  0  0  0  0  0  0  0
   -6.2449    5.0294  -15.8039 C   0  0  0  0  0  0  0  0  0  0  0  0
   -6.0319    4.9552  -14.4491 C   0  0  0  0  0  0  0  0  0  0  0  0
   -7.0962    4.5201  -13.6568 C   0  0  0  0  0  0  0  0  0  0  0  0
   -8.3306    4.1603  -14.2242 C   0  0  0  0  0  0  0  0  0  0  0  0
   -8.5282    4.2094  -15.5993 C   0  0  0  0  0  0  0  0  0  0  0  0
   -7.4688    4.6597  -16.3547 C   0  0  0  0  0  0  0  0  0  0  0  0
  1  2  1  0
  2  3  1  0
  3  4  1  0
  4  5  1  0
  5  6  2  0
  5  7  1  0
  7  8  1  0
  8  9  1  0
  9 10  2  0
  9 11  1  0
 11 12  1  0
 12 13  1  0
 13 14  1  6
 13 15  1  0
 13 16  1  0
 16 17  1  0
 17 18  1  0
  7 19  1  0
 19 20  2  0
 20 21  1  0
 21 22  2  0
 22 23  1  0
 23 24  2  0
 24  4  1  0
 24 19  1  0
M  END
>  <energy_score>  (4657) 
-17.166099

>  <alias>  (4657) 
GFYGQKKXWRPNQA-UHFFFAOYSA-N-P268-P8-P268-601530

>  <HIPPO Pose ID>  (4657) 
85282

>  <smiles>  (4657) 
CCCn1c(=O)n(CC(=O)NCC(C)(O)COC)c2ccccc21

>  <inchikey>  (4657) 
GFYGQKKXWRPNQA-UHFFFAOYSA-N

>  <distance_score>  (4657) 
1.672327

>  <ref_mols>  (4657) 
Z0101a,Z4245a

>  <ref_pdb>  (4657) 
Z0089a

>  <HIPPO Compound ID>  (4657) 
146887

>  <name>  (4657) 
GFYGQKKXWRPNQA-UHFFFAOYSA-N-P268-P8-P268-601530

>  <inspiration_score>  (4657) 
None

$$$$
FYAACRWYXVLQAO-UHFFFAOYSA-N-P268-P8-P268-601530
     RDKit          3D

 24 26  0  0  0  0  0  0  0  0999 V2000
  -10.0058    4.8588  -19.1321 C   0  0  0  0  0  0  0  0  0  0  0  0
   -9.8439    3.7768  -18.1231 C   0  0  0  0  0  0  0  0  0  0  0  0
   -8.4992    3.1122  -18.3269 C   0  0  0  0  0  0  0  0  0  0  0  0
   -7.4232    3.9118  -17.8043 N   0  0  0  0  0  0  0  0  0  0  0  0
   -6.4927    4.6799  -18.5388 C   0  0  0  0  0  0  0  0  0  0  0  0
   -6.2576    4.6510  -19.7369 O   0  0  0  0  0  0  0  0  0  0  0  0
   -5.8876    5.5644  -17.5975 N   0  0  0  0  0  0  0  0  0  0  0  0
   -5.4971    6.9042  -17.9636 C   0  0  0  0  0  0  0  0  0  0  0  0
   -4.0700    7.0292  -18.4687 C   0  0  0  0  0  0  0  0  0  0  0  0
   -3.1750    7.2986  -17.7699 O   0  0  0  0  0  0  0  0  0  0  0  0
   -4.1146    6.8025  -19.9982 N   0  0  0  0  0  0  0  0  0  0  0  0
   -3.0525    6.7667  -20.9692 C   0  0  2  0  0  0  0  0  0  0  0  0
   -3.4329    7.5222  -22.2444 C   0  0  0  0  0  0  0  0  0  0  0  0
   -3.9021    6.5853  -23.3483 C   0  0  0  0  0  0  0  0  0  0  0  0
   -4.6328    5.5044  -22.7896 O   0  0  0  0  0  0  0  0  0  0  0  0
   -3.8117    4.6128  -22.0269 C   0  0  0  0  0  0  0  0  0  0  0  0
   -2.6882    5.3130  -21.2585 C   0  0  2  0  0  0  0  0  0  0  0  0
   -2.3059    4.5341  -20.0025 C   0  0  0  0  0  0  0  0  0  0  0  0
   -6.4289    5.2886  -16.3314 C   0  0  0  0  0  0  0  0  0  0  0  0
   -6.1921    5.8811  -15.1110 C   0  0  0  0  0  0  0  0  0  0  0  0
   -6.9644    5.4600  -14.0222 C   0  0  0  0  0  0  0  0  0  0  0  0
   -7.9468    4.4696  -14.1689 C   0  0  0  0  0  0  0  0  0  0  0  0
   -8.1555    3.8734  -15.4052 C   0  0  0  0  0  0  0  0  0  0  0  0
   -7.3790    4.2952  -16.4652 C   0  0  0  0  0  0  0  0  0  0  0  0
  1  2  1  0
  2  3  1  0
  3  4  1  0
  4  5  1  0
  5  6  2  0
  5  7  1  0
  7  8  1  0
  8  9  1  0
  9 10  2  0
  9 11  1  0
 12 11  1  1
 12 13  1  0
 13 14  1  0
 14 15  1  0
 15 16  1  0
 16 17  1  0
 17 18  1  1
  7 19  1  0
 19 20  2  0
 20 21  1  0
 21 22  2  0
 22 23  1  0
 23 24  2  0
 24  4  1  0
 17 12  1  0
 24 19  1  0
M  END
>  <energy_score>  (4658) 
-8.158652

>  <alias>  (4658) 
FYAACRWYXVLQAO-UHFFFAOYSA-N-P268-P8-P268-601530

>  <HIPPO Pose ID>  (4658) 
85288

>  <smiles>  (4658) 
CCCn1c(=O)n(CC(=O)NC2CCOCC2C)c2ccccc21

>  <inchikey>  (4658) 
FYAACRWYXVLQAO-UHFFFAOYSA-N

>  <distance_score>  (4658) 
1.602889

>  <ref_mols>  (4658) 
Z0101a,Z4245a

>  <ref_pdb>  (4658) 
Z0089a

>  <HIPPO Compound ID>  (4658) 
146890

>  <name>  (4658) 
FYAACRWYXVLQAO-UHFFFAOYSA-N-P268-P8-P268-601530

>  <inspiration_score>  (4658) 
None

$$$$
KWWFGSBFGXHQKS-UHFFFAOYSA-N-P268-P8-P268-601530
     RDKit          3D

 24 25  0  0  0  0  0  0  0  0999 V2000
   -6.8495    3.5257  -20.2190 C   0  0  0  0  0  0  0  0  0  0  0  0
   -8.2219    3.6077  -19.5801 C   0  0  0  0  0  0  0  0  0  0  0  0
   -8.4835    4.7436  -18.6441 C   0  0  0  0  0  0  0  0  0  0  0  0
   -7.3855    4.9869  -17.7881 N   0  0  0  0  0  0  0  0  0  0  0  0
   -6.2352    5.7009  -18.1481 C   0  0  0  0  0  0  0  0  0  0  0  0
   -6.0023    6.2293  -19.2268 O   0  0  0  0  0  0  0  0  0  0  0  0
   -5.4279    5.7666  -16.9936 N   0  0  0  0  0  0  0  0  0  0  0  0
   -4.3506    6.7178  -16.8130 C   0  0  0  0  0  0  0  0  0  0  0  0
   -3.1295    6.4510  -17.7161 C   0  0  0  0  0  0  0  0  0  0  0  0
   -2.1418    5.9693  -17.3205 O   0  0  0  0  0  0  0  0  0  0  0  0
   -3.5031    6.9585  -19.1353 N   0  0  0  0  0  0  0  0  0  0  0  0
   -2.7728    6.8894  -20.3762 C   0  0  0  0  0  0  0  0  0  0  0  0
   -3.2706    5.6920  -21.1812 C   0  0  2  0  0  0  0  0  0  0  0  0
   -2.6099    4.4117  -20.6915 C   0  0  0  0  0  0  0  0  0  0  0  0
   -3.0203    5.9046  -22.6615 C   0  0  0  0  0  0  0  0  0  0  0  0
   -2.0924    5.3760  -23.2671 O   0  0  0  0  0  0  0  0  0  0  0  0
   -3.8689    6.7400  -23.3180 O   0  0  0  0  0  0  0  0  0  0  0  0
   -5.1955    6.9898  -22.8306 C   0  0  0  0  0  0  0  0  0  0  0  0
   -6.1663    5.2031  -15.9318 C   0  0  0  0  0  0  0  0  0  0  0  0
   -5.9040    5.1559  -14.5849 C   0  0  0  0  0  0  0  0  0  0  0  0
   -6.8944    4.6179  -13.7555 C   0  0  0  0  0  0  0  0  0  0  0  0
   -8.1094    4.1367  -14.2762 C   0  0  0  0  0  0  0  0  0  0  0  0
   -8.3574    4.1663  -15.6426 C   0  0  0  0  0  0  0  0  0  0  0  0
   -7.3690    4.7110  -16.4347 C   0  0  0  0  0  0  0  0  0  0  0  0
  1  2  1  0
  2  3  1  0
  3  4  1  0
  4  5  1  0
  5  6  2  0
  5  7  1  0
  7  8  1  0
  8  9  1  0
  9 10  2  0
  9 11  1  0
 11 12  1  0
 12 13  1  0
 13 14  1  1
 13 15  1  0
 15 16  2  0
 15 17  1  0
 17 18  1  0
  7 19  1  0
 19 20  2  0
 20 21  1  0
 21 22  2  0
 22 23  1  0
 23 24  2  0
 24  4  1  0
 24 19  1  0
M  END
>  <energy_score>  (4659) 
-13.587532

>  <alias>  (4659) 
KWWFGSBFGXHQKS-UHFFFAOYSA-N-P268-P8-P268-601530

>  <HIPPO Pose ID>  (4659) 
85300

>  <smiles>  (4659) 
CCCn1c(=O)n(CC(=O)NCC(C)C(=O)OC)c2ccccc21

>  <inchikey>  (4659) 
KWWFGSBFGXHQKS-UHFFFAOYSA-N

>  <distance_score>  (4659) 
1.82244

>  <ref_mols>  (4659) 
Z0101a,Z4245a

>  <ref_pdb>  (4659) 
Z0089a

>  <HIPPO Compound ID>  (4659) 
146896

>  <name>  (4659) 
KWWFGSBFGXHQKS-UHFFFAOYSA-N-P268-P8-P268-601530

>  <inspiration_score>  (4659) 
None

$$$$
JWRZDCSLLJNADK-UHFFFAOYSA-N-P8-P8-P268-601530
     RDKit          3D

 24 25  0  0  0  0  0  0  0  0999 V2000
  -10.7840    4.5072  -18.3430 C   0  0  0  0  0  0  0  0  0  0  0  0
   -9.6182    4.5520  -19.2967 C   0  0  0  0  0  0  0  0  0  0  0  0
   -8.5170    3.6096  -18.9372 C   0  0  0  0  0  0  0  0  0  0  0  0
   -7.4932    4.2043  -18.1175 N   0  0  0  0  0  0  0  0  0  0  0  0
   -6.3822    4.9071  -18.6009 C   0  0  0  0  0  0  0  0  0  0  0  0
   -6.0495    5.0542  -19.7644 O   0  0  0  0  0  0  0  0  0  0  0  0
   -5.7342    5.4966  -17.4862 N   0  0  0  0  0  0  0  0  0  0  0  0
   -5.0630    6.7847  -17.5479 C   0  0  0  0  0  0  0  0  0  0  0  0
   -3.7801    6.8664  -18.3765 C   0  0  0  0  0  0  0  0  0  0  0  0
   -2.7224    6.9874  -17.8987 O   0  0  0  0  0  0  0  0  0  0  0  0
   -4.2140    6.8545  -19.8624 N   0  0  0  0  0  0  0  0  0  0  0  0
   -3.4306    6.8933  -21.0599 C   0  0  0  0  0  0  0  0  0  0  0  0
   -3.1542    5.4875  -21.6326 C   0  0  1  0  0  0  0  0  0  0  0  0
   -2.5614    4.5878  -20.5337 C   0  0  0  0  0  0  0  0  0  0  0  0
   -4.3815    4.7511  -22.2091 C   0  0  0  0  0  0  0  0  0  0  0  0
   -5.3828    5.6318  -22.7090 O   0  0  0  0  0  0  0  0  0  0  0  0
   -2.1266    5.5853  -22.6546 O   0  0  0  0  0  0  0  0  0  0  0  0
   -2.4500    6.3495  -23.8069 C   0  0  0  0  0  0  0  0  0  0  0  0
   -6.4749    5.1415  -16.3445 C   0  0  0  0  0  0  0  0  0  0  0  0
   -6.2775    5.4972  -15.0269 C   0  0  0  0  0  0  0  0  0  0  0  0
   -7.2149    5.0586  -14.0936 C   0  0  0  0  0  0  0  0  0  0  0  0
   -8.3173    4.2921  -14.4932 C   0  0  0  0  0  0  0  0  0  0  0  0
   -8.4978    3.9380  -15.8291 C   0  0  0  0  0  0  0  0  0  0  0  0
   -7.5591    4.3665  -16.7364 C   0  0  0  0  0  0  0  0  0  0  0  0
  1  2  1  0
  2  3  1  0
  3  4  1  0
  4  5  1  0
  5  6  2  0
  5  7  1  0
  7  8  1  0
  8  9  1  0
  9 10  2  0
  9 11  1  0
 11 12  1  0
 12 13  1  0
 13 14  1  1
 13 15  1  0
 15 16  1  0
 13 17  1  0
 17 18  1  0
  7 19  1  0
 19 20  2  0
 20 21  1  0
 21 22  2  0
 22 23  1  0
 23 24  2  0
 24  4  1  0
 24 19  1  0
M  END
>  <energy_score>  (4660) 
-26.374642

>  <alias>  (4660) 
JWRZDCSLLJNADK-UHFFFAOYSA-N-P8-P8-P268-601530

>  <HIPPO Pose ID>  (4660) 
85313

>  <smiles>  (4660) 
CCCn1c(=O)n(CC(=O)NCC(C)(CO)OC)c2ccccc21

>  <inchikey>  (4660) 
JWRZDCSLLJNADK-UHFFFAOYSA-N

>  <distance_score>  (4660) 
1.311085

>  <ref_mols>  (4660) 
Z0101a,Z4245a

>  <ref_pdb>  (4660) 
Z0089a

>  <HIPPO Compound ID>  (4660) 
146903

>  <name>  (4660) 
JWRZDCSLLJNADK-UHFFFAOYSA-N-P8-P8-P268-601530

>  <inspiration_score>  (4660) 
None

$$$$
RFQXEAVSLBHURT-UHFFFAOYSA-N-P8-P8-P268-601530
     RDKit          3D

 24 26  0  0  0  0  0  0  0  0999 V2000
  -10.8623    4.5565  -18.4057 C   0  0  0  0  0  0  0  0  0  0  0  0
   -9.6984    4.5625  -19.3595 C   0  0  0  0  0  0  0  0  0  0  0  0
   -8.6530    3.5516  -19.0356 C   0  0  0  0  0  0  0  0  0  0  0  0
   -7.5829    4.1040  -18.2499 N   0  0  0  0  0  0  0  0  0  0  0  0
   -6.3068    4.4390  -18.7333 C   0  0  0  0  0  0  0  0  0  0  0  0
   -5.8459    4.2820  -19.8558 O   0  0  0  0  0  0  0  0  0  0  0  0
   -5.5963    4.9891  -17.6376 N   0  0  0  0  0  0  0  0  0  0  0  0
   -4.1632    5.1354  -17.5790 C   0  0  0  0  0  0  0  0  0  0  0  0
   -3.6166    6.3961  -18.2657 C   0  0  0  0  0  0  0  0  0  0  0  0
   -2.9997    7.2127  -17.7059 O   0  0  0  0  0  0  0  0  0  0  0  0
   -3.9666    6.2575  -19.7636 N   0  0  0  0  0  0  0  0  0  0  0  0
   -3.5516    7.0416  -20.8974 C   0  0  2  0  0  0  0  0  0  0  0  0
   -4.6478    7.9562  -21.4174 C   0  0  0  0  0  0  0  0  0  0  0  0
   -5.3189    7.2787  -22.4960 O   0  0  0  0  0  0  0  0  0  0  0  0
   -4.6749    6.0134  -22.7081 C   0  0  0  0  0  0  0  0  0  0  0  0
   -3.2875    6.1166  -22.0837 C   0  0  0  0  0  0  0  0  0  0  0  0
   -2.3034    6.7829  -23.0629 C   0  0  0  0  0  0  0  0  0  0  0  0
   -2.7424    4.7442  -21.6839 C   0  0  0  0  0  0  0  0  0  0  0  0
   -6.4086    4.9046  -16.5008 C   0  0  0  0  0  0  0  0  0  0  0  0
   -6.1364    5.2401  -15.1913 C   0  0  0  0  0  0  0  0  0  0  0  0
   -7.1238    4.9788  -14.2410 C   0  0  0  0  0  0  0  0  0  0  0  0
   -8.3372    4.3839  -14.6132 C   0  0  0  0  0  0  0  0  0  0  0  0
   -8.5941    4.0558  -15.9432 C   0  0  0  0  0  0  0  0  0  0  0  0
   -7.6246    4.3446  -16.8753 C   0  0  0  0  0  0  0  0  0  0  0  0
  1  2  1  0
  2  3  1  0
  3  4  1  0
  4  5  1  0
  5  6  2  0
  5  7  1  0
  7  8  1  0
  8  9  1  0
  9 10  2  0
  9 11  1  0
 12 11  1  1
 12 13  1  0
 13 14  1  0
 14 15  1  0
 15 16  1  0
 16 17  1  0
 16 18  1  0
  7 19  1  0
 19 20  2  0
 20 21  1  0
 21 22  2  0
 22 23  1  0
 23 24  2  0
 24  4  1  0
 16 12  1  0
 24 19  1  0
M  END
>  <energy_score>  (4661) 
-10.694678

>  <alias>  (4661) 
RFQXEAVSLBHURT-UHFFFAOYSA-N-P8-P8-P268-601530

>  <HIPPO Pose ID>  (4661) 
85315

>  <smiles>  (4661) 
CCCn1c(=O)n(CC(=O)NC2COCC2(C)C)c2ccccc21

>  <inchikey>  (4661) 
RFQXEAVSLBHURT-UHFFFAOYSA-N

>  <distance_score>  (4661) 
1.315742

>  <ref_mols>  (4661) 
Z0101a,Z4245a

>  <ref_pdb>  (4661) 
Z0089a

>  <HIPPO Compound ID>  (4661) 
146904

>  <name>  (4661) 
RFQXEAVSLBHURT-UHFFFAOYSA-N-P8-P8-P268-601530

>  <inspiration_score>  (4661) 
None

$$$$
JDKAOQLPVVGFNB-UHFFFAOYSA-N-P8-P8-P268-601530
     RDKit          3D

 24 25  0  0  0  0  0  0  0  0999 V2000
  -10.9127    3.5207  -18.4370 C   0  0  0  0  0  0  0  0  0  0  0  0
   -9.7583    4.0293  -17.6691 C   0  0  0  0  0  0  0  0  0  0  0  0
   -8.5905    4.3319  -18.5825 C   0  0  0  0  0  0  0  0  0  0  0  0
   -7.3514    4.5875  -17.9141 N   0  0  0  0  0  0  0  0  0  0  0  0
   -6.1049    4.5296  -18.5788 C   0  0  0  0  0  0  0  0  0  0  0  0
   -5.8895    4.3291  -19.7658 O   0  0  0  0  0  0  0  0  0  0  0  0
   -5.1227    4.7190  -17.5851 N   0  0  0  0  0  0  0  0  0  0  0  0
   -3.7228    4.4425  -17.7638 C   0  0  0  0  0  0  0  0  0  0  0  0
   -3.0128    5.5345  -18.5578 C   0  0  0  0  0  0  0  0  0  0  0  0
   -2.4791    6.4453  -18.0581 O   0  0  0  0  0  0  0  0  0  0  0  0
   -3.1890    5.1709  -20.0544 N   0  0  0  0  0  0  0  0  0  0  0  0
   -2.6688    5.7964  -21.2280 C   0  0  0  0  0  0  0  0  0  0  0  0
   -3.7291    6.6561  -21.9374 C   0  0  0  0  0  0  0  0  0  0  0  0
   -4.5996    7.4348  -20.9360 C   0  0  0  0  0  0  0  0  0  0  0  0
   -3.0041    7.6763  -22.8591 C   0  0  0  0  0  0  0  0  0  0  0  0
   -2.4044    8.7567  -22.1520 O   0  0  0  0  0  0  0  0  0  0  0  0
   -4.6111    5.7882  -22.8635 C   0  0  0  0  0  0  0  0  0  0  0  0
   -5.1259    4.6072  -22.2899 O   0  0  0  0  0  0  0  0  0  0  0  0
   -5.7564    4.7882  -16.3385 C   0  0  0  0  0  0  0  0  0  0  0  0
   -5.2057    4.8604  -15.0753 C   0  0  0  0  0  0  0  0  0  0  0  0
   -6.0709    4.8513  -13.9803 C   0  0  0  0  0  0  0  0  0  0  0  0
   -7.4534    4.7983  -14.1625 C   0  0  0  0  0  0  0  0  0  0  0  0
   -7.9895    4.7575  -15.4451 C   0  0  0  0  0  0  0  0  0  0  0  0
   -7.1308    4.7254  -16.5328 C   0  0  0  0  0  0  0  0  0  0  0  0
  1  2  1  0
  2  3  1  0
  3  4  1  0
  4  5  1  0
  5  6  2  0
  5  7  1  0
  7  8  1  0
  8  9  1  0
  9 10  2  0
  9 11  1  0
 11 12  1  0
 12 13  1  0
 13 14  1  0
 13 15  1  0
 15 16  1  0
 13 17  1  0
 17 18  1  0
  7 19  1  0
 19 20  2  0
 20 21  1  0
 21 22  2  0
 22 23  1  0
 23 24  2  0
 24  4  1  0
 24 19  1  0
M  END
>  <energy_score>  (4662) 
-8.746727

>  <alias>  (4662) 
JDKAOQLPVVGFNB-UHFFFAOYSA-N-P8-P8-P268-601530

>  <HIPPO Pose ID>  (4662) 
85317

>  <smiles>  (4662) 
CCCn1c(=O)n(CC(=O)NCC(C)(CO)CO)c2ccccc21

>  <inchikey>  (4662) 
JDKAOQLPVVGFNB-UHFFFAOYSA-N

>  <distance_score>  (4662) 
1.788186

>  <ref_mols>  (4662) 
Z0101a,Z4245a

>  <ref_pdb>  (4662) 
Z0089a

>  <HIPPO Compound ID>  (4662) 
146905

>  <name>  (4662) 
JDKAOQLPVVGFNB-UHFFFAOYSA-N-P8-P8-P268-601530

>  <inspiration_score>  (4662) 
None

$$$$
LHYJMOGCHOSNHZ-UHFFFAOYSA-N-P268-P8-P268-601530
     RDKit          3D

 24 26  0  0  0  0  0  0  0  0999 V2000
  -10.6526    4.5372  -18.2050 C   0  0  0  0  0  0  0  0  0  0  0  0
   -9.4620    4.5488  -19.1449 C   0  0  0  0  0  0  0  0  0  0  0  0
   -8.4244    3.4802  -18.8694 C   0  0  0  0  0  0  0  0  0  0  0  0
   -7.3729    4.0235  -18.0713 N   0  0  0  0  0  0  0  0  0  0  0  0
   -6.1481    4.4932  -18.5701 C   0  0  0  0  0  0  0  0  0  0  0  0
   -5.7010    4.3352  -19.6956 O   0  0  0  0  0  0  0  0  0  0  0  0
   -5.5093    5.1483  -17.4894 N   0  0  0  0  0  0  0  0  0  0  0  0
   -4.1021    5.4380  -17.4535 C   0  0  0  0  0  0  0  0  0  0  0  0
   -3.7141    6.4367  -18.5504 C   0  0  0  0  0  0  0  0  0  0  0  0
   -3.9951    7.5740  -18.5052 O   0  0  0  0  0  0  0  0  0  0  0  0
   -2.9566    5.6230  -19.6518 N   0  0  0  0  0  0  0  0  0  0  0  0
   -2.3082    6.0680  -20.8774 C   0  0  2  0  0  0  0  0  0  0  0  0
   -1.8886    7.5496  -20.9274 C   0  0  0  0  0  0  0  0  0  0  0  0
   -3.2038    7.8486  -21.6681 C   0  0  0  0  0  0  0  0  0  0  0  0
   -3.2604    6.3518  -22.0716 C   0  0  2  0  0  0  0  0  0  0  0  0
   -4.6352    5.7074  -22.1104 C   0  0  0  0  0  0  0  0  0  0  0  0
   -5.2447    5.8951  -23.3928 O   0  0  0  0  0  0  0  0  0  0  0  0
   -5.7117    7.2147  -23.6214 C   0  0  0  0  0  0  0  0  0  0  0  0
   -6.3129    4.9948  -16.3486 C   0  0  0  0  0  0  0  0  0  0  0  0
   -6.1015    5.3795  -15.0441 C   0  0  0  0  0  0  0  0  0  0  0  0
   -7.0916    5.0614  -14.1079 C   0  0  0  0  0  0  0  0  0  0  0  0
   -8.2514    4.3646  -14.4840 C   0  0  0  0  0  0  0  0  0  0  0  0
   -8.4440    3.9761  -15.8054 C   0  0  0  0  0  0  0  0  0  0  0  0
   -7.4667    4.3129  -16.7156 C   0  0  0  0  0  0  0  0  0  0  0  0
  1  2  1  0
  2  3  1  0
  3  4  1  0
  4  5  1  0
  5  6  2  0
  5  7  1  0
  7  8  1  0
  8  9  1  0
  9 10  2  0
  9 11  1  0
 12 11  1  1
 12 13  1  0
 13 14  1  0
 14 15  1  0
 15 16  1  1
 16 17  1  0
 17 18  1  0
  7 19  1  0
 19 20  2  0
 20 21  1  0
 21 22  2  0
 22 23  1  0
 23 24  2  0
 24  4  1  0
 15 12  1  0
 24 19  1  0
M  END
>  <energy_score>  (4663) 
-17.805362

>  <alias>  (4663) 
LHYJMOGCHOSNHZ-UHFFFAOYSA-N-P268-P8-P268-601530

>  <HIPPO Pose ID>  (4663) 
85320

>  <smiles>  (4663) 
CCCn1c(=O)n(CC(=O)NC2CCC2COC)c2ccccc21

>  <inchikey>  (4663) 
LHYJMOGCHOSNHZ-UHFFFAOYSA-N

>  <distance_score>  (4663) 
1.5757

>  <ref_mols>  (4663) 
Z0101a,Z4245a

>  <ref_pdb>  (4663) 
Z0089a

>  <HIPPO Compound ID>  (4663) 
146906

>  <name>  (4663) 
LHYJMOGCHOSNHZ-UHFFFAOYSA-N-P268-P8-P268-601530

>  <inspiration_score>  (4663) 
None

$$$$
WRCXYLFVVDWTHY-UHFFFAOYSA-N-P8-P8-P268-601530
     RDKit          3D

 26 28  0  0  0  0  0  0  0  0999 V2000
   -6.4314    7.1702  -19.0829 O   0  0  0  0  0  0  0  0  0  0  0  0
   -6.0915    6.1197  -19.4605 C   0  0  0  0  0  0  0  0  0  0  0  0
   -6.8796    4.7702  -19.2257 C   0  0  0  0  0  0  0  0  0  0  0  0
   -6.4294    4.2007  -17.9918 N   0  0  0  0  0  0  0  0  0  0  0  0
   -5.0383    4.3373  -17.7271 C   0  0  0  0  0  0  0  0  0  0  0  0
   -4.1734    4.0061  -18.5272 O   0  0  0  0  0  0  0  0  0  0  0  0
   -4.9436    5.0460  -16.4834 N   0  0  0  0  0  0  0  0  0  0  0  0
   -3.9310    5.9447  -16.1491 C   0  0  0  0  0  0  0  0  0  0  0  0
   -4.1733    7.0464  -15.4041 C   0  0  0  0  0  0  0  0  0  0  0  0
   -3.1554    8.0837  -15.0228 C   0  0  0  0  0  0  0  0  0  0  0  0
   -1.7208    7.6963  -15.3600 C   0  0  0  0  0  0  0  0  0  0  0  0
   -1.6619    6.9872  -16.7036 C   0  0  0  0  0  0  0  0  0  0  0  0
   -2.5371    5.7303  -16.6810 C   0  0  0  0  0  0  0  0  0  0  0  0
   -6.2165    4.9325  -15.8799 C   0  0  0  0  0  0  0  0  0  0  0  0
   -6.5983    5.1491  -14.5745 C   0  0  0  0  0  0  0  0  0  0  0  0
   -7.9136    4.8498  -14.2361 C   0  0  0  0  0  0  0  0  0  0  0  0
   -8.8074    4.3776  -15.2099 C   0  0  0  0  0  0  0  0  0  0  0  0
   -8.4368    4.2109  -16.5365 C   0  0  0  0  0  0  0  0  0  0  0  0
   -7.1195    4.4629  -16.8197 C   0  0  0  0  0  0  0  0  0  0  0  0
   -4.7884    5.6842  -20.1793 N   0  0  0  0  0  0  0  0  0  0  0  0
   -3.6109    6.4255  -20.4914 C   0  0  0  0  0  0  0  0  0  0  0  0
   -3.5052    6.6576  -21.9806 C   0  0  0  0  0  0  0  0  0  0  0  0
   -3.7665    5.3829  -22.8011 C   0  0  0  0  0  0  0  0  0  0  0  0
   -5.1370    4.9966  -22.8567 O   0  0  0  0  0  0  0  0  0  0  0  0
   -4.4202    7.8113  -22.3716 C   0  0  0  0  0  0  0  0  0  0  0  0
   -4.1488    8.1916  -23.7179 O   0  0  0  0  0  0  0  0  0  0  0  0
  1  2  2  0
  2  3  1  0
  3  4  1  0
  4  5  1  0
  5  6  2  0
  5  7  1  0
  7  8  1  0
  8  9  2  0
  9 10  1  0
 10 11  1  0
 11 12  1  0
 12 13  1  0
  7 14  1  0
 14 15  2  0
 15 16  1  0
 16 17  2  0
 17 18  1  0
 18 19  2  0
  2 20  1  0
 20 21  1  0
 21 22  1  0
 22 23  1  0
 23 24  1  0
 22 25  1  0
 25 26  1  0
 19  4  1  0
 13  8  1  0
 19 14  1  0
M  END
>  <energy_score>  (4664) 
-0.052448

>  <alias>  (4664) 
WRCXYLFVVDWTHY-UHFFFAOYSA-N-P8-P8-P268-601530

>  <HIPPO Pose ID>  (4664) 
85351

>  <smiles>  (4664) 
O=C(Cn1c(=O)n(C2=CCCCC2)c2ccccc21)NCC(CO)CO

>  <inchikey>  (4664) 
WRCXYLFVVDWTHY-UHFFFAOYSA-N

>  <distance_score>  (4664) 
1.661044

>  <ref_mols>  (4664) 
Z0101a,Z4245a

>  <ref_pdb>  (4664) 
Z0089a

>  <HIPPO Compound ID>  (4664) 
146922

>  <name>  (4664) 
WRCXYLFVVDWTHY-UHFFFAOYSA-N-P8-P8-P268-601530

>  <inspiration_score>  (4664) 
None

$$$$
BQWZQLBAAYAVMZ-UHFFFAOYSA-N-P268-P8-P268-601530
     RDKit          3D

 26 29  0  0  0  0  0  0  0  0999 V2000
   -4.1751    4.3788  -18.4506 O   0  0  0  0  0  0  0  0  0  0  0  0
   -4.6489    4.4658  -19.5127 C   0  0  0  0  0  0  0  0  0  0  0  0
   -6.2015    4.3158  -19.7658 C   0  0  0  0  0  0  0  0  0  0  0  0
   -6.8936    5.2072  -18.8630 N   0  0  0  0  0  0  0  0  0  0  0  0
   -6.1526    6.3967  -18.6947 C   0  0  0  0  0  0  0  0  0  0  0  0
   -5.7958    7.0773  -19.6475 O   0  0  0  0  0  0  0  0  0  0  0  0
   -5.8286    6.5105  -17.2952 N   0  0  0  0  0  0  0  0  0  0  0  0
   -4.8657    7.3853  -16.7766 C   0  0  0  0  0  0  0  0  0  0  0  0
   -3.9958    8.0559  -17.5615 C   0  0  0  0  0  0  0  0  0  0  0  0
   -2.8976    8.9611  -17.0833 C   0  0  0  0  0  0  0  0  0  0  0  0
   -2.6253    8.8461  -15.5897 C   0  0  0  0  0  0  0  0  0  0  0  0
   -3.9351    8.7877  -14.8249 C   0  0  0  0  0  0  0  0  0  0  0  0
   -4.7786    7.5896  -15.2763 C   0  0  0  0  0  0  0  0  0  0  0  0
   -6.6200    5.5243  -16.6313 C   0  0  0  0  0  0  0  0  0  0  0  0
   -6.8427    5.2537  -15.2953 C   0  0  0  0  0  0  0  0  0  0  0  0
   -7.8336    4.3278  -14.9651 C   0  0  0  0  0  0  0  0  0  0  0  0
   -8.5517    3.6633  -15.9674 C   0  0  0  0  0  0  0  0  0  0  0  0
   -8.2576    3.8481  -17.3112 C   0  0  0  0  0  0  0  0  0  0  0  0
   -7.2796    4.7713  -17.6004 C   0  0  0  0  0  0  0  0  0  0  0  0
   -4.0013    4.8113  -20.8724 N   0  0  0  0  0  0  0  0  0  0  0  0
   -2.6643    5.2116  -21.1901 C   0  0  0  0  0  0  0  0  0  0  0  0
   -2.6160    6.3206  -22.2353 C   0  0  2  0  0  0  0  0  0  0  0  0
   -3.4994    7.5169  -21.9248 C   0  0  0  0  0  0  0  0  0  0  0  0
   -4.7936    7.2571  -22.6851 C   0  0  0  0  0  0  0  0  0  0  0  0
   -4.6057    6.0501  -23.4451 O   0  0  0  0  0  0  0  0  0  0  0  0
   -3.1909    5.8545  -23.5547 C   0  0  0  0  0  0  0  0  0  0  0  0
  1  2  2  0
  2  3  1  0
  3  4  1  0
  4  5  1  0
  5  6  2  0
  5  7  1  0
  7  8  1  0
  8  9  2  0
  9 10  1  0
 10 11  1  0
 11 12  1  0
 12 13  1  0
  7 14  1  0
 14 15  2  0
 15 16  1  0
 16 17  2  0
 17 18  1  0
 18 19  2  0
  2 20  1  0
 20 21  1  0
 22 21  1  1
 22 23  1  0
 23 24  1  0
 24 25  1  0
 25 26  1  0
 19  4  1  0
 26 22  1  0
 13  8  1  0
 19 14  1  0
M  END
>  <energy_score>  (4665) 
-0.219075

>  <alias>  (4665) 
BQWZQLBAAYAVMZ-UHFFFAOYSA-N-P268-P8-P268-601530

>  <HIPPO Pose ID>  (4665) 
85356

>  <smiles>  (4665) 
O=C(Cn1c(=O)n(C2=CCCCC2)c2ccccc21)NCC1CCOC1

>  <inchikey>  (4665) 
BQWZQLBAAYAVMZ-UHFFFAOYSA-N

>  <distance_score>  (4665) 
1.643221

>  <ref_mols>  (4665) 
Z0101a,Z4245a

>  <ref_pdb>  (4665) 
Z0089a

>  <HIPPO Compound ID>  (4665) 
146924

>  <name>  (4665) 
BQWZQLBAAYAVMZ-UHFFFAOYSA-N-P268-P8-P268-601530

>  <inspiration_score>  (4665) 
None

$$$$
VJHGCDBOOWCNHI-UHFFFAOYSA-N-P268-P8-P268-601530
     RDKit          3D

 26 28  0  0  0  0  0  0  0  0999 V2000
   -1.7192    5.9962  -22.8037 C   0  0  0  0  0  0  0  0  0  0  0  0
   -3.0762    5.8893  -22.0730 C   0  0  0  0  0  0  0  0  0  0  0  0
   -2.9896    6.7894  -20.8311 C   0  0  0  0  0  0  0  0  0  0  0  0
   -4.1762    6.3894  -23.0365 C   0  0  0  0  0  0  0  0  0  0  0  0
   -5.5061    6.0612  -22.6636 O   0  0  0  0  0  0  0  0  0  0  0  0
   -3.2940    4.4194  -21.6921 C   0  0  0  0  0  0  0  0  0  0  0  0
   -4.5908    4.2278  -21.1235 N   0  0  0  0  0  0  0  0  0  0  0  0
   -5.0564    4.2635  -19.6481 C   0  0  0  0  0  0  0  0  0  0  0  0
   -4.4402    4.3783  -18.6631 O   0  0  0  0  0  0  0  0  0  0  0  0
   -6.6146    4.0819  -19.6641 C   0  0  0  0  0  0  0  0  0  0  0  0
   -7.1866    5.0893  -18.8049 N   0  0  0  0  0  0  0  0  0  0  0  0
   -6.4263    6.2944  -18.8697 C   0  0  0  0  0  0  0  0  0  0  0  0
   -6.1104    6.8399  -19.9235 O   0  0  0  0  0  0  0  0  0  0  0  0
   -5.9417    6.5462  -17.5324 N   0  0  0  0  0  0  0  0  0  0  0  0
   -4.8592    7.3807  -17.2699 C   0  0  0  0  0  0  0  0  0  0  0  0
   -4.6667    8.5136  -17.9764 C   0  0  0  0  0  0  0  0  0  0  0  0
   -3.4552    9.3911  -17.8724 C   0  0  0  0  0  0  0  0  0  0  0  0
   -2.2818    8.7062  -17.1809 C   0  0  0  0  0  0  0  0  0  0  0  0
   -2.7529    7.9826  -15.9300 C   0  0  0  0  0  0  0  0  0  0  0  0
   -3.8206    6.9317  -16.2570 C   0  0  0  0  0  0  0  0  0  0  0  0
   -6.5948    5.6171  -16.6808 C   0  0  0  0  0  0  0  0  0  0  0  0
   -6.6611    5.5430  -15.3039 C   0  0  0  0  0  0  0  0  0  0  0  0
   -7.5597    4.6355  -14.7410 C   0  0  0  0  0  0  0  0  0  0  0  0
   -8.3710    3.8333  -15.5571 C   0  0  0  0  0  0  0  0  0  0  0  0
   -8.2793    3.8795  -16.9418 C   0  0  0  0  0  0  0  0  0  0  0  0
   -7.3776    4.7775  -17.4623 C   0  0  0  0  0  0  0  0  0  0  0  0
  1  2  1  0
  2  3  1  0
  2  4  1  0
  4  5  1  0
  2  6  1  0
  6  7  1  0
  7  8  1  0
  8  9  2  0
  8 10  1  0
 10 11  1  0
 11 12  1  0
 12 13  2  0
 12 14  1  0
 14 15  1  0
 15 16  2  0
 16 17  1  0
 17 18  1  0
 18 19  1  0
 19 20  1  0
 14 21  1  0
 21 22  2  0
 22 23  1  0
 23 24  2  0
 24 25  1  0
 25 26  2  0
 26 11  1  0
 20 15  1  0
 26 21  1  0
M  END
>  <energy_score>  (4666) 
-14.001558

>  <alias>  (4666) 
VJHGCDBOOWCNHI-UHFFFAOYSA-N-P268-P8-P268-601530

>  <HIPPO Pose ID>  (4666) 
85358

>  <smiles>  (4666) 
CC(C)(CO)CNC(=O)Cn1c(=O)n(C2=CCCCC2)c2ccccc21

>  <inchikey>  (4666) 
VJHGCDBOOWCNHI-UHFFFAOYSA-N

>  <distance_score>  (4666) 
1.522778

>  <ref_mols>  (4666) 
Z0101a,Z4245a

>  <ref_pdb>  (4666) 
Z0089a

>  <HIPPO Compound ID>  (4666) 
146925

>  <name>  (4666) 
VJHGCDBOOWCNHI-UHFFFAOYSA-N-P268-P8-P268-601530

>  <inspiration_score>  (4666) 
None

$$$$
GRHJAODQFMBDHD-UHFFFAOYSA-N-P268-P8-P268-601530
     RDKit          3D

 26 28  0  0  0  0  0  0  0  0999 V2000
   -2.4636    4.7764  -20.6022 C   0  0  0  0  0  0  0  0  0  0  0  0
   -3.1346    5.7621  -21.5671 C   0  0  2  0  0  0  0  0  0  0  0  0
   -3.1162    7.1913  -21.0076 C   0  0  0  0  0  0  0  0  0  0  0  0
   -1.7664    7.6470  -20.9194 O   0  0  0  0  0  0  0  0  0  0  0  0
   -4.5245    5.2701  -22.0176 C   0  0  2  0  0  0  0  0  0  0  0  0
   -5.1226    6.1693  -23.0948 C   0  0  0  0  0  0  0  0  0  0  0  0
   -5.4344    5.1571  -20.9185 N   0  0  0  0  0  0  0  0  0  0  0  0
   -6.4594    4.0510  -20.5718 C   0  0  0  0  0  0  0  0  0  0  0  0
   -6.6667    3.0244  -21.0864 O   0  0  0  0  0  0  0  0  0  0  0  0
   -7.2746    4.5282  -19.3367 C   0  0  0  0  0  0  0  0  0  0  0  0
   -6.5773    4.4409  -18.0989 N   0  0  0  0  0  0  0  0  0  0  0  0
   -5.4336    5.2099  -17.8640 C   0  0  0  0  0  0  0  0  0  0  0  0
   -4.8365    5.8344  -18.7245 O   0  0  0  0  0  0  0  0  0  0  0  0
   -5.1796    5.2283  -16.4761 N   0  0  0  0  0  0  0  0  0  0  0  0
   -4.0071    5.7072  -15.9004 C   0  0  0  0  0  0  0  0  0  0  0  0
   -3.5981    5.3241  -14.6735 C   0  0  0  0  0  0  0  0  0  0  0  0
   -2.3200    5.7595  -14.0153 C   0  0  0  0  0  0  0  0  0  0  0  0
   -1.3446    6.4480  -14.9638 C   0  0  0  0  0  0  0  0  0  0  0  0
   -2.0810    7.3988  -15.8930 C   0  0  0  0  0  0  0  0  0  0  0  0
   -3.1359    6.6508  -16.7135 C   0  0  0  0  0  0  0  0  0  0  0  0
   -6.3708    4.7607  -15.8750 C   0  0  0  0  0  0  0  0  0  0  0  0
   -6.7961    4.8437  -14.5670 C   0  0  0  0  0  0  0  0  0  0  0  0
   -8.1006    4.4491  -14.2873 C   0  0  0  0  0  0  0  0  0  0  0  0
   -8.9470    4.0092  -15.3149 C   0  0  0  0  0  0  0  0  0  0  0  0
   -8.5268    3.9260  -16.6325 C   0  0  0  0  0  0  0  0  0  0  0  0
   -7.2319    4.3097  -16.8795 C   0  0  0  0  0  0  0  0  0  0  0  0
  2  1  1  1
  2  3  1  0
  3  4  1  0
  2  5  1  0
  5  6  1  6
  5  7  1  0
  7  8  1  0
  8  9  2  0
  8 10  1  0
 10 11  1  0
 11 12  1  0
 12 13  2  0
 12 14  1  0
 14 15  1  0
 15 16  2  0
 16 17  1  0
 17 18  1  0
 18 19  1  0
 19 20  1  0
 14 21  1  0
 21 22  2  0
 22 23  1  0
 23 24  2  0
 24 25  1  0
 25 26  2  0
 26 11  1  0
 20 15  1  0
 26 21  1  0
M  END
>  <energy_score>  (4667) 
-17.644144

>  <alias>  (4667) 
GRHJAODQFMBDHD-UHFFFAOYSA-N-P268-P8-P268-601530

>  <HIPPO Pose ID>  (4667) 
85360

>  <smiles>  (4667) 
CC(CO)C(C)NC(=O)Cn1c(=O)n(C2=CCCCC2)c2ccccc21

>  <inchikey>  (4667) 
GRHJAODQFMBDHD-UHFFFAOYSA-N

>  <distance_score>  (4667) 
1.487376

>  <ref_mols>  (4667) 
Z0101a,Z4245a

>  <ref_pdb>  (4667) 
Z0089a

>  <HIPPO Compound ID>  (4667) 
146926

>  <name>  (4667) 
GRHJAODQFMBDHD-UHFFFAOYSA-N-P268-P8-P268-601530

>  <inspiration_score>  (4667) 
None

$$$$
WBOMFWXIDYCRRQ-UHFFFAOYSA-N-P268-P8-P268-601530
     RDKit          3D

 26 28  0  0  0  0  0  0  0  0999 V2000
   -4.2497    9.4888  -19.4425 C   0  0  0  0  0  0  0  0  0  0  0  0
   -4.2179    8.6946  -20.6220 O   0  0  0  0  0  0  0  0  0  0  0  0
   -3.5578    7.4433  -20.3790 C   0  0  0  0  0  0  0  0  0  0  0  0
   -3.4614    6.6458  -21.6796 C   0  0  1  0  0  0  0  0  0  0  0  0
   -2.5630    5.4117  -21.5483 C   0  0  0  0  0  0  0  0  0  0  0  0
   -4.8330    6.3516  -22.2933 C   0  0  0  0  0  0  0  0  0  0  0  0
   -5.6850    5.5691  -21.4466 N   0  0  0  0  0  0  0  0  0  0  0  0
   -5.7382    4.0468  -21.2121 C   0  0  0  0  0  0  0  0  0  0  0  0
   -5.1501    3.1822  -21.7272 O   0  0  0  0  0  0  0  0  0  0  0  0
   -6.7862    3.7641  -20.0844 C   0  0  0  0  0  0  0  0  0  0  0  0
   -6.5417    4.5035  -18.8745 N   0  0  0  0  0  0  0  0  0  0  0  0
   -5.2418    4.7594  -18.4252 C   0  0  0  0  0  0  0  0  0  0  0  0
   -4.2541    4.6318  -19.1258 O   0  0  0  0  0  0  0  0  0  0  0  0
   -5.3037    5.1881  -17.0705 N   0  0  0  0  0  0  0  0  0  0  0  0
   -4.2350    5.7477  -16.3609 C   0  0  0  0  0  0  0  0  0  0  0  0
   -2.9600    5.7340  -16.8061 C   0  0  0  0  0  0  0  0  0  0  0  0
   -1.7842    6.3741  -16.1225 C   0  0  0  0  0  0  0  0  0  0  0  0
   -2.0797    6.8551  -14.7081 C   0  0  0  0  0  0  0  0  0  0  0  0
   -3.4566    7.4938  -14.6458 C   0  0  0  0  0  0  0  0  0  0  0  0
   -4.5310    6.4860  -15.0667 C   0  0  0  0  0  0  0  0  0  0  0  0
   -6.6296    4.9081  -16.6501 C   0  0  0  0  0  0  0  0  0  0  0  0
   -7.1853    4.8840  -15.3866 C   0  0  0  0  0  0  0  0  0  0  0  0
   -8.5050    4.4595  -15.2620 C   0  0  0  0  0  0  0  0  0  0  0  0
   -9.2381    4.0731  -16.3930 C   0  0  0  0  0  0  0  0  0  0  0  0
   -8.6784    4.0696  -17.6641 C   0  0  0  0  0  0  0  0  0  0  0  0
   -7.3730    4.4858  -17.7594 C   0  0  0  0  0  0  0  0  0  0  0  0
  1  2  1  0
  2  3  1  0
  3  4  1  0
  4  5  1  1
  4  6  1  0
  6  7  1  0
  7  8  1  0
  8  9  2  0
  8 10  1  0
 10 11  1  0
 11 12  1  0
 12 13  2  0
 12 14  1  0
 14 15  1  0
 15 16  2  0
 16 17  1  0
 17 18  1  0
 18 19  1  0
 19 20  1  0
 14 21  1  0
 21 22  2  0
 22 23  1  0
 23 24  2  0
 24 25  1  0
 25 26  2  0
 26 11  1  0
 20 15  1  0
 26 21  1  0
M  END
>  <energy_score>  (4668) 
-34.976475

>  <alias>  (4668) 
WBOMFWXIDYCRRQ-UHFFFAOYSA-N-P268-P8-P268-601530

>  <HIPPO Pose ID>  (4668) 
85364

>  <smiles>  (4668) 
COCC(C)CNC(=O)Cn1c(=O)n(C2=CCCCC2)c2ccccc21

>  <inchikey>  (4668) 
WBOMFWXIDYCRRQ-UHFFFAOYSA-N

>  <distance_score>  (4668) 
1.321164

>  <ref_mols>  (4668) 
Z0101a,Z4245a

>  <ref_pdb>  (4668) 
Z0089a

>  <HIPPO Compound ID>  (4668) 
146928

>  <name>  (4668) 
WBOMFWXIDYCRRQ-UHFFFAOYSA-N-P268-P8-P268-601530

>  <inspiration_score>  (4668) 
None

$$$$
YHEGUIDPKLMYKR-UHFFFAOYSA-N-P8-P8-P268-601530
     RDKit          3D

 26 29  0  0  0  0  0  0  0  0999 V2000
   -4.3980    8.2882  -21.2107 C   0  0  0  0  0  0  0  0  0  0  0  0
   -3.9885    6.8488  -20.9919 C   0  0  1  0  0  0  0  0  0  0  0  0
   -5.0834    6.0311  -20.5483 N   0  0  0  0  0  0  0  0  0  0  0  0
   -6.1545    6.2871  -19.4513 C   0  0  0  0  0  0  0  0  0  0  0  0
   -6.3556    7.2344  -18.7953 O   0  0  0  0  0  0  0  0  0  0  0  0
   -6.9238    4.9122  -19.2781 C   0  0  0  0  0  0  0  0  0  0  0  0
   -6.3829    4.3018  -18.1183 N   0  0  0  0  0  0  0  0  0  0  0  0
   -4.9817    4.3407  -18.0162 C   0  0  0  0  0  0  0  0  0  0  0  0
   -4.2394    4.1345  -18.9681 O   0  0  0  0  0  0  0  0  0  0  0  0
   -4.6840    4.7678  -16.6787 N   0  0  0  0  0  0  0  0  0  0  0  0
   -3.4960    5.4138  -16.3085 C   0  0  0  0  0  0  0  0  0  0  0  0
   -2.5028    5.6742  -17.1860 C   0  0  0  0  0  0  0  0  0  0  0  0
   -1.2182    6.3876  -16.8710 C   0  0  0  0  0  0  0  0  0  0  0  0
   -0.9433    6.4868  -15.3775 C   0  0  0  0  0  0  0  0  0  0  0  0
   -2.2013    6.9264  -14.6527 C   0  0  0  0  0  0  0  0  0  0  0  0
   -3.3576    5.9476  -14.8927 C   0  0  0  0  0  0  0  0  0  0  0  0
   -5.9138    4.6581  -15.9567 C   0  0  0  0  0  0  0  0  0  0  0  0
   -6.2107    4.7319  -14.6127 C   0  0  0  0  0  0  0  0  0  0  0  0
   -7.5441    4.5799  -14.2157 C   0  0  0  0  0  0  0  0  0  0  0  0
   -8.5595    4.3721  -15.1590 C   0  0  0  0  0  0  0  0  0  0  0  0
   -8.2734    4.3120  -16.5142 C   0  0  0  0  0  0  0  0  0  0  0  0
   -6.9458    4.4374  -16.8652 C   0  0  0  0  0  0  0  0  0  0  0  0
   -3.4407    6.2488  -22.2811 C   0  0  0  0  0  0  0  0  0  0  0  0
   -4.4692    5.8322  -23.3405 C   0  0  0  0  0  0  0  0  0  0  0  0
   -4.3309    4.4379  -22.9426 O   0  0  0  0  0  0  0  0  0  0  0  0
   -3.0657    4.7564  -22.2941 C   0  0  0  0  0  0  0  0  0  0  0  0
  2  1  1  6
  2  3  1  0
  3  4  1  0
  4  5  2  0
  4  6  1  0
  6  7  1  0
  7  8  1  0
  8  9  2  0
  8 10  1  0
 10 11  1  0
 11 12  2  0
 12 13  1  0
 13 14  1  0
 14 15  1  0
 15 16  1  0
 10 17  1  0
 17 18  2  0
 18 19  1  0
 19 20  2  0
 20 21  1  0
 21 22  2  0
  2 23  1  0
 23 24  1  0
 24 25  1  0
 25 26  1  0
 22  7  1  0
 26 23  1  0
 16 11  1  0
 22 17  1  0
M  END
>  <energy_score>  (4669) 
-13.278377

>  <alias>  (4669) 
YHEGUIDPKLMYKR-UHFFFAOYSA-N-P8-P8-P268-601530

>  <HIPPO Pose ID>  (4669) 
85373

>  <smiles>  (4669) 
CC(NC(=O)Cn1c(=O)n(C2=CCCCC2)c2ccccc21)C1COC1

>  <inchikey>  (4669) 
YHEGUIDPKLMYKR-UHFFFAOYSA-N

>  <distance_score>  (4669) 
1.673259

>  <ref_mols>  (4669) 
Z0101a,Z4245a

>  <ref_pdb>  (4669) 
Z0089a

>  <HIPPO Compound ID>  (4669) 
146933

>  <name>  (4669) 
YHEGUIDPKLMYKR-UHFFFAOYSA-N-P8-P8-P268-601530

>  <inspiration_score>  (4669) 
None

$$$$
WMEHPGFYFYBVFV-UHFFFAOYSA-N-P268-P8-P268-601530
     RDKit          3D

 26 29  0  0  0  0  0  0  0  0999 V2000
   -5.1062    6.3721  -23.5175 C   0  0  0  0  0  0  0  0  0  0  0  0
   -4.5473    5.9943  -22.1785 C   0  0  1  0  0  0  0  0  0  0  0  0
   -5.5267    5.6755  -21.2074 N   0  0  0  0  0  0  0  0  0  0  0  0
   -6.1369    4.2995  -20.7991 C   0  0  0  0  0  0  0  0  0  0  0  0
   -5.9780    3.2352  -21.2564 O   0  0  0  0  0  0  0  0  0  0  0  0
   -7.0267    4.5390  -19.5574 C   0  0  0  0  0  0  0  0  0  0  0  0
   -6.3931    4.2599  -18.3167 N   0  0  0  0  0  0  0  0  0  0  0  0
   -5.1303    4.8206  -18.0594 C   0  0  0  0  0  0  0  0  0  0  0  0
   -4.2743    5.0182  -18.9095 O   0  0  0  0  0  0  0  0  0  0  0  0
   -5.0573    5.1065  -16.6683 N   0  0  0  0  0  0  0  0  0  0  0  0
   -3.9447    5.6491  -16.0483 C   0  0  0  0  0  0  0  0  0  0  0  0
   -3.2555    6.6593  -16.6107 C   0  0  0  0  0  0  0  0  0  0  0  0
   -2.0059    7.2695  -16.0471 C   0  0  0  0  0  0  0  0  0  0  0  0
   -1.4034    6.4745  -14.8924 C   0  0  0  0  0  0  0  0  0  0  0  0
   -2.4919    5.9410  -13.9713 C   0  0  0  0  0  0  0  0  0  0  0  0
   -3.4660    5.0459  -14.7430 C   0  0  0  0  0  0  0  0  0  0  0  0
   -6.3119    4.7723  -16.1145 C   0  0  0  0  0  0  0  0  0  0  0  0
   -6.8123    4.9670  -14.8449 C   0  0  0  0  0  0  0  0  0  0  0  0
   -8.1312    4.5865  -14.6001 C   0  0  0  0  0  0  0  0  0  0  0  0
   -8.9306    4.0735  -15.6324 C   0  0  0  0  0  0  0  0  0  0  0  0
   -8.4467    3.9355  -16.9267 C   0  0  0  0  0  0  0  0  0  0  0  0
   -7.1289    4.2794  -17.1303 C   0  0  0  0  0  0  0  0  0  0  0  0
   -3.2288    5.2549  -22.0661 C   0  0  0  0  0  0  0  0  0  0  0  0
   -3.2839    6.7370  -21.8012 C   0  0  2  0  0  0  0  0  0  0  0  0
   -3.1342    7.3605  -20.4617 C   0  0  0  0  0  0  0  0  0  0  0  0
   -2.1755    6.6581  -19.6941 O   0  0  0  0  0  0  0  0  0  0  0  0
  2  1  1  6
  2  3  1  0
  3  4  1  0
  4  5  2  0
  4  6  1  0
  6  7  1  0
  7  8  1  0
  8  9  2  0
  8 10  1  0
 10 11  1  0
 11 12  2  0
 12 13  1  0
 13 14  1  0
 14 15  1  0
 15 16  1  0
 10 17  1  0
 17 18  2  0
 18 19  1  0
 19 20  2  0
 20 21  1  0
 21 22  2  0
  2 23  1  0
 23 24  1  0
 24 25  1  1
 25 26  1  0
 24  2  1  0
 22  7  1  0
 16 11  1  0
 22 17  1  0
M  END
>  <energy_score>  (4670) 
-29.729033

>  <alias>  (4670) 
WMEHPGFYFYBVFV-UHFFFAOYSA-N-P268-P8-P268-601530

>  <HIPPO Pose ID>  (4670) 
85378

>  <smiles>  (4670) 
CC1(NC(=O)Cn2c(=O)n(C3=CCCCC3)c3ccccc32)CC1CO

>  <inchikey>  (4670) 
WMEHPGFYFYBVFV-UHFFFAOYSA-N

>  <distance_score>  (4670) 
1.506252

>  <ref_mols>  (4670) 
Z0101a,Z4245a

>  <ref_pdb>  (4670) 
Z0089a

>  <HIPPO Compound ID>  (4670) 
146935

>  <name>  (4670) 
WMEHPGFYFYBVFV-UHFFFAOYSA-N-P268-P8-P268-601530

>  <inspiration_score>  (4670) 
None

$$$$
QDWPSUBCYFRGEG-UHFFFAOYSA-N-P8-P8-P268-601530
     RDKit          3D

 26 29  0  0  0  0  0  0  0  0999 V2000
   -2.3366    6.0977  -20.5311 C   0  0  0  0  0  0  0  0  0  0  0  0
   -3.3220    6.0747  -21.6852 C   0  0  0  0  0  0  0  0  0  0  0  0
   -4.5420    6.9631  -21.4428 C   0  0  0  0  0  0  0  0  0  0  0  0
   -5.5117    6.1350  -20.7998 N   0  0  0  0  0  0  0  0  0  0  0  0
   -6.2411    6.3061  -19.4401 C   0  0  0  0  0  0  0  0  0  0  0  0
   -6.2177    7.1892  -18.6736 O   0  0  0  0  0  0  0  0  0  0  0  0
   -7.0005    4.9191  -19.2067 C   0  0  0  0  0  0  0  0  0  0  0  0
   -6.4692    4.3089  -18.0382 N   0  0  0  0  0  0  0  0  0  0  0  0
   -5.0654    4.4641  -17.8974 C   0  0  0  0  0  0  0  0  0  0  0  0
   -4.2881    4.3344  -18.8337 O   0  0  0  0  0  0  0  0  0  0  0  0
   -4.8614    4.9706  -16.5644 N   0  0  0  0  0  0  0  0  0  0  0  0
   -3.8723    5.9019  -16.2536 C   0  0  0  0  0  0  0  0  0  0  0  0
   -4.1734    7.0771  -15.6661 C   0  0  0  0  0  0  0  0  0  0  0  0
   -3.1871    8.1662  -15.3563 C   0  0  0  0  0  0  0  0  0  0  0  0
   -1.7312    7.7632  -15.5696 C   0  0  0  0  0  0  0  0  0  0  0  0
   -1.5896    6.8833  -16.8039 C   0  0  0  0  0  0  0  0  0  0  0  0
   -2.4546    5.6284  -16.6596 C   0  0  0  0  0  0  0  0  0  0  0  0
   -6.1034    4.8408  -15.8974 C   0  0  0  0  0  0  0  0  0  0  0  0
   -6.4036    5.0245  -14.5656 C   0  0  0  0  0  0  0  0  0  0  0  0
   -7.7148    4.7803  -14.1662 C   0  0  0  0  0  0  0  0  0  0  0  0
   -8.6859    4.3934  -15.1041 C   0  0  0  0  0  0  0  0  0  0  0  0
   -8.3886    4.2576  -16.4550 C   0  0  0  0  0  0  0  0  0  0  0  0
   -7.0770    4.4640  -16.8059 C   0  0  0  0  0  0  0  0  0  0  0  0
   -3.5516    4.6809  -22.3402 C   0  0  0  0  0  0  0  0  0  0  0  0
   -3.4733    5.2989  -23.6604 O   0  0  0  0  0  0  0  0  0  0  0  0
   -2.6825    6.3735  -23.0631 C   0  0  0  0  0  0  0  0  0  0  0  0
  1  2  1  0
  2  3  1  0
  3  4  1  0
  4  5  1  0
  5  6  2  0
  5  7  1  0
  7  8  1  0
  8  9  1  0
  9 10  2  0
  9 11  1  0
 11 12  1  0
 12 13  2  0
 13 14  1  0
 14 15  1  0
 15 16  1  0
 16 17  1  0
 11 18  1  0
 18 19  2  0
 19 20  1  0
 20 21  2  0
 21 22  1  0
 22 23  2  0
  2 24  1  0
 24 25  1  0
 25 26  1  0
 26  2  1  0
 23  8  1  0
 17 12  1  0
 23 18  1  0
M  END
>  <energy_score>  (4671) 
-23.126918

>  <alias>  (4671) 
QDWPSUBCYFRGEG-UHFFFAOYSA-N-P8-P8-P268-601530

>  <HIPPO Pose ID>  (4671) 
85393

>  <smiles>  (4671) 
CC1(CNC(=O)Cn2c(=O)n(C3=CCCCC3)c3ccccc32)COC1

>  <inchikey>  (4671) 
QDWPSUBCYFRGEG-UHFFFAOYSA-N

>  <distance_score>  (4671) 
1.716114

>  <ref_mols>  (4671) 
Z0101a,Z4245a

>  <ref_pdb>  (4671) 
Z0089a

>  <HIPPO Compound ID>  (4671) 
146943

>  <name>  (4671) 
QDWPSUBCYFRGEG-UHFFFAOYSA-N-P8-P8-P268-601530

>  <inspiration_score>  (4671) 
None

$$$$
NDOXMYYVXCOCKS-UHFFFAOYSA-N-P268-P8-P268-601530
     RDKit          3D

 26 29  0  0  0  0  0  0  0  0999 V2000
   -1.2880    6.1766  -21.6082 C   0  0  0  0  0  0  0  0  0  0  0  0
   -2.6415    6.7767  -21.3733 C   0  0  2  0  0  0  0  0  0  0  0  0
   -2.9134    6.6780  -19.9829 O   0  0  0  0  0  0  0  0  0  0  0  0
   -3.6902    6.0712  -22.1456 C   0  0  2  0  0  0  0  0  0  0  0  0
   -4.5644    6.6085  -23.2522 C   0  0  0  0  0  0  0  0  0  0  0  0
   -5.0596    6.6016  -21.8518 C   0  0  1  0  0  0  0  0  0  0  0  0
   -5.8903    5.7062  -21.1730 N   0  0  0  0  0  0  0  0  0  0  0  0
   -5.8884    4.1508  -21.1427 C   0  0  0  0  0  0  0  0  0  0  0  0
   -5.2411    3.3821  -21.7414 O   0  0  0  0  0  0  0  0  0  0  0  0
   -6.8880    3.7365  -20.0288 C   0  0  0  0  0  0  0  0  0  0  0  0
   -6.5602    4.4082  -18.7969 N   0  0  0  0  0  0  0  0  0  0  0  0
   -5.2355    4.7102  -18.4227 C   0  0  0  0  0  0  0  0  0  0  0  0
   -4.2776    4.6282  -19.1782 O   0  0  0  0  0  0  0  0  0  0  0  0
   -5.2536    5.1463  -17.0647 N   0  0  0  0  0  0  0  0  0  0  0  0
   -4.1721    5.7321  -16.4029 C   0  0  0  0  0  0  0  0  0  0  0  0
   -2.8965    5.6168  -16.8266 C   0  0  0  0  0  0  0  0  0  0  0  0
   -1.7087    6.3139  -16.2246 C   0  0  0  0  0  0  0  0  0  0  0  0
   -1.9989    6.9967  -14.8937 C   0  0  0  0  0  0  0  0  0  0  0  0
   -3.3654    7.6612  -14.9229 C   0  0  0  0  0  0  0  0  0  0  0  0
   -4.4541    6.6214  -15.2046 C   0  0  0  0  0  0  0  0  0  0  0  0
   -6.5635    4.8806  -16.5901 C   0  0  0  0  0  0  0  0  0  0  0  0
   -7.0683    4.9009  -15.3052 C   0  0  0  0  0  0  0  0  0  0  0  0
   -8.3803    4.4787  -15.1127 C   0  0  0  0  0  0  0  0  0  0  0  0
   -9.1556    4.0505  -16.1995 C   0  0  0  0  0  0  0  0  0  0  0  0
   -8.6497    4.0117  -17.4935 C   0  0  0  0  0  0  0  0  0  0  0  0
   -7.3483    4.4223  -17.6539 C   0  0  0  0  0  0  0  0  0  0  0  0
  2  1  1  1
  2  3  1  0
  2  4  1  0
  4  5  1  6
  5  6  1  0
  6  7  1  6
  7  8  1  0
  8  9  2  0
  8 10  1  0
 10 11  1  0
 11 12  1  0
 12 13  2  0
 12 14  1  0
 14 15  1  0
 15 16  2  0
 16 17  1  0
 17 18  1  0
 18 19  1  0
 19 20  1  0
 14 21  1  0
 21 22  2  0
 22 23  1  0
 23 24  2  0
 24 25  1  0
 25 26  2  0
  6  4  1  0
 26 11  1  0
 20 15  1  0
 26 21  1  0
M  END
>  <energy_score>  (4672) 
-23.249531

>  <alias>  (4672) 
NDOXMYYVXCOCKS-UHFFFAOYSA-N-P268-P8-P268-601530

>  <HIPPO Pose ID>  (4672) 
85398

>  <smiles>  (4672) 
CC(O)C1CC1NC(=O)Cn1c(=O)n(C2=CCCCC2)c2ccccc21

>  <inchikey>  (4672) 
NDOXMYYVXCOCKS-UHFFFAOYSA-N

>  <distance_score>  (4672) 
1.792269

>  <ref_mols>  (4672) 
Z0101a,Z4245a

>  <ref_pdb>  (4672) 
Z0089a

>  <HIPPO Compound ID>  (4672) 
146945

>  <name>  (4672) 
NDOXMYYVXCOCKS-UHFFFAOYSA-N-P268-P8-P268-601530

>  <inspiration_score>  (4672) 
None

$$$$
MBTFVCMKKQVJSR-UHFFFAOYSA-N-P268-P8-P268-601530
     RDKit          3D

 26 29  0  0  0  0  0  0  0  0999 V2000
   -2.8493    5.1832  -21.4503 C   0  0  0  0  0  0  0  0  0  0  0  0
   -3.3196    6.5784  -21.8309 C   0  0  1  0  0  0  0  0  0  0  0  0
   -4.2326    6.7401  -23.0858 C   0  0  1  0  0  0  0  0  0  0  0  0
   -5.2106    5.7077  -23.3250 O   0  0  0  0  0  0  0  0  0  0  0  0
   -4.8094    8.0014  -22.3897 C   0  0  0  0  0  0  0  0  0  0  0  0
   -4.4524    7.3193  -21.0500 C   0  0  1  0  0  0  0  0  0  0  0  0
   -5.4798    6.4140  -20.5741 N   0  0  0  0  0  0  0  0  0  0  0  0
   -6.4353    6.5254  -19.3590 C   0  0  0  0  0  0  0  0  0  0  0  0
   -6.5948    7.3982  -18.5998 O   0  0  0  0  0  0  0  0  0  0  0  0
   -7.1470    5.1079  -19.2357 C   0  0  0  0  0  0  0  0  0  0  0  0
   -6.5673    4.4416  -18.1209 N   0  0  0  0  0  0  0  0  0  0  0  0
   -5.1688    4.5957  -18.0393 C   0  0  0  0  0  0  0  0  0  0  0  0
   -4.4424    4.5090  -19.0198 O   0  0  0  0  0  0  0  0  0  0  0  0
   -4.8726    5.0153  -16.7043 N   0  0  0  0  0  0  0  0  0  0  0  0
   -3.6879    5.6721  -16.3613 C   0  0  0  0  0  0  0  0  0  0  0  0
   -3.5748    6.4588  -15.2706 C   0  0  0  0  0  0  0  0  0  0  0  0
   -2.3736    7.2928  -14.9257 C   0  0  0  0  0  0  0  0  0  0  0  0
   -1.4232    7.4912  -16.0996 C   0  0  0  0  0  0  0  0  0  0  0  0
   -1.1971    6.1686  -16.8101 C   0  0  0  0  0  0  0  0  0  0  0  0
   -2.5179    5.5920  -17.3327 C   0  0  0  0  0  0  0  0  0  0  0  0
   -6.0818    4.8537  -15.9678 C   0  0  0  0  0  0  0  0  0  0  0  0
   -6.3453    4.9034  -14.6163 C   0  0  0  0  0  0  0  0  0  0  0  0
   -7.6534    4.6515  -14.1879 C   0  0  0  0  0  0  0  0  0  0  0  0
   -8.6730    4.3599  -15.1071 C   0  0  0  0  0  0  0  0  0  0  0  0
   -8.4150    4.3138  -16.4698 C   0  0  0  0  0  0  0  0  0  0  0  0
   -7.1101    4.5435  -16.8526 C   0  0  0  0  0  0  0  0  0  0  0  0
  2  1  1  1
  2  3  1  0
  3  4  1  1
  3  5  1  0
  5  6  1  0
  6  7  1  6
  7  8  1  0
  8  9  2  0
  8 10  1  0
 10 11  1  0
 11 12  1  0
 12 13  2  0
 12 14  1  0
 14 15  1  0
 15 16  2  0
 16 17  1  0
 17 18  1  0
 18 19  1  0
 19 20  1  0
 14 21  1  0
 21 22  2  0
 22 23  1  0
 23 24  2  0
 24 25  1  0
 25 26  2  0
  6  2  1  0
 26 11  1  0
 20 15  1  0
 26 21  1  0
M  END
>  <energy_score>  (4673) 
-25.877774

>  <alias>  (4673) 
MBTFVCMKKQVJSR-UHFFFAOYSA-N-P268-P8-P268-601530

>  <HIPPO Pose ID>  (4673) 
85408

>  <smiles>  (4673) 
CC1C(O)CC1NC(=O)Cn1c(=O)n(C2=CCCCC2)c2ccccc21

>  <inchikey>  (4673) 
MBTFVCMKKQVJSR-UHFFFAOYSA-N

>  <distance_score>  (4673) 
1.555865

>  <ref_mols>  (4673) 
Z0101a,Z4245a

>  <ref_pdb>  (4673) 
Z0089a

>  <HIPPO Compound ID>  (4673) 
146950

>  <name>  (4673) 
MBTFVCMKKQVJSR-UHFFFAOYSA-N-P268-P8-P268-601530

>  <inspiration_score>  (4673) 
None

$$$$
OIJYJQRNBWGIJI-UHFFFAOYSA-N-P8-P8-P268-601530
     RDKit          3D

 26 29  0  0  0  0  0  0  0  0999 V2000
   -3.9873    6.8169  -25.1535 C   0  0  0  0  0  0  0  0  0  0  0  0
   -4.7882    6.1539  -24.1839 O   0  0  0  0  0  0  0  0  0  0  0  0
   -4.0180    5.5374  -23.1538 C   0  0  0  0  0  0  0  0  0  0  0  0
   -3.6249    6.5785  -22.1153 C   0  0  0  0  0  0  0  0  0  0  0  0
   -4.6908    7.5324  -21.6083 C   0  0  0  0  0  0  0  0  0  0  0  0
   -5.2830    6.3767  -20.8680 N   0  0  0  0  0  0  0  0  0  0  0  0
   -5.9983    6.3198  -19.5295 C   0  0  0  0  0  0  0  0  0  0  0  0
   -6.1832    7.1659  -18.7253 O   0  0  0  0  0  0  0  0  0  0  0  0
   -6.5239    4.8493  -19.4086 C   0  0  0  0  0  0  0  0  0  0  0  0
   -6.1558    4.3840  -18.1285 N   0  0  0  0  0  0  0  0  0  0  0  0
   -4.8186    4.4275  -17.7639 C   0  0  0  0  0  0  0  0  0  0  0  0
   -3.8994    4.3737  -18.5656 O   0  0  0  0  0  0  0  0  0  0  0  0
   -4.7731    4.5772  -16.3540 N   0  0  0  0  0  0  0  0  0  0  0  0
   -3.6459    4.9642  -15.6467 C   0  0  0  0  0  0  0  0  0  0  0  0
   -3.4341    4.5824  -14.3724 C   0  0  0  0  0  0  0  0  0  0  0  0
   -2.3305    5.1088  -13.5055 C   0  0  0  0  0  0  0  0  0  0  0  0
   -1.7544    6.4208  -14.0280 C   0  0  0  0  0  0  0  0  0  0  0  0
   -1.4484    6.3121  -15.5133 C   0  0  0  0  0  0  0  0  0  0  0  0
   -2.6885    5.9283  -16.3321 C   0  0  0  0  0  0  0  0  0  0  0  0
   -6.1171    4.4878  -15.8950 C   0  0  0  0  0  0  0  0  0  0  0  0
   -6.6543    4.5609  -14.6288 C   0  0  0  0  0  0  0  0  0  0  0  0
   -8.0320    4.3860  -14.4979 C   0  0  0  0  0  0  0  0  0  0  0  0
   -8.8419    4.2020  -15.6291 C   0  0  0  0  0  0  0  0  0  0  0  0
   -8.3193    4.2373  -16.9116 C   0  0  0  0  0  0  0  0  0  0  0  0
   -6.9557    4.3717  -17.0034 C   0  0  0  0  0  0  0  0  0  0  0  0
   -3.7619    6.0485  -20.7190 C   0  0  0  0  0  0  0  0  0  0  0  0
  1  2  1  0
  2  3  1  0
  3  4  1  0
  4  5  1  0
  5  6  1  0
  6  7  1  0
  7  8  2  0
  7  9  1  0
  9 10  1  0
 10 11  1  0
 11 12  2  0
 11 13  1  0
 13 14  1  0
 14 15  2  0
 15 16  1  0
 16 17  1  0
 17 18  1  0
 18 19  1  0
 13 20  1  0
 20 21  2  0
 21 22  1  0
 22 23  2  0
 23 24  1  0
 24 25  2  0
  6 26  1  0
 26  4  1  0
 25 10  1  0
 19 14  1  0
 25 20  1  0
M  END
>  <energy_score>  (4674) 
-7.295699

>  <alias>  (4674) 
OIJYJQRNBWGIJI-UHFFFAOYSA-N-P8-P8-P268-601530

>  <HIPPO Pose ID>  (4674) 
85411

>  <smiles>  (4674) 
COCC1CN(C(=O)Cn2c(=O)n(C3=CCCCC3)c3ccccc32)C1

>  <inchikey>  (4674) 
OIJYJQRNBWGIJI-UHFFFAOYSA-N

>  <distance_score>  (4674) 
1.729206

>  <ref_mols>  (4674) 
Z0101a,Z4245a

>  <ref_pdb>  (4674) 
Z0089a

>  <HIPPO Compound ID>  (4674) 
146952

>  <name>  (4674) 
OIJYJQRNBWGIJI-UHFFFAOYSA-N-P8-P8-P268-601530

>  <inspiration_score>  (4674) 
None

$$$$
HYNNDTTYUKMFLJ-UHFFFAOYSA-N-P8-P8-P268-601530
     RDKit          3D

 26 29  0  0  0  0  0  0  0  0999 V2000
   -2.5177    6.9060  -20.8181 C   0  0  0  0  0  0  0  0  0  0  0  0
   -3.2161    7.0628  -22.1466 C   0  0  1  0  0  0  0  0  0  0  0  0
   -2.9759    5.9301  -23.1264 C   0  0  0  0  0  0  0  0  0  0  0  0
   -4.0152    6.0355  -24.1136 O   0  0  0  0  0  0  0  0  0  0  0  0
   -5.0526    6.8820  -23.5913 C   0  0  0  0  0  0  0  0  0  0  0  0
   -4.7240    7.1604  -22.1260 C   0  0  1  0  0  0  0  0  0  0  0  0
   -5.3537    6.2250  -21.2291 N   0  0  0  0  0  0  0  0  0  0  0  0
   -5.5270    4.6883  -21.3363 C   0  0  0  0  0  0  0  0  0  0  0  0
   -5.2542    3.9542  -22.2041 O   0  0  0  0  0  0  0  0  0  0  0  0
   -6.2791    4.1640  -20.0782 C   0  0  0  0  0  0  0  0  0  0  0  0
   -6.3474    4.9570  -18.8901 N   0  0  0  0  0  0  0  0  0  0  0  0
   -5.1089    5.2237  -18.2897 C   0  0  0  0  0  0  0  0  0  0  0  0
   -4.0675    5.2289  -18.9238 O   0  0  0  0  0  0  0  0  0  0  0  0
   -5.3179    5.4697  -16.9139 N   0  0  0  0  0  0  0  0  0  0  0  0
   -4.3494    5.9934  -16.0642 C   0  0  0  0  0  0  0  0  0  0  0  0
   -4.6495    6.6044  -14.8995 C   0  0  0  0  0  0  0  0  0  0  0  0
   -3.6462    7.2193  -13.9648 C   0  0  0  0  0  0  0  0  0  0  0  0
   -2.2597    7.3878  -14.5764 C   0  0  0  0  0  0  0  0  0  0  0  0
   -1.8828    6.1610  -15.3905 C   0  0  0  0  0  0  0  0  0  0  0  0
   -2.8997    5.9222  -16.5096 C   0  0  0  0  0  0  0  0  0  0  0  0
   -6.6407    5.0468  -16.6461 C   0  0  0  0  0  0  0  0  0  0  0  0
   -7.2723    4.8155  -15.4417 C   0  0  0  0  0  0  0  0  0  0  0  0
   -8.5756    4.3291  -15.4780 C   0  0  0  0  0  0  0  0  0  0  0  0
   -9.2129    4.0645  -16.7023 C   0  0  0  0  0  0  0  0  0  0  0  0
   -8.5500    4.2379  -17.9158 C   0  0  0  0  0  0  0  0  0  0  0  0
   -7.2640    4.7281  -17.8575 C   0  0  0  0  0  0  0  0  0  0  0  0
  2  1  1  1
  2  3  1  0
  3  4  1  0
  4  5  1  0
  5  6  1  0
  6  7  1  1
  7  8  1  0
  8  9  2  0
  8 10  1  0
 10 11  1  0
 11 12  1  0
 12 13  2  0
 12 14  1  0
 14 15  1  0
 15 16  2  0
 16 17  1  0
 17 18  1  0
 18 19  1  0
 19 20  1  0
 14 21  1  0
 21 22  2  0
 22 23  1  0
 23 24  2  0
 24 25  1  0
 25 26  2  0
  6  2  1  0
 26 11  1  0
 20 15  1  0
 26 21  1  0
M  END
>  <energy_score>  (4675) 
-13.807827

>  <alias>  (4675) 
HYNNDTTYUKMFLJ-UHFFFAOYSA-N-P8-P8-P268-601530

>  <HIPPO Pose ID>  (4675) 
85415

>  <smiles>  (4675) 
CC1COCC1NC(=O)Cn1c(=O)n(C2=CCCCC2)c2ccccc21

>  <inchikey>  (4675) 
HYNNDTTYUKMFLJ-UHFFFAOYSA-N

>  <distance_score>  (4675) 
1.811423

>  <ref_mols>  (4675) 
Z0101a,Z4245a

>  <ref_pdb>  (4675) 
Z0089a

>  <HIPPO Compound ID>  (4675) 
146954

>  <name>  (4675) 
HYNNDTTYUKMFLJ-UHFFFAOYSA-N-P8-P8-P268-601530

>  <inspiration_score>  (4675) 
None

$$$$
LYAUOSRHJHGHTI-UHFFFAOYSA-N-P268-P8-P268-601530
     RDKit          3D

 26 28  0  0  0  0  0  0  0  0999 V2000
   -3.9838    8.8152  -20.6340 C   0  0  0  0  0  0  0  0  0  0  0  0
   -3.3987    7.4263  -20.4081 C   0  0  0  0  0  0  0  0  0  0  0  0
   -3.3565    6.5585  -21.6794 C   0  0  1  0  0  0  0  0  0  0  0  0
   -2.5029    5.2879  -21.4947 C   0  0  0  0  0  0  0  0  0  0  0  0
   -1.1242    5.6574  -21.3947 O   0  0  0  0  0  0  0  0  0  0  0  0
   -4.7440    6.2906  -22.2761 C   0  0  0  0  0  0  0  0  0  0  0  0
   -5.6207    5.5438  -21.4249 N   0  0  0  0  0  0  0  0  0  0  0  0
   -5.7325    4.0264  -21.1885 C   0  0  0  0  0  0  0  0  0  0  0  0
   -5.1818    3.1391  -21.7056 O   0  0  0  0  0  0  0  0  0  0  0  0
   -6.7946    3.7739  -20.0634 C   0  0  0  0  0  0  0  0  0  0  0  0
   -6.5619    4.5300  -18.8617 N   0  0  0  0  0  0  0  0  0  0  0  0
   -5.2627    4.7721  -18.4059 C   0  0  0  0  0  0  0  0  0  0  0  0
   -4.2812    4.6231  -19.1095 O   0  0  0  0  0  0  0  0  0  0  0  0
   -5.3198    5.1932  -17.0511 N   0  0  0  0  0  0  0  0  0  0  0  0
   -4.2425    5.7314  -16.3359 C   0  0  0  0  0  0  0  0  0  0  0  0
   -2.9767    5.7558  -16.8066 C   0  0  0  0  0  0  0  0  0  0  0  0
   -1.7914    6.3660  -16.1123 C   0  0  0  0  0  0  0  0  0  0  0  0
   -2.0577    6.7451  -14.6620 C   0  0  0  0  0  0  0  0  0  0  0  0
   -3.4332    7.3755  -14.5301 C   0  0  0  0  0  0  0  0  0  0  0  0
   -4.5168    6.3991  -14.9993 C   0  0  0  0  0  0  0  0  0  0  0  0
   -6.6460    4.9112  -16.6318 C   0  0  0  0  0  0  0  0  0  0  0  0
   -7.2025    4.8737  -15.3691 C   0  0  0  0  0  0  0  0  0  0  0  0
   -8.5215    4.4466  -15.2492 C   0  0  0  0  0  0  0  0  0  0  0  0
   -9.2539    4.0708  -16.3840 C   0  0  0  0  0  0  0  0  0  0  0  0
   -8.6955    4.0817  -17.6549 C   0  0  0  0  0  0  0  0  0  0  0  0
   -7.3912    4.5016  -17.7454 C   0  0  0  0  0  0  0  0  0  0  0  0
  1  2  1  0
  3  2  1  1
  3  4  1  0
  4  5  1  0
  3  6  1  0
  6  7  1  0
  7  8  1  0
  8  9  2  0
  8 10  1  0
 10 11  1  0
 11 12  1  0
 12 13  2  0
 12 14  1  0
 14 15  1  0
 15 16  2  0
 16 17  1  0
 17 18  1  0
 18 19  1  0
 19 20  1  0
 14 21  1  0
 21 22  2  0
 22 23  1  0
 23 24  2  0
 24 25  1  0
 25 26  2  0
 26 11  1  0
 20 15  1  0
 26 21  1  0
M  END
>  <energy_score>  (4676) 
-8.608946

>  <alias>  (4676) 
LYAUOSRHJHGHTI-UHFFFAOYSA-N-P268-P8-P268-601530

>  <HIPPO Pose ID>  (4676) 
85418

>  <smiles>  (4676) 
CCC(CO)CNC(=O)Cn1c(=O)n(C2=CCCCC2)c2ccccc21

>  <inchikey>  (4676) 
LYAUOSRHJHGHTI-UHFFFAOYSA-N

>  <distance_score>  (4676) 
1.318279

>  <ref_mols>  (4676) 
Z0101a,Z4245a

>  <ref_pdb>  (4676) 
Z0089a

>  <HIPPO Compound ID>  (4676) 
146955

>  <name>  (4676) 
LYAUOSRHJHGHTI-UHFFFAOYSA-N-P268-P8-P268-601530

>  <inspiration_score>  (4676) 
None

$$$$
YRQJYXCRXYJQNX-UHFFFAOYSA-N-P8-P8-P268-601530
     RDKit          3D

 27 30  0  0  0  0  0  0  0  0999 V2000
   -5.9287    3.5572  -21.5914 O   0  0  0  0  0  0  0  0  0  0  0  0
   -5.8096    4.4335  -20.8258 C   0  0  0  0  0  0  0  0  0  0  0  0
   -6.7131    4.5640  -19.5705 C   0  0  0  0  0  0  0  0  0  0  0  0
   -6.1779    4.2468  -18.2936 N   0  0  0  0  0  0  0  0  0  0  0  0
   -4.8783    4.6147  -17.9545 C   0  0  0  0  0  0  0  0  0  0  0  0
   -3.9606    4.6353  -18.7582 O   0  0  0  0  0  0  0  0  0  0  0  0
   -4.8685    4.9881  -16.5722 N   0  0  0  0  0  0  0  0  0  0  0  0
   -3.7958    5.6279  -15.9343 C   0  0  0  0  0  0  0  0  0  0  0  0
   -2.5959    5.8266  -16.5212 C   0  0  0  0  0  0  0  0  0  0  0  0
   -1.4074    6.4998  -15.8933 C   0  0  0  0  0  0  0  0  0  0  0  0
   -1.5441    6.6893  -14.3897 C   0  0  0  0  0  0  0  0  0  0  0  0
   -2.9387    7.1865  -14.0584 C   0  0  0  0  0  0  0  0  0  0  0  0
   -4.0014    6.1907  -14.5373 C   0  0  0  0  0  0  0  0  0  0  0  0
   -6.1803    4.7110  -16.0858 C   0  0  0  0  0  0  0  0  0  0  0  0
   -6.7291    4.7584  -14.8204 C   0  0  0  0  0  0  0  0  0  0  0  0
   -8.0854    4.4585  -14.6704 C   0  0  0  0  0  0  0  0  0  0  0  0
   -8.8749    4.1381  -15.7815 C   0  0  0  0  0  0  0  0  0  0  0  0
   -8.3333    4.0890  -17.0548 C   0  0  0  0  0  0  0  0  0  0  0  0
   -6.9805    4.3350  -17.1609 C   0  0  0  0  0  0  0  0  0  0  0  0
   -4.8847    5.6866  -20.8625 N   0  0  0  0  0  0  0  0  0  0  0  0
   -3.8632    6.0599  -21.7920 C   0  0  1  0  0  0  0  0  0  0  0  0
   -2.6322    5.1644  -21.6973 C   0  0  0  0  0  0  0  0  0  0  0  0
   -2.0149    5.1743  -23.1009 C   0  0  0  0  0  0  0  0  0  0  0  0
   -2.9723    5.9577  -23.9902 C   0  0  0  0  0  0  0  0  0  0  0  0
   -4.2988    5.9067  -23.2391 C   0  0  2  0  0  0  0  0  0  0  0  0
   -5.2754    6.9786  -23.6714 C   0  0  0  0  0  0  0  0  0  0  0  0
   -5.6513    6.8270  -25.0333 O   0  0  0  0  0  0  0  0  0  0  0  0
  1  2  2  0
  2  3  1  0
  3  4  1  0
  4  5  1  0
  5  6  2  0
  5  7  1  0
  7  8  1  0
  8  9  2  0
  9 10  1  0
 10 11  1  0
 11 12  1  0
 12 13  1  0
  7 14  1  0
 14 15  2  0
 15 16  1  0
 16 17  2  0
 17 18  1  0
 18 19  2  0
  2 20  1  0
 21 20  1  1
 21 22  1  0
 22 23  1  0
 23 24  1  0
 24 25  1  0
 25 26  1  6
 26 27  1  0
 19  4  1  0
 25 21  1  0
 13  8  1  0
 19 14  1  0
M  END
>  <energy_score>  (4677) 
-7.292054

>  <alias>  (4677) 
YRQJYXCRXYJQNX-UHFFFAOYSA-N-P8-P8-P268-601530

>  <HIPPO Pose ID>  (4677) 
85425

>  <smiles>  (4677) 
O=C(Cn1c(=O)n(C2=CCCCC2)c2ccccc21)NC1CCCC1CO

>  <inchikey>  (4677) 
YRQJYXCRXYJQNX-UHFFFAOYSA-N

>  <distance_score>  (4677) 
1.602911

>  <ref_mols>  (4677) 
Z0101a,Z4245a

>  <ref_pdb>  (4677) 
Z0089a

>  <HIPPO Compound ID>  (4677) 
146959

>  <name>  (4677) 
YRQJYXCRXYJQNX-UHFFFAOYSA-N-P8-P8-P268-601530

>  <inspiration_score>  (4677) 
None

$$$$
JTPFLHJICULJQI-UHFFFAOYSA-N-P8-P8-P268-601530
     RDKit          3D

 27 29  0  0  0  0  0  0  0  0999 V2000
   -5.7965    7.3672  -24.7788 C   0  0  0  0  0  0  0  0  0  0  0  0
   -5.0831    7.0409  -23.5856 O   0  0  0  0  0  0  0  0  0  0  0  0
   -3.9217    6.3694  -23.8064 C   0  0  0  0  0  0  0  0  0  0  0  0
   -3.5037    6.0471  -24.9133 O   0  0  0  0  0  0  0  0  0  0  0  0
   -3.2024    6.0167  -22.5244 C   0  0  1  0  0  0  0  0  0  0  0  0
   -3.2716    7.1399  -21.4849 C   0  0  0  0  0  0  0  0  0  0  0  0
   -3.6659    4.6374  -22.0432 C   0  0  0  0  0  0  0  0  0  0  0  0
   -4.6183    4.6951  -20.9701 N   0  0  0  0  0  0  0  0  0  0  0  0
   -6.0049    4.0307  -20.8220 C   0  0  0  0  0  0  0  0  0  0  0  0
   -6.5575    3.2710  -21.5150 O   0  0  0  0  0  0  0  0  0  0  0  0
   -6.7032    4.6278  -19.5648 C   0  0  0  0  0  0  0  0  0  0  0  0
   -6.1645    4.4191  -18.2719 N   0  0  0  0  0  0  0  0  0  0  0  0
   -4.9499    4.9982  -17.9109 C   0  0  0  0  0  0  0  0  0  0  0  0
   -4.1525    5.4663  -18.7111 O   0  0  0  0  0  0  0  0  0  0  0  0
   -4.8706    5.0099  -16.4968 N   0  0  0  0  0  0  0  0  0  0  0  0
   -3.7472    5.4143  -15.7877 C   0  0  0  0  0  0  0  0  0  0  0  0
   -3.4866    4.9807  -14.5379 C   0  0  0  0  0  0  0  0  0  0  0  0
   -2.2861    5.3709  -13.7243 C   0  0  0  0  0  0  0  0  0  0  0  0
   -1.2069    6.0959  -14.5223 C   0  0  0  0  0  0  0  0  0  0  0  0
   -1.8265    7.0791  -15.5030 C   0  0  0  0  0  0  0  0  0  0  0  0
   -2.7743    6.3620  -16.4689 C   0  0  0  0  0  0  0  0  0  0  0  0
   -6.1585    4.6442  -16.0288 C   0  0  0  0  0  0  0  0  0  0  0  0
   -6.7019    4.6970  -14.7613 C   0  0  0  0  0  0  0  0  0  0  0  0
   -8.0536    4.3858  -14.6155 C   0  0  0  0  0  0  0  0  0  0  0  0
   -8.8394    4.0729  -15.7335 C   0  0  0  0  0  0  0  0  0  0  0  0
   -8.3033    4.0560  -17.0132 C   0  0  0  0  0  0  0  0  0  0  0  0
   -6.9572    4.3294  -17.1277 C   0  0  0  0  0  0  0  0  0  0  0  0
  1  2  1  0
  2  3  1  0
  3  4  2  0
  3  5  1  0
  5  6  1  1
  5  7  1  0
  7  8  1  0
  8  9  1  0
  9 10  2  0
  9 11  1  0
 11 12  1  0
 12 13  1  0
 13 14  2  0
 13 15  1  0
 15 16  1  0
 16 17  2  0
 17 18  1  0
 18 19  1  0
 19 20  1  0
 20 21  1  0
 15 22  1  0
 22 23  2  0
 23 24  1  0
 24 25  2  0
 25 26  1  0
 26 27  2  0
 27 12  1  0
 21 16  1  0
 27 22  1  0
M  END
>  <energy_score>  (4678) 
-21.767042

>  <alias>  (4678) 
JTPFLHJICULJQI-UHFFFAOYSA-N-P8-P8-P268-601530

>  <HIPPO Pose ID>  (4678) 
85427

>  <smiles>  (4678) 
COC(=O)C(C)CNC(=O)Cn1c(=O)n(C2=CCCCC2)c2ccccc21

>  <inchikey>  (4678) 
JTPFLHJICULJQI-UHFFFAOYSA-N

>  <distance_score>  (4678) 
1.740783

>  <ref_mols>  (4678) 
Z0101a,Z4245a

>  <ref_pdb>  (4678) 
Z0089a

>  <HIPPO Compound ID>  (4678) 
146960

>  <name>  (4678) 
JTPFLHJICULJQI-UHFFFAOYSA-N-P8-P8-P268-601530

>  <inspiration_score>  (4678) 
None

$$$$
SNQFXSNYHZNVPM-UHFFFAOYSA-N-P268-P8-P268-601530
     RDKit          3D

 27 30  0  0  0  0  0  0  0  0999 V2000
   -1.7971    6.1632  -20.4858 C   0  0  0  0  0  0  0  0  0  0  0  0
   -2.8189    5.7166  -21.5275 C   0  0  0  0  0  0  0  0  0  0  0  0
   -2.0638    5.3242  -22.8093 C   0  0  0  0  0  0  0  0  0  0  0  0
   -3.6444    4.5356  -20.9849 C   0  0  0  0  0  0  0  0  0  0  0  0
   -5.0292    4.8632  -21.2673 N   0  0  0  0  0  0  0  0  0  0  0  0
   -6.1272    4.2159  -20.7713 C   0  0  0  0  0  0  0  0  0  0  0  0
   -6.6156    3.2608  -21.3746 O   0  0  0  0  0  0  0  0  0  0  0  0
   -6.8261    4.7487  -19.5204 C   0  0  0  0  0  0  0  0  0  0  0  0
   -6.2737    4.5260  -18.2442 N   0  0  0  0  0  0  0  0  0  0  0  0
   -5.1389    5.2545  -17.9022 C   0  0  0  0  0  0  0  0  0  0  0  0
   -4.4630    5.8635  -18.7175 O   0  0  0  0  0  0  0  0  0  0  0  0
   -5.0376    5.2872  -16.4860 N   0  0  0  0  0  0  0  0  0  0  0  0
   -3.9467    5.8290  -15.8093 C   0  0  0  0  0  0  0  0  0  0  0  0
   -2.7295    5.9337  -16.3843 C   0  0  0  0  0  0  0  0  0  0  0  0
   -1.5014    6.4990  -15.7310 C   0  0  0  0  0  0  0  0  0  0  0  0
   -1.6453    6.6892  -14.2261 C   0  0  0  0  0  0  0  0  0  0  0  0
   -3.0162    7.2542  -13.8918 C   0  0  0  0  0  0  0  0  0  0  0  0
   -4.1234    6.3172  -14.3866 C   0  0  0  0  0  0  0  0  0  0  0  0
   -6.2894    4.8154  -16.0051 C   0  0  0  0  0  0  0  0  0  0  0  0
   -6.8157    4.7494  -14.7320 C   0  0  0  0  0  0  0  0  0  0  0  0
   -8.1374    4.3253  -14.5843 C   0  0  0  0  0  0  0  0  0  0  0  0
   -8.9029    3.9636  -15.7002 C   0  0  0  0  0  0  0  0  0  0  0  0
   -8.3633    3.9763  -16.9784 C   0  0  0  0  0  0  0  0  0  0  0  0
   -7.0531    4.3925  -17.0961 C   0  0  0  0  0  0  0  0  0  0  0  0
   -5.1230    5.9891  -22.1626 C   0  0  0  0  0  0  0  0  0  0  0  0
   -3.8864    6.8080  -21.7906 C   0  0  2  0  0  0  0  0  0  0  0  0
   -3.5303    7.7500  -22.7926 O   0  0  0  0  0  0  0  0  0  0  0  0
  1  2  1  0
  2  3  1  0
  2  4  1  0
  4  5  1  0
  5  6  1  0
  6  7  2  0
  6  8  1  0
  8  9  1  0
  9 10  1  0
 10 11  2  0
 10 12  1  0
 12 13  1  0
 13 14  2  0
 14 15  1  0
 15 16  1  0
 16 17  1  0
 17 18  1  0
 12 19  1  0
 19 20  2  0
 20 21  1  0
 21 22  2  0
 22 23  1  0
 23 24  2  0
  5 25  1  0
 25 26  1  0
 26 27  1  6
 26  2  1  0
 24  9  1  0
 18 13  1  0
 24 19  1  0
M  END
>  <energy_score>  (4679) 
-8.417714

>  <alias>  (4679) 
SNQFXSNYHZNVPM-UHFFFAOYSA-N-P268-P8-P268-601530

>  <HIPPO Pose ID>  (4679) 
85430

>  <smiles>  (4679) 
CC1(C)CN(C(=O)Cn2c(=O)n(C3=CCCCC3)c3ccccc32)CC1O

>  <inchikey>  (4679) 
SNQFXSNYHZNVPM-UHFFFAOYSA-N

>  <distance_score>  (4679) 
1.663396

>  <ref_mols>  (4679) 
Z0101a,Z4245a

>  <ref_pdb>  (4679) 
Z0089a

>  <HIPPO Compound ID>  (4679) 
146962

>  <name>  (4679) 
SNQFXSNYHZNVPM-UHFFFAOYSA-N-P268-P8-P268-601530

>  <inspiration_score>  (4679) 
None

$$$$
HSHOQBFMCSUSIA-UHFFFAOYSA-N-P8-P8-P268-601530
     RDKit          3D

 27 30  0  0  0  0  0  0  0  0999 V2000
   -5.5040    8.1636  -19.3662 O   0  0  0  0  0  0  0  0  0  0  0  0
   -5.7386    7.0695  -19.6942 C   0  0  0  0  0  0  0  0  0  0  0  0
   -6.6580    6.1585  -18.8623 C   0  0  0  0  0  0  0  0  0  0  0  0
   -6.4113    4.7321  -18.6752 N   0  0  0  0  0  0  0  0  0  0  0  0
   -5.0598    4.5649  -18.2963 C   0  0  0  0  0  0  0  0  0  0  0  0
   -4.1710    4.4856  -19.1332 O   0  0  0  0  0  0  0  0  0  0  0  0
   -4.9916    4.5849  -16.8686 N   0  0  0  0  0  0  0  0  0  0  0  0
   -3.8844    5.0194  -16.1358 C   0  0  0  0  0  0  0  0  0  0  0  0
   -2.8799    5.7165  -16.7055 C   0  0  0  0  0  0  0  0  0  0  0  0
   -1.7310    6.3545  -15.9765 C   0  0  0  0  0  0  0  0  0  0  0  0
   -1.9388    6.4313  -14.4692 C   0  0  0  0  0  0  0  0  0  0  0  0
   -2.5236    5.1306  -13.9464 C   0  0  0  0  0  0  0  0  0  0  0  0
   -3.8561    4.8128  -14.6343 C   0  0  0  0  0  0  0  0  0  0  0  0
   -6.3137    4.3219  -16.4205 C   0  0  0  0  0  0  0  0  0  0  0  0
   -6.8614    4.1800  -15.1641 C   0  0  0  0  0  0  0  0  0  0  0  0
   -8.2443    4.0168  -15.0644 C   0  0  0  0  0  0  0  0  0  0  0  0
   -9.0561    3.9890  -16.2094 C   0  0  0  0  0  0  0  0  0  0  0  0
   -8.5169    4.1550  -17.4743 C   0  0  0  0  0  0  0  0  0  0  0  0
   -7.1503    4.3190  -17.5404 C   0  0  0  0  0  0  0  0  0  0  0  0
   -5.3237    6.2981  -20.9530 N   0  0  0  0  0  0  0  0  0  0  0  0
   -4.4575    6.6714  -22.0296 C   0  0  0  0  0  0  0  0  0  0  0  0
   -3.1990    5.8258  -21.8721 C   0  0  0  0  0  0  0  0  0  0  0  0
   -2.3439    6.2311  -20.6803 C   0  0  0  0  0  0  0  0  0  0  0  0
   -1.7992    5.1215  -19.9885 O   0  0  0  0  0  0  0  0  0  0  0  0
   -2.4034    5.8034  -23.1969 C   0  0  0  0  0  0  0  0  0  0  0  0
   -3.1990    4.6663  -23.6464 O   0  0  0  0  0  0  0  0  0  0  0  0
   -3.4418    4.3411  -22.2411 C   0  0  0  0  0  0  0  0  0  0  0  0
  1  2  2  0
  2  3  1  0
  3  4  1  0
  4  5  1  0
  5  6  2  0
  5  7  1  0
  7  8  1  0
  8  9  2  0
  9 10  1  0
 10 11  1  0
 11 12  1  0
 12 13  1  0
  7 14  1  0
 14 15  2  0
 15 16  1  0
 16 17  2  0
 17 18  1  0
 18 19  2  0
  2 20  1  0
 20 21  1  0
 21 22  1  0
 22 23  1  0
 23 24  1  0
 22 25  1  0
 25 26  1  0
 26 27  1  0
 19  4  1  0
 27 22  1  0
 13  8  1  0
 19 14  1  0
M  END
>  <energy_score>  (4680) 
-6.574355

>  <alias>  (4680) 
HSHOQBFMCSUSIA-UHFFFAOYSA-N-P8-P8-P268-601530

>  <HIPPO Pose ID>  (4680) 
85461

>  <smiles>  (4680) 
O=C(Cn1c(=O)n(C2=CCCCC2)c2ccccc21)NCC1(CO)COC1

>  <inchikey>  (4680) 
HSHOQBFMCSUSIA-UHFFFAOYSA-N

>  <distance_score>  (4680) 
1.518158

>  <ref_mols>  (4680) 
Z0101a,Z4245a

>  <ref_pdb>  (4680) 
Z0089a

>  <HIPPO Compound ID>  (4680) 
146978

>  <name>  (4680) 
HSHOQBFMCSUSIA-UHFFFAOYSA-N-P8-P8-P268-601530

>  <inspiration_score>  (4680) 
None

$$$$
LBCPKHBQJDABIQ-UHFFFAOYSA-N-P8-P8-P268-601530
     RDKit          3D

 27 30  0  0  0  0  0  0  0  0999 V2000
   -2.3153    5.9451  -20.1336 C   0  0  0  0  0  0  0  0  0  0  0  0
   -2.5118    6.4087  -21.5606 C   0  0  0  0  0  0  0  0  0  0  0  0
   -2.7840    7.9137  -21.5552 C   0  0  0  0  0  0  0  0  0  0  0  0
   -1.2726    6.1948  -22.2556 O   0  0  0  0  0  0  0  0  0  0  0  0
   -3.6019    5.7210  -22.3683 C   0  0  0  0  0  0  0  0  0  0  0  0
   -5.0493    5.8267  -21.9925 C   0  0  0  0  0  0  0  0  0  0  0  0
   -4.8859    4.5780  -21.0947 N   0  0  0  0  0  0  0  0  0  0  0  0
   -6.2263    3.9403  -20.7815 C   0  0  0  0  0  0  0  0  0  0  0  0
   -6.8258    3.1008  -21.3569 O   0  0  0  0  0  0  0  0  0  0  0  0
   -6.8052    4.6043  -19.5126 C   0  0  0  0  0  0  0  0  0  0  0  0
   -6.3362    4.1883  -18.2414 N   0  0  0  0  0  0  0  0  0  0  0  0
   -5.0155    4.4348  -17.8857 C   0  0  0  0  0  0  0  0  0  0  0  0
   -4.0778    4.3979  -18.6601 O   0  0  0  0  0  0  0  0  0  0  0  0
   -4.9729    4.7046  -16.4940 N   0  0  0  0  0  0  0  0  0  0  0  0
   -3.8330    5.1145  -15.8214 C   0  0  0  0  0  0  0  0  0  0  0  0
   -3.5894    4.7933  -14.5360 C   0  0  0  0  0  0  0  0  0  0  0  0
   -2.3992    5.2595  -13.7482 C   0  0  0  0  0  0  0  0  0  0  0  0
   -1.3329    5.9650  -14.5827 C   0  0  0  0  0  0  0  0  0  0  0  0
   -1.9621    6.8373  -15.6591 C   0  0  0  0  0  0  0  0  0  0  0  0
   -2.8685    6.0094  -16.5742 C   0  0  0  0  0  0  0  0  0  0  0  0
   -6.2932    4.5618  -16.0154 C   0  0  0  0  0  0  0  0  0  0  0  0
   -6.8181    4.7304  -14.7530 C   0  0  0  0  0  0  0  0  0  0  0  0
   -8.1774    4.4855  -14.5847 C   0  0  0  0  0  0  0  0  0  0  0  0
   -8.9797    4.1442  -15.6836 C   0  0  0  0  0  0  0  0  0  0  0  0
   -8.4750    4.0797  -16.9710 C   0  0  0  0  0  0  0  0  0  0  0  0
   -7.1223    4.2722  -17.0980 C   0  0  0  0  0  0  0  0  0  0  0  0
   -3.8761    4.2652  -22.1687 C   0  0  0  0  0  0  0  0  0  0  0  0
  1  2  1  0
  2  3  1  0
  2  4  1  0
  2  5  1  0
  5  6  1  0
  6  7  1  0
  7  8  1  0
  8  9  2  0
  8 10  1  0
 10 11  1  0
 11 12  1  0
 12 13  2  0
 12 14  1  0
 14 15  1  0
 15 16  2  0
 16 17  1  0
 17 18  1  0
 18 19  1  0
 19 20  1  0
 14 21  1  0
 21 22  2  0
 22 23  1  0
 23 24  2  0
 24 25  1  0
 25 26  2  0
  7 27  1  0
 27  5  1  0
 26 11  1  0
 20 15  1  0
 26 21  1  0
M  END
>  <energy_score>  (4681) 
-4.603224

>  <alias>  (4681) 
LBCPKHBQJDABIQ-UHFFFAOYSA-N-P8-P8-P268-601530

>  <HIPPO Pose ID>  (4681) 
85479

>  <smiles>  (4681) 
CC(C)(O)C1CN(C(=O)Cn2c(=O)n(C3=CCCCC3)c3ccccc32)C1

>  <inchikey>  (4681) 
LBCPKHBQJDABIQ-UHFFFAOYSA-N

>  <distance_score>  (4681) 
1.615961

>  <ref_mols>  (4681) 
Z0101a,Z4245a

>  <ref_pdb>  (4681) 
Z0089a

>  <HIPPO Compound ID>  (4681) 
146987

>  <name>  (4681) 
LBCPKHBQJDABIQ-UHFFFAOYSA-N-P8-P8-P268-601530

>  <inspiration_score>  (4681) 
None

$$$$
OGZUPTGVBUJQJZ-UHFFFAOYSA-N-P268-P8-P268-601530
     RDKit          3D

 27 29  0  0  0  0  0  0  0  0999 V2000
   -1.4204    8.9935  -20.3161 C   0  0  0  0  0  0  0  0  0  0  0  0
   -1.6145    7.8193  -21.0917 O   0  0  0  0  0  0  0  0  0  0  0  0
   -2.9844    7.3945  -21.0652 C   0  0  0  0  0  0  0  0  0  0  0  0
   -3.0991    6.0573  -21.8042 C   0  0  1  0  0  0  0  0  0  0  0  0
   -2.3056    4.9700  -21.0655 C   0  0  0  0  0  0  0  0  0  0  0  0
   -4.5425    5.6373  -22.1335 C   0  0  2  0  0  0  0  0  0  0  0  0
   -5.1493    6.4823  -23.2470 C   0  0  0  0  0  0  0  0  0  0  0  0
   -5.4021    5.6109  -20.9884 N   0  0  0  0  0  0  0  0  0  0  0  0
   -5.9663    6.7663  -20.1287 C   0  0  0  0  0  0  0  0  0  0  0  0
   -5.8812    7.9247  -20.2659 O   0  0  0  0  0  0  0  0  0  0  0  0
   -6.7779    6.1547  -18.9690 C   0  0  0  0  0  0  0  0  0  0  0  0
   -6.5020    4.7916  -18.5230 N   0  0  0  0  0  0  0  0  0  0  0  0
   -5.1438    4.7441  -18.1185 C   0  0  0  0  0  0  0  0  0  0  0  0
   -4.2467    4.5903  -18.9288 O   0  0  0  0  0  0  0  0  0  0  0  0
   -5.0786    4.9657  -16.7152 N   0  0  0  0  0  0  0  0  0  0  0  0
   -3.9272    5.4172  -16.0637 C   0  0  0  0  0  0  0  0  0  0  0  0
   -3.9049    5.8074  -14.7731 C   0  0  0  0  0  0  0  0  0  0  0  0
   -2.6911    6.2842  -14.0276 C   0  0  0  0  0  0  0  0  0  0  0  0
   -1.3849    5.9893  -14.7490 C   0  0  0  0  0  0  0  0  0  0  0  0
   -1.5088    6.3396  -16.2202 C   0  0  0  0  0  0  0  0  0  0  0  0
   -2.6567    5.5782  -16.8932 C   0  0  0  0  0  0  0  0  0  0  0  0
   -6.3825    4.6836  -16.2361 C   0  0  0  0  0  0  0  0  0  0  0  0
   -6.8887    4.5194  -14.9655 C   0  0  0  0  0  0  0  0  0  0  0  0
   -8.2402    4.1964  -14.8334 C   0  0  0  0  0  0  0  0  0  0  0  0
   -9.0546    4.0334  -15.9640 C   0  0  0  0  0  0  0  0  0  0  0  0
   -8.5550    4.1986  -17.2464 C   0  0  0  0  0  0  0  0  0  0  0  0
   -7.2207    4.5189  -17.3410 C   0  0  0  0  0  0  0  0  0  0  0  0
  1  2  1  0
  2  3  1  0
  3  4  1  0
  4  5  1  1
  4  6  1  0
  6  7  1  6
  6  8  1  0
  8  9  1  0
  9 10  2  0
  9 11  1  0
 11 12  1  0
 12 13  1  0
 13 14  2  0
 13 15  1  0
 15 16  1  0
 16 17  2  0
 17 18  1  0
 18 19  1  0
 19 20  1  0
 20 21  1  0
 15 22  1  0
 22 23  2  0
 23 24  1  0
 24 25  2  0
 25 26  1  0
 26 27  2  0
 27 12  1  0
 21 16  1  0
 27 22  1  0
M  END
>  <energy_score>  (4682) 
-1.420709

>  <alias>  (4682) 
OGZUPTGVBUJQJZ-UHFFFAOYSA-N-P268-P8-P268-601530

>  <HIPPO Pose ID>  (4682) 
85492

>  <smiles>  (4682) 
COCC(C)C(C)NC(=O)Cn1c(=O)n(C2=CCCCC2)c2ccccc21

>  <inchikey>  (4682) 
OGZUPTGVBUJQJZ-UHFFFAOYSA-N

>  <distance_score>  (4682) 
1.38725

>  <ref_mols>  (4682) 
Z0101a,Z4245a

>  <ref_pdb>  (4682) 
Z0089a

>  <HIPPO Compound ID>  (4682) 
146993

>  <name>  (4682) 
OGZUPTGVBUJQJZ-UHFFFAOYSA-N-P268-P8-P268-601530

>  <inspiration_score>  (4682) 
None

$$$$
IAAISCWXLRFBBS-UHFFFAOYSA-N-P8-P8-P268-601530
     RDKit          3D

 27 29  0  0  0  0  0  0  0  0999 V2000
   -2.4270    7.7213  -22.4718 C   0  0  0  0  0  0  0  0  0  0  0  0
   -3.1405    6.5135  -21.8056 C   0  0  0  0  0  0  0  0  0  0  0  0
   -3.3621    5.4489  -22.8946 C   0  0  0  0  0  0  0  0  0  0  0  0
   -4.5110    5.7464  -23.6813 O   0  0  0  0  0  0  0  0  0  0  0  0
   -2.2006    5.9199  -20.7450 C   0  0  0  0  0  0  0  0  0  0  0  0
   -1.9431    6.8528  -19.6976 O   0  0  0  0  0  0  0  0  0  0  0  0
   -4.4468    7.0792  -21.2226 C   0  0  0  0  0  0  0  0  0  0  0  0
   -5.2614    6.1495  -20.5002 N   0  0  0  0  0  0  0  0  0  0  0  0
   -5.7600    4.7290  -20.8893 C   0  0  0  0  0  0  0  0  0  0  0  0
   -5.6456    4.1323  -21.8913 O   0  0  0  0  0  0  0  0  0  0  0  0
   -6.5997    4.1630  -19.7324 C   0  0  0  0  0  0  0  0  0  0  0  0
   -6.3389    4.6912  -18.4408 N   0  0  0  0  0  0  0  0  0  0  0  0
   -5.0283    4.6669  -17.9509 C   0  0  0  0  0  0  0  0  0  0  0  0
   -4.0597    4.4197  -18.6527 O   0  0  0  0  0  0  0  0  0  0  0  0
   -5.0858    4.9506  -16.5587 N   0  0  0  0  0  0  0  0  0  0  0  0
   -3.9779    5.2932  -15.7899 C   0  0  0  0  0  0  0  0  0  0  0  0
   -2.8841    5.8576  -16.3419 C   0  0  0  0  0  0  0  0  0  0  0  0
   -1.6764    6.3385  -15.5896 C   0  0  0  0  0  0  0  0  0  0  0  0
   -1.8725    6.3762  -14.0782 C   0  0  0  0  0  0  0  0  0  0  0  0
   -2.6417    5.1526  -13.6073 C   0  0  0  0  0  0  0  0  0  0  0  0
   -4.0107    5.0778  -14.2920 C   0  0  0  0  0  0  0  0  0  0  0  0
   -6.4435    4.7599  -16.1896 C   0  0  0  0  0  0  0  0  0  0  0  0
   -7.0555    4.7053  -14.9571 C   0  0  0  0  0  0  0  0  0  0  0  0
   -8.4037    4.3558  -14.9159 C   0  0  0  0  0  0  0  0  0  0  0  0
   -9.1180    4.1000  -16.0958 C   0  0  0  0  0  0  0  0  0  0  0  0
   -8.5265    4.2238  -17.3419 C   0  0  0  0  0  0  0  0  0  0  0  0
   -7.1934    4.5599  -17.3540 C   0  0  0  0  0  0  0  0  0  0  0  0
  1  2  1  0
  2  3  1  0
  3  4  1  0
  2  5  1  0
  5  6  1  0
  2  7  1  0
  7  8  1  0
  8  9  1  0
  9 10  2  0
  9 11  1  0
 11 12  1  0
 12 13  1  0
 13 14  2  0
 13 15  1  0
 15 16  1  0
 16 17  2  0
 17 18  1  0
 18 19  1  0
 19 20  1  0
 20 21  1  0
 15 22  1  0
 22 23  2  0
 23 24  1  0
 24 25  2  0
 25 26  1  0
 26 27  2  0
 27 12  1  0
 21 16  1  0
 27 22  1  0
M  END
>  <energy_score>  (4683) 
-26.264378

>  <alias>  (4683) 
IAAISCWXLRFBBS-UHFFFAOYSA-N-P8-P8-P268-601530

>  <HIPPO Pose ID>  (4683) 
85493

>  <smiles>  (4683) 
CC(CO)(CO)CNC(=O)Cn1c(=O)n(C2=CCCCC2)c2ccccc21

>  <inchikey>  (4683) 
IAAISCWXLRFBBS-UHFFFAOYSA-N

>  <distance_score>  (4683) 
1.546714

>  <ref_mols>  (4683) 
Z0101a,Z4245a

>  <ref_pdb>  (4683) 
Z0089a

>  <HIPPO Compound ID>  (4683) 
146994

>  <name>  (4683) 
IAAISCWXLRFBBS-UHFFFAOYSA-N-P8-P8-P268-601530

>  <inspiration_score>  (4683) 
None

$$$$
BCYWFRJEFREKSS-UHFFFAOYSA-N-P8-P8-P268-601530
     RDKit          3D

 27 30  0  0  0  0  0  0  0  0999 V2000
   -4.2794    8.7406  -19.2964 C   0  0  0  0  0  0  0  0  0  0  0  0
   -4.4613    7.6959  -20.2398 O   0  0  0  0  0  0  0  0  0  0  0  0
   -3.2066    7.1307  -20.6449 C   0  0  0  0  0  0  0  0  0  0  0  0
   -3.3752    5.9968  -21.6707 C   0  0  0  0  0  0  0  0  0  0  0  0
   -2.2230    6.0081  -22.6564 C   0  0  0  0  0  0  0  0  0  0  0  0
   -4.8301    5.8687  -22.2738 C   0  0  0  0  0  0  0  0  0  0  0  0
   -4.9147    4.7731  -21.3624 N   0  0  0  0  0  0  0  0  0  0  0  0
   -6.0064    4.1588  -20.8293 C   0  0  0  0  0  0  0  0  0  0  0  0
   -6.5214    3.1975  -21.4068 O   0  0  0  0  0  0  0  0  0  0  0  0
   -6.6335    4.7651  -19.5656 C   0  0  0  0  0  0  0  0  0  0  0  0
   -6.1915    4.3944  -18.2740 N   0  0  0  0  0  0  0  0  0  0  0  0
   -4.9582    4.8422  -17.8258 C   0  0  0  0  0  0  0  0  0  0  0  0
   -4.0608    5.2199  -18.5546 O   0  0  0  0  0  0  0  0  0  0  0  0
   -4.9664    4.8284  -16.4088 N   0  0  0  0  0  0  0  0  0  0  0  0
   -3.8719    5.1609  -15.6224 C   0  0  0  0  0  0  0  0  0  0  0  0
   -3.6997    4.6750  -14.3772 C   0  0  0  0  0  0  0  0  0  0  0  0
   -2.5459    5.0100  -13.4759 C   0  0  0  0  0  0  0  0  0  0  0  0
   -1.4086    5.7524  -14.1719 C   0  0  0  0  0  0  0  0  0  0  0  0
   -1.9490    6.7792  -15.1543 C   0  0  0  0  0  0  0  0  0  0  0  0
   -2.8436    6.1135  -16.2035 C   0  0  0  0  0  0  0  0  0  0  0  0
   -6.2953    4.5289  -16.0256 C   0  0  0  0  0  0  0  0  0  0  0  0
   -6.9008    4.5633  -14.7875 C   0  0  0  0  0  0  0  0  0  0  0  0
   -8.2654    4.2938  -14.7255 C   0  0  0  0  0  0  0  0  0  0  0  0
   -8.9982    4.0366  -15.8943 C   0  0  0  0  0  0  0  0  0  0  0  0
   -8.4008    4.0569  -17.1449 C   0  0  0  0  0  0  0  0  0  0  0  0
   -7.0458    4.2953  -17.1774 C   0  0  0  0  0  0  0  0  0  0  0  0
   -3.5310    4.5084  -21.1718 C   0  0  0  0  0  0  0  0  0  0  0  0
  1  2  1  0
  2  3  1  0
  3  4  1  0
  4  5  1  0
  4  6  1  0
  6  7  1  0
  7  8  1  0
  8  9  2  0
  8 10  1  0
 10 11  1  0
 11 12  1  0
 12 13  2  0
 12 14  1  0
 14 15  1  0
 15 16  2  0
 16 17  1  0
 17 18  1  0
 18 19  1  0
 19 20  1  0
 14 21  1  0
 21 22  2  0
 22 23  1  0
 23 24  2  0
 24 25  1  0
 25 26  2  0
  7 27  1  0
 27  4  1  0
 26 11  1  0
 20 15  1  0
 26 21  1  0
M  END
>  <energy_score>  (4684) 
-9.585637

>  <alias>  (4684) 
BCYWFRJEFREKSS-UHFFFAOYSA-N-P8-P8-P268-601530

>  <HIPPO Pose ID>  (4684) 
85497

>  <smiles>  (4684) 
COCC1(C)CN(C(=O)Cn2c(=O)n(C3=CCCCC3)c3ccccc32)C1

>  <inchikey>  (4684) 
BCYWFRJEFREKSS-UHFFFAOYSA-N

>  <distance_score>  (4684) 
1.793498

>  <ref_mols>  (4684) 
Z0101a,Z4245a

>  <ref_pdb>  (4684) 
Z0089a

>  <HIPPO Compound ID>  (4684) 
146996

>  <name>  (4684) 
BCYWFRJEFREKSS-UHFFFAOYSA-N-P8-P8-P268-601530

>  <inspiration_score>  (4684) 
None

$$$$
FCOWSBLWCYFBPD-UHFFFAOYSA-N-P268-P8-P268-601530
     RDKit          3D

 27 30  0  0  0  0  0  0  0  0999 V2000
   -3.0160    7.2105  -21.1879 C   0  0  0  0  0  0  0  0  0  0  0  0
   -3.2992    5.9714  -22.0490 C   0  0  0  0  0  0  0  0  0  0  0  0
   -2.4248    4.8114  -21.5738 C   0  0  0  0  0  0  0  0  0  0  0  0
   -2.9981    6.2632  -23.5209 C   0  0  0  0  0  0  0  0  0  0  0  0
   -4.1935    6.7574  -24.1436 O   0  0  0  0  0  0  0  0  0  0  0  0
   -5.2756    6.6008  -23.2240 C   0  0  0  0  0  0  0  0  0  0  0  0
   -4.7772    5.6263  -22.1714 C   0  0  2  0  0  0  0  0  0  0  0  0
   -5.5385    5.6107  -20.9761 N   0  0  0  0  0  0  0  0  0  0  0  0
   -6.0072    6.7698  -20.0702 C   0  0  0  0  0  0  0  0  0  0  0  0
   -5.9062    7.9258  -20.2062 O   0  0  0  0  0  0  0  0  0  0  0  0
   -6.7894    6.1506  -18.9024 C   0  0  0  0  0  0  0  0  0  0  0  0
   -6.4658    4.7919  -18.4726 N   0  0  0  0  0  0  0  0  0  0  0  0
   -5.0952    4.7717  -18.1106 C   0  0  0  0  0  0  0  0  0  0  0  0
   -4.2237    4.6529  -18.9580 O   0  0  0  0  0  0  0  0  0  0  0  0
   -4.9911    4.9435  -16.7022 N   0  0  0  0  0  0  0  0  0  0  0  0
   -3.8180    5.3370  -16.0514 C   0  0  0  0  0  0  0  0  0  0  0  0
   -2.7446    5.8112  -16.7211 C   0  0  0  0  0  0  0  0  0  0  0  0
   -1.4924    6.3579  -16.0955 C   0  0  0  0  0  0  0  0  0  0  0  0
   -1.6252    6.6199  -14.6012 C   0  0  0  0  0  0  0  0  0  0  0  0
   -2.3636    5.4760  -13.9298 C   0  0  0  0  0  0  0  0  0  0  0  0
   -3.7587    5.2924  -14.5369 C   0  0  0  0  0  0  0  0  0  0  0  0
   -6.2917    4.6799  -16.1923 C   0  0  0  0  0  0  0  0  0  0  0  0
   -6.7997    4.6108  -14.9128 C   0  0  0  0  0  0  0  0  0  0  0  0
   -8.1498    4.2831  -14.7538 C   0  0  0  0  0  0  0  0  0  0  0  0
   -8.9739    4.0573  -15.8659 C   0  0  0  0  0  0  0  0  0  0  0  0
   -8.4876    4.1840  -17.1571 C   0  0  0  0  0  0  0  0  0  0  0  0
   -7.1515    4.4967  -17.2777 C   0  0  0  0  0  0  0  0  0  0  0  0
  1  2  1  0
  2  3  1  0
  2  4  1  0
  4  5  1  0
  5  6  1  0
  6  7  1  0
  7  8  1  1
  8  9  1  0
  9 10  2  0
  9 11  1  0
 11 12  1  0
 12 13  1  0
 13 14  2  0
 13 15  1  0
 15 16  1  0
 16 17  2  0
 17 18  1  0
 18 19  1  0
 19 20  1  0
 20 21  1  0
 15 22  1  0
 22 23  2  0
 23 24  1  0
 24 25  2  0
 25 26  1  0
 26 27  2  0
  7  2  1  0
 27 12  1  0
 21 16  1  0
 27 22  1  0
M  END
>  <energy_score>  (4685) 
-3.674494

>  <alias>  (4685) 
FCOWSBLWCYFBPD-UHFFFAOYSA-N-P268-P8-P268-601530

>  <HIPPO Pose ID>  (4685) 
85500

>  <smiles>  (4685) 
CC1(C)COCC1NC(=O)Cn1c(=O)n(C2=CCCCC2)c2ccccc21

>  <inchikey>  (4685) 
FCOWSBLWCYFBPD-UHFFFAOYSA-N

>  <distance_score>  (4685) 
1.689333

>  <ref_mols>  (4685) 
Z0101a,Z4245a

>  <ref_pdb>  (4685) 
Z0089a

>  <HIPPO Compound ID>  (4685) 
146997

>  <name>  (4685) 
FCOWSBLWCYFBPD-UHFFFAOYSA-N-P268-P8-P268-601530

>  <inspiration_score>  (4685) 
None

$$$$
TWPLWRSMQPLDRY-UHFFFAOYSA-N-P8-P8-P268-601530
     RDKit          3D

 27 29  0  0  0  0  0  0  0  0999 V2000
   -3.2981    6.9759  -24.3511 C   0  0  0  0  0  0  0  0  0  0  0  0
   -2.5824    6.8613  -23.1289 O   0  0  0  0  0  0  0  0  0  0  0  0
   -3.2539    6.1817  -22.0331 C   0  0  2  0  0  0  0  0  0  0  0  0
   -2.1337    5.9109  -21.0182 C   0  0  0  0  0  0  0  0  0  0  0  0
   -3.8812    4.8390  -22.4711 C   0  0  0  0  0  0  0  0  0  0  0  0
   -5.1632    5.0251  -23.0770 O   0  0  0  0  0  0  0  0  0  0  0  0
   -4.2823    7.1484  -21.4341 C   0  0  0  0  0  0  0  0  0  0  0  0
   -5.1006    6.5447  -20.4300 N   0  0  0  0  0  0  0  0  0  0  0  0
   -5.9635    7.1756  -19.3424 C   0  0  0  0  0  0  0  0  0  0  0  0
   -6.0929    8.2915  -19.0325 O   0  0  0  0  0  0  0  0  0  0  0  0
   -6.8226    6.0669  -18.6871 C   0  0  0  0  0  0  0  0  0  0  0  0
   -6.4974    4.6527  -18.5260 N   0  0  0  0  0  0  0  0  0  0  0  0
   -5.1240    4.5065  -18.2605 C   0  0  0  0  0  0  0  0  0  0  0  0
   -4.3077    4.4488  -19.1687 O   0  0  0  0  0  0  0  0  0  0  0  0
   -4.9278    4.5172  -16.8571 N   0  0  0  0  0  0  0  0  0  0  0  0
   -3.7549    4.9600  -16.2579 C   0  0  0  0  0  0  0  0  0  0  0  0
   -3.4171    4.6782  -14.9852 C   0  0  0  0  0  0  0  0  0  0  0  0
   -2.2391    5.2619  -14.2558 C   0  0  0  0  0  0  0  0  0  0  0  0
   -1.2862    6.0769  -15.1264 C   0  0  0  0  0  0  0  0  0  0  0  0
   -2.0340    6.8454  -16.2043 C   0  0  0  0  0  0  0  0  0  0  0  0
   -2.8837    5.9094  -17.0682 C   0  0  0  0  0  0  0  0  0  0  0  0
   -6.2016    4.2746  -16.2848 C   0  0  0  0  0  0  0  0  0  0  0  0
   -6.6384    4.2230  -14.9794 C   0  0  0  0  0  0  0  0  0  0  0  0
   -8.0062    4.0529  -14.7555 C   0  0  0  0  0  0  0  0  0  0  0  0
   -8.9111    3.9742  -15.8268 C   0  0  0  0  0  0  0  0  0  0  0  0
   -8.4887    4.0868  -17.1398 C   0  0  0  0  0  0  0  0  0  0  0  0
   -7.1318    4.2295  -17.3299 C   0  0  0  0  0  0  0  0  0  0  0  0
  1  2  1  0
  2  3  1  0
  3  4  1  1
  3  5  1  0
  5  6  1  0
  3  7  1  0
  7  8  1  0
  8  9  1  0
  9 10  2  0
  9 11  1  0
 11 12  1  0
 12 13  1  0
 13 14  2  0
 13 15  1  0
 15 16  1  0
 16 17  2  0
 17 18  1  0
 18 19  1  0
 19 20  1  0
 20 21  1  0
 15 22  1  0
 22 23  2  0
 23 24  1  0
 24 25  2  0
 25 26  1  0
 26 27  2  0
 27 12  1  0
 21 16  1  0
 27 22  1  0
M  END
>  <energy_score>  (4686) 
-6.118271

>  <alias>  (4686) 
TWPLWRSMQPLDRY-UHFFFAOYSA-N-P8-P8-P268-601530

>  <HIPPO Pose ID>  (4686) 
85503

>  <smiles>  (4686) 
COC(C)(CO)CNC(=O)Cn1c(=O)n(C2=CCCCC2)c2ccccc21

>  <inchikey>  (4686) 
TWPLWRSMQPLDRY-UHFFFAOYSA-N

>  <distance_score>  (4686) 
1.355557

>  <ref_mols>  (4686) 
Z0101a,Z4245a

>  <ref_pdb>  (4686) 
Z0089a

>  <HIPPO Compound ID>  (4686) 
146999

>  <name>  (4686) 
TWPLWRSMQPLDRY-UHFFFAOYSA-N-P8-P8-P268-601530

>  <inspiration_score>  (4686) 
None

$$$$
OFVMKZDGYATAMX-UHFFFAOYSA-N-P268-P8-P268-601530
     RDKit          3D

 27 30  0  0  0  0  0  0  0  0999 V2000
   -3.6466    7.5689  -20.9399 C   0  0  0  0  0  0  0  0  0  0  0  0
   -4.0916    6.4386  -21.8656 C   0  0  1  0  0  0  0  0  0  0  0  0
   -5.1543    5.6996  -21.2275 N   0  0  0  0  0  0  0  0  0  0  0  0
   -5.4814    4.1894  -21.2515 C   0  0  0  0  0  0  0  0  0  0  0  0
   -4.9892    3.3185  -21.8528 O   0  0  0  0  0  0  0  0  0  0  0  0
   -6.5923    3.8906  -20.1961 C   0  0  0  0  0  0  0  0  0  0  0  0
   -6.4021    4.5789  -18.9432 N   0  0  0  0  0  0  0  0  0  0  0  0
   -5.1169    4.7860  -18.4050 C   0  0  0  0  0  0  0  0  0  0  0  0
   -4.0880    4.6854  -19.0543 O   0  0  0  0  0  0  0  0  0  0  0  0
   -5.2636    5.1459  -17.0318 N   0  0  0  0  0  0  0  0  0  0  0  0
   -4.2371    5.6573  -16.2283 C   0  0  0  0  0  0  0  0  0  0  0  0
   -2.9419    5.6917  -16.6098 C   0  0  0  0  0  0  0  0  0  0  0  0
   -1.8077    6.2781  -15.8164 C   0  0  0  0  0  0  0  0  0  0  0  0
   -2.1729    6.6141  -14.3770 C   0  0  0  0  0  0  0  0  0  0  0  0
   -3.5536    7.2436  -14.3211 C   0  0  0  0  0  0  0  0  0  0  0  0
   -4.6022    6.2843  -14.8933 C   0  0  0  0  0  0  0  0  0  0  0  0
   -6.6190    4.8653  -16.7082 C   0  0  0  0  0  0  0  0  0  0  0  0
   -7.2591    4.7898  -15.4863 C   0  0  0  0  0  0  0  0  0  0  0  0
   -8.5980    4.4029  -15.4664 C   0  0  0  0  0  0  0  0  0  0  0  0
   -9.2725    4.1005  -16.6579 C   0  0  0  0  0  0  0  0  0  0  0  0
   -8.6230    4.1380  -17.8862 C   0  0  0  0  0  0  0  0  0  0  0  0
   -7.3004    4.5194  -17.8797 C   0  0  0  0  0  0  0  0  0  0  0  0
   -4.3875    6.9340  -23.2661 C   0  0  0  0  0  0  0  0  0  0  0  0
   -3.1566    7.0657  -24.1397 C   0  0  0  0  0  0  0  0  0  0  0  0
   -2.8006    5.7840  -24.6402 O   0  0  0  0  0  0  0  0  0  0  0  0
   -5.6728    6.5722  -23.9700 C   0  0  0  0  0  0  0  0  0  0  0  0
   -5.4966    7.9629  -23.4509 C   0  0  0  0  0  0  0  0  0  0  0  0
  2  1  1  1
  2  3  1  0
  3  4  1  0
  4  5  2  0
  4  6  1  0
  6  7  1  0
  7  8  1  0
  8  9  2  0
  8 10  1  0
 10 11  1  0
 11 12  2  0
 12 13  1  0
 13 14  1  0
 14 15  1  0
 15 16  1  0
 10 17  1  0
 17 18  2  0
 18 19  1  0
 19 20  2  0
 20 21  1  0
 21 22  2  0
  2 23  1  0
 23 24  1  0
 24 25  1  0
 23 26  1  0
 26 27  1  0
 22  7  1  0
 27 23  1  0
 16 11  1  0
 22 17  1  0
M  END
>  <energy_score>  (4687) 
-19.871359

>  <alias>  (4687) 
OFVMKZDGYATAMX-UHFFFAOYSA-N-P268-P8-P268-601530

>  <HIPPO Pose ID>  (4687) 
85506

>  <smiles>  (4687) 
CC(NC(=O)Cn1c(=O)n(C2=CCCCC2)c2ccccc21)C1(CO)CC1

>  <inchikey>  (4687) 
OFVMKZDGYATAMX-UHFFFAOYSA-N

>  <distance_score>  (4687) 
1.534977

>  <ref_mols>  (4687) 
Z0101a,Z4245a

>  <ref_pdb>  (4687) 
Z0089a

>  <HIPPO Compound ID>  (4687) 
147000

>  <name>  (4687) 
OFVMKZDGYATAMX-UHFFFAOYSA-N-P268-P8-P268-601530

>  <inspiration_score>  (4687) 
None

$$$$
GJNHIZZMVGBNAA-UHFFFAOYSA-N-P91-P7-P91-601530
     RDKit          3D

 16 18  0  0  0  0  0  0  0  0999 V2000
   -1.0254    6.8603  -20.2657 C   0  0  0  0  0  0  0  0  0  0  0  0
   -0.9704    5.7808  -19.2397 C   0  0  2  0  0  0  0  0  0  0  0  0
   -1.6558    4.4656  -19.4915 C   0  0  0  0  0  0  0  0  0  0  0  0
   -2.1720    5.3905  -18.4197 C   0  0  2  0  0  0  0  0  0  0  0  0
   -3.4488    6.0810  -18.6074 N   0  0  0  0  0  0  0  0  0  0  0  0
   -4.5637    5.5949  -17.9243 C   0  0  0  0  0  0  0  0  0  0  0  0
   -4.7418    5.6852  -16.5523 C   0  0  0  0  0  0  0  0  0  0  0  0
   -5.9810    5.3196  -16.0096 C   0  0  0  0  0  0  0  0  0  0  0  0
   -7.0055    4.8668  -16.8612 C   0  0  0  0  0  0  0  0  0  0  0  0
   -8.3279    4.5525  -16.4653 C   0  0  0  0  0  0  0  0  0  0  0  0
   -9.2523    4.1956  -17.4432 C   0  0  0  0  0  0  0  0  0  0  0  0
  -10.5664    3.9753  -17.1985 O   0  0  0  0  0  0  0  0  0  0  0  0
   -8.8745    4.0695  -18.7631 C   0  0  0  0  0  0  0  0  0  0  0  0
   -7.5703    4.3052  -19.1331 C   0  0  0  0  0  0  0  0  0  0  0  0
   -6.6611    4.7553  -18.2214 C   0  0  0  0  0  0  0  0  0  0  0  0
   -5.4925    5.1060  -18.7337 N   0  0  0  0  0  0  0  0  0  0  0  0
  2  1  1  6
  2  3  1  0
  3  4  1  0
  4  5  1  6
  5  6  1  0
  6  7  2  0
  7  8  1  0
  8  9  2  0
  9 10  1  0
 10 11  2  0
 11 12  1  0
 11 13  1  0
 13 14  2  0
 14 15  1  0
 15 16  2  0
  4  2  1  0
 16  6  1  0
 15  9  1  0
M  END
>  <energy_score>  (4688) 
-27.301993

>  <alias>  (4688) 
GJNHIZZMVGBNAA-UHFFFAOYSA-N-P91-P7-P91-601530

>  <HIPPO Pose ID>  (4688) 
85590

>  <smiles>  (4688) 
CC1CC1Nc1ccc2cc(O)ccc2n1

>  <inchikey>  (4688) 
GJNHIZZMVGBNAA-UHFFFAOYSA-N

>  <distance_score>  (4688) 
0.96466

>  <ref_mols>  (4688) 
Z1688a,Z0089a

>  <ref_pdb>  (4688) 
Z0089a

>  <HIPPO Compound ID>  (4688) 
145946

>  <name>  (4688) 
GJNHIZZMVGBNAA-UHFFFAOYSA-N-P91-P7-P91-601530

>  <inspiration_score>  (4688) 
None

$$$$
AFPAQHFOCXRNLM-UHFFFAOYSA-N-P7-P7-P91-601530
     RDKit          3D

 16 18  0  0  0  0  0  0  0  0999 V2000
   -3.5033    6.5665  -16.2893 C   0  0  0  0  0  0  0  0  0  0  0  0
   -4.6628    5.8497  -16.9057 C   0  0  0  0  0  0  0  0  0  0  0  0
   -5.7013    5.4098  -16.0675 C   0  0  0  0  0  0  0  0  0  0  0  0
   -6.8780    4.8824  -16.6138 C   0  0  0  0  0  0  0  0  0  0  0  0
   -7.9829    4.5072  -15.8354 C   0  0  0  0  0  0  0  0  0  0  0  0
   -9.1494    4.0696  -16.4554 C   0  0  0  0  0  0  0  0  0  0  0  0
   -9.2220    3.9820  -17.8376 C   0  0  0  0  0  0  0  0  0  0  0  0
   -8.1080    4.3162  -18.5975 C   0  0  0  0  0  0  0  0  0  0  0  0
   -6.9427    4.7727  -18.0091 C   0  0  0  0  0  0  0  0  0  0  0  0
   -5.9334    5.1326  -18.8031 N   0  0  0  0  0  0  0  0  0  0  0  0
   -4.8220    5.6666  -18.2784 C   0  0  0  0  0  0  0  0  0  0  0  0
   -3.9683    6.1331  -19.2839 N   0  0  0  0  0  0  0  0  0  0  0  0
   -2.6537    5.6889  -19.6290 C   0  0  0  0  0  0  0  0  0  0  0  0
   -2.0148    4.5331  -18.8540 C   0  0  0  0  0  0  0  0  0  0  0  0
   -0.6932    5.3379  -18.8908 C   0  0  0  0  0  0  0  0  0  0  0  0
   -1.5315    6.6086  -19.1235 C   0  0  0  0  0  0  0  0  0  0  0  0
  1  2  1  0
  2  3  2  0
  3  4  1  0
  4  5  2  0
  5  6  1  0
  6  7  2  0
  7  8  1  0
  8  9  2  0
  9 10  1  0
 10 11  2  0
 11 12  1  0
 12 13  1  0
 13 14  1  0
 14 15  1  0
 15 16  1  0
 11  2  1  0
 16 13  1  0
  9  4  1  0
M  END
>  <energy_score>  (4689) 
-14.427242

>  <alias>  (4689) 
AFPAQHFOCXRNLM-UHFFFAOYSA-N-P7-P7-P91-601530

>  <HIPPO Pose ID>  (4689) 
85593

>  <smiles>  (4689) 
Cc1cc2ccccc2nc1NC1CCC1

>  <inchikey>  (4689) 
AFPAQHFOCXRNLM-UHFFFAOYSA-N

>  <distance_score>  (4689) 
1.005177

>  <ref_mols>  (4689) 
Z1688a,Z0089a

>  <ref_pdb>  (4689) 
Z0089a

>  <HIPPO Compound ID>  (4689) 
145948

>  <name>  (4689) 
AFPAQHFOCXRNLM-UHFFFAOYSA-N-P7-P7-P91-601530

>  <inspiration_score>  (4689) 
None

$$$$
OIPOSHVUNJEWMR-UHFFFAOYSA-N-P91-P7-P91-601530
     RDKit          3D

 16 18  0  0  0  0  0  0  0  0999 V2000
   -5.2448    6.0460  -14.9046 C   0  0  0  0  0  0  0  0  0  0  0  0
   -5.5256    5.6721  -16.3269 C   0  0  0  0  0  0  0  0  0  0  0  0
   -4.5431    5.8664  -17.2907 C   0  0  0  0  0  0  0  0  0  0  0  0
   -4.7811    5.4798  -18.6009 C   0  0  0  0  0  0  0  0  0  0  0  0
   -3.7802    5.5522  -19.5697 N   0  0  0  0  0  0  0  0  0  0  0  0
   -2.3935    5.3690  -19.2931 C   0  0  0  0  0  0  0  0  0  0  0  0
   -1.6690    4.5283  -20.3499 C   0  0  0  0  0  0  0  0  0  0  0  0
   -1.2904    5.8348  -21.0731 C   0  0  0  0  0  0  0  0  0  0  0  0
   -1.5528    6.5779  -19.7476 C   0  0  0  0  0  0  0  0  0  0  0  0
   -5.9559    4.9982  -19.0102 N   0  0  0  0  0  0  0  0  0  0  0  0
   -6.9191    4.8198  -18.1022 C   0  0  0  0  0  0  0  0  0  0  0  0
   -8.1301    4.3219  -18.5323 C   0  0  0  0  0  0  0  0  0  0  0  0
   -9.1632    4.0541  -17.6415 C   0  0  0  0  0  0  0  0  0  0  0  0
   -8.9801    4.2677  -16.2898 C   0  0  0  0  0  0  0  0  0  0  0  0
   -7.7910    4.8058  -15.8347 C   0  0  0  0  0  0  0  0  0  0  0  0
   -6.7485    5.1054  -16.7305 C   0  0  0  0  0  0  0  0  0  0  0  0
  1  2  1  0
  2  3  2  0
  3  4  1  0
  4  5  1  0
  5  6  1  0
  6  7  1  0
  7  8  1  0
  8  9  1  0
  4 10  2  0
 10 11  1  0
 11 12  2  0
 12 13  1  0
 13 14  2  0
 14 15  1  0
 15 16  2  0
 16  2  1  0
  9  6  1  0
 16 11  1  0
M  END
>  <energy_score>  (4690) 
-16.619897

>  <alias>  (4690) 
OIPOSHVUNJEWMR-UHFFFAOYSA-N-P91-P7-P91-601530

>  <HIPPO Pose ID>  (4690) 
85596

>  <smiles>  (4690) 
Cc1cc(NC2CCC2)nc2ccccc12

>  <inchikey>  (4690) 
OIPOSHVUNJEWMR-UHFFFAOYSA-N

>  <distance_score>  (4690) 
1.781443

>  <ref_mols>  (4690) 
Z1688a,Z0089a

>  <ref_pdb>  (4690) 
Z0089a

>  <HIPPO Compound ID>  (4690) 
145949

>  <name>  (4690) 
OIPOSHVUNJEWMR-UHFFFAOYSA-N-P91-P7-P91-601530

>  <inspiration_score>  (4690) 
None

$$$$
OMJFJHWRJDMWBF-UHFFFAOYSA-N-P91-P7-P91-601530
     RDKit          3D

 16 18  0  0  0  0  0  0  0  0999 V2000
   -6.3102    5.6187  -15.0007 O   0  0  0  0  0  0  0  0  0  0  0  0
   -7.1342    5.0799  -15.9544 C   0  0  0  0  0  0  0  0  0  0  0  0
   -8.3889    4.6482  -15.5242 C   0  0  0  0  0  0  0  0  0  0  0  0
   -9.2757    4.1211  -16.4447 C   0  0  0  0  0  0  0  0  0  0  0  0
   -8.9311    4.0184  -17.7715 C   0  0  0  0  0  0  0  0  0  0  0  0
   -7.6590    4.4035  -18.1662 C   0  0  0  0  0  0  0  0  0  0  0  0
   -7.3160    4.1640  -19.4710 C   0  0  0  0  0  0  0  0  0  0  0  0
   -6.0548    4.5059  -19.8928 C   0  0  0  0  0  0  0  0  0  0  0  0
   -5.1579    5.1002  -19.0207 C   0  0  0  0  0  0  0  0  0  0  0  0
   -3.8597    5.3258  -19.5433 N   0  0  0  0  0  0  0  0  0  0  0  0
   -2.8644    6.1172  -18.9065 C   0  0  0  0  0  0  0  0  0  0  0  0
   -1.4568    5.7657  -19.4584 C   0  0  0  0  0  0  0  0  0  0  0  0
   -0.9403    5.9822  -18.0219 C   0  0  0  0  0  0  0  0  0  0  0  0
   -2.3605    5.5978  -17.5498 C   0  0  0  0  0  0  0  0  0  0  0  0
   -5.4720    5.3349  -17.7306 N   0  0  0  0  0  0  0  0  0  0  0  0
   -6.7109    4.9702  -17.2876 C   0  0  0  0  0  0  0  0  0  0  0  0
  1  2  1  0
  2  3  2  0
  3  4  1  0
  4  5  2  0
  5  6  1  0
  6  7  2  0
  7  8  1  0
  8  9  2  0
  9 10  1  0
 10 11  1  0
 11 12  1  0
 12 13  1  0
 13 14  1  0
  9 15  1  0
 15 16  2  0
 16  2  1  0
 16  6  1  0
 14 11  1  0
M  END
>  <energy_score>  (4691) 
-8.154258

>  <alias>  (4691) 
OMJFJHWRJDMWBF-UHFFFAOYSA-N-P91-P7-P91-601530

>  <HIPPO Pose ID>  (4691) 
85600

>  <smiles>  (4691) 
Oc1cccc2ccc(NC3CCC3)nc12

>  <inchikey>  (4691) 
OMJFJHWRJDMWBF-UHFFFAOYSA-N

>  <distance_score>  (4691) 
1.032847

>  <ref_mols>  (4691) 
Z1688a,Z0089a

>  <ref_pdb>  (4691) 
Z0089a

>  <HIPPO Compound ID>  (4691) 
145951

>  <name>  (4691) 
OMJFJHWRJDMWBF-UHFFFAOYSA-N-P91-P7-P91-601530

>  <inspiration_score>  (4691) 
None

$$$$
KIVXCWWCFHWSQS-UHFFFAOYSA-N-P7-P7-P91-601530
     RDKit          3D

 16 18  0  0  0  0  0  0  0  0999 V2000
   -3.2384    6.0663  -16.5214 C   0  0  0  0  0  0  0  0  0  0  0  0
   -4.5263    5.5597  -17.0900 C   0  0  0  0  0  0  0  0  0  0  0  0
   -5.5680    5.2445  -16.1960 C   0  0  0  0  0  0  0  0  0  0  0  0
   -6.8144    4.8181  -16.6726 C   0  0  0  0  0  0  0  0  0  0  0  0
   -7.8946    4.5010  -15.8344 C   0  0  0  0  0  0  0  0  0  0  0  0
   -9.1111    4.1120  -16.3882 C   0  0  0  0  0  0  0  0  0  0  0  0
   -9.2653    4.0330  -17.7642 C   0  0  0  0  0  0  0  0  0  0  0  0
   -8.1824    4.3258  -18.5838 C   0  0  0  0  0  0  0  0  0  0  0  0
   -6.9633    4.7182  -18.0600 C   0  0  0  0  0  0  0  0  0  0  0  0
   -5.9737    5.0029  -18.9067 N   0  0  0  0  0  0  0  0  0  0  0  0
   -4.7788    5.4155  -18.4542 C   0  0  0  0  0  0  0  0  0  0  0  0
   -3.9355    5.7229  -19.5199 N   0  0  0  0  0  0  0  0  0  0  0  0
   -2.4789    5.5823  -19.5595 C   0  0  0  0  0  0  0  0  0  0  0  0
   -1.9347    4.1900  -19.3563 C   0  0  0  0  0  0  0  0  0  0  0  0
   -1.6099    6.7717  -19.2139 C   0  0  0  0  0  0  0  0  0  0  0  0
   -1.7654    6.3734  -20.6443 C   0  0  0  0  0  0  0  0  0  0  0  0
  1  2  1  0
  2  3  2  0
  3  4  1  0
  4  5  2  0
  5  6  1  0
  6  7  2  0
  7  8  1  0
  8  9  2  0
  9 10  1  0
 10 11  2  0
 11 12  1  0
 12 13  1  0
 13 14  1  0
 13 15  1  0
 15 16  1  0
 11  2  1  0
 16 13  1  0
  9  4  1  0
M  END
>  <energy_score>  (4692) 
-14.299224

>  <alias>  (4692) 
KIVXCWWCFHWSQS-UHFFFAOYSA-N-P7-P7-P91-601530

>  <HIPPO Pose ID>  (4692) 
85601

>  <smiles>  (4692) 
Cc1cc2ccccc2nc1NC1(C)CC1

>  <inchikey>  (4692) 
KIVXCWWCFHWSQS-UHFFFAOYSA-N

>  <distance_score>  (4692) 
1.037076

>  <ref_mols>  (4692) 
Z1688a,Z0089a

>  <ref_pdb>  (4692) 
Z0089a

>  <HIPPO Compound ID>  (4692) 
145952

>  <name>  (4692) 
KIVXCWWCFHWSQS-UHFFFAOYSA-N-P7-P7-P91-601530

>  <inspiration_score>  (4692) 
None

$$$$
SSCOWULPRAEIDV-UHFFFAOYSA-N-P7-P7-P91-601530
     RDKit          3D

 16 18  0  0  0  0  0  0  0  0999 V2000
   -1.7623    4.1478  -19.5141 C   0  0  0  0  0  0  0  0  0  0  0  0
   -2.3270    5.5294  -19.7277 C   0  0  0  0  0  0  0  0  0  0  0  0
   -3.7838    5.6145  -19.7963 N   0  0  0  0  0  0  0  0  0  0  0  0
   -4.6174    5.3738  -18.7083 C   0  0  0  0  0  0  0  0  0  0  0  0
   -4.2603    5.5806  -17.3838 C   0  0  0  0  0  0  0  0  0  0  0  0
   -5.2043    5.3485  -16.3886 C   0  0  0  0  0  0  0  0  0  0  0  0
   -6.4847    4.9290  -16.7572 C   0  0  0  0  0  0  0  0  0  0  0  0
   -7.4937    4.7180  -15.8243 C   0  0  0  0  0  0  0  0  0  0  0  0
   -8.7561    4.3770  -16.2735 C   0  0  0  0  0  0  0  0  0  0  0  0
   -9.7176    4.3066  -15.3289 O   0  0  0  0  0  0  0  0  0  0  0  0
   -9.0399    4.1788  -17.6152 C   0  0  0  0  0  0  0  0  0  0  0  0
   -8.0179    4.3613  -18.5332 C   0  0  0  0  0  0  0  0  0  0  0  0
   -6.7542    4.7466  -18.1251 C   0  0  0  0  0  0  0  0  0  0  0  0
   -5.8365    4.9564  -19.0624 N   0  0  0  0  0  0  0  0  0  0  0  0
   -1.5508    6.7133  -19.1970 C   0  0  0  0  0  0  0  0  0  0  0  0
   -1.5409    6.4206  -20.6661 C   0  0  0  0  0  0  0  0  0  0  0  0
  1  2  1  0
  2  3  1  0
  3  4  1  0
  4  5  2  0
  5  6  1  0
  6  7  2  0
  7  8  1  0
  8  9  2  0
  9 10  1  0
  9 11  1  0
 11 12  2  0
 12 13  1  0
 13 14  2  0
  2 15  1  0
 15 16  1  0
 16  2  1  0
 14  4  1  0
 13  7  1  0
M  END
>  <energy_score>  (4693) 
-20.488822

>  <alias>  (4693) 
SSCOWULPRAEIDV-UHFFFAOYSA-N-P7-P7-P91-601530

>  <HIPPO Pose ID>  (4693) 
85605

>  <smiles>  (4693) 
CC1(Nc2ccc3cc(O)ccc3n2)CC1

>  <inchikey>  (4693) 
SSCOWULPRAEIDV-UHFFFAOYSA-N

>  <distance_score>  (4693) 
1.186887

>  <ref_mols>  (4693) 
Z1688a,Z0089a

>  <ref_pdb>  (4693) 
Z0089a

>  <HIPPO Compound ID>  (4693) 
145954

>  <name>  (4693) 
SSCOWULPRAEIDV-UHFFFAOYSA-N-P7-P7-P91-601530

>  <inspiration_score>  (4693) 
None

$$$$
OYCHAJAGIJIUQM-UHFFFAOYSA-N-P91-P7-P91-601530
     RDKit          3D

 16 18  0  0  0  0  0  0  0  0999 V2000
   -1.8459    4.4768  -19.0450 C   0  0  0  0  0  0  0  0  0  0  0  0
   -2.6522    5.7266  -18.7905 C   0  0  0  0  0  0  0  0  0  0  0  0
   -3.9228    5.7794  -19.5305 N   0  0  0  0  0  0  0  0  0  0  0  0
   -5.1127    5.2322  -18.9810 C   0  0  0  0  0  0  0  0  0  0  0  0
   -6.0066    4.7002  -19.8955 C   0  0  0  0  0  0  0  0  0  0  0  0
   -7.2313    4.2299  -19.4827 C   0  0  0  0  0  0  0  0  0  0  0  0
   -7.5878    4.3819  -18.1678 C   0  0  0  0  0  0  0  0  0  0  0  0
   -8.8735    3.9957  -17.8121 C   0  0  0  0  0  0  0  0  0  0  0  0
   -9.2587    4.0811  -16.4946 C   0  0  0  0  0  0  0  0  0  0  0  0
   -8.3824    4.5613  -15.5386 C   0  0  0  0  0  0  0  0  0  0  0  0
   -7.1071    4.9784  -15.9249 C   0  0  0  0  0  0  0  0  0  0  0  0
   -6.3010    5.4839  -14.9371 O   0  0  0  0  0  0  0  0  0  0  0  0
   -6.6550    4.9105  -17.2525 C   0  0  0  0  0  0  0  0  0  0  0  0
   -5.4173    5.3141  -17.6670 N   0  0  0  0  0  0  0  0  0  0  0  0
   -1.8754    7.0231  -18.7026 C   0  0  0  0  0  0  0  0  0  0  0  0
   -2.4827    6.4323  -17.4672 C   0  0  0  0  0  0  0  0  0  0  0  0
  1  2  1  0
  2  3  1  0
  3  4  1  0
  4  5  2  0
  5  6  1  0
  6  7  2  0
  7  8  1  0
  8  9  2  0
  9 10  1  0
 10 11  2  0
 11 12  1  0
 11 13  1  0
 13 14  2  0
  2 15  1  0
 15 16  1  0
 16  2  1  0
 14  4  1  0
 13  7  1  0
M  END
>  <energy_score>  (4694) 
-20.815763

>  <alias>  (4694) 
OYCHAJAGIJIUQM-UHFFFAOYSA-N-P91-P7-P91-601530

>  <HIPPO Pose ID>  (4694) 
85608

>  <smiles>  (4694) 
CC1(Nc2ccc3cccc(O)c3n2)CC1

>  <inchikey>  (4694) 
OYCHAJAGIJIUQM-UHFFFAOYSA-N

>  <distance_score>  (4694) 
0.895189

>  <ref_mols>  (4694) 
Z1688a,Z0089a

>  <ref_pdb>  (4694) 
Z0089a

>  <HIPPO Compound ID>  (4694) 
145955

>  <name>  (4694) 
OYCHAJAGIJIUQM-UHFFFAOYSA-N-P91-P7-P91-601530

>  <inspiration_score>  (4694) 
None

$$$$
XJRRXVIYHSMOLK-UHFFFAOYSA-N-P7-P7-P91-601530
     RDKit          3D

 17 18  0  0  0  0  0  0  0  0999 V2000
   -1.6633    3.6215  -19.7206 C   0  0  0  0  0  0  0  0  0  0  0  0
   -1.5886    5.1235  -19.9033 C   0  0  0  0  0  0  0  0  0  0  0  0
   -2.3553    5.8843  -18.8163 C   0  0  1  0  0  0  0  0  0  0  0  0
   -2.1539    7.3961  -18.9187 C   0  0  0  0  0  0  0  0  0  0  0  0
   -2.8278    8.1694  -20.5818 Br  0  0  0  0  0  0  0  0  0  0  0  0
   -3.7512    5.5434  -18.9078 N   0  0  0  0  0  0  0  0  0  0  0  0
   -4.7162    5.3611  -17.9797 C   0  0  0  0  0  0  0  0  0  0  0  0
   -5.8614    5.0486  -18.6005 N   0  0  0  0  0  0  0  0  0  0  0  0
   -6.9533    4.7448  -17.9021 C   0  0  0  0  0  0  0  0  0  0  0  0
   -8.0925    4.3820  -18.5944 C   0  0  0  0  0  0  0  0  0  0  0  0
   -9.2676    4.0562  -17.9323 C   0  0  0  0  0  0  0  0  0  0  0  0
   -9.2875    4.0723  -16.5466 C   0  0  0  0  0  0  0  0  0  0  0  0
   -8.1541    4.4283  -15.8234 C   0  0  0  0  0  0  0  0  0  0  0  0
   -6.9793    4.7728  -16.5044 C   0  0  0  0  0  0  0  0  0  0  0  0
   -5.7967    5.1352  -15.8539 C   0  0  0  0  0  0  0  0  0  0  0  0
   -4.6360    5.4305  -16.5911 C   0  0  0  0  0  0  0  0  0  0  0  0
   -3.3957    5.7544  -15.8182 C   0  0  0  0  0  0  0  0  0  0  0  0
  1  2  1  0
  3  2  1  6
  3  4  1  0
  4  5  1  0
  3  6  1  0
  6  7  1  0
  7  8  2  0
  8  9  1  0
  9 10  2  0
 10 11  1  0
 11 12  2  0
 12 13  1  0
 13 14  2  0
 14 15  1  0
 15 16  2  0
 16 17  1  0
 16  7  1  0
 14  9  1  0
M  END
>  <energy_score>  (4695) 
-13.538897

>  <alias>  (4695) 
XJRRXVIYHSMOLK-UHFFFAOYSA-N-P7-P7-P91-601530

>  <HIPPO Pose ID>  (4695) 
85611

>  <smiles>  (4695) 
CCC(CBr)Nc1nc2ccccc2cc1C

>  <inchikey>  (4695) 
XJRRXVIYHSMOLK-UHFFFAOYSA-N

>  <distance_score>  (4695) 
0.95718

>  <ref_mols>  (4695) 
Z1688a,Z0089a

>  <ref_pdb>  (4695) 
Z0089a

>  <HIPPO Compound ID>  (4695) 
145957

>  <name>  (4695) 
XJRRXVIYHSMOLK-UHFFFAOYSA-N-P7-P7-P91-601530

>  <inspiration_score>  (4695) 
None

$$$$
VPPZXOZXDJSAER-UHFFFAOYSA-N-P7-P7-P91-601530
     RDKit          3D

 17 19  0  0  0  0  0  0  0  0999 V2000
   -4.0846    6.4011  -14.8940 O   0  0  0  0  0  0  0  0  0  0  0  0
   -3.7903    6.1220  -16.2635 C   0  0  0  0  0  0  0  0  0  0  0  0
   -4.9766    5.5817  -16.9841 C   0  0  0  0  0  0  0  0  0  0  0  0
   -6.1507    5.3543  -16.2559 C   0  0  0  0  0  0  0  0  0  0  0  0
   -7.2676    4.8290  -16.8657 C   0  0  0  0  0  0  0  0  0  0  0  0
   -8.3969    4.5389  -16.1034 C   0  0  0  0  0  0  0  0  0  0  0  0
   -9.5087    4.0450  -16.7352 C   0  0  0  0  0  0  0  0  0  0  0  0
   -9.4981    3.8815  -18.1049 C   0  0  0  0  0  0  0  0  0  0  0  0
   -8.3503    4.1430  -18.8468 C   0  0  0  0  0  0  0  0  0  0  0  0
   -7.2055    4.6007  -18.2416 C   0  0  0  0  0  0  0  0  0  0  0  0
   -6.0870    4.7961  -18.9547 N   0  0  0  0  0  0  0  0  0  0  0  0
   -4.9791    5.2438  -18.3341 C   0  0  0  0  0  0  0  0  0  0  0  0
   -3.8718    5.2174  -19.1887 N   0  0  0  0  0  0  0  0  0  0  0  0
   -2.8290    6.1759  -19.3440 C   0  0  0  0  0  0  0  0  0  0  0  0
   -1.8871    5.7514  -20.5080 C   0  0  0  0  0  0  0  0  0  0  0  0
   -0.7177    6.2860  -19.6705 C   0  0  0  0  0  0  0  0  0  0  0  0
   -1.5892    5.9921  -18.4380 C   0  0  0  0  0  0  0  0  0  0  0  0
  1  2  1  0
  2  3  1  0
  3  4  2  0
  4  5  1  0
  5  6  2  0
  6  7  1  0
  7  8  2  0
  8  9  1  0
  9 10  2  0
 10 11  1  0
 11 12  2  0
 12 13  1  0
 13 14  1  0
 14 15  1  0
 15 16  1  0
 16 17  1  0
 12  3  1  0
 17 14  1  0
 10  5  1  0
M  END
>  <energy_score>  (4696) 
-16.09454

>  <alias>  (4696) 
VPPZXOZXDJSAER-UHFFFAOYSA-N-P7-P7-P91-601530

>  <HIPPO Pose ID>  (4696) 
85621

>  <smiles>  (4696) 
OCc1cc2ccccc2nc1NC1CCC1

>  <inchikey>  (4696) 
VPPZXOZXDJSAER-UHFFFAOYSA-N

>  <distance_score>  (4696) 
1.986039

>  <ref_mols>  (4696) 
Z1688a,Z0089a

>  <ref_pdb>  (4696) 
Z0089a

>  <HIPPO Compound ID>  (4696) 
145962

>  <name>  (4696) 
VPPZXOZXDJSAER-UHFFFAOYSA-N-P7-P7-P91-601530

>  <inspiration_score>  (4696) 
None

$$$$
RQNKZZMYWPAXNR-UHFFFAOYSA-N-P7-P7-P91-601530
     RDKit          3D

 17 19  0  0  0  0  0  0  0  0999 V2000
   -6.9568    4.1581  -13.0499 Br  0  0  0  0  0  0  0  0  0  0  0  0
   -6.6831    5.6821  -14.2129 C   0  0  0  0  0  0  0  0  0  0  0  0
   -6.3983    5.3149  -15.6493 C   0  0  0  0  0  0  0  0  0  0  0  0
   -5.1373    5.6223  -16.2196 C   0  0  0  0  0  0  0  0  0  0  0  0
   -4.9410    5.4805  -17.5915 C   0  0  0  0  0  0  0  0  0  0  0  0
   -3.8190    5.9139  -18.2971 N   0  0  0  0  0  0  0  0  0  0  0  0
   -2.4890    5.4235  -18.0837 C   0  0  0  0  0  0  0  0  0  0  0  0
   -1.9588    4.6033  -19.2890 C   0  0  0  0  0  0  0  0  0  0  0  0
   -1.3784    5.9067  -19.8690 C   0  0  0  0  0  0  0  0  0  0  0  0
   -1.4418    6.5007  -18.4497 C   0  0  0  0  0  0  0  0  0  0  0  0
   -5.8853    5.0206  -18.3970 N   0  0  0  0  0  0  0  0  0  0  0  0
   -7.0613    4.6970  -17.8812 C   0  0  0  0  0  0  0  0  0  0  0  0
   -7.9932    4.2922  -18.7998 C   0  0  0  0  0  0  0  0  0  0  0  0
   -9.2935    4.0274  -18.4226 C   0  0  0  0  0  0  0  0  0  0  0  0
   -9.6545    4.1057  -17.0935 C   0  0  0  0  0  0  0  0  0  0  0  0
   -8.7183    4.4844  -16.1359 C   0  0  0  0  0  0  0  0  0  0  0  0
   -7.4001    4.8155  -16.5148 C   0  0  0  0  0  0  0  0  0  0  0  0
  1  2  1  0
  2  3  1  0
  3  4  2  0
  4  5  1  0
  5  6  1  0
  6  7  1  0
  7  8  1  0
  8  9  1  0
  9 10  1  0
  5 11  2  0
 11 12  1  0
 12 13  2  0
 13 14  1  0
 14 15  2  0
 15 16  1  0
 16 17  2  0
 17  3  1  0
 10  7  1  0
 17 12  1  0
M  END
>  <energy_score>  (4697) 
-17.343918

>  <alias>  (4697) 
RQNKZZMYWPAXNR-UHFFFAOYSA-N-P7-P7-P91-601530

>  <HIPPO Pose ID>  (4697) 
85623

>  <smiles>  (4697) 
BrCc1cc(NC2CCC2)nc2ccccc12

>  <inchikey>  (4697) 
RQNKZZMYWPAXNR-UHFFFAOYSA-N

>  <distance_score>  (4697) 
1.013308

>  <ref_mols>  (4697) 
Z1688a,Z0089a

>  <ref_pdb>  (4697) 
Z0089a

>  <HIPPO Compound ID>  (4697) 
145963

>  <name>  (4697) 
RQNKZZMYWPAXNR-UHFFFAOYSA-N-P7-P7-P91-601530

>  <inspiration_score>  (4697) 
None

$$$$
UHRXCGGSIRCJHU-UHFFFAOYSA-N-P91-P7-P91-601530
     RDKit          3D

 17 19  0  0  0  0  0  0  0  0999 V2000
   -3.3143    5.8386  -14.8939 Br  0  0  0  0  0  0  0  0  0  0  0  0
   -3.9026    6.7850  -16.4916 C   0  0  0  0  0  0  0  0  0  0  0  0
   -4.9866    6.0067  -17.1452 C   0  0  0  0  0  0  0  0  0  0  0  0
   -6.1306    5.7547  -16.3802 C   0  0  0  0  0  0  0  0  0  0  0  0
   -7.1879    5.0642  -16.9196 C   0  0  0  0  0  0  0  0  0  0  0  0
   -8.2662    4.7317  -16.1071 C   0  0  0  0  0  0  0  0  0  0  0  0
   -9.3191    4.0608  -16.6661 C   0  0  0  0  0  0  0  0  0  0  0  0
   -9.3045    3.7755  -18.0158 C   0  0  0  0  0  0  0  0  0  0  0  0
   -8.2131    4.1007  -18.8138 C   0  0  0  0  0  0  0  0  0  0  0  0
   -7.1161    4.7189  -18.2731 C   0  0  0  0  0  0  0  0  0  0  0  0
   -6.0329    4.9578  -19.0252 N   0  0  0  0  0  0  0  0  0  0  0  0
   -4.9720    5.5572  -18.4634 C   0  0  0  0  0  0  0  0  0  0  0  0
   -3.8904    5.6857  -19.3412 N   0  0  0  0  0  0  0  0  0  0  0  0
   -2.5440    5.3216  -19.0270 C   0  0  0  0  0  0  0  0  0  0  0  0
   -1.8293    4.5456  -20.1573 C   0  0  0  0  0  0  0  0  0  0  0  0
   -0.5932    5.4247  -19.8786 C   0  0  0  0  0  0  0  0  0  0  0  0
   -1.5617    6.4834  -19.3225 C   0  0  0  0  0  0  0  0  0  0  0  0
  1  2  1  0
  2  3  1  0
  3  4  2  0
  4  5  1  0
  5  6  2  0
  6  7  1  0
  7  8  2  0
  8  9  1  0
  9 10  2  0
 10 11  1  0
 11 12  2  0
 12 13  1  0
 13 14  1  0
 14 15  1  0
 15 16  1  0
 16 17  1  0
 12  3  1  0
 17 14  1  0
 10  5  1  0
M  END
>  <energy_score>  (4698) 
-24.747357

>  <alias>  (4698) 
UHRXCGGSIRCJHU-UHFFFAOYSA-N-P91-P7-P91-601530

>  <HIPPO Pose ID>  (4698) 
85626

>  <smiles>  (4698) 
BrCc1cc2ccccc2nc1NC1CCC1

>  <inchikey>  (4698) 
UHRXCGGSIRCJHU-UHFFFAOYSA-N

>  <distance_score>  (4698) 
1.93073

>  <ref_mols>  (4698) 
Z1688a,Z0089a

>  <ref_pdb>  (4698) 
Z0089a

>  <HIPPO Compound ID>  (4698) 
145964

>  <name>  (4698) 
UHRXCGGSIRCJHU-UHFFFAOYSA-N-P91-P7-P91-601530

>  <inspiration_score>  (4698) 
None

$$$$
ULKXLMHMGCGEQS-UHFFFAOYSA-N-P7-P7-P91-601530
     RDKit          3D

 17 19  0  0  0  0  0  0  0  0999 V2000
   -1.5743    6.8286  -20.6734 C   0  0  0  0  0  0  0  0  0  0  0  0
   -1.7618    6.0627  -19.4103 C   0  0  2  0  0  0  0  0  0  0  0  0
   -2.0848    4.5957  -19.4513 C   0  0  0  0  0  0  0  0  0  0  0  0
   -3.1325    5.5781  -19.0056 C   0  0  1  0  0  0  0  0  0  0  0  0
   -3.5206    5.6699  -17.5900 N   0  0  0  0  0  0  0  0  0  0  0  0
   -4.8500    5.3702  -17.2172 C   0  0  0  0  0  0  0  0  0  0  0  0
   -5.2530    5.5244  -15.8857 C   0  0  0  0  0  0  0  0  0  0  0  0
   -6.5854    5.2656  -15.4973 C   0  0  0  0  0  0  0  0  0  0  0  0
   -7.0352    5.6132  -14.1017 C   0  0  0  0  0  0  0  0  0  0  0  0
   -7.2369    4.0677  -12.9604 Br  0  0  0  0  0  0  0  0  0  0  0  0
   -7.4698    4.7924  -16.4902 C   0  0  0  0  0  0  0  0  0  0  0  0
   -8.8289    4.4723  -16.2766 C   0  0  0  0  0  0  0  0  0  0  0  0
   -9.6600    4.1421  -17.3458 C   0  0  0  0  0  0  0  0  0  0  0  0
   -9.1401    4.0967  -18.6264 C   0  0  0  0  0  0  0  0  0  0  0  0
   -7.7908    4.3338  -18.8355 C   0  0  0  0  0  0  0  0  0  0  0  0
   -6.9570    4.6822  -17.8024 C   0  0  0  0  0  0  0  0  0  0  0  0
   -5.7003    4.9500  -18.1478 N   0  0  0  0  0  0  0  0  0  0  0  0
  2  1  1  6
  2  3  1  0
  3  4  1  0
  4  5  1  1
  5  6  1  0
  6  7  2  0
  7  8  1  0
  8  9  1  0
  9 10  1  0
  8 11  2  0
 11 12  1  0
 12 13  2  0
 13 14  1  0
 14 15  2  0
 15 16  1  0
 16 17  2  0
  4  2  1  0
 17  6  1  0
 16 11  1  0
M  END
>  <energy_score>  (4699) 
-24.729727

>  <alias>  (4699) 
ULKXLMHMGCGEQS-UHFFFAOYSA-N-P7-P7-P91-601530

>  <HIPPO Pose ID>  (4699) 
85631

>  <smiles>  (4699) 
CC1CC1Nc1cc(CBr)c2ccccc2n1

>  <inchikey>  (4699) 
ULKXLMHMGCGEQS-UHFFFAOYSA-N

>  <distance_score>  (4699) 
0.999116

>  <ref_mols>  (4699) 
Z1688a,Z0089a

>  <ref_pdb>  (4699) 
Z0089a

>  <HIPPO Compound ID>  (4699) 
145967

>  <name>  (4699) 
ULKXLMHMGCGEQS-UHFFFAOYSA-N-P7-P7-P91-601530

>  <inspiration_score>  (4699) 
None

$$$$
DPROVNRETXVMFT-UHFFFAOYSA-N-P91-P7-P91-601530
     RDKit          3D

 17 19  0  0  0  0  0  0  0  0999 V2000
   -1.9672    4.3763  -19.1715 C   0  0  0  0  0  0  0  0  0  0  0  0
   -2.5942    5.7039  -19.5145 C   0  0  0  0  0  0  0  0  0  0  0  0
   -4.0619    5.7441  -19.5799 N   0  0  0  0  0  0  0  0  0  0  0  0
   -4.9786    5.4056  -18.5826 C   0  0  0  0  0  0  0  0  0  0  0  0
   -6.1354    4.9491  -19.1035 N   0  0  0  0  0  0  0  0  0  0  0  0
   -7.1603    4.6428  -18.2929 C   0  0  0  0  0  0  0  0  0  0  0  0
   -8.3968    4.3035  -18.7952 C   0  0  0  0  0  0  0  0  0  0  0  0
   -9.4682    4.0335  -17.9485 C   0  0  0  0  0  0  0  0  0  0  0  0
   -9.2964    4.0239  -16.5805 C   0  0  0  0  0  0  0  0  0  0  0  0
   -8.0759    4.3386  -16.0454 C   0  0  0  0  0  0  0  0  0  0  0  0
   -7.0335    4.6677  -16.9057 C   0  0  0  0  0  0  0  0  0  0  0  0
   -5.8246    5.0600  -16.3787 C   0  0  0  0  0  0  0  0  0  0  0  0
   -4.8059    5.5474  -17.2067 C   0  0  0  0  0  0  0  0  0  0  0  0
   -3.6131    6.1740  -16.5748 C   0  0  0  0  0  0  0  0  0  0  0  0
   -4.0852    7.1961  -14.9669 Br  0  0  0  0  0  0  0  0  0  0  0  0
   -1.8782    6.4442  -20.6304 C   0  0  0  0  0  0  0  0  0  0  0  0
   -1.8138    6.9786  -19.2438 C   0  0  0  0  0  0  0  0  0  0  0  0
  1  2  1  0
  2  3  1  0
  3  4  1  0
  4  5  2  0
  5  6  1  0
  6  7  2  0
  7  8  1  0
  8  9  2  0
  9 10  1  0
 10 11  2  0
 11 12  1  0
 12 13  2  0
 13 14  1  0
 14 15  1  0
  2 16  1  0
 16 17  1  0
 17  2  1  0
 13  4  1  0
 11  6  1  0
M  END
>  <energy_score>  (4700) 
-23.644386

>  <alias>  (4700) 
DPROVNRETXVMFT-UHFFFAOYSA-N-P91-P7-P91-601530

>  <HIPPO Pose ID>  (4700) 
85636

>  <smiles>  (4700) 
CC1(Nc2nc3ccccc3cc2CBr)CC1

>  <inchikey>  (4700) 
DPROVNRETXVMFT-UHFFFAOYSA-N

>  <distance_score>  (4700) 
1.948732

>  <ref_mols>  (4700) 
Z1688a,Z0089a

>  <ref_pdb>  (4700) 
Z0089a

>  <HIPPO Compound ID>  (4700) 
145969

>  <name>  (4700) 
DPROVNRETXVMFT-UHFFFAOYSA-N-P91-P7-P91-601530

>  <inspiration_score>  (4700) 
None

$$$$
LLEGVLRZUVKRGU-UHFFFAOYSA-N-P91-P7-P91-601530
     RDKit          3D

 17 19  0  0  0  0  0  0  0  0999 V2000
   -1.9389    4.4370  -19.1553 C   0  0  0  0  0  0  0  0  0  0  0  0
   -2.6235    5.7664  -19.3515 C   0  0  0  0  0  0  0  0  0  0  0  0
   -4.0784    5.7133  -19.5133 N   0  0  0  0  0  0  0  0  0  0  0  0
   -5.0212    5.3971  -18.5371 C   0  0  0  0  0  0  0  0  0  0  0  0
   -6.1699    4.9342  -19.0684 N   0  0  0  0  0  0  0  0  0  0  0  0
   -7.2095    4.6499  -18.2670 C   0  0  0  0  0  0  0  0  0  0  0  0
   -8.4194    4.2614  -18.7890 C   0  0  0  0  0  0  0  0  0  0  0  0
   -9.4963    3.9843  -17.9545 C   0  0  0  0  0  0  0  0  0  0  0  0
   -9.3579    4.0280  -16.5834 C   0  0  0  0  0  0  0  0  0  0  0  0
   -8.1746    4.4248  -16.0258 C   0  0  0  0  0  0  0  0  0  0  0  0
   -7.1272    4.7524  -16.8737 C   0  0  0  0  0  0  0  0  0  0  0  0
   -5.9537    5.2060  -16.3278 C   0  0  0  0  0  0  0  0  0  0  0  0
   -4.8978    5.5615  -17.1641 C   0  0  0  0  0  0  0  0  0  0  0  0
   -3.8013    6.1245  -16.4729 C   0  0  0  0  0  0  0  0  0  0  0  0
   -3.0392    6.5743  -15.7249 N   0  0  0  0  0  0  0  0  0  0  0  0
   -1.8907    6.7222  -20.2719 C   0  0  0  0  0  0  0  0  0  0  0  0
   -1.9632    7.0189  -18.8124 C   0  0  0  0  0  0  0  0  0  0  0  0
  1  2  1  0
  2  3  1  0
  3  4  1  0
  4  5  2  0
  5  6  1  0
  6  7  2  0
  7  8  1  0
  8  9  2  0
  9 10  1  0
 10 11  2  0
 11 12  1  0
 12 13  2  0
 13 14  1  0
 14 15  3  0
  2 16  1  0
 16 17  1  0
 17  2  1  0
 13  4  1  0
 11  6  1  0
M  END
>  <energy_score>  (4701) 
-11.956579

>  <alias>  (4701) 
LLEGVLRZUVKRGU-UHFFFAOYSA-N-P91-P7-P91-601530

>  <HIPPO Pose ID>  (4701) 
85648

>  <smiles>  (4701) 
CC1(Nc2nc3ccccc3cc2C#N)CC1

>  <inchikey>  (4701) 
LLEGVLRZUVKRGU-UHFFFAOYSA-N

>  <distance_score>  (4701) 
1.96255

>  <ref_mols>  (4701) 
Z1688a,Z0089a

>  <ref_pdb>  (4701) 
Z0089a

>  <HIPPO Compound ID>  (4701) 
145975

>  <name>  (4701) 
LLEGVLRZUVKRGU-UHFFFAOYSA-N-P91-P7-P91-601530

>  <inspiration_score>  (4701) 
None

$$$$
PUPJHUVDNDNSJW-UHFFFAOYSA-N-P7-P7-P91-601530
     RDKit          3D

 17 19  0  0  0  0  0  0  0  0999 V2000
   -3.6975    6.6546  -15.9339 C   0  0  0  0  0  0  0  0  0  0  0  0
   -4.8569    5.9986  -16.6190 C   0  0  0  0  0  0  0  0  0  0  0  0
   -5.9101    5.4837  -15.8567 C   0  0  0  0  0  0  0  0  0  0  0  0
   -7.0232    4.9227  -16.4947 C   0  0  0  0  0  0  0  0  0  0  0  0
   -8.1537    4.4886  -15.7944 C   0  0  0  0  0  0  0  0  0  0  0  0
   -9.2611    4.0264  -16.4973 C   0  0  0  0  0  0  0  0  0  0  0  0
   -9.2460    3.9572  -17.8821 C   0  0  0  0  0  0  0  0  0  0  0  0
   -8.1023    4.3417  -18.5669 C   0  0  0  0  0  0  0  0  0  0  0  0
   -7.0010    4.8375  -17.8976 C   0  0  0  0  0  0  0  0  0  0  0  0
   -5.9736    5.2621  -18.6259 N   0  0  0  0  0  0  0  0  0  0  0  0
   -4.9339    5.8568  -18.0079 C   0  0  0  0  0  0  0  0  0  0  0  0
   -3.9413    6.4366  -18.8547 N   0  0  0  0  0  0  0  0  0  0  0  0
   -4.5719    7.4023  -19.7444 N   0  0  0  0  0  0  0  0  0  0  0  0
   -3.0886    5.5018  -19.5518 C   0  0  0  0  0  0  0  0  0  0  0  0
   -2.2245    4.6035  -18.6407 C   0  0  0  0  0  0  0  0  0  0  0  0
   -1.1066    4.7965  -19.6782 C   0  0  0  0  0  0  0  0  0  0  0  0
   -1.7588    6.1524  -20.0072 C   0  0  0  0  0  0  0  0  0  0  0  0
  1  2  1  0
  2  3  2  0
  3  4  1  0
  4  5  2  0
  5  6  1  0
  6  7  2  0
  7  8  1  0
  8  9  2  0
  9 10  1  0
 10 11  2  0
 11 12  1  0
 12 13  1  0
 12 14  1  0
 14 15  1  0
 15 16  1  0
 16 17  1  0
 11  2  1  0
 17 14  1  0
  9  4  1  0
M  END
>  <energy_score>  (4702) 
-34.167507

>  <alias>  (4702) 
PUPJHUVDNDNSJW-UHFFFAOYSA-N-P7-P7-P91-601530

>  <HIPPO Pose ID>  (4702) 
85651

>  <smiles>  (4702) 
Cc1cc2ccccc2nc1N(N)C1CCC1

>  <inchikey>  (4702) 
PUPJHUVDNDNSJW-UHFFFAOYSA-N

>  <distance_score>  (4702) 
1.017577

>  <ref_mols>  (4702) 
Z1688a,Z0089a

>  <ref_pdb>  (4702) 
Z0089a

>  <HIPPO Compound ID>  (4702) 
145977

>  <name>  (4702) 
PUPJHUVDNDNSJW-UHFFFAOYSA-N-P7-P7-P91-601530

>  <inspiration_score>  (4702) 
None

$$$$
HXZPXZUFYLWQAE-UHFFFAOYSA-N-P91-P7-P91-601530
     RDKit          3D

 17 19  0  0  0  0  0  0  0  0999 V2000
   -5.1911    5.7661  -14.8016 C   0  0  0  0  0  0  0  0  0  0  0  0
   -5.4959    5.5148  -16.2463 C   0  0  0  0  0  0  0  0  0  0  0  0
   -4.5160    5.7624  -17.2018 C   0  0  0  0  0  0  0  0  0  0  0  0
   -4.7894    5.5560  -18.5485 C   0  0  0  0  0  0  0  0  0  0  0  0
   -3.7945    5.8326  -19.5281 N   0  0  0  0  0  0  0  0  0  0  0  0
   -4.2969    6.1261  -20.8320 N   0  0  0  0  0  0  0  0  0  0  0  0
   -2.3752    5.6720  -19.3002 C   0  0  0  0  0  0  0  0  0  0  0  0
   -1.6821    4.6727  -20.2406 C   0  0  0  0  0  0  0  0  0  0  0  0
   -1.1291    5.8583  -21.0528 C   0  0  0  0  0  0  0  0  0  0  0  0
   -1.5059    6.7947  -19.8891 C   0  0  0  0  0  0  0  0  0  0  0  0
   -6.0032    5.1511  -18.9737 N   0  0  0  0  0  0  0  0  0  0  0  0
   -6.9425    4.8704  -18.0658 C   0  0  0  0  0  0  0  0  0  0  0  0
   -8.1619    4.4068  -18.5127 C   0  0  0  0  0  0  0  0  0  0  0  0
   -9.1890    4.0921  -17.6311 C   0  0  0  0  0  0  0  0  0  0  0  0
   -8.9918    4.2230  -16.2719 C   0  0  0  0  0  0  0  0  0  0  0  0
   -7.7837    4.6942  -15.7943 C   0  0  0  0  0  0  0  0  0  0  0  0
   -6.7430    5.0299  -16.6788 C   0  0  0  0  0  0  0  0  0  0  0  0
  1  2  1  0
  2  3  2  0
  3  4  1  0
  4  5  1  0
  5  6  1  0
  5  7  1  0
  7  8  1  0
  8  9  1  0
  9 10  1  0
  4 11  2  0
 11 12  1  0
 12 13  2  0
 13 14  1  0
 14 15  2  0
 15 16  1  0
 16 17  2  0
 17  2  1  0
 10  7  1  0
 17 12  1  0
M  END
>  <energy_score>  (4703) 
-21.236537

>  <alias>  (4703) 
HXZPXZUFYLWQAE-UHFFFAOYSA-N-P91-P7-P91-601530

>  <HIPPO Pose ID>  (4703) 
85654

>  <smiles>  (4703) 
Cc1cc(N(N)C2CCC2)nc2ccccc12

>  <inchikey>  (4703) 
HXZPXZUFYLWQAE-UHFFFAOYSA-N

>  <distance_score>  (4703) 
1.790558

>  <ref_mols>  (4703) 
Z1688a,Z0089a

>  <ref_pdb>  (4703) 
Z0089a

>  <HIPPO Compound ID>  (4703) 
145978

>  <name>  (4703) 
HXZPXZUFYLWQAE-UHFFFAOYSA-N-P91-P7-P91-601530

>  <inspiration_score>  (4703) 
None

$$$$
DTGCKVPZHKGIOI-UHFFFAOYSA-N-P7-P7-P91-601530
     RDKit          3D

 17 19  0  0  0  0  0  0  0  0999 V2000
   -3.7016    5.7194  -20.5615 N   0  0  0  0  0  0  0  0  0  0  0  0
   -3.3738    5.5175  -19.1807 N   0  0  0  0  0  0  0  0  0  0  0  0
   -4.4860    5.3405  -18.3152 C   0  0  0  0  0  0  0  0  0  0  0  0
   -4.3918    5.4711  -16.9311 C   0  0  0  0  0  0  0  0  0  0  0  0
   -5.5121    5.2263  -16.1396 C   0  0  0  0  0  0  0  0  0  0  0  0
   -6.7054    4.8421  -16.7539 C   0  0  0  0  0  0  0  0  0  0  0  0
   -7.8562    4.5209  -16.0343 C   0  0  0  0  0  0  0  0  0  0  0  0
   -8.9958    4.1561  -16.7310 C   0  0  0  0  0  0  0  0  0  0  0  0
  -10.0835    3.8133  -16.0180 O   0  0  0  0  0  0  0  0  0  0  0  0
   -9.0341    4.0880  -18.1079 C   0  0  0  0  0  0  0  0  0  0  0  0
   -7.8742    4.3724  -18.8062 C   0  0  0  0  0  0  0  0  0  0  0  0
   -6.7203    4.7606  -18.1570 C   0  0  0  0  0  0  0  0  0  0  0  0
   -5.6537    5.0284  -18.9052 N   0  0  0  0  0  0  0  0  0  0  0  0
   -2.0024    5.6174  -18.7511 C   0  0  0  0  0  0  0  0  0  0  0  0
   -0.9807    5.0267  -19.7345 C   0  0  0  0  0  0  0  0  0  0  0  0
   -0.6638    6.4505  -20.2282 C   0  0  0  0  0  0  0  0  0  0  0  0
   -1.3829    7.0070  -18.9844 C   0  0  0  0  0  0  0  0  0  0  0  0
  1  2  1  0
  2  3  1  0
  3  4  2  0
  4  5  1  0
  5  6  2  0
  6  7  1  0
  7  8  2  0
  8  9  1  0
  8 10  1  0
 10 11  2  0
 11 12  1  0
 12 13  2  0
  2 14  1  0
 14 15  1  0
 15 16  1  0
 16 17  1  0
 13  3  1  0
 17 14  1  0
 12  6  1  0
M  END
>  <energy_score>  (4704) 
-20.29174

>  <alias>  (4704) 
DTGCKVPZHKGIOI-UHFFFAOYSA-N-P7-P7-P91-601530

>  <HIPPO Pose ID>  (4704) 
85655

>  <smiles>  (4704) 
NN(c1ccc2cc(O)ccc2n1)C1CCC1

>  <inchikey>  (4704) 
DTGCKVPZHKGIOI-UHFFFAOYSA-N

>  <distance_score>  (4704) 
1.048792

>  <ref_mols>  (4704) 
Z1688a,Z0089a

>  <ref_pdb>  (4704) 
Z0089a

>  <HIPPO Compound ID>  (4704) 
145979

>  <name>  (4704) 
DTGCKVPZHKGIOI-UHFFFAOYSA-N-P7-P7-P91-601530

>  <inspiration_score>  (4704) 
None

$$$$
FRQCHJCQXAQFKJ-UHFFFAOYSA-N-P91-P7-P91-601530
     RDKit          3D

 17 19  0  0  0  0  0  0  0  0999 V2000
   -3.6977    6.0306  -20.7385 N   0  0  0  0  0  0  0  0  0  0  0  0
   -3.8037    5.4646  -19.4277 N   0  0  0  0  0  0  0  0  0  0  0  0
   -5.1119    5.1192  -18.9471 C   0  0  0  0  0  0  0  0  0  0  0  0
   -6.0270    4.6136  -19.8618 C   0  0  0  0  0  0  0  0  0  0  0  0
   -7.2826    4.2231  -19.4598 C   0  0  0  0  0  0  0  0  0  0  0  0
   -7.6364    4.3908  -18.1483 C   0  0  0  0  0  0  0  0  0  0  0  0
   -8.9245    4.0220  -17.7929 C   0  0  0  0  0  0  0  0  0  0  0  0
   -9.2955    4.0929  -16.4716 C   0  0  0  0  0  0  0  0  0  0  0  0
   -8.4131    4.5610  -15.5150 C   0  0  0  0  0  0  0  0  0  0  0  0
   -7.1360    4.9651  -15.9032 C   0  0  0  0  0  0  0  0  0  0  0  0
   -6.3156    5.4503  -14.9180 O   0  0  0  0  0  0  0  0  0  0  0  0
   -6.6903    4.8900  -17.2309 C   0  0  0  0  0  0  0  0  0  0  0  0
   -5.4361    5.2401  -17.6371 N   0  0  0  0  0  0  0  0  0  0  0  0
   -2.6660    5.5501  -18.5378 C   0  0  0  0  0  0  0  0  0  0  0  0
   -1.3301    5.1545  -19.2068 C   0  0  0  0  0  0  0  0  0  0  0  0
   -0.9820    6.6484  -19.3433 C   0  0  0  0  0  0  0  0  0  0  0  0
   -2.1111    6.9738  -18.3476 C   0  0  0  0  0  0  0  0  0  0  0  0
  1  2  1  0
  2  3  1  0
  3  4  2  0
  4  5  1  0
  5  6  2  0
  6  7  1  0
  7  8  2  0
  8  9  1  0
  9 10  2  0
 10 11  1  0
 10 12  1  0
 12 13  2  0
  2 14  1  0
 14 15  1  0
 15 16  1  0
 16 17  1  0
 13  3  1  0
 17 14  1  0
 12  6  1  0
M  END
>  <energy_score>  (4705) 
-11.226622

>  <alias>  (4705) 
FRQCHJCQXAQFKJ-UHFFFAOYSA-N-P91-P7-P91-601530

>  <HIPPO Pose ID>  (4705) 
85658

>  <smiles>  (4705) 
NN(c1ccc2cccc(O)c2n1)C1CCC1

>  <inchikey>  (4705) 
FRQCHJCQXAQFKJ-UHFFFAOYSA-N

>  <distance_score>  (4705) 
0.869645

>  <ref_mols>  (4705) 
Z1688a,Z0089a

>  <ref_pdb>  (4705) 
Z0089a

>  <HIPPO Compound ID>  (4705) 
145980

>  <name>  (4705) 
FRQCHJCQXAQFKJ-UHFFFAOYSA-N-P91-P7-P91-601530

>  <inspiration_score>  (4705) 
None

$$$$
MZYQISMVOWKKTI-UHFFFAOYSA-N-P91-P7-P91-601530
     RDKit          3D

 17 18  0  0  0  0  0  0  0  0999 V2000
   -0.9277    5.4726  -22.2722 C   0  0  0  0  0  0  0  0  0  0  0  0
   -1.9114    6.0513  -21.2723 C   0  0  0  0  0  0  0  0  0  0  0  0
   -1.9747    5.2415  -19.9661 C   0  0  0  0  0  0  0  0  0  0  0  0
   -2.5690    6.0848  -18.8259 C   0  0  2  0  0  0  0  0  0  0  0  0
   -2.3600    5.4467  -17.4734 C   0  0  0  0  0  0  0  0  0  0  0  0
   -3.9499    6.4783  -19.0667 N   0  0  0  0  0  0  0  0  0  0  0  0
   -5.0190    5.6511  -18.7450 C   0  0  0  0  0  0  0  0  0  0  0  0
   -5.6262    4.9494  -19.7651 C   0  0  0  0  0  0  0  0  0  0  0  0
   -6.8280    4.3184  -19.5333 C   0  0  0  0  0  0  0  0  0  0  0  0
   -7.4340    4.4533  -18.3011 C   0  0  0  0  0  0  0  0  0  0  0  0
   -8.7439    3.9967  -18.1486 C   0  0  0  0  0  0  0  0  0  0  0  0
   -9.3636    4.0882  -16.9191 C   0  0  0  0  0  0  0  0  0  0  0  0
   -8.6582    4.5733  -15.8303 C   0  0  0  0  0  0  0  0  0  0  0  0
   -7.3613    5.0612  -16.0085 C   0  0  0  0  0  0  0  0  0  0  0  0
   -6.7405    5.5822  -14.9003 O   0  0  0  0  0  0  0  0  0  0  0  0
   -6.7201    5.0682  -17.2570 C   0  0  0  0  0  0  0  0  0  0  0  0
   -5.5073    5.6458  -17.4884 N   0  0  0  0  0  0  0  0  0  0  0  0
  1  2  1  0
  2  3  1  0
  3  4  1  0
  4  5  1  1
  4  6  1  0
  6  7  1  0
  7  8  2  0
  8  9  1  0
  9 10  2  0
 10 11  1  0
 11 12  2  0
 12 13  1  0
 13 14  2  0
 14 15  1  0
 14 16  1  0
 16 17  2  0
 17  7  1  0
 16 10  1  0
M  END
>  <energy_score>  (4706) 
-27.76422

>  <alias>  (4706) 
MZYQISMVOWKKTI-UHFFFAOYSA-N-P91-P7-P91-601530

>  <HIPPO Pose ID>  (4706) 
85660

>  <smiles>  (4706) 
CCCC(C)Nc1ccc2cccc(O)c2n1

>  <inchikey>  (4706) 
MZYQISMVOWKKTI-UHFFFAOYSA-N

>  <distance_score>  (4706) 
0.954716

>  <ref_mols>  (4706) 
Z1688a,Z0089a

>  <ref_pdb>  (4706) 
Z0089a

>  <HIPPO Compound ID>  (4706) 
145981

>  <name>  (4706) 
MZYQISMVOWKKTI-UHFFFAOYSA-N-P91-P7-P91-601530

>  <inspiration_score>  (4706) 
None

$$$$
TTYWWVOZIXSCBN-UHFFFAOYSA-N-P91-P7-P91-601530
     RDKit          3D

 17 18  0  0  0  0  0  0  0  0999 V2000
   -1.9215    6.4848  -22.3000 C   0  0  0  0  0  0  0  0  0  0  0  0
   -0.9669    5.9909  -21.2261 C   0  0  0  0  0  0  0  0  0  0  0  0
   -1.6317    5.1290  -20.1454 C   0  0  0  0  0  0  0  0  0  0  0  0
   -2.7638    5.8138  -19.3422 C   0  0  2  0  0  0  0  0  0  0  0  0
   -2.3145    7.1445  -18.7447 C   0  0  0  0  0  0  0  0  0  0  0  0
   -3.1301    4.8783  -18.2674 N   0  0  0  0  0  0  0  0  0  0  0  0
   -4.3911    5.1229  -17.7038 C   0  0  0  0  0  0  0  0  0  0  0  0
   -5.4244    4.8339  -18.4979 N   0  0  0  0  0  0  0  0  0  0  0  0
   -6.6405    4.7307  -17.9587 C   0  0  0  0  0  0  0  0  0  0  0  0
   -7.6818    4.3851  -18.7917 C   0  0  0  0  0  0  0  0  0  0  0  0
   -8.9636    4.1873  -18.3000 C   0  0  0  0  0  0  0  0  0  0  0  0
   -9.2037    4.2986  -16.9405 C   0  0  0  0  0  0  0  0  0  0  0  0
   -8.1781    4.6733  -16.0772 C   0  0  0  0  0  0  0  0  0  0  0  0
   -6.8908    4.9120  -16.5871 C   0  0  0  0  0  0  0  0  0  0  0  0
   -5.8076    5.2923  -15.7845 C   0  0  0  0  0  0  0  0  0  0  0  0
   -4.5292    5.4035  -16.3443 C   0  0  0  0  0  0  0  0  0  0  0  0
   -3.3434    5.6526  -15.4632 C   0  0  0  0  0  0  0  0  0  0  0  0
  1  2  1  0
  2  3  1  0
  3  4  1  0
  4  5  1  1
  4  6  1  0
  6  7  1  0
  7  8  2  0
  8  9  1  0
  9 10  2  0
 10 11  1  0
 11 12  2  0
 12 13  1  0
 13 14  2  0
 14 15  1  0
 15 16  2  0
 16 17  1  0
 16  7  1  0
 14  9  1  0
M  END
>  <energy_score>  (4707) 
-18.084607

>  <alias>  (4707) 
TTYWWVOZIXSCBN-UHFFFAOYSA-N-P91-P7-P91-601530

>  <HIPPO Pose ID>  (4707) 
85664

>  <smiles>  (4707) 
CCCC(C)Nc1nc2ccccc2cc1C

>  <inchikey>  (4707) 
TTYWWVOZIXSCBN-UHFFFAOYSA-N

>  <distance_score>  (4707) 
0.947691

>  <ref_mols>  (4707) 
Z1688a,Z0089a

>  <ref_pdb>  (4707) 
Z0089a

>  <HIPPO Compound ID>  (4707) 
145983

>  <name>  (4707) 
TTYWWVOZIXSCBN-UHFFFAOYSA-N-P91-P7-P91-601530

>  <inspiration_score>  (4707) 
None

$$$$
YIJMOOACMDKRHX-UHFFFAOYSA-N-P91-P7-P91-601530
     RDKit          3D

 17 18  0  0  0  0  0  0  0  0999 V2000
   -2.1211    6.5040  -22.2017 C   0  0  0  0  0  0  0  0  0  0  0  0
   -1.2073    5.4914  -21.5306 C   0  0  0  0  0  0  0  0  0  0  0  0
   -1.8435    4.6511  -20.4112 C   0  0  0  0  0  0  0  0  0  0  0  0
   -2.4323    5.3961  -19.2011 C   0  0  1  0  0  0  0  0  0  0  0  0
   -1.5363    6.5513  -18.7522 C   0  0  0  0  0  0  0  0  0  0  0  0
   -3.7740    5.8908  -19.5067 N   0  0  0  0  0  0  0  0  0  0  0  0
   -4.7474    5.6521  -18.5381 C   0  0  0  0  0  0  0  0  0  0  0  0
   -4.5635    5.9757  -17.2038 C   0  0  0  0  0  0  0  0  0  0  0  0
   -5.5575    5.6881  -16.2738 C   0  0  0  0  0  0  0  0  0  0  0  0
   -5.3287    6.0170  -14.8310 C   0  0  0  0  0  0  0  0  0  0  0  0
   -6.7495    5.1010  -16.7324 C   0  0  0  0  0  0  0  0  0  0  0  0
   -7.8173    4.7572  -15.8800 C   0  0  0  0  0  0  0  0  0  0  0  0
   -8.9802    4.2102  -16.3890 C   0  0  0  0  0  0  0  0  0  0  0  0
   -9.1023    4.0146  -17.7495 C   0  0  0  0  0  0  0  0  0  0  0  0
   -8.0428    4.3250  -18.5961 C   0  0  0  0  0  0  0  0  0  0  0  0
   -6.8634    4.8539  -18.1164 C   0  0  0  0  0  0  0  0  0  0  0  0
   -5.8811    5.1109  -18.9896 N   0  0  0  0  0  0  0  0  0  0  0  0
  1  2  1  0
  2  3  1  0
  3  4  1  0
  4  5  1  6
  4  6  1  0
  6  7  1  0
  7  8  2  0
  8  9  1  0
  9 10  1  0
  9 11  2  0
 11 12  1  0
 12 13  2  0
 13 14  1  0
 14 15  2  0
 15 16  1  0
 16 17  2  0
 17  7  1  0
 16 11  1  0
M  END
>  <energy_score>  (4708) 
-31.054493

>  <alias>  (4708) 
YIJMOOACMDKRHX-UHFFFAOYSA-N-P91-P7-P91-601530

>  <HIPPO Pose ID>  (4708) 
85666

>  <smiles>  (4708) 
CCCC(C)Nc1cc(C)c2ccccc2n1

>  <inchikey>  (4708) 
YIJMOOACMDKRHX-UHFFFAOYSA-N

>  <distance_score>  (4708) 
1.818171

>  <ref_mols>  (4708) 
Z1688a,Z0089a

>  <ref_pdb>  (4708) 
Z0089a

>  <HIPPO Compound ID>  (4708) 
145984

>  <name>  (4708) 
YIJMOOACMDKRHX-UHFFFAOYSA-N-P91-P7-P91-601530

>  <inspiration_score>  (4708) 
None

$$$$
VKEVKPIRRFOXSO-UHFFFAOYSA-N-P7-P7-P91-601530
     RDKit          3D

 17 18  0  0  0  0  0  0  0  0999 V2000
   -0.1421    5.3392  -19.1707 C   0  0  0  0  0  0  0  0  0  0  0  0
   -1.6250    4.9826  -19.1383 C   0  0  0  0  0  0  0  0  0  0  0  0
   -2.4827    6.1726  -19.5824 C   0  0  2  0  0  0  0  0  0  0  0  0
   -2.2368    7.4784  -18.8305 C   0  0  0  0  0  0  0  0  0  0  0  0
   -3.9122    5.8482  -19.6859 N   0  0  0  0  0  0  0  0  0  0  0  0
   -4.5865    6.4108  -20.8246 N   0  0  0  0  0  0  0  0  0  0  0  0
   -4.7649    5.4766  -18.6403 C   0  0  0  0  0  0  0  0  0  0  0  0
   -4.4202    5.5544  -17.3009 C   0  0  0  0  0  0  0  0  0  0  0  0
   -5.3731    5.3086  -16.3069 C   0  0  0  0  0  0  0  0  0  0  0  0
   -4.9991    5.5030  -14.8685 C   0  0  0  0  0  0  0  0  0  0  0  0
   -6.6657    4.9004  -16.6877 C   0  0  0  0  0  0  0  0  0  0  0  0
   -7.6953    4.5891  -15.7718 C   0  0  0  0  0  0  0  0  0  0  0  0
   -8.9465    4.1876  -16.2093 C   0  0  0  0  0  0  0  0  0  0  0  0
   -9.1884    4.0870  -17.5649 C   0  0  0  0  0  0  0  0  0  0  0  0
   -8.1768    4.3882  -18.4742 C   0  0  0  0  0  0  0  0  0  0  0  0
   -6.9244    4.7998  -18.0636 C   0  0  0  0  0  0  0  0  0  0  0  0
   -6.0138    5.1033  -18.9957 N   0  0  0  0  0  0  0  0  0  0  0  0
  1  2  1  0
  2  3  1  0
  3  4  1  1
  3  5  1  0
  5  6  1  0
  5  7  1  0
  7  8  2  0
  8  9  1  0
  9 10  1  0
  9 11  2  0
 11 12  1  0
 12 13  2  0
 13 14  1  0
 14 15  2  0
 15 16  1  0
 16 17  2  0
 17  7  1  0
 16 11  1  0
M  END
>  <energy_score>  (4709) 
-20.911708

>  <alias>  (4709) 
VKEVKPIRRFOXSO-UHFFFAOYSA-N-P7-P7-P91-601530

>  <HIPPO Pose ID>  (4709) 
85669

>  <smiles>  (4709) 
CCC(C)N(N)c1cc(C)c2ccccc2n1

>  <inchikey>  (4709) 
VKEVKPIRRFOXSO-UHFFFAOYSA-N

>  <distance_score>  (4709) 
1.988405

>  <ref_mols>  (4709) 
Z1688a,Z0089a

>  <ref_pdb>  (4709) 
Z0089a

>  <HIPPO Compound ID>  (4709) 
145986

>  <name>  (4709) 
VKEVKPIRRFOXSO-UHFFFAOYSA-N-P7-P7-P91-601530

>  <inspiration_score>  (4709) 
None

$$$$
HBUPKUGNOBELIJ-UHFFFAOYSA-N-P7-P7-P91-601530
     RDKit          3D

 17 18  0  0  0  0  0  0  0  0999 V2000
   -5.1399    5.7934  -14.9118 C   0  0  0  0  0  0  0  0  0  0  0  0
   -5.4758    5.4862  -16.3401 C   0  0  0  0  0  0  0  0  0  0  0  0
   -4.5202    5.7175  -17.3307 C   0  0  0  0  0  0  0  0  0  0  0  0
   -4.8145    5.4499  -18.6519 C   0  0  0  0  0  0  0  0  0  0  0  0
   -3.9701    5.6672  -19.7087 N   0  0  0  0  0  0  0  0  0  0  0  0
   -2.5119    5.6481  -19.7075 C   0  0  2  0  0  0  0  0  0  0  0  0
   -1.9261    4.3443  -19.1852 C   0  0  0  0  0  0  0  0  0  0  0  0
   -1.8936    6.9505  -19.1711 C   0  0  0  0  0  0  0  0  0  0  0  0
   -1.2705    6.8406  -17.8474 C   0  0  0  0  0  0  0  0  0  0  0  0
   -0.7776    6.7618  -16.7994 N   0  0  0  0  0  0  0  0  0  0  0  0
   -6.0145    4.9914  -19.0228 N   0  0  0  0  0  0  0  0  0  0  0  0
   -6.9498    4.7637  -18.0923 C   0  0  0  0  0  0  0  0  0  0  0  0
   -8.1864    4.3086  -18.5030 C   0  0  0  0  0  0  0  0  0  0  0  0
   -9.2077    4.0353  -17.5962 C   0  0  0  0  0  0  0  0  0  0  0  0
   -8.9905    4.2051  -16.2430 C   0  0  0  0  0  0  0  0  0  0  0  0
   -7.7654    4.6795  -15.8058 C   0  0  0  0  0  0  0  0  0  0  0  0
   -6.7320    4.9773  -16.7195 C   0  0  0  0  0  0  0  0  0  0  0  0
  1  2  1  0
  2  3  2  0
  3  4  1  0
  4  5  1  0
  5  6  1  0
  6  7  1  1
  6  8  1  0
  8  9  1  0
  9 10  3  0
  4 11  2  0
 11 12  1  0
 12 13  2  0
 13 14  1  0
 14 15  2  0
 15 16  1  0
 16 17  2  0
 17  2  1  0
 17 12  1  0
M  END
>  <energy_score>  (4710) 
-39.74678

>  <alias>  (4710) 
HBUPKUGNOBELIJ-UHFFFAOYSA-N-P7-P7-P91-601530

>  <HIPPO Pose ID>  (4710) 
85677

>  <smiles>  (4710) 
Cc1cc(NC(C)CC#N)nc2ccccc12

>  <inchikey>  (4710) 
HBUPKUGNOBELIJ-UHFFFAOYSA-N

>  <distance_score>  (4710) 
1.977168

>  <ref_mols>  (4710) 
Z1688a,Z0089a

>  <ref_pdb>  (4710) 
Z0089a

>  <HIPPO Compound ID>  (4710) 
145990

>  <name>  (4710) 
HBUPKUGNOBELIJ-UHFFFAOYSA-N-P7-P7-P91-601530

>  <inspiration_score>  (4710) 
None

$$$$
CURNWSDRJBAGLO-UHFFFAOYSA-N-P7-P7-P91-601530
     RDKit          3D

 17 19  0  0  0  0  0  0  0  0999 V2000
   -3.2888    5.8393  -15.9929 C   0  0  0  0  0  0  0  0  0  0  0  0
   -4.5386    5.4707  -16.7233 C   0  0  0  0  0  0  0  0  0  0  0  0
   -5.6601    5.1131  -15.9518 C   0  0  0  0  0  0  0  0  0  0  0  0
   -6.8663    4.7596  -16.5641 C   0  0  0  0  0  0  0  0  0  0  0  0
   -8.0172    4.4044  -15.8435 C   0  0  0  0  0  0  0  0  0  0  0  0
   -9.1829    4.0671  -16.5241 C   0  0  0  0  0  0  0  0  0  0  0  0
   -9.2090    4.0601  -17.9098 C   0  0  0  0  0  0  0  0  0  0  0  0
   -8.0566    4.3952  -18.6110 C   0  0  0  0  0  0  0  0  0  0  0  0
   -6.8923    4.7650  -17.9624 C   0  0  0  0  0  0  0  0  0  0  0  0
   -5.8377    5.1293  -18.6970 N   0  0  0  0  0  0  0  0  0  0  0  0
   -4.6850    5.4868  -18.1083 C   0  0  0  0  0  0  0  0  0  0  0  0
   -3.7733    5.9245  -19.0658 N   0  0  0  0  0  0  0  0  0  0  0  0
   -2.3561    5.7713  -19.1857 C   0  0  0  0  0  0  0  0  0  0  0  0
   -1.9353    4.3136  -19.2134 C   0  0  0  0  0  0  0  0  0  0  0  0
   -1.8729    6.5679  -20.4424 C   0  0  0  0  0  0  0  0  0  0  0  0
   -0.6706    7.0505  -19.6182 C   0  0  0  0  0  0  0  0  0  0  0  0
   -1.5202    6.7958  -18.3620 C   0  0  0  0  0  0  0  0  0  0  0  0
  1  2  1  0
  2  3  2  0
  3  4  1  0
  4  5  2  0
  5  6  1  0
  6  7  2  0
  7  8  1  0
  8  9  2  0
  9 10  1  0
 10 11  2  0
 11 12  1  0
 12 13  1  0
 13 14  1  0
 13 15  1  0
 15 16  1  0
 16 17  1  0
 11  2  1  0
 17 13  1  0
  9  4  1  0
M  END
>  <energy_score>  (4711) 
-22.369602

>  <alias>  (4711) 
CURNWSDRJBAGLO-UHFFFAOYSA-N-P7-P7-P91-601530

>  <HIPPO Pose ID>  (4711) 
85683

>  <smiles>  (4711) 
Cc1cc2ccccc2nc1NC1(C)CCC1

>  <inchikey>  (4711) 
CURNWSDRJBAGLO-UHFFFAOYSA-N

>  <distance_score>  (4711) 
1.0068

>  <ref_mols>  (4711) 
Z1688a,Z0089a

>  <ref_pdb>  (4711) 
Z0089a

>  <HIPPO Compound ID>  (4711) 
145993

>  <name>  (4711) 
CURNWSDRJBAGLO-UHFFFAOYSA-N-P7-P7-P91-601530

>  <inspiration_score>  (4711) 
None

$$$$
UKVLFCFYLKIFQO-UHFFFAOYSA-N-P7-P7-P91-601530
     RDKit          3D

 17 19  0  0  0  0  0  0  0  0999 V2000
   -5.0794    5.7264  -14.9424 C   0  0  0  0  0  0  0  0  0  0  0  0
   -5.4403    5.4456  -16.3693 C   0  0  0  0  0  0  0  0  0  0  0  0
   -4.4952    5.6696  -17.3702 C   0  0  0  0  0  0  0  0  0  0  0  0
   -4.8266    5.4414  -18.6944 C   0  0  0  0  0  0  0  0  0  0  0  0
   -3.9443    5.6744  -19.7518 N   0  0  0  0  0  0  0  0  0  0  0  0
   -2.5166    5.7658  -19.7366 C   0  0  0  0  0  0  0  0  0  0  0  0
   -1.8648    4.4236  -19.4469 C   0  0  0  0  0  0  0  0  0  0  0  0
   -1.9932    7.0084  -18.9544 C   0  0  0  0  0  0  0  0  0  0  0  0
   -1.0409    7.2936  -20.1264 C   0  0  0  0  0  0  0  0  0  0  0  0
   -1.9926    6.4819  -21.0209 C   0  0  0  0  0  0  0  0  0  0  0  0
   -6.0386    5.0074  -19.0574 N   0  0  0  0  0  0  0  0  0  0  0  0
   -6.9566    4.7721  -18.1116 C   0  0  0  0  0  0  0  0  0  0  0  0
   -8.2043    4.3313  -18.5043 C   0  0  0  0  0  0  0  0  0  0  0  0
   -9.2132    4.0579  -17.5831 C   0  0  0  0  0  0  0  0  0  0  0  0
   -8.9720    4.2116  -16.2320 C   0  0  0  0  0  0  0  0  0  0  0  0
   -7.7337    4.6663  -15.8111 C   0  0  0  0  0  0  0  0  0  0  0  0
   -6.7114    4.9633  -16.7382 C   0  0  0  0  0  0  0  0  0  0  0  0
  1  2  1  0
  2  3  2  0
  3  4  1  0
  4  5  1  0
  5  6  1  0
  6  7  1  0
  6  8  1  0
  8  9  1  0
  9 10  1  0
  4 11  2  0
 11 12  1  0
 12 13  2  0
 13 14  1  0
 14 15  2  0
 15 16  1  0
 16 17  2  0
 17  2  1  0
 10  6  1  0
 17 12  1  0
M  END
>  <energy_score>  (4712) 
-23.725987

>  <alias>  (4712) 
UKVLFCFYLKIFQO-UHFFFAOYSA-N-P7-P7-P91-601530

>  <HIPPO Pose ID>  (4712) 
85685

>  <smiles>  (4712) 
Cc1cc(NC2(C)CCC2)nc2ccccc12

>  <inchikey>  (4712) 
UKVLFCFYLKIFQO-UHFFFAOYSA-N

>  <distance_score>  (4712) 
1.775945

>  <ref_mols>  (4712) 
Z1688a,Z0089a

>  <ref_pdb>  (4712) 
Z0089a

>  <HIPPO Compound ID>  (4712) 
145994

>  <name>  (4712) 
UKVLFCFYLKIFQO-UHFFFAOYSA-N-P7-P7-P91-601530

>  <inspiration_score>  (4712) 
None

$$$$
VNKPGKAKAKZPMX-UHFFFAOYSA-N-P7-P7-P91-601530
     RDKit          3D

 17 19  0  0  0  0  0  0  0  0999 V2000
   -1.8615    4.2321  -19.2842 C   0  0  0  0  0  0  0  0  0  0  0  0
   -2.1543    5.7129  -19.1541 C   0  0  0  0  0  0  0  0  0  0  0  0
   -3.5642    5.9765  -19.1688 N   0  0  0  0  0  0  0  0  0  0  0  0
   -4.5287    5.5431  -18.2636 C   0  0  0  0  0  0  0  0  0  0  0  0
   -4.3943    5.5566  -16.8859 C   0  0  0  0  0  0  0  0  0  0  0  0
   -5.4869    5.1988  -16.0974 C   0  0  0  0  0  0  0  0  0  0  0  0
   -6.6810    4.8193  -16.7178 C   0  0  0  0  0  0  0  0  0  0  0  0
   -7.8304    4.4618  -16.0099 C   0  0  0  0  0  0  0  0  0  0  0  0
   -8.9727    4.1263  -16.7187 C   0  0  0  0  0  0  0  0  0  0  0  0
  -10.0718    3.7883  -16.0201 O   0  0  0  0  0  0  0  0  0  0  0  0
   -9.0059    4.0905  -18.0970 C   0  0  0  0  0  0  0  0  0  0  0  0
   -7.8466    4.4045  -18.7835 C   0  0  0  0  0  0  0  0  0  0  0  0
   -6.7015    4.7991  -18.1224 C   0  0  0  0  0  0  0  0  0  0  0  0
   -5.6569    5.1595  -18.8637 N   0  0  0  0  0  0  0  0  0  0  0  0
   -1.4570    6.5700  -20.2520 C   0  0  0  0  0  0  0  0  0  0  0  0
   -1.1872    7.6468  -19.1896 C   0  0  0  0  0  0  0  0  0  0  0  0
   -1.3454    6.5505  -18.1209 C   0  0  0  0  0  0  0  0  0  0  0  0
  1  2  1  0
  2  3  1  0
  3  4  1  0
  4  5  2  0
  5  6  1  0
  6  7  2  0
  7  8  1  0
  8  9  2  0
  9 10  1  0
  9 11  1  0
 11 12  2  0
 12 13  1  0
 13 14  2  0
  2 15  1  0
 15 16  1  0
 16 17  1  0
 17  2  1  0
 14  4  1  0
 13  7  1  0
M  END
>  <energy_score>  (4713) 
-33.247498

>  <alias>  (4713) 
VNKPGKAKAKZPMX-UHFFFAOYSA-N-P7-P7-P91-601530

>  <HIPPO Pose ID>  (4713) 
85687

>  <smiles>  (4713) 
CC1(Nc2ccc3cc(O)ccc3n2)CCC1

>  <inchikey>  (4713) 
VNKPGKAKAKZPMX-UHFFFAOYSA-N

>  <distance_score>  (4713) 
1.031645

>  <ref_mols>  (4713) 
Z1688a,Z0089a

>  <ref_pdb>  (4713) 
Z0089a

>  <HIPPO Compound ID>  (4713) 
145995

>  <name>  (4713) 
VNKPGKAKAKZPMX-UHFFFAOYSA-N-P7-P7-P91-601530

>  <inspiration_score>  (4713) 
None

$$$$
TWCIDLZTBKLFPI-UHFFFAOYSA-N-P91-P7-P91-601530
     RDKit          3D

 17 19  0  0  0  0  0  0  0  0999 V2000
   -1.4733    4.6441  -19.2594 C   0  0  0  0  0  0  0  0  0  0  0  0
   -2.5181    5.5487  -18.6230 C   0  0  0  0  0  0  0  0  0  0  0  0
   -3.7559    5.3392  -19.3055 N   0  0  0  0  0  0  0  0  0  0  0  0
   -5.0694    5.1034  -18.8526 C   0  0  0  0  0  0  0  0  0  0  0  0
   -5.9377    4.6212  -19.8184 C   0  0  0  0  0  0  0  0  0  0  0  0
   -7.2123    4.2375  -19.4817 C   0  0  0  0  0  0  0  0  0  0  0  0
   -7.6267    4.3984  -18.1865 C   0  0  0  0  0  0  0  0  0  0  0  0
   -8.9326    4.0385  -17.8947 C   0  0  0  0  0  0  0  0  0  0  0  0
   -9.3665    4.1046  -16.5928 C   0  0  0  0  0  0  0  0  0  0  0  0
   -8.5226    4.5519  -15.5910 C   0  0  0  0  0  0  0  0  0  0  0  0
   -7.2245    4.9471  -15.9145 C   0  0  0  0  0  0  0  0  0  0  0  0
   -6.4423    5.4086  -14.8870 O   0  0  0  0  0  0  0  0  0  0  0  0
   -6.7216    4.8836  -17.2219 C   0  0  0  0  0  0  0  0  0  0  0  0
   -5.4481    5.2249  -17.5677 N   0  0  0  0  0  0  0  0  0  0  0  0
   -2.1617    7.0619  -18.5798 C   0  0  0  0  0  0  0  0  0  0  0  0
   -2.7438    7.1072  -17.1517 C   0  0  0  0  0  0  0  0  0  0  0  0
   -2.5189    5.5836  -17.0748 C   0  0  0  0  0  0  0  0  0  0  0  0
  1  2  1  0
  2  3  1  0
  3  4  1  0
  4  5  2  0
  5  6  1  0
  6  7  2  0
  7  8  1  0
  8  9  2  0
  9 10  1  0
 10 11  2  0
 11 12  1  0
 11 13  1  0
 13 14  2  0
  2 15  1  0
 15 16  1  0
 16 17  1  0
 17  2  1  0
 14  4  1  0
 13  7  1  0
M  END
>  <energy_score>  (4714) 
-10.087412

>  <alias>  (4714) 
TWCIDLZTBKLFPI-UHFFFAOYSA-N-P91-P7-P91-601530

>  <HIPPO Pose ID>  (4714) 
85690

>  <smiles>  (4714) 
CC1(Nc2ccc3cccc(O)c3n2)CCC1

>  <inchikey>  (4714) 
TWCIDLZTBKLFPI-UHFFFAOYSA-N

>  <distance_score>  (4714) 
0.848374

>  <ref_mols>  (4714) 
Z1688a,Z0089a

>  <ref_pdb>  (4714) 
Z0089a

>  <HIPPO Compound ID>  (4714) 
145996

>  <name>  (4714) 
TWCIDLZTBKLFPI-UHFFFAOYSA-N-P91-P7-P91-601530

>  <inspiration_score>  (4714) 
None

$$$$
XKHTXRQAYKRUHH-UHFFFAOYSA-N-P7-P7-P91-601530
     RDKit          3D

 17 18  0  0  0  0  0  0  0  0999 V2000
   -3.6020    6.5540  -15.9455 C   0  0  0  0  0  0  0  0  0  0  0  0
   -4.7094    5.8494  -16.6688 C   0  0  0  0  0  0  0  0  0  0  0  0
   -5.8285    5.4441  -15.9248 C   0  0  0  0  0  0  0  0  0  0  0  0
   -6.9437    4.8996  -16.5693 C   0  0  0  0  0  0  0  0  0  0  0  0
   -8.1169    4.5398  -15.8897 C   0  0  0  0  0  0  0  0  0  0  0  0
   -9.2195    4.0888  -16.6081 C   0  0  0  0  0  0  0  0  0  0  0  0
   -9.1626    3.9852  -17.9895 C   0  0  0  0  0  0  0  0  0  0  0  0
   -7.9802    4.3005  -18.6484 C   0  0  0  0  0  0  0  0  0  0  0  0
   -6.8696    4.7532  -17.9616 C   0  0  0  0  0  0  0  0  0  0  0  0
   -5.7742    5.0604  -18.6603 N   0  0  0  0  0  0  0  0  0  0  0  0
   -4.7125    5.5889  -18.0393 C   0  0  0  0  0  0  0  0  0  0  0  0
   -3.7249    5.9179  -18.9444 N   0  0  0  0  0  0  0  0  0  0  0  0
   -2.3424    5.5253  -18.7116 C   0  0  1  0  0  0  0  0  0  0  0  0
   -2.0160    4.2088  -19.4045 C   0  0  0  0  0  0  0  0  0  0  0  0
   -1.4351    6.6762  -19.1652 C   0  0  0  0  0  0  0  0  0  0  0  0
   -1.4763    6.9834  -20.6560 C   0  0  0  0  0  0  0  0  0  0  0  0
   -0.5933    8.0688  -20.9243 O   0  0  0  0  0  0  0  0  0  0  0  0
  1  2  1  0
  2  3  2  0
  3  4  1  0
  4  5  2  0
  5  6  1  0
  6  7  2  0
  7  8  1  0
  8  9  2  0
  9 10  1  0
 10 11  2  0
 11 12  1  0
 12 13  1  0
 13 14  1  6
 13 15  1  0
 15 16  1  0
 16 17  1  0
 11  2  1  0
  9  4  1  0
M  END
>  <energy_score>  (4715) 
-22.210228

>  <alias>  (4715) 
XKHTXRQAYKRUHH-UHFFFAOYSA-N-P7-P7-P91-601530

>  <HIPPO Pose ID>  (4715) 
85691

>  <smiles>  (4715) 
Cc1cc2ccccc2nc1NC(C)CCO

>  <inchikey>  (4715) 
XKHTXRQAYKRUHH-UHFFFAOYSA-N

>  <distance_score>  (4715) 
0.90262

>  <ref_mols>  (4715) 
Z1688a,Z0089a

>  <ref_pdb>  (4715) 
Z0089a

>  <HIPPO Compound ID>  (4715) 
145997

>  <name>  (4715) 
XKHTXRQAYKRUHH-UHFFFAOYSA-N-P7-P7-P91-601530

>  <inspiration_score>  (4715) 
None

$$$$
IYUGFZNHCZPUIX-UHFFFAOYSA-N-P7-P7-P91-601530
     RDKit          3D

 17 18  0  0  0  0  0  0  0  0999 V2000
   -5.3812    5.9595  -14.7723 C   0  0  0  0  0  0  0  0  0  0  0  0
   -5.5978    5.6063  -16.2114 C   0  0  0  0  0  0  0  0  0  0  0  0
   -4.5906    5.8720  -17.1353 C   0  0  0  0  0  0  0  0  0  0  0  0
   -4.7653    5.5235  -18.4630 C   0  0  0  0  0  0  0  0  0  0  0  0
   -3.8053    5.7357  -19.4333 N   0  0  0  0  0  0  0  0  0  0  0  0
   -2.3916    5.5371  -19.1263 C   0  0  1  0  0  0  0  0  0  0  0  0
   -1.9637    4.1200  -19.4864 C   0  0  0  0  0  0  0  0  0  0  0  0
   -1.6127    6.6089  -19.9020 C   0  0  0  0  0  0  0  0  0  0  0  0
   -0.1292    6.6683  -19.5541 C   0  0  0  0  0  0  0  0  0  0  0  0
    0.0518    6.9985  -18.1828 O   0  0  0  0  0  0  0  0  0  0  0  0
   -5.9097    5.0056  -18.9189 N   0  0  0  0  0  0  0  0  0  0  0  0
   -6.9044    4.7762  -18.0531 C   0  0  0  0  0  0  0  0  0  0  0  0
   -8.0937    4.2787  -18.5428 C   0  0  0  0  0  0  0  0  0  0  0  0
   -9.1672    3.9860  -17.7055 C   0  0  0  0  0  0  0  0  0  0  0  0
   -9.0505    4.1762  -16.3427 C   0  0  0  0  0  0  0  0  0  0  0  0
   -7.8785    4.7021  -15.8271 C   0  0  0  0  0  0  0  0  0  0  0  0
   -6.7956    5.0266  -16.6710 C   0  0  0  0  0  0  0  0  0  0  0  0
  1  2  1  0
  2  3  2  0
  3  4  1  0
  4  5  1  0
  5  6  1  0
  6  7  1  6
  6  8  1  0
  8  9  1  0
  9 10  1  0
  4 11  2  0
 11 12  1  0
 12 13  2  0
 13 14  1  0
 14 15  2  0
 15 16  1  0
 16 17  2  0
 17  2  1  0
 17 12  1  0
M  END
>  <energy_score>  (4716) 
-36.802061

>  <alias>  (4716) 
IYUGFZNHCZPUIX-UHFFFAOYSA-N-P7-P7-P91-601530

>  <HIPPO Pose ID>  (4716) 
85693

>  <smiles>  (4716) 
Cc1cc(NC(C)CCO)nc2ccccc12

>  <inchikey>  (4716) 
IYUGFZNHCZPUIX-UHFFFAOYSA-N

>  <distance_score>  (4716) 
1.989345

>  <ref_mols>  (4716) 
Z1688a,Z0089a

>  <ref_pdb>  (4716) 
Z0089a

>  <HIPPO Compound ID>  (4716) 
145998

>  <name>  (4716) 
IYUGFZNHCZPUIX-UHFFFAOYSA-N-P7-P7-P91-601530

>  <inspiration_score>  (4716) 
None

$$$$
KSJZLKKBGHIJJG-UHFFFAOYSA-N-P7-P7-P91-601530
     RDKit          3D

 17 19  0  0  0  0  0  0  0  0999 V2000
   -3.2844    6.0417  -16.3486 C   0  0  0  0  0  0  0  0  0  0  0  0
   -4.5376    5.5365  -16.9904 C   0  0  0  0  0  0  0  0  0  0  0  0
   -5.6026    5.2117  -16.1215 C   0  0  0  0  0  0  0  0  0  0  0  0
   -6.8419    4.7972  -16.6220 C   0  0  0  0  0  0  0  0  0  0  0  0
   -7.9384    4.4708  -15.8097 C   0  0  0  0  0  0  0  0  0  0  0  0
   -9.1434    4.0923  -16.3946 C   0  0  0  0  0  0  0  0  0  0  0  0
   -9.2697    4.0313  -17.7743 C   0  0  0  0  0  0  0  0  0  0  0  0
   -8.1702    4.3347  -18.5665 C   0  0  0  0  0  0  0  0  0  0  0  0
   -6.9635    4.7198  -18.0099 C   0  0  0  0  0  0  0  0  0  0  0  0
   -5.9564    5.0237  -18.8275 N   0  0  0  0  0  0  0  0  0  0  0  0
   -4.7686    5.4396  -18.3583 C   0  0  0  0  0  0  0  0  0  0  0  0
   -3.9990    5.7576  -19.4216 N   0  0  0  0  0  0  0  0  0  0  0  0
   -2.5916    5.8731  -19.7026 C   0  0  0  0  0  0  0  0  0  0  0  0
   -1.7179    4.6941  -19.2754 C   0  0  0  0  0  0  0  0  0  0  0  0
   -0.4229    5.3731  -18.9436 C   0  0  0  0  0  0  0  0  0  0  0  0
   -0.5393    6.7048  -18.8907 C   0  0  0  0  0  0  0  0  0  0  0  0
   -1.9304    7.1580  -19.1988 C   0  0  0  0  0  0  0  0  0  0  0  0
  1  2  1  0
  2  3  2  0
  3  4  1  0
  4  5  2  0
  5  6  1  0
  6  7  2  0
  7  8  1  0
  8  9  2  0
  9 10  1  0
 10 11  2  0
 11 12  1  0
 12 13  1  0
 13 14  1  0
 14 15  1  0
 15 16  2  0
 16 17  1  0
 11  2  1  0
 17 13  1  0
  9  4  1  0
M  END
>  <energy_score>  (4717) 
-6.158447

>  <alias>  (4717) 
KSJZLKKBGHIJJG-UHFFFAOYSA-N-P7-P7-P91-601530

>  <HIPPO Pose ID>  (4717) 
85699

>  <smiles>  (4717) 
Cc1cc2ccccc2nc1NC1CC=CC1

>  <inchikey>  (4717) 
KSJZLKKBGHIJJG-UHFFFAOYSA-N

>  <distance_score>  (4717) 
1.02845

>  <ref_mols>  (4717) 
Z1688a,Z0089a

>  <ref_pdb>  (4717) 
Z0089a

>  <HIPPO Compound ID>  (4717) 
146001

>  <name>  (4717) 
KSJZLKKBGHIJJG-UHFFFAOYSA-N-P7-P7-P91-601530

>  <inspiration_score>  (4717) 
None

$$$$
YHDOWWXVNCQMCF-UHFFFAOYSA-N-P7-P7-P91-601530
     RDKit          3D

 17 19  0  0  0  0  0  0  0  0999 V2000
  -10.5612    3.8730  -16.9924 O   0  0  0  0  0  0  0  0  0  0  0  0
   -9.2711    4.1322  -17.3107 C   0  0  0  0  0  0  0  0  0  0  0  0
   -8.9489    4.0113  -18.6461 C   0  0  0  0  0  0  0  0  0  0  0  0
   -7.6638    4.2915  -19.0654 C   0  0  0  0  0  0  0  0  0  0  0  0
   -6.7168    4.7428  -18.1861 C   0  0  0  0  0  0  0  0  0  0  0  0
   -5.5584    5.1041  -18.7265 N   0  0  0  0  0  0  0  0  0  0  0  0
   -4.6196    5.6156  -17.9427 C   0  0  0  0  0  0  0  0  0  0  0  0
   -3.5620    6.1474  -18.6505 N   0  0  0  0  0  0  0  0  0  0  0  0
   -2.2332    5.5862  -18.3960 C   0  0  0  0  0  0  0  0  0  0  0  0
   -1.8145    4.6342  -19.5365 C   0  0  0  0  0  0  0  0  0  0  0  0
   -1.0447    5.5262  -20.4626 C   0  0  0  0  0  0  0  0  0  0  0  0
   -0.7146    6.6811  -19.8770 C   0  0  0  0  0  0  0  0  0  0  0  0
   -1.2163    6.7425  -18.4688 C   0  0  0  0  0  0  0  0  0  0  0  0
   -4.7680    5.7058  -16.5674 C   0  0  0  0  0  0  0  0  0  0  0  0
   -5.9809    5.3114  -15.9910 C   0  0  0  0  0  0  0  0  0  0  0  0
   -7.0184    4.8441  -16.8148 C   0  0  0  0  0  0  0  0  0  0  0  0
   -8.3187    4.5128  -16.3708 C   0  0  0  0  0  0  0  0  0  0  0  0
  1  2  1  0
  2  3  2  0
  3  4  1  0
  4  5  2  0
  5  6  1  0
  6  7  2  0
  7  8  1  0
  8  9  1  0
  9 10  1  0
 10 11  1  0
 11 12  2  0
 12 13  1  0
  7 14  1  0
 14 15  2  0
 15 16  1  0
 16 17  2  0
 17  2  1  0
 16  5  1  0
 13  9  1  0
M  END
>  <energy_score>  (4718) 
-19.444492

>  <alias>  (4718) 
YHDOWWXVNCQMCF-UHFFFAOYSA-N-P7-P7-P91-601530

>  <HIPPO Pose ID>  (4718) 
85703

>  <smiles>  (4718) 
Oc1ccc2nc(NC3CC=CC3)ccc2c1

>  <inchikey>  (4718) 
YHDOWWXVNCQMCF-UHFFFAOYSA-N

>  <distance_score>  (4718) 
0.922854

>  <ref_mols>  (4718) 
Z1688a,Z0089a

>  <ref_pdb>  (4718) 
Z0089a

>  <HIPPO Compound ID>  (4718) 
146003

>  <name>  (4718) 
YHDOWWXVNCQMCF-UHFFFAOYSA-N-P7-P7-P91-601530

>  <inspiration_score>  (4718) 
None

$$$$
UWVLLEGAYFSSDN-UHFFFAOYSA-N-P91-P7-P91-601530
     RDKit          3D

 17 19  0  0  0  0  0  0  0  0999 V2000
   -6.7337    5.4153  -14.8412 O   0  0  0  0  0  0  0  0  0  0  0  0
   -7.3812    4.9598  -15.9626 C   0  0  0  0  0  0  0  0  0  0  0  0
   -8.6984    4.5267  -15.7966 C   0  0  0  0  0  0  0  0  0  0  0  0
   -9.4252    4.0992  -16.8965 C   0  0  0  0  0  0  0  0  0  0  0  0
   -8.8196    4.0300  -18.1324 C   0  0  0  0  0  0  0  0  0  0  0  0
   -7.4951    4.4365  -18.2738 C   0  0  0  0  0  0  0  0  0  0  0  0
   -6.9128    4.3258  -19.5169 C   0  0  0  0  0  0  0  0  0  0  0  0
   -5.6763    4.8877  -19.7322 C   0  0  0  0  0  0  0  0  0  0  0  0
   -5.0027    5.4677  -18.6773 C   0  0  0  0  0  0  0  0  0  0  0  0
   -3.7877    6.0945  -18.9440 N   0  0  0  0  0  0  0  0  0  0  0  0
   -2.6120    5.4352  -18.3765 C   0  0  0  0  0  0  0  0  0  0  0  0
   -1.8873    4.6059  -19.4597 C   0  0  0  0  0  0  0  0  0  0  0  0
   -0.8234    5.5355  -19.9563 C   0  0  0  0  0  0  0  0  0  0  0  0
   -0.6645    6.5864  -19.1467 C   0  0  0  0  0  0  0  0  0  0  0  0
   -1.5979    6.5251  -17.9784 C   0  0  0  0  0  0  0  0  0  0  0  0
   -5.4872    5.4525  -17.4193 N   0  0  0  0  0  0  0  0  0  0  0  0
   -6.7418    4.9669  -17.2102 C   0  0  0  0  0  0  0  0  0  0  0  0
  1  2  1  0
  2  3  2  0
  3  4  1  0
  4  5  2  0
  5  6  1  0
  6  7  2  0
  7  8  1  0
  8  9  2  0
  9 10  1  0
 10 11  1  0
 11 12  1  0
 12 13  1  0
 13 14  2  0
 14 15  1  0
  9 16  1  0
 16 17  2  0
 17  2  1  0
 17  6  1  0
 15 11  1  0
M  END
>  <energy_score>  (4719) 
-15.989666

>  <alias>  (4719) 
UWVLLEGAYFSSDN-UHFFFAOYSA-N-P91-P7-P91-601530

>  <HIPPO Pose ID>  (4719) 
85706

>  <smiles>  (4719) 
Oc1cccc2ccc(NC3CC=CC3)nc12

>  <inchikey>  (4719) 
UWVLLEGAYFSSDN-UHFFFAOYSA-N

>  <distance_score>  (4719) 
0.782742

>  <ref_mols>  (4719) 
Z1688a,Z0089a

>  <ref_pdb>  (4719) 
Z0089a

>  <HIPPO Compound ID>  (4719) 
146004

>  <name>  (4719) 
UWVLLEGAYFSSDN-UHFFFAOYSA-N-P91-P7-P91-601530

>  <inspiration_score>  (4719) 
None

$$$$
FREQKYNEDZVYFS-UHFFFAOYSA-N-P91-P7-P91-601530
     RDKit          3D

 17 19  0  0  0  0  0  0  0  0999 V2000
   -3.3932    6.5037  -16.0494 C   0  0  0  0  0  0  0  0  0  0  0  0
   -4.5558    5.8626  -16.7413 C   0  0  0  0  0  0  0  0  0  0  0  0
   -5.6638    5.4709  -15.9757 C   0  0  0  0  0  0  0  0  0  0  0  0
   -6.8055    4.9596  -16.6005 C   0  0  0  0  0  0  0  0  0  0  0  0
   -7.9572    4.5911  -15.8908 C   0  0  0  0  0  0  0  0  0  0  0  0
   -9.0741    4.1367  -16.5813 C   0  0  0  0  0  0  0  0  0  0  0  0
   -9.0537    4.0413  -17.9632 C   0  0  0  0  0  0  0  0  0  0  0  0
   -7.8962    4.3719  -18.6553 C   0  0  0  0  0  0  0  0  0  0  0  0
   -6.7729    4.8356  -17.9980 C   0  0  0  0  0  0  0  0  0  0  0  0
   -5.7020    5.1667  -18.7249 N   0  0  0  0  0  0  0  0  0  0  0  0
   -4.6210    5.6734  -18.1232 C   0  0  0  0  0  0  0  0  0  0  0  0
   -3.6454    6.0466  -19.0390 N   0  0  0  0  0  0  0  0  0  0  0  0
   -2.3383    5.3940  -18.9177 C   0  0  1  0  0  0  0  0  0  0  0  0
   -1.9562    4.6753  -20.2113 C   0  0  0  0  0  0  0  0  0  0  0  0
   -1.5737    5.7235  -21.2444 C   0  0  0  0  0  0  0  0  0  0  0  0
   -0.6575    6.9841  -20.3298 S   0  0  0  0  0  0  0  0  0  0  0  0
   -1.2334    6.4344  -18.6937 C   0  0  0  0  0  0  0  0  0  0  0  0
  1  2  1  0
  2  3  2  0
  3  4  1  0
  4  5  2  0
  5  6  1  0
  6  7  2  0
  7  8  1  0
  8  9  2  0
  9 10  1  0
 10 11  2  0
 11 12  1  0
 13 12  1  6
 13 14  1  0
 14 15  1  0
 15 16  1  0
 16 17  1  0
 11  2  1  0
 17 13  1  0
  9  4  1  0
M  END
>  <energy_score>  (4720) 
-26.365764

>  <alias>  (4720) 
FREQKYNEDZVYFS-UHFFFAOYSA-N-P91-P7-P91-601530

>  <HIPPO Pose ID>  (4720) 
85708

>  <smiles>  (4720) 
Cc1cc2ccccc2nc1NC1CCSC1

>  <inchikey>  (4720) 
FREQKYNEDZVYFS-UHFFFAOYSA-N

>  <distance_score>  (4720) 
0.978469

>  <ref_mols>  (4720) 
Z1688a,Z0089a

>  <ref_pdb>  (4720) 
Z0089a

>  <HIPPO Compound ID>  (4720) 
146005

>  <name>  (4720) 
FREQKYNEDZVYFS-UHFFFAOYSA-N-P91-P7-P91-601530

>  <inspiration_score>  (4720) 
None

$$$$
COJFJPLURWOKJF-UHFFFAOYSA-N-P91-P7-P91-601530
     RDKit          3D

 17 19  0  0  0  0  0  0  0  0999 V2000
   -5.2296    6.0629  -14.9179 C   0  0  0  0  0  0  0  0  0  0  0  0
   -5.5008    5.6886  -16.3427 C   0  0  0  0  0  0  0  0  0  0  0  0
   -4.5286    5.9275  -17.3097 C   0  0  0  0  0  0  0  0  0  0  0  0
   -4.7562    5.5517  -18.6248 C   0  0  0  0  0  0  0  0  0  0  0  0
   -3.8107    5.7175  -19.6270 N   0  0  0  0  0  0  0  0  0  0  0  0
   -2.4261    5.3920  -19.2964 C   0  0  1  0  0  0  0  0  0  0  0  0
   -1.7382    4.6825  -20.4540 C   0  0  0  0  0  0  0  0  0  0  0  0
   -1.4548    5.7147  -21.5332 C   0  0  0  0  0  0  0  0  0  0  0  0
   -0.9313    7.2001  -20.6431 S   0  0  0  0  0  0  0  0  0  0  0  0
   -1.6039    6.6628  -19.0391 C   0  0  0  0  0  0  0  0  0  0  0  0
   -5.9112    5.0165  -19.0240 N   0  0  0  0  0  0  0  0  0  0  0  0
   -6.8758    4.8181  -18.1185 C   0  0  0  0  0  0  0  0  0  0  0  0
   -8.0819    4.3096  -18.5519 C   0  0  0  0  0  0  0  0  0  0  0  0
   -9.1205    4.0399  -17.6666 C   0  0  0  0  0  0  0  0  0  0  0  0
   -8.9483    4.2584  -16.3144 C   0  0  0  0  0  0  0  0  0  0  0  0
   -7.7615    4.7992  -15.8553 C   0  0  0  0  0  0  0  0  0  0  0  0
   -6.7151    5.1044  -16.7473 C   0  0  0  0  0  0  0  0  0  0  0  0
  1  2  1  0
  2  3  2  0
  3  4  1  0
  4  5  1  0
  6  5  1  6
  6  7  1  0
  7  8  1  0
  8  9  1  0
  9 10  1  0
  4 11  2  0
 11 12  1  0
 12 13  2  0
 13 14  1  0
 14 15  2  0
 15 16  1  0
 16 17  2  0
 17  2  1  0
 10  6  1  0
 17 12  1  0
M  END
>  <energy_score>  (4721) 
-25.290664

>  <alias>  (4721) 
COJFJPLURWOKJF-UHFFFAOYSA-N-P91-P7-P91-601530

>  <HIPPO Pose ID>  (4721) 
85710

>  <smiles>  (4721) 
Cc1cc(NC2CCSC2)nc2ccccc12

>  <inchikey>  (4721) 
COJFJPLURWOKJF-UHFFFAOYSA-N

>  <distance_score>  (4721) 
1.767495

>  <ref_mols>  (4721) 
Z1688a,Z0089a

>  <ref_pdb>  (4721) 
Z0089a

>  <HIPPO Compound ID>  (4721) 
146006

>  <name>  (4721) 
COJFJPLURWOKJF-UHFFFAOYSA-N-P91-P7-P91-601530

>  <inspiration_score>  (4721) 
None

$$$$
PSCAMFXAGSEQRY-UHFFFAOYSA-N-P91-P7-P91-601530
     RDKit          3D

 17 18  0  0  0  0  0  0  0  0999 V2000
   -1.2999    5.7970  -21.8633 C   0  0  0  0  0  0  0  0  0  0  0  0
   -0.9768    5.7811  -20.5643 C   0  0  0  0  0  0  0  0  0  0  0  0
   -1.5590    4.8474  -19.5294 C   0  0  0  0  0  0  0  0  0  0  0  0
   -2.7112    5.4458  -18.6780 C   0  0  1  0  0  0  0  0  0  0  0  0
   -2.3434    6.8008  -18.0819 C   0  0  0  0  0  0  0  0  0  0  0  0
   -3.8937    5.6111  -19.5197 N   0  0  0  0  0  0  0  0  0  0  0  0
   -5.1094    5.1573  -18.9827 C   0  0  0  0  0  0  0  0  0  0  0  0
   -6.0333    4.6831  -19.8964 C   0  0  0  0  0  0  0  0  0  0  0  0
   -7.2664    4.2436  -19.4765 C   0  0  0  0  0  0  0  0  0  0  0  0
   -7.6020    4.3851  -18.1558 C   0  0  0  0  0  0  0  0  0  0  0  0
   -8.8881    4.0128  -17.7897 C   0  0  0  0  0  0  0  0  0  0  0  0
   -9.2540    4.0860  -16.4665 C   0  0  0  0  0  0  0  0  0  0  0  0
   -8.3623    4.5496  -15.5166 C   0  0  0  0  0  0  0  0  0  0  0  0
   -7.0854    4.9525  -15.9129 C   0  0  0  0  0  0  0  0  0  0  0  0
   -6.2579    5.4361  -14.9315 O   0  0  0  0  0  0  0  0  0  0  0  0
   -6.6478    4.8853  -17.2457 C   0  0  0  0  0  0  0  0  0  0  0  0
   -5.4012    5.2548  -17.6684 N   0  0  0  0  0  0  0  0  0  0  0  0
  1  2  2  0
  2  3  1  0
  3  4  1  0
  4  5  1  6
  4  6  1  0
  6  7  1  0
  7  8  2  0
  8  9  1  0
  9 10  2  0
 10 11  1  0
 11 12  2  0
 12 13  1  0
 13 14  2  0
 14 15  1  0
 14 16  1  0
 16 17  2  0
 17  7  1  0
 16 10  1  0
M  END
>  <energy_score>  (4722) 
-29.122264

>  <alias>  (4722) 
PSCAMFXAGSEQRY-UHFFFAOYSA-N-P91-P7-P91-601530

>  <HIPPO Pose ID>  (4722) 
85718

>  <smiles>  (4722) 
C=CCC(C)Nc1ccc2cccc(O)c2n1

>  <inchikey>  (4722) 
PSCAMFXAGSEQRY-UHFFFAOYSA-N

>  <distance_score>  (4722) 
0.861934

>  <ref_mols>  (4722) 
Z1688a,Z0089a

>  <ref_pdb>  (4722) 
Z0089a

>  <HIPPO Compound ID>  (4722) 
146010

>  <name>  (4722) 
PSCAMFXAGSEQRY-UHFFFAOYSA-N-P91-P7-P91-601530

>  <inspiration_score>  (4722) 
None

$$$$
MYBSAXJEFFKXOY-UHFFFAOYSA-N-P7-P7-P91-601530
     RDKit          3D

 17 19  0  0  0  0  0  0  0  0999 V2000
  -10.5245    3.8648  -16.9039 O   0  0  0  0  0  0  0  0  0  0  0  0
   -9.2491    4.1320  -17.2640 C   0  0  0  0  0  0  0  0  0  0  0  0
   -8.9812    4.0061  -18.6098 C   0  0  0  0  0  0  0  0  0  0  0  0
   -7.7126    4.2720  -19.0751 C   0  0  0  0  0  0  0  0  0  0  0  0
   -6.7305    4.7083  -18.2295 C   0  0  0  0  0  0  0  0  0  0  0  0
   -5.5878    5.0288  -18.8160 N   0  0  0  0  0  0  0  0  0  0  0  0
   -4.5871    5.4879  -18.0775 C   0  0  0  0  0  0  0  0  0  0  0  0
   -3.5240    5.9192  -18.8537 N   0  0  0  0  0  0  0  0  0  0  0  0
   -2.1417    5.6623  -18.6275 C   0  0  1  0  0  0  0  0  0  0  0  0
   -1.5901    4.5325  -19.5246 C   0  0  0  0  0  0  0  0  0  0  0  0
   -1.2200    5.5976  -20.5798 C   0  0  1  0  0  0  0  0  0  0  0  0
   -2.1668    5.7558  -21.6652 O   0  0  0  0  0  0  0  0  0  0  0  0
   -1.2857    6.6501  -19.4482 C   0  0  0  0  0  0  0  0  0  0  0  0
   -4.6753    5.5975  -16.6999 C   0  0  0  0  0  0  0  0  0  0  0  0
   -5.8843    5.2623  -16.0731 C   0  0  0  0  0  0  0  0  0  0  0  0
   -6.9727    4.8222  -16.8493 C   0  0  0  0  0  0  0  0  0  0  0  0
   -8.2620    4.5118  -16.3588 C   0  0  0  0  0  0  0  0  0  0  0  0
  1  2  1  0
  2  3  2  0
  3  4  1  0
  4  5  2  0
  5  6  1  0
  6  7  2  0
  7  8  1  0
  9  8  1  6
  9 10  1  0
 10 11  1  0
 11 12  1  6
 11 13  1  0
  7 14  1  0
 14 15  2  0
 15 16  1  0
 16 17  2  0
 17  2  1  0
 16  5  1  0
 13  9  1  0
M  END
>  <energy_score>  (4723) 
-25.216789

>  <alias>  (4723) 
MYBSAXJEFFKXOY-UHFFFAOYSA-N-P7-P7-P91-601530

>  <HIPPO Pose ID>  (4723) 
85727

>  <smiles>  (4723) 
Oc1ccc2nc(NC3CC(O)C3)ccc2c1

>  <inchikey>  (4723) 
MYBSAXJEFFKXOY-UHFFFAOYSA-N

>  <distance_score>  (4723) 
0.912947

>  <ref_mols>  (4723) 
Z1688a,Z0089a

>  <ref_pdb>  (4723) 
Z0089a

>  <HIPPO Compound ID>  (4723) 
146015

>  <name>  (4723) 
MYBSAXJEFFKXOY-UHFFFAOYSA-N-P7-P7-P91-601530

>  <inspiration_score>  (4723) 
None

$$$$
VSDRSNBLSOQKCC-UHFFFAOYSA-N-P91-P7-P91-601530
     RDKit          3D

 17 19  0  0  0  0  0  0  0  0999 V2000
   -6.9364    5.2318  -14.7907 O   0  0  0  0  0  0  0  0  0  0  0  0
   -7.5098    4.8663  -15.9836 C   0  0  0  0  0  0  0  0  0  0  0  0
   -8.8467    4.4711  -15.9464 C   0  0  0  0  0  0  0  0  0  0  0  0
   -9.5018    4.1274  -17.1204 C   0  0  0  0  0  0  0  0  0  0  0  0
   -8.7983    4.1047  -18.3086 C   0  0  0  0  0  0  0  0  0  0  0  0
   -7.4496    4.4664  -18.3238 C   0  0  0  0  0  0  0  0  0  0  0  0
   -6.7493    4.3940  -19.5127 C   0  0  0  0  0  0  0  0  0  0  0  0
   -5.4600    4.8719  -19.5789 C   0  0  0  0  0  0  0  0  0  0  0  0
   -4.8627    5.3325  -18.4270 C   0  0  0  0  0  0  0  0  0  0  0  0
   -3.5732    5.8481  -18.4362 N   0  0  0  0  0  0  0  0  0  0  0  0
   -2.6102    5.8263  -19.4734 C   0  0  2  0  0  0  0  0  0  0  0  0
   -1.7970    4.5217  -19.5255 C   0  0  0  0  0  0  0  0  0  0  0  0
   -0.5211    5.3795  -19.6502 C   0  0  1  0  0  0  0  0  0  0  0  0
   -0.0105    5.5454  -20.9871 O   0  0  0  0  0  0  0  0  0  0  0  0
   -1.3207    6.5675  -19.0800 C   0  0  0  0  0  0  0  0  0  0  0  0
   -5.4881    5.3320  -17.2337 N   0  0  0  0  0  0  0  0  0  0  0  0
   -6.7753    4.9074  -17.1720 C   0  0  0  0  0  0  0  0  0  0  0  0
  1  2  1  0
  2  3  2  0
  3  4  1  0
  4  5  2  0
  5  6  1  0
  6  7  2  0
  7  8  1  0
  8  9  2  0
  9 10  1  0
 11 10  1  1
 11 12  1  0
 12 13  1  0
 13 14  1  6
 13 15  1  0
  9 16  1  0
 16 17  2  0
 17  2  1  0
 17  6  1  0
 15 11  1  0
M  END
>  <energy_score>  (4724) 
-24.738424

>  <alias>  (4724) 
VSDRSNBLSOQKCC-UHFFFAOYSA-N-P91-P7-P91-601530

>  <HIPPO Pose ID>  (4724) 
85730

>  <smiles>  (4724) 
Oc1cccc2ccc(NC3CC(O)C3)nc12

>  <inchikey>  (4724) 
VSDRSNBLSOQKCC-UHFFFAOYSA-N

>  <distance_score>  (4724) 
0.786654

>  <ref_mols>  (4724) 
Z1688a,Z0089a

>  <ref_pdb>  (4724) 
Z0089a

>  <HIPPO Compound ID>  (4724) 
146016

>  <name>  (4724) 
VSDRSNBLSOQKCC-UHFFFAOYSA-N-P91-P7-P91-601530

>  <inspiration_score>  (4724) 
None

$$$$
MIFMWIHDCNVTAY-UHFFFAOYSA-N-P7-P7-P91-601530
     RDKit          3D

 17 19  0  0  0  0  0  0  0  0999 V2000
   -3.4592    5.9768  -15.9570 C   0  0  0  0  0  0  0  0  0  0  0  0
   -4.6874    5.5288  -16.6834 C   0  0  0  0  0  0  0  0  0  0  0  0
   -5.8017    5.1211  -15.9227 C   0  0  0  0  0  0  0  0  0  0  0  0
   -6.9851    4.7399  -16.5550 C   0  0  0  0  0  0  0  0  0  0  0  0
   -8.1333    4.3654  -15.8473 C   0  0  0  0  0  0  0  0  0  0  0  0
   -9.2856    4.0233  -16.5443 C   0  0  0  0  0  0  0  0  0  0  0  0
   -9.2997    4.0218  -17.9299 C   0  0  0  0  0  0  0  0  0  0  0  0
   -8.1454    4.3669  -18.6195 C   0  0  0  0  0  0  0  0  0  0  0  0
   -6.9961    4.7499  -17.9557 C   0  0  0  0  0  0  0  0  0  0  0  0
   -5.9465    5.1449  -18.6795 N   0  0  0  0  0  0  0  0  0  0  0  0
   -4.8207    5.5435  -18.0725 C   0  0  0  0  0  0  0  0  0  0  0  0
   -3.9210    6.0662  -19.0048 N   0  0  0  0  0  0  0  0  0  0  0  0
   -2.4828    5.7469  -19.0392 C   0  0  0  0  0  0  0  0  0  0  0  0
   -2.1394    4.3470  -19.1874 C   0  0  0  0  0  0  0  0  0  0  0  0
   -1.8595    3.2338  -19.3471 N   0  0  0  0  0  0  0  0  0  0  0  0
   -1.6317    6.6863  -19.8885 C   0  0  0  0  0  0  0  0  0  0  0  0
   -1.4698    6.6794  -18.4058 C   0  0  0  0  0  0  0  0  0  0  0  0
  1  2  1  0
  2  3  2  0
  3  4  1  0
  4  5  2  0
  5  6  1  0
  6  7  2  0
  7  8  1  0
  8  9  2  0
  9 10  1  0
 10 11  2  0
 11 12  1  0
 12 13  1  0
 13 14  1  0
 14 15  3  0
 13 16  1  0
 16 17  1  0
 11  2  1  0
 17 13  1  0
  9  4  1  0
M  END
>  <energy_score>  (4725) 
-16.136198

>  <alias>  (4725) 
MIFMWIHDCNVTAY-UHFFFAOYSA-N-P7-P7-P91-601530

>  <HIPPO Pose ID>  (4725) 
85731

>  <smiles>  (4725) 
Cc1cc2ccccc2nc1NC1(C#N)CC1

>  <inchikey>  (4725) 
MIFMWIHDCNVTAY-UHFFFAOYSA-N

>  <distance_score>  (4725) 
1.460953

>  <ref_mols>  (4725) 
Z1688a,Z0089a

>  <ref_pdb>  (4725) 
Z0089a

>  <HIPPO Compound ID>  (4725) 
146017

>  <name>  (4725) 
MIFMWIHDCNVTAY-UHFFFAOYSA-N-P7-P7-P91-601530

>  <inspiration_score>  (4725) 
None

$$$$
FKMOINOOVZFLIR-UHFFFAOYSA-N-P7-P7-P91-601530
     RDKit          3D

 17 19  0  0  0  0  0  0  0  0999 V2000
   -5.1244    5.7970  -14.9409 C   0  0  0  0  0  0  0  0  0  0  0  0
   -5.5063    5.5248  -16.3642 C   0  0  0  0  0  0  0  0  0  0  0  0
   -4.5990    5.8115  -17.3824 C   0  0  0  0  0  0  0  0  0  0  0  0
   -4.9524    5.5703  -18.6996 C   0  0  0  0  0  0  0  0  0  0  0  0
   -4.1100    5.8614  -19.7780 N   0  0  0  0  0  0  0  0  0  0  0  0
   -2.6478    5.7356  -19.6560 C   0  0  0  0  0  0  0  0  0  0  0  0
   -2.1419    4.3893  -19.4786 C   0  0  0  0  0  0  0  0  0  0  0  0
   -1.7535    3.3042  -19.3641 N   0  0  0  0  0  0  0  0  0  0  0  0
   -1.8056    6.6490  -20.5267 C   0  0  0  0  0  0  0  0  0  0  0  0
   -1.8451    6.8740  -19.0510 C   0  0  0  0  0  0  0  0  0  0  0  0
   -6.1483    5.0848  -19.0439 N   0  0  0  0  0  0  0  0  0  0  0  0
   -7.0340    4.8066  -18.0830 C   0  0  0  0  0  0  0  0  0  0  0  0
   -8.2730    4.3318  -18.4605 C   0  0  0  0  0  0  0  0  0  0  0  0
   -9.2581    4.0318  -17.5244 C   0  0  0  0  0  0  0  0  0  0  0  0
   -8.9964    4.1866  -16.1771 C   0  0  0  0  0  0  0  0  0  0  0  0
   -7.7624    4.6663  -15.7718 C   0  0  0  0  0  0  0  0  0  0  0  0
   -6.7664    4.9976  -16.7132 C   0  0  0  0  0  0  0  0  0  0  0  0
  1  2  1  0
  2  3  2  0
  3  4  1  0
  4  5  1  0
  5  6  1  0
  6  7  1  0
  7  8  3  0
  6  9  1  0
  9 10  1  0
  4 11  2  0
 11 12  1  0
 12 13  2  0
 13 14  1  0
 14 15  2  0
 15 16  1  0
 16 17  2  0
 17  2  1  0
 10  6  1  0
 17 12  1  0
M  END
>  <energy_score>  (4726) 
-20.153445

>  <alias>  (4726) 
FKMOINOOVZFLIR-UHFFFAOYSA-N-P7-P7-P91-601530

>  <HIPPO Pose ID>  (4726) 
85733

>  <smiles>  (4726) 
Cc1cc(NC2(C#N)CC2)nc2ccccc12

>  <inchikey>  (4726) 
FKMOINOOVZFLIR-UHFFFAOYSA-N

>  <distance_score>  (4726) 
1.807333

>  <ref_mols>  (4726) 
Z1688a,Z0089a

>  <ref_pdb>  (4726) 
Z0089a

>  <HIPPO Compound ID>  (4726) 
146018

>  <name>  (4726) 
FKMOINOOVZFLIR-UHFFFAOYSA-N-P7-P7-P91-601530

>  <inspiration_score>  (4726) 
None

$$$$
ZWENWKFNBGIEQG-UHFFFAOYSA-N-P7-P7-P91-601530
     RDKit          3D

 17 19  0  0  0  0  0  0  0  0999 V2000
   -1.7976    3.3661  -19.5509 N   0  0  0  0  0  0  0  0  0  0  0  0
   -1.9850    4.4208  -19.1096 C   0  0  0  0  0  0  0  0  0  0  0  0
   -2.2346    5.7573  -18.6043 C   0  0  0  0  0  0  0  0  0  0  0  0
   -3.6150    6.2508  -18.7848 N   0  0  0  0  0  0  0  0  0  0  0  0
   -4.6468    5.6982  -18.0260 C   0  0  0  0  0  0  0  0  0  0  0  0
   -4.7500    5.7710  -16.6465 C   0  0  0  0  0  0  0  0  0  0  0  0
   -5.9424    5.3549  -16.0389 C   0  0  0  0  0  0  0  0  0  0  0  0
   -6.9979    4.8740  -16.8340 C   0  0  0  0  0  0  0  0  0  0  0  0
   -8.2831    4.5234  -16.3609 C   0  0  0  0  0  0  0  0  0  0  0  0
   -9.2493    4.1260  -17.2800 C   0  0  0  0  0  0  0  0  0  0  0  0
  -10.5317    3.8596  -16.9415 O   0  0  0  0  0  0  0  0  0  0  0  0
   -8.9532    3.9957  -18.6200 C   0  0  0  0  0  0  0  0  0  0  0  0
   -7.6842    4.2963  -19.0676 C   0  0  0  0  0  0  0  0  0  0  0  0
   -6.7319    4.7782  -18.2117 C   0  0  0  0  0  0  0  0  0  0  0  0
   -5.6035    5.1778  -18.7833 N   0  0  0  0  0  0  0  0  0  0  0  0
   -1.1357    6.7685  -18.8835 C   0  0  0  0  0  0  0  0  0  0  0  0
   -1.3679    6.2895  -17.4845 C   0  0  0  0  0  0  0  0  0  0  0  0
  1  2  3  0
  2  3  1  0
  3  4  1  0
  4  5  1  0
  5  6  2  0
  6  7  1  0
  7  8  2  0
  8  9  1  0
  9 10  2  0
 10 11  1  0
 10 12  1  0
 12 13  2  0
 13 14  1  0
 14 15  2  0
  3 16  1  0
 16 17  1  0
 17  3  1  0
 15  5  1  0
 14  8  1  0
M  END
>  <energy_score>  (4727) 
-16.075347

>  <alias>  (4727) 
ZWENWKFNBGIEQG-UHFFFAOYSA-N-P7-P7-P91-601530

>  <HIPPO Pose ID>  (4727) 
85735

>  <smiles>  (4727) 
N#CC1(Nc2ccc3cc(O)ccc3n2)CC1

>  <inchikey>  (4727) 
ZWENWKFNBGIEQG-UHFFFAOYSA-N

>  <distance_score>  (4727) 
0.922181

>  <ref_mols>  (4727) 
Z1688a,Z0089a

>  <ref_pdb>  (4727) 
Z0089a

>  <HIPPO Compound ID>  (4727) 
146019

>  <name>  (4727) 
ZWENWKFNBGIEQG-UHFFFAOYSA-N-P7-P7-P91-601530

>  <inspiration_score>  (4727) 
None

$$$$
ZVJCDQBSIYZUKK-UHFFFAOYSA-N-P91-P7-P91-601530
     RDKit          3D

 17 18  0  0  0  0  0  0  0  0999 V2000
   -0.1039    5.4491  -19.4862 C   0  0  0  0  0  0  0  0  0  0  0  0
   -1.5042    4.8750  -19.2940 C   0  0  0  0  0  0  0  0  0  0  0  0
   -2.6000    5.7532  -19.9218 C   0  0  2  0  0  0  0  0  0  0  0  0
   -2.5773    7.1467  -19.4127 C   0  0  0  0  0  0  0  0  0  0  0  0
   -2.5288    8.2361  -19.0089 N   0  0  0  0  0  0  0  0  0  0  0  0
   -3.8836    5.0846  -19.8080 N   0  0  0  0  0  0  0  0  0  0  0  0
   -4.7576    5.1626  -18.7577 C   0  0  0  0  0  0  0  0  0  0  0  0
   -4.4059    5.4912  -17.4587 C   0  0  0  0  0  0  0  0  0  0  0  0
   -5.3613    5.4452  -16.4440 C   0  0  0  0  0  0  0  0  0  0  0  0
   -4.9723    5.8171  -15.0455 C   0  0  0  0  0  0  0  0  0  0  0  0
   -6.6577    5.0080  -16.7681 C   0  0  0  0  0  0  0  0  0  0  0  0
   -7.6687    4.8078  -15.8096 C   0  0  0  0  0  0  0  0  0  0  0  0
   -8.9206    4.3563  -16.1839 C   0  0  0  0  0  0  0  0  0  0  0  0
   -9.1997    4.1442  -17.5199 C   0  0  0  0  0  0  0  0  0  0  0  0
   -8.2042    4.3321  -18.4737 C   0  0  0  0  0  0  0  0  0  0  0  0
   -6.9315    4.7313  -18.1209 C   0  0  0  0  0  0  0  0  0  0  0  0
   -6.0055    4.8150  -19.0817 N   0  0  0  0  0  0  0  0  0  0  0  0
  1  2  1  0
  3  2  1  1
  3  4  1  0
  4  5  3  0
  3  6  1  0
  6  7  1  0
  7  8  2  0
  8  9  1  0
  9 10  1  0
  9 11  2  0
 11 12  1  0
 12 13  2  0
 13 14  1  0
 14 15  2  0
 15 16  1  0
 16 17  2  0
 17  7  1  0
 16 11  1  0
M  END
>  <energy_score>  (4728) 
-35.61531

>  <alias>  (4728) 
ZVJCDQBSIYZUKK-UHFFFAOYSA-N-P91-P7-P91-601530

>  <HIPPO Pose ID>  (4728) 
85742

>  <smiles>  (4728) 
CCC(C#N)Nc1cc(C)c2ccccc2n1

>  <inchikey>  (4728) 
ZVJCDQBSIYZUKK-UHFFFAOYSA-N

>  <distance_score>  (4728) 
1.954443

>  <ref_mols>  (4728) 
Z1688a,Z0089a

>  <ref_pdb>  (4728) 
Z0089a

>  <HIPPO Compound ID>  (4728) 
146022

>  <name>  (4728) 
ZVJCDQBSIYZUKK-UHFFFAOYSA-N-P91-P7-P91-601530

>  <inspiration_score>  (4728) 
None

$$$$
BHPHSWBSARWLQM-UHFFFAOYSA-N-P7-P7-P91-601530
     RDKit          3D

 17 19  0  0  0  0  0  0  0  0999 V2000
   -3.5280    6.3216  -15.9384 C   0  0  0  0  0  0  0  0  0  0  0  0
   -4.6962    5.7229  -16.6609 C   0  0  0  0  0  0  0  0  0  0  0  0
   -5.8346    5.3792  -15.9181 C   0  0  0  0  0  0  0  0  0  0  0  0
   -6.9707    4.8768  -16.5618 C   0  0  0  0  0  0  0  0  0  0  0  0
   -8.1434    4.5319  -15.8763 C   0  0  0  0  0  0  0  0  0  0  0  0
   -9.2542    4.0942  -16.5897 C   0  0  0  0  0  0  0  0  0  0  0  0
   -9.2124    4.0007  -17.9723 C   0  0  0  0  0  0  0  0  0  0  0  0
   -8.0340    4.3093  -18.6392 C   0  0  0  0  0  0  0  0  0  0  0  0
   -6.9122    4.7388  -17.9567 C   0  0  0  0  0  0  0  0  0  0  0  0
   -5.8124    5.0130  -18.6599 N   0  0  0  0  0  0  0  0  0  0  0  0
   -4.7228    5.4694  -18.0323 C   0  0  0  0  0  0  0  0  0  0  0  0
   -3.6726    5.6816  -18.9235 N   0  0  0  0  0  0  0  0  0  0  0  0
   -2.3003    5.3374  -18.6756 C   0  0  1  0  0  0  0  0  0  0  0  0
   -1.6487    4.5506  -19.8222 C   0  0  0  0  0  0  0  0  0  0  0  0
   -1.1818    5.8852  -20.4308 C   0  0  0  0  0  0  0  0  0  0  0  0
   -1.3657    6.5312  -19.0384 C   0  0  1  0  0  0  0  0  0  0  0  0
   -1.9756    7.8396  -19.0243 O   0  0  0  0  0  0  0  0  0  0  0  0
  1  2  1  0
  2  3  2  0
  3  4  1  0
  4  5  2  0
  5  6  1  0
  6  7  2  0
  7  8  1  0
  8  9  2  0
  9 10  1  0
 10 11  2  0
 11 12  1  0
 13 12  1  6
 13 14  1  0
 14 15  1  0
 15 16  1  0
 16 17  1  6
 11  2  1  0
 16 13  1  0
  9  4  1  0
M  END
>  <energy_score>  (4729) 
-18.484232

>  <alias>  (4729) 
BHPHSWBSARWLQM-UHFFFAOYSA-N-P7-P7-P91-601530

>  <HIPPO Pose ID>  (4729) 
85745

>  <smiles>  (4729) 
Cc1cc2ccccc2nc1NC1CCC1O

>  <inchikey>  (4729) 
BHPHSWBSARWLQM-UHFFFAOYSA-N

>  <distance_score>  (4729) 
0.9187

>  <ref_mols>  (4729) 
Z1688a,Z0089a

>  <ref_pdb>  (4729) 
Z0089a

>  <HIPPO Compound ID>  (4729) 
146024

>  <name>  (4729) 
BHPHSWBSARWLQM-UHFFFAOYSA-N-P7-P7-P91-601530

>  <inspiration_score>  (4729) 
None

$$$$
UBAZLLXYFVBDFV-UHFFFAOYSA-N-P7-P7-P91-601530
     RDKit          3D

 17 19  0  0  0  0  0  0  0  0999 V2000
  -10.5769    3.8778  -16.9695 O   0  0  0  0  0  0  0  0  0  0  0  0
   -9.2921    4.1412  -17.3000 C   0  0  0  0  0  0  0  0  0  0  0  0
   -8.9903    4.0186  -18.6393 C   0  0  0  0  0  0  0  0  0  0  0  0
   -7.7085    4.2774  -19.0736 C   0  0  0  0  0  0  0  0  0  0  0  0
   -6.7444    4.7056  -18.2036 C   0  0  0  0  0  0  0  0  0  0  0  0
   -5.5791    5.0069  -18.7586 N   0  0  0  0  0  0  0  0  0  0  0  0
   -4.5999    5.4579  -17.9859 C   0  0  0  0  0  0  0  0  0  0  0  0
   -3.4837    5.8247  -18.7204 N   0  0  0  0  0  0  0  0  0  0  0  0
   -2.1408    5.4903  -18.3891 C   0  0  1  0  0  0  0  0  0  0  0  0
   -1.4763    4.5886  -19.4553 C   0  0  0  0  0  0  0  0  0  0  0  0
   -0.2174    5.4683  -19.3104 C   0  0  0  0  0  0  0  0  0  0  0  0
   -1.1433    6.6060  -18.8180 C   0  0  2  0  0  0  0  0  0  0  0  0
   -0.6168    7.4315  -17.7600 O   0  0  0  0  0  0  0  0  0  0  0  0
   -4.7332    5.5874  -16.6134 C   0  0  0  0  0  0  0  0  0  0  0  0
   -5.9619    5.2659  -16.0228 C   0  0  0  0  0  0  0  0  0  0  0  0
   -7.0254    4.8245  -16.8298 C   0  0  0  0  0  0  0  0  0  0  0  0
   -8.3267    4.5179  -16.3713 C   0  0  0  0  0  0  0  0  0  0  0  0
  1  2  1  0
  2  3  2  0
  3  4  1  0
  4  5  2  0
  5  6  1  0
  6  7  2  0
  7  8  1  0
  9  8  1  6
  9 10  1  0
 10 11  1  0
 11 12  1  0
 12 13  1  1
  7 14  1  0
 14 15  2  0
 15 16  1  0
 16 17  2  0
 17  2  1  0
 16  5  1  0
 12  9  1  0
M  END
>  <energy_score>  (4730) 
-22.023738

>  <alias>  (4730) 
UBAZLLXYFVBDFV-UHFFFAOYSA-N-P7-P7-P91-601530

>  <HIPPO Pose ID>  (4730) 
85749

>  <smiles>  (4730) 
Oc1ccc2nc(NC3CCC3O)ccc2c1

>  <inchikey>  (4730) 
UBAZLLXYFVBDFV-UHFFFAOYSA-N

>  <distance_score>  (4730) 
0.918314

>  <ref_mols>  (4730) 
Z1688a,Z0089a

>  <ref_pdb>  (4730) 
Z0089a

>  <HIPPO Compound ID>  (4730) 
146026

>  <name>  (4730) 
UBAZLLXYFVBDFV-UHFFFAOYSA-N-P7-P7-P91-601530

>  <inspiration_score>  (4730) 
None

$$$$
HQZOIEGXNGFRFJ-UHFFFAOYSA-N-P7-P7-P91-601530
     RDKit          3D

 17 19  0  0  0  0  0  0  0  0999 V2000
   -7.1508    5.0411  -14.7049 O   0  0  0  0  0  0  0  0  0  0  0  0
   -7.6599    4.7419  -15.9445 C   0  0  0  0  0  0  0  0  0  0  0  0
   -8.9961    4.3470  -16.0027 C   0  0  0  0  0  0  0  0  0  0  0  0
   -9.5941    4.0809  -17.2274 C   0  0  0  0  0  0  0  0  0  0  0  0
   -8.8309    4.1424  -18.3800 C   0  0  0  0  0  0  0  0  0  0  0  0
   -7.4777    4.4966  -18.3018 C   0  0  0  0  0  0  0  0  0  0  0  0
   -6.7028    4.4986  -19.4471 C   0  0  0  0  0  0  0  0  0  0  0  0
   -5.3842    4.8943  -19.3783 C   0  0  0  0  0  0  0  0  0  0  0  0
   -4.8510    5.2659  -18.1679 C   0  0  0  0  0  0  0  0  0  0  0  0
   -3.5248    5.6629  -18.0641 N   0  0  0  0  0  0  0  0  0  0  0  0
   -2.5818    5.9147  -19.0929 C   0  0  2  0  0  0  0  0  0  0  0  0
   -1.8121    4.6448  -19.5186 C   0  0  0  0  0  0  0  0  0  0  0  0
   -0.5169    5.4771  -19.4693 C   0  0  0  0  0  0  0  0  0  0  0  0
   -1.2424    6.4661  -18.5316 C   0  0  2  0  0  0  0  0  0  0  0  0
   -1.0052    6.2920  -17.1142 O   0  0  0  0  0  0  0  0  0  0  0  0
   -5.5668    5.2452  -17.0319 N   0  0  0  0  0  0  0  0  0  0  0  0
   -6.8626    4.8469  -17.0847 C   0  0  0  0  0  0  0  0  0  0  0  0
  1  2  1  0
  2  3  2  0
  3  4  1  0
  4  5  2  0
  5  6  1  0
  6  7  2  0
  7  8  1  0
  8  9  2  0
  9 10  1  0
 11 10  1  1
 11 12  1  0
 12 13  1  0
 13 14  1  0
 14 15  1  1
  9 16  1  0
 16 17  2  0
 17  2  1  0
 17  6  1  0
 14 11  1  0
M  END
>  <energy_score>  (4731) 
-31.760713

>  <alias>  (4731) 
HQZOIEGXNGFRFJ-UHFFFAOYSA-N-P7-P7-P91-601530

>  <HIPPO Pose ID>  (4731) 
85751

>  <smiles>  (4731) 
Oc1cccc2ccc(NC3CCC3O)nc12

>  <inchikey>  (4731) 
HQZOIEGXNGFRFJ-UHFFFAOYSA-N

>  <distance_score>  (4731) 
0.867267

>  <ref_mols>  (4731) 
Z1688a,Z0089a

>  <ref_pdb>  (4731) 
Z0089a

>  <HIPPO Compound ID>  (4731) 
146027

>  <name>  (4731) 
HQZOIEGXNGFRFJ-UHFFFAOYSA-N-P7-P7-P91-601530

>  <inspiration_score>  (4731) 
None

$$$$
XHYPQXAYMDMXPQ-UHFFFAOYSA-N-P91-P7-P91-601530
     RDKit          3D

 17 18  0  0  0  0  0  0  0  0999 V2000
   -1.4504    3.6326  -19.4753 C   0  0  0  0  0  0  0  0  0  0  0  0
   -2.0458    4.5853  -19.0576 C   0  0  0  0  0  0  0  0  0  0  0  0
   -2.8147    5.7475  -18.5749 C   0  0  1  0  0  0  0  0  0  0  0  0
   -1.9905    7.0361  -18.7202 C   0  0  0  0  0  0  0  0  0  0  0  0
   -0.8125    7.0986  -17.7549 C   0  0  0  0  0  0  0  0  0  0  0  0
   -3.9791    5.8817  -19.4349 N   0  0  0  0  0  0  0  0  0  0  0  0
   -5.1522    5.2928  -18.9363 C   0  0  0  0  0  0  0  0  0  0  0  0
   -6.0075    4.7408  -19.8714 C   0  0  0  0  0  0  0  0  0  0  0  0
   -7.2272    4.2394  -19.4823 C   0  0  0  0  0  0  0  0  0  0  0  0
   -7.6153    4.3876  -18.1749 C   0  0  0  0  0  0  0  0  0  0  0  0
   -8.8993    3.9805  -17.8431 C   0  0  0  0  0  0  0  0  0  0  0  0
   -9.3112    4.0671  -16.5340 C   0  0  0  0  0  0  0  0  0  0  0  0
   -8.4608    4.5578  -15.5594 C   0  0  0  0  0  0  0  0  0  0  0  0
   -7.1868    4.9959  -15.9207 C   0  0  0  0  0  0  0  0  0  0  0  0
   -6.4010    5.5106  -14.9209 O   0  0  0  0  0  0  0  0  0  0  0  0
   -6.7159    4.9395  -17.2411 C   0  0  0  0  0  0  0  0  0  0  0  0
   -5.4862    5.3789  -17.6317 N   0  0  0  0  0  0  0  0  0  0  0  0
  1  2  3  0
  3  2  1  6
  3  4  1  0
  4  5  1  0
  3  6  1  0
  6  7  1  0
  7  8  2  0
  8  9  1  0
  9 10  2  0
 10 11  1  0
 11 12  2  0
 12 13  1  0
 13 14  2  0
 14 15  1  0
 14 16  1  0
 16 17  2  0
 17  7  1  0
 16 10  1  0
M  END
>  <energy_score>  (4732) 
-10.577466

>  <alias>  (4732) 
XHYPQXAYMDMXPQ-UHFFFAOYSA-N-P91-P7-P91-601530

>  <HIPPO Pose ID>  (4732) 
85758

>  <smiles>  (4732) 
C#CC(CC)Nc1ccc2cccc(O)c2n1

>  <inchikey>  (4732) 
XHYPQXAYMDMXPQ-UHFFFAOYSA-N

>  <distance_score>  (4732) 
0.797184

>  <ref_mols>  (4732) 
Z1688a,Z0089a

>  <ref_pdb>  (4732) 
Z0089a

>  <HIPPO Compound ID>  (4732) 
146030

>  <name>  (4732) 
XHYPQXAYMDMXPQ-UHFFFAOYSA-N-P91-P7-P91-601530

>  <inspiration_score>  (4732) 
None

$$$$
JNJFAHODMUGRBK-UHFFFAOYSA-N-P7-P7-P91-601530
     RDKit          3D

 17 18  0  0  0  0  0  0  0  0999 V2000
   -1.6834    3.4917  -19.5551 C   0  0  0  0  0  0  0  0  0  0  0  0
   -2.0756    4.5753  -19.2281 C   0  0  0  0  0  0  0  0  0  0  0  0
   -2.4492    5.9161  -18.7678 C   0  0  1  0  0  0  0  0  0  0  0  0
   -1.6951    6.9675  -19.5968 C   0  0  0  0  0  0  0  0  0  0  0  0
   -1.8578    8.3824  -19.0545 C   0  0  0  0  0  0  0  0  0  0  0  0
   -3.8659    6.1504  -18.9287 N   0  0  0  0  0  0  0  0  0  0  0  0
   -4.7927    5.7108  -18.0140 C   0  0  0  0  0  0  0  0  0  0  0  0
   -5.8392    5.1529  -18.6351 N   0  0  0  0  0  0  0  0  0  0  0  0
   -6.9146    4.7844  -17.9377 C   0  0  0  0  0  0  0  0  0  0  0  0
   -8.0150    4.3161  -18.6295 C   0  0  0  0  0  0  0  0  0  0  0  0
   -9.1895    3.9712  -17.9728 C   0  0  0  0  0  0  0  0  0  0  0  0
   -9.2442    4.0546  -16.5899 C   0  0  0  0  0  0  0  0  0  0  0  0
   -8.1449    4.5025  -15.8656 C   0  0  0  0  0  0  0  0  0  0  0  0
   -6.9821    4.8952  -16.5427 C   0  0  0  0  0  0  0  0  0  0  0  0
   -5.8747    5.4458  -15.8919 C   0  0  0  0  0  0  0  0  0  0  0  0
   -4.7776    5.9130  -16.6332 C   0  0  0  0  0  0  0  0  0  0  0  0
   -3.6902    6.6264  -15.8901 C   0  0  0  0  0  0  0  0  0  0  0  0
  1  2  3  0
  3  2  1  6
  3  4  1  0
  4  5  1  0
  3  6  1  0
  6  7  1  0
  7  8  2  0
  8  9  1  0
  9 10  2  0
 10 11  1  0
 11 12  2  0
 12 13  1  0
 13 14  2  0
 14 15  1  0
 15 16  2  0
 16 17  1  0
 16  7  1  0
 14  9  1  0
M  END
>  <energy_score>  (4733) 
-99.160482

>  <alias>  (4733) 
JNJFAHODMUGRBK-UHFFFAOYSA-N-P7-P7-P91-601530

>  <HIPPO Pose ID>  (4733) 
85759

>  <smiles>  (4733) 
C#CC(CC)Nc1nc2ccccc2cc1C

>  <inchikey>  (4733) 
JNJFAHODMUGRBK-UHFFFAOYSA-N

>  <distance_score>  (4733) 
0.925372

>  <ref_mols>  (4733) 
Z1688a,Z0089a

>  <ref_pdb>  (4733) 
Z0089a

>  <HIPPO Compound ID>  (4733) 
146031

>  <name>  (4733) 
JNJFAHODMUGRBK-UHFFFAOYSA-N-P7-P7-P91-601530

>  <inspiration_score>  (4733) 
None

$$$$
MGPKSCMMHYBELE-UHFFFAOYSA-N-P7-P7-P91-601530
     RDKit          3D

 17 19  0  0  0  0  0  0  0  0999 V2000
   -0.3310    5.3955  -19.1626 C   0  0  0  0  0  0  0  0  0  0  0  0
   -1.6712    4.8165  -19.5912 C   0  0  0  0  0  0  0  0  0  0  0  0
   -2.7510    5.8412  -19.9337 C   0  0  0  0  0  0  0  0  0  0  0  0
   -4.1034    5.2909  -19.9177 N   0  0  0  0  0  0  0  0  0  0  0  0
   -4.9350    5.2362  -18.8036 C   0  0  0  0  0  0  0  0  0  0  0  0
   -4.5034    5.5186  -17.5182 C   0  0  0  0  0  0  0  0  0  0  0  0
   -5.3948    5.4004  -16.4521 C   0  0  0  0  0  0  0  0  0  0  0  0
   -4.9353    5.7315  -15.0650 C   0  0  0  0  0  0  0  0  0  0  0  0
   -6.7055    4.9522  -16.7179 C   0  0  0  0  0  0  0  0  0  0  0  0
   -7.6711    4.7195  -15.7175 C   0  0  0  0  0  0  0  0  0  0  0  0
   -8.9452    4.2836  -16.0410 C   0  0  0  0  0  0  0  0  0  0  0  0
   -9.2857    4.0990  -17.3676 C   0  0  0  0  0  0  0  0  0  0  0  0
   -8.3366    4.3135  -18.3627 C   0  0  0  0  0  0  0  0  0  0  0  0
   -7.0518    4.7163  -18.0621 C   0  0  0  0  0  0  0  0  0  0  0  0
   -6.1911    4.8623  -19.0706 N   0  0  0  0  0  0  0  0  0  0  0  0
   -2.5616    7.3203  -19.6447 C   0  0  0  0  0  0  0  0  0  0  0  0
   -2.4406    6.8241  -21.0509 C   0  0  0  0  0  0  0  0  0  0  0  0
  1  2  1  0
  2  3  1  0
  3  4  1  0
  4  5  1  0
  5  6  2  0
  6  7  1  0
  7  8  1  0
  7  9  2  0
  9 10  1  0
 10 11  2  0
 11 12  1  0
 12 13  2  0
 13 14  1  0
 14 15  2  0
  3 16  1  0
 16 17  1  0
 17  3  1  0
 15  5  1  0
 14  9  1  0
M  END
>  <energy_score>  (4734) 
-27.125121

>  <alias>  (4734) 
MGPKSCMMHYBELE-UHFFFAOYSA-N-P7-P7-P91-601530

>  <HIPPO Pose ID>  (4734) 
85781

>  <smiles>  (4734) 
CCC1(Nc2cc(C)c3ccccc3n2)CC1

>  <inchikey>  (4734) 
MGPKSCMMHYBELE-UHFFFAOYSA-N

>  <distance_score>  (4734) 
1.834074

>  <ref_mols>  (4734) 
Z1688a,Z0089a

>  <ref_pdb>  (4734) 
Z0089a

>  <HIPPO Compound ID>  (4734) 
146042

>  <name>  (4734) 
MGPKSCMMHYBELE-UHFFFAOYSA-N-P7-P7-P91-601530

>  <inspiration_score>  (4734) 
None

$$$$
CQOHEWTVEXGUCT-UHFFFAOYSA-N-P91-P7-P91-601530
     RDKit          3D

 17 19  0  0  0  0  0  0  0  0999 V2000
   -1.4912    4.0594  -19.9868 C   0  0  0  0  0  0  0  0  0  0  0  0
   -2.0297    4.7361  -18.7431 C   0  0  0  0  0  0  0  0  0  0  0  0
   -2.8220    5.9811  -19.0791 C   0  0  0  0  0  0  0  0  0  0  0  0
   -4.0647    5.7368  -19.8338 N   0  0  0  0  0  0  0  0  0  0  0  0
   -5.1934    5.2264  -19.1525 C   0  0  0  0  0  0  0  0  0  0  0  0
   -6.1777    4.6205  -19.9178 C   0  0  0  0  0  0  0  0  0  0  0  0
   -7.3728    4.2237  -19.3428 C   0  0  0  0  0  0  0  0  0  0  0  0
   -7.5689    4.4601  -17.9994 C   0  0  0  0  0  0  0  0  0  0  0  0
   -8.7695    4.1116  -17.3902 C   0  0  0  0  0  0  0  0  0  0  0  0
   -8.9025    4.3059  -16.0237 C   0  0  0  0  0  0  0  0  0  0  0  0
   -7.8765    4.8757  -15.2763 C   0  0  0  0  0  0  0  0  0  0  0  0
   -6.7042    5.2473  -15.9170 C   0  0  0  0  0  0  0  0  0  0  0  0
   -5.6938    5.8302  -15.1903 O   0  0  0  0  0  0  0  0  0  0  0  0
   -6.5158    5.0446  -17.2736 C   0  0  0  0  0  0  0  0  0  0  0  0
   -5.3469    5.4215  -17.8290 N   0  0  0  0  0  0  0  0  0  0  0  0
   -2.0312    7.2231  -19.4281 C   0  0  0  0  0  0  0  0  0  0  0  0
   -2.7535    7.1504  -18.1191 C   0  0  0  0  0  0  0  0  0  0  0  0
  1  2  1  0
  2  3  1  0
  3  4  1  0
  4  5  1  0
  5  6  2  0
  6  7  1  0
  7  8  2  0
  8  9  1  0
  9 10  2  0
 10 11  1  0
 11 12  2  0
 12 13  1  0
 12 14  1  0
 14 15  2  0
  3 16  1  0
 16 17  1  0
 17  3  1  0
 15  5  1  0
 14  8  1  0
M  END
>  <energy_score>  (4735) 
-25.935702

>  <alias>  (4735) 
CQOHEWTVEXGUCT-UHFFFAOYSA-N-P91-P7-P91-601530

>  <HIPPO Pose ID>  (4735) 
85786

>  <smiles>  (4735) 
CCC1(Nc2ccc3cccc(O)c3n2)CC1

>  <inchikey>  (4735) 
CQOHEWTVEXGUCT-UHFFFAOYSA-N

>  <distance_score>  (4735) 
0.964292

>  <ref_mols>  (4735) 
Z1688a,Z0089a

>  <ref_pdb>  (4735) 
Z0089a

>  <HIPPO Compound ID>  (4735) 
146044

>  <name>  (4735) 
CQOHEWTVEXGUCT-UHFFFAOYSA-N-P91-P7-P91-601530

>  <inspiration_score>  (4735) 
None

$$$$
NCDLHYDXSVRNNR-UHFFFAOYSA-N-P91-P7-P91-601530
     RDKit          3D

 17 19  0  0  0  0  0  0  0  0999 V2000
   -5.1962    5.9864  -14.8774 C   0  0  0  0  0  0  0  0  0  0  0  0
   -5.4551    5.6317  -16.3093 C   0  0  0  0  0  0  0  0  0  0  0  0
   -4.4689    5.8761  -17.2633 C   0  0  0  0  0  0  0  0  0  0  0  0
   -4.6876    5.5375  -18.5882 C   0  0  0  0  0  0  0  0  0  0  0  0
   -3.7726    5.7669  -19.5889 N   0  0  0  0  0  0  0  0  0  0  0  0
   -2.3443    5.6866  -19.3732 C   0  0  1  0  0  0  0  0  0  0  0  0
   -1.8328    4.2663  -19.5659 C   0  0  0  0  0  0  0  0  0  0  0  0
   -1.6984    6.6196  -20.3627 C   0  0  0  0  0  0  0  0  0  0  0  0
   -1.6129    8.0993  -20.0768 C   0  0  0  0  0  0  0  0  0  0  0  0
   -0.3645    7.2615  -20.0671 C   0  0  0  0  0  0  0  0  0  0  0  0
   -5.8482    5.0195  -19.0016 N   0  0  0  0  0  0  0  0  0  0  0  0
   -6.8228    4.8083  -18.1088 C   0  0  0  0  0  0  0  0  0  0  0  0
   -8.0297    4.3169  -18.5612 C   0  0  0  0  0  0  0  0  0  0  0  0
   -9.0835    4.0499  -17.6921 C   0  0  0  0  0  0  0  0  0  0  0  0
   -8.9277    4.2545  -16.3359 C   0  0  0  0  0  0  0  0  0  0  0  0
   -7.7377    4.7720  -15.8571 C   0  0  0  0  0  0  0  0  0  0  0  0
   -6.6745    5.0719  -16.7331 C   0  0  0  0  0  0  0  0  0  0  0  0
  1  2  1  0
  2  3  2  0
  3  4  1  0
  4  5  1  0
  5  6  1  0
  6  7  1  6
  6  8  1  0
  8  9  1  0
  9 10  1  0
  4 11  2  0
 11 12  1  0
 12 13  2  0
 13 14  1  0
 14 15  2  0
 15 16  1  0
 16 17  2  0
 17  2  1  0
 10  8  1  0
 17 12  1  0
M  END
>  <energy_score>  (4736) 
-39.028139

>  <alias>  (4736) 
NCDLHYDXSVRNNR-UHFFFAOYSA-N-P91-P7-P91-601530

>  <HIPPO Pose ID>  (4736) 
85790

>  <smiles>  (4736) 
Cc1cc(NC(C)C2CC2)nc2ccccc12

>  <inchikey>  (4736) 
NCDLHYDXSVRNNR-UHFFFAOYSA-N

>  <distance_score>  (4736) 
1.845776

>  <ref_mols>  (4736) 
Z1688a,Z0089a

>  <ref_pdb>  (4736) 
Z0089a

>  <HIPPO Compound ID>  (4736) 
146046

>  <name>  (4736) 
NCDLHYDXSVRNNR-UHFFFAOYSA-N-P91-P7-P91-601530

>  <inspiration_score>  (4736) 
None

$$$$
ZYSWDTJHPUNHRT-UHFFFAOYSA-N-P7-P7-P91-601530
     RDKit          3D

 17 19  0  0  0  0  0  0  0  0999 V2000
   -1.9943    4.2196  -19.2554 C   0  0  0  0  0  0  0  0  0  0  0  0
   -2.2090    5.5179  -18.4827 C   0  0  2  0  0  0  0  0  0  0  0  0
   -3.5269    6.0667  -18.7456 N   0  0  0  0  0  0  0  0  0  0  0  0
   -4.5865    5.5822  -18.0075 C   0  0  0  0  0  0  0  0  0  0  0  0
   -4.7203    5.6968  -16.6329 C   0  0  0  0  0  0  0  0  0  0  0  0
   -5.9321    5.3232  -16.0370 C   0  0  0  0  0  0  0  0  0  0  0  0
   -6.9851    4.8524  -16.8407 C   0  0  0  0  0  0  0  0  0  0  0  0
   -8.2825    4.5290  -16.3789 C   0  0  0  0  0  0  0  0  0  0  0  0
   -9.2467    4.1399  -17.3041 C   0  0  0  0  0  0  0  0  0  0  0  0
  -10.5344    3.8840  -16.9741 O   0  0  0  0  0  0  0  0  0  0  0  0
   -8.9408    4.0077  -18.6421 C   0  0  0  0  0  0  0  0  0  0  0  0
   -7.6606    4.2816  -19.0782 C   0  0  0  0  0  0  0  0  0  0  0  0
   -6.7012    4.7349  -18.2137 C   0  0  0  0  0  0  0  0  0  0  0  0
   -5.5461    5.0774  -18.7717 N   0  0  0  0  0  0  0  0  0  0  0  0
   -1.2207    6.5595  -18.9422 C   0  0  0  0  0  0  0  0  0  0  0  0
   -0.8597    7.7198  -18.0469 C   0  0  0  0  0  0  0  0  0  0  0  0
    0.1518    6.6416  -18.3194 C   0  0  0  0  0  0  0  0  0  0  0  0
  2  1  1  6
  2  3  1  0
  3  4  1  0
  4  5  2  0
  5  6  1  0
  6  7  2  0
  7  8  1  0
  8  9  2  0
  9 10  1  0
  9 11  1  0
 11 12  2  0
 12 13  1  0
 13 14  2  0
  2 15  1  0
 15 16  1  0
 16 17  1  0
 14  4  1  0
 17 15  1  0
 13  7  1  0
M  END
>  <energy_score>  (4737) 
-45.159503

>  <alias>  (4737) 
ZYSWDTJHPUNHRT-UHFFFAOYSA-N-P7-P7-P91-601530

>  <HIPPO Pose ID>  (4737) 
85791

>  <smiles>  (4737) 
CC(Nc1ccc2cc(O)ccc2n1)C1CC1

>  <inchikey>  (4737) 
ZYSWDTJHPUNHRT-UHFFFAOYSA-N

>  <distance_score>  (4737) 
0.905398

>  <ref_mols>  (4737) 
Z1688a,Z0089a

>  <ref_pdb>  (4737) 
Z0089a

>  <HIPPO Compound ID>  (4737) 
146047

>  <name>  (4737) 
ZYSWDTJHPUNHRT-UHFFFAOYSA-N-P7-P7-P91-601530

>  <inspiration_score>  (4737) 
None

$$$$
ZAWKSBZMYKYVIF-UHFFFAOYSA-N-P7-P7-P91-601530
     RDKit          3D

 17 19  0  0  0  0  0  0  0  0999 V2000
   -1.7374    4.7393  -19.6613 C   0  0  0  0  0  0  0  0  0  0  0  0
   -2.5979    5.8383  -19.0349 C   0  0  1  0  0  0  0  0  0  0  0  0
   -3.4254    5.2491  -18.0046 N   0  0  0  0  0  0  0  0  0  0  0  0
   -4.7821    5.0662  -18.1480 C   0  0  0  0  0  0  0  0  0  0  0  0
   -5.3568    4.7924  -19.3656 C   0  0  0  0  0  0  0  0  0  0  0  0
   -6.7004    4.4930  -19.4401 C   0  0  0  0  0  0  0  0  0  0  0  0
   -7.4668    4.4934  -18.2910 C   0  0  0  0  0  0  0  0  0  0  0  0
   -8.8325    4.1887  -18.3694 C   0  0  0  0  0  0  0  0  0  0  0  0
   -9.5905    4.1234  -17.2136 C   0  0  0  0  0  0  0  0  0  0  0  0
   -8.9792    4.3557  -15.9886 C   0  0  0  0  0  0  0  0  0  0  0  0
   -7.6275    4.6966  -15.9308 C   0  0  0  0  0  0  0  0  0  0  0  0
   -7.1054    4.9524  -14.6869 O   0  0  0  0  0  0  0  0  0  0  0  0
   -6.8263    4.7788  -17.0705 C   0  0  0  0  0  0  0  0  0  0  0  0
   -5.5021    5.0774  -17.0134 N   0  0  0  0  0  0  0  0  0  0  0  0
   -1.7126    6.9468  -18.5118 C   0  0  0  0  0  0  0  0  0  0  0  0
   -2.1307    7.8763  -17.3954 C   0  0  0  0  0  0  0  0  0  0  0  0
   -1.0159    6.8872  -17.1718 C   0  0  0  0  0  0  0  0  0  0  0  0
  2  1  1  1
  2  3  1  0
  3  4  1  0
  4  5  2  0
  5  6  1  0
  6  7  2  0
  7  8  1  0
  8  9  2  0
  9 10  1  0
 10 11  2  0
 11 12  1  0
 11 13  1  0
 13 14  2  0
  2 15  1  0
 15 16  1  0
 16 17  1  0
 14  4  1  0
 17 15  1  0
 13  7  1  0
M  END
>  <energy_score>  (4738) 
-24.952564

>  <alias>  (4738) 
ZAWKSBZMYKYVIF-UHFFFAOYSA-N-P7-P7-P91-601530

>  <HIPPO Pose ID>  (4738) 
85793

>  <smiles>  (4738) 
CC(Nc1ccc2cccc(O)c2n1)C1CC1

>  <inchikey>  (4738) 
ZAWKSBZMYKYVIF-UHFFFAOYSA-N

>  <distance_score>  (4738) 
0.868479

>  <ref_mols>  (4738) 
Z1688a,Z0089a

>  <ref_pdb>  (4738) 
Z0089a

>  <HIPPO Compound ID>  (4738) 
146048

>  <name>  (4738) 
ZAWKSBZMYKYVIF-UHFFFAOYSA-N-P7-P7-P91-601530

>  <inspiration_score>  (4738) 
None

$$$$
GEYOXBYMHGETBU-UHFFFAOYSA-N-P7-P7-P91-601530
     RDKit          3D

 17 19  0  0  0  0  0  0  0  0999 V2000
   -3.5635    6.3529  -15.9004 C   0  0  0  0  0  0  0  0  0  0  0  0
   -4.7117    5.7420  -16.6417 C   0  0  0  0  0  0  0  0  0  0  0  0
   -5.8677    5.4080  -15.9223 C   0  0  0  0  0  0  0  0  0  0  0  0
   -6.9862    4.8955  -16.5860 C   0  0  0  0  0  0  0  0  0  0  0  0
   -8.1716    4.5516  -15.9211 C   0  0  0  0  0  0  0  0  0  0  0  0
   -9.2665    4.1054  -16.6529 C   0  0  0  0  0  0  0  0  0  0  0  0
   -9.1938    4.0020  -18.0332 C   0  0  0  0  0  0  0  0  0  0  0  0
   -8.0020    4.3078  -18.6784 C   0  0  0  0  0  0  0  0  0  0  0  0
   -6.8952    4.7468  -17.9782 C   0  0  0  0  0  0  0  0  0  0  0  0
   -5.7804    5.0185  -18.6611 N   0  0  0  0  0  0  0  0  0  0  0  0
   -4.7032    5.4747  -18.0121 C   0  0  0  0  0  0  0  0  0  0  0  0
   -3.6132    5.6440  -18.8727 N   0  0  0  0  0  0  0  0  0  0  0  0
   -2.2790    5.2501  -18.5487 C   0  0  0  0  0  0  0  0  0  0  0  0
   -1.4574    4.7429  -19.7631 C   0  0  0  0  0  0  0  0  0  0  0  0
   -0.3218    5.6625  -19.2348 C   0  0  0  0  0  0  0  0  0  0  0  0
    0.8806    5.7313  -19.3641 O   0  0  0  0  0  0  0  0  0  0  0  0
   -1.3378    6.4797  -18.4178 C   0  0  0  0  0  0  0  0  0  0  0  0
  1  2  1  0
  2  3  2  0
  3  4  1  0
  4  5  2  0
  5  6  1  0
  6  7  2  0
  7  8  1  0
  8  9  2  0
  9 10  1  0
 10 11  2  0
 11 12  1  0
 12 13  1  0
 13 14  1  0
 14 15  1  0
 15 16  2  0
 15 17  1  0
 11  2  1  0
 17 13  1  0
  9  4  1  0
M  END
>  <energy_score>  (4739) 
-19.276813

>  <alias>  (4739) 
GEYOXBYMHGETBU-UHFFFAOYSA-N-P7-P7-P91-601530

>  <HIPPO Pose ID>  (4739) 
85797

>  <smiles>  (4739) 
Cc1cc2ccccc2nc1NC1CC(=O)C1

>  <inchikey>  (4739) 
GEYOXBYMHGETBU-UHFFFAOYSA-N

>  <distance_score>  (4739) 
0.934977

>  <ref_mols>  (4739) 
Z1688a,Z0089a

>  <ref_pdb>  (4739) 
Z0089a

>  <HIPPO Compound ID>  (4739) 
146050

>  <name>  (4739) 
GEYOXBYMHGETBU-UHFFFAOYSA-N-P7-P7-P91-601530

>  <inspiration_score>  (4739) 
None

$$$$
NEUSIIGQFVXQGD-UHFFFAOYSA-N-P7-P7-P91-601530
     RDKit          3D

 17 19  0  0  0  0  0  0  0  0999 V2000
   -5.4503    5.8089  -14.6235 C   0  0  0  0  0  0  0  0  0  0  0  0
   -5.6407    5.5158  -16.0790 C   0  0  0  0  0  0  0  0  0  0  0  0
   -4.5973    5.7690  -16.9621 C   0  0  0  0  0  0  0  0  0  0  0  0
   -4.7653    5.4984  -18.3065 C   0  0  0  0  0  0  0  0  0  0  0  0
   -3.7520    5.7017  -19.2350 N   0  0  0  0  0  0  0  0  0  0  0  0
   -2.3424    5.7083  -18.9950 C   0  0  0  0  0  0  0  0  0  0  0  0
   -1.6034    4.5782  -19.7666 C   0  0  0  0  0  0  0  0  0  0  0  0
   -1.5104    5.6149  -20.9154 C   0  0  0  0  0  0  0  0  0  0  0  0
   -1.5432    5.5394  -22.1251 O   0  0  0  0  0  0  0  0  0  0  0  0
   -1.6431    6.7712  -19.8941 C   0  0  0  0  0  0  0  0  0  0  0  0
   -5.9140    5.0473  -18.8182 N   0  0  0  0  0  0  0  0  0  0  0  0
   -6.9262    4.7925  -17.9841 C   0  0  0  0  0  0  0  0  0  0  0  0
   -8.1047    4.3194  -18.5200 C   0  0  0  0  0  0  0  0  0  0  0  0
   -9.1966    4.0040  -17.7178 C   0  0  0  0  0  0  0  0  0  0  0  0
   -9.1090    4.1503  -16.3474 C   0  0  0  0  0  0  0  0  0  0  0  0
   -7.9465    4.6470  -15.7847 C   0  0  0  0  0  0  0  0  0  0  0  0
   -6.8417    4.9867  -16.5905 C   0  0  0  0  0  0  0  0  0  0  0  0
  1  2  1  0
  2  3  2  0
  3  4  1  0
  4  5  1  0
  5  6  1  0
  6  7  1  0
  7  8  1  0
  8  9  2  0
  8 10  1  0
  4 11  2  0
 11 12  1  0
 12 13  2  0
 13 14  1  0
 14 15  2  0
 15 16  1  0
 16 17  2  0
 17  2  1  0
 10  6  1  0
 17 12  1  0
M  END
>  <energy_score>  (4740) 
-11.493757

>  <alias>  (4740) 
NEUSIIGQFVXQGD-UHFFFAOYSA-N-P7-P7-P91-601530

>  <HIPPO Pose ID>  (4740) 
85799

>  <smiles>  (4740) 
Cc1cc(NC2CC(=O)C2)nc2ccccc12

>  <inchikey>  (4740) 
NEUSIIGQFVXQGD-UHFFFAOYSA-N

>  <distance_score>  (4740) 
1.949784

>  <ref_mols>  (4740) 
Z1688a,Z0089a

>  <ref_pdb>  (4740) 
Z0089a

>  <HIPPO Compound ID>  (4740) 
146051

>  <name>  (4740) 
NEUSIIGQFVXQGD-UHFFFAOYSA-N-P7-P7-P91-601530

>  <inspiration_score>  (4740) 
None

$$$$
FYCFZSUBTAPYGY-UHFFFAOYSA-N-P7-P7-P91-601530
     RDKit          3D

 17 19  0  0  0  0  0  0  0  0999 V2000
    0.1704    7.5422  -19.9279 O   0  0  0  0  0  0  0  0  0  0  0  0
   -0.7303    6.8573  -19.4940 C   0  0  0  0  0  0  0  0  0  0  0  0
   -0.9629    5.3380  -19.3350 C   0  0  0  0  0  0  0  0  0  0  0  0
   -2.0896    5.7195  -18.3342 C   0  0  0  0  0  0  0  0  0  0  0  0
   -3.2889    5.0276  -18.6214 N   0  0  0  0  0  0  0  0  0  0  0  0
   -4.4878    5.0557  -17.9329 C   0  0  0  0  0  0  0  0  0  0  0  0
   -4.6514    5.2739  -16.5759 C   0  0  0  0  0  0  0  0  0  0  0  0
   -5.9316    5.1325  -16.0196 C   0  0  0  0  0  0  0  0  0  0  0  0
   -7.0149    4.7718  -16.8424 C   0  0  0  0  0  0  0  0  0  0  0  0
   -8.3406    4.5351  -16.4054 C   0  0  0  0  0  0  0  0  0  0  0  0
   -9.3078    4.1910  -17.3467 C   0  0  0  0  0  0  0  0  0  0  0  0
  -10.6006    3.9411  -17.0340 O   0  0  0  0  0  0  0  0  0  0  0  0
   -8.9952    4.0778  -18.6844 C   0  0  0  0  0  0  0  0  0  0  0  0
   -7.6954    4.2762  -19.0978 C   0  0  0  0  0  0  0  0  0  0  0  0
   -6.7167    4.6230  -18.2081 C   0  0  0  0  0  0  0  0  0  0  0  0
   -5.5078    4.7726  -18.7319 N   0  0  0  0  0  0  0  0  0  0  0  0
   -2.0991    7.1762  -18.8618 C   0  0  0  0  0  0  0  0  0  0  0  0
  1  2  2  0
  2  3  1  0
  3  4  1  0
  4  5  1  0
  5  6  1  0
  6  7  2  0
  7  8  1  0
  8  9  2  0
  9 10  1  0
 10 11  2  0
 11 12  1  0
 11 13  1  0
 13 14  2  0
 14 15  1  0
 15 16  2  0
  4 17  1  0
 17  2  1  0
 16  6  1  0
 15  9  1  0
M  END
>  <energy_score>  (4741) 
-17.819568

>  <alias>  (4741) 
FYCFZSUBTAPYGY-UHFFFAOYSA-N-P7-P7-P91-601530

>  <HIPPO Pose ID>  (4741) 
85801

>  <smiles>  (4741) 
O=C1CC(Nc2ccc3cc(O)ccc3n2)C1

>  <inchikey>  (4741) 
FYCFZSUBTAPYGY-UHFFFAOYSA-N

>  <distance_score>  (4741) 
0.981102

>  <ref_mols>  (4741) 
Z1688a,Z0089a

>  <ref_pdb>  (4741) 
Z0089a

>  <HIPPO Compound ID>  (4741) 
146052

>  <name>  (4741) 
FYCFZSUBTAPYGY-UHFFFAOYSA-N-P7-P7-P91-601530

>  <inspiration_score>  (4741) 
None

$$$$
MNNMNHJSFYHCNE-UHFFFAOYSA-N-P7-P7-P91-601530
     RDKit          3D

 17 19  0  0  0  0  0  0  0  0999 V2000
   -3.3642    6.4046  -16.5359 C   0  0  0  0  0  0  0  0  0  0  0  0
   -4.6177    5.8138  -17.1002 C   0  0  0  0  0  0  0  0  0  0  0  0
   -5.6400    5.4458  -16.2043 C   0  0  0  0  0  0  0  0  0  0  0  0
   -6.8540    4.9311  -16.6771 C   0  0  0  0  0  0  0  0  0  0  0  0
   -7.9200    4.5720  -15.8381 C   0  0  0  0  0  0  0  0  0  0  0  0
   -9.1129    4.1144  -16.3906 C   0  0  0  0  0  0  0  0  0  0  0  0
   -9.2548    4.0032  -17.7659 C   0  0  0  0  0  0  0  0  0  0  0  0
   -8.1815    4.3287  -18.5855 C   0  0  0  0  0  0  0  0  0  0  0  0
   -6.9879    4.7932  -18.0626 C   0  0  0  0  0  0  0  0  0  0  0  0
   -6.0084    5.1127  -18.9092 N   0  0  0  0  0  0  0  0  0  0  0  0
   -4.8505    5.6203  -18.4608 C   0  0  0  0  0  0  0  0  0  0  0  0
   -4.0007    5.8867  -19.5312 N   0  0  0  0  0  0  0  0  0  0  0  0
   -2.5308    5.7685  -19.5683 C   0  0  0  0  0  0  0  0  0  0  0  0
   -1.9347    4.3715  -19.4285 C   0  0  0  0  0  0  0  0  0  0  0  0
   -2.5795    3.6472  -18.3966 O   0  0  0  0  0  0  0  0  0  0  0  0
   -1.6812    6.9684  -19.2039 C   0  0  0  0  0  0  0  0  0  0  0  0
   -1.8465    6.6070  -20.6416 C   0  0  0  0  0  0  0  0  0  0  0  0
  1  2  1  0
  2  3  2  0
  3  4  1  0
  4  5  2  0
  5  6  1  0
  6  7  2  0
  7  8  1  0
  8  9  2  0
  9 10  1  0
 10 11  2  0
 11 12  1  0
 12 13  1  0
 13 14  1  0
 14 15  1  0
 13 16  1  0
 16 17  1  0
 11  2  1  0
 17 13  1  0
  9  4  1  0
M  END
>  <energy_score>  (4742) 
-24.742225

>  <alias>  (4742) 
MNNMNHJSFYHCNE-UHFFFAOYSA-N-P7-P7-P91-601530

>  <HIPPO Pose ID>  (4742) 
85803

>  <smiles>  (4742) 
Cc1cc2ccccc2nc1NC1(CO)CC1

>  <inchikey>  (4742) 
MNNMNHJSFYHCNE-UHFFFAOYSA-N

>  <distance_score>  (4742) 
1.030318

>  <ref_mols>  (4742) 
Z1688a,Z0089a

>  <ref_pdb>  (4742) 
Z0089a

>  <HIPPO Compound ID>  (4742) 
146053

>  <name>  (4742) 
MNNMNHJSFYHCNE-UHFFFAOYSA-N-P7-P7-P91-601530

>  <inspiration_score>  (4742) 
None

$$$$
JYIFNZVHWQNXSD-UHFFFAOYSA-N-P91-P7-P91-601530
     RDKit          3D

 17 19  0  0  0  0  0  0  0  0999 V2000
   -5.0432    5.9890  -15.0455 C   0  0  0  0  0  0  0  0  0  0  0  0
   -5.4286    5.6655  -16.4568 C   0  0  0  0  0  0  0  0  0  0  0  0
   -4.5228    5.9097  -17.4878 C   0  0  0  0  0  0  0  0  0  0  0  0
   -4.8588    5.5897  -18.7942 C   0  0  0  0  0  0  0  0  0  0  0  0
   -3.9841    5.7623  -19.8675 N   0  0  0  0  0  0  0  0  0  0  0  0
   -2.5185    5.8628  -19.7521 C   0  0  0  0  0  0  0  0  0  0  0  0
   -1.7766    4.5453  -19.5963 C   0  0  0  0  0  0  0  0  0  0  0  0
   -2.2292    3.8808  -18.4291 O   0  0  0  0  0  0  0  0  0  0  0  0
   -1.8440    6.8924  -20.6331 C   0  0  0  0  0  0  0  0  0  0  0  0
   -1.8918    7.1113  -19.1573 C   0  0  0  0  0  0  0  0  0  0  0  0
   -6.0463    5.0658  -19.1114 N   0  0  0  0  0  0  0  0  0  0  0  0
   -6.9422    4.8509  -18.1422 C   0  0  0  0  0  0  0  0  0  0  0  0
   -8.1799    4.3558  -18.4973 C   0  0  0  0  0  0  0  0  0  0  0  0
   -9.1607    4.0897  -17.5469 C   0  0  0  0  0  0  0  0  0  0  0  0
   -8.8957    4.2962  -16.2074 C   0  0  0  0  0  0  0  0  0  0  0  0
   -7.6698    4.8110  -15.8257 C   0  0  0  0  0  0  0  0  0  0  0  0
   -6.6811    5.1127  -16.7831 C   0  0  0  0  0  0  0  0  0  0  0  0
  1  2  1  0
  2  3  2  0
  3  4  1  0
  4  5  1  0
  5  6  1  0
  6  7  1  0
  7  8  1  0
  6  9  1  0
  9 10  1  0
  4 11  2  0
 11 12  1  0
 12 13  2  0
 13 14  1  0
 14 15  2  0
 15 16  1  0
 16 17  2  0
 17  2  1  0
 10  6  1  0
 17 12  1  0
M  END
>  <energy_score>  (4743) 
-25.377839

>  <alias>  (4743) 
JYIFNZVHWQNXSD-UHFFFAOYSA-N-P91-P7-P91-601530

>  <HIPPO Pose ID>  (4743) 
85806

>  <smiles>  (4743) 
Cc1cc(NC2(CO)CC2)nc2ccccc12

>  <inchikey>  (4743) 
JYIFNZVHWQNXSD-UHFFFAOYSA-N

>  <distance_score>  (4743) 
1.792764

>  <ref_mols>  (4743) 
Z1688a,Z0089a

>  <ref_pdb>  (4743) 
Z0089a

>  <HIPPO Compound ID>  (4743) 
146054

>  <name>  (4743) 
JYIFNZVHWQNXSD-UHFFFAOYSA-N-P91-P7-P91-601530

>  <inspiration_score>  (4743) 
None

$$$$
KZGHCNWJQAKKKQ-UHFFFAOYSA-N-P7-P7-P91-601530
     RDKit          3D

 17 19  0  0  0  0  0  0  0  0999 V2000
   -2.8933    4.6842  -20.6343 O   0  0  0  0  0  0  0  0  0  0  0  0
   -2.1236    4.5636  -19.4314 C   0  0  0  0  0  0  0  0  0  0  0  0
   -2.2457    5.8678  -18.6563 C   0  0  0  0  0  0  0  0  0  0  0  0
   -3.6075    6.4644  -18.6404 N   0  0  0  0  0  0  0  0  0  0  0  0
   -4.6255    5.7967  -17.9534 C   0  0  0  0  0  0  0  0  0  0  0  0
   -4.7461    5.8170  -16.5730 C   0  0  0  0  0  0  0  0  0  0  0  0
   -5.9341    5.3548  -15.9964 C   0  0  0  0  0  0  0  0  0  0  0  0
   -6.9658    4.8780  -16.8223 C   0  0  0  0  0  0  0  0  0  0  0  0
   -8.2560    4.5146  -16.3714 C   0  0  0  0  0  0  0  0  0  0  0  0
   -9.2108    4.1291  -17.3065 C   0  0  0  0  0  0  0  0  0  0  0  0
  -10.5001    3.8679  -16.9838 O   0  0  0  0  0  0  0  0  0  0  0  0
   -8.8910    4.0127  -18.6436 C   0  0  0  0  0  0  0  0  0  0  0  0
   -7.6133    4.3251  -19.0697 C   0  0  0  0  0  0  0  0  0  0  0  0
   -6.6730    4.8087  -18.1984 C   0  0  0  0  0  0  0  0  0  0  0  0
   -5.5395    5.2433  -18.7461 N   0  0  0  0  0  0  0  0  0  0  0  0
   -1.1213    6.8638  -18.8547 C   0  0  0  0  0  0  0  0  0  0  0  0
   -1.2739    6.1650  -17.5385 C   0  0  0  0  0  0  0  0  0  0  0  0
  1  2  1  0
  2  3  1  0
  3  4  1  0
  4  5  1  0
  5  6  2  0
  6  7  1  0
  7  8  2  0
  8  9  1  0
  9 10  2  0
 10 11  1  0
 10 12  1  0
 12 13  2  0
 13 14  1  0
 14 15  2  0
  3 16  1  0
 16 17  1  0
 17  3  1  0
 15  5  1  0
 14  8  1  0
M  END
>  <energy_score>  (4744) 
-30.671312

>  <alias>  (4744) 
KZGHCNWJQAKKKQ-UHFFFAOYSA-N-P7-P7-P91-601530

>  <HIPPO Pose ID>  (4744) 
85807

>  <smiles>  (4744) 
OCC1(Nc2ccc3cc(O)ccc3n2)CC1

>  <inchikey>  (4744) 
KZGHCNWJQAKKKQ-UHFFFAOYSA-N

>  <distance_score>  (4744) 
0.948644

>  <ref_mols>  (4744) 
Z1688a,Z0089a

>  <ref_pdb>  (4744) 
Z0089a

>  <HIPPO Compound ID>  (4744) 
146055

>  <name>  (4744) 
KZGHCNWJQAKKKQ-UHFFFAOYSA-N-P7-P7-P91-601530

>  <inspiration_score>  (4744) 
None

$$$$
MRPDTVZFLKMZHS-UHFFFAOYSA-N-P91-P7-P91-601530
     RDKit          3D

 17 19  0  0  0  0  0  0  0  0999 V2000
   -2.5601    8.1826  -18.7928 O   0  0  0  0  0  0  0  0  0  0  0  0
   -2.1028    7.0617  -18.7208 C   0  0  0  0  0  0  0  0  0  0  0  0
   -0.6719    6.4825  -18.8439 C   0  0  0  0  0  0  0  0  0  0  0  0
   -1.3535    5.1454  -19.2333 C   0  0  0  0  0  0  0  0  0  0  0  0
   -2.6836    5.6161  -18.5618 C   0  0  2  0  0  0  0  0  0  0  0  0
   -3.7865    5.2619  -19.3950 N   0  0  0  0  0  0  0  0  0  0  0  0
   -5.0982    5.0551  -18.9167 C   0  0  0  0  0  0  0  0  0  0  0  0
   -6.0042    4.5962  -19.8557 C   0  0  0  0  0  0  0  0  0  0  0  0
   -7.2715    4.2340  -19.4714 C   0  0  0  0  0  0  0  0  0  0  0  0
   -7.6326    4.3928  -18.1591 C   0  0  0  0  0  0  0  0  0  0  0  0
   -8.9297    4.0418  -17.8204 C   0  0  0  0  0  0  0  0  0  0  0  0
   -9.3114    4.1006  -16.5018 C   0  0  0  0  0  0  0  0  0  0  0  0
   -8.4311    4.5441  -15.5308 C   0  0  0  0  0  0  0  0  0  0  0  0
   -7.1429    4.9315  -15.9003 C   0  0  0  0  0  0  0  0  0  0  0  0
   -6.3208    5.3883  -14.9025 O   0  0  0  0  0  0  0  0  0  0  0  0
   -6.6850    4.8626  -17.2246 C   0  0  0  0  0  0  0  0  0  0  0  0
   -5.4167    5.1821  -17.6139 N   0  0  0  0  0  0  0  0  0  0  0  0
  1  2  2  0
  2  3  1  0
  3  4  1  0
  4  5  1  0
  5  6  1  6
  6  7  1  0
  7  8  2  0
  8  9  1  0
  9 10  2  0
 10 11  1  0
 11 12  2  0
 12 13  1  0
 13 14  2  0
 14 15  1  0
 14 16  1  0
 16 17  2  0
  5  2  1  0
 17  7  1  0
 16 10  1  0
M  END
>  <energy_score>  (4745) 
-19.448237

>  <alias>  (4745) 
MRPDTVZFLKMZHS-UHFFFAOYSA-N-P91-P7-P91-601530

>  <HIPPO Pose ID>  (4745) 
85818

>  <smiles>  (4745) 
O=C1CCC1Nc1ccc2cccc(O)c2n1

>  <inchikey>  (4745) 
MRPDTVZFLKMZHS-UHFFFAOYSA-N

>  <distance_score>  (4745) 
0.837765

>  <ref_mols>  (4745) 
Z1688a,Z0089a

>  <ref_pdb>  (4745) 
Z0089a

>  <HIPPO Compound ID>  (4745) 
146060

>  <name>  (4745) 
MRPDTVZFLKMZHS-UHFFFAOYSA-N-P91-P7-P91-601530

>  <inspiration_score>  (4745) 
None

$$$$
OBXNUPVGIVPOFV-UHFFFAOYSA-N-P7-P7-P91-601530
     RDKit          3D

 17 18  0  0  0  0  0  0  0  0999 V2000
   -1.7417    3.8252  -19.3695 C   0  0  0  0  0  0  0  0  0  0  0  0
   -2.3895    4.9955  -20.0372 C   0  0  0  0  0  0  0  0  0  0  0  0
   -2.2937    5.1434  -21.2635 O   0  0  0  0  0  0  0  0  0  0  0  0
   -3.0432    6.0777  -19.1929 C   0  0  2  0  0  0  0  0  0  0  0  0
   -2.1395    7.3103  -19.2636 C   0  0  0  0  0  0  0  0  0  0  0  0
   -3.1839    5.6961  -17.7850 N   0  0  0  0  0  0  0  0  0  0  0  0
   -4.4719    5.3422  -17.3548 C   0  0  0  0  0  0  0  0  0  0  0  0
   -5.4083    5.0598  -18.2660 N   0  0  0  0  0  0  0  0  0  0  0  0
   -6.6478    4.7422  -17.8614 C   0  0  0  0  0  0  0  0  0  0  0  0
   -7.5996    4.4662  -18.8206 C   0  0  0  0  0  0  0  0  0  0  0  0
   -8.9241    4.1880  -18.4861 C   0  0  0  0  0  0  0  0  0  0  0  0
   -9.3044    4.1456  -17.1523 C   0  0  0  0  0  0  0  0  0  0  0  0
   -8.3568    4.3812  -16.1587 C   0  0  0  0  0  0  0  0  0  0  0  0
   -7.0287    4.6906  -16.5108 C   0  0  0  0  0  0  0  0  0  0  0  0
   -6.0347    4.9486  -15.5649 C   0  0  0  0  0  0  0  0  0  0  0  0
   -4.7321    5.2495  -15.9808 C   0  0  0  0  0  0  0  0  0  0  0  0
   -3.6708    5.4876  -14.9453 C   0  0  0  0  0  0  0  0  0  0  0  0
  1  2  1  0
  2  3  2  0
  2  4  1  0
  4  5  1  1
  4  6  1  0
  6  7  1  0
  7  8  2  0
  8  9  1  0
  9 10  2  0
 10 11  1  0
 11 12  2  0
 12 13  1  0
 13 14  2  0
 14 15  1  0
 15 16  2  0
 16 17  1  0
 16  7  1  0
 14  9  1  0
M  END
>  <energy_score>  (4746) 
-20.97178

>  <alias>  (4746) 
OBXNUPVGIVPOFV-UHFFFAOYSA-N-P7-P7-P91-601530

>  <HIPPO Pose ID>  (4746) 
85819

>  <smiles>  (4746) 
CC(=O)C(C)Nc1nc2ccccc2cc1C

>  <inchikey>  (4746) 
OBXNUPVGIVPOFV-UHFFFAOYSA-N

>  <distance_score>  (4746) 
0.991034

>  <ref_mols>  (4746) 
Z1688a,Z0089a

>  <ref_pdb>  (4746) 
Z0089a

>  <HIPPO Compound ID>  (4746) 
146061

>  <name>  (4746) 
OBXNUPVGIVPOFV-UHFFFAOYSA-N-P7-P7-P91-601530

>  <inspiration_score>  (4746) 
None

$$$$
OQKGKZDAOPBUBX-UHFFFAOYSA-N-P91-P7-P91-601530
     RDKit          3D

 17 19  0  0  0  0  0  0  0  0999 V2000
   -1.1799    6.8681  -20.4407 C   0  0  0  0  0  0  0  0  0  0  0  0
   -0.9859    5.8611  -19.3363 C   0  0  0  0  0  0  0  0  0  0  0  0
    0.3786    5.9140  -18.7001 C   0  0  0  0  0  0  0  0  0  0  0  0
   -1.6376    4.5069  -19.4986 C   0  0  0  0  0  0  0  0  0  0  0  0
   -2.1579    5.4633  -18.4597 C   0  0  2  0  0  0  0  0  0  0  0  0
   -3.4611    6.1044  -18.6438 N   0  0  0  0  0  0  0  0  0  0  0  0
   -4.5581    5.6012  -17.9457 C   0  0  0  0  0  0  0  0  0  0  0  0
   -4.7274    5.6950  -16.5733 C   0  0  0  0  0  0  0  0  0  0  0  0
   -5.9621    5.3257  -16.0216 C   0  0  0  0  0  0  0  0  0  0  0  0
   -6.9915    4.8679  -16.8655 C   0  0  0  0  0  0  0  0  0  0  0  0
   -8.3120    4.5541  -16.4623 C   0  0  0  0  0  0  0  0  0  0  0  0
   -9.2408    4.1933  -17.4348 C   0  0  0  0  0  0  0  0  0  0  0  0
  -10.5534    3.9714  -17.1841 O   0  0  0  0  0  0  0  0  0  0  0  0
   -8.8697    4.0637  -18.7561 C   0  0  0  0  0  0  0  0  0  0  0  0
   -7.5678    4.2994  -19.1333 C   0  0  0  0  0  0  0  0  0  0  0  0
   -6.6544    4.7517  -18.2269 C   0  0  0  0  0  0  0  0  0  0  0  0
   -5.4893    5.1022  -18.7465 N   0  0  0  0  0  0  0  0  0  0  0  0
  1  2  1  0
  2  3  1  0
  2  4  1  0
  4  5  1  0
  5  6  1  6
  6  7  1  0
  7  8  2  0
  8  9  1  0
  9 10  2  0
 10 11  1  0
 11 12  2  0
 12 13  1  0
 12 14  1  0
 14 15  2  0
 15 16  1  0
 16 17  2  0
  5  2  1  0
 17  7  1  0
 16 10  1  0
M  END
>  <energy_score>  (4747) 
-14.880374

>  <alias>  (4747) 
OQKGKZDAOPBUBX-UHFFFAOYSA-N-P91-P7-P91-601530

>  <HIPPO Pose ID>  (4747) 
85830

>  <smiles>  (4747) 
CC1(C)CC1Nc1ccc2cc(O)ccc2n1

>  <inchikey>  (4747) 
OQKGKZDAOPBUBX-UHFFFAOYSA-N

>  <distance_score>  (4747) 
0.962432

>  <ref_mols>  (4747) 
Z1688a,Z0089a

>  <ref_pdb>  (4747) 
Z0089a

>  <HIPPO Compound ID>  (4747) 
146066

>  <name>  (4747) 
OQKGKZDAOPBUBX-UHFFFAOYSA-N-P91-P7-P91-601530

>  <inspiration_score>  (4747) 
None

$$$$
AZOOACFKYLMXPO-UHFFFAOYSA-N-P7-P7-P91-601530
     RDKit          3D

 17 18  0  0  0  0  0  0  0  0999 V2000
    0.1043    5.7357  -19.3903 C   0  0  0  0  0  0  0  0  0  0  0  0
   -1.2523    5.0685  -19.5940 C   0  0  0  0  0  0  0  0  0  0  0  0
   -2.3623    5.7399  -18.7641 C   0  0  1  0  0  0  0  0  0  0  0  0
   -2.7395    7.1210  -19.3125 C   0  0  0  0  0  0  0  0  0  0  0  0
   -3.4984    7.7880  -18.3968 F   0  0  0  0  0  0  0  0  0  0  0  0
   -3.4954    4.8230  -18.7813 N   0  0  0  0  0  0  0  0  0  0  0  0
   -4.5718    4.9597  -17.9346 C   0  0  0  0  0  0  0  0  0  0  0  0
   -5.7102    4.7864  -18.6177 N   0  0  0  0  0  0  0  0  0  0  0  0
   -6.8624    4.6464  -17.9614 C   0  0  0  0  0  0  0  0  0  0  0  0
   -7.9947    4.3514  -18.6943 C   0  0  0  0  0  0  0  0  0  0  0  0
   -9.2157    4.1135  -18.0786 C   0  0  0  0  0  0  0  0  0  0  0  0
   -9.2977    4.1620  -16.6962 C   0  0  0  0  0  0  0  0  0  0  0  0
   -8.1820    4.4901  -15.9323 C   0  0  0  0  0  0  0  0  0  0  0  0
   -6.9552    4.7350  -16.5664 C   0  0  0  0  0  0  0  0  0  0  0  0
   -5.7784    5.0170  -15.8667 C   0  0  0  0  0  0  0  0  0  0  0  0
   -4.5521    5.0953  -16.5470 C   0  0  0  0  0  0  0  0  0  0  0  0
   -3.3073    5.2479  -15.7296 C   0  0  0  0  0  0  0  0  0  0  0  0
  1  2  1  0
  3  2  1  6
  3  4  1  0
  4  5  1  0
  3  6  1  0
  6  7  1  0
  7  8  2  0
  8  9  1  0
  9 10  2  0
 10 11  1  0
 11 12  2  0
 12 13  1  0
 13 14  2  0
 14 15  1  0
 15 16  2  0
 16 17  1  0
 16  7  1  0
 14  9  1  0
M  END
>  <energy_score>  (4748) 
-15.83027

>  <alias>  (4748) 
AZOOACFKYLMXPO-UHFFFAOYSA-N-P7-P7-P91-601530

>  <HIPPO Pose ID>  (4748) 
85833

>  <smiles>  (4748) 
CCC(CF)Nc1nc2ccccc2cc1C

>  <inchikey>  (4748) 
AZOOACFKYLMXPO-UHFFFAOYSA-N

>  <distance_score>  (4748) 
0.964864

>  <ref_mols>  (4748) 
Z1688a,Z0089a

>  <ref_pdb>  (4748) 
Z0089a

>  <HIPPO Compound ID>  (4748) 
146068

>  <name>  (4748) 
AZOOACFKYLMXPO-UHFFFAOYSA-N-P7-P7-P91-601530

>  <inspiration_score>  (4748) 
None

$$$$
MQXCMWMCHAJFRB-UHFFFAOYSA-N-P7-P7-P91-601530
     RDKit          3D

 17 20  0  0  0  0  0  0  0  0999 V2000
   -3.5078    6.2846  -16.0689 C   0  0  0  0  0  0  0  0  0  0  0  0
   -4.7227    5.7241  -16.7409 C   0  0  0  0  0  0  0  0  0  0  0  0
   -5.8279    5.3675  -15.9580 C   0  0  0  0  0  0  0  0  0  0  0  0
   -6.9880    4.8767  -16.5662 C   0  0  0  0  0  0  0  0  0  0  0  0
   -8.1276    4.5113  -15.8396 C   0  0  0  0  0  0  0  0  0  0  0  0
   -9.2617    4.0742  -16.5147 C   0  0  0  0  0  0  0  0  0  0  0  0
   -9.2766    3.9962  -17.8988 C   0  0  0  0  0  0  0  0  0  0  0  0
   -8.1309    4.3282  -18.6084 C   0  0  0  0  0  0  0  0  0  0  0  0
   -6.9891    4.7660  -17.9656 C   0  0  0  0  0  0  0  0  0  0  0  0
   -5.9285    5.0737  -18.7108 N   0  0  0  0  0  0  0  0  0  0  0  0
   -4.8132    5.5181  -18.1193 C   0  0  0  0  0  0  0  0  0  0  0  0
   -3.7825    5.7461  -19.0384 N   0  0  0  0  0  0  0  0  0  0  0  0
   -2.4749    5.1488  -18.7740 C   0  0  1  0  0  0  0  0  0  0  0  0
   -1.4607    5.0028  -19.9078 C   0  0  0  0  0  0  0  0  0  0  0  0
   -1.2523    5.9451  -18.8175 C   0  0  0  0  0  0  0  0  0  0  0  0
   -0.8733    7.3515  -18.7361 C   0  0  0  0  0  0  0  0  0  0  0  0
   -0.1523    6.2715  -17.9180 C   0  0  0  0  0  0  0  0  0  0  0  0
  1  2  1  0
  2  3  2  0
  3  4  1  0
  4  5  2  0
  5  6  1  0
  6  7  2  0
  7  8  1  0
  8  9  2  0
  9 10  1  0
 10 11  2  0
 11 12  1  0
 13 12  1  6
 13 14  1  0
 14 15  1  0
 15 16  1  0
 16 17  1  0
 11  2  1  0
 15 13  1  0
  9  4  1  0
 17 15  1  0
M  END
>  <energy_score>  (4749) 
-20.796438

>  <alias>  (4749) 
MQXCMWMCHAJFRB-UHFFFAOYSA-N-P7-P7-P91-601530

>  <HIPPO Pose ID>  (4749) 
85835

>  <smiles>  (4749) 
Cc1cc2ccccc2nc1NC1CC12CC2

>  <inchikey>  (4749) 
MQXCMWMCHAJFRB-UHFFFAOYSA-N

>  <distance_score>  (4749) 
0.9897

>  <ref_mols>  (4749) 
Z1688a,Z0089a

>  <ref_pdb>  (4749) 
Z0089a

>  <HIPPO Compound ID>  (4749) 
146069

>  <name>  (4749) 
MQXCMWMCHAJFRB-UHFFFAOYSA-N-P7-P7-P91-601530

>  <inspiration_score>  (4749) 
None

$$$$
AOUFUGPLATWRKD-UHFFFAOYSA-N-P91-P7-P91-601530
     RDKit          3D

 17 20  0  0  0  0  0  0  0  0999 V2000
  -10.6462    4.0556  -17.3567 O   0  0  0  0  0  0  0  0  0  0  0  0
   -9.3111    4.2444  -17.5178 C   0  0  0  0  0  0  0  0  0  0  0  0
   -8.8329    4.1436  -18.8092 C   0  0  0  0  0  0  0  0  0  0  0  0
   -7.4882    4.3472  -19.0664 C   0  0  0  0  0  0  0  0  0  0  0  0
   -6.6247    4.7200  -18.0702 C   0  0  0  0  0  0  0  0  0  0  0  0
   -5.3727    4.9776  -18.4427 N   0  0  0  0  0  0  0  0  0  0  0  0
   -4.4944    5.3906  -17.5306 C   0  0  0  0  0  0  0  0  0  0  0  0
   -3.1749    5.6782  -17.9282 N   0  0  0  0  0  0  0  0  0  0  0  0
   -2.8235    5.5736  -19.3487 C   0  0  2  0  0  0  0  0  0  0  0  0
   -1.8269    4.5068  -19.8151 C   0  0  0  0  0  0  0  0  0  0  0  0
   -1.4778    5.9214  -19.7954 C   0  0  0  0  0  0  0  0  0  0  0  0
   -0.3554    6.7104  -19.2992 C   0  0  0  0  0  0  0  0  0  0  0  0
   -0.8758    6.8598  -20.7351 C   0  0  0  0  0  0  0  0  0  0  0  0
   -4.8459    5.5120  -16.1892 C   0  0  0  0  0  0  0  0  0  0  0  0
   -6.1553    5.2306  -15.7900 C   0  0  0  0  0  0  0  0  0  0  0  0
   -7.0965    4.8320  -16.7483 C   0  0  0  0  0  0  0  0  0  0  0  0
   -8.4546    4.5581  -16.4671 C   0  0  0  0  0  0  0  0  0  0  0  0
  1  2  1  0
  2  3  2  0
  3  4  1  0
  4  5  2  0
  5  6  1  0
  6  7  2  0
  7  8  1  0
  9  8  1  1
  9 10  1  0
 10 11  1  0
 11 12  1  0
 12 13  1  0
  7 14  1  0
 14 15  2  0
 15 16  1  0
 16 17  2  0
 17  2  1  0
 16  5  1  0
 11  9  1  0
 13 11  1  0
M  END
>  <energy_score>  (4750) 
-26.028562

>  <alias>  (4750) 
AOUFUGPLATWRKD-UHFFFAOYSA-N-P91-P7-P91-601530

>  <HIPPO Pose ID>  (4750) 
85840

>  <smiles>  (4750) 
Oc1ccc2nc(NC3CC34CC4)ccc2c1

>  <inchikey>  (4750) 
AOUFUGPLATWRKD-UHFFFAOYSA-N

>  <distance_score>  (4750) 
0.962273

>  <ref_mols>  (4750) 
Z1688a,Z0089a

>  <ref_pdb>  (4750) 
Z0089a

>  <HIPPO Compound ID>  (4750) 
146071

>  <name>  (4750) 
AOUFUGPLATWRKD-UHFFFAOYSA-N-P91-P7-P91-601530

>  <inspiration_score>  (4750) 
None

$$$$
HPHIWRUGIFXZFQ-UHFFFAOYSA-N-P7-P7-P91-601530
     RDKit          3D

 17 19  0  0  0  0  0  0  0  0999 V2000
   -3.6935    5.8291  -15.1293 C   0  0  0  0  0  0  0  0  0  0  0  0
   -4.7688    5.4545  -16.1078 C   0  0  0  0  0  0  0  0  0  0  0  0
   -6.0497    5.1416  -15.6403 C   0  0  0  0  0  0  0  0  0  0  0  0
   -7.0498    4.7741  -16.5434 C   0  0  0  0  0  0  0  0  0  0  0  0
   -8.3609    4.4596  -16.1406 C   0  0  0  0  0  0  0  0  0  0  0  0
   -9.3258    4.1492  -17.0955 C   0  0  0  0  0  0  0  0  0  0  0  0
   -8.9814    4.1260  -18.4389 C   0  0  0  0  0  0  0  0  0  0  0  0
   -7.6703    4.3960  -18.8231 C   0  0  0  0  0  0  0  0  0  0  0  0
   -6.6994    4.7336  -17.9044 C   0  0  0  0  0  0  0  0  0  0  0  0
   -5.4740    5.0254  -18.3592 N   0  0  0  0  0  0  0  0  0  0  0  0
   -4.5268    5.3950  -17.4884 C   0  0  0  0  0  0  0  0  0  0  0  0
   -3.2432    5.7377  -17.9639 N   0  0  0  0  0  0  0  0  0  0  0  0
   -2.8779    5.5605  -19.3645 C   0  0  2  0  0  0  0  0  0  0  0  0
   -1.8637    4.5272  -19.7620 C   0  0  0  0  0  0  0  0  0  0  0  0
   -1.4914    5.9903  -19.8206 C   0  0  0  0  0  0  0  0  0  0  0  0
   -1.3674    6.6537  -21.1658 C   0  0  0  0  0  0  0  0  0  0  0  0
   -0.4699    6.4640  -18.8169 C   0  0  0  0  0  0  0  0  0  0  0  0
  1  2  1  0
  2  3  2  0
  3  4  1  0
  4  5  2  0
  5  6  1  0
  6  7  2  0
  7  8  1  0
  8  9  2  0
  9 10  1  0
 10 11  2  0
 11 12  1  0
 13 12  1  1
 13 14  1  0
 14 15  1  0
 15 16  1  0
 15 17  1  0
 11  2  1  0
 15 13  1  0
  9  4  1  0
M  END
>  <energy_score>  (4751) 
-13.720244

>  <alias>  (4751) 
HPHIWRUGIFXZFQ-UHFFFAOYSA-N-P7-P7-P91-601530

>  <HIPPO Pose ID>  (4751) 
85843

>  <smiles>  (4751) 
Cc1cc2ccccc2nc1NC1CC1(C)C

>  <inchikey>  (4751) 
HPHIWRUGIFXZFQ-UHFFFAOYSA-N

>  <distance_score>  (4751) 
0.942585

>  <ref_mols>  (4751) 
Z1688a,Z0089a

>  <ref_pdb>  (4751) 
Z0089a

>  <HIPPO Compound ID>  (4751) 
146073

>  <name>  (4751) 
HPHIWRUGIFXZFQ-UHFFFAOYSA-N-P7-P7-P91-601530

>  <inspiration_score>  (4751) 
None

$$$$
GDMZUEBBTXBQIC-UHFFFAOYSA-N-P91-P7-P91-601530
     RDKit          3D

 17 18  0  0  0  0  0  0  0  0999 V2000
   -1.4963    5.3664  -21.6353 C   0  0  0  0  0  0  0  0  0  0  0  0
   -1.6991    4.6526  -20.3021 C   0  0  0  0  0  0  0  0  0  0  0  0
   -2.3668    5.5019  -19.2111 C   0  0  1  0  0  0  0  0  0  0  0  0
   -1.6443    6.8496  -19.0454 C   0  0  0  0  0  0  0  0  0  0  0  0
   -1.9150    7.3932  -17.8262 F   0  0  0  0  0  0  0  0  0  0  0  0
   -3.7740    5.7180  -19.5450 N   0  0  0  0  0  0  0  0  0  0  0  0
   -4.7326    5.5357  -18.5641 C   0  0  0  0  0  0  0  0  0  0  0  0
   -4.5429    5.8978  -17.2407 C   0  0  0  0  0  0  0  0  0  0  0  0
   -5.5401    5.6573  -16.3005 C   0  0  0  0  0  0  0  0  0  0  0  0
   -5.3030    6.0280  -14.8689 C   0  0  0  0  0  0  0  0  0  0  0  0
   -6.7427    5.0788  -16.7396 C   0  0  0  0  0  0  0  0  0  0  0  0
   -7.8111    4.7710  -15.8759 C   0  0  0  0  0  0  0  0  0  0  0  0
   -8.9834    4.2296  -16.3684 C   0  0  0  0  0  0  0  0  0  0  0  0
   -9.1186    4.0145  -17.7250 C   0  0  0  0  0  0  0  0  0  0  0  0
   -8.0591    4.2910  -18.5827 C   0  0  0  0  0  0  0  0  0  0  0  0
   -6.8660    4.7997  -18.1161 C   0  0  0  0  0  0  0  0  0  0  0  0
   -5.8780    5.0026  -18.9957 N   0  0  0  0  0  0  0  0  0  0  0  0
  1  2  1  0
  3  2  1  6
  3  4  1  0
  4  5  1  0
  3  6  1  0
  6  7  1  0
  7  8  2  0
  8  9  1  0
  9 10  1  0
  9 11  2  0
 11 12  1  0
 12 13  2  0
 13 14  1  0
 14 15  2  0
 15 16  1  0
 16 17  2  0
 17  7  1  0
 16 11  1  0
M  END
>  <energy_score>  (4752) 
-30.748425

>  <alias>  (4752) 
GDMZUEBBTXBQIC-UHFFFAOYSA-N-P91-P7-P91-601530

>  <HIPPO Pose ID>  (4752) 
85846

>  <smiles>  (4752) 
CCC(CF)Nc1cc(C)c2ccccc2n1

>  <inchikey>  (4752) 
GDMZUEBBTXBQIC-UHFFFAOYSA-N

>  <distance_score>  (4752) 
1.889437

>  <ref_mols>  (4752) 
Z1688a,Z0089a

>  <ref_pdb>  (4752) 
Z0089a

>  <HIPPO Compound ID>  (4752) 
146074

>  <name>  (4752) 
GDMZUEBBTXBQIC-UHFFFAOYSA-N-P91-P7-P91-601530

>  <inspiration_score>  (4752) 
None

$$$$
SLLUAQLUJPHWDH-UHFFFAOYSA-N-P91-P7-P91-601530
     RDKit          3D

 17 18  0  0  0  0  0  0  0  0999 V2000
    0.3916    5.6287  -18.9438 C   0  0  0  0  0  0  0  0  0  0  0  0
   -0.9754    5.0486  -19.2810 C   0  0  0  0  0  0  0  0  0  0  0  0
   -2.1165    5.7314  -18.5052 C   0  0  1  0  0  0  0  0  0  0  0  0
   -2.3218    7.1849  -18.9473 C   0  0  0  0  0  0  0  0  0  0  0  0
   -2.4429    7.2573  -20.3010 F   0  0  0  0  0  0  0  0  0  0  0  0
   -3.2971    4.9354  -18.7457 N   0  0  0  0  0  0  0  0  0  0  0  0
   -4.4563    5.0368  -18.0387 C   0  0  0  0  0  0  0  0  0  0  0  0
   -4.6147    5.2554  -16.6807 C   0  0  0  0  0  0  0  0  0  0  0  0
   -5.8998    5.1491  -16.1186 C   0  0  0  0  0  0  0  0  0  0  0  0
   -6.9933    4.8031  -16.9367 C   0  0  0  0  0  0  0  0  0  0  0  0
   -8.3300    4.5855  -16.5151 C   0  0  0  0  0  0  0  0  0  0  0  0
   -9.2912    4.2674  -17.4729 C   0  0  0  0  0  0  0  0  0  0  0  0
  -10.5988    4.0469  -17.2029 O   0  0  0  0  0  0  0  0  0  0  0  0
   -8.9562    4.1512  -18.8036 C   0  0  0  0  0  0  0  0  0  0  0  0
   -7.6483    4.2889  -19.1960 C   0  0  0  0  0  0  0  0  0  0  0  0
   -6.6880    4.6389  -18.2971 C   0  0  0  0  0  0  0  0  0  0  0  0
   -5.4859    4.7754  -18.8243 N   0  0  0  0  0  0  0  0  0  0  0  0
  1  2  1  0
  3  2  1  6
  3  4  1  0
  4  5  1  0
  3  6  1  0
  6  7  1  0
  7  8  2  0
  8  9  1  0
  9 10  2  0
 10 11  1  0
 11 12  2  0
 12 13  1  0
 12 14  1  0
 14 15  2  0
 15 16  1  0
 16 17  2  0
 17  7  1  0
 16 10  1  0
M  END
>  <energy_score>  (4753) 
-38.288719

>  <alias>  (4753) 
SLLUAQLUJPHWDH-UHFFFAOYSA-N-P91-P7-P91-601530

>  <HIPPO Pose ID>  (4753) 
85848

>  <smiles>  (4753) 
CCC(CF)Nc1ccc2cc(O)ccc2n1

>  <inchikey>  (4753) 
SLLUAQLUJPHWDH-UHFFFAOYSA-N

>  <distance_score>  (4753) 
0.974431

>  <ref_mols>  (4753) 
Z1688a,Z0089a

>  <ref_pdb>  (4753) 
Z0089a

>  <HIPPO Compound ID>  (4753) 
146075

>  <name>  (4753) 
SLLUAQLUJPHWDH-UHFFFAOYSA-N-P91-P7-P91-601530

>  <inspiration_score>  (4753) 
None

$$$$
ANZIJFXFIRSDPV-UHFFFAOYSA-N-P91-P7-P91-601530
     RDKit          3D

 17 19  0  0  0  0  0  0  0  0999 V2000
   -3.2825    6.1448  -16.0503 C   0  0  0  0  0  0  0  0  0  0  0  0
   -4.5116    5.6846  -16.7668 C   0  0  0  0  0  0  0  0  0  0  0  0
   -5.6084    5.2891  -15.9797 C   0  0  0  0  0  0  0  0  0  0  0  0
   -6.8023    4.8760  -16.5773 C   0  0  0  0  0  0  0  0  0  0  0  0
   -7.9329    4.4987  -15.8408 C   0  0  0  0  0  0  0  0  0  0  0  0
   -9.0879    4.1101  -16.5083 C   0  0  0  0  0  0  0  0  0  0  0  0
   -9.1264    4.0796  -17.8923 C   0  0  0  0  0  0  0  0  0  0  0  0
   -7.9919    4.4273  -18.6113 C   0  0  0  0  0  0  0  0  0  0  0  0
   -6.8375    4.8438  -17.9758 C   0  0  0  0  0  0  0  0  0  0  0  0
   -5.8016    5.2262  -18.7237 N   0  0  0  0  0  0  0  0  0  0  0  0
   -4.6714    5.6697  -18.1527 C   0  0  0  0  0  0  0  0  0  0  0  0
   -3.8068    6.1765  -19.1182 N   0  0  0  0  0  0  0  0  0  0  0  0
   -2.3395    6.1767  -19.0899 C   0  0  0  0  0  0  0  0  0  0  0  0
   -1.6866    4.8152  -19.1744 C   0  0  0  0  0  0  0  0  0  0  0  0
   -1.8338    4.1828  -21.0031 Br  0  0  0  0  0  0  0  0  0  0  0  0
   -1.5985    7.3197  -18.4245 C   0  0  0  0  0  0  0  0  0  0  0  0
   -1.6673    7.2804  -19.9092 C   0  0  0  0  0  0  0  0  0  0  0  0
  1  2  1  0
  2  3  2  0
  3  4  1  0
  4  5  2  0
  5  6  1  0
  6  7  2  0
  7  8  1  0
  8  9  2  0
  9 10  1  0
 10 11  2  0
 11 12  1  0
 12 13  1  0
 13 14  1  0
 14 15  1  0
 13 16  1  0
 16 17  1  0
 11  2  1  0
 17 13  1  0
  9  4  1  0
M  END
>  <energy_score>  (4754) 
-50.022087

>  <alias>  (4754) 
ANZIJFXFIRSDPV-UHFFFAOYSA-N-P91-P7-P91-601530

>  <HIPPO Pose ID>  (4754) 
85852

>  <smiles>  (4754) 
Cc1cc2ccccc2nc1NC1(CBr)CC1

>  <inchikey>  (4754) 
ANZIJFXFIRSDPV-UHFFFAOYSA-N

>  <distance_score>  (4754) 
1.025578

>  <ref_mols>  (4754) 
Z1688a,Z0089a

>  <ref_pdb>  (4754) 
Z0089a

>  <HIPPO Compound ID>  (4754) 
146077

>  <name>  (4754) 
ANZIJFXFIRSDPV-UHFFFAOYSA-N-P91-P7-P91-601530

>  <inspiration_score>  (4754) 
None

$$$$
NMWXKCLYMMNSLR-UHFFFAOYSA-N-P91-P7-P91-601530
     RDKit          3D

 17 19  0  0  0  0  0  0  0  0999 V2000
   -4.9437    5.6078  -14.9868 C   0  0  0  0  0  0  0  0  0  0  0  0
   -5.3488    5.3611  -16.4077 C   0  0  0  0  0  0  0  0  0  0  0  0
   -4.4141    5.5327  -17.4277 C   0  0  0  0  0  0  0  0  0  0  0  0
   -4.7923    5.3664  -18.7496 C   0  0  0  0  0  0  0  0  0  0  0  0
   -3.9481    5.6156  -19.8236 N   0  0  0  0  0  0  0  0  0  0  0  0
   -2.5705    6.1128  -19.7826 C   0  0  0  0  0  0  0  0  0  0  0  0
   -1.5255    5.0645  -20.1114 C   0  0  0  0  0  0  0  0  0  0  0  0
   -1.3602    4.9426  -22.0636 Br  0  0  0  0  0  0  0  0  0  0  0  0
   -2.1674    7.2775  -18.8893 C   0  0  0  0  0  0  0  0  0  0  0  0
   -2.3441    7.5171  -20.3457 C   0  0  0  0  0  0  0  0  0  0  0  0
   -6.0275    4.9772  -19.0842 N   0  0  0  0  0  0  0  0  0  0  0  0
   -6.9332    4.7744  -18.1219 C   0  0  0  0  0  0  0  0  0  0  0  0
   -8.2032    4.3807  -18.4916 C   0  0  0  0  0  0  0  0  0  0  0  0
   -9.1980    4.1409  -17.5486 C   0  0  0  0  0  0  0  0  0  0  0  0
   -8.9185    4.2839  -16.2040 C   0  0  0  0  0  0  0  0  0  0  0  0
   -7.6594    4.6954  -15.8064 C   0  0  0  0  0  0  0  0  0  0  0  0
   -6.6497    4.9520  -16.7541 C   0  0  0  0  0  0  0  0  0  0  0  0
  1  2  1  0
  2  3  2  0
  3  4  1  0
  4  5  1  0
  5  6  1  0
  6  7  1  0
  7  8  1  0
  6  9  1  0
  9 10  1  0
  4 11  2  0
 11 12  1  0
 12 13  2  0
 13 14  1  0
 14 15  2  0
 15 16  1  0
 16 17  2  0
 17  2  1  0
 10  6  1  0
 17 12  1  0
M  END
>  <energy_score>  (4755) 
-31.55907

>  <alias>  (4755) 
NMWXKCLYMMNSLR-UHFFFAOYSA-N-P91-P7-P91-601530

>  <HIPPO Pose ID>  (4755) 
85854

>  <smiles>  (4755) 
Cc1cc(NC2(CBr)CC2)nc2ccccc12

>  <inchikey>  (4755) 
NMWXKCLYMMNSLR-UHFFFAOYSA-N

>  <distance_score>  (4755) 
1.799018

>  <ref_mols>  (4755) 
Z1688a,Z0089a

>  <ref_pdb>  (4755) 
Z0089a

>  <HIPPO Compound ID>  (4755) 
146078

>  <name>  (4755) 
NMWXKCLYMMNSLR-UHFFFAOYSA-N-P91-P7-P91-601530

>  <inspiration_score>  (4755) 
None

$$$$
GUHSOXZFVNYBRM-UHFFFAOYSA-N-P7-P7-P91-601530
     RDKit          3D

 17 19  0  0  0  0  0  0  0  0999 V2000
   -3.5899    6.4344  -15.8696 C   0  0  0  0  0  0  0  0  0  0  0  0
   -4.7028    5.7748  -16.6223 C   0  0  0  0  0  0  0  0  0  0  0  0
   -5.8369    5.3712  -15.8992 C   0  0  0  0  0  0  0  0  0  0  0  0
   -6.9552    4.8623  -16.5650 C   0  0  0  0  0  0  0  0  0  0  0  0
   -8.1383    4.5031  -15.9024 C   0  0  0  0  0  0  0  0  0  0  0  0
   -9.2390    4.0787  -16.6390 C   0  0  0  0  0  0  0  0  0  0  0  0
   -9.1682    3.9957  -18.0210 C   0  0  0  0  0  0  0  0  0  0  0  0
   -7.9769    4.3124  -18.6631 C   0  0  0  0  0  0  0  0  0  0  0  0
   -6.8708    4.7479  -17.9589 C   0  0  0  0  0  0  0  0  0  0  0  0
   -5.7695    5.0708  -18.6418 N   0  0  0  0  0  0  0  0  0  0  0  0
   -4.7074    5.5770  -18.0034 C   0  0  0  0  0  0  0  0  0  0  0  0
   -3.7299    5.9422  -18.9037 N   0  0  0  0  0  0  0  0  0  0  0  0
   -2.3352    5.6121  -18.6719 C   0  0  1  0  0  0  0  0  0  0  0  0
   -1.6845    5.0404  -19.9151 C   0  0  0  0  0  0  0  0  0  0  0  0
   -0.2298    5.4076  -19.7243 C   0  0  0  0  0  0  0  0  0  0  0  0
   -0.2067    6.6671  -19.0476 O   0  0  0  0  0  0  0  0  0  0  0  0
   -1.4997    6.8769  -18.4628 C   0  0  0  0  0  0  0  0  0  0  0  0
  1  2  1  0
  2  3  2  0
  3  4  1  0
  4  5  2  0
  5  6  1  0
  6  7  2  0
  7  8  1  0
  8  9  2  0
  9 10  1  0
 10 11  2  0
 11 12  1  0
 13 12  1  6
 13 14  1  0
 14 15  1  0
 15 16  1  0
 16 17  1  0
 11  2  1  0
 17 13  1  0
  9  4  1  0
M  END
>  <energy_score>  (4756) 
-34.794569

>  <alias>  (4756) 
GUHSOXZFVNYBRM-UHFFFAOYSA-N-P7-P7-P91-601530

>  <HIPPO Pose ID>  (4756) 
85859

>  <smiles>  (4756) 
Cc1cc2ccccc2nc1NC1CCOC1

>  <inchikey>  (4756) 
GUHSOXZFVNYBRM-UHFFFAOYSA-N

>  <distance_score>  (4756) 
0.941823

>  <ref_mols>  (4756) 
Z1688a,Z0089a

>  <ref_pdb>  (4756) 
Z0089a

>  <HIPPO Compound ID>  (4756) 
146081

>  <name>  (4756) 
GUHSOXZFVNYBRM-UHFFFAOYSA-N-P7-P7-P91-601530

>  <inspiration_score>  (4756) 
None

$$$$
QLEAITDEBCSFCP-UHFFFAOYSA-N-P7-P7-P91-601530
     RDKit          3D

 17 19  0  0  0  0  0  0  0  0999 V2000
   -5.0918    5.8459  -14.9932 C   0  0  0  0  0  0  0  0  0  0  0  0
   -5.4788    5.5084  -16.4009 C   0  0  0  0  0  0  0  0  0  0  0  0
   -4.5599    5.7043  -17.4297 C   0  0  0  0  0  0  0  0  0  0  0  0
   -4.9161    5.3928  -18.7320 C   0  0  0  0  0  0  0  0  0  0  0  0
   -4.0261    5.5344  -19.8051 N   0  0  0  0  0  0  0  0  0  0  0  0
   -2.6112    5.2306  -19.6145 C   0  0  1  0  0  0  0  0  0  0  0  0
   -1.5966    5.7312  -20.6012 C   0  0  0  0  0  0  0  0  0  0  0  0
   -1.6460    6.3234  -19.2217 C   0  0  2  0  0  0  0  0  0  0  0  0
   -0.5404    6.0550  -18.2583 C   0  0  0  0  0  0  0  0  0  0  0  0
    0.4702    7.0421  -18.4089 O   0  0  0  0  0  0  0  0  0  0  0  0
   -6.1331    4.9478  -19.0584 N   0  0  0  0  0  0  0  0  0  0  0  0
   -7.0288    4.7549  -18.0865 C   0  0  0  0  0  0  0  0  0  0  0  0
   -8.2829    4.3032  -18.4419 C   0  0  0  0  0  0  0  0  0  0  0  0
   -9.2652    4.0476  -17.4896 C   0  0  0  0  0  0  0  0  0  0  0  0
   -8.9883    4.2327  -16.1488 C   0  0  0  0  0  0  0  0  0  0  0  0
   -7.7464    4.7125  -15.7680 C   0  0  0  0  0  0  0  0  0  0  0  0
   -6.7510    4.9944  -16.7257 C   0  0  0  0  0  0  0  0  0  0  0  0
  1  2  1  0
  2  3  2  0
  3  4  1  0
  4  5  1  0
  6  5  1  6
  6  7  1  0
  7  8  1  0
  8  9  1  1
  9 10  1  0
  4 11  2  0
 11 12  1  0
 12 13  2  0
 13 14  1  0
 14 15  2  0
 15 16  1  0
 16 17  2  0
 17  2  1  0
  8  6  1  0
 17 12  1  0
M  END
>  <energy_score>  (4757) 
-17.334712

>  <alias>  (4757) 
QLEAITDEBCSFCP-UHFFFAOYSA-N-P7-P7-P91-601530

>  <HIPPO Pose ID>  (4757) 
85869

>  <smiles>  (4757) 
Cc1cc(NC2CC2CO)nc2ccccc12

>  <inchikey>  (4757) 
QLEAITDEBCSFCP-UHFFFAOYSA-N

>  <distance_score>  (4757) 
1.818321

>  <ref_mols>  (4757) 
Z1688a,Z0089a

>  <ref_pdb>  (4757) 
Z0089a

>  <HIPPO Compound ID>  (4757) 
146086

>  <name>  (4757) 
QLEAITDEBCSFCP-UHFFFAOYSA-N-P7-P7-P91-601530

>  <inspiration_score>  (4757) 
None

$$$$
PVVABTFMJONYFA-UHFFFAOYSA-N-P91-P7-P91-601530
     RDKit          3D

 17 18  0  0  0  0  0  0  0  0999 V2000
   -1.5229    4.7410  -19.6451 C   0  0  0  0  0  0  0  0  0  0  0  0
   -2.6602    5.7348  -19.4043 C   0  0  2  0  0  0  0  0  0  0  0  0
   -2.0954    7.1185  -19.0538 C   0  0  0  0  0  0  0  0  0  0  0  0
   -3.1544    8.2052  -18.8818 C   0  0  0  0  0  0  0  0  0  0  0  0
   -3.9879    8.5882  -20.4071 Cl  0  0  0  0  0  0  0  0  0  0  0  0
   -3.4553    5.2333  -18.3013 N   0  0  0  0  0  0  0  0  0  0  0  0
   -4.8164    5.0579  -18.3634 C   0  0  0  0  0  0  0  0  0  0  0  0
   -5.4620    4.6918  -19.5278 C   0  0  0  0  0  0  0  0  0  0  0  0
   -6.7987    4.3595  -19.4871 C   0  0  0  0  0  0  0  0  0  0  0  0
   -7.4906    4.4645  -18.3000 C   0  0  0  0  0  0  0  0  0  0  0  0
   -8.8513    4.1614  -18.2584 C   0  0  0  0  0  0  0  0  0  0  0  0
   -9.5220    4.2091  -17.0499 C   0  0  0  0  0  0  0  0  0  0  0  0
   -8.8387    4.5663  -15.8921 C   0  0  0  0  0  0  0  0  0  0  0  0
   -7.4952    4.9050  -15.9670 C   0  0  0  0  0  0  0  0  0  0  0  0
   -6.8715    5.3005  -14.8110 O   0  0  0  0  0  0  0  0  0  0  0  0
   -6.7806    4.8595  -17.1576 C   0  0  0  0  0  0  0  0  0  0  0  0
   -5.4614    5.1656  -17.1844 N   0  0  0  0  0  0  0  0  0  0  0  0
  2  1  1  1
  2  3  1  0
  3  4  1  0
  4  5  1  0
  2  6  1  0
  6  7  1  0
  7  8  2  0
  8  9  1  0
  9 10  2  0
 10 11  1  0
 11 12  2  0
 12 13  1  0
 13 14  2  0
 14 15  1  0
 14 16  1  0
 16 17  2  0
 17  7  1  0
 16 10  1  0
M  END
>  <energy_score>  (4758) 
-46.93696

>  <alias>  (4758) 
PVVABTFMJONYFA-UHFFFAOYSA-N-P91-P7-P91-601530

>  <HIPPO Pose ID>  (4758) 
85882

>  <smiles>  (4758) 
CC(CCCl)Nc1ccc2cccc(O)c2n1

>  <inchikey>  (4758) 
PVVABTFMJONYFA-UHFFFAOYSA-N

>  <distance_score>  (4758) 
0.925833

>  <ref_mols>  (4758) 
Z1688a,Z0089a

>  <ref_pdb>  (4758) 
Z0089a

>  <HIPPO Compound ID>  (4758) 
146092

>  <name>  (4758) 
PVVABTFMJONYFA-UHFFFAOYSA-N-P91-P7-P91-601530

>  <inspiration_score>  (4758) 
None

$$$$
WYNRLSCFTXEUPW-UHFFFAOYSA-N-P7-P7-P91-601530
     RDKit          3D

 17 18  0  0  0  0  0  0  0  0999 V2000
   -3.5412    6.4795  -15.9260 C   0  0  0  0  0  0  0  0  0  0  0  0
   -4.6646    5.8071  -16.6550 C   0  0  0  0  0  0  0  0  0  0  0  0
   -5.7838    5.3984  -15.9122 C   0  0  0  0  0  0  0  0  0  0  0  0
   -6.9103    4.8799  -16.5600 C   0  0  0  0  0  0  0  0  0  0  0  0
   -8.0845    4.5203  -15.8808 C   0  0  0  0  0  0  0  0  0  0  0  0
   -9.1949    4.0890  -16.6001 C   0  0  0  0  0  0  0  0  0  0  0  0
   -9.1436    4.0015  -17.9830 C   0  0  0  0  0  0  0  0  0  0  0  0
   -7.9615    4.3189  -18.6422 C   0  0  0  0  0  0  0  0  0  0  0  0
   -6.8451    4.7576  -17.9549 C   0  0  0  0  0  0  0  0  0  0  0  0
   -5.7525    5.0747  -18.6548 N   0  0  0  0  0  0  0  0  0  0  0  0
   -4.6836    5.5865  -18.0318 C   0  0  0  0  0  0  0  0  0  0  0  0
   -3.7080    5.9495  -18.9349 N   0  0  0  0  0  0  0  0  0  0  0  0
   -2.3198    5.5413  -18.7637 C   0  0  1  0  0  0  0  0  0  0  0  0
   -2.0895    4.1589  -19.3606 C   0  0  0  0  0  0  0  0  0  0  0  0
   -1.4646    6.6241  -19.4391 C   0  0  0  0  0  0  0  0  0  0  0  0
    0.0312    6.4008  -19.2513 C   0  0  0  0  0  0  0  0  0  0  0  0
    0.9493    7.7805  -19.9059 Cl  0  0  0  0  0  0  0  0  0  0  0  0
  1  2  1  0
  2  3  2  0
  3  4  1  0
  4  5  2  0
  5  6  1  0
  6  7  2  0
  7  8  1  0
  8  9  2  0
  9 10  1  0
 10 11  2  0
 11 12  1  0
 12 13  1  0
 13 14  1  6
 13 15  1  0
 15 16  1  0
 16 17  1  0
 11  2  1  0
  9  4  1  0
M  END
>  <energy_score>  (4759) 
-30.103049

>  <alias>  (4759) 
WYNRLSCFTXEUPW-UHFFFAOYSA-N-P7-P7-P91-601530

>  <HIPPO Pose ID>  (4759) 
85883

>  <smiles>  (4759) 
Cc1cc2ccccc2nc1NC(C)CCCl

>  <inchikey>  (4759) 
WYNRLSCFTXEUPW-UHFFFAOYSA-N

>  <distance_score>  (4759) 
0.9123

>  <ref_mols>  (4759) 
Z1688a,Z0089a

>  <ref_pdb>  (4759) 
Z0089a

>  <HIPPO Compound ID>  (4759) 
146093

>  <name>  (4759) 
WYNRLSCFTXEUPW-UHFFFAOYSA-N-P7-P7-P91-601530

>  <inspiration_score>  (4759) 
None

$$$$
WXXVOSPJTWPCBM-UHFFFAOYSA-N-P7-P7-P91-601530
     RDKit          3D

 17 19  0  0  0  0  0  0  0  0999 V2000
   -1.6326    3.4439  -19.4953 C   0  0  0  0  0  0  0  0  0  0  0  0
   -2.0959    4.5482  -19.5239 C   0  0  0  0  0  0  0  0  0  0  0  0
   -2.6368    5.8752  -19.6043 C   0  0  0  0  0  0  0  0  0  0  0  0
   -4.0844    5.9623  -19.5108 N   0  0  0  0  0  0  0  0  0  0  0  0
   -4.8729    5.5439  -18.4432 C   0  0  0  0  0  0  0  0  0  0  0  0
   -6.0565    5.0963  -18.8903 N   0  0  0  0  0  0  0  0  0  0  0  0
   -7.0206    4.7528  -18.0389 C   0  0  0  0  0  0  0  0  0  0  0  0
   -8.2347    4.3426  -18.5591 C   0  0  0  0  0  0  0  0  0  0  0  0
   -9.3033    4.0194  -17.7341 C   0  0  0  0  0  0  0  0  0  0  0  0
   -9.1353    4.0802  -16.3587 C   0  0  0  0  0  0  0  0  0  0  0  0
   -7.9180    4.4715  -15.8089 C   0  0  0  0  0  0  0  0  0  0  0  0
   -6.8540    4.8234  -16.6517 C   0  0  0  0  0  0  0  0  0  0  0  0
   -5.6105    5.2639  -16.1805 C   0  0  0  0  0  0  0  0  0  0  0  0
   -4.5951    5.6402  -17.0800 C   0  0  0  0  0  0  0  0  0  0  0  0
   -3.3099    6.1584  -16.5163 C   0  0  0  0  0  0  0  0  0  0  0  0
   -1.7665    7.0431  -19.2167 C   0  0  0  0  0  0  0  0  0  0  0  0
   -1.9761    6.7456  -20.6651 C   0  0  0  0  0  0  0  0  0  0  0  0
  1  2  3  0
  2  3  1  0
  3  4  1  0
  4  5  1  0
  5  6  2  0
  6  7  1  0
  7  8  2  0
  8  9  1  0
  9 10  2  0
 10 11  1  0
 11 12  2  0
 12 13  1  0
 13 14  2  0
 14 15  1  0
  3 16  1  0
 16 17  1  0
 17  3  1  0
 14  5  1  0
 12  7  1  0
M  END
>  <energy_score>  (4760) 
-17.153447

>  <alias>  (4760) 
WXXVOSPJTWPCBM-UHFFFAOYSA-N-P7-P7-P91-601530

>  <HIPPO Pose ID>  (4760) 
85891

>  <smiles>  (4760) 
C#CC1(Nc2nc3ccccc3cc2C)CC1

>  <inchikey>  (4760) 
WXXVOSPJTWPCBM-UHFFFAOYSA-N

>  <distance_score>  (4760) 
1.057126

>  <ref_mols>  (4760) 
Z1688a,Z0089a

>  <ref_pdb>  (4760) 
Z0089a

>  <HIPPO Compound ID>  (4760) 
146097

>  <name>  (4760) 
WXXVOSPJTWPCBM-UHFFFAOYSA-N-P7-P7-P91-601530

>  <inspiration_score>  (4760) 
None

$$$$
YXVWXSXEYHYDMX-UHFFFAOYSA-N-P7-P7-P91-601530
     RDKit          3D

 17 18  0  0  0  0  0  0  0  0999 V2000
   -1.5078    5.9732  -21.0921 C   0  0  0  0  0  0  0  0  0  0  0  0
   -1.8336    5.1070  -19.8765 C   0  0  0  0  0  0  0  0  0  0  0  0
   -2.4629    5.8765  -18.6741 C   0  0  0  0  0  0  0  0  0  0  0  0
   -1.6795    7.1763  -18.4379 C   0  0  0  0  0  0  0  0  0  0  0  0
   -2.3065    4.9668  -17.4528 C   0  0  0  0  0  0  0  0  0  0  0  0
   -3.8591    6.2340  -18.9936 N   0  0  0  0  0  0  0  0  0  0  0  0
   -4.8987    5.9532  -18.1245 C   0  0  0  0  0  0  0  0  0  0  0  0
   -5.8181    5.1676  -18.6958 N   0  0  0  0  0  0  0  0  0  0  0  0
   -6.9123    4.8267  -18.0093 C   0  0  0  0  0  0  0  0  0  0  0  0
   -7.9515    4.2181  -18.6844 C   0  0  0  0  0  0  0  0  0  0  0  0
   -9.1306    3.8698  -18.0348 C   0  0  0  0  0  0  0  0  0  0  0  0
   -9.2488    4.0814  -16.6695 C   0  0  0  0  0  0  0  0  0  0  0  0
   -8.2213    4.6954  -15.9640 C   0  0  0  0  0  0  0  0  0  0  0  0
   -7.0717    5.1164  -16.6463 C   0  0  0  0  0  0  0  0  0  0  0  0
   -6.0990    5.9184  -16.0494 C   0  0  0  0  0  0  0  0  0  0  0  0
   -5.0628    6.4495  -16.8300 C   0  0  0  0  0  0  0  0  0  0  0  0
   -4.2504    7.5656  -16.2467 C   0  0  0  0  0  0  0  0  0  0  0  0
  1  2  1  0
  2  3  1  0
  3  4  1  0
  3  5  1  0
  3  6  1  0
  6  7  1  0
  7  8  2  0
  8  9  1  0
  9 10  2  0
 10 11  1  0
 11 12  2  0
 12 13  1  0
 13 14  2  0
 14 15  1  0
 15 16  2  0
 16 17  1  0
 16  7  1  0
 14  9  1  0
M  END
>  <energy_score>  (4761) 
-15.773896

>  <alias>  (4761) 
YXVWXSXEYHYDMX-UHFFFAOYSA-N-P7-P7-P91-601530

>  <HIPPO Pose ID>  (4761) 
85899

>  <smiles>  (4761) 
CCC(C)(C)Nc1nc2ccccc2cc1C

>  <inchikey>  (4761) 
YXVWXSXEYHYDMX-UHFFFAOYSA-N

>  <distance_score>  (4761) 
0.976606

>  <ref_mols>  (4761) 
Z1688a,Z0089a

>  <ref_pdb>  (4761) 
Z0089a

>  <HIPPO Compound ID>  (4761) 
146101

>  <name>  (4761) 
YXVWXSXEYHYDMX-UHFFFAOYSA-N-P7-P7-P91-601530

>  <inspiration_score>  (4761) 
None

$$$$
QKJLVOZUJNGHQK-UHFFFAOYSA-N-P91-P7-P91-601530
     RDKit          3D

 17 18  0  0  0  0  0  0  0  0999 V2000
   -1.9971    4.4724  -20.5733 C   0  0  0  0  0  0  0  0  0  0  0  0
   -1.8259    4.5348  -19.0643 C   0  0  0  0  0  0  0  0  0  0  0  0
   -2.1344    5.9015  -18.4110 C   0  0  0  0  0  0  0  0  0  0  0  0
   -1.3651    7.0283  -19.1260 C   0  0  0  0  0  0  0  0  0  0  0  0
   -1.6606    5.8874  -16.9491 C   0  0  0  0  0  0  0  0  0  0  0  0
   -3.5474    6.2650  -18.5434 N   0  0  0  0  0  0  0  0  0  0  0  0
   -4.5751    5.6724  -17.8526 C   0  0  0  0  0  0  0  0  0  0  0  0
   -4.8166    5.8007  -16.4941 C   0  0  0  0  0  0  0  0  0  0  0  0
   -6.0488    5.3828  -15.9753 C   0  0  0  0  0  0  0  0  0  0  0  0
   -7.0269    4.8773  -16.8443 C   0  0  0  0  0  0  0  0  0  0  0  0
   -8.3549    4.5596  -16.4744 C   0  0  0  0  0  0  0  0  0  0  0  0
   -9.2555    4.1906  -17.4683 C   0  0  0  0  0  0  0  0  0  0  0  0
  -10.5776    3.9856  -17.2465 O   0  0  0  0  0  0  0  0  0  0  0  0
   -8.8426    4.0502  -18.7773 C   0  0  0  0  0  0  0  0  0  0  0  0
   -7.5263    4.2822  -19.1183 C   0  0  0  0  0  0  0  0  0  0  0  0
   -6.6363    4.7412  -18.1892 C   0  0  0  0  0  0  0  0  0  0  0  0
   -5.4512    5.0996  -18.6672 N   0  0  0  0  0  0  0  0  0  0  0  0
  1  2  1  0
  2  3  1  0
  3  4  1  0
  3  5  1  0
  3  6  1  0
  6  7  1  0
  7  8  2  0
  8  9  1  0
  9 10  2  0
 10 11  1  0
 11 12  2  0
 12 13  1  0
 12 14  1  0
 14 15  2  0
 15 16  1  0
 16 17  2  0
 17  7  1  0
 16 10  1  0
M  END
>  <energy_score>  (4762) 
-37.209227

>  <alias>  (4762) 
QKJLVOZUJNGHQK-UHFFFAOYSA-N-P91-P7-P91-601530

>  <HIPPO Pose ID>  (4762) 
85904

>  <smiles>  (4762) 
CCC(C)(C)Nc1ccc2cc(O)ccc2n1

>  <inchikey>  (4762) 
QKJLVOZUJNGHQK-UHFFFAOYSA-N

>  <distance_score>  (4762) 
0.932717

>  <ref_mols>  (4762) 
Z1688a,Z0089a

>  <ref_pdb>  (4762) 
Z0089a

>  <HIPPO Compound ID>  (4762) 
146103

>  <name>  (4762) 
QKJLVOZUJNGHQK-UHFFFAOYSA-N-P91-P7-P91-601530

>  <inspiration_score>  (4762) 
None

$$$$
RTTWLQUJAAAUJZ-UHFFFAOYSA-N-P91-P7-P91-601530
     RDKit          3D

 17 18  0  0  0  0  0  0  0  0999 V2000
   -1.5746    3.9854  -20.0193 C   0  0  0  0  0  0  0  0  0  0  0  0
   -2.0162    4.7485  -18.7834 C   0  0  0  0  0  0  0  0  0  0  0  0
   -2.7530    6.0718  -19.0721 C   0  0  0  0  0  0  0  0  0  0  0  0
   -2.8928    6.8952  -17.7933 C   0  0  0  0  0  0  0  0  0  0  0  0
   -1.9469    6.9477  -20.0623 C   0  0  0  0  0  0  0  0  0  0  0  0
   -4.0353    5.8075  -19.7226 N   0  0  0  0  0  0  0  0  0  0  0  0
   -5.1486    5.2384  -19.0965 C   0  0  0  0  0  0  0  0  0  0  0  0
   -6.0745    4.6645  -19.9520 C   0  0  0  0  0  0  0  0  0  0  0  0
   -7.2820    4.1975  -19.4864 C   0  0  0  0  0  0  0  0  0  0  0  0
   -7.5890    4.3772  -18.1643 C   0  0  0  0  0  0  0  0  0  0  0  0
   -8.8577    3.9888  -17.7507 C   0  0  0  0  0  0  0  0  0  0  0  0
   -9.1911    4.0945  -16.4206 C   0  0  0  0  0  0  0  0  0  0  0  0
   -8.2818    4.6020  -15.5113 C   0  0  0  0  0  0  0  0  0  0  0  0
   -7.0260    5.0235  -15.9571 C   0  0  0  0  0  0  0  0  0  0  0  0
   -6.1836    5.5576  -15.0153 O   0  0  0  0  0  0  0  0  0  0  0  0
   -6.6236    4.9335  -17.3012 C   0  0  0  0  0  0  0  0  0  0  0  0
   -5.4056    5.3440  -17.7780 N   0  0  0  0  0  0  0  0  0  0  0  0
  1  2  1  0
  2  3  1  0
  3  4  1  0
  3  5  1  0
  3  6  1  0
  6  7  1  0
  7  8  2  0
  8  9  1  0
  9 10  2  0
 10 11  1  0
 11 12  2  0
 12 13  1  0
 13 14  2  0
 14 15  1  0
 14 16  1  0
 16 17  2  0
 17  7  1  0
 16 10  1  0
M  END
>  <energy_score>  (4763) 
-29.224405

>  <alias>  (4763) 
RTTWLQUJAAAUJZ-UHFFFAOYSA-N-P91-P7-P91-601530

>  <HIPPO Pose ID>  (4763) 
85906

>  <smiles>  (4763) 
CCC(C)(C)Nc1ccc2cccc(O)c2n1

>  <inchikey>  (4763) 
RTTWLQUJAAAUJZ-UHFFFAOYSA-N

>  <distance_score>  (4763) 
0.963882

>  <ref_mols>  (4763) 
Z1688a,Z0089a

>  <ref_pdb>  (4763) 
Z0089a

>  <HIPPO Compound ID>  (4763) 
146104

>  <name>  (4763) 
RTTWLQUJAAAUJZ-UHFFFAOYSA-N-P91-P7-P91-601530

>  <inspiration_score>  (4763) 
None

$$$$
DACGGSJCFZJKJE-UHFFFAOYSA-N-P7-P7-P91-601530
     RDKit          3D

 17 19  0  0  0  0  0  0  0  0999 V2000
   -3.6957    6.5814  -15.8185 C   0  0  0  0  0  0  0  0  0  0  0  0
   -4.7609    5.8565  -16.5826 C   0  0  0  0  0  0  0  0  0  0  0  0
   -5.8991    5.4334  -15.8780 C   0  0  0  0  0  0  0  0  0  0  0  0
   -6.9889    4.8885  -16.5612 C   0  0  0  0  0  0  0  0  0  0  0  0
   -8.1818    4.5219  -15.9209 C   0  0  0  0  0  0  0  0  0  0  0  0
   -9.2608    4.0784  -16.6778 C   0  0  0  0  0  0  0  0  0  0  0  0
   -9.1570    3.9821  -18.0568 C   0  0  0  0  0  0  0  0  0  0  0  0
   -7.9541    4.3007  -18.6754 C   0  0  0  0  0  0  0  0  0  0  0  0
   -6.8691    4.7543  -17.9510 C   0  0  0  0  0  0  0  0  0  0  0  0
   -5.7564    5.0794  -18.6130 N   0  0  0  0  0  0  0  0  0  0  0  0
   -4.7217    5.6215  -17.9587 C   0  0  0  0  0  0  0  0  0  0  0  0
   -3.7243    5.9842  -18.8376 N   0  0  0  0  0  0  0  0  0  0  0  0
   -2.3352    5.7100  -18.5442 C   0  0  0  0  0  0  0  0  0  0  0  0
   -1.6486    4.9170  -19.6556 C   0  0  0  0  0  0  0  0  0  0  0  0
   -0.1868    5.3736  -19.6349 C   0  0  0  0  0  0  0  0  0  0  0  0
   -0.1138    6.5733  -18.7026 C   0  0  0  0  0  0  0  0  0  0  0  0
   -1.5529    7.0224  -18.5513 C   0  0  0  0  0  0  0  0  0  0  0  0
  1  2  1  0
  2  3  2  0
  3  4  1  0
  4  5  2  0
  5  6  1  0
  6  7  2  0
  7  8  1  0
  8  9  2  0
  9 10  1  0
 10 11  2  0
 11 12  1  0
 12 13  1  0
 13 14  1  0
 14 15  1  0
 15 16  1  0
 16 17  1  0
 11  2  1  0
 17 13  1  0
  9  4  1  0
M  END
>  <energy_score>  (4764) 
-13.83586

>  <alias>  (4764) 
DACGGSJCFZJKJE-UHFFFAOYSA-N-P7-P7-P91-601530

>  <HIPPO Pose ID>  (4764) 
85909

>  <smiles>  (4764) 
Cc1cc2ccccc2nc1NC1CCCC1

>  <inchikey>  (4764) 
DACGGSJCFZJKJE-UHFFFAOYSA-N

>  <distance_score>  (4764) 
0.91982

>  <ref_mols>  (4764) 
Z1688a,Z0089a

>  <ref_pdb>  (4764) 
Z0089a

>  <HIPPO Compound ID>  (4764) 
146106

>  <name>  (4764) 
DACGGSJCFZJKJE-UHFFFAOYSA-N-P7-P7-P91-601530

>  <inspiration_score>  (4764) 
None

$$$$
YLQCFSNTGVFNKX-UHFFFAOYSA-N-P7-P7-P91-601530
     RDKit          3D

 17 19  0  0  0  0  0  0  0  0999 V2000
   -5.0206    5.7411  -14.9729 C   0  0  0  0  0  0  0  0  0  0  0  0
   -5.4202    5.4483  -16.3869 C   0  0  0  0  0  0  0  0  0  0  0  0
   -4.4983    5.6505  -17.4159 C   0  0  0  0  0  0  0  0  0  0  0  0
   -4.8626    5.4114  -18.7272 C   0  0  0  0  0  0  0  0  0  0  0  0
   -4.0567    5.5889  -19.8116 N   0  0  0  0  0  0  0  0  0  0  0  0
   -2.6380    5.8147  -19.8964 C   0  0  0  0  0  0  0  0  0  0  0  0
   -1.7714    4.7784  -19.1792 C   0  0  0  0  0  0  0  0  0  0  0  0
   -0.7084    5.5884  -18.4337 C   0  0  0  0  0  0  0  0  0  0  0  0
   -0.7224    6.9674  -19.0749 C   0  0  0  0  0  0  0  0  0  0  0  0
   -2.1901    7.1874  -19.4029 C   0  0  0  0  0  0  0  0  0  0  0  0
   -6.0902    4.9868  -19.0460 N   0  0  0  0  0  0  0  0  0  0  0  0
   -6.9856    4.7685  -18.0781 C   0  0  0  0  0  0  0  0  0  0  0  0
   -8.2439    4.3320  -18.4404 C   0  0  0  0  0  0  0  0  0  0  0  0
   -9.2302    4.0691  -17.4932 C   0  0  0  0  0  0  0  0  0  0  0  0
   -8.9551    4.2343  -16.1496 C   0  0  0  0  0  0  0  0  0  0  0  0
   -7.7055    4.6885  -15.7620 C   0  0  0  0  0  0  0  0  0  0  0  0
   -6.7043    4.9713  -16.7155 C   0  0  0  0  0  0  0  0  0  0  0  0
  1  2  1  0
  2  3  2  0
  3  4  1  0
  4  5  1  0
  5  6  1  0
  6  7  1  0
  7  8  1  0
  8  9  1  0
  9 10  1  0
  4 11  2  0
 11 12  1  0
 12 13  2  0
 13 14  1  0
 14 15  2  0
 15 16  1  0
 16 17  2  0
 17  2  1  0
 10  6  1  0
 17 12  1  0
M  END
>  <energy_score>  (4765) 
-13.628904

>  <alias>  (4765) 
YLQCFSNTGVFNKX-UHFFFAOYSA-N-P7-P7-P91-601530

>  <HIPPO Pose ID>  (4765) 
85911

>  <smiles>  (4765) 
Cc1cc(NC2CCCC2)nc2ccccc12

>  <inchikey>  (4765) 
YLQCFSNTGVFNKX-UHFFFAOYSA-N

>  <distance_score>  (4765) 
1.919077

>  <ref_mols>  (4765) 
Z1688a,Z0089a

>  <ref_pdb>  (4765) 
Z0089a

>  <HIPPO Compound ID>  (4765) 
146107

>  <name>  (4765) 
YLQCFSNTGVFNKX-UHFFFAOYSA-N-P7-P7-P91-601530

>  <inspiration_score>  (4765) 
None

$$$$
GRFSONGWQAMCBH-UHFFFAOYSA-N-P7-P7-P91-601530
     RDKit          3D

 17 19  0  0  0  0  0  0  0  0999 V2000
  -10.5724    3.8987  -16.9914 O   0  0  0  0  0  0  0  0  0  0  0  0
   -9.2837    4.1509  -17.3188 C   0  0  0  0  0  0  0  0  0  0  0  0
   -8.9745    3.9917  -18.6526 C   0  0  0  0  0  0  0  0  0  0  0  0
   -7.6922    4.2443  -19.0907 C   0  0  0  0  0  0  0  0  0  0  0  0
   -6.7326    4.7013  -18.2304 C   0  0  0  0  0  0  0  0  0  0  0  0
   -5.5647    4.9878  -18.7886 N   0  0  0  0  0  0  0  0  0  0  0  0
   -4.6006    5.5046  -18.0403 C   0  0  0  0  0  0  0  0  0  0  0  0
   -3.5066    5.8585  -18.7985 N   0  0  0  0  0  0  0  0  0  0  0  0
   -2.1955    5.4809  -18.3234 C   0  0  0  0  0  0  0  0  0  0  0  0
   -1.3428    4.8630  -19.4418 C   0  0  0  0  0  0  0  0  0  0  0  0
    0.0256    5.5456  -19.3610 C   0  0  0  0  0  0  0  0  0  0  0  0
    0.0204    6.3292  -18.0598 C   0  0  0  0  0  0  0  0  0  0  0  0
   -1.4322    6.7367  -17.9097 C   0  0  0  0  0  0  0  0  0  0  0  0
   -4.7560    5.7099  -16.6782 C   0  0  0  0  0  0  0  0  0  0  0  0
   -5.9765    5.3759  -16.0756 C   0  0  0  0  0  0  0  0  0  0  0  0
   -7.0245    4.8722  -16.8650 C   0  0  0  0  0  0  0  0  0  0  0  0
   -8.3241    4.5645  -16.3997 C   0  0  0  0  0  0  0  0  0  0  0  0
  1  2  1  0
  2  3  2  0
  3  4  1  0
  4  5  2  0
  5  6  1  0
  6  7  2  0
  7  8  1  0
  8  9  1  0
  9 10  1  0
 10 11  1  0
 11 12  1  0
 12 13  1  0
  7 14  1  0
 14 15  2  0
 15 16  1  0
 16 17  2  0
 17  2  1  0
 16  5  1  0
 13  9  1  0
M  END
>  <energy_score>  (4766) 
-19.759959

>  <alias>  (4766) 
GRFSONGWQAMCBH-UHFFFAOYSA-N-P7-P7-P91-601530

>  <HIPPO Pose ID>  (4766) 
85913

>  <smiles>  (4766) 
Oc1ccc2nc(NC3CCCC3)ccc2c1

>  <inchikey>  (4766) 
GRFSONGWQAMCBH-UHFFFAOYSA-N

>  <distance_score>  (4766) 
0.956216

>  <ref_mols>  (4766) 
Z1688a,Z0089a

>  <ref_pdb>  (4766) 
Z0089a

>  <HIPPO Compound ID>  (4766) 
146108

>  <name>  (4766) 
GRFSONGWQAMCBH-UHFFFAOYSA-N-P7-P7-P91-601530

>  <inspiration_score>  (4766) 
None

$$$$
VSDPRMYNXFQTHH-UHFFFAOYSA-N-P7-P7-P91-601530
     RDKit          3D

 17 19  0  0  0  0  0  0  0  0999 V2000
   -3.2312    6.0183  -16.3942 C   0  0  0  0  0  0  0  0  0  0  0  0
   -4.5162    5.5502  -16.9993 C   0  0  0  0  0  0  0  0  0  0  0  0
   -5.5684    5.2000  -16.1312 C   0  0  0  0  0  0  0  0  0  0  0  0
   -6.8104    4.7968  -16.6383 C   0  0  0  0  0  0  0  0  0  0  0  0
   -7.9040    4.4596  -15.8253 C   0  0  0  0  0  0  0  0  0  0  0  0
   -9.1135    4.0903  -16.4074 C   0  0  0  0  0  0  0  0  0  0  0  0
   -9.2436    4.0397  -17.7870 C   0  0  0  0  0  0  0  0  0  0  0  0
   -8.1478    4.3534  -18.5815 C   0  0  0  0  0  0  0  0  0  0  0  0
   -6.9396    4.7415  -18.0300 C   0  0  0  0  0  0  0  0  0  0  0  0
   -5.9431    5.0721  -18.8528 N   0  0  0  0  0  0  0  0  0  0  0  0
   -4.7603    5.4829  -18.3703 C   0  0  0  0  0  0  0  0  0  0  0  0
   -3.9260    5.8978  -19.4072 N   0  0  0  0  0  0  0  0  0  0  0  0
   -2.4642    5.7343  -19.4763 C   0  0  0  0  0  0  0  0  0  0  0  0
   -1.9506    4.3087  -19.5154 C   0  0  0  0  0  0  0  0  0  0  0  0
   -2.2089    3.8220  -20.7624 F   0  0  0  0  0  0  0  0  0  0  0  0
   -1.5566    6.8476  -18.9943 C   0  0  0  0  0  0  0  0  0  0  0  0
   -1.7604    6.6632  -20.4599 C   0  0  0  0  0  0  0  0  0  0  0  0
  1  2  1  0
  2  3  2  0
  3  4  1  0
  4  5  2  0
  5  6  1  0
  6  7  2  0
  7  8  1  0
  8  9  2  0
  9 10  1  0
 10 11  2  0
 11 12  1  0
 12 13  1  0
 13 14  1  0
 14 15  1  0
 13 16  1  0
 16 17  1  0
 11  2  1  0
 17 13  1  0
  9  4  1  0
M  END
>  <energy_score>  (4767) 
-48.775969

>  <alias>  (4767) 
VSDPRMYNXFQTHH-UHFFFAOYSA-N-P7-P7-P91-601530

>  <HIPPO Pose ID>  (4767) 
85915

>  <smiles>  (4767) 
Cc1cc2ccccc2nc1NC1(CF)CC1

>  <inchikey>  (4767) 
VSDPRMYNXFQTHH-UHFFFAOYSA-N

>  <distance_score>  (4767) 
1.026494

>  <ref_mols>  (4767) 
Z1688a,Z0089a

>  <ref_pdb>  (4767) 
Z0089a

>  <HIPPO Compound ID>  (4767) 
146109

>  <name>  (4767) 
VSDPRMYNXFQTHH-UHFFFAOYSA-N-P7-P7-P91-601530

>  <inspiration_score>  (4767) 
None

$$$$
PXHZDADZZXGJTL-UHFFFAOYSA-N-P91-P7-P91-601530
     RDKit          3D

 17 19  0  0  0  0  0  0  0  0999 V2000
   -4.9439    5.9781  -15.1521 C   0  0  0  0  0  0  0  0  0  0  0  0
   -5.3508    5.5862  -16.5402 C   0  0  0  0  0  0  0  0  0  0  0  0
   -4.4451    5.7336  -17.5911 C   0  0  0  0  0  0  0  0  0  0  0  0
   -4.8105    5.3587  -18.8764 C   0  0  0  0  0  0  0  0  0  0  0  0
   -3.9425    5.4559  -19.9633 N   0  0  0  0  0  0  0  0  0  0  0  0
   -2.4863    5.6082  -19.8452 C   0  0  0  0  0  0  0  0  0  0  0  0
   -1.7296    4.3992  -19.3225 C   0  0  0  0  0  0  0  0  0  0  0  0
   -0.5366    4.7896  -18.7922 F   0  0  0  0  0  0  0  0  0  0  0  0
   -1.9358    6.9968  -19.5717 C   0  0  0  0  0  0  0  0  0  0  0  0
   -1.7887    6.3992  -20.9358 C   0  0  0  0  0  0  0  0  0  0  0  0
   -6.0282    4.8836  -19.1568 N   0  0  0  0  0  0  0  0  0  0  0  0
   -6.9205    4.7582  -18.1681 C   0  0  0  0  0  0  0  0  0  0  0  0
   -8.1846    4.3041  -18.4846 C   0  0  0  0  0  0  0  0  0  0  0  0
   -9.1570    4.1051  -17.5083 C   0  0  0  0  0  0  0  0  0  0  0  0
   -8.8611    4.3484  -16.1813 C   0  0  0  0  0  0  0  0  0  0  0  0
   -7.6130    4.8396  -15.8414 C   0  0  0  0  0  0  0  0  0  0  0  0
   -6.6287    5.0670  -16.8249 C   0  0  0  0  0  0  0  0  0  0  0  0
  1  2  1  0
  2  3  2  0
  3  4  1  0
  4  5  1  0
  5  6  1  0
  6  7  1  0
  7  8  1  0
  6  9  1  0
  9 10  1  0
  4 11  2  0
 11 12  1  0
 12 13  2  0
 13 14  1  0
 14 15  2  0
 15 16  1  0
 16 17  2  0
 17  2  1  0
 10  6  1  0
 17 12  1  0
M  END
>  <energy_score>  (4768) 
-31.969693

>  <alias>  (4768) 
PXHZDADZZXGJTL-UHFFFAOYSA-N-P91-P7-P91-601530

>  <HIPPO Pose ID>  (4768) 
85918

>  <smiles>  (4768) 
Cc1cc(NC2(CF)CC2)nc2ccccc12

>  <inchikey>  (4768) 
PXHZDADZZXGJTL-UHFFFAOYSA-N

>  <distance_score>  (4768) 
1.991399

>  <ref_mols>  (4768) 
Z1688a,Z0089a

>  <ref_pdb>  (4768) 
Z0089a

>  <HIPPO Compound ID>  (4768) 
146110

>  <name>  (4768) 
PXHZDADZZXGJTL-UHFFFAOYSA-N-P91-P7-P91-601530

>  <inspiration_score>  (4768) 
None

$$$$
IOXGVNQUPZVYJJ-UHFFFAOYSA-N-P7-P7-P91-601530
     RDKit          3D

 17 19  0  0  0  0  0  0  0  0999 V2000
  -10.4579    3.8429  -16.8415 O   0  0  0  0  0  0  0  0  0  0  0  0
   -9.1944    4.1253  -17.2297 C   0  0  0  0  0  0  0  0  0  0  0  0
   -8.9442    3.9903  -18.5784 C   0  0  0  0  0  0  0  0  0  0  0  0
   -7.6867    4.2783  -19.0651 C   0  0  0  0  0  0  0  0  0  0  0  0
   -6.7003    4.7467  -18.2393 C   0  0  0  0  0  0  0  0  0  0  0  0
   -5.5769    5.1106  -18.8432 N   0  0  0  0  0  0  0  0  0  0  0  0
   -4.5926    5.6337  -18.1218 C   0  0  0  0  0  0  0  0  0  0  0  0
   -3.5834    6.1835  -18.9119 N   0  0  0  0  0  0  0  0  0  0  0  0
   -2.1830    5.7188  -18.7930 C   0  0  0  0  0  0  0  0  0  0  0  0
   -1.8972    4.3848  -19.4609 C   0  0  0  0  0  0  0  0  0  0  0  0
   -2.3084    4.4737  -20.7629 F   0  0  0  0  0  0  0  0  0  0  0  0
   -1.1372    6.7943  -19.0145 C   0  0  0  0  0  0  0  0  0  0  0  0
   -1.3013    6.1874  -17.6561 C   0  0  0  0  0  0  0  0  0  0  0  0
   -4.6614    5.7271  -16.7413 C   0  0  0  0  0  0  0  0  0  0  0  0
   -5.8428    5.3354  -16.0958 C   0  0  0  0  0  0  0  0  0  0  0  0
   -6.9264    4.8607  -16.8561 C   0  0  0  0  0  0  0  0  0  0  0  0
   -8.2003    4.5271  -16.3432 C   0  0  0  0  0  0  0  0  0  0  0  0
  1  2  1  0
  2  3  2  0
  3  4  1  0
  4  5  2  0
  5  6  1  0
  6  7  2  0
  7  8  1  0
  8  9  1  0
  9 10  1  0
 10 11  1  0
  9 12  1  0
 12 13  1  0
  7 14  1  0
 14 15  2  0
 15 16  1  0
 16 17  2  0
 17  2  1  0
 16  5  1  0
 13  9  1  0
M  END
>  <energy_score>  (4769) 
-26.935414

>  <alias>  (4769) 
IOXGVNQUPZVYJJ-UHFFFAOYSA-N-P7-P7-P91-601530

>  <HIPPO Pose ID>  (4769) 
85919

>  <smiles>  (4769) 
Oc1ccc2nc(NC3(CF)CC3)ccc2c1

>  <inchikey>  (4769) 
IOXGVNQUPZVYJJ-UHFFFAOYSA-N

>  <distance_score>  (4769) 
0.927614

>  <ref_mols>  (4769) 
Z1688a,Z0089a

>  <ref_pdb>  (4769) 
Z0089a

>  <HIPPO Compound ID>  (4769) 
146111

>  <name>  (4769) 
IOXGVNQUPZVYJJ-UHFFFAOYSA-N-P7-P7-P91-601530

>  <inspiration_score>  (4769) 
None

$$$$
OWFZKDVOUIVHKS-UHFFFAOYSA-N-P7-P7-P91-601530
     RDKit          3D

 17 18  0  0  0  0  0  0  0  0999 V2000
   -3.6123    6.5689  -15.9330 C   0  0  0  0  0  0  0  0  0  0  0  0
   -4.7145    5.8599  -16.6599 C   0  0  0  0  0  0  0  0  0  0  0  0
   -5.8353    5.4521  -15.9200 C   0  0  0  0  0  0  0  0  0  0  0  0
   -6.9463    4.9044  -16.5689 C   0  0  0  0  0  0  0  0  0  0  0  0
   -8.1218    4.5425  -15.8940 C   0  0  0  0  0  0  0  0  0  0  0  0
   -9.2207    4.0894  -16.6168 C   0  0  0  0  0  0  0  0  0  0  0  0
   -9.1573    3.9849  -17.9979 C   0  0  0  0  0  0  0  0  0  0  0  0
   -7.9725    4.3018  -18.6520 C   0  0  0  0  0  0  0  0  0  0  0  0
   -6.8660    4.7576  -17.9610 C   0  0  0  0  0  0  0  0  0  0  0  0
   -5.7687    5.0680  -18.6553 N   0  0  0  0  0  0  0  0  0  0  0  0
   -4.7105    5.5979  -18.0307 C   0  0  0  0  0  0  0  0  0  0  0  0
   -3.7167    5.9311  -18.9276 N   0  0  0  0  0  0  0  0  0  0  0  0
   -2.3342    5.5334  -18.6856 C   0  0  1  0  0  0  0  0  0  0  0  0
   -2.0320    4.2021  -19.3651 C   0  0  0  0  0  0  0  0  0  0  0  0
   -1.4498    6.6656  -19.2278 C   0  0  0  0  0  0  0  0  0  0  0  0
   -0.1398    6.7819  -18.4660 C   0  0  0  0  0  0  0  0  0  0  0  0
    0.5516    5.6182  -18.5395 F   0  0  0  0  0  0  0  0  0  0  0  0
  1  2  1  0
  2  3  2  0
  3  4  1  0
  4  5  2  0
  5  6  1  0
  6  7  2  0
  7  8  1  0
  8  9  2  0
  9 10  1  0
 10 11  2  0
 11 12  1  0
 12 13  1  0
 13 14  1  6
 13 15  1  0
 15 16  1  0
 16 17  1  0
 11  2  1  0
  9  4  1  0
M  END
>  <energy_score>  (4770) 
-27.706166

>  <alias>  (4770) 
OWFZKDVOUIVHKS-UHFFFAOYSA-N-P7-P7-P91-601530

>  <HIPPO Pose ID>  (4770) 
85923

>  <smiles>  (4770) 
Cc1cc2ccccc2nc1NC(C)CCF

>  <inchikey>  (4770) 
OWFZKDVOUIVHKS-UHFFFAOYSA-N

>  <distance_score>  (4770) 
0.901141

>  <ref_mols>  (4770) 
Z1688a,Z0089a

>  <ref_pdb>  (4770) 
Z0089a

>  <HIPPO Compound ID>  (4770) 
146113

>  <name>  (4770) 
OWFZKDVOUIVHKS-UHFFFAOYSA-N-P7-P7-P91-601530

>  <inspiration_score>  (4770) 
None

$$$$
QJJZUDOHJHCOMJ-UHFFFAOYSA-N-P91-P7-P91-601530
     RDKit          3D

 17 18  0  0  0  0  0  0  0  0999 V2000
   -5.3085    6.0530  -14.8570 C   0  0  0  0  0  0  0  0  0  0  0  0
   -5.5336    5.6557  -16.2833 C   0  0  0  0  0  0  0  0  0  0  0  0
   -4.5225    5.8641  -17.2165 C   0  0  0  0  0  0  0  0  0  0  0  0
   -4.6986    5.4629  -18.5310 C   0  0  0  0  0  0  0  0  0  0  0  0
   -3.7319    5.6019  -19.4984 N   0  0  0  0  0  0  0  0  0  0  0  0
   -2.3153    5.5812  -19.1875 C   0  0  1  0  0  0  0  0  0  0  0  0
   -1.6730    4.3268  -19.7679 C   0  0  0  0  0  0  0  0  0  0  0  0
   -1.6745    6.8406  -19.7755 C   0  0  0  0  0  0  0  0  0  0  0  0
   -2.1331    8.1051  -19.0714 C   0  0  0  0  0  0  0  0  0  0  0  0
   -1.7376    8.0588  -17.7692 F   0  0  0  0  0  0  0  0  0  0  0  0
   -5.8518    4.9500  -18.9673 N   0  0  0  0  0  0  0  0  0  0  0  0
   -6.8513    4.7778  -18.0955 C   0  0  0  0  0  0  0  0  0  0  0  0
   -8.0465    4.2790  -18.5671 C   0  0  0  0  0  0  0  0  0  0  0  0
   -9.1138    4.0190  -17.7142 C   0  0  0  0  0  0  0  0  0  0  0  0
   -8.9843    4.2440  -16.3585 C   0  0  0  0  0  0  0  0  0  0  0  0
   -7.8129    4.7856  -15.8636 C   0  0  0  0  0  0  0  0  0  0  0  0
   -6.7364    5.0766  -16.7228 C   0  0  0  0  0  0  0  0  0  0  0  0
  1  2  1  0
  2  3  2  0
  3  4  1  0
  4  5  1  0
  5  6  1  0
  6  7  1  6
  6  8  1  0
  8  9  1  0
  9 10  1  0
  4 11  2  0
 11 12  1  0
 12 13  2  0
 13 14  1  0
 14 15  2  0
 15 16  1  0
 16 17  2  0
 17  2  1  0
 17 12  1  0
M  END
>  <energy_score>  (4771) 
-43.707294

>  <alias>  (4771) 
QJJZUDOHJHCOMJ-UHFFFAOYSA-N-P91-P7-P91-601530

>  <HIPPO Pose ID>  (4771) 
85926

>  <smiles>  (4771) 
Cc1cc(NC(C)CCF)nc2ccccc12

>  <inchikey>  (4771) 
QJJZUDOHJHCOMJ-UHFFFAOYSA-N

>  <distance_score>  (4771) 
1.884818

>  <ref_mols>  (4771) 
Z1688a,Z0089a

>  <ref_pdb>  (4771) 
Z0089a

>  <HIPPO Compound ID>  (4771) 
146114

>  <name>  (4771) 
QJJZUDOHJHCOMJ-UHFFFAOYSA-N-P91-P7-P91-601530

>  <inspiration_score>  (4771) 
None

$$$$
PBLNIBVBPFBPLU-UHFFFAOYSA-N-P91-P7-P91-601530
     RDKit          3D

 17 18  0  0  0  0  0  0  0  0999 V2000
   -2.0025    4.4733  -18.9810 C   0  0  0  0  0  0  0  0  0  0  0  0
   -2.6899    5.8197  -19.1826 C   0  0  2  0  0  0  0  0  0  0  0  0
   -2.6792    6.6733  -17.9224 C   0  0  0  0  0  0  0  0  0  0  0  0
   -3.3134    8.0359  -18.1239 C   0  0  0  0  0  0  0  0  0  0  0  0
   -2.5398    8.7664  -18.9761 F   0  0  0  0  0  0  0  0  0  0  0  0
   -3.9953    5.6327  -19.8011 N   0  0  0  0  0  0  0  0  0  0  0  0
   -5.1271    5.1373  -19.1452 C   0  0  0  0  0  0  0  0  0  0  0  0
   -6.0965    4.5985  -19.9752 C   0  0  0  0  0  0  0  0  0  0  0  0
   -7.3125    4.1851  -19.4827 C   0  0  0  0  0  0  0  0  0  0  0  0
   -7.5823    4.3789  -18.1554 C   0  0  0  0  0  0  0  0  0  0  0  0
   -8.8475    4.0124  -17.7101 C   0  0  0  0  0  0  0  0  0  0  0  0
   -9.1456    4.1234  -16.3720 C   0  0  0  0  0  0  0  0  0  0  0  0
   -8.2086    4.6274  -15.4899 C   0  0  0  0  0  0  0  0  0  0  0  0
   -6.9574    5.0286  -15.9690 C   0  0  0  0  0  0  0  0  0  0  0  0
   -6.0890    5.5586  -15.0486 O   0  0  0  0  0  0  0  0  0  0  0  0
   -6.5826    4.9185  -17.3197 C   0  0  0  0  0  0  0  0  0  0  0  0
   -5.3598    5.2891  -17.8255 N   0  0  0  0  0  0  0  0  0  0  0  0
  2  1  1  1
  2  3  1  0
  3  4  1  0
  4  5  1  0
  2  6  1  0
  6  7  1  0
  7  8  2  0
  8  9  1  0
  9 10  2  0
 10 11  1  0
 11 12  2  0
 12 13  1  0
 13 14  2  0
 14 15  1  0
 14 16  1  0
 16 17  2  0
 17  7  1  0
 16 10  1  0
M  END
>  <energy_score>  (4772) 
-12.87407

>  <alias>  (4772) 
PBLNIBVBPFBPLU-UHFFFAOYSA-N-P91-P7-P91-601530

>  <HIPPO Pose ID>  (4772) 
85928

>  <smiles>  (4772) 
CC(CCF)Nc1ccc2cccc(O)c2n1

>  <inchikey>  (4772) 
PBLNIBVBPFBPLU-UHFFFAOYSA-N

>  <distance_score>  (4772) 
0.963387

>  <ref_mols>  (4772) 
Z1688a,Z0089a

>  <ref_pdb>  (4772) 
Z0089a

>  <HIPPO Compound ID>  (4772) 
146115

>  <name>  (4772) 
PBLNIBVBPFBPLU-UHFFFAOYSA-N-P91-P7-P91-601530

>  <inspiration_score>  (4772) 
None

$$$$
IDIKGPXJIWPKHG-UHFFFAOYSA-N-P7-P7-P91-601530
     RDKit          3D

 17 19  0  0  0  0  0  0  0  0999 V2000
   -3.2452    6.0236  -16.4947 C   0  0  0  0  0  0  0  0  0  0  0  0
   -4.5337    5.5344  -17.0769 C   0  0  0  0  0  0  0  0  0  0  0  0
   -5.5807    5.2231  -16.1872 C   0  0  0  0  0  0  0  0  0  0  0  0
   -6.8280    4.8060  -16.6681 C   0  0  0  0  0  0  0  0  0  0  0  0
   -7.9105    4.4892  -15.8335 C   0  0  0  0  0  0  0  0  0  0  0  0
   -9.1265    4.1059  -16.3919 C   0  0  0  0  0  0  0  0  0  0  0  0
   -9.2780    4.0326  -17.7685 C   0  0  0  0  0  0  0  0  0  0  0  0
   -8.1928    4.3260  -18.5844 C   0  0  0  0  0  0  0  0  0  0  0  0
   -6.9742    4.7131  -18.0559 C   0  0  0  0  0  0  0  0  0  0  0  0
   -5.9820    4.9994  -18.8986 N   0  0  0  0  0  0  0  0  0  0  0  0
   -4.7855    5.4047  -18.4429 C   0  0  0  0  0  0  0  0  0  0  0  0
   -3.9472    5.7158  -19.5091 N   0  0  0  0  0  0  0  0  0  0  0  0
   -2.4854    5.6487  -19.5538 C   0  0  2  0  0  0  0  0  0  0  0  0
   -1.8904    4.2727  -19.3700 C   0  0  0  0  0  0  0  0  0  0  0  0
   -1.6830    6.8709  -19.1534 C   0  0  0  0  0  0  0  0  0  0  0  0
   -1.8207    6.5427  -20.6062 C   0  0  1  0  0  0  0  0  0  0  0  0
   -0.6054    6.1550  -21.3802 C   0  0  0  0  0  0  0  0  0  0  0  0
  1  2  1  0
  2  3  2  0
  3  4  1  0
  4  5  2  0
  5  6  1  0
  6  7  2  0
  7  8  1  0
  8  9  2  0
  9 10  1  0
 10 11  2  0
 11 12  1  0
 12 13  1  0
 13 14  1  1
 13 15  1  0
 15 16  1  0
 16 17  1  1
 11  2  1  0
 16 13  1  0
  9  4  1  0
M  END
>  <energy_score>  (4773) 
-16.048393

>  <alias>  (4773) 
IDIKGPXJIWPKHG-UHFFFAOYSA-N-P7-P7-P91-601530

>  <HIPPO Pose ID>  (4773) 
85929

>  <smiles>  (4773) 
Cc1cc2ccccc2nc1NC1(C)CC1C

>  <inchikey>  (4773) 
IDIKGPXJIWPKHG-UHFFFAOYSA-N

>  <distance_score>  (4773) 
1.03312

>  <ref_mols>  (4773) 
Z1688a,Z0089a

>  <ref_pdb>  (4773) 
Z0089a

>  <HIPPO Compound ID>  (4773) 
146116

>  <name>  (4773) 
IDIKGPXJIWPKHG-UHFFFAOYSA-N-P7-P7-P91-601530

>  <inspiration_score>  (4773) 
None

$$$$
MUFXDDGQXMPCMG-UHFFFAOYSA-N-P7-P7-P91-601530
     RDKit          3D

 17 19  0  0  0  0  0  0  0  0999 V2000
   -3.5165    6.2579  -15.8782 C   0  0  0  0  0  0  0  0  0  0  0  0
   -4.6846    5.6931  -16.6269 C   0  0  0  0  0  0  0  0  0  0  0  0
   -5.8292    5.3398  -15.8970 C   0  0  0  0  0  0  0  0  0  0  0  0
   -6.9658    4.8595  -16.5555 C   0  0  0  0  0  0  0  0  0  0  0  0
   -8.1445    4.5096  -15.8821 C   0  0  0  0  0  0  0  0  0  0  0  0
   -9.2538    4.0893  -16.6083 C   0  0  0  0  0  0  0  0  0  0  0  0
   -9.2015    4.0117  -17.9914 C   0  0  0  0  0  0  0  0  0  0  0  0
   -8.0176    4.3264  -18.6462 C   0  0  0  0  0  0  0  0  0  0  0  0
   -6.9000    4.7481  -17.9520 C   0  0  0  0  0  0  0  0  0  0  0  0
   -5.7989    5.0427  -18.6456 N   0  0  0  0  0  0  0  0  0  0  0  0
   -4.7082    5.4811  -18.0056 C   0  0  0  0  0  0  0  0  0  0  0  0
   -3.6640    5.7300  -18.8928 N   0  0  0  0  0  0  0  0  0  0  0  0
   -2.2793    5.4285  -18.6739 C   0  0  1  0  0  0  0  0  0  0  0  0
   -1.6818    4.5645  -19.8067 C   0  0  0  0  0  0  0  0  0  0  0  0
   -1.2398    5.8679  -20.5051 C   0  0  0  0  0  0  0  0  0  0  0  0
   -1.2902    6.5458  -19.1181 C   0  0  1  0  0  0  0  0  0  0  0  0
   -1.9807    8.2351  -19.1944 S   0  0  0  0  0  0  0  0  0  0  0  0
  1  2  1  0
  2  3  2  0
  3  4  1  0
  4  5  2  0
  5  6  1  0
  6  7  2  0
  7  8  1  0
  8  9  2  0
  9 10  1  0
 10 11  2  0
 11 12  1  0
 13 12  1  6
 13 14  1  0
 14 15  1  0
 15 16  1  0
 16 17  1  6
 11  2  1  0
 16 13  1  0
  9  4  1  0
M  END
>  <energy_score>  (4774) 
-26.633026

>  <alias>  (4774) 
MUFXDDGQXMPCMG-UHFFFAOYSA-N-P7-P7-P91-601530

>  <HIPPO Pose ID>  (4774) 
85939

>  <smiles>  (4774) 
Cc1cc2ccccc2nc1NC1CCC1S

>  <inchikey>  (4774) 
MUFXDDGQXMPCMG-UHFFFAOYSA-N

>  <distance_score>  (4774) 
0.921766

>  <ref_mols>  (4774) 
Z1688a,Z0089a

>  <ref_pdb>  (4774) 
Z0089a

>  <HIPPO Compound ID>  (4774) 
146121

>  <name>  (4774) 
MUFXDDGQXMPCMG-UHFFFAOYSA-N-P7-P7-P91-601530

>  <inspiration_score>  (4774) 
None

$$$$
WTRDBDRJUBYAPJ-UHFFFAOYSA-N-P7-P7-P91-601530
     RDKit          3D

 17 19  0  0  0  0  0  0  0  0999 V2000
   -5.3160    5.9038  -14.8247 C   0  0  0  0  0  0  0  0  0  0  0  0
   -5.5852    5.5693  -16.2596 C   0  0  0  0  0  0  0  0  0  0  0  0
   -4.5880    5.7827  -17.2058 C   0  0  0  0  0  0  0  0  0  0  0  0
   -4.8229    5.4537  -18.5293 C   0  0  0  0  0  0  0  0  0  0  0  0
   -3.8164    5.5476  -19.5030 N   0  0  0  0  0  0  0  0  0  0  0  0
   -2.4775    5.1193  -19.2421 C   0  0  1  0  0  0  0  0  0  0  0  0
   -1.5754    5.2033  -20.4825 C   0  0  0  0  0  0  0  0  0  0  0  0
   -0.4538    5.7219  -19.5584 C   0  0  1  0  0  0  0  0  0  0  0  0
    0.3476    6.6820  -20.0724 F   0  0  0  0  0  0  0  0  0  0  0  0
   -1.5829    6.2212  -18.6282 C   0  0  0  0  0  0  0  0  0  0  0  0
   -6.0013    5.0005  -18.9653 N   0  0  0  0  0  0  0  0  0  0  0  0
   -6.9715    4.7869  -18.0697 C   0  0  0  0  0  0  0  0  0  0  0  0
   -8.1809    4.3033  -18.5231 C   0  0  0  0  0  0  0  0  0  0  0  0
   -9.2264    4.0111  -17.6518 C   0  0  0  0  0  0  0  0  0  0  0  0
   -9.0608    4.1918  -16.2927 C   0  0  0  0  0  0  0  0  0  0  0  0
   -7.8694    4.7073  -15.8126 C   0  0  0  0  0  0  0  0  0  0  0  0
   -6.8117    5.0250  -16.6888 C   0  0  0  0  0  0  0  0  0  0  0  0
  1  2  1  0
  2  3  2  0
  3  4  1  0
  4  5  1  0
  6  5  1  6
  6  7  1  0
  7  8  1  0
  8  9  1  6
  8 10  1  0
  4 11  2  0
 11 12  1  0
 12 13  2  0
 13 14  1  0
 14 15  2  0
 15 16  1  0
 16 17  2  0
 17  2  1  0
 10  6  1  0
 17 12  1  0
M  END
>  <energy_score>  (4775) 
-14.91425

>  <alias>  (4775) 
WTRDBDRJUBYAPJ-UHFFFAOYSA-N-P7-P7-P91-601530

>  <HIPPO Pose ID>  (4775) 
85949

>  <smiles>  (4775) 
Cc1cc(NC2CC(F)C2)nc2ccccc12

>  <inchikey>  (4775) 
WTRDBDRJUBYAPJ-UHFFFAOYSA-N

>  <distance_score>  (4775) 
1.817373

>  <ref_mols>  (4775) 
Z1688a,Z0089a

>  <ref_pdb>  (4775) 
Z0089a

>  <HIPPO Compound ID>  (4775) 
146126

>  <name>  (4775) 
WTRDBDRJUBYAPJ-UHFFFAOYSA-N-P7-P7-P91-601530

>  <inspiration_score>  (4775) 
None

$$$$
KGSDJGANTKAKCO-UHFFFAOYSA-N-P7-P7-P91-601530
     RDKit          3D

 17 19  0  0  0  0  0  0  0  0999 V2000
   -1.5555    7.5838  -20.0205 C   0  0  0  0  0  0  0  0  0  0  0  0
   -1.1541    6.6207  -18.9092 C   0  0  2  0  0  0  0  0  0  0  0  0
   -0.2638    5.4386  -19.3723 C   0  0  0  0  0  0  0  0  0  0  0  0
   -1.5419    4.5740  -19.4314 C   0  0  0  0  0  0  0  0  0  0  0  0
   -2.1592    5.5464  -18.3985 C   0  0  2  0  0  0  0  0  0  0  0  0
   -3.5058    5.8845  -18.6920 N   0  0  0  0  0  0  0  0  0  0  0  0
   -4.6130    5.4741  -17.9658 C   0  0  0  0  0  0  0  0  0  0  0  0
   -4.7499    5.5756  -16.5913 C   0  0  0  0  0  0  0  0  0  0  0  0
   -5.9802    5.2412  -16.0104 C   0  0  0  0  0  0  0  0  0  0  0  0
   -7.0401    4.8102  -16.8282 C   0  0  0  0  0  0  0  0  0  0  0  0
   -8.3461    4.5013  -16.3826 C   0  0  0  0  0  0  0  0  0  0  0  0
   -9.3064    4.1378  -17.3227 C   0  0  0  0  0  0  0  0  0  0  0  0
  -10.6002    3.8921  -17.0111 O   0  0  0  0  0  0  0  0  0  0  0  0
   -8.9914    4.0209  -18.6595 C   0  0  0  0  0  0  0  0  0  0  0  0
   -7.7055    4.2812  -19.0809 C   0  0  0  0  0  0  0  0  0  0  0  0
   -6.7504    4.7077  -18.2011 C   0  0  0  0  0  0  0  0  0  0  0  0
   -5.5873    5.0296  -18.7475 N   0  0  0  0  0  0  0  0  0  0  0  0
  2  1  1  6
  2  3  1  0
  3  4  1  0
  4  5  1  0
  5  6  1  6
  6  7  1  0
  7  8  2  0
  8  9  1  0
  9 10  2  0
 10 11  1  0
 11 12  2  0
 12 13  1  0
 12 14  1  0
 14 15  2  0
 15 16  1  0
 16 17  2  0
  5  2  1  0
 17  7  1  0
 16 10  1  0
M  END
>  <energy_score>  (4776) 
-21.879308

>  <alias>  (4776) 
KGSDJGANTKAKCO-UHFFFAOYSA-N-P7-P7-P91-601530

>  <HIPPO Pose ID>  (4776) 
85959

>  <smiles>  (4776) 
CC1CCC1Nc1ccc2cc(O)ccc2n1

>  <inchikey>  (4776) 
KGSDJGANTKAKCO-UHFFFAOYSA-N

>  <distance_score>  (4776) 
0.914792

>  <ref_mols>  (4776) 
Z1688a,Z0089a

>  <ref_pdb>  (4776) 
Z0089a

>  <HIPPO Compound ID>  (4776) 
146131

>  <name>  (4776) 
KGSDJGANTKAKCO-UHFFFAOYSA-N-P7-P7-P91-601530

>  <inspiration_score>  (4776) 
None

$$$$
DJGQJYAJGGPKMB-UHFFFAOYSA-N-P91-P7-P91-601530
     RDKit          3D

 17 19  0  0  0  0  0  0  0  0999 V2000
   -2.6399    7.9468  -19.4596 C   0  0  0  0  0  0  0  0  0  0  0  0
   -2.2061    6.9487  -18.3937 C   0  0  2  0  0  0  0  0  0  0  0  0
   -0.7433    6.4435  -18.5337 C   0  0  0  0  0  0  0  0  0  0  0  0
   -1.3049    5.1861  -19.2293 C   0  0  0  0  0  0  0  0  0  0  0  0
   -2.6332    5.4569  -18.4857 C   0  0  2  0  0  0  0  0  0  0  0  0
   -3.7452    5.1960  -19.3245 N   0  0  0  0  0  0  0  0  0  0  0  0
   -5.0742    5.0446  -18.8802 C   0  0  0  0  0  0  0  0  0  0  0  0
   -5.9674    4.5910  -19.8345 C   0  0  0  0  0  0  0  0  0  0  0  0
   -7.2446    4.2413  -19.4739 C   0  0  0  0  0  0  0  0  0  0  0  0
   -7.6292    4.4061  -18.1696 C   0  0  0  0  0  0  0  0  0  0  0  0
   -8.9312    4.0527  -17.8527 C   0  0  0  0  0  0  0  0  0  0  0  0
   -9.3364    4.1122  -16.5414 C   0  0  0  0  0  0  0  0  0  0  0  0
   -8.4733    4.5591  -15.5568 C   0  0  0  0  0  0  0  0  0  0  0  0
   -7.1802    4.9493  -15.9058 C   0  0  0  0  0  0  0  0  0  0  0  0
   -6.3816    5.4046  -14.8887 O   0  0  0  0  0  0  0  0  0  0  0  0
   -6.6983    4.8794  -17.2207 C   0  0  0  0  0  0  0  0  0  0  0  0
   -5.4224    5.1949  -17.5861 N   0  0  0  0  0  0  0  0  0  0  0  0
  2  1  1  6
  2  3  1  0
  3  4  1  0
  4  5  1  0
  5  6  1  6
  6  7  1  0
  7  8  2  0
  8  9  1  0
  9 10  2  0
 10 11  1  0
 11 12  2  0
 12 13  1  0
 13 14  2  0
 14 15  1  0
 14 16  1  0
 16 17  2  0
  5  2  1  0
 17  7  1  0
 16 10  1  0
M  END
>  <energy_score>  (4777) 
-18.078283

>  <alias>  (4777) 
DJGQJYAJGGPKMB-UHFFFAOYSA-N-P91-P7-P91-601530

>  <HIPPO Pose ID>  (4777) 
85962

>  <smiles>  (4777) 
CC1CCC1Nc1ccc2cccc(O)c2n1

>  <inchikey>  (4777) 
DJGQJYAJGGPKMB-UHFFFAOYSA-N

>  <distance_score>  (4777) 
0.846985

>  <ref_mols>  (4777) 
Z1688a,Z0089a

>  <ref_pdb>  (4777) 
Z0089a

>  <HIPPO Compound ID>  (4777) 
146132

>  <name>  (4777) 
DJGQJYAJGGPKMB-UHFFFAOYSA-N-P91-P7-P91-601530

>  <inspiration_score>  (4777) 
None

$$$$
YYRZOXZMHCWMBN-UHFFFAOYSA-N-P7-P7-P91-601530
     RDKit          3D

 17 19  0  0  0  0  0  0  0  0999 V2000
    0.4794    7.2602  -18.6461 C   0  0  0  0  0  0  0  0  0  0  0  0
    0.2093    5.8788  -19.2199 C   0  0  0  0  0  0  0  0  0  0  0  0
   -1.2242    5.7302  -19.6274 C   0  0  1  0  0  0  0  0  0  0  0  0
   -1.8623    4.3672  -19.6490 C   0  0  0  0  0  0  0  0  0  0  0  0
   -2.2767    5.3660  -18.6125 C   0  0  2  0  0  0  0  0  0  0  0  0
   -3.5629    6.0586  -18.6996 N   0  0  0  0  0  0  0  0  0  0  0  0
   -4.6329    5.6107  -17.9069 C   0  0  0  0  0  0  0  0  0  0  0  0
   -5.6765    5.1211  -18.5880 N   0  0  0  0  0  0  0  0  0  0  0  0
   -6.7942    4.7820  -17.9393 C   0  0  0  0  0  0  0  0  0  0  0  0
   -7.8769    4.3494  -18.6804 C   0  0  0  0  0  0  0  0  0  0  0  0
   -9.0894    4.0259  -18.0806 C   0  0  0  0  0  0  0  0  0  0  0  0
   -9.2079    4.0972  -16.7009 C   0  0  0  0  0  0  0  0  0  0  0  0
   -8.1288    4.5109  -15.9255 C   0  0  0  0  0  0  0  0  0  0  0  0
   -6.9229    4.8777  -16.5451 C   0  0  0  0  0  0  0  0  0  0  0  0
   -5.8234    5.3701  -15.8343 C   0  0  0  0  0  0  0  0  0  0  0  0
   -4.6694    5.7811  -16.5169 C   0  0  0  0  0  0  0  0  0  0  0  0
   -3.5315    6.3512  -15.7233 C   0  0  0  0  0  0  0  0  0  0  0  0
  1  2  1  0
  3  2  1  1
  3  4  1  0
  4  5  1  0
  5  6  1  6
  6  7  1  0
  7  8  2  0
  8  9  1  0
  9 10  2  0
 10 11  1  0
 11 12  2  0
 12 13  1  0
 13 14  2  0
 14 15  1  0
 15 16  2  0
 16 17  1  0
  5  3  1  0
 16  7  1  0
 14  9  1  0
M  END
>  <energy_score>  (4778) 
-13.255595

>  <alias>  (4778) 
YYRZOXZMHCWMBN-UHFFFAOYSA-N-P7-P7-P91-601530

>  <HIPPO Pose ID>  (4778) 
85969

>  <smiles>  (4778) 
CCC1CC1Nc1nc2ccccc2cc1C

>  <inchikey>  (4778) 
YYRZOXZMHCWMBN-UHFFFAOYSA-N

>  <distance_score>  (4778) 
0.954198

>  <ref_mols>  (4778) 
Z1688a,Z0089a

>  <ref_pdb>  (4778) 
Z0089a

>  <HIPPO Compound ID>  (4778) 
146136

>  <name>  (4778) 
YYRZOXZMHCWMBN-UHFFFAOYSA-N-P7-P7-P91-601530

>  <inspiration_score>  (4778) 
None

$$$$
ALNMBAGYPUUXLO-UHFFFAOYSA-N-P91-P7-P91-601530
     RDKit          3D

 17 19  0  0  0  0  0  0  0  0999 V2000
   -0.0101    5.9024  -17.8845 C   0  0  0  0  0  0  0  0  0  0  0  0
   -0.5551    6.9998  -18.7779 C   0  0  0  0  0  0  0  0  0  0  0  0
   -1.6761    6.6105  -19.6932 C   0  0  1  0  0  0  0  0  0  0  0  0
   -1.4994    5.5180  -20.7158 C   0  0  0  0  0  0  0  0  0  0  0  0
   -2.4688    5.3272  -19.5906 C   0  0  2  0  0  0  0  0  0  0  0  0
   -3.8993    5.3767  -19.8312 N   0  0  0  0  0  0  0  0  0  0  0  0
   -4.8163    5.3324  -18.7812 C   0  0  0  0  0  0  0  0  0  0  0  0
   -4.4773    5.7296  -17.4949 C   0  0  0  0  0  0  0  0  0  0  0  0
   -5.4036    5.5965  -16.4638 C   0  0  0  0  0  0  0  0  0  0  0  0
   -5.0221    5.9969  -15.0716 C   0  0  0  0  0  0  0  0  0  0  0  0
   -6.6731    5.0724  -16.7729 C   0  0  0  0  0  0  0  0  0  0  0  0
   -7.6689    4.8375  -15.8061 C   0  0  0  0  0  0  0  0  0  0  0  0
   -8.9075    4.3409  -16.1690 C   0  0  0  0  0  0  0  0  0  0  0  0
   -9.1866    4.1077  -17.5016 C   0  0  0  0  0  0  0  0  0  0  0  0
   -8.2015    4.3123  -18.4624 C   0  0  0  0  0  0  0  0  0  0  0  0
   -6.9434    4.7629  -18.1219 C   0  0  0  0  0  0  0  0  0  0  0  0
   -6.0333    4.8772  -19.0928 N   0  0  0  0  0  0  0  0  0  0  0  0
  1  2  1  0
  3  2  1  1
  3  4  1  0
  4  5  1  0
  5  6  1  6
  6  7  1  0
  7  8  2  0
  8  9  1  0
  9 10  1  0
  9 11  2  0
 11 12  1  0
 12 13  2  0
 13 14  1  0
 14 15  2  0
 15 16  1  0
 16 17  2  0
  5  3  1  0
 17  7  1  0
 16 11  1  0
M  END
>  <energy_score>  (4779) 
-24.054042

>  <alias>  (4779) 
ALNMBAGYPUUXLO-UHFFFAOYSA-N-P91-P7-P91-601530

>  <HIPPO Pose ID>  (4779) 
85972

>  <smiles>  (4779) 
CCC1CC1Nc1cc(C)c2ccccc2n1

>  <inchikey>  (4779) 
ALNMBAGYPUUXLO-UHFFFAOYSA-N

>  <distance_score>  (4779) 
1.797339

>  <ref_mols>  (4779) 
Z1688a,Z0089a

>  <ref_pdb>  (4779) 
Z0089a

>  <HIPPO Compound ID>  (4779) 
146137

>  <name>  (4779) 
ALNMBAGYPUUXLO-UHFFFAOYSA-N-P91-P7-P91-601530

>  <inspiration_score>  (4779) 
None

$$$$
DYMLUGPZQNODHU-UHFFFAOYSA-N-P7-P7-P91-601530
     RDKit          3D

 17 19  0  0  0  0  0  0  0  0999 V2000
    0.9675    6.2324  -19.3860 C   0  0  0  0  0  0  0  0  0  0  0  0
   -0.4437    6.4664  -18.8705 C   0  0  0  0  0  0  0  0  0  0  0  0
   -1.4711    5.9019  -19.8055 C   0  0  1  0  0  0  0  0  0  0  0  0
   -1.8505    4.4501  -19.7030 C   0  0  0  0  0  0  0  0  0  0  0  0
   -2.8526    5.5094  -19.3391 C   0  0  1  0  0  0  0  0  0  0  0  0
   -3.2419    5.6988  -17.9414 N   0  0  0  0  0  0  0  0  0  0  0  0
   -4.5532    5.3826  -17.5345 C   0  0  0  0  0  0  0  0  0  0  0  0
   -4.8859    5.4991  -16.1876 C   0  0  0  0  0  0  0  0  0  0  0  0
   -6.1830    5.1976  -15.7684 C   0  0  0  0  0  0  0  0  0  0  0  0
   -7.1338    4.7935  -16.7133 C   0  0  0  0  0  0  0  0  0  0  0  0
   -8.4813    4.5039  -16.4034 C   0  0  0  0  0  0  0  0  0  0  0  0
   -9.3558    4.1770  -17.4343 C   0  0  0  0  0  0  0  0  0  0  0  0
  -10.6806    3.9616  -17.2319 O   0  0  0  0  0  0  0  0  0  0  0  0
   -8.9095    4.0896  -18.7385 C   0  0  0  0  0  0  0  0  0  0  0  0
   -7.5747    4.3314  -19.0266 C   0  0  0  0  0  0  0  0  0  0  0  0
   -6.6874    4.6986  -18.0462 C   0  0  0  0  0  0  0  0  0  0  0  0
   -5.4409    4.9681  -18.4383 N   0  0  0  0  0  0  0  0  0  0  0  0
  1  2  1  0
  3  2  1  1
  3  4  1  0
  4  5  1  0
  5  6  1  1
  6  7  1  0
  7  8  2  0
  8  9  1  0
  9 10  2  0
 10 11  1  0
 11 12  2  0
 12 13  1  0
 12 14  1  0
 14 15  2  0
 15 16  1  0
 16 17  2  0
  5  3  1  0
 17  7  1  0
 16 10  1  0
M  END
>  <energy_score>  (4780) 
-32.48738

>  <alias>  (4780) 
DYMLUGPZQNODHU-UHFFFAOYSA-N-P7-P7-P91-601530

>  <HIPPO Pose ID>  (4780) 
85973

>  <smiles>  (4780) 
CCC1CC1Nc1ccc2cc(O)ccc2n1

>  <inchikey>  (4780) 
DYMLUGPZQNODHU-UHFFFAOYSA-N

>  <distance_score>  (4780) 
0.94807

>  <ref_mols>  (4780) 
Z1688a,Z0089a

>  <ref_pdb>  (4780) 
Z0089a

>  <HIPPO Compound ID>  (4780) 
146138

>  <name>  (4780) 
DYMLUGPZQNODHU-UHFFFAOYSA-N-P7-P7-P91-601530

>  <inspiration_score>  (4780) 
None

$$$$
LKDTWVIHFZJZGT-UHFFFAOYSA-N-P91-P7-P91-601530
     RDKit          3D

 17 19  0  0  0  0  0  0  0  0999 V2000
   -3.4741    5.5754  -15.2169 C   0  0  0  0  0  0  0  0  0  0  0  0
   -4.6079    5.3291  -16.1686 C   0  0  0  0  0  0  0  0  0  0  0  0
   -5.9010    5.1351  -15.6644 C   0  0  0  0  0  0  0  0  0  0  0  0
   -6.9509    4.8248  -16.5343 C   0  0  0  0  0  0  0  0  0  0  0  0
   -8.2578    4.5471  -16.0955 C   0  0  0  0  0  0  0  0  0  0  0  0
   -9.2499    4.2450  -17.0247 C   0  0  0  0  0  0  0  0  0  0  0  0
   -8.9470    4.2158  -18.3762 C   0  0  0  0  0  0  0  0  0  0  0  0
   -7.6453    4.4510  -18.7967 C   0  0  0  0  0  0  0  0  0  0  0  0
   -6.6463    4.7667  -17.9036 C   0  0  0  0  0  0  0  0  0  0  0  0
   -5.4233    4.9842  -18.3929 N   0  0  0  0  0  0  0  0  0  0  0  0
   -4.4123    5.2426  -17.5542 C   0  0  0  0  0  0  0  0  0  0  0  0
   -3.1054    5.3130  -18.0842 N   0  0  0  0  0  0  0  0  0  0  0  0
   -2.9168    5.2964  -19.5343 C   0  0  2  0  0  0  0  0  0  0  0  0
   -1.5261    5.2449  -20.1005 C   0  0  0  0  0  0  0  0  0  0  0  0
   -2.3500    6.5031  -20.2285 C   0  0  1  0  0  0  0  0  0  0  0  0
   -2.9330    6.9232  -21.5326 C   0  0  0  0  0  0  0  0  0  0  0  0
   -2.1585    7.9251  -22.0358 F   0  0  0  0  0  0  0  0  0  0  0  0
  1  2  1  0
  2  3  2  0
  3  4  1  0
  4  5  2  0
  5  6  1  0
  6  7  2  0
  7  8  1  0
  8  9  2  0
  9 10  1  0
 10 11  2  0
 11 12  1  0
 13 12  1  1
 13 14  1  0
 14 15  1  0
 15 16  1  6
 16 17  1  0
 11  2  1  0
 15 13  1  0
  9  4  1  0
M  END
>  <energy_score>  (4781) 
-20.119105

>  <alias>  (4781) 
LKDTWVIHFZJZGT-UHFFFAOYSA-N-P91-P7-P91-601530

>  <HIPPO Pose ID>  (4781) 
85978

>  <smiles>  (4781) 
Cc1cc2ccccc2nc1NC1CC1CF

>  <inchikey>  (4781) 
LKDTWVIHFZJZGT-UHFFFAOYSA-N

>  <distance_score>  (4781) 
0.981684

>  <ref_mols>  (4781) 
Z1688a,Z0089a

>  <ref_pdb>  (4781) 
Z0089a

>  <HIPPO Compound ID>  (4781) 
146140

>  <name>  (4781) 
LKDTWVIHFZJZGT-UHFFFAOYSA-N-P91-P7-P91-601530

>  <inspiration_score>  (4781) 
None

$$$$
ZRFNUHVQEGHRSF-UHFFFAOYSA-N-P7-P7-P91-601530
     RDKit          3D

 17 18  0  0  0  0  0  0  0  0999 V2000
   -1.9282    4.1250  -20.1520 C   0  0  0  0  0  0  0  0  0  0  0  0
   -1.8203    4.7235  -18.7720 C   0  0  0  0  0  0  0  0  0  0  0  0
   -2.3789    6.1416  -18.6414 C   0  0  0  0  0  0  0  0  0  0  0  0
   -1.7535    7.1084  -19.6593 C   0  0  0  0  0  0  0  0  0  0  0  0
   -2.0720    8.5683  -19.3532 C   0  0  0  0  0  0  0  0  0  0  0  0
   -3.8175    6.1770  -18.8102 N   0  0  0  0  0  0  0  0  0  0  0  0
   -4.7480    5.7128  -17.9209 C   0  0  0  0  0  0  0  0  0  0  0  0
   -5.7892    5.1832  -18.5785 N   0  0  0  0  0  0  0  0  0  0  0  0
   -6.8796    4.7970  -17.9132 C   0  0  0  0  0  0  0  0  0  0  0  0
   -7.9665    4.3483  -18.6385 C   0  0  0  0  0  0  0  0  0  0  0  0
   -9.1590    3.9980  -18.0170 C   0  0  0  0  0  0  0  0  0  0  0  0
   -9.2471    4.0553  -16.6347 C   0  0  0  0  0  0  0  0  0  0  0  0
   -8.1587    4.4734  -15.8764 C   0  0  0  0  0  0  0  0  0  0  0  0
   -6.9760    4.8685  -16.5183 C   0  0  0  0  0  0  0  0  0  0  0  0
   -5.8714    5.3765  -15.8301 C   0  0  0  0  0  0  0  0  0  0  0  0
   -4.7470    5.8421  -16.5323 C   0  0  0  0  0  0  0  0  0  0  0  0
   -3.6488    6.4786  -15.7381 C   0  0  0  0  0  0  0  0  0  0  0  0
  1  2  1  0
  2  3  1  0
  3  4  1  0
  4  5  1  0
  3  6  1  0
  6  7  1  0
  7  8  2  0
  8  9  1  0
  9 10  2  0
 10 11  1  0
 11 12  2  0
 12 13  1  0
 13 14  2  0
 14 15  1  0
 15 16  2  0
 16 17  1  0
 16  7  1  0
 14  9  1  0
M  END
>  <energy_score>  (4782) 
-28.197137

>  <alias>  (4782) 
ZRFNUHVQEGHRSF-UHFFFAOYSA-N-P7-P7-P91-601530

>  <HIPPO Pose ID>  (4782) 
85979

>  <smiles>  (4782) 
CCC(CC)Nc1nc2ccccc2cc1C

>  <inchikey>  (4782) 
ZRFNUHVQEGHRSF-UHFFFAOYSA-N

>  <distance_score>  (4782) 
0.950576

>  <ref_mols>  (4782) 
Z1688a,Z0089a

>  <ref_pdb>  (4782) 
Z0089a

>  <HIPPO Compound ID>  (4782) 
146141

>  <name>  (4782) 
ZRFNUHVQEGHRSF-UHFFFAOYSA-N-P7-P7-P91-601530

>  <inspiration_score>  (4782) 
None

$$$$
GJHMWMCBRPKZTC-UHFFFAOYSA-N-P91-P7-P91-601530
     RDKit          3D

 17 18  0  0  0  0  0  0  0  0999 V2000
   -1.6287    3.6083  -19.7790 C   0  0  0  0  0  0  0  0  0  0  0  0
   -1.3787    5.0856  -19.9670 C   0  0  0  0  0  0  0  0  0  0  0  0
   -2.3118    5.9341  -19.1050 C   0  0  0  0  0  0  0  0  0  0  0  0
   -1.9985    7.4337  -19.2135 C   0  0  0  0  0  0  0  0  0  0  0  0
   -2.1564    8.0290  -20.6081 C   0  0  0  0  0  0  0  0  0  0  0  0
   -3.7027    5.7066  -19.4378 N   0  0  0  0  0  0  0  0  0  0  0  0
   -4.6926    5.5500  -18.5008 C   0  0  0  0  0  0  0  0  0  0  0  0
   -4.5442    5.9179  -17.1721 C   0  0  0  0  0  0  0  0  0  0  0  0
   -5.5650    5.6763  -16.2579 C   0  0  0  0  0  0  0  0  0  0  0  0
   -5.3638    6.0426  -14.8202 C   0  0  0  0  0  0  0  0  0  0  0  0
   -6.7519    5.0901  -16.7266 C   0  0  0  0  0  0  0  0  0  0  0  0
   -7.8378    4.7716  -15.8881 C   0  0  0  0  0  0  0  0  0  0  0  0
   -8.9943    4.2234  -16.4091 C   0  0  0  0  0  0  0  0  0  0  0  0
   -9.0956    4.0129  -17.7692 C   0  0  0  0  0  0  0  0  0  0  0  0
   -8.0177    4.2979  -18.6010 C   0  0  0  0  0  0  0  0  0  0  0  0
   -6.8392    4.8134  -18.1062 C   0  0  0  0  0  0  0  0  0  0  0  0
   -5.8307    5.0242  -18.9611 N   0  0  0  0  0  0  0  0  0  0  0  0
  1  2  1  0
  2  3  1  0
  3  4  1  0
  4  5  1  0
  3  6  1  0
  6  7  1  0
  7  8  2  0
  8  9  1  0
  9 10  1  0
  9 11  2  0
 11 12  1  0
 12 13  2  0
 13 14  1  0
 14 15  2  0
 15 16  1  0
 16 17  2  0
 17  7  1  0
 16 11  1  0
M  END
>  <energy_score>  (4783) 
-19.591331

>  <alias>  (4783) 
GJHMWMCBRPKZTC-UHFFFAOYSA-N-P91-P7-P91-601530

>  <HIPPO Pose ID>  (4783) 
85982

>  <smiles>  (4783) 
CCC(CC)Nc1cc(C)c2ccccc2n1

>  <inchikey>  (4783) 
GJHMWMCBRPKZTC-UHFFFAOYSA-N

>  <distance_score>  (4783) 
1.825709

>  <ref_mols>  (4783) 
Z1688a,Z0089a

>  <ref_pdb>  (4783) 
Z0089a

>  <HIPPO Compound ID>  (4783) 
146142

>  <name>  (4783) 
GJHMWMCBRPKZTC-UHFFFAOYSA-N-P91-P7-P91-601530

>  <inspiration_score>  (4783) 
None

$$$$
NFFMZOVQLOVGQG-UHFFFAOYSA-N-P91-P7-P91-601530
     RDKit          3D

 17 18  0  0  0  0  0  0  0  0999 V2000
   -1.0632    5.7585  -20.6242 C   0  0  0  0  0  0  0  0  0  0  0  0
   -1.5147    4.8877  -19.4536 C   0  0  0  0  0  0  0  0  0  0  0  0
   -2.7239    5.4528  -18.6691 C   0  0  0  0  0  0  0  0  0  0  0  0
   -2.5053    6.8814  -18.1471 C   0  0  0  0  0  0  0  0  0  0  0  0
   -1.3373    6.9981  -17.1783 C   0  0  0  0  0  0  0  0  0  0  0  0
   -3.8805    5.4590  -19.5614 N   0  0  0  0  0  0  0  0  0  0  0  0
   -5.1174    5.0885  -18.9995 C   0  0  0  0  0  0  0  0  0  0  0  0
   -6.0653    4.6393  -19.9025 C   0  0  0  0  0  0  0  0  0  0  0  0
   -7.3067    4.2379  -19.4705 C   0  0  0  0  0  0  0  0  0  0  0  0
   -7.6219    4.3869  -18.1461 C   0  0  0  0  0  0  0  0  0  0  0  0
   -8.9046    4.0239  -17.7613 C   0  0  0  0  0  0  0  0  0  0  0  0
   -9.2469    4.0945  -16.4319 C   0  0  0  0  0  0  0  0  0  0  0  0
   -8.3404    4.5575  -15.4962 C   0  0  0  0  0  0  0  0  0  0  0  0
   -7.0682    4.9538  -15.9123 C   0  0  0  0  0  0  0  0  0  0  0  0
   -6.2255    5.4332  -14.9425 O   0  0  0  0  0  0  0  0  0  0  0  0
   -6.6490    4.8774  -17.2499 C   0  0  0  0  0  0  0  0  0  0  0  0
   -5.4001    5.2210  -17.6872 N   0  0  0  0  0  0  0  0  0  0  0  0
  1  2  1  0
  2  3  1  0
  3  4  1  0
  4  5  1  0
  3  6  1  0
  6  7  1  0
  7  8  2  0
  8  9  1  0
  9 10  2  0
 10 11  1  0
 11 12  2  0
 12 13  1  0
 13 14  2  0
 14 15  1  0
 14 16  1  0
 16 17  2  0
 17  7  1  0
 16 10  1  0
M  END
>  <energy_score>  (4784) 
-26.382341

>  <alias>  (4784) 
NFFMZOVQLOVGQG-UHFFFAOYSA-N-P91-P7-P91-601530

>  <HIPPO Pose ID>  (4784) 
85986

>  <smiles>  (4784) 
CCC(CC)Nc1ccc2cccc(O)c2n1

>  <inchikey>  (4784) 
NFFMZOVQLOVGQG-UHFFFAOYSA-N

>  <distance_score>  (4784) 
0.880875

>  <ref_mols>  (4784) 
Z1688a,Z0089a

>  <ref_pdb>  (4784) 
Z0089a

>  <HIPPO Compound ID>  (4784) 
146144

>  <name>  (4784) 
NFFMZOVQLOVGQG-UHFFFAOYSA-N-P91-P7-P91-601530

>  <inspiration_score>  (4784) 
None

$$$$
JKQRINFAOHJXCZ-UHFFFAOYSA-N-P91-P7-P91-601530
     RDKit          3D

 17 18  0  0  0  0  0  0  0  0999 V2000
    0.3592    5.6121  -18.8303 C   0  0  0  0  0  0  0  0  0  0  0  0
   -1.0011    5.0567  -19.2316 C   0  0  0  0  0  0  0  0  0  0  0  0
   -2.1785    5.8297  -18.5939 C   0  0  1  0  0  0  0  0  0  0  0  0
   -2.3640    7.1885  -19.3027 C   0  0  0  0  0  0  0  0  0  0  0  0
   -3.6263    8.2813  -18.5628 S   0  0  0  0  0  0  0  0  0  0  0  0
   -3.3247    4.9684  -18.7696 N   0  0  0  0  0  0  0  0  0  0  0  0
   -4.4712    5.0246  -18.0430 C   0  0  0  0  0  0  0  0  0  0  0  0
   -4.6258    5.2526  -16.6874 C   0  0  0  0  0  0  0  0  0  0  0  0
   -5.9090    5.1425  -16.1226 C   0  0  0  0  0  0  0  0  0  0  0  0
   -7.0035    4.7911  -16.9379 C   0  0  0  0  0  0  0  0  0  0  0  0
   -8.3411    4.5804  -16.5166 C   0  0  0  0  0  0  0  0  0  0  0  0
   -9.3032    4.2661  -17.4749 C   0  0  0  0  0  0  0  0  0  0  0  0
  -10.6121    4.0525  -17.2069 O   0  0  0  0  0  0  0  0  0  0  0  0
   -8.9688    4.1482  -18.8054 C   0  0  0  0  0  0  0  0  0  0  0  0
   -7.6605    4.2748  -19.1977 C   0  0  0  0  0  0  0  0  0  0  0  0
   -6.6998    4.6190  -18.2978 C   0  0  0  0  0  0  0  0  0  0  0  0
   -5.4990    4.7510  -18.8268 N   0  0  0  0  0  0  0  0  0  0  0  0
  1  2  1  0
  3  2  1  6
  3  4  1  0
  4  5  1  0
  3  6  1  0
  6  7  1  0
  7  8  2  0
  8  9  1  0
  9 10  2  0
 10 11  1  0
 11 12  2  0
 12 13  1  0
 12 14  1  0
 14 15  2  0
 15 16  1  0
 16 17  2  0
 17  7  1  0
 16 10  1  0
M  END
>  <energy_score>  (4785) 
-21.09017

>  <alias>  (4785) 
JKQRINFAOHJXCZ-UHFFFAOYSA-N-P91-P7-P91-601530

>  <HIPPO Pose ID>  (4785) 
85992

>  <smiles>  (4785) 
CCC(CS)Nc1ccc2cc(O)ccc2n1

>  <inchikey>  (4785) 
JKQRINFAOHJXCZ-UHFFFAOYSA-N

>  <distance_score>  (4785) 
0.972178

>  <ref_mols>  (4785) 
Z1688a,Z0089a

>  <ref_pdb>  (4785) 
Z0089a

>  <HIPPO Compound ID>  (4785) 
146147

>  <name>  (4785) 
JKQRINFAOHJXCZ-UHFFFAOYSA-N-P91-P7-P91-601530

>  <inspiration_score>  (4785) 
None

$$$$
FKESKKDCBROWSF-UHFFFAOYSA-N-P91-P7-P91-601530
     RDKit          3D

 17 19  0  0  0  0  0  0  0  0999 V2000
   -4.9064    5.9186  -15.1377 C   0  0  0  0  0  0  0  0  0  0  0  0
   -5.3271    5.5432  -16.5267 C   0  0  0  0  0  0  0  0  0  0  0  0
   -4.4163    5.6659  -17.5787 C   0  0  0  0  0  0  0  0  0  0  0  0
   -4.7931    5.3150  -18.8630 C   0  0  0  0  0  0  0  0  0  0  0  0
   -3.9554    5.3638  -19.9703 N   0  0  0  0  0  0  0  0  0  0  0  0
   -2.5552    5.4321  -20.1590 C   0  0  2  0  0  0  0  0  0  0  0  0
   -1.6791    4.5969  -19.2124 C   0  0  0  0  0  0  0  0  0  0  0  0
   -0.6778    5.7819  -19.2215 C   0  0  2  0  0  0  0  0  0  0  0  0
    0.1560    6.2167  -17.5331 Br  0  0  0  0  0  0  0  0  0  0  0  0
   -1.8603    6.6976  -19.6328 C   0  0  0  0  0  0  0  0  0  0  0  0
   -6.0304    4.8872  -19.1394 N   0  0  0  0  0  0  0  0  0  0  0  0
   -6.9221    4.7659  -18.1500 C   0  0  0  0  0  0  0  0  0  0  0  0
   -8.1939    4.3308  -18.4646 C   0  0  0  0  0  0  0  0  0  0  0  0
   -9.1628    4.1311  -17.4848 C   0  0  0  0  0  0  0  0  0  0  0  0
   -8.8560    4.3585  -16.1573 C   0  0  0  0  0  0  0  0  0  0  0  0
   -7.6002    4.8321  -15.8201 C   0  0  0  0  0  0  0  0  0  0  0  0
   -6.6179    5.0546  -16.8070 C   0  0  0  0  0  0  0  0  0  0  0  0
  1  2  1  0
  2  3  2  0
  3  4  1  0
  4  5  1  0
  6  5  1  1
  6  7  1  0
  7  8  1  0
  8  9  1  1
  8 10  1  0
  4 11  2  0
 11 12  1  0
 12 13  2  0
 13 14  1  0
 14 15  2  0
 15 16  1  0
 16 17  2  0
 17  2  1  0
 10  6  1  0
 17 12  1  0
M  END
>  <energy_score>  (4786) 
-18.857459

>  <alias>  (4786) 
FKESKKDCBROWSF-UHFFFAOYSA-N-P91-P7-P91-601530

>  <HIPPO Pose ID>  (4786) 
85996

>  <smiles>  (4786) 
Cc1cc(NC2CC(Br)C2)nc2ccccc12

>  <inchikey>  (4786) 
FKESKKDCBROWSF-UHFFFAOYSA-N

>  <distance_score>  (4786) 
1.778054

>  <ref_mols>  (4786) 
Z1688a,Z0089a

>  <ref_pdb>  (4786) 
Z0089a

>  <HIPPO Compound ID>  (4786) 
146149

>  <name>  (4786) 
FKESKKDCBROWSF-UHFFFAOYSA-N-P91-P7-P91-601530

>  <inspiration_score>  (4786) 
None

$$$$
AZFSDPCINHPJKC-UHFFFAOYSA-N-P7-P7-P91-601530
     RDKit          3D

 17 19  0  0  0  0  0  0  0  0999 V2000
   -3.4830    6.2741  -16.0613 C   0  0  0  0  0  0  0  0  0  0  0  0
   -4.6566    5.6751  -16.7780 C   0  0  0  0  0  0  0  0  0  0  0  0
   -5.7842    5.3456  -16.0092 C   0  0  0  0  0  0  0  0  0  0  0  0
   -6.9424    4.8640  -16.6241 C   0  0  0  0  0  0  0  0  0  0  0  0
   -8.0964    4.5246  -15.9040 C   0  0  0  0  0  0  0  0  0  0  0  0
   -9.2316    4.0979  -16.5835 C   0  0  0  0  0  0  0  0  0  0  0  0
   -9.2304    4.0088  -17.9667 C   0  0  0  0  0  0  0  0  0  0  0  0
   -8.0706    4.3163  -18.6678 C   0  0  0  0  0  0  0  0  0  0  0  0
   -6.9256    4.7408  -18.0207 C   0  0  0  0  0  0  0  0  0  0  0  0
   -5.8461    5.0189  -18.7562 N   0  0  0  0  0  0  0  0  0  0  0  0
   -4.7088    5.4346  -18.1583 C   0  0  0  0  0  0  0  0  0  0  0  0
   -3.6283    5.6255  -19.0486 N   0  0  0  0  0  0  0  0  0  0  0  0
   -3.9145    5.6273  -20.4267 O   0  0  0  0  0  0  0  0  0  0  0  0
   -2.2445    5.3594  -18.7545 C   0  0  0  0  0  0  0  0  0  0  0  0
   -1.4736    4.5444  -19.8063 C   0  0  0  0  0  0  0  0  0  0  0  0
   -0.9242    5.8611  -20.3868 C   0  0  0  0  0  0  0  0  0  0  0  0
   -1.3351    6.5617  -19.0786 C   0  0  0  0  0  0  0  0  0  0  0  0
  1  2  1  0
  2  3  2  0
  3  4  1  0
  4  5  2  0
  5  6  1  0
  6  7  2  0
  7  8  1  0
  8  9  2  0
  9 10  1  0
 10 11  2  0
 11 12  1  0
 12 13  1  0
 12 14  1  0
 14 15  1  0
 15 16  1  0
 16 17  1  0
 11  2  1  0
 17 14  1  0
  9  4  1  0
M  END
>  <energy_score>  (4787) 
-17.013007

>  <alias>  (4787) 
AZFSDPCINHPJKC-UHFFFAOYSA-N-P7-P7-P91-601530

>  <HIPPO Pose ID>  (4787) 
86003

>  <smiles>  (4787) 
Cc1cc2ccccc2nc1N(O)C1CCC1

>  <inchikey>  (4787) 
AZFSDPCINHPJKC-UHFFFAOYSA-N

>  <distance_score>  (4787) 
0.949661

>  <ref_mols>  (4787) 
Z1688a,Z0089a

>  <ref_pdb>  (4787) 
Z0089a

>  <HIPPO Compound ID>  (4787) 
146153

>  <name>  (4787) 
AZFSDPCINHPJKC-UHFFFAOYSA-N-P7-P7-P91-601530

>  <inspiration_score>  (4787) 
None

$$$$
YSQFYJJZEHMRAS-UHFFFAOYSA-N-P7-P7-P91-601530
     RDKit          3D

 17 19  0  0  0  0  0  0  0  0999 V2000
   -5.4096    5.8450  -14.7447 C   0  0  0  0  0  0  0  0  0  0  0  0
   -5.5930    5.5264  -16.1970 C   0  0  0  0  0  0  0  0  0  0  0  0
   -4.5332    5.7316  -17.0748 C   0  0  0  0  0  0  0  0  0  0  0  0
   -4.6797    5.4410  -18.4244 C   0  0  0  0  0  0  0  0  0  0  0  0
   -3.5859    5.5698  -19.3097 N   0  0  0  0  0  0  0  0  0  0  0  0
   -3.8229    5.5641  -20.6861 O   0  0  0  0  0  0  0  0  0  0  0  0
   -2.2015    5.5685  -18.9435 C   0  0  0  0  0  0  0  0  0  0  0  0
   -1.3043    4.6449  -19.7907 C   0  0  0  0  0  0  0  0  0  0  0  0
   -0.2394    5.7644  -19.7270 C   0  0  0  0  0  0  0  0  0  0  0  0
   -1.4024    6.7595  -19.5094 C   0  0  0  0  0  0  0  0  0  0  0  0
   -5.8516    5.0249  -18.9389 N   0  0  0  0  0  0  0  0  0  0  0  0
   -6.8738    4.7937  -18.1005 C   0  0  0  0  0  0  0  0  0  0  0  0
   -8.0559    4.3108  -18.6216 C   0  0  0  0  0  0  0  0  0  0  0  0
   -9.1506    4.0104  -17.8132 C   0  0  0  0  0  0  0  0  0  0  0  0
   -9.0691    4.1820  -16.4460 C   0  0  0  0  0  0  0  0  0  0  0  0
   -7.9047    4.6869  -15.8954 C   0  0  0  0  0  0  0  0  0  0  0  0
   -6.7957    5.0063  -16.7079 C   0  0  0  0  0  0  0  0  0  0  0  0
  1  2  1  0
  2  3  2  0
  3  4  1  0
  4  5  1  0
  5  6  1  0
  5  7  1  0
  7  8  1  0
  8  9  1  0
  9 10  1  0
  4 11  2  0
 11 12  1  0
 12 13  2  0
 13 14  1  0
 14 15  2  0
 15 16  1  0
 16 17  2  0
 17  2  1  0
 10  7  1  0
 17 12  1  0
M  END
>  <energy_score>  (4788) 
-29.352237

>  <alias>  (4788) 
YSQFYJJZEHMRAS-UHFFFAOYSA-N-P7-P7-P91-601530

>  <HIPPO Pose ID>  (4788) 
86005

>  <smiles>  (4788) 
Cc1cc(N(O)C2CCC2)nc2ccccc12

>  <inchikey>  (4788) 
YSQFYJJZEHMRAS-UHFFFAOYSA-N

>  <distance_score>  (4788) 
1.978715

>  <ref_mols>  (4788) 
Z1688a,Z0089a

>  <ref_pdb>  (4788) 
Z0089a

>  <HIPPO Compound ID>  (4788) 
146154

>  <name>  (4788) 
YSQFYJJZEHMRAS-UHFFFAOYSA-N-P7-P7-P91-601530

>  <inspiration_score>  (4788) 
None

$$$$
ZCQPHSIGXGMFHY-UHFFFAOYSA-N-P7-P7-P91-601530
     RDKit          3D

 17 19  0  0  0  0  0  0  0  0999 V2000
   -4.9922    5.6815  -15.0053 C   0  0  0  0  0  0  0  0  0  0  0  0
   -5.4210    5.3654  -16.4055 C   0  0  0  0  0  0  0  0  0  0  0  0
   -4.5035    5.4838  -17.4476 C   0  0  0  0  0  0  0  0  0  0  0  0
   -4.9060    5.2208  -18.7472 C   0  0  0  0  0  0  0  0  0  0  0  0
   -4.0397    5.2817  -19.8374 N   0  0  0  0  0  0  0  0  0  0  0  0
   -2.7150    5.9131  -19.7933 C   0  0  0  0  0  0  0  0  0  0  0  0
   -1.5874    4.9399  -19.4365 C   0  0  0  0  0  0  0  0  0  0  0  0
   -0.0804    5.6789  -18.7652 S   0  0  0  0  0  0  0  0  0  0  0  0
   -2.4105    6.9279  -20.8804 C   0  0  0  0  0  0  0  0  0  0  0  0
   -2.6568    7.4117  -19.4910 C   0  0  0  0  0  0  0  0  0  0  0  0
   -6.1575    4.8632  -19.0507 N   0  0  0  0  0  0  0  0  0  0  0  0
   -7.0427    4.7106  -18.0636 C   0  0  0  0  0  0  0  0  0  0  0  0
   -8.3224    4.3183  -18.3969 C   0  0  0  0  0  0  0  0  0  0  0  0
   -9.2941    4.0970  -17.4254 C   0  0  0  0  0  0  0  0  0  0  0  0
   -8.9816    4.2632  -16.0897 C   0  0  0  0  0  0  0  0  0  0  0  0
   -7.7139    4.6892  -15.7322 C   0  0  0  0  0  0  0  0  0  0  0  0
   -6.7264    4.9288  -16.7083 C   0  0  0  0  0  0  0  0  0  0  0  0
  1  2  1  0
  2  3  2  0
  3  4  1  0
  4  5  1  0
  5  6  1  0
  6  7  1  0
  7  8  1  0
  6  9  1  0
  9 10  1  0
  4 11  2  0
 11 12  1  0
 12 13  2  0
 13 14  1  0
 14 15  2  0
 15 16  1  0
 16 17  2  0
 17  2  1  0
 10  6  1  0
 17 12  1  0
M  END
>  <energy_score>  (4789) 
-33.197835

>  <alias>  (4789) 
ZCQPHSIGXGMFHY-UHFFFAOYSA-N-P7-P7-P91-601530

>  <HIPPO Pose ID>  (4789) 
86017

>  <smiles>  (4789) 
Cc1cc(NC2(CS)CC2)nc2ccccc12

>  <inchikey>  (4789) 
ZCQPHSIGXGMFHY-UHFFFAOYSA-N

>  <distance_score>  (4789) 
1.984169

>  <ref_mols>  (4789) 
Z1688a,Z0089a

>  <ref_pdb>  (4789) 
Z0089a

>  <HIPPO Compound ID>  (4789) 
146160

>  <name>  (4789) 
ZCQPHSIGXGMFHY-UHFFFAOYSA-N-P7-P7-P91-601530

>  <inspiration_score>  (4789) 
None

$$$$
QKYCORGWUVBHEC-UHFFFAOYSA-N-P7-P7-P91-601530
     RDKit          3D

 17 19  0  0  0  0  0  0  0  0999 V2000
  -10.1629    3.7496  -16.2062 O   0  0  0  0  0  0  0  0  0  0  0  0
   -9.0230    4.1021  -16.8290 C   0  0  0  0  0  0  0  0  0  0  0  0
   -8.9758    4.0661  -18.2067 C   0  0  0  0  0  0  0  0  0  0  0  0
   -7.7839    4.3899  -18.8298 C   0  0  0  0  0  0  0  0  0  0  0  0
   -6.6854    4.8036  -18.1077 C   0  0  0  0  0  0  0  0  0  0  0  0
   -5.6167    5.2016  -18.7942 N   0  0  0  0  0  0  0  0  0  0  0  0
   -4.5516    5.6635  -18.1372 C   0  0  0  0  0  0  0  0  0  0  0  0
   -3.6064    6.2467  -18.9740 N   0  0  0  0  0  0  0  0  0  0  0  0
   -2.1518    6.1730  -18.7655 C   0  0  0  0  0  0  0  0  0  0  0  0
   -1.4898    4.9316  -19.3430 C   0  0  0  0  0  0  0  0  0  0  0  0
   -1.4859    5.1269  -21.1513 S   0  0  0  0  0  0  0  0  0  0  0  0
   -1.4944    6.8740  -17.5957 C   0  0  0  0  0  0  0  0  0  0  0  0
   -1.3862    7.4832  -18.9495 C   0  0  0  0  0  0  0  0  0  0  0  0
   -4.4856    5.6561  -16.7526 C   0  0  0  0  0  0  0  0  0  0  0  0
   -5.5947    5.2328  -16.0215 C   0  0  0  0  0  0  0  0  0  0  0  0
   -6.7430    4.8217  -16.7034 C   0  0  0  0  0  0  0  0  0  0  0  0
   -7.9247    4.4464  -16.0576 C   0  0  0  0  0  0  0  0  0  0  0  0
  1  2  1  0
  2  3  2  0
  3  4  1  0
  4  5  2  0
  5  6  1  0
  6  7  2  0
  7  8  1  0
  8  9  1  0
  9 10  1  0
 10 11  1  0
  9 12  1  0
 12 13  1  0
  7 14  1  0
 14 15  2  0
 15 16  1  0
 16 17  2  0
 17  2  1  0
 16  5  1  0
 13  9  1  0
M  END
>  <energy_score>  (4790) 
-28.507671

>  <alias>  (4790) 
QKYCORGWUVBHEC-UHFFFAOYSA-N-P7-P7-P91-601530

>  <HIPPO Pose ID>  (4790) 
86019

>  <smiles>  (4790) 
Oc1ccc2nc(NC3(CS)CC3)ccc2c1

>  <inchikey>  (4790) 
QKYCORGWUVBHEC-UHFFFAOYSA-N

>  <distance_score>  (4790) 
1.065573

>  <ref_mols>  (4790) 
Z1688a,Z0089a

>  <ref_pdb>  (4790) 
Z0089a

>  <HIPPO Compound ID>  (4790) 
146161

>  <name>  (4790) 
QKYCORGWUVBHEC-UHFFFAOYSA-N-P7-P7-P91-601530

>  <inspiration_score>  (4790) 
None

$$$$
HSERXEMHFRZJGL-UHFFFAOYSA-N-P91-P7-P91-601530
     RDKit          3D

 17 19  0  0  0  0  0  0  0  0999 V2000
   -6.3959    5.4742  -14.9001 O   0  0  0  0  0  0  0  0  0  0  0  0
   -7.1709    4.9721  -15.9148 C   0  0  0  0  0  0  0  0  0  0  0  0
   -8.4554    4.5447  -15.5741 C   0  0  0  0  0  0  0  0  0  0  0  0
   -9.2991    4.0702  -16.5627 C   0  0  0  0  0  0  0  0  0  0  0  0
   -8.8671    3.9867  -17.8658 C   0  0  0  0  0  0  0  0  0  0  0  0
   -7.5743    4.3858  -18.1780 C   0  0  0  0  0  0  0  0  0  0  0  0
   -7.1724    4.2480  -19.4825 C   0  0  0  0  0  0  0  0  0  0  0  0
   -5.9545    4.7637  -19.8581 C   0  0  0  0  0  0  0  0  0  0  0  0
   -5.1111    5.3198  -18.9114 C   0  0  0  0  0  0  0  0  0  0  0  0
   -3.9466    5.9542  -19.4117 N   0  0  0  0  0  0  0  0  0  0  0  0
   -2.6589    5.8259  -18.6921 C   0  0  0  0  0  0  0  0  0  0  0  0
   -1.8357    4.6050  -19.0695 C   0  0  0  0  0  0  0  0  0  0  0  0
   -1.6926    4.4942  -20.8807 S   0  0  0  0  0  0  0  0  0  0  0  0
   -1.8933    7.1179  -18.4751 C   0  0  0  0  0  0  0  0  0  0  0  0
   -2.4888    6.4005  -17.3034 C   0  0  0  0  0  0  0  0  0  0  0  0
   -5.4450    5.3625  -17.6032 N   0  0  0  0  0  0  0  0  0  0  0  0
   -6.6812    4.9233  -17.2294 C   0  0  0  0  0  0  0  0  0  0  0  0
  1  2  1  0
  2  3  2  0
  3  4  1  0
  4  5  2  0
  5  6  1  0
  6  7  2  0
  7  8  1  0
  8  9  2  0
  9 10  1  0
 10 11  1  0
 11 12  1  0
 12 13  1  0
 11 14  1  0
 14 15  1  0
  9 16  1  0
 16 17  2  0
 17  2  1  0
 17  6  1  0
 15 11  1  0
M  END
>  <energy_score>  (4791) 
-24.776577

>  <alias>  (4791) 
HSERXEMHFRZJGL-UHFFFAOYSA-N-P91-P7-P91-601530

>  <HIPPO Pose ID>  (4791) 
86022

>  <smiles>  (4791) 
Oc1cccc2ccc(NC3(CS)CC3)nc12

>  <inchikey>  (4791) 
HSERXEMHFRZJGL-UHFFFAOYSA-N

>  <distance_score>  (4791) 
0.869022

>  <ref_mols>  (4791) 
Z1688a,Z0089a

>  <ref_pdb>  (4791) 
Z0089a

>  <HIPPO Compound ID>  (4791) 
146162

>  <name>  (4791) 
HSERXEMHFRZJGL-UHFFFAOYSA-N-P91-P7-P91-601530

>  <inspiration_score>  (4791) 
None

$$$$
OGTUYXCZCZZJRB-UHFFFAOYSA-N-P7-P7-P91-601530
     RDKit          3D

 17 20  0  0  0  0  0  0  0  0999 V2000
   -3.7930    6.9964  -16.3408 C   0  0  0  0  0  0  0  0  0  0  0  0
   -4.8678    6.1396  -16.9322 C   0  0  0  0  0  0  0  0  0  0  0  0
   -5.8942    5.6826  -16.0932 C   0  0  0  0  0  0  0  0  0  0  0  0
   -7.0010    5.0223  -16.6369 C   0  0  0  0  0  0  0  0  0  0  0  0
   -8.0988    4.6196  -15.8658 C   0  0  0  0  0  0  0  0  0  0  0  0
   -9.2157    4.0771  -16.4917 C   0  0  0  0  0  0  0  0  0  0  0  0
   -9.2477    3.9224  -17.8696 C   0  0  0  0  0  0  0  0  0  0  0  0
   -8.1325    4.2727  -18.6192 C   0  0  0  0  0  0  0  0  0  0  0  0
   -7.0102    4.8161  -18.0246 C   0  0  0  0  0  0  0  0  0  0  0  0
   -5.9870    5.1578  -18.8071 N   0  0  0  0  0  0  0  0  0  0  0  0
   -4.9338    5.7930  -18.2817 C   0  0  0  0  0  0  0  0  0  0  0  0
   -3.9642    6.0764  -19.2482 N   0  0  0  0  0  0  0  0  0  0  0  0
   -2.6378    5.7054  -19.1301 C   0  0  0  0  0  0  0  0  0  0  0  0
   -1.7880    5.1046  -20.2742 C   0  0  0  0  0  0  0  0  0  0  0  0
   -0.7973    5.1797  -19.0615 C   0  0  0  0  0  0  0  0  0  0  0  0
   -1.4341    6.6021  -18.8138 C   0  0  0  0  0  0  0  0  0  0  0  0
   -2.0284    4.6309  -18.2342 C   0  0  0  0  0  0  0  0  0  0  0  0
  1  2  1  0
  2  3  2  0
  3  4  1  0
  4  5  2  0
  5  6  1  0
  6  7  2  0
  7  8  1  0
  8  9  2  0
  9 10  1  0
 10 11  2  0
 11 12  1  0
 12 13  1  0
 13 14  1  0
 14 15  1  0
 15 16  1  0
 15 17  1  0
 11  2  1  0
 16 13  1  0
  9  4  1  0
 17 13  1  0
M  END
>  <energy_score>  (4792) 
-28.045364

>  <alias>  (4792) 
OGTUYXCZCZZJRB-UHFFFAOYSA-N-P7-P7-P91-601530

>  <HIPPO Pose ID>  (4792) 
86023

>  <smiles>  (4792) 
Cc1cc2ccccc2nc1NC12CC(C1)C2

>  <inchikey>  (4792) 
OGTUYXCZCZZJRB-UHFFFAOYSA-N

>  <distance_score>  (4792) 
1.013257

>  <ref_mols>  (4792) 
Z1688a,Z0089a

>  <ref_pdb>  (4792) 
Z0089a

>  <HIPPO Compound ID>  (4792) 
146163

>  <name>  (4792) 
OGTUYXCZCZZJRB-UHFFFAOYSA-N-P7-P7-P91-601530

>  <inspiration_score>  (4792) 
None

$$$$
NYLSUOOGFIJMDI-UHFFFAOYSA-N-P91-P7-P91-601530
     RDKit          3D

 17 20  0  0  0  0  0  0  0  0999 V2000
   -5.0650    6.0337  -15.0812 C   0  0  0  0  0  0  0  0  0  0  0  0
   -5.4447    5.6433  -16.4767 C   0  0  0  0  0  0  0  0  0  0  0  0
   -4.5282    5.8146  -17.5114 C   0  0  0  0  0  0  0  0  0  0  0  0
   -4.8605    5.4214  -18.7985 C   0  0  0  0  0  0  0  0  0  0  0  0
   -3.9589    5.4933  -19.8554 N   0  0  0  0  0  0  0  0  0  0  0  0
   -2.5874    5.4783  -19.7774 C   0  0  0  0  0  0  0  0  0  0  0  0
   -1.6465    5.0862  -20.9296 C   0  0  0  0  0  0  0  0  0  0  0  0
   -0.6724    5.4620  -19.7505 C   0  0  0  0  0  0  0  0  0  0  0  0
   -1.6592    6.6731  -19.5131 C   0  0  0  0  0  0  0  0  0  0  0  0
   -1.6851    4.6396  -18.8629 C   0  0  0  0  0  0  0  0  0  0  0  0
   -6.0651    4.9373  -19.1084 N   0  0  0  0  0  0  0  0  0  0  0  0
   -6.9687    4.7887  -18.1363 C   0  0  0  0  0  0  0  0  0  0  0  0
   -8.2161    4.3109  -18.4784 C   0  0  0  0  0  0  0  0  0  0  0  0
   -9.1965    4.0824  -17.5186 C   0  0  0  0  0  0  0  0  0  0  0  0
   -8.9220    4.3158  -16.1851 C   0  0  0  0  0  0  0  0  0  0  0  0
   -7.6926    4.8325  -15.8193 C   0  0  0  0  0  0  0  0  0  0  0  0
   -6.7029    5.0935  -16.7858 C   0  0  0  0  0  0  0  0  0  0  0  0
  1  2  1  0
  2  3  2  0
  3  4  1  0
  4  5  1  0
  5  6  1  0
  6  7  1  0
  7  8  1  0
  8  9  1  0
  8 10  1  0
  4 11  2  0
 11 12  1  0
 12 13  2  0
 13 14  1  0
 14 15  2  0
 15 16  1  0
 16 17  2  0
 17  2  1  0
  9  6  1  0
 17 12  1  0
 10  6  1  0
M  END
>  <energy_score>  (4793) 
-31.900168

>  <alias>  (4793) 
NYLSUOOGFIJMDI-UHFFFAOYSA-N-P91-P7-P91-601530

>  <HIPPO Pose ID>  (4793) 
86026

>  <smiles>  (4793) 
Cc1cc(NC23CC(C2)C3)nc2ccccc12

>  <inchikey>  (4793) 
NYLSUOOGFIJMDI-UHFFFAOYSA-N

>  <distance_score>  (4793) 
1.854325

>  <ref_mols>  (4793) 
Z1688a,Z0089a

>  <ref_pdb>  (4793) 
Z0089a

>  <HIPPO Compound ID>  (4793) 
146164

>  <name>  (4793) 
NYLSUOOGFIJMDI-UHFFFAOYSA-N-P91-P7-P91-601530

>  <inspiration_score>  (4793) 
None

$$$$
DJRRNLFMHSQLHQ-UHFFFAOYSA-N-P7-P7-P91-601530
     RDKit          3D

 17 20  0  0  0  0  0  0  0  0999 V2000
   -9.7501    4.2808  -15.3957 O   0  0  0  0  0  0  0  0  0  0  0  0
   -8.7713    4.3618  -16.3192 C   0  0  0  0  0  0  0  0  0  0  0  0
   -9.0331    4.2180  -17.6713 C   0  0  0  0  0  0  0  0  0  0  0  0
   -7.9848    4.3928  -18.5611 C   0  0  0  0  0  0  0  0  0  0  0  0
   -6.7145    4.7117  -18.1161 C   0  0  0  0  0  0  0  0  0  0  0  0
   -5.7599    4.8934  -19.0245 N   0  0  0  0  0  0  0  0  0  0  0  0
   -4.5188    5.1818  -18.6230 C   0  0  0  0  0  0  0  0  0  0  0  0
   -3.6231    5.3068  -19.6736 N   0  0  0  0  0  0  0  0  0  0  0  0
   -2.3542    5.8251  -19.6659 C   0  0  0  0  0  0  0  0  0  0  0  0
   -1.1058    5.2237  -19.0086 C   0  0  0  0  0  0  0  0  0  0  0  0
   -0.5730    6.5294  -19.7237 C   0  0  0  0  0  0  0  0  0  0  0  0
   -1.8931    7.2032  -19.1722 C   0  0  0  0  0  0  0  0  0  0  0  0
   -1.4840    6.0650  -20.9193 C   0  0  0  0  0  0  0  0  0  0  0  0
   -4.1857    5.3182  -17.2842 C   0  0  0  0  0  0  0  0  0  0  0  0
   -5.1766    5.1536  -16.3228 C   0  0  0  0  0  0  0  0  0  0  0  0
   -6.4705    4.8354  -16.7369 C   0  0  0  0  0  0  0  0  0  0  0  0
   -7.5083    4.6429  -15.8333 C   0  0  0  0  0  0  0  0  0  0  0  0
  1  2  1  0
  2  3  2  0
  3  4  1  0
  4  5  2  0
  5  6  1  0
  6  7  2  0
  7  8  1  0
  8  9  1  0
  9 10  1  0
 10 11  1  0
 11 12  1  0
 11 13  1  0
  7 14  1  0
 14 15  2  0
 15 16  1  0
 16 17  2  0
 17  2  1  0
 16  5  1  0
 12  9  1  0
 13  9  1  0
M  END
>  <energy_score>  (4794) 
-34.700981

>  <alias>  (4794) 
DJRRNLFMHSQLHQ-UHFFFAOYSA-N-P7-P7-P91-601530

>  <HIPPO Pose ID>  (4794) 
86027

>  <smiles>  (4794) 
Oc1ccc2nc(NC34CC(C3)C4)ccc2c1

>  <inchikey>  (4794) 
DJRRNLFMHSQLHQ-UHFFFAOYSA-N

>  <distance_score>  (4794) 
1.220293

>  <ref_mols>  (4794) 
Z1688a,Z0089a

>  <ref_pdb>  (4794) 
Z0089a

>  <HIPPO Compound ID>  (4794) 
146165

>  <name>  (4794) 
DJRRNLFMHSQLHQ-UHFFFAOYSA-N-P7-P7-P91-601530

>  <inspiration_score>  (4794) 
None

$$$$
ZKFRLPLDXHQHIH-UHFFFAOYSA-N-P91-P7-P91-601530
     RDKit          3D

 17 19  0  0  0  0  0  0  0  0999 V2000
   -5.0703    5.8791  -14.9469 C   0  0  0  0  0  0  0  0  0  0  0  0
   -5.3999    5.5066  -16.3597 C   0  0  0  0  0  0  0  0  0  0  0  0
   -4.4009    5.5491  -17.3303 C   0  0  0  0  0  0  0  0  0  0  0  0
   -4.6896    5.1891  -18.6367 C   0  0  0  0  0  0  0  0  0  0  0  0
   -3.7402    5.0433  -19.6131 N   0  0  0  0  0  0  0  0  0  0  0  0
   -2.4409    5.6449  -19.5703 C   0  0  1  0  0  0  0  0  0  0  0  0
   -1.5826    4.8991  -20.5357 C   0  0  0  0  0  0  0  0  0  0  0  0
   -1.3563    5.5954  -21.6557 C   0  0  0  0  0  0  0  0  0  0  0  0
   -2.0565    6.9137  -21.6214 C   0  0  0  0  0  0  0  0  0  0  0  0
   -2.4409    7.0606  -20.1455 C   0  0  0  0  0  0  0  0  0  0  0  0
   -5.9253    4.8553  -19.0201 N   0  0  0  0  0  0  0  0  0  0  0  0
   -6.8898    4.7669  -18.0994 C   0  0  0  0  0  0  0  0  0  0  0  0
   -8.1407    4.3480  -18.5027 C   0  0  0  0  0  0  0  0  0  0  0  0
   -9.1685    4.1382  -17.5891 C   0  0  0  0  0  0  0  0  0  0  0  0
   -8.9442    4.3469  -16.2425 C   0  0  0  0  0  0  0  0  0  0  0  0
   -7.7181    4.8241  -15.8181 C   0  0  0  0  0  0  0  0  0  0  0  0
   -6.6749    5.0480  -16.7362 C   0  0  0  0  0  0  0  0  0  0  0  0
  1  2  1  0
  2  3  2  0
  3  4  1  0
  4  5  1  0
  6  5  1  6
  6  7  1  0
  7  8  2  0
  8  9  1  0
  9 10  1  0
  4 11  2  0
 11 12  1  0
 12 13  2  0
 13 14  1  0
 14 15  2  0
 15 16  1  0
 16 17  2  0
 17  2  1  0
 10  6  1  0
 17 12  1  0
M  END
>  <energy_score>  (4795) 
-25.689067

>  <alias>  (4795) 
ZKFRLPLDXHQHIH-UHFFFAOYSA-N-P91-P7-P91-601530

>  <HIPPO Pose ID>  (4795) 
86034

>  <smiles>  (4795) 
Cc1cc(NC2C=CCC2)nc2ccccc12

>  <inchikey>  (4795) 
ZKFRLPLDXHQHIH-UHFFFAOYSA-N

>  <distance_score>  (4795) 
1.778209

>  <ref_mols>  (4795) 
Z1688a,Z0089a

>  <ref_pdb>  (4795) 
Z0089a

>  <HIPPO Compound ID>  (4795) 
146168

>  <name>  (4795) 
ZKFRLPLDXHQHIH-UHFFFAOYSA-N-P91-P7-P91-601530

>  <inspiration_score>  (4795) 
None

$$$$
GSVYIAKQFDFCBO-UHFFFAOYSA-N-P91-P7-P91-601530
     RDKit          3D

 17 18  0  0  0  0  0  0  0  0999 V2000
   -1.4243    3.7157  -19.3974 C   0  0  0  0  0  0  0  0  0  0  0  0
   -1.7825    4.8392  -20.3400 C   0  0  0  0  0  0  0  0  0  0  0  0
   -2.5420    5.9248  -19.5740 C   0  0  1  0  0  0  0  0  0  0  0  0
   -2.2780    7.3247  -20.1449 C   0  0  0  0  0  0  0  0  0  0  0  0
   -2.7394    7.4332  -21.4924 O   0  0  0  0  0  0  0  0  0  0  0  0
   -3.9637    5.6618  -19.6795 N   0  0  0  0  0  0  0  0  0  0  0  0
   -4.8273    5.5042  -18.6370 C   0  0  0  0  0  0  0  0  0  0  0  0
   -4.5513    5.8711  -17.3319 C   0  0  0  0  0  0  0  0  0  0  0  0
   -5.4970    5.6453  -16.3348 C   0  0  0  0  0  0  0  0  0  0  0  0
   -5.1771    6.0123  -14.9185 C   0  0  0  0  0  0  0  0  0  0  0  0
   -6.7321    5.0803  -16.7018 C   0  0  0  0  0  0  0  0  0  0  0  0
   -7.7549    4.7889  -15.7816 C   0  0  0  0  0  0  0  0  0  0  0  0
   -8.9625    4.2702  -16.2102 C   0  0  0  0  0  0  0  0  0  0  0  0
   -9.1815    4.0604  -17.5575 C   0  0  0  0  0  0  0  0  0  0  0  0
   -8.1656    4.3144  -18.4708 C   0  0  0  0  0  0  0  0  0  0  0  0
   -6.9407    4.7992  -18.0659 C   0  0  0  0  0  0  0  0  0  0  0  0
   -6.0040    4.9882  -18.9965 N   0  0  0  0  0  0  0  0  0  0  0  0
  1  2  1  0
  3  2  1  6
  3  4  1  0
  4  5  1  0
  3  6  1  0
  6  7  1  0
  7  8  2  0
  8  9  1  0
  9 10  1  0
  9 11  2  0
 11 12  1  0
 12 13  2  0
 13 14  1  0
 14 15  2  0
 15 16  1  0
 16 17  2  0
 17  7  1  0
 16 11  1  0
M  END
>  <energy_score>  (4796) 
-39.351882

>  <alias>  (4796) 
GSVYIAKQFDFCBO-UHFFFAOYSA-N-P91-P7-P91-601530

>  <HIPPO Pose ID>  (4796) 
86038

>  <smiles>  (4796) 
CCC(CO)Nc1cc(C)c2ccccc2n1

>  <inchikey>  (4796) 
GSVYIAKQFDFCBO-UHFFFAOYSA-N

>  <distance_score>  (4796) 
1.97512

>  <ref_mols>  (4796) 
Z1688a,Z0089a

>  <ref_pdb>  (4796) 
Z0089a

>  <HIPPO Compound ID>  (4796) 
146170

>  <name>  (4796) 
GSVYIAKQFDFCBO-UHFFFAOYSA-N-P91-P7-P91-601530

>  <inspiration_score>  (4796) 
None

$$$$
RTOOURFXHJNHDA-UHFFFAOYSA-N-P7-P7-P91-601530
     RDKit          3D

 17 18  0  0  0  0  0  0  0  0999 V2000
   -3.6966    5.8666  -15.0806 C   0  0  0  0  0  0  0  0  0  0  0  0
   -4.7538    5.4647  -16.0680 C   0  0  0  0  0  0  0  0  0  0  0  0
   -6.0405    5.1512  -15.6158 C   0  0  0  0  0  0  0  0  0  0  0  0
   -7.0281    4.7753  -16.5292 C   0  0  0  0  0  0  0  0  0  0  0  0
   -8.3469    4.4679  -16.1439 C   0  0  0  0  0  0  0  0  0  0  0  0
   -9.3005    4.1576  -17.1108 C   0  0  0  0  0  0  0  0  0  0  0  0
   -8.9377    4.1316  -18.4496 C   0  0  0  0  0  0  0  0  0  0  0  0
   -7.6191    4.3944  -18.8158 C   0  0  0  0  0  0  0  0  0  0  0  0
   -6.6569    4.7241  -17.8834 C   0  0  0  0  0  0  0  0  0  0  0  0
   -5.4196    5.0022  -18.3183 N   0  0  0  0  0  0  0  0  0  0  0  0
   -4.4851    5.3813  -17.4409 C   0  0  0  0  0  0  0  0  0  0  0  0
   -3.2129    5.7559  -17.8976 N   0  0  0  0  0  0  0  0  0  0  0  0
   -2.8921    5.5563  -19.3122 C   0  0  2  0  0  0  0  0  0  0  0  0
   -2.0514    4.2833  -19.4311 C   0  0  0  0  0  0  0  0  0  0  0  0
   -2.1269    6.7756  -19.8767 C   0  0  2  0  0  0  0  0  0  0  0  0
   -0.8145    7.1310  -19.1864 C   0  0  0  0  0  0  0  0  0  0  0  0
   -3.2918    8.3696  -19.8132 Br  0  0  0  0  0  0  0  0  0  0  0  0
  1  2  1  0
  2  3  2  0
  3  4  1  0
  4  5  2  0
  5  6  1  0
  6  7  2  0
  7  8  1  0
  8  9  2  0
  9 10  1  0
 10 11  2  0
 11 12  1  0
 12 13  1  0
 13 14  1  1
 13 15  1  0
 15 16  1  1
 15 17  1  0
 11  2  1  0
  9  4  1  0
M  END
>  <energy_score>  (4797) 
-32.615107

>  <alias>  (4797) 
RTOOURFXHJNHDA-UHFFFAOYSA-N-P7-P7-P91-601530

>  <HIPPO Pose ID>  (4797) 
86043

>  <smiles>  (4797) 
Cc1cc2ccccc2nc1NC(C)C(C)Br

>  <inchikey>  (4797) 
RTOOURFXHJNHDA-UHFFFAOYSA-N

>  <distance_score>  (4797) 
0.910611

>  <ref_mols>  (4797) 
Z1688a,Z0089a

>  <ref_pdb>  (4797) 
Z0089a

>  <HIPPO Compound ID>  (4797) 
146173

>  <name>  (4797) 
RTOOURFXHJNHDA-UHFFFAOYSA-N-P7-P7-P91-601530

>  <inspiration_score>  (4797) 
None

$$$$
LWHAMZVGCDYQSH-UHFFFAOYSA-N-P91-P7-P91-601530
     RDKit          3D

 17 18  0  0  0  0  0  0  0  0999 V2000
   -1.7856    4.3740  -19.2246 C   0  0  0  0  0  0  0  0  0  0  0  0
   -2.1458    5.6802  -18.5190 C   0  0  1  0  0  0  0  0  0  0  0  0
   -1.2405    6.8135  -19.0244 C   0  0  0  0  0  0  0  0  0  0  0  0
   -1.4788    8.1146  -18.2591 C   0  0  0  0  0  0  0  0  0  0  0  0
   -0.3083    9.3994  -18.7959 S   0  0  0  0  0  0  0  0  0  0  0  0
   -3.5106    6.0561  -18.8247 N   0  0  0  0  0  0  0  0  0  0  0  0
   -4.5441    5.5745  -18.0601 C   0  0  0  0  0  0  0  0  0  0  0  0
   -4.6996    5.7425  -16.6937 C   0  0  0  0  0  0  0  0  0  0  0  0
   -5.9203    5.3829  -16.1027 C   0  0  0  0  0  0  0  0  0  0  0  0
   -6.9605    4.8830  -16.9076 C   0  0  0  0  0  0  0  0  0  0  0  0
   -8.2741    4.5835  -16.4718 C   0  0  0  0  0  0  0  0  0  0  0  0
   -9.2170    4.1909  -17.4169 C   0  0  0  0  0  0  0  0  0  0  0  0
  -10.5207    3.9575  -17.1375 O   0  0  0  0  0  0  0  0  0  0  0  0
   -8.8698    4.0303  -18.7410 C   0  0  0  0  0  0  0  0  0  0  0  0
   -7.5752    4.2491  -19.1484 C   0  0  0  0  0  0  0  0  0  0  0  0
   -6.6432    4.7114  -18.2674 C   0  0  0  0  0  0  0  0  0  0  0  0
   -5.4797    5.0221  -18.8139 N   0  0  0  0  0  0  0  0  0  0  0  0
  2  1  1  6
  2  3  1  0
  3  4  1  0
  4  5  1  0
  2  6  1  0
  6  7  1  0
  7  8  2  0
  8  9  1  0
  9 10  2  0
 10 11  1  0
 11 12  2  0
 12 13  1  0
 12 14  1  0
 14 15  2  0
 15 16  1  0
 16 17  2  0
 17  7  1  0
 16 10  1  0
M  END
>  <energy_score>  (4798) 
-39.785308

>  <alias>  (4798) 
LWHAMZVGCDYQSH-UHFFFAOYSA-N-P91-P7-P91-601530

>  <HIPPO Pose ID>  (4798) 
86056

>  <smiles>  (4798) 
CC(CCS)Nc1ccc2cc(O)ccc2n1

>  <inchikey>  (4798) 
LWHAMZVGCDYQSH-UHFFFAOYSA-N

>  <distance_score>  (4798) 
0.922597

>  <ref_mols>  (4798) 
Z1688a,Z0089a

>  <ref_pdb>  (4798) 
Z0089a

>  <HIPPO Compound ID>  (4798) 
146179

>  <name>  (4798) 
LWHAMZVGCDYQSH-UHFFFAOYSA-N-P91-P7-P91-601530

>  <inspiration_score>  (4798) 
None

$$$$
JWINWCRDVCIMRU-UHFFFAOYSA-N-P7-P7-P91-601530
     RDKit          3D

 17 19  0  0  0  0  0  0  0  0999 V2000
   -3.5219    6.2535  -15.8702 C   0  0  0  0  0  0  0  0  0  0  0  0
   -4.6809    5.6731  -16.6204 C   0  0  0  0  0  0  0  0  0  0  0  0
   -5.8327    5.3347  -15.8932 C   0  0  0  0  0  0  0  0  0  0  0  0
   -6.9682    4.8532  -16.5522 C   0  0  0  0  0  0  0  0  0  0  0  0
   -8.1520    4.5132  -15.8825 C   0  0  0  0  0  0  0  0  0  0  0  0
   -9.2597    4.0941  -16.6120 C   0  0  0  0  0  0  0  0  0  0  0  0
   -9.2027    4.0127  -17.9946 C   0  0  0  0  0  0  0  0  0  0  0  0
   -8.0139    4.3173  -18.6450 C   0  0  0  0  0  0  0  0  0  0  0  0
   -6.8958    4.7307  -17.9466 C   0  0  0  0  0  0  0  0  0  0  0  0
   -5.7876    5.0059  -18.6354 N   0  0  0  0  0  0  0  0  0  0  0  0
   -4.6923    5.4383  -17.9955 C   0  0  0  0  0  0  0  0  0  0  0  0
   -3.6465    5.6509  -18.8819 N   0  0  0  0  0  0  0  0  0  0  0  0
   -2.2512    5.5362  -18.6651 C   0  0  1  0  0  0  0  0  0  0  0  0
   -1.5290    4.6352  -19.6843 C   0  0  0  0  0  0  0  0  0  0  0  0
   -0.4458    5.7414  -19.8129 C   0  0  2  0  0  0  0  0  0  0  0  0
    0.7966    5.6045  -18.9459 C   0  0  0  0  0  0  0  0  0  0  0  0
   -1.5036    6.7380  -19.2833 C   0  0  0  0  0  0  0  0  0  0  0  0
  1  2  1  0
  2  3  2  0
  3  4  1  0
  4  5  2  0
  5  6  1  0
  6  7  2  0
  7  8  1  0
  8  9  2  0
  9 10  1  0
 10 11  2  0
 11 12  1  0
 13 12  1  6
 13 14  1  0
 14 15  1  0
 15 16  1  1
 15 17  1  0
 11  2  1  0
 17 13  1  0
  9  4  1  0
M  END
>  <energy_score>  (4799) 
-26.000149

>  <alias>  (4799) 
JWINWCRDVCIMRU-UHFFFAOYSA-N-P7-P7-P91-601530

>  <HIPPO Pose ID>  (4799) 
86059

>  <smiles>  (4799) 
Cc1cc2ccccc2nc1NC1CC(C)C1

>  <inchikey>  (4799) 
JWINWCRDVCIMRU-UHFFFAOYSA-N

>  <distance_score>  (4799) 
0.910988

>  <ref_mols>  (4799) 
Z1688a,Z0089a

>  <ref_pdb>  (4799) 
Z0089a

>  <HIPPO Compound ID>  (4799) 
146181

>  <name>  (4799) 
JWINWCRDVCIMRU-UHFFFAOYSA-N-P7-P7-P91-601530

>  <inspiration_score>  (4799) 
None

$$$$
TZYRCKTXNIREEZ-UHFFFAOYSA-N-P91-P7-P91-601530
     RDKit          3D

 17 19  0  0  0  0  0  0  0  0999 V2000
   -5.1090    5.9435  -14.9837 C   0  0  0  0  0  0  0  0  0  0  0  0
   -5.4485    5.5787  -16.3960 C   0  0  0  0  0  0  0  0  0  0  0  0
   -4.4887    5.7296  -17.3919 C   0  0  0  0  0  0  0  0  0  0  0  0
   -4.7893    5.3711  -18.6977 C   0  0  0  0  0  0  0  0  0  0  0  0
   -3.8357    5.4419  -19.7128 N   0  0  0  0  0  0  0  0  0  0  0  0
   -2.4328    5.3627  -19.5143 C   0  0  1  0  0  0  0  0  0  0  0  0
   -1.6428    5.2652  -20.8285 C   0  0  0  0  0  0  0  0  0  0  0  0
   -0.6653    6.3317  -20.2658 C   0  0  2  0  0  0  0  0  0  0  0  0
    0.6001    5.8358  -19.5849 C   0  0  0  0  0  0  0  0  0  0  0  0
   -1.7982    6.7572  -19.3038 C   0  0  0  0  0  0  0  0  0  0  0  0
   -5.9952    4.9301  -19.0633 N   0  0  0  0  0  0  0  0  0  0  0  0
   -6.9319    4.7816  -18.1221 C   0  0  0  0  0  0  0  0  0  0  0  0
   -8.1730    4.3225  -18.5096 C   0  0  0  0  0  0  0  0  0  0  0  0
   -9.1836    4.0860  -17.5839 C   0  0  0  0  0  0  0  0  0  0  0  0
   -8.9493    4.2987  -16.2397 C   0  0  0  0  0  0  0  0  0  0  0  0
   -7.7285    4.7998  -15.8276 C   0  0  0  0  0  0  0  0  0  0  0  0
   -6.7058    5.0613  -16.7580 C   0  0  0  0  0  0  0  0  0  0  0  0
  1  2  1  0
  2  3  2  0
  3  4  1  0
  4  5  1  0
  6  5  1  6
  6  7  1  0
  7  8  1  0
  8  9  1  1
  8 10  1  0
  4 11  2  0
 11 12  1  0
 12 13  2  0
 13 14  1  0
 14 15  2  0
 15 16  1  0
 16 17  2  0
 17  2  1  0
 10  6  1  0
 17 12  1  0
M  END
>  <energy_score>  (4800) 
-20.762843

>  <alias>  (4800) 
TZYRCKTXNIREEZ-UHFFFAOYSA-N-P91-P7-P91-601530

>  <HIPPO Pose ID>  (4800) 
86062

>  <smiles>  (4800) 
Cc1cc(NC2CC(C)C2)nc2ccccc12

>  <inchikey>  (4800) 
TZYRCKTXNIREEZ-UHFFFAOYSA-N

>  <distance_score>  (4800) 
1.959245

>  <ref_mols>  (4800) 
Z1688a,Z0089a

>  <ref_pdb>  (4800) 
Z0089a

>  <HIPPO Compound ID>  (4800) 
146182

>  <name>  (4800) 
TZYRCKTXNIREEZ-UHFFFAOYSA-N-P91-P7-P91-601530

>  <inspiration_score>  (4800) 
None

$$$$
SVDUXVDUIBJBBL-UHFFFAOYSA-N-P7-P7-P91-601530
     RDKit          3D

 17 19  0  0  0  0  0  0  0  0999 V2000
    0.9442    5.6274  -18.6916 C   0  0  0  0  0  0  0  0  0  0  0  0
   -0.2694    5.8137  -19.5881 C   0  0  1  0  0  0  0  0  0  0  0  0
   -1.3900    4.7452  -19.4913 C   0  0  0  0  0  0  0  0  0  0  0  0
   -2.1202    5.6766  -18.4955 C   0  0  2  0  0  0  0  0  0  0  0  0
   -3.4947    5.8206  -18.7962 N   0  0  0  0  0  0  0  0  0  0  0  0
   -4.5799    5.4411  -18.0300 C   0  0  0  0  0  0  0  0  0  0  0  0
   -4.6867    5.5648  -16.6553 C   0  0  0  0  0  0  0  0  0  0  0  0
   -5.9074    5.2480  -16.0430 C   0  0  0  0  0  0  0  0  0  0  0  0
   -6.9894    4.8149  -16.8309 C   0  0  0  0  0  0  0  0  0  0  0  0
   -8.2838    4.5122  -16.3513 C   0  0  0  0  0  0  0  0  0  0  0  0
   -9.2646    4.1370  -17.2644 C   0  0  0  0  0  0  0  0  0  0  0  0
  -10.5395    3.8630  -16.9086 O   0  0  0  0  0  0  0  0  0  0  0  0
   -8.9886    4.0169  -18.6092 C   0  0  0  0  0  0  0  0  0  0  0  0
   -7.7144    4.2748  -19.0642 C   0  0  0  0  0  0  0  0  0  0  0  0
   -6.7342    4.6968  -18.2087 C   0  0  0  0  0  0  0  0  0  0  0  0
   -5.5772    4.9933  -18.7814 N   0  0  0  0  0  0  0  0  0  0  0  0
   -1.3083    6.8477  -19.0918 C   0  0  0  0  0  0  0  0  0  0  0  0
  2  1  1  1
  2  3  1  0
  3  4  1  0
  4  5  1  6
  5  6  1  0
  6  7  2  0
  7  8  1  0
  8  9  2  0
  9 10  1  0
 10 11  2  0
 11 12  1  0
 11 13  1  0
 13 14  2  0
 14 15  1  0
 15 16  2  0
  4 17  1  0
 17  2  1  0
 16  6  1  0
 15  9  1  0
M  END
>  <energy_score>  (4801) 
-30.639323

>  <alias>  (4801) 
SVDUXVDUIBJBBL-UHFFFAOYSA-N-P7-P7-P91-601530

>  <HIPPO Pose ID>  (4801) 
86063

>  <smiles>  (4801) 
CC1CC(Nc2ccc3cc(O)ccc3n2)C1

>  <inchikey>  (4801) 
SVDUXVDUIBJBBL-UHFFFAOYSA-N

>  <distance_score>  (4801) 
0.916892

>  <ref_mols>  (4801) 
Z1688a,Z0089a

>  <ref_pdb>  (4801) 
Z0089a

>  <HIPPO Compound ID>  (4801) 
146183

>  <name>  (4801) 
SVDUXVDUIBJBBL-UHFFFAOYSA-N-P7-P7-P91-601530

>  <inspiration_score>  (4801) 
None

$$$$
QNUVLBNSFSURIY-UHFFFAOYSA-N-P7-P7-P91-601530
     RDKit          3D

 17 19  0  0  0  0  0  0  0  0999 V2000
  -10.6531    3.9580  -17.2387 O   0  0  0  0  0  0  0  0  0  0  0  0
   -9.3275    4.1722  -17.4409 C   0  0  0  0  0  0  0  0  0  0  0  0
   -8.8781    4.1003  -18.7454 C   0  0  0  0  0  0  0  0  0  0  0  0
   -7.5416    4.3491  -19.0291 C   0  0  0  0  0  0  0  0  0  0  0  0
   -6.6532    4.7069  -18.0447 C   0  0  0  0  0  0  0  0  0  0  0  0
   -5.4058    4.9992  -18.4289 N   0  0  0  0  0  0  0  0  0  0  0  0
   -4.5312    5.4062  -17.5117 C   0  0  0  0  0  0  0  0  0  0  0  0
   -3.2375    5.7959  -17.9139 N   0  0  0  0  0  0  0  0  0  0  0  0
   -2.8258    5.8265  -19.2903 C   0  0  2  0  0  0  0  0  0  0  0  0
   -1.9014    4.6504  -19.6726 C   0  0  0  0  0  0  0  0  0  0  0  0
   -1.0384    5.6701  -20.4445 C   0  0  0  0  0  0  0  0  0  0  0  0
   -1.5905    6.7550  -19.5003 C   0  0  1  0  0  0  0  0  0  0  0  0
   -1.8442    7.9621  -20.0562 F   0  0  0  0  0  0  0  0  0  0  0  0
   -4.8625    5.4727  -16.1612 C   0  0  0  0  0  0  0  0  0  0  0  0
   -6.1575    5.1532  -15.7528 C   0  0  0  0  0  0  0  0  0  0  0  0
   -7.1042    4.7734  -16.7103 C   0  0  0  0  0  0  0  0  0  0  0  0
   -8.4526    4.4814  -16.4058 C   0  0  0  0  0  0  0  0  0  0  0  0
  1  2  1  0
  2  3  2  0
  3  4  1  0
  4  5  2  0
  5  6  1  0
  6  7  2  0
  7  8  1  0
  9  8  1  1
  9 10  1  0
 10 11  1  0
 11 12  1  0
 12 13  1  6
  7 14  1  0
 14 15  2  0
 15 16  1  0
 16 17  2  0
 17  2  1  0
 16  5  1  0
 12  9  1  0
M  END
>  <energy_score>  (4802) 
-17.791621

>  <alias>  (4802) 
QNUVLBNSFSURIY-UHFFFAOYSA-N-P7-P7-P91-601530

>  <HIPPO Pose ID>  (4802) 
86071

>  <smiles>  (4802) 
Oc1ccc2nc(NC3CCC3F)ccc2c1

>  <inchikey>  (4802) 
QNUVLBNSFSURIY-UHFFFAOYSA-N

>  <distance_score>  (4802) 
0.931986

>  <ref_mols>  (4802) 
Z1688a,Z0089a

>  <ref_pdb>  (4802) 
Z0089a

>  <HIPPO Compound ID>  (4802) 
146187

>  <name>  (4802) 
QNUVLBNSFSURIY-UHFFFAOYSA-N-P7-P7-P91-601530

>  <inspiration_score>  (4802) 
None

$$$$
FUPCNXCXJTVSKK-UHFFFAOYSA-N-P91-P7-P91-601530
     RDKit          3D

 17 19  0  0  0  0  0  0  0  0999 V2000
   -6.4105    5.4326  -14.8886 O   0  0  0  0  0  0  0  0  0  0  0  0
   -7.1883    4.9509  -15.9102 C   0  0  0  0  0  0  0  0  0  0  0  0
   -8.4788    4.5372  -15.5771 C   0  0  0  0  0  0  0  0  0  0  0  0
   -9.3240    4.0789  -16.5721 C   0  0  0  0  0  0  0  0  0  0  0  0
   -8.8921    4.0063  -17.8753 C   0  0  0  0  0  0  0  0  0  0  0  0
   -7.5940    4.3909  -18.1794 C   0  0  0  0  0  0  0  0  0  0  0  0
   -7.1907    4.2553  -19.4834 C   0  0  0  0  0  0  0  0  0  0  0  0
   -5.9530    4.7292  -19.8478 C   0  0  0  0  0  0  0  0  0  0  0  0
   -5.0989    5.2417  -18.8889 C   0  0  0  0  0  0  0  0  0  0  0  0
   -3.8563    5.7258  -19.3427 N   0  0  0  0  0  0  0  0  0  0  0  0
   -2.6385    5.5686  -18.6142 C   0  0  1  0  0  0  0  0  0  0  0  0
   -1.7002    4.5431  -19.2997 C   0  0  0  0  0  0  0  0  0  0  0  0
   -0.5392    5.5041  -18.9801 C   0  0  0  0  0  0  0  0  0  0  0  0
   -1.5780    6.6524  -18.9643 C   0  0  2  0  0  0  0  0  0  0  0  0
   -1.3649    7.6169  -18.0391 F   0  0  0  0  0  0  0  0  0  0  0  0
   -5.4418    5.3028  -17.5860 N   0  0  0  0  0  0  0  0  0  0  0  0
   -6.6938    4.9017  -17.2225 C   0  0  0  0  0  0  0  0  0  0  0  0
  1  2  1  0
  2  3  2  0
  3  4  1  0
  4  5  2  0
  5  6  1  0
  6  7  2  0
  7  8  1  0
  8  9  2  0
  9 10  1  0
 11 10  1  6
 11 12  1  0
 12 13  1  0
 13 14  1  0
 14 15  1  1
  9 16  1  0
 16 17  2  0
 17  2  1  0
 17  6  1  0
 14 11  1  0
M  END
>  <energy_score>  (4803) 
-7.218968

>  <alias>  (4803) 
FUPCNXCXJTVSKK-UHFFFAOYSA-N-P91-P7-P91-601530

>  <HIPPO Pose ID>  (4803) 
86074

>  <smiles>  (4803) 
Oc1cccc2ccc(NC3CCC3F)nc12

>  <inchikey>  (4803) 
FUPCNXCXJTVSKK-UHFFFAOYSA-N

>  <distance_score>  (4803) 
0.784336

>  <ref_mols>  (4803) 
Z1688a,Z0089a

>  <ref_pdb>  (4803) 
Z0089a

>  <HIPPO Compound ID>  (4803) 
146188

>  <name>  (4803) 
FUPCNXCXJTVSKK-UHFFFAOYSA-N-P91-P7-P91-601530

>  <inspiration_score>  (4803) 
None

$$$$
YVTQDXVLDBDRAB-UHFFFAOYSA-N-P7-P7-P91-601530
     RDKit          3D

 17 19  0  0  0  0  0  0  0  0999 V2000
   -0.7377    6.1171  -21.7928 C   0  0  0  0  0  0  0  0  0  0  0  0
   -1.2355    5.8855  -20.5755 C   0  0  0  0  0  0  0  0  0  0  0  0
   -1.6414    4.6207  -19.8470 C   0  0  0  0  0  0  0  0  0  0  0  0
   -2.2882    5.5677  -18.8109 C   0  0  0  0  0  0  0  0  0  0  0  0
   -3.7036    5.7022  -18.9630 N   0  0  0  0  0  0  0  0  0  0  0  0
   -4.7164    5.4509  -18.0510 C   0  0  0  0  0  0  0  0  0  0  0  0
   -5.8246    5.0173  -18.6660 N   0  0  0  0  0  0  0  0  0  0  0  0
   -6.9141    4.7302  -17.9528 C   0  0  0  0  0  0  0  0  0  0  0  0
   -8.0484    4.3203  -18.6275 C   0  0  0  0  0  0  0  0  0  0  0  0
   -9.2213    4.0110  -17.9513 C   0  0  0  0  0  0  0  0  0  0  0  0
   -9.2446    4.0840  -16.5670 C   0  0  0  0  0  0  0  0  0  0  0  0
   -8.1190    4.4954  -15.8610 C   0  0  0  0  0  0  0  0  0  0  0  0
   -6.9511    4.8387  -16.5559 C   0  0  0  0  0  0  0  0  0  0  0  0
   -5.7979    5.3096  -15.9201 C   0  0  0  0  0  0  0  0  0  0  0  0
   -4.6659    5.6591  -16.6728 C   0  0  0  0  0  0  0  0  0  0  0  0
   -3.4877    6.2325  -15.9471 C   0  0  0  0  0  0  0  0  0  0  0  0
   -1.5551    6.7934  -19.4070 C   0  0  0  0  0  0  0  0  0  0  0  0
  1  2  2  0
  2  3  1  0
  3  4  1  0
  4  5  1  0
  5  6  1  0
  6  7  2  0
  7  8  1  0
  8  9  2  0
  9 10  1  0
 10 11  2  0
 11 12  1  0
 12 13  2  0
 13 14  1  0
 14 15  2  0
 15 16  1  0
  4 17  1  0
 17  2  1  0
 15  6  1  0
 13  8  1  0
M  END
>  <energy_score>  (4804) 
-20.009984

>  <alias>  (4804) 
YVTQDXVLDBDRAB-UHFFFAOYSA-N-P7-P7-P91-601530

>  <HIPPO Pose ID>  (4804) 
86077

>  <smiles>  (4804) 
C=C1CC(Nc2nc3ccccc3cc2C)C1

>  <inchikey>  (4804) 
YVTQDXVLDBDRAB-UHFFFAOYSA-N

>  <distance_score>  (4804) 
0.92508

>  <ref_mols>  (4804) 
Z1688a,Z0089a

>  <ref_pdb>  (4804) 
Z0089a

>  <HIPPO Compound ID>  (4804) 
146190

>  <name>  (4804) 
YVTQDXVLDBDRAB-UHFFFAOYSA-N-P7-P7-P91-601530

>  <inspiration_score>  (4804) 
None

$$$$
WOHXIMYHEJSCBB-UHFFFAOYSA-N-P91-P7-P91-601530
     RDKit          3D

 17 19  0  0  0  0  0  0  0  0999 V2000
    0.3155    7.0205  -19.2326 C   0  0  0  0  0  0  0  0  0  0  0  0
   -0.8826    6.4331  -19.2659 C   0  0  0  0  0  0  0  0  0  0  0  0
   -1.3367    5.0413  -19.6614 C   0  0  0  0  0  0  0  0  0  0  0  0
   -2.6279    5.4013  -18.8877 C   0  0  0  0  0  0  0  0  0  0  0  0
   -3.8008    5.0606  -19.6370 N   0  0  0  0  0  0  0  0  0  0  0  0
   -5.0876    4.9820  -19.0757 C   0  0  0  0  0  0  0  0  0  0  0  0
   -6.1057    4.4994  -19.8853 C   0  0  0  0  0  0  0  0  0  0  0  0
   -7.3553    4.2321  -19.3564 C   0  0  0  0  0  0  0  0  0  0  0  0
   -7.5644    4.4611  -18.0157 C   0  0  0  0  0  0  0  0  0  0  0  0
   -8.7940    4.1596  -17.4375 C   0  0  0  0  0  0  0  0  0  0  0  0
   -8.9423    4.3165  -16.0690 C   0  0  0  0  0  0  0  0  0  0  0  0
   -7.9102    4.8261  -15.2900 C   0  0  0  0  0  0  0  0  0  0  0  0
   -6.7080    5.1511  -15.8993 C   0  0  0  0  0  0  0  0  0  0  0  0
   -5.6871    5.6626  -15.1339 O   0  0  0  0  0  0  0  0  0  0  0  0
   -6.4920    4.9593  -17.2540 C   0  0  0  0  0  0  0  0  0  0  0  0
   -5.2731    5.2288  -17.7677 N   0  0  0  0  0  0  0  0  0  0  0  0
   -2.2834    6.9081  -18.9334 C   0  0  0  0  0  0  0  0  0  0  0  0
  1  2  2  0
  2  3  1  0
  3  4  1  0
  4  5  1  0
  5  6  1  0
  6  7  2  0
  7  8  1  0
  8  9  2  0
  9 10  1  0
 10 11  2  0
 11 12  1  0
 12 13  2  0
 13 14  1  0
 13 15  1  0
 15 16  2  0
  4 17  1  0
 17  2  1  0
 16  6  1  0
 15  9  1  0
M  END
>  <energy_score>  (4805) 
-25.913484

>  <alias>  (4805) 
WOHXIMYHEJSCBB-UHFFFAOYSA-N-P91-P7-P91-601530

>  <HIPPO Pose ID>  (4805) 
86084

>  <smiles>  (4805) 
C=C1CC(Nc2ccc3cccc(O)c3n2)C1

>  <inchikey>  (4805) 
WOHXIMYHEJSCBB-UHFFFAOYSA-N

>  <distance_score>  (4805) 
1.166514

>  <ref_mols>  (4805) 
Z1688a,Z0089a

>  <ref_pdb>  (4805) 
Z0089a

>  <HIPPO Compound ID>  (4805) 
146193

>  <name>  (4805) 
WOHXIMYHEJSCBB-UHFFFAOYSA-N-P91-P7-P91-601530

>  <inspiration_score>  (4805) 
None

$$$$
GVOKZORGLFPPJI-UHFFFAOYSA-N-P7-P7-P91-601530
     RDKit          3D

 17 18  0  0  0  0  0  0  0  0999 V2000
   -3.5409    6.4111  -15.8653 C   0  0  0  0  0  0  0  0  0  0  0  0
   -4.6686    5.7756  -16.6180 C   0  0  0  0  0  0  0  0  0  0  0  0
   -5.7917    5.3525  -15.8891 C   0  0  0  0  0  0  0  0  0  0  0  0
   -6.9191    4.8576  -16.5519 C   0  0  0  0  0  0  0  0  0  0  0  0
   -8.0969    4.4895  -15.8836 C   0  0  0  0  0  0  0  0  0  0  0  0
   -9.2061    4.0765  -16.6150 C   0  0  0  0  0  0  0  0  0  0  0  0
   -9.1473    4.0081  -17.9985 C   0  0  0  0  0  0  0  0  0  0  0  0
   -7.9618    4.3350  -18.6471 C   0  0  0  0  0  0  0  0  0  0  0  0
   -6.8498    4.7666  -17.9487 C   0  0  0  0  0  0  0  0  0  0  0  0
   -5.7589    5.1097  -18.6393 N   0  0  0  0  0  0  0  0  0  0  0  0
   -4.6903    5.6051  -18.0018 C   0  0  0  0  0  0  0  0  0  0  0  0
   -3.7271    6.0149  -18.9001 N   0  0  0  0  0  0  0  0  0  0  0  0
   -2.3358    5.6019  -18.7662 C   0  0  1  0  0  0  0  0  0  0  0  0
   -2.1344    4.1927  -19.3126 C   0  0  0  0  0  0  0  0  0  0  0  0
   -1.4833    6.5948  -19.5750 C   0  0  0  0  0  0  0  0  0  0  0  0
   -1.4346    7.9937  -18.9792 C   0  0  0  0  0  0  0  0  0  0  0  0
   -0.2056    8.0633  -17.4656 Br  0  0  0  0  0  0  0  0  0  0  0  0
  1  2  1  0
  2  3  2  0
  3  4  1  0
  4  5  2  0
  5  6  1  0
  6  7  2  0
  7  8  1  0
  8  9  2  0
  9 10  1  0
 10 11  2  0
 11 12  1  0
 12 13  1  0
 13 14  1  6
 13 15  1  0
 15 16  1  0
 16 17  1  0
 11  2  1  0
  9  4  1  0
M  END
>  <energy_score>  (4806) 
-29.335224

>  <alias>  (4806) 
GVOKZORGLFPPJI-UHFFFAOYSA-N-P7-P7-P91-601530

>  <HIPPO Pose ID>  (4806) 
86085

>  <smiles>  (4806) 
Cc1cc2ccccc2nc1NC(C)CCBr

>  <inchikey>  (4806) 
GVOKZORGLFPPJI-UHFFFAOYSA-N

>  <distance_score>  (4806) 
0.916792

>  <ref_mols>  (4806) 
Z1688a,Z0089a

>  <ref_pdb>  (4806) 
Z0089a

>  <HIPPO Compound ID>  (4806) 
146194

>  <name>  (4806) 
GVOKZORGLFPPJI-UHFFFAOYSA-N-P7-P7-P91-601530

>  <inspiration_score>  (4806) 
None

$$$$
AVMJMADTBFKFCB-UHFFFAOYSA-N-P7-P7-P91-601530
     RDKit          3D

 17 18  0  0  0  0  0  0  0  0999 V2000
   -1.5991    3.6654  -19.6507 C   0  0  0  0  0  0  0  0  0  0  0  0
   -2.5178    4.8374  -19.8868 C   0  0  0  0  0  0  0  0  0  0  0  0
   -2.6064    5.7622  -18.6716 C   0  0  1  0  0  0  0  0  0  0  0  0
   -1.4567    6.7854  -18.6269 C   0  0  0  0  0  0  0  0  0  0  0  0
   -1.4100    7.9062  -20.0199 Cl  0  0  0  0  0  0  0  0  0  0  0  0
   -3.8887    6.4770  -18.6920 N   0  0  0  0  0  0  0  0  0  0  0  0
   -4.8639    5.9247  -17.8666 C   0  0  0  0  0  0  0  0  0  0  0  0
   -5.8732    5.3757  -18.5476 N   0  0  0  0  0  0  0  0  0  0  0  0
   -6.9267    4.9015  -17.8791 C   0  0  0  0  0  0  0  0  0  0  0  0
   -7.9922    4.4060  -18.6050 C   0  0  0  0  0  0  0  0  0  0  0  0
   -9.1644    3.9949  -17.9829 C   0  0  0  0  0  0  0  0  0  0  0  0
   -9.2482    4.0325  -16.5996 C   0  0  0  0  0  0  0  0  0  0  0  0
   -8.1713    4.4733  -15.8383 C   0  0  0  0  0  0  0  0  0  0  0  0
   -7.0113    4.9304  -16.4772 C   0  0  0  0  0  0  0  0  0  0  0  0
   -5.9258    5.4644  -15.7752 C   0  0  0  0  0  0  0  0  0  0  0  0
   -4.8394    6.0022  -16.4732 C   0  0  0  0  0  0  0  0  0  0  0  0
   -3.7327    6.6647  -15.7109 C   0  0  0  0  0  0  0  0  0  0  0  0
  1  2  1  0
  3  2  1  6
  3  4  1  0
  4  5  1  0
  3  6  1  0
  6  7  1  0
  7  8  2  0
  8  9  1  0
  9 10  2  0
 10 11  1  0
 11 12  2  0
 12 13  1  0
 13 14  2  0
 14 15  1  0
 15 16  2  0
 16 17  1  0
 16  7  1  0
 14  9  1  0
M  END
>  <energy_score>  (4807) 
-17.041302

>  <alias>  (4807) 
AVMJMADTBFKFCB-UHFFFAOYSA-N-P7-P7-P91-601530

>  <HIPPO Pose ID>  (4807) 
86087

>  <smiles>  (4807) 
CCC(CCl)Nc1nc2ccccc2cc1C

>  <inchikey>  (4807) 
AVMJMADTBFKFCB-UHFFFAOYSA-N

>  <distance_score>  (4807) 
0.973993

>  <ref_mols>  (4807) 
Z1688a,Z0089a

>  <ref_pdb>  (4807) 
Z0089a

>  <HIPPO Compound ID>  (4807) 
146195

>  <name>  (4807) 
AVMJMADTBFKFCB-UHFFFAOYSA-N-P7-P7-P91-601530

>  <inspiration_score>  (4807) 
None

$$$$
HIWVSUAZVIDWOC-UHFFFAOYSA-N-P91-P7-P91-601530
     RDKit          3D

 17 18  0  0  0  0  0  0  0  0999 V2000
   -1.7242    4.6695  -20.7168 C   0  0  0  0  0  0  0  0  0  0  0  0
   -1.7568    4.5259  -19.2027 C   0  0  0  0  0  0  0  0  0  0  0  0
   -2.1711    5.7881  -18.4259 C   0  0  1  0  0  0  0  0  0  0  0  0
   -1.3048    7.0169  -18.7399 C   0  0  0  0  0  0  0  0  0  0  0  0
    0.3977    6.7901  -18.2590 Cl  0  0  0  0  0  0  0  0  0  0  0  0
   -3.5491    6.1561  -18.7278 N   0  0  0  0  0  0  0  0  0  0  0  0
   -4.5750    5.6262  -17.9845 C   0  0  0  0  0  0  0  0  0  0  0  0
   -4.7504    5.7688  -16.6181 C   0  0  0  0  0  0  0  0  0  0  0  0
   -5.9728    5.3801  -16.0513 C   0  0  0  0  0  0  0  0  0  0  0  0
   -6.9934    4.8790  -16.8797 C   0  0  0  0  0  0  0  0  0  0  0  0
   -8.3126    4.5702  -16.4695 C   0  0  0  0  0  0  0  0  0  0  0  0
   -9.2403    4.1904  -17.4353 C   0  0  0  0  0  0  0  0  0  0  0  0
  -10.5534    3.9748  -17.1828 O   0  0  0  0  0  0  0  0  0  0  0  0
   -8.8685    4.0387  -18.7543 C   0  0  0  0  0  0  0  0  0  0  0  0
   -7.5660    4.2618  -19.1361 C   0  0  0  0  0  0  0  0  0  0  0  0
   -6.6519    4.7240  -18.2357 C   0  0  0  0  0  0  0  0  0  0  0  0
   -5.4845    5.0585  -18.7598 N   0  0  0  0  0  0  0  0  0  0  0  0
  1  2  1  0
  3  2  1  6
  3  4  1  0
  4  5  1  0
  3  6  1  0
  6  7  1  0
  7  8  2  0
  8  9  1  0
  9 10  2  0
 10 11  1  0
 11 12  2  0
 12 13  1  0
 12 14  1  0
 14 15  2  0
 15 16  1  0
 16 17  2  0
 17  7  1  0
 16 10  1  0
M  END
>  <energy_score>  (4808) 
-21.671018

>  <alias>  (4808) 
HIWVSUAZVIDWOC-UHFFFAOYSA-N-P91-P7-P91-601530

>  <HIPPO Pose ID>  (4808) 
86092

>  <smiles>  (4808) 
CCC(CCl)Nc1ccc2cc(O)ccc2n1

>  <inchikey>  (4808) 
HIWVSUAZVIDWOC-UHFFFAOYSA-N

>  <distance_score>  (4808) 
0.927316

>  <ref_mols>  (4808) 
Z1688a,Z0089a

>  <ref_pdb>  (4808) 
Z0089a

>  <HIPPO Compound ID>  (4808) 
146197

>  <name>  (4808) 
HIWVSUAZVIDWOC-UHFFFAOYSA-N-P91-P7-P91-601530

>  <inspiration_score>  (4808) 
None

$$$$
VTBZSIMTSYNXNJ-UHFFFAOYSA-N-P91-P7-P91-601530
     RDKit          3D

 17 19  0  0  0  0  0  0  0  0999 V2000
   -1.6225    7.7167  -19.0784 C   0  0  0  0  0  0  0  0  0  0  0  0
   -1.5421    6.4470  -19.4873 C   0  0  0  0  0  0  0  0  0  0  0  0
   -0.4882    5.6790  -20.2641 C   0  0  0  0  0  0  0  0  0  0  0  0
   -1.6725    4.7502  -20.6218 C   0  0  0  0  0  0  0  0  0  0  0  0
   -2.4370    5.2267  -19.3729 C   0  0  2  0  0  0  0  0  0  0  0  0
   -3.7998    5.5217  -19.6339 N   0  0  0  0  0  0  0  0  0  0  0  0
   -4.7845    5.4492  -18.6455 C   0  0  0  0  0  0  0  0  0  0  0  0
   -4.5132    5.8088  -17.3335 C   0  0  0  0  0  0  0  0  0  0  0  0
   -5.4855    5.6312  -16.3556 C   0  0  0  0  0  0  0  0  0  0  0  0
   -5.1755    5.9913  -14.9356 C   0  0  0  0  0  0  0  0  0  0  0  0
   -6.7260    5.0910  -16.7427 C   0  0  0  0  0  0  0  0  0  0  0  0
   -7.7593    4.8043  -15.8317 C   0  0  0  0  0  0  0  0  0  0  0  0
   -8.9624    4.2814  -16.2683 C   0  0  0  0  0  0  0  0  0  0  0  0
   -9.1680    4.0695  -17.6171 C   0  0  0  0  0  0  0  0  0  0  0  0
   -8.1466    4.3304  -18.5238 C   0  0  0  0  0  0  0  0  0  0  0  0
   -6.9233    4.8150  -18.1126 C   0  0  0  0  0  0  0  0  0  0  0  0
   -5.9742    4.9880  -19.0367 N   0  0  0  0  0  0  0  0  0  0  0  0
  1  2  2  0
  2  3  1  0
  3  4  1  0
  4  5  1  0
  5  6  1  6
  6  7  1  0
  7  8  2  0
  8  9  1  0
  9 10  1  0
  9 11  2  0
 11 12  1  0
 12 13  2  0
 13 14  1  0
 14 15  2  0
 15 16  1  0
 16 17  2  0
  5  2  1  0
 17  7  1  0
 16 11  1  0
M  END
>  <energy_score>  (4809) 
-21.329004

>  <alias>  (4809) 
VTBZSIMTSYNXNJ-UHFFFAOYSA-N-P91-P7-P91-601530

>  <HIPPO Pose ID>  (4809) 
86096

>  <smiles>  (4809) 
C=C1CCC1Nc1cc(C)c2ccccc2n1

>  <inchikey>  (4809) 
VTBZSIMTSYNXNJ-UHFFFAOYSA-N

>  <distance_score>  (4809) 
1.921852

>  <ref_mols>  (4809) 
Z1688a,Z0089a

>  <ref_pdb>  (4809) 
Z0089a

>  <HIPPO Compound ID>  (4809) 
146199

>  <name>  (4809) 
VTBZSIMTSYNXNJ-UHFFFAOYSA-N-P91-P7-P91-601530

>  <inspiration_score>  (4809) 
None

$$$$
DCWQWMXEQIAUQF-UHFFFAOYSA-N-P91-P7-P91-601530
     RDKit          3D

 17 19  0  0  0  0  0  0  0  0999 V2000
   -2.3868    8.0908  -19.1669 C   0  0  0  0  0  0  0  0  0  0  0  0
   -2.0734    6.8151  -19.4122 C   0  0  0  0  0  0  0  0  0  0  0  0
   -1.0381    6.1630  -20.3046 C   0  0  0  0  0  0  0  0  0  0  0  0
   -1.3622    4.8780  -19.5190 C   0  0  0  0  0  0  0  0  0  0  0  0
   -2.6331    5.5044  -18.9062 C   0  0  2  0  0  0  0  0  0  0  0  0
   -3.7957    5.1187  -19.6290 N   0  0  0  0  0  0  0  0  0  0  0  0
   -5.0782    5.0057  -19.0632 C   0  0  0  0  0  0  0  0  0  0  0  0
   -6.0895    4.5165  -19.8785 C   0  0  0  0  0  0  0  0  0  0  0  0
   -7.3388    4.2339  -19.3567 C   0  0  0  0  0  0  0  0  0  0  0  0
   -7.5569    4.4565  -18.0165 C   0  0  0  0  0  0  0  0  0  0  0  0
   -8.7892    4.1505  -17.4467 C   0  0  0  0  0  0  0  0  0  0  0  0
   -8.9466    4.3046  -16.0789 C   0  0  0  0  0  0  0  0  0  0  0  0
   -7.9201    4.8139  -15.2919 C   0  0  0  0  0  0  0  0  0  0  0  0
   -6.7151    5.1435  -15.8933 C   0  0  0  0  0  0  0  0  0  0  0  0
   -5.7003    5.6593  -15.1226 O   0  0  0  0  0  0  0  0  0  0  0  0
   -6.4909    4.9557  -17.2470 C   0  0  0  0  0  0  0  0  0  0  0  0
   -5.2705    5.2332  -17.7524 N   0  0  0  0  0  0  0  0  0  0  0  0
  1  2  2  0
  2  3  1  0
  3  4  1  0
  4  5  1  0
  5  6  1  6
  6  7  1  0
  7  8  2  0
  8  9  1  0
  9 10  2  0
 10 11  1  0
 11 12  2  0
 12 13  1  0
 13 14  2  0
 14 15  1  0
 14 16  1  0
 16 17  2  0
  5  2  1  0
 17  7  1  0
 16 10  1  0
M  END
>  <energy_score>  (4810) 
-31.21698

>  <alias>  (4810) 
DCWQWMXEQIAUQF-UHFFFAOYSA-N-P91-P7-P91-601530

>  <HIPPO Pose ID>  (4810) 
86100

>  <smiles>  (4810) 
C=C1CCC1Nc1ccc2cccc(O)c2n1

>  <inchikey>  (4810) 
DCWQWMXEQIAUQF-UHFFFAOYSA-N

>  <distance_score>  (4810) 
0.900768

>  <ref_mols>  (4810) 
Z1688a,Z0089a

>  <ref_pdb>  (4810) 
Z0089a

>  <HIPPO Compound ID>  (4810) 
146201

>  <name>  (4810) 
DCWQWMXEQIAUQF-UHFFFAOYSA-N-P91-P7-P91-601530

>  <inspiration_score>  (4810) 
None

$$$$
OZKQHZSCSHSSQP-UHFFFAOYSA-N-P7-P7-P91-601530
     RDKit          3D

 17 18  0  0  0  0  0  0  0  0999 V2000
   -1.6873    4.6089  -19.5452 C   0  0  0  0  0  0  0  0  0  0  0  0
   -2.6366    5.7543  -19.1998 C   0  0  2  0  0  0  0  0  0  0  0  0
   -1.8946    7.0420  -18.8068 C   0  0  0  0  0  0  0  0  0  0  0  0
   -0.9215    7.5779  -19.8467 C   0  0  0  0  0  0  0  0  0  0  0  0
   -1.8470    8.1894  -21.4456 Br  0  0  0  0  0  0  0  0  0  0  0  0
   -3.4741    5.3376  -18.0876 N   0  0  0  0  0  0  0  0  0  0  0  0
   -4.8241    5.0985  -18.1818 C   0  0  0  0  0  0  0  0  0  0  0  0
   -5.4244    4.7497  -19.3711 C   0  0  0  0  0  0  0  0  0  0  0  0
   -6.7669    4.4334  -19.4155 C   0  0  0  0  0  0  0  0  0  0  0  0
   -7.5059    4.4729  -18.2526 C   0  0  0  0  0  0  0  0  0  0  0  0
   -8.8690    4.1560  -18.2643 C   0  0  0  0  0  0  0  0  0  0  0  0
   -9.5770    4.1458  -17.0731 C   0  0  0  0  0  0  0  0  0  0  0  0
   -8.9271    4.4557  -15.8823 C   0  0  0  0  0  0  0  0  0  0  0  0
   -7.5848    4.8095  -15.9024 C   0  0  0  0  0  0  0  0  0  0  0  0
   -7.0017    5.1729  -14.7150 O   0  0  0  0  0  0  0  0  0  0  0  0
   -6.8339    4.8206  -17.0695 C   0  0  0  0  0  0  0  0  0  0  0  0
   -5.5177    5.1474  -17.0307 N   0  0  0  0  0  0  0  0  0  0  0  0
  2  1  1  1
  2  3  1  0
  3  4  1  0
  4  5  1  0
  2  6  1  0
  6  7  1  0
  7  8  2  0
  8  9  1  0
  9 10  2  0
 10 11  1  0
 11 12  2  0
 12 13  1  0
 13 14  2  0
 14 15  1  0
 14 16  1  0
 16 17  2  0
 17  7  1  0
 16 10  1  0
M  END
>  <energy_score>  (4811) 
-32.281276

>  <alias>  (4811) 
OZKQHZSCSHSSQP-UHFFFAOYSA-N-P7-P7-P91-601530

>  <HIPPO Pose ID>  (4811) 
86103

>  <smiles>  (4811) 
CC(CCBr)Nc1ccc2cccc(O)c2n1

>  <inchikey>  (4811) 
OZKQHZSCSHSSQP-UHFFFAOYSA-N

>  <distance_score>  (4811) 
0.924619

>  <ref_mols>  (4811) 
Z1688a,Z0089a

>  <ref_pdb>  (4811) 
Z0089a

>  <HIPPO Compound ID>  (4811) 
146203

>  <name>  (4811) 
OZKQHZSCSHSSQP-UHFFFAOYSA-N-P7-P7-P91-601530

>  <inspiration_score>  (4811) 
None

$$$$
GHPGSNBUJHUBFE-UHFFFAOYSA-N-P91-P7-P91-601530
     RDKit          3D

 17 19  0  0  0  0  0  0  0  0999 V2000
   -0.1957    7.7420  -20.4306 C   0  0  0  0  0  0  0  0  0  0  0  0
   -0.2243    6.4402  -20.1181 C   0  0  0  0  0  0  0  0  0  0  0  0
   -1.1343    5.8113  -19.1568 C   0  0  2  0  0  0  0  0  0  0  0  0
   -1.7535    4.4886  -19.5259 C   0  0  0  0  0  0  0  0  0  0  0  0
   -2.6060    5.7191  -19.4683 C   0  0  1  0  0  0  0  0  0  0  0  0
   -3.5806    5.9156  -18.4135 N   0  0  0  0  0  0  0  0  0  0  0  0
   -4.8597    5.3663  -18.4140 C   0  0  0  0  0  0  0  0  0  0  0  0
   -5.4460    4.8954  -19.5689 C   0  0  0  0  0  0  0  0  0  0  0  0
   -6.7315    4.4043  -19.5104 C   0  0  0  0  0  0  0  0  0  0  0  0
   -7.4408    4.4711  -18.3259 C   0  0  0  0  0  0  0  0  0  0  0  0
   -8.7879    4.1019  -18.3178 C   0  0  0  0  0  0  0  0  0  0  0  0
   -9.4981    4.1211  -17.1331 C   0  0  0  0  0  0  0  0  0  0  0  0
   -8.8507    4.4661  -15.9552 C   0  0  0  0  0  0  0  0  0  0  0  0
   -7.5164    4.8698  -15.9849 C   0  0  0  0  0  0  0  0  0  0  0  0
   -6.9493    5.2412  -14.7909 O   0  0  0  0  0  0  0  0  0  0  0  0
   -6.7773    4.9175  -17.1702 C   0  0  0  0  0  0  0  0  0  0  0  0
   -5.4952    5.3562  -17.2250 N   0  0  0  0  0  0  0  0  0  0  0  0
  1  2  2  0
  3  2  1  6
  3  4  1  0
  4  5  1  0
  5  6  1  1
  6  7  1  0
  7  8  2  0
  8  9  1  0
  9 10  2  0
 10 11  1  0
 11 12  2  0
 12 13  1  0
 13 14  2  0
 14 15  1  0
 14 16  1  0
 16 17  2  0
  5  3  1  0
 17  7  1  0
 16 10  1  0
M  END
>  <energy_score>  (4812) 
-19.255993

>  <alias>  (4812) 
GHPGSNBUJHUBFE-UHFFFAOYSA-N-P91-P7-P91-601530

>  <HIPPO Pose ID>  (4812) 
86106

>  <smiles>  (4812) 
C=CC1CC1Nc1ccc2cccc(O)c2n1

>  <inchikey>  (4812) 
GHPGSNBUJHUBFE-UHFFFAOYSA-N

>  <distance_score>  (4812) 
0.828843

>  <ref_mols>  (4812) 
Z1688a,Z0089a

>  <ref_pdb>  (4812) 
Z0089a

>  <HIPPO Compound ID>  (4812) 
146204

>  <name>  (4812) 
GHPGSNBUJHUBFE-UHFFFAOYSA-N-P91-P7-P91-601530

>  <inspiration_score>  (4812) 
None

$$$$
JOIZCBMEFDIYNR-UHFFFAOYSA-N-P7-P7-P91-601530
     RDKit          3D

 17 18  0  0  0  0  0  0  0  0999 V2000
   -5.4256    6.0343  -14.8017 C   0  0  0  0  0  0  0  0  0  0  0  0
   -5.6299    5.6531  -16.2353 C   0  0  0  0  0  0  0  0  0  0  0  0
   -4.6130    5.8930  -17.1544 C   0  0  0  0  0  0  0  0  0  0  0  0
   -4.7639    5.4915  -18.4720 C   0  0  0  0  0  0  0  0  0  0  0  0
   -3.7580    5.6165  -19.4193 N   0  0  0  0  0  0  0  0  0  0  0  0
   -2.3742    5.4307  -18.9916 C   0  0  1  0  0  0  0  0  0  0  0  0
   -1.6682    4.4293  -19.8902 C   0  0  0  0  0  0  0  0  0  0  0  0
   -1.6997    6.8174  -19.0070 C   0  0  0  0  0  0  0  0  0  0  0  0
   -0.3184    6.8420  -18.3684 C   0  0  0  0  0  0  0  0  0  0  0  0
    1.0957    6.6769  -19.6955 Br  0  0  0  0  0  0  0  0  0  0  0  0
   -5.9061    4.9733  -18.9303 N   0  0  0  0  0  0  0  0  0  0  0  0
   -6.9127    4.7726  -18.0706 C   0  0  0  0  0  0  0  0  0  0  0  0
   -8.0981    4.2659  -18.5596 C   0  0  0  0  0  0  0  0  0  0  0  0
   -9.1751    3.9812  -17.7240 C   0  0  0  0  0  0  0  0  0  0  0  0
   -9.0657    4.1884  -16.3630 C   0  0  0  0  0  0  0  0  0  0  0  0
   -7.9024    4.7343  -15.8494 C   0  0  0  0  0  0  0  0  0  0  0  0
   -6.8179    5.0538  -16.6928 C   0  0  0  0  0  0  0  0  0  0  0  0
  1  2  1  0
  2  3  2  0
  3  4  1  0
  4  5  1  0
  5  6  1  0
  6  7  1  6
  6  8  1  0
  8  9  1  0
  9 10  1  0
  4 11  2  0
 11 12  1  0
 12 13  2  0
 13 14  1  0
 14 15  2  0
 15 16  1  0
 16 17  2  0
 17  2  1  0
 17 12  1  0
M  END
>  <energy_score>  (4813) 
-20.984386

>  <alias>  (4813) 
JOIZCBMEFDIYNR-UHFFFAOYSA-N-P7-P7-P91-601530

>  <HIPPO Pose ID>  (4813) 
86107

>  <smiles>  (4813) 
Cc1cc(NC(C)CCBr)nc2ccccc12

>  <inchikey>  (4813) 
JOIZCBMEFDIYNR-UHFFFAOYSA-N

>  <distance_score>  (4813) 
1.809668

>  <ref_mols>  (4813) 
Z1688a,Z0089a

>  <ref_pdb>  (4813) 
Z0089a

>  <HIPPO Compound ID>  (4813) 
146205

>  <name>  (4813) 
JOIZCBMEFDIYNR-UHFFFAOYSA-N-P7-P7-P91-601530

>  <inspiration_score>  (4813) 
None

$$$$
SBGGYFRJQXODIX-UHFFFAOYSA-N-P7-P7-P91-601530
     RDKit          3D

 17 19  0  0  0  0  0  0  0  0999 V2000
    1.1120    5.9372  -18.2312 C   0  0  0  0  0  0  0  0  0  0  0  0
   -0.1861    6.0422  -17.9178 C   0  0  0  0  0  0  0  0  0  0  0  0
   -1.2882    6.2233  -18.8668 C   0  0  1  0  0  0  0  0  0  0  0  0
   -1.4602    5.2324  -19.9829 C   0  0  0  0  0  0  0  0  0  0  0  0
   -2.4502    5.2571  -18.8603 C   0  0  2  0  0  0  0  0  0  0  0  0
   -3.8068    5.7431  -19.1043 N   0  0  0  0  0  0  0  0  0  0  0  0
   -4.8106    5.5052  -18.1612 C   0  0  0  0  0  0  0  0  0  0  0  0
   -5.9324    5.0499  -18.7330 N   0  0  0  0  0  0  0  0  0  0  0  0
   -6.9863    4.7527  -17.9746 C   0  0  0  0  0  0  0  0  0  0  0  0
   -8.1374    4.3164  -18.6023 C   0  0  0  0  0  0  0  0  0  0  0  0
   -9.2762    3.9927  -17.8778 C   0  0  0  0  0  0  0  0  0  0  0  0
   -9.2447    4.0784  -16.4943 C   0  0  0  0  0  0  0  0  0  0  0  0
   -8.1017    4.5179  -15.8351 C   0  0  0  0  0  0  0  0  0  0  0  0
   -6.9693    4.8757  -16.5770 C   0  0  0  0  0  0  0  0  0  0  0  0
   -5.8017    5.3731  -15.9879 C   0  0  0  0  0  0  0  0  0  0  0  0
   -4.7067    5.7282  -16.7874 C   0  0  0  0  0  0  0  0  0  0  0  0
   -3.4911    6.3050  -16.1319 C   0  0  0  0  0  0  0  0  0  0  0  0
  1  2  2  0
  3  2  1  1
  3  4  1  0
  4  5  1  0
  5  6  1  6
  6  7  1  0
  7  8  2  0
  8  9  1  0
  9 10  2  0
 10 11  1  0
 11 12  2  0
 12 13  1  0
 13 14  2  0
 14 15  1  0
 15 16  2  0
 16 17  1  0
  5  3  1  0
 16  7  1  0
 14  9  1  0
M  END
>  <energy_score>  (4814) 
-22.988789

>  <alias>  (4814) 
SBGGYFRJQXODIX-UHFFFAOYSA-N-P7-P7-P91-601530

>  <HIPPO Pose ID>  (4814) 
86109

>  <smiles>  (4814) 
C=CC1CC1Nc1nc2ccccc2cc1C

>  <inchikey>  (4814) 
SBGGYFRJQXODIX-UHFFFAOYSA-N

>  <distance_score>  (4814) 
0.999409

>  <ref_mols>  (4814) 
Z1688a,Z0089a

>  <ref_pdb>  (4814) 
Z0089a

>  <HIPPO Compound ID>  (4814) 
146206

>  <name>  (4814) 
SBGGYFRJQXODIX-UHFFFAOYSA-N-P7-P7-P91-601530

>  <inspiration_score>  (4814) 
None

$$$$
DIWDXIFYIJOQFK-UHFFFAOYSA-N-P91-P7-P91-601530
     RDKit          3D

 17 19  0  0  0  0  0  0  0  0999 V2000
   -1.0231    8.7263  -19.5977 C   0  0  0  0  0  0  0  0  0  0  0  0
   -1.8763    7.7018  -19.4692 C   0  0  0  0  0  0  0  0  0  0  0  0
   -1.4965    6.2897  -19.3495 C   0  0  2  0  0  0  0  0  0  0  0  0
   -1.4746    5.4651  -20.6083 C   0  0  0  0  0  0  0  0  0  0  0  0
   -2.5012    5.1811  -19.5607 C   0  0  2  0  0  0  0  0  0  0  0  0
   -3.9120    5.4432  -19.8216 N   0  0  0  0  0  0  0  0  0  0  0  0
   -4.8318    5.3654  -18.7705 C   0  0  0  0  0  0  0  0  0  0  0  0
   -4.4911    5.7337  -17.4759 C   0  0  0  0  0  0  0  0  0  0  0  0
   -5.4180    5.5829  -16.4485 C   0  0  0  0  0  0  0  0  0  0  0  0
   -5.0383    5.9613  -15.0498 C   0  0  0  0  0  0  0  0  0  0  0  0
   -6.6868    5.0644  -16.7687 C   0  0  0  0  0  0  0  0  0  0  0  0
   -7.6834    4.8151  -15.8070 C   0  0  0  0  0  0  0  0  0  0  0  0
   -8.9210    4.3234  -16.1795 C   0  0  0  0  0  0  0  0  0  0  0  0
   -9.1972    4.1063  -17.5154 C   0  0  0  0  0  0  0  0  0  0  0  0
   -8.2111    4.3257  -18.4716 C   0  0  0  0  0  0  0  0  0  0  0  0
   -6.9553    4.7764  -18.1231 C   0  0  0  0  0  0  0  0  0  0  0  0
   -6.0464    4.9133  -19.0923 N   0  0  0  0  0  0  0  0  0  0  0  0
  1  2  2  0
  3  2  1  6
  3  4  1  0
  4  5  1  0
  5  6  1  6
  6  7  1  0
  7  8  2  0
  8  9  1  0
  9 10  1  0
  9 11  2  0
 11 12  1  0
 12 13  2  0
 13 14  1  0
 14 15  2  0
 15 16  1  0
 16 17  2  0
  5  3  1  0
 17  7  1  0
 16 11  1  0
M  END
>  <energy_score>  (4815) 
-26.131415

>  <alias>  (4815) 
DIWDXIFYIJOQFK-UHFFFAOYSA-N-P91-P7-P91-601530

>  <HIPPO Pose ID>  (4815) 
86112

>  <smiles>  (4815) 
C=CC1CC1Nc1cc(C)c2ccccc2n1

>  <inchikey>  (4815) 
DIWDXIFYIJOQFK-UHFFFAOYSA-N

>  <distance_score>  (4815) 
1.819615

>  <ref_mols>  (4815) 
Z1688a,Z0089a

>  <ref_pdb>  (4815) 
Z0089a

>  <HIPPO Compound ID>  (4815) 
146207

>  <name>  (4815) 
DIWDXIFYIJOQFK-UHFFFAOYSA-N-P91-P7-P91-601530

>  <inspiration_score>  (4815) 
None

$$$$
WBCLMACCSCKESB-UHFFFAOYSA-N-P91-P7-P91-601530
     RDKit          3D

 17 19  0  0  0  0  0  0  0  0999 V2000
   -1.2650    6.5121  -22.4464 C   0  0  0  0  0  0  0  0  0  0  0  0
   -2.1852    6.4250  -21.4772 C   0  0  0  0  0  0  0  0  0  0  0  0
   -1.9109    6.2088  -20.0528 C   0  0  2  0  0  0  0  0  0  0  0  0
   -1.3607    4.8773  -19.6168 C   0  0  0  0  0  0  0  0  0  0  0  0
   -2.7810    5.2351  -19.2973 C   0  0  1  0  0  0  0  0  0  0  0  0
   -3.1575    5.4755  -17.8989 N   0  0  0  0  0  0  0  0  0  0  0  0
   -4.5019    5.3232  -17.5130 C   0  0  0  0  0  0  0  0  0  0  0  0
   -4.8579    5.4802  -16.1770 C   0  0  0  0  0  0  0  0  0  0  0  0
   -6.1778    5.2405  -15.7818 C   0  0  0  0  0  0  0  0  0  0  0  0
   -7.1237    4.8456  -16.7384 C   0  0  0  0  0  0  0  0  0  0  0  0
   -8.4831    4.5750  -16.4606 C   0  0  0  0  0  0  0  0  0  0  0  0
   -9.3353    4.2520  -17.5126 C   0  0  0  0  0  0  0  0  0  0  0  0
  -10.6674    4.0459  -17.3531 O   0  0  0  0  0  0  0  0  0  0  0  0
   -8.8560    4.1514  -18.8032 C   0  0  0  0  0  0  0  0  0  0  0  0
   -7.5123    4.3542  -19.0576 C   0  0  0  0  0  0  0  0  0  0  0  0
   -6.6521    4.7233  -18.0583 C   0  0  0  0  0  0  0  0  0  0  0  0
   -5.3955    4.9513  -18.4270 N   0  0  0  0  0  0  0  0  0  0  0  0
  1  2  2  0
  3  2  1  6
  3  4  1  0
  4  5  1  0
  5  6  1  1
  6  7  1  0
  7  8  2  0
  8  9  1  0
  9 10  2  0
 10 11  1  0
 11 12  2  0
 12 13  1  0
 12 14  1  0
 14 15  2  0
 15 16  1  0
 16 17  2  0
  5  3  1  0
 17  7  1  0
 16 10  1  0
M  END
>  <energy_score>  (4816) 
-17.421965

>  <alias>  (4816) 
WBCLMACCSCKESB-UHFFFAOYSA-N-P91-P7-P91-601530

>  <HIPPO Pose ID>  (4816) 
86114

>  <smiles>  (4816) 
C=CC1CC1Nc1ccc2cc(O)ccc2n1

>  <inchikey>  (4816) 
WBCLMACCSCKESB-UHFFFAOYSA-N

>  <distance_score>  (4816) 
0.956674

>  <ref_mols>  (4816) 
Z1688a,Z0089a

>  <ref_pdb>  (4816) 
Z0089a

>  <HIPPO Compound ID>  (4816) 
146208

>  <name>  (4816) 
WBCLMACCSCKESB-UHFFFAOYSA-N-P91-P7-P91-601530

>  <inspiration_score>  (4816) 
None

$$$$
RFPGALRSHMPWLP-UHFFFAOYSA-N-P7-P7-P91-601530
     RDKit          3D

 17 19  0  0  0  0  0  0  0  0999 V2000
   -5.4023    5.9849  -14.6954 C   0  0  0  0  0  0  0  0  0  0  0  0
   -5.5050    5.5908  -16.1366 C   0  0  0  0  0  0  0  0  0  0  0  0
   -4.3724    5.6835  -16.9474 C   0  0  0  0  0  0  0  0  0  0  0  0
   -4.4231    5.2770  -18.2753 C   0  0  0  0  0  0  0  0  0  0  0  0
   -3.2578    5.1670  -19.0488 N   0  0  0  0  0  0  0  0  0  0  0  0
   -2.7890    3.8804  -19.1685 N   0  0  0  0  0  0  0  0  0  0  0  0
   -1.5445    3.9495  -19.4905 C   0  0  0  0  0  0  0  0  0  0  0  0
   -0.9946    5.3220  -19.5908 C   0  0  0  0  0  0  0  0  0  0  0  0
   -2.1223    6.0724  -18.8839 C   0  0  1  0  0  0  0  0  0  0  0  0
   -2.3965    7.4203  -19.5172 C   0  0  0  0  0  0  0  0  0  0  0  0
   -5.5870    4.8802  -18.8273 N   0  0  0  0  0  0  0  0  0  0  0  0
   -6.6799    4.7647  -18.0591 C   0  0  0  0  0  0  0  0  0  0  0  0
   -7.8451    4.3019  -18.6352 C   0  0  0  0  0  0  0  0  0  0  0  0
   -8.9962    4.0591  -17.8863 C   0  0  0  0  0  0  0  0  0  0  0  0
   -8.9940    4.2819  -16.5236 C   0  0  0  0  0  0  0  0  0  0  0  0
   -7.8570    4.8032  -15.9286 C   0  0  0  0  0  0  0  0  0  0  0  0
   -6.6898    5.0642  -16.6848 C   0  0  0  0  0  0  0  0  0  0  0  0
  1  2  1  0
  2  3  2  0
  3  4  1  0
  4  5  1  0
  5  6  1  0
  6  7  2  0
  7  8  1  0
  8  9  1  0
  9 10  1  6
  4 11  2  0
 11 12  1  0
 12 13  2  0
 13 14  1  0
 14 15  2  0
 15 16  1  0
 16 17  2  0
 17  2  1  0
  9  5  1  0
 17 12  1  0
M  END
>  <energy_score>  (4817) 
-1.121533

>  <alias>  (4817) 
RFPGALRSHMPWLP-UHFFFAOYSA-N-P7-P7-P91-601530

>  <HIPPO Pose ID>  (4817) 
86117

>  <smiles>  (4817) 
Cc1cc(N2N=CCC2C)nc2ccccc12

>  <inchikey>  (4817) 
RFPGALRSHMPWLP-UHFFFAOYSA-N

>  <distance_score>  (4817) 
1.838248

>  <ref_mols>  (4817) 
Z1688a,Z0089a

>  <ref_pdb>  (4817) 
Z0089a

>  <HIPPO Compound ID>  (4817) 
146210

>  <name>  (4817) 
RFPGALRSHMPWLP-UHFFFAOYSA-N-P7-P7-P91-601530

>  <inspiration_score>  (4817) 
None

$$$$
CJJKNLDHNNLLMT-UHFFFAOYSA-N-P7-P7-P91-601530
     RDKit          3D

 17 19  0  0  0  0  0  0  0  0999 V2000
   -1.9604    4.3873  -19.4387 C   0  0  0  0  0  0  0  0  0  0  0  0
   -2.7621    5.6590  -19.1740 C   0  0  2  0  0  0  0  0  0  0  0  0
   -1.8867    6.8972  -19.3244 C   0  0  0  0  0  0  0  0  0  0  0  0
   -1.6755    7.2417  -17.8888 C   0  0  0  0  0  0  0  0  0  0  0  0
   -2.4134    6.6075  -17.0397 N   0  0  0  0  0  0  0  0  0  0  0  0
   -3.1475    5.7037  -17.7667 N   0  0  0  0  0  0  0  0  0  0  0  0
   -4.4615    5.3993  -17.3881 C   0  0  0  0  0  0  0  0  0  0  0  0
   -4.8604    5.5259  -16.0583 C   0  0  0  0  0  0  0  0  0  0  0  0
   -6.1709    5.2235  -15.6830 C   0  0  0  0  0  0  0  0  0  0  0  0
   -7.0880    4.8162  -16.6559 C   0  0  0  0  0  0  0  0  0  0  0  0
   -8.4431    4.5252  -16.3791 C   0  0  0  0  0  0  0  0  0  0  0  0
   -9.2943    4.1965  -17.4281 C   0  0  0  0  0  0  0  0  0  0  0  0
  -10.6232    3.9776  -17.2502 O   0  0  0  0  0  0  0  0  0  0  0  0
   -8.8164    4.1164  -18.7226 C   0  0  0  0  0  0  0  0  0  0  0  0
   -7.4724    4.3671  -18.9780 C   0  0  0  0  0  0  0  0  0  0  0  0
   -6.6008    4.7236  -17.9740 C   0  0  0  0  0  0  0  0  0  0  0  0
   -5.3329    4.9834  -18.3216 N   0  0  0  0  0  0  0  0  0  0  0  0
  2  1  1  1
  2  3  1  0
  3  4  1  0
  4  5  2  0
  5  6  1  0
  6  7  1  0
  7  8  2  0
  8  9  1  0
  9 10  2  0
 10 11  1  0
 11 12  2  0
 12 13  1  0
 12 14  1  0
 14 15  2  0
 15 16  1  0
 16 17  2  0
  6  2  1  0
 17  7  1  0
 16 10  1  0
M  END
>  <energy_score>  (4818) 
-19.605694

>  <alias>  (4818) 
CJJKNLDHNNLLMT-UHFFFAOYSA-N-P7-P7-P91-601530

>  <HIPPO Pose ID>  (4818) 
86119

>  <smiles>  (4818) 
CC1CC=NN1c1ccc2cc(O)ccc2n1

>  <inchikey>  (4818) 
CJJKNLDHNNLLMT-UHFFFAOYSA-N

>  <distance_score>  (4818) 
0.91807

>  <ref_mols>  (4818) 
Z1688a,Z0089a

>  <ref_pdb>  (4818) 
Z0089a

>  <HIPPO Compound ID>  (4818) 
146211

>  <name>  (4818) 
CJJKNLDHNNLLMT-UHFFFAOYSA-N-P7-P7-P91-601530

>  <inspiration_score>  (4818) 
None

$$$$
JOACOWBEQXYPLN-UHFFFAOYSA-N-P91-P7-P91-601530
     RDKit          3D

 17 19  0  0  0  0  0  0  0  0999 V2000
   -1.8999    4.7234  -19.6808 C   0  0  0  0  0  0  0  0  0  0  0  0
   -2.4752    5.3193  -18.4009 C   0  0  1  0  0  0  0  0  0  0  0  0
   -1.4510    6.2169  -17.7210 C   0  0  0  0  0  0  0  0  0  0  0  0
   -2.2819    7.4186  -17.4662 C   0  0  0  0  0  0  0  0  0  0  0  0
   -3.4551    7.4166  -17.9967 N   0  0  0  0  0  0  0  0  0  0  0  0
   -3.5961    6.2292  -18.6925 N   0  0  0  0  0  0  0  0  0  0  0  0
   -4.8527    5.5813  -18.5040 C   0  0  0  0  0  0  0  0  0  0  0  0
   -5.4264    5.0174  -19.6291 C   0  0  0  0  0  0  0  0  0  0  0  0
   -6.6721    4.4383  -19.5304 C   0  0  0  0  0  0  0  0  0  0  0  0
   -7.3675    4.5048  -18.3366 C   0  0  0  0  0  0  0  0  0  0  0  0
   -8.7002    4.0808  -18.3037 C   0  0  0  0  0  0  0  0  0  0  0  0
   -9.4045    4.1068  -17.1148 C   0  0  0  0  0  0  0  0  0  0  0  0
   -8.7605    4.4994  -15.9516 C   0  0  0  0  0  0  0  0  0  0  0  0
   -7.4403    4.9534  -16.0053 C   0  0  0  0  0  0  0  0  0  0  0  0
   -6.8787    5.3686  -14.8221 O   0  0  0  0  0  0  0  0  0  0  0  0
   -6.7123    5.0159  -17.2014 C   0  0  0  0  0  0  0  0  0  0  0  0
   -5.4577    5.5325  -17.2906 N   0  0  0  0  0  0  0  0  0  0  0  0
  2  1  1  6
  2  3  1  0
  3  4  1  0
  4  5  2  0
  5  6  1  0
  6  7  1  0
  7  8  2  0
  8  9  1  0
  9 10  2  0
 10 11  1  0
 11 12  2  0
 12 13  1  0
 13 14  2  0
 14 15  1  0
 14 16  1  0
 16 17  2  0
  6  2  1  0
 17  7  1  0
 16 10  1  0
M  END
>  <energy_score>  (4819) 
-8.950462

>  <alias>  (4819) 
JOACOWBEQXYPLN-UHFFFAOYSA-N-P91-P7-P91-601530

>  <HIPPO Pose ID>  (4819) 
86122

>  <smiles>  (4819) 
CC1CC=NN1c1ccc2cccc(O)c2n1

>  <inchikey>  (4819) 
JOACOWBEQXYPLN-UHFFFAOYSA-N

>  <distance_score>  (4819) 
0.861457

>  <ref_mols>  (4819) 
Z1688a,Z0089a

>  <ref_pdb>  (4819) 
Z0089a

>  <HIPPO Compound ID>  (4819) 
146212

>  <name>  (4819) 
JOACOWBEQXYPLN-UHFFFAOYSA-N-P91-P7-P91-601530

>  <inspiration_score>  (4819) 
None

$$$$
GPFYGCBPBYFIET-UHFFFAOYSA-N-P7-P7-P91-601530
     RDKit          3D

 17 19  0  0  0  0  0  0  0  0999 V2000
  -10.5752    3.8797  -16.9595 O   0  0  0  0  0  0  0  0  0  0  0  0
   -9.2929    4.1458  -17.2965 C   0  0  0  0  0  0  0  0  0  0  0  0
   -8.9976    4.0196  -18.6367 C   0  0  0  0  0  0  0  0  0  0  0  0
   -7.7170    4.2723  -19.0767 C   0  0  0  0  0  0  0  0  0  0  0  0
   -6.7475    4.6963  -18.2110 C   0  0  0  0  0  0  0  0  0  0  0  0
   -5.5800    4.9790  -18.7699 N   0  0  0  0  0  0  0  0  0  0  0  0
   -4.5883    5.4117  -18.0041 C   0  0  0  0  0  0  0  0  0  0  0  0
   -3.4627    5.7231  -18.7481 N   0  0  0  0  0  0  0  0  0  0  0  0
   -2.1199    5.4735  -18.3793 C   0  0  1  0  0  0  0  0  0  0  0  0
   -1.2966    4.8265  -19.5204 C   0  0  0  0  0  0  0  0  0  0  0  0
   -0.1459    5.7815  -19.1109 C   0  0  1  0  0  0  0  0  0  0  0  0
    0.9649    6.4162  -20.3554 Cl  0  0  0  0  0  0  0  0  0  0  0  0
   -1.2432    6.7293  -18.5702 C   0  0  0  0  0  0  0  0  0  0  0  0
   -4.7194    5.5617  -16.6334 C   0  0  0  0  0  0  0  0  0  0  0  0
   -5.9522    5.2635  -16.0376 C   0  0  0  0  0  0  0  0  0  0  0  0
   -7.0227    4.8250  -16.8375 C   0  0  0  0  0  0  0  0  0  0  0  0
   -8.3236    4.5255  -16.3730 C   0  0  0  0  0  0  0  0  0  0  0  0
  1  2  1  0
  2  3  2  0
  3  4  1  0
  4  5  2  0
  5  6  1  0
  6  7  2  0
  7  8  1  0
  9  8  1  6
  9 10  1  0
 10 11  1  0
 11 12  1  6
 11 13  1  0
  7 14  1  0
 14 15  2  0
 15 16  1  0
 16 17  2  0
 17  2  1  0
 16  5  1  0
 13  9  1  0
M  END
>  <energy_score>  (4820) 
-22.681107

>  <alias>  (4820) 
GPFYGCBPBYFIET-UHFFFAOYSA-N-P7-P7-P91-601530

>  <HIPPO Pose ID>  (4820) 
86137

>  <smiles>  (4820) 
Oc1ccc2nc(NC3CC(Cl)C3)ccc2c1

>  <inchikey>  (4820) 
GPFYGCBPBYFIET-UHFFFAOYSA-N

>  <distance_score>  (4820) 
0.932353

>  <ref_mols>  (4820) 
Z1688a,Z0089a

>  <ref_pdb>  (4820) 
Z0089a

>  <HIPPO Compound ID>  (4820) 
146220

>  <name>  (4820) 
GPFYGCBPBYFIET-UHFFFAOYSA-N-P7-P7-P91-601530

>  <inspiration_score>  (4820) 
None

$$$$
ARLVRZDSTDFIMR-UHFFFAOYSA-N-P91-P7-P91-601530
     RDKit          3D

 17 18  0  0  0  0  0  0  0  0999 V2000
   -1.4381    3.7322  -19.7266 C   0  0  0  0  0  0  0  0  0  0  0  0
   -2.3949    4.8602  -20.0158 C   0  0  0  0  0  0  0  0  0  0  0  0
   -2.5443    5.8319  -18.8347 C   0  0  1  0  0  0  0  0  0  0  0  0
   -1.5133    6.9785  -18.8990 C   0  0  0  0  0  0  0  0  0  0  0  0
    0.2604    6.5862  -17.7399 I   0  0  0  0  0  0  0  0  0  0  0  0
   -3.8719    6.4540  -18.9136 N   0  0  0  0  0  0  0  0  0  0  0  0
   -4.8108    5.9548  -18.0191 C   0  0  0  0  0  0  0  0  0  0  0  0
   -5.8347    5.3671  -18.6416 N   0  0  0  0  0  0  0  0  0  0  0  0
   -6.8716    4.9320  -17.9268 C   0  0  0  0  0  0  0  0  0  0  0  0
   -7.9522    4.4045  -18.6042 C   0  0  0  0  0  0  0  0  0  0  0  0
   -9.0927    4.0000  -17.9277 C   0  0  0  0  0  0  0  0  0  0  0  0
   -9.1301    4.0795  -16.5453 C   0  0  0  0  0  0  0  0  0  0  0  0
   -8.0458    4.5757  -15.8333 C   0  0  0  0  0  0  0  0  0  0  0  0
   -6.9162    5.0248  -16.5258 C   0  0  0  0  0  0  0  0  0  0  0  0
   -5.8185    5.6018  -15.8803 C   0  0  0  0  0  0  0  0  0  0  0  0
   -4.7555    6.1130  -16.6334 C   0  0  0  0  0  0  0  0  0  0  0  0
   -3.6375    6.8163  -15.9268 C   0  0  0  0  0  0  0  0  0  0  0  0
  1  2  1  0
  3  2  1  6
  3  4  1  0
  4  5  1  0
  3  6  1  0
  6  7  1  0
  7  8  2  0
  8  9  1  0
  9 10  2  0
 10 11  1  0
 11 12  2  0
 12 13  1  0
 13 14  2  0
 14 15  1  0
 15 16  2  0
 16 17  1  0
 16  7  1  0
 14  9  1  0
M  END
>  <energy_score>  (4821) 
-20.894211

>  <alias>  (4821) 
ARLVRZDSTDFIMR-UHFFFAOYSA-N-P91-P7-P91-601530

>  <HIPPO Pose ID>  (4821) 
86144

>  <smiles>  (4821) 
CCC(CI)Nc1nc2ccccc2cc1C

>  <inchikey>  (4821) 
ARLVRZDSTDFIMR-UHFFFAOYSA-N

>  <distance_score>  (4821) 
0.982825

>  <ref_mols>  (4821) 
Z1688a,Z0089a

>  <ref_pdb>  (4821) 
Z0089a

>  <HIPPO Compound ID>  (4821) 
146223

>  <name>  (4821) 
ARLVRZDSTDFIMR-UHFFFAOYSA-N-P91-P7-P91-601530

>  <inspiration_score>  (4821) 
None

$$$$
YFYPUUJLJOLEAD-UHFFFAOYSA-N-P91-P7-P91-601530
     RDKit          3D

 17 18  0  0  0  0  0  0  0  0999 V2000
   -1.6435    3.5981  -19.7877 C   0  0  0  0  0  0  0  0  0  0  0  0
   -1.3406    5.0725  -19.9013 C   0  0  0  0  0  0  0  0  0  0  0  0
   -2.2804    5.9175  -19.0353 C   0  0  1  0  0  0  0  0  0  0  0  0
   -1.9773    7.4183  -19.1776 C   0  0  0  0  0  0  0  0  0  0  0  0
   -0.2433    8.0159  -18.0469 I   0  0  0  0  0  0  0  0  0  0  0  0
   -3.6682    5.6988  -19.4090 N   0  0  0  0  0  0  0  0  0  0  0  0
   -4.6736    5.5514  -18.4834 C   0  0  0  0  0  0  0  0  0  0  0  0
   -4.5454    5.9367  -17.1573 C   0  0  0  0  0  0  0  0  0  0  0  0
   -5.5761    5.6954  -16.2542 C   0  0  0  0  0  0  0  0  0  0  0  0
   -5.3940    6.0709  -14.8160 C   0  0  0  0  0  0  0  0  0  0  0  0
   -6.7541    5.0985  -16.7325 C   0  0  0  0  0  0  0  0  0  0  0  0
   -7.8480    4.7795  -15.9040 C   0  0  0  0  0  0  0  0  0  0  0  0
   -8.9957    4.2222  -16.4347 C   0  0  0  0  0  0  0  0  0  0  0  0
   -9.0798    4.0037  -17.7946 C   0  0  0  0  0  0  0  0  0  0  0  0
   -7.9938    4.2885  -18.6162 C   0  0  0  0  0  0  0  0  0  0  0  0
   -6.8230    4.8115  -18.1112 C   0  0  0  0  0  0  0  0  0  0  0  0
   -5.8027    5.0185  -18.9546 N   0  0  0  0  0  0  0  0  0  0  0  0
  1  2  1  0
  3  2  1  6
  3  4  1  0
  4  5  1  0
  3  6  1  0
  6  7  1  0
  7  8  2  0
  8  9  1  0
  9 10  1  0
  9 11  2  0
 11 12  1  0
 12 13  2  0
 13 14  1  0
 14 15  2  0
 15 16  1  0
 16 17  2  0
 17  7  1  0
 16 11  1  0
M  END
>  <energy_score>  (4822) 
-48.19449

>  <alias>  (4822) 
YFYPUUJLJOLEAD-UHFFFAOYSA-N-P91-P7-P91-601530

>  <HIPPO Pose ID>  (4822) 
86146

>  <smiles>  (4822) 
CCC(CI)Nc1cc(C)c2ccccc2n1

>  <inchikey>  (4822) 
YFYPUUJLJOLEAD-UHFFFAOYSA-N

>  <distance_score>  (4822) 
1.962298

>  <ref_mols>  (4822) 
Z1688a,Z0089a

>  <ref_pdb>  (4822) 
Z0089a

>  <HIPPO Compound ID>  (4822) 
146224

>  <name>  (4822) 
YFYPUUJLJOLEAD-UHFFFAOYSA-N-P91-P7-P91-601530

>  <inspiration_score>  (4822) 
None

$$$$
MPGPVAJSACKIMF-UHFFFAOYSA-N-P7-P7-P91-601530
     RDKit          3D

 18 20  0  0  0  0  0  0  0  0999 V2000
   -5.6229    4.8676  -14.1571 O   0  0  0  0  0  0  0  0  0  0  0  0
   -6.7733    5.0905  -14.4797 C   0  0  0  0  0  0  0  0  0  0  0  0
   -7.6109    5.7146  -13.6202 O   0  0  0  0  0  0  0  0  0  0  0  0
   -7.4624    4.7732  -15.7490 C   0  0  0  0  0  0  0  0  0  0  0  0
   -8.8102    4.3801  -15.7042 C   0  0  0  0  0  0  0  0  0  0  0  0
   -9.5009    4.0826  -16.8739 C   0  0  0  0  0  0  0  0  0  0  0  0
   -8.8401    4.1205  -18.0840 C   0  0  0  0  0  0  0  0  0  0  0  0
   -7.4991    4.5006  -18.1148 C   0  0  0  0  0  0  0  0  0  0  0  0
   -6.8578    4.5357  -19.3351 C   0  0  0  0  0  0  0  0  0  0  0  0
   -5.5779    5.0376  -19.4106 C   0  0  0  0  0  0  0  0  0  0  0  0
   -4.9223    5.4148  -18.2659 C   0  0  0  0  0  0  0  0  0  0  0  0
   -3.6388    5.9566  -18.3165 N   0  0  0  0  0  0  0  0  0  0  0  0
   -2.6960    5.8605  -19.3790 C   0  0  0  0  0  0  0  0  0  0  0  0
   -1.7919    4.6181  -19.2818 C   0  0  0  0  0  0  0  0  0  0  0  0
   -0.7562    5.4903  -18.5407 C   0  0  0  0  0  0  0  0  0  0  0  0
   -1.4482    6.7295  -19.1333 C   0  0  0  0  0  0  0  0  0  0  0  0
   -5.5018    5.3308  -17.0571 N   0  0  0  0  0  0  0  0  0  0  0  0
   -6.7760    4.8720  -16.9597 C   0  0  0  0  0  0  0  0  0  0  0  0
  1  2  2  0
  2  3  1  0
  2  4  1  0
  4  5  2  0
  5  6  1  0
  6  7  2  0
  7  8  1  0
  8  9  2  0
  9 10  1  0
 10 11  2  0
 11 12  1  0
 12 13  1  0
 13 14  1  0
 14 15  1  0
 15 16  1  0
 11 17  1  0
 17 18  2  0
 18  4  1  0
 18  8  1  0
 16 13  1  0
M  END
>  <energy_score>  (4823) 
-23.731867

>  <alias>  (4823) 
MPGPVAJSACKIMF-UHFFFAOYSA-N-P7-P7-P91-601530

>  <HIPPO Pose ID>  (4823) 
86151

>  <smiles>  (4823) 
O=C(O)c1cccc2ccc(NC3CCC3)nc12

>  <inchikey>  (4823) 
MPGPVAJSACKIMF-UHFFFAOYSA-N

>  <distance_score>  (4823) 
1.149817

>  <ref_mols>  (4823) 
Z1688a,Z0089a

>  <ref_pdb>  (4823) 
Z0089a

>  <HIPPO Compound ID>  (4823) 
146227

>  <name>  (4823) 
MPGPVAJSACKIMF-UHFFFAOYSA-N-P7-P7-P91-601530

>  <inspiration_score>  (4823) 
None

$$$$
UCTXONHHXMFEKG-UHFFFAOYSA-N-P7-P7-P91-601530
     RDKit          3D

 18 20  0  0  0  0  0  0  0  0999 V2000
   -3.2543    5.3681  -15.8026 C   0  0  0  0  0  0  0  0  0  0  0  0
   -4.5079    5.1775  -16.5985 C   0  0  0  0  0  0  0  0  0  0  0  0
   -5.7203    5.0705  -15.8939 C   0  0  0  0  0  0  0  0  0  0  0  0
   -6.9069    4.7653  -16.5678 C   0  0  0  0  0  0  0  0  0  0  0  0
   -8.1191    4.5072  -15.9094 C   0  0  0  0  0  0  0  0  0  0  0  0
   -9.2468    4.1645  -16.6494 C   0  0  0  0  0  0  0  0  0  0  0  0
   -9.1900    4.1100  -18.0331 C   0  0  0  0  0  0  0  0  0  0  0  0
   -7.9828    4.3611  -18.6726 C   0  0  0  0  0  0  0  0  0  0  0  0
   -6.8393    4.6740  -17.9629 C   0  0  0  0  0  0  0  0  0  0  0  0
   -5.7005    4.8353  -18.6395 N   0  0  0  0  0  0  0  0  0  0  0  0
   -4.5475    5.0279  -17.9839 C   0  0  0  0  0  0  0  0  0  0  0  0
   -3.4962    4.9154  -18.8563 N   0  0  0  0  0  0  0  0  0  0  0  0
   -2.2847    5.7084  -18.8236 C   0  0  0  0  0  0  0  0  0  0  0  0
   -1.2605    5.0520  -19.7462 C   0  0  0  0  0  0  0  0  0  0  0  0
    0.0457    5.8422  -19.7341 C   0  0  0  0  0  0  0  0  0  0  0  0
   -0.1358    7.2123  -19.3597 O   0  0  0  0  0  0  0  0  0  0  0  0
   -1.3212    7.7734  -19.9123 C   0  0  0  0  0  0  0  0  0  0  0  0
   -2.5499    7.1496  -19.2607 C   0  0  0  0  0  0  0  0  0  0  0  0
  1  2  1  0
  2  3  2  0
  3  4  1  0
  4  5  2  0
  5  6  1  0
  6  7  2  0
  7  8  1  0
  8  9  2  0
  9 10  1  0
 10 11  2  0
 11 12  1  0
 12 13  1  0
 13 14  1  0
 14 15  1  0
 15 16  1  0
 16 17  1  0
 17 18  1  0
 11  2  1  0
 18 13  1  0
  9  4  1  0
M  END
>  <energy_score>  (4824) 
-24.664181

>  <alias>  (4824) 
UCTXONHHXMFEKG-UHFFFAOYSA-N-P7-P7-P91-601530

>  <HIPPO Pose ID>  (4824) 
86153

>  <smiles>  (4824) 
Cc1cc2ccccc2nc1NC1CCOCC1

>  <inchikey>  (4824) 
UCTXONHHXMFEKG-UHFFFAOYSA-N

>  <distance_score>  (4824) 
0.96183

>  <ref_mols>  (4824) 
Z1688a,Z0089a

>  <ref_pdb>  (4824) 
Z0089a

>  <HIPPO Compound ID>  (4824) 
146228

>  <name>  (4824) 
UCTXONHHXMFEKG-UHFFFAOYSA-N-P7-P7-P91-601530

>  <inspiration_score>  (4824) 
None

$$$$
ZNXIEGQNCSGLDX-UHFFFAOYSA-N-P91-P7-P91-601530
     RDKit          3D

 18 20  0  0  0  0  0  0  0  0999 V2000
   -2.8498    7.4912  -20.5897 C   0  0  0  0  0  0  0  0  0  0  0  0
   -2.3942    6.7534  -19.3764 C   0  0  2  0  0  0  0  0  0  0  0  0
   -1.7414    5.3919  -19.4391 C   0  0  2  0  0  0  0  0  0  0  0  0
   -1.4954    4.7082  -20.7360 C   0  0  0  0  0  0  0  0  0  0  0  0
   -3.1481    5.5242  -18.9261 C   0  0  1  0  0  0  0  0  0  0  0  0
   -3.4456    5.3464  -17.4935 N   0  0  0  0  0  0  0  0  0  0  0  0
   -4.7954    5.2056  -17.1102 C   0  0  0  0  0  0  0  0  0  0  0  0
   -5.1628    5.2150  -15.7686 C   0  0  0  0  0  0  0  0  0  0  0  0
   -6.5071    4.9951  -15.4109 C   0  0  0  0  0  0  0  0  0  0  0  0
   -6.8300    5.0558  -13.9534 C   0  0  0  0  0  0  0  0  0  0  0  0
   -7.9455    5.1797  -13.4674 O   0  0  0  0  0  0  0  0  0  0  0  0
   -7.4566    4.7264  -16.4165 C   0  0  0  0  0  0  0  0  0  0  0  0
   -8.8288    4.4390  -16.2387 C   0  0  0  0  0  0  0  0  0  0  0  0
   -9.6641    4.2409  -17.3398 C   0  0  0  0  0  0  0  0  0  0  0  0
   -9.1420    4.2909  -18.6181 C   0  0  0  0  0  0  0  0  0  0  0  0
   -7.7869    4.4894  -18.7949 C   0  0  0  0  0  0  0  0  0  0  0  0
   -6.9583    4.7324  -17.7313 C   0  0  0  0  0  0  0  0  0  0  0  0
   -5.6947    4.9705  -18.0569 N   0  0  0  0  0  0  0  0  0  0  0  0
  2  1  1  6
  2  3  1  0
  3  4  1  6
  3  5  1  0
  5  6  1  1
  6  7  1  0
  7  8  2  0
  8  9  1  0
  9 10  1  0
 10 11  2  0
  9 12  2  0
 12 13  1  0
 13 14  2  0
 14 15  1  0
 15 16  2  0
 16 17  1  0
 17 18  2  0
  5  2  1  0
 18  7  1  0
 17 12  1  0
M  END
>  <energy_score>  (4825) 
-17.707429

>  <alias>  (4825) 
ZNXIEGQNCSGLDX-UHFFFAOYSA-N-P91-P7-P91-601530

>  <HIPPO Pose ID>  (4825) 
86178

>  <smiles>  (4825) 
CC1C(C)C1Nc1cc(C=O)c2ccccc2n1

>  <inchikey>  (4825) 
ZNXIEGQNCSGLDX-UHFFFAOYSA-N

>  <distance_score>  (4825) 
1.114007

>  <ref_mols>  (4825) 
Z1688a,Z0089a

>  <ref_pdb>  (4825) 
Z0089a

>  <HIPPO Compound ID>  (4825) 
146240

>  <name>  (4825) 
ZNXIEGQNCSGLDX-UHFFFAOYSA-N-P91-P7-P91-601530

>  <inspiration_score>  (4825) 
None

$$$$
QXUQGBGUZUEOAR-UHFFFAOYSA-N-P91-P7-P91-601530
     RDKit          3D

 18 20  0  0  0  0  0  0  0  0999 V2000
   -3.0315    6.6093  -15.7097 N   0  0  0  0  0  0  0  0  0  0  0  0
   -3.8257    6.1457  -16.4135 C   0  0  0  0  0  0  0  0  0  0  0  0
   -4.9267    5.5718  -17.0881 C   0  0  0  0  0  0  0  0  0  0  0  0
   -6.0104    5.2710  -16.2734 C   0  0  0  0  0  0  0  0  0  0  0  0
   -7.1627    4.7939  -16.8442 C   0  0  0  0  0  0  0  0  0  0  0  0
   -8.2261    4.4701  -16.0172 C   0  0  0  0  0  0  0  0  0  0  0  0
   -9.3844    4.0375  -16.5982 C   0  0  0  0  0  0  0  0  0  0  0  0
   -9.4887    3.9705  -17.9712 C   0  0  0  0  0  0  0  0  0  0  0  0
   -8.3983    4.2487  -18.7856 C   0  0  0  0  0  0  0  0  0  0  0  0
   -7.2064    4.6543  -18.2397 C   0  0  0  0  0  0  0  0  0  0  0  0
   -6.1438    4.9038  -19.0209 N   0  0  0  0  0  0  0  0  0  0  0  0
   -5.0054    5.3359  -18.4546 C   0  0  0  0  0  0  0  0  0  0  0  0
   -3.9663    5.5107  -19.3722 N   0  0  0  0  0  0  0  0  0  0  0  0
   -2.5880    5.2324  -19.1424 C   0  0  1  0  0  0  0  0  0  0  0  0
   -1.8360    4.8285  -20.4308 C   0  0  0  0  0  0  0  0  0  0  0  0
   -0.6697    5.7181  -19.9386 C   0  0  1  0  0  0  0  0  0  0  0  0
    0.3166    6.5953  -21.1423 Cl  0  0  0  0  0  0  0  0  0  0  0  0
   -1.7268    6.5170  -19.1410 C   0  0  0  0  0  0  0  0  0  0  0  0
  1  2  3  0
  2  3  1  0
  3  4  2  0
  4  5  1  0
  5  6  2  0
  6  7  1  0
  7  8  2  0
  8  9  1  0
  9 10  2  0
 10 11  1  0
 11 12  2  0
 12 13  1  0
 14 13  1  6
 14 15  1  0
 15 16  1  0
 16 17  1  6
 16 18  1  0
 12  3  1  0
 18 14  1  0
 10  5  1  0
M  END
>  <energy_score>  (4826) 
-13.12216

>  <alias>  (4826) 
QXUQGBGUZUEOAR-UHFFFAOYSA-N-P91-P7-P91-601530

>  <HIPPO Pose ID>  (4826) 
86180

>  <smiles>  (4826) 
N#Cc1cc2ccccc2nc1NC1CC(Cl)C1

>  <inchikey>  (4826) 
QXUQGBGUZUEOAR-UHFFFAOYSA-N

>  <distance_score>  (4826) 
1.959026

>  <ref_mols>  (4826) 
Z1688a,Z0089a

>  <ref_pdb>  (4826) 
Z0089a

>  <HIPPO Compound ID>  (4826) 
146241

>  <name>  (4826) 
QXUQGBGUZUEOAR-UHFFFAOYSA-N-P91-P7-P91-601530

>  <inspiration_score>  (4826) 
None

$$$$
CRKLKJMEVITKOT-UHFFFAOYSA-N-P91-P7-P91-601530
     RDKit          3D

 18 20  0  0  0  0  0  0  0  0999 V2000
   -0.1764    7.1093  -20.6781 Cl  0  0  0  0  0  0  0  0  0  0  0  0
   -1.5683    6.0509  -20.3148 C   0  0  1  0  0  0  0  0  0  0  0  0
   -1.4731    5.0736  -19.1166 C   0  0  0  0  0  0  0  0  0  0  0  0
   -2.9937    5.2817  -18.9415 C   0  0  1  0  0  0  0  0  0  0  0  0
   -3.3969    5.3920  -17.5660 N   0  0  0  0  0  0  0  0  0  0  0  0
   -4.7507    5.2528  -17.1942 C   0  0  0  0  0  0  0  0  0  0  0  0
   -5.1594    5.4440  -15.8721 C   0  0  0  0  0  0  0  0  0  0  0  0
   -6.5130    5.2699  -15.5065 C   0  0  0  0  0  0  0  0  0  0  0  0
   -6.9689    5.6379  -14.1189 C   0  0  0  0  0  0  0  0  0  0  0  0
   -7.2199    4.1057  -12.9685 Br  0  0  0  0  0  0  0  0  0  0  0  0
   -7.4083    4.8429  -16.5123 C   0  0  0  0  0  0  0  0  0  0  0  0
   -8.7776    4.5562  -16.3185 C   0  0  0  0  0  0  0  0  0  0  0  0
   -9.6036    4.2613  -17.4027 C   0  0  0  0  0  0  0  0  0  0  0  0
   -9.0699    4.2220  -18.6774 C   0  0  0  0  0  0  0  0  0  0  0  0
   -7.7131    4.4111  -18.8655 C   0  0  0  0  0  0  0  0  0  0  0  0
   -6.8882    4.7320  -17.8198 C   0  0  0  0  0  0  0  0  0  0  0  0
   -5.6202    4.9500  -18.1481 N   0  0  0  0  0  0  0  0  0  0  0  0
   -2.7984    6.6640  -19.6047 C   0  0  0  0  0  0  0  0  0  0  0  0
  2  1  1  1
  2  3  1  0
  3  4  1  0
  4  5  1  1
  5  6  1  0
  6  7  2  0
  7  8  1  0
  8  9  1  0
  9 10  1  0
  8 11  2  0
 11 12  1  0
 12 13  2  0
 13 14  1  0
 14 15  2  0
 15 16  1  0
 16 17  2  0
  4 18  1  0
 18  2  1  0
 17  6  1  0
 16 11  1  0
M  END
>  <energy_score>  (4827) 
-25.609917

>  <alias>  (4827) 
CRKLKJMEVITKOT-UHFFFAOYSA-N-P91-P7-P91-601530

>  <HIPPO Pose ID>  (4827) 
86184

>  <smiles>  (4827) 
ClC1CC(Nc2cc(CBr)c3ccccc3n2)C1

>  <inchikey>  (4827) 
CRKLKJMEVITKOT-UHFFFAOYSA-N

>  <distance_score>  (4827) 
1.017332

>  <ref_mols>  (4827) 
Z1688a,Z0089a

>  <ref_pdb>  (4827) 
Z0089a

>  <HIPPO Compound ID>  (4827) 
146243

>  <name>  (4827) 
CRKLKJMEVITKOT-UHFFFAOYSA-N-P91-P7-P91-601530

>  <inspiration_score>  (4827) 
None

$$$$
BBULEPTVYJUENG-UHFFFAOYSA-N-P91-P7-P91-601530
     RDKit          3D

 18 19  0  0  0  0  0  0  0  0999 V2000
   -1.4213    3.8702  -19.3183 C   0  0  0  0  0  0  0  0  0  0  0  0
   -1.8468    5.0378  -20.1761 C   0  0  0  0  0  0  0  0  0  0  0  0
   -2.7635    5.9934  -19.3874 C   0  0  1  0  0  0  0  0  0  0  0  0
   -2.7861    7.3590  -20.0868 C   0  0  0  0  0  0  0  0  0  0  0  0
   -3.8227    8.8834  -18.9739 I   0  0  0  0  0  0  0  0  0  0  0  0
   -4.0784    5.3894  -19.3923 N   0  0  0  0  0  0  0  0  0  0  0  0
   -5.0399    5.2966  -18.4397 C   0  0  0  0  0  0  0  0  0  0  0  0
   -6.1999    4.8986  -18.9896 N   0  0  0  0  0  0  0  0  0  0  0  0
   -7.2595    4.6605  -18.2080 C   0  0  0  0  0  0  0  0  0  0  0  0
   -8.4571    4.2753  -18.7553 C   0  0  0  0  0  0  0  0  0  0  0  0
   -9.5420    3.9923  -17.9385 C   0  0  0  0  0  0  0  0  0  0  0  0
   -9.4202    4.0360  -16.5659 C   0  0  0  0  0  0  0  0  0  0  0  0
   -8.2580    4.4579  -15.9850 C   0  0  0  0  0  0  0  0  0  0  0  0
   -7.2002    4.7840  -16.8151 C   0  0  0  0  0  0  0  0  0  0  0  0
   -6.0321    5.2297  -16.2525 C   0  0  0  0  0  0  0  0  0  0  0  0
   -4.9412    5.5012  -17.0717 C   0  0  0  0  0  0  0  0  0  0  0  0
   -3.8084    5.9723  -16.3713 C   0  0  0  0  0  0  0  0  0  0  0  0
   -2.9853    6.3626  -15.6558 N   0  0  0  0  0  0  0  0  0  0  0  0
  1  2  1  0
  3  2  1  6
  3  4  1  0
  4  5  1  0
  3  6  1  0
  6  7  1  0
  7  8  2  0
  8  9  1  0
  9 10  2  0
 10 11  1  0
 11 12  2  0
 12 13  1  0
 13 14  2  0
 14 15  1  0
 15 16  2  0
 16 17  1  0
 17 18  3  0
 16  7  1  0
 14  9  1  0
M  END
>  <energy_score>  (4828) 
-22.658538

>  <alias>  (4828) 
BBULEPTVYJUENG-UHFFFAOYSA-N-P91-P7-P91-601530

>  <HIPPO Pose ID>  (4828) 
86188

>  <smiles>  (4828) 
CCC(CI)Nc1nc2ccccc2cc1C#N

>  <inchikey>  (4828) 
BBULEPTVYJUENG-UHFFFAOYSA-N

>  <distance_score>  (4828) 
1.982853

>  <ref_mols>  (4828) 
Z1688a,Z0089a

>  <ref_pdb>  (4828) 
Z0089a

>  <HIPPO Compound ID>  (4828) 
146245

>  <name>  (4828) 
BBULEPTVYJUENG-UHFFFAOYSA-N-P91-P7-P91-601530

>  <inspiration_score>  (4828) 
None

$$$$
WEBFIYIIXDZDIB-UHFFFAOYSA-N-P7-P7-P91-601530
     RDKit          3D

 18 20  0  0  0  0  0  0  0  0999 V2000
   -7.4144    5.1491  -13.4888 O   0  0  0  0  0  0  0  0  0  0  0  0
   -6.3895    5.2430  -14.1511 C   0  0  0  0  0  0  0  0  0  0  0  0
   -6.2751    5.1196  -15.6405 C   0  0  0  0  0  0  0  0  0  0  0  0
   -5.0341    5.4560  -16.2252 C   0  0  0  0  0  0  0  0  0  0  0  0
   -4.9086    5.4270  -17.6067 C   0  0  0  0  0  0  0  0  0  0  0  0
   -3.7980    5.8540  -18.3314 N   0  0  0  0  0  0  0  0  0  0  0  0
   -2.4532    5.4068  -18.1398 C   0  0  1  0  0  0  0  0  0  0  0  0
   -1.9614    4.4875  -19.2787 C   0  0  0  0  0  0  0  0  0  0  0  0
   -1.2909    5.6984  -19.9494 C   0  0  1  0  0  0  0  0  0  0  0  0
   -2.1011    6.3661  -21.4171 Cl  0  0  0  0  0  0  0  0  0  0  0  0
   -1.4466    6.4696  -18.6240 C   0  0  0  0  0  0  0  0  0  0  0  0
   -5.9110    5.0614  -18.3903 N   0  0  0  0  0  0  0  0  0  0  0  0
   -7.0717    4.7135  -17.8491 C   0  0  0  0  0  0  0  0  0  0  0  0
   -8.0420    4.3616  -18.7521 C   0  0  0  0  0  0  0  0  0  0  0  0
   -9.3277    4.0728  -18.3434 C   0  0  0  0  0  0  0  0  0  0  0  0
   -9.6276    4.0654  -16.9974 C   0  0  0  0  0  0  0  0  0  0  0  0
   -8.6485    4.3665  -16.0553 C   0  0  0  0  0  0  0  0  0  0  0  0
   -7.3467    4.7270  -16.4677 C   0  0  0  0  0  0  0  0  0  0  0  0
  1  2  2  0
  2  3  1  0
  3  4  2  0
  4  5  1  0
  5  6  1  0
  7  6  1  6
  7  8  1  0
  8  9  1  0
  9 10  1  6
  9 11  1  0
  5 12  2  0
 12 13  1  0
 13 14  2  0
 14 15  1  0
 15 16  2  0
 16 17  1  0
 17 18  2  0
 18  3  1  0
 11  7  1  0
 18 13  1  0
M  END
>  <energy_score>  (4829) 
-15.294628

>  <alias>  (4829) 
WEBFIYIIXDZDIB-UHFFFAOYSA-N-P7-P7-P91-601530

>  <HIPPO Pose ID>  (4829) 
86189

>  <smiles>  (4829) 
O=Cc1cc(NC2CC(Cl)C2)nc2ccccc12

>  <inchikey>  (4829) 
WEBFIYIIXDZDIB-UHFFFAOYSA-N

>  <distance_score>  (4829) 
1.124992

>  <ref_mols>  (4829) 
Z1688a,Z0089a

>  <ref_pdb>  (4829) 
Z0089a

>  <HIPPO Compound ID>  (4829) 
146246

>  <name>  (4829) 
WEBFIYIIXDZDIB-UHFFFAOYSA-N-P7-P7-P91-601530

>  <inspiration_score>  (4829) 
None

$$$$
ZMAITHZRJKISJT-UHFFFAOYSA-N-P7-P7-P91-601530
     RDKit          3D

 18 20  0  0  0  0  0  0  0  0999 V2000
   -2.2432    4.4708  -19.1503 C   0  0  0  0  0  0  0  0  0  0  0  0
   -3.0526    5.7303  -18.8515 C   0  0  2  0  0  0  0  0  0  0  0  0
   -2.1804    6.9747  -18.9722 C   0  0  0  0  0  0  0  0  0  0  0  0
   -2.0197    7.3226  -17.5312 C   0  0  0  0  0  0  0  0  0  0  0  0
   -2.7655    6.6731  -16.7005 N   0  0  0  0  0  0  0  0  0  0  0  0
   -3.4566    5.7468  -17.4419 N   0  0  0  0  0  0  0  0  0  0  0  0
   -4.7780    5.4210  -17.0963 C   0  0  0  0  0  0  0  0  0  0  0  0
   -5.2500    5.5875  -15.7877 C   0  0  0  0  0  0  0  0  0  0  0  0
   -6.5892    5.3046  -15.4433 C   0  0  0  0  0  0  0  0  0  0  0  0
   -7.0829    5.6480  -14.0627 C   0  0  0  0  0  0  0  0  0  0  0  0
   -7.2746    4.0990  -12.9221 Br  0  0  0  0  0  0  0  0  0  0  0  0
   -7.4317    4.8145  -16.4620 C   0  0  0  0  0  0  0  0  0  0  0  0
   -8.7940    4.4797  -16.2881 C   0  0  0  0  0  0  0  0  0  0  0  0
   -9.5913    4.1364  -17.3785 C   0  0  0  0  0  0  0  0  0  0  0  0
   -9.0336    4.0945  -18.6439 C   0  0  0  0  0  0  0  0  0  0  0  0
   -7.6789    4.3515  -18.8129 C   0  0  0  0  0  0  0  0  0  0  0  0
   -6.8730    4.7055  -17.7551 C   0  0  0  0  0  0  0  0  0  0  0  0
   -5.6003    4.9780  -18.0538 N   0  0  0  0  0  0  0  0  0  0  0  0
  2  1  1  1
  2  3  1  0
  3  4  1  0
  4  5  2  0
  5  6  1  0
  6  7  1  0
  7  8  2  0
  8  9  1  0
  9 10  1  0
 10 11  1  0
  9 12  2  0
 12 13  1  0
 13 14  2  0
 14 15  1  0
 15 16  2  0
 16 17  1  0
 17 18  2  0
  6  2  1  0
 18  7  1  0
 17 12  1  0
M  END
>  <energy_score>  (4830) 
-22.603234

>  <alias>  (4830) 
ZMAITHZRJKISJT-UHFFFAOYSA-N-P7-P7-P91-601530

>  <HIPPO Pose ID>  (4830) 
86197

>  <smiles>  (4830) 
CC1CC=NN1c1cc(CBr)c2ccccc2n1

>  <inchikey>  (4830) 
ZMAITHZRJKISJT-UHFFFAOYSA-N

>  <distance_score>  (4830) 
0.999983

>  <ref_mols>  (4830) 
Z1688a,Z0089a

>  <ref_pdb>  (4830) 
Z0089a

>  <HIPPO Compound ID>  (4830) 
146250

>  <name>  (4830) 
ZMAITHZRJKISJT-UHFFFAOYSA-N-P7-P7-P91-601530

>  <inspiration_score>  (4830) 
None

$$$$
OKPAEUPTFOBKSP-UHFFFAOYSA-N-P7-P7-P91-601530
     RDKit          3D

 18 20  0  0  0  0  0  0  0  0999 V2000
   -1.7856    3.6828  -19.3579 C   0  0  0  0  0  0  0  0  0  0  0  0
   -2.0930    4.9669  -18.6037 C   0  0  1  0  0  0  0  0  0  0  0  0
   -1.0925    6.0568  -18.9792 C   0  0  0  0  0  0  0  0  0  0  0  0
   -1.8506    6.7073  -20.0855 C   0  0  0  0  0  0  0  0  0  0  0  0
   -3.1098    6.4202  -20.1339 N   0  0  0  0  0  0  0  0  0  0  0  0
   -3.3253    5.5199  -19.1163 N   0  0  0  0  0  0  0  0  0  0  0  0
   -4.5640    5.3397  -18.4981 C   0  0  0  0  0  0  0  0  0  0  0  0
   -4.7590    4.5063  -17.4651 N   0  0  0  0  0  0  0  0  0  0  0  0
   -6.0123    4.4094  -16.9408 C   0  0  0  0  0  0  0  0  0  0  0  0
   -6.2293    3.9770  -15.6421 C   0  0  0  0  0  0  0  0  0  0  0  0
   -7.5175    3.8305  -15.1128 C   0  0  0  0  0  0  0  0  0  0  0  0
   -8.6278    4.0639  -15.9136 C   0  0  0  0  0  0  0  0  0  0  0  0
   -8.4469    4.5381  -17.1998 C   0  0  0  0  0  0  0  0  0  0  0  0
   -7.1445    4.8290  -17.6357 C   0  0  0  0  0  0  0  0  0  0  0  0
   -6.8977    5.7371  -18.6383 C   0  0  0  0  0  0  0  0  0  0  0  0
   -5.5938    6.2002  -18.7891 C   0  0  0  0  0  0  0  0  0  0  0  0
   -5.2996    7.6559  -18.5557 C   0  0  0  0  0  0  0  0  0  0  0  0
   -4.8502    7.9156  -16.6354 Br  0  0  0  0  0  0  0  0  0  0  0  0
  2  1  1  6
  2  3  1  0
  3  4  1  0
  4  5  2  0
  5  6  1  0
  6  7  1  0
  7  8  2  0
  8  9  1  0
  9 10  2  0
 10 11  1  0
 11 12  2  0
 12 13  1  0
 13 14  2  0
 14 15  1  0
 15 16  2  0
 16 17  1  0
 17 18  1  0
  6  2  1  0
 16  7  1  0
 14  9  1  0
M  END
>  <energy_score>  (4831) 
-2.959308

>  <alias>  (4831) 
OKPAEUPTFOBKSP-UHFFFAOYSA-N-P7-P7-P91-601530

>  <HIPPO Pose ID>  (4831) 
86199

>  <smiles>  (4831) 
CC1CC=NN1c1nc2ccccc2cc1CBr

>  <inchikey>  (4831) 
OKPAEUPTFOBKSP-UHFFFAOYSA-N

>  <distance_score>  (4831) 
1.883164

>  <ref_mols>  (4831) 
Z1688a,Z0089a

>  <ref_pdb>  (4831) 
Z0089a

>  <HIPPO Compound ID>  (4831) 
146251

>  <name>  (4831) 
OKPAEUPTFOBKSP-UHFFFAOYSA-N-P7-P7-P91-601530

>  <inspiration_score>  (4831) 
None

$$$$
OTFCXZZWDFIBDT-UHFFFAOYSA-N-P7-P7-P91-601530
     RDKit          3D

 18 19  0  0  0  0  0  0  0  0999 V2000
   -2.3560    3.7841  -18.7222 C   0  0  0  0  0  0  0  0  0  0  0  0
   -2.0382    5.1458  -19.2781 C   0  0  0  0  0  0  0  0  0  0  0  0
   -3.2315    6.0910  -19.0466 C   0  0  2  0  0  0  0  0  0  0  0  0
   -2.8761    7.5251  -19.4710 C   0  0  0  0  0  0  0  0  0  0  0  0
   -2.8203    7.7722  -21.6057 I   0  0  0  0  0  0  0  0  0  0  0  0
   -3.5673    6.0791  -17.6059 N   0  0  0  0  0  0  0  0  0  0  0  0
   -4.8419    5.6693  -17.2089 C   0  0  0  0  0  0  0  0  0  0  0  0
   -5.1815    5.6623  -15.8590 C   0  0  0  0  0  0  0  0  0  0  0  0
   -6.4632    5.2438  -15.4508 C   0  0  0  0  0  0  0  0  0  0  0  0
   -6.7475    5.3050  -13.9830 C   0  0  0  0  0  0  0  0  0  0  0  0
   -7.8408    5.1767  -13.4503 O   0  0  0  0  0  0  0  0  0  0  0  0
   -7.3921    4.8201  -16.4194 C   0  0  0  0  0  0  0  0  0  0  0  0
   -8.7280    4.4116  -16.1875 C   0  0  0  0  0  0  0  0  0  0  0  0
   -9.5717    4.0936  -17.2508 C   0  0  0  0  0  0  0  0  0  0  0  0
   -9.0830    4.1145  -18.5442 C   0  0  0  0  0  0  0  0  0  0  0  0
   -7.7575    4.4523  -18.7728 C   0  0  0  0  0  0  0  0  0  0  0  0
   -6.9233    4.8328  -17.7485 C   0  0  0  0  0  0  0  0  0  0  0  0
   -5.7034    5.2326  -18.1177 N   0  0  0  0  0  0  0  0  0  0  0  0
  1  2  1  0
  3  2  1  1
  3  4  1  0
  4  5  1  0
  3  6  1  0
  6  7  1  0
  7  8  2  0
  8  9  1  0
  9 10  1  0
 10 11  2  0
  9 12  2  0
 12 13  1  0
 13 14  2  0
 14 15  1  0
 15 16  2  0
 16 17  1  0
 17 18  2  0
 18  7  1  0
 17 12  1  0
M  END
>  <energy_score>  (4832) 
-20.464931

>  <alias>  (4832) 
OTFCXZZWDFIBDT-UHFFFAOYSA-N-P7-P7-P91-601530

>  <HIPPO Pose ID>  (4832) 
86207

>  <smiles>  (4832) 
CCC(CI)Nc1cc(C=O)c2ccccc2n1

>  <inchikey>  (4832) 
OTFCXZZWDFIBDT-UHFFFAOYSA-N

>  <distance_score>  (4832) 
1.094727

>  <ref_mols>  (4832) 
Z1688a,Z0089a

>  <ref_pdb>  (4832) 
Z0089a

>  <HIPPO Compound ID>  (4832) 
146255

>  <name>  (4832) 
OTFCXZZWDFIBDT-UHFFFAOYSA-N-P7-P7-P91-601530

>  <inspiration_score>  (4832) 
None

$$$$
LNBKGJOUKSKNIU-UHFFFAOYSA-N-P7-P7-P91-601530
     RDKit          3D

 18 20  0  0  0  0  0  0  0  0999 V2000
    0.4000    6.6513  -17.4864 C   0  0  0  0  0  0  0  0  0  0  0  0
   -0.0552    5.8670  -18.4715 C   0  0  0  0  0  0  0  0  0  0  0  0
   -1.4240    5.8536  -18.9936 C   0  0  1  0  0  0  0  0  0  0  0  0
   -2.0711    4.5193  -19.2496 C   0  0  0  0  0  0  0  0  0  0  0  0
   -2.5640    5.3796  -18.1184 C   0  0  2  0  0  0  0  0  0  0  0  0
   -3.8584    6.0696  -18.2303 N   0  0  0  0  0  0  0  0  0  0  0  0
   -4.9639    5.5531  -17.5454 C   0  0  0  0  0  0  0  0  0  0  0  0
   -5.1694    5.6702  -16.1721 C   0  0  0  0  0  0  0  0  0  0  0  0
   -6.4269    5.3301  -15.6154 C   0  0  0  0  0  0  0  0  0  0  0  0
   -6.7293    5.6817  -14.1787 C   0  0  0  0  0  0  0  0  0  0  0  0
   -6.9829    4.1433  -13.0314 Br  0  0  0  0  0  0  0  0  0  0  0  0
   -7.4126    4.8212  -16.4944 C   0  0  0  0  0  0  0  0  0  0  0  0
   -8.7305    4.4732  -16.1307 C   0  0  0  0  0  0  0  0  0  0  0  0
   -9.6547    4.0942  -17.1002 C   0  0  0  0  0  0  0  0  0  0  0  0
   -9.2790    4.0233  -18.4259 C   0  0  0  0  0  0  0  0  0  0  0  0
   -7.9774    4.3033  -18.7885 C   0  0  0  0  0  0  0  0  0  0  0  0
   -7.0602    4.7172  -17.8590 C   0  0  0  0  0  0  0  0  0  0  0  0
   -5.8885    5.0724  -18.3636 N   0  0  0  0  0  0  0  0  0  0  0  0
  1  2  2  0
  3  2  1  1
  3  4  1  0
  4  5  1  0
  5  6  1  6
  6  7  1  0
  7  8  2  0
  8  9  1  0
  9 10  1  0
 10 11  1  0
  9 12  2  0
 12 13  1  0
 13 14  2  0
 14 15  1  0
 15 16  2  0
 16 17  1  0
 17 18  2  0
  5  3  1  0
 18  7  1  0
 17 12  1  0
M  END
>  <energy_score>  (4833) 
-22.364183

>  <alias>  (4833) 
LNBKGJOUKSKNIU-UHFFFAOYSA-N-P7-P7-P91-601530

>  <HIPPO Pose ID>  (4833) 
86211

>  <smiles>  (4833) 
C=CC1CC1Nc1cc(CBr)c2ccccc2n1

>  <inchikey>  (4833) 
LNBKGJOUKSKNIU-UHFFFAOYSA-N

>  <distance_score>  (4833) 
1.014324

>  <ref_mols>  (4833) 
Z1688a,Z0089a

>  <ref_pdb>  (4833) 
Z0089a

>  <HIPPO Compound ID>  (4833) 
146257

>  <name>  (4833) 
LNBKGJOUKSKNIU-UHFFFAOYSA-N-P7-P7-P91-601530

>  <inspiration_score>  (4833) 
None

$$$$
LCQCDHVRINZDNQ-UHFFFAOYSA-N-P91-P7-P91-601530
     RDKit          3D

 18 20  0  0  0  0  0  0  0  0999 V2000
   -1.6808    7.7395  -19.0323 C   0  0  0  0  0  0  0  0  0  0  0  0
   -1.6380    6.4289  -19.2907 C   0  0  0  0  0  0  0  0  0  0  0  0
   -0.6230    5.5561  -20.0029 C   0  0  0  0  0  0  0  0  0  0  0  0
   -1.8057    4.5743  -20.1503 C   0  0  0  0  0  0  0  0  0  0  0  0
   -2.5455    5.2564  -18.9775 C   0  0  2  0  0  0  0  0  0  0  0  0
   -3.9071    5.5554  -19.2635 N   0  0  0  0  0  0  0  0  0  0  0  0
   -4.9752    5.3669  -18.3837 C   0  0  0  0  0  0  0  0  0  0  0  0
   -6.0948    4.9219  -18.9794 N   0  0  0  0  0  0  0  0  0  0  0  0
   -7.1727    4.6612  -18.2220 C   0  0  0  0  0  0  0  0  0  0  0  0
   -8.3472    4.2447  -18.7950 C   0  0  0  0  0  0  0  0  0  0  0  0
   -9.4553    3.9627  -18.0059 C   0  0  0  0  0  0  0  0  0  0  0  0
   -9.3886    4.0341  -16.6311 C   0  0  0  0  0  0  0  0  0  0  0  0
   -8.2468    4.4720  -16.0231 C   0  0  0  0  0  0  0  0  0  0  0  0
   -7.1660    4.8019  -16.8253 C   0  0  0  0  0  0  0  0  0  0  0  0
   -6.0348    5.2932  -16.2269 C   0  0  0  0  0  0  0  0  0  0  0  0
   -4.9366    5.6100  -17.0154 C   0  0  0  0  0  0  0  0  0  0  0  0
   -3.8713    6.2234  -16.3158 C   0  0  0  0  0  0  0  0  0  0  0  0
   -3.1272    6.7270  -15.5850 N   0  0  0  0  0  0  0  0  0  0  0  0
  1  2  2  0
  2  3  1  0
  3  4  1  0
  4  5  1  0
  5  6  1  6
  6  7  1  0
  7  8  2  0
  8  9  1  0
  9 10  2  0
 10 11  1  0
 11 12  2  0
 12 13  1  0
 13 14  2  0
 14 15  1  0
 15 16  2  0
 16 17  1  0
 17 18  3  0
  5  2  1  0
 16  7  1  0
 14  9  1  0
M  END
>  <energy_score>  (4834) 
-10.406889

>  <alias>  (4834) 
LCQCDHVRINZDNQ-UHFFFAOYSA-N-P91-P7-P91-601530

>  <HIPPO Pose ID>  (4834) 
86218

>  <smiles>  (4834) 
C=C1CCC1Nc1nc2ccccc2cc1C#N

>  <inchikey>  (4834) 
LCQCDHVRINZDNQ-UHFFFAOYSA-N

>  <distance_score>  (4834) 
1.951895

>  <ref_mols>  (4834) 
Z1688a,Z0089a

>  <ref_pdb>  (4834) 
Z0089a

>  <HIPPO Compound ID>  (4834) 
146260

>  <name>  (4834) 
LCQCDHVRINZDNQ-UHFFFAOYSA-N-P91-P7-P91-601530

>  <inspiration_score>  (4834) 
None

$$$$
LNFYCQXLURLKCH-UHFFFAOYSA-N-P7-P7-P91-601530
     RDKit          3D

 18 20  0  0  0  0  0  0  0  0999 V2000
   -1.7889    7.8064  -19.6147 C   0  0  0  0  0  0  0  0  0  0  0  0
   -1.9302    6.5099  -19.3225 C   0  0  0  0  0  0  0  0  0  0  0  0
   -0.9359    5.3843  -19.1288 C   0  0  0  0  0  0  0  0  0  0  0  0
   -2.1577    4.4632  -19.3241 C   0  0  0  0  0  0  0  0  0  0  0  0
   -3.1395    5.6275  -19.0699 C   0  0  1  0  0  0  0  0  0  0  0  0
   -3.5427    5.7230  -17.6949 N   0  0  0  0  0  0  0  0  0  0  0  0
   -4.8466    5.3967  -17.2736 C   0  0  0  0  0  0  0  0  0  0  0  0
   -5.2274    5.5650  -15.9386 C   0  0  0  0  0  0  0  0  0  0  0  0
   -6.5499    5.2906  -15.5236 C   0  0  0  0  0  0  0  0  0  0  0  0
   -6.9806    5.6446  -14.1232 C   0  0  0  0  0  0  0  0  0  0  0  0
   -7.1999    4.1030  -12.9777 Br  0  0  0  0  0  0  0  0  0  0  0  0
   -7.4478    4.8021  -16.4978 C   0  0  0  0  0  0  0  0  0  0  0  0
   -8.8040    4.4831  -16.2632 C   0  0  0  0  0  0  0  0  0  0  0  0
   -9.6481    4.1407  -17.3181 C   0  0  0  0  0  0  0  0  0  0  0  0
   -9.1452    4.0821  -18.6047 C   0  0  0  0  0  0  0  0  0  0  0  0
   -7.7995    4.3180  -18.8342 C   0  0  0  0  0  0  0  0  0  0  0  0
   -6.9531    4.6778  -17.8156 C   0  0  0  0  0  0  0  0  0  0  0  0
   -5.7029    4.9469  -18.1819 N   0  0  0  0  0  0  0  0  0  0  0  0
  1  2  2  0
  2  3  1  0
  3  4  1  0
  4  5  1  0
  5  6  1  1
  6  7  1  0
  7  8  2  0
  8  9  1  0
  9 10  1  0
 10 11  1  0
  9 12  2  0
 12 13  1  0
 13 14  2  0
 14 15  1  0
 15 16  2  0
 16 17  1  0
 17 18  2  0
  5  2  1  0
 18  7  1  0
 17 12  1  0
M  END
>  <energy_score>  (4835) 
-12.717097

>  <alias>  (4835) 
LNFYCQXLURLKCH-UHFFFAOYSA-N-P7-P7-P91-601530

>  <HIPPO Pose ID>  (4835) 
86221

>  <smiles>  (4835) 
C=C1CCC1Nc1cc(CBr)c2ccccc2n1

>  <inchikey>  (4835) 
LNFYCQXLURLKCH-UHFFFAOYSA-N

>  <distance_score>  (4835) 
0.976237

>  <ref_mols>  (4835) 
Z1688a,Z0089a

>  <ref_pdb>  (4835) 
Z0089a

>  <HIPPO Compound ID>  (4835) 
146262

>  <name>  (4835) 
LNFYCQXLURLKCH-UHFFFAOYSA-N-P7-P7-P91-601530

>  <inspiration_score>  (4835) 
None

$$$$
YQGXZEQVMQABMX-UHFFFAOYSA-N-P7-P7-P91-601530
     RDKit          3D

 18 20  0  0  0  0  0  0  0  0999 V2000
   -1.8740    7.8021  -19.5815 C   0  0  0  0  0  0  0  0  0  0  0  0
   -1.9679    6.4933  -19.3275 C   0  0  0  0  0  0  0  0  0  0  0  0
   -0.9339    5.3953  -19.1889 C   0  0  0  0  0  0  0  0  0  0  0  0
   -2.1297    4.4404  -19.3771 C   0  0  0  0  0  0  0  0  0  0  0  0
   -3.1439    5.5663  -19.0776 C   0  0  1  0  0  0  0  0  0  0  0  0
   -3.5236    5.6085  -17.6938 N   0  0  0  0  0  0  0  0  0  0  0  0
   -4.8256    5.3059  -17.2557 C   0  0  0  0  0  0  0  0  0  0  0  0
   -5.1462    5.3476  -15.9022 C   0  0  0  0  0  0  0  0  0  0  0  0
   -6.4570    5.0497  -15.4825 C   0  0  0  0  0  0  0  0  0  0  0  0
   -6.7278    5.1434  -14.0142 C   0  0  0  0  0  0  0  0  0  0  0  0
   -7.8289    5.1649  -13.4818 O   0  0  0  0  0  0  0  0  0  0  0  0
   -7.4272    4.7022  -16.4423 C   0  0  0  0  0  0  0  0  0  0  0  0
   -8.7835    4.3812  -16.1972 C   0  0  0  0  0  0  0  0  0  0  0  0
   -9.6571    4.1248  -17.2535 C   0  0  0  0  0  0  0  0  0  0  0  0
   -9.1882    4.1438  -18.5535 C   0  0  0  0  0  0  0  0  0  0  0  0
   -7.8476    4.3905  -18.7965 C   0  0  0  0  0  0  0  0  0  0  0  0
   -6.9763    4.6847  -17.7775 C   0  0  0  0  0  0  0  0  0  0  0  0
   -5.7331    4.9670  -18.1617 N   0  0  0  0  0  0  0  0  0  0  0  0
  1  2  2  0
  2  3  1  0
  3  4  1  0
  4  5  1  0
  5  6  1  1
  6  7  1  0
  7  8  2  0
  8  9  1  0
  9 10  1  0
 10 11  2  0
  9 12  2  0
 12 13  1  0
 13 14  2  0
 14 15  1  0
 15 16  2  0
 16 17  1  0
 17 18  2  0
  5  2  1  0
 18  7  1  0
 17 12  1  0
M  END
>  <energy_score>  (4836) 
-29.066998

>  <alias>  (4836) 
YQGXZEQVMQABMX-UHFFFAOYSA-N-P7-P7-P91-601530

>  <HIPPO Pose ID>  (4836) 
86225

>  <smiles>  (4836) 
C=C1CCC1Nc1cc(C=O)c2ccccc2n1

>  <inchikey>  (4836) 
YQGXZEQVMQABMX-UHFFFAOYSA-N

>  <distance_score>  (4836) 
1.0626

>  <ref_mols>  (4836) 
Z1688a,Z0089a

>  <ref_pdb>  (4836) 
Z0089a

>  <HIPPO Compound ID>  (4836) 
146264

>  <name>  (4836) 
YQGXZEQVMQABMX-UHFFFAOYSA-N-P7-P7-P91-601530

>  <inspiration_score>  (4836) 
None

$$$$
HZKPQMCXLAFEPP-UHFFFAOYSA-N-P7-P7-P91-601530
     RDKit          3D

 18 20  0  0  0  0  0  0  0  0999 V2000
    0.6717    5.8376  -19.1415 C   0  0  0  0  0  0  0  0  0  0  0  0
   -0.6382    5.7942  -18.8919 C   0  0  0  0  0  0  0  0  0  0  0  0
   -1.7235    4.7742  -19.1865 C   0  0  0  0  0  0  0  0  0  0  0  0
   -2.4847    5.4927  -18.0314 C   0  0  0  0  0  0  0  0  0  0  0  0
   -3.8450    5.7758  -18.3590 N   0  0  0  0  0  0  0  0  0  0  0  0
   -4.9645    5.4118  -17.6249 C   0  0  0  0  0  0  0  0  0  0  0  0
   -5.1473    5.5853  -16.2550 C   0  0  0  0  0  0  0  0  0  0  0  0
   -6.4054    5.3014  -15.6663 C   0  0  0  0  0  0  0  0  0  0  0  0
   -6.6697    5.6829  -14.2298 C   0  0  0  0  0  0  0  0  0  0  0  0
   -6.9422    4.1710  -13.0505 Br  0  0  0  0  0  0  0  0  0  0  0  0
   -7.4221    4.8030  -16.5140 C   0  0  0  0  0  0  0  0  0  0  0  0
   -8.7359    4.4830  -16.1162 C   0  0  0  0  0  0  0  0  0  0  0  0
   -9.6838    4.1031  -17.0607 C   0  0  0  0  0  0  0  0  0  0  0  0
   -9.3441    4.0223  -18.3943 C   0  0  0  0  0  0  0  0  0  0  0  0
   -8.0486    4.2744  -18.7902 C   0  0  0  0  0  0  0  0  0  0  0  0
   -7.1023    4.6686  -17.8829 C   0  0  0  0  0  0  0  0  0  0  0  0
   -5.9270    4.9611  -18.4133 N   0  0  0  0  0  0  0  0  0  0  0  0
   -1.5978    6.7521  -18.2185 C   0  0  0  0  0  0  0  0  0  0  0  0
  1  2  2  0
  2  3  1  0
  3  4  1  0
  4  5  1  0
  5  6  1  0
  6  7  2  0
  7  8  1  0
  8  9  1  0
  9 10  1  0
  8 11  2  0
 11 12  1  0
 12 13  2  0
 13 14  1  0
 14 15  2  0
 15 16  1  0
 16 17  2  0
  4 18  1  0
 18  2  1  0
 17  6  1  0
 16 11  1  0
M  END
>  <energy_score>  (4837) 
-16.896908

>  <alias>  (4837) 
HZKPQMCXLAFEPP-UHFFFAOYSA-N-P7-P7-P91-601530

>  <HIPPO Pose ID>  (4837) 
86233

>  <smiles>  (4837) 
C=C1CC(Nc2cc(CBr)c3ccccc3n2)C1

>  <inchikey>  (4837) 
HZKPQMCXLAFEPP-UHFFFAOYSA-N

>  <distance_score>  (4837) 
1.025731

>  <ref_mols>  (4837) 
Z1688a,Z0089a

>  <ref_pdb>  (4837) 
Z0089a

>  <HIPPO Compound ID>  (4837) 
146268

>  <name>  (4837) 
HZKPQMCXLAFEPP-UHFFFAOYSA-N-P7-P7-P91-601530

>  <inspiration_score>  (4837) 
None

$$$$
YMYUDFKEEAKPAM-UHFFFAOYSA-N-P7-P7-P91-601530
     RDKit          3D

 18 20  0  0  0  0  0  0  0  0999 V2000
    0.6509    5.8995  -19.2438 C   0  0  0  0  0  0  0  0  0  0  0  0
   -0.6533    5.8188  -18.9751 C   0  0  0  0  0  0  0  0  0  0  0  0
   -1.7105    4.7602  -19.2340 C   0  0  0  0  0  0  0  0  0  0  0  0
   -2.4716    5.4734  -18.0767 C   0  0  0  0  0  0  0  0  0  0  0  0
   -3.8458    5.6975  -18.3762 N   0  0  0  0  0  0  0  0  0  0  0  0
   -4.9529    5.3470  -17.6237 C   0  0  0  0  0  0  0  0  0  0  0  0
   -5.0722    5.4128  -16.2440 C   0  0  0  0  0  0  0  0  0  0  0  0
   -6.3129    5.1006  -15.6464 C   0  0  0  0  0  0  0  0  0  0  0  0
   -6.4155    5.2419  -14.1580 C   0  0  0  0  0  0  0  0  0  0  0  0
   -7.4341    5.1480  -13.4863 O   0  0  0  0  0  0  0  0  0  0  0  0
   -7.3933    4.7080  -16.4619 C   0  0  0  0  0  0  0  0  0  0  0  0
   -8.6933    4.3608  -16.0388 C   0  0  0  0  0  0  0  0  0  0  0  0
   -9.6785    4.0623  -16.9748 C   0  0  0  0  0  0  0  0  0  0  0  0
   -9.3921    4.0688  -18.3230 C   0  0  0  0  0  0  0  0  0  0  0  0
   -8.1082    4.3390  -18.7426 C   0  0  0  0  0  0  0  0  0  0  0  0
   -7.1294    4.6764  -17.8447 C   0  0  0  0  0  0  0  0  0  0  0  0
   -5.9665    4.9887  -18.3952 N   0  0  0  0  0  0  0  0  0  0  0  0
   -1.6340    6.7593  -18.3067 C   0  0  0  0  0  0  0  0  0  0  0  0
  1  2  2  0
  2  3  1  0
  3  4  1  0
  4  5  1  0
  5  6  1  0
  6  7  2  0
  7  8  1  0
  8  9  1  0
  9 10  2  0
  8 11  2  0
 11 12  1  0
 12 13  2  0
 13 14  1  0
 14 15  2  0
 15 16  1  0
 16 17  2  0
  4 18  1  0
 18  2  1  0
 17  6  1  0
 16 11  1  0
M  END
>  <energy_score>  (4838) 
-23.353624

>  <alias>  (4838) 
YMYUDFKEEAKPAM-UHFFFAOYSA-N-P7-P7-P91-601530

>  <HIPPO Pose ID>  (4838) 
86237

>  <smiles>  (4838) 
C=C1CC(Nc2cc(C=O)c3ccccc3n2)C1

>  <inchikey>  (4838) 
YMYUDFKEEAKPAM-UHFFFAOYSA-N

>  <distance_score>  (4838) 
1.130803

>  <ref_mols>  (4838) 
Z1688a,Z0089a

>  <ref_pdb>  (4838) 
Z0089a

>  <HIPPO Compound ID>  (4838) 
146270

>  <name>  (4838) 
YMYUDFKEEAKPAM-UHFFFAOYSA-N-P7-P7-P91-601530

>  <inspiration_score>  (4838) 
None

$$$$
WDPOREMMZWJVJX-UHFFFAOYSA-N-P91-P7-P91-601530
     RDKit          3D

 18 19  0  0  0  0  0  0  0  0999 V2000
   -2.3416    4.4839  -18.5955 C   0  0  0  0  0  0  0  0  0  0  0  0
   -2.8166    5.4495  -19.6672 C   0  0  2  0  0  0  0  0  0  0  0  0
   -1.7755    6.5531  -19.9315 C   0  0  0  0  0  0  0  0  0  0  0  0
   -0.4505    6.0047  -20.4380 C   0  0  0  0  0  0  0  0  0  0  0  0
    0.7552    7.4829  -20.8485 Br  0  0  0  0  0  0  0  0  0  0  0  0
   -4.0994    6.1351  -19.4342 N   0  0  0  0  0  0  0  0  0  0  0  0
   -5.0190    5.6931  -18.4982 C   0  0  0  0  0  0  0  0  0  0  0  0
   -6.0718    5.0697  -19.0451 N   0  0  0  0  0  0  0  0  0  0  0  0
   -7.1078    4.7362  -18.2613 C   0  0  0  0  0  0  0  0  0  0  0  0
   -8.2327    4.1601  -18.7967 C   0  0  0  0  0  0  0  0  0  0  0  0
   -9.3135    3.8253  -17.9866 C   0  0  0  0  0  0  0  0  0  0  0  0
   -9.2780    4.0332  -16.6231 C   0  0  0  0  0  0  0  0  0  0  0  0
   -8.1788    4.6213  -16.0585 C   0  0  0  0  0  0  0  0  0  0  0  0
   -7.1190    4.9818  -16.8844 C   0  0  0  0  0  0  0  0  0  0  0  0
   -6.0343    5.6288  -16.3395 C   0  0  0  0  0  0  0  0  0  0  0  0
   -4.9498    5.9964  -17.1425 C   0  0  0  0  0  0  0  0  0  0  0  0
   -3.8723    6.8289  -16.5443 C   0  0  0  0  0  0  0  0  0  0  0  0
   -3.2725    6.0423  -14.8642 Br  0  0  0  0  0  0  0  0  0  0  0  0
  2  1  1  1
  2  3  1  0
  3  4  1  0
  4  5  1  0
  2  6  1  0
  6  7  1  0
  7  8  2  0
  8  9  1  0
  9 10  2  0
 10 11  1  0
 11 12  2  0
 12 13  1  0
 13 14  2  0
 14 15  1  0
 15 16  2  0
 16 17  1  0
 17 18  1  0
 16  7  1  0
 14  9  1  0
M  END
>  <energy_score>  (4839) 
-28.189603

>  <alias>  (4839) 
WDPOREMMZWJVJX-UHFFFAOYSA-N-P91-P7-P91-601530

>  <HIPPO Pose ID>  (4839) 
86246

>  <smiles>  (4839) 
CC(CCBr)Nc1nc2ccccc2cc1CBr

>  <inchikey>  (4839) 
WDPOREMMZWJVJX-UHFFFAOYSA-N

>  <distance_score>  (4839) 
1.957394

>  <ref_mols>  (4839) 
Z1688a,Z0089a

>  <ref_pdb>  (4839) 
Z0089a

>  <HIPPO Compound ID>  (4839) 
146274

>  <name>  (4839) 
WDPOREMMZWJVJX-UHFFFAOYSA-N-P91-P7-P91-601530

>  <inspiration_score>  (4839) 
None

$$$$
NJMQJPZNGWRLLN-UHFFFAOYSA-N-P7-P7-P91-601530
     RDKit          3D

 18 20  0  0  0  0  0  0  0  0999 V2000
   -2.0557    7.2608  -19.9084 F   0  0  0  0  0  0  0  0  0  0  0  0
   -1.5321    6.5291  -18.8911 C   0  0  2  0  0  0  0  0  0  0  0  0
   -0.8029    5.2430  -19.3376 C   0  0  0  0  0  0  0  0  0  0  0  0
   -2.1409    4.5002  -19.1503 C   0  0  0  0  0  0  0  0  0  0  0  0
   -2.5235    5.5973  -18.1251 C   0  0  2  0  0  0  0  0  0  0  0  0
   -3.8711    6.0536  -18.2630 N   0  0  0  0  0  0  0  0  0  0  0  0
   -4.9634    5.5408  -17.5682 C   0  0  0  0  0  0  0  0  0  0  0  0
   -5.1618    5.6596  -16.1944 C   0  0  0  0  0  0  0  0  0  0  0  0
   -6.4173    5.3227  -15.6303 C   0  0  0  0  0  0  0  0  0  0  0  0
   -6.7149    5.6801  -14.1939 C   0  0  0  0  0  0  0  0  0  0  0  0
   -6.9601    4.1465  -13.0381 Br  0  0  0  0  0  0  0  0  0  0  0  0
   -7.4078    4.8139  -16.5030 C   0  0  0  0  0  0  0  0  0  0  0  0
   -8.7243    4.4695  -16.1316 C   0  0  0  0  0  0  0  0  0  0  0  0
   -9.6534    4.0904  -17.0958 C   0  0  0  0  0  0  0  0  0  0  0  0
   -9.2843    4.0173  -18.4231 C   0  0  0  0  0  0  0  0  0  0  0  0
   -7.9842    4.2938  -18.7932 C   0  0  0  0  0  0  0  0  0  0  0  0
   -7.0615    4.7059  -17.8687 C   0  0  0  0  0  0  0  0  0  0  0  0
   -5.8900    5.0549  -18.3784 N   0  0  0  0  0  0  0  0  0  0  0  0
  2  1  1  6
  2  3  1  0
  3  4  1  0
  4  5  1  0
  5  6  1  6
  6  7  1  0
  7  8  2  0
  8  9  1  0
  9 10  1  0
 10 11  1  0
  9 12  2  0
 12 13  1  0
 13 14  2  0
 14 15  1  0
 15 16  2  0
 16 17  1  0
 17 18  2  0
  5  2  1  0
 18  7  1  0
 17 12  1  0
M  END
>  <energy_score>  (4840) 
-10.716092

>  <alias>  (4840) 
NJMQJPZNGWRLLN-UHFFFAOYSA-N-P7-P7-P91-601530

>  <HIPPO Pose ID>  (4840) 
86253

>  <smiles>  (4840) 
FC1CCC1Nc1cc(CBr)c2ccccc2n1

>  <inchikey>  (4840) 
NJMQJPZNGWRLLN-UHFFFAOYSA-N

>  <distance_score>  (4840) 
1.001097

>  <ref_mols>  (4840) 
Z1688a,Z0089a

>  <ref_pdb>  (4840) 
Z0089a

>  <HIPPO Compound ID>  (4840) 
146278

>  <name>  (4840) 
NJMQJPZNGWRLLN-UHFFFAOYSA-N-P7-P7-P91-601530

>  <inspiration_score>  (4840) 
None

$$$$
BJCNUMGVFWHUHH-UHFFFAOYSA-N-P91-P7-P91-601530
     RDKit          3D

 18 19  0  0  0  0  0  0  0  0999 V2000
   -0.8588    4.4630  -19.4390 C   0  0  0  0  0  0  0  0  0  0  0  0
   -2.3541    4.6557  -19.4478 C   0  0  0  0  0  0  0  0  0  0  0  0
   -2.7863    6.0717  -19.0701 C   0  0  1  0  0  0  0  0  0  0  0  0
   -2.1310    7.1431  -19.9566 C   0  0  0  0  0  0  0  0  0  0  0  0
   -2.5772    8.8027  -19.4509 Cl  0  0  0  0  0  0  0  0  0  0  0  0
   -4.2351    6.1689  -19.2021 N   0  0  0  0  0  0  0  0  0  0  0  0
   -5.1241    5.6580  -18.2891 C   0  0  0  0  0  0  0  0  0  0  0  0
   -6.2008    5.1319  -18.8943 N   0  0  0  0  0  0  0  0  0  0  0  0
   -7.2357    4.7254  -18.1486 C   0  0  0  0  0  0  0  0  0  0  0  0
   -8.4002    4.3120  -18.7431 C   0  0  0  0  0  0  0  0  0  0  0  0
   -9.5015    3.9796  -17.9687 C   0  0  0  0  0  0  0  0  0  0  0  0
   -9.4229    3.9713  -16.5928 C   0  0  0  0  0  0  0  0  0  0  0  0
   -8.2723    4.3506  -15.9623 C   0  0  0  0  0  0  0  0  0  0  0  0
   -7.2061    4.7519  -16.7472 C   0  0  0  0  0  0  0  0  0  0  0  0
   -6.0814    5.2324  -16.1276 C   0  0  0  0  0  0  0  0  0  0  0  0
   -5.0448    5.7313  -16.9051 C   0  0  0  0  0  0  0  0  0  0  0  0
   -4.0225    6.3709  -16.1677 C   0  0  0  0  0  0  0  0  0  0  0  0
   -3.2763    6.8590  -15.4284 N   0  0  0  0  0  0  0  0  0  0  0  0
  1  2  1  0
  3  2  1  6
  3  4  1  0
  4  5  1  0
  3  6  1  0
  6  7  1  0
  7  8  2  0
  8  9  1  0
  9 10  2  0
 10 11  1  0
 11 12  2  0
 12 13  1  0
 13 14  2  0
 14 15  1  0
 15 16  2  0
 16 17  1  0
 17 18  3  0
 16  7  1  0
 14  9  1  0
M  END
>  <energy_score>  (4841) 
-12.654871

>  <alias>  (4841) 
BJCNUMGVFWHUHH-UHFFFAOYSA-N-P91-P7-P91-601530

>  <HIPPO Pose ID>  (4841) 
86260

>  <smiles>  (4841) 
CCC(CCl)Nc1nc2ccccc2cc1C#N

>  <inchikey>  (4841) 
BJCNUMGVFWHUHH-UHFFFAOYSA-N

>  <distance_score>  (4841) 
1.977662

>  <ref_mols>  (4841) 
Z1688a,Z0089a

>  <ref_pdb>  (4841) 
Z0089a

>  <HIPPO Compound ID>  (4841) 
146281

>  <name>  (4841) 
BJCNUMGVFWHUHH-UHFFFAOYSA-N-P91-P7-P91-601530

>  <inspiration_score>  (4841) 
None

$$$$
FOSZZEOZAUVOLY-UHFFFAOYSA-N-P7-P7-P91-601530
     RDKit          3D

 18 19  0  0  0  0  0  0  0  0999 V2000
   -1.3924    4.0204  -19.6205 C   0  0  0  0  0  0  0  0  0  0  0  0
   -2.7242    4.4851  -19.0770 C   0  0  0  0  0  0  0  0  0  0  0  0
   -2.6992    5.8435  -18.3559 C   0  0  1  0  0  0  0  0  0  0  0  0
   -1.8022    6.8983  -19.0417 C   0  0  0  0  0  0  0  0  0  0  0  0
   -2.2846    7.2372  -20.7341 Cl  0  0  0  0  0  0  0  0  0  0  0  0
   -4.0498    6.4185  -18.2802 N   0  0  0  0  0  0  0  0  0  0  0  0
   -5.0279    5.7509  -17.5660 C   0  0  0  0  0  0  0  0  0  0  0  0
   -5.2134    5.8494  -16.1903 C   0  0  0  0  0  0  0  0  0  0  0  0
   -6.4340    5.4191  -15.6118 C   0  0  0  0  0  0  0  0  0  0  0  0
   -6.7367    5.7565  -14.1714 C   0  0  0  0  0  0  0  0  0  0  0  0
   -6.9367    4.2070  -13.0266 Br  0  0  0  0  0  0  0  0  0  0  0  0
   -7.4032    4.8574  -16.4772 C   0  0  0  0  0  0  0  0  0  0  0  0
   -8.7068    4.4719  -16.1017 C   0  0  0  0  0  0  0  0  0  0  0  0
   -9.6263    4.0615  -17.0624 C   0  0  0  0  0  0  0  0  0  0  0  0
   -9.2549    3.9789  -18.3888 C   0  0  0  0  0  0  0  0  0  0  0  0
   -7.9643    4.2946  -18.7624 C   0  0  0  0  0  0  0  0  0  0  0  0
   -7.0578    4.7542  -17.8431 C   0  0  0  0  0  0  0  0  0  0  0  0
   -5.9134    5.1729  -18.3610 N   0  0  0  0  0  0  0  0  0  0  0  0
  1  2  1  0
  3  2  1  6
  3  4  1  0
  4  5  1  0
  3  6  1  0
  6  7  1  0
  7  8  2  0
  8  9  1  0
  9 10  1  0
 10 11  1  0
  9 12  2  0
 12 13  1  0
 13 14  2  0
 14 15  1  0
 15 16  2  0
 16 17  1  0
 17 18  2  0
 18  7  1  0
 17 12  1  0
M  END
>  <energy_score>  (4842) 
-40.448924

>  <alias>  (4842) 
FOSZZEOZAUVOLY-UHFFFAOYSA-N-P7-P7-P91-601530

>  <HIPPO Pose ID>  (4842) 
86263

>  <smiles>  (4842) 
CCC(CCl)Nc1cc(CBr)c2ccccc2n1

>  <inchikey>  (4842) 
FOSZZEOZAUVOLY-UHFFFAOYSA-N

>  <distance_score>  (4842) 
1.014711

>  <ref_mols>  (4842) 
Z1688a,Z0089a

>  <ref_pdb>  (4842) 
Z0089a

>  <HIPPO Compound ID>  (4842) 
146283

>  <name>  (4842) 
FOSZZEOZAUVOLY-UHFFFAOYSA-N-P7-P7-P91-601530

>  <inspiration_score>  (4842) 
None

$$$$
MWXUEQAPPFPZNJ-UHFFFAOYSA-N-P91-P7-P91-601530
     RDKit          3D

 18 19  0  0  0  0  0  0  0  0999 V2000
   -1.9919    4.3206  -19.5449 C   0  0  0  0  0  0  0  0  0  0  0  0
   -2.4830    5.6950  -19.1044 C   0  0  1  0  0  0  0  0  0  0  0  0
   -1.8121    6.7888  -19.9550 C   0  0  0  0  0  0  0  0  0  0  0  0
   -2.0168    8.2194  -19.4488 C   0  0  0  0  0  0  0  0  0  0  0  0
   -3.6296    8.9404  -19.8777 S   0  0  0  0  0  0  0  0  0  0  0  0
   -3.9233    5.8041  -19.2546 N   0  0  0  0  0  0  0  0  0  0  0  0
   -4.8766    5.4271  -18.3422 C   0  0  0  0  0  0  0  0  0  0  0  0
   -5.9705    4.9364  -18.9490 N   0  0  0  0  0  0  0  0  0  0  0  0
   -7.0508    4.6246  -18.2153 C   0  0  0  0  0  0  0  0  0  0  0  0
   -8.2381    4.2733  -18.8114 C   0  0  0  0  0  0  0  0  0  0  0  0
   -9.3716    4.0139  -18.0479 C   0  0  0  0  0  0  0  0  0  0  0  0
   -9.3149    4.0143  -16.6706 C   0  0  0  0  0  0  0  0  0  0  0  0
   -8.1419    4.3332  -16.0415 C   0  0  0  0  0  0  0  0  0  0  0  0
   -7.0373    4.6636  -16.8206 C   0  0  0  0  0  0  0  0  0  0  0  0
   -5.8840    5.0883  -16.2044 C   0  0  0  0  0  0  0  0  0  0  0  0
   -4.8275    5.6051  -16.9621 C   0  0  0  0  0  0  0  0  0  0  0  0
   -3.7433    6.3421  -16.2558 C   0  0  0  0  0  0  0  0  0  0  0  0
   -4.4384    7.4388  -14.7917 Br  0  0  0  0  0  0  0  0  0  0  0  0
  2  1  1  6
  2  3  1  0
  3  4  1  0
  4  5  1  0
  2  6  1  0
  6  7  1  0
  7  8  2  0
  8  9  1  0
  9 10  2  0
 10 11  1  0
 11 12  2  0
 12 13  1  0
 13 14  2  0
 14 15  1  0
 15 16  2  0
 16 17  1  0
 17 18  1  0
 16  7  1  0
 14  9  1  0
M  END
>  <energy_score>  (4843) 
-22.248296

>  <alias>  (4843) 
MWXUEQAPPFPZNJ-UHFFFAOYSA-N-P91-P7-P91-601530

>  <HIPPO Pose ID>  (4843) 
86268

>  <smiles>  (4843) 
CC(CCS)Nc1nc2ccccc2cc1CBr

>  <inchikey>  (4843) 
MWXUEQAPPFPZNJ-UHFFFAOYSA-N

>  <distance_score>  (4843) 
1.934642

>  <ref_mols>  (4843) 
Z1688a,Z0089a

>  <ref_pdb>  (4843) 
Z0089a

>  <HIPPO Compound ID>  (4843) 
146285

>  <name>  (4843) 
MWXUEQAPPFPZNJ-UHFFFAOYSA-N-P91-P7-P91-601530

>  <inspiration_score>  (4843) 
None

$$$$
ULWTZKZSVPBBQQ-UHFFFAOYSA-N-P7-P7-P91-601530
     RDKit          3D

 18 19  0  0  0  0  0  0  0  0999 V2000
   -1.8355    4.4751  -19.3017 C   0  0  0  0  0  0  0  0  0  0  0  0
   -3.1097    5.2710  -19.0316 C   0  0  2  0  0  0  0  0  0  0  0  0
   -3.0394    6.7371  -19.5031 C   0  0  0  0  0  0  0  0  0  0  0  0
   -1.8590    7.5717  -19.0054 C   0  0  0  0  0  0  0  0  0  0  0  0
   -0.4426    7.5362  -20.1448 S   0  0  0  0  0  0  0  0  0  0  0  0
   -3.4154    5.2000  -17.5951 N   0  0  0  0  0  0  0  0  0  0  0  0
   -4.7535    5.1240  -17.2047 C   0  0  0  0  0  0  0  0  0  0  0  0
   -5.0960    5.1416  -15.8556 C   0  0  0  0  0  0  0  0  0  0  0  0
   -6.4348    4.9474  -15.4612 C   0  0  0  0  0  0  0  0  0  0  0  0
   -6.7209    5.0210  -13.9954 C   0  0  0  0  0  0  0  0  0  0  0  0
   -7.8247    5.1409  -13.4817 O   0  0  0  0  0  0  0  0  0  0  0  0
   -7.4109    4.6815  -16.4386 C   0  0  0  0  0  0  0  0  0  0  0  0
   -8.7782    4.3893  -16.2127 C   0  0  0  0  0  0  0  0  0  0  0  0
   -9.6464    4.1631  -17.2809 C   0  0  0  0  0  0  0  0  0  0  0  0
   -9.1646    4.2021  -18.5764 C   0  0  0  0  0  0  0  0  0  0  0  0
   -7.8178    4.4415  -18.8004 C   0  0  0  0  0  0  0  0  0  0  0  0
   -6.9474    4.6932  -17.7679 C   0  0  0  0  0  0  0  0  0  0  0  0
   -5.6855    4.9313  -18.1289 N   0  0  0  0  0  0  0  0  0  0  0  0
  2  1  1  1
  2  3  1  0
  3  4  1  0
  4  5  1  0
  2  6  1  0
  6  7  1  0
  7  8  2  0
  8  9  1  0
  9 10  1  0
 10 11  2  0
  9 12  2  0
 12 13  1  0
 13 14  2  0
 14 15  1  0
 15 16  2  0
 16 17  1  0
 17 18  2  0
 18  7  1  0
 17 12  1  0
M  END
>  <energy_score>  (4844) 
-32.548939

>  <alias>  (4844) 
ULWTZKZSVPBBQQ-UHFFFAOYSA-N-P7-P7-P91-601530

>  <HIPPO Pose ID>  (4844) 
86269

>  <smiles>  (4844) 
CC(CCS)Nc1cc(C=O)c2ccccc2n1

>  <inchikey>  (4844) 
ULWTZKZSVPBBQQ-UHFFFAOYSA-N

>  <distance_score>  (4844) 
1.115793

>  <ref_mols>  (4844) 
Z1688a,Z0089a

>  <ref_pdb>  (4844) 
Z0089a

>  <HIPPO Compound ID>  (4844) 
146286

>  <name>  (4844) 
ULWTZKZSVPBBQQ-UHFFFAOYSA-N-P7-P7-P91-601530

>  <inspiration_score>  (4844) 
None

$$$$
UBZZZRSHLISESK-UHFFFAOYSA-N-P91-P7-P91-601530
     RDKit          3D

 18 19  0  0  0  0  0  0  0  0999 V2000
   -1.8885    4.3122  -19.7016 C   0  0  0  0  0  0  0  0  0  0  0  0
   -2.4531    5.5714  -19.0572 C   0  0  1  0  0  0  0  0  0  0  0  0
   -1.7726    6.8492  -19.5768 C   0  0  0  0  0  0  0  0  0  0  0  0
   -1.9461    7.0808  -21.0784 C   0  0  0  0  0  0  0  0  0  0  0  0
   -1.0353    8.5702  -21.5982 S   0  0  0  0  0  0  0  0  0  0  0  0
   -3.8813    5.6931  -19.2713 N   0  0  0  0  0  0  0  0  0  0  0  0
   -4.8663    5.4250  -18.3542 C   0  0  0  0  0  0  0  0  0  0  0  0
   -5.9607    4.9163  -18.9465 N   0  0  0  0  0  0  0  0  0  0  0  0
   -7.0469    4.6466  -18.2059 C   0  0  0  0  0  0  0  0  0  0  0  0
   -8.2106    4.2174  -18.7954 C   0  0  0  0  0  0  0  0  0  0  0  0
   -9.3377    3.9432  -18.0275 C   0  0  0  0  0  0  0  0  0  0  0  0
   -9.3048    4.0395  -16.6523 C   0  0  0  0  0  0  0  0  0  0  0  0
   -8.1654    4.4751  -16.0319 C   0  0  0  0  0  0  0  0  0  0  0  0
   -7.0628    4.7963  -16.8168 C   0  0  0  0  0  0  0  0  0  0  0  0
   -5.9363    5.3061  -16.2170 C   0  0  0  0  0  0  0  0  0  0  0  0
   -4.8391    5.7011  -16.9892 C   0  0  0  0  0  0  0  0  0  0  0  0
   -3.7334    6.4168  -16.2885 C   0  0  0  0  0  0  0  0  0  0  0  0
   -4.2106    7.0162  -15.0821 O   0  0  0  0  0  0  0  0  0  0  0  0
  2  1  1  6
  2  3  1  0
  3  4  1  0
  4  5  1  0
  2  6  1  0
  6  7  1  0
  7  8  2  0
  8  9  1  0
  9 10  2  0
 10 11  1  0
 11 12  2  0
 12 13  1  0
 13 14  2  0
 14 15  1  0
 15 16  2  0
 16 17  1  0
 17 18  1  0
 16  7  1  0
 14  9  1  0
M  END
>  <energy_score>  (4845) 
-26.406832

>  <alias>  (4845) 
UBZZZRSHLISESK-UHFFFAOYSA-N-P91-P7-P91-601530

>  <HIPPO Pose ID>  (4845) 
86274

>  <smiles>  (4845) 
CC(CCS)Nc1nc2ccccc2cc1CO

>  <inchikey>  (4845) 
UBZZZRSHLISESK-UHFFFAOYSA-N

>  <distance_score>  (4845) 
1.905511

>  <ref_mols>  (4845) 
Z1688a,Z0089a

>  <ref_pdb>  (4845) 
Z0089a

>  <HIPPO Compound ID>  (4845) 
146288

>  <name>  (4845) 
UBZZZRSHLISESK-UHFFFAOYSA-N-P91-P7-P91-601530

>  <inspiration_score>  (4845) 
None

$$$$
LLFSKJXMHBTXPW-UHFFFAOYSA-N-P7-P7-P91-601530
     RDKit          3D

 18 19  0  0  0  0  0  0  0  0999 V2000
   -1.8181    4.4729  -19.2497 C   0  0  0  0  0  0  0  0  0  0  0  0
   -3.0831    5.2967  -19.0146 C   0  0  2  0  0  0  0  0  0  0  0  0
   -2.9379    6.7489  -19.5119 C   0  0  0  0  0  0  0  0  0  0  0  0
   -1.7617    7.5692  -18.9779 C   0  0  0  0  0  0  0  0  0  0  0  0
   -1.9548    8.0772  -17.2413 S   0  0  0  0  0  0  0  0  0  0  0  0
   -3.4220    5.2559  -17.5908 N   0  0  0  0  0  0  0  0  0  0  0  0
   -4.7708    5.1927  -17.2351 C   0  0  0  0  0  0  0  0  0  0  0  0
   -5.1595    5.3484  -15.9002 C   0  0  0  0  0  0  0  0  0  0  0  0
   -6.5091    5.1952  -15.5095 C   0  0  0  0  0  0  0  0  0  0  0  0
   -6.9287    5.5584  -14.1090 C   0  0  0  0  0  0  0  0  0  0  0  0
   -7.2190    4.0244  -12.9710 Br  0  0  0  0  0  0  0  0  0  0  0  0
   -7.4274    4.7854  -16.4987 C   0  0  0  0  0  0  0  0  0  0  0  0
   -8.7935    4.4998  -16.2728 C   0  0  0  0  0  0  0  0  0  0  0  0
   -9.6422    4.1859  -17.3334 C   0  0  0  0  0  0  0  0  0  0  0  0
   -9.1393    4.1429  -18.6209 C   0  0  0  0  0  0  0  0  0  0  0  0
   -7.7890    4.3653  -18.8434 C   0  0  0  0  0  0  0  0  0  0  0  0
   -6.9338    4.6834  -17.8171 C   0  0  0  0  0  0  0  0  0  0  0  0
   -5.6678    4.9015  -18.1694 N   0  0  0  0  0  0  0  0  0  0  0  0
  2  1  1  1
  2  3  1  0
  3  4  1  0
  4  5  1  0
  2  6  1  0
  6  7  1  0
  7  8  2  0
  8  9  1  0
  9 10  1  0
 10 11  1  0
  9 12  2  0
 12 13  1  0
 13 14  2  0
 14 15  1  0
 15 16  2  0
 16 17  1  0
 17 18  2  0
 18  7  1  0
 17 12  1  0
M  END
>  <energy_score>  (4846) 
-37.519445

>  <alias>  (4846) 
LLFSKJXMHBTXPW-UHFFFAOYSA-N-P7-P7-P91-601530

>  <HIPPO Pose ID>  (4846) 
86275

>  <smiles>  (4846) 
CC(CCS)Nc1cc(CBr)c2ccccc2n1

>  <inchikey>  (4846) 
LLFSKJXMHBTXPW-UHFFFAOYSA-N

>  <distance_score>  (4846) 
1.00138

>  <ref_mols>  (4846) 
Z1688a,Z0089a

>  <ref_pdb>  (4846) 
Z0089a

>  <HIPPO Compound ID>  (4846) 
146289

>  <name>  (4846) 
LLFSKJXMHBTXPW-UHFFFAOYSA-N-P7-P7-P91-601530

>  <inspiration_score>  (4846) 
None

$$$$
FYDYOLDTFUUHAH-UHFFFAOYSA-N-P91-P7-P91-601530
     RDKit          3D

 18 20  0  0  0  0  0  0  0  0999 V2000
    0.0949    6.4776  -20.9499 C   0  0  0  0  0  0  0  0  0  0  0  0
   -0.6602    5.7046  -19.8881 C   0  0  2  0  0  0  0  0  0  0  0  0
   -1.8281    4.8074  -20.3719 C   0  0  0  0  0  0  0  0  0  0  0  0
   -2.5915    5.2324  -19.0979 C   0  0  2  0  0  0  0  0  0  0  0  0
   -3.9640    5.5265  -19.3463 N   0  0  0  0  0  0  0  0  0  0  0  0
   -5.0095    5.3492  -18.4371 C   0  0  0  0  0  0  0  0  0  0  0  0
   -6.1431    4.9116  -19.0095 N   0  0  0  0  0  0  0  0  0  0  0  0
   -7.2077    4.6579  -18.2330 C   0  0  0  0  0  0  0  0  0  0  0  0
   -8.3949    4.2474  -18.7847 C   0  0  0  0  0  0  0  0  0  0  0  0
   -9.4878    3.9660  -17.9750 C   0  0  0  0  0  0  0  0  0  0  0  0
   -9.3906    4.0341  -16.6016 C   0  0  0  0  0  0  0  0  0  0  0  0
   -8.2369    4.4707  -16.0150 C   0  0  0  0  0  0  0  0  0  0  0  0
   -7.1713    4.7984  -16.8373 C   0  0  0  0  0  0  0  0  0  0  0  0
   -6.0247    5.2818  -16.2610 C   0  0  0  0  0  0  0  0  0  0  0  0
   -4.9388    5.5880  -17.0704 C   0  0  0  0  0  0  0  0  0  0  0  0
   -3.8457    6.1707  -16.3895 C   0  0  0  0  0  0  0  0  0  0  0  0
   -3.0686    6.6432  -15.6724 N   0  0  0  0  0  0  0  0  0  0  0  0
   -1.7164    6.5071  -19.0878 C   0  0  0  0  0  0  0  0  0  0  0  0
  2  1  1  6
  2  3  1  0
  3  4  1  0
  4  5  1  6
  5  6  1  0
  6  7  2  0
  7  8  1  0
  8  9  2  0
  9 10  1  0
 10 11  2  0
 11 12  1  0
 12 13  2  0
 13 14  1  0
 14 15  2  0
 15 16  1  0
 16 17  3  0
  4 18  1  0
 18  2  1  0
 15  6  1  0
 13  8  1  0
M  END
>  <energy_score>  (4847) 
-15.240152

>  <alias>  (4847) 
FYDYOLDTFUUHAH-UHFFFAOYSA-N-P91-P7-P91-601530

>  <HIPPO Pose ID>  (4847) 
86288

>  <smiles>  (4847) 
CC1CC(Nc2nc3ccccc3cc2C#N)C1

>  <inchikey>  (4847) 
FYDYOLDTFUUHAH-UHFFFAOYSA-N

>  <distance_score>  (4847) 
1.956314

>  <ref_mols>  (4847) 
Z1688a,Z0089a

>  <ref_pdb>  (4847) 
Z0089a

>  <HIPPO Compound ID>  (4847) 
146295

>  <name>  (4847) 
FYDYOLDTFUUHAH-UHFFFAOYSA-N-P91-P7-P91-601530

>  <inspiration_score>  (4847) 
None

$$$$
ATCAIUBWQLDGJN-UHFFFAOYSA-N-P91-P7-P91-601530
     RDKit          3D

 18 20  0  0  0  0  0  0  0  0999 V2000
   -0.1613    6.6631  -20.4768 C   0  0  0  0  0  0  0  0  0  0  0  0
   -1.4468    5.8790  -20.3173 C   0  0  1  0  0  0  0  0  0  0  0  0
   -1.5067    4.8743  -19.1363 C   0  0  0  0  0  0  0  0  0  0  0  0
   -2.9941    5.2607  -18.9853 C   0  0  1  0  0  0  0  0  0  0  0  0
   -3.3991    5.3784  -17.6109 N   0  0  0  0  0  0  0  0  0  0  0  0
   -4.7481    5.2747  -17.2263 C   0  0  0  0  0  0  0  0  0  0  0  0
   -5.1446    5.4484  -15.8973 C   0  0  0  0  0  0  0  0  0  0  0  0
   -6.4957    5.2712  -15.5180 C   0  0  0  0  0  0  0  0  0  0  0  0
   -6.9381    5.6324  -14.1241 C   0  0  0  0  0  0  0  0  0  0  0  0
   -7.2094    4.0988  -12.9809 Br  0  0  0  0  0  0  0  0  0  0  0  0
   -7.4006    4.8443  -16.5151 C   0  0  0  0  0  0  0  0  0  0  0  0
   -8.7698    4.5622  -16.3122 C   0  0  0  0  0  0  0  0  0  0  0  0
   -9.6025    4.2642  -17.3906 C   0  0  0  0  0  0  0  0  0  0  0  0
   -9.0762    4.2175  -18.6680 C   0  0  0  0  0  0  0  0  0  0  0  0
   -7.7202    4.4004  -18.8644 C   0  0  0  0  0  0  0  0  0  0  0  0
   -6.8893    4.7240  -17.8245 C   0  0  0  0  0  0  0  0  0  0  0  0
   -5.6249    4.9411  -18.1632 N   0  0  0  0  0  0  0  0  0  0  0  0
   -2.6315    6.6158  -19.6356 C   0  0  0  0  0  0  0  0  0  0  0  0
  2  1  1  1
  2  3  1  0
  3  4  1  0
  4  5  1  1
  5  6  1  0
  6  7  2  0
  7  8  1  0
  8  9  1  0
  9 10  1  0
  8 11  2  0
 11 12  1  0
 12 13  2  0
 13 14  1  0
 14 15  2  0
 15 16  1  0
 16 17  2  0
  4 18  1  0
 18  2  1  0
 17  6  1  0
 16 11  1  0
M  END
>  <energy_score>  (4848) 
-17.398539

>  <alias>  (4848) 
ATCAIUBWQLDGJN-UHFFFAOYSA-N-P91-P7-P91-601530

>  <HIPPO Pose ID>  (4848) 
86292

>  <smiles>  (4848) 
CC1CC(Nc2cc(CBr)c3ccccc3n2)C1

>  <inchikey>  (4848) 
ATCAIUBWQLDGJN-UHFFFAOYSA-N

>  <distance_score>  (4848) 
1.00341

>  <ref_mols>  (4848) 
Z1688a,Z0089a

>  <ref_pdb>  (4848) 
Z0089a

>  <HIPPO Compound ID>  (4848) 
146297

>  <name>  (4848) 
ATCAIUBWQLDGJN-UHFFFAOYSA-N-P91-P7-P91-601530

>  <inspiration_score>  (4848) 
None

$$$$
YFFJLUWNVWPBOK-UHFFFAOYSA-N-P7-P7-P91-601530
     RDKit          3D

 18 19  0  0  0  0  0  0  0  0999 V2000
   -0.5626    5.3995  -18.8185 C   0  0  0  0  0  0  0  0  0  0  0  0
   -1.7589    4.5973  -19.3173 C   0  0  0  0  0  0  0  0  0  0  0  0
   -3.1304    5.2648  -19.0794 C   0  0  2  0  0  0  0  0  0  0  0  0
   -3.2297    6.6962  -19.6325 C   0  0  0  0  0  0  0  0  0  0  0  0
   -2.8460    6.7868  -21.3743 Cl  0  0  0  0  0  0  0  0  0  0  0  0
   -3.4121    5.2509  -17.6282 N   0  0  0  0  0  0  0  0  0  0  0  0
   -4.7469    5.1547  -17.2270 C   0  0  0  0  0  0  0  0  0  0  0  0
   -5.0835    5.1840  -15.8767 C   0  0  0  0  0  0  0  0  0  0  0  0
   -6.4182    4.9761  -15.4748 C   0  0  0  0  0  0  0  0  0  0  0  0
   -6.6994    5.0550  -14.0078 C   0  0  0  0  0  0  0  0  0  0  0  0
   -7.8030    5.1532  -13.4895 O   0  0  0  0  0  0  0  0  0  0  0  0
   -7.3960    4.6944  -16.4468 C   0  0  0  0  0  0  0  0  0  0  0  0
   -8.7606    4.3956  -16.2131 C   0  0  0  0  0  0  0  0  0  0  0  0
   -9.6325    4.1599  -17.2759 C   0  0  0  0  0  0  0  0  0  0  0  0
   -9.1566    4.1935  -18.5736 C   0  0  0  0  0  0  0  0  0  0  0  0
   -7.8117    4.4371  -18.8054 C   0  0  0  0  0  0  0  0  0  0  0  0
   -6.9379    4.7000  -17.7786 C   0  0  0  0  0  0  0  0  0  0  0  0
   -5.6785    4.9450  -18.1472 N   0  0  0  0  0  0  0  0  0  0  0  0
  1  2  1  0
  3  2  1  1
  3  4  1  0
  4  5  1  0
  3  6  1  0
  6  7  1  0
  7  8  2  0
  8  9  1  0
  9 10  1  0
 10 11  2  0
  9 12  2  0
 12 13  1  0
 13 14  2  0
 14 15  1  0
 15 16  2  0
 16 17  1  0
 17 18  2  0
 18  7  1  0
 17 12  1  0
M  END
>  <energy_score>  (4849) 
-23.930746

>  <alias>  (4849) 
YFFJLUWNVWPBOK-UHFFFAOYSA-N-P7-P7-P91-601530

>  <HIPPO Pose ID>  (4849) 
86297

>  <smiles>  (4849) 
CCC(CCl)Nc1cc(C=O)c2ccccc2n1

>  <inchikey>  (4849) 
YFFJLUWNVWPBOK-UHFFFAOYSA-N

>  <distance_score>  (4849) 
1.120116

>  <ref_mols>  (4849) 
Z1688a,Z0089a

>  <ref_pdb>  (4849) 
Z0089a

>  <HIPPO Compound ID>  (4849) 
146300

>  <name>  (4849) 
YFFJLUWNVWPBOK-UHFFFAOYSA-N-P7-P7-P91-601530

>  <inspiration_score>  (4849) 
None

$$$$
WVNVYWVODSOUPH-UHFFFAOYSA-N-P7-P7-P91-601530
     RDKit          3D

 18 20  0  0  0  0  0  0  0  0999 V2000
   -7.5409    5.1592  -13.4517 O   0  0  0  0  0  0  0  0  0  0  0  0
   -6.5182    5.3509  -14.0953 C   0  0  0  0  0  0  0  0  0  0  0  0
   -6.3625    5.2233  -15.5798 C   0  0  0  0  0  0  0  0  0  0  0  0
   -5.1339    5.6416  -16.1336 C   0  0  0  0  0  0  0  0  0  0  0  0
   -4.9644    5.6053  -17.5096 C   0  0  0  0  0  0  0  0  0  0  0  0
   -3.9008    6.1439  -18.2063 N   0  0  0  0  0  0  0  0  0  0  0  0
   -2.5770    5.6102  -17.9649 C   0  0  1  0  0  0  0  0  0  0  0  0
   -2.3616    4.4213  -18.8419 C   0  0  0  0  0  0  0  0  0  0  0  0
   -1.6226    4.7046  -19.9178 C   0  0  0  0  0  0  0  0  0  0  0  0
   -1.2056    6.1350  -19.9344 C   0  0  0  0  0  0  0  0  0  0  0  0
   -1.5293    6.5934  -18.5105 C   0  0  0  0  0  0  0  0  0  0  0  0
   -5.9076    5.1432  -18.3152 N   0  0  0  0  0  0  0  0  0  0  0  0
   -7.0675    4.7488  -17.8064 C   0  0  0  0  0  0  0  0  0  0  0  0
   -7.9960    4.3597  -18.7374 C   0  0  0  0  0  0  0  0  0  0  0  0
   -9.2881    4.0472  -18.3675 C   0  0  0  0  0  0  0  0  0  0  0  0
   -9.6348    4.0509  -17.0319 C   0  0  0  0  0  0  0  0  0  0  0  0
   -8.6917    4.3772  -16.0610 C   0  0  0  0  0  0  0  0  0  0  0  0
   -7.3877    4.7699  -16.4346 C   0  0  0  0  0  0  0  0  0  0  0  0
  1  2  2  0
  2  3  1  0
  3  4  2  0
  4  5  1  0
  5  6  1  0
  7  6  1  6
  7  8  1  0
  8  9  2  0
  9 10  1  0
 10 11  1  0
  5 12  2  0
 12 13  1  0
 13 14  2  0
 14 15  1  0
 15 16  2  0
 16 17  1  0
 17 18  2  0
 18  3  1  0
 11  7  1  0
 18 13  1  0
M  END
>  <energy_score>  (4850) 
-24.850714

>  <alias>  (4850) 
WVNVYWVODSOUPH-UHFFFAOYSA-N-P7-P7-P91-601530

>  <HIPPO Pose ID>  (4850) 
86299

>  <smiles>  (4850) 
O=Cc1cc(NC2C=CCC2)nc2ccccc12

>  <inchikey>  (4850) 
WVNVYWVODSOUPH-UHFFFAOYSA-N

>  <distance_score>  (4850) 
1.097079

>  <ref_mols>  (4850) 
Z1688a,Z0089a

>  <ref_pdb>  (4850) 
Z0089a

>  <HIPPO Compound ID>  (4850) 
146301

>  <name>  (4850) 
WVNVYWVODSOUPH-UHFFFAOYSA-N-P7-P7-P91-601530

>  <inspiration_score>  (4850) 
None

$$$$
QYVWSCOXTCHUOP-UHFFFAOYSA-N-P91-P7-P91-601530
     RDKit          3D

 18 19  0  0  0  0  0  0  0  0999 V2000
   -1.0015    4.2728  -19.5254 C   0  0  0  0  0  0  0  0  0  0  0  0
   -2.4666    4.6147  -19.4505 C   0  0  0  0  0  0  0  0  0  0  0  0
   -2.7503    6.0396  -18.9802 C   0  0  1  0  0  0  0  0  0  0  0  0
   -1.9140    7.1138  -19.7013 C   0  0  0  0  0  0  0  0  0  0  0  0
   -0.6085    7.2245  -19.1383 O   0  0  0  0  0  0  0  0  0  0  0  0
   -4.1592    6.3691  -19.2057 N   0  0  0  0  0  0  0  0  0  0  0  0
   -5.1095    5.9286  -18.3057 C   0  0  0  0  0  0  0  0  0  0  0  0
   -6.0741    5.2143  -18.9010 N   0  0  0  0  0  0  0  0  0  0  0  0
   -7.1249    4.8157  -18.1758 C   0  0  0  0  0  0  0  0  0  0  0  0
   -8.1593    4.1483  -18.7752 C   0  0  0  0  0  0  0  0  0  0  0  0
   -9.2593    3.7465  -18.0283 C   0  0  0  0  0  0  0  0  0  0  0  0
   -9.3370    3.9895  -16.6719 C   0  0  0  0  0  0  0  0  0  0  0  0
   -8.3206    4.6533  -16.0424 C   0  0  0  0  0  0  0  0  0  0  0  0
   -7.2392    5.0741  -16.8050 C   0  0  0  0  0  0  0  0  0  0  0  0
   -6.2415    5.8022  -16.2051 C   0  0  0  0  0  0  0  0  0  0  0  0
   -5.1551    6.2603  -16.9569 C   0  0  0  0  0  0  0  0  0  0  0  0
   -4.1818    7.1338  -16.2518 C   0  0  0  0  0  0  0  0  0  0  0  0
   -3.3308    6.0875  -14.8507 Br  0  0  0  0  0  0  0  0  0  0  0  0
  1  2  1  0
  3  2  1  6
  3  4  1  0
  4  5  1  0
  3  6  1  0
  6  7  1  0
  7  8  2  0
  8  9  1  0
  9 10  2  0
 10 11  1  0
 11 12  2  0
 12 13  1  0
 13 14  2  0
 14 15  1  0
 15 16  2  0
 16 17  1  0
 17 18  1  0
 16  7  1  0
 14  9  1  0
M  END
>  <energy_score>  (4851) 
-19.784625

>  <alias>  (4851) 
QYVWSCOXTCHUOP-UHFFFAOYSA-N-P91-P7-P91-601530

>  <HIPPO Pose ID>  (4851) 
86302

>  <smiles>  (4851) 
CCC(CO)Nc1nc2ccccc2cc1CBr

>  <inchikey>  (4851) 
QYVWSCOXTCHUOP-UHFFFAOYSA-N

>  <distance_score>  (4851) 
1.971858

>  <ref_mols>  (4851) 
Z1688a,Z0089a

>  <ref_pdb>  (4851) 
Z0089a

>  <HIPPO Compound ID>  (4851) 
146302

>  <name>  (4851) 
QYVWSCOXTCHUOP-UHFFFAOYSA-N-P91-P7-P91-601530

>  <inspiration_score>  (4851) 
None

$$$$
FFJZGADMHIPHMD-UHFFFAOYSA-N-P91-P7-P91-601530
     RDKit          3D

 18 20  0  0  0  0  0  0  0  0999 V2000
   -4.0452    6.8061  -15.0392 O   0  0  0  0  0  0  0  0  0  0  0  0
   -3.7234    6.4825  -16.3931 C   0  0  0  0  0  0  0  0  0  0  0  0
   -4.8502    5.7615  -17.0546 C   0  0  0  0  0  0  0  0  0  0  0  0
   -5.9258    5.3478  -16.2650 C   0  0  0  0  0  0  0  0  0  0  0  0
   -7.0570    4.8274  -16.8477 C   0  0  0  0  0  0  0  0  0  0  0  0
   -8.1377    4.4860  -16.0405 C   0  0  0  0  0  0  0  0  0  0  0  0
   -9.2848    4.0357  -16.6358 C   0  0  0  0  0  0  0  0  0  0  0  0
   -9.3437    3.9361  -18.0099 C   0  0  0  0  0  0  0  0  0  0  0  0
   -8.2376    4.2329  -18.8015 C   0  0  0  0  0  0  0  0  0  0  0  0
   -7.0694    4.6882  -18.2391 C   0  0  0  0  0  0  0  0  0  0  0  0
   -6.0092    4.9969  -19.0046 N   0  0  0  0  0  0  0  0  0  0  0  0
   -4.9164    5.5237  -18.4283 C   0  0  0  0  0  0  0  0  0  0  0  0
   -3.9318    5.8655  -19.3488 N   0  0  0  0  0  0  0  0  0  0  0  0
   -2.5862    5.3687  -19.1328 C   0  0  1  0  0  0  0  0  0  0  0  0
   -2.0801    4.7324  -20.3876 C   0  0  0  0  0  0  0  0  0  0  0  0
   -1.2189    5.5057  -21.0567 C   0  0  0  0  0  0  0  0  0  0  0  0
   -1.0054    6.8028  -20.3604 C   0  0  0  0  0  0  0  0  0  0  0  0
   -1.6068    6.5440  -18.9780 C   0  0  0  0  0  0  0  0  0  0  0  0
  1  2  1  0
  2  3  1  0
  3  4  2  0
  4  5  1  0
  5  6  2  0
  6  7  1  0
  7  8  2  0
  8  9  1  0
  9 10  2  0
 10 11  1  0
 11 12  2  0
 12 13  1  0
 14 13  1  6
 14 15  1  0
 15 16  2  0
 16 17  1  0
 17 18  1  0
 12  3  1  0
 18 14  1  0
 10  5  1  0
M  END
>  <energy_score>  (4852) 
-24.436481

>  <alias>  (4852) 
FFJZGADMHIPHMD-UHFFFAOYSA-N-P91-P7-P91-601530

>  <HIPPO Pose ID>  (4852) 
86308

>  <smiles>  (4852) 
OCc1cc2ccccc2nc1NC1C=CCC1

>  <inchikey>  (4852) 
FFJZGADMHIPHMD-UHFFFAOYSA-N

>  <distance_score>  (4852) 
1.917279

>  <ref_mols>  (4852) 
Z1688a,Z0089a

>  <ref_pdb>  (4852) 
Z0089a

>  <HIPPO Compound ID>  (4852) 
146305

>  <name>  (4852) 
FFJZGADMHIPHMD-UHFFFAOYSA-N-P91-P7-P91-601530

>  <inspiration_score>  (4852) 
None

$$$$
JSTKZJQNDVMLSF-UHFFFAOYSA-N-P91-P7-P91-601530
     RDKit          3D

 18 20  0  0  0  0  0  0  0  0999 V2000
   -2.8943    6.4262  -16.0214 N   0  0  0  0  0  0  0  0  0  0  0  0
   -3.7317    5.9974  -16.6976 C   0  0  0  0  0  0  0  0  0  0  0  0
   -4.8895    5.4844  -17.3241 C   0  0  0  0  0  0  0  0  0  0  0  0
   -5.9434    5.2522  -16.4441 C   0  0  0  0  0  0  0  0  0  0  0  0
   -7.1392    4.7877  -16.9302 C   0  0  0  0  0  0  0  0  0  0  0  0
   -8.1603    4.5046  -16.0370 C   0  0  0  0  0  0  0  0  0  0  0  0
   -9.3544    4.0669  -16.5389 C   0  0  0  0  0  0  0  0  0  0  0  0
   -9.5436    3.9736  -17.9023 C   0  0  0  0  0  0  0  0  0  0  0  0
   -8.4953    4.2185  -18.7815 C   0  0  0  0  0  0  0  0  0  0  0  0
   -7.2635    4.6043  -18.3118 C   0  0  0  0  0  0  0  0  0  0  0  0
   -6.2345    4.7871  -19.1523 N   0  0  0  0  0  0  0  0  0  0  0  0
   -5.0475    5.2070  -18.6760 C   0  0  0  0  0  0  0  0  0  0  0  0
   -4.0809    5.2669  -19.6722 N   0  0  0  0  0  0  0  0  0  0  0  0
   -2.7563    5.8930  -19.6199 C   0  0  0  0  0  0  0  0  0  0  0  0
   -1.6299    4.9328  -19.2330 C   0  0  0  0  0  0  0  0  0  0  0  0
   -0.1811    5.6902  -18.4626 S   0  0  0  0  0  0  0  0  0  0  0  0
   -2.6845    7.4052  -19.4328 C   0  0  0  0  0  0  0  0  0  0  0  0
   -2.4326    6.8254  -20.7838 C   0  0  0  0  0  0  0  0  0  0  0  0
  1  2  3  0
  2  3  1  0
  3  4  2  0
  4  5  1  0
  5  6  2  0
  6  7  1  0
  7  8  2  0
  8  9  1  0
  9 10  2  0
 10 11  1  0
 11 12  2  0
 12 13  1  0
 13 14  1  0
 14 15  1  0
 15 16  1  0
 14 17  1  0
 17 18  1  0
 12  3  1  0
 18 14  1  0
 10  5  1  0
M  END
>  <energy_score>  (4853) 
-37.129192

>  <alias>  (4853) 
JSTKZJQNDVMLSF-UHFFFAOYSA-N-P91-P7-P91-601530

>  <HIPPO Pose ID>  (4853) 
86314

>  <smiles>  (4853) 
N#Cc1cc2ccccc2nc1NC1(CS)CC1

>  <inchikey>  (4853) 
JSTKZJQNDVMLSF-UHFFFAOYSA-N

>  <distance_score>  (4853) 
1.966437

>  <ref_mols>  (4853) 
Z1688a,Z0089a

>  <ref_pdb>  (4853) 
Z0089a

>  <HIPPO Compound ID>  (4853) 
146308

>  <name>  (4853) 
JSTKZJQNDVMLSF-UHFFFAOYSA-N-P91-P7-P91-601530

>  <inspiration_score>  (4853) 
None

$$$$
DQOJAOYJDCVASA-UHFFFAOYSA-N-P7-P7-P91-601530
     RDKit          3D

 18 20  0  0  0  0  0  0  0  0999 V2000
   -3.9631    6.2456  -14.9398 O   0  0  0  0  0  0  0  0  0  0  0  0
   -3.9056    6.4268  -16.3563 C   0  0  0  0  0  0  0  0  0  0  0  0
   -5.0423    5.7482  -17.0474 C   0  0  0  0  0  0  0  0  0  0  0  0
   -6.1308    5.3465  -16.2597 C   0  0  0  0  0  0  0  0  0  0  0  0
   -7.2587    4.8020  -16.8323 C   0  0  0  0  0  0  0  0  0  0  0  0
   -8.3355    4.4445  -16.0263 C   0  0  0  0  0  0  0  0  0  0  0  0
   -9.4780    3.9765  -16.6225 C   0  0  0  0  0  0  0  0  0  0  0  0
   -9.5373    3.8612  -17.9970 C   0  0  0  0  0  0  0  0  0  0  0  0
   -8.4339    4.1782  -18.7834 C   0  0  0  0  0  0  0  0  0  0  0  0
   -7.2767    4.6608  -18.2192 C   0  0  0  0  0  0  0  0  0  0  0  0
   -6.2365    5.0118  -18.9857 N   0  0  0  0  0  0  0  0  0  0  0  0
   -5.1442    5.5676  -18.4256 C   0  0  0  0  0  0  0  0  0  0  0  0
   -4.2437    5.9806  -19.4016 N   0  0  0  0  0  0  0  0  0  0  0  0
   -2.8057    6.2461  -19.2789 C   0  0  0  0  0  0  0  0  0  0  0  0
   -1.9196    5.0403  -19.0063 C   0  0  0  0  0  0  0  0  0  0  0  0
   -1.8432    4.0660  -20.5089 S   0  0  0  0  0  0  0  0  0  0  0  0
   -2.3388    7.6120  -18.8103 C   0  0  0  0  0  0  0  0  0  0  0  0
   -2.2434    7.2785  -20.2578 C   0  0  0  0  0  0  0  0  0  0  0  0
  1  2  1  0
  2  3  1  0
  3  4  2  0
  4  5  1  0
  5  6  2  0
  6  7  1  0
  7  8  2  0
  8  9  1  0
  9 10  2  0
 10 11  1  0
 11 12  2  0
 12 13  1  0
 13 14  1  0
 14 15  1  0
 15 16  1  0
 14 17  1  0
 17 18  1  0
 12  3  1  0
 18 14  1  0
 10  5  1  0
M  END
>  <energy_score>  (4854) 
-25.134237

>  <alias>  (4854) 
DQOJAOYJDCVASA-UHFFFAOYSA-N-P7-P7-P91-601530

>  <HIPPO Pose ID>  (4854) 
86315

>  <smiles>  (4854) 
OCc1cc2ccccc2nc1NC1(CS)CC1

>  <inchikey>  (4854) 
DQOJAOYJDCVASA-UHFFFAOYSA-N

>  <distance_score>  (4854) 
1.948692

>  <ref_mols>  (4854) 
Z1688a,Z0089a

>  <ref_pdb>  (4854) 
Z0089a

>  <HIPPO Compound ID>  (4854) 
146309

>  <name>  (4854) 
DQOJAOYJDCVASA-UHFFFAOYSA-N-P7-P7-P91-601530

>  <inspiration_score>  (4854) 
None

$$$$
FFSDDFQXGOAICD-UHFFFAOYSA-N-P91-P7-P91-601530
     RDKit          3D

 18 20  0  0  0  0  0  0  0  0999 V2000
   -7.9060    5.1957  -13.5023 O   0  0  0  0  0  0  0  0  0  0  0  0
   -6.7904    5.2460  -14.0006 C   0  0  0  0  0  0  0  0  0  0  0  0
   -6.4566    5.1302  -15.4552 C   0  0  0  0  0  0  0  0  0  0  0  0
   -5.1404    5.4688  -15.8242 C   0  0  0  0  0  0  0  0  0  0  0  0
   -4.7480    5.3993  -17.1595 C   0  0  0  0  0  0  0  0  0  0  0  0
   -3.4775    5.8810  -17.5403 N   0  0  0  0  0  0  0  0  0  0  0  0
   -3.0613    5.9413  -18.9746 C   0  0  0  0  0  0  0  0  0  0  0  0
   -2.0872    4.8540  -19.4097 C   0  0  0  0  0  0  0  0  0  0  0  0
   -0.3970    5.3344  -18.9248 S   0  0  0  0  0  0  0  0  0  0  0  0
   -2.8336    7.3414  -19.5393 C   0  0  0  0  0  0  0  0  0  0  0  0
   -3.9853    6.5336  -20.0288 C   0  0  0  0  0  0  0  0  0  0  0  0
   -5.5989    4.9981  -18.0933 N   0  0  0  0  0  0  0  0  0  0  0  0
   -6.8582    4.7148  -17.7647 C   0  0  0  0  0  0  0  0  0  0  0  0
   -7.6804    4.4165  -18.8213 C   0  0  0  0  0  0  0  0  0  0  0  0
   -9.0352    4.2006  -18.6413 C   0  0  0  0  0  0  0  0  0  0  0  0
   -9.5675    4.1895  -17.3655 C   0  0  0  0  0  0  0  0  0  0  0  0
   -8.7409    4.4374  -16.2700 C   0  0  0  0  0  0  0  0  0  0  0  0
   -7.3743    4.7530  -16.4533 C   0  0  0  0  0  0  0  0  0  0  0  0
  1  2  2  0
  2  3  1  0
  3  4  2  0
  4  5  1  0
  5  6  1  0
  6  7  1  0
  7  8  1  0
  8  9  1  0
  7 10  1  0
 10 11  1  0
  5 12  2  0
 12 13  1  0
 13 14  2  0
 14 15  1  0
 15 16  2  0
 16 17  1  0
 17 18  2  0
 18  3  1  0
 11  7  1  0
 18 13  1  0
M  END
>  <energy_score>  (4855) 
-10.044903

>  <alias>  (4855) 
FFSDDFQXGOAICD-UHFFFAOYSA-N-P91-P7-P91-601530

>  <HIPPO Pose ID>  (4855) 
86322

>  <smiles>  (4855) 
O=Cc1cc(NC2(CS)CC2)nc2ccccc12

>  <inchikey>  (4855) 
FFSDDFQXGOAICD-UHFFFAOYSA-N

>  <distance_score>  (4855) 
1.081314

>  <ref_mols>  (4855) 
Z1688a,Z0089a

>  <ref_pdb>  (4855) 
Z0089a

>  <HIPPO Compound ID>  (4855) 
146312

>  <name>  (4855) 
FFSDDFQXGOAICD-UHFFFAOYSA-N-P91-P7-P91-601530

>  <inspiration_score>  (4855) 
None

$$$$
KAQDXFAJPIKZMT-UHFFFAOYSA-N-P7-P7-P91-601530
     RDKit          3D

 18 19  0  0  0  0  0  0  0  0999 V2000
   -0.3003    5.5667  -19.2855 C   0  0  0  0  0  0  0  0  0  0  0  0
   -1.6642    4.9284  -19.0668 C   0  0  0  0  0  0  0  0  0  0  0  0
   -2.8161    5.7338  -19.6733 C   0  0  2  0  0  0  0  0  0  0  0  0
   -2.8817    7.2463  -19.4159 C   0  0  0  0  0  0  0  0  0  0  0  0
   -3.9368    7.8244  -20.1963 O   0  0  0  0  0  0  0  0  0  0  0  0
   -4.0899    5.0690  -19.4597 N   0  0  0  0  0  0  0  0  0  0  0  0
   -5.0261    5.0943  -18.4756 C   0  0  0  0  0  0  0  0  0  0  0  0
   -6.2192    4.7890  -19.0244 N   0  0  0  0  0  0  0  0  0  0  0  0
   -7.2927    4.5850  -18.2480 C   0  0  0  0  0  0  0  0  0  0  0  0
   -8.5033    4.2226  -18.7934 C   0  0  0  0  0  0  0  0  0  0  0  0
   -9.6071    3.9613  -17.9877 C   0  0  0  0  0  0  0  0  0  0  0  0
   -9.4988    4.0250  -16.6132 C   0  0  0  0  0  0  0  0  0  0  0  0
   -8.3157    4.4112  -16.0371 C   0  0  0  0  0  0  0  0  0  0  0  0
   -7.2323    4.6966  -16.8626 C   0  0  0  0  0  0  0  0  0  0  0  0
   -6.0308    5.0770  -16.3103 C   0  0  0  0  0  0  0  0  0  0  0  0
   -4.8963    5.3036  -17.1090 C   0  0  0  0  0  0  0  0  0  0  0  0
   -3.6494    5.6158  -16.3540 C   0  0  0  0  0  0  0  0  0  0  0  0
   -3.9666    6.3898  -15.1941 O   0  0  0  0  0  0  0  0  0  0  0  0
  1  2  1  0
  3  2  1  1
  3  4  1  0
  4  5  1  0
  3  6  1  0
  6  7  1  0
  7  8  2  0
  8  9  1  0
  9 10  2  0
 10 11  1  0
 11 12  2  0
 12 13  1  0
 13 14  2  0
 14 15  1  0
 15 16  2  0
 16 17  1  0
 17 18  1  0
 16  7  1  0
 14  9  1  0
M  END
>  <energy_score>  (4856) 
-17.389243

>  <alias>  (4856) 
KAQDXFAJPIKZMT-UHFFFAOYSA-N-P7-P7-P91-601530

>  <HIPPO Pose ID>  (4856) 
86325

>  <smiles>  (4856) 
CCC(CO)Nc1nc2ccccc2cc1CO

>  <inchikey>  (4856) 
KAQDXFAJPIKZMT-UHFFFAOYSA-N

>  <distance_score>  (4856) 
1.941851

>  <ref_mols>  (4856) 
Z1688a,Z0089a

>  <ref_pdb>  (4856) 
Z0089a

>  <HIPPO Compound ID>  (4856) 
146314

>  <name>  (4856) 
KAQDXFAJPIKZMT-UHFFFAOYSA-N-P7-P7-P91-601530

>  <inspiration_score>  (4856) 
None

$$$$
KTOWASOEIGHSQW-UHFFFAOYSA-N-P91-P7-P91-601530
     RDKit          3D

 18 20  0  0  0  0  0  0  0  0999 V2000
   -3.1255    6.6836  -15.5822 N   0  0  0  0  0  0  0  0  0  0  0  0
   -3.8841    6.1803  -16.2971 C   0  0  0  0  0  0  0  0  0  0  0  0
   -4.9423    5.5632  -17.0052 C   0  0  0  0  0  0  0  0  0  0  0  0
   -6.0326    5.2169  -16.2213 C   0  0  0  0  0  0  0  0  0  0  0  0
   -7.1719    4.7622  -16.8307 C   0  0  0  0  0  0  0  0  0  0  0  0
   -8.2463    4.4192  -16.0265 C   0  0  0  0  0  0  0  0  0  0  0  0
   -9.4038    4.0252  -16.6330 C   0  0  0  0  0  0  0  0  0  0  0  0
   -9.4897    4.0016  -18.0073 C   0  0  0  0  0  0  0  0  0  0  0  0
   -8.3854    4.2894  -18.8002 C   0  0  0  0  0  0  0  0  0  0  0  0
   -7.1968    4.6776  -18.2330 C   0  0  0  0  0  0  0  0  0  0  0  0
   -6.1270    4.9691  -18.9960 N   0  0  0  0  0  0  0  0  0  0  0  0
   -4.9894    5.3857  -18.3866 C   0  0  0  0  0  0  0  0  0  0  0  0
   -3.8834    5.6364  -19.2311 N   0  0  0  0  0  0  0  0  0  0  0  0
   -4.1284    5.9157  -20.5806 O   0  0  0  0  0  0  0  0  0  0  0  0
   -2.5035    5.3455  -18.9250 C   0  0  0  0  0  0  0  0  0  0  0  0
   -1.7202    4.6053  -20.0241 C   0  0  0  0  0  0  0  0  0  0  0  0
   -1.1059    5.9486  -20.4570 C   0  0  0  0  0  0  0  0  0  0  0  0
   -1.5734    6.5568  -19.1219 C   0  0  0  0  0  0  0  0  0  0  0  0
  1  2  3  0
  2  3  1  0
  3  4  2  0
  4  5  1  0
  5  6  2  0
  6  7  1  0
  7  8  2  0
  8  9  1  0
  9 10  2  0
 10 11  1  0
 11 12  2  0
 12 13  1  0
 13 14  1  0
 13 15  1  0
 15 16  1  0
 16 17  1  0
 17 18  1  0
 12  3  1  0
 18 15  1  0
 10  5  1  0
M  END
>  <energy_score>  (4857) 
-8.901575

>  <alias>  (4857) 
KTOWASOEIGHSQW-UHFFFAOYSA-N-P91-P7-P91-601530

>  <HIPPO Pose ID>  (4857) 
86330

>  <smiles>  (4857) 
N#Cc1cc2ccccc2nc1N(O)C1CCC1

>  <inchikey>  (4857) 
KTOWASOEIGHSQW-UHFFFAOYSA-N

>  <distance_score>  (4857) 
1.956257

>  <ref_mols>  (4857) 
Z1688a,Z0089a

>  <ref_pdb>  (4857) 
Z0089a

>  <HIPPO Compound ID>  (4857) 
146316

>  <name>  (4857) 
KTOWASOEIGHSQW-UHFFFAOYSA-N-P91-P7-P91-601530

>  <inspiration_score>  (4857) 
None

$$$$
HSFMKOYPNHPARX-UHFFFAOYSA-N-P91-P7-P91-601530
     RDKit          3D

 18 20  0  0  0  0  0  0  0  0999 V2000
   -3.9501    6.3556  -19.6697 O   0  0  0  0  0  0  0  0  0  0  0  0
   -3.7277    6.0328  -18.3092 N   0  0  0  0  0  0  0  0  0  0  0  0
   -4.8481    5.5121  -17.6259 C   0  0  0  0  0  0  0  0  0  0  0  0
   -5.0589    5.6564  -16.2498 C   0  0  0  0  0  0  0  0  0  0  0  0
   -6.3215    5.3419  -15.6805 C   0  0  0  0  0  0  0  0  0  0  0  0
   -6.6178    5.7146  -14.2469 C   0  0  0  0  0  0  0  0  0  0  0  0
   -6.9225    4.1991  -13.0809 Br  0  0  0  0  0  0  0  0  0  0  0  0
   -7.3197    4.8455  -16.5504 C   0  0  0  0  0  0  0  0  0  0  0  0
   -8.6466    4.5309  -16.1892 C   0  0  0  0  0  0  0  0  0  0  0  0
   -9.5778    4.1933  -17.1661 C   0  0  0  0  0  0  0  0  0  0  0  0
   -9.1995    4.1349  -18.4898 C   0  0  0  0  0  0  0  0  0  0  0  0
   -7.8871    4.3355  -18.8440 C   0  0  0  0  0  0  0  0  0  0  0  0
   -6.9678    4.7169  -17.9118 C   0  0  0  0  0  0  0  0  0  0  0  0
   -5.7942    5.0291  -18.4296 N   0  0  0  0  0  0  0  0  0  0  0  0
   -2.3863    5.5682  -18.0843 C   0  0  0  0  0  0  0  0  0  0  0  0
   -1.8378    4.5844  -19.1529 C   0  0  0  0  0  0  0  0  0  0  0  0
   -0.5067    5.3644  -19.0769 C   0  0  0  0  0  0  0  0  0  0  0  0
   -1.3147    6.5757  -18.5692 C   0  0  0  0  0  0  0  0  0  0  0  0
  1  2  1  0
  2  3  1  0
  3  4  2  0
  4  5  1  0
  5  6  1  0
  6  7  1  0
  5  8  2  0
  8  9  1  0
  9 10  2  0
 10 11  1  0
 11 12  2  0
 12 13  1  0
 13 14  2  0
  2 15  1  0
 15 16  1  0
 16 17  1  0
 17 18  1  0
 14  3  1  0
 18 15  1  0
 13  8  1  0
M  END
>  <energy_score>  (4858) 
-19.34914

>  <alias>  (4858) 
HSFMKOYPNHPARX-UHFFFAOYSA-N-P91-P7-P91-601530

>  <HIPPO Pose ID>  (4858) 
86334

>  <smiles>  (4858) 
ON(c1cc(CBr)c2ccccc2n1)C1CCC1

>  <inchikey>  (4858) 
HSFMKOYPNHPARX-UHFFFAOYSA-N

>  <distance_score>  (4858) 
1.030602

>  <ref_mols>  (4858) 
Z1688a,Z0089a

>  <ref_pdb>  (4858) 
Z0089a

>  <HIPPO Compound ID>  (4858) 
146318

>  <name>  (4858) 
HSFMKOYPNHPARX-UHFFFAOYSA-N-P91-P7-P91-601530

>  <inspiration_score>  (4858) 
None

$$$$
XOPPEVOCJBLGEB-UHFFFAOYSA-N-P7-P7-P91-601530
     RDKit          3D

 18 21  0  0  0  0  0  0  0  0999 V2000
   -6.8544    4.2488  -13.0699 Br  0  0  0  0  0  0  0  0  0  0  0  0
   -6.6304    5.7706  -14.2491 C   0  0  0  0  0  0  0  0  0  0  0  0
   -6.3920    5.4036  -15.6949 C   0  0  0  0  0  0  0  0  0  0  0  0
   -5.1815    5.7826  -16.3293 C   0  0  0  0  0  0  0  0  0  0  0  0
   -5.0429    5.6337  -17.7077 C   0  0  0  0  0  0  0  0  0  0  0  0
   -4.0210    6.1678  -18.4867 N   0  0  0  0  0  0  0  0  0  0  0  0
   -2.6842    5.8546  -18.3873 C   0  0  0  0  0  0  0  0  0  0  0  0
   -1.9936    4.6098  -18.9654 C   0  0  0  0  0  0  0  0  0  0  0  0
   -0.8066    5.4905  -18.4001 C   0  0  0  0  0  0  0  0  0  0  0  0
   -1.5780    6.6865  -19.0737 C   0  0  0  0  0  0  0  0  0  0  0  0
   -1.7684    5.7605  -17.1690 C   0  0  0  0  0  0  0  0  0  0  0  0
   -5.9838    5.0827  -18.4575 N   0  0  0  0  0  0  0  0  0  0  0  0
   -7.1187    4.7143  -17.8878 C   0  0  0  0  0  0  0  0  0  0  0  0
   -8.0691    4.2597  -18.7631 C   0  0  0  0  0  0  0  0  0  0  0  0
   -9.3423    3.9617  -18.3281 C   0  0  0  0  0  0  0  0  0  0  0  0
   -9.6516    4.0626  -16.9888 C   0  0  0  0  0  0  0  0  0  0  0  0
   -8.6947    4.4870  -16.0746 C   0  0  0  0  0  0  0  0  0  0  0  0
   -7.4053    4.8487  -16.5108 C   0  0  0  0  0  0  0  0  0  0  0  0
  1  2  1  0
  2  3  1  0
  3  4  2  0
  4  5  1  0
  5  6  1  0
  6  7  1  0
  7  8  1  0
  8  9  1  0
  9 10  1  0
  9 11  1  0
  5 12  2  0
 12 13  1  0
 13 14  2  0
 14 15  1  0
 15 16  2  0
 16 17  1  0
 17 18  2  0
 18  3  1  0
 10  7  1  0
 18 13  1  0
 11  7  1  0
M  END
>  <energy_score>  (4859) 
-26.071432

>  <alias>  (4859) 
XOPPEVOCJBLGEB-UHFFFAOYSA-N-P7-P7-P91-601530

>  <HIPPO Pose ID>  (4859) 
86339

>  <smiles>  (4859) 
BrCc1cc(NC23CC(C2)C3)nc2ccccc12

>  <inchikey>  (4859) 
XOPPEVOCJBLGEB-UHFFFAOYSA-N

>  <distance_score>  (4859) 
1.018709

>  <ref_mols>  (4859) 
Z1688a,Z0089a

>  <ref_pdb>  (4859) 
Z0089a

>  <HIPPO Compound ID>  (4859) 
146321

>  <name>  (4859) 
XOPPEVOCJBLGEB-UHFFFAOYSA-N-P7-P7-P91-601530

>  <inspiration_score>  (4859) 
None

$$$$
MWIUIFCGEBKPPX-UHFFFAOYSA-N-P91-P7-P91-601530
     RDKit          3D

 18 20  0  0  0  0  0  0  0  0999 V2000
   -7.2493    5.2114  -13.5027 O   0  0  0  0  0  0  0  0  0  0  0  0
   -6.2375    5.2685  -14.1891 C   0  0  0  0  0  0  0  0  0  0  0  0
   -6.1609    5.1502  -15.6823 C   0  0  0  0  0  0  0  0  0  0  0  0
   -4.9328    5.4689  -16.3071 C   0  0  0  0  0  0  0  0  0  0  0  0
   -4.8446    5.4409  -17.6971 C   0  0  0  0  0  0  0  0  0  0  0  0
   -3.7268    5.8559  -18.4459 N   0  0  0  0  0  0  0  0  0  0  0  0
   -3.9574    6.1164  -19.8152 O   0  0  0  0  0  0  0  0  0  0  0  0
   -2.3656    5.4980  -18.1764 C   0  0  0  0  0  0  0  0  0  0  0  0
   -1.7184    4.5495  -19.2230 C   0  0  0  0  0  0  0  0  0  0  0  0
   -0.4434    5.4126  -19.0949 C   0  0  0  0  0  0  0  0  0  0  0  0
   -1.3543    6.5737  -18.6419 C   0  0  0  0  0  0  0  0  0  0  0  0
   -5.8918    5.0968  -18.4465 N   0  0  0  0  0  0  0  0  0  0  0  0
   -7.0312    4.7617  -17.8650 C   0  0  0  0  0  0  0  0  0  0  0  0
   -8.0258    4.4277  -18.7408 C   0  0  0  0  0  0  0  0  0  0  0  0
   -9.2949    4.1607  -18.2906 C   0  0  0  0  0  0  0  0  0  0  0  0
   -9.5420    4.1141  -16.9380 C   0  0  0  0  0  0  0  0  0  0  0  0
   -8.5395    4.4023  -16.0220 C   0  0  0  0  0  0  0  0  0  0  0  0
   -7.2586    4.7707  -16.4758 C   0  0  0  0  0  0  0  0  0  0  0  0
  1  2  2  0
  2  3  1  0
  3  4  2  0
  4  5  1  0
  5  6  1  0
  6  7  1  0
  6  8  1  0
  8  9  1  0
  9 10  1  0
 10 11  1  0
  5 12  2  0
 12 13  1  0
 13 14  2  0
 14 15  1  0
 15 16  2  0
 16 17  1  0
 17 18  2  0
 18  3  1  0
 11  8  1  0
 18 13  1  0
M  END
>  <energy_score>  (4860) 
-32.881114

>  <alias>  (4860) 
MWIUIFCGEBKPPX-UHFFFAOYSA-N-P91-P7-P91-601530

>  <HIPPO Pose ID>  (4860) 
86344

>  <smiles>  (4860) 
O=Cc1cc(N(O)C2CCC2)nc2ccccc12

>  <inchikey>  (4860) 
MWIUIFCGEBKPPX-UHFFFAOYSA-N

>  <distance_score>  (4860) 
1.175275

>  <ref_mols>  (4860) 
Z1688a,Z0089a

>  <ref_pdb>  (4860) 
Z0089a

>  <HIPPO Compound ID>  (4860) 
146323

>  <name>  (4860) 
MWIUIFCGEBKPPX-UHFFFAOYSA-N-P91-P7-P91-601530

>  <inspiration_score>  (4860) 
None

$$$$
DFBAIXDCGQDPHF-UHFFFAOYSA-N-P91-P7-P91-601530
     RDKit          3D

 18 19  0  0  0  0  0  0  0  0999 V2000
   -0.2702    5.4271  -19.2074 C   0  0  0  0  0  0  0  0  0  0  0  0
   -1.6844    4.8823  -19.0581 C   0  0  0  0  0  0  0  0  0  0  0  0
   -2.7469    5.7692  -19.7232 C   0  0  2  0  0  0  0  0  0  0  0  0
   -2.6773    7.2697  -19.3930 C   0  0  0  0  0  0  0  0  0  0  0  0
   -3.9286    8.2589  -20.2962 S   0  0  0  0  0  0  0  0  0  0  0  0
   -4.0705    5.1925  -19.5572 N   0  0  0  0  0  0  0  0  0  0  0  0
   -5.0012    5.1669  -18.5712 C   0  0  0  0  0  0  0  0  0  0  0  0
   -6.1894    4.7939  -19.0818 N   0  0  0  0  0  0  0  0  0  0  0  0
   -7.2456    4.6093  -18.2759 C   0  0  0  0  0  0  0  0  0  0  0  0
   -8.4673    4.2431  -18.7853 C   0  0  0  0  0  0  0  0  0  0  0  0
   -9.5399    3.9950  -17.9380 C   0  0  0  0  0  0  0  0  0  0  0  0
   -9.3858    4.0614  -16.5692 C   0  0  0  0  0  0  0  0  0  0  0  0
   -8.2029    4.4797  -16.0280 C   0  0  0  0  0  0  0  0  0  0  0  0
   -7.1572    4.7663  -16.8904 C   0  0  0  0  0  0  0  0  0  0  0  0
   -5.9684    5.2029  -16.3677 C   0  0  0  0  0  0  0  0  0  0  0  0
   -4.8820    5.4221  -17.2134 C   0  0  0  0  0  0  0  0  0  0  0  0
   -3.7449    5.9003  -16.5265 C   0  0  0  0  0  0  0  0  0  0  0  0
   -2.9338    6.3163  -15.8114 N   0  0  0  0  0  0  0  0  0  0  0  0
  1  2  1  0
  3  2  1  1
  3  4  1  0
  4  5  1  0
  3  6  1  0
  6  7  1  0
  7  8  2  0
  8  9  1  0
  9 10  2  0
 10 11  1  0
 11 12  2  0
 12 13  1  0
 13 14  2  0
 14 15  1  0
 15 16  2  0
 16 17  1  0
 17 18  3  0
 16  7  1  0
 14  9  1  0
M  END
>  <energy_score>  (4861) 
-26.93293

>  <alias>  (4861) 
DFBAIXDCGQDPHF-UHFFFAOYSA-N-P91-P7-P91-601530

>  <HIPPO Pose ID>  (4861) 
86346

>  <smiles>  (4861) 
CCC(CS)Nc1nc2ccccc2cc1C#N

>  <inchikey>  (4861) 
DFBAIXDCGQDPHF-UHFFFAOYSA-N

>  <distance_score>  (4861) 
1.963028

>  <ref_mols>  (4861) 
Z1688a,Z0089a

>  <ref_pdb>  (4861) 
Z0089a

>  <HIPPO Compound ID>  (4861) 
146324

>  <name>  (4861) 
DFBAIXDCGQDPHF-UHFFFAOYSA-N-P91-P7-P91-601530

>  <inspiration_score>  (4861) 
None

$$$$
PNZCTXCWJKRTHE-UHFFFAOYSA-N-P7-P7-P91-601530
     RDKit          3D

 18 19  0  0  0  0  0  0  0  0999 V2000
   -0.5985    5.3136  -18.8703 C   0  0  0  0  0  0  0  0  0  0  0  0
   -1.9086    4.7136  -19.3706 C   0  0  0  0  0  0  0  0  0  0  0  0
   -3.1704    5.5491  -19.0357 C   0  0  2  0  0  0  0  0  0  0  0  0
   -2.9638    7.0303  -19.4273 C   0  0  0  0  0  0  0  0  0  0  0  0
   -4.4775    8.0564  -19.4199 S   0  0  0  0  0  0  0  0  0  0  0  0
   -3.4524    5.4445  -17.5915 N   0  0  0  0  0  0  0  0  0  0  0  0
   -4.7759    5.2048  -17.2024 C   0  0  0  0  0  0  0  0  0  0  0  0
   -5.1258    5.2718  -15.8573 C   0  0  0  0  0  0  0  0  0  0  0  0
   -6.4539    5.0256  -15.4583 C   0  0  0  0  0  0  0  0  0  0  0  0
   -6.7456    5.1561  -13.9963 C   0  0  0  0  0  0  0  0  0  0  0  0
   -7.8469    5.1056  -13.4668 O   0  0  0  0  0  0  0  0  0  0  0  0
   -7.4164    4.6955  -16.4315 C   0  0  0  0  0  0  0  0  0  0  0  0
   -8.7813    4.3932  -16.2064 C   0  0  0  0  0  0  0  0  0  0  0  0
   -9.6441    4.1452  -17.2742 C   0  0  0  0  0  0  0  0  0  0  0  0
   -9.1586    4.1678  -18.5685 C   0  0  0  0  0  0  0  0  0  0  0  0
   -7.8119    4.4060  -18.7921 C   0  0  0  0  0  0  0  0  0  0  0  0
   -6.9471    4.6773  -17.7598 C   0  0  0  0  0  0  0  0  0  0  0  0
   -5.6872    4.9208  -18.1216 N   0  0  0  0  0  0  0  0  0  0  0  0
  1  2  1  0
  3  2  1  1
  3  4  1  0
  4  5  1  0
  3  6  1  0
  6  7  1  0
  7  8  2  0
  8  9  1  0
  9 10  1  0
 10 11  2  0
  9 12  2  0
 12 13  1  0
 13 14  2  0
 14 15  1  0
 15 16  2  0
 16 17  1  0
 17 18  2  0
 18  7  1  0
 17 12  1  0
M  END
>  <energy_score>  (4862) 
-31.817799

>  <alias>  (4862) 
PNZCTXCWJKRTHE-UHFFFAOYSA-N-P7-P7-P91-601530

>  <HIPPO Pose ID>  (4862) 
86353

>  <smiles>  (4862) 
CCC(CS)Nc1cc(C=O)c2ccccc2n1

>  <inchikey>  (4862) 
PNZCTXCWJKRTHE-UHFFFAOYSA-N

>  <distance_score>  (4862) 
1.076402

>  <ref_mols>  (4862) 
Z1688a,Z0089a

>  <ref_pdb>  (4862) 
Z0089a

>  <HIPPO Compound ID>  (4862) 
146328

>  <name>  (4862) 
PNZCTXCWJKRTHE-UHFFFAOYSA-N-P7-P7-P91-601530

>  <inspiration_score>  (4862) 
None

$$$$
YJULIZIQIVYMLR-UHFFFAOYSA-N-P7-P7-P91-601530
     RDKit          3D

 18 21  0  0  0  0  0  0  0  0999 V2000
   -4.5730    7.4332  -14.9038 Br  0  0  0  0  0  0  0  0  0  0  0  0
   -3.8667    6.3165  -16.3518 C   0  0  0  0  0  0  0  0  0  0  0  0
   -4.9534    5.5717  -17.0419 C   0  0  0  0  0  0  0  0  0  0  0  0
   -5.9774    5.0165  -16.2657 C   0  0  0  0  0  0  0  0  0  0  0  0
   -7.1487    4.5985  -16.8558 C   0  0  0  0  0  0  0  0  0  0  0  0
   -8.2345    4.2550  -16.0522 C   0  0  0  0  0  0  0  0  0  0  0  0
   -9.4320    3.9512  -16.6487 C   0  0  0  0  0  0  0  0  0  0  0  0
   -9.5249    3.9451  -18.0255 C   0  0  0  0  0  0  0  0  0  0  0  0
   -8.4101    4.2295  -18.8121 C   0  0  0  0  0  0  0  0  0  0  0  0
   -7.2074    4.5956  -18.2500 C   0  0  0  0  0  0  0  0  0  0  0  0
   -6.1605    4.9590  -19.0125 N   0  0  0  0  0  0  0  0  0  0  0  0
   -5.0507    5.4446  -18.4241 C   0  0  0  0  0  0  0  0  0  0  0  0
   -4.0941    5.8708  -19.3543 N   0  0  0  0  0  0  0  0  0  0  0  0
   -2.7264    5.6398  -19.3727 C   0  0  0  0  0  0  0  0  0  0  0  0
   -1.9874    4.3240  -19.6537 C   0  0  0  0  0  0  0  0  0  0  0  0
   -0.8329    5.4027  -19.6175 C   0  0  0  0  0  0  0  0  0  0  0  0
   -1.6050    5.9933  -18.3833 C   0  0  0  0  0  0  0  0  0  0  0  0
   -1.8187    6.2875  -20.4596 C   0  0  0  0  0  0  0  0  0  0  0  0
  1  2  1  0
  2  3  1  0
  3  4  2  0
  4  5  1  0
  5  6  2  0
  6  7  1  0
  7  8  2  0
  8  9  1  0
  9 10  2  0
 10 11  1  0
 11 12  2  0
 12 13  1  0
 13 14  1  0
 14 15  1  0
 15 16  1  0
 16 17  1  0
 16 18  1  0
 12  3  1  0
 17 14  1  0
 10  5  1  0
 18 14  1  0
M  END
>  <energy_score>  (4863) 
-22.187532

>  <alias>  (4863) 
YJULIZIQIVYMLR-UHFFFAOYSA-N-P7-P7-P91-601530

>  <HIPPO Pose ID>  (4863) 
86355

>  <smiles>  (4863) 
BrCc1cc2ccccc2nc1NC12CC(C1)C2

>  <inchikey>  (4863) 
YJULIZIQIVYMLR-UHFFFAOYSA-N

>  <distance_score>  (4863) 
1.950048

>  <ref_mols>  (4863) 
Z1688a,Z0089a

>  <ref_pdb>  (4863) 
Z0089a

>  <HIPPO Compound ID>  (4863) 
146329

>  <name>  (4863) 
YJULIZIQIVYMLR-UHFFFAOYSA-N-P7-P7-P91-601530

>  <inspiration_score>  (4863) 
None

$$$$
VYUVMESPVFOFJR-UHFFFAOYSA-N-P91-P7-P91-601530
     RDKit          3D

 18 20  0  0  0  0  0  0  0  0999 V2000
   -4.1160    6.9228  -15.1726 O   0  0  0  0  0  0  0  0  0  0  0  0
   -3.6948    6.2870  -16.3815 C   0  0  0  0  0  0  0  0  0  0  0  0
   -4.8572    5.6402  -17.0575 C   0  0  0  0  0  0  0  0  0  0  0  0
   -5.9571    5.3045  -16.2655 C   0  0  0  0  0  0  0  0  0  0  0  0
   -7.1016    4.8072  -16.8405 C   0  0  0  0  0  0  0  0  0  0  0  0
   -8.1827    4.4931  -16.0272 C   0  0  0  0  0  0  0  0  0  0  0  0
   -9.3338    4.0492  -16.6175 C   0  0  0  0  0  0  0  0  0  0  0  0
   -9.4089    3.9558  -17.9911 C   0  0  0  0  0  0  0  0  0  0  0  0
   -8.3028    4.2268  -18.7890 C   0  0  0  0  0  0  0  0  0  0  0  0
   -7.1205    4.6460  -18.2295 C   0  0  0  0  0  0  0  0  0  0  0  0
   -6.0441    4.8790  -18.9946 N   0  0  0  0  0  0  0  0  0  0  0  0
   -4.9202    5.3391  -18.4178 C   0  0  0  0  0  0  0  0  0  0  0  0
   -3.8726    5.4659  -19.3261 N   0  0  0  0  0  0  0  0  0  0  0  0
   -2.4764    5.4413  -19.0955 C   0  0  1  0  0  0  0  0  0  0  0  0
   -1.6623    4.6944  -20.1665 C   0  0  0  0  0  0  0  0  0  0  0  0
   -0.6499    5.8702  -20.1271 C   0  0  2  0  0  0  0  0  0  0  0  0
    0.8545    5.6923  -18.9027 Br  0  0  0  0  0  0  0  0  0  0  0  0
   -1.8047    6.7437  -19.5827 C   0  0  0  0  0  0  0  0  0  0  0  0
  1  2  1  0
  2  3  1  0
  3  4  2  0
  4  5  1  0
  5  6  2  0
  6  7  1  0
  7  8  2  0
  8  9  1  0
  9 10  2  0
 10 11  1  0
 11 12  2  0
 12 13  1  0
 14 13  1  6
 14 15  1  0
 15 16  1  0
 16 17  1  1
 16 18  1  0
 12  3  1  0
 18 14  1  0
 10  5  1  0
M  END
>  <energy_score>  (4864) 
-26.235727

>  <alias>  (4864) 
VYUVMESPVFOFJR-UHFFFAOYSA-N-P91-P7-P91-601530

>  <HIPPO Pose ID>  (4864) 
86362

>  <smiles>  (4864) 
OCc1cc2ccccc2nc1NC1CC(Br)C1

>  <inchikey>  (4864) 
VYUVMESPVFOFJR-UHFFFAOYSA-N

>  <distance_score>  (4864) 
1.907845

>  <ref_mols>  (4864) 
Z1688a,Z0089a

>  <ref_pdb>  (4864) 
Z0089a

>  <HIPPO Compound ID>  (4864) 
146332

>  <name>  (4864) 
VYUVMESPVFOFJR-UHFFFAOYSA-N-P91-P7-P91-601530

>  <inspiration_score>  (4864) 
None

$$$$
LJYUZSBUYYWMNA-UHFFFAOYSA-N-P91-P7-P91-601530
     RDKit          3D

 18 20  0  0  0  0  0  0  0  0999 V2000
   -1.6298    8.4258  -19.2807 C   0  0  0  0  0  0  0  0  0  0  0  0
   -1.4891    7.2435  -20.2226 C   0  0  0  0  0  0  0  0  0  0  0  0
   -1.4327    5.9343  -19.4911 C   0  0  2  0  0  0  0  0  0  0  0  0
   -1.7549    4.6863  -20.2676 C   0  0  0  0  0  0  0  0  0  0  0  0
   -2.6541    5.1164  -19.1487 C   0  0  2  0  0  0  0  0  0  0  0  0
   -3.9958    5.6297  -19.4179 N   0  0  0  0  0  0  0  0  0  0  0  0
   -5.0207    5.4187  -18.4831 C   0  0  0  0  0  0  0  0  0  0  0  0
   -6.1551    4.9547  -19.0332 N   0  0  0  0  0  0  0  0  0  0  0  0
   -7.1935    4.6815  -18.2333 C   0  0  0  0  0  0  0  0  0  0  0  0
   -8.3909    4.2625  -18.7614 C   0  0  0  0  0  0  0  0  0  0  0  0
   -9.4676    3.9689  -17.9333 C   0  0  0  0  0  0  0  0  0  0  0  0
   -9.3413    4.0357  -16.5616 C   0  0  0  0  0  0  0  0  0  0  0  0
   -8.1715    4.4693  -16.0001 C   0  0  0  0  0  0  0  0  0  0  0  0
   -7.1216    4.8087  -16.8412 C   0  0  0  0  0  0  0  0  0  0  0  0
   -5.9599    5.2983  -16.2917 C   0  0  0  0  0  0  0  0  0  0  0  0
   -4.8976    5.6666  -17.1154 C   0  0  0  0  0  0  0  0  0  0  0  0
   -3.6957    6.2886  -16.4881 C   0  0  0  0  0  0  0  0  0  0  0  0
   -4.0406    6.8549  -15.2219 O   0  0  0  0  0  0  0  0  0  0  0  0
  1  2  1  0
  3  2  1  6
  3  4  1  0
  4  5  1  0
  5  6  1  6
  6  7  1  0
  7  8  2  0
  8  9  1  0
  9 10  2  0
 10 11  1  0
 11 12  2  0
 12 13  1  0
 13 14  2  0
 14 15  1  0
 15 16  2  0
 16 17  1  0
 17 18  1  0
  5  3  1  0
 16  7  1  0
 14  9  1  0
M  END
>  <energy_score>  (4865) 
-32.045865

>  <alias>  (4865) 
LJYUZSBUYYWMNA-UHFFFAOYSA-N-P91-P7-P91-601530

>  <HIPPO Pose ID>  (4865) 
86372

>  <smiles>  (4865) 
CCC1CC1Nc1nc2ccccc2cc1CO

>  <inchikey>  (4865) 
LJYUZSBUYYWMNA-UHFFFAOYSA-N

>  <distance_score>  (4865) 
1.9205

>  <ref_mols>  (4865) 
Z1688a,Z0089a

>  <ref_pdb>  (4865) 
Z0089a

>  <HIPPO Compound ID>  (4865) 
146337

>  <name>  (4865) 
LJYUZSBUYYWMNA-UHFFFAOYSA-N-P91-P7-P91-601530

>  <inspiration_score>  (4865) 
None

$$$$
NPCDKPYLPUZMNJ-UHFFFAOYSA-N-P7-P7-P91-601530
     RDKit          3D

 18 20  0  0  0  0  0  0  0  0999 V2000
   -1.8961    8.3477  -20.4683 C   0  0  0  0  0  0  0  0  0  0  0  0
   -1.6148    6.8697  -20.6861 C   0  0  0  0  0  0  0  0  0  0  0  0
   -1.7766    6.0924  -19.4169 C   0  0  2  0  0  0  0  0  0  0  0  0
   -2.0589    4.6162  -19.4617 C   0  0  0  0  0  0  0  0  0  0  0  0
   -3.1321    5.5666  -19.0090 C   0  0  1  0  0  0  0  0  0  0  0  0
   -3.5164    5.6483  -17.5914 N   0  0  0  0  0  0  0  0  0  0  0  0
   -4.8478    5.3561  -17.2189 C   0  0  0  0  0  0  0  0  0  0  0  0
   -5.2516    5.5153  -15.8882 C   0  0  0  0  0  0  0  0  0  0  0  0
   -6.5849    5.2608  -15.5002 C   0  0  0  0  0  0  0  0  0  0  0  0
   -7.0349    5.6113  -14.1053 C   0  0  0  0  0  0  0  0  0  0  0  0
   -7.2350    4.0669  -12.9620 Br  0  0  0  0  0  0  0  0  0  0  0  0
   -7.4701    4.7885  -16.4928 C   0  0  0  0  0  0  0  0  0  0  0  0
   -8.8301    4.4723  -16.2794 C   0  0  0  0  0  0  0  0  0  0  0  0
   -9.6616    4.1436  -17.3486 C   0  0  0  0  0  0  0  0  0  0  0  0
   -9.1415    4.0969  -18.6291 C   0  0  0  0  0  0  0  0  0  0  0  0
   -7.7915    4.3293  -18.8379 C   0  0  0  0  0  0  0  0  0  0  0  0
   -6.9568    4.6745  -17.8045 C   0  0  0  0  0  0  0  0  0  0  0  0
   -5.6981    4.9345  -18.1487 N   0  0  0  0  0  0  0  0  0  0  0  0
  1  2  1  0
  3  2  1  6
  3  4  1  0
  4  5  1  0
  5  6  1  1
  6  7  1  0
  7  8  2  0
  8  9  1  0
  9 10  1  0
 10 11  1  0
  9 12  2  0
 12 13  1  0
 13 14  2  0
 14 15  1  0
 15 16  2  0
 16 17  1  0
 17 18  2  0
  5  3  1  0
 18  7  1  0
 17 12  1  0
M  END
>  <energy_score>  (4866) 
-18.133596

>  <alias>  (4866) 
NPCDKPYLPUZMNJ-UHFFFAOYSA-N-P7-P7-P91-601530

>  <HIPPO Pose ID>  (4866) 
86373

>  <smiles>  (4866) 
CCC1CC1Nc1cc(CBr)c2ccccc2n1

>  <inchikey>  (4866) 
NPCDKPYLPUZMNJ-UHFFFAOYSA-N

>  <distance_score>  (4866) 
0.998762

>  <ref_mols>  (4866) 
Z1688a,Z0089a

>  <ref_pdb>  (4866) 
Z0089a

>  <HIPPO Compound ID>  (4866) 
146338

>  <name>  (4866) 
NPCDKPYLPUZMNJ-UHFFFAOYSA-N-P7-P7-P91-601530

>  <inspiration_score>  (4866) 
None

$$$$
MWWZSYJQYPSXGE-UHFFFAOYSA-N-P7-P7-P91-601530
     RDKit          3D

 18 20  0  0  0  0  0  0  0  0999 V2000
    0.6938    6.2382  -19.0451 C   0  0  0  0  0  0  0  0  0  0  0  0
   -0.7057    6.4380  -18.4844 C   0  0  0  0  0  0  0  0  0  0  0  0
   -1.7529    5.9653  -19.4473 C   0  0  1  0  0  0  0  0  0  0  0  0
   -2.1312    4.5110  -19.4712 C   0  0  0  0  0  0  0  0  0  0  0  0
   -3.1294    5.5306  -18.9974 C   0  0  1  0  0  0  0  0  0  0  0  0
   -3.5052    5.5996  -17.5784 N   0  0  0  0  0  0  0  0  0  0  0  0
   -4.8283    5.2969  -17.1907 C   0  0  0  0  0  0  0  0  0  0  0  0
   -5.1801    5.3325  -15.8437 C   0  0  0  0  0  0  0  0  0  0  0  0
   -6.4991    5.0370  -15.4538 C   0  0  0  0  0  0  0  0  0  0  0  0
   -6.7975    5.1261  -13.9910 C   0  0  0  0  0  0  0  0  0  0  0  0
   -7.9092    5.1609  -13.4822 O   0  0  0  0  0  0  0  0  0  0  0  0
   -7.4485    4.6966  -16.4360 C   0  0  0  0  0  0  0  0  0  0  0  0
   -8.8095    4.3761  -16.2185 C   0  0  0  0  0  0  0  0  0  0  0  0
   -9.6640    4.1266  -17.2920 C   0  0  0  0  0  0  0  0  0  0  0  0
   -9.1698    4.1522  -18.5830 C   0  0  0  0  0  0  0  0  0  0  0  0
   -7.8239    4.3992  -18.7993 C   0  0  0  0  0  0  0  0  0  0  0  0
   -6.9706    4.6859  -17.7625 C   0  0  0  0  0  0  0  0  0  0  0  0
   -5.7179    4.9660  -18.1197 N   0  0  0  0  0  0  0  0  0  0  0  0
  1  2  1  0
  3  2  1  1
  3  4  1  0
  4  5  1  0
  5  6  1  1
  6  7  1  0
  7  8  2  0
  8  9  1  0
  9 10  1  0
 10 11  2  0
  9 12  2  0
 12 13  1  0
 13 14  2  0
 14 15  1  0
 15 16  2  0
 16 17  1  0
 17 18  2  0
  5  3  1  0
 18  7  1  0
 17 12  1  0
M  END
>  <energy_score>  (4867) 
-15.95181

>  <alias>  (4867) 
MWWZSYJQYPSXGE-UHFFFAOYSA-N-P7-P7-P91-601530

>  <HIPPO Pose ID>  (4867) 
86377

>  <smiles>  (4867) 
CCC1CC1Nc1cc(C=O)c2ccccc2n1

>  <inchikey>  (4867) 
MWWZSYJQYPSXGE-UHFFFAOYSA-N

>  <distance_score>  (4867) 
1.082078

>  <ref_mols>  (4867) 
Z1688a,Z0089a

>  <ref_pdb>  (4867) 
Z0089a

>  <HIPPO Compound ID>  (4867) 
146340

>  <name>  (4867) 
MWWZSYJQYPSXGE-UHFFFAOYSA-N-P7-P7-P91-601530

>  <inspiration_score>  (4867) 
None

$$$$
VRBSASSPSOHDFZ-UHFFFAOYSA-N-P91-P7-P91-601531
     RDKit          3D

 18 19  0  0  0  0  0  0  0  0999 V2000
   -1.5973    5.2859  -21.3919 C   0  0  0  0  0  0  0  0  0  0  0  0
   -1.7426    4.7157  -19.9887 C   0  0  0  0  0  0  0  0  0  0  0  0
   -2.4822    5.6066  -18.9715 C   0  0  0  0  0  0  0  0  0  0  0  0
   -1.9004    7.0328  -18.8880 C   0  0  0  0  0  0  0  0  0  0  0  0
   -2.5147    8.0802  -19.8117 C   0  0  0  0  0  0  0  0  0  0  0  0
   -3.9088    5.6449  -19.2451 N   0  0  0  0  0  0  0  0  0  0  0  0
   -4.9152    5.3871  -18.3485 C   0  0  0  0  0  0  0  0  0  0  0  0
   -6.0231    4.9242  -18.9544 N   0  0  0  0  0  0  0  0  0  0  0  0
   -7.1173    4.6504  -18.2218 C   0  0  0  0  0  0  0  0  0  0  0  0
   -8.2812    4.2405  -18.8198 C   0  0  0  0  0  0  0  0  0  0  0  0
   -9.4101    3.9687  -18.0560 C   0  0  0  0  0  0  0  0  0  0  0  0
   -9.3781    4.0359  -16.6799 C   0  0  0  0  0  0  0  0  0  0  0  0
   -8.2425    4.4540  -16.0471 C   0  0  0  0  0  0  0  0  0  0  0  0
   -7.1413    4.7785  -16.8267 C   0  0  0  0  0  0  0  0  0  0  0  0
   -6.0181    5.2573  -16.2074 C   0  0  0  0  0  0  0  0  0  0  0  0
   -4.9074    5.5969  -16.9745 C   0  0  0  0  0  0  0  0  0  0  0  0
   -3.8700    6.1933  -16.2232 C   0  0  0  0  0  0  0  0  0  0  0  0
   -3.1373    6.6634  -15.4590 N   0  0  0  0  0  0  0  0  0  0  0  0
  1  2  1  0
  2  3  1  0
  3  4  1  0
  4  5  1  0
  3  6  1  0
  6  7  1  0
  7  8  2  0
  8  9  1  0
  9 10  2  0
 10 11  1  0
 11 12  2  0
 12 13  1  0
 13 14  2  0
 14 15  1  0
 15 16  2  0
 16 17  1  0
 17 18  3  0
 16  7  1  0
 14  9  1  0
M  END
>  <energy_score>  (4868) 
-16.363976

>  <alias>  (4868) 
VRBSASSPSOHDFZ-UHFFFAOYSA-N-P91-P7-P91-601531

>  <HIPPO Pose ID>  (4868) 
86382

>  <smiles>  (4868) 
CCC(CC)Nc1nc2ccccc2cc1C#N

>  <inchikey>  (4868) 
VRBSASSPSOHDFZ-UHFFFAOYSA-N

>  <distance_score>  (4868) 
1.95268

>  <ref_mols>  (4868) 
Z1688a,Z0089a

>  <ref_pdb>  (4868) 
Z0089a

>  <HIPPO Compound ID>  (4868) 
146342

>  <name>  (4868) 
VRBSASSPSOHDFZ-UHFFFAOYSA-N-P91-P7-P91-601531

>  <inspiration_score>  (4868) 
None

$$$$
SBCLWBGVZNGSEH-UHFFFAOYSA-N-P7-P7-P91-601531
     RDKit          3D

 18 19  0  0  0  0  0  0  0  0999 V2000
   -1.7426    3.6153  -19.6794 C   0  0  0  0  0  0  0  0  0  0  0  0
   -1.7180    5.1049  -19.9300 C   0  0  0  0  0  0  0  0  0  0  0  0
   -2.5486    5.8900  -18.9151 C   0  0  0  0  0  0  0  0  0  0  0  0
   -2.2770    7.4012  -19.0390 C   0  0  0  0  0  0  0  0  0  0  0  0
   -2.5269    7.9984  -20.4207 C   0  0  0  0  0  0  0  0  0  0  0  0
   -3.9622    5.6472  -19.1109 N   0  0  0  0  0  0  0  0  0  0  0  0
   -4.9571    5.3558  -18.2286 C   0  0  0  0  0  0  0  0  0  0  0  0
   -6.0560    4.9267  -18.8804 N   0  0  0  0  0  0  0  0  0  0  0  0
   -7.1603    4.5959  -18.1909 C   0  0  0  0  0  0  0  0  0  0  0  0
   -8.3213    4.2450  -18.8372 C   0  0  0  0  0  0  0  0  0  0  0  0
   -9.4904    3.9767  -18.1312 C   0  0  0  0  0  0  0  0  0  0  0  0
   -9.4967    3.9788  -16.7521 C   0  0  0  0  0  0  0  0  0  0  0  0
   -8.3427    4.2712  -16.0712 C   0  0  0  0  0  0  0  0  0  0  0  0
   -7.1993    4.5996  -16.7986 C   0  0  0  0  0  0  0  0  0  0  0  0
   -6.0546    4.9792  -16.1373 C   0  0  0  0  0  0  0  0  0  0  0  0
   -4.9412    5.4659  -16.8412 C   0  0  0  0  0  0  0  0  0  0  0  0
   -3.8388    6.0519  -16.0293 C   0  0  0  0  0  0  0  0  0  0  0  0
   -4.5466    7.2779  -14.6732 Br  0  0  0  0  0  0  0  0  0  0  0  0
  1  2  1  0
  2  3  1  0
  3  4  1  0
  4  5  1  0
  3  6  1  0
  6  7  1  0
  7  8  2  0
  8  9  1  0
  9 10  2  0
 10 11  1  0
 11 12  2  0
 12 13  1  0
 13 14  2  0
 14 15  1  0
 15 16  2  0
 16 17  1  0
 17 18  1  0
 16  7  1  0
 14  9  1  0
M  END
>  <energy_score>  (4869) 
-21.471768

>  <alias>  (4869) 
SBCLWBGVZNGSEH-UHFFFAOYSA-N-P7-P7-P91-601531

>  <HIPPO Pose ID>  (4869) 
86387

>  <smiles>  (4869) 
CCC(CC)Nc1nc2ccccc2cc1CBr

>  <inchikey>  (4869) 
SBCLWBGVZNGSEH-UHFFFAOYSA-N

>  <distance_score>  (4869) 
1.967977

>  <ref_mols>  (4869) 
Z1688a,Z0089a

>  <ref_pdb>  (4869) 
Z0089a

>  <HIPPO Compound ID>  (4869) 
146345

>  <name>  (4869) 
SBCLWBGVZNGSEH-UHFFFAOYSA-N-P7-P7-P91-601531

>  <inspiration_score>  (4869) 
None

$$$$
KDGAGXROFGLJIR-UHFFFAOYSA-N-P91-P7-P91-601531
     RDKit          3D

 18 20  0  0  0  0  0  0  0  0999 V2000
   -4.1457    6.9904  -15.2107 O   0  0  0  0  0  0  0  0  0  0  0  0
   -3.7010    6.2775  -16.3680 C   0  0  0  0  0  0  0  0  0  0  0  0
   -4.8592    5.6251  -17.0461 C   0  0  0  0  0  0  0  0  0  0  0  0
   -5.9422    5.2476  -16.2511 C   0  0  0  0  0  0  0  0  0  0  0  0
   -7.0932    4.7747  -16.8338 C   0  0  0  0  0  0  0  0  0  0  0  0
   -8.1720    4.4482  -16.0223 C   0  0  0  0  0  0  0  0  0  0  0  0
   -9.3342    4.0402  -16.6171 C   0  0  0  0  0  0  0  0  0  0  0  0
   -9.4184    3.9812  -17.9920 C   0  0  0  0  0  0  0  0  0  0  0  0
   -8.3127    4.2562  -18.7892 C   0  0  0  0  0  0  0  0  0  0  0  0
   -7.1238    4.6554  -18.2282 C   0  0  0  0  0  0  0  0  0  0  0  0
   -6.0541    4.9151  -18.9958 N   0  0  0  0  0  0  0  0  0  0  0  0
   -4.9301    5.3618  -18.4132 C   0  0  0  0  0  0  0  0  0  0  0  0
   -3.8705    5.5346  -19.3106 N   0  0  0  0  0  0  0  0  0  0  0  0
   -2.5041    5.2405  -19.0334 C   0  0  1  0  0  0  0  0  0  0  0  0
   -1.7467    4.5547  -20.1856 C   0  0  0  0  0  0  0  0  0  0  0  0
   -0.5485    5.4691  -19.8199 C   0  0  2  0  0  0  0  0  0  0  0  0
    0.2929    4.9865  -18.8734 F   0  0  0  0  0  0  0  0  0  0  0  0
   -1.5979    6.4686  -19.2824 C   0  0  0  0  0  0  0  0  0  0  0  0
  1  2  1  0
  2  3  1  0
  3  4  2  0
  4  5  1  0
  5  6  2  0
  6  7  1  0
  7  8  2  0
  8  9  1  0
  9 10  2  0
 10 11  1  0
 11 12  2  0
 12 13  1  0
 14 13  1  6
 14 15  1  0
 15 16  1  0
 16 17  1  1
 16 18  1  0
 12  3  1  0
 18 14  1  0
 10  5  1  0
M  END
>  <energy_score>  (4870) 
-15.217137

>  <alias>  (4870) 
KDGAGXROFGLJIR-UHFFFAOYSA-N-P91-P7-P91-601531

>  <HIPPO Pose ID>  (4870) 
86394

>  <smiles>  (4870) 
OCc1cc2ccccc2nc1NC1CC(F)C1

>  <inchikey>  (4870) 
KDGAGXROFGLJIR-UHFFFAOYSA-N

>  <distance_score>  (4870) 
1.910206

>  <ref_mols>  (4870) 
Z1688a,Z0089a

>  <ref_pdb>  (4870) 
Z0089a

>  <HIPPO Compound ID>  (4870) 
146348

>  <name>  (4870) 
KDGAGXROFGLJIR-UHFFFAOYSA-N-P91-P7-P91-601531

>  <inspiration_score>  (4870) 
None

$$$$
SZDQAYKPCAZFJG-UHFFFAOYSA-N-P91-P7-P91-601531
     RDKit          3D

 18 20  0  0  0  0  0  0  0  0999 V2000
   -0.4341    6.8547  -20.3850 F   0  0  0  0  0  0  0  0  0  0  0  0
   -1.4996    6.0281  -20.2811 C   0  0  1  0  0  0  0  0  0  0  0  0
   -1.4711    5.0249  -19.1036 C   0  0  0  0  0  0  0  0  0  0  0  0
   -2.9831    5.2754  -18.9491 C   0  0  1  0  0  0  0  0  0  0  0  0
   -3.3946    5.3804  -17.5766 N   0  0  0  0  0  0  0  0  0  0  0  0
   -4.7469    5.2753  -17.2031 C   0  0  0  0  0  0  0  0  0  0  0  0
   -5.1520    5.4448  -15.8764 C   0  0  0  0  0  0  0  0  0  0  0  0
   -6.5054    5.2684  -15.5078 C   0  0  0  0  0  0  0  0  0  0  0  0
   -6.9569    5.6268  -14.1162 C   0  0  0  0  0  0  0  0  0  0  0  0
   -7.2214    4.0913  -12.9745 Br  0  0  0  0  0  0  0  0  0  0  0  0
   -7.4029    4.8437  -16.5124 C   0  0  0  0  0  0  0  0  0  0  0  0
   -8.7727    4.5595  -16.3174 C   0  0  0  0  0  0  0  0  0  0  0  0
   -9.5994    4.2622  -17.4004 C   0  0  0  0  0  0  0  0  0  0  0  0
   -9.0659    4.2174  -18.6750 C   0  0  0  0  0  0  0  0  0  0  0  0
   -7.7088    4.4041  -18.8639 C   0  0  0  0  0  0  0  0  0  0  0  0
   -6.8833    4.7274  -17.8193 C   0  0  0  0  0  0  0  0  0  0  0  0
   -5.6161    4.9473  -18.1495 N   0  0  0  0  0  0  0  0  0  0  0  0
   -2.7568    6.6431  -19.6225 C   0  0  0  0  0  0  0  0  0  0  0  0
  2  1  1  1
  2  3  1  0
  3  4  1  0
  4  5  1  1
  5  6  1  0
  6  7  2  0
  7  8  1  0
  8  9  1  0
  9 10  1  0
  8 11  2  0
 11 12  1  0
 12 13  2  0
 13 14  1  0
 14 15  2  0
 15 16  1  0
 16 17  2  0
  4 18  1  0
 18  2  1  0
 17  6  1  0
 16 11  1  0
M  END
>  <energy_score>  (4871) 
-26.276932

>  <alias>  (4871) 
SZDQAYKPCAZFJG-UHFFFAOYSA-N-P91-P7-P91-601531

>  <HIPPO Pose ID>  (4871) 
86396

>  <smiles>  (4871) 
FC1CC(Nc2cc(CBr)c3ccccc3n2)C1

>  <inchikey>  (4871) 
SZDQAYKPCAZFJG-UHFFFAOYSA-N

>  <distance_score>  (4871) 
1.014663

>  <ref_mols>  (4871) 
Z1688a,Z0089a

>  <ref_pdb>  (4871) 
Z0089a

>  <HIPPO Compound ID>  (4871) 
146349

>  <name>  (4871) 
SZDQAYKPCAZFJG-UHFFFAOYSA-N-P91-P7-P91-601531

>  <inspiration_score>  (4871) 
None

$$$$
PZJRNCYINPSINZ-UHFFFAOYSA-N-P91-P7-P91-601531
     RDKit          3D

 18 20  0  0  0  0  0  0  0  0999 V2000
   -1.7221    7.2000  -20.7065 C   0  0  0  0  0  0  0  0  0  0  0  0
   -1.8008    6.6343  -19.2942 C   0  0  2  0  0  0  0  0  0  0  0  0
   -0.8921    5.4142  -19.0177 C   0  0  0  0  0  0  0  0  0  0  0  0
   -2.1079    4.5053  -19.2766 C   0  0  0  0  0  0  0  0  0  0  0  0
   -3.0280    5.7181  -19.0159 C   0  0  1  0  0  0  0  0  0  0  0  0
   -3.4544    5.7960  -17.6334 N   0  0  0  0  0  0  0  0  0  0  0  0
   -4.7622    5.4391  -17.2372 C   0  0  0  0  0  0  0  0  0  0  0  0
   -5.1745    5.6031  -15.9103 C   0  0  0  0  0  0  0  0  0  0  0  0
   -6.5071    5.3287  -15.5277 C   0  0  0  0  0  0  0  0  0  0  0  0
   -6.9726    5.6791  -14.1381 C   0  0  0  0  0  0  0  0  0  0  0  0
   -7.2034    4.1393  -12.9932 Br  0  0  0  0  0  0  0  0  0  0  0  0
   -7.3815    4.8465  -16.5261 C   0  0  0  0  0  0  0  0  0  0  0  0
   -8.7459    4.5374  -16.3306 C   0  0  0  0  0  0  0  0  0  0  0  0
   -9.5641    4.2161  -17.4120 C   0  0  0  0  0  0  0  0  0  0  0  0
   -9.0226    4.1579  -18.6830 C   0  0  0  0  0  0  0  0  0  0  0  0
   -7.6670    4.3608  -18.8710 C   0  0  0  0  0  0  0  0  0  0  0  0
   -6.8509    4.7171  -17.8295 C   0  0  0  0  0  0  0  0  0  0  0  0
   -5.5926    4.9841  -18.1645 N   0  0  0  0  0  0  0  0  0  0  0  0
  2  1  1  6
  2  3  1  0
  3  4  1  0
  4  5  1  0
  5  6  1  1
  6  7  1  0
  7  8  2  0
  8  9  1  0
  9 10  1  0
 10 11  1  0
  9 12  2  0
 12 13  1  0
 13 14  2  0
 14 15  1  0
 15 16  2  0
 16 17  1  0
 17 18  2  0
  5  2  1  0
 18  7  1  0
 17 12  1  0
M  END
>  <energy_score>  (4872) 
-34.24227

>  <alias>  (4872) 
PZJRNCYINPSINZ-UHFFFAOYSA-N-P91-P7-P91-601531

>  <HIPPO Pose ID>  (4872) 
86402

>  <smiles>  (4872) 
CC1CCC1Nc1cc(CBr)c2ccccc2n1

>  <inchikey>  (4872) 
PZJRNCYINPSINZ-UHFFFAOYSA-N

>  <distance_score>  (4872) 
0.990178

>  <ref_mols>  (4872) 
Z1688a,Z0089a

>  <ref_pdb>  (4872) 
Z0089a

>  <HIPPO Compound ID>  (4872) 
146352

>  <name>  (4872) 
PZJRNCYINPSINZ-UHFFFAOYSA-N-P91-P7-P91-601531

>  <inspiration_score>  (4872) 
None

$$$$
GBBVBXFCLXLPRM-UHFFFAOYSA-N-P91-P7-P91-601531
     RDKit          3D

 18 20  0  0  0  0  0  0  0  0999 V2000
   -2.2540    7.9761  -19.3209 C   0  0  0  0  0  0  0  0  0  0  0  0
   -1.6649    6.5775  -19.3387 C   0  0  2  0  0  0  0  0  0  0  0  0
   -1.4227    5.9691  -20.7430 C   0  0  0  0  0  0  0  0  0  0  0  0
   -1.8087    4.5992  -20.1562 C   0  0  0  0  0  0  0  0  0  0  0  0
   -2.5450    5.3345  -19.0183 C   0  0  2  0  0  0  0  0  0  0  0  0
   -3.9323    5.5394  -19.2945 N   0  0  0  0  0  0  0  0  0  0  0  0
   -4.9911    5.3616  -18.4033 C   0  0  0  0  0  0  0  0  0  0  0  0
   -6.1127    4.9096  -18.9887 N   0  0  0  0  0  0  0  0  0  0  0  0
   -7.1872    4.6569  -18.2248 C   0  0  0  0  0  0  0  0  0  0  0  0
   -8.3645    4.2373  -18.7899 C   0  0  0  0  0  0  0  0  0  0  0  0
   -9.4666    3.9556  -17.9928 C   0  0  0  0  0  0  0  0  0  0  0  0
   -9.3905    4.0329  -16.6187 C   0  0  0  0  0  0  0  0  0  0  0  0
   -8.2474    4.4788  -16.0192 C   0  0  0  0  0  0  0  0  0  0  0  0
   -7.1724    4.8071  -16.8292 C   0  0  0  0  0  0  0  0  0  0  0  0
   -6.0388    5.3043  -16.2403 C   0  0  0  0  0  0  0  0  0  0  0  0
   -4.9452    5.6148  -17.0371 C   0  0  0  0  0  0  0  0  0  0  0  0
   -3.8707    6.2217  -16.3469 C   0  0  0  0  0  0  0  0  0  0  0  0
   -3.1016    6.7118  -15.6333 N   0  0  0  0  0  0  0  0  0  0  0  0
  2  1  1  6
  2  3  1  0
  3  4  1  0
  4  5  1  0
  5  6  1  6
  6  7  1  0
  7  8  2  0
  8  9  1  0
  9 10  2  0
 10 11  1  0
 11 12  2  0
 12 13  1  0
 13 14  2  0
 14 15  1  0
 15 16  2  0
 16 17  1  0
 17 18  3  0
  5  2  1  0
 16  7  1  0
 14  9  1  0
M  END
>  <energy_score>  (4873) 
-14.360596

>  <alias>  (4873) 
GBBVBXFCLXLPRM-UHFFFAOYSA-N-P91-P7-P91-601531

>  <HIPPO Pose ID>  (4873) 
86414

>  <smiles>  (4873) 
CC1CCC1Nc1nc2ccccc2cc1C#N

>  <inchikey>  (4873) 
GBBVBXFCLXLPRM-UHFFFAOYSA-N

>  <distance_score>  (4873) 
1.951179

>  <ref_mols>  (4873) 
Z1688a,Z0089a

>  <ref_pdb>  (4873) 
Z0089a

>  <HIPPO Compound ID>  (4873) 
146358

>  <name>  (4873) 
GBBVBXFCLXLPRM-UHFFFAOYSA-N-P91-P7-P91-601531

>  <inspiration_score>  (4873) 
None

$$$$
OJOXELYARCDREZ-UHFFFAOYSA-N-P7-P7-P91-601531
     RDKit          3D

 18 20  0  0  0  0  0  0  0  0999 V2000
   -0.3975    6.0745  -19.7874 C   0  0  0  0  0  0  0  0  0  0  0  0
   -1.3004    5.4009  -18.8095 C   0  0  2  0  0  0  0  0  0  0  0  0
   -2.2672    4.3585  -19.2865 C   0  0  0  0  0  0  0  0  0  0  0  0
   -2.8076    5.6568  -18.7286 C   0  0  2  0  0  0  0  0  0  0  0  0
   -3.3582    6.7005  -19.6644 C   0  0  0  0  0  0  0  0  0  0  0  0
   -3.3790    5.6711  -17.3578 N   0  0  0  0  0  0  0  0  0  0  0  0
   -4.7225    5.3145  -17.0801 C   0  0  0  0  0  0  0  0  0  0  0  0
   -5.1566    5.3726  -15.7551 C   0  0  0  0  0  0  0  0  0  0  0  0
   -6.4892    5.0713  -15.4275 C   0  0  0  0  0  0  0  0  0  0  0  0
   -6.8515    5.1739  -13.9788 C   0  0  0  0  0  0  0  0  0  0  0  0
   -7.9804    5.1532  -13.5091 O   0  0  0  0  0  0  0  0  0  0  0  0
   -7.3846    4.7208  -16.4530 C   0  0  0  0  0  0  0  0  0  0  0  0
   -8.7521    4.3883  -16.2889 C   0  0  0  0  0  0  0  0  0  0  0  0
   -9.5645    4.1308  -17.3920 C   0  0  0  0  0  0  0  0  0  0  0  0
   -9.0182    4.1648  -18.6628 C   0  0  0  0  0  0  0  0  0  0  0  0
   -7.6639    4.4338  -18.8265 C   0  0  0  0  0  0  0  0  0  0  0  0
   -6.8446    4.7218  -17.7588 C   0  0  0  0  0  0  0  0  0  0  0  0
   -5.5702    5.0093  -18.0574 N   0  0  0  0  0  0  0  0  0  0  0  0
  2  1  1  6
  2  3  1  0
  3  4  1  0
  4  5  1  6
  4  6  1  0
  6  7  1  0
  7  8  2  0
  8  9  1  0
  9 10  1  0
 10 11  2  0
  9 12  2  0
 12 13  1  0
 13 14  2  0
 14 15  1  0
 15 16  2  0
 16 17  1  0
 17 18  2  0
  4  2  1  0
 18  7  1  0
 17 12  1  0
M  END
>  <energy_score>  (4874) 
-17.796676

>  <alias>  (4874) 
OJOXELYARCDREZ-UHFFFAOYSA-N-P7-P7-P91-601531

>  <HIPPO Pose ID>  (4874) 
86437

>  <smiles>  (4874) 
CC1CC1(C)Nc1cc(C=O)c2ccccc2n1

>  <inchikey>  (4874) 
OJOXELYARCDREZ-UHFFFAOYSA-N

>  <distance_score>  (4874) 
1.103166

>  <ref_mols>  (4874) 
Z1688a,Z0089a

>  <ref_pdb>  (4874) 
Z0089a

>  <HIPPO Compound ID>  (4874) 
146370

>  <name>  (4874) 
OJOXELYARCDREZ-UHFFFAOYSA-N-P7-P7-P91-601531

>  <inspiration_score>  (4874) 
None

$$$$
QDLXAOWFQDCYQX-UHFFFAOYSA-N-P7-P7-P91-601531
     RDKit          3D

 18 20  0  0  0  0  0  0  0  0999 V2000
   -7.2046    4.0359  -12.9727 Br  0  0  0  0  0  0  0  0  0  0  0  0
   -6.9237    5.5693  -14.1139 C   0  0  0  0  0  0  0  0  0  0  0  0
   -6.5166    5.2041  -15.5180 C   0  0  0  0  0  0  0  0  0  0  0  0
   -5.1730    5.3703  -15.9271 C   0  0  0  0  0  0  0  0  0  0  0  0
   -4.8012    5.2088  -17.2659 C   0  0  0  0  0  0  0  0  0  0  0  0
   -3.4591    5.2975  -17.6491 N   0  0  0  0  0  0  0  0  0  0  0  0
   -3.1789    5.3017  -19.0897 C   0  0  0  0  0  0  0  0  0  0  0  0
   -1.8428    4.6160  -19.3669 C   0  0  0  0  0  0  0  0  0  0  0  0
   -0.7937    5.6597  -19.0076 C   0  0  0  0  0  0  0  0  0  0  0  0
   -1.4501    7.0113  -19.2830 C   0  0  0  0  0  0  0  0  0  0  0  0
   -2.9216    6.7246  -19.5859 C   0  0  0  0  0  0  0  0  0  0  0  0
   -5.7063    4.8946  -18.1834 N   0  0  0  0  0  0  0  0  0  0  0  0
   -6.9658    4.6754  -17.8165 C   0  0  0  0  0  0  0  0  0  0  0  0
   -7.8277    4.3536  -18.8349 C   0  0  0  0  0  0  0  0  0  0  0  0
   -9.1748    4.1346  -18.5996 C   0  0  0  0  0  0  0  0  0  0  0  0
   -9.6652    4.1803  -17.3078 C   0  0  0  0  0  0  0  0  0  0  0  0
   -8.8078    4.4968  -16.2549 C   0  0  0  0  0  0  0  0  0  0  0  0
   -7.4448    4.7840  -16.4941 C   0  0  0  0  0  0  0  0  0  0  0  0
  1  2  1  0
  2  3  1  0
  3  4  2  0
  4  5  1  0
  5  6  1  0
  6  7  1  0
  7  8  1  0
  8  9  1  0
  9 10  1  0
 10 11  1  0
  5 12  2  0
 12 13  1  0
 13 14  2  0
 14 15  1  0
 15 16  2  0
 16 17  1  0
 17 18  2  0
 18  3  1  0
 11  7  1  0
 18 13  1  0
M  END
>  <energy_score>  (4875) 
-16.683352

>  <alias>  (4875) 
QDLXAOWFQDCYQX-UHFFFAOYSA-N-P7-P7-P91-601531

>  <HIPPO Pose ID>  (4875) 
86439

>  <smiles>  (4875) 
BrCc1cc(NC2CCCC2)nc2ccccc12

>  <inchikey>  (4875) 
QDLXAOWFQDCYQX-UHFFFAOYSA-N

>  <distance_score>  (4875) 
0.996574

>  <ref_mols>  (4875) 
Z1688a,Z0089a

>  <ref_pdb>  (4875) 
Z0089a

>  <HIPPO Compound ID>  (4875) 
146371

>  <name>  (4875) 
QDLXAOWFQDCYQX-UHFFFAOYSA-N-P7-P7-P91-601531

>  <inspiration_score>  (4875) 
None

$$$$
AOHGCNOZGDHTKX-UHFFFAOYSA-N-P7-P7-P91-601531
     RDKit          3D

 18 20  0  0  0  0  0  0  0  0999 V2000
   -7.5075    5.1367  -13.4629 O   0  0  0  0  0  0  0  0  0  0  0  0
   -6.4897    5.3253  -14.1151 C   0  0  0  0  0  0  0  0  0  0  0  0
   -6.3428    5.1869  -15.5999 C   0  0  0  0  0  0  0  0  0  0  0  0
   -5.1092    5.5770  -16.1615 C   0  0  0  0  0  0  0  0  0  0  0  0
   -4.9492    5.5344  -17.5388 C   0  0  0  0  0  0  0  0  0  0  0  0
   -3.8724    6.0459  -18.2371 N   0  0  0  0  0  0  0  0  0  0  0  0
   -2.5694    5.4258  -18.0275 C   0  0  0  0  0  0  0  0  0  0  0  0
   -2.1705    4.5656  -19.2428 C   0  0  0  0  0  0  0  0  0  0  0  0
   -1.0092    5.2911  -19.9198 C   0  0  0  0  0  0  0  0  0  0  0  0
   -1.0986    6.7233  -19.4297 C   0  0  0  0  0  0  0  0  0  0  0  0
   -1.5252    6.5469  -17.9826 C   0  0  0  0  0  0  0  0  0  0  0  0
   -5.9029    5.0911  -18.3409 N   0  0  0  0  0  0  0  0  0  0  0  0
   -7.0681    4.7220  -17.8235 C   0  0  0  0  0  0  0  0  0  0  0  0
   -8.0093    4.3478  -18.7476 C   0  0  0  0  0  0  0  0  0  0  0  0
   -9.3017    4.0500  -18.3673 C   0  0  0  0  0  0  0  0  0  0  0  0
   -9.6375    4.0544  -17.0292 C   0  0  0  0  0  0  0  0  0  0  0  0
   -8.6851    4.3728  -16.0654 C   0  0  0  0  0  0  0  0  0  0  0  0
   -7.3794    4.7490  -16.4488 C   0  0  0  0  0  0  0  0  0  0  0  0
  1  2  2  0
  2  3  1  0
  3  4  2  0
  4  5  1  0
  5  6  1  0
  6  7  1  0
  7  8  1  0
  8  9  1  0
  9 10  1  0
 10 11  1  0
  5 12  2  0
 12 13  1  0
 13 14  2  0
 14 15  1  0
 15 16  2  0
 16 17  1  0
 17 18  2  0
 18  3  1  0
 11  7  1  0
 18 13  1  0
M  END
>  <energy_score>  (4876) 
-20.856813

>  <alias>  (4876) 
AOHGCNOZGDHTKX-UHFFFAOYSA-N-P7-P7-P91-601531

>  <HIPPO Pose ID>  (4876) 
86443

>  <smiles>  (4876) 
O=Cc1cc(NC2CCCC2)nc2ccccc12

>  <inchikey>  (4876) 
AOHGCNOZGDHTKX-UHFFFAOYSA-N

>  <distance_score>  (4876) 
1.111269

>  <ref_mols>  (4876) 
Z1688a,Z0089a

>  <ref_pdb>  (4876) 
Z0089a

>  <HIPPO Compound ID>  (4876) 
146373

>  <name>  (4876) 
AOHGCNOZGDHTKX-UHFFFAOYSA-N-P7-P7-P91-601531

>  <inspiration_score>  (4876) 
None

$$$$
UEJVFFSOEAYFKQ-UHFFFAOYSA-N-P91-P7-P91-601531
     RDKit          3D

 18 20  0  0  0  0  0  0  0  0999 V2000
   -3.9378    6.6433  -14.9722 O   0  0  0  0  0  0  0  0  0  0  0  0
   -3.7361    6.5428  -16.3838 C   0  0  0  0  0  0  0  0  0  0  0  0
   -4.8581    5.8144  -17.0479 C   0  0  0  0  0  0  0  0  0  0  0  0
   -5.9735    5.4678  -16.2786 C   0  0  0  0  0  0  0  0  0  0  0  0
   -7.0795    4.9007  -16.8658 C   0  0  0  0  0  0  0  0  0  0  0  0
   -8.1730    4.5695  -16.0704 C   0  0  0  0  0  0  0  0  0  0  0  0
   -9.2868    4.0497  -16.6712 C   0  0  0  0  0  0  0  0  0  0  0  0
   -9.3029    3.8857  -18.0403 C   0  0  0  0  0  0  0  0  0  0  0  0
   -8.1902    4.1890  -18.8199 C   0  0  0  0  0  0  0  0  0  0  0  0
   -7.0493    4.6961  -18.2487 C   0  0  0  0  0  0  0  0  0  0  0  0
   -5.9742    4.9869  -18.9993 N   0  0  0  0  0  0  0  0  0  0  0  0
   -4.8964    5.5354  -18.4154 C   0  0  0  0  0  0  0  0  0  0  0  0
   -3.8955    5.8509  -19.3287 N   0  0  0  0  0  0  0  0  0  0  0  0
   -2.5562    5.3157  -19.1003 C   0  0  0  0  0  0  0  0  0  0  0  0
   -2.0181    4.5856  -20.3276 C   0  0  0  0  0  0  0  0  0  0  0  0
   -1.5510    5.6800  -21.2793 C   0  0  0  0  0  0  0  0  0  0  0  0
   -1.1978    6.8724  -20.3989 C   0  0  0  0  0  0  0  0  0  0  0  0
   -1.5572    6.4684  -18.9708 C   0  0  0  0  0  0  0  0  0  0  0  0
  1  2  1  0
  2  3  1  0
  3  4  2  0
  4  5  1  0
  5  6  2  0
  6  7  1  0
  7  8  2  0
  8  9  1  0
  9 10  2  0
 10 11  1  0
 11 12  2  0
 12 13  1  0
 13 14  1  0
 14 15  1  0
 15 16  1  0
 16 17  1  0
 17 18  1  0
 12  3  1  0
 18 14  1  0
 10  5  1  0
M  END
>  <energy_score>  (4877) 
-18.680303

>  <alias>  (4877) 
UEJVFFSOEAYFKQ-UHFFFAOYSA-N-P91-P7-P91-601531

>  <HIPPO Pose ID>  (4877) 
86448

>  <smiles>  (4877) 
OCc1cc2ccccc2nc1NC1CCCC1

>  <inchikey>  (4877) 
UEJVFFSOEAYFKQ-UHFFFAOYSA-N

>  <distance_score>  (4877) 
1.916827

>  <ref_mols>  (4877) 
Z1688a,Z0089a

>  <ref_pdb>  (4877) 
Z0089a

>  <HIPPO Compound ID>  (4877) 
146375

>  <name>  (4877) 
UEJVFFSOEAYFKQ-UHFFFAOYSA-N-P91-P7-P91-601531

>  <inspiration_score>  (4877) 
None

$$$$
KPNPAXVLQXLALS-UHFFFAOYSA-N-P7-P7-P91-601531
     RDKit          3D

 18 19  0  0  0  0  0  0  0  0999 V2000
   -1.3912    4.0715  -19.6813 C   0  0  0  0  0  0  0  0  0  0  0  0
   -2.6844    4.5022  -19.0237 C   0  0  0  0  0  0  0  0  0  0  0  0
   -2.6403    5.8681  -18.3047 C   0  0  0  0  0  0  0  0  0  0  0  0
   -1.8995    6.9189  -19.1599 C   0  0  0  0  0  0  0  0  0  0  0  0
   -1.9311    5.7786  -16.9467 C   0  0  0  0  0  0  0  0  0  0  0  0
   -4.0042    6.4059  -18.1566 N   0  0  0  0  0  0  0  0  0  0  0  0
   -4.9893    5.7275  -17.4666 C   0  0  0  0  0  0  0  0  0  0  0  0
   -5.1469    5.7232  -16.0901 C   0  0  0  0  0  0  0  0  0  0  0  0
   -6.3589    5.2507  -15.5439 C   0  0  0  0  0  0  0  0  0  0  0  0
   -6.5201    5.3615  -14.0590 C   0  0  0  0  0  0  0  0  0  0  0  0
   -7.5392    5.1417  -13.4187 O   0  0  0  0  0  0  0  0  0  0  0  0
   -7.3725    4.7807  -16.4054 C   0  0  0  0  0  0  0  0  0  0  0  0
   -8.6709    4.3639  -16.0387 C   0  0  0  0  0  0  0  0  0  0  0  0
   -9.6074    4.0324  -17.0146 C   0  0  0  0  0  0  0  0  0  0  0  0
   -9.2556    4.0342  -18.3492 C   0  0  0  0  0  0  0  0  0  0  0  0
   -7.9676    4.3725  -18.7131 C   0  0  0  0  0  0  0  0  0  0  0  0
   -7.0509    4.7798  -17.7768 C   0  0  0  0  0  0  0  0  0  0  0  0
   -5.9076    5.2277  -18.2795 N   0  0  0  0  0  0  0  0  0  0  0  0
  1  2  1  0
  2  3  1  0
  3  4  1  0
  3  5  1  0
  3  6  1  0
  6  7  1  0
  7  8  2  0
  8  9  1  0
  9 10  1  0
 10 11  2  0
  9 12  2  0
 12 13  1  0
 13 14  2  0
 14 15  1  0
 15 16  2  0
 16 17  1  0
 17 18  2  0
 18  7  1  0
 17 12  1  0
M  END
>  <energy_score>  (4878) 
-27.243269

>  <alias>  (4878) 
KPNPAXVLQXLALS-UHFFFAOYSA-N-P7-P7-P91-601531

>  <HIPPO Pose ID>  (4878) 
86461

>  <smiles>  (4878) 
CCC(C)(C)Nc1cc(C=O)c2ccccc2n1

>  <inchikey>  (4878) 
KPNPAXVLQXLALS-UHFFFAOYSA-N

>  <distance_score>  (4878) 
1.222472

>  <ref_mols>  (4878) 
Z1688a,Z0089a

>  <ref_pdb>  (4878) 
Z0089a

>  <HIPPO Compound ID>  (4878) 
146382

>  <name>  (4878) 
KPNPAXVLQXLALS-UHFFFAOYSA-N-P7-P7-P91-601531

>  <inspiration_score>  (4878) 
None

$$$$
ARFDBEWBCSUJRP-UHFFFAOYSA-N-P7-P7-P91-601531
     RDKit          3D

 18 20  0  0  0  0  0  0  0  0999 V2000
   -2.5051    3.8282  -18.1640 F   0  0  0  0  0  0  0  0  0  0  0  0
   -2.0215    4.3393  -19.3262 C   0  0  0  0  0  0  0  0  0  0  0  0
   -2.7541    5.6301  -19.6617 C   0  0  0  0  0  0  0  0  0  0  0  0
   -4.2279    5.6061  -19.6575 N   0  0  0  0  0  0  0  0  0  0  0  0
   -5.1054    5.2771  -18.6248 C   0  0  0  0  0  0  0  0  0  0  0  0
   -6.2956    4.8778  -19.1234 N   0  0  0  0  0  0  0  0  0  0  0  0
   -7.3077    4.5691  -18.2970 C   0  0  0  0  0  0  0  0  0  0  0  0
   -8.5563    4.2453  -18.7832 C   0  0  0  0  0  0  0  0  0  0  0  0
   -9.6226    3.9747  -17.9286 C   0  0  0  0  0  0  0  0  0  0  0  0
   -9.4347    3.9697  -16.5609 C   0  0  0  0  0  0  0  0  0  0  0  0
   -8.1978    4.2588  -16.0416 C   0  0  0  0  0  0  0  0  0  0  0  0
   -7.1572    4.5721  -16.9131 C   0  0  0  0  0  0  0  0  0  0  0  0
   -5.9257    4.9236  -16.4079 C   0  0  0  0  0  0  0  0  0  0  0  0
   -4.8956    5.3695  -17.2528 C   0  0  0  0  0  0  0  0  0  0  0  0
   -3.6774    5.8935  -16.5797 C   0  0  0  0  0  0  0  0  0  0  0  0
   -4.1859    7.2810  -15.2868 Br  0  0  0  0  0  0  0  0  0  0  0  0
   -2.0475    6.9514  -19.4115 C   0  0  0  0  0  0  0  0  0  0  0  0
   -2.1272    6.4251  -20.8039 C   0  0  0  0  0  0  0  0  0  0  0  0
  1  2  1  0
  2  3  1  0
  3  4  1  0
  4  5  1  0
  5  6  2  0
  6  7  1  0
  7  8  2  0
  8  9  1  0
  9 10  2  0
 10 11  1  0
 11 12  2  0
 12 13  1  0
 13 14  2  0
 14 15  1  0
 15 16  1  0
  3 17  1  0
 17 18  1  0
 18  3  1  0
 14  5  1  0
 12  7  1  0
M  END
>  <energy_score>  (4879) 
-24.084005

>  <alias>  (4879) 
ARFDBEWBCSUJRP-UHFFFAOYSA-N-P7-P7-P91-601531

>  <HIPPO Pose ID>  (4879) 
86469

>  <smiles>  (4879) 
FCC1(Nc2nc3ccccc3cc2CBr)CC1

>  <inchikey>  (4879) 
ARFDBEWBCSUJRP-UHFFFAOYSA-N

>  <distance_score>  (4879) 
1.935402

>  <ref_mols>  (4879) 
Z1688a,Z0089a

>  <ref_pdb>  (4879) 
Z0089a

>  <HIPPO Compound ID>  (4879) 
146386

>  <name>  (4879) 
ARFDBEWBCSUJRP-UHFFFAOYSA-N-P7-P7-P91-601531

>  <inspiration_score>  (4879) 
None

$$$$
ULPWKUJABDEOBL-UHFFFAOYSA-N-P7-P7-P91-601531
     RDKit          3D

 18 20  0  0  0  0  0  0  0  0999 V2000
   -7.3321    5.1652  -13.4815 O   0  0  0  0  0  0  0  0  0  0  0  0
   -6.3440    5.3488  -14.1799 C   0  0  0  0  0  0  0  0  0  0  0  0
   -6.2656    5.2104  -15.6713 C   0  0  0  0  0  0  0  0  0  0  0  0
   -5.0710    5.6256  -16.3001 C   0  0  0  0  0  0  0  0  0  0  0  0
   -4.9933    5.5960  -17.6849 C   0  0  0  0  0  0  0  0  0  0  0  0
   -3.9892    6.1747  -18.4615 N   0  0  0  0  0  0  0  0  0  0  0  0
   -2.5742    5.7586  -18.3542 C   0  0  0  0  0  0  0  0  0  0  0  0
   -2.2487    4.4061  -18.9683 C   0  0  0  0  0  0  0  0  0  0  0  0
   -0.9031    4.2304  -19.0166 F   0  0  0  0  0  0  0  0  0  0  0  0
   -1.5630    6.8626  -18.6025 C   0  0  0  0  0  0  0  0  0  0  0  0
   -1.7097    6.2820  -17.2282 C   0  0  0  0  0  0  0  0  0  0  0  0
   -5.9803    5.1205  -18.4301 N   0  0  0  0  0  0  0  0  0  0  0  0
   -7.1054    4.7242  -17.8502 C   0  0  0  0  0  0  0  0  0  0  0  0
   -8.0895    4.3275  -18.7202 C   0  0  0  0  0  0  0  0  0  0  0  0
   -9.3531    4.0125  -18.2669 C   0  0  0  0  0  0  0  0  0  0  0  0
   -9.6106    4.0237  -16.9126 C   0  0  0  0  0  0  0  0  0  0  0  0
   -8.6141    4.3612  -16.0042 C   0  0  0  0  0  0  0  0  0  0  0  0
   -7.3394    4.7536  -16.4612 C   0  0  0  0  0  0  0  0  0  0  0  0
  1  2  2  0
  2  3  1  0
  3  4  2  0
  4  5  1  0
  5  6  1  0
  6  7  1  0
  7  8  1  0
  8  9  1  0
  7 10  1  0
 10 11  1  0
  5 12  2  0
 12 13  1  0
 13 14  2  0
 14 15  1  0
 15 16  2  0
 16 17  1  0
 17 18  2  0
 18  3  1  0
 11  7  1  0
 18 13  1  0
M  END
>  <energy_score>  (4880) 
-12.930838

>  <alias>  (4880) 
ULPWKUJABDEOBL-UHFFFAOYSA-N-P7-P7-P91-601531

>  <HIPPO Pose ID>  (4880) 
86471

>  <smiles>  (4880) 
O=Cc1cc(NC2(CF)CC2)nc2ccccc12

>  <inchikey>  (4880) 
ULPWKUJABDEOBL-UHFFFAOYSA-N

>  <distance_score>  (4880) 
1.133831

>  <ref_mols>  (4880) 
Z1688a,Z0089a

>  <ref_pdb>  (4880) 
Z0089a

>  <HIPPO Compound ID>  (4880) 
146387

>  <name>  (4880) 
ULPWKUJABDEOBL-UHFFFAOYSA-N-P7-P7-P91-601531

>  <inspiration_score>  (4880) 
None

$$$$
GSQIIHPJIAIUOX-UHFFFAOYSA-N-P91-P7-P91-601531
     RDKit          3D

 18 19  0  0  0  0  0  0  0  0999 V2000
   -1.8309    4.8243  -20.2712 C   0  0  0  0  0  0  0  0  0  0  0  0
   -2.9452    5.6845  -19.6627 C   0  0  2  0  0  0  0  0  0  0  0  0
   -2.4973    7.1310  -19.4039 C   0  0  0  0  0  0  0  0  0  0  0  0
   -1.1701    7.2696  -18.6779 C   0  0  0  0  0  0  0  0  0  0  0  0
   -0.1521    7.0640  -19.5558 F   0  0  0  0  0  0  0  0  0  0  0  0
   -3.3694    5.0421  -18.4115 N   0  0  0  0  0  0  0  0  0  0  0  0
   -4.6872    5.3395  -18.0194 C   0  0  0  0  0  0  0  0  0  0  0  0
   -5.6553    4.8007  -18.7666 N   0  0  0  0  0  0  0  0  0  0  0  0
   -6.8796    4.7059  -18.2317 C   0  0  0  0  0  0  0  0  0  0  0  0
   -7.8643    4.0677  -18.9274 C   0  0  0  0  0  0  0  0  0  0  0  0
   -9.0824    3.7908  -18.3208 C   0  0  0  0  0  0  0  0  0  0  0  0
   -9.3655    4.1793  -17.0279 C   0  0  0  0  0  0  0  0  0  0  0  0
   -8.4238    4.8921  -16.3313 C   0  0  0  0  0  0  0  0  0  0  0  0
   -7.1993    5.1644  -16.9457 C   0  0  0  0  0  0  0  0  0  0  0  0
   -6.2273    5.8652  -16.2660 C   0  0  0  0  0  0  0  0  0  0  0  0
   -4.9285    5.9218  -16.7789 C   0  0  0  0  0  0  0  0  0  0  0  0
   -3.8449    6.5164  -15.9537 C   0  0  0  0  0  0  0  0  0  0  0  0
   -3.8113    5.6543  -14.2086 Br  0  0  0  0  0  0  0  0  0  0  0  0
  2  1  1  1
  2  3  1  0
  3  4  1  0
  4  5  1  0
  2  6  1  0
  6  7  1  0
  7  8  2  0
  8  9  1  0
  9 10  2  0
 10 11  1  0
 11 12  2  0
 12 13  1  0
 13 14  2  0
 14 15  1  0
 15 16  2  0
 16 17  1  0
 17 18  1  0
 16  7  1  0
 14  9  1  0
M  END
>  <energy_score>  (4881) 
-22.189736

>  <alias>  (4881) 
GSQIIHPJIAIUOX-UHFFFAOYSA-N-P91-P7-P91-601531

>  <HIPPO Pose ID>  (4881) 
86476

>  <smiles>  (4881) 
CC(CCF)Nc1nc2ccccc2cc1CBr

>  <inchikey>  (4881) 
GSQIIHPJIAIUOX-UHFFFAOYSA-N

>  <distance_score>  (4881) 
1.997674

>  <ref_mols>  (4881) 
Z1688a,Z0089a

>  <ref_pdb>  (4881) 
Z0089a

>  <HIPPO Compound ID>  (4881) 
146389

>  <name>  (4881) 
GSQIIHPJIAIUOX-UHFFFAOYSA-N-P91-P7-P91-601531

>  <inspiration_score>  (4881) 
None

$$$$
ZXXKFYGCSUIQAQ-UHFFFAOYSA-N-P7-P7-P91-601531
     RDKit          3D

 18 19  0  0  0  0  0  0  0  0999 V2000
   -1.8624    4.4430  -19.2962 C   0  0  0  0  0  0  0  0  0  0  0  0
   -3.1030    5.2927  -19.0207 C   0  0  2  0  0  0  0  0  0  0  0  0
   -2.9342    6.7491  -19.4754 C   0  0  0  0  0  0  0  0  0  0  0  0
   -1.6707    7.4421  -18.9983 C   0  0  0  0  0  0  0  0  0  0  0  0
   -1.7194    8.7437  -19.3970 F   0  0  0  0  0  0  0  0  0  0  0  0
   -3.4126    5.2265  -17.5863 N   0  0  0  0  0  0  0  0  0  0  0  0
   -4.7539    5.1347  -17.2030 C   0  0  0  0  0  0  0  0  0  0  0  0
   -5.1009    5.1588  -15.8547 C   0  0  0  0  0  0  0  0  0  0  0  0
   -6.4390    4.9575  -15.4624 C   0  0  0  0  0  0  0  0  0  0  0  0
   -6.7282    5.0380  -13.9973 C   0  0  0  0  0  0  0  0  0  0  0  0
   -7.8342    5.1354  -13.4840 O   0  0  0  0  0  0  0  0  0  0  0  0
   -7.4110    4.6829  -16.4417 C   0  0  0  0  0  0  0  0  0  0  0  0
   -8.7786    4.3905  -16.2182 C   0  0  0  0  0  0  0  0  0  0  0  0
   -9.6444    4.1616  -17.2875 C   0  0  0  0  0  0  0  0  0  0  0  0
   -9.1595    4.1973  -18.5819 C   0  0  0  0  0  0  0  0  0  0  0  0
   -7.8119    4.4348  -18.8037 C   0  0  0  0  0  0  0  0  0  0  0  0
   -6.9434    4.6890  -17.7701 C   0  0  0  0  0  0  0  0  0  0  0  0
   -5.6802    4.9262  -18.1290 N   0  0  0  0  0  0  0  0  0  0  0  0
  2  1  1  1
  2  3  1  0
  3  4  1  0
  4  5  1  0
  2  6  1  0
  6  7  1  0
  7  8  2  0
  8  9  1  0
  9 10  1  0
 10 11  2  0
  9 12  2  0
 12 13  1  0
 13 14  2  0
 14 15  1  0
 15 16  2  0
 16 17  1  0
 17 18  2  0
 18  7  1  0
 17 12  1  0
M  END
>  <energy_score>  (4882) 
-23.464075

>  <alias>  (4882) 
ZXXKFYGCSUIQAQ-UHFFFAOYSA-N-P7-P7-P91-601531

>  <HIPPO Pose ID>  (4882) 
86477

>  <smiles>  (4882) 
CC(CCF)Nc1cc(C=O)c2ccccc2n1

>  <inchikey>  (4882) 
ZXXKFYGCSUIQAQ-UHFFFAOYSA-N

>  <distance_score>  (4882) 
1.106104

>  <ref_mols>  (4882) 
Z1688a,Z0089a

>  <ref_pdb>  (4882) 
Z0089a

>  <HIPPO Compound ID>  (4882) 
146390

>  <name>  (4882) 
ZXXKFYGCSUIQAQ-UHFFFAOYSA-N-P7-P7-P91-601531

>  <inspiration_score>  (4882) 
None

$$$$
ILDDCQJISYARBH-UHFFFAOYSA-N-P7-P7-P91-601531
     RDKit          3D

 18 20  0  0  0  0  0  0  0  0999 V2000
   -1.6943    3.5488  -19.4861 C   0  0  0  0  0  0  0  0  0  0  0  0
   -2.2730    4.5979  -19.5117 C   0  0  0  0  0  0  0  0  0  0  0  0
   -2.9477    5.8622  -19.6142 C   0  0  0  0  0  0  0  0  0  0  0  0
   -4.3999    5.7863  -19.6639 N   0  0  0  0  0  0  0  0  0  0  0  0
   -5.2515    5.3828  -18.6387 C   0  0  0  0  0  0  0  0  0  0  0  0
   -6.4188    4.9144  -19.1232 N   0  0  0  0  0  0  0  0  0  0  0  0
   -7.4098    4.5863  -18.2825 C   0  0  0  0  0  0  0  0  0  0  0  0
   -8.6412    4.2079  -18.7640 C   0  0  0  0  0  0  0  0  0  0  0  0
   -9.6911    3.9202  -17.8988 C   0  0  0  0  0  0  0  0  0  0  0  0
   -9.4980    3.9543  -16.5314 C   0  0  0  0  0  0  0  0  0  0  0  0
   -8.2801    4.3137  -16.0147 C   0  0  0  0  0  0  0  0  0  0  0  0
   -7.2587    4.6477  -16.8940 C   0  0  0  0  0  0  0  0  0  0  0  0
   -6.0547    5.0861  -16.3942 C   0  0  0  0  0  0  0  0  0  0  0  0
   -5.0486    5.4924  -17.2704 C   0  0  0  0  0  0  0  0  0  0  0  0
   -3.9319    6.0759  -16.6270 C   0  0  0  0  0  0  0  0  0  0  0  0
   -3.1444    6.5579  -15.9268 N   0  0  0  0  0  0  0  0  0  0  0  0
   -2.2498    7.0984  -19.1071 C   0  0  0  0  0  0  0  0  0  0  0  0
   -2.2907    6.8403  -20.5777 C   0  0  0  0  0  0  0  0  0  0  0  0
  1  2  3  0
  2  3  1  0
  3  4  1  0
  4  5  1  0
  5  6  2  0
  6  7  1  0
  7  8  2  0
  8  9  1  0
  9 10  2  0
 10 11  1  0
 11 12  2  0
 12 13  1  0
 13 14  2  0
 14 15  1  0
 15 16  3  0
  3 17  1  0
 17 18  1  0
 18  3  1  0
 14  5  1  0
 12  7  1  0
M  END
>  <energy_score>  (4883) 
-13.406991

>  <alias>  (4883) 
ILDDCQJISYARBH-UHFFFAOYSA-N-P7-P7-P91-601531

>  <HIPPO Pose ID>  (4883) 
86479

>  <smiles>  (4883) 
C#CC1(Nc2nc3ccccc3cc2C#N)CC1

>  <inchikey>  (4883) 
ILDDCQJISYARBH-UHFFFAOYSA-N

>  <distance_score>  (4883) 
1.973126

>  <ref_mols>  (4883) 
Z1688a,Z0089a

>  <ref_pdb>  (4883) 
Z0089a

>  <HIPPO Compound ID>  (4883) 
146391

>  <name>  (4883) 
ILDDCQJISYARBH-UHFFFAOYSA-N-P7-P7-P91-601531

>  <inspiration_score>  (4883) 
None

$$$$
DOIWLZKFZFGHRA-UHFFFAOYSA-N-P7-P7-P91-601531
     RDKit          3D

 18 20  0  0  0  0  0  0  0  0999 V2000
   -1.7051    3.5261  -19.4815 C   0  0  0  0  0  0  0  0  0  0  0  0
   -2.2677    4.5813  -19.5613 C   0  0  0  0  0  0  0  0  0  0  0  0
   -2.9146    5.8523  -19.7387 C   0  0  0  0  0  0  0  0  0  0  0  0
   -4.3703    5.8308  -19.7177 N   0  0  0  0  0  0  0  0  0  0  0  0
   -5.2032    5.4387  -18.6700 C   0  0  0  0  0  0  0  0  0  0  0  0
   -6.3673    4.9466  -19.1390 N   0  0  0  0  0  0  0  0  0  0  0  0
   -7.3464    4.6166  -18.2872 C   0  0  0  0  0  0  0  0  0  0  0  0
   -8.5776    4.2112  -18.7529 C   0  0  0  0  0  0  0  0  0  0  0  0
   -9.6194    3.9164  -17.8779 C   0  0  0  0  0  0  0  0  0  0  0  0
   -9.4197    3.9741  -16.5121 C   0  0  0  0  0  0  0  0  0  0  0  0
   -8.1995    4.3590  -16.0143 C   0  0  0  0  0  0  0  0  0  0  0  0
   -7.1849    4.6979  -16.9053 C   0  0  0  0  0  0  0  0  0  0  0  0
   -5.9778    5.1626  -16.4270 C   0  0  0  0  0  0  0  0  0  0  0  0
   -4.9734    5.5920  -17.3047 C   0  0  0  0  0  0  0  0  0  0  0  0
   -3.7539    6.2237  -16.7209 C   0  0  0  0  0  0  0  0  0  0  0  0
   -3.9088    6.4471  -15.3164 O   0  0  0  0  0  0  0  0  0  0  0  0
   -2.1502    7.1068  -19.3919 C   0  0  0  0  0  0  0  0  0  0  0  0
   -2.2758    6.7108  -20.8252 C   0  0  0  0  0  0  0  0  0  0  0  0
  1  2  3  0
  2  3  1  0
  3  4  1  0
  4  5  1  0
  5  6  2  0
  6  7  1  0
  7  8  2  0
  8  9  1  0
  9 10  2  0
 10 11  1  0
 11 12  2  0
 12 13  1  0
 13 14  2  0
 14 15  1  0
 15 16  1  0
  3 17  1  0
 17 18  1  0
 18  3  1  0
 14  5  1  0
 12  7  1  0
M  END
>  <energy_score>  (4884) 
-21.146762

>  <alias>  (4884) 
DOIWLZKFZFGHRA-UHFFFAOYSA-N-P7-P7-P91-601531

>  <HIPPO Pose ID>  (4884) 
86481

>  <smiles>  (4884) 
C#CC1(Nc2nc3ccccc3cc2CO)CC1

>  <inchikey>  (4884) 
DOIWLZKFZFGHRA-UHFFFAOYSA-N

>  <distance_score>  (4884) 
1.924024

>  <ref_mols>  (4884) 
Z1688a,Z0089a

>  <ref_pdb>  (4884) 
Z0089a

>  <HIPPO Compound ID>  (4884) 
146392

>  <name>  (4884) 
DOIWLZKFZFGHRA-UHFFFAOYSA-N-P7-P7-P91-601531

>  <inspiration_score>  (4884) 
None

$$$$
URQYFUZIFCORLC-UHFFFAOYSA-N-P7-P7-P91-601531
     RDKit          3D

 18 20  0  0  0  0  0  0  0  0999 V2000
   -1.7077    3.6379  -19.4426 C   0  0  0  0  0  0  0  0  0  0  0  0
   -2.1332    4.6590  -18.9808 C   0  0  0  0  0  0  0  0  0  0  0  0
   -2.5958    5.9164  -18.4548 C   0  0  0  0  0  0  0  0  0  0  0  0
   -4.0250    6.1560  -18.6281 N   0  0  0  0  0  0  0  0  0  0  0  0
   -5.0077    5.6089  -17.8025 C   0  0  0  0  0  0  0  0  0  0  0  0
   -5.1208    5.7735  -16.4220 C   0  0  0  0  0  0  0  0  0  0  0  0
   -6.3196    5.4038  -15.7536 C   0  0  0  0  0  0  0  0  0  0  0  0
   -6.5263    5.7862  -14.3058 C   0  0  0  0  0  0  0  0  0  0  0  0
   -6.7570    4.2805  -13.1055 Br  0  0  0  0  0  0  0  0  0  0  0  0
   -7.3552    4.8468  -16.5384 C   0  0  0  0  0  0  0  0  0  0  0  0
   -8.6354    4.4960  -16.0668 C   0  0  0  0  0  0  0  0  0  0  0  0
   -9.6140    4.0598  -16.9507 C   0  0  0  0  0  0  0  0  0  0  0  0
   -9.3400    3.9454  -18.2963 C   0  0  0  0  0  0  0  0  0  0  0  0
   -8.0777    4.2398  -18.7661 C   0  0  0  0  0  0  0  0  0  0  0  0
   -7.1013    4.6964  -17.9190 C   0  0  0  0  0  0  0  0  0  0  0  0
   -5.9746    5.0496  -18.5169 N   0  0  0  0  0  0  0  0  0  0  0  0
   -1.8032    6.5866  -17.3684 C   0  0  0  0  0  0  0  0  0  0  0  0
   -1.6794    7.0909  -18.7684 C   0  0  0  0  0  0  0  0  0  0  0  0
  1  2  3  0
  2  3  1  0
  3  4  1  0
  4  5  1  0
  5  6  2  0
  6  7  1  0
  7  8  1  0
  8  9  1  0
  7 10  2  0
 10 11  1  0
 11 12  2  0
 12 13  1  0
 13 14  2  0
 14 15  1  0
 15 16  2  0
  3 17  1  0
 17 18  1  0
 18  3  1  0
 16  5  1  0
 15 10  1  0
M  END
>  <energy_score>  (4885) 
-15.965215

>  <alias>  (4885) 
URQYFUZIFCORLC-UHFFFAOYSA-N-P7-P7-P91-601531

>  <HIPPO Pose ID>  (4885) 
86483

>  <smiles>  (4885) 
C#CC1(Nc2cc(CBr)c3ccccc3n2)CC1

>  <inchikey>  (4885) 
URQYFUZIFCORLC-UHFFFAOYSA-N

>  <distance_score>  (4885) 
1.107752

>  <ref_mols>  (4885) 
Z1688a,Z0089a

>  <ref_pdb>  (4885) 
Z0089a

>  <HIPPO Compound ID>  (4885) 
146393

>  <name>  (4885) 
URQYFUZIFCORLC-UHFFFAOYSA-N-P7-P7-P91-601531

>  <inspiration_score>  (4885) 
None

$$$$
KHFVIIDTUPXPRC-UHFFFAOYSA-N-P7-P7-P91-601531
     RDKit          3D

 18 20  0  0  0  0  0  0  0  0999 V2000
   -1.7093    3.6315  -19.4545 C   0  0  0  0  0  0  0  0  0  0  0  0
   -2.1203    4.6163  -18.9089 C   0  0  0  0  0  0  0  0  0  0  0  0
   -2.5613    5.8314  -18.2769 C   0  0  0  0  0  0  0  0  0  0  0  0
   -3.9798    6.1206  -18.4613 N   0  0  0  0  0  0  0  0  0  0  0  0
   -4.9898    5.5647  -17.6797 C   0  0  0  0  0  0  0  0  0  0  0  0
   -5.0772    5.5988  -16.2952 C   0  0  0  0  0  0  0  0  0  0  0  0
   -6.2778    5.1946  -15.6691 C   0  0  0  0  0  0  0  0  0  0  0  0
   -6.3570    5.3298  -14.1777 C   0  0  0  0  0  0  0  0  0  0  0  0
   -7.3505    5.1676  -13.4817 O   0  0  0  0  0  0  0  0  0  0  0  0
   -7.3532    4.7465  -16.4604 C   0  0  0  0  0  0  0  0  0  0  0  0
   -8.6303    4.3578  -16.0067 C   0  0  0  0  0  0  0  0  0  0  0  0
   -9.6257    4.0264  -16.9185 C   0  0  0  0  0  0  0  0  0  0  0  0
   -9.3658    4.0198  -18.2723 C   0  0  0  0  0  0  0  0  0  0  0  0
   -8.1002    4.3307  -18.7216 C   0  0  0  0  0  0  0  0  0  0  0  0
   -7.1168    4.7197  -17.8480 C   0  0  0  0  0  0  0  0  0  0  0  0
   -5.9883    5.1091  -18.4240 N   0  0  0  0  0  0  0  0  0  0  0  0
   -1.6156    7.0035  -18.4663 C   0  0  0  0  0  0  0  0  0  0  0  0
   -1.7700    6.3771  -17.1160 C   0  0  0  0  0  0  0  0  0  0  0  0
  1  2  3  0
  2  3  1  0
  3  4  1  0
  4  5  1  0
  5  6  2  0
  6  7  1  0
  7  8  1  0
  8  9  2  0
  7 10  2  0
 10 11  1  0
 11 12  2  0
 12 13  1  0
 13 14  2  0
 14 15  1  0
 15 16  2  0
  3 17  1  0
 17 18  1  0
 18  3  1  0
 16  5  1  0
 15 10  1  0
M  END
>  <energy_score>  (4886) 
-13.394358

>  <alias>  (4886) 
KHFVIIDTUPXPRC-UHFFFAOYSA-N-P7-P7-P91-601531

>  <HIPPO Pose ID>  (4886) 
86487

>  <smiles>  (4886) 
C#CC1(Nc2cc(C=O)c3ccccc3n2)CC1

>  <inchikey>  (4886) 
KHFVIIDTUPXPRC-UHFFFAOYSA-N

>  <distance_score>  (4886) 
1.140352

>  <ref_mols>  (4886) 
Z1688a,Z0089a

>  <ref_pdb>  (4886) 
Z0089a

>  <HIPPO Compound ID>  (4886) 
146395

>  <name>  (4886) 
KHFVIIDTUPXPRC-UHFFFAOYSA-N-P7-P7-P91-601531

>  <inspiration_score>  (4886) 
None

$$$$
DAGHXMKQVQAUCF-UHFFFAOYSA-N-P91-P7-P91-601531
     RDKit          3D

 18 19  0  0  0  0  0  0  0  0999 V2000
   -0.5241    5.2645  -19.0647 C   0  0  0  0  0  0  0  0  0  0  0  0
   -1.8125    4.5356  -19.4144 C   0  0  2  0  0  0  0  0  0  0  0  0
   -1.7794    4.2312  -20.7500 F   0  0  0  0  0  0  0  0  0  0  0  0
   -3.0999    5.3361  -19.1189 C   0  0  2  0  0  0  0  0  0  0  0  0
   -3.0375    6.7660  -19.6593 C   0  0  0  0  0  0  0  0  0  0  0  0
   -3.3679    5.3748  -17.6606 N   0  0  0  0  0  0  0  0  0  0  0  0
   -4.7103    5.2569  -17.2732 C   0  0  0  0  0  0  0  0  0  0  0  0
   -5.0958    5.4313  -15.9395 C   0  0  0  0  0  0  0  0  0  0  0  0
   -6.4444    5.2608  -15.5412 C   0  0  0  0  0  0  0  0  0  0  0  0
   -6.8686    5.6291  -14.1429 C   0  0  0  0  0  0  0  0  0  0  0  0
   -7.1752    4.1018  -12.9996 Br  0  0  0  0  0  0  0  0  0  0  0  0
   -7.3647    4.8390  -16.5254 C   0  0  0  0  0  0  0  0  0  0  0  0
   -8.7347    4.5681  -16.3074 C   0  0  0  0  0  0  0  0  0  0  0  0
   -9.5797    4.2696  -17.3757 C   0  0  0  0  0  0  0  0  0  0  0  0
   -9.0669    4.2155  -18.6581 C   0  0  0  0  0  0  0  0  0  0  0  0
   -7.7118    4.3912  -18.8688 C   0  0  0  0  0  0  0  0  0  0  0  0
   -6.8675    4.7119  -17.8384 C   0  0  0  0  0  0  0  0  0  0  0  0
   -5.6036    4.9205  -18.1908 N   0  0  0  0  0  0  0  0  0  0  0  0
  2  1  1  6
  2  3  1  0
  2  4  1  0
  4  5  1  1
  4  6  1  0
  6  7  1  0
  7  8  2  0
  8  9  1  0
  9 10  1  0
 10 11  1  0
  9 12  2  0
 12 13  1  0
 13 14  2  0
 14 15  1  0
 15 16  2  0
 16 17  1  0
 17 18  2  0
 18  7  1  0
 17 12  1  0
M  END
>  <energy_score>  (4887) 
-30.198897

>  <alias>  (4887) 
DAGHXMKQVQAUCF-UHFFFAOYSA-N-P91-P7-P91-601531

>  <HIPPO Pose ID>  (4887) 
86506

>  <smiles>  (4887) 
CC(F)C(C)Nc1cc(CBr)c2ccccc2n1

>  <inchikey>  (4887) 
DAGHXMKQVQAUCF-UHFFFAOYSA-N

>  <distance_score>  (4887) 
1.004167

>  <ref_mols>  (4887) 
Z1688a,Z0089a

>  <ref_pdb>  (4887) 
Z0089a

>  <HIPPO Compound ID>  (4887) 
146404

>  <name>  (4887) 
DAGHXMKQVQAUCF-UHFFFAOYSA-N-P91-P7-P91-601531

>  <inspiration_score>  (4887) 
None

$$$$
UGPVASZFIIDGDX-UHFFFAOYSA-N-P7-P7-P91-601531
     RDKit          3D

 18 20  0  0  0  0  0  0  0  0999 V2000
   -2.0234    5.9449  -22.2492 O   0  0  0  0  0  0  0  0  0  0  0  0
   -1.1522    5.6601  -21.1572 C   0  0  0  0  0  0  0  0  0  0  0  0
   -1.8519    6.0312  -19.9027 C   0  0  2  0  0  0  0  0  0  0  0  0
   -1.9059    5.1098  -18.7189 C   0  0  0  0  0  0  0  0  0  0  0  0
   -3.1261    5.2972  -19.5603 C   0  0  1  0  0  0  0  0  0  0  0  0
   -4.3044    6.1475  -19.3273 N   0  0  0  0  0  0  0  0  0  0  0  0
   -5.2609    5.6769  -18.4118 C   0  0  0  0  0  0  0  0  0  0  0  0
   -6.3209    5.0865  -18.9850 N   0  0  0  0  0  0  0  0  0  0  0  0
   -7.3364    4.6980  -18.2057 C   0  0  0  0  0  0  0  0  0  0  0  0
   -8.4773    4.1734  -18.7628 C   0  0  0  0  0  0  0  0  0  0  0  0
   -9.5649    3.8288  -17.9681 C   0  0  0  0  0  0  0  0  0  0  0  0
   -9.5015    3.9554  -16.5944 C   0  0  0  0  0  0  0  0  0  0  0  0
   -8.3729    4.4597  -16.0028 C   0  0  0  0  0  0  0  0  0  0  0  0
   -7.3161    4.8516  -16.8146 C   0  0  0  0  0  0  0  0  0  0  0  0
   -6.2213    5.4634  -16.2444 C   0  0  0  0  0  0  0  0  0  0  0  0
   -5.1662    5.9065  -17.0447 C   0  0  0  0  0  0  0  0  0  0  0  0
   -4.1048    6.7460  -16.4278 C   0  0  0  0  0  0  0  0  0  0  0  0
   -3.3625    5.8421  -14.8767 Br  0  0  0  0  0  0  0  0  0  0  0  0
  1  2  1  0
  3  2  1  6
  3  4  1  0
  4  5  1  0
  5  6  1  1
  6  7  1  0
  7  8  2  0
  8  9  1  0
  9 10  2  0
 10 11  1  0
 11 12  2  0
 12 13  1  0
 13 14  2  0
 14 15  1  0
 15 16  2  0
 16 17  1  0
 17 18  1  0
  5  3  1  0
 16  7  1  0
 14  9  1  0
M  END
>  <energy_score>  (4888) 
-23.050637

>  <alias>  (4888) 
UGPVASZFIIDGDX-UHFFFAOYSA-N-P7-P7-P91-601531

>  <HIPPO Pose ID>  (4888) 
86513

>  <smiles>  (4888) 
OCC1CC1Nc1nc2ccccc2cc1CBr

>  <inchikey>  (4888) 
UGPVASZFIIDGDX-UHFFFAOYSA-N

>  <distance_score>  (4888) 
1.989813

>  <ref_mols>  (4888) 
Z1688a,Z0089a

>  <ref_pdb>  (4888) 
Z0089a

>  <HIPPO Compound ID>  (4888) 
146408

>  <name>  (4888) 
UGPVASZFIIDGDX-UHFFFAOYSA-N-P7-P7-P91-601531

>  <inspiration_score>  (4888) 
None

$$$$
OQQJIRWLXVFSLE-UHFFFAOYSA-N-P91-P7-P91-601531
     RDKit          3D

 18 20  0  0  0  0  0  0  0  0999 V2000
   -3.0929    6.7574  -15.6165 N   0  0  0  0  0  0  0  0  0  0  0  0
   -3.8729    6.2780  -16.3249 C   0  0  0  0  0  0  0  0  0  0  0  0
   -4.9311    5.6596  -17.0278 C   0  0  0  0  0  0  0  0  0  0  0  0
   -6.0184    5.3123  -16.2352 C   0  0  0  0  0  0  0  0  0  0  0  0
   -7.1443    4.8066  -16.8312 C   0  0  0  0  0  0  0  0  0  0  0  0
   -8.2263    4.4744  -16.0297 C   0  0  0  0  0  0  0  0  0  0  0  0
   -9.3655    4.0284  -16.6375 C   0  0  0  0  0  0  0  0  0  0  0  0
   -9.4232    3.9425  -18.0122 C   0  0  0  0  0  0  0  0  0  0  0  0
   -8.3139    4.2271  -18.7996 C   0  0  0  0  0  0  0  0  0  0  0  0
   -7.1453    4.6599  -18.2264 C   0  0  0  0  0  0  0  0  0  0  0  0
   -6.0689    4.9370  -18.9827 N   0  0  0  0  0  0  0  0  0  0  0  0
   -4.9649    5.4293  -18.3988 C   0  0  0  0  0  0  0  0  0  0  0  0
   -3.9591    5.7052  -19.3072 N   0  0  0  0  0  0  0  0  0  0  0  0
   -2.5660    5.3704  -19.0078 C   0  0  1  0  0  0  0  0  0  0  0  0
   -1.8997    4.6974  -20.1883 C   0  0  0  0  0  0  0  0  0  0  0  0
   -1.4673    5.8661  -21.0458 C   0  0  0  0  0  0  0  0  0  0  0  0
   -1.1308    6.9309  -20.1527 O   0  0  0  0  0  0  0  0  0  0  0  0
   -1.7212    6.6415  -18.8721 C   0  0  0  0  0  0  0  0  0  0  0  0
  1  2  3  0
  2  3  1  0
  3  4  2  0
  4  5  1  0
  5  6  2  0
  6  7  1  0
  7  8  2  0
  8  9  1  0
  9 10  2  0
 10 11  1  0
 11 12  2  0
 12 13  1  0
 14 13  1  6
 14 15  1  0
 15 16  1  0
 16 17  1  0
 17 18  1  0
 12  3  1  0
 18 14  1  0
 10  5  1  0
M  END
>  <energy_score>  (4889) 
-24.771719

>  <alias>  (4889) 
OQQJIRWLXVFSLE-UHFFFAOYSA-N-P91-P7-P91-601531

>  <HIPPO Pose ID>  (4889) 
86518

>  <smiles>  (4889) 
N#Cc1cc2ccccc2nc1NC1CCOC1

>  <inchikey>  (4889) 
OQQJIRWLXVFSLE-UHFFFAOYSA-N

>  <distance_score>  (4889) 
1.953623

>  <ref_mols>  (4889) 
Z1688a,Z0089a

>  <ref_pdb>  (4889) 
Z0089a

>  <HIPPO Compound ID>  (4889) 
146410

>  <name>  (4889) 
OQQJIRWLXVFSLE-UHFFFAOYSA-N-P91-P7-P91-601531

>  <inspiration_score>  (4889) 
None

$$$$
FVXYSVYZQHGMAF-UHFFFAOYSA-N-P91-P7-P91-601531
     RDKit          3D

 18 20  0  0  0  0  0  0  0  0999 V2000
   -7.2192    4.0969  -12.9764 Br  0  0  0  0  0  0  0  0  0  0  0  0
   -6.9672    5.6326  -14.1219 C   0  0  0  0  0  0  0  0  0  0  0  0
   -6.5059    5.2705  -15.5091 C   0  0  0  0  0  0  0  0  0  0  0  0
   -5.1510    5.4451  -15.8676 C   0  0  0  0  0  0  0  0  0  0  0  0
   -4.7290    5.2702  -17.1891 C   0  0  0  0  0  0  0  0  0  0  0  0
   -3.3738    5.4089  -17.5210 N   0  0  0  0  0  0  0  0  0  0  0  0
   -3.0514    5.3066  -18.9497 C   0  0  2  0  0  0  0  0  0  0  0  0
   -1.6004    4.9105  -19.1490 C   0  0  0  0  0  0  0  0  0  0  0  0
   -1.2846    5.5144  -20.4955 C   0  0  0  0  0  0  0  0  0  0  0  0
   -1.9780    6.7650  -20.5364 O   0  0  0  0  0  0  0  0  0  0  0  0
   -3.1155    6.6615  -19.6556 C   0  0  0  0  0  0  0  0  0  0  0  0
   -5.5946    4.9757  -18.1480 N   0  0  0  0  0  0  0  0  0  0  0  0
   -6.8653    4.7465  -17.8262 C   0  0  0  0  0  0  0  0  0  0  0  0
   -7.6862    4.4204  -18.8743 C   0  0  0  0  0  0  0  0  0  0  0  0
   -9.0434    4.2197  -18.6914 C   0  0  0  0  0  0  0  0  0  0  0  0
   -9.5836    4.2572  -17.4192 C   0  0  0  0  0  0  0  0  0  0  0  0
   -8.7629    4.5552  -16.3323 C   0  0  0  0  0  0  0  0  0  0  0  0
   -7.3937    4.8478  -16.5209 C   0  0  0  0  0  0  0  0  0  0  0  0
  1  2  1  0
  2  3  1  0
  3  4  2  0
  4  5  1  0
  5  6  1  0
  7  6  1  1
  7  8  1  0
  8  9  1  0
  9 10  1  0
 10 11  1  0
  5 12  2  0
 12 13  1  0
 13 14  2  0
 14 15  1  0
 15 16  2  0
 16 17  1  0
 17 18  2  0
 18  3  1  0
 11  7  1  0
 18 13  1  0
M  END
>  <energy_score>  (4890) 
-16.323301

>  <alias>  (4890) 
FVXYSVYZQHGMAF-UHFFFAOYSA-N-P91-P7-P91-601531

>  <HIPPO Pose ID>  (4890) 
86522

>  <smiles>  (4890) 
BrCc1cc(NC2CCOC2)nc2ccccc12

>  <inchikey>  (4890) 
FVXYSVYZQHGMAF-UHFFFAOYSA-N

>  <distance_score>  (4890) 
1.026852

>  <ref_mols>  (4890) 
Z1688a,Z0089a

>  <ref_pdb>  (4890) 
Z0089a

>  <HIPPO Compound ID>  (4890) 
146412

>  <name>  (4890) 
FVXYSVYZQHGMAF-UHFFFAOYSA-N-P91-P7-P91-601531

>  <inspiration_score>  (4890) 
None

$$$$
BVCDJRPVINFNMB-UHFFFAOYSA-N-P7-P7-P91-601531
     RDKit          3D

 18 21  0  0  0  0  0  0  0  0999 V2000
   -7.8895    5.1664  -13.4740 O   0  0  0  0  0  0  0  0  0  0  0  0
   -6.7806    5.0953  -13.9851 C   0  0  0  0  0  0  0  0  0  0  0  0
   -6.4895    4.9995  -15.4488 C   0  0  0  0  0  0  0  0  0  0  0  0
   -5.1569    5.2267  -15.8424 C   0  0  0  0  0  0  0  0  0  0  0  0
   -4.8119    5.1672  -17.1895 C   0  0  0  0  0  0  0  0  0  0  0  0
   -3.4636    5.2860  -17.5841 N   0  0  0  0  0  0  0  0  0  0  0  0
   -3.1218    5.1566  -19.0078 C   0  0  2  0  0  0  0  0  0  0  0  0
   -1.6471    5.0387  -19.4186 C   0  0  0  0  0  0  0  0  0  0  0  0
   -2.4360    6.2222  -19.7342 C   0  0  0  0  0  0  0  0  0  0  0  0
   -2.2909    7.6662  -19.5945 C   0  0  0  0  0  0  0  0  0  0  0  0
   -2.7115    7.0213  -20.9228 C   0  0  0  0  0  0  0  0  0  0  0  0
   -5.7303    4.9142  -18.1155 N   0  0  0  0  0  0  0  0  0  0  0  0
   -6.9893    4.6792  -17.7544 C   0  0  0  0  0  0  0  0  0  0  0  0
   -7.8523    4.4148  -18.7889 C   0  0  0  0  0  0  0  0  0  0  0  0
   -9.1987    4.1809  -18.5669 C   0  0  0  0  0  0  0  0  0  0  0  0
   -9.6838    4.1522  -17.2728 C   0  0  0  0  0  0  0  0  0  0  0  0
   -8.8213    4.3921  -16.2027 C   0  0  0  0  0  0  0  0  0  0  0  0
   -7.4565    4.6922  -16.4257 C   0  0  0  0  0  0  0  0  0  0  0  0
  1  2  2  0
  2  3  1  0
  3  4  2  0
  4  5  1  0
  5  6  1  0
  7  6  1  1
  7  8  1  0
  8  9  1  0
  9 10  1  0
 10 11  1  0
  5 12  2  0
 12 13  1  0
 13 14  2  0
 14 15  1  0
 15 16  2  0
 16 17  1  0
 17 18  2  0
 18  3  1  0
  9  7  1  0
 18 13  1  0
 11  9  1  0
M  END
>  <energy_score>  (4891) 
-22.673511

>  <alias>  (4891) 
BVCDJRPVINFNMB-UHFFFAOYSA-N-P7-P7-P91-601531

>  <HIPPO Pose ID>  (4891) 
86531

>  <smiles>  (4891) 
O=Cc1cc(NC2CC23CC3)nc2ccccc12

>  <inchikey>  (4891) 
BVCDJRPVINFNMB-UHFFFAOYSA-N

>  <distance_score>  (4891) 
1.101307

>  <ref_mols>  (4891) 
Z1688a,Z0089a

>  <ref_pdb>  (4891) 
Z0089a

>  <HIPPO Compound ID>  (4891) 
146417

>  <name>  (4891) 
BVCDJRPVINFNMB-UHFFFAOYSA-N-P7-P7-P91-601531

>  <inspiration_score>  (4891) 
None

$$$$
PPFVUECMMGRDIQ-UHFFFAOYSA-N-P7-P7-P91-601531
     RDKit          3D

 18 20  0  0  0  0  0  0  0  0999 V2000
   -7.5286    5.1287  -13.4774 O   0  0  0  0  0  0  0  0  0  0  0  0
   -6.4983    5.2982  -14.1150 C   0  0  0  0  0  0  0  0  0  0  0  0
   -6.3354    5.1729  -15.5999 C   0  0  0  0  0  0  0  0  0  0  0  0
   -5.1003    5.5869  -16.1452 C   0  0  0  0  0  0  0  0  0  0  0  0
   -4.9223    5.5704  -17.5209 C   0  0  0  0  0  0  0  0  0  0  0  0
   -3.8733    6.1773  -18.2138 N   0  0  0  0  0  0  0  0  0  0  0  0
   -2.4469    5.8135  -18.0364 C   0  0  0  0  0  0  0  0  0  0  0  0
   -1.9427    4.7240  -18.9698 C   0  0  0  0  0  0  0  0  0  0  0  0
   -1.9213    5.4317  -20.7918 Br  0  0  0  0  0  0  0  0  0  0  0  0
   -1.5066    6.9969  -17.8588 C   0  0  0  0  0  0  0  0  0  0  0  0
   -1.7225    6.0482  -16.7258 C   0  0  0  0  0  0  0  0  0  0  0  0
   -5.8641    5.1108  -18.3328 N   0  0  0  0  0  0  0  0  0  0  0  0
   -7.0316    4.7216  -17.8316 C   0  0  0  0  0  0  0  0  0  0  0  0
   -7.9623    4.3496  -18.7675 C   0  0  0  0  0  0  0  0  0  0  0  0
   -9.2620    4.0546  -18.4054 C   0  0  0  0  0  0  0  0  0  0  0  0
   -9.6175    4.0554  -17.0717 C   0  0  0  0  0  0  0  0  0  0  0  0
   -8.6732    4.3621  -16.0958 C   0  0  0  0  0  0  0  0  0  0  0  0
   -7.3610    4.7382  -16.4620 C   0  0  0  0  0  0  0  0  0  0  0  0
  1  2  2  0
  2  3  1  0
  3  4  2  0
  4  5  1  0
  5  6  1  0
  6  7  1  0
  7  8  1  0
  8  9  1  0
  7 10  1  0
 10 11  1  0
  5 12  2  0
 12 13  1  0
 13 14  2  0
 14 15  1  0
 15 16  2  0
 16 17  1  0
 17 18  2  0
 18  3  1  0
 11  7  1  0
 18 13  1  0
M  END
>  <energy_score>  (4892) 
-26.429233

>  <alias>  (4892) 
PPFVUECMMGRDIQ-UHFFFAOYSA-N-P7-P7-P91-601531

>  <HIPPO Pose ID>  (4892) 
86533

>  <smiles>  (4892) 
O=Cc1cc(NC2(CBr)CC2)nc2ccccc12

>  <inchikey>  (4892) 
PPFVUECMMGRDIQ-UHFFFAOYSA-N

>  <distance_score>  (4892) 
1.136113

>  <ref_mols>  (4892) 
Z1688a,Z0089a

>  <ref_pdb>  (4892) 
Z0089a

>  <HIPPO Compound ID>  (4892) 
146418

>  <name>  (4892) 
PPFVUECMMGRDIQ-UHFFFAOYSA-N-P7-P7-P91-601531

>  <inspiration_score>  (4892) 
None

$$$$
XYYFPRHFMRNDAX-UHFFFAOYSA-N-P91-P7-P91-601531
     RDKit          3D

 18 21  0  0  0  0  0  0  0  0999 V2000
   -4.0015    6.8272  -15.2420 O   0  0  0  0  0  0  0  0  0  0  0  0
   -3.6954    6.3109  -16.5390 C   0  0  0  0  0  0  0  0  0  0  0  0
   -4.9057    5.6809  -17.1404 C   0  0  0  0  0  0  0  0  0  0  0  0
   -5.9605    5.3160  -16.3067 C   0  0  0  0  0  0  0  0  0  0  0  0
   -7.1245    4.8193  -16.8462 C   0  0  0  0  0  0  0  0  0  0  0  0
   -8.1670    4.4785  -15.9969 C   0  0  0  0  0  0  0  0  0  0  0  0
   -9.3387    4.0373  -16.5487 C   0  0  0  0  0  0  0  0  0  0  0  0
   -9.4756    3.9653  -17.9193 C   0  0  0  0  0  0  0  0  0  0  0  0
   -8.4064    4.2610  -18.7560 C   0  0  0  0  0  0  0  0  0  0  0  0
   -7.2069    4.6857  -18.2375 C   0  0  0  0  0  0  0  0  0  0  0  0
   -6.1756    4.9578  -19.0464 N   0  0  0  0  0  0  0  0  0  0  0  0
   -5.0399    5.4264  -18.5050 C   0  0  0  0  0  0  0  0  0  0  0  0
   -4.0129    5.6251  -19.4409 N   0  0  0  0  0  0  0  0  0  0  0  0
   -2.6989    5.0363  -19.1702 C   0  0  1  0  0  0  0  0  0  0  0  0
   -1.7242    4.8177  -20.3289 C   0  0  0  0  0  0  0  0  0  0  0  0
   -1.4724    5.8168  -19.2983 C   0  0  0  0  0  0  0  0  0  0  0  0
   -0.3384    6.1729  -18.4534 C   0  0  0  0  0  0  0  0  0  0  0  0
   -1.0779    7.2206  -19.2971 C   0  0  0  0  0  0  0  0  0  0  0  0
  1  2  1  0
  2  3  1  0
  3  4  2  0
  4  5  1  0
  5  6  2  0
  6  7  1  0
  7  8  2  0
  8  9  1  0
  9 10  2  0
 10 11  1  0
 11 12  2  0
 12 13  1  0
 14 13  1  6
 14 15  1  0
 15 16  1  0
 16 17  1  0
 17 18  1  0
 12  3  1  0
 16 14  1  0
 10  5  1  0
 18 16  1  0
M  END
>  <energy_score>  (4893) 
-26.030047

>  <alias>  (4893) 
XYYFPRHFMRNDAX-UHFFFAOYSA-N-P91-P7-P91-601531

>  <HIPPO Pose ID>  (4893) 
86538

>  <smiles>  (4893) 
OCc1cc2ccccc2nc1NC1CC12CC2

>  <inchikey>  (4893) 
XYYFPRHFMRNDAX-UHFFFAOYSA-N

>  <distance_score>  (4893) 
1.923413

>  <ref_mols>  (4893) 
Z1688a,Z0089a

>  <ref_pdb>  (4893) 
Z0089a

>  <HIPPO Compound ID>  (4893) 
146420

>  <name>  (4893) 
XYYFPRHFMRNDAX-UHFFFAOYSA-N-P91-P7-P91-601531

>  <inspiration_score>  (4893) 
None

$$$$
CIXPCBIWZCRXBA-UHFFFAOYSA-N-P91-P7-P91-601531
     RDKit          3D

 18 20  0  0  0  0  0  0  0  0999 V2000
   -1.8122    7.5757  -19.9171 C   0  0  0  0  0  0  0  0  0  0  0  0
   -1.5279    6.1712  -19.4493 C   0  0  0  0  0  0  0  0  0  0  0  0
   -0.3592    6.0639  -18.5082 C   0  0  0  0  0  0  0  0  0  0  0  0
   -1.7325    5.0537  -20.4427 C   0  0  0  0  0  0  0  0  0  0  0  0
   -2.6753    5.1913  -19.2840 C   0  0  2  0  0  0  0  0  0  0  0  0
   -4.0550    5.6089  -19.5206 N   0  0  0  0  0  0  0  0  0  0  0  0
   -5.0453    5.3954  -18.5544 C   0  0  0  0  0  0  0  0  0  0  0  0
   -6.1909    4.9231  -19.0735 N   0  0  0  0  0  0  0  0  0  0  0  0
   -7.2140    4.6635  -18.2513 C   0  0  0  0  0  0  0  0  0  0  0  0
   -8.4246    4.2498  -18.7534 C   0  0  0  0  0  0  0  0  0  0  0  0
   -9.4862    3.9661  -17.9027 C   0  0  0  0  0  0  0  0  0  0  0  0
   -9.3294    4.0402  -16.5341 C   0  0  0  0  0  0  0  0  0  0  0  0
   -8.1466    4.4737  -15.9992 C   0  0  0  0  0  0  0  0  0  0  0  0
   -7.1121    4.8030  -16.8630 C   0  0  0  0  0  0  0  0  0  0  0  0
   -5.9373    5.2961  -16.3434 C   0  0  0  0  0  0  0  0  0  0  0  0
   -4.8926    5.6573  -17.1933 C   0  0  0  0  0  0  0  0  0  0  0  0
   -3.6808    6.2979  -16.6053 C   0  0  0  0  0  0  0  0  0  0  0  0
   -3.9744    6.8128  -15.3041 O   0  0  0  0  0  0  0  0  0  0  0  0
  1  2  1  0
  2  3  1  0
  2  4  1  0
  4  5  1  0
  5  6  1  6
  6  7  1  0
  7  8  2  0
  8  9  1  0
  9 10  2  0
 10 11  1  0
 11 12  2  0
 12 13  1  0
 13 14  2  0
 14 15  1  0
 15 16  2  0
 16 17  1  0
 17 18  1  0
  5  2  1  0
 16  7  1  0
 14  9  1  0
M  END
>  <energy_score>  (4894) 
-26.734979

>  <alias>  (4894) 
CIXPCBIWZCRXBA-UHFFFAOYSA-N-P91-P7-P91-601531

>  <HIPPO Pose ID>  (4894) 
86544

>  <smiles>  (4894) 
CC1(C)CC1Nc1nc2ccccc2cc1CO

>  <inchikey>  (4894) 
CIXPCBIWZCRXBA-UHFFFAOYSA-N

>  <distance_score>  (4894) 
1.922469

>  <ref_mols>  (4894) 
Z1688a,Z0089a

>  <ref_pdb>  (4894) 
Z0089a

>  <HIPPO Compound ID>  (4894) 
146423

>  <name>  (4894) 
CIXPCBIWZCRXBA-UHFFFAOYSA-N-P91-P7-P91-601531

>  <inspiration_score>  (4894) 
None

$$$$
YCSIYADGHJGZBG-UHFFFAOYSA-N-P7-P7-P91-601531
     RDKit          3D

 18 20  0  0  0  0  0  0  0  0999 V2000
   -0.6923    6.3980  -18.3385 C   0  0  0  0  0  0  0  0  0  0  0  0
   -1.7107    6.0201  -19.3826 C   0  0  0  0  0  0  0  0  0  0  0  0
   -1.5519    6.7580  -20.6851 C   0  0  0  0  0  0  0  0  0  0  0  0
   -2.1380    4.5730  -19.4313 C   0  0  0  0  0  0  0  0  0  0  0  0
   -3.1153    5.6149  -18.9678 C   0  0  1  0  0  0  0  0  0  0  0  0
   -3.5198    5.6971  -17.5559 N   0  0  0  0  0  0  0  0  0  0  0  0
   -4.8501    5.3849  -17.1966 C   0  0  0  0  0  0  0  0  0  0  0  0
   -5.2633    5.5341  -15.8677 C   0  0  0  0  0  0  0  0  0  0  0  0
   -6.5967    5.2689  -15.4893 C   0  0  0  0  0  0  0  0  0  0  0  0
   -7.0569    5.6121  -14.0962 C   0  0  0  0  0  0  0  0  0  0  0  0
   -7.2462    4.0644  -12.9561 Br  0  0  0  0  0  0  0  0  0  0  0  0
   -7.4717    4.7938  -16.4893 C   0  0  0  0  0  0  0  0  0  0  0  0
   -8.8310    4.4686  -16.2847 C   0  0  0  0  0  0  0  0  0  0  0  0
   -9.6548    4.1385  -17.3594 C   0  0  0  0  0  0  0  0  0  0  0  0
   -9.1264    4.0965  -18.6369 C   0  0  0  0  0  0  0  0  0  0  0  0
   -7.7762    4.3383  -18.8371 C   0  0  0  0  0  0  0  0  0  0  0  0
   -6.9494    4.6880  -17.7986 C   0  0  0  0  0  0  0  0  0  0  0  0
   -5.6910    4.9623  -18.1349 N   0  0  0  0  0  0  0  0  0  0  0  0
  1  2  1  0
  2  3  1  0
  2  4  1  0
  4  5  1  0
  5  6  1  1
  6  7  1  0
  7  8  2  0
  8  9  1  0
  9 10  1  0
 10 11  1  0
  9 12  2  0
 12 13  1  0
 13 14  2  0
 14 15  1  0
 15 16  2  0
 16 17  1  0
 17 18  2  0
  5  2  1  0
 18  7  1  0
 17 12  1  0
M  END
>  <energy_score>  (4895) 
-14.31254

>  <alias>  (4895) 
YCSIYADGHJGZBG-UHFFFAOYSA-N-P7-P7-P91-601531

>  <HIPPO Pose ID>  (4895) 
86545

>  <smiles>  (4895) 
CC1(C)CC1Nc1cc(CBr)c2ccccc2n1

>  <inchikey>  (4895) 
YCSIYADGHJGZBG-UHFFFAOYSA-N

>  <distance_score>  (4895) 
1.005007

>  <ref_mols>  (4895) 
Z1688a,Z0089a

>  <ref_pdb>  (4895) 
Z0089a

>  <HIPPO Compound ID>  (4895) 
146424

>  <name>  (4895) 
YCSIYADGHJGZBG-UHFFFAOYSA-N-P7-P7-P91-601531

>  <inspiration_score>  (4895) 
None

$$$$
BSGKTSABUJCHQE-UHFFFAOYSA-N-P7-P7-P91-601531
     RDKit          3D

 18 20  0  0  0  0  0  0  0  0999 V2000
   -0.7310    6.4580  -18.3862 C   0  0  0  0  0  0  0  0  0  0  0  0
   -1.7530    6.0446  -19.4132 C   0  0  0  0  0  0  0  0  0  0  0  0
   -1.6618    6.8105  -20.7063 C   0  0  0  0  0  0  0  0  0  0  0  0
   -2.1072    4.5786  -19.4757 C   0  0  0  0  0  0  0  0  0  0  0  0
   -3.1267    5.5627  -18.9758 C   0  0  1  0  0  0  0  0  0  0  0  0
   -3.5032    5.5923  -17.5544 N   0  0  0  0  0  0  0  0  0  0  0  0
   -4.8291    5.2902  -17.1749 C   0  0  0  0  0  0  0  0  0  0  0  0
   -5.1852    5.3170  -15.8289 C   0  0  0  0  0  0  0  0  0  0  0  0
   -6.5066    5.0248  -15.4457 C   0  0  0  0  0  0  0  0  0  0  0  0
   -6.8101    5.1091  -13.9839 C   0  0  0  0  0  0  0  0  0  0  0  0
   -7.9237    5.1565  -13.4804 O   0  0  0  0  0  0  0  0  0  0  0  0
   -7.4531    4.6916  -16.4329 C   0  0  0  0  0  0  0  0  0  0  0  0
   -8.8153    4.3722  -16.2214 C   0  0  0  0  0  0  0  0  0  0  0  0
   -9.6664    4.1271  -17.2987 C   0  0  0  0  0  0  0  0  0  0  0  0
   -9.1675    4.1565  -18.5879 C   0  0  0  0  0  0  0  0  0  0  0  0
   -7.8206    4.4037  -18.7985 C   0  0  0  0  0  0  0  0  0  0  0  0
   -6.9705    4.6861  -17.7578 C   0  0  0  0  0  0  0  0  0  0  0  0
   -5.7162    4.9668  -18.1090 N   0  0  0  0  0  0  0  0  0  0  0  0
  1  2  1  0
  2  3  1  0
  2  4  1  0
  4  5  1  0
  5  6  1  1
  6  7  1  0
  7  8  2  0
  8  9  1  0
  9 10  1  0
 10 11  2  0
  9 12  2  0
 12 13  1  0
 13 14  2  0
 14 15  1  0
 15 16  2  0
 16 17  1  0
 17 18  2  0
  5  2  1  0
 18  7  1  0
 17 12  1  0
M  END
>  <energy_score>  (4896) 
-17.012004

>  <alias>  (4896) 
BSGKTSABUJCHQE-UHFFFAOYSA-N-P7-P7-P91-601531

>  <HIPPO Pose ID>  (4896) 
86549

>  <smiles>  (4896) 
CC1(C)CC1Nc1cc(C=O)c2ccccc2n1

>  <inchikey>  (4896) 
BSGKTSABUJCHQE-UHFFFAOYSA-N

>  <distance_score>  (4896) 
1.083915

>  <ref_mols>  (4896) 
Z1688a,Z0089a

>  <ref_pdb>  (4896) 
Z0089a

>  <HIPPO Compound ID>  (4896) 
146426

>  <name>  (4896) 
BSGKTSABUJCHQE-UHFFFAOYSA-N-P7-P7-P91-601531

>  <inspiration_score>  (4896) 
None

$$$$
NJPSRSVNEHPEQV-UHFFFAOYSA-N-P7-P7-P91-601531
     RDKit          3D

 18 20  0  0  0  0  0  0  0  0999 V2000
   -5.1320    7.9817  -16.7503 N   0  0  0  0  0  0  0  0  0  0  0  0
   -5.4322    7.2847  -17.6299 C   0  0  0  0  0  0  0  0  0  0  0  0
   -5.7866    6.2864  -18.6253 C   0  0  0  0  0  0  0  0  0  0  0  0
   -7.0692    5.7656  -18.5216 C   0  0  0  0  0  0  0  0  0  0  0  0
   -7.3199    4.8570  -17.5060 C   0  0  0  0  0  0  0  0  0  0  0  0
   -8.6060    4.5521  -17.0443 C   0  0  0  0  0  0  0  0  0  0  0  0
   -8.7374    4.0598  -15.7604 C   0  0  0  0  0  0  0  0  0  0  0  0
   -7.6053    3.8031  -14.9965 C   0  0  0  0  0  0  0  0  0  0  0  0
   -6.3376    3.9382  -15.5652 C   0  0  0  0  0  0  0  0  0  0  0  0
   -6.1761    4.3889  -16.8645 C   0  0  0  0  0  0  0  0  0  0  0  0
   -4.9727    4.4341  -17.4972 N   0  0  0  0  0  0  0  0  0  0  0  0
   -4.8723    5.2909  -18.5212 C   0  0  0  0  0  0  0  0  0  0  0  0
   -3.9339    5.1006  -19.5451 N   0  0  0  0  0  0  0  0  0  0  0  0
   -2.6821    5.9159  -19.5426 C   0  0  0  0  0  0  0  0  0  0  0  0
   -1.5203    5.2147  -18.8835 C   0  0  0  0  0  0  0  0  0  0  0  0
   -1.5096    3.4033  -19.5707 Br  0  0  0  0  0  0  0  0  0  0  0  0
   -2.6742    7.4250  -19.5587 C   0  0  0  0  0  0  0  0  0  0  0  0
   -2.3795    6.6808  -20.8210 C   0  0  0  0  0  0  0  0  0  0  0  0
  1  2  3  0
  2  3  1  0
  3  4  2  0
  4  5  1  0
  5  6  2  0
  6  7  1  0
  7  8  2  0
  8  9  1  0
  9 10  2  0
 10 11  1  0
 11 12  2  0
 12 13  1  0
 13 14  1  0
 14 15  1  0
 15 16  1  0
 14 17  1  0
 17 18  1  0
 12  3  1  0
 18 14  1  0
 10  5  1  0
M  END
>  <energy_score>  (4897) 
-1.27855

>  <alias>  (4897) 
NJPSRSVNEHPEQV-UHFFFAOYSA-N-P7-P7-P91-601531

>  <HIPPO Pose ID>  (4897) 
86551

>  <smiles>  (4897) 
N#Cc1cc2ccccc2nc1NC1(CBr)CC1

>  <inchikey>  (4897) 
NJPSRSVNEHPEQV-UHFFFAOYSA-N

>  <distance_score>  (4897) 
1.81442

>  <ref_mols>  (4897) 
Z1688a,Z0089a

>  <ref_pdb>  (4897) 
Z0089a

>  <HIPPO Compound ID>  (4897) 
146427

>  <name>  (4897) 
NJPSRSVNEHPEQV-UHFFFAOYSA-N-P7-P7-P91-601531

>  <inspiration_score>  (4897) 
None

$$$$
ZJHHDNMNIJZIST-UHFFFAOYSA-N-P91-P7-P91-601531
     RDKit          3D

 18 20  0  0  0  0  0  0  0  0999 V2000
   -3.8574    6.5934  -15.3445 O   0  0  0  0  0  0  0  0  0  0  0  0
   -3.5551    5.9601  -16.5941 C   0  0  0  0  0  0  0  0  0  0  0  0
   -4.8058    5.4794  -17.2514 C   0  0  0  0  0  0  0  0  0  0  0  0
   -5.8691    5.1587  -16.3954 C   0  0  0  0  0  0  0  0  0  0  0  0
   -7.0815    4.7463  -16.8965 C   0  0  0  0  0  0  0  0  0  0  0  0
   -8.1145    4.4433  -16.0192 C   0  0  0  0  0  0  0  0  0  0  0  0
   -9.3225    4.0626  -16.5389 C   0  0  0  0  0  0  0  0  0  0  0  0
   -9.5056    4.0207  -17.9055 C   0  0  0  0  0  0  0  0  0  0  0  0
   -8.4459    4.2803  -18.7677 C   0  0  0  0  0  0  0  0  0  0  0  0
   -7.2101    4.6378  -18.2798 C   0  0  0  0  0  0  0  0  0  0  0  0
   -6.1801    4.8602  -19.1061 N   0  0  0  0  0  0  0  0  0  0  0  0
   -4.9893    5.2551  -18.6138 C   0  0  0  0  0  0  0  0  0  0  0  0
   -4.0496    5.3447  -19.6291 N   0  0  0  0  0  0  0  0  0  0  0  0
   -2.7027    5.9124  -19.6265 C   0  0  0  0  0  0  0  0  0  0  0  0
   -1.6176    4.9103  -19.2547 C   0  0  0  0  0  0  0  0  0  0  0  0
    0.0196    5.6992  -18.5522 Br  0  0  0  0  0  0  0  0  0  0  0  0
   -2.3653    6.7793  -20.8330 C   0  0  0  0  0  0  0  0  0  0  0  0
   -2.5658    7.4325  -19.5131 C   0  0  0  0  0  0  0  0  0  0  0  0
  1  2  1  0
  2  3  1  0
  3  4  2  0
  4  5  1  0
  5  6  2  0
  6  7  1  0
  7  8  2  0
  8  9  1  0
  9 10  2  0
 10 11  1  0
 11 12  2  0
 12 13  1  0
 13 14  1  0
 14 15  1  0
 15 16  1  0
 14 17  1  0
 17 18  1  0
 12  3  1  0
 18 14  1  0
 10  5  1  0
M  END
>  <energy_score>  (4898) 
-17.960943

>  <alias>  (4898) 
ZJHHDNMNIJZIST-UHFFFAOYSA-N-P91-P7-P91-601531

>  <HIPPO Pose ID>  (4898) 
86554

>  <smiles>  (4898) 
OCc1cc2ccccc2nc1NC1(CBr)CC1

>  <inchikey>  (4898) 
ZJHHDNMNIJZIST-UHFFFAOYSA-N

>  <distance_score>  (4898) 
1.946376

>  <ref_mols>  (4898) 
Z1688a,Z0089a

>  <ref_pdb>  (4898) 
Z0089a

>  <HIPPO Compound ID>  (4898) 
146428

>  <name>  (4898) 
ZJHHDNMNIJZIST-UHFFFAOYSA-N-P91-P7-P91-601531

>  <inspiration_score>  (4898) 
None

$$$$
VVODCKKQBSFBPH-UHFFFAOYSA-N-P91-P7-P91-601531
     RDKit          3D

 18 20  0  0  0  0  0  0  0  0999 V2000
   -4.0612    7.3427  -15.2302 Br  0  0  0  0  0  0  0  0  0  0  0  0
   -3.6221    5.7739  -16.3045 C   0  0  0  0  0  0  0  0  0  0  0  0
   -4.8311    5.3768  -17.0677 C   0  0  0  0  0  0  0  0  0  0  0  0
   -5.8976    4.9313  -16.2720 C   0  0  0  0  0  0  0  0  0  0  0  0
   -7.1148    4.6269  -16.8304 C   0  0  0  0  0  0  0  0  0  0  0  0
   -8.1716    4.2755  -16.0029 C   0  0  0  0  0  0  0  0  0  0  0  0
   -9.3848    4.0078  -16.5758 C   0  0  0  0  0  0  0  0  0  0  0  0
   -9.5413    4.0896  -17.9423 C   0  0  0  0  0  0  0  0  0  0  0  0
   -8.4563    4.3873  -18.7567 C   0  0  0  0  0  0  0  0  0  0  0  0
   -7.2266    4.6868  -18.2172 C   0  0  0  0  0  0  0  0  0  0  0  0
   -6.1971    5.0450  -18.9954 N   0  0  0  0  0  0  0  0  0  0  0  0
   -5.0269    5.4242  -18.4432 C   0  0  0  0  0  0  0  0  0  0  0  0
   -4.1605    5.8891  -19.4189 N   0  0  0  0  0  0  0  0  0  0  0  0
   -2.7352    6.2005  -19.3613 C   0  0  0  0  0  0  0  0  0  0  0  0
   -1.8108    5.0022  -19.3399 C   0  0  0  0  0  0  0  0  0  0  0  0
   -1.7711    4.2422  -21.1211 Br  0  0  0  0  0  0  0  0  0  0  0  0
   -2.2723    7.5104  -18.7479 C   0  0  0  0  0  0  0  0  0  0  0  0
   -2.2861    7.3781  -20.2287 C   0  0  0  0  0  0  0  0  0  0  0  0
  1  2  1  0
  2  3  1  0
  3  4  2  0
  4  5  1  0
  5  6  2  0
  6  7  1  0
  7  8  2  0
  8  9  1  0
  9 10  2  0
 10 11  1  0
 11 12  2  0
 12 13  1  0
 13 14  1  0
 14 15  1  0
 15 16  1  0
 14 17  1  0
 17 18  1  0
 12  3  1  0
 18 14  1  0
 10  5  1  0
M  END
>  <energy_score>  (4899) 
-19.72847

>  <alias>  (4899) 
VVODCKKQBSFBPH-UHFFFAOYSA-N-P91-P7-P91-601531

>  <HIPPO Pose ID>  (4899) 
86558

>  <smiles>  (4899) 
BrCc1cc2ccccc2nc1NC1(CBr)CC1

>  <inchikey>  (4899) 
VVODCKKQBSFBPH-UHFFFAOYSA-N

>  <distance_score>  (4899) 
1.958317

>  <ref_mols>  (4899) 
Z1688a,Z0089a

>  <ref_pdb>  (4899) 
Z0089a

>  <HIPPO Compound ID>  (4899) 
146430

>  <name>  (4899) 
VVODCKKQBSFBPH-UHFFFAOYSA-N-P91-P7-P91-601531

>  <inspiration_score>  (4899) 
None

$$$$
WYGLUKDXQCGDJV-UHFFFAOYSA-N-P91-P7-P91-601531
     RDKit          3D

 18 19  0  0  0  0  0  0  0  0999 V2000
   -1.4119    3.7483  -19.6537 C   0  0  0  0  0  0  0  0  0  0  0  0
   -2.3831    4.8054  -20.1189 C   0  0  0  0  0  0  0  0  0  0  0  0
   -2.7597    5.7619  -18.9847 C   0  0  1  0  0  0  0  0  0  0  0  0
   -1.8396    6.9876  -18.9823 C   0  0  0  0  0  0  0  0  0  0  0  0
   -0.5614    6.6043  -18.7175 F   0  0  0  0  0  0  0  0  0  0  0  0
   -4.1484    6.2064  -19.1569 N   0  0  0  0  0  0  0  0  0  0  0  0
   -5.0952    5.6965  -18.2766 C   0  0  0  0  0  0  0  0  0  0  0  0
   -6.1566    5.1630  -18.8974 N   0  0  0  0  0  0  0  0  0  0  0  0
   -7.1974    4.7496  -18.1580 C   0  0  0  0  0  0  0  0  0  0  0  0
   -8.3457    4.3036  -18.7597 C   0  0  0  0  0  0  0  0  0  0  0  0
   -9.4517    3.9608  -17.9944 C   0  0  0  0  0  0  0  0  0  0  0  0
   -9.3993    3.9796  -16.6174 C   0  0  0  0  0  0  0  0  0  0  0  0
   -8.2639    4.3885  -15.9783 C   0  0  0  0  0  0  0  0  0  0  0  0
   -7.1912    4.7943  -16.7542 C   0  0  0  0  0  0  0  0  0  0  0  0
   -6.0838    5.2971  -16.1214 C   0  0  0  0  0  0  0  0  0  0  0  0
   -5.0405    5.7905  -16.8904 C   0  0  0  0  0  0  0  0  0  0  0  0
   -4.0242    6.4513  -16.1634 C   0  0  0  0  0  0  0  0  0  0  0  0
   -3.2810    6.9707  -15.4438 N   0  0  0  0  0  0  0  0  0  0  0  0
  1  2  1  0
  3  2  1  6
  3  4  1  0
  4  5  1  0
  3  6  1  0
  6  7  1  0
  7  8  2  0
  8  9  1  0
  9 10  2  0
 10 11  1  0
 11 12  2  0
 12 13  1  0
 13 14  2  0
 14 15  1  0
 15 16  2  0
 16 17  1  0
 17 18  3  0
 16  7  1  0
 14  9  1  0
M  END
>  <energy_score>  (4900) 
-15.03496

>  <alias>  (4900) 
WYGLUKDXQCGDJV-UHFFFAOYSA-N-P91-P7-P91-601531

>  <HIPPO Pose ID>  (4900) 
86560

>  <smiles>  (4900) 
CCC(CF)Nc1nc2ccccc2cc1C#N

>  <inchikey>  (4900) 
WYGLUKDXQCGDJV-UHFFFAOYSA-N

>  <distance_score>  (4900) 
1.974717

>  <ref_mols>  (4900) 
Z1688a,Z0089a

>  <ref_pdb>  (4900) 
Z0089a

>  <HIPPO Compound ID>  (4900) 
146431

>  <name>  (4900) 
WYGLUKDXQCGDJV-UHFFFAOYSA-N-P91-P7-P91-601531

>  <inspiration_score>  (4900) 
None

$$$$
GXSNCIXJUHMDEE-UHFFFAOYSA-N-P91-P7-P91-601531
     RDKit          3D

 18 19  0  0  0  0  0  0  0  0999 V2000
   -2.0151    5.8623  -21.8162 C   0  0  0  0  0  0  0  0  0  0  0  0
   -2.2351    4.7385  -20.8238 C   0  0  0  0  0  0  0  0  0  0  0  0
   -2.0813    3.5686  -21.1941 O   0  0  0  0  0  0  0  0  0  0  0  0
   -2.6389    5.1313  -19.3851 C   0  0  1  0  0  0  0  0  0  0  0  0
   -1.5385    6.0535  -18.8598 C   0  0  0  0  0  0  0  0  0  0  0  0
   -3.9362    5.8348  -19.3997 N   0  0  0  0  0  0  0  0  0  0  0  0
   -4.8988    5.4671  -18.4603 C   0  0  0  0  0  0  0  0  0  0  0  0
   -6.0072    4.9705  -19.0340 N   0  0  0  0  0  0  0  0  0  0  0  0
   -7.0661    4.6642  -18.2614 C   0  0  0  0  0  0  0  0  0  0  0  0
   -8.2543    4.2481  -18.8146 C   0  0  0  0  0  0  0  0  0  0  0  0
   -9.3598    3.9685  -18.0148 C   0  0  0  0  0  0  0  0  0  0  0  0
   -9.2795    4.0373  -16.6400 C   0  0  0  0  0  0  0  0  0  0  0  0
   -8.1114    4.4414  -16.0525 C   0  0  0  0  0  0  0  0  0  0  0  0
   -7.0327    4.7711  -16.8680 C   0  0  0  0  0  0  0  0  0  0  0  0
   -5.8812    5.2497  -16.2906 C   0  0  0  0  0  0  0  0  0  0  0  0
   -4.8140    5.6746  -17.0868 C   0  0  0  0  0  0  0  0  0  0  0  0
   -3.6818    6.3623  -16.4081 C   0  0  0  0  0  0  0  0  0  0  0  0
   -4.1079    6.9122  -15.1594 O   0  0  0  0  0  0  0  0  0  0  0  0
  1  2  1  0
  2  3  2  0
  2  4  1  0
  4  5  1  6
  4  6  1  0
  6  7  1  0
  7  8  2  0
  8  9  1  0
  9 10  2  0
 10 11  1  0
 11 12  2  0
 12 13  1  0
 13 14  2  0
 14 15  1  0
 15 16  2  0
 16 17  1  0
 17 18  1  0
 16  7  1  0
 14  9  1  0
M  END
>  <energy_score>  (4901) 
-30.556715

>  <alias>  (4901) 
GXSNCIXJUHMDEE-UHFFFAOYSA-N-P91-P7-P91-601531

>  <HIPPO Pose ID>  (4901) 
86572

>  <smiles>  (4901) 
CC(=O)C(C)Nc1nc2ccccc2cc1CO

>  <inchikey>  (4901) 
GXSNCIXJUHMDEE-UHFFFAOYSA-N

>  <distance_score>  (4901) 
1.939614

>  <ref_mols>  (4901) 
Z1688a,Z0089a

>  <ref_pdb>  (4901) 
Z0089a

>  <HIPPO Compound ID>  (4901) 
146437

>  <name>  (4901) 
GXSNCIXJUHMDEE-UHFFFAOYSA-N-P91-P7-P91-601531

>  <inspiration_score>  (4901) 
None

$$$$
UUNQJQGLMQLTQT-UHFFFAOYSA-N-P91-P7-P91-601531
     RDKit          3D

 18 19  0  0  0  0  0  0  0  0999 V2000
   -1.4442    3.8420  -19.6205 C   0  0  0  0  0  0  0  0  0  0  0  0
   -1.6886    5.1957  -19.0416 C   0  0  0  0  0  0  0  0  0  0  0  0
   -0.7561    5.9177  -18.6764 O   0  0  0  0  0  0  0  0  0  0  0  0
   -3.1441    5.6020  -18.8676 C   0  0  2  0  0  0  0  0  0  0  0  0
   -3.2999    7.0468  -19.3257 C   0  0  0  0  0  0  0  0  0  0  0  0
   -3.4573    5.4665  -17.4386 N   0  0  0  0  0  0  0  0  0  0  0  0
   -4.7909    5.2963  -17.0902 C   0  0  0  0  0  0  0  0  0  0  0  0
   -5.1785    5.2986  -15.7551 C   0  0  0  0  0  0  0  0  0  0  0  0
   -6.5179    5.0429  -15.4117 C   0  0  0  0  0  0  0  0  0  0  0  0
   -6.8542    5.0927  -13.9569 C   0  0  0  0  0  0  0  0  0  0  0  0
   -7.9759    5.1968  -13.4803 O   0  0  0  0  0  0  0  0  0  0  0  0
   -7.4456    4.7519  -16.4288 C   0  0  0  0  0  0  0  0  0  0  0  0
   -8.8146    4.4421  -16.2621 C   0  0  0  0  0  0  0  0  0  0  0  0
   -9.6364    4.2267  -17.3687 C   0  0  0  0  0  0  0  0  0  0  0  0
   -9.0993    4.2730  -18.6414 C   0  0  0  0  0  0  0  0  0  0  0  0
   -7.7445    4.4949  -18.8065 C   0  0  0  0  0  0  0  0  0  0  0  0
   -6.9285    4.7629  -17.7383 C   0  0  0  0  0  0  0  0  0  0  0  0
   -5.6636    5.0320  -18.0516 N   0  0  0  0  0  0  0  0  0  0  0  0
  1  2  1  0
  2  3  2  0
  2  4  1  0
  4  5  1  1
  4  6  1  0
  6  7  1  0
  7  8  2  0
  8  9  1  0
  9 10  1  0
 10 11  2  0
  9 12  2  0
 12 13  1  0
 13 14  2  0
 14 15  1  0
 15 16  2  0
 16 17  1  0
 17 18  2  0
 18  7  1  0
 17 12  1  0
M  END
>  <energy_score>  (4902) 
-26.029892

>  <alias>  (4902) 
UUNQJQGLMQLTQT-UHFFFAOYSA-N-P91-P7-P91-601531

>  <HIPPO Pose ID>  (4902) 
86578

>  <smiles>  (4902) 
CC(=O)C(C)Nc1cc(C=O)c2ccccc2n1

>  <inchikey>  (4902) 
UUNQJQGLMQLTQT-UHFFFAOYSA-N

>  <distance_score>  (4902) 
1.125257

>  <ref_mols>  (4902) 
Z1688a,Z0089a

>  <ref_pdb>  (4902) 
Z0089a

>  <HIPPO Compound ID>  (4902) 
146440

>  <name>  (4902) 
UUNQJQGLMQLTQT-UHFFFAOYSA-N-P91-P7-P91-601531

>  <inspiration_score>  (4902) 
None

$$$$
MBOYGASWJXOWHK-UHFFFAOYSA-N-P91-P7-P91-601531
     RDKit          3D

 18 20  0  0  0  0  0  0  0  0999 V2000
   -3.5287    6.0806  -15.3992 O   0  0  0  0  0  0  0  0  0  0  0  0
   -3.5237    6.1525  -16.8297 C   0  0  0  0  0  0  0  0  0  0  0  0
   -4.7681    5.5716  -17.4134 C   0  0  0  0  0  0  0  0  0  0  0  0
   -5.8419    5.3495  -16.5361 C   0  0  0  0  0  0  0  0  0  0  0  0
   -7.0394    4.8488  -16.9907 C   0  0  0  0  0  0  0  0  0  0  0  0
   -8.0601    4.5810  -16.0827 C   0  0  0  0  0  0  0  0  0  0  0  0
   -9.2541    4.1040  -16.5549 C   0  0  0  0  0  0  0  0  0  0  0  0
   -9.4372    3.9492  -17.9136 C   0  0  0  0  0  0  0  0  0  0  0  0
   -8.3933    4.1900  -18.8042 C   0  0  0  0  0  0  0  0  0  0  0  0
   -7.1646    4.6218  -18.3589 C   0  0  0  0  0  0  0  0  0  0  0  0
   -6.1471    4.8196  -19.2113 N   0  0  0  0  0  0  0  0  0  0  0  0
   -4.9624    5.2865  -18.7653 C   0  0  0  0  0  0  0  0  0  0  0  0
   -4.0696    5.4762  -19.8156 N   0  0  0  0  0  0  0  0  0  0  0  0
   -2.6125    5.6398  -19.8240 C   0  0  0  0  0  0  0  0  0  0  0  0
   -1.7851    4.3733  -19.6323 C   0  0  0  0  0  0  0  0  0  0  0  0
   -1.6087    3.6983  -20.8878 O   0  0  0  0  0  0  0  0  0  0  0  0
   -2.0028    6.9862  -19.4720 C   0  0  0  0  0  0  0  0  0  0  0  0
   -2.0746    6.5773  -20.9020 C   0  0  0  0  0  0  0  0  0  0  0  0
  1  2  1  0
  2  3  1  0
  3  4  2  0
  4  5  1  0
  5  6  2  0
  6  7  1  0
  7  8  2  0
  8  9  1  0
  9 10  2  0
 10 11  1  0
 11 12  2  0
 12 13  1  0
 13 14  1  0
 14 15  1  0
 15 16  1  0
 14 17  1  0
 17 18  1  0
 12  3  1  0
 18 14  1  0
 10  5  1  0
M  END
>  <energy_score>  (4903) 
-15.477408

>  <alias>  (4903) 
MBOYGASWJXOWHK-UHFFFAOYSA-N-P91-P7-P91-601531

>  <HIPPO Pose ID>  (4903) 
86582

>  <smiles>  (4903) 
OCc1cc2ccccc2nc1NC1(CO)CC1

>  <inchikey>  (4903) 
MBOYGASWJXOWHK-UHFFFAOYSA-N

>  <distance_score>  (4903) 
1.907491

>  <ref_mols>  (4903) 
Z1688a,Z0089a

>  <ref_pdb>  (4903) 
Z0089a

>  <HIPPO Compound ID>  (4903) 
146442

>  <name>  (4903) 
MBOYGASWJXOWHK-UHFFFAOYSA-N-P91-P7-P91-601531

>  <inspiration_score>  (4903) 
None

$$$$
SMCMKISWNCMPHY-UHFFFAOYSA-N-P7-P7-P91-601531
     RDKit          3D

 18 20  0  0  0  0  0  0  0  0999 V2000
   -2.5423    3.7687  -18.3589 O   0  0  0  0  0  0  0  0  0  0  0  0
   -1.9973    4.4936  -19.4478 C   0  0  0  0  0  0  0  0  0  0  0  0
   -2.8300    5.7438  -19.7165 C   0  0  0  0  0  0  0  0  0  0  0  0
   -4.2920    5.5957  -19.6863 N   0  0  0  0  0  0  0  0  0  0  0  0
   -5.1724    5.3474  -18.6391 C   0  0  0  0  0  0  0  0  0  0  0  0
   -6.3588    4.9252  -19.1219 N   0  0  0  0  0  0  0  0  0  0  0  0
   -7.3582    4.6061  -18.2870 C   0  0  0  0  0  0  0  0  0  0  0  0
   -8.6021    4.2550  -18.7644 C   0  0  0  0  0  0  0  0  0  0  0  0
   -9.6536    3.9641  -17.8997 C   0  0  0  0  0  0  0  0  0  0  0  0
   -9.4519    3.9671  -16.5336 C   0  0  0  0  0  0  0  0  0  0  0  0
   -8.2186    4.2865  -16.0241 C   0  0  0  0  0  0  0  0  0  0  0  0
   -7.1943    4.6204  -16.9051 C   0  0  0  0  0  0  0  0  0  0  0  0
   -5.9661    5.0008  -16.4130 C   0  0  0  0  0  0  0  0  0  0  0  0
   -4.9470    5.4500  -17.2697 C   0  0  0  0  0  0  0  0  0  0  0  0
   -3.7126    5.9528  -16.6065 C   0  0  0  0  0  0  0  0  0  0  0  0
   -4.1915    7.3454  -15.3093 Br  0  0  0  0  0  0  0  0  0  0  0  0
   -2.2142    7.1052  -19.4524 C   0  0  0  0  0  0  0  0  0  0  0  0
   -2.2936    6.6068  -20.8543 C   0  0  0  0  0  0  0  0  0  0  0  0
  1  2  1  0
  2  3  1  0
  3  4  1  0
  4  5  1  0
  5  6  2  0
  6  7  1  0
  7  8  2  0
  8  9  1  0
  9 10  2  0
 10 11  1  0
 11 12  2  0
 12 13  1  0
 13 14  2  0
 14 15  1  0
 15 16  1  0
  3 17  1  0
 17 18  1  0
 18  3  1  0
 14  5  1  0
 12  7  1  0
M  END
>  <energy_score>  (4904) 
-47.770985

>  <alias>  (4904) 
SMCMKISWNCMPHY-UHFFFAOYSA-N-P7-P7-P91-601531

>  <HIPPO Pose ID>  (4904) 
86585

>  <smiles>  (4904) 
OCC1(Nc2nc3ccccc3cc2CBr)CC1

>  <inchikey>  (4904) 
SMCMKISWNCMPHY-UHFFFAOYSA-N

>  <distance_score>  (4904) 
1.939586

>  <ref_mols>  (4904) 
Z1688a,Z0089a

>  <ref_pdb>  (4904) 
Z0089a

>  <HIPPO Compound ID>  (4904) 
146444

>  <name>  (4904) 
SMCMKISWNCMPHY-UHFFFAOYSA-N-P7-P7-P91-601531

>  <inspiration_score>  (4904) 
None

$$$$
FKNPKHVLUBKNPT-UHFFFAOYSA-N-P7-P7-P91-601531
     RDKit          3D

 18 20  0  0  0  0  0  0  0  0999 V2000
   -6.9645    5.2094  -13.6111 O   0  0  0  0  0  0  0  0  0  0  0  0
   -6.0333    5.3370  -14.3963 C   0  0  0  0  0  0  0  0  0  0  0  0
   -6.0780    5.1483  -15.8866 C   0  0  0  0  0  0  0  0  0  0  0  0
   -4.9147    5.4618  -16.6363 C   0  0  0  0  0  0  0  0  0  0  0  0
   -4.9461    5.3611  -18.0214 C   0  0  0  0  0  0  0  0  0  0  0  0
   -3.9762    5.7621  -18.9329 N   0  0  0  0  0  0  0  0  0  0  0  0
   -2.5164    5.6908  -18.7989 C   0  0  0  0  0  0  0  0  0  0  0  0
   -1.8683    4.4042  -19.3066 C   0  0  0  0  0  0  0  0  0  0  0  0
   -1.8707    4.3825  -20.7422 O   0  0  0  0  0  0  0  0  0  0  0  0
   -1.7924    6.5212  -17.7625 C   0  0  0  0  0  0  0  0  0  0  0  0
   -1.7677    6.9593  -19.1881 C   0  0  0  0  0  0  0  0  0  0  0  0
   -6.0457    4.9508  -18.6434 N   0  0  0  0  0  0  0  0  0  0  0  0
   -7.1404    4.6469  -17.9567 C   0  0  0  0  0  0  0  0  0  0  0  0
   -8.2260    4.2776  -18.7160 C   0  0  0  0  0  0  0  0  0  0  0  0
   -9.4424    3.9899  -18.1315 C   0  0  0  0  0  0  0  0  0  0  0  0
   -9.5499    4.0158  -16.7581 C   0  0  0  0  0  0  0  0  0  0  0  0
   -8.4667    4.3645  -15.9645 C   0  0  0  0  0  0  0  0  0  0  0  0
   -7.2378    4.7172  -16.5562 C   0  0  0  0  0  0  0  0  0  0  0  0
  1  2  2  0
  2  3  1  0
  3  4  2  0
  4  5  1  0
  5  6  1  0
  6  7  1  0
  7  8  1  0
  8  9  1  0
  7 10  1  0
 10 11  1  0
  5 12  2  0
 12 13  1  0
 13 14  2  0
 14 15  1  0
 15 16  2  0
 16 17  1  0
 17 18  2  0
 18  3  1  0
 11  7  1  0
 18 13  1  0
M  END
>  <energy_score>  (4905) 
-21.576568

>  <alias>  (4905) 
FKNPKHVLUBKNPT-UHFFFAOYSA-N-P7-P7-P91-601531

>  <HIPPO Pose ID>  (4905) 
86587

>  <smiles>  (4905) 
O=Cc1cc(NC2(CO)CC2)nc2ccccc12

>  <inchikey>  (4905) 
FKNPKHVLUBKNPT-UHFFFAOYSA-N

>  <distance_score>  (4905) 
1.279907

>  <ref_mols>  (4905) 
Z1688a,Z0089a

>  <ref_pdb>  (4905) 
Z0089a

>  <HIPPO Compound ID>  (4905) 
146445

>  <name>  (4905) 
FKNPKHVLUBKNPT-UHFFFAOYSA-N-P7-P7-P91-601531

>  <inspiration_score>  (4905) 
None

$$$$
AODLVEMNPFCVGS-UHFFFAOYSA-N-P7-P7-P91-601531
     RDKit          3D

 18 20  0  0  0  0  0  0  0  0999 V2000
    0.6946    5.4722  -19.2513 O   0  0  0  0  0  0  0  0  0  0  0  0
   -0.5154    5.4771  -19.2688 C   0  0  0  0  0  0  0  0  0  0  0  0
   -1.6492    4.4745  -19.6469 C   0  0  0  0  0  0  0  0  0  0  0  0
   -2.5222    5.2869  -18.6474 C   0  0  0  0  0  0  0  0  0  0  0  0
   -3.8508    5.5835  -19.0999 N   0  0  0  0  0  0  0  0  0  0  0  0
   -4.9988    5.4761  -18.2992 C   0  0  0  0  0  0  0  0  0  0  0  0
   -6.0242    4.8852  -18.9322 N   0  0  0  0  0  0  0  0  0  0  0  0
   -7.1578    4.6449  -18.2510 C   0  0  0  0  0  0  0  0  0  0  0  0
   -8.2451    4.0901  -18.8764 C   0  0  0  0  0  0  0  0  0  0  0  0
   -9.4079    3.8000  -18.1674 C   0  0  0  0  0  0  0  0  0  0  0  0
   -9.4984    4.0351  -16.8110 C   0  0  0  0  0  0  0  0  0  0  0  0
   -8.4434    4.6177  -16.1594 C   0  0  0  0  0  0  0  0  0  0  0  0
   -7.3029    4.9418  -16.8920 C   0  0  0  0  0  0  0  0  0  0  0  0
   -6.2724    5.6124  -16.2775 C   0  0  0  0  0  0  0  0  0  0  0  0
   -5.1036    5.9207  -16.9842 C   0  0  0  0  0  0  0  0  0  0  0  0
   -4.0988    6.7484  -16.2681 C   0  0  0  0  0  0  0  0  0  0  0  0
   -3.4479    5.7615  -14.7291 Br  0  0  0  0  0  0  0  0  0  0  0  0
   -1.5711    6.5103  -18.8286 C   0  0  0  0  0  0  0  0  0  0  0  0
  1  2  2  0
  2  3  1  0
  3  4  1  0
  4  5  1  0
  5  6  1  0
  6  7  2  0
  7  8  1  0
  8  9  2  0
  9 10  1  0
 10 11  2  0
 11 12  1  0
 12 13  2  0
 13 14  1  0
 14 15  2  0
 15 16  1  0
 16 17  1  0
  4 18  1  0
 18  2  1  0
 15  6  1  0
 13  8  1  0
M  END
>  <energy_score>  (4906) 
-14.692811

>  <alias>  (4906) 
AODLVEMNPFCVGS-UHFFFAOYSA-N-P7-P7-P91-601531

>  <HIPPO Pose ID>  (4906) 
86589

>  <smiles>  (4906) 
O=C1CC(Nc2nc3ccccc3cc2CBr)C1

>  <inchikey>  (4906) 
AODLVEMNPFCVGS-UHFFFAOYSA-N

>  <distance_score>  (4906) 
1.958711

>  <ref_mols>  (4906) 
Z1688a,Z0089a

>  <ref_pdb>  (4906) 
Z0089a

>  <HIPPO Compound ID>  (4906) 
146446

>  <name>  (4906) 
AODLVEMNPFCVGS-UHFFFAOYSA-N-P7-P7-P91-601531

>  <inspiration_score>  (4906) 
None

$$$$
VDRKBBAJUQLKDE-UHFFFAOYSA-N-P7-P7-P91-601531
     RDKit          3D

 18 20  0  0  0  0  0  0  0  0999 V2000
   -7.8802    5.1574  -13.4938 O   0  0  0  0  0  0  0  0  0  0  0  0
   -6.7708    5.1120  -14.0066 C   0  0  0  0  0  0  0  0  0  0  0  0
   -6.4799    5.0269  -15.4715 C   0  0  0  0  0  0  0  0  0  0  0  0
   -5.1626    5.3203  -15.8692 C   0  0  0  0  0  0  0  0  0  0  0  0
   -4.8238    5.2961  -17.2194 C   0  0  0  0  0  0  0  0  0  0  0  0
   -3.5109    5.5980  -17.6292 N   0  0  0  0  0  0  0  0  0  0  0  0
   -3.0838    5.5942  -19.0111 C   0  0  0  0  0  0  0  0  0  0  0  0
   -2.0476    4.4615  -19.2821 C   0  0  0  0  0  0  0  0  0  0  0  0
   -0.9612    5.5369  -19.0081 C   0  0  0  0  0  0  0  0  0  0  0  0
    0.2011    5.5358  -18.6676 O   0  0  0  0  0  0  0  0  0  0  0  0
   -1.9824    6.6640  -19.2726 C   0  0  0  0  0  0  0  0  0  0  0  0
   -5.7146    4.9669  -18.1444 N   0  0  0  0  0  0  0  0  0  0  0  0
   -6.9655    4.6847  -17.7789 C   0  0  0  0  0  0  0  0  0  0  0  0
   -7.8256    4.3982  -18.8099 C   0  0  0  0  0  0  0  0  0  0  0  0
   -9.1705    4.1525  -18.5855 C   0  0  0  0  0  0  0  0  0  0  0  0
   -9.6574    4.1267  -17.2918 C   0  0  0  0  0  0  0  0  0  0  0  0
   -8.7961    4.3738  -16.2234 C   0  0  0  0  0  0  0  0  0  0  0  0
   -7.4359    4.6926  -16.4491 C   0  0  0  0  0  0  0  0  0  0  0  0
  1  2  2  0
  2  3  1  0
  3  4  2  0
  4  5  1  0
  5  6  1  0
  6  7  1  0
  7  8  1  0
  8  9  1  0
  9 10  2  0
  9 11  1  0
  5 12  2  0
 12 13  1  0
 13 14  2  0
 14 15  1  0
 15 16  2  0
 16 17  1  0
 17 18  2  0
 18  3  1  0
 11  7  1  0
 18 13  1  0
M  END
>  <energy_score>  (4907) 
-12.672795

>  <alias>  (4907) 
VDRKBBAJUQLKDE-UHFFFAOYSA-N-P7-P7-P91-601531

>  <HIPPO Pose ID>  (4907) 
86591

>  <smiles>  (4907) 
O=Cc1cc(NC2CC(=O)C2)nc2ccccc12

>  <inchikey>  (4907) 
VDRKBBAJUQLKDE-UHFFFAOYSA-N

>  <distance_score>  (4907) 
1.065807

>  <ref_mols>  (4907) 
Z1688a,Z0089a

>  <ref_pdb>  (4907) 
Z0089a

>  <HIPPO Compound ID>  (4907) 
146447

>  <name>  (4907) 
VDRKBBAJUQLKDE-UHFFFAOYSA-N-P7-P7-P91-601531

>  <inspiration_score>  (4907) 
None

$$$$
ZJQXNHPLJNEBEH-UHFFFAOYSA-N-P7-P7-P91-601531
     RDKit          3D

 18 20  0  0  0  0  0  0  0  0999 V2000
   -7.9296    5.1360  -13.4892 O   0  0  0  0  0  0  0  0  0  0  0  0
   -6.8124    5.1124  -13.9860 C   0  0  0  0  0  0  0  0  0  0  0  0
   -6.4958    5.0334  -15.4460 C   0  0  0  0  0  0  0  0  0  0  0  0
   -5.1744    5.3393  -15.8151 C   0  0  0  0  0  0  0  0  0  0  0  0
   -4.8079    5.3286  -17.1579 C   0  0  0  0  0  0  0  0  0  0  0  0
   -3.4915    5.6621  -17.5301 N   0  0  0  0  0  0  0  0  0  0  0  0
   -3.0716    5.7803  -18.9074 C   0  0  2  0  0  0  0  0  0  0  0  0
   -2.2449    4.5626  -19.3925 C   0  0  0  0  0  0  0  0  0  0  0  0
   -1.0391    5.4562  -19.7573 C   0  0  0  0  0  0  0  0  0  0  0  0
   -1.7836    6.6217  -19.0943 C   0  0  0  0  0  0  0  0  0  0  0  0
   -1.4781    7.7557  -18.7838 O   0  0  0  0  0  0  0  0  0  0  0  0
   -5.6745    4.9953  -18.1054 N   0  0  0  0  0  0  0  0  0  0  0  0
   -6.9321    4.6997  -17.7661 C   0  0  0  0  0  0  0  0  0  0  0  0
   -7.7744    4.4110  -18.8124 C   0  0  0  0  0  0  0  0  0  0  0  0
   -9.1227    4.1541  -18.6125 C   0  0  0  0  0  0  0  0  0  0  0  0
   -9.6337    4.1235  -17.3277 C   0  0  0  0  0  0  0  0  0  0  0  0
   -8.7918    4.3717  -16.2444 C   0  0  0  0  0  0  0  0  0  0  0  0
   -7.4290    4.6977  -16.4446 C   0  0  0  0  0  0  0  0  0  0  0  0
  1  2  2  0
  2  3  1  0
  3  4  2  0
  4  5  1  0
  5  6  1  0
  7  6  1  1
  7  8  1  0
  8  9  1  0
  9 10  1  0
 10 11  2  0
  5 12  2  0
 12 13  1  0
 13 14  2  0
 14 15  1  0
 15 16  2  0
 16 17  1  0
 17 18  2  0
 18  3  1  0
 10  7  1  0
 18 13  1  0
M  END
>  <energy_score>  (4908) 
-24.348241

>  <alias>  (4908) 
ZJQXNHPLJNEBEH-UHFFFAOYSA-N-P7-P7-P91-601531

>  <HIPPO Pose ID>  (4908) 
86593

>  <smiles>  (4908) 
O=Cc1cc(NC2CCC2=O)nc2ccccc12

>  <inchikey>  (4908) 
ZJQXNHPLJNEBEH-UHFFFAOYSA-N

>  <distance_score>  (4908) 
1.075689

>  <ref_mols>  (4908) 
Z1688a,Z0089a

>  <ref_pdb>  (4908) 
Z0089a

>  <HIPPO Compound ID>  (4908) 
146448

>  <name>  (4908) 
ZJQXNHPLJNEBEH-UHFFFAOYSA-N-P7-P7-P91-601531

>  <inspiration_score>  (4908) 
None

$$$$
RWPZVFNTWCJWLA-UHFFFAOYSA-N-P91-P7-P91-601531
     RDKit          3D

 18 20  0  0  0  0  0  0  0  0999 V2000
   -0.8204    6.6900  -21.0638 O   0  0  0  0  0  0  0  0  0  0  0  0
   -1.5576    6.2577  -20.2038 C   0  0  0  0  0  0  0  0  0  0  0  0
   -1.4873    5.0865  -19.1966 C   0  0  0  0  0  0  0  0  0  0  0  0
   -3.0084    5.2958  -18.9973 C   0  0  0  0  0  0  0  0  0  0  0  0
   -3.3901    5.3687  -17.6078 N   0  0  0  0  0  0  0  0  0  0  0  0
   -4.7395    5.2608  -17.2189 C   0  0  0  0  0  0  0  0  0  0  0  0
   -5.1359    5.4284  -15.8895 C   0  0  0  0  0  0  0  0  0  0  0  0
   -6.4890    5.2574  -15.5148 C   0  0  0  0  0  0  0  0  0  0  0  0
   -6.9336    5.6174  -14.1206 C   0  0  0  0  0  0  0  0  0  0  0  0
   -7.2143    4.0820  -12.9829 Br  0  0  0  0  0  0  0  0  0  0  0  0
   -7.3938    4.8383  -16.5155 C   0  0  0  0  0  0  0  0  0  0  0  0
   -8.7641    4.5599  -16.3148 C   0  0  0  0  0  0  0  0  0  0  0  0
   -9.5967    4.2662  -17.3943 C   0  0  0  0  0  0  0  0  0  0  0  0
   -9.0696    4.2215  -18.6715 C   0  0  0  0  0  0  0  0  0  0  0  0
   -7.7127    4.4028  -18.8664 C   0  0  0  0  0  0  0  0  0  0  0  0
   -6.8811    4.7212  -17.8250 C   0  0  0  0  0  0  0  0  0  0  0  0
   -5.6142    4.9351  -18.1610 N   0  0  0  0  0  0  0  0  0  0  0  0
   -2.9394    6.6864  -19.6763 C   0  0  0  0  0  0  0  0  0  0  0  0
  1  2  2  0
  2  3  1  0
  3  4  1  0
  4  5  1  0
  5  6  1  0
  6  7  2  0
  7  8  1  0
  8  9  1  0
  9 10  1  0
  8 11  2  0
 11 12  1  0
 12 13  2  0
 13 14  1  0
 14 15  2  0
 15 16  1  0
 16 17  2  0
  4 18  1  0
 18  2  1  0
 17  6  1  0
 16 11  1  0
M  END
>  <energy_score>  (4909) 
-18.291635

>  <alias>  (4909) 
RWPZVFNTWCJWLA-UHFFFAOYSA-N-P91-P7-P91-601531

>  <HIPPO Pose ID>  (4909) 
86600

>  <smiles>  (4909) 
O=C1CC(Nc2cc(CBr)c3ccccc3n2)C1

>  <inchikey>  (4909) 
RWPZVFNTWCJWLA-UHFFFAOYSA-N

>  <distance_score>  (4909) 
1.021733

>  <ref_mols>  (4909) 
Z1688a,Z0089a

>  <ref_pdb>  (4909) 
Z0089a

>  <HIPPO Compound ID>  (4909) 
146451

>  <name>  (4909) 
RWPZVFNTWCJWLA-UHFFFAOYSA-N-P91-P7-P91-601531

>  <inspiration_score>  (4909) 
None

$$$$
YVZKTSFSFOFXPB-UHFFFAOYSA-N-P91-P7-P91-601531
     RDKit          3D

 18 20  0  0  0  0  0  0  0  0999 V2000
   -1.3213    7.1987  -18.2533 O   0  0  0  0  0  0  0  0  0  0  0  0
   -1.4849    6.2344  -18.9729 C   0  0  0  0  0  0  0  0  0  0  0  0
   -0.6137    5.5802  -20.0536 C   0  0  0  0  0  0  0  0  0  0  0  0
   -1.8680    4.7837  -20.4800 C   0  0  0  0  0  0  0  0  0  0  0  0
   -2.5963    5.1478  -19.1573 C   0  0  2  0  0  0  0  0  0  0  0  0
   -3.9348    5.6151  -19.3863 N   0  0  0  0  0  0  0  0  0  0  0  0
   -4.9759    5.4348  -18.4646 C   0  0  0  0  0  0  0  0  0  0  0  0
   -6.0893    4.9378  -19.0257 N   0  0  0  0  0  0  0  0  0  0  0  0
   -7.1442    4.6745  -18.2409 C   0  0  0  0  0  0  0  0  0  0  0  0
   -8.3246    4.2243  -18.7804 C   0  0  0  0  0  0  0  0  0  0  0  0
   -9.4131    3.9343  -17.9649 C   0  0  0  0  0  0  0  0  0  0  0  0
   -9.3212    4.0423  -16.5931 C   0  0  0  0  0  0  0  0  0  0  0  0
   -8.1699    4.5110  -16.0221 C   0  0  0  0  0  0  0  0  0  0  0  0
   -7.1066    4.8421  -16.8519 C   0  0  0  0  0  0  0  0  0  0  0  0
   -5.9653    5.3682  -16.2939 C   0  0  0  0  0  0  0  0  0  0  0  0
   -4.8876    5.7249  -17.1039 C   0  0  0  0  0  0  0  0  0  0  0  0
   -3.7238    6.4221  -16.4833 C   0  0  0  0  0  0  0  0  0  0  0  0
   -4.0153    6.8002  -15.1362 O   0  0  0  0  0  0  0  0  0  0  0  0
  1  2  2  0
  2  3  1  0
  3  4  1  0
  4  5  1  0
  5  6  1  6
  6  7  1  0
  7  8  2  0
  8  9  1  0
  9 10  2  0
 10 11  1  0
 11 12  2  0
 12 13  1  0
 13 14  2  0
 14 15  1  0
 15 16  2  0
 16 17  1  0
 17 18  1  0
  5  2  1  0
 16  7  1  0
 14  9  1  0
M  END
>  <energy_score>  (4910) 
-28.202549

>  <alias>  (4910) 
YVZKTSFSFOFXPB-UHFFFAOYSA-N-P91-P7-P91-601531

>  <HIPPO Pose ID>  (4910) 
86604

>  <smiles>  (4910) 
O=C1CCC1Nc1nc2ccccc2cc1CO

>  <inchikey>  (4910) 
YVZKTSFSFOFXPB-UHFFFAOYSA-N

>  <distance_score>  (4910) 
1.918223

>  <ref_mols>  (4910) 
Z1688a,Z0089a

>  <ref_pdb>  (4910) 
Z0089a

>  <HIPPO Compound ID>  (4910) 
146453

>  <name>  (4910) 
YVZKTSFSFOFXPB-UHFFFAOYSA-N-P91-P7-P91-601531

>  <inspiration_score>  (4910) 
None

$$$$
VTEMUKJZQVUXTE-UHFFFAOYSA-N-P91-P7-P91-601531
     RDKit          3D

 18 20  0  0  0  0  0  0  0  0999 V2000
   -2.4803    7.9244  -19.5070 O   0  0  0  0  0  0  0  0  0  0  0  0
   -2.3360    6.7266  -19.6356 C   0  0  0  0  0  0  0  0  0  0  0  0
   -1.2830    5.8251  -20.3291 C   0  0  0  0  0  0  0  0  0  0  0  0
   -1.7000    4.7369  -19.3025 C   0  0  0  0  0  0  0  0  0  0  0  0
   -3.0638    5.4584  -19.0785 C   0  0  1  0  0  0  0  0  0  0  0  0
   -3.4272    5.5085  -17.6750 N   0  0  0  0  0  0  0  0  0  0  0  0
   -4.7601    5.3107  -17.2630 C   0  0  0  0  0  0  0  0  0  0  0  0
   -5.1476    5.4915  -15.9320 C   0  0  0  0  0  0  0  0  0  0  0  0
   -6.4899    5.2832  -15.5364 C   0  0  0  0  0  0  0  0  0  0  0  0
   -6.9266    5.6506  -14.1418 C   0  0  0  0  0  0  0  0  0  0  0  0
   -7.1997    4.1208  -12.9928 Br  0  0  0  0  0  0  0  0  0  0  0  0
   -7.3967    4.8359  -16.5232 C   0  0  0  0  0  0  0  0  0  0  0  0
   -8.7646    4.5549  -16.3115 C   0  0  0  0  0  0  0  0  0  0  0  0
   -9.6026    4.2537  -17.3844 C   0  0  0  0  0  0  0  0  0  0  0  0
   -9.0823    4.1995  -18.6638 C   0  0  0  0  0  0  0  0  0  0  0  0
   -7.7268    4.3735  -18.8679 C   0  0  0  0  0  0  0  0  0  0  0  0
   -6.8913    4.7018  -17.8338 C   0  0  0  0  0  0  0  0  0  0  0  0
   -5.6305    4.9228  -18.1834 N   0  0  0  0  0  0  0  0  0  0  0  0
  1  2  2  0
  2  3  1  0
  3  4  1  0
  4  5  1  0
  5  6  1  1
  6  7  1  0
  7  8  2  0
  8  9  1  0
  9 10  1  0
 10 11  1  0
  9 12  2  0
 12 13  1  0
 13 14  2  0
 14 15  1  0
 15 16  2  0
 16 17  1  0
 17 18  2  0
  5  2  1  0
 18  7  1  0
 17 12  1  0
M  END
>  <energy_score>  (4911) 
-19.575694

>  <alias>  (4911) 
VTEMUKJZQVUXTE-UHFFFAOYSA-N-P91-P7-P91-601531

>  <HIPPO Pose ID>  (4911) 
86606

>  <smiles>  (4911) 
O=C1CCC1Nc1cc(CBr)c2ccccc2n1

>  <inchikey>  (4911) 
VTEMUKJZQVUXTE-UHFFFAOYSA-N

>  <distance_score>  (4911) 
0.987483

>  <ref_mols>  (4911) 
Z1688a,Z0089a

>  <ref_pdb>  (4911) 
Z0089a

>  <HIPPO Compound ID>  (4911) 
146454

>  <name>  (4911) 
VTEMUKJZQVUXTE-UHFFFAOYSA-N-P91-P7-P91-601531

>  <inspiration_score>  (4911) 
None

$$$$
HSSJHTPDQJMXLV-UHFFFAOYSA-N-P91-P7-P91-601531
     RDKit          3D

 18 20  0  0  0  0  0  0  0  0999 V2000
   -1.0017    6.1812  -17.4702 O   0  0  0  0  0  0  0  0  0  0  0  0
   -1.4359    5.7813  -18.5309 C   0  0  0  0  0  0  0  0  0  0  0  0
   -0.8801    4.7931  -19.5571 C   0  0  0  0  0  0  0  0  0  0  0  0
   -1.8015    5.4724  -20.5900 C   0  0  0  0  0  0  0  0  0  0  0  0
   -2.6681    6.1062  -19.4482 C   0  0  1  0  0  0  0  0  0  0  0  0
   -3.8697    5.3622  -19.2940 N   0  0  0  0  0  0  0  0  0  0  0  0
   -4.9592    5.4804  -18.4468 C   0  0  0  0  0  0  0  0  0  0  0  0
   -6.0295    4.8843  -18.9997 N   0  0  0  0  0  0  0  0  0  0  0  0
   -7.1369    4.7039  -18.2718 C   0  0  0  0  0  0  0  0  0  0  0  0
   -8.2165    4.0545  -18.8073 C   0  0  0  0  0  0  0  0  0  0  0  0
   -9.3096    3.7382  -18.0107 C   0  0  0  0  0  0  0  0  0  0  0  0
   -9.3459    4.0775  -16.6740 C   0  0  0  0  0  0  0  0  0  0  0  0
   -8.3213    4.8049  -16.1328 C   0  0  0  0  0  0  0  0  0  0  0  0
   -7.2380    5.1207  -16.9452 C   0  0  0  0  0  0  0  0  0  0  0  0
   -6.1940    5.8488  -16.4324 C   0  0  0  0  0  0  0  0  0  0  0  0
   -5.0171    6.0350  -17.1751 C   0  0  0  0  0  0  0  0  0  0  0  0
   -3.9463    6.7751  -16.4640 C   0  0  0  0  0  0  0  0  0  0  0  0
   -3.3602    5.7099  -14.9468 Br  0  0  0  0  0  0  0  0  0  0  0  0
  1  2  2  0
  2  3  1  0
  3  4  1  0
  4  5  1  0
  5  6  1  1
  6  7  1  0
  7  8  2  0
  8  9  1  0
  9 10  2  0
 10 11  1  0
 11 12  2  0
 12 13  1  0
 13 14  2  0
 14 15  1  0
 15 16  2  0
 16 17  1  0
 17 18  1  0
  5  2  1  0
 16  7  1  0
 14  9  1  0
M  END
>  <energy_score>  (4912) 
-14.293463

>  <alias>  (4912) 
HSSJHTPDQJMXLV-UHFFFAOYSA-N-P91-P7-P91-601531

>  <HIPPO Pose ID>  (4912) 
86608

>  <smiles>  (4912) 
O=C1CCC1Nc1nc2ccccc2cc1CBr

>  <inchikey>  (4912) 
HSSJHTPDQJMXLV-UHFFFAOYSA-N

>  <distance_score>  (4912) 
1.979631

>  <ref_mols>  (4912) 
Z1688a,Z0089a

>  <ref_pdb>  (4912) 
Z0089a

>  <HIPPO Compound ID>  (4912) 
146455

>  <name>  (4912) 
HSSJHTPDQJMXLV-UHFFFAOYSA-N-P91-P7-P91-601531

>  <inspiration_score>  (4912) 
None

$$$$
OZYRGCUXVFPNIY-UHFFFAOYSA-N-P91-P7-P91-601531
     RDKit          3D

 18 20  0  0  0  0  0  0  0  0999 V2000
   -2.0277    4.3099  -19.4333 C   0  0  0  0  0  0  0  0  0  0  0  0
   -2.4804    5.7363  -19.1695 C   0  0  2  0  0  0  0  0  0  0  0  0
   -3.9175    5.8797  -19.3040 N   0  0  0  0  0  0  0  0  0  0  0  0
   -4.8657    5.5107  -18.3815 C   0  0  0  0  0  0  0  0  0  0  0  0
   -5.9583    4.9893  -18.9685 N   0  0  0  0  0  0  0  0  0  0  0  0
   -7.0295    4.6775  -18.2196 C   0  0  0  0  0  0  0  0  0  0  0  0
   -8.1960    4.2417  -18.8012 C   0  0  0  0  0  0  0  0  0  0  0  0
   -9.3169    3.9528  -18.0278 C   0  0  0  0  0  0  0  0  0  0  0  0
   -9.2747    4.0366  -16.6519 C   0  0  0  0  0  0  0  0  0  0  0  0
   -8.1268    4.4606  -16.0377 C   0  0  0  0  0  0  0  0  0  0  0  0
   -7.0308    4.7971  -16.8280 C   0  0  0  0  0  0  0  0  0  0  0  0
   -5.8971    5.2952  -16.2306 C   0  0  0  0  0  0  0  0  0  0  0  0
   -4.8152    5.7263  -17.0064 C   0  0  0  0  0  0  0  0  0  0  0  0
   -3.7011    6.4289  -16.3065 C   0  0  0  0  0  0  0  0  0  0  0  0
   -4.1256    6.9051  -15.0277 O   0  0  0  0  0  0  0  0  0  0  0  0
   -1.8700    6.7781  -20.0778 C   0  0  0  0  0  0  0  0  0  0  0  0
   -1.9495    6.6683  -21.5838 C   0  0  0  0  0  0  0  0  0  0  0  0
   -0.6152    6.5728  -20.8970 C   0  0  0  0  0  0  0  0  0  0  0  0
  2  1  1  6
  2  3  1  0
  3  4  1  0
  4  5  2  0
  5  6  1  0
  6  7  2  0
  7  8  1  0
  8  9  2  0
  9 10  1  0
 10 11  2  0
 11 12  1  0
 12 13  2  0
 13 14  1  0
 14 15  1  0
  2 16  1  0
 16 17  1  0
 17 18  1  0
 13  4  1  0
 18 16  1  0
 11  6  1  0
M  END
>  <energy_score>  (4913) 
-21.203239

>  <alias>  (4913) 
OZYRGCUXVFPNIY-UHFFFAOYSA-N-P91-P7-P91-601531

>  <HIPPO Pose ID>  (4913) 
86610

>  <smiles>  (4913) 
CC(Nc1nc2ccccc2cc1CO)C1CC1

>  <inchikey>  (4913) 
OZYRGCUXVFPNIY-UHFFFAOYSA-N

>  <distance_score>  (4913) 
1.917681

>  <ref_mols>  (4913) 
Z1688a,Z0089a

>  <ref_pdb>  (4913) 
Z0089a

>  <HIPPO Compound ID>  (4913) 
146456

>  <name>  (4913) 
OZYRGCUXVFPNIY-UHFFFAOYSA-N-P91-P7-P91-601531

>  <inspiration_score>  (4913) 
None

$$$$
GYLJLBHYKGVSIK-UHFFFAOYSA-N-P7-P7-P91-601531
     RDKit          3D

 18 20  0  0  0  0  0  0  0  0999 V2000
   -2.2547    4.3363  -19.0583 C   0  0  0  0  0  0  0  0  0  0  0  0
   -2.5241    5.5571  -18.1754 C   0  0  2  0  0  0  0  0  0  0  0  0
   -3.8733    6.0550  -18.3939 N   0  0  0  0  0  0  0  0  0  0  0  0
   -4.9216    5.5442  -17.6560 C   0  0  0  0  0  0  0  0  0  0  0  0
   -5.1082    5.7023  -16.2836 C   0  0  0  0  0  0  0  0  0  0  0  0
   -6.3497    5.3587  -15.6874 C   0  0  0  0  0  0  0  0  0  0  0  0
   -6.6245    5.7363  -14.2510 C   0  0  0  0  0  0  0  0  0  0  0  0
   -6.8844    4.2204  -13.0717 Br  0  0  0  0  0  0  0  0  0  0  0  0
   -7.3527    4.8287  -16.5322 C   0  0  0  0  0  0  0  0  0  0  0  0
   -8.6643    4.4930  -16.1328 C   0  0  0  0  0  0  0  0  0  0  0  0
   -9.6088    4.0934  -17.0726 C   0  0  0  0  0  0  0  0  0  0  0  0
   -9.2622    3.9967  -18.4043 C   0  0  0  0  0  0  0  0  0  0  0  0
   -7.9677    4.2674  -18.8008 C   0  0  0  0  0  0  0  0  0  0  0  0
   -7.0259    4.6911  -17.8994 C   0  0  0  0  0  0  0  0  0  0  0  0
   -5.8577    5.0220  -18.4327 N   0  0  0  0  0  0  0  0  0  0  0  0
   -1.5171    6.6391  -18.5095 C   0  0  0  0  0  0  0  0  0  0  0  0
   -1.7797    8.1023  -18.2379 C   0  0  0  0  0  0  0  0  0  0  0  0
   -1.6984    7.6059  -19.6575 C   0  0  0  0  0  0  0  0  0  0  0  0
  2  1  1  6
  2  3  1  0
  3  4  1  0
  4  5  2  0
  5  6  1  0
  6  7  1  0
  7  8  1  0
  6  9  2  0
  9 10  1  0
 10 11  2  0
 11 12  1  0
 12 13  2  0
 13 14  1  0
 14 15  2  0
  2 16  1  0
 16 17  1  0
 17 18  1  0
 15  4  1  0
 18 16  1  0
 14  9  1  0
M  END
>  <energy_score>  (4914) 
-17.913853

>  <alias>  (4914) 
GYLJLBHYKGVSIK-UHFFFAOYSA-N-P7-P7-P91-601531

>  <HIPPO Pose ID>  (4914) 
86611

>  <smiles>  (4914) 
CC(Nc1cc(CBr)c2ccccc2n1)C1CC1

>  <inchikey>  (4914) 
GYLJLBHYKGVSIK-UHFFFAOYSA-N

>  <distance_score>  (4914) 
1.020058

>  <ref_mols>  (4914) 
Z1688a,Z0089a

>  <ref_pdb>  (4914) 
Z0089a

>  <HIPPO Compound ID>  (4914) 
146457

>  <name>  (4914) 
GYLJLBHYKGVSIK-UHFFFAOYSA-N-P7-P7-P91-601531

>  <inspiration_score>  (4914) 
None

$$$$
MGJGNKYUMSWWBP-UHFFFAOYSA-N-P91-P7-P91-601531
     RDKit          3D

 18 20  0  0  0  0  0  0  0  0999 V2000
   -1.9776    4.3144  -19.4954 C   0  0  0  0  0  0  0  0  0  0  0  0
   -2.4677    5.6533  -18.9565 C   0  0  2  0  0  0  0  0  0  0  0  0
   -3.8658    5.8892  -19.2855 N   0  0  0  0  0  0  0  0  0  0  0  0
   -4.8960    5.6488  -18.4043 C   0  0  0  0  0  0  0  0  0  0  0  0
   -5.9118    4.9836  -18.9775 N   0  0  0  0  0  0  0  0  0  0  0  0
   -7.0151    4.7166  -18.2605 C   0  0  0  0  0  0  0  0  0  0  0  0
   -8.0826    4.0790  -18.8366 C   0  0  0  0  0  0  0  0  0  0  0  0
   -9.2047    3.7506  -18.0811 C   0  0  0  0  0  0  0  0  0  0  0  0
   -9.2852    4.0524  -16.7370 C   0  0  0  0  0  0  0  0  0  0  0  0
   -8.2546    4.7277  -16.1412 C   0  0  0  0  0  0  0  0  0  0  0  0
   -7.1457    5.0658  -16.9137 C   0  0  0  0  0  0  0  0  0  0  0  0
   -6.1243    5.7887  -16.3487 C   0  0  0  0  0  0  0  0  0  0  0  0
   -4.9806    6.1101  -17.0939 C   0  0  0  0  0  0  0  0  0  0  0  0
   -3.9945    6.9962  -16.4218 C   0  0  0  0  0  0  0  0  0  0  0  0
   -3.2961    6.0716  -14.8572 Br  0  0  0  0  0  0  0  0  0  0  0  0
   -1.6088    6.7683  -19.5154 C   0  0  0  0  0  0  0  0  0  0  0  0
   -1.7958    7.2948  -20.9202 C   0  0  0  0  0  0  0  0  0  0  0  0
   -2.1169    8.1748  -19.7419 C   0  0  0  0  0  0  0  0  0  0  0  0
  2  1  1  6
  2  3  1  0
  3  4  1  0
  4  5  2  0
  5  6  1  0
  6  7  2  0
  7  8  1  0
  8  9  2  0
  9 10  1  0
 10 11  2  0
 11 12  1  0
 12 13  2  0
 13 14  1  0
 14 15  1  0
  2 16  1  0
 16 17  1  0
 17 18  1  0
 13  4  1  0
 18 16  1  0
 11  6  1  0
M  END
>  <energy_score>  (4915) 
-27.037433

>  <alias>  (4915) 
MGJGNKYUMSWWBP-UHFFFAOYSA-N-P91-P7-P91-601531

>  <HIPPO Pose ID>  (4915) 
86614

>  <smiles>  (4915) 
CC(Nc1nc2ccccc2cc1CBr)C1CC1

>  <inchikey>  (4915) 
MGJGNKYUMSWWBP-UHFFFAOYSA-N

>  <distance_score>  (4915) 
1.939617

>  <ref_mols>  (4915) 
Z1688a,Z0089a

>  <ref_pdb>  (4915) 
Z0089a

>  <HIPPO Compound ID>  (4915) 
146458

>  <name>  (4915) 
MGJGNKYUMSWWBP-UHFFFAOYSA-N-P91-P7-P91-601531

>  <inspiration_score>  (4915) 
None

$$$$
IOADDALTJPLMEE-UHFFFAOYSA-N-P91-P7-P91-601531
     RDKit          3D

 18 20  0  0  0  0  0  0  0  0999 V2000
   -1.6026    3.8551  -19.5883 C   0  0  0  0  0  0  0  0  0  0  0  0
   -1.5596    5.2787  -19.0896 C   0  0  0  0  0  0  0  0  0  0  0  0
   -2.7649    6.0995  -19.5163 C   0  0  0  0  0  0  0  0  0  0  0  0
   -4.0469    5.4029  -19.5618 N   0  0  0  0  0  0  0  0  0  0  0  0
   -5.0232    5.2918  -18.5825 C   0  0  0  0  0  0  0  0  0  0  0  0
   -6.1884    4.8420  -19.0894 N   0  0  0  0  0  0  0  0  0  0  0  0
   -7.2307    4.6261  -18.2742 C   0  0  0  0  0  0  0  0  0  0  0  0
   -8.4435    4.2222  -18.7761 C   0  0  0  0  0  0  0  0  0  0  0  0
   -9.5095    3.9609  -17.9239 C   0  0  0  0  0  0  0  0  0  0  0  0
   -9.3579    4.0520  -16.5560 C   0  0  0  0  0  0  0  0  0  0  0  0
   -8.1804    4.4964  -16.0220 C   0  0  0  0  0  0  0  0  0  0  0  0
   -7.1417    4.7987  -16.8886 C   0  0  0  0  0  0  0  0  0  0  0  0
   -5.9656    5.2803  -16.3717 C   0  0  0  0  0  0  0  0  0  0  0  0
   -4.8995    5.5535  -17.2257 C   0  0  0  0  0  0  0  0  0  0  0  0
   -3.7760    6.1013  -16.5668 C   0  0  0  0  0  0  0  0  0  0  0  0
   -2.9920    6.5645  -15.8502 N   0  0  0  0  0  0  0  0  0  0  0  0
   -2.7190    7.5863  -19.2458 C   0  0  0  0  0  0  0  0  0  0  0  0
   -2.5176    7.0933  -20.6412 C   0  0  0  0  0  0  0  0  0  0  0  0
  1  2  1  0
  2  3  1  0
  3  4  1  0
  4  5  1  0
  5  6  2  0
  6  7  1  0
  7  8  2  0
  8  9  1  0
  9 10  2  0
 10 11  1  0
 11 12  2  0
 12 13  1  0
 13 14  2  0
 14 15  1  0
 15 16  3  0
  3 17  1  0
 17 18  1  0
 18  3  1  0
 14  5  1  0
 12  7  1  0
M  END
>  <energy_score>  (4916) 
-18.660572

>  <alias>  (4916) 
IOADDALTJPLMEE-UHFFFAOYSA-N-P91-P7-P91-601531

>  <HIPPO Pose ID>  (4916) 
86620

>  <smiles>  (4916) 
CCC1(Nc2nc3ccccc3cc2C#N)CC1

>  <inchikey>  (4916) 
IOADDALTJPLMEE-UHFFFAOYSA-N

>  <distance_score>  (4916) 
1.974035

>  <ref_mols>  (4916) 
Z1688a,Z0089a

>  <ref_pdb>  (4916) 
Z0089a

>  <HIPPO Compound ID>  (4916) 
146461

>  <name>  (4916) 
IOADDALTJPLMEE-UHFFFAOYSA-N-P91-P7-P91-601531

>  <inspiration_score>  (4916) 
None

$$$$
HAPOATUVQZPDAD-UHFFFAOYSA-N-P7-P7-P91-601531
     RDKit          3D

 18 20  0  0  0  0  0  0  0  0999 V2000
   -0.7538    5.0989  -19.0130 C   0  0  0  0  0  0  0  0  0  0  0  0
   -2.2060    4.8024  -19.3582 C   0  0  0  0  0  0  0  0  0  0  0  0
   -3.1187    5.9454  -18.9439 C   0  0  0  0  0  0  0  0  0  0  0  0
   -3.5591    5.9099  -17.5289 N   0  0  0  0  0  0  0  0  0  0  0  0
   -4.8376    5.4355  -17.1641 C   0  0  0  0  0  0  0  0  0  0  0  0
   -5.2772    5.6042  -15.8460 C   0  0  0  0  0  0  0  0  0  0  0  0
   -6.6034    5.2939  -15.4761 C   0  0  0  0  0  0  0  0  0  0  0  0
   -7.0889    5.6444  -14.0932 C   0  0  0  0  0  0  0  0  0  0  0  0
   -7.2449    4.1006  -12.9405 Br  0  0  0  0  0  0  0  0  0  0  0  0
   -7.4564    4.7902  -16.4811 C   0  0  0  0  0  0  0  0  0  0  0  0
   -8.8157    4.4546  -16.2909 C   0  0  0  0  0  0  0  0  0  0  0  0
   -9.6263    4.1203  -17.3743 C   0  0  0  0  0  0  0  0  0  0  0  0
   -9.0829    4.0795  -18.6459 C   0  0  0  0  0  0  0  0  0  0  0  0
   -7.7304    4.3275  -18.8306 C   0  0  0  0  0  0  0  0  0  0  0  0
   -6.9158    4.6817  -17.7824 C   0  0  0  0  0  0  0  0  0  0  0  0
   -5.6546    4.9683  -18.1024 N   0  0  0  0  0  0  0  0  0  0  0  0
   -2.7873    7.3233  -19.5014 C   0  0  0  0  0  0  0  0  0  0  0  0
   -3.9918    6.6010  -19.9997 C   0  0  0  0  0  0  0  0  0  0  0  0
  1  2  1  0
  2  3  1  0
  3  4  1  0
  4  5  1  0
  5  6  2  0
  6  7  1  0
  7  8  1  0
  8  9  1  0
  7 10  2  0
 10 11  1  0
 11 12  2  0
 12 13  1  0
 13 14  2  0
 14 15  1  0
 15 16  2  0
  3 17  1  0
 17 18  1  0
 18  3  1  0
 16  5  1  0
 15 10  1  0
M  END
>  <energy_score>  (4917) 
-20.262763

>  <alias>  (4917) 
HAPOATUVQZPDAD-UHFFFAOYSA-N-P7-P7-P91-601531

>  <HIPPO Pose ID>  (4917) 
86623

>  <smiles>  (4917) 
CCC1(Nc2cc(CBr)c3ccccc3n2)CC1

>  <inchikey>  (4917) 
HAPOATUVQZPDAD-UHFFFAOYSA-N

>  <distance_score>  (4917) 
1.021164

>  <ref_mols>  (4917) 
Z1688a,Z0089a

>  <ref_pdb>  (4917) 
Z0089a

>  <HIPPO Compound ID>  (4917) 
146463

>  <name>  (4917) 
HAPOATUVQZPDAD-UHFFFAOYSA-N-P7-P7-P91-601531

>  <inspiration_score>  (4917) 
None

$$$$
YCBHRJDTXOJHJF-UHFFFAOYSA-N-P91-P7-P91-601531
     RDKit          3D

 18 19  0  0  0  0  0  0  0  0999 V2000
   -1.3652    4.9975  -21.3937 C   0  0  0  0  0  0  0  0  0  0  0  0
   -2.1400    5.4095  -20.5748 C   0  0  0  0  0  0  0  0  0  0  0  0
   -3.0812    6.0336  -19.6218 C   0  0  2  0  0  0  0  0  0  0  0  0
   -2.4387    7.2804  -18.9967 C   0  0  0  0  0  0  0  0  0  0  0  0
   -1.1135    7.0444  -18.2763 C   0  0  0  0  0  0  0  0  0  0  0  0
   -3.4495    5.0284  -18.6270 N   0  0  0  0  0  0  0  0  0  0  0  0
   -4.7109    5.2473  -18.0554 C   0  0  0  0  0  0  0  0  0  0  0  0
   -5.7330    4.7904  -18.7876 N   0  0  0  0  0  0  0  0  0  0  0  0
   -6.9300    4.6865  -18.1987 C   0  0  0  0  0  0  0  0  0  0  0  0
   -7.9655    4.1206  -18.8849 C   0  0  0  0  0  0  0  0  0  0  0  0
   -9.1641    3.8523  -18.2396 C   0  0  0  0  0  0  0  0  0  0  0  0
   -9.3677    4.1688  -16.9131 C   0  0  0  0  0  0  0  0  0  0  0  0
   -8.3754    4.8105  -16.2197 C   0  0  0  0  0  0  0  0  0  0  0  0
   -7.1700    5.0687  -16.8710 C   0  0  0  0  0  0  0  0  0  0  0  0
   -6.1365    5.6668  -16.1849 C   0  0  0  0  0  0  0  0  0  0  0  0
   -4.8628    5.7190  -16.7558 C   0  0  0  0  0  0  0  0  0  0  0  0
   -3.7132    6.1866  -15.9299 C   0  0  0  0  0  0  0  0  0  0  0  0
   -4.0172    6.0580  -14.5409 O   0  0  0  0  0  0  0  0  0  0  0  0
  1  2  3  0
  3  2  1  6
  3  4  1  0
  4  5  1  0
  3  6  1  0
  6  7  1  0
  7  8  2  0
  8  9  1  0
  9 10  2  0
 10 11  1  0
 11 12  2  0
 12 13  1  0
 13 14  2  0
 14 15  1  0
 15 16  2  0
 16 17  1  0
 17 18  1  0
 16  7  1  0
 14  9  1  0
M  END
>  <energy_score>  (4918) 
-15.563253

>  <alias>  (4918) 
YCBHRJDTXOJHJF-UHFFFAOYSA-N-P91-P7-P91-601531

>  <HIPPO Pose ID>  (4918) 
86652

>  <smiles>  (4918) 
C#CC(CC)Nc1nc2ccccc2cc1CO

>  <inchikey>  (4918) 
YCBHRJDTXOJHJF-UHFFFAOYSA-N

>  <distance_score>  (4918) 
1.988116

>  <ref_mols>  (4918) 
Z1688a,Z0089a

>  <ref_pdb>  (4918) 
Z0089a

>  <HIPPO Compound ID>  (4918) 
146477

>  <name>  (4918) 
YCBHRJDTXOJHJF-UHFFFAOYSA-N-P91-P7-P91-601531

>  <inspiration_score>  (4918) 
None

$$$$
YBRBLECGWUPSIV-UHFFFAOYSA-N-P7-P7-P91-601531
     RDKit          3D

 18 19  0  0  0  0  0  0  0  0999 V2000
   -1.7380    3.6408  -19.5688 C   0  0  0  0  0  0  0  0  0  0  0  0
   -2.1520    4.5774  -18.9461 C   0  0  0  0  0  0  0  0  0  0  0  0
   -2.5815    5.7446  -18.1640 C   0  0  1  0  0  0  0  0  0  0  0  0
   -1.7711    6.9846  -18.5821 C   0  0  0  0  0  0  0  0  0  0  0  0
   -0.3071    6.9079  -18.1634 C   0  0  0  0  0  0  0  0  0  0  0  0
   -3.9700    6.0424  -18.4361 N   0  0  0  0  0  0  0  0  0  0  0  0
   -4.9847    5.5361  -17.6627 C   0  0  0  0  0  0  0  0  0  0  0  0
   -5.1016    5.6162  -16.2821 C   0  0  0  0  0  0  0  0  0  0  0  0
   -6.3082    5.2164  -15.6651 C   0  0  0  0  0  0  0  0  0  0  0  0
   -6.4064    5.3752  -14.1773 C   0  0  0  0  0  0  0  0  0  0  0  0
   -7.3969    5.1812  -13.4853 O   0  0  0  0  0  0  0  0  0  0  0  0
   -7.3701    4.7512  -16.4645 C   0  0  0  0  0  0  0  0  0  0  0  0
   -8.6556    4.3723  -16.0253 C   0  0  0  0  0  0  0  0  0  0  0  0
   -9.6392    4.0356  -16.9485 C   0  0  0  0  0  0  0  0  0  0  0  0
   -9.3588    4.0175  -18.2982 C   0  0  0  0  0  0  0  0  0  0  0  0
   -8.0844    4.3134  -18.7321 C   0  0  0  0  0  0  0  0  0  0  0  0
   -7.1109    4.7005  -17.8476 C   0  0  0  0  0  0  0  0  0  0  0  0
   -5.9678    5.0636  -18.4113 N   0  0  0  0  0  0  0  0  0  0  0  0
  1  2  3  0
  3  2  1  6
  3  4  1  0
  4  5  1  0
  3  6  1  0
  6  7  1  0
  7  8  2  0
  8  9  1  0
  9 10  1  0
 10 11  2  0
  9 12  2  0
 12 13  1  0
 13 14  2  0
 14 15  1  0
 15 16  2  0
 16 17  1  0
 17 18  2  0
 18  7  1  0
 17 12  1  0
M  END
>  <energy_score>  (4919) 
-21.439571

>  <alias>  (4919) 
YBRBLECGWUPSIV-UHFFFAOYSA-N-P7-P7-P91-601531

>  <HIPPO Pose ID>  (4919) 
86657

>  <smiles>  (4919) 
C#CC(CC)Nc1cc(C=O)c2ccccc2n1

>  <inchikey>  (4919) 
YBRBLECGWUPSIV-UHFFFAOYSA-N

>  <distance_score>  (4919) 
1.110136

>  <ref_mols>  (4919) 
Z1688a,Z0089a

>  <ref_pdb>  (4919) 
Z0089a

>  <HIPPO Compound ID>  (4919) 
146480

>  <name>  (4919) 
YBRBLECGWUPSIV-UHFFFAOYSA-N-P7-P7-P91-601531

>  <inspiration_score>  (4919) 
None

$$$$
XASAOKDIIKKJDP-UHFFFAOYSA-N-P7-P7-P91-601531
     RDKit          3D

 18 19  0  0  0  0  0  0  0  0999 V2000
   -1.3773    4.1107  -19.6677 C   0  0  0  0  0  0  0  0  0  0  0  0
   -2.7259    4.5440  -19.1355 C   0  0  0  0  0  0  0  0  0  0  0  0
   -2.7120    5.8274  -18.2886 C   0  0  1  0  0  0  0  0  0  0  0  0
   -1.7999    6.8471  -18.8711 C   0  0  0  0  0  0  0  0  0  0  0  0
   -1.0871    7.6424  -19.3300 N   0  0  0  0  0  0  0  0  0  0  0  0
   -4.0535    6.4224  -18.2327 N   0  0  0  0  0  0  0  0  0  0  0  0
   -5.0352    5.7502  -17.5297 C   0  0  0  0  0  0  0  0  0  0  0  0
   -5.2359    5.8473  -16.1562 C   0  0  0  0  0  0  0  0  0  0  0  0
   -6.4615    5.4136  -15.5936 C   0  0  0  0  0  0  0  0  0  0  0  0
   -6.7812    5.7475  -14.1560 C   0  0  0  0  0  0  0  0  0  0  0  0
   -6.9719    4.1941  -13.0160 Br  0  0  0  0  0  0  0  0  0  0  0  0
   -7.4193    4.8518  -16.4717 C   0  0  0  0  0  0  0  0  0  0  0  0
   -8.7269    4.4655  -16.1118 C   0  0  0  0  0  0  0  0  0  0  0  0
   -9.6369    4.0617  -17.0843 C   0  0  0  0  0  0  0  0  0  0  0  0
   -9.2503    3.9835  -18.4068 C   0  0  0  0  0  0  0  0  0  0  0  0
   -7.9545    4.2962  -18.7649 C   0  0  0  0  0  0  0  0  0  0  0  0
   -7.0579    4.7513  -17.8340 C   0  0  0  0  0  0  0  0  0  0  0  0
   -5.9069    5.1712  -18.3377 N   0  0  0  0  0  0  0  0  0  0  0  0
  1  2  1  0
  3  2  1  6
  3  4  1  0
  4  5  3  0
  3  6  1  0
  6  7  1  0
  7  8  2  0
  8  9  1  0
  9 10  1  0
 10 11  1  0
  9 12  2  0
 12 13  1  0
 13 14  2  0
 14 15  1  0
 15 16  2  0
 16 17  1  0
 17 18  2  0
 18  7  1  0
 17 12  1  0
M  END
>  <energy_score>  (4920) 
-23.975933

>  <alias>  (4920) 
XASAOKDIIKKJDP-UHFFFAOYSA-N-P7-P7-P91-601531

>  <HIPPO Pose ID>  (4920) 
86669

>  <smiles>  (4920) 
CCC(C#N)Nc1cc(CBr)c2ccccc2n1

>  <inchikey>  (4920) 
XASAOKDIIKKJDP-UHFFFAOYSA-N

>  <distance_score>  (4920) 
1.012046

>  <ref_mols>  (4920) 
Z1688a,Z0089a

>  <ref_pdb>  (4920) 
Z0089a

>  <HIPPO Compound ID>  (4920) 
146486

>  <name>  (4920) 
XASAOKDIIKKJDP-UHFFFAOYSA-N-P7-P7-P91-601531

>  <inspiration_score>  (4920) 
None

$$$$
LOYULGVMNHYRAA-UHFFFAOYSA-N-P7-P7-P91-601531
     RDKit          3D

 18 19  0  0  0  0  0  0  0  0999 V2000
   -1.6527    3.7702  -19.6974 C   0  0  0  0  0  0  0  0  0  0  0  0
   -2.6939    4.8657  -19.6291 C   0  0  0  0  0  0  0  0  0  0  0  0
   -2.7365    5.5745  -18.2670 C   0  0  1  0  0  0  0  0  0  0  0  0
   -1.5771    6.4941  -18.1613 C   0  0  0  0  0  0  0  0  0  0  0  0
   -0.6557    7.1963  -18.0704 N   0  0  0  0  0  0  0  0  0  0  0  0
   -3.9747    6.3622  -18.1625 N   0  0  0  0  0  0  0  0  0  0  0  0
   -5.0118    5.7312  -17.4903 C   0  0  0  0  0  0  0  0  0  0  0  0
   -5.1654    5.7285  -16.1123 C   0  0  0  0  0  0  0  0  0  0  0  0
   -6.3777    5.2646  -15.5627 C   0  0  0  0  0  0  0  0  0  0  0  0
   -6.5368    5.3783  -14.0772 C   0  0  0  0  0  0  0  0  0  0  0  0
   -7.5438    5.1206  -13.4325 O   0  0  0  0  0  0  0  0  0  0  0  0
   -7.3900    4.7925  -16.4241 C   0  0  0  0  0  0  0  0  0  0  0  0
   -8.6865    4.3744  -16.0540 C   0  0  0  0  0  0  0  0  0  0  0  0
   -9.6221    4.0361  -17.0276 C   0  0  0  0  0  0  0  0  0  0  0  0
   -9.2706    4.0327  -18.3619 C   0  0  0  0  0  0  0  0  0  0  0  0
   -7.9844    4.3721  -18.7298 C   0  0  0  0  0  0  0  0  0  0  0  0
   -7.0689    4.7881  -17.7975 C   0  0  0  0  0  0  0  0  0  0  0  0
   -5.9254    5.2337  -18.3049 N   0  0  0  0  0  0  0  0  0  0  0  0
  1  2  1  0
  3  2  1  6
  3  4  1  0
  4  5  3  0
  3  6  1  0
  6  7  1  0
  7  8  2  0
  8  9  1  0
  9 10  1  0
 10 11  2  0
  9 12  2  0
 12 13  1  0
 13 14  2  0
 14 15  1  0
 15 16  2  0
 16 17  1  0
 17 18  2  0
 18  7  1  0
 17 12  1  0
M  END
>  <energy_score>  (4921) 
-20.857038

>  <alias>  (4921) 
LOYULGVMNHYRAA-UHFFFAOYSA-N-P7-P7-P91-601531

>  <HIPPO Pose ID>  (4921) 
86673

>  <smiles>  (4921) 
CCC(C#N)Nc1cc(C=O)c2ccccc2n1

>  <inchikey>  (4921) 
LOYULGVMNHYRAA-UHFFFAOYSA-N

>  <distance_score>  (4921) 
1.105696

>  <ref_mols>  (4921) 
Z1688a,Z0089a

>  <ref_pdb>  (4921) 
Z0089a

>  <HIPPO Compound ID>  (4921) 
146488

>  <name>  (4921) 
LOYULGVMNHYRAA-UHFFFAOYSA-N-P7-P7-P91-601531

>  <inspiration_score>  (4921) 
None

$$$$
ZQBPXDPABTUHJL-UHFFFAOYSA-N-P91-P7-P91-601531
     RDKit          3D

 18 19  0  0  0  0  0  0  0  0999 V2000
   -1.6566    3.9109  -20.3291 C   0  0  0  0  0  0  0  0  0  0  0  0
   -1.9887    4.7856  -19.1386 C   0  0  0  0  0  0  0  0  0  0  0  0
   -2.7452    6.0322  -19.6030 C   0  0  2  0  0  0  0  0  0  0  0  0
   -2.2208    7.2741  -18.9976 C   0  0  0  0  0  0  0  0  0  0  0  0
   -1.7834    8.2433  -18.5278 N   0  0  0  0  0  0  0  0  0  0  0  0
   -4.1821    5.8771  -19.5106 N   0  0  0  0  0  0  0  0  0  0  0  0
   -5.0299    5.5574  -18.5011 C   0  0  0  0  0  0  0  0  0  0  0  0
   -6.1460    5.0185  -19.0245 N   0  0  0  0  0  0  0  0  0  0  0  0
   -7.1811    4.7067  -18.2350 C   0  0  0  0  0  0  0  0  0  0  0  0
   -8.3530    4.2252  -18.7663 C   0  0  0  0  0  0  0  0  0  0  0  0
   -9.4278    3.9131  -17.9423 C   0  0  0  0  0  0  0  0  0  0  0  0
   -9.3283    4.0340  -16.5721 C   0  0  0  0  0  0  0  0  0  0  0  0
   -8.1831    4.5298  -16.0123 C   0  0  0  0  0  0  0  0  0  0  0  0
   -7.1336    4.8764  -16.8535 C   0  0  0  0  0  0  0  0  0  0  0  0
   -5.9906    5.4172  -16.3167 C   0  0  0  0  0  0  0  0  0  0  0  0
   -4.9024    5.7654  -17.1307 C   0  0  0  0  0  0  0  0  0  0  0  0
   -3.7397    6.4107  -16.4491 C   0  0  0  0  0  0  0  0  0  0  0  0
   -3.7855    6.2149  -15.0333 O   0  0  0  0  0  0  0  0  0  0  0  0
  1  2  1  0
  3  2  1  1
  3  4  1  0
  4  5  3  0
  3  6  1  0
  6  7  1  0
  7  8  2  0
  8  9  1  0
  9 10  2  0
 10 11  1  0
 11 12  2  0
 12 13  1  0
 13 14  2  0
 14 15  1  0
 15 16  2  0
 16 17  1  0
 17 18  1  0
 16  7  1  0
 14  9  1  0
M  END
>  <energy_score>  (4922) 
-6.190719

>  <alias>  (4922) 
ZQBPXDPABTUHJL-UHFFFAOYSA-N-P91-P7-P91-601531

>  <HIPPO Pose ID>  (4922) 
86678

>  <smiles>  (4922) 
CCC(C#N)Nc1nc2ccccc2cc1CO

>  <inchikey>  (4922) 
ZQBPXDPABTUHJL-UHFFFAOYSA-N

>  <distance_score>  (4922) 
1.91302

>  <ref_mols>  (4922) 
Z1688a,Z0089a

>  <ref_pdb>  (4922) 
Z0089a

>  <HIPPO Compound ID>  (4922) 
146490

>  <name>  (4922) 
ZQBPXDPABTUHJL-UHFFFAOYSA-N-P91-P7-P91-601531

>  <inspiration_score>  (4922) 
None

$$$$
ZXCAUKIBMWPDIA-UHFFFAOYSA-N-P91-P7-P91-601531
     RDKit          3D

 18 20  0  0  0  0  0  0  0  0999 V2000
   -2.0355    3.6262  -21.1116 N   0  0  0  0  0  0  0  0  0  0  0  0
   -2.2765    4.4796  -20.3591 C   0  0  0  0  0  0  0  0  0  0  0  0
   -2.5238    5.6446  -19.5181 C   0  0  0  0  0  0  0  0  0  0  0  0
   -3.9540    6.0540  -19.3724 N   0  0  0  0  0  0  0  0  0  0  0  0
   -4.8645    5.5172  -18.4450 C   0  0  0  0  0  0  0  0  0  0  0  0
   -5.9677    5.0132  -19.0305 N   0  0  0  0  0  0  0  0  0  0  0  0
   -7.0239    4.6662  -18.2678 C   0  0  0  0  0  0  0  0  0  0  0  0
   -8.2148    4.2693  -18.8310 C   0  0  0  0  0  0  0  0  0  0  0  0
   -9.3292    3.9903  -18.0418 C   0  0  0  0  0  0  0  0  0  0  0  0
   -9.2550    4.0290  -16.6656 C   0  0  0  0  0  0  0  0  0  0  0  0
   -8.0774    4.3903  -16.0677 C   0  0  0  0  0  0  0  0  0  0  0  0
   -6.9905    4.7255  -16.8728 C   0  0  0  0  0  0  0  0  0  0  0  0
   -5.8331    5.1725  -16.2816 C   0  0  0  0  0  0  0  0  0  0  0  0
   -4.7745    5.6505  -17.0622 C   0  0  0  0  0  0  0  0  0  0  0  0
   -3.6727    6.3609  -16.3576 C   0  0  0  0  0  0  0  0  0  0  0  0
   -4.0923    6.7848  -15.0590 O   0  0  0  0  0  0  0  0  0  0  0  0
   -1.6064    6.8204  -19.8799 C   0  0  0  0  0  0  0  0  0  0  0  0
   -1.3835    6.0735  -18.6125 C   0  0  0  0  0  0  0  0  0  0  0  0
  1  2  3  0
  2  3  1  0
  3  4  1  0
  4  5  1  0
  5  6  2  0
  6  7  1  0
  7  8  2  0
  8  9  1  0
  9 10  2  0
 10 11  1  0
 11 12  2  0
 12 13  1  0
 13 14  2  0
 14 15  1  0
 15 16  1  0
  3 17  1  0
 17 18  1  0
 18  3  1  0
 14  5  1  0
 12  7  1  0
M  END
>  <energy_score>  (4923) 
-14.474576

>  <alias>  (4923) 
ZXCAUKIBMWPDIA-UHFFFAOYSA-N-P91-P7-P91-601531

>  <HIPPO Pose ID>  (4923) 
86682

>  <smiles>  (4923) 
N#CC1(Nc2nc3ccccc3cc2CO)CC1

>  <inchikey>  (4923) 
ZXCAUKIBMWPDIA-UHFFFAOYSA-N

>  <distance_score>  (4923) 
1.936307

>  <ref_mols>  (4923) 
Z1688a,Z0089a

>  <ref_pdb>  (4923) 
Z0089a

>  <HIPPO Compound ID>  (4923) 
146492

>  <name>  (4923) 
ZXCAUKIBMWPDIA-UHFFFAOYSA-N-P91-P7-P91-601531

>  <inspiration_score>  (4923) 
None

$$$$
PCLXSLCURPZIKA-UHFFFAOYSA-N-P7-P7-P91-601531
     RDKit          3D

 18 20  0  0  0  0  0  0  0  0999 V2000
   -1.9355    3.4613  -19.4276 N   0  0  0  0  0  0  0  0  0  0  0  0
   -2.2216    4.4809  -18.9562 C   0  0  0  0  0  0  0  0  0  0  0  0
   -2.5639    5.7852  -18.4167 C   0  0  0  0  0  0  0  0  0  0  0  0
   -3.9795    6.1864  -18.5529 N   0  0  0  0  0  0  0  0  0  0  0  0
   -4.9821    5.6283  -17.7539 C   0  0  0  0  0  0  0  0  0  0  0  0
   -5.1171    5.7832  -16.3747 C   0  0  0  0  0  0  0  0  0  0  0  0
   -6.3277    5.4080  -15.7316 C   0  0  0  0  0  0  0  0  0  0  0  0
   -6.5612    5.7821  -14.2853 C   0  0  0  0  0  0  0  0  0  0  0  0
   -6.7988    4.2680  -13.0983 Br  0  0  0  0  0  0  0  0  0  0  0  0
   -7.3487    4.8535  -16.5384 C   0  0  0  0  0  0  0  0  0  0  0  0
   -8.6391    4.5004  -16.0928 C   0  0  0  0  0  0  0  0  0  0  0  0
   -9.6041    4.0725  -16.9968 C   0  0  0  0  0  0  0  0  0  0  0  0
   -9.3017    3.9623  -18.3373 C   0  0  0  0  0  0  0  0  0  0  0  0
   -8.0285    4.2551  -18.7808 C   0  0  0  0  0  0  0  0  0  0  0  0
   -7.0683    4.7108  -17.9151 C   0  0  0  0  0  0  0  0  0  0  0  0
   -5.9316    5.0736  -18.4915 N   0  0  0  0  0  0  0  0  0  0  0  0
   -1.7050    6.3742  -17.3267 C   0  0  0  0  0  0  0  0  0  0  0  0
   -1.5401    6.8755  -18.7238 C   0  0  0  0  0  0  0  0  0  0  0  0
  1  2  3  0
  2  3  1  0
  3  4  1  0
  4  5  1  0
  5  6  2  0
  6  7  1  0
  7  8  1  0
  8  9  1  0
  7 10  2  0
 10 11  1  0
 11 12  2  0
 12 13  1  0
 13 14  2  0
 14 15  1  0
 15 16  2  0
  3 17  1  0
 17 18  1  0
 18  3  1  0
 16  5  1  0
 15 10  1  0
M  END
>  <energy_score>  (4924) 
-12.924277

>  <alias>  (4924) 
PCLXSLCURPZIKA-UHFFFAOYSA-N-P7-P7-P91-601531

>  <HIPPO Pose ID>  (4924) 
86683

>  <smiles>  (4924) 
N#CC1(Nc2cc(CBr)c3ccccc3n2)CC1

>  <inchikey>  (4924) 
PCLXSLCURPZIKA-UHFFFAOYSA-N

>  <distance_score>  (4924) 
1.101529

>  <ref_mols>  (4924) 
Z1688a,Z0089a

>  <ref_pdb>  (4924) 
Z0089a

>  <HIPPO Compound ID>  (4924) 
146493

>  <name>  (4924) 
PCLXSLCURPZIKA-UHFFFAOYSA-N-P7-P7-P91-601531

>  <inspiration_score>  (4924) 
None

$$$$
HXIKRKWZVWQKRN-UHFFFAOYSA-N-P91-P7-P91-601531
     RDKit          3D

 18 20  0  0  0  0  0  0  0  0999 V2000
   -2.0158    3.7057  -21.2717 N   0  0  0  0  0  0  0  0  0  0  0  0
   -2.2628    4.4905  -20.4496 C   0  0  0  0  0  0  0  0  0  0  0  0
   -2.5267    5.5004  -19.4329 C   0  0  0  0  0  0  0  0  0  0  0  0
   -3.9226    6.0565  -19.4111 N   0  0  0  0  0  0  0  0  0  0  0  0
   -4.8965    5.6563  -18.4798 C   0  0  0  0  0  0  0  0  0  0  0  0
   -5.9072    4.9685  -19.0373 N   0  0  0  0  0  0  0  0  0  0  0  0
   -6.9937    4.6769  -18.2983 C   0  0  0  0  0  0  0  0  0  0  0  0
   -8.0872    4.0704  -18.8613 C   0  0  0  0  0  0  0  0  0  0  0  0
   -9.2055    3.7592  -18.0900 C   0  0  0  0  0  0  0  0  0  0  0  0
   -9.2541    4.0346  -16.7389 C   0  0  0  0  0  0  0  0  0  0  0  0
   -8.1911    4.6637  -16.1513 C   0  0  0  0  0  0  0  0  0  0  0  0
   -7.0915    4.9942  -16.9411 C   0  0  0  0  0  0  0  0  0  0  0  0
   -6.0578    5.7042  -16.3837 C   0  0  0  0  0  0  0  0  0  0  0  0
   -4.9470    6.0804  -17.1538 C   0  0  0  0  0  0  0  0  0  0  0  0
   -4.0268    7.0715  -16.5351 C   0  0  0  0  0  0  0  0  0  0  0  0
   -3.3840    6.3921  -14.8248 Br  0  0  0  0  0  0  0  0  0  0  0  0
   -1.4544    6.5840  -19.3044 C   0  0  0  0  0  0  0  0  0  0  0  0
   -1.5358    5.4933  -18.2912 C   0  0  0  0  0  0  0  0  0  0  0  0
  1  2  3  0
  2  3  1  0
  3  4  1  0
  4  5  1  0
  5  6  2  0
  6  7  1  0
  7  8  2  0
  8  9  1  0
  9 10  2  0
 10 11  1  0
 11 12  2  0
 12 13  1  0
 13 14  2  0
 14 15  1  0
 15 16  1  0
  3 17  1  0
 17 18  1  0
 18  3  1  0
 14  5  1  0
 12  7  1  0
M  END
>  <energy_score>  (4925) 
-10.733911

>  <alias>  (4925) 
HXIKRKWZVWQKRN-UHFFFAOYSA-N-P91-P7-P91-601531

>  <HIPPO Pose ID>  (4925) 
86686

>  <smiles>  (4925) 
N#CC1(Nc2nc3ccccc3cc2CBr)CC1

>  <inchikey>  (4925) 
HXIKRKWZVWQKRN-UHFFFAOYSA-N

>  <distance_score>  (4925) 
1.960409

>  <ref_mols>  (4925) 
Z1688a,Z0089a

>  <ref_pdb>  (4925) 
Z0089a

>  <HIPPO Compound ID>  (4925) 
146494

>  <name>  (4925) 
HXIKRKWZVWQKRN-UHFFFAOYSA-N-P91-P7-P91-601531

>  <inspiration_score>  (4925) 
None

$$$$
OQFVPMLSBQQYAR-UHFFFAOYSA-N-P7-P7-P91-601531
     RDKit          3D

 18 20  0  0  0  0  0  0  0  0999 V2000
   -1.5449    4.9213  -21.5527 O   0  0  0  0  0  0  0  0  0  0  0  0
   -1.4283    5.6366  -20.3035 C   0  0  2  0  0  0  0  0  0  0  0  0
   -1.5419    4.7719  -19.0331 C   0  0  0  0  0  0  0  0  0  0  0  0
   -3.0359    5.1427  -18.9836 C   0  0  1  0  0  0  0  0  0  0  0  0
   -3.4765    5.4256  -17.6470 N   0  0  0  0  0  0  0  0  0  0  0  0
   -4.8199    5.2910  -17.2523 C   0  0  0  0  0  0  0  0  0  0  0  0
   -5.2031    5.4839  -15.9222 C   0  0  0  0  0  0  0  0  0  0  0  0
   -6.5415    5.2738  -15.5185 C   0  0  0  0  0  0  0  0  0  0  0  0
   -6.9675    5.6368  -14.1194 C   0  0  0  0  0  0  0  0  0  0  0  0
   -7.2019    4.1006  -12.9700 Br  0  0  0  0  0  0  0  0  0  0  0  0
   -7.4511    4.8122  -16.4953 C   0  0  0  0  0  0  0  0  0  0  0  0
   -8.8108    4.5060  -16.2617 C   0  0  0  0  0  0  0  0  0  0  0  0
   -9.6571    4.1675  -17.3167 C   0  0  0  0  0  0  0  0  0  0  0  0
   -9.1561    4.1111  -18.6042 C   0  0  0  0  0  0  0  0  0  0  0  0
   -7.8096    4.3414  -18.8333 C   0  0  0  0  0  0  0  0  0  0  0  0
   -6.9596    4.6877  -17.8130 C   0  0  0  0  0  0  0  0  0  0  0  0
   -5.7011    4.9208  -18.1727 N   0  0  0  0  0  0  0  0  0  0  0  0
   -2.6891    6.3925  -19.8162 C   0  0  0  0  0  0  0  0  0  0  0  0
  2  1  1  6
  2  3  1  0
  3  4  1  0
  4  5  1  1
  5  6  1  0
  6  7  2  0
  7  8  1  0
  8  9  1  0
  9 10  1  0
  8 11  2  0
 11 12  1  0
 12 13  2  0
 13 14  1  0
 14 15  2  0
 15 16  1  0
 16 17  2  0
  4 18  1  0
 18  2  1  0
 17  6  1  0
 16 11  1  0
M  END
>  <energy_score>  (4926) 
-16.76787

>  <alias>  (4926) 
OQFVPMLSBQQYAR-UHFFFAOYSA-N-P7-P7-P91-601531

>  <HIPPO Pose ID>  (4926) 
86693

>  <smiles>  (4926) 
OC1CC(Nc2cc(CBr)c3ccccc3n2)C1

>  <inchikey>  (4926) 
OQFVPMLSBQQYAR-UHFFFAOYSA-N

>  <distance_score>  (4926) 
1.001967

>  <ref_mols>  (4926) 
Z1688a,Z0089a

>  <ref_pdb>  (4926) 
Z0089a

>  <HIPPO Compound ID>  (4926) 
146498

>  <name>  (4926) 
OQFVPMLSBQQYAR-UHFFFAOYSA-N-P7-P7-P91-601531

>  <inspiration_score>  (4926) 
None

$$$$
KLDKTWRMBZVSEE-UHFFFAOYSA-N-P91-P7-P91-601531
     RDKit          3D

 18 20  0  0  0  0  0  0  0  0999 V2000
    0.1398    5.6366  -21.1739 O   0  0  0  0  0  0  0  0  0  0  0  0
   -0.5990    5.3488  -19.9761 C   0  0  2  0  0  0  0  0  0  0  0  0
   -1.8297    4.4250  -20.1498 C   0  0  0  0  0  0  0  0  0  0  0  0
   -2.5105    5.2660  -19.0567 C   0  0  2  0  0  0  0  0  0  0  0  0
   -3.8822    5.5611  -19.2978 N   0  0  0  0  0  0  0  0  0  0  0  0
   -4.9365    5.3491  -18.4049 C   0  0  0  0  0  0  0  0  0  0  0  0
   -6.0588    4.9097  -18.9965 N   0  0  0  0  0  0  0  0  0  0  0  0
   -7.1282    4.6344  -18.2344 C   0  0  0  0  0  0  0  0  0  0  0  0
   -8.3298    4.2821  -18.8006 C   0  0  0  0  0  0  0  0  0  0  0  0
   -9.4414    4.0183  -18.0080 C   0  0  0  0  0  0  0  0  0  0  0  0
   -9.3471    4.0240  -16.6329 C   0  0  0  0  0  0  0  0  0  0  0  0
   -8.1671    4.3663  -16.0318 C   0  0  0  0  0  0  0  0  0  0  0  0
   -7.0844    4.6940  -16.8377 C   0  0  0  0  0  0  0  0  0  0  0  0
   -5.9197    5.1197  -16.2444 C   0  0  0  0  0  0  0  0  0  0  0  0
   -4.8551    5.5646  -17.0294 C   0  0  0  0  0  0  0  0  0  0  0  0
   -3.7038    6.2362  -16.3636 C   0  0  0  0  0  0  0  0  0  0  0  0
   -4.3261    7.4923  -14.9982 Br  0  0  0  0  0  0  0  0  0  0  0  0
   -1.5879    6.4294  -19.4863 C   0  0  0  0  0  0  0  0  0  0  0  0
  2  1  1  6
  2  3  1  0
  3  4  1  0
  4  5  1  6
  5  6  1  0
  6  7  2  0
  7  8  1  0
  8  9  2  0
  9 10  1  0
 10 11  2  0
 11 12  1  0
 12 13  2  0
 13 14  1  0
 14 15  2  0
 15 16  1  0
 16 17  1  0
  4 18  1  0
 18  2  1  0
 15  6  1  0
 13  8  1  0
M  END
>  <energy_score>  (4927) 
-21.785325

>  <alias>  (4927) 
KLDKTWRMBZVSEE-UHFFFAOYSA-N-P91-P7-P91-601531

>  <HIPPO Pose ID>  (4927) 
86696

>  <smiles>  (4927) 
OC1CC(Nc2nc3ccccc3cc2CBr)C1

>  <inchikey>  (4927) 
KLDKTWRMBZVSEE-UHFFFAOYSA-N

>  <distance_score>  (4927) 
1.930857

>  <ref_mols>  (4927) 
Z1688a,Z0089a

>  <ref_pdb>  (4927) 
Z0089a

>  <HIPPO Compound ID>  (4927) 
146499

>  <name>  (4927) 
KLDKTWRMBZVSEE-UHFFFAOYSA-N-P91-P7-P91-601531

>  <inspiration_score>  (4927) 
None

$$$$
RWNXOCHKTJAEOR-UHFFFAOYSA-N-P7-P7-P91-601531
     RDKit          3D

 18 20  0  0  0  0  0  0  0  0999 V2000
   -7.4240    5.1399  -13.4686 O   0  0  0  0  0  0  0  0  0  0  0  0
   -6.3977    5.2259  -14.1298 C   0  0  0  0  0  0  0  0  0  0  0  0
   -6.2867    5.1105  -15.6195 C   0  0  0  0  0  0  0  0  0  0  0  0
   -5.0504    5.4590  -16.2053 C   0  0  0  0  0  0  0  0  0  0  0  0
   -4.9367    5.4478  -17.5866 C   0  0  0  0  0  0  0  0  0  0  0  0
   -3.8498    5.9179  -18.3170 N   0  0  0  0  0  0  0  0  0  0  0  0
   -2.5005    5.4612  -18.1980 C   0  0  1  0  0  0  0  0  0  0  0  0
   -2.1028    4.4892  -19.3281 C   0  0  0  0  0  0  0  0  0  0  0  0
   -0.9354    5.4181  -19.7017 C   0  0  2  0  0  0  0  0  0  0  0  0
    0.3812    4.9568  -19.3575 O   0  0  0  0  0  0  0  0  0  0  0  0
   -1.5320    6.5028  -18.7910 C   0  0  0  0  0  0  0  0  0  0  0  0
   -5.9376    5.0786  -18.3716 N   0  0  0  0  0  0  0  0  0  0  0  0
   -7.0915    4.7157  -17.8288 C   0  0  0  0  0  0  0  0  0  0  0  0
   -8.0618    4.3645  -18.7323 C   0  0  0  0  0  0  0  0  0  0  0  0
   -9.3445    4.0688  -18.3217 C   0  0  0  0  0  0  0  0  0  0  0  0
   -9.6391    4.0542  -16.9747 C   0  0  0  0  0  0  0  0  0  0  0  0
   -8.6587    4.3520  -16.0328 C   0  0  0  0  0  0  0  0  0  0  0  0
   -7.3601    4.7192  -16.4463 C   0  0  0  0  0  0  0  0  0  0  0  0
  1  2  2  0
  2  3  1  0
  3  4  2  0
  4  5  1  0
  5  6  1  0
  7  6  1  6
  7  8  1  0
  8  9  1  0
  9 10  1  1
  9 11  1  0
  5 12  2  0
 12 13  1  0
 13 14  2  0
 14 15  1  0
 15 16  2  0
 16 17  1  0
 17 18  2  0
 18  3  1  0
 11  7  1  0
 18 13  1  0
M  END
>  <energy_score>  (4928) 
-26.351088

>  <alias>  (4928) 
RWNXOCHKTJAEOR-UHFFFAOYSA-N-P7-P7-P91-601531

>  <HIPPO Pose ID>  (4928) 
86697

>  <smiles>  (4928) 
O=Cc1cc(NC2CC(O)C2)nc2ccccc12

>  <inchikey>  (4928) 
RWNXOCHKTJAEOR-UHFFFAOYSA-N

>  <distance_score>  (4928) 
1.118153

>  <ref_mols>  (4928) 
Z1688a,Z0089a

>  <ref_pdb>  (4928) 
Z0089a

>  <HIPPO Compound ID>  (4928) 
146500

>  <name>  (4928) 
RWNXOCHKTJAEOR-UHFFFAOYSA-N-P7-P7-P91-601531

>  <inspiration_score>  (4928) 
None

$$$$
LZGABPMLQOSWJW-UHFFFAOYSA-N-P91-P7-P91-601531
     RDKit          3D

 18 19  0  0  0  0  0  0  0  0999 V2000
   -0.7744    5.7085  -22.2541 C   0  0  0  0  0  0  0  0  0  0  0  0
   -1.8623    5.4567  -21.5160 C   0  0  0  0  0  0  0  0  0  0  0  0
   -1.8472    4.7784  -20.1652 C   0  0  0  0  0  0  0  0  0  0  0  0
   -2.5276    5.5785  -19.0279 C   0  0  1  0  0  0  0  0  0  0  0  0
   -1.8839    6.9607  -18.8907 C   0  0  0  0  0  0  0  0  0  0  0  0
   -3.9561    5.7550  -19.2742 N   0  0  0  0  0  0  0  0  0  0  0  0
   -4.9383    5.4370  -18.3626 C   0  0  0  0  0  0  0  0  0  0  0  0
   -6.0442    4.9639  -18.9613 N   0  0  0  0  0  0  0  0  0  0  0  0
   -7.1251    4.6647  -18.2195 C   0  0  0  0  0  0  0  0  0  0  0  0
   -8.2880    4.2391  -18.8086 C   0  0  0  0  0  0  0  0  0  0  0  0
   -9.4079    3.9543  -18.0360 C   0  0  0  0  0  0  0  0  0  0  0  0
   -9.3677    4.0282  -16.6603 C   0  0  0  0  0  0  0  0  0  0  0  0
   -8.2295    4.4528  -16.0359 C   0  0  0  0  0  0  0  0  0  0  0  0
   -7.1361    4.7854  -16.8230 C   0  0  0  0  0  0  0  0  0  0  0  0
   -6.0081    5.2639  -16.2101 C   0  0  0  0  0  0  0  0  0  0  0  0
   -4.9097    5.6221  -16.9857 C   0  0  0  0  0  0  0  0  0  0  0  0
   -3.8617    6.2126  -16.2444 C   0  0  0  0  0  0  0  0  0  0  0  0
   -3.1151    6.6759  -15.4894 N   0  0  0  0  0  0  0  0  0  0  0  0
  1  2  2  0
  2  3  1  0
  3  4  1  0
  4  5  1  6
  4  6  1  0
  6  7  1  0
  7  8  2  0
  8  9  1  0
  9 10  2  0
 10 11  1  0
 11 12  2  0
 12 13  1  0
 13 14  2  0
 14 15  1  0
 15 16  2  0
 16 17  1  0
 17 18  3  0
 16  7  1  0
 14  9  1  0
M  END
>  <energy_score>  (4929) 
-15.795605

>  <alias>  (4929) 
LZGABPMLQOSWJW-UHFFFAOYSA-N-P91-P7-P91-601531

>  <HIPPO Pose ID>  (4929) 
86700

>  <smiles>  (4929) 
C=CCC(C)Nc1nc2ccccc2cc1C#N

>  <inchikey>  (4929) 
LZGABPMLQOSWJW-UHFFFAOYSA-N

>  <distance_score>  (4929) 
1.956131

>  <ref_mols>  (4929) 
Z1688a,Z0089a

>  <ref_pdb>  (4929) 
Z0089a

>  <HIPPO Compound ID>  (4929) 
146501

>  <name>  (4929) 
LZGABPMLQOSWJW-UHFFFAOYSA-N-P91-P7-P91-601531

>  <inspiration_score>  (4929) 
None

$$$$
ICQZGYONHYIISN-UHFFFAOYSA-N-P91-P7-P91-601531
     RDKit          3D

 18 19  0  0  0  0  0  0  0  0999 V2000
   -1.4542    5.1836  -21.3906 C   0  0  0  0  0  0  0  0  0  0  0  0
   -2.3897    4.9377  -20.4660 C   0  0  0  0  0  0  0  0  0  0  0  0
   -2.1182    4.6291  -19.0172 C   0  0  0  0  0  0  0  0  0  0  0  0
   -2.4426    5.7816  -18.0382 C   0  0  1  0  0  0  0  0  0  0  0  0
   -1.5044    6.9651  -18.2869 C   0  0  0  0  0  0  0  0  0  0  0  0
   -3.8014    6.3019  -18.1802 N   0  0  0  0  0  0  0  0  0  0  0  0
   -4.8373    5.6812  -17.5108 C   0  0  0  0  0  0  0  0  0  0  0  0
   -5.0958    5.8013  -16.1468 C   0  0  0  0  0  0  0  0  0  0  0  0
   -6.3581    5.4163  -15.6269 C   0  0  0  0  0  0  0  0  0  0  0  0
   -6.7209    5.7685  -14.2050 C   0  0  0  0  0  0  0  0  0  0  0  0
   -6.9836    4.2350  -13.0527 Br  0  0  0  0  0  0  0  0  0  0  0  0
   -7.2996    4.8806  -16.5370 C   0  0  0  0  0  0  0  0  0  0  0  0
   -8.6326    4.5313  -16.2276 C   0  0  0  0  0  0  0  0  0  0  0  0
   -9.5161    4.1564  -17.2358 C   0  0  0  0  0  0  0  0  0  0  0  0
   -9.0722    4.0739  -18.5406 C   0  0  0  0  0  0  0  0  0  0  0  0
   -7.7520    4.3282  -18.8453 C   0  0  0  0  0  0  0  0  0  0  0  0
   -6.8834    4.7584  -17.8822 C   0  0  0  0  0  0  0  0  0  0  0  0
   -5.6994    5.1291  -18.3456 N   0  0  0  0  0  0  0  0  0  0  0  0
  1  2  2  0
  2  3  1  0
  3  4  1  0
  4  5  1  6
  4  6  1  0
  6  7  1  0
  7  8  2  0
  8  9  1  0
  9 10  1  0
 10 11  1  0
  9 12  2  0
 12 13  1  0
 13 14  2  0
 14 15  1  0
 15 16  2  0
 16 17  1  0
 17 18  2  0
 18  7  1  0
 17 12  1  0
M  END
>  <energy_score>  (4930) 
-32.319749

>  <alias>  (4930) 
ICQZGYONHYIISN-UHFFFAOYSA-N-P91-P7-P91-601531

>  <HIPPO Pose ID>  (4930) 
86704

>  <smiles>  (4930) 
C=CCC(C)Nc1cc(CBr)c2ccccc2n1

>  <inchikey>  (4930) 
ICQZGYONHYIISN-UHFFFAOYSA-N

>  <distance_score>  (4930) 
1.029599

>  <ref_mols>  (4930) 
Z1688a,Z0089a

>  <ref_pdb>  (4930) 
Z0089a

>  <HIPPO Compound ID>  (4930) 
146503

>  <name>  (4930) 
ICQZGYONHYIISN-UHFFFAOYSA-N-P91-P7-P91-601531

>  <inspiration_score>  (4930) 
None

$$$$
TXUQZBBFDOFRAH-UHFFFAOYSA-N-P7-P7-P91-601531
     RDKit          3D

 18 20  0  0  0  0  0  0  0  0999 V2000
   -7.8256    5.1165  -13.4671 O   0  0  0  0  0  0  0  0  0  0  0  0
   -6.7231    5.0960  -13.9964 C   0  0  0  0  0  0  0  0  0  0  0  0
   -6.4471    4.9807  -15.4623 C   0  0  0  0  0  0  0  0  0  0  0  0
   -5.1126    5.1714  -15.8708 C   0  0  0  0  0  0  0  0  0  0  0  0
   -4.7830    5.1090  -17.2207 C   0  0  0  0  0  0  0  0  0  0  0  0
   -3.4449    5.2177  -17.6291 N   0  0  0  0  0  0  0  0  0  0  0  0
   -3.2188    5.2211  -19.0871 C   0  0  2  0  0  0  0  0  0  0  0  0
   -1.8204    4.6952  -19.4203 C   0  0  0  0  0  0  0  0  0  0  0  0
   -0.8162    5.7616  -19.0199 C   0  0  0  0  0  0  0  0  0  0  0  0
   -1.5895    7.3325  -19.4867 S   0  0  0  0  0  0  0  0  0  0  0  0
   -3.2714    6.6450  -19.6503 C   0  0  0  0  0  0  0  0  0  0  0  0
   -5.7227    4.9288  -18.1386 N   0  0  0  0  0  0  0  0  0  0  0  0
   -6.9792    4.6946  -17.7634 C   0  0  0  0  0  0  0  0  0  0  0  0
   -7.8550    4.4361  -18.7888 C   0  0  0  0  0  0  0  0  0  0  0  0
   -9.1980    4.1954  -18.5531 C   0  0  0  0  0  0  0  0  0  0  0  0
   -9.6679    4.1599  -17.2537 C   0  0  0  0  0  0  0  0  0  0  0  0
   -8.7935    4.3955  -16.1924 C   0  0  0  0  0  0  0  0  0  0  0  0
   -7.4295    4.6916  -16.4290 C   0  0  0  0  0  0  0  0  0  0  0  0
  1  2  2  0
  2  3  1  0
  3  4  2  0
  4  5  1  0
  5  6  1  0
  7  6  1  1
  7  8  1  0
  8  9  1  0
  9 10  1  0
 10 11  1  0
  5 12  2  0
 12 13  1  0
 13 14  2  0
 14 15  1  0
 15 16  2  0
 16 17  1  0
 17 18  2  0
 18  3  1  0
 11  7  1  0
 18 13  1  0
M  END
>  <energy_score>  (4931) 
-29.041033

>  <alias>  (4931) 
TXUQZBBFDOFRAH-UHFFFAOYSA-N-P7-P7-P91-601531

>  <HIPPO Pose ID>  (4931) 
86713

>  <smiles>  (4931) 
O=Cc1cc(NC2CCSC2)nc2ccccc12

>  <inchikey>  (4931) 
TXUQZBBFDOFRAH-UHFFFAOYSA-N

>  <distance_score>  (4931) 
1.108374

>  <ref_mols>  (4931) 
Z1688a,Z0089a

>  <ref_pdb>  (4931) 
Z0089a

>  <HIPPO Compound ID>  (4931) 
146508

>  <name>  (4931) 
TXUQZBBFDOFRAH-UHFFFAOYSA-N-P7-P7-P91-601531

>  <inspiration_score>  (4931) 
None

$$$$
CNKJTIKKHVWBOG-UHFFFAOYSA-N-P91-P7-P91-601531
     RDKit          3D

 18 20  0  0  0  0  0  0  0  0999 V2000
   -3.0003    6.4769  -15.6267 N   0  0  0  0  0  0  0  0  0  0  0  0
   -3.7913    6.0237  -16.3403 C   0  0  0  0  0  0  0  0  0  0  0  0
   -4.8905    5.4972  -17.0541 C   0  0  0  0  0  0  0  0  0  0  0  0
   -6.0153    5.2816  -16.2639 C   0  0  0  0  0  0  0  0  0  0  0  0
   -7.1636    4.8115  -16.8447 C   0  0  0  0  0  0  0  0  0  0  0  0
   -8.2477    4.5162  -16.0332 C   0  0  0  0  0  0  0  0  0  0  0  0
   -9.3910    4.0647  -16.6287 C   0  0  0  0  0  0  0  0  0  0  0  0
   -9.4653    3.9732  -18.0020 C   0  0  0  0  0  0  0  0  0  0  0  0
   -8.3572    4.2316  -18.7988 C   0  0  0  0  0  0  0  0  0  0  0  0
   -7.1732    4.6322  -18.2336 C   0  0  0  0  0  0  0  0  0  0  0  0
   -6.0788    4.8187  -18.9889 N   0  0  0  0  0  0  0  0  0  0  0  0
   -4.9280    5.2053  -18.4114 C   0  0  0  0  0  0  0  0  0  0  0  0
   -3.8954    5.1727  -19.3024 N   0  0  0  0  0  0  0  0  0  0  0  0
   -2.5471    5.6754  -19.1678 C   0  0  1  0  0  0  0  0  0  0  0  0
   -1.6450    5.0021  -20.2025 C   0  0  0  0  0  0  0  0  0  0  0  0
   -0.3169    5.7409  -20.1603 C   0  0  0  0  0  0  0  0  0  0  0  0
   -0.7468    7.4891  -19.9311 S   0  0  0  0  0  0  0  0  0  0  0  0
   -2.4701    7.1729  -19.4568 C   0  0  0  0  0  0  0  0  0  0  0  0
  1  2  3  0
  2  3  1  0
  3  4  2  0
  4  5  1  0
  5  6  2  0
  6  7  1  0
  7  8  2  0
  8  9  1  0
  9 10  2  0
 10 11  1  0
 11 12  2  0
 12 13  1  0
 14 13  1  6
 14 15  1  0
 15 16  1  0
 16 17  1  0
 17 18  1  0
 12  3  1  0
 18 14  1  0
 10  5  1  0
M  END
>  <energy_score>  (4932) 
-8.759197

>  <alias>  (4932) 
CNKJTIKKHVWBOG-UHFFFAOYSA-N-P91-P7-P91-601531

>  <HIPPO Pose ID>  (4932) 
86716

>  <smiles>  (4932) 
N#Cc1cc2ccccc2nc1NC1CCSC1

>  <inchikey>  (4932) 
CNKJTIKKHVWBOG-UHFFFAOYSA-N

>  <distance_score>  (4932) 
1.961025

>  <ref_mols>  (4932) 
Z1688a,Z0089a

>  <ref_pdb>  (4932) 
Z0089a

>  <HIPPO Compound ID>  (4932) 
146509

>  <name>  (4932) 
CNKJTIKKHVWBOG-UHFFFAOYSA-N-P91-P7-P91-601531

>  <inspiration_score>  (4932) 
None

$$$$
WRFUKRWNBKPUHG-UHFFFAOYSA-N-P91-P7-P91-601531
     RDKit          3D

 18 20  0  0  0  0  0  0  0  0999 V2000
   -3.1251    6.7911  -15.5761 N   0  0  0  0  0  0  0  0  0  0  0  0
   -3.8868    6.2949  -16.2934 C   0  0  0  0  0  0  0  0  0  0  0  0
   -4.9346    5.6638  -17.0019 C   0  0  0  0  0  0  0  0  0  0  0  0
   -6.0232    5.3049  -16.2167 C   0  0  0  0  0  0  0  0  0  0  0  0
   -7.1450    4.8020  -16.8225 C   0  0  0  0  0  0  0  0  0  0  0  0
   -8.2315    4.4648  -16.0289 C   0  0  0  0  0  0  0  0  0  0  0  0
   -9.3684    4.0258  -16.6459 C   0  0  0  0  0  0  0  0  0  0  0  0
   -9.4176    3.9471  -18.0212 C   0  0  0  0  0  0  0  0  0  0  0  0
   -8.3036    4.2349  -18.8008 C   0  0  0  0  0  0  0  0  0  0  0  0
   -7.1389    4.6664  -18.2191 C   0  0  0  0  0  0  0  0  0  0  0  0
   -6.0619    4.9559  -18.9695 N   0  0  0  0  0  0  0  0  0  0  0  0
   -4.9618    5.4446  -18.3752 C   0  0  0  0  0  0  0  0  0  0  0  0
   -3.9493    5.7417  -19.2700 N   0  0  0  0  0  0  0  0  0  0  0  0
   -2.5623    5.3710  -18.9650 C   0  0  0  0  0  0  0  0  0  0  0  0
   -1.9151    4.5958  -20.1300 C   0  0  0  0  0  0  0  0  0  0  0  0
   -1.1247    5.6337  -20.8601 C   0  0  0  0  0  0  0  0  0  0  0  0
   -1.0133    6.7598  -20.1506 C   0  0  0  0  0  0  0  0  0  0  0  0
   -1.7135    6.6536  -18.8332 C   0  0  0  0  0  0  0  0  0  0  0  0
  1  2  3  0
  2  3  1  0
  3  4  2  0
  4  5  1  0
  5  6  2  0
  6  7  1  0
  7  8  2  0
  8  9  1  0
  9 10  2  0
 10 11  1  0
 11 12  2  0
 12 13  1  0
 13 14  1  0
 14 15  1  0
 15 16  1  0
 16 17  2  0
 17 18  1  0
 12  3  1  0
 18 14  1  0
 10  5  1  0
M  END
>  <energy_score>  (4933) 
-21.798182

>  <alias>  (4933) 
WRFUKRWNBKPUHG-UHFFFAOYSA-N-P91-P7-P91-601531

>  <HIPPO Pose ID>  (4933) 
86720

>  <smiles>  (4933) 
N#Cc1cc2ccccc2nc1NC1CC=CC1

>  <inchikey>  (4933) 
WRFUKRWNBKPUHG-UHFFFAOYSA-N

>  <distance_score>  (4933) 
1.952902

>  <ref_mols>  (4933) 
Z1688a,Z0089a

>  <ref_pdb>  (4933) 
Z0089a

>  <HIPPO Compound ID>  (4933) 
146511

>  <name>  (4933) 
WRFUKRWNBKPUHG-UHFFFAOYSA-N-P91-P7-P91-601531

>  <inspiration_score>  (4933) 
None

$$$$
GRPJMNVRVGQPAX-UHFFFAOYSA-N-P7-P7-P91-601531
     RDKit          3D

 18 19  0  0  0  0  0  0  0  0999 V2000
   -1.9203    4.3379  -19.3046 C   0  0  0  0  0  0  0  0  0  0  0  0
   -3.1040    5.2684  -19.0500 C   0  0  2  0  0  0  0  0  0  0  0  0
   -2.8654    6.7089  -19.5409 C   0  0  0  0  0  0  0  0  0  0  0  0
   -1.5373    7.3463  -19.1434 C   0  0  0  0  0  0  0  0  0  0  0  0
   -0.5378    7.1010  -20.1245 O   0  0  0  0  0  0  0  0  0  0  0  0
   -3.4100    5.2571  -17.6115 N   0  0  0  0  0  0  0  0  0  0  0  0
   -4.7478    5.1540  -17.2193 C   0  0  0  0  0  0  0  0  0  0  0  0
   -5.0886    5.1884  -15.8696 C   0  0  0  0  0  0  0  0  0  0  0  0
   -6.4234    4.9780  -15.4686 C   0  0  0  0  0  0  0  0  0  0  0  0
   -6.7056    5.0630  -14.0022 C   0  0  0  0  0  0  0  0  0  0  0  0
   -7.8099    5.1462  -13.4826 O   0  0  0  0  0  0  0  0  0  0  0  0
   -7.3997    4.6918  -16.4407 C   0  0  0  0  0  0  0  0  0  0  0  0
   -8.7653    4.3956  -16.2092 C   0  0  0  0  0  0  0  0  0  0  0  0
   -9.6356    4.1593  -17.2734 C   0  0  0  0  0  0  0  0  0  0  0  0
   -9.1575    4.1904  -18.5703 C   0  0  0  0  0  0  0  0  0  0  0  0
   -7.8117    4.4302  -18.7997 C   0  0  0  0  0  0  0  0  0  0  0  0
   -6.9390    4.6916  -17.7713 C   0  0  0  0  0  0  0  0  0  0  0  0
   -5.6786    4.9313  -18.1375 N   0  0  0  0  0  0  0  0  0  0  0  0
  2  1  1  1
  2  3  1  0
  3  4  1  0
  4  5  1  0
  2  6  1  0
  6  7  1  0
  7  8  2  0
  8  9  1  0
  9 10  1  0
 10 11  2  0
  9 12  2  0
 12 13  1  0
 13 14  2  0
 14 15  1  0
 15 16  2  0
 16 17  1  0
 17 18  2  0
 18  7  1  0
 17 12  1  0
M  END
>  <energy_score>  (4934) 
-29.687739

>  <alias>  (4934) 
GRPJMNVRVGQPAX-UHFFFAOYSA-N-P7-P7-P91-601531

>  <HIPPO Pose ID>  (4934) 
86731

>  <smiles>  (4934) 
CC(CCO)Nc1cc(C=O)c2ccccc2n1

>  <inchikey>  (4934) 
GRPJMNVRVGQPAX-UHFFFAOYSA-N

>  <distance_score>  (4934) 
1.100129

>  <ref_mols>  (4934) 
Z1688a,Z0089a

>  <ref_pdb>  (4934) 
Z0089a

>  <HIPPO Compound ID>  (4934) 
146517

>  <name>  (4934) 
GRPJMNVRVGQPAX-UHFFFAOYSA-N-P7-P7-P91-601531

>  <inspiration_score>  (4934) 
None

$$$$
QHNULAVWMQSDJH-UHFFFAOYSA-N-P7-P7-P91-601531
     RDKit          3D

 18 20  0  0  0  0  0  0  0  0999 V2000
   -2.0344    4.5219  -19.1256 C   0  0  0  0  0  0  0  0  0  0  0  0
   -2.7438    5.8252  -19.4506 C   0  0  0  0  0  0  0  0  0  0  0  0
   -4.1675    5.6775  -19.4705 N   0  0  0  0  0  0  0  0  0  0  0  0
   -5.1132    5.3556  -18.4988 C   0  0  0  0  0  0  0  0  0  0  0  0
   -6.2564    4.9028  -19.0529 N   0  0  0  0  0  0  0  0  0  0  0  0
   -7.3077    4.5948  -18.2718 C   0  0  0  0  0  0  0  0  0  0  0  0
   -8.5071    4.2004  -18.8171 C   0  0  0  0  0  0  0  0  0  0  0  0
   -9.6075    3.9200  -18.0117 C   0  0  0  0  0  0  0  0  0  0  0  0
   -9.5050    3.9753  -16.6365 C   0  0  0  0  0  0  0  0  0  0  0  0
   -8.3234    4.3521  -16.0545 C   0  0  0  0  0  0  0  0  0  0  0  0
   -7.2507    4.6767  -16.8773 C   0  0  0  0  0  0  0  0  0  0  0  0
   -6.0805    5.1170  -16.3092 C   0  0  0  0  0  0  0  0  0  0  0  0
   -5.0083    5.4875  -17.1220 C   0  0  0  0  0  0  0  0  0  0  0  0
   -3.9249    6.0343  -16.3984 C   0  0  0  0  0  0  0  0  0  0  0  0
   -3.1752    6.4709  -15.6306 N   0  0  0  0  0  0  0  0  0  0  0  0
   -2.2628    7.1333  -18.7604 C   0  0  0  0  0  0  0  0  0  0  0  0
   -1.3574    7.4067  -19.9690 C   0  0  0  0  0  0  0  0  0  0  0  0
   -2.2601    6.4768  -20.7889 C   0  0  0  0  0  0  0  0  0  0  0  0
  1  2  1  0
  2  3  1  0
  3  4  1  0
  4  5  2  0
  5  6  1  0
  6  7  2  0
  7  8  1  0
  8  9  2  0
  9 10  1  0
 10 11  2  0
 11 12  1  0
 12 13  2  0
 13 14  1  0
 14 15  3  0
  2 16  1  0
 16 17  1  0
 17 18  1  0
 18  2  1  0
 13  4  1  0
 11  6  1  0
M  END
>  <energy_score>  (4935) 
-15.109429

>  <alias>  (4935) 
QHNULAVWMQSDJH-UHFFFAOYSA-N-P7-P7-P91-601531

>  <HIPPO Pose ID>  (4935) 
86739

>  <smiles>  (4935) 
CC1(Nc2nc3ccccc3cc2C#N)CCC1

>  <inchikey>  (4935) 
QHNULAVWMQSDJH-UHFFFAOYSA-N

>  <distance_score>  (4935) 
1.965416

>  <ref_mols>  (4935) 
Z1688a,Z0089a

>  <ref_pdb>  (4935) 
Z0089a

>  <HIPPO Compound ID>  (4935) 
146521

>  <name>  (4935) 
QHNULAVWMQSDJH-UHFFFAOYSA-N-P7-P7-P91-601531

>  <inspiration_score>  (4935) 
None

$$$$
PKXFFNMYJONJPY-UHFFFAOYSA-N-P91-P7-P91-601531
     RDKit          3D

 18 20  0  0  0  0  0  0  0  0999 V2000
   -1.9644    4.5096  -19.0601 C   0  0  0  0  0  0  0  0  0  0  0  0
   -2.5642    5.8315  -19.5010 C   0  0  0  0  0  0  0  0  0  0  0  0
   -3.9989    5.8428  -19.4755 N   0  0  0  0  0  0  0  0  0  0  0  0
   -4.9344    5.5143  -18.4918 C   0  0  0  0  0  0  0  0  0  0  0  0
   -6.0569    5.0083  -19.0397 N   0  0  0  0  0  0  0  0  0  0  0  0
   -7.1021    4.6977  -18.2562 C   0  0  0  0  0  0  0  0  0  0  0  0
   -8.2852    4.2485  -18.7947 C   0  0  0  0  0  0  0  0  0  0  0  0
   -9.3747    3.9504  -17.9809 C   0  0  0  0  0  0  0  0  0  0  0  0
   -9.2823    4.0446  -16.6082 C   0  0  0  0  0  0  0  0  0  0  0  0
   -8.1209    4.4918  -16.0382 C   0  0  0  0  0  0  0  0  0  0  0  0
   -7.0569    4.8309  -16.8686 C   0  0  0  0  0  0  0  0  0  0  0  0
   -5.9042    5.3341  -16.3131 C   0  0  0  0  0  0  0  0  0  0  0  0
   -4.8224    5.7155  -17.1176 C   0  0  0  0  0  0  0  0  0  0  0  0
   -3.6772    6.3951  -16.4471 C   0  0  0  0  0  0  0  0  0  0  0  0
   -3.8066    6.3590  -15.0232 O   0  0  0  0  0  0  0  0  0  0  0  0
   -2.0527    6.2079  -20.9272 C   0  0  0  0  0  0  0  0  0  0  0  0
   -1.9732    7.6731  -20.4890 C   0  0  0  0  0  0  0  0  0  0  0  0
   -1.9154    7.1738  -19.0374 C   0  0  0  0  0  0  0  0  0  0  0  0
  1  2  1  0
  2  3  1  0
  3  4  1  0
  4  5  2  0
  5  6  1  0
  6  7  2  0
  7  8  1  0
  8  9  2  0
  9 10  1  0
 10 11  2  0
 11 12  1  0
 12 13  2  0
 13 14  1  0
 14 15  1  0
  2 16  1  0
 16 17  1  0
 17 18  1  0
 18  2  1  0
 13  4  1  0
 11  6  1  0
M  END
>  <energy_score>  (4936) 
-30.901056

>  <alias>  (4936) 
PKXFFNMYJONJPY-UHFFFAOYSA-N-P91-P7-P91-601531

>  <HIPPO Pose ID>  (4936) 
86742

>  <smiles>  (4936) 
CC1(Nc2nc3ccccc3cc2CO)CCC1

>  <inchikey>  (4936) 
PKXFFNMYJONJPY-UHFFFAOYSA-N

>  <distance_score>  (4936) 
1.951159

>  <ref_mols>  (4936) 
Z1688a,Z0089a

>  <ref_pdb>  (4936) 
Z0089a

>  <HIPPO Compound ID>  (4936) 
146522

>  <name>  (4936) 
PKXFFNMYJONJPY-UHFFFAOYSA-N-P91-P7-P91-601531

>  <inspiration_score>  (4936) 
None

$$$$
NWHBQHBSQQYVQP-UHFFFAOYSA-N-P7-P7-P91-601531
     RDKit          3D

 18 20  0  0  0  0  0  0  0  0999 V2000
   -2.2327    4.3455  -19.0026 C   0  0  0  0  0  0  0  0  0  0  0  0
   -2.5269    5.7710  -18.5631 C   0  0  0  0  0  0  0  0  0  0  0  0
   -3.9299    6.0678  -18.6065 N   0  0  0  0  0  0  0  0  0  0  0  0
   -4.9479    5.5633  -17.7936 C   0  0  0  0  0  0  0  0  0  0  0  0
   -5.0700    5.7226  -16.4142 C   0  0  0  0  0  0  0  0  0  0  0  0
   -6.2851    5.3784  -15.7595 C   0  0  0  0  0  0  0  0  0  0  0  0
   -6.4979    5.7623  -14.3128 C   0  0  0  0  0  0  0  0  0  0  0  0
   -6.7683    4.2603  -13.1161 Br  0  0  0  0  0  0  0  0  0  0  0  0
   -7.3246    4.8427  -16.5550 C   0  0  0  0  0  0  0  0  0  0  0  0
   -8.6150    4.5054  -16.0957 C   0  0  0  0  0  0  0  0  0  0  0  0
   -9.5930    4.0824  -16.9878 C   0  0  0  0  0  0  0  0  0  0  0  0
   -9.3075    3.9714  -18.3317 C   0  0  0  0  0  0  0  0  0  0  0  0
   -8.0365    4.2535  -18.7888 C   0  0  0  0  0  0  0  0  0  0  0  0
   -7.0602    4.6964  -17.9338 C   0  0  0  0  0  0  0  0  0  0  0  0
   -5.9215    5.0352  -18.5212 N   0  0  0  0  0  0  0  0  0  0  0  0
   -1.8056    6.3462  -17.3214 C   0  0  0  0  0  0  0  0  0  0  0  0
   -0.6952    6.8542  -18.2613 C   0  0  0  0  0  0  0  0  0  0  0  0
   -1.7418    6.8370  -19.3923 C   0  0  0  0  0  0  0  0  0  0  0  0
  1  2  1  0
  2  3  1  0
  3  4  1  0
  4  5  2  0
  5  6  1  0
  6  7  1  0
  7  8  1  0
  6  9  2  0
  9 10  1  0
 10 11  2  0
 11 12  1  0
 12 13  2  0
 13 14  1  0
 14 15  2  0
  2 16  1  0
 16 17  1  0
 17 18  1  0
 18  2  1  0
 15  4  1  0
 14  9  1  0
M  END
>  <energy_score>  (4937) 
-21.614194

>  <alias>  (4937) 
NWHBQHBSQQYVQP-UHFFFAOYSA-N-P7-P7-P91-601531

>  <HIPPO Pose ID>  (4937) 
86743

>  <smiles>  (4937) 
CC1(Nc2cc(CBr)c3ccccc3n2)CCC1

>  <inchikey>  (4937) 
NWHBQHBSQQYVQP-UHFFFAOYSA-N

>  <distance_score>  (4937) 
1.103428

>  <ref_mols>  (4937) 
Z1688a,Z0089a

>  <ref_pdb>  (4937) 
Z0089a

>  <HIPPO Compound ID>  (4937) 
146523

>  <name>  (4937) 
NWHBQHBSQQYVQP-UHFFFAOYSA-N-P7-P7-P91-601531

>  <inspiration_score>  (4937) 
None

$$$$
JMFOFOSPFWIIHT-UHFFFAOYSA-N-P7-P7-P91-601531
     RDKit          3D

 18 20  0  0  0  0  0  0  0  0999 V2000
   -1.8011    3.8545  -19.2992 C   0  0  0  0  0  0  0  0  0  0  0  0
   -2.2070    5.2256  -18.8172 C   0  0  0  0  0  0  0  0  0  0  0  0
   -3.5599    5.4898  -19.1727 N   0  0  0  0  0  0  0  0  0  0  0  0
   -4.7550    5.2158  -18.4711 C   0  0  0  0  0  0  0  0  0  0  0  0
   -4.8479    4.5088  -17.3512 N   0  0  0  0  0  0  0  0  0  0  0  0
   -6.0724    4.4003  -16.7781 C   0  0  0  0  0  0  0  0  0  0  0  0
   -6.1938    3.9961  -15.4621 C   0  0  0  0  0  0  0  0  0  0  0  0
   -7.4407    3.8577  -14.8461 C   0  0  0  0  0  0  0  0  0  0  0  0
   -8.6044    4.0868  -15.5687 C   0  0  0  0  0  0  0  0  0  0  0  0
   -8.5258    4.4996  -16.8844 C   0  0  0  0  0  0  0  0  0  0  0  0
   -7.2626    4.7470  -17.4353 C   0  0  0  0  0  0  0  0  0  0  0  0
   -7.1217    5.5232  -18.5586 C   0  0  0  0  0  0  0  0  0  0  0  0
   -5.8444    5.9463  -18.8925 C   0  0  0  0  0  0  0  0  0  0  0  0
   -5.5705    7.3688  -19.2397 C   0  0  0  0  0  0  0  0  0  0  0  0
   -5.0910    8.2821  -17.5513 Br  0  0  0  0  0  0  0  0  0  0  0  0
   -1.2997    6.3497  -19.4053 C   0  0  0  0  0  0  0  0  0  0  0  0
   -1.3699    7.0780  -18.0558 C   0  0  0  0  0  0  0  0  0  0  0  0
   -1.8048    5.7510  -17.4095 C   0  0  0  0  0  0  0  0  0  0  0  0
  1  2  1  0
  2  3  1  0
  3  4  1  0
  4  5  2  0
  5  6  1  0
  6  7  2  0
  7  8  1  0
  8  9  2  0
  9 10  1  0
 10 11  2  0
 11 12  1  0
 12 13  2  0
 13 14  1  0
 14 15  1  0
  2 16  1  0
 16 17  1  0
 17 18  1  0
 18  2  1  0
 13  4  1  0
 11  6  1  0
M  END
>  <energy_score>  (4938) 
-0.958177

>  <alias>  (4938) 
JMFOFOSPFWIIHT-UHFFFAOYSA-N-P7-P7-P91-601531

>  <HIPPO Pose ID>  (4938) 
86745

>  <smiles>  (4938) 
CC1(Nc2nc3ccccc3cc2CBr)CCC1

>  <inchikey>  (4938) 
JMFOFOSPFWIIHT-UHFFFAOYSA-N

>  <distance_score>  (4938) 
1.983103

>  <ref_mols>  (4938) 
Z1688a,Z0089a

>  <ref_pdb>  (4938) 
Z0089a

>  <HIPPO Compound ID>  (4938) 
146524

>  <name>  (4938) 
JMFOFOSPFWIIHT-UHFFFAOYSA-N-P7-P7-P91-601531

>  <inspiration_score>  (4938) 
None

$$$$
BALYDZNKBUZJHI-UHFFFAOYSA-N-P7-P7-P91-601531
     RDKit          3D

 18 20  0  0  0  0  0  0  0  0999 V2000
   -2.2291    4.3399  -18.9821 C   0  0  0  0  0  0  0  0  0  0  0  0
   -2.4496    5.6972  -18.3399 C   0  0  0  0  0  0  0  0  0  0  0  0
   -3.8451    6.0615  -18.3272 N   0  0  0  0  0  0  0  0  0  0  0  0
   -4.8909    5.5119  -17.5852 C   0  0  0  0  0  0  0  0  0  0  0  0
   -5.0237    5.5328  -16.2057 C   0  0  0  0  0  0  0  0  0  0  0  0
   -6.2568    5.1508  -15.6270 C   0  0  0  0  0  0  0  0  0  0  0  0
   -6.3839    5.2811  -14.1385 C   0  0  0  0  0  0  0  0  0  0  0  0
   -7.4046    5.1397  -13.4785 O   0  0  0  0  0  0  0  0  0  0  0  0
   -7.3164    4.7322  -16.4578 C   0  0  0  0  0  0  0  0  0  0  0  0
   -8.6190    4.3628  -16.0530 C   0  0  0  0  0  0  0  0  0  0  0  0
   -9.5917    4.0548  -16.9999 C   0  0  0  0  0  0  0  0  0  0  0  0
   -9.2810    4.0553  -18.3441 C   0  0  0  0  0  0  0  0  0  0  0  0
   -7.9932    4.3516  -18.7446 C   0  0  0  0  0  0  0  0  0  0  0  0
   -7.0313    4.7158  -17.8360 C   0  0  0  0  0  0  0  0  0  0  0  0
   -5.8737    5.0892  -18.3691 N   0  0  0  0  0  0  0  0  0  0  0  0
   -1.6464    6.8389  -19.0423 C   0  0  0  0  0  0  0  0  0  0  0  0
   -1.4210    7.4641  -17.6518 C   0  0  0  0  0  0  0  0  0  0  0  0
   -1.6553    6.0626  -17.0558 C   0  0  0  0  0  0  0  0  0  0  0  0
  1  2  1  0
  2  3  1  0
  3  4  1  0
  4  5  2  0
  5  6  1  0
  6  7  1  0
  7  8  2  0
  6  9  2  0
  9 10  1  0
 10 11  2  0
 11 12  1  0
 12 13  2  0
 13 14  1  0
 14 15  2  0
  2 16  1  0
 16 17  1  0
 17 18  1  0
 18  2  1  0
 15  4  1  0
 14  9  1  0
M  END
>  <energy_score>  (4939) 
-14.977982

>  <alias>  (4939) 
BALYDZNKBUZJHI-UHFFFAOYSA-N-P7-P7-P91-601531

>  <HIPPO Pose ID>  (4939) 
86747

>  <smiles>  (4939) 
CC1(Nc2cc(C=O)c3ccccc3n2)CCC1

>  <inchikey>  (4939) 
BALYDZNKBUZJHI-UHFFFAOYSA-N

>  <distance_score>  (4939) 
1.223006

>  <ref_mols>  (4939) 
Z1688a,Z0089a

>  <ref_pdb>  (4939) 
Z0089a

>  <HIPPO Compound ID>  (4939) 
146525

>  <name>  (4939) 
BALYDZNKBUZJHI-UHFFFAOYSA-N-P7-P7-P91-601531

>  <inspiration_score>  (4939) 
None

$$$$
SQRJTSVVNQCZEJ-UHFFFAOYSA-N-P7-P7-P91-601531
     RDKit          3D

 18 19  0  0  0  0  0  0  0  0999 V2000
   -2.4193    4.3232  -18.6365 C   0  0  0  0  0  0  0  0  0  0  0  0
   -2.8595    5.4684  -19.5270 C   0  0  2  0  0  0  0  0  0  0  0  0
   -1.7701    6.5374  -19.7095 C   0  0  0  0  0  0  0  0  0  0  0  0
   -1.3112    7.1406  -18.4541 C   0  0  0  0  0  0  0  0  0  0  0  0
   -0.9259    7.6093  -17.4638 N   0  0  0  0  0  0  0  0  0  0  0  0
   -4.1537    6.1140  -19.2485 N   0  0  0  0  0  0  0  0  0  0  0  0
   -5.0675    5.5817  -18.3493 C   0  0  0  0  0  0  0  0  0  0  0  0
   -6.1366    5.0399  -18.9551 N   0  0  0  0  0  0  0  0  0  0  0  0
   -7.1796    4.6515  -18.2010 C   0  0  0  0  0  0  0  0  0  0  0  0
   -8.3471    4.2157  -18.7848 C   0  0  0  0  0  0  0  0  0  0  0  0
   -9.4678    3.9030  -18.0183 C   0  0  0  0  0  0  0  0  0  0  0  0
   -9.4161    3.9609  -16.6398 C   0  0  0  0  0  0  0  0  0  0  0  0
   -8.2535    4.3461  -16.0203 C   0  0  0  0  0  0  0  0  0  0  0  0
   -7.1604    4.7111  -16.8036 C   0  0  0  0  0  0  0  0  0  0  0  0
   -6.0262    5.2067  -16.1965 C   0  0  0  0  0  0  0  0  0  0  0  0
   -4.9841    5.7246  -16.9689 C   0  0  0  0  0  0  0  0  0  0  0  0
   -3.8989    6.4915  -16.2901 C   0  0  0  0  0  0  0  0  0  0  0  0
   -4.3269    6.9190  -14.9959 O   0  0  0  0  0  0  0  0  0  0  0  0
  2  1  1  1
  2  3  1  0
  3  4  1  0
  4  5  3  0
  2  6  1  0
  6  7  1  0
  7  8  2  0
  8  9  1  0
  9 10  2  0
 10 11  1  0
 11 12  2  0
 12 13  1  0
 13 14  2  0
 14 15  1  0
 15 16  2  0
 16 17  1  0
 17 18  1  0
 16  7  1  0
 14  9  1  0
M  END
>  <energy_score>  (4940) 
-17.845794

>  <alias>  (4940) 
SQRJTSVVNQCZEJ-UHFFFAOYSA-N-P7-P7-P91-601531

>  <HIPPO Pose ID>  (4940) 
86753

>  <smiles>  (4940) 
CC(CC#N)Nc1nc2ccccc2cc1CO

>  <inchikey>  (4940) 
SQRJTSVVNQCZEJ-UHFFFAOYSA-N

>  <distance_score>  (4940) 
1.940653

>  <ref_mols>  (4940) 
Z1688a,Z0089a

>  <ref_pdb>  (4940) 
Z0089a

>  <HIPPO Compound ID>  (4940) 
146528

>  <name>  (4940) 
SQRJTSVVNQCZEJ-UHFFFAOYSA-N-P7-P7-P91-601531

>  <inspiration_score>  (4940) 
None

$$$$
ZWEJKSDKXFMOHB-UHFFFAOYSA-N-P7-P7-P91-601531
     RDKit          3D

 18 19  0  0  0  0  0  0  0  0999 V2000
   -1.7434    4.5945  -19.2267 C   0  0  0  0  0  0  0  0  0  0  0  0
   -3.1056    5.2513  -18.9998 C   0  0  2  0  0  0  0  0  0  0  0  0
   -3.1605    6.6780  -19.5640 C   0  0  0  0  0  0  0  0  0  0  0  0
   -2.2495    7.6068  -18.8864 C   0  0  0  0  0  0  0  0  0  0  0  0
   -1.5441    8.3454  -18.3350 N   0  0  0  0  0  0  0  0  0  0  0  0
   -3.4292    5.2113  -17.5665 N   0  0  0  0  0  0  0  0  0  0  0  0
   -4.7775    5.1747  -17.2092 C   0  0  0  0  0  0  0  0  0  0  0  0
   -5.1681    5.3193  -15.8750 C   0  0  0  0  0  0  0  0  0  0  0  0
   -6.5215    5.1801  -15.4939 C   0  0  0  0  0  0  0  0  0  0  0  0
   -6.9457    5.5387  -14.0934 C   0  0  0  0  0  0  0  0  0  0  0  0
   -7.2338    4.0010  -12.9612 Br  0  0  0  0  0  0  0  0  0  0  0  0
   -7.4378    4.7834  -16.4902 C   0  0  0  0  0  0  0  0  0  0  0  0
   -8.8043    4.4961  -16.2706 C   0  0  0  0  0  0  0  0  0  0  0  0
   -9.6497    4.1887  -17.3360 C   0  0  0  0  0  0  0  0  0  0  0  0
   -9.1431    4.1546  -18.6223 C   0  0  0  0  0  0  0  0  0  0  0  0
   -7.7926    4.3813  -18.8392 C   0  0  0  0  0  0  0  0  0  0  0  0
   -6.9409    4.6939  -17.8082 C   0  0  0  0  0  0  0  0  0  0  0  0
   -5.6736    4.9158  -18.1546 N   0  0  0  0  0  0  0  0  0  0  0  0
  2  1  1  1
  2  3  1  0
  3  4  1  0
  4  5  3  0
  2  6  1  0
  6  7  1  0
  7  8  2  0
  8  9  1  0
  9 10  1  0
 10 11  1  0
  9 12  2  0
 12 13  1  0
 13 14  2  0
 14 15  1  0
 15 16  2  0
 16 17  1  0
 17 18  2  0
 18  7  1  0
 17 12  1  0
M  END
>  <energy_score>  (4941) 
-38.028431

>  <alias>  (4941) 
ZWEJKSDKXFMOHB-UHFFFAOYSA-N-P7-P7-P91-601531

>  <HIPPO Pose ID>  (4941) 
86755

>  <smiles>  (4941) 
CC(CC#N)Nc1cc(CBr)c2ccccc2n1

>  <inchikey>  (4941) 
ZWEJKSDKXFMOHB-UHFFFAOYSA-N

>  <distance_score>  (4941) 
1.016629

>  <ref_mols>  (4941) 
Z1688a,Z0089a

>  <ref_pdb>  (4941) 
Z0089a

>  <HIPPO Compound ID>  (4941) 
146529

>  <name>  (4941) 
ZWEJKSDKXFMOHB-UHFFFAOYSA-N-P7-P7-P91-601531

>  <inspiration_score>  (4941) 
None

$$$$
QXXPHUXFLRZFSN-UHFFFAOYSA-N-P91-P7-P91-601531
     RDKit          3D

 18 19  0  0  0  0  0  0  0  0999 V2000
   -1.4001    3.7500  -19.5558 C   0  0  0  0  0  0  0  0  0  0  0  0
   -2.3390    4.7360  -20.2088 C   0  0  0  0  0  0  0  0  0  0  0  0
   -2.7453    5.8369  -19.2248 C   0  0  1  0  0  0  0  0  0  0  0  0
   -1.8625    7.0723  -19.4002 C   0  0  0  0  0  0  0  0  0  0  0  0
   -4.1611    6.2280  -19.3770 N   0  0  0  0  0  0  0  0  0  0  0  0
   -4.6679    6.4933  -20.7026 N   0  0  0  0  0  0  0  0  0  0  0  0
   -5.0944    5.6676  -18.4709 C   0  0  0  0  0  0  0  0  0  0  0  0
   -6.2073    5.1221  -19.0237 N   0  0  0  0  0  0  0  0  0  0  0  0
   -7.2084    4.7212  -18.2267 C   0  0  0  0  0  0  0  0  0  0  0  0
   -8.4074    4.3047  -18.7564 C   0  0  0  0  0  0  0  0  0  0  0  0
   -9.4763    3.9767  -17.9305 C   0  0  0  0  0  0  0  0  0  0  0  0
   -9.3348    3.9836  -16.5596 C   0  0  0  0  0  0  0  0  0  0  0  0
   -8.1476    4.3614  -15.9954 C   0  0  0  0  0  0  0  0  0  0  0  0
   -7.1127    4.7524  -16.8327 C   0  0  0  0  0  0  0  0  0  0  0  0
   -5.9605    5.2429  -16.2700 C   0  0  0  0  0  0  0  0  0  0  0  0
   -4.9658    5.7935  -17.0791 C   0  0  0  0  0  0  0  0  0  0  0  0
   -3.8776    6.5567  -16.3916 C   0  0  0  0  0  0  0  0  0  0  0  0
   -4.3286    7.0263  -15.1196 O   0  0  0  0  0  0  0  0  0  0  0  0
  1  2  1  0
  2  3  1  0
  3  4  1  6
  3  5  1  0
  5  6  1  0
  5  7  1  0
  7  8  2  0
  8  9  1  0
  9 10  2  0
 10 11  1  0
 11 12  2  0
 12 13  1  0
 13 14  2  0
 14 15  1  0
 15 16  2  0
 16 17  1  0
 17 18  1  0
 16  7  1  0
 14  9  1  0
M  END
>  <energy_score>  (4942) 
-29.256755

>  <alias>  (4942) 
QXXPHUXFLRZFSN-UHFFFAOYSA-N-P91-P7-P91-601531

>  <HIPPO Pose ID>  (4942) 
86762

>  <smiles>  (4942) 
CCC(C)N(N)c1nc2ccccc2cc1CO

>  <inchikey>  (4942) 
QXXPHUXFLRZFSN-UHFFFAOYSA-N

>  <distance_score>  (4942) 
1.926223

>  <ref_mols>  (4942) 
Z1688a,Z0089a

>  <ref_pdb>  (4942) 
Z0089a

>  <HIPPO Compound ID>  (4942) 
146532

>  <name>  (4942) 
QXXPHUXFLRZFSN-UHFFFAOYSA-N-P91-P7-P91-601531

>  <inspiration_score>  (4942) 
None

$$$$
CWMYXGFSTKRKNN-UHFFFAOYSA-N-P7-P7-P91-601531
     RDKit          3D

 18 19  0  0  0  0  0  0  0  0999 V2000
    0.8239    5.6840  -18.9544 C   0  0  0  0  0  0  0  0  0  0  0  0
   -0.6206    6.0353  -18.6372 C   0  0  0  0  0  0  0  0  0  0  0  0
   -1.6120    5.0243  -19.2329 C   0  0  0  0  0  0  0  0  0  0  0  0
   -3.0965    5.3952  -19.0237 C   0  0  2  0  0  0  0  0  0  0  0  0
   -3.4090    6.7520  -19.6554 C   0  0  0  0  0  0  0  0  0  0  0  0
   -3.4212    5.4391  -17.5923 N   0  0  0  0  0  0  0  0  0  0  0  0
   -4.7615    5.2351  -17.2317 C   0  0  0  0  0  0  0  0  0  0  0  0
   -5.1595    5.4108  -15.9024 C   0  0  0  0  0  0  0  0  0  0  0  0
   -6.5043    5.2193  -15.5128 C   0  0  0  0  0  0  0  0  0  0  0  0
   -6.9383    5.5915  -14.1183 C   0  0  0  0  0  0  0  0  0  0  0  0
   -7.2053    4.0589  -12.9710 Br  0  0  0  0  0  0  0  0  0  0  0  0
   -7.4113    4.7843  -16.5022 C   0  0  0  0  0  0  0  0  0  0  0  0
   -8.7764    4.4902  -16.2795 C   0  0  0  0  0  0  0  0  0  0  0  0
   -9.6212    4.1720  -17.3418 C   0  0  0  0  0  0  0  0  0  0  0  0
   -9.1139    4.1292  -18.6277 C   0  0  0  0  0  0  0  0  0  0  0  0
   -7.7630    4.3554  -18.8467 C   0  0  0  0  0  0  0  0  0  0  0  0
   -6.9111    4.6790  -17.8187 C   0  0  0  0  0  0  0  0  0  0  0  0
   -5.6444    4.9065  -18.1673 N   0  0  0  0  0  0  0  0  0  0  0  0
  1  2  1  0
  2  3  1  0
  3  4  1  0
  4  5  1  1
  4  6  1  0
  6  7  1  0
  7  8  2  0
  8  9  1  0
  9 10  1  0
 10 11  1  0
  9 12  2  0
 12 13  1  0
 13 14  2  0
 14 15  1  0
 15 16  2  0
 16 17  1  0
 17 18  2  0
 18  7  1  0
 17 12  1  0
M  END
>  <energy_score>  (4943) 
-40.574279

>  <alias>  (4943) 
CWMYXGFSTKRKNN-UHFFFAOYSA-N-P7-P7-P91-601531

>  <HIPPO Pose ID>  (4943) 
86773

>  <smiles>  (4943) 
CCCC(C)Nc1cc(CBr)c2ccccc2n1

>  <inchikey>  (4943) 
CWMYXGFSTKRKNN-UHFFFAOYSA-N

>  <distance_score>  (4943) 
1.037315

>  <ref_mols>  (4943) 
Z1688a,Z0089a

>  <ref_pdb>  (4943) 
Z0089a

>  <HIPPO Compound ID>  (4943) 
146538

>  <name>  (4943) 
CWMYXGFSTKRKNN-UHFFFAOYSA-N-P7-P7-P91-601531

>  <inspiration_score>  (4943) 
None

$$$$
JTKSTYADCPUNNZ-UHFFFAOYSA-N-P91-P7-P91-601531
     RDKit          3D

 18 19  0  0  0  0  0  0  0  0999 V2000
   -1.8643    6.3308  -22.1032 C   0  0  0  0  0  0  0  0  0  0  0  0
   -1.2212    5.1833  -21.3377 C   0  0  0  0  0  0  0  0  0  0  0  0
   -2.0367    4.6602  -20.1453 C   0  0  0  0  0  0  0  0  0  0  0  0
   -2.4650    5.7386  -19.1486 C   0  0  2  0  0  0  0  0  0  0  0  0
   -1.2760    6.4800  -18.5480 C   0  0  0  0  0  0  0  0  0  0  0  0
   -3.2251    5.1668  -18.0483 N   0  0  0  0  0  0  0  0  0  0  0  0
   -4.5842    5.3092  -17.9349 C   0  0  0  0  0  0  0  0  0  0  0  0
   -5.2296    4.4785  -17.1284 N   0  0  0  0  0  0  0  0  0  0  0  0
   -6.5762    4.5256  -17.0960 C   0  0  0  0  0  0  0  0  0  0  0  0
   -7.2867    4.0869  -16.0014 C   0  0  0  0  0  0  0  0  0  0  0  0
   -8.6753    4.0342  -16.0170 C   0  0  0  0  0  0  0  0  0  0  0  0
   -9.3725    4.3310  -17.1755 C   0  0  0  0  0  0  0  0  0  0  0  0
   -8.6850    4.8964  -18.2340 C   0  0  0  0  0  0  0  0  0  0  0  0
   -7.3085    5.1367  -18.0953 C   0  0  0  0  0  0  0  0  0  0  0  0
   -6.6196    6.1571  -18.7345 C   0  0  0  0  0  0  0  0  0  0  0  0
   -5.2855    6.3787  -18.4100 C   0  0  0  0  0  0  0  0  0  0  0  0
   -4.8079    7.7492  -18.0579 C   0  0  0  0  0  0  0  0  0  0  0  0
   -4.9049    7.9355  -16.0927 Br  0  0  0  0  0  0  0  0  0  0  0  0
  1  2  1  0
  2  3  1  0
  3  4  1  0
  4  5  1  1
  4  6  1  0
  6  7  1  0
  7  8  2  0
  8  9  1  0
  9 10  2  0
 10 11  1  0
 11 12  2  0
 12 13  1  0
 13 14  2  0
 14 15  1  0
 15 16  2  0
 16 17  1  0
 17 18  1  0
 16  7  1  0
 14  9  1  0
M  END
>  <energy_score>  (4944) 
-0.667251

>  <alias>  (4944) 
JTKSTYADCPUNNZ-UHFFFAOYSA-N-P91-P7-P91-601531

>  <HIPPO Pose ID>  (4944) 
86776

>  <smiles>  (4944) 
CCCC(C)Nc1nc2ccccc2cc1CBr

>  <inchikey>  (4944) 
JTKSTYADCPUNNZ-UHFFFAOYSA-N

>  <distance_score>  (4944) 
1.948093

>  <ref_mols>  (4944) 
Z1688a,Z0089a

>  <ref_pdb>  (4944) 
Z0089a

>  <HIPPO Compound ID>  (4944) 
146539

>  <name>  (4944) 
JTKSTYADCPUNNZ-UHFFFAOYSA-N-P91-P7-P91-601531

>  <inspiration_score>  (4944) 
None

$$$$
CHWQWBIZDBNZJT-UHFFFAOYSA-N-P7-P7-P91-601531
     RDKit          3D

 18 20  0  0  0  0  0  0  0  0999 V2000
   -4.0707    5.9066  -20.4892 N   0  0  0  0  0  0  0  0  0  0  0  0
   -3.7971    5.6067  -19.1235 N   0  0  0  0  0  0  0  0  0  0  0  0
   -4.9486    5.3570  -18.3098 C   0  0  0  0  0  0  0  0  0  0  0  0
   -6.0680    4.9310  -18.9483 N   0  0  0  0  0  0  0  0  0  0  0  0
   -7.1616    4.6306  -18.2261 C   0  0  0  0  0  0  0  0  0  0  0  0
   -8.3189    4.2159  -18.8415 C   0  0  0  0  0  0  0  0  0  0  0  0
   -9.4694    3.9336  -18.1085 C   0  0  0  0  0  0  0  0  0  0  0  0
   -9.4659    4.0067  -16.7309 C   0  0  0  0  0  0  0  0  0  0  0  0
   -8.3245    4.3974  -16.0789 C   0  0  0  0  0  0  0  0  0  0  0  0
   -7.1974    4.7241  -16.8313 C   0  0  0  0  0  0  0  0  0  0  0  0
   -6.0711    5.1884  -16.1916 C   0  0  0  0  0  0  0  0  0  0  0  0
   -4.9461    5.5755  -16.9265 C   0  0  0  0  0  0  0  0  0  0  0  0
   -3.8325    6.2432  -16.1861 C   0  0  0  0  0  0  0  0  0  0  0  0
   -4.3415    6.8835  -15.0153 O   0  0  0  0  0  0  0  0  0  0  0  0
   -2.4448    5.2745  -18.7381 C   0  0  0  0  0  0  0  0  0  0  0  0
   -1.5807    4.5262  -19.7751 C   0  0  0  0  0  0  0  0  0  0  0  0
   -0.4083    5.4338  -19.3390 C   0  0  0  0  0  0  0  0  0  0  0  0
   -1.4641    6.4631  -18.8868 C   0  0  0  0  0  0  0  0  0  0  0  0
  1  2  1  0
  2  3  1  0
  3  4  2  0
  4  5  1  0
  5  6  2  0
  6  7  1  0
  7  8  2  0
  8  9  1  0
  9 10  2  0
 10 11  1  0
 11 12  2  0
 12 13  1  0
 13 14  1  0
  2 15  1  0
 15 16  1  0
 16 17  1  0
 17 18  1  0
 12  3  1  0
 18 15  1  0
 10  5  1  0
M  END
>  <energy_score>  (4945) 
-29.56179

>  <alias>  (4945) 
CHWQWBIZDBNZJT-UHFFFAOYSA-N-P7-P7-P91-601531

>  <HIPPO Pose ID>  (4945) 
86781

>  <smiles>  (4945) 
NN(c1nc2ccccc2cc1CO)C1CCC1

>  <inchikey>  (4945) 
CHWQWBIZDBNZJT-UHFFFAOYSA-N

>  <distance_score>  (4945) 
1.871083

>  <ref_mols>  (4945) 
Z1688a,Z0089a

>  <ref_pdb>  (4945) 
Z0089a

>  <HIPPO Compound ID>  (4945) 
146542

>  <name>  (4945) 
CHWQWBIZDBNZJT-UHFFFAOYSA-N-P7-P7-P91-601531

>  <inspiration_score>  (4945) 
None

$$$$
QFAXNLPHOKAUKM-UHFFFAOYSA-N-P7-P7-P91-601531
     RDKit          3D

 18 20  0  0  0  0  0  0  0  0999 V2000
   -4.1393    5.8543  -20.0631 N   0  0  0  0  0  0  0  0  0  0  0  0
   -3.8404    5.6121  -18.6752 N   0  0  0  0  0  0  0  0  0  0  0  0
   -4.9700    5.3000  -17.8699 C   0  0  0  0  0  0  0  0  0  0  0  0
   -4.9909    5.3615  -16.4757 C   0  0  0  0  0  0  0  0  0  0  0  0
   -6.1898    5.0818  -15.7782 C   0  0  0  0  0  0  0  0  0  0  0  0
   -6.1862    5.2296  -14.2846 C   0  0  0  0  0  0  0  0  0  0  0  0
   -7.1609    5.1811  -13.5452 O   0  0  0  0  0  0  0  0  0  0  0  0
   -7.3339    4.7001  -16.5008 C   0  0  0  0  0  0  0  0  0  0  0  0
   -8.5833    4.3410  -15.9625 C   0  0  0  0  0  0  0  0  0  0  0  0
   -9.6392    4.0244  -16.8058 C   0  0  0  0  0  0  0  0  0  0  0  0
   -9.4858    4.0384  -18.1742 C   0  0  0  0  0  0  0  0  0  0  0  0
   -8.2507    4.3333  -18.7074 C   0  0  0  0  0  0  0  0  0  0  0  0
   -7.1945    4.6763  -17.8997 C   0  0  0  0  0  0  0  0  0  0  0  0
   -6.0811    4.9871  -18.5445 N   0  0  0  0  0  0  0  0  0  0  0  0
   -2.4672    5.3895  -18.3051 C   0  0  0  0  0  0  0  0  0  0  0  0
   -1.6354    4.5672  -19.3279 C   0  0  0  0  0  0  0  0  0  0  0  0
   -0.4750    5.5483  -19.0482 C   0  0  0  0  0  0  0  0  0  0  0  0
   -1.5417    6.5863  -18.6343 C   0  0  0  0  0  0  0  0  0  0  0  0
  1  2  1  0
  2  3  1  0
  3  4  2  0
  4  5  1  0
  5  6  1  0
  6  7  2  0
  5  8  2  0
  8  9  1  0
  9 10  2  0
 10 11  1  0
 11 12  2  0
 12 13  1  0
 13 14  2  0
  2 15  1  0
 15 16  1  0
 16 17  1  0
 17 18  1  0
 14  3  1  0
 18 15  1  0
 13  8  1  0
M  END
>  <energy_score>  (4946) 
-14.546625

>  <alias>  (4946) 
QFAXNLPHOKAUKM-UHFFFAOYSA-N-P7-P7-P91-601531

>  <HIPPO Pose ID>  (4946) 
86787

>  <smiles>  (4946) 
NN(c1cc(C=O)c2ccccc2n1)C1CCC1

>  <inchikey>  (4946) 
QFAXNLPHOKAUKM-UHFFFAOYSA-N

>  <distance_score>  (4946) 
1.213199

>  <ref_mols>  (4946) 
Z1688a,Z0089a

>  <ref_pdb>  (4946) 
Z0089a

>  <HIPPO Compound ID>  (4946) 
146545

>  <name>  (4946) 
QFAXNLPHOKAUKM-UHFFFAOYSA-N-P7-P7-P91-601531

>  <inspiration_score>  (4946) 
None

$$$$
DJXNSAGYYCQNIP-UHFFFAOYSA-N-P7-P7-P91-601531
     RDKit          3D

 18 19  0  0  0  0  0  0  0  0999 V2000
   -0.2957    5.6810  -19.5264 C   0  0  0  0  0  0  0  0  0  0  0  0
   -1.6546    5.1107  -19.1039 C   0  0  0  0  0  0  0  0  0  0  0  0
   -1.7539    3.6523  -19.5366 C   0  0  0  0  0  0  0  0  0  0  0  0
   -2.8205    5.9344  -19.6861 C   0  0  2  0  0  0  0  0  0  0  0  0
   -2.7910    7.4310  -19.4041 C   0  0  0  0  0  0  0  0  0  0  0  0
   -4.1223    5.3433  -19.4616 N   0  0  0  0  0  0  0  0  0  0  0  0
   -5.0377    5.2478  -18.4707 C   0  0  0  0  0  0  0  0  0  0  0  0
   -6.2178    4.8780  -19.0137 N   0  0  0  0  0  0  0  0  0  0  0  0
   -7.2778    4.6190  -18.2346 C   0  0  0  0  0  0  0  0  0  0  0  0
   -8.4824    4.2339  -18.7793 C   0  0  0  0  0  0  0  0  0  0  0  0
   -9.5821    3.9513  -17.9742 C   0  0  0  0  0  0  0  0  0  0  0  0
   -9.4743    4.0102  -16.5993 C   0  0  0  0  0  0  0  0  0  0  0  0
   -8.2913    4.3983  -16.0232 C   0  0  0  0  0  0  0  0  0  0  0  0
   -7.2140    4.7107  -16.8483 C   0  0  0  0  0  0  0  0  0  0  0  0
   -6.0190    5.1124  -16.2961 C   0  0  0  0  0  0  0  0  0  0  0  0
   -4.9053    5.4119  -17.0997 C   0  0  0  0  0  0  0  0  0  0  0  0
   -3.6589    5.7730  -16.3704 C   0  0  0  0  0  0  0  0  0  0  0  0
   -3.9737    6.3831  -15.1148 O   0  0  0  0  0  0  0  0  0  0  0  0
  1  2  1  0
  2  3  1  0
  2  4  1  0
  4  5  1  1
  4  6  1  0
  6  7  1  0
  7  8  2  0
  8  9  1  0
  9 10  2  0
 10 11  1  0
 11 12  2  0
 12 13  1  0
 13 14  2  0
 14 15  1  0
 15 16  2  0
 16 17  1  0
 17 18  1  0
 16  7  1  0
 14  9  1  0
M  END
>  <energy_score>  (4947) 
-22.768853

>  <alias>  (4947) 
DJXNSAGYYCQNIP-UHFFFAOYSA-N-P7-P7-P91-601531

>  <HIPPO Pose ID>  (4947) 
86793

>  <smiles>  (4947) 
CC(C)C(C)Nc1nc2ccccc2cc1CO

>  <inchikey>  (4947) 
DJXNSAGYYCQNIP-UHFFFAOYSA-N

>  <distance_score>  (4947) 
1.94358

>  <ref_mols>  (4947) 
Z1688a,Z0089a

>  <ref_pdb>  (4947) 
Z0089a

>  <HIPPO Compound ID>  (4947) 
146548

>  <name>  (4947) 
DJXNSAGYYCQNIP-UHFFFAOYSA-N-P7-P7-P91-601531

>  <inspiration_score>  (4947) 
None

$$$$
ZZQFUVKFBBRKNL-UHFFFAOYSA-N-P7-P7-P91-601531
     RDKit          3D

 19 21  0  0  0  0  0  0  0  0999 V2000
   -1.9118    4.5925  -19.6291 C   0  0  0  0  0  0  0  0  0  0  0  0
   -2.4525    5.9228  -19.1455 C   0  0  0  0  0  0  0  0  0  0  0  0
   -3.4626    5.7644  -18.1504 N   0  0  0  0  0  0  0  0  0  0  0  0
   -4.7723    5.3107  -18.2088 C   0  0  0  0  0  0  0  0  0  0  0  0
   -5.3792    4.9712  -19.3891 C   0  0  0  0  0  0  0  0  0  0  0  0
   -6.6902    4.5428  -19.3806 C   0  0  0  0  0  0  0  0  0  0  0  0
   -7.3979    4.5174  -18.1919 C   0  0  0  0  0  0  0  0  0  0  0  0
   -8.7505    4.1582  -18.2074 C   0  0  0  0  0  0  0  0  0  0  0  0
   -9.4604    4.1072  -17.0219 C   0  0  0  0  0  0  0  0  0  0  0  0
   -8.8130    4.3979  -15.8267 C   0  0  0  0  0  0  0  0  0  0  0  0
   -7.4633    4.7879  -15.8225 C   0  0  0  0  0  0  0  0  0  0  0  0
   -6.8451    5.1854  -14.5391 C   0  0  0  0  0  0  0  0  0  0  0  0
   -6.0755    6.1030  -14.3267 O   0  0  0  0  0  0  0  0  0  0  0  0
   -7.2778    4.4063  -13.5277 O   0  0  0  0  0  0  0  0  0  0  0  0
   -6.7222    4.8641  -17.0038 C   0  0  0  0  0  0  0  0  0  0  0  0
   -5.4215    5.2448  -17.0342 N   0  0  0  0  0  0  0  0  0  0  0  0
   -1.3524    6.9066  -18.6481 C   0  0  0  0  0  0  0  0  0  0  0  0
   -2.1310    8.0539  -19.3156 C   0  0  0  0  0  0  0  0  0  0  0  0
   -2.7976    6.9996  -20.2181 C   0  0  0  0  0  0  0  0  0  0  0  0
  1  2  1  0
  2  3  1  0
  3  4  1  0
  4  5  2  0
  5  6  1  0
  6  7  2  0
  7  8  1  0
  8  9  2  0
  9 10  1  0
 10 11  2  0
 11 12  1  0
 12 13  2  0
 12 14  1  0
 11 15  1  0
 15 16  2  0
  2 17  1  0
 17 18  1  0
 18 19  1  0
 19  2  1  0
 16  4  1  0
 15  7  1  0
M  END
>  <energy_score>  (4948) 
-32.436756

>  <alias>  (4948) 
ZZQFUVKFBBRKNL-UHFFFAOYSA-N-P7-P7-P91-601531

>  <HIPPO Pose ID>  (4948) 
86813

>  <smiles>  (4948) 
CC1(Nc2ccc3cccc(C(=O)O)c3n2)CCC1

>  <inchikey>  (4948) 
ZZQFUVKFBBRKNL-UHFFFAOYSA-N

>  <distance_score>  (4948) 
1.136958

>  <ref_mols>  (4948) 
Z1688a,Z0089a

>  <ref_pdb>  (4948) 
Z0089a

>  <HIPPO Compound ID>  (4948) 
146558

>  <name>  (4948) 
ZZQFUVKFBBRKNL-UHFFFAOYSA-N-P7-P7-P91-601531

>  <inspiration_score>  (4948) 
None

$$$$
HYDSVRMBXJCPJS-UHFFFAOYSA-N-P91-P7-P91-601531
     RDKit          3D

 19 20  0  0  0  0  0  0  0  0999 V2000
   -1.8155    4.6213  -20.1605 C   0  0  0  0  0  0  0  0  0  0  0  0
   -2.5807    5.7597  -19.4929 C   0  0  2  0  0  0  0  0  0  0  0  0
   -1.6739    6.9005  -19.0030 C   0  0  0  0  0  0  0  0  0  0  0  0
   -0.4650    6.4761  -18.1705 C   0  0  0  0  0  0  0  0  0  0  0  0
    0.6507    6.1815  -19.0028 O   0  0  0  0  0  0  0  0  0  0  0  0
   -3.3414    5.2237  -18.3822 N   0  0  0  0  0  0  0  0  0  0  0  0
   -4.7041    5.0661  -18.4009 C   0  0  0  0  0  0  0  0  0  0  0  0
   -5.4166    4.7583  -19.5370 C   0  0  0  0  0  0  0  0  0  0  0  0
   -6.7531    4.4391  -19.4221 C   0  0  0  0  0  0  0  0  0  0  0  0
   -7.3709    4.4869  -18.1874 C   0  0  0  0  0  0  0  0  0  0  0  0
   -8.7329    4.1965  -18.0975 C   0  0  0  0  0  0  0  0  0  0  0  0
   -9.3451    4.1763  -16.8590 C   0  0  0  0  0  0  0  0  0  0  0  0
   -8.6006    4.4415  -15.7152 C   0  0  0  0  0  0  0  0  0  0  0  0
   -7.2394    4.7626  -15.8275 C   0  0  0  0  0  0  0  0  0  0  0  0
   -6.4801    5.0510  -14.5943 C   0  0  0  0  0  0  0  0  0  0  0  0
   -5.5184    4.4249  -14.1902 O   0  0  0  0  0  0  0  0  0  0  0  0
   -7.0052    6.1173  -13.9394 O   0  0  0  0  0  0  0  0  0  0  0  0
   -6.5911    4.8046  -17.0604 C   0  0  0  0  0  0  0  0  0  0  0  0
   -5.2844    5.1243  -17.1903 N   0  0  0  0  0  0  0  0  0  0  0  0
  2  1  1  1
  2  3  1  0
  3  4  1  0
  4  5  1  0
  2  6  1  0
  6  7  1  0
  7  8  2  0
  8  9  1  0
  9 10  2  0
 10 11  1  0
 11 12  2  0
 12 13  1  0
 13 14  2  0
 14 15  1  0
 15 16  2  0
 15 17  1  0
 14 18  1  0
 18 19  2  0
 19  7  1  0
 18 10  1  0
M  END
>  <energy_score>  (4949) 
-16.752022

>  <alias>  (4949) 
HYDSVRMBXJCPJS-UHFFFAOYSA-N-P91-P7-P91-601531

>  <HIPPO Pose ID>  (4949) 
86818

>  <smiles>  (4949) 
CC(CCO)Nc1ccc2cccc(C(=O)O)c2n1

>  <inchikey>  (4949) 
HYDSVRMBXJCPJS-UHFFFAOYSA-N

>  <distance_score>  (4949) 
1.470285

>  <ref_mols>  (4949) 
Z1688a,Z0089a

>  <ref_pdb>  (4949) 
Z0089a

>  <HIPPO Compound ID>  (4949) 
146560

>  <name>  (4949) 
HYDSVRMBXJCPJS-UHFFFAOYSA-N-P91-P7-P91-601531

>  <inspiration_score>  (4949) 
None

$$$$
MQGOTAJKJIYGQH-UHFFFAOYSA-N-P91-P7-P91-601531
     RDKit          3D

 19 21  0  0  0  0  0  0  0  0999 V2000
   -6.4098    5.9048  -14.2289 O   0  0  0  0  0  0  0  0  0  0  0  0
   -6.8218    4.8387  -14.6504 C   0  0  0  0  0  0  0  0  0  0  0  0
   -6.8103    3.6814  -13.9465 O   0  0  0  0  0  0  0  0  0  0  0  0
   -7.4819    4.6667  -15.9497 C   0  0  0  0  0  0  0  0  0  0  0  0
   -8.8522    4.3760  -15.9379 C   0  0  0  0  0  0  0  0  0  0  0  0
   -9.5252    4.1532  -17.1304 C   0  0  0  0  0  0  0  0  0  0  0  0
   -8.8178    4.1691  -18.3162 C   0  0  0  0  0  0  0  0  0  0  0  0
   -7.4493    4.4528  -18.3071 C   0  0  0  0  0  0  0  0  0  0  0  0
   -6.7511    4.4156  -19.4983 C   0  0  0  0  0  0  0  0  0  0  0  0
   -5.4345    4.8150  -19.5400 C   0  0  0  0  0  0  0  0  0  0  0  0
   -4.8094    5.1560  -18.3627 C   0  0  0  0  0  0  0  0  0  0  0  0
   -3.4851    5.5634  -18.3359 N   0  0  0  0  0  0  0  0  0  0  0  0
   -2.6088    5.8236  -19.4120 C   0  0  2  0  0  0  0  0  0  0  0  0
   -1.7442    4.6068  -19.7983 C   0  0  0  0  0  0  0  0  0  0  0  0
   -0.5618    5.5937  -19.9530 C   0  0  2  0  0  0  0  0  0  0  0  0
    0.7235    5.1191  -19.5220 O   0  0  0  0  0  0  0  0  0  0  0  0
   -1.3090    6.5213  -18.9676 C   0  0  0  0  0  0  0  0  0  0  0  0
   -5.4363    5.1026  -17.1723 N   0  0  0  0  0  0  0  0  0  0  0  0
   -6.7476    4.7639  -17.1297 C   0  0  0  0  0  0  0  0  0  0  0  0
  1  2  2  0
  2  3  1  0
  2  4  1  0
  4  5  2  0
  5  6  1  0
  6  7  2  0
  7  8  1  0
  8  9  2  0
  9 10  1  0
 10 11  2  0
 11 12  1  0
 13 12  1  1
 13 14  1  0
 14 15  1  0
 15 16  1  1
 15 17  1  0
 11 18  1  0
 18 19  2  0
 19  4  1  0
 19  8  1  0
 17 13  1  0
M  END
>  <energy_score>  (4950) 
-28.743932

>  <alias>  (4950) 
MQGOTAJKJIYGQH-UHFFFAOYSA-N-P91-P7-P91-601531

>  <HIPPO Pose ID>  (4950) 
86822

>  <smiles>  (4950) 
O=C(O)c1cccc2ccc(NC3CC(O)C3)nc12

>  <inchikey>  (4950) 
MQGOTAJKJIYGQH-UHFFFAOYSA-N

>  <distance_score>  (4950) 
1.100257

>  <ref_mols>  (4950) 
Z1688a,Z0089a

>  <ref_pdb>  (4950) 
Z0089a

>  <HIPPO Compound ID>  (4950) 
146562

>  <name>  (4950) 
MQGOTAJKJIYGQH-UHFFFAOYSA-N-P91-P7-P91-601531

>  <inspiration_score>  (4950) 
None

$$$$
PJAFMXKOUIWJAN-UHFFFAOYSA-N-P7-P7-P91-601531
     RDKit          3D

 19 21  0  0  0  0  0  0  0  0999 V2000
   -1.9478    5.0204  -21.1490 N   0  0  0  0  0  0  0  0  0  0  0  0
   -2.1630    5.3958  -20.0710 C   0  0  0  0  0  0  0  0  0  0  0  0
   -2.5482    5.9956  -18.8103 C   0  0  0  0  0  0  0  0  0  0  0  0
   -3.3502    5.1535  -17.9137 N   0  0  0  0  0  0  0  0  0  0  0  0
   -4.7307    5.0088  -18.0728 C   0  0  0  0  0  0  0  0  0  0  0  0
   -5.3180    4.8490  -19.3031 C   0  0  0  0  0  0  0  0  0  0  0  0
   -6.6647    4.5612  -19.3680 C   0  0  0  0  0  0  0  0  0  0  0  0
   -7.4181    4.4935  -18.2089 C   0  0  0  0  0  0  0  0  0  0  0  0
   -8.7887    4.2259  -18.3006 C   0  0  0  0  0  0  0  0  0  0  0  0
   -9.5473    4.1341  -17.1494 C   0  0  0  0  0  0  0  0  0  0  0  0
   -8.9281    4.2977  -15.9156 C   0  0  0  0  0  0  0  0  0  0  0  0
   -7.5542    4.5775  -15.8266 C   0  0  0  0  0  0  0  0  0  0  0  0
   -6.9453    4.7392  -14.4839 C   0  0  0  0  0  0  0  0  0  0  0  0
   -5.8095    4.5016  -14.1214 O   0  0  0  0  0  0  0  0  0  0  0  0
   -7.8404    5.2445  -13.6035 O   0  0  0  0  0  0  0  0  0  0  0  0
   -6.7648    4.6865  -16.9734 C   0  0  0  0  0  0  0  0  0  0  0  0
   -5.4392    4.9633  -16.9325 N   0  0  0  0  0  0  0  0  0  0  0  0
   -1.5445    6.9492  -18.1941 C   0  0  0  0  0  0  0  0  0  0  0  0
   -2.7922    7.4961  -18.8111 C   0  0  0  0  0  0  0  0  0  0  0  0
  1  2  3  0
  2  3  1  0
  3  4  1  0
  4  5  1  0
  5  6  2  0
  6  7  1  0
  7  8  2  0
  8  9  1  0
  9 10  2  0
 10 11  1  0
 11 12  2  0
 12 13  1  0
 13 14  2  0
 13 15  1  0
 12 16  1  0
 16 17  2  0
  3 18  1  0
 18 19  1  0
 19  3  1  0
 17  5  1  0
 16  8  1  0
M  END
>  <energy_score>  (4951) 
-29.311226

>  <alias>  (4951) 
PJAFMXKOUIWJAN-UHFFFAOYSA-N-P7-P7-P91-601531

>  <HIPPO Pose ID>  (4951) 
86829

>  <smiles>  (4951) 
N#CC1(Nc2ccc3cccc(C(=O)O)c3n2)CC1

>  <inchikey>  (4951) 
PJAFMXKOUIWJAN-UHFFFAOYSA-N

>  <distance_score>  (4951) 
1.202242

>  <ref_mols>  (4951) 
Z1688a,Z0089a

>  <ref_pdb>  (4951) 
Z0089a

>  <HIPPO Compound ID>  (4951) 
146566

>  <name>  (4951) 
PJAFMXKOUIWJAN-UHFFFAOYSA-N-P7-P7-P91-601531

>  <inspiration_score>  (4951) 
None

$$$$
VCZIQZWUFCNSCO-UHFFFAOYSA-N-P7-P7-P91-601531
     RDKit          3D

 19 20  0  0  0  0  0  0  0  0999 V2000
   -0.7214    6.1638  -22.0122 C   0  0  0  0  0  0  0  0  0  0  0  0
   -1.1566    5.6325  -21.0269 C   0  0  0  0  0  0  0  0  0  0  0  0
   -1.6882    4.9799  -19.8135 C   0  0  0  0  0  0  0  0  0  0  0  0
   -2.6631    5.9159  -19.0739 C   0  0  2  0  0  0  0  0  0  0  0  0
   -1.9253    7.0693  -18.3970 C   0  0  0  0  0  0  0  0  0  0  0  0
   -3.3826    5.1565  -18.0619 N   0  0  0  0  0  0  0  0  0  0  0  0
   -4.7522    5.0047  -18.1522 C   0  0  0  0  0  0  0  0  0  0  0  0
   -5.3779    4.7633  -19.3494 C   0  0  0  0  0  0  0  0  0  0  0  0
   -6.7269    4.4896  -19.3705 C   0  0  0  0  0  0  0  0  0  0  0  0
   -7.4403    4.4774  -18.1873 C   0  0  0  0  0  0  0  0  0  0  0  0
   -8.8111    4.2050  -18.2290 C   0  0  0  0  0  0  0  0  0  0  0  0
   -9.5314    4.1455  -17.0523 C   0  0  0  0  0  0  0  0  0  0  0  0
   -8.8760    4.3489  -15.8433 C   0  0  0  0  0  0  0  0  0  0  0  0
   -7.5016    4.6411  -15.8086 C   0  0  0  0  0  0  0  0  0  0  0  0
   -6.8547    4.8434  -14.4918 C   0  0  0  0  0  0  0  0  0  0  0  0
   -5.7301    4.5529  -14.1338 O   0  0  0  0  0  0  0  0  0  0  0  0
   -7.7016    5.4511  -13.6287 O   0  0  0  0  0  0  0  0  0  0  0  0
   -6.7472    4.7199  -16.9808 C   0  0  0  0  0  0  0  0  0  0  0  0
   -5.4224    5.0112  -16.9907 N   0  0  0  0  0  0  0  0  0  0  0  0
  1  2  3  0
  2  3  1  0
  3  4  1  0
  4  5  1  1
  4  6  1  0
  6  7  1  0
  7  8  2  0
  8  9  1  0
  9 10  2  0
 10 11  1  0
 11 12  2  0
 12 13  1  0
 13 14  2  0
 14 15  1  0
 15 16  2  0
 15 17  1  0
 14 18  1  0
 18 19  2  0
 19  7  1  0
 18 10  1  0
M  END
>  <energy_score>  (4952) 
-30.586552

>  <alias>  (4952) 
VCZIQZWUFCNSCO-UHFFFAOYSA-N-P7-P7-P91-601531

>  <HIPPO Pose ID>  (4952) 
86837

>  <smiles>  (4952) 
C#CCC(C)Nc1ccc2cccc(C(=O)O)c2n1

>  <inchikey>  (4952) 
VCZIQZWUFCNSCO-UHFFFAOYSA-N

>  <distance_score>  (4952) 
1.151954

>  <ref_mols>  (4952) 
Z1688a,Z0089a

>  <ref_pdb>  (4952) 
Z0089a

>  <HIPPO Compound ID>  (4952) 
146570

>  <name>  (4952) 
VCZIQZWUFCNSCO-UHFFFAOYSA-N-P7-P7-P91-601531

>  <inspiration_score>  (4952) 
None

$$$$
XQRYDVYKWNNFAO-UHFFFAOYSA-N-P91-P7-P91-601531
     RDKit          3D

 19 21  0  0  0  0  0  0  0  0999 V2000
   -7.5834    5.5458  -13.6676 O   0  0  0  0  0  0  0  0  0  0  0  0
   -6.8745    5.2865  -14.6295 C   0  0  0  0  0  0  0  0  0  0  0  0
   -5.5272    5.3826  -14.5715 O   0  0  0  0  0  0  0  0  0  0  0  0
   -7.4355    4.8672  -15.9446 C   0  0  0  0  0  0  0  0  0  0  0  0
   -8.7918    4.5109  -15.9710 C   0  0  0  0  0  0  0  0  0  0  0  0
   -9.4180    4.1852  -17.1690 C   0  0  0  0  0  0  0  0  0  0  0  0
   -8.6813    4.1777  -18.3396 C   0  0  0  0  0  0  0  0  0  0  0  0
   -7.3206    4.5006  -18.3068 C   0  0  0  0  0  0  0  0  0  0  0  0
   -6.5708    4.4641  -19.4731 C   0  0  0  0  0  0  0  0  0  0  0  0
   -5.2456    4.8537  -19.4642 C   0  0  0  0  0  0  0  0  0  0  0  0
   -4.6640    5.2060  -18.2673 C   0  0  0  0  0  0  0  0  0  0  0  0
   -3.3295    5.5638  -18.1570 N   0  0  0  0  0  0  0  0  0  0  0  0
   -2.3888    5.8035  -19.2523 C   0  0  0  0  0  0  0  0  0  0  0  0
   -1.6173    4.5777  -19.7326 C   0  0  0  0  0  0  0  0  0  0  0  0
   -0.2237    4.7441  -19.4976 O   0  0  0  0  0  0  0  0  0  0  0  0
   -2.6844    6.8966  -20.2630 C   0  0  0  0  0  0  0  0  0  0  0  0
   -1.6508    7.1403  -19.2197 C   0  0  0  0  0  0  0  0  0  0  0  0
   -5.3572    5.2044  -17.1074 N   0  0  0  0  0  0  0  0  0  0  0  0
   -6.6731    4.8671  -17.1141 C   0  0  0  0  0  0  0  0  0  0  0  0
  1  2  2  0
  2  3  1  0
  2  4  1  0
  4  5  2  0
  5  6  1  0
  6  7  2  0
  7  8  1  0
  8  9  2  0
  9 10  1  0
 10 11  2  0
 11 12  1  0
 12 13  1  0
 13 14  1  0
 14 15  1  0
 13 16  1  0
 16 17  1  0
 11 18  1  0
 18 19  2  0
 19  4  1  0
 19  8  1  0
 17 13  1  0
M  END
>  <energy_score>  (4953) 
-31.253181

>  <alias>  (4953) 
XQRYDVYKWNNFAO-UHFFFAOYSA-N-P91-P7-P91-601531

>  <HIPPO Pose ID>  (4953) 
86844

>  <smiles>  (4953) 
O=C(O)c1cccc2ccc(NC3(CO)CC3)nc12

>  <inchikey>  (4953) 
XQRYDVYKWNNFAO-UHFFFAOYSA-N

>  <distance_score>  (4953) 
1.50229

>  <ref_mols>  (4953) 
Z1688a,Z0089a

>  <ref_pdb>  (4953) 
Z0089a

>  <HIPPO Compound ID>  (4953) 
146573

>  <name>  (4953) 
XQRYDVYKWNNFAO-UHFFFAOYSA-N-P91-P7-P91-601531

>  <inspiration_score>  (4953) 
None

$$$$
OIDBSRVUHBPABO-UHFFFAOYSA-N-P91-P7-P91-601531
     RDKit          3D

 19 21  0  0  0  0  0  0  0  0999 V2000
    0.5246    5.4005  -18.3562 O   0  0  0  0  0  0  0  0  0  0  0  0
   -0.5712    5.5211  -18.8618 C   0  0  0  0  0  0  0  0  0  0  0  0
   -1.6088    4.5429  -19.4524 C   0  0  0  0  0  0  0  0  0  0  0  0
   -2.6082    5.7248  -19.4498 C   0  0  0  0  0  0  0  0  0  0  0  0
   -3.5548    5.6366  -18.3940 N   0  0  0  0  0  0  0  0  0  0  0  0
   -4.8645    5.1787  -18.4045 C   0  0  0  0  0  0  0  0  0  0  0  0
   -5.5040    4.8191  -19.5674 C   0  0  0  0  0  0  0  0  0  0  0  0
   -6.8158    4.4027  -19.5008 C   0  0  0  0  0  0  0  0  0  0  0  0
   -7.4974    4.4472  -18.3015 C   0  0  0  0  0  0  0  0  0  0  0  0
   -8.8620    4.1589  -18.3003 C   0  0  0  0  0  0  0  0  0  0  0  0
   -9.5544    4.1450  -17.1073 C   0  0  0  0  0  0  0  0  0  0  0  0
   -8.8688    4.3707  -15.9219 C   0  0  0  0  0  0  0  0  0  0  0  0
   -7.4999    4.6664  -15.9478 C   0  0  0  0  0  0  0  0  0  0  0  0
   -6.8253    4.8352  -14.6557 C   0  0  0  0  0  0  0  0  0  0  0  0
   -6.3889    5.8959  -14.2459 O   0  0  0  0  0  0  0  0  0  0  0  0
   -6.8261    3.6821  -13.9445 O   0  0  0  0  0  0  0  0  0  0  0  0
   -6.7811    4.7691  -17.1367 C   0  0  0  0  0  0  0  0  0  0  0  0
   -5.4716    5.1185  -17.2037 N   0  0  0  0  0  0  0  0  0  0  0  0
   -1.4801    6.7322  -19.1201 C   0  0  0  0  0  0  0  0  0  0  0  0
  1  2  2  0
  2  3  1  0
  3  4  1  0
  4  5  1  0
  5  6  1  0
  6  7  2  0
  7  8  1  0
  8  9  2  0
  9 10  1  0
 10 11  2  0
 11 12  1  0
 12 13  2  0
 13 14  1  0
 14 15  2  0
 14 16  1  0
 13 17  1  0
 17 18  2  0
  4 19  1  0
 19  2  1  0
 18  6  1  0
 17  9  1  0
M  END
>  <energy_score>  (4954) 
-17.266341

>  <alias>  (4954) 
OIDBSRVUHBPABO-UHFFFAOYSA-N-P91-P7-P91-601531

>  <HIPPO Pose ID>  (4954) 
86846

>  <smiles>  (4954) 
O=C1CC(Nc2ccc3cccc(C(=O)O)c3n2)C1

>  <inchikey>  (4954) 
OIDBSRVUHBPABO-UHFFFAOYSA-N

>  <distance_score>  (4954) 
1.10296

>  <ref_mols>  (4954) 
Z1688a,Z0089a

>  <ref_pdb>  (4954) 
Z0089a

>  <HIPPO Compound ID>  (4954) 
146574

>  <name>  (4954) 
OIDBSRVUHBPABO-UHFFFAOYSA-N-P91-P7-P91-601531

>  <inspiration_score>  (4954) 
None

$$$$
OINXHEHMKUJNAC-UHFFFAOYSA-N-P7-P7-P91-601531
     RDKit          3D

 19 20  0  0  0  0  0  0  0  0999 V2000
   -1.6601    3.5523  -19.5955 C   0  0  0  0  0  0  0  0  0  0  0  0
   -1.4086    4.9554  -19.1227 C   0  0  0  0  0  0  0  0  0  0  0  0
   -0.2725    5.3544  -18.8653 O   0  0  0  0  0  0  0  0  0  0  0  0
   -2.6480    5.8476  -19.0200 C   0  0  2  0  0  0  0  0  0  0  0  0
   -2.2835    7.2768  -18.6527 C   0  0  0  0  0  0  0  0  0  0  0  0
   -3.5256    5.2881  -18.0082 N   0  0  0  0  0  0  0  0  0  0  0  0
   -4.8653    5.0605  -18.1493 C   0  0  0  0  0  0  0  0  0  0  0  0
   -5.4629    4.8429  -19.3637 C   0  0  0  0  0  0  0  0  0  0  0  0
   -6.8005    4.5113  -19.4207 C   0  0  0  0  0  0  0  0  0  0  0  0
   -7.5480    4.4645  -18.2616 C   0  0  0  0  0  0  0  0  0  0  0  0
   -8.9185    4.1953  -18.3402 C   0  0  0  0  0  0  0  0  0  0  0  0
   -9.6623    4.1004  -17.1786 C   0  0  0  0  0  0  0  0  0  0  0  0
   -9.0230    4.2316  -15.9522 C   0  0  0  0  0  0  0  0  0  0  0  0
   -7.6506    4.4977  -15.8983 C   0  0  0  0  0  0  0  0  0  0  0  0
   -7.0221    4.5563  -14.5750 C   0  0  0  0  0  0  0  0  0  0  0  0
   -6.6923    5.5926  -14.0263 O   0  0  0  0  0  0  0  0  0  0  0  0
   -6.9278    3.3262  -14.0188 O   0  0  0  0  0  0  0  0  0  0  0  0
   -6.8786    4.6654  -17.0415 C   0  0  0  0  0  0  0  0  0  0  0  0
   -5.5543    4.9557  -17.0032 N   0  0  0  0  0  0  0  0  0  0  0  0
  1  2  1  0
  2  3  2  0
  2  4  1  0
  4  5  1  1
  4  6  1  0
  6  7  1  0
  7  8  2  0
  8  9  1  0
  9 10  2  0
 10 11  1  0
 11 12  2  0
 12 13  1  0
 13 14  2  0
 14 15  1  0
 15 16  2  0
 15 17  1  0
 14 18  1  0
 18 19  2  0
 19  7  1  0
 18 10  1  0
M  END
>  <energy_score>  (4955) 
-25.672686

>  <alias>  (4955) 
OINXHEHMKUJNAC-UHFFFAOYSA-N-P7-P7-P91-601531

>  <HIPPO Pose ID>  (4955) 
86851

>  <smiles>  (4955) 
CC(=O)C(C)Nc1ccc2cccc(C(=O)O)c2n1

>  <inchikey>  (4955) 
OINXHEHMKUJNAC-UHFFFAOYSA-N

>  <distance_score>  (4955) 
1.12778

>  <ref_mols>  (4955) 
Z1688a,Z0089a

>  <ref_pdb>  (4955) 
Z0089a

>  <HIPPO Compound ID>  (4955) 
146577

>  <name>  (4955) 
OINXHEHMKUJNAC-UHFFFAOYSA-N-P7-P7-P91-601531

>  <inspiration_score>  (4955) 
None

$$$$
YRMOALPWBJWHQO-UHFFFAOYSA-N-P7-P7-P91-601531
     RDKit          3D

 19 21  0  0  0  0  0  0  0  0999 V2000
   -5.7450    4.5449  -14.1427 O   0  0  0  0  0  0  0  0  0  0  0  0
   -6.8629    4.8507  -14.5089 C   0  0  0  0  0  0  0  0  0  0  0  0
   -7.7105    5.4698  -13.6550 O   0  0  0  0  0  0  0  0  0  0  0  0
   -7.5007    4.6503  -15.8294 C   0  0  0  0  0  0  0  0  0  0  0  0
   -8.8715    4.3436  -15.8722 C   0  0  0  0  0  0  0  0  0  0  0  0
   -9.5167    4.1370  -17.0859 C   0  0  0  0  0  0  0  0  0  0  0  0
   -8.7866    4.2020  -18.2574 C   0  0  0  0  0  0  0  0  0  0  0  0
   -7.4180    4.4903  -18.2072 C   0  0  0  0  0  0  0  0  0  0  0  0
   -6.6910    4.5125  -19.3834 C   0  0  0  0  0  0  0  0  0  0  0  0
   -5.3477    4.8196  -19.3531 C   0  0  0  0  0  0  0  0  0  0  0  0
   -4.7399    5.0847  -18.1525 C   0  0  0  0  0  0  0  0  0  0  0  0
   -3.3876    5.2990  -18.0413 N   0  0  0  0  0  0  0  0  0  0  0  0
   -2.6104    5.9343  -19.0755 C   0  0  0  0  0  0  0  0  0  0  0  0
   -1.6054    4.9521  -19.6736 C   0  0  0  0  0  0  0  0  0  0  0  0
   -0.4368    5.8129  -20.1560 C   0  0  0  0  0  0  0  0  0  0  0  0
   -0.6696    7.2124  -19.5929 C   0  0  0  0  0  0  0  0  0  0  0  0
   -1.7157    7.0276  -18.5059 C   0  0  0  0  0  0  0  0  0  0  0  0
   -5.4224    5.0667  -16.9969 N   0  0  0  0  0  0  0  0  0  0  0  0
   -6.7398    4.7445  -16.9964 C   0  0  0  0  0  0  0  0  0  0  0  0
  1  2  2  0
  2  3  1  0
  2  4  1  0
  4  5  2  0
  5  6  1  0
  6  7  2  0
  7  8  1  0
  8  9  2  0
  9 10  1  0
 10 11  2  0
 11 12  1  0
 12 13  1  0
 13 14  1  0
 14 15  1  0
 15 16  1  0
 16 17  1  0
 11 18  1  0
 18 19  2  0
 19  4  1  0
 19  8  1  0
 17 13  1  0
M  END
>  <energy_score>  (4956) 
-35.694469

>  <alias>  (4956) 
YRMOALPWBJWHQO-UHFFFAOYSA-N-P7-P7-P91-601531

>  <HIPPO Pose ID>  (4956) 
86859

>  <smiles>  (4956) 
O=C(O)c1cccc2ccc(NC3CCCC3)nc12

>  <inchikey>  (4956) 
YRMOALPWBJWHQO-UHFFFAOYSA-N

>  <distance_score>  (4956) 
1.148425

>  <ref_mols>  (4956) 
Z1688a,Z0089a

>  <ref_pdb>  (4956) 
Z0089a

>  <HIPPO Compound ID>  (4956) 
146581

>  <name>  (4956) 
YRMOALPWBJWHQO-UHFFFAOYSA-N-P7-P7-P91-601531

>  <inspiration_score>  (4956) 
None

$$$$
IDZZLSNIDGCZQR-UHFFFAOYSA-N-P91-P7-P91-601531
     RDKit          3D

 19 20  0  0  0  0  0  0  0  0999 V2000
   -1.2555    5.4507  -21.4234 C   0  0  0  0  0  0  0  0  0  0  0  0
   -2.0293    4.8979  -20.2311 C   0  0  0  0  0  0  0  0  0  0  0  0
   -2.6395    5.9702  -19.2927 C   0  0  0  0  0  0  0  0  0  0  0  0
   -1.5005    6.6636  -18.5200 C   0  0  0  0  0  0  0  0  0  0  0  0
   -3.4055    7.0830  -20.0333 C   0  0  0  0  0  0  0  0  0  0  0  0
   -3.4661    5.2939  -18.2904 N   0  0  0  0  0  0  0  0  0  0  0  0
   -4.8090    5.0318  -18.3682 C   0  0  0  0  0  0  0  0  0  0  0  0
   -5.4600    4.7005  -19.5318 C   0  0  0  0  0  0  0  0  0  0  0  0
   -6.7977    4.3777  -19.4876 C   0  0  0  0  0  0  0  0  0  0  0  0
   -7.4858    4.4486  -18.2955 C   0  0  0  0  0  0  0  0  0  0  0  0
   -8.8577    4.1901  -18.2946 C   0  0  0  0  0  0  0  0  0  0  0  0
   -9.5516    4.1803  -17.1020 C   0  0  0  0  0  0  0  0  0  0  0  0
   -8.8656    4.4015  -15.9160 C   0  0  0  0  0  0  0  0  0  0  0  0
   -7.4927    4.6769  -15.9411 C   0  0  0  0  0  0  0  0  0  0  0  0
   -6.8187    4.8534  -14.6503 C   0  0  0  0  0  0  0  0  0  0  0  0
   -6.4033    5.9226  -14.2397 O   0  0  0  0  0  0  0  0  0  0  0  0
   -6.8023    3.7007  -13.9399 O   0  0  0  0  0  0  0  0  0  0  0  0
   -6.7667    4.7483  -17.1272 C   0  0  0  0  0  0  0  0  0  0  0  0
   -5.4441    5.0373  -17.1811 N   0  0  0  0  0  0  0  0  0  0  0  0
  1  2  1  0
  2  3  1  0
  3  4  1  0
  3  5  1  0
  3  6  1  0
  6  7  1  0
  7  8  2  0
  8  9  1  0
  9 10  2  0
 10 11  1  0
 11 12  2  0
 12 13  1  0
 13 14  2  0
 14 15  1  0
 15 16  2  0
 15 17  1  0
 14 18  1  0
 18 19  2  0
 19  7  1  0
 18 10  1  0
M  END
>  <energy_score>  (4957) 
-35.291356

>  <alias>  (4957) 
IDZZLSNIDGCZQR-UHFFFAOYSA-N-P91-P7-P91-601531

>  <HIPPO Pose ID>  (4957) 
86862

>  <smiles>  (4957) 
CCC(C)(C)Nc1ccc2cccc(C(=O)O)c2n1

>  <inchikey>  (4957) 
IDZZLSNIDGCZQR-UHFFFAOYSA-N

>  <distance_score>  (4957) 
1.124427

>  <ref_mols>  (4957) 
Z1688a,Z0089a

>  <ref_pdb>  (4957) 
Z0089a

>  <HIPPO Compound ID>  (4957) 
146582

>  <name>  (4957) 
IDZZLSNIDGCZQR-UHFFFAOYSA-N-P91-P7-P91-601531

>  <inspiration_score>  (4957) 
None

$$$$
KGOYYKIMGUKNRO-UHFFFAOYSA-N-P7-P7-P91-601531
     RDKit          3D

 19 21  0  0  0  0  0  0  0  0999 V2000
   -2.5207    7.7599  -20.9559 C   0  0  0  0  0  0  0  0  0  0  0  0
   -2.7369    6.3806  -20.4282 C   0  0  1  0  0  0  0  0  0  0  0  0
   -1.5642    5.5552  -19.9836 C   0  0  0  0  0  0  0  0  0  0  0  0
   -2.5833    6.0286  -18.9575 C   0  0  1  0  0  0  0  0  0  0  0  0
   -2.1684    7.1231  -18.0119 C   0  0  0  0  0  0  0  0  0  0  0  0
   -3.3554    4.9545  -18.2888 N   0  0  0  0  0  0  0  0  0  0  0  0
   -4.7611    4.9882  -18.2375 C   0  0  0  0  0  0  0  0  0  0  0  0
   -5.4717    4.6998  -19.3774 C   0  0  0  0  0  0  0  0  0  0  0  0
   -6.8243    4.4554  -19.3192 C   0  0  0  0  0  0  0  0  0  0  0  0
   -7.4616    4.5049  -18.0998 C   0  0  0  0  0  0  0  0  0  0  0  0
   -8.8203    4.2009  -18.0410 C   0  0  0  0  0  0  0  0  0  0  0  0
   -9.4528    4.1857  -16.8150 C   0  0  0  0  0  0  0  0  0  0  0  0
   -8.7363    4.5010  -15.6637 C   0  0  0  0  0  0  0  0  0  0  0  0
   -7.3738    4.8377  -15.7336 C   0  0  0  0  0  0  0  0  0  0  0  0
   -6.7021    5.2264  -14.4615 C   0  0  0  0  0  0  0  0  0  0  0  0
   -7.3283    5.4197  -13.4293 O   0  0  0  0  0  0  0  0  0  0  0  0
   -5.3602    5.3771  -14.5202 O   0  0  0  0  0  0  0  0  0  0  0  0
   -6.7006    4.8245  -16.9543 C   0  0  0  0  0  0  0  0  0  0  0  0
   -5.3647    5.0739  -17.0381 N   0  0  0  0  0  0  0  0  0  0  0  0
  2  1  1  1
  2  3  1  0
  3  4  1  0
  4  5  1  1
  4  6  1  0
  6  7  1  0
  7  8  2  0
  8  9  1  0
  9 10  2  0
 10 11  1  0
 11 12  2  0
 12 13  1  0
 13 14  2  0
 14 15  1  0
 15 16  2  0
 15 17  1  0
 14 18  1  0
 18 19  2  0
  4  2  1  0
 19  7  1  0
 18 10  1  0
M  END
>  <energy_score>  (4958) 
-25.186777

>  <alias>  (4958) 
KGOYYKIMGUKNRO-UHFFFAOYSA-N-P7-P7-P91-601531

>  <HIPPO Pose ID>  (4958) 
86867

>  <smiles>  (4958) 
CC1CC1(C)Nc1ccc2cccc(C(=O)O)c2n1

>  <inchikey>  (4958) 
KGOYYKIMGUKNRO-UHFFFAOYSA-N

>  <distance_score>  (4958) 
1.321541

>  <ref_mols>  (4958) 
Z1688a,Z0089a

>  <ref_pdb>  (4958) 
Z0089a

>  <HIPPO Compound ID>  (4958) 
146585

>  <name>  (4958) 
KGOYYKIMGUKNRO-UHFFFAOYSA-N-P7-P7-P91-601531

>  <inspiration_score>  (4958) 
None

$$$$
BNPIWJBMTWSYNL-UHFFFAOYSA-N-P91-P7-P91-601531
     RDKit          3D

 19 20  0  0  0  0  0  0  0  0999 V2000
   -1.3711    3.7459  -19.4705 C   0  0  0  0  0  0  0  0  0  0  0  0
   -2.2644    4.8088  -20.0499 C   0  0  0  0  0  0  0  0  0  0  0  0
   -2.7854    5.7585  -18.9632 C   0  0  1  0  0  0  0  0  0  0  0  0
   -1.8045    6.9075  -18.7136 C   0  0  0  0  0  0  0  0  0  0  0  0
   -1.5353    7.5619  -19.8797 F   0  0  0  0  0  0  0  0  0  0  0  0
   -4.0604    6.3135  -19.4051 N   0  0  0  0  0  0  0  0  0  0  0  0
   -5.1706    5.6167  -18.9355 C   0  0  0  0  0  0  0  0  0  0  0  0
   -5.9457    4.9074  -19.8291 C   0  0  0  0  0  0  0  0  0  0  0  0
   -7.1101    4.3109  -19.3934 C   0  0  0  0  0  0  0  0  0  0  0  0
   -7.4875    4.4655  -18.0765 C   0  0  0  0  0  0  0  0  0  0  0  0
   -8.7382    3.9965  -17.6857 C   0  0  0  0  0  0  0  0  0  0  0  0
   -9.1206    4.1153  -16.3650 C   0  0  0  0  0  0  0  0  0  0  0  0
   -8.2661    4.6893  -15.4360 C   0  0  0  0  0  0  0  0  0  0  0  0
   -7.0192    5.1699  -15.8519 C   0  0  0  0  0  0  0  0  0  0  0  0
   -6.1835    5.8245  -14.8429 C   0  0  0  0  0  0  0  0  0  0  0  0
   -6.5191    6.7786  -14.1631 O   0  0  0  0  0  0  0  0  0  0  0  0
   -5.0084    5.1957  -14.6631 O   0  0  0  0  0  0  0  0  0  0  0  0
   -6.6049    5.1054  -17.1816 C   0  0  0  0  0  0  0  0  0  0  0  0
   -5.4516    5.6631  -17.6215 N   0  0  0  0  0  0  0  0  0  0  0  0
  1  2  1  0
  3  2  1  6
  3  4  1  0
  4  5  1  0
  3  6  1  0
  6  7  1  0
  7  8  2  0
  8  9  1  0
  9 10  2  0
 10 11  1  0
 11 12  2  0
 12 13  1  0
 13 14  2  0
 14 15  1  0
 15 16  2  0
 15 17  1  0
 14 18  1  0
 18 19  2  0
 19  7  1  0
 18 10  1  0
M  END
>  <energy_score>  (4959) 
-32.453865

>  <alias>  (4959) 
BNPIWJBMTWSYNL-UHFFFAOYSA-N-P91-P7-P91-601531

>  <HIPPO Pose ID>  (4959) 
86874

>  <smiles>  (4959) 
CCC(CF)Nc1ccc2cccc(C(=O)O)c2n1

>  <inchikey>  (4959) 
BNPIWJBMTWSYNL-UHFFFAOYSA-N

>  <distance_score>  (4959) 
1.425689

>  <ref_mols>  (4959) 
Z1688a,Z0089a

>  <ref_pdb>  (4959) 
Z0089a

>  <HIPPO Compound ID>  (4959) 
146588

>  <name>  (4959) 
BNPIWJBMTWSYNL-UHFFFAOYSA-N-P91-P7-P91-601531

>  <inspiration_score>  (4959) 
None

$$$$
PACPSDKTTYWMCE-UHFFFAOYSA-N-P7-P7-P91-601531
     RDKit          3D

 19 21  0  0  0  0  0  0  0  0999 V2000
   -5.7065    4.3305  -14.1550 O   0  0  0  0  0  0  0  0  0  0  0  0
   -6.8211    4.6738  -14.4981 C   0  0  0  0  0  0  0  0  0  0  0  0
   -7.6546    5.2651  -13.6124 O   0  0  0  0  0  0  0  0  0  0  0  0
   -7.4639    4.5508  -15.8258 C   0  0  0  0  0  0  0  0  0  0  0  0
   -8.8436    4.2875  -15.8839 C   0  0  0  0  0  0  0  0  0  0  0  0
   -9.4879    4.1367  -17.1061 C   0  0  0  0  0  0  0  0  0  0  0  0
   -8.7516    4.2318  -18.2725 C   0  0  0  0  0  0  0  0  0  0  0  0
   -7.3781    4.4975  -18.2090 C   0  0  0  0  0  0  0  0  0  0  0  0
   -6.6509    4.5863  -19.3840 C   0  0  0  0  0  0  0  0  0  0  0  0
   -5.3109    4.9062  -19.3479 C   0  0  0  0  0  0  0  0  0  0  0  0
   -4.6973    5.0506  -18.1313 C   0  0  0  0  0  0  0  0  0  0  0  0
   -3.3121    5.2234  -18.0286 N   0  0  0  0  0  0  0  0  0  0  0  0
   -2.5554    6.1835  -18.7627 C   0  0  1  0  0  0  0  0  0  0  0  0
   -1.0450    6.0576  -18.4583 C   0  0  0  0  0  0  0  0  0  0  0  0
   -0.7749    6.2833  -19.9600 C   0  0  2  0  0  0  0  0  0  0  0  0
   -0.4419    8.1245  -20.4907 Br  0  0  0  0  0  0  0  0  0  0  0  0
   -2.2122    5.7741  -20.2051 C   0  0  0  0  0  0  0  0  0  0  0  0
   -5.3686    4.9530  -16.9723 N   0  0  0  0  0  0  0  0  0  0  0  0
   -6.6965    4.6744  -16.9868 C   0  0  0  0  0  0  0  0  0  0  0  0
  1  2  2  0
  2  3  1  0
  2  4  1  0
  4  5  2  0
  5  6  1  0
  6  7  2  0
  7  8  1  0
  8  9  2  0
  9 10  1  0
 10 11  2  0
 11 12  1  0
 13 12  1  1
 13 14  1  0
 14 15  1  0
 15 16  1  1
 15 17  1  0
 11 18  1  0
 18 19  2  0
 19  4  1  0
 19  8  1  0
 17 13  1  0
M  END
>  <energy_score>  (4960) 
-36.465183

>  <alias>  (4960) 
PACPSDKTTYWMCE-UHFFFAOYSA-N-P7-P7-P91-601531

>  <HIPPO Pose ID>  (4960) 
86875

>  <smiles>  (4960) 
O=C(O)c1cccc2ccc(NC3CC(Br)C3)nc12

>  <inchikey>  (4960) 
PACPSDKTTYWMCE-UHFFFAOYSA-N

>  <distance_score>  (4960) 
1.336119

>  <ref_mols>  (4960) 
Z1688a,Z0089a

>  <ref_pdb>  (4960) 
Z0089a

>  <HIPPO Compound ID>  (4960) 
146589

>  <name>  (4960) 
PACPSDKTTYWMCE-UHFFFAOYSA-N-P7-P7-P91-601531

>  <inspiration_score>  (4960) 
None

$$$$
SPOUBUCYKRSJFI-UHFFFAOYSA-N-P7-P7-P91-601531
     RDKit          3D

 19 21  0  0  0  0  0  0  0  0999 V2000
   -6.9271    5.5196  -14.0116 O   0  0  0  0  0  0  0  0  0  0  0  0
   -7.1745    4.4846  -14.6055 C   0  0  0  0  0  0  0  0  0  0  0  0
   -7.0580    3.2462  -14.0743 O   0  0  0  0  0  0  0  0  0  0  0  0
   -7.7231    4.4408  -15.9646 C   0  0  0  0  0  0  0  0  0  0  0  0
   -9.0873    4.1688  -16.1034 C   0  0  0  0  0  0  0  0  0  0  0  0
   -9.6574    4.0727  -17.3659 C   0  0  0  0  0  0  0  0  0  0  0  0
   -8.8479    4.2138  -18.4808 C   0  0  0  0  0  0  0  0  0  0  0  0
   -7.4832    4.4949  -18.3214 C   0  0  0  0  0  0  0  0  0  0  0  0
   -6.6636    4.6135  -19.4325 C   0  0  0  0  0  0  0  0  0  0  0  0
   -5.3358    4.9704  -19.2898 C   0  0  0  0  0  0  0  0  0  0  0  0
   -4.8215    5.1149  -18.0257 C   0  0  0  0  0  0  0  0  0  0  0  0
   -3.4768    5.3707  -17.7765 N   0  0  0  0  0  0  0  0  0  0  0  0
   -2.5892    6.1842  -18.6234 C   0  0  0  0  0  0  0  0  0  0  0  0
   -1.9492    5.5231  -19.8229 C   0  0  0  0  0  0  0  0  0  0  0  0
   -1.6702    3.6406  -19.5904 Br  0  0  0  0  0  0  0  0  0  0  0  0
   -2.8849    7.6629  -18.7617 C   0  0  0  0  0  0  0  0  0  0  0  0
   -1.7443    7.2246  -17.9015 C   0  0  0  0  0  0  0  0  0  0  0  0
   -5.5781    4.9453  -16.9259 N   0  0  0  0  0  0  0  0  0  0  0  0
   -6.8909    4.6492  -17.0570 C   0  0  0  0  0  0  0  0  0  0  0  0
  1  2  2  0
  2  3  1  0
  2  4  1  0
  4  5  2  0
  5  6  1  0
  6  7  2  0
  7  8  1  0
  8  9  2  0
  9 10  1  0
 10 11  2  0
 11 12  1  0
 12 13  1  0
 13 14  1  0
 14 15  1  0
 13 16  1  0
 16 17  1  0
 11 18  1  0
 18 19  2  0
 19  4  1  0
 19  8  1  0
 17 13  1  0
M  END
>  <energy_score>  (4961) 
-18.393154

>  <alias>  (4961) 
SPOUBUCYKRSJFI-UHFFFAOYSA-N-P7-P7-P91-601531

>  <HIPPO Pose ID>  (4961) 
86887

>  <smiles>  (4961) 
O=C(O)c1cccc2ccc(NC3(CBr)CC3)nc12

>  <inchikey>  (4961) 
SPOUBUCYKRSJFI-UHFFFAOYSA-N

>  <distance_score>  (4961) 
1.37106

>  <ref_mols>  (4961) 
Z1688a,Z0089a

>  <ref_pdb>  (4961) 
Z0089a

>  <HIPPO Compound ID>  (4961) 
146595

>  <name>  (4961) 
SPOUBUCYKRSJFI-UHFFFAOYSA-N-P7-P7-P91-601531

>  <inspiration_score>  (4961) 
None

$$$$
MGYIHGZLNNUXPX-UHFFFAOYSA-N-P7-P7-P91-601531
     RDKit          3D

 19 20  0  0  0  0  0  0  0  0999 V2000
   -1.7247    3.7617  -19.6321 C   0  0  0  0  0  0  0  0  0  0  0  0
   -1.4749    5.2281  -19.3297 C   0  0  1  0  0  0  0  0  0  0  0  0
   -0.5665    6.0249  -20.8930 Br  0  0  0  0  0  0  0  0  0  0  0  0
   -2.7659    6.0222  -19.0556 C   0  0  2  0  0  0  0  0  0  0  0  0
   -2.4731    7.4414  -18.5645 C   0  0  0  0  0  0  0  0  0  0  0  0
   -3.5353    5.3454  -18.0244 N   0  0  0  0  0  0  0  0  0  0  0  0
   -4.8848    5.1162  -18.1404 C   0  0  0  0  0  0  0  0  0  0  0  0
   -5.4811    4.7955  -19.3340 C   0  0  0  0  0  0  0  0  0  0  0  0
   -6.8198    4.4727  -19.3642 C   0  0  0  0  0  0  0  0  0  0  0  0
   -7.5474    4.4796  -18.1909 C   0  0  0  0  0  0  0  0  0  0  0  0
   -8.9057    4.1679  -18.2461 C   0  0  0  0  0  0  0  0  0  0  0  0
   -9.6325    4.1136  -17.0749 C   0  0  0  0  0  0  0  0  0  0  0  0
   -8.9925    4.3523  -15.8627 C   0  0  0  0  0  0  0  0  0  0  0  0
   -7.6337    4.6976  -15.8183 C   0  0  0  0  0  0  0  0  0  0  0  0
   -7.0099    4.9566  -14.5006 C   0  0  0  0  0  0  0  0  0  0  0  0
   -5.8789    4.7203  -14.1234 O   0  0  0  0  0  0  0  0  0  0  0  0
   -7.8886    5.5530  -13.6610 O   0  0  0  0  0  0  0  0  0  0  0  0
   -6.8771    4.7808  -16.9849 C   0  0  0  0  0  0  0  0  0  0  0  0
   -5.5688    5.1292  -16.9880 N   0  0  0  0  0  0  0  0  0  0  0  0
  2  1  1  6
  2  3  1  0
  2  4  1  0
  4  5  1  1
  4  6  1  0
  6  7  1  0
  7  8  2  0
  8  9  1  0
  9 10  2  0
 10 11  1  0
 11 12  2  0
 12 13  1  0
 13 14  2  0
 14 15  1  0
 15 16  2  0
 15 17  1  0
 14 18  1  0
 18 19  2  0
 19  7  1  0
 18 10  1  0
M  END
>  <energy_score>  (4962) 
-35.90381

>  <alias>  (4962) 
MGYIHGZLNNUXPX-UHFFFAOYSA-N-P7-P7-P91-601531

>  <HIPPO Pose ID>  (4962) 
86893

>  <smiles>  (4962) 
CC(Br)C(C)Nc1ccc2cccc(C(=O)O)c2n1

>  <inchikey>  (4962) 
MGYIHGZLNNUXPX-UHFFFAOYSA-N

>  <distance_score>  (4962) 
1.126108

>  <ref_mols>  (4962) 
Z1688a,Z0089a

>  <ref_pdb>  (4962) 
Z0089a

>  <HIPPO Compound ID>  (4962) 
146598

>  <name>  (4962) 
MGYIHGZLNNUXPX-UHFFFAOYSA-N-P7-P7-P91-601531

>  <inspiration_score>  (4962) 
None

$$$$
MWKVNESHVLMOPP-UHFFFAOYSA-N-P7-P7-P91-601531
     RDKit          3D

 19 21  0  0  0  0  0  0  0  0999 V2000
    0.7841    5.7848  -19.2476 C   0  0  0  0  0  0  0  0  0  0  0  0
   -0.5490    5.8333  -19.1873 C   0  0  0  0  0  0  0  0  0  0  0  0
   -1.6260    4.7939  -19.4173 C   0  0  0  0  0  0  0  0  0  0  0  0
   -2.6228    5.9595  -19.2469 C   0  0  0  0  0  0  0  0  0  0  0  0
   -3.5460    5.7559  -18.1785 N   0  0  0  0  0  0  0  0  0  0  0  0
   -4.8460    5.2790  -18.2104 C   0  0  0  0  0  0  0  0  0  0  0  0
   -5.4572    4.9402  -19.3904 C   0  0  0  0  0  0  0  0  0  0  0  0
   -6.7630    4.4985  -19.3823 C   0  0  0  0  0  0  0  0  0  0  0  0
   -7.4687    4.4739  -18.1946 C   0  0  0  0  0  0  0  0  0  0  0  0
   -8.8218    4.1274  -18.2062 C   0  0  0  0  0  0  0  0  0  0  0  0
   -9.5267    4.1002  -17.0184 C   0  0  0  0  0  0  0  0  0  0  0  0
   -8.8746    4.4022  -15.8270 C   0  0  0  0  0  0  0  0  0  0  0  0
   -7.5220    4.7738  -15.8218 C   0  0  0  0  0  0  0  0  0  0  0  0
   -6.9373    5.1771  -14.5117 C   0  0  0  0  0  0  0  0  0  0  0  0
   -7.6268    5.3881  -13.5247 O   0  0  0  0  0  0  0  0  0  0  0  0
   -5.5926    5.3153  -14.4878 O   0  0  0  0  0  0  0  0  0  0  0  0
   -6.7907    4.8192  -17.0087 C   0  0  0  0  0  0  0  0  0  0  0  0
   -5.4851    5.1999  -17.0277 N   0  0  0  0  0  0  0  0  0  0  0  0
   -1.5059    6.9496  -18.8517 C   0  0  0  0  0  0  0  0  0  0  0  0
  1  2  2  0
  2  3  1  0
  3  4  1  0
  4  5  1  0
  5  6  1  0
  6  7  2  0
  7  8  1  0
  8  9  2  0
  9 10  1  0
 10 11  2  0
 11 12  1  0
 12 13  2  0
 13 14  1  0
 14 15  2  0
 14 16  1  0
 13 17  1  0
 17 18  2  0
  4 19  1  0
 19  2  1  0
 18  6  1  0
 17  9  1  0
M  END
>  <energy_score>  (4963) 
-38.504811

>  <alias>  (4963) 
MWKVNESHVLMOPP-UHFFFAOYSA-N-P7-P7-P91-601531

>  <HIPPO Pose ID>  (4963) 
86895

>  <smiles>  (4963) 
C=C1CC(Nc2ccc3cccc(C(=O)O)c3n2)C1

>  <inchikey>  (4963) 
MWKVNESHVLMOPP-UHFFFAOYSA-N

>  <distance_score>  (4963) 
1.194818

>  <ref_mols>  (4963) 
Z1688a,Z0089a

>  <ref_pdb>  (4963) 
Z0089a

>  <HIPPO Compound ID>  (4963) 
146599

>  <name>  (4963) 
MWKVNESHVLMOPP-UHFFFAOYSA-N-P7-P7-P91-601531

>  <inspiration_score>  (4963) 
None

$$$$
FYLOEXXGBDBPQG-UHFFFAOYSA-N-P91-P7-P91-601531
     RDKit          3D

 19 20  0  0  0  0  0  0  0  0999 V2000
   -1.4592    4.6384  -19.4575 C   0  0  0  0  0  0  0  0  0  0  0  0
   -2.6578    5.3844  -18.8684 C   0  0  1  0  0  0  0  0  0  0  0  0
   -2.4427    6.8987  -18.7915 C   0  0  0  0  0  0  0  0  0  0  0  0
   -2.1100    7.5710  -20.1105 C   0  0  0  0  0  0  0  0  0  0  0  0
   -1.9621    8.9076  -19.8891 F   0  0  0  0  0  0  0  0  0  0  0  0
   -3.8162    5.0476  -19.6761 N   0  0  0  0  0  0  0  0  0  0  0  0
   -5.0755    4.9805  -19.0853 C   0  0  0  0  0  0  0  0  0  0  0  0
   -6.1086    4.5140  -19.8782 C   0  0  0  0  0  0  0  0  0  0  0  0
   -7.3495    4.2582  -19.3327 C   0  0  0  0  0  0  0  0  0  0  0  0
   -7.5382    4.4704  -17.9869 C   0  0  0  0  0  0  0  0  0  0  0  0
   -8.7804    4.1636  -17.4447 C   0  0  0  0  0  0  0  0  0  0  0  0
   -8.9612    4.2895  -16.0822 C   0  0  0  0  0  0  0  0  0  0  0  0
   -7.9394    4.7677  -15.2761 C   0  0  0  0  0  0  0  0  0  0  0  0
   -6.7034    5.0890  -15.8490 C   0  0  0  0  0  0  0  0  0  0  0  0
   -5.6670    5.6155  -14.9596 C   0  0  0  0  0  0  0  0  0  0  0  0
   -5.7436    6.6585  -14.3343 O   0  0  0  0  0  0  0  0  0  0  0  0
   -4.6327    4.7684  -14.8198 O   0  0  0  0  0  0  0  0  0  0  0  0
   -6.4557    4.9446  -17.2119 C   0  0  0  0  0  0  0  0  0  0  0  0
   -5.2500    5.2184  -17.7743 N   0  0  0  0  0  0  0  0  0  0  0  0
  2  1  1  6
  2  3  1  0
  3  4  1  0
  4  5  1  0
  2  6  1  0
  6  7  1  0
  7  8  2  0
  8  9  1  0
  9 10  2  0
 10 11  1  0
 11 12  2  0
 12 13  1  0
 13 14  2  0
 14 15  1  0
 15 16  2  0
 15 17  1  0
 14 18  1  0
 18 19  2  0
 19  7  1  0
 18 10  1  0
M  END
>  <energy_score>  (4964) 
-41.803539

>  <alias>  (4964) 
FYLOEXXGBDBPQG-UHFFFAOYSA-N-P91-P7-P91-601531

>  <HIPPO Pose ID>  (4964) 
86902

>  <smiles>  (4964) 
CC(CCF)Nc1ccc2cccc(C(=O)O)c2n1

>  <inchikey>  (4964) 
FYLOEXXGBDBPQG-UHFFFAOYSA-N

>  <distance_score>  (4964) 
1.549427

>  <ref_mols>  (4964) 
Z1688a,Z0089a

>  <ref_pdb>  (4964) 
Z0089a

>  <HIPPO Compound ID>  (4964) 
146602

>  <name>  (4964) 
FYLOEXXGBDBPQG-UHFFFAOYSA-N-P91-P7-P91-601531

>  <inspiration_score>  (4964) 
None

$$$$
YFLIZFXGTSLGQK-UHFFFAOYSA-N-P7-P7-P91-601531
     RDKit          3D

 19 21  0  0  0  0  0  0  0  0999 V2000
   -7.6301    5.4944  -13.5307 O   0  0  0  0  0  0  0  0  0  0  0  0
   -6.9449    5.2755  -14.5190 C   0  0  0  0  0  0  0  0  0  0  0  0
   -5.6035    5.4415  -14.5116 O   0  0  0  0  0  0  0  0  0  0  0  0
   -7.5339    4.8336  -15.8142 C   0  0  0  0  0  0  0  0  0  0  0  0
   -8.8784    4.4343  -15.7984 C   0  0  0  0  0  0  0  0  0  0  0  0
   -9.5384    4.1015  -16.9779 C   0  0  0  0  0  0  0  0  0  0  0  0
   -8.8494    4.1194  -18.1742 C   0  0  0  0  0  0  0  0  0  0  0  0
   -7.5043    4.4872  -18.1788 C   0  0  0  0  0  0  0  0  0  0  0  0
   -6.8137    4.4931  -19.3747 C   0  0  0  0  0  0  0  0  0  0  0  0
   -5.5124    4.9493  -19.4063 C   0  0  0  0  0  0  0  0  0  0  0  0
   -4.8901    5.3278  -18.2446 C   0  0  0  0  0  0  0  0  0  0  0  0
   -3.5935    5.8258  -18.2483 N   0  0  0  0  0  0  0  0  0  0  0  0
   -2.6647    5.9203  -19.3161 C   0  0  2  0  0  0  0  0  0  0  0  0
   -1.6630    4.7504  -19.3616 C   0  0  0  0  0  0  0  0  0  0  0  0
   -0.5553    5.8009  -19.6319 C   0  0  2  0  0  0  0  0  0  0  0  0
    1.0722    5.5812  -18.9323 Cl  0  0  0  0  0  0  0  0  0  0  0  0
   -1.4797    6.8407  -18.9607 C   0  0  0  0  0  0  0  0  0  0  0  0
   -5.5163    5.2734  -17.0534 N   0  0  0  0  0  0  0  0  0  0  0  0
   -6.8166    4.8705  -17.0093 C   0  0  0  0  0  0  0  0  0  0  0  0
  1  2  2  0
  2  3  1  0
  2  4  1  0
  4  5  2  0
  5  6  1  0
  6  7  2  0
  7  8  1  0
  8  9  2  0
  9 10  1  0
 10 11  2  0
 11 12  1  0
 13 12  1  1
 13 14  1  0
 14 15  1  0
 15 16  1  1
 15 17  1  0
 11 18  1  0
 18 19  2  0
 19  4  1  0
 19  8  1  0
 17 13  1  0
M  END
>  <energy_score>  (4965) 
-38.067606

>  <alias>  (4965) 
YFLIZFXGTSLGQK-UHFFFAOYSA-N-P7-P7-P91-601531

>  <HIPPO Pose ID>  (4965) 
86905

>  <smiles>  (4965) 
O=C(O)c1cccc2ccc(NC3CC(Cl)C3)nc12

>  <inchikey>  (4965) 
YFLIZFXGTSLGQK-UHFFFAOYSA-N

>  <distance_score>  (4965) 
1.196802

>  <ref_mols>  (4965) 
Z1688a,Z0089a

>  <ref_pdb>  (4965) 
Z0089a

>  <HIPPO Compound ID>  (4965) 
146604

>  <name>  (4965) 
YFLIZFXGTSLGQK-UHFFFAOYSA-N-P7-P7-P91-601531

>  <inspiration_score>  (4965) 
None

$$$$
TZGLJRNMZSUDCG-UHFFFAOYSA-N-P91-P7-P91-601531
     RDKit          3D

 19 21  0  0  0  0  0  0  0  0999 V2000
   -6.4728    5.8890  -14.2293 O   0  0  0  0  0  0  0  0  0  0  0  0
   -6.8839    4.8238  -14.6548 C   0  0  0  0  0  0  0  0  0  0  0  0
   -6.8896    3.6684  -13.9494 O   0  0  0  0  0  0  0  0  0  0  0  0
   -7.5182    4.6566  -15.9674 C   0  0  0  0  0  0  0  0  0  0  0  0
   -8.8887    4.3725  -15.9870 C   0  0  0  0  0  0  0  0  0  0  0  0
   -9.5391    4.1661  -17.1952 C   0  0  0  0  0  0  0  0  0  0  0  0
   -8.8069    4.1931  -18.3672 C   0  0  0  0  0  0  0  0  0  0  0  0
   -7.4349    4.4637  -18.3275 C   0  0  0  0  0  0  0  0  0  0  0  0
   -6.7028    4.4255  -19.5006 C   0  0  0  0  0  0  0  0  0  0  0  0
   -5.3717    4.7794  -19.5005 C   0  0  0  0  0  0  0  0  0  0  0  0
   -4.7729    5.0976  -18.3029 C   0  0  0  0  0  0  0  0  0  0  0  0
   -3.4224    5.4136  -18.2145 N   0  0  0  0  0  0  0  0  0  0  0  0
   -2.6060    5.8276  -19.3343 C   0  0  2  0  0  0  0  0  0  0  0  0
   -1.5649    4.8982  -19.8952 C   0  0  0  0  0  0  0  0  0  0  0  0
   -1.1472    6.1229  -19.1231 C   0  0  1  0  0  0  0  0  0  0  0  0
   -0.5155    7.2830  -19.8078 C   0  0  0  0  0  0  0  0  0  0  0  0
    0.8342    7.1242  -19.7730 F   0  0  0  0  0  0  0  0  0  0  0  0
   -5.4420    5.0676  -17.1345 N   0  0  0  0  0  0  0  0  0  0  0  0
   -6.7589    4.7546  -17.1305 C   0  0  0  0  0  0  0  0  0  0  0  0
  1  2  2  0
  2  3  1  0
  2  4  1  0
  4  5  2  0
  5  6  1  0
  6  7  2  0
  7  8  1  0
  8  9  2  0
  9 10  1  0
 10 11  2  0
 11 12  1  0
 13 12  1  1
 13 14  1  0
 14 15  1  0
 15 16  1  6
 16 17  1  0
 11 18  1  0
 18 19  2  0
 19  4  1  0
 19  8  1  0
 15 13  1  0
M  END
>  <energy_score>  (4966) 
-33.943605

>  <alias>  (4966) 
TZGLJRNMZSUDCG-UHFFFAOYSA-N-P91-P7-P91-601531

>  <HIPPO Pose ID>  (4966) 
86914

>  <smiles>  (4966) 
O=C(O)c1cccc2ccc(NC3CC3CF)nc12

>  <inchikey>  (4966) 
TZGLJRNMZSUDCG-UHFFFAOYSA-N

>  <distance_score>  (4966) 
1.126569

>  <ref_mols>  (4966) 
Z1688a,Z0089a

>  <ref_pdb>  (4966) 
Z0089a

>  <HIPPO Compound ID>  (4966) 
146608

>  <name>  (4966) 
TZGLJRNMZSUDCG-UHFFFAOYSA-N-P91-P7-P91-601531

>  <inspiration_score>  (4966) 
None

$$$$
RQAQOCADVOIHNV-UHFFFAOYSA-N-P91-P7-P91-601531
     RDKit          3D

 19 20  0  0  0  0  0  0  0  0999 V2000
   -1.1318    5.7135  -20.9608 C   0  0  0  0  0  0  0  0  0  0  0  0
   -1.5126    4.8144  -19.7867 C   0  0  0  0  0  0  0  0  0  0  0  0
   -2.6743    5.3535  -18.9165 C   0  0  1  0  0  0  0  0  0  0  0  0
   -2.4420    6.7726  -18.3643 C   0  0  0  0  0  0  0  0  0  0  0  0
   -0.8741    6.8506  -16.8954 I   0  0  0  0  0  0  0  0  0  0  0  0
   -3.8853    5.3628  -19.7501 N   0  0  0  0  0  0  0  0  0  0  0  0
   -5.0819    5.0328  -19.0947 C   0  0  0  0  0  0  0  0  0  0  0  0
   -6.1365    4.6194  -19.8852 C   0  0  0  0  0  0  0  0  0  0  0  0
   -7.3537    4.3039  -19.3149 C   0  0  0  0  0  0  0  0  0  0  0  0
   -7.5125    4.4577  -17.9570 C   0  0  0  0  0  0  0  0  0  0  0  0
   -8.7552    4.1683  -17.4065 C   0  0  0  0  0  0  0  0  0  0  0  0
   -8.9134    4.2581  -16.0388 C   0  0  0  0  0  0  0  0  0  0  0  0
   -7.8555    4.6516  -15.2319 C   0  0  0  0  0  0  0  0  0  0  0  0
   -6.6144    4.9585  -15.8087 C   0  0  0  0  0  0  0  0  0  0  0  0
   -5.4936    5.3164  -14.9227 C   0  0  0  0  0  0  0  0  0  0  0  0
   -4.3642    4.8668  -14.9126 O   0  0  0  0  0  0  0  0  0  0  0  0
   -5.8759    6.2590  -14.0347 O   0  0  0  0  0  0  0  0  0  0  0  0
   -6.4059    4.8773  -17.1841 C   0  0  0  0  0  0  0  0  0  0  0  0
   -5.2176    5.1790  -17.7662 N   0  0  0  0  0  0  0  0  0  0  0  0
  1  2  1  0
  3  2  1  6
  3  4  1  0
  4  5  1  0
  3  6  1  0
  6  7  1  0
  7  8  2  0
  8  9  1  0
  9 10  2  0
 10 11  1  0
 11 12  2  0
 12 13  1  0
 13 14  2  0
 14 15  1  0
 15 16  2  0
 15 17  1  0
 14 18  1  0
 18 19  2  0
 19  7  1  0
 18 10  1  0
M  END
>  <energy_score>  (4967) 
-39.551091

>  <alias>  (4967) 
RQAQOCADVOIHNV-UHFFFAOYSA-N-P91-P7-P91-601531

>  <HIPPO Pose ID>  (4967) 
86918

>  <smiles>  (4967) 
CCC(CI)Nc1ccc2cccc(C(=O)O)c2n1

>  <inchikey>  (4967) 
RQAQOCADVOIHNV-UHFFFAOYSA-N

>  <distance_score>  (4967) 
1.742517

>  <ref_mols>  (4967) 
Z1688a,Z0089a

>  <ref_pdb>  (4967) 
Z0089a

>  <HIPPO Compound ID>  (4967) 
146610

>  <name>  (4967) 
RQAQOCADVOIHNV-UHFFFAOYSA-N-P91-P7-P91-601531

>  <inspiration_score>  (4967) 
None

$$$$
COAQXJIKIXWKKB-UHFFFAOYSA-N-P7-P7-P91-601531
     RDKit          3D

 19 22  0  0  0  0  0  0  0  0999 V2000
   -5.8979    4.6165  -14.1344 O   0  0  0  0  0  0  0  0  0  0  0  0
   -7.0215    4.8598  -14.5293 C   0  0  0  0  0  0  0  0  0  0  0  0
   -7.9286    5.4107  -13.6894 O   0  0  0  0  0  0  0  0  0  0  0  0
   -7.6061    4.6453  -15.8728 C   0  0  0  0  0  0  0  0  0  0  0  0
   -8.9634    4.2980  -15.9676 C   0  0  0  0  0  0  0  0  0  0  0  0
   -9.5634    4.0895  -17.2043 C   0  0  0  0  0  0  0  0  0  0  0  0
   -8.7943    4.1778  -18.3493 C   0  0  0  0  0  0  0  0  0  0  0  0
   -7.4381    4.5068  -18.2477 C   0  0  0  0  0  0  0  0  0  0  0  0
   -6.6695    4.5757  -19.3988 C   0  0  0  0  0  0  0  0  0  0  0  0
   -5.3510    4.9827  -19.3298 C   0  0  0  0  0  0  0  0  0  0  0  0
   -4.8019    5.2571  -18.1034 C   0  0  0  0  0  0  0  0  0  0  0  0
   -3.4870    5.6661  -17.9457 N   0  0  0  0  0  0  0  0  0  0  0  0
   -2.4361    5.6879  -18.8266 C   0  0  0  0  0  0  0  0  0  0  0  0
   -1.8036    4.5405  -19.6197 C   0  0  0  0  0  0  0  0  0  0  0  0
   -0.9046    5.7938  -19.9742 C   0  0  0  0  0  0  0  0  0  0  0  0
   -2.2718    6.5805  -20.0656 C   0  0  0  0  0  0  0  0  0  0  0  0
   -1.0005    6.1145  -18.4360 C   0  0  0  0  0  0  0  0  0  0  0  0
   -5.5162    5.1662  -16.9679 N   0  0  0  0  0  0  0  0  0  0  0  0
   -6.8134    4.7786  -17.0132 C   0  0  0  0  0  0  0  0  0  0  0  0
  1  2  2  0
  2  3  1  0
  2  4  1  0
  4  5  2  0
  5  6  1  0
  6  7  2  0
  7  8  1  0
  8  9  2  0
  9 10  1  0
 10 11  2  0
 11 12  1  0
 12 13  1  0
 13 14  1  0
 14 15  1  0
 15 16  1  0
 15 17  1  0
 11 18  1  0
 18 19  2  0
 19  4  1  0
 19  8  1  0
 16 13  1  0
 17 13  1  0
M  END
>  <energy_score>  (4968) 
-41.618499

>  <alias>  (4968) 
COAQXJIKIXWKKB-UHFFFAOYSA-N-P7-P7-P91-601531

>  <HIPPO Pose ID>  (4968) 
86929

>  <smiles>  (4968) 
O=C(O)c1cccc2ccc(NC34CC(C3)C4)nc12

>  <inchikey>  (4968) 
COAQXJIKIXWKKB-UHFFFAOYSA-N

>  <distance_score>  (4968) 
1.469694

>  <ref_mols>  (4968) 
Z1688a,Z0089a

>  <ref_pdb>  (4968) 
Z0089a

>  <HIPPO Compound ID>  (4968) 
146616

>  <name>  (4968) 
COAQXJIKIXWKKB-UHFFFAOYSA-N-P7-P7-P91-601531

>  <inspiration_score>  (4968) 
None

$$$$
ZZKAFVKBDHKSIR-UHFFFAOYSA-N-P91-P7-P91-601531
     RDKit          3D

 19 20  0  0  0  0  0  0  0  0999 V2000
   -1.2665    5.5054  -21.4009 C   0  0  0  0  0  0  0  0  0  0  0  0
   -1.8439    4.8921  -20.1320 C   0  0  0  0  0  0  0  0  0  0  0  0
   -2.7044    5.8806  -19.3207 C   0  0  2  0  0  0  0  0  0  0  0  0
   -1.8672    7.0032  -18.6787 C   0  0  0  0  0  0  0  0  0  0  0  0
   -1.4859    7.9914  -19.6324 O   0  0  0  0  0  0  0  0  0  0  0  0
   -3.3940    5.1271  -18.2776 N   0  0  0  0  0  0  0  0  0  0  0  0
   -4.7661    4.9778  -18.3380 C   0  0  0  0  0  0  0  0  0  0  0  0
   -5.4225    4.7087  -19.5179 C   0  0  0  0  0  0  0  0  0  0  0  0
   -6.7661    4.4159  -19.4814 C   0  0  0  0  0  0  0  0  0  0  0  0
   -7.4543    4.4696  -18.2871 C   0  0  0  0  0  0  0  0  0  0  0  0
   -8.8295    4.2232  -18.2926 C   0  0  0  0  0  0  0  0  0  0  0  0
   -9.5265    4.1982  -17.1016 C   0  0  0  0  0  0  0  0  0  0  0  0
   -8.8418    4.3977  -15.9110 C   0  0  0  0  0  0  0  0  0  0  0  0
   -7.4647    4.6570  -15.9282 C   0  0  0  0  0  0  0  0  0  0  0  0
   -6.7925    4.8028  -14.6322 C   0  0  0  0  0  0  0  0  0  0  0  0
   -6.3605    5.8591  -14.2047 O   0  0  0  0  0  0  0  0  0  0  0  0
   -6.8000    3.6412  -13.9362 O   0  0  0  0  0  0  0  0  0  0  0  0
   -6.7321    4.7361  -17.1104 C   0  0  0  0  0  0  0  0  0  0  0  0
   -5.4014    4.9940  -17.1521 N   0  0  0  0  0  0  0  0  0  0  0  0
  1  2  1  0
  3  2  1  1
  3  4  1  0
  4  5  1  0
  3  6  1  0
  6  7  1  0
  7  8  2  0
  8  9  1  0
  9 10  2  0
 10 11  1  0
 11 12  2  0
 12 13  1  0
 13 14  2  0
 14 15  1  0
 15 16  2  0
 15 17  1  0
 14 18  1  0
 18 19  2  0
 19  7  1  0
 18 10  1  0
M  END
>  <energy_score>  (4969) 
-25.83661

>  <alias>  (4969) 
ZZKAFVKBDHKSIR-UHFFFAOYSA-N-P91-P7-P91-601531

>  <HIPPO Pose ID>  (4969) 
86932

>  <smiles>  (4969) 
CCC(CO)Nc1ccc2cccc(C(=O)O)c2n1

>  <inchikey>  (4969) 
ZZKAFVKBDHKSIR-UHFFFAOYSA-N

>  <distance_score>  (4969) 
1.119827

>  <ref_mols>  (4969) 
Z1688a,Z0089a

>  <ref_pdb>  (4969) 
Z0089a

>  <HIPPO Compound ID>  (4969) 
146617

>  <name>  (4969) 
ZZKAFVKBDHKSIR-UHFFFAOYSA-N-P91-P7-P91-601531

>  <inspiration_score>  (4969) 
None

$$$$
IXSVWBCRRDFEIJ-UHFFFAOYSA-N-P7-P7-P91-601531
     RDKit          3D

 19 21  0  0  0  0  0  0  0  0999 V2000
   -6.9104    4.2307  -13.0709 Br  0  0  0  0  0  0  0  0  0  0  0  0
   -6.6389    5.7319  -14.2663 C   0  0  0  0  0  0  0  0  0  0  0  0
   -6.3747    5.3348  -15.6991 C   0  0  0  0  0  0  0  0  0  0  0  0
   -5.1229    5.6333  -16.2999 C   0  0  0  0  0  0  0  0  0  0  0  0
   -4.9308    5.4253  -17.6639 C   0  0  0  0  0  0  0  0  0  0  0  0
   -3.8516    5.7979  -18.4296 N   0  0  0  0  0  0  0  0  0  0  0  0
   -2.4849    5.5387  -18.0084 C   0  0  0  0  0  0  0  0  0  0  0  0
   -1.6715    5.0080  -19.2058 C   0  0  0  0  0  0  0  0  0  0  0  0
   -0.2352    5.5098  -19.1460 C   0  0  0  0  0  0  0  0  0  0  0  0
   -0.1385    6.9342  -19.1836 O   0  0  0  0  0  0  0  0  0  0  0  0
   -1.2373    7.6316  -18.6014 C   0  0  0  0  0  0  0  0  0  0  0  0
   -1.8895    6.8474  -17.4769 C   0  0  0  0  0  0  0  0  0  0  0  0
   -5.8873    4.9280  -18.4310 N   0  0  0  0  0  0  0  0  0  0  0  0
   -7.0670    4.6513  -17.8983 C   0  0  0  0  0  0  0  0  0  0  0  0
   -8.0172    4.2501  -18.7996 C   0  0  0  0  0  0  0  0  0  0  0  0
   -9.3148    4.0088  -18.4004 C   0  0  0  0  0  0  0  0  0  0  0  0
   -9.6548    4.1087  -17.0679 C   0  0  0  0  0  0  0  0  0  0  0  0
   -8.7045    4.5005  -16.1306 C   0  0  0  0  0  0  0  0  0  0  0  0
   -7.3894    4.8130  -16.5342 C   0  0  0  0  0  0  0  0  0  0  0  0
  1  2  1  0
  2  3  1  0
  3  4  2  0
  4  5  1  0
  5  6  1  0
  6  7  1  0
  7  8  1  0
  8  9  1  0
  9 10  1  0
 10 11  1  0
 11 12  1  0
  5 13  2  0
 13 14  1  0
 14 15  2  0
 15 16  1  0
 16 17  2  0
 17 18  1  0
 18 19  2  0
 19  3  1  0
 12  7  1  0
 19 14  1  0
M  END
>  <energy_score>  (4970) 
-24.024021

>  <alias>  (4970) 
IXSVWBCRRDFEIJ-UHFFFAOYSA-N-P7-P7-P91-601531

>  <HIPPO Pose ID>  (4970) 
86937

>  <smiles>  (4970) 
BrCc1cc(NC2CCOCC2)nc2ccccc12

>  <inchikey>  (4970) 
IXSVWBCRRDFEIJ-UHFFFAOYSA-N

>  <distance_score>  (4970) 
1.074143

>  <ref_mols>  (4970) 
Z1688a,Z0089a

>  <ref_pdb>  (4970) 
Z0089a

>  <HIPPO Compound ID>  (4970) 
146620

>  <name>  (4970) 
IXSVWBCRRDFEIJ-UHFFFAOYSA-N-P7-P7-P91-601531

>  <inspiration_score>  (4970) 
None

$$$$
CSBXOGHJNVBCMN-UHFFFAOYSA-N-P91-P7-P91-601531
     RDKit          3D

 19 21  0  0  0  0  0  0  0  0999 V2000
   -3.0505    6.5333  -15.5567 N   0  0  0  0  0  0  0  0  0  0  0  0
   -3.8116    6.0476  -16.2819 C   0  0  0  0  0  0  0  0  0  0  0  0
   -4.8887    5.4974  -17.0122 C   0  0  0  0  0  0  0  0  0  0  0  0
   -6.0220    5.2681  -16.2379 C   0  0  0  0  0  0  0  0  0  0  0  0
   -7.1608    4.7991  -16.8370 C   0  0  0  0  0  0  0  0  0  0  0  0
   -8.2576    4.5040  -16.0419 C   0  0  0  0  0  0  0  0  0  0  0  0
   -9.3949    4.0631  -16.6558 C   0  0  0  0  0  0  0  0  0  0  0  0
   -9.4471    3.9768  -18.0302 C   0  0  0  0  0  0  0  0  0  0  0  0
   -8.3259    4.2305  -18.8099 C   0  0  0  0  0  0  0  0  0  0  0  0
   -7.1494    4.6264  -18.2270 C   0  0  0  0  0  0  0  0  0  0  0  0
   -6.0453    4.8184  -18.9674 N   0  0  0  0  0  0  0  0  0  0  0  0
   -4.9048    5.2114  -18.3721 C   0  0  0  0  0  0  0  0  0  0  0  0
   -3.8555    5.1968  -19.2483 N   0  0  0  0  0  0  0  0  0  0  0  0
   -2.5354    5.7717  -19.0929 C   0  0  0  0  0  0  0  0  0  0  0  0
   -1.5592    5.0910  -20.0627 C   0  0  0  0  0  0  0  0  0  0  0  0
   -0.4363    6.0399  -20.4758 C   0  0  0  0  0  0  0  0  0  0  0  0
   -0.1334    6.9422  -19.4169 O   0  0  0  0  0  0  0  0  0  0  0  0
   -1.1844    7.8756  -19.1698 C   0  0  0  0  0  0  0  0  0  0  0  0
   -2.5738    7.2732  -19.3456 C   0  0  0  0  0  0  0  0  0  0  0  0
  1  2  3  0
  2  3  1  0
  3  4  2  0
  4  5  1  0
  5  6  2  0
  6  7  1  0
  7  8  2  0
  8  9  1  0
  9 10  2  0
 10 11  1  0
 11 12  2  0
 12 13  1  0
 13 14  1  0
 14 15  1  0
 15 16  1  0
 16 17  1  0
 17 18  1  0
 18 19  1  0
 12  3  1  0
 19 14  1  0
 10  5  1  0
M  END
>  <energy_score>  (4971) 
-17.440365

>  <alias>  (4971) 
CSBXOGHJNVBCMN-UHFFFAOYSA-N-P91-P7-P91-601531

>  <HIPPO Pose ID>  (4971) 
86942

>  <smiles>  (4971) 
N#Cc1cc2ccccc2nc1NC1CCOCC1

>  <inchikey>  (4971) 
CSBXOGHJNVBCMN-UHFFFAOYSA-N

>  <distance_score>  (4971) 
1.963887

>  <ref_mols>  (4971) 
Z1688a,Z0089a

>  <ref_pdb>  (4971) 
Z0089a

>  <HIPPO Compound ID>  (4971) 
146622

>  <name>  (4971) 
CSBXOGHJNVBCMN-UHFFFAOYSA-N-P91-P7-P91-601531

>  <inspiration_score>  (4971) 
None

$$$$
JFHNJJYEXCGPBG-UHFFFAOYSA-N-P268-P91-P268-601531
     RDKit          3D

 31 34  0  0  0  0  0  0  0  0999 V2000
   -3.5395    5.4271   -9.8434 C   0  0  0  0  0  0  0  0  0  0  0  0
   -4.1190    6.7344  -10.3578 C   0  0  0  0  0  0  0  0  0  0  0  0
   -5.2434    7.1963   -9.5692 N   0  0  0  0  0  0  0  0  0  0  0  0
   -5.1242    7.7650   -8.3296 C   0  0  0  0  0  0  0  0  0  0  0  0
   -6.2913    8.0996   -7.8347 N   0  0  0  0  0  0  0  0  0  0  0  0
   -7.2013    7.7535   -8.7975 C   0  0  0  0  0  0  0  0  0  0  0  0
   -6.5802    7.1863   -9.8953 C   0  0  0  0  0  0  0  0  0  0  0  0
   -7.1742    6.6695  -11.1607 C   0  0  0  0  0  0  0  0  0  0  0  0
   -7.2343    5.1446  -11.1959 C   0  0  0  0  0  0  0  0  0  0  0  0
   -8.0117    4.7030  -12.4226 C   0  0  0  0  0  0  0  0  0  0  0  0
   -9.1271    4.3763  -12.3726 O   0  0  0  0  0  0  0  0  0  0  0  0
   -7.0758    4.8868  -13.6387 N   0  0  0  0  0  0  0  0  0  0  0  0
   -7.3384    4.8005  -15.0006 C   0  0  0  0  0  0  0  0  0  0  0  0
   -8.5590    4.2967  -15.4602 C   0  0  0  0  0  0  0  0  0  0  0  0
   -8.8398    4.2007  -16.8335 C   0  0  0  0  0  0  0  0  0  0  0  0
   -7.9033    4.6072  -17.7840 C   0  0  0  0  0  0  0  0  0  0  0  0
   -6.7022    5.1090  -17.3243 C   0  0  0  0  0  0  0  0  0  0  0  0
   -6.4204    5.2147  -15.9515 C   0  0  0  0  0  0  0  0  0  0  0  0
   -5.1451    5.8032  -15.8282 N   0  0  0  0  0  0  0  0  0  0  0  0
   -4.4503    6.1471  -14.6373 C   0  0  0  0  0  0  0  0  0  0  0  0
   -4.6274    6.0451  -17.1006 C   0  0  0  0  0  0  0  0  0  0  0  0
   -3.5407    6.5385  -17.3657 O   0  0  0  0  0  0  0  0  0  0  0  0
   -5.5898    5.5999  -18.0189 N   0  0  0  0  0  0  0  0  0  0  0  0
   -5.3248    5.6822  -19.4145 C   0  0  1  0  0  0  0  0  0  0  0  0
   -5.7883    4.5278  -20.2622 C   0  0  0  0  0  0  0  0  0  0  0  0
   -5.0158    4.6167  -21.5651 C   0  0  0  0  0  0  0  0  0  0  0  0
   -5.2352    5.9554  -22.2444 C   0  0  0  0  0  0  0  0  0  0  0  0
   -5.1760    6.0873  -23.4638 O   0  0  0  0  0  0  0  0  0  0  0  0
   -5.4560    7.0381  -21.4304 N   0  0  0  0  0  0  0  0  0  0  0  0
   -5.7125    7.0016  -20.0726 C   0  0  0  0  0  0  0  0  0  0  0  0
   -6.1446    7.9928  -19.4852 O   0  0  0  0  0  0  0  0  0  0  0  0
  1  2  1  0
  2  3  1  0
  3  4  1  0
  4  5  2  0
  5  6  1  0
  6  7  2  0
  7  8  1  0
  8  9  1  0
  9 10  1  0
 10 11  2  0
 10 12  1  0
 12 13  1  0
 13 14  2  0
 14 15  1  0
 15 16  2  0
 16 17  1  0
 17 18  2  0
 18 19  1  0
 19 20  1  0
 19 21  1  0
 21 22  2  0
 21 23  1  0
 24 23  1  1
 24 25  1  0
 25 26  1  0
 26 27  1  0
 27 28  2  0
 27 29  1  0
 29 30  1  0
 30 31  2  0
  7  3  1  0
 18 13  1  0
 30 24  1  0
 23 17  1  0
M  END
>  <energy_score>  (4972) 
-58.621744

>  <alias>  (4972) 
JFHNJJYEXCGPBG-UHFFFAOYSA-N-P268-P91-P268-601531

>  <HIPPO Pose ID>  (4972) 
86968

>  <smiles>  (4972) 
CCn1cncc1CCC(=O)Nc1cccc2c1n(C)c(=O)n2C1CCC(=O)NC1=O

>  <inchikey>  (4972) 
JFHNJJYEXCGPBG-UHFFFAOYSA-N

>  <distance_score>  (4972) 
1.474431

>  <ref_mols>  (4972) 
Z1688a,Z4245a

>  <ref_pdb>  (4972) 
Z0089a

>  <HIPPO Compound ID>  (4972) 
147728

>  <name>  (4972) 
JFHNJJYEXCGPBG-UHFFFAOYSA-N-P268-P91-P268-601531

>  <inspiration_score>  (4972) 
None

$$$$
LJMIVLALZCANSV-UHFFFAOYSA-N-P268-P91-P268-601531
     RDKit          3D

 31 34  0  0  0  0  0  0  0  0999 V2000
   -5.2301    3.2901   -9.7237 C   0  0  0  0  0  0  0  0  0  0  0  0
   -6.4128    3.0273  -10.5018 N   0  0  0  0  0  0  0  0  0  0  0  0
   -6.6657    1.8501  -11.1386 C   0  0  0  0  0  0  0  0  0  0  0  0
   -7.8001    1.8971  -11.7977 N   0  0  0  0  0  0  0  0  0  0  0  0
   -8.3242    3.1226  -11.5331 C   0  0  0  0  0  0  0  0  0  0  0  0
   -7.4554    3.8814  -10.7793 C   0  0  0  0  0  0  0  0  0  0  0  0
   -7.5493    5.3014  -10.3618 C   0  0  0  0  0  0  0  0  0  0  0  0
   -6.4732    6.2067  -10.9704 C   0  0  2  0  0  0  0  0  0  0  0  0
   -6.9701    7.5461  -11.0239 O   0  0  0  0  0  0  0  0  0  0  0  0
   -5.9921    5.7450  -12.3675 C   0  0  0  0  0  0  0  0  0  0  0  0
   -4.8747    5.4731  -12.5873 O   0  0  0  0  0  0  0  0  0  0  0  0
   -7.2304    5.7725  -13.3149 N   0  0  0  0  0  0  0  0  0  0  0  0
   -7.3567    5.3929  -14.6520 C   0  0  0  0  0  0  0  0  0  0  0  0
   -8.6108    4.8739  -15.0107 C   0  0  0  0  0  0  0  0  0  0  0  0
   -8.8909    4.4404  -16.3136 C   0  0  0  0  0  0  0  0  0  0  0  0
   -7.9249    4.5285  -17.3088 C   0  0  0  0  0  0  0  0  0  0  0  0
   -6.6815    5.0161  -16.9606 C   0  0  0  0  0  0  0  0  0  0  0  0
   -6.3951    5.4608  -15.6493 C   0  0  0  0  0  0  0  0  0  0  0  0
   -5.1122    6.0430  -15.6916 N   0  0  0  0  0  0  0  0  0  0  0  0
   -4.6094    7.0663  -14.8402 C   0  0  0  0  0  0  0  0  0  0  0  0
   -4.5726    5.8869  -16.9671 C   0  0  0  0  0  0  0  0  0  0  0  0
   -3.5079    6.3386  -17.3694 O   0  0  0  0  0  0  0  0  0  0  0  0
   -5.5448    5.2426  -17.7504 N   0  0  0  0  0  0  0  0  0  0  0  0
   -5.3895    5.2963  -19.1675 C   0  0  2  0  0  0  0  0  0  0  0  0
   -5.6378    6.7064  -19.7095 C   0  0  0  0  0  0  0  0  0  0  0  0
   -5.0014    6.8549  -21.0790 C   0  0  0  0  0  0  0  0  0  0  0  0
   -5.3219    5.6981  -21.9896 C   0  0  0  0  0  0  0  0  0  0  0  0
   -5.3487    5.8297  -23.2104 O   0  0  0  0  0  0  0  0  0  0  0  0
   -5.5465    4.4775  -21.4031 N   0  0  0  0  0  0  0  0  0  0  0  0
   -6.0433    4.3205  -20.1211 C   0  0  0  0  0  0  0  0  0  0  0  0
   -6.8757    3.4650  -19.8583 O   0  0  0  0  0  0  0  0  0  0  0  0
  1  2  1  0
  2  3  1  0
  3  4  2  0
  4  5  1  0
  5  6  2  0
  6  7  1  0
  7  8  1  0
  8  9  1  6
  8 10  1  0
 10 11  2  0
 10 12  1  0
 12 13  1  0
 13 14  2  0
 14 15  1  0
 15 16  2  0
 16 17  1  0
 17 18  2  0
 18 19  1  0
 19 20  1  0
 19 21  1  0
 21 22  2  0
 21 23  1  0
 24 23  1  1
 24 25  1  0
 25 26  1  0
 26 27  1  0
 27 28  2  0
 27 29  1  0
 29 30  1  0
 30 31  2  0
  6  2  1  0
 18 13  1  0
 30 24  1  0
 23 17  1  0
M  END
>  <energy_score>  (4973) 
-30.857853

>  <alias>  (4973) 
LJMIVLALZCANSV-UHFFFAOYSA-N-P268-P91-P268-601531

>  <HIPPO Pose ID>  (4973) 
86970

>  <smiles>  (4973) 
Cn1cncc1CC(O)C(=O)Nc1cccc2c1n(C)c(=O)n2C1CCC(=O)NC1=O

>  <inchikey>  (4973) 
LJMIVLALZCANSV-UHFFFAOYSA-N

>  <distance_score>  (4973) 
1.319835

>  <ref_mols>  (4973) 
Z1688a,Z4245a

>  <ref_pdb>  (4973) 
Z0089a

>  <HIPPO Compound ID>  (4973) 
147729

>  <name>  (4973) 
LJMIVLALZCANSV-UHFFFAOYSA-N-P268-P91-P268-601531

>  <inspiration_score>  (4973) 
None

$$$$
UDHHCTFMZABZEQ-UHFFFAOYSA-N-P159-P7-P159-601531
     RDKit          3D

 22 24  0  0  0  0  0  0  0  0999 V2000
   -3.4535    5.0040  -17.2599 C   0  0  0  0  0  0  0  0  0  0  0  0
   -4.8196    4.8094  -16.8877 O   0  0  0  0  0  0  0  0  0  0  0  0
   -5.0834    4.9047  -15.4609 C   0  0  0  0  0  0  0  0  0  0  0  0
   -6.6215    4.8888  -15.0391 C   0  0  2  0  0  0  0  0  0  0  0  0
   -6.7204    5.2719  -13.5043 C   0  0  0  0  0  0  0  0  0  0  0  0
   -7.7767    4.6167  -12.6856 N   0  0  0  0  0  0  0  0  0  0  0  0
   -7.8834    4.9054  -11.3011 C   0  0  0  0  0  0  0  0  0  0  0  0
   -7.6694    6.1914  -10.7987 C   0  0  0  0  0  0  0  0  0  0  0  0
   -7.8077    6.4607   -9.4441 C   0  0  0  0  0  0  0  0  0  0  0  0
   -8.1554    5.5756   -8.4949 N   0  0  0  0  0  0  0  0  0  0  0  0
   -8.4314    4.3297   -8.9580 C   0  0  0  0  0  0  0  0  0  0  0  0
   -8.9203    3.2997   -8.0933 C   0  0  0  0  0  0  0  0  0  0  0  0
   -9.2320    3.4259   -6.6758 C   0  0  0  0  0  0  0  0  0  0  0  0
   -9.8365    2.5825   -6.0274 O   0  0  0  0  0  0  0  0  0  0  0  0
   -8.8602    4.6124   -6.1103 O   0  0  0  0  0  0  0  0  0  0  0  0
   -9.1052    2.1437   -8.8056 C   0  0  0  0  0  0  0  0  0  0  0  0
   -8.7718    2.3517  -10.4634 S   0  0  0  0  0  0  0  0  0  0  0  0
   -8.3088    3.9774  -10.3064 C   0  0  0  0  0  0  0  0  0  0  0  0
   -7.8268    3.9164  -15.4185 C   0  0  0  0  0  0  0  0  0  0  0  0
   -7.7405    4.4433  -16.8475 C   0  0  1  0  0  0  0  0  0  0  0  0
   -8.9998    4.3062  -17.6754 C   0  0  0  0  0  0  0  0  0  0  0  0
   -7.3362    5.7720  -16.1274 C   0  0  0  0  0  0  0  0  0  0  0  0
  1  2  1  0
  2  3  1  0
  4  3  1  6
  4  5  1  0
  5  6  1  0
  6  7  1  0
  7  8  2  0
  8  9  1  0
  9 10  2  0
 10 11  1  0
 11 12  1  0
 12 13  1  0
 13 14  2  0
 13 15  1  0
 12 16  2  0
 16 17  1  0
 17 18  1  0
  4 19  1  0
 19 20  1  0
 20 21  1  1
 20 22  1  0
 22  4  1  0
 18  7  1  0
 18 11  2  0
M  END
>  <energy_score>  (4974) 
-51.100193

>  <alias>  (4974) 
UDHHCTFMZABZEQ-UHFFFAOYSA-N-P159-P7-P159-601531

>  <HIPPO Pose ID>  (4974) 
87272

>  <smiles>  (4974) 
COCC1(CNc2ccnc3c(C(=O)O)csc23)CC(C)C1

>  <inchikey>  (4974) 
UDHHCTFMZABZEQ-UHFFFAOYSA-N

>  <distance_score>  (4974) 
1.839833

>  <ref_mols>  (4974) 
Z3515a,Z0089a

>  <ref_pdb>  (4974) 
Z0089a

>  <HIPPO Compound ID>  (4974) 
135812

>  <name>  (4974) 
UDHHCTFMZABZEQ-UHFFFAOYSA-N-P159-P7-P159-601531

>  <inspiration_score>  (4974) 
None

$$$$
GXUXNTPHLGNVIQ-UHFFFAOYSA-N-P159-P7-P159-601531
     RDKit          3D

 23 25  0  0  0  0  0  0  0  0999 V2000
   -4.0211    5.5640  -18.3267 C   0  0  0  0  0  0  0  0  0  0  0  0
   -5.7218    5.3175  -17.8859 S   0  0  0  0  0  0  0  0  0  0  0  0
   -6.0854    4.0614  -18.4913 O   0  0  0  0  0  0  0  0  0  0  0  0
   -6.4121    6.5385  -18.2447 O   0  0  0  0  0  0  0  0  0  0  0  0
   -5.6901    5.1599  -16.0768 C   0  0  0  0  0  0  0  0  0  0  0  0
   -6.9992    4.7363  -15.3299 C   0  0  0  0  0  0  0  0  0  0  0  0
   -6.7237    4.6010  -13.7977 C   0  0  0  0  0  0  0  0  0  0  0  0
   -7.8713    4.0851  -13.0202 N   0  0  0  0  0  0  0  0  0  0  0  0
   -8.0018    4.6214  -11.7200 C   0  0  0  0  0  0  0  0  0  0  0  0
   -8.5212    5.9000  -11.5310 C   0  0  0  0  0  0  0  0  0  0  0  0
   -8.7219    6.3873  -10.2504 C   0  0  0  0  0  0  0  0  0  0  0  0
   -8.3935    5.7520   -9.1207 N   0  0  0  0  0  0  0  0  0  0  0  0
   -7.7040    4.6020   -9.2939 C   0  0  0  0  0  0  0  0  0  0  0  0
   -6.8602    4.0407   -8.2935 C   0  0  0  0  0  0  0  0  0  0  0  0
   -6.7082    4.4911   -6.9218 C   0  0  0  0  0  0  0  0  0  0  0  0
   -5.7093    4.3604   -6.2167 O   0  0  0  0  0  0  0  0  0  0  0  0
   -7.7953    5.0989   -6.3923 O   0  0  0  0  0  0  0  0  0  0  0  0
   -6.0614    3.0884   -8.8869 C   0  0  0  0  0  0  0  0  0  0  0  0
   -6.6966    2.5255  -10.3611 S   0  0  0  0  0  0  0  0  0  0  0  0
   -7.5581    3.9913  -10.5454 C   0  0  0  0  0  0  0  0  0  0  0  0
   -8.2157    5.6586  -15.5023 C   0  0  0  0  0  0  0  0  0  0  0  0
   -8.7645    4.7405  -16.5920 C   0  0  0  0  0  0  0  0  0  0  0  0
   -7.8638    3.6634  -16.0351 C   0  0  0  0  0  0  0  0  0  0  0  0
  1  2  1  0
  2  3  2  0
  2  4  2  0
  2  5  1  0
  5  6  1  0
  6  7  1  0
  7  8  1  0
  8  9  1  0
  9 10  2  0
 10 11  1  0
 11 12  2  0
 12 13  1  0
 13 14  1  0
 14 15  1  0
 15 16  2  0
 15 17  1  0
 14 18  2  0
 18 19  1  0
 19 20  1  0
  6 21  1  0
 21 22  1  0
 22 23  1  0
 23  6  1  0
 20  9  1  0
 20 13  2  0
M  END
>  <energy_score>  (4975) 
-51.130722

>  <alias>  (4975) 
GXUXNTPHLGNVIQ-UHFFFAOYSA-N-P159-P7-P159-601531

>  <HIPPO Pose ID>  (4975) 
87417

>  <smiles>  (4975) 
CS(=O)(=O)CC1(CNc2ccnc3c(C(=O)O)csc23)CCC1

>  <inchikey>  (4975) 
GXUXNTPHLGNVIQ-UHFFFAOYSA-N

>  <distance_score>  (4975) 
1.993217

>  <ref_mols>  (4975) 
Z3515a,Z0089a

>  <ref_pdb>  (4975) 
Z0089a

>  <HIPPO Compound ID>  (4975) 
135893

>  <name>  (4975) 
GXUXNTPHLGNVIQ-UHFFFAOYSA-N-P159-P7-P159-601531

>  <inspiration_score>  (4975) 
None

$$$$
NHDBPIKFGHMNAJ-UHFFFAOYSA-N-P23-P23-P219-601532
     RDKit          3D

 20 21  0  0  0  0  0  0  0  0999 V2000
   -6.8292    4.8777  -12.5600 C   0  0  0  0  0  0  0  0  0  0  0  0
   -7.0342    4.9363  -14.0396 C   0  0  0  0  0  0  0  0  0  0  0  0
   -8.2671    4.5421  -14.5708 C   0  0  0  0  0  0  0  0  0  0  0  0
   -8.4981    4.5204  -15.9416 C   0  0  0  0  0  0  0  0  0  0  0  0
   -7.4334    4.9118  -16.7505 C   0  0  0  0  0  0  0  0  0  0  0  0
   -6.2056    5.3306  -16.2660 C   0  0  0  0  0  0  0  0  0  0  0  0
   -5.9842    5.3258  -14.8868 C   0  0  0  0  0  0  0  0  0  0  0  0
   -5.3827    5.7349  -17.2841 N   0  0  0  0  0  0  0  0  0  0  0  0
   -6.0965    5.5926  -18.3841 C   0  0  0  0  0  0  0  0  0  0  0  0
   -5.7217    6.1094  -19.7257 C   0  0  0  0  0  0  0  0  0  0  0  0
   -4.2079    6.3160  -19.8613 C   0  0  0  0  0  0  0  0  0  0  0  0
   -3.8798    6.8470  -21.1934 N   0  0  0  0  0  0  0  0  0  0  0  0
   -2.4407    6.8846  -21.4543 C   0  0  2  0  0  0  0  0  0  0  0  0
   -2.0022    5.5333  -21.7138 O   0  0  0  0  0  0  0  0  0  0  0  0
   -1.4913    7.6406  -20.4513 C   0  0  0  0  0  0  0  0  0  0  0  0
   -1.4356    7.0411  -19.2428 F   0  0  0  0  0  0  0  0  0  0  0  0
   -0.2261    7.6247  -20.9521 F   0  0  0  0  0  0  0  0  0  0  0  0
   -1.8416    8.9317  -20.2787 F   0  0  0  0  0  0  0  0  0  0  0  0
   -7.2878    4.9703  -18.1069 N   0  0  0  0  0  0  0  0  0  0  0  0
   -8.2814    4.4759  -19.0099 C   0  0  0  0  0  0  0  0  0  0  0  0
  1  2  1  0
  2  3  2  0
  3  4  1  0
  4  5  2  0
  5  6  1  0
  6  7  2  0
  6  8  1  0
  8  9  2  0
  9 10  1  0
 10 11  1  0
 11 12  1  0
 12 13  1  0
 13 14  1  1
 13 15  1  0
 15 16  1  0
 15 17  1  0
 15 18  1  0
  9 19  1  0
 19 20  1  0
  7  2  1  0
 19  5  1  0
M  END
>  <energy_score>  (4976) 
-22.259931

>  <alias>  (4976) 
NHDBPIKFGHMNAJ-UHFFFAOYSA-N-P23-P23-P219-601532

>  <HIPPO Pose ID>  (4976) 
88475

>  <smiles>  (4976) 
Cc1ccc2c(c1)nc(CCNC(O)C(F)(F)F)n2C

>  <inchikey>  (4976) 
NHDBPIKFGHMNAJ-UHFFFAOYSA-N

>  <distance_score>  (4976) 
1.301552

>  <ref_mols>  (4976) 
Z3880a,Z0472a

>  <ref_pdb>  (4976) 
Z0089a

>  <HIPPO Compound ID>  (4976) 
137031

>  <name>  (4976) 
NHDBPIKFGHMNAJ-UHFFFAOYSA-N-P23-P23-P219-601532

>  <inspiration_score>  (4976) 
None

$$$$
CKKGRRQBFNXELK-UHFFFAOYSA-N-P23-P23-P219-601532
     RDKit          3D

 20 21  0  0  0  0  0  0  0  0999 V2000
   -7.7033    4.6320  -13.0121 C   0  0  0  0  0  0  0  0  0  0  0  0
   -7.4049    4.8368  -14.4644 C   0  0  0  0  0  0  0  0  0  0  0  0
   -8.3691    4.5251  -15.4312 C   0  0  0  0  0  0  0  0  0  0  0  0
   -8.0977    4.6217  -16.7970 C   0  0  0  0  0  0  0  0  0  0  0  0
   -6.8148    5.0496  -17.1498 C   0  0  0  0  0  0  0  0  0  0  0  0
   -5.8448    5.3914  -16.2211 C   0  0  0  0  0  0  0  0  0  0  0  0
   -6.1298    5.2700  -14.8579 C   0  0  0  0  0  0  0  0  0  0  0  0
   -4.6990    5.8317  -16.8300 N   0  0  0  0  0  0  0  0  0  0  0  0
   -4.9342    5.7688  -18.1248 C   0  0  0  0  0  0  0  0  0  0  0  0
   -4.0060    6.2652  -19.2007 C   0  0  0  0  0  0  0  0  0  0  0  0
   -3.2166    5.1203  -19.8452 C   0  0  0  0  0  0  0  0  0  0  0  0
   -2.5825    5.4251  -21.1456 N   0  0  0  0  0  0  0  0  0  0  0  0
   -1.2757    6.1130  -21.0757 C   0  0  1  0  0  0  0  0  0  0  0  0
   -1.6182    7.3568  -21.3696 O   0  0  0  0  0  0  0  0  0  0  0  0
   -0.3482    6.0033  -19.7782 C   0  0  0  0  0  0  0  0  0  0  0  0
    0.8686    6.5794  -19.9665 F   0  0  0  0  0  0  0  0  0  0  0  0
   -0.0963    4.6906  -19.4989 F   0  0  0  0  0  0  0  0  0  0  0  0
   -0.8880    6.5420  -18.6604 F   0  0  0  0  0  0  0  0  0  0  0  0
   -6.1718    5.2064  -18.3476 N   0  0  0  0  0  0  0  0  0  0  0  0
   -6.6954    4.8060  -19.6130 C   0  0  0  0  0  0  0  0  0  0  0  0
  1  2  1  0
  2  3  2  0
  3  4  1  0
  4  5  2  0
  5  6  1  0
  6  7  2  0
  6  8  1  0
  8  9  2  0
  9 10  1  0
 10 11  1  0
 11 12  1  0
 12 13  1  0
 13 14  1  1
 13 15  1  0
 15 16  1  0
 15 17  1  0
 15 18  1  0
  9 19  1  0
 19 20  1  0
  7  2  1  0
 19  5  1  0
M  CHG  1  14  -1
M  END
>  <energy_score>  (4977) 
-49.102009

>  <alias>  (4977) 
CKKGRRQBFNXELK-UHFFFAOYSA-N-P23-P23-P219-601532

>  <HIPPO Pose ID>  (4977) 
88495

>  <smiles>  (4977) 
Cc1ccc2c(c1)nc(CCNC([O-])C(F)(F)F)n2C

>  <inchikey>  (4977) 
CKKGRRQBFNXELK-UHFFFAOYSA-N

>  <distance_score>  (4977) 
1.292234

>  <ref_mols>  (4977) 
Z3880a,Z0472a

>  <ref_pdb>  (4977) 
Z0089a

>  <HIPPO Compound ID>  (4977) 
137041

>  <name>  (4977) 
CKKGRRQBFNXELK-UHFFFAOYSA-N-P23-P23-P219-601532

>  <inspiration_score>  (4977) 
None

$$$$
KVCFCAZRZGUEGW-UHFFFAOYSA-N-P219-P23-P219-601532
     RDKit          3D

 21 22  0  0  0  0  0  0  0  0999 V2000
   -5.6190    7.8548  -24.4077 C   0  0  0  0  0  0  0  0  0  0  0  0
   -5.2120    8.3598  -23.1416 O   0  0  0  0  0  0  0  0  0  0  0  0
   -4.6986    7.3467  -22.2514 C   0  0  2  0  0  0  0  0  0  0  0  0
   -4.7320    7.9723  -20.9158 N   0  0  0  0  0  0  0  0  0  0  0  0
   -4.5541    7.0608  -19.7733 C   0  0  0  0  0  0  0  0  0  0  0  0
   -5.4490    5.8071  -19.7516 C   0  0  0  0  0  0  0  0  0  0  0  0
   -5.8938    5.4273  -18.3836 C   0  0  0  0  0  0  0  0  0  0  0  0
   -5.2899    5.7527  -17.2580 N   0  0  0  0  0  0  0  0  0  0  0  0
   -6.1437    5.3620  -16.2587 C   0  0  0  0  0  0  0  0  0  0  0  0
   -6.0229    5.4983  -14.8766 C   0  0  0  0  0  0  0  0  0  0  0  0
   -7.0921    5.0621  -14.0904 C   0  0  0  0  0  0  0  0  0  0  0  0
   -6.9936    5.2114  -12.3851 Cl  0  0  0  0  0  0  0  0  0  0  0  0
   -8.2512    4.5192  -14.6419 C   0  0  0  0  0  0  0  0  0  0  0  0
   -8.3752    4.3559  -16.0149 C   0  0  0  0  0  0  0  0  0  0  0  0
   -7.2874    4.7794  -16.7786 C   0  0  0  0  0  0  0  0  0  0  0  0
   -7.0334    4.7104  -18.1184 N   0  0  0  0  0  0  0  0  0  0  0  0
   -7.8608    3.9529  -19.0049 C   0  0  0  0  0  0  0  0  0  0  0  0
   -3.3204    6.7416  -22.7071 C   0  0  0  0  0  0  0  0  0  0  0  0
   -3.4101    6.1555  -23.9286 F   0  0  0  0  0  0  0  0  0  0  0  0
   -2.8937    5.7607  -21.8636 F   0  0  0  0  0  0  0  0  0  0  0  0
   -2.3395    7.6689  -22.7793 F   0  0  0  0  0  0  0  0  0  0  0  0
  1  2  1  0
  2  3  1  0
  3  4  1  1
  4  5  1  0
  5  6  1  0
  6  7  1  0
  7  8  2  0
  8  9  1  0
  9 10  2  0
 10 11  1  0
 11 12  1  0
 11 13  2  0
 13 14  1  0
 14 15  2  0
 15 16  1  0
 16 17  1  0
  3 18  1  0
 18 19  1  0
 18 20  1  0
 18 21  1  0
 16  7  1  0
 15  9  1  0
M  END
>  <energy_score>  (4978) 
-19.957907

>  <alias>  (4978) 
KVCFCAZRZGUEGW-UHFFFAOYSA-N-P219-P23-P219-601532

>  <HIPPO Pose ID>  (4978) 
88512

>  <smiles>  (4978) 
COC(NCCc1nc2cc(Cl)ccc2n1C)C(F)(F)F

>  <inchikey>  (4978) 
KVCFCAZRZGUEGW-UHFFFAOYSA-N

>  <distance_score>  (4978) 
1.354192

>  <ref_mols>  (4978) 
Z3880a,Z0472a

>  <ref_pdb>  (4978) 
Z0089a

>  <HIPPO Compound ID>  (4978) 
137049

>  <name>  (4978) 
KVCFCAZRZGUEGW-UHFFFAOYSA-N-P219-P23-P219-601532

>  <inspiration_score>  (4978) 
None

$$$$
YTKRROIQPFCOAQ-UHFFFAOYSA-N-P23-P23-P219-601532
     RDKit          3D

 21 22  0  0  0  0  0  0  0  0999 V2000
   -4.3131   10.0111  -23.2630 C   0  0  0  0  0  0  0  0  0  0  0  0
   -5.2331    8.9817  -22.9329 O   0  0  0  0  0  0  0  0  0  0  0  0
   -4.7166    7.9394  -22.0736 C   0  0  2  0  0  0  0  0  0  0  0  0
   -4.7392    8.4487  -20.6827 N   0  0  0  0  0  0  0  0  0  0  0  0
   -4.6937    7.3937  -19.6534 C   0  0  0  0  0  0  0  0  0  0  0  0
   -5.9184    6.4712  -19.6624 C   0  0  0  0  0  0  0  0  0  0  0  0
   -6.1175    5.7399  -18.3825 C   0  0  0  0  0  0  0  0  0  0  0  0
   -5.3509    5.8117  -17.3113 N   0  0  0  0  0  0  0  0  0  0  0  0
   -6.1314    5.3317  -16.2877 C   0  0  0  0  0  0  0  0  0  0  0  0
   -5.8835    5.2933  -14.9129 C   0  0  0  0  0  0  0  0  0  0  0  0
   -6.9049    4.8441  -14.0583 C   0  0  0  0  0  0  0  0  0  0  0  0
   -6.7043    4.8352  -12.5768 C   0  0  0  0  0  0  0  0  0  0  0  0
   -8.1460    4.4552  -14.5744 C   0  0  0  0  0  0  0  0  0  0  0  0
   -8.3996    4.4564  -15.9406 C   0  0  0  0  0  0  0  0  0  0  0  0
   -7.3587    4.8929  -16.7569 C   0  0  0  0  0  0  0  0  0  0  0  0
   -7.2454    5.0061  -18.1109 N   0  0  0  0  0  0  0  0  0  0  0  0
   -8.2333    4.5111  -19.0190 C   0  0  0  0  0  0  0  0  0  0  0  0
   -3.3680    7.3079  -22.5797 C   0  0  0  0  0  0  0  0  0  0  0  0
   -3.4078    7.0050  -23.8978 F   0  0  0  0  0  0  0  0  0  0  0  0
   -2.3264    8.1583  -22.3910 F   0  0  0  0  0  0  0  0  0  0  0  0
   -3.0476    6.1594  -21.9267 F   0  0  0  0  0  0  0  0  0  0  0  0
  1  2  1  0
  2  3  1  0
  3  4  1  1
  4  5  1  0
  5  6  1  0
  6  7  1  0
  7  8  2  0
  8  9  1  0
  9 10  2  0
 10 11  1  0
 11 12  1  0
 11 13  2  0
 13 14  1  0
 14 15  2  0
 15 16  1  0
 16 17  1  0
  3 18  1  0
 18 19  1  0
 18 20  1  0
 18 21  1  0
 16  7  1  0
 15  9  1  0
M  END
>  <energy_score>  (4979) 
-25.701392

>  <alias>  (4979) 
YTKRROIQPFCOAQ-UHFFFAOYSA-N-P23-P23-P219-601532

>  <HIPPO Pose ID>  (4979) 
88517

>  <smiles>  (4979) 
COC(NCCc1nc2cc(C)ccc2n1C)C(F)(F)F

>  <inchikey>  (4979) 
YTKRROIQPFCOAQ-UHFFFAOYSA-N

>  <distance_score>  (4979) 
1.237034

>  <ref_mols>  (4979) 
Z3880a,Z0472a

>  <ref_pdb>  (4979) 
Z0089a

>  <HIPPO Compound ID>  (4979) 
137052

>  <name>  (4979) 
YTKRROIQPFCOAQ-UHFFFAOYSA-N-P23-P23-P219-601532

>  <inspiration_score>  (4979) 
None

$$$$
MJVSELROJJTCPX-UHFFFAOYSA-N-P23-P23-P219-601532
     RDKit          3D

 22 23  0  0  0  0  0  0  0  0999 V2000
    0.5407    6.1766  -22.3533 C   0  0  0  0  0  0  0  0  0  0  0  0
   -0.4182    7.2853  -22.7399 C   0  0  0  0  0  0  0  0  0  0  0  0
   -1.7613    6.8282  -22.5937 O   0  0  0  0  0  0  0  0  0  0  0  0
   -2.3539    7.1418  -21.3192 C   0  0  2  0  0  0  0  0  0  0  0  0
   -3.2959    6.0293  -21.0742 N   0  0  0  0  0  0  0  0  0  0  0  0
   -3.8657    6.0442  -19.7122 C   0  0  0  0  0  0  0  0  0  0  0  0
   -5.1909    5.2690  -19.6843 C   0  0  0  0  0  0  0  0  0  0  0  0
   -5.8040    5.2059  -18.3367 C   0  0  0  0  0  0  0  0  0  0  0  0
   -5.1832    5.4387  -17.1982 N   0  0  0  0  0  0  0  0  0  0  0  0
   -6.1230    5.2188  -16.2235 C   0  0  0  0  0  0  0  0  0  0  0  0
   -5.9976    5.2725  -14.8334 C   0  0  0  0  0  0  0  0  0  0  0  0
   -7.1270    4.9972  -14.0445 C   0  0  0  0  0  0  0  0  0  0  0  0
   -7.0081    4.9515  -12.5543 C   0  0  0  0  0  0  0  0  0  0  0  0
   -8.3530    4.6827  -14.6418 C   0  0  0  0  0  0  0  0  0  0  0  0
   -8.5001    4.6373  -16.0235 C   0  0  0  0  0  0  0  0  0  0  0  0
   -7.3522    4.8932  -16.7723 C   0  0  0  0  0  0  0  0  0  0  0  0
   -7.1098    4.8468  -18.1151 N   0  0  0  0  0  0  0  0  0  0  0  0
   -8.1043    4.4296  -19.0561 C   0  0  0  0  0  0  0  0  0  0  0  0
   -2.9601    8.6003  -21.3326 C   0  0  0  0  0  0  0  0  0  0  0  0
   -3.2519    9.0332  -20.0833 F   0  0  0  0  0  0  0  0  0  0  0  0
   -4.1030    8.6562  -22.0583 F   0  0  0  0  0  0  0  0  0  0  0  0
   -2.0997    9.5029  -21.8615 F   0  0  0  0  0  0  0  0  0  0  0  0
  1  2  1  0
  2  3  1  0
  3  4  1  0
  4  5  1  6
  5  6  1  0
  6  7  1  0
  7  8  1  0
  8  9  2  0
  9 10  1  0
 10 11  2  0
 11 12  1  0
 12 13  1  0
 12 14  2  0
 14 15  1  0
 15 16  2  0
 16 17  1  0
 17 18  1  0
  4 19  1  0
 19 20  1  0
 19 21  1  0
 19 22  1  0
 17  8  1  0
 16 10  1  0
M  END
>  <energy_score>  (4980) 
-25.965199

>  <alias>  (4980) 
MJVSELROJJTCPX-UHFFFAOYSA-N-P23-P23-P219-601532

>  <HIPPO Pose ID>  (4980) 
88556

>  <smiles>  (4980) 
CCOC(NCCc1nc2cc(C)ccc2n1C)C(F)(F)F

>  <inchikey>  (4980) 
MJVSELROJJTCPX-UHFFFAOYSA-N

>  <distance_score>  (4980) 
1.192597

>  <ref_mols>  (4980) 
Z3880a,Z0472a

>  <ref_pdb>  (4980) 
Z0089a

>  <HIPPO Compound ID>  (4980) 
137072

>  <name>  (4980) 
MJVSELROJJTCPX-UHFFFAOYSA-N-P23-P23-P219-601532

>  <inspiration_score>  (4980) 
None

$$$$
YJDKRSPDZYPTOC-UHFFFAOYSA-N-P23-P23-P219-601532
     RDKit          3D

 22 23  0  0  0  0  0  0  0  0999 V2000
   -3.9833    9.4029  -23.5987 C   0  0  0  0  0  0  0  0  0  0  0  0
   -3.4221    8.2874  -22.8339 N   0  0  0  0  0  0  0  0  0  0  0  0
   -3.0970    7.2005  -23.7670 C   0  0  0  0  0  0  0  0  0  0  0  0
   -4.3209    7.8128  -21.7309 C   0  0  1  0  0  0  0  0  0  0  0  0
   -3.4037    6.9724  -20.9143 N   0  0  0  0  0  0  0  0  0  0  0  0
   -3.9422    6.5327  -19.6153 C   0  0  0  0  0  0  0  0  0  0  0  0
   -5.1312    5.5595  -19.6892 C   0  0  0  0  0  0  0  0  0  0  0  0
   -5.7348    5.3173  -18.3473 C   0  0  0  0  0  0  0  0  0  0  0  0
   -5.1251    5.5043  -17.1925 N   0  0  0  0  0  0  0  0  0  0  0  0
   -6.0611    5.2233  -16.2321 C   0  0  0  0  0  0  0  0  0  0  0  0
   -5.9490    5.2636  -14.8429 C   0  0  0  0  0  0  0  0  0  0  0  0
   -7.0838    4.9482  -14.0986 C   0  0  0  0  0  0  0  0  0  0  0  0
   -7.0091    4.9749  -12.7633 F   0  0  0  0  0  0  0  0  0  0  0  0
   -8.2981    4.6142  -14.6868 C   0  0  0  0  0  0  0  0  0  0  0  0
   -8.4263    4.5685  -16.0695 C   0  0  0  0  0  0  0  0  0  0  0  0
   -7.2745    4.8694  -16.8015 C   0  0  0  0  0  0  0  0  0  0  0  0
   -7.0161    4.8672  -18.1446 N   0  0  0  0  0  0  0  0  0  0  0  0
   -7.9885    4.4476  -19.1061 C   0  0  0  0  0  0  0  0  0  0  0  0
   -5.1354    8.9529  -20.9539 C   0  0  0  0  0  0  0  0  0  0  0  0
   -5.9502    8.4564  -19.9913 F   0  0  0  0  0  0  0  0  0  0  0  0
   -4.3106    9.8475  -20.3587 F   0  0  0  0  0  0  0  0  0  0  0  0
   -5.9521    9.6508  -21.7872 F   0  0  0  0  0  0  0  0  0  0  0  0
  1  2  1  0
  2  3  1  0
  2  4  1  0
  4  5  1  1
  5  6  1  0
  6  7  1  0
  7  8  1  0
  8  9  2  0
  9 10  1  0
 10 11  2  0
 11 12  1  0
 12 13  1  0
 12 14  2  0
 14 15  1  0
 15 16  2  0
 16 17  1  0
 17 18  1  0
  4 19  1  0
 19 20  1  0
 19 21  1  0
 19 22  1  0
 17  8  1  0
 16 10  1  0
M  END
>  <energy_score>  (4981) 
-48.02591

>  <alias>  (4981) 
YJDKRSPDZYPTOC-UHFFFAOYSA-N-P23-P23-P219-601532

>  <HIPPO Pose ID>  (4981) 
88562

>  <smiles>  (4981) 
CN(C)C(NCCc1nc2cc(F)ccc2n1C)C(F)(F)F

>  <inchikey>  (4981) 
YJDKRSPDZYPTOC-UHFFFAOYSA-N

>  <distance_score>  (4981) 
1.313588

>  <ref_mols>  (4981) 
Z3880a,Z0472a

>  <ref_pdb>  (4981) 
Z0089a

>  <HIPPO Compound ID>  (4981) 
137075

>  <name>  (4981) 
YJDKRSPDZYPTOC-UHFFFAOYSA-N-P23-P23-P219-601532

>  <inspiration_score>  (4981) 
None

$$$$
VQTHBDRTXKSOHQ-UHFFFAOYSA-N-P219-P23-P219-601532
     RDKit          3D

 22 23  0  0  0  0  0  0  0  0999 V2000
   -2.7222    6.6142  -24.0692 C   0  0  0  0  0  0  0  0  0  0  0  0
   -2.8989    7.9055  -23.3886 N   0  0  0  0  0  0  0  0  0  0  0  0
   -2.9874    8.9591  -24.4023 C   0  0  0  0  0  0  0  0  0  0  0  0
   -4.0808    7.8725  -22.4751 C   0  0  1  0  0  0  0  0  0  0  0  0
   -3.6041    7.0256  -21.3527 N   0  0  0  0  0  0  0  0  0  0  0  0
   -4.6277    6.7957  -20.3254 C   0  0  0  0  0  0  0  0  0  0  0  0
   -4.2585    5.5785  -19.4742 C   0  0  0  0  0  0  0  0  0  0  0  0
   -5.1804    5.4055  -18.3135 C   0  0  0  0  0  0  0  0  0  0  0  0
   -4.9016    5.7898  -17.0853 N   0  0  0  0  0  0  0  0  0  0  0  0
   -5.9765    5.4075  -16.3247 C   0  0  0  0  0  0  0  0  0  0  0  0
   -6.1726    5.5269  -14.9484 C   0  0  0  0  0  0  0  0  0  0  0  0
   -7.3779    5.0621  -14.4202 C   0  0  0  0  0  0  0  0  0  0  0  0
   -7.6394    5.1690  -12.7272 Cl  0  0  0  0  0  0  0  0  0  0  0  0
   -8.3762    4.5187  -15.2266 C   0  0  0  0  0  0  0  0  0  0  0  0
   -8.1902    4.3820  -16.5995 C   0  0  0  0  0  0  0  0  0  0  0  0
   -6.9653    4.8278  -17.1046 C   0  0  0  0  0  0  0  0  0  0  0  0
   -6.4059    4.7862  -18.3527 N   0  0  0  0  0  0  0  0  0  0  0  0
   -6.9985    4.1143  -19.4615 C   0  0  0  0  0  0  0  0  0  0  0  0
   -4.7056    9.2831  -22.0552 C   0  0  0  0  0  0  0  0  0  0  0  0
   -3.7977   10.0729  -21.4352 F   0  0  0  0  0  0  0  0  0  0  0  0
   -5.1844    9.9636  -23.1262 F   0  0  0  0  0  0  0  0  0  0  0  0
   -5.7576    9.1443  -21.2086 F   0  0  0  0  0  0  0  0  0  0  0  0
  1  2  1  0
  2  3  1  0
  2  4  1  0
  4  5  1  1
  5  6  1  0
  6  7  1  0
  7  8  1  0
  8  9  2  0
  9 10  1  0
 10 11  2  0
 11 12  1  0
 12 13  1  0
 12 14  2  0
 14 15  1  0
 15 16  2  0
 16 17  1  0
 17 18  1  0
  4 19  1  0
 19 20  1  0
 19 21  1  0
 19 22  1  0
 17  8  1  0
 16 10  1  0
M  END
>  <energy_score>  (4982) 
-30.323877

>  <alias>  (4982) 
VQTHBDRTXKSOHQ-UHFFFAOYSA-N-P219-P23-P219-601532

>  <HIPPO Pose ID>  (4982) 
88573

>  <smiles>  (4982) 
CN(C)C(NCCc1nc2cc(Cl)ccc2n1C)C(F)(F)F

>  <inchikey>  (4982) 
VQTHBDRTXKSOHQ-UHFFFAOYSA-N

>  <distance_score>  (4982) 
1.254007

>  <ref_mols>  (4982) 
Z3880a,Z0472a

>  <ref_pdb>  (4982) 
Z0089a

>  <HIPPO Compound ID>  (4982) 
137080

>  <name>  (4982) 
VQTHBDRTXKSOHQ-UHFFFAOYSA-N-P219-P23-P219-601532

>  <inspiration_score>  (4982) 
None

$$$$
VTCBAVSVTYAYGW-UHFFFAOYSA-N-P23-P23-P219-601532
     RDKit          3D

 23 24  0  0  0  0  0  0  0  0999 V2000
   -9.3631    1.4083   -7.4741 C   0  0  0  0  0  0  0  0  0  0  0  0
   -8.9670    2.2859   -8.1852 C   0  0  0  0  0  0  0  0  0  0  0  0
   -8.6005    3.5084   -8.8742 C   0  0  0  0  0  0  0  0  0  0  0  0
   -8.0909    3.3065  -10.1874 O   0  0  0  0  0  0  0  0  0  0  0  0
   -8.3191    4.4537  -11.0213 C   0  0  2  0  0  0  0  0  0  0  0  0
   -7.6474    4.2266  -12.2989 N   0  0  0  0  0  0  0  0  0  0  0  0
   -6.2208    4.5288  -12.2373 C   0  0  0  0  0  0  0  0  0  0  0  0
   -5.3707    3.8326  -13.2944 C   0  0  0  0  0  0  0  0  0  0  0  0
   -5.8856    4.0924  -14.6537 C   0  0  0  0  0  0  0  0  0  0  0  0
   -7.0872    3.7313  -15.0523 N   0  0  0  0  0  0  0  0  0  0  0  0
   -7.2933    4.3603  -16.2306 C   0  0  0  0  0  0  0  0  0  0  0  0
   -8.4277    4.3511  -17.0440 C   0  0  0  0  0  0  0  0  0  0  0  0
   -8.3993    5.1612  -18.1575 C   0  0  0  0  0  0  0  0  0  0  0  0
   -7.2979    5.9794  -18.3666 C   0  0  0  0  0  0  0  0  0  0  0  0
   -7.3955    6.9417  -19.2633 F   0  0  0  0  0  0  0  0  0  0  0  0
   -6.1292    5.9576  -17.6328 C   0  0  0  0  0  0  0  0  0  0  0  0
   -6.1627    5.0996  -16.5675 C   0  0  0  0  0  0  0  0  0  0  0  0
   -5.2217    4.7620  -15.6439 N   0  0  0  0  0  0  0  0  0  0  0  0
   -3.8162    5.0686  -15.7454 C   0  0  0  0  0  0  0  0  0  0  0  0
   -8.0259    5.8632  -10.3721 C   0  0  0  0  0  0  0  0  0  0  0  0
   -8.8047    6.1078   -9.2927 F   0  0  0  0  0  0  0  0  0  0  0  0
   -8.2522    6.8781  -11.2444 F   0  0  0  0  0  0  0  0  0  0  0  0
   -6.7428    5.9836   -9.9466 F   0  0  0  0  0  0  0  0  0  0  0  0
  1  2  3  0
  2  3  1  0
  3  4  1  0
  4  5  1  0
  5  6  1  6
  6  7  1  0
  7  8  1  0
  8  9  1  0
  9 10  2  0
 10 11  1  0
 11 12  2  0
 12 13  1  0
 13 14  2  0
 14 15  1  0
 14 16  1  0
 16 17  2  0
 17 18  1  0
 18 19  1  0
  5 20  1  0
 20 21  1  0
 20 22  1  0
 20 23  1  0
 18  9  1  0
 17 11  1  0
M  END
>  <energy_score>  (4983) 
-14.914494

>  <alias>  (4983) 
VTCBAVSVTYAYGW-UHFFFAOYSA-N-P23-P23-P219-601532

>  <HIPPO Pose ID>  (4983) 
88604

>  <smiles>  (4983) 
C#CCOC(NCCc1nc2ccc(F)cc2n1C)C(F)(F)F

>  <inchikey>  (4983) 
VTCBAVSVTYAYGW-UHFFFAOYSA-N

>  <distance_score>  (4983) 
1.985038

>  <ref_mols>  (4983) 
Z3880a,Z0472a

>  <ref_pdb>  (4983) 
Z0089a

>  <HIPPO Compound ID>  (4983) 
137096

>  <name>  (4983) 
VTCBAVSVTYAYGW-UHFFFAOYSA-N-P23-P23-P219-601532

>  <inspiration_score>  (4983) 
None

$$$$
AQMHDPRCGHPQKR-UHFFFAOYSA-N-P219-P23-P219-601532
     RDKit          3D

 23 24  0  0  0  0  0  0  0  0999 V2000
   -1.9071    9.6080  -18.0642 C   0  0  0  0  0  0  0  0  0  0  0  0
   -2.6118    8.5441  -18.6992 O   0  0  0  0  0  0  0  0  0  0  0  0
   -2.8697    8.9189  -20.0885 N   0  0  0  0  0  0  0  0  0  0  0  0
   -2.1617    7.9376  -20.8996 C   0  0  0  0  0  0  0  0  0  0  0  0
   -4.3436    8.9745  -20.2900 C   0  0  2  0  0  0  0  0  0  0  0  0
   -5.0153    7.8663  -19.5788 N   0  0  0  0  0  0  0  0  0  0  0  0
   -5.2290    6.6332  -20.3437 C   0  0  0  0  0  0  0  0  0  0  0  0
   -4.9265    5.3569  -19.5432 C   0  0  0  0  0  0  0  0  0  0  0  0
   -5.6682    5.2511  -18.2611 C   0  0  0  0  0  0  0  0  0  0  0  0
   -5.1708    5.6335  -17.1012 N   0  0  0  0  0  0  0  0  0  0  0  0
   -6.1314    5.3343  -16.1750 C   0  0  0  0  0  0  0  0  0  0  0  0
   -6.1068    5.4909  -14.7905 C   0  0  0  0  0  0  0  0  0  0  0  0
   -7.2399    5.0966  -14.0776 C   0  0  0  0  0  0  0  0  0  0  0  0
   -7.2405    5.2375  -12.3690 Cl  0  0  0  0  0  0  0  0  0  0  0  0
   -8.3763    4.5907  -14.7057 C   0  0  0  0  0  0  0  0  0  0  0  0
   -8.4141    4.4280  -16.0845 C   0  0  0  0  0  0  0  0  0  0  0  0
   -7.2584    4.7978  -16.7744 C   0  0  0  0  0  0  0  0  0  0  0  0
   -6.9099    4.6936  -18.0935 N   0  0  0  0  0  0  0  0  0  0  0  0
   -7.7371    3.9928  -19.0253 C   0  0  0  0  0  0  0  0  0  0  0  0
   -4.8303    9.3601  -21.7434 C   0  0  0  0  0  0  0  0  0  0  0  0
   -6.1660    9.6129  -21.7571 F   0  0  0  0  0  0  0  0  0  0  0  0
   -4.2223   10.4905  -22.1831 F   0  0  0  0  0  0  0  0  0  0  0  0
   -4.5946    8.3949  -22.6604 F   0  0  0  0  0  0  0  0  0  0  0  0
  1  2  1  0
  2  3  1  0
  3  4  1  0
  3  5  1  0
  5  6  1  6
  6  7  1  0
  7  8  1  0
  8  9  1  0
  9 10  2  0
 10 11  1  0
 11 12  2  0
 12 13  1  0
 13 14  1  0
 13 15  2  0
 15 16  1  0
 16 17  2  0
 17 18  1  0
 18 19  1  0
  5 20  1  0
 20 21  1  0
 20 22  1  0
 20 23  1  0
 18  9  1  0
 17 11  1  0
M  END
>  <energy_score>  (4984) 
-38.541846

>  <alias>  (4984) 
AQMHDPRCGHPQKR-UHFFFAOYSA-N-P219-P23-P219-601532

>  <HIPPO Pose ID>  (4984) 
88609

>  <smiles>  (4984) 
CON(C)C(NCCc1nc2cc(Cl)ccc2n1C)C(F)(F)F

>  <inchikey>  (4984) 
AQMHDPRCGHPQKR-UHFFFAOYSA-N

>  <distance_score>  (4984) 
1.353974

>  <ref_mols>  (4984) 
Z3880a,Z0472a

>  <ref_pdb>  (4984) 
Z0089a

>  <HIPPO Compound ID>  (4984) 
137098

>  <name>  (4984) 
AQMHDPRCGHPQKR-UHFFFAOYSA-N-P219-P23-P219-601532

>  <inspiration_score>  (4984) 
None

$$$$
YFOCARRJPLCREN-UHFFFAOYSA-N-P23-P23-P219-601532
     RDKit          3D

 23 24  0  0  0  0  0  0  0  0999 V2000
   -1.5930    9.5644  -17.9363 C   0  0  0  0  0  0  0  0  0  0  0  0
   -1.1537    8.3383  -18.5166 O   0  0  0  0  0  0  0  0  0  0  0  0
   -1.9038    7.2431  -17.9084 N   0  0  0  0  0  0  0  0  0  0  0  0
   -0.9002    6.3966  -17.2736 C   0  0  0  0  0  0  0  0  0  0  0  0
   -2.6433    6.5558  -19.0014 C   0  0  1  0  0  0  0  0  0  0  0  0
   -3.8812    7.3667  -19.1219 N   0  0  0  0  0  0  0  0  0  0  0  0
   -4.8949    6.8297  -20.0389 C   0  0  0  0  0  0  0  0  0  0  0  0
   -5.4553    5.4286  -19.7497 C   0  0  0  0  0  0  0  0  0  0  0  0
   -6.0168    5.2758  -18.3843 C   0  0  0  0  0  0  0  0  0  0  0  0
   -5.3400    5.4924  -17.2729 N   0  0  0  0  0  0  0  0  0  0  0  0
   -6.2139    5.2287  -16.2552 C   0  0  0  0  0  0  0  0  0  0  0  0
   -6.0113    5.2837  -14.8774 C   0  0  0  0  0  0  0  0  0  0  0  0
   -7.0944    4.9714  -14.0600 C   0  0  0  0  0  0  0  0  0  0  0  0
   -6.9333    5.0028  -12.7330 F   0  0  0  0  0  0  0  0  0  0  0  0
   -8.3434    4.6325  -14.5665 C   0  0  0  0  0  0  0  0  0  0  0  0
   -8.5615    4.5778  -15.9376 C   0  0  0  0  0  0  0  0  0  0  0  0
   -7.4607    4.8697  -16.7453 C   0  0  0  0  0  0  0  0  0  0  0  0
   -7.2905    4.8485  -18.1030 N   0  0  0  0  0  0  0  0  0  0  0  0
   -8.3188    4.4019  -18.9951 C   0  0  0  0  0  0  0  0  0  0  0  0
   -1.8416    6.2215  -20.3258 C   0  0  0  0  0  0  0  0  0  0  0  0
   -0.6963    5.5353  -20.0736 F   0  0  0  0  0  0  0  0  0  0  0  0
   -2.5615    5.4113  -21.1570 F   0  0  0  0  0  0  0  0  0  0  0  0
   -1.5070    7.3142  -21.0489 F   0  0  0  0  0  0  0  0  0  0  0  0
  1  2  1  0
  2  3  1  0
  3  4  1  0
  3  5  1  0
  5  6  1  6
  6  7  1  0
  7  8  1  0
  8  9  1  0
  9 10  2  0
 10 11  1  0
 11 12  2  0
 12 13  1  0
 13 14  1  0
 13 15  2  0
 15 16  1  0
 16 17  2  0
 17 18  1  0
 18 19  1  0
  5 20  1  0
 20 21  1  0
 20 22  1  0
 20 23  1  0
 18  9  1  0
 17 11  1  0
M  END
>  <energy_score>  (4985) 
-69.19267

>  <alias>  (4985) 
YFOCARRJPLCREN-UHFFFAOYSA-N-P23-P23-P219-601532

>  <HIPPO Pose ID>  (4985) 
88612

>  <smiles>  (4985) 
CON(C)C(NCCc1nc2cc(F)ccc2n1C)C(F)(F)F

>  <inchikey>  (4985) 
YFOCARRJPLCREN-UHFFFAOYSA-N

>  <distance_score>  (4985) 
1.202693

>  <ref_mols>  (4985) 
Z3880a,Z0472a

>  <ref_pdb>  (4985) 
Z0089a

>  <HIPPO Compound ID>  (4985) 
137100

>  <name>  (4985) 
YFOCARRJPLCREN-UHFFFAOYSA-N-P23-P23-P219-601532

>  <inspiration_score>  (4985) 
None

$$$$
FNEUKPAHRFZVKX-UHFFFAOYSA-N-P23-P23-P219-601532
     RDKit          3D

 23 24  0  0  0  0  0  0  0  0999 V2000
   -4.4595   10.8110  -23.5600 C   0  0  0  0  0  0  0  0  0  0  0  0
   -4.9985    9.5306  -23.2451 O   0  0  0  0  0  0  0  0  0  0  0  0
   -3.8884    8.5998  -23.0459 N   0  0  0  0  0  0  0  0  0  0  0  0
   -4.0522    7.5716  -24.0697 C   0  0  0  0  0  0  0  0  0  0  0  0
   -3.9591    8.0989  -21.6407 C   0  0  1  0  0  0  0  0  0  0  0  0
   -5.3245    7.5936  -21.3749 N   0  0  0  0  0  0  0  0  0  0  0  0
   -5.5675    7.2232  -19.9756 C   0  0  0  0  0  0  0  0  0  0  0  0
   -5.5650    5.7065  -19.7465 C   0  0  0  0  0  0  0  0  0  0  0  0
   -6.0451    5.3801  -18.3840 C   0  0  0  0  0  0  0  0  0  0  0  0
   -5.3555    5.5858  -17.2803 N   0  0  0  0  0  0  0  0  0  0  0  0
   -6.2089    5.2635  -16.2586 C   0  0  0  0  0  0  0  0  0  0  0  0
   -6.0027    5.3025  -14.8775 C   0  0  0  0  0  0  0  0  0  0  0  0
   -7.0632    4.9448  -14.0295 C   0  0  0  0  0  0  0  0  0  0  0  0
   -6.8856    4.9662  -12.5454 C   0  0  0  0  0  0  0  0  0  0  0  0
   -8.3109    4.5973  -14.5591 C   0  0  0  0  0  0  0  0  0  0  0  0
   -8.5337    4.5519  -15.9305 C   0  0  0  0  0  0  0  0  0  0  0  0
   -7.4476    4.8749  -16.7417 C   0  0  0  0  0  0  0  0  0  0  0  0
   -7.2880    4.8737  -18.0985 N   0  0  0  0  0  0  0  0  0  0  0  0
   -8.3117    4.4173  -18.9898 C   0  0  0  0  0  0  0  0  0  0  0  0
   -2.7255    7.1870  -21.2490 C   0  0  0  0  0  0  0  0  0  0  0  0
   -2.6215    7.0355  -19.9078 F   0  0  0  0  0  0  0  0  0  0  0  0
   -1.5523    7.7213  -21.6700 F   0  0  0  0  0  0  0  0  0  0  0  0
   -2.8058    5.9403  -21.7842 F   0  0  0  0  0  0  0  0  0  0  0  0
  1  2  1  0
  2  3  1  0
  3  4  1  0
  3  5  1  0
  5  6  1  6
  6  7  1  0
  7  8  1  0
  8  9  1  0
  9 10  2  0
 10 11  1  0
 11 12  2  0
 12 13  1  0
 13 14  1  0
 13 15  2  0
 15 16  1  0
 16 17  2  0
 17 18  1  0
 18 19  1  0
  5 20  1  0
 20 21  1  0
 20 22  1  0
 20 23  1  0
 18  9  1  0
 17 11  1  0
M  END
>  <energy_score>  (4986) 
-25.95517

>  <alias>  (4986) 
FNEUKPAHRFZVKX-UHFFFAOYSA-N-P23-P23-P219-601532

>  <HIPPO Pose ID>  (4986) 
88616

>  <smiles>  (4986) 
CON(C)C(NCCc1nc2cc(C)ccc2n1C)C(F)(F)F

>  <inchikey>  (4986) 
FNEUKPAHRFZVKX-UHFFFAOYSA-N

>  <distance_score>  (4986) 
1.204709

>  <ref_mols>  (4986) 
Z3880a,Z0472a

>  <ref_pdb>  (4986) 
Z0089a

>  <HIPPO Compound ID>  (4986) 
137102

>  <name>  (4986) 
FNEUKPAHRFZVKX-UHFFFAOYSA-N-P23-P23-P219-601532

>  <inspiration_score>  (4986) 
None

$$$$
SETLSIKNPDREIJ-UHFFFAOYSA-N-P35-P7-P35-601532
     RDKit          3D

 22 24  0  0  0  0  0  0  0  0999 V2000
   -1.8516    4.5994  -19.3706 C   0  0  0  0  0  0  0  0  0  0  0  0
   -3.1349    4.7689  -18.5448 C   0  0  1  0  0  0  0  0  0  0  0  0
   -2.7705    5.2058  -17.0976 C   0  0  0  0  0  0  0  0  0  0  0  0
   -3.6473    4.6466  -15.9630 C   0  0  0  0  0  0  0  0  0  0  0  0
   -3.6248    3.4118  -15.3297 C   0  0  0  0  0  0  0  0  0  0  0  0
   -4.5421    3.4717  -14.3159 N   0  0  0  0  0  0  0  0  0  0  0  0
   -4.8171    2.4566  -13.3296 C   0  0  0  0  0  0  0  0  0  0  0  0
   -5.1088    4.7046  -14.3574 C   0  0  0  0  0  0  0  0  0  0  0  0
   -4.5691    5.4423  -15.3026 N   0  0  0  0  0  0  0  0  0  0  0  0
   -3.9919    5.6999  -19.3430 N   0  0  0  0  0  0  0  0  0  0  0  0
   -5.2476    5.8503  -18.7268 C   0  0  0  0  0  0  0  0  0  0  0  0
   -6.1529    4.9179  -19.0706 N   0  0  0  0  0  0  0  0  0  0  0  0
   -7.2506    4.7945  -18.3320 C   0  0  0  0  0  0  0  0  0  0  0  0
   -8.1964    3.9417  -18.7095 N   0  0  0  0  0  0  0  0  0  0  0  0
   -9.2301    3.7357  -17.8778 C   0  0  0  0  0  0  0  0  0  0  0  0
   -9.3209    4.2650  -16.6126 C   0  0  0  0  0  0  0  0  0  0  0  0
   -8.3887    5.2007  -16.2357 C   0  0  0  0  0  0  0  0  0  0  0  0
   -7.3893    5.5289  -17.1440 C   0  0  0  0  0  0  0  0  0  0  0  0
   -6.5422    6.6011  -16.9011 C   0  0  0  0  0  0  0  0  0  0  0  0
   -5.4737    6.8059  -17.7500 C   0  0  0  0  0  0  0  0  0  0  0  0
   -4.6365    7.9511  -17.5758 C   0  0  0  0  0  0  0  0  0  0  0  0
   -4.0213    8.9252  -17.4215 N   0  0  0  0  0  0  0  0  0  0  0  0
  2  1  1  6
  2  3  1  0
  3  4  1  0
  4  5  2  0
  5  6  1  0
  6  7  1  0
  6  8  1  0
  8  9  2  0
  2 10  1  0
 10 11  1  0
 11 12  2  0
 12 13  1  0
 13 14  2  0
 14 15  1  0
 15 16  2  0
 16 17  1  0
 17 18  2  0
 18 19  1  0
 19 20  2  0
 20 21  1  0
 21 22  3  0
  9  4  1  0
 20 11  1  0
 18 13  1  0
M  END
>  <energy_score>  (4987) 
-7.848063

>  <alias>  (4987) 
SETLSIKNPDREIJ-UHFFFAOYSA-N-P35-P7-P35-601532

>  <HIPPO Pose ID>  (4987) 
89254

>  <smiles>  (4987) 
CC(Cc1cn(C)cn1)Nc1nc2ncccc2cc1C#N

>  <inchikey>  (4987) 
SETLSIKNPDREIJ-UHFFFAOYSA-N

>  <distance_score>  (4987) 
1.594897

>  <ref_mols>  (4987) 
Z0719a,Z0089a

>  <ref_pdb>  (4987) 
Z0089a

>  <HIPPO Compound ID>  (4987) 
142487

>  <name>  (4987) 
SETLSIKNPDREIJ-UHFFFAOYSA-N-P35-P7-P35-601532

>  <inspiration_score>  (4987) 
None

$$$$
KJXFTECPLAPHBP-UHFFFAOYSA-N-P7-P7-P35-601532
     RDKit          3D

 23 26  0  0  0  0  0  0  0  0999 V2000
   -4.1031    5.2887  -18.7600 C   0  0  0  0  0  0  0  0  0  0  0  0
   -5.5220    4.9074  -18.5865 C   0  0  0  0  0  0  0  0  0  0  0  0
   -6.3210    4.5123  -19.5450 N   0  0  0  0  0  0  0  0  0  0  0  0
   -7.5348    4.2528  -18.9640 C   0  0  0  0  0  0  0  0  0  0  0  0
   -7.4688    4.4275  -17.6068 C   0  0  0  0  0  0  0  0  0  0  0  0
   -6.1986    4.8976  -17.3999 N   0  0  0  0  0  0  0  0  0  0  0  0
   -5.7054    5.2922  -16.1063 C   0  0  0  0  0  0  0  0  0  0  0  0
   -6.8478    5.5832  -15.1447 C   0  0  0  0  0  0  0  0  0  0  0  0
   -7.8677    4.4415  -15.0903 C   0  0  2  0  0  0  0  0  0  0  0  0
   -7.2999    3.2029  -14.5170 N   0  0  0  0  0  0  0  0  0  0  0  0
   -6.3693    3.1881  -13.4955 C   0  0  0  0  0  0  0  0  0  0  0  0
   -5.2576    2.4592  -13.7406 N   0  0  0  0  0  0  0  0  0  0  0  0
   -4.2620    2.3919  -12.8528 C   0  0  0  0  0  0  0  0  0  0  0  0
   -3.1447    1.7402  -13.1893 N   0  0  0  0  0  0  0  0  0  0  0  0
   -2.1379    1.6612  -12.2924 C   0  0  0  0  0  0  0  0  0  0  0  0
   -2.1738    2.2353  -11.0384 C   0  0  0  0  0  0  0  0  0  0  0  0
   -3.3138    2.9421  -10.6922 C   0  0  0  0  0  0  0  0  0  0  0  0
   -4.3698    3.0359  -11.6107 C   0  0  0  0  0  0  0  0  0  0  0  0
   -5.5187    3.7839  -11.3407 C   0  0  0  0  0  0  0  0  0  0  0  0
   -6.5173    3.8826  -12.3095 C   0  0  0  0  0  0  0  0  0  0  0  0
   -7.6208    4.7554  -12.0848 C   0  0  0  0  0  0  0  0  0  0  0  0
   -8.4196    5.5768  -11.8949 N   0  0  0  0  0  0  0  0  0  0  0  0
   -8.4632    4.2235  -16.5132 C   0  0  0  0  0  0  0  0  0  0  0  0
  1  2  1  0
  2  3  2  0
  3  4  1  0
  4  5  2  0
  5  6  1  0
  6  7  1  0
  7  8  1  0
  8  9  1  0
  9 10  1  6
 10 11  1  0
 11 12  2  0
 12 13  1  0
 13 14  2  0
 14 15  1  0
 15 16  2  0
 16 17  1  0
 17 18  2  0
 18 19  1  0
 19 20  2  0
 20 21  1  0
 21 22  3  0
  9 23  1  0
  6  2  1  0
 20 11  1  0
 23  5  1  0
 18 13  1  0
M  END
>  <energy_score>  (4988) 
-38.179734

>  <alias>  (4988) 
KJXFTECPLAPHBP-UHFFFAOYSA-N-P7-P7-P35-601532

>  <HIPPO Pose ID>  (4988) 
89257

>  <smiles>  (4988) 
Cc1ncc2n1CCC(Nc1nc3ncccc3cc1C#N)C2

>  <inchikey>  (4988) 
KJXFTECPLAPHBP-UHFFFAOYSA-N

>  <distance_score>  (4988) 
1.789366

>  <ref_mols>  (4988) 
Z0719a,Z0089a

>  <ref_pdb>  (4988) 
Z0089a

>  <HIPPO Compound ID>  (4988) 
142489

>  <name>  (4988) 
KJXFTECPLAPHBP-UHFFFAOYSA-N-P7-P7-P35-601532

>  <inspiration_score>  (4988) 
None

$$$$
XWWBLSVQEDACCV-UHFFFAOYSA-N-P35-P7-P35-601532
     RDKit          3D

 23 26  0  0  0  0  0  0  0  0999 V2000
   -6.9478    4.1238  -19.8084 C   0  0  0  0  0  0  0  0  0  0  0  0
   -6.5582    5.0878  -18.8339 N   0  0  0  0  0  0  0  0  0  0  0  0
   -5.5253    5.9709  -18.9849 C   0  0  0  0  0  0  0  0  0  0  0  0
   -5.2745    6.6211  -17.8689 N   0  0  0  0  0  0  0  0  0  0  0  0
   -6.1961    6.1435  -16.9848 C   0  0  0  0  0  0  0  0  0  0  0  0
   -7.0116    5.2011  -17.5617 C   0  0  0  0  0  0  0  0  0  0  0  0
   -8.0824    4.4449  -16.8624 C   0  0  0  0  0  0  0  0  0  0  0  0
   -7.7685    4.4487  -15.3237 C   0  0  1  0  0  0  0  0  0  0  0  0
   -6.6133    3.5844  -15.0292 N   0  0  0  0  0  0  0  0  0  0  0  0
   -6.0052    3.2547  -13.8521 C   0  0  0  0  0  0  0  0  0  0  0  0
   -4.7357    2.8026  -14.0157 N   0  0  0  0  0  0  0  0  0  0  0  0
   -3.9988    2.3910  -12.9818 C   0  0  0  0  0  0  0  0  0  0  0  0
   -2.7439    1.9860  -13.2106 N   0  0  0  0  0  0  0  0  0  0  0  0
   -1.9848    1.6010  -12.1611 C   0  0  0  0  0  0  0  0  0  0  0  0
   -2.4248    1.5835  -10.8532 C   0  0  0  0  0  0  0  0  0  0  0  0
   -3.7282    1.9861  -10.6112 C   0  0  0  0  0  0  0  0  0  0  0  0
   -4.5282    2.4049  -11.6843 C   0  0  0  0  0  0  0  0  0  0  0  0
   -5.8349    2.8645  -11.5003 C   0  0  0  0  0  0  0  0  0  0  0  0
   -6.5734    3.3108  -12.5983 C   0  0  0  0  0  0  0  0  0  0  0  0
   -7.8474    3.8946  -12.3717 C   0  0  0  0  0  0  0  0  0  0  0  0
   -8.8207    4.4752  -12.1261 N   0  0  0  0  0  0  0  0  0  0  0  0
   -7.4990    5.9056  -14.8866 C   0  0  0  0  0  0  0  0  0  0  0  0
   -6.2551    6.5106  -15.5568 C   0  0  0  0  0  0  0  0  0  0  0  0
  1  2  1  0
  2  3  1  0
  3  4  2  0
  4  5  1  0
  5  6  2  0
  6  7  1  0
  7  8  1  0
  8  9  1  6
  9 10  1  0
 10 11  2  0
 11 12  1  0
 12 13  2  0
 13 14  1  0
 14 15  2  0
 15 16  1  0
 16 17  2  0
 17 18  1  0
 18 19  2  0
 19 20  1  0
 20 21  3  0
  8 22  1  0
 22 23  1  0
  6  2  1  0
 19 10  1  0
 23  5  1  0
 17 12  1  0
M  END
>  <energy_score>  (4989) 
-31.120762

>  <alias>  (4989) 
XWWBLSVQEDACCV-UHFFFAOYSA-N-P35-P7-P35-601532

>  <HIPPO Pose ID>  (4989) 
89260

>  <smiles>  (4989) 
Cn1cnc2c1CC(Nc1nc3ncccc3cc1C#N)CC2

>  <inchikey>  (4989) 
XWWBLSVQEDACCV-UHFFFAOYSA-N

>  <distance_score>  (4989) 
1.757075

>  <ref_mols>  (4989) 
Z0719a,Z0089a

>  <ref_pdb>  (4989) 
Z0089a

>  <HIPPO Compound ID>  (4989) 
142490

>  <name>  (4989) 
XWWBLSVQEDACCV-UHFFFAOYSA-N-P35-P7-P35-601532

>  <inspiration_score>  (4989) 
None

$$$$
WJAXPHLZUJRINP-UHFFFAOYSA-N-P7-P7-P35-601532
     RDKit          3D

 23 26  0  0  0  0  0  0  0  0999 V2000
   -3.8000    5.8167  -19.8425 C   0  0  0  0  0  0  0  0  0  0  0  0
   -5.0086    5.6731  -19.0095 C   0  0  0  0  0  0  0  0  0  0  0  0
   -6.1781    5.2159  -19.4023 N   0  0  0  0  0  0  0  0  0  0  0  0
   -6.9527    5.1522  -18.2847 C   0  0  0  0  0  0  0  0  0  0  0  0
   -6.2351    5.5896  -17.1960 C   0  0  0  0  0  0  0  0  0  0  0  0
   -5.0122    5.9508  -17.6661 N   0  0  0  0  0  0  0  0  0  0  0  0
   -6.6211    5.3658  -15.7864 C   0  0  0  0  0  0  0  0  0  0  0  0
   -7.3381    3.9991  -15.8080 C   0  0  1  0  0  0  0  0  0  0  0  0
   -7.6277    3.3390  -14.5138 N   0  0  0  0  0  0  0  0  0  0  0  0
   -6.5704    3.4365  -13.5931 C   0  0  0  0  0  0  0  0  0  0  0  0
   -5.5586    2.5514  -13.6800 N   0  0  0  0  0  0  0  0  0  0  0  0
   -4.4981    2.6701  -12.8771 C   0  0  0  0  0  0  0  0  0  0  0  0
   -3.4699    1.8400  -13.0546 N   0  0  0  0  0  0  0  0  0  0  0  0
   -2.4033    1.9259  -12.2324 C   0  0  0  0  0  0  0  0  0  0  0  0
   -2.2809    2.8598  -11.2248 C   0  0  0  0  0  0  0  0  0  0  0  0
   -3.3197    3.7616  -11.0593 C   0  0  0  0  0  0  0  0  0  0  0  0
   -4.4422    3.6791  -11.8962 C   0  0  0  0  0  0  0  0  0  0  0  0
   -5.4989    4.5909  -11.7998 C   0  0  0  0  0  0  0  0  0  0  0  0
   -6.5671    4.4799  -12.6823 C   0  0  0  0  0  0  0  0  0  0  0  0
   -7.6251    5.4399  -12.6857 C   0  0  0  0  0  0  0  0  0  0  0  0
   -8.4172    6.2908  -12.6713 N   0  0  0  0  0  0  0  0  0  0  0  0
   -8.6066    4.1029  -16.7080 C   0  0  0  0  0  0  0  0  0  0  0  0
   -8.2539    4.4297  -18.1905 C   0  0  0  0  0  0  0  0  0  0  0  0
  1  2  1  0
  2  3  2  0
  3  4  1  0
  4  5  2  0
  5  6  1  0
  5  7  1  0
  7  8  1  0
  8  9  1  1
  9 10  1  0
 10 11  2  0
 11 12  1  0
 12 13  2  0
 13 14  1  0
 14 15  2  0
 15 16  1  0
 16 17  2  0
 17 18  1  0
 18 19  2  0
 19 20  1  0
 20 21  3  0
  8 22  1  0
 22 23  1  0
  6  2  1  0
 19 10  1  0
 23  4  1  0
 17 12  1  0
M  END
>  <energy_score>  (4990) 
-17.405393

>  <alias>  (4990) 
WJAXPHLZUJRINP-UHFFFAOYSA-N-P7-P7-P35-601532

>  <HIPPO Pose ID>  (4990) 
89261

>  <smiles>  (4990) 
Cc1nc2c([nH]1)CC(Nc1nc3ncccc3cc1C#N)CC2

>  <inchikey>  (4990) 
WJAXPHLZUJRINP-UHFFFAOYSA-N

>  <distance_score>  (4990) 
1.553476

>  <ref_mols>  (4990) 
Z0719a,Z0089a

>  <ref_pdb>  (4990) 
Z0089a

>  <HIPPO Compound ID>  (4990) 
142491

>  <name>  (4990) 
WJAXPHLZUJRINP-UHFFFAOYSA-N-P7-P7-P35-601532

>  <inspiration_score>  (4990) 
None

$$$$
OBZJDFRZHIPBFI-UHFFFAOYSA-N-P35-P7-P35-601532
     RDKit          3D

 23 26  0  0  0  0  0  0  0  0999 V2000
   -6.9637    4.1929  -19.9809 C   0  0  0  0  0  0  0  0  0  0  0  0
   -6.6761    5.1874  -18.9962 N   0  0  0  0  0  0  0  0  0  0  0  0
   -5.5122    5.9067  -18.9601 C   0  0  0  0  0  0  0  0  0  0  0  0
   -5.1948    6.2435  -17.7291 N   0  0  0  0  0  0  0  0  0  0  0  0
   -6.2267    5.7554  -16.9794 C   0  0  0  0  0  0  0  0  0  0  0  0
   -7.2517    5.2576  -17.7655 C   0  0  0  0  0  0  0  0  0  0  0  0
   -8.4698    4.5291  -17.3009 C   0  0  0  0  0  0  0  0  0  0  0  0
   -8.3278    4.1939  -15.8024 C   0  0  0  0  0  0  0  0  0  0  0  0
   -6.8368    4.0323  -15.4312 C   0  0  2  0  0  0  0  0  0  0  0  0
   -6.5286    3.1969  -14.2643 N   0  0  0  0  0  0  0  0  0  0  0  0
   -6.5796    3.7983  -13.0234 C   0  0  0  0  0  0  0  0  0  0  0  0
   -7.4288    4.8339  -12.8955 N   0  0  0  0  0  0  0  0  0  0  0  0
   -7.5625    5.4483  -11.7298 C   0  0  0  0  0  0  0  0  0  0  0  0
   -8.3792    6.5024  -11.6635 N   0  0  0  0  0  0  0  0  0  0  0  0
   -8.5224    7.1410  -10.4812 C   0  0  0  0  0  0  0  0  0  0  0  0
   -7.8747    6.7741   -9.3195 C   0  0  0  0  0  0  0  0  0  0  0  0
   -7.0152    5.6894   -9.3811 C   0  0  0  0  0  0  0  0  0  0  0  0
   -6.8438    5.0162  -10.5989 C   0  0  0  0  0  0  0  0  0  0  0  0
   -5.9511    3.9460  -10.7295 C   0  0  0  0  0  0  0  0  0  0  0  0
   -5.7941    3.3378  -11.9715 C   0  0  0  0  0  0  0  0  0  0  0  0
   -4.7326    2.3979  -12.1665 C   0  0  0  0  0  0  0  0  0  0  0  0
   -3.7887    1.7305  -12.2801 N   0  0  0  0  0  0  0  0  0  0  0  0
   -6.1208    5.4005  -15.5384 C   0  0  0  0  0  0  0  0  0  0  0  0
  1  2  1  0
  2  3  1  0
  3  4  2  0
  4  5  1  0
  5  6  2  0
  6  7  1  0
  7  8  1  0
  8  9  1  0
  9 10  1  1
 10 11  1  0
 11 12  2  0
 12 13  1  0
 13 14  2  0
 14 15  1  0
 15 16  2  0
 16 17  1  0
 17 18  2  0
 18 19  1  0
 19 20  2  0
 20 21  1  0
 21 22  3  0
  9 23  1  0
  6  2  1  0
 20 11  1  0
 23  5  1  0
 18 13  1  0
M  END
>  <energy_score>  (4991) 
-14.757022

>  <alias>  (4991) 
OBZJDFRZHIPBFI-UHFFFAOYSA-N-P35-P7-P35-601532

>  <HIPPO Pose ID>  (4991) 
89264

>  <smiles>  (4991) 
Cn1cnc2c1CCC(Nc1nc3ncccc3cc1C#N)C2

>  <inchikey>  (4991) 
OBZJDFRZHIPBFI-UHFFFAOYSA-N

>  <distance_score>  (4991) 
1.712906

>  <ref_mols>  (4991) 
Z0719a,Z0089a

>  <ref_pdb>  (4991) 
Z0089a

>  <HIPPO Compound ID>  (4991) 
142492

>  <name>  (4991) 
OBZJDFRZHIPBFI-UHFFFAOYSA-N-P35-P7-P35-601532

>  <inspiration_score>  (4991) 
None

$$$$
HHVOTRASIGVYAO-UHFFFAOYSA-N-P7-P7-P35-601532
     RDKit          3D

 24 26  0  0  0  0  0  0  0  0999 V2000
   -0.8019    5.6358  -21.5039 C   0  0  0  0  0  0  0  0  0  0  0  0
   -1.7982    4.7169  -21.0249 O   0  0  0  0  0  0  0  0  0  0  0  0
   -2.2683    4.9069  -19.7578 C   0  0  0  0  0  0  0  0  0  0  0  0
   -2.3073    3.9912  -18.9422 O   0  0  0  0  0  0  0  0  0  0  0  0
   -2.8297    6.3057  -19.4989 C   0  0  2  0  0  0  0  0  0  0  0  0
   -1.9696    7.1331  -18.5488 C   0  0  0  0  0  0  0  0  0  0  0  0
   -1.4947    8.4151  -19.1564 C   0  0  0  0  0  0  0  0  0  0  0  0
   -1.7757    9.7109  -18.7778 C   0  0  0  0  0  0  0  0  0  0  0  0
   -1.0727   10.5019  -19.6430 N   0  0  0  0  0  0  0  0  0  0  0  0
   -0.4064    9.6769  -20.5024 C   0  0  0  0  0  0  0  0  0  0  0  0
   -0.6434    8.4133  -20.2355 N   0  0  0  0  0  0  0  0  0  0  0  0
   -4.2531    6.2649  -19.1298 N   0  0  0  0  0  0  0  0  0  0  0  0
   -4.9451    5.5399  -18.2055 C   0  0  0  0  0  0  0  0  0  0  0  0
   -6.1562    5.2740  -18.7187 N   0  0  0  0  0  0  0  0  0  0  0  0
   -7.1391    4.7766  -17.9857 C   0  0  0  0  0  0  0  0  0  0  0  0
   -8.3017    4.5653  -18.5892 N   0  0  0  0  0  0  0  0  0  0  0  0
   -9.3557    4.1819  -17.8566 C   0  0  0  0  0  0  0  0  0  0  0  0
   -9.2866    3.9837  -16.4972 C   0  0  0  0  0  0  0  0  0  0  0  0
   -8.0698    4.1519  -15.8600 C   0  0  0  0  0  0  0  0  0  0  0  0
   -6.9667    4.5512  -16.6180 C   0  0  0  0  0  0  0  0  0  0  0  0
   -5.6940    4.7377  -16.0736 C   0  0  0  0  0  0  0  0  0  0  0  0
   -4.6519    5.2172  -16.8871 C   0  0  0  0  0  0  0  0  0  0  0  0
   -3.3766    5.3948  -16.2733 C   0  0  0  0  0  0  0  0  0  0  0  0
   -2.3710    5.5442  -15.7109 N   0  0  0  0  0  0  0  0  0  0  0  0
  1  2  1  0
  2  3  1  0
  3  4  2  0
  3  5  1  0
  5  6  1  1
  6  7  1  0
  7  8  2  0
  8  9  1  0
  9 10  1  0
 10 11  2  0
  5 12  1  0
 12 13  1  0
 13 14  2  0
 14 15  1  0
 15 16  2  0
 16 17  1  0
 17 18  2  0
 18 19  1  0
 19 20  2  0
 20 21  1  0
 21 22  2  0
 22 23  1  0
 23 24  3  0
 11  7  1  0
 22 13  1  0
 20 15  1  0
M  END
>  <energy_score>  (4992) 
-10.674324

>  <alias>  (4992) 
HHVOTRASIGVYAO-UHFFFAOYSA-N-P7-P7-P35-601532

>  <HIPPO Pose ID>  (4992) 
89265

>  <smiles>  (4992) 
COC(=O)C(Cc1c[nH]cn1)Nc1nc2ncccc2cc1C#N

>  <inchikey>  (4992) 
HHVOTRASIGVYAO-UHFFFAOYSA-N

>  <distance_score>  (4992) 
1.076486

>  <ref_mols>  (4992) 
Z0719a,Z0089a

>  <ref_pdb>  (4992) 
Z0089a

>  <HIPPO Compound ID>  (4992) 
142493

>  <name>  (4992) 
HHVOTRASIGVYAO-UHFFFAOYSA-N-P7-P7-P35-601532

>  <inspiration_score>  (4992) 
None

$$$$
SZCYIYWXOFTFLN-UHFFFAOYSA-N-P7-P7-P35-601532
     RDKit          3D

 24 26  0  0  0  0  0  0  0  0999 V2000
   -4.1205    8.6529  -16.5398 N   0  0  0  0  0  0  0  0  0  0  0  0
   -4.6703    7.7126  -16.9429 C   0  0  0  0  0  0  0  0  0  0  0  0
   -5.4276    6.5568  -17.3094 C   0  0  0  0  0  0  0  0  0  0  0  0
   -6.3620    6.0674  -16.4127 C   0  0  0  0  0  0  0  0  0  0  0  0
   -7.2839    5.1357  -16.8584 C   0  0  0  0  0  0  0  0  0  0  0  0
   -8.3020    4.7237  -16.0110 C   0  0  0  0  0  0  0  0  0  0  0  0
   -9.3409    4.0080  -16.5570 C   0  0  0  0  0  0  0  0  0  0  0  0
   -9.3010    3.7155  -17.9022 C   0  0  0  0  0  0  0  0  0  0  0  0
   -8.2611    4.0080  -18.7044 N   0  0  0  0  0  0  0  0  0  0  0  0
   -7.2492    4.7068  -18.1968 C   0  0  0  0  0  0  0  0  0  0  0  0
   -6.2142    5.0295  -18.9723 N   0  0  0  0  0  0  0  0  0  0  0  0
   -5.2988    5.9055  -18.5236 C   0  0  0  0  0  0  0  0  0  0  0  0
   -4.1845    6.0178  -19.3503 N   0  0  0  0  0  0  0  0  0  0  0  0
   -2.9078    5.4870  -18.7741 C   0  0  2  0  0  0  0  0  0  0  0  0
   -3.0262    4.2676  -17.8452 C   0  0  0  0  0  0  0  0  0  0  0  0
   -3.4064    4.3540  -16.3653 C   0  0  0  0  0  0  0  0  0  0  0  0
   -3.2480    5.3476  -15.4177 C   0  0  0  0  0  0  0  0  0  0  0  0
   -3.8181    4.8860  -14.2574 N   0  0  0  0  0  0  0  0  0  0  0  0
   -4.1835    3.6026  -14.4794 C   0  0  0  0  0  0  0  0  0  0  0  0
   -4.6231    2.8110  -13.5256 O   0  0  0  0  0  0  0  0  0  0  0  0
   -3.9755    3.2484  -15.7189 N   0  0  0  0  0  0  0  0  0  0  0  0
   -1.9405    6.5852  -18.3332 C   0  0  0  0  0  0  0  0  0  0  0  0
   -1.9441    7.7514  -18.6974 O   0  0  0  0  0  0  0  0  0  0  0  0
   -0.9440    6.1570  -17.5319 O   0  0  0  0  0  0  0  0  0  0  0  0
  1  2  3  0
  2  3  1  0
  3  4  2  0
  4  5  1  0
  5  6  2  0
  6  7  1  0
  7  8  2  0
  8  9  1  0
  9 10  2  0
 10 11  1  0
 11 12  2  0
 12 13  1  0
 13 14  1  0
 14 15  1  1
 15 16  1  0
 16 17  2  0
 17 18  1  0
 18 19  1  0
 19 20  1  0
 19 21  2  0
 14 22  1  0
 22 23  2  0
 22 24  1  0
 12  3  1  0
 21 16  1  0
 10  5  1  0
M  END
>  <energy_score>  (4993) 
-110.628236

>  <alias>  (4993) 
SZCYIYWXOFTFLN-UHFFFAOYSA-N-P7-P7-P35-601532

>  <HIPPO Pose ID>  (4993) 
89267

>  <smiles>  (4993) 
N#Cc1cc2cccnc2nc1NC(Cc1c[nH]c(O)n1)C(=O)O

>  <inchikey>  (4993) 
SZCYIYWXOFTFLN-UHFFFAOYSA-N

>  <distance_score>  (4993) 
1.773157

>  <ref_mols>  (4993) 
Z0719a,Z0089a

>  <ref_pdb>  (4993) 
Z0089a

>  <HIPPO Compound ID>  (4993) 
142494

>  <name>  (4993) 
SZCYIYWXOFTFLN-UHFFFAOYSA-N-P7-P7-P35-601532

>  <inspiration_score>  (4993) 
None

$$$$
QGGGNLBFBKHTNJ-UHFFFAOYSA-N-P35-P7-P35-601532
     RDKit          3D

 24 26  0  0  0  0  0  0  0  0999 V2000
   -4.0491    8.9952  -17.1870 N   0  0  0  0  0  0  0  0  0  0  0  0
   -4.6747    8.0459  -17.4236 C   0  0  0  0  0  0  0  0  0  0  0  0
   -5.4804    6.8845  -17.6316 C   0  0  0  0  0  0  0  0  0  0  0  0
   -6.4766    6.5712  -16.7256 C   0  0  0  0  0  0  0  0  0  0  0  0
   -7.3285    5.5141  -17.0175 C   0  0  0  0  0  0  0  0  0  0  0  0
   -8.3182    5.1433  -16.1159 C   0  0  0  0  0  0  0  0  0  0  0  0
   -9.2712    4.2462  -16.5373 C   0  0  0  0  0  0  0  0  0  0  0  0
   -9.1995    3.7782  -17.8291 C   0  0  0  0  0  0  0  0  0  0  0  0
   -8.1785    4.0288  -18.6643 N   0  0  0  0  0  0  0  0  0  0  0  0
   -7.2275    4.8631  -18.2598 C   0  0  0  0  0  0  0  0  0  0  0  0
   -6.1717    5.0766  -19.0393 N   0  0  0  0  0  0  0  0  0  0  0  0
   -5.2840    6.0229  -18.6983 C   0  0  0  0  0  0  0  0  0  0  0  0
   -4.1033    5.9893  -19.4347 N   0  0  0  0  0  0  0  0  0  0  0  0
   -2.8964    5.5604  -18.6527 C   0  0  1  0  0  0  0  0  0  0  0  0
   -3.1072    4.3071  -17.7817 C   0  0  0  0  0  0  0  0  0  0  0  0
   -3.5824    4.4216  -16.3344 C   0  0  0  0  0  0  0  0  0  0  0  0
   -3.6736    5.4832  -15.4553 C   0  0  0  0  0  0  0  0  0  0  0  0
   -4.2363    4.9897  -14.3034 N   0  0  0  0  0  0  0  0  0  0  0  0
   -4.3436    3.6462  -14.4498 C   0  0  0  0  0  0  0  0  0  0  0  0
   -4.8360    2.6656  -13.1287 S   0  0  0  0  0  0  0  0  0  0  0  0
   -3.9624    3.2690  -15.6428 N   0  0  0  0  0  0  0  0  0  0  0  0
   -1.8108    5.2059  -19.6916 C   0  0  0  0  0  0  0  0  0  0  0  0
   -1.9949    5.0071  -20.8876 O   0  0  0  0  0  0  0  0  0  0  0  0
   -0.5750    5.0885  -19.1647 O   0  0  0  0  0  0  0  0  0  0  0  0
  1  2  3  0
  2  3  1  0
  3  4  2  0
  4  5  1  0
  5  6  2  0
  6  7  1  0
  7  8  2  0
  8  9  1  0
  9 10  2  0
 10 11  1  0
 11 12  2  0
 12 13  1  0
 13 14  1  0
 14 15  1  6
 15 16  1  0
 16 17  2  0
 17 18  1  0
 18 19  1  0
 19 20  1  0
 19 21  2  0
 14 22  1  0
 22 23  2  0
 22 24  1  0
 12  3  1  0
 21 16  1  0
 10  5  1  0
M  END
>  <energy_score>  (4994) 
-23.276298

>  <alias>  (4994) 
QGGGNLBFBKHTNJ-UHFFFAOYSA-N-P35-P7-P35-601532

>  <HIPPO Pose ID>  (4994) 
89272

>  <smiles>  (4994) 
N#Cc1cc2cccnc2nc1NC(Cc1c[nH]c(S)n1)C(=O)O

>  <inchikey>  (4994) 
QGGGNLBFBKHTNJ-UHFFFAOYSA-N

>  <distance_score>  (4994) 
1.758632

>  <ref_mols>  (4994) 
Z0719a,Z0089a

>  <ref_pdb>  (4994) 
Z0089a

>  <HIPPO Compound ID>  (4994) 
142496

>  <name>  (4994) 
QGGGNLBFBKHTNJ-UHFFFAOYSA-N-P35-P7-P35-601532

>  <inspiration_score>  (4994) 
None

$$$$
IXUQILWYTHQCGX-UHFFFAOYSA-N-P35-P7-P35-601532
     RDKit          3D

 25 27  0  0  0  0  0  0  0  0999 V2000
    0.4201    5.2611  -19.7602 C   0  0  0  0  0  0  0  0  0  0  0  0
   -0.7179    5.2212  -18.8980 O   0  0  0  0  0  0  0  0  0  0  0  0
   -1.8767    4.8378  -19.4942 C   0  0  0  0  0  0  0  0  0  0  0  0
   -1.9790    4.5484  -20.6880 O   0  0  0  0  0  0  0  0  0  0  0  0
   -3.1045    4.8967  -18.5492 C   0  0  1  0  0  0  0  0  0  0  0  0
   -2.7129    5.3025  -17.1068 C   0  0  0  0  0  0  0  0  0  0  0  0
   -3.5916    4.8027  -15.9517 C   0  0  0  0  0  0  0  0  0  0  0  0
   -4.2675    5.5437  -14.9975 C   0  0  0  0  0  0  0  0  0  0  0  0
   -4.8247    4.6491  -14.1279 N   0  0  0  0  0  0  0  0  0  0  0  0
   -4.3306    3.4149  -14.4426 C   0  0  0  0  0  0  0  0  0  0  0  0
   -4.5165    2.2563  -13.5333 C   0  0  0  0  0  0  0  0  0  0  0  0
   -3.6560    3.4653  -15.5782 N   0  0  0  0  0  0  0  0  0  0  0  0
   -4.0600    5.8160  -19.2730 N   0  0  0  0  0  0  0  0  0  0  0  0
   -5.3009    5.8768  -18.6386 C   0  0  0  0  0  0  0  0  0  0  0  0
   -6.1779    4.9325  -19.0044 N   0  0  0  0  0  0  0  0  0  0  0  0
   -7.2769    4.7697  -18.2769 C   0  0  0  0  0  0  0  0  0  0  0  0
   -8.2177    3.9339  -18.6952 N   0  0  0  0  0  0  0  0  0  0  0  0
   -9.2644    3.7091  -17.8872 C   0  0  0  0  0  0  0  0  0  0  0  0
   -9.3768    4.2079  -16.6112 C   0  0  0  0  0  0  0  0  0  0  0  0
   -8.4475    5.1234  -16.1856 C   0  0  0  0  0  0  0  0  0  0  0  0
   -7.4321    5.4661  -17.0655 C   0  0  0  0  0  0  0  0  0  0  0  0
   -6.6028    6.5377  -16.7803 C   0  0  0  0  0  0  0  0  0  0  0  0
   -5.5516    6.7966  -17.6346 C   0  0  0  0  0  0  0  0  0  0  0  0
   -4.7515    7.9649  -17.4402 C   0  0  0  0  0  0  0  0  0  0  0  0
   -4.1584    8.9382  -17.2170 N   0  0  0  0  0  0  0  0  0  0  0  0
  1  2  1  0
  2  3  1  0
  3  4  2  0
  3  5  1  0
  5  6  1  1
  6  7  1  0
  7  8  2  0
  8  9  1  0
  9 10  1  0
 10 11  1  0
 10 12  2  0
  5 13  1  0
 13 14  1  0
 14 15  2  0
 15 16  1  0
 16 17  2  0
 17 18  1  0
 18 19  2  0
 19 20  1  0
 20 21  2  0
 21 22  1  0
 22 23  2  0
 23 24  1  0
 24 25  3  0
 12  7  1  0
 23 14  1  0
 21 16  1  0
M  END
>  <energy_score>  (4995) 
-18.830695

>  <alias>  (4995) 
IXUQILWYTHQCGX-UHFFFAOYSA-N-P35-P7-P35-601532

>  <HIPPO Pose ID>  (4995) 
89280

>  <smiles>  (4995) 
COC(=O)C(Cc1c[nH]c(C)n1)Nc1nc2ncccc2cc1C#N

>  <inchikey>  (4995) 
IXUQILWYTHQCGX-UHFFFAOYSA-N

>  <distance_score>  (4995) 
1.665195

>  <ref_mols>  (4995) 
Z0719a,Z0089a

>  <ref_pdb>  (4995) 
Z0089a

>  <HIPPO Compound ID>  (4995) 
142500

>  <name>  (4995) 
IXUQILWYTHQCGX-UHFFFAOYSA-N-P35-P7-P35-601532

>  <inspiration_score>  (4995) 
None

$$$$
CBQZGEMQTNAPAQ-UHFFFAOYSA-N-P7-P7-P35-601532
     RDKit          3D

 27 30  0  0  0  0  0  0  0  0999 V2000
   -2.5962    4.6636  -14.9450 N   0  0  0  0  0  0  0  0  0  0  0  0
   -3.5354    4.7118  -15.6260 C   0  0  0  0  0  0  0  0  0  0  0  0
   -4.6989    4.7474  -16.4546 C   0  0  0  0  0  0  0  0  0  0  0  0
   -5.9602    4.6639  -15.8481 C   0  0  0  0  0  0  0  0  0  0  0  0
   -7.0947    4.5552  -16.6573 C   0  0  0  0  0  0  0  0  0  0  0  0
   -8.3804    4.3319  -16.1431 C   0  0  0  0  0  0  0  0  0  0  0  0
   -9.4374    4.1766  -17.0266 C   0  0  0  0  0  0  0  0  0  0  0  0
   -9.1776    4.2809  -18.3733 C   0  0  0  0  0  0  0  0  0  0  0  0
   -7.9521    4.4957  -18.8713 N   0  0  0  0  0  0  0  0  0  0  0  0
   -6.9246    4.6195  -18.0493 C   0  0  0  0  0  0  0  0  0  0  0  0
   -5.7276    4.7646  -18.6018 N   0  0  0  0  0  0  0  0  0  0  0  0
   -4.6219    4.7659  -17.8512 C   0  0  0  0  0  0  0  0  0  0  0  0
   -3.4558    4.6092  -18.5984 N   0  0  0  0  0  0  0  0  0  0  0  0
   -2.4569    5.6934  -18.6026 C   0  0  1  0  0  0  0  0  0  0  0  0
   -1.2055    5.1254  -19.3367 C   0  0  0  0  0  0  0  0  0  0  0  0
    0.0982    5.8651  -19.1218 C   0  0  0  0  0  0  0  0  0  0  0  0
    0.9115    6.1776  -20.2213 C   0  0  0  0  0  0  0  0  0  0  0  0
    2.1330    6.8307  -20.0454 C   0  0  0  0  0  0  0  0  0  0  0  0
    2.5629    7.1718  -18.7659 C   0  0  0  0  0  0  0  0  0  0  0  0
    1.7759    6.8504  -17.6626 C   0  0  0  0  0  0  0  0  0  0  0  0
    0.5556    6.1936  -17.8378 C   0  0  0  0  0  0  0  0  0  0  0  0
   -3.0092    6.9460  -19.3134 C   0  0  0  0  0  0  0  0  0  0  0  0
   -2.2456    8.1835  -18.9927 C   0  0  0  0  0  0  0  0  0  0  0  0
   -1.4420    8.9489  -19.8100 C   0  0  0  0  0  0  0  0  0  0  0  0
   -0.9401    9.9300  -19.0022 N   0  0  0  0  0  0  0  0  0  0  0  0
   -1.4764    9.7547  -17.7592 C   0  0  0  0  0  0  0  0  0  0  0  0
   -2.2789    8.7164  -17.7230 N   0  0  0  0  0  0  0  0  0  0  0  0
  1  2  3  0
  2  3  1  0
  3  4  2  0
  4  5  1  0
  5  6  2  0
  6  7  1  0
  7  8  2  0
  8  9  1  0
  9 10  2  0
 10 11  1  0
 11 12  2  0
 12 13  1  0
 13 14  1  0
 14 15  1  6
 15 16  1  0
 16 17  2  0
 17 18  1  0
 18 19  2  0
 19 20  1  0
 20 21  2  0
 14 22  1  0
 22 23  1  0
 23 24  2  0
 24 25  1  0
 25 26  1  0
 26 27  2  0
 12  3  1  0
 21 16  1  0
 27 23  1  0
 10  5  1  0
M  END
>  <energy_score>  (4996) 
-14.908583

>  <alias>  (4996) 
CBQZGEMQTNAPAQ-UHFFFAOYSA-N-P7-P7-P35-601532

>  <HIPPO Pose ID>  (4996) 
89283

>  <smiles>  (4996) 
N#Cc1cc2cccnc2nc1NC(Cc1ccccc1)Cc1c[nH]cn1

>  <inchikey>  (4996) 
CBQZGEMQTNAPAQ-UHFFFAOYSA-N

>  <distance_score>  (4996) 
0.955483

>  <ref_mols>  (4996) 
Z0719a,Z0089a

>  <ref_pdb>  (4996) 
Z0089a

>  <HIPPO Compound ID>  (4996) 
142502

>  <name>  (4996) 
CBQZGEMQTNAPAQ-UHFFFAOYSA-N-P7-P7-P35-601532

>  <inspiration_score>  (4996) 
None

$$$$
MCBPQFSODJBRJI-UHFFFAOYSA-N-P64-P64-P84-601532
     RDKit          3D

 20 23  0  0  0  0  0  0  0  0999 V2000
   -9.2916    4.9196  -14.1704 O   0  0  0  0  0  0  0  0  0  0  0  0
   -8.2303    4.6417  -13.7548 C   0  0  0  0  0  0  0  0  0  0  0  0
   -6.8567    4.4838  -14.4985 N   0  0  0  0  0  0  0  0  0  0  0  0
   -6.5253    4.7143  -15.7932 C   0  0  0  0  0  0  0  0  0  0  0  0
   -7.5064    4.7056  -16.8697 C   0  0  0  0  0  0  0  0  0  0  0  0
   -7.0869    4.9117  -18.1359 C   0  0  0  0  0  0  0  0  0  0  0  0
   -5.7375    5.1772  -18.3709 N   0  0  0  0  0  0  0  0  0  0  0  0
   -5.0590    5.4966  -19.5214 C   0  0  0  0  0  0  0  0  0  0  0  0
   -3.7791    5.7636  -19.1048 C   0  0  0  0  0  0  0  0  0  0  0  0
   -2.7996    6.1990  -19.8931 O   0  0  0  0  0  0  0  0  0  0  0  0
   -3.6004    5.5804  -17.7809 N   0  0  0  0  0  0  0  0  0  0  0  0
   -4.7878    5.2147  -17.3569 C   0  0  0  0  0  0  0  0  0  0  0  0
   -5.2195    4.9183  -16.0495 C   0  0  0  0  0  0  0  0  0  0  0  0
   -7.8659    4.4473  -12.2698 C   0  0  1  0  0  0  0  0  0  0  0  0
   -7.7686    5.8042  -11.5660 C   0  0  0  0  0  0  0  0  0  0  0  0
   -7.8162    5.4385  -10.0837 C   0  0  0  0  0  0  0  0  0  0  0  0
   -8.3537    4.0435  -10.1102 C   0  0  0  0  0  0  0  0  0  0  0  0
   -9.0174    3.3804   -8.9538 C   0  0  0  0  0  0  0  0  0  0  0  0
   -7.6440    2.9442   -9.3648 C   0  0  0  0  0  0  0  0  0  0  0  0
   -8.7448    3.7078  -11.4500 O   0  0  0  0  0  0  0  0  0  0  0  0
  1  2  2  0
  2  3  1  0
  3  4  1  0
  4  5  1  0
  5  6  2  0
  6  7  1  0
  7  8  1  0
  8  9  2  0
  9 10  1  0
  9 11  1  0
 11 12  2  0
 12 13  1  0
 14  2  1  6
 14 15  1  0
 15 16  1  0
 16 17  1  0
 17 18  1  0
 18 19  1  0
 17 20  1  0
 13  4  2  0
 20 14  1  0
 12  7  1  0
 19 17  1  0
M  END
>  <energy_score>  (4997) 
-41.308771

>  <alias>  (4997) 
MCBPQFSODJBRJI-UHFFFAOYSA-N-P64-P64-P84-601532

>  <HIPPO Pose ID>  (4997) 
89297

>  <smiles>  (4997) 
O=C(Nc1ccn2cc(O)nc2c1)C1CCC2(CC2)O1

>  <inchikey>  (4997) 
MCBPQFSODJBRJI-UHFFFAOYSA-N

>  <distance_score>  (4997) 
1.184761

>  <ref_mols>  (4997) 
Z1046b,Z1495a

>  <ref_pdb>  (4997) 
Z0089a

>  <HIPPO Compound ID>  (4997) 
139115

>  <name>  (4997) 
MCBPQFSODJBRJI-UHFFFAOYSA-N-P64-P64-P84-601532

>  <inspiration_score>  (4997) 
None

$$$$
NZLVGEBVZYVMCP-UHFFFAOYSA-N-P64-P64-P84-601532
     RDKit          3D

 20 23  0  0  0  0  0  0  0  0999 V2000
   -9.5933    5.4111  -13.9874 O   0  0  0  0  0  0  0  0  0  0  0  0
   -8.5489    5.1400  -13.5300 C   0  0  0  0  0  0  0  0  0  0  0  0
   -7.1614    4.9624  -14.2166 N   0  0  0  0  0  0  0  0  0  0  0  0
   -6.8181    4.9869  -15.5316 C   0  0  0  0  0  0  0  0  0  0  0  0
   -7.8671    4.6631  -16.4793 C   0  0  0  0  0  0  0  0  0  0  0  0
   -7.6041    4.5869  -17.7939 C   0  0  0  0  0  0  0  0  0  0  0  0
   -8.9936    4.1283  -18.9386 Br  0  0  0  0  0  0  0  0  0  0  0  0
   -6.3081    4.8913  -18.2299 N   0  0  0  0  0  0  0  0  0  0  0  0
   -5.7320    4.9002  -19.4769 C   0  0  0  0  0  0  0  0  0  0  0  0
   -4.4856    5.4530  -19.3236 C   0  0  0  0  0  0  0  0  0  0  0  0
   -4.2181    5.6968  -18.0051 N   0  0  0  0  0  0  0  0  0  0  0  0
   -5.2932    5.2938  -17.3555 C   0  0  0  0  0  0  0  0  0  0  0  0
   -5.5688    5.2515  -15.9568 C   0  0  0  0  0  0  0  0  0  0  0  0
   -8.3631    4.8921  -12.0452 C   0  0  2  0  0  0  0  0  0  0  0  0
   -8.1212    6.1758  -11.2631 C   0  0  0  0  0  0  0  0  0  0  0  0
   -7.7469    5.6356   -9.8848 C   0  0  0  0  0  0  0  0  0  0  0  0
   -7.2305    4.2682  -10.2176 C   0  0  0  0  0  0  0  0  0  0  0  0
   -6.2097    3.5514   -9.4104 C   0  0  0  0  0  0  0  0  0  0  0  0
   -7.6366    3.0737   -9.3994 C   0  0  0  0  0  0  0  0  0  0  0  0
   -7.2728    4.0760  -11.6422 O   0  0  0  0  0  0  0  0  0  0  0  0
  1  2  2  0
  2  3  1  0
  3  4  1  0
  4  5  1  0
  5  6  2  0
  6  7  1  0
  6  8  1  0
  8  9  1  0
  9 10  2  0
 10 11  1  0
 11 12  2  0
 12 13  1  0
 14  2  1  6
 14 15  1  0
 15 16  1  0
 16 17  1  0
 17 18  1  0
 18 19  1  0
 17 20  1  0
 13  4  2  0
 20 14  1  0
 12  8  1  0
 19 17  1  0
M  END
>  <energy_score>  (4998) 
-40.391894

>  <alias>  (4998) 
NZLVGEBVZYVMCP-UHFFFAOYSA-N-P64-P64-P84-601532

>  <HIPPO Pose ID>  (4998) 
89299

>  <smiles>  (4998) 
O=C(Nc1cc(Br)n2ccnc2c1)C1CCC2(CC2)O1

>  <inchikey>  (4998) 
NZLVGEBVZYVMCP-UHFFFAOYSA-N

>  <distance_score>  (4998) 
1.363504

>  <ref_mols>  (4998) 
Z1046b,Z1495a

>  <ref_pdb>  (4998) 
Z0089a

>  <HIPPO Compound ID>  (4998) 
139116

>  <name>  (4998) 
NZLVGEBVZYVMCP-UHFFFAOYSA-N-P64-P64-P84-601532

>  <inspiration_score>  (4998) 
None

$$$$
JCWZHSLHSGJAIH-UHFFFAOYSA-N-P64-P64-P84-601532
     RDKit          3D

 20 23  0  0  0  0  0  0  0  0999 V2000
   -7.8617    6.5165  -13.4499 O   0  0  0  0  0  0  0  0  0  0  0  0
   -7.8042    5.3779  -13.7224 C   0  0  0  0  0  0  0  0  0  0  0  0
   -7.4720    4.6763  -15.0828 N   0  0  0  0  0  0  0  0  0  0  0  0
   -7.0780    5.2006  -16.2706 C   0  0  0  0  0  0  0  0  0  0  0  0
   -7.1513    4.3631  -17.4531 C   0  0  0  0  0  0  0  0  0  0  0  0
   -6.3041    4.5967  -18.4703 C   0  0  0  0  0  0  0  0  0  0  0  0
   -5.4858    5.7144  -18.4051 N   0  0  0  0  0  0  0  0  0  0  0  0
   -4.3626    6.0868  -19.0892 C   0  0  0  0  0  0  0  0  0  0  0  0
   -3.1525    5.0093  -20.0379 Br  0  0  0  0  0  0  0  0  0  0  0  0
   -4.1537    7.4078  -18.7883 C   0  0  0  0  0  0  0  0  0  0  0  0
   -4.9949    7.8041  -17.7861 N   0  0  0  0  0  0  0  0  0  0  0  0
   -5.6575    6.7126  -17.4578 C   0  0  0  0  0  0  0  0  0  0  0  0
   -6.4168    6.3730  -16.3073 C   0  0  0  0  0  0  0  0  0  0  0  0
   -7.9552    4.2434  -12.6938 C   0  0  1  0  0  0  0  0  0  0  0  0
   -6.5208    3.9674  -12.2314 C   0  0  0  0  0  0  0  0  0  0  0  0
   -6.6692    3.3826  -10.8484 C   0  0  0  0  0  0  0  0  0  0  0  0
   -7.9732    3.9199  -10.4071 C   0  0  0  0  0  0  0  0  0  0  0  0
   -8.1820    4.5030   -9.0458 C   0  0  0  0  0  0  0  0  0  0  0  0
   -8.7709    3.1617   -9.3958 C   0  0  0  0  0  0  0  0  0  0  0  0
   -8.6576    4.5600  -11.5008 O   0  0  0  0  0  0  0  0  0  0  0  0
  1  2  2  0
  2  3  1  0
  3  4  1  0
  4  5  1  0
  5  6  2  0
  6  7  1  0
  7  8  1  0
  8  9  1  0
  8 10  2  0
 10 11  1  0
 11 12  2  0
 12 13  1  0
 14  2  1  6
 14 15  1  0
 15 16  1  0
 16 17  1  0
 17 18  1  0
 18 19  1  0
 17 20  1  0
 13  4  2  0
 20 14  1  0
 12  7  1  0
 19 17  1  0
M  END
>  <energy_score>  (4999) 
-2.165686

>  <alias>  (4999) 
JCWZHSLHSGJAIH-UHFFFAOYSA-N-P64-P64-P84-601532

>  <HIPPO Pose ID>  (4999) 
89301

>  <smiles>  (4999) 
O=C(Nc1ccn2c(Br)cnc2c1)C1CCC2(CC2)O1

>  <inchikey>  (4999) 
JCWZHSLHSGJAIH-UHFFFAOYSA-N

>  <distance_score>  (4999) 
1.523581

>  <ref_mols>  (4999) 
Z1046b,Z1495a

>  <ref_pdb>  (4999) 
Z0089a

>  <HIPPO Compound ID>  (4999) 
139117

>  <name>  (4999) 
JCWZHSLHSGJAIH-UHFFFAOYSA-N-P64-P64-P84-601532

>  <inspiration_score>  (4999) 
None

$$$$
MZAVMXSHWNHJCS-UHFFFAOYSA-N-P64-P64-P84-601532
     RDKit          3D

 20 22  0  0  0  0  0  0  0  0999 V2000
   -6.5262    4.7990   -8.9376 C   0  0  0  0  0  0  0  0  0  0  0  0
   -7.5079    4.7547  -10.0962 C   0  0  0  0  0  0  0  0  0  0  0  0
   -8.2843    6.0694  -10.1573 C   0  0  0  0  0  0  0  0  0  0  0  0
   -8.3737    3.5130   -9.9695 C   0  0  0  0  0  0  0  0  0  0  0  0
   -8.7538    3.2509  -11.3898 C   0  0  0  0  0  0  0  0  0  0  0  0
   -7.5499    3.6842  -12.1770 C   0  0  1  0  0  0  0  0  0  0  0  0
   -7.9465    4.3049  -13.5451 C   0  0  0  0  0  0  0  0  0  0  0  0
   -9.0357    4.5066  -13.9235 O   0  0  0  0  0  0  0  0  0  0  0  0
   -6.5777    4.4730  -14.2719 N   0  0  0  0  0  0  0  0  0  0  0  0
   -6.2976    4.8100  -15.5574 C   0  0  0  0  0  0  0  0  0  0  0  0
   -7.3139    4.7065  -16.6066 C   0  0  0  0  0  0  0  0  0  0  0  0
   -6.9578    4.9138  -17.8907 C   0  0  0  0  0  0  0  0  0  0  0  0
   -5.6453    5.2830  -18.1711 N   0  0  0  0  0  0  0  0  0  0  0  0
   -5.0248    5.5741  -19.3566 C   0  0  0  0  0  0  0  0  0  0  0  0
   -3.7595    5.9624  -19.0014 C   0  0  0  0  0  0  0  0  0  0  0  0
   -2.8265    6.3786  -19.8529 O   0  0  0  0  0  0  0  0  0  0  0  0
   -3.5441    5.9117  -17.6726 N   0  0  0  0  0  0  0  0  0  0  0  0
   -4.6779    5.4602  -17.1881 C   0  0  0  0  0  0  0  0  0  0  0  0
   -5.0336    5.1573  -15.8567 C   0  0  0  0  0  0  0  0  0  0  0  0
   -6.8164    4.6250  -11.3605 O   0  0  0  0  0  0  0  0  0  0  0  0
  1  2  1  0
  2  3  1  0
  2  4  1  0
  4  5  1  0
  5  6  1  0
  6  7  1  6
  7  8  2  0
  7  9  1  0
  9 10  1  0
 10 11  1  0
 11 12  2  0
 12 13  1  0
 13 14  1  0
 14 15  2  0
 15 16  1  0
 15 17  1  0
 17 18  2  0
 18 19  1  0
  6 20  1  0
 20  2  1  0
 19 10  2  0
 18 13  1  0
M  END
>  <energy_score>  (5000) 
-42.131237

>  <alias>  (5000) 
MZAVMXSHWNHJCS-UHFFFAOYSA-N-P64-P64-P84-601532

>  <HIPPO Pose ID>  (5000) 
89309

>  <smiles>  (5000) 
CC1(C)CCC(C(=O)Nc2ccn3cc(O)nc3c2)O1

>  <inchikey>  (5000) 
MZAVMXSHWNHJCS-UHFFFAOYSA-N

>  <distance_score>  (5000) 
1.556868

>  <ref_mols>  (5000) 
Z1046b,Z1495a

>  <ref_pdb>  (5000) 
Z0089a

>  <HIPPO Compound ID>  (5000) 
139121

>  <name>  (5000) 
MZAVMXSHWNHJCS-UHFFFAOYSA-N-P64-P64-P84-601532

>  <inspiration_score>  (5000) 
None

$$$$
IGSFYKTWGJKWPO-UHFFFAOYSA-N-P84-P64-P84-601532
     RDKit          3D

 21 24  0  0  0  0  0  0  0  0999 V2000
   -8.7460    6.2278  -14.1001 O   0  0  0  0  0  0  0  0  0  0  0  0
   -7.7713    5.7529  -13.6600 C   0  0  0  0  0  0  0  0  0  0  0  0
   -6.5871    5.0330  -14.3742 N   0  0  0  0  0  0  0  0  0  0  0  0
   -6.3356    4.8496  -15.6951 C   0  0  0  0  0  0  0  0  0  0  0  0
   -7.3937    5.0010  -16.6873 C   0  0  0  0  0  0  0  0  0  0  0  0
   -7.0543    5.2377  -17.9678 C   0  0  0  0  0  0  0  0  0  0  0  0
   -5.7044    5.3146  -18.2925 N   0  0  0  0  0  0  0  0  0  0  0  0
   -5.0899    5.7843  -19.4225 C   0  0  0  0  0  0  0  0  0  0  0  0
   -3.7470    5.7165  -19.1523 C   0  0  0  0  0  0  0  0  0  0  0  0
   -2.8025    6.1411  -19.9964 O   0  0  0  0  0  0  0  0  0  0  0  0
   -3.4906    5.2008  -17.9286 N   0  0  0  0  0  0  0  0  0  0  0  0
   -4.6811    5.0151  -17.4019 C   0  0  0  0  0  0  0  0  0  0  0  0
   -5.0460    4.7276  -16.0652 C   0  0  0  0  0  0  0  0  0  0  0  0
   -7.3296    5.8077  -12.1891 C   0  0  1  0  0  0  0  0  0  0  0  0
   -8.3972    6.3418  -11.2639 C   0  0  0  0  0  0  0  0  0  0  0  0
   -8.0737    5.6948   -9.9367 C   0  0  0  0  0  0  0  0  0  0  0  0
   -7.5393    4.3320  -10.3590 C   0  0  0  0  0  0  0  0  0  0  0  0
   -6.6339    3.6568   -9.3041 C   0  0  0  0  0  0  0  0  0  0  0  0
   -7.8743    2.8888   -8.8145 C   0  0  0  0  0  0  0  0  0  0  0  0
   -8.4596    3.0906  -10.2205 C   0  0  0  0  0  0  0  0  0  0  0  0
   -6.9629    4.5274  -11.6740 O   0  0  0  0  0  0  0  0  0  0  0  0
  1  2  2  0
  2  3  1  0
  3  4  1  0
  4  5  1  0
  5  6  2  0
  6  7  1  0
  7  8  1  0
  8  9  2  0
  9 10  1  0
  9 11  1  0
 11 12  2  0
 12 13  1  0
 14  2  1  6
 14 15  1  0
 15 16  1  0
 16 17  1  0
 17 18  1  0
 18 19  1  0
 19 20  1  0
 17 21  1  0
 13  4  2  0
 21 14  1  0
 12  7  1  0
 20 17  1  0
M  END
>  <energy_score>  (5001) 
-33.571938

>  <alias>  (5001) 
IGSFYKTWGJKWPO-UHFFFAOYSA-N-P84-P64-P84-601532

>  <HIPPO Pose ID>  (5001) 
89314

>  <smiles>  (5001) 
O=C(Nc1ccn2cc(O)nc2c1)C1CCC2(CCC2)O1

>  <inchikey>  (5001) 
IGSFYKTWGJKWPO-UHFFFAOYSA-N

>  <distance_score>  (5001) 
1.250578

>  <ref_mols>  (5001) 
Z1046b,Z1495a

>  <ref_pdb>  (5001) 
Z0089a

>  <HIPPO Compound ID>  (5001) 
139123

>  <name>  (5001) 
IGSFYKTWGJKWPO-UHFFFAOYSA-N-P84-P64-P84-601532

>  <inspiration_score>  (5001) 
None

$$$$
QWHZXVIJCJVPSM-UHFFFAOYSA-N-P64-P64-P84-601532
     RDKit          3D

 21 23  0  0  0  0  0  0  0  0999 V2000
   -7.0000    2.3553  -10.6095 C   0  0  0  0  0  0  0  0  0  0  0  0
   -8.0137    3.4468  -10.2670 C   0  0  0  0  0  0  0  0  0  0  0  0
   -9.0906    2.8163   -9.3868 C   0  0  0  0  0  0  0  0  0  0  0  0
   -7.3440    4.6288   -9.5231 C   0  0  0  0  0  0  0  0  0  0  0  0
   -7.9573    5.9706   -9.9224 C   0  0  0  0  0  0  0  0  0  0  0  0
   -7.9040    6.1787  -11.4372 C   0  0  0  0  0  0  0  0  0  0  0  0
   -7.8603    4.8442  -12.1834 C   0  0  2  0  0  0  0  0  0  0  0  0
   -8.2293    5.0331  -13.6812 C   0  0  0  0  0  0  0  0  0  0  0  0
   -9.2664    4.7892  -14.1670 O   0  0  0  0  0  0  0  0  0  0  0  0
   -6.8865    5.5045  -14.3384 N   0  0  0  0  0  0  0  0  0  0  0  0
   -6.5535    5.6651  -15.6456 C   0  0  0  0  0  0  0  0  0  0  0  0
   -7.2430    4.9540  -16.7212 C   0  0  0  0  0  0  0  0  0  0  0  0
   -6.7001    4.9609  -17.9589 C   0  0  0  0  0  0  0  0  0  0  0  0
   -5.5456    5.7138  -18.1902 N   0  0  0  0  0  0  0  0  0  0  0  0
   -4.7248    5.8652  -19.2738 C   0  0  0  0  0  0  0  0  0  0  0  0
   -4.6815    4.9196  -20.8808 Br  0  0  0  0  0  0  0  0  0  0  0  0
   -3.8283    6.8561  -18.9723 C   0  0  0  0  0  0  0  0  0  0  0  0
   -3.9936    7.2701  -17.6901 N   0  0  0  0  0  0  0  0  0  0  0  0
   -4.9627    6.5158  -17.2175 C   0  0  0  0  0  0  0  0  0  0  0  0
   -5.4585    6.4036  -15.9032 C   0  0  0  0  0  0  0  0  0  0  0  0
   -8.6415    3.8977  -11.4823 O   0  0  0  0  0  0  0  0  0  0  0  0
  1  2  1  0
  2  3  1  0
  2  4  1  0
  4  5  1  0
  5  6  1  0
  6  7  1  0
  7  8  1  6
  8  9  2  0
  8 10  1  0
 10 11  1  0
 11 12  1  0
 12 13  2  0
 13 14  1  0
 14 15  1  0
 15 16  1  0
 15 17  2  0
 17 18  1  0
 18 19  2  0
 19 20  1  0
  7 21  1  0
 21  2  1  0
 20 11  2  0
 19 14  1  0
M  END
>  <energy_score>  (5002) 
-36.763114

>  <alias>  (5002) 
QWHZXVIJCJVPSM-UHFFFAOYSA-N-P64-P64-P84-601532

>  <HIPPO Pose ID>  (5002) 
89315

>  <smiles>  (5002) 
CC1(C)CCCC(C(=O)Nc2ccn3c(Br)cnc3c2)O1

>  <inchikey>  (5002) 
QWHZXVIJCJVPSM-UHFFFAOYSA-N

>  <distance_score>  (5002) 
1.518673

>  <ref_mols>  (5002) 
Z1046b,Z1495a

>  <ref_pdb>  (5002) 
Z0089a

>  <HIPPO Compound ID>  (5002) 
139124

>  <name>  (5002) 
QWHZXVIJCJVPSM-UHFFFAOYSA-N-P64-P64-P84-601532

>  <inspiration_score>  (5002) 
None

$$$$
IXQLMVZGVXBGIR-UHFFFAOYSA-N-P64-P64-P84-601532
     RDKit          3D

 21 23  0  0  0  0  0  0  0  0999 V2000
   -6.9366    2.4091  -10.5014 C   0  0  0  0  0  0  0  0  0  0  0  0
   -7.9430    3.5033  -10.1523 C   0  0  0  0  0  0  0  0  0  0  0  0
   -9.0506    2.8608   -9.3195 C   0  0  0  0  0  0  0  0  0  0  0  0
   -7.2842    4.6600   -9.3628 C   0  0  0  0  0  0  0  0  0  0  0  0
   -7.9040    6.0140   -9.7155 C   0  0  0  0  0  0  0  0  0  0  0  0
   -7.8396    6.2868  -11.2194 C   0  0  0  0  0  0  0  0  0  0  0  0
   -7.7487    4.9866  -12.0085 C   0  0  2  0  0  0  0  0  0  0  0  0
   -8.2032    5.1894  -13.4706 C   0  0  0  0  0  0  0  0  0  0  0  0
   -9.3253    5.2049  -13.8162 O   0  0  0  0  0  0  0  0  0  0  0  0
   -6.8770    5.2516  -14.3140 N   0  0  0  0  0  0  0  0  0  0  0  0
   -6.6872    5.2486  -15.6589 C   0  0  0  0  0  0  0  0  0  0  0  0
   -7.7719    4.8031  -16.5114 C   0  0  0  0  0  0  0  0  0  0  0  0
   -7.5746    4.6434  -17.8328 C   0  0  0  0  0  0  0  0  0  0  0  0
   -9.0065    4.0963  -18.8855 Br  0  0  0  0  0  0  0  0  0  0  0  0
   -6.3130    4.9549  -18.3611 N   0  0  0  0  0  0  0  0  0  0  0  0
   -5.7814    4.8413  -19.6223 C   0  0  0  0  0  0  0  0  0  0  0  0
   -4.5607    5.4679  -19.5873 C   0  0  0  0  0  0  0  0  0  0  0  0
   -4.2541    5.8685  -18.3173 N   0  0  0  0  0  0  0  0  0  0  0  0
   -5.2836    5.4924  -17.5858 C   0  0  0  0  0  0  0  0  0  0  0  0
   -5.4887    5.5682  -16.1826 C   0  0  0  0  0  0  0  0  0  0  0  0
   -8.5304    3.9891  -11.3693 O   0  0  0  0  0  0  0  0  0  0  0  0
  1  2  1  0
  2  3  1  0
  2  4  1  0
  4  5  1  0
  5  6  1  0
  6  7  1  0
  7  8  1  6
  8  9  2  0
  8 10  1  0
 10 11  1  0
 11 12  1  0
 12 13  2  0
 13 14  1  0
 13 15  1  0
 15 16  1  0
 16 17  2  0
 17 18  1  0
 18 19  2  0
 19 20  1  0
  7 21  1  0
 21  2  1  0
 20 11  2  0
 19 15  1  0
M  END
>  <energy_score>  (5003) 
-20.135247

>  <alias>  (5003) 
IXQLMVZGVXBGIR-UHFFFAOYSA-N-P64-P64-P84-601532

>  <HIPPO Pose ID>  (5003) 
89317

>  <smiles>  (5003) 
CC1(C)CCCC(C(=O)Nc2cc(Br)n3ccnc3c2)O1

>  <inchikey>  (5003) 
IXQLMVZGVXBGIR-UHFFFAOYSA-N

>  <distance_score>  (5003) 
1.229595

>  <ref_mols>  (5003) 
Z1046b,Z1495a

>  <ref_pdb>  (5003) 
Z0089a

>  <HIPPO Compound ID>  (5003) 
139125

>  <name>  (5003) 
IXQLMVZGVXBGIR-UHFFFAOYSA-N-P64-P64-P84-601532

>  <inspiration_score>  (5003) 
None

$$$$
AHOVIYFAVBCLQX-UHFFFAOYSA-N-P84-P64-P84-601532
     RDKit          3D

 21 24  0  0  0  0  0  0  0  0999 V2000
   -8.6659    4.6050   -8.7804 C   0  0  0  0  0  0  0  0  0  0  0  0
   -7.6413    4.7304   -9.8869 C   0  0  0  0  0  0  0  0  0  0  0  0
   -6.5217    5.6479   -9.4339 C   0  0  0  0  0  0  0  0  0  0  0  0
   -8.1375    5.2409  -11.1315 O   0  0  0  0  0  0  0  0  0  0  0  0
   -7.8241    4.1440  -12.0638 C   0  0  1  0  0  0  0  0  0  0  0  0
   -8.0865    4.4863  -13.5995 C   0  0  0  0  0  0  0  0  0  0  0  0
   -9.1159    4.9097  -13.9809 O   0  0  0  0  0  0  0  0  0  0  0  0
   -6.7379    4.2500  -14.3669 N   0  0  0  0  0  0  0  0  0  0  0  0
   -6.3805    4.5579  -15.6527 C   0  0  0  0  0  0  0  0  0  0  0  0
   -4.9110    4.5877  -15.7766 C   0  0  0  0  0  0  0  0  0  0  0  0
   -4.3273    4.9962  -16.9082 C   0  0  0  0  0  0  0  0  0  0  0  0
   -5.1299    5.4511  -17.9301 N   0  0  0  0  0  0  0  0  0  0  0  0
   -4.7396    6.0564  -19.0913 C   0  0  0  0  0  0  0  0  0  0  0  0
   -5.9024    6.5262  -19.6396 C   0  0  0  0  0  0  0  0  0  0  0  0
   -6.9785    6.2168  -18.8462 N   0  0  0  0  0  0  0  0  0  0  0  0
   -6.5164    5.4596  -17.8731 C   0  0  0  0  0  0  0  0  0  0  0  0
   -7.1465    4.8320  -16.7383 C   0  0  0  0  0  0  0  0  0  0  0  0
   -8.9288    4.3214  -16.9717 Br  0  0  0  0  0  0  0  0  0  0  0  0
   -6.3953    3.5602  -11.6305 C   0  0  0  0  0  0  0  0  0  0  0  0
   -7.1991    3.3278  -10.3323 C   0  0  2  0  0  0  0  0  0  0  0  0
   -8.2994    2.8238  -11.3622 C   0  0  0  0  0  0  0  0  0  0  0  0
  1  2  1  0
  2  3  1  0
  2  4  1  0
  4  5  1  0
  5  6  1  6
  6  7  2  0
  6  8  1  0
  8  9  1  0
  9 10  1  0
 10 11  2  0
 11 12  1  0
 12 13  1  0
 13 14  2  0
 14 15  1  0
 15 16  2  0
 16 17  1  0
 17 18  1  0
  5 19  1  0
 20 19  1  6
 20 21  1  0
 20  2  1  0
 21  5  1  0
 17  9  2  0
 16 12  1  0
M  END
>  <energy_score>  (5004) 
-29.646402

>  <alias>  (5004) 
AHOVIYFAVBCLQX-UHFFFAOYSA-N-P84-P64-P84-601532

>  <HIPPO Pose ID>  (5004) 
89320

>  <smiles>  (5004) 
CC1(C)OC2(C(=O)Nc3ccn4ccnc4c3Br)CC1C2

>  <inchikey>  (5004) 
AHOVIYFAVBCLQX-UHFFFAOYSA-N

>  <distance_score>  (5004) 
1.353595

>  <ref_mols>  (5004) 
Z1046b,Z1495a

>  <ref_pdb>  (5004) 
Z0089a

>  <HIPPO Compound ID>  (5004) 
139126

>  <name>  (5004) 
AHOVIYFAVBCLQX-UHFFFAOYSA-N-P84-P64-P84-601532

>  <inspiration_score>  (5004) 
None

$$$$
YDSSBYHSJOFZNR-UHFFFAOYSA-N-P84-P64-P84-601532
     RDKit          3D

 21 24  0  0  0  0  0  0  0  0999 V2000
   -8.4930    2.0982   -7.8364 C   0  0  0  0  0  0  0  0  0  0  0  0
   -8.2303    3.1397   -8.8543 C   0  0  0  0  0  0  0  0  0  0  0  0
   -8.5688    4.4783   -8.8506 C   0  0  0  0  0  0  0  0  0  0  0  0
   -8.2360    4.9466  -10.0972 N   0  0  0  0  0  0  0  0  0  0  0  0
   -8.4971    6.1775  -10.7034 C   0  0  0  0  0  0  0  0  0  0  0  0
   -8.0866    6.3920  -11.9698 C   0  0  0  0  0  0  0  0  0  0  0  0
   -7.2659    5.3780  -12.6164 C   0  0  0  0  0  0  0  0  0  0  0  0
   -6.7322    5.6213  -13.8425 N   0  0  0  0  0  0  0  0  0  0  0  0
   -5.3340    5.2830  -14.4161 C   0  0  0  0  0  0  0  0  0  0  0  0
   -4.3940    4.8104  -13.8980 O   0  0  0  0  0  0  0  0  0  0  0  0
   -5.3226    5.5653  -15.9469 C   0  0  1  0  0  0  0  0  0  0  0  0
   -4.0749    6.1110  -16.7178 C   0  0  0  0  0  0  0  0  0  0  0  0
   -4.7855    5.2691  -17.8580 C   0  0  1  0  0  0  0  0  0  0  0  0
   -4.9420    4.2487  -16.7217 C   0  0  0  0  0  0  0  0  0  0  0  0
   -6.1951    5.8706  -18.0123 C   0  0  0  0  0  0  0  0  0  0  0  0
   -7.2121    4.8953  -18.5946 C   0  0  0  0  0  0  0  0  0  0  0  0
   -6.0660    7.1523  -18.8228 C   0  0  0  0  0  0  0  0  0  0  0  0
   -6.5145    6.1203  -16.6161 O   0  0  0  0  0  0  0  0  0  0  0  0
   -7.0138    4.1991  -12.0090 C   0  0  0  0  0  0  0  0  0  0  0  0
   -7.5640    3.9186  -10.7337 C   0  0  0  0  0  0  0  0  0  0  0  0
   -7.5613    2.8250  -10.0096 N   0  0  0  0  0  0  0  0  0  0  0  0
  1  2  1  0
  2  3  2  0
  3  4  1  0
  4  5  1  0
  5  6  2  0
  6  7  1  0
  7  8  1  0
  8  9  1  0
  9 10  2  0
 11  9  1  1
 11 12  1  0
 13 12  1  1
 13 14  1  0
 13 15  1  0
 15 16  1  0
 15 17  1  0
 15 18  1  0
  7 19  2  0
 19 20  1  0
 20 21  2  0
 21  2  1  0
 20  4  1  0
 14 11  1  0
 18 11  1  0
M  END
>  <energy_score>  (5005) 
-29.581054

>  <alias>  (5005) 
YDSSBYHSJOFZNR-UHFFFAOYSA-N-P84-P64-P84-601532

>  <HIPPO Pose ID>  (5005) 
89326

>  <smiles>  (5005) 
Cc1cn2ccc(NC(=O)C34CC(C3)C(C)(C)O4)cc2n1

>  <inchikey>  (5005) 
YDSSBYHSJOFZNR-UHFFFAOYSA-N

>  <distance_score>  (5005) 
1.471215

>  <ref_mols>  (5005) 
Z1046b,Z1495a

>  <ref_pdb>  (5005) 
Z0089a

>  <HIPPO Compound ID>  (5005) 
139129

>  <name>  (5005) 
YDSSBYHSJOFZNR-UHFFFAOYSA-N-P84-P64-P84-601532

>  <inspiration_score>  (5005) 
None

$$$$
VLONOIJEMXLXJV-UHFFFAOYSA-N-P64-P64-P84-601532
     RDKit          3D

 21 24  0  0  0  0  0  0  0  0999 V2000
   -8.7198    4.2040  -18.8555 C   0  0  0  0  0  0  0  0  0  0  0  0
   -7.4514    4.8317  -18.4310 C   0  0  0  0  0  0  0  0  0  0  0  0
   -6.1354    4.4852  -18.6565 C   0  0  0  0  0  0  0  0  0  0  0  0
   -5.4891    4.9771  -17.5501 N   0  0  0  0  0  0  0  0  0  0  0  0
   -4.3811    4.5051  -16.8594 C   0  0  0  0  0  0  0  0  0  0  0  0
   -4.2184    4.8680  -15.5678 C   0  0  0  0  0  0  0  0  0  0  0  0
   -5.1399    5.8316  -14.9780 C   0  0  0  0  0  0  0  0  0  0  0  0
   -5.3919    5.8741  -13.6381 N   0  0  0  0  0  0  0  0  0  0  0  0
   -6.2597    6.8700  -12.7993 C   0  0  0  0  0  0  0  0  0  0  0  0
   -6.8232    7.8464  -13.1243 O   0  0  0  0  0  0  0  0  0  0  0  0
   -6.3745    6.2965  -11.3826 C   0  0  1  0  0  0  0  0  0  0  0  0
   -7.7064    6.7446  -10.7853 C   0  0  0  0  0  0  0  0  0  0  0  0
   -7.9458    5.7434   -9.6836 C   0  0  0  0  0  0  0  0  0  0  0  0
   -7.3564    4.4591  -10.2597 C   0  0  0  0  0  0  0  0  0  0  0  0
   -6.7734    3.5283   -9.1684 C   0  0  0  0  0  0  0  0  0  0  0  0
   -8.1481    2.8364   -9.1229 C   0  0  0  0  0  0  0  0  0  0  0  0
   -8.3209    3.2847  -10.5889 C   0  0  0  0  0  0  0  0  0  0  0  0
   -6.4454    4.8657  -11.3201 O   0  0  0  0  0  0  0  0  0  0  0  0
   -5.9996    6.4981  -15.7690 C   0  0  0  0  0  0  0  0  0  0  0  0
   -6.3138    5.9419  -17.0292 C   0  0  0  0  0  0  0  0  0  0  0  0
   -7.4866    5.9014  -17.5956 N   0  0  0  0  0  0  0  0  0  0  0  0
  1  2  1  0
  2  3  2  0
  3  4  1  0
  4  5  1  0
  5  6  2  0
  6  7  1  0
  7  8  1  0
  8  9  1  0
  9 10  2  0
 11  9  1  6
 11 12  1  0
 12 13  1  0
 13 14  1  0
 14 15  1  0
 15 16  1  0
 16 17  1  0
 14 18  1  0
  7 19  2  0
 19 20  1  0
 20 21  2  0
 21  2  1  0
 20  4  1  0
 18 11  1  0
 17 14  1  0
M  END
>  <energy_score>  (5006) 
-8.250188

>  <alias>  (5006) 
VLONOIJEMXLXJV-UHFFFAOYSA-N-P64-P64-P84-601532

>  <HIPPO Pose ID>  (5006) 
89327

>  <smiles>  (5006) 
Cc1cn2ccc(NC(=O)C3CCC4(CCC4)O3)cc2n1

>  <inchikey>  (5006) 
VLONOIJEMXLXJV-UHFFFAOYSA-N

>  <distance_score>  (5006) 
1.991787

>  <ref_mols>  (5006) 
Z1046b,Z1495a

>  <ref_pdb>  (5006) 
Z0089a

>  <HIPPO Compound ID>  (5006) 
139130

>  <name>  (5006) 
VLONOIJEMXLXJV-UHFFFAOYSA-N-P64-P64-P84-601532

>  <inspiration_score>  (5006) 
None

$$$$
KJZZHNXCMGIAHM-UHFFFAOYSA-N-P64-P64-P84-601532
     RDKit          3D

 21 24  0  0  0  0  0  0  0  0999 V2000
   -9.2945    5.5955  -14.3605 O   0  0  0  0  0  0  0  0  0  0  0  0
   -8.4165    5.0398  -13.8226 C   0  0  0  0  0  0  0  0  0  0  0  0
   -7.0359    4.5792  -14.3631 N   0  0  0  0  0  0  0  0  0  0  0  0
   -6.5225    4.6201  -15.6195 C   0  0  0  0  0  0  0  0  0  0  0  0
   -7.3903    4.8610  -16.7683 C   0  0  0  0  0  0  0  0  0  0  0  0
   -6.8400    5.1310  -17.9667 C   0  0  0  0  0  0  0  0  0  0  0  0
   -5.4526    5.1591  -18.0747 N   0  0  0  0  0  0  0  0  0  0  0  0
   -4.6249    5.5641  -19.0875 C   0  0  0  0  0  0  0  0  0  0  0  0
   -5.0456    6.3825  -20.7307 Br  0  0  0  0  0  0  0  0  0  0  0  0
   -3.3431    5.3571  -18.6472 C   0  0  0  0  0  0  0  0  0  0  0  0
   -3.3313    4.9058  -17.3625 N   0  0  0  0  0  0  0  0  0  0  0  0
   -4.6005    4.8156  -17.0250 C   0  0  0  0  0  0  0  0  0  0  0  0
   -5.1884    4.5166  -15.7708 C   0  0  0  0  0  0  0  0  0  0  0  0
   -8.4088    4.7190  -12.3355 C   0  0  2  0  0  0  0  0  0  0  0  0
   -8.0049    5.9439  -11.5079 C   0  0  0  0  0  0  0  0  0  0  0  0
   -7.3009    5.3851  -10.2675 C   0  0  0  0  0  0  0  0  0  0  0  0
   -7.4748    3.8794  -10.4311 C   0  0  0  0  0  0  0  0  0  0  0  0
   -8.6893    3.3216   -9.6407 C   0  0  0  0  0  0  0  0  0  0  0  0
   -7.7107    2.8609   -8.5608 C   0  0  0  0  0  0  0  0  0  0  0  0
   -6.6074    2.8853   -9.6336 C   0  0  0  0  0  0  0  0  0  0  0  0
   -7.5346    3.7073  -11.8642 O   0  0  0  0  0  0  0  0  0  0  0  0
  1  2  2  0
  2  3  1  0
  3  4  1  0
  4  5  1  0
  5  6  2  0
  6  7  1  0
  7  8  1  0
  8  9  1  0
  8 10  2  0
 10 11  1  0
 11 12  2  0
 12 13  1  0
 14  2  1  6
 14 15  1  0
 15 16  1  0
 16 17  1  0
 17 18  1  0
 18 19  1  0
 19 20  1  0
 17 21  1  0
 13  4  2  0
 21 14  1  0
 12  7  1  0
 20 17  1  0
M  END
>  <energy_score>  (5007) 
-39.105392

>  <alias>  (5007) 
KJZZHNXCMGIAHM-UHFFFAOYSA-N-P64-P64-P84-601532

>  <HIPPO Pose ID>  (5007) 
89329

>  <smiles>  (5007) 
O=C(Nc1ccn2c(Br)cnc2c1)C1CCC2(CCC2)O1

>  <inchikey>  (5007) 
KJZZHNXCMGIAHM-UHFFFAOYSA-N

>  <distance_score>  (5007) 
1.32501

>  <ref_mols>  (5007) 
Z1046b,Z1495a

>  <ref_pdb>  (5007) 
Z0089a

>  <HIPPO Compound ID>  (5007) 
139131

>  <name>  (5007) 
KJZZHNXCMGIAHM-UHFFFAOYSA-N-P64-P64-P84-601532

>  <inspiration_score>  (5007) 
None

$$$$
JPRRVFLGTZSFFA-UHFFFAOYSA-N-P64-P64-P84-601532
     RDKit          3D

 21 24  0  0  0  0  0  0  0  0999 V2000
   -9.5301    5.6859  -14.0939 O   0  0  0  0  0  0  0  0  0  0  0  0
   -8.5036    5.3789  -13.6208 C   0  0  0  0  0  0  0  0  0  0  0  0
   -7.1248    5.1134  -14.2895 N   0  0  0  0  0  0  0  0  0  0  0  0
   -6.7730    5.0805  -15.5998 C   0  0  0  0  0  0  0  0  0  0  0  0
   -7.8258    4.7253  -16.5308 C   0  0  0  0  0  0  0  0  0  0  0  0
   -7.5700    4.6066  -17.8428 C   0  0  0  0  0  0  0  0  0  0  0  0
   -8.9703    4.1153  -18.9598 Br  0  0  0  0  0  0  0  0  0  0  0  0
   -6.2748    4.8930  -18.2932 N   0  0  0  0  0  0  0  0  0  0  0  0
   -5.7055    4.8681  -19.5430 C   0  0  0  0  0  0  0  0  0  0  0  0
   -4.4554    5.4180  -19.4096 C   0  0  0  0  0  0  0  0  0  0  0  0
   -4.1784    5.6918  -18.0991 N   0  0  0  0  0  0  0  0  0  0  0  0
   -5.2525    5.3125  -17.4342 C   0  0  0  0  0  0  0  0  0  0  0  0
   -5.5218    5.3155  -16.0339 C   0  0  0  0  0  0  0  0  0  0  0  0
   -8.3565    5.1005  -12.1423 C   0  0  2  0  0  0  0  0  0  0  0  0
   -8.1225    6.3354  -11.2956 C   0  0  0  0  0  0  0  0  0  0  0  0
   -7.7933    5.7452   -9.9192 C   0  0  0  0  0  0  0  0  0  0  0  0
   -7.4791    4.2750  -10.2354 C   0  0  0  0  0  0  0  0  0  0  0  0
   -6.4357    3.5482   -9.3739 C   0  0  0  0  0  0  0  0  0  0  0  0
   -7.5955    3.0327   -8.4987 C   0  0  0  0  0  0  0  0  0  0  0  0
   -8.5176    3.2449   -9.6940 C   0  0  0  0  0  0  0  0  0  0  0  0
   -7.3317    4.2429  -11.6756 O   0  0  0  0  0  0  0  0  0  0  0  0
  1  2  2  0
  2  3  1  0
  3  4  1  0
  4  5  1  0
  5  6  2  0
  6  7  1  0
  6  8  1  0
  8  9  1  0
  9 10  2  0
 10 11  1  0
 11 12  2  0
 12 13  1  0
 14  2  1  6
 14 15  1  0
 15 16  1  0
 16 17  1  0
 17 18  1  0
 18 19  1  0
 19 20  1  0
 17 21  1  0
 13  4  2  0
 21 14  1  0
 12  8  1  0
 20 17  1  0
M  END
>  <energy_score>  (5008) 
-18.556365

>  <alias>  (5008) 
JPRRVFLGTZSFFA-UHFFFAOYSA-N-P64-P64-P84-601532

>  <HIPPO Pose ID>  (5008) 
89331

>  <smiles>  (5008) 
O=C(Nc1cc(Br)n2ccnc2c1)C1CCC2(CCC2)O1

>  <inchikey>  (5008) 
JPRRVFLGTZSFFA-UHFFFAOYSA-N

>  <distance_score>  (5008) 
1.125653

>  <ref_mols>  (5008) 
Z1046b,Z1495a

>  <ref_pdb>  (5008) 
Z0089a

>  <HIPPO Compound ID>  (5008) 
139132

>  <name>  (5008) 
JPRRVFLGTZSFFA-UHFFFAOYSA-N-P64-P64-P84-601532

>  <inspiration_score>  (5008) 
None

$$$$
CMNXVPKWMYVWIN-UHFFFAOYSA-N-P84-P64-P84-601532
     RDKit          3D

 21 24  0  0  0  0  0  0  0  0999 V2000
   -8.5563    4.6121   -8.5248 C   0  0  0  0  0  0  0  0  0  0  0  0
   -7.9565    4.4922   -9.9024 C   0  0  2  0  0  0  0  0  0  0  0  0
   -7.6019    3.0551  -10.2684 C   0  0  0  0  0  0  0  0  0  0  0  0
   -7.5484    3.1170  -11.7850 C   0  0  0  0  0  0  0  0  0  0  0  0
   -7.8994    4.5826  -12.0729 C   0  0  2  0  0  0  0  0  0  0  0  0
   -8.2832    4.8009  -13.5742 C   0  0  0  0  0  0  0  0  0  0  0  0
   -9.3198    5.1990  -13.9552 O   0  0  0  0  0  0  0  0  0  0  0  0
   -6.9640    4.4723  -14.3672 N   0  0  0  0  0  0  0  0  0  0  0  0
   -6.6568    4.6488  -15.6784 C   0  0  0  0  0  0  0  0  0  0  0  0
   -7.6741    4.8811  -16.6935 C   0  0  0  0  0  0  0  0  0  0  0  0
   -7.2861    5.2067  -17.9427 C   0  0  0  0  0  0  0  0  0  0  0  0
   -5.9263    5.3320  -18.2175 N   0  0  0  0  0  0  0  0  0  0  0  0
   -5.2770    5.8143  -19.3244 C   0  0  0  0  0  0  0  0  0  0  0  0
   -3.9423    5.7668  -19.0073 C   0  0  0  0  0  0  0  0  0  0  0  0
   -2.9719    6.1940  -19.8218 O   0  0  0  0  0  0  0  0  0  0  0  0
   -3.7252    5.2603  -17.7714 N   0  0  0  0  0  0  0  0  0  0  0  0
   -4.9315    5.0423  -17.2949 C   0  0  0  0  0  0  0  0  0  0  0  0
   -5.3463    4.6570  -15.9996 C   0  0  0  0  0  0  0  0  0  0  0  0
   -6.7405    5.5118  -11.6564 C   0  0  0  0  0  0  0  0  0  0  0  0
   -6.7916    5.4491  -10.1350 C   0  0  0  0  0  0  0  0  0  0  0  0
   -8.8160    4.8651  -11.0021 O   0  0  0  0  0  0  0  0  0  0  0  0
  2  1  1  1
  2  3  1  0
  3  4  1  0
  4  5  1  0
  5  6  1  6
  6  7  2  0
  6  8  1  0
  8  9  1  0
  9 10  1  0
 10 11  2  0
 11 12  1  0
 12 13  1  0
 13 14  2  0
 14 15  1  0
 14 16  1  0
 16 17  2  0
 17 18  1  0
  5 19  1  0
 19 20  1  0
  5 21  1  0
 20  2  1  0
 21  2  1  0
 18  9  2  0
 17 12  1  0
M  END
>  <energy_score>  (5009) 
-37.736989

>  <alias>  (5009) 
CMNXVPKWMYVWIN-UHFFFAOYSA-N-P84-P64-P84-601532

>  <HIPPO Pose ID>  (5009) 
89338

>  <smiles>  (5009) 
CC12CCC(C(=O)Nc3ccn4cc(O)nc4c3)(CC1)O2

>  <inchikey>  (5009) 
CMNXVPKWMYVWIN-UHFFFAOYSA-N

>  <distance_score>  (5009) 
1.184659

>  <ref_mols>  (5009) 
Z1046b,Z1495a

>  <ref_pdb>  (5009) 
Z0089a

>  <HIPPO Compound ID>  (5009) 
139135

>  <name>  (5009) 
CMNXVPKWMYVWIN-UHFFFAOYSA-N-P84-P64-P84-601532

>  <inspiration_score>  (5009) 
None

$$$$
DDDFPKJWUVENTE-UHFFFAOYSA-N-P64-P64-P84-601532
     RDKit          3D

 21 24  0  0  0  0  0  0  0  0999 V2000
   -8.3662    4.5609   -8.5732 C   0  0  0  0  0  0  0  0  0  0  0  0
   -7.8645    4.4585   -9.9918 C   0  0  2  0  0  0  0  0  0  0  0  0
   -8.3210    3.2061  -10.7413 C   0  0  0  0  0  0  0  0  0  0  0  0
   -8.1914    3.6405  -12.1997 C   0  0  0  0  0  0  0  0  0  0  0  0
   -7.6097    5.0485  -12.0707 C   0  0  2  0  0  0  0  0  0  0  0  0
   -7.5421    5.9808  -13.3185 C   0  0  0  0  0  0  0  0  0  0  0  0
   -7.6658    7.1438  -13.2267 O   0  0  0  0  0  0  0  0  0  0  0  0
   -7.1936    5.0925  -14.5617 N   0  0  0  0  0  0  0  0  0  0  0  0
   -6.8571    5.4444  -15.8305 C   0  0  0  0  0  0  0  0  0  0  0  0
   -6.9545    4.4405  -16.8771 C   0  0  0  0  0  0  0  0  0  0  0  0
   -6.2101    4.5806  -17.9892 C   0  0  0  0  0  0  0  0  0  0  0  0
   -5.4557    5.7336  -18.1453 N   0  0  0  0  0  0  0  0  0  0  0  0
   -4.4060    6.0580  -18.9589 C   0  0  0  0  0  0  0  0  0  0  0  0
   -3.1881    4.9168  -19.8198 Br  0  0  0  0  0  0  0  0  0  0  0  0
   -4.2525    7.4166  -18.8573 C   0  0  0  0  0  0  0  0  0  0  0  0
   -5.0332    7.9056  -17.8466 N   0  0  0  0  0  0  0  0  0  0  0  0
   -5.6033    6.8381  -17.3220 C   0  0  0  0  0  0  0  0  0  0  0  0
   -6.2526    6.6213  -16.0770 C   0  0  0  0  0  0  0  0  0  0  0  0
   -6.1631    4.9514  -11.5519 C   0  0  0  0  0  0  0  0  0  0  0  0
   -6.3543    4.6299  -10.0805 C   0  0  0  0  0  0  0  0  0  0  0  0
   -8.2960    5.5136  -10.8849 O   0  0  0  0  0  0  0  0  0  0  0  0
  2  1  1  1
  2  3  1  0
  3  4  1  0
  4  5  1  0
  5  6  1  6
  6  7  2  0
  6  8  1  0
  8  9  1  0
  9 10  1  0
 10 11  2  0
 11 12  1  0
 12 13  1  0
 13 14  1  0
 13 15  2  0
 15 16  1  0
 16 17  2  0
 17 18  1  0
  5 19  1  0
 19 20  1  0
  5 21  1  0
 20  2  1  0
 21  2  1  0
 18  9  2  0
 17 12  1  0
M  END
>  <energy_score>  (5010) 
-17.831445

>  <alias>  (5010) 
DDDFPKJWUVENTE-UHFFFAOYSA-N-P64-P64-P84-601532

>  <HIPPO Pose ID>  (5010) 
89341

>  <smiles>  (5010) 
CC12CCC(C(=O)Nc3ccn4c(Br)cnc4c3)(CC1)O2

>  <inchikey>  (5010) 
DDDFPKJWUVENTE-UHFFFAOYSA-N

>  <distance_score>  (5010) 
1.527967

>  <ref_mols>  (5010) 
Z1046b,Z1495a

>  <ref_pdb>  (5010) 
Z0089a

>  <HIPPO Compound ID>  (5010) 
139137

>  <name>  (5010) 
DDDFPKJWUVENTE-UHFFFAOYSA-N-P64-P64-P84-601532

>  <inspiration_score>  (5010) 
None

$$$$
NEVNSZIOHAQAPB-UHFFFAOYSA-N-P64-P64-P84-601532
     RDKit          3D

 21 24  0  0  0  0  0  0  0  0999 V2000
   -8.5318    4.7804   -8.7105 C   0  0  0  0  0  0  0  0  0  0  0  0
   -7.5641    4.9234   -9.8682 C   0  0  0  0  0  0  0  0  0  0  0  0
   -6.3970    5.7945   -9.4515 C   0  0  0  0  0  0  0  0  0  0  0  0
   -8.1259    5.4993  -11.0585 O   0  0  0  0  0  0  0  0  0  0  0  0
   -7.9075    4.4316  -12.0351 C   0  0  1  0  0  0  0  0  0  0  0  0
   -8.3279    4.7432  -13.5156 C   0  0  0  0  0  0  0  0  0  0  0  0
   -9.4514    4.6944  -13.8611 O   0  0  0  0  0  0  0  0  0  0  0  0
   -7.0211    4.9925  -14.3446 N   0  0  0  0  0  0  0  0  0  0  0  0
   -6.8382    5.1269  -15.6864 C   0  0  0  0  0  0  0  0  0  0  0  0
   -7.9166    4.7266  -16.5655 C   0  0  0  0  0  0  0  0  0  0  0  0
   -7.6998    4.5931  -17.8852 C   0  0  0  0  0  0  0  0  0  0  0  0
   -9.1169    4.0704  -18.9616 Br  0  0  0  0  0  0  0  0  0  0  0  0
   -6.4352    4.9184  -18.3922 N   0  0  0  0  0  0  0  0  0  0  0  0
   -5.8791    4.8020  -19.6429 C   0  0  0  0  0  0  0  0  0  0  0  0
   -4.6918    5.4868  -19.6040 C   0  0  0  0  0  0  0  0  0  0  0  0
   -4.4145    5.8981  -18.3296 N   0  0  0  0  0  0  0  0  0  0  0  0
   -5.4292    5.4736  -17.6010 C   0  0  0  0  0  0  0  0  0  0  0  0
   -5.6431    5.4935  -16.1929 C   0  0  0  0  0  0  0  0  0  0  0  0
   -6.4729    3.7969  -11.7592 C   0  0  0  0  0  0  0  0  0  0  0  0
   -7.1699    3.5297  -10.3974 C   0  0  2  0  0  0  0  0  0  0  0  0
   -8.3590    3.0840  -11.3345 C   0  0  0  0  0  0  0  0  0  0  0  0
  1  2  1  0
  2  3  1  0
  2  4  1  0
  4  5  1  0
  5  6  1  6
  6  7  2  0
  6  8  1  0
  8  9  1  0
  9 10  1  0
 10 11  2  0
 11 12  1  0
 11 13  1  0
 13 14  1  0
 14 15  2  0
 15 16  1  0
 16 17  2  0
 17 18  1  0
  5 19  1  0
 20 19  1  6
 20 21  1  0
 20  2  1  0
 21  5  1  0
 18  9  2  0
 17 13  1  0
M  END
>  <energy_score>  (5011) 
-40.712971

>  <alias>  (5011) 
NEVNSZIOHAQAPB-UHFFFAOYSA-N-P64-P64-P84-601532

>  <HIPPO Pose ID>  (5011) 
89359

>  <smiles>  (5011) 
CC1(C)OC2(C(=O)Nc3cc(Br)n4ccnc4c3)CC1C2

>  <inchikey>  (5011) 
NEVNSZIOHAQAPB-UHFFFAOYSA-N

>  <distance_score>  (5011) 
1.300641

>  <ref_mols>  (5011) 
Z1046b,Z1495a

>  <ref_pdb>  (5011) 
Z0089a

>  <HIPPO Compound ID>  (5011) 
139146

>  <name>  (5011) 
NEVNSZIOHAQAPB-UHFFFAOYSA-N-P64-P64-P84-601532

>  <inspiration_score>  (5011) 
None

$$$$
STPHOHFHKMCHIK-UHFFFAOYSA-N-P64-P64-P84-601532
     RDKit          3D

 21 24  0  0  0  0  0  0  0  0999 V2000
   -9.2933    4.8973  -14.1217 O   0  0  0  0  0  0  0  0  0  0  0  0
   -8.2203    4.7061  -13.6883 C   0  0  0  0  0  0  0  0  0  0  0  0
   -6.8365    4.5811  -14.4188 N   0  0  0  0  0  0  0  0  0  0  0  0
   -6.5118    4.7504  -15.7266 C   0  0  0  0  0  0  0  0  0  0  0  0
   -7.4959    4.6941  -16.8012 C   0  0  0  0  0  0  0  0  0  0  0  0
   -7.0852    4.8738  -18.0750 C   0  0  0  0  0  0  0  0  0  0  0  0
   -5.7400    5.1485  -18.3235 N   0  0  0  0  0  0  0  0  0  0  0  0
   -5.0698    5.4450  -19.4848 C   0  0  0  0  0  0  0  0  0  0  0  0
   -3.7898    5.7313  -19.0818 C   0  0  0  0  0  0  0  0  0  0  0  0
   -2.8174    6.1539  -19.8857 O   0  0  0  0  0  0  0  0  0  0  0  0
   -3.6035    5.5829  -17.7544 N   0  0  0  0  0  0  0  0  0  0  0  0
   -4.7865    5.2215  -17.3150 C   0  0  0  0  0  0  0  0  0  0  0  0
   -5.2100    4.9637  -15.9964 C   0  0  0  0  0  0  0  0  0  0  0  0
   -7.8537    4.6244  -12.1870 C   0  0  1  0  0  0  0  0  0  0  0  0
   -7.6152    6.0557  -11.6843 C   0  0  0  0  0  0  0  0  0  0  0  0
   -7.1578    6.0381  -10.2280 C   0  0  0  0  0  0  0  0  0  0  0  0
   -8.1128    5.2229   -9.3652 C   0  0  0  0  0  0  0  0  0  0  0  0
   -8.3925    3.8968  -10.0039 C   0  0  0  0  0  0  0  0  0  0  0  0
   -7.5823    2.6846   -9.6389 C   0  0  0  0  0  0  0  0  0  0  0  0
   -9.0118    2.7961   -9.1937 C   0  0  0  0  0  0  0  0  0  0  0  0
   -8.8194    3.9866  -11.3798 O   0  0  0  0  0  0  0  0  0  0  0  0
  1  2  2  0
  2  3  1  0
  3  4  1  0
  4  5  1  0
  5  6  2  0
  6  7  1  0
  7  8  1  0
  8  9  2  0
  9 10  1  0
  9 11  1  0
 11 12  2  0
 12 13  1  0
 14  2  1  6
 14 15  1  0
 15 16  1  0
 16 17  1  0
 17 18  1  0
 18 19  1  0
 19 20  1  0
 18 21  1  0
 13  4  2  0
 21 14  1  0
 12  7  1  0
 20 18  1  0
M  END
>  <energy_score>  (5012) 
-61.191474

>  <alias>  (5012) 
STPHOHFHKMCHIK-UHFFFAOYSA-N-P64-P64-P84-601532

>  <HIPPO Pose ID>  (5012) 
89365

>  <smiles>  (5012) 
O=C(Nc1ccn2cc(O)nc2c1)C1CCCC2(CC2)O1

>  <inchikey>  (5012) 
STPHOHFHKMCHIK-UHFFFAOYSA-N

>  <distance_score>  (5012) 
1.164518

>  <ref_mols>  (5012) 
Z1046b,Z1495a

>  <ref_pdb>  (5012) 
Z0089a

>  <HIPPO Compound ID>  (5012) 
139149

>  <name>  (5012) 
STPHOHFHKMCHIK-UHFFFAOYSA-N-P64-P64-P84-601532

>  <inspiration_score>  (5012) 
None

$$$$
OYTQUPGJRBEEJL-UHFFFAOYSA-N-P64-P64-P84-601532
     RDKit          3D

 21 24  0  0  0  0  0  0  0  0999 V2000
   -9.1890    4.6883  -14.2318 O   0  0  0  0  0  0  0  0  0  0  0  0
   -8.1419    4.8682  -13.7399 C   0  0  0  0  0  0  0  0  0  0  0  0
   -6.7534    5.1812  -14.3953 N   0  0  0  0  0  0  0  0  0  0  0  0
   -6.4234    5.4123  -15.6906 C   0  0  0  0  0  0  0  0  0  0  0  0
   -7.1969    4.8671  -16.8030 C   0  0  0  0  0  0  0  0  0  0  0  0
   -6.6768    4.9345  -18.0482 C   0  0  0  0  0  0  0  0  0  0  0  0
   -5.4675    5.6078  -18.2428 N   0  0  0  0  0  0  0  0  0  0  0  0
   -4.6574    5.7859  -19.3298 C   0  0  0  0  0  0  0  0  0  0  0  0
   -4.7081    4.9595  -21.0010 Br  0  0  0  0  0  0  0  0  0  0  0  0
   -3.6864    6.6837  -18.9730 C   0  0  0  0  0  0  0  0  0  0  0  0
   -3.7915    6.9950  -17.6559 N   0  0  0  0  0  0  0  0  0  0  0  0
   -4.8021    6.2731  -17.2215 C   0  0  0  0  0  0  0  0  0  0  0  0
   -5.2746    6.0777  -15.9091 C   0  0  0  0  0  0  0  0  0  0  0  0
   -7.8189    4.7776  -12.2279 C   0  0  1  0  0  0  0  0  0  0  0  0
   -7.6741    6.1947  -11.6566 C   0  0  0  0  0  0  0  0  0  0  0  0
   -7.2074    6.1244  -10.2049 C   0  0  0  0  0  0  0  0  0  0  0  0
   -8.1165    5.2221   -9.3816 C   0  0  0  0  0  0  0  0  0  0  0  0
   -8.3576    3.9213  -10.0857 C   0  0  0  0  0  0  0  0  0  0  0  0
   -7.5485    2.6993   -9.7531 C   0  0  0  0  0  0  0  0  0  0  0  0
   -8.9860    2.7880   -9.3289 C   0  0  0  0  0  0  0  0  0  0  0  0
   -8.7653    4.0586  -11.4643 O   0  0  0  0  0  0  0  0  0  0  0  0
  1  2  2  0
  2  3  1  0
  3  4  1  0
  4  5  1  0
  5  6  2  0
  6  7  1  0
  7  8  1  0
  8  9  1  0
  8 10  2  0
 10 11  1  0
 11 12  2  0
 12 13  1  0
 14  2  1  6
 14 15  1  0
 15 16  1  0
 16 17  1  0
 17 18  1  0
 18 19  1  0
 19 20  1  0
 18 21  1  0
 13  4  2  0
 21 14  1  0
 12  7  1  0
 20 18  1  0
M  END
>  <energy_score>  (5013) 
-8.251069

>  <alias>  (5013) 
OYTQUPGJRBEEJL-UHFFFAOYSA-N-P64-P64-P84-601532

>  <HIPPO Pose ID>  (5013) 
89369

>  <smiles>  (5013) 
O=C(Nc1ccn2c(Br)cnc2c1)C1CCCC2(CC2)O1

>  <inchikey>  (5013) 
OYTQUPGJRBEEJL-UHFFFAOYSA-N

>  <distance_score>  (5013) 
1.437151

>  <ref_mols>  (5013) 
Z1046b,Z1495a

>  <ref_pdb>  (5013) 
Z0089a

>  <HIPPO Compound ID>  (5013) 
139151

>  <name>  (5013) 
OYTQUPGJRBEEJL-UHFFFAOYSA-N-P64-P64-P84-601532

>  <inspiration_score>  (5013) 
None

$$$$
RRROGAUZQSHKIE-UHFFFAOYSA-N-P84-P64-P84-601532
     RDKit          3D

 21 23  0  0  0  0  0  0  0  0999 V2000
   -7.9688    2.5426  -10.1587 C   0  0  0  0  0  0  0  0  0  0  0  0
   -7.4150    3.9371  -10.4232 C   0  0  0  0  0  0  0  0  0  0  0  0
   -5.9151    3.9547  -10.0923 C   0  0  0  0  0  0  0  0  0  0  0  0
   -8.1821    4.9634   -9.5712 C   0  0  0  0  0  0  0  0  0  0  0  0
   -7.8847    6.3142   -9.9580 O   0  0  0  0  0  0  0  0  0  0  0  0
   -8.2038    6.5016  -11.3451 C   0  0  0  0  0  0  0  0  0  0  0  0
   -7.3941    5.5387  -12.1972 C   0  0  2  0  0  0  0  0  0  0  0  0
   -7.6945    5.7123  -13.6926 C   0  0  0  0  0  0  0  0  0  0  0  0
   -8.5148    6.4169  -14.1426 O   0  0  0  0  0  0  0  0  0  0  0  0
   -6.6096    4.8374  -14.4031 N   0  0  0  0  0  0  0  0  0  0  0  0
   -6.2797    4.7373  -15.7174 C   0  0  0  0  0  0  0  0  0  0  0  0
   -7.1973    5.1911  -16.7536 C   0  0  0  0  0  0  0  0  0  0  0  0
   -6.7018    5.5234  -17.9600 C   0  0  0  0  0  0  0  0  0  0  0  0
   -5.3359    5.3675  -18.1836 N   0  0  0  0  0  0  0  0  0  0  0  0
   -4.4994    5.8859  -19.1315 C   0  0  0  0  0  0  0  0  0  0  0  0
   -4.8442    7.2276  -20.3859 Br  0  0  0  0  0  0  0  0  0  0  0  0
   -3.2512    5.3832  -18.8901 C   0  0  0  0  0  0  0  0  0  0  0  0
   -3.2577    4.6267  -17.7608 N   0  0  0  0  0  0  0  0  0  0  0  0
   -4.4884    4.7158  -17.2972 C   0  0  0  0  0  0  0  0  0  0  0  0
   -5.0112    4.3969  -16.0188 C   0  0  0  0  0  0  0  0  0  0  0  0
   -7.6087    4.1781  -11.8306 O   0  0  0  0  0  0  0  0  0  0  0  0
  1  2  1  0
  2  3  1  0
  2  4  1  0
  4  5  1  0
  5  6  1  0
  6  7  1  0
  7  8  1  6
  8  9  2  0
  8 10  1  0
 10 11  1  0
 11 12  1  0
 12 13  2  0
 13 14  1  0
 14 15  1  0
 15 16  1  0
 15 17  2  0
 17 18  1  0
 18 19  2  0
 19 20  1  0
  7 21  1  0
 21  2  1  0
 20 11  2  0
 19 14  1  0
M  END
>  <energy_score>  (5014) 
-50.561654

>  <alias>  (5014) 
RRROGAUZQSHKIE-UHFFFAOYSA-N-P84-P64-P84-601532

>  <HIPPO Pose ID>  (5014) 
89376

>  <smiles>  (5014) 
CC1(C)COCC(C(=O)Nc2ccn3c(Br)cnc3c2)O1

>  <inchikey>  (5014) 
RRROGAUZQSHKIE-UHFFFAOYSA-N

>  <distance_score>  (5014) 
1.508561

>  <ref_mols>  (5014) 
Z1046b,Z1495a

>  <ref_pdb>  (5014) 
Z0089a

>  <HIPPO Compound ID>  (5014) 
139154

>  <name>  (5014) 
RRROGAUZQSHKIE-UHFFFAOYSA-N-P84-P64-P84-601532

>  <inspiration_score>  (5014) 
None

$$$$
FMKPNEJKJJOERM-UHFFFAOYSA-N-P64-P64-P84-601532
     RDKit          3D

 21 23  0  0  0  0  0  0  0  0999 V2000
   -9.2044    2.6663   -8.9419 C   0  0  0  0  0  0  0  0  0  0  0  0
   -8.5357    4.0093   -8.7089 C   0  0  0  0  0  0  0  0  0  0  0  0
   -7.6844    4.5297   -9.8722 C   0  0  1  0  0  0  0  0  0  0  0  0
   -6.9902    5.8180   -9.4092 C   0  0  0  0  0  0  0  0  0  0  0  0
   -6.6919    3.4665  -10.3757 C   0  0  0  0  0  0  0  0  0  0  0  0
   -7.1837    3.1767  -11.7799 C   0  0  0  0  0  0  0  0  0  0  0  0
   -7.6637    4.5611  -12.1561 C   0  0  1  0  0  0  0  0  0  0  0  0
   -8.0344    4.7582  -13.6513 C   0  0  0  0  0  0  0  0  0  0  0  0
   -9.0697    5.1090  -14.0800 O   0  0  0  0  0  0  0  0  0  0  0  0
   -6.6647    4.4746  -14.3883 N   0  0  0  0  0  0  0  0  0  0  0  0
   -6.3078    4.6511  -15.6987 C   0  0  0  0  0  0  0  0  0  0  0  0
   -4.8373    4.7225  -15.7955 C   0  0  0  0  0  0  0  0  0  0  0  0
   -4.2405    5.0339  -16.9483 C   0  0  0  0  0  0  0  0  0  0  0  0
   -5.0287    5.3267  -18.0337 N   0  0  0  0  0  0  0  0  0  0  0  0
   -4.6215    5.7864  -19.2535 C   0  0  0  0  0  0  0  0  0  0  0  0
   -5.7786    6.1268  -19.8924 C   0  0  0  0  0  0  0  0  0  0  0  0
   -6.8703    5.8713  -19.1002 N   0  0  0  0  0  0  0  0  0  0  0  0
   -6.4160    5.2819  -18.0138 C   0  0  0  0  0  0  0  0  0  0  0  0
   -7.0598    4.7813  -16.8208 C   0  0  0  0  0  0  0  0  0  0  0  0
   -8.8456    4.2628  -17.0126 Br  0  0  0  0  0  0  0  0  0  0  0  0
   -8.4653    4.9184  -11.0400 O   0  0  0  0  0  0  0  0  0  0  0  0
  1  2  1  0
  2  3  1  0
  3  4  1  1
  3  5  1  0
  5  6  1  0
  6  7  1  0
  7  8  1  6
  8  9  2  0
  8 10  1  0
 10 11  1  0
 11 12  1  0
 12 13  2  0
 13 14  1  0
 14 15  1  0
 15 16  2  0
 16 17  1  0
 17 18  2  0
 18 19  1  0
 19 20  1  0
  7 21  1  0
 21  3  1  0
 19 11  2  0
 18 14  1  0
M  END
>  <energy_score>  (5015) 
-17.519796

>  <alias>  (5015) 
FMKPNEJKJJOERM-UHFFFAOYSA-N-P64-P64-P84-601532

>  <HIPPO Pose ID>  (5015) 
89395

>  <smiles>  (5015) 
CCC1(C)CCC(C(=O)Nc2ccn3ccnc3c2Br)O1

>  <inchikey>  (5015) 
FMKPNEJKJJOERM-UHFFFAOYSA-N

>  <distance_score>  (5015) 
1.301156

>  <ref_mols>  (5015) 
Z1046b,Z1495a

>  <ref_pdb>  (5015) 
Z0089a

>  <HIPPO Compound ID>  (5015) 
139164

>  <name>  (5015) 
FMKPNEJKJJOERM-UHFFFAOYSA-N-P64-P64-P84-601532

>  <inspiration_score>  (5015) 
None

$$$$
LFZLVJRAGNTIRO-UHFFFAOYSA-N-P84-P64-P84-601532
     RDKit          3D

 21 23  0  0  0  0  0  0  0  0999 V2000
   -8.4256    4.7882  -18.3766 C   0  0  0  0  0  0  0  0  0  0  0  0
   -6.9591    4.9003  -18.2806 C   0  0  0  0  0  0  0  0  0  0  0  0
   -5.9226    4.2435  -18.8853 C   0  0  0  0  0  0  0  0  0  0  0  0
   -4.7989    4.2202  -18.0719 N   0  0  0  0  0  0  0  0  0  0  0  0
   -5.1888    4.8930  -17.0115 C   0  0  0  0  0  0  0  0  0  0  0  0
   -4.8852    4.9607  -15.6132 C   0  0  0  0  0  0  0  0  0  0  0  0
   -5.4798    5.9723  -14.9321 C   0  0  0  0  0  0  0  0  0  0  0  0
   -6.0459    5.7705  -13.7066 N   0  0  0  0  0  0  0  0  0  0  0  0
   -7.0187    6.6693  -12.8790 C   0  0  0  0  0  0  0  0  0  0  0  0
   -7.4182    7.7512  -13.0905 O   0  0  0  0  0  0  0  0  0  0  0  0
   -7.5059    5.8175  -11.6859 C   0  0  2  0  0  0  0  0  0  0  0  0
   -7.4917    6.6856  -10.4312 C   0  0  0  0  0  0  0  0  0  0  0  0
   -7.4487    5.8625   -9.1540 C   0  0  0  0  0  0  0  0  0  0  0  0
   -8.0702    4.4963   -9.3769 C   0  0  0  0  0  0  0  0  0  0  0  0
   -7.3573    3.7277  -10.5070 C   0  0  0  0  0  0  0  0  0  0  0  0
   -8.3399    2.7764  -11.1850 C   0  0  0  0  0  0  0  0  0  0  0  0
   -6.1880    2.9108   -9.9435 C   0  0  0  0  0  0  0  0  0  0  0  0
   -6.7787    4.6079  -11.4966 O   0  0  0  0  0  0  0  0  0  0  0  0
   -5.9638    7.1452  -15.6621 C   0  0  0  0  0  0  0  0  0  0  0  0
   -6.4544    6.9124  -16.8878 C   0  0  0  0  0  0  0  0  0  0  0  0
   -6.2624    5.6648  -17.4016 N   0  0  0  0  0  0  0  0  0  0  0  0
  1  2  1  0
  2  3  2  0
  3  4  1  0
  4  5  2  0
  5  6  1  0
  6  7  2  0
  7  8  1  0
  8  9  1  0
  9 10  2  0
 11  9  1  6
 11 12  1  0
 12 13  1  0
 13 14  1  0
 14 15  1  0
 15 16  1  0
 15 17  1  0
 15 18  1  0
  7 19  1  0
 19 20  2  0
 20 21  1  0
 21  2  1  0
 21  5  1  0
 18 11  1  0
M  END
>  <energy_score>  (5016) 
-7.846804

>  <alias>  (5016) 
LFZLVJRAGNTIRO-UHFFFAOYSA-N-P84-P64-P84-601532

>  <HIPPO Pose ID>  (5016) 
89404

>  <smiles>  (5016) 
Cc1cnc2cc(NC(=O)C3CCCC(C)(C)O3)ccn12

>  <inchikey>  (5016) 
LFZLVJRAGNTIRO-UHFFFAOYSA-N

>  <distance_score>  (5016) 
1.914197

>  <ref_mols>  (5016) 
Z1046b,Z1495a

>  <ref_pdb>  (5016) 
Z0089a

>  <HIPPO Compound ID>  (5016) 
139168

>  <name>  (5016) 
LFZLVJRAGNTIRO-UHFFFAOYSA-N-P84-P64-P84-601532

>  <inspiration_score>  (5016) 
None

$$$$
AZTQAFUSHHRJFX-UHFFFAOYSA-N-P64-P64-P84-601532
     RDKit          3D

 22 25  0  0  0  0  0  0  0  0999 V2000
   -8.0587    5.5772   -8.8356 C   0  0  0  0  0  0  0  0  0  0  0  0
   -8.0872    4.3809   -9.7821 C   0  0  0  0  0  0  0  0  0  0  0  0
   -8.7639    3.2060   -9.0689 C   0  0  0  0  0  0  0  0  0  0  0  0
   -8.7848    4.7206  -11.0187 O   0  0  0  0  0  0  0  0  0  0  0  0
   -7.8590    4.4838  -12.1019 C   0  0  2  0  0  0  0  0  0  0  0  0
   -8.1248    5.0367  -13.5547 C   0  0  0  0  0  0  0  0  0  0  0  0
   -9.1350    5.5156  -13.9164 O   0  0  0  0  0  0  0  0  0  0  0  0
   -6.7670    4.8118  -14.3268 N   0  0  0  0  0  0  0  0  0  0  0  0
   -6.4443    5.0322  -15.6369 C   0  0  0  0  0  0  0  0  0  0  0  0
   -5.0499    5.4811  -15.7400 C   0  0  0  0  0  0  0  0  0  0  0  0
   -4.4770    5.6515  -16.9348 C   0  0  0  0  0  0  0  0  0  0  0  0
   -5.1976    5.3227  -18.0612 N   0  0  0  0  0  0  0  0  0  0  0  0
   -4.7712    5.3522  -19.3586 C   0  0  0  0  0  0  0  0  0  0  0  0
   -5.7663    4.7259  -20.0571 C   0  0  0  0  0  0  0  0  0  0  0  0
   -6.8205    4.4077  -19.2384 N   0  0  0  0  0  0  0  0  0  0  0  0
   -6.4981    4.8332  -18.0342 C   0  0  0  0  0  0  0  0  0  0  0  0
   -7.1699    4.7718  -16.7556 C   0  0  0  0  0  0  0  0  0  0  0  0
   -8.9201    4.1216  -16.8030 Br  0  0  0  0  0  0  0  0  0  0  0  0
   -7.6422    2.9539  -12.1594 C   0  0  0  0  0  0  0  0  0  0  0  0
   -6.6571    2.7221  -11.0148 C   0  0  0  0  0  0  0  0  0  0  0  0
   -6.6730    4.0722  -10.2840 C   0  0  1  0  0  0  0  0  0  0  0  0
   -6.5766    5.0285  -11.4615 C   0  0  0  0  0  0  0  0  0  0  0  0
  1  2  1  0
  2  3  1  0
  2  4  1  0
  4  5  1  0
  5  6  1  6
  6  7  2  0
  6  8  1  0
  8  9  1  0
  9 10  1  0
 10 11  2  0
 11 12  1  0
 12 13  1  0
 13 14  2  0
 14 15  1  0
 15 16  2  0
 16 17  1  0
 17 18  1  0
  5 19  1  0
 19 20  1  0
 21 20  1  6
 21 22  1  0
 21  2  1  0
 22  5  1  0
 17  9  2  0
 16 12  1  0
M  END
>  <energy_score>  (5017) 
-20.62384

>  <alias>  (5017) 
AZTQAFUSHHRJFX-UHFFFAOYSA-N-P64-P64-P84-601532

>  <HIPPO Pose ID>  (5017) 
89407

>  <smiles>  (5017) 
CC1(C)OC2(C(=O)Nc3ccn4ccnc4c3Br)CCC1C2

>  <inchikey>  (5017) 
AZTQAFUSHHRJFX-UHFFFAOYSA-N

>  <distance_score>  (5017) 
1.512916

>  <ref_mols>  (5017) 
Z1046b,Z1495a

>  <ref_pdb>  (5017) 
Z0089a

>  <HIPPO Compound ID>  (5017) 
139170

>  <name>  (5017) 
AZTQAFUSHHRJFX-UHFFFAOYSA-N-P64-P64-P84-601532

>  <inspiration_score>  (5017) 
None

$$$$
LORGLECSAUROMB-UHFFFAOYSA-N-P64-P64-P84-601532
     RDKit          3D

 22 25  0  0  0  0  0  0  0  0999 V2000
   -9.5943    5.2617  -13.9159 O   0  0  0  0  0  0  0  0  0  0  0  0
   -8.5377    5.0418  -13.4588 C   0  0  0  0  0  0  0  0  0  0  0  0
   -7.1461    4.9052  -14.1504 N   0  0  0  0  0  0  0  0  0  0  0  0
   -6.8099    4.9163  -15.4706 C   0  0  0  0  0  0  0  0  0  0  0  0
   -7.8665    4.6280  -16.4237 C   0  0  0  0  0  0  0  0  0  0  0  0
   -7.6075    4.5736  -17.7412 C   0  0  0  0  0  0  0  0  0  0  0  0
   -8.9997    4.1503  -18.8977 Br  0  0  0  0  0  0  0  0  0  0  0  0
   -6.3090    4.8696  -18.1754 N   0  0  0  0  0  0  0  0  0  0  0  0
   -5.7388    4.9028  -19.4245 C   0  0  0  0  0  0  0  0  0  0  0  0
   -4.4825    5.4301  -19.2629 C   0  0  0  0  0  0  0  0  0  0  0  0
   -4.2055    5.6342  -17.9394 N   0  0  0  0  0  0  0  0  0  0  0  0
   -5.2851    5.2343  -17.2957 C   0  0  0  0  0  0  0  0  0  0  0  0
   -5.5575    5.1679  -15.8969 C   0  0  0  0  0  0  0  0  0  0  0  0
   -8.3299    4.8767  -11.9582 C   0  0  2  0  0  0  0  0  0  0  0  0
   -7.8328    6.1740  -11.3330 C   0  0  0  0  0  0  0  0  0  0  0  0
   -7.8693    6.0662   -9.8997 O   0  0  0  0  0  0  0  0  0  0  0  0
   -7.0850    4.9464   -9.4354 C   0  0  0  0  0  0  0  0  0  0  0  0
   -7.5138    3.6327  -10.1153 C   0  0  0  0  0  0  0  0  0  0  0  0
   -6.7900    2.3657   -9.5936 C   0  0  0  0  0  0  0  0  0  0  0  0
   -7.9397    2.1853   -8.5822 C   0  0  0  0  0  0  0  0  0  0  0  0
   -8.8180    2.9934   -9.5346 C   0  0  0  0  0  0  0  0  0  0  0  0
   -7.4682    3.8175  -11.5635 O   0  0  0  0  0  0  0  0  0  0  0  0
  1  2  2  0
  2  3  1  0
  3  4  1  0
  4  5  1  0
  5  6  2  0
  6  7  1  0
  6  8  1  0
  8  9  1  0
  9 10  2  0
 10 11  1  0
 11 12  2  0
 12 13  1  0
 14  2  1  6
 14 15  1  0
 15 16  1  0
 16 17  1  0
 17 18  1  0
 18 19  1  0
 19 20  1  0
 20 21  1  0
 18 22  1  0
 13  4  2  0
 22 14  1  0
 12  8  1  0
 21 18  1  0
M  END
>  <energy_score>  (5018) 
-39.232298

>  <alias>  (5018) 
LORGLECSAUROMB-UHFFFAOYSA-N-P64-P64-P84-601532

>  <HIPPO Pose ID>  (5018) 
89409

>  <smiles>  (5018) 
O=C(Nc1cc(Br)n2ccnc2c1)C1COCC2(CCC2)O1

>  <inchikey>  (5018) 
LORGLECSAUROMB-UHFFFAOYSA-N

>  <distance_score>  (5018) 
1.209333

>  <ref_mols>  (5018) 
Z1046b,Z1495a

>  <ref_pdb>  (5018) 
Z0089a

>  <HIPPO Compound ID>  (5018) 
139171

>  <name>  (5018) 
LORGLECSAUROMB-UHFFFAOYSA-N-P64-P64-P84-601532

>  <inspiration_score>  (5018) 
None

$$$$
YWRWSPLRFAWENM-UHFFFAOYSA-N-P64-P64-P84-601532
     RDKit          3D

 22 25  0  0  0  0  0  0  0  0999 V2000
   -9.2898    4.7190  -14.0200 O   0  0  0  0  0  0  0  0  0  0  0  0
   -8.2297    4.9146  -13.5599 C   0  0  0  0  0  0  0  0  0  0  0  0
   -6.8600    5.2486  -14.2614 N   0  0  0  0  0  0  0  0  0  0  0  0
   -6.5733    5.4838  -15.5690 C   0  0  0  0  0  0  0  0  0  0  0  0
   -7.3162    4.8734  -16.6687 C   0  0  0  0  0  0  0  0  0  0  0  0
   -6.7895    4.9233  -17.9142 C   0  0  0  0  0  0  0  0  0  0  0  0
   -5.6073    5.6413  -18.1271 N   0  0  0  0  0  0  0  0  0  0  0  0
   -4.7904    5.8160  -19.2112 C   0  0  0  0  0  0  0  0  0  0  0  0
   -4.7705    4.9323  -20.8536 Br  0  0  0  0  0  0  0  0  0  0  0  0
   -3.8643    6.7685  -18.8763 C   0  0  0  0  0  0  0  0  0  0  0  0
   -4.0003    7.1221  -17.5733 N   0  0  0  0  0  0  0  0  0  0  0  0
   -4.9826    6.3705  -17.1243 C   0  0  0  0  0  0  0  0  0  0  0  0
   -5.4539    6.1929  -15.8089 C   0  0  0  0  0  0  0  0  0  0  0  0
   -7.8400    4.8014  -12.0544 C   0  0  1  0  0  0  0  0  0  0  0  0
   -7.6944    6.2192  -11.4817 C   0  0  0  0  0  0  0  0  0  0  0  0
   -7.3007    6.2444  -10.0981 O   0  0  0  0  0  0  0  0  0  0  0  0
   -6.8099    4.9762   -9.6339 C   0  0  0  0  0  0  0  0  0  0  0  0
   -7.8527    3.8655   -9.8515 C   0  0  0  0  0  0  0  0  0  0  0  0
   -7.3274    2.4138   -9.6806 C   0  0  0  0  0  0  0  0  0  0  0  0
   -8.6093    2.1216   -8.8720 C   0  0  0  0  0  0  0  0  0  0  0  0
   -8.6607    3.6070   -8.5517 C   0  0  0  0  0  0  0  0  0  0  0  0
   -8.5907    4.0709  -11.1056 O   0  0  0  0  0  0  0  0  0  0  0  0
  1  2  2  0
  2  3  1  0
  3  4  1  0
  4  5  1  0
  5  6  2  0
  6  7  1  0
  7  8  1  0
  8  9  1  0
  8 10  2  0
 10 11  1  0
 11 12  2  0
 12 13  1  0
 14  2  1  6
 14 15  1  0
 15 16  1  0
 16 17  1  0
 17 18  1  0
 18 19  1  0
 19 20  1  0
 20 21  1  0
 18 22  1  0
 13  4  2  0
 22 14  1  0
 12  7  1  0
 21 18  1  0
M  END
>  <energy_score>  (5019) 
-9.87215

>  <alias>  (5019) 
YWRWSPLRFAWENM-UHFFFAOYSA-N-P64-P64-P84-601532

>  <HIPPO Pose ID>  (5019) 
89411

>  <smiles>  (5019) 
O=C(Nc1ccn2c(Br)cnc2c1)C1COCC2(CCC2)O1

>  <inchikey>  (5019) 
YWRWSPLRFAWENM-UHFFFAOYSA-N

>  <distance_score>  (5019) 
1.582591

>  <ref_mols>  (5019) 
Z1046b,Z1495a

>  <ref_pdb>  (5019) 
Z0089a

>  <HIPPO Compound ID>  (5019) 
139172

>  <name>  (5019) 
YWRWSPLRFAWENM-UHFFFAOYSA-N-P64-P64-P84-601532

>  <inspiration_score>  (5019) 
None

$$$$
SDFGNVOKRFHYRN-UHFFFAOYSA-N-P64-P64-P84-601532
     RDKit          3D

 22 24  0  0  0  0  0  0  0  0999 V2000
   -8.1330    2.6782  -10.8274 C   0  0  0  0  0  0  0  0  0  0  0  0
   -7.0762    3.7597  -10.5359 C   0  0  0  0  0  0  0  0  0  0  0  0
   -5.9084    3.1119   -9.7883 C   0  0  0  0  0  0  0  0  0  0  0  0
   -6.6283    4.3646  -11.8577 C   0  0  0  0  0  0  0  0  0  0  0  0
   -7.5593    5.5725  -12.0690 C   0  0  1  0  0  0  0  0  0  0  0  0
   -8.1394    5.5060  -13.5025 C   0  0  0  0  0  0  0  0  0  0  0  0
   -9.2653    5.3394  -13.7906 O   0  0  0  0  0  0  0  0  0  0  0  0
   -6.8565    5.6152  -14.4160 N   0  0  0  0  0  0  0  0  0  0  0  0
   -6.7140    5.4557  -15.7562 C   0  0  0  0  0  0  0  0  0  0  0  0
   -7.7916    4.8939  -16.5426 C   0  0  0  0  0  0  0  0  0  0  0  0
   -7.6122    4.6548  -17.8560 C   0  0  0  0  0  0  0  0  0  0  0  0
   -9.0561    4.0504  -18.8593 Br  0  0  0  0  0  0  0  0  0  0  0  0
   -6.3654    4.9528  -18.4286 N   0  0  0  0  0  0  0  0  0  0  0  0
   -5.8472    4.7508  -19.6842 C   0  0  0  0  0  0  0  0  0  0  0  0
   -4.6379    5.4001  -19.7155 C   0  0  0  0  0  0  0  0  0  0  0  0
   -4.3237    5.9054  -18.4860 N   0  0  0  0  0  0  0  0  0  0  0  0
   -5.3394    5.5726  -17.7165 C   0  0  0  0  0  0  0  0  0  0  0  0
   -5.5357    5.7717  -16.3277 C   0  0  0  0  0  0  0  0  0  0  0  0
   -8.4054    5.6379  -10.9243 O   0  0  0  0  0  0  0  0  0  0  0  0
   -7.6895    4.9895   -9.8441 C   0  0  0  0  0  0  0  0  0  0  0  0
   -8.5996    4.6239   -8.6788 C   0  0  0  0  0  0  0  0  0  0  0  0
   -6.6826    6.0202   -9.3131 C   0  0  0  0  0  0  0  0  0  0  0  0
  1  2  1  0
  2  3  1  0
  2  4  1  0
  4  5  1  0
  5  6  1  6
  6  7  2  0
  6  8  1  0
  8  9  1  0
  9 10  1  0
 10 11  2  0
 11 12  1  0
 11 13  1  0
 13 14  1  0
 14 15  2  0
 15 16  1  0
 16 17  2  0
 17 18  1  0
  5 19  1  0
 19 20  1  0
 20 21  1  0
 20 22  1  0
 20  2  1  0
 18  9  2  0
 17 13  1  0
M  END
>  <energy_score>  (5020) 
-10.772702

>  <alias>  (5020) 
SDFGNVOKRFHYRN-UHFFFAOYSA-N-P64-P64-P84-601532

>  <HIPPO Pose ID>  (5020) 
89415

>  <smiles>  (5020) 
CC1(C)CC(C(=O)Nc2cc(Br)n3ccnc3c2)OC1(C)C

>  <inchikey>  (5020) 
SDFGNVOKRFHYRN-UHFFFAOYSA-N

>  <distance_score>  (5020) 
1.237321

>  <ref_mols>  (5020) 
Z1046b,Z1495a

>  <ref_pdb>  (5020) 
Z0089a

>  <HIPPO Compound ID>  (5020) 
139174

>  <name>  (5020) 
SDFGNVOKRFHYRN-UHFFFAOYSA-N-P64-P64-P84-601532

>  <inspiration_score>  (5020) 
None

$$$$
IASQVUKFZGDYCG-UHFFFAOYSA-N-P64-P64-P84-601532
     RDKit          3D

 22 25  0  0  0  0  0  0  0  0999 V2000
   -9.5641    5.2778  -13.8980 O   0  0  0  0  0  0  0  0  0  0  0  0
   -8.4968    5.1013  -13.4458 C   0  0  0  0  0  0  0  0  0  0  0  0
   -7.1248    4.8714  -14.1527 N   0  0  0  0  0  0  0  0  0  0  0  0
   -6.7944    4.9049  -15.4733 C   0  0  0  0  0  0  0  0  0  0  0  0
   -7.8521    4.6013  -16.4202 C   0  0  0  0  0  0  0  0  0  0  0  0
   -7.6019    4.5645  -17.7400 C   0  0  0  0  0  0  0  0  0  0  0  0
   -8.9978    4.1438  -18.8932 Br  0  0  0  0  0  0  0  0  0  0  0  0
   -6.3098    4.8811  -18.1799 N   0  0  0  0  0  0  0  0  0  0  0  0
   -5.7446    4.9197  -19.4311 C   0  0  0  0  0  0  0  0  0  0  0  0
   -4.4960    5.4667  -19.2760 C   0  0  0  0  0  0  0  0  0  0  0  0
   -4.2174    5.6789  -17.9543 N   0  0  0  0  0  0  0  0  0  0  0  0
   -5.2876    5.2624  -17.3054 C   0  0  0  0  0  0  0  0  0  0  0  0
   -5.5514    5.1895  -15.9058 C   0  0  0  0  0  0  0  0  0  0  0  0
   -8.2472    5.0863  -11.9359 C   0  0  2  0  0  0  0  0  0  0  0  0
   -7.6283    6.3893  -11.4384 C   0  0  0  0  0  0  0  0  0  0  0  0
   -6.9609    6.1873  -10.0752 C   0  0  0  0  0  0  0  0  0  0  0  0
   -7.6611    5.1009   -9.2597 C   0  0  0  0  0  0  0  0  0  0  0  0
   -7.6692    3.7638  -10.0335 C   0  0  0  0  0  0  0  0  0  0  0  0
   -8.8864    2.8586   -9.6782 C   0  0  0  0  0  0  0  0  0  0  0  0
   -8.0246    2.2097   -8.5896 C   0  0  0  0  0  0  0  0  0  0  0  0
   -6.7980    2.6307   -9.4135 C   0  0  0  0  0  0  0  0  0  0  0  0
   -7.4664    4.0025  -11.4591 O   0  0  0  0  0  0  0  0  0  0  0  0
  1  2  2  0
  2  3  1  0
  3  4  1  0
  4  5  1  0
  5  6  2  0
  6  7  1  0
  6  8  1  0
  8  9  1  0
  9 10  2  0
 10 11  1  0
 11 12  2  0
 12 13  1  0
 14  2  1  6
 14 15  1  0
 15 16  1  0
 16 17  1  0
 17 18  1  0
 18 19  1  0
 19 20  1  0
 20 21  1  0
 18 22  1  0
 13  4  2  0
 22 14  1  0
 12  8  1  0
 21 18  1  0
M  END
>  <energy_score>  (5021) 
-27.050226

>  <alias>  (5021) 
IASQVUKFZGDYCG-UHFFFAOYSA-N-P64-P64-P84-601532

>  <HIPPO Pose ID>  (5021) 
89425

>  <smiles>  (5021) 
O=C(Nc1cc(Br)n2ccnc2c1)C1CCCC2(CCC2)O1

>  <inchikey>  (5021) 
IASQVUKFZGDYCG-UHFFFAOYSA-N

>  <distance_score>  (5021) 
1.267847

>  <ref_mols>  (5021) 
Z1046b,Z1495a

>  <ref_pdb>  (5021) 
Z0089a

>  <HIPPO Compound ID>  (5021) 
139179

>  <name>  (5021) 
IASQVUKFZGDYCG-UHFFFAOYSA-N-P64-P64-P84-601532

>  <inspiration_score>  (5021) 
None

$$$$
SJHVVSLSHOUOQQ-UHFFFAOYSA-N-P64-P64-P84-601532
     RDKit          3D

 22 25  0  0  0  0  0  0  0  0999 V2000
   -9.4308    5.0428  -14.2317 O   0  0  0  0  0  0  0  0  0  0  0  0
   -8.4316    4.8959  -13.6410 C   0  0  0  0  0  0  0  0  0  0  0  0
   -6.9666    4.7825  -14.1511 N   0  0  0  0  0  0  0  0  0  0  0  0
   -6.4542    4.9140  -15.4070 C   0  0  0  0  0  0  0  0  0  0  0  0
   -7.2823    4.7677  -16.6052 C   0  0  0  0  0  0  0  0  0  0  0  0
   -6.7163    4.9153  -17.8230 C   0  0  0  0  0  0  0  0  0  0  0  0
   -5.3687    5.2740  -17.9039 N   0  0  0  0  0  0  0  0  0  0  0  0
   -4.5289    5.5180  -18.9570 C   0  0  0  0  0  0  0  0  0  0  0  0
   -4.7951    5.2798  -20.7876 Br  0  0  0  0  0  0  0  0  0  0  0  0
   -3.3526    5.9898  -18.4410 C   0  0  0  0  0  0  0  0  0  0  0  0
   -3.3919    5.9748  -17.0851 N   0  0  0  0  0  0  0  0  0  0  0  0
   -4.5778    5.4900  -16.7815 C   0  0  0  0  0  0  0  0  0  0  0  0
   -5.1473    5.2194  -15.5165 C   0  0  0  0  0  0  0  0  0  0  0  0
   -8.3422    4.8854  -12.1069 C   0  0  2  0  0  0  0  0  0  0  0  0
   -7.9423    6.2763  -11.5981 C   0  0  0  0  0  0  0  0  0  0  0  0
   -7.1842    6.2001  -10.2739 C   0  0  0  0  0  0  0  0  0  0  0  0
   -7.7366    5.0936   -9.3835 C   0  0  0  0  0  0  0  0  0  0  0  0
   -7.6897    3.7347  -10.1111 C   0  0  0  0  0  0  0  0  0  0  0  0
   -8.8914    2.8161   -9.7395 C   0  0  0  0  0  0  0  0  0  0  0  0
   -8.0314    2.2193   -8.6197 C   0  0  0  0  0  0  0  0  0  0  0  0
   -6.8025    2.6451   -9.4351 C   0  0  0  0  0  0  0  0  0  0  0  0
   -7.4605    3.9262  -11.5415 O   0  0  0  0  0  0  0  0  0  0  0  0
  1  2  2  0
  2  3  1  0
  3  4  1  0
  4  5  1  0
  5  6  2  0
  6  7  1  0
  7  8  1  0
  8  9  1  0
  8 10  2  0
 10 11  1  0
 11 12  2  0
 12 13  1  0
 14  2  1  6
 14 15  1  0
 15 16  1  0
 16 17  1  0
 17 18  1  0
 18 19  1  0
 19 20  1  0
 20 21  1  0
 18 22  1  0
 13  4  2  0
 22 14  1  0
 12  7  1  0
 21 18  1  0
M  END
>  <energy_score>  (5022) 
-37.517412

>  <alias>  (5022) 
SJHVVSLSHOUOQQ-UHFFFAOYSA-N-P64-P64-P84-601532

>  <HIPPO Pose ID>  (5022) 
89427

>  <smiles>  (5022) 
O=C(Nc1ccn2c(Br)cnc2c1)C1CCCC2(CCC2)O1

>  <inchikey>  (5022) 
SJHVVSLSHOUOQQ-UHFFFAOYSA-N

>  <distance_score>  (5022) 
1.556878

>  <ref_mols>  (5022) 
Z1046b,Z1495a

>  <ref_pdb>  (5022) 
Z0089a

>  <HIPPO Compound ID>  (5022) 
139180

>  <name>  (5022) 
SJHVVSLSHOUOQQ-UHFFFAOYSA-N-P64-P64-P84-601532

>  <inspiration_score>  (5022) 
None

$$$$
AUYWKGFDYAPFIA-UHFFFAOYSA-N-P64-P64-P84-601532
     RDKit          3D

 22 25  0  0  0  0  0  0  0  0999 V2000
   -9.5240    5.1113  -14.1441 O   0  0  0  0  0  0  0  0  0  0  0  0
   -8.5177    4.8061  -13.6296 C   0  0  0  0  0  0  0  0  0  0  0  0
   -7.1154    4.5331  -14.2422 N   0  0  0  0  0  0  0  0  0  0  0  0
   -6.6682    4.6644  -15.5235 C   0  0  0  0  0  0  0  0  0  0  0  0
   -7.5991    4.6461  -16.6526 C   0  0  0  0  0  0  0  0  0  0  0  0
   -7.1274    4.8136  -17.9053 C   0  0  0  0  0  0  0  0  0  0  0  0
   -5.7665    5.0466  -18.0873 N   0  0  0  0  0  0  0  0  0  0  0  0
   -5.0419    5.3123  -19.2248 C   0  0  0  0  0  0  0  0  0  0  0  0
   -3.7686    5.5757  -18.7752 C   0  0  0  0  0  0  0  0  0  0  0  0
   -2.7539    5.9479  -19.5599 O   0  0  0  0  0  0  0  0  0  0  0  0
   -3.6581    5.4425  -17.4315 N   0  0  0  0  0  0  0  0  0  0  0  0
   -4.8605    5.0961  -17.0356 C   0  0  0  0  0  0  0  0  0  0  0  0
   -5.3488    4.8380  -15.7320 C   0  0  0  0  0  0  0  0  0  0  0  0
   -8.3562    4.7084  -12.1050 C   0  0  2  0  0  0  0  0  0  0  0  0
   -7.9472    6.0835  -11.5693 C   0  0  0  0  0  0  0  0  0  0  0  0
   -7.9149    6.0734  -10.0439 C   0  0  0  0  0  0  0  0  0  0  0  0
   -7.0873    4.9066   -9.5111 C   0  0  0  0  0  0  0  0  0  0  0  0
   -7.5303    3.5882  -10.1590 C   0  0  0  0  0  0  0  0  0  0  0  0
   -8.8562    2.9705   -9.6156 C   0  0  0  0  0  0  0  0  0  0  0  0
   -8.0254    2.1932   -8.5929 C   0  0  0  0  0  0  0  0  0  0  0  0
   -6.8336    2.3336   -9.5566 C   0  0  0  0  0  0  0  0  0  0  0  0
   -7.4443    3.7383  -11.6080 O   0  0  0  0  0  0  0  0  0  0  0  0
  1  2  2  0
  2  3  1  0
  3  4  1  0
  4  5  1  0
  5  6  2  0
  6  7  1  0
  7  8  1  0
  8  9  2  0
  9 10  1  0
  9 11  1  0
 11 12  2  0
 12 13  1  0
 14  2  1  6
 14 15  1  0
 15 16  1  0
 16 17  1  0
 17 18  1  0
 18 19  1  0
 19 20  1  0
 20 21  1  0
 18 22  1  0
 13  4  2  0
 22 14  1  0
 12  7  1  0
 21 18  1  0
M  END
>  <energy_score>  (5023) 
-66.870802

>  <alias>  (5023) 
AUYWKGFDYAPFIA-UHFFFAOYSA-N-P64-P64-P84-601532

>  <HIPPO Pose ID>  (5023) 
89431

>  <smiles>  (5023) 
O=C(Nc1ccn2cc(O)nc2c1)C1CCCC2(CCC2)O1

>  <inchikey>  (5023) 
AUYWKGFDYAPFIA-UHFFFAOYSA-N

>  <distance_score>  (5023) 
1.242429

>  <ref_mols>  (5023) 
Z1046b,Z1495a

>  <ref_pdb>  (5023) 
Z0089a

>  <HIPPO Compound ID>  (5023) 
139182

>  <name>  (5023) 
AUYWKGFDYAPFIA-UHFFFAOYSA-N-P64-P64-P84-601532

>  <inspiration_score>  (5023) 
None

$$$$
YZLLXYVUCNZPFI-UHFFFAOYSA-N-P64-P64-P84-601532
     RDKit          3D

 22 25  0  0  0  0  0  0  0  0999 V2000
   -5.7356    3.8742   -9.2245 C   0  0  0  0  0  0  0  0  0  0  0  0
   -6.3245    5.0597   -9.9830 C   0  0  0  0  0  0  0  0  0  0  0  0
   -5.5260    6.3221   -9.6337 C   0  0  0  0  0  0  0  0  0  0  0  0
   -6.2379    4.8491  -11.4326 O   0  0  0  0  0  0  0  0  0  0  0  0
   -7.6086    4.8737  -11.8918 C   0  0  1  0  0  0  0  0  0  0  0  0
   -7.9602    5.1339  -13.3646 C   0  0  0  0  0  0  0  0  0  0  0  0
   -9.0441    5.3603  -13.7491 O   0  0  0  0  0  0  0  0  0  0  0  0
   -6.6260    4.9584  -14.1508 N   0  0  0  0  0  0  0  0  0  0  0  0
   -6.3867    4.9327  -15.4904 C   0  0  0  0  0  0  0  0  0  0  0  0
   -7.5090    4.7043  -16.3855 C   0  0  0  0  0  0  0  0  0  0  0  0
   -7.3191    4.6170  -17.7150 C   0  0  0  0  0  0  0  0  0  0  0  0
   -8.7859    4.2333  -18.7971 Br  0  0  0  0  0  0  0  0  0  0  0  0
   -6.0197    4.8019  -18.2156 N   0  0  0  0  0  0  0  0  0  0  0  0
   -5.5065    4.7876  -19.4930 C   0  0  0  0  0  0  0  0  0  0  0  0
   -4.1663    5.0728  -19.3771 C   0  0  0  0  0  0  0  0  0  0  0  0
   -3.8136    5.2470  -18.0682 N   0  0  0  0  0  0  0  0  0  0  0  0
   -4.9234    5.0560  -17.3856 C   0  0  0  0  0  0  0  0  0  0  0  0
   -5.1421    5.0733  -15.9808 C   0  0  0  0  0  0  0  0  0  0  0  0
   -8.2578    3.5592  -11.4232 C   0  0  0  0  0  0  0  0  0  0  0  0
   -8.5148    3.8439   -9.9436 C   0  0  0  0  0  0  0  0  0  0  0  0
   -7.8333    5.2118   -9.7379 C   0  0  2  0  0  0  0  0  0  0  0  0
   -8.2219    5.9413  -11.0029 C   0  0  0  0  0  0  0  0  0  0  0  0
  1  2  1  0
  2  3  1  0
  2  4  1  0
  4  5  1  0
  5  6  1  6
  6  7  2  0
  6  8  1  0
  8  9  1  0
  9 10  1  0
 10 11  2  0
 11 12  1  0
 11 13  1  0
 13 14  1  0
 14 15  2  0
 15 16  1  0
 16 17  2  0
 17 18  1  0
  5 19  1  0
 19 20  1  0
 21 20  1  6
 21 22  1  0
 21  2  1  0
 22  5  1  0
 18  9  2  0
 17 13  1  0
M  END
>  <energy_score>  (5024) 
-53.824847

>  <alias>  (5024) 
YZLLXYVUCNZPFI-UHFFFAOYSA-N-P64-P64-P84-601532

>  <HIPPO Pose ID>  (5024) 
89437

>  <smiles>  (5024) 
CC1(C)OC2(C(=O)Nc3cc(Br)n4ccnc4c3)CCC1C2

>  <inchikey>  (5024) 
YZLLXYVUCNZPFI-UHFFFAOYSA-N

>  <distance_score>  (5024) 
1.806743

>  <ref_mols>  (5024) 
Z1046b,Z1495a

>  <ref_pdb>  (5024) 
Z0089a

>  <HIPPO Compound ID>  (5024) 
139185

>  <name>  (5024) 
YZLLXYVUCNZPFI-UHFFFAOYSA-N-P64-P64-P84-601532

>  <inspiration_score>  (5024) 
None

$$$$
BHWMSWMCURKTQV-UHFFFAOYSA-N-P84-P64-P84-601532
     RDKit          3D

 22 25  0  0  0  0  0  0  0  0999 V2000
   -7.5888    5.7615   -8.7475 C   0  0  0  0  0  0  0  0  0  0  0  0
   -7.9464    4.6198   -9.6891 C   0  0  0  0  0  0  0  0  0  0  0  0
   -8.7931    3.6159   -8.8994 C   0  0  0  0  0  0  0  0  0  0  0  0
   -8.6602    5.1699  -10.8351 O   0  0  0  0  0  0  0  0  0  0  0  0
   -7.9100    4.7881  -12.0221 C   0  0  2  0  0  0  0  0  0  0  0  0
   -7.9540    5.7447  -13.2771 C   0  0  0  0  0  0  0  0  0  0  0  0
   -8.2644    6.8721  -13.1719 O   0  0  0  0  0  0  0  0  0  0  0  0
   -7.4334    4.9468  -14.5233 N   0  0  0  0  0  0  0  0  0  0  0  0
   -7.1218    5.3728  -15.7780 C   0  0  0  0  0  0  0  0  0  0  0  0
   -7.0499    4.3592  -16.8198 C   0  0  0  0  0  0  0  0  0  0  0  0
   -6.2454    4.5632  -17.8762 C   0  0  0  0  0  0  0  0  0  0  0  0
   -5.5982    5.7812  -17.9896 N   0  0  0  0  0  0  0  0  0  0  0  0
   -4.4903    6.1760  -18.6882 C   0  0  0  0  0  0  0  0  0  0  0  0
   -3.0644    5.1167  -19.3158 Br  0  0  0  0  0  0  0  0  0  0  0  0
   -4.4782    7.5456  -18.6222 C   0  0  0  0  0  0  0  0  0  0  0  0
   -5.4025    7.9829  -17.7081 N   0  0  0  0  0  0  0  0  0  0  0  0
   -5.9311    6.8796  -17.2116 C   0  0  0  0  0  0  0  0  0  0  0  0
   -6.6560    6.6147  -16.0113 C   0  0  0  0  0  0  0  0  0  0  0  0
   -8.1162    3.2630  -12.1499 C   0  0  0  0  0  0  0  0  0  0  0  0
   -7.1368    2.7132  -11.1039 C   0  0  0  0  0  0  0  0  0  0  0  0
   -6.7168    3.9752  -10.3411 C   0  0  1  0  0  0  0  0  0  0  0  0
   -6.4706    4.9055  -11.5068 C   0  0  0  0  0  0  0  0  0  0  0  0
  1  2  1  0
  2  3  1  0
  2  4  1  0
  4  5  1  0
  5  6  1  6
  6  7  2  0
  6  8  1  0
  8  9  1  0
  9 10  1  0
 10 11  2  0
 11 12  1  0
 12 13  1  0
 13 14  1  0
 13 15  2  0
 15 16  1  0
 16 17  2  0
 17 18  1  0
  5 19  1  0
 19 20  1  0
 21 20  1  6
 21 22  1  0
 21  2  1  0
 22  5  1  0
 18  9  2  0
 17 12  1  0
M  END
>  <energy_score>  (5025) 
-7.577103

>  <alias>  (5025) 
BHWMSWMCURKTQV-UHFFFAOYSA-N-P84-P64-P84-601532

>  <HIPPO Pose ID>  (5025) 
89440

>  <smiles>  (5025) 
CC1(C)OC2(C(=O)Nc3ccn4c(Br)cnc4c3)CCC1C2

>  <inchikey>  (5025) 
BHWMSWMCURKTQV-UHFFFAOYSA-N

>  <distance_score>  (5025) 
1.720852

>  <ref_mols>  (5025) 
Z1046b,Z1495a

>  <ref_pdb>  (5025) 
Z0089a

>  <HIPPO Compound ID>  (5025) 
139186

>  <name>  (5025) 
BHWMSWMCURKTQV-UHFFFAOYSA-N-P84-P64-P84-601532

>  <inspiration_score>  (5025) 
None

$$$$
NVVOPHGXZRPZAE-UHFFFAOYSA-N-P84-P64-P84-601532
     RDKit          3D

 22 24  0  0  0  0  0  0  0  0999 V2000
   -6.7760    2.3532   -9.6570 C   0  0  0  0  0  0  0  0  0  0  0  0
   -7.4563    3.3605  -10.5654 C   0  0  0  0  0  0  0  0  0  0  0  0
   -8.7987    2.7667  -11.0011 C   0  0  0  0  0  0  0  0  0  0  0  0
   -6.6765    3.6416  -11.8400 C   0  0  0  0  0  0  0  0  0  0  0  0
   -7.0900    5.0733  -12.2094 C   0  0  1  0  0  0  0  0  0  0  0  0
   -7.5301    5.2030  -13.6893 C   0  0  0  0  0  0  0  0  0  0  0  0
   -8.5530    5.6358  -14.0641 O   0  0  0  0  0  0  0  0  0  0  0  0
   -6.2653    4.7279  -14.4999 N   0  0  0  0  0  0  0  0  0  0  0  0
   -5.9996    4.7815  -15.8374 C   0  0  0  0  0  0  0  0  0  0  0  0
   -4.5552    4.6929  -16.0923 C   0  0  0  0  0  0  0  0  0  0  0  0
   -4.0618    5.0394  -17.2860 C   0  0  0  0  0  0  0  0  0  0  0  0
   -4.9349    5.5225  -18.2375 N   0  0  0  0  0  0  0  0  0  0  0  0
   -4.6232    6.1357  -19.4175 C   0  0  0  0  0  0  0  0  0  0  0  0
   -5.8102    6.6619  -19.8520 C   0  0  0  0  0  0  0  0  0  0  0  0
   -6.8260    6.3790  -18.9741 N   0  0  0  0  0  0  0  0  0  0  0  0
   -6.3120    5.5765  -18.0645 C   0  0  0  0  0  0  0  0  0  0  0  0
   -6.8544    4.9880  -16.8688 C   0  0  0  0  0  0  0  0  0  0  0  0
   -8.6444    4.4488  -16.9124 Br  0  0  0  0  0  0  0  0  0  0  0  0
   -7.9347    5.5563  -11.1572 O   0  0  0  0  0  0  0  0  0  0  0  0
   -7.5905    4.7802   -9.9842 C   0  0  0  0  0  0  0  0  0  0  0  0
   -8.6254    4.8901   -8.8801 C   0  0  0  0  0  0  0  0  0  0  0  0
   -6.3125    5.4085   -9.4130 C   0  0  0  0  0  0  0  0  0  0  0  0
  1  2  1  0
  2  3  1  0
  2  4  1  0
  4  5  1  0
  5  6  1  6
  6  7  2  0
  6  8  1  0
  8  9  1  0
  9 10  1  0
 10 11  2  0
 11 12  1  0
 12 13  1  0
 13 14  2  0
 14 15  1  0
 15 16  2  0
 16 17  1  0
 17 18  1  0
  5 19  1  0
 19 20  1  0
 20 21  1  0
 20 22  1  0
 20  2  1  0
 17  9  2  0
 16 12  1  0
M  END
>  <energy_score>  (5026) 
-23.621305

>  <alias>  (5026) 
NVVOPHGXZRPZAE-UHFFFAOYSA-N-P84-P64-P84-601532

>  <HIPPO Pose ID>  (5026) 
89442

>  <smiles>  (5026) 
CC1(C)CC(C(=O)Nc2ccn3ccnc3c2Br)OC1(C)C

>  <inchikey>  (5026) 
NVVOPHGXZRPZAE-UHFFFAOYSA-N

>  <distance_score>  (5026) 
1.469974

>  <ref_mols>  (5026) 
Z1046b,Z1495a

>  <ref_pdb>  (5026) 
Z0089a

>  <HIPPO Compound ID>  (5026) 
139187

>  <name>  (5026) 
NVVOPHGXZRPZAE-UHFFFAOYSA-N-P84-P64-P84-601532

>  <inspiration_score>  (5026) 
None

$$$$
CVERCPZYBCZHAV-UHFFFAOYSA-N-P84-P64-P84-601532
     RDKit          3D

 22 24  0  0  0  0  0  0  0  0999 V2000
   -5.4889    3.0665   -9.6072 C   0  0  0  0  0  0  0  0  0  0  0  0
   -6.8418    3.6640   -9.9749 C   0  0  0  0  0  0  0  0  0  0  0  0
   -7.3589    4.4156   -8.7341 C   0  0  0  0  0  0  0  0  0  0  0  0
   -7.7176    2.4656  -10.3132 C   0  0  0  0  0  0  0  0  0  0  0  0
   -8.9709    2.9151  -10.9959 C   0  0  0  0  0  0  0  0  0  0  0  0
   -8.5988    3.7284  -12.2121 C   0  0  0  0  0  0  0  0  0  0  0  0
   -7.7445    4.9602  -11.8897 C   0  0  2  0  0  0  0  0  0  0  0  0
   -8.4548    6.0796  -11.1092 C   0  0  0  0  0  0  0  0  0  0  0  0
   -7.5687    5.5687  -13.3569 C   0  0  0  0  0  0  0  0  0  0  0  0
   -8.2872    6.4035  -13.7567 O   0  0  0  0  0  0  0  0  0  0  0  0
   -6.4256    4.7953  -14.0737 N   0  0  0  0  0  0  0  0  0  0  0  0
   -6.0195    4.8211  -15.3771 C   0  0  0  0  0  0  0  0  0  0  0  0
   -7.0000    5.2409  -16.3865 C   0  0  0  0  0  0  0  0  0  0  0  0
   -6.5932    5.5394  -17.6323 C   0  0  0  0  0  0  0  0  0  0  0  0
   -5.2406    5.4289  -17.9304 N   0  0  0  0  0  0  0  0  0  0  0  0
   -4.5094    5.9106  -18.9841 C   0  0  0  0  0  0  0  0  0  0  0  0
   -5.0790    7.0674  -20.3651 Br  0  0  0  0  0  0  0  0  0  0  0  0
   -3.2148    5.5123  -18.7688 C   0  0  0  0  0  0  0  0  0  0  0  0
   -3.0991    4.8411  -17.5811 N   0  0  0  0  0  0  0  0  0  0  0  0
   -4.3095    4.8702  -17.0547 C   0  0  0  0  0  0  0  0  0  0  0  0
   -4.7539    4.5401  -15.7388 C   0  0  0  0  0  0  0  0  0  0  0  0
   -6.6083    4.5269  -11.1368 O   0  0  0  0  0  0  0  0  0  0  0  0
  1  2  1  0
  2  3  1  0
  2  4  1  0
  4  5  1  0
  5  6  1  0
  6  7  1  0
  7  8  1  1
  7  9  1  0
  9 10  2  0
  9 11  1  0
 11 12  1  0
 12 13  1  0
 13 14  2  0
 14 15  1  0
 15 16  1  0
 16 17  1  0
 16 18  2  0
 18 19  1  0
 19 20  2  0
 20 21  1  0
  7 22  1  0
 22  2  1  0
 21 12  2  0
 20 15  1  0
M  END
>  <energy_score>  (5027) 
-47.436492

>  <alias>  (5027) 
CVERCPZYBCZHAV-UHFFFAOYSA-N-P84-P64-P84-601532

>  <HIPPO Pose ID>  (5027) 
89460

>  <smiles>  (5027) 
CC1(C)CCCC(C)(C(=O)Nc2ccn3c(Br)cnc3c2)O1

>  <inchikey>  (5027) 
CVERCPZYBCZHAV-UHFFFAOYSA-N

>  <distance_score>  (5027) 
1.615399

>  <ref_mols>  (5027) 
Z1046b,Z1495a

>  <ref_pdb>  (5027) 
Z0089a

>  <HIPPO Compound ID>  (5027) 
139196

>  <name>  (5027) 
CVERCPZYBCZHAV-UHFFFAOYSA-N-P84-P64-P84-601532

>  <inspiration_score>  (5027) 
None

$$$$
RXFXLIGKNPWZEU-UHFFFAOYSA-N-P64-P64-P84-601532
     RDKit          3D

 22 24  0  0  0  0  0  0  0  0999 V2000
   -9.3226    2.4601   -9.1209 C   0  0  0  0  0  0  0  0  0  0  0  0
   -8.2202    3.4096   -9.6010 C   0  0  0  0  0  0  0  0  0  0  0  0
   -7.9725    4.4368   -8.4909 C   0  0  0  0  0  0  0  0  0  0  0  0
   -6.9866    2.5443   -9.8431 C   0  0  0  0  0  0  0  0  0  0  0  0
   -5.9585    3.3517  -10.4053 O   0  0  0  0  0  0  0  0  0  0  0  0
   -6.3753    3.7693  -11.6990 C   0  0  0  0  0  0  0  0  0  0  0  0
   -7.6337    4.6685  -11.6816 C   0  0  1  0  0  0  0  0  0  0  0  0
   -7.3620    6.1016  -11.2101 C   0  0  0  0  0  0  0  0  0  0  0  0
   -8.1322    4.7968  -13.2058 C   0  0  0  0  0  0  0  0  0  0  0  0
   -9.2450    4.5939  -13.5247 O   0  0  0  0  0  0  0  0  0  0  0  0
   -6.8590    5.1176  -14.0852 N   0  0  0  0  0  0  0  0  0  0  0  0
   -6.7053    5.1520  -15.4410 C   0  0  0  0  0  0  0  0  0  0  0  0
   -7.7841    4.7556  -16.3278 C   0  0  0  0  0  0  0  0  0  0  0  0
   -7.5616    4.6236  -17.6528 C   0  0  0  0  0  0  0  0  0  0  0  0
   -8.9786    4.1465  -18.7646 Br  0  0  0  0  0  0  0  0  0  0  0  0
   -6.2703    4.8784  -18.1497 N   0  0  0  0  0  0  0  0  0  0  0  0
   -5.7153    4.7681  -19.4053 C   0  0  0  0  0  0  0  0  0  0  0  0
   -4.4067    5.1748  -19.2925 C   0  0  0  0  0  0  0  0  0  0  0  0
   -4.1149    5.5287  -18.0046 N   0  0  0  0  0  0  0  0  0  0  0  0
   -5.2289    5.3202  -17.3340 C   0  0  0  0  0  0  0  0  0  0  0  0
   -5.4877    5.4423  -15.9439 C   0  0  0  0  0  0  0  0  0  0  0  0
   -8.6456    4.0781  -10.8242 O   0  0  0  0  0  0  0  0  0  0  0  0
  1  2  1  0
  2  3  1  0
  2  4  1  0
  4  5  1  0
  5  6  1  0
  6  7  1  0
  7  8  1  1
  7  9  1  0
  9 10  2  0
  9 11  1  0
 11 12  1  0
 12 13  1  0
 13 14  2  0
 14 15  1  0
 14 16  1  0
 16 17  1  0
 17 18  2  0
 18 19  1  0
 19 20  2  0
 20 21  1  0
  7 22  1  0
 22  2  1  0
 21 12  2  0
 20 16  1  0
M  END
>  <energy_score>  (5028) 
-49.945759

>  <alias>  (5028) 
RXFXLIGKNPWZEU-UHFFFAOYSA-N-P64-P64-P84-601532

>  <HIPPO Pose ID>  (5028) 
89461

>  <smiles>  (5028) 
CC1(C)COCC(C)(C(=O)Nc2cc(Br)n3ccnc3c2)O1

>  <inchikey>  (5028) 
RXFXLIGKNPWZEU-UHFFFAOYSA-N

>  <distance_score>  (5028) 
1.481869

>  <ref_mols>  (5028) 
Z1046b,Z1495a

>  <ref_pdb>  (5028) 
Z0089a

>  <HIPPO Compound ID>  (5028) 
139197

>  <name>  (5028) 
RXFXLIGKNPWZEU-UHFFFAOYSA-N-P64-P64-P84-601532

>  <inspiration_score>  (5028) 
None

$$$$
HBEOJOGVRQHHHO-UHFFFAOYSA-N-P64-P64-P84-601532
     RDKit          3D

 22 24  0  0  0  0  0  0  0  0999 V2000
   -9.4394    2.3363   -9.1133 C   0  0  0  0  0  0  0  0  0  0  0  0
   -8.3572    3.3057   -9.5865 C   0  0  0  0  0  0  0  0  0  0  0  0
   -8.2390    4.4348   -8.5526 C   0  0  0  0  0  0  0  0  0  0  0  0
   -7.0627    2.5074   -9.6583 C   0  0  0  0  0  0  0  0  0  0  0  0
   -6.0389    3.3844  -10.1095 O   0  0  0  0  0  0  0  0  0  0  0  0
   -6.3198    3.7411  -11.4515 C   0  0  0  0  0  0  0  0  0  0  0  0
   -7.6719    4.4594  -11.6907 C   0  0  1  0  0  0  0  0  0  0  0  0
   -7.5762    5.9481  -11.3041 C   0  0  0  0  0  0  0  0  0  0  0  0
   -8.0363    4.5383  -13.2934 C   0  0  0  0  0  0  0  0  0  0  0  0
   -9.1291    4.7290  -13.6876 O   0  0  0  0  0  0  0  0  0  0  0  0
   -6.6719    4.4200  -14.0807 N   0  0  0  0  0  0  0  0  0  0  0  0
   -6.3958    4.5967  -15.4023 C   0  0  0  0  0  0  0  0  0  0  0  0
   -7.3672    4.8245  -16.4646 C   0  0  0  0  0  0  0  0  0  0  0  0
   -6.9184    5.1261  -17.7078 C   0  0  0  0  0  0  0  0  0  0  0  0
   -5.5389    5.1903  -17.9455 N   0  0  0  0  0  0  0  0  0  0  0  0
   -4.7812    5.6071  -19.0114 C   0  0  0  0  0  0  0  0  0  0  0  0
   -5.2567    6.4755  -20.6064 Br  0  0  0  0  0  0  0  0  0  0  0  0
   -3.4693    5.3816  -18.6780 C   0  0  0  0  0  0  0  0  0  0  0  0
   -3.3598    4.9347  -17.4026 N   0  0  0  0  0  0  0  0  0  0  0  0
   -4.6000    4.8637  -16.9735 C   0  0  0  0  0  0  0  0  0  0  0  0
   -5.0757    4.5693  -15.6836 C   0  0  0  0  0  0  0  0  0  0  0  0
   -8.7101    3.8280  -10.9054 O   0  0  0  0  0  0  0  0  0  0  0  0
  1  2  1  0
  2  3  1  0
  2  4  1  0
  4  5  1  0
  5  6  1  0
  6  7  1  0
  7  8  1  1
  7  9  1  0
  9 10  2  0
  9 11  1  0
 11 12  1  0
 12 13  1  0
 13 14  2  0
 14 15  1  0
 15 16  1  0
 16 17  1  0
 16 18  2  0
 18 19  1  0
 19 20  2  0
 20 21  1  0
  7 22  1  0
 22  2  1  0
 21 12  2  0
 20 15  1  0
M  END
>  <energy_score>  (5029) 
-0.746825

>  <alias>  (5029) 
HBEOJOGVRQHHHO-UHFFFAOYSA-N-P64-P64-P84-601532

>  <HIPPO Pose ID>  (5029) 
89463

>  <smiles>  (5029) 
CC1(C)COCC(C)(C(=O)Nc2ccn3c(Br)cnc3c2)O1

>  <inchikey>  (5029) 
HBEOJOGVRQHHHO-UHFFFAOYSA-N

>  <distance_score>  (5029) 
1.423343

>  <ref_mols>  (5029) 
Z1046b,Z1495a

>  <ref_pdb>  (5029) 
Z0089a

>  <HIPPO Compound ID>  (5029) 
139198

>  <name>  (5029) 
HBEOJOGVRQHHHO-UHFFFAOYSA-N-P64-P64-P84-601532

>  <inspiration_score>  (5029) 
None

$$$$
CXXSNKIQBXGUPK-UHFFFAOYSA-N-P84-P64-P84-601532
     RDKit          3D

 22 24  0  0  0  0  0  0  0  0999 V2000
   -5.8749    2.7347   -9.6105 C   0  0  0  0  0  0  0  0  0  0  0  0
   -7.0840    3.5657  -10.0288 C   0  0  0  0  0  0  0  0  0  0  0  0
   -7.5525    4.3485   -8.7889 C   0  0  0  0  0  0  0  0  0  0  0  0
   -8.1385    2.5444  -10.4587 C   0  0  0  0  0  0  0  0  0  0  0  0
   -9.1865    3.1815  -11.1554 O   0  0  0  0  0  0  0  0  0  0  0  0
   -8.6631    3.8197  -12.3046 C   0  0  0  0  0  0  0  0  0  0  0  0
   -7.7382    4.9880  -11.9317 C   0  0  2  0  0  0  0  0  0  0  0  0
   -8.4114    6.1167  -11.1290 C   0  0  0  0  0  0  0  0  0  0  0  0
   -7.5701    5.5820  -13.3923 C   0  0  0  0  0  0  0  0  0  0  0  0
   -8.2705    6.4368  -13.7777 O   0  0  0  0  0  0  0  0  0  0  0  0
   -6.4685    4.7772  -14.1291 N   0  0  0  0  0  0  0  0  0  0  0  0
   -6.0898    4.7903  -15.4352 C   0  0  0  0  0  0  0  0  0  0  0  0
   -7.1438    5.0571  -16.4250 C   0  0  0  0  0  0  0  0  0  0  0  0
   -6.8156    5.2779  -17.7085 C   0  0  0  0  0  0  0  0  0  0  0  0
   -5.4722    5.2768  -18.0486 N   0  0  0  0  0  0  0  0  0  0  0  0
   -4.8654    5.6806  -19.2072 C   0  0  0  0  0  0  0  0  0  0  0  0
   -3.5230    5.5991  -18.9434 C   0  0  0  0  0  0  0  0  0  0  0  0
   -2.5826    6.0049  -19.8010 O   0  0  0  0  0  0  0  0  0  0  0  0
   -3.2652    5.0916  -17.7128 N   0  0  0  0  0  0  0  0  0  0  0  0
   -4.4510    4.9468  -17.1609 C   0  0  0  0  0  0  0  0  0  0  0  0
   -4.8111    4.6358  -15.8181 C   0  0  0  0  0  0  0  0  0  0  0  0
   -6.6585    4.4369  -11.1535 O   0  0  0  0  0  0  0  0  0  0  0  0
  1  2  1  0
  2  3  1  0
  2  4  1  0
  4  5  1  0
  5  6  1  0
  6  7  1  0
  7  8  1  1
  7  9  1  0
  9 10  2  0
  9 11  1  0
 11 12  1  0
 12 13  1  0
 13 14  2  0
 14 15  1  0
 15 16  1  0
 16 17  2  0
 17 18  1  0
 17 19  1  0
 19 20  2  0
 20 21  1  0
  7 22  1  0
 22  2  1  0
 21 12  2  0
 20 15  1  0
M  END
>  <energy_score>  (5030) 
-38.073588

>  <alias>  (5030) 
CXXSNKIQBXGUPK-UHFFFAOYSA-N-P84-P64-P84-601532

>  <HIPPO Pose ID>  (5030) 
89466

>  <smiles>  (5030) 
CC1(C)COCC(C)(C(=O)Nc2ccn3cc(O)nc3c2)O1

>  <inchikey>  (5030) 
CXXSNKIQBXGUPK-UHFFFAOYSA-N

>  <distance_score>  (5030) 
1.443965

>  <ref_mols>  (5030) 
Z1046b,Z1495a

>  <ref_pdb>  (5030) 
Z0089a

>  <HIPPO Compound ID>  (5030) 
139199

>  <name>  (5030) 
CXXSNKIQBXGUPK-UHFFFAOYSA-N-P84-P64-P84-601532

>  <inspiration_score>  (5030) 
None

$$$$
AWQVOEMDIRTPMF-UHFFFAOYSA-N-P84-P64-P84-601532
     RDKit          3D

 22 25  0  0  0  0  0  0  0  0999 V2000
   -6.8682    2.4329   -9.5416 C   0  0  0  0  0  0  0  0  0  0  0  0
   -7.3146    3.4695  -10.5212 C   0  0  2  0  0  0  0  0  0  0  0  0
   -8.4050    3.0227  -11.5761 C   0  0  0  0  0  0  0  0  0  0  0  0
   -7.9221    4.3588  -12.2186 C   0  0  2  0  0  0  0  0  0  0  0  0
   -8.2014    4.6758  -13.7610 C   0  0  0  0  0  0  0  0  0  0  0  0
   -9.2151    5.1203  -14.1571 O   0  0  0  0  0  0  0  0  0  0  0  0
   -6.8718    4.3538  -14.5191 N   0  0  0  0  0  0  0  0  0  0  0  0
   -6.5134    4.5856  -15.8057 C   0  0  0  0  0  0  0  0  0  0  0  0
   -7.4532    4.9910  -16.8360 C   0  0  0  0  0  0  0  0  0  0  0  0
   -6.9678    5.4276  -18.0158 C   0  0  0  0  0  0  0  0  0  0  0  0
   -5.5867    5.4441  -18.2200 N   0  0  0  0  0  0  0  0  0  0  0  0
   -4.8040    6.0265  -19.1807 C   0  0  0  0  0  0  0  0  0  0  0  0
   -5.2883    7.2364  -20.5416 Br  0  0  0  0  0  0  0  0  0  0  0  0
   -3.5076    5.6790  -18.8927 C   0  0  0  0  0  0  0  0  0  0  0  0
   -3.4341    4.9632  -17.7371 N   0  0  0  0  0  0  0  0  0  0  0  0
   -4.6800    4.9045  -17.3130 C   0  0  0  0  0  0  0  0  0  0  0  0
   -5.1950    4.4759  -16.0720 C   0  0  0  0  0  0  0  0  0  0  0  0
   -6.4919    3.7625  -11.7929 C   0  0  0  0  0  0  0  0  0  0  0  0
   -8.2405    5.4206  -11.2506 O   0  0  0  0  0  0  0  0  0  0  0  0
   -7.7187    4.8734  -10.0228 C   0  0  0  0  0  0  0  0  0  0  0  0
   -8.7131    4.7669   -8.8904 C   0  0  0  0  0  0  0  0  0  0  0  0
   -6.5784    5.7767   -9.5815 C   0  0  0  0  0  0  0  0  0  0  0  0
  2  1  1  1
  2  3  1  0
  3  4  1  0
  4  5  1  6
  5  6  2  0
  5  7  1  0
  7  8  1  0
  8  9  1  0
  9 10  2  0
 10 11  1  0
 11 12  1  0
 12 13  1  0
 12 14  2  0
 14 15  1  0
 15 16  2  0
 16 17  1  0
  4 18  1  0
  4 19  1  0
 19 20  1  0
 20 21  1  0
 20 22  1  0
 18  2  1  0
 20  2  1  0
 17  8  2  0
 16 11  1  0
M  END
>  <energy_score>  (5031) 
-31.444736

>  <alias>  (5031) 
AWQVOEMDIRTPMF-UHFFFAOYSA-N-P84-P64-P84-601532

>  <HIPPO Pose ID>  (5031) 
89478

>  <smiles>  (5031) 
CC12CC(C(=O)Nc3ccn4c(Br)cnc4c3)(C1)OC2(C)C

>  <inchikey>  (5031) 
AWQVOEMDIRTPMF-UHFFFAOYSA-N

>  <distance_score>  (5031) 
1.375647

>  <ref_mols>  (5031) 
Z1046b,Z1495a

>  <ref_pdb>  (5031) 
Z0089a

>  <HIPPO Compound ID>  (5031) 
139205

>  <name>  (5031) 
AWQVOEMDIRTPMF-UHFFFAOYSA-N-P84-P64-P84-601532

>  <inspiration_score>  (5031) 
None

$$$$
QANJBGVJPQMBOO-UHFFFAOYSA-N-P84-P64-P84-601532
     RDKit          3D

 22 25  0  0  0  0  0  0  0  0999 V2000
   -9.0391    1.9452   -7.2311 C   0  0  0  0  0  0  0  0  0  0  0  0
   -8.6887    2.9342   -8.2680 C   0  0  0  0  0  0  0  0  0  0  0  0
   -8.6573    4.3128   -8.2044 C   0  0  0  0  0  0  0  0  0  0  0  0
   -8.3056    4.7289   -9.4626 N   0  0  0  0  0  0  0  0  0  0  0  0
   -8.1864    6.0174   -9.9791 C   0  0  0  0  0  0  0  0  0  0  0  0
   -7.7833    6.1740  -11.2526 C   0  0  0  0  0  0  0  0  0  0  0  0
   -7.4290    4.9888  -12.0276 C   0  0  0  0  0  0  0  0  0  0  0  0
   -6.9408    5.1802  -13.2770 N   0  0  0  0  0  0  0  0  0  0  0  0
   -6.3486    4.1668  -14.2953 C   0  0  0  0  0  0  0  0  0  0  0  0
   -6.1200    3.0231  -14.1824 O   0  0  0  0  0  0  0  0  0  0  0  0
   -6.1668    4.8831  -15.6604 C   0  0  1  0  0  0  0  0  0  0  0  0
   -6.8897    4.2359  -16.9049 C   0  0  0  0  0  0  0  0  0  0  0  0
   -6.5227    5.6245  -17.4854 C   0  0  1  0  0  0  0  0  0  0  0  0
   -7.1397    5.9471  -18.7944 C   0  0  0  0  0  0  0  0  0  0  0  0
   -7.0648    6.1067  -16.0828 C   0  0  0  0  0  0  0  0  0  0  0  0
   -4.9846    5.7365  -17.3813 C   0  0  0  0  0  0  0  0  0  0  0  0
   -4.5079    7.1713  -17.4607 C   0  0  0  0  0  0  0  0  0  0  0  0
   -4.2039    4.9011  -18.3721 C   0  0  0  0  0  0  0  0  0  0  0  0
   -4.7975    5.2169  -16.0561 O   0  0  0  0  0  0  0  0  0  0  0  0
   -7.5890    3.7501  -11.5246 C   0  0  0  0  0  0  0  0  0  0  0  0
   -8.0657    3.5855  -10.2040 C   0  0  0  0  0  0  0  0  0  0  0  0
   -8.3168    2.5042   -9.5109 N   0  0  0  0  0  0  0  0  0  0  0  0
  1  2  1  0
  2  3  2  0
  3  4  1  0
  4  5  1  0
  5  6  2  0
  6  7  1  0
  7  8  1  0
  8  9  1  0
  9 10  2  0
 11  9  1  1
 11 12  1  0
 12 13  1  0
 13 14  1  6
 13 15  1  0
 13 16  1  0
 16 17  1  0
 16 18  1  0
 16 19  1  0
  7 20  2  0
 20 21  1  0
 21 22  2  0
 22  2  1  0
 21  4  1  0
 15 11  1  0
 19 11  1  0
M  END
>  <energy_score>  (5032) 
-54.279905

>  <alias>  (5032) 
QANJBGVJPQMBOO-UHFFFAOYSA-N-P84-P64-P84-601532

>  <HIPPO Pose ID>  (5032) 
89480

>  <smiles>  (5032) 
Cc1cn2ccc(NC(=O)C34CC(C)(C3)C(C)(C)O4)cc2n1

>  <inchikey>  (5032) 
QANJBGVJPQMBOO-UHFFFAOYSA-N

>  <distance_score>  (5032) 
1.363062

>  <ref_mols>  (5032) 
Z1046b,Z1495a

>  <ref_pdb>  (5032) 
Z0089a

>  <HIPPO Compound ID>  (5032) 
139206

>  <name>  (5032) 
QANJBGVJPQMBOO-UHFFFAOYSA-N-P84-P64-P84-601532

>  <inspiration_score>  (5032) 
None

$$$$
GGOGPUPFVSMNRC-UHFFFAOYSA-N-P64-P64-P84-601532
     RDKit          3D

 22 25  0  0  0  0  0  0  0  0999 V2000
   -6.9271    2.2984  -10.0267 C   0  0  0  0  0  0  0  0  0  0  0  0
   -7.2189    3.5747  -10.7555 C   0  0  2  0  0  0  0  0  0  0  0  0
   -8.1468    3.5242  -12.0603 C   0  0  0  0  0  0  0  0  0  0  0  0
   -7.5480    4.9621  -12.1819 C   0  0  2  0  0  0  0  0  0  0  0  0
   -7.1811    5.7981  -13.4435 C   0  0  0  0  0  0  0  0  0  0  0  0
   -6.7191    6.8694  -13.3031 O   0  0  0  0  0  0  0  0  0  0  0  0
   -7.4214    4.9649  -14.7368 N   0  0  0  0  0  0  0  0  0  0  0  0
   -7.0788    5.2193  -16.0264 C   0  0  0  0  0  0  0  0  0  0  0  0
   -7.6899    4.4799  -17.1204 C   0  0  0  0  0  0  0  0  0  0  0  0
   -7.1027    4.5083  -18.3341 C   0  0  0  0  0  0  0  0  0  0  0  0
   -5.9024    5.1980  -18.4937 N   0  0  0  0  0  0  0  0  0  0  0  0
   -5.0172    5.2401  -19.5450 C   0  0  0  0  0  0  0  0  0  0  0  0
   -3.9440    5.9596  -19.0717 C   0  0  0  0  0  0  0  0  0  0  0  0
   -2.8086    6.1626  -19.7453 O   0  0  0  0  0  0  0  0  0  0  0  0
   -4.1645    6.4501  -17.8290 N   0  0  0  0  0  0  0  0  0  0  0  0
   -5.3333    5.9616  -17.4866 C   0  0  0  0  0  0  0  0  0  0  0  0
   -5.9992    6.0000  -16.2408 C   0  0  0  0  0  0  0  0  0  0  0  0
   -6.2076    4.1647  -11.7611 C   0  0  0  0  0  0  0  0  0  0  0  0
   -8.0365    5.6900  -11.0043 O   0  0  0  0  0  0  0  0  0  0  0  0
   -7.6507    4.8129   -9.9325 C   0  0  0  0  0  0  0  0  0  0  0  0
   -8.7520    4.4551   -8.9667 C   0  0  0  0  0  0  0  0  0  0  0  0
   -6.5498    5.5226   -9.1615 C   0  0  0  0  0  0  0  0  0  0  0  0
  2  1  1  1
  2  3  1  0
  3  4  1  0
  4  5  1  6
  5  6  2  0
  5  7  1  0
  7  8  1  0
  8  9  1  0
  9 10  2  0
 10 11  1  0
 11 12  1  0
 12 13  2  0
 13 14  1  0
 13 15  1  0
 15 16  2  0
 16 17  1  0
  4 18  1  0
  4 19  1  0
 19 20  1  0
 20 21  1  0
 20 22  1  0
 18  2  1  0
 20  2  1  0
 17  8  2  0
 16 11  1  0
M  END
>  <energy_score>  (5033) 
-30.545704

>  <alias>  (5033) 
GGOGPUPFVSMNRC-UHFFFAOYSA-N-P64-P64-P84-601532

>  <HIPPO Pose ID>  (5033) 
89481

>  <smiles>  (5033) 
CC12CC(C(=O)Nc3ccn4cc(O)nc4c3)(C1)OC2(C)C

>  <inchikey>  (5033) 
GGOGPUPFVSMNRC-UHFFFAOYSA-N

>  <distance_score>  (5033) 
1.354874

>  <ref_mols>  (5033) 
Z1046b,Z1495a

>  <ref_pdb>  (5033) 
Z0089a

>  <HIPPO Compound ID>  (5033) 
139207

>  <name>  (5033) 
GGOGPUPFVSMNRC-UHFFFAOYSA-N-P64-P64-P84-601532

>  <inspiration_score>  (5033) 
None

$$$$
QJMSVPDAUGCZEE-UHFFFAOYSA-N-P84-P64-P84-601532
     RDKit          3D

 22 25  0  0  0  0  0  0  0  0999 V2000
   -6.8787    2.3664   -9.5988 C   0  0  0  0  0  0  0  0  0  0  0  0
   -7.2696    3.4274  -10.5762 C   0  0  2  0  0  0  0  0  0  0  0  0
   -8.3327    3.0292  -11.6800 C   0  0  0  0  0  0  0  0  0  0  0  0
   -7.7923    4.3638  -12.2748 C   0  0  2  0  0  0  0  0  0  0  0  0
   -8.0149    4.7384  -13.8004 C   0  0  0  0  0  0  0  0  0  0  0  0
   -9.0039    5.2472  -14.1828 O   0  0  0  0  0  0  0  0  0  0  0  0
   -6.6865    4.4012  -14.5623 N   0  0  0  0  0  0  0  0  0  0  0  0
   -6.2989    4.6903  -15.8393 C   0  0  0  0  0  0  0  0  0  0  0  0
   -4.8315    4.7004  -15.9561 C   0  0  0  0  0  0  0  0  0  0  0  0
   -4.2446    5.0954  -17.0909 C   0  0  0  0  0  0  0  0  0  0  0  0
   -5.0439    5.5627  -18.1113 N   0  0  0  0  0  0  0  0  0  0  0  0
   -4.6493    6.1755  -19.2676 C   0  0  0  0  0  0  0  0  0  0  0  0
   -5.8058    6.6821  -19.7970 C   0  0  0  0  0  0  0  0  0  0  0  0
   -6.8800    6.3914  -18.9948 N   0  0  0  0  0  0  0  0  0  0  0  0
   -6.4309    5.5889  -18.0521 C   0  0  0  0  0  0  0  0  0  0  0  0
   -7.0627    4.9483  -16.9286 C   0  0  0  0  0  0  0  0  0  0  0  0
   -8.8309    4.3802  -17.1574 Br  0  0  0  0  0  0  0  0  0  0  0  0
   -6.3963    3.7282  -11.8179 C   0  0  0  0  0  0  0  0  0  0  0  0
   -8.1162    5.4133  -11.2945 O   0  0  0  0  0  0  0  0  0  0  0  0
   -7.6628    4.8281  -10.0605 C   0  0  0  0  0  0  0  0  0  0  0  0
   -8.7125    4.7268   -8.9791 C   0  0  0  0  0  0  0  0  0  0  0  0
   -6.5238    5.6938   -9.5490 C   0  0  0  0  0  0  0  0  0  0  0  0
  2  1  1  1
  2  3  1  0
  3  4  1  0
  4  5  1  6
  5  6  2  0
  5  7  1  0
  7  8  1  0
  8  9  1  0
  9 10  2  0
 10 11  1  0
 11 12  1  0
 12 13  2  0
 13 14  1  0
 14 15  2  0
 15 16  1  0
 16 17  1  0
  4 18  1  0
  4 19  1  0
 19 20  1  0
 20 21  1  0
 20 22  1  0
 18  2  1  0
 20  2  1  0
 16  8  2  0
 15 11  1  0
M  END
>  <energy_score>  (5034) 
-9.761074

>  <alias>  (5034) 
QJMSVPDAUGCZEE-UHFFFAOYSA-N-P84-P64-P84-601532

>  <HIPPO Pose ID>  (5034) 
89486

>  <smiles>  (5034) 
CC12CC(C(=O)Nc3ccn4ccnc4c3Br)(C1)OC2(C)C

>  <inchikey>  (5034) 
QJMSVPDAUGCZEE-UHFFFAOYSA-N

>  <distance_score>  (5034) 
1.391367

>  <ref_mols>  (5034) 
Z1046b,Z1495a

>  <ref_pdb>  (5034) 
Z0089a

>  <HIPPO Compound ID>  (5034) 
139209

>  <name>  (5034) 
QJMSVPDAUGCZEE-UHFFFAOYSA-N-P84-P64-P84-601532

>  <inspiration_score>  (5034) 
None

$$$$
KVGNAVJXYYFSQW-UHFFFAOYSA-N-P84-P64-P84-601532
     RDKit          3D

 23 26  0  0  0  0  0  0  0  0999 V2000
   -8.5877    2.1411   -7.9322 C   0  0  0  0  0  0  0  0  0  0  0  0
   -8.2929    3.1583   -8.9674 C   0  0  0  0  0  0  0  0  0  0  0  0
   -8.5125    4.5217   -8.9533 C   0  0  0  0  0  0  0  0  0  0  0  0
   -8.1376    4.9716  -10.1950 N   0  0  0  0  0  0  0  0  0  0  0  0
   -8.2277    6.2436  -10.7619 C   0  0  0  0  0  0  0  0  0  0  0  0
   -7.7607    6.4458  -12.0106 C   0  0  0  0  0  0  0  0  0  0  0  0
   -7.1079    5.3436  -12.7128 C   0  0  0  0  0  0  0  0  0  0  0  0
   -6.5921    5.5586  -13.9598 N   0  0  0  0  0  0  0  0  0  0  0  0
   -5.5736    4.7190  -14.7936 C   0  0  0  0  0  0  0  0  0  0  0  0
   -4.9656    3.7592  -14.5057 O   0  0  0  0  0  0  0  0  0  0  0  0
   -5.5316    5.3115  -16.2532 C   0  0  2  0  0  0  0  0  0  0  0  0
   -6.9186    4.9878  -16.8752 C   0  0  0  0  0  0  0  0  0  0  0  0
   -6.9475    5.3655  -18.3478 C   0  0  0  0  0  0  0  0  0  0  0  0
   -5.5557    5.8896  -18.7623 C   0  0  2  0  0  0  0  0  0  0  0  0
   -4.5875    4.7418  -18.5192 C   0  0  0  0  0  0  0  0  0  0  0  0
   -4.4140    4.5701  -17.0138 C   0  0  0  0  0  0  0  0  0  0  0  0
   -5.0894    7.0592  -17.8550 C   0  0  0  0  0  0  0  0  0  0  0  0
   -5.8868    8.3140  -18.1347 C   0  0  0  0  0  0  0  0  0  0  0  0
   -3.6312    7.4447  -18.1335 C   0  0  0  0  0  0  0  0  0  0  0  0
   -5.2859    6.7183  -16.4455 O   0  0  0  0  0  0  0  0  0  0  0  0
   -7.0564    4.1150  -12.1521 C   0  0  0  0  0  0  0  0  0  0  0  0
   -7.6093    3.8829  -10.8655 C   0  0  0  0  0  0  0  0  0  0  0  0
   -7.7119    2.7860  -10.1536 N   0  0  0  0  0  0  0  0  0  0  0  0
  1  2  1  0
  2  3  2  0
  3  4  1  0
  4  5  1  0
  5  6  2  0
  6  7  1  0
  7  8  1  0
  8  9  1  0
  9 10  2  0
 11  9  1  1
 11 12  1  0
 12 13  1  0
 14 13  1  1
 14 15  1  0
 15 16  1  0
 14 17  1  0
 17 18  1  0
 17 19  1  0
 17 20  1  0
  7 21  2  0
 21 22  1  0
 22 23  2  0
 23  2  1  0
 22  4  1  0
 16 11  1  0
 20 11  1  0
M  END
>  <energy_score>  (5035) 
-30.924542

>  <alias>  (5035) 
KVGNAVJXYYFSQW-UHFFFAOYSA-N-P84-P64-P84-601532

>  <HIPPO Pose ID>  (5035) 
89498

>  <smiles>  (5035) 
Cc1cn2ccc(NC(=O)C34CCC(CC3)C(C)(C)O4)cc2n1

>  <inchikey>  (5035) 
KVGNAVJXYYFSQW-UHFFFAOYSA-N

>  <distance_score>  (5035) 
1.509055

>  <ref_mols>  (5035) 
Z1046b,Z1495a

>  <ref_pdb>  (5035) 
Z0089a

>  <HIPPO Compound ID>  (5035) 
139215

>  <name>  (5035) 
KVGNAVJXYYFSQW-UHFFFAOYSA-N-P84-P64-P84-601532

>  <inspiration_score>  (5035) 
None

$$$$
HUVBPKQGNVYKQR-UHFFFAOYSA-N-P84-P64-P84-601532
     RDKit          3D

 23 26  0  0  0  0  0  0  0  0999 V2000
   -7.0789    2.1397  -10.0329 C   0  0  0  0  0  0  0  0  0  0  0  0
   -6.3857    3.4559  -10.3931 C   0  0  0  0  0  0  0  0  0  0  0  0
   -4.8677    3.2567  -10.2829 C   0  0  0  0  0  0  0  0  0  0  0  0
   -6.6668    3.7190  -11.7860 O   0  0  0  0  0  0  0  0  0  0  0  0
   -7.5152    4.8590  -11.9757 C   0  0  2  0  0  0  0  0  0  0  0  0
   -7.8991    5.0160  -13.4839 C   0  0  0  0  0  0  0  0  0  0  0  0
   -8.9177    5.4345  -13.8874 O   0  0  0  0  0  0  0  0  0  0  0  0
   -6.6005    4.5945  -14.2514 N   0  0  0  0  0  0  0  0  0  0  0  0
   -6.2841    4.6887  -15.5759 C   0  0  0  0  0  0  0  0  0  0  0  0
   -7.2683    5.0739  -16.5836 C   0  0  0  0  0  0  0  0  0  0  0  0
   -6.8439    5.4588  -17.8049 C   0  0  0  0  0  0  0  0  0  0  0  0
   -5.4759    5.4508  -18.0797 N   0  0  0  0  0  0  0  0  0  0  0  0
   -4.7374    6.0113  -19.0910 C   0  0  0  0  0  0  0  0  0  0  0  0
   -5.2921    7.1977  -20.4466 Br  0  0  0  0  0  0  0  0  0  0  0  0
   -3.4292    5.6685  -18.8578 C   0  0  0  0  0  0  0  0  0  0  0  0
   -3.3085    4.9663  -17.6934 N   0  0  0  0  0  0  0  0  0  0  0  0
   -4.5332    4.9179  -17.2052 C   0  0  0  0  0  0  0  0  0  0  0  0
   -4.9887    4.5301  -15.9189 C   0  0  0  0  0  0  0  0  0  0  0  0
   -6.7138    6.1015  -11.5408 C   0  0  0  0  0  0  0  0  0  0  0  0
   -6.3393    5.9728  -10.0597 C   0  0  0  0  0  0  0  0  0  0  0  0
   -6.8696    4.6364   -9.5026 C   0  0  1  0  0  0  0  0  0  0  0  0
   -8.3881    4.7194   -9.5942 C   0  0  0  0  0  0  0  0  0  0  0  0
   -8.7441    4.7405  -11.0784 C   0  0  0  0  0  0  0  0  0  0  0  0
  1  2  1  0
  2  3  1  0
  2  4  1  0
  4  5  1  0
  5  6  1  6
  6  7  2  0
  6  8  1  0
  8  9  1  0
  9 10  1  0
 10 11  2  0
 11 12  1  0
 12 13  1  0
 13 14  1  0
 13 15  2  0
 15 16  1  0
 16 17  2  0
 17 18  1  0
  5 19  1  0
 19 20  1  0
 21 20  1  6
 21 22  1  0
 22 23  1  0
 21  2  1  0
 23  5  1  0
 18  9  2  0
 17 12  1  0
M  END
>  <energy_score>  (5036) 
-28.275956

>  <alias>  (5036) 
HUVBPKQGNVYKQR-UHFFFAOYSA-N-P84-P64-P84-601532

>  <HIPPO Pose ID>  (5036) 
89502

>  <smiles>  (5036) 
CC1(C)OC2(C(=O)Nc3ccn4c(Br)cnc4c3)CCC1CC2

>  <inchikey>  (5036) 
HUVBPKQGNVYKQR-UHFFFAOYSA-N

>  <distance_score>  (5036) 
1.505792

>  <ref_mols>  (5036) 
Z1046b,Z1495a

>  <ref_pdb>  (5036) 
Z0089a

>  <HIPPO Compound ID>  (5036) 
139217

>  <name>  (5036) 
HUVBPKQGNVYKQR-UHFFFAOYSA-N-P84-P64-P84-601532

>  <inspiration_score>  (5036) 
None

$$$$
WPNZALSTKGMWBK-UHFFFAOYSA-N-P64-P64-P84-601532
     RDKit          3D

 23 26  0  0  0  0  0  0  0  0999 V2000
   -5.5332    5.7841  -13.0195 O   0  0  0  0  0  0  0  0  0  0  0  0
   -6.2431    4.8868  -13.2778 C   0  0  0  0  0  0  0  0  0  0  0  0
   -6.7802    4.3839  -14.6617 N   0  0  0  0  0  0  0  0  0  0  0  0
   -6.4930    4.7987  -15.9204 C   0  0  0  0  0  0  0  0  0  0  0  0
   -7.3527    4.3858  -17.0236 C   0  0  0  0  0  0  0  0  0  0  0  0
   -6.9425    4.6044  -18.2876 C   0  0  0  0  0  0  0  0  0  0  0  0
   -5.7085    5.2135  -18.4982 N   0  0  0  0  0  0  0  0  0  0  0  0
   -5.0097    5.4485  -19.6562 C   0  0  0  0  0  0  0  0  0  0  0  0
   -3.8238    6.0077  -19.2416 C   0  0  0  0  0  0  0  0  0  0  0  0
   -2.8275    6.3463  -20.0632 O   0  0  0  0  0  0  0  0  0  0  0  0
   -3.7750    6.1845  -17.9029 N   0  0  0  0  0  0  0  0  0  0  0  0
   -4.9078    5.6865  -17.4674 C   0  0  0  0  0  0  0  0  0  0  0  0
   -5.3619    5.4924  -16.1449 C   0  0  0  0  0  0  0  0  0  0  0  0
   -6.7344    3.8909  -12.2045 C   0  0  2  0  0  0  0  0  0  0  0  0
   -8.2231    3.5990  -12.2137 C   0  0  0  0  0  0  0  0  0  0  0  0
   -8.6987    4.1515  -10.9011 C   0  0  0  0  0  0  0  0  0  0  0  0
   -7.4873    4.0797  -10.0020 C   0  0  0  0  0  0  0  0  0  0  0  0
   -7.5335    5.1114   -8.8763 C   0  0  0  0  0  0  0  0  0  0  0  0
   -8.1018    4.5233   -7.5906 C   0  0  0  0  0  0  0  0  0  0  0  0
   -9.0447    3.5006   -7.8745 O   0  0  0  0  0  0  0  0  0  0  0  0
   -8.4308    2.3326   -8.4351 C   0  0  0  0  0  0  0  0  0  0  0  0
   -7.2931    2.6800   -9.3995 C   0  0  0  0  0  0  0  0  0  0  0  0
   -6.4101    4.3903  -10.8930 O   0  0  0  0  0  0  0  0  0  0  0  0
  1  2  2  0
  2  3  1  0
  3  4  1  0
  4  5  1  0
  5  6  2  0
  6  7  1  0
  7  8  1  0
  8  9  2  0
  9 10  1  0
  9 11  1  0
 11 12  2  0
 12 13  1  0
 14  2  1  6
 14 15  1  0
 15 16  1  0
 16 17  1  0
 17 18  1  0
 18 19  1  0
 19 20  1  0
 20 21  1  0
 21 22  1  0
 17 23  1  0
 13  4  2  0
 23 14  1  0
 12  7  1  0
 22 17  1  0
M  END
>  <energy_score>  (5037) 
-16.541849

>  <alias>  (5037) 
WPNZALSTKGMWBK-UHFFFAOYSA-N-P64-P64-P84-601532

>  <HIPPO Pose ID>  (5037) 
89507

>  <smiles>  (5037) 
O=C(Nc1ccn2cc(O)nc2c1)C1CCC2(CCOCC2)O1

>  <inchikey>  (5037) 
WPNZALSTKGMWBK-UHFFFAOYSA-N

>  <distance_score>  (5037) 
1.634845

>  <ref_mols>  (5037) 
Z1046b,Z1495a

>  <ref_pdb>  (5037) 
Z0089a

>  <HIPPO Compound ID>  (5037) 
139220

>  <name>  (5037) 
WPNZALSTKGMWBK-UHFFFAOYSA-N-P64-P64-P84-601532

>  <inspiration_score>  (5037) 
None

$$$$
OAMOYNVEQGZZND-UHFFFAOYSA-N-P64-P64-P84-601532
     RDKit          3D

 23 26  0  0  0  0  0  0  0  0999 V2000
   -6.8222    6.4073   -8.3895 C   0  0  0  0  0  0  0  0  0  0  0  0
   -8.0380    5.9061   -7.8300 O   0  0  0  0  0  0  0  0  0  0  0  0
   -8.4694    4.6318   -8.1270 C   0  0  0  0  0  0  0  0  0  0  0  0
   -9.2115    4.0834   -7.3081 O   0  0  0  0  0  0  0  0  0  0  0  0
   -8.0056    3.9802   -9.4728 C   0  0  2  0  0  0  0  0  0  0  0  0
   -8.9097    2.9126  -10.1995 C   0  0  0  0  0  0  0  0  0  0  0  0
   -7.5245    2.5998  -10.8453 C   0  0  2  0  0  0  0  0  0  0  0  0
   -7.0291    2.7367   -9.3656 C   0  0  0  0  0  0  0  0  0  0  0  0
   -7.0661    3.9076  -11.5252 C   0  0  1  0  0  0  0  0  0  0  0  0
   -7.6178    4.1801  -12.9643 C   0  0  0  0  0  0  0  0  0  0  0  0
   -8.7409    4.4050  -13.2163 O   0  0  0  0  0  0  0  0  0  0  0  0
   -6.3535    4.1466  -13.8963 N   0  0  0  0  0  0  0  0  0  0  0  0
   -6.2191    4.4579  -15.2204 C   0  0  0  0  0  0  0  0  0  0  0  0
   -7.3531    4.5634  -16.1417 C   0  0  0  0  0  0  0  0  0  0  0  0
   -7.1247    4.8513  -17.4433 C   0  0  0  0  0  0  0  0  0  0  0  0
   -5.8190    5.1028  -17.8661 N   0  0  0  0  0  0  0  0  0  0  0  0
   -5.3168    5.4922  -19.0823 C   0  0  0  0  0  0  0  0  0  0  0  0
   -3.9764    5.6828  -18.8597 C   0  0  0  0  0  0  0  0  0  0  0  0
   -3.1189    6.1203  -19.7785 O   0  0  0  0  0  0  0  0  0  0  0  0
   -3.6050    5.3972  -17.5933 N   0  0  0  0  0  0  0  0  0  0  0  0
   -4.7266    5.0406  -17.0106 C   0  0  0  0  0  0  0  0  0  0  0  0
   -4.9644    4.6590  -15.6713 C   0  0  0  0  0  0  0  0  0  0  0  0
   -7.5005    4.8524  -10.5434 O   0  0  0  0  0  0  0  0  0  0  0  0
  1  2  1  0
  2  3  1  0
  3  4  2  0
  5  3  1  1
  5  6  1  0
  7  6  1  1
  7  8  1  0
  7  9  1  0
  9 10  1  6
 10 11  2  0
 10 12  1  0
 12 13  1  0
 13 14  1  0
 14 15  2  0
 15 16  1  0
 16 17  1  0
 17 18  2  0
 18 19  1  0
 18 20  1  0
 20 21  2  0
 21 22  1  0
  9 23  1  0
  8  5  1  0
 22 13  2  0
 23  5  1  0
 21 16  1  0
M  END
>  <energy_score>  (5038) 
-51.013187

>  <alias>  (5038) 
OAMOYNVEQGZZND-UHFFFAOYSA-N-P64-P64-P84-601532

>  <HIPPO Pose ID>  (5038) 
89513

>  <smiles>  (5038) 
COC(=O)C12CC(C1)C(C(=O)Nc1ccn3cc(O)nc3c1)O2

>  <inchikey>  (5038) 
OAMOYNVEQGZZND-UHFFFAOYSA-N

>  <distance_score>  (5038) 
1.872792

>  <ref_mols>  (5038) 
Z1046b,Z1495a

>  <ref_pdb>  (5038) 
Z0089a

>  <HIPPO Compound ID>  (5038) 
139223

>  <name>  (5038) 
OAMOYNVEQGZZND-UHFFFAOYSA-N-P64-P64-P84-601532

>  <inspiration_score>  (5038) 
None

$$$$
LIOHVDFZLFOHLG-UHFFFAOYSA-N-P64-P64-P84-601532
     RDKit          3D

 23 25  0  0  0  0  0  0  0  0999 V2000
   -8.7541    3.7160   -8.4601 C   0  0  0  0  0  0  0  0  0  0  0  0
   -7.9138    4.4757   -9.4905 C   0  0  0  0  0  0  0  0  0  0  0  0
   -6.7074    5.0723   -8.7303 C   0  0  0  0  0  0  0  0  0  0  0  0
   -8.7350    5.5549   -9.9740 O   0  0  0  0  0  0  0  0  0  0  0  0
   -8.1293    6.3511  -10.9871 C   0  0  0  0  0  0  0  0  0  0  0  0
   -7.2594    5.6053  -12.0005 C   0  0  2  0  0  0  0  0  0  0  0  0
   -7.8007    5.5328  -13.4545 C   0  0  0  0  0  0  0  0  0  0  0  0
   -8.8437    5.8936  -13.8472 O   0  0  0  0  0  0  0  0  0  0  0  0
   -6.5650    4.9626  -14.2323 N   0  0  0  0  0  0  0  0  0  0  0  0
   -6.3504    4.8236  -15.5682 C   0  0  0  0  0  0  0  0  0  0  0  0
   -7.4122    4.8354  -16.5688 C   0  0  0  0  0  0  0  0  0  0  0  0
   -7.0811    4.9365  -17.8756 C   0  0  0  0  0  0  0  0  0  0  0  0
   -5.7360    5.0660  -18.2257 N   0  0  0  0  0  0  0  0  0  0  0  0
   -5.1308    5.3456  -19.4265 C   0  0  0  0  0  0  0  0  0  0  0  0
   -3.8103    5.5402  -19.1087 C   0  0  0  0  0  0  0  0  0  0  0  0
   -2.8801    5.9709  -19.9571 O   0  0  0  0  0  0  0  0  0  0  0  0
   -3.5354    5.3068  -17.8100 N   0  0  0  0  0  0  0  0  0  0  0  0
   -4.7073    5.0182  -17.2932 C   0  0  0  0  0  0  0  0  0  0  0  0
   -5.0561    4.8155  -15.9428 C   0  0  0  0  0  0  0  0  0  0  0  0
   -6.6561    4.3838  -11.5694 O   0  0  0  0  0  0  0  0  0  0  0  0
   -7.4980    3.5878  -10.7036 C   0  0  0  0  0  0  0  0  0  0  0  0
   -6.6649    2.3796  -10.2737 C   0  0  0  0  0  0  0  0  0  0  0  0
   -8.6669    3.0482  -11.5315 C   0  0  0  0  0  0  0  0  0  0  0  0
  1  2  1  0
  2  3  1  0
  2  4  1  0
  4  5  1  0
  5  6  1  0
  6  7  1  6
  7  8  2  0
  7  9  1  0
  9 10  1  0
 10 11  1  0
 11 12  2  0
 12 13  1  0
 13 14  1  0
 14 15  2  0
 15 16  1  0
 15 17  1  0
 17 18  2  0
 18 19  1  0
  6 20  1  0
 20 21  1  0
 21 22  1  0
 21 23  1  0
 21  2  1  0
 19 10  2  0
 18 13  1  0
M  END
>  <energy_score>  (5039) 
-52.821818

>  <alias>  (5039) 
LIOHVDFZLFOHLG-UHFFFAOYSA-N-P64-P64-P84-601532

>  <HIPPO Pose ID>  (5039) 
89515

>  <smiles>  (5039) 
CC1(C)OCC(C(=O)Nc2ccn3cc(O)nc3c2)OC1(C)C

>  <inchikey>  (5039) 
LIOHVDFZLFOHLG-UHFFFAOYSA-N

>  <distance_score>  (5039) 
1.326829

>  <ref_mols>  (5039) 
Z1046b,Z1495a

>  <ref_pdb>  (5039) 
Z0089a

>  <HIPPO Compound ID>  (5039) 
139224

>  <name>  (5039) 
LIOHVDFZLFOHLG-UHFFFAOYSA-N-P64-P64-P84-601532

>  <inspiration_score>  (5039) 
None

$$$$
QMGIPXCCMZYXET-UHFFFAOYSA-N-P64-P64-P84-601532
     RDKit          3D

 23 26  0  0  0  0  0  0  0  0999 V2000
   -5.6843    6.1772  -13.0283 O   0  0  0  0  0  0  0  0  0  0  0  0
   -6.3724    5.2547  -13.2581 C   0  0  0  0  0  0  0  0  0  0  0  0
   -6.8452    4.6562  -14.6310 N   0  0  0  0  0  0  0  0  0  0  0  0
   -6.5094    4.9946  -15.9008 C   0  0  0  0  0  0  0  0  0  0  0  0
   -7.2990    4.4584  -17.0054 C   0  0  0  0  0  0  0  0  0  0  0  0
   -6.8584    4.6253  -18.2671 C   0  0  0  0  0  0  0  0  0  0  0  0
   -5.6482    5.2805  -18.4746 N   0  0  0  0  0  0  0  0  0  0  0  0
   -4.9227    5.4842  -19.6191 C   0  0  0  0  0  0  0  0  0  0  0  0
   -3.7724    6.0943  -19.1896 C   0  0  0  0  0  0  0  0  0  0  0  0
   -2.7552    6.4175  -19.9812 O   0  0  0  0  0  0  0  0  0  0  0  0
   -3.7659    6.3476  -17.8644 N   0  0  0  0  0  0  0  0  0  0  0  0
   -4.9032    5.8445  -17.4443 C   0  0  0  0  0  0  0  0  0  0  0  0
   -5.4039    5.7250  -16.1293 C   0  0  0  0  0  0  0  0  0  0  0  0
   -6.9017    4.3159  -12.1448 C   0  0  2  0  0  0  0  0  0  0  0  0
   -8.3980    4.0577  -12.2131 C   0  0  0  0  0  0  0  0  0  0  0  0
   -8.6825    2.8599  -11.3243 C   0  0  0  0  0  0  0  0  0  0  0  0
   -7.8319    2.8402  -10.0694 C   0  0  0  0  0  0  0  0  0  0  0  0
   -7.2578    4.2249   -9.7421 C   0  0  1  0  0  0  0  0  0  0  0  0
   -8.2817    5.2015   -9.2017 C   0  0  0  0  0  0  0  0  0  0  0  0
   -8.4645    4.7476   -7.7747 C   0  0  0  0  0  0  0  0  0  0  0  0
   -7.2116    4.2108   -7.3533 O   0  0  0  0  0  0  0  0  0  0  0  0
   -6.3648    4.1005   -8.5080 C   0  0  0  0  0  0  0  0  0  0  0  0
   -6.5606    4.8186  -10.8444 O   0  0  0  0  0  0  0  0  0  0  0  0
  1  2  2  0
  2  3  1  0
  3  4  1  0
  4  5  1  0
  5  6  2  0
  6  7  1  0
  7  8  1  0
  8  9  2  0
  9 10  1  0
  9 11  1  0
 11 12  2  0
 12 13  1  0
 14  2  1  6
 14 15  1  0
 15 16  1  0
 16 17  1  0
 18 17  1  6
 18 19  1  0
 19 20  1  0
 20 21  1  0
 21 22  1  0
 18 23  1  0
 13  4  2  0
 23 14  1  0
 12  7  1  0
 22 18  1  0
M  END
>  <energy_score>  (5040) 
-50.431609

>  <alias>  (5040) 
QMGIPXCCMZYXET-UHFFFAOYSA-N-P64-P64-P84-601532

>  <HIPPO Pose ID>  (5040) 
89519

>  <smiles>  (5040) 
O=C(Nc1ccn2cc(O)nc2c1)C1CCCC2(CCOC2)O1

>  <inchikey>  (5040) 
QMGIPXCCMZYXET-UHFFFAOYSA-N

>  <distance_score>  (5040) 
1.663169

>  <ref_mols>  (5040) 
Z1046b,Z1495a

>  <ref_pdb>  (5040) 
Z0089a

>  <HIPPO Compound ID>  (5040) 
139226

>  <name>  (5040) 
QMGIPXCCMZYXET-UHFFFAOYSA-N-P64-P64-P84-601532

>  <inspiration_score>  (5040) 
None

$$$$
YIKDAFPOVURDNN-UHFFFAOYSA-N-P64-P64-P84-601532
     RDKit          3D

 23 26  0  0  0  0  0  0  0  0999 V2000
   -9.4030    5.1089  -14.2157 O   0  0  0  0  0  0  0  0  0  0  0  0
   -8.3533    4.8604  -13.7570 C   0  0  0  0  0  0  0  0  0  0  0  0
   -6.9259    4.9339  -14.3937 N   0  0  0  0  0  0  0  0  0  0  0  0
   -6.5371    5.2198  -15.6780 C   0  0  0  0  0  0  0  0  0  0  0  0
   -5.1799    5.7777  -15.7136 C   0  0  0  0  0  0  0  0  0  0  0  0
   -4.5466    5.9544  -16.8786 C   0  0  0  0  0  0  0  0  0  0  0  0
   -5.1687    5.5471  -18.0395 N   0  0  0  0  0  0  0  0  0  0  0  0
   -4.6767    5.5868  -19.3154 C   0  0  0  0  0  0  0  0  0  0  0  0
   -5.5978    4.9044  -20.0633 C   0  0  0  0  0  0  0  0  0  0  0  0
   -6.6578    4.5090  -19.2903 N   0  0  0  0  0  0  0  0  0  0  0  0
   -6.4295    4.9695  -18.0766 C   0  0  0  0  0  0  0  0  0  0  0  0
   -7.1689    4.8812  -16.8381 C   0  0  0  0  0  0  0  0  0  0  0  0
   -8.8630    4.1040  -17.0203 Br  0  0  0  0  0  0  0  0  0  0  0  0
   -8.1635    4.2610  -12.3419 C   0  0  1  0  0  0  0  0  0  0  0  0
   -7.4930    2.8885  -12.4775 C   0  0  0  0  0  0  0  0  0  0  0  0
   -7.3569    2.2340  -11.1248 C   0  0  0  0  0  0  0  0  0  0  0  0
   -6.6568    3.1592  -10.1530 C   0  0  0  0  0  0  0  0  0  0  0  0
   -7.3671    4.5185  -10.1148 C   0  0  2  0  0  0  0  0  0  0  0  0
   -6.6575    5.4785   -9.1846 C   0  0  0  0  0  0  0  0  0  0  0  0
   -7.1424    5.0485   -7.8123 C   0  0  0  0  0  0  0  0  0  0  0  0
   -8.4372    4.4663   -7.9775 O   0  0  0  0  0  0  0  0  0  0  0  0
   -8.7056    4.4186   -9.3812 C   0  0  0  0  0  0  0  0  0  0  0  0
   -7.4313    5.0885  -11.4392 O   0  0  0  0  0  0  0  0  0  0  0  0
  1  2  2  0
  2  3  1  0
  3  4  1  0
  4  5  1  0
  5  6  2  0
  6  7  1  0
  7  8  1  0
  8  9  2  0
  9 10  1  0
 10 11  2  0
 11 12  1  0
 12 13  1  0
 14  2  1  6
 14 15  1  0
 15 16  1  0
 16 17  1  0
 18 17  1  6
 18 19  1  0
 19 20  1  0
 20 21  1  0
 21 22  1  0
 18 23  1  0
 12  4  2  0
 23 14  1  0
 11  7  1  0
 22 18  1  0
M  END
>  <energy_score>  (5041) 
-41.677328

>  <alias>  (5041) 
YIKDAFPOVURDNN-UHFFFAOYSA-N-P64-P64-P84-601532

>  <HIPPO Pose ID>  (5041) 
89523

>  <smiles>  (5041) 
O=C(Nc1ccn2ccnc2c1Br)C1CCCC2(CCOC2)O1

>  <inchikey>  (5041) 
YIKDAFPOVURDNN-UHFFFAOYSA-N

>  <distance_score>  (5041) 
1.557884

>  <ref_mols>  (5041) 
Z1046b,Z1495a

>  <ref_pdb>  (5041) 
Z0089a

>  <HIPPO Compound ID>  (5041) 
139228

>  <name>  (5041) 
YIKDAFPOVURDNN-UHFFFAOYSA-N-P64-P64-P84-601532

>  <inspiration_score>  (5041) 
None

$$$$
NZYSKMPUCHYIGK-UHFFFAOYSA-N-P84-P64-P84-601532
     RDKit          3D

 23 26  0  0  0  0  0  0  0  0999 V2000
   -9.1233    5.0634  -13.5088 O   0  0  0  0  0  0  0  0  0  0  0  0
   -7.9983    4.8975  -13.2187 C   0  0  0  0  0  0  0  0  0  0  0  0
   -6.6889    5.0414  -14.0857 N   0  0  0  0  0  0  0  0  0  0  0  0
   -6.5337    5.3046  -15.4049 C   0  0  0  0  0  0  0  0  0  0  0  0
   -7.6133    4.9132  -16.2896 C   0  0  0  0  0  0  0  0  0  0  0  0
   -7.4419    4.9685  -17.6208 C   0  0  0  0  0  0  0  0  0  0  0  0
   -8.7983    4.3369  -18.7165 Br  0  0  0  0  0  0  0  0  0  0  0  0
   -6.2434    5.5026  -18.1131 N   0  0  0  0  0  0  0  0  0  0  0  0
   -5.8227    5.7965  -19.3787 C   0  0  0  0  0  0  0  0  0  0  0  0
   -4.5873    6.3724  -19.2852 C   0  0  0  0  0  0  0  0  0  0  0  0
   -4.1940    6.4313  -17.9817 N   0  0  0  0  0  0  0  0  0  0  0  0
   -5.1929    5.9112  -17.2930 C   0  0  0  0  0  0  0  0  0  0  0  0
   -5.3546    5.7326  -15.8938 C   0  0  0  0  0  0  0  0  0  0  0  0
   -7.4871    4.3626  -11.8548 C   0  0  2  0  0  0  0  0  0  0  0  0
   -7.0600    2.9194  -12.1504 C   0  0  0  0  0  0  0  0  0  0  0  0
   -6.2971    2.3780  -10.9699 C   0  0  0  0  0  0  0  0  0  0  0  0
   -7.1833    2.4470   -9.7589 C   0  0  0  0  0  0  0  0  0  0  0  0
   -7.8203    3.8126   -9.5363 C   0  0  2  0  0  0  0  0  0  0  0  0
   -6.9462    4.8417   -8.8548 C   0  0  0  0  0  0  0  0  0  0  0  0
   -7.9868    5.6971   -8.1677 C   0  0  0  0  0  0  0  0  0  0  0  0
   -9.0166    4.8155   -7.7194 O   0  0  0  0  0  0  0  0  0  0  0  0
   -8.8929    3.5926   -8.4589 C   0  0  0  0  0  0  0  0  0  0  0  0
   -8.3770    4.3825  -10.7460 O   0  0  0  0  0  0  0  0  0  0  0  0
  1  2  2  0
  2  3  1  0
  3  4  1  0
  4  5  1  0
  5  6  2  0
  6  7  1  0
  6  8  1  0
  8  9  1  0
  9 10  2  0
 10 11  1  0
 11 12  2  0
 12 13  1  0
 14  2  1  6
 14 15  1  0
 15 16  1  0
 16 17  1  0
 18 17  1  6
 18 19  1  0
 19 20  1  0
 20 21  1  0
 21 22  1  0
 18 23  1  0
 13  4  2  0
 23 14  1  0
 12  8  1  0
 22 18  1  0
M  END
>  <energy_score>  (5042) 
-14.673549

>  <alias>  (5042) 
NZYSKMPUCHYIGK-UHFFFAOYSA-N-P84-P64-P84-601532

>  <HIPPO Pose ID>  (5042) 
89528

>  <smiles>  (5042) 
O=C(Nc1cc(Br)n2ccnc2c1)C1CCCC2(CCOC2)O1

>  <inchikey>  (5042) 
NZYSKMPUCHYIGK-UHFFFAOYSA-N

>  <distance_score>  (5042) 
1.690662

>  <ref_mols>  (5042) 
Z1046b,Z1495a

>  <ref_pdb>  (5042) 
Z0089a

>  <HIPPO Compound ID>  (5042) 
139230

>  <name>  (5042) 
NZYSKMPUCHYIGK-UHFFFAOYSA-N-P84-P64-P84-601532

>  <inspiration_score>  (5042) 
None

$$$$
IDDIYYMNXDMDDC-UHFFFAOYSA-N-P84-P64-P84-601532
     RDKit          3D

 23 24  0  0  0  0  0  0  0  0999 V2000
   -7.9170    4.5790  -17.8362 C   0  0  0  0  0  0  0  0  0  0  0  0
   -6.8344    5.2240  -18.6651 C   0  0  0  0  0  0  0  0  0  0  0  0
   -5.3997    4.8050  -18.4173 C   0  0  0  0  0  0  0  0  0  0  0  0
   -4.7139    4.9181  -17.0607 C   0  0  0  0  0  0  0  0  0  0  0  0
   -5.3050    5.7994  -15.9629 C   0  0  1  0  0  0  0  0  0  0  0  0
   -5.7672    7.0514  -16.4453 O   0  0  0  0  0  0  0  0  0  0  0  0
   -4.7580    8.0128  -16.8915 C   0  0  0  0  0  0  0  0  0  0  0  0
   -4.3873    7.8317  -18.3795 C   0  0  0  0  0  0  0  0  0  0  0  0
   -3.4825    8.0473  -16.0267 C   0  0  0  0  0  0  0  0  0  0  0  0
   -5.3921    9.4104  -16.7725 C   0  0  0  0  0  0  0  0  0  0  0  0
   -6.2342    4.9279  -15.0469 C   0  0  0  0  0  0  0  0  0  0  0  0
   -6.4091    3.7905  -15.2501 O   0  0  0  0  0  0  0  0  0  0  0  0
   -6.7165    5.8281  -13.8710 N   0  0  0  0  0  0  0  0  0  0  0  0
   -7.3923    5.5060  -12.7250 C   0  0  0  0  0  0  0  0  0  0  0  0
   -7.6123    6.5515  -11.7275 C   0  0  0  0  0  0  0  0  0  0  0  0
   -8.0033    6.2055  -10.4847 C   0  0  0  0  0  0  0  0  0  0  0  0
   -8.2258    4.8606  -10.1882 N   0  0  0  0  0  0  0  0  0  0  0  0
   -8.5197    4.2508   -8.9939 C   0  0  0  0  0  0  0  0  0  0  0  0
   -8.5869    2.9149   -9.2979 C   0  0  0  0  0  0  0  0  0  0  0  0
   -8.8012    1.9437   -8.4084 O   0  0  0  0  0  0  0  0  0  0  0  0
   -8.3714    2.6757  -10.6137 N   0  0  0  0  0  0  0  0  0  0  0  0
   -8.1328    3.8543  -11.1387 C   0  0  0  0  0  0  0  0  0  0  0  0
   -7.7160    4.2228  -12.4470 C   0  0  0  0  0  0  0  0  0  0  0  0
  1  2  1  0
  2  3  1  0
  3  4  1  0
  5  4  1  6
  5  6  1  0
  6  7  1  0
  7  8  1  0
  7  9  1  0
  7 10  1  0
  5 11  1  0
 11 12  2  0
 11 13  1  0
 13 14  1  0
 14 15  1  0
 15 16  2  0
 16 17  1  0
 17 18  1  0
 18 19  2  0
 19 20  1  0
 19 21  1  0
 21 22  2  0
 22 23  1  0
 23 14  2  0
 22 17  1  0
M  END
>  <energy_score>  (5043) 
-23.719021

>  <alias>  (5043) 
IDDIYYMNXDMDDC-UHFFFAOYSA-N-P84-P64-P84-601532

>  <HIPPO Pose ID>  (5043) 
89536

>  <smiles>  (5043) 
CCCCC(OC(C)(C)C)C(=O)Nc1ccn2cc(O)nc2c1

>  <inchikey>  (5043) 
IDDIYYMNXDMDDC-UHFFFAOYSA-N

>  <distance_score>  (5043) 
1.35477

>  <ref_mols>  (5043) 
Z1046b,Z1495a

>  <ref_pdb>  (5043) 
Z0089a

>  <HIPPO Compound ID>  (5043) 
139234

>  <name>  (5043) 
IDDIYYMNXDMDDC-UHFFFAOYSA-N-P84-P64-P84-601532

>  <inspiration_score>  (5043) 
None

$$$$
KLIQMTUFDMEVKT-UHFFFAOYSA-N-P84-P64-P84-601532
     RDKit          3D

 23 26  0  0  0  0  0  0  0  0999 V2000
   -8.8526    2.8016   -8.8984 C   0  0  0  0  0  0  0  0  0  0  0  0
   -8.2054    4.1449   -9.2614 C   0  0  0  0  0  0  0  0  0  0  0  0
   -8.6625    5.2270   -8.2675 C   0  0  0  0  0  0  0  0  0  0  0  0
   -8.6307    4.4863  -10.6070 O   0  0  0  0  0  0  0  0  0  0  0  0
   -7.5547    4.4801  -11.5661 C   0  0  1  0  0  0  0  0  0  0  0  0
   -7.9966    4.7113  -13.0605 C   0  0  0  0  0  0  0  0  0  0  0  0
   -9.1062    4.8994  -13.3945 O   0  0  0  0  0  0  0  0  0  0  0  0
   -6.6696    4.6711  -13.9087 N   0  0  0  0  0  0  0  0  0  0  0  0
   -6.4791    4.7540  -15.2498 C   0  0  0  0  0  0  0  0  0  0  0  0
   -7.5985    4.5808  -16.1541 C   0  0  0  0  0  0  0  0  0  0  0  0
   -7.4109    4.7029  -17.4815 C   0  0  0  0  0  0  0  0  0  0  0  0
   -8.8373    4.3902  -18.6282 Br  0  0  0  0  0  0  0  0  0  0  0  0
   -6.1299    5.0391  -17.9467 N   0  0  0  0  0  0  0  0  0  0  0  0
   -5.6619    5.3806  -19.1882 C   0  0  0  0  0  0  0  0  0  0  0  0
   -4.3161    5.6152  -19.0587 C   0  0  0  0  0  0  0  0  0  0  0  0
   -3.9178    5.4497  -17.7648 N   0  0  0  0  0  0  0  0  0  0  0  0
   -5.0211    5.1475  -17.1102 C   0  0  0  0  0  0  0  0  0  0  0  0
   -5.2356    4.9689  -15.7217 C   0  0  0  0  0  0  0  0  0  0  0  0
   -6.6628    5.6682  -11.1401 C   0  0  0  0  0  0  0  0  0  0  0  0
   -6.1018    5.4173   -9.7454 C   0  0  0  0  0  0  0  0  0  0  0  0
   -6.6663    4.0954   -9.1955 C   0  0  2  0  0  0  0  0  0  0  0  0
   -6.1770    2.9659  -10.0871 C   0  0  0  0  0  0  0  0  0  0  0  0
   -6.8530    3.1022  -11.4441 C   0  0  0  0  0  0  0  0  0  0  0  0
  1  2  1  0
  2  3  1  0
  2  4  1  0
  4  5  1  0
  5  6  1  6
  6  7  2  0
  6  8  1  0
  8  9  1  0
  9 10  1  0
 10 11  2  0
 11 12  1  0
 11 13  1  0
 13 14  1  0
 14 15  2  0
 15 16  1  0
 16 17  2  0
 17 18  1  0
  5 19  1  0
 19 20  1  0
 21 20  1  6
 21 22  1  0
 22 23  1  0
 21  2  1  0
 23  5  1  0
 18  9  2  0
 17 13  1  0
M  END
>  <energy_score>  (5044) 
-39.217603

>  <alias>  (5044) 
KLIQMTUFDMEVKT-UHFFFAOYSA-N-P84-P64-P84-601532

>  <HIPPO Pose ID>  (5044) 
89548

>  <smiles>  (5044) 
CC1(C)OC2(C(=O)Nc3cc(Br)n4ccnc4c3)CCC1CC2

>  <inchikey>  (5044) 
KLIQMTUFDMEVKT-UHFFFAOYSA-N

>  <distance_score>  (5044) 
1.696522

>  <ref_mols>  (5044) 
Z1046b,Z1495a

>  <ref_pdb>  (5044) 
Z0089a

>  <HIPPO Compound ID>  (5044) 
139240

>  <name>  (5044) 
KLIQMTUFDMEVKT-UHFFFAOYSA-N-P84-P64-P84-601532

>  <inspiration_score>  (5044) 
None

$$$$
NMMJHQNOTVKXNC-UHFFFAOYSA-N-P84-P64-P84-601532
     RDKit          3D

 23 26  0  0  0  0  0  0  0  0999 V2000
   -8.3432    6.5449  -14.3593 O   0  0  0  0  0  0  0  0  0  0  0  0
   -7.6165    5.7507  -13.9021 C   0  0  0  0  0  0  0  0  0  0  0  0
   -6.4370    4.9787  -14.5476 N   0  0  0  0  0  0  0  0  0  0  0  0
   -5.9965    4.9552  -15.8311 C   0  0  0  0  0  0  0  0  0  0  0  0
   -6.9530    5.3087  -16.8791 C   0  0  0  0  0  0  0  0  0  0  0  0
   -6.5032    5.6095  -18.1066 C   0  0  0  0  0  0  0  0  0  0  0  0
   -5.1361    5.5425  -18.3417 N   0  0  0  0  0  0  0  0  0  0  0  0
   -4.3748    6.0545  -19.3577 C   0  0  0  0  0  0  0  0  0  0  0  0
   -4.9308    7.2007  -20.7508 Br  0  0  0  0  0  0  0  0  0  0  0  0
   -3.0789    5.6958  -19.0875 C   0  0  0  0  0  0  0  0  0  0  0  0
   -2.9947    5.0144  -17.9035 N   0  0  0  0  0  0  0  0  0  0  0  0
   -4.2258    5.0112  -17.4280 C   0  0  0  0  0  0  0  0  0  0  0  0
   -4.7123    4.6896  -16.1288 C   0  0  0  0  0  0  0  0  0  0  0  0
   -7.8047    5.2236  -12.4740 C   0  0  1  0  0  0  0  0  0  0  0  0
   -8.5679    3.9391  -12.6518 C   0  0  0  0  0  0  0  0  0  0  0  0
   -8.6197    3.3740  -11.2690 C   0  0  0  0  0  0  0  0  0  0  0  0
   -7.5279    4.1261  -10.5034 C   0  0  0  0  0  0  0  0  0  0  0  0
   -8.0636    5.1889   -9.5162 C   0  0  0  0  0  0  0  0  0  0  0  0
   -8.2382    4.6464   -8.1047 C   0  0  0  0  0  0  0  0  0  0  0  0
   -8.7041    3.3123   -8.1508 O   0  0  0  0  0  0  0  0  0  0  0  0
   -7.7432    2.4089   -8.7086 C   0  0  0  0  0  0  0  0  0  0  0  0
   -6.7577    3.0802   -9.6985 C   0  0  0  0  0  0  0  0  0  0  0  0
   -6.7916    4.8337  -11.5506 O   0  0  0  0  0  0  0  0  0  0  0  0
  1  2  2  0
  2  3  1  0
  3  4  1  0
  4  5  1  0
  5  6  2  0
  6  7  1  0
  7  8  1  0
  8  9  1  0
  8 10  2  0
 10 11  1  0
 11 12  2  0
 12 13  1  0
 14  2  1  6
 14 15  1  0
 15 16  1  0
 16 17  1  0
 17 18  1  0
 18 19  1  0
 19 20  1  0
 20 21  1  0
 21 22  1  0
 17 23  1  0
 13  4  2  0
 23 14  1  0
 12  7  1  0
 22 17  1  0
M  END
>  <energy_score>  (5045) 
-33.547034

>  <alias>  (5045) 
NMMJHQNOTVKXNC-UHFFFAOYSA-N-P84-P64-P84-601532

>  <HIPPO Pose ID>  (5045) 
89552

>  <smiles>  (5045) 
O=C(Nc1ccn2c(Br)cnc2c1)C1CCC2(CCOCC2)O1

>  <inchikey>  (5045) 
NMMJHQNOTVKXNC-UHFFFAOYSA-N

>  <distance_score>  (5045) 
1.330525

>  <ref_mols>  (5045) 
Z1046b,Z1495a

>  <ref_pdb>  (5045) 
Z0089a

>  <HIPPO Compound ID>  (5045) 
139242

>  <name>  (5045) 
NMMJHQNOTVKXNC-UHFFFAOYSA-N-P84-P64-P84-601532

>  <inspiration_score>  (5045) 
None

$$$$
YFYNLTOCPKVLGH-UHFFFAOYSA-N-P64-P64-P84-601532
     RDKit          3D

 23 25  0  0  0  0  0  0  0  0999 V2000
   -7.5274    4.1936   -8.2247 C   0  0  0  0  0  0  0  0  0  0  0  0
   -7.8497    4.0853   -9.7199 C   0  0  0  0  0  0  0  0  0  0  0  0
   -9.0114    3.0873   -9.8304 C   0  0  0  0  0  0  0  0  0  0  0  0
   -8.2562    5.4251  -10.0803 O   0  0  0  0  0  0  0  0  0  0  0  0
   -8.5040    5.5658  -11.4767 C   0  0  0  0  0  0  0  0  0  0  0  0
   -7.3012    5.1981  -12.3060 C   0  0  2  0  0  0  0  0  0  0  0  0
   -7.6462    5.3287  -13.8048 C   0  0  0  0  0  0  0  0  0  0  0  0
   -8.6137    5.8247  -14.2402 O   0  0  0  0  0  0  0  0  0  0  0  0
   -6.3883    4.7569  -14.5313 N   0  0  0  0  0  0  0  0  0  0  0  0
   -6.0490    4.7667  -15.8479 C   0  0  0  0  0  0  0  0  0  0  0  0
   -7.0355    5.0214  -16.8920 C   0  0  0  0  0  0  0  0  0  0  0  0
   -6.6124    5.2880  -18.1444 C   0  0  0  0  0  0  0  0  0  0  0  0
   -5.2418    5.2976  -18.4078 N   0  0  0  0  0  0  0  0  0  0  0  0
   -4.5103    5.7083  -19.4933 C   0  0  0  0  0  0  0  0  0  0  0  0
   -5.0732    6.5629  -21.0696 Br  0  0  0  0  0  0  0  0  0  0  0  0
   -3.1918    5.4872  -19.1880 C   0  0  0  0  0  0  0  0  0  0  0  0
   -3.0601    5.0057  -17.9217 N   0  0  0  0  0  0  0  0  0  0  0  0
   -4.2906    4.9293  -17.4609 C   0  0  0  0  0  0  0  0  0  0  0  0
   -4.7446    4.6374  -16.1535 C   0  0  0  0  0  0  0  0  0  0  0  0
   -6.8722    3.8697  -12.0126 O   0  0  0  0  0  0  0  0  0  0  0  0
   -6.6297    3.6370  -10.6003 C   0  0  0  0  0  0  0  0  0  0  0  0
   -6.3903    2.1263  -10.5086 C   0  0  0  0  0  0  0  0  0  0  0  0
   -5.3224    4.3574  -10.2169 C   0  0  0  0  0  0  0  0  0  0  0  0
  1  2  1  0
  2  3  1  0
  2  4  1  0
  4  5  1  0
  5  6  1  0
  6  7  1  6
  7  8  2  0
  7  9  1  0
  9 10  1  0
 10 11  1  0
 11 12  2  0
 12 13  1  0
 13 14  1  0
 14 15  1  0
 14 16  2  0
 16 17  1  0
 17 18  2  0
 18 19  1  0
  6 20  1  0
 20 21  1  0
 21 22  1  0
 21 23  1  0
 21  2  1  0
 19 10  2  0
 18 13  1  0
M  END
>  <energy_score>  (5046) 
-70.370936

>  <alias>  (5046) 
YFYNLTOCPKVLGH-UHFFFAOYSA-N-P64-P64-P84-601532

>  <HIPPO Pose ID>  (5046) 
89553

>  <smiles>  (5046) 
CC1(C)OCC(C(=O)Nc2ccn3c(Br)cnc3c2)OC1(C)C

>  <inchikey>  (5046) 
YFYNLTOCPKVLGH-UHFFFAOYSA-N

>  <distance_score>  (5046) 
1.442813

>  <ref_mols>  (5046) 
Z1046b,Z1495a

>  <ref_pdb>  (5046) 
Z0089a

>  <HIPPO Compound ID>  (5046) 
139243

>  <name>  (5046) 
YFYNLTOCPKVLGH-UHFFFAOYSA-N-P64-P64-P84-601532

>  <inspiration_score>  (5046) 
None

$$$$
RAKLAQHYJWVCOX-UHFFFAOYSA-N-P64-P64-P84-601532
     RDKit          3D

 23 25  0  0  0  0  0  0  0  0999 V2000
   -7.4651    4.1010   -8.0304 C   0  0  0  0  0  0  0  0  0  0  0  0
   -7.7911    4.1460   -9.5235 C   0  0  0  0  0  0  0  0  0  0  0  0
   -8.9960    3.2140   -9.7180 C   0  0  0  0  0  0  0  0  0  0  0  0
   -8.1242    5.5340   -9.7497 O   0  0  0  0  0  0  0  0  0  0  0  0
   -8.4249    5.8001  -11.1124 C   0  0  0  0  0  0  0  0  0  0  0  0
   -7.2947    5.4223  -12.0394 C   0  0  2  0  0  0  0  0  0  0  0  0
   -7.8069    5.4751  -13.4866 C   0  0  0  0  0  0  0  0  0  0  0  0
   -8.9277    5.6252  -13.7970 O   0  0  0  0  0  0  0  0  0  0  0  0
   -6.5404    5.2003  -14.3638 N   0  0  0  0  0  0  0  0  0  0  0  0
   -6.3965    5.1536  -15.7113 C   0  0  0  0  0  0  0  0  0  0  0  0
   -7.5564    4.8117  -16.5139 C   0  0  0  0  0  0  0  0  0  0  0  0
   -7.4340    4.6445  -17.8436 C   0  0  0  0  0  0  0  0  0  0  0  0
   -8.9384    4.1551  -18.8265 Br  0  0  0  0  0  0  0  0  0  0  0  0
   -6.1807    4.8833  -18.4292 N   0  0  0  0  0  0  0  0  0  0  0  0
   -5.7227    4.7739  -19.7188 C   0  0  0  0  0  0  0  0  0  0  0  0
   -4.4706    5.3359  -19.7355 C   0  0  0  0  0  0  0  0  0  0  0  0
   -4.0707    5.6721  -18.4734 N   0  0  0  0  0  0  0  0  0  0  0  0
   -5.0767    5.3256  -17.6966 C   0  0  0  0  0  0  0  0  0  0  0  0
   -5.1987    5.3674  -16.2835 C   0  0  0  0  0  0  0  0  0  0  0  0
   -6.8705    4.0699  -11.8374 O   0  0  0  0  0  0  0  0  0  0  0  0
   -6.6046    3.7277  -10.4560 C   0  0  0  0  0  0  0  0  0  0  0  0
   -6.4112    2.2064  -10.4784 C   0  0  0  0  0  0  0  0  0  0  0  0
   -5.2719    4.3879  -10.0581 C   0  0  0  0  0  0  0  0  0  0  0  0
  1  2  1  0
  2  3  1  0
  2  4  1  0
  4  5  1  0
  5  6  1  0
  6  7  1  6
  7  8  2  0
  7  9  1  0
  9 10  1  0
 10 11  1  0
 11 12  2  0
 12 13  1  0
 12 14  1  0
 14 15  1  0
 15 16  2  0
 16 17  1  0
 17 18  2  0
 18 19  1  0
  6 20  1  0
 20 21  1  0
 21 22  1  0
 21 23  1  0
 21  2  1  0
 19 10  2  0
 18 14  1  0
M  END
>  <energy_score>  (5047) 
-50.663706

>  <alias>  (5047) 
RAKLAQHYJWVCOX-UHFFFAOYSA-N-P64-P64-P84-601532

>  <HIPPO Pose ID>  (5047) 
89561

>  <smiles>  (5047) 
CC1(C)OCC(C(=O)Nc2cc(Br)n3ccnc3c2)OC1(C)C

>  <inchikey>  (5047) 
RAKLAQHYJWVCOX-UHFFFAOYSA-N

>  <distance_score>  (5047) 
1.412581

>  <ref_mols>  (5047) 
Z1046b,Z1495a

>  <ref_pdb>  (5047) 
Z0089a

>  <HIPPO Compound ID>  (5047) 
139247

>  <name>  (5047) 
RAKLAQHYJWVCOX-UHFFFAOYSA-N-P64-P64-P84-601532

>  <inspiration_score>  (5047) 
None

$$$$
AAIJIQCMMJRTAY-UHFFFAOYSA-N-P84-P64-P84-601532
     RDKit          3D

 24 27  0  0  0  0  0  0  0  0999 V2000
   -9.1656    5.2118  -14.6648 O   0  0  0  0  0  0  0  0  0  0  0  0
   -8.2010    4.8289  -14.1238 C   0  0  0  0  0  0  0  0  0  0  0  0
   -6.7550    4.6358  -14.6600 N   0  0  0  0  0  0  0  0  0  0  0  0
   -6.2557    4.7743  -15.9098 C   0  0  0  0  0  0  0  0  0  0  0  0
   -7.1634    5.0444  -17.0189 C   0  0  0  0  0  0  0  0  0  0  0  0
   -6.6494    5.4284  -18.1973 C   0  0  0  0  0  0  0  0  0  0  0  0
   -5.2686    5.4954  -18.3306 N   0  0  0  0  0  0  0  0  0  0  0  0
   -4.4830    6.0594  -19.2954 C   0  0  0  0  0  0  0  0  0  0  0  0
   -5.0077    7.1792  -20.7206 Br  0  0  0  0  0  0  0  0  0  0  0  0
   -3.1861    5.7748  -18.9501 C   0  0  0  0  0  0  0  0  0  0  0  0
   -3.1250    5.1259  -17.7509 N   0  0  0  0  0  0  0  0  0  0  0  0
   -4.3791    5.0509  -17.3535 C   0  0  0  0  0  0  0  0  0  0  0  0
   -4.9248    4.6941  -16.0970 C   0  0  0  0  0  0  0  0  0  0  0  0
   -8.2082    4.3547  -12.6747 C   0  0  1  0  0  0  0  0  0  0  0  0
   -7.6722    2.9375  -12.5128 C   0  0  0  0  0  0  0  0  0  0  0  0
   -8.0017    2.3951  -11.2395 O   0  0  0  0  0  0  0  0  0  0  0  0
   -8.4937    3.3655  -10.3209 C   0  0  0  0  0  0  0  0  0  0  0  0
   -7.6620    4.6918  -10.3946 C   0  0  0  0  0  0  0  0  0  0  0  0
   -8.2856    5.8170   -9.5731 C   0  0  0  0  0  0  0  0  0  0  0  0
   -7.9881    5.6914   -8.0866 C   0  0  0  0  0  0  0  0  0  0  0  0
   -7.6278    4.3680   -7.7420 O   0  0  0  0  0  0  0  0  0  0  0  0
   -6.4312    3.9200   -8.3899 C   0  0  0  0  0  0  0  0  0  0  0  0
   -6.2726    4.4433   -9.8156 C   0  0  0  0  0  0  0  0  0  0  0  0
   -7.5233    5.2035  -11.7522 O   0  0  0  0  0  0  0  0  0  0  0  0
  1  2  2  0
  2  3  1  0
  3  4  1  0
  4  5  1  0
  5  6  2  0
  6  7  1  0
  7  8  1  0
  8  9  1  0
  8 10  2  0
 10 11  1  0
 11 12  2  0
 12 13  1  0
 14  2  1  6
 14 15  1  0
 15 16  1  0
 16 17  1  0
 17 18  1  0
 18 19  1  0
 19 20  1  0
 20 21  1  0
 21 22  1  0
 22 23  1  0
 18 24  1  0
 13  4  2  0
 24 14  1  0
 12  7  1  0
 23 18  1  0
M  END
>  <energy_score>  (5048) 
-41.412903

>  <alias>  (5048) 
AAIJIQCMMJRTAY-UHFFFAOYSA-N-P84-P64-P84-601532

>  <HIPPO Pose ID>  (5048) 
89564

>  <smiles>  (5048) 
O=C(Nc1ccn2c(Br)cnc2c1)C1COCC2(CCOCC2)O1

>  <inchikey>  (5048) 
AAIJIQCMMJRTAY-UHFFFAOYSA-N

>  <distance_score>  (5048) 
1.4551

>  <ref_mols>  (5048) 
Z1046b,Z1495a

>  <ref_pdb>  (5048) 
Z0089a

>  <HIPPO Compound ID>  (5048) 
139248

>  <name>  (5048) 
AAIJIQCMMJRTAY-UHFFFAOYSA-N-P84-P64-P84-601532

>  <inspiration_score>  (5048) 
None

$$$$
FBTMZSFIIMRHRQ-UHFFFAOYSA-N-P64-P64-P84-601532
     RDKit          3D

 24 27  0  0  0  0  0  0  0  0999 V2000
   -8.0057    5.9088  -14.2068 O   0  0  0  0  0  0  0  0  0  0  0  0
   -7.1973    5.1049  -13.9385 C   0  0  0  0  0  0  0  0  0  0  0  0
   -6.0938    4.4433  -14.8263 N   0  0  0  0  0  0  0  0  0  0  0  0
   -5.7292    4.6929  -16.1096 C   0  0  0  0  0  0  0  0  0  0  0  0
   -4.2873    4.7178  -16.3074 C   0  0  0  0  0  0  0  0  0  0  0  0
   -3.7958    5.0995  -17.4911 C   0  0  0  0  0  0  0  0  0  0  0  0
   -4.6700    5.4901  -18.4830 N   0  0  0  0  0  0  0  0  0  0  0  0
   -4.3599    5.9957  -19.7136 C   0  0  0  0  0  0  0  0  0  0  0  0
   -5.5551    6.4114  -20.2284 C   0  0  0  0  0  0  0  0  0  0  0  0
   -6.5770    6.1784  -19.3426 N   0  0  0  0  0  0  0  0  0  0  0  0
   -6.0513    5.5025  -18.3414 C   0  0  0  0  0  0  0  0  0  0  0  0
   -6.5872    4.9512  -17.1291 C   0  0  0  0  0  0  0  0  0  0  0  0
   -8.3934    4.4344  -17.1220 Br  0  0  0  0  0  0  0  0  0  0  0  0
   -7.0693    4.4393  -12.5621 C   0  0  2  0  0  0  0  0  0  0  0  0
   -7.9963    3.2325  -12.6405 C   0  0  0  0  0  0  0  0  0  0  0  0
   -8.1155    2.6182  -11.3674 O   0  0  0  0  0  0  0  0  0  0  0  0
   -8.6755    3.5608  -10.4552 C   0  0  0  0  0  0  0  0  0  0  0  0
   -7.6821    4.7259  -10.2577 C   0  0  0  0  0  0  0  0  0  0  0  0
   -8.2371    5.8310   -9.3595 C   0  0  0  0  0  0  0  0  0  0  0  0
   -8.0862    5.5170   -7.8795 C   0  0  0  0  0  0  0  0  0  0  0  0
   -7.9652    4.1234   -7.6648 O   0  0  0  0  0  0  0  0  0  0  0  0
   -6.7739    3.5775   -8.2414 C   0  0  0  0  0  0  0  0  0  0  0  0
   -6.4092    4.2012   -9.5911 C   0  0  0  0  0  0  0  0  0  0  0  0
   -7.4199    5.3627  -11.5275 O   0  0  0  0  0  0  0  0  0  0  0  0
  1  2  2  0
  2  3  1  0
  3  4  1  0
  4  5  1  0
  5  6  2  0
  6  7  1  0
  7  8  1  0
  8  9  2  0
  9 10  1  0
 10 11  2  0
 11 12  1  0
 12 13  1  0
 14  2  1  6
 14 15  1  0
 15 16  1  0
 16 17  1  0
 17 18  1  0
 18 19  1  0
 19 20  1  0
 20 21  1  0
 21 22  1  0
 22 23  1  0
 18 24  1  0
 12  4  2  0
 24 14  1  0
 11  7  1  0
 23 18  1  0
M  END
>  <energy_score>  (5049) 
-17.916108

>  <alias>  (5049) 
FBTMZSFIIMRHRQ-UHFFFAOYSA-N-P64-P64-P84-601532

>  <HIPPO Pose ID>  (5049) 
89575

>  <smiles>  (5049) 
O=C(Nc1ccn2ccnc2c1Br)C1COCC2(CCOCC2)O1

>  <inchikey>  (5049) 
FBTMZSFIIMRHRQ-UHFFFAOYSA-N

>  <distance_score>  (5049) 
1.504884

>  <ref_mols>  (5049) 
Z1046b,Z1495a

>  <ref_pdb>  (5049) 
Z0089a

>  <HIPPO Compound ID>  (5049) 
139254

>  <name>  (5049) 
FBTMZSFIIMRHRQ-UHFFFAOYSA-N-P64-P64-P84-601532

>  <inspiration_score>  (5049) 
None

$$$$
BWYRRLQKLKXMFI-UHFFFAOYSA-N-P64-P64-P84-601532
     RDKit          3D

 24 26  0  0  0  0  0  0  0  0999 V2000
   -7.6990    7.3736  -10.1975 C   0  0  0  0  0  0  0  0  0  0  0  0
   -7.7522    6.8585  -11.6357 C   0  0  0  0  0  0  0  0  0  0  0  0
   -6.5516    7.4436  -12.3920 C   0  0  0  0  0  0  0  0  0  0  0  0
   -7.8972    5.3056  -11.7306 C   0  0  1  0  0  0  0  0  0  0  0  0
   -8.3134    5.0274  -13.2515 C   0  0  0  0  0  0  0  0  0  0  0  0
   -9.4199    5.0367  -13.6473 O   0  0  0  0  0  0  0  0  0  0  0  0
   -6.9530    4.8635  -14.0300 N   0  0  0  0  0  0  0  0  0  0  0  0
   -6.7037    4.7809  -15.3690 C   0  0  0  0  0  0  0  0  0  0  0  0
   -7.7902    4.5701  -16.3071 C   0  0  0  0  0  0  0  0  0  0  0  0
   -7.5468    4.5258  -17.6330 C   0  0  0  0  0  0  0  0  0  0  0  0
   -8.9663    4.2005  -18.7944 Br  0  0  0  0  0  0  0  0  0  0  0  0
   -6.2288    4.7223  -18.0839 N   0  0  0  0  0  0  0  0  0  0  0  0
   -5.6671    4.7411  -19.3417 C   0  0  0  0  0  0  0  0  0  0  0  0
   -4.3342    5.0319  -19.1705 C   0  0  0  0  0  0  0  0  0  0  0  0
   -4.0323    5.1776  -17.8455 N   0  0  0  0  0  0  0  0  0  0  0  0
   -5.1654    4.9558  -17.2106 C   0  0  0  0  0  0  0  0  0  0  0  0
   -5.4415    4.9396  -15.8168 C   0  0  0  0  0  0  0  0  0  0  0  0
   -6.6768    4.6307  -11.4931 O   0  0  0  0  0  0  0  0  0  0  0  0
   -6.9831    3.6039  -10.6540 C   0  0  0  0  0  0  0  0  0  0  0  0
   -6.2911    2.6148  -10.5087 O   0  0  0  0  0  0  0  0  0  0  0  0
   -8.2114    3.9562   -9.8834 C   0  0  0  0  0  0  0  0  0  0  0  0
   -9.0988    2.7595   -9.6588 C   0  0  0  0  0  0  0  0  0  0  0  0
   -7.8229    4.5564   -8.5336 C   0  0  0  0  0  0  0  0  0  0  0  0
   -8.8387    4.9071  -10.7446 O   0  0  0  0  0  0  0  0  0  0  0  0
  1  2  1  0
  2  3  1  0
  4  2  1  6
  4  5  1  0
  5  6  2  0
  5  7  1  0
  7  8  1  0
  8  9  1  0
  9 10  2  0
 10 11  1  0
 10 12  1  0
 12 13  1  0
 13 14  2  0
 14 15  1  0
 15 16  2  0
 16 17  1  0
  4 18  1  0
 18 19  1  0
 19 20  2  0
 19 21  1  0
 21 22  1  0
 21 23  1  0
 21 24  1  0
 24  4  1  0
 17  8  2  0
 16 12  1  0
M  END
>  <energy_score>  (5050) 
-24.401303

>  <alias>  (5050) 
BWYRRLQKLKXMFI-UHFFFAOYSA-N-P64-P64-P84-601532

>  <HIPPO Pose ID>  (5050) 
89581

>  <smiles>  (5050) 
CC(C)C1(C(=O)Nc2cc(Br)n3ccnc3c2)OC(=O)C(C)(C)O1

>  <inchikey>  (5050) 
BWYRRLQKLKXMFI-UHFFFAOYSA-N

>  <distance_score>  (5050) 
1.400438

>  <ref_mols>  (5050) 
Z1046b,Z1495a

>  <ref_pdb>  (5050) 
Z0089a

>  <HIPPO Compound ID>  (5050) 
139257

>  <name>  (5050) 
BWYRRLQKLKXMFI-UHFFFAOYSA-N-P64-P64-P84-601532

>  <inspiration_score>  (5050) 
None

$$$$
AFHGPVANGKREIS-UHFFFAOYSA-N-P84-P64-P84-601532
     RDKit          3D

 24 26  0  0  0  0  0  0  0  0999 V2000
   -8.6095    2.1685   -7.7818 C   0  0  0  0  0  0  0  0  0  0  0  0
   -8.3672    3.1460   -8.8670 C   0  0  0  0  0  0  0  0  0  0  0  0
   -8.5171    4.5191   -8.8734 C   0  0  0  0  0  0  0  0  0  0  0  0
   -8.2466    4.9143  -10.1603 N   0  0  0  0  0  0  0  0  0  0  0  0
   -8.3288    6.1742  -10.7546 C   0  0  0  0  0  0  0  0  0  0  0  0
   -8.0040    6.3126  -12.0556 C   0  0  0  0  0  0  0  0  0  0  0  0
   -7.5049    5.1522  -12.7896 C   0  0  0  0  0  0  0  0  0  0  0  0
   -7.0943    5.3159  -14.0800 N   0  0  0  0  0  0  0  0  0  0  0  0
   -6.1930    4.4094  -14.9805 C   0  0  0  0  0  0  0  0  0  0  0  0
   -5.6075    3.4282  -14.7234 O   0  0  0  0  0  0  0  0  0  0  0  0
   -6.2279    4.9890  -16.4461 C   0  0  1  0  0  0  0  0  0  0  0  0
   -7.6003    4.8234  -17.1804 C   0  0  0  0  0  0  0  0  0  0  0  0
   -7.4641    4.4967  -18.6640 C   0  0  0  0  0  0  0  0  0  0  0  0
   -8.6591    3.9521  -16.5130 C   0  0  0  0  0  0  0  0  0  0  0  0
   -6.0186    6.3971  -16.4053 O   0  0  0  0  0  0  0  0  0  0  0  0
   -5.1499    6.6026  -17.4278 C   0  0  0  0  0  0  0  0  0  0  0  0
   -5.2019    7.5572  -18.1799 O   0  0  0  0  0  0  0  0  0  0  0  0
   -4.1975    5.4498  -17.4566 C   0  0  0  0  0  0  0  0  0  0  0  0
   -3.1647    5.5347  -16.3383 C   0  0  0  0  0  0  0  0  0  0  0  0
   -3.5342    5.2830  -18.8109 C   0  0  0  0  0  0  0  0  0  0  0  0
   -5.1441    4.4051  -17.2015 O   0  0  0  0  0  0  0  0  0  0  0  0
   -7.4463    3.9405  -12.1974 C   0  0  0  0  0  0  0  0  0  0  0  0
   -7.8555    3.7799  -10.8488 C   0  0  0  0  0  0  0  0  0  0  0  0
   -7.9310    2.7129  -10.0924 N   0  0  0  0  0  0  0  0  0  0  0  0
  1  2  1  0
  2  3  2  0
  3  4  1  0
  4  5  1  0
  5  6  2  0
  6  7  1  0
  7  8  1  0
  8  9  1  0
  9 10  2  0
  9 11  1  0
 11 12  1  6
 12 13  1  0
 12 14  1  0
 11 15  1  0
 15 16  1  0
 16 17  2  0
 16 18  1  0
 18 19  1  0
 18 20  1  0
 18 21  1  0
  7 22  2  0
 22 23  1  0
 23 24  2  0
 24  2  1  0
 23  4  1  0
 21 11  1  0
M  END
>  <energy_score>  (5051) 
-30.434165

>  <alias>  (5051) 
AFHGPVANGKREIS-UHFFFAOYSA-N-P84-P64-P84-601532

>  <HIPPO Pose ID>  (5051) 
89586

>  <smiles>  (5051) 
Cc1cn2ccc(NC(=O)C3(C(C)C)OC(=O)C(C)(C)O3)cc2n1

>  <inchikey>  (5051) 
AFHGPVANGKREIS-UHFFFAOYSA-N

>  <distance_score>  (5051) 
1.074522

>  <ref_mols>  (5051) 
Z1046b,Z1495a

>  <ref_pdb>  (5051) 
Z0089a

>  <HIPPO Compound ID>  (5051) 
139259

>  <name>  (5051) 
AFHGPVANGKREIS-UHFFFAOYSA-N-P84-P64-P84-601532

>  <inspiration_score>  (5051) 
None

$$$$
MRUHXPVGOQAMJQ-UHFFFAOYSA-N-P84-P64-P84-601532
     RDKit          3D

 24 26  0  0  0  0  0  0  0  0999 V2000
   -8.2050    6.8359  -10.1939 C   0  0  0  0  0  0  0  0  0  0  0  0
   -8.1674    6.5583  -11.6964 C   0  0  0  0  0  0  0  0  0  0  0  0
   -7.0653    7.4230  -12.3238 C   0  0  0  0  0  0  0  0  0  0  0  0
   -8.0139    5.0456  -12.0280 C   0  0  2  0  0  0  0  0  0  0  0  0
   -8.2761    4.9176  -13.5766 C   0  0  0  0  0  0  0  0  0  0  0  0
   -9.3327    5.0405  -14.0688 O   0  0  0  0  0  0  0  0  0  0  0  0
   -6.8740    4.7150  -14.2302 N   0  0  0  0  0  0  0  0  0  0  0  0
   -6.5002    4.7183  -15.5403 C   0  0  0  0  0  0  0  0  0  0  0  0
   -7.5047    4.7728  -16.6033 C   0  0  0  0  0  0  0  0  0  0  0  0
   -7.1174    5.0465  -17.8635 C   0  0  0  0  0  0  0  0  0  0  0  0
   -5.7662    5.2520  -18.1166 N   0  0  0  0  0  0  0  0  0  0  0  0
   -5.1323    5.7099  -19.2419 C   0  0  0  0  0  0  0  0  0  0  0  0
   -3.8036    5.7660  -18.9051 C   0  0  0  0  0  0  0  0  0  0  0  0
   -2.8513    6.2146  -19.7288 O   0  0  0  0  0  0  0  0  0  0  0  0
   -3.5761    5.3548  -17.6348 N   0  0  0  0  0  0  0  0  0  0  0  0
   -4.7738    5.0934  -17.1572 C   0  0  0  0  0  0  0  0  0  0  0  0
   -5.1870    4.7950  -15.8343 C   0  0  0  0  0  0  0  0  0  0  0  0
   -9.0563    4.3104  -11.4304 O   0  0  0  0  0  0  0  0  0  0  0  0
   -8.5301    3.3247  -10.6812 C   0  0  0  0  0  0  0  0  0  0  0  0
   -9.1783    2.4978  -10.0666 O   0  0  0  0  0  0  0  0  0  0  0  0
   -7.0457    3.5018  -10.6381 C   0  0  0  0  0  0  0  0  0  0  0  0
   -6.6760    3.8775   -9.2078 C   0  0  0  0  0  0  0  0  0  0  0  0
   -6.3134    2.2609  -11.1242 C   0  0  0  0  0  0  0  0  0  0  0  0
   -6.7574    4.5757  -11.5506 O   0  0  0  0  0  0  0  0  0  0  0  0
  1  2  1  0
  2  3  1  0
  4  2  1  1
  4  5  1  0
  5  6  2  0
  5  7  1  0
  7  8  1  0
  8  9  1  0
  9 10  2  0
 10 11  1  0
 11 12  1  0
 12 13  2  0
 13 14  1  0
 13 15  1  0
 15 16  2  0
 16 17  1  0
  4 18  1  0
 18 19  1  0
 19 20  2  0
 19 21  1  0
 21 22  1  0
 21 23  1  0
 21 24  1  0
 24  4  1  0
 17  8  2  0
 16 11  1  0
M  END
>  <energy_score>  (5052) 
-44.065196

>  <alias>  (5052) 
MRUHXPVGOQAMJQ-UHFFFAOYSA-N-P84-P64-P84-601532

>  <HIPPO Pose ID>  (5052) 
89588

>  <smiles>  (5052) 
CC(C)C1(C(=O)Nc2ccn3cc(O)nc3c2)OC(=O)C(C)(C)O1

>  <inchikey>  (5052) 
MRUHXPVGOQAMJQ-UHFFFAOYSA-N

>  <distance_score>  (5052) 
1.203692

>  <ref_mols>  (5052) 
Z1046b,Z1495a

>  <ref_pdb>  (5052) 
Z0089a

>  <HIPPO Compound ID>  (5052) 
139260

>  <name>  (5052) 
MRUHXPVGOQAMJQ-UHFFFAOYSA-N-P84-P64-P84-601532

>  <inspiration_score>  (5052) 
None

$$$$
ADPGZCMRXPFASA-UHFFFAOYSA-N-P64-P64-P84-601532
     RDKit          3D

 24 27  0  0  0  0  0  0  0  0999 V2000
   -9.5992    1.8098   -7.4860 C   0  0  0  0  0  0  0  0  0  0  0  0
   -9.3045    2.4118   -8.7442 O   0  0  0  0  0  0  0  0  0  0  0  0
   -8.7954    3.6669   -8.6585 C   0  0  0  0  0  0  0  0  0  0  0  0
   -8.7489    4.3362   -7.6291 O   0  0  0  0  0  0  0  0  0  0  0  0
   -8.2162    4.1267  -10.0049 C   0  0  2  0  0  0  0  0  0  0  0  0
   -7.0402    3.2395  -10.4226 C   0  0  0  0  0  0  0  0  0  0  0  0
   -6.9175    3.5393  -11.9102 C   0  0  0  0  0  0  0  0  0  0  0  0
   -7.9852    4.6200  -12.1188 C   0  0  2  0  0  0  0  0  0  0  0  0
   -8.3085    4.8512  -13.6318 C   0  0  0  0  0  0  0  0  0  0  0  0
   -9.3647    4.7152  -14.1204 O   0  0  0  0  0  0  0  0  0  0  0  0
   -6.9381    5.2626  -14.2739 N   0  0  0  0  0  0  0  0  0  0  0  0
   -6.6024    5.4798  -15.5733 C   0  0  0  0  0  0  0  0  0  0  0  0
   -7.3156    4.8572  -16.6866 C   0  0  0  0  0  0  0  0  0  0  0  0
   -6.7687    4.9115  -17.9222 C   0  0  0  0  0  0  0  0  0  0  0  0
   -5.5892    5.6378  -18.1136 N   0  0  0  0  0  0  0  0  0  0  0  0
   -4.7602    5.8211  -19.1869 C   0  0  0  0  0  0  0  0  0  0  0  0
   -4.7266    4.9517  -20.8372 Br  0  0  0  0  0  0  0  0  0  0  0  0
   -3.8404    6.7733  -18.8347 C   0  0  0  0  0  0  0  0  0  0  0  0
   -3.9973    7.1234  -17.5328 N   0  0  0  0  0  0  0  0  0  0  0  0
   -4.9850    6.3694  -17.0995 C   0  0  0  0  0  0  0  0  0  0  0  0
   -5.4837    6.1965  -15.7923 C   0  0  0  0  0  0  0  0  0  0  0  0
   -7.5823    5.9334  -11.4269 C   0  0  0  0  0  0  0  0  0  0  0  0
   -7.7743    5.5980   -9.9535 C   0  0  0  0  0  0  0  0  0  0  0  0
   -8.9878    4.1446  -11.2154 O   0  0  0  0  0  0  0  0  0  0  0  0
  1  2  1  0
  2  3  1  0
  3  4  2  0
  5  3  1  1
  5  6  1  0
  6  7  1  0
  7  8  1  0
  8  9  1  6
  9 10  2  0
  9 11  1  0
 11 12  1  0
 12 13  1  0
 13 14  2  0
 14 15  1  0
 15 16  1  0
 16 17  1  0
 16 18  2  0
 18 19  1  0
 19 20  2  0
 20 21  1  0
  8 22  1  0
 22 23  1  0
  8 24  1  0
 23  5  1  0
 24  5  1  0
 21 12  2  0
 20 15  1  0
M  END
>  <energy_score>  (5053) 
-29.291072

>  <alias>  (5053) 
ADPGZCMRXPFASA-UHFFFAOYSA-N-P64-P64-P84-601532

>  <HIPPO Pose ID>  (5053) 
89595

>  <smiles>  (5053) 
COC(=O)C12CCC(C(=O)Nc3ccn4c(Br)cnc4c3)(CC1)O2

>  <inchikey>  (5053) 
ADPGZCMRXPFASA-UHFFFAOYSA-N

>  <distance_score>  (5053) 
1.508272

>  <ref_mols>  (5053) 
Z1046b,Z1495a

>  <ref_pdb>  (5053) 
Z0089a

>  <HIPPO Compound ID>  (5053) 
139264

>  <name>  (5053) 
ADPGZCMRXPFASA-UHFFFAOYSA-N-P64-P64-P84-601532

>  <inspiration_score>  (5053) 
None

$$$$
FBOTVMTYEZRJCL-UHFFFAOYSA-N-P64-P64-P84-601532
     RDKit          3D

 24 27  0  0  0  0  0  0  0  0999 V2000
   -9.5345    5.2448  -13.8929 O   0  0  0  0  0  0  0  0  0  0  0  0
   -8.4949    4.9158  -13.4624 C   0  0  0  0  0  0  0  0  0  0  0  0
   -7.1051    4.7964  -14.1590 N   0  0  0  0  0  0  0  0  0  0  0  0
   -6.7561    4.9545  -15.4594 C   0  0  0  0  0  0  0  0  0  0  0  0
   -7.8067    4.7178  -16.4323 C   0  0  0  0  0  0  0  0  0  0  0  0
   -7.5273    4.6561  -17.7442 C   0  0  0  0  0  0  0  0  0  0  0  0
   -8.9078    4.2066  -18.9045 Br  0  0  0  0  0  0  0  0  0  0  0  0
   -6.2131    4.9187  -18.1528 N   0  0  0  0  0  0  0  0  0  0  0  0
   -5.6267    4.9841  -19.3934 C   0  0  0  0  0  0  0  0  0  0  0  0
   -4.3197    5.3415  -19.1848 C   0  0  0  0  0  0  0  0  0  0  0  0
   -4.0488    5.4707  -17.8524 N   0  0  0  0  0  0  0  0  0  0  0  0
   -5.1845    5.2001  -17.2444 C   0  0  0  0  0  0  0  0  0  0  0  0
   -5.4870    5.1477  -15.8545 C   0  0  0  0  0  0  0  0  0  0  0  0
   -8.3111    4.3990  -12.0348 C   0  0  1  0  0  0  0  0  0  0  0  0
   -8.1633    2.8770  -12.1418 C   0  0  0  0  0  0  0  0  0  0  0  0
   -6.9553    2.3853  -11.3865 C   0  0  0  0  0  0  0  0  0  0  0  0
   -7.0510    2.8921   -9.9661 C   0  0  0  0  0  0  0  0  0  0  0  0
   -7.2457    4.4391   -9.9162 C   0  0  0  0  0  0  0  0  0  0  0  0
   -8.5530    4.8316   -9.1888 C   0  0  0  0  0  0  0  0  0  0  0  0
   -8.4521    4.9821   -7.6749 C   0  0  0  0  0  0  0  0  0  0  0  0
   -7.3336    4.1479   -7.1035 C   0  0  0  0  0  0  0  0  0  0  0  0
   -5.9930    4.5633   -7.7015 C   0  0  0  0  0  0  0  0  0  0  0  0
   -6.0742    5.0679   -9.1516 C   0  0  0  0  0  0  0  0  0  0  0  0
   -7.2624    4.9826  -11.2662 O   0  0  0  0  0  0  0  0  0  0  0  0
  1  2  2  0
  2  3  1  0
  3  4  1  0
  4  5  1  0
  5  6  2  0
  6  7  1  0
  6  8  1  0
  8  9  1  0
  9 10  2  0
 10 11  1  0
 11 12  2  0
 12 13  1  0
 14  2  1  6
 14 15  1  0
 15 16  1  0
 16 17  1  0
 17 18  1  0
 18 19  1  0
 19 20  1  0
 20 21  1  0
 21 22  1  0
 22 23  1  0
 18 24  1  0
 13  4  2  0
 24 14  1  0
 12  8  1  0
 23 18  1  0
M  END
>  <energy_score>  (5054) 
-44.199768

>  <alias>  (5054) 
FBOTVMTYEZRJCL-UHFFFAOYSA-N-P64-P64-P84-601532

>  <HIPPO Pose ID>  (5054) 
89599

>  <smiles>  (5054) 
O=C(Nc1cc(Br)n2ccnc2c1)C1CCCC2(CCCCC2)O1

>  <inchikey>  (5054) 
FBOTVMTYEZRJCL-UHFFFAOYSA-N

>  <distance_score>  (5054) 
1.746976

>  <ref_mols>  (5054) 
Z1046b,Z1495a

>  <ref_pdb>  (5054) 
Z0089a

>  <HIPPO Compound ID>  (5054) 
139266

>  <name>  (5054) 
FBOTVMTYEZRJCL-UHFFFAOYSA-N-P64-P64-P84-601532

>  <inspiration_score>  (5054) 
None

$$$$
DMXCQXGUHOSVDW-UHFFFAOYSA-N-P84-P64-P84-601532
     RDKit          3D

 24 27  0  0  0  0  0  0  0  0999 V2000
   -9.3124    5.1236  -14.1021 O   0  0  0  0  0  0  0  0  0  0  0  0
   -8.3337    4.6774  -13.6345 C   0  0  0  0  0  0  0  0  0  0  0  0
   -6.9021    4.5201  -14.2416 N   0  0  0  0  0  0  0  0  0  0  0  0
   -6.4420    4.7757  -15.4953 C   0  0  0  0  0  0  0  0  0  0  0  0
   -7.3628    5.0927  -16.5839 C   0  0  0  0  0  0  0  0  0  0  0  0
   -6.8664    5.4477  -17.7841 C   0  0  0  0  0  0  0  0  0  0  0  0
   -5.4853    5.4687  -17.9586 N   0  0  0  0  0  0  0  0  0  0  0  0
   -4.7017    5.9776  -18.9586 C   0  0  0  0  0  0  0  0  0  0  0  0
   -5.1993    7.0849  -20.4031 Br  0  0  0  0  0  0  0  0  0  0  0  0
   -3.4077    5.6533  -18.6371 C   0  0  0  0  0  0  0  0  0  0  0  0
   -3.3401    5.0427  -17.4189 N   0  0  0  0  0  0  0  0  0  0  0  0
   -4.5873    5.0178  -16.9924 C   0  0  0  0  0  0  0  0  0  0  0  0
   -5.1168    4.6761  -15.7234 C   0  0  0  0  0  0  0  0  0  0  0  0
   -8.2838    4.0019  -12.2353 C   0  0  1  0  0  0  0  0  0  0  0  0
   -7.7566    2.5695  -12.3462 C   0  0  0  0  0  0  0  0  0  0  0  0
   -6.4365    2.3315  -11.6459 C   0  0  0  0  0  0  0  0  0  0  0  0
   -6.3615    2.9461  -10.2581 C   0  0  0  0  0  0  0  0  0  0  0  0
   -7.4391    4.0099   -9.9864 C   0  0  0  0  0  0  0  0  0  0  0  0
   -6.9072    5.0150   -8.9408 C   0  0  0  0  0  0  0  0  0  0  0  0
   -7.9405    5.3796   -7.8804 C   0  0  0  0  0  0  0  0  0  0  0  0
   -8.4240    4.1496   -7.1128 C   0  0  0  0  0  0  0  0  0  0  0  0
   -8.6858    2.9411   -7.9977 C   0  0  0  0  0  0  0  0  0  0  0  0
   -8.7382    3.3410   -9.4640 C   0  0  0  0  0  0  0  0  0  0  0  0
   -7.6321    4.7538  -11.2186 O   0  0  0  0  0  0  0  0  0  0  0  0
  1  2  2  0
  2  3  1  0
  3  4  1  0
  4  5  1  0
  5  6  2  0
  6  7  1  0
  7  8  1  0
  8  9  1  0
  8 10  2  0
 10 11  1  0
 11 12  2  0
 12 13  1  0
 14  2  1  6
 14 15  1  0
 15 16  1  0
 16 17  1  0
 17 18  1  0
 18 19  1  0
 19 20  1  0
 20 21  1  0
 21 22  1  0
 22 23  1  0
 18 24  1  0
 13  4  2  0
 24 14  1  0
 12  7  1  0
 23 18  1  0
M  END
>  <energy_score>  (5055) 
-31.267119

>  <alias>  (5055) 
DMXCQXGUHOSVDW-UHFFFAOYSA-N-P84-P64-P84-601532

>  <HIPPO Pose ID>  (5055) 
89602

>  <smiles>  (5055) 
O=C(Nc1ccn2c(Br)cnc2c1)C1CCCC2(CCCCC2)O1

>  <inchikey>  (5055) 
DMXCQXGUHOSVDW-UHFFFAOYSA-N

>  <distance_score>  (5055) 
1.55473

>  <ref_mols>  (5055) 
Z1046b,Z1495a

>  <ref_pdb>  (5055) 
Z0089a

>  <HIPPO Compound ID>  (5055) 
139267

>  <name>  (5055) 
DMXCQXGUHOSVDW-UHFFFAOYSA-N-P84-P64-P84-601532

>  <inspiration_score>  (5055) 
None

$$$$
CNSABFMNDVPGQJ-UHFFFAOYSA-N-P64-P64-P84-601532
     RDKit          3D

 24 27  0  0  0  0  0  0  0  0999 V2000
   -9.5316    5.5984  -13.9021 O   0  0  0  0  0  0  0  0  0  0  0  0
   -8.4717    5.3936  -13.4401 C   0  0  0  0  0  0  0  0  0  0  0  0
   -7.1120    5.0456  -14.1357 N   0  0  0  0  0  0  0  0  0  0  0  0
   -6.7870    4.9791  -15.4541 C   0  0  0  0  0  0  0  0  0  0  0  0
   -7.8259    4.6535  -16.4075 C   0  0  0  0  0  0  0  0  0  0  0  0
   -7.5546    4.6227  -17.7259 C   0  0  0  0  0  0  0  0  0  0  0  0
   -8.9312    4.1705  -18.8901 Br  0  0  0  0  0  0  0  0  0  0  0  0
   -6.2590    4.9661  -18.1523 N   0  0  0  0  0  0  0  0  0  0  0  0
   -5.6815    5.0741  -19.3963 C   0  0  0  0  0  0  0  0  0  0  0  0
   -4.4222    5.5866  -19.2041 C   0  0  0  0  0  0  0  0  0  0  0  0
   -4.1565    5.7404  -17.8731 N   0  0  0  0  0  0  0  0  0  0  0  0
   -5.2447    5.3208  -17.2579 C   0  0  0  0  0  0  0  0  0  0  0  0
   -5.5332    5.2451  -15.8675 C   0  0  0  0  0  0  0  0  0  0  0  0
   -8.2116    5.5134  -11.9153 C   0  0  2  0  0  0  0  0  0  0  0  0
   -6.9833    6.3435  -11.5605 C   0  0  0  0  0  0  0  0  0  0  0  0
   -5.7779    5.5570  -11.0600 C   0  0  0  0  0  0  0  0  0  0  0  0
   -6.0945    4.2135  -10.4229 C   0  0  0  0  0  0  0  0  0  0  0  0
   -7.5713    4.0452  -10.0875 C   0  0  0  0  0  0  0  0  0  0  0  0
   -8.0566    5.0025   -8.9891 C   0  0  0  0  0  0  0  0  0  0  0  0
   -8.2011    4.2883   -7.6595 C   0  0  0  0  0  0  0  0  0  0  0  0
   -9.1753    3.2637   -7.7369 O   0  0  0  0  0  0  0  0  0  0  0  0
   -9.0240    2.3694   -8.8389 C   0  0  0  0  0  0  0  0  0  0  0  0
   -7.7580    2.5804   -9.6549 C   0  0  0  0  0  0  0  0  0  0  0  0
   -8.2675    4.2307  -11.3257 O   0  0  0  0  0  0  0  0  0  0  0  0
  1  2  2  0
  2  3  1  0
  3  4  1  0
  4  5  1  0
  5  6  2  0
  6  7  1  0
  6  8  1  0
  8  9  1  0
  9 10  2  0
 10 11  1  0
 11 12  2  0
 12 13  1  0
 14  2  1  6
 14 15  1  0
 15 16  1  0
 16 17  1  0
 17 18  1  0
 18 19  1  0
 19 20  1  0
 20 21  1  0
 21 22  1  0
 22 23  1  0
 18 24  1  0
 13  4  2  0
 24 14  1  0
 12  8  1  0
 23 18  1  0
M  END
>  <energy_score>  (5056) 
-21.495357

>  <alias>  (5056) 
CNSABFMNDVPGQJ-UHFFFAOYSA-N-P64-P64-P84-601532

>  <HIPPO Pose ID>  (5056) 
89607

>  <smiles>  (5056) 
O=C(Nc1cc(Br)n2ccnc2c1)C1CCCC2(CCOCC2)O1

>  <inchikey>  (5056) 
CNSABFMNDVPGQJ-UHFFFAOYSA-N

>  <distance_score>  (5056) 
1.653991

>  <ref_mols>  (5056) 
Z1046b,Z1495a

>  <ref_pdb>  (5056) 
Z0089a

>  <HIPPO Compound ID>  (5056) 
139270

>  <name>  (5056) 
CNSABFMNDVPGQJ-UHFFFAOYSA-N-P64-P64-P84-601532

>  <inspiration_score>  (5056) 
None

$$$$
VDRYLIAXVRWTPO-UHFFFAOYSA-N-P64-P64-P84-601532
     RDKit          3D

 24 27  0  0  0  0  0  0  0  0999 V2000
   -8.8248    5.3161  -14.0028 O   0  0  0  0  0  0  0  0  0  0  0  0
   -7.9449    4.5898  -13.7242 C   0  0  0  0  0  0  0  0  0  0  0  0
   -6.7202    4.0900  -14.5868 N   0  0  0  0  0  0  0  0  0  0  0  0
   -6.3203    4.4419  -15.8419 C   0  0  0  0  0  0  0  0  0  0  0  0
   -4.8547    4.4839  -15.9256 C   0  0  0  0  0  0  0  0  0  0  0  0
   -4.2562    4.9007  -17.0443 C   0  0  0  0  0  0  0  0  0  0  0  0
   -5.0397    5.3204  -18.0938 N   0  0  0  0  0  0  0  0  0  0  0  0
   -4.6198    5.8554  -19.2784 C   0  0  0  0  0  0  0  0  0  0  0  0
   -5.7659    6.2722  -19.8916 C   0  0  0  0  0  0  0  0  0  0  0  0
   -6.8637    6.0125  -19.1098 N   0  0  0  0  0  0  0  0  0  0  0  0
   -6.4292    5.3311  -18.0694 C   0  0  0  0  0  0  0  0  0  0  0  0
   -7.0803    4.7538  -16.9193 C   0  0  0  0  0  0  0  0  0  0  0  0
   -8.8848    4.2857  -17.0930 Br  0  0  0  0  0  0  0  0  0  0  0  0
   -7.6726    3.9673  -12.3190 C   0  0  1  0  0  0  0  0  0  0  0  0
   -6.3610    4.5957  -11.8147 C   0  0  0  0  0  0  0  0  0  0  0  0
   -5.7575    3.7175  -10.7386 C   0  0  0  0  0  0  0  0  0  0  0  0
   -6.8302    2.9296  -10.0159 C   0  0  0  0  0  0  0  0  0  0  0  0
   -8.1716    3.6959   -9.9642 C   0  0  0  0  0  0  0  0  0  0  0  0
   -8.0965    4.9280   -9.0456 C   0  0  0  0  0  0  0  0  0  0  0  0
   -8.4094    4.5986   -7.5899 C   0  0  0  0  0  0  0  0  0  0  0  0
   -8.1057    3.2550   -7.2652 O   0  0  0  0  0  0  0  0  0  0  0  0
   -8.8744    2.2828   -7.9790 C   0  0  0  0  0  0  0  0  0  0  0  0
   -9.2175    2.7466   -9.3863 C   0  0  0  0  0  0  0  0  0  0  0  0
   -8.6143    4.1542  -11.2739 O   0  0  0  0  0  0  0  0  0  0  0  0
  1  2  2  0
  2  3  1  0
  3  4  1  0
  4  5  1  0
  5  6  2  0
  6  7  1  0
  7  8  1  0
  8  9  2  0
  9 10  1  0
 10 11  2  0
 11 12  1  0
 12 13  1  0
 14  2  1  6
 14 15  1  0
 15 16  1  0
 16 17  1  0
 17 18  1  0
 18 19  1  0
 19 20  1  0
 20 21  1  0
 21 22  1  0
 22 23  1  0
 18 24  1  0
 12  4  2  0
 24 14  1  0
 11  7  1  0
 23 18  1  0
M  END
>  <energy_score>  (5057) 
-22.425676

>  <alias>  (5057) 
VDRYLIAXVRWTPO-UHFFFAOYSA-N-P64-P64-P84-601532

>  <HIPPO Pose ID>  (5057) 
89615

>  <smiles>  (5057) 
O=C(Nc1ccn2ccnc2c1Br)C1CCCC2(CCOCC2)O1

>  <inchikey>  (5057) 
VDRYLIAXVRWTPO-UHFFFAOYSA-N

>  <distance_score>  (5057) 
1.536612

>  <ref_mols>  (5057) 
Z1046b,Z1495a

>  <ref_pdb>  (5057) 
Z0089a

>  <HIPPO Compound ID>  (5057) 
139274

>  <name>  (5057) 
VDRYLIAXVRWTPO-UHFFFAOYSA-N-P64-P64-P84-601532

>  <inspiration_score>  (5057) 
None

$$$$
PYHCEOYYJYWMHT-UHFFFAOYSA-N-P84-P64-P84-601532
     RDKit          3D

 25 28  0  0  0  0  0  0  0  0999 V2000
   -8.1550    1.9669   -8.2064 C   0  0  0  0  0  0  0  0  0  0  0  0
   -9.3291    2.5213   -8.9668 C   0  0  0  0  0  0  0  0  0  0  0  0
   -8.9910    3.8425   -9.3886 O   0  0  0  0  0  0  0  0  0  0  0  0
   -8.3732    3.9312  -10.5952 C   0  0  0  0  0  0  0  0  0  0  0  0
   -8.2382    3.0141  -11.3979 O   0  0  0  0  0  0  0  0  0  0  0  0
   -7.7672    5.2985  -10.7849 C   0  0  2  0  0  0  0  0  0  0  0  0
   -6.1909    5.4152  -10.6883 C   0  0  0  0  0  0  0  0  0  0  0  0
   -6.6170    6.9199  -10.5850 C   0  0  2  0  0  0  0  0  0  0  0  0
   -5.6410    7.9678  -10.1430 C   0  0  0  0  0  0  0  0  0  0  0  0
   -7.7002    6.3450   -9.6003 C   0  0  0  0  0  0  0  0  0  0  0  0
   -7.2890    7.2554  -11.8304 O   0  0  0  0  0  0  0  0  0  0  0  0
   -8.2491    6.1827  -11.9465 C   0  0  1  0  0  0  0  0  0  0  0  0
   -8.3593    5.6071  -13.3670 C   0  0  0  0  0  0  0  0  0  0  0  0
   -9.3834    5.3466  -13.8693 O   0  0  0  0  0  0  0  0  0  0  0  0
   -6.9117    5.5706  -13.9460 N   0  0  0  0  0  0  0  0  0  0  0  0
   -6.4650    5.3109  -15.2242 C   0  0  0  0  0  0  0  0  0  0  0  0
   -5.0021    5.5134  -15.2852 C   0  0  0  0  0  0  0  0  0  0  0  0
   -4.3694    5.6311  -16.4566 C   0  0  0  0  0  0  0  0  0  0  0  0
   -5.1221    5.5850  -17.6054 N   0  0  0  0  0  0  0  0  0  0  0  0
   -4.7312    5.9292  -18.8679 C   0  0  0  0  0  0  0  0  0  0  0  0
   -5.8981    5.9660  -19.5794 C   0  0  0  0  0  0  0  0  0  0  0  0
   -6.9586    5.5567  -18.8164 N   0  0  0  0  0  0  0  0  0  0  0  0
   -6.4774    5.2969  -17.6212 C   0  0  0  0  0  0  0  0  0  0  0  0
   -7.1280    4.9865  -16.3685 C   0  0  0  0  0  0  0  0  0  0  0  0
   -8.8482    4.2941  -16.5748 Br  0  0  0  0  0  0  0  0  0  0  0  0
  1  2  1  0
  2  3  1  0
  3  4  1  0
  4  5  2  0
  6  4  1  1
  6  7  1  0
  7  8  1  0
  8  9  1  1
  8 10  1  0
  8 11  1  0
 11 12  1  0
 12 13  1  6
 13 14  2  0
 13 15  1  0
 15 16  1  0
 16 17  1  0
 17 18  2  0
 18 19  1  0
 19 20  1  0
 20 21  2  0
 21 22  1  0
 22 23  2  0
 23 24  1  0
 24 25  1  0
 10  6  1  0
 24 16  2  0
 12  6  1  0
 23 19  1  0
M  END
>  <energy_score>  (5058) 
-38.153886

>  <alias>  (5058) 
PYHCEOYYJYWMHT-UHFFFAOYSA-N-P84-P64-P84-601532

>  <HIPPO Pose ID>  (5058) 
89618

>  <smiles>  (5058) 
CCOC(=O)C12CC(C)(C1)OC2C(=O)Nc1ccn2ccnc2c1Br

>  <inchikey>  (5058) 
PYHCEOYYJYWMHT-UHFFFAOYSA-N

>  <distance_score>  (5058) 
1.476657

>  <ref_mols>  (5058) 
Z1046b,Z1495a

>  <ref_pdb>  (5058) 
Z0089a

>  <HIPPO Compound ID>  (5058) 
139275

>  <name>  (5058) 
PYHCEOYYJYWMHT-UHFFFAOYSA-N-P84-P64-P84-601532

>  <inspiration_score>  (5058) 
None

$$$$
QDBBLUDNEHYNNX-UHFFFAOYSA-N-P84-P64-P84-601532
     RDKit          3D

 25 28  0  0  0  0  0  0  0  0999 V2000
   -9.3495    1.9196   -8.2089 C   0  0  0  0  0  0  0  0  0  0  0  0
   -8.8714    3.0873   -8.8821 O   0  0  0  0  0  0  0  0  0  0  0  0
   -8.8489    3.0904  -10.2422 C   0  0  0  0  0  0  0  0  0  0  0  0
   -9.3844    2.2425  -10.9528 O   0  0  0  0  0  0  0  0  0  0  0  0
   -8.0458    4.2644  -10.8116 C   0  0  1  0  0  0  0  0  0  0  0  0
   -6.9540    3.9297  -11.9289 C   0  0  0  0  0  0  0  0  0  0  0  0
   -7.0911    5.4831  -12.1081 C   0  0  1  0  0  0  0  0  0  0  0  0
   -6.6727    6.2862  -13.3846 C   0  0  0  0  0  0  0  0  0  0  0  0
   -6.2596    7.3815  -13.2830 O   0  0  0  0  0  0  0  0  0  0  0  0
   -6.9343    5.4188  -14.6550 N   0  0  0  0  0  0  0  0  0  0  0  0
   -6.6698    5.6690  -15.9635 C   0  0  0  0  0  0  0  0  0  0  0  0
   -6.8042    4.5718  -16.9151 C   0  0  0  0  0  0  0  0  0  0  0  0
   -6.0652    4.6259  -18.0391 C   0  0  0  0  0  0  0  0  0  0  0  0
   -5.3482    5.7822  -18.3096 N   0  0  0  0  0  0  0  0  0  0  0  0
   -4.2241    6.0412  -19.0448 C   0  0  0  0  0  0  0  0  0  0  0  0
   -2.7630    4.8940  -19.3675 Br  0  0  0  0  0  0  0  0  0  0  0  0
   -4.1786    7.4075  -19.1764 C   0  0  0  0  0  0  0  0  0  0  0  0
   -5.0539    7.9896  -18.2960 N   0  0  0  0  0  0  0  0  0  0  0  0
   -5.5685    6.9697  -17.6374 C   0  0  0  0  0  0  0  0  0  0  0  0
   -6.1496    6.8496  -16.3526 C   0  0  0  0  0  0  0  0  0  0  0  0
   -8.6153    5.1553  -11.9766 C   0  0  0  0  0  0  0  0  0  0  0  0
   -6.6603    6.0717  -10.8348 O   0  0  0  0  0  0  0  0  0  0  0  0
   -7.3693    5.2796   -9.8641 C   0  0  0  0  0  0  0  0  0  0  0  0
   -6.3943    4.6437   -8.8875 C   0  0  0  0  0  0  0  0  0  0  0  0
   -8.3279    6.1995   -9.1280 C   0  0  0  0  0  0  0  0  0  0  0  0
  1  2  1  0
  2  3  1  0
  3  4  2  0
  5  3  1  1
  5  6  1  0
  6  7  1  0
  7  8  1  6
  8  9  2  0
  8 10  1  0
 10 11  1  0
 11 12  1  0
 12 13  2  0
 13 14  1  0
 14 15  1  0
 15 16  1  0
 15 17  2  0
 17 18  1  0
 18 19  2  0
 19 20  1  0
  7 21  1  0
  7 22  1  0
 22 23  1  0
 23 24  1  0
 23 25  1  0
 21  5  1  0
 23  5  1  0
 20 11  2  0
 19 14  1  0
M  END
>  <energy_score>  (5059) 
-31.827909

>  <alias>  (5059) 
QDBBLUDNEHYNNX-UHFFFAOYSA-N-P84-P64-P84-601532

>  <HIPPO Pose ID>  (5059) 
89622

>  <smiles>  (5059) 
COC(=O)C12CC(C(=O)Nc3ccn4c(Br)cnc4c3)(C1)OC2(C)C

>  <inchikey>  (5059) 
QDBBLUDNEHYNNX-UHFFFAOYSA-N

>  <distance_score>  (5059) 
1.581407

>  <ref_mols>  (5059) 
Z1046b,Z1495a

>  <ref_pdb>  (5059) 
Z0089a

>  <HIPPO Compound ID>  (5059) 
139277

>  <name>  (5059) 
QDBBLUDNEHYNNX-UHFFFAOYSA-N-P84-P64-P84-601532

>  <inspiration_score>  (5059) 
None

$$$$
FXXHGKDZJOFNEU-UHFFFAOYSA-N-P84-P64-P84-601532
     RDKit          3D

 25 28  0  0  0  0  0  0  0  0999 V2000
   -9.4091    4.3525  -18.7306 C   0  0  0  0  0  0  0  0  0  0  0  0
   -8.4225    5.1028  -18.0348 O   0  0  0  0  0  0  0  0  0  0  0  0
   -7.1281    4.7825  -18.3108 C   0  0  0  0  0  0  0  0  0  0  0  0
   -6.7628    4.1231  -19.2738 O   0  0  0  0  0  0  0  0  0  0  0  0
   -6.2283    5.2788  -17.1834 C   0  0  2  0  0  0  0  0  0  0  0  0
   -5.7699    4.2055  -16.1641 C   0  0  0  0  0  0  0  0  0  0  0  0
   -5.5238    5.4938  -15.3065 C   0  0  2  0  0  0  0  0  0  0  0  0
   -5.3699    5.0747  -13.8118 C   0  0  0  0  0  0  0  0  0  0  0  0
   -4.5036    4.3670  -13.4592 O   0  0  0  0  0  0  0  0  0  0  0  0
   -6.5729    5.6647  -13.0228 N   0  0  0  0  0  0  0  0  0  0  0  0
   -6.9827    5.4451  -11.7541 C   0  0  0  0  0  0  0  0  0  0  0  0
   -7.7863    6.4608  -11.0917 C   0  0  0  0  0  0  0  0  0  0  0  0
   -8.3412    6.1667   -9.9024 C   0  0  0  0  0  0  0  0  0  0  0  0
   -8.2038    4.8772   -9.3899 N   0  0  0  0  0  0  0  0  0  0  0  0
   -8.6951    4.3286   -8.2352 C   0  0  0  0  0  0  0  0  0  0  0  0
   -8.4377    2.9763   -8.3320 C   0  0  0  0  0  0  0  0  0  0  0  0
   -8.8608    1.8737   -7.4459 C   0  0  0  0  0  0  0  0  0  0  0  0
   -7.6753    2.7141   -9.4399 N   0  0  0  0  0  0  0  0  0  0  0  0
   -7.5181    3.8675  -10.0414 C   0  0  0  0  0  0  0  0  0  0  0  0
   -6.8394    4.2091  -11.2344 C   0  0  0  0  0  0  0  0  0  0  0  0
   -6.9143    5.8911  -15.8988 C   0  0  0  0  0  0  0  0  0  0  0  0
   -4.5247    6.2844  -16.0222 O   0  0  0  0  0  0  0  0  0  0  0  0
   -4.9565    6.1275  -17.4088 C   0  0  0  0  0  0  0  0  0  0  0  0
   -5.2652    7.4886  -18.0217 C   0  0  0  0  0  0  0  0  0  0  0  0
   -3.8526    5.4266  -18.1976 C   0  0  0  0  0  0  0  0  0  0  0  0
  1  2  1  0
  2  3  1  0
  3  4  2  0
  5  3  1  6
  5  6  1  0
  6  7  1  0
  7  8  1  1
  8  9  2  0
  8 10  1  0
 10 11  1  0
 11 12  1  0
 12 13  2  0
 13 14  1  0
 14 15  1  0
 15 16  2  0
 16 17  1  0
 16 18  1  0
 18 19  2  0
 19 20  1  0
  7 21  1  0
  7 22  1  0
 22 23  1  0
 23 24  1  0
 23 25  1  0
 21  5  1  0
 23  5  1  0
 20 11  2  0
 19 14  1  0
M  END
>  <energy_score>  (5060) 
-44.286707

>  <alias>  (5060) 
FXXHGKDZJOFNEU-UHFFFAOYSA-N-P84-P64-P84-601532

>  <HIPPO Pose ID>  (5060) 
89626

>  <smiles>  (5060) 
COC(=O)C12CC(C(=O)Nc3ccn4cc(C)nc4c3)(C1)OC2(C)C

>  <inchikey>  (5060) 
FXXHGKDZJOFNEU-UHFFFAOYSA-N

>  <distance_score>  (5060) 
1.529943

>  <ref_mols>  (5060) 
Z1046b,Z1495a

>  <ref_pdb>  (5060) 
Z0089a

>  <HIPPO Compound ID>  (5060) 
139279

>  <name>  (5060) 
FXXHGKDZJOFNEU-UHFFFAOYSA-N-P84-P64-P84-601532

>  <inspiration_score>  (5060) 
None

$$$$
OWTJDCBNFSPIFO-UHFFFAOYSA-N-P64-P64-P84-601532
     RDKit          3D

 25 28  0  0  0  0  0  0  0  0999 V2000
   -8.1727    2.1353   -8.3911 C   0  0  0  0  0  0  0  0  0  0  0  0
   -9.1714    2.7318   -9.3495 C   0  0  0  0  0  0  0  0  0  0  0  0
   -8.8292    4.0978   -9.6110 O   0  0  0  0  0  0  0  0  0  0  0  0
   -7.8838    4.2761  -10.5710 C   0  0  0  0  0  0  0  0  0  0  0  0
   -7.3113    3.3735  -11.1795 O   0  0  0  0  0  0  0  0  0  0  0  0
   -7.5414    5.7327  -10.7677 C   0  0  2  0  0  0  0  0  0  0  0  0
   -6.7468    6.4992   -9.6448 C   0  0  0  0  0  0  0  0  0  0  0  0
   -7.1787    7.6838  -10.5824 C   0  0  2  0  0  0  0  0  0  0  0  0
   -7.0945    9.1084  -10.1245 C   0  0  0  0  0  0  0  0  0  0  0  0
   -8.5476    6.9208  -10.6054 C   0  0  0  0  0  0  0  0  0  0  0  0
   -6.5399    7.4587  -11.8722 O   0  0  0  0  0  0  0  0  0  0  0  0
   -6.7429    6.0476  -12.0444 C   0  0  2  0  0  0  0  0  0  0  0  0
   -7.4443    5.7385  -13.3754 C   0  0  0  0  0  0  0  0  0  0  0  0
   -8.5734    5.4462  -13.4958 O   0  0  0  0  0  0  0  0  0  0  0  0
   -6.3108    5.8790  -14.4514 N   0  0  0  0  0  0  0  0  0  0  0  0
   -6.3219    5.6111  -15.7887 C   0  0  0  0  0  0  0  0  0  0  0  0
   -7.4876    5.0070  -16.4181 C   0  0  0  0  0  0  0  0  0  0  0  0
   -7.4663    4.7043  -17.7326 C   0  0  0  0  0  0  0  0  0  0  0  0
   -9.0158    4.0851  -18.5709 Br  0  0  0  0  0  0  0  0  0  0  0  0
   -6.2946    4.9660  -18.4578 N   0  0  0  0  0  0  0  0  0  0  0  0
   -5.9237    4.6765  -19.7475 C   0  0  0  0  0  0  0  0  0  0  0  0
   -4.7546    5.3557  -19.9779 C   0  0  0  0  0  0  0  0  0  0  0  0
   -4.3047    5.9453  -18.8305 N   0  0  0  0  0  0  0  0  0  0  0  0
   -5.2019    5.6368  -17.9140 C   0  0  0  0  0  0  0  0  0  0  0  0
   -5.2312    5.9113  -16.5223 C   0  0  0  0  0  0  0  0  0  0  0  0
  1  2  1  0
  2  3  1  0
  3  4  1  0
  4  5  2  0
  6  4  1  1
  6  7  1  0
  7  8  1  0
  8  9  1  1
  8 10  1  0
  8 11  1  0
 11 12  1  0
 12 13  1  6
 13 14  2  0
 13 15  1  0
 15 16  1  0
 16 17  1  0
 17 18  2  0
 18 19  1  0
 18 20  1  0
 20 21  1  0
 21 22  2  0
 22 23  1  0
 23 24  2  0
 24 25  1  0
 10  6  1  0
 25 16  2  0
 12  6  1  0
 24 20  1  0
M  END
>  <energy_score>  (5061) 
-62.270586

>  <alias>  (5061) 
OWTJDCBNFSPIFO-UHFFFAOYSA-N-P64-P64-P84-601532

>  <HIPPO Pose ID>  (5061) 
89629

>  <smiles>  (5061) 
CCOC(=O)C12CC(C)(C1)OC2C(=O)Nc1cc(Br)n2ccnc2c1

>  <inchikey>  (5061) 
OWTJDCBNFSPIFO-UHFFFAOYSA-N

>  <distance_score>  (5061) 
1.438788

>  <ref_mols>  (5061) 
Z1046b,Z1495a

>  <ref_pdb>  (5061) 
Z0089a

>  <HIPPO Compound ID>  (5061) 
139281

>  <name>  (5061) 
OWTJDCBNFSPIFO-UHFFFAOYSA-N-P64-P64-P84-601532

>  <inspiration_score>  (5061) 
None

$$$$
ZXDGVQGYBOTGJB-UHFFFAOYSA-N-P64-P64-P84-601532
     RDKit          3D

 25 28  0  0  0  0  0  0  0  0999 V2000
   -8.2835    2.1735   -8.5342 C   0  0  0  0  0  0  0  0  0  0  0  0
   -8.1213    2.8507   -9.8741 C   0  0  0  0  0  0  0  0  0  0  0  0
   -6.7265    3.1169  -10.1107 O   0  0  0  0  0  0  0  0  0  0  0  0
   -6.3823    4.0118  -11.0764 C   0  0  0  0  0  0  0  0  0  0  0  0
   -5.4305    3.8093  -11.8372 O   0  0  0  0  0  0  0  0  0  0  0  0
   -7.1373    5.3231  -11.1378 C   0  0  1  0  0  0  0  0  0  0  0  0
   -7.5322    6.0794   -9.7957 C   0  0  0  0  0  0  0  0  0  0  0  0
   -7.7214    7.2182  -10.8469 C   0  0  1  0  0  0  0  0  0  0  0  0
   -7.8767    8.6461  -10.4198 C   0  0  0  0  0  0  0  0  0  0  0  0
   -6.3574    6.6746  -11.4060 C   0  0  0  0  0  0  0  0  0  0  0  0
   -8.7565    6.7827  -11.7634 O   0  0  0  0  0  0  0  0  0  0  0  0
   -8.3797    5.4067  -12.0365 C   0  0  1  0  0  0  0  0  0  0  0  0
   -8.3997    5.2487  -13.5689 C   0  0  0  0  0  0  0  0  0  0  0  0
   -9.3796    5.5305  -14.1506 O   0  0  0  0  0  0  0  0  0  0  0  0
   -7.0011    4.8103  -14.0994 N   0  0  0  0  0  0  0  0  0  0  0  0
   -6.5241    4.7265  -15.3737 C   0  0  0  0  0  0  0  0  0  0  0  0
   -7.4102    4.8610  -16.5295 C   0  0  0  0  0  0  0  0  0  0  0  0
   -6.8790    5.0748  -17.7503 C   0  0  0  0  0  0  0  0  0  0  0  0
   -5.4925    5.1255  -17.8791 N   0  0  0  0  0  0  0  0  0  0  0  0
   -4.6801    5.4967  -18.9186 C   0  0  0  0  0  0  0  0  0  0  0  0
   -5.1144    6.2585  -20.5849 Br  0  0  0  0  0  0  0  0  0  0  0  0
   -3.3911    5.3172  -18.4875 C   0  0  0  0  0  0  0  0  0  0  0  0
   -3.3593    4.9325  -17.1823 N   0  0  0  0  0  0  0  0  0  0  0  0
   -4.6232    4.8518  -16.8227 C   0  0  0  0  0  0  0  0  0  0  0  0
   -5.1898    4.6351  -15.5415 C   0  0  0  0  0  0  0  0  0  0  0  0
  1  2  1  0
  2  3  1  0
  3  4  1  0
  4  5  2  0
  6  4  1  1
  6  7  1  0
  7  8  1  0
  8  9  1  1
  8 10  1  0
  8 11  1  0
 11 12  1  0
 12 13  1  6
 13 14  2  0
 13 15  1  0
 15 16  1  0
 16 17  1  0
 17 18  2  0
 18 19  1  0
 19 20  1  0
 20 21  1  0
 20 22  2  0
 22 23  1  0
 23 24  2  0
 24 25  1  0
 10  6  1  0
 25 16  2  0
 12  6  1  0
 24 19  1  0
M  END
>  <energy_score>  (5062) 
-44.22793

>  <alias>  (5062) 
ZXDGVQGYBOTGJB-UHFFFAOYSA-N-P64-P64-P84-601532

>  <HIPPO Pose ID>  (5062) 
89631

>  <smiles>  (5062) 
CCOC(=O)C12CC(C)(C1)OC2C(=O)Nc1ccn2c(Br)cnc2c1

>  <inchikey>  (5062) 
ZXDGVQGYBOTGJB-UHFFFAOYSA-N

>  <distance_score>  (5062) 
1.561045

>  <ref_mols>  (5062) 
Z1046b,Z1495a

>  <ref_pdb>  (5062) 
Z0089a

>  <HIPPO Compound ID>  (5062) 
139282

>  <name>  (5062) 
ZXDGVQGYBOTGJB-UHFFFAOYSA-N-P64-P64-P84-601532

>  <inspiration_score>  (5062) 
None

$$$$
JWRRYVZDRLDRDN-UHFFFAOYSA-N-P84-P64-P84-601532
     RDKit          3D

 25 28  0  0  0  0  0  0  0  0999 V2000
   -8.1129    2.0226   -8.0918 C   0  0  0  0  0  0  0  0  0  0  0  0
   -9.3645    2.5887   -8.7007 C   0  0  0  0  0  0  0  0  0  0  0  0
   -9.0789    3.9348   -9.0913 O   0  0  0  0  0  0  0  0  0  0  0  0
   -8.6543    4.0801  -10.3765 C   0  0  0  0  0  0  0  0  0  0  0  0
   -8.6732    3.1907  -11.2229 O   0  0  0  0  0  0  0  0  0  0  0  0
   -8.0514    5.4465  -10.6115 C   0  0  2  0  0  0  0  0  0  0  0  0
   -7.2371    6.1287   -9.4348 C   0  0  0  0  0  0  0  0  0  0  0  0
   -7.3091    7.2961  -10.4748 C   0  0  2  0  0  0  0  0  0  0  0  0
   -6.9843    8.7060  -10.0837 C   0  0  0  0  0  0  0  0  0  0  0  0
   -8.8001    6.8173  -10.6271 C   0  0  0  0  0  0  0  0  0  0  0  0
   -6.5809    6.8469  -11.6500 O   0  0  0  0  0  0  0  0  0  0  0  0
   -7.0753    5.4986  -11.7913 C   0  0  2  0  0  0  0  0  0  0  0  0
   -7.6422    5.3280  -13.2124 C   0  0  0  0  0  0  0  0  0  0  0  0
   -8.7590    5.4547  -13.5429 O   0  0  0  0  0  0  0  0  0  0  0  0
   -6.3564    5.0584  -14.0652 N   0  0  0  0  0  0  0  0  0  0  0  0
   -6.1894    4.9910  -15.4130 C   0  0  0  0  0  0  0  0  0  0  0  0
   -7.2950    4.9900  -16.3680 C   0  0  0  0  0  0  0  0  0  0  0  0
   -7.0232    5.1553  -17.6808 C   0  0  0  0  0  0  0  0  0  0  0  0
   -5.6951    5.3040  -18.0799 N   0  0  0  0  0  0  0  0  0  0  0  0
   -5.1453    5.6359  -19.2897 C   0  0  0  0  0  0  0  0  0  0  0  0
   -3.7939    5.6586  -19.0695 C   0  0  0  0  0  0  0  0  0  0  0  0
   -2.8801    5.9509  -19.9924 O   0  0  0  0  0  0  0  0  0  0  0  0
   -3.4607    5.3867  -17.7935 N   0  0  0  0  0  0  0  0  0  0  0  0
   -4.6211    5.2003  -17.2060 C   0  0  0  0  0  0  0  0  0  0  0  0
   -4.9125    5.0167  -15.8413 C   0  0  0  0  0  0  0  0  0  0  0  0
  1  2  1  0
  2  3  1  0
  3  4  1  0
  4  5  2  0
  6  4  1  1
  6  7  1  0
  7  8  1  0
  8  9  1  1
  8 10  1  0
  8 11  1  0
 11 12  1  0
 12 13  1  6
 13 14  2  0
 13 15  1  0
 15 16  1  0
 16 17  1  0
 17 18  2  0
 18 19  1  0
 19 20  1  0
 20 21  2  0
 21 22  1  0
 21 23  1  0
 23 24  2  0
 24 25  1  0
 10  6  1  0
 25 16  2  0
 12  6  1  0
 24 19  1  0
M  END
>  <energy_score>  (5063) 
-65.888818

>  <alias>  (5063) 
JWRRYVZDRLDRDN-UHFFFAOYSA-N-P84-P64-P84-601532

>  <HIPPO Pose ID>  (5063) 
89634

>  <smiles>  (5063) 
CCOC(=O)C12CC(C)(C1)OC2C(=O)Nc1ccn2cc(O)nc2c1

>  <inchikey>  (5063) 
JWRRYVZDRLDRDN-UHFFFAOYSA-N

>  <distance_score>  (5063) 
1.506773

>  <ref_mols>  (5063) 
Z1046b,Z1495a

>  <ref_pdb>  (5063) 
Z0089a

>  <HIPPO Compound ID>  (5063) 
139283

>  <name>  (5063) 
JWRRYVZDRLDRDN-UHFFFAOYSA-N-P84-P64-P84-601532

>  <inspiration_score>  (5063) 
None

$$$$
SZMGJEHWYYQCNK-UHFFFAOYSA-N-P64-P64-P84-601532
     RDKit          3D

 25 27  0  0  0  0  0  0  0  0999 V2000
   -2.9357    7.3695  -16.4618 C   0  0  0  0  0  0  0  0  0  0  0  0
   -3.4693    5.9640  -16.1425 C   0  0  0  0  0  0  0  0  0  0  0  0
   -2.6696    5.3873  -14.9688 C   0  0  0  0  0  0  0  0  0  0  0  0
   -3.2366    5.1327  -17.4112 C   0  0  0  0  0  0  0  0  0  0  0  0
   -4.8242    6.1115  -15.6263 O   0  0  0  0  0  0  0  0  0  0  0  0
   -5.8013    5.1661  -16.0905 C   0  0  1  0  0  0  0  0  0  0  0  0
   -6.9741    4.7806  -15.1585 C   0  0  0  0  0  0  0  0  0  0  0  0
   -7.8203    4.0398  -15.4797 O   0  0  0  0  0  0  0  0  0  0  0  0
   -6.7043    5.4712  -13.7889 N   0  0  0  0  0  0  0  0  0  0  0  0
   -7.3279    5.3238  -12.5856 C   0  0  0  0  0  0  0  0  0  0  0  0
   -7.0386    6.2824  -11.5255 C   0  0  0  0  0  0  0  0  0  0  0  0
   -7.4053    5.9971  -10.2616 C   0  0  0  0  0  0  0  0  0  0  0  0
   -8.0198    4.7759   -9.9939 N   0  0  0  0  0  0  0  0  0  0  0  0
   -8.3307    4.1903   -8.7938 C   0  0  0  0  0  0  0  0  0  0  0  0
   -8.7386    2.9253   -9.1305 C   0  0  0  0  0  0  0  0  0  0  0  0
   -8.9955    1.9602   -8.2476 O   0  0  0  0  0  0  0  0  0  0  0  0
   -8.7859    2.7349  -10.4719 N   0  0  0  0  0  0  0  0  0  0  0  0
   -8.3507    3.8618  -10.9854 C   0  0  0  0  0  0  0  0  0  0  0  0
   -8.0476    4.2093  -12.3300 C   0  0  0  0  0  0  0  0  0  0  0  0
   -6.2265    5.5667  -17.4844 C   0  0  0  0  0  0  0  0  0  0  0  0
   -6.4166    4.5697  -18.4292 C   0  0  0  0  0  0  0  0  0  0  0  0
   -6.0673    4.8165  -19.7443 C   0  0  0  0  0  0  0  0  0  0  0  0
   -5.6727    6.0926  -20.1430 C   0  0  0  0  0  0  0  0  0  0  0  0
   -5.7147    7.1455  -19.2455 C   0  0  0  0  0  0  0  0  0  0  0  0
   -6.0222    6.8790  -17.9169 C   0  0  0  0  0  0  0  0  0  0  0  0
  1  2  1  0
  2  3  1  0
  2  4  1  0
  2  5  1  0
  6  5  1  1
  6  7  1  0
  7  8  2  0
  7  9  1  0
  9 10  1  0
 10 11  1  0
 11 12  2  0
 12 13  1  0
 13 14  1  0
 14 15  2  0
 15 16  1  0
 15 17  1  0
 17 18  2  0
 18 19  1  0
  6 20  1  0
 20 21  2  0
 21 22  1  0
 22 23  2  0
 23 24  1  0
 24 25  2  0
 19 10  2  0
 25 20  1  0
 18 13  1  0
M  END
>  <energy_score>  (5064) 
-43.245678

>  <alias>  (5064) 
SZMGJEHWYYQCNK-UHFFFAOYSA-N-P64-P64-P84-601532

>  <HIPPO Pose ID>  (5064) 
89645

>  <smiles>  (5064) 
CC(C)(C)OC(C(=O)Nc1ccn2cc(O)nc2c1)c1ccccc1

>  <inchikey>  (5064) 
SZMGJEHWYYQCNK-UHFFFAOYSA-N

>  <distance_score>  (5064) 
1.90988

>  <ref_mols>  (5064) 
Z1046b,Z1495a

>  <ref_pdb>  (5064) 
Z0089a

>  <HIPPO Compound ID>  (5064) 
139289

>  <name>  (5064) 
SZMGJEHWYYQCNK-UHFFFAOYSA-N-P64-P64-P84-601532

>  <inspiration_score>  (5064) 
None

$$$$
SULAOQZLZJXNEQ-UHFFFAOYSA-N-P84-P64-P84-601532
     RDKit          3D

 25 27  0  0  0  0  0  0  0  0999 V2000
   -3.6211    4.4660  -17.2130 C   0  0  0  0  0  0  0  0  0  0  0  0
   -3.5010    5.9170  -16.7612 C   0  0  0  0  0  0  0  0  0  0  0  0
   -2.6214    6.0480  -15.5122 C   0  0  0  0  0  0  0  0  0  0  0  0
   -2.8090    6.6873  -17.9074 C   0  0  0  0  0  0  0  0  0  0  0  0
   -4.7379    6.6067  -16.5571 O   0  0  0  0  0  0  0  0  0  0  0  0
   -5.8280    6.0651  -15.8218 C   0  0  2  0  0  0  0  0  0  0  0  0
   -5.7268    5.2188  -14.4748 C   0  0  0  0  0  0  0  0  0  0  0  0
   -5.0800    4.2439  -14.3774 O   0  0  0  0  0  0  0  0  0  0  0  0
   -6.7106    5.8976  -13.4467 N   0  0  0  0  0  0  0  0  0  0  0  0
   -7.1310    5.4815  -12.2205 C   0  0  0  0  0  0  0  0  0  0  0  0
   -7.7531    6.4767  -11.3511 C   0  0  0  0  0  0  0  0  0  0  0  0
   -8.1482    6.1154  -10.1165 C   0  0  0  0  0  0  0  0  0  0  0  0
   -8.0216    4.7831   -9.7216 N   0  0  0  0  0  0  0  0  0  0  0  0
   -8.2707    4.1690   -8.5183 C   0  0  0  0  0  0  0  0  0  0  0  0
   -8.7269    4.9632   -6.8553 Br  0  0  0  0  0  0  0  0  0  0  0  0
   -8.0614    2.8275   -8.7316 C   0  0  0  0  0  0  0  0  0  0  0  0
   -7.6103    2.6077  -10.0072 N   0  0  0  0  0  0  0  0  0  0  0  0
   -7.5456    3.7907  -10.5696 C   0  0  0  0  0  0  0  0  0  0  0  0
   -7.0571    4.1891  -11.8435 C   0  0  0  0  0  0  0  0  0  0  0  0
   -6.8480    5.3638  -16.7381 C   0  0  0  0  0  0  0  0  0  0  0  0
   -6.6124    5.2360  -18.1080 C   0  0  0  0  0  0  0  0  0  0  0  0
   -7.4839    4.5236  -18.9045 C   0  0  0  0  0  0  0  0  0  0  0  0
   -8.6794    4.0640  -18.3837 C   0  0  0  0  0  0  0  0  0  0  0  0
   -8.9825    4.2354  -17.0455 C   0  0  0  0  0  0  0  0  0  0  0  0
   -8.0566    4.8511  -16.2199 C   0  0  0  0  0  0  0  0  0  0  0  0
  1  2  1  0
  2  3  1  0
  2  4  1  0
  2  5  1  0
  6  5  1  6
  6  7  1  0
  7  8  2  0
  7  9  1  0
  9 10  1  0
 10 11  1  0
 11 12  2  0
 12 13  1  0
 13 14  1  0
 14 15  1  0
 14 16  2  0
 16 17  1  0
 17 18  2  0
 18 19  1  0
  6 20  1  0
 20 21  2  0
 21 22  1  0
 22 23  2  0
 23 24  1  0
 24 25  2  0
 19 10  2  0
 25 20  1  0
 18 13  1  0
M  END
>  <energy_score>  (5065) 
-31.961725

>  <alias>  (5065) 
SULAOQZLZJXNEQ-UHFFFAOYSA-N-P84-P64-P84-601532

>  <HIPPO Pose ID>  (5065) 
89648

>  <smiles>  (5065) 
CC(C)(C)OC(C(=O)Nc1ccn2c(Br)cnc2c1)c1ccccc1

>  <inchikey>  (5065) 
SULAOQZLZJXNEQ-UHFFFAOYSA-N

>  <distance_score>  (5065) 
1.819618

>  <ref_mols>  (5065) 
Z1046b,Z1495a

>  <ref_pdb>  (5065) 
Z0089a

>  <HIPPO Compound ID>  (5065) 
139290

>  <name>  (5065) 
SULAOQZLZJXNEQ-UHFFFAOYSA-N-P84-P64-P84-601532

>  <inspiration_score>  (5065) 
None

$$$$
FZCIDINPEATDIT-UHFFFAOYSA-N-P84-P64-P84-601532
     RDKit          3D

 25 27  0  0  0  0  0  0  0  0999 V2000
   -8.8800    2.1360   -7.2673 C   0  0  0  0  0  0  0  0  0  0  0  0
   -8.6043    3.0990   -8.3519 C   0  0  0  0  0  0  0  0  0  0  0  0
   -8.6888    4.4768   -8.3615 C   0  0  0  0  0  0  0  0  0  0  0  0
   -8.3361    4.8626   -9.6337 N   0  0  0  0  0  0  0  0  0  0  0  0
   -8.3234    6.1289  -10.2286 C   0  0  0  0  0  0  0  0  0  0  0  0
   -7.8638    6.2627  -11.4885 C   0  0  0  0  0  0  0  0  0  0  0  0
   -7.3186    5.0837  -12.1486 C   0  0  0  0  0  0  0  0  0  0  0  0
   -6.6403    5.2384  -13.3102 N   0  0  0  0  0  0  0  0  0  0  0  0
   -5.5653    4.3397  -13.9802 C   0  0  0  0  0  0  0  0  0  0  0  0
   -5.0437    3.3612  -13.5926 O   0  0  0  0  0  0  0  0  0  0  0  0
   -5.2312    4.8909  -15.3686 C   0  0  2  0  0  0  0  0  0  0  0  0
   -4.2512    5.9296  -15.4016 O   0  0  0  0  0  0  0  0  0  0  0  0
   -3.1129    5.7304  -16.2771 C   0  0  0  0  0  0  0  0  0  0  0  0
   -2.0320    5.0828  -15.4080 C   0  0  0  0  0  0  0  0  0  0  0  0
   -3.3179    4.9344  -17.5851 C   0  0  0  0  0  0  0  0  0  0  0  0
   -2.6261    7.1243  -16.7124 C   0  0  0  0  0  0  0  0  0  0  0  0
   -6.4005    5.2823  -16.2805 C   0  0  0  0  0  0  0  0  0  0  0  0
   -6.2704    6.4705  -17.0150 C   0  0  0  0  0  0  0  0  0  0  0  0
   -6.5038    6.4457  -18.3720 C   0  0  0  0  0  0  0  0  0  0  0  0
   -6.9673    5.2653  -18.9156 C   0  0  0  0  0  0  0  0  0  0  0  0
   -7.5106    4.2671  -18.1191 C   0  0  0  0  0  0  0  0  0  0  0  0
   -7.2526    4.2870  -16.7579 C   0  0  0  0  0  0  0  0  0  0  0  0
   -7.4135    3.8608  -11.5933 C   0  0  0  0  0  0  0  0  0  0  0  0
   -7.9642    3.7093  -10.3017 C   0  0  0  0  0  0  0  0  0  0  0  0
   -8.1653    2.6444   -9.5666 N   0  0  0  0  0  0  0  0  0  0  0  0
  1  2  1  0
  2  3  2  0
  3  4  1  0
  4  5  1  0
  5  6  2  0
  6  7  1  0
  7  8  1  0
  8  9  1  0
  9 10  2  0
  9 11  1  0
 11 12  1  1
 12 13  1  0
 13 14  1  0
 13 15  1  0
 13 16  1  0
 11 17  1  0
 17 18  2  0
 18 19  1  0
 19 20  2  0
 20 21  1  0
 21 22  2  0
  7 23  2  0
 23 24  1  0
 24 25  2  0
 25  2  1  0
 24  4  1  0
 22 17  1  0
M  END
>  <energy_score>  (5066) 
-5.75234

>  <alias>  (5066) 
FZCIDINPEATDIT-UHFFFAOYSA-N-P84-P64-P84-601532

>  <HIPPO Pose ID>  (5066) 
89650

>  <smiles>  (5066) 
Cc1cn2ccc(NC(=O)C(OC(C)(C)C)c3ccccc3)cc2n1

>  <inchikey>  (5066) 
FZCIDINPEATDIT-UHFFFAOYSA-N

>  <distance_score>  (5066) 
1.696765

>  <ref_mols>  (5066) 
Z1046b,Z1495a

>  <ref_pdb>  (5066) 
Z0089a

>  <HIPPO Compound ID>  (5066) 
139291

>  <name>  (5066) 
FZCIDINPEATDIT-UHFFFAOYSA-N-P84-P64-P84-601532

>  <inspiration_score>  (5066) 
None

$$$$
HCHHBITZWBRPAW-UHFFFAOYSA-N-P84-P64-P84-601532
     RDKit          3D

 25 28  0  0  0  0  0  0  0  0999 V2000
   -8.2407    1.4884   -7.8370 C   0  0  0  0  0  0  0  0  0  0  0  0
   -8.1371    2.5802   -8.7380 O   0  0  0  0  0  0  0  0  0  0  0  0
   -7.0483    2.6270   -9.5522 C   0  0  0  0  0  0  0  0  0  0  0  0
   -6.0686    1.8865   -9.4970 O   0  0  0  0  0  0  0  0  0  0  0  0
   -7.2470    3.6987  -10.6127 C   0  0  2  0  0  0  0  0  0  0  0  0
   -8.3543    3.3979  -11.7054 C   0  0  0  0  0  0  0  0  0  0  0  0
   -7.6161    4.5890  -12.3789 C   0  0  2  0  0  0  0  0  0  0  0  0
   -7.8443    4.8913  -13.9027 C   0  0  0  0  0  0  0  0  0  0  0  0
   -8.8324    5.3957  -14.2896 O   0  0  0  0  0  0  0  0  0  0  0  0
   -6.5379    4.5050  -14.6688 N   0  0  0  0  0  0  0  0  0  0  0  0
   -6.1689    4.7334  -15.9627 C   0  0  0  0  0  0  0  0  0  0  0  0
   -4.7088    4.7288  -16.1261 C   0  0  0  0  0  0  0  0  0  0  0  0
   -4.1602    5.1402  -17.2754 C   0  0  0  0  0  0  0  0  0  0  0  0
   -4.9926    5.6324  -18.2597 N   0  0  0  0  0  0  0  0  0  0  0  0
   -4.6399    6.2796  -19.4114 C   0  0  0  0  0  0  0  0  0  0  0  0
   -5.8134    6.8048  -19.8837 C   0  0  0  0  0  0  0  0  0  0  0  0
   -6.8568    6.4959  -19.0499 N   0  0  0  0  0  0  0  0  0  0  0  0
   -6.3766    5.6560  -18.1554 C   0  0  0  0  0  0  0  0  0  0  0  0
   -6.9679    4.9887  -17.0277 C   0  0  0  0  0  0  0  0  0  0  0  0
   -8.7391    4.4087  -17.2083 Br  0  0  0  0  0  0  0  0  0  0  0  0
   -6.3444    3.7847  -11.8769 C   0  0  0  0  0  0  0  0  0  0  0  0
   -7.7592    5.7429  -11.4815 O   0  0  0  0  0  0  0  0  0  0  0  0
   -7.4629    5.1703  -10.1941 C   0  0  0  0  0  0  0  0  0  0  0  0
   -8.5986    5.3484   -9.2114 C   0  0  0  0  0  0  0  0  0  0  0  0
   -6.2341    5.8647   -9.6471 C   0  0  0  0  0  0  0  0  0  0  0  0
  1  2  1  0
  2  3  1  0
  3  4  2  0
  5  3  1  1
  5  6  1  0
  6  7  1  0
  7  8  1  6
  8  9  2  0
  8 10  1  0
 10 11  1  0
 11 12  1  0
 12 13  2  0
 13 14  1  0
 14 15  1  0
 15 16  2  0
 16 17  1  0
 17 18  2  0
 18 19  1  0
 19 20  1  0
  7 21  1  0
  7 22  1  0
 22 23  1  0
 23 24  1  0
 23 25  1  0
 21  5  1  0
 23  5  1  0
 19 11  2  0
 18 14  1  0
M  END
>  <energy_score>  (5067) 
-35.028011

>  <alias>  (5067) 
HCHHBITZWBRPAW-UHFFFAOYSA-N-P84-P64-P84-601532

>  <HIPPO Pose ID>  (5067) 
89654

>  <smiles>  (5067) 
COC(=O)C12CC(C(=O)Nc3ccn4ccnc4c3Br)(C1)OC2(C)C

>  <inchikey>  (5067) 
HCHHBITZWBRPAW-UHFFFAOYSA-N

>  <distance_score>  (5067) 
1.357077

>  <ref_mols>  (5067) 
Z1046b,Z1495a

>  <ref_pdb>  (5067) 
Z0089a

>  <HIPPO Compound ID>  (5067) 
139293

>  <name>  (5067) 
HCHHBITZWBRPAW-UHFFFAOYSA-N-P84-P64-P84-601532

>  <inspiration_score>  (5067) 
None

$$$$
YAIWHTVZMLPWNQ-UHFFFAOYSA-N-P84-P64-P84-601532
     RDKit          3D

 25 28  0  0  0  0  0  0  0  0999 V2000
   -9.4501    3.1965   -5.8696 C   0  0  0  0  0  0  0  0  0  0  0  0
   -9.7096    2.3495   -7.0805 C   0  0  0  0  0  0  0  0  0  0  0  0
  -10.2002    1.2289   -6.9865 O   0  0  0  0  0  0  0  0  0  0  0  0
   -9.4093    2.9006   -8.2821 O   0  0  0  0  0  0  0  0  0  0  0  0
   -8.5673    4.0662   -8.4077 C   0  0  0  0  0  0  0  0  0  0  0  0
   -7.9326    4.1385   -9.7963 C   0  0  2  0  0  0  0  0  0  0  0  0
   -7.3443    2.8083  -10.2595 C   0  0  0  0  0  0  0  0  0  0  0  0
   -7.3225    2.9602  -11.7686 C   0  0  0  0  0  0  0  0  0  0  0  0
   -7.8028    4.3998  -11.9629 C   0  0  2  0  0  0  0  0  0  0  0  0
   -8.0997    4.7544  -13.4620 C   0  0  0  0  0  0  0  0  0  0  0  0
   -9.0921    5.2569  -13.8406 O   0  0  0  0  0  0  0  0  0  0  0  0
   -6.7756    4.3899  -14.2431 N   0  0  0  0  0  0  0  0  0  0  0  0
   -6.4081    4.6466  -15.5384 C   0  0  0  0  0  0  0  0  0  0  0  0
   -4.9420    4.6685  -15.6842 C   0  0  0  0  0  0  0  0  0  0  0  0
   -4.3769    5.0446  -16.8377 C   0  0  0  0  0  0  0  0  0  0  0  0
   -5.1960    5.4665  -17.8628 N   0  0  0  0  0  0  0  0  0  0  0  0
   -4.8295    6.0493  -19.0437 C   0  0  0  0  0  0  0  0  0  0  0  0
   -6.0056    6.4905  -19.5873 C   0  0  0  0  0  0  0  0  0  0  0  0
   -7.0682    6.1822  -18.7771 N   0  0  0  0  0  0  0  0  0  0  0  0
   -6.5815    5.4618  -17.7887 C   0  0  0  0  0  0  0  0  0  0  0  0
   -7.1884    4.8682  -16.6258 C   0  0  0  0  0  0  0  0  0  0  0  0
   -8.9685    4.3327  -16.8106 Br  0  0  0  0  0  0  0  0  0  0  0  0
   -6.7583    5.4023  -11.4226 C   0  0  0  0  0  0  0  0  0  0  0  0
   -6.9066    5.2665   -9.9118 C   0  0  0  0  0  0  0  0  0  0  0  0
   -8.7853    4.4919  -10.9146 O   0  0  0  0  0  0  0  0  0  0  0  0
  1  2  1  0
  2  3  2  0
  2  4  1  0
  4  5  1  0
  6  5  1  1
  6  7  1  0
  7  8  1  0
  8  9  1  0
  9 10  1  6
 10 11  2  0
 10 12  1  0
 12 13  1  0
 13 14  1  0
 14 15  2  0
 15 16  1  0
 16 17  1  0
 17 18  2  0
 18 19  1  0
 19 20  2  0
 20 21  1  0
 21 22  1  0
  9 23  1  0
 23 24  1  0
  9 25  1  0
 24  6  1  0
 25  6  1  0
 21 13  2  0
 20 16  1  0
M  END
>  <energy_score>  (5068) 
-17.398795

>  <alias>  (5068) 
YAIWHTVZMLPWNQ-UHFFFAOYSA-N-P84-P64-P84-601532

>  <HIPPO Pose ID>  (5068) 
89660

>  <smiles>  (5068) 
CC(=O)OCC12CCC(C(=O)Nc3ccn4ccnc4c3Br)(CC1)O2

>  <inchikey>  (5068) 
YAIWHTVZMLPWNQ-UHFFFAOYSA-N

>  <distance_score>  (5068) 
1.341812

>  <ref_mols>  (5068) 
Z1046b,Z1495a

>  <ref_pdb>  (5068) 
Z0089a

>  <HIPPO Compound ID>  (5068) 
139296

>  <name>  (5068) 
YAIWHTVZMLPWNQ-UHFFFAOYSA-N-P84-P64-P84-601532

>  <inspiration_score>  (5068) 
None

$$$$
NCHRSCPONSIZJC-UHFFFAOYSA-N-P84-P64-P84-601532
     RDKit          3D

 25 28  0  0  0  0  0  0  0  0999 V2000
   -9.8731    3.0941   -6.1460 C   0  0  0  0  0  0  0  0  0  0  0  0
   -8.6283    2.6199   -6.8393 C   0  0  0  0  0  0  0  0  0  0  0  0
   -8.1919    1.4873   -6.7082 O   0  0  0  0  0  0  0  0  0  0  0  0
   -8.0062    3.5626   -7.5970 O   0  0  0  0  0  0  0  0  0  0  0  0
   -8.8211    4.1445   -8.6191 C   0  0  0  0  0  0  0  0  0  0  0  0
   -8.0604    4.2533   -9.9264 C   0  0  2  0  0  0  0  0  0  0  0  0
   -7.5155    2.9107  -10.4005 C   0  0  0  0  0  0  0  0  0  0  0  0
   -7.3564    3.1339  -11.8924 C   0  0  0  0  0  0  0  0  0  0  0  0
   -7.8498    4.5761  -12.0675 C   0  0  2  0  0  0  0  0  0  0  0  0
   -8.1930    4.8892  -13.5551 C   0  0  0  0  0  0  0  0  0  0  0  0
   -9.2364    5.2617  -13.9410 O   0  0  0  0  0  0  0  0  0  0  0  0
   -6.8385    4.6835  -14.3240 N   0  0  0  0  0  0  0  0  0  0  0  0
   -6.5495    4.7973  -15.6460 C   0  0  0  0  0  0  0  0  0  0  0  0
   -7.5850    4.9260  -16.6633 C   0  0  0  0  0  0  0  0  0  0  0  0
   -7.2215    5.2066  -17.9308 C   0  0  0  0  0  0  0  0  0  0  0  0
   -5.8695    5.3653  -18.2250 N   0  0  0  0  0  0  0  0  0  0  0  0
   -5.2461    5.8195  -19.3575 C   0  0  0  0  0  0  0  0  0  0  0  0
   -3.9064    5.8085  -19.0595 C   0  0  0  0  0  0  0  0  0  0  0  0
   -2.9562    6.2167  -19.9061 O   0  0  0  0  0  0  0  0  0  0  0  0
   -3.6616    5.3646  -17.8055 N   0  0  0  0  0  0  0  0  0  0  0  0
   -4.8565    5.1489  -17.3020 C   0  0  0  0  0  0  0  0  0  0  0  0
   -5.2439    4.8313  -15.9816 C   0  0  0  0  0  0  0  0  0  0  0  0
   -6.8361    5.5712  -11.4728 C   0  0  0  0  0  0  0  0  0  0  0  0
   -6.9878    5.3402   -9.9677 C   0  0  0  0  0  0  0  0  0  0  0  0
   -8.8668    4.6502  -11.0603 O   0  0  0  0  0  0  0  0  0  0  0  0
  1  2  1  0
  2  3  2  0
  2  4  1  0
  4  5  1  0
  6  5  1  1
  6  7  1  0
  7  8  1  0
  8  9  1  0
  9 10  1  6
 10 11  2  0
 10 12  1  0
 12 13  1  0
 13 14  1  0
 14 15  2  0
 15 16  1  0
 16 17  1  0
 17 18  2  0
 18 19  1  0
 18 20  1  0
 20 21  2  0
 21 22  1  0
  9 23  1  0
 23 24  1  0
  9 25  1  0
 24  6  1  0
 25  6  1  0
 22 13  2  0
 21 16  1  0
M  END
>  <energy_score>  (5069) 
-19.518837

>  <alias>  (5069) 
NCHRSCPONSIZJC-UHFFFAOYSA-N-P84-P64-P84-601532

>  <HIPPO Pose ID>  (5069) 
89666

>  <smiles>  (5069) 
CC(=O)OCC12CCC(C(=O)Nc3ccn4cc(O)nc4c3)(CC1)O2

>  <inchikey>  (5069) 
NCHRSCPONSIZJC-UHFFFAOYSA-N

>  <distance_score>  (5069) 
1.222306

>  <ref_mols>  (5069) 
Z1046b,Z1495a

>  <ref_pdb>  (5069) 
Z0089a

>  <HIPPO Compound ID>  (5069) 
139299

>  <name>  (5069) 
NCHRSCPONSIZJC-UHFFFAOYSA-N-P84-P64-P84-601532

>  <inspiration_score>  (5069) 
None

$$$$
NQMWEWPDNPCBCH-UHFFFAOYSA-N-P84-P64-P84-601532
     RDKit          3D

 25 28  0  0  0  0  0  0  0  0999 V2000
   -9.3814    2.2125   -6.4827 C   0  0  0  0  0  0  0  0  0  0  0  0
   -9.1360    3.6405   -6.8555 C   0  0  0  0  0  0  0  0  0  0  0  0
   -9.6540    4.6047   -6.3064 O   0  0  0  0  0  0  0  0  0  0  0  0
   -8.3037    3.6946   -7.9263 O   0  0  0  0  0  0  0  0  0  0  0  0
   -8.2037    4.9667   -8.5756 C   0  0  0  0  0  0  0  0  0  0  0  0
   -7.7548    4.7513  -10.0126 C   0  0  2  0  0  0  0  0  0  0  0  0
   -8.3297    3.5132  -10.7123 C   0  0  0  0  0  0  0  0  0  0  0  0
   -8.2089    3.8864  -12.1867 C   0  0  0  0  0  0  0  0  0  0  0  0
   -7.5353    5.2572  -12.1219 C   0  0  2  0  0  0  0  0  0  0  0  0
   -7.5069    6.1569  -13.3905 C   0  0  0  0  0  0  0  0  0  0  0  0
   -7.6123    7.3232  -13.3266 O   0  0  0  0  0  0  0  0  0  0  0  0
   -7.2198    5.2304  -14.6205 N   0  0  0  0  0  0  0  0  0  0  0  0
   -6.9301    5.5426  -15.9113 C   0  0  0  0  0  0  0  0  0  0  0  0
   -6.9158    4.4606  -16.8846 C   0  0  0  0  0  0  0  0  0  0  0  0
   -6.1327    4.5866  -17.9703 C   0  0  0  0  0  0  0  0  0  0  0  0
   -5.4701    5.7851  -18.1781 N   0  0  0  0  0  0  0  0  0  0  0  0
   -4.3488    6.1151  -18.8886 C   0  0  0  0  0  0  0  0  0  0  0  0
   -2.8920    5.0090  -19.3423 Br  0  0  0  0  0  0  0  0  0  0  0  0
   -4.3342    7.4863  -18.9405 C   0  0  0  0  0  0  0  0  0  0  0  0
   -5.2527    7.9997  -18.0610 N   0  0  0  0  0  0  0  0  0  0  0  0
   -5.7752    6.9384  -17.4766 C   0  0  0  0  0  0  0  0  0  0  0  0
   -6.4490    6.7571  -16.2392 C   0  0  0  0  0  0  0  0  0  0  0  0
   -6.0816    5.0754  -11.6578 C   0  0  0  0  0  0  0  0  0  0  0  0
   -6.2377    4.7759  -10.1728 C   0  0  0  0  0  0  0  0  0  0  0  0
   -8.1293    5.8115  -10.9268 O   0  0  0  0  0  0  0  0  0  0  0  0
  1  2  1  0
  2  3  2  0
  2  4  1  0
  4  5  1  0
  6  5  1  1
  6  7  1  0
  7  8  1  0
  8  9  1  0
  9 10  1  6
 10 11  2  0
 10 12  1  0
 12 13  1  0
 13 14  1  0
 14 15  2  0
 15 16  1  0
 16 17  1  0
 17 18  1  0
 17 19  2  0
 19 20  1  0
 20 21  2  0
 21 22  1  0
  9 23  1  0
 23 24  1  0
  9 25  1  0
 24  6  1  0
 25  6  1  0
 22 13  2  0
 21 16  1  0
M  END
>  <energy_score>  (5070) 
-13.046981

>  <alias>  (5070) 
NQMWEWPDNPCBCH-UHFFFAOYSA-N-P84-P64-P84-601532

>  <HIPPO Pose ID>  (5070) 
89672

>  <smiles>  (5070) 
CC(=O)OCC12CCC(C(=O)Nc3ccn4c(Br)cnc4c3)(CC1)O2

>  <inchikey>  (5070) 
NQMWEWPDNPCBCH-UHFFFAOYSA-N

>  <distance_score>  (5070) 
1.546369

>  <ref_mols>  (5070) 
Z1046b,Z1495a

>  <ref_pdb>  (5070) 
Z0089a

>  <HIPPO Compound ID>  (5070) 
139302

>  <name>  (5070) 
NQMWEWPDNPCBCH-UHFFFAOYSA-N-P84-P64-P84-601532

>  <inspiration_score>  (5070) 
None

$$$$
AIDBSEPTFLEFCA-UHFFFAOYSA-N-P84-P64-P84-601532
     RDKit          3D

 26 28  0  0  0  0  0  0  0  0999 V2000
   -5.7231    6.4807  -19.1668 C   0  0  0  0  0  0  0  0  0  0  0  0
   -4.4930    6.6095  -18.2671 C   0  0  0  0  0  0  0  0  0  0  0  0
   -3.3699    5.6443  -18.6664 C   0  0  0  0  0  0  0  0  0  0  0  0
   -3.9656    8.0290  -18.4887 C   0  0  0  0  0  0  0  0  0  0  0  0
   -4.6800    6.5093  -16.8488 O   0  0  0  0  0  0  0  0  0  0  0  0
   -5.7238    5.7386  -16.2919 C   0  0  1  0  0  0  0  0  0  0  0  0
   -5.9469    4.3623  -16.9527 C   0  0  0  0  0  0  0  0  0  0  0  0
   -7.4018    4.1689  -17.2211 C   0  0  0  0  0  0  0  0  0  0  0  0
   -7.9200    4.2588  -18.5119 C   0  0  0  0  0  0  0  0  0  0  0  0
   -9.2784    4.3656  -18.7075 C   0  0  0  0  0  0  0  0  0  0  0  0
  -10.1261    4.2947  -17.6235 C   0  0  0  0  0  0  0  0  0  0  0  0
   -9.6075    4.0778  -16.3585 C   0  0  0  0  0  0  0  0  0  0  0  0
   -8.2564    3.9883  -16.1481 C   0  0  0  0  0  0  0  0  0  0  0  0
   -5.4741    5.3376  -14.7919 C   0  0  0  0  0  0  0  0  0  0  0  0
   -4.5091    4.7546  -14.4626 O   0  0  0  0  0  0  0  0  0  0  0  0
   -6.7398    5.7585  -13.9634 N   0  0  0  0  0  0  0  0  0  0  0  0
   -7.0869    5.4788  -12.6742 C   0  0  0  0  0  0  0  0  0  0  0  0
   -7.9206    6.4218  -11.9371 C   0  0  0  0  0  0  0  0  0  0  0  0
   -8.3711    6.0823  -10.7129 C   0  0  0  0  0  0  0  0  0  0  0  0
   -8.1191    4.8009  -10.2219 N   0  0  0  0  0  0  0  0  0  0  0  0
   -8.5205    4.1983   -9.0580 C   0  0  0  0  0  0  0  0  0  0  0  0
   -8.1689    2.8823   -9.2127 C   0  0  0  0  0  0  0  0  0  0  0  0
   -8.5206    1.9125   -8.3660 O   0  0  0  0  0  0  0  0  0  0  0  0
   -7.4507    2.6726  -10.3468 N   0  0  0  0  0  0  0  0  0  0  0  0
   -7.4003    3.8491  -10.9318 C   0  0  0  0  0  0  0  0  0  0  0  0
   -6.8152    4.2581  -12.1620 C   0  0  0  0  0  0  0  0  0  0  0  0
  1  2  1  0
  2  3  1  0
  2  4  1  0
  2  5  1  0
  5  6  1  0
  6  7  1  6
  7  8  1  0
  8  9  2  0
  9 10  1  0
 10 11  2  0
 11 12  1  0
 12 13  2  0
  6 14  1  0
 14 15  2  0
 14 16  1  0
 16 17  1  0
 17 18  1  0
 18 19  2  0
 19 20  1  0
 20 21  1  0
 21 22  2  0
 22 23  1  0
 22 24  1  0
 24 25  2  0
 25 26  1  0
 13  8  1  0
 26 17  2  0
 25 20  1  0
M  END
>  <energy_score>  (5071) 
-27.908936

>  <alias>  (5071) 
AIDBSEPTFLEFCA-UHFFFAOYSA-N-P84-P64-P84-601532

>  <HIPPO Pose ID>  (5071) 
89674

>  <smiles>  (5071) 
CC(C)(C)OC(Cc1ccccc1)C(=O)Nc1ccn2cc(O)nc2c1

>  <inchikey>  (5071) 
AIDBSEPTFLEFCA-UHFFFAOYSA-N

>  <distance_score>  (5071) 
1.681809

>  <ref_mols>  (5071) 
Z1046b,Z1495a

>  <ref_pdb>  (5071) 
Z0089a

>  <HIPPO Compound ID>  (5071) 
139303

>  <name>  (5071) 
AIDBSEPTFLEFCA-UHFFFAOYSA-N-P84-P64-P84-601532

>  <inspiration_score>  (5071) 
None

$$$$
RHJUNSNFNRVQSB-UHFFFAOYSA-N-P64-P64-P84-601532
     RDKit          3D

 26 28  0  0  0  0  0  0  0  0999 V2000
   -3.3191    5.7169  -17.3717 C   0  0  0  0  0  0  0  0  0  0  0  0
   -4.4638    6.3517  -18.1550 C   0  0  0  0  0  0  0  0  0  0  0  0
   -4.8640    5.5159  -19.3759 C   0  0  0  0  0  0  0  0  0  0  0  0
   -3.9733    7.6817  -18.7498 C   0  0  0  0  0  0  0  0  0  0  0  0
   -5.5529    6.7517  -17.3296 O   0  0  0  0  0  0  0  0  0  0  0  0
   -6.1244    5.9708  -16.3015 C   0  0  1  0  0  0  0  0  0  0  0  0
   -6.2264    4.4660  -16.5948 C   0  0  0  0  0  0  0  0  0  0  0  0
   -7.5862    4.2012  -17.1649 C   0  0  0  0  0  0  0  0  0  0  0  0
   -7.8931    4.3904  -18.5108 C   0  0  0  0  0  0  0  0  0  0  0  0
   -9.1957    4.2962  -18.9662 C   0  0  0  0  0  0  0  0  0  0  0  0
  -10.2063    4.0419  -18.0767 C   0  0  0  0  0  0  0  0  0  0  0  0
   -9.8878    3.7967  -16.7623 C   0  0  0  0  0  0  0  0  0  0  0  0
   -8.6000    3.8398  -16.3012 C   0  0  0  0  0  0  0  0  0  0  0  0
   -5.7793    6.2170  -14.7717 C   0  0  0  0  0  0  0  0  0  0  0  0
   -4.7989    6.7249  -14.3721 O   0  0  0  0  0  0  0  0  0  0  0  0
   -6.9975    5.5889  -13.9875 N   0  0  0  0  0  0  0  0  0  0  0  0
   -7.1832    5.3939  -12.6502 C   0  0  0  0  0  0  0  0  0  0  0  0
   -6.5731    6.2621  -11.6590 C   0  0  0  0  0  0  0  0  0  0  0  0
   -6.8156    6.0380  -10.3517 C   0  0  0  0  0  0  0  0  0  0  0  0
   -7.5955    4.9435   -9.9699 N   0  0  0  0  0  0  0  0  0  0  0  0
   -7.9273    4.4539   -8.7303 C   0  0  0  0  0  0  0  0  0  0  0  0
   -7.4941    5.1753   -7.0302 Br  0  0  0  0  0  0  0  0  0  0  0  0
   -8.6201    3.2876   -8.9564 C   0  0  0  0  0  0  0  0  0  0  0  0
   -8.7844    3.0762  -10.3019 N   0  0  0  0  0  0  0  0  0  0  0  0
   -8.1713    4.0784  -10.8891 C   0  0  0  0  0  0  0  0  0  0  0  0
   -7.9860    4.3745  -12.2650 C   0  0  0  0  0  0  0  0  0  0  0  0
  1  2  1  0
  2  3  1  0
  2  4  1  0
  2  5  1  0
  5  6  1  0
  6  7  1  6
  7  8  1  0
  8  9  2  0
  9 10  1  0
 10 11  2  0
 11 12  1  0
 12 13  2  0
  6 14  1  0
 14 15  2  0
 14 16  1  0
 16 17  1  0
 17 18  1  0
 18 19  2  0
 19 20  1  0
 20 21  1  0
 21 22  1  0
 21 23  2  0
 23 24  1  0
 24 25  2  0
 25 26  1  0
 13  8  1  0
 26 17  2  0
 25 20  1  0
M  END
>  <energy_score>  (5072) 
-1.524095

>  <alias>  (5072) 
RHJUNSNFNRVQSB-UHFFFAOYSA-N-P64-P64-P84-601532

>  <HIPPO Pose ID>  (5072) 
89679

>  <smiles>  (5072) 
CC(C)(C)OC(Cc1ccccc1)C(=O)Nc1ccn2c(Br)cnc2c1

>  <inchikey>  (5072) 
RHJUNSNFNRVQSB-UHFFFAOYSA-N

>  <distance_score>  (5072) 
1.743824

>  <ref_mols>  (5072) 
Z1046b,Z1495a

>  <ref_pdb>  (5072) 
Z0089a

>  <HIPPO Compound ID>  (5072) 
139306

>  <name>  (5072) 
RHJUNSNFNRVQSB-UHFFFAOYSA-N-P64-P64-P84-601532

>  <inspiration_score>  (5072) 
None

$$$$
XWDXKTRIFNAKHJ-UHFFFAOYSA-N-P84-P64-P84-601532
     RDKit          3D

 26 29  0  0  0  0  0  0  0  0999 V2000
   -4.9624    5.1954  -12.8917 O   0  0  0  0  0  0  0  0  0  0  0  0
   -6.0755    4.9699  -13.1831 C   0  0  0  0  0  0  0  0  0  0  0  0
   -6.7256    4.7205  -14.5857 N   0  0  0  0  0  0  0  0  0  0  0  0
   -6.1899    4.7888  -15.8262 C   0  0  0  0  0  0  0  0  0  0  0  0
   -7.0986    4.8428  -16.9654 C   0  0  0  0  0  0  0  0  0  0  0  0
   -6.5981    5.2149  -18.1560 C   0  0  0  0  0  0  0  0  0  0  0  0
   -5.2267    5.4463  -18.2638 N   0  0  0  0  0  0  0  0  0  0  0  0
   -4.4883    6.0594  -19.2325 C   0  0  0  0  0  0  0  0  0  0  0  0
   -5.1338    7.0869  -20.6662 Br  0  0  0  0  0  0  0  0  0  0  0  0
   -3.1712    5.9392  -18.8709 C   0  0  0  0  0  0  0  0  0  0  0  0
   -3.0649    5.3644  -17.6414 N   0  0  0  0  0  0  0  0  0  0  0  0
   -4.3121    5.1787  -17.2513 C   0  0  0  0  0  0  0  0  0  0  0  0
   -4.8541    4.8733  -15.9825 C   0  0  0  0  0  0  0  0  0  0  0  0
   -7.2051    4.8099  -12.1290 C   0  0  1  0  0  0  0  0  0  0  0  0
   -7.8661    3.4467  -12.3233 C   0  0  0  0  0  0  0  0  0  0  0  0
   -8.5199    2.9234  -11.0784 C   0  0  0  0  0  0  0  0  0  0  0  0
   -7.5137    2.9622   -9.9607 C   0  0  0  0  0  0  0  0  0  0  0  0
   -7.0948    4.4211   -9.6918 C   0  0  0  0  0  0  0  0  0  0  0  0
   -8.2336    5.3058   -9.1784 C   0  0  0  0  0  0  0  0  0  0  0  0
   -8.8239    4.7844   -7.8708 C   0  0  0  0  0  0  0  0  0  0  0  0
   -7.8041    4.1819   -6.9278 C   0  0  0  0  0  0  0  0  0  0  0  0
   -7.8872    2.8332   -6.9937 F   0  0  0  0  0  0  0  0  0  0  0  0
   -8.1432    4.5159   -5.6509 F   0  0  0  0  0  0  0  0  0  0  0  0
   -6.4045    4.6972   -7.2085 C   0  0  0  0  0  0  0  0  0  0  0  0
   -5.9457    4.4520   -8.6494 C   0  0  0  0  0  0  0  0  0  0  0  0
   -6.5608    5.0161  -10.8724 O   0  0  0  0  0  0  0  0  0  0  0  0
  1  2  2  0
  2  3  1  0
  3  4  1  0
  4  5  1  0
  5  6  2  0
  6  7  1  0
  7  8  1  0
  8  9  1  0
  8 10  2  0
 10 11  1  0
 11 12  2  0
 12 13  1  0
 14  2  1  6
 14 15  1  0
 15 16  1  0
 16 17  1  0
 17 18  1  0
 18 19  1  0
 19 20  1  0
 20 21  1  0
 21 22  1  0
 21 23  1  0
 21 24  1  0
 24 25  1  0
 18 26  1  0
 13  4  2  0
 26 14  1  0
 12  7  1  0
 25 18  1  0
M  END
>  <energy_score>  (5073) 
-13.276535

>  <alias>  (5073) 
XWDXKTRIFNAKHJ-UHFFFAOYSA-N-P84-P64-P84-601532

>  <HIPPO Pose ID>  (5073) 
89690

>  <smiles>  (5073) 
O=C(Nc1ccn2c(Br)cnc2c1)C1CCCC2(CCC(F)(F)CC2)O1

>  <inchikey>  (5073) 
XWDXKTRIFNAKHJ-UHFFFAOYSA-N

>  <distance_score>  (5073) 
1.809451

>  <ref_mols>  (5073) 
Z1046b,Z1495a

>  <ref_pdb>  (5073) 
Z0089a

>  <HIPPO Compound ID>  (5073) 
139311

>  <name>  (5073) 
XWDXKTRIFNAKHJ-UHFFFAOYSA-N-P84-P64-P84-601532

>  <inspiration_score>  (5073) 
None

$$$$
KUBJCMJOZFCRPI-UHFFFAOYSA-N-P64-P64-P84-601532
     RDKit          3D

 26 29  0  0  0  0  0  0  0  0999 V2000
   -9.1019    2.0124   -6.7537 C   0  0  0  0  0  0  0  0  0  0  0  0
   -8.6498    1.7347   -8.1668 C   0  0  0  0  0  0  0  0  0  0  0  0
   -7.5812    2.5533   -8.6577 O   0  0  0  0  0  0  0  0  0  0  0  0
   -7.8145    3.8822   -8.7216 C   0  0  0  0  0  0  0  0  0  0  0  0
   -8.3224    4.5470   -7.8206 O   0  0  0  0  0  0  0  0  0  0  0  0
   -7.4657    4.4307  -10.0977 C   0  0  1  0  0  0  0  0  0  0  0  0
   -7.1565    3.5039  -11.3533 C   0  0  0  0  0  0  0  0  0  0  0  0
   -7.6113    4.8397  -12.0576 C   0  0  1  0  0  0  0  0  0  0  0  0
   -8.0131    4.8352  -13.5728 C   0  0  0  0  0  0  0  0  0  0  0  0
   -9.1074    4.8338  -13.9891 O   0  0  0  0  0  0  0  0  0  0  0  0
   -6.6561    4.8317  -14.3179 N   0  0  0  0  0  0  0  0  0  0  0  0
   -6.3773    4.9163  -15.6455 C   0  0  0  0  0  0  0  0  0  0  0  0
   -7.3917    4.7203  -16.6789 C   0  0  0  0  0  0  0  0  0  0  0  0
   -7.0325    4.8118  -17.9768 C   0  0  0  0  0  0  0  0  0  0  0  0
   -5.7077    5.1096  -18.2921 N   0  0  0  0  0  0  0  0  0  0  0  0
   -5.0850    5.2964  -19.5019 C   0  0  0  0  0  0  0  0  0  0  0  0
   -3.7889    5.6299  -19.1834 C   0  0  0  0  0  0  0  0  0  0  0  0
   -2.8514    5.9395  -20.0825 O   0  0  0  0  0  0  0  0  0  0  0  0
   -3.5667    5.6327  -17.8506 N   0  0  0  0  0  0  0  0  0  0  0  0
   -4.7266    5.3095  -17.3312 C   0  0  0  0  0  0  0  0  0  0  0  0
   -5.0989    5.1741  -15.9790 C   0  0  0  0  0  0  0  0  0  0  0  0
   -8.7047    4.7846  -10.9707 C   0  0  0  0  0  0  0  0  0  0  0  0
   -6.6506    5.8793  -11.6608 O   0  0  0  0  0  0  0  0  0  0  0  0
   -6.5330    5.6536  -10.2370 C   0  0  0  0  0  0  0  0  0  0  0  0
   -5.0869    5.3207   -9.8815 C   0  0  0  0  0  0  0  0  0  0  0  0
   -6.9926    6.8951   -9.4789 C   0  0  0  0  0  0  0  0  0  0  0  0
  1  2  1  0
  2  3  1  0
  3  4  1  0
  4  5  2  0
  6  4  1  1
  6  7  1  0
  7  8  1  0
  8  9  1  6
  9 10  2  0
  9 11  1  0
 11 12  1  0
 12 13  1  0
 13 14  2  0
 14 15  1  0
 15 16  1  0
 16 17  2  0
 17 18  1  0
 17 19  1  0
 19 20  2  0
 20 21  1  0
  8 22  1  0
  8 23  1  0
 23 24  1  0
 24 25  1  0
 24 26  1  0
 22  6  1  0
 24  6  1  0
 21 12  2  0
 20 15  1  0
M  END
>  <energy_score>  (5074) 
-62.162324

>  <alias>  (5074) 
KUBJCMJOZFCRPI-UHFFFAOYSA-N-P64-P64-P84-601532

>  <HIPPO Pose ID>  (5074) 
89691

>  <smiles>  (5074) 
CCOC(=O)C12CC(C(=O)Nc3ccn4cc(O)nc4c3)(C1)OC2(C)C

>  <inchikey>  (5074) 
KUBJCMJOZFCRPI-UHFFFAOYSA-N

>  <distance_score>  (5074) 
1.430096

>  <ref_mols>  (5074) 
Z1046b,Z1495a

>  <ref_pdb>  (5074) 
Z0089a

>  <HIPPO Compound ID>  (5074) 
139312

>  <name>  (5074) 
KUBJCMJOZFCRPI-UHFFFAOYSA-N-P64-P64-P84-601532

>  <inspiration_score>  (5074) 
None

$$$$
HCGXCZSICZDBQJ-UHFFFAOYSA-N-P64-P64-P84-601532
     RDKit          3D

 26 29  0  0  0  0  0  0  0  0999 V2000
   -9.4084    1.7314   -7.1745 C   0  0  0  0  0  0  0  0  0  0  0  0
   -8.9361    2.3235   -8.4796 C   0  0  0  0  0  0  0  0  0  0  0  0
   -8.8825    3.7474   -8.3273 O   0  0  0  0  0  0  0  0  0  0  0  0
   -7.6565    4.2722   -8.5890 C   0  0  0  0  0  0  0  0  0  0  0  0
   -6.8863    4.5676   -7.6762 O   0  0  0  0  0  0  0  0  0  0  0  0
   -7.3996    4.5468  -10.0767 C   0  0  2  0  0  0  0  0  0  0  0  0
   -8.4271    4.1548  -11.2159 C   0  0  0  0  0  0  0  0  0  0  0  0
   -7.1539    4.4365  -12.0705 C   0  0  2  0  0  0  0  0  0  0  0  0
   -7.0903    3.9536  -13.5593 C   0  0  0  0  0  0  0  0  0  0  0  0
   -7.3364    2.8631  -13.9037 O   0  0  0  0  0  0  0  0  0  0  0  0
   -6.6198    5.1855  -14.3793 N   0  0  0  0  0  0  0  0  0  0  0  0
   -6.2833    5.2972  -15.6997 C   0  0  0  0  0  0  0  0  0  0  0  0
   -5.0856    6.1091  -15.9126 C   0  0  0  0  0  0  0  0  0  0  0  0
   -4.5745    6.2363  -17.1430 C   0  0  0  0  0  0  0  0  0  0  0  0
   -5.1961    5.5912  -18.1949 N   0  0  0  0  0  0  0  0  0  0  0  0
   -4.8039    5.5550  -19.5035 C   0  0  0  0  0  0  0  0  0  0  0  0
   -5.6933    4.7080  -20.1090 C   0  0  0  0  0  0  0  0  0  0  0  0
   -6.6491    4.2794  -19.2241 N   0  0  0  0  0  0  0  0  0  0  0  0
   -6.3537    4.8336  -18.0658 C   0  0  0  0  0  0  0  0  0  0  0  0
   -6.9449    4.7530  -16.7557 C   0  0  0  0  0  0  0  0  0  0  0  0
   -8.7033    4.1090  -16.6764 Br  0  0  0  0  0  0  0  0  0  0  0  0
   -6.4688    3.5941  -10.9225 C   0  0  0  0  0  0  0  0  0  0  0  0
   -6.8106    5.8570  -11.8617 O   0  0  0  0  0  0  0  0  0  0  0  0
   -6.9586    5.9964  -10.4355 C   0  0  0  0  0  0  0  0  0  0  0  0
   -5.6130    6.4033   -9.8396 C   0  0  0  0  0  0  0  0  0  0  0  0
   -8.0169    7.0475  -10.1202 C   0  0  0  0  0  0  0  0  0  0  0  0
  1  2  1  0
  2  3  1  0
  3  4  1  0
  4  5  2  0
  6  4  1  1
  6  7  1  0
  7  8  1  0
  8  9  1  6
  9 10  2  0
  9 11  1  0
 11 12  1  0
 12 13  1  0
 13 14  2  0
 14 15  1  0
 15 16  1  0
 16 17  2  0
 17 18  1  0
 18 19  2  0
 19 20  1  0
 20 21  1  0
  8 22  1  0
  8 23  1  0
 23 24  1  0
 24 25  1  0
 24 26  1  0
 22  6  1  0
 24  6  1  0
 20 12  2  0
 19 15  1  0
M  END
>  <energy_score>  (5075) 
-37.079783

>  <alias>  (5075) 
HCGXCZSICZDBQJ-UHFFFAOYSA-N-P64-P64-P84-601532

>  <HIPPO Pose ID>  (5075) 
89693

>  <smiles>  (5075) 
CCOC(=O)C12CC(C(=O)Nc3ccn4ccnc4c3Br)(C1)OC2(C)C

>  <inchikey>  (5075) 
HCGXCZSICZDBQJ-UHFFFAOYSA-N

>  <distance_score>  (5075) 
1.584817

>  <ref_mols>  (5075) 
Z1046b,Z1495a

>  <ref_pdb>  (5075) 
Z0089a

>  <HIPPO Compound ID>  (5075) 
139313

>  <name>  (5075) 
HCGXCZSICZDBQJ-UHFFFAOYSA-N-P64-P64-P84-601532

>  <inspiration_score>  (5075) 
None

$$$$
PZALTQWIGXCNMR-UHFFFAOYSA-N-P64-P64-P84-601532
     RDKit          3D

 26 29  0  0  0  0  0  0  0  0999 V2000
   -9.1602    1.7692   -6.3558 C   0  0  0  0  0  0  0  0  0  0  0  0
   -9.5792    1.8541   -7.7898 C   0  0  0  0  0  0  0  0  0  0  0  0
   -8.5322    2.3645   -8.6029 O   0  0  0  0  0  0  0  0  0  0  0  0
   -8.3747    3.7133   -8.6286 C   0  0  0  0  0  0  0  0  0  0  0  0
   -8.8019    4.4807   -7.7702 O   0  0  0  0  0  0  0  0  0  0  0  0
   -7.6876    4.1115   -9.9296 C   0  0  1  0  0  0  0  0  0  0  0  0
   -6.6960    3.1102  -10.6621 C   0  0  0  0  0  0  0  0  0  0  0  0
   -7.0967    4.0396  -11.8400 C   0  0  1  0  0  0  0  0  0  0  0  0
   -6.9800    3.5812  -13.3063 C   0  0  0  0  0  0  0  0  0  0  0  0
   -7.4362    2.5714  -13.6773 O   0  0  0  0  0  0  0  0  0  0  0  0
   -6.2879    4.7141  -14.0917 N   0  0  0  0  0  0  0  0  0  0  0  0
   -6.1073    4.8777  -15.4219 C   0  0  0  0  0  0  0  0  0  0  0  0
   -7.1909    4.4334  -16.2864 C   0  0  0  0  0  0  0  0  0  0  0  0
   -7.1039    4.5960  -17.6180 C   0  0  0  0  0  0  0  0  0  0  0  0
   -8.5860    4.2209  -18.6821 Br  0  0  0  0  0  0  0  0  0  0  0  0
   -5.9032    5.0974  -18.1378 N   0  0  0  0  0  0  0  0  0  0  0  0
   -5.4564    5.2473  -19.4253 C   0  0  0  0  0  0  0  0  0  0  0  0
   -4.1872    5.7620  -19.3345 C   0  0  0  0  0  0  0  0  0  0  0  0
   -3.8208    5.9631  -18.0353 N   0  0  0  0  0  0  0  0  0  0  0  0
   -4.8526    5.5504  -17.3289 C   0  0  0  0  0  0  0  0  0  0  0  0
   -5.0216    5.4884  -15.9205 C   0  0  0  0  0  0  0  0  0  0  0  0
   -8.5260    3.8700  -11.2278 C   0  0  0  0  0  0  0  0  0  0  0  0
   -6.6585    5.4090  -11.5087 O   0  0  0  0  0  0  0  0  0  0  0  0
   -7.0683    5.5188  -10.1199 C   0  0  0  0  0  0  0  0  0  0  0  0
   -5.8487    5.7455   -9.2316 C   0  0  0  0  0  0  0  0  0  0  0  0
   -8.0524    6.6742   -9.9795 C   0  0  0  0  0  0  0  0  0  0  0  0
  1  2  1  0
  2  3  1  0
  3  4  1  0
  4  5  2  0
  6  4  1  1
  6  7  1  0
  7  8  1  0
  8  9  1  6
  9 10  2  0
  9 11  1  0
 11 12  1  0
 12 13  1  0
 13 14  2  0
 14 15  1  0
 14 16  1  0
 16 17  1  0
 17 18  2  0
 18 19  1  0
 19 20  2  0
 20 21  1  0
  8 22  1  0
  8 23  1  0
 23 24  1  0
 24 25  1  0
 24 26  1  0
 22  6  1  0
 24  6  1  0
 21 12  2  0
 20 16  1  0
M  END
>  <energy_score>  (5076) 
-52.010157

>  <alias>  (5076) 
PZALTQWIGXCNMR-UHFFFAOYSA-N-P64-P64-P84-601532

>  <HIPPO Pose ID>  (5076) 
89701

>  <smiles>  (5076) 
CCOC(=O)C12CC(C(=O)Nc3cc(Br)n4ccnc4c3)(C1)OC2(C)C

>  <inchikey>  (5076) 
PZALTQWIGXCNMR-UHFFFAOYSA-N

>  <distance_score>  (5076) 
1.768595

>  <ref_mols>  (5076) 
Z1046b,Z1495a

>  <ref_pdb>  (5076) 
Z0089a

>  <HIPPO Compound ID>  (5076) 
139317

>  <name>  (5076) 
PZALTQWIGXCNMR-UHFFFAOYSA-N-P64-P64-P84-601532

>  <inspiration_score>  (5076) 
None

$$$$
AMNBQFXKOMBFDT-UHFFFAOYSA-N-P64-P64-P84-601532
     RDKit          3D

 28 31  0  0  0  0  0  0  0  0999 V2000
   -6.6382    4.4345   -3.4771 C   0  0  0  0  0  0  0  0  0  0  0  0
   -7.8767    5.0490   -4.1428 C   0  0  0  0  0  0  0  0  0  0  0  0
   -9.0520    4.0773   -3.9865 C   0  0  0  0  0  0  0  0  0  0  0  0
   -8.1594    6.4034   -3.4816 C   0  0  0  0  0  0  0  0  0  0  0  0
   -7.4991    5.2079   -5.5349 O   0  0  0  0  0  0  0  0  0  0  0  0
   -8.3918    5.7133   -6.4273 C   0  0  0  0  0  0  0  0  0  0  0  0
   -9.4583    6.0788   -6.1583 O   0  0  0  0  0  0  0  0  0  0  0  0
   -7.6574    5.7089   -7.7576 N   0  0  0  0  0  0  0  0  0  0  0  0
   -8.0391    6.2420   -9.0388 C   0  0  0  0  0  0  0  0  0  0  0  0
   -7.7878    5.2233  -10.1232 C   0  0  2  0  0  0  0  0  0  0  0  0
   -7.4615    3.6833   -9.9168 C   0  0  0  0  0  0  0  0  0  0  0  0
   -7.0167    3.8972  -11.4161 C   0  0  2  0  0  0  0  0  0  0  0  0
   -6.3897    5.2197  -10.8444 C   0  0  0  0  0  0  0  0  0  0  0  0
   -8.3427    4.2675  -12.0814 C   0  0  2  0  0  0  0  0  0  0  0  0
   -8.4791    4.7403  -13.5293 C   0  0  0  0  0  0  0  0  0  0  0  0
   -9.5484    4.9984  -13.9410 O   0  0  0  0  0  0  0  0  0  0  0  0
   -7.0973    4.6946  -14.2587 N   0  0  0  0  0  0  0  0  0  0  0  0
   -6.7868    4.8536  -15.5764 C   0  0  0  0  0  0  0  0  0  0  0  0
   -7.8645    4.5906  -16.5133 C   0  0  0  0  0  0  0  0  0  0  0  0
   -7.6329    4.5475  -17.8346 C   0  0  0  0  0  0  0  0  0  0  0  0
   -9.0507    4.1293  -18.9578 Br  0  0  0  0  0  0  0  0  0  0  0  0
   -6.3465    4.8518  -18.2923 N   0  0  0  0  0  0  0  0  0  0  0  0
   -5.7901    4.8509  -19.5479 C   0  0  0  0  0  0  0  0  0  0  0  0
   -4.5577    5.4375  -19.4263 C   0  0  0  0  0  0  0  0  0  0  0  0
   -4.2667    5.6805  -18.1116 N   0  0  0  0  0  0  0  0  0  0  0  0
   -5.3172    5.2526  -17.4352 C   0  0  0  0  0  0  0  0  0  0  0  0
   -5.5540    5.1577  -16.0276 C   0  0  0  0  0  0  0  0  0  0  0  0
   -8.7586    5.3117  -11.1971 O   0  0  0  0  0  0  0  0  0  0  0  0
  1  2  1  0
  2  3  1  0
  2  4  1  0
  2  5  1  0
  5  6  1  0
  6  7  2  0
  6  8  1  0
  8  9  1  0
 10  9  1  1
 10 11  1  0
 12 11  1  1
 12 13  1  0
 12 14  1  0
 14 15  1  6
 15 16  2  0
 15 17  1  0
 17 18  1  0
 18 19  1  0
 19 20  2  0
 20 21  1  0
 20 22  1  0
 22 23  1  0
 23 24  2  0
 24 25  1  0
 25 26  2  0
 26 27  1  0
 14 28  1  0
 13 10  1  0
 27 18  2  0
 28 10  1  0
 26 22  1  0
M  END
>  <energy_score>  (5077) 
-40.34824

>  <alias>  (5077) 
AMNBQFXKOMBFDT-UHFFFAOYSA-N-P64-P64-P84-601532

>  <HIPPO Pose ID>  (5077) 
89707

>  <smiles>  (5077) 
CC(C)(C)OC(=O)NCC12CC(C1)C(C(=O)Nc1cc(Br)n3ccnc3c1)O2

>  <inchikey>  (5077) 
AMNBQFXKOMBFDT-UHFFFAOYSA-N

>  <distance_score>  (5077) 
1.916367

>  <ref_mols>  (5077) 
Z1046b,Z1495a

>  <ref_pdb>  (5077) 
Z0089a

>  <HIPPO Compound ID>  (5077) 
139320

>  <name>  (5077) 
AMNBQFXKOMBFDT-UHFFFAOYSA-N-P64-P64-P84-601532

>  <inspiration_score>  (5077) 
None

$$$$
HQADRXOFEUVWAT-UHFFFAOYSA-N-P84-P64-P84-601532
     RDKit          3D

 28 31  0  0  0  0  0  0  0  0999 V2000
  -10.1623    3.2848   -5.2359 C   0  0  0  0  0  0  0  0  0  0  0  0
   -8.8895    4.1073   -5.4706 C   0  0  0  0  0  0  0  0  0  0  0  0
   -9.2263    5.5146   -5.9744 C   0  0  0  0  0  0  0  0  0  0  0  0
   -8.1306    4.2557   -4.1465 C   0  0  0  0  0  0  0  0  0  0  0  0
   -7.9388    3.4983   -6.3849 O   0  0  0  0  0  0  0  0  0  0  0  0
   -8.3372    3.0634   -7.6129 C   0  0  0  0  0  0  0  0  0  0  0  0
   -9.4409    2.8794   -7.9160 O   0  0  0  0  0  0  0  0  0  0  0  0
   -7.0604    2.9947   -8.4415 N   0  0  0  0  0  0  0  0  0  0  0  0
   -6.8697    2.7749   -9.8575 C   0  0  0  0  0  0  0  0  0  0  0  0
   -7.3359    3.9919  -10.6235 C   0  0  1  0  0  0  0  0  0  0  0  0
   -8.7625    4.5100  -10.2805 C   0  0  0  0  0  0  0  0  0  0  0  0
   -8.2758    5.6700  -11.1795 C   0  0  1  0  0  0  0  0  0  0  0  0
   -6.9457    5.5005  -10.3478 C   0  0  0  0  0  0  0  0  0  0  0  0
   -8.0552    4.9624  -12.5216 C   0  0  1  0  0  0  0  0  0  0  0  0
   -7.3889    5.8790  -13.5496 C   0  0  0  0  0  0  0  0  0  0  0  0
   -7.0009    6.9550  -13.2984 O   0  0  0  0  0  0  0  0  0  0  0  0
   -7.4230    5.1083  -14.9054 N   0  0  0  0  0  0  0  0  0  0  0  0
   -6.9315    5.4483  -16.1257 C   0  0  0  0  0  0  0  0  0  0  0  0
   -6.9495    4.4465  -17.1807 C   0  0  0  0  0  0  0  0  0  0  0  0
   -6.0985    4.5941  -18.2125 C   0  0  0  0  0  0  0  0  0  0  0  0
   -5.3488    5.7574  -18.2969 N   0  0  0  0  0  0  0  0  0  0  0  0
   -4.1847    6.0806  -18.9392 C   0  0  0  0  0  0  0  0  0  0  0  0
   -2.7503    4.9515  -19.4010 Br  0  0  0  0  0  0  0  0  0  0  0  0
   -4.1072    7.4503  -18.8993 C   0  0  0  0  0  0  0  0  0  0  0  0
   -5.0324    7.9469  -18.0201 N   0  0  0  0  0  0  0  0  0  0  0  0
   -5.6162    6.8735  -17.5246 C   0  0  0  0  0  0  0  0  0  0  0  0
   -6.3493    6.6453  -16.3351 C   0  0  0  0  0  0  0  0  0  0  0  0
   -7.2980    3.8269  -12.0839 O   0  0  0  0  0  0  0  0  0  0  0  0
  1  2  1  0
  2  3  1  0
  2  4  1  0
  2  5  1  0
  5  6  1  0
  6  7  2  0
  6  8  1  0
  8  9  1  0
 10  9  1  1
 10 11  1  0
 12 11  1  1
 12 13  1  0
 12 14  1  0
 14 15  1  6
 15 16  2  0
 15 17  1  0
 17 18  1  0
 18 19  1  0
 19 20  2  0
 20 21  1  0
 21 22  1  0
 22 23  1  0
 22 24  2  0
 24 25  1  0
 25 26  2  0
 26 27  1  0
 14 28  1  0
 13 10  1  0
 27 18  2  0
 28 10  1  0
 26 21  1  0
M  END
>  <energy_score>  (5078) 
-13.766812

>  <alias>  (5078) 
HQADRXOFEUVWAT-UHFFFAOYSA-N-P84-P64-P84-601532

>  <HIPPO Pose ID>  (5078) 
89710

>  <smiles>  (5078) 
CC(C)(C)OC(=O)NCC12CC(C1)C(C(=O)Nc1ccn3c(Br)cnc3c1)O2

>  <inchikey>  (5078) 
HQADRXOFEUVWAT-UHFFFAOYSA-N

>  <distance_score>  (5078) 
1.592287

>  <ref_mols>  (5078) 
Z1046b,Z1495a

>  <ref_pdb>  (5078) 
Z0089a

>  <HIPPO Compound ID>  (5078) 
139321

>  <name>  (5078) 
HQADRXOFEUVWAT-UHFFFAOYSA-N-P84-P64-P84-601532

>  <inspiration_score>  (5078) 
None

$$$$
CLTOEDHRMKDURM-UHFFFAOYSA-N-P84-P64-P84-601532
     RDKit          3D

 28 31  0  0  0  0  0  0  0  0999 V2000
   -8.6627    2.0903   -7.2706 C   0  0  0  0  0  0  0  0  0  0  0  0
   -8.4321    3.0846   -8.3371 C   0  0  0  0  0  0  0  0  0  0  0  0
   -8.4422    4.4646   -8.2835 C   0  0  0  0  0  0  0  0  0  0  0  0
   -8.2635    4.8814   -9.5781 N   0  0  0  0  0  0  0  0  0  0  0  0
   -8.2855    6.1673  -10.1173 C   0  0  0  0  0  0  0  0  0  0  0  0
   -8.1647    6.3199  -11.4491 C   0  0  0  0  0  0  0  0  0  0  0  0
   -7.9912    5.1336  -12.2781 C   0  0  0  0  0  0  0  0  0  0  0  0
   -8.0632    5.2651  -13.6247 N   0  0  0  0  0  0  0  0  0  0  0  0
   -7.7060    4.2598  -14.7582 C   0  0  0  0  0  0  0  0  0  0  0  0
   -7.2245    3.1984  -14.7029 O   0  0  0  0  0  0  0  0  0  0  0  0
   -8.2207    4.8982  -16.0391 C   0  0  1  0  0  0  0  0  0  0  0  0
   -7.4643    6.0052  -16.5270 O   0  0  0  0  0  0  0  0  0  0  0  0
   -7.2733    5.6215  -17.9274 C   0  0  1  0  0  0  0  0  0  0  0  0
   -6.5519    6.6720  -18.7245 C   0  0  0  0  0  0  0  0  0  0  0  0
   -5.2114    6.2261  -18.8962 N   0  0  0  0  0  0  0  0  0  0  0  0
   -3.9395    6.6690  -18.2268 C   0  0  0  0  0  0  0  0  0  0  0  0
   -3.7463    7.5243  -17.4754 O   0  0  0  0  0  0  0  0  0  0  0  0
   -3.0089    5.8162  -18.7197 O   0  0  0  0  0  0  0  0  0  0  0  0
   -1.6285    5.9788  -18.3384 C   0  0  0  0  0  0  0  0  0  0  0  0
   -0.8990    4.8385  -19.0514 C   0  0  0  0  0  0  0  0  0  0  0  0
   -1.4235    5.8431  -16.8264 C   0  0  0  0  0  0  0  0  0  0  0  0
   -1.1105    7.3075  -18.8728 C   0  0  0  0  0  0  0  0  0  0  0  0
   -6.7820    4.1380  -17.8990 C   0  0  0  0  0  0  0  0  0  0  0  0
   -8.2080    3.9820  -17.2669 C   0  0  2  0  0  0  0  0  0  0  0  0
   -8.6197    4.9122  -18.4295 C   0  0  0  0  0  0  0  0  0  0  0  0
   -7.9058    3.9039  -11.7324 C   0  0  0  0  0  0  0  0  0  0  0  0
   -8.0824    3.7403  -10.3395 C   0  0  0  0  0  0  0  0  0  0  0  0
   -8.1803    2.6571   -9.6116 N   0  0  0  0  0  0  0  0  0  0  0  0
  1  2  1  0
  2  3  2  0
  3  4  1  0
  4  5  1  0
  5  6  2  0
  6  7  1  0
  7  8  1  0
  8  9  1  0
  9 10  2  0
 11  9  1  1
 11 12  1  0
 12 13  1  0
 13 14  1  6
 14 15  1  0
 15 16  1  0
 16 17  2  0
 16 18  1  0
 18 19  1  0
 19 20  1  0
 19 21  1  0
 19 22  1  0
 13 23  1  0
 24 23  1  6
 24 25  1  0
  7 26  2  0
 26 27  1  0
 27 28  2  0
 28  2  1  0
 27  4  1  0
 24 11  1  0
 25 13  1  0
M  END
>  <energy_score>  (5079) 
-44.763737

>  <alias>  (5079) 
CLTOEDHRMKDURM-UHFFFAOYSA-N-P84-P64-P84-601532

>  <HIPPO Pose ID>  (5079) 
89712

>  <smiles>  (5079) 
Cc1cn2ccc(NC(=O)C3OC4(CNC(=O)OC(C)(C)C)CC3C4)cc2n1

>  <inchikey>  (5079) 
CLTOEDHRMKDURM-UHFFFAOYSA-N

>  <distance_score>  (5079) 
1.331551

>  <ref_mols>  (5079) 
Z1046b,Z1495a

>  <ref_pdb>  (5079) 
Z0089a

>  <HIPPO Compound ID>  (5079) 
139322

>  <name>  (5079) 
CLTOEDHRMKDURM-UHFFFAOYSA-N-P84-P64-P84-601532

>  <inspiration_score>  (5079) 
None

$$$$
MKKSWMAQGLPMOT-UHFFFAOYSA-N-P64-P64-P84-601532
     RDKit          3D

 28 31  0  0  0  0  0  0  0  0999 V2000
   -8.6183    2.0577   -7.8957 C   0  0  0  0  0  0  0  0  0  0  0  0
   -7.7122    2.6371   -8.9899 C   0  0  0  0  0  0  0  0  0  0  0  0
   -8.5876    2.9405  -10.2268 C   0  0  0  0  0  0  0  0  0  0  0  0
   -6.5879    1.6832   -9.4197 C   0  0  0  0  0  0  0  0  0  0  0  0
   -7.0174    3.7988   -8.4375 O   0  0  0  0  0  0  0  0  0  0  0  0
   -7.6170    4.9864   -8.6515 C   0  0  0  0  0  0  0  0  0  0  0  0
   -8.4414    5.4384   -7.9735 O   0  0  0  0  0  0  0  0  0  0  0  0
   -7.0448    5.4795   -9.9701 N   0  0  0  0  0  0  0  0  0  0  0  0
   -7.4235    6.5809  -10.7896 C   0  0  2  0  0  0  0  0  0  0  0  0
   -6.5502    7.8484  -10.9907 C   0  0  0  0  0  0  0  0  0  0  0  0
   -7.9765    8.3201  -11.5212 C   0  0  2  0  0  0  0  0  0  0  0  0
   -8.2750    9.7697  -11.7590 C   0  0  0  0  0  0  0  0  0  0  0  0
   -8.4625    7.5989  -10.2171 C   0  0  0  0  0  0  0  0  0  0  0  0
   -8.3491    7.4691  -12.6544 O   0  0  0  0  0  0  0  0  0  0  0  0
   -7.9312    6.1755  -12.1952 C   0  0  1  0  0  0  0  0  0  0  0  0
   -6.8245    5.5974  -13.0988 C   0  0  0  0  0  0  0  0  0  0  0  0
   -5.7302    5.4173  -12.7175 O   0  0  0  0  0  0  0  0  0  0  0  0
   -7.4385    5.4372  -14.5299 N   0  0  0  0  0  0  0  0  0  0  0  0
   -6.8437    5.1349  -15.7192 C   0  0  0  0  0  0  0  0  0  0  0  0
   -7.6759    4.8189  -16.8784 C   0  0  0  0  0  0  0  0  0  0  0  0
   -7.1131    4.7730  -18.1030 C   0  0  0  0  0  0  0  0  0  0  0  0
   -5.7466    5.0140  -18.2288 N   0  0  0  0  0  0  0  0  0  0  0  0
   -4.9519    5.1420  -19.3413 C   0  0  0  0  0  0  0  0  0  0  0  0
   -3.7177    5.4760  -18.8450 C   0  0  0  0  0  0  0  0  0  0  0  0
   -2.6588    5.7869  -19.5897 O   0  0  0  0  0  0  0  0  0  0  0  0
   -3.6808    5.5152  -17.4959 N   0  0  0  0  0  0  0  0  0  0  0  0
   -4.9150    5.2394  -17.1369 C   0  0  0  0  0  0  0  0  0  0  0  0
   -5.5079    5.2542  -15.8513 C   0  0  0  0  0  0  0  0  0  0  0  0
  1  2  1  0
  2  3  1  0
  2  4  1  0
  2  5  1  0
  5  6  1  0
  6  7  2  0
  6  8  1  0
  9  8  1  1
  9 10  1  0
 10 11  1  0
 11 12  1  6
 11 13  1  0
 11 14  1  0
 14 15  1  0
 15 16  1  6
 16 17  2  0
 16 18  1  0
 18 19  1  0
 19 20  1  0
 20 21  2  0
 21 22  1  0
 22 23  1  0
 23 24  2  0
 24 25  1  0
 24 26  1  0
 26 27  2  0
 27 28  1  0
 13  9  1  0
 28 19  2  0
 15  9  1  0
 27 22  1  0
M  END
>  <energy_score>  (5080) 
-31.121986

>  <alias>  (5080) 
MKKSWMAQGLPMOT-UHFFFAOYSA-N-P64-P64-P84-601532

>  <HIPPO Pose ID>  (5080) 
89717

>  <smiles>  (5080) 
CC(C)(C)OC(=O)NC12CC(C)(C1)OC2C(=O)Nc1ccn2cc(O)nc2c1

>  <inchikey>  (5080) 
MKKSWMAQGLPMOT-UHFFFAOYSA-N

>  <distance_score>  (5080) 
1.632179

>  <ref_mols>  (5080) 
Z1046b,Z1495a

>  <ref_pdb>  (5080) 
Z0089a

>  <HIPPO Compound ID>  (5080) 
139325

>  <name>  (5080) 
MKKSWMAQGLPMOT-UHFFFAOYSA-N-P64-P64-P84-601532

>  <inspiration_score>  (5080) 
None

$$$$
RFRRUFYRSJFITL-UHFFFAOYSA-N-P84-P64-P84-601532
     RDKit          3D

 29 32  0  0  0  0  0  0  0  0999 V2000
   -8.3760    1.5929   -6.7827 C   0  0  0  0  0  0  0  0  0  0  0  0
   -8.9208    2.9739   -7.0763 C   0  0  0  0  0  0  0  0  0  0  0  0
   -7.9686    4.1336   -6.7539 C   0  0  0  0  0  0  0  0  0  0  0  0
  -10.1790    3.1730   -6.2149 C   0  0  0  0  0  0  0  0  0  0  0  0
   -9.2930    3.0157   -8.4624 O   0  0  0  0  0  0  0  0  0  0  0  0
   -8.2712    2.9887   -9.3673 C   0  0  0  0  0  0  0  0  0  0  0  0
   -7.1636    2.7678   -9.1404 O   0  0  0  0  0  0  0  0  0  0  0  0
   -8.9369    3.4033  -10.6388 N   0  0  0  0  0  0  0  0  0  0  0  0
   -8.3888    3.7329  -11.8991 C   0  0  0  0  0  0  0  0  0  0  0  0
   -7.8372    5.1224  -11.7074 C   0  0  1  0  0  0  0  0  0  0  0  0
   -7.6961    5.9532  -10.3469 C   0  0  0  0  0  0  0  0  0  0  0  0
   -6.6679    6.6981  -11.2729 C   0  0  1  0  0  0  0  0  0  0  0  0
   -5.6648    7.6585  -10.7102 C   0  0  0  0  0  0  0  0  0  0  0  0
   -6.2539    5.2365  -11.6693 C   0  0  0  0  0  0  0  0  0  0  0  0
   -7.4188    7.2466  -12.3905 O   0  0  0  0  0  0  0  0  0  0  0  0
   -8.3802    6.2152  -12.6542 C   0  0  1  0  0  0  0  0  0  0  0  0
   -8.4713    5.7859  -14.1148 C   0  0  0  0  0  0  0  0  0  0  0  0
   -9.3975    5.2740  -14.6025 O   0  0  0  0  0  0  0  0  0  0  0  0
   -7.0735    6.0904  -14.6972 N   0  0  0  0  0  0  0  0  0  0  0  0
   -6.5298    5.7648  -15.8907 C   0  0  0  0  0  0  0  0  0  0  0  0
   -7.3286    5.2523  -16.9980 C   0  0  0  0  0  0  0  0  0  0  0  0
   -6.7668    5.1998  -18.2203 C   0  0  0  0  0  0  0  0  0  0  0  0
   -5.4258    5.5462  -18.3521 N   0  0  0  0  0  0  0  0  0  0  0  0
   -4.6445    5.7214  -19.4545 C   0  0  0  0  0  0  0  0  0  0  0  0
   -3.3835    5.9336  -18.9768 C   0  0  0  0  0  0  0  0  0  0  0  0
   -2.3165    6.0826  -19.7542 O   0  0  0  0  0  0  0  0  0  0  0  0
   -3.3491    6.0388  -17.6362 N   0  0  0  0  0  0  0  0  0  0  0  0
   -4.5994    5.8499  -17.2798 C   0  0  0  0  0  0  0  0  0  0  0  0
   -5.2100    5.9872  -16.0221 C   0  0  0  0  0  0  0  0  0  0  0  0
  1  2  1  0
  2  3  1  0
  2  4  1  0
  2  5  1  0
  5  6  1  0
  6  7  2  0
  6  8  1  0
  8  9  1  0
 10  9  1  1
 10 11  1  0
 11 12  1  0
 12 13  1  1
 12 14  1  0
 12 15  1  0
 15 16  1  0
 16 17  1  6
 17 18  2  0
 17 19  1  0
 19 20  1  0
 20 21  1  0
 21 22  2  0
 22 23  1  0
 23 24  1  0
 24 25  2  0
 25 26  1  0
 25 27  1  0
 27 28  2  0
 28 29  1  0
 14 10  1  0
 29 20  2  0
 16 10  1  0
 28 23  1  0
M  END
>  <energy_score>  (5081) 
-63.491194

>  <alias>  (5081) 
RFRRUFYRSJFITL-UHFFFAOYSA-N-P84-P64-P84-601532

>  <HIPPO Pose ID>  (5081) 
89746

>  <smiles>  (5081) 
CC(C)(C)OC(=O)NCC12CC(C)(C1)OC2C(=O)Nc1ccn2cc(O)nc2c1

>  <inchikey>  (5081) 
RFRRUFYRSJFITL-UHFFFAOYSA-N

>  <distance_score>  (5081) 
1.736085

>  <ref_mols>  (5081) 
Z1046b,Z1495a

>  <ref_pdb>  (5081) 
Z0089a

>  <HIPPO Compound ID>  (5081) 
139339

>  <name>  (5081) 
RFRRUFYRSJFITL-UHFFFAOYSA-N-P84-P64-P84-601532

>  <inspiration_score>  (5081) 
None

$$$$
GFZLQZUAHWQRAF-UHFFFAOYSA-N-P84-P64-P84-601532
     RDKit          3D

 29 32  0  0  0  0  0  0  0  0999 V2000
  -10.3846    2.7146   -5.5730 C   0  0  0  0  0  0  0  0  0  0  0  0
   -9.3488    3.8220   -5.8015 C   0  0  0  0  0  0  0  0  0  0  0  0
   -9.9405    5.1605   -5.3477 C   0  0  0  0  0  0  0  0  0  0  0  0
   -8.0783    3.5059   -5.0079 C   0  0  0  0  0  0  0  0  0  0  0  0
   -9.1354    3.8284   -7.2348 O   0  0  0  0  0  0  0  0  0  0  0  0
   -8.1791    4.6254   -7.7703 C   0  0  0  0  0  0  0  0  0  0  0  0
   -7.4420    5.2699   -7.1501 O   0  0  0  0  0  0  0  0  0  0  0  0
   -8.3868    4.5363   -9.2759 N   0  0  0  0  0  0  0  0  0  0  0  0
   -7.7965    5.2920  -10.3470 C   0  0  2  0  0  0  0  0  0  0  0  0
   -8.2656    5.0094  -11.8397 C   0  0  0  0  0  0  0  0  0  0  0  0
   -6.9228    5.7886  -12.0656 C   0  0  2  0  0  0  0  0  0  0  0  0
   -6.1409    5.9546  -13.3818 C   0  0  0  0  0  0  0  0  0  0  0  0
   -5.0693    6.4337  -13.3190 O   0  0  0  0  0  0  0  0  0  0  0  0
   -6.9851    5.5312  -14.6192 N   0  0  0  0  0  0  0  0  0  0  0  0
   -6.7440    5.6863  -15.9434 C   0  0  0  0  0  0  0  0  0  0  0  0
   -6.9867    4.6068  -16.8887 C   0  0  0  0  0  0  0  0  0  0  0  0
   -6.2400    4.6030  -18.0153 C   0  0  0  0  0  0  0  0  0  0  0  0
   -5.4431    5.7092  -18.3023 N   0  0  0  0  0  0  0  0  0  0  0  0
   -4.3115    5.9175  -19.0470 C   0  0  0  0  0  0  0  0  0  0  0  0
   -2.8263    4.7718  -19.2603 Br  0  0  0  0  0  0  0  0  0  0  0  0
   -4.2317    7.2796  -19.2167 C   0  0  0  0  0  0  0  0  0  0  0  0
   -5.0569    7.9045  -18.3200 N   0  0  0  0  0  0  0  0  0  0  0  0
   -5.5793    6.9090  -17.6320 C   0  0  0  0  0  0  0  0  0  0  0  0
   -6.1104    6.8122  -16.3305 C   0  0  0  0  0  0  0  0  0  0  0  0
   -6.4290    4.7950  -10.9288 C   0  0  0  0  0  0  0  0  0  0  0  0
   -7.1248    7.1175  -11.4683 O   0  0  0  0  0  0  0  0  0  0  0  0
   -7.6776    6.8288  -10.1853 C   0  0  0  0  0  0  0  0  0  0  0  0
   -6.6968    7.3305   -9.1307 C   0  0  0  0  0  0  0  0  0  0  0  0
   -8.9936    7.5727  -10.0652 C   0  0  0  0  0  0  0  0  0  0  0  0
  1  2  1  0
  2  3  1  0
  2  4  1  0
  2  5  1  0
  5  6  1  0
  6  7  2  0
  6  8  1  0
  9  8  1  1
  9 10  1  0
 10 11  1  0
 11 12  1  6
 12 13  2  0
 12 14  1  0
 14 15  1  0
 15 16  1  0
 16 17  2  0
 17 18  1  0
 18 19  1  0
 19 20  1  0
 19 21  2  0
 21 22  1  0
 22 23  2  0
 23 24  1  0
 11 25  1  0
 11 26  1  0
 26 27  1  0
 27 28  1  0
 27 29  1  0
 25  9  1  0
 27  9  1  0
 24 15  2  0
 23 18  1  0
M  END
>  <energy_score>  (5082) 
-1.793207

>  <alias>  (5082) 
GFZLQZUAHWQRAF-UHFFFAOYSA-N-P84-P64-P84-601532

>  <HIPPO Pose ID>  (5082) 
89782

>  <smiles>  (5082) 
CC(C)(C)OC(=O)NC12CC(C(=O)Nc3ccn4c(Br)cnc4c3)(C1)OC2(C)C

>  <inchikey>  (5082) 
GFZLQZUAHWQRAF-UHFFFAOYSA-N

>  <distance_score>  (5082) 
1.867534

>  <ref_mols>  (5082) 
Z1046b,Z1495a

>  <ref_pdb>  (5082) 
Z0089a

>  <HIPPO Compound ID>  (5082) 
139357

>  <name>  (5082) 
GFZLQZUAHWQRAF-UHFFFAOYSA-N-P84-P64-P84-601532

>  <inspiration_score>  (5082) 
None

$$$$
BASCXKJIMFLERD-UHFFFAOYSA-N-P84-P64-P84-601532
     RDKit          3D

 29 32  0  0  0  0  0  0  0  0999 V2000
   -8.8447    2.3237   -6.7703 C   0  0  0  0  0  0  0  0  0  0  0  0
   -8.9950    3.6151   -5.9576 C   0  0  0  0  0  0  0  0  0  0  0  0
   -7.7640    3.9069   -5.0933 C   0  0  0  0  0  0  0  0  0  0  0  0
  -10.2319    3.4923   -5.0616 C   0  0  0  0  0  0  0  0  0  0  0  0
   -9.2838    4.7396   -6.8253 O   0  0  0  0  0  0  0  0  0  0  0  0
   -8.2930    5.1837   -7.6418 C   0  0  0  0  0  0  0  0  0  0  0  0
   -7.5551    6.0248   -7.3359 O   0  0  0  0  0  0  0  0  0  0  0  0
   -8.4410    4.4300   -8.9551 N   0  0  0  0  0  0  0  0  0  0  0  0
   -7.7776    4.6092  -10.2114 C   0  0  1  0  0  0  0  0  0  0  0  0
   -8.2711    3.6563  -11.3587 C   0  0  0  0  0  0  0  0  0  0  0  0
   -7.6261    4.8145  -12.1768 C   0  0  1  0  0  0  0  0  0  0  0  0
   -7.9839    4.9475  -13.6901 C   0  0  0  0  0  0  0  0  0  0  0  0
   -9.0369    5.2273  -14.1158 O   0  0  0  0  0  0  0  0  0  0  0  0
   -6.6489    4.6814  -14.4179 N   0  0  0  0  0  0  0  0  0  0  0  0
   -6.3239    4.7888  -15.7295 C   0  0  0  0  0  0  0  0  0  0  0  0
   -7.3399    4.9185  -16.7691 C   0  0  0  0  0  0  0  0  0  0  0  0
   -6.9512    5.2038  -18.0271 C   0  0  0  0  0  0  0  0  0  0  0  0
   -5.5926    5.3547  -18.2923 N   0  0  0  0  0  0  0  0  0  0  0  0
   -4.9371    5.7713  -19.4197 C   0  0  0  0  0  0  0  0  0  0  0  0
   -3.6090    5.7253  -19.0903 C   0  0  0  0  0  0  0  0  0  0  0  0
   -2.6228    6.0352  -19.9272 O   0  0  0  0  0  0  0  0  0  0  0  0
   -3.3915    5.3364  -17.8186 N   0  0  0  0  0  0  0  0  0  0  0  0
   -4.6005    5.1429  -17.3423 C   0  0  0  0  0  0  0  0  0  0  0  0
   -5.0131    4.8342  -16.0304 C   0  0  0  0  0  0  0  0  0  0  0  0
   -8.3375    5.7215  -11.1328 C   0  0  0  0  0  0  0  0  0  0  0  0
   -6.1950    4.8398  -11.8221 O   0  0  0  0  0  0  0  0  0  0  0  0
   -6.2478    4.6854  -10.3741 C   0  0  0  0  0  0  0  0  0  0  0  0
   -5.5737    5.8873   -9.7254 C   0  0  0  0  0  0  0  0  0  0  0  0
   -5.5322    3.4004   -9.9733 C   0  0  0  0  0  0  0  0  0  0  0  0
  1  2  1  0
  2  3  1  0
  2  4  1  0
  2  5  1  0
  5  6  1  0
  6  7  2  0
  6  8  1  0
  9  8  1  1
  9 10  1  0
 10 11  1  0
 11 12  1  6
 12 13  2  0
 12 14  1  0
 14 15  1  0
 15 16  1  0
 16 17  2  0
 17 18  1  0
 18 19  1  0
 19 20  2  0
 20 21  1  0
 20 22  1  0
 22 23  2  0
 23 24  1  0
 11 25  1  0
 11 26  1  0
 26 27  1  0
 27 28  1  0
 27 29  1  0
 25  9  1  0
 27  9  1  0
 24 15  2  0
 23 18  1  0
M  END
>  <energy_score>  (5083) 
-68.052752

>  <alias>  (5083) 
BASCXKJIMFLERD-UHFFFAOYSA-N-P84-P64-P84-601532

>  <HIPPO Pose ID>  (5083) 
89788

>  <smiles>  (5083) 
CC(C)(C)OC(=O)NC12CC(C(=O)Nc3ccn4cc(O)nc4c3)(C1)OC2(C)C

>  <inchikey>  (5083) 
BASCXKJIMFLERD-UHFFFAOYSA-N

>  <distance_score>  (5083) 
1.641807

>  <ref_mols>  (5083) 
Z1046b,Z1495a

>  <ref_pdb>  (5083) 
Z0089a

>  <HIPPO Compound ID>  (5083) 
139360

>  <name>  (5083) 
BASCXKJIMFLERD-UHFFFAOYSA-N-P84-P64-P84-601532

>  <inspiration_score>  (5083) 
None

$$$$
CWUMBFJCFZYXEH-UHFFFAOYSA-N-P84-P64-P84-601532
     RDKit          3D

 29 32  0  0  0  0  0  0  0  0999 V2000
   -7.8414    4.3231   -4.5881 C   0  0  0  0  0  0  0  0  0  0  0  0
   -9.1375    4.5026   -5.3840 C   0  0  0  0  0  0  0  0  0  0  0  0
   -9.6193    5.9592   -5.3599 C   0  0  0  0  0  0  0  0  0  0  0  0
  -10.2376    3.6272   -4.7737 C   0  0  0  0  0  0  0  0  0  0  0  0
   -8.9770    3.9928   -6.7290 O   0  0  0  0  0  0  0  0  0  0  0  0
   -8.1449    4.5987   -7.6108 C   0  0  0  0  0  0  0  0  0  0  0  0
   -7.5752    5.5886   -7.4124 O   0  0  0  0  0  0  0  0  0  0  0  0
   -8.2128    3.7327   -8.8590 N   0  0  0  0  0  0  0  0  0  0  0  0
   -7.6698    3.9426  -10.1708 C   0  0  2  0  0  0  0  0  0  0  0  0
   -8.2020    5.1699  -10.9780 C   0  0  0  0  0  0  0  0  0  0  0  0
   -7.5698    4.3113  -12.1181 C   0  0  2  0  0  0  0  0  0  0  0  0
   -7.8982    4.6521  -13.6085 C   0  0  0  0  0  0  0  0  0  0  0  0
   -8.9066    5.1106  -13.9900 O   0  0  0  0  0  0  0  0  0  0  0  0
   -6.5804    4.3419  -14.3720 N   0  0  0  0  0  0  0  0  0  0  0  0
   -6.2193    4.6049  -15.6663 C   0  0  0  0  0  0  0  0  0  0  0  0
   -4.7555    4.6497  -15.8094 C   0  0  0  0  0  0  0  0  0  0  0  0
   -4.1968    5.0510  -16.9566 C   0  0  0  0  0  0  0  0  0  0  0  0
   -5.0224    5.4778  -17.9739 N   0  0  0  0  0  0  0  0  0  0  0  0
   -4.6611    6.0767  -19.1484 C   0  0  0  0  0  0  0  0  0  0  0  0
   -5.8413    6.5134  -19.6879 C   0  0  0  0  0  0  0  0  0  0  0  0
   -6.9004    6.1897  -18.8784 N   0  0  0  0  0  0  0  0  0  0  0  0
   -6.4080    5.4587  -17.9000 C   0  0  0  0  0  0  0  0  0  0  0  0
   -7.0081    4.8404  -16.7463 C   0  0  0  0  0  0  0  0  0  0  0  0
   -8.7965    4.3228  -16.9342 Br  0  0  0  0  0  0  0  0  0  0  0  0
   -8.2785    3.1288  -11.3611 C   0  0  0  0  0  0  0  0  0  0  0  0
   -6.1277    4.2329  -11.8078 O   0  0  0  0  0  0  0  0  0  0  0  0
   -6.1453    3.9373  -10.3908 C   0  0  0  0  0  0  0  0  0  0  0  0
   -5.5088    2.5674  -10.1691 C   0  0  0  0  0  0  0  0  0  0  0  0
   -5.3822    5.0139   -9.6320 C   0  0  0  0  0  0  0  0  0  0  0  0
  1  2  1  0
  2  3  1  0
  2  4  1  0
  2  5  1  0
  5  6  1  0
  6  7  2  0
  6  8  1  0
  9  8  1  1
  9 10  1  0
 10 11  1  0
 11 12  1  6
 12 13  2  0
 12 14  1  0
 14 15  1  0
 15 16  1  0
 16 17  2  0
 17 18  1  0
 18 19  1  0
 19 20  2  0
 20 21  1  0
 21 22  2  0
 22 23  1  0
 23 24  1  0
 11 25  1  0
 11 26  1  0
 26 27  1  0
 27 28  1  0
 27 29  1  0
 25  9  1  0
 27  9  1  0
 23 15  2  0
 22 18  1  0
M  END
>  <energy_score>  (5084) 
-57.050487

>  <alias>  (5084) 
CWUMBFJCFZYXEH-UHFFFAOYSA-N-P84-P64-P84-601532

>  <HIPPO Pose ID>  (5084) 
89790

>  <smiles>  (5084) 
CC(C)(C)OC(=O)NC12CC(C(=O)Nc3ccn4ccnc4c3Br)(C1)OC2(C)C

>  <inchikey>  (5084) 
CWUMBFJCFZYXEH-UHFFFAOYSA-N

>  <distance_score>  (5084) 
1.760746

>  <ref_mols>  (5084) 
Z1046b,Z1495a

>  <ref_pdb>  (5084) 
Z0089a

>  <HIPPO Compound ID>  (5084) 
139361

>  <name>  (5084) 
CWUMBFJCFZYXEH-UHFFFAOYSA-N-P84-P64-P84-601532

>  <inspiration_score>  (5084) 
None

$$$$
VKVMVEGFTDMWNL-UHFFFAOYSA-N-P219-P8-P219-601532
     RDKit          3D

 20 23  0  0  0  0  0  0  0  0999 V2000
   -7.9810    6.0684  -12.8837 O   0  0  0  0  0  0  0  0  0  0  0  0
   -7.2902    5.1540  -12.6661 C   0  0  0  0  0  0  0  0  0  0  0  0
   -7.4260    4.0218  -11.6212 N   0  0  0  0  0  0  0  0  0  0  0  0
   -8.3954    3.8317  -10.5583 C   0  0  1  0  0  0  0  0  0  0  0  0
   -8.3862    2.4713   -9.8990 C   0  0  0  0  0  0  0  0  0  0  0  0
   -9.0018    2.7391   -8.5396 C   0  0  0  0  0  0  0  0  0  0  0  0
   -8.6720    4.0917   -8.1853 O   0  0  0  0  0  0  0  0  0  0  0  0
   -8.1687    4.7489   -9.3591 C   0  0  0  0  0  0  0  0  0  0  0  0
   -5.9679    5.0642  -13.4458 C   0  0  0  0  0  0  0  0  0  0  0  0
   -6.0179    5.1603  -14.9726 N   0  0  0  0  0  0  0  0  0  0  0  0
   -4.9506    5.5410  -15.7577 C   0  0  0  0  0  0  0  0  0  0  0  0
   -5.2128    5.4657  -17.0410 N   0  0  0  0  0  0  0  0  0  0  0  0
   -6.4995    4.9960  -17.0947 C   0  0  0  0  0  0  0  0  0  0  0  0
   -7.2722    4.7169  -18.2261 C   0  0  0  0  0  0  0  0  0  0  0  0
   -8.5853    4.2899  -18.0462 C   0  0  0  0  0  0  0  0  0  0  0  0
   -9.1109    4.1293  -16.7690 C   0  0  0  0  0  0  0  0  0  0  0  0
   -8.3451    4.3548  -15.6234 C   0  0  0  0  0  0  0  0  0  0  0  0
   -7.0386    4.8056  -15.8159 C   0  0  0  0  0  0  0  0  0  0  0  0
   -4.7491    4.3816  -12.8222 C   0  0  0  0  0  0  0  0  0  0  0  0
   -4.8751    5.8638  -12.7021 C   0  0  0  0  0  0  0  0  0  0  0  0
  1  2  2  0
  2  3  1  0
  4  3  1  6
  4  5  1  0
  5  6  1  0
  6  7  1  0
  7  8  1  0
  2  9  1  0
  9 10  1  0
 10 11  1  0
 11 12  2  0
 12 13  1  0
 13 14  2  0
 14 15  1  0
 15 16  2  0
 16 17  1  0
 17 18  2  0
  9 19  1  0
 19 20  1  0
  8  4  1  0
 20  9  1  0
 18 10  1  0
 18 13  1  0
M  END
>  <energy_score>  (5085) 
-45.275173

>  <alias>  (5085) 
VKVMVEGFTDMWNL-UHFFFAOYSA-N-P219-P8-P219-601532

>  <HIPPO Pose ID>  (5085) 
89804

>  <smiles>  (5085) 
O=C(NC1CCOC1)C1(n2cnc3ccccc32)CC1

>  <inchikey>  (5085) 
VKVMVEGFTDMWNL-UHFFFAOYSA-N

>  <distance_score>  (5085) 
1.501593

>  <ref_mols>  (5085) 
Z0101a,Z3880a

>  <ref_pdb>  (5085) 
Z0089a

>  <HIPPO Compound ID>  (5085) 
147109

>  <name>  (5085) 
VKVMVEGFTDMWNL-UHFFFAOYSA-N-P219-P8-P219-601532

>  <inspiration_score>  (5085) 
None

$$$$
CWHWXFMHANARRZ-UHFFFAOYSA-N-P8-P8-P219-601532
     RDKit          3D

 20 23  0  0  0  0  0  0  0  0999 V2000
   -8.7940    4.6532  -12.7528 O   0  0  0  0  0  0  0  0  0  0  0  0
   -7.6504    4.5689  -12.5401 C   0  0  0  0  0  0  0  0  0  0  0  0
   -6.8951    3.8919  -11.3712 N   0  0  0  0  0  0  0  0  0  0  0  0
   -7.3958    3.2594  -10.1693 C   0  0  0  0  0  0  0  0  0  0  0  0
   -8.8714    2.8885  -10.0731 C   0  0  0  0  0  0  0  0  0  0  0  0
   -9.1727    2.1613   -8.8741 O   0  0  0  0  0  0  0  0  0  0  0  0
   -6.8200    3.8040   -8.8701 C   0  0  0  0  0  0  0  0  0  0  0  0
   -6.4111    2.4515   -9.3669 C   0  0  0  0  0  0  0  0  0  0  0  0
   -6.6729    5.3090  -13.4732 C   0  0  0  0  0  0  0  0  0  0  0  0
   -6.3819    4.7626  -14.8694 N   0  0  0  0  0  0  0  0  0  0  0  0
   -5.1480    4.8562  -15.4768 C   0  0  0  0  0  0  0  0  0  0  0  0
   -5.2245    4.7926  -16.7877 N   0  0  0  0  0  0  0  0  0  0  0  0
   -6.5590    4.5914  -17.0457 C   0  0  0  0  0  0  0  0  0  0  0  0
   -7.2092    4.4492  -18.2807 C   0  0  0  0  0  0  0  0  0  0  0  0
   -8.5869    4.2163  -18.2987 C   0  0  0  0  0  0  0  0  0  0  0  0
   -9.3036    4.1364  -17.1093 C   0  0  0  0  0  0  0  0  0  0  0  0
   -8.6784    4.3091  -15.8706 C   0  0  0  0  0  0  0  0  0  0  0  0
   -7.3028    4.5378  -15.8628 C   0  0  0  0  0  0  0  0  0  0  0  0
   -5.6534    6.2167  -12.7627 C   0  0  0  0  0  0  0  0  0  0  0  0
   -6.8402    6.8415  -13.4032 C   0  0  0  0  0  0  0  0  0  0  0  0
  1  2  2  0
  2  3  1  0
  3  4  1  0
  4  5  1  0
  5  6  1  0
  4  7  1  0
  7  8  1  0
  2  9  1  0
  9 10  1  0
 10 11  1  0
 11 12  2  0
 12 13  1  0
 13 14  2  0
 14 15  1  0
 15 16  2  0
 16 17  1  0
 17 18  2  0
  9 19  1  0
 19 20  1  0
  8  4  1  0
 20  9  1  0
 18 10  1  0
 18 13  1  0
M  END
>  <energy_score>  (5086) 
-3.024781

>  <alias>  (5086) 
CWHWXFMHANARRZ-UHFFFAOYSA-N-P8-P8-P219-601532

>  <HIPPO Pose ID>  (5086) 
89807

>  <smiles>  (5086) 
O=C(NC1(CO)CC1)C1(n2cnc3ccccc32)CC1

>  <inchikey>  (5086) 
CWHWXFMHANARRZ-UHFFFAOYSA-N

>  <distance_score>  (5086) 
1.747872

>  <ref_mols>  (5086) 
Z0101a,Z3880a

>  <ref_pdb>  (5086) 
Z0089a

>  <HIPPO Compound ID>  (5086) 
147111

>  <name>  (5086) 
CWHWXFMHANARRZ-UHFFFAOYSA-N-P8-P8-P219-601532

>  <inspiration_score>  (5086) 
None

$$$$
SVTXBPPDEGSXAD-UHFFFAOYSA-N-P8-P8-P219-601532
     RDKit          3D

 21 24  0  0  0  0  0  0  0  0999 V2000
   -4.7654    4.2867  -13.2772 O   0  0  0  0  0  0  0  0  0  0  0  0
   -5.9146    4.4622  -13.2875 C   0  0  0  0  0  0  0  0  0  0  0  0
   -6.9728    4.1791  -12.2156 N   0  0  0  0  0  0  0  0  0  0  0  0
   -6.8314    3.7070  -10.8635 C   0  0  2  0  0  0  0  0  0  0  0  0
   -7.7418    2.5377  -10.5374 C   0  0  0  0  0  0  0  0  0  0  0  0
   -8.4360    2.8705   -9.2149 C   0  0  0  0  0  0  0  0  0  0  0  0
   -7.7189    4.0935   -8.6653 C   0  0  0  0  0  0  0  0  0  0  0  0
   -7.2848    4.8315   -9.9124 C   0  0  1  0  0  0  0  0  0  0  0  0
   -6.2453    5.7579   -9.6317 O   0  0  0  0  0  0  0  0  0  0  0  0
   -6.5468    5.1659  -14.4637 C   0  0  0  0  0  0  0  0  0  0  0  0
   -6.3174    4.6008  -15.8335 N   0  0  0  0  0  0  0  0  0  0  0  0
   -5.1341    4.7584  -16.5084 C   0  0  0  0  0  0  0  0  0  0  0  0
   -5.3031    4.6519  -17.8066 N   0  0  0  0  0  0  0  0  0  0  0  0
   -6.6471    4.3903  -17.9599 C   0  0  0  0  0  0  0  0  0  0  0  0
   -7.3803    4.1753  -19.1269 C   0  0  0  0  0  0  0  0  0  0  0  0
   -8.7675    3.9776  -19.0532 C   0  0  0  0  0  0  0  0  0  0  0  0
   -9.4193    3.9382  -17.8267 C   0  0  0  0  0  0  0  0  0  0  0  0
   -8.6962    4.0922  -16.6402 C   0  0  0  0  0  0  0  0  0  0  0  0
   -7.3153    4.3389  -16.7419 C   0  0  0  0  0  0  0  0  0  0  0  0
   -6.3754    6.6887  -14.3593 C   0  0  0  0  0  0  0  0  0  0  0  0
   -7.7388    6.0953  -14.2160 C   0  0  0  0  0  0  0  0  0  0  0  0
  1  2  2  0
  2  3  1  0
  4  3  1  6
  4  5  1  0
  5  6  1  0
  6  7  1  0
  7  8  1  0
  8  9  1  1
  2 10  1  0
 10 11  1  0
 11 12  1  0
 12 13  2  0
 13 14  1  0
 14 15  2  0
 15 16  1  0
 16 17  2  0
 17 18  1  0
 18 19  2  0
 10 20  1  0
 20 21  1  0
  8  4  1  0
 21 10  1  0
 19 11  1  0
 19 14  1  0
M  END
>  <energy_score>  (5087) 
-7.995852

>  <alias>  (5087) 
SVTXBPPDEGSXAD-UHFFFAOYSA-N-P8-P8-P219-601532

>  <HIPPO Pose ID>  (5087) 
89841

>  <smiles>  (5087) 
O=C(NC1CCCC1O)C1(n2cnc3ccccc32)CC1

>  <inchikey>  (5087) 
SVTXBPPDEGSXAD-UHFFFAOYSA-N

>  <distance_score>  (5087) 
1.431732

>  <ref_mols>  (5087) 
Z0101a,Z3880a

>  <ref_pdb>  (5087) 
Z0089a

>  <HIPPO Compound ID>  (5087) 
147128

>  <name>  (5087) 
SVTXBPPDEGSXAD-UHFFFAOYSA-N-P8-P8-P219-601532

>  <inspiration_score>  (5087) 
None

$$$$
RSEMZJGKECFNRA-UHFFFAOYSA-N-P219-P8-P219-601532
     RDKit          3D

 21 23  0  0  0  0  0  0  0  0999 V2000
   -6.0240    6.9508  -12.3103 C   0  0  0  0  0  0  0  0  0  0  0  0
   -7.2342    6.5063  -13.1278 C   0  0  0  0  0  0  0  0  0  0  0  0
   -8.5084    7.0754  -12.5050 C   0  0  0  0  0  0  0  0  0  0  0  0
   -7.2855    4.9759  -13.3534 C   0  0  2  0  0  0  0  0  0  0  0  0
   -6.7731    4.1789  -12.1285 C   0  0  0  0  0  0  0  0  0  0  0  0
   -5.6790    3.7611  -12.0388 O   0  0  0  0  0  0  0  0  0  0  0  0
   -7.9602    4.1740  -11.0815 N   0  0  0  0  0  0  0  0  0  0  0  0
   -7.9917    3.7434   -9.7064 C   0  0  0  0  0  0  0  0  0  0  0  0
   -8.5126    2.3273   -9.4214 C   0  0  0  0  0  0  0  0  0  0  0  0
   -9.4329    2.3228   -8.3272 O   0  0  0  0  0  0  0  0  0  0  0  0
   -8.3569    4.8476   -8.7092 C   0  0  0  0  0  0  0  0  0  0  0  0
   -6.9706    4.3117   -8.7422 C   0  0  0  0  0  0  0  0  0  0  0  0
   -6.6700    4.6968  -14.6714 N   0  0  0  0  0  0  0  0  0  0  0  0
   -5.3922    4.9823  -15.0948 C   0  0  0  0  0  0  0  0  0  0  0  0
   -5.2960    5.0341  -16.4082 N   0  0  0  0  0  0  0  0  0  0  0  0
   -6.5424    4.6955  -16.8695 C   0  0  0  0  0  0  0  0  0  0  0  0
   -7.0065    4.5335  -18.1797 C   0  0  0  0  0  0  0  0  0  0  0  0
   -8.3458    4.1801  -18.3715 C   0  0  0  0  0  0  0  0  0  0  0  0
   -9.2220    4.0500  -17.3042 C   0  0  0  0  0  0  0  0  0  0  0  0
   -8.7757    4.2049  -15.9991 C   0  0  0  0  0  0  0  0  0  0  0  0
   -7.4254    4.5024  -15.8113 C   0  0  0  0  0  0  0  0  0  0  0  0
  1  2  1  0
  2  3  1  0
  4  2  1  1
  4  5  1  0
  5  6  2  0
  5  7  1  0
  7  8  1  0
  8  9  1  0
  9 10  1  0
  8 11  1  0
 11 12  1  0
  4 13  1  0
 13 14  1  0
 14 15  2  0
 15 16  1  0
 16 17  2  0
 17 18  1  0
 18 19  2  0
 19 20  1  0
 20 21  2  0
 12  8  1  0
 21 13  1  0
 21 16  1  0
M  END
>  <energy_score>  (5088) 
-0.770748

>  <alias>  (5088) 
RSEMZJGKECFNRA-UHFFFAOYSA-N-P219-P8-P219-601532

>  <HIPPO Pose ID>  (5088) 
89868

>  <smiles>  (5088) 
CC(C)C(C(=O)NC1(CO)CC1)n1cnc2ccccc21

>  <inchikey>  (5088) 
RSEMZJGKECFNRA-UHFFFAOYSA-N

>  <distance_score>  (5088) 
1.634282

>  <ref_mols>  (5088) 
Z0101a,Z3880a

>  <ref_pdb>  (5088) 
Z0089a

>  <HIPPO Compound ID>  (5088) 
147141

>  <name>  (5088) 
RSEMZJGKECFNRA-UHFFFAOYSA-N-P219-P8-P219-601532

>  <inspiration_score>  (5088) 
None

$$$$
FROAAJPQGBCDLY-UHFFFAOYSA-N-P8-P8-P219-601532
     RDKit          3D

 21 25  0  0  0  0  0  0  0  0999 V2000
   -5.8269    7.9463  -19.1527 O   0  0  0  0  0  0  0  0  0  0  0  0
   -5.0169    7.3561  -19.7749 C   0  0  0  0  0  0  0  0  0  0  0  0
   -4.1659    7.8015  -20.9454 N   0  0  0  0  0  0  0  0  0  0  0  0
   -4.1675    9.0998  -21.7337 C   0  0  0  0  0  0  0  0  0  0  0  0
   -3.3505    9.7830  -20.6692 C   0  0  0  0  0  0  0  0  0  0  0  0
   -2.8346    8.4043  -20.4756 C   0  0  0  0  0  0  0  0  0  0  0  0
   -1.5133    8.0571  -21.1322 C   0  0  0  0  0  0  0  0  0  0  0  0
   -0.8459    8.1537  -19.8375 O   0  0  0  0  0  0  0  0  0  0  0  0
   -2.1420    8.1259  -19.1652 C   0  0  0  0  0  0  0  0  0  0  0  0
   -4.8174    5.8650  -19.4629 C   0  0  0  0  0  0  0  0  0  0  0  0
   -5.1928    5.4959  -18.0572 N   0  0  0  0  0  0  0  0  0  0  0  0
   -4.3515    5.6397  -16.9940 C   0  0  0  0  0  0  0  0  0  0  0  0
   -4.9455    5.3360  -15.8615 N   0  0  0  0  0  0  0  0  0  0  0  0
   -6.2169    4.9462  -16.2242 C   0  0  0  0  0  0  0  0  0  0  0  0
   -7.2788    4.5202  -15.4123 C   0  0  0  0  0  0  0  0  0  0  0  0
   -8.4888    4.1612  -16.0153 C   0  0  0  0  0  0  0  0  0  0  0  0
   -8.6377    4.2064  -17.3995 C   0  0  0  0  0  0  0  0  0  0  0  0
   -7.5932    4.6386  -18.2232 C   0  0  0  0  0  0  0  0  0  0  0  0
   -6.3947    5.0139  -17.6073 C   0  0  0  0  0  0  0  0  0  0  0  0
   -5.1192    4.8996  -20.6126 C   0  0  0  0  0  0  0  0  0  0  0  0
   -3.7151    5.0345  -20.1369 C   0  0  0  0  0  0  0  0  0  0  0  0
  1  2  2  0
  2  3  1  0
  3  4  1  0
  4  5  1  0
  5  6  1  0
  6  7  1  0
  7  8  1  0
  8  9  1  0
  2 10  1  0
 10 11  1  0
 11 12  1  0
 12 13  2  0
 13 14  1  0
 14 15  2  0
 15 16  1  0
 16 17  2  0
 17 18  1  0
 18 19  2  0
 10 20  1  0
 20 21  1  0
  6  3  1  0
 21 10  1  0
  9  6  1  0
 19 11  1  0
 19 14  1  0
M  END
>  <energy_score>  (5089) 
-5.546185

>  <alias>  (5089) 
FROAAJPQGBCDLY-UHFFFAOYSA-N-P8-P8-P219-601532

>  <HIPPO Pose ID>  (5089) 
89883

>  <smiles>  (5089) 
O=C(N1CCC12COC2)C1(n2cnc3ccccc32)CC1

>  <inchikey>  (5089) 
FROAAJPQGBCDLY-UHFFFAOYSA-N

>  <distance_score>  (5089) 
1.058472

>  <ref_mols>  (5089) 
Z0101a,Z3880a

>  <ref_pdb>  (5089) 
Z0089a

>  <HIPPO Compound ID>  (5089) 
147149

>  <name>  (5089) 
FROAAJPQGBCDLY-UHFFFAOYSA-N-P8-P8-P219-601532

>  <inspiration_score>  (5089) 
None

$$$$
JYAYXWRMFWEALC-UHFFFAOYSA-N-P219-P8-P219-601532
     RDKit          3D

 22 24  0  0  0  0  0  0  0  0999 V2000
   -4.8458    6.5017  -12.5911 C   0  0  0  0  0  0  0  0  0  0  0  0
   -6.3194    6.2294  -12.8363 C   0  0  0  0  0  0  0  0  0  0  0  0
   -6.9751    7.4212  -13.5331 C   0  0  0  0  0  0  0  0  0  0  0  0
   -6.5713    4.8606  -13.5215 C   0  0  1  0  0  0  0  0  0  0  0  0
   -7.8831    4.3898  -12.8354 C   0  0  0  0  0  0  0  0  0  0  0  0
   -8.9471    4.7642  -13.1506 O   0  0  0  0  0  0  0  0  0  0  0  0
   -7.4441    3.4601  -11.6519 N   0  0  0  0  0  0  0  0  0  0  0  0
   -8.2366    2.8739  -10.5434 C   0  0  1  0  0  0  0  0  0  0  0  0
   -7.3459    1.9433   -9.6788 C   0  0  0  0  0  0  0  0  0  0  0  0
   -6.9424    3.1181   -8.8894 O   0  0  0  0  0  0  0  0  0  0  0  0
   -8.2425    3.7208   -9.2026 C   0  0  0  0  0  0  0  0  0  0  0  0
   -9.2364    3.3185   -8.1055 C   0  0  0  0  0  0  0  0  0  0  0  0
   -8.0831    5.2294   -9.3124 C   0  0  0  0  0  0  0  0  0  0  0  0
   -6.4386    4.9054  -14.9874 N   0  0  0  0  0  0  0  0  0  0  0  0
   -5.2282    5.1736  -15.6109 C   0  0  0  0  0  0  0  0  0  0  0  0
   -5.3125    5.1986  -16.9165 N   0  0  0  0  0  0  0  0  0  0  0  0
   -6.5992    4.8203  -17.1717 C   0  0  0  0  0  0  0  0  0  0  0  0
   -7.2007    4.5891  -18.4101 C   0  0  0  0  0  0  0  0  0  0  0  0
   -8.5361    4.1971  -18.4360 C   0  0  0  0  0  0  0  0  0  0  0  0
   -9.2677    4.0629  -17.2709 C   0  0  0  0  0  0  0  0  0  0  0  0
   -8.6732    4.2579  -16.0299 C   0  0  0  0  0  0  0  0  0  0  0  0
   -7.3330    4.6428  -15.9919 C   0  0  0  0  0  0  0  0  0  0  0  0
  1  2  1  0
  2  3  1  0
  4  2  1  6
  4  5  1  0
  5  6  2  0
  5  7  1  0
  8  7  1  6
  8  9  1  0
  9 10  1  0
 10 11  1  0
 11 12  1  0
 11 13  1  0
  4 14  1  0
 14 15  1  0
 15 16  2  0
 16 17  1  0
 17 18  2  0
 18 19  1  0
 19 20  2  0
 20 21  1  0
 21 22  2  0
 11  8  1  0
 22 14  1  0
 22 17  1  0
M  END
>  <energy_score>  (5090) 
-28.244454

>  <alias>  (5090) 
JYAYXWRMFWEALC-UHFFFAOYSA-N-P219-P8-P219-601532

>  <HIPPO Pose ID>  (5090) 
89972

>  <smiles>  (5090) 
CC(C)C(C(=O)NC1COC1(C)C)n1cnc2ccccc21

>  <inchikey>  (5090) 
JYAYXWRMFWEALC-UHFFFAOYSA-N

>  <distance_score>  (5090) 
1.577919

>  <ref_mols>  (5090) 
Z0101a,Z3880a

>  <ref_pdb>  (5090) 
Z0089a

>  <HIPPO Compound ID>  (5090) 
147193

>  <name>  (5090) 
JYAYXWRMFWEALC-UHFFFAOYSA-N-P219-P8-P219-601532

>  <inspiration_score>  (5090) 
None

$$$$
WZXYOJBTBUEEBR-UHFFFAOYSA-N-P8-P8-P219-601532
     RDKit          3D

 22 25  0  0  0  0  0  0  0  0999 V2000
   -2.3396    6.5252  -20.1696 C   0  0  0  0  0  0  0  0  0  0  0  0
   -3.4301    5.4407  -20.1939 C   0  0  0  0  0  0  0  0  0  0  0  0
   -2.8601    4.1729  -19.5609 C   0  0  0  0  0  0  0  0  0  0  0  0
   -4.8095    5.8914  -19.6074 C   0  0  2  0  0  0  0  0  0  0  0  0
   -5.0859    7.3715  -20.0297 C   0  0  0  0  0  0  0  0  0  0  0  0
   -5.2401    7.6081  -21.1679 O   0  0  0  0  0  0  0  0  0  0  0  0
   -5.0048    8.3313  -18.7988 N   0  0  0  0  0  0  0  0  0  0  0  0
   -5.0015    9.7700  -18.7340 C   0  0  1  0  0  0  0  0  0  0  0  0
   -5.1687   10.4289  -17.3557 C   0  0  0  0  0  0  0  0  0  0  0  0
   -5.0830   11.8112  -17.7489 O   0  0  0  0  0  0  0  0  0  0  0  0
   -4.8680   11.6915  -19.1824 C   0  0  1  0  0  0  0  0  0  0  0  0
   -3.8193   10.5381  -19.4052 C   0  0  0  0  0  0  0  0  0  0  0  0
   -5.8804   10.6069  -19.7107 C   0  0  0  0  0  0  0  0  0  0  0  0
   -5.0870    5.5709  -18.2078 N   0  0  0  0  0  0  0  0  0  0  0  0
   -4.2276    5.7266  -17.1511 C   0  0  0  0  0  0  0  0  0  0  0  0
   -4.8234    5.5292  -15.9994 N   0  0  0  0  0  0  0  0  0  0  0  0
   -6.0860    5.0900  -16.3160 C   0  0  0  0  0  0  0  0  0  0  0  0
   -7.1282    4.6792  -15.4694 C   0  0  0  0  0  0  0  0  0  0  0  0
   -8.3336    4.2507  -16.0355 C   0  0  0  0  0  0  0  0  0  0  0  0
   -8.4954    4.2223  -17.4186 C   0  0  0  0  0  0  0  0  0  0  0  0
   -7.4698    4.6386  -18.2758 C   0  0  0  0  0  0  0  0  0  0  0  0
   -6.2746    5.0835  -17.6972 C   0  0  0  0  0  0  0  0  0  0  0  0
  1  2  1  0
  2  3  1  0
  4  2  1  1
  4  5  1  0
  5  6  2  0
  5  7  1  0
  8  7  1  1
  8  9  1  0
  9 10  1  0
 10 11  1  0
 11 12  1  1
 11 13  1  0
  4 14  1  0
 14 15  1  0
 15 16  2  0
 16 17  1  0
 17 18  2  0
 18 19  1  0
 19 20  2  0
 20 21  1  0
 21 22  2  0
 12  8  1  0
 22 14  1  0
 13  8  1  0
 22 17  1  0
M  END
>  <energy_score>  (5091) 
-22.690851

>  <alias>  (5091) 
WZXYOJBTBUEEBR-UHFFFAOYSA-N-P8-P8-P219-601532

>  <HIPPO Pose ID>  (5091) 
89975

>  <smiles>  (5091) 
CC(C)C(C(=O)NC12COC(C1)C2)n1cnc2ccccc21

>  <inchikey>  (5091) 
WZXYOJBTBUEEBR-UHFFFAOYSA-N

>  <distance_score>  (5091) 
0.819145

>  <ref_mols>  (5091) 
Z0101a,Z3880a

>  <ref_pdb>  (5091) 
Z0089a

>  <HIPPO Compound ID>  (5091) 
147195

>  <name>  (5091) 
WZXYOJBTBUEEBR-UHFFFAOYSA-N-P8-P8-P219-601532

>  <inspiration_score>  (5091) 
None

$$$$
PLWOQKUAHGZKNS-UHFFFAOYSA-N-P219-P8-P219-601532
     RDKit          3D

 22 24  0  0  0  0  0  0  0  0999 V2000
   -5.2528    6.2908  -11.5999 C   0  0  0  0  0  0  0  0  0  0  0  0
   -5.7303    6.3585  -13.0399 C   0  0  0  0  0  0  0  0  0  0  0  0
   -6.6955    7.5338  -13.2224 C   0  0  0  0  0  0  0  0  0  0  0  0
   -6.2712    4.9952  -13.5348 C   0  0  1  0  0  0  0  0  0  0  0  0
   -7.5857    4.7043  -12.7412 C   0  0  0  0  0  0  0  0  0  0  0  0
   -8.6190    5.1893  -13.0130 O   0  0  0  0  0  0  0  0  0  0  0  0
   -7.1821    3.7765  -11.5370 N   0  0  0  0  0  0  0  0  0  0  0  0
   -7.9653    3.3354  -10.3586 C   0  0  1  0  0  0  0  0  0  0  0  0
   -8.9948    2.3086  -10.7607 C   0  0  0  0  0  0  0  0  0  0  0  0
   -7.0599    2.8407   -9.2157 C   0  0  0  0  0  0  0  0  0  0  0  0
   -7.8813    3.6621   -8.2116 C   0  0  0  0  0  0  0  0  0  0  0  0
   -8.5028    4.4167   -9.3910 C   0  0  1  0  0  0  0  0  0  0  0  0
   -8.0704    5.7737   -9.5930 O   0  0  0  0  0  0  0  0  0  0  0  0
   -6.2522    4.9734  -15.0170 N   0  0  0  0  0  0  0  0  0  0  0  0
   -5.0867    5.2172  -15.7344 C   0  0  0  0  0  0  0  0  0  0  0  0
   -5.2688    5.2157  -17.0292 N   0  0  0  0  0  0  0  0  0  0  0  0
   -6.5766    4.8517  -17.1784 C   0  0  0  0  0  0  0  0  0  0  0  0
   -7.2751    4.6297  -18.3661 C   0  0  0  0  0  0  0  0  0  0  0  0
   -8.6160    4.2678  -18.2894 C   0  0  0  0  0  0  0  0  0  0  0  0
   -9.2480    4.1232  -17.0650 C   0  0  0  0  0  0  0  0  0  0  0  0
   -8.5575    4.3039  -15.8683 C   0  0  0  0  0  0  0  0  0  0  0  0
   -7.2191    4.6899  -15.9434 C   0  0  0  0  0  0  0  0  0  0  0  0
  1  2  1  0
  2  3  1  0
  4  2  1  6
  4  5  1  0
  5  6  2  0
  5  7  1  0
  7  8  1  0
  8  9  1  6
  8 10  1  0
 10 11  1  0
 11 12  1  0
 12 13  1  6
  4 14  1  0
 14 15  1  0
 15 16  2  0
 16 17  1  0
 17 18  2  0
 18 19  1  0
 19 20  2  0
 20 21  1  0
 21 22  2  0
 12  8  1  0
 22 14  1  0
 22 17  1  0
M  END
>  <energy_score>  (5092) 
-26.962719

>  <alias>  (5092) 
PLWOQKUAHGZKNS-UHFFFAOYSA-N-P219-P8-P219-601532

>  <HIPPO Pose ID>  (5092) 
89978

>  <smiles>  (5092) 
CC(C)C(C(=O)NC1(C)CCC1O)n1cnc2ccccc21

>  <inchikey>  (5092) 
PLWOQKUAHGZKNS-UHFFFAOYSA-N

>  <distance_score>  (5092) 
1.611322

>  <ref_mols>  (5092) 
Z0101a,Z3880a

>  <ref_pdb>  (5092) 
Z0089a

>  <HIPPO Compound ID>  (5092) 
147196

>  <name>  (5092) 
PLWOQKUAHGZKNS-UHFFFAOYSA-N-P219-P8-P219-601532

>  <inspiration_score>  (5092) 
None

$$$$
CRCDSJDOMNBHJN-UHFFFAOYSA-N-P219-P8-P219-601532
     RDKit          3D

 22 24  0  0  0  0  0  0  0  0999 V2000
   -3.6440    5.0672  -15.0510 C   0  0  0  0  0  0  0  0  0  0  0  0
   -5.0238    5.1059  -15.5888 C   0  0  0  0  0  0  0  0  0  0  0  0
   -5.2538    5.2870  -16.8712 N   0  0  0  0  0  0  0  0  0  0  0  0
   -6.5529    4.9332  -17.0511 C   0  0  0  0  0  0  0  0  0  0  0  0
   -7.2480    4.7887  -18.2562 C   0  0  0  0  0  0  0  0  0  0  0  0
   -8.5760    4.3764  -18.2157 C   0  0  0  0  0  0  0  0  0  0  0  0
   -9.1977    4.1199  -17.0069 C   0  0  0  0  0  0  0  0  0  0  0  0
   -8.5065    4.2279  -15.8014 C   0  0  0  0  0  0  0  0  0  0  0  0
   -7.1783    4.6620  -15.8319 C   0  0  0  0  0  0  0  0  0  0  0  0
   -6.2098    4.8895  -14.8680 N   0  0  0  0  0  0  0  0  0  0  0  0
   -6.3221    4.7531  -13.3928 C   0  0  2  0  0  0  0  0  0  0  0  0
   -7.7370    4.7056  -12.7234 C   0  0  0  0  0  0  0  0  0  0  0  0
   -8.6632    5.2878  -13.1453 O   0  0  0  0  0  0  0  0  0  0  0  0
   -7.5819    3.8548  -11.4098 N   0  0  0  0  0  0  0  0  0  0  0  0
   -8.5087    3.6365  -10.3155 C   0  0  1  0  0  0  0  0  0  0  0  0
   -8.4141    2.3236   -9.5827 C   0  0  0  0  0  0  0  0  0  0  0  0
   -9.0368    2.6443   -8.2379 C   0  0  0  0  0  0  0  0  0  0  0  0
   -8.7289    4.0181   -7.9530 O   0  0  0  0  0  0  0  0  0  0  0  0
   -8.3069    4.6353   -9.1771 C   0  0  0  0  0  0  0  0  0  0  0  0
   -5.7319    5.9473  -12.5676 C   0  0  0  0  0  0  0  0  0  0  0  0
   -5.8870    7.2995  -13.2497 C   0  0  0  0  0  0  0  0  0  0  0  0
   -4.3267    5.7330  -12.0001 C   0  0  0  0  0  0  0  0  0  0  0  0
  1  2  1  0
  2  3  2  0
  3  4  1  0
  4  5  2  0
  5  6  1  0
  6  7  2  0
  7  8  1  0
  8  9  2  0
  9 10  1  0
 10 11  1  0
 11 12  1  0
 12 13  2  0
 12 14  1  0
 15 14  1  6
 15 16  1  0
 16 17  1  0
 17 18  1  0
 18 19  1  0
 11 20  1  1
 20 21  1  0
 20 22  1  0
 10  2  1  0
 19 15  1  0
  9  4  1  0
M  END
>  <energy_score>  (5093) 
-2.937098

>  <alias>  (5093) 
CRCDSJDOMNBHJN-UHFFFAOYSA-N-P219-P8-P219-601532

>  <HIPPO Pose ID>  (5093) 
90000

>  <smiles>  (5093) 
Cc1nc2ccccc2n1C(C(=O)NC1CCOC1)C(C)C

>  <inchikey>  (5093) 
CRCDSJDOMNBHJN-UHFFFAOYSA-N

>  <distance_score>  (5093) 
1.436165

>  <ref_mols>  (5093) 
Z0101a,Z3880a

>  <ref_pdb>  (5093) 
Z0089a

>  <HIPPO Compound ID>  (5093) 
147207

>  <name>  (5093) 
CRCDSJDOMNBHJN-UHFFFAOYSA-N-P219-P8-P219-601532

>  <inspiration_score>  (5093) 
None

$$$$
BOLAQOOMFSEYIJ-UHFFFAOYSA-N-P219-P8-P219-601532
     RDKit          3D

 22 24  0  0  0  0  0  0  0  0999 V2000
   -3.6782    5.2403  -14.6944 C   0  0  0  0  0  0  0  0  0  0  0  0
   -4.9791    5.0101  -15.3744 C   0  0  0  0  0  0  0  0  0  0  0  0
   -5.1527    5.0950  -16.6780 N   0  0  0  0  0  0  0  0  0  0  0  0
   -6.4619    4.7720  -16.8967 C   0  0  0  0  0  0  0  0  0  0  0  0
   -7.1499    4.6714  -18.1134 C   0  0  0  0  0  0  0  0  0  0  0  0
   -8.5072    4.3553  -18.0896 C   0  0  0  0  0  0  0  0  0  0  0  0
   -9.1690    4.1700  -16.8836 C   0  0  0  0  0  0  0  0  0  0  0  0
   -8.4973    4.2608  -15.6637 C   0  0  0  0  0  0  0  0  0  0  0  0
   -7.1318    4.5465  -15.6936 C   0  0  0  0  0  0  0  0  0  0  0  0
   -6.1699    4.6849  -14.7097 N   0  0  0  0  0  0  0  0  0  0  0  0
   -6.4021    4.9311  -13.2502 C   0  0  2  0  0  0  0  0  0  0  0  0
   -7.2242    3.8905  -12.3997 C   0  0  0  0  0  0  0  0  0  0  0  0
   -7.9169    3.0715  -12.8692 O   0  0  0  0  0  0  0  0  0  0  0  0
   -6.9809    4.2779  -10.8904 N   0  0  0  0  0  0  0  0  0  0  0  0
   -7.6190    3.7923   -9.6780 C   0  0  0  0  0  0  0  0  0  0  0  0
   -8.1514    2.3519   -9.6309 C   0  0  0  0  0  0  0  0  0  0  0  0
   -8.6425    2.0247   -8.3237 O   0  0  0  0  0  0  0  0  0  0  0  0
   -8.4522    4.8181   -8.9267 C   0  0  0  0  0  0  0  0  0  0  0  0
   -7.1294    4.4180   -8.3708 C   0  0  0  0  0  0  0  0  0  0  0  0
   -6.9438    6.3871  -13.1453 C   0  0  0  0  0  0  0  0  0  0  0  0
   -6.1014    7.2309  -12.1955 C   0  0  0  0  0  0  0  0  0  0  0  0
   -8.4230    6.5345  -12.7933 C   0  0  0  0  0  0  0  0  0  0  0  0
  1  2  1  0
  2  3  2  0
  3  4  1  0
  4  5  2  0
  5  6  1  0
  6  7  2  0
  7  8  1  0
  8  9  2  0
  9 10  1  0
 10 11  1  0
 11 12  1  0
 12 13  2  0
 12 14  1  0
 14 15  1  0
 15 16  1  0
 16 17  1  0
 15 18  1  0
 18 19  1  0
 11 20  1  6
 20 21  1  0
 20 22  1  0
 10  2  1  0
 19 15  1  0
  9  4  1  0
M  END
>  <energy_score>  (5094) 
-8.739426

>  <alias>  (5094) 
BOLAQOOMFSEYIJ-UHFFFAOYSA-N-P219-P8-P219-601532

>  <HIPPO Pose ID>  (5094) 
90002

>  <smiles>  (5094) 
Cc1nc2ccccc2n1C(C(=O)NC1(CO)CC1)C(C)C

>  <inchikey>  (5094) 
BOLAQOOMFSEYIJ-UHFFFAOYSA-N

>  <distance_score>  (5094) 
1.639347

>  <ref_mols>  (5094) 
Z0101a,Z3880a

>  <ref_pdb>  (5094) 
Z0089a

>  <HIPPO Compound ID>  (5094) 
147208

>  <name>  (5094) 
BOLAQOOMFSEYIJ-UHFFFAOYSA-N-P219-P8-P219-601532

>  <inspiration_score>  (5094) 
None

$$$$
RSBHLNCHAVRNGO-UHFFFAOYSA-N-P8-P8-P219-601532
     RDKit          3D

 22 24  0  0  0  0  0  0  0  0999 V2000
   -3.0312    5.5119  -14.8064 C   0  0  0  0  0  0  0  0  0  0  0  0
   -4.4120    6.1051  -14.5779 C   0  0  0  0  0  0  0  0  0  0  0  0
   -5.4528    5.4435  -15.4199 C   0  0  0  0  0  0  0  0  0  0  0  0
   -5.4831    5.4961  -16.7415 N   0  0  0  0  0  0  0  0  0  0  0  0
   -6.6889    4.9588  -17.1055 C   0  0  0  0  0  0  0  0  0  0  0  0
   -7.2519    4.7815  -18.3740 C   0  0  0  0  0  0  0  0  0  0  0  0
   -8.5637    4.3001  -18.4690 C   0  0  0  0  0  0  0  0  0  0  0  0
   -9.2987    4.0042  -17.3244 C   0  0  0  0  0  0  0  0  0  0  0  0
   -8.7312    4.1235  -16.0558 C   0  0  0  0  0  0  0  0  0  0  0  0
   -7.4180    4.5889  -15.9842 C   0  0  0  0  0  0  0  0  0  0  0  0
   -6.5459    4.7442  -14.9273 N   0  0  0  0  0  0  0  0  0  0  0  0
   -6.7026    3.9942  -13.6635 C   0  0  1  0  0  0  0  0  0  0  0  0
   -5.4049    3.3441  -13.2222 C   0  0  0  0  0  0  0  0  0  0  0  0
   -7.3625    4.7786  -12.5082 C   0  0  0  0  0  0  0  0  0  0  0  0
   -7.5235    5.9398  -12.5420 O   0  0  0  0  0  0  0  0  0  0  0  0
   -7.6923    3.7376  -11.3759 N   0  0  0  0  0  0  0  0  0  0  0  0
   -8.3718    3.9125  -10.1043 C   0  0  1  0  0  0  0  0  0  0  0  0
   -8.7738    2.6152   -9.4059 C   0  0  0  0  0  0  0  0  0  0  0  0
   -9.0091    2.9421   -8.0290 O   0  0  0  0  0  0  0  0  0  0  0  0
   -8.2422    4.1104   -7.7281 C   0  0  0  0  0  0  0  0  0  0  0  0
   -7.5412    4.5577   -9.0101 C   0  0  2  0  0  0  0  0  0  0  0  0
   -7.4653    6.0677   -9.1164 C   0  0  0  0  0  0  0  0  0  0  0  0
  1  2  1  0
  2  3  1  0
  3  4  2  0
  4  5  1  0
  5  6  2  0
  6  7  1  0
  7  8  2  0
  8  9  1  0
  9 10  2  0
 10 11  1  0
 11 12  1  0
 12 13  1  1
 12 14  1  0
 14 15  2  0
 14 16  1  0
 17 16  1  6
 17 18  1  0
 18 19  1  0
 19 20  1  0
 20 21  1  0
 21 22  1  6
 11  3  1  0
 21 17  1  0
 10  5  1  0
M  END
>  <energy_score>  (5095) 
-4.976063

>  <alias>  (5095) 
RSBHLNCHAVRNGO-UHFFFAOYSA-N-P8-P8-P219-601532

>  <HIPPO Pose ID>  (5095) 
90057

>  <smiles>  (5095) 
CCc1nc2ccccc2n1C(C)C(=O)NC1COCC1C

>  <inchikey>  (5095) 
RSBHLNCHAVRNGO-UHFFFAOYSA-N

>  <distance_score>  (5095) 
1.681511

>  <ref_mols>  (5095) 
Z0101a,Z3880a

>  <ref_pdb>  (5095) 
Z0089a

>  <HIPPO Compound ID>  (5095) 
147237

>  <name>  (5095) 
RSBHLNCHAVRNGO-UHFFFAOYSA-N-P8-P8-P219-601532

>  <inspiration_score>  (5095) 
None

$$$$
KCQCKPCBCYJMGM-UHFFFAOYSA-N-P219-P8-P219-601532
     RDKit          3D

 22 24  0  0  0  0  0  0  0  0999 V2000
   -2.6105    5.3882  -15.4685 C   0  0  0  0  0  0  0  0  0  0  0  0
   -3.8770    5.6687  -14.6751 C   0  0  0  0  0  0  0  0  0  0  0  0
   -5.1157    5.3560  -15.4506 C   0  0  0  0  0  0  0  0  0  0  0  0
   -5.1962    5.3153  -16.7700 N   0  0  0  0  0  0  0  0  0  0  0  0
   -6.4621    4.8837  -17.0576 C   0  0  0  0  0  0  0  0  0  0  0  0
   -7.0634    4.6222  -18.2926 C   0  0  0  0  0  0  0  0  0  0  0  0
   -8.3987    4.2091  -18.3084 C   0  0  0  0  0  0  0  0  0  0  0  0
   -9.1264    4.0714  -17.1335 C   0  0  0  0  0  0  0  0  0  0  0  0
   -8.5358    4.3019  -15.8953 C   0  0  0  0  0  0  0  0  0  0  0  0
   -7.2006    4.7165  -15.8940 C   0  0  0  0  0  0  0  0  0  0  0  0
   -6.3430    5.0774  -14.8718 N   0  0  0  0  0  0  0  0  0  0  0  0
   -6.8436    5.3640  -13.5238 C   0  0  2  0  0  0  0  0  0  0  0  0
   -6.3049    6.6269  -12.8840 C   0  0  0  0  0  0  0  0  0  0  0  0
   -6.7625    4.2087  -12.5039 C   0  0  0  0  0  0  0  0  0  0  0  0
   -5.8400    3.4967  -12.3946 O   0  0  0  0  0  0  0  0  0  0  0  0
   -8.0800    4.2995  -11.6590 N   0  0  0  0  0  0  0  0  0  0  0  0
   -8.4759    3.5956  -10.4572 C   0  0  1  0  0  0  0  0  0  0  0  0
   -7.6544    2.4372   -9.9431 C   0  0  0  0  0  0  0  0  0  0  0  0
   -8.2403    2.1695   -8.6565 O   0  0  0  0  0  0  0  0  0  0  0  0
   -8.6116    3.4379   -8.0900 C   0  0  0  0  0  0  0  0  0  0  0  0
   -8.4994    4.4580   -9.2085 C   0  0  1  0  0  0  0  0  0  0  0  0
   -7.3251    5.1395   -9.0972 F   0  0  0  0  0  0  0  0  0  0  0  0
  1  2  1  0
  2  3  1  0
  3  4  2  0
  4  5  1  0
  5  6  2  0
  6  7  1  0
  7  8  2  0
  8  9  1  0
  9 10  2  0
 10 11  1  0
 11 12  1  0
 12 13  1  1
 12 14  1  0
 14 15  2  0
 14 16  1  0
 17 16  1  6
 17 18  1  0
 18 19  1  0
 19 20  1  0
 20 21  1  0
 21 22  1  1
 11  3  1  0
 21 17  1  0
 10  5  1  0
M  END
>  <energy_score>  (5096) 
-16.239704

>  <alias>  (5096) 
KCQCKPCBCYJMGM-UHFFFAOYSA-N-P219-P8-P219-601532

>  <HIPPO Pose ID>  (5096) 
90080

>  <smiles>  (5096) 
CCc1nc2ccccc2n1C(C)C(=O)NC1COCC1F

>  <inchikey>  (5096) 
KCQCKPCBCYJMGM-UHFFFAOYSA-N

>  <distance_score>  (5096) 
1.910843

>  <ref_mols>  (5096) 
Z0101a,Z3880a

>  <ref_pdb>  (5096) 
Z0089a

>  <HIPPO Compound ID>  (5096) 
147249

>  <name>  (5096) 
KCQCKPCBCYJMGM-UHFFFAOYSA-N-P219-P8-P219-601532

>  <inspiration_score>  (5096) 
None

$$$$
AASCGGAPVZVAJP-UHFFFAOYSA-N-P219-P8-P219-601532
     RDKit          3D

 22 24  0  0  0  0  0  0  0  0999 V2000
   -2.8222    4.9848  -14.5461 C   0  0  0  0  0  0  0  0  0  0  0  0
   -4.0398    5.8921  -14.4832 C   0  0  0  0  0  0  0  0  0  0  0  0
   -5.1781    5.3530  -15.2871 C   0  0  0  0  0  0  0  0  0  0  0  0
   -5.1858    5.3167  -16.6112 N   0  0  0  0  0  0  0  0  0  0  0  0
   -6.4218    4.8538  -16.9725 C   0  0  0  0  0  0  0  0  0  0  0  0
   -6.9657    4.6295  -18.2430 C   0  0  0  0  0  0  0  0  0  0  0  0
   -8.2954    4.2054  -18.3359 C   0  0  0  0  0  0  0  0  0  0  0  0
   -9.0816    4.0443  -17.2048 C   0  0  0  0  0  0  0  0  0  0  0  0
   -8.5480    4.2379  -15.9362 C   0  0  0  0  0  0  0  0  0  0  0  0
   -7.2048    4.6241  -15.8497 C   0  0  0  0  0  0  0  0  0  0  0  0
   -6.3747    4.8841  -14.7674 N   0  0  0  0  0  0  0  0  0  0  0  0
   -6.9207    4.9308  -13.3957 C   0  0  2  0  0  0  0  0  0  0  0  0
   -7.2911    6.3640  -13.0419 C   0  0  0  0  0  0  0  0  0  0  0  0
   -6.1641    4.2370  -12.2424 C   0  0  0  0  0  0  0  0  0  0  0  0
   -5.0230    3.9683  -12.2587 O   0  0  0  0  0  0  0  0  0  0  0  0
   -7.2321    4.0859  -11.0907 N   0  0  0  0  0  0  0  0  0  0  0  0
   -7.1155    3.4753   -9.7478 C   0  0  2  0  0  0  0  0  0  0  0  0
   -7.9472    2.1854   -9.6200 C   0  0  0  0  0  0  0  0  0  0  0  0
   -8.9429    2.8750   -8.6864 C   0  0  0  0  0  0  0  0  0  0  0  0
   -8.1022    4.1705   -8.7276 C   0  0  1  0  0  0  0  0  0  0  0  0
   -7.6111    4.5586   -7.3445 C   0  0  0  0  0  0  0  0  0  0  0  0
   -8.7575    5.3365   -9.2946 O   0  0  0  0  0  0  0  0  0  0  0  0
  1  2  1  0
  2  3  1  0
  3  4  2  0
  4  5  1  0
  5  6  2  0
  6  7  1  0
  7  8  2  0
  8  9  1  0
  9 10  2  0
 10 11  1  0
 11 12  1  0
 12 13  1  1
 12 14  1  0
 14 15  2  0
 14 16  1  0
 17 16  1  6
 17 18  1  0
 18 19  1  0
 19 20  1  0
 20 21  1  1
 20 22  1  0
 11  3  1  0
 20 17  1  0
 10  5  1  0
M  END
>  <energy_score>  (5097) 
-24.780405

>  <alias>  (5097) 
AASCGGAPVZVAJP-UHFFFAOYSA-N-P219-P8-P219-601532

>  <HIPPO Pose ID>  (5097) 
90090

>  <smiles>  (5097) 
CCc1nc2ccccc2n1C(C)C(=O)NC1CCC1(C)O

>  <inchikey>  (5097) 
AASCGGAPVZVAJP-UHFFFAOYSA-N

>  <distance_score>  (5097) 
1.643154

>  <ref_mols>  (5097) 
Z0101a,Z3880a

>  <ref_pdb>  (5097) 
Z0089a

>  <HIPPO Compound ID>  (5097) 
147254

>  <name>  (5097) 
AASCGGAPVZVAJP-UHFFFAOYSA-N-P219-P8-P219-601532

>  <inspiration_score>  (5097) 
None

$$$$
LMCXEXCSVXKWSC-UHFFFAOYSA-N-P8-P8-P219-601532
     RDKit          3D

 22 25  0  0  0  0  0  0  0  0999 V2000
   -4.8151    4.7516  -21.3284 C   0  0  0  0  0  0  0  0  0  0  0  0
   -4.0697    5.6250  -20.3085 C   0  0  0  0  0  0  0  0  0  0  0  0
   -3.0132    4.7837  -19.5891 C   0  0  0  0  0  0  0  0  0  0  0  0
   -5.0849    6.3644  -19.3775 C   0  0  2  0  0  0  0  0  0  0  0  0
   -5.0159    7.9287  -19.2978 C   0  0  0  0  0  0  0  0  0  0  0  0
   -5.9658    8.5542  -18.9642 O   0  0  0  0  0  0  0  0  0  0  0  0
   -3.6521    8.3967  -19.7951 N   0  0  0  0  0  0  0  0  0  0  0  0
   -3.1357    9.7941  -20.1078 C   0  0  1  0  0  0  0  0  0  0  0  0
   -3.7953   10.8895  -19.2681 C   0  0  0  0  0  0  0  0  0  0  0  0
   -3.3451   10.8202  -17.9114 O   0  0  0  0  0  0  0  0  0  0  0  0
   -3.1796    9.4688  -17.4691 C   0  0  0  0  0  0  0  0  0  0  0  0
   -2.6378    8.5915  -18.6038 C   0  0  2  0  0  0  0  0  0  0  0  0
   -1.7717    9.3054  -19.6339 C   0  0  0  0  0  0  0  0  0  0  0  0
   -5.2998    5.7892  -18.0503 N   0  0  0  0  0  0  0  0  0  0  0  0
   -4.4671    5.9372  -16.9747 C   0  0  0  0  0  0  0  0  0  0  0  0
   -5.0189    5.5369  -15.8548 N   0  0  0  0  0  0  0  0  0  0  0  0
   -6.2514    5.0559  -16.2201 C   0  0  0  0  0  0  0  0  0  0  0  0
   -7.2763    4.5365  -15.4167 C   0  0  0  0  0  0  0  0  0  0  0  0
   -8.4627    4.1170  -16.0255 C   0  0  0  0  0  0  0  0  0  0  0  0
   -8.6114    4.1696  -17.4087 C   0  0  0  0  0  0  0  0  0  0  0  0
   -7.5944    4.6764  -18.2238 C   0  0  0  0  0  0  0  0  0  0  0  0
   -6.4340    5.1474  -17.5997 C   0  0  0  0  0  0  0  0  0  0  0  0
  1  2  1  0
  2  3  1  0
  4  2  1  1
  4  5  1  0
  5  6  2  0
  5  7  1  0
  7  8  1  0
  8  9  1  1
  9 10  1  0
 10 11  1  0
 12 11  1  1
 12 13  1  0
  4 14  1  0
 14 15  1  0
 15 16  2  0
 16 17  1  0
 17 18  2  0
 18 19  1  0
 19 20  2  0
 20 21  1  0
 21 22  2  0
 12  7  1  0
 22 14  1  0
 13  8  1  0
 22 17  1  0
M  END
>  <energy_score>  (5098) 
-23.246083

>  <alias>  (5098) 
LMCXEXCSVXKWSC-UHFFFAOYSA-N-P8-P8-P219-601532

>  <HIPPO Pose ID>  (5098) 
90101

>  <smiles>  (5098) 
CC(C)C(C(=O)N1C2COCC1C2)n1cnc2ccccc21

>  <inchikey>  (5098) 
LMCXEXCSVXKWSC-UHFFFAOYSA-N

>  <distance_score>  (5098) 
1.328799

>  <ref_mols>  (5098) 
Z0101a,Z3880a

>  <ref_pdb>  (5098) 
Z0089a

>  <HIPPO Compound ID>  (5098) 
147260

>  <name>  (5098) 
LMCXEXCSVXKWSC-UHFFFAOYSA-N-P8-P8-P219-601532

>  <inspiration_score>  (5098) 
None

$$$$
YMYUHKKJRUPVRQ-UHFFFAOYSA-N-P8-P8-P219-601532
     RDKit          3D

 22 25  0  0  0  0  0  0  0  0999 V2000
   -5.9065    6.3026  -12.9017 O   0  0  0  0  0  0  0  0  0  0  0  0
   -6.5207    5.3505  -13.1710 C   0  0  0  0  0  0  0  0  0  0  0  0
   -7.5984    4.5998  -12.3710 N   0  0  0  0  0  0  0  0  0  0  0  0
   -8.0839    4.8063  -11.0239 C   0  0  1  0  0  0  0  0  0  0  0  0
   -8.0605    3.4085  -10.3700 C   0  0  0  0  0  0  0  0  0  0  0  0
   -8.4853    3.4034   -8.9136 C   0  0  0  0  0  0  0  0  0  0  0  0
   -7.7554    4.4598   -8.0988 C   0  0  0  0  0  0  0  0  0  0  0  0
   -7.8055    5.8446   -8.7444 C   0  0  0  0  0  0  0  0  0  0  0  0
   -7.3108    5.8403  -10.1893 C   0  0  1  0  0  0  0  0  0  0  0  0
   -5.9061    5.5701  -10.1605 O   0  0  0  0  0  0  0  0  0  0  0  0
   -6.2317    4.5941  -14.4358 C   0  0  0  0  0  0  0  0  0  0  0  0
   -6.4656    5.2630  -15.7559 N   0  0  0  0  0  0  0  0  0  0  0  0
   -5.4210    5.8020  -16.4675 C   0  0  0  0  0  0  0  0  0  0  0  0
   -5.5656    5.6008  -17.7568 N   0  0  0  0  0  0  0  0  0  0  0  0
   -6.7833    4.9664  -17.8694 C   0  0  0  0  0  0  0  0  0  0  0  0
   -7.4079    4.4367  -18.9957 C   0  0  0  0  0  0  0  0  0  0  0  0
   -8.7302    3.9837  -18.9032 C   0  0  0  0  0  0  0  0  0  0  0  0
   -9.3882    3.9511  -17.6785 C   0  0  0  0  0  0  0  0  0  0  0  0
   -8.7227    4.3251  -16.5060 C   0  0  0  0  0  0  0  0  0  0  0  0
   -7.4295    4.8525  -16.6437 C   0  0  0  0  0  0  0  0  0  0  0  0
   -5.0013    3.6713  -14.4089 C   0  0  0  0  0  0  0  0  0  0  0  0
   -6.3621    3.0772  -14.3130 C   0  0  0  0  0  0  0  0  0  0  0  0
  1  2  2  0
  2  3  1  0
  4  3  1  6
  4  5  1  0
  5  6  1  0
  6  7  1  0
  7  8  1  0
  8  9  1  0
  9 10  1  1
  2 11  1  0
 11 12  1  0
 12 13  1  0
 13 14  2  0
 14 15  1  0
 15 16  2  0
 16 17  1  0
 17 18  2  0
 18 19  1  0
 19 20  2  0
 11 21  1  0
 21 22  1  0
  9  4  1  0
 22 11  1  0
 20 12  1  0
 20 15  1  0
M  END
>  <energy_score>  (5099) 
-12.095364

>  <alias>  (5099) 
YMYUHKKJRUPVRQ-UHFFFAOYSA-N-P8-P8-P219-601532

>  <HIPPO Pose ID>  (5099) 
90125

>  <smiles>  (5099) 
O=C(NC1CCCCC1O)C1(n2cnc3ccccc32)CC1

>  <inchikey>  (5099) 
YMYUHKKJRUPVRQ-UHFFFAOYSA-N

>  <distance_score>  (5099) 
1.391779

>  <ref_mols>  (5099) 
Z0101a,Z3880a

>  <ref_pdb>  (5099) 
Z0089a

>  <HIPPO Compound ID>  (5099) 
147272

>  <name>  (5099) 
YMYUHKKJRUPVRQ-UHFFFAOYSA-N-P8-P8-P219-601532

>  <inspiration_score>  (5099) 
None

$$$$
PLXZHCBAMGBBPY-UHFFFAOYSA-N-P8-P8-P219-601533
     RDKit          3D

 22 25  0  0  0  0  0  0  0  0999 V2000
   -9.4769    1.9390   -8.0191 C   0  0  0  0  0  0  0  0  0  0  0  0
   -8.1994    2.7456   -8.0875 C   0  0  1  0  0  0  0  0  0  0  0  0
   -7.4091    2.5787   -9.3775 C   0  0  0  0  0  0  0  0  0  0  0  0
   -8.1080    3.5393  -10.3145 C   0  0  2  0  0  0  0  0  0  0  0  0
   -7.3409    4.0425  -11.4442 N   0  0  0  0  0  0  0  0  0  0  0  0
   -7.7951    4.8208  -12.6960 C   0  0  0  0  0  0  0  0  0  0  0  0
   -8.8632    5.1133  -13.0564 O   0  0  0  0  0  0  0  0  0  0  0  0
   -6.6080    5.3592  -13.5119 C   0  0  0  0  0  0  0  0  0  0  0  0
   -6.3453    4.8222  -14.9286 N   0  0  0  0  0  0  0  0  0  0  0  0
   -5.1233    4.9467  -15.5588 C   0  0  0  0  0  0  0  0  0  0  0  0
   -5.2155    4.8750  -16.8673 N   0  0  0  0  0  0  0  0  0  0  0  0
   -6.5451    4.6365  -17.1048 C   0  0  0  0  0  0  0  0  0  0  0  0
   -7.2021    4.4797  -18.3348 C   0  0  0  0  0  0  0  0  0  0  0  0
   -8.5730    4.2140  -18.3462 C   0  0  0  0  0  0  0  0  0  0  0  0
   -9.2744    4.0986  -17.1528 C   0  0  0  0  0  0  0  0  0  0  0  0
   -8.6387    4.2658  -15.9187 C   0  0  0  0  0  0  0  0  0  0  0  0
   -7.2722    4.5554  -15.9114 C   0  0  0  0  0  0  0  0  0  0  0  0
   -6.5050    6.8951  -13.4029 C   0  0  0  0  0  0  0  0  0  0  0  0
   -5.4994    6.0520  -12.6982 C   0  0  0  0  0  0  0  0  0  0  0  0
   -8.3798    4.6587   -9.3113 C   0  0  0  0  0  0  0  0  0  0  0  0
   -8.4344    5.8568   -9.5453 O   0  0  0  0  0  0  0  0  0  0  0  0
   -8.5227    4.1409   -8.0512 O   0  0  0  0  0  0  0  0  0  0  0  0
  2  1  1  6
  2  3  1  0
  3  4  1  0
  4  5  1  6
  5  6  1  0
  6  7  2  0
  6  8  1  0
  8  9  1  0
  9 10  1  0
 10 11  2  0
 11 12  1  0
 12 13  2  0
 13 14  1  0
 14 15  2  0
 15 16  1  0
 16 17  2  0
  8 18  1  0
 18 19  1  0
  4 20  1  0
 20 21  2  0
 20 22  1  0
 22  2  1  0
 19  8  1  0
 17  9  1  0
 17 12  1  0
M  END
>  <energy_score>  (5100) 
-43.693459

>  <alias>  (5100) 
PLXZHCBAMGBBPY-UHFFFAOYSA-N-P8-P8-P219-601533

>  <HIPPO Pose ID>  (5100) 
90135

>  <smiles>  (5100) 
CC1CC(NC(=O)C2(n3cnc4ccccc43)CC2)C(=O)O1

>  <inchikey>  (5100) 
PLXZHCBAMGBBPY-UHFFFAOYSA-N

>  <distance_score>  (5100) 
1.502242

>  <ref_mols>  (5100) 
Z0101a,Z3880a

>  <ref_pdb>  (5100) 
Z0101a

>  <HIPPO Compound ID>  (5100) 
147277

>  <name>  (5100) 
PLXZHCBAMGBBPY-UHFFFAOYSA-N-P8-P8-P219-601533

>  <inspiration_score>  (5100) 
None

$$$$
IZRLLYVVVVRYJX-UHFFFAOYSA-N-P219-P8-P219-601533
     RDKit          3D

 23 25  0  0  0  0  0  0  0  0999 V2000
   -2.5424    5.6416  -16.2337 C   0  0  0  0  0  0  0  0  0  0  0  0
   -3.6337    5.6145  -15.1708 C   0  0  0  0  0  0  0  0  0  0  0  0
   -4.9966    5.3930  -15.7483 C   0  0  0  0  0  0  0  0  0  0  0  0
   -5.2469    5.4429  -17.0409 N   0  0  0  0  0  0  0  0  0  0  0  0
   -6.5232    4.9947  -17.1844 C   0  0  0  0  0  0  0  0  0  0  0  0
   -7.2317    4.7613  -18.3652 C   0  0  0  0  0  0  0  0  0  0  0  0
   -8.5449    4.3070  -18.2767 C   0  0  0  0  0  0  0  0  0  0  0  0
   -9.1362    4.0802  -17.0455 C   0  0  0  0  0  0  0  0  0  0  0  0
   -8.4243    4.2545  -15.8615 C   0  0  0  0  0  0  0  0  0  0  0  0
   -7.1166    4.7438  -15.9493 C   0  0  0  0  0  0  0  0  0  0  0  0
   -6.1478    5.0650  -15.0162 N   0  0  0  0  0  0  0  0  0  0  0  0
   -6.2387    4.8692  -13.5523 C   0  0  1  0  0  0  0  0  0  0  0  0
   -5.4882    5.9284  -12.7500 C   0  0  0  0  0  0  0  0  0  0  0  0
   -7.6421    4.9160  -12.8891 C   0  0  0  0  0  0  0  0  0  0  0  0
   -8.5010    5.6252  -13.2527 O   0  0  0  0  0  0  0  0  0  0  0  0
   -7.5793    3.9470  -11.6597 N   0  0  0  0  0  0  0  0  0  0  0  0
   -8.5271    3.7316  -10.5802 C   0  0  1  0  0  0  0  0  0  0  0  0
   -8.6753    2.2980  -10.1586 C   0  0  0  0  0  0  0  0  0  0  0  0
   -8.5770    2.2973   -8.6486 C   0  0  2  0  0  0  0  0  0  0  0  0
   -9.8115    1.8324   -7.9140 C   0  0  0  0  0  0  0  0  0  0  0  0
   -8.2593    3.6249   -8.2279 O   0  0  0  0  0  0  0  0  0  0  0  0
   -8.1388    4.4454   -9.3036 C   0  0  0  0  0  0  0  0  0  0  0  0
   -7.7569    5.6047   -9.2276 O   0  0  0  0  0  0  0  0  0  0  0  0
  1  2  1  0
  2  3  1  0
  3  4  2  0
  4  5  1  0
  5  6  2  0
  6  7  1  0
  7  8  2  0
  8  9  1  0
  9 10  2  0
 10 11  1  0
 11 12  1  0
 12 13  1  1
 12 14  1  0
 14 15  2  0
 14 16  1  0
 17 16  1  6
 17 18  1  0
 18 19  1  0
 19 20  1  1
 19 21  1  0
 21 22  1  0
 22 23  2  0
 11  3  1  0
 22 17  1  0
 10  5  1  0
M  END
>  <energy_score>  (5101) 
-16.768974

>  <alias>  (5101) 
IZRLLYVVVVRYJX-UHFFFAOYSA-N-P219-P8-P219-601533

>  <HIPPO Pose ID>  (5101) 
90148

>  <smiles>  (5101) 
CCc1nc2ccccc2n1C(C)C(=O)NC1CC(C)OC1=O

>  <inchikey>  (5101) 
IZRLLYVVVVRYJX-UHFFFAOYSA-N

>  <distance_score>  (5101) 
1.490512

>  <ref_mols>  (5101) 
Z0101a,Z3880a

>  <ref_pdb>  (5101) 
Z0101a

>  <HIPPO Compound ID>  (5101) 
147283

>  <name>  (5101) 
IZRLLYVVVVRYJX-UHFFFAOYSA-N-P219-P8-P219-601533

>  <inspiration_score>  (5101) 
None

$$$$
YZTHMSBEOLVCHU-UHFFFAOYSA-N-P219-P8-P219-601533
     RDKit          3D

 23 25  0  0  0  0  0  0  0  0999 V2000
   -3.6747    5.1474  -15.1411 C   0  0  0  0  0  0  0  0  0  0  0  0
   -5.0422    5.0946  -15.7252 C   0  0  0  0  0  0  0  0  0  0  0  0
   -5.2588    5.1782  -17.0192 N   0  0  0  0  0  0  0  0  0  0  0  0
   -6.5678    4.8418  -17.1818 C   0  0  0  0  0  0  0  0  0  0  0  0
   -7.2671    4.6629  -18.3766 C   0  0  0  0  0  0  0  0  0  0  0  0
   -8.6075    4.2954  -18.3135 C   0  0  0  0  0  0  0  0  0  0  0  0
   -9.2377    4.1057  -17.0965 C   0  0  0  0  0  0  0  0  0  0  0  0
   -8.5428    4.2442  -15.8982 C   0  0  0  0  0  0  0  0  0  0  0  0
   -7.2054    4.6417  -15.9555 C   0  0  0  0  0  0  0  0  0  0  0  0
   -6.2389    4.9052  -15.0122 N   0  0  0  0  0  0  0  0  0  0  0  0
   -6.3519    4.9672  -13.5303 C   0  0  2  0  0  0  0  0  0  0  0  0
   -7.7398    4.8196  -12.8196 C   0  0  0  0  0  0  0  0  0  0  0  0
   -8.7084    5.3442  -13.2232 O   0  0  0  0  0  0  0  0  0  0  0  0
   -7.5080    3.9792  -11.5110 N   0  0  0  0  0  0  0  0  0  0  0  0
   -8.4038    3.7018  -10.3935 C   0  0  1  0  0  0  0  0  0  0  0  0
   -8.6643    2.2533  -10.0258 C   0  0  0  0  0  0  0  0  0  0  0  0
   -9.1273    2.2430   -8.6610 O   0  0  0  0  0  0  0  0  0  0  0  0
   -8.6971    3.4556   -8.0406 C   0  0  0  0  0  0  0  0  0  0  0  0
   -7.8734    4.2254   -9.0613 C   0  0  2  0  0  0  0  0  0  0  0  0
   -8.0237    5.6334   -8.9380 O   0  0  0  0  0  0  0  0  0  0  0  0
   -5.7965    6.3305  -13.0231 C   0  0  0  0  0  0  0  0  0  0  0  0
   -5.7327    6.4309  -11.5057 C   0  0  0  0  0  0  0  0  0  0  0  0
   -6.5212    7.5627  -13.5817 C   0  0  0  0  0  0  0  0  0  0  0  0
  1  2  1  0
  2  3  2  0
  3  4  1  0
  4  5  2  0
  5  6  1  0
  6  7  2  0
  7  8  1  0
  8  9  2  0
  9 10  1  0
 10 11  1  0
 11 12  1  0
 12 13  2  0
 12 14  1  0
 15 14  1  6
 15 16  1  0
 16 17  1  0
 17 18  1  0
 18 19  1  0
 19 20  1  6
 11 21  1  6
 21 22  1  0
 21 23  1  0
 10  2  1  0
 19 15  1  0
  9  4  1  0
M  END
>  <energy_score>  (5102) 
-4.04054

>  <alias>  (5102) 
YZTHMSBEOLVCHU-UHFFFAOYSA-N-P219-P8-P219-601533

>  <HIPPO Pose ID>  (5102) 
90156

>  <smiles>  (5102) 
Cc1nc2ccccc2n1C(C(=O)NC1COCC1O)C(C)C

>  <inchikey>  (5102) 
YZTHMSBEOLVCHU-UHFFFAOYSA-N

>  <distance_score>  (5102) 
1.457761

>  <ref_mols>  (5102) 
Z0101a,Z3880a

>  <ref_pdb>  (5102) 
Z0101a

>  <HIPPO Compound ID>  (5102) 
147287

>  <name>  (5102) 
YZTHMSBEOLVCHU-UHFFFAOYSA-N-P219-P8-P219-601533

>  <inspiration_score>  (5102) 
None

$$$$
BJFGDJPQRFNEJH-UHFFFAOYSA-N-P219-P8-P219-601533
     RDKit          3D

 23 25  0  0  0  0  0  0  0  0999 V2000
   -3.5678    5.0411  -15.2596 C   0  0  0  0  0  0  0  0  0  0  0  0
   -4.9724    5.0889  -15.7541 C   0  0  0  0  0  0  0  0  0  0  0  0
   -5.2511    5.2616  -17.0279 N   0  0  0  0  0  0  0  0  0  0  0  0
   -6.5595    4.9160  -17.1530 C   0  0  0  0  0  0  0  0  0  0  0  0
   -7.3007    4.7729  -18.3282 C   0  0  0  0  0  0  0  0  0  0  0  0
   -8.6307    4.3763  -18.2341 C   0  0  0  0  0  0  0  0  0  0  0  0
   -9.2087    4.1259  -17.0017 C   0  0  0  0  0  0  0  0  0  0  0  0
   -8.4719    4.2295  -15.8236 C   0  0  0  0  0  0  0  0  0  0  0  0
   -7.1431    4.6533  -15.9126 C   0  0  0  0  0  0  0  0  0  0  0  0
   -6.1379    4.8776  -14.9925 N   0  0  0  0  0  0  0  0  0  0  0  0
   -6.1876    4.7391  -13.5045 C   0  0  2  0  0  0  0  0  0  0  0  0
   -7.5813    4.7362  -12.7815 C   0  0  0  0  0  0  0  0  0  0  0  0
   -8.4875    5.3668  -13.1758 O   0  0  0  0  0  0  0  0  0  0  0  0
   -7.4373    3.8680  -11.4837 N   0  0  0  0  0  0  0  0  0  0  0  0
   -8.3489    3.6829  -10.3676 C   0  0  1  0  0  0  0  0  0  0  0  0
   -8.5501    2.2711   -9.8775 C   0  0  0  0  0  0  0  0  0  0  0  0
   -9.0783    2.4671   -8.4632 C   0  0  0  0  0  0  0  0  0  0  0  0
   -8.6438    3.7626   -8.0104 O   0  0  0  0  0  0  0  0  0  0  0  0
   -7.8811    4.3531   -9.0736 C   0  0  2  0  0  0  0  0  0  0  0  0
   -8.0593    5.8554   -9.0548 C   0  0  0  0  0  0  0  0  0  0  0  0
   -5.4160    5.9137  -12.8316 C   0  0  0  0  0  0  0  0  0  0  0  0
   -6.2242    7.2060  -12.7262 C   0  0  0  0  0  0  0  0  0  0  0  0
   -4.7898    5.5444  -11.4830 C   0  0  0  0  0  0  0  0  0  0  0  0
  1  2  1  0
  2  3  2  0
  3  4  1  0
  4  5  2  0
  5  6  1  0
  6  7  2  0
  7  8  1  0
  8  9  2  0
  9 10  1  0
 10 11  1  0
 11 12  1  0
 12 13  2  0
 12 14  1  0
 15 14  1  6
 15 16  1  0
 16 17  1  0
 17 18  1  0
 18 19  1  0
 19 20  1  6
 11 21  1  1
 21 22  1  0
 21 23  1  0
 10  2  1  0
 19 15  1  0
  9  4  1  0
M  END
>  <energy_score>  (5103) 
-23.990511

>  <alias>  (5103) 
BJFGDJPQRFNEJH-UHFFFAOYSA-N-P219-P8-P219-601533

>  <HIPPO Pose ID>  (5103) 
90210

>  <smiles>  (5103) 
Cc1nc2ccccc2n1C(C(=O)NC1CCOC1C)C(C)C

>  <inchikey>  (5103) 
BJFGDJPQRFNEJH-UHFFFAOYSA-N

>  <distance_score>  (5103) 
1.420638

>  <ref_mols>  (5103) 
Z0101a,Z3880a

>  <ref_pdb>  (5103) 
Z0101a

>  <HIPPO Compound ID>  (5103) 
147314

>  <name>  (5103) 
BJFGDJPQRFNEJH-UHFFFAOYSA-N-P219-P8-P219-601533

>  <inspiration_score>  (5103) 
None

$$$$
SNTZPWWZEAYXOR-UHFFFAOYSA-N-P219-P8-P219-601533
     RDKit          3D

 23 25  0  0  0  0  0  0  0  0999 V2000
   -3.7014    5.4443  -14.9686 C   0  0  0  0  0  0  0  0  0  0  0  0
   -4.9969    5.1508  -15.6336 C   0  0  0  0  0  0  0  0  0  0  0  0
   -5.1753    5.1627  -16.9385 N   0  0  0  0  0  0  0  0  0  0  0  0
   -6.4814    4.8096  -17.1315 C   0  0  0  0  0  0  0  0  0  0  0  0
   -7.1733    4.6285  -18.3331 C   0  0  0  0  0  0  0  0  0  0  0  0
   -8.5261    4.2923  -18.2804 C   0  0  0  0  0  0  0  0  0  0  0  0
   -9.1859    4.1677  -17.0679 C   0  0  0  0  0  0  0  0  0  0  0  0
   -8.5086    4.3382  -15.8639 C   0  0  0  0  0  0  0  0  0  0  0  0
   -7.1453    4.6404  -15.9179 C   0  0  0  0  0  0  0  0  0  0  0  0
   -6.1756    4.8287  -14.9561 N   0  0  0  0  0  0  0  0  0  0  0  0
   -6.3785    4.9831  -13.4883 C   0  0  2  0  0  0  0  0  0  0  0  0
   -7.1390    3.8465  -12.7362 C   0  0  0  0  0  0  0  0  0  0  0  0
   -7.8663    3.1157  -13.2776 O   0  0  0  0  0  0  0  0  0  0  0  0
   -6.7940    3.9887  -11.2253 N   0  0  0  0  0  0  0  0  0  0  0  0
   -7.2123    3.1819  -10.0730 C   0  0  2  0  0  0  0  0  0  0  0  0
   -6.3304    1.9296  -10.0414 C   0  0  0  0  0  0  0  0  0  0  0  0
   -8.6905    2.8047  -10.0880 C   0  0  0  0  0  0  0  0  0  0  0  0
   -9.0208    2.6613   -8.6156 C   0  0  0  0  0  0  0  0  0  0  0  0
   -8.3181    3.7362   -7.9758 O   0  0  0  0  0  0  0  0  0  0  0  0
   -7.1493    4.0034   -8.7682 C   0  0  0  0  0  0  0  0  0  0  0  0
   -6.9614    6.3950  -13.2320 C   0  0  0  0  0  0  0  0  0  0  0  0
   -6.1324    7.1488  -12.1975 C   0  0  0  0  0  0  0  0  0  0  0  0
   -8.4355    6.4508  -12.8348 C   0  0  0  0  0  0  0  0  0  0  0  0
  1  2  1  0
  2  3  2  0
  3  4  1  0
  4  5  2  0
  5  6  1  0
  6  7  2  0
  7  8  1  0
  8  9  2  0
  9 10  1  0
 10 11  1  0
 11 12  1  0
 12 13  2  0
 12 14  1  0
 14 15  1  0
 15 16  1  1
 15 17  1  0
 17 18  1  0
 18 19  1  0
 19 20  1  0
 11 21  1  6
 21 22  1  0
 21 23  1  0
 10  2  1  0
 20 15  1  0
  9  4  1  0
M  END
>  <energy_score>  (5104) 
-5.525046

>  <alias>  (5104) 
SNTZPWWZEAYXOR-UHFFFAOYSA-N-P219-P8-P219-601533

>  <HIPPO Pose ID>  (5104) 
90212

>  <smiles>  (5104) 
Cc1nc2ccccc2n1C(C(=O)NC1(C)CCOC1)C(C)C

>  <inchikey>  (5104) 
SNTZPWWZEAYXOR-UHFFFAOYSA-N

>  <distance_score>  (5104) 
1.807888

>  <ref_mols>  (5104) 
Z0101a,Z3880a

>  <ref_pdb>  (5104) 
Z0101a

>  <HIPPO Compound ID>  (5104) 
147315

>  <name>  (5104) 
SNTZPWWZEAYXOR-UHFFFAOYSA-N-P219-P8-P219-601533

>  <inspiration_score>  (5104) 
None

$$$$
LOZRMXPRVTXOFM-UHFFFAOYSA-N-P8-P8-P219-601533
     RDKit          3D

 23 25  0  0  0  0  0  0  0  0999 V2000
   -4.8335    6.7595  -14.8718 C   0  0  0  0  0  0  0  0  0  0  0  0
   -5.7031    5.7940  -15.5914 C   0  0  0  0  0  0  0  0  0  0  0  0
   -5.7043    5.6661  -16.9055 N   0  0  0  0  0  0  0  0  0  0  0  0
   -6.8604    5.0038  -17.1989 C   0  0  0  0  0  0  0  0  0  0  0  0
   -7.4182    4.6965  -18.4419 C   0  0  0  0  0  0  0  0  0  0  0  0
   -8.7148    4.1775  -18.4831 C   0  0  0  0  0  0  0  0  0  0  0  0
   -9.4157    3.9291  -17.3060 C   0  0  0  0  0  0  0  0  0  0  0  0
   -8.8281    4.1259  -16.0544 C   0  0  0  0  0  0  0  0  0  0  0  0
   -7.5509    4.6783  -16.0391 C   0  0  0  0  0  0  0  0  0  0  0  0
   -6.6852    4.9911  -15.0101 N   0  0  0  0  0  0  0  0  0  0  0  0
   -6.6460    4.1867  -13.7526 C   0  0  2  0  0  0  0  0  0  0  0  0
   -7.7151    4.5563  -12.6626 C   0  0  0  0  0  0  0  0  0  0  0  0
   -8.2933    5.5776  -12.6264 O   0  0  0  0  0  0  0  0  0  0  0  0
   -7.7220    3.3431  -11.6542 N   0  0  0  0  0  0  0  0  0  0  0  0
   -8.3888    3.1910  -10.3197 C   0  0  1  0  0  0  0  0  0  0  0  0
   -7.5197    2.1982   -9.4673 C   0  0  0  0  0  0  0  0  0  0  0  0
   -6.7955    3.3521   -8.9247 O   0  0  0  0  0  0  0  0  0  0  0  0
   -8.0226    4.1406   -9.1036 C   0  0  0  0  0  0  0  0  0  0  0  0
   -8.8008    4.0069   -7.7774 C   0  0  0  0  0  0  0  0  0  0  0  0
   -7.7073    5.5933   -9.3972 C   0  0  0  0  0  0  0  0  0  0  0  0
   -5.2125    4.0785  -13.1840 C   0  0  0  0  0  0  0  0  0  0  0  0
   -4.9311    5.0894  -12.0745 C   0  0  0  0  0  0  0  0  0  0  0  0
   -4.8030    2.6684  -12.7262 C   0  0  0  0  0  0  0  0  0  0  0  0
  1  2  1  0
  2  3  2  0
  3  4  1  0
  4  5  2  0
  5  6  1  0
  6  7  2  0
  7  8  1  0
  8  9  2  0
  9 10  1  0
 10 11  1  0
 11 12  1  0
 12 13  2  0
 12 14  1  0
 15 14  1  6
 15 16  1  0
 16 17  1  0
 17 18  1  0
 18 19  1  0
 18 20  1  0
 11 21  1  1
 21 22  1  0
 21 23  1  0
 10  2  1  0
 18 15  1  0
  9  4  1  0
M  END
>  <energy_score>  (5105) 
-15.908822

>  <alias>  (5105) 
LOZRMXPRVTXOFM-UHFFFAOYSA-N-P8-P8-P219-601533

>  <HIPPO Pose ID>  (5105) 
90227

>  <smiles>  (5105) 
Cc1nc2ccccc2n1C(C(=O)NC1COC1(C)C)C(C)C

>  <inchikey>  (5105) 
LOZRMXPRVTXOFM-UHFFFAOYSA-N

>  <distance_score>  (5105) 
1.54126

>  <ref_mols>  (5105) 
Z0101a,Z3880a

>  <ref_pdb>  (5105) 
Z0101a

>  <HIPPO Compound ID>  (5105) 
147323

>  <name>  (5105) 
LOZRMXPRVTXOFM-UHFFFAOYSA-N-P8-P8-P219-601533

>  <inspiration_score>  (5105) 
None

$$$$
YYOTWMJSMWDHFW-UHFFFAOYSA-N-P8-P8-P219-601533
     RDKit          3D

 23 25  0  0  0  0  0  0  0  0999 V2000
   -4.9545    6.9961  -14.6685 C   0  0  0  0  0  0  0  0  0  0  0  0
   -5.7175    5.9622  -15.4059 C   0  0  0  0  0  0  0  0  0  0  0  0
   -5.6726    5.8295  -16.7204 N   0  0  0  0  0  0  0  0  0  0  0  0
   -6.7858    5.1094  -17.0450 C   0  0  0  0  0  0  0  0  0  0  0  0
   -7.3102    4.7943  -18.3030 C   0  0  0  0  0  0  0  0  0  0  0  0
   -8.5822    4.2198  -18.3692 C   0  0  0  0  0  0  0  0  0  0  0  0
   -9.2904    3.9318  -17.2050 C   0  0  0  0  0  0  0  0  0  0  0  0
   -8.7327    4.1401  -15.9410 C   0  0  0  0  0  0  0  0  0  0  0  0
   -7.4782    4.7423  -15.8976 C   0  0  0  0  0  0  0  0  0  0  0  0
   -6.6469    5.0938  -14.8493 N   0  0  0  0  0  0  0  0  0  0  0  0
   -6.6246    4.3353  -13.5781 C   0  0  2  0  0  0  0  0  0  0  0  0
   -7.5404    4.8538  -12.4173 C   0  0  0  0  0  0  0  0  0  0  0  0
   -7.9939    5.9389  -12.3778 O   0  0  0  0  0  0  0  0  0  0  0  0
   -7.5961    3.6796  -11.3534 N   0  0  0  0  0  0  0  0  0  0  0  0
   -8.1382    3.6544  -10.0031 C   0  0  0  0  0  0  0  0  0  0  0  0
   -8.2452    4.9656   -9.2294 C   0  0  1  0  0  0  0  0  0  0  0  0
   -8.3030    4.8448   -7.7049 C   0  0  0  0  0  0  0  0  0  0  0  0
   -7.1379    5.8115   -9.5333 O   0  0  0  0  0  0  0  0  0  0  0  0
   -7.7798    2.3846   -9.2239 C   0  0  0  0  0  0  0  0  0  0  0  0
   -9.1793    2.6033   -9.6822 C   0  0  0  0  0  0  0  0  0  0  0  0
   -5.2185    4.0217  -13.0063 C   0  0  0  0  0  0  0  0  0  0  0  0
   -4.6119    5.1380  -12.1539 C   0  0  0  0  0  0  0  0  0  0  0  0
   -4.2007    3.4764  -14.0122 C   0  0  0  0  0  0  0  0  0  0  0  0
  1  2  1  0
  2  3  2  0
  3  4  1  0
  4  5  2  0
  5  6  1  0
  6  7  2  0
  7  8  1  0
  8  9  2  0
  9 10  1  0
 10 11  1  0
 11 12  1  0
 12 13  2  0
 12 14  1  0
 14 15  1  0
 15 16  1  0
 16 17  1  1
 16 18  1  0
 15 19  1  0
 19 20  1  0
 11 21  1  1
 21 22  1  0
 21 23  1  0
 10  2  1  0
 20 15  1  0
  9  4  1  0
M  END
>  <energy_score>  (5106) 
-24.111414

>  <alias>  (5106) 
YYOTWMJSMWDHFW-UHFFFAOYSA-N-P8-P8-P219-601533

>  <HIPPO Pose ID>  (5106) 
90231

>  <smiles>  (5106) 
Cc1nc2ccccc2n1C(C(=O)NC1(C(C)O)CC1)C(C)C

>  <inchikey>  (5106) 
YYOTWMJSMWDHFW-UHFFFAOYSA-N

>  <distance_score>  (5106) 
1.581573

>  <ref_mols>  (5106) 
Z0101a,Z3880a

>  <ref_pdb>  (5106) 
Z0101a

>  <HIPPO Compound ID>  (5106) 
147325

>  <name>  (5106) 
YYOTWMJSMWDHFW-UHFFFAOYSA-N-P8-P8-P219-601533

>  <inspiration_score>  (5106) 
None

$$$$
MNZYBYDMNKJPAG-UHFFFAOYSA-N-P8-P8-P219-601533
     RDKit          3D

 23 25  0  0  0  0  0  0  0  0999 V2000
   -3.8537    4.6941  -15.0945 C   0  0  0  0  0  0  0  0  0  0  0  0
   -5.1977    4.7932  -15.7101 C   0  0  0  0  0  0  0  0  0  0  0  0
   -5.3705    4.9270  -17.0064 N   0  0  0  0  0  0  0  0  0  0  0  0
   -6.6948    4.6889  -17.2106 C   0  0  0  0  0  0  0  0  0  0  0  0
   -7.3728    4.5670  -18.4304 C   0  0  0  0  0  0  0  0  0  0  0  0
   -8.7302    4.2518  -18.4272 C   0  0  0  0  0  0  0  0  0  0  0  0
   -9.3926    4.0540  -17.2252 C   0  0  0  0  0  0  0  0  0  0  0  0
   -8.7251    4.1653  -16.0004 C   0  0  0  0  0  0  0  0  0  0  0  0
   -7.3724    4.5143  -16.0009 C   0  0  0  0  0  0  0  0  0  0  0  0
   -6.4217    4.7311  -15.0250 N   0  0  0  0  0  0  0  0  0  0  0  0
   -6.5487    4.8022  -13.5497 C   0  0  2  0  0  0  0  0  0  0  0  0
   -7.9250    4.6891  -12.8327 C   0  0  0  0  0  0  0  0  0  0  0  0
   -8.9206    5.1063  -13.2879 O   0  0  0  0  0  0  0  0  0  0  0  0
   -7.6422    4.0377  -11.4297 N   0  0  0  0  0  0  0  0  0  0  0  0
   -8.5087    3.8632  -10.2850 C   0  0  1  0  0  0  0  0  0  0  0  0
   -8.6683    2.5007   -9.6494 C   0  0  0  0  0  0  0  0  0  0  0  0
   -9.0640    2.7161   -8.2795 O   0  0  0  0  0  0  0  0  0  0  0  0
   -8.3390    3.8555   -7.8080 C   0  0  0  0  0  0  0  0  0  0  0  0
   -8.0441    4.6191   -9.0702 C   0  0  0  0  0  0  0  0  0  0  0  0
   -7.5000    5.7185   -9.1008 O   0  0  0  0  0  0  0  0  0  0  0  0
   -6.0489    6.1519  -12.9231 C   0  0  0  0  0  0  0  0  0  0  0  0
   -4.7761    5.9752  -12.1117 C   0  0  0  0  0  0  0  0  0  0  0  0
   -5.9499    7.3585  -13.8540 C   0  0  0  0  0  0  0  0  0  0  0  0
  1  2  1  0
  2  3  2  0
  3  4  1  0
  4  5  2  0
  5  6  1  0
  6  7  2  0
  7  8  1  0
  8  9  2  0
  9 10  1  0
 10 11  1  0
 11 12  1  0
 12 13  2  0
 12 14  1  0
 15 14  1  6
 15 16  1  0
 16 17  1  0
 17 18  1  0
 18 19  1  0
 19 20  2  0
 11 21  1  6
 21 22  1  0
 21 23  1  0
 10  2  1  0
 19 15  1  0
  9  4  1  0
M  END
>  <energy_score>  (5107) 
-8.031476

>  <alias>  (5107) 
MNZYBYDMNKJPAG-UHFFFAOYSA-N-P8-P8-P219-601533

>  <HIPPO Pose ID>  (5107) 
90243

>  <smiles>  (5107) 
Cc1nc2ccccc2n1C(C(=O)NC1COCC1=O)C(C)C

>  <inchikey>  (5107) 
MNZYBYDMNKJPAG-UHFFFAOYSA-N

>  <distance_score>  (5107) 
1.605893

>  <ref_mols>  (5107) 
Z0101a,Z3880a

>  <ref_pdb>  (5107) 
Z0101a

>  <HIPPO Compound ID>  (5107) 
147331

>  <name>  (5107) 
MNZYBYDMNKJPAG-UHFFFAOYSA-N-P8-P8-P219-601533

>  <inspiration_score>  (5107) 
None

$$$$
ZWAAIRGHKBCJDS-UHFFFAOYSA-N-P8-P8-P219-601533
     RDKit          3D

 23 25  0  0  0  0  0  0  0  0999 V2000
   -2.0762    6.7108  -13.9512 C   0  0  0  0  0  0  0  0  0  0  0  0
   -3.4796    6.6180  -14.5565 C   0  0  0  0  0  0  0  0  0  0  0  0
   -4.4470    7.4833  -13.7513 C   0  0  0  0  0  0  0  0  0  0  0  0
   -3.9105    5.1434  -14.6426 C   0  0  0  0  0  0  0  0  0  0  0  0
   -5.2072    4.9415  -15.3562 C   0  0  0  0  0  0  0  0  0  0  0  0
   -5.2596    5.0339  -16.6789 N   0  0  0  0  0  0  0  0  0  0  0  0
   -6.5291    4.7114  -17.0467 C   0  0  0  0  0  0  0  0  0  0  0  0
   -7.1076    4.6336  -18.3213 C   0  0  0  0  0  0  0  0  0  0  0  0
   -8.4608    4.2941  -18.4340 C   0  0  0  0  0  0  0  0  0  0  0  0
   -9.2255    4.0462  -17.3007 C   0  0  0  0  0  0  0  0  0  0  0  0
   -8.6573    4.1123  -16.0289 C   0  0  0  0  0  0  0  0  0  0  0  0
   -7.2981    4.4434  -15.9274 C   0  0  0  0  0  0  0  0  0  0  0  0
   -6.4462    4.6070  -14.8238 N   0  0  0  0  0  0  0  0  0  0  0  0
   -7.0539    4.5360  -13.4604 C   0  0  2  0  0  0  0  0  0  0  0  0
   -7.8818    5.8050  -13.2174 C   0  0  0  0  0  0  0  0  0  0  0  0
   -6.2711    4.2785  -12.1511 C   0  0  0  0  0  0  0  0  0  0  0  0
   -5.1408    4.5456  -12.0115 O   0  0  0  0  0  0  0  0  0  0  0  0
   -7.3201    3.7219  -11.1192 N   0  0  0  0  0  0  0  0  0  0  0  0
   -7.1992    3.4771   -9.6840 C   0  0  2  0  0  0  0  0  0  0  0  0
   -8.1662    2.4335   -9.1580 C   0  0  0  0  0  0  0  0  0  0  0  0
   -8.5843    2.9466   -7.8006 C   0  0  0  0  0  0  0  0  0  0  0  0
   -8.5643    4.3740   -7.9023 O   0  0  0  0  0  0  0  0  0  0  0  0
   -7.5475    4.7179   -8.8562 C   0  0  0  0  0  0  0  0  0  0  0  0
  1  2  1  0
  2  3  1  0
  2  4  1  0
  4  5  1  0
  5  6  2  0
  6  7  1  0
  7  8  2  0
  8  9  1  0
  9 10  2  0
 10 11  1  0
 11 12  2  0
 12 13  1  0
 13 14  1  0
 14 15  1  1
 14 16  1  0
 16 17  2  0
 16 18  1  0
 19 18  1  6
 19 20  1  0
 20 21  1  0
 21 22  1  0
 22 23  1  0
 13  5  1  0
 23 19  1  0
 12  7  1  0
M  END
>  <energy_score>  (5108) 
-7.957696

>  <alias>  (5108) 
ZWAAIRGHKBCJDS-UHFFFAOYSA-N-P8-P8-P219-601533

>  <HIPPO Pose ID>  (5108) 
90247

>  <smiles>  (5108) 
CC(C)Cc1nc2ccccc2n1C(C)C(=O)NC1CCOC1

>  <inchikey>  (5108) 
ZWAAIRGHKBCJDS-UHFFFAOYSA-N

>  <distance_score>  (5108) 
1.541765

>  <ref_mols>  (5108) 
Z0101a,Z3880a

>  <ref_pdb>  (5108) 
Z0101a

>  <HIPPO Compound ID>  (5108) 
147333

>  <name>  (5108) 
ZWAAIRGHKBCJDS-UHFFFAOYSA-N-P8-P8-P219-601533

>  <inspiration_score>  (5108) 
None

$$$$
LHUPODUYUFEURF-UHFFFAOYSA-N-P8-P8-P219-601533
     RDKit          3D

 23 25  0  0  0  0  0  0  0  0999 V2000
   -2.6358    2.9044  -12.7981 C   0  0  0  0  0  0  0  0  0  0  0  0
   -3.7504    3.0041  -13.8259 C   0  0  0  0  0  0  0  0  0  0  0  0
   -4.3056    4.4267  -13.9186 C   0  0  0  0  0  0  0  0  0  0  0  0
   -5.4371    4.4857  -14.8925 C   0  0  0  0  0  0  0  0  0  0  0  0
   -5.2902    4.6703  -16.1959 N   0  0  0  0  0  0  0  0  0  0  0  0
   -6.5350    4.5136  -16.7426 C   0  0  0  0  0  0  0  0  0  0  0  0
   -6.9482    4.5516  -18.0835 C   0  0  0  0  0  0  0  0  0  0  0  0
   -8.2972    4.3263  -18.3839 C   0  0  0  0  0  0  0  0  0  0  0  0
   -9.2229    4.0995  -17.3732 C   0  0  0  0  0  0  0  0  0  0  0  0
   -8.8277    4.0884  -16.0376 C   0  0  0  0  0  0  0  0  0  0  0  0
   -7.4744    4.2791  -15.7470 C   0  0  0  0  0  0  0  0  0  0  0  0
   -6.7698    4.3079  -14.5498 N   0  0  0  0  0  0  0  0  0  0  0  0
   -7.4562    4.5397  -13.2550 C   0  0  2  0  0  0  0  0  0  0  0  0
   -7.3354    6.0183  -12.8929 C   0  0  0  0  0  0  0  0  0  0  0  0
   -7.1547    3.6510  -12.0124 C   0  0  0  0  0  0  0  0  0  0  0  0
   -6.1721    3.0320  -11.8551 O   0  0  0  0  0  0  0  0  0  0  0  0
   -8.3831    3.8795  -11.0477 N   0  0  0  0  0  0  0  0  0  0  0  0
   -8.5918    3.4609   -9.6525 C   0  0  1  0  0  0  0  0  0  0  0  0
   -8.1691    2.1570   -8.9933 C   0  0  0  0  0  0  0  0  0  0  0  0
   -7.9555    2.8983   -7.7338 O   0  0  0  0  0  0  0  0  0  0  0  0
   -7.7433    4.1072   -8.5357 C   0  0  0  0  0  0  0  0  0  0  0  0
   -6.2647    4.3239   -8.7463 C   0  0  0  0  0  0  0  0  0  0  0  0
   -8.3655    5.3148   -7.8679 C   0  0  0  0  0  0  0  0  0  0  0  0
  1  2  1  0
  2  3  1  0
  3  4  1  0
  4  5  2  0
  5  6  1  0
  6  7  2  0
  7  8  1  0
  8  9  2  0
  9 10  1  0
 10 11  2  0
 11 12  1  0
 12 13  1  0
 13 14  1  1
 13 15  1  0
 15 16  2  0
 15 17  1  0
 18 17  1  6
 18 19  1  0
 19 20  1  0
 20 21  1  0
 21 22  1  0
 21 23  1  0
 12  4  1  0
 21 18  1  0
 11  6  1  0
M  END
>  <energy_score>  (5109) 
-17.415417

>  <alias>  (5109) 
LHUPODUYUFEURF-UHFFFAOYSA-N-P8-P8-P219-601533

>  <HIPPO Pose ID>  (5109) 
90347

>  <smiles>  (5109) 
CCCc1nc2ccccc2n1C(C)C(=O)NC1COC1(C)C

>  <inchikey>  (5109) 
LHUPODUYUFEURF-UHFFFAOYSA-N

>  <distance_score>  (5109) 
1.786907

>  <ref_mols>  (5109) 
Z0101a,Z3880a

>  <ref_pdb>  (5109) 
Z0101a

>  <HIPPO Compound ID>  (5109) 
147383

>  <name>  (5109) 
LHUPODUYUFEURF-UHFFFAOYSA-N-P8-P8-P219-601533

>  <inspiration_score>  (5109) 
None

$$$$
LDVFVBSODIABKD-UHFFFAOYSA-N-P219-P8-P219-601533
     RDKit          3D

 23 25  0  0  0  0  0  0  0  0999 V2000
   -2.0935    5.6952  -16.1586 C   0  0  0  0  0  0  0  0  0  0  0  0
   -2.8203    7.0048  -15.8843 C   0  0  0  0  0  0  0  0  0  0  0  0
   -4.0193    6.8340  -14.9479 C   0  0  0  0  0  0  0  0  0  0  0  0
   -5.1660    6.0934  -15.5705 C   0  0  0  0  0  0  0  0  0  0  0  0
   -5.3536    5.9515  -16.8668 N   0  0  0  0  0  0  0  0  0  0  0  0
   -6.5287    5.2688  -16.9990 C   0  0  0  0  0  0  0  0  0  0  0  0
   -7.1856    4.8839  -18.1736 C   0  0  0  0  0  0  0  0  0  0  0  0
   -8.4372    4.2829  -18.0695 C   0  0  0  0  0  0  0  0  0  0  0  0
   -9.0020    4.0475  -16.8228 C   0  0  0  0  0  0  0  0  0  0  0  0
   -8.3257    4.3453  -15.6381 C   0  0  0  0  0  0  0  0  0  0  0  0
   -7.0915    4.9861  -15.7538 C   0  0  0  0  0  0  0  0  0  0  0  0
   -6.1906    5.4823  -14.8390 N   0  0  0  0  0  0  0  0  0  0  0  0
   -6.1515    5.2550  -13.3679 C   0  0  2  0  0  0  0  0  0  0  0  0
   -5.2173    4.0896  -13.1102 C   0  0  0  0  0  0  0  0  0  0  0  0
   -7.5315    5.2164  -12.6098 C   0  0  0  0  0  0  0  0  0  0  0  0
   -8.4026    5.9286  -12.9485 O   0  0  0  0  0  0  0  0  0  0  0  0
   -7.4422    4.2244  -11.3896 N   0  0  0  0  0  0  0  0  0  0  0  0
   -8.3739    3.9875  -10.2928 C   0  0  1  0  0  0  0  0  0  0  0  0
   -8.6948    2.5367   -9.9550 C   0  0  0  0  0  0  0  0  0  0  0  0
   -9.2028    2.5378   -8.6072 O   0  0  0  0  0  0  0  0  0  0  0  0
   -8.6596    3.6817   -7.9374 C   0  0  0  0  0  0  0  0  0  0  0  0
   -7.8539    4.4677   -8.9509 C   0  0  2  0  0  0  0  0  0  0  0  0
   -8.0631    5.7990   -8.8197 F   0  0  0  0  0  0  0  0  0  0  0  0
  1  2  1  0
  2  3  1  0
  3  4  1  0
  4  5  2  0
  5  6  1  0
  6  7  2  0
  7  8  1  0
  8  9  2  0
  9 10  1  0
 10 11  2  0
 11 12  1  0
 12 13  1  0
 13 14  1  6
 13 15  1  0
 15 16  2  0
 15 17  1  0
 18 17  1  6
 18 19  1  0
 19 20  1  0
 20 21  1  0
 21 22  1  0
 22 23  1  1
 12  4  1  0
 22 18  1  0
 11  6  1  0
M  END
>  <energy_score>  (5110) 
-10.615407

>  <alias>  (5110) 
LDVFVBSODIABKD-UHFFFAOYSA-N-P219-P8-P219-601533

>  <HIPPO Pose ID>  (5110) 
90356

>  <smiles>  (5110) 
CCCc1nc2ccccc2n1C(C)C(=O)NC1COCC1F

>  <inchikey>  (5110) 
LDVFVBSODIABKD-UHFFFAOYSA-N

>  <distance_score>  (5110) 
1.543251

>  <ref_mols>  (5110) 
Z0101a,Z3880a

>  <ref_pdb>  (5110) 
Z0101a

>  <HIPPO Compound ID>  (5110) 
147388

>  <name>  (5110) 
LDVFVBSODIABKD-UHFFFAOYSA-N-P219-P8-P219-601533

>  <inspiration_score>  (5110) 
None

$$$$
KLPUMBGGDBCLGA-UHFFFAOYSA-N-P219-P8-P219-601533
     RDKit          3D

 23 25  0  0  0  0  0  0  0  0999 V2000
   -2.1970    5.4181  -15.2167 C   0  0  0  0  0  0  0  0  0  0  0  0
   -3.0984    5.2375  -14.0044 C   0  0  0  0  0  0  0  0  0  0  0  0
   -4.4087    6.0145  -14.1145 C   0  0  0  0  0  0  0  0  0  0  0  0
   -5.4019    5.3772  -15.0357 C   0  0  0  0  0  0  0  0  0  0  0  0
   -5.2820    5.3578  -16.3553 N   0  0  0  0  0  0  0  0  0  0  0  0
   -6.4586    4.8536  -16.8381 C   0  0  0  0  0  0  0  0  0  0  0  0
   -6.8774    4.6337  -18.1559 C   0  0  0  0  0  0  0  0  0  0  0  0
   -8.1782    4.1679  -18.3739 C   0  0  0  0  0  0  0  0  0  0  0  0
   -9.0622    3.9774  -17.3228 C   0  0  0  0  0  0  0  0  0  0  0  0
   -8.6519    4.1702  -16.0104 C   0  0  0  0  0  0  0  0  0  0  0  0
   -7.3310    4.5769  -15.7956 C   0  0  0  0  0  0  0  0  0  0  0  0
   -6.6066    4.8176  -14.6358 N   0  0  0  0  0  0  0  0  0  0  0  0
   -7.2685    4.7592  -13.3151 C   0  0  2  0  0  0  0  0  0  0  0  0
   -7.7874    6.1458  -12.9550 C   0  0  0  0  0  0  0  0  0  0  0  0
   -6.5485    4.1042  -12.1132 C   0  0  0  0  0  0  0  0  0  0  0  0
   -5.3863    3.9832  -12.0313 O   0  0  0  0  0  0  0  0  0  0  0  0
   -7.6821    3.7753  -11.0729 N   0  0  0  0  0  0  0  0  0  0  0  0
   -7.5938    3.3215   -9.6889 C   0  0  2  0  0  0  0  0  0  0  0  0
   -8.5121    2.1730   -9.3478 C   0  0  0  0  0  0  0  0  0  0  0  0
   -9.0602    2.4994   -7.9786 C   0  0  0  0  0  0  0  0  0  0  0  0
   -8.9111    3.9056   -7.7955 O   0  0  0  0  0  0  0  0  0  0  0  0
   -8.1425    4.4199   -8.7952 C   0  0  0  0  0  0  0  0  0  0  0  0
   -7.9617    5.6199   -8.9533 O   0  0  0  0  0  0  0  0  0  0  0  0
  1  2  1  0
  2  3  1  0
  3  4  1  0
  4  5  2  0
  5  6  1  0
  6  7  2  0
  7  8  1  0
  8  9  2  0
  9 10  1  0
 10 11  2  0
 11 12  1  0
 12 13  1  0
 13 14  1  1
 13 15  1  0
 15 16  2  0
 15 17  1  0
 18 17  1  6
 18 19  1  0
 19 20  1  0
 20 21  1  0
 21 22  1  0
 22 23  2  0
 12  4  1  0
 22 18  1  0
 11  6  1  0
M  END
>  <energy_score>  (5111) 
-3.340545

>  <alias>  (5111) 
KLPUMBGGDBCLGA-UHFFFAOYSA-N-P219-P8-P219-601533

>  <HIPPO Pose ID>  (5111) 
90370

>  <smiles>  (5111) 
CCCc1nc2ccccc2n1C(C)C(=O)NC1CCOC1=O

>  <inchikey>  (5111) 
KLPUMBGGDBCLGA-UHFFFAOYSA-N

>  <distance_score>  (5111) 
1.884258

>  <ref_mols>  (5111) 
Z0101a,Z3880a

>  <ref_pdb>  (5111) 
Z0101a

>  <HIPPO Compound ID>  (5111) 
147395

>  <name>  (5111) 
KLPUMBGGDBCLGA-UHFFFAOYSA-N-P219-P8-P219-601533

>  <inspiration_score>  (5111) 
None

$$$$
UUHCJJJCCJICKZ-UHFFFAOYSA-N-P219-P8-P219-601533
     RDKit          3D

 23 25  0  0  0  0  0  0  0  0999 V2000
   -1.6659    6.9054  -14.6564 C   0  0  0  0  0  0  0  0  0  0  0  0
   -3.0352    6.7260  -15.2927 C   0  0  0  0  0  0  0  0  0  0  0  0
   -3.6618    5.3863  -14.9003 C   0  0  0  0  0  0  0  0  0  0  0  0
   -5.0187    5.2133  -15.5160 C   0  0  0  0  0  0  0  0  0  0  0  0
   -5.2126    5.2373  -16.8176 N   0  0  0  0  0  0  0  0  0  0  0  0
   -6.5151    4.8853  -16.9986 C   0  0  0  0  0  0  0  0  0  0  0  0
   -7.1943    4.6937  -18.2083 C   0  0  0  0  0  0  0  0  0  0  0  0
   -8.5335    4.3201  -18.1723 C   0  0  0  0  0  0  0  0  0  0  0  0
   -9.1815    4.1472  -16.9610 C   0  0  0  0  0  0  0  0  0  0  0  0
   -8.5120    4.3140  -15.7474 C   0  0  0  0  0  0  0  0  0  0  0  0
   -7.1701    4.7003  -15.7765 C   0  0  0  0  0  0  0  0  0  0  0  0
   -6.2158    4.9634  -14.8171 N   0  0  0  0  0  0  0  0  0  0  0  0
   -6.3212    5.0422  -13.3371 C   0  0  1  0  0  0  0  0  0  0  0  0
   -6.1544    6.5009  -12.9118 C   0  0  0  0  0  0  0  0  0  0  0  0
   -7.5933    4.6287  -12.5456 C   0  0  0  0  0  0  0  0  0  0  0  0
   -8.6767    4.9407  -12.8735 O   0  0  0  0  0  0  0  0  0  0  0  0
   -7.0977    3.8601  -11.2603 N   0  0  0  0  0  0  0  0  0  0  0  0
   -7.8274    3.4160  -10.0938 C   0  0  0  0  0  0  0  0  0  0  0  0
   -7.8386    4.4307   -8.9439 C   0  0  2  0  0  0  0  0  0  0  0  0
   -8.5816    4.0570   -7.6677 C   0  0  0  0  0  0  0  0  0  0  0  0
   -8.3756    5.6618   -9.4343 O   0  0  0  0  0  0  0  0  0  0  0  0
   -7.7315    1.9522   -9.7398 C   0  0  0  0  0  0  0  0  0  0  0  0
   -9.0112    2.4966  -10.2883 C   0  0  0  0  0  0  0  0  0  0  0  0
  1  2  1  0
  2  3  1  0
  3  4  1  0
  4  5  2  0
  5  6  1  0
  6  7  2  0
  7  8  1  0
  8  9  2  0
  9 10  1  0
 10 11  2  0
 11 12  1  0
 12 13  1  0
 13 14  1  6
 13 15  1  0
 15 16  2  0
 15 17  1  0
 17 18  1  0
 18 19  1  0
 19 20  1  1
 19 21  1  0
 18 22  1  0
 22 23  1  0
 12  4  1  0
 23 18  1  0
 11  6  1  0
M  END
>  <energy_score>  (5112) 
-48.604044

>  <alias>  (5112) 
UUHCJJJCCJICKZ-UHFFFAOYSA-N-P219-P8-P219-601533

>  <HIPPO Pose ID>  (5112) 
90380

>  <smiles>  (5112) 
CCCc1nc2ccccc2n1C(C)C(=O)NC1(C(C)O)CC1

>  <inchikey>  (5112) 
UUHCJJJCCJICKZ-UHFFFAOYSA-N

>  <distance_score>  (5112) 
1.573847

>  <ref_mols>  (5112) 
Z0101a,Z3880a

>  <ref_pdb>  (5112) 
Z0101a

>  <HIPPO Compound ID>  (5112) 
147400

>  <name>  (5112) 
UUHCJJJCCJICKZ-UHFFFAOYSA-N-P219-P8-P219-601533

>  <inspiration_score>  (5112) 
None

$$$$
XOUHWTKPSUTJRL-UHFFFAOYSA-N-P219-P8-P219-601533
     RDKit          3D

 24 26  0  0  0  0  0  0  0  0999 V2000
   -7.6362    6.1386  -13.0138 C   0  0  0  0  0  0  0  0  0  0  0  0
   -7.1603    4.7362  -13.3720 C   0  0  2  0  0  0  0  0  0  0  0  0
   -6.4634    4.0534  -12.1798 C   0  0  0  0  0  0  0  0  0  0  0  0
   -5.3094    3.8676  -12.1174 O   0  0  0  0  0  0  0  0  0  0  0  0
   -7.5942    3.7978  -11.1173 N   0  0  0  0  0  0  0  0  0  0  0  0
   -7.5066    3.3504   -9.7304 C   0  0  2  0  0  0  0  0  0  0  0  0
   -8.3868    2.1658   -9.4085 C   0  0  0  0  0  0  0  0  0  0  0  0
   -9.0028    2.4763   -8.0641 C   0  0  0  0  0  0  0  0  0  0  0  0
   -8.8870    3.8834   -7.8653 O   0  0  0  0  0  0  0  0  0  0  0  0
   -8.1151    4.4258   -8.8466 C   0  0  0  0  0  0  0  0  0  0  0  0
   -7.9755    5.6326   -8.9970 O   0  0  0  0  0  0  0  0  0  0  0  0
   -6.5321    4.7558  -14.7136 N   0  0  0  0  0  0  0  0  0  0  0  0
   -5.2885    5.1806  -15.1629 C   0  0  0  0  0  0  0  0  0  0  0  0
   -4.1557    5.5899  -14.2702 C   0  0  0  0  0  0  0  0  0  0  0  0
   -3.3671    4.5472  -13.9098 F   0  0  0  0  0  0  0  0  0  0  0  0
   -4.5758    6.2120  -13.1384 F   0  0  0  0  0  0  0  0  0  0  0  0
   -3.3345    6.4868  -14.8893 F   0  0  0  0  0  0  0  0  0  0  0  0
   -5.2503    5.1850  -16.4962 N   0  0  0  0  0  0  0  0  0  0  0  0
   -6.4818    4.7792  -16.9233 C   0  0  0  0  0  0  0  0  0  0  0  0
   -6.9709    4.5857  -18.2200 C   0  0  0  0  0  0  0  0  0  0  0  0
   -8.3024    4.1880  -18.3769 C   0  0  0  0  0  0  0  0  0  0  0  0
   -9.1471    4.0441  -17.2876 C   0  0  0  0  0  0  0  0  0  0  0  0
   -8.6697    4.2215  -15.9963 C   0  0  0  0  0  0  0  0  0  0  0  0
   -7.3203    4.5594  -15.8422 C   0  0  0  0  0  0  0  0  0  0  0  0
  2  1  1  1
  2  3  1  0
  3  4  2  0
  3  5  1  0
  6  5  1  6
  6  7  1  0
  7  8  1  0
  8  9  1  0
  9 10  1  0
 10 11  2  0
  2 12  1  0
 12 13  1  0
 13 14  1  0
 14 15  1  0
 14 16  1  0
 14 17  1  0
 13 18  2  0
 18 19  1  0
 19 20  2  0
 20 21  1  0
 21 22  2  0
 22 23  1  0
 23 24  2  0
 10  6  1  0
 24 12  1  0
 24 19  1  0
M  END
>  <energy_score>  (5113) 
-2.517925

>  <alias>  (5113) 
XOUHWTKPSUTJRL-UHFFFAOYSA-N-P219-P8-P219-601533

>  <HIPPO Pose ID>  (5113) 
90461

>  <smiles>  (5113) 
CC(C(=O)NC1CCOC1=O)n1c(C(F)(F)F)nc2ccccc21

>  <inchikey>  (5113) 
XOUHWTKPSUTJRL-UHFFFAOYSA-N

>  <distance_score>  (5113) 
1.552638

>  <ref_mols>  (5113) 
Z0101a,Z3880a

>  <ref_pdb>  (5113) 
Z0101a

>  <HIPPO Compound ID>  (5113) 
147442

>  <name>  (5113) 
XOUHWTKPSUTJRL-UHFFFAOYSA-N-P219-P8-P219-601533

>  <inspiration_score>  (5113) 
None

$$$$
BTIXGPDDNNVIHB-UHFFFAOYSA-N-P8-P8-P219-601533
     RDKit          3D

 24 27  0  0  0  0  0  0  0  0999 V2000
   -5.0010    8.1581  -17.6358 O   0  0  0  0  0  0  0  0  0  0  0  0
   -4.7392    7.0717  -17.9950 C   0  0  0  0  0  0  0  0  0  0  0  0
   -3.4015    6.2664  -17.8949 N   0  0  0  0  0  0  0  0  0  0  0  0
   -2.1680    6.5960  -17.2588 C   0  0  0  0  0  0  0  0  0  0  0  0
   -2.2118    6.6324  -15.7417 C   0  0  0  0  0  0  0  0  0  0  0  0
   -2.4546    5.3254  -15.2310 O   0  0  0  0  0  0  0  0  0  0  0  0
   -0.8796    6.1589  -17.9226 C   0  0  0  0  0  0  0  0  0  0  0  0
   -1.2722    7.6038  -17.9491 C   0  0  0  0  0  0  0  0  0  0  0  0
   -5.7985    6.2052  -18.7182 C   0  0  2  0  0  0  0  0  0  0  0  0
   -6.6037    5.3169  -17.7639 C   0  0  0  0  0  0  0  0  0  0  0  0
   -7.8300    4.7649  -18.1832 C   0  0  0  0  0  0  0  0  0  0  0  0
   -8.6921    4.1304  -17.2888 C   0  0  0  0  0  0  0  0  0  0  0  0
   -8.3444    4.0331  -15.9496 C   0  0  0  0  0  0  0  0  0  0  0  0
   -7.1233    4.5290  -15.5119 C   0  0  0  0  0  0  0  0  0  0  0  0
   -6.2603    5.1637  -16.4084 C   0  0  0  0  0  0  0  0  0  0  0  0
   -5.2885    5.6077  -19.9613 N   0  0  0  0  0  0  0  0  0  0  0  0
   -5.5805    4.3757  -20.4643 C   0  0  0  0  0  0  0  0  0  0  0  0
   -5.0266    4.1672  -21.6402 N   0  0  0  0  0  0  0  0  0  0  0  0
   -4.3748    5.3297  -21.9370 C   0  0  0  0  0  0  0  0  0  0  0  0
   -3.6178    5.6621  -23.0687 C   0  0  0  0  0  0  0  0  0  0  0  0
   -3.0792    6.9481  -23.1757 C   0  0  0  0  0  0  0  0  0  0  0  0
   -3.2942    7.8899  -22.1730 C   0  0  0  0  0  0  0  0  0  0  0  0
   -4.0359    7.5734  -21.0293 C   0  0  0  0  0  0  0  0  0  0  0  0
   -4.5510    6.2727  -20.9276 C   0  0  0  0  0  0  0  0  0  0  0  0
  1  2  2  0
  2  3  1  0
  3  4  1  0
  4  5  1  0
  5  6  1  0
  4  7  1  0
  7  8  1  0
  2  9  1  0
  9 10  1  0
 10 11  2  0
 11 12  1  0
 12 13  2  0
 13 14  1  0
 14 15  2  0
  9 16  1  6
 16 17  1  0
 17 18  2  0
 18 19  1  0
 19 20  2  0
 20 21  1  0
 21 22  2  0
 22 23  1  0
 23 24  2  0
  8  4  1  0
 15 10  1  0
 24 16  1  0
 24 19  1  0
M  END
>  <energy_score>  (5114) 
-12.205344

>  <alias>  (5114) 
BTIXGPDDNNVIHB-UHFFFAOYSA-N-P8-P8-P219-601533

>  <HIPPO Pose ID>  (5114) 
90564

>  <smiles>  (5114) 
O=C(NC1(CO)CC1)C(c1ccccc1)n1cnc2ccccc21

>  <inchikey>  (5114) 
BTIXGPDDNNVIHB-UHFFFAOYSA-N

>  <distance_score>  (5114) 
1.026257

>  <ref_mols>  (5114) 
Z0101a,Z3880a

>  <ref_pdb>  (5114) 
Z0101a

>  <HIPPO Compound ID>  (5114) 
147494

>  <name>  (5114) 
BTIXGPDDNNVIHB-UHFFFAOYSA-N-P8-P8-P219-601533

>  <inspiration_score>  (5114) 
None

$$$$
JIEKJDNEXPMDSE-UHFFFAOYSA-N-P8-P8-P219-601533
     RDKit          3D

 24 26  0  0  0  0  0  0  0  0999 V2000
   -3.1114    8.3539  -23.7117 C   0  0  0  0  0  0  0  0  0  0  0  0
   -3.8289    8.4748  -22.4859 O   0  0  0  0  0  0  0  0  0  0  0  0
   -2.9408    8.7901  -21.3938 C   0  0  0  0  0  0  0  0  0  0  0  0
   -3.7111    9.4254  -20.1692 C   0  0  1  0  0  0  0  0  0  0  0  0
   -5.2150    9.5278  -20.2933 C   0  0  0  0  0  0  0  0  0  0  0  0
   -5.1116    8.0452  -19.9898 C   0  0  0  0  0  0  0  0  0  0  0  0
   -3.9711    8.4172  -19.0321 N   0  0  0  0  0  0  0  0  0  0  0  0
   -3.1816    7.1862  -18.5951 C   0  0  0  0  0  0  0  0  0  0  0  0
   -2.2299    6.6770  -19.0784 O   0  0  0  0  0  0  0  0  0  0  0  0
   -3.8833    6.5537  -17.4007 C   0  0  2  0  0  0  0  0  0  0  0  0
   -2.8816    5.8365  -16.5083 C   0  0  0  0  0  0  0  0  0  0  0  0
   -4.9291    5.6025  -17.8740 N   0  0  0  0  0  0  0  0  0  0  0  0
   -5.0953    4.9791  -19.1228 C   0  0  0  0  0  0  0  0  0  0  0  0
   -4.0374    4.8430  -20.1916 C   0  0  0  0  0  0  0  0  0  0  0  0
   -4.4217    4.3983  -21.6148 C   0  0  0  0  0  0  0  0  0  0  0  0
   -5.0247    5.4964  -22.4754 C   0  0  0  0  0  0  0  0  0  0  0  0
   -3.1129    3.9992  -22.3102 C   0  0  0  0  0  0  0  0  0  0  0  0
   -6.3067    4.4691  -19.2054 N   0  0  0  0  0  0  0  0  0  0  0  0
   -6.8850    4.6129  -17.9736 C   0  0  0  0  0  0  0  0  0  0  0  0
   -8.1450    4.1947  -17.5210 C   0  0  0  0  0  0  0  0  0  0  0  0
   -8.4699    4.3609  -16.1694 C   0  0  0  0  0  0  0  0  0  0  0  0
   -7.5724    4.9659  -15.2916 C   0  0  0  0  0  0  0  0  0  0  0  0
   -6.3363    5.4450  -15.7400 C   0  0  0  0  0  0  0  0  0  0  0  0
   -6.0217    5.2536  -17.0939 C   0  0  0  0  0  0  0  0  0  0  0  0
  1  2  1  0
  2  3  1  0
  4  3  1  6
  4  5  1  0
  5  6  1  0
  6  7  1  0
  7  8  1  0
  8  9  2  0
  8 10  1  0
 10 11  1  1
 10 12  1  0
 12 13  1  0
 13 14  1  0
 14 15  1  0
 15 16  1  0
 15 17  1  0
 13 18  2  0
 18 19  1  0
 19 20  2  0
 20 21  1  0
 21 22  2  0
 22 23  1  0
 23 24  2  0
  7  4  1  0
 24 12  1  0
 24 19  1  0
M  END
>  <energy_score>  (5115) 
-3.621708

>  <alias>  (5115) 
JIEKJDNEXPMDSE-UHFFFAOYSA-N-P8-P8-P219-601533

>  <HIPPO Pose ID>  (5115) 
90566

>  <smiles>  (5115) 
COCC1CCN1C(=O)C(C)n1c(CC(C)C)nc2ccccc21

>  <inchikey>  (5115) 
JIEKJDNEXPMDSE-UHFFFAOYSA-N

>  <distance_score>  (5115) 
1.752515

>  <ref_mols>  (5115) 
Z0101a,Z3880a

>  <ref_pdb>  (5115) 
Z0101a

>  <HIPPO Compound ID>  (5115) 
147495

>  <name>  (5115) 
JIEKJDNEXPMDSE-UHFFFAOYSA-N-P8-P8-P219-601533

>  <inspiration_score>  (5115) 
None

$$$$
PHZLCWXQSMEQIO-UHFFFAOYSA-N-P8-P8-P219-601533
     RDKit          3D

 24 26  0  0  0  0  0  0  0  0999 V2000
   -5.7262    6.6952  -12.9802 C   0  0  0  0  0  0  0  0  0  0  0  0
   -5.5161    5.2193  -12.6438 C   0  0  0  0  0  0  0  0  0  0  0  0
   -4.0287    4.8548  -12.5903 C   0  0  0  0  0  0  0  0  0  0  0  0
   -6.3992    4.2597  -13.5013 C   0  0  1  0  0  0  0  0  0  0  0  0
   -7.7565    4.3253  -12.7281 C   0  0  0  0  0  0  0  0  0  0  0  0
   -8.6371    5.0319  -13.0539 O   0  0  0  0  0  0  0  0  0  0  0  0
   -7.6137    3.3852  -11.4657 N   0  0  0  0  0  0  0  0  0  0  0  0
   -8.5031    3.2074  -10.2962 C   0  0  1  0  0  0  0  0  0  0  0  0
   -7.9710    2.3984   -9.0727 C   0  0  1  0  0  0  0  0  0  0  0  0
   -6.9832    1.4012   -9.3326 O   0  0  0  0  0  0  0  0  0  0  0  0
   -7.4319    3.7172   -8.4893 C   0  0  0  0  0  0  0  0  0  0  0  0
   -8.4884    4.4346   -9.3301 C   0  0  1  0  0  0  0  0  0  0  0  0
   -8.1216    5.7137   -9.8781 O   0  0  0  0  0  0  0  0  0  0  0  0
   -6.3760    4.5500  -14.9613 N   0  0  0  0  0  0  0  0  0  0  0  0
   -5.2204    4.8048  -15.6850 C   0  0  0  0  0  0  0  0  0  0  0  0
   -5.4209    4.9347  -16.9736 N   0  0  0  0  0  0  0  0  0  0  0  0
   -6.7411    4.6460  -17.1445 C   0  0  0  0  0  0  0  0  0  0  0  0
   -7.4552    4.5312  -18.3473 C   0  0  0  0  0  0  0  0  0  0  0  0
   -8.7975    4.1868  -18.2793 C   0  0  0  0  0  0  0  0  0  0  0  0
   -9.5241    4.0294  -19.3920 F   0  0  0  0  0  0  0  0  0  0  0  0
   -9.4157    3.9917  -17.0632 C   0  0  0  0  0  0  0  0  0  0  0  0
  -10.7172    3.6891  -17.0647 F   0  0  0  0  0  0  0  0  0  0  0  0
   -8.7263    4.0915  -15.8570 C   0  0  0  0  0  0  0  0  0  0  0  0
   -7.3704    4.4174  -15.9109 C   0  0  0  0  0  0  0  0  0  0  0  0
  1  2  1  0
  2  3  1  0
  4  2  1  1
  4  5  1  0
  5  6  2  0
  5  7  1  0
  8  7  1  6
  8  9  1  0
  9 10  1  6
  9 11  1  0
 11 12  1  0
 12 13  1  6
  4 14  1  0
 14 15  1  0
 15 16  2  0
 16 17  1  0
 17 18  2  0
 18 19  1  0
 19 20  1  0
 19 21  2  0
 21 22  1  0
 21 23  1  0
 23 24  2  0
 12  8  1  0
 24 14  1  0
 24 17  1  0
M  END
>  <energy_score>  (5116) 
-15.540982

>  <alias>  (5116) 
PHZLCWXQSMEQIO-UHFFFAOYSA-N-P8-P8-P219-601533

>  <HIPPO Pose ID>  (5116) 
90628

>  <smiles>  (5116) 
CC(C)C(C(=O)NC1C(O)CC1O)n1cnc2cc(F)c(F)cc21

>  <inchikey>  (5116) 
PHZLCWXQSMEQIO-UHFFFAOYSA-N

>  <distance_score>  (5116) 
1.501852

>  <ref_mols>  (5116) 
Z0101a,Z3880a

>  <ref_pdb>  (5116) 
Z0101a

>  <HIPPO Compound ID>  (5116) 
147527

>  <name>  (5116) 
PHZLCWXQSMEQIO-UHFFFAOYSA-N-P8-P8-P219-601533

>  <inspiration_score>  (5116) 
None

$$$$
OZYJVXLZCPUSHG-UHFFFAOYSA-N-P8-P8-P219-601533
     RDKit          3D

 24 26  0  0  0  0  0  0  0  0999 V2000
   -5.1798    6.2198  -12.4958 C   0  0  0  0  0  0  0  0  0  0  0  0
   -5.0883    4.7506  -12.9164 C   0  0  0  0  0  0  0  0  0  0  0  0
   -4.6578    3.8785  -11.7305 C   0  0  0  0  0  0  0  0  0  0  0  0
   -6.3617    4.2821  -13.6635 C   0  0  1  0  0  0  0  0  0  0  0  0
   -7.6157    4.7022  -12.8263 C   0  0  0  0  0  0  0  0  0  0  0  0
   -8.2832    5.6201  -13.1204 O   0  0  0  0  0  0  0  0  0  0  0  0
   -7.6785    3.7613  -11.5729 N   0  0  0  0  0  0  0  0  0  0  0  0
   -8.5177    3.8252  -10.3854 C   0  0  1  0  0  0  0  0  0  0  0  0
   -8.6247    2.5654   -9.5374 C   0  0  0  0  0  0  0  0  0  0  0  0
   -8.9480    2.9693   -8.1991 O   0  0  0  0  0  0  0  0  0  0  0  0
   -8.3669    4.2557   -8.0005 C   0  0  0  0  0  0  0  0  0  0  0  0
   -8.1387    4.8871   -9.3642 C   0  0  1  0  0  0  0  0  0  0  0  0
   -6.8272    5.2171   -9.4753 F   0  0  0  0  0  0  0  0  0  0  0  0
   -6.3666    4.7388  -15.0871 N   0  0  0  0  0  0  0  0  0  0  0  0
   -5.2929    5.2196  -15.8153 C   0  0  0  0  0  0  0  0  0  0  0  0
   -5.5079    5.2293  -17.1097 N   0  0  0  0  0  0  0  0  0  0  0  0
   -6.7859    4.7743  -17.2523 C   0  0  0  0  0  0  0  0  0  0  0  0
   -7.5123    4.5584  -18.4293 C   0  0  0  0  0  0  0  0  0  0  0  0
   -8.8367    4.1596  -18.3118 C   0  0  0  0  0  0  0  0  0  0  0  0
   -9.5887    3.9577  -19.4000 F   0  0  0  0  0  0  0  0  0  0  0  0
   -9.4168    3.9760  -17.0723 C   0  0  0  0  0  0  0  0  0  0  0  0
  -10.7124    3.6553  -17.0318 F   0  0  0  0  0  0  0  0  0  0  0  0
   -8.7002    4.1205  -15.8876 C   0  0  0  0  0  0  0  0  0  0  0  0
   -7.3704    4.5219  -16.0074 C   0  0  0  0  0  0  0  0  0  0  0  0
  1  2  1  0
  2  3  1  0
  4  2  1  1
  4  5  1  0
  5  6  2  0
  5  7  1  0
  8  7  1  6
  8  9  1  0
  9 10  1  0
 10 11  1  0
 11 12  1  0
 12 13  1  1
  4 14  1  0
 14 15  1  0
 15 16  2  0
 16 17  1  0
 17 18  2  0
 18 19  1  0
 19 20  1  0
 19 21  2  0
 21 22  1  0
 21 23  1  0
 23 24  2  0
 12  8  1  0
 24 14  1  0
 24 17  1  0
M  END
>  <energy_score>  (5117) 
-2.323121

>  <alias>  (5117) 
OZYJVXLZCPUSHG-UHFFFAOYSA-N-P8-P8-P219-601533

>  <HIPPO Pose ID>  (5117) 
90630

>  <smiles>  (5117) 
CC(C)C(C(=O)NC1COCC1F)n1cnc2cc(F)c(F)cc21

>  <inchikey>  (5117) 
OZYJVXLZCPUSHG-UHFFFAOYSA-N

>  <distance_score>  (5117) 
1.434204

>  <ref_mols>  (5117) 
Z0101a,Z3880a

>  <ref_pdb>  (5117) 
Z0101a

>  <HIPPO Compound ID>  (5117) 
147528

>  <name>  (5117) 
OZYJVXLZCPUSHG-UHFFFAOYSA-N-P8-P8-P219-601533

>  <inspiration_score>  (5117) 
None

$$$$
COWDGMKWJZKWFQ-UHFFFAOYSA-N-P8-P8-P219-601533
     RDKit          3D

 24 27  0  0  0  0  0  0  0  0999 V2000
   -5.1157    6.4304  -11.8771 C   0  0  0  0  0  0  0  0  0  0  0  0
   -5.3875    6.1996  -13.3565 C   0  0  0  0  0  0  0  0  0  0  0  0
   -6.2122    7.3753  -13.8860 C   0  0  0  0  0  0  0  0  0  0  0  0
   -5.9801    4.7988  -13.6945 C   0  0  1  0  0  0  0  0  0  0  0  0
   -7.1931    4.5940  -12.7441 C   0  0  0  0  0  0  0  0  0  0  0  0
   -8.2731    4.9924  -12.9758 O   0  0  0  0  0  0  0  0  0  0  0  0
   -6.6215    3.8778  -11.4554 N   0  0  0  0  0  0  0  0  0  0  0  0
   -7.2382    3.6087  -10.1944 C   0  0  2  0  0  0  0  0  0  0  0  0
   -6.9434    2.2942   -9.5103 C   0  0  0  0  0  0  0  0  0  0  0  0
   -7.9148    2.1444   -8.4616 O   0  0  0  0  0  0  0  0  0  0  0  0
   -9.0868    2.8479   -8.8814 C   0  0  0  0  0  0  0  0  0  0  0  0
   -8.6093    3.9385   -9.7815 C   0  0  1  0  0  0  0  0  0  0  0  0
   -7.5075    4.8349   -9.3216 C   0  0  0  0  0  0  0  0  0  0  0  0
   -6.0981    4.6714  -15.1684 N   0  0  0  0  0  0  0  0  0  0  0  0
   -4.9831    4.8209  -15.9859 C   0  0  0  0  0  0  0  0  0  0  0  0
   -5.2808    4.8472  -17.2588 N   0  0  0  0  0  0  0  0  0  0  0  0
   -6.6241    4.5994  -17.3013 C   0  0  0  0  0  0  0  0  0  0  0  0
   -7.4352    4.4440  -18.4344 C   0  0  0  0  0  0  0  0  0  0  0  0
   -8.7735    4.1385  -18.2425 C   0  0  0  0  0  0  0  0  0  0  0  0
   -9.5873    3.9416  -19.2872 F   0  0  0  0  0  0  0  0  0  0  0  0
   -9.2916    4.0078  -16.9708 C   0  0  0  0  0  0  0  0  0  0  0  0
  -10.5839    3.6973  -16.8563 F   0  0  0  0  0  0  0  0  0  0  0  0
   -8.5142    4.1706  -15.8252 C   0  0  0  0  0  0  0  0  0  0  0  0
   -7.1632    4.4708  -16.0094 C   0  0  0  0  0  0  0  0  0  0  0  0
  1  2  1  0
  2  3  1  0
  4  2  1  6
  4  5  1  0
  5  6  2  0
  5  7  1  0
  8  7  1  6
  8  9  1  0
  9 10  1  0
 10 11  1  0
 12 11  1  1
 12 13  1  0
  4 14  1  0
 14 15  1  0
 15 16  2  0
 16 17  1  0
 17 18  2  0
 18 19  1  0
 19 20  1  0
 19 21  2  0
 21 22  1  0
 21 23  1  0
 23 24  2  0
 12  8  1  0
 24 14  1  0
 13  8  1  0
 24 17  1  0
M  END
>  <energy_score>  (5118) 
-11.081741

>  <alias>  (5118) 
COWDGMKWJZKWFQ-UHFFFAOYSA-N-P8-P8-P219-601533

>  <HIPPO Pose ID>  (5118) 
90632

>  <smiles>  (5118) 
CC(C)C(C(=O)NC12COCC1C2)n1cnc2cc(F)c(F)cc21

>  <inchikey>  (5118) 
COWDGMKWJZKWFQ-UHFFFAOYSA-N

>  <distance_score>  (5118) 
1.636867

>  <ref_mols>  (5118) 
Z0101a,Z3880a

>  <ref_pdb>  (5118) 
Z0101a

>  <HIPPO Compound ID>  (5118) 
147529

>  <name>  (5118) 
COWDGMKWJZKWFQ-UHFFFAOYSA-N-P8-P8-P219-601533

>  <inspiration_score>  (5118) 
None

$$$$
DUUMRQASHAGBPR-UHFFFAOYSA-N-P219-P8-P219-601533
     RDKit          3D

 24 26  0  0  0  0  0  0  0  0999 V2000
   -5.2385    6.5025  -12.0613 C   0  0  0  0  0  0  0  0  0  0  0  0
   -6.5177    6.6125  -12.8783 C   0  0  0  0  0  0  0  0  0  0  0  0
   -7.5624    7.4020  -12.0772 C   0  0  0  0  0  0  0  0  0  0  0  0
   -7.0310    5.2466  -13.3604 C   0  0  2  0  0  0  0  0  0  0  0  0
   -6.9584    4.1270  -12.2771 C   0  0  0  0  0  0  0  0  0  0  0  0
   -6.0782    3.3607  -12.1814 O   0  0  0  0  0  0  0  0  0  0  0  0
   -8.2307    4.3332  -11.3761 N   0  0  0  0  0  0  0  0  0  0  0  0
   -8.6183    3.6913  -10.1167 C   0  0  1  0  0  0  0  0  0  0  0  0
   -8.3551    2.2497   -9.7176 C   0  0  0  0  0  0  0  0  0  0  0  0
   -8.2997    2.6930   -8.3109 O   0  0  0  0  0  0  0  0  0  0  0  0
   -7.8988    4.0235   -8.7919 C   0  0  0  0  0  0  0  0  0  0  0  0
   -6.3965    4.1616   -8.7353 C   0  0  0  0  0  0  0  0  0  0  0  0
   -8.5510    5.1183   -7.9735 C   0  0  0  0  0  0  0  0  0  0  0  0
   -6.5100    4.9074  -14.7032 N   0  0  0  0  0  0  0  0  0  0  0  0
   -5.2672    5.1521  -15.2384 C   0  0  0  0  0  0  0  0  0  0  0  0
   -5.2645    5.1063  -16.5547 N   0  0  0  0  0  0  0  0  0  0  0  0
   -6.5367    4.7429  -16.9024 C   0  0  0  0  0  0  0  0  0  0  0  0
   -7.0827    4.4923  -18.1650 C   0  0  0  0  0  0  0  0  0  0  0  0
   -8.4254    4.1379  -18.2118 C   0  0  0  0  0  0  0  0  0  0  0  0
   -8.9909    3.8048  -19.3664 F   0  0  0  0  0  0  0  0  0  0  0  0
   -9.2163    4.0886  -17.0856 C   0  0  0  0  0  0  0  0  0  0  0  0
  -10.5191    3.8410  -17.2332 F   0  0  0  0  0  0  0  0  0  0  0  0
   -8.6955    4.3082  -15.8253 C   0  0  0  0  0  0  0  0  0  0  0  0
   -7.3397    4.6245  -15.7679 C   0  0  0  0  0  0  0  0  0  0  0  0
  1  2  1  0
  2  3  1  0
  4  2  1  1
  4  5  1  0
  5  6  2  0
  5  7  1  0
  8  7  1  6
  8  9  1  0
  9 10  1  0
 10 11  1  0
 11 12  1  0
 11 13  1  0
  4 14  1  0
 14 15  1  0
 15 16  2  0
 16 17  1  0
 17 18  2  0
 18 19  1  0
 19 20  1  0
 19 21  2  0
 21 22  1  0
 21 23  1  0
 23 24  2  0
 11  8  1  0
 24 14  1  0
 24 17  1  0
M  END
>  <energy_score>  (5119) 
-29.7739

>  <alias>  (5119) 
DUUMRQASHAGBPR-UHFFFAOYSA-N-P219-P8-P219-601533

>  <HIPPO Pose ID>  (5119) 
90655

>  <smiles>  (5119) 
CC(C)C(C(=O)NC1COC1(C)C)n1cnc2cc(F)c(F)cc21

>  <inchikey>  (5119) 
DUUMRQASHAGBPR-UHFFFAOYSA-N

>  <distance_score>  (5119) 
1.665086

>  <ref_mols>  (5119) 
Z0101a,Z3880a

>  <ref_pdb>  (5119) 
Z0101a

>  <HIPPO Compound ID>  (5119) 
147540

>  <name>  (5119) 
DUUMRQASHAGBPR-UHFFFAOYSA-N-P219-P8-P219-601533

>  <inspiration_score>  (5119) 
None

$$$$
DTSZTSLADXBAQX-UHFFFAOYSA-N-P8-P8-P219-601533
     RDKit          3D

 24 27  0  0  0  0  0  0  0  0999 V2000
   -4.2752    7.0915  -21.3562 C   0  0  0  0  0  0  0  0  0  0  0  0
   -4.9140    6.0892  -20.3773 C   0  0  0  0  0  0  0  0  0  0  0  0
   -4.9544    4.7387  -21.0968 C   0  0  0  0  0  0  0  0  0  0  0  0
   -4.1565    5.9720  -19.0287 C   0  0  1  0  0  0  0  0  0  0  0  0
   -3.5883    7.3584  -18.6097 C   0  0  0  0  0  0  0  0  0  0  0  0
   -2.4435    7.5911  -18.6684 O   0  0  0  0  0  0  0  0  0  0  0  0
   -4.7869    8.2778  -18.2247 N   0  0  0  0  0  0  0  0  0  0  0  0
   -4.8067    9.6341  -17.7456 C   0  0  2  0  0  0  0  0  0  0  0  0
   -4.7896    9.8727  -16.2295 C   0  0  0  0  0  0  0  0  0  0  0  0
   -4.8413   11.3137  -16.2273 O   0  0  0  0  0  0  0  0  0  0  0  0
   -4.8287   11.6088  -17.6513 C   0  0  2  0  0  0  0  0  0  0  0  0
   -5.8571   10.6283  -18.3317 C   0  0  0  0  0  0  0  0  0  0  0  0
   -3.7742   10.6534  -18.3241 C   0  0  0  0  0  0  0  0  0  0  0  0
   -4.8178    5.3695  -17.8653 N   0  0  0  0  0  0  0  0  0  0  0  0
   -4.1338    5.2743  -16.6697 C   0  0  0  0  0  0  0  0  0  0  0  0
   -4.9201    4.9835  -15.6658 N   0  0  0  0  0  0  0  0  0  0  0  0
   -6.1428    4.7471  -16.2274 C   0  0  0  0  0  0  0  0  0  0  0  0
   -7.3258    4.3473  -15.5880 C   0  0  0  0  0  0  0  0  0  0  0  0
   -8.4488    4.1059  -16.3705 C   0  0  0  0  0  0  0  0  0  0  0  0
   -9.5811    3.7133  -15.7831 F   0  0  0  0  0  0  0  0  0  0  0  0
   -8.4130    4.2510  -17.7454 C   0  0  0  0  0  0  0  0  0  0  0  0
   -9.5163    3.9900  -18.4662 F   0  0  0  0  0  0  0  0  0  0  0  0
   -7.2515    4.6859  -18.3911 C   0  0  0  0  0  0  0  0  0  0  0  0
   -6.1095    4.9465  -17.6168 C   0  0  0  0  0  0  0  0  0  0  0  0
  1  2  1  0
  2  3  1  0
  4  2  1  6
  4  5  1  0
  5  6  2  0
  5  7  1  0
  8  7  1  1
  8  9  1  0
  9 10  1  0
 10 11  1  0
 11 12  1  6
 11 13  1  0
  4 14  1  0
 14 15  1  0
 15 16  2  0
 16 17  1  0
 17 18  2  0
 18 19  1  0
 19 20  1  0
 19 21  2  0
 21 22  1  0
 21 23  1  0
 23 24  2  0
 12  8  1  0
 24 14  1  0
 13  8  1  0
 24 17  1  0
M  END
>  <energy_score>  (5120) 
-12.638792

>  <alias>  (5120) 
DTSZTSLADXBAQX-UHFFFAOYSA-N-P8-P8-P219-601533

>  <HIPPO Pose ID>  (5120) 
90658

>  <smiles>  (5120) 
CC(C)C(C(=O)NC12COC(C1)C2)n1cnc2cc(F)c(F)cc21

>  <inchikey>  (5120) 
DTSZTSLADXBAQX-UHFFFAOYSA-N

>  <distance_score>  (5120) 
1.506178

>  <ref_mols>  (5120) 
Z0101a,Z3880a

>  <ref_pdb>  (5120) 
Z0101a

>  <HIPPO Compound ID>  (5120) 
147542

>  <name>  (5120) 
DTSZTSLADXBAQX-UHFFFAOYSA-N-P8-P8-P219-601533

>  <inspiration_score>  (5120) 
None

$$$$
RGRBYEWLPZNHOB-UHFFFAOYSA-N-P8-P8-P219-601533
     RDKit          3D

 24 27  0  0  0  0  0  0  0  0999 V2000
   -3.7891    5.1953  -21.5817 C   0  0  0  0  0  0  0  0  0  0  0  0
   -4.0703    4.9396  -20.1004 C   0  0  0  0  0  0  0  0  0  0  0  0
   -2.7986    4.4294  -19.4139 C   0  0  0  0  0  0  0  0  0  0  0  0
   -4.7489    6.1443  -19.4098 C   0  0  2  0  0  0  0  0  0  0  0  0
   -3.8878    7.4363  -19.4044 C   0  0  0  0  0  0  0  0  0  0  0  0
   -2.7839    7.4627  -18.9869 O   0  0  0  0  0  0  0  0  0  0  0  0
   -4.7755    8.5671  -19.9185 N   0  0  0  0  0  0  0  0  0  0  0  0
   -4.5944    8.7828  -21.4661 C   0  0  0  0  0  0  0  0  0  0  0  0
   -3.7246    9.9780  -21.1793 C   0  0  0  0  0  0  0  0  0  0  0  0
   -4.5500   10.0380  -19.9524 C   0  0  0  0  0  0  0  0  0  0  0  0
   -3.9769   10.7542  -18.7535 C   0  0  0  0  0  0  0  0  0  0  0  0
   -5.1355   11.6367  -18.6998 O   0  0  0  0  0  0  0  0  0  0  0  0
   -5.6995   11.0107  -19.8800 C   0  0  0  0  0  0  0  0  0  0  0  0
   -5.1966    5.7946  -18.0504 N   0  0  0  0  0  0  0  0  0  0  0  0
   -4.5212    6.0538  -16.8870 C   0  0  0  0  0  0  0  0  0  0  0  0
   -5.2213    5.7285  -15.8253 N   0  0  0  0  0  0  0  0  0  0  0  0
   -6.3722    5.1664  -16.3085 C   0  0  0  0  0  0  0  0  0  0  0  0
   -7.4642    4.6452  -15.6039 C   0  0  0  0  0  0  0  0  0  0  0  0
   -8.5376    4.1493  -16.3399 C   0  0  0  0  0  0  0  0  0  0  0  0
   -9.6080    3.6896  -15.6910 F   0  0  0  0  0  0  0  0  0  0  0  0
   -8.5285    4.1277  -17.7259 C   0  0  0  0  0  0  0  0  0  0  0  0
   -9.5955    3.6538  -18.3899 F   0  0  0  0  0  0  0  0  0  0  0  0
   -7.4335    4.6117  -18.4398 C   0  0  0  0  0  0  0  0  0  0  0  0
   -6.3776    5.1670  -17.7049 C   0  0  0  0  0  0  0  0  0  0  0  0
  1  2  1  0
  2  3  1  0
  4  2  1  1
  4  5  1  0
  5  6  2  0
  5  7  1  0
  7  8  1  0
  8  9  1  0
  9 10  1  0
 10 11  1  0
 11 12  1  0
 12 13  1  0
  4 14  1  0
 14 15  1  0
 15 16  2  0
 16 17  1  0
 17 18  2  0
 18 19  1  0
 19 20  1  0
 19 21  2  0
 21 22  1  0
 21 23  1  0
 23 24  2  0
 10  7  1  0
 24 14  1  0
 13 10  1  0
 24 17  1  0
M  END
>  <energy_score>  (5121) 
-6.183989

>  <alias>  (5121) 
RGRBYEWLPZNHOB-UHFFFAOYSA-N-P8-P8-P219-601533

>  <HIPPO Pose ID>  (5121) 
90672

>  <smiles>  (5121) 
CC(C)C(C(=O)N1CCC12COC2)n1cnc2cc(F)c(F)cc21

>  <inchikey>  (5121) 
RGRBYEWLPZNHOB-UHFFFAOYSA-N

>  <distance_score>  (5121) 
1.191821

>  <ref_mols>  (5121) 
Z0101a,Z3880a

>  <ref_pdb>  (5121) 
Z0101a

>  <HIPPO Compound ID>  (5121) 
147549

>  <name>  (5121) 
RGRBYEWLPZNHOB-UHFFFAOYSA-N-P8-P8-P219-601533

>  <inspiration_score>  (5121) 
None

$$$$
ZBJVVMNSRWZHCY-UHFFFAOYSA-N-P8-P8-P219-601533
     RDKit          3D

 24 26  0  0  0  0  0  0  0  0999 V2000
   -2.3951    6.3529  -23.4530 C   0  0  0  0  0  0  0  0  0  0  0  0
   -2.6105    6.8854  -22.1586 O   0  0  0  0  0  0  0  0  0  0  0  0
   -1.4703    6.6997  -21.3013 C   0  0  0  0  0  0  0  0  0  0  0  0
   -1.5108    7.7108  -20.1473 C   0  0  0  0  0  0  0  0  0  0  0  0
   -2.5265    7.5205  -19.1520 N   0  0  0  0  0  0  0  0  0  0  0  0
   -2.5121    6.6726  -17.8321 C   0  0  0  0  0  0  0  0  0  0  0  0
   -1.6422    6.0685  -17.3269 O   0  0  0  0  0  0  0  0  0  0  0  0
   -3.8790    6.7941  -17.1072 C   0  0  1  0  0  0  0  0  0  0  0  0
   -4.4930    8.1982  -17.1538 C   0  0  0  0  0  0  0  0  0  0  0  0
   -4.8916    5.7527  -17.3581 N   0  0  0  0  0  0  0  0  0  0  0  0
   -5.1722    5.0440  -18.5006 C   0  0  0  0  0  0  0  0  0  0  0  0
   -4.2715    4.8089  -19.6521 C   0  0  0  0  0  0  0  0  0  0  0  0
   -5.0360    4.9721  -20.9648 C   0  0  0  0  0  0  0  0  0  0  0  0
   -4.3178    4.3133  -22.1279 C   0  0  0  0  0  0  0  0  0  0  0  0
   -5.3185    6.4618  -21.1909 C   0  0  0  0  0  0  0  0  0  0  0  0
   -6.3833    4.5280  -18.4503 N   0  0  0  0  0  0  0  0  0  0  0  0
   -6.8371    4.7297  -17.1917 C   0  0  0  0  0  0  0  0  0  0  0  0
   -8.0403    4.3151  -16.6087 C   0  0  0  0  0  0  0  0  0  0  0  0
   -8.2453    4.5710  -15.2530 C   0  0  0  0  0  0  0  0  0  0  0  0
   -7.2820    5.2485  -14.5064 C   0  0  0  0  0  0  0  0  0  0  0  0
   -6.0930    5.7083  -15.0897 C   0  0  0  0  0  0  0  0  0  0  0  0
   -5.8970    5.4339  -16.4485 C   0  0  0  0  0  0  0  0  0  0  0  0
   -1.1305    9.1398  -20.4857 C   0  0  0  0  0  0  0  0  0  0  0  0
   -0.1849    8.2904  -19.6939 C   0  0  0  0  0  0  0  0  0  0  0  0
  1  2  1  0
  2  3  1  0
  3  4  1  0
  4  5  1  0
  5  6  1  0
  6  7  2  0
  6  8  1  0
  8  9  1  6
  8 10  1  0
 10 11  1  0
 11 12  1  0
 12 13  1  0
 13 14  1  0
 13 15  1  0
 11 16  2  0
 16 17  1  0
 17 18  2  0
 18 19  1  0
 19 20  2  0
 20 21  1  0
 21 22  2  0
  4 23  1  0
 23 24  1  0
 24  4  1  0
 22 10  1  0
 22 17  1  0
M  END
>  <energy_score>  (5122) 
-6.03833

>  <alias>  (5122) 
ZBJVVMNSRWZHCY-UHFFFAOYSA-N-P8-P8-P219-601533

>  <HIPPO Pose ID>  (5122) 
90704

>  <smiles>  (5122) 
COCC1(NC(=O)C(C)n2c(CC(C)C)nc3ccccc32)CC1

>  <inchikey>  (5122) 
ZBJVVMNSRWZHCY-UHFFFAOYSA-N

>  <distance_score>  (5122) 
1.94542

>  <ref_mols>  (5122) 
Z0101a,Z3880a

>  <ref_pdb>  (5122) 
Z0101a

>  <HIPPO Compound ID>  (5122) 
147565

>  <name>  (5122) 
ZBJVVMNSRWZHCY-UHFFFAOYSA-N-P8-P8-P219-601533

>  <inspiration_score>  (5122) 
None

$$$$
AIBJTPGVWJPXJY-UHFFFAOYSA-N-P8-P8-P219-601533
     RDKit          3D

 24 26  0  0  0  0  0  0  0  0999 V2000
   -2.3149    7.0498  -23.4306 C   0  0  0  0  0  0  0  0  0  0  0  0
   -3.1317    7.5501  -22.3829 O   0  0  0  0  0  0  0  0  0  0  0  0
   -2.9407    8.9587  -22.0789 C   0  0  1  0  0  0  0  0  0  0  0  0
   -3.9159    9.9257  -22.7953 C   0  0  0  0  0  0  0  0  0  0  0  0
   -4.8160    9.8279  -21.5477 C   0  0  0  0  0  0  0  0  0  0  0  0
   -3.5478    9.4856  -20.7406 C   0  0  1  0  0  0  0  0  0  0  0  0
   -3.6971    8.4829  -19.6951 N   0  0  0  0  0  0  0  0  0  0  0  0
   -4.8482    8.2557  -18.6662 C   0  0  0  0  0  0  0  0  0  0  0  0
   -5.8853    8.7932  -18.5553 O   0  0  0  0  0  0  0  0  0  0  0  0
   -4.4514    7.0959  -17.6893 C   0  0  2  0  0  0  0  0  0  0  0  0
   -2.9774    6.8157  -17.4092 C   0  0  0  0  0  0  0  0  0  0  0  0
   -5.2365    5.8913  -17.9548 N   0  0  0  0  0  0  0  0  0  0  0  0
   -5.2777    5.1486  -19.1175 C   0  0  0  0  0  0  0  0  0  0  0  0
   -4.1437    5.0583  -20.0866 C   0  0  0  0  0  0  0  0  0  0  0  0
   -4.4989    4.5732  -21.4955 C   0  0  0  0  0  0  0  0  0  0  0  0
   -5.1936    5.6360  -22.3326 C   0  0  0  0  0  0  0  0  0  0  0  0
   -3.2128    4.1068  -22.1783 C   0  0  0  0  0  0  0  0  0  0  0  0
   -6.3944    4.4516  -19.1596 N   0  0  0  0  0  0  0  0  0  0  0  0
   -6.9931    4.6119  -17.9370 C   0  0  0  0  0  0  0  0  0  0  0  0
   -8.2023    4.1033  -17.4452 C   0  0  0  0  0  0  0  0  0  0  0  0
   -8.5091    4.2818  -16.0906 C   0  0  0  0  0  0  0  0  0  0  0  0
   -7.6406    4.9712  -15.2457 C   0  0  0  0  0  0  0  0  0  0  0  0
   -6.4687    5.5544  -15.7383 C   0  0  0  0  0  0  0  0  0  0  0  0
   -6.1925    5.3798  -17.1012 C   0  0  0  0  0  0  0  0  0  0  0  0
  1  2  1  0
  3  2  1  6
  3  4  1  0
  4  5  1  0
  5  6  1  0
  6  7  1  1
  7  8  1  0
  8  9  2  0
  8 10  1  0
 10 11  1  6
 10 12  1  0
 12 13  1  0
 13 14  1  0
 14 15  1  0
 15 16  1  0
 15 17  1  0
 13 18  2  0
 18 19  1  0
 19 20  2  0
 20 21  1  0
 21 22  2  0
 22 23  1  0
 23 24  2  0
  6  3  1  0
 24 12  1  0
 24 19  1  0
M  END
>  <energy_score>  (5123) 
-6.531643

>  <alias>  (5123) 
AIBJTPGVWJPXJY-UHFFFAOYSA-N-P8-P8-P219-601533

>  <HIPPO Pose ID>  (5123) 
90724

>  <smiles>  (5123) 
COC1CCC1NC(=O)C(C)n1c(CC(C)C)nc2ccccc21

>  <inchikey>  (5123) 
AIBJTPGVWJPXJY-UHFFFAOYSA-N

>  <distance_score>  (5123) 
1.581877

>  <ref_mols>  (5123) 
Z0101a,Z3880a

>  <ref_pdb>  (5123) 
Z0101a

>  <HIPPO Compound ID>  (5123) 
147575

>  <name>  (5123) 
AIBJTPGVWJPXJY-UHFFFAOYSA-N-P8-P8-P219-601533

>  <inspiration_score>  (5123) 
None

$$$$
BSGVJMBQOVAGKG-UHFFFAOYSA-N-P8-P8-P219-601533
     RDKit          3D

 25 27  0  0  0  0  0  0  0  0999 V2000
   -6.0520    8.0203  -18.8271 O   0  0  0  0  0  0  0  0  0  0  0  0
   -5.3667    7.3319  -18.1716 C   0  0  0  0  0  0  0  0  0  0  0  0
   -4.4199    7.6874  -16.9778 N   0  0  0  0  0  0  0  0  0  0  0  0
   -4.2010    8.9516  -16.2898 C   0  0  2  0  0  0  0  0  0  0  0  0
   -3.6220   10.0026  -17.2543 C   0  0  0  0  0  0  0  0  0  0  0  0
   -3.7904   11.3136  -16.7276 O   0  0  0  0  0  0  0  0  0  0  0  0
   -3.3356    8.7184  -15.0436 C   0  0  0  0  0  0  0  0  0  0  0  0
   -3.1103    9.9557  -14.1855 C   0  0  0  0  0  0  0  0  0  0  0  0
   -2.4442    9.5746  -12.9852 O   0  0  0  0  0  0  0  0  0  0  0  0
   -5.2500    5.7837  -18.3870 C   0  0  1  0  0  0  0  0  0  0  0  0
   -6.3591    5.0905  -17.5948 C   0  0  0  0  0  0  0  0  0  0  0  0
   -7.6482    4.8708  -18.1004 C   0  0  0  0  0  0  0  0  0  0  0  0
   -8.6596    4.3215  -17.3089 C   0  0  0  0  0  0  0  0  0  0  0  0
   -8.4175    4.0487  -15.9711 C   0  0  0  0  0  0  0  0  0  0  0  0
   -7.1511    4.2579  -15.4394 C   0  0  0  0  0  0  0  0  0  0  0  0
   -6.1277    4.7605  -16.2457 C   0  0  0  0  0  0  0  0  0  0  0  0
   -5.0945    5.4387  -19.8142 N   0  0  0  0  0  0  0  0  0  0  0  0
   -5.6441    4.3818  -20.4834 C   0  0  0  0  0  0  0  0  0  0  0  0
   -5.2086    4.2785  -21.7226 N   0  0  0  0  0  0  0  0  0  0  0  0
   -4.3173    5.3039  -21.8656 C   0  0  0  0  0  0  0  0  0  0  0  0
   -3.5532    5.6666  -22.9841 C   0  0  0  0  0  0  0  0  0  0  0  0
   -2.6674    6.7441  -22.8867 C   0  0  0  0  0  0  0  0  0  0  0  0
   -2.5414    7.4493  -21.6931 C   0  0  0  0  0  0  0  0  0  0  0  0
   -3.2988    7.1070  -20.5673 C   0  0  0  0  0  0  0  0  0  0  0  0
   -4.1924    6.0321  -20.6837 C   0  0  0  0  0  0  0  0  0  0  0  0
  1  2  2  0
  2  3  1  0
  3  4  1  0
  4  5  1  6
  5  6  1  0
  4  7  1  0
  7  8  1  0
  8  9  1  0
  2 10  1  0
 10 11  1  0
 11 12  2  0
 12 13  1  0
 13 14  2  0
 14 15  1  0
 15 16  2  0
 10 17  1  6
 17 18  1  0
 18 19  2  0
 19 20  1  0
 20 21  2  0
 21 22  1  0
 22 23  2  0
 23 24  1  0
 24 25  2  0
 16 11  1  0
 25 17  1  0
 25 20  1  0
M  END
>  <energy_score>  (5124) 
-2.820633

>  <alias>  (5124) 
BSGVJMBQOVAGKG-UHFFFAOYSA-N-P8-P8-P219-601533

>  <HIPPO Pose ID>  (5124) 
90796

>  <smiles>  (5124) 
O=C(NC(CO)CCO)C(c1ccccc1)n1cnc2ccccc21

>  <inchikey>  (5124) 
BSGVJMBQOVAGKG-UHFFFAOYSA-N

>  <distance_score>  (5124) 
1.040397

>  <ref_mols>  (5124) 
Z0101a,Z3880a

>  <ref_pdb>  (5124) 
Z0101a

>  <HIPPO Compound ID>  (5124) 
147612

>  <name>  (5124) 
BSGVJMBQOVAGKG-UHFFFAOYSA-N-P8-P8-P219-601533

>  <inspiration_score>  (5124) 
None

$$$$
AICKTRLKZOIBRM-UHFFFAOYSA-N-P8-P8-P219-601533
     RDKit          3D

 25 28  0  0  0  0  0  0  0  0999 V2000
   -2.8568    8.7286  -15.3595 C   0  0  0  0  0  0  0  0  0  0  0  0
   -3.8407    8.9688  -16.5146 C   0  0  2  0  0  0  0  0  0  0  0  0
   -4.2563    7.6845  -17.0588 N   0  0  0  0  0  0  0  0  0  0  0  0
   -5.2993    7.3438  -18.1791 C   0  0  0  0  0  0  0  0  0  0  0  0
   -6.0313    8.0420  -18.7725 O   0  0  0  0  0  0  0  0  0  0  0  0
   -5.2262    5.7922  -18.3997 C   0  0  1  0  0  0  0  0  0  0  0  0
   -6.3424    5.1193  -17.5990 C   0  0  0  0  0  0  0  0  0  0  0  0
   -7.6278    4.8807  -18.1047 C   0  0  0  0  0  0  0  0  0  0  0  0
   -8.6354    4.3279  -17.3100 C   0  0  0  0  0  0  0  0  0  0  0  0
   -8.3951    4.0713  -15.9685 C   0  0  0  0  0  0  0  0  0  0  0  0
   -7.1346    4.3076  -15.4343 C   0  0  0  0  0  0  0  0  0  0  0  0
   -6.1148    4.8146  -16.2430 C   0  0  0  0  0  0  0  0  0  0  0  0
   -5.0859    5.4498  -19.8300 N   0  0  0  0  0  0  0  0  0  0  0  0
   -5.6368    4.3881  -20.4912 C   0  0  0  0  0  0  0  0  0  0  0  0
   -5.2157    4.2853  -21.7353 N   0  0  0  0  0  0  0  0  0  0  0  0
   -4.3244    5.3088  -21.8877 C   0  0  0  0  0  0  0  0  0  0  0  0
   -3.5674    5.6673  -23.0125 C   0  0  0  0  0  0  0  0  0  0  0  0
   -2.6777    6.7422  -22.9260 C   0  0  0  0  0  0  0  0  0  0  0  0
   -2.5391    7.4480  -21.7351 C   0  0  0  0  0  0  0  0  0  0  0  0
   -3.2879    7.1087  -20.6029 C   0  0  0  0  0  0  0  0  0  0  0  0
   -4.1888    6.0390  -20.7081 C   0  0  0  0  0  0  0  0  0  0  0  0
   -3.2253    9.8698  -17.5765 C   0  0  0  0  0  0  0  0  0  0  0  0
   -3.4217   11.2628  -17.0097 C   0  0  0  0  0  0  0  0  0  0  0  0
   -4.5568   11.2132  -16.1343 O   0  0  0  0  0  0  0  0  0  0  0  0
   -5.0063    9.8502  -16.0549 C   0  0  0  0  0  0  0  0  0  0  0  0
  2  1  1  1
  2  3  1  0
  3  4  1  0
  4  5  2  0
  4  6  1  0
  6  7  1  0
  7  8  2  0
  8  9  1  0
  9 10  2  0
 10 11  1  0
 11 12  2  0
  6 13  1  6
 13 14  1  0
 14 15  2  0
 15 16  1  0
 16 17  2  0
 17 18  1  0
 18 19  2  0
 19 20  1  0
 20 21  2  0
  2 22  1  0
 22 23  1  0
 23 24  1  0
 24 25  1  0
 25  2  1  0
 12  7  1  0
 21 13  1  0
 21 16  1  0
M  END
>  <energy_score>  (5125) 
-7.307831

>  <alias>  (5125) 
AICKTRLKZOIBRM-UHFFFAOYSA-N-P8-P8-P219-601533

>  <HIPPO Pose ID>  (5125) 
90802

>  <smiles>  (5125) 
CC1(NC(=O)C(c2ccccc2)n2cnc3ccccc32)CCOC1

>  <inchikey>  (5125) 
AICKTRLKZOIBRM-UHFFFAOYSA-N

>  <distance_score>  (5125) 
1.037425

>  <ref_mols>  (5125) 
Z0101a,Z3880a

>  <ref_pdb>  (5125) 
Z0101a

>  <HIPPO Compound ID>  (5125) 
147615

>  <name>  (5125) 
AICKTRLKZOIBRM-UHFFFAOYSA-N-P8-P8-P219-601533

>  <inspiration_score>  (5125) 
None

$$$$
QCVZTDAEIDTKDM-UHFFFAOYSA-N-P8-P8-P219-601533
     RDKit          3D

 25 28  0  0  0  0  0  0  0  0999 V2000
   -4.6309   11.4334  -16.5199 C   0  0  0  0  0  0  0  0  0  0  0  0
   -5.1035    9.9965  -16.3288 C   0  0  2  0  0  0  0  0  0  0  0  0
   -5.6185    9.8796  -14.9868 O   0  0  0  0  0  0  0  0  0  0  0  0
   -4.8089    8.9414  -14.2686 C   0  0  0  0  0  0  0  0  0  0  0  0
   -3.5051    8.8227  -15.0292 C   0  0  0  0  0  0  0  0  0  0  0  0
   -3.9579    8.9826  -16.4656 C   0  0  1  0  0  0  0  0  0  0  0  0
   -4.3624    7.6962  -17.0138 N   0  0  0  0  0  0  0  0  0  0  0  0
   -5.3365    7.3544  -18.1929 C   0  0  0  0  0  0  0  0  0  0  0  0
   -6.0149    8.0548  -18.8443 O   0  0  0  0  0  0  0  0  0  0  0  0
   -5.2548    5.8027  -18.4026 C   0  0  1  0  0  0  0  0  0  0  0  0
   -6.3666    5.1227  -17.6037 C   0  0  0  0  0  0  0  0  0  0  0  0
   -7.6495    4.8752  -18.1109 C   0  0  0  0  0  0  0  0  0  0  0  0
   -8.6552    4.3194  -17.3161 C   0  0  0  0  0  0  0  0  0  0  0  0
   -8.4143    4.0659  -15.9740 C   0  0  0  0  0  0  0  0  0  0  0  0
   -7.1552    4.3077  -15.4390 C   0  0  0  0  0  0  0  0  0  0  0  0
   -6.1380    4.8196  -16.2475 C   0  0  0  0  0  0  0  0  0  0  0  0
   -5.1021    5.4526  -19.8300 N   0  0  0  0  0  0  0  0  0  0  0  0
   -5.6418    4.3836  -20.4882 C   0  0  0  0  0  0  0  0  0  0  0  0
   -5.2065    4.2717  -21.7265 N   0  0  0  0  0  0  0  0  0  0  0  0
   -4.3196    5.2994  -21.8786 C   0  0  0  0  0  0  0  0  0  0  0  0
   -3.5524    5.6511  -22.9986 C   0  0  0  0  0  0  0  0  0  0  0  0
   -2.6743    6.7358  -22.9143 C   0  0  0  0  0  0  0  0  0  0  0  0
   -2.5587    7.4592  -21.7312 C   0  0  0  0  0  0  0  0  0  0  0  0
   -3.3172    7.1267  -20.6030 C   0  0  0  0  0  0  0  0  0  0  0  0
   -4.2030    6.0434  -20.7055 C   0  0  0  0  0  0  0  0  0  0  0  0
  2  1  1  1
  2  3  1  0
  3  4  1  0
  4  5  1  0
  5  6  1  0
  6  7  1  1
  7  8  1  0
  8  9  2  0
  8 10  1  0
 10 11  1  0
 11 12  2  0
 12 13  1  0
 13 14  2  0
 14 15  1  0
 15 16  2  0
 10 17  1  6
 17 18  1  0
 18 19  2  0
 19 20  1  0
 20 21  2  0
 21 22  1  0
 22 23  2  0
 23 24  1  0
 24 25  2  0
  6  2  1  0
 16 11  1  0
 25 17  1  0
 25 20  1  0
M  END
>  <energy_score>  (5126) 
-0.156605

>  <alias>  (5126) 
QCVZTDAEIDTKDM-UHFFFAOYSA-N-P8-P8-P219-601533

>  <HIPPO Pose ID>  (5126) 
90804

>  <smiles>  (5126) 
CC1OCCC1NC(=O)C(c1ccccc1)n1cnc2ccccc21

>  <inchikey>  (5126) 
QCVZTDAEIDTKDM-UHFFFAOYSA-N

>  <distance_score>  (5126) 
1.035672

>  <ref_mols>  (5126) 
Z0101a,Z3880a

>  <ref_pdb>  (5126) 
Z0101a

>  <HIPPO Compound ID>  (5126) 
147616

>  <name>  (5126) 
QCVZTDAEIDTKDM-UHFFFAOYSA-N-P8-P8-P219-601533

>  <inspiration_score>  (5126) 
None

$$$$
XEOFVWINQKJJJA-UHFFFAOYSA-N-P8-P8-P219-601533
     RDKit          3D

 25 28  0  0  0  0  0  0  0  0999 V2000
   -5.4613    8.3976  -18.0393 O   0  0  0  0  0  0  0  0  0  0  0  0
   -5.0589    7.3019  -18.1648 C   0  0  0  0  0  0  0  0  0  0  0  0
   -3.6819    6.6763  -17.7645 N   0  0  0  0  0  0  0  0  0  0  0  0
   -2.5441    7.2586  -17.0328 C   0  0  0  0  0  0  0  0  0  0  0  0
   -1.5653    7.8657  -18.0430 C   0  0  0  0  0  0  0  0  0  0  0  0
   -0.4206    8.4096  -17.3921 O   0  0  0  0  0  0  0  0  0  0  0  0
   -2.9874    8.1578  -15.8407 C   0  0  0  0  0  0  0  0  0  0  0  0
   -1.9630    7.4302  -14.9539 C   0  0  0  0  0  0  0  0  0  0  0  0
   -1.9512    6.2816  -15.9777 C   0  0  0  0  0  0  0  0  0  0  0  0
   -5.9256    6.2142  -18.8328 C   0  0  2  0  0  0  0  0  0  0  0  0
   -6.6574    5.3156  -17.8295 C   0  0  0  0  0  0  0  0  0  0  0  0
   -7.8958    4.7465  -18.1910 C   0  0  0  0  0  0  0  0  0  0  0  0
   -8.7113    4.1124  -17.2543 C   0  0  0  0  0  0  0  0  0  0  0  0
   -8.2969    4.0186  -15.9340 C   0  0  0  0  0  0  0  0  0  0  0  0
   -7.0537    4.5133  -15.5604 C   0  0  0  0  0  0  0  0  0  0  0  0
   -6.2381    5.1520  -16.4980 C   0  0  0  0  0  0  0  0  0  0  0  0
   -5.2786    5.5764  -19.9906 N   0  0  0  0  0  0  0  0  0  0  0  0
   -5.5966    4.3500  -20.4996 C   0  0  0  0  0  0  0  0  0  0  0  0
   -5.0074    4.1110  -21.6514 N   0  0  0  0  0  0  0  0  0  0  0  0
   -4.3001    5.2442  -21.9285 C   0  0  0  0  0  0  0  0  0  0  0  0
   -3.4949    5.5344  -23.0388 C   0  0  0  0  0  0  0  0  0  0  0  0
   -2.9138    6.8002  -23.1503 C   0  0  0  0  0  0  0  0  0  0  0  0
   -3.1405    7.7665  -22.1754 C   0  0  0  0  0  0  0  0  0  0  0  0
   -3.9316    7.4918  -21.0536 C   0  0  0  0  0  0  0  0  0  0  0  0
   -4.4819    6.2057  -20.9359 C   0  0  0  0  0  0  0  0  0  0  0  0
  1  2  2  0
  2  3  1  0
  3  4  1  0
  4  5  1  0
  5  6  1  0
  4  7  1  0
  7  8  1  0
  8  9  1  0
  2 10  1  0
 10 11  1  0
 11 12  2  0
 12 13  1  0
 13 14  2  0
 14 15  1  0
 15 16  2  0
 10 17  1  1
 17 18  1  0
 18 19  2  0
 19 20  1  0
 20 21  2  0
 21 22  1  0
 22 23  2  0
 23 24  1  0
 24 25  2  0
  9  4  1  0
 16 11  1  0
 25 17  1  0
 25 20  1  0
M  END
>  <energy_score>  (5127) 
-13.123191

>  <alias>  (5127) 
XEOFVWINQKJJJA-UHFFFAOYSA-N-P8-P8-P219-601533

>  <HIPPO Pose ID>  (5127) 
90806

>  <smiles>  (5127) 
O=C(NC1(CO)CCC1)C(c1ccccc1)n1cnc2ccccc21

>  <inchikey>  (5127) 
XEOFVWINQKJJJA-UHFFFAOYSA-N

>  <distance_score>  (5127) 
1.093013

>  <ref_mols>  (5127) 
Z0101a,Z3880a

>  <ref_pdb>  (5127) 
Z0101a

>  <HIPPO Compound ID>  (5127) 
147617

>  <name>  (5127) 
XEOFVWINQKJJJA-UHFFFAOYSA-N-P8-P8-P219-601533

>  <inspiration_score>  (5127) 
None

$$$$
ZNPVFOHYSSSHEC-UHFFFAOYSA-N-P8-P8-P219-601533
     RDKit          3D

 25 28  0  0  0  0  0  0  0  0999 V2000
   -5.5859    8.4367  -18.1079 O   0  0  0  0  0  0  0  0  0  0  0  0
   -5.1232    7.3649  -18.2169 C   0  0  0  0  0  0  0  0  0  0  0  0
   -3.7104    6.8322  -17.8339 N   0  0  0  0  0  0  0  0  0  0  0  0
   -2.6106    7.4864  -17.1508 C   0  0  2  0  0  0  0  0  0  0  0  0
   -1.2812    6.8261  -17.5357 C   0  0  0  0  0  0  0  0  0  0  0  0
   -0.2763    6.9227  -16.3965 C   0  0  0  0  0  0  0  0  0  0  0  0
   -0.8334    6.3143  -15.1080 C   0  0  0  0  0  0  0  0  0  0  0  0
   -2.2621    6.3186  -15.0490 O   0  0  0  0  0  0  0  0  0  0  0  0
   -2.8233    7.4978  -15.6269 C   0  0  0  0  0  0  0  0  0  0  0  0
   -5.9331    6.2191  -18.8649 C   0  0  2  0  0  0  0  0  0  0  0  0
   -6.6366    5.3174  -17.8451 C   0  0  0  0  0  0  0  0  0  0  0  0
   -7.8910    4.7616  -18.1719 C   0  0  0  0  0  0  0  0  0  0  0  0
   -8.6813    4.1261  -17.2145 C   0  0  0  0  0  0  0  0  0  0  0  0
   -8.2235    4.0148  -15.9098 C   0  0  0  0  0  0  0  0  0  0  0  0
   -6.9601    4.4887  -15.5764 C   0  0  0  0  0  0  0  0  0  0  0  0
   -6.1682    5.1268  -16.5353 C   0  0  0  0  0  0  0  0  0  0  0  0
   -5.2621    5.5725  -20.0052 N   0  0  0  0  0  0  0  0  0  0  0  0
   -5.5983    4.3509  -20.5185 C   0  0  0  0  0  0  0  0  0  0  0  0
   -5.0090    4.1033  -21.6683 N   0  0  0  0  0  0  0  0  0  0  0  0
   -4.2785    5.2235  -21.9382 C   0  0  0  0  0  0  0  0  0  0  0  0
   -3.4627    5.4993  -23.0446 C   0  0  0  0  0  0  0  0  0  0  0  0
   -2.8525    6.7514  -23.1508 C   0  0  0  0  0  0  0  0  0  0  0  0
   -3.0602    7.7189  -22.1735 C   0  0  0  0  0  0  0  0  0  0  0  0
   -3.8624    7.4590  -21.0559 C   0  0  0  0  0  0  0  0  0  0  0  0
   -4.4451    6.1863  -20.9436 C   0  0  0  0  0  0  0  0  0  0  0  0
  1  2  2  0
  2  3  1  0
  4  3  1  6
  4  5  1  0
  5  6  1  0
  6  7  1  0
  7  8  1  0
  8  9  1  0
  2 10  1  0
 10 11  1  0
 11 12  2  0
 12 13  1  0
 13 14  2  0
 14 15  1  0
 15 16  2  0
 10 17  1  1
 17 18  1  0
 18 19  2  0
 19 20  1  0
 20 21  2  0
 21 22  1  0
 22 23  2  0
 23 24  1  0
 24 25  2  0
  9  4  1  0
 16 11  1  0
 25 17  1  0
 25 20  1  0
M  END
>  <energy_score>  (5128) 
-4.37011

>  <alias>  (5128) 
ZNPVFOHYSSSHEC-UHFFFAOYSA-N-P8-P8-P219-601533

>  <HIPPO Pose ID>  (5128) 
90808

>  <smiles>  (5128) 
O=C(NC1CCCOC1)C(c1ccccc1)n1cnc2ccccc21

>  <inchikey>  (5128) 
ZNPVFOHYSSSHEC-UHFFFAOYSA-N

>  <distance_score>  (5128) 
1.129464

>  <ref_mols>  (5128) 
Z0101a,Z3880a

>  <ref_pdb>  (5128) 
Z0101a

>  <HIPPO Compound ID>  (5128) 
147618

>  <name>  (5128) 
ZNPVFOHYSSSHEC-UHFFFAOYSA-N-P8-P8-P219-601533

>  <inspiration_score>  (5128) 
None

$$$$
KYVVPCUFSRLNRP-UHFFFAOYSA-N-P8-P8-P219-601533
     RDKit          3D

 25 28  0  0  0  0  0  0  0  0999 V2000
   -3.7740    6.0464  -12.8468 C   0  0  0  0  0  0  0  0  0  0  0  0
   -3.5091    6.6479  -14.1073 O   0  0  0  0  0  0  0  0  0  0  0  0
   -2.3746    6.0447  -14.7413 C   0  0  0  0  0  0  0  0  0  0  0  0
   -2.2324    6.6399  -16.1319 C   0  0  0  0  0  0  0  0  0  0  0  0
   -3.3833    6.4834  -16.9530 N   0  0  0  0  0  0  0  0  0  0  0  0
   -3.8901    5.2449  -17.7668 C   0  0  0  0  0  0  0  0  0  0  0  0
   -3.3941    4.1983  -17.9421 O   0  0  0  0  0  0  0  0  0  0  0  0
   -5.2687    5.6341  -18.3734 C   0  0  2  0  0  0  0  0  0  0  0  0
   -6.4424    5.0288  -17.5933 C   0  0  0  0  0  0  0  0  0  0  0  0
   -7.6831    4.7253  -18.1749 C   0  0  0  0  0  0  0  0  0  0  0  0
   -8.7524    4.2406  -17.4173 C   0  0  0  0  0  0  0  0  0  0  0  0
   -8.6221    4.1052  -16.0435 C   0  0  0  0  0  0  0  0  0  0  0  0
   -7.4193    4.4214  -15.4288 C   0  0  0  0  0  0  0  0  0  0  0  0
   -6.3441    4.8790  -16.1933 C   0  0  0  0  0  0  0  0  0  0  0  0
   -5.1864    5.4052  -19.8232 N   0  0  0  0  0  0  0  0  0  0  0  0
   -5.6215    4.3281  -20.5332 C   0  0  0  0  0  0  0  0  0  0  0  0
   -5.2501    4.3650  -21.7960 N   0  0  0  0  0  0  0  0  0  0  0  0
   -4.5635    5.5410  -21.9217 C   0  0  0  0  0  0  0  0  0  0  0  0
   -3.9570    6.1021  -23.0542 C   0  0  0  0  0  0  0  0  0  0  0  0
   -3.2975    7.3307  -22.9335 C   0  0  0  0  0  0  0  0  0  0  0  0
   -3.2389    7.9891  -21.7060 C   0  0  0  0  0  0  0  0  0  0  0  0
   -3.8390    7.4472  -20.5640 C   0  0  0  0  0  0  0  0  0  0  0  0
   -4.5030    6.2216  -20.7067 C   0  0  0  0  0  0  0  0  0  0  0  0
   -0.8676    6.6016  -16.7818 C   0  0  0  0  0  0  0  0  0  0  0  0
   -1.4140    7.9048  -16.2810 C   0  0  0  0  0  0  0  0  0  0  0  0
  1  2  1  0
  2  3  1  0
  3  4  1  0
  4  5  1  0
  5  6  1  0
  6  7  2  0
  6  8  1  0
  8  9  1  0
  9 10  2  0
 10 11  1  0
 11 12  2  0
 12 13  1  0
 13 14  2  0
  8 15  1  6
 15 16  1  0
 16 17  2  0
 17 18  1  0
 18 19  2  0
 19 20  1  0
 20 21  2  0
 21 22  1  0
 22 23  2  0
  4 24  1  0
 24 25  1  0
 25  4  1  0
 14  9  1  0
 23 15  1  0
 23 18  1  0
M  END
>  <energy_score>  (5129) 
-12.621639

>  <alias>  (5129) 
KYVVPCUFSRLNRP-UHFFFAOYSA-N-P8-P8-P219-601533

>  <HIPPO Pose ID>  (5129) 
90810

>  <smiles>  (5129) 
COCC1(NC(=O)C(c2ccccc2)n2cnc3ccccc32)CC1

>  <inchikey>  (5129) 
KYVVPCUFSRLNRP-UHFFFAOYSA-N

>  <distance_score>  (5129) 
0.959227

>  <ref_mols>  (5129) 
Z0101a,Z3880a

>  <ref_pdb>  (5129) 
Z0101a

>  <HIPPO Compound ID>  (5129) 
147619

>  <name>  (5129) 
KYVVPCUFSRLNRP-UHFFFAOYSA-N-P8-P8-P219-601533

>  <inspiration_score>  (5129) 
None

$$$$
FGSVDHMRGLRHFZ-UHFFFAOYSA-N-P8-P8-P219-601533
     RDKit          3D

 25 29  0  0  0  0  0  0  0  0999 V2000
   -3.3621    4.8703  -16.8260 O   0  0  0  0  0  0  0  0  0  0  0  0
   -3.6449    5.9073  -17.3208 C   0  0  0  0  0  0  0  0  0  0  0  0
   -5.0305    6.1592  -18.0016 C   0  0  2  0  0  0  0  0  0  0  0  0
   -6.1890    5.4756  -17.2363 C   0  0  0  0  0  0  0  0  0  0  0  0
   -7.3264    4.9510  -17.8777 C   0  0  0  0  0  0  0  0  0  0  0  0
   -8.3603    4.3523  -17.1508 C   0  0  0  0  0  0  0  0  0  0  0  0
   -8.3024    4.3020  -15.7639 C   0  0  0  0  0  0  0  0  0  0  0  0
   -7.2070    4.8382  -15.0999 C   0  0  0  0  0  0  0  0  0  0  0  0
   -6.1664    5.4232  -15.8263 C   0  0  0  0  0  0  0  0  0  0  0  0
   -4.9618    5.8068  -19.4199 N   0  0  0  0  0  0  0  0  0  0  0  0
   -4.9793    4.5344  -19.9039 C   0  0  0  0  0  0  0  0  0  0  0  0
   -4.8099    4.4832  -21.2048 N   0  0  0  0  0  0  0  0  0  0  0  0
   -4.7060    5.7878  -21.5943 C   0  0  0  0  0  0  0  0  0  0  0  0
   -4.5210    6.3206  -22.8779 C   0  0  0  0  0  0  0  0  0  0  0  0
   -4.4500    7.7098  -23.0306 C   0  0  0  0  0  0  0  0  0  0  0  0
   -4.5557    8.5535  -21.9252 C   0  0  0  0  0  0  0  0  0  0  0  0
   -4.7383    8.0395  -20.6357 C   0  0  0  0  0  0  0  0  0  0  0  0
   -4.8086    6.6476  -20.4992 C   0  0  0  0  0  0  0  0  0  0  0  0
   -2.8740    7.2325  -17.3538 N   0  0  0  0  0  0  0  0  0  0  0  0
   -1.9233    7.3186  -18.6143 C   0  0  2  0  0  0  0  0  0  0  0  0
   -1.0034    6.1004  -18.7743 C   0  0  0  0  0  0  0  0  0  0  0  0
   -0.0412    6.0563  -17.7121 O   0  0  0  0  0  0  0  0  0  0  0  0
   -0.5973    6.4835  -16.4645 C   0  0  0  0  0  0  0  0  0  0  0  0
   -1.5715    7.6389  -16.6798 C   0  0  1  0  0  0  0  0  0  0  0  0
   -1.3131    8.5180  -17.8995 C   0  0  0  0  0  0  0  0  0  0  0  0
  1  2  2  0
  2  3  1  0
  3  4  1  0
  4  5  2  0
  5  6  1  0
  6  7  2  0
  7  8  1  0
  8  9  2  0
  3 10  1  6
 10 11  1  0
 11 12  2  0
 12 13  1  0
 13 14  2  0
 14 15  1  0
 15 16  2  0
 16 17  1  0
 17 18  2  0
  2 19  1  0
 19 20  1  0
 20 21  1  1
 21 22  1  0
 22 23  1  0
 24 23  1  6
 24 25  1  0
  9  4  1  0
 18 10  1  0
 24 19  1  0
 18 13  1  0
 25 20  1  0
M  END
>  <energy_score>  (5130) 
-4.914486

>  <alias>  (5130) 
FGSVDHMRGLRHFZ-UHFFFAOYSA-N-P8-P8-P219-601533

>  <HIPPO Pose ID>  (5130) 
90812

>  <smiles>  (5130) 
O=C(C(c1ccccc1)n1cnc2ccccc21)N1C2COCC1C2

>  <inchikey>  (5130) 
FGSVDHMRGLRHFZ-UHFFFAOYSA-N

>  <distance_score>  (5130) 
1.254438

>  <ref_mols>  (5130) 
Z0101a,Z3880a

>  <ref_pdb>  (5130) 
Z0101a

>  <HIPPO Compound ID>  (5130) 
147620

>  <name>  (5130) 
FGSVDHMRGLRHFZ-UHFFFAOYSA-N-P8-P8-P219-601533

>  <inspiration_score>  (5130) 
None

$$$$
KOCADZNPLZUKHW-UHFFFAOYSA-N-P8-P8-P219-601533
     RDKit          3D

 25 28  0  0  0  0  0  0  0  0999 V2000
   -3.2581    4.7203  -17.7869 O   0  0  0  0  0  0  0  0  0  0  0  0
   -3.9650    5.6416  -17.6462 C   0  0  0  0  0  0  0  0  0  0  0  0
   -3.7906    6.9264  -16.7749 N   0  0  0  0  0  0  0  0  0  0  0  0
   -2.6719    7.3745  -15.9804 C   0  0  2  0  0  0  0  0  0  0  0  0
   -1.8040    6.2786  -15.3734 C   0  0  0  0  0  0  0  0  0  0  0  0
   -1.2199    6.8198  -14.1700 O   0  0  0  0  0  0  0  0  0  0  0  0
   -1.8323    8.0899  -13.9116 C   0  0  0  0  0  0  0  0  0  0  0  0
   -3.1071    8.1304  -14.7349 C   0  0  1  0  0  0  0  0  0  0  0  0
   -3.5615    9.4416  -15.0384 O   0  0  0  0  0  0  0  0  0  0  0  0
   -5.3538    5.7562  -18.3482 C   0  0  2  0  0  0  0  0  0  0  0  0
   -6.4746    5.0566  -17.5697 C   0  0  0  0  0  0  0  0  0  0  0  0
   -7.7241    4.7811  -18.1501 C   0  0  0  0  0  0  0  0  0  0  0  0
   -8.7823    4.2544  -17.4075 C   0  0  0  0  0  0  0  0  0  0  0  0
   -8.6308    4.0474  -16.0460 C   0  0  0  0  0  0  0  0  0  0  0  0
   -7.4120    4.3086  -15.4361 C   0  0  0  0  0  0  0  0  0  0  0  0
   -6.3450    4.8021  -16.1894 C   0  0  0  0  0  0  0  0  0  0  0  0
   -5.1804    5.4277  -19.7713 N   0  0  0  0  0  0  0  0  0  0  0  0
   -5.6191    4.3331  -20.4503 C   0  0  0  0  0  0  0  0  0  0  0  0
   -5.2240    4.3210  -21.7068 N   0  0  0  0  0  0  0  0  0  0  0  0
   -4.5256    5.4863  -21.8639 C   0  0  0  0  0  0  0  0  0  0  0  0
   -3.8964    6.0032  -23.0049 C   0  0  0  0  0  0  0  0  0  0  0  0
   -3.2418    7.2374  -22.9202 C   0  0  0  0  0  0  0  0  0  0  0  0
   -3.2111    7.9454  -21.7197 C   0  0  0  0  0  0  0  0  0  0  0  0
   -3.8315    7.4468  -20.5689 C   0  0  0  0  0  0  0  0  0  0  0  0
   -4.4850    6.2117  -20.6748 C   0  0  0  0  0  0  0  0  0  0  0  0
  1  2  2  0
  2  3  1  0
  4  3  1  1
  4  5  1  0
  5  6  1  0
  6  7  1  0
  7  8  1  0
  8  9  1  6
  2 10  1  0
 10 11  1  0
 11 12  2  0
 12 13  1  0
 13 14  2  0
 14 15  1  0
 15 16  2  0
 10 17  1  6
 17 18  1  0
 18 19  2  0
 19 20  1  0
 20 21  2  0
 21 22  1  0
 22 23  2  0
 23 24  1  0
 24 25  2  0
  8  4  1  0
 16 11  1  0
 25 17  1  0
 25 20  1  0
M  END
>  <energy_score>  (5131) 
-0.199596

>  <alias>  (5131) 
KOCADZNPLZUKHW-UHFFFAOYSA-N-P8-P8-P219-601533

>  <HIPPO Pose ID>  (5131) 
90816

>  <smiles>  (5131) 
O=C(NC1COCC1O)C(c1ccccc1)n1cnc2ccccc21

>  <inchikey>  (5131) 
KOCADZNPLZUKHW-UHFFFAOYSA-N

>  <distance_score>  (5131) 
0.837771

>  <ref_mols>  (5131) 
Z0101a,Z3880a

>  <ref_pdb>  (5131) 
Z0101a

>  <HIPPO Compound ID>  (5131) 
147622

>  <name>  (5131) 
KOCADZNPLZUKHW-UHFFFAOYSA-N-P8-P8-P219-601533

>  <inspiration_score>  (5131) 
None

$$$$
JIPPZYDZNLEPGC-UHFFFAOYSA-N-P8-P8-P219-601533
     RDKit          3D

 25 28  0  0  0  0  0  0  0  0999 V2000
   -3.2143    4.8861  -17.8059 O   0  0  0  0  0  0  0  0  0  0  0  0
   -3.9497    5.7882  -17.6759 C   0  0  0  0  0  0  0  0  0  0  0  0
   -3.7680    7.1407  -16.9110 N   0  0  0  0  0  0  0  0  0  0  0  0
   -2.6793    7.6104  -16.0741 C   0  0  2  0  0  0  0  0  0  0  0  0
   -1.4400    7.9483  -16.9113 C   0  0  0  0  0  0  0  0  0  0  0  0
   -0.4975    6.7736  -16.7082 C   0  0  0  0  0  0  0  0  0  0  0  0
   -0.6854    6.4240  -15.2402 C   0  0  0  0  0  0  0  0  0  0  0  0
   -2.1803    6.6238  -14.9836 C   0  0  2  0  0  0  0  0  0  0  0  0
   -2.8503    5.3704  -14.9899 O   0  0  0  0  0  0  0  0  0  0  0  0
   -5.3523    5.8330  -18.3632 C   0  0  2  0  0  0  0  0  0  0  0  0
   -6.4451    5.1115  -17.5675 C   0  0  0  0  0  0  0  0  0  0  0  0
   -7.6934    4.7977  -18.1337 C   0  0  0  0  0  0  0  0  0  0  0  0
   -8.7322    4.2534  -17.3756 C   0  0  0  0  0  0  0  0  0  0  0  0
   -8.5619    4.0613  -16.0139 C   0  0  0  0  0  0  0  0  0  0  0  0
   -7.3441    4.3610  -15.4195 C   0  0  0  0  0  0  0  0  0  0  0  0
   -6.2977    4.8781  -16.1866 C   0  0  0  0  0  0  0  0  0  0  0  0
   -5.1771    5.4778  -19.7814 N   0  0  0  0  0  0  0  0  0  0  0  0
   -5.5920    4.3575  -20.4341 C   0  0  0  0  0  0  0  0  0  0  0  0
   -5.2092    4.3297  -21.6947 N   0  0  0  0  0  0  0  0  0  0  0  0
   -4.5357    5.5062  -21.8790 C   0  0  0  0  0  0  0  0  0  0  0  0
   -3.9219    6.0127  -23.0333 C   0  0  0  0  0  0  0  0  0  0  0  0
   -3.2934    7.2620  -22.9789 C   0  0  0  0  0  0  0  0  0  0  0  0
   -3.2731    7.9961  -21.7945 C   0  0  0  0  0  0  0  0  0  0  0  0
   -3.8778    7.5087  -20.6310 C   0  0  0  0  0  0  0  0  0  0  0  0
   -4.5047    6.2576  -20.7059 C   0  0  0  0  0  0  0  0  0  0  0  0
  1  2  2  0
  2  3  1  0
  4  3  1  6
  4  5  1  0
  5  6  1  0
  6  7  1  0
  7  8  1  0
  8  9  1  6
  2 10  1  0
 10 11  1  0
 11 12  2  0
 12 13  1  0
 13 14  2  0
 14 15  1  0
 15 16  2  0
 10 17  1  6
 17 18  1  0
 18 19  2  0
 19 20  1  0
 20 21  2  0
 21 22  1  0
 22 23  2  0
 23 24  1  0
 24 25  2  0
  8  4  1  0
 16 11  1  0
 25 17  1  0
 25 20  1  0
M  END
>  <energy_score>  (5132) 
-6.718887

>  <alias>  (5132) 
JIPPZYDZNLEPGC-UHFFFAOYSA-N-P8-P8-P219-601533

>  <HIPPO Pose ID>  (5132) 
90820

>  <smiles>  (5132) 
O=C(NC1CCCC1O)C(c1ccccc1)n1cnc2ccccc21

>  <inchikey>  (5132) 
JIPPZYDZNLEPGC-UHFFFAOYSA-N

>  <distance_score>  (5132) 
1.041221

>  <ref_mols>  (5132) 
Z0101a,Z3880a

>  <ref_pdb>  (5132) 
Z0101a

>  <HIPPO Compound ID>  (5132) 
147624

>  <name>  (5132) 
JIPPZYDZNLEPGC-UHFFFAOYSA-N-P8-P8-P219-601533

>  <inspiration_score>  (5132) 
None

$$$$
PXIIUKZXJHQKAI-UHFFFAOYSA-N-P8-P8-P219-601533
     RDKit          3D

 25 28  0  0  0  0  0  0  0  0999 V2000
   -1.4190    9.0521  -18.3897 C   0  0  0  0  0  0  0  0  0  0  0  0
   -0.7268    7.9017  -17.6654 C   0  0  2  0  0  0  0  0  0  0  0  0
   -0.4133    8.3305  -16.3202 O   0  0  0  0  0  0  0  0  0  0  0  0
    0.4792    7.3141  -18.4548 C   0  0  0  0  0  0  0  0  0  0  0  0
   -0.4651    6.2220  -18.9953 C   0  0  0  0  0  0  0  0  0  0  0  0
   -1.3613    6.4665  -17.7654 C   0  0  2  0  0  0  0  0  0  0  0  0
   -2.7944    6.4052  -18.0306 N   0  0  0  0  0  0  0  0  0  0  0  0
   -3.8183    5.2430  -17.8110 C   0  0  0  0  0  0  0  0  0  0  0  0
   -3.6772    4.1930  -17.3140 O   0  0  0  0  0  0  0  0  0  0  0  0
   -5.2047    5.7431  -18.3475 C   0  0  2  0  0  0  0  0  0  0  0  0
   -6.4002    5.1654  -17.5689 C   0  0  0  0  0  0  0  0  0  0  0  0
   -7.6070    4.7606  -18.1624 C   0  0  0  0  0  0  0  0  0  0  0  0
   -8.6656    4.2535  -17.4025 C   0  0  0  0  0  0  0  0  0  0  0  0
   -8.5581    4.1841  -16.0209 C   0  0  0  0  0  0  0  0  0  0  0  0
   -7.3914    4.6051  -15.3980 C   0  0  0  0  0  0  0  0  0  0  0  0
   -6.3293    5.0956  -16.1615 C   0  0  0  0  0  0  0  0  0  0  0  0
   -5.2105    5.5631  -19.8042 N   0  0  0  0  0  0  0  0  0  0  0  0
   -5.4801    4.4001  -20.4631 C   0  0  0  0  0  0  0  0  0  0  0  0
   -5.1362    4.4374  -21.7311 N   0  0  0  0  0  0  0  0  0  0  0  0
   -4.6965    5.7166  -21.9282 C   0  0  0  0  0  0  0  0  0  0  0  0
   -4.2328    6.3225  -23.1041 C   0  0  0  0  0  0  0  0  0  0  0  0
   -3.8717    7.6739  -23.0752 C   0  0  0  0  0  0  0  0  0  0  0  0
   -3.9762    8.4127  -21.8981 C   0  0  0  0  0  0  0  0  0  0  0  0
   -4.4293    7.8249  -20.7116 C   0  0  0  0  0  0  0  0  0  0  0  0
   -4.7692    6.4660  -20.7515 C   0  0  0  0  0  0  0  0  0  0  0  0
  2  1  1  6
  2  3  1  0
  2  4  1  0
  4  5  1  0
  5  6  1  0
  6  7  1  6
  7  8  1  0
  8  9  2  0
  8 10  1  0
 10 11  1  0
 11 12  2  0
 12 13  1  0
 13 14  2  0
 14 15  1  0
 15 16  2  0
 10 17  1  6
 17 18  1  0
 18 19  2  0
 19 20  1  0
 20 21  2  0
 21 22  1  0
 22 23  2  0
 23 24  1  0
 24 25  2  0
  6  2  1  0
 16 11  1  0
 25 17  1  0
 25 20  1  0
M  END
>  <energy_score>  (5133) 
-10.236028

>  <alias>  (5133) 
PXIIUKZXJHQKAI-UHFFFAOYSA-N-P8-P8-P219-601533

>  <HIPPO Pose ID>  (5133) 
90840

>  <smiles>  (5133) 
CC1(O)CCC1NC(=O)C(c1ccccc1)n1cnc2ccccc21

>  <inchikey>  (5133) 
PXIIUKZXJHQKAI-UHFFFAOYSA-N

>  <distance_score>  (5133) 
0.893703

>  <ref_mols>  (5133) 
Z0101a,Z3880a

>  <ref_pdb>  (5133) 
Z0101a

>  <HIPPO Compound ID>  (5133) 
147634

>  <name>  (5133) 
PXIIUKZXJHQKAI-UHFFFAOYSA-N-P8-P8-P219-601533

>  <inspiration_score>  (5133) 
None

$$$$
PRSWXBZCCXOPOX-UHFFFAOYSA-N-P8-P8-P219-601533
     RDKit          3D

 25 28  0  0  0  0  0  0  0  0999 V2000
   -0.8216    6.5005  -17.9555 C   0  0  0  0  0  0  0  0  0  0  0  0
   -1.6304    6.9162  -16.9700 C   0  0  0  0  0  0  0  0  0  0  0  0
   -1.4960    6.5644  -15.5223 C   0  0  0  0  0  0  0  0  0  0  0  0
   -2.7347    6.9691  -14.9176 O   0  0  0  0  0  0  0  0  0  0  0  0
   -3.1927    8.0993  -15.6800 C   0  0  0  0  0  0  0  0  0  0  0  0
   -2.8312    7.7873  -17.1286 C   0  0  2  0  0  0  0  0  0  0  0  0
   -3.8523    7.0342  -17.8082 N   0  0  0  0  0  0  0  0  0  0  0  0
   -5.2638    7.4626  -18.3006 C   0  0  0  0  0  0  0  0  0  0  0  0
   -5.7823    8.5139  -18.2980 O   0  0  0  0  0  0  0  0  0  0  0  0
   -5.9795    6.2339  -18.9009 C   0  0  2  0  0  0  0  0  0  0  0  0
   -6.6461    5.3354  -17.8539 C   0  0  0  0  0  0  0  0  0  0  0  0
   -7.8965    4.7540  -18.1540 C   0  0  0  0  0  0  0  0  0  0  0  0
   -8.6601    4.1170  -17.1765 C   0  0  0  0  0  0  0  0  0  0  0  0
   -8.1769    4.0245  -15.8794 C   0  0  0  0  0  0  0  0  0  0  0  0
   -6.9161    4.5241  -15.5731 C   0  0  0  0  0  0  0  0  0  0  0  0
   -6.1515    5.1672  -16.5513 C   0  0  0  0  0  0  0  0  0  0  0  0
   -5.2609    5.5769  -20.0065 N   0  0  0  0  0  0  0  0  0  0  0  0
   -5.5983    4.3534  -20.5188 C   0  0  0  0  0  0  0  0  0  0  0  0
   -4.9950    4.0948  -21.6582 N   0  0  0  0  0  0  0  0  0  0  0  0
   -4.2473    5.2048  -21.9201 C   0  0  0  0  0  0  0  0  0  0  0  0
   -3.4130    5.4638  -23.0168 C   0  0  0  0  0  0  0  0  0  0  0  0
   -2.7840    6.7063  -23.1208 C   0  0  0  0  0  0  0  0  0  0  0  0
   -2.9939    7.6818  -22.1525 C   0  0  0  0  0  0  0  0  0  0  0  0
   -3.8172    7.4394  -21.0460 C   0  0  0  0  0  0  0  0  0  0  0  0
   -4.4176    6.1748  -20.9319 C   0  0  0  0  0  0  0  0  0  0  0  0
  1  2  2  0
  2  3  1  0
  3  4  1  0
  4  5  1  0
  5  6  1  0
  6  7  1  1
  7  8  1  0
  8  9  2  0
  8 10  1  0
 10 11  1  0
 11 12  2  0
 12 13  1  0
 13 14  2  0
 14 15  1  0
 15 16  2  0
 10 17  1  1
 17 18  1  0
 18 19  2  0
 19 20  1  0
 20 21  2  0
 21 22  1  0
 22 23  2  0
 23 24  1  0
 24 25  2  0
  6  2  1  0
 16 11  1  0
 25 17  1  0
 25 20  1  0
M  END
>  <energy_score>  (5134) 
-4.055496

>  <alias>  (5134) 
PRSWXBZCCXOPOX-UHFFFAOYSA-N-P8-P8-P219-601533

>  <HIPPO Pose ID>  (5134) 
90842

>  <smiles>  (5134) 
C=C1COCC1NC(=O)C(c1ccccc1)n1cnc2ccccc21

>  <inchikey>  (5134) 
PRSWXBZCCXOPOX-UHFFFAOYSA-N

>  <distance_score>  (5134) 
1.161816

>  <ref_mols>  (5134) 
Z0101a,Z3880a

>  <ref_pdb>  (5134) 
Z0101a

>  <HIPPO Compound ID>  (5134) 
147635

>  <name>  (5134) 
PRSWXBZCCXOPOX-UHFFFAOYSA-N-P8-P8-P219-601533

>  <inspiration_score>  (5134) 
None

$$$$
IOPNTKVFDXILGH-UHFFFAOYSA-N-P8-P8-P219-601533
     RDKit          3D

 25 28  0  0  0  0  0  0  0  0999 V2000
   -4.1673    9.5350  -14.1700 C   0  0  0  0  0  0  0  0  0  0  0  0
   -4.7341    8.9375  -15.4593 C   0  0  1  0  0  0  0  0  0  0  0  0
   -4.9882   10.0164  -16.5043 C   0  0  0  0  0  0  0  0  0  0  0  0
   -3.8221   10.1128  -17.3343 O   0  0  0  0  0  0  0  0  0  0  0  0
   -2.9153    9.0552  -16.9726 C   0  0  0  0  0  0  0  0  0  0  0  0
   -3.7249    8.0490  -16.1623 C   0  0  2  0  0  0  0  0  0  0  0  0
   -4.3658    7.0530  -17.0076 N   0  0  0  0  0  0  0  0  0  0  0  0
   -3.7700    5.8155  -17.7406 C   0  0  0  0  0  0  0  0  0  0  0  0
   -2.6615    5.4542  -17.8385 O   0  0  0  0  0  0  0  0  0  0  0  0
   -4.9213    4.9942  -18.3940 C   0  0  1  0  0  0  0  0  0  0  0  0
   -6.2147    4.8459  -17.5681 C   0  0  0  0  0  0  0  0  0  0  0  0
   -7.4928    4.7193  -18.1336 C   0  0  0  0  0  0  0  0  0  0  0  0
   -8.6065    4.3772  -17.3584 C   0  0  0  0  0  0  0  0  0  0  0  0
   -8.4819    4.2201  -15.9855 C   0  0  0  0  0  0  0  0  0  0  0  0
   -7.2367    4.3624  -15.3897 C   0  0  0  0  0  0  0  0  0  0  0  0
   -6.1153    4.6474  -16.1737 C   0  0  0  0  0  0  0  0  0  0  0  0
   -5.0709    5.2310  -19.8456 N   0  0  0  0  0  0  0  0  0  0  0  0
   -5.5971    4.2842  -20.6907 C   0  0  0  0  0  0  0  0  0  0  0  0
   -5.2882    4.4812  -21.9498 N   0  0  0  0  0  0  0  0  0  0  0  0
   -4.6726    5.6989  -21.9515 C   0  0  0  0  0  0  0  0  0  0  0  0
   -4.2061    6.4350  -23.0506 C   0  0  0  0  0  0  0  0  0  0  0  0
   -3.6404    7.6937  -22.8317 C   0  0  0  0  0  0  0  0  0  0  0  0
   -3.5458    8.2099  -21.5419 C   0  0  0  0  0  0  0  0  0  0  0  0
   -4.0018    7.4853  -20.4334 C   0  0  0  0  0  0  0  0  0  0  0  0
   -4.5564    6.2201  -20.6563 C   0  0  0  0  0  0  0  0  0  0  0  0
  2  1  1  1
  2  3  1  0
  3  4  1  0
  4  5  1  0
  5  6  1  0
  6  7  1  6
  7  8  1  0
  8  9  2  0
  8 10  1  0
 10 11  1  0
 11 12  2  0
 12 13  1  0
 13 14  2  0
 14 15  1  0
 15 16  2  0
 10 17  1  6
 17 18  1  0
 18 19  2  0
 19 20  1  0
 20 21  2  0
 21 22  1  0
 22 23  2  0
 23 24  1  0
 24 25  2  0
  6  2  1  0
 16 11  1  0
 25 17  1  0
 25 20  1  0
M  END
>  <energy_score>  (5135) 
-0.114601

>  <alias>  (5135) 
IOPNTKVFDXILGH-UHFFFAOYSA-N-P8-P8-P219-601533

>  <HIPPO Pose ID>  (5135) 
90846

>  <smiles>  (5135) 
CC1COCC1NC(=O)C(c1ccccc1)n1cnc2ccccc21

>  <inchikey>  (5135) 
IOPNTKVFDXILGH-UHFFFAOYSA-N

>  <distance_score>  (5135) 
0.906719

>  <ref_mols>  (5135) 
Z0101a,Z3880a

>  <ref_pdb>  (5135) 
Z0101a

>  <HIPPO Compound ID>  (5135) 
147637

>  <name>  (5135) 
IOPNTKVFDXILGH-UHFFFAOYSA-N-P8-P8-P219-601533

>  <inspiration_score>  (5135) 
None

$$$$
ZGCJUFKSHFWHFF-UHFFFAOYSA-N-P8-P8-P219-601533
     RDKit          3D

 25 27  0  0  0  0  0  0  0  0999 V2000
   -0.6607    6.8182  -14.4747 C   0  0  0  0  0  0  0  0  0  0  0  0
   -0.9162    6.2841  -15.8762 C   0  0  0  0  0  0  0  0  0  0  0  0
   -1.1932    7.4178  -16.8628 C   0  0  0  0  0  0  0  0  0  0  0  0
   -1.4970    6.9656  -18.2979 C   0  0  1  0  0  0  0  0  0  0  0  0
   -0.3256    6.2313  -18.9776 C   0  0  0  0  0  0  0  0  0  0  0  0
   -0.6280    6.0607  -20.3623 O   0  0  0  0  0  0  0  0  0  0  0  0
   -2.7017    6.1576  -18.3941 N   0  0  0  0  0  0  0  0  0  0  0  0
   -4.1617    6.4490  -17.9101 C   0  0  0  0  0  0  0  0  0  0  0  0
   -4.5915    7.3488  -17.2943 O   0  0  0  0  0  0  0  0  0  0  0  0
   -5.0439    5.2908  -18.4576 C   0  0  1  0  0  0  0  0  0  0  0  0
   -6.3054    5.0052  -17.6269 C   0  0  0  0  0  0  0  0  0  0  0  0
   -7.5666    4.7190  -18.1723 C   0  0  0  0  0  0  0  0  0  0  0  0
   -8.6377    4.3096  -17.3697 C   0  0  0  0  0  0  0  0  0  0  0  0
   -8.4833    4.2183  -15.9933 C   0  0  0  0  0  0  0  0  0  0  0  0
   -7.2532    4.5101  -15.4195 C   0  0  0  0  0  0  0  0  0  0  0  0
   -6.1756    4.8856  -16.2269 C   0  0  0  0  0  0  0  0  0  0  0  0
   -5.2134    5.3737  -19.9245 N   0  0  0  0  0  0  0  0  0  0  0  0
   -5.5978    4.2977  -20.6822 C   0  0  0  0  0  0  0  0  0  0  0  0
   -5.2348    4.3938  -21.9395 N   0  0  0  0  0  0  0  0  0  0  0  0
   -4.7503    5.6680  -22.0492 C   0  0  0  0  0  0  0  0  0  0  0  0
   -4.2910    6.3378  -23.1929 C   0  0  0  0  0  0  0  0  0  0  0  0
   -3.8811    7.6697  -23.0850 C   0  0  0  0  0  0  0  0  0  0  0  0
   -3.9321    8.3266  -21.8593 C   0  0  0  0  0  0  0  0  0  0  0  0
   -4.3795    7.6735  -20.7051 C   0  0  0  0  0  0  0  0  0  0  0  0
   -4.7713    6.3312  -20.8175 C   0  0  0  0  0  0  0  0  0  0  0  0
  1  2  1  0
  2  3  1  0
  4  3  1  1
  4  5  1  0
  5  6  1  0
  4  7  1  0
  7  8  1  0
  8  9  2  0
  8 10  1  0
 10 11  1  0
 11 12  2  0
 12 13  1  0
 13 14  2  0
 14 15  1  0
 15 16  2  0
 10 17  1  6
 17 18  1  0
 18 19  2  0
 19 20  1  0
 20 21  2  0
 21 22  1  0
 22 23  2  0
 23 24  1  0
 24 25  2  0
 16 11  1  0
 25 17  1  0
 25 20  1  0
M  END
>  <energy_score>  (5136) 
-6.986567

>  <alias>  (5136) 
ZGCJUFKSHFWHFF-UHFFFAOYSA-N-P8-P8-P219-601533

>  <HIPPO Pose ID>  (5136) 
90850

>  <smiles>  (5136) 
CCCC(CO)NC(=O)C(c1ccccc1)n1cnc2ccccc21

>  <inchikey>  (5136) 
ZGCJUFKSHFWHFF-UHFFFAOYSA-N

>  <distance_score>  (5136) 
1.121578

>  <ref_mols>  (5136) 
Z0101a,Z3880a

>  <ref_pdb>  (5136) 
Z0101a

>  <HIPPO Compound ID>  (5136) 
147639

>  <name>  (5136) 
ZGCJUFKSHFWHFF-UHFFFAOYSA-N-P8-P8-P219-601533

>  <inspiration_score>  (5136) 
None

$$$$
CSQVJIWUTORGEP-UHFFFAOYSA-N-P8-P8-P219-601533
     RDKit          3D

 25 28  0  0  0  0  0  0  0  0999 V2000
   -3.9915    7.1436  -13.5148 C   0  0  0  0  0  0  0  0  0  0  0  0
   -3.5917    8.4893  -14.0945 C   0  0  2  0  0  0  0  0  0  0  0  0
   -4.6115    9.0560  -15.0809 C   0  0  0  0  0  0  0  0  0  0  0  0
   -3.9265    8.9446  -16.4272 C   0  0  2  0  0  0  0  0  0  0  0  0
   -4.2347    7.6821  -17.0692 N   0  0  0  0  0  0  0  0  0  0  0  0
   -5.3116    7.3277  -18.1473 C   0  0  0  0  0  0  0  0  0  0  0  0
   -6.0564    8.0188  -18.7316 O   0  0  0  0  0  0  0  0  0  0  0  0
   -5.2274    5.7802  -18.3786 C   0  0  1  0  0  0  0  0  0  0  0  0
   -6.3431    5.0965  -17.5857 C   0  0  0  0  0  0  0  0  0  0  0  0
   -7.6335    4.8788  -18.0884 C   0  0  0  0  0  0  0  0  0  0  0  0
   -8.6442    4.3311  -17.2940 C   0  0  0  0  0  0  0  0  0  0  0  0
   -8.4009    4.0605  -15.9556 C   0  0  0  0  0  0  0  0  0  0  0  0
   -7.1332    4.2694  -15.4268 C   0  0  0  0  0  0  0  0  0  0  0  0
   -6.1106    4.7674  -16.2373 C   0  0  0  0  0  0  0  0  0  0  0  0
   -5.0916    5.4469  -19.8115 N   0  0  0  0  0  0  0  0  0  0  0  0
   -5.6398    4.3832  -20.4722 C   0  0  0  0  0  0  0  0  0  0  0  0
   -5.2068    4.2701  -21.7109 N   0  0  0  0  0  0  0  0  0  0  0  0
   -4.3232    5.3008  -21.8660 C   0  0  0  0  0  0  0  0  0  0  0  0
   -3.5630    5.6561  -22.9896 C   0  0  0  0  0  0  0  0  0  0  0  0
   -2.6871    6.7426  -22.9080 C   0  0  0  0  0  0  0  0  0  0  0  0
   -2.5676    7.4648  -21.7247 C   0  0  0  0  0  0  0  0  0  0  0  0
   -3.3195    7.1292  -20.5932 C   0  0  0  0  0  0  0  0  0  0  0  0
   -4.2023    6.0435  -20.6920 C   0  0  0  0  0  0  0  0  0  0  0  0
   -2.4607    9.0401  -16.0452 C   0  0  0  0  0  0  0  0  0  0  0  0
   -2.3488    8.3315  -14.8027 O   0  0  0  0  0  0  0  0  0  0  0  0
  2  1  1  6
  2  3  1  0
  3  4  1  0
  4  5  1  1
  5  6  1  0
  6  7  2  0
  6  8  1  0
  8  9  1  0
  9 10  2  0
 10 11  1  0
 11 12  2  0
 12 13  1  0
 13 14  2  0
  8 15  1  6
 15 16  1  0
 16 17  2  0
 17 18  1  0
 18 19  2  0
 19 20  1  0
 20 21  2  0
 21 22  1  0
 22 23  2  0
  4 24  1  0
 24 25  1  0
 25  2  1  0
 14  9  1  0
 23 15  1  0
 23 18  1  0
M  END
>  <energy_score>  (5137) 
-5.993418

>  <alias>  (5137) 
CSQVJIWUTORGEP-UHFFFAOYSA-N-P8-P8-P219-601533

>  <HIPPO Pose ID>  (5137) 
90852

>  <smiles>  (5137) 
CC1CC(NC(=O)C(c2ccccc2)n2cnc3ccccc32)CO1

>  <inchikey>  (5137) 
CSQVJIWUTORGEP-UHFFFAOYSA-N

>  <distance_score>  (5137) 
1.036792

>  <ref_mols>  (5137) 
Z0101a,Z3880a

>  <ref_pdb>  (5137) 
Z0101a

>  <HIPPO Compound ID>  (5137) 
147640

>  <name>  (5137) 
CSQVJIWUTORGEP-UHFFFAOYSA-N-P8-P8-P219-601533

>  <inspiration_score>  (5137) 
None

$$$$
SQRFJOWXBUHKAE-UHFFFAOYSA-N-P8-P8-P219-601533
     RDKit          3D

 25 27  0  0  0  0  0  0  0  0999 V2000
   -5.4019    6.7373  -13.3976 C   0  0  0  0  0  0  0  0  0  0  0  0
   -4.4303    7.3915  -14.0464 C   0  0  0  0  0  0  0  0  0  0  0  0
   -4.6769    8.5262  -15.0039 C   0  0  0  0  0  0  0  0  0  0  0  0
   -4.0438    8.3700  -16.4027 C   0  0  1  0  0  0  0  0  0  0  0  0
   -2.5027    8.3784  -16.3246 C   0  0  0  0  0  0  0  0  0  0  0  0
   -1.9227    8.4386  -17.6256 O   0  0  0  0  0  0  0  0  0  0  0  0
   -4.5849    7.2248  -17.1339 N   0  0  0  0  0  0  0  0  0  0  0  0
   -3.8764    5.9511  -17.6877 C   0  0  0  0  0  0  0  0  0  0  0  0
   -2.7409    5.6638  -17.7096 O   0  0  0  0  0  0  0  0  0  0  0  0
   -4.9347    5.0278  -18.3579 C   0  0  1  0  0  0  0  0  0  0  0  0
   -6.2366    4.8279  -17.5609 C   0  0  0  0  0  0  0  0  0  0  0  0
   -7.5121    4.7339  -18.1362 C   0  0  0  0  0  0  0  0  0  0  0  0
   -8.6322    4.3742  -17.3791 C   0  0  0  0  0  0  0  0  0  0  0  0
   -8.5157    4.1723  -16.0118 C   0  0  0  0  0  0  0  0  0  0  0  0
   -7.2721    4.2815  -15.4067 C   0  0  0  0  0  0  0  0  0  0  0  0
   -6.1446    4.5843  -16.1749 C   0  0  0  0  0  0  0  0  0  0  0  0
   -5.0606    5.2358  -19.8186 N   0  0  0  0  0  0  0  0  0  0  0  0
   -5.6086    4.2856  -20.6467 C   0  0  0  0  0  0  0  0  0  0  0  0
   -5.3035    4.4555  -21.9106 N   0  0  0  0  0  0  0  0  0  0  0  0
   -4.6444    5.6491  -21.9355 C   0  0  0  0  0  0  0  0  0  0  0  0
   -4.1544    6.3455  -23.0507 C   0  0  0  0  0  0  0  0  0  0  0  0
   -3.5237    7.5768  -22.8600 C   0  0  0  0  0  0  0  0  0  0  0  0
   -3.3884    8.1061  -21.5804 C   0  0  0  0  0  0  0  0  0  0  0  0
   -3.8733    7.4252  -20.4561 C   0  0  0  0  0  0  0  0  0  0  0  0
   -4.4975    6.1855  -20.6492 C   0  0  0  0  0  0  0  0  0  0  0  0
  1  2  2  0
  2  3  1  0
  4  3  1  1
  4  5  1  0
  5  6  1  0
  4  7  1  0
  7  8  1  0
  8  9  2  0
  8 10  1  0
 10 11  1  0
 11 12  2  0
 12 13  1  0
 13 14  2  0
 14 15  1  0
 15 16  2  0
 10 17  1  6
 17 18  1  0
 18 19  2  0
 19 20  1  0
 20 21  2  0
 21 22  1  0
 22 23  2  0
 23 24  1  0
 24 25  2  0
 16 11  1  0
 25 17  1  0
 25 20  1  0
M  END
>  <energy_score>  (5138) 
-0.000433

>  <alias>  (5138) 
SQRFJOWXBUHKAE-UHFFFAOYSA-N-P8-P8-P219-601533

>  <HIPPO Pose ID>  (5138) 
90854

>  <smiles>  (5138) 
C=CCC(CO)NC(=O)C(c1ccccc1)n1cnc2ccccc21

>  <inchikey>  (5138) 
SQRFJOWXBUHKAE-UHFFFAOYSA-N

>  <distance_score>  (5138) 
0.933102

>  <ref_mols>  (5138) 
Z0101a,Z3880a

>  <ref_pdb>  (5138) 
Z0101a

>  <HIPPO Compound ID>  (5138) 
147641

>  <name>  (5138) 
SQRFJOWXBUHKAE-UHFFFAOYSA-N-P8-P8-P219-601533

>  <inspiration_score>  (5138) 
None

$$$$
GVOZODSQLOZSJJ-UHFFFAOYSA-N-P8-P8-P219-601533
     RDKit          3D

 25 27  0  0  0  0  0  0  0  0999 V2000
   -4.5349    7.6673  -13.9819 C   0  0  0  0  0  0  0  0  0  0  0  0
   -3.1610    7.2959  -14.5599 C   0  0  0  0  0  0  0  0  0  0  0  0
   -2.0771    7.7780  -13.5902 C   0  0  0  0  0  0  0  0  0  0  0  0
   -2.9835    7.8811  -15.9845 C   0  0  1  0  0  0  0  0  0  0  0  0
   -1.5654    7.6993  -16.5711 C   0  0  0  0  0  0  0  0  0  0  0  0
   -1.0731    6.3751  -16.4128 O   0  0  0  0  0  0  0  0  0  0  0  0
   -3.9852    7.3229  -16.8885 N   0  0  0  0  0  0  0  0  0  0  0  0
   -4.0241    5.9503  -17.6367 C   0  0  0  0  0  0  0  0  0  0  0  0
   -3.2236    5.0986  -17.6994 O   0  0  0  0  0  0  0  0  0  0  0  0
   -5.3982    5.8685  -18.3751 C   0  0  2  0  0  0  0  0  0  0  0  0
   -6.4646    5.1082  -17.5791 C   0  0  0  0  0  0  0  0  0  0  0  0
   -7.7232    4.8165  -18.1340 C   0  0  0  0  0  0  0  0  0  0  0  0
   -8.7531    4.2601  -17.3738 C   0  0  0  0  0  0  0  0  0  0  0  0
   -8.5606    4.0315  -16.0209 C   0  0  0  0  0  0  0  0  0  0  0  0
   -7.3254    4.2894  -15.4426 C   0  0  0  0  0  0  0  0  0  0  0  0
   -6.2860    4.8120  -16.2147 C   0  0  0  0  0  0  0  0  0  0  0  0
   -5.1664    5.4727  -19.7732 N   0  0  0  0  0  0  0  0  0  0  0  0
   -5.5971    4.3563  -20.4223 C   0  0  0  0  0  0  0  0  0  0  0  0
   -5.2044    4.3147  -21.6795 N   0  0  0  0  0  0  0  0  0  0  0  0
   -4.5083    5.4771  -21.8659 C   0  0  0  0  0  0  0  0  0  0  0  0
   -3.8778    5.9653  -23.0190 C   0  0  0  0  0  0  0  0  0  0  0  0
   -3.2342    7.2070  -22.9704 C   0  0  0  0  0  0  0  0  0  0  0  0
   -3.2165    7.9520  -21.7929 C   0  0  0  0  0  0  0  0  0  0  0  0
   -3.8373    7.4825  -20.6303 C   0  0  0  0  0  0  0  0  0  0  0  0
   -4.4762    6.2368  -20.6983 C   0  0  0  0  0  0  0  0  0  0  0  0
  1  2  1  0
  2  3  1  0
  2  4  1  0
  4  5  1  6
  5  6  1  0
  4  7  1  0
  7  8  1  0
  8  9  2  0
  8 10  1  0
 10 11  1  0
 11 12  2  0
 12 13  1  0
 13 14  2  0
 14 15  1  0
 15 16  2  0
 10 17  1  6
 17 18  1  0
 18 19  2  0
 19 20  1  0
 20 21  2  0
 21 22  1  0
 22 23  2  0
 23 24  1  0
 24 25  2  0
 16 11  1  0
 25 17  1  0
 25 20  1  0
M  END
>  <energy_score>  (5139) 
-8.032906

>  <alias>  (5139) 
GVOZODSQLOZSJJ-UHFFFAOYSA-N-P8-P8-P219-601533

>  <HIPPO Pose ID>  (5139) 
90856

>  <smiles>  (5139) 
CC(C)C(CO)NC(=O)C(c1ccccc1)n1cnc2ccccc21

>  <inchikey>  (5139) 
GVOZODSQLOZSJJ-UHFFFAOYSA-N

>  <distance_score>  (5139) 
1.048133

>  <ref_mols>  (5139) 
Z0101a,Z3880a

>  <ref_pdb>  (5139) 
Z0101a

>  <HIPPO Compound ID>  (5139) 
147642

>  <name>  (5139) 
GVOZODSQLOZSJJ-UHFFFAOYSA-N-P8-P8-P219-601533

>  <inspiration_score>  (5139) 
None

$$$$
NZEJZHMAJQHUBB-UHFFFAOYSA-N-P8-P8-P219-601533
     RDKit          3D

 25 27  0  0  0  0  0  0  0  0999 V2000
   -1.3245    7.8979  -15.9663 C   0  0  0  0  0  0  0  0  0  0  0  0
   -2.5715    8.5983  -15.4297 C   0  0  1  0  0  0  0  0  0  0  0  0
   -2.1548    9.8320  -14.8448 O   0  0  0  0  0  0  0  0  0  0  0  0
   -3.6468    8.8291  -16.5214 C   0  0  2  0  0  0  0  0  0  0  0  0
   -4.8174    9.6843  -15.9842 C   0  0  0  0  0  0  0  0  0  0  0  0
   -5.5872   10.2470  -17.0504 O   0  0  0  0  0  0  0  0  0  0  0  0
   -4.1334    7.5613  -17.0727 N   0  0  0  0  0  0  0  0  0  0  0  0
   -5.2458    7.2766  -18.1357 C   0  0  0  0  0  0  0  0  0  0  0  0
   -5.9900    8.0083  -18.6699 O   0  0  0  0  0  0  0  0  0  0  0  0
   -5.2291    5.7336  -18.4032 C   0  0  1  0  0  0  0  0  0  0  0  0
   -6.3645    5.0848  -17.6103 C   0  0  0  0  0  0  0  0  0  0  0  0
   -7.6445    4.8434  -18.1264 C   0  0  0  0  0  0  0  0  0  0  0  0
   -8.6637    4.3110  -17.3327 C   0  0  0  0  0  0  0  0  0  0  0  0
   -8.4402    4.0779  -15.9837 C   0  0  0  0  0  0  0  0  0  0  0  0
   -7.1862    4.3209  -15.4379 C   0  0  0  0  0  0  0  0  0  0  0  0
   -6.1555    4.8084  -16.2443 C   0  0  0  0  0  0  0  0  0  0  0  0
   -5.1059    5.4349  -19.8442 N   0  0  0  0  0  0  0  0  0  0  0  0
   -5.6406    4.3697  -20.5132 C   0  0  0  0  0  0  0  0  0  0  0  0
   -5.2161    4.2798  -21.7563 N   0  0  0  0  0  0  0  0  0  0  0  0
   -4.3477    5.3229  -21.9052 C   0  0  0  0  0  0  0  0  0  0  0  0
   -3.5997    5.6993  -23.0303 C   0  0  0  0  0  0  0  0  0  0  0  0
   -2.7397    6.7977  -22.9469 C   0  0  0  0  0  0  0  0  0  0  0  0
   -2.6222    7.5105  -21.7586 C   0  0  0  0  0  0  0  0  0  0  0  0
   -3.3600    7.1525  -20.6244 C   0  0  0  0  0  0  0  0  0  0  0  0
   -4.2298    6.0552  -20.7239 C   0  0  0  0  0  0  0  0  0  0  0  0
  2  1  1  6
  2  3  1  0
  2  4  1  0
  4  5  1  1
  5  6  1  0
  4  7  1  0
  7  8  1  0
  8  9  2  0
  8 10  1  0
 10 11  1  0
 11 12  2  0
 12 13  1  0
 13 14  2  0
 14 15  1  0
 15 16  2  0
 10 17  1  6
 17 18  1  0
 18 19  2  0
 19 20  1  0
 20 21  2  0
 21 22  1  0
 22 23  2  0
 23 24  1  0
 24 25  2  0
 16 11  1  0
 25 17  1  0
 25 20  1  0
M  END
>  <energy_score>  (5140) 
-8.88511

>  <alias>  (5140) 
NZEJZHMAJQHUBB-UHFFFAOYSA-N-P8-P8-P219-601533

>  <HIPPO Pose ID>  (5140) 
90858

>  <smiles>  (5140) 
CC(O)C(CO)NC(=O)C(c1ccccc1)n1cnc2ccccc21

>  <inchikey>  (5140) 
NZEJZHMAJQHUBB-UHFFFAOYSA-N

>  <distance_score>  (5140) 
1.007743

>  <ref_mols>  (5140) 
Z0101a,Z3880a

>  <ref_pdb>  (5140) 
Z0101a

>  <HIPPO Compound ID>  (5140) 
147643

>  <name>  (5140) 
NZEJZHMAJQHUBB-UHFFFAOYSA-N-P8-P8-P219-601533

>  <inspiration_score>  (5140) 
None

$$$$
MZOHRUNZSBXEOF-UHFFFAOYSA-N-P8-P8-P219-601533
     RDKit          3D

 25 27  0  0  0  0  0  0  0  0999 V2000
   -5.5220    8.5653  -14.4198 C   0  0  0  0  0  0  0  0  0  0  0  0
   -4.7924    9.1200  -15.6320 C   0  0  0  0  0  0  0  0  0  0  0  0
   -3.7603    8.1798  -16.2808 C   0  0  2  0  0  0  0  0  0  0  0  0
   -4.3955    7.1054  -17.0314 N   0  0  0  0  0  0  0  0  0  0  0  0
   -3.7785    5.8515  -17.7214 C   0  0  0  0  0  0  0  0  0  0  0  0
   -2.6597    5.5340  -17.8562 O   0  0  0  0  0  0  0  0  0  0  0  0
   -4.9082    4.9969  -18.3643 C   0  0  1  0  0  0  0  0  0  0  0  0
   -6.2035    4.8334  -17.5470 C   0  0  0  0  0  0  0  0  0  0  0  0
   -7.4838    4.7416  -18.1134 C   0  0  0  0  0  0  0  0  0  0  0  0
   -8.6009    4.3917  -17.3466 C   0  0  0  0  0  0  0  0  0  0  0  0
   -8.4786    4.2025  -15.9779 C   0  0  0  0  0  0  0  0  0  0  0  0
   -7.2316    4.3140  -15.3800 C   0  0  0  0  0  0  0  0  0  0  0  0
   -6.1067    4.5990  -16.1588 C   0  0  0  0  0  0  0  0  0  0  0  0
   -5.0496    5.2222  -19.8209 N   0  0  0  0  0  0  0  0  0  0  0  0
   -5.6119    4.2870  -20.6558 C   0  0  0  0  0  0  0  0  0  0  0  0
   -5.3143    4.4704  -21.9195 N   0  0  0  0  0  0  0  0  0  0  0  0
   -4.6509    5.6625  -21.9346 C   0  0  0  0  0  0  0  0  0  0  0  0
   -4.1701    6.3735  -23.0442 C   0  0  0  0  0  0  0  0  0  0  0  0
   -3.5292    7.5977  -22.8400 C   0  0  0  0  0  0  0  0  0  0  0  0
   -3.3699    8.1033  -21.5528 C   0  0  0  0  0  0  0  0  0  0  0  0
   -3.8432    7.4067  -20.4330 C   0  0  0  0  0  0  0  0  0  0  0  0
   -4.4861    6.1788  -20.6426 C   0  0  0  0  0  0  0  0  0  0  0  0
   -2.5801    7.7170  -15.3805 C   0  0  2  0  0  0  0  0  0  0  0  0
   -2.8585    6.5437  -14.4469 C   0  0  0  0  0  0  0  0  0  0  0  0
   -2.1106    8.8205  -14.6000 O   0  0  0  0  0  0  0  0  0  0  0  0
  1  2  1  0
  3  2  1  1
  3  4  1  0
  4  5  1  0
  5  6  2  0
  5  7  1  0
  7  8  1  0
  8  9  2  0
  9 10  1  0
 10 11  2  0
 11 12  1  0
 12 13  2  0
  7 14  1  6
 14 15  1  0
 15 16  2  0
 16 17  1  0
 17 18  2  0
 18 19  1  0
 19 20  2  0
 20 21  1  0
 21 22  2  0
  3 23  1  0
 23 24  1  1
 23 25  1  0
 13  8  1  0
 22 14  1  0
 22 17  1  0
M  END
>  <energy_score>  (5141) 
-9.986017

>  <alias>  (5141) 
MZOHRUNZSBXEOF-UHFFFAOYSA-N-P8-P8-P219-601533

>  <HIPPO Pose ID>  (5141) 
90860

>  <smiles>  (5141) 
CCC(NC(=O)C(c1ccccc1)n1cnc2ccccc21)C(C)O

>  <inchikey>  (5141) 
MZOHRUNZSBXEOF-UHFFFAOYSA-N

>  <distance_score>  (5141) 
0.905638

>  <ref_mols>  (5141) 
Z0101a,Z3880a

>  <ref_pdb>  (5141) 
Z0101a

>  <HIPPO Compound ID>  (5141) 
147644

>  <name>  (5141) 
MZOHRUNZSBXEOF-UHFFFAOYSA-N-P8-P8-P219-601533

>  <inspiration_score>  (5141) 
None

$$$$
MHDDEXOLPKNXES-UHFFFAOYSA-N-P8-P8-P219-601533
     RDKit          3D

 25 27  0  0  0  0  0  0  0  0999 V2000
   -3.2589   12.0557  -20.7392 N   0  0  0  0  0  0  0  0  0  0  0  0
   -3.3993   10.9753  -20.3413 C   0  0  0  0  0  0  0  0  0  0  0  0
   -3.6146    9.6199  -19.8205 C   0  0  0  0  0  0  0  0  0  0  0  0
   -5.1067    9.3320  -19.5933 C   0  0  2  0  0  0  0  0  0  0  0  0
   -5.6832   10.2297  -18.4836 C   0  0  0  0  0  0  0  0  0  0  0  0
   -7.1083   10.2666  -18.5973 O   0  0  0  0  0  0  0  0  0  0  0  0
   -5.3087    7.9103  -19.2938 N   0  0  0  0  0  0  0  0  0  0  0  0
   -4.7898    7.0418  -18.1055 C   0  0  0  0  0  0  0  0  0  0  0  0
   -4.1880    7.3485  -17.1472 O   0  0  0  0  0  0  0  0  0  0  0  0
   -5.0796    5.5184  -18.3727 C   0  0  1  0  0  0  0  0  0  0  0  0
   -6.2974    5.0329  -17.5910 C   0  0  0  0  0  0  0  0  0  0  0  0
   -7.5814    4.8600  -18.1191 C   0  0  0  0  0  0  0  0  0  0  0  0
   -8.6330    4.3660  -17.3391 C   0  0  0  0  0  0  0  0  0  0  0  0
   -8.4440    4.1280  -15.9857 C   0  0  0  0  0  0  0  0  0  0  0  0
   -7.1949    4.3399  -15.4186 C   0  0  0  0  0  0  0  0  0  0  0  0
   -6.1331    4.7776  -16.2137 C   0  0  0  0  0  0  0  0  0  0  0  0
   -4.9065    5.1200  -19.7862 N   0  0  0  0  0  0  0  0  0  0  0  0
   -5.6874    4.3154  -20.5608 C   0  0  0  0  0  0  0  0  0  0  0  0
   -5.3080    4.3088  -21.8237 N   0  0  0  0  0  0  0  0  0  0  0  0
   -4.1691    5.0596  -21.8558 C   0  0  0  0  0  0  0  0  0  0  0  0
   -3.3477    5.3942  -22.9403 C   0  0  0  0  0  0  0  0  0  0  0  0
   -2.1719    6.1139  -22.7039 C   0  0  0  0  0  0  0  0  0  0  0  0
   -1.8215    6.4936  -21.4106 C   0  0  0  0  0  0  0  0  0  0  0  0
   -2.6505    6.2038  -20.3216 C   0  0  0  0  0  0  0  0  0  0  0  0
   -3.8355    5.5044  -20.5803 C   0  0  0  0  0  0  0  0  0  0  0  0
  1  2  3  0
  2  3  1  0
  4  3  1  1
  4  5  1  0
  5  6  1  0
  4  7  1  0
  7  8  1  0
  8  9  2  0
  8 10  1  0
 10 11  1  0
 11 12  2  0
 12 13  1  0
 13 14  2  0
 14 15  1  0
 15 16  2  0
 10 17  1  6
 17 18  1  0
 18 19  2  0
 19 20  1  0
 20 21  2  0
 21 22  1  0
 22 23  2  0
 23 24  1  0
 24 25  2  0
 16 11  1  0
 25 17  1  0
 25 20  1  0
M  END
>  <energy_score>  (5142) 
-3.351243

>  <alias>  (5142) 
MHDDEXOLPKNXES-UHFFFAOYSA-N-P8-P8-P219-601533

>  <HIPPO Pose ID>  (5142) 
90868

>  <smiles>  (5142) 
N#CCC(CO)NC(=O)C(c1ccccc1)n1cnc2ccccc21

>  <inchikey>  (5142) 
MHDDEXOLPKNXES-UHFFFAOYSA-N

>  <distance_score>  (5142) 
1.050778

>  <ref_mols>  (5142) 
Z0101a,Z3880a

>  <ref_pdb>  (5142) 
Z0101a

>  <HIPPO Compound ID>  (5142) 
147648

>  <name>  (5142) 
MHDDEXOLPKNXES-UHFFFAOYSA-N-P8-P8-P219-601533

>  <inspiration_score>  (5142) 
None

$$$$
VRTDQLXRQDUTEP-UHFFFAOYSA-N-P8-P8-P219-601533
     RDKit          3D

 25 29  0  0  0  0  0  0  0  0999 V2000
   -3.3473    4.3957  -17.8273 O   0  0  0  0  0  0  0  0  0  0  0  0
   -3.9048    5.4205  -17.7212 C   0  0  0  0  0  0  0  0  0  0  0  0
   -3.4808    6.7344  -16.9779 N   0  0  0  0  0  0  0  0  0  0  0  0
   -2.2732    7.0669  -16.3161 C   0  0  1  0  0  0  0  0  0  0  0  0
   -1.8871    6.2620  -15.0977 C   0  0  0  0  0  0  0  0  0  0  0  0
   -0.4521    6.3457  -14.9869 O   0  0  0  0  0  0  0  0  0  0  0  0
    0.0665    6.5759  -16.3093 C   0  0  0  0  0  0  0  0  0  0  0  0
   -1.0116    7.2748  -17.0642 C   0  0  2  0  0  0  0  0  0  0  0  0
   -1.7187    8.4669  -16.4825 C   0  0  0  0  0  0  0  0  0  0  0  0
   -5.2976    5.6888  -18.3611 C   0  0  2  0  0  0  0  0  0  0  0  0
   -6.4446    5.0395  -17.5788 C   0  0  0  0  0  0  0  0  0  0  0  0
   -7.6940    4.7587  -18.1550 C   0  0  0  0  0  0  0  0  0  0  0  0
   -8.7564    4.2552  -17.4009 C   0  0  0  0  0  0  0  0  0  0  0  0
   -8.6097    4.0791  -16.0339 C   0  0  0  0  0  0  0  0  0  0  0  0
   -7.3943    4.3603  -15.4261 C   0  0  0  0  0  0  0  0  0  0  0  0
   -6.3245    4.8336  -16.1887 C   0  0  0  0  0  0  0  0  0  0  0  0
   -5.1821    5.4155  -19.8015 N   0  0  0  0  0  0  0  0  0  0  0  0
   -5.6235    4.3309  -20.4958 C   0  0  0  0  0  0  0  0  0  0  0  0
   -5.2514    4.3474  -21.7592 N   0  0  0  0  0  0  0  0  0  0  0  0
   -4.5579    5.5179  -21.9017 C   0  0  0  0  0  0  0  0  0  0  0  0
   -3.9478    6.0605  -23.0414 C   0  0  0  0  0  0  0  0  0  0  0  0
   -3.2878    7.2906  -22.9401 C   0  0  0  0  0  0  0  0  0  0  0  0
   -3.2330    7.9698  -21.7243 C   0  0  0  0  0  0  0  0  0  0  0  0
   -3.8361    7.4470  -20.5753 C   0  0  0  0  0  0  0  0  0  0  0  0
   -4.4978    6.2176  -20.6976 C   0  0  0  0  0  0  0  0  0  0  0  0
  1  2  2  0
  2  3  1  0
  4  3  1  6
  4  5  1  0
  5  6  1  0
  6  7  1  0
  8  7  1  1
  8  9  1  0
  2 10  1  0
 10 11  1  0
 11 12  2  0
 12 13  1  0
 13 14  2  0
 14 15  1  0
 15 16  2  0
 10 17  1  6
 17 18  1  0
 18 19  2  0
 19 20  1  0
 20 21  2  0
 21 22  1  0
 22 23  2  0
 23 24  1  0
 24 25  2  0
  8  4  1  0
 16 11  1  0
 25 17  1  0
  9  4  1  0
 25 20  1  0
M  END
>  <energy_score>  (5143) 
-9.424548

>  <alias>  (5143) 
VRTDQLXRQDUTEP-UHFFFAOYSA-N-P8-P8-P219-601533

>  <HIPPO Pose ID>  (5143) 
90876

>  <smiles>  (5143) 
O=C(NC12COCC1C2)C(c1ccccc1)n1cnc2ccccc21

>  <inchikey>  (5143) 
VRTDQLXRQDUTEP-UHFFFAOYSA-N

>  <distance_score>  (5143) 
1.038012

>  <ref_mols>  (5143) 
Z0101a,Z3880a

>  <ref_pdb>  (5143) 
Z0101a

>  <HIPPO Compound ID>  (5143) 
147652

>  <name>  (5143) 
VRTDQLXRQDUTEP-UHFFFAOYSA-N-P8-P8-P219-601533

>  <inspiration_score>  (5143) 
None

$$$$
HCDNCRWIXDHACI-UHFFFAOYSA-N-P8-P8-P219-601533
     RDKit          3D

 25 28  0  0  0  0  0  0  0  0999 V2000
   -3.1986    4.9477  -17.8041 O   0  0  0  0  0  0  0  0  0  0  0  0
   -3.9935    5.7926  -17.6416 C   0  0  0  0  0  0  0  0  0  0  0  0
   -3.9345    7.0836  -16.7553 N   0  0  0  0  0  0  0  0  0  0  0  0
   -2.9177    7.5404  -15.8170 C   0  0  1  0  0  0  0  0  0  0  0  0
   -3.4057    7.7467  -14.3563 C   0  0  2  0  0  0  0  0  0  0  0  0
   -3.7588    9.0955  -13.9996 O   0  0  0  0  0  0  0  0  0  0  0  0
   -2.0095    7.2391  -13.9198 C   0  0  0  0  0  0  0  0  0  0  0  0
   -1.9684    6.4464  -15.2490 C   0  0  2  0  0  0  0  0  0  0  0  0
   -0.6894    6.3258  -15.8941 O   0  0  0  0  0  0  0  0  0  0  0  0
   -5.3772    5.8081  -18.3629 C   0  0  2  0  0  0  0  0  0  0  0  0
   -6.4717    5.0786  -17.5748 C   0  0  0  0  0  0  0  0  0  0  0  0
   -7.7250    4.7958  -18.1447 C   0  0  0  0  0  0  0  0  0  0  0  0
   -8.7715    4.2555  -17.3956 C   0  0  0  0  0  0  0  0  0  0  0  0
   -8.6034    4.0390  -16.0377 C   0  0  0  0  0  0  0  0  0  0  0  0
   -7.3781    4.2989  -15.4403 C   0  0  0  0  0  0  0  0  0  0  0  0
   -6.3220    4.8053  -16.2007 C   0  0  0  0  0  0  0  0  0  0  0  0
   -5.1764    5.4450  -19.7742 N   0  0  0  0  0  0  0  0  0  0  0  0
   -5.6118    4.3401  -20.4382 C   0  0  0  0  0  0  0  0  0  0  0  0
   -5.2077    4.3079  -21.6914 N   0  0  0  0  0  0  0  0  0  0  0  0
   -4.5081    5.4704  -21.8632 C   0  0  0  0  0  0  0  0  0  0  0  0
   -3.8697    5.9678  -23.0077 C   0  0  0  0  0  0  0  0  0  0  0  0
   -3.2190    7.2050  -22.9404 C   0  0  0  0  0  0  0  0  0  0  0  0
   -3.2014    7.9353  -21.7533 C   0  0  0  0  0  0  0  0  0  0  0  0
   -3.8302    7.4560  -20.5989 C   0  0  0  0  0  0  0  0  0  0  0  0
   -4.4781    6.2164  -20.6867 C   0  0  0  0  0  0  0  0  0  0  0  0
  1  2  2  0
  2  3  1  0
  4  3  1  6
  4  5  1  0
  5  6  1  6
  5  7  1  0
  7  8  1  0
  8  9  1  6
  2 10  1  0
 10 11  1  0
 11 12  2  0
 12 13  1  0
 13 14  2  0
 14 15  1  0
 15 16  2  0
 10 17  1  6
 17 18  1  0
 18 19  2  0
 19 20  1  0
 20 21  2  0
 21 22  1  0
 22 23  2  0
 23 24  1  0
 24 25  2  0
  8  4  1  0
 16 11  1  0
 25 17  1  0
 25 20  1  0
M  END
>  <energy_score>  (5144) 
-23.176437

>  <alias>  (5144) 
HCDNCRWIXDHACI-UHFFFAOYSA-N-P8-P8-P219-601533

>  <HIPPO Pose ID>  (5144) 
90880

>  <smiles>  (5144) 
O=C(NC1C(O)CC1O)C(c1ccccc1)n1cnc2ccccc21

>  <inchikey>  (5144) 
HCDNCRWIXDHACI-UHFFFAOYSA-N

>  <distance_score>  (5144) 
0.847743

>  <ref_mols>  (5144) 
Z0101a,Z3880a

>  <ref_pdb>  (5144) 
Z0101a

>  <HIPPO Compound ID>  (5144) 
147654

>  <name>  (5144) 
HCDNCRWIXDHACI-UHFFFAOYSA-N-P8-P8-P219-601533

>  <inspiration_score>  (5144) 
None

$$$$
UMMGJOLUZPUUEF-UHFFFAOYSA-N-P8-P8-P219-601533
     RDKit          3D

 25 27  0  0  0  0  0  0  0  0999 V2000
   -1.2640   10.5390  -15.4071 C   0  0  0  0  0  0  0  0  0  0  0  0
   -1.9344    9.8078  -16.0839 C   0  0  0  0  0  0  0  0  0  0  0  0
   -2.7468    8.9099  -16.9216 C   0  0  0  0  0  0  0  0  0  0  0  0
   -3.7299    8.0591  -16.1001 C   0  0  1  0  0  0  0  0  0  0  0  0
   -4.7673    8.9292  -15.3691 C   0  0  0  0  0  0  0  0  0  0  0  0
   -5.6491    8.1033  -14.6114 O   0  0  0  0  0  0  0  0  0  0  0  0
   -4.3806    7.0516  -16.9348 N   0  0  0  0  0  0  0  0  0  0  0  0
   -3.7823    5.8402  -17.7078 C   0  0  0  0  0  0  0  0  0  0  0  0
   -2.6691    5.5109  -17.8561 O   0  0  0  0  0  0  0  0  0  0  0  0
   -4.9276    5.0087  -18.3583 C   0  0  1  0  0  0  0  0  0  0  0  0
   -6.2281    4.8509  -17.5473 C   0  0  0  0  0  0  0  0  0  0  0  0
   -7.5013    4.7212  -18.1240 C   0  0  0  0  0  0  0  0  0  0  0  0
   -8.6202    4.3694  -17.3608 C   0  0  0  0  0  0  0  0  0  0  0  0
   -8.5068    4.2083  -15.9876 C   0  0  0  0  0  0  0  0  0  0  0  0
   -7.2686    4.3585  -15.3801 C   0  0  0  0  0  0  0  0  0  0  0  0
   -6.1416    4.6515  -16.1526 C   0  0  0  0  0  0  0  0  0  0  0  0
   -5.0612    5.2316  -19.8159 N   0  0  0  0  0  0  0  0  0  0  0  0
   -5.6059    4.2901  -20.6555 C   0  0  0  0  0  0  0  0  0  0  0  0
   -5.3049    4.4796  -21.9177 N   0  0  0  0  0  0  0  0  0  0  0  0
   -4.6574    5.6801  -21.9269 C   0  0  0  0  0  0  0  0  0  0  0  0
   -4.1787    6.3998  -23.0317 C   0  0  0  0  0  0  0  0  0  0  0  0
   -3.5579    7.6332  -22.8197 C   0  0  0  0  0  0  0  0  0  0  0  0
   -3.4175    8.1398  -21.5303 C   0  0  0  0  0  0  0  0  0  0  0  0
   -3.8896    7.4338  -20.4164 C   0  0  0  0  0  0  0  0  0  0  0  0
   -4.5093    6.1969  -20.6334 C   0  0  0  0  0  0  0  0  0  0  0  0
  1  2  3  0
  2  3  1  0
  4  3  1  6
  4  5  1  0
  5  6  1  0
  4  7  1  0
  7  8  1  0
  8  9  2  0
  8 10  1  0
 10 11  1  0
 11 12  2  0
 12 13  1  0
 13 14  2  0
 14 15  1  0
 15 16  2  0
 10 17  1  6
 17 18  1  0
 18 19  2  0
 19 20  1  0
 20 21  2  0
 21 22  1  0
 22 23  2  0
 23 24  1  0
 24 25  2  0
 16 11  1  0
 25 17  1  0
 25 20  1  0
M  END
>  <energy_score>  (5145) 
-7.880302

>  <alias>  (5145) 
UMMGJOLUZPUUEF-UHFFFAOYSA-N-P8-P8-P219-601533

>  <HIPPO Pose ID>  (5145) 
90884

>  <smiles>  (5145) 
C#CCC(CO)NC(=O)C(c1ccccc1)n1cnc2ccccc21

>  <inchikey>  (5145) 
UMMGJOLUZPUUEF-UHFFFAOYSA-N

>  <distance_score>  (5145) 
0.891269

>  <ref_mols>  (5145) 
Z0101a,Z3880a

>  <ref_pdb>  (5145) 
Z0101a

>  <HIPPO Compound ID>  (5145) 
147656

>  <name>  (5145) 
UMMGJOLUZPUUEF-UHFFFAOYSA-N-P8-P8-P219-601533

>  <inspiration_score>  (5145) 
None

$$$$
XXYLIUZHCWUKSU-UHFFFAOYSA-N-P8-P8-P219-601533
     RDKit          3D

 25 28  0  0  0  0  0  0  0  0999 V2000
   -2.5912    5.7645  -14.7507 C   0  0  0  0  0  0  0  0  0  0  0  0
   -2.7613    7.2186  -15.1619 C   0  0  2  0  0  0  0  0  0  0  0  0
   -4.0677    7.6449  -14.7627 O   0  0  0  0  0  0  0  0  0  0  0  0
   -2.5685    7.4716  -16.6624 C   0  0  1  0  0  0  0  0  0  0  0  0
   -1.5324    6.7147  -17.4520 C   0  0  0  0  0  0  0  0  0  0  0  0
   -2.5068    6.9299  -18.5720 C   0  0  0  0  0  0  0  0  0  0  0  0
   -3.6669    6.8518  -17.5225 N   0  0  0  0  0  0  0  0  0  0  0  0
   -4.9596    7.4528  -18.0718 C   0  0  0  0  0  0  0  0  0  0  0  0
   -5.3702    8.5652  -18.0222 O   0  0  0  0  0  0  0  0  0  0  0  0
   -5.8385    6.3534  -18.7173 C   0  0  2  0  0  0  0  0  0  0  0  0
   -6.5963    5.4332  -17.7500 C   0  0  0  0  0  0  0  0  0  0  0  0
   -7.7813    4.7984  -18.1796 C   0  0  0  0  0  0  0  0  0  0  0  0
   -8.6190    4.1244  -17.2905 C   0  0  0  0  0  0  0  0  0  0  0  0
   -8.2803    4.0528  -15.9476 C   0  0  0  0  0  0  0  0  0  0  0  0
   -7.0921    4.6187  -15.5042 C   0  0  0  0  0  0  0  0  0  0  0  0
   -6.2586    5.2999  -16.3960 C   0  0  0  0  0  0  0  0  0  0  0  0
   -5.2512    5.7529  -19.9219 N   0  0  0  0  0  0  0  0  0  0  0  0
   -5.3661    4.4530  -20.3098 C   0  0  0  0  0  0  0  0  0  0  0  0
   -4.8323    4.2301  -21.4918 N   0  0  0  0  0  0  0  0  0  0  0  0
   -4.4052    5.4511  -21.9235 C   0  0  0  0  0  0  0  0  0  0  0  0
   -3.7654    5.7969  -23.1214 C   0  0  0  0  0  0  0  0  0  0  0  0
   -3.4775    7.1408  -23.3768 C   0  0  0  0  0  0  0  0  0  0  0  0
   -3.8208    8.1246  -22.4527 C   0  0  0  0  0  0  0  0  0  0  0  0
   -4.4401    7.7966  -21.2413 C   0  0  0  0  0  0  0  0  0  0  0  0
   -4.7006    6.4420  -20.9904 C   0  0  0  0  0  0  0  0  0  0  0  0
  2  1  1  6
  2  3  1  0
  2  4  1  0
  4  5  1  6
  5  6  1  0
  6  7  1  0
  7  8  1  0
  8  9  2  0
  8 10  1  0
 10 11  1  0
 11 12  2  0
 12 13  1  0
 13 14  2  0
 14 15  1  0
 15 16  2  0
 10 17  1  1
 17 18  1  0
 18 19  2  0
 19 20  1  0
 20 21  2  0
 21 22  1  0
 22 23  2  0
 23 24  1  0
 24 25  2  0
  7  4  1  0
 16 11  1  0
 25 17  1  0
 25 20  1  0
M  END
>  <energy_score>  (5146) 
-3.1253

>  <alias>  (5146) 
XXYLIUZHCWUKSU-UHFFFAOYSA-N-P8-P8-P219-601533

>  <HIPPO Pose ID>  (5146) 
90894

>  <smiles>  (5146) 
CC(O)C1CCN1C(=O)C(c1ccccc1)n1cnc2ccccc21

>  <inchikey>  (5146) 
XXYLIUZHCWUKSU-UHFFFAOYSA-N

>  <distance_score>  (5146) 
1.128254

>  <ref_mols>  (5146) 
Z0101a,Z3880a

>  <ref_pdb>  (5146) 
Z0101a

>  <HIPPO Compound ID>  (5146) 
147661

>  <name>  (5146) 
XXYLIUZHCWUKSU-UHFFFAOYSA-N-P8-P8-P219-601533

>  <inspiration_score>  (5146) 
None

$$$$
SNXVPGCGZMFLGI-UHFFFAOYSA-N-P8-P8-P219-601533
     RDKit          3D

 25 28  0  0  0  0  0  0  0  0999 V2000
    0.1607    6.2344  -14.9085 C   0  0  0  0  0  0  0  0  0  0  0  0
   -0.9626    7.2424  -15.0413 C   0  0  1  0  0  0  0  0  0  0  0  0
   -1.4044    7.6041  -16.4810 C   0  0  0  0  0  0  0  0  0  0  0  0
   -2.8514    7.7065  -15.9491 C   0  0  1  0  0  0  0  0  0  0  0  0
   -3.8833    7.2039  -16.8523 N   0  0  0  0  0  0  0  0  0  0  0  0
   -3.9782    5.8470  -17.6350 C   0  0  0  0  0  0  0  0  0  0  0  0
   -3.2063    4.9699  -17.7289 O   0  0  0  0  0  0  0  0  0  0  0  0
   -5.3625    5.8370  -18.3554 C   0  0  2  0  0  0  0  0  0  0  0  0
   -6.4493    5.1038  -17.5617 C   0  0  0  0  0  0  0  0  0  0  0  0
   -7.7029    4.8089  -18.1263 C   0  0  0  0  0  0  0  0  0  0  0  0
   -8.7415    4.2612  -17.3711 C   0  0  0  0  0  0  0  0  0  0  0  0
   -8.5649    4.0477  -16.0135 C   0  0  0  0  0  0  0  0  0  0  0  0
   -7.3392    4.3213  -15.4224 C   0  0  0  0  0  0  0  0  0  0  0  0
   -6.2915    4.8382  -16.1875 C   0  0  0  0  0  0  0  0  0  0  0  0
   -5.1583    5.4612  -19.7639 N   0  0  0  0  0  0  0  0  0  0  0  0
   -5.5959    4.3517  -20.4201 C   0  0  0  0  0  0  0  0  0  0  0  0
   -5.2077    4.3172  -21.6789 N   0  0  0  0  0  0  0  0  0  0  0  0
   -4.5103    5.4799  -21.8599 C   0  0  0  0  0  0  0  0  0  0  0  0
   -3.8849    5.9758  -23.0125 C   0  0  0  0  0  0  0  0  0  0  0  0
   -3.2343    7.2135  -22.9560 C   0  0  0  0  0  0  0  0  0  0  0  0
   -3.2045    7.9468  -21.7713 C   0  0  0  0  0  0  0  0  0  0  0  0
   -3.8207    7.4699  -20.6093 C   0  0  0  0  0  0  0  0  0  0  0  0
   -4.4684    6.2293  -20.6858 C   0  0  0  0  0  0  0  0  0  0  0  0
   -2.4228    6.7718  -14.7794 C   0  0  1  0  0  0  0  0  0  0  0  0
   -2.6984    5.3610  -14.9011 O   0  0  0  0  0  0  0  0  0  0  0  0
  2  1  1  6
  2  3  1  0
  3  4  1  0
  4  5  1  6
  5  6  1  0
  6  7  2  0
  6  8  1  0
  8  9  1  0
  9 10  2  0
 10 11  1  0
 11 12  2  0
 12 13  1  0
 13 14  2  0
  8 15  1  6
 15 16  1  0
 16 17  2  0
 17 18  1  0
 18 19  2  0
 19 20  1  0
 20 21  2  0
 21 22  1  0
 22 23  2  0
  4 24  1  0
 24 25  1  6
 24  2  1  0
 14  9  1  0
 23 15  1  0
 23 18  1  0
M  END
>  <energy_score>  (5147) 
-17.365827

>  <alias>  (5147) 
SNXVPGCGZMFLGI-UHFFFAOYSA-N-P8-P8-P219-601533

>  <HIPPO Pose ID>  (5147) 
90910

>  <smiles>  (5147) 
CC1CC(NC(=O)C(c2ccccc2)n2cnc3ccccc32)C1O

>  <inchikey>  (5147) 
SNXVPGCGZMFLGI-UHFFFAOYSA-N

>  <distance_score>  (5147) 
0.854193

>  <ref_mols>  (5147) 
Z0101a,Z3880a

>  <ref_pdb>  (5147) 
Z0101a

>  <HIPPO Compound ID>  (5147) 
147670

>  <name>  (5147) 
SNXVPGCGZMFLGI-UHFFFAOYSA-N-P8-P8-P219-601533

>  <inspiration_score>  (5147) 
None

$$$$
OUYPTARUZBIYBS-UHFFFAOYSA-N-P8-P8-P219-601533
     RDKit          3D

 25 29  0  0  0  0  0  0  0  0999 V2000
   -5.4137    8.3570  -17.9417 O   0  0  0  0  0  0  0  0  0  0  0  0
   -4.9989    7.2806  -18.1545 C   0  0  0  0  0  0  0  0  0  0  0  0
   -3.5909    6.6669  -17.8774 N   0  0  0  0  0  0  0  0  0  0  0  0
   -2.4344    7.2266  -17.1931 C   0  0  1  0  0  0  0  0  0  0  0  0
   -1.9888    6.4938  -15.9145 C   0  0  0  0  0  0  0  0  0  0  0  0
   -0.6776    6.2622  -16.4766 O   0  0  0  0  0  0  0  0  0  0  0  0
   -1.1447    6.7598  -17.7291 C   0  0  0  0  0  0  0  0  0  0  0  0
   -0.7664    6.0792  -18.9902 C   0  0  0  0  0  0  0  0  0  0  0  0
   -0.2021    7.4406  -18.6501 C   0  0  0  0  0  0  0  0  0  0  0  0
   -5.8912    6.2168  -18.8340 C   0  0  2  0  0  0  0  0  0  0  0  0
   -6.6215    5.3159  -17.8324 C   0  0  0  0  0  0  0  0  0  0  0  0
   -7.8693    4.7619  -18.1835 C   0  0  0  0  0  0  0  0  0  0  0  0
   -8.6789    4.1275  -17.2417 C   0  0  0  0  0  0  0  0  0  0  0  0
   -8.2500    4.0207  -15.9268 C   0  0  0  0  0  0  0  0  0  0  0  0
   -6.9966    4.5001  -15.5655 C   0  0  0  0  0  0  0  0  0  0  0  0
   -6.1849    5.1357  -16.5091 C   0  0  0  0  0  0  0  0  0  0  0  0
   -5.2722    5.5842  -20.0087 N   0  0  0  0  0  0  0  0  0  0  0  0
   -5.5894    4.3561  -20.5126 C   0  0  0  0  0  0  0  0  0  0  0  0
   -5.0049    4.1171  -21.6668 N   0  0  0  0  0  0  0  0  0  0  0  0
   -4.3039    5.2531  -21.9507 C   0  0  0  0  0  0  0  0  0  0  0  0
   -3.4991    5.5433  -23.0609 C   0  0  0  0  0  0  0  0  0  0  0  0
   -2.9216    6.8107  -23.1743 C   0  0  0  0  0  0  0  0  0  0  0  0
   -3.1520    7.7791  -22.2021 C   0  0  0  0  0  0  0  0  0  0  0  0
   -3.9433    7.5054  -21.0804 C   0  0  0  0  0  0  0  0  0  0  0  0
   -4.4886    6.2172  -20.9615 C   0  0  0  0  0  0  0  0  0  0  0  0
  1  2  2  0
  2  3  1  0
  4  3  1  6
  4  5  1  0
  5  6  1  0
  6  7  1  0
  7  8  1  0
  8  9  1  0
  2 10  1  0
 10 11  1  0
 11 12  2  0
 12 13  1  0
 13 14  2  0
 14 15  1  0
 15 16  2  0
 10 17  1  6
 17 18  1  0
 18 19  2  0
 19 20  1  0
 20 21  2  0
 21 22  1  0
 22 23  2  0
 23 24  1  0
 24 25  2  0
  7  4  1  0
 16 11  1  0
 25 17  1  0
  9  7  1  0
 25 20  1  0
M  END
>  <energy_score>  (5148) 
-18.651189

>  <alias>  (5148) 
OUYPTARUZBIYBS-UHFFFAOYSA-N-P8-P8-P219-601533

>  <HIPPO Pose ID>  (5148) 
90912

>  <smiles>  (5148) 
O=C(NC1COC12CC2)C(c1ccccc1)n1cnc2ccccc21

>  <inchikey>  (5148) 
OUYPTARUZBIYBS-UHFFFAOYSA-N

>  <distance_score>  (5148) 
1.206991

>  <ref_mols>  (5148) 
Z0101a,Z3880a

>  <ref_pdb>  (5148) 
Z0101a

>  <HIPPO Compound ID>  (5148) 
147671

>  <name>  (5148) 
OUYPTARUZBIYBS-UHFFFAOYSA-N-P8-P8-P219-601533

>  <inspiration_score>  (5148) 
None

$$$$
HHZSMDDWAZYDGD-UHFFFAOYSA-N-P8-P8-P219-601533
     RDKit          3D

 25 29  0  0  0  0  0  0  0  0999 V2000
   -4.7239    8.2693  -17.7370 O   0  0  0  0  0  0  0  0  0  0  0  0
   -4.6201    7.0932  -17.8447 C   0  0  0  0  0  0  0  0  0  0  0  0
   -5.7202    6.2766  -18.5634 C   0  0  2  0  0  0  0  0  0  0  0  0
   -6.5920    5.3867  -17.6603 C   0  0  0  0  0  0  0  0  0  0  0  0
   -7.7702    4.8062  -18.1726 C   0  0  0  0  0  0  0  0  0  0  0  0
   -8.6859    4.1473  -17.3521 C   0  0  0  0  0  0  0  0  0  0  0  0
   -8.4459    4.0573  -15.9900 C   0  0  0  0  0  0  0  0  0  0  0  0
   -7.2804    4.5879  -15.4550 C   0  0  0  0  0  0  0  0  0  0  0  0
   -6.3647    5.2459  -16.2799 C   0  0  0  0  0  0  0  0  0  0  0  0
   -5.2564    5.7137  -19.8376 N   0  0  0  0  0  0  0  0  0  0  0  0
   -5.4293    4.4403  -20.2846 C   0  0  0  0  0  0  0  0  0  0  0  0
   -4.9440    4.2583  -21.4942 N   0  0  0  0  0  0  0  0  0  0  0  0
   -4.4682    5.4806  -21.8712 C   0  0  0  0  0  0  0  0  0  0  0  0
   -3.8399    5.8630  -23.0638 C   0  0  0  0  0  0  0  0  0  0  0  0
   -3.4732    7.2008  -23.2412 C   0  0  0  0  0  0  0  0  0  0  0  0
   -3.7268    8.1430  -22.2467 C   0  0  0  0  0  0  0  0  0  0  0  0
   -4.3374    7.7775  -21.0420 C   0  0  0  0  0  0  0  0  0  0  0  0
   -4.6856    6.4298  -20.8754 C   0  0  0  0  0  0  0  0  0  0  0  0
   -3.5671    6.1390  -17.2831 N   0  0  0  0  0  0  0  0  0  0  0  0
   -2.3674    5.9607  -18.2743 C   0  0  0  0  0  0  0  0  0  0  0  0
   -1.5148    6.8471  -17.4005 C   0  0  2  0  0  0  0  0  0  0  0  0
   -0.1269    6.4939  -17.2485 O   0  0  0  0  0  0  0  0  0  0  0  0
   -2.4597    6.3807  -16.3873 C   0  0  0  0  0  0  0  0  0  0  0  0
   -2.1982    5.5690  -15.1592 C   0  0  0  0  0  0  0  0  0  0  0  0
   -2.6445    6.9984  -15.0320 C   0  0  0  0  0  0  0  0  0  0  0  0
  1  2  2  0
  2  3  1  0
  3  4  1  0
  4  5  2  0
  5  6  1  0
  6  7  2  0
  7  8  1  0
  8  9  2  0
  3 10  1  6
 10 11  1  0
 11 12  2  0
 12 13  1  0
 13 14  2  0
 14 15  1  0
 15 16  2  0
 16 17  1  0
 17 18  2  0
  2 19  1  0
 19 20  1  0
 20 21  1  0
 21 22  1  1
 21 23  1  0
 23 24  1  0
 24 25  1  0
  9  4  1  0
 18 10  1  0
 23 19  1  0
 18 13  1  0
 25 23  1  0
M  END
>  <energy_score>  (5149) 
-12.209411

>  <alias>  (5149) 
HHZSMDDWAZYDGD-UHFFFAOYSA-N-P8-P8-P219-601533

>  <HIPPO Pose ID>  (5149) 
90916

>  <smiles>  (5149) 
O=C(C(c1ccccc1)n1cnc2ccccc21)N1CC(O)C12CC2

>  <inchikey>  (5149) 
HHZSMDDWAZYDGD-UHFFFAOYSA-N

>  <distance_score>  (5149) 
1.080257

>  <ref_mols>  (5149) 
Z0101a,Z3880a

>  <ref_pdb>  (5149) 
Z0101a

>  <HIPPO Compound ID>  (5149) 
147673

>  <name>  (5149) 
HHZSMDDWAZYDGD-UHFFFAOYSA-N-P8-P8-P219-601533

>  <inspiration_score>  (5149) 
None

$$$$
VQFOAKPFTOQCCI-UHFFFAOYSA-N-P8-P8-P219-601533
     RDKit          3D

 25 27  0  0  0  0  0  0  0  0999 V2000
   -0.7588    8.6672  -17.7024 C   0  0  0  0  0  0  0  0  0  0  0  0
   -1.0918    7.3677  -17.5964 C   0  0  0  0  0  0  0  0  0  0  0  0
   -0.5501    6.3674  -18.5924 C   0  0  0  0  0  0  0  0  0  0  0  0
   -1.9804    6.7805  -16.5104 C   0  0  1  0  0  0  0  0  0  0  0  0
   -2.1218    7.6230  -15.2241 C   0  0  0  0  0  0  0  0  0  0  0  0
   -2.9002    6.9282  -14.2474 O   0  0  0  0  0  0  0  0  0  0  0  0
   -3.2711    6.5583  -17.1225 N   0  0  0  0  0  0  0  0  0  0  0  0
   -3.8734    5.2778  -17.7781 C   0  0  0  0  0  0  0  0  0  0  0  0
   -3.4453    4.1917  -17.8516 O   0  0  0  0  0  0  0  0  0  0  0  0
   -5.2610    5.6663  -18.3724 C   0  0  2  0  0  0  0  0  0  0  0  0
   -6.4261    5.0561  -17.5845 C   0  0  0  0  0  0  0  0  0  0  0  0
   -7.6673    4.7367  -18.1570 C   0  0  0  0  0  0  0  0  0  0  0  0
   -8.7260    4.2459  -17.3883 C   0  0  0  0  0  0  0  0  0  0  0  0
   -8.5838    4.1190  -16.0145 C   0  0  0  0  0  0  0  0  0  0  0  0
   -7.3795    4.4514  -15.4102 C   0  0  0  0  0  0  0  0  0  0  0  0
   -6.3148    4.9171  -16.1845 C   0  0  0  0  0  0  0  0  0  0  0  0
   -5.1869    5.4328  -19.8216 N   0  0  0  0  0  0  0  0  0  0  0  0
   -5.6064    4.3398  -20.5174 C   0  0  0  0  0  0  0  0  0  0  0  0
   -5.2345    4.3645  -21.7801 N   0  0  0  0  0  0  0  0  0  0  0  0
   -4.5659    5.5485  -21.9220 C   0  0  0  0  0  0  0  0  0  0  0  0
   -3.9637    6.1000  -23.0616 C   0  0  0  0  0  0  0  0  0  0  0  0
   -3.3254    7.3412  -22.9609 C   0  0  0  0  0  0  0  0  0  0  0  0
   -3.2849    8.0227  -21.7459 C   0  0  0  0  0  0  0  0  0  0  0  0
   -3.8813    7.4908  -20.5974 C   0  0  0  0  0  0  0  0  0  0  0  0
   -4.5205    6.2497  -20.7178 C   0  0  0  0  0  0  0  0  0  0  0  0
  1  2  2  0
  2  3  1  0
  2  4  1  0
  4  5  1  1
  5  6  1  0
  4  7  1  0
  7  8  1  0
  8  9  2  0
  8 10  1  0
 10 11  1  0
 11 12  2  0
 12 13  1  0
 13 14  2  0
 14 15  1  0
 15 16  2  0
 10 17  1  6
 17 18  1  0
 18 19  2  0
 19 20  1  0
 20 21  2  0
 21 22  1  0
 22 23  2  0
 23 24  1  0
 24 25  2  0
 16 11  1  0
 25 17  1  0
 25 20  1  0
M  END
>  <energy_score>  (5150) 
-0.373849

>  <alias>  (5150) 
VQFOAKPFTOQCCI-UHFFFAOYSA-N-P8-P8-P219-601533

>  <HIPPO Pose ID>  (5150) 
90924

>  <smiles>  (5150) 
C=C(C)C(CO)NC(=O)C(c1ccccc1)n1cnc2ccccc21

>  <inchikey>  (5150) 
VQFOAKPFTOQCCI-UHFFFAOYSA-N

>  <distance_score>  (5150) 
0.840029

>  <ref_mols>  (5150) 
Z0101a,Z3880a

>  <ref_pdb>  (5150) 
Z0101a

>  <HIPPO Compound ID>  (5150) 
147677

>  <name>  (5150) 
VQFOAKPFTOQCCI-UHFFFAOYSA-N-P8-P8-P219-601533

>  <inspiration_score>  (5150) 
None

$$$$
GPZFLSVJXNGDRR-UHFFFAOYSA-N-P8-P8-P219-601533
     RDKit          3D

 25 28  0  0  0  0  0  0  0  0999 V2000
   -1.8582    7.2277  -15.3613 C   0  0  0  0  0  0  0  0  0  0  0  0
   -1.6294    6.6753  -16.7579 C   0  0  2  0  0  0  0  0  0  0  0  0
   -1.1266    7.6602  -17.7738 C   0  0  0  0  0  0  0  0  0  0  0  0
   -1.9874    6.8710  -18.7215 C   0  0  1  0  0  0  0  0  0  0  0  0
   -1.4427    5.6365  -19.4442 C   0  0  0  0  0  0  0  0  0  0  0  0
   -0.4382    6.0411  -20.3692 O   0  0  0  0  0  0  0  0  0  0  0  0
   -2.9570    6.5508  -17.4888 N   0  0  0  0  0  0  0  0  0  0  0  0
   -3.8313    5.3244  -17.7675 C   0  0  0  0  0  0  0  0  0  0  0  0
   -3.6348    4.1795  -17.5461 O   0  0  0  0  0  0  0  0  0  0  0  0
   -5.1879    5.8437  -18.3424 C   0  0  2  0  0  0  0  0  0  0  0  0
   -6.3814    5.2540  -17.5613 C   0  0  0  0  0  0  0  0  0  0  0  0
   -7.5692    4.7989  -18.1570 C   0  0  0  0  0  0  0  0  0  0  0  0
   -8.6131    4.2621  -17.3969 C   0  0  0  0  0  0  0  0  0  0  0  0
   -8.5100    4.2085  -16.0139 C   0  0  0  0  0  0  0  0  0  0  0  0
   -7.3625    4.6791  -15.3898 C   0  0  0  0  0  0  0  0  0  0  0  0
   -6.3144    5.2009  -16.1527 C   0  0  0  0  0  0  0  0  0  0  0  0
   -5.1937    5.6258  -19.7913 N   0  0  0  0  0  0  0  0  0  0  0  0
   -5.4099    4.4327  -20.4146 C   0  0  0  0  0  0  0  0  0  0  0  0
   -5.0885    4.4548  -21.6882 N   0  0  0  0  0  0  0  0  0  0  0  0
   -4.7597    5.7594  -21.9334 C   0  0  0  0  0  0  0  0  0  0  0  0
   -4.3832    6.3698  -23.1377 C   0  0  0  0  0  0  0  0  0  0  0  0
   -4.1296    7.7459  -23.1511 C   0  0  0  0  0  0  0  0  0  0  0  0
   -4.2476    8.5023  -21.9864 C   0  0  0  0  0  0  0  0  0  0  0  0
   -4.6120    7.9097  -20.7722 C   0  0  0  0  0  0  0  0  0  0  0  0
   -4.8516    6.5304  -20.7727 C   0  0  0  0  0  0  0  0  0  0  0  0
  2  1  1  1
  2  3  1  0
  3  4  1  0
  4  5  1  1
  5  6  1  0
  4  7  1  0
  7  8  1  0
  8  9  2  0
  8 10  1  0
 10 11  1  0
 11 12  2  0
 12 13  1  0
 13 14  2  0
 14 15  1  0
 15 16  2  0
 10 17  1  6
 17 18  1  0
 18 19  2  0
 19 20  1  0
 20 21  2  0
 21 22  1  0
 22 23  2  0
 23 24  1  0
 24 25  2  0
  7  2  1  0
 16 11  1  0
 25 17  1  0
 25 20  1  0
M  END
>  <energy_score>  (5151) 
-4.884352

>  <alias>  (5151) 
GPZFLSVJXNGDRR-UHFFFAOYSA-N-P8-P8-P219-601533

>  <HIPPO Pose ID>  (5151) 
90926

>  <smiles>  (5151) 
CC1CC(CO)N1C(=O)C(c1ccccc1)n1cnc2ccccc21

>  <inchikey>  (5151) 
GPZFLSVJXNGDRR-UHFFFAOYSA-N

>  <distance_score>  (5151) 
0.927342

>  <ref_mols>  (5151) 
Z0101a,Z3880a

>  <ref_pdb>  (5151) 
Z0101a

>  <HIPPO Compound ID>  (5151) 
147678

>  <name>  (5151) 
GPZFLSVJXNGDRR-UHFFFAOYSA-N-P8-P8-P219-601533

>  <inspiration_score>  (5151) 
None

$$$$
WCLYJMNPVCUJMS-UHFFFAOYSA-N-P8-P8-P219-601533
     RDKit          3D

 25 28  0  0  0  0  0  0  0  0999 V2000
   -0.8475    8.5439  -16.4135 C   0  0  0  0  0  0  0  0  0  0  0  0
   -0.9856    7.8514  -17.7654 C   0  0  0  0  0  0  0  0  0  0  0  0
   -1.6963    8.7319  -18.7815 C   0  0  0  0  0  0  0  0  0  0  0  0
    0.3406    7.5017  -18.2836 O   0  0  0  0  0  0  0  0  0  0  0  0
   -0.1325    6.1630  -18.5952 C   0  0  0  0  0  0  0  0  0  0  0  0
   -1.3330    6.3419  -17.6556 C   0  0  2  0  0  0  0  0  0  0  0  0
   -2.6132    5.8269  -18.1481 N   0  0  0  0  0  0  0  0  0  0  0  0
   -4.0811    6.3015  -17.8582 C   0  0  0  0  0  0  0  0  0  0  0  0
   -4.4748    7.2212  -17.2452 O   0  0  0  0  0  0  0  0  0  0  0  0
   -5.0367    5.2256  -18.4664 C   0  0  1  0  0  0  0  0  0  0  0  0
   -6.3191    4.9866  -17.6484 C   0  0  0  0  0  0  0  0  0  0  0  0
   -7.5683    4.6858  -18.2130 C   0  0  0  0  0  0  0  0  0  0  0  0
   -8.6565    4.2950  -17.4246 C   0  0  0  0  0  0  0  0  0  0  0  0
   -8.5307    4.2301  -16.0440 C   0  0  0  0  0  0  0  0  0  0  0  0
   -7.3138    4.5354  -15.4506 C   0  0  0  0  0  0  0  0  0  0  0  0
   -6.2199    4.8952  -16.2431 C   0  0  0  0  0  0  0  0  0  0  0  0
   -5.1902    5.3558  -19.9260 N   0  0  0  0  0  0  0  0  0  0  0  0
   -5.5609    4.3041  -20.7233 C   0  0  0  0  0  0  0  0  0  0  0  0
   -5.1909    4.4502  -21.9733 N   0  0  0  0  0  0  0  0  0  0  0  0
   -4.7432    5.7389  -22.0362 C   0  0  0  0  0  0  0  0  0  0  0  0
   -4.3149    6.4639  -23.1571 C   0  0  0  0  0  0  0  0  0  0  0  0
   -3.9679    7.8090  -23.0005 C   0  0  0  0  0  0  0  0  0  0  0  0
   -4.0538    8.4210  -21.7521 C   0  0  0  0  0  0  0  0  0  0  0  0
   -4.4640    7.7072  -20.6191 C   0  0  0  0  0  0  0  0  0  0  0  0
   -4.7832    6.3555  -20.7807 C   0  0  0  0  0  0  0  0  0  0  0  0
  1  2  1  0
  2  3  1  0
  2  4  1  0
  4  5  1  0
  5  6  1  0
  6  7  1  6
  7  8  1  0
  8  9  2  0
  8 10  1  0
 10 11  1  0
 11 12  2  0
 12 13  1  0
 13 14  2  0
 14 15  1  0
 15 16  2  0
 10 17  1  6
 17 18  1  0
 18 19  2  0
 19 20  1  0
 20 21  2  0
 21 22  1  0
 22 23  2  0
 23 24  1  0
 24 25  2  0
  6  2  1  0
 16 11  1  0
 25 17  1  0
 25 20  1  0
M  END
>  <energy_score>  (5152) 
-5.180621

>  <alias>  (5152) 
WCLYJMNPVCUJMS-UHFFFAOYSA-N-P8-P8-P219-601533

>  <HIPPO Pose ID>  (5152) 
90928

>  <smiles>  (5152) 
CC1(C)OCC1NC(=O)C(c1ccccc1)n1cnc2ccccc21

>  <inchikey>  (5152) 
WCLYJMNPVCUJMS-UHFFFAOYSA-N

>  <distance_score>  (5152) 
1.137751

>  <ref_mols>  (5152) 
Z0101a,Z3880a

>  <ref_pdb>  (5152) 
Z0101a

>  <HIPPO Compound ID>  (5152) 
147679

>  <name>  (5152) 
WCLYJMNPVCUJMS-UHFFFAOYSA-N-P8-P8-P219-601533

>  <inspiration_score>  (5152) 
None

$$$$
DUPQXSVGPBXJGK-UHFFFAOYSA-N-P8-P8-P219-601533
     RDKit          3D

 25 28  0  0  0  0  0  0  0  0999 V2000
   -0.5920    5.9591  -19.3478 C   0  0  0  0  0  0  0  0  0  0  0  0
   -0.1119    6.6905  -18.2261 O   0  0  0  0  0  0  0  0  0  0  0  0
   -1.0064    7.7161  -17.7970 C   0  0  0  0  0  0  0  0  0  0  0  0
   -1.9587    7.1896  -16.7270 C   0  0  1  0  0  0  0  0  0  0  0  0
   -2.6386    8.2788  -15.9249 C   0  0  0  0  0  0  0  0  0  0  0  0
   -3.7352    7.2574  -15.8522 C   0  0  0  0  0  0  0  0  0  0  0  0
   -3.3311    6.8198  -17.2900 N   0  0  0  0  0  0  0  0  0  0  0  0
   -3.9270    5.4566  -17.6485 C   0  0  0  0  0  0  0  0  0  0  0  0
   -3.4906    4.3692  -17.4982 O   0  0  0  0  0  0  0  0  0  0  0  0
   -5.3099    5.7359  -18.2957 C   0  0  2  0  0  0  0  0  0  0  0  0
   -6.4725    5.0627  -17.5475 C   0  0  0  0  0  0  0  0  0  0  0  0
   -7.7099    4.7987  -18.1573 C   0  0  0  0  0  0  0  0  0  0  0  0
   -8.7873    4.2692  -17.4440 C   0  0  0  0  0  0  0  0  0  0  0  0
   -8.6698    4.0523  -16.0808 C   0  0  0  0  0  0  0  0  0  0  0  0
   -7.4663    4.3079  -15.4402 C   0  0  0  0  0  0  0  0  0  0  0  0
   -6.3802    4.8013  -16.1659 C   0  0  0  0  0  0  0  0  0  0  0  0
   -5.1881    5.4691  -19.7365 N   0  0  0  0  0  0  0  0  0  0  0  0
   -5.5777    4.3516  -20.4114 C   0  0  0  0  0  0  0  0  0  0  0  0
   -5.1856    4.3499  -21.6679 N   0  0  0  0  0  0  0  0  0  0  0  0
   -4.5582    5.5524  -21.8361 C   0  0  0  0  0  0  0  0  0  0  0  0
   -3.9652    6.0930  -22.9855 C   0  0  0  0  0  0  0  0  0  0  0  0
   -3.3905    7.3672  -22.9173 C   0  0  0  0  0  0  0  0  0  0  0  0
   -3.4072    8.0922  -21.7267 C   0  0  0  0  0  0  0  0  0  0  0  0
   -3.9917    7.5684  -20.5682 C   0  0  0  0  0  0  0  0  0  0  0  0
   -4.5573    6.2901  -20.6526 C   0  0  0  0  0  0  0  0  0  0  0  0
  1  2  1  0
  2  3  1  0
  4  3  1  6
  4  5  1  0
  5  6  1  0
  6  7  1  0
  7  8  1  0
  8  9  2  0
  8 10  1  0
 10 11  1  0
 11 12  2  0
 12 13  1  0
 13 14  2  0
 14 15  1  0
 15 16  2  0
 10 17  1  6
 17 18  1  0
 18 19  2  0
 19 20  1  0
 20 21  2  0
 21 22  1  0
 22 23  2  0
 23 24  1  0
 24 25  2  0
  7  4  1  0
 16 11  1  0
 25 17  1  0
 25 20  1  0
M  END
>  <energy_score>  (5153) 
-24.494864

>  <alias>  (5153) 
DUPQXSVGPBXJGK-UHFFFAOYSA-N-P8-P8-P219-601533

>  <HIPPO Pose ID>  (5153) 
90930

>  <smiles>  (5153) 
COCC1CCN1C(=O)C(c1ccccc1)n1cnc2ccccc21

>  <inchikey>  (5153) 
DUPQXSVGPBXJGK-UHFFFAOYSA-N

>  <distance_score>  (5153) 
0.845808

>  <ref_mols>  (5153) 
Z0101a,Z3880a

>  <ref_pdb>  (5153) 
Z0101a

>  <HIPPO Compound ID>  (5153) 
147680

>  <name>  (5153) 
DUPQXSVGPBXJGK-UHFFFAOYSA-N-P8-P8-P219-601533

>  <inspiration_score>  (5153) 
None

$$$$
FDJPFJVOTUNBQT-UHFFFAOYSA-N-P8-P8-P219-601533
     RDKit          3D

 25 29  0  0  0  0  0  0  0  0999 V2000
   -4.5296    7.1993  -17.2368 O   0  0  0  0  0  0  0  0  0  0  0  0
   -4.1170    6.2814  -17.8403 C   0  0  0  0  0  0  0  0  0  0  0  0
   -2.6440    5.8993  -18.2287 N   0  0  0  0  0  0  0  0  0  0  0  0
   -1.4098    6.6170  -18.0335 C   0  0  2  0  0  0  0  0  0  0  0  0
   -0.2397    6.3059  -18.9823 C   0  0  0  0  0  0  0  0  0  0  0  0
    0.7450    7.2080  -18.4385 O   0  0  0  0  0  0  0  0  0  0  0  0
   -0.0042    7.8339  -17.3600 C   0  0  2  0  0  0  0  0  0  0  0  0
   -0.7865    6.6912  -16.6072 C   0  0  0  0  0  0  0  0  0  0  0  0
   -1.4342    8.1744  -17.9229 C   0  0  0  0  0  0  0  0  0  0  0  0
   -5.0377    5.1814  -18.4369 C   0  0  1  0  0  0  0  0  0  0  0  0
   -6.3201    4.9371  -17.6249 C   0  0  0  0  0  0  0  0  0  0  0  0
   -7.5804    4.6862  -18.1880 C   0  0  0  0  0  0  0  0  0  0  0  0
   -8.6721    4.3022  -17.4014 C   0  0  0  0  0  0  0  0  0  0  0  0
   -8.5395    4.2044  -16.0234 C   0  0  0  0  0  0  0  0  0  0  0  0
   -7.3120    4.4654  -15.4309 C   0  0  0  0  0  0  0  0  0  0  0  0
   -6.2142    4.8130  -16.2225 C   0  0  0  0  0  0  0  0  0  0  0  0
   -5.1832    5.3191  -19.9014 N   0  0  0  0  0  0  0  0  0  0  0  0
   -5.6079    4.2867  -20.6979 C   0  0  0  0  0  0  0  0  0  0  0  0
   -5.2253    4.4069  -21.9470 N   0  0  0  0  0  0  0  0  0  0  0  0
   -4.6755    5.6552  -22.0103 C   0  0  0  0  0  0  0  0  0  0  0  0
   -4.1677    6.3323  -23.1285 C   0  0  0  0  0  0  0  0  0  0  0  0
   -3.6806    7.6330  -22.9726 C   0  0  0  0  0  0  0  0  0  0  0  0
   -3.7068    8.2523  -21.7262 C   0  0  0  0  0  0  0  0  0  0  0  0
   -4.2059    7.5910  -20.5977 C   0  0  0  0  0  0  0  0  0  0  0  0
   -4.6724    6.2776  -20.7570 C   0  0  0  0  0  0  0  0  0  0  0  0
  1  2  2  0
  2  3  1  0
  4  3  1  1
  4  5  1  0
  5  6  1  0
  6  7  1  0
  7  8  1  1
  7  9  1  0
  2 10  1  0
 10 11  1  0
 11 12  2  0
 12 13  1  0
 13 14  2  0
 14 15  1  0
 15 16  2  0
 10 17  1  6
 17 18  1  0
 18 19  2  0
 19 20  1  0
 20 21  2  0
 21 22  1  0
 22 23  2  0
 23 24  1  0
 24 25  2  0
  8  4  1  0
 16 11  1  0
 25 17  1  0
  9  4  1  0
 25 20  1  0
M  END
>  <energy_score>  (5154) 
-1.799802

>  <alias>  (5154) 
FDJPFJVOTUNBQT-UHFFFAOYSA-N-P8-P8-P219-601533

>  <HIPPO Pose ID>  (5154) 
90932

>  <smiles>  (5154) 
O=C(NC12COC(C1)C2)C(c1ccccc1)n1cnc2ccccc21

>  <inchikey>  (5154) 
FDJPFJVOTUNBQT-UHFFFAOYSA-N

>  <distance_score>  (5154) 
0.875561

>  <ref_mols>  (5154) 
Z0101a,Z3880a

>  <ref_pdb>  (5154) 
Z0101a

>  <HIPPO Compound ID>  (5154) 
147681

>  <name>  (5154) 
FDJPFJVOTUNBQT-UHFFFAOYSA-N-P8-P8-P219-601533

>  <inspiration_score>  (5154) 
None

$$$$
GVWLGIONPUGSJX-UHFFFAOYSA-N-P8-P8-P219-601533
     RDKit          3D

 25 28  0  0  0  0  0  0  0  0999 V2000
   -4.6125    8.8668  -15.7080 C   0  0  0  0  0  0  0  0  0  0  0  0
   -4.6950    8.9129  -17.2267 C   0  0  2  0  0  0  0  0  0  0  0  0
   -4.9350    7.5656  -17.7664 N   0  0  0  0  0  0  0  0  0  0  0  0
   -4.0932    6.2560  -17.6349 C   0  0  0  0  0  0  0  0  0  0  0  0
   -3.0454    6.0737  -17.1427 O   0  0  0  0  0  0  0  0  0  0  0  0
   -4.8828    5.0983  -18.2978 C   0  0  1  0  0  0  0  0  0  0  0  0
   -6.1945    4.8355  -17.5333 C   0  0  0  0  0  0  0  0  0  0  0  0
   -7.4733    4.7719  -18.1022 C   0  0  0  0  0  0  0  0  0  0  0  0
   -8.5898    4.3933  -17.3480 C   0  0  0  0  0  0  0  0  0  0  0  0
   -8.4700    4.1686  -15.9844 C   0  0  0  0  0  0  0  0  0  0  0  0
   -7.2267    4.2783  -15.3782 C   0  0  0  0  0  0  0  0  0  0  0  0
   -6.1016    4.5902  -16.1455 C   0  0  0  0  0  0  0  0  0  0  0  0
   -4.9266    5.1689  -19.7775 N   0  0  0  0  0  0  0  0  0  0  0  0
   -5.6373    4.2991  -20.5671 C   0  0  0  0  0  0  0  0  0  0  0  0
   -5.3869    4.4324  -21.8490 N   0  0  0  0  0  0  0  0  0  0  0  0
   -4.4885    5.4531  -21.9181 C   0  0  0  0  0  0  0  0  0  0  0  0
   -3.9215    6.0408  -23.0592 C   0  0  0  0  0  0  0  0  0  0  0  0
   -2.9481    7.0294  -22.9059 C   0  0  0  0  0  0  0  0  0  0  0  0
   -2.5371    7.4142  -21.6353 C   0  0  0  0  0  0  0  0  0  0  0  0
   -3.1090    6.8522  -20.4867 C   0  0  0  0  0  0  0  0  0  0  0  0
   -4.1211    5.8943  -20.6429 C   0  0  0  0  0  0  0  0  0  0  0  0
   -3.5381    9.6753  -17.9266 C   0  0  0  0  0  0  0  0  0  0  0  0
   -4.4485   10.9116  -18.0199 C   0  0  0  0  0  0  0  0  0  0  0  0
   -5.6654    9.9848  -17.8240 C   0  0  1  0  0  0  0  0  0  0  0  0
   -6.3772    9.5891  -19.0254 O   0  0  0  0  0  0  0  0  0  0  0  0
  2  1  1  1
  2  3  1  0
  3  4  1  0
  4  5  2  0
  4  6  1  0
  6  7  1  0
  7  8  2  0
  8  9  1  0
  9 10  2  0
 10 11  1  0
 11 12  2  0
  6 13  1  6
 13 14  1  0
 14 15  2  0
 15 16  1  0
 16 17  2  0
 17 18  1  0
 18 19  2  0
 19 20  1  0
 20 21  2  0
  2 22  1  0
 22 23  1  0
 23 24  1  0
 24 25  1  6
 24  2  1  0
 12  7  1  0
 21 13  1  0
 21 16  1  0
M  END
>  <energy_score>  (5155) 
-9.779541

>  <alias>  (5155) 
GVWLGIONPUGSJX-UHFFFAOYSA-N-P8-P8-P219-601533

>  <HIPPO Pose ID>  (5155) 
90934

>  <smiles>  (5155) 
CC1(NC(=O)C(c2ccccc2)n2cnc3ccccc32)CCC1O

>  <inchikey>  (5155) 
GVWLGIONPUGSJX-UHFFFAOYSA-N

>  <distance_score>  (5155) 
0.914546

>  <ref_mols>  (5155) 
Z0101a,Z3880a

>  <ref_pdb>  (5155) 
Z0101a

>  <HIPPO Compound ID>  (5155) 
147682

>  <name>  (5155) 
GVWLGIONPUGSJX-UHFFFAOYSA-N-P8-P8-P219-601533

>  <inspiration_score>  (5155) 
None

$$$$
VDLMHJLCFAOZJU-UHFFFAOYSA-N-P8-P8-P219-601533
     RDKit          3D

 25 28  0  0  0  0  0  0  0  0999 V2000
   -3.2039    4.8737  -17.8238 O   0  0  0  0  0  0  0  0  0  0  0  0
   -3.9621    5.7526  -17.6650 C   0  0  0  0  0  0  0  0  0  0  0  0
   -3.8459    7.0469  -16.7875 N   0  0  0  0  0  0  0  0  0  0  0  0
   -2.7298    7.5611  -16.0054 C   0  0  1  0  0  0  0  0  0  0  0  0
   -3.0449    7.8840  -14.5315 C   0  0  0  0  0  0  0  0  0  0  0  0
   -1.6382    7.3397  -14.1842 C   0  0  2  0  0  0  0  0  0  0  0  0
   -0.5757    8.3176  -14.1619 O   0  0  0  0  0  0  0  0  0  0  0  0
   -1.7332    6.4857  -15.4815 C   0  0  2  0  0  0  0  0  0  0  0  0
   -0.5067    6.3402  -16.2290 O   0  0  0  0  0  0  0  0  0  0  0  0
   -5.3572    5.8043  -18.3627 C   0  0  2  0  0  0  0  0  0  0  0  0
   -6.4545    5.0850  -17.5703 C   0  0  0  0  0  0  0  0  0  0  0  0
   -7.7072    4.7943  -18.1379 C   0  0  0  0  0  0  0  0  0  0  0  0
   -8.7520    4.2567  -17.3841 C   0  0  0  0  0  0  0  0  0  0  0  0
   -8.5836    4.0514  -16.0243 C   0  0  0  0  0  0  0  0  0  0  0  0
   -7.3604    4.3245  -15.4283 C   0  0  0  0  0  0  0  0  0  0  0  0
   -6.3062    4.8297  -16.1926 C   0  0  0  0  0  0  0  0  0  0  0  0
   -5.1772    5.4536  -19.7799 N   0  0  0  0  0  0  0  0  0  0  0  0
   -5.6064    4.3454  -20.4425 C   0  0  0  0  0  0  0  0  0  0  0  0
   -5.2078    4.3174  -21.6975 N   0  0  0  0  0  0  0  0  0  0  0  0
   -4.5170    5.4847  -21.8712 C   0  0  0  0  0  0  0  0  0  0  0  0
   -3.8858    5.9869  -23.0176 C   0  0  0  0  0  0  0  0  0  0  0  0
   -3.2413    7.2274  -22.9515 C   0  0  0  0  0  0  0  0  0  0  0  0
   -3.2224    7.9563  -21.7636 C   0  0  0  0  0  0  0  0  0  0  0  0
   -3.8440    7.4724  -20.6072 C   0  0  0  0  0  0  0  0  0  0  0  0
   -4.4867    6.2299  -20.6941 C   0  0  0  0  0  0  0  0  0  0  0  0
  1  2  2  0
  2  3  1  0
  4  3  1  6
  4  5  1  0
  5  6  1  0
  6  7  1  6
  6  8  1  0
  8  9  1  6
  2 10  1  0
 10 11  1  0
 11 12  2  0
 12 13  1  0
 13 14  2  0
 14 15  1  0
 15 16  2  0
 10 17  1  6
 17 18  1  0
 18 19  2  0
 19 20  1  0
 20 21  2  0
 21 22  1  0
 22 23  2  0
 23 24  1  0
 24 25  2  0
  8  4  1  0
 16 11  1  0
 25 17  1  0
 25 20  1  0
M  END
>  <energy_score>  (5156) 
-9.386077

>  <alias>  (5156) 
VDLMHJLCFAOZJU-UHFFFAOYSA-N-P8-P8-P219-601533

>  <HIPPO Pose ID>  (5156) 
90936

>  <smiles>  (5156) 
O=C(NC1CC(O)C1O)C(c1ccccc1)n1cnc2ccccc21

>  <inchikey>  (5156) 
VDLMHJLCFAOZJU-UHFFFAOYSA-N

>  <distance_score>  (5156) 
0.848281

>  <ref_mols>  (5156) 
Z0101a,Z3880a

>  <ref_pdb>  (5156) 
Z0101a

>  <HIPPO Compound ID>  (5156) 
147683

>  <name>  (5156) 
VDLMHJLCFAOZJU-UHFFFAOYSA-N-P8-P8-P219-601533

>  <inspiration_score>  (5156) 
None

$$$$
GNZKZBMCYZMEQK-UHFFFAOYSA-N-P8-P8-P219-601533
     RDKit          3D

 26 28  0  0  0  0  0  0  0  0999 V2000
   -0.5350    7.6713  -19.4656 C   0  0  0  0  0  0  0  0  0  0  0  0
   -0.9176    6.4452  -18.6483 C   0  0  0  0  0  0  0  0  0  0  0  0
   -1.3522    6.7340  -17.1913 C   0  0  1  0  0  0  0  0  0  0  0  0
   -0.2023    7.3779  -16.4072 C   0  0  0  0  0  0  0  0  0  0  0  0
   -2.6641    7.5565  -17.0909 C   0  0  2  0  0  0  0  0  0  0  0  0
   -3.1025    7.8488  -15.6383 C   0  0  0  0  0  0  0  0  0  0  0  0
   -3.2048    6.6422  -14.8846 O   0  0  0  0  0  0  0  0  0  0  0  0
   -3.7493    6.8848  -17.7927 N   0  0  0  0  0  0  0  0  0  0  0  0
   -5.1514    7.4080  -18.2242 C   0  0  0  0  0  0  0  0  0  0  0  0
   -5.6175    8.4816  -18.1495 O   0  0  0  0  0  0  0  0  0  0  0  0
   -5.9475    6.2469  -18.8624 C   0  0  2  0  0  0  0  0  0  0  0  0
   -6.6499    5.3431  -17.8427 C   0  0  0  0  0  0  0  0  0  0  0  0
   -7.8917    4.7650  -18.1796 C   0  0  0  0  0  0  0  0  0  0  0  0
   -8.6819    4.1210  -17.2278 C   0  0  0  0  0  0  0  0  0  0  0  0
   -8.2363    4.0221  -15.9180 C   0  0  0  0  0  0  0  0  0  0  0  0
   -6.9852    4.5192  -15.5733 C   0  0  0  0  0  0  0  0  0  0  0  0
   -6.1945    5.1672  -16.5267 C   0  0  0  0  0  0  0  0  0  0  0  0
   -5.2664    5.6018  -19.9961 N   0  0  0  0  0  0  0  0  0  0  0  0
   -5.5680    4.3629  -20.4860 C   0  0  0  0  0  0  0  0  0  0  0  0
   -4.9719    4.1120  -21.6310 N   0  0  0  0  0  0  0  0  0  0  0  0
   -4.2853    5.2512  -21.9295 C   0  0  0  0  0  0  0  0  0  0  0  0
   -3.4885    5.5334  -23.0477 C   0  0  0  0  0  0  0  0  0  0  0  0
   -2.9314    6.8068  -23.1862 C   0  0  0  0  0  0  0  0  0  0  0  0
   -3.1720    7.7866  -22.2284 C   0  0  0  0  0  0  0  0  0  0  0  0
   -3.9522    7.5189  -21.0968 C   0  0  0  0  0  0  0  0  0  0  0  0
   -4.4816    6.2271  -20.9536 C   0  0  0  0  0  0  0  0  0  0  0  0
  1  2  1  0
  2  3  1  0
  3  4  1  6
  3  5  1  0
  5  6  1  1
  6  7  1  0
  5  8  1  0
  8  9  1  0
  9 10  2  0
  9 11  1  0
 11 12  1  0
 12 13  2  0
 13 14  1  0
 14 15  2  0
 15 16  1  0
 16 17  2  0
 11 18  1  1
 18 19  1  0
 19 20  2  0
 20 21  1  0
 21 22  2  0
 22 23  1  0
 23 24  2  0
 24 25  1  0
 25 26  2  0
 17 12  1  0
 26 18  1  0
 26 21  1  0
M  END
>  <energy_score>  (5157) 
-22.729329

>  <alias>  (5157) 
GNZKZBMCYZMEQK-UHFFFAOYSA-N-P8-P8-P219-601533

>  <HIPPO Pose ID>  (5157) 
90938

>  <smiles>  (5157) 
CCC(C)C(CO)NC(=O)C(c1ccccc1)n1cnc2ccccc21

>  <inchikey>  (5157) 
GNZKZBMCYZMEQK-UHFFFAOYSA-N

>  <distance_score>  (5157) 
1.134567

>  <ref_mols>  (5157) 
Z0101a,Z3880a

>  <ref_pdb>  (5157) 
Z0101a

>  <HIPPO Compound ID>  (5157) 
147684

>  <name>  (5157) 
GNZKZBMCYZMEQK-UHFFFAOYSA-N-P8-P8-P219-601533

>  <inspiration_score>  (5157) 
None

$$$$
GQEDKYBQJNHOPD-UHFFFAOYSA-N-P219-P8-P219-601533
     RDKit          3D

 26 29  0  0  0  0  0  0  0  0999 V2000
   -3.2660    4.6944  -16.8570 O   0  0  0  0  0  0  0  0  0  0  0  0
   -3.6465    5.7701  -17.1142 C   0  0  0  0  0  0  0  0  0  0  0  0
   -3.0335    7.1674  -16.7764 N   0  0  0  0  0  0  0  0  0  0  0  0
   -1.7651    7.5190  -16.1292 C   0  0  0  0  0  0  0  0  0  0  0  0
   -1.5970    6.7504  -14.8001 C   0  0  0  0  0  0  0  0  0  0  0  0
   -1.2667    5.3795  -14.9982 O   0  0  0  0  0  0  0  0  0  0  0  0
   -0.5879    7.2981  -17.0866 C   0  0  0  0  0  0  0  0  0  0  0  0
   -0.6265    8.4964  -18.0339 C   0  0  0  0  0  0  0  0  0  0  0  0
   -1.3445    9.6145  -17.2782 C   0  0  0  0  0  0  0  0  0  0  0  0
   -1.7060    9.0381  -15.9099 C   0  0  0  0  0  0  0  0  0  0  0  0
   -4.9945    6.0232  -17.8370 C   0  0  2  0  0  0  0  0  0  0  0  0
   -6.1821    5.2046  -17.3088 C   0  0  0  0  0  0  0  0  0  0  0  0
   -7.0834    4.5038  -18.1292 C   0  0  0  0  0  0  0  0  0  0  0  0
   -8.2781    3.9930  -17.6152 C   0  0  0  0  0  0  0  0  0  0  0  0
   -8.5664    4.1191  -16.2619 C   0  0  0  0  0  0  0  0  0  0  0  0
   -7.6559    4.7382  -15.4143 C   0  0  0  0  0  0  0  0  0  0  0  0
   -6.4809    5.2844  -15.9334 C   0  0  0  0  0  0  0  0  0  0  0  0
   -4.8928    6.1373  -19.3039 N   0  0  0  0  0  0  0  0  0  0  0  0
   -5.9196    6.6965  -20.0223 C   0  0  0  0  0  0  0  0  0  0  0  0
   -5.5480    7.1228  -21.2014 N   0  0  0  0  0  0  0  0  0  0  0  0
   -4.2558    6.7019  -21.3243 C   0  0  0  0  0  0  0  0  0  0  0  0
   -3.3956    6.8474  -22.4239 C   0  0  0  0  0  0  0  0  0  0  0  0
   -2.0681    6.4331  -22.2999 C   0  0  0  0  0  0  0  0  0  0  0  0
   -1.6230    5.8515  -21.1155 C   0  0  0  0  0  0  0  0  0  0  0  0
   -2.4859    5.6487  -20.0290 C   0  0  0  0  0  0  0  0  0  0  0  0
   -3.8031    6.0970  -20.1458 C   0  0  0  0  0  0  0  0  0  0  0  0
  1  2  2  0
  2  3  1  0
  3  4  1  0
  4  5  1  0
  5  6  1  0
  4  7  1  0
  7  8  1  0
  8  9  1  0
  9 10  1  0
  2 11  1  0
 11 12  1  0
 12 13  2  0
 13 14  1  0
 14 15  2  0
 15 16  1  0
 16 17  2  0
 11 18  1  6
 18 19  1  0
 19 20  2  0
 20 21  1  0
 21 22  2  0
 22 23  1  0
 23 24  2  0
 24 25  1  0
 25 26  2  0
 10  4  1  0
 17 12  1  0
 26 18  1  0
 26 21  1  0
M  END
>  <energy_score>  (5158) 
-10.002704

>  <alias>  (5158) 
GQEDKYBQJNHOPD-UHFFFAOYSA-N-P219-P8-P219-601533

>  <HIPPO Pose ID>  (5158) 
90941

>  <smiles>  (5158) 
O=C(NC1(CO)CCCC1)C(c1ccccc1)n1cnc2ccccc21

>  <inchikey>  (5158) 
GQEDKYBQJNHOPD-UHFFFAOYSA-N

>  <distance_score>  (5158) 
1.35911

>  <ref_mols>  (5158) 
Z0101a,Z3880a

>  <ref_pdb>  (5158) 
Z0101a

>  <HIPPO Compound ID>  (5158) 
147685

>  <name>  (5158) 
GQEDKYBQJNHOPD-UHFFFAOYSA-N-P219-P8-P219-601533

>  <inspiration_score>  (5158) 
None

$$$$
ALFVCPWUWMYQFP-UHFFFAOYSA-N-P8-P8-P219-601533
     RDKit          3D

 26 28  0  0  0  0  0  0  0  0999 V2000
   -1.0067    7.4019  -14.4291 C   0  0  0  0  0  0  0  0  0  0  0  0
   -1.9376    7.7719  -15.5773 C   0  0  0  0  0  0  0  0  0  0  0  0
   -1.8223    6.8115  -16.7788 C   0  0  1  0  0  0  0  0  0  0  0  0
   -3.1604    6.6039  -17.3167 N   0  0  0  0  0  0  0  0  0  0  0  0
   -3.8652    5.3002  -17.8015 C   0  0  0  0  0  0  0  0  0  0  0  0
   -3.5051    4.1880  -17.7694 O   0  0  0  0  0  0  0  0  0  0  0  0
   -5.2587    5.7064  -18.3769 C   0  0  2  0  0  0  0  0  0  0  0  0
   -6.4212    5.0888  -17.5877 C   0  0  0  0  0  0  0  0  0  0  0  0
   -7.6576    4.7512  -18.1605 C   0  0  0  0  0  0  0  0  0  0  0  0
   -8.7108    4.2494  -17.3911 C   0  0  0  0  0  0  0  0  0  0  0  0
   -8.5672    4.1260  -16.0170 C   0  0  0  0  0  0  0  0  0  0  0  0
   -7.3666    4.4734  -15.4134 C   0  0  0  0  0  0  0  0  0  0  0  0
   -6.3081    4.9524  -16.1882 C   0  0  0  0  0  0  0  0  0  0  0  0
   -5.2052    5.4800  -19.8272 N   0  0  0  0  0  0  0  0  0  0  0  0
   -5.5758    4.3564  -20.5030 C   0  0  0  0  0  0  0  0  0  0  0  0
   -5.2130    4.3769  -21.7681 N   0  0  0  0  0  0  0  0  0  0  0  0
   -4.6184    5.5971  -21.9363 C   0  0  0  0  0  0  0  0  0  0  0  0
   -4.0605    6.1633  -23.0913 C   0  0  0  0  0  0  0  0  0  0  0  0
   -3.5124    7.4490  -23.0235 C   0  0  0  0  0  0  0  0  0  0  0  0
   -3.5168    8.1601  -21.8253 C   0  0  0  0  0  0  0  0  0  0  0  0
   -4.0641    7.6117  -20.6601 C   0  0  0  0  0  0  0  0  0  0  0  0
   -4.6104    6.3244  -20.7460 C   0  0  0  0  0  0  0  0  0  0  0  0
   -0.8733    7.3026  -17.9235 C   0  0  0  0  0  0  0  0  0  0  0  0
   -0.7424    6.2455  -19.0322 C   0  0  0  0  0  0  0  0  0  0  0  0
    0.5290    7.6592  -17.4220 C   0  0  0  0  0  0  0  0  0  0  0  0
   -1.4390    8.4965  -18.5017 O   0  0  0  0  0  0  0  0  0  0  0  0
  1  2  1  0
  3  2  1  1
  3  4  1  0
  4  5  1  0
  5  6  2  0
  5  7  1  0
  7  8  1  0
  8  9  2  0
  9 10  1  0
 10 11  2  0
 11 12  1  0
 12 13  2  0
  7 14  1  6
 14 15  1  0
 15 16  2  0
 16 17  1  0
 17 18  2  0
 18 19  1  0
 19 20  2  0
 20 21  1  0
 21 22  2  0
  3 23  1  0
 23 24  1  0
 23 25  1  0
 23 26  1  0
 13  8  1  0
 22 14  1  0
 22 17  1  0
M  END
>  <energy_score>  (5159) 
-10.800076

>  <alias>  (5159) 
ALFVCPWUWMYQFP-UHFFFAOYSA-N-P8-P8-P219-601533

>  <HIPPO Pose ID>  (5159) 
90944

>  <smiles>  (5159) 
CCC(NC(=O)C(c1ccccc1)n1cnc2ccccc21)C(C)(C)O

>  <inchikey>  (5159) 
ALFVCPWUWMYQFP-UHFFFAOYSA-N

>  <distance_score>  (5159) 
1.218348

>  <ref_mols>  (5159) 
Z0101a,Z3880a

>  <ref_pdb>  (5159) 
Z0101a

>  <HIPPO Compound ID>  (5159) 
147687

>  <name>  (5159) 
ALFVCPWUWMYQFP-UHFFFAOYSA-N-P8-P8-P219-601533

>  <inspiration_score>  (5159) 
None

$$$$
OPKBBEMTUJITPX-UHFFFAOYSA-N-P8-P8-P219-601533
     RDKit          3D

 26 29  0  0  0  0  0  0  0  0999 V2000
    1.4455    6.8184  -17.4585 C   0  0  0  0  0  0  0  0  0  0  0  0
    0.3184    7.0572  -16.6251 O   0  0  0  0  0  0  0  0  0  0  0  0
   -0.9045    6.7684  -17.3080 C   0  0  0  0  0  0  0  0  0  0  0  0
   -2.1015    6.9069  -16.3562 C   0  0  0  0  0  0  0  0  0  0  0  0
   -3.3432    6.6558  -17.1067 N   0  0  0  0  0  0  0  0  0  0  0  0
   -3.8757    5.3459  -17.7814 C   0  0  0  0  0  0  0  0  0  0  0  0
   -3.3695    4.2970  -17.9050 O   0  0  0  0  0  0  0  0  0  0  0  0
   -5.2765    5.6750  -18.3804 C   0  0  2  0  0  0  0  0  0  0  0  0
   -6.4246    5.0416  -17.5888 C   0  0  0  0  0  0  0  0  0  0  0  0
   -7.6750    4.7473  -18.1557 C   0  0  0  0  0  0  0  0  0  0  0  0
   -8.7325    4.2523  -17.3885 C   0  0  0  0  0  0  0  0  0  0  0  0
   -8.5795    4.0968  -16.0194 C   0  0  0  0  0  0  0  0  0  0  0  0
   -7.3636    4.3958  -15.4209 C   0  0  0  0  0  0  0  0  0  0  0  0
   -6.2993    4.8629  -16.1954 C   0  0  0  0  0  0  0  0  0  0  0  0
   -5.1931    5.4270  -19.8269 N   0  0  0  0  0  0  0  0  0  0  0  0
   -5.6162    4.3341  -20.5195 C   0  0  0  0  0  0  0  0  0  0  0  0
   -5.2341    4.3504  -21.7794 N   0  0  0  0  0  0  0  0  0  0  0  0
   -4.5600    5.5314  -21.9239 C   0  0  0  0  0  0  0  0  0  0  0  0
   -3.9493    6.0762  -23.0619 C   0  0  0  0  0  0  0  0  0  0  0  0
   -3.3110    7.3177  -22.9633 C   0  0  0  0  0  0  0  0  0  0  0  0
   -3.2782    8.0060  -21.7517 C   0  0  0  0  0  0  0  0  0  0  0  0
   -3.8808    7.4798  -20.6038 C   0  0  0  0  0  0  0  0  0  0  0  0
   -4.5200    6.2384  -20.7232 C   0  0  0  0  0  0  0  0  0  0  0  0
   -2.0441    6.1198  -15.0160 C   0  0  0  0  0  0  0  0  0  0  0  0
   -1.6200    7.4193  -14.3090 C   0  0  0  0  0  0  0  0  0  0  0  0
   -2.1795    8.2089  -15.5056 C   0  0  0  0  0  0  0  0  0  0  0  0
  1  2  1  0
  2  3  1  0
  3  4  1  0
  4  5  1  0
  5  6  1  0
  6  7  2  0
  6  8  1  0
  8  9  1  0
  9 10  2  0
 10 11  1  0
 11 12  2  0
 12 13  1  0
 13 14  2  0
  8 15  1  6
 15 16  1  0
 16 17  2  0
 17 18  1  0
 18 19  2  0
 19 20  1  0
 20 21  2  0
 21 22  1  0
 22 23  2  0
  4 24  1  0
 24 25  1  0
 25 26  1  0
 26  4  1  0
 14  9  1  0
 23 15  1  0
 23 18  1  0
M  END
>  <energy_score>  (5160) 
-10.914347

>  <alias>  (5160) 
OPKBBEMTUJITPX-UHFFFAOYSA-N-P8-P8-P219-601533

>  <HIPPO Pose ID>  (5160) 
90950

>  <smiles>  (5160) 
COCC1(NC(=O)C(c2ccccc2)n2cnc3ccccc32)CCC1

>  <inchikey>  (5160) 
OPKBBEMTUJITPX-UHFFFAOYSA-N

>  <distance_score>  (5160) 
0.840023

>  <ref_mols>  (5160) 
Z0101a,Z3880a

>  <ref_pdb>  (5160) 
Z0101a

>  <HIPPO Compound ID>  (5160) 
147690

>  <name>  (5160) 
OPKBBEMTUJITPX-UHFFFAOYSA-N-P8-P8-P219-601533

>  <inspiration_score>  (5160) 
None

$$$$
SJXWVLWJWAIIBO-UHFFFAOYSA-N-P8-P8-P219-601533
     RDKit          3D

 26 28  0  0  0  0  0  0  0  0999 V2000
    1.4834    9.6920  -16.9238 C   0  0  0  0  0  0  0  0  0  0  0  0
    0.2764    8.9560  -17.0757 O   0  0  0  0  0  0  0  0  0  0  0  0
    0.4463    7.5891  -16.7052 C   0  0  0  0  0  0  0  0  0  0  0  0
   -0.8778    6.8497  -16.8558 C   0  0  0  0  0  0  0  0  0  0  0  0
   -1.5355    7.0128  -18.2312 C   0  0  1  0  0  0  0  0  0  0  0  0
   -0.6192    6.6773  -19.4237 C   0  0  0  0  0  0  0  0  0  0  0  0
   -0.1435    5.3374  -19.3153 O   0  0  0  0  0  0  0  0  0  0  0  0
   -2.7255    6.1767  -18.3109 N   0  0  0  0  0  0  0  0  0  0  0  0
   -4.2073    6.4782  -17.9082 C   0  0  0  0  0  0  0  0  0  0  0  0
   -4.6749    7.4152  -17.3816 O   0  0  0  0  0  0  0  0  0  0  0  0
   -5.0571    5.2950  -18.4479 C   0  0  1  0  0  0  0  0  0  0  0  0
   -6.3234    5.0087  -17.6273 C   0  0  0  0  0  0  0  0  0  0  0  0
   -7.5793    4.7134  -18.1788 C   0  0  0  0  0  0  0  0  0  0  0  0
   -8.6523    4.3026  -17.3801 C   0  0  0  0  0  0  0  0  0  0  0  0
   -8.5046    4.2186  -16.0025 C   0  0  0  0  0  0  0  0  0  0  0  0
   -7.2802    4.5217  -15.4227 C   0  0  0  0  0  0  0  0  0  0  0  0
   -6.2007    4.8997  -16.2257 C   0  0  0  0  0  0  0  0  0  0  0  0
   -5.2095    5.3716  -19.9190 N   0  0  0  0  0  0  0  0  0  0  0  0
   -5.5950    4.2956  -20.6763 C   0  0  0  0  0  0  0  0  0  0  0  0
   -5.2192    4.3836  -21.9310 N   0  0  0  0  0  0  0  0  0  0  0  0
   -4.7162    5.6488  -22.0414 C   0  0  0  0  0  0  0  0  0  0  0  0
   -4.2324    6.3045  -23.1836 C   0  0  0  0  0  0  0  0  0  0  0  0
   -3.8056    7.6314  -23.0812 C   0  0  0  0  0  0  0  0  0  0  0  0
   -3.8653    8.2982  -21.8619 C   0  0  0  0  0  0  0  0  0  0  0  0
   -4.3353    7.6583  -20.7091 C   0  0  0  0  0  0  0  0  0  0  0  0
   -4.7416    6.3187  -20.8136 C   0  0  0  0  0  0  0  0  0  0  0  0
  1  2  1  0
  2  3  1  0
  3  4  1  0
  5  4  1  1
  5  6  1  0
  6  7  1  0
  5  8  1  0
  8  9  1  0
  9 10  2  0
  9 11  1  0
 11 12  1  0
 12 13  2  0
 13 14  1  0
 14 15  2  0
 15 16  1  0
 16 17  2  0
 11 18  1  6
 18 19  1  0
 19 20  2  0
 20 21  1  0
 21 22  2  0
 22 23  1  0
 23 24  2  0
 24 25  1  0
 25 26  2  0
 17 12  1  0
 26 18  1  0
 26 21  1  0
M  END
>  <energy_score>  (5161) 
-5.726351

>  <alias>  (5161) 
SJXWVLWJWAIIBO-UHFFFAOYSA-N-P8-P8-P219-601533

>  <HIPPO Pose ID>  (5161) 
90952

>  <smiles>  (5161) 
COCCC(CO)NC(=O)C(c1ccccc1)n1cnc2ccccc21

>  <inchikey>  (5161) 
SJXWVLWJWAIIBO-UHFFFAOYSA-N

>  <distance_score>  (5161) 
0.934577

>  <ref_mols>  (5161) 
Z0101a,Z3880a

>  <ref_pdb>  (5161) 
Z0101a

>  <HIPPO Compound ID>  (5161) 
147691

>  <name>  (5161) 
SJXWVLWJWAIIBO-UHFFFAOYSA-N-P8-P8-P219-601533

>  <inspiration_score>  (5161) 
None

$$$$
KFWPRHRLOCURLU-UHFFFAOYSA-N-P8-P8-P219-601533
     RDKit          3D

 26 28  0  0  0  0  0  0  0  0999 V2000
   -5.3664    7.8063  -11.9142 C   0  0  0  0  0  0  0  0  0  0  0  0
   -5.0403    8.7541  -13.0232 C   0  0  0  0  0  0  0  0  0  0  0  0
   -5.1740    8.4505  -14.3235 C   0  0  0  0  0  0  0  0  0  0  0  0
   -4.8574    9.3953  -15.4511 C   0  0  0  0  0  0  0  0  0  0  0  0
   -3.7900    8.9058  -16.4527 C   0  0  1  0  0  0  0  0  0  0  0  0
   -2.3898    8.7708  -15.8278 C   0  0  0  0  0  0  0  0  0  0  0  0
   -2.2713    7.5389  -15.1129 O   0  0  0  0  0  0  0  0  0  0  0  0
   -4.1626    7.6554  -17.0878 N   0  0  0  0  0  0  0  0  0  0  0  0
   -5.2756    7.3443  -18.1421 C   0  0  0  0  0  0  0  0  0  0  0  0
   -6.0048    8.0649  -18.7110 O   0  0  0  0  0  0  0  0  0  0  0  0
   -5.2284    5.7970  -18.3875 C   0  0  1  0  0  0  0  0  0  0  0  0
   -6.3471    5.1259  -17.5892 C   0  0  0  0  0  0  0  0  0  0  0  0
   -7.6308    4.8811  -18.0959 C   0  0  0  0  0  0  0  0  0  0  0  0
   -8.6364    4.3265  -17.2999 C   0  0  0  0  0  0  0  0  0  0  0  0
   -8.3950    4.0730  -15.9576 C   0  0  0  0  0  0  0  0  0  0  0  0
   -7.1355    4.3149  -15.4232 C   0  0  0  0  0  0  0  0  0  0  0  0
   -6.1182    4.8245  -16.2326 C   0  0  0  0  0  0  0  0  0  0  0  0
   -5.1016    5.4703  -19.8239 N   0  0  0  0  0  0  0  0  0  0  0  0
   -5.6326    4.3917  -20.4761 C   0  0  0  0  0  0  0  0  0  0  0  0
   -5.2093    4.2830  -21.7188 N   0  0  0  0  0  0  0  0  0  0  0  0
   -4.3421    5.3259  -21.8826 C   0  0  0  0  0  0  0  0  0  0  0  0
   -3.5928    5.6866  -23.0120 C   0  0  0  0  0  0  0  0  0  0  0  0
   -2.7310    6.7850  -22.9414 C   0  0  0  0  0  0  0  0  0  0  0  0
   -2.6134    7.5130  -21.7620 C   0  0  0  0  0  0  0  0  0  0  0  0
   -3.3538    7.1716  -20.6246 C   0  0  0  0  0  0  0  0  0  0  0  0
   -4.2250    6.0752  -20.7125 C   0  0  0  0  0  0  0  0  0  0  0  0
  1  2  1  0
  2  3  2  3
  3  4  1  0
  5  4  1  1
  5  6  1  0
  6  7  1  0
  5  8  1  0
  8  9  1  0
  9 10  2  0
  9 11  1  0
 11 12  1  0
 12 13  2  0
 13 14  1  0
 14 15  2  0
 15 16  1  0
 16 17  2  0
 11 18  1  6
 18 19  1  0
 19 20  2  0
 20 21  1  0
 21 22  2  0
 22 23  1  0
 23 24  2  0
 24 25  1  0
 25 26  2  0
 17 12  1  0
 26 18  1  0
 26 21  1  0
M  END
>  <energy_score>  (5162) 
-21.185739

>  <alias>  (5162) 
KFWPRHRLOCURLU-UHFFFAOYSA-N-P8-P8-P219-601533

>  <HIPPO Pose ID>  (5162) 
90958

>  <smiles>  (5162) 
CC=CCC(CO)NC(=O)C(c1ccccc1)n1cnc2ccccc21

>  <inchikey>  (5162) 
KFWPRHRLOCURLU-UHFFFAOYSA-N

>  <distance_score>  (5162) 
1.030169

>  <ref_mols>  (5162) 
Z0101a,Z3880a

>  <ref_pdb>  (5162) 
Z0101a

>  <HIPPO Compound ID>  (5162) 
147694

>  <name>  (5162) 
KFWPRHRLOCURLU-UHFFFAOYSA-N-P8-P8-P219-601533

>  <inspiration_score>  (5162) 
None

$$$$
HVAYFXSTEUWKID-UHFFFAOYSA-N-P8-P8-P219-601533
     RDKit          3D

 26 28  0  0  0  0  0  0  0  0999 V2000
    0.1990    7.4902  -15.9648 C   0  0  0  0  0  0  0  0  0  0  0  0
   -1.0692    7.4442  -16.8427 C   0  0  0  0  0  0  0  0  0  0  0  0
   -0.6955    6.7054  -18.1483 C   0  0  0  0  0  0  0  0  0  0  0  0
   -1.4606    8.8885  -17.2041 C   0  0  0  0  0  0  0  0  0  0  0  0
   -2.2116    6.6697  -16.0996 C   0  0  1  0  0  0  0  0  0  0  0  0
   -2.6661    7.2593  -14.7483 C   0  0  0  0  0  0  0  0  0  0  0  0
   -3.4319    8.4518  -14.9373 O   0  0  0  0  0  0  0  0  0  0  0  0
   -3.3871    6.5087  -16.9383 N   0  0  0  0  0  0  0  0  0  0  0  0
   -3.8872    5.2768  -17.7556 C   0  0  0  0  0  0  0  0  0  0  0  0
   -3.3876    4.2347  -17.9367 O   0  0  0  0  0  0  0  0  0  0  0  0
   -5.2735    5.6537  -18.3632 C   0  0  2  0  0  0  0  0  0  0  0  0
   -6.4411    5.0308  -17.5853 C   0  0  0  0  0  0  0  0  0  0  0  0
   -7.6852    4.7387  -18.1663 C   0  0  0  0  0  0  0  0  0  0  0  0
   -8.7534    4.2476  -17.4112 C   0  0  0  0  0  0  0  0  0  0  0  0
   -8.6178    4.0936  -16.0398 C   0  0  0  0  0  0  0  0  0  0  0  0
   -7.4091    4.3912  -15.4267 C   0  0  0  0  0  0  0  0  0  0  0  0
   -6.3351    4.8550  -16.1895 C   0  0  0  0  0  0  0  0  0  0  0  0
   -5.1958    5.4230  -19.8133 N   0  0  0  0  0  0  0  0  0  0  0  0
   -5.6144    4.3327  -20.5139 C   0  0  0  0  0  0  0  0  0  0  0  0
   -5.2514    4.3661  -21.7794 N   0  0  0  0  0  0  0  0  0  0  0  0
   -4.5952    5.5590  -21.9180 C   0  0  0  0  0  0  0  0  0  0  0  0
   -4.0111    6.1280  -23.0586 C   0  0  0  0  0  0  0  0  0  0  0  0
   -3.3908    7.3784  -22.9535 C   0  0  0  0  0  0  0  0  0  0  0  0
   -3.3503    8.0519  -21.7337 C   0  0  0  0  0  0  0  0  0  0  0  0
   -3.9283    7.5025  -20.5843 C   0  0  0  0  0  0  0  0  0  0  0  0
   -4.5481    6.2527  -20.7096 C   0  0  0  0  0  0  0  0  0  0  0  0
  1  2  1  0
  2  3  1  0
  2  4  1  0
  2  5  1  0
  5  6  1  1
  6  7  1  0
  5  8  1  0
  8  9  1  0
  9 10  2  0
  9 11  1  0
 11 12  1  0
 12 13  2  0
 13 14  1  0
 14 15  2  0
 15 16  1  0
 16 17  2  0
 11 18  1  6
 18 19  1  0
 19 20  2  0
 20 21  1  0
 21 22  2  0
 22 23  1  0
 23 24  2  0
 24 25  1  0
 25 26  2  0
 17 12  1  0
 26 18  1  0
 26 21  1  0
M  END
>  <energy_score>  (5163) 
-29.675606

>  <alias>  (5163) 
HVAYFXSTEUWKID-UHFFFAOYSA-N-P8-P8-P219-601533

>  <HIPPO Pose ID>  (5163) 
90964

>  <smiles>  (5163) 
CC(C)(C)C(CO)NC(=O)C(c1ccccc1)n1cnc2ccccc21

>  <inchikey>  (5163) 
HVAYFXSTEUWKID-UHFFFAOYSA-N

>  <distance_score>  (5163) 
0.835992

>  <ref_mols>  (5163) 
Z0101a,Z3880a

>  <ref_pdb>  (5163) 
Z0101a

>  <HIPPO Compound ID>  (5163) 
147697

>  <name>  (5163) 
HVAYFXSTEUWKID-UHFFFAOYSA-N-P8-P8-P219-601533

>  <inspiration_score>  (5163) 
None

$$$$
XRXJIHRWOQHVBY-UHFFFAOYSA-N-P8-P8-P219-601533
     RDKit          3D

 26 29  0  0  0  0  0  0  0  0999 V2000
    0.3410    6.6174  -15.2790 C   0  0  0  0  0  0  0  0  0  0  0  0
   -0.9480    7.4079  -15.4613 C   0  0  2  0  0  0  0  0  0  0  0  0
   -2.1414    6.5440  -15.8133 C   0  0  0  0  0  0  0  0  0  0  0  0
   -2.0499    6.4584  -17.3185 C   0  0  1  0  0  0  0  0  0  0  0  0
   -3.3093    6.1854  -17.9616 N   0  0  0  0  0  0  0  0  0  0  0  0
   -4.6524    6.9716  -17.9284 C   0  0  0  0  0  0  0  0  0  0  0  0
   -4.9169    8.0011  -17.4359 O   0  0  0  0  0  0  0  0  0  0  0  0
   -5.7494    6.1690  -18.6866 C   0  0  2  0  0  0  0  0  0  0  0  0
   -6.5748    5.2748  -17.7537 C   0  0  0  0  0  0  0  0  0  0  0  0
   -7.8325    4.7951  -18.1677 C   0  0  0  0  0  0  0  0  0  0  0  0
   -8.7048    4.1659  -17.2794 C   0  0  0  0  0  0  0  0  0  0  0  0
   -8.3365    4.0076  -15.9518 C   0  0  0  0  0  0  0  0  0  0  0  0
   -7.0798    4.4190  -15.5256 C   0  0  0  0  0  0  0  0  0  0  0  0
   -6.2021    5.0377  -16.4186 C   0  0  0  0  0  0  0  0  0  0  0  0
   -5.2843    5.5878  -19.9544 N   0  0  0  0  0  0  0  0  0  0  0  0
   -5.6084    4.3700  -20.4735 C   0  0  0  0  0  0  0  0  0  0  0  0
   -5.0672    4.1654  -21.6563 N   0  0  0  0  0  0  0  0  0  0  0  0
   -4.3924    5.3195  -21.9409 C   0  0  0  0  0  0  0  0  0  0  0  0
   -3.6308    5.6521  -23.0696 C   0  0  0  0  0  0  0  0  0  0  0  0
   -3.0508    6.9218  -23.1518 C   0  0  0  0  0  0  0  0  0  0  0  0
   -3.2297    7.8475  -22.1275 C   0  0  0  0  0  0  0  0  0  0  0  0
   -3.9810    7.5333  -20.9899 C   0  0  0  0  0  0  0  0  0  0  0  0
   -4.5386    6.2494  -20.9147 C   0  0  0  0  0  0  0  0  0  0  0  0
   -1.4412    7.8102  -17.6669 C   0  0  0  0  0  0  0  0  0  0  0  0
   -1.4689    8.3723  -18.7501 O   0  0  0  0  0  0  0  0  0  0  0  0
   -0.7974    8.3108  -16.5639 O   0  0  0  0  0  0  0  0  0  0  0  0
  2  1  1  6
  2  3  1  0
  3  4  1  0
  4  5  1  6
  5  6  1  0
  6  7  2  0
  6  8  1  0
  8  9  1  0
  9 10  2  0
 10 11  1  0
 11 12  2  0
 12 13  1  0
 13 14  2  0
  8 15  1  6
 15 16  1  0
 16 17  2  0
 17 18  1  0
 18 19  2  0
 19 20  1  0
 20 21  2  0
 21 22  1  0
 22 23  2  0
  4 24  1  0
 24 25  2  0
 24 26  1  0
 26  2  1  0
 14  9  1  0
 23 15  1  0
 23 18  1  0
M  END
>  <energy_score>  (5164) 
-3.425158

>  <alias>  (5164) 
XRXJIHRWOQHVBY-UHFFFAOYSA-N-P8-P8-P219-601533

>  <HIPPO Pose ID>  (5164) 
90966

>  <smiles>  (5164) 
CC1CC(NC(=O)C(c2ccccc2)n2cnc3ccccc32)C(=O)O1

>  <inchikey>  (5164) 
XRXJIHRWOQHVBY-UHFFFAOYSA-N

>  <distance_score>  (5164) 
1.07182

>  <ref_mols>  (5164) 
Z0101a,Z3880a

>  <ref_pdb>  (5164) 
Z0101a

>  <HIPPO Compound ID>  (5164) 
147698

>  <name>  (5164) 
XRXJIHRWOQHVBY-UHFFFAOYSA-N-P8-P8-P219-601533

>  <inspiration_score>  (5164) 
None

$$$$
XIOQBYYDZSJZOK-UHFFFAOYSA-N-P8-P8-P219-601533
     RDKit          3D

 26 28  0  0  0  0  0  0  0  0999 V2000
   -2.8501   10.3502  -14.3851 C   0  0  0  0  0  0  0  0  0  0  0  0
   -2.3550    9.5586  -15.4569 O   0  0  0  0  0  0  0  0  0  0  0  0
   -3.3651    8.7100  -15.9965 C   0  0  0  0  0  0  0  0  0  0  0  0
   -2.8097    7.8450  -17.1505 C   0  0  2  0  0  0  0  0  0  0  0  0
   -3.8756    7.0449  -17.7473 N   0  0  0  0  0  0  0  0  0  0  0  0
   -5.2749    7.4669  -18.2913 C   0  0  0  0  0  0  0  0  0  0  0  0
   -5.8152    8.5082  -18.2722 O   0  0  0  0  0  0  0  0  0  0  0  0
   -5.9790    6.2319  -18.8918 C   0  0  2  0  0  0  0  0  0  0  0  0
   -6.6617    5.3379  -17.8477 C   0  0  0  0  0  0  0  0  0  0  0  0
   -7.9039    4.7480  -18.1656 C   0  0  0  0  0  0  0  0  0  0  0  0
   -8.6824    4.1130  -17.1985 C   0  0  0  0  0  0  0  0  0  0  0  0
   -8.2236    4.0316  -15.8920 C   0  0  0  0  0  0  0  0  0  0  0  0
   -6.9725    4.5413  -15.5649 C   0  0  0  0  0  0  0  0  0  0  0  0
   -6.1943    5.1838  -16.5331 C   0  0  0  0  0  0  0  0  0  0  0  0
   -5.2480    5.5682  -19.9844 N   0  0  0  0  0  0  0  0  0  0  0  0
   -5.5977    4.3516  -20.5053 C   0  0  0  0  0  0  0  0  0  0  0  0
   -4.9918    4.0908  -21.6420 N   0  0  0  0  0  0  0  0  0  0  0  0
   -4.2322    5.1941  -21.8970 C   0  0  0  0  0  0  0  0  0  0  0  0
   -3.3950    5.4497  -22.9922 C   0  0  0  0  0  0  0  0  0  0  0  0
   -2.7488    6.6840  -23.0859 C   0  0  0  0  0  0  0  0  0  0  0  0
   -2.9453    7.6545  -22.1096 C   0  0  0  0  0  0  0  0  0  0  0  0
   -3.7736    7.4161  -21.0059 C   0  0  0  0  0  0  0  0  0  0  0  0
   -4.3921    6.1597  -20.9020 C   0  0  0  0  0  0  0  0  0  0  0  0
   -1.5992    6.9416  -16.7918 C   0  0  0  0  0  0  0  0  0  0  0  0
   -0.2801    7.7176  -16.7344 C   0  0  0  0  0  0  0  0  0  0  0  0
   -1.7986    6.1540  -15.4944 C   0  0  0  0  0  0  0  0  0  0  0  0
  1  2  1  0
  2  3  1  0
  4  3  1  1
  4  5  1  0
  5  6  1  0
  6  7  2  0
  6  8  1  0
  8  9  1  0
  9 10  2  0
 10 11  1  0
 11 12  2  0
 12 13  1  0
 13 14  2  0
  8 15  1  1
 15 16  1  0
 16 17  2  0
 17 18  1  0
 18 19  2  0
 19 20  1  0
 20 21  2  0
 21 22  1  0
 22 23  2  0
  4 24  1  0
 24 25  1  0
 24 26  1  0
 14  9  1  0
 23 15  1  0
 23 18  1  0
M  END
>  <energy_score>  (5165) 
-9.681835

>  <alias>  (5165) 
XIOQBYYDZSJZOK-UHFFFAOYSA-N-P8-P8-P219-601533

>  <HIPPO Pose ID>  (5165) 
90970

>  <smiles>  (5165) 
COCC(NC(=O)C(c1ccccc1)n1cnc2ccccc21)C(C)C

>  <inchikey>  (5165) 
XIOQBYYDZSJZOK-UHFFFAOYSA-N

>  <distance_score>  (5165) 
1.152159

>  <ref_mols>  (5165) 
Z0101a,Z3880a

>  <ref_pdb>  (5165) 
Z0101a

>  <HIPPO Compound ID>  (5165) 
147700

>  <name>  (5165) 
XIOQBYYDZSJZOK-UHFFFAOYSA-N-P8-P8-P219-601533

>  <inspiration_score>  (5165) 
None

$$$$
RTMUABWDYJJDKJ-UHFFFAOYSA-N-P8-P8-P219-601533
     RDKit          3D

 26 28  0  0  0  0  0  0  0  0999 V2000
   -0.8537    6.1375  -18.9229 C   0  0  0  0  0  0  0  0  0  0  0  0
   -1.3667    7.4192  -18.2771 C   0  0  0  0  0  0  0  0  0  0  0  0
   -2.4283    7.1974  -17.1938 C   0  0  1  0  0  0  0  0  0  0  0  0
   -3.6391    6.6150  -17.7490 N   0  0  0  0  0  0  0  0  0  0  0  0
   -4.9901    7.2779  -18.1430 C   0  0  0  0  0  0  0  0  0  0  0  0
   -5.3619    8.3811  -18.0090 O   0  0  0  0  0  0  0  0  0  0  0  0
   -5.8979    6.2175  -18.8111 C   0  0  2  0  0  0  0  0  0  0  0  0
   -6.6365    5.3166  -17.8164 C   0  0  0  0  0  0  0  0  0  0  0  0
   -7.8863    4.7712  -18.1760 C   0  0  0  0  0  0  0  0  0  0  0  0
   -8.7028    4.1327  -17.2427 C   0  0  0  0  0  0  0  0  0  0  0  0
   -8.2780    4.0122  -15.9279 C   0  0  0  0  0  0  0  0  0  0  0  0
   -7.0219    4.4781  -15.5600 C   0  0  0  0  0  0  0  0  0  0  0  0
   -6.2042    5.1180  -16.4950 C   0  0  0  0  0  0  0  0  0  0  0  0
   -5.2833    5.5843  -19.9888 N   0  0  0  0  0  0  0  0  0  0  0  0
   -5.5952    4.3521  -20.4859 C   0  0  0  0  0  0  0  0  0  0  0  0
   -5.0145    4.1106  -21.6420 N   0  0  0  0  0  0  0  0  0  0  0  0
   -4.3214    5.2494  -21.9336 C   0  0  0  0  0  0  0  0  0  0  0  0
   -3.5239    5.5396  -23.0493 C   0  0  0  0  0  0  0  0  0  0  0  0
   -2.9593    6.8116  -23.1744 C   0  0  0  0  0  0  0  0  0  0  0  0
   -3.1952    7.7841  -22.2078 C   0  0  0  0  0  0  0  0  0  0  0  0
   -3.9779    7.5095  -21.0802 C   0  0  0  0  0  0  0  0  0  0  0  0
   -4.5087    6.2173  -20.9487 C   0  0  0  0  0  0  0  0  0  0  0  0
   -1.9323    6.3646  -16.0053 C   0  0  0  0  0  0  0  0  0  0  0  0
   -2.5181    5.3906  -15.5466 O   0  0  0  0  0  0  0  0  0  0  0  0
   -0.7751    6.8816  -15.5025 O   0  0  0  0  0  0  0  0  0  0  0  0
   -0.2536    6.1604  -14.3852 C   0  0  0  0  0  0  0  0  0  0  0  0
  1  2  1  0
  3  2  1  6
  3  4  1  0
  4  5  1  0
  5  6  2  0
  5  7  1  0
  7  8  1  0
  8  9  2  0
  9 10  1  0
 10 11  2  0
 11 12  1  0
 12 13  2  0
  7 14  1  6
 14 15  1  0
 15 16  2  0
 16 17  1  0
 17 18  2  0
 18 19  1  0
 19 20  2  0
 20 21  1  0
 21 22  2  0
  3 23  1  0
 23 24  2  0
 23 25  1  0
 25 26  1  0
 13  8  1  0
 22 14  1  0
 22 17  1  0
M  END
>  <energy_score>  (5166) 
-7.390695

>  <alias>  (5166) 
RTMUABWDYJJDKJ-UHFFFAOYSA-N-P8-P8-P219-601533

>  <HIPPO Pose ID>  (5166) 
90974

>  <smiles>  (5166) 
CCC(NC(=O)C(c1ccccc1)n1cnc2ccccc21)C(=O)OC

>  <inchikey>  (5166) 
RTMUABWDYJJDKJ-UHFFFAOYSA-N

>  <distance_score>  (5166) 
1.09082

>  <ref_mols>  (5166) 
Z0101a,Z3880a

>  <ref_pdb>  (5166) 
Z0101a

>  <HIPPO Compound ID>  (5166) 
147702

>  <name>  (5166) 
RTMUABWDYJJDKJ-UHFFFAOYSA-N-P8-P8-P219-601533

>  <inspiration_score>  (5166) 
None

$$$$
UDQZCTNLXWRQJP-UHFFFAOYSA-N-P219-P8-P219-601533
     RDKit          3D

 26 28  0  0  0  0  0  0  0  0999 V2000
   -4.9789   11.2303  -17.4360 C   0  0  0  0  0  0  0  0  0  0  0  0
   -4.4379    9.9249  -17.2864 O   0  0  0  0  0  0  0  0  0  0  0  0
   -4.3917    9.5211  -15.9155 C   0  0  0  0  0  0  0  0  0  0  0  0
   -3.6810    8.1556  -15.7973 C   0  0  1  0  0  0  0  0  0  0  0  0
   -3.7305    7.6887  -14.3358 C   0  0  0  0  0  0  0  0  0  0  0  0
   -2.7967    6.5296  -14.0155 C   0  0  0  0  0  0  0  0  0  0  0  0
   -2.7595    6.3421  -12.6035 O   0  0  0  0  0  0  0  0  0  0  0  0
   -4.2807    7.2017  -16.7171 N   0  0  0  0  0  0  0  0  0  0  0  0
   -3.7926    5.7940  -17.1760 C   0  0  0  0  0  0  0  0  0  0  0  0
   -2.7965    5.2229  -16.9425 O   0  0  0  0  0  0  0  0  0  0  0  0
   -4.8639    5.1867  -18.1174 C   0  0  1  0  0  0  0  0  0  0  0  0
   -6.2181    4.8801  -17.4581 C   0  0  0  0  0  0  0  0  0  0  0  0
   -7.2788    4.3554  -18.2236 C   0  0  0  0  0  0  0  0  0  0  0  0
   -8.5150    4.0581  -17.6487 C   0  0  0  0  0  0  0  0  0  0  0  0
   -8.7052    4.2277  -16.2842 C   0  0  0  0  0  0  0  0  0  0  0  0
   -7.6613    4.6905  -15.4932 C   0  0  0  0  0  0  0  0  0  0  0  0
   -6.4301    5.0085  -16.0732 C   0  0  0  0  0  0  0  0  0  0  0  0
   -4.9225    5.9622  -19.3652 N   0  0  0  0  0  0  0  0  0  0  0  0
   -5.9906    6.6703  -19.8253 C   0  0  0  0  0  0  0  0  0  0  0  0
   -5.7501    7.2447  -20.9799 N   0  0  0  0  0  0  0  0  0  0  0  0
   -4.4845    6.8610  -21.3125 C   0  0  0  0  0  0  0  0  0  0  0  0
   -3.7538    7.1500  -22.4729 C   0  0  0  0  0  0  0  0  0  0  0  0
   -2.4056    6.7919  -22.5201 C   0  0  0  0  0  0  0  0  0  0  0  0
   -1.8109    6.1402  -21.4407 C   0  0  0  0  0  0  0  0  0  0  0  0
   -2.5506    5.7687  -20.3082 C   0  0  0  0  0  0  0  0  0  0  0  0
   -3.8984    6.1361  -20.2770 C   0  0  0  0  0  0  0  0  0  0  0  0
  1  2  1  0
  2  3  1  0
  4  3  1  1
  4  5  1  0
  5  6  1  0
  6  7  1  0
  4  8  1  0
  8  9  1  0
  9 10  2  0
  9 11  1  0
 11 12  1  0
 12 13  2  0
 13 14  1  0
 14 15  2  0
 15 16  1  0
 16 17  2  0
 11 18  1  6
 18 19  1  0
 19 20  2  0
 20 21  1  0
 21 22  2  0
 22 23  1  0
 23 24  2  0
 24 25  1  0
 25 26  2  0
 17 12  1  0
 26 18  1  0
 26 21  1  0
M  END
>  <energy_score>  (5167) 
-8.412204

>  <alias>  (5167) 
UDQZCTNLXWRQJP-UHFFFAOYSA-N-P219-P8-P219-601533

>  <HIPPO Pose ID>  (5167) 
90977

>  <smiles>  (5167) 
COCC(CCO)NC(=O)C(c1ccccc1)n1cnc2ccccc21

>  <inchikey>  (5167) 
UDQZCTNLXWRQJP-UHFFFAOYSA-N

>  <distance_score>  (5167) 
1.245183

>  <ref_mols>  (5167) 
Z0101a,Z3880a

>  <ref_pdb>  (5167) 
Z0101a

>  <HIPPO Compound ID>  (5167) 
147703

>  <name>  (5167) 
UDQZCTNLXWRQJP-UHFFFAOYSA-N-P219-P8-P219-601533

>  <inspiration_score>  (5167) 
None

$$$$
LJQGHZKELSVOKR-UHFFFAOYSA-N-P8-P8-P219-601533
     RDKit          3D

 26 29  0  0  0  0  0  0  0  0999 V2000
   -1.4062   10.6982  -16.7794 C   0  0  0  0  0  0  0  0  0  0  0  0
   -2.7049   10.1771  -16.5250 O   0  0  0  0  0  0  0  0  0  0  0  0
   -2.6388    8.8186  -16.0723 C   0  0  0  0  0  0  0  0  0  0  0  0
   -4.0833    8.2975  -15.8546 C   0  0  0  0  0  0  0  0  0  0  0  0
   -4.5986    7.1806  -16.8167 N   0  0  0  0  0  0  0  0  0  0  0  0
   -4.8563    8.4322  -17.7021 C   0  0  0  0  0  0  0  0  0  0  0  0
   -3.8332    6.0988  -17.5918 C   0  0  0  0  0  0  0  0  0  0  0  0
   -2.6694    5.9144  -17.7001 O   0  0  0  0  0  0  0  0  0  0  0  0
   -4.8384    5.1225  -18.2627 C   0  0  1  0  0  0  0  0  0  0  0  0
   -6.1555    4.8906  -17.4892 C   0  0  0  0  0  0  0  0  0  0  0  0
   -7.4306    4.8439  -18.0699 C   0  0  0  0  0  0  0  0  0  0  0  0
   -8.5529    4.4331  -17.3400 C   0  0  0  0  0  0  0  0  0  0  0  0
   -8.4468    4.1640  -15.9836 C   0  0  0  0  0  0  0  0  0  0  0  0
   -7.2080    4.2483  -15.3651 C   0  0  0  0  0  0  0  0  0  0  0  0
   -6.0751    4.5810  -16.1134 C   0  0  0  0  0  0  0  0  0  0  0  0
   -4.9193    5.2358  -19.7449 N   0  0  0  0  0  0  0  0  0  0  0  0
   -5.5993    4.3222  -20.5187 C   0  0  0  0  0  0  0  0  0  0  0  0
   -5.3782    4.4517  -21.8051 N   0  0  0  0  0  0  0  0  0  0  0  0
   -4.5652    5.5394  -21.8994 C   0  0  0  0  0  0  0  0  0  0  0  0
   -4.0735    6.1548  -23.0614 C   0  0  0  0  0  0  0  0  0  0  0  0
   -3.2010    7.2375  -22.9472 C   0  0  0  0  0  0  0  0  0  0  0  0
   -2.8141    7.6900  -21.6928 C   0  0  0  0  0  0  0  0  0  0  0  0
   -3.3079    7.0970  -20.5236 C   0  0  0  0  0  0  0  0  0  0  0  0
   -4.2160    6.0330  -20.6356 C   0  0  0  0  0  0  0  0  0  0  0  0
   -5.0110    9.0773  -14.9140 C   0  0  0  0  0  0  0  0  0  0  0  0
   -4.3338    7.8685  -14.3902 C   0  0  0  0  0  0  0  0  0  0  0  0
  1  2  1  0
  2  3  1  0
  3  4  1  0
  4  5  1  0
  5  6  1  0
  5  7  1  0
  7  8  2  0
  7  9  1  0
  9 10  1  0
 10 11  2  0
 11 12  1  0
 12 13  2  0
 13 14  1  0
 14 15  2  0
  9 16  1  6
 16 17  1  0
 17 18  2  0
 18 19  1  0
 19 20  2  0
 20 21  1  0
 21 22  2  0
 22 23  1  0
 23 24  2  0
  4 25  1  0
 25 26  1  0
 26  4  1  0
 15 10  1  0
 24 16  1  0
 24 19  1  0
M  END
>  <energy_score>  (5168) 
-2.683637

>  <alias>  (5168) 
LJQGHZKELSVOKR-UHFFFAOYSA-N-P8-P8-P219-601533

>  <HIPPO Pose ID>  (5168) 
90978

>  <smiles>  (5168) 
COCC1(N(C)C(=O)C(c2ccccc2)n2cnc3ccccc32)CC1

>  <inchikey>  (5168) 
LJQGHZKELSVOKR-UHFFFAOYSA-N

>  <distance_score>  (5168) 
0.920703

>  <ref_mols>  (5168) 
Z0101a,Z3880a

>  <ref_pdb>  (5168) 
Z0101a

>  <HIPPO Compound ID>  (5168) 
147704

>  <name>  (5168) 
LJQGHZKELSVOKR-UHFFFAOYSA-N-P8-P8-P219-601533

>  <inspiration_score>  (5168) 
None

$$$$
HRMMWSXFARZJJD-UHFFFAOYSA-N-P8-P8-P219-601533
     RDKit          3D

 26 29  0  0  0  0  0  0  0  0999 V2000
   -2.2863    6.3808  -15.8027 C   0  0  0  0  0  0  0  0  0  0  0  0
   -2.3426    7.0515  -17.1903 C   0  0  2  0  0  0  0  0  0  0  0  0
   -2.3675    8.5910  -16.9397 C   0  0  0  0  0  0  0  0  0  0  0  0
   -2.6843    9.3702  -18.0921 O   0  0  0  0  0  0  0  0  0  0  0  0
   -3.5371    6.5619  -17.8797 N   0  0  0  0  0  0  0  0  0  0  0  0
   -4.9258    7.2313  -18.0949 C   0  0  0  0  0  0  0  0  0  0  0  0
   -5.3006    8.3077  -17.8203 O   0  0  0  0  0  0  0  0  0  0  0  0
   -5.8673    6.2208  -18.8009 C   0  0  2  0  0  0  0  0  0  0  0  0
   -6.6195    5.3184  -17.8162 C   0  0  0  0  0  0  0  0  0  0  0  0
   -7.8687    4.7787  -18.1825 C   0  0  0  0  0  0  0  0  0  0  0  0
   -8.6900    4.1389  -17.2543 C   0  0  0  0  0  0  0  0  0  0  0  0
   -8.2725    4.0154  -15.9372 C   0  0  0  0  0  0  0  0  0  0  0  0
   -7.0182    4.4800  -15.5611 C   0  0  0  0  0  0  0  0  0  0  0  0
   -6.1947    5.1187  -16.4918 C   0  0  0  0  0  0  0  0  0  0  0  0
   -5.2768    5.5916  -19.9929 N   0  0  0  0  0  0  0  0  0  0  0  0
   -5.5940    4.3617  -20.4922 C   0  0  0  0  0  0  0  0  0  0  0  0
   -5.0244    4.1252  -21.6547 N   0  0  0  0  0  0  0  0  0  0  0  0
   -4.3321    5.2644  -21.9475 C   0  0  0  0  0  0  0  0  0  0  0  0
   -3.5438    5.5596  -23.0685 C   0  0  0  0  0  0  0  0  0  0  0  0
   -2.9696    6.8282  -23.1866 C   0  0  0  0  0  0  0  0  0  0  0  0
   -3.1840    7.7910  -22.2057 C   0  0  0  0  0  0  0  0  0  0  0  0
   -3.9582    7.5116  -21.0737 C   0  0  0  0  0  0  0  0  0  0  0  0
   -4.5047    6.2254  -20.9537 C   0  0  0  0  0  0  0  0  0  0  0  0
   -1.1659    6.5403  -18.0127 C   0  0  0  0  0  0  0  0  0  0  0  0
    0.2104    7.1634  -18.0101 C   0  0  0  0  0  0  0  0  0  0  0  0
   -0.6485    7.2448  -19.2435 C   0  0  0  0  0  0  0  0  0  0  0  0
  2  1  1  1
  2  3  1  0
  3  4  1  0
  2  5  1  0
  5  6  1  0
  6  7  2  0
  6  8  1  0
  8  9  1  0
  9 10  2  0
 10 11  1  0
 11 12  2  0
 12 13  1  0
 13 14  2  0
  8 15  1  6
 15 16  1  0
 16 17  2  0
 17 18  1  0
 18 19  2  0
 19 20  1  0
 20 21  2  0
 21 22  1  0
 22 23  2  0
  2 24  1  0
 24 25  1  0
 25 26  1  0
 14  9  1  0
 23 15  1  0
 26 24  1  0
 23 18  1  0
M  END
>  <energy_score>  (5169) 
-20.256156

>  <alias>  (5169) 
HRMMWSXFARZJJD-UHFFFAOYSA-N-P8-P8-P219-601533

>  <HIPPO Pose ID>  (5169) 
90982

>  <smiles>  (5169) 
CC(CO)(NC(=O)C(c1ccccc1)n1cnc2ccccc21)C1CC1

>  <inchikey>  (5169) 
HRMMWSXFARZJJD-UHFFFAOYSA-N

>  <distance_score>  (5169) 
1.082074

>  <ref_mols>  (5169) 
Z0101a,Z3880a

>  <ref_pdb>  (5169) 
Z0101a

>  <HIPPO Compound ID>  (5169) 
147706

>  <name>  (5169) 
HRMMWSXFARZJJD-UHFFFAOYSA-N-P8-P8-P219-601533

>  <inspiration_score>  (5169) 
None

$$$$
ALHGFDXFQZXLJA-UHFFFAOYSA-N-P8-P8-P219-601533
     RDKit          3D

 26 28  0  0  0  0  0  0  0  0999 V2000
   -4.4439    8.6464  -11.7746 C   0  0  0  0  0  0  0  0  0  0  0  0
   -5.1946    7.1962  -12.5544 S   0  0  0  0  0  0  0  0  0  0  0  0
   -5.4623    7.8416  -14.2371 C   0  0  0  0  0  0  0  0  0  0  0  0
   -4.1602    8.1373  -14.9781 C   0  0  0  0  0  0  0  0  0  0  0  0
   -4.4048    8.4986  -16.4566 C   0  0  1  0  0  0  0  0  0  0  0  0
   -3.1667    9.1979  -17.0556 C   0  0  0  0  0  0  0  0  0  0  0  0
   -1.9561    8.4917  -16.8165 O   0  0  0  0  0  0  0  0  0  0  0  0
   -4.7836    7.3179  -17.2275 N   0  0  0  0  0  0  0  0  0  0  0  0
   -3.9519    6.0638  -17.6311 C   0  0  0  0  0  0  0  0  0  0  0  0
   -2.8171    5.8239  -17.4726 O   0  0  0  0  0  0  0  0  0  0  0  0
   -4.8930    5.0394  -18.3297 C   0  0  1  0  0  0  0  0  0  0  0  0
   -6.2005    4.7970  -17.5475 C   0  0  0  0  0  0  0  0  0  0  0  0
   -7.4813    4.7413  -18.1145 C   0  0  0  0  0  0  0  0  0  0  0  0
   -8.6008    4.3837  -17.3549 C   0  0  0  0  0  0  0  0  0  0  0  0
   -8.4797    4.1626  -15.9907 C   0  0  0  0  0  0  0  0  0  0  0  0
   -7.2317    4.2471  -15.3905 C   0  0  0  0  0  0  0  0  0  0  0  0
   -6.1042    4.5366  -16.1631 C   0  0  0  0  0  0  0  0  0  0  0  0
   -4.9897    5.2047  -19.7982 N   0  0  0  0  0  0  0  0  0  0  0  0
   -5.6226    4.2892  -20.6052 C   0  0  0  0  0  0  0  0  0  0  0  0
   -5.3545    4.4398  -21.8801 N   0  0  0  0  0  0  0  0  0  0  0  0
   -4.5839    5.5620  -21.9319 C   0  0  0  0  0  0  0  0  0  0  0  0
   -4.0696    6.2099  -23.0655 C   0  0  0  0  0  0  0  0  0  0  0  0
   -3.2713    7.3429  -22.9003 C   0  0  0  0  0  0  0  0  0  0  0  0
   -2.9858    7.8177  -21.6254 C   0  0  0  0  0  0  0  0  0  0  0  0
   -3.4999    7.1885  -20.4841 C   0  0  0  0  0  0  0  0  0  0  0  0
   -4.3180    6.0627  -20.6511 C   0  0  0  0  0  0  0  0  0  0  0  0
  1  2  1  0
  2  3  1  0
  3  4  1  0
  5  4  1  1
  5  6  1  0
  6  7  1  0
  5  8  1  0
  8  9  1  0
  9 10  2  0
  9 11  1  0
 11 12  1  0
 12 13  2  0
 13 14  1  0
 14 15  2  0
 15 16  1  0
 16 17  2  0
 11 18  1  6
 18 19  1  0
 19 20  2  0
 20 21  1  0
 21 22  2  0
 22 23  1  0
 23 24  2  0
 24 25  1  0
 25 26  2  0
 17 12  1  0
 26 18  1  0
 26 21  1  0
M  END
>  <energy_score>  (5170) 
-25.57338

>  <alias>  (5170) 
ALHGFDXFQZXLJA-UHFFFAOYSA-N-P8-P8-P219-601533

>  <HIPPO Pose ID>  (5170) 
90984

>  <smiles>  (5170) 
CSCCC(CO)NC(=O)C(c1ccccc1)n1cnc2ccccc21

>  <inchikey>  (5170) 
ALHGFDXFQZXLJA-UHFFFAOYSA-N

>  <distance_score>  (5170) 
1.111406

>  <ref_mols>  (5170) 
Z0101a,Z3880a

>  <ref_pdb>  (5170) 
Z0101a

>  <HIPPO Compound ID>  (5170) 
147707

>  <name>  (5170) 
ALHGFDXFQZXLJA-UHFFFAOYSA-N-P8-P8-P219-601533

>  <inspiration_score>  (5170) 
None

$$$$
NFTSPUYIDUJZOU-UHFFFAOYSA-N-P95-P23-P95-601533
     RDKit          3D

 15 17  0  0  0  0  0  0  0  0999 V2000
   -7.9309    4.7180  -12.7975 Cl  0  0  0  0  0  0  0  0  0  0  0  0
   -7.3698    4.8055  -14.4095 C   0  0  0  0  0  0  0  0  0  0  0  0
   -6.1114    5.2534  -14.5531 N   0  0  0  0  0  0  0  0  0  0  0  0
   -5.6061    5.3468  -15.8045 C   0  0  0  0  0  0  0  0  0  0  0  0
   -4.3065    5.8696  -15.8717 N   0  0  0  0  0  0  0  0  0  0  0  0
   -3.3365    5.0555  -16.5915 C   0  0  0  0  0  0  0  0  0  0  0  0
   -3.2355    5.4412  -18.0338 C   0  0  0  0  0  0  0  0  0  0  0  0
   -1.9701    6.0452  -18.5919 C   0  0  0  0  0  0  0  0  0  0  0  0
   -3.2028    6.8893  -18.4681 C   0  0  0  0  0  0  0  0  0  0  0  0
   -6.4271    4.9719  -16.8956 C   0  0  0  0  0  0  0  0  0  0  0  0
   -6.1599    4.9853  -18.2580 N   0  0  0  0  0  0  0  0  0  0  0  0
   -7.2091    4.5366  -18.9138 C   0  0  0  0  0  0  0  0  0  0  0  0
   -8.5827    4.1318  -17.9765 S   0  0  0  0  0  0  0  0  0  0  0  0
   -7.7102    4.5473  -16.5721 C   0  0  0  0  0  0  0  0  0  0  0  0
   -8.2519    4.4664  -15.3479 N   0  0  0  0  0  0  0  0  0  0  0  0
  1  2  1  0
  2  3  2  0
  3  4  1  0
  4  5  1  0
  5  6  1  0
  6  7  1  0
  7  8  1  0
  8  9  1  0
  4 10  2  0
 10 11  1  0
 11 12  2  0
 12 13  1  0
 13 14  1  0
 14 15  2  0
 15  2  1  0
  9  7  1  0
 14 10  1  0
M  END
>  <energy_score>  (5171) 
-73.489087

>  <alias>  (5171) 
NFTSPUYIDUJZOU-UHFFFAOYSA-N-P95-P23-P95-601533

>  <HIPPO Pose ID>  (5171) 
90991

>  <smiles>  (5171) 
Clc1nc(NCC2CC2)c2ncsc2n1

>  <inchikey>  (5171) 
NFTSPUYIDUJZOU-UHFFFAOYSA-N

>  <distance_score>  (5171) 
0.665243

>  <ref_mols>  (5171) 
Z1719a,Z0472a

>  <ref_pdb>  (5171) 
Z0101a

>  <HIPPO Compound ID>  (5171) 
138595

>  <name>  (5171) 
NFTSPUYIDUJZOU-UHFFFAOYSA-N-P95-P23-P95-601533

>  <inspiration_score>  (5171) 
None

$$$$
PLLJBAZSDFGZLS-UHFFFAOYSA-N-P23-P23-P95-601533
     RDKit          3D

 15 17  0  0  0  0  0  0  0  0999 V2000
   -7.9856    4.7458  -12.8089 Cl  0  0  0  0  0  0  0  0  0  0  0  0
   -7.3686    4.8449  -14.3993 C   0  0  0  0  0  0  0  0  0  0  0  0
   -6.0637    5.1556  -14.4872 N   0  0  0  0  0  0  0  0  0  0  0  0
   -5.5133    5.2571  -15.7169 C   0  0  0  0  0  0  0  0  0  0  0  0
   -4.1590    5.6092  -15.7294 N   0  0  0  0  0  0  0  0  0  0  0  0
   -3.3046    4.8942  -16.6686 C   0  0  0  0  0  0  0  0  0  0  0  0
   -2.8154    5.8321  -17.7233 C   0  0  2  0  0  0  0  0  0  0  0  0
   -3.1375    5.6393  -19.1801 C   0  0  0  0  0  0  0  0  0  0  0  0
   -1.8672    5.2538  -18.6422 O   0  0  0  0  0  0  0  0  0  0  0  0
   -6.3365    5.0378  -16.8458 C   0  0  0  0  0  0  0  0  0  0  0  0
   -6.0112    5.0804  -18.1952 N   0  0  0  0  0  0  0  0  0  0  0  0
   -7.0744    4.7568  -18.9025 C   0  0  0  0  0  0  0  0  0  0  0  0
   -8.5270    4.4929  -18.0313 S   0  0  0  0  0  0  0  0  0  0  0  0
   -7.6683    4.7441  -16.5813 C   0  0  0  0  0  0  0  0  0  0  0  0
   -8.2559    4.6608  -15.3783 N   0  0  0  0  0  0  0  0  0  0  0  0
  1  2  1  0
  2  3  2  0
  3  4  1  0
  4  5  1  0
  5  6  1  0
  7  6  1  1
  7  8  1  0
  8  9  1  0
  4 10  2  0
 10 11  1  0
 11 12  2  0
 12 13  1  0
 13 14  1  0
 14 15  2  0
 15  2  1  0
  9  7  1  0
 14 10  1  0
M  END
>  <energy_score>  (5172) 
-61.875346

>  <alias>  (5172) 
PLLJBAZSDFGZLS-UHFFFAOYSA-N-P23-P23-P95-601533

>  <HIPPO Pose ID>  (5172) 
90998

>  <smiles>  (5172) 
Clc1nc(NCC2CO2)c2ncsc2n1

>  <inchikey>  (5172) 
PLLJBAZSDFGZLS-UHFFFAOYSA-N

>  <distance_score>  (5172) 
0.755318

>  <ref_mols>  (5172) 
Z1719a,Z0472a

>  <ref_pdb>  (5172) 
Z0101a

>  <HIPPO Compound ID>  (5172) 
138599

>  <name>  (5172) 
PLLJBAZSDFGZLS-UHFFFAOYSA-N-P23-P23-P95-601533

>  <inspiration_score>  (5172) 
None

$$$$
WRPMBASQDURZTE-UHFFFAOYSA-N-P23-P23-P95-601533
     RDKit          3D

 15 16  0  0  0  0  0  0  0  0999 V2000
   -2.9617    5.6287  -19.5742 O   0  0  0  0  0  0  0  0  0  0  0  0
   -2.8805    5.5287  -18.1547 C   0  0  0  0  0  0  0  0  0  0  0  0
   -3.5593    6.7464  -17.5462 C   0  0  0  0  0  0  0  0  0  0  0  0
   -3.7051    6.6605  -16.0369 C   0  0  0  0  0  0  0  0  0  0  0  0
   -4.1667    5.3579  -15.5668 N   0  0  0  0  0  0  0  0  0  0  0  0
   -5.5545    5.1514  -15.6147 C   0  0  0  0  0  0  0  0  0  0  0  0
   -6.1383    5.0282  -14.4047 N   0  0  0  0  0  0  0  0  0  0  0  0
   -7.4572    4.7818  -14.3603 C   0  0  0  0  0  0  0  0  0  0  0  0
   -8.1170    4.6936  -12.7877 Cl  0  0  0  0  0  0  0  0  0  0  0  0
   -8.3246    4.6729  -15.3668 N   0  0  0  0  0  0  0  0  0  0  0  0
   -7.6987    4.7408  -16.5520 C   0  0  0  0  0  0  0  0  0  0  0  0
   -8.5268    4.5247  -18.0254 S   0  0  0  0  0  0  0  0  0  0  0  0
   -7.0440    4.7328  -18.8590 C   0  0  0  0  0  0  0  0  0  0  0  0
   -5.9851    4.9997  -18.1213 N   0  0  0  0  0  0  0  0  0  0  0  0
   -6.3479    4.9807  -16.7759 C   0  0  0  0  0  0  0  0  0  0  0  0
  1  2  1  0
  2  3  1  0
  3  4  1  0
  4  5  1  0
  5  6  1  0
  6  7  2  0
  7  8  1  0
  8  9  1  0
  8 10  2  0
 10 11  1  0
 11 12  1  0
 12 13  1  0
 13 14  2  0
 14 15  1  0
 15  6  1  0
 15 11  2  0
M  END
>  <energy_score>  (5173) 
-69.686282

>  <alias>  (5173) 
WRPMBASQDURZTE-UHFFFAOYSA-N-P23-P23-P95-601533

>  <HIPPO Pose ID>  (5173) 
91006

>  <smiles>  (5173) 
OCCCNc1nc(Cl)nc2scnc12

>  <inchikey>  (5173) 
WRPMBASQDURZTE-UHFFFAOYSA-N

>  <distance_score>  (5173) 
0.967046

>  <ref_mols>  (5173) 
Z1719a,Z0472a

>  <ref_pdb>  (5173) 
Z0101a

>  <HIPPO Compound ID>  (5173) 
138603

>  <name>  (5173) 
WRPMBASQDURZTE-UHFFFAOYSA-N-P23-P23-P95-601533

>  <inspiration_score>  (5173) 
None

$$$$
ZKWQTMPOQOGADM-UHFFFAOYSA-N-P23-P23-P95-601533
     RDKit          3D

 15 16  0  0  0  0  0  0  0  0999 V2000
   -6.6775    4.5274  -19.9017 C   0  0  0  0  0  0  0  0  0  0  0  0
   -6.8461    4.6302  -18.4485 C   0  0  0  0  0  0  0  0  0  0  0  0
   -5.7999    4.6345  -17.6617 N   0  0  0  0  0  0  0  0  0  0  0  0
   -6.2319    4.6845  -16.3614 C   0  0  0  0  0  0  0  0  0  0  0  0
   -5.4225    4.6087  -15.2230 C   0  0  0  0  0  0  0  0  0  0  0  0
   -4.0613    4.2630  -15.3618 N   0  0  0  0  0  0  0  0  0  0  0  0
   -3.1904    5.4140  -15.1970 C   0  0  0  0  0  0  0  0  0  0  0  0
   -2.2831    5.6215  -16.4066 C   0  0  0  0  0  0  0  0  0  0  0  0
   -3.0328    5.8097  -17.7149 C   0  0  0  0  0  0  0  0  0  0  0  0
   -2.1647    6.2751  -18.6542 F   0  0  0  0  0  0  0  0  0  0  0  0
   -5.9935    4.7925  -14.0169 N   0  0  0  0  0  0  0  0  0  0  0  0
   -7.3383    4.9351  -13.9739 C   0  0  0  0  0  0  0  0  0  0  0  0
   -8.2176    4.9719  -14.9953 N   0  0  0  0  0  0  0  0  0  0  0  0
   -7.5919    4.8205  -16.1741 C   0  0  0  0  0  0  0  0  0  0  0  0
   -8.3783    4.7271  -17.6859 S   0  0  0  0  0  0  0  0  0  0  0  0
  1  2  1  0
  2  3  2  0
  3  4  1  0
  4  5  2  0
  5  6  1  0
  6  7  1  0
  7  8  1  0
  8  9  1  0
  9 10  1  0
  5 11  1  0
 11 12  2  0
 12 13  1  0
 13 14  2  0
 14 15  1  0
 15  2  1  0
 14  4  1  0
M  END
>  <energy_score>  (5174) 
-43.075652

>  <alias>  (5174) 
ZKWQTMPOQOGADM-UHFFFAOYSA-N-P23-P23-P95-601533

>  <HIPPO Pose ID>  (5174) 
91008

>  <smiles>  (5174) 
Cc1nc2c(NCCCF)ncnc2s1

>  <inchikey>  (5174) 
ZKWQTMPOQOGADM-UHFFFAOYSA-N

>  <distance_score>  (5174) 
1.018292

>  <ref_mols>  (5174) 
Z1719a,Z0472a

>  <ref_pdb>  (5174) 
Z0101a

>  <HIPPO Compound ID>  (5174) 
138604

>  <name>  (5174) 
ZKWQTMPOQOGADM-UHFFFAOYSA-N-P23-P23-P95-601533

>  <inspiration_score>  (5174) 
None

$$$$
AHULQBWVNJLEHR-UHFFFAOYSA-N-P23-P23-P95-601533
     RDKit          3D

 15 16  0  0  0  0  0  0  0  0999 V2000
   -2.3081    6.2765  -19.2508 F   0  0  0  0  0  0  0  0  0  0  0  0
   -3.2293    5.7730  -18.3826 C   0  0  0  0  0  0  0  0  0  0  0  0
   -2.5138    5.4279  -17.0969 C   0  0  0  0  0  0  0  0  0  0  0  0
   -3.4395    4.7396  -16.1127 C   0  0  0  0  0  0  0  0  0  0  0  0
   -4.3535    5.7200  -15.5410 N   0  0  0  0  0  0  0  0  0  0  0  0
   -5.6942    5.3058  -15.5499 C   0  0  0  0  0  0  0  0  0  0  0  0
   -6.2704    5.2126  -14.3375 N   0  0  0  0  0  0  0  0  0  0  0  0
   -7.5614    4.8492  -14.2842 C   0  0  0  0  0  0  0  0  0  0  0  0
   -8.2021    4.7295  -12.7070 Cl  0  0  0  0  0  0  0  0  0  0  0  0
   -8.4155    4.6242  -15.2849 N   0  0  0  0  0  0  0  0  0  0  0  0
   -7.7999    4.7135  -16.4739 C   0  0  0  0  0  0  0  0  0  0  0  0
   -8.6136    4.4472  -17.9477 S   0  0  0  0  0  0  0  0  0  0  0  0
   -7.1428    4.7384  -18.7811 C   0  0  0  0  0  0  0  0  0  0  0  0
   -6.1021    5.0658  -18.0415 N   0  0  0  0  0  0  0  0  0  0  0  0
   -6.4693    5.0366  -16.7020 C   0  0  0  0  0  0  0  0  0  0  0  0
  1  2  1  0
  2  3  1  0
  3  4  1  0
  4  5  1  0
  5  6  1  0
  6  7  2  0
  7  8  1  0
  8  9  1  0
  8 10  2  0
 10 11  1  0
 11 12  1  0
 12 13  1  0
 13 14  2  0
 14 15  1  0
 15  6  1  0
 15 11  2  0
M  END
>  <energy_score>  (5175) 
-86.136113

>  <alias>  (5175) 
AHULQBWVNJLEHR-UHFFFAOYSA-N-P23-P23-P95-601533

>  <HIPPO Pose ID>  (5175) 
91010

>  <smiles>  (5175) 
FCCCNc1nc(Cl)nc2scnc12

>  <inchikey>  (5175) 
AHULQBWVNJLEHR-UHFFFAOYSA-N

>  <distance_score>  (5175) 
0.655029

>  <ref_mols>  (5175) 
Z1719a,Z0472a

>  <ref_pdb>  (5175) 
Z0101a

>  <HIPPO Compound ID>  (5175) 
138605

>  <name>  (5175) 
AHULQBWVNJLEHR-UHFFFAOYSA-N-P23-P23-P95-601533

>  <inspiration_score>  (5175) 
None

$$$$
HXDOLNPNPKGZIG-UHFFFAOYSA-N-P23-P23-P95-601533
     RDKit          3D

 15 16  0  0  0  0  0  0  0  0999 V2000
   -1.8308    5.3409  -17.1810 C   0  0  0  0  0  0  0  0  0  0  0  0
   -3.1893    5.6962  -17.7726 C   0  0  0  0  0  0  0  0  0  0  0  0
   -3.0071    6.4037  -19.1119 C   0  0  0  0  0  0  0  0  0  0  0  0
   -3.9727    6.5903  -16.8043 C   0  0  0  0  0  0  0  0  0  0  0  0
   -4.4086    5.8111  -15.6603 N   0  0  0  0  0  0  0  0  0  0  0  0
   -5.7255    5.3540  -15.6461 C   0  0  0  0  0  0  0  0  0  0  0  0
   -6.2549    5.2038  -14.4141 N   0  0  0  0  0  0  0  0  0  0  0  0
   -7.5284    4.7908  -14.3197 C   0  0  0  0  0  0  0  0  0  0  0  0
   -8.1174    4.6501  -12.7227 Cl  0  0  0  0  0  0  0  0  0  0  0  0
   -8.4121    4.5594  -15.2918 N   0  0  0  0  0  0  0  0  0  0  0  0
   -7.8404    4.6786  -16.4996 C   0  0  0  0  0  0  0  0  0  0  0  0
   -8.6952    4.3886  -17.9455 S   0  0  0  0  0  0  0  0  0  0  0  0
   -7.2600    4.7144  -18.8254 C   0  0  0  0  0  0  0  0  0  0  0  0
   -6.2214    5.1198  -18.1255 N   0  0  0  0  0  0  0  0  0  0  0  0
   -6.5331    5.0576  -16.7716 C   0  0  0  0  0  0  0  0  0  0  0  0
  1  2  1  0
  2  3  1  0
  2  4  1  0
  4  5  1  0
  5  6  1  0
  6  7  2  0
  7  8  1  0
  8  9  1  0
  8 10  2  0
 10 11  1  0
 11 12  1  0
 12 13  1  0
 13 14  2  0
 14 15  1  0
 15  6  1  0
 15 11  2  0
M  END
>  <energy_score>  (5176) 
-87.653165

>  <alias>  (5176) 
HXDOLNPNPKGZIG-UHFFFAOYSA-N-P23-P23-P95-601533

>  <HIPPO Pose ID>  (5176) 
91014

>  <smiles>  (5176) 
CC(C)CNc1nc(Cl)nc2scnc12

>  <inchikey>  (5176) 
HXDOLNPNPKGZIG-UHFFFAOYSA-N

>  <distance_score>  (5176) 
0.710658

>  <ref_mols>  (5176) 
Z1719a,Z0472a

>  <ref_pdb>  (5176) 
Z0101a

>  <HIPPO Compound ID>  (5176) 
138607

>  <name>  (5176) 
HXDOLNPNPKGZIG-UHFFFAOYSA-N-P23-P23-P95-601533

>  <inspiration_score>  (5176) 
None

$$$$
QMIJOGIMMMHAAP-UHFFFAOYSA-N-P23-P23-P95-601533
     RDKit          3D

 15 16  0  0  0  0  0  0  0  0999 V2000
   -2.0217    4.4371  -14.6749 C   0  0  0  0  0  0  0  0  0  0  0  0
   -2.0711    5.3163  -15.9165 C   0  0  0  0  0  0  0  0  0  0  0  0
   -3.4774    5.3855  -16.4970 C   0  0  2  0  0  0  0  0  0  0  0  0
   -3.4118    6.1047  -17.7155 O   0  0  0  0  0  0  0  0  0  0  0  0
   -4.3332    6.0966  -15.5673 N   0  0  0  0  0  0  0  0  0  0  0  0
   -5.6439    5.6344  -15.4565 C   0  0  0  0  0  0  0  0  0  0  0  0
   -6.1918    5.5432  -14.2264 N   0  0  0  0  0  0  0  0  0  0  0  0
   -7.4715    5.1171  -14.1322 C   0  0  0  0  0  0  0  0  0  0  0  0
   -8.3169    4.7918  -15.1227 N   0  0  0  0  0  0  0  0  0  0  0  0
   -7.7180    4.8707  -16.3217 C   0  0  0  0  0  0  0  0  0  0  0  0
   -8.4684    4.4612  -17.7963 S   0  0  0  0  0  0  0  0  0  0  0  0
   -6.9826    4.7697  -18.5956 C   0  0  0  0  0  0  0  0  0  0  0  0
   -6.7412    4.4396  -20.0008 C   0  0  0  0  0  0  0  0  0  0  0  0
   -6.0233    5.2961  -17.8762 N   0  0  0  0  0  0  0  0  0  0  0  0
   -6.4211    5.2822  -16.5629 C   0  0  0  0  0  0  0  0  0  0  0  0
  1  2  1  0
  2  3  1  0
  3  4  1  6
  3  5  1  0
  5  6  1  0
  6  7  2  0
  7  8  1  0
  8  9  2  0
  9 10  1  0
 10 11  1  0
 11 12  1  0
 12 13  1  0
 12 14  2  0
 14 15  1  0
 15  6  1  0
 15 10  2  0
M  END
>  <energy_score>  (5177) 
-96.811694

>  <alias>  (5177) 
QMIJOGIMMMHAAP-UHFFFAOYSA-N-P23-P23-P95-601533

>  <HIPPO Pose ID>  (5177) 
91016

>  <smiles>  (5177) 
CCC(O)Nc1ncnc2sc(C)nc12

>  <inchikey>  (5177) 
QMIJOGIMMMHAAP-UHFFFAOYSA-N

>  <distance_score>  (5177) 
0.732257

>  <ref_mols>  (5177) 
Z1719a,Z0472a

>  <ref_pdb>  (5177) 
Z0101a

>  <HIPPO Compound ID>  (5177) 
138608

>  <name>  (5177) 
QMIJOGIMMMHAAP-UHFFFAOYSA-N-P23-P23-P95-601533

>  <inspiration_score>  (5177) 
None

$$$$
QKUJNSRQVVIMMW-UHFFFAOYSA-N-P23-P23-P95-601533
     RDKit          3D

 15 16  0  0  0  0  0  0  0  0999 V2000
   -2.7477    4.4130  -17.7332 C   0  0  0  0  0  0  0  0  0  0  0  0
   -3.0992    5.7045  -17.8294 C   0  0  0  0  0  0  0  0  0  0  0  0
   -2.8719    6.4582  -19.1056 C   0  0  0  0  0  0  0  0  0  0  0  0
   -3.7585    6.5108  -16.7367 C   0  0  0  0  0  0  0  0  0  0  0  0
   -4.2417    5.6686  -15.6615 N   0  0  0  0  0  0  0  0  0  0  0  0
   -5.5865    5.2991  -15.6657 C   0  0  0  0  0  0  0  0  0  0  0  0
   -6.1352    5.1535  -14.4392 N   0  0  0  0  0  0  0  0  0  0  0  0
   -7.4253    4.7895  -14.3588 C   0  0  0  0  0  0  0  0  0  0  0  0
   -8.0426    4.6676  -12.7703 Cl  0  0  0  0  0  0  0  0  0  0  0  0
   -8.3074    4.5993  -15.3414 N   0  0  0  0  0  0  0  0  0  0  0  0
   -7.7215    4.7187  -16.5421 C   0  0  0  0  0  0  0  0  0  0  0  0
   -8.5730    4.4595  -17.9961 S   0  0  0  0  0  0  0  0  0  0  0  0
   -7.1292    4.7759  -18.8633 C   0  0  0  0  0  0  0  0  0  0  0  0
   -6.0858    5.1462  -18.1524 N   0  0  0  0  0  0  0  0  0  0  0  0
   -6.4012    5.0637  -16.8009 C   0  0  0  0  0  0  0  0  0  0  0  0
  1  2  2  0
  2  3  1  0
  2  4  1  0
  4  5  1  0
  5  6  1  0
  6  7  2  0
  7  8  1  0
  8  9  1  0
  8 10  2  0
 10 11  1  0
 11 12  1  0
 12 13  1  0
 13 14  2  0
 14 15  1  0
 15  6  1  0
 15 11  2  0
M  END
>  <energy_score>  (5178) 
-59.973192

>  <alias>  (5178) 
QKUJNSRQVVIMMW-UHFFFAOYSA-N-P23-P23-P95-601533

>  <HIPPO Pose ID>  (5178) 
91022

>  <smiles>  (5178) 
C=C(C)CNc1nc(Cl)nc2scnc12

>  <inchikey>  (5178) 
QKUJNSRQVVIMMW-UHFFFAOYSA-N

>  <distance_score>  (5178) 
0.782488

>  <ref_mols>  (5178) 
Z1719a,Z0472a

>  <ref_pdb>  (5178) 
Z0101a

>  <HIPPO Compound ID>  (5178) 
138611

>  <name>  (5178) 
QKUJNSRQVVIMMW-UHFFFAOYSA-N-P23-P23-P95-601533

>  <inspiration_score>  (5178) 
None

$$$$
GGJZYQNVMGVMSB-UHFFFAOYSA-N-P23-P23-P95-601533
     RDKit          3D

 15 16  0  0  0  0  0  0  0  0999 V2000
   -2.0287    4.7861  -19.0935 C   0  0  0  0  0  0  0  0  0  0  0  0
   -2.5815    5.5591  -17.8997 C   0  0  1  0  0  0  0  0  0  0  0  0
   -3.4178    7.0001  -18.5452 Cl  0  0  0  0  0  0  0  0  0  0  0  0
   -3.4882    4.6782  -17.0331 C   0  0  0  0  0  0  0  0  0  0  0  0
   -4.1775    5.4310  -15.9838 N   0  0  0  0  0  0  0  0  0  0  0  0
   -5.5475    5.1726  -15.8434 C   0  0  0  0  0  0  0  0  0  0  0  0
   -6.0074    5.1182  -14.5736 N   0  0  0  0  0  0  0  0  0  0  0  0
   -7.3167    4.8703  -14.3863 C   0  0  0  0  0  0  0  0  0  0  0  0
   -7.8227    4.8081  -12.7545 Cl  0  0  0  0  0  0  0  0  0  0  0  0
   -8.2821    4.6965  -15.2923 N   0  0  0  0  0  0  0  0  0  0  0  0
   -7.7825    4.7304  -16.5365 C   0  0  0  0  0  0  0  0  0  0  0  0
   -8.7452    4.4464  -17.9142 S   0  0  0  0  0  0  0  0  0  0  0  0
   -7.3518    4.6427  -18.8922 C   0  0  0  0  0  0  0  0  0  0  0  0
   -6.2367    4.9627  -18.2728 N   0  0  0  0  0  0  0  0  0  0  0  0
   -6.4662    4.9723  -16.9025 C   0  0  0  0  0  0  0  0  0  0  0  0
  2  1  1  6
  2  3  1  0
  2  4  1  0
  4  5  1  0
  5  6  1  0
  6  7  2  0
  7  8  1  0
  8  9  1  0
  8 10  2  0
 10 11  1  0
 11 12  1  0
 12 13  1  0
 13 14  2  0
 14 15  1  0
 15  6  1  0
 15 11  2  0
M  END
>  <energy_score>  (5179) 
-76.845901

>  <alias>  (5179) 
GGJZYQNVMGVMSB-UHFFFAOYSA-N-P23-P23-P95-601533

>  <HIPPO Pose ID>  (5179) 
91026

>  <smiles>  (5179) 
CC(Cl)CNc1nc(Cl)nc2scnc12

>  <inchikey>  (5179) 
GGJZYQNVMGVMSB-UHFFFAOYSA-N

>  <distance_score>  (5179) 
0.862101

>  <ref_mols>  (5179) 
Z1719a,Z0472a

>  <ref_pdb>  (5179) 
Z0101a

>  <HIPPO Compound ID>  (5179) 
138613

>  <name>  (5179) 
GGJZYQNVMGVMSB-UHFFFAOYSA-N-P23-P23-P95-601533

>  <inspiration_score>  (5179) 
None

$$$$
ROPZEPIJDBZZLP-UHFFFAOYSA-N-P23-P23-P95-601533
     RDKit          3D

 15 17  0  0  0  0  0  0  0  0999 V2000
   -6.6392    4.5029  -19.9090 C   0  0  0  0  0  0  0  0  0  0  0  0
   -6.8254    4.6473  -18.4607 C   0  0  0  0  0  0  0  0  0  0  0  0
   -5.7928    4.7650  -17.6608 N   0  0  0  0  0  0  0  0  0  0  0  0
   -6.2577    4.8982  -16.3758 C   0  0  0  0  0  0  0  0  0  0  0  0
   -5.4720    5.0255  -15.2255 C   0  0  0  0  0  0  0  0  0  0  0  0
   -4.0660    4.9064  -15.3371 N   0  0  0  0  0  0  0  0  0  0  0  0
   -3.2905    6.0882  -15.5549 C   0  0  1  0  0  0  0  0  0  0  0  0
   -1.8141    5.7287  -15.7524 C   0  0  0  0  0  0  0  0  0  0  0  0
   -2.0681    6.0756  -17.2208 C   0  0  0  0  0  0  0  0  0  0  0  0
   -3.3689    6.6121  -16.9008 O   0  0  0  0  0  0  0  0  0  0  0  0
   -6.0820    5.1654  -14.0313 N   0  0  0  0  0  0  0  0  0  0  0  0
   -7.4336    5.1464  -14.0153 C   0  0  0  0  0  0  0  0  0  0  0  0
   -8.2873    5.0330  -15.0494 N   0  0  0  0  0  0  0  0  0  0  0  0
   -7.6279    4.8923  -16.2120 C   0  0  0  0  0  0  0  0  0  0  0  0
   -8.3771    4.6645  -17.7258 S   0  0  0  0  0  0  0  0  0  0  0  0
  1  2  1  0
  2  3  2  0
  3  4  1  0
  4  5  2  0
  5  6  1  0
  7  6  1  6
  7  8  1  0
  8  9  1  0
  9 10  1  0
  5 11  1  0
 11 12  2  0
 12 13  1  0
 13 14  2  0
 14 15  1  0
 15  2  1  0
 14  4  1  0
 10  7  1  0
M  END
>  <energy_score>  (5180) 
-67.820573

>  <alias>  (5180) 
ROPZEPIJDBZZLP-UHFFFAOYSA-N-P23-P23-P95-601533

>  <HIPPO Pose ID>  (5180) 
91028

>  <smiles>  (5180) 
Cc1nc2c(NC3CCO3)ncnc2s1

>  <inchikey>  (5180) 
ROPZEPIJDBZZLP-UHFFFAOYSA-N

>  <distance_score>  (5180) 
1.106035

>  <ref_mols>  (5180) 
Z1719a,Z0472a

>  <ref_pdb>  (5180) 
Z0101a

>  <HIPPO Compound ID>  (5180) 
138614

>  <name>  (5180) 
ROPZEPIJDBZZLP-UHFFFAOYSA-N-P23-P23-P95-601533

>  <inspiration_score>  (5180) 
None

$$$$
BUHJGYJEWGZKDZ-UHFFFAOYSA-N-P95-P23-P95-601533
     RDKit          3D

 15 16  0  0  0  0  0  0  0  0999 V2000
   -2.9414    6.7411  -18.3194 C   0  0  0  0  0  0  0  0  0  0  0  0
   -2.8346    5.3042  -17.8388 C   0  0  2  0  0  0  0  0  0  0  0  0
   -3.5377    4.4618  -18.7415 O   0  0  0  0  0  0  0  0  0  0  0  0
   -3.2669    5.0586  -16.3808 C   0  0  0  0  0  0  0  0  0  0  0  0
   -4.3266    5.9541  -15.8999 N   0  0  0  0  0  0  0  0  0  0  0  0
   -5.6035    5.3767  -15.8273 C   0  0  0  0  0  0  0  0  0  0  0  0
   -6.1202    5.2814  -14.5834 N   0  0  0  0  0  0  0  0  0  0  0  0
   -7.3706    4.8049  -14.4544 C   0  0  0  0  0  0  0  0  0  0  0  0
   -7.9499    4.7112  -12.8493 Cl  0  0  0  0  0  0  0  0  0  0  0  0
   -8.2340    4.4502  -15.4050 N   0  0  0  0  0  0  0  0  0  0  0  0
   -7.6798    4.5433  -16.6229 C   0  0  0  0  0  0  0  0  0  0  0  0
   -8.5270    4.1340  -18.0430 S   0  0  0  0  0  0  0  0  0  0  0  0
   -7.1412    4.5540  -18.9579 C   0  0  0  0  0  0  0  0  0  0  0  0
   -6.1021    5.0127  -18.2859 N   0  0  0  0  0  0  0  0  0  0  0  0
   -6.3991    4.9868  -16.9273 C   0  0  0  0  0  0  0  0  0  0  0  0
  2  1  1  6
  2  3  1  0
  2  4  1  0
  4  5  1  0
  5  6  1  0
  6  7  2  0
  7  8  1  0
  8  9  1  0
  8 10  2  0
 10 11  1  0
 11 12  1  0
 12 13  1  0
 13 14  2  0
 14 15  1  0
 15  6  1  0
 15 11  2  0
M  END
>  <energy_score>  (5181) 
-74.939412

>  <alias>  (5181) 
BUHJGYJEWGZKDZ-UHFFFAOYSA-N-P95-P23-P95-601533

>  <HIPPO Pose ID>  (5181) 
91035

>  <smiles>  (5181) 
CC(O)CNc1nc(Cl)nc2scnc12

>  <inchikey>  (5181) 
BUHJGYJEWGZKDZ-UHFFFAOYSA-N

>  <distance_score>  (5181) 
0.62433

>  <ref_mols>  (5181) 
Z1719a,Z0472a

>  <ref_pdb>  (5181) 
Z0101a

>  <HIPPO Compound ID>  (5181) 
138617

>  <name>  (5181) 
BUHJGYJEWGZKDZ-UHFFFAOYSA-N-P95-P23-P95-601533

>  <inspiration_score>  (5181) 
None

$$$$
NPGABIAJQSKDPL-UHFFFAOYSA-N-P23-P23-P95-601533
     RDKit          3D

 16 17  0  0  0  0  0  0  0  0999 V2000
   -3.0467    6.8799  -17.4937 C   0  0  0  0  0  0  0  0  0  0  0  0
   -2.4856    5.5121  -17.1455 C   0  0  2  0  0  0  0  0  0  0  0  0
   -2.3177    4.5593  -18.6660 Cl  0  0  0  0  0  0  0  0  0  0  0  0
   -3.1822    4.6816  -16.0421 C   0  0  0  0  0  0  0  0  0  0  0  0
   -3.9801    5.4619  -15.0824 N   0  0  0  0  0  0  0  0  0  0  0  0
   -5.3677    5.2205  -15.1363 C   0  0  0  0  0  0  0  0  0  0  0  0
   -6.0482    5.1575  -13.9712 N   0  0  0  0  0  0  0  0  0  0  0  0
   -7.3848    4.9422  -14.0233 C   0  0  0  0  0  0  0  0  0  0  0  0
   -8.1743    4.8126  -15.1037 N   0  0  0  0  0  0  0  0  0  0  0  0
   -7.4558    4.8578  -16.2367 C   0  0  0  0  0  0  0  0  0  0  0  0
   -8.1217    4.7016  -17.8050 S   0  0  0  0  0  0  0  0  0  0  0  0
   -6.5542    4.9190  -18.4581 C   0  0  0  0  0  0  0  0  0  0  0  0
   -6.2427    4.9771  -19.8932 C   0  0  0  0  0  0  0  0  0  0  0  0
   -5.7414    6.6624  -20.2989 Cl  0  0  0  0  0  0  0  0  0  0  0  0
   -5.5825    5.0536  -17.5925 N   0  0  0  0  0  0  0  0  0  0  0  0
   -6.0903    5.0512  -16.3267 C   0  0  0  0  0  0  0  0  0  0  0  0
  2  1  1  6
  2  3  1  0
  2  4  1  0
  4  5  1  0
  5  6  1  0
  6  7  2  0
  7  8  1  0
  8  9  2  0
  9 10  1  0
 10 11  1  0
 11 12  1  0
 12 13  1  0
 13 14  1  0
 12 15  2  0
 15 16  1  0
 16  6  1  0
 16 10  2  0
M  END
>  <energy_score>  (5182) 
-57.139299

>  <alias>  (5182) 
NPGABIAJQSKDPL-UHFFFAOYSA-N-P23-P23-P95-601533

>  <HIPPO Pose ID>  (5182) 
91044

>  <smiles>  (5182) 
CC(Cl)CNc1ncnc2sc(CCl)nc12

>  <inchikey>  (5182) 
NPGABIAJQSKDPL-UHFFFAOYSA-N

>  <distance_score>  (5182) 
1.223549

>  <ref_mols>  (5182) 
Z1719a,Z0472a

>  <ref_pdb>  (5182) 
Z0101a

>  <HIPPO Compound ID>  (5182) 
138622

>  <name>  (5182) 
NPGABIAJQSKDPL-UHFFFAOYSA-N-P23-P23-P95-601533

>  <inspiration_score>  (5182) 
None

$$$$
OBLRTAWXDPNFMQ-UHFFFAOYSA-N-P23-P23-P95-601533
     RDKit          3D

 16 17  0  0  0  0  0  0  0  0999 V2000
   -2.6024    3.9324  -14.5866 C   0  0  0  0  0  0  0  0  0  0  0  0
   -2.2385    5.1368  -15.4477 C   0  0  0  0  0  0  0  0  0  0  0  0
   -3.4654    5.6653  -16.1985 C   0  0  2  0  0  0  0  0  0  0  0  0
   -2.9130    6.9218  -17.3916 S   0  0  0  0  0  0  0  0  0  0  0  0
   -4.3915    6.2801  -15.2373 N   0  0  0  0  0  0  0  0  0  0  0  0
   -5.6890    5.7467  -15.2606 C   0  0  0  0  0  0  0  0  0  0  0  0
   -6.2496    5.3375  -14.1018 N   0  0  0  0  0  0  0  0  0  0  0  0
   -7.4776    4.7667  -14.1582 C   0  0  0  0  0  0  0  0  0  0  0  0
   -8.2402    4.5266  -15.2380 N   0  0  0  0  0  0  0  0  0  0  0  0
   -7.6289    4.9207  -16.3643 C   0  0  0  0  0  0  0  0  0  0  0  0
   -8.1949    4.5903  -17.9442 S   0  0  0  0  0  0  0  0  0  0  0  0
   -6.7415    5.2697  -18.5585 C   0  0  0  0  0  0  0  0  0  0  0  0
   -6.2202    5.0293  -19.9169 C   0  0  0  0  0  0  0  0  0  0  0  0
   -4.4216    4.7788  -19.7664 Cl  0  0  0  0  0  0  0  0  0  0  0  0
   -6.0392    5.9655  -17.6963 N   0  0  0  0  0  0  0  0  0  0  0  0
   -6.4191    5.5816  -16.4431 C   0  0  0  0  0  0  0  0  0  0  0  0
  1  2  1  0
  2  3  1  0
  3  4  1  6
  3  5  1  0
  5  6  1  0
  6  7  2  0
  7  8  1  0
  8  9  2  0
  9 10  1  0
 10 11  1  0
 11 12  1  0
 12 13  1  0
 13 14  1  0
 12 15  2  0
 15 16  1  0
 16  6  1  0
 16 10  2  0
M  END
>  <energy_score>  (5183) 
-60.889513

>  <alias>  (5183) 
OBLRTAWXDPNFMQ-UHFFFAOYSA-N-P23-P23-P95-601533

>  <HIPPO Pose ID>  (5183) 
91052

>  <smiles>  (5183) 
CCC(S)Nc1ncnc2sc(CCl)nc12

>  <inchikey>  (5183) 
OBLRTAWXDPNFMQ-UHFFFAOYSA-N

>  <distance_score>  (5183) 
0.87933

>  <ref_mols>  (5183) 
Z1719a,Z0472a

>  <ref_pdb>  (5183) 
Z0101a

>  <HIPPO Compound ID>  (5183) 
138626

>  <name>  (5183) 
OBLRTAWXDPNFMQ-UHFFFAOYSA-N-P23-P23-P95-601533

>  <inspiration_score>  (5183) 
None

$$$$
ZPQUHLJPJHQFHX-UHFFFAOYSA-N-P23-P23-P95-601533
     RDKit          3D

 16 18  0  0  0  0  0  0  0  0999 V2000
   -5.6784    6.7940  -20.3115 Cl  0  0  0  0  0  0  0  0  0  0  0  0
   -6.1758    5.1249  -19.8600 C   0  0  0  0  0  0  0  0  0  0  0  0
   -6.5499    5.1044  -18.4348 C   0  0  0  0  0  0  0  0  0  0  0  0
   -5.6543    5.3949  -17.5218 N   0  0  0  0  0  0  0  0  0  0  0  0
   -6.1800    5.1529  -16.2834 C   0  0  0  0  0  0  0  0  0  0  0  0
   -5.4936    5.2326  -15.0613 C   0  0  0  0  0  0  0  0  0  0  0  0
   -4.1426    5.6664  -15.0073 N   0  0  0  0  0  0  0  0  0  0  0  0
   -3.2625    4.6232  -15.5491 C   0  0  0  0  0  0  0  0  0  0  0  0
   -2.2692    5.2009  -16.5334 C   0  0  0  0  0  0  0  0  0  0  0  0
   -2.3893    4.8307  -17.9973 C   0  0  0  0  0  0  0  0  0  0  0  0
   -2.5777    6.2546  -17.5869 C   0  0  0  0  0  0  0  0  0  0  0  0
   -6.1645    4.9085  -13.9374 N   0  0  0  0  0  0  0  0  0  0  0  0
   -7.4648    4.5496  -14.0519 C   0  0  0  0  0  0  0  0  0  0  0  0
   -8.2241    4.4883  -15.1615 N   0  0  0  0  0  0  0  0  0  0  0  0
   -7.5049    4.7664  -16.2583 C   0  0  0  0  0  0  0  0  0  0  0  0
   -8.1047    4.6682  -17.8556 S   0  0  0  0  0  0  0  0  0  0  0  0
  1  2  1  0
  2  3  1  0
  3  4  2  0
  4  5  1  0
  5  6  2  0
  6  7  1  0
  7  8  1  0
  8  9  1  0
  9 10  1  0
 10 11  1  0
  6 12  1  0
 12 13  2  0
 13 14  1  0
 14 15  2  0
 15 16  1  0
 16  3  1  0
 15  5  1  0
 11  9  1  0
M  END
>  <energy_score>  (5184) 
-66.629697

>  <alias>  (5184) 
ZPQUHLJPJHQFHX-UHFFFAOYSA-N-P23-P23-P95-601533

>  <HIPPO Pose ID>  (5184) 
91060

>  <smiles>  (5184) 
ClCc1nc2c(NCC3CC3)ncnc2s1

>  <inchikey>  (5184) 
ZPQUHLJPJHQFHX-UHFFFAOYSA-N

>  <distance_score>  (5184) 
1.019155

>  <ref_mols>  (5184) 
Z1719a,Z0472a

>  <ref_pdb>  (5184) 
Z0101a

>  <HIPPO Compound ID>  (5184) 
138630

>  <name>  (5184) 
ZPQUHLJPJHQFHX-UHFFFAOYSA-N-P23-P23-P95-601533

>  <inspiration_score>  (5184) 
None

$$$$
WUJILQNCTLGCPM-UHFFFAOYSA-N-P23-P23-P95-601533
     RDKit          3D

 16 17  0  0  0  0  0  0  0  0999 V2000
   -2.5214    7.1773  -18.7944 C   0  0  0  0  0  0  0  0  0  0  0  0
   -2.7787    6.1685  -17.6805 C   0  0  2  0  0  0  0  0  0  0  0  0
   -2.7275    4.4253  -18.5585 Br  0  0  0  0  0  0  0  0  0  0  0  0
   -4.1089    6.3986  -16.9614 C   0  0  2  0  0  0  0  0  0  0  0  0
   -3.9960    8.1073  -15.9490 Br  0  0  0  0  0  0  0  0  0  0  0  0
   -4.3706    5.3941  -15.9453 N   0  0  0  0  0  0  0  0  0  0  0  0
   -5.7245    5.0670  -15.8038 C   0  0  0  0  0  0  0  0  0  0  0  0
   -6.1807    4.9829  -14.5385 N   0  0  0  0  0  0  0  0  0  0  0  0
   -7.4851    4.7095  -14.3605 C   0  0  0  0  0  0  0  0  0  0  0  0
   -7.9959    4.6648  -12.7306 Cl  0  0  0  0  0  0  0  0  0  0  0  0
   -8.4466    4.5568  -15.2749 N   0  0  0  0  0  0  0  0  0  0  0  0
   -7.9401    4.5937  -16.5165 C   0  0  0  0  0  0  0  0  0  0  0  0
   -8.8916    4.3520  -17.9088 S   0  0  0  0  0  0  0  0  0  0  0  0
   -7.4825    4.5377  -18.8699 C   0  0  0  0  0  0  0  0  0  0  0  0
   -6.3728    4.8515  -18.2358 N   0  0  0  0  0  0  0  0  0  0  0  0
   -6.6221    4.8367  -16.8697 C   0  0  0  0  0  0  0  0  0  0  0  0
  2  1  1  6
  2  3  1  0
  2  4  1  0
  4  5  1  1
  4  6  1  0
  6  7  1  0
  7  8  2  0
  8  9  1  0
  9 10  1  0
  9 11  2  0
 11 12  1  0
 12 13  1  0
 13 14  1  0
 14 15  2  0
 15 16  1  0
 16  7  1  0
 16 12  2  0
M  END
>  <energy_score>  (5185) 
-60.327781

>  <alias>  (5185) 
WUJILQNCTLGCPM-UHFFFAOYSA-N-P23-P23-P95-601533

>  <HIPPO Pose ID>  (5185) 
91066

>  <smiles>  (5185) 
CC(Br)C(Br)Nc1nc(Cl)nc2scnc12

>  <inchikey>  (5185) 
WUJILQNCTLGCPM-UHFFFAOYSA-N

>  <distance_score>  (5185) 
0.840777

>  <ref_mols>  (5185) 
Z1719a,Z0472a

>  <ref_pdb>  (5185) 
Z0101a

>  <HIPPO Compound ID>  (5185) 
138634

>  <name>  (5185) 
WUJILQNCTLGCPM-UHFFFAOYSA-N-P23-P23-P95-601533

>  <inspiration_score>  (5185) 
None

$$$$
LRCUCOUTSOOFMV-UHFFFAOYSA-N-P95-P23-P95-601533
     RDKit          3D

 16 17  0  0  0  0  0  0  0  0999 V2000
   -3.0634    5.7805  -19.2890 C   0  0  0  0  0  0  0  0  0  0  0  0
   -3.1088    6.0176  -17.8906 O   0  0  0  0  0  0  0  0  0  0  0  0
   -4.1283    6.9560  -17.5546 C   0  0  0  0  0  0  0  0  0  0  0  0
   -4.2263    7.1301  -16.0390 C   0  0  0  0  0  0  0  0  0  0  0  0
   -3.7991    5.9061  -15.2306 C   0  0  0  0  0  0  0  0  0  0  0  0
   -4.3782    4.6864  -15.7674 N   0  0  0  0  0  0  0  0  0  0  0  0
   -5.7728    4.6476  -15.6496 C   0  0  0  0  0  0  0  0  0  0  0  0
   -6.3195    4.7367  -14.4224 N   0  0  0  0  0  0  0  0  0  0  0  0
   -7.6491    4.6210  -14.3242 C   0  0  0  0  0  0  0  0  0  0  0  0
   -8.2528    4.7514  -12.7333 Cl  0  0  0  0  0  0  0  0  0  0  0  0
   -8.5626    4.5035  -15.2933 N   0  0  0  0  0  0  0  0  0  0  0  0
   -7.9771    4.4212  -16.4985 C   0  0  0  0  0  0  0  0  0  0  0  0
   -8.8495    4.1713  -17.9413 S   0  0  0  0  0  0  0  0  0  0  0  0
   -7.3859    4.3071  -18.8252 C   0  0  0  0  0  0  0  0  0  0  0  0
   -6.2883    4.4980  -18.1216 N   0  0  0  0  0  0  0  0  0  0  0  0
   -6.6222    4.5144  -16.7702 C   0  0  0  0  0  0  0  0  0  0  0  0
  1  2  1  0
  2  3  1  0
  3  4  1  0
  4  5  1  0
  5  6  1  0
  6  7  1  0
  7  8  2  0
  8  9  1  0
  9 10  1  0
  9 11  2  0
 11 12  1  0
 12 13  1  0
 13 14  1  0
 14 15  2  0
 15 16  1  0
 16  7  1  0
 16 12  2  0
M  END
>  <energy_score>  (5186) 
-69.294798

>  <alias>  (5186) 
LRCUCOUTSOOFMV-UHFFFAOYSA-N-P95-P23-P95-601533

>  <HIPPO Pose ID>  (5186) 
91069

>  <smiles>  (5186) 
COCCCNc1nc(Cl)nc2scnc12

>  <inchikey>  (5186) 
LRCUCOUTSOOFMV-UHFFFAOYSA-N

>  <distance_score>  (5186) 
1.129444

>  <ref_mols>  (5186) 
Z1719a,Z0472a

>  <ref_pdb>  (5186) 
Z0101a

>  <HIPPO Compound ID>  (5186) 
138636

>  <name>  (5186) 
LRCUCOUTSOOFMV-UHFFFAOYSA-N-P95-P23-P95-601533

>  <inspiration_score>  (5186) 
None

$$$$
LTZQPAFCBLGLAU-UHFFFAOYSA-N-P23-P23-P95-601533
     RDKit          3D

 16 17  0  0  0  0  0  0  0  0999 V2000
   -2.6275    5.1156  -18.2937 C   0  0  0  0  0  0  0  0  0  0  0  0
   -3.5668    6.1577  -17.7659 C   0  0  0  0  0  0  0  0  0  0  0  0
   -4.2667    6.9070  -18.6303 C   0  0  0  0  0  0  0  0  0  0  0  0
   -5.4281    8.3045  -18.2643 Br  0  0  0  0  0  0  0  0  0  0  0  0
   -3.6632    6.2839  -16.2750 C   0  0  0  0  0  0  0  0  0  0  0  0
   -4.1532    5.0430  -15.6921 N   0  0  0  0  0  0  0  0  0  0  0  0
   -5.5573    4.9343  -15.6628 C   0  0  0  0  0  0  0  0  0  0  0  0
   -6.0901    4.9005  -14.4217 N   0  0  0  0  0  0  0  0  0  0  0  0
   -7.4224    4.7657  -14.3107 C   0  0  0  0  0  0  0  0  0  0  0  0
   -8.0153    4.7608  -12.7084 Cl  0  0  0  0  0  0  0  0  0  0  0  0
   -8.3468    4.7015  -15.2701 N   0  0  0  0  0  0  0  0  0  0  0  0
   -7.7761    4.6812  -16.4844 C   0  0  0  0  0  0  0  0  0  0  0  0
   -8.6923    4.4979  -17.9107 S   0  0  0  0  0  0  0  0  0  0  0  0
   -7.2426    4.5669  -18.8185 C   0  0  0  0  0  0  0  0  0  0  0  0
   -6.1304    4.7266  -18.1340 N   0  0  0  0  0  0  0  0  0  0  0  0
   -6.4226    4.7920  -16.7768 C   0  0  0  0  0  0  0  0  0  0  0  0
  1  2  1  0
  2  3  2  3
  3  4  1  0
  2  5  1  0
  5  6  1  0
  6  7  1  0
  7  8  2  0
  8  9  1  0
  9 10  1  0
  9 11  2  0
 11 12  1  0
 12 13  1  0
 13 14  1  0
 14 15  2  0
 15 16  1  0
 16  7  1  0
 16 12  2  0
M  END
>  <energy_score>  (5187) 
-78.871761

>  <alias>  (5187) 
LTZQPAFCBLGLAU-UHFFFAOYSA-N-P23-P23-P95-601533

>  <HIPPO Pose ID>  (5187) 
91076

>  <smiles>  (5187) 
CC(=CBr)CNc1nc(Cl)nc2scnc12

>  <inchikey>  (5187) 
LTZQPAFCBLGLAU-UHFFFAOYSA-N

>  <distance_score>  (5187) 
0.927811

>  <ref_mols>  (5187) 
Z1719a,Z0472a

>  <ref_pdb>  (5187) 
Z0101a

>  <HIPPO Compound ID>  (5187) 
138641

>  <name>  (5187) 
LTZQPAFCBLGLAU-UHFFFAOYSA-N-P23-P23-P95-601533

>  <inspiration_score>  (5187) 
None

$$$$
LKDKKGBMRNFPKK-UHFFFAOYSA-N-P23-P23-P95-601533
     RDKit          3D

 16 17  0  0  0  0  0  0  0  0999 V2000
   -6.6811    4.5375  -19.9219 C   0  0  0  0  0  0  0  0  0  0  0  0
   -7.0174    4.8878  -18.5372 C   0  0  0  0  0  0  0  0  0  0  0  0
   -6.1457    5.5132  -17.7875 N   0  0  0  0  0  0  0  0  0  0  0  0
   -6.5587    5.4495  -16.4785 C   0  0  0  0  0  0  0  0  0  0  0  0
   -5.8302    5.8119  -15.3328 C   0  0  0  0  0  0  0  0  0  0  0  0
   -4.5357    6.3309  -15.3354 N   0  0  0  0  0  0  0  0  0  0  0  0
   -3.6962    6.1151  -16.4886 C   0  0  1  0  0  0  0  0  0  0  0  0
   -2.5192    6.8601  -16.2148 O   0  0  0  0  0  0  0  0  0  0  0  0
   -3.3079    4.6618  -16.7665 C   0  0  0  0  0  0  0  0  0  0  0  0
   -3.2949    3.7464  -15.5445 C   0  0  0  0  0  0  0  0  0  0  0  0
   -2.4108    4.2314  -14.5517 O   0  0  0  0  0  0  0  0  0  0  0  0
   -6.3936    5.5782  -14.1251 N   0  0  0  0  0  0  0  0  0  0  0  0
   -7.6369    5.0540  -14.0811 C   0  0  0  0  0  0  0  0  0  0  0  0
   -8.4327    4.7228  -15.1070 N   0  0  0  0  0  0  0  0  0  0  0  0
   -7.8170    4.9080  -16.2839 C   0  0  0  0  0  0  0  0  0  0  0  0
   -8.4927    4.4531  -17.7840 S   0  0  0  0  0  0  0  0  0  0  0  0
  1  2  1  0
  2  3  2  0
  3  4  1  0
  4  5  2  0
  5  6  1  0
  6  7  1  0
  7  8  1  1
  7  9  1  0
  9 10  1  0
 10 11  1  0
  5 12  1  0
 12 13  2  0
 13 14  1  0
 14 15  2  0
 15 16  1  0
 16  2  1  0
 15  4  1  0
M  END
>  <energy_score>  (5188) 
-54.16018

>  <alias>  (5188) 
LKDKKGBMRNFPKK-UHFFFAOYSA-N-P23-P23-P95-601533

>  <HIPPO Pose ID>  (5188) 
91078

>  <smiles>  (5188) 
Cc1nc2c(NC(O)CCO)ncnc2s1

>  <inchikey>  (5188) 
LKDKKGBMRNFPKK-UHFFFAOYSA-N

>  <distance_score>  (5188) 
0.864838

>  <ref_mols>  (5188) 
Z1719a,Z0472a

>  <ref_pdb>  (5188) 
Z0101a

>  <HIPPO Compound ID>  (5188) 
138642

>  <name>  (5188) 
LKDKKGBMRNFPKK-UHFFFAOYSA-N-P23-P23-P95-601533

>  <inspiration_score>  (5188) 
None

$$$$
BDZNFKROKPMFCB-UHFFFAOYSA-N-P23-P23-P95-601533
     RDKit          3D

 16 17  0  0  0  0  0  0  0  0999 V2000
   -2.7582    4.1347  -14.9315 C   0  0  0  0  0  0  0  0  0  0  0  0
   -2.2838    5.1570  -15.9553 C   0  0  0  0  0  0  0  0  0  0  0  0
   -3.3908    5.5498  -16.9326 C   0  0  2  0  0  0  0  0  0  0  0  0
   -2.5749    5.9479  -18.6877 Br  0  0  0  0  0  0  0  0  0  0  0  0
   -4.1390    6.8075  -16.4757 C   0  0  0  0  0  0  0  0  0  0  0  0
   -4.9366    6.6353  -15.2678 N   0  0  0  0  0  0  0  0  0  0  0  0
   -6.1015    5.8844  -15.2958 C   0  0  0  0  0  0  0  0  0  0  0  0
   -6.6481    5.5533  -14.1060 N   0  0  0  0  0  0  0  0  0  0  0  0
   -7.8230    4.8882  -14.1043 C   0  0  0  0  0  0  0  0  0  0  0  0
   -8.5669    4.5167  -15.1555 N   0  0  0  0  0  0  0  0  0  0  0  0
   -7.9493    4.7859  -16.3141 C   0  0  0  0  0  0  0  0  0  0  0  0
   -8.5637    4.3421  -17.8438 S   0  0  0  0  0  0  0  0  0  0  0  0
   -7.0923    4.8711  -18.5446 C   0  0  0  0  0  0  0  0  0  0  0  0
   -6.6742    4.5387  -19.9126 C   0  0  0  0  0  0  0  0  0  0  0  0
   -6.3007    5.5594  -17.7629 N   0  0  0  0  0  0  0  0  0  0  0  0
   -6.7432    5.4429  -16.4658 C   0  0  0  0  0  0  0  0  0  0  0  0
  1  2  1  0
  2  3  1  0
  3  4  1  6
  3  5  1  0
  5  6  1  0
  6  7  1  0
  7  8  2  0
  8  9  1  0
  9 10  2  0
 10 11  1  0
 11 12  1  0
 12 13  1  0
 13 14  1  0
 13 15  2  0
 15 16  1  0
 16  7  1  0
 16 11  2  0
M  END
>  <energy_score>  (5189) 
-75.13851

>  <alias>  (5189) 
BDZNFKROKPMFCB-UHFFFAOYSA-N-P23-P23-P95-601533

>  <HIPPO Pose ID>  (5189) 
91082

>  <smiles>  (5189) 
CCC(Br)CNc1ncnc2sc(C)nc12

>  <inchikey>  (5189) 
BDZNFKROKPMFCB-UHFFFAOYSA-N

>  <distance_score>  (5189) 
0.959435

>  <ref_mols>  (5189) 
Z1719a,Z0472a

>  <ref_pdb>  (5189) 
Z0101a

>  <HIPPO Compound ID>  (5189) 
138644

>  <name>  (5189) 
BDZNFKROKPMFCB-UHFFFAOYSA-N-P23-P23-P95-601533

>  <inspiration_score>  (5189) 
None

$$$$
RVLQNBRRBAGXBO-UHFFFAOYSA-N-P23-P23-P95-601533
     RDKit          3D

 16 18  0  0  0  0  0  0  0  0999 V2000
   -2.2606    6.8534  -17.9946 C   0  0  0  0  0  0  0  0  0  0  0  0
   -2.9369    5.5143  -17.9023 C   0  0  0  0  0  0  0  0  0  0  0  0
   -3.5322    5.1789  -16.5392 C   0  0  0  0  0  0  0  0  0  0  0  0
   -4.6114    6.1307  -16.2743 N   0  0  0  0  0  0  0  0  0  0  0  0
   -5.7916    5.4766  -15.8631 C   0  0  0  0  0  0  0  0  0  0  0  0
   -6.0296    5.2605  -14.5539 N   0  0  0  0  0  0  0  0  0  0  0  0
   -7.2368    4.7680  -14.2166 C   0  0  0  0  0  0  0  0  0  0  0  0
   -7.5184    4.5840  -12.5416 Cl  0  0  0  0  0  0  0  0  0  0  0  0
   -8.2786    4.4669  -15.0004 N   0  0  0  0  0  0  0  0  0  0  0  0
   -7.9698    4.6287  -16.2929 C   0  0  0  0  0  0  0  0  0  0  0  0
   -9.0396    4.2480  -17.5608 S   0  0  0  0  0  0  0  0  0  0  0  0
   -7.8146    4.6802  -18.6797 C   0  0  0  0  0  0  0  0  0  0  0  0
   -6.7223    5.2207  -18.1809 N   0  0  0  0  0  0  0  0  0  0  0  0
   -6.7833    5.1242  -16.8015 C   0  0  0  0  0  0  0  0  0  0  0  0
   -2.3775    4.4144  -18.7756 C   0  0  0  0  0  0  0  0  0  0  0  0
   -3.6953    5.0413  -19.1220 C   0  0  0  0  0  0  0  0  0  0  0  0
  1  2  1  0
  2  3  1  0
  3  4  1  0
  4  5  1  0
  5  6  2  0
  6  7  1  0
  7  8  1  0
  7  9  2  0
  9 10  1  0
 10 11  1  0
 11 12  1  0
 12 13  2  0
 13 14  1  0
  2 15  1  0
 15 16  1  0
 16  2  1  0
 14  5  1  0
 14 10  2  0
M  END
>  <energy_score>  (5190) 
-65.935395

>  <alias>  (5190) 
RVLQNBRRBAGXBO-UHFFFAOYSA-N-P23-P23-P95-601533

>  <HIPPO Pose ID>  (5190) 
91086

>  <smiles>  (5190) 
CC1(CNc2nc(Cl)nc3scnc23)CC1

>  <inchikey>  (5190) 
RVLQNBRRBAGXBO-UHFFFAOYSA-N

>  <distance_score>  (5190) 
1.007641

>  <ref_mols>  (5190) 
Z1719a,Z0472a

>  <ref_pdb>  (5190) 
Z0101a

>  <HIPPO Compound ID>  (5190) 
138646

>  <name>  (5190) 
RVLQNBRRBAGXBO-UHFFFAOYSA-N-P23-P23-P95-601533

>  <inspiration_score>  (5190) 
None

$$$$
YHMCVZYOKIZIHQ-UHFFFAOYSA-N-P23-P23-P95-601533
     RDKit          3D

 16 18  0  0  0  0  0  0  0  0999 V2000
   -6.7276    4.5301  -19.8896 C   0  0  0  0  0  0  0  0  0  0  0  0
   -7.0748    5.0143  -18.5470 C   0  0  0  0  0  0  0  0  0  0  0  0
   -6.3125    5.8818  -17.9260 N   0  0  0  0  0  0  0  0  0  0  0  0
   -6.5378    5.7538  -16.5761 C   0  0  0  0  0  0  0  0  0  0  0  0
   -5.7569    6.2561  -15.5202 C   0  0  0  0  0  0  0  0  0  0  0  0
   -4.6016    7.0317  -15.6627 N   0  0  0  0  0  0  0  0  0  0  0  0
   -3.7927    6.8811  -16.8734 C   0  0  0  0  0  0  0  0  0  0  0  0
   -3.2411    5.4942  -17.0087 C   0  0  0  0  0  0  0  0  0  0  0  0
   -4.0473    4.5728  -17.6621 F   0  0  0  0  0  0  0  0  0  0  0  0
   -2.3813    4.8935  -15.9259 C   0  0  0  0  0  0  0  0  0  0  0  0
   -1.7725    5.3145  -17.2362 C   0  0  0  0  0  0  0  0  0  0  0  0
   -6.1384    5.9623  -14.2536 N   0  0  0  0  0  0  0  0  0  0  0  0
   -7.2652    5.2389  -14.0701 C   0  0  0  0  0  0  0  0  0  0  0  0
   -8.1003    4.7530  -14.9971 N   0  0  0  0  0  0  0  0  0  0  0  0
   -7.6556    5.0099  -16.2365 C   0  0  0  0  0  0  0  0  0  0  0  0
   -8.4034    4.4124  -17.6483 S   0  0  0  0  0  0  0  0  0  0  0  0
  1  2  1  0
  2  3  2  0
  3  4  1  0
  4  5  2  0
  5  6  1  0
  6  7  1  0
  7  8  1  0
  8  9  1  0
  8 10  1  0
 10 11  1  0
  5 12  1  0
 12 13  2  0
 13 14  1  0
 14 15  2  0
 15 16  1  0
 16  2  1  0
 15  4  1  0
 11  8  1  0
M  END
>  <energy_score>  (5191) 
-73.587503

>  <alias>  (5191) 
YHMCVZYOKIZIHQ-UHFFFAOYSA-N-P23-P23-P95-601533

>  <HIPPO Pose ID>  (5191) 
91088

>  <smiles>  (5191) 
Cc1nc2c(NCC3(F)CC3)ncnc2s1

>  <inchikey>  (5191) 
YHMCVZYOKIZIHQ-UHFFFAOYSA-N

>  <distance_score>  (5191) 
1.016896

>  <ref_mols>  (5191) 
Z1719a,Z0472a

>  <ref_pdb>  (5191) 
Z0101a

>  <HIPPO Compound ID>  (5191) 
138647

>  <name>  (5191) 
YHMCVZYOKIZIHQ-UHFFFAOYSA-N-P23-P23-P95-601533

>  <inspiration_score>  (5191) 
None

$$$$
QKTBBTKQUMKVNL-UHFFFAOYSA-N-P23-P23-P95-601533
     RDKit          3D

 16 18  0  0  0  0  0  0  0  0999 V2000
   -3.0013    6.6923  -18.9776 F   0  0  0  0  0  0  0  0  0  0  0  0
   -3.1233    6.0721  -17.7369 C   0  0  0  0  0  0  0  0  0  0  0  0
   -3.9517    6.8267  -16.7269 C   0  0  0  0  0  0  0  0  0  0  0  0
   -4.3800    6.0030  -15.6050 N   0  0  0  0  0  0  0  0  0  0  0  0
   -5.6809    5.4990  -15.6238 C   0  0  0  0  0  0  0  0  0  0  0  0
   -6.2315    5.3149  -14.4056 N   0  0  0  0  0  0  0  0  0  0  0  0
   -7.4882    4.8448  -14.3429 C   0  0  0  0  0  0  0  0  0  0  0  0
   -8.1045    4.6584  -12.7608 Cl  0  0  0  0  0  0  0  0  0  0  0  0
   -8.3380    4.5826  -15.3369 N   0  0  0  0  0  0  0  0  0  0  0  0
   -7.7449    4.7370  -16.5304 C   0  0  0  0  0  0  0  0  0  0  0  0
   -8.5526    4.4291  -17.9992 S   0  0  0  0  0  0  0  0  0  0  0  0
   -7.1083    4.8140  -18.8411 C   0  0  0  0  0  0  0  0  0  0  0  0
   -6.1021    5.2498  -18.1113 N   0  0  0  0  0  0  0  0  0  0  0  0
   -6.4487    5.1730  -16.7683 C   0  0  0  0  0  0  0  0  0  0  0  0
   -3.0370    4.5706  -17.7679 C   0  0  0  0  0  0  0  0  0  0  0  0
   -1.8638    5.3756  -17.2862 C   0  0  0  0  0  0  0  0  0  0  0  0
  1  2  1  0
  2  3  1  0
  3  4  1  0
  4  5  1  0
  5  6  2  0
  6  7  1  0
  7  8  1  0
  7  9  2  0
  9 10  1  0
 10 11  1  0
 11 12  1  0
 12 13  2  0
 13 14  1  0
  2 15  1  0
 15 16  1  0
 16  2  1  0
 14  5  1  0
 14 10  2  0
M  END
>  <energy_score>  (5192) 
-66.612979

>  <alias>  (5192) 
QKTBBTKQUMKVNL-UHFFFAOYSA-N-P23-P23-P95-601533

>  <HIPPO Pose ID>  (5192) 
91090

>  <smiles>  (5192) 
FC1(CNc2nc(Cl)nc3scnc23)CC1

>  <inchikey>  (5192) 
QKTBBTKQUMKVNL-UHFFFAOYSA-N

>  <distance_score>  (5192) 
1.011401

>  <ref_mols>  (5192) 
Z1719a,Z0472a

>  <ref_pdb>  (5192) 
Z0101a

>  <HIPPO Compound ID>  (5192) 
138648

>  <name>  (5192) 
QKTBBTKQUMKVNL-UHFFFAOYSA-N-P23-P23-P95-601533

>  <inspiration_score>  (5192) 
None

$$$$
PXVGKNUPHXKPAM-UHFFFAOYSA-N-P23-P23-P95-601533
     RDKit          3D

 16 18  0  0  0  0  0  0  0  0999 V2000
   -6.6342    4.5614  -19.8919 C   0  0  0  0  0  0  0  0  0  0  0  0
   -7.0104    4.8769  -18.5068 C   0  0  0  0  0  0  0  0  0  0  0  0
   -6.1897    5.5299  -17.7211 N   0  0  0  0  0  0  0  0  0  0  0  0
   -6.6368    5.4290  -16.4216 C   0  0  0  0  0  0  0  0  0  0  0  0
   -6.0034    5.8662  -15.2426 C   0  0  0  0  0  0  0  0  0  0  0  0
   -4.8335    6.6097  -15.1787 N   0  0  0  0  0  0  0  0  0  0  0  0
   -4.0258    6.8148  -16.3632 C   0  0  0  0  0  0  0  0  0  0  0  0
   -3.1342    5.6474  -16.7393 C   0  0  0  0  0  0  0  0  0  0  0  0
   -2.8349    5.5782  -18.2195 C   0  0  0  0  0  0  0  0  0  0  0  0
   -3.1021    4.3559  -15.9352 C   0  0  0  0  0  0  0  0  0  0  0  0
   -1.9849    5.3426  -15.7962 C   0  0  0  0  0  0  0  0  0  0  0  0
   -6.5697    5.5392  -14.0574 N   0  0  0  0  0  0  0  0  0  0  0  0
   -7.7555    4.8972  -14.0659 C   0  0  0  0  0  0  0  0  0  0  0  0
   -8.4968    4.5456  -15.1228 N   0  0  0  0  0  0  0  0  0  0  0  0
   -7.8613    4.8006  -16.2755 C   0  0  0  0  0  0  0  0  0  0  0  0
   -8.4907    4.3796  -17.8035 S   0  0  0  0  0  0  0  0  0  0  0  0
  1  2  1  0
  2  3  2  0
  3  4  1  0
  4  5  2  0
  5  6  1  0
  6  7  1  0
  7  8  1  0
  8  9  1  0
  8 10  1  0
 10 11  1  0
  5 12  1  0
 12 13  2  0
 13 14  1  0
 14 15  2  0
 15 16  1  0
 16  2  1  0
 15  4  1  0
 11  8  1  0
M  END
>  <energy_score>  (5193) 
-64.291514

>  <alias>  (5193) 
PXVGKNUPHXKPAM-UHFFFAOYSA-N-P23-P23-P95-601533

>  <HIPPO Pose ID>  (5193) 
91092

>  <smiles>  (5193) 
Cc1nc2c(NCC3(C)CC3)ncnc2s1

>  <inchikey>  (5193) 
PXVGKNUPHXKPAM-UHFFFAOYSA-N

>  <distance_score>  (5193) 
0.998913

>  <ref_mols>  (5193) 
Z1719a,Z0472a

>  <ref_pdb>  (5193) 
Z0101a

>  <HIPPO Compound ID>  (5193) 
138650

>  <name>  (5193) 
PXVGKNUPHXKPAM-UHFFFAOYSA-N-P23-P23-P95-601533

>  <inspiration_score>  (5193) 
None

$$$$
DUJPWIOZDHLOQD-UHFFFAOYSA-N-P23-P23-P95-601533
     RDKit          3D

 16 17  0  0  0  0  0  0  0  0999 V2000
   -1.7039    5.4134  -14.6853 C   0  0  0  0  0  0  0  0  0  0  0  0
   -1.3801    5.7011  -16.4414 S   0  0  0  0  0  0  0  0  0  0  0  0
   -3.0827    5.8102  -17.1265 C   0  0  1  0  0  0  0  0  0  0  0  0
   -2.9874    5.5511  -18.6298 C   0  0  0  0  0  0  0  0  0  0  0  0
   -4.0621    4.8514  -16.4415 C   0  0  0  0  0  0  0  0  0  0  0  0
   -4.7943    5.5732  -15.3844 N   0  0  0  0  0  0  0  0  0  0  0  0
   -6.1669    5.3187  -15.3844 C   0  0  0  0  0  0  0  0  0  0  0  0
   -6.7510    5.0146  -14.2105 N   0  0  0  0  0  0  0  0  0  0  0  0
   -8.0409    4.6169  -14.2420 C   0  0  0  0  0  0  0  0  0  0  0  0
   -8.8467    4.4798  -15.3086 N   0  0  0  0  0  0  0  0  0  0  0  0
   -8.2037    4.7637  -16.4504 C   0  0  0  0  0  0  0  0  0  0  0  0
   -8.8022    4.4223  -18.0142 S   0  0  0  0  0  0  0  0  0  0  0  0
   -7.2765    4.8897  -18.6498 C   0  0  0  0  0  0  0  0  0  0  0  0
   -6.7767    4.4998  -19.9737 C   0  0  0  0  0  0  0  0  0  0  0  0
   -6.4924    5.5411  -17.8298 N   0  0  0  0  0  0  0  0  0  0  0  0
   -6.9229    5.2620  -16.5581 C   0  0  0  0  0  0  0  0  0  0  0  0
  1  2  1  0
  2  3  1  0
  3  4  1  6
  3  5  1  0
  5  6  1  0
  6  7  1  0
  7  8  2  0
  8  9  1  0
  9 10  2  0
 10 11  1  0
 11 12  1  0
 12 13  1  0
 13 14  1  0
 13 15  2  0
 15 16  1  0
 16  7  1  0
 16 11  2  0
M  END
>  <energy_score>  (5194) 
-37.180382

>  <alias>  (5194) 
DUJPWIOZDHLOQD-UHFFFAOYSA-N-P23-P23-P95-601533

>  <HIPPO Pose ID>  (5194) 
91098

>  <smiles>  (5194) 
CSC(C)CNc1ncnc2sc(C)nc12

>  <inchikey>  (5194) 
DUJPWIOZDHLOQD-UHFFFAOYSA-N

>  <distance_score>  (5194) 
1.026284

>  <ref_mols>  (5194) 
Z1719a,Z0472a

>  <ref_pdb>  (5194) 
Z0101a

>  <HIPPO Compound ID>  (5194) 
138653

>  <name>  (5194) 
DUJPWIOZDHLOQD-UHFFFAOYSA-N-P23-P23-P95-601533

>  <inspiration_score>  (5194) 
None

$$$$
OLZLBINELYDJPV-UHFFFAOYSA-N-P23-P23-P95-601533
     RDKit          3D

 16 17  0  0  0  0  0  0  0  0999 V2000
   -4.9180    7.6080  -15.6995 C   0  0  0  0  0  0  0  0  0  0  0  0
   -4.5786    7.2560  -17.4394 S   0  0  0  0  0  0  0  0  0  0  0  0
   -3.1224    6.1507  -17.2812 C   0  0  2  0  0  0  0  0  0  0  0  0
   -2.3803    6.2180  -18.6183 C   0  0  0  0  0  0  0  0  0  0  0  0
   -3.4078    4.6826  -16.9421 C   0  0  0  0  0  0  0  0  0  0  0  0
   -4.1822    4.4539  -15.7391 N   0  0  0  0  0  0  0  0  0  0  0  0
   -5.5684    4.5086  -15.7181 C   0  0  0  0  0  0  0  0  0  0  0  0
   -6.1065    4.5755  -14.4797 N   0  0  0  0  0  0  0  0  0  0  0  0
   -7.4453    4.6123  -14.3718 C   0  0  0  0  0  0  0  0  0  0  0  0
   -8.0329    4.7311  -12.7711 Cl  0  0  0  0  0  0  0  0  0  0  0  0
   -8.3705    4.6600  -15.3328 N   0  0  0  0  0  0  0  0  0  0  0  0
   -7.8021    4.5878  -16.5464 C   0  0  0  0  0  0  0  0  0  0  0  0
   -8.7216    4.5422  -17.9811 S   0  0  0  0  0  0  0  0  0  0  0  0
   -7.2670    4.5199  -18.8846 C   0  0  0  0  0  0  0  0  0  0  0  0
   -6.1478    4.5248  -18.1939 N   0  0  0  0  0  0  0  0  0  0  0  0
   -6.4454    4.5303  -16.8339 C   0  0  0  0  0  0  0  0  0  0  0  0
  1  2  1  0
  2  3  1  0
  3  4  1  6
  3  5  1  0
  5  6  1  0
  6  7  1  0
  7  8  2  0
  8  9  1  0
  9 10  1  0
  9 11  2  0
 11 12  1  0
 12 13  1  0
 13 14  1  0
 14 15  2  0
 15 16  1  0
 16  7  1  0
 16 12  2  0
M  END
>  <energy_score>  (5195) 
-91.690507

>  <alias>  (5195) 
OLZLBINELYDJPV-UHFFFAOYSA-N-P23-P23-P95-601533

>  <HIPPO Pose ID>  (5195) 
91100

>  <smiles>  (5195) 
CSC(C)CNc1nc(Cl)nc2scnc12

>  <inchikey>  (5195) 
OLZLBINELYDJPV-UHFFFAOYSA-N

>  <distance_score>  (5195) 
0.993218

>  <ref_mols>  (5195) 
Z1719a,Z0472a

>  <ref_pdb>  (5195) 
Z0101a

>  <HIPPO Compound ID>  (5195) 
138654

>  <name>  (5195) 
OLZLBINELYDJPV-UHFFFAOYSA-N-P23-P23-P95-601533

>  <inspiration_score>  (5195) 
None

$$$$
QMCNLRSVINROMC-UHFFFAOYSA-N-P23-P23-P95-601533
     RDKit          3D

 16 17  0  0  0  0  0  0  0  0999 V2000
   -6.8199    4.4276  -19.9391 C   0  0  0  0  0  0  0  0  0  0  0  0
   -7.0829    4.6654  -18.5169 C   0  0  0  0  0  0  0  0  0  0  0  0
   -6.1113    5.0562  -17.7370 N   0  0  0  0  0  0  0  0  0  0  0  0
   -6.5261    4.9932  -16.4326 C   0  0  0  0  0  0  0  0  0  0  0  0
   -5.7510    5.2146  -15.2837 C   0  0  0  0  0  0  0  0  0  0  0  0
   -4.3870    5.5266  -15.3074 N   0  0  0  0  0  0  0  0  0  0  0  0
   -3.9787    6.4660  -16.3558 C   0  0  0  0  0  0  0  0  0  0  0  0
   -2.7247    6.0302  -17.1353 C   0  0  0  0  0  0  0  0  0  0  0  0
   -2.3180    7.1487  -18.1010 C   0  0  0  0  0  0  0  0  0  0  0  0
   -1.5771    5.6927  -16.1877 C   0  0  0  0  0  0  0  0  0  0  0  0
   -3.0186    4.4756  -18.2751 Br  0  0  0  0  0  0  0  0  0  0  0  0
   -6.3458    5.1003  -14.0770 N   0  0  0  0  0  0  0  0  0  0  0  0
   -7.6629    4.7968  -14.0468 C   0  0  0  0  0  0  0  0  0  0  0  0
   -8.5082    4.6303  -15.0766 N   0  0  0  0  0  0  0  0  0  0  0  0
   -7.8643    4.7019  -16.2523 C   0  0  0  0  0  0  0  0  0  0  0  0
   -8.6071    4.4357  -17.7683 S   0  0  0  0  0  0  0  0  0  0  0  0
  1  2  1  0
  2  3  2  0
  3  4  1  0
  4  5  2  0
  5  6  1  0
  6  7  1  0
  7  8  1  0
  8  9  1  0
  8 10  1  0
  8 11  1  0
  5 12  1  0
 12 13  2  0
 13 14  1  0
 14 15  2  0
 15 16  1  0
 16  2  1  0
 15  4  1  0
M  END
>  <energy_score>  (5196) 
-61.204731

>  <alias>  (5196) 
QMCNLRSVINROMC-UHFFFAOYSA-N-P23-P23-P95-601533

>  <HIPPO Pose ID>  (5196) 
91108

>  <smiles>  (5196) 
Cc1nc2c(NCC(C)(C)Br)ncnc2s1

>  <inchikey>  (5196) 
QMCNLRSVINROMC-UHFFFAOYSA-N

>  <distance_score>  (5196) 
1.02189

>  <ref_mols>  (5196) 
Z1719a,Z0472a

>  <ref_pdb>  (5196) 
Z0101a

>  <HIPPO Compound ID>  (5196) 
138659

>  <name>  (5196) 
QMCNLRSVINROMC-UHFFFAOYSA-N-P23-P23-P95-601533

>  <inspiration_score>  (5196) 
None

$$$$
OYGJXVVWIXXTJI-UHFFFAOYSA-N-P23-P23-P95-601533
     RDKit          3D

 16 18  0  0  0  0  0  0  0  0999 V2000
   -6.5917    4.5716  -19.9168 C   0  0  0  0  0  0  0  0  0  0  0  0
   -6.8167    4.7560  -18.4795 C   0  0  0  0  0  0  0  0  0  0  0  0
   -5.8113    4.9688  -17.6666 N   0  0  0  0  0  0  0  0  0  0  0  0
   -6.2633    4.9246  -16.3742 C   0  0  0  0  0  0  0  0  0  0  0  0
   -5.5093    4.9030  -15.1929 C   0  0  0  0  0  0  0  0  0  0  0  0
   -4.1336    4.7677  -15.1183 N   0  0  0  0  0  0  0  0  0  0  0  0
   -3.2471    5.5780  -15.9106 C   0  0  1  0  0  0  0  0  0  0  0  0
   -1.7452    5.4072  -14.9407 Cl  0  0  0  0  0  0  0  0  0  0  0  0
   -2.9392    5.0370  -17.2765 C   0  0  0  0  0  0  0  0  0  0  0  0
   -1.7865    5.5812  -18.1075 C   0  0  0  0  0  0  0  0  0  0  0  0
   -3.1921    5.8669  -18.5219 C   0  0  0  0  0  0  0  0  0  0  0  0
   -6.1711    4.8632  -14.0125 N   0  0  0  0  0  0  0  0  0  0  0  0
   -7.5200    4.8250  -14.0289 C   0  0  0  0  0  0  0  0  0  0  0  0
   -8.3357    4.8377  -15.0901 N   0  0  0  0  0  0  0  0  0  0  0  0
   -7.6401    4.8422  -16.2383 C   0  0  0  0  0  0  0  0  0  0  0  0
   -8.3704    4.6773  -17.7700 S   0  0  0  0  0  0  0  0  0  0  0  0
  1  2  1  0
  2  3  2  0
  3  4  1  0
  4  5  2  0
  5  6  1  0
  6  7  1  0
  7  8  1  1
  7  9  1  0
  9 10  1  0
 10 11  1  0
  5 12  1  0
 12 13  2  0
 13 14  1  0
 14 15  2  0
 15 16  1  0
 16  2  1  0
 15  4  1  0
 11  9  1  0
M  END
>  <energy_score>  (5197) 
-83.681217

>  <alias>  (5197) 
OYGJXVVWIXXTJI-UHFFFAOYSA-N-P23-P23-P95-601533

>  <HIPPO Pose ID>  (5197) 
91112

>  <smiles>  (5197) 
Cc1nc2c(NC(Cl)C3CC3)ncnc2s1

>  <inchikey>  (5197) 
OYGJXVVWIXXTJI-UHFFFAOYSA-N

>  <distance_score>  (5197) 
0.868877

>  <ref_mols>  (5197) 
Z1719a,Z0472a

>  <ref_pdb>  (5197) 
Z0101a

>  <HIPPO Compound ID>  (5197) 
138661

>  <name>  (5197) 
OYGJXVVWIXXTJI-UHFFFAOYSA-N-P23-P23-P95-601533

>  <inspiration_score>  (5197) 
None

$$$$
OPIJJOWLHUFXKH-UHFFFAOYSA-N-P23-P23-P95-601533
     RDKit          3D

 16 17  0  0  0  0  0  0  0  0999 V2000
   -3.2073    5.6566  -18.9279 C   0  0  0  0  0  0  0  0  0  0  0  0
   -3.3655    5.8621  -17.6079 C   0  0  0  0  0  0  0  0  0  0  0  0
   -3.4780    7.2600  -17.0663 C   0  0  0  0  0  0  0  0  0  0  0  0
   -4.8935    7.7703  -16.8302 C   0  0  0  0  0  0  0  0  0  0  0  0
   -3.4031    4.7179  -16.6342 C   0  0  0  0  0  0  0  0  0  0  0  0
   -4.2659    5.0085  -15.5183 N   0  0  0  0  0  0  0  0  0  0  0  0
   -5.6353    4.7903  -15.5754 C   0  0  0  0  0  0  0  0  0  0  0  0
   -6.2197    4.7108  -14.3614 N   0  0  0  0  0  0  0  0  0  0  0  0
   -7.5540    4.5940  -14.3052 C   0  0  0  0  0  0  0  0  0  0  0  0
   -8.1983    4.5903  -12.7239 Cl  0  0  0  0  0  0  0  0  0  0  0  0
   -8.4406    4.5693  -15.3018 N   0  0  0  0  0  0  0  0  0  0  0  0
   -7.8224    4.5974  -16.4927 C   0  0  0  0  0  0  0  0  0  0  0  0
   -8.6812    4.4938  -17.9622 S   0  0  0  0  0  0  0  0  0  0  0  0
   -7.1977    4.6263  -18.8081 C   0  0  0  0  0  0  0  0  0  0  0  0
   -6.1145    4.7581  -18.0731 N   0  0  0  0  0  0  0  0  0  0  0  0
   -6.4583    4.7147  -16.7271 C   0  0  0  0  0  0  0  0  0  0  0  0
  1  2  2  0
  2  3  1  0
  3  4  1  0
  2  5  1  0
  5  6  1  0
  6  7  1  0
  7  8  2  0
  8  9  1  0
  9 10  1  0
  9 11  2  0
 11 12  1  0
 12 13  1  0
 13 14  1  0
 14 15  2  0
 15 16  1  0
 16  7  1  0
 16 12  2  0
M  END
>  <energy_score>  (5198) 
-84.698683

>  <alias>  (5198) 
OPIJJOWLHUFXKH-UHFFFAOYSA-N-P23-P23-P95-601533

>  <HIPPO Pose ID>  (5198) 
91128

>  <smiles>  (5198) 
C=C(CC)CNc1nc(Cl)nc2scnc12

>  <inchikey>  (5198) 
OPIJJOWLHUFXKH-UHFFFAOYSA-N

>  <distance_score>  (5198) 
1.003396

>  <ref_mols>  (5198) 
Z1719a,Z0472a

>  <ref_pdb>  (5198) 
Z0101a

>  <HIPPO Compound ID>  (5198) 
138671

>  <name>  (5198) 
OPIJJOWLHUFXKH-UHFFFAOYSA-N-P23-P23-P95-601533

>  <inspiration_score>  (5198) 
None

$$$$
BJUBCCWUHOBOBF-UHFFFAOYSA-N-P95-P23-P95-601533
     RDKit          3D

 16 18  0  0  0  0  0  0  0  0999 V2000
   -6.8060    4.2949  -19.9686 C   0  0  0  0  0  0  0  0  0  0  0  0
   -6.9551    4.5851  -18.5309 C   0  0  0  0  0  0  0  0  0  0  0  0
   -5.9856    5.1182  -17.8201 N   0  0  0  0  0  0  0  0  0  0  0  0
   -6.3385    5.0802  -16.4899 C   0  0  0  0  0  0  0  0  0  0  0  0
   -5.5370    5.4173  -15.3834 C   0  0  0  0  0  0  0  0  0  0  0  0
   -4.2213    5.9212  -15.5328 N   0  0  0  0  0  0  0  0  0  0  0  0
   -3.3173    4.8377  -15.9328 C   0  0  0  0  0  0  0  0  0  0  0  0
   -2.7258    4.9947  -17.3098 C   0  0  2  0  0  0  0  0  0  0  0  0
   -1.9218    6.2313  -17.6361 C   0  0  0  0  0  0  0  0  0  0  0  0
   -3.1580    5.9167  -18.4232 C   0  0  1  0  0  0  0  0  0  0  0  0
   -2.9244    5.4100  -20.0857 Cl  0  0  0  0  0  0  0  0  0  0  0  0
   -6.0535    5.2626  -14.1453 N   0  0  0  0  0  0  0  0  0  0  0  0
   -7.3277    4.8327  -14.0346 C   0  0  0  0  0  0  0  0  0  0  0  0
   -8.1907    4.5279  -15.0141 N   0  0  0  0  0  0  0  0  0  0  0  0
   -7.6191    4.6321  -16.2238 C   0  0  0  0  0  0  0  0  0  0  0  0
   -8.3941    4.1945  -17.6762 S   0  0  0  0  0  0  0  0  0  0  0  0
  1  2  1  0
  2  3  2  0
  3  4  1  0
  4  5  2  0
  5  6  1  0
  6  7  1  0
  8  7  1  1
  8  9  1  0
  9 10  1  0
 10 11  1  6
  5 12  1  0
 12 13  2  0
 13 14  1  0
 14 15  2  0
 15 16  1  0
 16  2  1  0
 15  4  1  0
 10  8  1  0
M  END
>  <energy_score>  (5199) 
-48.303325

>  <alias>  (5199) 
BJUBCCWUHOBOBF-UHFFFAOYSA-N-P95-P23-P95-601533

>  <HIPPO Pose ID>  (5199) 
91131

>  <smiles>  (5199) 
Cc1nc2c(NCC3CC3Cl)ncnc2s1

>  <inchikey>  (5199) 
BJUBCCWUHOBOBF-UHFFFAOYSA-N

>  <distance_score>  (5199) 
0.957914

>  <ref_mols>  (5199) 
Z1719a,Z0472a

>  <ref_pdb>  (5199) 
Z0101a

>  <HIPPO Compound ID>  (5199) 
138672

>  <name>  (5199) 
BJUBCCWUHOBOBF-UHFFFAOYSA-N-P95-P23-P95-601533

>  <inspiration_score>  (5199) 
None

$$$$
DPCBWXTZYMTCHV-UHFFFAOYSA-N-P23-P23-P95-601533
     RDKit          3D

 16 17  0  0  0  0  0  0  0  0999 V2000
   -2.3745    5.3572  -19.5983 Cl  0  0  0  0  0  0  0  0  0  0  0  0
   -3.1968    5.4703  -18.0167 C   0  0  0  0  0  0  0  0  0  0  0  0
   -3.8944    6.8209  -17.9280 C   0  0  0  0  0  0  0  0  0  0  0  0
   -4.5807    7.2196  -16.6172 C   0  0  0  0  0  0  0  0  0  0  0  0
   -4.1312    6.4818  -15.3677 C   0  0  0  0  0  0  0  0  0  0  0  0
   -4.4090    5.0467  -15.4269 N   0  0  0  0  0  0  0  0  0  0  0  0
   -5.8000    4.8086  -15.4243 C   0  0  0  0  0  0  0  0  0  0  0  0
   -6.3501    4.6610  -14.2086 N   0  0  0  0  0  0  0  0  0  0  0  0
   -7.6804    4.5036  -14.1469 C   0  0  0  0  0  0  0  0  0  0  0  0
   -8.2973    4.4679  -12.5571 Cl  0  0  0  0  0  0  0  0  0  0  0  0
   -8.5787    4.4907  -15.1354 N   0  0  0  0  0  0  0  0  0  0  0  0
   -7.9777    4.5555  -16.3340 C   0  0  0  0  0  0  0  0  0  0  0  0
   -8.8361    4.4372  -17.8026 S   0  0  0  0  0  0  0  0  0  0  0  0
   -7.3617    4.6452  -18.6529 C   0  0  0  0  0  0  0  0  0  0  0  0
   -6.2868    4.8392  -17.9178 N   0  0  0  0  0  0  0  0  0  0  0  0
   -6.6232    4.7302  -16.5736 C   0  0  0  0  0  0  0  0  0  0  0  0
  1  2  1  0
  2  3  1  0
  3  4  1  0
  4  5  1  0
  5  6  1  0
  6  7  1  0
  7  8  2  0
  8  9  1  0
  9 10  1  0
  9 11  2  0
 11 12  1  0
 12 13  1  0
 13 14  1  0
 14 15  2  0
 15 16  1  0
 16  7  1  0
 16 12  2  0
M  END
>  <energy_score>  (5200) 
-42.403555

>  <alias>  (5200) 
DPCBWXTZYMTCHV-UHFFFAOYSA-N-P23-P23-P95-601533

>  <HIPPO Pose ID>  (5200) 
91136

>  <smiles>  (5200) 
ClCCCCNc1nc(Cl)nc2scnc12

>  <inchikey>  (5200) 
DPCBWXTZYMTCHV-UHFFFAOYSA-N

>  <distance_score>  (5200) 
1.24982

>  <ref_mols>  (5200) 
Z1719a,Z0472a

>  <ref_pdb>  (5200) 
Z0101a

>  <HIPPO Compound ID>  (5200) 
138675

>  <name>  (5200) 
DPCBWXTZYMTCHV-UHFFFAOYSA-N-P23-P23-P95-601533

>  <inspiration_score>  (5200) 
None

$$$$
GKFLJMQWPGQHQN-UHFFFAOYSA-N-P23-P23-P95-601533
     RDKit          3D

 16 18  0  0  0  0  0  0  0  0999 V2000
   -7.8861    4.7442  -12.7397 Cl  0  0  0  0  0  0  0  0  0  0  0  0
   -7.2854    4.6475  -14.3375 C   0  0  0  0  0  0  0  0  0  0  0  0
   -5.9541    4.4845  -14.4375 N   0  0  0  0  0  0  0  0  0  0  0  0
   -5.4125    4.4320  -15.6752 C   0  0  0  0  0  0  0  0  0  0  0  0
   -4.0470    4.0913  -15.7128 N   0  0  0  0  0  0  0  0  0  0  0  0
   -3.1211    5.1505  -16.0895 C   0  0  0  0  0  0  0  0  0  0  0  0
   -3.2517    5.5426  -17.5216 C   0  0  2  0  0  0  0  0  0  0  0  0
   -2.5801    6.7902  -18.0337 C   0  0  0  0  0  0  0  0  0  0  0  0
   -4.0811    6.7230  -17.9678 C   0  0  2  0  0  0  0  0  0  0  0  0
   -4.9855    7.8123  -16.6856 Br  0  0  0  0  0  0  0  0  0  0  0  0
   -6.2750    4.5544  -16.7979 C   0  0  0  0  0  0  0  0  0  0  0  0
   -5.9817    4.5318  -18.1612 N   0  0  0  0  0  0  0  0  0  0  0  0
   -7.1019    4.5668  -18.8511 C   0  0  0  0  0  0  0  0  0  0  0  0
   -8.5503    4.6627  -17.9468 S   0  0  0  0  0  0  0  0  0  0  0  0
   -7.6281    4.6875  -16.5134 C   0  0  0  0  0  0  0  0  0  0  0  0
   -8.1981    4.7840  -15.3025 N   0  0  0  0  0  0  0  0  0  0  0  0
  1  2  1  0
  2  3  2  0
  3  4  1  0
  4  5  1  0
  5  6  1  0
  7  6  1  1
  7  8  1  0
  8  9  1  0
  9 10  1  1
  4 11  2  0
 11 12  1  0
 12 13  2  0
 13 14  1  0
 14 15  1  0
 15 16  2  0
 16  2  1  0
  9  7  1  0
 15 11  1  0
M  END
>  <energy_score>  (5201) 
-58.817807

>  <alias>  (5201) 
GKFLJMQWPGQHQN-UHFFFAOYSA-N-P23-P23-P95-601533

>  <HIPPO Pose ID>  (5201) 
91140

>  <smiles>  (5201) 
Clc1nc(NCC2CC2Br)c2ncsc2n1

>  <inchikey>  (5201) 
GKFLJMQWPGQHQN-UHFFFAOYSA-N

>  <distance_score>  (5201) 
1.053469

>  <ref_mols>  (5201) 
Z1719a,Z0472a

>  <ref_pdb>  (5201) 
Z0101a

>  <HIPPO Compound ID>  (5201) 
138677

>  <name>  (5201) 
GKFLJMQWPGQHQN-UHFFFAOYSA-N-P23-P23-P95-601533

>  <inspiration_score>  (5201) 
None

$$$$
HXVJZLNLAJKYDO-UHFFFAOYSA-N-P95-P23-P95-601533
     RDKit          3D

 16 17  0  0  0  0  0  0  0  0999 V2000
   -2.3269    5.4775  -20.0889 C   0  0  0  0  0  0  0  0  0  0  0  0
   -3.1367    5.3733  -18.8169 C   0  0  0  0  0  0  0  0  0  0  0  0
   -3.1061    6.7036  -18.0800 C   0  0  0  0  0  0  0  0  0  0  0  0
   -3.9599    6.7687  -16.8353 C   0  0  0  0  0  0  0  0  0  0  0  0
   -3.7581    5.5490  -15.9558 C   0  0  0  0  0  0  0  0  0  0  0  0
   -4.7008    5.6287  -14.8865 N   0  0  0  0  0  0  0  0  0  0  0  0
   -5.9715    5.1067  -15.0861 C   0  0  0  0  0  0  0  0  0  0  0  0
   -6.5793    4.8410  -13.9228 N   0  0  0  0  0  0  0  0  0  0  0  0
   -7.8418    4.4195  -13.9551 C   0  0  0  0  0  0  0  0  0  0  0  0
   -8.4943    4.1531  -12.4079 Cl  0  0  0  0  0  0  0  0  0  0  0  0
   -8.6433    4.2475  -15.0050 N   0  0  0  0  0  0  0  0  0  0  0  0
   -7.9803    4.4248  -16.1568 C   0  0  0  0  0  0  0  0  0  0  0  0
   -8.7016    4.1381  -17.6755 S   0  0  0  0  0  0  0  0  0  0  0  0
   -7.2436    4.6193  -18.4327 C   0  0  0  0  0  0  0  0  0  0  0  0
   -6.2618    4.9796  -17.6305 N   0  0  0  0  0  0  0  0  0  0  0  0
   -6.6680    4.8534  -16.3011 C   0  0  0  0  0  0  0  0  0  0  0  0
  1  2  1  0
  2  3  1  0
  3  4  1  0
  4  5  1  0
  5  6  1  0
  6  7  1  0
  7  8  2  0
  8  9  1  0
  9 10  1  0
  9 11  2  0
 11 12  1  0
 12 13  1  0
 13 14  1  0
 14 15  2  0
 15 16  1  0
 16  7  1  0
 16 12  2  0
M  END
>  <energy_score>  (5202) 
-53.020985

>  <alias>  (5202) 
HXVJZLNLAJKYDO-UHFFFAOYSA-N-P95-P23-P95-601533

>  <HIPPO Pose ID>  (5202) 
91149

>  <smiles>  (5202) 
CCCCCNc1nc(Cl)nc2scnc12

>  <inchikey>  (5202) 
HXVJZLNLAJKYDO-UHFFFAOYSA-N

>  <distance_score>  (5202) 
1.30216

>  <ref_mols>  (5202) 
Z1719a,Z0472a

>  <ref_pdb>  (5202) 
Z0101a

>  <HIPPO Compound ID>  (5202) 
138681

>  <name>  (5202) 
HXVJZLNLAJKYDO-UHFFFAOYSA-N-P95-P23-P95-601533

>  <inspiration_score>  (5202) 
None

$$$$
QXUAEWPWHNQHBJ-UHFFFAOYSA-N-P23-P23-P95-601533
     RDKit          3D

 16 18  0  0  0  0  0  0  0  0999 V2000
   -6.6876    4.4910  -19.9365 C   0  0  0  0  0  0  0  0  0  0  0  0
   -7.0431    4.7855  -18.5438 C   0  0  0  0  0  0  0  0  0  0  0  0
   -6.1711    5.3512  -17.7481 N   0  0  0  0  0  0  0  0  0  0  0  0
   -6.6401    5.2814  -16.4551 C   0  0  0  0  0  0  0  0  0  0  0  0
   -5.9764    5.6666  -15.2781 C   0  0  0  0  0  0  0  0  0  0  0  0
   -4.7062    6.2257  -15.2302 N   0  0  0  0  0  0  0  0  0  0  0  0
   -4.2020    6.9497  -16.3814 C   0  0  0  0  0  0  0  0  0  0  0  0
   -3.0810    6.2395  -17.1204 C   0  0  0  0  0  0  0  0  0  0  0  0
   -1.8770    5.8782  -16.2462 C   0  0  0  0  0  0  0  0  0  0  0  0
   -2.1785    4.4718  -16.3436 O   0  0  0  0  0  0  0  0  0  0  0  0
   -3.1458    4.7353  -17.3916 C   0  0  0  0  0  0  0  0  0  0  0  0
   -6.6028    5.4765  -14.0963 N   0  0  0  0  0  0  0  0  0  0  0  0
   -7.8451    4.9506  -14.1100 C   0  0  0  0  0  0  0  0  0  0  0  0
   -8.5983    4.6287  -15.1698 N   0  0  0  0  0  0  0  0  0  0  0  0
   -7.9230    4.7842  -16.3185 C   0  0  0  0  0  0  0  0  0  0  0  0
   -8.5605    4.3925  -17.8517 S   0  0  0  0  0  0  0  0  0  0  0  0
  1  2  1  0
  2  3  2  0
  3  4  1  0
  4  5  2  0
  5  6  1  0
  6  7  1  0
  7  8  1  0
  8  9  1  0
  9 10  1  0
 10 11  1  0
  5 12  1  0
 12 13  2  0
 13 14  1  0
 14 15  2  0
 15 16  1  0
 16  2  1  0
 15  4  1  0
 11  8  1  0
M  END
>  <energy_score>  (5203) 
-62.199845

>  <alias>  (5203) 
QXUAEWPWHNQHBJ-UHFFFAOYSA-N-P23-P23-P95-601533

>  <HIPPO Pose ID>  (5203) 
91150

>  <smiles>  (5203) 
Cc1nc2c(NCC3COC3)ncnc2s1

>  <inchikey>  (5203) 
QXUAEWPWHNQHBJ-UHFFFAOYSA-N

>  <distance_score>  (5203) 
1.023989

>  <ref_mols>  (5203) 
Z1719a,Z0472a

>  <ref_pdb>  (5203) 
Z0101a

>  <HIPPO Compound ID>  (5203) 
138682

>  <name>  (5203) 
QXUAEWPWHNQHBJ-UHFFFAOYSA-N-P23-P23-P95-601533

>  <inspiration_score>  (5203) 
None

$$$$
PUTUNEVJNHJCFT-UHFFFAOYSA-N-P23-P23-P95-601533
     RDKit          3D

 16 17  0  0  0  0  0  0  0  0999 V2000
   -6.7357    4.5778  -19.8670 C   0  0  0  0  0  0  0  0  0  0  0  0
   -7.0386    4.9853  -18.4875 C   0  0  0  0  0  0  0  0  0  0  0  0
   -6.1859    5.7079  -17.8012 N   0  0  0  0  0  0  0  0  0  0  0  0
   -6.4048    5.4573  -16.4712 C   0  0  0  0  0  0  0  0  0  0  0  0
   -5.5372    5.7286  -15.4015 C   0  0  0  0  0  0  0  0  0  0  0  0
   -4.2941    6.3673  -15.5694 N   0  0  0  0  0  0  0  0  0  0  0  0
   -3.2070    5.5890  -16.1958 C   0  0  1  0  0  0  0  0  0  0  0  0
   -3.0686    4.0000  -15.4000 Cl  0  0  0  0  0  0  0  0  0  0  0  0
   -3.2458    5.4841  -17.7464 C   0  0  0  0  0  0  0  0  0  0  0  0
   -3.3050    6.8558  -18.4279 C   0  0  0  0  0  0  0  0  0  0  0  0
   -2.0395    4.7542  -18.3384 C   0  0  0  0  0  0  0  0  0  0  0  0
   -5.9627    5.4211  -14.1547 N   0  0  0  0  0  0  0  0  0  0  0  0
   -7.1794    4.8527  -14.0064 C   0  0  0  0  0  0  0  0  0  0  0  0
   -8.0809    4.5577  -14.9558 N   0  0  0  0  0  0  0  0  0  0  0  0
   -7.6113    4.8471  -16.1772 C   0  0  0  0  0  0  0  0  0  0  0  0
   -8.4218    4.4506  -17.6273 S   0  0  0  0  0  0  0  0  0  0  0  0
  1  2  1  0
  2  3  2  0
  3  4  1  0
  4  5  2  0
  5  6  1  0
  6  7  1  0
  7  8  1  1
  7  9  1  0
  9 10  1  0
  9 11  1  0
  5 12  1  0
 12 13  2  0
 13 14  1  0
 14 15  2  0
 15 16  1  0
 16  2  1  0
 15  4  1  0
M  END
>  <energy_score>  (5204) 
-44.344234

>  <alias>  (5204) 
PUTUNEVJNHJCFT-UHFFFAOYSA-N-P23-P23-P95-601533

>  <HIPPO Pose ID>  (5204) 
91162

>  <smiles>  (5204) 
Cc1nc2c(NC(Cl)C(C)C)ncnc2s1

>  <inchikey>  (5204) 
PUTUNEVJNHJCFT-UHFFFAOYSA-N

>  <distance_score>  (5204) 
0.671183

>  <ref_mols>  (5204) 
Z1719a,Z0472a

>  <ref_pdb>  (5204) 
Z0101a

>  <HIPPO Compound ID>  (5204) 
138688

>  <name>  (5204) 
PUTUNEVJNHJCFT-UHFFFAOYSA-N-P23-P23-P95-601533

>  <inspiration_score>  (5204) 
None

$$$$
YRYQHHQISOGWQS-UHFFFAOYSA-N-P95-P23-P95-601533
     RDKit          3D

 16 18  0  0  0  0  0  0  0  0999 V2000
   -7.5468    4.7679  -12.9378 Cl  0  0  0  0  0  0  0  0  0  0  0  0
   -7.2091    4.6433  -14.6105 C   0  0  0  0  0  0  0  0  0  0  0  0
   -5.9081    4.6775  -14.9459 N   0  0  0  0  0  0  0  0  0  0  0  0
   -5.5830    4.6018  -16.2593 C   0  0  0  0  0  0  0  0  0  0  0  0
   -4.2194    4.4961  -16.5333 N   0  0  0  0  0  0  0  0  0  0  0  0
   -3.6519    5.0889  -17.7393 C   0  0  0  0  0  0  0  0  0  0  0  0
   -2.9695    6.4227  -17.4622 C   0  0  0  0  0  0  0  0  0  0  0  0
   -1.8304    6.4116  -16.4080 C   0  0  0  0  0  0  0  0  0  0  0  0
   -2.9818    6.9905  -15.1229 S   0  0  0  0  0  0  0  0  0  0  0  0
   -3.7998    7.4737  -16.6829 C   0  0  0  0  0  0  0  0  0  0  0  0
   -6.6278    4.5273  -17.2065 C   0  0  0  0  0  0  0  0  0  0  0  0
   -6.5603    4.4686  -18.5927 N   0  0  0  0  0  0  0  0  0  0  0  0
   -7.7651    4.2430  -19.0689 C   0  0  0  0  0  0  0  0  0  0  0  0
   -9.0399    4.1652  -17.9318 S   0  0  0  0  0  0  0  0  0  0  0  0
   -7.9140    4.4628  -16.6890 C   0  0  0  0  0  0  0  0  0  0  0  0
   -8.2795    4.5667  -15.4027 N   0  0  0  0  0  0  0  0  0  0  0  0
  1  2  1  0
  2  3  2  0
  3  4  1  0
  4  5  1  0
  5  6  1  0
  6  7  1  0
  7  8  1  0
  8  9  1  0
  9 10  1  0
  4 11  2  0
 11 12  1  0
 12 13  2  0
 13 14  1  0
 14 15  1  0
 15 16  2  0
 16  2  1  0
 10  7  1  0
 15 11  1  0
M  END
>  <energy_score>  (5205) 
-69.515478

>  <alias>  (5205) 
YRYQHHQISOGWQS-UHFFFAOYSA-N-P95-P23-P95-601533

>  <HIPPO Pose ID>  (5205) 
91179

>  <smiles>  (5205) 
Clc1nc(NCC2CSC2)c2ncsc2n1

>  <inchikey>  (5205) 
YRYQHHQISOGWQS-UHFFFAOYSA-N

>  <distance_score>  (5205) 
1.255206

>  <ref_mols>  (5205) 
Z1719a,Z0472a

>  <ref_pdb>  (5205) 
Z0101a

>  <HIPPO Compound ID>  (5205) 
138698

>  <name>  (5205) 
YRYQHHQISOGWQS-UHFFFAOYSA-N-P95-P23-P95-601533

>  <inspiration_score>  (5205) 
None

$$$$
KXMOEHBOSOYPEN-UHFFFAOYSA-N-P95-P23-P95-601533
     RDKit          3D

 16 17  0  0  0  0  0  0  0  0999 V2000
   -4.7289    7.6789  -16.0165 C   0  0  0  0  0  0  0  0  0  0  0  0
   -4.2173    7.2540  -17.3531 C   0  0  0  0  0  0  0  0  0  0  0  0
   -3.5780    6.1185  -17.6957 C   0  0  0  0  0  0  0  0  0  0  0  0
   -3.0695    5.9617  -19.1069 C   0  0  0  0  0  0  0  0  0  0  0  0
   -3.3388    4.8988  -16.8516 C   0  0  0  0  0  0  0  0  0  0  0  0
   -4.1887    4.7900  -15.6996 N   0  0  0  0  0  0  0  0  0  0  0  0
   -5.5616    4.6693  -15.7292 C   0  0  0  0  0  0  0  0  0  0  0  0
   -6.1438    4.7061  -14.5097 N   0  0  0  0  0  0  0  0  0  0  0  0
   -7.4779    4.5921  -14.4389 C   0  0  0  0  0  0  0  0  0  0  0  0
   -8.1220    4.6892  -12.8593 Cl  0  0  0  0  0  0  0  0  0  0  0  0
   -8.3679    4.4963  -15.4272 N   0  0  0  0  0  0  0  0  0  0  0  0
   -7.7567    4.4479  -16.6210 C   0  0  0  0  0  0  0  0  0  0  0  0
   -8.6219    4.2354  -18.0748 S   0  0  0  0  0  0  0  0  0  0  0  0
   -7.1529    4.3757  -18.9413 C   0  0  0  0  0  0  0  0  0  0  0  0
   -6.0600    4.5341  -18.2252 N   0  0  0  0  0  0  0  0  0  0  0  0
   -6.3943    4.5503  -16.8718 C   0  0  0  0  0  0  0  0  0  0  0  0
  1  2  1  0
  2  3  2  3
  3  4  1  0
  3  5  1  0
  5  6  1  0
  6  7  1  0
  7  8  2  0
  8  9  1  0
  9 10  1  0
  9 11  2  0
 11 12  1  0
 12 13  1  0
 13 14  1  0
 14 15  2  0
 15 16  1  0
 16  7  1  0
 16 12  2  0
M  END
>  <energy_score>  (5206) 
-164.748487

>  <alias>  (5206) 
KXMOEHBOSOYPEN-UHFFFAOYSA-N-P95-P23-P95-601533

>  <HIPPO Pose ID>  (5206) 
91185

>  <smiles>  (5206) 
CC=C(C)CNc1nc(Cl)nc2scnc12

>  <inchikey>  (5206) 
KXMOEHBOSOYPEN-UHFFFAOYSA-N

>  <distance_score>  (5206) 
1.121488

>  <ref_mols>  (5206) 
Z1719a,Z0472a

>  <ref_pdb>  (5206) 
Z0101a

>  <HIPPO Compound ID>  (5206) 
138702

>  <name>  (5206) 
KXMOEHBOSOYPEN-UHFFFAOYSA-N-P95-P23-P95-601533

>  <inspiration_score>  (5206) 
None

$$$$
NTFGMUXRUDZOMD-UHFFFAOYSA-N-P23-P23-P95-601533
     RDKit          3D

 16 18  0  0  0  0  0  0  0  0999 V2000
   -8.1360    4.8812  -12.7065 Cl  0  0  0  0  0  0  0  0  0  0  0  0
   -7.5607    4.8100  -14.3130 C   0  0  0  0  0  0  0  0  0  0  0  0
   -6.2287    4.9056  -14.4400 N   0  0  0  0  0  0  0  0  0  0  0  0
   -5.7139    4.8250  -15.6818 C   0  0  0  0  0  0  0  0  0  0  0  0
   -4.3141    4.8115  -15.8316 N   0  0  0  0  0  0  0  0  0  0  0  0
   -3.7824    6.1701  -15.8294 C   0  0  0  0  0  0  0  0  0  0  0  0
   -3.6800    6.7100  -17.2591 C   0  0  0  0  0  0  0  0  0  0  0  0
   -2.6142    6.0055  -18.0546 C   0  0  0  0  0  0  0  0  0  0  0  0
   -2.5190    6.2644  -19.5346 C   0  0  0  0  0  0  0  0  0  0  0  0
   -2.9363    4.9110  -19.0388 C   0  0  0  0  0  0  0  0  0  0  0  0
   -6.5915    4.7158  -16.7802 C   0  0  0  0  0  0  0  0  0  0  0  0
   -6.2797    4.6818  -18.1316 N   0  0  0  0  0  0  0  0  0  0  0  0
   -7.3938    4.5274  -18.8164 C   0  0  0  0  0  0  0  0  0  0  0  0
   -8.8513    4.4689  -17.9115 S   0  0  0  0  0  0  0  0  0  0  0  0
   -7.9426    4.6565  -16.4821 C   0  0  0  0  0  0  0  0  0  0  0  0
   -8.5001    4.7238  -15.2630 N   0  0  0  0  0  0  0  0  0  0  0  0
  1  2  1  0
  2  3  2  0
  3  4  1  0
  4  5  1  0
  5  6  1  0
  6  7  1  0
  7  8  1  0
  8  9  1  0
  9 10  1  0
  4 11  2  0
 11 12  1  0
 12 13  2  0
 13 14  1  0
 14 15  1  0
 15 16  2  0
 16  2  1  0
 10  8  1  0
 15 11  1  0
M  END
>  <energy_score>  (5207) 
-81.590983

>  <alias>  (5207) 
NTFGMUXRUDZOMD-UHFFFAOYSA-N-P23-P23-P95-601533

>  <HIPPO Pose ID>  (5207) 
91196

>  <smiles>  (5207) 
Clc1nc(NCCC2CC2)c2ncsc2n1

>  <inchikey>  (5207) 
NTFGMUXRUDZOMD-UHFFFAOYSA-N

>  <distance_score>  (5207) 
0.976249

>  <ref_mols>  (5207) 
Z1719a,Z0472a

>  <ref_pdb>  (5207) 
Z0101a

>  <HIPPO Compound ID>  (5207) 
138708

>  <name>  (5207) 
NTFGMUXRUDZOMD-UHFFFAOYSA-N-P23-P23-P95-601533

>  <inspiration_score>  (5207) 
None

$$$$
VRYSMPGANYTMTK-UHFFFAOYSA-N-P23-P23-P95-601533
     RDKit          3D

 16 18  0  0  0  0  0  0  0  0999 V2000
   -6.5854    4.6248  -19.8523 C   0  0  0  0  0  0  0  0  0  0  0  0
   -6.7994    4.8645  -18.4176 C   0  0  0  0  0  0  0  0  0  0  0  0
   -5.8229    5.2899  -17.6497 N   0  0  0  0  0  0  0  0  0  0  0  0
   -6.2149    5.1676  -16.3364 C   0  0  0  0  0  0  0  0  0  0  0  0
   -5.4172    5.3425  -15.1887 C   0  0  0  0  0  0  0  0  0  0  0  0
   -4.0670    5.7703  -15.2647 N   0  0  0  0  0  0  0  0  0  0  0  0
   -3.2254    4.7165  -15.8452 C   0  0  0  0  0  0  0  0  0  0  0  0
   -2.3134    5.2786  -16.9155 C   0  0  2  0  0  0  0  0  0  0  0  0
   -2.7340    6.3158  -17.9484 C   0  0  0  0  0  0  0  0  0  0  0  0
   -2.5556    4.8889  -18.3644 C   0  0  1  0  0  0  0  0  0  0  0  0
   -1.4420    4.5428  -19.2901 C   0  0  0  0  0  0  0  0  0  0  0  0
   -5.9844    5.1293  -13.9813 N   0  0  0  0  0  0  0  0  0  0  0  0
   -7.2927    4.7951  -13.9377 C   0  0  0  0  0  0  0  0  0  0  0  0
   -8.1496    4.6438  -14.9588 N   0  0  0  0  0  0  0  0  0  0  0  0
   -7.5351    4.8043  -16.1403 C   0  0  0  0  0  0  0  0  0  0  0  0
   -8.2993    4.5588  -17.6442 S   0  0  0  0  0  0  0  0  0  0  0  0
  1  2  1  0
  2  3  2  0
  3  4  1  0
  4  5  2  0
  5  6  1  0
  6  7  1  0
  8  7  1  1
  8  9  1  0
  9 10  1  0
 10 11  1  6
  5 12  1  0
 12 13  2  0
 13 14  1  0
 14 15  2  0
 15 16  1  0
 16  2  1  0
 15  4  1  0
 10  8  1  0
M  END
>  <energy_score>  (5208) 
-54.049046

>  <alias>  (5208) 
VRYSMPGANYTMTK-UHFFFAOYSA-N-P23-P23-P95-601533

>  <HIPPO Pose ID>  (5208) 
91200

>  <smiles>  (5208) 
Cc1nc2c(NCC3CC3C)ncnc2s1

>  <inchikey>  (5208) 
VRYSMPGANYTMTK-UHFFFAOYSA-N

>  <distance_score>  (5208) 
0.983031

>  <ref_mols>  (5208) 
Z1719a,Z0472a

>  <ref_pdb>  (5208) 
Z0101a

>  <HIPPO Compound ID>  (5208) 
138711

>  <name>  (5208) 
VRYSMPGANYTMTK-UHFFFAOYSA-N-P23-P23-P95-601533

>  <inspiration_score>  (5208) 
None

$$$$
UQZGXAVJZICWIG-UHFFFAOYSA-N-P23-P23-P95-601533
     RDKit          3D

 16 17  0  0  0  0  0  0  0  0999 V2000
   -2.9845    4.3718  -18.1751 C   0  0  0  0  0  0  0  0  0  0  0  0
   -2.8091    5.8235  -17.7387 C   0  0  0  0  0  0  0  0  0  0  0  0
   -2.5204    6.6566  -18.9908 C   0  0  0  0  0  0  0  0  0  0  0  0
   -4.0383    6.3595  -16.9760 C   0  0  2  0  0  0  0  0  0  0  0  0
   -3.6614    7.9720  -16.1814 S   0  0  0  0  0  0  0  0  0  0  0  0
   -4.3914    5.4704  -15.8907 N   0  0  0  0  0  0  0  0  0  0  0  0
   -5.7399    5.1439  -15.7615 C   0  0  0  0  0  0  0  0  0  0  0  0
   -6.2060    5.0695  -14.4985 N   0  0  0  0  0  0  0  0  0  0  0  0
   -7.5032    4.7659  -14.3233 C   0  0  0  0  0  0  0  0  0  0  0  0
   -8.0199    4.7163  -12.6961 Cl  0  0  0  0  0  0  0  0  0  0  0  0
   -8.4563    4.5842  -15.2406 N   0  0  0  0  0  0  0  0  0  0  0  0
   -7.9451    4.6231  -16.4798 C   0  0  0  0  0  0  0  0  0  0  0  0
   -8.8903    4.3542  -17.8719 S   0  0  0  0  0  0  0  0  0  0  0  0
   -7.4843    4.5575  -18.8320 C   0  0  0  0  0  0  0  0  0  0  0  0
   -6.3784    4.8822  -18.1967 N   0  0  0  0  0  0  0  0  0  0  0  0
   -6.6297    4.8867  -16.8300 C   0  0  0  0  0  0  0  0  0  0  0  0
  1  2  1  0
  2  3  1  0
  2  4  1  0
  4  5  1  1
  4  6  1  0
  6  7  1  0
  7  8  2  0
  8  9  1  0
  9 10  1  0
  9 11  2  0
 11 12  1  0
 12 13  1  0
 13 14  1  0
 14 15  2  0
 15 16  1  0
 16  7  1  0
 16 12  2  0
M  END
>  <energy_score>  (5209) 
-74.290125

>  <alias>  (5209) 
UQZGXAVJZICWIG-UHFFFAOYSA-N-P23-P23-P95-601533

>  <HIPPO Pose ID>  (5209) 
91206

>  <smiles>  (5209) 
CC(C)C(S)Nc1nc(Cl)nc2scnc12

>  <inchikey>  (5209) 
UQZGXAVJZICWIG-UHFFFAOYSA-N

>  <distance_score>  (5209) 
0.773424

>  <ref_mols>  (5209) 
Z1719a,Z0472a

>  <ref_pdb>  (5209) 
Z0101a

>  <HIPPO Compound ID>  (5209) 
138714

>  <name>  (5209) 
UQZGXAVJZICWIG-UHFFFAOYSA-N-P23-P23-P95-601533

>  <inspiration_score>  (5209) 
None

$$$$
MIDPWUQFBPVRFO-UHFFFAOYSA-N-P95-P23-P95-601533
     RDKit          3D

 16 17  0  0  0  0  0  0  0  0999 V2000
   -2.8045    5.4875  -19.5449 O   0  0  0  0  0  0  0  0  0  0  0  0
   -3.1731    5.5598  -18.1665 C   0  0  0  0  0  0  0  0  0  0  0  0
   -4.0394    6.7987  -17.9827 C   0  0  0  0  0  0  0  0  0  0  0  0
   -4.5143    7.1774  -16.5784 C   0  0  0  0  0  0  0  0  0  0  0  0
   -3.9991    6.3366  -15.4233 C   0  0  0  0  0  0  0  0  0  0  0  0
   -4.3486    4.9242  -15.5484 N   0  0  0  0  0  0  0  0  0  0  0  0
   -5.7446    4.7359  -15.5261 C   0  0  0  0  0  0  0  0  0  0  0  0
   -6.2916    4.6391  -14.3021 N   0  0  0  0  0  0  0  0  0  0  0  0
   -7.6181    4.4634  -14.2268 C   0  0  0  0  0  0  0  0  0  0  0  0
   -8.2363    4.4752  -12.6368 Cl  0  0  0  0  0  0  0  0  0  0  0  0
   -8.5166    4.3873  -15.2106 N   0  0  0  0  0  0  0  0  0  0  0  0
   -7.9210    4.4120  -16.4128 C   0  0  0  0  0  0  0  0  0  0  0  0
   -8.7799    4.1779  -17.8667 S   0  0  0  0  0  0  0  0  0  0  0  0
   -7.3282    4.4365  -18.7383 C   0  0  0  0  0  0  0  0  0  0  0  0
   -6.2491    4.6772  -18.0224 N   0  0  0  0  0  0  0  0  0  0  0  0
   -6.5727    4.6136  -16.6689 C   0  0  0  0  0  0  0  0  0  0  0  0
  1  2  1  0
  2  3  1  0
  3  4  1  0
  4  5  1  0
  5  6  1  0
  6  7  1  0
  7  8  2  0
  8  9  1  0
  9 10  1  0
  9 11  2  0
 11 12  1  0
 12 13  1  0
 13 14  1  0
 14 15  2  0
 15 16  1  0
 16  7  1  0
 16 12  2  0
M  END
>  <energy_score>  (5210) 
-71.046517

>  <alias>  (5210) 
MIDPWUQFBPVRFO-UHFFFAOYSA-N-P95-P23-P95-601533

>  <HIPPO Pose ID>  (5210) 
91215

>  <smiles>  (5210) 
OCCCCNc1nc(Cl)nc2scnc12

>  <inchikey>  (5210) 
MIDPWUQFBPVRFO-UHFFFAOYSA-N

>  <distance_score>  (5210) 
1.093784

>  <ref_mols>  (5210) 
Z1719a,Z0472a

>  <ref_pdb>  (5210) 
Z0101a

>  <HIPPO Compound ID>  (5210) 
138719

>  <name>  (5210) 
MIDPWUQFBPVRFO-UHFFFAOYSA-N-P95-P23-P95-601533

>  <inspiration_score>  (5210) 
None

$$$$
DYNAVDZZNLGHEN-UHFFFAOYSA-N-P23-P23-P95-601533
     RDKit          3D

 16 18  0  0  0  0  0  0  0  0999 V2000
   -7.9961    4.7480  -12.6904 Cl  0  0  0  0  0  0  0  0  0  0  0  0
   -7.4157    4.8558  -14.2937 C   0  0  0  0  0  0  0  0  0  0  0  0
   -6.1196    5.1926  -14.4076 N   0  0  0  0  0  0  0  0  0  0  0  0
   -5.5935    5.2876  -15.6485 C   0  0  0  0  0  0  0  0  0  0  0  0
   -4.2549    5.6976  -15.6900 N   0  0  0  0  0  0  0  0  0  0  0  0
   -3.3855    5.0166  -16.6415 C   0  0  0  0  0  0  0  0  0  0  0  0
   -2.7082    6.0389  -17.5457 C   0  0  0  0  0  0  0  0  0  0  0  0
   -2.0345    5.4654  -18.8178 C   0  0  0  0  0  0  0  0  0  0  0  0
   -3.2981    5.8523  -19.6060 C   0  0  0  0  0  0  0  0  0  0  0  0
   -3.5978    6.8788  -18.4971 C   0  0  0  0  0  0  0  0  0  0  0  0
   -6.4330    5.0162  -16.7589 C   0  0  0  0  0  0  0  0  0  0  0  0
   -6.1360    5.0217  -18.1157 N   0  0  0  0  0  0  0  0  0  0  0  0
   -7.2107    4.6911  -18.8004 C   0  0  0  0  0  0  0  0  0  0  0  0
   -8.6435    4.4363  -17.8959 S   0  0  0  0  0  0  0  0  0  0  0  0
   -7.7558    4.7115  -16.4664 C   0  0  0  0  0  0  0  0  0  0  0  0
   -8.3192    4.6418  -15.2513 N   0  0  0  0  0  0  0  0  0  0  0  0
  1  2  1  0
  2  3  2  0
  3  4  1  0
  4  5  1  0
  5  6  1  0
  6  7  1  0
  7  8  1  0
  8  9  1  0
  9 10  1  0
  4 11  2  0
 11 12  1  0
 12 13  2  0
 13 14  1  0
 14 15  1  0
 15 16  2  0
 16  2  1  0
 10  7  1  0
 15 11  1  0
M  END
>  <energy_score>  (5211) 
-52.129087

>  <alias>  (5211) 
DYNAVDZZNLGHEN-UHFFFAOYSA-N-P23-P23-P95-601533

>  <HIPPO Pose ID>  (5211) 
91222

>  <smiles>  (5211) 
Clc1nc(NCC2CCC2)c2ncsc2n1

>  <inchikey>  (5211) 
DYNAVDZZNLGHEN-UHFFFAOYSA-N

>  <distance_score>  (5211) 
0.899754

>  <ref_mols>  (5211) 
Z1719a,Z0472a

>  <ref_pdb>  (5211) 
Z0101a

>  <HIPPO Compound ID>  (5211) 
138723

>  <name>  (5211) 
DYNAVDZZNLGHEN-UHFFFAOYSA-N-P23-P23-P95-601533

>  <inspiration_score>  (5211) 
None

$$$$
YAVXEIVIDUECSF-UHFFFAOYSA-N-P23-P23-P95-601533
     RDKit          3D

 16 17  0  0  0  0  0  0  0  0999 V2000
   -4.8864    7.6665  -16.0470 C   0  0  0  0  0  0  0  0  0  0  0  0
   -4.5041    6.9235  -17.1930 O   0  0  0  0  0  0  0  0  0  0  0  0
   -3.1816    6.3815  -17.1085 C   0  0  2  0  0  0  0  0  0  0  0  0
   -2.7675    5.9752  -18.5217 C   0  0  0  0  0  0  0  0  0  0  0  0
   -3.0900    5.2145  -16.1017 C   0  0  0  0  0  0  0  0  0  0  0  0
   -4.0493    4.1575  -16.3955 N   0  0  0  0  0  0  0  0  0  0  0  0
   -5.3829    4.4534  -16.0390 C   0  0  0  0  0  0  0  0  0  0  0  0
   -5.7535    4.5794  -14.7448 N   0  0  0  0  0  0  0  0  0  0  0  0
   -7.0721    4.7047  -14.4916 C   0  0  0  0  0  0  0  0  0  0  0  0
   -7.4920    4.8355  -12.8367 Cl  0  0  0  0  0  0  0  0  0  0  0  0
   -8.1059    4.7864  -15.3419 N   0  0  0  0  0  0  0  0  0  0  0  0
   -7.6850    4.6636  -16.6102 C   0  0  0  0  0  0  0  0  0  0  0  0
   -8.7408    4.5843  -17.9447 S   0  0  0  0  0  0  0  0  0  0  0  0
   -7.3795    4.4697  -18.9838 C   0  0  0  0  0  0  0  0  0  0  0  0
   -6.1948    4.4823  -18.4125 N   0  0  0  0  0  0  0  0  0  0  0  0
   -6.3766    4.5351  -17.0392 C   0  0  0  0  0  0  0  0  0  0  0  0
  1  2  1  0
  2  3  1  0
  3  4  1  6
  3  5  1  0
  5  6  1  0
  6  7  1  0
  7  8  2  0
  8  9  1  0
  9 10  1  0
  9 11  2  0
 11 12  1  0
 12 13  1  0
 13 14  1  0
 14 15  2  0
 15 16  1  0
 16  7  1  0
 16 12  2  0
M  END
>  <energy_score>  (5212) 
-91.985585

>  <alias>  (5212) 
YAVXEIVIDUECSF-UHFFFAOYSA-N-P23-P23-P95-601533

>  <HIPPO Pose ID>  (5212) 
91232

>  <smiles>  (5212) 
COC(C)CNc1nc(Cl)nc2scnc12

>  <inchikey>  (5212) 
YAVXEIVIDUECSF-UHFFFAOYSA-N

>  <distance_score>  (5212) 
1.143351

>  <ref_mols>  (5212) 
Z1719a,Z0472a

>  <ref_pdb>  (5212) 
Z0101a

>  <HIPPO Compound ID>  (5212) 
138729

>  <name>  (5212) 
YAVXEIVIDUECSF-UHFFFAOYSA-N-P23-P23-P95-601533

>  <inspiration_score>  (5212) 
None

$$$$
UDASSKTUMLKCJD-UHFFFAOYSA-N-P23-P23-P95-601533
     RDKit          3D

 16 17  0  0  0  0  0  0  0  0999 V2000
   -2.1000    6.1697  -18.6086 C   0  0  0  0  0  0  0  0  0  0  0  0
   -3.3945    5.9394  -18.3713 C   0  0  0  0  0  0  0  0  0  0  0  0
   -4.3024    6.9008  -17.6636 C   0  0  0  0  0  0  0  0  0  0  0  0
   -4.1965    6.9867  -16.1351 C   0  0  0  0  0  0  0  0  0  0  0  0
   -3.7488    5.7328  -15.3842 C   0  0  0  0  0  0  0  0  0  0  0  0
   -4.4677    4.5383  -15.7849 N   0  0  0  0  0  0  0  0  0  0  0  0
   -5.8527    4.6303  -15.5993 C   0  0  0  0  0  0  0  0  0  0  0  0
   -6.3439    4.7605  -14.3547 N   0  0  0  0  0  0  0  0  0  0  0  0
   -7.6775    4.7572  -14.2171 C   0  0  0  0  0  0  0  0  0  0  0  0
   -8.2219    4.8905  -12.6050 Cl  0  0  0  0  0  0  0  0  0  0  0  0
   -8.6325    4.7227  -15.1559 N   0  0  0  0  0  0  0  0  0  0  0  0
   -8.0944    4.6045  -16.3804 C   0  0  0  0  0  0  0  0  0  0  0  0
   -9.0232    4.4565  -17.8019 S   0  0  0  0  0  0  0  0  0  0  0  0
   -7.5748    4.4439  -18.7227 C   0  0  0  0  0  0  0  0  0  0  0  0
   -6.4480    4.5197  -18.0453 N   0  0  0  0  0  0  0  0  0  0  0  0
   -6.7465    4.5732  -16.6895 C   0  0  0  0  0  0  0  0  0  0  0  0
  1  2  2  0
  2  3  1  0
  3  4  1  0
  4  5  1  0
  5  6  1  0
  6  7  1  0
  7  8  2  0
  8  9  1  0
  9 10  1  0
  9 11  2  0
 11 12  1  0
 12 13  1  0
 13 14  1  0
 14 15  2  0
 15 16  1  0
 16  7  1  0
 16 12  2  0
M  END
>  <energy_score>  (5213) 
-72.543808

>  <alias>  (5213) 
UDASSKTUMLKCJD-UHFFFAOYSA-N-P23-P23-P95-601533

>  <HIPPO Pose ID>  (5213) 
91234

>  <smiles>  (5213) 
C=CCCCNc1nc(Cl)nc2scnc12

>  <inchikey>  (5213) 
UDASSKTUMLKCJD-UHFFFAOYSA-N

>  <distance_score>  (5213) 
1.264801

>  <ref_mols>  (5213) 
Z1719a,Z0472a

>  <ref_pdb>  (5213) 
Z0101a

>  <HIPPO Compound ID>  (5213) 
138730

>  <name>  (5213) 
UDASSKTUMLKCJD-UHFFFAOYSA-N-P23-P23-P95-601533

>  <inspiration_score>  (5213) 
None

$$$$
WBVVORMEDDXDPI-UHFFFAOYSA-N-P23-P23-P95-601533
     RDKit          3D

 16 18  0  0  0  0  0  0  0  0999 V2000
   -6.7422    4.4417  -19.9100 C   0  0  0  0  0  0  0  0  0  0  0  0
   -7.0814    4.9661  -18.5827 C   0  0  0  0  0  0  0  0  0  0  0  0
   -6.3300    5.8782  -18.0178 N   0  0  0  0  0  0  0  0  0  0  0  0
   -6.7020    6.0018  -16.7016 C   0  0  0  0  0  0  0  0  0  0  0  0
   -6.0748    6.7693  -15.7057 C   0  0  0  0  0  0  0  0  0  0  0  0
   -4.9446    7.5826  -15.9256 N   0  0  0  0  0  0  0  0  0  0  0  0
   -3.8432    6.9015  -16.6363 C   0  0  0  0  0  0  0  0  0  0  0  0
   -3.2700    5.8034  -15.7563 C   0  0  0  0  0  0  0  0  0  0  0  0
   -2.2182    4.8475  -16.3536 C   0  0  0  0  0  0  0  0  0  0  0  0
   -2.7955    3.7797  -15.3860 C   0  0  0  0  0  0  0  0  0  0  0  0
   -4.1202    4.5262  -15.4983 C   0  0  0  0  0  0  0  0  0  0  0  0
   -6.5506    6.6871  -14.4411 N   0  0  0  0  0  0  0  0  0  0  0  0
   -7.6072    5.8784  -14.2039 C   0  0  0  0  0  0  0  0  0  0  0  0
   -8.3066    5.1458  -15.0803 N   0  0  0  0  0  0  0  0  0  0  0  0
   -7.7892    5.2358  -16.3160 C   0  0  0  0  0  0  0  0  0  0  0  0
   -8.4098    4.3981  -17.6629 S   0  0  0  0  0  0  0  0  0  0  0  0
  1  2  1  0
  2  3  2  0
  3  4  1  0
  4  5  2  0
  5  6  1  0
  6  7  1  0
  7  8  1  0
  8  9  1  0
  9 10  1  0
 10 11  1  0
  5 12  1  0
 12 13  2  0
 13 14  1  0
 14 15  2  0
 15 16  1  0
 16  2  1  0
 15  4  1  0
 11  8  1  0
M  END
>  <energy_score>  (5214) 
-151.256873

>  <alias>  (5214) 
WBVVORMEDDXDPI-UHFFFAOYSA-N-P23-P23-P95-601533

>  <HIPPO Pose ID>  (5214) 
91236

>  <smiles>  (5214) 
Cc1nc2c(NCC3CCC3)ncnc2s1

>  <inchikey>  (5214) 
WBVVORMEDDXDPI-UHFFFAOYSA-N

>  <distance_score>  (5214) 
1.33348

>  <ref_mols>  (5214) 
Z1719a,Z0472a

>  <ref_pdb>  (5214) 
Z0101a

>  <HIPPO Compound ID>  (5214) 
138731

>  <name>  (5214) 
WBVVORMEDDXDPI-UHFFFAOYSA-N-P23-P23-P95-601533

>  <inspiration_score>  (5214) 
None

$$$$
JLMNHZWTCMKPML-UHFFFAOYSA-N-P23-P23-P95-601533
     RDKit          3D

 16 17  0  0  0  0  0  0  0  0999 V2000
   -1.4042    5.7032  -16.1376 C   0  0  0  0  0  0  0  0  0  0  0  0
   -2.7278    5.6782  -16.9121 C   0  0  0  0  0  0  0  0  0  0  0  0
   -2.5094    6.2551  -18.3095 C   0  0  0  0  0  0  0  0  0  0  0  0
   -3.7880    6.4851  -16.1416 C   0  0  0  0  0  0  0  0  0  0  0  0
   -4.3069    5.6978  -15.0191 N   0  0  0  0  0  0  0  0  0  0  0  0
   -5.6361    5.2714  -15.1243 C   0  0  0  0  0  0  0  0  0  0  0  0
   -6.3629    5.1779  -13.9893 N   0  0  0  0  0  0  0  0  0  0  0  0
   -7.6709    4.8508  -14.0970 C   0  0  0  0  0  0  0  0  0  0  0  0
   -8.3986    4.6663  -15.2107 N   0  0  0  0  0  0  0  0  0  0  0  0
   -7.6300    4.7282  -16.3093 C   0  0  0  0  0  0  0  0  0  0  0  0
   -8.2252    4.5842  -17.9063 S   0  0  0  0  0  0  0  0  0  0  0  0
   -6.6344    4.8391  -18.4879 C   0  0  0  0  0  0  0  0  0  0  0  0
   -6.2696    4.9522  -19.9064 C   0  0  0  0  0  0  0  0  0  0  0  0
   -5.8160    6.6687  -20.2417 Cl  0  0  0  0  0  0  0  0  0  0  0  0
   -5.7004    4.9718  -17.5819 N   0  0  0  0  0  0  0  0  0  0  0  0
   -6.2710    4.9763  -16.3396 C   0  0  0  0  0  0  0  0  0  0  0  0
  1  2  1  0
  2  3  1  0
  2  4  1  0
  4  5  1  0
  5  6  1  0
  6  7  2  0
  7  8  1  0
  8  9  2  0
  9 10  1  0
 10 11  1  0
 11 12  1  0
 12 13  1  0
 13 14  1  0
 12 15  2  0
 15 16  1  0
 16  6  1  0
 16 10  2  0
M  END
>  <energy_score>  (5215) 
-66.876782

>  <alias>  (5215) 
JLMNHZWTCMKPML-UHFFFAOYSA-N-P23-P23-P95-601533

>  <HIPPO Pose ID>  (5215) 
91242

>  <smiles>  (5215) 
CC(C)CNc1ncnc2sc(CCl)nc12

>  <inchikey>  (5215) 
JLMNHZWTCMKPML-UHFFFAOYSA-N

>  <distance_score>  (5215) 
1.105885

>  <ref_mols>  (5215) 
Z1719a,Z0472a

>  <ref_pdb>  (5215) 
Z0101a

>  <HIPPO Compound ID>  (5215) 
138734

>  <name>  (5215) 
JLMNHZWTCMKPML-UHFFFAOYSA-N-P23-P23-P95-601533

>  <inspiration_score>  (5215) 
None

$$$$
NUOZIHOHIRPYCK-UHFFFAOYSA-N-P23-P23-P95-601533
     RDKit          3D

 16 17  0  0  0  0  0  0  0  0999 V2000
   -2.0248    4.2661  -14.3877 C   0  0  0  0  0  0  0  0  0  0  0  0
   -1.9908    5.2817  -15.5194 C   0  0  0  0  0  0  0  0  0  0  0  0
   -3.3599    5.4271  -16.1732 C   0  0  2  0  0  0  0  0  0  0  0  0
   -3.2110    6.2663  -17.3053 O   0  0  0  0  0  0  0  0  0  0  0  0
   -4.2842    6.0391  -15.2257 N   0  0  0  0  0  0  0  0  0  0  0  0
   -5.5935    5.5462  -15.2520 C   0  0  0  0  0  0  0  0  0  0  0  0
   -6.2487    5.3113  -14.0964 N   0  0  0  0  0  0  0  0  0  0  0  0
   -7.5275    4.8652  -14.1750 C   0  0  0  0  0  0  0  0  0  0  0  0
   -8.2736    4.6370  -15.2724 N   0  0  0  0  0  0  0  0  0  0  0  0
   -7.5693    4.8580  -16.3929 C   0  0  0  0  0  0  0  0  0  0  0  0
   -8.1533    4.6198  -17.9834 S   0  0  0  0  0  0  0  0  0  0  0  0
   -6.6204    5.0975  -18.5833 C   0  0  0  0  0  0  0  0  0  0  0  0
   -6.2102    5.0773  -19.9918 C   0  0  0  0  0  0  0  0  0  0  0  0
   -5.6841    6.7438  -20.4528 Cl  0  0  0  0  0  0  0  0  0  0  0  0
   -5.7422    5.4779  -17.6935 N   0  0  0  0  0  0  0  0  0  0  0  0
   -6.2670    5.3075  -16.4498 C   0  0  0  0  0  0  0  0  0  0  0  0
  1  2  1  0
  2  3  1  0
  3  4  1  6
  3  5  1  0
  5  6  1  0
  6  7  2  0
  7  8  1  0
  8  9  2  0
  9 10  1  0
 10 11  1  0
 11 12  1  0
 12 13  1  0
 13 14  1  0
 12 15  2  0
 15 16  1  0
 16  6  1  0
 16 10  2  0
M  END
>  <energy_score>  (5216) 
-84.075364

>  <alias>  (5216) 
NUOZIHOHIRPYCK-UHFFFAOYSA-N-P23-P23-P95-601533

>  <HIPPO Pose ID>  (5216) 
91244

>  <smiles>  (5216) 
CCC(O)Nc1ncnc2sc(CCl)nc12

>  <inchikey>  (5216) 
NUOZIHOHIRPYCK-UHFFFAOYSA-N

>  <distance_score>  (5216) 
0.865013

>  <ref_mols>  (5216) 
Z1719a,Z0472a

>  <ref_pdb>  (5216) 
Z0101a

>  <HIPPO Compound ID>  (5216) 
138735

>  <name>  (5216) 
NUOZIHOHIRPYCK-UHFFFAOYSA-N-P23-P23-P95-601533

>  <inspiration_score>  (5216) 
None

$$$$
FLSOVGDWOUKALP-UHFFFAOYSA-N-P95-P23-P95-601533
     RDKit          3D

 17 18  0  0  0  0  0  0  0  0999 V2000
   -3.0757    6.2491  -18.4218 C   0  0  0  0  0  0  0  0  0  0  0  0
   -3.3661    5.9819  -16.9614 C   0  0  0  0  0  0  0  0  0  0  0  0
   -2.9856    4.8114  -16.4352 C   0  0  0  0  0  0  0  0  0  0  0  0
   -3.0620    4.2214  -14.6859 Br  0  0  0  0  0  0  0  0  0  0  0  0
   -4.0673    7.1295  -16.2787 C   0  0  0  0  0  0  0  0  0  0  0  0
   -4.8180    6.8233  -15.0757 N   0  0  0  0  0  0  0  0  0  0  0  0
   -5.9583    6.0284  -15.1185 C   0  0  0  0  0  0  0  0  0  0  0  0
   -6.4612    5.6207  -13.9296 N   0  0  0  0  0  0  0  0  0  0  0  0
   -7.5701    4.8529  -13.9263 C   0  0  0  0  0  0  0  0  0  0  0  0
   -8.2734    4.4153  -14.9761 N   0  0  0  0  0  0  0  0  0  0  0  0
   -7.7004    4.7687  -16.1339 C   0  0  0  0  0  0  0  0  0  0  0  0
   -8.2403    4.2316  -17.6546 S   0  0  0  0  0  0  0  0  0  0  0  0
   -6.8646    4.9758  -18.3731 C   0  0  0  0  0  0  0  0  0  0  0  0
   -6.3137    4.6790  -19.7129 C   0  0  0  0  0  0  0  0  0  0  0  0
   -7.1978    3.4886  -20.6124 Cl  0  0  0  0  0  0  0  0  0  0  0  0
   -6.2163    5.8062  -17.5920 N   0  0  0  0  0  0  0  0  0  0  0  0
   -6.5887    5.5743  -16.2892 C   0  0  0  0  0  0  0  0  0  0  0  0
  1  2  1  0
  2  3  2  3
  3  4  1  0
  2  5  1  0
  5  6  1  0
  6  7  1  0
  7  8  2  0
  8  9  1  0
  9 10  2  0
 10 11  1  0
 11 12  1  0
 12 13  1  0
 13 14  1  0
 14 15  1  0
 13 16  2  0
 16 17  1  0
 17  7  1  0
 17 11  2  0
M  END
>  <energy_score>  (5217) 
-60.712199

>  <alias>  (5217) 
FLSOVGDWOUKALP-UHFFFAOYSA-N-P95-P23-P95-601533

>  <HIPPO Pose ID>  (5217) 
91265

>  <smiles>  (5217) 
CC(=CBr)CNc1ncnc2sc(CCl)nc12

>  <inchikey>  (5217) 
FLSOVGDWOUKALP-UHFFFAOYSA-N

>  <distance_score>  (5217) 
0.904907

>  <ref_mols>  (5217) 
Z1719a,Z0472a

>  <ref_pdb>  (5217) 
Z0101a

>  <HIPPO Compound ID>  (5217) 
138745

>  <name>  (5217) 
FLSOVGDWOUKALP-UHFFFAOYSA-N-P95-P23-P95-601533

>  <inspiration_score>  (5217) 
None

$$$$
CMTXTFJCOAESLY-UHFFFAOYSA-N-P23-P23-P95-601533
     RDKit          3D

 17 18  0  0  0  0  0  0  0  0999 V2000
   -1.5920    4.6945  -14.5866 C   0  0  0  0  0  0  0  0  0  0  0  0
   -1.6830    5.0509  -15.9614 O   0  0  0  0  0  0  0  0  0  0  0  0
   -2.7409    5.9766  -16.2251 C   0  0  1  0  0  0  0  0  0  0  0  0
   -2.5932    6.4237  -17.6770 C   0  0  0  0  0  0  0  0  0  0  0  0
   -4.1175    5.3706  -15.9133 C   0  0  0  0  0  0  0  0  0  0  0  0
   -5.0235    6.4114  -15.3679 N   0  0  0  0  0  0  0  0  0  0  0  0
   -6.3039    5.7994  -15.3324 C   0  0  0  0  0  0  0  0  0  0  0  0
   -6.7851    5.2173  -14.2193 N   0  0  0  0  0  0  0  0  0  0  0  0
   -7.9313    4.5088  -14.3327 C   0  0  0  0  0  0  0  0  0  0  0  0
   -8.6625    4.2724  -15.4386 N   0  0  0  0  0  0  0  0  0  0  0  0
   -8.0933    4.8058  -16.5265 C   0  0  0  0  0  0  0  0  0  0  0  0
   -8.5282    4.4508  -18.1387 S   0  0  0  0  0  0  0  0  0  0  0  0
   -7.1009    5.2742  -18.6522 C   0  0  0  0  0  0  0  0  0  0  0  0
   -6.4222    5.0076  -19.9383 C   0  0  0  0  0  0  0  0  0  0  0  0
   -4.6895    4.6759  -19.6048 Cl  0  0  0  0  0  0  0  0  0  0  0  0
   -6.5757    6.0865  -17.7611 N   0  0  0  0  0  0  0  0  0  0  0  0
   -6.9912    5.6297  -16.5377 C   0  0  0  0  0  0  0  0  0  0  0  0
  1  2  1  0
  2  3  1  0
  3  4  1  6
  3  5  1  0
  5  6  1  0
  6  7  1  0
  7  8  2  0
  8  9  1  0
  9 10  2  0
 10 11  1  0
 11 12  1  0
 12 13  1  0
 13 14  1  0
 14 15  1  0
 13 16  2  0
 16 17  1  0
 17  7  1  0
 17 11  2  0
M  END
>  <energy_score>  (5218) 
-26.684131

>  <alias>  (5218) 
CMTXTFJCOAESLY-UHFFFAOYSA-N-P23-P23-P95-601533

>  <HIPPO Pose ID>  (5218) 
91268

>  <smiles>  (5218) 
COC(C)CNc1ncnc2sc(CCl)nc12

>  <inchikey>  (5218) 
CMTXTFJCOAESLY-UHFFFAOYSA-N

>  <distance_score>  (5218) 
1.0828

>  <ref_mols>  (5218) 
Z1719a,Z0472a

>  <ref_pdb>  (5218) 
Z0101a

>  <HIPPO Compound ID>  (5218) 
138749

>  <name>  (5218) 
CMTXTFJCOAESLY-UHFFFAOYSA-N-P23-P23-P95-601533

>  <inspiration_score>  (5218) 
None

$$$$
NTYTURJRTZUZDQ-UHFFFAOYSA-N-P95-P23-P95-601533
     RDKit          3D

 17 19  0  0  0  0  0  0  0  0999 V2000
   -5.2097    6.7230  -20.3963 Cl  0  0  0  0  0  0  0  0  0  0  0  0
   -5.8425    5.0965  -19.9700 C   0  0  0  0  0  0  0  0  0  0  0  0
   -6.4568    5.1184  -18.6255 C   0  0  0  0  0  0  0  0  0  0  0  0
   -5.8407    5.6790  -17.6136 N   0  0  0  0  0  0  0  0  0  0  0  0
   -6.4697    5.3437  -16.4383 C   0  0  0  0  0  0  0  0  0  0  0  0
   -6.0651    5.6424  -15.1236 C   0  0  0  0  0  0  0  0  0  0  0  0
   -4.9771    6.4314  -14.7744 N   0  0  0  0  0  0  0  0  0  0  0  0
   -3.9685    6.7956  -15.7512 C   0  0  0  0  0  0  0  0  0  0  0  0
   -3.1275    5.5921  -16.1588 C   0  0  0  0  0  0  0  0  0  0  0  0
   -2.0073    5.8673  -17.1823 C   0  0  0  0  0  0  0  0  0  0  0  0
   -1.0174    5.9445  -16.0062 C   0  0  0  0  0  0  0  0  0  0  0  0
   -2.0475    5.2437  -15.1141 C   0  0  0  0  0  0  0  0  0  0  0  0
   -6.7841    5.1182  -14.1061 N   0  0  0  0  0  0  0  0  0  0  0  0
   -7.8829    4.3918  -14.4013 C   0  0  0  0  0  0  0  0  0  0  0  0
   -8.4000    4.1263  -15.6092 N   0  0  0  0  0  0  0  0  0  0  0  0
   -7.6229    4.5981  -16.5919 C   0  0  0  0  0  0  0  0  0  0  0  0
   -7.9300    4.3234  -18.2504 S   0  0  0  0  0  0  0  0  0  0  0  0
  1  2  1  0
  2  3  1  0
  3  4  2  0
  4  5  1  0
  5  6  2  0
  6  7  1  0
  7  8  1  0
  8  9  1  0
  9 10  1  0
 10 11  1  0
 11 12  1  0
  6 13  1  0
 13 14  2  0
 14 15  1  0
 15 16  2  0
 16 17  1  0
 17  3  1  0
 16  5  1  0
 12  9  1  0
M  END
>  <energy_score>  (5219) 
-69.436349

>  <alias>  (5219) 
NTYTURJRTZUZDQ-UHFFFAOYSA-N-P95-P23-P95-601533

>  <HIPPO Pose ID>  (5219) 
91271

>  <smiles>  (5219) 
ClCc1nc2c(NCC3CCC3)ncnc2s1

>  <inchikey>  (5219) 
NTYTURJRTZUZDQ-UHFFFAOYSA-N

>  <distance_score>  (5219) 
1.505979

>  <ref_mols>  (5219) 
Z1719a,Z0472a

>  <ref_pdb>  (5219) 
Z0101a

>  <HIPPO Compound ID>  (5219) 
138750

>  <name>  (5219) 
NTYTURJRTZUZDQ-UHFFFAOYSA-N-P95-P23-P95-601533

>  <inspiration_score>  (5219) 
None

$$$$
BZJTYKDQOUSLPB-UHFFFAOYSA-N-P95-P23-P95-601533
     RDKit          3D

 17 19  0  0  0  0  0  0  0  0999 V2000
   -2.3984    5.4199  -18.3285 C   0  0  0  0  0  0  0  0  0  0  0  0
   -2.6037    5.4322  -17.0092 C   0  0  0  0  0  0  0  0  0  0  0  0
   -3.3123    4.4609  -16.0690 C   0  0  0  0  0  0  0  0  0  0  0  0
   -3.2855    5.7034  -15.1757 C   0  0  2  0  0  0  0  0  0  0  0  0
   -4.5128    6.4658  -15.1216 N   0  0  0  0  0  0  0  0  0  0  0  0
   -5.7550    5.8005  -15.0326 C   0  0  0  0  0  0  0  0  0  0  0  0
   -6.2550    5.3758  -13.8565 N   0  0  0  0  0  0  0  0  0  0  0  0
   -7.4428    4.7306  -13.8719 C   0  0  0  0  0  0  0  0  0  0  0  0
   -8.2087    4.4247  -14.9312 N   0  0  0  0  0  0  0  0  0  0  0  0
   -7.6226    4.7791  -16.0825 C   0  0  0  0  0  0  0  0  0  0  0  0
   -8.1891    4.3472  -17.6248 S   0  0  0  0  0  0  0  0  0  0  0  0
   -6.7564    5.0231  -18.3162 C   0  0  0  0  0  0  0  0  0  0  0  0
   -6.2703    4.7726  -19.6945 C   0  0  0  0  0  0  0  0  0  0  0  0
   -7.1523    3.5458  -20.5646 Cl  0  0  0  0  0  0  0  0  0  0  0  0
   -6.0245    5.7444  -17.4933 N   0  0  0  0  0  0  0  0  0  0  0  0
   -6.4493    5.4900  -16.2097 C   0  0  0  0  0  0  0  0  0  0  0  0
   -2.3086    6.2851  -16.0965 O   0  0  0  0  0  0  0  0  0  0  0  0
  1  2  2  0
  2  3  1  0
  3  4  1  0
  4  5  1  6
  5  6  1  0
  6  7  2  0
  7  8  1  0
  8  9  2  0
  9 10  1  0
 10 11  1  0
 11 12  1  0
 12 13  1  0
 13 14  1  0
 12 15  2  0
 15 16  1  0
  4 17  1  0
 17  2  1  0
 16  6  1  0
 16 10  2  0
M  END
>  <energy_score>  (5220) 
-64.212277

>  <alias>  (5220) 
BZJTYKDQOUSLPB-UHFFFAOYSA-N-P95-P23-P95-601533

>  <HIPPO Pose ID>  (5220) 
91279

>  <smiles>  (5220) 
C=C1CC(Nc2ncnc3sc(CCl)nc23)O1

>  <inchikey>  (5220) 
BZJTYKDQOUSLPB-UHFFFAOYSA-N

>  <distance_score>  (5220) 
1.049339

>  <ref_mols>  (5220) 
Z1719a,Z0472a

>  <ref_pdb>  (5220) 
Z0101a

>  <HIPPO Compound ID>  (5220) 
138754

>  <name>  (5220) 
BZJTYKDQOUSLPB-UHFFFAOYSA-N-P95-P23-P95-601533

>  <inspiration_score>  (5220) 
None

$$$$
WNNBSWVDZGYUOH-UHFFFAOYSA-N-P23-P23-P95-601533
     RDKit          3D

 17 18  0  0  0  0  0  0  0  0999 V2000
   -1.4638    5.6339  -15.7209 C   0  0  0  0  0  0  0  0  0  0  0  0
   -2.7055    5.9182  -16.5670 C   0  0  0  0  0  0  0  0  0  0  0  0
   -2.3136    6.6949  -17.8227 C   0  0  0  0  0  0  0  0  0  0  0  0
   -3.2092    4.7143  -16.9525 F   0  0  0  0  0  0  0  0  0  0  0  0
   -3.7375    6.7213  -15.7371 C   0  0  0  0  0  0  0  0  0  0  0  0
   -4.4246    5.9014  -14.7497 N   0  0  0  0  0  0  0  0  0  0  0  0
   -5.7112    5.4331  -14.9921 C   0  0  0  0  0  0  0  0  0  0  0  0
   -6.4251    5.0515  -13.9070 N   0  0  0  0  0  0  0  0  0  0  0  0
   -7.6695    4.5595  -14.0917 C   0  0  0  0  0  0  0  0  0  0  0  0
   -8.3493    4.4292  -15.2390 N   0  0  0  0  0  0  0  0  0  0  0  0
   -7.6006    4.7835  -16.2925 C   0  0  0  0  0  0  0  0  0  0  0  0
   -8.1181    4.6089  -17.9106 S   0  0  0  0  0  0  0  0  0  0  0  0
   -6.5814    5.1731  -18.4246 C   0  0  0  0  0  0  0  0  0  0  0  0
   -6.1298    5.0969  -19.8291 C   0  0  0  0  0  0  0  0  0  0  0  0
   -4.3297    4.9175  -19.8554 Cl  0  0  0  0  0  0  0  0  0  0  0  0
   -5.8204    5.6746  -17.4799 N   0  0  0  0  0  0  0  0  0  0  0  0
   -6.3217    5.3107  -16.2549 C   0  0  0  0  0  0  0  0  0  0  0  0
  1  2  1  0
  2  3  1  0
  2  4  1  0
  2  5  1  0
  5  6  1  0
  6  7  1  0
  7  8  2  0
  8  9  1  0
  9 10  2  0
 10 11  1  0
 11 12  1  0
 12 13  1  0
 13 14  1  0
 14 15  1  0
 13 16  2  0
 16 17  1  0
 17  7  1  0
 17 11  2  0
M  END
>  <energy_score>  (5221) 
-63.302092

>  <alias>  (5221) 
WNNBSWVDZGYUOH-UHFFFAOYSA-N-P23-P23-P95-601533

>  <HIPPO Pose ID>  (5221) 
91280

>  <smiles>  (5221) 
CC(C)(F)CNc1ncnc2sc(CCl)nc12

>  <inchikey>  (5221) 
WNNBSWVDZGYUOH-UHFFFAOYSA-N

>  <distance_score>  (5221) 
1.232527

>  <ref_mols>  (5221) 
Z1719a,Z0472a

>  <ref_pdb>  (5221) 
Z0101a

>  <HIPPO Compound ID>  (5221) 
138755

>  <name>  (5221) 
WNNBSWVDZGYUOH-UHFFFAOYSA-N-P23-P23-P95-601533

>  <inspiration_score>  (5221) 
None

$$$$
JDHGLMVEMQODTB-UHFFFAOYSA-N-P23-P23-P95-601533
     RDKit          3D

 17 19  0  0  0  0  0  0  0  0999 V2000
   -2.3015    4.5169  -14.8072 O   0  0  0  0  0  0  0  0  0  0  0  0
   -3.1463    4.8807  -15.7474 C   0  0  1  0  0  0  0  0  0  0  0  0
   -4.1340    5.5670  -14.9299 N   0  0  0  0  0  0  0  0  0  0  0  0
   -5.4752    5.2078  -15.0782 C   0  0  0  0  0  0  0  0  0  0  0  0
   -6.2117    4.9734  -13.9604 N   0  0  0  0  0  0  0  0  0  0  0  0
   -7.5087    4.6363  -14.1005 C   0  0  0  0  0  0  0  0  0  0  0  0
   -8.2391    4.5557  -15.2247 N   0  0  0  0  0  0  0  0  0  0  0  0
   -7.4773    4.7932  -16.3047 C   0  0  0  0  0  0  0  0  0  0  0  0
   -8.0746    4.6956  -17.9046 S   0  0  0  0  0  0  0  0  0  0  0  0
   -6.5172    5.1138  -18.4749 C   0  0  0  0  0  0  0  0  0  0  0  0
   -6.1408    5.1485  -19.8954 C   0  0  0  0  0  0  0  0  0  0  0  0
   -5.7080    6.8348  -20.3597 Cl  0  0  0  0  0  0  0  0  0  0  0  0
   -5.6215    5.3849  -17.5621 N   0  0  0  0  0  0  0  0  0  0  0  0
   -6.1357    5.1368  -16.3161 C   0  0  0  0  0  0  0  0  0  0  0  0
   -2.4703    5.9071  -16.6350 C   0  0  2  0  0  0  0  0  0  0  0  0
   -2.6974    5.9207  -18.1273 C   0  0  0  0  0  0  0  0  0  0  0  0
   -1.4743    5.4345  -17.5750 O   0  0  0  0  0  0  0  0  0  0  0  0
  2  1  1  1
  2  3  1  0
  3  4  1  0
  4  5  2  0
  5  6  1  0
  6  7  2  0
  7  8  1  0
  8  9  1  0
  9 10  1  0
 10 11  1  0
 11 12  1  0
 10 13  2  0
 13 14  1  0
  2 15  1  0
 15 16  1  6
 16 17  1  0
 14  4  1  0
 17 15  1  0
 14  8  2  0
M  CHG  1   1  -1
M  END
>  <energy_score>  (5222) 
-84.770636

>  <alias>  (5222) 
JDHGLMVEMQODTB-UHFFFAOYSA-N-P23-P23-P95-601533

>  <HIPPO Pose ID>  (5222) 
91284

>  <smiles>  (5222) 
[O-]C(Nc1ncnc2sc(CCl)nc12)C1CO1

>  <inchikey>  (5222) 
JDHGLMVEMQODTB-UHFFFAOYSA-N

>  <distance_score>  (5222) 
0.928136

>  <ref_mols>  (5222) 
Z1719a,Z0472a

>  <ref_pdb>  (5222) 
Z0101a

>  <HIPPO Compound ID>  (5222) 
138758

>  <name>  (5222) 
JDHGLMVEMQODTB-UHFFFAOYSA-N-P23-P23-P95-601533

>  <inspiration_score>  (5222) 
None

$$$$
FWVGCFNUMVJOOG-UHFFFAOYSA-N-P23-P23-P95-601533
     RDKit          3D

 17 18  0  0  0  0  0  0  0  0999 V2000
   -1.1152    5.0693  -14.6112 C   0  0  0  0  0  0  0  0  0  0  0  0
   -1.4886    5.5140  -15.9869 C   0  0  0  0  0  0  0  0  0  0  0  0
   -2.6548    5.2606  -16.6042 C   0  0  0  0  0  0  0  0  0  0  0  0
   -2.9273    5.8045  -17.9813 C   0  0  0  0  0  0  0  0  0  0  0  0
   -3.7283    4.4312  -15.9583 C   0  0  0  0  0  0  0  0  0  0  0  0
   -4.4759    5.2825  -15.0354 N   0  0  0  0  0  0  0  0  0  0  0  0
   -5.8614    5.0953  -15.1547 C   0  0  0  0  0  0  0  0  0  0  0  0
   -6.5849    4.8168  -14.0535 N   0  0  0  0  0  0  0  0  0  0  0  0
   -7.8977    4.5328  -14.2233 C   0  0  0  0  0  0  0  0  0  0  0  0
   -8.6148    4.5070  -15.3636 N   0  0  0  0  0  0  0  0  0  0  0  0
   -7.8455    4.7765  -16.4290 C   0  0  0  0  0  0  0  0  0  0  0  0
   -8.3555    4.6561  -18.0594 S   0  0  0  0  0  0  0  0  0  0  0  0
   -6.7727    5.0909  -18.5568 C   0  0  0  0  0  0  0  0  0  0  0  0
   -6.2766    5.0757  -19.9420 C   0  0  0  0  0  0  0  0  0  0  0  0
   -5.7092    6.7314  -20.3829 Cl  0  0  0  0  0  0  0  0  0  0  0  0
   -5.9387    5.3967  -17.5989 N   0  0  0  0  0  0  0  0  0  0  0  0
   -6.5125    5.1239  -16.3928 C   0  0  0  0  0  0  0  0  0  0  0  0
  1  2  1  0
  2  3  2  3
  3  4  1  0
  3  5  1  0
  5  6  1  0
  6  7  1  0
  7  8  2  0
  8  9  1  0
  9 10  2  0
 10 11  1  0
 11 12  1  0
 12 13  1  0
 13 14  1  0
 14 15  1  0
 13 16  2  0
 16 17  1  0
 17  7  1  0
 17 11  2  0
M  END
>  <energy_score>  (5223) 
-45.45584

>  <alias>  (5223) 
FWVGCFNUMVJOOG-UHFFFAOYSA-N-P23-P23-P95-601533

>  <HIPPO Pose ID>  (5223) 
91286

>  <smiles>  (5223) 
CC=C(C)CNc1ncnc2sc(CCl)nc12

>  <inchikey>  (5223) 
FWVGCFNUMVJOOG-UHFFFAOYSA-N

>  <distance_score>  (5223) 
1.004249

>  <ref_mols>  (5223) 
Z1719a,Z0472a

>  <ref_pdb>  (5223) 
Z0101a

>  <HIPPO Compound ID>  (5223) 
138759

>  <name>  (5223) 
FWVGCFNUMVJOOG-UHFFFAOYSA-N-P23-P23-P95-601533

>  <inspiration_score>  (5223) 
None

$$$$
DAHMEVQBFWGGJH-UHFFFAOYSA-N-P95-P23-P95-601533
     RDKit          3D

 17 19  0  0  0  0  0  0  0  0999 V2000
   -7.1291    3.5640  -20.5588 Cl  0  0  0  0  0  0  0  0  0  0  0  0
   -6.2686    4.8074  -19.6842 C   0  0  0  0  0  0  0  0  0  0  0  0
   -6.7671    5.0453  -18.3071 C   0  0  0  0  0  0  0  0  0  0  0  0
   -6.0363    5.7409  -17.4608 N   0  0  0  0  0  0  0  0  0  0  0  0
   -6.4116    5.3853  -16.1858 C   0  0  0  0  0  0  0  0  0  0  0  0
   -5.6734    5.5631  -15.0041 C   0  0  0  0  0  0  0  0  0  0  0  0
   -4.4063    6.1846  -15.0140 N   0  0  0  0  0  0  0  0  0  0  0  0
   -3.3303    5.2060  -15.2457 C   0  0  0  0  0  0  0  0  0  0  0  0
   -3.1994    4.7978  -16.7176 C   0  0  0  0  0  0  0  0  0  0  0  0
   -2.8706    5.9222  -17.6582 C   0  0  0  0  0  0  0  0  0  0  0  0
   -2.2271    5.6120  -18.9832 C   0  0  0  0  0  0  0  0  0  0  0  0
   -1.4428    6.3250  -17.9155 C   0  0  0  0  0  0  0  0  0  0  0  0
   -6.1900    5.0918  -13.8501 N   0  0  0  0  0  0  0  0  0  0  0  0
   -7.4111    4.5163  -13.8859 C   0  0  0  0  0  0  0  0  0  0  0  0
   -8.2018    4.3132  -14.9493 N   0  0  0  0  0  0  0  0  0  0  0  0
   -7.6119    4.7128  -16.0829 C   0  0  0  0  0  0  0  0  0  0  0  0
   -8.2099    4.3737  -17.6376 S   0  0  0  0  0  0  0  0  0  0  0  0
  1  2  1  0
  2  3  1  0
  3  4  2  0
  4  5  1  0
  5  6  2  0
  6  7  1  0
  7  8  1  0
  8  9  1  0
  9 10  1  0
 10 11  1  0
 11 12  1  0
  6 13  1  0
 13 14  2  0
 14 15  1  0
 15 16  2  0
 16 17  1  0
 17  3  1  0
 16  5  1  0
 12 10  1  0
M  END
>  <energy_score>  (5224) 
-61.38062

>  <alias>  (5224) 
DAHMEVQBFWGGJH-UHFFFAOYSA-N-P95-P23-P95-601533

>  <HIPPO Pose ID>  (5224) 
91289

>  <smiles>  (5224) 
ClCc1nc2c(NCCC3CC3)ncnc2s1

>  <inchikey>  (5224) 
DAHMEVQBFWGGJH-UHFFFAOYSA-N

>  <distance_score>  (5224) 
0.949162

>  <ref_mols>  (5224) 
Z1719a,Z0472a

>  <ref_pdb>  (5224) 
Z0101a

>  <HIPPO Compound ID>  (5224) 
138761

>  <name>  (5224) 
DAHMEVQBFWGGJH-UHFFFAOYSA-N-P95-P23-P95-601533

>  <inspiration_score>  (5224) 
None

$$$$
GUGCBAKVLDACSO-UHFFFAOYSA-N-P95-P23-P95-601533
     RDKit          3D

 17 19  0  0  0  0  0  0  0  0999 V2000
   -5.1473    6.4903  -20.5095 Cl  0  0  0  0  0  0  0  0  0  0  0  0
   -5.9852    4.9702  -19.9963 C   0  0  0  0  0  0  0  0  0  0  0  0
   -6.6272    5.1771  -18.6809 C   0  0  0  0  0  0  0  0  0  0  0  0
   -6.0793    5.9823  -17.8071 N   0  0  0  0  0  0  0  0  0  0  0  0
   -6.5274    5.6766  -16.5534 C   0  0  0  0  0  0  0  0  0  0  0  0
   -5.9817    6.1151  -15.3361 C   0  0  0  0  0  0  0  0  0  0  0  0
   -4.8812    6.9691  -15.2188 N   0  0  0  0  0  0  0  0  0  0  0  0
   -3.9549    7.1711  -16.3450 C   0  0  0  0  0  0  0  0  0  0  0  0
   -2.9547    6.0512  -16.6307 C   0  0  0  0  0  0  0  0  0  0  0  0
   -1.9629    5.7426  -15.4746 C   0  0  0  0  0  0  0  0  0  0  0  0
   -2.9720    4.3146  -14.9767 S   0  0  0  0  0  0  0  0  0  0  0  0
   -3.3785    4.5660  -16.7378 C   0  0  0  0  0  0  0  0  0  0  0  0
   -6.5381    5.6391  -14.1978 N   0  0  0  0  0  0  0  0  0  0  0  0
   -7.5879    4.7904  -14.2978 C   0  0  0  0  0  0  0  0  0  0  0  0
   -8.1930    4.3376  -15.4080 N   0  0  0  0  0  0  0  0  0  0  0  0
   -7.5837    4.7877  -16.5128 C   0  0  0  0  0  0  0  0  0  0  0  0
   -7.9705    4.2799  -18.1039 S   0  0  0  0  0  0  0  0  0  0  0  0
  1  2  1  0
  2  3  1  0
  3  4  2  0
  4  5  1  0
  5  6  2  0
  6  7  1  0
  7  8  1  0
  8  9  1  0
  9 10  1  0
 10 11  1  0
 11 12  1  0
  6 13  1  0
 13 14  2  0
 14 15  1  0
 15 16  2  0
 16 17  1  0
 17  3  1  0
 16  5  1  0
 12  9  1  0
M  END
>  <energy_score>  (5225) 
-47.06442

>  <alias>  (5225) 
GUGCBAKVLDACSO-UHFFFAOYSA-N-P95-P23-P95-601533

>  <HIPPO Pose ID>  (5225) 
91293

>  <smiles>  (5225) 
ClCc1nc2c(NCC3CSC3)ncnc2s1

>  <inchikey>  (5225) 
GUGCBAKVLDACSO-UHFFFAOYSA-N

>  <distance_score>  (5225) 
1.221154

>  <ref_mols>  (5225) 
Z1719a,Z0472a

>  <ref_pdb>  (5225) 
Z0101a

>  <HIPPO Compound ID>  (5225) 
138764

>  <name>  (5225) 
GUGCBAKVLDACSO-UHFFFAOYSA-N-P95-P23-P95-601533

>  <inspiration_score>  (5225) 
None

$$$$
NVQNXQYWXTYJSB-UHFFFAOYSA-N-P23-P23-P95-601533
     RDKit          3D

 17 18  0  0  0  0  0  0  0  0999 V2000
   -2.1984    7.5713  -17.0794 C   0  0  0  0  0  0  0  0  0  0  0  0
   -2.6551    6.1494  -16.6867 C   0  0  0  0  0  0  0  0  0  0  0  0
   -1.5491    5.5043  -15.8461 C   0  0  0  0  0  0  0  0  0  0  0  0
   -2.8414    5.3497  -17.9829 C   0  0  0  0  0  0  0  0  0  0  0  0
   -3.9565    6.2828  -15.8499 C   0  0  0  0  0  0  0  0  0  0  0  0
   -4.3322    5.0321  -15.1503 N   0  0  0  0  0  0  0  0  0  0  0  0
   -5.7467    4.9205  -15.1445 C   0  0  0  0  0  0  0  0  0  0  0  0
   -6.4656    4.9590  -14.0094 N   0  0  0  0  0  0  0  0  0  0  0  0
   -7.8091    4.8364  -14.1193 C   0  0  0  0  0  0  0  0  0  0  0  0
   -8.5660    4.7504  -15.2344 N   0  0  0  0  0  0  0  0  0  0  0  0
   -7.7988    4.7029  -16.3359 C   0  0  0  0  0  0  0  0  0  0  0  0
   -8.3757    4.6277  -17.9458 S   0  0  0  0  0  0  0  0  0  0  0  0
   -6.7544    4.7337  -18.5016 C   0  0  0  0  0  0  0  0  0  0  0  0
   -6.3449    4.8875  -19.9044 C   0  0  0  0  0  0  0  0  0  0  0  0
   -5.8282    6.5991  -20.1607 Cl  0  0  0  0  0  0  0  0  0  0  0  0
   -5.8267    4.7146  -17.5809 N   0  0  0  0  0  0  0  0  0  0  0  0
   -6.4234    4.7551  -16.3562 C   0  0  0  0  0  0  0  0  0  0  0  0
  1  2  1  0
  2  3  1  0
  2  4  1  0
  2  5  1  0
  5  6  1  0
  6  7  1  0
  7  8  2  0
  8  9  1  0
  9 10  2  0
 10 11  1  0
 11 12  1  0
 12 13  1  0
 13 14  1  0
 14 15  1  0
 13 16  2  0
 16 17  1  0
 17  7  1  0
 17 11  2  0
M  END
>  <energy_score>  (5226) 
-50.343913

>  <alias>  (5226) 
NVQNXQYWXTYJSB-UHFFFAOYSA-N-P23-P23-P95-601533

>  <HIPPO Pose ID>  (5226) 
91294

>  <smiles>  (5226) 
CC(C)(C)CNc1ncnc2sc(CCl)nc12

>  <inchikey>  (5226) 
NVQNXQYWXTYJSB-UHFFFAOYSA-N

>  <distance_score>  (5226) 
1.073858

>  <ref_mols>  (5226) 
Z1719a,Z0472a

>  <ref_pdb>  (5226) 
Z0101a

>  <HIPPO Compound ID>  (5226) 
138765

>  <name>  (5226) 
NVQNXQYWXTYJSB-UHFFFAOYSA-N-P23-P23-P95-601533

>  <inspiration_score>  (5226) 
None

$$$$
FXKGNMLJTAJRNO-UHFFFAOYSA-N-P23-P23-P95-601533
     RDKit          3D

 17 18  0  0  0  0  0  0  0  0999 V2000
   -2.8961    3.9599  -14.6894 Cl  0  0  0  0  0  0  0  0  0  0  0  0
   -2.1681    4.8590  -16.0296 C   0  0  0  0  0  0  0  0  0  0  0  0
   -2.5755    6.3165  -16.0706 C   0  0  0  0  0  0  0  0  0  0  0  0
   -4.0570    6.5212  -16.3320 C   0  0  2  0  0  0  0  0  0  0  0  0
   -4.2990    8.2358  -16.8044 Cl  0  0  0  0  0  0  0  0  0  0  0  0
   -4.8569    6.3394  -15.1356 N   0  0  0  0  0  0  0  0  0  0  0  0
   -6.0932    5.7007  -15.2755 C   0  0  0  0  0  0  0  0  0  0  0  0
   -6.6161    5.1181  -14.1735 N   0  0  0  0  0  0  0  0  0  0  0  0
   -7.7789    4.4383  -14.2957 C   0  0  0  0  0  0  0  0  0  0  0  0
   -8.5095    4.2323  -15.4031 N   0  0  0  0  0  0  0  0  0  0  0  0
   -7.9226    4.7646  -16.4814 C   0  0  0  0  0  0  0  0  0  0  0  0
   -8.4119    4.4570  -18.0930 S   0  0  0  0  0  0  0  0  0  0  0  0
   -6.9865    5.2568  -18.6230 C   0  0  0  0  0  0  0  0  0  0  0  0
   -6.3324    5.0287  -19.9297 C   0  0  0  0  0  0  0  0  0  0  0  0
   -4.5496    4.7798  -19.6292 Cl  0  0  0  0  0  0  0  0  0  0  0  0
   -6.4328    6.0305  -17.7208 N   0  0  0  0  0  0  0  0  0  0  0  0
   -6.7874    5.5499  -16.4881 C   0  0  0  0  0  0  0  0  0  0  0  0
  1  2  1  0
  2  3  1  0
  3  4  1  0
  4  5  1  1
  4  6  1  0
  6  7  1  0
  7  8  2  0
  8  9  1  0
  9 10  2  0
 10 11  1  0
 11 12  1  0
 12 13  1  0
 13 14  1  0
 14 15  1  0
 13 16  2  0
 16 17  1  0
 17  7  1  0
 17 11  2  0
M  END
>  <energy_score>  (5227) 
-60.20875

>  <alias>  (5227) 
FXKGNMLJTAJRNO-UHFFFAOYSA-N-P23-P23-P95-601533

>  <HIPPO Pose ID>  (5227) 
91298

>  <smiles>  (5227) 
ClCCC(Cl)Nc1ncnc2sc(CCl)nc12

>  <inchikey>  (5227) 
FXKGNMLJTAJRNO-UHFFFAOYSA-N

>  <distance_score>  (5227) 
1.317913

>  <ref_mols>  (5227) 
Z1719a,Z0472a

>  <ref_pdb>  (5227) 
Z0101a

>  <HIPPO Compound ID>  (5227) 
138767

>  <name>  (5227) 
FXKGNMLJTAJRNO-UHFFFAOYSA-N-P23-P23-P95-601533

>  <inspiration_score>  (5227) 
None

$$$$
OBIGQZRNRIZSOO-UHFFFAOYSA-N-P95-P23-P95-601533
     RDKit          3D

 17 18  0  0  0  0  0  0  0  0999 V2000
   -2.3915    5.0261  -18.3356 C   0  0  0  0  0  0  0  0  0  0  0  0
   -3.0495    5.9138  -17.2767 C   0  0  0  0  0  0  0  0  0  0  0  0
   -2.2235    7.1816  -17.1179 C   0  0  0  0  0  0  0  0  0  0  0  0
   -3.3553    5.1342  -15.9716 C   0  0  1  0  0  0  0  0  0  0  0  0
   -1.9404    4.9592  -14.9058 Cl  0  0  0  0  0  0  0  0  0  0  0  0
   -4.3218    5.8050  -15.1130 N   0  0  0  0  0  0  0  0  0  0  0  0
   -5.6425    5.3434  -15.1932 C   0  0  0  0  0  0  0  0  0  0  0  0
   -6.3867    5.3303  -14.0676 N   0  0  0  0  0  0  0  0  0  0  0  0
   -7.6858    4.9631  -14.1647 C   0  0  0  0  0  0  0  0  0  0  0  0
   -8.3923    4.6598  -15.2688 N   0  0  0  0  0  0  0  0  0  0  0  0
   -7.6099    4.6549  -16.3589 C   0  0  0  0  0  0  0  0  0  0  0  0
   -8.1617    4.3493  -17.9545 S   0  0  0  0  0  0  0  0  0  0  0  0
   -6.5746    4.6443  -18.5269 C   0  0  0  0  0  0  0  0  0  0  0  0
   -6.1735    4.7264  -19.9413 C   0  0  0  0  0  0  0  0  0  0  0  0
   -5.4400    6.3471  -20.2358 Cl  0  0  0  0  0  0  0  0  0  0  0  0
   -5.6654    4.8117  -17.6047 N   0  0  0  0  0  0  0  0  0  0  0  0
   -6.2596    4.9411  -16.3862 C   0  0  0  0  0  0  0  0  0  0  0  0
  1  2  1  0
  2  3  1  0
  2  4  1  0
  4  5  1  1
  4  6  1  0
  6  7  1  0
  7  8  2  0
  8  9  1  0
  9 10  2  0
 10 11  1  0
 11 12  1  0
 12 13  1  0
 13 14  1  0
 14 15  1  0
 13 16  2  0
 16 17  1  0
 17  7  1  0
 17 11  2  0
M  END
>  <energy_score>  (5228) 
-70.239112

>  <alias>  (5228) 
OBIGQZRNRIZSOO-UHFFFAOYSA-N-P95-P23-P95-601533

>  <HIPPO Pose ID>  (5228) 
91301

>  <smiles>  (5228) 
CC(C)C(Cl)Nc1ncnc2sc(CCl)nc12

>  <inchikey>  (5228) 
OBIGQZRNRIZSOO-UHFFFAOYSA-N

>  <distance_score>  (5228) 
1.089238

>  <ref_mols>  (5228) 
Z1719a,Z0472a

>  <ref_pdb>  (5228) 
Z0101a

>  <HIPPO Compound ID>  (5228) 
138768

>  <name>  (5228) 
OBIGQZRNRIZSOO-UHFFFAOYSA-N-P95-P23-P95-601533

>  <inspiration_score>  (5228) 
None

$$$$
SZDMLIYBEXUJGJ-UHFFFAOYSA-N-P23-P23-P95-601533
     RDKit          3D

 17 18  0  0  0  0  0  0  0  0999 V2000
   -2.2214    4.4013  -14.8910 C   0  0  0  0  0  0  0  0  0  0  0  0
   -1.9306    5.3416  -16.0527 C   0  0  0  0  0  0  0  0  0  0  0  0
   -3.1162    5.5467  -16.9912 C   0  0  0  0  0  0  0  0  0  0  0  0
   -3.9776    6.7331  -16.5738 C   0  0  0  0  0  0  0  0  0  0  0  0
   -4.5688    6.5877  -15.1669 C   0  0  0  0  0  0  0  0  0  0  0  0
   -5.8007    7.3680  -14.9955 N   0  0  0  0  0  0  0  0  0  0  0  0
   -6.8549    6.4189  -14.9902 C   0  0  0  0  0  0  0  0  0  0  0  0
   -7.2900    5.8928  -13.8293 N   0  0  0  0  0  0  0  0  0  0  0  0
   -8.2346    4.9345  -13.8869 C   0  0  0  0  0  0  0  0  0  0  0  0
   -8.8212    4.4210  -14.9763 N   0  0  0  0  0  0  0  0  0  0  0  0
   -8.2836    4.8947  -16.1049 C   0  0  0  0  0  0  0  0  0  0  0  0
   -8.6511    4.3258  -17.6603 S   0  0  0  0  0  0  0  0  0  0  0  0
   -7.3085    5.2275  -18.2706 C   0  0  0  0  0  0  0  0  0  0  0  0
   -6.5765    4.9359  -19.5276 C   0  0  0  0  0  0  0  0  0  0  0  0
   -7.3454    3.7504  -20.5328 Cl  0  0  0  0  0  0  0  0  0  0  0  0
   -6.8714    6.1660  -17.4604 N   0  0  0  0  0  0  0  0  0  0  0  0
   -7.3271    5.8791  -16.1953 C   0  0  0  0  0  0  0  0  0  0  0  0
  1  2  1  0
  2  3  1  0
  3  4  1  0
  4  5  1  0
  5  6  1  0
  6  7  1  0
  7  8  2  0
  8  9  1  0
  9 10  2  0
 10 11  1  0
 11 12  1  0
 12 13  1  0
 13 14  1  0
 14 15  1  0
 13 16  2  0
 16 17  1  0
 17  7  1  0
 17 11  2  0
M  END
>  <energy_score>  (5229) 
-45.369911

>  <alias>  (5229) 
SZDMLIYBEXUJGJ-UHFFFAOYSA-N-P23-P23-P95-601533

>  <HIPPO Pose ID>  (5229) 
91302

>  <smiles>  (5229) 
CCCCCNc1ncnc2sc(CCl)nc12

>  <inchikey>  (5229) 
SZDMLIYBEXUJGJ-UHFFFAOYSA-N

>  <distance_score>  (5229) 
1.199561

>  <ref_mols>  (5229) 
Z1719a,Z0472a

>  <ref_pdb>  (5229) 
Z0101a

>  <HIPPO Compound ID>  (5229) 
138770

>  <name>  (5229) 
SZDMLIYBEXUJGJ-UHFFFAOYSA-N-P23-P23-P95-601533

>  <inspiration_score>  (5229) 
None

$$$$
ZQCCQDYKSPWVST-UHFFFAOYSA-N-P23-P23-P95-601533
     RDKit          3D

 17 19  0  0  0  0  0  0  0  0999 V2000
   -5.6922    6.7542  -20.2774 Cl  0  0  0  0  0  0  0  0  0  0  0  0
   -6.2124    5.0781  -19.8696 C   0  0  0  0  0  0  0  0  0  0  0  0
   -6.5488    5.0328  -18.4336 C   0  0  0  0  0  0  0  0  0  0  0  0
   -5.6185    5.2659  -17.5369 N   0  0  0  0  0  0  0  0  0  0  0  0
   -6.1311    5.0733  -16.2850 C   0  0  0  0  0  0  0  0  0  0  0  0
   -5.4277    5.1591  -15.0704 C   0  0  0  0  0  0  0  0  0  0  0  0
   -4.0700    5.5674  -15.0080 N   0  0  0  0  0  0  0  0  0  0  0  0
   -3.1855    4.6184  -15.6990 C   0  0  0  0  0  0  0  0  0  0  0  0
   -2.2931    5.3014  -16.7113 C   0  0  2  0  0  0  0  0  0  0  0  0
   -2.7270    6.4303  -17.6323 C   0  0  0  0  0  0  0  0  0  0  0  0
   -2.5580    5.0495  -18.1767 C   0  0  1  0  0  0  0  0  0  0  0  0
   -1.2630    4.7710  -19.3100 Cl  0  0  0  0  0  0  0  0  0  0  0  0
   -6.1075    4.9001  -13.9326 N   0  0  0  0  0  0  0  0  0  0  0  0
   -7.4231    4.5954  -14.0258 C   0  0  0  0  0  0  0  0  0  0  0  0
   -8.1929    4.5330  -15.1259 N   0  0  0  0  0  0  0  0  0  0  0  0
   -7.4738    4.7517  -16.2363 C   0  0  0  0  0  0  0  0  0  0  0  0
   -8.1072    4.6644  -17.8216 S   0  0  0  0  0  0  0  0  0  0  0  0
  1  2  1  0
  2  3  1  0
  3  4  2  0
  4  5  1  0
  5  6  2  0
  6  7  1  0
  7  8  1  0
  9  8  1  1
  9 10  1  0
 10 11  1  0
 11 12  1  6
  6 13  1  0
 13 14  2  0
 14 15  1  0
 15 16  2  0
 16 17  1  0
 17  3  1  0
 16  5  1  0
 11  9  1  0
M  END
>  <energy_score>  (5230) 
-55.075423

>  <alias>  (5230) 
ZQCCQDYKSPWVST-UHFFFAOYSA-N-P23-P23-P95-601533

>  <HIPPO Pose ID>  (5230) 
91308

>  <smiles>  (5230) 
ClCc1nc2c(NCC3CC3Cl)ncnc2s1

>  <inchikey>  (5230) 
ZQCCQDYKSPWVST-UHFFFAOYSA-N

>  <distance_score>  (5230) 
1.08639

>  <ref_mols>  (5230) 
Z1719a,Z0472a

>  <ref_pdb>  (5230) 
Z0101a

>  <HIPPO Compound ID>  (5230) 
138773

>  <name>  (5230) 
ZQCCQDYKSPWVST-UHFFFAOYSA-N-P23-P23-P95-601533

>  <inspiration_score>  (5230) 
None

$$$$
LSHSQIAAARIAQC-UHFFFAOYSA-N-P23-P23-P95-601533
     RDKit          3D

 17 19  0  0  0  0  0  0  0  0999 V2000
   -5.7262    6.6171  -20.1207 Cl  0  0  0  0  0  0  0  0  0  0  0  0
   -6.2802    4.9206  -19.8668 C   0  0  0  0  0  0  0  0  0  0  0  0
   -6.7397    4.7851  -18.4744 C   0  0  0  0  0  0  0  0  0  0  0  0
   -5.8590    4.8426  -17.5084 N   0  0  0  0  0  0  0  0  0  0  0  0
   -6.5076    4.8073  -16.3093 C   0  0  0  0  0  0  0  0  0  0  0  0
   -5.9073    4.9771  -15.0572 C   0  0  0  0  0  0  0  0  0  0  0  0
   -4.5127    5.1952  -14.9631 N   0  0  0  0  0  0  0  0  0  0  0  0
   -4.1811    6.4963  -15.5813 C   0  0  0  0  0  0  0  0  0  0  0  0
   -2.8636    6.5085  -16.3518 C   0  0  0  0  0  0  0  0  0  0  0  0
   -2.7319    5.6279  -17.6050 C   0  0  0  0  0  0  0  0  0  0  0  0
   -2.1572    4.5710  -16.7812 O   0  0  0  0  0  0  0  0  0  0  0  0
   -1.7631    5.5851  -15.8094 C   0  0  0  0  0  0  0  0  0  0  0  0
   -6.6828    4.9263  -13.9607 N   0  0  0  0  0  0  0  0  0  0  0  0
   -8.0061    4.7191  -14.1420 C   0  0  0  0  0  0  0  0  0  0  0  0
   -8.6967    4.6274  -15.2968 N   0  0  0  0  0  0  0  0  0  0  0  0
   -7.8762    4.6643  -16.3581 C   0  0  0  0  0  0  0  0  0  0  0  0
   -8.3765    4.5892  -17.9926 S   0  0  0  0  0  0  0  0  0  0  0  0
  1  2  1  0
  2  3  1  0
  3  4  2  0
  4  5  1  0
  5  6  2  0
  6  7  1  0
  7  8  1  0
  8  9  1  0
  9 10  1  0
 10 11  1  0
 11 12  1  0
  6 13  1  0
 13 14  2  0
 14 15  1  0
 15 16  2  0
 16 17  1  0
 17  3  1  0
 16  5  1  0
 12  9  1  0
M  END
>  <energy_score>  (5231) 
-54.017876

>  <alias>  (5231) 
LSHSQIAAARIAQC-UHFFFAOYSA-N-P23-P23-P95-601533

>  <HIPPO Pose ID>  (5231) 
91310

>  <smiles>  (5231) 
ClCc1nc2c(NCC3COC3)ncnc2s1

>  <inchikey>  (5231) 
LSHSQIAAARIAQC-UHFFFAOYSA-N

>  <distance_score>  (5231) 
1.149485

>  <ref_mols>  (5231) 
Z1719a,Z0472a

>  <ref_pdb>  (5231) 
Z0101a

>  <HIPPO Compound ID>  (5231) 
138774

>  <name>  (5231) 
LSHSQIAAARIAQC-UHFFFAOYSA-N-P23-P23-P95-601533

>  <inspiration_score>  (5231) 
None

$$$$
DSZGWJPLIQGOGL-UHFFFAOYSA-N-P95-P23-P95-601533
     RDKit          3D

 17 18  0  0  0  0  0  0  0  0999 V2000
   -2.8109    5.9073  -17.8558 C   0  0  0  0  0  0  0  0  0  0  0  0
   -3.2848    5.7824  -16.6000 C   0  0  0  0  0  0  0  0  0  0  0  0
   -3.1773    4.4794  -15.8546 C   0  0  0  0  0  0  0  0  0  0  0  0
   -2.2920    4.5699  -14.6274 C   0  0  0  0  0  0  0  0  0  0  0  0
   -3.9756    6.9466  -15.9154 C   0  0  0  0  0  0  0  0  0  0  0  0
   -4.9627    6.5433  -14.9331 N   0  0  0  0  0  0  0  0  0  0  0  0
   -6.0906    5.7988  -15.2294 C   0  0  0  0  0  0  0  0  0  0  0  0
   -6.7449    5.2438  -14.1828 N   0  0  0  0  0  0  0  0  0  0  0  0
   -7.8217    4.4677  -14.4335 C   0  0  0  0  0  0  0  0  0  0  0  0
   -8.3604    4.1598  -15.6211 N   0  0  0  0  0  0  0  0  0  0  0  0
   -7.6524    4.6774  -16.6326 C   0  0  0  0  0  0  0  0  0  0  0  0
   -7.9586    4.3285  -18.2774 S   0  0  0  0  0  0  0  0  0  0  0  0
   -6.5513    5.2199  -18.6927 C   0  0  0  0  0  0  0  0  0  0  0  0
   -5.8850    5.1145  -20.0091 C   0  0  0  0  0  0  0  0  0  0  0  0
   -5.2164    6.7088  -20.5128 Cl  0  0  0  0  0  0  0  0  0  0  0  0
   -6.0160    5.9131  -17.7176 N   0  0  0  0  0  0  0  0  0  0  0  0
   -6.5541    5.5091  -16.5235 C   0  0  0  0  0  0  0  0  0  0  0  0
  1  2  2  0
  2  3  1  0
  3  4  1  0
  2  5  1  0
  5  6  1  0
  6  7  1  0
  7  8  2  0
  8  9  1  0
  9 10  2  0
 10 11  1  0
 11 12  1  0
 12 13  1  0
 13 14  1  0
 14 15  1  0
 13 16  2  0
 16 17  1  0
 17  7  1  0
 17 11  2  0
M  END
>  <energy_score>  (5232) 
-44.324168

>  <alias>  (5232) 
DSZGWJPLIQGOGL-UHFFFAOYSA-N-P95-P23-P95-601533

>  <HIPPO Pose ID>  (5232) 
91313

>  <smiles>  (5232) 
C=C(CC)CNc1ncnc2sc(CCl)nc12

>  <inchikey>  (5232) 
DSZGWJPLIQGOGL-UHFFFAOYSA-N

>  <distance_score>  (5232) 
1.204004

>  <ref_mols>  (5232) 
Z1719a,Z0472a

>  <ref_pdb>  (5232) 
Z0101a

>  <HIPPO Compound ID>  (5232) 
138775

>  <name>  (5232) 
DSZGWJPLIQGOGL-UHFFFAOYSA-N-P95-P23-P95-601533

>  <inspiration_score>  (5232) 
None

$$$$
UZCPOHLGNMVKIU-UHFFFAOYSA-N-P95-P23-P95-601533
     RDKit          3D

 17 19  0  0  0  0  0  0  0  0999 V2000
   -5.4015    6.3517  -20.2451 Cl  0  0  0  0  0  0  0  0  0  0  0  0
   -6.1461    4.7315  -20.0070 C   0  0  0  0  0  0  0  0  0  0  0  0
   -6.4880    4.5817  -18.5823 C   0  0  0  0  0  0  0  0  0  0  0  0
   -5.5309    4.4312  -17.7011 N   0  0  0  0  0  0  0  0  0  0  0  0
   -6.0667    4.5401  -16.4460 C   0  0  0  0  0  0  0  0  0  0  0  0
   -5.3340    4.5235  -15.2547 C   0  0  0  0  0  0  0  0  0  0  0  0
   -3.9691    4.1957  -15.3197 N   0  0  0  0  0  0  0  0  0  0  0  0
   -3.0712    5.2435  -14.9004 C   0  0  0  0  0  0  0  0  0  0  0  0
   -2.1852    5.7473  -16.0159 C   0  0  1  0  0  0  0  0  0  0  0  0
   -2.3558    5.5183  -17.5123 C   0  0  0  0  0  0  0  0  0  0  0  0
   -2.6244    6.8698  -16.9318 C   0  0  1  0  0  0  0  0  0  0  0  0
   -4.4154    7.5102  -16.9291 Br  0  0  0  0  0  0  0  0  0  0  0  0
   -5.9910    4.7339  -14.0977 N   0  0  0  0  0  0  0  0  0  0  0  0
   -7.3380    4.8686  -14.1624 C   0  0  0  0  0  0  0  0  0  0  0  0
   -8.1444    4.8759  -15.2468 N   0  0  0  0  0  0  0  0  0  0  0  0
   -7.4331    4.6953  -16.3729 C   0  0  0  0  0  0  0  0  0  0  0  0
   -8.0823    4.6125  -17.9539 S   0  0  0  0  0  0  0  0  0  0  0  0
  1  2  1  0
  2  3  1  0
  3  4  2  0
  4  5  1  0
  5  6  2  0
  6  7  1  0
  7  8  1  0
  9  8  1  1
  9 10  1  0
 10 11  1  0
 11 12  1  1
  6 13  1  0
 13 14  2  0
 14 15  1  0
 15 16  2  0
 16 17  1  0
 17  3  1  0
 16  5  1  0
 11  9  1  0
M  END
>  <energy_score>  (5233) 
-54.212297

>  <alias>  (5233) 
UZCPOHLGNMVKIU-UHFFFAOYSA-N-P95-P23-P95-601533

>  <HIPPO Pose ID>  (5233) 
91315

>  <smiles>  (5233) 
ClCc1nc2c(NCC3CC3Br)ncnc2s1

>  <inchikey>  (5233) 
UZCPOHLGNMVKIU-UHFFFAOYSA-N

>  <distance_score>  (5233) 
1.223838

>  <ref_mols>  (5233) 
Z1719a,Z0472a

>  <ref_pdb>  (5233) 
Z0101a

>  <HIPPO Compound ID>  (5233) 
138776

>  <name>  (5233) 
UZCPOHLGNMVKIU-UHFFFAOYSA-N-P95-P23-P95-601533

>  <inspiration_score>  (5233) 
None

$$$$
DDXUTTSFSNUSMP-UHFFFAOYSA-N-P23-P23-P95-601533
     RDKit          3D

 17 18  0  0  0  0  0  0  0  0999 V2000
   -2.9738    7.1382  -17.5342 C   0  0  0  0  0  0  0  0  0  0  0  0
   -2.9818    6.0706  -16.4386 C   0  0  0  0  0  0  0  0  0  0  0  0
   -1.5372    5.7294  -16.0618 C   0  0  0  0  0  0  0  0  0  0  0  0
   -3.7123    4.4547  -17.2165 Br  0  0  0  0  0  0  0  0  0  0  0  0
   -3.7475    6.4432  -15.1361 C   0  0  0  0  0  0  0  0  0  0  0  0
   -5.0788    7.0385  -15.3043 N   0  0  0  0  0  0  0  0  0  0  0  0
   -6.1183    6.0907  -15.2836 C   0  0  0  0  0  0  0  0  0  0  0  0
   -6.5103    5.4570  -14.1602 N   0  0  0  0  0  0  0  0  0  0  0  0
   -7.5559    4.6003  -14.2580 C   0  0  0  0  0  0  0  0  0  0  0  0
   -8.2630    4.2601  -15.3514 N   0  0  0  0  0  0  0  0  0  0  0  0
   -7.7699    4.8422  -16.4524 C   0  0  0  0  0  0  0  0  0  0  0  0
   -8.2370    4.4768  -18.0536 S   0  0  0  0  0  0  0  0  0  0  0  0
   -6.9104    5.4270  -18.6087 C   0  0  0  0  0  0  0  0  0  0  0  0
   -6.2512    5.2122  -19.9176 C   0  0  0  0  0  0  0  0  0  0  0  0
   -5.5835    6.7808  -20.5241 Cl  0  0  0  0  0  0  0  0  0  0  0  0
   -6.4107    6.2564  -17.7182 N   0  0  0  0  0  0  0  0  0  0  0  0
   -6.7612    5.7785  -16.4846 C   0  0  0  0  0  0  0  0  0  0  0  0
  1  2  1  0
  2  3  1  0
  2  4  1  0
  2  5  1  0
  5  6  1  0
  6  7  1  0
  7  8  2  0
  8  9  1  0
  9 10  2  0
 10 11  1  0
 11 12  1  0
 12 13  1  0
 13 14  1  0
 14 15  1  0
 13 16  2  0
 16 17  1  0
 17  7  1  0
 17 11  2  0
M  END
>  <energy_score>  (5234) 
-55.539164

>  <alias>  (5234) 
DDXUTTSFSNUSMP-UHFFFAOYSA-N-P23-P23-P95-601533

>  <HIPPO Pose ID>  (5234) 
91316

>  <smiles>  (5234) 
CC(C)(Br)CNc1ncnc2sc(CCl)nc12

>  <inchikey>  (5234) 
DDXUTTSFSNUSMP-UHFFFAOYSA-N

>  <distance_score>  (5234) 
1.09749

>  <ref_mols>  (5234) 
Z1719a,Z0472a

>  <ref_pdb>  (5234) 
Z0101a

>  <HIPPO Compound ID>  (5234) 
138779

>  <name>  (5234) 
DDXUTTSFSNUSMP-UHFFFAOYSA-N-P23-P23-P95-601533

>  <inspiration_score>  (5234) 
None

$$$$
WNODPNYQJKJOPR-UHFFFAOYSA-N-P95-P23-P95-601533
     RDKit          3D

 17 18  0  0  0  0  0  0  0  0999 V2000
   -2.7699    4.4264  -14.9686 C   0  0  0  0  0  0  0  0  0  0  0  0
   -2.0466    5.4230  -16.2994 S   0  0  0  0  0  0  0  0  0  0  0  0
   -3.4750    5.4908  -17.4620 C   0  0  2  0  0  0  0  0  0  0  0  0
   -2.9260    5.5246  -18.8858 C   0  0  0  0  0  0  0  0  0  0  0  0
   -4.3128    6.7487  -17.1979 C   0  0  0  0  0  0  0  0  0  0  0  0
   -4.8306    6.8199  -15.8380 N   0  0  0  0  0  0  0  0  0  0  0  0
   -5.8724    6.0087  -15.4214 C   0  0  0  0  0  0  0  0  0  0  0  0
   -6.0272    5.8768  -14.0828 N   0  0  0  0  0  0  0  0  0  0  0  0
   -7.0851    5.1872  -13.6166 C   0  0  0  0  0  0  0  0  0  0  0  0
   -8.0542    4.5975  -14.3202 N   0  0  0  0  0  0  0  0  0  0  0  0
   -7.8311    4.6909  -15.6379 C   0  0  0  0  0  0  0  0  0  0  0  0
   -8.8704    4.0049  -16.7864 S   0  0  0  0  0  0  0  0  0  0  0  0
   -7.8117    4.5266  -18.0259 C   0  0  0  0  0  0  0  0  0  0  0  0
   -8.0733    4.1001  -19.4133 C   0  0  0  0  0  0  0  0  0  0  0  0
   -6.5563    3.9119  -20.2726 Cl  0  0  0  0  0  0  0  0  0  0  0  0
   -6.8093    5.2876  -17.6404 N   0  0  0  0  0  0  0  0  0  0  0  0
   -6.7880    5.3506  -16.2622 C   0  0  0  0  0  0  0  0  0  0  0  0
  1  2  1  0
  2  3  1  0
  3  4  1  6
  3  5  1  0
  5  6  1  0
  6  7  1  0
  7  8  2  0
  8  9  1  0
  9 10  2  0
 10 11  1  0
 11 12  1  0
 12 13  1  0
 13 14  1  0
 14 15  1  0
 13 16  2  0
 16 17  1  0
 17  7  1  0
 17 11  2  0
M  END
>  <energy_score>  (5235) 
-56.477299

>  <alias>  (5235) 
WNODPNYQJKJOPR-UHFFFAOYSA-N-P95-P23-P95-601533

>  <HIPPO Pose ID>  (5235) 
91323

>  <smiles>  (5235) 
CSC(C)CNc1ncnc2sc(CCl)nc12

>  <inchikey>  (5235) 
WNODPNYQJKJOPR-UHFFFAOYSA-N

>  <distance_score>  (5235) 
1.113151

>  <ref_mols>  (5235) 
Z1719a,Z0472a

>  <ref_pdb>  (5235) 
Z0101a

>  <HIPPO Compound ID>  (5235) 
138784

>  <name>  (5235) 
WNODPNYQJKJOPR-UHFFFAOYSA-N-P95-P23-P95-601533

>  <inspiration_score>  (5235) 
None

$$$$
NXEZKRDXHFDLCY-UHFFFAOYSA-N-P23-P23-P95-601533
     RDKit          3D

 17 19  0  0  0  0  0  0  0  0999 V2000
   -2.7004    5.8017  -17.8947 C   0  0  0  0  0  0  0  0  0  0  0  0
   -3.0743    5.6511  -16.4360 C   0  0  0  0  0  0  0  0  0  0  0  0
   -3.9902    6.7474  -15.9227 C   0  0  0  0  0  0  0  0  0  0  0  0
   -4.8641    6.3612  -14.8293 N   0  0  0  0  0  0  0  0  0  0  0  0
   -6.0312    5.6505  -15.0708 C   0  0  0  0  0  0  0  0  0  0  0  0
   -6.7048    5.1874  -13.9938 N   0  0  0  0  0  0  0  0  0  0  0  0
   -7.8850    4.5621  -14.1962 C   0  0  0  0  0  0  0  0  0  0  0  0
   -8.5249    4.3490  -15.3557 N   0  0  0  0  0  0  0  0  0  0  0  0
   -7.7848    4.7394  -16.4018 C   0  0  0  0  0  0  0  0  0  0  0  0
   -8.2483    4.5105  -18.0309 S   0  0  0  0  0  0  0  0  0  0  0  0
   -6.7297    5.1369  -18.5167 C   0  0  0  0  0  0  0  0  0  0  0  0
   -6.2174    5.0900  -19.8984 C   0  0  0  0  0  0  0  0  0  0  0  0
   -5.6675    6.7428  -20.3821 Cl  0  0  0  0  0  0  0  0  0  0  0  0
   -5.9873    5.6341  -17.5596 N   0  0  0  0  0  0  0  0  0  0  0  0
   -6.5577    5.3708  -16.3433 C   0  0  0  0  0  0  0  0  0  0  0  0
   -3.0841    4.2523  -15.8427 C   0  0  0  0  0  0  0  0  0  0  0  0
   -1.9730    5.1949  -15.4984 C   0  0  0  0  0  0  0  0  0  0  0  0
  1  2  1  0
  2  3  1  0
  3  4  1  0
  4  5  1  0
  5  6  2  0
  6  7  1  0
  7  8  2  0
  8  9  1  0
  9 10  1  0
 10 11  1  0
 11 12  1  0
 12 13  1  0
 11 14  2  0
 14 15  1  0
  2 16  1  0
 16 17  1  0
 17  2  1  0
 15  5  1  0
 15  9  2  0
M  END
>  <energy_score>  (5236) 
-143.333979

>  <alias>  (5236) 
NXEZKRDXHFDLCY-UHFFFAOYSA-N-P23-P23-P95-601533

>  <HIPPO Pose ID>  (5236) 
91324

>  <smiles>  (5236) 
CC1(CNc2ncnc3sc(CCl)nc23)CC1

>  <inchikey>  (5236) 
NXEZKRDXHFDLCY-UHFFFAOYSA-N

>  <distance_score>  (5236) 
0.935936

>  <ref_mols>  (5236) 
Z1719a,Z0472a

>  <ref_pdb>  (5236) 
Z0101a

>  <HIPPO Compound ID>  (5236) 
138785

>  <name>  (5236) 
NXEZKRDXHFDLCY-UHFFFAOYSA-N-P23-P23-P95-601533

>  <inspiration_score>  (5236) 
None

$$$$
MKWZDUWLLVPOTD-UHFFFAOYSA-N-P23-P23-P95-601533
     RDKit          3D

 17 18  0  0  0  0  0  0  0  0999 V2000
   -3.2489    4.4984  -17.9927 C   0  0  0  0  0  0  0  0  0  0  0  0
   -2.6984    5.5704  -17.0699 C   0  0  0  0  0  0  0  0  0  0  0  0
   -2.9400    6.9841  -17.5877 C   0  0  0  0  0  0  0  0  0  0  0  0
   -3.0036    5.3619  -15.5764 C   0  0  2  0  0  0  0  0  0  0  0  0
   -2.9277    4.0011  -15.2034 O   0  0  0  0  0  0  0  0  0  0  0  0
   -4.1811    5.9820  -14.9854 N   0  0  0  0  0  0  0  0  0  0  0  0
   -5.4711    5.4665  -15.1290 C   0  0  0  0  0  0  0  0  0  0  0  0
   -6.0999    5.0920  -13.9892 N   0  0  0  0  0  0  0  0  0  0  0  0
   -7.3640    4.6151  -14.0679 C   0  0  0  0  0  0  0  0  0  0  0  0
   -8.1283    4.4704  -15.1585 N   0  0  0  0  0  0  0  0  0  0  0  0
   -7.4697    4.8319  -16.2682 C   0  0  0  0  0  0  0  0  0  0  0  0
   -8.1089    4.6517  -17.8448 S   0  0  0  0  0  0  0  0  0  0  0  0
   -6.6331    5.2507  -18.4703 C   0  0  0  0  0  0  0  0  0  0  0  0
   -6.2399    5.1712  -19.8897 C   0  0  0  0  0  0  0  0  0  0  0  0
   -5.6879    6.7961  -20.4414 Cl  0  0  0  0  0  0  0  0  0  0  0  0
   -5.7886    5.7181  -17.5818 N   0  0  0  0  0  0  0  0  0  0  0  0
   -6.1907    5.3596  -16.3291 C   0  0  0  0  0  0  0  0  0  0  0  0
  1  2  1  0
  2  3  1  0
  2  4  1  0
  4  5  1  6
  4  6  1  0
  6  7  1  0
  7  8  2  0
  8  9  1  0
  9 10  2  0
 10 11  1  0
 11 12  1  0
 12 13  1  0
 13 14  1  0
 14 15  1  0
 13 16  2  0
 16 17  1  0
 17  7  1  0
 17 11  2  0
M  END
>  <energy_score>  (5237) 
-48.358666

>  <alias>  (5237) 
MKWZDUWLLVPOTD-UHFFFAOYSA-N-P23-P23-P95-601533

>  <HIPPO Pose ID>  (5237) 
91328

>  <smiles>  (5237) 
CC(C)C(O)Nc1ncnc2sc(CCl)nc12

>  <inchikey>  (5237) 
MKWZDUWLLVPOTD-UHFFFAOYSA-N

>  <distance_score>  (5237) 
0.990069

>  <ref_mols>  (5237) 
Z1719a,Z0472a

>  <ref_pdb>  (5237) 
Z0101a

>  <HIPPO Compound ID>  (5237) 
138787

>  <name>  (5237) 
MKWZDUWLLVPOTD-UHFFFAOYSA-N-P23-P23-P95-601533

>  <inspiration_score>  (5237) 
None

$$$$
SFVOKCIDPJDAMP-UHFFFAOYSA-N-P23-P23-P95-601533
     RDKit          3D

 17 18  0  0  0  0  0  0  0  0999 V2000
   -2.7855    6.6315  -17.9152 C   0  0  0  0  0  0  0  0  0  0  0  0
   -2.8329    5.3158  -17.1594 C   0  0  2  0  0  0  0  0  0  0  0  0
   -3.7675    4.4267  -17.7648 O   0  0  0  0  0  0  0  0  0  0  0  0
   -3.0306    5.4328  -15.6259 C   0  0  2  0  0  0  0  0  0  0  0  0
   -3.0681    4.1199  -15.0770 O   0  0  0  0  0  0  0  0  0  0  0  0
   -4.1651    6.2018  -15.1149 N   0  0  0  0  0  0  0  0  0  0  0  0
   -5.4435    5.6317  -15.2143 C   0  0  0  0  0  0  0  0  0  0  0  0
   -5.9867    5.1149  -14.0868 N   0  0  0  0  0  0  0  0  0  0  0  0
   -7.2169    4.5496  -14.1735 C   0  0  0  0  0  0  0  0  0  0  0  0
   -7.9903    4.4000  -15.2585 N   0  0  0  0  0  0  0  0  0  0  0  0
   -7.3991    4.8972  -16.3543 C   0  0  0  0  0  0  0  0  0  0  0  0
   -8.0029    4.7001  -17.9420 S   0  0  0  0  0  0  0  0  0  0  0  0
   -6.5913    5.4845  -18.5280 C   0  0  0  0  0  0  0  0  0  0  0  0
   -6.1107    5.3831  -19.9209 C   0  0  0  0  0  0  0  0  0  0  0  0
   -5.6771    7.0141  -20.5451 Cl  0  0  0  0  0  0  0  0  0  0  0  0
   -5.8691    6.0899  -17.6146 N   0  0  0  0  0  0  0  0  0  0  0  0
   -6.1928    5.5716  -16.3963 C   0  0  0  0  0  0  0  0  0  0  0  0
  2  1  1  6
  2  3  1  0
  2  4  1  0
  4  5  1  6
  4  6  1  0
  6  7  1  0
  7  8  2  0
  8  9  1  0
  9 10  2  0
 10 11  1  0
 11 12  1  0
 12 13  1  0
 13 14  1  0
 14 15  1  0
 13 16  2  0
 16 17  1  0
 17  7  1  0
 17 11  2  0
M  END
>  <energy_score>  (5238) 
-67.398763

>  <alias>  (5238) 
SFVOKCIDPJDAMP-UHFFFAOYSA-N-P23-P23-P95-601533

>  <HIPPO Pose ID>  (5238) 
91336

>  <smiles>  (5238) 
CC(O)C(O)Nc1ncnc2sc(CCl)nc12

>  <inchikey>  (5238) 
SFVOKCIDPJDAMP-UHFFFAOYSA-N

>  <distance_score>  (5238) 
0.924661

>  <ref_mols>  (5238) 
Z1719a,Z0472a

>  <ref_pdb>  (5238) 
Z0101a

>  <HIPPO Compound ID>  (5238) 
138792

>  <name>  (5238) 
SFVOKCIDPJDAMP-UHFFFAOYSA-N-P23-P23-P95-601533

>  <inspiration_score>  (5238) 
None

$$$$
VQIIABMZLNFZNQ-UHFFFAOYSA-N-P23-P23-P95-601533
     RDKit          3D

 17 18  0  0  0  0  0  0  0  0999 V2000
   -2.8848    3.9523  -14.8464 C   0  0  0  0  0  0  0  0  0  0  0  0
   -2.2814    5.1289  -15.5989 C   0  0  0  0  0  0  0  0  0  0  0  0
   -3.2582    5.7496  -16.5961 C   0  0  2  0  0  0  0  0  0  0  0  0
   -2.1747    6.5628  -18.0482 Br  0  0  0  0  0  0  0  0  0  0  0  0
   -4.1042    6.8799  -15.9977 C   0  0  0  0  0  0  0  0  0  0  0  0
   -4.9855    6.4980  -14.9018 N   0  0  0  0  0  0  0  0  0  0  0  0
   -6.1342    5.7572  -15.1184 C   0  0  0  0  0  0  0  0  0  0  0  0
   -6.7269    5.2198  -14.0289 N   0  0  0  0  0  0  0  0  0  0  0  0
   -7.8745    4.5284  -14.1996 C   0  0  0  0  0  0  0  0  0  0  0  0
   -8.5346    4.2886  -15.3400 N   0  0  0  0  0  0  0  0  0  0  0  0
   -7.8720    4.7616  -16.4023 C   0  0  0  0  0  0  0  0  0  0  0  0
   -8.3428    4.4731  -18.0173 S   0  0  0  0  0  0  0  0  0  0  0  0
   -6.8828    5.2145  -18.5298 C   0  0  0  0  0  0  0  0  0  0  0  0
   -6.3225    5.0500  -19.8860 C   0  0  0  0  0  0  0  0  0  0  0  0
   -4.5625    4.7184  -19.7284 Cl  0  0  0  0  0  0  0  0  0  0  0  0
   -6.2474    5.8992  -17.6067 N   0  0  0  0  0  0  0  0  0  0  0  0
   -6.7108    5.5094  -16.3755 C   0  0  0  0  0  0  0  0  0  0  0  0
  1  2  1  0
  2  3  1  0
  3  4  1  6
  3  5  1  0
  5  6  1  0
  6  7  1  0
  7  8  2  0
  8  9  1  0
  9 10  2  0
 10 11  1  0
 11 12  1  0
 12 13  1  0
 13 14  1  0
 14 15  1  0
 13 16  2  0
 16 17  1  0
 17  7  1  0
 17 11  2  0
M  END
>  <energy_score>  (5239) 
-43.523097

>  <alias>  (5239) 
VQIIABMZLNFZNQ-UHFFFAOYSA-N-P23-P23-P95-601533

>  <HIPPO Pose ID>  (5239) 
91340

>  <smiles>  (5239) 
CCC(Br)CNc1ncnc2sc(CCl)nc12

>  <inchikey>  (5239) 
VQIIABMZLNFZNQ-UHFFFAOYSA-N

>  <distance_score>  (5239) 
1.062776

>  <ref_mols>  (5239) 
Z1719a,Z0472a

>  <ref_pdb>  (5239) 
Z0101a

>  <HIPPO Compound ID>  (5239) 
138796

>  <name>  (5239) 
VQIIABMZLNFZNQ-UHFFFAOYSA-N-P23-P23-P95-601533

>  <inspiration_score>  (5239) 
None

$$$$
IMPCTUCNXRCNFU-UHFFFAOYSA-N-P95-P23-P95-601533
     RDKit          3D

 18 19  0  0  0  0  0  0  0  0999 V2000
   -3.4295    7.4740  -17.5738 C   0  0  0  0  0  0  0  0  0  0  0  0
   -2.6283    6.4989  -16.7356 C   0  0  2  0  0  0  0  0  0  0  0  0
   -1.1333    5.8648  -17.8302 Br  0  0  0  0  0  0  0  0  0  0  0  0
   -3.4097    5.3240  -16.1532 C   0  0  0  0  0  0  0  0  0  0  0  0
   -4.3558    5.7793  -15.1177 N   0  0  0  0  0  0  0  0  0  0  0  0
   -5.6736    5.3193  -15.2636 C   0  0  0  0  0  0  0  0  0  0  0  0
   -6.3208    4.8740  -14.1650 N   0  0  0  0  0  0  0  0  0  0  0  0
   -7.5634    4.3579  -14.3260 C   0  0  0  0  0  0  0  0  0  0  0  0
   -8.2701    4.2146  -15.4599 N   0  0  0  0  0  0  0  0  0  0  0  0
   -7.5748    4.6372  -16.5245 C   0  0  0  0  0  0  0  0  0  0  0  0
   -8.0422    4.3841  -18.1529 S   0  0  0  0  0  0  0  0  0  0  0  0
   -6.5602    5.0945  -18.6437 C   0  0  0  0  0  0  0  0  0  0  0  0
   -5.9639    4.9720  -19.9950 C   0  0  0  0  0  0  0  0  0  0  0  0
   -4.5242    4.6507  -19.8220 N   0  0  0  0  0  0  0  0  0  0  0  0
   -3.7293    5.4025  -20.4096 N   0  0  0  0  0  0  0  0  0  0  0  0
   -2.9795    6.0618  -20.9629 N   0  0  0  0  0  0  0  0  0  0  0  0
   -5.8865    5.7054  -17.7007 N   0  0  0  0  0  0  0  0  0  0  0  0
   -6.3416    5.2573  -16.4941 C   0  0  0  0  0  0  0  0  0  0  0  0
  2  1  1  6
  2  3  1  0
  2  4  1  0
  4  5  1  0
  5  6  1  0
  6  7  2  0
  7  8  1  0
  8  9  2  0
  9 10  1  0
 10 11  1  0
 11 12  1  0
 12 13  1  0
 13 14  1  0
 14 15  2  0
 15 16  2  0
 12 17  2  0
 17 18  1  0
 18  6  1  0
 18 10  2  0
M  CHG  2  15   1  16  -1
M  END
>  <energy_score>  (5240) 
-70.448426

>  <alias>  (5240) 
IMPCTUCNXRCNFU-UHFFFAOYSA-N-P95-P23-P95-601533

>  <HIPPO Pose ID>  (5240) 
91343

>  <smiles>  (5240) 
CC(Br)CNc1ncnc2sc(CN=[N+]=[N-])nc12

>  <inchikey>  (5240) 
IMPCTUCNXRCNFU-UHFFFAOYSA-N

>  <distance_score>  (5240) 
1.25027

>  <ref_mols>  (5240) 
Z1719a,Z0472a

>  <ref_pdb>  (5240) 
Z0101a

>  <HIPPO Compound ID>  (5240) 
138797

>  <name>  (5240) 
IMPCTUCNXRCNFU-UHFFFAOYSA-N-P95-P23-P95-601533

>  <inspiration_score>  (5240) 
None

$$$$
UMIDAMSOKBPVBW-UHFFFAOYSA-N-P23-P23-P95-601533
     RDKit          3D

 18 19  0  0  0  0  0  0  0  0999 V2000
   -1.9768    6.2642  -18.5775 C   0  0  0  0  0  0  0  0  0  0  0  0
   -2.9161    5.7317  -17.5134 C   0  0  0  0  0  0  0  0  0  0  0  0
   -2.2416    5.5814  -16.1470 C   0  0  0  0  0  0  0  0  0  0  0  0
   -3.2269    5.3902  -14.9853 C   0  0  0  0  0  0  0  0  0  0  0  0
   -4.0620    4.2115  -15.1642 N   0  0  0  0  0  0  0  0  0  0  0  0
   -5.4366    4.5343  -15.0863 C   0  0  0  0  0  0  0  0  0  0  0  0
   -6.0818    4.7019  -13.9164 N   0  0  0  0  0  0  0  0  0  0  0  0
   -7.4276    4.8520  -13.9593 C   0  0  0  0  0  0  0  0  0  0  0  0
   -8.2423    4.9244  -15.0345 N   0  0  0  0  0  0  0  0  0  0  0  0
   -7.5434    4.7867  -16.1732 C   0  0  0  0  0  0  0  0  0  0  0  0
   -8.2164    4.7783  -17.7461 S   0  0  0  0  0  0  0  0  0  0  0  0
   -6.6323    4.6885  -18.3926 C   0  0  0  0  0  0  0  0  0  0  0  0
   -6.3000    4.7883  -19.8283 C   0  0  0  0  0  0  0  0  0  0  0  0
   -5.5235    6.0122  -20.1257 N   0  0  0  0  0  0  0  0  0  0  0  0
   -5.9715    7.0878  -19.7076 N   0  0  0  0  0  0  0  0  0  0  0  0
   -6.3238    8.0997  -19.3138 N   0  0  0  0  0  0  0  0  0  0  0  0
   -5.6588    4.5826  -17.5276 N   0  0  0  0  0  0  0  0  0  0  0  0
   -6.1778    4.6251  -16.2671 C   0  0  0  0  0  0  0  0  0  0  0  0
  1  2  1  0
  2  3  1  0
  3  4  1  0
  4  5  1  0
  5  6  1  0
  6  7  2  0
  7  8  1  0
  8  9  2  0
  9 10  1  0
 10 11  1  0
 11 12  1  0
 12 13  1  0
 13 14  1  0
 14 15  2  0
 15 16  2  0
 12 17  2  0
 17 18  1  0
 18  6  1  0
 18 10  2  0
M  CHG  2  15   1  16  -1
M  END
>  <energy_score>  (5241) 
-47.004184

>  <alias>  (5241) 
UMIDAMSOKBPVBW-UHFFFAOYSA-N-P23-P23-P95-601533

>  <HIPPO Pose ID>  (5241) 
91344

>  <smiles>  (5241) 
CCCCNc1ncnc2sc(CN=[N+]=[N-])nc12

>  <inchikey>  (5241) 
UMIDAMSOKBPVBW-UHFFFAOYSA-N

>  <distance_score>  (5241) 
1.076529

>  <ref_mols>  (5241) 
Z1719a,Z0472a

>  <ref_pdb>  (5241) 
Z0101a

>  <HIPPO Compound ID>  (5241) 
138798

>  <name>  (5241) 
UMIDAMSOKBPVBW-UHFFFAOYSA-N-P23-P23-P95-601533

>  <inspiration_score>  (5241) 
None

$$$$
UEMMBJQCWCLAKO-UHFFFAOYSA-N-P23-P23-P95-601533
     RDKit          3D

 18 19  0  0  0  0  0  0  0  0999 V2000
   -1.3896    5.4970  -16.4660 C   0  0  0  0  0  0  0  0  0  0  0  0
   -2.6947    5.7560  -16.6220 C   0  0  0  0  0  0  0  0  0  0  0  0
   -3.1415    6.9078  -17.4735 C   0  0  0  0  0  0  0  0  0  0  0  0
   -3.7312    4.9238  -15.9213 C   0  0  0  0  0  0  0  0  0  0  0  0
   -4.5300    5.7870  -15.0567 N   0  0  0  0  0  0  0  0  0  0  0  0
   -5.8939    5.4444  -15.1295 C   0  0  0  0  0  0  0  0  0  0  0  0
   -6.5286    5.0817  -13.9965 N   0  0  0  0  0  0  0  0  0  0  0  0
   -7.8009    4.6336  -14.1027 C   0  0  0  0  0  0  0  0  0  0  0  0
   -8.5524    4.4978  -15.2092 N   0  0  0  0  0  0  0  0  0  0  0  0
   -7.8703    4.8458  -16.3096 C   0  0  0  0  0  0  0  0  0  0  0  0
   -8.4153    4.5749  -17.9091 S   0  0  0  0  0  0  0  0  0  0  0  0
   -6.9011    5.1478  -18.4765 C   0  0  0  0  0  0  0  0  0  0  0  0
   -6.3626    4.8998  -19.8351 C   0  0  0  0  0  0  0  0  0  0  0  0
   -4.9919    4.3684  -19.6643 N   0  0  0  0  0  0  0  0  0  0  0  0
   -4.0688    5.0559  -20.1184 N   0  0  0  0  0  0  0  0  0  0  0  0
   -3.1830    5.6169  -20.5733 N   0  0  0  0  0  0  0  0  0  0  0  0
   -6.1478    5.7428  -17.5827 N   0  0  0  0  0  0  0  0  0  0  0  0
   -6.6004    5.3866  -16.3412 C   0  0  0  0  0  0  0  0  0  0  0  0
  1  2  2  0
  2  3  1  0
  2  4  1  0
  4  5  1  0
  5  6  1  0
  6  7  2  0
  7  8  1  0
  8  9  2  0
  9 10  1  0
 10 11  1  0
 11 12  1  0
 12 13  1  0
 13 14  1  0
 14 15  2  0
 15 16  2  0
 12 17  2  0
 17 18  1  0
 18  6  1  0
 18 10  2  0
M  CHG  2  15   1  16  -1
M  END
>  <energy_score>  (5242) 
-58.337008

>  <alias>  (5242) 
UEMMBJQCWCLAKO-UHFFFAOYSA-N-P23-P23-P95-601533

>  <HIPPO Pose ID>  (5242) 
91346

>  <smiles>  (5242) 
C=C(C)CNc1ncnc2sc(CN=[N+]=[N-])nc12

>  <inchikey>  (5242) 
UEMMBJQCWCLAKO-UHFFFAOYSA-N

>  <distance_score>  (5242) 
1.052478

>  <ref_mols>  (5242) 
Z1719a,Z0472a

>  <ref_pdb>  (5242) 
Z0101a

>  <HIPPO Compound ID>  (5242) 
138799

>  <name>  (5242) 
UEMMBJQCWCLAKO-UHFFFAOYSA-N-P23-P23-P95-601533

>  <inspiration_score>  (5242) 
None

$$$$
SCGNUKDKAQOTMO-UHFFFAOYSA-N-P95-P23-P95-601533
     RDKit          3D

 18 20  0  0  0  0  0  0  0  0999 V2000
   -6.0015    8.0851  -19.4590 N   0  0  0  0  0  0  0  0  0  0  0  0
   -5.6360    7.0607  -19.8086 N   0  0  0  0  0  0  0  0  0  0  0  0
   -5.2127    5.9605  -20.1992 N   0  0  0  0  0  0  0  0  0  0  0  0
   -6.0274    4.7730  -19.8591 C   0  0  0  0  0  0  0  0  0  0  0  0
   -6.4391    4.7622  -18.4344 C   0  0  0  0  0  0  0  0  0  0  0  0
   -5.5940    5.1143  -17.4971 N   0  0  0  0  0  0  0  0  0  0  0  0
   -6.2099    5.0861  -16.2749 C   0  0  0  0  0  0  0  0  0  0  0  0
   -5.6895    5.4446  -15.0211 C   0  0  0  0  0  0  0  0  0  0  0  0
   -4.4358    6.0058  -14.7668 N   0  0  0  0  0  0  0  0  0  0  0  0
   -3.3096    6.2436  -15.5843 C   0  0  1  0  0  0  0  0  0  0  0  0
   -2.6370    4.9750  -16.0879 C   0  0  0  0  0  0  0  0  0  0  0  0
   -2.6034    5.7068  -17.4338 C   0  0  0  0  0  0  0  0  0  0  0  0
   -3.4841    6.7413  -16.9256 O   0  0  0  0  0  0  0  0  0  0  0  0
   -6.4701    5.2442  -13.9294 N   0  0  0  0  0  0  0  0  0  0  0  0
   -7.7192    4.7680  -14.1047 C   0  0  0  0  0  0  0  0  0  0  0  0
   -8.3422    4.4940  -15.2547 N   0  0  0  0  0  0  0  0  0  0  0  0
   -7.5241    4.6460  -16.3062 C   0  0  0  0  0  0  0  0  0  0  0  0
   -8.0098    4.3326  -17.9134 S   0  0  0  0  0  0  0  0  0  0  0  0
  1  2  2  0
  2  3  2  0
  3  4  1  0
  4  5  1  0
  5  6  2  0
  6  7  1  0
  7  8  2  0
  8  9  1  0
 10  9  1  6
 10 11  1  0
 11 12  1  0
 12 13  1  0
  8 14  1  0
 14 15  2  0
 15 16  1  0
 16 17  2  0
 17 18  1  0
 18  5  1  0
 17  7  1  0
 13 10  1  0
M  CHG  2   1  -1   2   1
M  END
>  <energy_score>  (5243) 
-75.248754

>  <alias>  (5243) 
SCGNUKDKAQOTMO-UHFFFAOYSA-N-P95-P23-P95-601533

>  <HIPPO Pose ID>  (5243) 
91355

>  <smiles>  (5243) 
[N-]=[N+]=NCc1nc2c(NC3CCO3)ncnc2s1

>  <inchikey>  (5243) 
SCGNUKDKAQOTMO-UHFFFAOYSA-N

>  <distance_score>  (5243) 
1.004169

>  <ref_mols>  (5243) 
Z1719a,Z0472a

>  <ref_pdb>  (5243) 
Z0101a

>  <HIPPO Compound ID>  (5243) 
138803

>  <name>  (5243) 
SCGNUKDKAQOTMO-UHFFFAOYSA-N-P95-P23-P95-601533

>  <inspiration_score>  (5243) 
None

$$$$
BOYJXZZMAQCYOC-UHFFFAOYSA-N-P95-P23-P95-601533
     RDKit          3D

 18 19  0  0  0  0  0  0  0  0999 V2000
   -3.0845    3.8797  -14.7522 C   0  0  0  0  0  0  0  0  0  0  0  0
   -3.3904    4.3718  -16.1593 C   0  0  0  0  0  0  0  0  0  0  0  0
   -3.3503    5.8881  -16.2624 C   0  0  1  0  0  0  0  0  0  0  0  0
   -3.2448    6.4579  -17.9691 S   0  0  0  0  0  0  0  0  0  0  0  0
   -4.3915    6.5942  -15.5251 N   0  0  0  0  0  0  0  0  0  0  0  0
   -5.6252    5.9978  -15.2620 C   0  0  0  0  0  0  0  0  0  0  0  0
   -6.0108    6.0322  -13.9639 N   0  0  0  0  0  0  0  0  0  0  0  0
   -7.1909    5.4836  -13.6168 C   0  0  0  0  0  0  0  0  0  0  0  0
   -8.0940    4.9100  -14.4140 N   0  0  0  0  0  0  0  0  0  0  0  0
   -7.6756    4.8772  -15.6867 C   0  0  0  0  0  0  0  0  0  0  0  0
   -8.6020    4.1681  -16.9174 S   0  0  0  0  0  0  0  0  0  0  0  0
   -7.3641    4.5636  -18.0323 C   0  0  0  0  0  0  0  0  0  0  0  0
   -7.5221    4.1624  -19.4519 C   0  0  0  0  0  0  0  0  0  0  0  0
   -6.2636    4.2567  -20.1919 N   0  0  0  0  0  0  0  0  0  0  0  0
   -5.8005    5.4127  -20.3112 N   0  0  0  0  0  0  0  0  0  0  0  0
   -5.3721    6.4673  -20.4151 N   0  0  0  0  0  0  0  0  0  0  0  0
   -6.3366    5.2401  -17.5576 N   0  0  0  0  0  0  0  0  0  0  0  0
   -6.4923    5.3937  -16.1941 C   0  0  0  0  0  0  0  0  0  0  0  0
  1  2  1  0
  2  3  1  0
  3  4  1  6
  3  5  1  0
  5  6  1  0
  6  7  2  0
  7  8  1  0
  8  9  2  0
  9 10  1  0
 10 11  1  0
 11 12  1  0
 12 13  1  0
 13 14  1  0
 14 15  2  0
 15 16  2  0
 12 17  2  0
 17 18  1  0
 18  6  1  0
 18 10  2  0
M  CHG  2  15   1  16  -1
M  END
>  <energy_score>  (5244) 
-89.218652

>  <alias>  (5244) 
BOYJXZZMAQCYOC-UHFFFAOYSA-N-P95-P23-P95-601533

>  <HIPPO Pose ID>  (5244) 
91357

>  <smiles>  (5244) 
CCC(S)Nc1ncnc2sc(CN=[N+]=[N-])nc12

>  <inchikey>  (5244) 
BOYJXZZMAQCYOC-UHFFFAOYSA-N

>  <distance_score>  (5244) 
1.273122

>  <ref_mols>  (5244) 
Z1719a,Z0472a

>  <ref_pdb>  (5244) 
Z0101a

>  <HIPPO Compound ID>  (5244) 
138804

>  <name>  (5244) 
BOYJXZZMAQCYOC-UHFFFAOYSA-N-P95-P23-P95-601533

>  <inspiration_score>  (5244) 
None

$$$$
LNNPUXNLUMHPNE-UHFFFAOYSA-N-P23-P23-P95-601533
     RDKit          3D

 18 19  0  0  0  0  0  0  0  0999 V2000
   -3.7209    6.8234  -21.1800 N   0  0  0  0  0  0  0  0  0  0  0  0
   -4.7533    6.6755  -20.7158 N   0  0  0  0  0  0  0  0  0  0  0  0
   -5.8663    6.5236  -20.1914 N   0  0  0  0  0  0  0  0  0  0  0  0
   -6.2115    5.1320  -19.8318 C   0  0  0  0  0  0  0  0  0  0  0  0
   -6.6328    5.1094  -18.4118 C   0  0  0  0  0  0  0  0  0  0  0  0
   -5.7819    5.4671  -17.4780 N   0  0  0  0  0  0  0  0  0  0  0  0
   -6.3195    5.1743  -16.2554 C   0  0  0  0  0  0  0  0  0  0  0  0
   -5.6662    5.2769  -15.0186 C   0  0  0  0  0  0  0  0  0  0  0  0
   -4.3603    5.8189  -14.9382 N   0  0  0  0  0  0  0  0  0  0  0  0
   -3.3490    4.7995  -15.2579 C   0  0  0  0  0  0  0  0  0  0  0  0
   -2.3313    5.3512  -16.2595 C   0  0  0  0  0  0  0  0  0  0  0  0
   -2.8846    5.4430  -17.6705 C   0  0  0  0  0  0  0  0  0  0  0  0
   -1.8693    5.7189  -18.5320 F   0  0  0  0  0  0  0  0  0  0  0  0
   -6.3258    4.8779  -13.9149 N   0  0  0  0  0  0  0  0  0  0  0  0
   -7.6012    4.4482  -14.0601 C   0  0  0  0  0  0  0  0  0  0  0  0
   -8.3383    4.3737  -15.1837 N   0  0  0  0  0  0  0  0  0  0  0  0
   -7.6190    4.7109  -16.2628 C   0  0  0  0  0  0  0  0  0  0  0  0
   -8.1805    4.6033  -17.8725 S   0  0  0  0  0  0  0  0  0  0  0  0
  1  2  2  0
  2  3  2  0
  3  4  1  0
  4  5  1  0
  5  6  2  0
  6  7  1  0
  7  8  2  0
  8  9  1  0
  9 10  1  0
 10 11  1  0
 11 12  1  0
 12 13  1  0
  8 14  1  0
 14 15  2  0
 15 16  1  0
 16 17  2  0
 17 18  1  0
 18  5  1  0
 17  7  1  0
M  CHG  2   1  -1   2   1
M  END
>  <energy_score>  (5245) 
-45.003683

>  <alias>  (5245) 
LNNPUXNLUMHPNE-UHFFFAOYSA-N-P23-P23-P95-601533

>  <HIPPO Pose ID>  (5245) 
91364

>  <smiles>  (5245) 
[N-]=[N+]=NCc1nc2c(NCCCF)ncnc2s1

>  <inchikey>  (5245) 
LNNPUXNLUMHPNE-UHFFFAOYSA-N

>  <distance_score>  (5245) 
0.973501

>  <ref_mols>  (5245) 
Z1719a,Z0472a

>  <ref_pdb>  (5245) 
Z0101a

>  <HIPPO Compound ID>  (5245) 
138808

>  <name>  (5245) 
LNNPUXNLUMHPNE-UHFFFAOYSA-N-P23-P23-P95-601533

>  <inspiration_score>  (5245) 
None

$$$$
REGUUBGWAIYMAZ-UHFFFAOYSA-N-P23-P23-P95-601533
     RDKit          3D

 18 19  0  0  0  0  0  0  0  0999 V2000
   -1.2543    5.7054  -15.4872 C   0  0  0  0  0  0  0  0  0  0  0  0
   -2.2326    6.4741  -16.3691 C   0  0  0  0  0  0  0  0  0  0  0  0
   -1.7169    6.5743  -17.8094 C   0  0  0  0  0  0  0  0  0  0  0  0
   -3.6162    5.8534  -16.3999 C   0  0  0  0  0  0  0  0  0  0  0  0
   -4.1972    5.6052  -15.0867 N   0  0  0  0  0  0  0  0  0  0  0  0
   -5.5678    5.2846  -15.0986 C   0  0  0  0  0  0  0  0  0  0  0  0
   -6.2542    5.3707  -13.9383 N   0  0  0  0  0  0  0  0  0  0  0  0
   -7.5831    5.1155  -13.9602 C   0  0  0  0  0  0  0  0  0  0  0  0
   -8.3749    4.8591  -15.0169 N   0  0  0  0  0  0  0  0  0  0  0  0
   -7.6591    4.7834  -16.1501 C   0  0  0  0  0  0  0  0  0  0  0  0
   -8.3412    4.5565  -17.7063 S   0  0  0  0  0  0  0  0  0  0  0  0
   -6.7748    4.6996  -18.3780 C   0  0  0  0  0  0  0  0  0  0  0  0
   -6.4587    4.7732  -19.8167 C   0  0  0  0  0  0  0  0  0  0  0  0
   -5.9977    6.1503  -20.0999 N   0  0  0  0  0  0  0  0  0  0  0  0
   -4.7957    6.2577  -20.3831 N   0  0  0  0  0  0  0  0  0  0  0  0
   -3.6888    6.3576  -20.6462 N   0  0  0  0  0  0  0  0  0  0  0  0
   -5.7921    4.8210  -17.5280 N   0  0  0  0  0  0  0  0  0  0  0  0
   -6.2905    4.9414  -16.2586 C   0  0  0  0  0  0  0  0  0  0  0  0
  1  2  1  0
  2  3  1  0
  2  4  1  0
  4  5  1  0
  5  6  1  0
  6  7  2  0
  7  8  1  0
  8  9  2  0
  9 10  1  0
 10 11  1  0
 11 12  1  0
 12 13  1  0
 13 14  1  0
 14 15  2  0
 15 16  2  0
 12 17  2  0
 17 18  1  0
 18  6  1  0
 18 10  2  0
M  CHG  2  15   1  16  -1
M  END
>  <energy_score>  (5246) 
-93.709165

>  <alias>  (5246) 
REGUUBGWAIYMAZ-UHFFFAOYSA-N-P23-P23-P95-601533

>  <HIPPO Pose ID>  (5246) 
91366

>  <smiles>  (5246) 
CC(C)CNc1ncnc2sc(CN=[N+]=[N-])nc12

>  <inchikey>  (5246) 
REGUUBGWAIYMAZ-UHFFFAOYSA-N

>  <distance_score>  (5246) 
1.473793

>  <ref_mols>  (5246) 
Z1719a,Z0472a

>  <ref_pdb>  (5246) 
Z0101a

>  <HIPPO Compound ID>  (5246) 
138809

>  <name>  (5246) 
REGUUBGWAIYMAZ-UHFFFAOYSA-N-P23-P23-P95-601533

>  <inspiration_score>  (5246) 
None

$$$$
HMQRELJAHUQJBS-UHFFFAOYSA-N-P23-P23-P95-601533
     RDKit          3D

 19 21  0  0  0  0  0  0  0  0999 V2000
   -2.3117    5.6267  -18.4868 C   0  0  0  0  0  0  0  0  0  0  0  0
   -2.5430    5.2239  -17.2356 C   0  0  0  0  0  0  0  0  0  0  0  0
   -1.9913    5.6916  -15.8888 C   0  0  0  0  0  0  0  0  0  0  0  0
   -3.2262    4.9093  -15.4102 C   0  0  1  0  0  0  0  0  0  0  0  0
   -4.3056    5.8054  -15.0135 N   0  0  0  0  0  0  0  0  0  0  0  0
   -5.6306    5.2924  -15.0484 C   0  0  0  0  0  0  0  0  0  0  0  0
   -6.2571    4.8442  -13.9414 N   0  0  0  0  0  0  0  0  0  0  0  0
   -7.5309    4.4025  -14.0781 C   0  0  0  0  0  0  0  0  0  0  0  0
   -8.2840    4.3384  -15.1913 N   0  0  0  0  0  0  0  0  0  0  0  0
   -7.5923    4.7247  -16.2719 C   0  0  0  0  0  0  0  0  0  0  0  0
   -8.1450    4.5898  -17.8824 S   0  0  0  0  0  0  0  0  0  0  0  0
   -6.6066    5.1399  -18.4126 C   0  0  0  0  0  0  0  0  0  0  0  0
   -6.1290    5.0427  -19.8145 C   0  0  0  0  0  0  0  0  0  0  0  0
   -5.3654    6.2419  -20.2413 N   0  0  0  0  0  0  0  0  0  0  0  0
   -5.8097    7.3463  -19.8965 N   0  0  0  0  0  0  0  0  0  0  0  0
   -6.1681    8.3814  -19.5726 N   0  0  0  0  0  0  0  0  0  0  0  0
   -5.8260    5.6408  -17.4830 N   0  0  0  0  0  0  0  0  0  0  0  0
   -6.3151    5.2441  -16.2694 C   0  0  0  0  0  0  0  0  0  0  0  0
   -3.3273    4.3346  -16.7464 O   0  0  0  0  0  0  0  0  0  0  0  0
  1  2  2  0
  2  3  1  0
  3  4  1  0
  4  5  1  6
  5  6  1  0
  6  7  2  0
  7  8  1  0
  8  9  2  0
  9 10  1  0
 10 11  1  0
 11 12  1  0
 12 13  1  0
 13 14  1  0
 14 15  2  0
 15 16  2  0
 12 17  2  0
 17 18  1  0
  4 19  1  0
 19  2  1  0
 18  6  1  0
 18 10  2  0
M  CHG  2  15   1  16  -1
M  END
>  <energy_score>  (5247) 
-69.435094

>  <alias>  (5247) 
HMQRELJAHUQJBS-UHFFFAOYSA-N-P23-P23-P95-601533

>  <HIPPO Pose ID>  (5247) 
91368

>  <smiles>  (5247) 
C=C1CC(Nc2ncnc3sc(CN=[N+]=[N-])nc23)O1

>  <inchikey>  (5247) 
HMQRELJAHUQJBS-UHFFFAOYSA-N

>  <distance_score>  (5247) 
0.982293

>  <ref_mols>  (5247) 
Z1719a,Z0472a

>  <ref_pdb>  (5247) 
Z0101a

>  <HIPPO Compound ID>  (5247) 
138811

>  <name>  (5247) 
HMQRELJAHUQJBS-UHFFFAOYSA-N-P23-P23-P95-601533

>  <inspiration_score>  (5247) 
None

$$$$
XXQXLETUAJGDIT-UHFFFAOYSA-N-P95-P23-P95-601533
     RDKit          3D

 19 20  0  0  0  0  0  0  0  0999 V2000
   -2.3482    7.5563  -16.9505 C   0  0  0  0  0  0  0  0  0  0  0  0
   -2.6870    6.0904  -17.2080 C   0  0  0  0  0  0  0  0  0  0  0  0
   -2.2101    5.6689  -18.5918 C   0  0  0  0  0  0  0  0  0  0  0  0
   -2.0200    5.3441  -16.2790 F   0  0  0  0  0  0  0  0  0  0  0  0
   -4.1687    5.7883  -17.0300 C   0  0  0  0  0  0  0  0  0  0  0  0
   -4.5968    6.0278  -15.6505 N   0  0  0  0  0  0  0  0  0  0  0  0
   -5.8532    5.5186  -15.3130 C   0  0  0  0  0  0  0  0  0  0  0  0
   -6.1444    5.4215  -13.9971 N   0  0  0  0  0  0  0  0  0  0  0  0
   -7.3659    4.9748  -13.6420 C   0  0  0  0  0  0  0  0  0  0  0  0
   -8.3727    4.5873  -14.4360 N   0  0  0  0  0  0  0  0  0  0  0  0
   -8.0160    4.6181  -15.7282 C   0  0  0  0  0  0  0  0  0  0  0  0
   -9.0088    4.0476  -16.9863 S   0  0  0  0  0  0  0  0  0  0  0  0
   -7.7665    4.4091  -18.1060 C   0  0  0  0  0  0  0  0  0  0  0  0
   -7.8892    4.0099  -19.5318 C   0  0  0  0  0  0  0  0  0  0  0  0
   -6.6028    4.0087  -20.2467 N   0  0  0  0  0  0  0  0  0  0  0  0
   -5.9554    5.0766  -20.2138 N   0  0  0  0  0  0  0  0  0  0  0  0
   -5.3384    6.0390  -20.1790 N   0  0  0  0  0  0  0  0  0  0  0  0
   -6.7281    5.0423  -17.6144 N   0  0  0  0  0  0  0  0  0  0  0  0
   -6.8215    5.0847  -16.2401 C   0  0  0  0  0  0  0  0  0  0  0  0
  1  2  1  0
  2  3  1  0
  2  4  1  0
  2  5  1  0
  5  6  1  0
  6  7  1  0
  7  8  2  0
  8  9  1  0
  9 10  2  0
 10 11  1  0
 11 12  1  0
 12 13  1  0
 13 14  1  0
 14 15  1  0
 15 16  2  0
 16 17  2  0
 13 18  2  0
 18 19  1  0
 19  7  1  0
 19 11  2  0
M  CHG  2  16   1  17  -1
M  END
>  <energy_score>  (5248) 
-77.717504

>  <alias>  (5248) 
XXQXLETUAJGDIT-UHFFFAOYSA-N-P95-P23-P95-601533

>  <HIPPO Pose ID>  (5248) 
91371

>  <smiles>  (5248) 
CC(C)(F)CNc1ncnc2sc(CN=[N+]=[N-])nc12

>  <inchikey>  (5248) 
XXQXLETUAJGDIT-UHFFFAOYSA-N

>  <distance_score>  (5248) 
1.130756

>  <ref_mols>  (5248) 
Z1719a,Z0472a

>  <ref_pdb>  (5248) 
Z0101a

>  <HIPPO Compound ID>  (5248) 
138812

>  <name>  (5248) 
XXQXLETUAJGDIT-UHFFFAOYSA-N-P95-P23-P95-601533

>  <inspiration_score>  (5248) 
None

$$$$
BIZOEBISERYDEB-UHFFFAOYSA-N-P23-P23-P95-601533
     RDKit          3D

 19 21  0  0  0  0  0  0  0  0999 V2000
   -3.6199    6.4796  -20.7697 N   0  0  0  0  0  0  0  0  0  0  0  0
   -4.7260    6.3743  -20.5026 N   0  0  0  0  0  0  0  0  0  0  0  0
   -5.9213    6.2568  -20.2007 N   0  0  0  0  0  0  0  0  0  0  0  0
   -6.3620    4.8778  -19.8801 C   0  0  0  0  0  0  0  0  0  0  0  0
   -6.8055    4.8566  -18.4727 C   0  0  0  0  0  0  0  0  0  0  0  0
   -5.9347    5.1531  -17.5443 N   0  0  0  0  0  0  0  0  0  0  0  0
   -6.5256    5.0778  -16.3183 C   0  0  0  0  0  0  0  0  0  0  0  0
   -5.9378    5.3699  -15.0819 C   0  0  0  0  0  0  0  0  0  0  0  0
   -4.6400    5.8538  -14.9254 N   0  0  0  0  0  0  0  0  0  0  0  0
   -4.1115    6.7432  -15.9562 C   0  0  0  0  0  0  0  0  0  0  0  0
   -3.2695    6.0266  -17.0168 C   0  0  0  0  0  0  0  0  0  0  0  0
   -2.5465    4.7184  -16.6065 C   0  0  0  0  0  0  0  0  0  0  0  0
   -1.0961    5.6999  -16.0998 S   0  0  0  0  0  0  0  0  0  0  0  0
   -1.9241    6.7160  -17.3708 C   0  0  0  0  0  0  0  0  0  0  0  0
   -6.6711    5.1765  -13.9669 N   0  0  0  0  0  0  0  0  0  0  0  0
   -7.9437    4.7454  -14.1106 C   0  0  0  0  0  0  0  0  0  0  0  0
   -8.6344    4.5461  -15.2454 N   0  0  0  0  0  0  0  0  0  0  0  0
   -7.8547    4.7029  -16.3251 C   0  0  0  0  0  0  0  0  0  0  0  0
   -8.3903    4.4981  -17.9374 S   0  0  0  0  0  0  0  0  0  0  0  0
  1  2  2  0
  2  3  2  0
  3  4  1  0
  4  5  1  0
  5  6  2  0
  6  7  1  0
  7  8  2  0
  8  9  1  0
  9 10  1  0
 10 11  1  0
 11 12  1  0
 12 13  1  0
 13 14  1  0
  8 15  1  0
 15 16  2  0
 16 17  1  0
 17 18  2  0
 18 19  1  0
 19  5  1  0
 18  7  1  0
 14 11  1  0
M  CHG  2   1  -1   2   1
M  END
>  <energy_score>  (5249) 
-39.394936

>  <alias>  (5249) 
BIZOEBISERYDEB-UHFFFAOYSA-N-P23-P23-P95-601533

>  <HIPPO Pose ID>  (5249) 
91372

>  <smiles>  (5249) 
[N-]=[N+]=NCc1nc2c(NCC3CSC3)ncnc2s1

>  <inchikey>  (5249) 
BIZOEBISERYDEB-UHFFFAOYSA-N

>  <distance_score>  (5249) 
1.259336

>  <ref_mols>  (5249) 
Z1719a,Z0472a

>  <ref_pdb>  (5249) 
Z0101a

>  <HIPPO Compound ID>  (5249) 
138814

>  <name>  (5249) 
BIZOEBISERYDEB-UHFFFAOYSA-N-P23-P23-P95-601533

>  <inspiration_score>  (5249) 
None

$$$$
IYKXSQMDYZRINN-UHFFFAOYSA-N-P95-P23-P95-601533
     RDKit          3D

 19 20  0  0  0  0  0  0  0  0999 V2000
   -2.8989    7.1544  -17.9472 C   0  0  0  0  0  0  0  0  0  0  0  0
   -2.5376    5.7550  -17.4300 C   0  0  0  0  0  0  0  0  0  0  0  0
   -2.0326    4.9395  -18.6372 C   0  0  0  0  0  0  0  0  0  0  0  0
   -1.4413    5.8956  -16.3669 C   0  0  0  0  0  0  0  0  0  0  0  0
   -3.7507    5.0383  -16.8159 C   0  0  0  0  0  0  0  0  0  0  0  0
   -4.3597    5.8256  -15.7440 N   0  0  0  0  0  0  0  0  0  0  0  0
   -5.6477    5.4272  -15.3671 C   0  0  0  0  0  0  0  0  0  0  0  0
   -5.9273    5.4348  -14.0438 N   0  0  0  0  0  0  0  0  0  0  0  0
   -7.1647    5.0699  -13.6480 C   0  0  0  0  0  0  0  0  0  0  0  0
   -8.2017    4.6850  -14.4037 N   0  0  0  0  0  0  0  0  0  0  0  0
   -7.8731    4.6564  -15.7038 C   0  0  0  0  0  0  0  0  0  0  0  0
   -8.9301    4.1048  -16.9185 S   0  0  0  0  0  0  0  0  0  0  0  0
   -7.7130    4.4049  -18.0824 C   0  0  0  0  0  0  0  0  0  0  0  0
   -7.9040    4.0189  -19.5049 C   0  0  0  0  0  0  0  0  0  0  0  0
   -6.6439    3.9959  -20.2657 N   0  0  0  0  0  0  0  0  0  0  0  0
   -5.9811    5.0560  -20.2384 N   0  0  0  0  0  0  0  0  0  0  0  0
   -5.3647    6.0178  -20.2136 N   0  0  0  0  0  0  0  0  0  0  0  0
   -6.6249    4.9809  -17.6293 N   0  0  0  0  0  0  0  0  0  0  0  0
   -6.6652    5.0371  -16.2574 C   0  0  0  0  0  0  0  0  0  0  0  0
  1  2  1  0
  2  3  1  0
  2  4  1  0
  2  5  1  0
  5  6  1  0
  6  7  1  0
  7  8  2  0
  8  9  1  0
  9 10  2  0
 10 11  1  0
 11 12  1  0
 12 13  1  0
 13 14  1  0
 14 15  1  0
 15 16  2  0
 16 17  2  0
 13 18  2  0
 18 19  1  0
 19  7  1  0
 19 11  2  0
M  CHG  2  16   1  17  -1
M  END
>  <energy_score>  (5250) 
-74.480039

>  <alias>  (5250) 
IYKXSQMDYZRINN-UHFFFAOYSA-N-P95-P23-P95-601533

>  <HIPPO Pose ID>  (5250) 
91391

>  <smiles>  (5250) 
CC(C)(C)CNc1ncnc2sc(CN=[N+]=[N-])nc12

>  <inchikey>  (5250) 
IYKXSQMDYZRINN-UHFFFAOYSA-N

>  <distance_score>  (5250) 
1.347947

>  <ref_mols>  (5250) 
Z1719a,Z0472a

>  <ref_pdb>  (5250) 
Z0101a

>  <HIPPO Compound ID>  (5250) 
138827

>  <name>  (5250) 
IYKXSQMDYZRINN-UHFFFAOYSA-N-P95-P23-P95-601533

>  <inspiration_score>  (5250) 
None

$$$$
BNODBAJXPOKZIQ-UHFFFAOYSA-N-P95-P23-P95-601533
     RDKit          3D

 19 20  0  0  0  0  0  0  0  0999 V2000
   -3.7913    8.7358  -17.4682 C   0  0  0  0  0  0  0  0  0  0  0  0
   -4.1043    7.2923  -17.0894 C   0  0  0  0  0  0  0  0  0  0  0  0
   -2.8230    6.4680  -16.9888 C   0  0  0  0  0  0  0  0  0  0  0  0
   -3.0109    4.9692  -16.7976 C   0  0  0  0  0  0  0  0  0  0  0  0
   -3.3828    4.4945  -15.3959 C   0  0  0  0  0  0  0  0  0  0  0  0
   -4.3848    5.3080  -14.7269 N   0  0  0  0  0  0  0  0  0  0  0  0
   -5.7338    4.9774  -14.9052 C   0  0  0  0  0  0  0  0  0  0  0  0
   -6.4743    4.9552  -13.7746 N   0  0  0  0  0  0  0  0  0  0  0  0
   -7.7955    4.7069  -13.8745 C   0  0  0  0  0  0  0  0  0  0  0  0
   -8.5242    4.5246  -14.9824 N   0  0  0  0  0  0  0  0  0  0  0  0
   -7.7554    4.5279  -16.0813 C   0  0  0  0  0  0  0  0  0  0  0  0
   -8.3744    4.2726  -17.6529 S   0  0  0  0  0  0  0  0  0  0  0  0
   -6.8037    4.5303  -18.2808 C   0  0  0  0  0  0  0  0  0  0  0  0
   -6.4972    4.5440  -19.7315 C   0  0  0  0  0  0  0  0  0  0  0  0
   -5.7408    5.7696  -20.0513 N   0  0  0  0  0  0  0  0  0  0  0  0
   -4.5139    5.6282  -20.1753 N   0  0  0  0  0  0  0  0  0  0  0  0
   -3.3836    5.5046  -20.2976 N   0  0  0  0  0  0  0  0  0  0  0  0
   -5.8597    4.7312  -17.3945 N   0  0  0  0  0  0  0  0  0  0  0  0
   -6.3885    4.7436  -16.1294 C   0  0  0  0  0  0  0  0  0  0  0  0
  1  2  1  0
  2  3  1  0
  3  4  1  0
  4  5  1  0
  5  6  1  0
  6  7  1  0
  7  8  2  0
  8  9  1  0
  9 10  2  0
 10 11  1  0
 11 12  1  0
 12 13  1  0
 13 14  1  0
 14 15  1  0
 15 16  2  0
 16 17  2  0
 13 18  2  0
 18 19  1  0
 19  7  1  0
 19 11  2  0
M  CHG  2  16   1  17  -1
M  END
>  <energy_score>  (5251) 
-233.037981

>  <alias>  (5251) 
BNODBAJXPOKZIQ-UHFFFAOYSA-N-P95-P23-P95-601533

>  <HIPPO Pose ID>  (5251) 
91399

>  <smiles>  (5251) 
CCCCCNc1ncnc2sc(CN=[N+]=[N-])nc12

>  <inchikey>  (5251) 
BNODBAJXPOKZIQ-UHFFFAOYSA-N

>  <distance_score>  (5251) 
1.258846

>  <ref_mols>  (5251) 
Z1719a,Z0472a

>  <ref_pdb>  (5251) 
Z0101a

>  <HIPPO Compound ID>  (5251) 
138832

>  <name>  (5251) 
BNODBAJXPOKZIQ-UHFFFAOYSA-N-P95-P23-P95-601533

>  <inspiration_score>  (5251) 
None

$$$$
QGDQKJGSAJOSFO-UHFFFAOYSA-N-P23-P23-P95-601533
     RDKit          3D

 19 20  0  0  0  0  0  0  0  0999 V2000
   -2.9535    3.8232  -15.4472 C   0  0  0  0  0  0  0  0  0  0  0  0
   -2.1881    5.0181  -15.3945 O   0  0  0  0  0  0  0  0  0  0  0  0
   -2.5200    6.0443  -16.3383 C   0  0  1  0  0  0  0  0  0  0  0  0
   -1.8728    5.7720  -17.6964 C   0  0  0  0  0  0  0  0  0  0  0  0
   -4.0153    6.2636  -16.5092 C   0  0  0  0  0  0  0  0  0  0  0  0
   -4.7297    6.4448  -15.2377 N   0  0  0  0  0  0  0  0  0  0  0  0
   -6.0154    5.8627  -15.2379 C   0  0  0  0  0  0  0  0  0  0  0  0
   -6.5020    5.3605  -14.0826 N   0  0  0  0  0  0  0  0  0  0  0  0
   -7.6783    4.6891  -14.1248 C   0  0  0  0  0  0  0  0  0  0  0  0
   -8.4490    4.4115  -15.1917 N   0  0  0  0  0  0  0  0  0  0  0  0
   -7.9000    4.8733  -16.3230 C   0  0  0  0  0  0  0  0  0  0  0  0
   -8.4317    4.4678  -17.9026 S   0  0  0  0  0  0  0  0  0  0  0  0
   -7.0366    5.2492  -18.5223 C   0  0  0  0  0  0  0  0  0  0  0  0
   -6.4146    4.9917  -19.8442 C   0  0  0  0  0  0  0  0  0  0  0  0
   -5.8594    6.2732  -20.3453 N   0  0  0  0  0  0  0  0  0  0  0  0
   -4.6341    6.2960  -20.5138 N   0  0  0  0  0  0  0  0  0  0  0  0
   -3.5040    6.3087  -20.6796 N   0  0  0  0  0  0  0  0  0  0  0  0
   -6.4234    6.0398  -17.6770 N   0  0  0  0  0  0  0  0  0  0  0  0
   -6.7641    5.6510  -16.4106 C   0  0  0  0  0  0  0  0  0  0  0  0
  1  2  1  0
  2  3  1  0
  3  4  1  6
  3  5  1  0
  5  6  1  0
  6  7  1  0
  7  8  2  0
  8  9  1  0
  9 10  2  0
 10 11  1  0
 11 12  1  0
 12 13  1  0
 13 14  1  0
 14 15  1  0
 15 16  2  0
 16 17  2  0
 13 18  2  0
 18 19  1  0
 19  7  1  0
 19 11  2  0
M  CHG  2  16   1  17  -1
M  END
>  <energy_score>  (5252) 
-81.415153

>  <alias>  (5252) 
QGDQKJGSAJOSFO-UHFFFAOYSA-N-P23-P23-P95-601533

>  <HIPPO Pose ID>  (5252) 
91402

>  <smiles>  (5252) 
COC(C)CNc1ncnc2sc(CN=[N+]=[N-])nc12

>  <inchikey>  (5252) 
QGDQKJGSAJOSFO-UHFFFAOYSA-N

>  <distance_score>  (5252) 
0.973265

>  <ref_mols>  (5252) 
Z1719a,Z0472a

>  <ref_pdb>  (5252) 
Z0101a

>  <HIPPO Compound ID>  (5252) 
138835

>  <name>  (5252) 
QGDQKJGSAJOSFO-UHFFFAOYSA-N-P23-P23-P95-601533

>  <inspiration_score>  (5252) 
None

$$$$
FIYPMFYLZGNZBN-UHFFFAOYSA-N-P23-P23-P95-601533
     RDKit          3D

 19 21  0  0  0  0  0  0  0  0999 V2000
   -3.3920    6.3810  -20.4888 N   0  0  0  0  0  0  0  0  0  0  0  0
   -4.5333    6.3397  -20.4505 N   0  0  0  0  0  0  0  0  0  0  0  0
   -5.7699    6.2837  -20.4223 N   0  0  0  0  0  0  0  0  0  0  0  0
   -6.3205    5.0054  -19.9030 C   0  0  0  0  0  0  0  0  0  0  0  0
   -6.7954    5.2475  -18.5233 C   0  0  0  0  0  0  0  0  0  0  0  0
   -6.0673    5.9879  -17.7234 N   0  0  0  0  0  0  0  0  0  0  0  0
   -6.4559    5.7701  -16.4327 C   0  0  0  0  0  0  0  0  0  0  0  0
   -5.7836    6.1759  -15.2696 C   0  0  0  0  0  0  0  0  0  0  0  0
   -4.5999    6.9084  -15.2433 N   0  0  0  0  0  0  0  0  0  0  0  0
   -3.7074    7.0007  -16.4049 C   0  0  0  0  0  0  0  0  0  0  0  0
   -2.8032    5.7978  -16.6582 C   0  0  0  0  0  0  0  0  0  0  0  0
   -2.0524    5.2163  -15.4320 C   0  0  0  0  0  0  0  0  0  0  0  0
   -3.0729    4.0621  -15.4156 C   0  0  0  0  0  0  0  0  0  0  0  0
   -3.3597    4.3771  -16.8948 C   0  0  0  0  0  0  0  0  0  0  0  0
   -6.3053    5.7915  -14.0801 N   0  0  0  0  0  0  0  0  0  0  0  0
   -7.4495    5.0689  -14.0791 C   0  0  0  0  0  0  0  0  0  0  0  0
   -8.1803    4.6612  -15.1277 N   0  0  0  0  0  0  0  0  0  0  0  0
   -7.6051    5.0138  -16.2869 C   0  0  0  0  0  0  0  0  0  0  0  0
   -8.1831    4.5339  -17.8240 S   0  0  0  0  0  0  0  0  0  0  0  0
  1  2  2  0
  2  3  2  0
  3  4  1  0
  4  5  1  0
  5  6  2  0
  6  7  1  0
  7  8  2  0
  8  9  1  0
  9 10  1  0
 10 11  1  0
 11 12  1  0
 12 13  1  0
 13 14  1  0
  8 15  1  0
 15 16  2  0
 16 17  1  0
 17 18  2  0
 18 19  1  0
 19  5  1  0
 18  7  1  0
 14 11  1  0
M  CHG  2   1  -1   2   1
M  END
>  <energy_score>  (5253) 
-86.861112

>  <alias>  (5253) 
FIYPMFYLZGNZBN-UHFFFAOYSA-N-P23-P23-P95-601533

>  <HIPPO Pose ID>  (5253) 
91404

>  <smiles>  (5253) 
[N-]=[N+]=NCc1nc2c(NCC3CCC3)ncnc2s1

>  <inchikey>  (5253) 
FIYPMFYLZGNZBN-UHFFFAOYSA-N

>  <distance_score>  (5253) 
1.345038

>  <ref_mols>  (5253) 
Z1719a,Z0472a

>  <ref_pdb>  (5253) 
Z0101a

>  <HIPPO Compound ID>  (5253) 
138836

>  <name>  (5253) 
FIYPMFYLZGNZBN-UHFFFAOYSA-N-P23-P23-P95-601533

>  <inspiration_score>  (5253) 
None

$$$$
ALDWKYWAAWIKBX-UHFFFAOYSA-N-P23-P23-P95-601533
     RDKit          3D

 19 20  0  0  0  0  0  0  0  0999 V2000
   -3.1338    6.8903  -17.5260 C   0  0  0  0  0  0  0  0  0  0  0  0
   -2.5488    5.5669  -17.0584 C   0  0  2  0  0  0  0  0  0  0  0  0
   -2.2418    4.5765  -18.5487 Cl  0  0  0  0  0  0  0  0  0  0  0  0
   -3.3409    4.7431  -16.0033 C   0  0  1  0  0  0  0  0  0  0  0  0
   -2.4192    4.0748  -15.1488 O   0  0  0  0  0  0  0  0  0  0  0  0
   -4.1510    5.5331  -15.0932 N   0  0  0  0  0  0  0  0  0  0  0  0
   -5.5227    5.2380  -15.1457 C   0  0  0  0  0  0  0  0  0  0  0  0
   -6.2240    5.1362  -13.9992 N   0  0  0  0  0  0  0  0  0  0  0  0
   -7.5508    4.8690  -14.0912 C   0  0  0  0  0  0  0  0  0  0  0  0
   -8.3092    4.7290  -15.1953 N   0  0  0  0  0  0  0  0  0  0  0  0
   -7.5653    4.8178  -16.3094 C   0  0  0  0  0  0  0  0  0  0  0  0
   -8.1695    4.6809  -17.9058 S   0  0  0  0  0  0  0  0  0  0  0  0
   -6.5872    4.9720  -18.4953 C   0  0  0  0  0  0  0  0  0  0  0  0
   -6.2200    5.1844  -19.9098 C   0  0  0  0  0  0  0  0  0  0  0  0
   -6.0082    6.6351  -20.0886 N   0  0  0  0  0  0  0  0  0  0  0  0
   -5.7208    7.0209  -21.2305 N   0  0  0  0  0  0  0  0  0  0  0  0
   -5.4423    7.4550  -22.2487 N   0  0  0  0  0  0  0  0  0  0  0  0
   -5.6493    5.0931  -17.5941 N   0  0  0  0  0  0  0  0  0  0  0  0
   -6.2072    5.0566  -16.3534 C   0  0  0  0  0  0  0  0  0  0  0  0
  2  1  1  6
  2  3  1  0
  2  4  1  0
  4  5  1  1
  4  6  1  0
  6  7  1  0
  7  8  2  0
  8  9  1  0
  9 10  2  0
 10 11  1  0
 11 12  1  0
 12 13  1  0
 13 14  1  0
 14 15  1  0
 15 16  2  0
 16 17  2  0
 13 18  2  0
 18 19  1  0
 19  7  1  0
 19 11  2  0
M  CHG  2  16   1  17  -1
M  END
>  <energy_score>  (5254) 
-88.779441

>  <alias>  (5254) 
ALDWKYWAAWIKBX-UHFFFAOYSA-N-P23-P23-P95-601533

>  <HIPPO Pose ID>  (5254) 
91406

>  <smiles>  (5254) 
CC(Cl)C(O)Nc1ncnc2sc(CN=[N+]=[N-])nc12

>  <inchikey>  (5254) 
ALDWKYWAAWIKBX-UHFFFAOYSA-N

>  <distance_score>  (5254) 
0.9752

>  <ref_mols>  (5254) 
Z1719a,Z0472a

>  <ref_pdb>  (5254) 
Z0101a

>  <HIPPO Compound ID>  (5254) 
138837

>  <name>  (5254) 
ALDWKYWAAWIKBX-UHFFFAOYSA-N-P23-P23-P95-601533

>  <inspiration_score>  (5254) 
None

$$$$
JZZWJLVHMDSQKY-UHFFFAOYSA-N-P23-P23-P95-601533
     RDKit          3D

 19 20  0  0  0  0  0  0  0  0999 V2000
   -3.3366    6.9520  -17.3232 C   0  0  0  0  0  0  0  0  0  0  0  0
   -2.7312    5.5906  -16.9879 C   0  0  0  0  0  0  0  0  0  0  0  0
   -2.4599    4.8379  -18.2926 C   0  0  0  0  0  0  0  0  0  0  0  0
   -0.9746    6.0122  -16.1526 Br  0  0  0  0  0  0  0  0  0  0  0  0
   -3.4696    4.6984  -15.9580 C   0  0  0  0  0  0  0  0  0  0  0  0
   -4.2819    5.4534  -14.9937 N   0  0  0  0  0  0  0  0  0  0  0  0
   -5.6634    5.2099  -15.0740 C   0  0  0  0  0  0  0  0  0  0  0  0
   -6.3657    5.1218  -13.9260 N   0  0  0  0  0  0  0  0  0  0  0  0
   -7.6933    4.8714  -14.0105 C   0  0  0  0  0  0  0  0  0  0  0  0
   -8.4551    4.7279  -15.1101 N   0  0  0  0  0  0  0  0  0  0  0  0
   -7.7134    4.7976  -16.2263 C   0  0  0  0  0  0  0  0  0  0  0  0
   -8.3284    4.5867  -17.8109 S   0  0  0  0  0  0  0  0  0  0  0  0
   -6.7471    4.8178  -18.4217 C   0  0  0  0  0  0  0  0  0  0  0  0
   -6.3681    4.7869  -19.8500 C   0  0  0  0  0  0  0  0  0  0  0  0
   -5.5999    5.9932  -20.2401 N   0  0  0  0  0  0  0  0  0  0  0  0
   -6.0196    7.0949  -19.8611 N   0  0  0  0  0  0  0  0  0  0  0  0
   -6.3377    8.1311  -19.5020 N   0  0  0  0  0  0  0  0  0  0  0  0
   -5.8190    5.0715  -17.5382 N   0  0  0  0  0  0  0  0  0  0  0  0
   -6.3553    5.0414  -16.2830 C   0  0  0  0  0  0  0  0  0  0  0  0
  1  2  1  0
  2  3  1  0
  2  4  1  0
  2  5  1  0
  5  6  1  0
  6  7  1  0
  7  8  2  0
  8  9  1  0
  9 10  2  0
 10 11  1  0
 11 12  1  0
 12 13  1  0
 13 14  1  0
 14 15  1  0
 15 16  2  0
 16 17  2  0
 13 18  2  0
 18 19  1  0
 19  7  1  0
 19 11  2  0
M  CHG  2  16   1  17  -1
M  END
>  <energy_score>  (5255) 
-74.18557

>  <alias>  (5255) 
JZZWJLVHMDSQKY-UHFFFAOYSA-N-P23-P23-P95-601533

>  <HIPPO Pose ID>  (5255) 
91414

>  <smiles>  (5255) 
CC(C)(Br)CNc1ncnc2sc(CN=[N+]=[N-])nc12

>  <inchikey>  (5255) 
JZZWJLVHMDSQKY-UHFFFAOYSA-N

>  <distance_score>  (5255) 
0.9431

>  <ref_mols>  (5255) 
Z1719a,Z0472a

>  <ref_pdb>  (5255) 
Z0101a

>  <HIPPO Compound ID>  (5255) 
138841

>  <name>  (5255) 
JZZWJLVHMDSQKY-UHFFFAOYSA-N-P23-P23-P95-601533

>  <inspiration_score>  (5255) 
None

$$$$
FUWDBZVPYVTMDA-UHFFFAOYSA-N-P95-P23-P95-601533
     RDKit          3D

 19 21  0  0  0  0  0  0  0  0999 V2000
   -4.8789    7.2991  -21.9435 N   0  0  0  0  0  0  0  0  0  0  0  0
   -5.3004    6.8338  -20.9906 N   0  0  0  0  0  0  0  0  0  0  0  0
   -5.7359    6.3970  -19.9148 N   0  0  0  0  0  0  0  0  0  0  0  0
   -5.9965    4.9498  -19.8426 C   0  0  0  0  0  0  0  0  0  0  0  0
   -6.3739    4.6317  -18.4424 C   0  0  0  0  0  0  0  0  0  0  0  0
   -5.4568    4.4186  -17.5270 N   0  0  0  0  0  0  0  0  0  0  0  0
   -6.0403    4.5278  -16.2819 C   0  0  0  0  0  0  0  0  0  0  0  0
   -5.3940    4.4873  -15.0314 C   0  0  0  0  0  0  0  0  0  0  0  0
   -4.0511    4.0715  -14.8927 N   0  0  0  0  0  0  0  0  0  0  0  0
   -3.0874    5.1471  -15.0979 C   0  0  0  0  0  0  0  0  0  0  0  0
   -2.7029    5.2764  -16.5466 C   0  0  2  0  0  0  0  0  0  0  0  0
   -1.8369    6.4217  -17.0096 C   0  0  0  0  0  0  0  0  0  0  0  0
   -3.2513    6.3161  -17.4904 C   0  0  2  0  0  0  0  0  0  0  0  0
   -4.5092    7.6080  -16.8982 Br  0  0  0  0  0  0  0  0  0  0  0  0
   -6.1362    4.7068  -13.9259 N   0  0  0  0  0  0  0  0  0  0  0  0
   -7.4677    4.8716  -14.0735 C   0  0  0  0  0  0  0  0  0  0  0  0
   -8.1922    4.8986  -15.2065 N   0  0  0  0  0  0  0  0  0  0  0  0
   -7.4110    4.7088  -16.2827 C   0  0  0  0  0  0  0  0  0  0  0  0
   -7.9934    4.6499  -17.8871 S   0  0  0  0  0  0  0  0  0  0  0  0
  1  2  2  0
  2  3  2  0
  3  4  1  0
  4  5  1  0
  5  6  2  0
  6  7  1  0
  7  8  2  0
  8  9  1  0
  9 10  1  0
 11 10  1  1
 11 12  1  0
 12 13  1  0
 13 14  1  1
  8 15  1  0
 15 16  2  0
 16 17  1  0
 17 18  2  0
 18 19  1  0
 19  5  1  0
 18  7  1  0
 13 11  1  0
M  CHG  2   1  -1   2   1
M  END
>  <energy_score>  (5256) 
-67.625038

>  <alias>  (5256) 
FUWDBZVPYVTMDA-UHFFFAOYSA-N-P95-P23-P95-601533

>  <HIPPO Pose ID>  (5256) 
91417

>  <smiles>  (5256) 
[N-]=[N+]=NCc1nc2c(NCC3CC3Br)ncnc2s1

>  <inchikey>  (5256) 
FUWDBZVPYVTMDA-UHFFFAOYSA-N

>  <distance_score>  (5256) 
1.1957

>  <ref_mols>  (5256) 
Z1719a,Z0472a

>  <ref_pdb>  (5256) 
Z0101a

>  <HIPPO Compound ID>  (5256) 
138843

>  <name>  (5256) 
FUWDBZVPYVTMDA-UHFFFAOYSA-N-P95-P23-P95-601533

>  <inspiration_score>  (5256) 
None

$$$$
FBSDNQNLWIGJQZ-UHFFFAOYSA-N-P23-P23-P95-601533
     RDKit          3D

 19 20  0  0  0  0  0  0  0  0999 V2000
   -1.9202    6.4352  -17.4875 C   0  0  0  0  0  0  0  0  0  0  0  0
   -2.7078    5.8871  -16.5437 C   0  0  0  0  0  0  0  0  0  0  0  0
   -2.1235    5.1514  -15.3662 C   0  0  0  0  0  0  0  0  0  0  0  0
   -2.8342    3.8485  -15.0159 C   0  0  0  0  0  0  0  0  0  0  0  0
   -4.1980    5.9548  -16.6637 C   0  0  0  0  0  0  0  0  0  0  0  0
   -4.8477    6.4515  -15.4457 N   0  0  0  0  0  0  0  0  0  0  0  0
   -6.1595    5.9174  -15.3766 C   0  0  0  0  0  0  0  0  0  0  0  0
   -6.6021    5.4420  -14.1933 N   0  0  0  0  0  0  0  0  0  0  0  0
   -7.7690    4.7547  -14.1852 C   0  0  0  0  0  0  0  0  0  0  0  0
   -8.5644    4.4406  -15.2231 N   0  0  0  0  0  0  0  0  0  0  0  0
   -8.0592    4.8897  -16.3798 C   0  0  0  0  0  0  0  0  0  0  0  0
   -8.5987    4.4105  -17.9353 S   0  0  0  0  0  0  0  0  0  0  0  0
   -7.2174    5.1937  -18.5943 C   0  0  0  0  0  0  0  0  0  0  0  0
   -6.5293    4.8044  -19.8517 C   0  0  0  0  0  0  0  0  0  0  0  0
   -5.1599    4.3699  -19.4954 N   0  0  0  0  0  0  0  0  0  0  0  0
   -4.2346    5.0334  -19.9833 N   0  0  0  0  0  0  0  0  0  0  0  0
   -3.3512    5.5868  -20.4507 N   0  0  0  0  0  0  0  0  0  0  0  0
   -6.6682    6.0860  -17.8060 N   0  0  0  0  0  0  0  0  0  0  0  0
   -6.9503    5.6981  -16.5201 C   0  0  0  0  0  0  0  0  0  0  0  0
  1  2  2  0
  2  3  1  0
  3  4  1  0
  2  5  1  0
  5  6  1  0
  6  7  1  0
  7  8  2  0
  8  9  1  0
  9 10  2  0
 10 11  1  0
 11 12  1  0
 12 13  1  0
 13 14  1  0
 14 15  1  0
 15 16  2  0
 16 17  2  0
 13 18  2  0
 18 19  1  0
 19  7  1  0
 19 11  2  0
M  CHG  2  16   1  17  -1
M  END
>  <energy_score>  (5257) 
-81.59075

>  <alias>  (5257) 
FBSDNQNLWIGJQZ-UHFFFAOYSA-N-P23-P23-P95-601533

>  <HIPPO Pose ID>  (5257) 
91418

>  <smiles>  (5257) 
C=C(CC)CNc1ncnc2sc(CN=[N+]=[N-])nc12

>  <inchikey>  (5257) 
FBSDNQNLWIGJQZ-UHFFFAOYSA-N

>  <distance_score>  (5257) 
1.050491

>  <ref_mols>  (5257) 
Z1719a,Z0472a

>  <ref_pdb>  (5257) 
Z0101a

>  <HIPPO Compound ID>  (5257) 
138844

>  <name>  (5257) 
FBSDNQNLWIGJQZ-UHFFFAOYSA-N-P23-P23-P95-601533

>  <inspiration_score>  (5257) 
None

$$$$
WXJVTYIJGGREMO-UHFFFAOYSA-N-P23-P23-P95-601533
     RDKit          3D

 19 21  0  0  0  0  0  0  0  0999 V2000
   -3.3844    6.3654  -20.4247 N   0  0  0  0  0  0  0  0  0  0  0  0
   -4.5259    6.3191  -20.4067 N   0  0  0  0  0  0  0  0  0  0  0  0
   -5.7634    6.2672  -20.4127 N   0  0  0  0  0  0  0  0  0  0  0  0
   -6.3367    5.0160  -19.8578 C   0  0  0  0  0  0  0  0  0  0  0  0
   -6.8879    5.3147  -18.5162 C   0  0  0  0  0  0  0  0  0  0  0  0
   -6.2603    6.1560  -17.7289 N   0  0  0  0  0  0  0  0  0  0  0  0
   -6.5243    5.7947  -16.4389 C   0  0  0  0  0  0  0  0  0  0  0  0
   -5.7811    6.1318  -15.2979 C   0  0  0  0  0  0  0  0  0  0  0  0
   -4.6073    6.8955  -15.3084 N   0  0  0  0  0  0  0  0  0  0  0  0
   -3.7612    6.8788  -16.5083 C   0  0  0  0  0  0  0  0  0  0  0  0
   -3.2575    5.5029  -16.8288 C   0  0  0  0  0  0  0  0  0  0  0  0
   -4.0805    4.7075  -17.6156 F   0  0  0  0  0  0  0  0  0  0  0  0
   -2.4434    4.7350  -15.8215 C   0  0  0  0  0  0  0  0  0  0  0  0
   -1.7931    5.2954  -17.0583 C   0  0  0  0  0  0  0  0  0  0  0  0
   -6.2075    5.6537  -14.1052 N   0  0  0  0  0  0  0  0  0  0  0  0
   -7.3286    4.8939  -14.0810 C   0  0  0  0  0  0  0  0  0  0  0  0
   -8.1055    4.5180  -15.1085 N   0  0  0  0  0  0  0  0  0  0  0  0
   -7.6168    4.9630  -16.2749 C   0  0  0  0  0  0  0  0  0  0  0  0
   -8.2213    4.5049  -17.8085 S   0  0  0  0  0  0  0  0  0  0  0  0
  1  2  2  0
  2  3  2  0
  3  4  1  0
  4  5  1  0
  5  6  2  0
  6  7  1  0
  7  8  2  0
  8  9  1  0
  9 10  1  0
 10 11  1  0
 11 12  1  0
 11 13  1  0
 13 14  1  0
  8 15  1  0
 15 16  2  0
 16 17  1  0
 17 18  2  0
 18 19  1  0
 19  5  1  0
 18  7  1  0
 14 11  1  0
M  CHG  2   1  -1   2   1
M  END
>  <energy_score>  (5258) 
-74.8375

>  <alias>  (5258) 
WXJVTYIJGGREMO-UHFFFAOYSA-N-P23-P23-P95-601533

>  <HIPPO Pose ID>  (5258) 
91426

>  <smiles>  (5258) 
[N-]=[N+]=NCc1nc2c(NCC3(F)CC3)ncnc2s1

>  <inchikey>  (5258) 
WXJVTYIJGGREMO-UHFFFAOYSA-N

>  <distance_score>  (5258) 
1.053438

>  <ref_mols>  (5258) 
Z1719a,Z0472a

>  <ref_pdb>  (5258) 
Z0101a

>  <HIPPO Compound ID>  (5258) 
138849

>  <name>  (5258) 
WXJVTYIJGGREMO-UHFFFAOYSA-N-P23-P23-P95-601533

>  <inspiration_score>  (5258) 
None

$$$$
TXQOWHDUHSMFEP-UHFFFAOYSA-N-P23-P23-P95-601533
     RDKit          3D

 19 20  0  0  0  0  0  0  0  0999 V2000
   -2.3656    5.5283  -18.1510 C   0  0  0  0  0  0  0  0  0  0  0  0
   -2.8465    6.0166  -16.7917 C   0  0  1  0  0  0  0  0  0  0  0  0
   -3.8828    6.8783  -17.0313 F   0  0  0  0  0  0  0  0  0  0  0  0
   -3.2776    4.8544  -15.8358 C   0  0  1  0  0  0  0  0  0  0  0  0
   -2.2639    4.5191  -15.0601 O   0  0  0  0  0  0  0  0  0  0  0  0
   -4.2200    5.3367  -14.8425 N   0  0  0  0  0  0  0  0  0  0  0  0
   -5.5784    5.0743  -15.0148 C   0  0  0  0  0  0  0  0  0  0  0  0
   -6.3384    4.9265  -13.8971 N   0  0  0  0  0  0  0  0  0  0  0  0
   -7.6569    4.6917  -14.0388 C   0  0  0  0  0  0  0  0  0  0  0  0
   -8.3866    4.6314  -15.1646 N   0  0  0  0  0  0  0  0  0  0  0  0
   -7.6007    4.7561  -16.2472 C   0  0  0  0  0  0  0  0  0  0  0  0
   -8.2039    4.6666  -17.8473 S   0  0  0  0  0  0  0  0  0  0  0  0
   -6.6180    4.9301  -18.4232 C   0  0  0  0  0  0  0  0  0  0  0  0
   -6.2468    5.0322  -19.8463 C   0  0  0  0  0  0  0  0  0  0  0  0
   -5.9690    6.4488  -20.1647 N   0  0  0  0  0  0  0  0  0  0  0  0
   -4.8395    6.6766  -20.6194 N   0  0  0  0  0  0  0  0  0  0  0  0
   -3.8133    6.9004  -21.0693 N   0  0  0  0  0  0  0  0  0  0  0  0
   -5.6883    5.0609  -17.5179 N   0  0  0  0  0  0  0  0  0  0  0  0
   -6.2328    4.9736  -16.2601 C   0  0  0  0  0  0  0  0  0  0  0  0
  2  1  1  6
  2  3  1  0
  2  4  1  0
  4  5  1  1
  4  6  1  0
  6  7  1  0
  7  8  2  0
  8  9  1  0
  9 10  2  0
 10 11  1  0
 11 12  1  0
 12 13  1  0
 13 14  1  0
 14 15  1  0
 15 16  2  0
 16 17  2  0
 13 18  2  0
 18 19  1  0
 19  7  1  0
 19 11  2  0
M  CHG  3   5  -1  16   1  17  -1
M  END
>  <energy_score>  (5259) 
-110.825679

>  <alias>  (5259) 
TXQOWHDUHSMFEP-UHFFFAOYSA-N-P23-P23-P95-601533

>  <HIPPO Pose ID>  (5259) 
91430

>  <smiles>  (5259) 
CC(F)C([O-])Nc1ncnc2sc(CN=[N+]=[N-])nc12

>  <inchikey>  (5259) 
TXQOWHDUHSMFEP-UHFFFAOYSA-N

>  <distance_score>  (5259) 
1.051618

>  <ref_mols>  (5259) 
Z1719a,Z0472a

>  <ref_pdb>  (5259) 
Z0101a

>  <HIPPO Compound ID>  (5259) 
138852

>  <name>  (5259) 
TXQOWHDUHSMFEP-UHFFFAOYSA-N-P23-P23-P95-601533

>  <inspiration_score>  (5259) 
None

$$$$
ZETPDNFSEZYINE-UHFFFAOYSA-N-P23-P23-P95-601533
     RDKit          3D

 19 21  0  0  0  0  0  0  0  0999 V2000
   -1.8300    5.7873  -17.6288 C   0  0  0  0  0  0  0  0  0  0  0  0
   -2.5756    5.7856  -16.3172 C   0  0  0  0  0  0  0  0  0  0  0  0
   -4.0779    5.7388  -16.4992 C   0  0  0  0  0  0  0  0  0  0  0  0
   -4.8343    6.0962  -15.2983 N   0  0  0  0  0  0  0  0  0  0  0  0
   -6.1541    5.6165  -15.3372 C   0  0  0  0  0  0  0  0  0  0  0  0
   -6.6883    5.1285  -14.1985 N   0  0  0  0  0  0  0  0  0  0  0  0
   -7.8986    4.5295  -14.2754 C   0  0  0  0  0  0  0  0  0  0  0  0
   -8.6661    4.3321  -15.3614 N   0  0  0  0  0  0  0  0  0  0  0  0
   -8.0691    4.7867  -16.4704 C   0  0  0  0  0  0  0  0  0  0  0  0
   -8.5824    4.4351  -18.0657 S   0  0  0  0  0  0  0  0  0  0  0  0
   -7.1242    5.1455  -18.6297 C   0  0  0  0  0  0  0  0  0  0  0  0
   -6.4585    4.8236  -19.9121 C   0  0  0  0  0  0  0  0  0  0  0  0
   -5.0468    4.4712  -19.6191 N   0  0  0  0  0  0  0  0  0  0  0  0
   -4.2097    5.2644  -20.0733 N   0  0  0  0  0  0  0  0  0  0  0  0
   -3.4085    5.9419  -20.5237 N   0  0  0  0  0  0  0  0  0  0  0  0
   -6.5209    5.9293  -17.7708 N   0  0  0  0  0  0  0  0  0  0  0  0
   -6.8904    5.5009  -16.5240 C   0  0  0  0  0  0  0  0  0  0  0  0
   -1.9597    6.5551  -15.1706 C   0  0  0  0  0  0  0  0  0  0  0  0
   -1.9510    5.0528  -15.1452 C   0  0  0  0  0  0  0  0  0  0  0  0
  1  2  1  0
  2  3  1  0
  3  4  1  0
  4  5  1  0
  5  6  2  0
  6  7  1  0
  7  8  2  0
  8  9  1  0
  9 10  1  0
 10 11  1  0
 11 12  1  0
 12 13  1  0
 13 14  2  0
 14 15  2  0
 11 16  2  0
 16 17  1  0
  2 18  1  0
 18 19  1  0
 19  2  1  0
 17  5  1  0
 17  9  2  0
M  CHG  2  14   1  15  -1
M  END
>  <energy_score>  (5260) 
-73.164337

>  <alias>  (5260) 
ZETPDNFSEZYINE-UHFFFAOYSA-N-P23-P23-P95-601533

>  <HIPPO Pose ID>  (5260) 
91440

>  <smiles>  (5260) 
CC1(CNc2ncnc3sc(CN=[N+]=[N-])nc23)CC1

>  <inchikey>  (5260) 
ZETPDNFSEZYINE-UHFFFAOYSA-N

>  <distance_score>  (5260) 
1.101307

>  <ref_mols>  (5260) 
Z1719a,Z0472a

>  <ref_pdb>  (5260) 
Z0101a

>  <HIPPO Compound ID>  (5260) 
138858

>  <name>  (5260) 
ZETPDNFSEZYINE-UHFFFAOYSA-N-P23-P23-P95-601533

>  <inspiration_score>  (5260) 
None

$$$$
PCKJNGNXBIVYPR-UHFFFAOYSA-N-P95-P23-P95-601533
     RDKit          3D

 16 17  0  0  0  0  0  0  0  0999 V2000
   -2.4166    4.4711  -15.1057 O   0  0  0  0  0  0  0  0  0  0  0  0
   -1.8561    5.5105  -15.8998 C   0  0  0  0  0  0  0  0  0  0  0  0
   -2.8325    5.9465  -16.9806 C   0  0  0  0  0  0  0  0  0  0  0  0
   -3.8413    6.9273  -16.3892 C   0  0  0  0  0  0  0  0  0  0  0  0
   -4.6004    6.3244  -15.2912 N   0  0  0  0  0  0  0  0  0  0  0  0
   -5.7973    5.6367  -15.4206 C   0  0  0  0  0  0  0  0  0  0  0  0
   -6.3802    5.3346  -14.2448 N   0  0  0  0  0  0  0  0  0  0  0  0
   -7.5386    4.6614  -14.3098 C   0  0  0  0  0  0  0  0  0  0  0  0
   -8.1793    4.2973  -15.4255 N   0  0  0  0  0  0  0  0  0  0  0  0
   -7.5661    4.5815  -16.5807 C   0  0  0  0  0  0  0  0  0  0  0  0
   -8.1322    4.2218  -17.8008 C   0  0  0  0  0  0  0  0  0  0  0  0
   -7.5056    4.5370  -19.0098 C   0  0  0  0  0  0  0  0  0  0  0  0
   -6.3254    5.2347  -18.9403 C   0  0  0  0  0  0  0  0  0  0  0  0
   -5.4167    5.8562  -20.2333 Cl  0  0  0  0  0  0  0  0  0  0  0  0
   -5.7510    5.5847  -17.7958 N   0  0  0  0  0  0  0  0  0  0  0  0
   -6.3482    5.2609  -16.6412 C   0  0  0  0  0  0  0  0  0  0  0  0
  1  2  1  0
  2  3  1  0
  3  4  1  0
  4  5  1  0
  5  6  1  0
  6  7  2  0
  7  8  1  0
  8  9  2  0
  9 10  1  0
 10 11  2  0
 11 12  1  0
 12 13  2  0
 13 14  1  0
 13 15  1  0
 15 16  2  0
 16  6  1  0
 16 10  1  0
M  END
>  <energy_score>  (5261) 
-12.399572

>  <alias>  (5261) 
PCKJNGNXBIVYPR-UHFFFAOYSA-N-P95-P23-P95-601533

>  <HIPPO Pose ID>  (5261) 
91449

>  <smiles>  (5261) 
OCCCNc1ncnc2ccc(Cl)nc12

>  <inchikey>  (5261) 
PCKJNGNXBIVYPR-UHFFFAOYSA-N

>  <distance_score>  (5261) 
0.948298

>  <ref_mols>  (5261) 
Z1719a,Z0472a

>  <ref_pdb>  (5261) 
Z0101a

>  <HIPPO Compound ID>  (5261) 
138984

>  <name>  (5261) 
PCKJNGNXBIVYPR-UHFFFAOYSA-N-P95-P23-P95-601533

>  <inspiration_score>  (5261) 
None

$$$$
OVMAOUPAEFDQCC-UHFFFAOYSA-N-P95-P23-P95-601533
     RDKit          3D

 16 17  0  0  0  0  0  0  0  0999 V2000
   -2.9561    4.5923  -18.3605 C   0  0  0  0  0  0  0  0  0  0  0  0
   -2.7350    5.9528  -17.7158 C   0  0  0  0  0  0  0  0  0  0  0  0
   -2.3689    6.9546  -18.8060 C   0  0  0  0  0  0  0  0  0  0  0  0
   -3.9551    6.4629  -16.9378 C   0  0  0  0  0  0  0  0  0  0  0  0
   -4.2736    5.5501  -15.8473 N   0  0  0  0  0  0  0  0  0  0  0  0
   -5.6315    5.2999  -15.6063 C   0  0  0  0  0  0  0  0  0  0  0  0
   -5.9637    5.4224  -14.3039 N   0  0  0  0  0  0  0  0  0  0  0  0
   -7.2394    5.1766  -13.9949 C   0  0  0  0  0  0  0  0  0  0  0  0
   -8.2084    4.8535  -14.8529 N   0  0  0  0  0  0  0  0  0  0  0  0
   -7.8395    4.6979  -16.1308 C   0  0  0  0  0  0  0  0  0  0  0  0
   -8.8002    4.3101  -17.0523 C   0  0  0  0  0  0  0  0  0  0  0  0
   -8.4805    4.1243  -18.3887 C   0  0  0  0  0  0  0  0  0  0  0  0
   -7.1745    4.3338  -18.7517 C   0  0  0  0  0  0  0  0  0  0  0  0
   -6.6492    3.9438  -20.3137 Cl  0  0  0  0  0  0  0  0  0  0  0  0
   -6.2084    4.7460  -17.9159 N   0  0  0  0  0  0  0  0  0  0  0  0
   -6.5376    4.9111  -16.6073 C   0  0  0  0  0  0  0  0  0  0  0  0
  1  2  1  0
  2  3  1  0
  2  4  1  0
  4  5  1  0
  5  6  1  0
  6  7  2  0
  7  8  1  0
  8  9  2  0
  9 10  1  0
 10 11  2  0
 11 12  1  0
 12 13  2  0
 13 14  1  0
 13 15  1  0
 15 16  2  0
 16  6  1  0
 16 10  1  0
M  END
>  <energy_score>  (5262) 
-24.671877

>  <alias>  (5262) 
OVMAOUPAEFDQCC-UHFFFAOYSA-N-P95-P23-P95-601533

>  <HIPPO Pose ID>  (5262) 
91453

>  <smiles>  (5262) 
CC(C)CNc1ncnc2ccc(Cl)nc12

>  <inchikey>  (5262) 
OVMAOUPAEFDQCC-UHFFFAOYSA-N

>  <distance_score>  (5262) 
1.236412

>  <ref_mols>  (5262) 
Z1719a,Z0472a

>  <ref_pdb>  (5262) 
Z0101a

>  <HIPPO Compound ID>  (5262) 
138986

>  <name>  (5262) 
OVMAOUPAEFDQCC-UHFFFAOYSA-N-P95-P23-P95-601533

>  <inspiration_score>  (5262) 
None

$$$$
MOPKZHLFVFWFCC-UHFFFAOYSA-N-P23-P23-P95-601533
     RDKit          3D

 16 17  0  0  0  0  0  0  0  0999 V2000
   -2.6701    6.8412  -17.6712 C   0  0  0  0  0  0  0  0  0  0  0  0
   -2.8071    5.5120  -17.5315 C   0  0  0  0  0  0  0  0  0  0  0  0
   -2.6710    4.6237  -18.7332 C   0  0  0  0  0  0  0  0  0  0  0  0
   -3.1528    4.8151  -16.2337 C   0  0  0  0  0  0  0  0  0  0  0  0
   -3.9828    5.6397  -15.3491 N   0  0  0  0  0  0  0  0  0  0  0  0
   -5.3402    5.2358  -15.3105 C   0  0  0  0  0  0  0  0  0  0  0  0
   -5.7866    4.8965  -14.0842 N   0  0  0  0  0  0  0  0  0  0  0  0
   -7.0611    4.4864  -14.0155 C   0  0  0  0  0  0  0  0  0  0  0  0
   -7.9115    4.3737  -15.0399 N   0  0  0  0  0  0  0  0  0  0  0  0
   -7.4327    4.7037  -16.2450 C   0  0  0  0  0  0  0  0  0  0  0  0
   -8.2273    4.5519  -17.3703 C   0  0  0  0  0  0  0  0  0  0  0  0
   -7.7586    4.9216  -18.6295 C   0  0  0  0  0  0  0  0  0  0  0  0
   -6.5126    5.4995  -18.7042 C   0  0  0  0  0  0  0  0  0  0  0  0
   -5.8381    6.2562  -20.0760 Cl  0  0  0  0  0  0  0  0  0  0  0  0
   -5.7074    5.6266  -17.6508 N   0  0  0  0  0  0  0  0  0  0  0  0
   -6.1433    5.2009  -16.4513 C   0  0  0  0  0  0  0  0  0  0  0  0
  1  2  2  0
  2  3  1  0
  2  4  1  0
  4  5  1  0
  5  6  1  0
  6  7  2  0
  7  8  1  0
  8  9  2  0
  9 10  1  0
 10 11  2  0
 11 12  1  0
 12 13  2  0
 13 14  1  0
 13 15  1  0
 15 16  2  0
 16  6  1  0
 16 10  1  0
M  END
>  <energy_score>  (5263) 
-15.510344

>  <alias>  (5263) 
MOPKZHLFVFWFCC-UHFFFAOYSA-N-P23-P23-P95-601533

>  <HIPPO Pose ID>  (5263) 
91460

>  <smiles>  (5263) 
C=C(C)CNc1ncnc2ccc(Cl)nc12

>  <inchikey>  (5263) 
MOPKZHLFVFWFCC-UHFFFAOYSA-N

>  <distance_score>  (5263) 
1.210986

>  <ref_mols>  (5263) 
Z1719a,Z0472a

>  <ref_pdb>  (5263) 
Z0101a

>  <HIPPO Compound ID>  (5263) 
138990

>  <name>  (5263) 
MOPKZHLFVFWFCC-UHFFFAOYSA-N-P23-P23-P95-601533

>  <inspiration_score>  (5263) 
None

$$$$
RQEUXLXRBPLMRC-UHFFFAOYSA-N-P23-P23-P95-601533
     RDKit          3D

 17 18  0  0  0  0  0  0  0  0999 V2000
   -1.6810    6.7631  -17.5082 C   0  0  0  0  0  0  0  0  0  0  0  0
   -3.0004    6.0271  -17.2975 C   0  0  1  0  0  0  0  0  0  0  0  0
   -2.9162    4.5030  -18.5073 Br  0  0  0  0  0  0  0  0  0  0  0  0
   -3.2693    5.7238  -15.8115 C   0  0  2  0  0  0  0  0  0  0  0  0
   -3.0349    3.9083  -15.1625 Br  0  0  0  0  0  0  0  0  0  0  0  0
   -4.4671    6.3414  -15.2165 N   0  0  0  0  0  0  0  0  0  0  0  0
   -5.6938    5.6565  -15.3170 C   0  0  0  0  0  0  0  0  0  0  0  0
   -6.2048    5.2871  -14.1246 N   0  0  0  0  0  0  0  0  0  0  0  0
   -7.3756    4.6359  -14.1593 C   0  0  0  0  0  0  0  0  0  0  0  0
   -8.0751    4.3388  -15.2562 N   0  0  0  0  0  0  0  0  0  0  0  0
   -7.5383    4.7131  -16.4234 C   0  0  0  0  0  0  0  0  0  0  0  0
   -8.1699    4.3962  -17.6154 C   0  0  0  0  0  0  0  0  0  0  0  0
   -7.6222    4.7797  -18.8380 C   0  0  0  0  0  0  0  0  0  0  0  0
   -6.4981    5.5699  -18.8132 C   0  0  0  0  0  0  0  0  0  0  0  0
   -5.7797    6.3417  -20.1568 Cl  0  0  0  0  0  0  0  0  0  0  0  0
   -5.8604    5.8960  -17.6859 N   0  0  0  0  0  0  0  0  0  0  0  0
   -6.3412    5.4253  -16.5241 C   0  0  0  0  0  0  0  0  0  0  0  0
  2  1  1  1
  2  3  1  0
  2  4  1  0
  4  5  1  6
  4  6  1  0
  6  7  1  0
  7  8  2  0
  8  9  1  0
  9 10  2  0
 10 11  1  0
 11 12  2  0
 12 13  1  0
 13 14  2  0
 14 15  1  0
 14 16  1  0
 16 17  2  0
 17  7  1  0
 17 11  1  0
M  END
>  <energy_score>  (5264) 
-14.354211

>  <alias>  (5264) 
RQEUXLXRBPLMRC-UHFFFAOYSA-N-P23-P23-P95-601533

>  <HIPPO Pose ID>  (5264) 
91474

>  <smiles>  (5264) 
CC(Br)C(Br)Nc1ncnc2ccc(Cl)nc12

>  <inchikey>  (5264) 
RQEUXLXRBPLMRC-UHFFFAOYSA-N

>  <distance_score>  (5264) 
0.930849

>  <ref_mols>  (5264) 
Z1719a,Z0472a

>  <ref_pdb>  (5264) 
Z0101a

>  <HIPPO Compound ID>  (5264) 
138998

>  <name>  (5264) 
RQEUXLXRBPLMRC-UHFFFAOYSA-N-P23-P23-P95-601533

>  <inspiration_score>  (5264) 
None

$$$$
ODDGZKVGHSZVTN-UHFFFAOYSA-N-P95-P23-P95-601533
     RDKit          3D

 17 18  0  0  0  0  0  0  0  0999 V2000
   -2.7606    6.7734  -17.8469 C   0  0  0  0  0  0  0  0  0  0  0  0
   -2.6451    5.4300  -17.1467 C   0  0  2  0  0  0  0  0  0  0  0  0
   -3.2569    4.3815  -17.9009 O   0  0  0  0  0  0  0  0  0  0  0  0
   -3.1008    5.3881  -15.6661 C   0  0  2  0  0  0  0  0  0  0  0  0
   -3.1187    4.0470  -15.2023 O   0  0  0  0  0  0  0  0  0  0  0  0
   -4.3354    6.0623  -15.2799 N   0  0  0  0  0  0  0  0  0  0  0  0
   -5.5653    5.3850  -15.3737 C   0  0  0  0  0  0  0  0  0  0  0  0
   -6.1304    5.1005  -14.1828 N   0  0  0  0  0  0  0  0  0  0  0  0
   -7.3411    4.5275  -14.2213 C   0  0  0  0  0  0  0  0  0  0  0  0
   -8.0479    4.2557  -15.3215 N   0  0  0  0  0  0  0  0  0  0  0  0
   -7.4683    4.5547  -16.4892 C   0  0  0  0  0  0  0  0  0  0  0  0
   -8.1338    4.3081  -17.6846 C   0  0  0  0  0  0  0  0  0  0  0  0
   -7.5740    4.6723  -18.9096 C   0  0  0  0  0  0  0  0  0  0  0  0
   -6.3533    5.2999  -18.8778 C   0  0  0  0  0  0  0  0  0  0  0  0
   -5.4952    5.9309  -20.2033 Cl  0  0  0  0  0  0  0  0  0  0  0  0
   -5.6537    5.5086  -17.7564 N   0  0  0  0  0  0  0  0  0  0  0  0
   -6.2024    5.1420  -16.5854 C   0  0  0  0  0  0  0  0  0  0  0  0
  2  1  1  6
  2  3  1  0
  2  4  1  0
  4  5  1  6
  4  6  1  0
  6  7  1  0
  7  8  2  0
  8  9  1  0
  9 10  2  0
 10 11  1  0
 11 12  2  0
 12 13  1  0
 13 14  2  0
 14 15  1  0
 14 16  1  0
 16 17  2  0
 17  7  1  0
 17 11  1  0
M  END
>  <energy_score>  (5265) 
-24.660163

>  <alias>  (5265) 
ODDGZKVGHSZVTN-UHFFFAOYSA-N-P95-P23-P95-601533

>  <HIPPO Pose ID>  (5265) 
91477

>  <smiles>  (5265) 
CC(O)C(O)Nc1ncnc2ccc(Cl)nc12

>  <inchikey>  (5265) 
ODDGZKVGHSZVTN-UHFFFAOYSA-N

>  <distance_score>  (5265) 
0.681729

>  <ref_mols>  (5265) 
Z1719a,Z0472a

>  <ref_pdb>  (5265) 
Z0101a

>  <HIPPO Compound ID>  (5265) 
139001

>  <name>  (5265) 
ODDGZKVGHSZVTN-UHFFFAOYSA-N-P95-P23-P95-601533

>  <inspiration_score>  (5265) 
None

$$$$
NJZDXLSSWVNGOL-UHFFFAOYSA-N-P95-P23-P95-601533
     RDKit          3D

 17 18  0  0  0  0  0  0  0  0999 V2000
   -2.7057    4.5507  -15.0075 C   0  0  0  0  0  0  0  0  0  0  0  0
   -2.2793    5.4351  -16.1742 C   0  0  0  0  0  0  0  0  0  0  0  0
   -3.3209    5.4661  -17.2988 C   0  0  2  0  0  0  0  0  0  0  0  0
   -2.3868    5.7047  -19.0184 Br  0  0  0  0  0  0  0  0  0  0  0  0
   -4.2870    6.6373  -17.1488 C   0  0  0  0  0  0  0  0  0  0  0  0
   -5.0245    6.5961  -15.9078 N   0  0  0  0  0  0  0  0  0  0  0  0
   -6.1189    5.8002  -15.6539 C   0  0  0  0  0  0  0  0  0  0  0  0
   -6.4682    5.8229  -14.3511 N   0  0  0  0  0  0  0  0  0  0  0  0
   -7.6278    5.2446  -14.0365 C   0  0  0  0  0  0  0  0  0  0  0  0
   -8.4870    4.7096  -14.9017 N   0  0  0  0  0  0  0  0  0  0  0  0
   -8.0822    4.6455  -16.1763 C   0  0  0  0  0  0  0  0  0  0  0  0
   -8.9347    4.0995  -17.1212 C   0  0  0  0  0  0  0  0  0  0  0  0
   -8.5458    3.9581  -18.4452 C   0  0  0  0  0  0  0  0  0  0  0  0
   -7.2809    4.3728  -18.7719 C   0  0  0  0  0  0  0  0  0  0  0  0
   -6.6076    3.9944  -20.2783 Cl  0  0  0  0  0  0  0  0  0  0  0  0
   -6.4442    4.9851  -17.9236 N   0  0  0  0  0  0  0  0  0  0  0  0
   -6.8531    5.1301  -16.6367 C   0  0  0  0  0  0  0  0  0  0  0  0
  1  2  1  0
  2  3  1  0
  3  4  1  6
  3  5  1  0
  5  6  1  0
  6  7  1  0
  7  8  2  0
  8  9  1  0
  9 10  2  0
 10 11  1  0
 11 12  2  0
 12 13  1  0
 13 14  2  0
 14 15  1  0
 14 16  1  0
 16 17  2  0
 17  7  1  0
 17 11  1  0
M  END
>  <energy_score>  (5266) 
-14.486832

>  <alias>  (5266) 
NJZDXLSSWVNGOL-UHFFFAOYSA-N-P95-P23-P95-601533

>  <HIPPO Pose ID>  (5266) 
91483

>  <smiles>  (5266) 
CCC(Br)CNc1ncnc2ccc(Cl)nc12

>  <inchikey>  (5266) 
NJZDXLSSWVNGOL-UHFFFAOYSA-N

>  <distance_score>  (5266) 
0.882504

>  <ref_mols>  (5266) 
Z1719a,Z0472a

>  <ref_pdb>  (5266) 
Z0101a

>  <HIPPO Compound ID>  (5266) 
139004

>  <name>  (5266) 
NJZDXLSSWVNGOL-UHFFFAOYSA-N-P95-P23-P95-601533

>  <inspiration_score>  (5266) 
None

$$$$
IXCVDVACCBWJGM-UHFFFAOYSA-N-P95-P23-P95-601533
     RDKit          3D

 17 18  0  0  0  0  0  0  0  0999 V2000
   -2.8697    5.3725  -14.4795 O   0  0  0  0  0  0  0  0  0  0  0  0
   -2.3338    4.7444  -15.6288 C   0  0  0  0  0  0  0  0  0  0  0  0
   -2.5622    5.5249  -16.9128 C   0  0  0  0  0  0  0  0  0  0  0  0
   -4.0269    5.4843  -17.2941 C   0  0  2  0  0  0  0  0  0  0  0  0
   -4.1897    6.1646  -18.5205 O   0  0  0  0  0  0  0  0  0  0  0  0
   -4.7701    6.2279  -16.2999 N   0  0  0  0  0  0  0  0  0  0  0  0
   -5.9862    5.6355  -15.9068 C   0  0  0  0  0  0  0  0  0  0  0  0
   -6.2370    5.7274  -14.5874 N   0  0  0  0  0  0  0  0  0  0  0  0
   -7.4209    5.2703  -14.1741 C   0  0  0  0  0  0  0  0  0  0  0  0
   -8.3848    4.7855  -14.9601 N   0  0  0  0  0  0  0  0  0  0  0  0
   -8.0903    4.6749  -16.2625 C   0  0  0  0  0  0  0  0  0  0  0  0
   -9.0235    4.1413  -17.1346 C   0  0  0  0  0  0  0  0  0  0  0  0
   -8.7246    3.9452  -18.4766 C   0  0  0  0  0  0  0  0  0  0  0  0
   -7.4798    4.3209  -18.9074 C   0  0  0  0  0  0  0  0  0  0  0  0
   -6.8814    3.8156  -20.4106 Cl  0  0  0  0  0  0  0  0  0  0  0  0
   -6.5771    4.9451  -18.1419 N   0  0  0  0  0  0  0  0  0  0  0  0
   -6.8782    5.0816  -16.8251 C   0  0  0  0  0  0  0  0  0  0  0  0
  1  2  1  0
  2  3  1  0
  3  4  1  0
  4  5  1  6
  4  6  1  0
  6  7  1  0
  7  8  2  0
  8  9  1  0
  9 10  2  0
 10 11  1  0
 11 12  2  0
 12 13  1  0
 13 14  2  0
 14 15  1  0
 14 16  1  0
 16 17  2  0
 17  7  1  0
 17 11  1  0
M  END
>  <energy_score>  (5267) 
-26.798763

>  <alias>  (5267) 
IXCVDVACCBWJGM-UHFFFAOYSA-N-P95-P23-P95-601533

>  <HIPPO Pose ID>  (5267) 
91485

>  <smiles>  (5267) 
OCCC(O)Nc1ncnc2ccc(Cl)nc12

>  <inchikey>  (5267) 
IXCVDVACCBWJGM-UHFFFAOYSA-N

>  <distance_score>  (5267) 
1.056769

>  <ref_mols>  (5267) 
Z1719a,Z0472a

>  <ref_pdb>  (5267) 
Z0101a

>  <HIPPO Compound ID>  (5267) 
139005

>  <name>  (5267) 
IXCVDVACCBWJGM-UHFFFAOYSA-N-P95-P23-P95-601533

>  <inspiration_score>  (5267) 
None

$$$$
MCFMHFGUVOKHQG-UHFFFAOYSA-N-P23-P23-P95-601533
     RDKit          3D

 17 19  0  0  0  0  0  0  0  0999 V2000
   -2.7754    6.1122  -18.1960 F   0  0  0  0  0  0  0  0  0  0  0  0
   -3.0540    5.8422  -16.8542 C   0  0  0  0  0  0  0  0  0  0  0  0
   -3.9442    6.8460  -16.1703 C   0  0  0  0  0  0  0  0  0  0  0  0
   -4.7738    6.3150  -15.1096 N   0  0  0  0  0  0  0  0  0  0  0  0
   -5.9381    5.5968  -15.2839 C   0  0  0  0  0  0  0  0  0  0  0  0
   -6.4768    5.1576  -14.1290 N   0  0  0  0  0  0  0  0  0  0  0  0
   -7.6365    4.4955  -14.2275 C   0  0  0  0  0  0  0  0  0  0  0  0
   -8.3031    4.2437  -15.3570 N   0  0  0  0  0  0  0  0  0  0  0  0
   -7.7157    4.6390  -16.4908 C   0  0  0  0  0  0  0  0  0  0  0  0
   -8.2831    4.3238  -17.7154 C   0  0  0  0  0  0  0  0  0  0  0  0
   -7.6580    4.6849  -18.9080 C   0  0  0  0  0  0  0  0  0  0  0  0
   -6.5228    5.4533  -18.8268 C   0  0  0  0  0  0  0  0  0  0  0  0
   -5.7083    6.1950  -20.1265 Cl  0  0  0  0  0  0  0  0  0  0  0  0
   -5.9578    5.7890  -17.6700 N   0  0  0  0  0  0  0  0  0  0  0  0
   -6.5191    5.3551  -16.5259 C   0  0  0  0  0  0  0  0  0  0  0  0
   -1.8651    5.3214  -16.0832 C   0  0  0  0  0  0  0  0  0  0  0  0
   -2.9713    4.3868  -16.4631 C   0  0  0  0  0  0  0  0  0  0  0  0
  1  2  1  0
  2  3  1  0
  3  4  1  0
  4  5  1  0
  5  6  2  0
  6  7  1  0
  7  8  2  0
  8  9  1  0
  9 10  2  0
 10 11  1  0
 11 12  2  0
 12 13  1  0
 12 14  1  0
 14 15  2  0
  2 16  1  0
 16 17  1  0
 17  2  1  0
 15  5  1  0
 15  9  1  0
M  END
>  <energy_score>  (5268) 
-16.17435

>  <alias>  (5268) 
MCFMHFGUVOKHQG-UHFFFAOYSA-N-P23-P23-P95-601533

>  <HIPPO Pose ID>  (5268) 
91486

>  <smiles>  (5268) 
FC1(CNc2ncnc3ccc(Cl)nc23)CC1

>  <inchikey>  (5268) 
MCFMHFGUVOKHQG-UHFFFAOYSA-N

>  <distance_score>  (5268) 
0.866163

>  <ref_mols>  (5268) 
Z1719a,Z0472a

>  <ref_pdb>  (5268) 
Z0101a

>  <HIPPO Compound ID>  (5268) 
139006

>  <name>  (5268) 
MCFMHFGUVOKHQG-UHFFFAOYSA-N-P23-P23-P95-601533

>  <inspiration_score>  (5268) 
None

$$$$
IUFQYSNMSKFWED-UHFFFAOYSA-N-P95-P23-P95-601533
     RDKit          3D

 17 19  0  0  0  0  0  0  0  0999 V2000
   -3.0876    6.2936  -19.0386 C   0  0  0  0  0  0  0  0  0  0  0  0
   -3.2545    5.9400  -17.5852 C   0  0  0  0  0  0  0  0  0  0  0  0
   -4.3559    6.7171  -16.8966 C   0  0  0  0  0  0  0  0  0  0  0  0
   -4.7720    6.0816  -15.6695 N   0  0  0  0  0  0  0  0  0  0  0  0
   -6.0442    5.5629  -15.5165 C   0  0  0  0  0  0  0  0  0  0  0  0
   -6.4707    5.6336  -14.2383 N   0  0  0  0  0  0  0  0  0  0  0  0
   -7.7064    5.1931  -14.0017 C   0  0  0  0  0  0  0  0  0  0  0  0
   -8.5661    4.7533  -14.9197 N   0  0  0  0  0  0  0  0  0  0  0  0
   -8.0981    4.6509  -16.1705 C   0  0  0  0  0  0  0  0  0  0  0  0
   -8.9462    4.1820  -17.1614 C   0  0  0  0  0  0  0  0  0  0  0  0
   -8.5111    4.0372  -18.4703 C   0  0  0  0  0  0  0  0  0  0  0  0
   -7.2064    4.3669  -18.7344 C   0  0  0  0  0  0  0  0  0  0  0  0
   -6.5233    4.0424  -20.2463 Cl  0  0  0  0  0  0  0  0  0  0  0  0
   -6.3554    4.8766  -17.8338 N   0  0  0  0  0  0  0  0  0  0  0  0
   -6.8029    5.0163  -16.5587 C   0  0  0  0  0  0  0  0  0  0  0  0
   -1.9993    5.6212  -16.7951 C   0  0  0  0  0  0  0  0  0  0  0  0
   -2.9410    4.5173  -17.1790 C   0  0  0  0  0  0  0  0  0  0  0  0
  1  2  1  0
  2  3  1  0
  3  4  1  0
  4  5  1  0
  5  6  2  0
  6  7  1  0
  7  8  2  0
  8  9  1  0
  9 10  2  0
 10 11  1  0
 11 12  2  0
 12 13  1  0
 12 14  1  0
 14 15  2  0
  2 16  1  0
 16 17  1  0
 17  2  1  0
 15  5  1  0
 15  9  1  0
M  END
>  <energy_score>  (5269) 
-10.487548

>  <alias>  (5269) 
IUFQYSNMSKFWED-UHFFFAOYSA-N-P95-P23-P95-601533

>  <HIPPO Pose ID>  (5269) 
91489

>  <smiles>  (5269) 
CC1(CNc2ncnc3ccc(Cl)nc23)CC1

>  <inchikey>  (5269) 
IUFQYSNMSKFWED-UHFFFAOYSA-N

>  <distance_score>  (5269) 
0.965989

>  <ref_mols>  (5269) 
Z1719a,Z0472a

>  <ref_pdb>  (5269) 
Z0101a

>  <HIPPO Compound ID>  (5269) 
139007

>  <name>  (5269) 
IUFQYSNMSKFWED-UHFFFAOYSA-N-P95-P23-P95-601533

>  <inspiration_score>  (5269) 
None

$$$$
BACYBYOXZNMZKL-UHFFFAOYSA-N-P23-P23-P95-601533
     RDKit          3D

 17 18  0  0  0  0  0  0  0  0999 V2000
   -2.7356    6.2439  -18.1982 C   0  0  0  0  0  0  0  0  0  0  0  0
   -2.8568    5.0526  -17.2538 C   0  0  2  0  0  0  0  0  0  0  0  0
   -3.8643    4.2407  -17.6575 F   0  0  0  0  0  0  0  0  0  0  0  0
   -2.9219    5.4563  -15.7526 C   0  0  2  0  0  0  0  0  0  0  0  0
   -2.7038    4.4236  -14.9592 O   0  0  0  0  0  0  0  0  0  0  0  0
   -4.1384    6.0812  -15.2050 N   0  0  0  0  0  0  0  0  0  0  0  0
   -5.4114    5.4975  -15.3336 C   0  0  0  0  0  0  0  0  0  0  0  0
   -5.9444    5.0840  -14.1542 N   0  0  0  0  0  0  0  0  0  0  0  0
   -7.1311    4.4796  -14.2108 C   0  0  0  0  0  0  0  0  0  0  0  0
   -7.8637    4.2841  -15.3057 N   0  0  0  0  0  0  0  0  0  0  0  0
   -7.3224    4.7295  -16.4448 C   0  0  0  0  0  0  0  0  0  0  0  0
   -7.9849    4.4604  -17.6270 C   0  0  0  0  0  0  0  0  0  0  0  0
   -7.4662    4.8874  -18.8417 C   0  0  0  0  0  0  0  0  0  0  0  0
   -6.3738    5.7218  -18.8118 C   0  0  0  0  0  0  0  0  0  0  0  0
   -5.7444    6.5423  -20.1773 Cl  0  0  0  0  0  0  0  0  0  0  0  0
   -5.7335    6.0509  -17.6886 N   0  0  0  0  0  0  0  0  0  0  0  0
   -6.1201    5.4449  -16.5355 C   0  0  0  0  0  0  0  0  0  0  0  0
  2  1  1  6
  2  3  1  0
  2  4  1  0
  4  5  1  1
  4  6  1  0
  6  7  1  0
  7  8  2  0
  8  9  1  0
  9 10  2  0
 10 11  1  0
 11 12  2  0
 12 13  1  0
 13 14  2  0
 14 15  1  0
 14 16  1  0
 16 17  2  0
 17  7  1  0
 17 11  1  0
M  CHG  1   5  -1
M  END
>  <energy_score>  (5270) 
-27.608353

>  <alias>  (5270) 
BACYBYOXZNMZKL-UHFFFAOYSA-N-P23-P23-P95-601533

>  <HIPPO Pose ID>  (5270) 
91492

>  <smiles>  (5270) 
CC(F)C([O-])Nc1ncnc2ccc(Cl)nc12

>  <inchikey>  (5270) 
BACYBYOXZNMZKL-UHFFFAOYSA-N

>  <distance_score>  (5270) 
0.704042

>  <ref_mols>  (5270) 
Z1719a,Z0472a

>  <ref_pdb>  (5270) 
Z0101a

>  <HIPPO Compound ID>  (5270) 
139009

>  <name>  (5270) 
BACYBYOXZNMZKL-UHFFFAOYSA-N-P23-P23-P95-601533

>  <inspiration_score>  (5270) 
None

$$$$
FATFRKGQVWOMGS-UHFFFAOYSA-N-P23-P23-P95-601533
     RDKit          3D

 17 18  0  0  0  0  0  0  0  0999 V2000
   -2.3287    5.5722  -18.3915 C   0  0  0  0  0  0  0  0  0  0  0  0
   -2.7199    5.9344  -16.9558 C   0  0  0  0  0  0  0  0  0  0  0  0
   -1.4924    6.4495  -16.1912 C   0  0  0  0  0  0  0  0  0  0  0  0
   -3.9622    7.4654  -17.0835 Br  0  0  0  0  0  0  0  0  0  0  0  0
   -3.3355    4.7215  -16.2261 C   0  0  0  0  0  0  0  0  0  0  0  0
   -4.2031    5.0712  -15.1042 N   0  0  0  0  0  0  0  0  0  0  0  0
   -5.5730    4.7965  -15.1524 C   0  0  0  0  0  0  0  0  0  0  0  0
   -6.1008    4.5624  -13.9349 N   0  0  0  0  0  0  0  0  0  0  0  0
   -7.4208    4.3435  -13.8896 C   0  0  0  0  0  0  0  0  0  0  0  0
   -8.2602    4.3560  -14.9281 N   0  0  0  0  0  0  0  0  0  0  0  0
   -7.7098    4.5615  -16.1269 C   0  0  0  0  0  0  0  0  0  0  0  0
   -8.5195    4.5367  -17.2533 C   0  0  0  0  0  0  0  0  0  0  0  0
   -8.0014    4.8214  -18.5128 C   0  0  0  0  0  0  0  0  0  0  0  0
   -6.6671    5.1354  -18.5872 C   0  0  0  0  0  0  0  0  0  0  0  0
   -5.9030    5.8225  -19.9414 Cl  0  0  0  0  0  0  0  0  0  0  0  0
   -5.8394    5.0870  -17.5421 N   0  0  0  0  0  0  0  0  0  0  0  0
   -6.3481    4.8169  -16.3212 C   0  0  0  0  0  0  0  0  0  0  0  0
  1  2  1  0
  2  3  1  0
  2  4  1  0
  2  5  1  0
  5  6  1  0
  6  7  1  0
  7  8  2  0
  8  9  1  0
  9 10  2  0
 10 11  1  0
 11 12  2  0
 12 13  1  0
 13 14  2  0
 14 15  1  0
 14 16  1  0
 16 17  2  0
 17  7  1  0
 17 11  1  0
M  END
>  <energy_score>  (5271) 
-23.806129

>  <alias>  (5271) 
FATFRKGQVWOMGS-UHFFFAOYSA-N-P23-P23-P95-601533

>  <HIPPO Pose ID>  (5271) 
91496

>  <smiles>  (5271) 
CC(C)(Br)CNc1ncnc2ccc(Cl)nc12

>  <inchikey>  (5271) 
FATFRKGQVWOMGS-UHFFFAOYSA-N

>  <distance_score>  (5271) 
1.087713

>  <ref_mols>  (5271) 
Z1719a,Z0472a

>  <ref_pdb>  (5271) 
Z0101a

>  <HIPPO Compound ID>  (5271) 
139013

>  <name>  (5271) 
FATFRKGQVWOMGS-UHFFFAOYSA-N-P23-P23-P95-601533

>  <inspiration_score>  (5271) 
None

$$$$
ZDEQCFAVAXLXME-UHFFFAOYSA-N-P23-P23-P95-601533
     RDKit          3D

 17 18  0  0  0  0  0  0  0  0999 V2000
   -2.1213    4.2784  -14.2914 C   0  0  0  0  0  0  0  0  0  0  0  0
   -1.5663    5.5804  -15.4298 S   0  0  0  0  0  0  0  0  0  0  0  0
   -2.6032    5.1790  -16.8676 C   0  0  2  0  0  0  0  0  0  0  0  0
   -1.9387    5.6876  -18.1525 C   0  0  0  0  0  0  0  0  0  0  0  0
   -4.0182    5.7335  -16.8042 C   0  0  0  0  0  0  0  0  0  0  0  0
   -4.6679    5.8132  -15.4942 N   0  0  0  0  0  0  0  0  0  0  0  0
   -5.9949    5.3819  -15.3943 C   0  0  0  0  0  0  0  0  0  0  0  0
   -6.3625    4.8731  -14.2066 N   0  0  0  0  0  0  0  0  0  0  0  0
   -7.5895    4.3311  -14.1666 C   0  0  0  0  0  0  0  0  0  0  0  0
   -8.4394    4.2102  -15.1976 N   0  0  0  0  0  0  0  0  0  0  0  0
   -8.0160    4.6840  -16.3745 C   0  0  0  0  0  0  0  0  0  0  0  0
   -8.6693    4.3972  -17.5689 C   0  0  0  0  0  0  0  0  0  0  0  0
   -8.1044    4.7614  -18.7968 C   0  0  0  0  0  0  0  0  0  0  0  0
   -7.0024    5.5825  -18.7698 C   0  0  0  0  0  0  0  0  0  0  0  0
   -6.0089    6.0904  -20.0607 Cl  0  0  0  0  0  0  0  0  0  0  0  0
   -6.4625    6.0056  -17.6383 N   0  0  0  0  0  0  0  0  0  0  0  0
   -6.8447    5.4128  -16.4976 C   0  0  0  0  0  0  0  0  0  0  0  0
  1  2  1  0
  2  3  1  0
  3  4  1  6
  3  5  1  0
  5  6  1  0
  6  7  1  0
  7  8  2  0
  8  9  1  0
  9 10  2  0
 10 11  1  0
 11 12  2  0
 12 13  1  0
 13 14  2  0
 14 15  1  0
 14 16  1  0
 16 17  2  0
 17  7  1  0
 17 11  1  0
M  END
>  <energy_score>  (5272) 
-3.968851

>  <alias>  (5272) 
ZDEQCFAVAXLXME-UHFFFAOYSA-N-P23-P23-P95-601533

>  <HIPPO Pose ID>  (5272) 
91498

>  <smiles>  (5272) 
CSC(C)CNc1ncnc2ccc(Cl)nc12

>  <inchikey>  (5272) 
ZDEQCFAVAXLXME-UHFFFAOYSA-N

>  <distance_score>  (5272) 
1.008097

>  <ref_mols>  (5272) 
Z1719a,Z0472a

>  <ref_pdb>  (5272) 
Z0101a

>  <HIPPO Compound ID>  (5272) 
139015

>  <name>  (5272) 
ZDEQCFAVAXLXME-UHFFFAOYSA-N-P23-P23-P95-601533

>  <inspiration_score>  (5272) 
None

$$$$
BUYNOCCBJGPTAE-UHFFFAOYSA-N-P23-P23-P95-601533
     RDKit          3D

 17 18  0  0  0  0  0  0  0  0999 V2000
   -2.7708    5.5521  -18.0490 C   0  0  0  0  0  0  0  0  0  0  0  0
   -3.1649    5.5283  -16.7603 C   0  0  0  0  0  0  0  0  0  0  0  0
   -3.1251    4.2496  -15.9600 C   0  0  0  0  0  0  0  0  0  0  0  0
   -2.2710    4.3478  -14.7101 C   0  0  0  0  0  0  0  0  0  0  0  0
   -3.6834    6.7885  -16.0967 C   0  0  0  0  0  0  0  0  0  0  0  0
   -4.7183    6.5534  -15.1102 N   0  0  0  0  0  0  0  0  0  0  0  0
   -5.8923    5.8527  -15.3229 C   0  0  0  0  0  0  0  0  0  0  0  0
   -6.4214    5.3620  -14.1805 N   0  0  0  0  0  0  0  0  0  0  0  0
   -7.5333    4.6283  -14.3021 C   0  0  0  0  0  0  0  0  0  0  0  0
   -8.1516    4.3336  -15.4460 N   0  0  0  0  0  0  0  0  0  0  0  0
   -7.5815    4.8002  -16.5618 C   0  0  0  0  0  0  0  0  0  0  0  0
   -8.0811    4.4104  -17.7913 C   0  0  0  0  0  0  0  0  0  0  0  0
   -7.4574    4.8065  -18.9705 C   0  0  0  0  0  0  0  0  0  0  0  0
   -6.4342    5.7193  -18.8788 C   0  0  0  0  0  0  0  0  0  0  0  0
   -5.6512    6.4619  -20.2040 Cl  0  0  0  0  0  0  0  0  0  0  0  0
   -5.9523    6.1613  -17.7155 N   0  0  0  0  0  0  0  0  0  0  0  0
   -6.4620    5.6379  -16.5773 C   0  0  0  0  0  0  0  0  0  0  0  0
  1  2  2  0
  2  3  1  0
  3  4  1  0
  2  5  1  0
  5  6  1  0
  6  7  1  0
  7  8  2  0
  8  9  1  0
  9 10  2  0
 10 11  1  0
 11 12  2  0
 12 13  1  0
 13 14  2  0
 14 15  1  0
 14 16  1  0
 16 17  2  0
 17  7  1  0
 17 11  1  0
M  END
>  <energy_score>  (5273) 
-19.698138

>  <alias>  (5273) 
BUYNOCCBJGPTAE-UHFFFAOYSA-N-P23-P23-P95-601533

>  <HIPPO Pose ID>  (5273) 
91500

>  <smiles>  (5273) 
C=C(CC)CNc1ncnc2ccc(Cl)nc12

>  <inchikey>  (5273) 
BUYNOCCBJGPTAE-UHFFFAOYSA-N

>  <distance_score>  (5273) 
0.921447

>  <ref_mols>  (5273) 
Z1719a,Z0472a

>  <ref_pdb>  (5273) 
Z0101a

>  <HIPPO Compound ID>  (5273) 
139016

>  <name>  (5273) 
BUYNOCCBJGPTAE-UHFFFAOYSA-N-P23-P23-P95-601533

>  <inspiration_score>  (5273) 
None

$$$$
ZOAXDYKKENGVNS-UHFFFAOYSA-N-P23-P23-P95-601533
     RDKit          3D

 17 18  0  0  0  0  0  0  0  0999 V2000
   -1.7977    4.8861  -18.4066 C   0  0  0  0  0  0  0  0  0  0  0  0
   -2.9975    5.5198  -17.6993 C   0  0  0  0  0  0  0  0  0  0  0  0
   -2.9882    7.0124  -18.0213 C   0  0  0  0  0  0  0  0  0  0  0  0
   -3.0137    5.2536  -16.1788 C   0  0  2  0  0  0  0  0  0  0  0  0
   -3.0125    3.8716  -15.8874 O   0  0  0  0  0  0  0  0  0  0  0  0
   -4.0580    5.9073  -15.3907 N   0  0  0  0  0  0  0  0  0  0  0  0
   -5.3657    5.3933  -15.3569 C   0  0  0  0  0  0  0  0  0  0  0  0
   -5.7658    4.9839  -14.1368 N   0  0  0  0  0  0  0  0  0  0  0  0
   -6.9981    4.4618  -14.0536 C   0  0  0  0  0  0  0  0  0  0  0  0
   -7.8570    4.3085  -15.0652 N   0  0  0  0  0  0  0  0  0  0  0  0
   -7.4331    4.7171  -16.2649 C   0  0  0  0  0  0  0  0  0  0  0  0
   -8.2243    4.5220  -17.3877 C   0  0  0  0  0  0  0  0  0  0  0  0
   -7.7934    4.9368  -18.6470 C   0  0  0  0  0  0  0  0  0  0  0  0
   -6.6085    5.6298  -18.7171 C   0  0  0  0  0  0  0  0  0  0  0  0
   -5.9277    6.3611  -20.1007 Cl  0  0  0  0  0  0  0  0  0  0  0  0
   -5.8334    5.8470  -17.6548 N   0  0  0  0  0  0  0  0  0  0  0  0
   -6.1969    5.3342  -16.4708 C   0  0  0  0  0  0  0  0  0  0  0  0
  1  2  1  0
  2  3  1  0
  2  4  1  0
  4  5  1  6
  4  6  1  0
  6  7  1  0
  7  8  2  0
  8  9  1  0
  9 10  2  0
 10 11  1  0
 11 12  2  0
 12 13  1  0
 13 14  2  0
 14 15  1  0
 14 16  1  0
 16 17  2  0
 17  7  1  0
 17 11  1  0
M  END
>  <energy_score>  (5274) 
-18.315907

>  <alias>  (5274) 
ZOAXDYKKENGVNS-UHFFFAOYSA-N-P23-P23-P95-601533

>  <HIPPO Pose ID>  (5274) 
91502

>  <smiles>  (5274) 
CC(C)C(O)Nc1ncnc2ccc(Cl)nc12

>  <inchikey>  (5274) 
ZOAXDYKKENGVNS-UHFFFAOYSA-N

>  <distance_score>  (5274) 
0.735452

>  <ref_mols>  (5274) 
Z1719a,Z0472a

>  <ref_pdb>  (5274) 
Z0101a

>  <HIPPO Compound ID>  (5274) 
139017

>  <name>  (5274) 
ZOAXDYKKENGVNS-UHFFFAOYSA-N-P23-P23-P95-601533

>  <inspiration_score>  (5274) 
None

$$$$
VFAITMSDUXUANU-UHFFFAOYSA-N-P23-P23-P95-601533
     RDKit          3D

 17 19  0  0  0  0  0  0  0  0999 V2000
   -5.7950    6.1271  -20.0055 Cl  0  0  0  0  0  0  0  0  0  0  0  0
   -6.4978    5.3888  -18.6387 C   0  0  0  0  0  0  0  0  0  0  0  0
   -7.7715    4.8731  -18.5879 C   0  0  0  0  0  0  0  0  0  0  0  0
   -8.2807    4.5356  -17.3367 C   0  0  0  0  0  0  0  0  0  0  0  0
   -7.5088    4.6777  -16.1940 C   0  0  0  0  0  0  0  0  0  0  0  0
   -8.0391    4.3999  -14.9979 N   0  0  0  0  0  0  0  0  0  0  0  0
   -7.2265    4.5210  -13.9446 C   0  0  0  0  0  0  0  0  0  0  0  0
   -5.9420    4.9013  -13.9749 N   0  0  0  0  0  0  0  0  0  0  0  0
   -5.4420    5.1875  -15.1927 C   0  0  0  0  0  0  0  0  0  0  0  0
   -4.0834    5.5888  -15.1898 N   0  0  0  0  0  0  0  0  0  0  0  0
   -3.2155    4.6645  -15.9171 C   0  0  0  0  0  0  0  0  0  0  0  0
   -2.2949    5.4057  -16.8468 C   0  0  2  0  0  0  0  0  0  0  0  0
   -2.7089    6.6108  -17.6630 C   0  0  0  0  0  0  0  0  0  0  0  0
   -2.5426    5.2806  -18.3332 C   0  0  1  0  0  0  0  0  0  0  0  0
   -1.0629    5.0652  -19.5184 Br  0  0  0  0  0  0  0  0  0  0  0  0
   -6.1944    5.1212  -16.3702 C   0  0  0  0  0  0  0  0  0  0  0  0
   -5.6990    5.4859  -17.5711 N   0  0  0  0  0  0  0  0  0  0  0  0
  1  2  1  0
  2  3  2  0
  3  4  1  0
  4  5  2  0
  5  6  1  0
  6  7  2  0
  7  8  1  0
  8  9  2  0
  9 10  1  0
 10 11  1  0
 12 11  1  1
 12 13  1  0
 13 14  1  0
 14 15  1  6
  9 16  1  0
 16 17  2  0
 17  2  1  0
 16  5  1  0
 14 12  1  0
M  END
>  <energy_score>  (5275) 
-18.71841

>  <alias>  (5275) 
VFAITMSDUXUANU-UHFFFAOYSA-N-P23-P23-P95-601533

>  <HIPPO Pose ID>  (5275) 
91508

>  <smiles>  (5275) 
Clc1ccc2ncnc(NCC3CC3Br)c2n1

>  <inchikey>  (5275) 
VFAITMSDUXUANU-UHFFFAOYSA-N

>  <distance_score>  (5275) 
0.955187

>  <ref_mols>  (5275) 
Z1719a,Z0472a

>  <ref_pdb>  (5275) 
Z0101a

>  <HIPPO Compound ID>  (5275) 
139022

>  <name>  (5275) 
VFAITMSDUXUANU-UHFFFAOYSA-N-P23-P23-P95-601533

>  <inspiration_score>  (5275) 
None

$$$$
IPKRHOCSXNIEEV-UHFFFAOYSA-N-P95-P23-P95-601533
     RDKit          3D

 17 18  0  0  0  0  0  0  0  0999 V2000
   -2.8840    4.3078  -15.0566 C   0  0  0  0  0  0  0  0  0  0  0  0
   -2.1476    5.4097  -15.8057 C   0  0  0  0  0  0  0  0  0  0  0  0
   -2.4215    5.4786  -17.3091 C   0  0  0  0  0  0  0  0  0  0  0  0
   -3.8794    5.5571  -17.7253 C   0  0  0  0  0  0  0  0  0  0  0  0
   -4.6116    6.7672  -17.1552 C   0  0  0  0  0  0  0  0  0  0  0  0
   -5.1643    6.4760  -15.8651 N   0  0  0  0  0  0  0  0  0  0  0  0
   -6.3336    5.7831  -15.6478 C   0  0  0  0  0  0  0  0  0  0  0  0
   -6.7023    5.8102  -14.3505 N   0  0  0  0  0  0  0  0  0  0  0  0
   -7.8702    5.2415  -14.0565 C   0  0  0  0  0  0  0  0  0  0  0  0
   -8.7208    4.7145  -14.9359 N   0  0  0  0  0  0  0  0  0  0  0  0
   -8.3006    4.6513  -16.2073 C   0  0  0  0  0  0  0  0  0  0  0  0
   -9.1273    4.0903  -17.1675 C   0  0  0  0  0  0  0  0  0  0  0  0
   -8.7108    3.9294  -18.4821 C   0  0  0  0  0  0  0  0  0  0  0  0
   -7.4546    4.3665  -18.7973 C   0  0  0  0  0  0  0  0  0  0  0  0
   -6.7222    3.9563  -20.2713 Cl  0  0  0  0  0  0  0  0  0  0  0  0
   -6.6638    5.0199  -17.9426 N   0  0  0  0  0  0  0  0  0  0  0  0
   -7.0738    5.1435  -16.6517 C   0  0  0  0  0  0  0  0  0  0  0  0
  1  2  1  0
  2  3  1  0
  3  4  1  0
  4  5  1  0
  5  6  1  0
  6  7  1  0
  7  8  2  0
  8  9  1  0
  9 10  2  0
 10 11  1  0
 11 12  2  0
 12 13  1  0
 13 14  2  0
 14 15  1  0
 14 16  1  0
 16 17  2  0
 17  7  1  0
 17 11  1  0
M  END
>  <energy_score>  (5276) 
-21.249479

>  <alias>  (5276) 
IPKRHOCSXNIEEV-UHFFFAOYSA-N-P95-P23-P95-601533

>  <HIPPO Pose ID>  (5276) 
91513

>  <smiles>  (5276) 
CCCCCNc1ncnc2ccc(Cl)nc12

>  <inchikey>  (5276) 
IPKRHOCSXNIEEV-UHFFFAOYSA-N

>  <distance_score>  (5276) 
1.135931

>  <ref_mols>  (5276) 
Z1719a,Z0472a

>  <ref_pdb>  (5276) 
Z0101a

>  <HIPPO Compound ID>  (5276) 
139024

>  <name>  (5276) 
IPKRHOCSXNIEEV-UHFFFAOYSA-N-P95-P23-P95-601533

>  <inspiration_score>  (5276) 
None

$$$$
GEBRWSYENMOHII-UHFFFAOYSA-N-P23-P23-P95-601533
     RDKit          3D

 17 19  0  0  0  0  0  0  0  0999 V2000
   -5.7220    6.4236  -20.3031 Cl  0  0  0  0  0  0  0  0  0  0  0  0
   -6.4565    5.7373  -18.9254 C   0  0  0  0  0  0  0  0  0  0  0  0
   -7.4908    4.8333  -18.8987 C   0  0  0  0  0  0  0  0  0  0  0  0
   -8.0057    4.4762  -17.6512 C   0  0  0  0  0  0  0  0  0  0  0  0
   -7.4148    4.9258  -16.4785 C   0  0  0  0  0  0  0  0  0  0  0  0
   -7.8722    4.5222  -15.2870 N   0  0  0  0  0  0  0  0  0  0  0  0
   -7.1658    4.9137  -14.2227 C   0  0  0  0  0  0  0  0  0  0  0  0
   -6.0697    5.6858  -14.2402 N   0  0  0  0  0  0  0  0  0  0  0  0
   -5.6511    6.1073  -15.4510 C   0  0  0  0  0  0  0  0  0  0  0  0
   -4.5158    6.9172  -15.4096 N   0  0  0  0  0  0  0  0  0  0  0  0
   -3.5466    7.0159  -16.5075 C   0  0  0  0  0  0  0  0  0  0  0  0
   -2.6828    5.7989  -16.7757 C   0  0  0  0  0  0  0  0  0  0  0  0
   -2.0510    5.1462  -15.5456 C   0  0  0  0  0  0  0  0  0  0  0  0
   -2.7976    3.9265  -15.7547 O   0  0  0  0  0  0  0  0  0  0  0  0
   -3.2544    4.4073  -17.0441 C   0  0  0  0  0  0  0  0  0  0  0  0
   -6.3178    5.7779  -16.6280 C   0  0  0  0  0  0  0  0  0  0  0  0
   -5.8870    6.2202  -17.8238 N   0  0  0  0  0  0  0  0  0  0  0  0
  1  2  1  0
  2  3  2  0
  3  4  1  0
  4  5  2  0
  5  6  1  0
  6  7  2  0
  7  8  1  0
  8  9  2  0
  9 10  1  0
 10 11  1  0
 11 12  1  0
 12 13  1  0
 13 14  1  0
 14 15  1  0
  9 16  1  0
 16 17  2  0
 17  2  1  0
 16  5  1  0
 15 12  1  0
M  END
>  <energy_score>  (5277) 
-28.286361

>  <alias>  (5277) 
GEBRWSYENMOHII-UHFFFAOYSA-N-P23-P23-P95-601533

>  <HIPPO Pose ID>  (5277) 
91516

>  <smiles>  (5277) 
Clc1ccc2ncnc(NCC3COC3)c2n1

>  <inchikey>  (5277) 
GEBRWSYENMOHII-UHFFFAOYSA-N

>  <distance_score>  (5277) 
1.134023

>  <ref_mols>  (5277) 
Z1719a,Z0472a

>  <ref_pdb>  (5277) 
Z0101a

>  <HIPPO Compound ID>  (5277) 
139026

>  <name>  (5277) 
GEBRWSYENMOHII-UHFFFAOYSA-N-P23-P23-P95-601533

>  <inspiration_score>  (5277) 
None

$$$$
ZZHFIBATNOSCEU-UHFFFAOYSA-N-P23-P23-P95-601533
     RDKit          3D

 17 18  0  0  0  0  0  0  0  0999 V2000
   -3.0241    6.8531  -17.8160 C   0  0  0  0  0  0  0  0  0  0  0  0
   -3.2378    5.8515  -16.6820 C   0  0  0  0  0  0  0  0  0  0  0  0
   -1.9194    5.1524  -16.4123 C   0  0  0  0  0  0  0  0  0  0  0  0
   -4.1009    4.8854  -17.0993 F   0  0  0  0  0  0  0  0  0  0  0  0
   -3.7375    6.4764  -15.3539 C   0  0  0  0  0  0  0  0  0  0  0  0
   -5.0506    7.1394  -15.3978 N   0  0  0  0  0  0  0  0  0  0  0  0
   -6.1069    6.1727  -15.3948 C   0  0  0  0  0  0  0  0  0  0  0  0
   -6.4826    5.6304  -14.2218 N   0  0  0  0  0  0  0  0  0  0  0  0
   -7.4796    4.7373  -14.2928 C   0  0  0  0  0  0  0  0  0  0  0  0
   -8.0955    4.3256  -15.4087 N   0  0  0  0  0  0  0  0  0  0  0  0
   -7.6340    4.8270  -16.5634 C   0  0  0  0  0  0  0  0  0  0  0  0
   -8.0823    4.3599  -17.7881 C   0  0  0  0  0  0  0  0  0  0  0  0
   -7.4861    4.7884  -18.9753 C   0  0  0  0  0  0  0  0  0  0  0  0
   -6.5656    5.8105  -18.9032 C   0  0  0  0  0  0  0  0  0  0  0  0
   -5.7436    6.5059  -20.2325 Cl  0  0  0  0  0  0  0  0  0  0  0  0
   -6.1944    6.3823  -17.7544 N   0  0  0  0  0  0  0  0  0  0  0  0
   -6.6534    5.8126  -16.6206 C   0  0  0  0  0  0  0  0  0  0  0  0
  1  2  1  0
  2  3  1  0
  2  4  1  0
  2  5  1  0
  5  6  1  0
  6  7  1  0
  7  8  2  0
  8  9  1  0
  9 10  2  0
 10 11  1  0
 11 12  2  0
 12 13  1  0
 13 14  2  0
 14 15  1  0
 14 16  1  0
 16 17  2  0
 17  7  1  0
 17 11  1  0
M  END
>  <energy_score>  (5278) 
-17.539604

>  <alias>  (5278) 
ZZHFIBATNOSCEU-UHFFFAOYSA-N-P23-P23-P95-601533

>  <HIPPO Pose ID>  (5278) 
91520

>  <smiles>  (5278) 
CC(C)(F)CNc1ncnc2ccc(Cl)nc12

>  <inchikey>  (5278) 
ZZHFIBATNOSCEU-UHFFFAOYSA-N

>  <distance_score>  (5278) 
0.847812

>  <ref_mols>  (5278) 
Z1719a,Z0472a

>  <ref_pdb>  (5278) 
Z0101a

>  <HIPPO Compound ID>  (5278) 
139030

>  <name>  (5278) 
ZZHFIBATNOSCEU-UHFFFAOYSA-N-P23-P23-P95-601533

>  <inspiration_score>  (5278) 
None

$$$$
ODUPZRZCPXBPNQ-UHFFFAOYSA-N-P23-P23-P95-601533
     RDKit          3D

 17 19  0  0  0  0  0  0  0  0999 V2000
   -2.3494    5.7241  -18.6500 C   0  0  0  0  0  0  0  0  0  0  0  0
   -2.6005    5.5139  -17.3564 C   0  0  0  0  0  0  0  0  0  0  0  0
   -3.3014    4.3712  -16.6390 C   0  0  0  0  0  0  0  0  0  0  0  0
   -3.2226    5.3641  -15.4894 C   0  0  2  0  0  0  0  0  0  0  0  0
   -4.4284    6.0065  -15.0137 N   0  0  0  0  0  0  0  0  0  0  0  0
   -5.7294    5.4634  -15.1415 C   0  0  0  0  0  0  0  0  0  0  0  0
   -6.2819    5.0664  -13.9775 N   0  0  0  0  0  0  0  0  0  0  0  0
   -7.4967    4.5122  -14.0667 C   0  0  0  0  0  0  0  0  0  0  0  0
   -8.1922    4.3289  -15.1913 N   0  0  0  0  0  0  0  0  0  0  0  0
   -7.6072    4.7231  -16.3276 C   0  0  0  0  0  0  0  0  0  0  0  0
   -8.2291    4.4686  -17.5376 C   0  0  0  0  0  0  0  0  0  0  0  0
   -7.6333    4.8475  -18.7367 C   0  0  0  0  0  0  0  0  0  0  0  0
   -6.4679    5.5759  -18.6736 C   0  0  0  0  0  0  0  0  0  0  0  0
   -5.6972    6.2905  -20.0181 Cl  0  0  0  0  0  0  0  0  0  0  0  0
   -5.8350    5.8487  -17.5272 N   0  0  0  0  0  0  0  0  0  0  0  0
   -6.3685    5.3674  -16.3795 C   0  0  0  0  0  0  0  0  0  0  0  0
   -2.3629    6.2101  -16.3050 O   0  0  0  0  0  0  0  0  0  0  0  0
  1  2  2  0
  2  3  1  0
  3  4  1  0
  4  5  1  6
  5  6  1  0
  6  7  2  0
  7  8  1  0
  8  9  2  0
  9 10  1  0
 10 11  2  0
 11 12  1  0
 12 13  2  0
 13 14  1  0
 13 15  1  0
 15 16  2  0
  4 17  1  0
 17  2  1  0
 16  6  1  0
 16 10  1  0
M  END
>  <energy_score>  (5279) 
-26.998265

>  <alias>  (5279) 
ODUPZRZCPXBPNQ-UHFFFAOYSA-N-P23-P23-P95-601533

>  <HIPPO Pose ID>  (5279) 
91522

>  <smiles>  (5279) 
C=C1CC(Nc2ncnc3ccc(Cl)nc23)O1

>  <inchikey>  (5279) 
ODUPZRZCPXBPNQ-UHFFFAOYSA-N

>  <distance_score>  (5279) 
0.885683

>  <ref_mols>  (5279) 
Z1719a,Z0472a

>  <ref_pdb>  (5279) 
Z0101a

>  <HIPPO Compound ID>  (5279) 
139031

>  <name>  (5279) 
ODUPZRZCPXBPNQ-UHFFFAOYSA-N-P23-P23-P95-601533

>  <inspiration_score>  (5279) 
None

$$$$
NGHFPUAVQNFEBB-UHFFFAOYSA-N-P23-P23-P95-601533
     RDKit          3D

 17 18  0  0  0  0  0  0  0  0999 V2000
   -2.8436    3.9957  -14.9553 C   0  0  0  0  0  0  0  0  0  0  0  0
   -2.2124    4.6274  -16.0641 O   0  0  0  0  0  0  0  0  0  0  0  0
   -3.1322    5.3467  -16.9018 C   0  0  2  0  0  0  0  0  0  0  0  0
   -2.3810    5.6883  -18.1888 C   0  0  0  0  0  0  0  0  0  0  0  0
   -3.6219    6.6556  -16.2324 C   0  0  0  0  0  0  0  0  0  0  0  0
   -4.6148    6.4790  -15.1741 N   0  0  0  0  0  0  0  0  0  0  0  0
   -5.7989    5.7725  -15.3169 C   0  0  0  0  0  0  0  0  0  0  0  0
   -6.2873    5.3065  -14.1492 N   0  0  0  0  0  0  0  0  0  0  0  0
   -7.4300    4.6113  -14.2140 C   0  0  0  0  0  0  0  0  0  0  0  0
   -8.1146    4.3334  -15.3252 N   0  0  0  0  0  0  0  0  0  0  0  0
   -7.5830    4.7698  -16.4717 C   0  0  0  0  0  0  0  0  0  0  0  0
   -8.1593    4.4109  -17.6786 C   0  0  0  0  0  0  0  0  0  0  0  0
   -7.5832    4.7952  -18.8875 C   0  0  0  0  0  0  0  0  0  0  0  0
   -6.5059    5.6472  -18.8411 C   0  0  0  0  0  0  0  0  0  0  0  0
   -5.7368    6.3700  -20.1819 Cl  0  0  0  0  0  0  0  0  0  0  0  0
   -5.9390    6.0440  -17.7008 N   0  0  0  0  0  0  0  0  0  0  0  0
   -6.4304    5.5564  -16.5404 C   0  0  0  0  0  0  0  0  0  0  0  0
  1  2  1  0
  2  3  1  0
  3  4  1  6
  3  5  1  0
  5  6  1  0
  6  7  1  0
  7  8  2  0
  8  9  1  0
  9 10  2  0
 10 11  1  0
 11 12  2  0
 12 13  1  0
 13 14  2  0
 14 15  1  0
 14 16  1  0
 16 17  2  0
 17  7  1  0
 17 11  1  0
M  END
>  <energy_score>  (5280) 
-28.756902

>  <alias>  (5280) 
NGHFPUAVQNFEBB-UHFFFAOYSA-N-P23-P23-P95-601533

>  <HIPPO Pose ID>  (5280) 
91526

>  <smiles>  (5280) 
COC(C)CNc1ncnc2ccc(Cl)nc12

>  <inchikey>  (5280) 
NGHFPUAVQNFEBB-UHFFFAOYSA-N

>  <distance_score>  (5280) 
0.75681

>  <ref_mols>  (5280) 
Z1719a,Z0472a

>  <ref_pdb>  (5280) 
Z0101a

>  <HIPPO Compound ID>  (5280) 
139033

>  <name>  (5280) 
NGHFPUAVQNFEBB-UHFFFAOYSA-N-P23-P23-P95-601533

>  <inspiration_score>  (5280) 
None

$$$$
YCVUVAVJWYRFPL-UHFFFAOYSA-N-P23-P23-P95-601533
     RDKit          3D

 17 18  0  0  0  0  0  0  0  0999 V2000
   -2.9122    6.8893  -17.8406 C   0  0  0  0  0  0  0  0  0  0  0  0
   -2.5226    5.5087  -17.2873 C   0  0  0  0  0  0  0  0  0  0  0  0
   -1.2725    5.6981  -16.4214 C   0  0  0  0  0  0  0  0  0  0  0  0
   -2.2165    4.6339  -18.5195 C   0  0  0  0  0  0  0  0  0  0  0  0
   -3.5941    4.7925  -16.4246 C   0  0  0  0  0  0  0  0  0  0  0  0
   -4.2822    5.6915  -15.4709 N   0  0  0  0  0  0  0  0  0  0  0  0
   -5.6491    5.2623  -15.3187 C   0  0  0  0  0  0  0  0  0  0  0  0
   -6.0469    4.8186  -14.1157 N   0  0  0  0  0  0  0  0  0  0  0  0
   -7.3063    4.3622  -14.0554 C   0  0  0  0  0  0  0  0  0  0  0  0
   -8.1751    4.2854  -15.0743 N   0  0  0  0  0  0  0  0  0  0  0  0
   -7.7256    4.6878  -16.2687 C   0  0  0  0  0  0  0  0  0  0  0  0
   -8.4651    4.4966  -17.4271 C   0  0  0  0  0  0  0  0  0  0  0  0
   -7.9507    4.8679  -18.6718 C   0  0  0  0  0  0  0  0  0  0  0  0
   -6.7464    5.5358  -18.6980 C   0  0  0  0  0  0  0  0  0  0  0  0
   -5.9588    6.1761  -20.0667 Cl  0  0  0  0  0  0  0  0  0  0  0  0
   -6.0294    5.7822  -17.6033 N   0  0  0  0  0  0  0  0  0  0  0  0
   -6.4777    5.2771  -16.4394 C   0  0  0  0  0  0  0  0  0  0  0  0
  1  2  1  0
  2  3  1  0
  2  4  1  0
  2  5  1  0
  5  6  1  0
  6  7  1  0
  7  8  2  0
  8  9  1  0
  9 10  2  0
 10 11  1  0
 11 12  2  0
 12 13  1  0
 13 14  2  0
 14 15  1  0
 14 16  1  0
 16 17  2  0
 17  7  1  0
 17 11  1  0
M  END
>  <energy_score>  (5281) 
-12.554609

>  <alias>  (5281) 
YCVUVAVJWYRFPL-UHFFFAOYSA-N-P23-P23-P95-601533

>  <HIPPO Pose ID>  (5281) 
91534

>  <smiles>  (5281) 
CC(C)(C)CNc1ncnc2ccc(Cl)nc12

>  <inchikey>  (5281) 
YCVUVAVJWYRFPL-UHFFFAOYSA-N

>  <distance_score>  (5281) 
0.967911

>  <ref_mols>  (5281) 
Z1719a,Z0472a

>  <ref_pdb>  (5281) 
Z0101a

>  <HIPPO Compound ID>  (5281) 
139038

>  <name>  (5281) 
YCVUVAVJWYRFPL-UHFFFAOYSA-N-P23-P23-P95-601533

>  <inspiration_score>  (5281) 
None

$$$$
CRXDFSMMKAIHJQ-UHFFFAOYSA-N-P95-P23-P95-601533
     RDKit          3D

 17 18  0  0  0  0  0  0  0  0999 V2000
   -2.6385    4.6127  -15.0412 C   0  0  0  0  0  0  0  0  0  0  0  0
   -2.2375    5.4789  -16.2309 C   0  0  0  0  0  0  0  0  0  0  0  0
   -3.2910    5.4856  -17.3565 C   0  0  2  0  0  0  0  0  0  0  0  0
   -2.6150    5.6379  -18.7224 C   0  0  0  0  0  0  0  0  0  0  0  0
   -4.2752    6.6446  -17.1771 C   0  0  0  0  0  0  0  0  0  0  0  0
   -4.9893    6.5736  -15.9293 N   0  0  0  0  0  0  0  0  0  0  0  0
   -6.0897    5.7886  -15.6724 C   0  0  0  0  0  0  0  0  0  0  0  0
   -6.4316    5.8127  -14.3664 N   0  0  0  0  0  0  0  0  0  0  0  0
   -7.5920    5.2410  -14.0444 C   0  0  0  0  0  0  0  0  0  0  0  0
   -8.4604    4.7114  -14.9033 N   0  0  0  0  0  0  0  0  0  0  0  0
   -8.0642    4.6469  -16.1804 C   0  0  0  0  0  0  0  0  0  0  0  0
   -8.9282    4.1020  -17.1153 C   0  0  0  0  0  0  0  0  0  0  0  0
   -8.5532    3.9556  -18.4424 C   0  0  0  0  0  0  0  0  0  0  0  0
   -7.2913    4.3670  -18.7831 C   0  0  0  0  0  0  0  0  0  0  0  0
   -6.6330    3.9765  -20.2938 Cl  0  0  0  0  0  0  0  0  0  0  0  0
   -6.4460    4.9819  -17.9463 N   0  0  0  0  0  0  0  0  0  0  0  0
   -6.8370    5.1268  -16.6523 C   0  0  0  0  0  0  0  0  0  0  0  0
  1  2  1  0
  2  3  1  0
  3  4  1  6
  3  5  1  0
  5  6  1  0
  6  7  1  0
  7  8  2  0
  8  9  1  0
  9 10  2  0
 10 11  1  0
 11 12  2  0
 12 13  1  0
 13 14  2  0
 14 15  1  0
 14 16  1  0
 16 17  2  0
 17  7  1  0
 17 11  1  0
M  END
>  <energy_score>  (5282) 
-22.999167

>  <alias>  (5282) 
CRXDFSMMKAIHJQ-UHFFFAOYSA-N-P95-P23-P95-601533

>  <HIPPO Pose ID>  (5282) 
91537

>  <smiles>  (5282) 
CCC(C)CNc1ncnc2ccc(Cl)nc12

>  <inchikey>  (5282) 
CRXDFSMMKAIHJQ-UHFFFAOYSA-N

>  <distance_score>  (5282) 
0.868976

>  <ref_mols>  (5282) 
Z1719a,Z0472a

>  <ref_pdb>  (5282) 
Z0101a

>  <HIPPO Compound ID>  (5282) 
139039

>  <name>  (5282) 
CRXDFSMMKAIHJQ-UHFFFAOYSA-N-P95-P23-P95-601533

>  <inspiration_score>  (5282) 
None

$$$$
NAGZSLDZBVCFQN-UHFFFAOYSA-N-P95-P23-P95-601533
     RDKit          3D

 17 19  0  0  0  0  0  0  0  0999 V2000
   -6.7502    3.9058  -20.3550 Cl  0  0  0  0  0  0  0  0  0  0  0  0
   -7.2845    4.4331  -18.8349 C   0  0  0  0  0  0  0  0  0  0  0  0
   -8.4461    3.9305  -18.3057 C   0  0  0  0  0  0  0  0  0  0  0  0
   -8.6759    4.1596  -16.9587 C   0  0  0  0  0  0  0  0  0  0  0  0
   -7.7737    4.8781  -16.1945 C   0  0  0  0  0  0  0  0  0  0  0  0
   -8.0211    5.0021  -14.8864 N   0  0  0  0  0  0  0  0  0  0  0  0
   -7.1315    5.7028  -14.1879 C   0  0  0  0  0  0  0  0  0  0  0  0
   -6.0842    6.3598  -14.6934 N   0  0  0  0  0  0  0  0  0  0  0  0
   -5.8797    6.2553  -16.0265 C   0  0  0  0  0  0  0  0  0  0  0  0
   -4.8745    7.1084  -16.4655 N   0  0  0  0  0  0  0  0  0  0  0  0
   -4.0635    6.9070  -17.6586 C   0  0  0  0  0  0  0  0  0  0  0  0
   -2.9468    5.8881  -17.4992 C   0  0  0  0  0  0  0  0  0  0  0  0
   -3.2986    4.4836  -16.9905 C   0  0  0  0  0  0  0  0  0  0  0  0
   -2.7599    4.8785  -15.6019 C   0  0  0  0  0  0  0  0  0  0  0  0
   -1.9881    6.0173  -16.2867 C   0  0  0  0  0  0  0  0  0  0  0  0
   -6.6724    5.4477  -16.8549 C   0  0  0  0  0  0  0  0  0  0  0  0
   -6.4256    5.2220  -18.1708 N   0  0  0  0  0  0  0  0  0  0  0  0
  1  2  1  0
  2  3  2  0
  3  4  1  0
  4  5  2  0
  5  6  1  0
  6  7  2  0
  7  8  1  0
  8  9  2  0
  9 10  1  0
 10 11  1  0
 11 12  1  0
 12 13  1  0
 13 14  1  0
 14 15  1  0
  9 16  1  0
 16 17  2  0
 17  2  1  0
 16  5  1  0
 15 12  1  0
M  END
>  <energy_score>  (5283) 
-13.657247

>  <alias>  (5283) 
NAGZSLDZBVCFQN-UHFFFAOYSA-N-P95-P23-P95-601533

>  <HIPPO Pose ID>  (5283) 
91541

>  <smiles>  (5283) 
Clc1ccc2ncnc(NCC3CCC3)c2n1

>  <inchikey>  (5283) 
NAGZSLDZBVCFQN-UHFFFAOYSA-N

>  <distance_score>  (5283) 
1.194152

>  <ref_mols>  (5283) 
Z1719a,Z0472a

>  <ref_pdb>  (5283) 
Z0101a

>  <HIPPO Compound ID>  (5283) 
139042

>  <name>  (5283) 
NAGZSLDZBVCFQN-UHFFFAOYSA-N-P95-P23-P95-601533

>  <inspiration_score>  (5283) 
None

$$$$
QAPPRCQIDFZKJV-UHFFFAOYSA-N-P95-P23-P95-601533
     RDKit          3D

 18 20  0  0  0  0  0  0  0  0999 V2000
   -3.2696    4.9710  -14.8983 C   0  0  0  0  0  0  0  0  0  0  0  0
   -4.1297    5.3412  -16.0219 N   0  0  0  0  0  0  0  0  0  0  0  0
   -3.8928    6.6964  -16.5562 C   0  0  0  0  0  0  0  0  0  0  0  0
   -3.1342    6.6758  -17.8678 C   0  0  0  0  0  0  0  0  0  0  0  0
   -3.5981    7.6085  -18.9394 C   0  0  0  0  0  0  0  0  0  0  0  0
   -2.3971    5.4681  -18.2711 N   0  0  0  0  0  0  0  0  0  0  0  0
   -1.6925    6.3829  -17.8211 N   0  0  0  0  0  0  0  0  0  0  0  0
   -5.4980    5.0719  -15.7921 C   0  0  0  0  0  0  0  0  0  0  0  0
   -5.9356    5.0635  -14.5226 N   0  0  0  0  0  0  0  0  0  0  0  0
   -7.2396    4.8242  -14.3570 C   0  0  0  0  0  0  0  0  0  0  0  0
   -7.8019    4.8189  -12.7459 Cl  0  0  0  0  0  0  0  0  0  0  0  0
   -8.1643    4.6467  -15.2981 N   0  0  0  0  0  0  0  0  0  0  0  0
   -7.7149    4.6094  -16.5505 C   0  0  0  0  0  0  0  0  0  0  0  0
   -8.6225    4.3485  -17.5685 C   0  0  0  0  0  0  0  0  0  0  0  0
   -8.2297    4.2944  -18.9055 C   0  0  0  0  0  0  0  0  0  0  0  0
   -6.8971    4.4793  -19.2376 C   0  0  0  0  0  0  0  0  0  0  0  0
   -5.9723    4.7323  -18.2335 C   0  0  0  0  0  0  0  0  0  0  0  0
   -6.3671    4.8218  -16.8783 C   0  0  0  0  0  0  0  0  0  0  0  0
  1  2  1  0
  2  3  1  0
  3  4  1  0
  4  5  1  0
  4  6  1  0
  6  7  2  0
  2  8  1  0
  8  9  2  0
  9 10  1  0
 10 11  1  0
 10 12  2  0
 12 13  1  0
 13 14  2  0
 14 15  1  0
 15 16  2  0
 16 17  1  0
 17 18  2  0
  7  4  1  0
 18  8  1  0
 18 13  1  0
M  END
>  <energy_score>  (5284) 
-39.548363

>  <alias>  (5284) 
QAPPRCQIDFZKJV-UHFFFAOYSA-N-P95-P23-P95-601533

>  <HIPPO Pose ID>  (5284) 
91551

>  <smiles>  (5284) 
CN(CC1(C)N=N1)c1nc(Cl)nc2ccccc12

>  <inchikey>  (5284) 
QAPPRCQIDFZKJV-UHFFFAOYSA-N

>  <distance_score>  (5284) 
0.793403

>  <ref_mols>  (5284) 
Z1719a,Z0472a

>  <ref_pdb>  (5284) 
Z0101a

>  <HIPPO Compound ID>  (5284) 
138940

>  <name>  (5284) 
QAPPRCQIDFZKJV-UHFFFAOYSA-N-P95-P23-P95-601533

>  <inspiration_score>  (5284) 
None

$$$$
IPLPICXTWUWRAQ-UHFFFAOYSA-N-P23-P23-P95-601533
     RDKit          3D

 19 21  0  0  0  0  0  0  0  0999 V2000
   -5.3657    8.5727  -14.1484 C   0  0  0  0  0  0  0  0  0  0  0  0
   -4.3953    7.4114  -14.3367 C   0  0  0  0  0  0  0  0  0  0  0  0
   -4.6765    6.6836  -15.5904 N   0  0  0  0  0  0  0  0  0  0  0  0
   -3.5232    6.4218  -16.4508 C   0  0  0  0  0  0  0  0  0  0  0  0
   -3.1104    4.9855  -16.5989 C   0  0  0  0  0  0  0  0  0  0  0  0
   -2.9325    4.1546  -15.3685 C   0  0  0  0  0  0  0  0  0  0  0  0
   -3.2220    4.3218  -17.9026 N   0  0  0  0  0  0  0  0  0  0  0  0
   -2.1026    4.7819  -17.6642 N   0  0  0  0  0  0  0  0  0  0  0  0
   -5.8135    5.8721  -15.5857 C   0  0  0  0  0  0  0  0  0  0  0  0
   -6.2895    5.5660  -14.3628 N   0  0  0  0  0  0  0  0  0  0  0  0
   -7.4126    4.8511  -14.2676 C   0  0  0  0  0  0  0  0  0  0  0  0
   -7.9838    4.4303  -12.6559 S   0  0  0  0  0  0  0  0  0  0  0  0
   -8.1538    4.4528  -15.2920 N   0  0  0  0  0  0  0  0  0  0  0  0
   -7.6832    4.7178  -16.5030 C   0  0  0  0  0  0  0  0  0  0  0  0
   -8.4522    4.2728  -17.5628 C   0  0  0  0  0  0  0  0  0  0  0  0
   -8.0273    4.4162  -18.8750 C   0  0  0  0  0  0  0  0  0  0  0  0
   -6.8370    5.0700  -19.1387 C   0  0  0  0  0  0  0  0  0  0  0  0
   -6.1078    5.6184  -18.0936 C   0  0  0  0  0  0  0  0  0  0  0  0
   -6.4850    5.4169  -16.7431 C   0  0  0  0  0  0  0  0  0  0  0  0
  1  2  1  0
  2  3  1  0
  3  4  1  0
  4  5  1  0
  5  6  1  0
  5  7  1  0
  7  8  2  0
  3  9  1  0
  9 10  2  0
 10 11  1  0
 11 12  1  0
 11 13  2  0
 13 14  1  0
 14 15  2  0
 15 16  1  0
 16 17  2  0
 17 18  1  0
 18 19  2  0
  8  5  1  0
 19  9  1  0
 19 14  1  0
M  END
>  <energy_score>  (5285) 
-22.065726

>  <alias>  (5285) 
IPLPICXTWUWRAQ-UHFFFAOYSA-N-P23-P23-P95-601533

>  <HIPPO Pose ID>  (5285) 
91556

>  <smiles>  (5285) 
CCN(CC1(C)N=N1)c1nc(S)nc2ccccc12

>  <inchikey>  (5285) 
IPLPICXTWUWRAQ-UHFFFAOYSA-N

>  <distance_score>  (5285) 
1.039241

>  <ref_mols>  (5285) 
Z1719a,Z0472a

>  <ref_pdb>  (5285) 
Z0101a

>  <HIPPO Compound ID>  (5285) 
138943

>  <name>  (5285) 
IPLPICXTWUWRAQ-UHFFFAOYSA-N-P23-P23-P95-601533

>  <inspiration_score>  (5285) 
None

$$$$
RTZMSYPHKWVHRD-UHFFFAOYSA-N-P95-P23-P95-601533
     RDKit          3D

 20 23  0  0  0  0  0  0  0  0999 V2000
   -2.9822    3.9287  -13.7535 C   0  0  0  0  0  0  0  0  0  0  0  0
   -2.3760    5.2394  -14.1409 C   0  0  0  0  0  0  0  0  0  0  0  0
   -3.2362    6.2771  -14.8265 C   0  0  0  0  0  0  0  0  0  0  0  0
   -3.9829    5.7482  -15.9934 N   0  0  0  0  0  0  0  0  0  0  0  0
   -5.3509    5.3430  -15.9284 C   0  0  0  0  0  0  0  0  0  0  0  0
   -5.9281    5.2919  -14.6706 N   0  0  0  0  0  0  0  0  0  0  0  0
   -7.2072    4.9333  -14.3542 C   0  0  0  0  0  0  0  0  0  0  0  0
   -7.6223    4.9144  -12.7319 S   0  0  0  0  0  0  0  0  0  0  0  0
   -8.0624    4.6244  -15.3549 N   0  0  0  0  0  0  0  0  0  0  0  0
   -7.5909    4.6251  -16.5576 C   0  0  0  0  0  0  0  0  0  0  0  0
   -8.5312    4.2401  -17.6447 C   0  0  0  0  0  0  0  0  0  0  0  0
   -8.1319    4.2252  -18.9186 C   0  0  0  0  0  0  0  0  0  0  0  0
   -6.7932    4.5839  -19.2884 C   0  0  0  0  0  0  0  0  0  0  0  0
   -5.8904    4.9684  -18.3803 C   0  0  0  0  0  0  0  0  0  0  0  0
   -6.1773    4.9987  -16.9583 C   0  0  0  0  0  0  0  0  0  0  0  0
   -3.1326    5.4051  -17.1700 C   0  0  0  0  0  0  0  0  0  0  0  0
   -1.7450    5.9580  -17.4199 C   0  0  0  0  0  0  0  0  0  0  0  0
   -2.8828    6.4297  -18.2570 C   0  0  0  0  0  0  0  0  0  0  0  0
   -0.9195    5.2990  -14.3148 N   0  0  0  0  0  0  0  0  0  0  0  0
   -1.3323    5.7606  -13.2395 N   0  0  0  0  0  0  0  0  0  0  0  0
  1  2  1  0
  2  3  1  0
  3  4  1  0
  4  5  1  0
  5  6  1  0
  6  7  1  0
  7  8  2  0
  7  9  1  0
  9 10  2  0
 10 11  1  0
 11 12  2  0
 12 13  1  0
 13 14  2  0
 14 15  1  0
  4 16  1  0
 16 17  1  0
 17 18  1  0
  2 19  1  0
 19 20  2  0
 20  2  1  0
 15  5  2  0
 18 16  1  0
 15 10  1  0
M  END
>  <energy_score>  (5286) 
-35.901703

>  <alias>  (5286) 
RTZMSYPHKWVHRD-UHFFFAOYSA-N-P95-P23-P95-601533

>  <HIPPO Pose ID>  (5286) 
91561

>  <smiles>  (5286) 
CC1(CN(c2[nH]c(=S)nc3ccccc23)C2CC2)N=N1

>  <inchikey>  (5286) 
RTZMSYPHKWVHRD-UHFFFAOYSA-N

>  <distance_score>  (5286) 
0.697125

>  <ref_mols>  (5286) 
Z1719a,Z0472a

>  <ref_pdb>  (5286) 
Z0101a

>  <HIPPO Compound ID>  (5286) 
138945

>  <name>  (5286) 
RTZMSYPHKWVHRD-UHFFFAOYSA-N-P95-P23-P95-601533

>  <inspiration_score>  (5286) 
None

$$$$
XNPFOQBBJDJVBK-UHFFFAOYSA-N-P23-P23-P95-601533
     RDKit          3D

 20 22  0  0  0  0  0  0  0  0999 V2000
   -2.7284    5.0413  -13.4978 C   0  0  0  0  0  0  0  0  0  0  0  0
   -3.2104    6.0720  -14.5136 C   0  0  0  0  0  0  0  0  0  0  0  0
   -3.9550    5.5308  -15.6425 N   0  0  0  0  0  0  0  0  0  0  0  0
   -3.2453    4.5568  -16.4932 C   0  0  0  0  0  0  0  0  0  0  0  0
   -2.4744    5.1960  -17.6323 C   0  0  0  0  0  0  0  0  0  0  0  0
   -2.4920    4.5029  -18.9539 C   0  0  0  0  0  0  0  0  0  0  0  0
   -2.1868    6.6387  -17.6323 N   0  0  0  0  0  0  0  0  0  0  0  0
   -1.2434    5.9110  -17.2894 N   0  0  0  0  0  0  0  0  0  0  0  0
   -5.3229    5.2674  -15.4209 C   0  0  0  0  0  0  0  0  0  0  0  0
   -5.7635    5.0629  -14.1698 N   0  0  0  0  0  0  0  0  0  0  0  0
   -7.0480    4.6977  -14.0292 C   0  0  0  0  0  0  0  0  0  0  0  0
   -7.9424    4.5243  -15.0080 N   0  0  0  0  0  0  0  0  0  0  0  0
   -7.5075    4.7403  -16.2486 C   0  0  0  0  0  0  0  0  0  0  0  0
   -8.3448    4.5012  -17.3314 C   0  0  0  0  0  0  0  0  0  0  0  0
   -7.9075    4.7030  -18.6425 C   0  0  0  0  0  0  0  0  0  0  0  0
   -6.6622    5.2685  -18.8685 C   0  0  0  0  0  0  0  0  0  0  0  0
   -6.2224    5.4602  -20.1367 O   0  0  0  0  0  0  0  0  0  0  0  0
   -5.7060    6.7675  -20.3796 C   0  0  0  0  0  0  0  0  0  0  0  0
   -5.8401    5.5503  -17.8030 C   0  0  0  0  0  0  0  0  0  0  0  0
   -6.2089    5.1930  -16.5032 C   0  0  0  0  0  0  0  0  0  0  0  0
  1  2  1  0
  2  3  1  0
  3  4  1  0
  4  5  1  0
  5  6  1  0
  5  7  1  0
  7  8  2  0
  3  9  1  0
  9 10  2  0
 10 11  1  0
 11 12  2  0
 12 13  1  0
 13 14  2  0
 14 15  1  0
 15 16  2  0
 16 17  1  0
 17 18  1  0
 16 19  1  0
 19 20  2  0
  8  5  1  0
 20  9  1  0
 20 13  1  0
M  END
>  <energy_score>  (5287) 
-26.297829

>  <alias>  (5287) 
XNPFOQBBJDJVBK-UHFFFAOYSA-N-P23-P23-P95-601533

>  <HIPPO Pose ID>  (5287) 
91564

>  <smiles>  (5287) 
CCN(CC1(C)N=N1)c1ncnc2ccc(OC)cc12

>  <inchikey>  (5287) 
XNPFOQBBJDJVBK-UHFFFAOYSA-N

>  <distance_score>  (5287) 
1.641671

>  <ref_mols>  (5287) 
Z1719a,Z0472a

>  <ref_pdb>  (5287) 
Z0101a

>  <HIPPO Compound ID>  (5287) 
138947

>  <name>  (5287) 
XNPFOQBBJDJVBK-UHFFFAOYSA-N-P23-P23-P95-601533

>  <inspiration_score>  (5287) 
None

$$$$
SINUWWGYSQHHAS-UHFFFAOYSA-N-P95-P23-P95-601533
     RDKit          3D

 22 24  0  0  0  0  0  0  0  0999 V2000
   -0.4114    8.3200  -15.8307 C   0  0  0  0  0  0  0  0  0  0  0  0
   -1.0377    8.0553  -14.4757 C   0  0  0  0  0  0  0  0  0  0  0  0
   -2.1064    7.0986  -14.5748 N   0  0  0  0  0  0  0  0  0  0  0  0
   -2.0669    5.5434  -14.6575 C   0  0  0  0  0  0  0  0  0  0  0  0
   -1.1580    4.8124  -14.7350 O   0  0  0  0  0  0  0  0  0  0  0  0
   -3.5361    5.0549  -14.6305 C   0  0  0  0  0  0  0  0  0  0  0  0
   -4.1856    4.8905  -15.9657 N   0  0  0  0  0  0  0  0  0  0  0  0
   -3.8003    5.8396  -17.0248 C   0  0  0  0  0  0  0  0  0  0  0  0
   -4.7118    7.0385  -17.1421 C   0  0  0  0  0  0  0  0  0  0  0  0
   -5.3614    7.3130  -18.4610 C   0  0  0  0  0  0  0  0  0  0  0  0
   -5.3918    7.5446  -15.9279 N   0  0  0  0  0  0  0  0  0  0  0  0
   -4.4079    8.1968  -16.2864 N   0  0  0  0  0  0  0  0  0  0  0  0
   -5.5795    4.6156  -15.8241 C   0  0  0  0  0  0  0  0  0  0  0  0
   -6.0394    4.5626  -14.5554 N   0  0  0  0  0  0  0  0  0  0  0  0
   -7.3593    4.4860  -14.3663 C   0  0  0  0  0  0  0  0  0  0  0  0
   -8.2885    4.4828  -15.3150 N   0  0  0  0  0  0  0  0  0  0  0  0
   -7.8485    4.4274  -16.5690 C   0  0  0  0  0  0  0  0  0  0  0  0
   -8.8096    4.3278  -17.5663 C   0  0  0  0  0  0  0  0  0  0  0  0
   -8.4729    4.2651  -18.9155 C   0  0  0  0  0  0  0  0  0  0  0  0
   -7.1421    4.2480  -19.2793 C   0  0  0  0  0  0  0  0  0  0  0  0
   -6.1678    4.3212  -18.2910 C   0  0  0  0  0  0  0  0  0  0  0  0
   -6.4854    4.4638  -16.9135 C   0  0  0  0  0  0  0  0  0  0  0  0
  1  2  1  0
  2  3  1  0
  3  4  1  0
  4  5  2  0
  4  6  1  0
  6  7  1  0
  7  8  1  0
  8  9  1  0
  9 10  1  0
  9 11  1  0
 11 12  2  0
  7 13  1  0
 13 14  2  0
 14 15  1  0
 15 16  2  0
 16 17  1  0
 17 18  2  0
 18 19  1  0
 19 20  2  0
 20 21  1  0
 21 22  2  0
 12  9  1  0
 22 13  1  0
 22 17  1  0
M  END
>  <energy_score>  (5288) 
-42.95326

>  <alias>  (5288) 
SINUWWGYSQHHAS-UHFFFAOYSA-N-P95-P23-P95-601533

>  <HIPPO Pose ID>  (5288) 
91573

>  <smiles>  (5288) 
CCNC(=O)CN(CC1(C)N=N1)c1ncnc2ccccc12

>  <inchikey>  (5288) 
SINUWWGYSQHHAS-UHFFFAOYSA-N

>  <distance_score>  (5288) 
1.434823

>  <ref_mols>  (5288) 
Z1719a,Z0472a

>  <ref_pdb>  (5288) 
Z0101a

>  <HIPPO Compound ID>  (5288) 
138951

>  <name>  (5288) 
SINUWWGYSQHHAS-UHFFFAOYSA-N-P95-P23-P95-601533

>  <inspiration_score>  (5288) 
None

$$$$
WWAZLJIGGZFMPP-UHFFFAOYSA-N-P23-P23-P95-601533
     RDKit          3D

 22 25  0  0  0  0  0  0  0  0999 V2000
   -1.3117    6.7386  -14.0264 C   0  0  0  0  0  0  0  0  0  0  0  0
   -2.6751    7.3169  -14.2289 C   0  0  0  0  0  0  0  0  0  0  0  0
   -3.8758    6.4010  -14.1030 C   0  0  0  0  0  0  0  0  0  0  0  0
   -4.2876    5.7827  -15.3875 N   0  0  0  0  0  0  0  0  0  0  0  0
   -3.3980    4.7073  -15.8868 C   0  0  0  0  0  0  0  0  0  0  0  0
   -2.7306    5.0600  -17.1793 C   0  0  0  0  0  0  0  0  0  0  0  0
   -2.3647    6.2571  -17.7594 C   0  0  0  0  0  0  0  0  0  0  0  0
   -1.8638    5.9533  -19.0451 C   0  0  0  0  0  0  0  0  0  0  0  0
   -1.9370    4.5880  -19.1672 C   0  0  0  0  0  0  0  0  0  0  0  0
   -2.4768    4.0395  -18.0492 O   0  0  0  0  0  0  0  0  0  0  0  0
   -5.6378    5.3280  -15.3278 C   0  0  0  0  0  0  0  0  0  0  0  0
   -6.1475    5.0905  -14.1023 N   0  0  0  0  0  0  0  0  0  0  0  0
   -7.4165    4.6762  -14.0391 C   0  0  0  0  0  0  0  0  0  0  0  0
   -8.2352    4.4847  -15.0703 N   0  0  0  0  0  0  0  0  0  0  0  0
   -7.7237    4.6788  -16.2842 C   0  0  0  0  0  0  0  0  0  0  0  0
   -8.5469    4.4213  -17.3696 C   0  0  0  0  0  0  0  0  0  0  0  0
   -8.0983    4.5740  -18.6772 C   0  0  0  0  0  0  0  0  0  0  0  0
   -6.8179    5.0494  -18.9130 C   0  0  0  0  0  0  0  0  0  0  0  0
   -5.9949    5.3560  -17.8355 C   0  0  0  0  0  0  0  0  0  0  0  0
   -6.4110    5.1293  -16.4997 C   0  0  0  0  0  0  0  0  0  0  0  0
   -2.7949    8.5351  -15.0423 N   0  0  0  0  0  0  0  0  0  0  0  0
   -2.8569    8.7221  -13.8183 N   0  0  0  0  0  0  0  0  0  0  0  0
  1  2  1  0
  2  3  1  0
  3  4  1  0
  4  5  1  0
  5  6  1  0
  6  7  2  0
  7  8  1  0
  8  9  2  0
  9 10  1  0
  4 11  1  0
 11 12  2  0
 12 13  1  0
 13 14  2  0
 14 15  1  0
 15 16  2  0
 16 17  1  0
 17 18  2  0
 18 19  1  0
 19 20  2  0
  2 21  1  0
 21 22  2  0
 22  2  1  0
 10  6  1  0
 20 11  1  0
 20 15  1  0
M  END
>  <energy_score>  (5289) 
-42.742673

>  <alias>  (5289) 
WWAZLJIGGZFMPP-UHFFFAOYSA-N-P23-P23-P95-601533

>  <HIPPO Pose ID>  (5289) 
91576

>  <smiles>  (5289) 
CC1(CN(Cc2ccco2)c2ncnc3ccccc23)N=N1

>  <inchikey>  (5289) 
WWAZLJIGGZFMPP-UHFFFAOYSA-N

>  <distance_score>  (5289) 
1.112459

>  <ref_mols>  (5289) 
Z1719a,Z0472a

>  <ref_pdb>  (5289) 
Z0101a

>  <HIPPO Compound ID>  (5289) 
138953

>  <name>  (5289) 
WWAZLJIGGZFMPP-UHFFFAOYSA-N-P23-P23-P95-601533

>  <inspiration_score>  (5289) 
None

$$$$
ZWOSEAGSTFGXMP-UHFFFAOYSA-N-P95-P23-P95-601533
     RDKit          3D

 22 23  0  0  0  0  0  0  0  0999 V2000
   -3.8692    8.0420  -15.3816 C   0  0  0  0  0  0  0  0  0  0  0  0
   -3.9913    6.6462  -15.7577 N   0  0  0  0  0  0  0  0  0  0  0  0
   -2.8140    5.7760  -15.8275 C   0  0  0  0  0  0  0  0  0  0  0  0
   -2.0728    5.4065  -14.4602 C   0  0  0  0  0  0  0  0  0  0  0  0
   -0.5598    5.6521  -14.7548 C   0  0  0  0  0  0  0  0  0  0  0  0
   -2.3996    6.3271  -13.2632 C   0  0  0  0  0  0  0  0  0  0  0  0
   -2.2587    3.9560  -14.1248 N   0  0  0  0  0  0  0  0  0  0  0  0
   -1.5095    3.4824  -12.9514 C   0  0  0  0  0  0  0  0  0  0  0  0
   -3.6533    3.5384  -13.9589 C   0  0  0  0  0  0  0  0  0  0  0  0
   -5.2153    6.0590  -15.4534 C   0  0  0  0  0  0  0  0  0  0  0  0
   -5.6576    6.1146  -14.1845 N   0  0  0  0  0  0  0  0  0  0  0  0
   -6.8486    5.5617  -13.9301 C   0  0  0  0  0  0  0  0  0  0  0  0
   -7.6689    5.0199  -14.8271 N   0  0  0  0  0  0  0  0  0  0  0  0
   -7.2313    5.0066  -16.0850 C   0  0  0  0  0  0  0  0  0  0  0  0
   -8.0811    4.5438  -17.0533 C   0  0  0  0  0  0  0  0  0  0  0  0
   -7.7013    4.5862  -18.3933 C   0  0  0  0  0  0  0  0  0  0  0  0
   -8.7090    4.2020  -19.3579 C   0  0  0  0  0  0  0  0  0  0  0  0
   -9.9055    4.3096  -19.1865 O   0  0  0  0  0  0  0  0  0  0  0  0
   -8.1459    3.6250  -20.4236 O   0  0  0  0  0  0  0  0  0  0  0  0
   -6.4495    5.0293  -18.8031 C   0  0  0  0  0  0  0  0  0  0  0  0
   -5.5821    5.4891  -17.8359 C   0  0  0  0  0  0  0  0  0  0  0  0
   -5.9797    5.5006  -16.4775 C   0  0  0  0  0  0  0  0  0  0  0  0
  1  2  1  0
  2  3  1  0
  3  4  1  0
  4  5  1  0
  4  6  1  0
  4  7  1  0
  7  8  1  0
  7  9  1  0
  2 10  1  0
 10 11  2  0
 11 12  1  0
 12 13  2  0
 13 14  1  0
 14 15  2  0
 15 16  1  0
 16 17  1  0
 17 18  2  0
 17 19  1  0
 16 20  2  0
 20 21  1  0
 21 22  2  0
 22 10  1  0
 22 14  1  0
M  END
>  <energy_score>  (5290) 
-81.731684

>  <alias>  (5290) 
ZWOSEAGSTFGXMP-UHFFFAOYSA-N-P95-P23-P95-601533

>  <HIPPO Pose ID>  (5290) 
91583

>  <smiles>  (5290) 
CN(CC(C)(C)N(C)C)c1ncnc2cc(C(=O)O)ccc12

>  <inchikey>  (5290) 
ZWOSEAGSTFGXMP-UHFFFAOYSA-N

>  <distance_score>  (5290) 
1.200484

>  <ref_mols>  (5290) 
Z1719a,Z0472a

>  <ref_pdb>  (5290) 
Z0101a

>  <HIPPO Compound ID>  (5290) 
138956

>  <name>  (5290) 
ZWOSEAGSTFGXMP-UHFFFAOYSA-N-P95-P23-P95-601533

>  <inspiration_score>  (5290) 
None

$$$$
WSHRCOAQGKZFLK-UHFFFAOYSA-N-P23-P23-P95-601533
     RDKit          3D

 22 24  0  0  0  0  0  0  0  0999 V2000
   -4.9371    7.2068  -18.5073 C   0  0  0  0  0  0  0  0  0  0  0  0
   -4.5454    6.6633  -17.2190 N   0  0  0  0  0  0  0  0  0  0  0  0
   -4.9757    7.5183  -16.1211 C   0  0  0  0  0  0  0  0  0  0  0  0
   -3.2357    5.9933  -17.0688 C   0  0  0  0  0  0  0  0  0  0  0  0
   -2.2608    6.7870  -16.1584 C   0  0  0  0  0  0  0  0  0  0  0  0
   -2.4973    5.8224  -18.4260 C   0  0  0  0  0  0  0  0  0  0  0  0
   -3.3901    4.5418  -16.4747 C   0  0  0  0  0  0  0  0  0  0  0  0
   -4.3704    4.3585  -15.3788 N   0  0  0  0  0  0  0  0  0  0  0  0
   -5.7801    4.5352  -15.4836 C   0  0  0  0  0  0  0  0  0  0  0  0
   -6.3846    4.8351  -14.2839 N   0  0  0  0  0  0  0  0  0  0  0  0
   -7.7059    5.0104  -14.0413 C   0  0  0  0  0  0  0  0  0  0  0  0
   -8.1403    5.3363  -12.4621 S   0  0  0  0  0  0  0  0  0  0  0  0
   -8.5757    4.9358  -15.0795 N   0  0  0  0  0  0  0  0  0  0  0  0
   -8.0712    4.6982  -16.2474 C   0  0  0  0  0  0  0  0  0  0  0  0
   -9.0282    4.6009  -17.3838 C   0  0  0  0  0  0  0  0  0  0  0  0
   -8.5940    4.4861  -18.6407 C   0  0  0  0  0  0  0  0  0  0  0  0
   -7.1960    4.4126  -18.9478 C   0  0  0  0  0  0  0  0  0  0  0  0
   -6.2754    4.3804  -17.9774 C   0  0  0  0  0  0  0  0  0  0  0  0
   -6.6048    4.5219  -16.5695 C   0  0  0  0  0  0  0  0  0  0  0  0
   -3.9512    3.4756  -14.2189 C   0  0  0  0  0  0  0  0  0  0  0  0
   -3.1192    2.2401  -14.3711 C   0  0  0  0  0  0  0  0  0  0  0  0
   -2.5586    3.4403  -13.6567 C   0  0  0  0  0  0  0  0  0  0  0  0
  1  2  1  0
  2  3  1  0
  2  4  1  0
  4  5  1  0
  4  6  1  0
  4  7  1  0
  7  8  1  0
  8  9  1  0
  9 10  1  0
 10 11  1  0
 11 12  2  0
 11 13  1  0
 13 14  2  0
 14 15  1  0
 15 16  2  0
 16 17  1  0
 17 18  2  0
 18 19  1  0
  8 20  1  0
 20 21  1  0
 21 22  1  0
 19  9  2  0
 22 20  1  0
 19 14  1  0
M  END
>  <energy_score>  (5291) 
-34.788285

>  <alias>  (5291) 
WSHRCOAQGKZFLK-UHFFFAOYSA-N-P23-P23-P95-601533

>  <HIPPO Pose ID>  (5291) 
91584

>  <smiles>  (5291) 
CN(C)C(C)(C)CN(c1[nH]c(=S)nc2ccccc12)C1CC1

>  <inchikey>  (5291) 
WSHRCOAQGKZFLK-UHFFFAOYSA-N

>  <distance_score>  (5291) 
1.139086

>  <ref_mols>  (5291) 
Z1719a,Z0472a

>  <ref_pdb>  (5291) 
Z0101a

>  <HIPPO Compound ID>  (5291) 
138957

>  <name>  (5291) 
WSHRCOAQGKZFLK-UHFFFAOYSA-N-P23-P23-P95-601533

>  <inspiration_score>  (5291) 
None

$$$$
SKFVKGIWIKPGGJ-UHFFFAOYSA-N-P23-P23-P95-601533
     RDKit          3D

 22 23  0  0  0  0  0  0  0  0999 V2000
   -1.0757    5.0968  -14.7029 C   0  0  0  0  0  0  0  0  0  0  0  0
   -1.4185    6.2005  -13.8134 N   0  0  0  0  0  0  0  0  0  0  0  0
   -0.7922    7.4386  -14.2687 C   0  0  0  0  0  0  0  0  0  0  0  0
   -2.8714    6.2940  -13.4486 C   0  0  0  0  0  0  0  0  0  0  0  0
   -2.9530    7.1999  -12.1839 C   0  0  0  0  0  0  0  0  0  0  0  0
   -3.3891    4.9117  -12.9779 C   0  0  0  0  0  0  0  0  0  0  0  0
   -3.8353    6.9425  -14.5191 C   0  0  0  0  0  0  0  0  0  0  0  0
   -4.1827    6.0893  -15.7001 N   0  0  0  0  0  0  0  0  0  0  0  0
   -3.5517    6.5448  -16.9498 C   0  0  0  0  0  0  0  0  0  0  0  0
   -4.3181    7.6267  -17.7057 C   0  0  0  0  0  0  0  0  0  0  0  0
   -5.1179    8.4395  -17.2695 O   0  0  0  0  0  0  0  0  0  0  0  0
   -3.9737    7.6553  -19.0152 O   0  0  0  0  0  0  0  0  0  0  0  0
   -5.4852    5.5526  -15.6573 C   0  0  0  0  0  0  0  0  0  0  0  0
   -6.0050    5.4829  -14.4102 N   0  0  0  0  0  0  0  0  0  0  0  0
   -7.2771    5.1211  -14.2488 C   0  0  0  0  0  0  0  0  0  0  0  0
   -8.1320    4.8504  -15.2198 N   0  0  0  0  0  0  0  0  0  0  0  0
   -7.6303    4.8308  -16.4484 C   0  0  0  0  0  0  0  0  0  0  0  0
   -8.5392    4.5097  -17.4435 C   0  0  0  0  0  0  0  0  0  0  0  0
   -8.1633    4.4214  -18.7749 C   0  0  0  0  0  0  0  0  0  0  0  0
   -6.8408    4.6255  -19.1172 C   0  0  0  0  0  0  0  0  0  0  0  0
   -5.9124    4.9455  -18.1289 C   0  0  0  0  0  0  0  0  0  0  0  0
   -6.2800    5.1184  -16.7629 C   0  0  0  0  0  0  0  0  0  0  0  0
  1  2  1  0
  2  3  1  0
  2  4  1  0
  4  5  1  0
  4  6  1  0
  4  7  1  0
  7  8  1  0
  8  9  1  0
  9 10  1  0
 10 11  2  0
 10 12  1  0
  8 13  1  0
 13 14  2  0
 14 15  1  0
 15 16  2  0
 16 17  1  0
 17 18  2  0
 18 19  1  0
 19 20  2  0
 20 21  1  0
 21 22  2  0
 22 13  1  0
 22 17  1  0
M  END
>  <energy_score>  (5292) 
-77.12165

>  <alias>  (5292) 
SKFVKGIWIKPGGJ-UHFFFAOYSA-N-P23-P23-P95-601533

>  <HIPPO Pose ID>  (5292) 
91586

>  <smiles>  (5292) 
CN(C)C(C)(C)CN(CC(=O)O)c1ncnc2ccccc12

>  <inchikey>  (5292) 
SKFVKGIWIKPGGJ-UHFFFAOYSA-N

>  <distance_score>  (5292) 
1.351782

>  <ref_mols>  (5292) 
Z1719a,Z0472a

>  <ref_pdb>  (5292) 
Z0101a

>  <HIPPO Compound ID>  (5292) 
138958

>  <name>  (5292) 
SKFVKGIWIKPGGJ-UHFFFAOYSA-N-P23-P23-P95-601533

>  <inspiration_score>  (5292) 
None

$$$$
VQZRMIAAWUVYBK-UHFFFAOYSA-N-P95-P23-P95-601533
     RDKit          3D

 23 24  0  0  0  0  0  0  0  0999 V2000
   -4.7776    9.5000  -16.2602 C   0  0  0  0  0  0  0  0  0  0  0  0
   -4.3657    8.5245  -15.1651 C   0  0  0  0  0  0  0  0  0  0  0  0
   -4.3116    7.1621  -15.6832 N   0  0  0  0  0  0  0  0  0  0  0  0
   -3.0994    6.6426  -16.3237 C   0  0  0  0  0  0  0  0  0  0  0  0
   -2.0356    6.0008  -15.3643 C   0  0  0  0  0  0  0  0  0  0  0  0
   -0.7999    5.7421  -16.2702 C   0  0  0  0  0  0  0  0  0  0  0  0
   -1.5285    7.0426  -14.3319 C   0  0  0  0  0  0  0  0  0  0  0  0
   -2.3741    4.6929  -14.7250 N   0  0  0  0  0  0  0  0  0  0  0  0
   -2.8238    4.7649  -13.3330 C   0  0  0  0  0  0  0  0  0  0  0  0
   -3.2974    3.8449  -15.4663 C   0  0  0  0  0  0  0  0  0  0  0  0
   -5.4695    6.4104  -15.5899 C   0  0  0  0  0  0  0  0  0  0  0  0
   -5.9960    6.2531  -14.3599 N   0  0  0  0  0  0  0  0  0  0  0  0
   -7.0583    5.4484  -14.2470 C   0  0  0  0  0  0  0  0  0  0  0  0
   -7.6757    4.8190  -15.2454 N   0  0  0  0  0  0  0  0  0  0  0  0
   -7.1649    5.0031  -16.4627 C   0  0  0  0  0  0  0  0  0  0  0  0
   -7.7558    4.3639  -17.5252 C   0  0  0  0  0  0  0  0  0  0  0  0
   -7.2376    4.5247  -18.8111 C   0  0  0  0  0  0  0  0  0  0  0  0
   -7.8164    3.8210  -19.9304 C   0  0  0  0  0  0  0  0  0  0  0  0
   -7.2136    3.3158  -20.8575 O   0  0  0  0  0  0  0  0  0  0  0  0
   -9.1460    3.8789  -19.8527 O   0  0  0  0  0  0  0  0  0  0  0  0
   -6.1773    5.3649  -19.0917 C   0  0  0  0  0  0  0  0  0  0  0  0
   -5.6215    6.0547  -18.0441 C   0  0  0  0  0  0  0  0  0  0  0  0
   -6.0584    5.8269  -16.7161 C   0  0  0  0  0  0  0  0  0  0  0  0
  1  2  1  0
  2  3  1  0
  3  4  1  0
  4  5  1  0
  5  6  1  0
  5  7  1  0
  5  8  1  0
  8  9  1  0
  8 10  1  0
  3 11  1  0
 11 12  2  0
 12 13  1  0
 13 14  2  0
 14 15  1  0
 15 16  2  0
 16 17  1  0
 17 18  1  0
 18 19  2  0
 18 20  1  0
 17 21  2  0
 21 22  1  0
 22 23  2  0
 23 11  1  0
 23 15  1  0
M  END
>  <energy_score>  (5293) 
-60.974991

>  <alias>  (5293) 
VQZRMIAAWUVYBK-UHFFFAOYSA-N-P95-P23-P95-601533

>  <HIPPO Pose ID>  (5293) 
91589

>  <smiles>  (5293) 
CCN(CC(C)(C)N(C)C)c1ncnc2cc(C(=O)O)ccc12

>  <inchikey>  (5293) 
VQZRMIAAWUVYBK-UHFFFAOYSA-N

>  <distance_score>  (5293) 
1.174385

>  <ref_mols>  (5293) 
Z1719a,Z0472a

>  <ref_pdb>  (5293) 
Z0101a

>  <HIPPO Compound ID>  (5293) 
138959

>  <name>  (5293) 
VQZRMIAAWUVYBK-UHFFFAOYSA-N-P95-P23-P95-601533

>  <inspiration_score>  (5293) 
None

$$$$
NUEHWXLATQHZNL-UHFFFAOYSA-N-P95-P23-P95-601533
     RDKit          3D

 23 26  0  0  0  0  0  0  0  0999 V2000
    3.3002    8.2261  -15.5182 O   0  0  0  0  0  0  0  0  0  0  0  0
    2.1126    8.0399  -15.4260 C   0  0  0  0  0  0  0  0  0  0  0  0
    0.9114    8.6756  -14.7033 C   0  0  0  0  0  0  0  0  0  0  0  0
    0.2213    7.3203  -14.9888 C   0  0  1  0  0  0  0  0  0  0  0  0
   -1.1386    7.3706  -15.6931 C   0  0  0  0  0  0  0  0  0  0  0  0
   -1.5398    6.0373  -16.1836 N   0  0  0  0  0  0  0  0  0  0  0  0
   -2.0818    5.1762  -15.1005 C   0  0  0  0  0  0  0  0  0  0  0  0
   -3.5091    5.4998  -14.6206 C   0  0  0  0  0  0  0  0  0  0  0  0
   -4.3923    5.5399  -15.7941 N   0  0  0  0  0  0  0  0  0  0  0  0
   -5.7511    5.4277  -15.5022 C   0  0  0  0  0  0  0  0  0  0  0  0
   -6.1369    5.6556  -14.2326 N   0  0  0  0  0  0  0  0  0  0  0  0
   -7.4269    5.4597  -13.9434 C   0  0  0  0  0  0  0  0  0  0  0  0
   -8.3846    5.0931  -14.7953 N   0  0  0  0  0  0  0  0  0  0  0  0
   -7.9950    4.8400  -16.0445 C   0  0  0  0  0  0  0  0  0  0  0  0
   -8.9473    4.4033  -16.9540 C   0  0  0  0  0  0  0  0  0  0  0  0
   -8.6349    4.1415  -18.2802 C   0  0  0  0  0  0  0  0  0  0  0  0
   -7.3233    4.2632  -18.6827 C   0  0  0  0  0  0  0  0  0  0  0  0
   -6.8521    3.7840  -20.4091 Br  0  0  0  0  0  0  0  0  0  0  0  0
   -6.3383    4.6614  -17.7988 C   0  0  0  0  0  0  0  0  0  0  0  0
   -6.6692    4.9951  -16.4727 C   0  0  0  0  0  0  0  0  0  0  0  0
   -3.9612    6.5342  -16.7916 C   0  0  0  0  0  0  0  0  0  0  0  0
   -2.5475    6.1403  -17.2715 C   0  0  0  0  0  0  0  0  0  0  0  0
    1.3270    7.0526  -15.9320 N   0  0  0  0  0  0  0  0  0  0  0  0
  1  2  2  0
  2  3  1  0
  3  4  1  0
  4  5  1  6
  5  6  1  0
  6  7  1  0
  7  8  1  0
  8  9  1  0
  9 10  1  0
 10 11  2  0
 11 12  1  0
 12 13  2  0
 13 14  1  0
 14 15  2  0
 15 16  1  0
 16 17  2  0
 17 18  1  0
 17 19  1  0
 19 20  2  0
  9 21  1  0
 21 22  1  0
  4 23  1  0
 23  2  1  0
 22  6  1  0
 20 10  1  0
 20 14  1  0
M  END
>  <energy_score>  (5294) 
-66.659405

>  <alias>  (5294) 
NUEHWXLATQHZNL-UHFFFAOYSA-N-P95-P23-P95-601533

>  <HIPPO Pose ID>  (5294) 
91597

>  <smiles>  (5294) 
O=C1CC(CN2CCN(c3ncnc4ccc(Br)cc34)CC2)N1

>  <inchikey>  (5294) 
NUEHWXLATQHZNL-UHFFFAOYSA-N

>  <distance_score>  (5294) 
1.251702

>  <ref_mols>  (5294) 
Z1719a,Z0472a

>  <ref_pdb>  (5294) 
Z0101a

>  <HIPPO Compound ID>  (5294) 
138963

>  <name>  (5294) 
NUEHWXLATQHZNL-UHFFFAOYSA-N-P95-P23-P95-601533

>  <inspiration_score>  (5294) 
None

$$$$
DHQZAOXORUTUQJ-UHFFFAOYSA-N-P23-P23-P95-601533
     RDKit          3D

 23 26  0  0  0  0  0  0  0  0999 V2000
   -4.0744    8.1894  -13.4239 C   0  0  0  0  0  0  0  0  0  0  0  0
   -4.9754    8.4232  -14.5923 C   0  0  0  0  0  0  0  0  0  0  0  0
   -4.5919    7.8679  -15.9511 C   0  0  0  0  0  0  0  0  0  0  0  0
   -4.5420    6.4006  -16.1218 N   0  0  0  0  0  0  0  0  0  0  0  0
   -3.3803    5.6799  -15.5868 C   0  0  0  0  0  0  0  0  0  0  0  0
   -2.1734    5.6748  -16.5442 C   0  0  1  0  0  0  0  0  0  0  0  0
   -2.4711    5.1777  -17.9538 C   0  0  0  0  0  0  0  0  0  0  0  0
   -2.4620    6.4396  -18.7802 C   0  0  0  0  0  0  0  0  0  0  0  0
   -1.4270    7.2735  -18.0618 C   0  0  0  0  0  0  0  0  0  0  0  0
   -1.5977    6.9935  -16.6664 O   0  0  0  0  0  0  0  0  0  0  0  0
   -5.7553    5.7645  -15.7875 C   0  0  0  0  0  0  0  0  0  0  0  0
   -6.0638    5.6074  -14.4926 N   0  0  0  0  0  0  0  0  0  0  0  0
   -7.2677    5.0727  -14.2557 C   0  0  0  0  0  0  0  0  0  0  0  0
   -7.6850    4.8588  -12.6157 Cl  0  0  0  0  0  0  0  0  0  0  0  0
   -8.1877    4.6969  -15.1434 N   0  0  0  0  0  0  0  0  0  0  0  0
   -7.8269    4.7843  -16.4219 C   0  0  0  0  0  0  0  0  0  0  0  0
   -8.7076    4.3506  -17.4010 C   0  0  0  0  0  0  0  0  0  0  0  0
   -8.3479    4.3441  -18.7473 C   0  0  0  0  0  0  0  0  0  0  0  0
   -7.0933    4.7948  -19.1315 C   0  0  0  0  0  0  0  0  0  0  0  0
   -6.2369    5.3184  -18.1807 C   0  0  0  0  0  0  0  0  0  0  0  0
   -6.5880    5.3031  -16.8175 C   0  0  0  0  0  0  0  0  0  0  0  0
   -5.6636    9.7327  -14.6156 N   0  0  0  0  0  0  0  0  0  0  0  0
   -6.3773    8.7620  -14.3219 N   0  0  0  0  0  0  0  0  0  0  0  0
  1  2  1  0
  2  3  1  0
  3  4  1  0
  4  5  1  0
  6  5  1  1
  6  7  1  0
  7  8  1  0
  8  9  1  0
  9 10  1  0
  4 11  1  0
 11 12  2  0
 12 13  1  0
 13 14  1  0
 13 15  2  0
 15 16  1  0
 16 17  2  0
 17 18  1  0
 18 19  2  0
 19 20  1  0
 20 21  2  0
  2 22  1  0
 22 23  2  0
 23  2  1  0
 10  6  1  0
 21 11  1  0
 21 16  1  0
M  END
>  <energy_score>  (5295) 
-52.965904

>  <alias>  (5295) 
DHQZAOXORUTUQJ-UHFFFAOYSA-N-P23-P23-P95-601533

>  <HIPPO Pose ID>  (5295) 
91604

>  <smiles>  (5295) 
CC1(CN(CC2CCCO2)c2nc(Cl)nc3ccccc23)N=N1

>  <inchikey>  (5295) 
DHQZAOXORUTUQJ-UHFFFAOYSA-N

>  <distance_score>  (5295) 
0.79015

>  <ref_mols>  (5295) 
Z1719a,Z0472a

>  <ref_pdb>  (5295) 
Z0101a

>  <HIPPO Compound ID>  (5295) 
138967

>  <name>  (5295) 
DHQZAOXORUTUQJ-UHFFFAOYSA-N-P23-P23-P95-601533

>  <inspiration_score>  (5295) 
None

$$$$
SHYKBVKWGYZFCF-UHFFFAOYSA-N-P23-P23-P95-601533
     RDKit          3D

 23 26  0  0  0  0  0  0  0  0999 V2000
   -2.8962    4.2620  -13.6543 C   0  0  0  0  0  0  0  0  0  0  0  0
   -2.3247    5.5183  -14.2276 C   0  0  0  0  0  0  0  0  0  0  0  0
   -3.2637    6.5592  -14.7974 C   0  0  0  0  0  0  0  0  0  0  0  0
   -4.0534    6.0829  -15.9613 N   0  0  0  0  0  0  0  0  0  0  0  0
   -3.2287    5.8980  -17.0996 C   0  0  0  0  0  0  0  0  0  0  0  0
   -2.6893    7.0079  -17.7713 C   0  0  0  0  0  0  0  0  0  0  0  0
   -1.8706    6.8523  -18.8928 C   0  0  0  0  0  0  0  0  0  0  0  0
   -1.5792    5.5778  -19.3652 C   0  0  0  0  0  0  0  0  0  0  0  0
   -2.1108    4.4671  -18.7168 C   0  0  0  0  0  0  0  0  0  0  0  0
   -2.9202    4.6253  -17.5864 C   0  0  0  0  0  0  0  0  0  0  0  0
   -5.3272    5.5188  -15.7536 C   0  0  0  0  0  0  0  0  0  0  0  0
   -5.7141    5.3618  -14.5100 N   0  0  0  0  0  0  0  0  0  0  0  0
   -6.9294    4.8311  -14.1709 C   0  0  0  0  0  0  0  0  0  0  0  0
   -7.4180    4.6094  -12.5828 S   0  0  0  0  0  0  0  0  0  0  0  0
   -7.8082    4.4847  -15.1495 N   0  0  0  0  0  0  0  0  0  0  0  0
   -7.5148    4.6485  -16.4954 C   0  0  0  0  0  0  0  0  0  0  0  0
   -8.4797    4.2968  -17.4385 C   0  0  0  0  0  0  0  0  0  0  0  0
   -8.1738    4.3988  -18.7866 C   0  0  0  0  0  0  0  0  0  0  0  0
   -6.9305    4.8867  -19.1765 C   0  0  0  0  0  0  0  0  0  0  0  0
   -6.0082    5.3185  -18.2300 C   0  0  0  0  0  0  0  0  0  0  0  0
   -6.2695    5.1590  -16.8719 C   0  0  0  0  0  0  0  0  0  0  0  0
   -0.9367    5.4847  -14.7112 N   0  0  0  0  0  0  0  0  0  0  0  0
   -1.0877    6.0215  -13.6023 N   0  0  0  0  0  0  0  0  0  0  0  0
  1  2  1  0
  2  3  1  0
  3  4  1  0
  4  5  1  0
  5  6  2  0
  6  7  1  0
  7  8  2  0
  8  9  1  0
  9 10  2  0
  4 11  1  0
 11 12  2  0
 12 13  1  0
 13 14  2  0
 13 15  1  0
 15 16  1  0
 16 17  2  0
 17 18  1  0
 18 19  2  0
 19 20  1  0
 20 21  2  0
  2 22  1  0
 22 23  2  0
 23  2  1  0
 10  5  1  0
 21 11  1  0
 21 16  1  0
M  END
>  <energy_score>  (5296) 
-32.760181

>  <alias>  (5296) 
SHYKBVKWGYZFCF-UHFFFAOYSA-N-P23-P23-P95-601533

>  <HIPPO Pose ID>  (5296) 
91606

>  <smiles>  (5296) 
CC1(CN(c2ccccc2)c2nc(=S)[nH]c3ccccc23)N=N1

>  <inchikey>  (5296) 
SHYKBVKWGYZFCF-UHFFFAOYSA-N

>  <distance_score>  (5296) 
0.741642

>  <ref_mols>  (5296) 
Z1719a,Z0472a

>  <ref_pdb>  (5296) 
Z0101a

>  <HIPPO Compound ID>  (5296) 
138968

>  <name>  (5296) 
SHYKBVKWGYZFCF-UHFFFAOYSA-N-P23-P23-P95-601533

>  <inspiration_score>  (5296) 
None

$$$$
HFWDSFQKVYSZLA-UHFFFAOYSA-N-P95-P23-P95-601533
     RDKit          3D

 24 27  0  0  0  0  0  0  0  0999 V2000
   -2.8824    4.8078  -18.6368 C   0  0  0  0  0  0  0  0  0  0  0  0
   -3.2742    6.1571  -18.3017 N   0  0  0  0  0  0  0  0  0  0  0  0
   -3.8193    6.9009  -19.4642 C   0  0  0  0  0  0  0  0  0  0  0  0
   -3.0542    8.1321  -18.9272 C   0  0  0  0  0  0  0  0  0  0  0  0
   -2.1057    7.0720  -18.3072 C   0  0  1  0  0  0  0  0  0  0  0  0
   -1.4453    7.3260  -16.9350 C   0  0  0  0  0  0  0  0  0  0  0  0
   -2.4029    7.3271  -15.8431 N   0  0  0  0  0  0  0  0  0  0  0  0
   -2.7318    8.6004  -15.2519 C   0  0  0  0  0  0  0  0  0  0  0  0
   -4.0390    8.5923  -14.4619 C   0  0  0  0  0  0  0  0  0  0  0  0
   -5.1588    7.7760  -15.1194 C   0  0  0  0  0  0  0  0  0  0  0  0
   -4.9221    6.3148  -15.1899 N   0  0  0  0  0  0  0  0  0  0  0  0
   -6.1343    5.6294  -14.9633 C   0  0  0  0  0  0  0  0  0  0  0  0
   -6.5800    5.5504  -13.6987 N   0  0  0  0  0  0  0  0  0  0  0  0
   -7.8097    5.0518  -13.5429 C   0  0  0  0  0  0  0  0  0  0  0  0
   -8.6451    4.6662  -14.5128 N   0  0  0  0  0  0  0  0  0  0  0  0
   -8.1599    4.6687  -15.7558 C   0  0  0  0  0  0  0  0  0  0  0  0
   -8.9504    4.1931  -16.7964 C   0  0  0  0  0  0  0  0  0  0  0  0
   -8.4840    4.1152  -18.1045 C   0  0  0  0  0  0  0  0  0  0  0  0
   -7.1951    4.5311  -18.3700 C   0  0  0  0  0  0  0  0  0  0  0  0
   -6.4682    4.2154  -20.0526 Br  0  0  0  0  0  0  0  0  0  0  0  0
   -6.4124    5.0843  -17.3699 C   0  0  0  0  0  0  0  0  0  0  0  0
   -6.8801    5.1416  -16.0489 C   0  0  0  0  0  0  0  0  0  0  0  0
   -3.8216    5.7781  -14.3782 C   0  0  0  0  0  0  0  0  0  0  0  0
   -2.4456    6.1272  -15.0107 C   0  0  0  0  0  0  0  0  0  0  0  0
  1  2  1  0
  2  3  1  0
  3  4  1  0
  4  5  1  0
  5  6  1  1
  6  7  1  0
  7  8  1  0
  8  9  1  0
  9 10  1  0
 10 11  1  0
 11 12  1  0
 12 13  2  0
 13 14  1  0
 14 15  2  0
 15 16  1  0
 16 17  2  0
 17 18  1  0
 18 19  2  0
 19 20  1  0
 19 21  1  0
 21 22  2  0
 11 23  1  0
 23 24  1  0
  5  2  1  0
 24  7  1  0
 22 12  1  0
 22 16  1  0
M  END
>  <energy_score>  (5297) 
-24.700088

>  <alias>  (5297) 
HFWDSFQKVYSZLA-UHFFFAOYSA-N-P95-P23-P95-601533

>  <HIPPO Pose ID>  (5297) 
91613

>  <smiles>  (5297) 
CN1CCC1CN1CCCN(c2ncnc3ccc(Br)cc23)CC1

>  <inchikey>  (5297) 
HFWDSFQKVYSZLA-UHFFFAOYSA-N

>  <distance_score>  (5297) 
1.789676

>  <ref_mols>  (5297) 
Z1719a,Z0472a

>  <ref_pdb>  (5297) 
Z0101a

>  <HIPPO Compound ID>  (5297) 
138971

>  <name>  (5297) 
HFWDSFQKVYSZLA-UHFFFAOYSA-N-P95-P23-P95-601533

>  <inspiration_score>  (5297) 
None

$$$$
FUUPKOYJRGKDFS-UHFFFAOYSA-N-P23-P23-P95-601533
     RDKit          3D

 24 27  0  0  0  0  0  0  0  0999 V2000
   -0.2240    2.9639  -10.8708 O   0  0  0  0  0  0  0  0  0  0  0  0
   -1.2631    2.8381  -11.4935 C   0  0  0  0  0  0  0  0  0  0  0  0
   -2.6398    2.6146  -10.9195 C   0  0  0  0  0  0  0  0  0  0  0  0
   -3.5518    3.0188  -12.0788 C   0  0  0  0  0  0  0  0  0  0  0  0
   -2.7303    2.6628  -13.3124 C   0  0  1  0  0  0  0  0  0  0  0  0
   -3.1119    3.4293  -14.6035 C   0  0  0  0  0  0  0  0  0  0  0  0
   -2.2766    4.5808  -14.9942 N   0  0  0  0  0  0  0  0  0  0  0  0
   -2.6148    5.0169  -16.3693 C   0  0  0  0  0  0  0  0  0  0  0  0
   -3.1744    6.4425  -16.4783 C   0  0  0  0  0  0  0  0  0  0  0  0
   -4.2151    6.6958  -15.4408 N   0  0  0  0  0  0  0  0  0  0  0  0
   -5.4487    6.0007  -15.5253 C   0  0  0  0  0  0  0  0  0  0  0  0
   -5.9759    5.4627  -14.4061 N   0  0  0  0  0  0  0  0  0  0  0  0
   -7.0647    4.6891  -14.5261 C   0  0  0  0  0  0  0  0  0  0  0  0
   -7.6634    4.3554  -15.6668 N   0  0  0  0  0  0  0  0  0  0  0  0
   -7.1549    4.8930  -16.7730 C   0  0  0  0  0  0  0  0  0  0  0  0
   -7.6285    4.4945  -18.0116 C   0  0  0  0  0  0  0  0  0  0  0  0
   -7.0662    4.9852  -19.1923 C   0  0  0  0  0  0  0  0  0  0  0  0
   -6.2096    6.0707  -19.1387 C   0  0  0  0  0  0  0  0  0  0  0  0
   -5.5269    6.9927  -20.6398 Br  0  0  0  0  0  0  0  0  0  0  0  0
   -5.8008    6.5318  -17.9093 C   0  0  0  0  0  0  0  0  0  0  0  0
   -6.1173    5.8288  -16.7414 C   0  0  0  0  0  0  0  0  0  0  0  0
   -3.5927    6.6421  -14.0920 C   0  0  0  0  0  0  0  0  0  0  0  0
   -2.3406    5.7152  -14.0460 C   0  0  0  0  0  0  0  0  0  0  0  0
   -1.3781    2.8671  -12.8653 N   0  0  0  0  0  0  0  0  0  0  0  0
  1  2  2  0
  2  3  1  0
  3  4  1  0
  4  5  1  0
  5  6  1  6
  6  7  1  0
  7  8  1  0
  8  9  1  0
  9 10  1  0
 10 11  1  0
 11 12  2  0
 12 13  1  0
 13 14  2  0
 14 15  1  0
 15 16  2  0
 16 17  1  0
 17 18  2  0
 18 19  1  0
 18 20  1  0
 20 21  2  0
 10 22  1  0
 22 23  1  0
  5 24  1  0
 24  2  1  0
 23  7  1  0
 21 11  1  0
 21 15  1  0
M  END
>  <energy_score>  (5298) 
-20.208459

>  <alias>  (5298) 
FUUPKOYJRGKDFS-UHFFFAOYSA-N-P23-P23-P95-601533

>  <HIPPO Pose ID>  (5298) 
91616

>  <smiles>  (5298) 
O=C1CCC(CN2CCN(c3ncnc4ccc(Br)cc34)CC2)N1

>  <inchikey>  (5298) 
FUUPKOYJRGKDFS-UHFFFAOYSA-N

>  <distance_score>  (5298) 
1.261449

>  <ref_mols>  (5298) 
Z1719a,Z0472a

>  <ref_pdb>  (5298) 
Z0101a

>  <HIPPO Compound ID>  (5298) 
138973

>  <name>  (5298) 
FUUPKOYJRGKDFS-UHFFFAOYSA-N-P23-P23-P95-601533

>  <inspiration_score>  (5298) 
None

$$$$
DAJSAETUKQBYHO-UHFFFAOYSA-N-P95-P23-P95-601533
     RDKit          3D

 24 27  0  0  0  0  0  0  0  0999 V2000
   -2.4299    5.5682  -17.9264 C   0  0  0  0  0  0  0  0  0  0  0  0
   -2.7272    5.7933  -16.5205 N   0  0  0  0  0  0  0  0  0  0  0  0
   -3.4245    4.6417  -15.9409 C   0  0  0  0  0  0  0  0  0  0  0  0
   -4.0699    4.9556  -14.5880 C   0  0  0  0  0  0  0  0  0  0  0  0
   -5.0697    6.0049  -14.7731 N   0  0  0  0  0  0  0  0  0  0  0  0
   -6.2931    5.4708  -15.1498 C   0  0  0  0  0  0  0  0  0  0  0  0
   -6.9824    4.9832  -14.1049 N   0  0  0  0  0  0  0  0  0  0  0  0
   -8.1098    4.3276  -14.3764 C   0  0  0  0  0  0  0  0  0  0  0  0
   -8.6188    4.1065  -15.5882 N   0  0  0  0  0  0  0  0  0  0  0  0
   -7.9136    4.5459  -16.6253 C   0  0  0  0  0  0  0  0  0  0  0  0
   -8.3354    4.2090  -17.9016 C   0  0  0  0  0  0  0  0  0  0  0  0
   -7.6204    4.5982  -19.0397 C   0  0  0  0  0  0  0  0  0  0  0  0
   -6.5128    5.4328  -18.9400 C   0  0  0  0  0  0  0  0  0  0  0  0
   -5.7694    5.8019  -20.0679 N   0  0  0  0  0  0  0  0  0  0  0  0
   -5.1164    7.1152  -20.1269 C   0  0  0  0  0  0  0  0  0  0  0  0
   -3.9196    7.1285  -21.1059 C   0  0  2  0  0  0  0  0  0  0  0  0
   -2.9480    8.3228  -20.8660 C   0  0  0  0  0  0  0  0  0  0  0  0
   -3.6963    9.0060  -22.0232 C   0  0  0  0  0  0  0  0  0  0  0  0
   -4.0577    7.6557  -22.5000 N   0  0  0  0  0  0  0  0  0  0  0  0
   -5.4008    7.6296  -23.0497 C   0  0  0  0  0  0  0  0  0  0  0  0
   -6.0988    5.7399  -17.6529 C   0  0  0  0  0  0  0  0  0  0  0  0
   -6.7456    5.2923  -16.4773 C   0  0  0  0  0  0  0  0  0  0  0  0
   -4.5538    7.2601  -15.2968 C   0  0  0  0  0  0  0  0  0  0  0  0
   -3.3318    7.1098  -16.2482 C   0  0  0  0  0  0  0  0  0  0  0  0
  1  2  1  0
  2  3  1  0
  3  4  1  0
  4  5  1  0
  5  6  1  0
  6  7  2  0
  7  8  1  0
  8  9  2  0
  9 10  1  0
 10 11  2  0
 11 12  1  0
 12 13  2  0
 13 14  1  0
 14 15  1  0
 16 15  1  1
 16 17  1  0
 17 18  1  0
 18 19  1  0
 19 20  1  0
 13 21  1  0
 21 22  2  0
  5 23  1  0
 23 24  1  0
 24  2  1  0
 22  6  1  0
 22 10  1  0
 19 16  1  0
M  END
>  <energy_score>  (5299) 
-29.433106

>  <alias>  (5299) 
DAJSAETUKQBYHO-UHFFFAOYSA-N-P95-P23-P95-601533

>  <HIPPO Pose ID>  (5299) 
91619

>  <smiles>  (5299) 
CN1CCN(c2ncnc3ccc(NCC4CCN4C)cc23)CC1

>  <inchikey>  (5299) 
DAJSAETUKQBYHO-UHFFFAOYSA-N

>  <distance_score>  (5299) 
1.452768

>  <ref_mols>  (5299) 
Z1719a,Z0472a

>  <ref_pdb>  (5299) 
Z0101a

>  <HIPPO Compound ID>  (5299) 
138974

>  <name>  (5299) 
DAJSAETUKQBYHO-UHFFFAOYSA-N-P95-P23-P95-601533

>  <inspiration_score>  (5299) 
None

$$$$
SSHBOQAHIAHAKL-UHFFFAOYSA-N-P23-P23-P95-601533
     RDKit          3D

 24 27  0  0  0  0  0  0  0  0999 V2000
   -2.8685    3.2046  -14.2062 C   0  0  0  0  0  0  0  0  0  0  0  0
   -2.5973    4.5584  -14.6975 N   0  0  0  0  0  0  0  0  0  0  0  0
   -3.1163    4.6696  -16.0743 C   0  0  0  0  0  0  0  0  0  0  0  0
   -3.2691    6.1248  -16.5265 C   0  0  0  0  0  0  0  0  0  0  0  0
   -4.2305    6.8492  -15.6380 N   0  0  0  0  0  0  0  0  0  0  0  0
   -5.5462    6.2729  -15.5934 C   0  0  0  0  0  0  0  0  0  0  0  0
   -6.0877    5.9500  -14.4025 N   0  0  0  0  0  0  0  0  0  0  0  0
   -7.1966    5.1946  -14.4093 C   0  0  0  0  0  0  0  0  0  0  0  0
   -7.8198    4.7187  -15.4869 N   0  0  0  0  0  0  0  0  0  0  0  0
   -7.3049    5.0736  -16.6648 C   0  0  0  0  0  0  0  0  0  0  0  0
   -7.8188    4.5481  -17.8337 C   0  0  0  0  0  0  0  0  0  0  0  0
   -7.2398    4.8502  -19.0722 C   0  0  0  0  0  0  0  0  0  0  0  0
   -6.2372    5.8139  -19.1970 C   0  0  0  0  0  0  0  0  0  0  0  0
   -5.7508    6.1980  -20.4292 N   0  0  0  0  0  0  0  0  0  0  0  0
   -4.5728    7.0182  -20.6513 C   0  0  0  0  0  0  0  0  0  0  0  0
   -4.9594    8.4771  -20.9085 C   0  0  1  0  0  0  0  0  0  0  0  0
   -3.9048    9.3691  -21.6005 C   0  0  0  0  0  0  0  0  0  0  0  0
   -4.7228    9.0920  -22.8733 C   0  0  0  0  0  0  0  0  0  0  0  0
   -4.5564    9.1533  -24.0656 O   0  0  0  0  0  0  0  0  0  0  0  0
   -5.7704    8.6227  -22.1431 N   0  0  0  0  0  0  0  0  0  0  0  0
   -5.8323    6.4263  -18.0326 C   0  0  0  0  0  0  0  0  0  0  0  0
   -6.2227    5.9480  -16.7738 C   0  0  0  0  0  0  0  0  0  0  0  0
   -3.6145    6.9286  -14.2935 C   0  0  0  0  0  0  0  0  0  0  0  0
   -3.2250    5.5237  -13.7459 C   0  0  0  0  0  0  0  0  0  0  0  0
  1  2  1  0
  2  3  1  0
  3  4  1  0
  4  5  1  0
  5  6  1  0
  6  7  2  0
  7  8  1  0
  8  9  2  0
  9 10  1  0
 10 11  2  0
 11 12  1  0
 12 13  2  0
 13 14  1  0
 14 15  1  0
 16 15  1  6
 16 17  1  0
 17 18  1  0
 18 19  2  0
 18 20  1  0
 13 21  1  0
 21 22  2  0
  5 23  1  0
 23 24  1  0
 24  2  1  0
 22  6  1  0
 22 10  1  0
 20 16  1  0
M  END
>  <energy_score>  (5300) 
-56.328953

>  <alias>  (5300) 
SSHBOQAHIAHAKL-UHFFFAOYSA-N-P23-P23-P95-601533

>  <HIPPO Pose ID>  (5300) 
91620

>  <smiles>  (5300) 
CN1CCN(c2ncnc3ccc(NCC4CC(=O)N4)cc23)CC1

>  <inchikey>  (5300) 
SSHBOQAHIAHAKL-UHFFFAOYSA-N

>  <distance_score>  (5300) 
1.235836

>  <ref_mols>  (5300) 
Z1719a,Z0472a

>  <ref_pdb>  (5300) 
Z0101a

>  <HIPPO Compound ID>  (5300) 
138975

>  <name>  (5300) 
SSHBOQAHIAHAKL-UHFFFAOYSA-N-P23-P23-P95-601533

>  <inspiration_score>  (5300) 
None

$$$$
PEBJOTXRPJJWDI-UHFFFAOYSA-N-P23-P23-P95-601533
     RDKit          3D

 24 27  0  0  0  0  0  0  0  0999 V2000
    3.7426    5.7090  -13.6396 O   0  0  0  0  0  0  0  0  0  0  0  0
    2.5737    5.6842  -13.9358 C   0  0  0  0  0  0  0  0  0  0  0  0
    1.6336    4.8165  -14.7817 C   0  0  0  0  0  0  0  0  0  0  0  0
    0.5114    5.5097  -13.9728 C   0  0  2  0  0  0  0  0  0  0  0  0
   -0.5864    6.2115  -14.7772 C   0  0  0  0  0  0  0  0  0  0  0  0
   -1.3897    5.2500  -15.5410 N   0  0  0  0  0  0  0  0  0  0  0  0
   -2.0764    5.8403  -16.6960 C   0  0  0  0  0  0  0  0  0  0  0  0
   -2.9000    7.1135  -16.4635 C   0  0  0  0  0  0  0  0  0  0  0  0
   -4.0057    7.0457  -15.3967 C   0  0  0  0  0  0  0  0  0  0  0  0
   -4.3351    5.6691  -15.0399 N   0  0  0  0  0  0  0  0  0  0  0  0
   -5.6737    5.2763  -15.0457 C   0  0  0  0  0  0  0  0  0  0  0  0
   -6.2616    4.9654  -13.8801 N   0  0  0  0  0  0  0  0  0  0  0  0
   -7.5392    4.5614  -13.9396 C   0  0  0  0  0  0  0  0  0  0  0  0
   -8.2945    4.4576  -15.0383 N   0  0  0  0  0  0  0  0  0  0  0  0
   -7.6944    4.7276  -16.1957 C   0  0  0  0  0  0  0  0  0  0  0  0
   -8.3925    4.5839  -17.3873 C   0  0  0  0  0  0  0  0  0  0  0  0
   -7.8185    4.9296  -18.6157 C   0  0  0  0  0  0  0  0  0  0  0  0
   -6.5293    5.4317  -18.6497 C   0  0  0  0  0  0  0  0  0  0  0  0
   -5.7151    6.3002  -20.1071 Br  0  0  0  0  0  0  0  0  0  0  0  0
   -5.7897    5.4526  -17.4925 C   0  0  0  0  0  0  0  0  0  0  0  0
   -6.3676    5.1587  -16.2551 C   0  0  0  0  0  0  0  0  0  0  0  0
   -3.4844    5.0500  -14.0250 C   0  0  0  0  0  0  0  0  0  0  0  0
   -2.2780    4.3973  -14.7242 C   0  0  0  0  0  0  0  0  0  0  0  0
    1.5419    6.4637  -13.5051 N   0  0  0  0  0  0  0  0  0  0  0  0
  1  2  2  0
  2  3  1  0
  3  4  1  0
  4  5  1  6
  5  6  1  0
  6  7  1  0
  7  8  1  0
  8  9  1  0
  9 10  1  0
 10 11  1  0
 11 12  2  0
 12 13  1  0
 13 14  2  0
 14 15  1  0
 15 16  2  0
 16 17  1  0
 17 18  2  0
 18 19  1  0
 18 20  1  0
 20 21  2  0
 10 22  1  0
 22 23  1  0
  4 24  1  0
 24  2  1  0
 23  6  1  0
 21 11  1  0
 21 15  1  0
M  END
>  <energy_score>  (5301) 
-51.780778

>  <alias>  (5301) 
PEBJOTXRPJJWDI-UHFFFAOYSA-N-P23-P23-P95-601533

>  <HIPPO Pose ID>  (5301) 
91622

>  <smiles>  (5301) 
O=C1CC(CN2CCCN(c3ncnc4ccc(Br)cc34)CC2)N1

>  <inchikey>  (5301) 
PEBJOTXRPJJWDI-UHFFFAOYSA-N

>  <distance_score>  (5301) 
1.180801

>  <ref_mols>  (5301) 
Z1719a,Z0472a

>  <ref_pdb>  (5301) 
Z0101a

>  <HIPPO Compound ID>  (5301) 
138976

>  <name>  (5301) 
PEBJOTXRPJJWDI-UHFFFAOYSA-N-P23-P23-P95-601533

>  <inspiration_score>  (5301) 
None

$$$$
UJANUOKGDOITBE-UHFFFAOYSA-N-P23-P23-P95-601533
     RDKit          3D

 24 27  0  0  0  0  0  0  0  0999 V2000
    0.2111    6.1447  -13.9645 C   0  0  0  0  0  0  0  0  0  0  0  0
   -0.6835    6.8197  -14.9057 N   0  0  0  0  0  0  0  0  0  0  0  0
    0.0493    7.7902  -15.7457 C   0  0  0  0  0  0  0  0  0  0  0  0
    0.9043    7.1740  -16.8547 C   0  0  2  0  0  0  0  0  0  0  0  0
    2.2843    6.5722  -16.4897 C   0  0  0  0  0  0  0  0  0  0  0  0
    2.8042    7.4827  -17.6110 C   0  0  0  0  0  0  0  0  0  0  0  0
    3.7688    7.5573  -18.3299 O   0  0  0  0  0  0  0  0  0  0  0  0
    1.6543    8.2125  -17.6006 N   0  0  0  0  0  0  0  0  0  0  0  0
   -1.5949    5.8942  -15.6316 C   0  0  0  0  0  0  0  0  0  0  0  0
   -2.3983    4.9908  -14.6729 C   0  0  0  0  0  0  0  0  0  0  0  0
   -3.2976    4.0385  -15.4401 C   0  0  0  0  0  0  0  0  0  0  0  0
   -4.1277    4.7278  -16.4118 N   0  0  0  0  0  0  0  0  0  0  0  0
   -5.4539    4.9436  -16.0271 C   0  0  0  0  0  0  0  0  0  0  0  0
   -5.7123    5.1179  -14.7168 N   0  0  0  0  0  0  0  0  0  0  0  0
   -7.0001    5.1776  -14.3599 C   0  0  0  0  0  0  0  0  0  0  0  0
   -8.0561    5.0881  -15.1718 N   0  0  0  0  0  0  0  0  0  0  0  0
   -7.7904    4.8856  -16.4648 C   0  0  0  0  0  0  0  0  0  0  0  0
   -8.8503    4.6909  -17.3382 C   0  0  0  0  0  0  0  0  0  0  0  0
   -8.6479    4.4807  -18.7001 C   0  0  0  0  0  0  0  0  0  0  0  0
   -7.3604    4.4427  -19.2083 C   0  0  0  0  0  0  0  0  0  0  0  0
   -6.2866    4.6156  -18.3553 C   0  0  0  0  0  0  0  0  0  0  0  0
   -6.4861    4.8402  -16.9743 C   0  0  0  0  0  0  0  0  0  0  0  0
   -3.4922    5.6936  -17.2977 C   0  0  0  0  0  0  0  0  0  0  0  0
   -2.5991    6.6478  -16.5259 C   0  0  0  0  0  0  0  0  0  0  0  0
  1  2  1  0
  2  3  1  0
  4  3  1  1
  4  5  1  0
  5  6  1  0
  6  7  2  0
  6  8  1  0
  2  9  1  0
  9 10  1  0
 10 11  1  0
 11 12  1  0
 12 13  1  0
 13 14  2  0
 14 15  1  0
 15 16  2  0
 16 17  1  0
 17 18  2  0
 18 19  1  0
 19 20  2  0
 20 21  1  0
 21 22  2  0
 12 23  1  0
 23 24  1  0
  8  4  1  0
 24  9  1  0
 22 13  1  0
 22 17  1  0
M  END
>  <energy_score>  (5302) 
-55.767401

>  <alias>  (5302) 
UJANUOKGDOITBE-UHFFFAOYSA-N-P23-P23-P95-601533

>  <HIPPO Pose ID>  (5302) 
91624

>  <smiles>  (5302) 
CN(CC1CC(=O)N1)C1CCN(c2ncnc3ccccc23)CC1

>  <inchikey>  (5302) 
UJANUOKGDOITBE-UHFFFAOYSA-N

>  <distance_score>  (5302) 
1.149623

>  <ref_mols>  (5302) 
Z1719a,Z0472a

>  <ref_pdb>  (5302) 
Z0101a

>  <HIPPO Compound ID>  (5302) 
138977

>  <name>  (5302) 
UJANUOKGDOITBE-UHFFFAOYSA-N-P23-P23-P95-601533

>  <inspiration_score>  (5302) 
None

$$$$
BRUHSFZSKRXSQU-UHFFFAOYSA-N-P23-P23-P95-601533
     RDKit          3D

 24 27  0  0  0  0  0  0  0  0999 V2000
   -1.6056    7.0477  -14.3607 C   0  0  0  0  0  0  0  0  0  0  0  0
   -3.0566    7.2514  -14.0685 C   0  0  0  0  0  0  0  0  0  0  0  0
   -3.9619    7.7016  -15.1900 C   0  0  0  0  0  0  0  0  0  0  0  0
   -4.3933    6.5968  -16.0746 N   0  0  0  0  0  0  0  0  0  0  0  0
   -3.4696    6.2810  -17.1064 C   0  0  0  0  0  0  0  0  0  0  0  0
   -3.1107    7.2514  -18.0633 C   0  0  0  0  0  0  0  0  0  0  0  0
   -2.3004    6.9351  -19.1567 C   0  0  0  0  0  0  0  0  0  0  0  0
   -1.8529    5.6317  -19.3296 C   0  0  0  0  0  0  0  0  0  0  0  0
   -2.1926    4.6574  -18.3930 C   0  0  0  0  0  0  0  0  0  0  0  0
   -2.9534    4.9854  -17.2661 C   0  0  0  0  0  0  0  0  0  0  0  0
   -3.1920    3.8054  -16.0268 Cl  0  0  0  0  0  0  0  0  0  0  0  0
   -5.6218    5.9119  -15.8849 C   0  0  0  0  0  0  0  0  0  0  0  0
   -6.0816    5.7771  -14.5901 N   0  0  0  0  0  0  0  0  0  0  0  0
   -7.2414    5.1631  -14.2007 C   0  0  0  0  0  0  0  0  0  0  0  0
   -7.5350    4.9925  -12.5618 S   0  0  0  0  0  0  0  0  0  0  0  0
   -8.1128    4.7550  -15.1585 N   0  0  0  0  0  0  0  0  0  0  0  0
   -7.7221    4.8238  -16.3876 C   0  0  0  0  0  0  0  0  0  0  0  0
   -8.6707    4.3555  -17.4325 C   0  0  0  0  0  0  0  0  0  0  0  0
   -8.3109    4.3430  -18.7185 C   0  0  0  0  0  0  0  0  0  0  0  0
   -7.0151    4.7906  -19.1455 C   0  0  0  0  0  0  0  0  0  0  0  0
   -6.1436    5.3307  -18.2898 C   0  0  0  0  0  0  0  0  0  0  0  0
   -6.4039    5.3788  -16.8626 C   0  0  0  0  0  0  0  0  0  0  0  0
   -3.4027    7.7154  -12.7145 N   0  0  0  0  0  0  0  0  0  0  0  0
   -3.6407    6.5186  -12.9394 N   0  0  0  0  0  0  0  0  0  0  0  0
  1  2  1  0
  2  3  1  0
  3  4  1  0
  4  5  1  0
  5  6  2  0
  6  7  1  0
  7  8  2  0
  8  9  1  0
  9 10  2  0
 10 11  1  0
  4 12  1  0
 12 13  1  0
 13 14  1  0
 14 15  2  0
 14 16  1  0
 16 17  2  0
 17 18  1  0
 18 19  2  0
 19 20  1  0
 20 21  2  0
 21 22  1  0
  2 23  1  0
 23 24  2  0
 24  2  1  0
 10  5  1  0
 22 12  2  0
 22 17  1  0
M  END
>  <energy_score>  (5303) 
-47.868778

>  <alias>  (5303) 
BRUHSFZSKRXSQU-UHFFFAOYSA-N-P23-P23-P95-601533

>  <HIPPO Pose ID>  (5303) 
91626

>  <smiles>  (5303) 
CC1(CN(c2ccccc2Cl)c2[nH]c(=S)nc3ccccc23)N=N1

>  <inchikey>  (5303) 
BRUHSFZSKRXSQU-UHFFFAOYSA-N

>  <distance_score>  (5303) 
0.83714

>  <ref_mols>  (5303) 
Z1719a,Z0472a

>  <ref_pdb>  (5303) 
Z0101a

>  <HIPPO Compound ID>  (5303) 
138978

>  <name>  (5303) 
BRUHSFZSKRXSQU-UHFFFAOYSA-N-P23-P23-P95-601533

>  <inspiration_score>  (5303) 
None

$$$$
CFWDOCDVIHDVBR-UHFFFAOYSA-N-P23-P23-P95-601533
     RDKit          3D

 24 27  0  0  0  0  0  0  0  0999 V2000
   -4.7266    2.9025  -13.0310 C   0  0  0  0  0  0  0  0  0  0  0  0
   -3.6213    3.2600  -13.9741 C   0  0  0  0  0  0  0  0  0  0  0  0
   -3.4667    4.6963  -14.4533 C   0  0  0  0  0  0  0  0  0  0  0  0
   -4.1816    5.0326  -15.7193 N   0  0  0  0  0  0  0  0  0  0  0  0
   -3.6800    6.2670  -16.3572 C   0  0  0  0  0  0  0  0  0  0  0  0
   -2.8922    6.0150  -17.6317 C   0  0  0  0  0  0  0  0  0  0  0  0
   -2.4191    4.7534  -18.0096 C   0  0  0  0  0  0  0  0  0  0  0  0
   -1.7054    4.5746  -19.1999 C   0  0  0  0  0  0  0  0  0  0  0  0
   -1.4344    5.6628  -20.0233 C   0  0  0  0  0  0  0  0  0  0  0  0
   -1.8920    6.9265  -19.6635 C   0  0  0  0  0  0  0  0  0  0  0  0
   -2.6153    7.0986  -18.4799 C   0  0  0  0  0  0  0  0  0  0  0  0
   -5.5932    5.0384  -15.5880 C   0  0  0  0  0  0  0  0  0  0  0  0
   -6.0881    5.1556  -14.3461 N   0  0  0  0  0  0  0  0  0  0  0  0
   -7.4132    5.0561  -14.2185 C   0  0  0  0  0  0  0  0  0  0  0  0
   -8.0087    5.0935  -12.6228 Cl  0  0  0  0  0  0  0  0  0  0  0  0
   -8.3160    4.9186  -15.1797 N   0  0  0  0  0  0  0  0  0  0  0  0
   -7.8277    4.8116  -16.4100 C   0  0  0  0  0  0  0  0  0  0  0  0
   -8.7412    4.6077  -17.4314 C   0  0  0  0  0  0  0  0  0  0  0  0
   -8.3368    4.4947  -18.7559 C   0  0  0  0  0  0  0  0  0  0  0  0
   -6.9921    4.5871  -19.0738 C   0  0  0  0  0  0  0  0  0  0  0  0
   -6.0597    4.7621  -18.0590 C   0  0  0  0  0  0  0  0  0  0  0  0
   -6.4533    4.8840  -16.7049 C   0  0  0  0  0  0  0  0  0  0  0  0
   -2.3709    2.4950  -13.7905 N   0  0  0  0  0  0  0  0  0  0  0  0
   -3.0471    2.1798  -14.7812 N   0  0  0  0  0  0  0  0  0  0  0  0
  1  2  1  0
  2  3  1  0
  3  4  1  0
  4  5  1  0
  5  6  1  0
  6  7  2  0
  7  8  1  0
  8  9  2  0
  9 10  1  0
 10 11  2  0
  4 12  1  0
 12 13  2  0
 13 14  1  0
 14 15  1  0
 14 16  2  0
 16 17  1  0
 17 18  2  0
 18 19  1  0
 19 20  2  0
 20 21  1  0
 21 22  2  0
  2 23  1  0
 23 24  2  0
 24  2  1  0
 11  6  1  0
 22 12  1  0
 22 17  1  0
M  END
>  <energy_score>  (5304) 
-46.077233

>  <alias>  (5304) 
CFWDOCDVIHDVBR-UHFFFAOYSA-N-P23-P23-P95-601533

>  <HIPPO Pose ID>  (5304) 
91628

>  <smiles>  (5304) 
CC1(CN(Cc2ccccc2)c2nc(Cl)nc3ccccc23)N=N1

>  <inchikey>  (5304) 
CFWDOCDVIHDVBR-UHFFFAOYSA-N

>  <distance_score>  (5304) 
0.869489

>  <ref_mols>  (5304) 
Z1719a,Z0472a

>  <ref_pdb>  (5304) 
Z0101a

>  <HIPPO Compound ID>  (5304) 
138979

>  <name>  (5304) 
CFWDOCDVIHDVBR-UHFFFAOYSA-N-P23-P23-P95-601533

>  <inspiration_score>  (5304) 
None

$$$$
HNCACCDAGDXNFW-UHFFFAOYSA-N-P23-P23-P95-601533
     RDKit          3D

 24 26  0  0  0  0  0  0  0  0999 V2000
   -4.8284    8.2018  -13.0010 C   0  0  0  0  0  0  0  0  0  0  0  0
   -4.2993    7.9213  -14.3678 C   0  0  0  0  0  0  0  0  0  0  0  0
   -3.6714    6.5654  -14.6186 C   0  0  0  0  0  0  0  0  0  0  0  0
   -4.2024    5.9107  -15.8470 N   0  0  0  0  0  0  0  0  0  0  0  0
   -3.2788    4.8895  -16.4227 C   0  0  0  0  0  0  0  0  0  0  0  0
   -2.4740    5.5262  -17.5617 C   0  0  0  0  0  0  0  0  0  0  0  0
   -1.6415    4.9444  -18.2410 O   0  0  0  0  0  0  0  0  0  0  0  0
   -2.7975    6.8300  -17.7659 O   0  0  0  0  0  0  0  0  0  0  0  0
   -5.5300    5.4278  -15.6987 C   0  0  0  0  0  0  0  0  0  0  0  0
   -6.0145    5.3275  -14.4474 N   0  0  0  0  0  0  0  0  0  0  0  0
   -7.2931    4.9099  -14.2795 C   0  0  0  0  0  0  0  0  0  0  0  0
   -7.8735    4.8283  -12.8688 C   0  0  0  0  0  0  0  0  0  0  0  0
   -8.0219    3.5602  -12.4020 F   0  0  0  0  0  0  0  0  0  0  0  0
   -7.1160    5.4869  -11.9377 F   0  0  0  0  0  0  0  0  0  0  0  0
   -9.1048    5.4193  -12.7849 F   0  0  0  0  0  0  0  0  0  0  0  0
   -8.1187    4.6194  -15.2977 N   0  0  0  0  0  0  0  0  0  0  0  0
   -7.6412    4.7076  -16.5310 C   0  0  0  0  0  0  0  0  0  0  0  0
   -8.5094    4.3825  -17.5567 C   0  0  0  0  0  0  0  0  0  0  0  0
   -8.1015    4.4239  -18.8820 C   0  0  0  0  0  0  0  0  0  0  0  0
   -6.8169    4.8420  -19.1938 C   0  0  0  0  0  0  0  0  0  0  0  0
   -5.9485    5.2191  -18.1795 C   0  0  0  0  0  0  0  0  0  0  0  0
   -6.3327    5.1218  -16.8205 C   0  0  0  0  0  0  0  0  0  0  0  0
   -3.7158    9.0586  -15.1051 N   0  0  0  0  0  0  0  0  0  0  0  0
   -4.8322    8.6960  -15.5010 N   0  0  0  0  0  0  0  0  0  0  0  0
  1  2  1  0
  2  3  1  0
  3  4  1  0
  4  5  1  0
  5  6  1  0
  6  7  2  0
  6  8  1  0
  4  9  1  0
  9 10  2  0
 10 11  1  0
 11 12  1  0
 12 13  1  0
 12 14  1  0
 12 15  1  0
 11 16  2  0
 16 17  1  0
 17 18  2  0
 18 19  1  0
 19 20  2  0
 20 21  1  0
 21 22  2  0
  2 23  1  0
 23 24  2  0
 24  2  1  0
 22  9  1  0
 22 17  1  0
M  END
>  <energy_score>  (5305) 
-76.11134

>  <alias>  (5305) 
HNCACCDAGDXNFW-UHFFFAOYSA-N-P23-P23-P95-601533

>  <HIPPO Pose ID>  (5305) 
91630

>  <smiles>  (5305) 
CC1(CN(CC(=O)O)c2nc(C(F)(F)F)nc3ccccc23)N=N1

>  <inchikey>  (5305) 
HNCACCDAGDXNFW-UHFFFAOYSA-N

>  <distance_score>  (5305) 
0.612944

>  <ref_mols>  (5305) 
Z1719a,Z0472a

>  <ref_pdb>  (5305) 
Z0101a

>  <HIPPO Compound ID>  (5305) 
138980

>  <name>  (5305) 
HNCACCDAGDXNFW-UHFFFAOYSA-N-P23-P23-P95-601533

>  <inspiration_score>  (5305) 
None

$$$$
ZYXQALLGCXQQIU-UHFFFAOYSA-N-P34-P34-P48-601533
     RDKit          3D

 26 29  0  0  0  0  0  0  0  0999 V2000
   -6.2936    4.3945  -20.2373 C   0  0  0  0  0  0  0  0  0  0  0  0
   -6.2403    4.7405  -18.7901 C   0  0  0  0  0  0  0  0  0  0  0  0
   -7.4359    4.5993  -18.0474 C   0  0  0  0  0  0  0  0  0  0  0  0
   -7.4576    4.8247  -16.6739 C   0  0  0  0  0  0  0  0  0  0  0  0
   -8.7359    4.5769  -15.8966 C   0  0  0  0  0  0  0  0  0  0  0  0
   -9.3522    5.7407  -15.5377 F   0  0  0  0  0  0  0  0  0  0  0  0
   -8.5159    3.9240  -14.7221 F   0  0  0  0  0  0  0  0  0  0  0  0
   -9.6473    3.8409  -16.5892 F   0  0  0  0  0  0  0  0  0  0  0  0
   -6.3742    5.2535  -15.9833 N   0  0  0  0  0  0  0  0  0  0  0  0
   -5.2671    5.3714  -16.7310 C   0  0  0  0  0  0  0  0  0  0  0  0
   -4.0655    5.7294  -16.2254 N   0  0  0  0  0  0  0  0  0  0  0  0
   -3.0952    5.8057  -17.1359 N   0  0  0  0  0  0  0  0  0  0  0  0
   -3.6892    5.4789  -18.2958 C   0  0  0  0  0  0  0  0  0  0  0  0
   -2.8051    5.5761  -19.3410 N   0  0  0  0  0  0  0  0  0  0  0  0
   -2.9551    5.1708  -20.8246 C   0  0  0  0  0  0  0  0  0  0  0  0
   -3.8811    4.7613  -21.4081 O   0  0  0  0  0  0  0  0  0  0  0  0
   -1.5833    5.4374  -21.5227 C   0  0  2  0  0  0  0  0  0  0  0  0
   -1.2413    6.9152  -21.8604 C   0  0  0  0  0  0  0  0  0  0  0  0
   -0.5982    6.4141  -23.1702 C   0  0  2  0  0  0  0  0  0  0  0  0
    0.9133    6.2261  -23.2198 C   0  0  0  0  0  0  0  0  0  0  0  0
    1.2597    6.3316  -24.7100 C   0  0  0  0  0  0  0  0  0  0  0  0
    0.1780    7.2220  -25.2657 C   0  0  0  0  0  0  0  0  0  0  0  0
    0.1845    7.8046  -26.3344 O   0  0  0  0  0  0  0  0  0  0  0  0
   -0.8587    7.2216  -24.3584 N   0  0  0  0  0  0  0  0  0  0  0  0
   -1.4875    5.1551  -23.0517 C   0  0  0  0  0  0  0  0  0  0  0  0
   -5.0819    5.1584  -18.0959 C   0  0  0  0  0  0  0  0  0  0  0  0
  1  2  1  0
  2  3  2  0
  3  4  1  0
  4  5  1  0
  5  6  1  0
  5  7  1  0
  5  8  1  0
  4  9  2  0
  9 10  1  0
 10 11  1  0
 11 12  1  0
 12 13  2  0
 13 14  1  0
 14 15  1  0
 15 16  2  0
 17 15  1  6
 17 18  1  0
 19 18  1  1
 19 20  1  0
 20 21  1  0
 21 22  1  0
 22 23  2  0
 22 24  1  0
 19 25  1  0
 13 26  1  0
 26  2  1  0
 26 10  2  0
 25 17  1  0
 24 19  1  0
M  END
>  <energy_score>  (5306) 
-53.94322

>  <alias>  (5306) 
ZYXQALLGCXQQIU-UHFFFAOYSA-N-P34-P34-P48-601533

>  <HIPPO Pose ID>  (5306) 
91640

>  <smiles>  (5306) 
Cc1cc(C(F)(F)F)nc2[nH]nc(NC(=O)C3CC4(CCC(=O)N4)C3)c12

>  <inchikey>  (5306) 
ZYXQALLGCXQQIU-UHFFFAOYSA-N

>  <distance_score>  (5306) 
0.9609

>  <ref_mols>  (5306) 
Z0827a,Z0709a

>  <ref_pdb>  (5306) 
Z0101a

>  <HIPPO Compound ID>  (5306) 
145347

>  <name>  (5306) 
ZYXQALLGCXQQIU-UHFFFAOYSA-N-P34-P34-P48-601533

>  <inspiration_score>  (5306) 
None

$$$$
FVZSVLGEJTVFLW-UHFFFAOYSA-N-P34-P34-P48-601533
     RDKit          3D

 32 35  0  0  0  0  0  0  0  0999 V2000
   -6.3333    4.3807  -20.2369 C   0  0  0  0  0  0  0  0  0  0  0  0
   -6.2605    4.7315  -18.7920 C   0  0  0  0  0  0  0  0  0  0  0  0
   -7.4348    4.5574  -18.0246 C   0  0  0  0  0  0  0  0  0  0  0  0
   -7.4387    4.8005  -16.6541 C   0  0  0  0  0  0  0  0  0  0  0  0
   -8.7039    4.5437  -15.8579 C   0  0  0  0  0  0  0  0  0  0  0  0
   -9.3252    5.7030  -15.4907 F   0  0  0  0  0  0  0  0  0  0  0  0
   -9.6213    3.8025  -16.5377 F   0  0  0  0  0  0  0  0  0  0  0  0
   -8.4619    3.8919  -14.6871 F   0  0  0  0  0  0  0  0  0  0  0  0
   -6.3536    5.2624  -15.9863 N   0  0  0  0  0  0  0  0  0  0  0  0
   -5.2689    5.4212  -16.7602 C   0  0  0  0  0  0  0  0  0  0  0  0
   -4.0769    5.8564  -16.2925 N   0  0  0  0  0  0  0  0  0  0  0  0
   -3.1489    6.0186  -17.2364 N   0  0  0  0  0  0  0  0  0  0  0  0
   -3.7473    5.6229  -18.3725 C   0  0  0  0  0  0  0  0  0  0  0  0
   -2.9351    5.8037  -19.4636 N   0  0  0  0  0  0  0  0  0  0  0  0
   -3.0996    5.3364  -20.9237 C   0  0  0  0  0  0  0  0  0  0  0  0
   -3.9116    4.6594  -21.4132 O   0  0  0  0  0  0  0  0  0  0  0  0
   -2.0243    5.9473  -21.7689 C   0  0  0  0  0  0  0  0  0  0  0  0
   -1.5012    7.1718  -21.6185 C   0  0  0  0  0  0  0  0  0  0  0  0
   -0.5514    7.6952  -22.6779 C   0  0  1  0  0  0  0  0  0  0  0  0
    0.8873    7.2429  -22.5371 C   0  0  0  0  0  0  0  0  0  0  0  0
    0.8180    6.0262  -23.3895 C   0  0  0  0  0  0  0  0  0  0  0  0
   -0.6386    6.1080  -23.8368 C   0  0  1  0  0  0  0  0  0  0  0  0
   -1.6471    5.2397  -23.0270 C   0  0  0  0  0  0  0  0  0  0  0  0
   -1.0523    7.5656  -24.1031 N   0  0  0  0  0  0  0  0  0  0  0  0
   -2.4397    7.6428  -24.6607 C   0  0  0  0  0  0  0  0  0  0  0  0
   -3.4720    7.7426  -24.1151 O   0  0  0  0  0  0  0  0  0  0  0  0
   -2.3023    7.5225  -26.0105 O   0  0  0  0  0  0  0  0  0  0  0  0
   -3.4625    7.4811  -26.8812 C   0  0  0  0  0  0  0  0  0  0  0  0
   -4.2605    8.7877  -26.8148 C   0  0  0  0  0  0  0  0  0  0  0  0
   -2.8812    7.3325  -28.2955 C   0  0  0  0  0  0  0  0  0  0  0  0
   -4.3366    6.2577  -26.5818 C   0  0  0  0  0  0  0  0  0  0  0  0
   -5.1064    5.2027  -18.1269 C   0  0  0  0  0  0  0  0  0  0  0  0
  1  2  1  0
  2  3  2  0
  3  4  1  0
  4  5  1  0
  5  6  1  0
  5  7  1  0
  5  8  1  0
  4  9  2  0
  9 10  1  0
 10 11  1  0
 11 12  1  0
 12 13  2  0
 13 14  1  0
 14 15  1  0
 15 16  2  0
 15 17  1  0
 17 18  2  0
 18 19  1  0
 19 20  1  6
 20 21  1  0
 22 21  1  1
 22 23  1  0
 22 24  1  0
 24 25  1  0
 25 26  2  0
 25 27  1  0
 27 28  1  0
 28 29  1  0
 28 30  1  0
 28 31  1  0
 13 32  1  0
 32  2  1  0
 32 10  2  0
 23 17  1  0
 24 19  1  0
M  END
>  <energy_score>  (5307) 
-1.846611

>  <alias>  (5307) 
FVZSVLGEJTVFLW-UHFFFAOYSA-N-P34-P34-P48-601533

>  <HIPPO Pose ID>  (5307) 
91670

>  <smiles>  (5307) 
Cc1cc(C(F)(F)F)nc2[nH]nc(NC(=O)C3=CC4CCC(C3)N4C(=O)OC(C)(C)C)c12

>  <inchikey>  (5307) 
FVZSVLGEJTVFLW-UHFFFAOYSA-N

>  <distance_score>  (5307) 
0.963851

>  <ref_mols>  (5307) 
Z0827a,Z0709a

>  <ref_pdb>  (5307) 
Z0101a

>  <HIPPO Compound ID>  (5307) 
145362

>  <name>  (5307) 
FVZSVLGEJTVFLW-UHFFFAOYSA-N-P34-P34-P48-601533

>  <inspiration_score>  (5307) 
None

$$$$
JYRBZOQFRCNYRV-UHFFFAOYSA-N-P34-P34-P48-601533
     RDKit          3D

 32 35  0  0  0  0  0  0  0  0999 V2000
   -5.9743    4.6097  -20.2061 C   0  0  0  0  0  0  0  0  0  0  0  0
   -5.9947    4.9941  -18.7620 C   0  0  0  0  0  0  0  0  0  0  0  0
   -7.1420    4.6221  -18.0198 C   0  0  0  0  0  0  0  0  0  0  0  0
   -7.2626    4.9280  -16.6668 C   0  0  0  0  0  0  0  0  0  0  0  0
   -8.4871    4.4608  -15.8901 C   0  0  0  0  0  0  0  0  0  0  0  0
   -9.2111    5.5088  -15.3915 F   0  0  0  0  0  0  0  0  0  0  0  0
   -9.3595    3.7063  -16.6167 F   0  0  0  0  0  0  0  0  0  0  0  0
   -8.1527    3.7140  -14.8034 F   0  0  0  0  0  0  0  0  0  0  0  0
   -6.3232    5.6385  -15.9933 N   0  0  0  0  0  0  0  0  0  0  0  0
   -5.2512    5.9647  -16.7334 C   0  0  0  0  0  0  0  0  0  0  0  0
   -4.2006    6.6678  -16.2507 N   0  0  0  0  0  0  0  0  0  0  0  0
   -3.2648    6.9346  -17.1592 N   0  0  0  0  0  0  0  0  0  0  0  0
   -3.6855    6.3107  -18.2735 C   0  0  0  0  0  0  0  0  0  0  0  0
   -2.7909    6.4571  -19.3016 N   0  0  0  0  0  0  0  0  0  0  0  0
   -2.7516    5.8716  -20.6067 C   0  0  0  0  0  0  0  0  0  0  0  0
   -3.4483    5.0397  -21.1135 O   0  0  0  0  0  0  0  0  0  0  0  0
   -1.5952    6.4588  -21.4513 C   0  0  2  0  0  0  0  0  0  0  0  0
   -0.1940    6.1344  -20.8712 C   0  0  0  0  0  0  0  0  0  0  0  0
    0.7221    7.3404  -20.6012 C   0  0  1  0  0  0  0  0  0  0  0  0
    0.5694    8.4090  -21.6028 C   0  0  0  0  0  0  0  0  0  0  0  0
   -0.7913    8.8516  -21.0838 C   0  0  1  0  0  0  0  0  0  0  0  0
   -1.8339    7.9463  -21.7840 C   0  0  0  0  0  0  0  0  0  0  0  0
   -1.1483    8.7499  -19.5704 N   0  0  0  0  0  0  0  0  0  0  0  0
   -1.7142    9.9650  -19.1244 C   0  0  0  0  0  0  0  0  0  0  0  0
   -1.1998   10.9355  -18.6487 O   0  0  0  0  0  0  0  0  0  0  0  0
   -3.0550    9.8459  -19.3274 O   0  0  0  0  0  0  0  0  0  0  0  0
   -3.9879   10.8620  -18.8874 C   0  0  0  0  0  0  0  0  0  0  0  0
   -3.7662   12.1799  -19.6355 C   0  0  0  0  0  0  0  0  0  0  0  0
   -5.3701   10.3055  -19.2664 C   0  0  0  0  0  0  0  0  0  0  0  0
   -3.9383   11.0463  -17.3670 C   0  0  0  0  0  0  0  0  0  0  0  0
    0.2467    8.2414  -19.4905 C   0  0  0  0  0  0  0  0  0  0  0  0
   -4.9742    5.6940  -18.0732 C   0  0  0  0  0  0  0  0  0  0  0  0
  1  2  1  0
  2  3  2  0
  3  4  1  0
  4  5  1  0
  5  6  1  0
  5  7  1  0
  5  8  1  0
  4  9  2  0
  9 10  1  0
 10 11  1  0
 11 12  1  0
 12 13  2  0
 13 14  1  0
 14 15  1  0
 15 16  2  0
 17 15  1  1
 17 18  1  0
 19 18  1  6
 19 20  1  0
 20 21  1  0
 21 22  1  6
 21 23  1  0
 23 24  1  0
 24 25  2  0
 24 26  1  0
 26 27  1  0
 27 28  1  0
 27 29  1  0
 27 30  1  0
 23 31  1  0
 13 32  1  0
 32  2  1  0
 32 10  2  0
 22 17  1  0
 31 19  1  0
M  END
>  <energy_score>  (5308) 
-5.73377

>  <alias>  (5308) 
JYRBZOQFRCNYRV-UHFFFAOYSA-N-P34-P34-P48-601533

>  <HIPPO Pose ID>  (5308) 
91678

>  <smiles>  (5308) 
Cc1cc(C(F)(F)F)nc2[nH]nc(NC(=O)C3CC4CC(C3)N(C(=O)OC(C)(C)C)C4)c12

>  <inchikey>  (5308) 
JYRBZOQFRCNYRV-UHFFFAOYSA-N

>  <distance_score>  (5308) 
1.480723

>  <ref_mols>  (5308) 
Z0827a,Z0709a

>  <ref_pdb>  (5308) 
Z0101a

>  <HIPPO Compound ID>  (5308) 
145366

>  <name>  (5308) 
JYRBZOQFRCNYRV-UHFFFAOYSA-N-P34-P34-P48-601533

>  <inspiration_score>  (5308) 
None

$$$$
ADBBOGGISJBTID-UHFFFAOYSA-N-P86-P50-P86-601533
     RDKit          3D

 18 20  0  0  0  0  0  0  0  0999 V2000
   -6.0520    5.0864  -13.9419 C   0  0  0  0  0  0  0  0  0  0  0  0
   -6.6839    4.8859  -15.2803 C   0  0  0  0  0  0  0  0  0  0  0  0
   -6.0086    5.1942  -16.4752 C   0  0  0  0  0  0  0  0  0  0  0  0
   -6.6179    5.0554  -17.7306 C   0  0  0  0  0  0  0  0  0  0  0  0
   -5.9540    5.3266  -18.9199 N   0  0  0  0  0  0  0  0  0  0  0  0
   -4.4610    5.6812  -19.1860 C   0  0  0  0  0  0  0  0  0  0  0  0
   -3.5831    5.8739  -18.4378 O   0  0  0  0  0  0  0  0  0  0  0  0
   -4.2920    5.8050  -20.6911 C   0  0  0  0  0  0  0  0  0  0  0  0
   -4.5029    7.2531  -21.0954 C   0  0  0  0  0  0  0  0  0  0  0  0
   -4.2203    7.4910  -22.5466 C   0  0  0  0  0  0  0  0  0  0  0  0
   -4.7738    8.7286  -23.2102 C   0  0  0  0  0  0  0  0  0  0  0  0
   -5.2922    7.3718  -23.5940 C   0  0  0  0  0  0  0  0  0  0  0  0
   -7.9434    4.6344  -17.7230 C   0  0  0  0  0  0  0  0  0  0  0  0
   -8.9017    4.5042  -18.6961 N   0  0  0  0  0  0  0  0  0  0  0  0
  -10.0805    4.2580  -18.0597 C   0  0  0  0  0  0  0  0  0  0  0  0
   -9.9009    3.9589  -16.8037 N   0  0  0  0  0  0  0  0  0  0  0  0
   -8.6140    4.2948  -16.5526 C   0  0  0  0  0  0  0  0  0  0  0  0
   -7.9892    4.4022  -15.3155 C   0  0  0  0  0  0  0  0  0  0  0  0
  1  2  1  0
  2  3  2  0
  3  4  1  0
  4  5  1  0
  5  6  1  0
  6  7  2  0
  6  8  1  0
  8  9  1  0
  9 10  1  0
 10 11  1  0
 11 12  1  0
  4 13  2  0
 13 14  1  0
 14 15  1  0
 15 16  2  0
 16 17  1  0
 17 18  2  0
 18  2  1  0
 12 10  1  0
 17 13  1  0
M  END
>  <energy_score>  (5309) 
-3.793472

>  <alias>  (5309) 
ADBBOGGISJBTID-UHFFFAOYSA-N-P86-P50-P86-601533

>  <HIPPO Pose ID>  (5309) 
91693

>  <smiles>  (5309) 
Cc1cc(NC(=O)CCC2CC2)c2[nH]cnc2c1

>  <inchikey>  (5309) 
ADBBOGGISJBTID-UHFFFAOYSA-N

>  <distance_score>  (5309) 
1.271211

>  <ref_mols>  (5309) 
Z0846a,Z1597a

>  <ref_pdb>  (5309) 
Z0101a

>  <HIPPO Compound ID>  (5309) 
136708

>  <name>  (5309) 
ADBBOGGISJBTID-UHFFFAOYSA-N-P86-P50-P86-601533

>  <inspiration_score>  (5309) 
None

$$$$
XOWHQAOCTKFAFG-UHFFFAOYSA-N-P86-P50-P86-601533
     RDKit          3D

 18 20  0  0  0  0  0  0  0  0999 V2000
   -5.7601    5.4377  -14.1416 C   0  0  0  0  0  0  0  0  0  0  0  0
   -6.4678    5.1492  -15.4246 C   0  0  0  0  0  0  0  0  0  0  0  0
   -5.9638    5.5786  -16.6689 C   0  0  0  0  0  0  0  0  0  0  0  0
   -6.6618    5.3622  -17.8645 C   0  0  0  0  0  0  0  0  0  0  0  0
   -6.2096    5.7928  -19.1093 N   0  0  0  0  0  0  0  0  0  0  0  0
   -4.9565    6.6455  -19.4944 C   0  0  0  0  0  0  0  0  0  0  0  0
   -4.1633    7.1759  -18.8168 O   0  0  0  0  0  0  0  0  0  0  0  0
   -4.9308    6.6663  -21.0176 C   0  0  0  0  0  0  0  0  0  0  0  0
   -4.0960    7.7628  -21.6600 C   0  0  0  0  0  0  0  0  0  0  0  0
   -4.3896    7.9367  -23.1786 C   0  0  0  0  0  0  0  0  0  0  0  0
   -4.2333    9.4534  -22.9750 C   0  0  0  0  0  0  0  0  0  0  0  0
   -4.5762    9.2306  -21.4908 C   0  0  0  0  0  0  0  0  0  0  0  0
   -7.8965    4.7232  -17.7409 C   0  0  0  0  0  0  0  0  0  0  0  0
   -8.9188    4.4669  -18.6219 N   0  0  0  0  0  0  0  0  0  0  0  0
   -9.9897    4.0614  -17.8842 C   0  0  0  0  0  0  0  0  0  0  0  0
   -9.6619    3.8033  -16.6479 N   0  0  0  0  0  0  0  0  0  0  0  0
   -8.4069    4.2968  -16.5190 C   0  0  0  0  0  0  0  0  0  0  0  0
   -7.6891    4.4841  -15.3453 C   0  0  0  0  0  0  0  0  0  0  0  0
  1  2  1  0
  2  3  2  0
  3  4  1  0
  4  5  1  0
  5  6  1  0
  6  7  2  0
  6  8  1  0
  8  9  1  0
  9 10  1  0
 10 11  1  0
 11 12  1  0
  4 13  2  0
 13 14  1  0
 14 15  1  0
 15 16  2  0
 16 17  1  0
 17 18  2  0
 18  2  1  0
 12  9  1  0
 17 13  1  0
M  END
>  <energy_score>  (5310) 
-17.720219

>  <alias>  (5310) 
XOWHQAOCTKFAFG-UHFFFAOYSA-N-P86-P50-P86-601533

>  <HIPPO Pose ID>  (5310) 
91703

>  <smiles>  (5310) 
Cc1cc(NC(=O)CC2CCC2)c2[nH]cnc2c1

>  <inchikey>  (5310) 
XOWHQAOCTKFAFG-UHFFFAOYSA-N

>  <distance_score>  (5310) 
1.71053

>  <ref_mols>  (5310) 
Z0846a,Z1597a

>  <ref_pdb>  (5310) 
Z0101a

>  <HIPPO Compound ID>  (5310) 
136713

>  <name>  (5310) 
XOWHQAOCTKFAFG-UHFFFAOYSA-N-P86-P50-P86-601533

>  <inspiration_score>  (5310) 
None

$$$$
LSJJMWRUFNQSRH-UHFFFAOYSA-N-P86-P50-P86-601533
     RDKit          3D

 19 20  0  0  0  0  0  0  0  0999 V2000
   -3.8838    6.7277  -19.0417 O   0  0  0  0  0  0  0  0  0  0  0  0
   -4.6482    6.0854  -19.6477 C   0  0  0  0  0  0  0  0  0  0  0  0
   -4.4842    5.6362  -21.1079 C   0  0  0  0  0  0  0  0  0  0  0  0
   -3.4536    6.3852  -21.9473 C   0  0  0  0  0  0  0  0  0  0  0  0
   -3.9872    6.9338  -23.2949 C   0  0  0  0  0  0  0  0  0  0  0  0
   -5.2162    7.8303  -23.2769 C   0  0  0  0  0  0  0  0  0  0  0  0
   -5.4005    8.6928  -22.0485 C   0  0  0  0  0  0  0  0  0  0  0  0
   -3.8162    9.9915  -21.6144 I   0  0  0  0  0  0  0  0  0  0  0  0
   -5.9735    5.4021  -19.1966 N   0  0  0  0  0  0  0  0  0  0  0  0
   -6.5504    5.2974  -17.9384 C   0  0  0  0  0  0  0  0  0  0  0  0
   -6.0159    5.7836  -16.7456 C   0  0  0  0  0  0  0  0  0  0  0  0
   -6.6563    5.5194  -15.5209 C   0  0  0  0  0  0  0  0  0  0  0  0
   -5.9569    6.1644  -13.8974 Br  0  0  0  0  0  0  0  0  0  0  0  0
   -7.8189    4.7646  -15.4255 C   0  0  0  0  0  0  0  0  0  0  0  0
   -8.3279    4.2632  -16.6083 C   0  0  0  0  0  0  0  0  0  0  0  0
   -9.3762    3.4268  -16.7689 N   0  0  0  0  0  0  0  0  0  0  0  0
   -9.3716    3.1501  -18.0425 C   0  0  0  0  0  0  0  0  0  0  0  0
   -8.5017    3.9114  -18.7419 N   0  0  0  0  0  0  0  0  0  0  0  0
   -7.7207    4.5549  -17.8227 C   0  0  0  0  0  0  0  0  0  0  0  0
  1  2  2  0
  2  3  1  0
  3  4  1  0
  4  5  1  0
  5  6  1  0
  6  7  1  0
  7  8  1  0
  2  9  1  0
  9 10  1  0
 10 11  2  0
 11 12  1  0
 12 13  1  0
 12 14  2  0
 14 15  1  0
 15 16  1  0
 16 17  2  0
 17 18  1  0
 18 19  1  0
 19 10  1  0
 19 15  2  0
M  END
>  <energy_score>  (5311) 
-4.188299

>  <alias>  (5311) 
LSJJMWRUFNQSRH-UHFFFAOYSA-N-P86-P50-P86-601533

>  <HIPPO Pose ID>  (5311) 
91709

>  <smiles>  (5311) 
O=C(CCCCCI)Nc1cc(Br)cc2nc[nH]c12

>  <inchikey>  (5311) 
LSJJMWRUFNQSRH-UHFFFAOYSA-N

>  <distance_score>  (5311) 
1.599468

>  <ref_mols>  (5311) 
Z0846a,Z1597a

>  <ref_pdb>  (5311) 
Z0101a

>  <HIPPO Compound ID>  (5311) 
136716

>  <name>  (5311) 
LSJJMWRUFNQSRH-UHFFFAOYSA-N-P86-P50-P86-601533

>  <inspiration_score>  (5311) 
None

$$$$
PSCPOQAOTZVTEO-UHFFFAOYSA-N-P86-P50-P86-601533
     RDKit          3D

 19 20  0  0  0  0  0  0  0  0999 V2000
   -4.2352    5.5879  -16.2832 C   0  0  0  0  0  0  0  0  0  0  0  0
   -5.6690    5.2190  -16.5453 C   0  0  0  0  0  0  0  0  0  0  0  0
   -6.4453    4.9508  -15.3891 C   0  0  0  0  0  0  0  0  0  0  0  0
   -7.7647    4.5141  -15.4548 C   0  0  0  0  0  0  0  0  0  0  0  0
   -8.3346    4.4067  -16.7141 C   0  0  0  0  0  0  0  0  0  0  0  0
   -9.6306    4.1156  -17.0178 N   0  0  0  0  0  0  0  0  0  0  0  0
   -9.7266    4.3591  -18.2964 C   0  0  0  0  0  0  0  0  0  0  0  0
   -8.5057    4.5516  -18.8671 N   0  0  0  0  0  0  0  0  0  0  0  0
   -7.5849    4.6915  -17.8533 C   0  0  0  0  0  0  0  0  0  0  0  0
   -6.2288    5.0818  -17.8364 C   0  0  0  0  0  0  0  0  0  0  0  0
   -5.5898    5.2319  -19.0852 N   0  0  0  0  0  0  0  0  0  0  0  0
   -4.2282    5.9115  -19.4553 C   0  0  0  0  0  0  0  0  0  0  0  0
   -3.4005    6.3784  -18.7677 O   0  0  0  0  0  0  0  0  0  0  0  0
   -4.0028    5.8068  -20.9782 C   0  0  0  0  0  0  0  0  0  0  0  0
   -5.2202    6.0952  -21.8530 C   0  0  0  0  0  0  0  0  0  0  0  0
   -5.0043    6.6517  -23.2670 C   0  0  0  0  0  0  0  0  0  0  0  0
   -4.4121    8.0486  -23.3544 C   0  0  0  0  0  0  0  0  0  0  0  0
   -5.2309    9.1038  -22.6382 C   0  0  0  0  0  0  0  0  0  0  0  0
   -4.5688    9.4588  -20.6507 I   0  0  0  0  0  0  0  0  0  0  0  0
  1  2  1  0
  2  3  2  0
  3  4  1  0
  4  5  2  0
  5  6  1  0
  6  7  2  0
  7  8  1  0
  8  9  1  0
  9 10  2  0
 10 11  1  0
 11 12  1  0
 12 13  2  0
 12 14  1  0
 14 15  1  0
 15 16  1  0
 16 17  1  0
 17 18  1  0
 18 19  1  0
 10  2  1  0
  9  5  1  0
M  END
>  <energy_score>  (5312) 
-3.086137

>  <alias>  (5312) 
PSCPOQAOTZVTEO-UHFFFAOYSA-N-P86-P50-P86-601533

>  <HIPPO Pose ID>  (5312) 
91711

>  <smiles>  (5312) 
Cc1ccc2nc[nH]c2c1NC(=O)CCCCCI

>  <inchikey>  (5312) 
PSCPOQAOTZVTEO-UHFFFAOYSA-N

>  <distance_score>  (5312) 
1.783195

>  <ref_mols>  (5312) 
Z0846a,Z1597a

>  <ref_pdb>  (5312) 
Z0101a

>  <HIPPO Compound ID>  (5312) 
136717

>  <name>  (5312) 
PSCPOQAOTZVTEO-UHFFFAOYSA-N-P86-P50-P86-601533

>  <inspiration_score>  (5312) 
None

$$$$
CAXAZFJOEXXVAL-UHFFFAOYSA-N-P50-P50-P86-601533
     RDKit          3D

 19 20  0  0  0  0  0  0  0  0999 V2000
   -5.9931    5.0192  -13.9045 C   0  0  0  0  0  0  0  0  0  0  0  0
   -6.6479    4.8403  -15.2349 C   0  0  0  0  0  0  0  0  0  0  0  0
   -5.9968    5.1902  -16.4322 C   0  0  0  0  0  0  0  0  0  0  0  0
   -6.6296    5.0801  -17.6764 C   0  0  0  0  0  0  0  0  0  0  0  0
   -5.9916    5.3638  -18.8785 N   0  0  0  0  0  0  0  0  0  0  0  0
   -4.5620    5.9250  -19.1593 C   0  0  0  0  0  0  0  0  0  0  0  0
   -3.7366    6.3048  -18.4189 O   0  0  0  0  0  0  0  0  0  0  0  0
   -4.2718    5.8238  -20.6710 C   0  0  0  0  0  0  0  0  0  0  0  0
   -5.4368    6.1320  -21.6153 C   0  0  0  0  0  0  0  0  0  0  0  0
   -5.1333    6.5990  -23.0484 C   0  0  0  0  0  0  0  0  0  0  0  0
   -5.1939    8.1058  -23.2541 C   0  0  0  0  0  0  0  0  0  0  0  0
   -4.0539    8.8321  -22.5628 C   0  0  0  0  0  0  0  0  0  0  0  0
   -4.5434    9.4859  -20.6043 I   0  0  0  0  0  0  0  0  0  0  0  0
   -7.9614    4.6654  -17.6524 C   0  0  0  0  0  0  0  0  0  0  0  0
   -8.9402    4.5669  -18.6101 N   0  0  0  0  0  0  0  0  0  0  0  0
  -10.1064    4.2762  -17.9665 C   0  0  0  0  0  0  0  0  0  0  0  0
   -9.9114    3.9767  -16.7113 N   0  0  0  0  0  0  0  0  0  0  0  0
   -8.6153    4.3042  -16.4787 C   0  0  0  0  0  0  0  0  0  0  0  0
   -7.9574    4.3633  -15.2550 C   0  0  0  0  0  0  0  0  0  0  0  0
  1  2  1  0
  2  3  2  0
  3  4  1  0
  4  5  1  0
  5  6  1  0
  6  7  2  0
  6  8  1  0
  8  9  1  0
  9 10  1  0
 10 11  1  0
 11 12  1  0
 12 13  1  0
  4 14  2  0
 14 15  1  0
 15 16  1  0
 16 17  2  0
 17 18  1  0
 18 19  2  0
 19  2  1  0
 18 14  1  0
M  END
>  <energy_score>  (5313) 
-17.053722

>  <alias>  (5313) 
CAXAZFJOEXXVAL-UHFFFAOYSA-N-P50-P50-P86-601533

>  <HIPPO Pose ID>  (5313) 
91714

>  <smiles>  (5313) 
Cc1cc(NC(=O)CCCCCI)c2[nH]cnc2c1

>  <inchikey>  (5313) 
CAXAZFJOEXXVAL-UHFFFAOYSA-N

>  <distance_score>  (5313) 
1.391868

>  <ref_mols>  (5313) 
Z0846a,Z1597a

>  <ref_pdb>  (5313) 
Z0101a

>  <HIPPO Compound ID>  (5313) 
136719

>  <name>  (5313) 
CAXAZFJOEXXVAL-UHFFFAOYSA-N-P50-P50-P86-601533

>  <inspiration_score>  (5313) 
None

$$$$
AGUBERUTAHLOKR-UHFFFAOYSA-N-P50-P50-P86-601533
     RDKit          3D

 19 21  0  0  0  0  0  0  0  0999 V2000
   -6.0074    4.7439  -14.0290 C   0  0  0  0  0  0  0  0  0  0  0  0
   -6.7214    4.7046  -15.3402 C   0  0  0  0  0  0  0  0  0  0  0  0
   -6.0909    5.0836  -16.5377 C   0  0  0  0  0  0  0  0  0  0  0  0
   -6.7718    5.0916  -17.7626 C   0  0  0  0  0  0  0  0  0  0  0  0
   -6.1680    5.5005  -18.9452 N   0  0  0  0  0  0  0  0  0  0  0  0
   -4.6643    5.7541  -19.2801 C   0  0  0  0  0  0  0  0  0  0  0  0
   -3.7193    5.7309  -18.5895 O   0  0  0  0  0  0  0  0  0  0  0  0
   -4.5947    6.1094  -20.7592 C   0  0  0  0  0  0  0  0  0  0  0  0
   -4.9856    7.5593  -20.9858 C   0  0  2  0  0  0  0  0  0  0  0  0
   -5.1034    7.9350  -22.4601 C   0  0  0  0  0  0  0  0  0  0  0  0
   -4.7812    9.4075  -22.4342 C   0  0  0  0  0  0  0  0  0  0  0  0
   -3.6869    9.4568  -21.3944 C   0  0  0  0  0  0  0  0  0  0  0  0
   -3.9922    8.4393  -20.4374 O   0  0  0  0  0  0  0  0  0  0  0  0
   -8.1077    4.7035  -17.7249 C   0  0  0  0  0  0  0  0  0  0  0  0
   -9.1131    4.6827  -18.6569 N   0  0  0  0  0  0  0  0  0  0  0  0
  -10.2625    4.3529  -18.0037 C   0  0  0  0  0  0  0  0  0  0  0  0
  -10.0314    3.9562  -16.7822 N   0  0  0  0  0  0  0  0  0  0  0  0
   -8.7293    4.2672  -16.5598 C   0  0  0  0  0  0  0  0  0  0  0  0
   -8.0362    4.2437  -15.3539 C   0  0  0  0  0  0  0  0  0  0  0  0
  1  2  1  0
  2  3  2  0
  3  4  1  0
  4  5  1  0
  5  6  1  0
  6  7  2  0
  6  8  1  0
  9  8  1  6
  9 10  1  0
 10 11  1  0
 11 12  1  0
 12 13  1  0
  4 14  2  0
 14 15  1  0
 15 16  1  0
 16 17  2  0
 17 18  1  0
 18 19  2  0
 19  2  1  0
 13  9  1  0
 18 14  1  0
M  END
>  <energy_score>  (5314) 
-8.30988

>  <alias>  (5314) 
AGUBERUTAHLOKR-UHFFFAOYSA-N-P50-P50-P86-601533

>  <HIPPO Pose ID>  (5314) 
91728

>  <smiles>  (5314) 
Cc1cc(NC(=O)CC2CCCO2)c2[nH]cnc2c1

>  <inchikey>  (5314) 
AGUBERUTAHLOKR-UHFFFAOYSA-N

>  <distance_score>  (5314) 
1.419531

>  <ref_mols>  (5314) 
Z0846a,Z1597a

>  <ref_pdb>  (5314) 
Z0101a

>  <HIPPO Compound ID>  (5314) 
136726

>  <name>  (5314) 
AGUBERUTAHLOKR-UHFFFAOYSA-N-P50-P50-P86-601533

>  <inspiration_score>  (5314) 
None

$$$$
IBRLIROKMQCCIQ-UHFFFAOYSA-N-P50-P50-P86-601533
     RDKit          3D

 19 21  0  0  0  0  0  0  0  0999 V2000
   -6.0487    4.9243  -13.9417 C   0  0  0  0  0  0  0  0  0  0  0  0
   -6.7008    4.8475  -15.2835 C   0  0  0  0  0  0  0  0  0  0  0  0
   -6.0242    5.2259  -16.4576 C   0  0  0  0  0  0  0  0  0  0  0  0
   -6.6332    5.1706  -17.7196 C   0  0  0  0  0  0  0  0  0  0  0  0
   -5.9508    5.4868  -18.8927 N   0  0  0  0  0  0  0  0  0  0  0  0
   -4.4930    6.0042  -19.1094 C   0  0  0  0  0  0  0  0  0  0  0  0
   -3.6747    6.3154  -18.3310 O   0  0  0  0  0  0  0  0  0  0  0  0
   -4.1992    5.9548  -20.6064 C   0  0  0  0  0  0  0  0  0  0  0  0
   -4.1463    7.3374  -21.2558 C   0  0  0  0  0  0  0  0  0  0  0  0
   -5.3733    7.5856  -22.0807 C   0  0  2  0  0  0  0  0  0  0  0  0
   -5.3617    7.2732  -23.5565 C   0  0  0  0  0  0  0  0  0  0  0  0
   -5.5500    8.6959  -23.1018 C   0  0  2  0  0  0  0  0  0  0  0  0
   -4.5275    9.7244  -23.4217 C   0  0  0  0  0  0  0  0  0  0  0  0
   -7.9636    4.7502  -17.7325 C   0  0  0  0  0  0  0  0  0  0  0  0
   -8.9301    4.6930  -18.7051 N   0  0  0  0  0  0  0  0  0  0  0  0
  -10.1058    4.3819  -18.0875 C   0  0  0  0  0  0  0  0  0  0  0  0
   -9.9231    3.9987  -16.8538 N   0  0  0  0  0  0  0  0  0  0  0  0
   -8.6335    4.3296  -16.5862 C   0  0  0  0  0  0  0  0  0  0  0  0
   -7.9972    4.3420  -15.3497 C   0  0  0  0  0  0  0  0  0  0  0  0
  1  2  1  0
  2  3  2  0
  3  4  1  0
  4  5  1  0
  5  6  1  0
  6  7  2  0
  6  8  1  0
  8  9  1  0
 10  9  1  6
 10 11  1  0
 11 12  1  0
 12 13  1  6
  4 14  2  0
 14 15  1  0
 15 16  1  0
 16 17  2  0
 17 18  1  0
 18 19  2  0
 19  2  1  0
 12 10  1  0
 18 14  1  0
M  END
>  <energy_score>  (5315) 
-7.599777

>  <alias>  (5315) 
IBRLIROKMQCCIQ-UHFFFAOYSA-N-P50-P50-P86-601533

>  <HIPPO Pose ID>  (5315) 
91738

>  <smiles>  (5315) 
Cc1cc(NC(=O)CCC2CC2C)c2[nH]cnc2c1

>  <inchikey>  (5315) 
IBRLIROKMQCCIQ-UHFFFAOYSA-N

>  <distance_score>  (5315) 
1.297818

>  <ref_mols>  (5315) 
Z0846a,Z1597a

>  <ref_pdb>  (5315) 
Z0101a

>  <HIPPO Compound ID>  (5315) 
136731

>  <name>  (5315) 
IBRLIROKMQCCIQ-UHFFFAOYSA-N-P50-P50-P86-601533

>  <inspiration_score>  (5315) 
None

$$$$
OOAVIUNEZBAYNS-UHFFFAOYSA-N-P50-P50-P86-601533
     RDKit          3D

 19 21  0  0  0  0  0  0  0  0999 V2000
  -10.4231    4.2154  -17.3745 C   0  0  0  0  0  0  0  0  0  0  0  0
   -9.0784    4.2187  -17.8603 N   0  0  0  0  0  0  0  0  0  0  0  0
   -8.7263    4.0954  -19.1628 C   0  0  0  0  0  0  0  0  0  0  0  0
   -7.4363    4.1994  -19.3316 N   0  0  0  0  0  0  0  0  0  0  0  0
   -6.9722    4.6011  -18.1113 C   0  0  0  0  0  0  0  0  0  0  0  0
   -5.7080    5.1180  -17.8013 C   0  0  0  0  0  0  0  0  0  0  0  0
   -4.8732    5.3397  -18.8888 N   0  0  0  0  0  0  0  0  0  0  0  0
   -3.5068    6.0741  -18.9789 C   0  0  0  0  0  0  0  0  0  0  0  0
   -2.8391    6.5370  -18.1387 O   0  0  0  0  0  0  0  0  0  0  0  0
   -3.1561    6.1406  -20.4643 C   0  0  0  0  0  0  0  0  0  0  0  0
   -3.6312    7.4271  -21.1421 C   0  0  2  0  0  0  0  0  0  0  0  0
   -5.1304    7.6539  -21.2107 C   0  0  0  0  0  0  0  0  0  0  0  0
   -5.5080    7.0419  -22.5339 C   0  0  0  0  0  0  0  0  0  0  0  0
   -4.3202    7.3740  -23.3931 C   0  0  0  0  0  0  0  0  0  0  0  0
   -3.1878    7.4150  -22.5210 O   0  0  0  0  0  0  0  0  0  0  0  0
   -5.4492    5.4628  -16.4784 C   0  0  0  0  0  0  0  0  0  0  0  0
   -6.4373    5.2901  -15.4928 C   0  0  0  0  0  0  0  0  0  0  0  0
   -7.7257    4.8319  -15.7997 C   0  0  0  0  0  0  0  0  0  0  0  0
   -7.9600    4.5348  -17.1399 C   0  0  0  0  0  0  0  0  0  0  0  0
  1  2  1  0
  2  3  1  0
  3  4  2  0
  4  5  1  0
  5  6  2  0
  6  7  1  0
  7  8  1  0
  8  9  2  0
  8 10  1  0
 11 10  1  6
 11 12  1  0
 12 13  1  0
 13 14  1  0
 14 15  1  0
  6 16  1  0
 16 17  2  0
 17 18  1  0
 18 19  2  0
 19  2  1  0
 19  5  1  0
 15 11  1  0
M  END
>  <energy_score>  (5316) 
-3.026797

>  <alias>  (5316) 
OOAVIUNEZBAYNS-UHFFFAOYSA-N-P50-P50-P86-601533

>  <HIPPO Pose ID>  (5316) 
91746

>  <smiles>  (5316) 
Cn1cnc2c(NC(=O)CC3CCCO3)cccc21

>  <inchikey>  (5316) 
OOAVIUNEZBAYNS-UHFFFAOYSA-N

>  <distance_score>  (5316) 
1.654564

>  <ref_mols>  (5316) 
Z0846a,Z1597a

>  <ref_pdb>  (5316) 
Z0101a

>  <HIPPO Compound ID>  (5316) 
136735

>  <name>  (5316) 
OOAVIUNEZBAYNS-UHFFFAOYSA-N-P50-P50-P86-601533

>  <inspiration_score>  (5316) 
None

$$$$
QRMYKPOZUWAUEC-UHFFFAOYSA-N-P50-P50-P86-601533
     RDKit          3D

 19 21  0  0  0  0  0  0  0  0999 V2000
  -10.8455    4.8043  -18.4348 C   0  0  0  0  0  0  0  0  0  0  0  0
   -9.5313    4.4708  -17.8903 C   0  0  0  0  0  0  0  0  0  0  0  0
   -9.3201    4.0162  -16.6823 N   0  0  0  0  0  0  0  0  0  0  0  0
   -8.0101    4.2877  -16.4470 C   0  0  0  0  0  0  0  0  0  0  0  0
   -7.3303    4.1725  -15.2375 C   0  0  0  0  0  0  0  0  0  0  0  0
   -6.0111    4.6061  -15.1958 C   0  0  0  0  0  0  0  0  0  0  0  0
   -5.3840    5.1101  -16.3410 C   0  0  0  0  0  0  0  0  0  0  0  0
   -6.0369    5.2009  -17.5783 C   0  0  0  0  0  0  0  0  0  0  0  0
   -5.3681    5.6733  -18.7090 N   0  0  0  0  0  0  0  0  0  0  0  0
   -3.9197    6.2356  -18.8688 C   0  0  0  0  0  0  0  0  0  0  0  0
   -3.0987    6.4584  -18.0627 O   0  0  0  0  0  0  0  0  0  0  0  0
   -3.6358    6.4158  -20.3523 C   0  0  0  0  0  0  0  0  0  0  0  0
   -4.2874    7.6734  -20.9104 C   0  0  1  0  0  0  0  0  0  0  0  0
   -3.5405    8.2505  -22.1184 C   0  0  0  0  0  0  0  0  0  0  0  0
   -4.6106    8.4442  -23.1611 C   0  0  0  0  0  0  0  0  0  0  0  0
   -5.5593    7.3310  -22.8181 C   0  0  0  0  0  0  0  0  0  0  0  0
   -5.6010    7.3274  -21.3857 O   0  0  0  0  0  0  0  0  0  0  0  0
   -7.3702    4.7827  -17.5856 C   0  0  0  0  0  0  0  0  0  0  0  0
   -8.3588    4.7707  -18.5364 N   0  0  0  0  0  0  0  0  0  0  0  0
  1  2  1  0
  2  3  2  0
  3  4  1  0
  4  5  2  0
  5  6  1  0
  6  7  2  0
  7  8  1  0
  8  9  1  0
  9 10  1  0
 10 11  2  0
 10 12  1  0
 13 12  1  6
 13 14  1  0
 14 15  1  0
 15 16  1  0
 16 17  1  0
  8 18  2  0
 18 19  1  0
 19  2  1  0
 18  4  1  0
 17 13  1  0
M  END
>  <energy_score>  (5317) 
-26.386952

>  <alias>  (5317) 
QRMYKPOZUWAUEC-UHFFFAOYSA-N-P50-P50-P86-601533

>  <HIPPO Pose ID>  (5317) 
91750

>  <smiles>  (5317) 
Cc1nc2cccc(NC(=O)CC3CCCO3)c2[nH]1

>  <inchikey>  (5317) 
QRMYKPOZUWAUEC-UHFFFAOYSA-N

>  <distance_score>  (5317) 
1.815676

>  <ref_mols>  (5317) 
Z0846a,Z1597a

>  <ref_pdb>  (5317) 
Z0101a

>  <HIPPO Compound ID>  (5317) 
136737

>  <name>  (5317) 
QRMYKPOZUWAUEC-UHFFFAOYSA-N-P50-P50-P86-601533

>  <inspiration_score>  (5317) 
None

$$$$
VNIQYZAZOYQUQV-UHFFFAOYSA-N-P50-P50-P86-601533
     RDKit          3D

 19 20  0  0  0  0  0  0  0  0999 V2000
  -10.9443    4.7449  -18.3199 C   0  0  0  0  0  0  0  0  0  0  0  0
   -9.6595    4.3961  -17.7227 C   0  0  0  0  0  0  0  0  0  0  0  0
   -9.4728    4.0155  -16.4843 N   0  0  0  0  0  0  0  0  0  0  0  0
   -8.1525    4.2404  -16.2536 C   0  0  0  0  0  0  0  0  0  0  0  0
   -7.4614    4.1673  -15.0472 C   0  0  0  0  0  0  0  0  0  0  0  0
   -6.1226    4.5564  -15.0409 C   0  0  0  0  0  0  0  0  0  0  0  0
   -5.4825    4.9704  -16.2150 C   0  0  0  0  0  0  0  0  0  0  0  0
   -6.1528    4.9970  -17.4384 C   0  0  0  0  0  0  0  0  0  0  0  0
   -5.5345    5.3436  -18.6303 N   0  0  0  0  0  0  0  0  0  0  0  0
   -4.0533    5.7296  -18.9270 C   0  0  0  0  0  0  0  0  0  0  0  0
   -3.1511    5.8878  -18.1995 O   0  0  0  0  0  0  0  0  0  0  0  0
   -3.9354    5.8019  -20.4389 C   0  0  0  0  0  0  0  0  0  0  0  0
   -4.6030    7.0366  -21.0359 C   0  0  0  0  0  0  0  0  0  0  0  0
   -4.8528    6.8559  -22.5349 C   0  0  0  0  0  0  0  0  0  0  0  0
   -5.5765    8.0247  -23.2026 C   0  0  1  0  0  0  0  0  0  0  0  0
   -4.7725    9.3137  -23.2169 C   0  0  0  0  0  0  0  0  0  0  0  0
   -5.8861    7.6888  -24.5534 O   0  0  0  0  0  0  0  0  0  0  0  0
   -7.4981    4.6381  -17.4158 C   0  0  0  0  0  0  0  0  0  0  0  0
   -8.4765    4.6087  -18.3734 N   0  0  0  0  0  0  0  0  0  0  0  0
  1  2  1  0
  2  3  2  0
  3  4  1  0
  4  5  2  0
  5  6  1  0
  6  7  2  0
  7  8  1  0
  8  9  1  0
  9 10  1  0
 10 11  2  0
 10 12  1  0
 12 13  1  0
 13 14  1  0
 14 15  1  0
 15 16  1  6
 15 17  1  0
  8 18  2  0
 18 19  1  0
 19  2  1  0
 18  4  1  0
M  END
>  <energy_score>  (5318) 
-5.073543

>  <alias>  (5318) 
VNIQYZAZOYQUQV-UHFFFAOYSA-N-P50-P50-P86-601533

>  <HIPPO Pose ID>  (5318) 
91756

>  <smiles>  (5318) 
Cc1nc2cccc(NC(=O)CCCC(C)O)c2[nH]1

>  <inchikey>  (5318) 
VNIQYZAZOYQUQV-UHFFFAOYSA-N

>  <distance_score>  (5318) 
1.262706

>  <ref_mols>  (5318) 
Z0846a,Z1597a

>  <ref_pdb>  (5318) 
Z0101a

>  <HIPPO Compound ID>  (5318) 
136740

>  <name>  (5318) 
VNIQYZAZOYQUQV-UHFFFAOYSA-N-P50-P50-P86-601533

>  <inspiration_score>  (5318) 
None

$$$$
FCWKHIQDETXNJV-UHFFFAOYSA-N-P86-P50-P86-601533
     RDKit          3D

 19 20  0  0  0  0  0  0  0  0999 V2000
   -4.6003    5.7835  -15.9609 C   0  0  0  0  0  0  0  0  0  0  0  0
   -5.9592    5.2373  -16.2984 C   0  0  0  0  0  0  0  0  0  0  0  0
   -6.7417    4.8291  -15.1936 C   0  0  0  0  0  0  0  0  0  0  0  0
   -8.0371    4.3397  -15.3348 C   0  0  0  0  0  0  0  0  0  0  0  0
   -8.5735    4.3115  -16.6140 C   0  0  0  0  0  0  0  0  0  0  0  0
   -9.8482    4.0135  -16.9862 N   0  0  0  0  0  0  0  0  0  0  0  0
   -9.9145    4.3617  -18.2419 C   0  0  0  0  0  0  0  0  0  0  0  0
   -8.6785    4.5935  -18.7623 N   0  0  0  0  0  0  0  0  0  0  0  0
   -7.8014    4.6938  -17.7058 C   0  0  0  0  0  0  0  0  0  0  0  0
   -6.4626    5.1123  -17.6103 C   0  0  0  0  0  0  0  0  0  0  0  0
   -5.7969    5.3581  -18.8184 N   0  0  0  0  0  0  0  0  0  0  0  0
   -4.2732    5.5220  -19.1213 C   0  0  0  0  0  0  0  0  0  0  0  0
   -3.3557    5.5531  -18.3966 O   0  0  0  0  0  0  0  0  0  0  0  0
   -4.1435    5.5916  -20.6310 C   0  0  0  0  0  0  0  0  0  0  0  0
   -4.6049    6.9336  -21.1838 C   0  0  0  0  0  0  0  0  0  0  0  0
   -4.8317    6.8452  -22.6945 C   0  0  0  0  0  0  0  0  0  0  0  0
   -5.4917    8.0924  -23.2829 C   0  0  2  0  0  0  0  0  0  0  0  0
   -5.8943    7.8581  -24.7308 C   0  0  0  0  0  0  0  0  0  0  0  0
   -4.6157    9.2099  -23.2444 O   0  0  0  0  0  0  0  0  0  0  0  0
  1  2  1  0
  2  3  2  0
  3  4  1  0
  4  5  2  0
  5  6  1  0
  6  7  2  0
  7  8  1  0
  8  9  1  0
  9 10  2  0
 10 11  1  0
 11 12  1  0
 12 13  2  0
 12 14  1  0
 14 15  1  0
 15 16  1  0
 16 17  1  0
 17 18  1  6
 17 19  1  0
 10  2  1  0
  9  5  1  0
M  END
>  <energy_score>  (5319) 
-18.292221

>  <alias>  (5319) 
FCWKHIQDETXNJV-UHFFFAOYSA-N-P86-P50-P86-601533

>  <HIPPO Pose ID>  (5319) 
91761

>  <smiles>  (5319) 
Cc1ccc2nc[nH]c2c1NC(=O)CCCC(C)O

>  <inchikey>  (5319) 
FCWKHIQDETXNJV-UHFFFAOYSA-N

>  <distance_score>  (5319) 
1.078039

>  <ref_mols>  (5319) 
Z0846a,Z1597a

>  <ref_pdb>  (5319) 
Z0101a

>  <HIPPO Compound ID>  (5319) 
136742

>  <name>  (5319) 
FCWKHIQDETXNJV-UHFFFAOYSA-N-P86-P50-P86-601533

>  <inspiration_score>  (5319) 
None

$$$$
WCDXDBHATYGOQI-UHFFFAOYSA-N-P50-P50-P86-601533
     RDKit          3D

 19 20  0  0  0  0  0  0  0  0999 V2000
   -5.1227    8.9021  -24.4019 C   0  0  0  0  0  0  0  0  0  0  0  0
   -5.0203    8.6906  -22.8943 C   0  0  0  0  0  0  0  0  0  0  0  0
   -4.7282    7.2351  -22.4906 C   0  0  2  0  0  0  0  0  0  0  0  0
   -5.6496    6.3182  -23.2773 C   0  0  0  0  0  0  0  0  0  0  0  0
   -4.8507    7.0540  -20.9624 C   0  0  0  0  0  0  0  0  0  0  0  0
   -4.4048    5.6790  -20.4669 C   0  0  0  0  0  0  0  0  0  0  0  0
   -4.6059    5.4991  -18.9713 C   0  0  0  0  0  0  0  0  0  0  0  0
   -3.7278    5.5400  -18.1993 O   0  0  0  0  0  0  0  0  0  0  0  0
   -6.1267    5.2444  -18.7564 N   0  0  0  0  0  0  0  0  0  0  0  0
   -6.8306    4.9087  -17.6088 C   0  0  0  0  0  0  0  0  0  0  0  0
   -6.2648    4.8972  -16.3340 C   0  0  0  0  0  0  0  0  0  0  0  0
   -7.0679    4.6445  -15.2174 C   0  0  0  0  0  0  0  0  0  0  0  0
   -6.3936    4.7322  -13.6415 Cl  0  0  0  0  0  0  0  0  0  0  0  0
   -8.4357    4.3913  -15.3140 C   0  0  0  0  0  0  0  0  0  0  0  0
   -8.9659    4.4339  -16.5918 C   0  0  0  0  0  0  0  0  0  0  0  0
  -10.2524    4.3921  -17.0461 N   0  0  0  0  0  0  0  0  0  0  0  0
  -10.2312    4.6672  -18.3735 C   0  0  0  0  0  0  0  0  0  0  0  0
   -9.0089    4.6971  -18.8381 N   0  0  0  0  0  0  0  0  0  0  0  0
   -8.2068    4.6561  -17.7309 C   0  0  0  0  0  0  0  0  0  0  0  0
  1  2  1  0
  2  3  1  0
  3  4  1  6
  3  5  1  0
  5  6  1  0
  6  7  1  0
  7  8  2  0
  7  9  1  0
  9 10  1  0
 10 11  2  0
 11 12  1  0
 12 13  1  0
 12 14  2  0
 14 15  1  0
 15 16  1  0
 16 17  1  0
 17 18  2  0
 18 19  1  0
 19 10  1  0
 19 15  2  0
M  END
>  <energy_score>  (5320) 
-3.190867

>  <alias>  (5320) 
WCDXDBHATYGOQI-UHFFFAOYSA-N-P50-P50-P86-601533

>  <HIPPO Pose ID>  (5320) 
91782

>  <smiles>  (5320) 
CCC(C)CCC(=O)Nc1cc(Cl)cc2[nH]cnc12

>  <inchikey>  (5320) 
WCDXDBHATYGOQI-UHFFFAOYSA-N

>  <distance_score>  (5320) 
1.062141

>  <ref_mols>  (5320) 
Z0846a,Z1597a

>  <ref_pdb>  (5320) 
Z0101a

>  <HIPPO Compound ID>  (5320) 
136753

>  <name>  (5320) 
WCDXDBHATYGOQI-UHFFFAOYSA-N-P50-P50-P86-601533

>  <inspiration_score>  (5320) 
None

$$$$
ZYGUEEAUHSUHPR-UHFFFAOYSA-N-P50-P50-P86-601533
     RDKit          3D

 19 20  0  0  0  0  0  0  0  0999 V2000
   -5.8576    7.6767  -24.3361 C   0  0  0  0  0  0  0  0  0  0  0  0
   -5.3195    8.0493  -22.9604 C   0  0  0  0  0  0  0  0  0  0  0  0
   -4.3811    6.9856  -22.3593 C   0  0  1  0  0  0  0  0  0  0  0  0
   -3.0724    6.9020  -23.1522 C   0  0  0  0  0  0  0  0  0  0  0  0
   -4.1147    7.2751  -20.8668 C   0  0  0  0  0  0  0  0  0  0  0  0
   -3.2111    6.2468  -20.1660 C   0  0  0  0  0  0  0  0  0  0  0  0
   -3.5635    6.1153  -18.6837 C   0  0  0  0  0  0  0  0  0  0  0  0
   -2.9450    6.5948  -17.8165 O   0  0  0  0  0  0  0  0  0  0  0  0
   -4.9043    5.3342  -18.6502 N   0  0  0  0  0  0  0  0  0  0  0  0
   -5.7701    5.0765  -17.5988 C   0  0  0  0  0  0  0  0  0  0  0  0
   -5.5517    5.3516  -16.2544 C   0  0  0  0  0  0  0  0  0  0  0  0
   -6.5810    5.1503  -15.3179 C   0  0  0  0  0  0  0  0  0  0  0  0
   -7.8642    4.7267  -15.6957 C   0  0  0  0  0  0  0  0  0  0  0  0
   -8.0516    4.4934  -17.0563 C   0  0  0  0  0  0  0  0  0  0  0  0
   -7.0271    4.5978  -17.9824 C   0  0  0  0  0  0  0  0  0  0  0  0
   -7.4420    4.2685  -19.2392 N   0  0  0  0  0  0  0  0  0  0  0  0
   -8.7342    4.1254  -19.1273 C   0  0  0  0  0  0  0  0  0  0  0  0
   -9.1388    4.2118  -17.8368 N   0  0  0  0  0  0  0  0  0  0  0  0
  -10.5010    4.1978  -17.4079 C   0  0  0  0  0  0  0  0  0  0  0  0
  1  2  1  0
  2  3  1  0
  3  4  1  6
  3  5  1  0
  5  6  1  0
  6  7  1  0
  7  8  2  0
  7  9  1  0
  9 10  1  0
 10 11  2  0
 11 12  1  0
 12 13  2  0
 13 14  1  0
 14 15  2  0
 15 16  1  0
 16 17  2  0
 17 18  1  0
 18 19  1  0
 15 10  1  0
 18 14  1  0
M  END
>  <energy_score>  (5321) 
-32.692107

>  <alias>  (5321) 
ZYGUEEAUHSUHPR-UHFFFAOYSA-N-P50-P50-P86-601533

>  <HIPPO Pose ID>  (5321) 
91792

>  <smiles>  (5321) 
CCC(C)CCC(=O)Nc1cccc2c1ncn2C

>  <inchikey>  (5321) 
ZYGUEEAUHSUHPR-UHFFFAOYSA-N

>  <distance_score>  (5321) 
1.367483

>  <ref_mols>  (5321) 
Z0846a,Z1597a

>  <ref_pdb>  (5321) 
Z0101a

>  <HIPPO Compound ID>  (5321) 
136758

>  <name>  (5321) 
ZYGUEEAUHSUHPR-UHFFFAOYSA-N-P50-P50-P86-601533

>  <inspiration_score>  (5321) 
None

$$$$
WLTVLYHBGSCGRT-UHFFFAOYSA-N-P86-P50-P86-601533
     RDKit          3D

 19 20  0  0  0  0  0  0  0  0999 V2000
   -4.8652    9.2770  -22.8345 C   0  0  0  0  0  0  0  0  0  0  0  0
   -5.0314    7.8337  -23.2784 C   0  0  2  0  0  0  0  0  0  0  0  0
   -6.2091    7.7483  -24.0820 O   0  0  0  0  0  0  0  0  0  0  0  0
   -5.1875    6.8567  -22.1125 C   0  0  0  0  0  0  0  0  0  0  0  0
   -3.9312    6.6420  -21.2708 C   0  0  0  0  0  0  0  0  0  0  0  0
   -4.0318    5.3700  -20.4313 C   0  0  0  0  0  0  0  0  0  0  0  0
   -4.4132    5.5850  -18.9685 C   0  0  0  0  0  0  0  0  0  0  0  0
   -3.6375    5.9645  -18.1788 O   0  0  0  0  0  0  0  0  0  0  0  0
   -5.8882    5.1185  -18.7903 N   0  0  0  0  0  0  0  0  0  0  0  0
   -6.6469    4.9410  -17.6364 C   0  0  0  0  0  0  0  0  0  0  0  0
   -6.1346    5.1196  -16.3481 C   0  0  0  0  0  0  0  0  0  0  0  0
   -6.9454    4.9001  -15.2273 C   0  0  0  0  0  0  0  0  0  0  0  0
   -6.3236    5.1586  -13.6494 Cl  0  0  0  0  0  0  0  0  0  0  0  0
   -8.2803    4.5172  -15.3266 C   0  0  0  0  0  0  0  0  0  0  0  0
   -8.7721    4.4117  -16.6140 C   0  0  0  0  0  0  0  0  0  0  0  0
  -10.0488    4.2712  -17.0784 N   0  0  0  0  0  0  0  0  0  0  0  0
  -10.0062    4.4649  -18.4206 C   0  0  0  0  0  0  0  0  0  0  0  0
   -8.7785    4.4634  -18.8748 N   0  0  0  0  0  0  0  0  0  0  0  0
   -8.0002    4.5809  -17.7573 C   0  0  0  0  0  0  0  0  0  0  0  0
  2  1  1  1
  2  3  1  0
  2  4  1  0
  4  5  1  0
  5  6  1  0
  6  7  1  0
  7  8  2  0
  7  9  1  0
  9 10  1  0
 10 11  2  0
 11 12  1  0
 12 13  1  0
 12 14  2  0
 14 15  1  0
 15 16  1  0
 16 17  1  0
 17 18  2  0
 18 19  1  0
 19 10  1  0
 19 15  2  0
M  END
>  <energy_score>  (5322) 
-18.001803

>  <alias>  (5322) 
WLTVLYHBGSCGRT-UHFFFAOYSA-N-P86-P50-P86-601533

>  <HIPPO Pose ID>  (5322) 
91795

>  <smiles>  (5322) 
CC(O)CCCC(=O)Nc1cc(Cl)cc2[nH]cnc12

>  <inchikey>  (5322) 
WLTVLYHBGSCGRT-UHFFFAOYSA-N

>  <distance_score>  (5322) 
0.858514

>  <ref_mols>  (5322) 
Z0846a,Z1597a

>  <ref_pdb>  (5322) 
Z0101a

>  <HIPPO Compound ID>  (5322) 
136759

>  <name>  (5322) 
WLTVLYHBGSCGRT-UHFFFAOYSA-N-P86-P50-P86-601533

>  <inspiration_score>  (5322) 
None

$$$$
ZWMLYPJPWSFVOI-UHFFFAOYSA-N-P50-P50-P86-601533
     RDKit          3D

 19 20  0  0  0  0  0  0  0  0999 V2000
   -5.8322    7.8751  -24.4795 C   0  0  0  0  0  0  0  0  0  0  0  0
   -5.3989    8.0850  -23.0359 C   0  0  0  0  0  0  0  0  0  0  0  0
   -4.9433    6.7697  -22.4086 C   0  0  0  0  0  0  0  0  0  0  0  0
   -4.7218    6.8395  -20.8914 C   0  0  2  0  0  0  0  0  0  0  0  0
   -3.7135    7.8149  -20.6198 O   0  0  0  0  0  0  0  0  0  0  0  0
   -4.2939    5.4720  -20.3640 C   0  0  0  0  0  0  0  0  0  0  0  0
   -4.5437    5.3195  -18.8763 C   0  0  0  0  0  0  0  0  0  0  0  0
   -3.6873    5.3825  -18.0822 O   0  0  0  0  0  0  0  0  0  0  0  0
   -6.0554    4.9946  -18.7048 N   0  0  0  0  0  0  0  0  0  0  0  0
   -6.8060    4.7839  -17.5593 C   0  0  0  0  0  0  0  0  0  0  0  0
   -6.2770    4.8230  -16.2699 C   0  0  0  0  0  0  0  0  0  0  0  0
   -7.1193    4.6535  -15.1670 C   0  0  0  0  0  0  0  0  0  0  0  0
   -6.4819    4.7778  -13.5788 Cl  0  0  0  0  0  0  0  0  0  0  0  0
   -8.4927    4.4469  -15.2922 C   0  0  0  0  0  0  0  0  0  0  0  0
   -8.9860    4.4518  -16.5856 C   0  0  0  0  0  0  0  0  0  0  0  0
  -10.2602    4.4437  -17.0757 N   0  0  0  0  0  0  0  0  0  0  0  0
  -10.1865    4.6586  -18.4129 C   0  0  0  0  0  0  0  0  0  0  0  0
   -8.9528    4.5925  -18.8447 N   0  0  0  0  0  0  0  0  0  0  0  0
   -8.1872    4.5841  -17.7109 C   0  0  0  0  0  0  0  0  0  0  0  0
  1  2  1  0
  2  3  1  0
  3  4  1  0
  4  5  1  6
  4  6  1  0
  6  7  1  0
  7  8  2  0
  7  9  1  0
  9 10  1  0
 10 11  2  0
 11 12  1  0
 12 13  1  0
 12 14  2  0
 14 15  1  0
 15 16  1  0
 16 17  1  0
 17 18  2  0
 18 19  1  0
 19 10  1  0
 19 15  2  0
M  END
>  <energy_score>  (5323) 
-34.69161

>  <alias>  (5323) 
ZWMLYPJPWSFVOI-UHFFFAOYSA-N-P50-P50-P86-601533

>  <HIPPO Pose ID>  (5323) 
91804

>  <smiles>  (5323) 
CCCC(O)CC(=O)Nc1cc(Cl)cc2[nH]cnc12

>  <inchikey>  (5323) 
ZWMLYPJPWSFVOI-UHFFFAOYSA-N

>  <distance_score>  (5323) 
0.926725

>  <ref_mols>  (5323) 
Z0846a,Z1597a

>  <ref_pdb>  (5323) 
Z0101a

>  <HIPPO Compound ID>  (5323) 
136764

>  <name>  (5323) 
ZWMLYPJPWSFVOI-UHFFFAOYSA-N-P50-P50-P86-601533

>  <inspiration_score>  (5323) 
None

$$$$
JKYYVCVUVQEYJQ-UHFFFAOYSA-N-P50-P50-P86-601533
     RDKit          3D

 19 20  0  0  0  0  0  0  0  0999 V2000
   -5.8808    7.7955  -24.6134 C   0  0  0  0  0  0  0  0  0  0  0  0
   -5.4364    8.1068  -23.1929 C   0  0  0  0  0  0  0  0  0  0  0  0
   -4.9139    6.8517  -22.4965 C   0  0  0  0  0  0  0  0  0  0  0  0
   -4.6509    7.0488  -20.9998 C   0  0  2  0  0  0  0  0  0  0  0  0
   -3.6781    8.0804  -20.8333 O   0  0  0  0  0  0  0  0  0  0  0  0
   -4.1577    5.7513  -20.3690 C   0  0  0  0  0  0  0  0  0  0  0  0
   -4.4964    5.7018  -18.8926 C   0  0  0  0  0  0  0  0  0  0  0  0
   -3.7144    5.9290  -18.0528 O   0  0  0  0  0  0  0  0  0  0  0  0
   -5.9943    5.2809  -18.7909 N   0  0  0  0  0  0  0  0  0  0  0  0
   -6.7701    4.9760  -17.6830 C   0  0  0  0  0  0  0  0  0  0  0  0
   -6.2589    4.9580  -16.3843 C   0  0  0  0  0  0  0  0  0  0  0  0
   -7.0766    4.6231  -15.3019 C   0  0  0  0  0  0  0  0  0  0  0  0
   -6.4076    4.7204  -13.5443 Br  0  0  0  0  0  0  0  0  0  0  0  0
   -8.4078    4.2614  -15.4649 C   0  0  0  0  0  0  0  0  0  0  0  0
   -8.9331    4.3169  -16.7493 C   0  0  0  0  0  0  0  0  0  0  0  0
  -10.2216    4.1354  -17.1434 N   0  0  0  0  0  0  0  0  0  0  0  0
  -10.2543    4.5897  -18.3664 C   0  0  0  0  0  0  0  0  0  0  0  0
   -9.0005    4.7503  -18.8733 N   0  0  0  0  0  0  0  0  0  0  0  0
   -8.1253    4.6817  -17.8203 C   0  0  0  0  0  0  0  0  0  0  0  0
  1  2  1  0
  2  3  1  0
  3  4  1  0
  4  5  1  6
  4  6  1  0
  6  7  1  0
  7  8  2  0
  7  9  1  0
  9 10  1  0
 10 11  2  0
 11 12  1  0
 12 13  1  0
 12 14  2  0
 14 15  1  0
 15 16  1  0
 16 17  2  0
 17 18  1  0
 18 19  1  0
 19 10  1  0
 19 15  2  0
M  END
>  <energy_score>  (5324) 
-21.219538

>  <alias>  (5324) 
JKYYVCVUVQEYJQ-UHFFFAOYSA-N-P50-P50-P86-601533

>  <HIPPO Pose ID>  (5324) 
91806

>  <smiles>  (5324) 
CCCC(O)CC(=O)Nc1cc(Br)cc2nc[nH]c12

>  <inchikey>  (5324) 
JKYYVCVUVQEYJQ-UHFFFAOYSA-N

>  <distance_score>  (5324) 
0.93791

>  <ref_mols>  (5324) 
Z0846a,Z1597a

>  <ref_pdb>  (5324) 
Z0101a

>  <HIPPO Compound ID>  (5324) 
136765

>  <name>  (5324) 
JKYYVCVUVQEYJQ-UHFFFAOYSA-N-P50-P50-P86-601533

>  <inspiration_score>  (5324) 
None

$$$$
KQBMHULPCUPHAV-UHFFFAOYSA-N-P86-P50-P86-601533
     RDKit          3D

 19 20  0  0  0  0  0  0  0  0999 V2000
   -5.8913    7.9075  -24.6858 C   0  0  0  0  0  0  0  0  0  0  0  0
   -5.3664    8.1227  -23.2755 C   0  0  0  0  0  0  0  0  0  0  0  0
   -4.8780    6.8079  -22.6719 C   0  0  0  0  0  0  0  0  0  0  0  0
   -4.4975    6.9263  -21.1932 C   0  0  2  0  0  0  0  0  0  0  0  0
   -3.3963    7.8279  -21.0851 O   0  0  0  0  0  0  0  0  0  0  0  0
   -4.1215    5.5565  -20.6442 C   0  0  0  0  0  0  0  0  0  0  0  0
   -4.2761    5.5188  -19.1382 C   0  0  0  0  0  0  0  0  0  0  0  0
   -3.3641    5.5922  -18.4091 O   0  0  0  0  0  0  0  0  0  0  0  0
   -5.7974    5.3301  -18.8396 N   0  0  0  0  0  0  0  0  0  0  0  0
   -6.4660    5.1058  -17.6279 C   0  0  0  0  0  0  0  0  0  0  0  0
   -5.9643    5.2405  -16.3158 C   0  0  0  0  0  0  0  0  0  0  0  0
   -4.6056    5.7869  -15.9781 C   0  0  0  0  0  0  0  0  0  0  0  0
   -6.7471    4.8380  -15.2086 C   0  0  0  0  0  0  0  0  0  0  0  0
   -8.0414    4.3457  -15.3470 C   0  0  0  0  0  0  0  0  0  0  0  0
   -8.5780    4.3129  -16.6257 C   0  0  0  0  0  0  0  0  0  0  0  0
   -9.8535    4.0159  -16.9952 N   0  0  0  0  0  0  0  0  0  0  0  0
   -9.9218    4.3649  -18.2505 C   0  0  0  0  0  0  0  0  0  0  0  0
   -8.6861    4.5918  -18.7742 N   0  0  0  0  0  0  0  0  0  0  0  0
   -7.8060    4.6898  -17.7198 C   0  0  0  0  0  0  0  0  0  0  0  0
  1  2  1  0
  2  3  1  0
  3  4  1  0
  4  5  1  6
  4  6  1  0
  6  7  1  0
  7  8  2  0
  7  9  1  0
  9 10  1  0
 10 11  2  0
 11 12  1  0
 11 13  1  0
 13 14  2  0
 14 15  1  0
 15 16  1  0
 16 17  2  0
 17 18  1  0
 18 19  1  0
 19 10  1  0
 19 15  2  0
M  END
>  <energy_score>  (5325) 
-32.794686

>  <alias>  (5325) 
KQBMHULPCUPHAV-UHFFFAOYSA-N-P86-P50-P86-601533

>  <HIPPO Pose ID>  (5325) 
91809

>  <smiles>  (5325) 
CCCC(O)CC(=O)Nc1c(C)ccc2nc[nH]c12

>  <inchikey>  (5325) 
KQBMHULPCUPHAV-UHFFFAOYSA-N

>  <distance_score>  (5325) 
1.093094

>  <ref_mols>  (5325) 
Z0846a,Z1597a

>  <ref_pdb>  (5325) 
Z0101a

>  <HIPPO Compound ID>  (5325) 
136766

>  <name>  (5325) 
KQBMHULPCUPHAV-UHFFFAOYSA-N-P86-P50-P86-601533

>  <inspiration_score>  (5325) 
None

$$$$
VYNLNLLLXUIECZ-UHFFFAOYSA-N-P50-P50-P86-601533
     RDKit          3D

 19 20  0  0  0  0  0  0  0  0999 V2000
   -4.0308    5.8517  -18.8901 O   0  0  0  0  0  0  0  0  0  0  0  0
   -4.9996    5.7191  -19.5318 C   0  0  0  0  0  0  0  0  0  0  0  0
   -5.1431    6.0163  -21.0171 C   0  0  0  0  0  0  0  0  0  0  0  0
   -3.8976    6.5176  -21.7398 C   0  0  0  0  0  0  0  0  0  0  0  0
   -4.2137    6.7987  -23.2302 C   0  0  0  0  0  0  0  0  0  0  0  0
   -4.4907    8.2608  -23.5412 C   0  0  0  0  0  0  0  0  0  0  0  0
   -5.6469    8.8079  -22.7508 C   0  0  0  0  0  0  0  0  0  0  0  0
   -5.3145    8.8755  -21.4350 F   0  0  0  0  0  0  0  0  0  0  0  0
   -6.4459    5.3119  -19.1073 N   0  0  0  0  0  0  0  0  0  0  0  0
   -6.9432    4.9125  -17.8781 C   0  0  0  0  0  0  0  0  0  0  0  0
   -6.2260    4.8992  -16.6836 C   0  0  0  0  0  0  0  0  0  0  0  0
   -6.8917    4.6173  -15.4824 C   0  0  0  0  0  0  0  0  0  0  0  0
   -6.0553    4.7224  -13.9861 Cl  0  0  0  0  0  0  0  0  0  0  0  0
   -8.2560    4.3250  -15.4196 C   0  0  0  0  0  0  0  0  0  0  0  0
   -8.9317    4.3698  -16.6255 C   0  0  0  0  0  0  0  0  0  0  0  0
  -10.2564    4.2955  -16.9331 N   0  0  0  0  0  0  0  0  0  0  0  0
  -10.4045    4.5911  -18.2470 C   0  0  0  0  0  0  0  0  0  0  0  0
   -9.2471    4.6774  -18.8478 N   0  0  0  0  0  0  0  0  0  0  0  0
   -8.3185    4.6285  -17.8392 C   0  0  0  0  0  0  0  0  0  0  0  0
  1  2  2  0
  2  3  1  0
  3  4  1  0
  4  5  1  0
  5  6  1  0
  6  7  1  0
  7  8  1  0
  2  9  1  0
  9 10  1  0
 10 11  2  0
 11 12  1  0
 12 13  1  0
 12 14  2  0
 14 15  1  0
 15 16  1  0
 16 17  1  0
 17 18  2  0
 18 19  1  0
 19 10  1  0
 19 15  2  0
M  END
>  <energy_score>  (5326) 
-16.010877

>  <alias>  (5326) 
VYNLNLLLXUIECZ-UHFFFAOYSA-N-P50-P50-P86-601533

>  <HIPPO Pose ID>  (5326) 
91812

>  <smiles>  (5326) 
O=C(CCCCCF)Nc1cc(Cl)cc2[nH]cnc12

>  <inchikey>  (5326) 
VYNLNLLLXUIECZ-UHFFFAOYSA-N

>  <distance_score>  (5326) 
1.709129

>  <ref_mols>  (5326) 
Z0846a,Z1597a

>  <ref_pdb>  (5326) 
Z0101a

>  <HIPPO Compound ID>  (5326) 
136768

>  <name>  (5326) 
VYNLNLLLXUIECZ-UHFFFAOYSA-N-P50-P50-P86-601533

>  <inspiration_score>  (5326) 
None

$$$$
FFUUOXUZVDFSDL-UHFFFAOYSA-N-P50-P50-P86-601533
     RDKit          3D

 19 20  0  0  0  0  0  0  0  0999 V2000
   -3.8070    6.2361  -18.3927 O   0  0  0  0  0  0  0  0  0  0  0  0
   -4.6233    5.9563  -19.1861 C   0  0  0  0  0  0  0  0  0  0  0  0
   -4.2748    5.9881  -20.6925 C   0  0  0  0  0  0  0  0  0  0  0  0
   -5.4175    6.2088  -21.6878 C   0  0  0  0  0  0  0  0  0  0  0  0
   -5.0592    6.6780  -23.1083 C   0  0  0  0  0  0  0  0  0  0  0  0
   -5.1902    8.1816  -23.2994 C   0  0  0  0  0  0  0  0  0  0  0  0
   -4.2937    8.9427  -22.3519 C   0  0  0  0  0  0  0  0  0  0  0  0
   -4.7279    8.7704  -21.0763 F   0  0  0  0  0  0  0  0  0  0  0  0
   -6.0788    5.4256  -18.9950 N   0  0  0  0  0  0  0  0  0  0  0  0
   -6.7612    5.0573  -17.8406 C   0  0  0  0  0  0  0  0  0  0  0  0
   -6.1763    5.0498  -16.5725 C   0  0  0  0  0  0  0  0  0  0  0  0
   -6.9148    4.6641  -15.4469 C   0  0  0  0  0  0  0  0  0  0  0  0
   -6.1591    4.7799  -13.7251 Br  0  0  0  0  0  0  0  0  0  0  0  0
   -8.2358    4.2407  -15.5329 C   0  0  0  0  0  0  0  0  0  0  0  0
   -8.8386    4.2967  -16.7815 C   0  0  0  0  0  0  0  0  0  0  0  0
  -10.1437    4.0780  -17.0957 N   0  0  0  0  0  0  0  0  0  0  0  0
  -10.2674    4.5413  -18.3099 C   0  0  0  0  0  0  0  0  0  0  0  0
   -9.0530    4.7544  -18.8889 N   0  0  0  0  0  0  0  0  0  0  0  0
   -8.1107    4.7046  -17.8938 C   0  0  0  0  0  0  0  0  0  0  0  0
  1  2  2  0
  2  3  1  0
  3  4  1  0
  4  5  1  0
  5  6  1  0
  6  7  1  0
  7  8  1  0
  2  9  1  0
  9 10  1  0
 10 11  2  0
 11 12  1  0
 12 13  1  0
 12 14  2  0
 14 15  1  0
 15 16  1  0
 16 17  2  0
 17 18  1  0
 18 19  1  0
 19 10  1  0
 19 15  2  0
M  END
>  <energy_score>  (5327) 
-10.346395

>  <alias>  (5327) 
FFUUOXUZVDFSDL-UHFFFAOYSA-N-P50-P50-P86-601533

>  <HIPPO Pose ID>  (5327) 
91814

>  <smiles>  (5327) 
O=C(CCCCCF)Nc1cc(Br)cc2nc[nH]c12

>  <inchikey>  (5327) 
FFUUOXUZVDFSDL-UHFFFAOYSA-N

>  <distance_score>  (5327) 
1.878599

>  <ref_mols>  (5327) 
Z0846a,Z1597a

>  <ref_pdb>  (5327) 
Z0101a

>  <HIPPO Compound ID>  (5327) 
136769

>  <name>  (5327) 
FFUUOXUZVDFSDL-UHFFFAOYSA-N-P50-P50-P86-601533

>  <inspiration_score>  (5327) 
None

$$$$
GTQNMOVIJQCZRL-UHFFFAOYSA-N-P86-P50-P86-601533
     RDKit          3D

 19 20  0  0  0  0  0  0  0  0999 V2000
   -4.2885    5.6376  -16.2716 C   0  0  0  0  0  0  0  0  0  0  0  0
   -5.7222    5.2550  -16.5164 C   0  0  0  0  0  0  0  0  0  0  0  0
   -6.4778    4.9416  -15.3592 C   0  0  0  0  0  0  0  0  0  0  0  0
   -7.7891    4.4773  -15.4223 C   0  0  0  0  0  0  0  0  0  0  0  0
   -8.3692    4.3784  -16.6784 C   0  0  0  0  0  0  0  0  0  0  0  0
   -9.6608    4.0658  -16.9805 N   0  0  0  0  0  0  0  0  0  0  0  0
   -9.7725    4.3393  -18.2523 C   0  0  0  0  0  0  0  0  0  0  0  0
   -8.5606    4.5692  -18.8287 N   0  0  0  0  0  0  0  0  0  0  0  0
   -7.6374    4.7041  -17.8169 C   0  0  0  0  0  0  0  0  0  0  0  0
   -6.2988    5.1428  -17.8003 C   0  0  0  0  0  0  0  0  0  0  0  0
   -5.6916    5.3790  -19.0460 N   0  0  0  0  0  0  0  0  0  0  0  0
   -4.3713    6.1403  -19.4052 C   0  0  0  0  0  0  0  0  0  0  0  0
   -3.6361    6.7488  -18.7238 O   0  0  0  0  0  0  0  0  0  0  0  0
   -4.0570    5.8949  -20.8939 C   0  0  0  0  0  0  0  0  0  0  0  0
   -5.2396    6.0920  -21.8423 C   0  0  0  0  0  0  0  0  0  0  0  0
   -4.9395    6.6332  -23.2483 C   0  0  0  0  0  0  0  0  0  0  0  0
   -5.1607    8.1349  -23.3718 C   0  0  0  0  0  0  0  0  0  0  0  0
   -4.3236    8.9132  -22.3828 C   0  0  0  0  0  0  0  0  0  0  0  0
   -4.7545    8.6640  -21.1207 F   0  0  0  0  0  0  0  0  0  0  0  0
  1  2  1  0
  2  3  2  0
  3  4  1  0
  4  5  2  0
  5  6  1  0
  6  7  2  0
  7  8  1  0
  8  9  1  0
  9 10  2  0
 10 11  1  0
 11 12  1  0
 12 13  2  0
 12 14  1  0
 14 15  1  0
 15 16  1  0
 16 17  1  0
 17 18  1  0
 18 19  1  0
 10  2  1  0
  9  5  1  0
M  END
>  <energy_score>  (5328) 
-4.376147

>  <alias>  (5328) 
GTQNMOVIJQCZRL-UHFFFAOYSA-N-P86-P50-P86-601533

>  <HIPPO Pose ID>  (5328) 
91817

>  <smiles>  (5328) 
Cc1ccc2nc[nH]c2c1NC(=O)CCCCCF

>  <inchikey>  (5328) 
GTQNMOVIJQCZRL-UHFFFAOYSA-N

>  <distance_score>  (5328) 
1.50913

>  <ref_mols>  (5328) 
Z0846a,Z1597a

>  <ref_pdb>  (5328) 
Z0101a

>  <HIPPO Compound ID>  (5328) 
136770

>  <name>  (5328) 
GTQNMOVIJQCZRL-UHFFFAOYSA-N-P86-P50-P86-601533

>  <inspiration_score>  (5328) 
None

$$$$
XIYUPBDCWLBLKX-UHFFFAOYSA-N-P50-P50-P86-601533
     RDKit          3D

 19 20  0  0  0  0  0  0  0  0999 V2000
   -5.7962    7.4993  -24.3388 C   0  0  0  0  0  0  0  0  0  0  0  0
   -5.2638    7.9897  -23.0008 C   0  0  0  0  0  0  0  0  0  0  0  0
   -4.4983    6.8895  -22.2612 C   0  0  0  0  0  0  0  0  0  0  0  0
   -4.0539    7.2560  -20.8301 C   0  0  2  0  0  0  0  0  0  0  0  0
   -3.2679    8.5706  -20.7767 C   0  0  0  0  0  0  0  0  0  0  0  0
   -3.2040    6.1262  -20.1986 C   0  0  0  0  0  0  0  0  0  0  0  0
   -3.5393    5.9500  -18.7161 C   0  0  0  0  0  0  0  0  0  0  0  0
   -2.8856    6.3618  -17.8401 O   0  0  0  0  0  0  0  0  0  0  0  0
   -4.9173    5.2363  -18.6933 N   0  0  0  0  0  0  0  0  0  0  0  0
   -5.7805    4.9793  -17.6398 C   0  0  0  0  0  0  0  0  0  0  0  0
   -5.5406    5.2245  -16.2929 C   0  0  0  0  0  0  0  0  0  0  0  0
   -6.5659    5.0398  -15.3492 C   0  0  0  0  0  0  0  0  0  0  0  0
   -7.8642    4.6603  -15.7208 C   0  0  0  0  0  0  0  0  0  0  0  0
   -8.0713    4.4520  -17.0828 C   0  0  0  0  0  0  0  0  0  0  0  0
   -7.0537    4.5404  -18.0185 C   0  0  0  0  0  0  0  0  0  0  0  0
   -7.4906    4.2320  -19.2750 N   0  0  0  0  0  0  0  0  0  0  0  0
   -8.7867    4.1452  -19.1516 C   0  0  0  0  0  0  0  0  0  0  0  0
   -9.1735    4.2107  -17.8550 N   0  0  0  0  0  0  0  0  0  0  0  0
  -10.5302    4.2146  -17.4099 C   0  0  0  0  0  0  0  0  0  0  0  0
  1  2  1  0
  2  3  1  0
  3  4  1  0
  4  5  1  6
  4  6  1  0
  6  7  1  0
  7  8  2  0
  7  9  1  0
  9 10  1  0
 10 11  2  0
 11 12  1  0
 12 13  2  0
 13 14  1  0
 14 15  2  0
 15 16  1  0
 16 17  2  0
 17 18  1  0
 18 19  1  0
 15 10  1  0
 18 14  1  0
M  END
>  <energy_score>  (5329) 
-5.691587

>  <alias>  (5329) 
XIYUPBDCWLBLKX-UHFFFAOYSA-N-P50-P50-P86-601533

>  <HIPPO Pose ID>  (5329) 
91832

>  <smiles>  (5329) 
CCCC(C)CC(=O)Nc1cccc2c1ncn2C

>  <inchikey>  (5329) 
XIYUPBDCWLBLKX-UHFFFAOYSA-N

>  <distance_score>  (5329) 
1.315001

>  <ref_mols>  (5329) 
Z0846a,Z1597a

>  <ref_pdb>  (5329) 
Z0101a

>  <HIPPO Compound ID>  (5329) 
136778

>  <name>  (5329) 
XIYUPBDCWLBLKX-UHFFFAOYSA-N-P50-P50-P86-601533

>  <inspiration_score>  (5329) 
None

$$$$
DXWFGUGMDFNMGJ-UHFFFAOYSA-N-P50-P50-P86-601533
     RDKit          3D

 19 20  0  0  0  0  0  0  0  0999 V2000
   -5.8707    7.7318  -24.5905 C   0  0  0  0  0  0  0  0  0  0  0  0
   -5.4316    8.0907  -23.1792 C   0  0  0  0  0  0  0  0  0  0  0  0
   -4.8699    6.8713  -22.4508 C   0  0  0  0  0  0  0  0  0  0  0  0
   -4.6537    7.0679  -20.9381 C   0  0  2  0  0  0  0  0  0  0  0  0
   -3.7117    8.2349  -20.6314 C   0  0  0  0  0  0  0  0  0  0  0  0
   -4.1069    5.7708  -20.3253 C   0  0  0  0  0  0  0  0  0  0  0  0
   -4.4282    5.6242  -18.8463 C   0  0  0  0  0  0  0  0  0  0  0  0
   -3.6325    5.7557  -17.9992 O   0  0  0  0  0  0  0  0  0  0  0  0
   -5.9227    5.1854  -18.7693 N   0  0  0  0  0  0  0  0  0  0  0  0
   -6.7290    4.9234  -17.6705 C   0  0  0  0  0  0  0  0  0  0  0  0
   -6.2391    4.8977  -16.3638 C   0  0  0  0  0  0  0  0  0  0  0  0
   -7.0838    4.5983  -15.2916 C   0  0  0  0  0  0  0  0  0  0  0  0
   -6.4385    4.6864  -13.5246 Br  0  0  0  0  0  0  0  0  0  0  0  0
   -8.4235    4.2779  -15.4722 C   0  0  0  0  0  0  0  0  0  0  0  0
   -8.9264    4.3384  -16.7653 C   0  0  0  0  0  0  0  0  0  0  0  0
  -10.2139    4.1909  -17.1788 N   0  0  0  0  0  0  0  0  0  0  0  0
  -10.2106    4.6180  -18.4117 C   0  0  0  0  0  0  0  0  0  0  0  0
   -8.9440    4.7415  -18.8955 N   0  0  0  0  0  0  0  0  0  0  0  0
   -8.0907    4.6699  -17.8259 C   0  0  0  0  0  0  0  0  0  0  0  0
  1  2  1  0
  2  3  1  0
  3  4  1  0
  4  5  1  6
  4  6  1  0
  6  7  1  0
  7  8  2  0
  7  9  1  0
  9 10  1  0
 10 11  2  0
 11 12  1  0
 12 13  1  0
 12 14  2  0
 14 15  1  0
 15 16  1  0
 16 17  2  0
 17 18  1  0
 18 19  1  0
 19 10  1  0
 19 15  2  0
M  END
>  <energy_score>  (5330) 
-12.817947

>  <alias>  (5330) 
DXWFGUGMDFNMGJ-UHFFFAOYSA-N-P50-P50-P86-601533

>  <HIPPO Pose ID>  (5330) 
91838

>  <smiles>  (5330) 
CCCC(C)CC(=O)Nc1cc(Br)cc2nc[nH]c12

>  <inchikey>  (5330) 
DXWFGUGMDFNMGJ-UHFFFAOYSA-N

>  <distance_score>  (5330) 
0.874527

>  <ref_mols>  (5330) 
Z0846a,Z1597a

>  <ref_pdb>  (5330) 
Z0101a

>  <HIPPO Compound ID>  (5330) 
136781

>  <name>  (5330) 
DXWFGUGMDFNMGJ-UHFFFAOYSA-N-P50-P50-P86-601533

>  <inspiration_score>  (5330) 
None

$$$$
IBKQHWBSOBDVSK-UHFFFAOYSA-N-P86-P50-P86-601533
     RDKit          3D

 19 20  0  0  0  0  0  0  0  0999 V2000
   -5.9229    8.1014  -24.6295 C   0  0  0  0  0  0  0  0  0  0  0  0
   -5.3027    8.2960  -23.2563 C   0  0  0  0  0  0  0  0  0  0  0  0
   -5.1121    6.9793  -22.5337 C   0  0  0  0  0  0  0  0  0  0  0  0
   -5.4933    5.9264  -23.0361 O   0  0  0  0  0  0  0  0  0  0  0  0
   -4.4665    7.0507  -21.1625 C   0  0  0  0  0  0  0  0  0  0  0  0
   -4.1349    5.6888  -20.5730 C   0  0  0  0  0  0  0  0  0  0  0  0
   -4.4374    5.6707  -19.0858 C   0  0  0  0  0  0  0  0  0  0  0  0
   -3.6456    5.9562  -18.2745 O   0  0  0  0  0  0  0  0  0  0  0  0
   -5.9242    5.2349  -18.9346 N   0  0  0  0  0  0  0  0  0  0  0  0
   -6.6776    4.9810  -17.7962 C   0  0  0  0  0  0  0  0  0  0  0  0
   -6.1712    5.0999  -16.4990 C   0  0  0  0  0  0  0  0  0  0  0  0
   -6.9676    4.7965  -15.3876 C   0  0  0  0  0  0  0  0  0  0  0  0
   -6.3064    5.0505  -13.6419 Br  0  0  0  0  0  0  0  0  0  0  0  0
   -8.2742    4.3425  -15.5137 C   0  0  0  0  0  0  0  0  0  0  0  0
   -8.8012    4.2887  -16.7961 C   0  0  0  0  0  0  0  0  0  0  0  0
  -10.0907    4.0718  -17.1602 N   0  0  0  0  0  0  0  0  0  0  0  0
  -10.1360    4.4381  -18.4108 C   0  0  0  0  0  0  0  0  0  0  0  0
   -8.8897    4.5388  -18.9495 N   0  0  0  0  0  0  0  0  0  0  0  0
   -8.0134    4.6054  -17.8976 C   0  0  0  0  0  0  0  0  0  0  0  0
  1  2  1  0
  2  3  1  0
  3  4  2  0
  3  5  1  0
  5  6  1  0
  6  7  1  0
  7  8  2  0
  7  9  1  0
  9 10  1  0
 10 11  2  0
 11 12  1  0
 12 13  1  0
 12 14  2  0
 14 15  1  0
 15 16  1  0
 16 17  2  0
 17 18  1  0
 18 19  1  0
 19 10  1  0
 19 15  2  0
M  END
>  <energy_score>  (5331) 
-13.27936

>  <alias>  (5331) 
IBKQHWBSOBDVSK-UHFFFAOYSA-N-P86-P50-P86-601533

>  <HIPPO Pose ID>  (5331) 
91843

>  <smiles>  (5331) 
CCC(=O)CCC(=O)Nc1cc(Br)cc2nc[nH]c12

>  <inchikey>  (5331) 
IBKQHWBSOBDVSK-UHFFFAOYSA-N

>  <distance_score>  (5331) 
0.989197

>  <ref_mols>  (5331) 
Z0846a,Z1597a

>  <ref_pdb>  (5331) 
Z0101a

>  <HIPPO Compound ID>  (5331) 
136783

>  <name>  (5331) 
IBKQHWBSOBDVSK-UHFFFAOYSA-N-P86-P50-P86-601533

>  <inspiration_score>  (5331) 
None

$$$$
RDYWZXXUPCIRQJ-UHFFFAOYSA-N-P50-P50-P86-601533
     RDKit          3D

 19 20  0  0  0  0  0  0  0  0999 V2000
   -5.8454    8.0124  -24.6132 C   0  0  0  0  0  0  0  0  0  0  0  0
   -5.2154    8.2117  -23.2448 C   0  0  0  0  0  0  0  0  0  0  0  0
   -5.2232    6.9343  -22.4337 C   0  0  0  0  0  0  0  0  0  0  0  0
   -5.8203    5.9383  -22.8335 O   0  0  0  0  0  0  0  0  0  0  0  0
   -4.5356    6.9810  -21.0813 C   0  0  0  0  0  0  0  0  0  0  0  0
   -4.2095    5.5959  -20.5523 C   0  0  0  0  0  0  0  0  0  0  0  0
   -4.3494    5.5034  -19.0531 C   0  0  0  0  0  0  0  0  0  0  0  0
   -3.4342    5.5325  -18.3241 O   0  0  0  0  0  0  0  0  0  0  0  0
   -5.8707    5.3073  -18.7598 N   0  0  0  0  0  0  0  0  0  0  0  0
   -6.5370    5.0219  -17.5594 C   0  0  0  0  0  0  0  0  0  0  0  0
   -6.0130    4.9923  -16.2490 C   0  0  0  0  0  0  0  0  0  0  0  0
   -4.6047    5.3643  -15.8834 C   0  0  0  0  0  0  0  0  0  0  0  0
   -6.8232    4.5757  -15.1690 C   0  0  0  0  0  0  0  0  0  0  0  0
   -8.1591    4.2239  -15.3295 C   0  0  0  0  0  0  0  0  0  0  0  0
   -8.7043    4.3219  -16.6018 C   0  0  0  0  0  0  0  0  0  0  0  0
   -9.9972    4.1245  -16.9845 N   0  0  0  0  0  0  0  0  0  0  0  0
  -10.0385    4.5175  -18.2293 C   0  0  0  0  0  0  0  0  0  0  0  0
   -8.7891    4.7273  -18.7298 N   0  0  0  0  0  0  0  0  0  0  0  0
   -7.9068    4.7111  -17.6720 C   0  0  0  0  0  0  0  0  0  0  0  0
  1  2  1  0
  2  3  1  0
  3  4  2  0
  3  5  1  0
  5  6  1  0
  6  7  1  0
  7  8  2  0
  7  9  1  0
  9 10  1  0
 10 11  2  0
 11 12  1  0
 11 13  1  0
 13 14  2  0
 14 15  1  0
 15 16  1  0
 16 17  2  0
 17 18  1  0
 18 19  1  0
 19 10  1  0
 19 15  2  0
M  END
>  <energy_score>  (5332) 
-13.969519

>  <alias>  (5332) 
RDYWZXXUPCIRQJ-UHFFFAOYSA-N-P50-P50-P86-601533

>  <HIPPO Pose ID>  (5332) 
91844

>  <smiles>  (5332) 
CCC(=O)CCC(=O)Nc1c(C)ccc2nc[nH]c12

>  <inchikey>  (5332) 
RDYWZXXUPCIRQJ-UHFFFAOYSA-N

>  <distance_score>  (5332) 
1.173033

>  <ref_mols>  (5332) 
Z0846a,Z1597a

>  <ref_pdb>  (5332) 
Z0101a

>  <HIPPO Compound ID>  (5332) 
136784

>  <name>  (5332) 
RDYWZXXUPCIRQJ-UHFFFAOYSA-N-P50-P50-P86-601533

>  <inspiration_score>  (5332) 
None

$$$$
KGXXIGJEHBDLPV-UHFFFAOYSA-N-P50-P50-P86-601533
     RDKit          3D

 19 20  0  0  0  0  0  0  0  0999 V2000
   -5.6444    7.2655  -24.1288 C   0  0  0  0  0  0  0  0  0  0  0  0
   -5.0844    7.8750  -22.8581 C   0  0  0  0  0  0  0  0  0  0  0  0
   -4.7237    6.8307  -21.8115 C   0  0  0  0  0  0  0  0  0  0  0  0
   -5.4149    5.8365  -21.6120 O   0  0  0  0  0  0  0  0  0  0  0  0
   -3.5235    7.1268  -20.9316 C   0  0  0  0  0  0  0  0  0  0  0  0
   -2.9676    5.9037  -20.2034 C   0  0  0  0  0  0  0  0  0  0  0  0
   -3.4120    5.8431  -18.7453 C   0  0  0  0  0  0  0  0  0  0  0  0
   -2.7088    6.1242  -17.8556 O   0  0  0  0  0  0  0  0  0  0  0  0
   -4.8959    5.3983  -18.7503 N   0  0  0  0  0  0  0  0  0  0  0  0
   -5.7605    5.1264  -17.6965 C   0  0  0  0  0  0  0  0  0  0  0  0
   -5.5129    5.3779  -16.3497 C   0  0  0  0  0  0  0  0  0  0  0  0
   -6.5185    5.1679  -15.3893 C   0  0  0  0  0  0  0  0  0  0  0  0
   -7.8088    4.7480  -15.7402 C   0  0  0  0  0  0  0  0  0  0  0  0
   -8.0232    4.5180  -17.0969 C   0  0  0  0  0  0  0  0  0  0  0  0
   -7.0210    4.6347  -18.0481 C   0  0  0  0  0  0  0  0  0  0  0  0
   -7.4581    4.2696  -19.2832 N   0  0  0  0  0  0  0  0  0  0  0  0
   -8.7466    4.1267  -19.1469 C   0  0  0  0  0  0  0  0  0  0  0  0
   -9.1257    4.2234  -17.8512 N   0  0  0  0  0  0  0  0  0  0  0  0
  -10.4789    4.2017  -17.3956 C   0  0  0  0  0  0  0  0  0  0  0  0
  1  2  1  0
  2  3  1  0
  3  4  2  0
  3  5  1  0
  5  6  1  0
  6  7  1  0
  7  8  2  0
  7  9  1  0
  9 10  1  0
 10 11  2  0
 11 12  1  0
 12 13  2  0
 13 14  1  0
 14 15  2  0
 15 16  1  0
 16 17  2  0
 17 18  1  0
 18 19  1  0
 15 10  1  0
 18 14  1  0
M  END
>  <energy_score>  (5333) 
-5.602615

>  <alias>  (5333) 
KGXXIGJEHBDLPV-UHFFFAOYSA-N-P50-P50-P86-601533

>  <HIPPO Pose ID>  (5333) 
91850

>  <smiles>  (5333) 
CCC(=O)CCC(=O)Nc1cccc2c1ncn2C

>  <inchikey>  (5333) 
KGXXIGJEHBDLPV-UHFFFAOYSA-N

>  <distance_score>  (5333) 
1.431225

>  <ref_mols>  (5333) 
Z0846a,Z1597a

>  <ref_pdb>  (5333) 
Z0101a

>  <HIPPO Compound ID>  (5333) 
136787

>  <name>  (5333) 
KGXXIGJEHBDLPV-UHFFFAOYSA-N-P50-P50-P86-601533

>  <inspiration_score>  (5333) 
None

$$$$
JANQUOLVGKRIQT-UHFFFAOYSA-N-P86-P50-P86-601533
     RDKit          3D

 19 21  0  0  0  0  0  0  0  0999 V2000
   -3.7156    5.8297  -18.2716 O   0  0  0  0  0  0  0  0  0  0  0  0
   -4.5430    5.5506  -19.0507 C   0  0  0  0  0  0  0  0  0  0  0  0
   -4.2641    5.4721  -20.5560 C   0  0  0  0  0  0  0  0  0  0  0  0
   -4.4710    6.7702  -21.2601 C   0  0  0  0  0  0  0  0  0  0  0  0
   -5.1240    6.9526  -22.4161 C   0  0  0  0  0  0  0  0  0  0  0  0
   -5.1069    8.3724  -22.8457 C   0  0  0  0  0  0  0  0  0  0  0  0
   -4.0560    8.9895  -21.9265 C   0  0  0  0  0  0  0  0  0  0  0  0
   -3.9098    8.0529  -20.7337 C   0  0  0  0  0  0  0  0  0  0  0  0
   -6.0290    5.1395  -18.8396 N   0  0  0  0  0  0  0  0  0  0  0  0
   -6.7423    4.9058  -17.6719 C   0  0  0  0  0  0  0  0  0  0  0  0
   -6.1936    5.0526  -16.3948 C   0  0  0  0  0  0  0  0  0  0  0  0
   -6.9810    4.8293  -15.2595 C   0  0  0  0  0  0  0  0  0  0  0  0
   -6.3262    5.0754  -13.6928 Cl  0  0  0  0  0  0  0  0  0  0  0  0
   -8.3215    4.4611  -15.3362 C   0  0  0  0  0  0  0  0  0  0  0  0
   -8.8426    4.3781  -16.6144 C   0  0  0  0  0  0  0  0  0  0  0  0
  -10.1274    4.2549  -17.0557 N   0  0  0  0  0  0  0  0  0  0  0  0
  -10.1193    4.4775  -18.3924 C   0  0  0  0  0  0  0  0  0  0  0  0
   -8.9032    4.4832  -18.8752 N   0  0  0  0  0  0  0  0  0  0  0  0
   -8.0985    4.5620  -17.7716 C   0  0  0  0  0  0  0  0  0  0  0  0
  1  2  2  0
  2  3  1  0
  3  4  1  0
  4  5  2  0
  5  6  1  0
  6  7  1  0
  7  8  1  0
  2  9  1  0
  9 10  1  0
 10 11  2  0
 11 12  1  0
 12 13  1  0
 12 14  2  0
 14 15  1  0
 15 16  1  0
 16 17  1  0
 17 18  2  0
 18 19  1  0
  8  4  1  0
 19 10  1  0
 19 15  2  0
M  END
>  <energy_score>  (5334) 
-19.825886

>  <alias>  (5334) 
JANQUOLVGKRIQT-UHFFFAOYSA-N-P86-P50-P86-601533

>  <HIPPO Pose ID>  (5334) 
91859

>  <smiles>  (5334) 
O=C(CC1=CCCC1)Nc1cc(Cl)cc2[nH]cnc12

>  <inchikey>  (5334) 
JANQUOLVGKRIQT-UHFFFAOYSA-N

>  <distance_score>  (5334) 
1.250572

>  <ref_mols>  (5334) 
Z0846a,Z1597a

>  <ref_pdb>  (5334) 
Z0101a

>  <HIPPO Compound ID>  (5334) 
136791

>  <name>  (5334) 
JANQUOLVGKRIQT-UHFFFAOYSA-N-P86-P50-P86-601533

>  <inspiration_score>  (5334) 
None

$$$$
XOALDPZBOKTZPA-UHFFFAOYSA-N-P86-P50-P86-601533
     RDKit          3D

 19 21  0  0  0  0  0  0  0  0999 V2000
   -6.1084    5.0726  -13.8511 C   0  0  0  0  0  0  0  0  0  0  0  0
   -6.7274    4.9210  -15.2018 C   0  0  0  0  0  0  0  0  0  0  0  0
   -6.0132    5.2117  -16.3779 C   0  0  0  0  0  0  0  0  0  0  0  0
   -6.5873    5.0662  -17.6475 C   0  0  0  0  0  0  0  0  0  0  0  0
   -5.8860    5.2981  -18.8219 N   0  0  0  0  0  0  0  0  0  0  0  0
   -4.3867    5.6676  -19.0505 C   0  0  0  0  0  0  0  0  0  0  0  0
   -3.5388    5.9071  -18.2797 O   0  0  0  0  0  0  0  0  0  0  0  0
   -4.1584    5.6119  -20.5656 C   0  0  0  0  0  0  0  0  0  0  0  0
   -4.4489    6.8950  -21.2701 C   0  0  0  0  0  0  0  0  0  0  0  0
   -4.4448    8.1407  -20.7781 C   0  0  0  0  0  0  0  0  0  0  0  0
   -4.7140    9.1492  -21.8357 C   0  0  0  0  0  0  0  0  0  0  0  0
   -5.2116    8.3067  -23.0062 C   0  0  0  0  0  0  0  0  0  0  0  0
   -4.7354    6.8871  -22.7423 C   0  0  0  0  0  0  0  0  0  0  0  0
   -7.9133    4.6471  -17.6771 C   0  0  0  0  0  0  0  0  0  0  0  0
   -8.8428    4.5163  -18.6780 N   0  0  0  0  0  0  0  0  0  0  0  0
  -10.0382    4.2670  -18.0746 C   0  0  0  0  0  0  0  0  0  0  0  0
   -9.8930    3.9611  -16.8156 N   0  0  0  0  0  0  0  0  0  0  0  0
   -8.6155    4.3053  -16.5263 C   0  0  0  0  0  0  0  0  0  0  0  0
   -8.0231    4.4140  -15.2731 C   0  0  0  0  0  0  0  0  0  0  0  0
  1  2  1  0
  2  3  2  0
  3  4  1  0
  4  5  1  0
  5  6  1  0
  6  7  2  0
  6  8  1  0
  8  9  1  0
  9 10  2  0
 10 11  1  0
 11 12  1  0
 12 13  1  0
  4 14  2  0
 14 15  1  0
 15 16  1  0
 16 17  2  0
 17 18  1  0
 18 19  2  0
 19  2  1  0
 13  9  1  0
 18 14  1  0
M  END
>  <energy_score>  (5335) 
-23.545962

>  <alias>  (5335) 
XOALDPZBOKTZPA-UHFFFAOYSA-N-P86-P50-P86-601533

>  <HIPPO Pose ID>  (5335) 
91865

>  <smiles>  (5335) 
Cc1cc(NC(=O)CC2=CCCC2)c2[nH]cnc2c1

>  <inchikey>  (5335) 
XOALDPZBOKTZPA-UHFFFAOYSA-N

>  <distance_score>  (5335) 
1.563802

>  <ref_mols>  (5335) 
Z0846a,Z1597a

>  <ref_pdb>  (5335) 
Z0101a

>  <HIPPO Compound ID>  (5335) 
136794

>  <name>  (5335) 
XOALDPZBOKTZPA-UHFFFAOYSA-N-P86-P50-P86-601533

>  <inspiration_score>  (5335) 
None

$$$$
XBCNFFBTBBBCNJ-UHFFFAOYSA-N-P50-P50-P86-601533
     RDKit          3D

 19 21  0  0  0  0  0  0  0  0999 V2000
  -10.5109    4.2229  -17.4270 C   0  0  0  0  0  0  0  0  0  0  0  0
   -9.1513    4.2259  -17.8654 N   0  0  0  0  0  0  0  0  0  0  0  0
   -8.7520    4.1466  -19.1571 C   0  0  0  0  0  0  0  0  0  0  0  0
   -7.4544    4.2368  -19.2702 N   0  0  0  0  0  0  0  0  0  0  0  0
   -7.0246    4.5495  -18.0110 C   0  0  0  0  0  0  0  0  0  0  0  0
   -5.7504    4.9703  -17.6106 C   0  0  0  0  0  0  0  0  0  0  0  0
   -4.8339    5.1977  -18.6278 N   0  0  0  0  0  0  0  0  0  0  0  0
   -3.4341    5.8754  -18.5934 C   0  0  0  0  0  0  0  0  0  0  0  0
   -2.8077    6.2755  -17.6900 O   0  0  0  0  0  0  0  0  0  0  0  0
   -2.9920    6.0001  -20.0636 C   0  0  0  0  0  0  0  0  0  0  0  0
   -3.7605    7.0601  -20.7988 C   0  0  0  0  0  0  0  0  0  0  0  0
   -3.8754    8.3491  -20.4581 C   0  0  0  0  0  0  0  0  0  0  0  0
   -4.7395    9.1039  -21.4013 C   0  0  0  0  0  0  0  0  0  0  0  0
   -5.0388    8.1098  -22.5185 C   0  0  0  0  0  0  0  0  0  0  0  0
   -4.5199    6.7555  -22.0556 C   0  0  0  0  0  0  0  0  0  0  0  0
   -5.5342    5.2149  -16.2572 C   0  0  0  0  0  0  0  0  0  0  0  0
   -6.5747    5.0472  -15.3289 C   0  0  0  0  0  0  0  0  0  0  0  0
   -7.8681    4.6804  -15.7211 C   0  0  0  0  0  0  0  0  0  0  0  0
   -8.0553    4.4704  -17.0859 C   0  0  0  0  0  0  0  0  0  0  0  0
  1  2  1  0
  2  3  1  0
  3  4  2  0
  4  5  1  0
  5  6  2  0
  6  7  1  0
  7  8  1  0
  8  9  2  0
  8 10  1  0
 10 11  1  0
 11 12  2  0
 12 13  1  0
 13 14  1  0
 14 15  1  0
  6 16  1  0
 16 17  2  0
 17 18  1  0
 18 19  2  0
 19  2  1  0
 19  5  1  0
 15 11  1  0
M  END
>  <energy_score>  (5336) 
-2.682218

>  <alias>  (5336) 
XBCNFFBTBBBCNJ-UHFFFAOYSA-N-P50-P50-P86-601533

>  <HIPPO Pose ID>  (5336) 
91866

>  <smiles>  (5336) 
Cn1cnc2c(NC(=O)CC3=CCCC3)cccc21

>  <inchikey>  (5336) 
XBCNFFBTBBBCNJ-UHFFFAOYSA-N

>  <distance_score>  (5336) 
1.825439

>  <ref_mols>  (5336) 
Z0846a,Z1597a

>  <ref_pdb>  (5336) 
Z0101a

>  <HIPPO Compound ID>  (5336) 
136795

>  <name>  (5336) 
XBCNFFBTBBBCNJ-UHFFFAOYSA-N-P50-P50-P86-601533

>  <inspiration_score>  (5336) 
None

$$$$
UOLPHLPBKDHASG-UHFFFAOYSA-N-P50-P50-P86-601533
     RDKit          3D

 19 20  0  0  0  0  0  0  0  0999 V2000
   -5.3475   10.1472  -23.2877 C   0  0  0  0  0  0  0  0  0  0  0  0
   -5.3091    8.9501  -23.1991 C   0  0  0  0  0  0  0  0  0  0  0  0
   -5.2863    7.4805  -23.2074 C   0  0  0  0  0  0  0  0  0  0  0  0
   -5.3076    6.8437  -21.8146 C   0  0  0  0  0  0  0  0  0  0  0  0
   -3.9704    6.8850  -21.0708 C   0  0  0  0  0  0  0  0  0  0  0  0
   -3.7354    5.6688  -20.1755 C   0  0  0  0  0  0  0  0  0  0  0  0
   -4.2371    5.7523  -18.7362 C   0  0  0  0  0  0  0  0  0  0  0  0
   -3.5200    6.0235  -17.8515 O   0  0  0  0  0  0  0  0  0  0  0  0
   -5.7370    5.3249  -18.7262 N   0  0  0  0  0  0  0  0  0  0  0  0
   -6.5966    5.0630  -17.6595 C   0  0  0  0  0  0  0  0  0  0  0  0
   -6.1667    5.0890  -16.3297 C   0  0  0  0  0  0  0  0  0  0  0  0
   -7.0285    4.7333  -15.2855 C   0  0  0  0  0  0  0  0  0  0  0  0
   -6.4487    4.8514  -13.4972 Br  0  0  0  0  0  0  0  0  0  0  0  0
   -8.3374    4.3263  -15.5092 C   0  0  0  0  0  0  0  0  0  0  0  0
   -8.7970    4.3669  -16.8181 C   0  0  0  0  0  0  0  0  0  0  0  0
  -10.0688    4.1754  -17.2666 N   0  0  0  0  0  0  0  0  0  0  0  0
  -10.0396    4.6124  -18.4960 C   0  0  0  0  0  0  0  0  0  0  0  0
   -8.7628    4.7609  -18.9451 N   0  0  0  0  0  0  0  0  0  0  0  0
   -7.9382    4.7306  -17.8530 C   0  0  0  0  0  0  0  0  0  0  0  0
  1  2  3  0
  2  3  1  0
  3  4  1  0
  4  5  1  0
  5  6  1  0
  6  7  1  0
  7  8  2  0
  7  9  1  0
  9 10  1  0
 10 11  2  0
 11 12  1  0
 12 13  1  0
 12 14  2  0
 14 15  1  0
 15 16  1  0
 16 17  2  0
 17 18  1  0
 18 19  1  0
 19 10  1  0
 19 15  2  0
M  END
>  <energy_score>  (5337) 
-17.005869

>  <alias>  (5337) 
UOLPHLPBKDHASG-UHFFFAOYSA-N-P50-P50-P86-601533

>  <HIPPO Pose ID>  (5337) 
91872

>  <smiles>  (5337) 
C#CCCCCC(=O)Nc1cc(Br)cc2nc[nH]c12

>  <inchikey>  (5337) 
UOLPHLPBKDHASG-UHFFFAOYSA-N

>  <distance_score>  (5337) 
1.145245

>  <ref_mols>  (5337) 
Z0846a,Z1597a

>  <ref_pdb>  (5337) 
Z0101a

>  <HIPPO Compound ID>  (5337) 
136798

>  <name>  (5337) 
UOLPHLPBKDHASG-UHFFFAOYSA-N-P50-P50-P86-601533

>  <inspiration_score>  (5337) 
None

$$$$
XZYIKVGADODDSA-UHFFFAOYSA-N-P50-P50-P86-601533
     RDKit          3D

 19 20  0  0  0  0  0  0  0  0999 V2000
   -5.3008   10.1423  -23.2367 C   0  0  0  0  0  0  0  0  0  0  0  0
   -5.2441    8.9447  -23.1645 C   0  0  0  0  0  0  0  0  0  0  0  0
   -5.2070    7.4756  -23.2005 C   0  0  0  0  0  0  0  0  0  0  0  0
   -5.3472    6.8056  -21.8310 C   0  0  0  0  0  0  0  0  0  0  0  0
   -4.0526    6.6888  -21.0192 C   0  0  0  0  0  0  0  0  0  0  0  0
   -3.9744    5.3872  -20.2148 C   0  0  0  0  0  0  0  0  0  0  0  0
   -4.3756    5.4570  -18.7462 C   0  0  0  0  0  0  0  0  0  0  0  0
   -3.5843    5.6354  -17.9021 O   0  0  0  0  0  0  0  0  0  0  0  0
   -5.9011    5.1536  -18.6520 N   0  0  0  0  0  0  0  0  0  0  0  0
   -6.7109    4.9230  -17.5412 C   0  0  0  0  0  0  0  0  0  0  0  0
   -6.2266    4.9784  -16.2319 C   0  0  0  0  0  0  0  0  0  0  0  0
   -7.0860    4.7597  -15.1503 C   0  0  0  0  0  0  0  0  0  0  0  0
   -6.4909    4.8857  -13.5459 Cl  0  0  0  0  0  0  0  0  0  0  0  0
   -8.4444    4.4972  -15.3097 C   0  0  0  0  0  0  0  0  0  0  0  0
   -8.9043    4.4947  -16.6145 C   0  0  0  0  0  0  0  0  0  0  0  0
  -10.1722    4.4541  -17.1248 N   0  0  0  0  0  0  0  0  0  0  0  0
  -10.0714    4.6632  -18.4623 C   0  0  0  0  0  0  0  0  0  0  0  0
   -8.8270    4.6234  -18.8685 N   0  0  0  0  0  0  0  0  0  0  0  0
   -8.0817    4.6593  -17.7232 C   0  0  0  0  0  0  0  0  0  0  0  0
  1  2  3  0
  2  3  1  0
  3  4  1  0
  4  5  1  0
  5  6  1  0
  6  7  1  0
  7  8  2  0
  7  9  1  0
  9 10  1  0
 10 11  2  0
 11 12  1  0
 12 13  1  0
 12 14  2  0
 14 15  1  0
 15 16  1  0
 16 17  1  0
 17 18  2  0
 18 19  1  0
 19 10  1  0
 19 15  2  0
M  END
>  <energy_score>  (5338) 
-17.975377

>  <alias>  (5338) 
XZYIKVGADODDSA-UHFFFAOYSA-N-P50-P50-P86-601533

>  <HIPPO Pose ID>  (5338) 
91886

>  <smiles>  (5338) 
C#CCCCCC(=O)Nc1cc(Cl)cc2[nH]cnc12

>  <inchikey>  (5338) 
XZYIKVGADODDSA-UHFFFAOYSA-N

>  <distance_score>  (5338) 
1.049016

>  <ref_mols>  (5338) 
Z0846a,Z1597a

>  <ref_pdb>  (5338) 
Z0101a

>  <HIPPO Compound ID>  (5338) 
136805

>  <name>  (5338) 
XZYIKVGADODDSA-UHFFFAOYSA-N-P50-P50-P86-601533

>  <inspiration_score>  (5338) 
None

$$$$
CWLWYBOFALPBLF-UHFFFAOYSA-N-P50-P50-P86-601533
     RDKit          3D

 19 20  0  0  0  0  0  0  0  0999 V2000
   -5.8280    7.6926  -24.6016 C   0  0  0  0  0  0  0  0  0  0  0  0
   -5.4449    8.0508  -23.1752 C   0  0  0  0  0  0  0  0  0  0  0  0
   -4.8697    6.8451  -22.4372 C   0  0  0  0  0  0  0  0  0  0  0  0
   -4.6759    7.1155  -20.9429 C   0  0  0  0  0  0  0  0  0  0  0  0
   -3.9812    5.9447  -20.2469 C   0  0  1  0  0  0  0  0  0  0  0  0
   -2.5724    6.0978  -20.4257 O   0  0  0  0  0  0  0  0  0  0  0  0
   -4.3316    5.8570  -18.7426 C   0  0  0  0  0  0  0  0  0  0  0  0
   -3.5200    6.0078  -17.9099 O   0  0  0  0  0  0  0  0  0  0  0  0
   -5.8410    5.4710  -18.6268 N   0  0  0  0  0  0  0  0  0  0  0  0
   -6.5984    5.1152  -17.5172 C   0  0  0  0  0  0  0  0  0  0  0  0
   -6.0714    5.1357  -16.2198 C   0  0  0  0  0  0  0  0  0  0  0  0
   -6.8342    4.7630  -15.1017 C   0  0  0  0  0  0  0  0  0  0  0  0
   -6.2657    4.8035  -13.7211 C   0  0  0  0  0  0  0  0  0  0  0  0
   -8.1383    4.3007  -15.2637 C   0  0  0  0  0  0  0  0  0  0  0  0
   -8.6906    4.3148  -16.5411 C   0  0  0  0  0  0  0  0  0  0  0  0
   -9.9672    4.0243  -16.9036 N   0  0  0  0  0  0  0  0  0  0  0  0
  -10.0523    4.4275  -18.1414 C   0  0  0  0  0  0  0  0  0  0  0  0
   -8.8285    4.7092  -18.6729 N   0  0  0  0  0  0  0  0  0  0  0  0
   -7.9330    4.7291  -17.6334 C   0  0  0  0  0  0  0  0  0  0  0  0
  1  2  1  0
  2  3  1  0
  3  4  1  0
  4  5  1  0
  5  6  1  1
  5  7  1  0
  7  8  2  0
  7  9  1  0
  9 10  1  0
 10 11  2  0
 11 12  1  0
 12 13  1  0
 12 14  2  0
 14 15  1  0
 15 16  1  0
 16 17  2  0
 17 18  1  0
 18 19  1  0
 19 10  1  0
 19 15  2  0
M  END
>  <energy_score>  (5339) 
-25.442619

>  <alias>  (5339) 
CWLWYBOFALPBLF-UHFFFAOYSA-N-P50-P50-P86-601533

>  <HIPPO Pose ID>  (5339) 
91892

>  <smiles>  (5339) 
CCCCC(O)C(=O)Nc1cc(C)cc2nc[nH]c12

>  <inchikey>  (5339) 
CWLWYBOFALPBLF-UHFFFAOYSA-N

>  <distance_score>  (5339) 
1.104366

>  <ref_mols>  (5339) 
Z0846a,Z1597a

>  <ref_pdb>  (5339) 
Z0101a

>  <HIPPO Compound ID>  (5339) 
136808

>  <name>  (5339) 
CWLWYBOFALPBLF-UHFFFAOYSA-N-P50-P50-P86-601533

>  <inspiration_score>  (5339) 
None

$$$$
OGRXNTAIXWYPMP-UHFFFAOYSA-N-P86-P50-P86-601533
     RDKit          3D

 19 20  0  0  0  0  0  0  0  0999 V2000
   -5.5571    7.3761  -24.2329 C   0  0  0  0  0  0  0  0  0  0  0  0
   -5.1079    7.8499  -22.8603 C   0  0  0  0  0  0  0  0  0  0  0  0
   -4.4151    6.7392  -22.0623 C   0  0  0  0  0  0  0  0  0  0  0  0
   -4.0406    7.2020  -20.6479 C   0  0  0  0  0  0  0  0  0  0  0  0
   -3.1535    6.2439  -19.8166 C   0  0  2  0  0  0  0  0  0  0  0  0
   -3.1121    4.9446  -20.3967 O   0  0  0  0  0  0  0  0  0  0  0  0
   -3.6664    6.1532  -18.3503 C   0  0  0  0  0  0  0  0  0  0  0  0
   -3.1539    6.6663  -17.4336 O   0  0  0  0  0  0  0  0  0  0  0  0
   -4.9851    5.3373  -18.4397 N   0  0  0  0  0  0  0  0  0  0  0  0
   -5.9518    5.0775  -17.4774 C   0  0  0  0  0  0  0  0  0  0  0  0
   -5.8957    5.4287  -16.1333 C   0  0  0  0  0  0  0  0  0  0  0  0
   -7.0047    5.2032  -15.2987 C   0  0  0  0  0  0  0  0  0  0  0  0
   -8.2228    4.7070  -15.7904 C   0  0  0  0  0  0  0  0  0  0  0  0
   -8.2581    4.4156  -17.1529 C   0  0  0  0  0  0  0  0  0  0  0  0
   -7.1341    4.5033  -17.9616 C   0  0  0  0  0  0  0  0  0  0  0  0
   -7.3894    4.0708  -19.2276 N   0  0  0  0  0  0  0  0  0  0  0  0
   -8.6880    3.9672  -19.2716 C   0  0  0  0  0  0  0  0  0  0  0  0
   -9.2603    4.1557  -18.0536 N   0  0  0  0  0  0  0  0  0  0  0  0
  -10.6525    4.4558  -17.8909 C   0  0  0  0  0  0  0  0  0  0  0  0
  1  2  1  0
  2  3  1  0
  3  4  1  0
  4  5  1  0
  5  6  1  6
  5  7  1  0
  7  8  2  0
  7  9  1  0
  9 10  1  0
 10 11  2  0
 11 12  1  0
 12 13  2  0
 13 14  1  0
 14 15  2  0
 15 16  1  0
 16 17  2  0
 17 18  1  0
 18 19  1  0
 15 10  1  0
 18 14  1  0
M  END
>  <energy_score>  (5340) 
-25.738481

>  <alias>  (5340) 
OGRXNTAIXWYPMP-UHFFFAOYSA-N-P86-P50-P86-601533

>  <HIPPO Pose ID>  (5340) 
91895

>  <smiles>  (5340) 
CCCCC(O)C(=O)Nc1cccc2c1ncn2C

>  <inchikey>  (5340) 
OGRXNTAIXWYPMP-UHFFFAOYSA-N

>  <distance_score>  (5340) 
1.285485

>  <ref_mols>  (5340) 
Z0846a,Z1597a

>  <ref_pdb>  (5340) 
Z0101a

>  <HIPPO Compound ID>  (5340) 
136809

>  <name>  (5340) 
OGRXNTAIXWYPMP-UHFFFAOYSA-N-P86-P50-P86-601533

>  <inspiration_score>  (5340) 
None

$$$$
RDMGYVFSNPFIJL-UHFFFAOYSA-N-P50-P50-P86-601533
     RDKit          3D

 19 20  0  0  0  0  0  0  0  0999 V2000
   -5.7739    7.7603  -24.4609 C   0  0  0  0  0  0  0  0  0  0  0  0
   -5.3870    8.0202  -23.0129 C   0  0  0  0  0  0  0  0  0  0  0  0
   -4.8748    6.7489  -22.3425 C   0  0  0  0  0  0  0  0  0  0  0  0
   -4.7048    6.8947  -20.8261 C   0  0  0  0  0  0  0  0  0  0  0  0
   -4.1226    5.6214  -20.2060 C   0  0  1  0  0  0  0  0  0  0  0  0
   -2.7045    5.6300  -20.3770 O   0  0  0  0  0  0  0  0  0  0  0  0
   -4.4732    5.4819  -18.7078 C   0  0  0  0  0  0  0  0  0  0  0  0
   -3.6760    5.6506  -17.8657 O   0  0  0  0  0  0  0  0  0  0  0  0
   -5.9610    5.0273  -18.6133 N   0  0  0  0  0  0  0  0  0  0  0  0
   -6.7625    4.7902  -17.5045 C   0  0  0  0  0  0  0  0  0  0  0  0
   -6.2736    4.8129  -16.1978 C   0  0  0  0  0  0  0  0  0  0  0  0
   -7.1462    4.6370  -15.1208 C   0  0  0  0  0  0  0  0  0  0  0  0
   -6.5521    4.7465  -13.5151 Cl  0  0  0  0  0  0  0  0  0  0  0  0
   -8.5154    4.4388  -15.2875 C   0  0  0  0  0  0  0  0  0  0  0  0
   -8.9718    4.4548  -16.5944 C   0  0  0  0  0  0  0  0  0  0  0  0
  -10.2346    4.4583  -17.1162 N   0  0  0  0  0  0  0  0  0  0  0  0
  -10.1208    4.6746  -18.4512 C   0  0  0  0  0  0  0  0  0  0  0  0
   -8.8751    4.6096  -18.8489 N   0  0  0  0  0  0  0  0  0  0  0  0
   -8.1398    4.5922  -17.6968 C   0  0  0  0  0  0  0  0  0  0  0  0
  1  2  1  0
  2  3  1  0
  3  4  1  0
  4  5  1  0
  5  6  1  1
  5  7  1  0
  7  8  2  0
  7  9  1  0
  9 10  1  0
 10 11  2  0
 11 12  1  0
 12 13  1  0
 12 14  2  0
 14 15  1  0
 15 16  1  0
 16 17  1  0
 17 18  2  0
 18 19  1  0
 19 10  1  0
 19 15  2  0
M  END
>  <energy_score>  (5341) 
-27.225229

>  <alias>  (5341) 
RDMGYVFSNPFIJL-UHFFFAOYSA-N-P50-P50-P86-601533

>  <HIPPO Pose ID>  (5341) 
91898

>  <smiles>  (5341) 
CCCCC(O)C(=O)Nc1cc(Cl)cc2[nH]cnc12

>  <inchikey>  (5341) 
RDMGYVFSNPFIJL-UHFFFAOYSA-N

>  <distance_score>  (5341) 
0.948832

>  <ref_mols>  (5341) 
Z0846a,Z1597a

>  <ref_pdb>  (5341) 
Z0101a

>  <HIPPO Compound ID>  (5341) 
136811

>  <name>  (5341) 
RDMGYVFSNPFIJL-UHFFFAOYSA-N-P50-P50-P86-601533

>  <inspiration_score>  (5341) 
None

$$$$
ATWQBKJFKUMOKR-UHFFFAOYSA-N-P86-P50-P86-601533
     RDKit          3D

 19 21  0  0  0  0  0  0  0  0999 V2000
   -3.7232    6.3694  -18.9813 O   0  0  0  0  0  0  0  0  0  0  0  0
   -4.6435    6.0794  -19.6440 C   0  0  0  0  0  0  0  0  0  0  0  0
   -4.5864    6.1101  -21.1660 C   0  0  0  0  0  0  0  0  0  0  0  0
   -4.9728    7.4436  -21.7835 C   0  0  2  0  0  0  0  0  0  0  0  0
   -4.9357    7.4663  -23.3324 C   0  0  0  0  0  0  0  0  0  0  0  0
   -4.3316    8.8817  -23.2763 C   0  0  1  0  0  0  0  0  0  0  0  0
   -5.5981   10.1824  -23.5071 S   0  0  0  0  0  0  0  0  0  0  0  0
   -3.9743    8.6276  -21.7957 C   0  0  0  0  0  0  0  0  0  0  0  0
   -6.0549    5.5499  -19.2384 N   0  0  0  0  0  0  0  0  0  0  0  0
   -6.5634    5.1947  -17.9902 C   0  0  0  0  0  0  0  0  0  0  0  0
   -5.8316    5.3459  -16.8093 C   0  0  0  0  0  0  0  0  0  0  0  0
   -6.3885    5.0185  -15.5475 C   0  0  0  0  0  0  0  0  0  0  0  0
   -7.6920    4.5415  -15.4298 C   0  0  0  0  0  0  0  0  0  0  0  0
   -8.3871    4.4086  -16.6000 C   0  0  0  0  0  0  0  0  0  0  0  0
   -9.7374    4.1575  -16.7625 N   0  0  0  0  0  0  0  0  0  0  0  0
  -10.0715    4.4159  -18.0850 C   0  0  0  0  0  0  0  0  0  0  0  0
  -11.2058    4.5386  -18.5034 O   0  0  0  0  0  0  0  0  0  0  0  0
   -8.8783    4.6089  -18.7865 N   0  0  0  0  0  0  0  0  0  0  0  0
   -7.8453    4.7062  -17.8532 C   0  0  0  0  0  0  0  0  0  0  0  0
  1  2  2  0
  2  3  1  0
  4  3  1  1
  4  5  1  0
  5  6  1  0
  6  7  1  1
  6  8  1  0
  2  9  1  0
  9 10  1  0
 10 11  2  0
 11 12  1  0
 12 13  2  0
 13 14  1  0
 14 15  1  0
 15 16  1  0
 16 17  2  0
 16 18  1  0
 18 19  1  0
  8  4  1  0
 19 10  1  0
 19 14  2  0
M  END
>  <energy_score>  (5342) 
-26.69423

>  <alias>  (5342) 
ATWQBKJFKUMOKR-UHFFFAOYSA-N-P86-P50-P86-601533

>  <HIPPO Pose ID>  (5342) 
91905

>  <smiles>  (5342) 
O=C(CC1CC(S)C1)Nc1cccc2[nH]c(=O)[nH]c12

>  <inchikey>  (5342) 
ATWQBKJFKUMOKR-UHFFFAOYSA-N

>  <distance_score>  (5342) 
1.316352

>  <ref_mols>  (5342) 
Z0846a,Z1597a

>  <ref_pdb>  (5342) 
Z0101a

>  <HIPPO Compound ID>  (5342) 
136814

>  <name>  (5342) 
ATWQBKJFKUMOKR-UHFFFAOYSA-N-P86-P50-P86-601533

>  <inspiration_score>  (5342) 
None

$$$$
AEMDLGVMSBSKGR-UHFFFAOYSA-N-P50-P50-P86-601533
     RDKit          3D

 19 21  0  0  0  0  0  0  0  0999 V2000
   -5.8115    5.1975  -14.1696 C   0  0  0  0  0  0  0  0  0  0  0  0
   -6.5606    4.9926  -15.4459 C   0  0  0  0  0  0  0  0  0  0  0  0
   -6.0634    5.4523  -16.6821 C   0  0  0  0  0  0  0  0  0  0  0  0
   -6.8020    5.3294  -17.8655 C   0  0  0  0  0  0  0  0  0  0  0  0
   -6.3382    5.7446  -19.1119 N   0  0  0  0  0  0  0  0  0  0  0  0
   -5.0744    6.5822  -19.4972 C   0  0  0  0  0  0  0  0  0  0  0  0
   -4.1973    6.9801  -18.8324 O   0  0  0  0  0  0  0  0  0  0  0  0
   -5.1366    6.7194  -21.0133 C   0  0  0  0  0  0  0  0  0  0  0  0
   -4.1773    7.7240  -21.6504 C   0  0  1  0  0  0  0  0  0  0  0  0
   -4.3247    7.8336  -23.1996 C   0  0  0  0  0  0  0  0  0  0  0  0
   -5.3207    8.9861  -22.9622 C   0  0  2  0  0  0  0  0  0  0  0  0
   -5.1341   10.3655  -24.1234 S   0  0  0  0  0  0  0  0  0  0  0  0
   -4.6112    9.2203  -21.6068 C   0  0  0  0  0  0  0  0  0  0  0  0
   -8.0729    4.7663  -17.7352 C   0  0  0  0  0  0  0  0  0  0  0  0
   -9.1261    4.6059  -18.6014 N   0  0  0  0  0  0  0  0  0  0  0  0
  -10.1941    4.1817  -17.8690 C   0  0  0  0  0  0  0  0  0  0  0  0
   -9.8526    3.8620  -16.6502 N   0  0  0  0  0  0  0  0  0  0  0  0
   -8.5751    4.3022  -16.5242 C   0  0  0  0  0  0  0  0  0  0  0  0
   -7.8127    4.3840  -15.3654 C   0  0  0  0  0  0  0  0  0  0  0  0
  1  2  1  0
  2  3  2  0
  3  4  1  0
  4  5  1  0
  5  6  1  0
  6  7  2  0
  6  8  1  0
  9  8  1  1
  9 10  1  0
 10 11  1  0
 11 12  1  6
 11 13  1  0
  4 14  2  0
 14 15  1  0
 15 16  1  0
 16 17  2  0
 17 18  1  0
 18 19  2  0
 19  2  1  0
 13  9  1  0
 18 14  1  0
M  END
>  <energy_score>  (5343) 
-23.10124

>  <alias>  (5343) 
AEMDLGVMSBSKGR-UHFFFAOYSA-N-P50-P50-P86-601533

>  <HIPPO Pose ID>  (5343) 
91906

>  <smiles>  (5343) 
Cc1cc(NC(=O)CC2CC(S)C2)c2[nH]cnc2c1

>  <inchikey>  (5343) 
AEMDLGVMSBSKGR-UHFFFAOYSA-N

>  <distance_score>  (5343) 
1.364085

>  <ref_mols>  (5343) 
Z0846a,Z1597a

>  <ref_pdb>  (5343) 
Z0101a

>  <HIPPO Compound ID>  (5343) 
136815

>  <name>  (5343) 
AEMDLGVMSBSKGR-UHFFFAOYSA-N-P50-P50-P86-601533

>  <inspiration_score>  (5343) 
None

$$$$
HYJBWXNVGIZBPW-UHFFFAOYSA-N-P50-P50-P86-601533
     RDKit          3D

 19 21  0  0  0  0  0  0  0  0999 V2000
  -10.4054    4.1805  -17.3298 C   0  0  0  0  0  0  0  0  0  0  0  0
   -9.0604    4.1814  -17.8144 N   0  0  0  0  0  0  0  0  0  0  0  0
   -8.7155    4.0599  -19.1192 C   0  0  0  0  0  0  0  0  0  0  0  0
   -7.4379    4.2421  -19.3048 N   0  0  0  0  0  0  0  0  0  0  0  0
   -6.9919    4.6984  -18.0982 C   0  0  0  0  0  0  0  0  0  0  0  0
   -5.7924    5.3681  -17.8287 C   0  0  0  0  0  0  0  0  0  0  0  0
   -5.0735    5.7319  -18.9593 N   0  0  0  0  0  0  0  0  0  0  0  0
   -3.9434    6.7831  -19.1418 C   0  0  0  0  0  0  0  0  0  0  0  0
   -3.3928    7.4473  -18.3537 O   0  0  0  0  0  0  0  0  0  0  0  0
   -3.7257    6.8836  -20.6556 C   0  0  0  0  0  0  0  0  0  0  0  0
   -4.8727    7.6196  -21.3619 C   0  0  2  0  0  0  0  0  0  0  0  0
   -4.8996    7.5827  -22.9100 C   0  0  0  0  0  0  0  0  0  0  0  0
   -4.3752    9.0287  -22.9322 C   0  0  1  0  0  0  0  0  0  0  0  0
   -5.3702   10.1135  -24.0125 S   0  0  0  0  0  0  0  0  0  0  0  0
   -4.7642    9.1638  -21.4481 C   0  0  0  0  0  0  0  0  0  0  0  0
   -5.5347    5.7496  -16.5172 C   0  0  0  0  0  0  0  0  0  0  0  0
   -6.4714    5.4737  -15.5040 C   0  0  0  0  0  0  0  0  0  0  0  0
   -7.7172    4.8890  -15.7757 C   0  0  0  0  0  0  0  0  0  0  0  0
   -7.9516    4.5595  -17.1080 C   0  0  0  0  0  0  0  0  0  0  0  0
  1  2  1  0
  2  3  1  0
  3  4  2  0
  4  5  1  0
  5  6  2  0
  6  7  1  0
  7  8  1  0
  8  9  2  0
  8 10  1  0
 11 10  1  6
 11 12  1  0
 12 13  1  0
 13 14  1  6
 13 15  1  0
  6 16  1  0
 16 17  2  0
 17 18  1  0
 18 19  2  0
 19  2  1  0
 19  5  1  0
 15 11  1  0
M  END
>  <energy_score>  (5344) 
-18.84505

>  <alias>  (5344) 
HYJBWXNVGIZBPW-UHFFFAOYSA-N-P50-P50-P86-601533

>  <HIPPO Pose ID>  (5344) 
91908

>  <smiles>  (5344) 
Cn1cnc2c(NC(=O)CC3CC(S)C3)cccc21

>  <inchikey>  (5344) 
HYJBWXNVGIZBPW-UHFFFAOYSA-N

>  <distance_score>  (5344) 
1.5186

>  <ref_mols>  (5344) 
Z0846a,Z1597a

>  <ref_pdb>  (5344) 
Z0101a

>  <HIPPO Compound ID>  (5344) 
136816

>  <name>  (5344) 
HYJBWXNVGIZBPW-UHFFFAOYSA-N-P50-P50-P86-601533

>  <inspiration_score>  (5344) 
None

$$$$
JLZOZOMOJGASJC-UHFFFAOYSA-N-P50-P50-P86-601533
     RDKit          3D

 19 20  0  0  0  0  0  0  0  0999 V2000
   -5.8437    7.7530  -24.5400 C   0  0  0  0  0  0  0  0  0  0  0  0
   -5.4129    8.0586  -23.1141 C   0  0  0  0  0  0  0  0  0  0  0  0
   -4.8753    6.8097  -22.4219 C   0  0  0  0  0  0  0  0  0  0  0  0
   -4.6017    7.0325  -20.9316 C   0  0  0  0  0  0  0  0  0  0  0  0
   -4.0142    5.7783  -20.2616 C   0  0  1  0  0  0  0  0  0  0  0  0
   -2.4959    5.7150  -20.4385 C   0  0  0  0  0  0  0  0  0  0  0  0
   -4.3864    5.7099  -18.7724 C   0  0  0  0  0  0  0  0  0  0  0  0
   -3.6247    5.8969  -17.9039 O   0  0  0  0  0  0  0  0  0  0  0  0
   -5.8968    5.3130  -18.7256 N   0  0  0  0  0  0  0  0  0  0  0  0
   -6.7099    4.9883  -17.6482 C   0  0  0  0  0  0  0  0  0  0  0  0
   -6.2360    4.9529  -16.3353 C   0  0  0  0  0  0  0  0  0  0  0  0
   -7.0842    4.6140  -15.2779 C   0  0  0  0  0  0  0  0  0  0  0  0
   -6.4605    4.6919  -13.5028 Br  0  0  0  0  0  0  0  0  0  0  0  0
   -8.4137    4.2657  -15.4790 C   0  0  0  0  0  0  0  0  0  0  0  0
   -8.9032    4.3340  -16.7768 C   0  0  0  0  0  0  0  0  0  0  0  0
  -10.1845    4.1702  -17.2051 N   0  0  0  0  0  0  0  0  0  0  0  0
  -10.1751    4.6187  -18.4306 C   0  0  0  0  0  0  0  0  0  0  0  0
   -8.9059    4.7677  -18.9000 N   0  0  0  0  0  0  0  0  0  0  0  0
   -8.0622    4.6985  -17.8232 C   0  0  0  0  0  0  0  0  0  0  0  0
  1  2  1  0
  2  3  1  0
  3  4  1  0
  4  5  1  0
  5  6  1  1
  5  7  1  0
  7  8  2  0
  7  9  1  0
  9 10  1  0
 10 11  2  0
 11 12  1  0
 12 13  1  0
 12 14  2  0
 14 15  1  0
 15 16  1  0
 16 17  2  0
 17 18  1  0
 18 19  1  0
 19 10  1  0
 19 15  2  0
M  END
>  <energy_score>  (5345) 
-24.949635

>  <alias>  (5345) 
JLZOZOMOJGASJC-UHFFFAOYSA-N-P50-P50-P86-601533

>  <HIPPO Pose ID>  (5345) 
91916

>  <smiles>  (5345) 
CCCCC(C)C(=O)Nc1cc(Br)cc2nc[nH]c12

>  <inchikey>  (5345) 
JLZOZOMOJGASJC-UHFFFAOYSA-N

>  <distance_score>  (5345) 
1.085534

>  <ref_mols>  (5345) 
Z0846a,Z1597a

>  <ref_pdb>  (5345) 
Z0101a

>  <HIPPO Compound ID>  (5345) 
136820

>  <name>  (5345) 
JLZOZOMOJGASJC-UHFFFAOYSA-N-P50-P50-P86-601533

>  <inspiration_score>  (5345) 
None

$$$$
OLHIZJPLHJEPOM-UHFFFAOYSA-N-P50-P50-P86-601533
     RDKit          3D

 19 20  0  0  0  0  0  0  0  0999 V2000
   -5.7808    7.5590  -24.3097 C   0  0  0  0  0  0  0  0  0  0  0  0
   -5.2593    7.9746  -22.9427 C   0  0  0  0  0  0  0  0  0  0  0  0
   -4.5417    6.8227  -22.2392 C   0  0  0  0  0  0  0  0  0  0  0  0
   -4.0596    7.2025  -20.8348 C   0  0  0  0  0  0  0  0  0  0  0  0
   -3.1637    6.1170  -20.1879 C   0  0  1  0  0  0  0  0  0  0  0  0
   -1.6833    6.4493  -20.3650 C   0  0  0  0  0  0  0  0  0  0  0  0
   -3.5149    5.9563  -18.6930 C   0  0  0  0  0  0  0  0  0  0  0  0
   -2.8709    6.3699  -17.8098 O   0  0  0  0  0  0  0  0  0  0  0  0
   -4.8971    5.2436  -18.6844 N   0  0  0  0  0  0  0  0  0  0  0  0
   -5.7735    4.9913  -17.6400 C   0  0  0  0  0  0  0  0  0  0  0  0
   -5.5399    5.2416  -16.2920 C   0  0  0  0  0  0  0  0  0  0  0  0
   -6.5670    5.0581  -15.3508 C   0  0  0  0  0  0  0  0  0  0  0  0
   -7.8622    4.6738  -15.7255 C   0  0  0  0  0  0  0  0  0  0  0  0
   -8.0640    4.4599  -17.0875 C   0  0  0  0  0  0  0  0  0  0  0  0
   -7.0442    4.5476  -18.0218 C   0  0  0  0  0  0  0  0  0  0  0  0
   -7.4784    4.2293  -19.2772 N   0  0  0  0  0  0  0  0  0  0  0  0
   -8.7749    4.1407  -19.1553 C   0  0  0  0  0  0  0  0  0  0  0  0
   -9.1647    4.2130  -17.8599 N   0  0  0  0  0  0  0  0  0  0  0  0
  -10.5219    4.2160  -17.4153 C   0  0  0  0  0  0  0  0  0  0  0  0
  1  2  1  0
  2  3  1  0
  3  4  1  0
  4  5  1  0
  5  6  1  1
  5  7  1  0
  7  8  2  0
  7  9  1  0
  9 10  1  0
 10 11  2  0
 11 12  1  0
 12 13  2  0
 13 14  1  0
 14 15  2  0
 15 16  1  0
 16 17  2  0
 17 18  1  0
 18 19  1  0
 15 10  1  0
 18 14  1  0
M  END
>  <energy_score>  (5346) 
-1.275324

>  <alias>  (5346) 
OLHIZJPLHJEPOM-UHFFFAOYSA-N-P50-P50-P86-601533

>  <HIPPO Pose ID>  (5346) 
91922

>  <smiles>  (5346) 
CCCCC(C)C(=O)Nc1cccc2c1ncn2C

>  <inchikey>  (5346) 
OLHIZJPLHJEPOM-UHFFFAOYSA-N

>  <distance_score>  (5346) 
1.323261

>  <ref_mols>  (5346) 
Z0846a,Z1597a

>  <ref_pdb>  (5346) 
Z0101a

>  <HIPPO Compound ID>  (5346) 
136823

>  <name>  (5346) 
OLHIZJPLHJEPOM-UHFFFAOYSA-N-P50-P50-P86-601533

>  <inspiration_score>  (5346) 
None

$$$$
IRTMISOSPAECSX-UHFFFAOYSA-N-P86-P50-P86-601533
     RDKit          3D

 19 22  0  0  0  0  0  0  0  0999 V2000
   -3.7738    5.7082  -18.5210 O   0  0  0  0  0  0  0  0  0  0  0  0
   -4.6703    5.5517  -19.2559 C   0  0  0  0  0  0  0  0  0  0  0  0
   -4.5519    5.8047  -20.7586 C   0  0  0  0  0  0  0  0  0  0  0  0
   -4.5200    7.2724  -21.0675 C   0  0  1  0  0  0  0  0  0  0  0  0
   -3.2749    7.8694  -21.7504 C   0  0  0  0  0  0  0  0  0  0  0  0
   -4.5505    7.7467  -22.4475 C   0  0  0  0  0  0  0  0  0  0  0  0
   -5.0235    7.2774  -23.7405 C   0  0  0  0  0  0  0  0  0  0  0  0
   -5.3566    8.6828  -23.2288 C   0  0  0  0  0  0  0  0  0  0  0  0
   -6.1336    5.1028  -18.9791 N   0  0  0  0  0  0  0  0  0  0  0  0
   -6.7899    4.8573  -17.7801 C   0  0  0  0  0  0  0  0  0  0  0  0
   -6.1901    4.9957  -16.5251 C   0  0  0  0  0  0  0  0  0  0  0  0
   -6.9401    4.7910  -15.3598 C   0  0  0  0  0  0  0  0  0  0  0  0
   -6.2297    5.0417  -13.8178 Cl  0  0  0  0  0  0  0  0  0  0  0  0
   -8.2871    4.4386  -15.3855 C   0  0  0  0  0  0  0  0  0  0  0  0
   -8.8554    4.3614  -16.6434 C   0  0  0  0  0  0  0  0  0  0  0  0
  -10.1547    4.2482  -17.0383 N   0  0  0  0  0  0  0  0  0  0  0  0
  -10.1985    4.4799  -18.3718 C   0  0  0  0  0  0  0  0  0  0  0  0
   -9.0017    4.4853  -18.8999 N   0  0  0  0  0  0  0  0  0  0  0  0
   -8.1544    4.5400  -17.8269 C   0  0  0  0  0  0  0  0  0  0  0  0
  1  2  2  0
  2  3  1  0
  4  3  1  6
  4  5  1  0
  5  6  1  0
  6  7  1  0
  7  8  1  0
  2  9  1  0
  9 10  1  0
 10 11  2  0
 11 12  1  0
 12 13  1  0
 12 14  2  0
 14 15  1  0
 15 16  1  0
 16 17  1  0
 17 18  2  0
 18 19  1  0
  6  4  1  0
 19 10  1  0
  8  6  1  0
 19 15  2  0
M  END
>  <energy_score>  (5347) 
-24.494137

>  <alias>  (5347) 
IRTMISOSPAECSX-UHFFFAOYSA-N-P86-P50-P86-601533

>  <HIPPO Pose ID>  (5347) 
91925

>  <smiles>  (5347) 
O=C(CC1CC12CC2)Nc1cc(Cl)cc2[nH]cnc12

>  <inchikey>  (5347) 
IRTMISOSPAECSX-UHFFFAOYSA-N

>  <distance_score>  (5347) 
1.162975

>  <ref_mols>  (5347) 
Z0846a,Z1597a

>  <ref_pdb>  (5347) 
Z0101a

>  <HIPPO Compound ID>  (5347) 
136824

>  <name>  (5347) 
IRTMISOSPAECSX-UHFFFAOYSA-N-P86-P50-P86-601533

>  <inspiration_score>  (5347) 
None

$$$$
XEOJZVNQNINIII-UHFFFAOYSA-N-P50-P50-P86-601533
     RDKit          3D

 19 22  0  0  0  0  0  0  0  0999 V2000
  -10.9495    4.7556  -18.3327 C   0  0  0  0  0  0  0  0  0  0  0  0
   -9.6767    4.3955  -17.7181 C   0  0  0  0  0  0  0  0  0  0  0  0
   -9.5073    4.0308  -16.4724 N   0  0  0  0  0  0  0  0  0  0  0  0
   -8.1807    4.2124  -16.2394 C   0  0  0  0  0  0  0  0  0  0  0  0
   -7.4943    4.1239  -15.0311 C   0  0  0  0  0  0  0  0  0  0  0  0
   -6.1407    4.4578  -15.0264 C   0  0  0  0  0  0  0  0  0  0  0  0
   -5.4852    4.8389  -16.2026 C   0  0  0  0  0  0  0  0  0  0  0  0
   -6.1555    4.8899  -17.4253 C   0  0  0  0  0  0  0  0  0  0  0  0
   -5.5309    5.2421  -18.6110 N   0  0  0  0  0  0  0  0  0  0  0  0
   -4.0962    5.7936  -18.8741 C   0  0  0  0  0  0  0  0  0  0  0  0
   -3.2015    5.9602  -18.1388 O   0  0  0  0  0  0  0  0  0  0  0  0
   -4.0499    6.1282  -20.3564 C   0  0  0  0  0  0  0  0  0  0  0  0
   -4.7423    7.4223  -20.6702 C   0  0  1  0  0  0  0  0  0  0  0  0
   -3.9305    8.7023  -20.9365 C   0  0  0  0  0  0  0  0  0  0  0  0
   -4.6015    7.9773  -22.0091 C   0  0  0  0  0  0  0  0  0  0  0  0
   -5.4836    8.3173  -23.1190 C   0  0  0  0  0  0  0  0  0  0  0  0
   -4.2336    7.4569  -23.3189 C   0  0  0  0  0  0  0  0  0  0  0  0
   -7.5113    4.5777  -17.4032 C   0  0  0  0  0  0  0  0  0  0  0  0
   -8.4856    4.5688  -18.3642 N   0  0  0  0  0  0  0  0  0  0  0  0
  1  2  1  0
  2  3  2  0
  3  4  1  0
  4  5  2  0
  5  6  1  0
  6  7  2  0
  7  8  1  0
  8  9  1  0
  9 10  1  0
 10 11  2  0
 10 12  1  0
 13 12  1  6
 13 14  1  0
 14 15  1  0
 15 16  1  0
 16 17  1  0
  8 18  2  0
 18 19  1  0
 19  2  1  0
 18  4  1  0
 15 13  1  0
 17 15  1  0
M  END
>  <energy_score>  (5348) 
-19.485477

>  <alias>  (5348) 
XEOJZVNQNINIII-UHFFFAOYSA-N-P50-P50-P86-601533

>  <HIPPO Pose ID>  (5348) 
91936

>  <smiles>  (5348) 
Cc1nc2cccc(NC(=O)CC3CC34CC4)c2[nH]1

>  <inchikey>  (5348) 
XEOJZVNQNINIII-UHFFFAOYSA-N

>  <distance_score>  (5348) 
1.437841

>  <ref_mols>  (5348) 
Z0846a,Z1597a

>  <ref_pdb>  (5348) 
Z0101a

>  <HIPPO Compound ID>  (5348) 
136830

>  <name>  (5348) 
XEOJZVNQNINIII-UHFFFAOYSA-N-P50-P50-P86-601533

>  <inspiration_score>  (5348) 
None

$$$$
USDCODYWEPYOAQ-UHFFFAOYSA-N-P86-P50-P86-601533
     RDKit          3D

 19 20  0  0  0  0  0  0  0  0999 V2000
  -10.8353    4.5250  -18.2577 C   0  0  0  0  0  0  0  0  0  0  0  0
   -9.5181    4.2488  -17.6937 C   0  0  0  0  0  0  0  0  0  0  0  0
   -9.2873    4.0338  -16.4242 N   0  0  0  0  0  0  0  0  0  0  0  0
   -8.0020    4.4253  -16.2479 C   0  0  0  0  0  0  0  0  0  0  0  0
   -7.3292    4.6238  -15.0463 C   0  0  0  0  0  0  0  0  0  0  0  0
   -6.0463    5.1593  -15.1055 C   0  0  0  0  0  0  0  0  0  0  0  0
   -5.4378    5.4390  -16.3343 C   0  0  0  0  0  0  0  0  0  0  0  0
   -6.0823    5.1902  -17.5503 C   0  0  0  0  0  0  0  0  0  0  0  0
   -5.4386    5.3483  -18.7707 N   0  0  0  0  0  0  0  0  0  0  0  0
   -3.9780    5.7833  -19.0948 C   0  0  0  0  0  0  0  0  0  0  0  0
   -3.1210    6.1481  -18.3867 O   0  0  0  0  0  0  0  0  0  0  0  0
   -3.7570    5.5547  -20.5821 C   0  0  0  0  0  0  0  0  0  0  0  0
   -3.7955    6.8415  -21.3982 C   0  0  0  0  0  0  0  0  0  0  0  0
   -5.0349    6.9244  -22.2947 C   0  0  0  0  0  0  0  0  0  0  0  0
   -4.9040    7.9711  -23.4140 C   0  0  0  0  0  0  0  0  0  0  0  0
   -5.9545    7.7369  -24.4988 C   0  0  0  0  0  0  0  0  0  0  0  0
   -5.0132    9.3970  -22.8791 C   0  0  0  0  0  0  0  0  0  0  0  0
   -7.3860    4.7083  -17.4655 C   0  0  0  0  0  0  0  0  0  0  0  0
   -8.3588    4.4433  -18.3957 N   0  0  0  0  0  0  0  0  0  0  0  0
  1  2  1  0
  2  3  2  0
  3  4  1  0
  4  5  2  0
  5  6  1  0
  6  7  2  0
  7  8  1  0
  8  9  1  0
  9 10  1  0
 10 11  2  0
 10 12  1  0
 12 13  1  0
 13 14  1  0
 14 15  1  0
 15 16  1  0
 15 17  1  0
  8 18  2  0
 18 19  1  0
 19  2  1  0
 18  4  1  0
M  END
>  <energy_score>  (5349) 
-24.531301

>  <alias>  (5349) 
USDCODYWEPYOAQ-UHFFFAOYSA-N-P86-P50-P86-601533

>  <HIPPO Pose ID>  (5349) 
91939

>  <smiles>  (5349) 
Cc1nc2cccc(NC(=O)CCCC(C)C)c2[nH]1

>  <inchikey>  (5349) 
USDCODYWEPYOAQ-UHFFFAOYSA-N

>  <distance_score>  (5349) 
1.243652

>  <ref_mols>  (5349) 
Z0846a,Z1597a

>  <ref_pdb>  (5349) 
Z0101a

>  <HIPPO Compound ID>  (5349) 
136831

>  <name>  (5349) 
USDCODYWEPYOAQ-UHFFFAOYSA-N-P86-P50-P86-601533

>  <inspiration_score>  (5349) 
None

$$$$
CAICZHLEMFLSIC-UHFFFAOYSA-N-P50-P50-P86-601533
     RDKit          3D

 19 20  0  0  0  0  0  0  0  0999 V2000
   -5.8375    7.7421  -24.5492 C   0  0  0  0  0  0  0  0  0  0  0  0
   -5.3953    8.0574  -23.1291 C   0  0  0  0  0  0  0  0  0  0  0  0
   -4.8586    6.8114  -22.4301 C   0  0  0  0  0  0  0  0  0  0  0  0
   -4.5702    7.0495  -20.9446 C   0  0  0  0  0  0  0  0  0  0  0  0
   -4.0418    5.7925  -20.2562 C   0  0  1  0  0  0  0  0  0  0  0  0
   -2.0981    5.6728  -20.4460 Br  0  0  0  0  0  0  0  0  0  0  0  0
   -4.4044    5.7438  -18.7642 C   0  0  0  0  0  0  0  0  0  0  0  0
   -3.6584    5.9788  -17.8922 O   0  0  0  0  0  0  0  0  0  0  0  0
   -5.9080    5.3012  -18.7221 N   0  0  0  0  0  0  0  0  0  0  0  0
   -6.7230    4.9833  -17.6449 C   0  0  0  0  0  0  0  0  0  0  0  0
   -6.2499    4.9597  -16.3313 C   0  0  0  0  0  0  0  0  0  0  0  0
   -7.0969    4.6224  -15.2727 C   0  0  0  0  0  0  0  0  0  0  0  0
   -6.4743    4.7118  -13.4977 Br  0  0  0  0  0  0  0  0  0  0  0  0
   -8.4243    4.2666  -15.4732 C   0  0  0  0  0  0  0  0  0  0  0  0
   -8.9138    4.3272  -16.7714 C   0  0  0  0  0  0  0  0  0  0  0  0
  -10.1946    4.1582  -17.1983 N   0  0  0  0  0  0  0  0  0  0  0  0
  -10.1887    4.6118  -18.4219 C   0  0  0  0  0  0  0  0  0  0  0  0
   -8.9204    4.7594  -18.8952 N   0  0  0  0  0  0  0  0  0  0  0  0
   -8.0743    4.6895  -17.8199 C   0  0  0  0  0  0  0  0  0  0  0  0
  1  2  1  0
  2  3  1  0
  3  4  1  0
  4  5  1  0
  5  6  1  1
  5  7  1  0
  7  8  2  0
  7  9  1  0
  9 10  1  0
 10 11  2  0
 11 12  1  0
 12 13  1  0
 12 14  2  0
 14 15  1  0
 15 16  1  0
 16 17  2  0
 17 18  1  0
 18 19  1  0
 19 10  1  0
 19 15  2  0
M  END
>  <energy_score>  (5350) 
-29.694173

>  <alias>  (5350) 
CAICZHLEMFLSIC-UHFFFAOYSA-N-P50-P50-P86-601533

>  <HIPPO Pose ID>  (5350) 
91956

>  <smiles>  (5350) 
CCCCC(Br)C(=O)Nc1cc(Br)cc2nc[nH]c12

>  <inchikey>  (5350) 
CAICZHLEMFLSIC-UHFFFAOYSA-N

>  <distance_score>  (5350) 
0.927851

>  <ref_mols>  (5350) 
Z0846a,Z1597a

>  <ref_pdb>  (5350) 
Z0101a

>  <HIPPO Compound ID>  (5350) 
136840

>  <name>  (5350) 
CAICZHLEMFLSIC-UHFFFAOYSA-N-P50-P50-P86-601533

>  <inspiration_score>  (5350) 
None

$$$$
FOXXVKRVGUGGDK-UHFFFAOYSA-N-P50-P50-P86-601533
     RDKit          3D

 19 20  0  0  0  0  0  0  0  0999 V2000
   -5.8541    7.7288  -24.5944 C   0  0  0  0  0  0  0  0  0  0  0  0
   -5.4255    8.0643  -23.1751 C   0  0  0  0  0  0  0  0  0  0  0  0
   -4.8829    6.8314  -22.4577 C   0  0  0  0  0  0  0  0  0  0  0  0
   -4.6079    7.0943  -20.9744 C   0  0  0  0  0  0  0  0  0  0  0  0
   -4.0569    5.8612  -20.2647 C   0  0  1  0  0  0  0  0  0  0  0  0
   -2.1182    5.7413  -20.5092 Br  0  0  0  0  0  0  0  0  0  0  0  0
   -4.3701    5.8698  -18.7608 C   0  0  0  0  0  0  0  0  0  0  0  0
   -3.6012    6.1645  -17.9273 O   0  0  0  0  0  0  0  0  0  0  0  0
   -5.8543    5.3763  -18.6443 N   0  0  0  0  0  0  0  0  0  0  0  0
   -6.6168    5.0716  -17.5250 C   0  0  0  0  0  0  0  0  0  0  0  0
   -6.0838    5.1079  -16.2307 C   0  0  0  0  0  0  0  0  0  0  0  0
   -6.8389    4.7386  -15.1062 C   0  0  0  0  0  0  0  0  0  0  0  0
   -6.2817    4.8466  -13.7243 C   0  0  0  0  0  0  0  0  0  0  0  0
   -8.1569    4.3117  -15.2539 C   0  0  0  0  0  0  0  0  0  0  0  0
   -8.7138    4.3134  -16.5295 C   0  0  0  0  0  0  0  0  0  0  0  0
   -9.9947    4.0340  -16.8838 N   0  0  0  0  0  0  0  0  0  0  0  0
  -10.0807    4.4207  -18.1265 C   0  0  0  0  0  0  0  0  0  0  0  0
   -8.8561    4.6810  -18.6663 N   0  0  0  0  0  0  0  0  0  0  0  0
   -7.9558    4.7009  -17.6309 C   0  0  0  0  0  0  0  0  0  0  0  0
  1  2  1  0
  2  3  1  0
  3  4  1  0
  4  5  1  0
  5  6  1  1
  5  7  1  0
  7  8  2  0
  7  9  1  0
  9 10  1  0
 10 11  2  0
 11 12  1  0
 12 13  1  0
 12 14  2  0
 14 15  1  0
 15 16  1  0
 16 17  2  0
 17 18  1  0
 18 19  1  0
 19 10  1  0
 19 15  2  0
M  END
>  <energy_score>  (5351) 
-23.713916

>  <alias>  (5351) 
FOXXVKRVGUGGDK-UHFFFAOYSA-N-P50-P50-P86-601533

>  <HIPPO Pose ID>  (5351) 
91960

>  <smiles>  (5351) 
CCCCC(Br)C(=O)Nc1cc(C)cc2nc[nH]c12

>  <inchikey>  (5351) 
FOXXVKRVGUGGDK-UHFFFAOYSA-N

>  <distance_score>  (5351) 
1.180901

>  <ref_mols>  (5351) 
Z0846a,Z1597a

>  <ref_pdb>  (5351) 
Z0101a

>  <HIPPO Compound ID>  (5351) 
136842

>  <name>  (5351) 
FOXXVKRVGUGGDK-UHFFFAOYSA-N-P50-P50-P86-601533

>  <inspiration_score>  (5351) 
None

$$$$
CZSRMTNOGIXYNZ-UHFFFAOYSA-N-P50-P50-P86-601533
     RDKit          3D

 19 20  0  0  0  0  0  0  0  0999 V2000
   -5.7913    7.5694  -24.3529 C   0  0  0  0  0  0  0  0  0  0  0  0
   -5.2678    7.9893  -22.9883 C   0  0  0  0  0  0  0  0  0  0  0  0
   -4.5503    6.8388  -22.2826 C   0  0  0  0  0  0  0  0  0  0  0  0
   -4.0747    7.2224  -20.8767 C   0  0  0  0  0  0  0  0  0  0  0  0
   -3.2236    6.1280  -20.2143 C   0  0  1  0  0  0  0  0  0  0  0  0
   -1.3218    6.5152  -20.4351 Br  0  0  0  0  0  0  0  0  0  0  0  0
   -3.5485    5.9999  -18.7115 C   0  0  0  0  0  0  0  0  0  0  0  0
   -2.9180    6.4538  -17.8372 O   0  0  0  0  0  0  0  0  0  0  0  0
   -4.9136    5.2445  -18.6865 N   0  0  0  0  0  0  0  0  0  0  0  0
   -5.7829    4.9920  -17.6374 C   0  0  0  0  0  0  0  0  0  0  0  0
   -5.5505    5.2534  -16.2921 C   0  0  0  0  0  0  0  0  0  0  0  0
   -6.5777    5.0696  -15.3507 C   0  0  0  0  0  0  0  0  0  0  0  0
   -7.8715    4.6782  -15.7242 C   0  0  0  0  0  0  0  0  0  0  0  0
   -8.0721    4.4579  -17.0853 C   0  0  0  0  0  0  0  0  0  0  0  0
   -7.0515    4.5424  -18.0182 C   0  0  0  0  0  0  0  0  0  0  0  0
   -7.4830    4.2247  -19.2748 N   0  0  0  0  0  0  0  0  0  0  0  0
   -8.7798    4.1374  -19.1542 C   0  0  0  0  0  0  0  0  0  0  0  0
   -9.1713    4.2090  -17.8591 N   0  0  0  0  0  0  0  0  0  0  0  0
  -10.5290    4.2147  -17.4162 C   0  0  0  0  0  0  0  0  0  0  0  0
  1  2  1  0
  2  3  1  0
  3  4  1  0
  4  5  1  0
  5  6  1  1
  5  7  1  0
  7  8  2  0
  7  9  1  0
  9 10  1  0
 10 11  2  0
 11 12  1  0
 12 13  2  0
 13 14  1  0
 14 15  2  0
 15 16  1  0
 16 17  2  0
 17 18  1  0
 18 19  1  0
 15 10  1  0
 18 14  1  0
M  END
>  <energy_score>  (5352) 
-33.500099

>  <alias>  (5352) 
CZSRMTNOGIXYNZ-UHFFFAOYSA-N-P50-P50-P86-601533

>  <HIPPO Pose ID>  (5352) 
91962

>  <smiles>  (5352) 
CCCCC(Br)C(=O)Nc1cccc2c1ncn2C

>  <inchikey>  (5352) 
CZSRMTNOGIXYNZ-UHFFFAOYSA-N

>  <distance_score>  (5352) 
1.313828

>  <ref_mols>  (5352) 
Z0846a,Z1597a

>  <ref_pdb>  (5352) 
Z0101a

>  <HIPPO Compound ID>  (5352) 
136843

>  <name>  (5352) 
CZSRMTNOGIXYNZ-UHFFFAOYSA-N-P50-P50-P86-601533

>  <inspiration_score>  (5352) 
None

$$$$
COIKOJBAWAUJMO-UHFFFAOYSA-N-P50-P50-P86-601533
     RDKit          3D

 19 21  0  0  0  0  0  0  0  0999 V2000
   -3.5511    5.9693  -17.7776 O   0  0  0  0  0  0  0  0  0  0  0  0
   -4.2355    5.6307  -18.6640 C   0  0  0  0  0  0  0  0  0  0  0  0
   -3.6997    5.4704  -20.0834 C   0  0  0  0  0  0  0  0  0  0  0  0
   -3.8691    6.6255  -21.0613 C   0  0  0  0  0  0  0  0  0  0  0  0
   -3.5461    8.0216  -20.5342 C   0  0  0  0  0  0  0  0  0  0  0  0
   -4.2065    8.9704  -21.5357 C   0  0  0  0  0  0  0  0  0  0  0  0
   -5.1155    8.1140  -22.4153 C   0  0  0  0  0  0  0  0  0  0  0  0
   -5.2613    6.8144  -21.6493 C   0  0  0  0  0  0  0  0  0  0  0  0
   -5.7242    5.1723  -18.6714 N   0  0  0  0  0  0  0  0  0  0  0  0
   -6.6075    4.9557  -17.6188 C   0  0  0  0  0  0  0  0  0  0  0  0
   -6.1974    4.9768  -16.2836 C   0  0  0  0  0  0  0  0  0  0  0  0
   -7.0926    4.6750  -15.2521 C   0  0  0  0  0  0  0  0  0  0  0  0
   -6.5377    4.7888  -13.4559 Br  0  0  0  0  0  0  0  0  0  0  0  0
   -8.4151    4.3270  -15.4966 C   0  0  0  0  0  0  0  0  0  0  0  0
   -8.8494    4.3687  -16.8147 C   0  0  0  0  0  0  0  0  0  0  0  0
  -10.1184    4.2237  -17.2879 N   0  0  0  0  0  0  0  0  0  0  0  0
  -10.0458    4.6328  -18.5250 C   0  0  0  0  0  0  0  0  0  0  0  0
   -8.7554    4.7320  -18.9470 N   0  0  0  0  0  0  0  0  0  0  0  0
   -7.9573    4.6821  -17.8366 C   0  0  0  0  0  0  0  0  0  0  0  0
  1  2  2  0
  2  3  1  0
  3  4  1  0
  4  5  1  0
  5  6  1  0
  6  7  1  0
  7  8  1  0
  2  9  1  0
  9 10  1  0
 10 11  2  0
 11 12  1  0
 12 13  1  0
 12 14  2  0
 14 15  1  0
 15 16  1  0
 16 17  2  0
 17 18  1  0
 18 19  1  0
  8  4  1  0
 19 10  1  0
 19 15  2  0
M  END
>  <energy_score>  (5353) 
-19.83191

>  <alias>  (5353) 
COIKOJBAWAUJMO-UHFFFAOYSA-N-P50-P50-P86-601533

>  <HIPPO Pose ID>  (5353) 
91970

>  <smiles>  (5353) 
O=C(CC1CCCC1)Nc1cc(Br)cc2nc[nH]c12

>  <inchikey>  (5353) 
COIKOJBAWAUJMO-UHFFFAOYSA-N

>  <distance_score>  (5353) 
1.563492

>  <ref_mols>  (5353) 
Z0846a,Z1597a

>  <ref_pdb>  (5353) 
Z0101a

>  <HIPPO Compound ID>  (5353) 
136847

>  <name>  (5353) 
COIKOJBAWAUJMO-UHFFFAOYSA-N-P50-P50-P86-601533

>  <inspiration_score>  (5353) 
None

$$$$
VULNQLMTZUITSG-UHFFFAOYSA-N-P86-P50-P86-601533
     RDKit          3D

 19 21  0  0  0  0  0  0  0  0999 V2000
   -3.6235    5.7894  -18.8462 O   0  0  0  0  0  0  0  0  0  0  0  0
   -4.5716    5.6819  -19.5227 C   0  0  0  0  0  0  0  0  0  0  0  0
   -4.5416    5.9762  -21.0177 C   0  0  0  0  0  0  0  0  0  0  0  0
   -4.8004    7.4641  -21.2288 C   0  0  0  0  0  0  0  0  0  0  0  0
   -3.6262    8.3391  -20.8018 C   0  0  0  0  0  0  0  0  0  0  0  0
   -3.9176    9.6856  -21.4478 C   0  0  0  0  0  0  0  0  0  0  0  0
   -4.7951    9.3908  -22.6628 C   0  0  0  0  0  0  0  0  0  0  0  0
   -4.9866    7.8777  -22.6865 C   0  0  0  0  0  0  0  0  0  0  0  0
   -6.0458    5.3496  -19.1476 N   0  0  0  0  0  0  0  0  0  0  0  0
   -6.6092    5.0033  -17.9263 C   0  0  0  0  0  0  0  0  0  0  0  0
   -5.8996    5.0983  -16.7251 C   0  0  0  0  0  0  0  0  0  0  0  0
   -6.5171    4.8294  -15.4791 C   0  0  0  0  0  0  0  0  0  0  0  0
   -7.8540    4.4495  -15.4017 C   0  0  0  0  0  0  0  0  0  0  0  0
   -8.5198    4.3626  -16.5935 C   0  0  0  0  0  0  0  0  0  0  0  0
   -9.8735    4.1873  -16.8013 N   0  0  0  0  0  0  0  0  0  0  0  0
  -10.1519    4.4565  -18.1319 C   0  0  0  0  0  0  0  0  0  0  0  0
  -11.2653    4.6249  -18.5870 O   0  0  0  0  0  0  0  0  0  0  0  0
   -8.9311    4.5901  -18.7941 N   0  0  0  0  0  0  0  0  0  0  0  0
   -7.9261    4.6246  -17.8292 C   0  0  0  0  0  0  0  0  0  0  0  0
  1  2  2  0
  2  3  1  0
  3  4  1  0
  4  5  1  0
  5  6  1  0
  6  7  1  0
  7  8  1  0
  2  9  1  0
  9 10  1  0
 10 11  2  0
 11 12  1  0
 12 13  2  0
 13 14  1  0
 14 15  1  0
 15 16  1  0
 16 17  2  0
 16 18  1  0
 18 19  1  0
  8  4  1  0
 19 10  1  0
 19 14  2  0
M  END
>  <energy_score>  (5354) 
-24.384891

>  <alias>  (5354) 
VULNQLMTZUITSG-UHFFFAOYSA-N-P86-P50-P86-601533

>  <HIPPO Pose ID>  (5354) 
91973

>  <smiles>  (5354) 
O=C(CC1CCCC1)Nc1cccc2[nH]c(=O)[nH]c12

>  <inchikey>  (5354) 
VULNQLMTZUITSG-UHFFFAOYSA-N

>  <distance_score>  (5354) 
1.526743

>  <ref_mols>  (5354) 
Z0846a,Z1597a

>  <ref_pdb>  (5354) 
Z0101a

>  <HIPPO Compound ID>  (5354) 
136848

>  <name>  (5354) 
VULNQLMTZUITSG-UHFFFAOYSA-N-P86-P50-P86-601533

>  <inspiration_score>  (5354) 
None

$$$$
UANSVNMLWVDQQH-UHFFFAOYSA-N-P86-P50-P86-601533
     RDKit          3D

 19 21  0  0  0  0  0  0  0  0999 V2000
  -10.6948    4.4653  -17.8793 C   0  0  0  0  0  0  0  0  0  0  0  0
   -9.3110    4.1476  -18.0728 N   0  0  0  0  0  0  0  0  0  0  0  0
   -8.7638    3.9848  -19.3060 C   0  0  0  0  0  0  0  0  0  0  0  0
   -7.4625    4.0511  -19.2827 N   0  0  0  0  0  0  0  0  0  0  0  0
   -7.1823    4.4636  -18.0136 C   0  0  0  0  0  0  0  0  0  0  0  0
   -5.9895    5.0276  -17.5463 C   0  0  0  0  0  0  0  0  0  0  0  0
   -5.0707    5.3392  -18.5391 N   0  0  0  0  0  0  0  0  0  0  0  0
   -3.7786    6.1941  -18.4830 C   0  0  0  0  0  0  0  0  0  0  0  0
   -3.2470    6.7037  -17.5765 O   0  0  0  0  0  0  0  0  0  0  0  0
   -3.3241    6.3657  -19.9392 C   0  0  0  0  0  0  0  0  0  0  0  0
   -4.2654    7.3035  -20.7106 C   0  0  0  0  0  0  0  0  0  0  0  0
   -4.3527    8.6977  -20.0897 C   0  0  0  0  0  0  0  0  0  0  0  0
   -4.6534    9.6610  -21.2345 C   0  0  0  0  0  0  0  0  0  0  0  0
   -4.6497    8.8286  -22.5071 C   0  0  0  0  0  0  0  0  0  0  0  0
   -3.8371    7.5952  -22.1497 C   0  0  0  0  0  0  0  0  0  0  0  0
   -5.8949    5.3451  -16.1967 C   0  0  0  0  0  0  0  0  0  0  0  0
   -6.9884    5.1136  -15.3432 C   0  0  0  0  0  0  0  0  0  0  0  0
   -8.2239    4.6427  -15.8187 C   0  0  0  0  0  0  0  0  0  0  0  0
   -8.2903    4.3742  -17.1848 C   0  0  0  0  0  0  0  0  0  0  0  0
  1  2  1  0
  2  3  1  0
  3  4  2  0
  4  5  1  0
  5  6  2  0
  6  7  1  0
  7  8  1  0
  8  9  2  0
  8 10  1  0
 10 11  1  0
 11 12  1  0
 12 13  1  0
 13 14  1  0
 14 15  1  0
  6 16  1  0
 16 17  2  0
 17 18  1  0
 18 19  2  0
 19  2  1  0
 19  5  1  0
 15 11  1  0
M  END
>  <energy_score>  (5355) 
-23.745278

>  <alias>  (5355) 
UANSVNMLWVDQQH-UHFFFAOYSA-N-P86-P50-P86-601533

>  <HIPPO Pose ID>  (5355) 
91977

>  <smiles>  (5355) 
Cn1cnc2c(NC(=O)CC3CCCC3)cccc21

>  <inchikey>  (5355) 
UANSVNMLWVDQQH-UHFFFAOYSA-N

>  <distance_score>  (5355) 
1.940938

>  <ref_mols>  (5355) 
Z0846a,Z1597a

>  <ref_pdb>  (5355) 
Z0101a

>  <HIPPO Compound ID>  (5355) 
136850

>  <name>  (5355) 
UANSVNMLWVDQQH-UHFFFAOYSA-N-P86-P50-P86-601533

>  <inspiration_score>  (5355) 
None

$$$$
GVXHEIQKPSDQDJ-UHFFFAOYSA-N-P50-P50-P86-601533
     RDKit          3D

 19 21  0  0  0  0  0  0  0  0999 V2000
   -5.3192   10.0169  -23.6111 O   0  0  0  0  0  0  0  0  0  0  0  0
   -5.0246    9.0605  -22.9291 C   0  0  0  0  0  0  0  0  0  0  0  0
   -5.2493    7.5324  -23.0548 C   0  0  0  0  0  0  0  0  0  0  0  0
   -5.1843    7.5126  -21.4909 C   0  0  0  0  0  0  0  0  0  0  0  0
   -4.6114    6.2495  -20.8751 C   0  0  0  0  0  0  0  0  0  0  0  0
   -4.7848    6.1516  -19.3636 C   0  0  0  0  0  0  0  0  0  0  0  0
   -3.9364    6.4310  -18.6075 O   0  0  0  0  0  0  0  0  0  0  0  0
   -6.2175    5.5813  -19.1116 N   0  0  0  0  0  0  0  0  0  0  0  0
   -6.8313    5.1684  -17.9316 C   0  0  0  0  0  0  0  0  0  0  0  0
   -6.1892    5.1623  -16.6903 C   0  0  0  0  0  0  0  0  0  0  0  0
   -6.8586    4.7257  -15.5388 C   0  0  0  0  0  0  0  0  0  0  0  0
   -6.0350    4.8483  -13.8489 Br  0  0  0  0  0  0  0  0  0  0  0  0
   -8.1618    4.2453  -15.5721 C   0  0  0  0  0  0  0  0  0  0  0  0
   -8.8218    4.2966  -16.7910 C   0  0  0  0  0  0  0  0  0  0  0  0
  -10.1289    4.0264  -17.0470 N   0  0  0  0  0  0  0  0  0  0  0  0
  -10.3298    4.4954  -18.2484 C   0  0  0  0  0  0  0  0  0  0  0  0
   -9.1536    4.7673  -18.8795 N   0  0  0  0  0  0  0  0  0  0  0  0
   -8.1646    4.7531  -17.9287 C   0  0  0  0  0  0  0  0  0  0  0  0
   -4.3661    8.8476  -21.5286 C   0  0  0  0  0  0  0  0  0  0  0  0
  1  2  2  0
  2  3  1  0
  3  4  1  0
  4  5  1  0
  5  6  1  0
  6  7  2  0
  6  8  1  0
  8  9  1  0
  9 10  2  0
 10 11  1  0
 11 12  1  0
 11 13  2  0
 13 14  1  0
 14 15  1  0
 15 16  2  0
 16 17  1  0
 17 18  1  0
  4 19  1  0
 19  2  1  0
 18  9  1  0
 18 14  2  0
M  END
>  <energy_score>  (5356) 
-18.129225

>  <alias>  (5356) 
GVXHEIQKPSDQDJ-UHFFFAOYSA-N-P50-P50-P86-601533

>  <HIPPO Pose ID>  (5356) 
91984

>  <smiles>  (5356) 
O=C1CC(CC(=O)Nc2cc(Br)cc3nc[nH]c23)C1

>  <inchikey>  (5356) 
GVXHEIQKPSDQDJ-UHFFFAOYSA-N

>  <distance_score>  (5356) 
1.056551

>  <ref_mols>  (5356) 
Z0846a,Z1597a

>  <ref_pdb>  (5356) 
Z0101a

>  <HIPPO Compound ID>  (5356) 
136854

>  <name>  (5356) 
GVXHEIQKPSDQDJ-UHFFFAOYSA-N-P50-P50-P86-601533

>  <inspiration_score>  (5356) 
None

$$$$
NVLLWYPYPATZNK-UHFFFAOYSA-N-P50-P50-P86-601533
     RDKit          3D

 19 21  0  0  0  0  0  0  0  0999 V2000
   -5.2644   10.1258  -23.5599 O   0  0  0  0  0  0  0  0  0  0  0  0
   -5.0123    9.1247  -22.9266 C   0  0  0  0  0  0  0  0  0  0  0  0
   -4.2713    8.8016  -21.5906 C   0  0  0  0  0  0  0  0  0  0  0  0
   -5.1918    7.5358  -21.5327 C   0  0  0  0  0  0  0  0  0  0  0  0
   -4.6659    6.1919  -21.0633 C   0  0  0  0  0  0  0  0  0  0  0  0
   -4.6835    5.9830  -19.5561 C   0  0  0  0  0  0  0  0  0  0  0  0
   -3.7299    6.1098  -18.8892 O   0  0  0  0  0  0  0  0  0  0  0  0
   -6.1345    5.5500  -19.1743 N   0  0  0  0  0  0  0  0  0  0  0  0
   -6.6573    5.1121  -17.9594 C   0  0  0  0  0  0  0  0  0  0  0  0
   -5.9127    5.0649  -16.7800 C   0  0  0  0  0  0  0  0  0  0  0  0
   -6.5055    4.6715  -15.5534 C   0  0  0  0  0  0  0  0  0  0  0  0
   -7.8574    4.3364  -15.4697 C   0  0  0  0  0  0  0  0  0  0  0  0
   -8.5639    4.3956  -16.6395 C   0  0  0  0  0  0  0  0  0  0  0  0
   -9.9295    4.2729  -16.8350 N   0  0  0  0  0  0  0  0  0  0  0  0
  -10.2178    4.6244  -18.1476 C   0  0  0  0  0  0  0  0  0  0  0  0
  -11.3288    4.8049  -18.6034 O   0  0  0  0  0  0  0  0  0  0  0  0
   -9.0015    4.8005  -18.8065 N   0  0  0  0  0  0  0  0  0  0  0  0
   -7.9821    4.7448  -17.8594 C   0  0  0  0  0  0  0  0  0  0  0  0
   -5.3891    7.6350  -23.0830 C   0  0  0  0  0  0  0  0  0  0  0  0
  1  2  2  0
  2  3  1  0
  3  4  1  0
  4  5  1  0
  5  6  1  0
  6  7  2  0
  6  8  1  0
  8  9  1  0
  9 10  2  0
 10 11  1  0
 11 12  2  0
 12 13  1  0
 13 14  1  0
 14 15  1  0
 15 16  2  0
 15 17  1  0
 17 18  1  0
  4 19  1  0
 19  2  1  0
 18  9  1  0
 18 13  2  0
M  END
>  <energy_score>  (5357) 
-31.139676

>  <alias>  (5357) 
NVLLWYPYPATZNK-UHFFFAOYSA-N-P50-P50-P86-601533

>  <HIPPO Pose ID>  (5357) 
91986

>  <smiles>  (5357) 
O=C1CC(CC(=O)Nc2cccc3[nH]c(=O)[nH]c23)C1

>  <inchikey>  (5357) 
NVLLWYPYPATZNK-UHFFFAOYSA-N

>  <distance_score>  (5357) 
1.217509

>  <ref_mols>  (5357) 
Z0846a,Z1597a

>  <ref_pdb>  (5357) 
Z0101a

>  <HIPPO Compound ID>  (5357) 
136855

>  <name>  (5357) 
NVLLWYPYPATZNK-UHFFFAOYSA-N-P50-P50-P86-601533

>  <inspiration_score>  (5357) 
None

$$$$
JYADDJQKLSTADP-UHFFFAOYSA-N-P50-P50-P86-601533
     RDKit          3D

 19 21  0  0  0  0  0  0  0  0999 V2000
   -5.7576    5.1889  -14.2230 C   0  0  0  0  0  0  0  0  0  0  0  0
   -6.5281    4.9897  -15.4877 C   0  0  0  0  0  0  0  0  0  0  0  0
   -6.0644    5.4794  -16.7261 C   0  0  0  0  0  0  0  0  0  0  0  0
   -6.8310    5.3723  -17.8923 C   0  0  0  0  0  0  0  0  0  0  0  0
   -6.4316    5.8524  -19.1369 N   0  0  0  0  0  0  0  0  0  0  0  0
   -5.1278    6.6006  -19.5647 C   0  0  0  0  0  0  0  0  0  0  0  0
   -4.2326    6.9918  -18.9208 O   0  0  0  0  0  0  0  0  0  0  0  0
   -5.2405    6.7549  -21.0760 C   0  0  0  0  0  0  0  0  0  0  0  0
   -4.1540    7.5821  -21.7609 C   0  0  0  0  0  0  0  0  0  0  0  0
   -4.4064    7.7299  -23.2974 C   0  0  0  0  0  0  0  0  0  0  0  0
   -4.9379    9.1450  -22.9925 C   0  0  0  0  0  0  0  0  0  0  0  0
   -5.6379    9.9334  -23.5918 O   0  0  0  0  0  0  0  0  0  0  0  0
   -4.2758    9.1320  -21.5957 C   0  0  0  0  0  0  0  0  0  0  0  0
   -8.0886    4.7831  -17.7444 C   0  0  0  0  0  0  0  0  0  0  0  0
   -9.1561    4.6181  -18.5926 N   0  0  0  0  0  0  0  0  0  0  0  0
  -10.2024    4.1648  -17.8470 C   0  0  0  0  0  0  0  0  0  0  0  0
   -9.8335    3.8393  -16.6375 N   0  0  0  0  0  0  0  0  0  0  0  0
   -8.5580    4.2913  -16.5318 C   0  0  0  0  0  0  0  0  0  0  0  0
   -7.7707    4.3636  -15.3893 C   0  0  0  0  0  0  0  0  0  0  0  0
  1  2  1  0
  2  3  2  0
  3  4  1  0
  4  5  1  0
  5  6  1  0
  6  7  2  0
  6  8  1  0
  8  9  1  0
  9 10  1  0
 10 11  1  0
 11 12  2  0
 11 13  1  0
  4 14  2  0
 14 15  1  0
 15 16  1  0
 16 17  2  0
 17 18  1  0
 18 19  2  0
 19  2  1  0
 13  9  1  0
 18 14  1  0
M  END
>  <energy_score>  (5358) 
-30.246156

>  <alias>  (5358) 
JYADDJQKLSTADP-UHFFFAOYSA-N-P50-P50-P86-601533

>  <HIPPO Pose ID>  (5358) 
91988

>  <smiles>  (5358) 
Cc1cc(NC(=O)CC2CC(=O)C2)c2[nH]cnc2c1

>  <inchikey>  (5358) 
JYADDJQKLSTADP-UHFFFAOYSA-N

>  <distance_score>  (5358) 
1.44507

>  <ref_mols>  (5358) 
Z0846a,Z1597a

>  <ref_pdb>  (5358) 
Z0101a

>  <HIPPO Compound ID>  (5358) 
136856

>  <name>  (5358) 
JYADDJQKLSTADP-UHFFFAOYSA-N-P50-P50-P86-601533

>  <inspiration_score>  (5358) 
None

$$$$
QXVRKSUHRBIKLU-UHFFFAOYSA-N-P50-P50-P86-601533
     RDKit          3D

 19 21  0  0  0  0  0  0  0  0999 V2000
  -10.3119    4.1858  -17.3291 C   0  0  0  0  0  0  0  0  0  0  0  0
   -8.9736    4.2203  -17.8361 N   0  0  0  0  0  0  0  0  0  0  0  0
   -8.6308    4.0185  -19.1312 C   0  0  0  0  0  0  0  0  0  0  0  0
   -7.3638    4.2463  -19.3468 N   0  0  0  0  0  0  0  0  0  0  0  0
   -6.9332    4.8245  -18.1877 C   0  0  0  0  0  0  0  0  0  0  0  0
   -5.7657    5.5680  -17.9713 C   0  0  0  0  0  0  0  0  0  0  0  0
   -4.9828    5.8433  -19.0895 N   0  0  0  0  0  0  0  0  0  0  0  0
   -3.8133    6.8479  -19.2796 C   0  0  0  0  0  0  0  0  0  0  0  0
   -3.3792    7.6518  -18.5502 O   0  0  0  0  0  0  0  0  0  0  0  0
   -3.2415    6.6164  -20.6755 C   0  0  0  0  0  0  0  0  0  0  0  0
   -3.7586    7.4967  -21.8139 C   0  0  0  0  0  0  0  0  0  0  0  0
   -5.2533    7.4317  -22.2600 C   0  0  0  0  0  0  0  0  0  0  0  0
   -5.1035    8.9416  -22.6056 C   0  0  0  0  0  0  0  0  0  0  0  0
   -5.6810    9.7169  -23.3374 O   0  0  0  0  0  0  0  0  0  0  0  0
   -3.8901    9.0475  -21.6378 C   0  0  0  0  0  0  0  0  0  0  0  0
   -5.5355    6.0506  -16.6838 C   0  0  0  0  0  0  0  0  0  0  0  0
   -6.4502    5.7964  -15.6461 C   0  0  0  0  0  0  0  0  0  0  0  0
   -7.6589    5.1283  -15.8697 C   0  0  0  0  0  0  0  0  0  0  0  0
   -7.8775    4.7023  -17.1764 C   0  0  0  0  0  0  0  0  0  0  0  0
  1  2  1  0
  2  3  1  0
  3  4  2  0
  4  5  1  0
  5  6  2  0
  6  7  1  0
  7  8  1  0
  8  9  2  0
  8 10  1  0
 10 11  1  0
 11 12  1  0
 12 13  1  0
 13 14  2  0
 13 15  1  0
  6 16  1  0
 16 17  2  0
 17 18  1  0
 18 19  2  0
 19  2  1  0
 19  5  1  0
 15 11  1  0
M  END
>  <energy_score>  (5359) 
-16.290797

>  <alias>  (5359) 
QXVRKSUHRBIKLU-UHFFFAOYSA-N-P50-P50-P86-601533

>  <HIPPO Pose ID>  (5359) 
91990

>  <smiles>  (5359) 
Cn1cnc2c(NC(=O)CC3CC(=O)C3)cccc21

>  <inchikey>  (5359) 
QXVRKSUHRBIKLU-UHFFFAOYSA-N

>  <distance_score>  (5359) 
1.682539

>  <ref_mols>  (5359) 
Z0846a,Z1597a

>  <ref_pdb>  (5359) 
Z0101a

>  <HIPPO Compound ID>  (5359) 
136857

>  <name>  (5359) 
QXVRKSUHRBIKLU-UHFFFAOYSA-N-P50-P50-P86-601533

>  <inspiration_score>  (5359) 
None

$$$$
VUUUCDOSMAFTQX-UHFFFAOYSA-N-P86-P50-P86-601533
     RDKit          3D

 19 20  0  0  0  0  0  0  0  0999 V2000
   -5.7421    7.6298  -24.5376 C   0  0  0  0  0  0  0  0  0  0  0  0
   -5.2292    8.0104  -23.1587 C   0  0  0  0  0  0  0  0  0  0  0  0
   -4.6946    6.7947  -22.4049 C   0  0  0  0  0  0  0  0  0  0  0  0
   -4.2330    7.1539  -20.9960 C   0  0  0  0  0  0  0  0  0  0  0  0
   -3.8826    5.9233  -20.2005 C   0  0  0  0  0  0  0  0  0  0  0  0
   -3.2888    4.9448  -20.6273 O   0  0  0  0  0  0  0  0  0  0  0  0
   -4.3658    5.9212  -18.7582 C   0  0  0  0  0  0  0  0  0  0  0  0
   -3.7050    6.3590  -17.9058 O   0  0  0  0  0  0  0  0  0  0  0  0
   -5.7775    5.3022  -18.7112 N   0  0  0  0  0  0  0  0  0  0  0  0
   -6.6006    5.0174  -17.6318 C   0  0  0  0  0  0  0  0  0  0  0  0
   -6.1880    5.1415  -16.3039 C   0  0  0  0  0  0  0  0  0  0  0  0
   -7.0502    4.8072  -15.2540 C   0  0  0  0  0  0  0  0  0  0  0  0
   -6.5049    5.0480  -13.4676 Br  0  0  0  0  0  0  0  0  0  0  0  0
   -8.3380    4.3337  -15.4738 C   0  0  0  0  0  0  0  0  0  0  0  0
   -8.7778    4.2812  -16.7895 C   0  0  0  0  0  0  0  0  0  0  0  0
  -10.0387    4.0571  -17.2455 N   0  0  0  0  0  0  0  0  0  0  0  0
   -9.9987    4.4419  -18.4909 C   0  0  0  0  0  0  0  0  0  0  0  0
   -8.7199    4.5602  -18.9410 N   0  0  0  0  0  0  0  0  0  0  0  0
   -7.9179    4.6142  -17.8312 C   0  0  0  0  0  0  0  0  0  0  0  0
  1  2  1  0
  2  3  1  0
  3  4  1  0
  4  5  1  0
  5  6  2  0
  5  7  1  0
  7  8  2  0
  7  9  1  0
  9 10  1  0
 10 11  2  0
 11 12  1  0
 12 13  1  0
 12 14  2  0
 14 15  1  0
 15 16  1  0
 16 17  2  0
 17 18  1  0
 18 19  1  0
 19 10  1  0
 19 15  2  0
M  END
>  <energy_score>  (5360) 
-20.784835

>  <alias>  (5360) 
VUUUCDOSMAFTQX-UHFFFAOYSA-N-P86-P50-P86-601533

>  <HIPPO Pose ID>  (5360) 
91997

>  <smiles>  (5360) 
CCCCC(=O)C(=O)Nc1cc(Br)cc2nc[nH]c12

>  <inchikey>  (5360) 
VUUUCDOSMAFTQX-UHFFFAOYSA-N

>  <distance_score>  (5360) 
1.01562

>  <ref_mols>  (5360) 
Z0846a,Z1597a

>  <ref_pdb>  (5360) 
Z0101a

>  <HIPPO Compound ID>  (5360) 
136860

>  <name>  (5360) 
VUUUCDOSMAFTQX-UHFFFAOYSA-N-P86-P50-P86-601533

>  <inspiration_score>  (5360) 
None

$$$$
RVIWUVVBOYFDOL-UHFFFAOYSA-N-P86-P50-P86-601533
     RDKit          3D

 19 20  0  0  0  0  0  0  0  0999 V2000
   -5.7956    7.6468  -24.6372 C   0  0  0  0  0  0  0  0  0  0  0  0
   -5.2404    8.0690  -23.2879 C   0  0  0  0  0  0  0  0  0  0  0  0
   -4.7180    6.8708  -22.4997 C   0  0  0  0  0  0  0  0  0  0  0  0
   -4.1751    7.2839  -21.1360 C   0  0  0  0  0  0  0  0  0  0  0  0
   -3.9733    6.0877  -20.2494 C   0  0  0  0  0  0  0  0  0  0  0  0
   -3.5305    5.0032  -20.5987 O   0  0  0  0  0  0  0  0  0  0  0  0
   -4.4442    6.2526  -18.8156 C   0  0  0  0  0  0  0  0  0  0  0  0
   -3.9214    6.9945  -18.0868 O   0  0  0  0  0  0  0  0  0  0  0  0
   -5.6680    5.3403  -18.6049 N   0  0  0  0  0  0  0  0  0  0  0  0
   -6.4223    5.0878  -17.4614 C   0  0  0  0  0  0  0  0  0  0  0  0
   -5.9871    5.1809  -16.1252 C   0  0  0  0  0  0  0  0  0  0  0  0
   -4.5863    5.5577  -15.7266 C   0  0  0  0  0  0  0  0  0  0  0  0
   -6.8655    4.8416  -15.0731 C   0  0  0  0  0  0  0  0  0  0  0  0
   -8.1622    4.3831  -15.3028 C   0  0  0  0  0  0  0  0  0  0  0  0
   -8.6013    4.3151  -16.6194 C   0  0  0  0  0  0  0  0  0  0  0  0
   -9.8508    4.0373  -17.0864 N   0  0  0  0  0  0  0  0  0  0  0  0
   -9.8104    4.3758  -18.3468 C   0  0  0  0  0  0  0  0  0  0  0  0
   -8.5340    4.5718  -18.7761 N   0  0  0  0  0  0  0  0  0  0  0  0
   -7.7405    4.6547  -17.6562 C   0  0  0  0  0  0  0  0  0  0  0  0
  1  2  1  0
  2  3  1  0
  3  4  1  0
  4  5  1  0
  5  6  2  0
  5  7  1  0
  7  8  2  0
  7  9  1  0
  9 10  1  0
 10 11  2  0
 11 12  1  0
 11 13  1  0
 13 14  2  0
 14 15  1  0
 15 16  1  0
 16 17  2  0
 17 18  1  0
 18 19  1  0
 19 10  1  0
 19 15  2  0
M  END
>  <energy_score>  (5361) 
-14.150671

>  <alias>  (5361) 
RVIWUVVBOYFDOL-UHFFFAOYSA-N-P86-P50-P86-601533

>  <HIPPO Pose ID>  (5361) 
91999

>  <smiles>  (5361) 
CCCCC(=O)C(=O)Nc1c(C)ccc2nc[nH]c12

>  <inchikey>  (5361) 
RVIWUVVBOYFDOL-UHFFFAOYSA-N

>  <distance_score>  (5361) 
1.258989

>  <ref_mols>  (5361) 
Z0846a,Z1597a

>  <ref_pdb>  (5361) 
Z0101a

>  <HIPPO Compound ID>  (5361) 
136861

>  <name>  (5361) 
RVIWUVVBOYFDOL-UHFFFAOYSA-N-P86-P50-P86-601533

>  <inspiration_score>  (5361) 
None

$$$$
CKAOJEMBZHXZHT-UHFFFAOYSA-N-P50-P50-P86-601534
     RDKit          3D

 19 20  0  0  0  0  0  0  0  0999 V2000
   -5.9009    7.7092  -24.3279 C   0  0  0  0  0  0  0  0  0  0  0  0
   -4.9550    7.9210  -23.1600 C   0  0  1  0  0  0  0  0  0  0  0  0
   -5.1655    9.1744  -22.6687 F   0  0  0  0  0  0  0  0  0  0  0  0
   -5.1841    6.9129  -22.0352 C   0  0  0  0  0  0  0  0  0  0  0  0
   -4.0467    6.9011  -21.0057 C   0  0  0  0  0  0  0  0  0  0  0  0
   -3.9324    5.5731  -20.2617 C   0  0  0  0  0  0  0  0  0  0  0  0
   -4.3432    5.6010  -18.7977 C   0  0  0  0  0  0  0  0  0  0  0  0
   -3.5693    5.7545  -17.9338 O   0  0  0  0  0  0  0  0  0  0  0  0
   -5.8701    5.2937  -18.7426 N   0  0  0  0  0  0  0  0  0  0  0  0
   -6.6990    5.0296  -17.6578 C   0  0  0  0  0  0  0  0  0  0  0  0
   -6.2328    5.0274  -16.3411 C   0  0  0  0  0  0  0  0  0  0  0  0
   -7.0777    4.6827  -15.2819 C   0  0  0  0  0  0  0  0  0  0  0  0
   -6.4578    4.7805  -13.5062 Br  0  0  0  0  0  0  0  0  0  0  0  0
   -8.3987    4.3029  -15.4821 C   0  0  0  0  0  0  0  0  0  0  0  0
   -8.8862    4.3553  -16.7811 C   0  0  0  0  0  0  0  0  0  0  0  0
  -10.1645    4.1682  -17.2091 N   0  0  0  0  0  0  0  0  0  0  0  0
  -10.1607    4.6162  -18.4348 C   0  0  0  0  0  0  0  0  0  0  0  0
   -8.8930    4.7732  -18.9068 N   0  0  0  0  0  0  0  0  0  0  0  0
   -8.0483    4.7226  -17.8298 C   0  0  0  0  0  0  0  0  0  0  0  0
  2  1  1  6
  2  3  1  0
  2  4  1  0
  4  5  1  0
  5  6  1  0
  6  7  1  0
  7  8  2  0
  7  9  1  0
  9 10  1  0
 10 11  2  0
 11 12  1  0
 12 13  1  0
 12 14  2  0
 14 15  1  0
 15 16  1  0
 16 17  2  0
 17 18  1  0
 18 19  1  0
 19 10  1  0
 19 15  2  0
M  END
>  <energy_score>  (5362) 
-5.124915

>  <alias>  (5362) 
CKAOJEMBZHXZHT-UHFFFAOYSA-N-P50-P50-P86-601534

>  <HIPPO Pose ID>  (5362) 
92026

>  <smiles>  (5362) 
CC(F)CCCC(=O)Nc1cc(Br)cc2nc[nH]c12

>  <inchikey>  (5362) 
CKAOJEMBZHXZHT-UHFFFAOYSA-N

>  <distance_score>  (5362) 
0.850609

>  <ref_mols>  (5362) 
Z0846a,Z1597a

>  <ref_pdb>  (5362) 
Z0846a

>  <HIPPO Compound ID>  (5362) 
136875

>  <name>  (5362) 
CKAOJEMBZHXZHT-UHFFFAOYSA-N-P50-P50-P86-601534

>  <inspiration_score>  (5362) 
None

$$$$
VPDSKLVRXQLMIM-UHFFFAOYSA-N-P86-P50-P86-601534
     RDKit          3D

 19 20  0  0  0  0  0  0  0  0999 V2000
   -6.2874    8.4571  -23.6353 O   0  0  0  0  0  0  0  0  0  0  0  0
   -5.7273    7.3754  -23.7571 C   0  0  0  0  0  0  0  0  0  0  0  0
   -4.9568    6.6651  -22.6751 C   0  0  0  0  0  0  0  0  0  0  0  0
   -4.8984    7.3928  -21.3367 C   0  0  0  0  0  0  0  0  0  0  0  0
   -3.7337    6.9067  -20.4745 C   0  0  0  0  0  0  0  0  0  0  0  0
   -3.8306    5.4460  -20.0433 C   0  0  0  0  0  0  0  0  0  0  0  0
   -4.2209    5.3186  -18.5755 C   0  0  0  0  0  0  0  0  0  0  0  0
   -3.4282    5.3785  -17.7180 O   0  0  0  0  0  0  0  0  0  0  0  0
   -5.7485    5.0340  -18.5171 N   0  0  0  0  0  0  0  0  0  0  0  0
   -6.5937    4.8661  -17.4275 C   0  0  0  0  0  0  0  0  0  0  0  0
   -6.1684    5.0134  -16.1060 C   0  0  0  0  0  0  0  0  0  0  0  0
   -7.0677    4.8247  -15.0524 C   0  0  0  0  0  0  0  0  0  0  0  0
   -6.5505    5.0558  -13.4337 Cl  0  0  0  0  0  0  0  0  0  0  0  0
   -8.4058    4.4972  -15.2559 C   0  0  0  0  0  0  0  0  0  0  0  0
   -8.8068    4.4113  -16.5772 C   0  0  0  0  0  0  0  0  0  0  0  0
  -10.0478    4.3013  -17.1405 N   0  0  0  0  0  0  0  0  0  0  0  0
   -9.8927    4.4828  -18.4777 C   0  0  0  0  0  0  0  0  0  0  0  0
   -8.6327    4.4714  -18.8326 N   0  0  0  0  0  0  0  0  0  0  0  0
   -7.9453    4.5630  -17.6562 C   0  0  0  0  0  0  0  0  0  0  0  0
  1  2  2  0
  2  3  1  0
  3  4  1  0
  4  5  1  0
  5  6  1  0
  6  7  1  0
  7  8  2  0
  7  9  1  0
  9 10  1  0
 10 11  2  0
 11 12  1  0
 12 13  1  0
 12 14  2  0
 14 15  1  0
 15 16  1  0
 16 17  1  0
 17 18  2  0
 18 19  1  0
 19 10  1  0
 19 15  2  0
M  END
>  <energy_score>  (5363) 
-28.348156

>  <alias>  (5363) 
VPDSKLVRXQLMIM-UHFFFAOYSA-N-P86-P50-P86-601534

>  <HIPPO Pose ID>  (5363) 
92043

>  <smiles>  (5363) 
O=CCCCCC(=O)Nc1cc(Cl)cc2[nH]cnc12

>  <inchikey>  (5363) 
VPDSKLVRXQLMIM-UHFFFAOYSA-N

>  <distance_score>  (5363) 
1.177776

>  <ref_mols>  (5363) 
Z0846a,Z1597a

>  <ref_pdb>  (5363) 
Z0846a

>  <HIPPO Compound ID>  (5363) 
136883

>  <name>  (5363) 
VPDSKLVRXQLMIM-UHFFFAOYSA-N-P86-P50-P86-601534

>  <inspiration_score>  (5363) 
None

$$$$
DPSDKAQJOUGQKH-UHFFFAOYSA-N-P86-P50-P86-601534
     RDKit          3D

 19 20  0  0  0  0  0  0  0  0999 V2000
   -6.2333    7.8449  -23.9594 O   0  0  0  0  0  0  0  0  0  0  0  0
   -5.1675    7.4301  -23.5146 C   0  0  0  0  0  0  0  0  0  0  0  0
   -4.9876    6.9870  -22.0872 C   0  0  0  0  0  0  0  0  0  0  0  0
   -3.8398    7.7341  -21.4214 C   0  0  0  0  0  0  0  0  0  0  0  0
   -3.8217    7.5518  -19.9028 C   0  0  0  0  0  0  0  0  0  0  0  0
   -3.3398    6.1702  -19.4604 C   0  0  0  0  0  0  0  0  0  0  0  0
   -3.8831    5.8347  -18.0764 C   0  0  0  0  0  0  0  0  0  0  0  0
   -3.2545    5.9284  -17.0954 O   0  0  0  0  0  0  0  0  0  0  0  0
   -5.3592    5.3824  -18.2903 N   0  0  0  0  0  0  0  0  0  0  0  0
   -6.3457    5.0592  -17.3675 C   0  0  0  0  0  0  0  0  0  0  0  0
   -6.1585    5.1264  -15.9888 C   0  0  0  0  0  0  0  0  0  0  0  0
   -7.1929    4.7802  -15.1129 C   0  0  0  0  0  0  0  0  0  0  0  0
   -6.9434    4.9568  -13.2540 Br  0  0  0  0  0  0  0  0  0  0  0  0
   -8.4351    4.3418  -15.5630 C   0  0  0  0  0  0  0  0  0  0  0  0
   -8.6450    4.3126  -16.9363 C   0  0  0  0  0  0  0  0  0  0  0  0
   -9.8035    4.0744  -17.6216 N   0  0  0  0  0  0  0  0  0  0  0  0
   -9.5188    4.4107  -18.8509 C   0  0  0  0  0  0  0  0  0  0  0  0
   -8.1869    4.6003  -19.0310 N   0  0  0  0  0  0  0  0  0  0  0  0
   -7.6117    4.6687  -17.7973 C   0  0  0  0  0  0  0  0  0  0  0  0
  1  2  2  0
  2  3  1  0
  3  4  1  0
  4  5  1  0
  5  6  1  0
  6  7  1  0
  7  8  2  0
  7  9  1  0
  9 10  1  0
 10 11  2  0
 11 12  1  0
 12 13  1  0
 12 14  2  0
 14 15  1  0
 15 16  1  0
 16 17  2  0
 17 18  1  0
 18 19  1  0
 19 10  1  0
 19 15  2  0
M  END
>  <energy_score>  (5364) 
-15.227472

>  <alias>  (5364) 
DPSDKAQJOUGQKH-UHFFFAOYSA-N-P86-P50-P86-601534

>  <HIPPO Pose ID>  (5364) 
92045

>  <smiles>  (5364) 
O=CCCCCC(=O)Nc1cc(Br)cc2nc[nH]c12

>  <inchikey>  (5364) 
DPSDKAQJOUGQKH-UHFFFAOYSA-N

>  <distance_score>  (5364) 
1.305033

>  <ref_mols>  (5364) 
Z0846a,Z1597a

>  <ref_pdb>  (5364) 
Z0846a

>  <HIPPO Compound ID>  (5364) 
136884

>  <name>  (5364) 
DPSDKAQJOUGQKH-UHFFFAOYSA-N-P86-P50-P86-601534

>  <inspiration_score>  (5364) 
None

$$$$
LXBRVSFOBDXXDM-UHFFFAOYSA-N-P86-P50-P86-601534
     RDKit          3D

 19 20  0  0  0  0  0  0  0  0999 V2000
   -4.3812    5.7553  -16.1788 C   0  0  0  0  0  0  0  0  0  0  0  0
   -5.7755    5.2801  -16.4767 C   0  0  0  0  0  0  0  0  0  0  0  0
   -6.5408    4.9055  -15.3425 C   0  0  0  0  0  0  0  0  0  0  0  0
   -7.8381    4.4103  -15.4381 C   0  0  0  0  0  0  0  0  0  0  0  0
   -8.3983    4.3458  -16.7043 C   0  0  0  0  0  0  0  0  0  0  0  0
   -9.6813    4.0262  -17.0360 N   0  0  0  0  0  0  0  0  0  0  0  0
   -9.7824    4.3593  -18.2938 C   0  0  0  0  0  0  0  0  0  0  0  0
   -8.5647    4.6135  -18.8465 N   0  0  0  0  0  0  0  0  0  0  0  0
   -7.6529    4.7159  -17.8201 C   0  0  0  0  0  0  0  0  0  0  0  0
   -6.3149    5.1615  -17.7769 C   0  0  0  0  0  0  0  0  0  0  0  0
   -5.7061    5.4218  -19.0218 N   0  0  0  0  0  0  0  0  0  0  0  0
   -4.2738    5.9543  -19.3611 C   0  0  0  0  0  0  0  0  0  0  0  0
   -3.4157    6.3284  -18.6549 O   0  0  0  0  0  0  0  0  0  0  0  0
   -4.0242    5.8336  -20.8795 C   0  0  0  0  0  0  0  0  0  0  0  0
   -5.2227    6.0433  -21.8056 C   0  0  0  0  0  0  0  0  0  0  0  0
   -4.9281    6.6032  -23.2122 C   0  0  0  0  0  0  0  0  0  0  0  0
   -5.1784    8.0971  -23.2965 C   0  0  0  0  0  0  0  0  0  0  0  0
   -4.3954    8.7812  -22.2211 C   0  0  0  0  0  0  0  0  0  0  0  0
   -4.8479    8.9733  -21.0962 O   0  0  0  0  0  0  0  0  0  0  0  0
  1  2  1  0
  2  3  2  0
  3  4  1  0
  4  5  2  0
  5  6  1  0
  6  7  2  0
  7  8  1  0
  8  9  1  0
  9 10  2  0
 10 11  1  0
 11 12  1  0
 12 13  2  0
 12 14  1  0
 14 15  1  0
 15 16  1  0
 16 17  1  0
 17 18  1  0
 18 19  2  0
 10  2  1  0
  9  5  1  0
M  END
>  <energy_score>  (5365) 
-0.499014

>  <alias>  (5365) 
LXBRVSFOBDXXDM-UHFFFAOYSA-N-P86-P50-P86-601534

>  <HIPPO Pose ID>  (5365) 
92047

>  <smiles>  (5365) 
Cc1ccc2nc[nH]c2c1NC(=O)CCCCC=O

>  <inchikey>  (5365) 
LXBRVSFOBDXXDM-UHFFFAOYSA-N

>  <distance_score>  (5365) 
1.672149

>  <ref_mols>  (5365) 
Z0846a,Z1597a

>  <ref_pdb>  (5365) 
Z0846a

>  <HIPPO Compound ID>  (5365) 
136885

>  <name>  (5365) 
LXBRVSFOBDXXDM-UHFFFAOYSA-N-P86-P50-P86-601534

>  <inspiration_score>  (5365) 
None

$$$$
GZMFYDIZIUPIOY-UHFFFAOYSA-N-P50-P50-P86-601534
     RDKit          3D

 19 20  0  0  0  0  0  0  0  0999 V2000
   -6.2770    4.9028  -13.7405 C   0  0  0  0  0  0  0  0  0  0  0  0
   -6.8565    4.8211  -15.1147 C   0  0  0  0  0  0  0  0  0  0  0  0
   -6.0762    5.0817  -16.2539 C   0  0  0  0  0  0  0  0  0  0  0  0
   -6.6041    4.9901  -17.5471 C   0  0  0  0  0  0  0  0  0  0  0  0
   -5.8122    5.0869  -18.6831 N   0  0  0  0  0  0  0  0  0  0  0  0
   -4.2993    5.4254  -18.8352 C   0  0  0  0  0  0  0  0  0  0  0  0
   -3.5107    5.7493  -18.0339 O   0  0  0  0  0  0  0  0  0  0  0  0
   -3.9331    5.1540  -20.2864 C   0  0  0  0  0  0  0  0  0  0  0  0
   -3.9653    6.3526  -21.2247 C   0  0  0  0  0  0  0  0  0  0  0  0
   -5.3021    6.5091  -21.9784 C   0  0  0  0  0  0  0  0  0  0  0  0
   -5.2059    7.4715  -23.1460 C   0  0  0  0  0  0  0  0  0  0  0  0
   -4.9644    8.8585  -22.6443 C   0  0  0  0  0  0  0  0  0  0  0  0
   -5.0613    9.1881  -21.4658 O   0  0  0  0  0  0  0  0  0  0  0  0
   -7.9602    4.6857  -17.6381 C   0  0  0  0  0  0  0  0  0  0  0  0
   -8.8559    4.6542  -18.6764 N   0  0  0  0  0  0  0  0  0  0  0  0
  -10.0880    4.4381  -18.1346 C   0  0  0  0  0  0  0  0  0  0  0  0
  -10.0160    4.0971  -16.8775 N   0  0  0  0  0  0  0  0  0  0  0  0
   -8.7331    4.3694  -16.5255 C   0  0  0  0  0  0  0  0  0  0  0  0
   -8.1805    4.4056  -15.2488 C   0  0  0  0  0  0  0  0  0  0  0  0
  1  2  1  0
  2  3  2  0
  3  4  1  0
  4  5  1  0
  5  6  1  0
  6  7  2  0
  6  8  1  0
  8  9  1  0
  9 10  1  0
 10 11  1  0
 11 12  1  0
 12 13  2  0
  4 14  2  0
 14 15  1  0
 15 16  1  0
 16 17  2  0
 17 18  1  0
 18 19  2  0
 19  2  1  0
 18 14  1  0
M  END
>  <energy_score>  (5366) 
-16.716088

>  <alias>  (5366) 
GZMFYDIZIUPIOY-UHFFFAOYSA-N-P50-P50-P86-601534

>  <HIPPO Pose ID>  (5366) 
92050

>  <smiles>  (5366) 
Cc1cc(NC(=O)CCCCC=O)c2[nH]cnc2c1

>  <inchikey>  (5366) 
GZMFYDIZIUPIOY-UHFFFAOYSA-N

>  <distance_score>  (5366) 
1.542061

>  <ref_mols>  (5366) 
Z0846a,Z1597a

>  <ref_pdb>  (5366) 
Z0846a

>  <HIPPO Compound ID>  (5366) 
136887

>  <name>  (5366) 
GZMFYDIZIUPIOY-UHFFFAOYSA-N-P50-P50-P86-601534

>  <inspiration_score>  (5366) 
None

$$$$
HSJGTPKQHPVQRX-UHFFFAOYSA-N-P50-P50-P86-601534
     RDKit          3D

 19 20  0  0  0  0  0  0  0  0999 V2000
   -5.8628    7.5157  -24.3747 C   0  0  0  0  0  0  0  0  0  0  0  0
   -5.3538    7.9040  -23.0104 C   0  0  0  0  0  0  0  0  0  0  0  0
   -5.5104    9.0473  -22.5811 O   0  0  0  0  0  0  0  0  0  0  0  0
   -4.6160    6.8213  -22.2397 C   0  0  0  0  0  0  0  0  0  0  0  0
   -4.1079    7.2698  -20.8706 C   0  0  0  0  0  0  0  0  0  0  0  0
   -3.2099    6.2236  -20.1930 C   0  0  0  0  0  0  0  0  0  0  0  0
   -3.5582    6.0522  -18.7145 C   0  0  0  0  0  0  0  0  0  0  0  0
   -2.9219    6.4877  -17.8373 O   0  0  0  0  0  0  0  0  0  0  0  0
   -4.9155    5.2999  -18.6953 N   0  0  0  0  0  0  0  0  0  0  0  0
   -5.7779    5.0248  -17.6449 C   0  0  0  0  0  0  0  0  0  0  0  0
   -5.5439    5.2792  -16.2980 C   0  0  0  0  0  0  0  0  0  0  0  0
   -6.5656    5.0797  -15.3538 C   0  0  0  0  0  0  0  0  0  0  0  0
   -7.8566    4.6780  -15.7250 C   0  0  0  0  0  0  0  0  0  0  0  0
   -8.0591    4.4616  -17.0864 C   0  0  0  0  0  0  0  0  0  0  0  0
   -7.0425    4.5605  -18.0228 C   0  0  0  0  0  0  0  0  0  0  0  0
   -7.4751    4.2384  -19.2780 N   0  0  0  0  0  0  0  0  0  0  0  0
   -8.7705    4.1374  -19.1534 C   0  0  0  0  0  0  0  0  0  0  0  0
   -9.1592    4.2076  -17.8574 N   0  0  0  0  0  0  0  0  0  0  0  0
  -10.5164    4.2108  -17.4120 C   0  0  0  0  0  0  0  0  0  0  0  0
  1  2  1  0
  2  3  2  0
  2  4  1  0
  4  5  1  0
  5  6  1  0
  6  7  1  0
  7  8  2  0
  7  9  1  0
  9 10  1  0
 10 11  2  0
 11 12  1  0
 12 13  2  0
 13 14  1  0
 14 15  2  0
 15 16  1  0
 16 17  2  0
 17 18  1  0
 18 19  1  0
 15 10  1  0
 18 14  1  0
M  END
>  <energy_score>  (5367) 
-2.899753

>  <alias>  (5367) 
HSJGTPKQHPVQRX-UHFFFAOYSA-N-P50-P50-P86-601534

>  <HIPPO Pose ID>  (5367) 
92058

>  <smiles>  (5367) 
CC(=O)CCCC(=O)Nc1cccc2c1ncn2C

>  <inchikey>  (5367) 
HSJGTPKQHPVQRX-UHFFFAOYSA-N

>  <distance_score>  (5367) 
1.349672

>  <ref_mols>  (5367) 
Z0846a,Z1597a

>  <ref_pdb>  (5367) 
Z0846a

>  <HIPPO Compound ID>  (5367) 
136891

>  <name>  (5367) 
HSJGTPKQHPVQRX-UHFFFAOYSA-N-P50-P50-P86-601534

>  <inspiration_score>  (5367) 
None

$$$$
FJWHPBPZRAJQEQ-UHFFFAOYSA-N-P50-P50-P86-601534
     RDKit          3D

 19 20  0  0  0  0  0  0  0  0999 V2000
   -5.9452    7.8232  -24.5496 C   0  0  0  0  0  0  0  0  0  0  0  0
   -5.4999    8.0026  -23.1207 C   0  0  0  0  0  0  0  0  0  0  0  0
   -5.5752    9.0977  -22.5647 O   0  0  0  0  0  0  0  0  0  0  0  0
   -4.9208    6.7734  -22.4515 C   0  0  0  0  0  0  0  0  0  0  0  0
   -4.8091    6.8727  -20.9326 C   0  0  0  0  0  0  0  0  0  0  0  0
   -4.3097    5.5565  -20.3466 C   0  0  0  0  0  0  0  0  0  0  0  0
   -4.5569    5.4306  -18.8545 C   0  0  0  0  0  0  0  0  0  0  0  0
   -3.7187    5.5677  -18.0508 O   0  0  0  0  0  0  0  0  0  0  0  0
   -6.0487    5.0157  -18.6951 N   0  0  0  0  0  0  0  0  0  0  0  0
   -6.8025    4.7879  -17.5543 C   0  0  0  0  0  0  0  0  0  0  0  0
   -6.2745    4.8106  -16.2641 C   0  0  0  0  0  0  0  0  0  0  0  0
   -7.1187    4.6354  -15.1638 C   0  0  0  0  0  0  0  0  0  0  0  0
   -6.4836    4.7463  -13.5736 Cl  0  0  0  0  0  0  0  0  0  0  0  0
   -8.4927    4.4348  -15.2927 C   0  0  0  0  0  0  0  0  0  0  0  0
   -8.9844    4.4494  -16.5867 C   0  0  0  0  0  0  0  0  0  0  0  0
  -10.2581    4.4458  -17.0782 N   0  0  0  0  0  0  0  0  0  0  0  0
  -10.1830    4.6659  -18.4146 C   0  0  0  0  0  0  0  0  0  0  0  0
   -8.9485    4.6059  -18.8448 N   0  0  0  0  0  0  0  0  0  0  0  0
   -8.1839    4.5902  -17.7100 C   0  0  0  0  0  0  0  0  0  0  0  0
  1  2  1  0
  2  3  2  0
  2  4  1  0
  4  5  1  0
  5  6  1  0
  6  7  1  0
  7  8  2  0
  7  9  1  0
  9 10  1  0
 10 11  2  0
 11 12  1  0
 12 13  1  0
 12 14  2  0
 14 15  1  0
 15 16  1  0
 16 17  1  0
 17 18  2  0
 18 19  1  0
 19 10  1  0
 19 15  2  0
M  END
>  <energy_score>  (5368) 
-24.599614

>  <alias>  (5368) 
FJWHPBPZRAJQEQ-UHFFFAOYSA-N-P50-P50-P86-601534

>  <HIPPO Pose ID>  (5368) 
92064

>  <smiles>  (5368) 
CC(=O)CCCC(=O)Nc1cc(Cl)cc2[nH]cnc12

>  <inchikey>  (5368) 
FJWHPBPZRAJQEQ-UHFFFAOYSA-N

>  <distance_score>  (5368) 
0.933658

>  <ref_mols>  (5368) 
Z0846a,Z1597a

>  <ref_pdb>  (5368) 
Z0846a

>  <HIPPO Compound ID>  (5368) 
136894

>  <name>  (5368) 
FJWHPBPZRAJQEQ-UHFFFAOYSA-N-P50-P50-P86-601534

>  <inspiration_score>  (5368) 
None

$$$$
AKLLCKCTCQFIHT-UHFFFAOYSA-N-P50-P50-P86-601534
     RDKit          3D

 19 20  0  0  0  0  0  0  0  0999 V2000
   -5.5720    7.3589  -24.3154 C   0  0  0  0  0  0  0  0  0  0  0  0
   -5.4463    7.9097  -22.9200 C   0  0  0  0  0  0  0  0  0  0  0  0
   -5.4536    9.1227  -22.7066 O   0  0  0  0  0  0  0  0  0  0  0  0
   -5.3328    6.9101  -21.7861 C   0  0  0  0  0  0  0  0  0  0  0  0
   -3.9234    6.8276  -21.2241 C   0  0  0  0  0  0  0  0  0  0  0  0
   -3.7363    5.6454  -20.2810 C   0  0  0  0  0  0  0  0  0  0  0  0
   -4.2061    5.8835  -18.8507 C   0  0  0  0  0  0  0  0  0  0  0  0
   -3.5354    6.4251  -18.0582 O   0  0  0  0  0  0  0  0  0  0  0  0
   -5.6027    5.1989  -18.6968 N   0  0  0  0  0  0  0  0  0  0  0  0
   -6.3828    4.9684  -17.5540 C   0  0  0  0  0  0  0  0  0  0  0  0
   -5.9151    4.8759  -16.2245 C   0  0  0  0  0  0  0  0  0  0  0  0
   -4.4727    5.0324  -15.8270 C   0  0  0  0  0  0  0  0  0  0  0  0
   -6.8050    4.5531  -15.1754 C   0  0  0  0  0  0  0  0  0  0  0  0
   -8.1498    4.2709  -15.3987 C   0  0  0  0  0  0  0  0  0  0  0  0
   -8.6210    4.3576  -16.7021 C   0  0  0  0  0  0  0  0  0  0  0  0
   -9.8997    4.1950  -17.1522 N   0  0  0  0  0  0  0  0  0  0  0  0
   -9.8621    4.5925  -18.3956 C   0  0  0  0  0  0  0  0  0  0  0  0
   -8.5829    4.7755  -18.8256 N   0  0  0  0  0  0  0  0  0  0  0  0
   -7.7525    4.7018  -17.7340 C   0  0  0  0  0  0  0  0  0  0  0  0
  1  2  1  0
  2  3  2  0
  2  4  1  0
  4  5  1  0
  5  6  1  0
  6  7  1  0
  7  8  2  0
  7  9  1  0
  9 10  1  0
 10 11  2  0
 11 12  1  0
 11 13  1  0
 13 14  2  0
 14 15  1  0
 15 16  1  0
 16 17  2  0
 17 18  1  0
 18 19  1  0
 19 10  1  0
 19 15  2  0
M  END
>  <energy_score>  (5369) 
-9.651194

>  <alias>  (5369) 
AKLLCKCTCQFIHT-UHFFFAOYSA-N-P50-P50-P86-601534

>  <HIPPO Pose ID>  (5369) 
92068

>  <smiles>  (5369) 
CC(=O)CCCC(=O)Nc1c(C)ccc2nc[nH]c12

>  <inchikey>  (5369) 
AKLLCKCTCQFIHT-UHFFFAOYSA-N

>  <distance_score>  (5369) 
1.161537

>  <ref_mols>  (5369) 
Z0846a,Z1597a

>  <ref_pdb>  (5369) 
Z0846a

>  <HIPPO Compound ID>  (5369) 
136896

>  <name>  (5369) 
AKLLCKCTCQFIHT-UHFFFAOYSA-N-P50-P50-P86-601534

>  <inspiration_score>  (5369) 
None

$$$$
GTEZXPMPUZLWBU-UHFFFAOYSA-N-P86-P50-P86-601534
     RDKit          3D

 19 20  0  0  0  0  0  0  0  0999 V2000
   -5.5876    7.5332  -24.4262 C   0  0  0  0  0  0  0  0  0  0  0  0
   -5.3147    7.9674  -23.0099 C   0  0  0  0  0  0  0  0  0  0  0  0
   -5.1793    9.1553  -22.7182 O   0  0  0  0  0  0  0  0  0  0  0  0
   -5.2622    6.8828  -21.9560 C   0  0  0  0  0  0  0  0  0  0  0  0
   -3.8872    6.6847  -21.3459 C   0  0  0  0  0  0  0  0  0  0  0  0
   -3.8356    5.4118  -20.5087 C   0  0  0  0  0  0  0  0  0  0  0  0
   -4.1867    5.5953  -19.0357 C   0  0  0  0  0  0  0  0  0  0  0  0
   -3.3712    5.8924  -18.2499 O   0  0  0  0  0  0  0  0  0  0  0  0
   -5.6909    5.2224  -18.8409 N   0  0  0  0  0  0  0  0  0  0  0  0
   -6.4379    5.0547  -17.6756 C   0  0  0  0  0  0  0  0  0  0  0  0
   -5.8599    5.2290  -16.4122 C   0  0  0  0  0  0  0  0  0  0  0  0
   -6.5812    4.9759  -15.2211 C   0  0  0  0  0  0  0  0  0  0  0  0
   -7.9056    4.5552  -15.2564 C   0  0  0  0  0  0  0  0  0  0  0  0
   -8.4572    4.4239  -16.5016 C   0  0  0  0  0  0  0  0  0  0  0  0
   -9.7882    4.2219  -16.8116 N   0  0  0  0  0  0  0  0  0  0  0  0
   -9.9594    4.4685  -18.1647 C   0  0  0  0  0  0  0  0  0  0  0  0
  -11.0391    4.6479  -18.6920 O   0  0  0  0  0  0  0  0  0  0  0  0
   -8.6848    4.5872  -18.7356 N   0  0  0  0  0  0  0  0  0  0  0  0
   -7.7587    4.6597  -17.6910 C   0  0  0  0  0  0  0  0  0  0  0  0
  1  2  1  0
  2  3  2  0
  2  4  1  0
  4  5  1  0
  5  6  1  0
  6  7  1  0
  7  8  2  0
  7  9  1  0
  9 10  1  0
 10 11  2  0
 11 12  1  0
 12 13  2  0
 13 14  1  0
 14 15  1  0
 15 16  1  0
 16 17  2  0
 16 18  1  0
 18 19  1  0
 19 10  1  0
 19 14  2  0
M  END
>  <energy_score>  (5370) 
-12.665119

>  <alias>  (5370) 
GTEZXPMPUZLWBU-UHFFFAOYSA-N-P86-P50-P86-601534

>  <HIPPO Pose ID>  (5370) 
92071

>  <smiles>  (5370) 
CC(=O)CCCC(=O)Nc1cccc2[nH]c(=O)[nH]c12

>  <inchikey>  (5370) 
GTEZXPMPUZLWBU-UHFFFAOYSA-N

>  <distance_score>  (5370) 
0.998798

>  <ref_mols>  (5370) 
Z0846a,Z1597a

>  <ref_pdb>  (5370) 
Z0846a

>  <HIPPO Compound ID>  (5370) 
136897

>  <name>  (5370) 
GTEZXPMPUZLWBU-UHFFFAOYSA-N-P86-P50-P86-601534

>  <inspiration_score>  (5370) 
None

$$$$
LUDZHANZKOMMBD-UHFFFAOYSA-N-P50-P50-P86-601534
     RDKit          3D

 19 20  0  0  0  0  0  0  0  0999 V2000
   -5.9364    7.7743  -24.6855 C   0  0  0  0  0  0  0  0  0  0  0  0
   -5.5222    8.0208  -23.2587 C   0  0  0  0  0  0  0  0  0  0  0  0
   -5.6759    9.1220  -22.7319 O   0  0  0  0  0  0  0  0  0  0  0  0
   -4.8974    6.8438  -22.5389 C   0  0  0  0  0  0  0  0  0  0  0  0
   -4.7590    7.0523  -21.0353 C   0  0  0  0  0  0  0  0  0  0  0  0
   -4.2017    5.8067  -20.3617 C   0  0  0  0  0  0  0  0  0  0  0  0
   -4.4551    5.7972  -18.8655 C   0  0  0  0  0  0  0  0  0  0  0  0
   -3.6257    6.0207  -18.0713 O   0  0  0  0  0  0  0  0  0  0  0  0
   -5.9470    5.3811  -18.6790 N   0  0  0  0  0  0  0  0  0  0  0  0
   -6.6596    5.0773  -17.5288 C   0  0  0  0  0  0  0  0  0  0  0  0
   -6.0832    5.1127  -16.2543 C   0  0  0  0  0  0  0  0  0  0  0  0
   -6.8103    4.7660  -15.1043 C   0  0  0  0  0  0  0  0  0  0  0  0
   -6.1941    4.8241  -13.7453 C   0  0  0  0  0  0  0  0  0  0  0  0
   -8.1221    4.3078  -15.2129 C   0  0  0  0  0  0  0  0  0  0  0  0
   -8.7175    4.3020  -16.4707 C   0  0  0  0  0  0  0  0  0  0  0  0
   -9.9998    3.9926  -16.7904 N   0  0  0  0  0  0  0  0  0  0  0  0
  -10.1291    4.3671  -18.0337 C   0  0  0  0  0  0  0  0  0  0  0  0
   -8.9271    4.6635  -18.6039 N   0  0  0  0  0  0  0  0  0  0  0  0
   -7.9994    4.7008  -17.5931 C   0  0  0  0  0  0  0  0  0  0  0  0
  1  2  1  0
  2  3  2  0
  2  4  1  0
  4  5  1  0
  5  6  1  0
  6  7  1  0
  7  8  2  0
  7  9  1  0
  9 10  1  0
 10 11  2  0
 11 12  1  0
 12 13  1  0
 12 14  2  0
 14 15  1  0
 15 16  1  0
 16 17  2  0
 17 18  1  0
 18 19  1  0
 19 10  1  0
 19 15  2  0
M  END
>  <energy_score>  (5371) 
-15.97197

>  <alias>  (5371) 
LUDZHANZKOMMBD-UHFFFAOYSA-N-P50-P50-P86-601534

>  <HIPPO Pose ID>  (5371) 
92072

>  <smiles>  (5371) 
CC(=O)CCCC(=O)Nc1cc(C)cc2nc[nH]c12

>  <inchikey>  (5371) 
LUDZHANZKOMMBD-UHFFFAOYSA-N

>  <distance_score>  (5371) 
1.23047

>  <ref_mols>  (5371) 
Z0846a,Z1597a

>  <ref_pdb>  (5371) 
Z0846a

>  <HIPPO Compound ID>  (5371) 
136898

>  <name>  (5371) 
LUDZHANZKOMMBD-UHFFFAOYSA-N-P50-P50-P86-601534

>  <inspiration_score>  (5371) 
None

$$$$
NSBQCHINEFYSJD-UHFFFAOYSA-N-P50-P50-P86-601534
     RDKit          3D

 19 21  0  0  0  0  0  0  0  0999 V2000
   -5.0376    8.9740  -23.5654 C   0  0  0  0  0  0  0  0  0  0  0  0
   -4.6812    8.8236  -22.1012 C   0  0  0  0  0  0  0  0  0  0  0  0
   -5.4632    7.7614  -21.3413 C   0  0  0  0  0  0  0  0  0  0  0  0
   -4.7422    6.4497  -21.0564 C   0  0  0  0  0  0  0  0  0  0  0  0
   -4.7959    6.0858  -19.5671 C   0  0  0  0  0  0  0  0  0  0  0  0
   -3.8753    6.2244  -18.8561 O   0  0  0  0  0  0  0  0  0  0  0  0
   -6.2242    5.5189  -19.2760 N   0  0  0  0  0  0  0  0  0  0  0  0
   -6.8117    5.1135  -18.0740 C   0  0  0  0  0  0  0  0  0  0  0  0
   -6.1297    5.0853  -16.8525 C   0  0  0  0  0  0  0  0  0  0  0  0
   -6.7755    4.6795  -15.6742 C   0  0  0  0  0  0  0  0  0  0  0  0
   -5.9021    4.7951  -14.0083 Br  0  0  0  0  0  0  0  0  0  0  0  0
   -8.0926    4.2385  -15.6601 C   0  0  0  0  0  0  0  0  0  0  0  0
   -8.7887    4.3031  -16.8571 C   0  0  0  0  0  0  0  0  0  0  0  0
  -10.1104    4.0619  -17.0664 N   0  0  0  0  0  0  0  0  0  0  0  0
  -10.3391    4.5182  -18.2672 C   0  0  0  0  0  0  0  0  0  0  0  0
   -9.1781    4.7700  -18.9333 N   0  0  0  0  0  0  0  0  0  0  0  0
   -8.1576    4.7400  -18.0180 C   0  0  0  0  0  0  0  0  0  0  0  0
   -3.2742    9.1527  -21.6471 C   0  0  0  0  0  0  0  0  0  0  0  0
   -4.3839   10.1162  -21.3660 C   0  0  0  0  0  0  0  0  0  0  0  0
  1  2  1  0
  2  3  1  0
  3  4  1  0
  4  5  1  0
  5  6  2  0
  5  7  1  0
  7  8  1  0
  8  9  2  0
  9 10  1  0
 10 11  1  0
 10 12  2  0
 12 13  1  0
 13 14  1  0
 14 15  2  0
 15 16  1  0
 16 17  1  0
  2 18  1  0
 18 19  1  0
 19  2  1  0
 17  8  1  0
 17 13  2  0
M  END
>  <energy_score>  (5372) 
-16.727779

>  <alias>  (5372) 
NSBQCHINEFYSJD-UHFFFAOYSA-N-P50-P50-P86-601534

>  <HIPPO Pose ID>  (5372) 
92078

>  <smiles>  (5372) 
CC1(CCC(=O)Nc2cc(Br)cc3nc[nH]c23)CC1

>  <inchikey>  (5372) 
NSBQCHINEFYSJD-UHFFFAOYSA-N

>  <distance_score>  (5372) 
1.40549

>  <ref_mols>  (5372) 
Z0846a,Z1597a

>  <ref_pdb>  (5372) 
Z0846a

>  <HIPPO Compound ID>  (5372) 
136901

>  <name>  (5372) 
NSBQCHINEFYSJD-UHFFFAOYSA-N-P50-P50-P86-601534

>  <inspiration_score>  (5372) 
None

$$$$
YRSVEZVWVCQUNX-UHFFFAOYSA-N-P50-P50-P86-601534
     RDKit          3D

 19 21  0  0  0  0  0  0  0  0999 V2000
   -4.3989    5.1965  -16.6045 C   0  0  0  0  0  0  0  0  0  0  0  0
   -5.8818    4.9751  -16.7199 C   0  0  0  0  0  0  0  0  0  0  0  0
   -6.5258    4.5342  -15.5401 C   0  0  0  0  0  0  0  0  0  0  0  0
   -7.8707    4.1765  -15.5131 C   0  0  0  0  0  0  0  0  0  0  0  0
   -8.5883    4.2874  -16.6963 C   0  0  0  0  0  0  0  0  0  0  0  0
   -9.9119    4.0354  -16.9047 N   0  0  0  0  0  0  0  0  0  0  0  0
  -10.1476    4.4639  -18.1161 C   0  0  0  0  0  0  0  0  0  0  0  0
   -8.9934    4.7818  -18.7660 N   0  0  0  0  0  0  0  0  0  0  0  0
   -7.9654    4.7488  -17.8515 C   0  0  0  0  0  0  0  0  0  0  0  0
   -6.6116    5.1305  -17.9190 C   0  0  0  0  0  0  0  0  0  0  0  0
   -6.1260    5.5757  -19.1605 N   0  0  0  0  0  0  0  0  0  0  0  0
   -4.8501    6.4118  -19.5118 C   0  0  0  0  0  0  0  0  0  0  0  0
   -3.9758    6.7864  -18.8272 O   0  0  0  0  0  0  0  0  0  0  0  0
   -4.8350    6.6112  -21.0234 C   0  0  0  0  0  0  0  0  0  0  0  0
   -4.9159    8.0928  -21.3818 C   0  0  0  0  0  0  0  0  0  0  0  0
   -5.1357    8.4232  -22.8601 C   0  0  0  0  0  0  0  0  0  0  0  0
   -5.4152    9.8861  -23.1342 C   0  0  0  0  0  0  0  0  0  0  0  0
   -4.2969    7.7033  -23.8916 C   0  0  0  0  0  0  0  0  0  0  0  0
   -5.7658    7.4171  -23.8031 C   0  0  0  0  0  0  0  0  0  0  0  0
  1  2  1  0
  2  3  2  0
  3  4  1  0
  4  5  2  0
  5  6  1  0
  6  7  2  0
  7  8  1  0
  8  9  1  0
  9 10  2  0
 10 11  1  0
 11 12  1  0
 12 13  2  0
 12 14  1  0
 14 15  1  0
 15 16  1  0
 16 17  1  0
 16 18  1  0
 18 19  1  0
 10  2  1  0
 19 16  1  0
  9  5  1  0
M  END
>  <energy_score>  (5373) 
-9.336175

>  <alias>  (5373) 
YRSVEZVWVCQUNX-UHFFFAOYSA-N-P50-P50-P86-601534

>  <HIPPO Pose ID>  (5373) 
92080

>  <smiles>  (5373) 
Cc1ccc2nc[nH]c2c1NC(=O)CCC1(C)CC1

>  <inchikey>  (5373) 
YRSVEZVWVCQUNX-UHFFFAOYSA-N

>  <distance_score>  (5373) 
1.653452

>  <ref_mols>  (5373) 
Z0846a,Z1597a

>  <ref_pdb>  (5373) 
Z0846a

>  <HIPPO Compound ID>  (5373) 
136902

>  <name>  (5373) 
YRSVEZVWVCQUNX-UHFFFAOYSA-N-P50-P50-P86-601534

>  <inspiration_score>  (5373) 
None

$$$$
SVQFXTZUJVPTHU-UHFFFAOYSA-N-P50-P50-P86-601534
     RDKit          3D

 19 21  0  0  0  0  0  0  0  0999 V2000
   -5.2739    9.7160  -22.9895 C   0  0  0  0  0  0  0  0  0  0  0  0
   -5.0605    8.2280  -22.7952 C   0  0  0  0  0  0  0  0  0  0  0  0
   -4.8928    7.7964  -21.3354 C   0  0  0  0  0  0  0  0  0  0  0  0
   -4.6860    6.3085  -21.0722 C   0  0  0  0  0  0  0  0  0  0  0  0
   -4.7014    5.9896  -19.5802 C   0  0  0  0  0  0  0  0  0  0  0  0
   -3.7552    6.1297  -18.9048 O   0  0  0  0  0  0  0  0  0  0  0  0
   -6.1172    5.4315  -19.2337 N   0  0  0  0  0  0  0  0  0  0  0  0
   -6.6603    5.0380  -18.0117 C   0  0  0  0  0  0  0  0  0  0  0  0
   -5.9098    4.9730  -16.8357 C   0  0  0  0  0  0  0  0  0  0  0  0
   -6.5059    4.6141  -15.6001 C   0  0  0  0  0  0  0  0  0  0  0  0
   -7.8668    4.3246  -15.5038 C   0  0  0  0  0  0  0  0  0  0  0  0
   -8.5783    4.3962  -16.6698 C   0  0  0  0  0  0  0  0  0  0  0  0
   -9.9470    4.3025  -16.8567 N   0  0  0  0  0  0  0  0  0  0  0  0
  -10.2343    4.6440  -18.1715 C   0  0  0  0  0  0  0  0  0  0  0  0
  -11.3443    4.8390  -18.6240 O   0  0  0  0  0  0  0  0  0  0  0  0
   -9.0188    4.7910  -18.8375 N   0  0  0  0  0  0  0  0  0  0  0  0
   -7.9952    4.7191  -17.8973 C   0  0  0  0  0  0  0  0  0  0  0  0
   -5.7472    7.3228  -23.7953 C   0  0  0  0  0  0  0  0  0  0  0  0
   -4.2600    7.5126  -23.8589 C   0  0  0  0  0  0  0  0  0  0  0  0
  1  2  1  0
  2  3  1  0
  3  4  1  0
  4  5  1  0
  5  6  2  0
  5  7  1  0
  7  8  1  0
  8  9  2  0
  9 10  1  0
 10 11  2  0
 11 12  1  0
 12 13  1  0
 13 14  1  0
 14 15  2  0
 14 16  1  0
 16 17  1  0
  2 18  1  0
 18 19  1  0
 19  2  1  0
 17  8  1  0
 17 12  2  0
M  END
>  <energy_score>  (5374) 
-20.96842

>  <alias>  (5374) 
SVQFXTZUJVPTHU-UHFFFAOYSA-N-P50-P50-P86-601534

>  <HIPPO Pose ID>  (5374) 
92082

>  <smiles>  (5374) 
CC1(CCC(=O)Nc2cccc3[nH]c(=O)[nH]c23)CC1

>  <inchikey>  (5374) 
SVQFXTZUJVPTHU-UHFFFAOYSA-N

>  <distance_score>  (5374) 
1.294711

>  <ref_mols>  (5374) 
Z0846a,Z1597a

>  <ref_pdb>  (5374) 
Z0846a

>  <HIPPO Compound ID>  (5374) 
136903

>  <name>  (5374) 
SVQFXTZUJVPTHU-UHFFFAOYSA-N-P50-P50-P86-601534

>  <inspiration_score>  (5374) 
None

$$$$
QXJQCDRTPOHIMV-UHFFFAOYSA-N-P86-P50-P86-601534
     RDKit          3D

 19 21  0  0  0  0  0  0  0  0999 V2000
   -5.6824    5.4558  -14.2679 C   0  0  0  0  0  0  0  0  0  0  0  0
   -6.4143    5.1607  -15.5361 C   0  0  0  0  0  0  0  0  0  0  0  0
   -5.9382    5.5862  -16.7937 C   0  0  0  0  0  0  0  0  0  0  0  0
   -6.6651    5.3737  -17.9742 C   0  0  0  0  0  0  0  0  0  0  0  0
   -6.2403    5.8069  -19.2306 N   0  0  0  0  0  0  0  0  0  0  0  0
   -4.9730    6.6243  -19.6478 C   0  0  0  0  0  0  0  0  0  0  0  0
   -4.1405    7.1200  -18.9908 O   0  0  0  0  0  0  0  0  0  0  0  0
   -4.9885    6.6471  -21.1841 C   0  0  0  0  0  0  0  0  0  0  0  0
   -3.9636    7.5717  -21.8399 C   0  0  0  0  0  0  0  0  0  0  0  0
   -4.5254    8.9619  -22.1499 C   0  0  0  0  0  0  0  0  0  0  0  0
   -5.3498    9.0848  -23.4146 C   0  0  0  0  0  0  0  0  0  0  0  0
   -4.8596    9.8626  -20.9811 C   0  0  0  0  0  0  0  0  0  0  0  0
   -3.6479   10.1475  -21.8163 C   0  0  0  0  0  0  0  0  0  0  0  0
   -7.8993    4.7379  -17.8170 C   0  0  0  0  0  0  0  0  0  0  0  0
   -8.9481    4.4874  -18.6684 N   0  0  0  0  0  0  0  0  0  0  0  0
   -9.9978    4.0754  -17.9031 C   0  0  0  0  0  0  0  0  0  0  0  0
   -9.6349    3.8098  -16.6782 N   0  0  0  0  0  0  0  0  0  0  0  0
   -8.3783    4.3075  -16.5830 C   0  0  0  0  0  0  0  0  0  0  0  0
   -7.6325    4.4952  -15.4273 C   0  0  0  0  0  0  0  0  0  0  0  0
  1  2  1  0
  2  3  2  0
  3  4  1  0
  4  5  1  0
  5  6  1  0
  6  7  2  0
  6  8  1  0
  8  9  1  0
  9 10  1  0
 10 11  1  0
 10 12  1  0
 12 13  1  0
  4 14  2  0
 14 15  1  0
 15 16  1  0
 16 17  2  0
 17 18  1  0
 18 19  2  0
 19  2  1  0
 13 10  1  0
 18 14  1  0
M  END
>  <energy_score>  (5375) 
-13.925384

>  <alias>  (5375) 
QXJQCDRTPOHIMV-UHFFFAOYSA-N-P86-P50-P86-601534

>  <HIPPO Pose ID>  (5375) 
92085

>  <smiles>  (5375) 
Cc1cc(NC(=O)CCC2(C)CC2)c2[nH]cnc2c1

>  <inchikey>  (5375) 
QXJQCDRTPOHIMV-UHFFFAOYSA-N

>  <distance_score>  (5375) 
1.65207

>  <ref_mols>  (5375) 
Z0846a,Z1597a

>  <ref_pdb>  (5375) 
Z0846a

>  <HIPPO Compound ID>  (5375) 
136904

>  <name>  (5375) 
QXJQCDRTPOHIMV-UHFFFAOYSA-N-P86-P50-P86-601534

>  <inspiration_score>  (5375) 
None

$$$$
HFMJVUIBOCZXRB-UHFFFAOYSA-N-P50-P50-P86-601534
     RDKit          3D

 19 21  0  0  0  0  0  0  0  0999 V2000
  -10.5313    4.5338  -17.6854 C   0  0  0  0  0  0  0  0  0  0  0  0
   -9.1653    4.2590  -18.0305 N   0  0  0  0  0  0  0  0  0  0  0  0
   -8.7565    4.0360  -19.3052 C   0  0  0  0  0  0  0  0  0  0  0  0
   -7.4633    4.1216  -19.4390 N   0  0  0  0  0  0  0  0  0  0  0  0
   -7.0620    4.6668  -18.2563 C   0  0  0  0  0  0  0  0  0  0  0  0
   -5.8851    5.3816  -18.0019 C   0  0  0  0  0  0  0  0  0  0  0  0
   -5.1466    5.7102  -19.1351 N   0  0  0  0  0  0  0  0  0  0  0  0
   -3.9793    6.7198  -19.3217 C   0  0  0  0  0  0  0  0  0  0  0  0
   -3.4093    7.3723  -18.5366 O   0  0  0  0  0  0  0  0  0  0  0  0
   -3.6481    6.7181  -20.8224 C   0  0  0  0  0  0  0  0  0  0  0  0
   -4.7407    7.2860  -21.7439 C   0  0  0  0  0  0  0  0  0  0  0  0
   -4.7234    8.7928  -22.0282 C   0  0  0  0  0  0  0  0  0  0  0  0
   -5.2494    9.1762  -23.4016 C   0  0  0  0  0  0  0  0  0  0  0  0
   -5.0948    9.7197  -20.8909 C   0  0  0  0  0  0  0  0  0  0  0  0
   -3.6873    9.7062  -21.4002 C   0  0  0  0  0  0  0  0  0  0  0  0
   -5.6653    5.8275  -16.7025 C   0  0  0  0  0  0  0  0  0  0  0  0
   -6.6177    5.5783  -15.6951 C   0  0  0  0  0  0  0  0  0  0  0  0
   -7.8558    4.9768  -15.9687 C   0  0  0  0  0  0  0  0  0  0  0  0
   -8.0582    4.5921  -17.2917 C   0  0  0  0  0  0  0  0  0  0  0  0
  1  2  1  0
  2  3  1  0
  3  4  2  0
  4  5  1  0
  5  6  2  0
  6  7  1  0
  7  8  1  0
  8  9  2  0
  8 10  1  0
 10 11  1  0
 11 12  1  0
 12 13  1  0
 12 14  1  0
 14 15  1  0
  6 16  1  0
 16 17  2  0
 17 18  1  0
 18 19  2  0
 19  2  1  0
 19  5  1  0
 15 12  1  0
M  END
>  <energy_score>  (5376) 
-15.089701

>  <alias>  (5376) 
HFMJVUIBOCZXRB-UHFFFAOYSA-N-P50-P50-P86-601534

>  <HIPPO Pose ID>  (5376) 
92086

>  <smiles>  (5376) 
Cn1cnc2c(NC(=O)CCC3(C)CC3)cccc21

>  <inchikey>  (5376) 
HFMJVUIBOCZXRB-UHFFFAOYSA-N

>  <distance_score>  (5376) 
1.632269

>  <ref_mols>  (5376) 
Z0846a,Z1597a

>  <ref_pdb>  (5376) 
Z0846a

>  <HIPPO Compound ID>  (5376) 
136905

>  <name>  (5376) 
HFMJVUIBOCZXRB-UHFFFAOYSA-N-P50-P50-P86-601534

>  <inspiration_score>  (5376) 
None

$$$$
GOTKWYOHASSDFS-UHFFFAOYSA-N-P86-P50-P86-601534
     RDKit          3D

 19 21  0  0  0  0  0  0  0  0999 V2000
   -5.8911    5.1799  -14.0720 C   0  0  0  0  0  0  0  0  0  0  0  0
   -6.5675    4.9655  -15.3863 C   0  0  0  0  0  0  0  0  0  0  0  0
   -5.9757    5.3584  -16.6020 C   0  0  0  0  0  0  0  0  0  0  0  0
   -6.6388    5.2255  -17.8317 C   0  0  0  0  0  0  0  0  0  0  0  0
   -6.0779    5.6488  -19.0344 N   0  0  0  0  0  0  0  0  0  0  0  0
   -4.6216    6.1030  -19.3693 C   0  0  0  0  0  0  0  0  0  0  0  0
   -3.6958    6.2628  -18.6682 O   0  0  0  0  0  0  0  0  0  0  0  0
   -4.5490    6.4036  -20.8887 C   0  0  2  0  0  0  0  0  0  0  0  0
   -3.2532    6.0958  -21.3884 O   0  0  0  0  0  0  0  0  0  0  0  0
   -4.8352    7.8735  -21.1717 C   0  0  0  0  0  0  0  0  0  0  0  0
   -4.9131    8.3476  -22.6507 C   0  0  0  0  0  0  0  0  0  0  0  0
   -4.3574    9.7024  -22.1645 C   0  0  0  0  0  0  0  0  0  0  0  0
   -3.7173    8.9379  -20.9859 C   0  0  0  0  0  0  0  0  0  0  0  0
   -7.9279    4.6993  -17.7720 C   0  0  0  0  0  0  0  0  0  0  0  0
   -8.9280    4.5319  -18.6976 N   0  0  0  0  0  0  0  0  0  0  0  0
  -10.0570    4.2024  -18.0090 C   0  0  0  0  0  0  0  0  0  0  0  0
   -9.7976    3.8885  -16.7702 N   0  0  0  0  0  0  0  0  0  0  0  0
   -8.5180    4.2884  -16.5798 C   0  0  0  0  0  0  0  0  0  0  0  0
   -7.8406    4.4029  -15.3723 C   0  0  0  0  0  0  0  0  0  0  0  0
  1  2  1  0
  2  3  2  0
  3  4  1  0
  4  5  1  0
  5  6  1  0
  6  7  2  0
  6  8  1  0
  8  9  1  1
  8 10  1  0
 10 11  1  0
 11 12  1  0
 12 13  1  0
  4 14  2  0
 14 15  1  0
 15 16  1  0
 16 17  2  0
 17 18  1  0
 18 19  2  0
 19  2  1  0
 13 10  1  0
 18 14  1  0
M  END
>  <energy_score>  (5377) 
-24.241095

>  <alias>  (5377) 
GOTKWYOHASSDFS-UHFFFAOYSA-N-P86-P50-P86-601534

>  <HIPPO Pose ID>  (5377) 
92089

>  <smiles>  (5377) 
Cc1cc(NC(=O)C(O)C2CCC2)c2[nH]cnc2c1

>  <inchikey>  (5377) 
GOTKWYOHASSDFS-UHFFFAOYSA-N

>  <distance_score>  (5377) 
1.271566

>  <ref_mols>  (5377) 
Z0846a,Z1597a

>  <ref_pdb>  (5377) 
Z0846a

>  <HIPPO Compound ID>  (5377) 
136906

>  <name>  (5377) 
GOTKWYOHASSDFS-UHFFFAOYSA-N-P86-P50-P86-601534

>  <inspiration_score>  (5377) 
None

$$$$
OYAQKQFEDBNINZ-UHFFFAOYSA-N-P50-P50-P86-601534
     RDKit          3D

 20 21  0  0  0  0  0  0  0  0999 V2000
   -5.8618    8.1449  -24.5787 C   0  0  0  0  0  0  0  0  0  0  0  0
   -5.3128    8.2647  -23.1665 C   0  0  0  0  0  0  0  0  0  0  0  0
   -5.3029    6.9281  -22.4574 C   0  0  0  0  0  0  0  0  0  0  0  0
   -5.7467    5.9255  -23.0101 O   0  0  0  0  0  0  0  0  0  0  0  0
   -4.7790    6.9195  -21.0321 C   0  0  0  0  0  0  0  0  0  0  0  0
   -4.4569    5.5217  -20.5365 C   0  0  0  0  0  0  0  0  0  0  0  0
   -4.5900    5.4159  -19.0340 C   0  0  0  0  0  0  0  0  0  0  0  0
   -3.6939    5.5905  -18.3033 O   0  0  0  0  0  0  0  0  0  0  0  0
   -6.0568    4.9910  -18.7453 N   0  0  0  0  0  0  0  0  0  0  0  0
   -6.7163    4.7952  -17.5432 C   0  0  0  0  0  0  0  0  0  0  0  0
   -6.0828    4.8443  -16.3003 C   0  0  0  0  0  0  0  0  0  0  0  0
   -6.8223    4.6477  -15.1297 C   0  0  0  0  0  0  0  0  0  0  0  0
   -6.0679    4.7972  -13.5978 Cl  0  0  0  0  0  0  0  0  0  0  0  0
   -8.1878    4.3811  -15.1373 C   0  0  0  0  0  0  0  0  0  0  0  0
   -8.7822    4.3819  -16.3837 C   0  0  0  0  0  0  0  0  0  0  0  0
  -10.0842    4.2875  -16.7581 N   0  0  0  0  0  0  0  0  0  0  0  0
  -10.1497    4.5644  -18.0807 C   0  0  0  0  0  0  0  0  0  0  0  0
  -11.2699    4.8721  -18.6908 O   0  0  0  0  0  0  0  0  0  0  0  0
   -8.9711    4.5989  -18.6344 N   0  0  0  0  0  0  0  0  0  0  0  0
   -8.1000    4.5719  -17.5770 C   0  0  0  0  0  0  0  0  0  0  0  0
  1  2  1  0
  2  3  1  0
  3  4  2  0
  3  5  1  0
  5  6  1  0
  6  7  1  0
  7  8  2  0
  7  9  1  0
  9 10  1  0
 10 11  2  0
 11 12  1  0
 12 13  1  0
 12 14  2  0
 14 15  1  0
 15 16  1  0
 16 17  1  0
 17 18  1  0
 17 19  2  0
 19 20  1  0
 20 10  1  0
 20 15  2  0
M  END
>  <energy_score>  (5378) 
-2.953914

>  <alias>  (5378) 
OYAQKQFEDBNINZ-UHFFFAOYSA-N-P50-P50-P86-601534

>  <HIPPO Pose ID>  (5378) 
92090

>  <smiles>  (5378) 
CCC(=O)CCC(=O)Nc1cc(Cl)cc2[nH]c(O)nc12

>  <inchikey>  (5378) 
OYAQKQFEDBNINZ-UHFFFAOYSA-N

>  <distance_score>  (5378) 
1.077382

>  <ref_mols>  (5378) 
Z0846a,Z1597a

>  <ref_pdb>  (5378) 
Z0846a

>  <HIPPO Compound ID>  (5378) 
136907

>  <name>  (5378) 
OYAQKQFEDBNINZ-UHFFFAOYSA-N-P50-P50-P86-601534

>  <inspiration_score>  (5378) 
None

$$$$
SZXKAKQUSPRIGL-UHFFFAOYSA-N-P86-P50-P86-601534
     RDKit          3D

 20 21  0  0  0  0  0  0  0  0999 V2000
   -5.7835    7.5671  -24.6346 C   0  0  0  0  0  0  0  0  0  0  0  0
   -5.3395    8.0728  -23.2773 C   0  0  0  0  0  0  0  0  0  0  0  0
   -4.4043    7.0961  -22.5897 C   0  0  0  0  0  0  0  0  0  0  0  0
   -3.5255    6.5075  -23.2222 O   0  0  0  0  0  0  0  0  0  0  0  0
   -4.5191    6.9930  -21.0809 C   0  0  0  0  0  0  0  0  0  0  0  0
   -4.0797    5.6406  -20.5548 C   0  0  0  0  0  0  0  0  0  0  0  0
   -4.1601    5.6189  -19.0369 C   0  0  0  0  0  0  0  0  0  0  0  0
   -3.2365    5.8355  -18.3530 O   0  0  0  0  0  0  0  0  0  0  0  0
   -5.6384    5.2940  -18.6640 N   0  0  0  0  0  0  0  0  0  0  0  0
   -6.2323    5.0849  -17.4216 C   0  0  0  0  0  0  0  0  0  0  0  0
   -5.5200    5.3140  -16.2390 C   0  0  0  0  0  0  0  0  0  0  0  0
   -6.1230    5.1782  -14.9681 C   0  0  0  0  0  0  0  0  0  0  0  0
   -7.4577    4.8211  -14.8398 C   0  0  0  0  0  0  0  0  0  0  0  0
   -8.1311    4.6081  -16.0094 C   0  0  0  0  0  0  0  0  0  0  0  0
   -9.4562    4.2739  -16.1531 N   0  0  0  0  0  0  0  0  0  0  0  0
   -9.7588    4.1545  -17.4967 C   0  0  0  0  0  0  0  0  0  0  0  0
  -10.8513    3.8482  -17.9365 O   0  0  0  0  0  0  0  0  0  0  0  0
   -8.5658    4.3921  -18.2040 N   0  0  0  0  0  0  0  0  0  0  0  0
   -8.3870    3.7337  -19.4483 C   0  0  0  0  0  0  0  0  0  0  0  0
   -7.5530    4.7018  -17.2815 C   0  0  0  0  0  0  0  0  0  0  0  0
  1  2  1  0
  2  3  1  0
  3  4  2  0
  3  5  1  0
  5  6  1  0
  6  7  1  0
  7  8  2  0
  7  9  1  0
  9 10  1  0
 10 11  2  0
 11 12  1  0
 12 13  2  0
 13 14  1  0
 14 15  1  0
 15 16  1  0
 16 17  2  0
 16 18  1  0
 18 19  1  0
 18 20  1  0
 20 10  1  0
 20 14  2  0
M  END
>  <energy_score>  (5379) 
-22.418772

>  <alias>  (5379) 
SZXKAKQUSPRIGL-UHFFFAOYSA-N-P86-P50-P86-601534

>  <HIPPO Pose ID>  (5379) 
92093

>  <smiles>  (5379) 
CCC(=O)CCC(=O)Nc1cccc2[nH]c(=O)n(C)c12

>  <inchikey>  (5379) 
SZXKAKQUSPRIGL-UHFFFAOYSA-N

>  <distance_score>  (5379) 
1.267751

>  <ref_mols>  (5379) 
Z0846a,Z1597a

>  <ref_pdb>  (5379) 
Z0846a

>  <HIPPO Compound ID>  (5379) 
136908

>  <name>  (5379) 
SZXKAKQUSPRIGL-UHFFFAOYSA-N-P86-P50-P86-601534

>  <inspiration_score>  (5379) 
None

$$$$
JEYHQOLVISVCGV-UHFFFAOYSA-N-P86-P50-P86-601534
     RDKit          3D

 20 21  0  0  0  0  0  0  0  0999 V2000
   -8.4285    3.6952  -19.4642 C   0  0  0  0  0  0  0  0  0  0  0  0
   -8.4799    4.3266  -18.2022 N   0  0  0  0  0  0  0  0  0  0  0  0
   -9.6227    4.1263  -17.4105 C   0  0  0  0  0  0  0  0  0  0  0  0
  -10.7278    3.7716  -17.7798 O   0  0  0  0  0  0  0  0  0  0  0  0
   -9.2461    4.3653  -16.1006 N   0  0  0  0  0  0  0  0  0  0  0  0
   -7.9248    4.7631  -16.0788 C   0  0  0  0  0  0  0  0  0  0  0  0
   -7.1996    5.1320  -14.9821 C   0  0  0  0  0  0  0  0  0  0  0  0
   -5.9045    5.5670  -15.2315 C   0  0  0  0  0  0  0  0  0  0  0  0
   -5.3813    5.6184  -16.5452 C   0  0  0  0  0  0  0  0  0  0  0  0
   -6.1288    5.2060  -17.6515 C   0  0  0  0  0  0  0  0  0  0  0  0
   -5.5981    5.2480  -18.9438 N   0  0  0  0  0  0  0  0  0  0  0  0
   -4.1990    5.7349  -19.4526 C   0  0  0  0  0  0  0  0  0  0  0  0
   -3.3167    6.2430  -18.8744 O   0  0  0  0  0  0  0  0  0  0  0  0
   -4.1247    5.3130  -20.9276 C   0  0  0  0  0  0  0  0  0  0  0  0
   -3.3478    6.2017  -21.9185 C   0  0  0  0  0  0  0  0  0  0  0  0
   -4.2531    6.7647  -23.0550 C   0  0  0  0  0  0  0  0  0  0  0  0
   -4.8564    8.1232  -22.7494 C   0  0  0  0  0  0  0  0  0  0  0  0
   -5.1424    8.3060  -21.2813 C   0  0  0  0  0  0  0  0  0  0  0  0
   -5.7841    9.4839  -21.1126 F   0  0  0  0  0  0  0  0  0  0  0  0
   -7.4205    4.7609  -17.3904 C   0  0  0  0  0  0  0  0  0  0  0  0
  1  2  1  0
  2  3  1  0
  3  4  2  0
  3  5  1  0
  5  6  1  0
  6  7  2  0
  7  8  1  0
  8  9  2  0
  9 10  1  0
 10 11  1  0
 11 12  1  0
 12 13  2  0
 12 14  1  0
 14 15  1  0
 15 16  1  0
 16 17  1  0
 17 18  1  0
 18 19  1  0
 10 20  2  0
 20  2  1  0
 20  6  1  0
M  END
>  <energy_score>  (5380) 
-23.158657

>  <alias>  (5380) 
JEYHQOLVISVCGV-UHFFFAOYSA-N-P86-P50-P86-601534

>  <HIPPO Pose ID>  (5380) 
92101

>  <smiles>  (5380) 
Cn1c(=O)[nH]c2cccc(NC(=O)CCCCCF)c21

>  <inchikey>  (5380) 
JEYHQOLVISVCGV-UHFFFAOYSA-N

>  <distance_score>  (5380) 
1.756161

>  <ref_mols>  (5380) 
Z0846a,Z1597a

>  <ref_pdb>  (5380) 
Z0846a

>  <HIPPO Compound ID>  (5380) 
136912

>  <name>  (5380) 
JEYHQOLVISVCGV-UHFFFAOYSA-N-P86-P50-P86-601534

>  <inspiration_score>  (5380) 
None

$$$$
MHFSQZXEZLPIGY-UHFFFAOYSA-N-P86-P50-P86-601534
     RDKit          3D

 20 22  0  0  0  0  0  0  0  0999 V2000
   -8.4949    3.7499  -19.4552 C   0  0  0  0  0  0  0  0  0  0  0  0
   -8.6360    4.4327  -18.2203 N   0  0  0  0  0  0  0  0  0  0  0  0
   -9.7759    4.1559  -17.4419 C   0  0  0  0  0  0  0  0  0  0  0  0
  -10.8755    3.8120  -17.8363 O   0  0  0  0  0  0  0  0  0  0  0  0
   -9.3889    4.2652  -16.1137 N   0  0  0  0  0  0  0  0  0  0  0  0
   -8.0584    4.6173  -16.0558 C   0  0  0  0  0  0  0  0  0  0  0  0
   -7.2906    4.8039  -14.9422 C   0  0  0  0  0  0  0  0  0  0  0  0
   -5.9648    5.1561  -15.1716 C   0  0  0  0  0  0  0  0  0  0  0  0
   -5.4586    5.3154  -16.4836 C   0  0  0  0  0  0  0  0  0  0  0  0
   -6.2691    5.1248  -17.6046 C   0  0  0  0  0  0  0  0  0  0  0  0
   -5.8039    5.3771  -18.8931 N   0  0  0  0  0  0  0  0  0  0  0  0
   -4.3541    5.5887  -19.4212 C   0  0  0  0  0  0  0  0  0  0  0  0
   -3.3266    5.5068  -18.8680 O   0  0  0  0  0  0  0  0  0  0  0  0
   -4.4683    5.9672  -20.8953 C   0  0  0  0  0  0  0  0  0  0  0  0
   -4.7828    7.4501  -21.0450 C   0  0  0  0  0  0  0  0  0  0  0  0
   -3.6319    8.3464  -20.6032 C   0  0  0  0  0  0  0  0  0  0  0  0
   -3.9737    9.7019  -21.2038 C   0  0  0  0  0  0  0  0  0  0  0  0
   -4.8246    9.4146  -22.4392 C   0  0  0  0  0  0  0  0  0  0  0  0
   -4.9919    7.8996  -22.4917 C   0  0  0  0  0  0  0  0  0  0  0  0
   -7.5737    4.7432  -17.3610 C   0  0  0  0  0  0  0  0  0  0  0  0
  1  2  1  0
  2  3  1  0
  3  4  2  0
  3  5  1  0
  5  6  1  0
  6  7  2  0
  7  8  1  0
  8  9  2  0
  9 10  1  0
 10 11  1  0
 11 12  1  0
 12 13  2  0
 12 14  1  0
 14 15  1  0
 15 16  1  0
 16 17  1  0
 17 18  1  0
 18 19  1  0
 10 20  2  0
 20  2  1  0
 20  6  1  0
 19 15  1  0
M  END
>  <energy_score>  (5381) 
-7.586586

>  <alias>  (5381) 
MHFSQZXEZLPIGY-UHFFFAOYSA-N-P86-P50-P86-601534

>  <HIPPO Pose ID>  (5381) 
92107

>  <smiles>  (5381) 
Cn1c(=O)[nH]c2cccc(NC(=O)CC3CCCC3)c21

>  <inchikey>  (5381) 
MHFSQZXEZLPIGY-UHFFFAOYSA-N

>  <distance_score>  (5381) 
1.686982

>  <ref_mols>  (5381) 
Z0846a,Z1597a

>  <ref_pdb>  (5381) 
Z0846a

>  <HIPPO Compound ID>  (5381) 
136915

>  <name>  (5381) 
MHFSQZXEZLPIGY-UHFFFAOYSA-N-P86-P50-P86-601534

>  <inspiration_score>  (5381) 
None

$$$$
OVYOOYGSCMIMCH-UHFFFAOYSA-N-P86-P50-P86-601534
     RDKit          3D

 20 22  0  0  0  0  0  0  0  0999 V2000
   -5.5170    4.9792  -20.3524 O   0  0  0  0  0  0  0  0  0  0  0  0
   -4.9040    5.5105  -19.5107 C   0  0  0  0  0  0  0  0  0  0  0  0
   -3.6999    6.4001  -19.8044 C   0  0  0  0  0  0  0  0  0  0  0  0
   -3.7458    6.9664  -21.2377 C   0  0  0  0  0  0  0  0  0  0  0  0
   -2.5469    7.8793  -21.5044 C   0  0  0  0  0  0  0  0  0  0  0  0
   -3.0984    9.2954  -21.4403 C   0  0  0  0  0  0  0  0  0  0  0  0
   -4.4585    9.1570  -22.0912 C   0  0  0  0  0  0  0  0  0  0  0  0
   -4.9815    7.8537  -21.5091 C   0  0  0  0  0  0  0  0  0  0  0  0
   -5.1485    5.5771  -17.9723 N   0  0  0  0  0  0  0  0  0  0  0  0
   -6.2082    5.1012  -17.2042 C   0  0  0  0  0  0  0  0  0  0  0  0
   -6.1865    5.2315  -15.8158 C   0  0  0  0  0  0  0  0  0  0  0  0
   -7.2900    4.8527  -15.0443 C   0  0  0  0  0  0  0  0  0  0  0  0
   -7.2361    5.0745  -13.1745 Br  0  0  0  0  0  0  0  0  0  0  0  0
   -8.4674    4.3761  -15.6126 C   0  0  0  0  0  0  0  0  0  0  0  0
   -8.5237    4.3017  -17.0000 C   0  0  0  0  0  0  0  0  0  0  0  0
   -9.6196    4.1047  -17.7986 N   0  0  0  0  0  0  0  0  0  0  0  0
   -9.1495    4.2943  -18.9975 C   0  0  0  0  0  0  0  0  0  0  0  0
   -9.8815    4.5938  -20.0417 O   0  0  0  0  0  0  0  0  0  0  0  0
   -7.8031    4.4034  -19.0380 N   0  0  0  0  0  0  0  0  0  0  0  0
   -7.3895    4.6042  -17.7520 C   0  0  0  0  0  0  0  0  0  0  0  0
  1  2  2  0
  2  3  1  0
  3  4  1  0
  4  5  1  0
  5  6  1  0
  6  7  1  0
  7  8  1  0
  2  9  1  0
  9 10  1  0
 10 11  2  0
 11 12  1  0
 12 13  1  0
 12 14  2  0
 14 15  1  0
 15 16  1  0
 16 17  2  0
 17 18  1  0
 17 19  1  0
 19 20  1  0
  8  4  1  0
 20 10  1  0
 20 15  2  0
M  END
>  <energy_score>  (5382) 
-26.4934

>  <alias>  (5382) 
OVYOOYGSCMIMCH-UHFFFAOYSA-N-P86-P50-P86-601534

>  <HIPPO Pose ID>  (5382) 
92109

>  <smiles>  (5382) 
O=C(CC1CCCC1)Nc1cc(Br)cc2nc(O)[nH]c12

>  <inchikey>  (5382) 
OVYOOYGSCMIMCH-UHFFFAOYSA-N

>  <distance_score>  (5382) 
1.834483

>  <ref_mols>  (5382) 
Z0846a,Z1597a

>  <ref_pdb>  (5382) 
Z0846a

>  <HIPPO Compound ID>  (5382) 
136916

>  <name>  (5382) 
OVYOOYGSCMIMCH-UHFFFAOYSA-N-P86-P50-P86-601534

>  <inspiration_score>  (5382) 
None

$$$$
CQSKFJVVODQLSM-UHFFFAOYSA-N-P86-P50-P86-601534
     RDKit          3D

 20 22  0  0  0  0  0  0  0  0999 V2000
   -3.9641    6.8757  -18.7301 O   0  0  0  0  0  0  0  0  0  0  0  0
   -4.7799    6.4500  -19.4514 C   0  0  0  0  0  0  0  0  0  0  0  0
   -4.7298    6.5460  -20.9743 C   0  0  0  0  0  0  0  0  0  0  0  0
   -3.9706    7.7244  -21.5636 C   0  0  2  0  0  0  0  0  0  0  0  0
   -4.5832    9.1446  -21.4145 C   0  0  0  0  0  0  0  0  0  0  0  0
   -4.2112    9.4012  -22.8905 C   0  0  2  0  0  0  0  0  0  0  0  0
   -5.5450   10.2228  -23.8217 S   0  0  0  0  0  0  0  0  0  0  0  0
   -4.2090    7.8741  -23.0957 C   0  0  0  0  0  0  0  0  0  0  0  0
   -6.0553    5.6016  -19.1475 N   0  0  0  0  0  0  0  0  0  0  0  0
   -6.6084    5.2054  -17.9336 C   0  0  0  0  0  0  0  0  0  0  0  0
   -6.0273    5.3767  -16.6784 C   0  0  0  0  0  0  0  0  0  0  0  0
   -6.7018    4.9531  -15.5184 C   0  0  0  0  0  0  0  0  0  0  0  0
   -5.9697    5.2777  -13.8124 Br  0  0  0  0  0  0  0  0  0  0  0  0
   -7.9524    4.3391  -15.5509 C   0  0  0  0  0  0  0  0  0  0  0  0
   -8.5627    4.2404  -16.7906 C   0  0  0  0  0  0  0  0  0  0  0  0
   -9.8560    3.9205  -17.0670 N   0  0  0  0  0  0  0  0  0  0  0  0
  -10.0148    4.3770  -18.2731 C   0  0  0  0  0  0  0  0  0  0  0  0
  -11.1583    4.8348  -18.7305 O   0  0  0  0  0  0  0  0  0  0  0  0
   -8.8294    4.5315  -18.9220 N   0  0  0  0  0  0  0  0  0  0  0  0
   -7.8864    4.6521  -17.9345 C   0  0  0  0  0  0  0  0  0  0  0  0
  1  2  2  0
  2  3  1  0
  4  3  1  1
  4  5  1  0
  5  6  1  0
  6  7  1  6
  6  8  1  0
  2  9  1  0
  9 10  1  0
 10 11  2  0
 11 12  1  0
 12 13  1  0
 12 14  2  0
 14 15  1  0
 15 16  1  0
 16 17  2  0
 17 18  1  0
 17 19  1  0
 19 20  1  0
  8  4  1  0
 20 10  1  0
 20 15  2  0
M  END
>  <energy_score>  (5383) 
-19.292686

>  <alias>  (5383) 
CQSKFJVVODQLSM-UHFFFAOYSA-N-P86-P50-P86-601534

>  <HIPPO Pose ID>  (5383) 
92115

>  <smiles>  (5383) 
O=C(CC1CC(S)C1)Nc1cc(Br)cc2nc(O)[nH]c12

>  <inchikey>  (5383) 
CQSKFJVVODQLSM-UHFFFAOYSA-N

>  <distance_score>  (5383) 
1.314124

>  <ref_mols>  (5383) 
Z0846a,Z1597a

>  <ref_pdb>  (5383) 
Z0846a

>  <HIPPO Compound ID>  (5383) 
136919

>  <name>  (5383) 
CQSKFJVVODQLSM-UHFFFAOYSA-N-P86-P50-P86-601534

>  <inspiration_score>  (5383) 
None

$$$$
HGFCQNFUSSKQKK-UHFFFAOYSA-N-P86-P50-P86-601534
     RDKit          3D

 20 21  0  0  0  0  0  0  0  0999 V2000
   -5.7225    7.6281  -24.6252 C   0  0  0  0  0  0  0  0  0  0  0  0
   -5.4513    7.9911  -23.1654 C   0  0  0  0  0  0  0  0  0  0  0  0
   -4.6233    9.2700  -23.0881 C   0  0  0  0  0  0  0  0  0  0  0  0
   -4.7909    6.8058  -22.4410 C   0  0  0  0  0  0  0  0  0  0  0  0
   -4.6876    6.9760  -20.9230 C   0  0  0  0  0  0  0  0  0  0  0  0
   -4.1002    5.7355  -20.2599 C   0  0  0  0  0  0  0  0  0  0  0  0
   -4.2209    5.8153  -18.7407 C   0  0  0  0  0  0  0  0  0  0  0  0
   -3.3717    6.2411  -18.0581 O   0  0  0  0  0  0  0  0  0  0  0  0
   -5.6018    5.1950  -18.3668 N   0  0  0  0  0  0  0  0  0  0  0  0
   -6.2321    5.0659  -17.1265 C   0  0  0  0  0  0  0  0  0  0  0  0
   -5.5611    5.3925  -15.9456 C   0  0  0  0  0  0  0  0  0  0  0  0
   -6.1548    5.1979  -14.6775 C   0  0  0  0  0  0  0  0  0  0  0  0
   -7.4368    4.6778  -14.5490 C   0  0  0  0  0  0  0  0  0  0  0  0
   -8.0831    4.3904  -15.7164 C   0  0  0  0  0  0  0  0  0  0  0  0
   -9.3814    3.9500  -15.8688 N   0  0  0  0  0  0  0  0  0  0  0  0
   -9.6988    3.9399  -17.2192 C   0  0  0  0  0  0  0  0  0  0  0  0
  -10.7995    3.7658  -17.7109 O   0  0  0  0  0  0  0  0  0  0  0  0
   -8.5118    4.1978  -17.8988 N   0  0  0  0  0  0  0  0  0  0  0  0
   -8.4851    4.4501  -19.2785 C   0  0  0  0  0  0  0  0  0  0  0  0
   -7.5174    4.5658  -16.9827 C   0  0  0  0  0  0  0  0  0  0  0  0
  1  2  1  0
  2  3  1  0
  2  4  1  0
  4  5  1  0
  5  6  1  0
  6  7  1  0
  7  8  2  0
  7  9  1  0
  9 10  1  0
 10 11  2  0
 11 12  1  0
 12 13  2  0
 13 14  1  0
 14 15  1  0
 15 16  1  0
 16 17  2  0
 16 18  1  0
 18 19  1  0
 18 20  1  0
 20 10  1  0
 20 14  2  0
M  END
>  <energy_score>  (5384) 
-13.909622

>  <alias>  (5384) 
HGFCQNFUSSKQKK-UHFFFAOYSA-N-P86-P50-P86-601534

>  <HIPPO Pose ID>  (5384) 
92133

>  <smiles>  (5384) 
CC(C)CCCC(=O)Nc1cccc2[nH]c(=O)n(C)c12

>  <inchikey>  (5384) 
HGFCQNFUSSKQKK-UHFFFAOYSA-N

>  <distance_score>  (5384) 
1.564447

>  <ref_mols>  (5384) 
Z0846a,Z1597a

>  <ref_pdb>  (5384) 
Z0846a

>  <HIPPO Compound ID>  (5384) 
136928

>  <name>  (5384) 
HGFCQNFUSSKQKK-UHFFFAOYSA-N-P86-P50-P86-601534

>  <inspiration_score>  (5384) 
None

$$$$
GPYIGOFCICNCDY-UHFFFAOYSA-N-P50-P50-P86-601534
     RDKit          3D

 20 21  0  0  0  0  0  0  0  0999 V2000
   -5.3379   10.2100  -23.3194 C   0  0  0  0  0  0  0  0  0  0  0  0
   -5.3188    9.0108  -23.2607 C   0  0  0  0  0  0  0  0  0  0  0  0
   -5.3217    7.5423  -23.3018 C   0  0  0  0  0  0  0  0  0  0  0  0
   -5.3455    6.8798  -21.9229 C   0  0  0  0  0  0  0  0  0  0  0  0
   -4.0028    6.8791  -21.1913 C   0  0  0  0  0  0  0  0  0  0  0  0
   -3.8321    5.6727  -20.2731 C   0  0  0  0  0  0  0  0  0  0  0  0
   -4.3050    5.8310  -18.8343 C   0  0  0  0  0  0  0  0  0  0  0  0
   -3.5911    6.2229  -17.9930 O   0  0  0  0  0  0  0  0  0  0  0  0
   -5.7692    5.2957  -18.7498 N   0  0  0  0  0  0  0  0  0  0  0  0
   -6.5811    5.0556  -17.6444 C   0  0  0  0  0  0  0  0  0  0  0  0
   -6.0687    5.1089  -16.3421 C   0  0  0  0  0  0  0  0  0  0  0  0
   -6.8457    4.7428  -15.2393 C   0  0  0  0  0  0  0  0  0  0  0  0
   -6.1648    4.9070  -13.4930 Br  0  0  0  0  0  0  0  0  0  0  0  0
   -8.1461    4.2864  -15.3732 C   0  0  0  0  0  0  0  0  0  0  0  0
   -8.6912    4.3066  -16.6480 C   0  0  0  0  0  0  0  0  0  0  0  0
   -9.9855    4.0749  -16.9823 N   0  0  0  0  0  0  0  0  0  0  0  0
  -10.0545    4.5148  -18.1980 C   0  0  0  0  0  0  0  0  0  0  0  0
  -11.1969    4.8918  -18.7105 O   0  0  0  0  0  0  0  0  0  0  0  0
   -8.8395    4.7057  -18.7806 N   0  0  0  0  0  0  0  0  0  0  0  0
   -7.9252    4.6927  -17.7522 C   0  0  0  0  0  0  0  0  0  0  0  0
  1  2  3  0
  2  3  1  0
  3  4  1  0
  4  5  1  0
  5  6  1  0
  6  7  1  0
  7  8  2  0
  7  9  1  0
  9 10  1  0
 10 11  2  0
 11 12  1  0
 12 13  1  0
 12 14  2  0
 14 15  1  0
 15 16  1  0
 16 17  2  0
 17 18  1  0
 17 19  1  0
 19 20  1  0
 20 10  1  0
 20 15  2  0
M  END
>  <energy_score>  (5385) 
-10.70349

>  <alias>  (5385) 
GPYIGOFCICNCDY-UHFFFAOYSA-N-P50-P50-P86-601534

>  <HIPPO Pose ID>  (5385) 
92144

>  <smiles>  (5385) 
C#CCCCCC(=O)Nc1cc(Br)cc2nc(O)[nH]c12

>  <inchikey>  (5385) 
GPYIGOFCICNCDY-UHFFFAOYSA-N

>  <distance_score>  (5385) 
1.104634

>  <ref_mols>  (5385) 
Z0846a,Z1597a

>  <ref_pdb>  (5385) 
Z0846a

>  <HIPPO Compound ID>  (5385) 
136934

>  <name>  (5385) 
GPYIGOFCICNCDY-UHFFFAOYSA-N-P50-P50-P86-601534

>  <inspiration_score>  (5385) 
None

$$$$
FOVYIBOJURHHOT-UHFFFAOYSA-N-P86-P50-P86-601534
     RDKit          3D

 20 22  0  0  0  0  0  0  0  0999 V2000
   -3.6579    5.6014  -18.8005 O   0  0  0  0  0  0  0  0  0  0  0  0
   -4.6352    5.5704  -19.4462 C   0  0  0  0  0  0  0  0  0  0  0  0
   -4.6306    5.8868  -20.9532 C   0  0  0  0  0  0  0  0  0  0  0  0
   -4.6546    7.3554  -21.2596 C   0  0  0  0  0  0  0  0  0  0  0  0
   -4.4630    8.3815  -20.4212 C   0  0  0  0  0  0  0  0  0  0  0  0
   -4.5634    9.6988  -21.1060 C   0  0  0  0  0  0  0  0  0  0  0  0
   -4.5374    9.3217  -22.5824 C   0  0  0  0  0  0  0  0  0  0  0  0
   -4.9212    7.8443  -22.6537 C   0  0  0  0  0  0  0  0  0  0  0  0
   -6.1168    5.3274  -19.0251 N   0  0  0  0  0  0  0  0  0  0  0  0
   -6.6611    4.9930  -17.7897 C   0  0  0  0  0  0  0  0  0  0  0  0
   -5.9621    5.1338  -16.5851 C   0  0  0  0  0  0  0  0  0  0  0  0
   -6.5976    4.8772  -15.3621 C   0  0  0  0  0  0  0  0  0  0  0  0
   -5.7841    5.1561  -13.8791 Cl  0  0  0  0  0  0  0  0  0  0  0  0
   -7.9158    4.4467  -15.2749 C   0  0  0  0  0  0  0  0  0  0  0  0
   -8.5785    4.3516  -16.4799 C   0  0  0  0  0  0  0  0  0  0  0  0
   -9.8898    4.1286  -16.7514 N   0  0  0  0  0  0  0  0  0  0  0  0
  -10.0776    4.3980  -18.0644 C   0  0  0  0  0  0  0  0  0  0  0  0
  -11.2593    4.6479  -18.5777 O   0  0  0  0  0  0  0  0  0  0  0  0
   -8.9525    4.5235  -18.7097 N   0  0  0  0  0  0  0  0  0  0  0  0
   -8.0064    4.6007  -17.7217 C   0  0  0  0  0  0  0  0  0  0  0  0
  1  2  2  0
  2  3  1  0
  3  4  1  0
  4  5  2  0
  5  6  1  0
  6  7  1  0
  7  8  1  0
  2  9  1  0
  9 10  1  0
 10 11  2  0
 11 12  1  0
 12 13  1  0
 12 14  2  0
 14 15  1  0
 15 16  1  0
 16 17  1  0
 17 18  1  0
 17 19  2  0
 19 20  1  0
  8  4  1  0
 20 10  1  0
 20 15  2  0
M  END
>  <energy_score>  (5386) 
-21.67654

>  <alias>  (5386) 
FOVYIBOJURHHOT-UHFFFAOYSA-N-P86-P50-P86-601534

>  <HIPPO Pose ID>  (5386) 
92149

>  <smiles>  (5386) 
O=C(CC1=CCCC1)Nc1cc(Cl)cc2[nH]c(O)nc12

>  <inchikey>  (5386) 
FOVYIBOJURHHOT-UHFFFAOYSA-N

>  <distance_score>  (5386) 
1.538328

>  <ref_mols>  (5386) 
Z0846a,Z1597a

>  <ref_pdb>  (5386) 
Z0846a

>  <HIPPO Compound ID>  (5386) 
136936

>  <name>  (5386) 
FOVYIBOJURHHOT-UHFFFAOYSA-N-P86-P50-P86-601534

>  <inspiration_score>  (5386) 
None

$$$$
QLAUFHKBNWDLME-UHFFFAOYSA-N-P50-P50-P86-601534
     RDKit          3D

 20 22  0  0  0  0  0  0  0  0999 V2000
   -8.7507    4.0158  -19.3510 C   0  0  0  0  0  0  0  0  0  0  0  0
   -8.7909    4.4858  -18.0173 N   0  0  0  0  0  0  0  0  0  0  0  0
   -9.8973    4.1321  -17.2264 C   0  0  0  0  0  0  0  0  0  0  0  0
  -10.9822    3.7432  -17.6225 O   0  0  0  0  0  0  0  0  0  0  0  0
   -9.4816    4.2028  -15.9036 N   0  0  0  0  0  0  0  0  0  0  0  0
   -8.1614    4.5990  -15.8697 C   0  0  0  0  0  0  0  0  0  0  0  0
   -7.3783    4.7513  -14.7605 C   0  0  0  0  0  0  0  0  0  0  0  0
   -6.0695    5.1536  -14.9912 C   0  0  0  0  0  0  0  0  0  0  0  0
   -5.5917    5.3811  -16.3008 C   0  0  0  0  0  0  0  0  0  0  0  0
   -6.4096    5.2041  -17.4199 C   0  0  0  0  0  0  0  0  0  0  0  0
   -5.9269    5.4119  -18.7073 N   0  0  0  0  0  0  0  0  0  0  0  0
   -4.5002    5.7914  -19.2031 C   0  0  0  0  0  0  0  0  0  0  0  0
   -3.5351    6.0619  -18.5996 O   0  0  0  0  0  0  0  0  0  0  0  0
   -4.5209    5.6484  -20.7141 C   0  0  0  0  0  0  0  0  0  0  0  0
   -4.3235    6.9171  -21.5159 C   0  0  2  0  0  0  0  0  0  0  0  0
   -4.8958    8.1751  -20.9053 C   0  0  0  0  0  0  0  0  0  0  0  0
   -5.0294    9.0595  -22.1188 C   0  0  0  0  0  0  0  0  0  0  0  0
   -5.4112    8.0959  -23.2187 C   0  0  0  0  0  0  0  0  0  0  0  0
   -4.9896    6.7976  -22.7973 O   0  0  0  0  0  0  0  0  0  0  0  0
   -7.7084    4.7906  -17.1807 C   0  0  0  0  0  0  0  0  0  0  0  0
  1  2  1  0
  2  3  1  0
  3  4  2  0
  3  5  1  0
  5  6  1  0
  6  7  2  0
  7  8  1  0
  8  9  2  0
  9 10  1  0
 10 11  1  0
 11 12  1  0
 12 13  2  0
 12 14  1  0
 15 14  1  1
 15 16  1  0
 16 17  1  0
 17 18  1  0
 18 19  1  0
 10 20  2  0
 20  2  1  0
 20  6  1  0
 19 15  1  0
M  END
>  <energy_score>  (5387) 
-29.406003

>  <alias>  (5387) 
QLAUFHKBNWDLME-UHFFFAOYSA-N-P50-P50-P86-601534

>  <HIPPO Pose ID>  (5387) 
92150

>  <smiles>  (5387) 
Cn1c(=O)[nH]c2cccc(NC(=O)CC3CCCO3)c21

>  <inchikey>  (5387) 
QLAUFHKBNWDLME-UHFFFAOYSA-N

>  <distance_score>  (5387) 
1.50599

>  <ref_mols>  (5387) 
Z0846a,Z1597a

>  <ref_pdb>  (5387) 
Z0846a

>  <HIPPO Compound ID>  (5387) 
136937

>  <name>  (5387) 
QLAUFHKBNWDLME-UHFFFAOYSA-N-P50-P50-P86-601534

>  <inspiration_score>  (5387) 
None

$$$$
BOPFZEOEQJTDKV-UHFFFAOYSA-N-P50-P50-P86-601534
     RDKit          3D

 20 22  0  0  0  0  0  0  0  0999 V2000
   -4.0195    6.5561  -18.3681 O   0  0  0  0  0  0  0  0  0  0  0  0
   -4.8330    6.1572  -19.1083 C   0  0  0  0  0  0  0  0  0  0  0  0
   -4.6338    6.1511  -20.6159 C   0  0  0  0  0  0  0  0  0  0  0  0
   -3.9468    7.4233  -21.1186 C   0  0  2  0  0  0  0  0  0  0  0  0
   -4.9048    8.5551  -21.4604 C   0  0  0  0  0  0  0  0  0  0  0  0
   -5.3936    8.1801  -22.8381 C   0  0  0  0  0  0  0  0  0  0  0  0
   -4.1976    7.4757  -23.4403 C   0  0  0  0  0  0  0  0  0  0  0  0
   -3.3087    7.1267  -22.3710 O   0  0  0  0  0  0  0  0  0  0  0  0
   -6.2005    5.4684  -18.8279 N   0  0  0  0  0  0  0  0  0  0  0  0
   -6.7764    5.0622  -17.6325 C   0  0  0  0  0  0  0  0  0  0  0  0
   -6.1175    5.1216  -16.4022 C   0  0  0  0  0  0  0  0  0  0  0  0
   -6.7931    4.7774  -15.2256 C   0  0  0  0  0  0  0  0  0  0  0  0
   -6.0158    4.9355  -13.7056 Cl  0  0  0  0  0  0  0  0  0  0  0  0
   -8.1239    4.3713  -15.2114 C   0  0  0  0  0  0  0  0  0  0  0  0
   -8.7526    4.3729  -16.4408 C   0  0  0  0  0  0  0  0  0  0  0  0
  -10.0625    4.2273  -16.7762 N   0  0  0  0  0  0  0  0  0  0  0  0
  -10.1794    4.5472  -18.0870 C   0  0  0  0  0  0  0  0  0  0  0  0
  -11.3255    4.8388  -18.6549 O   0  0  0  0  0  0  0  0  0  0  0  0
   -9.0226    4.6556  -18.6750 N   0  0  0  0  0  0  0  0  0  0  0  0
   -8.1226    4.6668  -17.6432 C   0  0  0  0  0  0  0  0  0  0  0  0
  1  2  2  0
  2  3  1  0
  4  3  1  6
  4  5  1  0
  5  6  1  0
  6  7  1  0
  7  8  1  0
  2  9  1  0
  9 10  1  0
 10 11  2  0
 11 12  1  0
 12 13  1  0
 12 14  2  0
 14 15  1  0
 15 16  1  0
 16 17  1  0
 17 18  1  0
 17 19  2  0
 19 20  1  0
  8  4  1  0
 20 10  1  0
 20 15  2  0
M  END
>  <energy_score>  (5388) 
-27.427607

>  <alias>  (5388) 
BOPFZEOEQJTDKV-UHFFFAOYSA-N-P50-P50-P86-601534

>  <HIPPO Pose ID>  (5388) 
92154

>  <smiles>  (5388) 
O=C(CC1CCCO1)Nc1cc(Cl)cc2[nH]c(O)nc12

>  <inchikey>  (5388) 
BOPFZEOEQJTDKV-UHFFFAOYSA-N

>  <distance_score>  (5388) 
1.491009

>  <ref_mols>  (5388) 
Z0846a,Z1597a

>  <ref_pdb>  (5388) 
Z0846a

>  <HIPPO Compound ID>  (5388) 
136939

>  <name>  (5388) 
BOPFZEOEQJTDKV-UHFFFAOYSA-N-P50-P50-P86-601534

>  <inspiration_score>  (5388) 
None

$$$$
UKXWZZQRBPFPJD-UHFFFAOYSA-N-P50-P50-P86-601534
     RDKit          3D

 20 21  0  0  0  0  0  0  0  0999 V2000
   -5.7931    7.9017  -24.6846 C   0  0  0  0  0  0  0  0  0  0  0  0
   -5.1631    8.1803  -23.3314 C   0  0  1  0  0  0  0  0  0  0  0  0
   -6.0091    8.9783  -22.6282 F   0  0  0  0  0  0  0  0  0  0  0  0
   -4.9165    6.8867  -22.5674 C   0  0  0  0  0  0  0  0  0  0  0  0
   -4.5844    7.0948  -21.0903 C   0  0  0  0  0  0  0  0  0  0  0  0
   -4.1781    5.7765  -20.4457 C   0  0  0  0  0  0  0  0  0  0  0  0
   -4.4405    5.7403  -18.9528 C   0  0  0  0  0  0  0  0  0  0  0  0
   -3.6087    5.9154  -18.1491 O   0  0  0  0  0  0  0  0  0  0  0  0
   -5.9414    5.3492  -18.7851 N   0  0  0  0  0  0  0  0  0  0  0  0
   -6.6631    5.0168  -17.6488 C   0  0  0  0  0  0  0  0  0  0  0  0
   -6.0942    5.0038  -16.3732 C   0  0  0  0  0  0  0  0  0  0  0  0
   -6.8485    4.6344  -15.2564 C   0  0  0  0  0  0  0  0  0  0  0  0
   -6.1147    4.7540  -13.5278 Br  0  0  0  0  0  0  0  0  0  0  0  0
   -8.1690    4.2231  -15.3587 C   0  0  0  0  0  0  0  0  0  0  0  0
   -8.7527    4.2752  -16.6159 C   0  0  0  0  0  0  0  0  0  0  0  0
  -10.0559    4.0645  -16.9314 N   0  0  0  0  0  0  0  0  0  0  0  0
  -10.1427    4.5103  -18.1446 C   0  0  0  0  0  0  0  0  0  0  0  0
  -11.2892    4.8747  -18.6542 O   0  0  0  0  0  0  0  0  0  0  0  0
   -8.9397    4.7108  -18.7406 N   0  0  0  0  0  0  0  0  0  0  0  0
   -8.0115    4.6755  -17.7277 C   0  0  0  0  0  0  0  0  0  0  0  0
  2  1  1  6
  2  3  1  0
  2  4  1  0
  4  5  1  0
  5  6  1  0
  6  7  1  0
  7  8  2  0
  7  9  1  0
  9 10  1  0
 10 11  2  0
 11 12  1  0
 12 13  1  0
 12 14  2  0
 14 15  1  0
 15 16  1  0
 16 17  2  0
 17 18  1  0
 17 19  1  0
 19 20  1  0
 20 10  1  0
 20 15  2  0
M  END
>  <energy_score>  (5389) 
-24.529089

>  <alias>  (5389) 
UKXWZZQRBPFPJD-UHFFFAOYSA-N-P50-P50-P86-601534

>  <HIPPO Pose ID>  (5389) 
92158

>  <smiles>  (5389) 
CC(F)CCCC(=O)Nc1cc(Br)cc2nc(O)[nH]c12

>  <inchikey>  (5389) 
UKXWZZQRBPFPJD-UHFFFAOYSA-N

>  <distance_score>  (5389) 
0.981093

>  <ref_mols>  (5389) 
Z0846a,Z1597a

>  <ref_pdb>  (5389) 
Z0846a

>  <HIPPO Compound ID>  (5389) 
136941

>  <name>  (5389) 
UKXWZZQRBPFPJD-UHFFFAOYSA-N-P50-P50-P86-601534

>  <inspiration_score>  (5389) 
None

$$$$
ICZUJTBONCAPAN-UHFFFAOYSA-N-P86-P50-P86-601534
     RDKit          3D

 20 21  0  0  0  0  0  0  0  0999 V2000
   -5.8213    7.7034  -24.5744 C   0  0  0  0  0  0  0  0  0  0  0  0
   -5.4307    7.9361  -23.1386 C   0  0  0  0  0  0  0  0  0  0  0  0
   -5.5930    9.0348  -22.6088 O   0  0  0  0  0  0  0  0  0  0  0  0
   -4.8029    6.7567  -22.4181 C   0  0  0  0  0  0  0  0  0  0  0  0
   -4.6897    6.9568  -20.9103 C   0  0  0  0  0  0  0  0  0  0  0  0
   -4.0906    5.7350  -20.2249 C   0  0  0  0  0  0  0  0  0  0  0  0
   -4.2232    5.8334  -18.7084 C   0  0  0  0  0  0  0  0  0  0  0  0
   -3.3756    6.2549  -18.0216 O   0  0  0  0  0  0  0  0  0  0  0  0
   -5.6431    5.2989  -18.3480 N   0  0  0  0  0  0  0  0  0  0  0  0
   -6.2459    5.0950  -17.1059 C   0  0  0  0  0  0  0  0  0  0  0  0
   -5.5679    5.3936  -15.9218 C   0  0  0  0  0  0  0  0  0  0  0  0
   -6.1529    5.1668  -14.6552 C   0  0  0  0  0  0  0  0  0  0  0  0
   -7.4336    4.6426  -14.5312 C   0  0  0  0  0  0  0  0  0  0  0  0
   -8.0837    4.3756  -15.7016 C   0  0  0  0  0  0  0  0  0  0  0  0
   -9.3808    3.9324  -15.8570 N   0  0  0  0  0  0  0  0  0  0  0  0
   -9.7023    3.9426  -17.2069 C   0  0  0  0  0  0  0  0  0  0  0  0
  -10.8024    3.7626  -17.6977 O   0  0  0  0  0  0  0  0  0  0  0  0
   -8.5196    4.2182  -17.8854 N   0  0  0  0  0  0  0  0  0  0  0  0
   -8.4957    4.4757  -19.2645 C   0  0  0  0  0  0  0  0  0  0  0  0
   -7.5248    4.5785  -16.9668 C   0  0  0  0  0  0  0  0  0  0  0  0
  1  2  1  0
  2  3  2  0
  2  4  1  0
  4  5  1  0
  5  6  1  0
  6  7  1  0
  7  8  2  0
  7  9  1  0
  9 10  1  0
 10 11  2  0
 11 12  1  0
 12 13  2  0
 13 14  1  0
 14 15  1  0
 15 16  1  0
 16 17  2  0
 16 18  1  0
 18 19  1  0
 18 20  1  0
 20 10  1  0
 20 14  2  0
M  END
>  <energy_score>  (5390) 
-4.762122

>  <alias>  (5390) 
ICZUJTBONCAPAN-UHFFFAOYSA-N-P86-P50-P86-601534

>  <HIPPO Pose ID>  (5390) 
92161

>  <smiles>  (5390) 
CC(=O)CCCC(=O)Nc1cccc2[nH]c(=O)n(C)c12

>  <inchikey>  (5390) 
ICZUJTBONCAPAN-UHFFFAOYSA-N

>  <distance_score>  (5390) 
1.350719

>  <ref_mols>  (5390) 
Z0846a,Z1597a

>  <ref_pdb>  (5390) 
Z0846a

>  <HIPPO Compound ID>  (5390) 
136942

>  <name>  (5390) 
ICZUJTBONCAPAN-UHFFFAOYSA-N-P86-P50-P86-601534

>  <inspiration_score>  (5390) 
None

$$$$
LQLKQEZXLSNXNM-UHFFFAOYSA-N-P86-P50-P86-601534
     RDKit          3D

 20 21  0  0  0  0  0  0  0  0999 V2000
   -5.9236    7.8119  -24.7349 C   0  0  0  0  0  0  0  0  0  0  0  0
   -5.4792    8.0157  -23.3113 C   0  0  0  0  0  0  0  0  0  0  0  0
   -5.6197    9.1022  -22.7515 O   0  0  0  0  0  0  0  0  0  0  0  0
   -4.8320    6.8203  -22.6408 C   0  0  0  0  0  0  0  0  0  0  0  0
   -4.6697    6.9938  -21.1368 C   0  0  0  0  0  0  0  0  0  0  0  0
   -4.1303    5.7269  -20.4911 C   0  0  0  0  0  0  0  0  0  0  0  0
   -4.3948    5.7224  -18.9959 C   0  0  0  0  0  0  0  0  0  0  0  0
   -3.5812    5.9954  -18.2015 O   0  0  0  0  0  0  0  0  0  0  0  0
   -5.8799    5.2840  -18.8113 N   0  0  0  0  0  0  0  0  0  0  0  0
   -6.6015    5.0136  -17.6589 C   0  0  0  0  0  0  0  0  0  0  0  0
   -6.0540    5.1509  -16.3792 C   0  0  0  0  0  0  0  0  0  0  0  0
   -6.7977    4.8284  -15.2397 C   0  0  0  0  0  0  0  0  0  0  0  0
   -6.0906    5.1137  -13.5199 Br  0  0  0  0  0  0  0  0  0  0  0  0
   -8.0865    4.3258  -15.3173 C   0  0  0  0  0  0  0  0  0  0  0  0
   -8.6538    4.2476  -16.5792 C   0  0  0  0  0  0  0  0  0  0  0  0
   -9.9436    3.9688  -16.8744 N   0  0  0  0  0  0  0  0  0  0  0  0
  -10.0525    4.3353  -18.1104 C   0  0  0  0  0  0  0  0  0  0  0  0
  -11.2130    4.6726  -18.6091 O   0  0  0  0  0  0  0  0  0  0  0  0
   -8.8566    4.5109  -18.7314 N   0  0  0  0  0  0  0  0  0  0  0  0
   -7.9289    4.5972  -17.7185 C   0  0  0  0  0  0  0  0  0  0  0  0
  1  2  1  0
  2  3  2  0
  2  4  1  0
  4  5  1  0
  5  6  1  0
  6  7  1  0
  7  8  2  0
  7  9  1  0
  9 10  1  0
 10 11  2  0
 11 12  1  0
 12 13  1  0
 12 14  2  0
 14 15  1  0
 15 16  1  0
 16 17  2  0
 17 18  1  0
 17 19  1  0
 19 20  1  0
 20 10  1  0
 20 15  2  0
M  END
>  <energy_score>  (5391) 
-20.531344

>  <alias>  (5391) 
LQLKQEZXLSNXNM-UHFFFAOYSA-N-P86-P50-P86-601534

>  <HIPPO Pose ID>  (5391) 
92163

>  <smiles>  (5391) 
CC(=O)CCCC(=O)Nc1cc(Br)cc2nc(O)[nH]c12

>  <inchikey>  (5391) 
LQLKQEZXLSNXNM-UHFFFAOYSA-N

>  <distance_score>  (5391) 
1.08276

>  <ref_mols>  (5391) 
Z0846a,Z1597a

>  <ref_pdb>  (5391) 
Z0846a

>  <HIPPO Compound ID>  (5391) 
136943

>  <name>  (5391) 
LQLKQEZXLSNXNM-UHFFFAOYSA-N-P86-P50-P86-601534

>  <inspiration_score>  (5391) 
None

$$$$
CZMCTLOSXROXBX-UHFFFAOYSA-N-P50-P50-P86-601534
     RDKit          3D

 20 21  0  0  0  0  0  0  0  0999 V2000
   -3.6975    6.0384  -18.4010 O   0  0  0  0  0  0  0  0  0  0  0  0
   -4.5112    5.6837  -19.1632 C   0  0  0  0  0  0  0  0  0  0  0  0
   -4.2513    5.5269  -20.6600 C   0  0  0  0  0  0  0  0  0  0  0  0
   -3.3144    6.5846  -21.2379 C   0  0  0  0  0  0  0  0  0  0  0  0
   -3.4717    6.8841  -22.7508 C   0  0  0  0  0  0  0  0  0  0  0  0
   -4.8526    7.2249  -23.2915 C   0  0  0  0  0  0  0  0  0  0  0  0
   -5.7165    8.0745  -22.3918 C   0  0  0  0  0  0  0  0  0  0  0  0
   -4.8416    9.8869  -21.7738 I   0  0  0  0  0  0  0  0  0  0  0  0
   -5.9715    5.1872  -18.9248 N   0  0  0  0  0  0  0  0  0  0  0  0
   -6.6594    4.9481  -17.7447 C   0  0  0  0  0  0  0  0  0  0  0  0
   -6.0637    5.0096  -16.4834 C   0  0  0  0  0  0  0  0  0  0  0  0
   -6.7925    4.6859  -15.3331 C   0  0  0  0  0  0  0  0  0  0  0  0
   -6.0191    4.8692  -13.6269 Br  0  0  0  0  0  0  0  0  0  0  0  0
   -8.1153    4.2678  -15.3836 C   0  0  0  0  0  0  0  0  0  0  0  0
   -8.7305    4.2780  -16.6261 C   0  0  0  0  0  0  0  0  0  0  0  0
  -10.0452    4.0818  -16.8991 N   0  0  0  0  0  0  0  0  0  0  0  0
  -10.1549    4.4792  -18.1274 C   0  0  0  0  0  0  0  0  0  0  0  0
  -11.3063    4.8524  -18.6201 O   0  0  0  0  0  0  0  0  0  0  0  0
   -8.9645    4.6255  -18.7622 N   0  0  0  0  0  0  0  0  0  0  0  0
   -8.0123    4.6173  -17.7714 C   0  0  0  0  0  0  0  0  0  0  0  0
  1  2  2  0
  2  3  1  0
  3  4  1  0
  4  5  1  0
  5  6  1  0
  6  7  1  0
  7  8  1  0
  2  9  1  0
  9 10  1  0
 10 11  2  0
 11 12  1  0
 12 13  1  0
 12 14  2  0
 14 15  1  0
 15 16  1  0
 16 17  2  0
 17 18  1  0
 17 19  1  0
 19 20  1  0
 20 10  1  0
 20 15  2  0
M  END
>  <energy_score>  (5392) 
-29.858109

>  <alias>  (5392) 
CZMCTLOSXROXBX-UHFFFAOYSA-N-P50-P50-P86-601534

>  <HIPPO Pose ID>  (5392) 
92168

>  <smiles>  (5392) 
O=C(CCCCCI)Nc1cc(Br)cc2nc(O)[nH]c12

>  <inchikey>  (5392) 
CZMCTLOSXROXBX-UHFFFAOYSA-N

>  <distance_score>  (5392) 
1.522021

>  <ref_mols>  (5392) 
Z0846a,Z1597a

>  <ref_pdb>  (5392) 
Z0846a

>  <HIPPO Compound ID>  (5392) 
136946

>  <name>  (5392) 
CZMCTLOSXROXBX-UHFFFAOYSA-N-P50-P50-P86-601534

>  <inspiration_score>  (5392) 
None

$$$$
MINZFIZEVHEOOU-UHFFFAOYSA-N-P50-P50-P86-601534
     RDKit          3D

 20 21  0  0  0  0  0  0  0  0999 V2000
   -3.7701    6.3294  -17.9036 O   0  0  0  0  0  0  0  0  0  0  0  0
   -4.6213    6.1880  -18.6944 C   0  0  0  0  0  0  0  0  0  0  0  0
   -4.4804    6.6883  -20.1289 C   0  0  0  0  0  0  0  0  0  0  0  0
   -5.4770    7.7996  -20.4517 C   0  0  0  0  0  0  0  0  0  0  0  0
   -5.2277    8.6610  -21.7053 C   0  0  0  0  0  0  0  0  0  0  0  0
   -5.5180    8.0715  -23.0783 C   0  0  0  0  0  0  0  0  0  0  0  0
   -4.7772    6.7961  -23.4154 C   0  0  0  0  0  0  0  0  0  0  0  0
   -2.6693    7.0619  -23.3032 I   0  0  0  0  0  0  0  0  0  0  0  0
   -6.0325    5.5423  -18.5538 N   0  0  0  0  0  0  0  0  0  0  0  0
   -6.6900    5.0468  -17.4350 C   0  0  0  0  0  0  0  0  0  0  0  0
   -6.0949    5.0302  -16.1707 C   0  0  0  0  0  0  0  0  0  0  0  0
   -6.8377    4.6660  -15.0455 C   0  0  0  0  0  0  0  0  0  0  0  0
   -6.1375    4.7653  -13.4844 Cl  0  0  0  0  0  0  0  0  0  0  0  0
   -8.1759    4.2991  -15.1173 C   0  0  0  0  0  0  0  0  0  0  0  0
   -8.7399    4.3537  -16.3771 C   0  0  0  0  0  0  0  0  0  0  0  0
  -10.0342    4.2352  -16.7786 N   0  0  0  0  0  0  0  0  0  0  0  0
  -10.0869    4.5900  -18.0844 C   0  0  0  0  0  0  0  0  0  0  0  0
  -11.2099    4.8891  -18.6964 O   0  0  0  0  0  0  0  0  0  0  0  0
   -8.9002    4.7313  -18.6067 N   0  0  0  0  0  0  0  0  0  0  0  0
   -8.0448    4.6825  -17.5353 C   0  0  0  0  0  0  0  0  0  0  0  0
  1  2  2  0
  2  3  1  0
  3  4  1  0
  4  5  1  0
  5  6  1  0
  6  7  1  0
  7  8  1  0
  2  9  1  0
  9 10  1  0
 10 11  2  0
 11 12  1  0
 12 13  1  0
 12 14  2  0
 14 15  1  0
 15 16  1  0
 16 17  1  0
 17 18  1  0
 17 19  2  0
 19 20  1  0
 20 10  1  0
 20 15  2  0
M  END
>  <energy_score>  (5393) 
-16.072219

>  <alias>  (5393) 
MINZFIZEVHEOOU-UHFFFAOYSA-N-P50-P50-P86-601534

>  <HIPPO Pose ID>  (5393) 
92170

>  <smiles>  (5393) 
O=C(CCCCCI)Nc1cc(Cl)cc2[nH]c(O)nc12

>  <inchikey>  (5393) 
MINZFIZEVHEOOU-UHFFFAOYSA-N

>  <distance_score>  (5393) 
1.633347

>  <ref_mols>  (5393) 
Z0846a,Z1597a

>  <ref_pdb>  (5393) 
Z0846a

>  <HIPPO Compound ID>  (5393) 
136947

>  <name>  (5393) 
MINZFIZEVHEOOU-UHFFFAOYSA-N-P50-P50-P86-601534

>  <inspiration_score>  (5393) 
None

$$$$
TWSSSCDARGUYGF-UHFFFAOYSA-N-P86-P50-P86-601534
     RDKit          3D

 20 21  0  0  0  0  0  0  0  0999 V2000
   -6.4982    7.9532  -24.2606 O   0  0  0  0  0  0  0  0  0  0  0  0
   -5.3191    7.8303  -23.9467 C   0  0  0  0  0  0  0  0  0  0  0  0
   -4.8687    7.0261  -22.7633 C   0  0  0  0  0  0  0  0  0  0  0  0
   -4.1930    7.9232  -21.7369 C   0  0  0  0  0  0  0  0  0  0  0  0
   -4.4263    7.4593  -20.3076 C   0  0  0  0  0  0  0  0  0  0  0  0
   -3.9467    6.0342  -20.0460 C   0  0  0  0  0  0  0  0  0  0  0  0
   -4.2539    5.6825  -18.6051 C   0  0  0  0  0  0  0  0  0  0  0  0
   -3.4507    5.7273  -17.7562 O   0  0  0  0  0  0  0  0  0  0  0  0
   -5.7835    5.3860  -18.5341 N   0  0  0  0  0  0  0  0  0  0  0  0
   -6.5770    5.0086  -17.4635 C   0  0  0  0  0  0  0  0  0  0  0  0
   -6.1022    5.0939  -16.1504 C   0  0  0  0  0  0  0  0  0  0  0  0
   -6.9093    4.7471  -15.0678 C   0  0  0  0  0  0  0  0  0  0  0  0
   -6.2978    4.9890  -13.3064 Br  0  0  0  0  0  0  0  0  0  0  0  0
   -8.1944    4.2633  -15.2387 C   0  0  0  0  0  0  0  0  0  0  0  0
   -8.6879    4.2175  -16.5342 C   0  0  0  0  0  0  0  0  0  0  0  0
   -9.9592    3.9470  -16.9097 N   0  0  0  0  0  0  0  0  0  0  0  0
   -9.9997    4.3546  -18.1364 C   0  0  0  0  0  0  0  0  0  0  0  0
  -11.1341    4.7202  -18.6734 O   0  0  0  0  0  0  0  0  0  0  0  0
   -8.7717    4.5549  -18.6864 N   0  0  0  0  0  0  0  0  0  0  0  0
   -7.8994    4.5999  -17.6214 C   0  0  0  0  0  0  0  0  0  0  0  0
  1  2  2  0
  2  3  1  0
  3  4  1  0
  4  5  1  0
  5  6  1  0
  6  7  1  0
  7  8  2  0
  7  9  1  0
  9 10  1  0
 10 11  2  0
 11 12  1  0
 12 13  1  0
 12 14  2  0
 14 15  1  0
 15 16  1  0
 16 17  2  0
 17 18  1  0
 17 19  1  0
 19 20  1  0
 20 10  1  0
 20 15  2  0
M  END
>  <energy_score>  (5394) 
-35.595785

>  <alias>  (5394) 
TWSSSCDARGUYGF-UHFFFAOYSA-N-P86-P50-P86-601534

>  <HIPPO Pose ID>  (5394) 
92173

>  <smiles>  (5394) 
O=CCCCCC(=O)Nc1cc(Br)cc2nc(O)[nH]c12

>  <inchikey>  (5394) 
TWSSSCDARGUYGF-UHFFFAOYSA-N

>  <distance_score>  (5394) 
1.153991

>  <ref_mols>  (5394) 
Z0846a,Z1597a

>  <ref_pdb>  (5394) 
Z0846a

>  <HIPPO Compound ID>  (5394) 
136948

>  <name>  (5394) 
TWSSSCDARGUYGF-UHFFFAOYSA-N-P86-P50-P86-601534

>  <inspiration_score>  (5394) 
None

$$$$
QOOSTCRVQRJVLY-UHFFFAOYSA-N-P86-P50-P86-601534
     RDKit          3D

 20 21  0  0  0  0  0  0  0  0999 V2000
   -5.6231   10.0243  -23.7576 C   0  0  0  0  0  0  0  0  0  0  0  0
   -4.9107    9.1148  -23.0791 C   0  0  0  0  0  0  0  0  0  0  0  0
   -5.1281    7.6316  -23.1919 C   0  0  0  0  0  0  0  0  0  0  0  0
   -5.0661    6.8752  -21.8570 C   0  0  0  0  0  0  0  0  0  0  0  0
   -3.6671    6.8255  -21.2384 C   0  0  0  0  0  0  0  0  0  0  0  0
   -3.5412    5.7922  -20.1219 C   0  0  0  0  0  0  0  0  0  0  0  0
   -4.0451    6.2851  -18.7634 C   0  0  0  0  0  0  0  0  0  0  0  0
   -3.4348    7.0320  -18.1022 O   0  0  0  0  0  0  0  0  0  0  0  0
   -5.3741    5.5344  -18.4699 N   0  0  0  0  0  0  0  0  0  0  0  0
   -6.1423    5.4783  -17.3131 C   0  0  0  0  0  0  0  0  0  0  0  0
   -5.7685    6.0210  -16.0845 C   0  0  0  0  0  0  0  0  0  0  0  0
   -6.5814    5.8321  -14.9547 C   0  0  0  0  0  0  0  0  0  0  0  0
   -6.1019    6.4318  -13.4257 Cl  0  0  0  0  0  0  0  0  0  0  0  0
   -7.7964    5.1585  -14.9912 C   0  0  0  0  0  0  0  0  0  0  0  0
   -8.1257    4.6400  -16.2205 C   0  0  0  0  0  0  0  0  0  0  0  0
   -9.1895    3.8915  -16.6088 N   0  0  0  0  0  0  0  0  0  0  0  0
   -8.8921    3.4450  -17.8527 C   0  0  0  0  0  0  0  0  0  0  0  0
   -9.4745    2.4026  -18.3752 O   0  0  0  0  0  0  0  0  0  0  0  0
   -7.8656    4.0302  -18.3896 N   0  0  0  0  0  0  0  0  0  0  0  0
   -7.3376    4.7492  -17.3603 C   0  0  0  0  0  0  0  0  0  0  0  0
  1  2  2  0
  2  3  1  0
  3  4  1  0
  4  5  1  0
  5  6  1  0
  6  7  1  0
  7  8  2  0
  7  9  1  0
  9 10  1  0
 10 11  2  0
 11 12  1  0
 12 13  1  0
 12 14  2  0
 14 15  1  0
 15 16  1  0
 16 17  1  0
 17 18  1  0
 17 19  2  0
 19 20  1  0
 20 10  1  0
 20 15  2  0
M  END
>  <energy_score>  (5395) 
-10.368497

>  <alias>  (5395) 
QOOSTCRVQRJVLY-UHFFFAOYSA-N-P86-P50-P86-601534

>  <HIPPO Pose ID>  (5395) 
92183

>  <smiles>  (5395) 
C=CCCCCC(=O)Nc1cc(Cl)cc2[nH]c(O)nc12

>  <inchikey>  (5395) 
QOOSTCRVQRJVLY-UHFFFAOYSA-N

>  <distance_score>  (5395) 
1.329202

>  <ref_mols>  (5395) 
Z0846a,Z1597a

>  <ref_pdb>  (5395) 
Z0846a

>  <HIPPO Compound ID>  (5395) 
136953

>  <name>  (5395) 
QOOSTCRVQRJVLY-UHFFFAOYSA-N-P86-P50-P86-601534

>  <inspiration_score>  (5395) 
None

$$$$
GJMQNXWXATXSHK-UHFFFAOYSA-N-P86-P50-P86-601534
     RDKit          3D

 20 21  0  0  0  0  0  0  0  0999 V2000
   -5.6803    7.3844  -24.2211 C   0  0  0  0  0  0  0  0  0  0  0  0
   -5.3106    7.8701  -23.0243 C   0  0  0  0  0  0  0  0  0  0  0  0
   -5.1245    9.3459  -22.8155 C   0  0  0  0  0  0  0  0  0  0  0  0
   -5.1107    6.9660  -21.8235 C   0  0  0  0  0  0  0  0  0  0  0  0
   -3.7097    7.0331  -21.2146 C   0  0  0  0  0  0  0  0  0  0  0  0
   -3.4852    6.0153  -20.1005 C   0  0  0  0  0  0  0  0  0  0  0  0
   -4.0877    6.4154  -18.7480 C   0  0  0  0  0  0  0  0  0  0  0  0
   -3.5338    7.1141  -17.9916 O   0  0  0  0  0  0  0  0  0  0  0  0
   -5.4319    5.6435  -18.6090 N   0  0  0  0  0  0  0  0  0  0  0  0
   -6.2862    5.5044  -17.5178 C   0  0  0  0  0  0  0  0  0  0  0  0
   -5.9897    5.9316  -16.2231 C   0  0  0  0  0  0  0  0  0  0  0  0
   -6.8357    5.6074  -15.1473 C   0  0  0  0  0  0  0  0  0  0  0  0
   -6.4065    6.1441  -13.3957 Br  0  0  0  0  0  0  0  0  0  0  0  0
   -7.9923    4.8527  -15.2970 C   0  0  0  0  0  0  0  0  0  0  0  0
   -8.2758    4.4084  -16.5757 C   0  0  0  0  0  0  0  0  0  0  0  0
   -9.2453    3.5356  -16.9507 N   0  0  0  0  0  0  0  0  0  0  0  0
   -8.9350    3.3023  -18.1849 C   0  0  0  0  0  0  0  0  0  0  0  0
   -9.2157    2.1762  -18.7614 O   0  0  0  0  0  0  0  0  0  0  0  0
   -8.0618    4.1765  -18.7197 N   0  0  0  0  0  0  0  0  0  0  0  0
   -7.4593    4.7712  -17.6493 C   0  0  0  0  0  0  0  0  0  0  0  0
  1  2  2  0
  2  3  1  0
  2  4  1  0
  4  5  1  0
  5  6  1  0
  6  7  1  0
  7  8  2  0
  7  9  1  0
  9 10  1  0
 10 11  2  0
 11 12  1  0
 12 13  1  0
 12 14  2  0
 14 15  1  0
 15 16  1  0
 16 17  2  0
 17 18  1  0
 17 19  1  0
 19 20  1  0
 20 10  1  0
 20 15  2  0
M  END
>  <energy_score>  (5396) 
-30.016328

>  <alias>  (5396) 
GJMQNXWXATXSHK-UHFFFAOYSA-N-P86-P50-P86-601534

>  <HIPPO Pose ID>  (5396) 
92185

>  <smiles>  (5396) 
C=C(C)CCCC(=O)Nc1cc(Br)cc2nc(O)[nH]c12

>  <inchikey>  (5396) 
GJMQNXWXATXSHK-UHFFFAOYSA-N

>  <distance_score>  (5396) 
1.337811

>  <ref_mols>  (5396) 
Z0846a,Z1597a

>  <ref_pdb>  (5396) 
Z0846a

>  <HIPPO Compound ID>  (5396) 
136954

>  <name>  (5396) 
GJMQNXWXATXSHK-UHFFFAOYSA-N-P86-P50-P86-601534

>  <inspiration_score>  (5396) 
None

$$$$
KNPZOHGJELJMHA-UHFFFAOYSA-N-P86-P50-P86-601534
     RDKit          3D

 20 21  0  0  0  0  0  0  0  0999 V2000
   -5.6704   10.1506  -23.6994 C   0  0  0  0  0  0  0  0  0  0  0  0
   -5.2278    9.0795  -23.0273 C   0  0  0  0  0  0  0  0  0  0  0  0
   -4.0362    9.1119  -22.1126 C   0  0  0  0  0  0  0  0  0  0  0  0
   -4.1863    8.3396  -20.7931 C   0  0  0  0  0  0  0  0  0  0  0  0
   -4.5061    6.8453  -20.9730 C   0  0  0  0  0  0  0  0  0  0  0  0
   -3.8399    5.9426  -19.9388 C   0  0  0  0  0  0  0  0  0  0  0  0
   -4.2298    6.2198  -18.4889 C   0  0  0  0  0  0  0  0  0  0  0  0
   -3.5665    6.8768  -17.7833 O   0  0  0  0  0  0  0  0  0  0  0  0
   -5.5401    5.4273  -18.1945 N   0  0  0  0  0  0  0  0  0  0  0  0
   -6.2205    5.2142  -16.9925 C   0  0  0  0  0  0  0  0  0  0  0  0
   -5.6365    5.5881  -15.7789 C   0  0  0  0  0  0  0  0  0  0  0  0
   -6.2720    5.3462  -14.5399 C   0  0  0  0  0  0  0  0  0  0  0  0
   -7.5203    4.7423  -14.4725 C   0  0  0  0  0  0  0  0  0  0  0  0
   -8.0855    4.4124  -15.6703 C   0  0  0  0  0  0  0  0  0  0  0  0
   -9.3567    3.9215  -15.8835 N   0  0  0  0  0  0  0  0  0  0  0  0
   -9.6096    3.9116  -17.2464 C   0  0  0  0  0  0  0  0  0  0  0  0
  -10.6884    3.7180  -17.7765 O   0  0  0  0  0  0  0  0  0  0  0  0
   -8.3998    4.2047  -17.8712 N   0  0  0  0  0  0  0  0  0  0  0  0
   -8.3122    4.4646  -19.2484 C   0  0  0  0  0  0  0  0  0  0  0  0
   -7.4680    4.6160  -16.9094 C   0  0  0  0  0  0  0  0  0  0  0  0
  1  2  2  0
  2  3  1  0
  3  4  1  0
  4  5  1  0
  5  6  1  0
  6  7  1  0
  7  8  2  0
  7  9  1  0
  9 10  1  0
 10 11  2  0
 11 12  1  0
 12 13  2  0
 13 14  1  0
 14 15  1  0
 15 16  1  0
 16 17  2  0
 16 18  1  0
 18 19  1  0
 18 20  1  0
 20 10  1  0
 20 14  2  0
M  END
>  <energy_score>  (5397) 
-2.76969

>  <alias>  (5397) 
KNPZOHGJELJMHA-UHFFFAOYSA-N-P86-P50-P86-601534

>  <HIPPO Pose ID>  (5397) 
92189

>  <smiles>  (5397) 
C=CCCCCC(=O)Nc1cccc2[nH]c(=O)n(C)c12

>  <inchikey>  (5397) 
KNPZOHGJELJMHA-UHFFFAOYSA-N

>  <distance_score>  (5397) 
1.38097

>  <ref_mols>  (5397) 
Z0846a,Z1597a

>  <ref_pdb>  (5397) 
Z0846a

>  <HIPPO Compound ID>  (5397) 
136956

>  <name>  (5397) 
KNPZOHGJELJMHA-UHFFFAOYSA-N-P86-P50-P86-601534

>  <inspiration_score>  (5397) 
None

$$$$
AYGISRIVMPCNDV-UHFFFAOYSA-N-P86-P50-P86-601534
     RDKit          3D

 20 21  0  0  0  0  0  0  0  0999 V2000
   -5.7454    7.6124  -24.5781 C   0  0  0  0  0  0  0  0  0  0  0  0
   -5.3450    8.0499  -23.1773 C   0  0  0  0  0  0  0  0  0  0  0  0
   -4.5423    6.9813  -22.4087 C   0  0  1  0  0  0  0  0  0  0  0  0
   -3.1214    6.8647  -22.9690 C   0  0  0  0  0  0  0  0  0  0  0  0
   -4.5252    7.3219  -20.9063 C   0  0  0  0  0  0  0  0  0  0  0  0
   -3.7756    6.3147  -20.0374 C   0  0  0  0  0  0  0  0  0  0  0  0
   -4.1786    6.4404  -18.5693 C   0  0  0  0  0  0  0  0  0  0  0  0
   -3.4961    6.9226  -17.7520 O   0  0  0  0  0  0  0  0  0  0  0  0
   -5.5889    5.7897  -18.4507 N   0  0  0  0  0  0  0  0  0  0  0  0
   -6.3700    5.5269  -17.3316 C   0  0  0  0  0  0  0  0  0  0  0  0
   -6.0279    5.9071  -16.0345 C   0  0  0  0  0  0  0  0  0  0  0  0
   -6.8398    5.5540  -14.9457 C   0  0  0  0  0  0  0  0  0  0  0  0
   -6.3680    6.0613  -13.1988 Br  0  0  0  0  0  0  0  0  0  0  0  0
   -8.0007    4.8069  -15.0841 C   0  0  0  0  0  0  0  0  0  0  0  0
   -8.3201    4.3982  -16.3652 C   0  0  0  0  0  0  0  0  0  0  0  0
   -9.3099    3.5554  -16.7351 N   0  0  0  0  0  0  0  0  0  0  0  0
   -9.0394    3.3199  -17.9804 C   0  0  0  0  0  0  0  0  0  0  0  0
   -9.3884    2.2028  -18.5562 O   0  0  0  0  0  0  0  0  0  0  0  0
   -8.1739    4.2132  -18.5210 N   0  0  0  0  0  0  0  0  0  0  0  0
   -7.5383    4.7839  -17.4533 C   0  0  0  0  0  0  0  0  0  0  0  0
  1  2  1  0
  2  3  1  0
  3  4  1  6
  3  5  1  0
  5  6  1  0
  6  7  1  0
  7  8  2  0
  7  9  1  0
  9 10  1  0
 10 11  2  0
 11 12  1  0
 12 13  1  0
 12 14  2  0
 14 15  1  0
 15 16  1  0
 16 17  2  0
 17 18  1  0
 17 19  1  0
 19 20  1  0
 20 10  1  0
 20 15  2  0
M  END
>  <energy_score>  (5398) 
-16.175996

>  <alias>  (5398) 
AYGISRIVMPCNDV-UHFFFAOYSA-N-P86-P50-P86-601534

>  <HIPPO Pose ID>  (5398) 
92197

>  <smiles>  (5398) 
CCC(C)CCC(=O)Nc1cc(Br)cc2nc(O)[nH]c12

>  <inchikey>  (5398) 
AYGISRIVMPCNDV-UHFFFAOYSA-N

>  <distance_score>  (5398) 
1.298911

>  <ref_mols>  (5398) 
Z0846a,Z1597a

>  <ref_pdb>  (5398) 
Z0846a

>  <HIPPO Compound ID>  (5398) 
136960

>  <name>  (5398) 
AYGISRIVMPCNDV-UHFFFAOYSA-N-P86-P50-P86-601534

>  <inspiration_score>  (5398) 
None

$$$$
JVKHOUOBEMMWRQ-UHFFFAOYSA-N-P50-P50-P86-601534
     RDKit          3D

 20 21  0  0  0  0  0  0  0  0999 V2000
   -4.6146    9.2556  -23.0967 C   0  0  0  0  0  0  0  0  0  0  0  0
   -5.5355    8.0478  -23.1300 C   0  0  1  0  0  0  0  0  0  0  0  0
   -5.8257    7.7137  -24.4856 O   0  0  0  0  0  0  0  0  0  0  0  0
   -4.9429    6.8071  -22.4649 C   0  0  0  0  0  0  0  0  0  0  0  0
   -4.7899    6.9016  -20.9448 C   0  0  0  0  0  0  0  0  0  0  0  0
   -4.2893    5.5811  -20.3673 C   0  0  0  0  0  0  0  0  0  0  0  0
   -4.4904    5.4751  -18.8647 C   0  0  0  0  0  0  0  0  0  0  0  0
   -3.6328    5.6435  -18.0877 O   0  0  0  0  0  0  0  0  0  0  0  0
   -5.9676    5.0325  -18.6558 N   0  0  0  0  0  0  0  0  0  0  0  0
   -6.6844    4.8090  -17.4893 C   0  0  0  0  0  0  0  0  0  0  0  0
   -6.1224    4.8197  -16.2146 C   0  0  0  0  0  0  0  0  0  0  0  0
   -6.9330    4.6058  -15.0939 C   0  0  0  0  0  0  0  0  0  0  0  0
   -6.2617    4.7196  -13.5196 Cl  0  0  0  0  0  0  0  0  0  0  0  0
   -8.3017    4.3549  -15.1841 C   0  0  0  0  0  0  0  0  0  0  0  0
   -8.8301    4.3862  -16.4611 C   0  0  0  0  0  0  0  0  0  0  0  0
  -10.1151    4.3261  -16.9179 N   0  0  0  0  0  0  0  0  0  0  0  0
  -10.0711    4.6625  -18.2246 C   0  0  0  0  0  0  0  0  0  0  0  0
  -11.1167    5.1172  -18.8622 O   0  0  0  0  0  0  0  0  0  0  0  0
   -8.8670    4.7103  -18.7086 N   0  0  0  0  0  0  0  0  0  0  0  0
   -8.0682    4.6053  -17.6031 C   0  0  0  0  0  0  0  0  0  0  0  0
  2  1  1  6
  2  3  1  0
  2  4  1  0
  4  5  1  0
  5  6  1  0
  6  7  1  0
  7  8  2  0
  7  9  1  0
  9 10  1  0
 10 11  2  0
 11 12  1  0
 12 13  1  0
 12 14  2  0
 14 15  1  0
 15 16  1  0
 16 17  1  0
 17 18  1  0
 17 19  2  0
 19 20  1  0
 20 10  1  0
 20 15  2  0
M  END
>  <energy_score>  (5399) 
-39.0943

>  <alias>  (5399) 
JVKHOUOBEMMWRQ-UHFFFAOYSA-N-P50-P50-P86-601534

>  <HIPPO Pose ID>  (5399) 
92202

>  <smiles>  (5399) 
CC(O)CCCC(=O)Nc1cc(Cl)cc2[nH]c(O)nc12

>  <inchikey>  (5399) 
JVKHOUOBEMMWRQ-UHFFFAOYSA-N

>  <distance_score>  (5399) 
0.958403

>  <ref_mols>  (5399) 
Z0846a,Z1597a

>  <ref_pdb>  (5399) 
Z0846a

>  <HIPPO Compound ID>  (5399) 
136963

>  <name>  (5399) 
JVKHOUOBEMMWRQ-UHFFFAOYSA-N-P50-P50-P86-601534

>  <inspiration_score>  (5399) 
None

$$$$
